
###############################################################################
#
# This file contains modified crystal structure data generated from the
# MOF subset of the Cambridge Structural Database (CSD) v543 
# hosted by the Cambridge Crystallographic Data Centre (CCDC).
#
# This work is licensed under the Creative Commons
# Attribution-NonCommercial-ShareAlike 4.0 International License.
# To view a copy of this license, visit
# http://creativecommons.org/licenses/by-nc-sa/4.0/
# or send a letter to
# Creative Commons, PO Box 1866, Mountain View, CA 94042, USA.
#
# CIF created using the CSD Python API on 29 September 2022
# The structure has been converted into the P1 space group
# The structure has a 3D framework
# The original CSD entry IXUWOO is in the monoclinic crystal system
# The framework has been calculated to contain at least 10.0% void space
# The void calculation uses a probe of radius 1.32A, grid spacing 0.4
#
###############################################################################

data_IXUWOO
_chemical_formula_moiety         '(C240 H160 Co8 N32 O48)n'
_symmetry_cell_setting           triclinic
_symmetry_space_group_name_H-M   'P 1'
_symmetry_Int_Tables_number      1
_space_group_name_Hall           'P 1'
loop_
_symmetry_equiv_pos_site_id
_symmetry_equiv_pos_as_xyz
1 x,y,z
_cell_length_a                   22.162(2)
_cell_length_b                   20.532(2)
_cell_length_c                   16.1364(15)
_cell_angle_alpha                90
_cell_angle_beta                 95.937(2)
_cell_angle_gamma                90
_cell_volume                     7303.17
loop_
_atom_site_label
_atom_site_type_symbol
_atom_site_fract_x
_atom_site_fract_y
_atom_site_fract_z
Co3 Co 0.28677(4) 0.51443(4) 0.74527(5)
N7 N 0.1948(2) 0.4912(3) 0.7133(3)
N10 N 0.0200(3) 0.4419(3) 0.6099(4)
H22 H 0.0162 0.4016 0.5954
C56 C 0.1817(3) 0.4373(4) 0.6700(5)
H37 H 0.2135 0.4096 0.6609
C57 C 0.1248(3) 0.4197(4) 0.6378(5)
H38 H 0.1185 0.3804 0.6095
C58 C 0.0770(3) 0.4604(3) 0.6476(4)
C59 C 0.0889(3) 0.5149(4) 0.6937(5)
H39 H 0.0576 0.5427 0.7045
C60 C 0.1483(3) 0.5289(3) 0.7246(4)
H40 H 0.1557 0.5670 0.7550
N3 N 0.8052(2) 0.5088(3) 0.2867(3)
N4 N 0.9800(3) 0.5581(3) 0.3901(4)
H2 H 0.9838 0.5984 0.4046
C26 C 0.8183(3) 0.5627(4) 0.3300(5)
H17 H 0.7865 0.5904 0.3391
C27 C 0.8752(3) 0.5803(4) 0.3622(5)
H18 H 0.8815 0.6196 0.3905
C28 C 0.9230(3) 0.5396(3) 0.3524(4)
C29 C 0.9111(3) 0.4851(4) 0.3063(5)
H19 H 0.9424 0.4573 0.2955
C30 C 0.8517(3) 0.4711(3) 0.2754(4)
H20 H 0.8443 0.4330 0.2450
Co5 Co 0.71323(4) 0.48557(4) 0.25473(5)
C12 C 0.7581(3) 0.2202(3) 0.0186(4)
O9 O 0.7314(2) 0.3819(2) 0.2474(3)
O11 O 0.7239(2) 0.4431(2) 0.1377(3)
C37 C 0.7312(3) 0.3881(3) 0.1694(4)
C38 C 0.7665(3) 0.2178(3) 0.1072(4)
H26 H 0.7783 0.1788 0.1333
C39 C 0.7577(3) 0.2706(3) 0.1546(4)
H27 H 0.7629 0.2674 0.2124
C40 C 0.7408(3) 0.3302(3) 0.1163(4)
C41 C 0.7336(3) 0.3348(3) 0.0322(4)
H28 H 0.7231 0.3747 0.0073
N1 N 0.3107(2) 0.4232(3) 0.7961(3)
N2 N 0.3323(3) 0.2381(3) 0.9010(4)
H1 H 0.3012 0.2257 0.9245
O1 O 0.3814(2) 0.5321(3) 0.7180(3)
O2 O 0.3115(2) 0.4951(3) 0.6262(3)
O3 O 0.2686(2) 0.6181(2) 0.7526(3)
O4 O 0.2761(2) 0.5569(2) 0.8623(3)
O5 O 0.4242(3) 0.2034(4) 0.8674(5)
C1 C 0.3658(3) 0.5125(4) 0.6462(4)
C2 C 0.4257(3) 0.4889(4) 0.4375(5)
H3 H 0.4107 0.4820 0.3822
C3 C 0.3869(3) 0.4940(4) 0.4971(5)
H4 H 0.3454 0.4892 0.4828
C4 C 0.4096(3) 0.5068(4) 0.5813(4)
C5 C 0.4693(3) 0.5132(4) 0.6035(5)
H5 H 0.4834 0.5221 0.6586
C6 C 0.5123(3) 0.5060(4) 0.5407(4)
C7 C 0.2688(3) 0.6119(3) 0.8306(4)
C8 C 0.2335(3) 0.7822(3) 0.8928(4)
H6 H 0.2217 0.8212 0.8667
C9 C 0.2423(3) 0.7294(3) 0.8454(4)
H7 H 0.2371 0.7326 0.7876
C10 C 0.2592(3) 0.6698(3) 0.8837(4)
C11 C 0.2664(3) 0.6652(3) 0.9678(4)
H8 H 0.2769 0.6253 0.9927
C13 C 0.3781(4) 0.1945(4) 0.9034(5)
C15 C 0.3689(3) 0.1330(4) 0.9521(5)
C16 C 0.4205(3) 0.1066(4) 0.9971(5)
H9 H 0.4579 0.1267 0.9949
C19 C 0.3110(3) 0.0458(4) 0.9956(5)
H11 H 0.2742 0.0238 0.9933
C20 C 0.3150(3) 0.1035(4) 0.9528(5)
H12 H 0.2805 0.1218 0.9245
C21 C 0.3560(3) 0.3859(4) 0.7802(5)
H13 H 0.3829 0.4019 0.7446
C22 C 0.3661(3) 0.3245(4) 0.8129(5)
H14 H 0.3987 0.2999 0.7986
C23 C 0.3279(3) 0.2998(4) 0.8666(4)
C24 C 0.2831(4) 0.3401(4) 0.8858(5)
H15 H 0.2570 0.3265 0.9240
C25 C 0.2756(3) 0.3996(4) 0.8507(4)
H16 H 0.2441 0.4256 0.8657
N5 N 0.6893(2) 0.5768(3) 0.2039(3)
N6 N 0.6677(3) 0.7619(3) 0.0990(4)
H21 H 0.6988 0.7743 0.0755
O7 O 0.6186(2) 0.4679(3) 0.2820(3)
O8 O 0.6885(2) 0.5049(3) 0.3738(3)
O13 O 0.5758(3) 0.7966(4) 0.1326(5)
C31 C 0.6342(3) 0.4875(4) 0.3538(4)
C32 C 0.5743(3) 0.5111(4) 0.5625(5)
H23 H 0.5893 0.5180 0.6178
C33 C 0.6131(3) 0.5060(4) 0.5029(5)
H24 H 0.6546 0.5108 0.5172
C34 C 0.5904(3) 0.4932(4) 0.4187(4)
C35 C 0.5307(3) 0.4868(4) 0.3965(5)
H25 H 0.5166 0.4779 0.3414
C36 C 0.4877(3) 0.4940(4) 0.4593(4)
C42 C 0.2419(3) 0.7798(3) 0.9814(4)
C43 C 0.6219(4) 0.8055(4) 0.0966(5)
C45 C 0.6311(3) 0.8670(4) 0.0479(5)
C46 C 0.5795(3) 0.8934(4) 0.0029(5)
H29 H 0.5421 0.8733 0.0051
C49 C 0.6890(3) 0.9542(4) 0.0044(5)
H31 H 0.7258 0.9762 0.0067
C50 C 0.6850(3) 0.8965(4) 0.0472(5)
H32 H 0.7195 0.8782 0.0755
C51 C 0.6440(3) 0.6141(4) 0.2198(5)
H33 H 0.6171 0.5981 0.2554
C52 C 0.6339(3) 0.6755(4) 0.1871(5)
H34 H 0.6013 0.7001 0.2014
C53 C 0.6721(3) 0.7002(4) 0.1334(4)
C54 C 0.7169(4) 0.6599(4) 0.1142(5)
H35 H 0.7430 0.6735 0.0760
C55 C 0.7244(3) 0.6004(4) 0.1493(4)
H36 H 0.7559 0.5744 0.1343
Co1 Co 0.21323(4) 0.01443(4) 0.75473(5)
O1_2 O 0.1186(2) 0.0321(3) 0.7820(3)
O3_2 O 0.2314(2) 0.1181(2) 0.7474(3)
O4_2 O 0.2239(2) 0.0569(2) 0.6377(3)
C1_2 C 0.1342(3) 0.0125(4) 0.8538(4)
C4_2 C 0.0904(3) 0.0068(4) 0.9187(4)
C5_2 C 0.0307(3) 0.0132(4) 0.8965(5)
H5_2 H 0.0166 0.0221 0.8414
C7_2 C 0.2312(3) 0.1119(3) 0.6694(4)
C8_2 C 0.2665(3) 0.2822(3) 0.6072(4)
H6_2 H 0.2783 0.3212 0.6333
C9_2 C 0.2577(3) 0.2294(3) 0.6546(4)
H7_2 H 0.2629 0.2326 0.7124
C10_2 C 0.2408(3) 0.1698(3) 0.6163(4)
C11_2 C 0.2336(3) 0.1652(3) 0.5322(4)
H8_2 H 0.2231 0.1253 0.5073
C12_2 C 0.2419(3) 0.2202(3) 0.4814(4)
Co4 Co 0.28677(4) 0.48557(4) 0.24527(5)
O9_2 O 0.2686(2) 0.3819(2) 0.2526(3)
O11_2 O 0.2761(2) 0.4431(2) 0.3623(3)
C37_2 C 0.2688(3) 0.3881(3) 0.3306(4)
C38_2 C 0.2335(3) 0.2178(3) 0.3928(4)
H26_2 H 0.2217 0.1788 0.3667
C39_2 C 0.2423(3) 0.2706(3) 0.3454(4)
H27_2 H 0.2371 0.2674 0.2876
C40_2 C 0.2592(3) 0.3302(3) 0.3837(4)
C41_2 C 0.2664(3) 0.3348(3) 0.4678(4)
H28_2 H 0.2769 0.3747 0.4927
C42_2 C 0.2581(3) 0.2798(3) 0.5186(4)
N3_2 N 0.1948(2) 0.5088(3) 0.2133(3)
N4_2 N 0.0200(3) 0.5581(3) 0.1099(4)
H2_2 H 0.0162 0.5984 0.0954
C26_2 C 0.1817(3) 0.5627(4) 0.1700(5)
H17_2 H 0.2135 0.5904 0.1609
C27_2 C 0.1248(3) 0.5803(4) 0.1378(5)
H18_2 H 0.1185 0.6196 0.1095
C28_2 C 0.0770(3) 0.5396(3) 0.1476(4)
C29_2 C 0.0889(3) 0.4851(4) 0.1937(5)
H19_2 H 0.0576 0.4573 0.2045
C30_2 C 0.1483(3) 0.4711(3) 0.2246(4)
H20_2 H 0.1557 0.4330 0.2550
N1_2 N 0.8107(2) 0.9232(3) 0.7961(3)
N2_2 N 0.8323(3) 0.7381(3) 0.9010(4)
H1_2 H 0.8012 0.7257 0.9245
O2_2 O 0.8115(2) 0.9951(3) 0.6262(3)
O5_2 O 0.9242(3) 0.7034(4) 0.8674(5)
C2_2 C 0.9257(3) 0.9889(4) 0.4375(5)
H3_2 H 0.9107 0.9820 0.3822
C3_2 C 0.8869(3) 0.9940(4) 0.4971(5)
H4_2 H 0.8454 0.9892 0.4828
C13_2 C 0.8781(4) 0.6945(4) 0.9034(5)
C15_2 C 0.8689(3) 0.6330(4) 0.9521(5)
C16_2 C 0.9205(3) 0.6066(4) 0.9971(5)
H9_2 H 0.9579 0.6267 0.9949
C19_2 C 0.8110(3) 0.5458(4) 0.9956(5)
H11_2 H 0.7742 0.5238 0.9933
C20_2 C 0.8150(3) 0.6035(4) 0.9528(5)
H12_2 H 0.7805 0.6218 0.9245
C21_2 C 0.8560(3) 0.8859(4) 0.7802(5)
H13_2 H 0.8829 0.9019 0.7446
C22_2 C 0.8661(3) 0.8245(4) 0.8129(5)
H14_2 H 0.8987 0.7999 0.7986
C23_2 C 0.8279(3) 0.7998(4) 0.8666(4)
C24_2 C 0.7831(4) 0.8401(4) 0.8858(5)
H15_2 H 0.7570 0.8265 0.9240
C25_2 C 0.7756(3) 0.8996(4) 0.8507(4)
H16_2 H 0.7441 0.9256 0.8657
N9 N 0.6948(2) 0.9912(3) 0.7133(3)
C36_2 C 0.9877(3) 0.9940(4) 0.4593(4)
C2_3 C 0.5743(3) 0.4889(4) 0.0625(5)
H3_3 H 0.5893 0.4820 0.1178
C3_3 C 0.6131(3) 0.4940(4) 0.0029(5)
H4_3 H 0.6546 0.4892 0.0172
N5_2 N 0.3107(2) 0.5768(3) 0.2961(3)
N6_2 N 0.3323(3) 0.7619(3) 0.4010(4)
H21_2 H 0.3012 0.7743 0.4245
N10_2 N 0.5200(3) 0.9419(3) 0.6099(4)
H22_2 H 0.5162 0.9016 0.5954
O7_2 O 0.3814(2) 0.4679(3) 0.2180(3)
O8_2 O 0.3115(2) 0.5049(3) 0.1262(3)
O13_2 O 0.4242(3) 0.7966(4) 0.3674(5)
C31_2 C 0.3658(3) 0.4875(4) 0.1462(4)
C34_2 C 0.4096(3) 0.4932(4) 0.0813(4)
C35_2 C 0.4693(3) 0.4868(4) 0.1035(5)
H25_2 H 0.4834 0.4779 0.1586
C36_3 C 0.5123(3) 0.4940(4) 0.0407(4)
C43_2 C 0.3781(4) 0.8055(4) 0.4034(5)
C44 C 0.4702(3) 0.9789(4) 0.5933(5)
C45_2 C 0.3689(3) 0.8670(4) 0.4521(5)
C46_2 C 0.4205(3) 0.8934(4) 0.4971(5)
H29_2 H 0.4579 0.8733 0.4949
C47 C 0.4168(3) 0.9481(4) 0.5438(4)
C48 C 0.3625(3) 0.9797(4) 0.5428(4)
C49_2 C 0.3110(3) 0.9542(4) 0.4956(5)
H31_2 H 0.2742 0.9762 0.4933
C50_2 C 0.3150(3) 0.8965(4) 0.4528(5)
H32_2 H 0.2805 0.8782 0.4245
C51_2 C 0.3560(3) 0.6141(4) 0.2802(5)
H33_2 H 0.3829 0.5981 0.2446
C52_2 C 0.3661(3) 0.6755(4) 0.3129(5)
H34_2 H 0.3987 0.7001 0.2986
C53_2 C 0.3279(3) 0.7002(4) 0.3666(4)
C54_2 C 0.2831(4) 0.6599(4) 0.3858(5)
H35_2 H 0.2570 0.6735 0.4240
C55_2 C 0.2756(3) 0.6004(4) 0.3507(4)
H36_2 H 0.2441 0.5744 0.3657
C56_2 C 0.6817(3) 0.9373(4) 0.6700(5)
H37_2 H 0.7135 0.9096 0.6609
C57_2 C 0.6248(3) 0.9197(4) 0.6378(5)
H38_2 H 0.6185 0.8804 0.6095
C58_2 C 0.5770(3) 0.9604(3) 0.6476(4)
O14 O 0.5315(2) 0.0352(3) 0.8826(4)
H30 H 0.6403 0.0179 0.9268
C59_2 C 0.4111(3) 0.0149(4) 0.8063(5)
H39_2 H 0.4424 0.0427 0.7955
C60_2 C 0.3517(3) 0.0289(3) 0.7754(4)
H40_2 H 0.3443 0.0670 0.7450
C2_4 C 0.0743(3) 0.9889(4) 0.0625(5)
H3_4 H 0.0893 0.9820 0.1178
C3_4 C 0.1131(3) 0.9940(4) 0.0029(5)
H4_4 H 0.1546 0.9892 0.0172
C36_4 C 0.0123(3) 0.9940(4) 0.0407(4)
N1_3 N 0.1893(2) 0.9232(3) 0.7039(3)
N2_3 N 0.1677(3) 0.7381(3) 0.5990(4)
H1_3 H 0.1988 0.7257 0.5755
O2_3 O 0.1885(2) 0.9951(3) 0.8738(3)
O5_3 O 0.0758(3) 0.7034(4) 0.6326(5)
O6 O 0.0315(2) 0.4648(3) 0.3826(4)
C13_3 C 0.1219(4) 0.6945(4) 0.5966(5)
C14 C 0.0298(3) 0.5211(4) 0.4067(5)
C15_3 C 0.1311(3) 0.6330(4) 0.5479(5)
C16_3 C 0.0795(3) 0.6066(4) 0.5029(5)
H9_3 H 0.0421 0.6267 0.5051
C17 C 0.0832(3) 0.5519(4) 0.4562(4)
C18 C 0.1375(3) 0.5203(4) 0.4572(4)
H10 H 0.1403 0.4821 0.4268
C19_3 C 0.1890(3) 0.5458(4) 0.5044(5)
H11_3 H 0.2258 0.5238 0.5067
C20_3 C 0.1850(3) 0.6035(4) 0.5472(5)
H12_3 H 0.2195 0.6218 0.5755
C21_3 C 0.1440(3) 0.8859(4) 0.7198(5)
H13_3 H 0.1171 0.9019 0.7554
C22_3 C 0.1339(3) 0.8245(4) 0.6871(5)
H14_3 H 0.1013 0.7999 0.7014
C23_3 C 0.1721(3) 0.7998(4) 0.6334(4)
C24_3 C 0.2169(4) 0.8401(4) 0.6142(5)
H15_3 H 0.2430 0.8265 0.5760
C25_3 C 0.2244(3) 0.8996(4) 0.6493(4)
H16_3 H 0.2559 0.9256 0.6343
N9_2 N 0.3052(2) 0.9912(3) 0.7867(3)
Co1_2 Co 0.78677(4) 0.01443(4) 0.74527(5)
O1_3 O 0.8814(2) 0.0321(3) 0.7180(3)
O3_3 O 0.7686(2) 0.1181(2) 0.7526(3)
O4_3 O 0.7761(2) 0.0569(2) 0.8623(3)
C1_3 C 0.8658(3) 0.0125(4) 0.6462(4)
C4_3 C 0.9096(3) 0.0068(4) 0.5813(4)
C5_3 C 0.9693(3) 0.0132(4) 0.6035(5)
H5_3 H 0.9834 0.0221 0.6586
C7_3 C 0.7688(3) 0.1119(3) 0.8306(4)
C8_3 C 0.7335(3) 0.2822(3) 0.8928(4)
H6_3 H 0.7217 0.3212 0.8667
C9_3 C 0.7423(3) 0.2294(3) 0.8454(4)
H7_3 H 0.7371 0.2326 0.7876
C10_3 C 0.7592(3) 0.1698(3) 0.8837(4)
C11_3 C 0.7664(3) 0.1652(3) 0.9678(4)
H8_3 H 0.7769 0.1253 0.9927
C42_3 C 0.7419(3) 0.2798(3) 0.9814(4)
O14_2 O 0.4685(2) 0.0352(3) 0.6174(4)
H30_2 H 0.3597 0.0179 0.5732
C59_3 C 0.5889(3) 0.0149(4) 0.6937(5)
H39_3 H 0.5576 0.0427 0.7045
C60_3 C 0.6483(3) 0.0289(3) 0.7246(4)
H40_3 H 0.6557 0.0670 0.7550
N10_3 N 0.4800(3) 0.9419(3) 0.8901(4)
H22_3 H 0.4838 0.9016 0.9046
C44_2 C 0.5298(3) 0.9789(4) 0.9067(5)
C47_2 C 0.5832(3) 0.9481(4) 0.9562(4)
C48_2 C 0.6375(3) 0.9797(4) 0.9572(4)
C56_3 C 0.3183(3) 0.9373(4) 0.8300(5)
H37_3 H 0.2865 0.9096 0.8391
C57_3 C 0.3752(3) 0.9197(4) 0.8622(5)
H38_3 H 0.3815 0.8804 0.8905
C58_3 C 0.4230(3) 0.9604(3) 0.8524(4)
N5_3 N 0.8107(2) 0.0768(3) 0.2961(3)
N6_3 N 0.8323(3) 0.2619(3) 0.4010(4)
H21_3 H 0.8012 0.2743 0.4245
N8 N 0.6948(2) 0.0088(3) 0.2133(3)
O8_3 O 0.8115(2) 0.0049(3) 0.1262(3)
O13_3 O 0.9242(3) 0.2966(4) 0.3674(5)
O14_3 O 0.9685(2) 0.5352(3) 0.6174(4)
C43_3 C 0.8781(4) 0.3055(4) 0.4034(5)
C44_3 C 0.9702(3) 0.4789(4) 0.5933(5)
C45_3 C 0.8689(3) 0.3670(4) 0.4521(5)
C46_3 C 0.9205(3) 0.3934(4) 0.4971(5)
H29_3 H 0.9579 0.3733 0.4949
C47_3 C 0.9168(3) 0.4481(4) 0.5438(4)
C48_3 C 0.8625(3) 0.4797(4) 0.5428(4)
H30_3 H 0.8597 0.5179 0.5732
C49_3 C 0.8110(3) 0.4542(4) 0.4956(5)
H31_3 H 0.7742 0.4762 0.4933
C50_3 C 0.8150(3) 0.3965(4) 0.4528(5)
H32_3 H 0.7805 0.3782 0.4245
C51_3 C 0.8560(3) 0.1141(4) 0.2802(5)
H33_3 H 0.8829 0.0981 0.2446
C52_3 C 0.8661(3) 0.1755(4) 0.3129(5)
H34_3 H 0.8987 0.2001 0.2986
C53_3 C 0.8279(3) 0.2002(4) 0.3666(4)
C54_3 C 0.7831(4) 0.1599(4) 0.3858(5)
H35_3 H 0.7570 0.1735 0.4240
C55_3 C 0.7756(3) 0.1004(4) 0.3507(4)
H36_3 H 0.7441 0.0744 0.3657
Co2 Co 0.21323(4) 0.98557(4) 0.25473(5)
O7_3 O 0.1186(2) 0.9679(3) 0.2820(3)
O10 O 0.2314(2) 0.8819(2) 0.2474(3)
O12 O 0.2239(2) 0.9431(2) 0.1377(3)
C31_3 C 0.1342(3) 0.9875(4) 0.3538(4)
C34_3 C 0.0904(3) 0.9932(4) 0.4187(4)
C35_3 C 0.0307(3) 0.9868(4) 0.3965(5)
H25_3 H 0.0166 0.9779 0.3414
O6_2 O 0.5315(2) 0.9648(3) 0.3826(4)
H10_2 H 0.6403 0.9821 0.4268
C29_3 C 0.4111(3) 0.9851(4) 0.3063(5)
H19_3 H 0.4424 0.9573 0.2955
C30_3 C 0.3517(3) 0.9711(3) 0.2754(4)
H20_3 H 0.3443 0.9330 0.2450
N4_3 N 0.5200(3) 0.0581(3) 0.1099(4)
H2_3 H 0.5162 0.0984 0.0954
C12_3 C 0.2581(3) 0.7202(3) 0.0186(4)
C14_2 C 0.4702(3) 0.0211(4) 0.0933(5)
C17_2 C 0.4168(3) 0.0519(4) 0.0438(4)
C18_2 C 0.3625(3) 0.0203(4) 0.0428(4)
C26_3 C 0.6817(3) 0.0627(4) 0.1700(5)
H17_3 H 0.7135 0.0904 0.1609
C27_3 C 0.6248(3) 0.0803(4) 0.1378(5)
H18_3 H 0.6185 0.1196 0.1095
C28_3 C 0.5770(3) 0.0396(3) 0.1476(4)
C37_3 C 0.2312(3) 0.8881(3) 0.1694(4)
C38_3 C 0.2665(3) 0.7178(3) 0.1072(4)
H26_3 H 0.2783 0.6788 0.1333
C39_3 C 0.2577(3) 0.7706(3) 0.1546(4)
H27_3 H 0.2629 0.7674 0.2124
C40_3 C 0.2408(3) 0.8302(3) 0.1163(4)
C41_3 C 0.2336(3) 0.8348(3) 0.0322(4)
H28_3 H 0.2231 0.8747 0.0073
C6_2 C 0.9877(3) 0.0060(4) 0.9593(4)
C32_2 C 0.9257(3) 0.0111(4) 0.9375(5)
H23_2 H 0.9107 0.0180 0.8822
C33_2 C 0.8869(3) 0.0060(4) 0.9971(5)
H24_2 H 0.8454 0.0108 0.9828
Co2_2 Co 0.78677(4) 0.98557(4) 0.24527(5)
O7_4 O 0.8814(2) 0.9679(3) 0.2180(3)
O10_2 O 0.7686(2) 0.8819(2) 0.2526(3)
O12_2 O 0.7761(2) 0.9431(2) 0.3623(3)
C31_4 C 0.8658(3) 0.9875(4) 0.1462(4)
C34_4 C 0.9096(3) 0.9932(4) 0.0813(4)
C35_4 C 0.9693(3) 0.9868(4) 0.1035(5)
H25_4 H 0.9834 0.9779 0.1586
C6_3 C 0.0123(3) 0.0060(4) 0.5407(4)
N5_4 N 0.1893(2) 0.0768(3) 0.2039(3)
N6_4 N 0.1677(3) 0.2619(3) 0.0990(4)
H21_4 H 0.1988 0.2743 0.0755
N8_2 N 0.3052(2) 0.0088(3) 0.2867(3)
O8_4 O 0.1885(2) 0.0049(3) 0.3738(3)
O13_4 O 0.0758(3) 0.2966(4) 0.1326(5)
C32_3 C 0.0743(3) 0.0111(4) 0.5625(5)
H23_3 H 0.0893 0.0180 0.6178
C33_3 C 0.1131(3) 0.0060(4) 0.5029(5)
H24_3 H 0.1546 0.0108 0.5172
C43_4 C 0.1219(4) 0.3055(4) 0.0966(5)
C45_4 C 0.1311(3) 0.3670(4) 0.0479(5)
C46_4 C 0.0795(3) 0.3934(4) 0.0029(5)
H29_4 H 0.0421 0.3733 0.0051
C49_4 C 0.1890(3) 0.4542(4) 0.0044(5)
H31_4 H 0.2258 0.4762 0.0067
C50_4 C 0.1850(3) 0.3965(4) 0.0472(5)
H32_4 H 0.2195 0.3782 0.0755
C51_4 C 0.1440(3) 0.1141(4) 0.2198(5)
H33_4 H 0.1171 0.0981 0.2554
C52_4 C 0.1339(3) 0.1755(4) 0.1871(5)
H34_4 H 0.1013 0.2001 0.2014
C53_4 C 0.1721(3) 0.2002(4) 0.1334(4)
C54_4 C 0.2169(4) 0.1599(4) 0.1142(5)
H35_4 H 0.2430 0.1735 0.0760
C55_4 C 0.2244(3) 0.1004(4) 0.1493(4)
H36_4 H 0.2559 0.0744 0.1343
Co3_2 Co 0.71323(4) 0.51443(4) 0.75473(5)
N7_2 N 0.8052(2) 0.4912(3) 0.7867(3)
N10_4 N 0.9800(3) 0.4419(3) 0.8901(4)
H22_4 H 0.9838 0.4016 0.9046
C56_4 C 0.8183(3) 0.4373(4) 0.8300(5)
H37_4 H 0.7865 0.4096 0.8391
C57_4 C 0.8752(3) 0.4197(4) 0.8622(5)
H38_4 H 0.8815 0.3804 0.8905
C58_4 C 0.9230(3) 0.4604(3) 0.8524(4)
C59_4 C 0.9111(3) 0.5149(4) 0.8063(5)
H39_4 H 0.9424 0.5427 0.7955
C60_4 C 0.8517(3) 0.5289(3) 0.7754(4)
H40_4 H 0.8443 0.5670 0.7450
N1_4 N 0.6893(2) 0.4232(3) 0.7039(3)
N2_4 N 0.6677(3) 0.2381(3) 0.5990(4)
H1_4 H 0.6988 0.2257 0.5755
N4_4 N 0.4800(3) 0.0581(3) 0.3901(4)
H2_4 H 0.4838 0.0984 0.4046
O1_4 O 0.6186(2) 0.5321(3) 0.7820(3)
O2_4 O 0.6885(2) 0.4951(3) 0.8738(3)
O3_4 O 0.7314(2) 0.6181(2) 0.7474(3)
O4_4 O 0.7239(2) 0.5569(2) 0.6377(3)
O5_4 O 0.5758(3) 0.2034(4) 0.6326(5)
C1_4 C 0.6342(3) 0.5125(4) 0.8538(4)
C4_4 C 0.5904(3) 0.5068(4) 0.9187(4)
C5_4 C 0.5307(3) 0.5132(4) 0.8965(5)
H5_4 H 0.5166 0.5221 0.8414
C6_4 C 0.4877(3) 0.5060(4) 0.9593(4)
C7_4 C 0.7312(3) 0.6119(3) 0.6694(4)
C8_4 C 0.7665(3) 0.7822(3) 0.6072(4)
H6_4 H 0.7783 0.8212 0.6333
C9_4 C 0.7577(3) 0.7294(3) 0.6546(4)
H7_4 H 0.7629 0.7326 0.7124
C10_4 C 0.7408(3) 0.6698(3) 0.6163(4)
C11_4 C 0.7336(3) 0.6652(3) 0.5322(4)
H8_4 H 0.7231 0.6253 0.5073
C12_4 C 0.7419(3) 0.7202(3) 0.4814(4)
C13_4 C 0.6219(4) 0.1945(4) 0.5966(5)
C14_3 C 0.5298(3) 0.0211(4) 0.4067(5)
C15_4 C 0.6311(3) 0.1330(4) 0.5479(5)
C16_4 C 0.5795(3) 0.1066(4) 0.5029(5)
H9_4 H 0.5421 0.1267 0.5051
C17_3 C 0.5832(3) 0.0519(4) 0.4562(4)
C18_3 C 0.6375(3) 0.0203(4) 0.4572(4)
C19_4 C 0.6890(3) 0.0458(4) 0.5044(5)
H11_4 H 0.7258 0.0238 0.5067
C20_4 C 0.6850(3) 0.1035(4) 0.5472(5)
H12_4 H 0.7195 0.1218 0.5755
C21_4 C 0.6440(3) 0.3859(4) 0.7198(5)
H13_4 H 0.6171 0.4019 0.7554
C22_4 C 0.6339(3) 0.3245(4) 0.6871(5)
H14_4 H 0.6013 0.2999 0.7014
C23_4 C 0.6721(3) 0.2998(4) 0.6334(4)
C24_4 C 0.7169(4) 0.3401(4) 0.6142(5)
H15_4 H 0.7430 0.3265 0.5760
C25_4 C 0.7244(3) 0.3996(4) 0.6493(4)
H16_4 H 0.7559 0.4256 0.6343
C26_4 C 0.3183(3) 0.0627(4) 0.3300(5)
H17_4 H 0.2865 0.0904 0.3391
C27_4 C 0.3752(3) 0.0803(4) 0.3622(5)
H18_4 H 0.3815 0.1196 0.3905
C28_4 C 0.4230(3) 0.0396(3) 0.3524(4)
C32_4 C 0.4257(3) 0.5111(4) 0.9375(5)
H23_4 H 0.4107 0.5180 0.8822
C33_4 C 0.3869(3) 0.5060(4) 0.9971(5)
H24_4 H 0.3454 0.5108 0.9828
C37_4 C 0.7688(3) 0.8881(3) 0.3306(4)
C38_4 C 0.7335(3) 0.7178(3) 0.3928(4)
H26_4 H 0.7217 0.6788 0.3667
C39_4 C 0.7423(3) 0.7706(3) 0.3454(4)
H27_4 H 0.7371 0.7674 0.2876
C40_4 C 0.7592(3) 0.8302(3) 0.3837(4)
C41_4 C 0.7664(3) 0.8348(3) 0.4678(4)
H28_4 H 0.7769 0.8747 0.4927
C42_4 C 0.7581(3) 0.7798(3) 0.5186(4)
O6_3 O 0.4685(2) 0.9648(3) 0.1174(4)
H10_3 H 0.3597 0.9821 0.0732
C29_4 C 0.5889(3) 0.9851(4) 0.1937(5)
H19_4 H 0.5576 0.9573 0.2045
C30_4 C 0.6483(3) 0.9711(3) 0.2246(4)
H20_4 H 0.6557 0.9330 0.2550
O14_4 O 0.0315(2) 0.5352(3) 0.8826(4)
C44_4 C 0.0298(3) 0.4789(4) 0.9067(5)
C47_4 C 0.0832(3) 0.4481(4) 0.9562(4)
C48_4 C 0.1375(3) 0.4797(4) 0.9572(4)
H30_4 H 0.1403 0.5179 0.9268
O6_4 O 0.9685(2) 0.4648(3) 0.1174(4)
C14_4 C 0.9702(3) 0.5211(4) 0.0933(5)
C17_4 C 0.9168(3) 0.5519(4) 0.0438(4)
C18_4 C 0.8625(3) 0.5203(4) 0.0428(4)
H10_4 H 0.8597 0.4821 0.0732
loop_
_geom_bond_atom_site_label_1
_geom_bond_atom_site_label_2
_geom_bond_site_symmetry_1
_geom_bond_site_symmetry_2
Co3 N7 1_555 1_555
N7 C56 1_555 1_555
N10 H22 1_555 1_555
C56 H37 1_555 1_555
C57 C56 1_555 1_555
H38 C57 1_555 1_555
C58 N10 1_555 1_555
C59 C58 1_555 1_555
H39 C59 1_555 1_555
C60 N7 1_555 1_555
H40 C60 1_555 1_555
C57 C58 1_555 1_555
C59 C60 1_555 1_555
N3 C26 1_555 1_555
N4 H2 1_555 1_555
C26 H17 1_555 1_555
C27 C26 1_555 1_555
H18 C27 1_555 1_555
C28 N4 1_555 1_555
C29 C28 1_555 1_555
H19 C29 1_555 1_555
C30 N3 1_555 1_555
H20 C30 1_555 1_555
Co5 N3 1_555 1_555
C27 C28 1_555 1_555
C29 C30 1_555 1_555
Co5 O9 1_555 1_555
O9 C37 1_555 1_555
O11 Co5 1_555 1_555
C37 O11 1_555 1_555
C38 C12 1_555 1_555
H26 C38 1_555 1_555
C39 C38 1_555 1_555
H27 C39 1_555 1_555
C40 C37 1_555 1_555
C41 C40 1_555 1_555
H28 C41 1_555 1_555
C39 C40 1_555 1_555
Co3 N1 1_555 1_555
N1 C21 1_555 1_555
N2 H1 1_555 1_555
O1 Co3 1_555 1_555
O2 Co3 1_555 1_555
O3 Co3 1_555 1_555
O4 Co3 1_555 1_555
O5 C13 1_555 1_555
C1 O1 1_555 1_555
C2 H3 1_555 1_555
C3 C2 1_555 1_555
H4 C3 1_555 1_555
C4 C1 1_555 1_555
C5 C4 1_555 1_555
H5 C5 1_555 1_555
C6 C5 1_555 1_555
C7 O3 1_555 1_555
C8 H6 1_555 1_555
C9 C8 1_555 1_555
H7 C9 1_555 1_555
C10 C7 1_555 1_555
C11 C10 1_555 1_555
H8 C11 1_555 1_555
C13 N2 1_555 1_555
C15 C13 1_555 1_555
C16 C15 1_555 1_555
H9 C16 1_555 1_555
H11 C19 1_555 1_555
C20 C15 1_555 1_555
H12 C20 1_555 1_555
C21 H13 1_555 1_555
C22 C21 1_555 1_555
H14 C22 1_555 1_555
C23 N2 1_555 1_555
C24 C23 1_555 1_555
H15 C24 1_555 1_555
C25 N1 1_555 1_555
H16 C25 1_555 1_555
Co5 N5 1_555 1_555
N5 C51 1_555 1_555
N6 H21 1_555 1_555
O7 Co5 1_555 1_555
O8 Co5 1_555 1_555
O13 C43 1_555 1_555
C31 O7 1_555 1_555
C32 C6 1_555 1_555
H23 C32 1_555 1_555
C33 C32 1_555 1_555
H24 C33 1_555 1_555
C34 C31 1_555 1_555
C35 C34 1_555 1_555
H25 C35 1_555 1_555
C36 C2 1_555 1_555
C42 C8 1_555 1_555
C43 N6 1_555 1_555
C45 C43 1_555 1_555
C46 C45 1_555 1_555
H29 C46 1_555 1_555
H31 C49 1_555 1_555
C50 C45 1_555 1_555
H32 C50 1_555 1_555
C51 H33 1_555 1_555
C52 C51 1_555 1_555
H34 C52 1_555 1_555
C53 N6 1_555 1_555
C54 C53 1_555 1_555
H35 C54 1_555 1_555
C55 N5 1_555 1_555
H36 C55 1_555 1_555
O2 C1 1_555 1_555
O4 C7 1_555 1_555
C3 C4 1_555 1_555
C6 C36 1_555 1_555
C9 C10 1_555 1_555
C19 C20 1_555 1_555
C22 C23 1_555 1_555
C24 C25 1_555 1_555
O8 C31 1_555 1_555
C33 C34 1_555 1_555
C35 C36 1_555 1_555
C49 C50 1_555 1_555
C52 C53 1_555 1_555
C54 C55 1_555 1_555
O1_2 Co1 1_555 1_555
O3_2 Co1 1_555 1_555
O4_2 Co1 1_555 1_555
C1_2 O1_2 1_555 1_555
C4_2 C1_2 1_555 1_555
C5_2 C4_2 1_555 1_555
H5_2 C5_2 1_555 1_555
C7_2 O3_2 1_555 1_555
C8_2 H6_2 1_555 1_555
C9_2 C8_2 1_555 1_555
H7_2 C9_2 1_555 1_555
C10_2 C7_2 1_555 1_555
C11_2 C10_2 1_555 1_555
H8_2 C11_2 1_555 1_555
C12_2 C11_2 1_555 1_555
Co4 O9_2 1_555 1_555
O9_2 C37_2 1_555 1_555
O11_2 Co4 1_555 1_555
C37_2 O11_2 1_555 1_555
C38_2 C12_2 1_555 1_555
H26_2 C38_2 1_555 1_555
C39_2 C38_2 1_555 1_555
H27_2 C39_2 1_555 1_555
C40_2 C37_2 1_555 1_555
C41_2 C40_2 1_555 1_555
H28_2 C41_2 1_555 1_555
C42_2 C8_2 1_555 1_555
O4_2 C7_2 1_555 1_555
C9_2 C10_2 1_555 1_555
C12_2 C42_2 1_555 1_555
C39_2 C40_2 1_555 1_555
C41_2 C42_2 1_555 1_555
N3_2 C26_2 1_555 1_555
N4_2 H2_2 1_555 1_555
C26_2 H17_2 1_555 1_555
C27_2 C26_2 1_555 1_555
H18_2 C27_2 1_555 1_555
C28_2 N4_2 1_555 1_555
C29_2 C28_2 1_555 1_555
H19_2 C29_2 1_555 1_555
C30_2 N3_2 1_555 1_555
H20_2 C30_2 1_555 1_555
Co4 N3_2 1_555 1_555
C27_2 C28_2 1_555 1_555
C29_2 C30_2 1_555 1_555
N1_2 C21_2 1_555 1_555
N2_2 H1_2 1_555 1_555
O5_2 C13_2 1_555 1_555
C2_2 H3_2 1_555 1_555
C3_2 C2_2 1_555 1_555
H4_2 C3_2 1_555 1_555
C13_2 N2_2 1_555 1_555
C15_2 C13_2 1_555 1_555
C16_2 C15_2 1_555 1_555
H9_2 C16_2 1_555 1_555
H11_2 C19_2 1_555 1_555
C20_2 C15_2 1_555 1_555
H12_2 C20_2 1_555 1_555
C21_2 H13_2 1_555 1_555
C22_2 C21_2 1_555 1_555
H14_2 C22_2 1_555 1_555
C23_2 N2_2 1_555 1_555
C24_2 C23_2 1_555 1_555
H15_2 C24_2 1_555 1_555
C25_2 N1_2 1_555 1_555
H16_2 C25_2 1_555 1_555
C36_2 C2_2 1_555 1_555
C19_2 C20_2 1_555 1_555
C22_2 C23_2 1_555 1_555
C24_2 C25_2 1_555 1_555
C2_3 H3_3 1_555 1_555
C3_3 C2_3 1_555 1_555
H4_3 C3_3 1_555 1_555
Co4 N5_2 1_555 1_555
N5_2 C51_2 1_555 1_555
N6_2 H21_2 1_555 1_555
N9 C56_2 1_555 1_555
N10_2 H22_2 1_555 1_555
O7_2 Co4 1_555 1_555
O8_2 Co4 1_555 1_555
O13_2 C43_2 1_555 1_555
C31_2 O7_2 1_555 1_555
C34_2 C31_2 1_555 1_555
C35_2 C34_2 1_555 1_555
H25_2 C35_2 1_555 1_555
C36_3 C2_3 1_555 1_555
C43_2 N6_2 1_555 1_555
C44 N10_2 1_555 1_555
C45_2 C43_2 1_555 1_555
C46_2 C45_2 1_555 1_555
H29_2 C46_2 1_555 1_555
C47 C44 1_555 1_555
C48 C47 1_555 1_555
C49_2 C48 1_555 1_555
H31_2 C49_2 1_555 1_555
C50_2 C45_2 1_555 1_555
H32_2 C50_2 1_555 1_555
C51_2 H33_2 1_555 1_555
C52_2 C51_2 1_555 1_555
H34_2 C52_2 1_555 1_555
C53_2 N6_2 1_555 1_555
C54_2 C53_2 1_555 1_555
H35_2 C54_2 1_555 1_555
C55_2 N5_2 1_555 1_555
H36_2 C55_2 1_555 1_555
C56_2 H37_2 1_555 1_555
C57_2 C56_2 1_555 1_555
H38_2 C57_2 1_555 1_555
C58_2 N10_2 1_555 1_555
O8_2 C31_2 1_555 1_555
C35_2 C36_3 1_555 1_555
C46_2 C47 1_555 1_555
C49_2 C50_2 1_555 1_555
C52_2 C53_2 1_555 1_555
C54_2 C55_2 1_555 1_555
C57_2 C58_2 1_555 1_555
H39_2 C59_2 1_555 1_555
H40_2 C60_2 1_555 1_555
C59_2 C60_2 1_555 1_555
C2_4 H3_4 1_555 1_555
C3_4 C2_4 1_555 1_555
H4_4 C3_4 1_555 1_555
C36_4 C2_4 1_555 1_555
N1_3 C21_3 1_555 1_555
N2_3 H1_3 1_555 1_555
O5_3 C13_3 1_555 1_555
O6 C14 1_555 1_555
C13_3 N2_3 1_555 1_555
C15_3 C13_3 1_555 1_555
C16_3 C15_3 1_555 1_555
H9_3 C16_3 1_555 1_555
C17 C14 1_555 1_555
C18 C17 1_555 1_555
H10 C18 1_555 1_555
C19_3 C18 1_555 1_555
H11_3 C19_3 1_555 1_555
C20_3 C15_3 1_555 1_555
H12_3 C20_3 1_555 1_555
C21_3 H13_3 1_555 1_555
C22_3 C21_3 1_555 1_555
H14_3 C22_3 1_555 1_555
C23_3 N2_3 1_555 1_555
C24_3 C23_3 1_555 1_555
H15_3 C24_3 1_555 1_555
C25_3 N1_3 1_555 1_555
H16_3 C25_3 1_555 1_555
C16_3 C17 1_555 1_555
C19_3 C20_3 1_555 1_555
C22_3 C23_3 1_555 1_555
C24_3 C25_3 1_555 1_555
O1_3 Co1_2 1_555 1_555
O3_3 Co1_2 1_555 1_555
O4_3 Co1_2 1_555 1_555
C1_3 O1_3 1_555 1_555
C4_3 C1_3 1_555 1_555
C5_3 C4_3 1_555 1_555
H5_3 C5_3 1_555 1_555
C7_3 O3_3 1_555 1_555
C8_3 H6_3 1_555 1_555
C9_3 C8_3 1_555 1_555
H7_3 C9_3 1_555 1_555
C10_3 C7_3 1_555 1_555
C11_3 C10_3 1_555 1_555
H8_3 C11_3 1_555 1_555
C42_3 C8_3 1_555 1_555
O4_3 C7_3 1_555 1_555
C9_3 C10_3 1_555 1_555
H39_3 C59_3 1_555 1_555
H40_3 C60_3 1_555 1_555
C59_3 C60_3 1_555 1_555
N9_2 C56_3 1_555 1_555
N10_3 H22_3 1_555 1_555
C44_2 N10_3 1_555 1_555
C47_2 C44_2 1_555 1_555
C48_2 C47_2 1_555 1_555
C56_3 H37_3 1_555 1_555
C57_3 C56_3 1_555 1_555
H38_3 C57_3 1_555 1_555
C58_3 N10_3 1_555 1_555
C57_3 C58_3 1_555 1_555
N5_3 C51_3 1_555 1_555
N6_3 H21_3 1_555 1_555
O13_3 C43_3 1_555 1_555
O14_3 C44_3 1_555 1_555
C43_3 N6_3 1_555 1_555
C45_3 C43_3 1_555 1_555
C46_3 C45_3 1_555 1_555
H29_3 C46_3 1_555 1_555
C47_3 C44_3 1_555 1_555
C48_3 C47_3 1_555 1_555
H30_3 C48_3 1_555 1_555
C49_3 C48_3 1_555 1_555
H31_3 C49_3 1_555 1_555
C50_3 C45_3 1_555 1_555
H32_3 C50_3 1_555 1_555
C51_3 H33_3 1_555 1_555
C52_3 C51_3 1_555 1_555
H34_3 C52_3 1_555 1_555
C53_3 N6_3 1_555 1_555
C54_3 C53_3 1_555 1_555
H35_3 C54_3 1_555 1_555
C55_3 N5_3 1_555 1_555
H36_3 C55_3 1_555 1_555
C46_3 C47_3 1_555 1_555
C49_3 C50_3 1_555 1_555
C52_3 C53_3 1_555 1_555
C54_3 C55_3 1_555 1_555
O7_3 Co2 1_555 1_555
O10 Co2 1_555 1_555
O12 Co2 1_555 1_555
C31_3 O7_3 1_555 1_555
C34_3 C31_3 1_555 1_555
C35_3 C34_3 1_555 1_555
H25_3 C35_3 1_555 1_555
H19_3 C29_3 1_555 1_555
H20_3 C30_3 1_555 1_555
C29_3 C30_3 1_555 1_555
N8 C26_3 1_555 1_555
N4_3 H2_3 1_555 1_555
C14_2 N4_3 1_555 1_555
C17_2 C14_2 1_555 1_555
C18_2 C17_2 1_555 1_555
C26_3 H17_3 1_555 1_555
C27_3 C26_3 1_555 1_555
H18_3 C27_3 1_555 1_555
C28_3 N4_3 1_555 1_555
O10 C37_3 1_555 1_555
C37_3 O12 1_555 1_555
C38_3 C12_3 1_555 1_555
H26_3 C38_3 1_555 1_555
C39_3 C38_3 1_555 1_555
H27_3 C39_3 1_555 1_555
C40_3 C37_3 1_555 1_555
C41_3 C40_3 1_555 1_555
H28_3 C41_3 1_555 1_555
C27_3 C28_3 1_555 1_555
C39_3 C40_3 1_555 1_555
C32_2 C6_2 1_555 1_555
H23_2 C32_2 1_555 1_555
C33_2 C32_2 1_555 1_555
H24_2 C33_2 1_555 1_555
O7_4 Co2_2 1_555 1_555
O10_2 Co2_2 1_555 1_555
O12_2 Co2_2 1_555 1_555
C31_4 O7_4 1_555 1_555
C34_4 C31_4 1_555 1_555
C35_4 C34_4 1_555 1_555
H25_4 C35_4 1_555 1_555
N5_4 C51_4 1_555 1_555
N6_4 H21_4 1_555 1_555
O13_4 C43_4 1_555 1_555
C32_3 C6_3 1_555 1_555
H23_3 C32_3 1_555 1_555
C33_3 C32_3 1_555 1_555
H24_3 C33_3 1_555 1_555
C43_4 N6_4 1_555 1_555
C45_4 C43_4 1_555 1_555
C46_4 C45_4 1_555 1_555
H29_4 C46_4 1_555 1_555
H31_4 C49_4 1_555 1_555
C50_4 C45_4 1_555 1_555
H32_4 C50_4 1_555 1_555
C51_4 H33_4 1_555 1_555
C52_4 C51_4 1_555 1_555
H34_4 C52_4 1_555 1_555
C53_4 N6_4 1_555 1_555
C54_4 C53_4 1_555 1_555
H35_4 C54_4 1_555 1_555
C55_4 N5_4 1_555 1_555
H36_4 C55_4 1_555 1_555
C49_4 C50_4 1_555 1_555
C52_4 C53_4 1_555 1_555
C54_4 C55_4 1_555 1_555
Co3_2 N7_2 1_555 1_555
N7_2 C56_4 1_555 1_555
N10_4 H22_4 1_555 1_555
C56_4 H37_4 1_555 1_555
C57_4 C56_4 1_555 1_555
H38_4 C57_4 1_555 1_555
C58_4 N10_4 1_555 1_555
C59_4 C58_4 1_555 1_555
H39_4 C59_4 1_555 1_555
C60_4 N7_2 1_555 1_555
H40_4 C60_4 1_555 1_555
C57_4 C58_4 1_555 1_555
C59_4 C60_4 1_555 1_555
Co3_2 N1_4 1_555 1_555
N1_4 C21_4 1_555 1_555
N2_4 H1_4 1_555 1_555
N8_2 C26_4 1_555 1_555
N4_4 H2_4 1_555 1_555
O1_4 Co3_2 1_555 1_555
O2_4 Co3_2 1_555 1_555
O3_4 Co3_2 1_555 1_555
O4_4 Co3_2 1_555 1_555
O5_4 C13_4 1_555 1_555
C1_4 O1_4 1_555 1_555
C4_4 C1_4 1_555 1_555
C5_4 C4_4 1_555 1_555
H5_4 C5_4 1_555 1_555
C6_4 C5_4 1_555 1_555
C7_4 O3_4 1_555 1_555
C8_4 H6_4 1_555 1_555
C9_4 C8_4 1_555 1_555
H7_4 C9_4 1_555 1_555
C10_4 C7_4 1_555 1_555
C11_4 C10_4 1_555 1_555
H8_4 C11_4 1_555 1_555
C12_4 C11_4 1_555 1_555
C13_4 N2_4 1_555 1_555
C14_3 N4_4 1_555 1_555
C15_4 C13_4 1_555 1_555
C16_4 C15_4 1_555 1_555
H9_4 C16_4 1_555 1_555
C17_3 C14_3 1_555 1_555
C18_3 C17_3 1_555 1_555
C19_4 C18_3 1_555 1_555
H11_4 C19_4 1_555 1_555
C20_4 C15_4 1_555 1_555
H12_4 C20_4 1_555 1_555
C21_4 H13_4 1_555 1_555
C22_4 C21_4 1_555 1_555
H14_4 C22_4 1_555 1_555
C23_4 N2_4 1_555 1_555
C24_4 C23_4 1_555 1_555
H15_4 C24_4 1_555 1_555
C25_4 N1_4 1_555 1_555
H16_4 C25_4 1_555 1_555
C26_4 H17_4 1_555 1_555
C27_4 C26_4 1_555 1_555
H18_4 C27_4 1_555 1_555
C28_4 N4_4 1_555 1_555
O10_2 C37_4 1_555 1_555
C32_4 C6_4 1_555 1_555
H23_4 C32_4 1_555 1_555
C33_4 C32_4 1_555 1_555
H24_4 C33_4 1_555 1_555
C37_4 O12_2 1_555 1_555
C38_4 C12_4 1_555 1_555
H26_4 C38_4 1_555 1_555
C39_4 C38_4 1_555 1_555
H27_4 C39_4 1_555 1_555
C40_4 C37_4 1_555 1_555
C41_4 C40_4 1_555 1_555
H28_4 C41_4 1_555 1_555
C42_4 C8_4 1_555 1_555
O2_4 C1_4 1_555 1_555
O4_4 C7_4 1_555 1_555
C9_4 C10_4 1_555 1_555
C12_4 C42_4 1_555 1_555
C16_4 C17_3 1_555 1_555
C19_4 C20_4 1_555 1_555
C22_4 C23_4 1_555 1_555
C24_4 C25_4 1_555 1_555
C27_4 C28_4 1_555 1_555
C39_4 C40_4 1_555 1_555
C41_4 C42_4 1_555 1_555
H19_4 C29_4 1_555 1_555
H20_4 C30_4 1_555 1_555
C29_4 C30_4 1_555 1_555
O14_4 C44_4 1_555 1_555
C47_4 C44_4 1_555 1_555
C48_4 C47_4 1_555 1_555
H30_4 C48_4 1_555 1_555
O6_4 C14_4 1_555 1_555
C17_4 C14_4 1_555 1_555
C18_4 C17_4 1_555 1_555
H10_4 C18_4 1_555 1_555

#END
