
###############################################################################
#
# This file contains modified crystal structure data generated from the
# MOF subset of the Cambridge Structural Database (CSD) v543 
# hosted by the Cambridge Crystallographic Data Centre (CCDC).
#
# This work is licensed under the Creative Commons
# Attribution-NonCommercial-ShareAlike 4.0 International License.
# To view a copy of this license, visit
# http://creativecommons.org/licenses/by-nc-sa/4.0/
# or send a letter to
# Creative Commons, PO Box 1866, Mountain View, CA 94042, USA.
#
# CIF created using the CSD Python API on 29 September 2022
# The structure has been converted into the P1 space group
# The structure has a 3D framework
# The original CSD entry IYACOD is in the orthorhombic crystal system
# The framework has been calculated to contain at least 10.0% void space
# The void calculation uses a probe of radius 1.32A, grid spacing 0.4
# H atom positions have been added when not included in the experimental data
# Generated hydrogen atom positions removed from atoms on special positions
#
###############################################################################

data_IYACOD
_chemical_formula_moiety         '(C272 H368 N16 O280 Zr56)n'
_symmetry_cell_setting           triclinic
_symmetry_space_group_name_H-M   'P 1'
_symmetry_Int_Tables_number      1
_space_group_name_Hall           'P 1'
loop_
_symmetry_equiv_pos_site_id
_symmetry_equiv_pos_as_xyz
1 x,y,z
_cell_length_a                   21.4898(12)
_cell_length_b                   25.2933(9)
_cell_length_c                   33.1199(16)
_cell_angle_alpha                90
_cell_angle_beta                 90
_cell_angle_gamma                90
_cell_volume                     18002.3
loop_
_atom_site_label
_atom_site_type_symbol
_atom_site_fract_x
_atom_site_fract_y
_atom_site_fract_z
Zr7 Zr 0.20067(4) 0.41368(3) 0.000
Zr8 Zr 0.29248(4) 0.23609(4) 0.000
Zr9 Zr 0.20752(4) 0.73609(4) 0.000
O43 O 0.3317(4) 0.3111(3) 0.000
O45 O 0.3074(4) 0.4043(3) 0.000
Zr1 Zr 0.79933(4) 0.41368(3) 0.500
Zr2 Zr 0.70752(4) 0.23609(4) 0.500
Zr3 Zr 0.82843(4) 0.29648(3) 0.44678(2)
Zr4 Zr 0.67839(4) 0.35320(3) 0.55323(3)
O1 O 0.7737(3) 0.3626(2) 0.45421(17)
O2 O 0.7985(4) 0.2626(3) 0.500
O3 O 0.7646(3) 0.4758(2) 0.54037(16)
O4 O 0.7563(3) 0.67313(19) 0.53938(18)
O5 O 0.8761(3) 0.4357(2) 0.5409(2)
O6 O 0.8658(4) 0.3410(3) 0.500
O7 O 0.6746(3) 0.7111(2) 0.5710(2)
O8 O 0.6683(4) 0.3111(3) 0.500
O9 O 0.7279(3) 0.2757(2) 0.5608(2)
O10 O 0.6926(4) 0.4043(3) 0.500
O11 O 0.6283(3) 0.2144(3) 0.4610(3)
O12 O 0.9231(4) 0.2645(3) 0.4519(4)
O13 O 0.6852(4) 0.5701(4) 0.7089(3)
O14 O 0.8928(4) 0.3613(3) 0.5783(3)
O15 O 0.8227(5) 0.2957(3) 0.3808(2)
N1 N 0.6005(4) 0.5717(3) 0.6685(2)
O16 O 0.6033(4) 0.2942(3) 0.4277(4)
C1 C 0.7092(4) 0.6717(3) 0.5624(2)
C2 C 0.5209(5) 0.5700(3) 0.7331(3)
O17 O 0.6836(5) 0.3477(3) 0.6203(3)
O18 O 0.6943(5) 0.4345(3) 0.5790(3)
O19 O 0.5190(5) 0.5757(4) 0.6243(2)
C3 C 0.6961(5) 0.6216(3) 0.5822(3)
C4 C 0.4952(6) 0.5708(4) 0.6940(3)
C5 C 0.7205(5) 0.5752(3) 0.5677(3)
H1 H 0.7499(5) 0.5756(3) 0.5462(3)
C6 C 0.6575(5) 0.6204(3) 0.6160(3)
H2 H 0.6420(5) 0.6526(3) 0.6269(3)
C7 C 0.7012(5) 0.5260(3) 0.5852(3)
C8 C 0.6417(6) 0.5731(4) 0.6338(3)
C9 C 0.4311(6) 0.5698(5) 0.6881(3)
H3 H 0.4148(6) 0.5692(5) 0.6614(3)
C10 C 0.6281(6) 0.5707(4) 0.7069(3)
C11 C 0.6622(6) 0.5248(4) 0.6174(3)
H4 H 0.6489(6) 0.4921(4) 0.6285(3)
C12 C 0.3913(6) 0.5698(5) 0.7203(3)
H5 H 0.3477(6) 0.5696(5) 0.7159(3)
C13 C 0.5851(5) 0.5700(4) 0.7400(3)
C14 C 0.5382(6) 0.5721(4) 0.6599(3)
C15 C 0.7225(6) 0.4747(3) 0.5669(3)
O20 O 0.5881(5) 0.3896(3) 0.5479(5)
C16 C 0.9009(6) 0.4092(4) 0.5677(5)
H6 H 0.9312(6) 0.4277(4) 0.5831(5)
C17 C 0.5982(7) 0.2431(6) 0.4353(6)
H7 H 0.5680(7) 0.2249(6) 0.4196(6)
O21 O 0.2354(3) 0.4758(2) 0.95963(16)
O22 O 0.2437(3) 0.67313(19) 0.96062(18)
O23 O 0.3254(3) 0.7111(2) 0.9290(2)
O24 O 0.3148(4) 0.5701(4) 0.7911(3)
N2 N 0.3995(4) 0.5717(3) 0.8315(2)
C18 C 0.2908(4) 0.6717(3) 0.9376(2)
C19 C 0.4791(5) 0.5700(3) 0.7669(3)
O25 O 0.3057(5) 0.4345(3) 0.9210(3)
O26 O 0.4810(5) 0.5757(4) 0.8757(2)
C20 C 0.3039(5) 0.6216(3) 0.9178(3)
C21 C 0.5048(6) 0.5708(4) 0.8060(3)
C22 C 0.2795(5) 0.5752(3) 0.9323(3)
H8 H 0.2501(5) 0.5756(3) 0.9538(3)
C23 C 0.3425(5) 0.6204(3) 0.8840(3)
H9 H 0.3580(5) 0.6526(3) 0.8731(3)
C24 C 0.2988(5) 0.5260(3) 0.9148(3)
C25 C 0.3583(6) 0.5731(4) 0.8662(3)
C26 C 0.5689(6) 0.5698(5) 0.8119(3)
H10 H 0.5852(6) 0.5692(5) 0.8386(3)
C27 C 0.3719(6) 0.5707(4) 0.7931(3)
C28 C 0.3378(6) 0.5248(4) 0.8826(3)
H11 H 0.3511(6) 0.4921(4) 0.8715(3)
C29 C 0.6087(6) 0.5698(5) 0.7797(3)
H12 H 0.6523(6) 0.5696(5) 0.7841(3)
C30 C 0.4149(5) 0.5700(4) 0.7600(3)
C31 C 0.4618(6) 0.5721(4) 0.8401(3)
C32 C 0.2775(6) 0.4747(3) 0.9331(3)
Zr5 Zr 0.32161(4) 0.35320(3) 0.94677(3)
O27 O 0.2721(3) 0.2757(2) 0.9392(2)
O28 O 0.3164(5) 0.3477(3) 0.8797(3)
O29 O 0.4119(5) 0.3896(3) 0.9521(5)
Zr6 Zr 0.82843(4) 0.29648(3) 0.55322(2)
O30 O 0.7737(3) 0.3626(2) 0.54579(17)
O31 O 0.9231(4) 0.2645(3) 0.5481(4)
O32 O 0.8227(5) 0.2957(3) 0.6192(2)
O33 O 0.8761(3) 0.4357(2) 0.4591(2)
O34 O 0.8928(4) 0.3613(3) 0.4217(3)
C33 C 0.9009(6) 0.4092(4) 0.4323(5)
H13 H 0.9312(6) 0.4277(4) 0.4169(5)
O35 O 0.6283(3) 0.2144(3) 0.5390(3)
O36 O 0.6033(4) 0.2942(3) 0.5723(4)
C34 C 0.5982(7) 0.2431(6) 0.5647(6)
H14 H 0.5680(7) 0.2249(6) 0.5804(6)
Zr7_2 Zr 0.20067(4) 0.41368(3) 1.000
Zr8_2 Zr 0.29248(4) 0.23609(4) 1.000
Zr9_2 Zr 0.20752(4) 0.73609(4) 1.000
Zr10 Zr 0.79248(4) 0.73609(4) 0.500
Zr11 Zr 0.17157(4) 0.29648(3) 0.94678(2)
Zr12 Zr 0.32843(4) 0.79648(3) 0.94678(2)
Zr13 Zr 0.67157(4) 0.79648(3) 0.55322(2)
Zr14 Zr 0.67839(4) 0.35320(3) 0.44677(3)
O37 O 0.2263(3) 0.3626(2) 0.95421(17)
O38 O 0.7646(3) 0.4758(2) 0.45963(16)
O39 O 0.7437(3) 0.17313(19) 0.46062(18)
O40 O 0.7437(3) 0.17313(19) 0.53938(18)
O41 O 0.8254(3) 0.2111(2) 0.4290(2)
O42 O 0.8254(3) 0.2111(2) 0.5710(2)
O43_2 O 0.3317(4) 0.3111(3) 1.000
O44 O 0.7279(3) 0.2757(2) 0.4392(2)
O45_2 O 0.3074(4) 0.4043(3) 1.000
O46 O 0.3967(4) 0.2942(3) 0.9277(4)
Zr3_2 Zr 0.17157(4) 0.29648(3) 0.05322(2)
O1_2 O 0.2263(3) 0.3626(2) 0.04579(17)
O2_2 O 0.2015(4) 0.2626(3) 0.000
O6_2 O 0.1342(4) 0.3410(3) 0.000
O11_2 O 0.3717(3) 0.2144(3) 0.0390(3)
O12_2 O 0.0769(4) 0.2645(3) 0.0481(4)
O15_2 O 0.1773(5) 0.2957(3) 0.1192(2)
O16_2 O 0.3967(4) 0.2942(3) 0.0723(4)
C17_2 C 0.4018(7) 0.2431(6) 0.0647(6)
H7_2 H 0.4320(7) 0.2249(6) 0.0804(6)
O33_2 O 0.1239(3) 0.4357(2) 0.0409(2)
O34_2 O 0.1072(4) 0.3613(3) 0.0783(3)
C33_2 C 0.0991(6) 0.4092(4) 0.0677(5)
H13_2 H 0.0688(6) 0.4277(4) 0.0831(5)
Zr14_2 Zr 0.32161(4) 0.35320(3) 0.05323(3)
O38_2 O 0.2354(3) 0.4758(2) 0.04037(16)
O39_2 O 0.2563(3) 0.17313(19) 0.03938(18)
O41_2 O 0.1746(3) 0.2111(2) 0.0710(2)
O44_2 O 0.2721(3) 0.2757(2) 0.0608(2)
O2_3 O 0.2015(4) 0.2626(3) 1.000
O5_2 O 0.1239(3) 0.4357(2) 0.9591(2)
O6_3 O 0.1342(4) 0.3410(3) 1.000
O14_2 O 0.1072(4) 0.3613(3) 0.9217(3)
C16_2 C 0.0991(6) 0.4092(4) 0.9323(5)
H6_2 H 0.0688(6) 0.4277(4) 0.9169(5)
O31_2 O 0.0769(4) 0.2645(3) 0.9519(4)
O32_2 O 0.1773(5) 0.2957(3) 0.8808(2)
O35_2 O 0.3717(3) 0.2144(3) 0.9610(3)
C34_2 C 0.4018(7) 0.2431(6) 0.9353(6)
H14_2 H 0.4320(7) 0.2249(6) 0.9196(6)
O40_2 O 0.2563(3) 0.17313(19) 0.96062(18)
O42_2 O 0.1746(3) 0.2111(2) 0.9290(2)
O13_2 O 0.1852(4) 0.0701(4) 0.2089(3)
N1_2 N 0.1005(4) 0.0717(3) 0.1685(2)
C1_2 C 0.2092(4) 0.1717(3) 0.0624(2)
C2_2 C 0.0209(5) 0.0700(3) 0.2331(3)
O19_2 O 0.0190(5) 0.0757(4) 0.1243(2)
C3_2 C 0.1961(5) 0.1216(3) 0.0822(3)
C5_2 C 0.2205(5) 0.0752(3) 0.0677(3)
H1_2 H 0.2499(5) 0.0756(3) 0.0462(3)
C6_2 C 0.1575(5) 0.1204(3) 0.1160(3)
H2_2 H 0.1420(5) 0.1526(3) 0.1269(3)
C7_2 C 0.2012(5) 0.0260(3) 0.0852(3)
C8_2 C 0.1417(6) 0.0731(4) 0.1338(3)
C10_2 C 0.1281(6) 0.0707(4) 0.2069(3)
C11_2 C 0.1622(6) 0.0248(4) 0.1174(3)
C13_2 C 0.0851(5) 0.0700(4) 0.2400(3)
C14_2 C 0.0382(6) 0.0721(4) 0.1599(3)
C21_2 C 0.0048(6) 0.0708(4) 0.3060(3)
C26_2 C 0.0689(6) 0.0698(5) 0.3119(3)
H10_2 H 0.0852(6) 0.0692(5) 0.3386(3)
C29_2 C 0.1087(6) 0.0698(5) 0.2797(3)
H12_2 H 0.1523(6) 0.0696(5) 0.2841(3)
Zr1_2 Zr 0.29933(4) 0.91368(3) 0.000
Zr4_2 Zr 0.17839(4) 0.85320(3) 0.05323(3)
O2_4 O 0.2985(4) 0.7626(3) 0.000
O3_2 O 0.2646(3) 0.9758(2) 0.04037(16)
O5_3 O 0.3761(3) 0.9357(2) 0.0409(2)
O6_4 O 0.3658(4) 0.8410(3) 0.000
O8_2 O 0.1683(4) 0.8111(3) 0.000
O9_2 O 0.2279(3) 0.7757(2) 0.0608(2)
O10_2 O 0.1926(4) 0.9043(3) 0.000
O14_3 O 0.3928(4) 0.8613(3) 0.0783(3)
O17_2 O 0.1836(5) 0.8477(3) 0.1203(3)
O18_2 O 0.1943(5) 0.9345(3) 0.0790(3)
H4_2 H 0.1489(6) 0.9921(4) 0.1285(3)
C15_2 C 0.2225(6) 0.9747(3) 0.0669(3)
O20_2 O 0.0881(5) 0.8896(3) 0.0479(5)
C16_3 C 0.4009(6) 0.9092(4) 0.0677(5)
H6_3 H 0.4312(6) 0.9277(4) 0.0831(5)
Zr6_2 Zr 0.32843(4) 0.79648(3) 0.05322(2)
O30_2 O 0.2737(3) 0.8626(2) 0.04579(17)
O31_3 O 0.4231(4) 0.7645(3) 0.0481(4)
O32_3 O 0.3227(5) 0.7957(3) 0.1192(2)
O35_3 O 0.1283(3) 0.7144(3) 0.0390(3)
O36_2 O 0.1033(4) 0.7942(3) 0.0723(4)
C34_3 C 0.0982(7) 0.7431(6) 0.0647(6)
H14_3 H 0.0680(7) 0.7249(6) 0.0804(6)
O40_3 O 0.2437(3) 0.67313(19) 0.03938(18)
O42_3 O 0.3254(3) 0.7111(2) 0.0710(2)
Zr1_3 Zr 0.29933(4) 0.91368(3) 1.000
O1_3 O 0.2737(3) 0.8626(2) 0.95421(17)
O2_5 O 0.2985(4) 0.7626(3) 1.000
O6_5 O 0.3658(4) 0.8410(3) 1.000
O8_3 O 0.1683(4) 0.8111(3) 1.000
O10_3 O 0.1926(4) 0.9043(3) 1.000
O11_3 O 0.1283(3) 0.7144(3) 0.9610(3)
O12_3 O 0.4231(4) 0.7645(3) 0.9519(4)
O15_3 O 0.3227(5) 0.7957(3) 0.8808(2)
O16_3 O 0.1033(4) 0.7942(3) 0.9277(4)
C17_3 C 0.0982(7) 0.7431(6) 0.9353(6)
H7_3 H 0.0680(7) 0.7249(6) 0.9196(6)
O33_3 O 0.3761(3) 0.9357(2) 0.9591(2)
O34_3 O 0.3928(4) 0.8613(3) 0.9217(3)
C33_3 C 0.4009(6) 0.9092(4) 0.9323(5)
H13_3 H 0.4312(6) 0.9277(4) 0.9169(5)
Zr14_3 Zr 0.17839(4) 0.85320(3) 0.94677(3)
O38_3 O 0.2646(3) 0.9758(2) 0.95963(16)
O44_3 O 0.2279(3) 0.7757(2) 0.9392(2)
C4_2 C 0.9952(6) 0.0708(4) 0.1940(3)
C9_2 C 0.9311(6) 0.0698(5) 0.1881(3)
H3_2 H 0.9148(6) 0.0692(5) 0.1614(3)
C12_2 C 0.8913(6) 0.0698(5) 0.2203(3)
H5_2 H 0.8477(6) 0.0696(5) 0.2159(3)
O24_2 O 0.8148(4) 0.0701(4) 0.2911(3)
N2_2 N 0.8995(4) 0.0717(3) 0.3315(2)
C18_2 C 0.7908(4) 0.1717(3) 0.4376(2)
C19_2 C 0.9791(5) 0.0700(3) 0.2669(3)
O26_2 O 0.9810(5) 0.0757(4) 0.3757(2)
C20_2 C 0.8039(5) 0.1216(3) 0.4178(3)
C22_2 C 0.7795(5) 0.0752(3) 0.4323(3)
H8_2 H 0.7501(5) 0.0756(3) 0.4538(3)
C23_2 C 0.8425(5) 0.1204(3) 0.3840(3)
H9_2 H 0.8580(5) 0.1526(3) 0.3731(3)
C24_2 C 0.7988(5) 0.0260(3) 0.4148(3)
C25_2 C 0.8583(6) 0.0731(4) 0.3662(3)
C27_2 C 0.8719(6) 0.0707(4) 0.2931(3)
C28_2 C 0.8378(6) 0.0248(4) 0.3826(3)
C30_2 C 0.9149(5) 0.0700(4) 0.2600(3)
C31_2 C 0.9618(6) 0.0721(4) 0.3401(3)
O21_2 O 0.7354(3) 0.9758(2) 0.45963(16)
O25_2 O 0.8057(5) 0.9345(3) 0.4210(3)
H11_2 H 0.8511(6) 0.9921(4) 0.3715(3)
C32_2 C 0.7775(6) 0.9747(3) 0.4331(3)
Zr5_2 Zr 0.82161(4) 0.85320(3) 0.44677(3)
O27_2 O 0.7721(3) 0.7757(2) 0.4392(2)
O28_2 O 0.8164(5) 0.8477(3) 0.3797(3)
O29_2 O 0.9119(5) 0.8896(3) 0.4521(5)
Zr7_3 Zr 0.70067(4) 0.91368(3) 0.500
Zr11_2 Zr 0.67157(4) 0.79648(3) 0.44678(2)
O37_2 O 0.7263(3) 0.8626(2) 0.45421(17)
O43_3 O 0.8317(4) 0.8111(3) 0.500
O45_3 O 0.8074(4) 0.9043(3) 0.500
O46_2 O 0.8967(4) 0.7942(3) 0.4277(4)
O1_4 O 0.7263(3) 0.8626(2) 0.54579(17)
O2_6 O 0.7015(4) 0.7626(3) 0.500
O5_4 O 0.6239(3) 0.9357(2) 0.4591(2)
O6_6 O 0.6342(4) 0.8410(3) 0.500
O11_4 O 0.8717(3) 0.7144(3) 0.5390(3)
O12_4 O 0.5769(4) 0.7645(3) 0.5481(4)
O14_4 O 0.6072(4) 0.8613(3) 0.4217(3)
O15_4 O 0.6773(5) 0.7957(3) 0.6192(2)
O16_4 O 0.8967(4) 0.7942(3) 0.5723(4)
C16_4 C 0.5991(6) 0.9092(4) 0.4323(5)
H6_4 H 0.5688(6) 0.9277(4) 0.4169(5)
C17_4 C 0.9018(7) 0.7431(6) 0.5647(6)
H7_4 H 0.9320(7) 0.7249(6) 0.5804(6)
O31_4 O 0.5769(4) 0.7645(3) 0.4519(4)
O32_4 O 0.6773(5) 0.7957(3) 0.3808(2)
O33_4 O 0.6239(3) 0.9357(2) 0.5409(2)
O34_4 O 0.6072(4) 0.8613(3) 0.5783(3)
C33_4 C 0.5991(6) 0.9092(4) 0.5677(5)
H13_4 H 0.5688(6) 0.9277(4) 0.5831(5)
O35_4 O 0.8717(3) 0.7144(3) 0.4610(3)
C34_4 C 0.9018(7) 0.7431(6) 0.4353(6)
H14_4 H 0.9320(7) 0.7249(6) 0.4196(6)
Zr14_4 Zr 0.82161(4) 0.85320(3) 0.55323(3)
O38_4 O 0.7354(3) 0.9758(2) 0.54037(16)
O40_4 O 0.7563(3) 0.67313(19) 0.46062(18)
O42_4 O 0.6746(3) 0.7111(2) 0.4290(2)
O44_4 O 0.7721(3) 0.7757(2) 0.5608(2)
O13_3 O 0.3148(4) 0.5701(4) 0.2089(3)
N1_3 N 0.3995(4) 0.5717(3) 0.1685(2)
C1_3 C 0.2908(4) 0.6717(3) 0.0624(2)
C2_3 C 0.4791(5) 0.5700(3) 0.2331(3)
O17_3 O 0.3164(5) 0.3477(3) 0.1203(3)
O18_3 O 0.3057(5) 0.4345(3) 0.0790(3)
O19_3 O 0.4810(5) 0.5757(4) 0.1243(2)
C3_3 C 0.3039(5) 0.6216(3) 0.0822(3)
C4_3 C 0.5048(6) 0.5708(4) 0.1940(3)
C5_3 C 0.2795(5) 0.5752(3) 0.0677(3)
H1_3 H 0.2501(5) 0.5756(3) 0.0462(3)
C6_3 C 0.3425(5) 0.6204(3) 0.1160(3)
H2_3 H 0.3580(5) 0.6526(3) 0.1269(3)
C7_3 C 0.2988(5) 0.5260(3) 0.0852(3)
C8_3 C 0.3583(6) 0.5731(4) 0.1338(3)
C9_3 C 0.5689(6) 0.5698(5) 0.1881(3)
H3_3 H 0.5852(6) 0.5692(5) 0.1614(3)
C10_3 C 0.3719(6) 0.5707(4) 0.2069(3)
C11_3 C 0.3378(6) 0.5248(4) 0.1174(3)
H4_3 H 0.3511(6) 0.4921(4) 0.1285(3)
C12_3 C 0.6087(6) 0.5698(5) 0.2203(3)
H5_3 H 0.6523(6) 0.5696(5) 0.2159(3)
C13_3 C 0.4149(5) 0.5700(4) 0.2400(3)
C14_3 C 0.4618(6) 0.5721(4) 0.1599(3)
C15_3 C 0.2775(6) 0.4747(3) 0.0669(3)
O20_3 O 0.4119(5) 0.3896(3) 0.0479(5)
O24_3 O 0.6852(4) 0.5701(4) 0.2911(3)
N2_3 N 0.6005(4) 0.5717(3) 0.3315(2)
C18_3 C 0.7092(4) 0.6717(3) 0.4376(2)
C19_3 C 0.5209(5) 0.5700(3) 0.2669(3)
O25_3 O 0.6943(5) 0.4345(3) 0.4210(3)
O26_3 O 0.5190(5) 0.5757(4) 0.3757(2)
C20_3 C 0.6961(5) 0.6216(3) 0.4178(3)
C21_3 C 0.4952(6) 0.5708(4) 0.3060(3)
C22_3 C 0.7205(5) 0.5752(3) 0.4323(3)
H8_3 H 0.7499(5) 0.5756(3) 0.4538(3)
C23_3 C 0.6575(5) 0.6204(3) 0.3840(3)
H9_3 H 0.6420(5) 0.6526(3) 0.3731(3)
C24_3 C 0.7012(5) 0.5260(3) 0.4148(3)
C25_3 C 0.6417(6) 0.5731(4) 0.3662(3)
C26_3 C 0.4311(6) 0.5698(5) 0.3119(3)
H10_3 H 0.4148(6) 0.5692(5) 0.3386(3)
C27_3 C 0.6281(6) 0.5707(4) 0.2931(3)
C28_3 C 0.6622(6) 0.5248(4) 0.3826(3)
H11_3 H 0.6489(6) 0.4921(4) 0.3715(3)
C29_3 C 0.3913(6) 0.5698(5) 0.2797(3)
H12_3 H 0.3477(6) 0.5696(5) 0.2841(3)
C30_3 C 0.5851(5) 0.5700(4) 0.2600(3)
C31_3 C 0.5382(6) 0.5721(4) 0.3401(3)
C32_3 C 0.7225(6) 0.4747(3) 0.4331(3)
O28_3 O 0.6836(5) 0.3477(3) 0.3797(3)
O29_3 O 0.5881(5) 0.3896(3) 0.4521(5)
C4_4 C 0.0048(6) 0.0708(4) 0.6940(3)
C9_4 C 0.0689(6) 0.0698(5) 0.6881(3)
H3_4 H 0.0852(6) 0.0692(5) 0.6614(3)
C12_4 C 0.1087(6) 0.0698(5) 0.7203(3)
H5_4 H 0.1523(6) 0.0696(5) 0.7159(3)
O24_4 O 0.1852(4) 0.0701(4) 0.7911(3)
N2_4 N 0.1005(4) 0.0717(3) 0.8315(2)
C18_4 C 0.2092(4) 0.1717(3) 0.9376(2)
C19_4 C 0.0209(5) 0.0700(3) 0.7669(3)
O26_4 O 0.0190(5) 0.0757(4) 0.8757(2)
C20_4 C 0.1961(5) 0.1216(3) 0.9178(3)
C22_4 C 0.2205(5) 0.0752(3) 0.9323(3)
H8_4 H 0.2499(5) 0.0756(3) 0.9538(3)
C23_4 C 0.1575(5) 0.1204(3) 0.8840(3)
H9_4 H 0.1420(5) 0.1526(3) 0.8731(3)
C24_4 C 0.2012(5) 0.0260(3) 0.9148(3)
C25_4 C 0.1417(6) 0.0731(4) 0.8662(3)
C27_4 C 0.1281(6) 0.0707(4) 0.7931(3)
C28_4 C 0.1622(6) 0.0248(4) 0.8826(3)
C30_4 C 0.0851(5) 0.0700(4) 0.7600(3)
C31_4 C 0.0382(6) 0.0721(4) 0.8401(3)
O25_4 O 0.1943(5) 0.9345(3) 0.9210(3)
H11_4 H 0.1489(6) 0.9921(4) 0.8715(3)
C32_4 C 0.2225(6) 0.9747(3) 0.9331(3)
O28_4 O 0.1836(5) 0.8477(3) 0.8797(3)
O29_4 O 0.0881(5) 0.8896(3) 0.9521(5)
O13_4 O 0.8148(4) 0.0701(4) 0.7089(3)
N1_4 N 0.8995(4) 0.0717(3) 0.6685(2)
C1_4 C 0.7908(4) 0.1717(3) 0.5624(2)
C2_4 C 0.9791(5) 0.0700(3) 0.7331(3)
O19_4 O 0.9810(5) 0.0757(4) 0.6243(2)
C3_4 C 0.8039(5) 0.1216(3) 0.5822(3)
C5_4 C 0.7795(5) 0.0752(3) 0.5677(3)
H1_4 H 0.7501(5) 0.0756(3) 0.5462(3)
C6_4 C 0.8425(5) 0.1204(3) 0.6160(3)
H2_4 H 0.8580(5) 0.1526(3) 0.6269(3)
C7_4 C 0.7988(5) 0.0260(3) 0.5852(3)
C8_4 C 0.8583(6) 0.0731(4) 0.6338(3)
C10_4 C 0.8719(6) 0.0707(4) 0.7069(3)
C11_4 C 0.8378(6) 0.0248(4) 0.6174(3)
C13_4 C 0.9149(5) 0.0700(4) 0.7400(3)
C14_4 C 0.9618(6) 0.0721(4) 0.6599(3)
C21_4 C 0.9952(6) 0.0708(4) 0.8060(3)
C26_4 C 0.9311(6) 0.0698(5) 0.8119(3)
H10_4 H 0.9148(6) 0.0692(5) 0.8386(3)
C29_4 C 0.8913(6) 0.0698(5) 0.7797(3)
H12_4 H 0.8477(6) 0.0696(5) 0.7841(3)
O17_4 O 0.8164(5) 0.8477(3) 0.6203(3)
O18_4 O 0.8057(5) 0.9345(3) 0.5790(3)
H4_4 H 0.8511(6) 0.9921(4) 0.6285(3)
C15_4 C 0.7775(6) 0.9747(3) 0.5669(3)
O20_4 O 0.9119(5) 0.8896(3) 0.5479(5)
Zr1_4 Zr 0.79933(4) 0.58632(3) 0.000
Zr2_2 Zr 0.70752(4) 0.76391(4) 0.000
Zr3_3 Zr 0.82843(4) 0.70352(3) 0.05322(2)
O1_5 O 0.7737(3) 0.6374(2) 0.04579(17)
O2_7 O 0.7985(4) 0.7374(3) 0.000
O6_7 O 0.8658(4) 0.6590(3) 0.000
O8_4 O 0.6683(4) 0.6889(3) 0.000
O10_4 O 0.6926(4) 0.5957(3) 0.000
O11_5 O 0.6283(3) 0.7856(3) 0.0390(3)
O12_5 O 0.9231(4) 0.7355(3) 0.0481(4)
O15_5 O 0.8227(5) 0.7043(3) 0.1192(2)
O16_5 O 0.6033(4) 0.7058(3) 0.0723(4)
C17_5 C 0.5982(7) 0.7569(6) 0.0647(6)
H7_5 H 0.5680(7) 0.7751(6) 0.0804(6)
O33_5 O 0.8761(3) 0.5643(2) 0.0409(2)
O34_5 O 0.8928(4) 0.6387(3) 0.0783(3)
C33_5 C 0.9009(6) 0.5908(4) 0.0677(5)
H13_5 H 0.9312(6) 0.5723(4) 0.0831(5)
Zr10_2 Zr 0.79248(4) 0.26391(4) 0.000
Zr14_5 Zr 0.67839(4) 0.64680(3) 0.05323(3)
O38_5 O 0.7646(3) 0.5242(2) 0.04037(16)
O39_3 O 0.7437(3) 0.82687(19) 0.03938(18)
O41_3 O 0.8254(3) 0.7889(2) 0.0710(2)
O44_5 O 0.7279(3) 0.7243(2) 0.0608(2)
Zr1_5 Zr 0.79933(4) 0.58632(3) 1.000
Zr2_3 Zr 0.70752(4) 0.76391(4) 1.000
Zr4_3 Zr 0.67839(4) 0.64680(3) 0.94677(3)
O2_8 O 0.7985(4) 0.7374(3) 1.000
O3_3 O 0.7646(3) 0.5242(2) 0.95963(16)
O4_2 O 0.7563(3) 0.32687(19) 0.96062(18)
O5_5 O 0.8761(3) 0.5643(2) 0.9591(2)
O6_8 O 0.8658(4) 0.6590(3) 1.000
O7_2 O 0.6746(3) 0.2889(2) 0.9290(2)
O8_5 O 0.6683(4) 0.6889(3) 1.000
O9_3 O 0.7279(3) 0.7243(2) 0.9392(2)
O10_5 O 0.6926(4) 0.5957(3) 1.000
O13_5 O 0.6852(4) 0.4299(4) 0.7911(3)
O14_5 O 0.8928(4) 0.6387(3) 0.9217(3)
N1_5 N 0.6005(4) 0.4283(3) 0.8315(2)
C1_5 C 0.7092(4) 0.3283(3) 0.9376(2)
C2_5 C 0.5209(5) 0.4300(3) 0.7669(3)
O17_5 O 0.6836(5) 0.6523(3) 0.8797(3)
O18_5 O 0.6943(5) 0.5655(3) 0.9210(3)
O19_5 O 0.5190(5) 0.4243(4) 0.8757(2)
C3_5 C 0.6961(5) 0.3784(3) 0.9178(3)
C4_5 C 0.4952(6) 0.4292(4) 0.8060(3)
C5_5 C 0.7205(5) 0.4248(3) 0.9323(3)
H1_5 H 0.7499(5) 0.4244(3) 0.9538(3)
C6_5 C 0.6575(5) 0.3796(3) 0.8840(3)
H2_5 H 0.6420(5) 0.3474(3) 0.8731(3)
C7_5 C 0.7012(5) 0.4740(3) 0.9148(3)
C8_5 C 0.6417(6) 0.4269(4) 0.8662(3)
C9_5 C 0.4311(6) 0.4302(5) 0.8119(3)
H3_5 H 0.4148(6) 0.4308(5) 0.8386(3)
C10_5 C 0.6281(6) 0.4293(4) 0.7931(3)
C11_5 C 0.6622(6) 0.4752(4) 0.8826(3)
H4_5 H 0.6489(6) 0.5079(4) 0.8715(3)
C12_5 C 0.3913(6) 0.4302(5) 0.7797(3)
H5_5 H 0.3477(6) 0.4304(5) 0.7841(3)
C13_5 C 0.5851(5) 0.4300(4) 0.7600(3)
C14_5 C 0.5382(6) 0.4279(4) 0.8401(3)
C15_5 C 0.7225(6) 0.5253(3) 0.9331(3)
O20_5 O 0.5881(5) 0.6104(3) 0.9521(5)
C16_5 C 0.9009(6) 0.5908(4) 0.9323(5)
H6_5 H 0.9312(6) 0.5723(4) 0.9169(5)
O21_3 O 0.2354(3) 0.5242(2) 0.54037(16)
O22_2 O 0.2437(3) 0.32687(19) 0.53938(18)
O23_2 O 0.3254(3) 0.2889(2) 0.5710(2)
O24_5 O 0.3148(4) 0.4299(4) 0.7089(3)
N2_5 N 0.3995(4) 0.4283(3) 0.6685(2)
C18_5 C 0.2908(4) 0.3283(3) 0.5624(2)
C19_5 C 0.4791(5) 0.4300(3) 0.7331(3)
O25_5 O 0.3057(5) 0.5655(3) 0.5790(3)
O26_5 O 0.4810(5) 0.4243(4) 0.6243(2)
C20_5 C 0.3039(5) 0.3784(3) 0.5822(3)
C21_5 C 0.5048(6) 0.4292(4) 0.6940(3)
C22_5 C 0.2795(5) 0.4248(3) 0.5677(3)
H8_5 H 0.2501(5) 0.4244(3) 0.5462(3)
C23_5 C 0.3425(5) 0.3796(3) 0.6160(3)
H9_5 H 0.3580(5) 0.3474(3) 0.6269(3)
C24_5 C 0.2988(5) 0.4740(3) 0.5852(3)
C25_5 C 0.3583(6) 0.4269(4) 0.6338(3)
C26_5 C 0.5689(6) 0.4302(5) 0.6881(3)
H10_5 H 0.5852(6) 0.4308(5) 0.6614(3)
C27_5 C 0.3719(6) 0.4293(4) 0.7069(3)
C28_5 C 0.3378(6) 0.4752(4) 0.6174(3)
H11_5 H 0.3511(6) 0.5079(4) 0.6285(3)
C29_5 C 0.6087(6) 0.4302(5) 0.7203(3)
H12_5 H 0.6523(6) 0.4304(5) 0.7159(3)
C30_5 C 0.4149(5) 0.4300(4) 0.7400(3)
C31_5 C 0.4618(6) 0.4279(4) 0.6599(3)
C32_5 C 0.2775(6) 0.5253(3) 0.5669(3)
Zr5_3 Zr 0.32161(4) 0.64680(3) 0.55323(3)
O27_3 O 0.2721(3) 0.7243(2) 0.5608(2)
O28_5 O 0.3164(5) 0.6523(3) 0.6203(3)
O29_5 O 0.4119(5) 0.6104(3) 0.5479(5)
Zr6_3 Zr 0.82843(4) 0.70352(3) 0.94678(2)
O30_3 O 0.7737(3) 0.6374(2) 0.95421(17)
O31_5 O 0.9231(4) 0.7355(3) 0.9519(4)
O32_5 O 0.8227(5) 0.7043(3) 0.8808(2)
O35_5 O 0.6283(3) 0.7856(3) 0.9610(3)
O36_3 O 0.6033(4) 0.7058(3) 0.9277(4)
C34_5 C 0.5982(7) 0.7569(6) 0.9353(6)
H14_5 H 0.5680(7) 0.7751(6) 0.9196(6)
Zr7_4 Zr 0.20067(4) 0.58632(3) 0.500
Zr8_3 Zr 0.29248(4) 0.76391(4) 0.500
Zr9_3 Zr 0.20752(4) 0.26391(4) 0.500
Zr10_3 Zr 0.79248(4) 0.26391(4) 1.000
Zr11_3 Zr 0.17157(4) 0.70352(3) 0.55322(2)
Zr12_2 Zr 0.32843(4) 0.20352(3) 0.55322(2)
Zr13_2 Zr 0.67157(4) 0.20352(3) 0.94678(2)
O37_3 O 0.2263(3) 0.6374(2) 0.54579(17)
O40_5 O 0.7437(3) 0.82687(19) 0.96062(18)
O42_5 O 0.8254(3) 0.7889(2) 0.9290(2)
O43_4 O 0.3317(4) 0.6889(3) 0.500
O45_4 O 0.3074(4) 0.5957(3) 0.500
O46_3 O 0.3967(4) 0.7058(3) 0.5723(4)
Zr3_4 Zr 0.17157(4) 0.70352(3) 0.44678(2)
O1_6 O 0.2263(3) 0.6374(2) 0.45421(17)
O2_9 O 0.2015(4) 0.7374(3) 0.500
O5_6 O 0.1239(3) 0.5643(2) 0.5409(2)
O6_9 O 0.1342(4) 0.6590(3) 0.500
O11_6 O 0.3717(3) 0.7856(3) 0.4610(3)
O12_6 O 0.0769(4) 0.7355(3) 0.4519(4)
O14_6 O 0.1072(4) 0.6387(3) 0.5783(3)
O15_6 O 0.1773(5) 0.7043(3) 0.3808(2)
O16_6 O 0.3967(4) 0.7058(3) 0.4277(4)
C16_6 C 0.0991(6) 0.5908(4) 0.5677(5)
H6_6 H 0.0688(6) 0.5723(4) 0.5831(5)
C17_6 C 0.4018(7) 0.7569(6) 0.4353(6)
H7_6 H 0.4320(7) 0.7751(6) 0.4196(6)
O31_6 O 0.0769(4) 0.7355(3) 0.5481(4)
O32_6 O 0.1773(5) 0.7043(3) 0.6192(2)
O33_6 O 0.1239(3) 0.5643(2) 0.4591(2)
O34_6 O 0.1072(4) 0.6387(3) 0.4217(3)
C33_6 C 0.0991(6) 0.5908(4) 0.4323(5)
H13_6 H 0.0688(6) 0.5723(4) 0.4169(5)
O35_6 O 0.3717(3) 0.7856(3) 0.5390(3)
C34_6 C 0.4018(7) 0.7569(6) 0.5647(6)
H14_6 H 0.4320(7) 0.7751(6) 0.5804(6)
Zr14_6 Zr 0.32161(4) 0.64680(3) 0.44677(3)
O38_6 O 0.2354(3) 0.5242(2) 0.45963(16)
O39_4 O 0.2563(3) 0.82687(19) 0.46062(18)
O40_6 O 0.2563(3) 0.82687(19) 0.53938(18)
O41_4 O 0.1746(3) 0.7889(2) 0.4290(2)
O42_6 O 0.1746(3) 0.7889(2) 0.5710(2)
O44_6 O 0.2721(3) 0.7243(2) 0.4392(2)
Zr1_6 Zr 0.29933(4) 0.08632(3) 0.500
Zr4_4 Zr 0.17839(4) 0.14680(3) 0.44677(3)
O1_7 O 0.2737(3) 0.1374(2) 0.54579(17)
O2_10 O 0.2985(4) 0.2374(3) 0.500
O3_4 O 0.2646(3) 0.0242(2) 0.45963(16)
O5_7 O 0.3761(3) 0.0643(2) 0.4591(2)
O6_10 O 0.3658(4) 0.1590(3) 0.500
O8_6 O 0.1683(4) 0.1889(3) 0.500
O9_4 O 0.2279(3) 0.2243(2) 0.4392(2)
O10_6 O 0.1926(4) 0.0957(3) 0.500
O11_7 O 0.1283(3) 0.2856(3) 0.5390(3)
O12_7 O 0.4231(4) 0.2355(3) 0.5481(4)
O14_7 O 0.3928(4) 0.1387(3) 0.4217(3)
O15_7 O 0.3227(5) 0.2043(3) 0.6192(2)
O16_7 O 0.1033(4) 0.2058(3) 0.5723(4)
O17_6 O 0.1836(5) 0.1523(3) 0.3797(3)
O18_6 O 0.1943(5) 0.0655(3) 0.4210(3)
H4_6 H 0.1489(6) 0.0079(4) 0.3715(3)
C15_6 C 0.2225(6) 0.0253(3) 0.4331(3)
O20_6 O 0.0881(5) 0.1104(3) 0.4521(5)
C16_7 C 0.4009(6) 0.0908(4) 0.4323(5)
H6_7 H 0.4312(6) 0.0723(4) 0.4169(5)
C17_7 C 0.0982(7) 0.2569(6) 0.5647(6)
H7_7 H 0.0680(7) 0.2751(6) 0.5804(6)
Zr6_4 Zr 0.32843(4) 0.20352(3) 0.44678(2)
O30_4 O 0.2737(3) 0.1374(2) 0.45421(17)
O31_7 O 0.4231(4) 0.2355(3) 0.4519(4)
O32_7 O 0.3227(5) 0.2043(3) 0.3808(2)
O33_7 O 0.3761(3) 0.0643(2) 0.5409(2)
O34_7 O 0.3928(4) 0.1387(3) 0.5783(3)
C33_7 C 0.4009(6) 0.0908(4) 0.5677(5)
H13_7 H 0.4312(6) 0.0723(4) 0.5831(5)
O35_7 O 0.1283(3) 0.2856(3) 0.4610(3)
O36_4 O 0.1033(4) 0.2058(3) 0.4277(4)
C34_7 C 0.0982(7) 0.2569(6) 0.4353(6)
H14_7 H 0.0680(7) 0.2751(6) 0.4196(6)
Zr14_7 Zr 0.17839(4) 0.14680(3) 0.55323(3)
O38_7 O 0.2646(3) 0.0242(2) 0.54037(16)
O40_7 O 0.2437(3) 0.32687(19) 0.46062(18)
O42_7 O 0.3254(3) 0.2889(2) 0.4290(2)
O44_7 O 0.2279(3) 0.2243(2) 0.5608(2)
O13_6 O 0.1852(4) 0.9299(4) 0.2911(3)
N1_6 N 0.1005(4) 0.9283(3) 0.3315(2)
C1_6 C 0.2092(4) 0.8283(3) 0.4376(2)
C2_6 C 0.0209(5) 0.9300(3) 0.2669(3)
O19_6 O 0.0190(5) 0.9243(4) 0.3757(2)
C3_6 C 0.1961(5) 0.8784(3) 0.4178(3)
C5_6 C 0.2205(5) 0.9248(3) 0.4323(3)
H1_6 H 0.2499(5) 0.9244(3) 0.4538(3)
C6_6 C 0.1575(5) 0.8796(3) 0.3840(3)
H2_6 H 0.1420(5) 0.8474(3) 0.3731(3)
C7_6 C 0.2012(5) 0.9740(3) 0.4148(3)
C8_6 C 0.1417(6) 0.9269(4) 0.3662(3)
C10_6 C 0.1281(6) 0.9293(4) 0.2931(3)
C11_6 C 0.1622(6) 0.9752(4) 0.3826(3)
C13_6 C 0.0851(5) 0.9300(4) 0.2600(3)
C14_6 C 0.0382(6) 0.9279(4) 0.3401(3)
C21_6 C 0.0048(6) 0.9292(4) 0.1940(3)
C26_6 C 0.0689(6) 0.9302(5) 0.1881(3)
H10_6 H 0.0852(6) 0.9308(5) 0.1614(3)
C29_6 C 0.1087(6) 0.9302(5) 0.2203(3)
H12_6 H 0.1523(6) 0.9304(5) 0.2159(3)
O21_4 O 0.7354(3) 0.0242(2) 0.04037(16)
O25_6 O 0.8057(5) 0.0655(3) 0.0790(3)
H11_6 H 0.8511(6) 0.0079(4) 0.1285(3)
C32_6 C 0.7775(6) 0.0253(3) 0.0669(3)
Zr5_4 Zr 0.82161(4) 0.14680(3) 0.05323(3)
O27_4 O 0.7721(3) 0.2243(2) 0.0608(2)
O28_6 O 0.8164(5) 0.1523(3) 0.1203(3)
O29_6 O 0.9119(5) 0.1104(3) 0.0479(5)
Zr7_5 Zr 0.70067(4) 0.08632(3) 0.000
Zr11_4 Zr 0.67157(4) 0.20352(3) 0.05322(2)
O37_4 O 0.7263(3) 0.1374(2) 0.04579(17)
O43_5 O 0.8317(4) 0.1889(3) 0.000
O45_5 O 0.8074(4) 0.0957(3) 0.000
O46_4 O 0.8967(4) 0.2058(3) 0.0723(4)
Zr7_6 Zr 0.70067(4) 0.08632(3) 1.000
O43_6 O 0.8317(4) 0.1889(3) 1.000
O45_6 O 0.8074(4) 0.0957(3) 1.000
C4_6 C 0.9952(6) 0.9292(4) 0.3060(3)
C9_6 C 0.9311(6) 0.9302(5) 0.3119(3)
H3_6 H 0.9148(6) 0.9308(5) 0.3386(3)
C12_6 C 0.8913(6) 0.9302(5) 0.2797(3)
H5_6 H 0.8477(6) 0.9304(5) 0.2841(3)
O24_6 O 0.8148(4) 0.9299(4) 0.2089(3)
N2_6 N 0.8995(4) 0.9283(3) 0.1685(2)
C18_6 C 0.7908(4) 0.8283(3) 0.0624(2)
C19_6 C 0.9791(5) 0.9300(3) 0.2331(3)
O26_6 O 0.9810(5) 0.9243(4) 0.1243(2)
C20_6 C 0.8039(5) 0.8784(3) 0.0822(3)
C22_6 C 0.7795(5) 0.9248(3) 0.0677(3)
H8_6 H 0.7501(5) 0.9244(3) 0.0462(3)
C23_6 C 0.8425(5) 0.8796(3) 0.1160(3)
H9_6 H 0.8580(5) 0.8474(3) 0.1269(3)
C24_6 C 0.7988(5) 0.9740(3) 0.0852(3)
C25_6 C 0.8583(6) 0.9269(4) 0.1338(3)
C27_6 C 0.8719(6) 0.9293(4) 0.2069(3)
C28_6 C 0.8378(6) 0.9752(4) 0.1174(3)
C30_6 C 0.9149(5) 0.9300(4) 0.2400(3)
C31_6 C 0.9618(6) 0.9279(4) 0.1599(3)
O2_11 O 0.7015(4) 0.2374(3) 0.000
O5_8 O 0.6239(3) 0.0643(2) 0.0409(2)
O6_11 O 0.6342(4) 0.1590(3) 0.000
O14_8 O 0.6072(4) 0.1387(3) 0.0783(3)
C16_8 C 0.5991(6) 0.0908(4) 0.0677(5)
H6_8 H 0.5688(6) 0.0723(4) 0.0831(5)
O31_8 O 0.5769(4) 0.2355(3) 0.0481(4)
O32_8 O 0.6773(5) 0.2043(3) 0.1192(2)
O35_8 O 0.8717(3) 0.2856(3) 0.0390(3)
C34_8 C 0.9018(7) 0.2569(6) 0.0647(6)
H14_8 H 0.9320(7) 0.2751(6) 0.0804(6)
O40_8 O 0.7563(3) 0.32687(19) 0.03938(18)
O42_8 O 0.6746(3) 0.2889(2) 0.0710(2)
O1_8 O 0.7263(3) 0.1374(2) 0.95421(17)
O2_12 O 0.7015(4) 0.2374(3) 1.000
O6_12 O 0.6342(4) 0.1590(3) 1.000
O11_8 O 0.8717(3) 0.2856(3) 0.9610(3)
O12_8 O 0.5769(4) 0.2355(3) 0.9519(4)
O15_8 O 0.6773(5) 0.2043(3) 0.8808(2)
O16_8 O 0.8967(4) 0.2058(3) 0.9277(4)
C17_8 C 0.9018(7) 0.2569(6) 0.9353(6)
H7_8 H 0.9320(7) 0.2751(6) 0.9196(6)
O33_8 O 0.6239(3) 0.0643(2) 0.9591(2)
O34_8 O 0.6072(4) 0.1387(3) 0.9217(3)
C33_8 C 0.5991(6) 0.0908(4) 0.9323(5)
H13_8 H 0.5688(6) 0.0723(4) 0.9169(5)
Zr14_8 Zr 0.82161(4) 0.14680(3) 0.94677(3)
O38_8 O 0.7354(3) 0.0242(2) 0.95963(16)
O44_8 O 0.7721(3) 0.2243(2) 0.9392(2)
O13_7 O 0.3148(4) 0.4299(4) 0.2911(3)
N1_7 N 0.3995(4) 0.4283(3) 0.3315(2)
C1_7 C 0.2908(4) 0.3283(3) 0.4376(2)
C2_7 C 0.4791(5) 0.4300(3) 0.2669(3)
O17_7 O 0.3164(5) 0.6523(3) 0.3797(3)
O18_7 O 0.3057(5) 0.5655(3) 0.4210(3)
O19_7 O 0.4810(5) 0.4243(4) 0.3757(2)
C3_7 C 0.3039(5) 0.3784(3) 0.4178(3)
C4_7 C 0.5048(6) 0.4292(4) 0.3060(3)
C5_7 C 0.2795(5) 0.4248(3) 0.4323(3)
H1_7 H 0.2501(5) 0.4244(3) 0.4538(3)
C6_7 C 0.3425(5) 0.3796(3) 0.3840(3)
H2_7 H 0.3580(5) 0.3474(3) 0.3731(3)
C7_7 C 0.2988(5) 0.4740(3) 0.4148(3)
C8_7 C 0.3583(6) 0.4269(4) 0.3662(3)
C9_7 C 0.5689(6) 0.4302(5) 0.3119(3)
H3_7 H 0.5852(6) 0.4308(5) 0.3386(3)
C10_7 C 0.3719(6) 0.4293(4) 0.2931(3)
C11_7 C 0.3378(6) 0.4752(4) 0.3826(3)
H4_7 H 0.3511(6) 0.5079(4) 0.3715(3)
C12_7 C 0.6087(6) 0.4302(5) 0.2797(3)
H5_7 H 0.6523(6) 0.4304(5) 0.2841(3)
C13_7 C 0.4149(5) 0.4300(4) 0.2600(3)
C14_7 C 0.4618(6) 0.4279(4) 0.3401(3)
C15_7 C 0.2775(6) 0.5253(3) 0.4331(3)
O20_7 O 0.4119(5) 0.6104(3) 0.4521(5)
O24_7 O 0.6852(4) 0.4299(4) 0.2089(3)
N2_7 N 0.6005(4) 0.4283(3) 0.1685(2)
C18_7 C 0.7092(4) 0.3283(3) 0.0624(2)
C19_7 C 0.5209(5) 0.4300(3) 0.2331(3)
O25_7 O 0.6943(5) 0.5655(3) 0.0790(3)
O26_7 O 0.5190(5) 0.4243(4) 0.1243(2)
C20_7 C 0.6961(5) 0.3784(3) 0.0822(3)
C21_7 C 0.4952(6) 0.4292(4) 0.1940(3)
C22_7 C 0.7205(5) 0.4248(3) 0.0677(3)
H8_7 H 0.7499(5) 0.4244(3) 0.0462(3)
C23_7 C 0.6575(5) 0.3796(3) 0.1160(3)
H9_7 H 0.6420(5) 0.3474(3) 0.1269(3)
C24_7 C 0.7012(5) 0.4740(3) 0.0852(3)
C25_7 C 0.6417(6) 0.4269(4) 0.1338(3)
C26_7 C 0.4311(6) 0.4302(5) 0.1881(3)
H10_7 H 0.4148(6) 0.4308(5) 0.1614(3)
C27_7 C 0.6281(6) 0.4293(4) 0.2069(3)
C28_7 C 0.6622(6) 0.4752(4) 0.1174(3)
H11_7 H 0.6489(6) 0.5079(4) 0.1285(3)
C29_7 C 0.3913(6) 0.4302(5) 0.2203(3)
H12_7 H 0.3477(6) 0.4304(5) 0.2159(3)
C30_7 C 0.5851(5) 0.4300(4) 0.2400(3)
C31_7 C 0.5382(6) 0.4279(4) 0.1599(3)
C32_7 C 0.7225(6) 0.5253(3) 0.0669(3)
O28_7 O 0.6836(5) 0.6523(3) 0.1203(3)
O29_7 O 0.5881(5) 0.6104(3) 0.0479(5)
O25_8 O 0.1943(5) 0.0655(3) 0.5790(3)
H11_8 H 0.1489(6) 0.0079(4) 0.6285(3)
C32_8 C 0.2225(6) 0.0253(3) 0.5669(3)
O28_8 O 0.1836(5) 0.1523(3) 0.6203(3)
O29_8 O 0.0881(5) 0.1104(3) 0.5479(5)
C4_8 C 0.0048(6) 0.9292(4) 0.8060(3)
C9_8 C 0.0689(6) 0.9302(5) 0.8119(3)
H3_8 H 0.0852(6) 0.9308(5) 0.8386(3)
C12_8 C 0.1087(6) 0.9302(5) 0.7797(3)
H5_8 H 0.1523(6) 0.9304(5) 0.7841(3)
O24_8 O 0.1852(4) 0.9299(4) 0.7089(3)
N2_8 N 0.1005(4) 0.9283(3) 0.6685(2)
C18_8 C 0.2092(4) 0.8283(3) 0.5624(2)
C19_8 C 0.0209(5) 0.9300(3) 0.7331(3)
O26_8 O 0.0190(5) 0.9243(4) 0.6243(2)
C20_8 C 0.1961(5) 0.8784(3) 0.5822(3)
C22_8 C 0.2205(5) 0.9248(3) 0.5677(3)
H8_8 H 0.2499(5) 0.9244(3) 0.5462(3)
C23_8 C 0.1575(5) 0.8796(3) 0.6160(3)
H9_8 H 0.1420(5) 0.8474(3) 0.6269(3)
C24_8 C 0.2012(5) 0.9740(3) 0.5852(3)
C25_8 C 0.1417(6) 0.9269(4) 0.6338(3)
C27_8 C 0.1281(6) 0.9293(4) 0.7069(3)
C28_8 C 0.1622(6) 0.9752(4) 0.6174(3)
C30_8 C 0.0851(5) 0.9300(4) 0.7400(3)
C31_8 C 0.0382(6) 0.9279(4) 0.6599(3)
O17_8 O 0.8164(5) 0.1523(3) 0.8797(3)
O18_8 O 0.8057(5) 0.0655(3) 0.9210(3)
H4_8 H 0.8511(6) 0.0079(4) 0.8715(3)
C15_8 C 0.7775(6) 0.0253(3) 0.9331(3)
O20_8 O 0.9119(5) 0.1104(3) 0.9521(5)
O13_8 O 0.8148(4) 0.9299(4) 0.7911(3)
N1_8 N 0.8995(4) 0.9283(3) 0.8315(2)
C1_8 C 0.7908(4) 0.8283(3) 0.9376(2)
C2_8 C 0.9791(5) 0.9300(3) 0.7669(3)
O19_8 O 0.9810(5) 0.9243(4) 0.8757(2)
C3_8 C 0.8039(5) 0.8784(3) 0.9178(3)
C5_8 C 0.7795(5) 0.9248(3) 0.9323(3)
H1_8 H 0.7501(5) 0.9244(3) 0.9538(3)
C6_8 C 0.8425(5) 0.8796(3) 0.8840(3)
H2_8 H 0.8580(5) 0.8474(3) 0.8731(3)
C7_8 C 0.7988(5) 0.9740(3) 0.9148(3)
C8_8 C 0.8583(6) 0.9269(4) 0.8662(3)
C10_8 C 0.8719(6) 0.9293(4) 0.7931(3)
C11_8 C 0.8378(6) 0.9752(4) 0.8826(3)
C13_8 C 0.9149(5) 0.9300(4) 0.7600(3)
C14_8 C 0.9618(6) 0.9279(4) 0.8401(3)
C21_8 C 0.9952(6) 0.9292(4) 0.6940(3)
C26_8 C 0.9311(6) 0.9302(5) 0.6881(3)
H10_8 H 0.9148(6) 0.9308(5) 0.6614(3)
C29_8 C 0.8913(6) 0.9302(5) 0.7203(3)
H12_8 H 0.8477(6) 0.9304(5) 0.7159(3)
loop_
_geom_bond_atom_site_label_1
_geom_bond_atom_site_label_2
_geom_bond_site_symmetry_1
_geom_bond_site_symmetry_2
Zr7 O45 1_555 1_555
Zr8 O43 1_555 1_555
Zr1 O1 1_555 1_555
Zr2 O2 1_555 1_555
Zr3 O1 1_555 1_555
Zr4 O8 1_555 1_555
O1 Zr14 1_555 1_555
O2 Zr3 1_555 1_555
O3 Zr1 1_555 1_555
O4 C1 1_555 1_555
O5 Zr1 1_555 1_555
O6 Zr1 1_555 1_555
O7 C1 1_555 1_555
O8 Zr2 1_555 1_555
O9 Zr2 1_555 1_555
O10 Zr1 1_555 1_555
O11 Zr2 1_555 1_555
O12 Zr3 1_555 1_555
O13 C10 1_555 1_555
O14 C16 1_555 1_555
O15 Zr3 1_555 1_555
N1 C8 1_555 1_555
O16 C17 1_555 1_555
C1 C3 1_555 1_555
C2 C4 1_555 1_555
O17 Zr4 1_555 1_555
O18 Zr4 1_555 1_555
O19 C14 1_555 1_555
C3 C5 1_555 1_555
C4 C9 1_555 1_555
C5 H1 1_555 1_555
C6 C3 1_555 1_555
H2 C6 1_555 1_555
C7 C5 1_555 1_555
C8 C6 1_555 1_555
C9 H3 1_555 1_555
C10 N1 1_555 1_555
C11 C7 1_555 1_555
H4 C11 1_555 1_555
C12 C9 1_555 1_555
H5 C12 1_555 1_555
C13 C2 1_555 1_555
C14 N1 1_555 1_555
C15 O3 1_555 1_555
O20 Zr4 1_555 1_555
C16 O5 1_555 1_555
H6 C16 1_555 1_555
C17 O11 1_555 1_555
H7 C17 1_555 1_555
O21 C32 1_555 1_555
O22 C18 1_555 1_555
O23 C18 1_555 1_555
O24 C27 1_555 1_555
N2 C25 1_555 1_555
C18 C20 1_555 1_555
C19 C2 1_555 1_555
O25 C32 1_555 1_555
O26 C31 1_555 1_555
C20 C22 1_555 1_555
C21 C19 1_555 1_555
C22 H8 1_555 1_555
C23 C20 1_555 1_555
H9 C23 1_555 1_555
C24 C22 1_555 1_555
C25 C23 1_555 1_555
C26 C21 1_555 1_555
H10 C26 1_555 1_555
C27 N2 1_555 1_555
C28 C24 1_555 1_555
H11 C28 1_555 1_555
C29 C13 1_555 1_555
H12 C29 1_555 1_555
C30 C12 1_555 1_555
C31 N2 1_555 1_555
C32 C24 1_555 1_555
Zr5 O25 1_555 1_555
O27 Zr5 1_555 1_555
O28 Zr5 1_555 1_555
O29 Zr5 1_555 1_555
Zr6 O2 1_555 1_555
O30 Zr1 1_555 1_555
O31 Zr6 1_555 1_555
O32 Zr6 1_555 1_555
O33 Zr1 1_555 1_555
O34 Zr3 1_555 1_555
C33 O33 1_555 1_555
H13 C33 1_555 1_555
O35 Zr2 1_555 1_555
O36 Zr4 1_555 1_555
C34 O35 1_555 1_555
H14 C34 1_555 1_555
Zr7_2 O21 1_555 1_555
Zr8_2 O27 1_555 1_555
Zr9_2 O22 1_555 1_555
Zr10 O4 1_555 1_555
Zr11 O27 1_555 1_555
Zr12 O23 1_555 1_555
Zr13 O7 1_555 1_555
Zr14 O8 1_555 1_555
O37 Zr5 1_555 1_555
O38 Zr1 1_555 1_555
O39 Zr2 1_555 1_555
O40 Zr2 1_555 1_555
O41 Zr3 1_555 1_555
O42 Zr6 1_555 1_555
O43_2 Zr5 1_555 1_555
O44 Zr2 1_555 1_555
O45_2 Zr5 1_555 1_555
O46 Zr5 1_555 1_555
Zr3 O6 1_555 1_555
Zr3 O44 1_555 1_555
Zr4 O9 1_555 1_555
Zr4 O10 1_555 1_555
Zr4 O30 1_555 1_555
O6 Zr6 1_555 1_555
O9 Zr6 1_555 1_555
O10 Zr14 1_555 1_555
O14 Zr6 1_555 1_555
O16 Zr14 1_555 1_555
O18 C15 1_555 1_555
C4 C14 1_555 1_555
C7 C15 1_555 1_555
C8 C11 1_555 1_555
C10 C13 1_555 1_555
C19 C30 1_555 1_555
C21 C31 1_555 1_555
C25 C28 1_555 1_555
C26 C29 1_555 1_555
C27 C30 1_555 1_555
Zr6 O30 1_555 1_555
O34 C33 1_555 1_555
O36 C34 1_555 1_555
Zr7_2 O37 1_555 1_555
Zr7_2 O45_2 1_555 1_555
Zr8_2 O43_2 1_555 1_555
Zr11 O37 1_555 1_555
Zr14 O44 1_555 1_555
Zr7 O1_2 1_555 1_555
Zr8 O2_2 1_555 1_555
Zr3_2 O1_2 1_555 1_555
O1_2 Zr14_2 1_555 1_555
O2_2 Zr3_2 1_555 1_555
O6_2 Zr7 1_555 1_555
O11_2 Zr8 1_555 1_555
O12_2 Zr3_2 1_555 1_555
O15_2 Zr3_2 1_555 1_555
O16_2 C17_2 1_555 1_555
C17_2 O11_2 1_555 1_555
H7_2 C17_2 1_555 1_555
O33_2 Zr7 1_555 1_555
O34_2 Zr3_2 1_555 1_555
C33_2 O33_2 1_555 1_555
H13_2 C33_2 1_555 1_555
Zr14_2 O43 1_555 1_555
O38_2 Zr7 1_555 1_555
O39_2 Zr8 1_555 1_555
O41_2 Zr3_2 1_555 1_555
O44_2 Zr8 1_555 1_555
Zr3_2 O6_2 1_555 1_555
Zr3_2 O44_2 1_555 1_555
O45 Zr14_2 1_555 1_555
O16_2 Zr14_2 1_555 1_555
O34_2 C33_2 1_555 1_555
Zr14_2 O44_2 1_555 1_555
Zr8_2 O2_3 1_555 1_555
O5_2 Zr7_2 1_555 1_555
O6_3 Zr7_2 1_555 1_555
O14_2 C16_2 1_555 1_555
C16_2 O5_2 1_555 1_555
H6_2 C16_2 1_555 1_555
Zr11 O2_3 1_555 1_555
O31_2 Zr11 1_555 1_555
O32_2 Zr11 1_555 1_555
O35_2 Zr8_2 1_555 1_555
C34_2 O35_2 1_555 1_555
H14_2 C34_2 1_555 1_555
O40_2 Zr8_2 1_555 1_555
O42_2 Zr11 1_555 1_555
O6_3 Zr11 1_555 1_555
O14_2 Zr11 1_555 1_555
O46 C34_2 1_555 1_555
O39_2 C1_2 1_555 1_555
O41_2 C1_2 1_555 1_555
O13_2 C10_2 1_555 1_555
N1_2 C8_2 1_555 1_555
C1_2 C3_2 1_555 1_555
O19_2 C14_2 1_555 1_555
C3_2 C5_2 1_555 1_555
C5_2 H1_2 1_555 1_555
C6_2 C3_2 1_555 1_555
H2_2 C6_2 1_555 1_555
C7_2 C5_2 1_555 1_555
C8_2 C6_2 1_555 1_555
C10_2 N1_2 1_555 1_555
C11_2 C7_2 1_555 1_555
C13_2 C2_2 1_555 1_555
C14_2 N1_2 1_555 1_555
C26_2 C21_2 1_555 1_555
H10_2 C26_2 1_555 1_555
C29_2 C13_2 1_555 1_555
H12_2 C29_2 1_555 1_555
C8_2 C11_2 1_555 1_555
C10_2 C13_2 1_555 1_555
C26_2 C29_2 1_555 1_555
Zr9 O2_4 1_555 1_555
Zr4_2 O8_2 1_555 1_555
O3_2 Zr1_2 1_555 1_555
O5_3 Zr1_2 1_555 1_555
O6_4 Zr1_2 1_555 1_555
O8_2 Zr9 1_555 1_555
O9_2 Zr9 1_555 1_555
O10_2 Zr1_2 1_555 1_555
O14_3 C16_3 1_555 1_555
O17_2 Zr4_2 1_555 1_555
O18_2 Zr4_2 1_555 1_555
C15_2 O3_2 1_555 1_555
O20_2 Zr4_2 1_555 1_555
C16_3 O5_3 1_555 1_555
H6_3 C16_3 1_555 1_555
Zr6_2 O2_4 1_555 1_555
O30_2 Zr1_2 1_555 1_555
O31_3 Zr6_2 1_555 1_555
O32_3 Zr6_2 1_555 1_555
O35_3 Zr9 1_555 1_555
O36_2 Zr4_2 1_555 1_555
C34_3 O35_3 1_555 1_555
H14_3 C34_3 1_555 1_555
O40_3 Zr9 1_555 1_555
O42_3 Zr6_2 1_555 1_555
Zr4_2 O9_2 1_555 1_555
Zr4_2 O10_2 1_555 1_555
Zr4_2 O30_2 1_555 1_555
O6_4 Zr6_2 1_555 1_555
O9_2 Zr6_2 1_555 1_555
O14_3 Zr6_2 1_555 1_555
O18_2 C15_2 1_555 1_555
Zr6_2 O30_2 1_555 1_555
O36_2 C34_3 1_555 1_555
Zr1_3 O1_3 1_555 1_555
Zr9_2 O2_5 1_555 1_555
Zr12 O1_3 1_555 1_555
O1_3 Zr14_3 1_555 1_555
O2_5 Zr12 1_555 1_555
O6_5 Zr1_3 1_555 1_555
O8_3 Zr9_2 1_555 1_555
O10_3 Zr1_3 1_555 1_555
O11_3 Zr9_2 1_555 1_555
O12_3 Zr12 1_555 1_555
O15_3 Zr12 1_555 1_555
O16_3 C17_3 1_555 1_555
C17_3 O11_3 1_555 1_555
H7_3 C17_3 1_555 1_555
O33_3 Zr1_3 1_555 1_555
O34_3 Zr12 1_555 1_555
C33_3 O33_3 1_555 1_555
H13_3 C33_3 1_555 1_555
Zr14_3 O8_3 1_555 1_555
O38_3 Zr1_3 1_555 1_555
O44_3 Zr9_2 1_555 1_555
Zr12 O6_5 1_555 1_555
Zr12 O44_3 1_555 1_555
O10_3 Zr14_3 1_555 1_555
O16_3 Zr14_3 1_555 1_555
O34_3 C33_3 1_555 1_555
Zr14_3 O44_3 1_555 1_555
C4_2 C9_2 1_555 1_555
C9_2 H3_2 1_555 1_555
C12_2 C9_2 1_555 1_555
H5_2 C12_2 1_555 1_555
O39 C18_2 1_555 1_555
O41 C18_2 1_555 1_555
O24_2 C27_2 1_555 1_555
N2_2 C25_2 1_555 1_555
C18_2 C20_2 1_555 1_555
O26_2 C31_2 1_555 1_555
C20_2 C22_2 1_555 1_555
C22_2 H8_2 1_555 1_555
C23_2 C20_2 1_555 1_555
H9_2 C23_2 1_555 1_555
C24_2 C22_2 1_555 1_555
C25_2 C23_2 1_555 1_555
C27_2 N2_2 1_555 1_555
C28_2 C24_2 1_555 1_555
C30_2 C12_2 1_555 1_555
C31_2 N2_2 1_555 1_555
C19_2 C30_2 1_555 1_555
C25_2 C28_2 1_555 1_555
C27_2 C30_2 1_555 1_555
O21_2 C32_2 1_555 1_555
O25_2 C32_2 1_555 1_555
Zr5_2 O25_2 1_555 1_555
O27_2 Zr5_2 1_555 1_555
O28_2 Zr5_2 1_555 1_555
O29_2 Zr5_2 1_555 1_555
Zr7_3 O21_2 1_555 1_555
Zr10 O27_2 1_555 1_555
Zr11_2 O27_2 1_555 1_555
O37_2 Zr5_2 1_555 1_555
O43_3 Zr5_2 1_555 1_555
O45_3 Zr5_2 1_555 1_555
O46_2 Zr5_2 1_555 1_555
Zr7_3 O37_2 1_555 1_555
Zr7_3 O45_3 1_555 1_555
Zr10 O43_3 1_555 1_555
Zr11_2 O37_2 1_555 1_555
Zr7_3 O1_4 1_555 1_555
Zr10 O2_6 1_555 1_555
Zr13 O1_4 1_555 1_555
O1_4 Zr14_4 1_555 1_555
O2_6 Zr13 1_555 1_555
O5_4 Zr7_3 1_555 1_555
O6_6 Zr7_3 1_555 1_555
O11_4 Zr10 1_555 1_555
O12_4 Zr13 1_555 1_555
O14_4 C16_4 1_555 1_555
O15_4 Zr13 1_555 1_555
O16_4 C17_4 1_555 1_555
C16_4 O5_4 1_555 1_555
H6_4 C16_4 1_555 1_555
C17_4 O11_4 1_555 1_555
H7_4 C17_4 1_555 1_555
Zr11_2 O2_6 1_555 1_555
O31_4 Zr11_2 1_555 1_555
O32_4 Zr11_2 1_555 1_555
O33_4 Zr7_3 1_555 1_555
O34_4 Zr13 1_555 1_555
C33_4 O33_4 1_555 1_555
H13_4 C33_4 1_555 1_555
O35_4 Zr10 1_555 1_555
C34_4 O35_4 1_555 1_555
H14_4 C34_4 1_555 1_555
Zr14_4 O43_3 1_555 1_555
O38_4 Zr7_3 1_555 1_555
O40_4 Zr10 1_555 1_555
O42_4 Zr11_2 1_555 1_555
O44_4 Zr10 1_555 1_555
Zr13 O6_6 1_555 1_555
Zr13 O44_4 1_555 1_555
O6_6 Zr11_2 1_555 1_555
O45_3 Zr14_4 1_555 1_555
O14_4 Zr11_2 1_555 1_555
O16_4 Zr14_4 1_555 1_555
O34_4 C33_4 1_555 1_555
O46_2 C34_4 1_555 1_555
Zr14_4 O44_4 1_555 1_555
O40_3 C1_3 1_555 1_555
O42_3 C1_3 1_555 1_555
O13_3 C10_3 1_555 1_555
N1_3 C8_3 1_555 1_555
C1_3 C3_3 1_555 1_555
C2_3 C4_3 1_555 1_555
O17_3 Zr14_2 1_555 1_555
O18_3 Zr14_2 1_555 1_555
O19_3 C14_3 1_555 1_555
C3_3 C5_3 1_555 1_555
C4_3 C9_3 1_555 1_555
C5_3 H1_3 1_555 1_555
C6_3 C3_3 1_555 1_555
H2_3 C6_3 1_555 1_555
C7_3 C5_3 1_555 1_555
C8_3 C6_3 1_555 1_555
C9_3 H3_3 1_555 1_555
C10_3 N1_3 1_555 1_555
C11_3 C7_3 1_555 1_555
H4_3 C11_3 1_555 1_555
C12_3 C9_3 1_555 1_555
H5_3 C12_3 1_555 1_555
C13_3 C2_3 1_555 1_555
C14_3 N1_3 1_555 1_555
C15_3 O38_2 1_555 1_555
O20_3 Zr14_2 1_555 1_555
O38 C32_3 1_555 1_555
O40_4 C18_3 1_555 1_555
O42_4 C18_3 1_555 1_555
O24_3 C27_3 1_555 1_555
N2_3 C25_3 1_555 1_555
C18_3 C20_3 1_555 1_555
C19_3 C2_3 1_555 1_555
O25_3 C32_3 1_555 1_555
O26_3 C31_3 1_555 1_555
C20_3 C22_3 1_555 1_555
C21_3 C19_3 1_555 1_555
C22_3 H8_3 1_555 1_555
C23_3 C20_3 1_555 1_555
H9_3 C23_3 1_555 1_555
C24_3 C22_3 1_555 1_555
C25_3 C23_3 1_555 1_555
C26_3 C21_3 1_555 1_555
H10_3 C26_3 1_555 1_555
C27_3 N2_3 1_555 1_555
C28_3 C24_3 1_555 1_555
H11_3 C28_3 1_555 1_555
C29_3 C13_3 1_555 1_555
H12_3 C29_3 1_555 1_555
C30_3 C12_3 1_555 1_555
C31_3 N2_3 1_555 1_555
C32_3 C24_3 1_555 1_555
Zr14 O25_3 1_555 1_555
O28_3 Zr14 1_555 1_555
O29_3 Zr14 1_555 1_555
O18_3 C15_3 1_555 1_555
C4_3 C14_3 1_555 1_555
C7_3 C15_3 1_555 1_555
C8_3 C11_3 1_555 1_555
C10_3 C13_3 1_555 1_555
C19_3 C30_3 1_555 1_555
C21_3 C31_3 1_555 1_555
C25_3 C28_3 1_555 1_555
C26_3 C29_3 1_555 1_555
C27_3 C30_3 1_555 1_555
C4_4 C9_4 1_555 1_555
C9_4 H3_4 1_555 1_555
C12_4 C9_4 1_555 1_555
H5_4 C12_4 1_555 1_555
O40_2 C18_4 1_555 1_555
O42_2 C18_4 1_555 1_555
O24_4 C27_4 1_555 1_555
N2_4 C25_4 1_555 1_555
C18_4 C20_4 1_555 1_555
O26_4 C31_4 1_555 1_555
C20_4 C22_4 1_555 1_555
C22_4 H8_4 1_555 1_555
C23_4 C20_4 1_555 1_555
H9_4 C23_4 1_555 1_555
C24_4 C22_4 1_555 1_555
C25_4 C23_4 1_555 1_555
C27_4 N2_4 1_555 1_555
C28_4 C24_4 1_555 1_555
C30_4 C12_4 1_555 1_555
C31_4 N2_4 1_555 1_555
C19_4 C30_4 1_555 1_555
C25_4 C28_4 1_555 1_555
C27_4 C30_4 1_555 1_555
O38_3 C32_4 1_555 1_555
O25_4 C32_4 1_555 1_555
Zr14_3 O25_4 1_555 1_555
O28_4 Zr14_3 1_555 1_555
O29_4 Zr14_3 1_555 1_555
O40 C1_4 1_555 1_555
O42 C1_4 1_555 1_555
O13_4 C10_4 1_555 1_555
N1_4 C8_4 1_555 1_555
C1_4 C3_4 1_555 1_555
O19_4 C14_4 1_555 1_555
C3_4 C5_4 1_555 1_555
C5_4 H1_4 1_555 1_555
C6_4 C3_4 1_555 1_555
H2_4 C6_4 1_555 1_555
C7_4 C5_4 1_555 1_555
C8_4 C6_4 1_555 1_555
C10_4 N1_4 1_555 1_555
C11_4 C7_4 1_555 1_555
C13_4 C2_4 1_555 1_555
C14_4 N1_4 1_555 1_555
C26_4 C21_4 1_555 1_555
H10_4 C26_4 1_555 1_555
C29_4 C13_4 1_555 1_555
H12_4 C29_4 1_555 1_555
C8_4 C11_4 1_555 1_555
C10_4 C13_4 1_555 1_555
C26_4 C29_4 1_555 1_555
O17_4 Zr14_4 1_555 1_555
O18_4 Zr14_4 1_555 1_555
C15_4 O38_4 1_555 1_555
O20_4 Zr14_4 1_555 1_555
O18_4 C15_4 1_555 1_555
Zr1_4 O1_5 1_555 1_555
Zr2_2 O2_7 1_555 1_555
Zr3_3 O1_5 1_555 1_555
O1_5 Zr14_5 1_555 1_555
O2_7 Zr3_3 1_555 1_555
O6_7 Zr1_4 1_555 1_555
O8_4 Zr2_2 1_555 1_555
O10_4 Zr1_4 1_555 1_555
O11_5 Zr2_2 1_555 1_555
O12_5 Zr3_3 1_555 1_555
O15_5 Zr3_3 1_555 1_555
O16_5 C17_5 1_555 1_555
C17_5 O11_5 1_555 1_555
H7_5 C17_5 1_555 1_555
O33_5 Zr1_4 1_555 1_555
O34_5 Zr3_3 1_555 1_555
C33_5 O33_5 1_555 1_555
H13_5 C33_5 1_555 1_555
Zr14_5 O8_4 1_555 1_555
O38_5 Zr1_4 1_555 1_555
O39_3 Zr2_2 1_555 1_555
O41_3 Zr3_3 1_555 1_555
O44_5 Zr2_2 1_555 1_555
Zr3_3 O6_7 1_555 1_555
Zr3_3 O44_5 1_555 1_555
O10_4 Zr14_5 1_555 1_555
O16_5 Zr14_5 1_555 1_555
O34_5 C33_5 1_555 1_555
Zr14_5 O44_5 1_555 1_555
Zr2_3 O2_8 1_555 1_555
Zr4_3 O8_5 1_555 1_555
O3_3 Zr1_5 1_555 1_555
O4_2 C1_5 1_555 1_555
O5_5 Zr1_5 1_555 1_555
O6_8 Zr1_5 1_555 1_555
O7_2 C1_5 1_555 1_555
O8_5 Zr2_3 1_555 1_555
O9_3 Zr2_3 1_555 1_555
O10_5 Zr1_5 1_555 1_555
O13_5 C10_5 1_555 1_555
O14_5 C16_5 1_555 1_555
N1_5 C8_5 1_555 1_555
C1_5 C3_5 1_555 1_555
C2_5 C4_5 1_555 1_555
O17_5 Zr4_3 1_555 1_555
O18_5 Zr4_3 1_555 1_555
O19_5 C14_5 1_555 1_555
C3_5 C5_5 1_555 1_555
C4_5 C9_5 1_555 1_555
C5_5 H1_5 1_555 1_555
C6_5 C3_5 1_555 1_555
H2_5 C6_5 1_555 1_555
C7_5 C5_5 1_555 1_555
C8_5 C6_5 1_555 1_555
C9_5 H3_5 1_555 1_555
C10_5 N1_5 1_555 1_555
C11_5 C7_5 1_555 1_555
H4_5 C11_5 1_555 1_555
C12_5 C9_5 1_555 1_555
H5_5 C12_5 1_555 1_555
C13_5 C2_5 1_555 1_555
C14_5 N1_5 1_555 1_555
C15_5 O3_3 1_555 1_555
O20_5 Zr4_3 1_555 1_555
C16_5 O5_5 1_555 1_555
H6_5 C16_5 1_555 1_555
O21_3 C32_5 1_555 1_555
O22_2 C18_5 1_555 1_555
O23_2 C18_5 1_555 1_555
O24_5 C27_5 1_555 1_555
N2_5 C25_5 1_555 1_555
C18_5 C20_5 1_555 1_555
C19_5 C2_5 1_555 1_555
O25_5 C32_5 1_555 1_555
O26_5 C31_5 1_555 1_555
C20_5 C22_5 1_555 1_555
C21_5 C19_5 1_555 1_555
C22_5 H8_5 1_555 1_555
C23_5 C20_5 1_555 1_555
H9_5 C23_5 1_555 1_555
C24_5 C22_5 1_555 1_555
C25_5 C23_5 1_555 1_555
C26_5 C21_5 1_555 1_555
H10_5 C26_5 1_555 1_555
C27_5 N2_5 1_555 1_555
C28_5 C24_5 1_555 1_555
H11_5 C28_5 1_555 1_555
C29_5 C13_5 1_555 1_555
H12_5 C29_5 1_555 1_555
C30_5 C12_5 1_555 1_555
C31_5 N2_5 1_555 1_555
C32_5 C24_5 1_555 1_555
Zr5_3 O25_5 1_555 1_555
O27_3 Zr5_3 1_555 1_555
O28_5 Zr5_3 1_555 1_555
O29_5 Zr5_3 1_555 1_555
Zr6_3 O2_8 1_555 1_555
O30_3 Zr1_5 1_555 1_555
O31_5 Zr6_3 1_555 1_555
O32_5 Zr6_3 1_555 1_555
O35_5 Zr2_3 1_555 1_555
O36_3 Zr4_3 1_555 1_555
C34_5 O35_5 1_555 1_555
H14_5 C34_5 1_555 1_555
Zr7_4 O21_3 1_555 1_555
Zr8_3 O27_3 1_555 1_555
Zr9_3 O22_2 1_555 1_555
Zr10_3 O4_2 1_555 1_555
Zr11_3 O27_3 1_555 1_555
Zr12_2 O23_2 1_555 1_555
Zr13_2 O7_2 1_555 1_555
O37_3 Zr5_3 1_555 1_555
O40_5 Zr2_3 1_555 1_555
O42_5 Zr6_3 1_555 1_555
O43_4 Zr5_3 1_555 1_555
O45_4 Zr5_3 1_555 1_555
O46_3 Zr5_3 1_555 1_555
Zr4_3 O9_3 1_555 1_555
Zr4_3 O10_5 1_555 1_555
Zr4_3 O30_3 1_555 1_555
O6_8 Zr6_3 1_555 1_555
O9_3 Zr6_3 1_555 1_555
O14_5 Zr6_3 1_555 1_555
O18_5 C15_5 1_555 1_555
C4_5 C14_5 1_555 1_555
C7_5 C15_5 1_555 1_555
C8_5 C11_5 1_555 1_555
C10_5 C13_5 1_555 1_555
C19_5 C30_5 1_555 1_555
C21_5 C31_5 1_555 1_555
C25_5 C28_5 1_555 1_555
C26_5 C29_5 1_555 1_555
C27_5 C30_5 1_555 1_555
Zr6_3 O30_3 1_555 1_555
O36_3 C34_5 1_555 1_555
Zr7_4 O37_3 1_555 1_555
Zr7_4 O45_4 1_555 1_555
Zr8_3 O43_4 1_555 1_555
Zr11_3 O37_3 1_555 1_555
Zr7_4 O1_6 1_555 1_555
Zr8_3 O2_9 1_555 1_555
Zr3_4 O1_6 1_555 1_555
O1_6 Zr14_6 1_555 1_555
O2_9 Zr3_4 1_555 1_555
O5_6 Zr7_4 1_555 1_555
O6_9 Zr7_4 1_555 1_555
O11_6 Zr8_3 1_555 1_555
O12_6 Zr3_4 1_555 1_555
O14_6 C16_6 1_555 1_555
O15_6 Zr3_4 1_555 1_555
O16_6 C17_6 1_555 1_555
C16_6 O5_6 1_555 1_555
H6_6 C16_6 1_555 1_555
C17_6 O11_6 1_555 1_555
H7_6 C17_6 1_555 1_555
Zr11_3 O2_9 1_555 1_555
O31_6 Zr11_3 1_555 1_555
O32_6 Zr11_3 1_555 1_555
O33_6 Zr7_4 1_555 1_555
O34_6 Zr3_4 1_555 1_555
C33_6 O33_6 1_555 1_555
H13_6 C33_6 1_555 1_555
O35_6 Zr8_3 1_555 1_555
C34_6 O35_6 1_555 1_555
H14_6 C34_6 1_555 1_555
Zr14_6 O43_4 1_555 1_555
O38_6 Zr7_4 1_555 1_555
O39_4 Zr8_3 1_555 1_555
O40_6 Zr8_3 1_555 1_555
O41_4 Zr3_4 1_555 1_555
O42_6 Zr11_3 1_555 1_555
O44_6 Zr8_3 1_555 1_555
Zr3_4 O6_9 1_555 1_555
Zr3_4 O44_6 1_555 1_555
O6_9 Zr11_3 1_555 1_555
O45_4 Zr14_6 1_555 1_555
O14_6 Zr11_3 1_555 1_555
O16_6 Zr14_6 1_555 1_555
O34_6 C33_6 1_555 1_555
O46_3 C34_6 1_555 1_555
Zr14_6 O44_6 1_555 1_555
Zr1_6 O1_7 1_555 1_555
Zr9_3 O2_10 1_555 1_555
Zr12_2 O1_7 1_555 1_555
Zr4_4 O8_6 1_555 1_555
O1_7 Zr14_7 1_555 1_555
O2_10 Zr12_2 1_555 1_555
O3_4 Zr1_6 1_555 1_555
O5_7 Zr1_6 1_555 1_555
O6_10 Zr1_6 1_555 1_555
O8_6 Zr9_3 1_555 1_555
O9_4 Zr9_3 1_555 1_555
O10_6 Zr1_6 1_555 1_555
O11_7 Zr9_3 1_555 1_555
O12_7 Zr12_2 1_555 1_555
O14_7 C16_7 1_555 1_555
O15_7 Zr12_2 1_555 1_555
O16_7 C17_7 1_555 1_555
O17_6 Zr4_4 1_555 1_555
O18_6 Zr4_4 1_555 1_555
C15_6 O3_4 1_555 1_555
O20_6 Zr4_4 1_555 1_555
C16_7 O5_7 1_555 1_555
H6_7 C16_7 1_555 1_555
C17_7 O11_7 1_555 1_555
H7_7 C17_7 1_555 1_555
Zr6_4 O2_10 1_555 1_555
O30_4 Zr1_6 1_555 1_555
O31_7 Zr6_4 1_555 1_555
O32_7 Zr6_4 1_555 1_555
O33_7 Zr1_6 1_555 1_555
O34_7 Zr12_2 1_555 1_555
C33_7 O33_7 1_555 1_555
H13_7 C33_7 1_555 1_555
O35_7 Zr9_3 1_555 1_555
O36_4 Zr4_4 1_555 1_555
C34_7 O35_7 1_555 1_555
H14_7 C34_7 1_555 1_555
Zr14_7 O8_6 1_555 1_555
O38_7 Zr1_6 1_555 1_555
O40_7 Zr9_3 1_555 1_555
O42_7 Zr6_4 1_555 1_555
O44_7 Zr9_3 1_555 1_555
Zr12_2 O6_10 1_555 1_555
Zr12_2 O44_7 1_555 1_555
Zr4_4 O9_4 1_555 1_555
Zr4_4 O10_6 1_555 1_555
Zr4_4 O30_4 1_555 1_555
O6_10 Zr6_4 1_555 1_555
O9_4 Zr6_4 1_555 1_555
O10_6 Zr14_7 1_555 1_555
O14_7 Zr6_4 1_555 1_555
O16_7 Zr14_7 1_555 1_555
O18_6 C15_6 1_555 1_555
Zr6_4 O30_4 1_555 1_555
O34_7 C33_7 1_555 1_555
O36_4 C34_7 1_555 1_555
Zr14_7 O44_7 1_555 1_555
O39_4 C1_6 1_555 1_555
O41_4 C1_6 1_555 1_555
O13_6 C10_6 1_555 1_555
N1_6 C8_6 1_555 1_555
C1_6 C3_6 1_555 1_555
O19_6 C14_6 1_555 1_555
C3_6 C5_6 1_555 1_555
C5_6 H1_6 1_555 1_555
C6_6 C3_6 1_555 1_555
H2_6 C6_6 1_555 1_555
C7_6 C5_6 1_555 1_555
C8_6 C6_6 1_555 1_555
C10_6 N1_6 1_555 1_555
C11_6 C7_6 1_555 1_555
C13_6 C2_6 1_555 1_555
C14_6 N1_6 1_555 1_555
C26_6 C21_6 1_555 1_555
H10_6 C26_6 1_555 1_555
C29_6 C13_6 1_555 1_555
H12_6 C29_6 1_555 1_555
C8_6 C11_6 1_555 1_555
C10_6 C13_6 1_555 1_555
C26_6 C29_6 1_555 1_555
O21_4 C32_6 1_555 1_555
O25_6 C32_6 1_555 1_555
Zr5_4 O25_6 1_555 1_555
O27_4 Zr5_4 1_555 1_555
O28_6 Zr5_4 1_555 1_555
O29_6 Zr5_4 1_555 1_555
Zr7_5 O21_4 1_555 1_555
Zr10_2 O27_4 1_555 1_555
Zr11_4 O27_4 1_555 1_555
O37_4 Zr5_4 1_555 1_555
O43_5 Zr5_4 1_555 1_555
O45_5 Zr5_4 1_555 1_555
O46_4 Zr5_4 1_555 1_555
Zr7_5 O37_4 1_555 1_555
Zr7_5 O45_5 1_555 1_555
Zr10_2 O43_5 1_555 1_555
Zr11_4 O37_4 1_555 1_555
Zr7_6 O45_6 1_555 1_555
Zr10_3 O43_6 1_555 1_555
C4_6 C9_6 1_555 1_555
C9_6 H3_6 1_555 1_555
C12_6 C9_6 1_555 1_555
H5_6 C12_6 1_555 1_555
O39_3 C18_6 1_555 1_555
O41_3 C18_6 1_555 1_555
O24_6 C27_6 1_555 1_555
N2_6 C25_6 1_555 1_555
C18_6 C20_6 1_555 1_555
O26_6 C31_6 1_555 1_555
C20_6 C22_6 1_555 1_555
C22_6 H8_6 1_555 1_555
C23_6 C20_6 1_555 1_555
H9_6 C23_6 1_555 1_555
C24_6 C22_6 1_555 1_555
C25_6 C23_6 1_555 1_555
C27_6 N2_6 1_555 1_555
C28_6 C24_6 1_555 1_555
C30_6 C12_6 1_555 1_555
C31_6 N2_6 1_555 1_555
C19_6 C30_6 1_555 1_555
C25_6 C28_6 1_555 1_555
C27_6 C30_6 1_555 1_555
Zr10_2 O2_11 1_555 1_555
O5_8 Zr7_5 1_555 1_555
O6_11 Zr7_5 1_555 1_555
O14_8 C16_8 1_555 1_555
C16_8 O5_8 1_555 1_555
H6_8 C16_8 1_555 1_555
Zr11_4 O2_11 1_555 1_555
O31_8 Zr11_4 1_555 1_555
O32_8 Zr11_4 1_555 1_555
O35_8 Zr10_2 1_555 1_555
C34_8 O35_8 1_555 1_555
H14_8 C34_8 1_555 1_555
O40_8 Zr10_2 1_555 1_555
O42_8 Zr11_4 1_555 1_555
O6_11 Zr11_4 1_555 1_555
O14_8 Zr11_4 1_555 1_555
O46_4 C34_8 1_555 1_555
Zr7_6 O1_8 1_555 1_555
Zr10_3 O2_12 1_555 1_555
Zr13_2 O1_8 1_555 1_555
O1_8 Zr14_8 1_555 1_555
O2_12 Zr13_2 1_555 1_555
O6_12 Zr7_6 1_555 1_555
O11_8 Zr10_3 1_555 1_555
O12_8 Zr13_2 1_555 1_555
O15_8 Zr13_2 1_555 1_555
O16_8 C17_8 1_555 1_555
C17_8 O11_8 1_555 1_555
H7_8 C17_8 1_555 1_555
O33_8 Zr7_6 1_555 1_555
O34_8 Zr13_2 1_555 1_555
C33_8 O33_8 1_555 1_555
H13_8 C33_8 1_555 1_555
Zr14_8 O43_6 1_555 1_555
O38_8 Zr7_6 1_555 1_555
O44_8 Zr10_3 1_555 1_555
Zr13_2 O6_12 1_555 1_555
Zr13_2 O44_8 1_555 1_555
O45_6 Zr14_8 1_555 1_555
O16_8 Zr14_8 1_555 1_555
O34_8 C33_8 1_555 1_555
Zr14_8 O44_8 1_555 1_555
O40_7 C1_7 1_555 1_555
O42_7 C1_7 1_555 1_555
O13_7 C10_7 1_555 1_555
N1_7 C8_7 1_555 1_555
C1_7 C3_7 1_555 1_555
C2_7 C4_7 1_555 1_555
O17_7 Zr14_6 1_555 1_555
O18_7 Zr14_6 1_555 1_555
O19_7 C14_7 1_555 1_555
C3_7 C5_7 1_555 1_555
C4_7 C9_7 1_555 1_555
C5_7 H1_7 1_555 1_555
C6_7 C3_7 1_555 1_555
H2_7 C6_7 1_555 1_555
C7_7 C5_7 1_555 1_555
C8_7 C6_7 1_555 1_555
C9_7 H3_7 1_555 1_555
C10_7 N1_7 1_555 1_555
C11_7 C7_7 1_555 1_555
H4_7 C11_7 1_555 1_555
C12_7 C9_7 1_555 1_555
H5_7 C12_7 1_555 1_555
C13_7 C2_7 1_555 1_555
C14_7 N1_7 1_555 1_555
C15_7 O38_6 1_555 1_555
O20_7 Zr14_6 1_555 1_555
O38_5 C32_7 1_555 1_555
O40_8 C18_7 1_555 1_555
O42_8 C18_7 1_555 1_555
O24_7 C27_7 1_555 1_555
N2_7 C25_7 1_555 1_555
C18_7 C20_7 1_555 1_555
C19_7 C2_7 1_555 1_555
O25_7 C32_7 1_555 1_555
O26_7 C31_7 1_555 1_555
C20_7 C22_7 1_555 1_555
C21_7 C19_7 1_555 1_555
C22_7 H8_7 1_555 1_555
C23_7 C20_7 1_555 1_555
H9_7 C23_7 1_555 1_555
C24_7 C22_7 1_555 1_555
C25_7 C23_7 1_555 1_555
C26_7 C21_7 1_555 1_555
H10_7 C26_7 1_555 1_555
C27_7 N2_7 1_555 1_555
C28_7 C24_7 1_555 1_555
H11_7 C28_7 1_555 1_555
C29_7 C13_7 1_555 1_555
H12_7 C29_7 1_555 1_555
C30_7 C12_7 1_555 1_555
C31_7 N2_7 1_555 1_555
C32_7 C24_7 1_555 1_555
Zr14_5 O25_7 1_555 1_555
O28_7 Zr14_5 1_555 1_555
O29_7 Zr14_5 1_555 1_555
O18_7 C15_7 1_555 1_555
C4_7 C14_7 1_555 1_555
C7_7 C15_7 1_555 1_555
C8_7 C11_7 1_555 1_555
C10_7 C13_7 1_555 1_555
C19_7 C30_7 1_555 1_555
C21_7 C31_7 1_555 1_555
C25_7 C28_7 1_555 1_555
C26_7 C29_7 1_555 1_555
C27_7 C30_7 1_555 1_555
O38_7 C32_8 1_555 1_555
O25_8 C32_8 1_555 1_555
Zr14_7 O25_8 1_555 1_555
O28_8 Zr14_7 1_555 1_555
O29_8 Zr14_7 1_555 1_555
C4_8 C9_8 1_555 1_555
C9_8 H3_8 1_555 1_555
C12_8 C9_8 1_555 1_555
H5_8 C12_8 1_555 1_555
O40_6 C18_8 1_555 1_555
O42_6 C18_8 1_555 1_555
O24_8 C27_8 1_555 1_555
N2_8 C25_8 1_555 1_555
C18_8 C20_8 1_555 1_555
O26_8 C31_8 1_555 1_555
C20_8 C22_8 1_555 1_555
C22_8 H8_8 1_555 1_555
C23_8 C20_8 1_555 1_555
H9_8 C23_8 1_555 1_555
C24_8 C22_8 1_555 1_555
C25_8 C23_8 1_555 1_555
C27_8 N2_8 1_555 1_555
C28_8 C24_8 1_555 1_555
C30_8 C12_8 1_555 1_555
C31_8 N2_8 1_555 1_555
C19_8 C30_8 1_555 1_555
C25_8 C28_8 1_555 1_555
C27_8 C30_8 1_555 1_555
O17_8 Zr14_8 1_555 1_555
O18_8 Zr14_8 1_555 1_555
C15_8 O38_8 1_555 1_555
O20_8 Zr14_8 1_555 1_555
O18_8 C15_8 1_555 1_555
O40_5 C1_8 1_555 1_555
O42_5 C1_8 1_555 1_555
O13_8 C10_8 1_555 1_555
N1_8 C8_8 1_555 1_555
C1_8 C3_8 1_555 1_555
O19_8 C14_8 1_555 1_555
C3_8 C5_8 1_555 1_555
C5_8 H1_8 1_555 1_555
C6_8 C3_8 1_555 1_555
H2_8 C6_8 1_555 1_555
C7_8 C5_8 1_555 1_555
C8_8 C6_8 1_555 1_555
C10_8 N1_8 1_555 1_555
C11_8 C7_8 1_555 1_555
C13_8 C2_8 1_555 1_555
C14_8 N1_8 1_555 1_555
C26_8 C21_8 1_555 1_555
H10_8 C26_8 1_555 1_555
C29_8 C13_8 1_555 1_555
H12_8 C29_8 1_555 1_555
C8_8 C11_8 1_555 1_555
C10_8 C13_8 1_555 1_555
C26_8 C29_8 1_555 1_555

#END
