
###############################################################################
#
# This file contains modified crystal structure data generated from the
# MOF subset of the Cambridge Structural Database (CSD) v543 
# hosted by the Cambridge Crystallographic Data Centre (CCDC).
#
# This work is licensed under the Creative Commons
# Attribution-NonCommercial-ShareAlike 4.0 International License.
# To view a copy of this license, visit
# http://creativecommons.org/licenses/by-nc-sa/4.0/
# or send a letter to
# Creative Commons, PO Box 1866, Mountain View, CA 94042, USA.
#
# CIF created using the CSD Python API on 29 September 2022
# The structure has been converted into the P1 space group
# The structure has a 3D framework
# The original CSD entry IYAHEX is in the triclinic crystal system
# The framework has been calculated to contain at least 10.0% void space
# The void calculation uses a probe of radius 1.32A, grid spacing 0.4
# H atom positions have been added when not included in the experimental data
#
###############################################################################

data_IYAHEX
_chemical_formula_moiety         '(C68 H54 O54 Pr6)n'
_symmetry_cell_setting           triclinic
_symmetry_space_group_name_H-M   'P 1'
_symmetry_Int_Tables_number      1
_space_group_name_Hall           'P 1'
loop_
_symmetry_equiv_pos_site_id
_symmetry_equiv_pos_as_xyz
1 x,y,z
_cell_length_a                   9.417(5)
_cell_length_b                   15.289(7)
_cell_length_c                   16.750(6)
_cell_angle_alpha                68.978(16)
_cell_angle_beta                 79.291(16)
_cell_angle_gamma                89.359(19)
_cell_volume                     2207.84
loop_
_atom_site_label
_atom_site_type_symbol
_atom_site_fract_x
_atom_site_fract_y
_atom_site_fract_z
O13 O 0.2458(8) 0.2788(5) 0.2077(4)
O14 O 0.2478(8) 0.3641(5) 0.0712(4)
O15 O 0.0320(8) 0.6753(5) 0.0873(5)
O17 O 0.0137(9) 0.1098(6) 0.0445(5)
C21 C 0.0482(10) 0.3766(7) 0.1754(6)
C22 C 0.0537(10) 0.4734(7) 0.1498(6)
H7 H 0.1363 0.5081 0.1129
C25 C 0.1869(10) 0.3359(7) 0.1502(7)
Pr5 Pr 0.08383(5) 0.17215(3) 0.89228(3)
Pr11 Pr 0.50094(5) 0.32236(3) 0.10905(3)
H13 H 0.222073 0.236376 0.0137648
H15 H 0.244376 0.0183505 0.00843023
Pr2 Pr 0.38327(6) 0.23849(4) 0.47817(3)
O1 O 0.2506(8) 0.1956(5) 0.7532(5)
O2 O 0.3925(9) 0.2353(6) 0.6236(5)
O3 O 0.8913(8) 0.2139(6) 0.7967(5)
O4 O 0.8051(8) 0.1288(5) 0.9353(5)
O7 O 0.6723(11) 0.4705(7) 0.5050(6)
H1 H 0.7036 0.5111 0.4572
O8 O 0.6330(10) 0.5935(6) 0.5440(5)
O9 O 0.5730(9) 0.5383(6) 0.8618(5)
O10 O 0.5167(9) 0.3928(6) 0.9569(5)
O11 O 0.5991(8) 0.3165(6) 0.3671(5)
O12 O 0.5839(7) 0.3014(5) 0.2427(4)
O16 O 0.8496(8) 0.6584(5) 0.1950(5)
O20 O 0.7347(10) 0.0194(6) 0.4955(5)
O21 O 0.2716(9) 0.0514(6) 0.9443(5)
O22 O 0.2671(9) 0.2386(6) 0.9545(6)
O23 O 0.6032(12) 0.1561(8) 0.5312(6)
O24 O 0.4435(11) 0.1357(7) 0.3910(6)
O25 O 0.2270(12) 0.2894(8) 0.3683(7)
O26 O 0.1374(12) 0.2668(8) 0.5421(6)
O27 O 0.7245(9) 0.2584(6) 0.0413(5)
O28 O 0.7260(9) 0.4437(6) 0.0516(5)
C1 C 0.3654(10) 0.1934(7) 0.7045(6)
C2 C 0.4816(10) 0.1374(7) 0.7499(6)
C3 C 0.5833(10) 0.1793(6) 0.7783(6)
C4 C 0.6748(10) 0.1198(7) 0.8293(6)
C5 C 0.6610(10) 0.0238(7) 0.8513(6)
C7 C 0.4754(10) 0.0416(7) 0.7674(6)
H3 H 0.4111 0.0161 0.7444
C8 C 0.7945(11) 0.1583(7) 0.8550(6)
C10 C 0.5903(11) 0.2820(7) 0.7587(6)
C11 C 0.6125(14) 0.3463(8) 0.6722(7)
H4 H 0.6255 0.3242 0.6265
C12 C 0.6153(13) 0.4410(8) 0.6544(6)
C13 C 0.5966(11) 0.4751(7) 0.7221(6)
H5 H 0.5978 0.5396 0.7094
C14 C 0.5763(10) 0.4145(7) 0.8080(6)
C15 C 0.5737(10) 0.3186(7) 0.8259(6)
H6 H 0.5607 0.2775 0.8836
C16 C 0.6395(13) 0.5097(8) 0.5635(7)
C17 C 0.5546(10) 0.4503(7) 0.8808(6)
C18 C 0.6490(10) 0.3248(7) 0.2912(6)
C19 C 0.8012(9) 0.3699(6) 0.2500(6)
C20 C 0.9186(11) 0.3220(7) 0.2241(6)
C23 C 0.9387(10) 0.5204(6) 0.1779(6)
C24 C 0.8122(10) 0.4664(7) 0.2291(6)
H8 H 0.7343 0.4957 0.2493
C26 C 0.9428(11) 0.6246(6) 0.1512(6)
C27 C 0.9053(10) 0.2192(6) 0.2435(6)
C28 C 0.9470(10) 0.1850(7) 0.1772(6)
H9 H 0.9863 0.2265 0.1214
C29 C 0.9311(10) 0.0885(7) 0.1928(6)
C30 C 0.8691(11) 0.0292(7) 0.2760(6)
C31 C 0.8257(11) 0.0618(8) 0.3417(7)
C32 C 0.8459(10) 0.1572(7) 0.3262(6)
H11 H 0.8193 0.1792 0.3716
C33 C 0.9719(10) 0.0505(7) 0.1213(6)
Pr7 Pr 0.91617(5) 0.82785(3) 0.10772(3)
Pr9 Pr 0.61673(6) 0.76151(4) 0.52183(3)
Pr13 Pr 0.49906(5) 0.67764(3) 0.89095(3)
O31 O 0.5079(8) 0.1514(5) 0.2043(5)
O32 O 0.4102(9) 0.1734(5) 0.0907(5)
O33 O 0.3670(10) 0.4065(6) 0.4560(5)
O34 O 0.4270(9) 0.4617(6) 0.1382(5)
O39 O 0.1504(8) 0.3416(5) 0.8050(5)
O41 O 0.0359(9) 0.0345(6) 0.8591(5)
O42 O 0.2648(12) 0.0912(7) 0.5610(6)
H12 H 0.296805 0.304643 0.915965
H14 H 0.368702 0.0842197 0.92947
H16 H 0.570727 0.100887 0.585562
H17 H 0.659237 0.134997 0.485719
H18 H 0.216321 0.358048 0.351053
H19 H 0.27167 0.274957 0.316233
H20 H 0.140875 0.324374 0.55629
H21 H 0.0728899 0.275081 0.499605
H22 H 0.385476 0.075028 0.420836
H23 H 0.420789 0.167199 0.332106
H24 H 0.734224 0.192579 0.0792757
H26 H 0.814402 0.410211 0.0654552
H25 H 0.714013 0.260323 0.982799
H27 H 0.737771 0.475976 0.987479
O5 O 0.4921(8) 0.8486(5) 0.7957(5)
O6 O 0.5898(9) 0.8266(5) 0.9093(5)
O18 O 0.9641(9) 0.9655(6) 0.1409(5)
O19 O 0.7352(12) 0.9088(7) 0.4390(6)
H2 H 0.7173 0.9855 0.8884
C6 C 0.5643(10) 0.9829(7) 0.8189(6)
C9 C 0.5514(10) 0.8790(7) 0.8432(6)
H10 H 0.8567 0.9653 0.2873
C34 C 0.7604(14) 0.9917(8) 0.4333(7)
O38 O 0.9680(8) 0.3247(5) 0.9127(5)
O29 O 0.1087(8) 0.7861(6) 0.2033(5)
O30 O 0.1949(8) 0.8712(5) 0.0647(5)
H2_2 H 0.2827 0.0145 0.1116
C6_2 C 0.4357(10) 0.0171(7) 0.1811(6)
C9_2 C 0.4486(10) 0.1210(7) 0.1568(6)
H10_2 H 0.1433 0.0347 0.7127
C34_2 C 0.2396(14) 0.0083(8) 0.5667(7)
O35 O 0.4833(9) 0.6072(6) 0.0431(5)
H25_2 H 0.285987 0.739677 0.0172013
H27_2 H 0.262229 0.524024 0.0125206
O1_2 O 0.7494(8) 0.8044(5) 0.2468(5)
O2_2 O 0.6075(9) 0.7647(6) 0.3764(5)
O7_2 O 0.3277(11) 0.5295(7) 0.4950(6)
H1_2 H 0.2964 0.4889 0.5428
O11_2 O 0.4009(8) 0.6835(6) 0.6329(5)
O12_2 O 0.4161(7) 0.6986(5) 0.7573(4)
O20_2 O 0.2653(10) 0.9806(6) 0.5045(5)
O21_2 O 0.7284(9) 0.9486(6) 0.0557(5)
O22_2 O 0.7329(9) 0.7614(6) 0.0455(6)
O23_2 O 0.3968(12) 0.8439(8) 0.4688(6)
O24_2 O 0.5565(11) 0.8643(7) 0.6090(6)
O25_2 O 0.7730(12) 0.7106(8) 0.6317(7)
O26_2 O 0.8626(12) 0.7332(8) 0.4579(6)
O27_2 O 0.2755(9) 0.7416(6) 0.9587(5)
O28_2 O 0.2740(9) 0.5563(6) 0.9484(5)
C1_2 C 0.6346(10) 0.8066(7) 0.2955(6)
C2_2 C 0.5184(10) 0.8626(7) 0.2501(6)
C3_2 C 0.4167(10) 0.8207(6) 0.2217(6)
C4_2 C 0.3252(10) 0.8802(7) 0.1707(6)
C5_2 C 0.3390(10) 0.9762(7) 0.1487(6)
C7_2 C 0.5246(10) 0.9584(7) 0.2326(6)
H3_2 H 0.5889 0.9839 0.2556
C8_2 C 0.2055(11) 0.8417(7) 0.1450(6)
C10_2 C 0.4097(11) 0.7180(7) 0.2413(6)
C11_2 C 0.3875(14) 0.6537(8) 0.3278(7)
H4_2 H 0.3745 0.6758 0.3735
C12_2 C 0.3847(13) 0.5590(8) 0.3456(6)
C13_2 C 0.4034(11) 0.5249(7) 0.2779(6)
H5_2 H 0.4022 0.4604 0.2906
C14_2 C 0.4237(10) 0.5855(7) 0.1920(6)
C15_2 C 0.4263(10) 0.6814(7) 0.1741(6)
H6_2 H 0.4393 0.7225 0.1164
C16_2 C 0.3605(13) 0.4903(8) 0.4365(7)
C17_2 C 0.4454(10) 0.5497(7) 0.1192(6)
C18_2 C 0.3510(10) 0.6752(7) 0.7088(6)
C19_2 C 0.1988(9) 0.6301(6) 0.7500(6)
C20_2 C 0.0814(11) 0.6780(7) 0.7759(6)
C23_2 C 0.0613(10) 0.4796(6) 0.8221(6)
C24_2 C 0.1878(10) 0.5336(7) 0.7709(6)
H8_2 H 0.2657 0.5043 0.7507
C26_2 C 0.0572(11) 0.3754(6) 0.8488(6)
C27_2 C 0.0947(10) 0.7808(6) 0.7565(6)
C28_2 C 0.0530(10) 0.8150(7) 0.8228(6)
H9_2 H 0.0137 0.7735 0.8786
C29_2 C 0.0689(10) 0.9115(7) 0.8072(6)
C30_2 C 0.1309(11) 0.9708(7) 0.7240(6)
C31_2 C 0.1743(11) 0.9382(8) 0.6583(7)
C32_2 C 0.1541(10) 0.8428(7) 0.6738(6)
H11_2 H 0.1807 0.8208 0.6284
C33_2 C 0.0281(10) 0.9495(7) 0.8787(6)
O36 O 0.7542(8) 0.7212(5) 0.7923(4)
O37 O 0.7522(8) 0.6359(5) 0.9288(4)
H12_2 H 0.703195 0.695357 0.0840347
H14_2 H 0.631298 0.91578 0.0705304
H16_2 H 0.429273 0.899113 0.414438
H17_2 H 0.340763 0.865003 0.514281
H18_2 H 0.783679 0.641952 0.648947
H19_2 H 0.72833 0.725043 0.683767
H20_2 H 0.859125 0.675626 0.44371
H21_2 H 0.92711 0.724919 0.500395
H22_2 H 0.614524 0.924972 0.579164
H23_2 H 0.579211 0.832801 0.667894
H24_2 H 0.265776 0.807421 0.920724
H26_2 H 0.185598 0.589789 0.934545
O40 O 0.9863(9) 0.8902(6) 0.9555(5)
H13_2 H 0.777927 0.763624 0.986235
H15_2 H 0.755624 0.981649 0.99157
C21_2 C 0.9518(10) 0.6234(7) 0.8246(6)
C22_2 C 0.9463(10) 0.5266(7) 0.8502(6)
H7_2 H 0.8637 0.4919 0.8871
C25_2 C 0.8131(10) 0.6641(7) 0.8498(7)
loop_
_geom_bond_atom_site_label_1
_geom_bond_atom_site_label_2
_geom_bond_site_symmetry_1
_geom_bond_site_symmetry_2
O13 C25 1_555 1_555
O14 C25 1_555 1_555
C22 C21 1_555 1_555
H7 C22 1_555 1_555
C25 C21 1_555 1_555
Pr11 O13 1_555 1_555
O14 Pr11 1_555 1_555
Pr5 O1 1_555 1_555
Pr2 O2 1_555 1_555
Pr11 O12 1_555 1_555
O1 C1 1_555 1_555
O2 C1 1_555 1_555
O3 C8 1_555 1_555
O4 C8 1_555 1_555
O7 H1 1_555 1_555
O8 C16 1_555 1_555
O9 C17 1_555 1_555
O10 C17 1_555 1_555
O11 Pr2 1_555 1_555
O12 C18 1_555 1_555
O16 C26 1_555 1_555
O21 Pr5 1_555 1_555
O22 Pr5 1_555 1_555
O23 Pr2 1_555 1_555
O24 Pr2 1_555 1_555
O25 Pr2 1_555 1_555
O26 Pr2 1_555 1_555
O27 Pr11 1_555 1_555
O28 Pr11 1_555 1_555
C1 C2 1_555 1_555
C2 C3 1_555 1_555
C3 C4 1_555 1_555
C4 C5 1_555 1_555
C7 C2 1_555 1_555
H3 C7 1_555 1_555
C8 C4 1_555 1_555
C10 C3 1_555 1_555
C11 C10 1_555 1_555
H4 C11 1_555 1_555
C12 C11 1_555 1_555
C13 C12 1_555 1_555
H5 C13 1_555 1_555
C14 C13 1_555 1_555
C15 C10 1_555 1_555
H6 C15 1_555 1_555
C16 O7 1_555 1_555
C17 C14 1_555 1_555
C18 O11 1_555 1_555
C19 C18 1_555 1_555
C20 C19 1_555 1_555
C24 C19 1_555 1_555
H8 C24 1_555 1_555
C26 C23 1_555 1_555
C27 C20 1_555 1_555
C28 C27 1_555 1_555
H9 C28 1_555 1_555
C29 C28 1_555 1_555
C30 C29 1_555 1_555
C31 C30 1_555 1_555
C32 C27 1_555 1_555
H11 C32 1_555 1_555
C33 C29 1_555 1_555
Pr9 O8 1_555 1_555
Pr13 O9 1_555 1_555
O31 Pr11 1_555 1_555
O32 Pr11 1_555 1_555
O33 Pr2 1_555 1_555
O34 Pr11 1_555 1_555
O39 Pr5 1_555 1_555
O41 Pr5 1_555 1_555
O42 Pr2 1_555 1_555
O16 Pr7 1_555 1_555
C12 C16 1_555 1_555
C14 C15 1_555 1_555
C23 C24 1_555 1_555
C31 C32 1_555 1_555
O22 H12 1_555 1_555
O21 H14 1_555 1_555
O23 H16 1_555 1_555
O23 H17 1_555 1_555
O25 H18 1_555 1_555
O25 H19 1_555 1_555
O26 H20 1_555 1_555
O26 H21 1_555 1_555
O24 H22 1_555 1_555
O24 H23 1_555 1_555
O27 H24 1_555 1_555
O28 H26 1_555 1_555
O5 C9 1_555 1_555
O6 C9 1_555 1_555
O19 C34 1_555 1_555
C9 C6 1_555 1_555
Pr7 O18 1_555 1_555
Pr9 O19 1_555 1_555
Pr13 O5 1_555 1_555
O6 Pr13 1_555 1_555
O31 C9_2 1_555 1_555
O32 C9_2 1_555 1_555
O42 C34_2 1_555 1_555
C9_2 C6_2 1_555 1_555
Pr7 O1_2 1_555 1_555
Pr9 O2_2 1_555 1_555
Pr13 O12_2 1_555 1_555
O1_2 C1_2 1_555 1_555
O2_2 C1_2 1_555 1_555
O29 C8_2 1_555 1_555
O30 C8_2 1_555 1_555
O7_2 H1_2 1_555 1_555
O33 C16_2 1_555 1_555
O34 C17_2 1_555 1_555
O35 C17_2 1_555 1_555
O11_2 Pr9 1_555 1_555
O12_2 C18_2 1_555 1_555
O39 C26_2 1_555 1_555
O21_2 Pr7 1_555 1_555
O22_2 Pr7 1_555 1_555
O23_2 Pr9 1_555 1_555
O24_2 Pr9 1_555 1_555
O25_2 Pr9 1_555 1_555
O26_2 Pr9 1_555 1_555
O27_2 Pr13 1_555 1_555
O28_2 Pr13 1_555 1_555
C1_2 C2_2 1_555 1_555
C2_2 C3_2 1_555 1_555
C3_2 C4_2 1_555 1_555
C4_2 C5_2 1_555 1_555
C7_2 C2_2 1_555 1_555
H3_2 C7_2 1_555 1_555
C8_2 C4_2 1_555 1_555
C10_2 C3_2 1_555 1_555
C11_2 C10_2 1_555 1_555
H4_2 C11_2 1_555 1_555
C12_2 C11_2 1_555 1_555
C13_2 C12_2 1_555 1_555
H5_2 C13_2 1_555 1_555
C14_2 C13_2 1_555 1_555
C15_2 C10_2 1_555 1_555
H6_2 C15_2 1_555 1_555
C16_2 O7_2 1_555 1_555
C17_2 C14_2 1_555 1_555
C18_2 O11_2 1_555 1_555
C19_2 C18_2 1_555 1_555
C20_2 C19_2 1_555 1_555
C24_2 C19_2 1_555 1_555
H8_2 C24_2 1_555 1_555
C26_2 C23_2 1_555 1_555
C27_2 C20_2 1_555 1_555
C28_2 C27_2 1_555 1_555
H9_2 C28_2 1_555 1_555
C29_2 C28_2 1_555 1_555
C30_2 C29_2 1_555 1_555
C31_2 C30_2 1_555 1_555
C32_2 C27_2 1_555 1_555
H11_2 C32_2 1_555 1_555
C33_2 C29_2 1_555 1_555
O36 Pr13 1_555 1_555
O37 Pr13 1_555 1_555
C12_2 C16_2 1_555 1_555
C14_2 C15_2 1_555 1_555
C23_2 C24_2 1_555 1_555
C31_2 C32_2 1_555 1_555
O22_2 H12_2 1_555 1_555
O21_2 H14_2 1_555 1_555
O23_2 H16_2 1_555 1_555
O23_2 H17_2 1_555 1_555
O25_2 H18_2 1_555 1_555
O25_2 H19_2 1_555 1_555
O26_2 H20_2 1_555 1_555
O26_2 H21_2 1_555 1_555
O24_2 H22_2 1_555 1_555
O24_2 H23_2 1_555 1_555
O27_2 H24_2 1_555 1_555
O28_2 H26_2 1_555 1_555
O36 C25_2 1_555 1_555
O37 C25_2 1_555 1_555
C22_2 C21_2 1_555 1_555
H7_2 C22_2 1_555 1_555
C25_2 C21_2 1_555 1_555

#END
