
###############################################################################
#
# This file contains modified crystal structure data generated from the
# MOF subset of the Cambridge Structural Database (CSD) v543 
# hosted by the Cambridge Crystallographic Data Centre (CCDC).
#
# This work is licensed under the Creative Commons
# Attribution-NonCommercial-ShareAlike 4.0 International License.
# To view a copy of this license, visit
# http://creativecommons.org/licenses/by-nc-sa/4.0/
# or send a letter to
# Creative Commons, PO Box 1866, Mountain View, CA 94042, USA.
#
# CIF created using the CSD Python API on 29 September 2022
# The structure has been converted into the P1 space group
# The structure has a 3D framework
# The original CSD entry IYAHAR is in the orthorhombic crystal system
# The original CSD entry IYAHAR is in a Sohncke space group
# The framework has been calculated to contain at least 10.0% void space
# The void calculation uses a probe of radius 1.32A, grid spacing 0.4
# The framework is charged, counterions have been retained in the structure
# H atom positions have been added when not included in the experimental data
#
###############################################################################

data_IYAHAR
_chemical_formula_moiety         '(C224 H200 N32 Ni12 O80 S8)n'
_symmetry_cell_setting           triclinic
_symmetry_space_group_name_H-M   'P 1'
_symmetry_Int_Tables_number      1
_space_group_name_Hall           'P 1'
loop_
_symmetry_equiv_pos_site_id
_symmetry_equiv_pos_as_xyz
1 x,y,z
_cell_length_a                   11.300(2)
_cell_length_b                   19.266(4)
_cell_length_c                   30.652(6)
_cell_angle_alpha                90
_cell_angle_beta                 90
_cell_angle_gamma                90
_cell_volume                     6673.12
loop_
_atom_site_label
_atom_site_type_symbol
_atom_site_fract_x
_atom_site_fract_y
_atom_site_fract_z
O10 O 0.0088(8) 0.1160(4) 0.6378(3)
N7 N 0.2198(6) 0.6997(3) 0.4344(2)
C47 C 0.2443(9) 0.6424(4) 0.4582(3)
H31 H 0.3055 0.6441 0.4785
C48 C 0.1829(10) 0.5827(4) 0.4537(3)
H32 H 0.2042 0.5438 0.4699
C49 C 0.0873(7) 0.5791(4) 0.4247(3)
C50 C 0.0231(8) 0.5132(4) 0.4197(3)
C51 C 0.0794(8) 0.4514(4) 0.4240(4)
H33 H 0.1612 0.4504 0.4274
C52 C 0.0167(8) 0.3901(4) 0.4233(3)
H34 H 0.0577 0.3487 0.4273
C55 C 0.0614(8) 0.6379(4) 0.4007(3)
C56 C 0.1268(7) 0.6971(4) 0.4068(3)
H38 H 0.1062 0.7369 0.3914
N9 N 0.0842(5) 0.4291(3) 0.7704(2)
Ni7 Ni 0.32734(8) 0.78751(4) 0.44089(3)
Ni4 Ni 0.67266(8) 0.28751(4) 0.05911(3)
Ni1 Ni 0.81402(9) 0.29132(5) 0.42169(3)
Ni2 Ni 0.89635(8) 0.43183(4) 0.76939(3)
S1 S 0.8847(2) 0.12736(11) 0.62974(7)
S2 S 0.6298(2) 0.10512(11) 0.81891(7)
O1 O 0.8397(6) 0.2867(3) 0.48825(16)
O2 O 0.7479(8) 0.3816(4) 0.51130(19)
O3 O 0.8951(5) 0.3711(3) 0.71300(15)
O4 O 0.8275(8) 0.4505(3) 0.6661(2)
O5 O 0.8817(5) 0.3421(3) 0.80682(16)
O6 O 0.9088(8) 0.3753(5) 0.8758(2)
O7 O 0.6743(5) 0.2787(3) 0.99273(16)
O8 O 0.5255(6) 0.2067(4) 0.97784(17)
O9 O 0.8538(11) 0.0894(4) 0.5907(3)
O11 O 0.8163(12) 0.1165(4) 0.6672(4)
O12 O 0.5918(9) 0.1335(4) 0.7785(2)
O13 O 0.7338(10) 0.0660(5) 0.8147(4)
O14 O 0.5372(10) 0.0700(5) 0.8414(3)
O15 O 0.6515(6) 0.3399(3) 0.43332(19)
O16 O 0.9762(6) 0.2398(3) 0.4163(2)
O17 O 0.8929(6) 0.5236(3) 0.7349(2)
O18 O 0.8866(6) 0.4931(3) 0.8279(2)
N1 N 0.7319(7) 0.1944(3) 0.4260(2)
N3 N 0.7846(6) 0.2941(3) 0.35456(19)
N4 N 0.6825(7) 0.2995(3) 0.1264(2)
N5 N 0.7093(5) 0.4323(4) 0.7696(2)
N8 N 0.8997(6) 0.3874(3) 0.4173(2)
C1 C 0.8682(7) 0.2168(4) 0.6168(3)
C2 C 0.8476(8) 0.2367(4) 0.5740(3)
H1 H 0.8478 0.2036 0.5519
C3 C 0.8267(8) 0.3060(4) 0.5641(2)
C4 C 0.8315(8) 0.3553(4) 0.5978(2)
H2 H 0.8200 0.4020 0.5915
C5 C 0.8533(7) 0.3348(4) 0.6408(2)
C6 C 0.8740(7) 0.2657(4) 0.6497(2)
H3 H 0.8919 0.2519 0.6780
C7 C 0.8030(8) 0.3266(4) 0.5174(2)
C8 C 0.8592(7) 0.3900(4) 0.6757(2)
C9 C 0.6692(7) 0.1777(4) 0.8518(2)
C10 C 0.7466(7) 0.2277(4) 0.8358(2)
H4 H 0.7742 0.2249 0.8073
C11 C 0.7822(7) 0.2817(4) 0.8625(2)
C12 C 0.7396(7) 0.2839(4) 0.9056(2)
H5 H 0.7660 0.3190 0.9240
C13 C 0.6600(7) 0.2358(4) 0.9216(2)
C14 C 0.6241(8) 0.1816(4) 0.8942(2)
H6 H 0.5708 0.1484 0.9042
C15 C 0.8633(7) 0.3380(4) 0.8472(2)
C16 C 0.6155(7) 0.2416(4) 0.9672(2)
C17 C 0.7571(9) 0.1422(5) 0.3990(3)
H7 H 0.8124 0.1500 0.3770
C18 C 0.7061(9) 0.0775(4) 0.4017(3)
H8 H 0.7275 0.0425 0.3824
C19 C 0.6224(8) 0.0657(4) 0.4338(3)
H12 H 0.4406 0.0269 0.4838
C25 C 0.5947(9) 0.1203(4) 0.4622(3)
H13 H 0.5381 0.1148 0.4839
C26 C 0.6546(8) 0.1833(4) 0.4569(3)
H14 H 0.6385 0.2191 0.4764
C27 C 0.8669(7) 0.3162(4) 0.3259(2)
H15 H 0.9406 0.3291 0.3367
C28 C 0.8484(8) 0.3209(5) 0.2816(3)
H16 H 0.9081 0.3370 0.2634
C29 C 0.7391(7) 0.3010(4) 0.2644(2)
C30 C 0.7171(8) 0.3021(5) 0.2167(3)
C31 C 0.6422(9) 0.2541(6) 0.1981(3)
H17 H 0.6011 0.2227 0.2154
C32 C 0.6292(10) 0.2536(5) 0.1532(3)
H18 H 0.5810 0.2198 0.1408
C33 C 0.7503(10) 0.3474(5) 0.1456(3)
H19 H 0.7861 0.3805 0.1278
C34 C 0.7709(10) 0.3514(5) 0.1901(3)
H20 H 0.8191 0.3858 0.2018
C35 C 0.6543(8) 0.2771(6) 0.2936(2)
H21 H 0.5804 0.2630 0.2836
C36 C 0.6808(8) 0.2743(5) 0.3382(2)
H22 H 0.6232 0.2579 0.3573
C37 C 0.6471(7) 0.4882(4) 0.7784(4)
H23 H 0.6881 0.5290 0.7843
C38 C 0.5253(8) 0.4904(5) 0.7796(4)
H24 H 0.4859 0.5317 0.7859
C39 C 0.4624(6) 0.4298(4) 0.7714(3)
C40 C 0.3324(7) 0.4299(4) 0.7709(3)
C41 C 0.2658(8) 0.4535(6) 0.8062(4)
H25 H 0.3036 0.4709 0.8308
C42 C 0.1462(8) 0.4513(6) 0.8046(3)
H26 H 0.1046 0.4662 0.8290
C43 C 0.1474(8) 0.4083(6) 0.7360(3)
H27 H 0.1070 0.3943 0.7110
C44 C 0.2678(8) 0.4065(7) 0.7355(3)
H28 H 0.3071 0.3895 0.7111
C45 C 0.5264(8) 0.3720(5) 0.7608(3)
H29 H 0.4873 0.3311 0.7535
C46 C 0.6507(7) 0.3738(4) 0.7608(3)
H30 H 0.6928 0.3335 0.7547
C53 C 0.8439(9) 0.4473(4) 0.4100(3)
H35 H 0.7637 0.4462 0.4031
C54 C 0.9004(8) 0.5111(4) 0.4122(3)
H36 H 0.8576 0.5520 0.4087
H37 H 0.9999 0.6374 0.3806
H39 H 0.971317 0.194317 0.431432
H40 H 0.994973 0.232227 0.385012
H41 H 0.860341 0.463393 0.85254
H42 H 0.965851 0.512716 0.834524
H43 H 0.820286 0.525357 0.716688
H44 H 0.892995 0.563287 0.75557
H49 H 0.664842 0.383824 0.44954
H50 H 0.612251 0.350245 0.405074
O19 O 0.4812(5) 0.7256(3) 0.43755(18)
O20 O 0.1754(5) 0.8496(3) 0.4492(2)
N2 N 0.4361(6) 0.8733(3) 0.4443(2)
C20 C 0.5596(8) 0.9984(4) 0.4378(3)
C21 C 0.5924(9) 0.9413(5) 0.4132(4)
H9 H 0.6562 0.9440 0.3940
C22 C 0.5294(9) 0.8803(4) 0.4174(4)
H10 H 0.5527 0.8422 0.4008
C23 C 0.4076(8) 0.9283(4) 0.4691(3)
H11 H 0.3460 0.9238 0.4891
C24 C 0.4647(9) 0.9900(4) 0.4665(3)
O21 O 0.3257(5) 0.7787(3) 0.50727(16)
N10 N 0.3175(7) 0.7995(3) 0.3736(2)
H45 H 0.469172 0.682554 0.454807
H46 H 0.497413 0.713273 0.406667
H47 H 0.198086 0.894302 0.462988
H48 H 0.138676 0.858739 0.420335
Ni6 Ni 0.10365(8) 0.93183(4) 0.73061(3)
Ni1_2 Ni 0.18598(9) 0.79132(5) 0.07831(3)
O1_2 O 0.1603(6) 0.7867(3) 0.01175(16)
O15_2 O 0.3485(6) 0.8399(3) 0.06668(19)
O16_2 O 0.0238(6) 0.7398(3) 0.0837(2)
O19_2 O 0.5188(5) 0.2256(3) 0.06245(18)
O20_2 O 0.8246(5) 0.3496(3) 0.0508(2)
N1_2 N 0.2681(7) 0.6944(3) 0.0740(2)
N2_2 N 0.5639(6) 0.3733(3) 0.0557(2)
N3_2 N 0.2154(6) 0.7941(3) 0.14544(19)
N8_2 N 0.1003(6) 0.8874(3) 0.0827(2)
C17_2 C 0.2429(9) 0.6422(5) 0.1010(3)
H7_2 H 0.1876 0.6500 0.1230
C18_2 C 0.2939(9) 0.5775(4) 0.0983(3)
H8_2 H 0.2725 0.5425 0.1176
C19_2 C 0.3776(8) 0.5657(4) 0.0662(3)
C20_2 C 0.4404(8) 0.4984(4) 0.0622(3)
C21_2 C 0.4076(9) 0.4413(5) 0.0868(4)
H9_2 H 0.3438 0.4440 0.1060
C22_2 C 0.4706(9) 0.3803(4) 0.0826(4)
H10_2 H 0.4473 0.3422 0.0992
C23_2 C 0.5924(8) 0.4283(4) 0.0309(3)
H11_2 H 0.6540 0.4238 0.0109
C24_2 C 0.5353(9) 0.4900(4) 0.0335(3)
H12_2 H 0.5594 0.5269 0.0162
C25_2 C 0.4053(9) 0.6203(4) 0.0378(3)
H13_2 H 0.4619 0.6148 0.0161
C26_2 C 0.3454(8) 0.6833(4) 0.0431(3)
H14_2 H 0.3615 0.7191 0.0236
C27_2 C 0.1331(7) 0.8162(4) 0.1741(2)
H15_2 H 0.0594 0.8291 0.1633
C28_2 C 0.1516(8) 0.8209(5) 0.2184(3)
H16_2 H 0.0919 0.8370 0.2366
C29_2 C 0.2609(7) 0.8010(4) 0.2356(2)
C30_2 C 0.2829(8) 0.8021(5) 0.2833(3)
C31_2 C 0.3578(9) 0.7541(6) 0.3019(3)
H17_2 H 0.3989 0.7227 0.2846
C32_2 C 0.3708(10) 0.7536(5) 0.3468(3)
H18_2 H 0.4190 0.7198 0.3592
C33_2 C 0.2497(10) 0.8474(5) 0.3544(3)
H19_2 H 0.2139 0.8805 0.3722
C34_2 C 0.2291(10) 0.8514(5) 0.3099(3)
H20_2 H 0.1809 0.8858 0.2982
C35_2 C 0.3457(8) 0.7771(6) 0.2064(2)
H21_2 H 0.4196 0.7630 0.2164
C36_2 C 0.3192(8) 0.7743(5) 0.1618(2)
H22_2 H 0.3768 0.7579 0.1427
C53_2 C 0.1561(9) 0.9473(4) 0.0900(3)
H35_2 H 0.2363 0.9462 0.0969
N11 N 0.7802(6) 0.1997(3) 0.0656(2)
H39_2 H 0.0286835 0.694317 0.0685681
H40_2 H 0.00502721 0.732227 0.114988
H45_2 H 0.530828 0.182554 0.0451926
H46_2 H 0.502587 0.213273 0.0933327
H47_2 H 0.801914 0.394302 0.0370117
H48_2 H 0.861324 0.358739 0.0796653
H49_2 H 0.335158 0.883824 0.0504595
H50_2 H 0.387749 0.850245 0.0949264
S1_2 S 0.1153(2) 0.62736(11) 0.87026(7)
S2_2 S 0.3702(2) 0.60512(11) 0.68109(7)
O2_2 O 0.2521(8) 0.8816(4) 0.98870(19)
O3_2 O 0.1049(5) 0.8711(3) 0.78700(15)
O4_2 O 0.1725(8) 0.9505(3) 0.8339(2)
O5_2 O 0.1183(5) 0.8421(3) 0.69318(16)
O6_2 O 0.0912(8) 0.8753(5) 0.6242(2)
O8_2 O 0.4745(6) 0.7067(4) 0.52216(17)
O9_2 O 0.1462(11) 0.5894(4) 0.9093(3)
O11_2 O 0.1837(12) 0.6165(4) 0.8328(4)
O12_2 O 0.4082(9) 0.6335(4) 0.7215(2)
O13_2 O 0.2662(10) 0.5660(5) 0.6853(4)
O14_2 O 0.4628(10) 0.5700(5) 0.6586(3)
O18_2 O 0.1134(6) 0.9931(3) 0.6721(2)
N5_2 N 0.2907(5) 0.9323(4) 0.7304(2)
N6 N 0.9158(5) 0.9291(3) 0.7296(2)
C1_2 C 0.1318(7) 0.7168(4) 0.8832(3)
C2_2 C 0.1524(8) 0.7367(4) 0.9260(3)
H1_2 H 0.1522 0.7036 0.9481
C3_2 C 0.1733(8) 0.8060(4) 0.9359(2)
C4_2 C 0.1685(8) 0.8553(4) 0.9022(2)
H2_2 H 0.1800 0.9020 0.9085
C5_2 C 0.1467(7) 0.8348(4) 0.8592(2)
C6_2 C 0.1260(7) 0.7657(4) 0.8503(2)
H3_2 H 0.1081 0.7519 0.8220
C7_2 C 0.1970(8) 0.8266(4) 0.9826(2)
C8_2 C 0.1408(7) 0.8900(4) 0.8243(2)
C9_2 C 0.3308(7) 0.6777(4) 0.6482(2)
C10_2 C 0.2534(7) 0.7277(4) 0.6642(2)
H4_2 H 0.2258 0.7249 0.6927
C11_2 C 0.2178(7) 0.7817(4) 0.6375(2)
C12_2 C 0.2604(7) 0.7839(4) 0.5944(2)
H5_2 H 0.2340 0.8190 0.5760
C13_2 C 0.3400(7) 0.7358(4) 0.5784(2)
C14_2 C 0.3759(8) 0.6816(4) 0.6058(2)
H6_2 H 0.4292 0.6484 0.5958
C15_2 C 0.1367(7) 0.8380(4) 0.6528(2)
C16_2 C 0.3845(7) 0.7416(4) 0.5328(2)
C37_2 C 0.3529(7) 0.9882(4) 0.7216(4)
C38_2 C 0.4747(8) 0.9904(5) 0.7204(4)
C39_2 C 0.5376(6) 0.9298(4) 0.7286(3)
C40_2 C 0.6676(7) 0.9299(4) 0.7291(3)
C41_2 C 0.7342(8) 0.9535(6) 0.6938(4)
H25_2 H 0.6964 0.9709 0.6692
C42_2 C 0.8538(8) 0.9513(6) 0.6954(3)
H26_2 H 0.8954 0.9662 0.6710
C43_2 C 0.8526(8) 0.9083(6) 0.7640(3)
H27_2 H 0.8930 0.8943 0.7890
C44_2 C 0.7322(8) 0.9065(7) 0.7645(3)
H28_2 H 0.6929 0.8895 0.7889
C45_2 C 0.4736(8) 0.8720(5) 0.7392(3)
H29_2 H 0.5127 0.8311 0.7465
C46_2 C 0.3493(7) 0.8738(4) 0.7392(3)
H30_2 H 0.3072 0.8335 0.7453
H41_2 H 0.139659 0.963393 0.64746
C47_2 C 0.7557(9) 0.1424(4) 0.0418(3)
H31_2 H 0.6945 0.1441 0.0215
C48_2 C 0.8171(10) 0.0827(4) 0.0463(3)
H32_2 H 0.7958 0.0438 0.0301
C49_2 C 0.9127(7) 0.0791(4) 0.0753(3)
C50_2 C 0.9769(8) 0.0132(4) 0.0803(3)
C55_2 C 0.9386(8) 0.1379(4) 0.0993(3)
C56_2 C 0.8732(7) 0.1971(4) 0.0932(3)
H38_2 H 0.8938 0.2369 0.1086
O10_2 O 0.9912(8) 0.6160(4) 0.8622(3)
O21_2 O 0.1743(5) 0.2213(3) 0.00727(16)
Ni3 Ni 0.17266(8) 0.21249(4) 0.94089(3)
O19_3 O 0.0188(5) 0.2744(3) 0.93755(18)
O20_3 O 0.3246(5) 0.1504(3) 0.9492(2)
N2_3 N 0.0639(6) 0.1267(3) 0.9443(2)
C23_3 C 0.0924(8) 0.0717(4) 0.9691(3)
H11_3 H 0.1540 0.0762 0.9891
C24_3 C 0.0353(9) 0.0100(4) 0.9665(3)
N10_2 N 0.1825(7) 0.2005(3) 0.8736(2)
N11_2 N 0.2802(6) 0.3003(3) 0.9344(2)
H45_3 H 0.0308279 0.317446 0.954807
H46_3 H 0.00258672 0.286727 0.906667
H47_3 H 0.301914 0.105698 0.962988
H48_3 H 0.361324 0.141261 0.920335
N6_2 N 0.4158(5) 0.5709(3) 0.2704(2)
H24_2 H 0.0141 0.4683 0.2859
C39_3 C 0.0376(6) 0.5702(4) 0.2714(3)
C40_3 C 0.1676(7) 0.5701(4) 0.2709(3)
C41_3 C 0.2342(8) 0.5465(6) 0.3062(4)
H25_3 H 0.1964 0.5291 0.3308
C42_3 C 0.3538(8) 0.5487(6) 0.3046(3)
H26_3 H 0.3954 0.5338 0.3290
C43_3 C 0.3526(8) 0.5917(6) 0.2360(3)
H27_3 H 0.3930 0.6057 0.2110
C44_3 C 0.2322(8) 0.5935(7) 0.2355(3)
H28_3 H 0.1929 0.6105 0.2111
H29_3 H 0.0127 0.6689 0.2535
Ni6_2 Ni 0.60365(8) 0.56817(4) 0.26939(3)
S1_3 S 0.6153(2) 0.87264(11) 0.12974(7)
S2_3 S 0.8702(2) 0.89488(11) 0.31891(7)
O2_3 O 0.7521(8) 0.6184(4) 0.01130(19)
O3_3 O 0.6049(5) 0.6289(3) 0.21300(15)
O4_3 O 0.6725(8) 0.5495(3) 0.1661(2)
O5_3 O 0.6183(5) 0.6579(3) 0.30682(16)
O6_3 O 0.5912(8) 0.6247(5) 0.3758(2)
O7_2 O 0.8257(5) 0.7213(3) 0.49273(16)
O8_3 O 0.9745(6) 0.7933(4) 0.47784(17)
O9_3 O 0.6462(11) 0.9106(4) 0.0907(3)
O10_3 O 0.4912(8) 0.8840(4) 0.1378(3)
O11_3 O 0.6837(12) 0.8835(4) 0.1672(4)
O12_3 O 0.9082(9) 0.8665(4) 0.2785(2)
O13_3 O 0.7662(10) 0.9340(5) 0.3147(4)
O14_3 O 0.9628(10) 0.9300(5) 0.3414(3)
O17_2 O 0.6071(6) 0.4764(3) 0.2349(2)
O18_3 O 0.6134(6) 0.5069(3) 0.3279(2)
N5_3 N 0.7907(5) 0.5677(4) 0.2696(2)
C1_3 C 0.6318(7) 0.7832(4) 0.1168(3)
C2_3 C 0.6524(8) 0.7633(4) 0.0740(3)
H1_3 H 0.6522 0.7964 0.0519
C3_3 C 0.6733(8) 0.6940(4) 0.0641(2)
C4_3 C 0.6685(8) 0.6447(4) 0.0978(2)
H2_3 H 0.6800 0.5980 0.0915
C5_3 C 0.6467(7) 0.6652(4) 0.1408(2)
C6_3 C 0.6260(7) 0.7343(4) 0.1497(2)
H3_3 H 0.6081 0.7481 0.1780
C7_3 C 0.6970(8) 0.6734(4) 0.0174(2)
C8_3 C 0.6408(7) 0.6100(4) 0.1757(2)
C9_3 C 0.8308(7) 0.8223(4) 0.3518(2)
C10_3 C 0.7534(7) 0.7723(4) 0.3358(2)
H4_3 H 0.7258 0.7751 0.3073
C11_3 C 0.7178(7) 0.7183(4) 0.3625(2)
C12_3 C 0.7604(7) 0.7161(4) 0.4056(2)
H5_3 H 0.7340 0.6810 0.4240
C13_3 C 0.8400(7) 0.7642(4) 0.4216(2)
C14_3 C 0.8759(8) 0.8184(4) 0.3942(2)
H6_3 H 0.9292 0.8516 0.4042
C15_3 C 0.6367(7) 0.6620(4) 0.3472(2)
C16_3 C 0.8845(7) 0.7584(4) 0.4672(2)
C37_3 C 0.8529(7) 0.5118(4) 0.2784(4)
H23_2 H 0.8119 0.4710 0.2843
C38_3 C 0.9747(8) 0.5096(5) 0.2796(4)
C45_3 C 0.9736(8) 0.6280(5) 0.2608(3)
C46_3 C 0.8493(7) 0.6262(4) 0.2608(3)
H30_3 H 0.8072 0.6665 0.2547
Ni4_2 Ni 0.82734(8) 0.71249(4) 0.55911(3)
H41_3 H 0.639659 0.536607 0.35254
H42_2 H 0.534149 0.487284 0.334524
H43_2 H 0.679714 0.474643 0.216688
H44_2 H 0.607005 0.436713 0.25557
Ni1_3 Ni 0.68598(9) 0.70868(5) 0.92169(3)
O1_3 O 0.6603(6) 0.7133(3) 0.98825(16)
O15_3 O 0.8485(6) 0.6601(3) 0.93332(19)
O16_3 O 0.5238(6) 0.7602(3) 0.9163(2)
N1_3 N 0.7681(7) 0.8056(3) 0.9260(2)
N3_3 N 0.7154(6) 0.7059(3) 0.85456(19)
N4_2 N 0.8175(7) 0.7005(3) 0.6264(2)
N8_3 N 0.6003(6) 0.6126(3) 0.9173(2)
C17_3 C 0.7429(9) 0.8578(5) 0.8990(3)
H7_3 H 0.6876 0.8500 0.8770
C18_3 C 0.7939(9) 0.9225(4) 0.9017(3)
H8_3 H 0.7725 0.9575 0.8824
C19_3 C 0.8776(8) 0.9343(4) 0.9338(3)
C25_3 C 0.9053(9) 0.8797(4) 0.9622(3)
H13_3 H 0.9619 0.8852 0.9839
C26_3 C 0.8454(8) 0.8167(4) 0.9569(3)
H14_3 H 0.8615 0.7809 0.9764
C27_3 C 0.6331(7) 0.6838(4) 0.8259(2)
H15_3 H 0.5594 0.6709 0.8367
C28_3 C 0.6516(8) 0.6791(5) 0.7816(3)
H16_3 H 0.5919 0.6630 0.7634
C29_3 C 0.7609(7) 0.6990(4) 0.7644(2)
C30_3 C 0.7829(8) 0.6979(5) 0.7167(3)
C31_3 C 0.8578(9) 0.7459(6) 0.6981(3)
H17_3 H 0.8989 0.7773 0.7154
C32_3 C 0.8708(10) 0.7464(5) 0.6532(3)
H18_3 H 0.9190 0.7802 0.6408
C33_3 C 0.7497(10) 0.6526(5) 0.6456(3)
H19_3 H 0.7139 0.6195 0.6278
C34_3 C 0.7291(10) 0.6486(5) 0.6901(3)
H20_3 H 0.6809 0.6142 0.7018
C35_3 C 0.8457(8) 0.7229(6) 0.7936(2)
H21_3 H 0.9196 0.7370 0.7836
C36_3 C 0.8192(8) 0.7257(5) 0.8382(2)
H22_3 H 0.8768 0.7421 0.8573
C47_3 C 0.2557(9) 0.3576(4) 0.9582(3)
H31_3 H 0.1945 0.3559 0.9785
C48_3 C 0.3171(10) 0.4173(4) 0.9537(3)
H32_3 H 0.2958 0.4562 0.9699
C49_3 C 0.4127(7) 0.4209(4) 0.9247(3)
C50_3 C 0.4769(8) 0.4868(4) 0.9197(3)
C51_2 C 0.4206(8) 0.5486(4) 0.9240(4)
H33_2 H 0.3388 0.5496 0.9274
C52_2 C 0.4833(8) 0.6099(4) 0.9233(3)
H34_2 H 0.4423 0.6513 0.9273
C53_3 C 0.6561(9) 0.5527(4) 0.9100(3)
H35_3 H 0.7363 0.5538 0.9031
C54_2 C 0.5996(8) 0.4889(4) 0.9122(3)
H36_2 H 0.6424 0.4480 0.9087
C55_3 C 0.4386(8) 0.3621(4) 0.9007(3)
H37_2 H 0.5001 0.3626 0.8806
C56_3 C 0.3732(7) 0.3029(4) 0.9068(3)
H38_3 H 0.3938 0.2631 0.8914
H39_3 H 0.528683 0.805683 0.931432
H40_3 H 0.505027 0.767773 0.885012
H49_3 H 0.835158 0.616176 0.94954
H50_3 H 0.887749 0.649755 0.905074
Ni1_4 Ni 0.31402(9) 0.20868(5) 0.57831(3)
Ni2_2 Ni 0.39635(8) 0.06817(4) 0.23061(3)
S1_4 S 0.3847(2) 0.37264(11) 0.37026(7)
S2_4 S 0.1298(2) 0.39488(11) 0.18109(7)
O1_4 O 0.3397(6) 0.2133(3) 0.51175(16)
O2_4 O 0.2479(8) 0.1184(4) 0.48870(19)
O3_4 O 0.3951(5) 0.1289(3) 0.28700(15)
O4_4 O 0.3275(8) 0.0495(3) 0.3339(2)
O5_4 O 0.3817(5) 0.1579(3) 0.19318(16)
O6_4 O 0.4088(8) 0.1247(5) 0.1242(2)
O8_4 O 0.0255(6) 0.2933(4) 0.02216(17)
O9_4 O 0.3538(11) 0.4106(4) 0.4093(3)
O10_4 O 0.5088(8) 0.3840(4) 0.3622(3)
O11_4 O 0.3163(12) 0.3835(4) 0.3328(4)
O12_4 O 0.0918(9) 0.3665(4) 0.2215(2)
O13_4 O 0.2338(10) 0.4340(5) 0.1853(4)
O14_4 O 0.0372(10) 0.4300(5) 0.1586(3)
O15_4 O 0.1515(6) 0.1601(3) 0.56668(19)
O16_4 O 0.4762(6) 0.2602(3) 0.5837(2)
O18_4 O 0.3866(6) 0.0069(3) 0.1721(2)
N1_4 N 0.2319(7) 0.3056(3) 0.5740(2)
N3_4 N 0.2846(6) 0.2059(3) 0.64544(19)
N5_4 N 0.2093(5) 0.0677(4) 0.2304(2)
N8_4 N 0.3997(6) 0.1126(3) 0.5827(2)
C1_4 C 0.3682(7) 0.2832(4) 0.3832(3)
C2_4 C 0.3476(8) 0.2633(4) 0.4260(3)
H1_4 H 0.3478 0.2964 0.4481
C3_4 C 0.3267(8) 0.1940(4) 0.4359(2)
C4_4 C 0.3315(8) 0.1447(4) 0.4022(2)
H2_4 H 0.3200 0.0980 0.4085
C5_4 C 0.3533(7) 0.1652(4) 0.3592(2)
C6_4 C 0.3740(7) 0.2343(4) 0.3503(2)
H3_4 H 0.3919 0.2481 0.3220
C7_4 C 0.3030(8) 0.1734(4) 0.4826(2)
C8_4 C 0.3592(7) 0.1100(4) 0.3243(2)
C9_4 C 0.1692(7) 0.3223(4) 0.1482(2)
C10_4 C 0.2466(7) 0.2723(4) 0.1642(2)
H4_4 H 0.2742 0.2751 0.1927
C11_4 C 0.2822(7) 0.2183(4) 0.1375(2)
C12_4 C 0.2396(7) 0.2161(4) 0.0944(2)
H5_4 H 0.2660 0.1810 0.0760
C13_4 C 0.1600(7) 0.2642(4) 0.0784(2)
C14_4 C 0.1241(8) 0.3184(4) 0.1058(2)
H6_4 H 0.0708 0.3516 0.0958
C15_4 C 0.3633(7) 0.1620(4) 0.1528(2)
C16_4 C 0.1155(7) 0.2584(4) 0.0328(2)
C17_4 C 0.2571(9) 0.3578(5) 0.6010(3)
H7_4 H 0.3124 0.3500 0.6230
C18_4 C 0.2061(9) 0.4225(4) 0.5983(3)
H8_4 H 0.2275 0.4575 0.6176
C19_4 C 0.1224(8) 0.4343(4) 0.5662(3)
C20_3 C 0.0596(8) 0.5016(4) 0.5622(3)
C21_3 C 0.0924(9) 0.5587(5) 0.5868(4)
H9_3 H 0.1562 0.5560 0.6060
C22_3 C 0.0294(9) 0.6197(4) 0.5826(4)
H10_3 H 0.0527 0.6578 0.5992
C25_4 C 0.0947(9) 0.3797(4) 0.5378(3)
H13_4 H 0.0381 0.3852 0.5161
C26_4 C 0.1546(8) 0.3167(4) 0.5431(3)
H14_4 H 0.1385 0.2809 0.5236
C27_4 C 0.3669(7) 0.1838(4) 0.6741(2)
H15_4 H 0.4406 0.1709 0.6633
C28_4 C 0.3484(8) 0.1791(5) 0.7184(3)
H16_4 H 0.4081 0.1630 0.7366
C29_4 C 0.2391(7) 0.1990(4) 0.7356(2)
C30_4 C 0.2171(8) 0.1979(5) 0.7833(3)
C31_4 C 0.1422(9) 0.2459(6) 0.8019(3)
H17_4 H 0.1011 0.2773 0.7846
C32_4 C 0.1292(10) 0.2464(5) 0.8468(3)
H18_4 H 0.0810 0.2802 0.8592
C33_4 C 0.2503(10) 0.1526(5) 0.8544(3)
H19_4 H 0.2861 0.1195 0.8722
C34_4 C 0.2709(10) 0.1486(5) 0.8099(3)
H20_4 H 0.3191 0.1142 0.7982
C35_4 C 0.1543(8) 0.2229(6) 0.7064(2)
H21_4 H 0.0804 0.2370 0.7164
C36_4 C 0.1808(8) 0.2257(5) 0.6618(2)
H22_4 H 0.1232 0.2421 0.6427
C37_4 C 0.1471(7) 0.0118(4) 0.2216(4)
C38_4 C 0.0253(8) 0.0096(5) 0.2204(4)
C45_4 C 0.0264(8) 0.1280(5) 0.2392(3)
C46_4 C 0.1507(7) 0.1262(4) 0.2392(3)
H30_4 H 0.1928 0.1665 0.2453
C51_3 C 0.5794(8) 0.0486(4) 0.5760(4)
H33_3 H 0.6612 0.0496 0.5726
C52_3 C 0.5167(8) 0.1099(4) 0.5767(3)
H34_3 H 0.5577 0.1513 0.5727
C53_4 C 0.3439(9) 0.0527(4) 0.5900(3)
H35_4 H 0.2637 0.0538 0.5969
N9_2 N 0.5842(5) 0.0709(3) 0.2296(2)
H39_4 H 0.471317 0.305683 0.568568
H40_4 H 0.494973 0.267773 0.614988
H41_4 H 0.360341 0.0366074 0.14746
H49_4 H 0.164842 0.116176 0.55046
H50_4 H 0.112251 0.149755 0.594926
O17_3 O 0.3929(6) 0.9764(3) 0.2651(2)
N7_2 N 0.7198(6) 0.8003(3) 0.5656(2)
H23_3 H 0.1881 0.9710 0.2157
C47_4 C 0.7443(9) 0.8576(4) 0.5418(3)
H31_4 H 0.8055 0.8559 0.5215
C48_4 C 0.6829(10) 0.9173(4) 0.5463(3)
H32_4 H 0.7042 0.9562 0.5301
C49_4 C 0.5873(7) 0.9209(4) 0.5753(3)
C50_4 C 0.5231(8) 0.9868(4) 0.5803(3)
C54_3 C 0.4004(8) 0.9889(4) 0.5878(3)
H36_3 H 0.3576 0.9480 0.5913
C55_4 C 0.5614(8) 0.8621(4) 0.5993(3)
H37_3 H 0.4999 0.8626 0.6194
C56_4 C 0.6268(7) 0.8029(4) 0.5932(3)
H38_4 H 0.6062 0.7631 0.6086
H42_3 H 0.465851 0.987284 0.165476
H43_3 H 0.320286 0.974643 0.283312
H44_3 H 0.392995 0.936713 0.24443
O19_4 O 0.9812(5) 0.7744(3) 0.56245(18)
O20_4 O 0.6754(5) 0.6504(3) 0.5508(2)
N2_4 N 0.9361(6) 0.6267(3) 0.5557(2)
C23_4 C 0.9076(8) 0.5717(4) 0.5309(3)
H11_4 H 0.8460 0.5762 0.5109
C24_4 C 0.9647(9) 0.5100(4) 0.5335(3)
H12_3 H 0.9406 0.4731 0.5162
C39_4 C 0.9624(6) 0.0702(4) 0.2286(3)
C40_4 C 0.8324(7) 0.0701(4) 0.2291(3)
C41_4 C 0.7658(8) 0.0465(6) 0.1938(4)
H25_4 H 0.8036 0.0291 0.1692
C42_4 C 0.6462(8) 0.0487(6) 0.1954(3)
H26_4 H 0.6046 0.0338 0.1710
C43_4 C 0.6474(8) 0.0917(6) 0.2640(3)
H27_4 H 0.6070 0.1057 0.2890
C44_4 C 0.7678(8) 0.0935(7) 0.2645(3)
H28_4 H 0.8071 0.1105 0.2889
H29_4 H 0.9873 0.1689 0.2465
H45_4 H 0.969172 0.817446 0.545193
H46_4 H 0.997413 0.786727 0.593333
H47_4 H 0.698086 0.605698 0.537012
H48_4 H 0.638676 0.641261 0.579665
H12_4 H 0.0594 0.9731 0.9838
C20_4 C 0.9404(8) 0.0016(4) 0.9378(3)
C21_4 C 0.9076(9) 0.0587(5) 0.9132(4)
H9_4 H 0.8438 0.0560 0.8940
C22_4 C 0.9706(9) 0.1197(4) 0.9174(4)
H10_4 H 0.9473 0.1578 0.9008
C54_4 C 0.0996(8) 0.0111(4) 0.0878(3)
H36_4 H 0.1424 0.0520 0.0913
H37_4 H 0.0001 0.1374 0.1194
O17_4 O 0.1071(6) 0.0236(3) 0.7651(2)
H23_4 H 0.3119 0.0290 0.7157
H24_3 H 0.5141 0.0317 0.7141
H42_4 H 0.0341488 0.0127165 0.665476
H43_4 H 0.179714 0.025357 0.783312
H44_4 H 0.107005 0.0632865 0.74443
C51_4 C 0.9206(8) 0.9514(4) 0.0760(4)
H33_4 H 0.8388 0.9504 0.0726
C52_4 C 0.9833(8) 0.8901(4) 0.0767(3)
H34_4 H 0.9423 0.8487 0.0727
H24_4 H 0.9859 0.9683 0.2141
loop_
_geom_bond_atom_site_label_1
_geom_bond_atom_site_label_2
_geom_bond_site_symmetry_1
_geom_bond_site_symmetry_2
N7 C47 1_555 1_555
C47 H31 1_555 1_555
C48 C47 1_555 1_555
H32 C48 1_555 1_555
C49 C48 1_555 1_555
C50 C49 1_555 1_555
C51 C50 1_555 1_555
H33 C51 1_555 1_555
H34 C52 1_555 1_555
C55 C49 1_555 1_555
C56 N7 1_555 1_555
H38 C56 1_555 1_555
Ni7 N7 1_555 1_555
C51 C52 1_555 1_555
C55 C56 1_555 1_555
Ni1 O1 1_555 1_555
Ni2 O3 1_555 1_555
S1 O9 1_555 1_555
S2 O12 1_555 1_555
O1 C7 1_555 1_555
O2 C7 1_555 1_555
O3 C8 1_555 1_555
O4 C8 1_555 1_555
O5 Ni2 1_555 1_555
O6 C15 1_555 1_555
O7 C16 1_555 1_555
O8 C16 1_555 1_555
O11 S1 1_555 1_555
O13 S2 1_555 1_555
O14 S2 1_555 1_555
O15 Ni1 1_555 1_555
O16 Ni1 1_555 1_555
O17 Ni2 1_555 1_555
O18 Ni2 1_555 1_555
N1 Ni1 1_555 1_555
N3 Ni1 1_555 1_555
N4 C32 1_555 1_555
N5 Ni2 1_555 1_555
N9 C42 1_555 1_555
N8 Ni1 1_555 1_555
C1 S1 1_555 1_555
C2 C1 1_555 1_555
H1 C2 1_555 1_555
C3 C2 1_555 1_555
C4 C3 1_555 1_555
H2 C4 1_555 1_555
C5 C4 1_555 1_555
C6 C1 1_555 1_555
H3 C6 1_555 1_555
C7 C3 1_555 1_555
C8 C5 1_555 1_555
C9 S2 1_555 1_555
C10 C9 1_555 1_555
H4 C10 1_555 1_555
C11 C10 1_555 1_555
C12 C11 1_555 1_555
H5 C12 1_555 1_555
C13 C12 1_555 1_555
C14 C9 1_555 1_555
H6 C14 1_555 1_555
C15 O5 1_555 1_555
C16 C13 1_555 1_555
C17 N1 1_555 1_555
H7 C17 1_555 1_555
C18 C17 1_555 1_555
H8 C18 1_555 1_555
C19 C18 1_555 1_555
C25 C19 1_555 1_555
H13 C25 1_555 1_555
C26 N1 1_555 1_555
H14 C26 1_555 1_555
C27 N3 1_555 1_555
H15 C27 1_555 1_555
C28 C27 1_555 1_555
H16 C28 1_555 1_555
C29 C28 1_555 1_555
C30 C29 1_555 1_555
C31 C30 1_555 1_555
H17 C31 1_555 1_555
C32 C31 1_555 1_555
H18 C32 1_555 1_555
C33 N4 1_555 1_555
H19 C33 1_555 1_555
C34 C30 1_555 1_555
H20 C34 1_555 1_555
C35 C29 1_555 1_555
H21 C35 1_555 1_555
C36 N3 1_555 1_555
H22 C36 1_555 1_555
C37 N5 1_555 1_555
H23 C37 1_555 1_555
C38 C37 1_555 1_555
H24 C38 1_555 1_555
C39 C38 1_555 1_555
C40 C39 1_555 1_555
C41 C40 1_555 1_555
H25 C41 1_555 1_555
C42 C41 1_555 1_555
H26 C42 1_555 1_555
C43 N9 1_555 1_555
H27 C43 1_555 1_555
C44 C40 1_555 1_555
H28 C44 1_555 1_555
C45 C39 1_555 1_555
H29 C45 1_555 1_555
C46 N5 1_555 1_555
H30 C46 1_555 1_555
C53 N8 1_555 1_555
H35 C53 1_555 1_555
H36 C54 1_555 1_555
Ni4 N4 1_555 1_555
C5 C6 1_555 1_555
C11 C15 1_555 1_555
C13 C14 1_555 1_555
C25 C26 1_555 1_555
C33 C34 1_555 1_555
C35 C36 1_555 1_555
C43 C44 1_555 1_555
C45 C46 1_555 1_555
C53 C54 1_555 1_555
O16 H39 1_555 1_555
O16 H40 1_555 1_555
O18 H41 1_555 1_555
O18 H42 1_555 1_555
O17 H43 1_555 1_555
O17 H44 1_555 1_555
O15 H49 1_555 1_555
O15 H50 1_555 1_555
Ni7 O19 1_555 1_555
O20 Ni7 1_555 1_555
N2 Ni7 1_555 1_555
C21 C20 1_555 1_555
H9 C21 1_555 1_555
C22 N2 1_555 1_555
H10 C22 1_555 1_555
C23 N2 1_555 1_555
H11 C23 1_555 1_555
C24 C20 1_555 1_555
O21 Ni7 1_555 1_555
N10 Ni7 1_555 1_555
C21 C22 1_555 1_555
C23 C24 1_555 1_555
O19 H45 1_555 1_555
O19 H46 1_555 1_555
O20 H47 1_555 1_555
O20 H48 1_555 1_555
Ni1_2 O1_2 1_555 1_555
Ni4 O19_2 1_555 1_555
O15_2 Ni1_2 1_555 1_555
O16_2 Ni1_2 1_555 1_555
O20_2 Ni4 1_555 1_555
N1_2 Ni1_2 1_555 1_555
N2_2 Ni4 1_555 1_555
N3_2 Ni1_2 1_555 1_555
N10 C32_2 1_555 1_555
N8_2 Ni1_2 1_555 1_555
C17_2 N1_2 1_555 1_555
H7_2 C17_2 1_555 1_555
C18_2 C17_2 1_555 1_555
H8_2 C18_2 1_555 1_555
C19_2 C18_2 1_555 1_555
C20_2 C19_2 1_555 1_555
C21_2 C20_2 1_555 1_555
H9_2 C21_2 1_555 1_555
C22_2 N2_2 1_555 1_555
H10_2 C22_2 1_555 1_555
C23_2 N2_2 1_555 1_555
H11_2 C23_2 1_555 1_555
C24_2 C20_2 1_555 1_555
H12_2 C24_2 1_555 1_555
C25_2 C19_2 1_555 1_555
H13_2 C25_2 1_555 1_555
C26_2 N1_2 1_555 1_555
H14_2 C26_2 1_555 1_555
C27_2 N3_2 1_555 1_555
H15_2 C27_2 1_555 1_555
C28_2 C27_2 1_555 1_555
H16_2 C28_2 1_555 1_555
C29_2 C28_2 1_555 1_555
C30_2 C29_2 1_555 1_555
C31_2 C30_2 1_555 1_555
H17_2 C31_2 1_555 1_555
C32_2 C31_2 1_555 1_555
H18_2 C32_2 1_555 1_555
C33_2 N10 1_555 1_555
H19_2 C33_2 1_555 1_555
C34_2 C30_2 1_555 1_555
H20_2 C34_2 1_555 1_555
C35_2 C29_2 1_555 1_555
H21_2 C35_2 1_555 1_555
C36_2 N3_2 1_555 1_555
H22_2 C36_2 1_555 1_555
C53_2 N8_2 1_555 1_555
H35_2 C53_2 1_555 1_555
N11 Ni4 1_555 1_555
C21_2 C22_2 1_555 1_555
C23_2 C24_2 1_555 1_555
C25_2 C26_2 1_555 1_555
C33_2 C34_2 1_555 1_555
C35_2 C36_2 1_555 1_555
O16_2 H39_2 1_555 1_555
O16_2 H40_2 1_555 1_555
O19_2 H45_2 1_555 1_555
O19_2 H46_2 1_555 1_555
O20_2 H47_2 1_555 1_555
O20_2 H48_2 1_555 1_555
O15_2 H49_2 1_555 1_555
O15_2 H50_2 1_555 1_555
Ni6 O3_2 1_555 1_555
S1_2 O9_2 1_555 1_555
S2_2 O12_2 1_555 1_555
O2_2 C7_2 1_555 1_555
O3_2 C8_2 1_555 1_555
O4_2 C8_2 1_555 1_555
O5_2 Ni6 1_555 1_555
O6_2 C15_2 1_555 1_555
O21 C16_2 1_555 1_555
O8_2 C16_2 1_555 1_555
O11_2 S1_2 1_555 1_555
O13_2 S2_2 1_555 1_555
O14_2 S2_2 1_555 1_555
O18_2 Ni6 1_555 1_555
N5_2 Ni6 1_555 1_555
N6 C42_2 1_555 1_555
C1_2 S1_2 1_555 1_555
C2_2 C1_2 1_555 1_555
H1_2 C2_2 1_555 1_555
C3_2 C2_2 1_555 1_555
C4_2 C3_2 1_555 1_555
H2_2 C4_2 1_555 1_555
C5_2 C4_2 1_555 1_555
C6_2 C1_2 1_555 1_555
H3_2 C6_2 1_555 1_555
C7_2 C3_2 1_555 1_555
C8_2 C5_2 1_555 1_555
C9_2 S2_2 1_555 1_555
C10_2 C9_2 1_555 1_555
H4_2 C10_2 1_555 1_555
C11_2 C10_2 1_555 1_555
C12_2 C11_2 1_555 1_555
H5_2 C12_2 1_555 1_555
C13_2 C12_2 1_555 1_555
C14_2 C9_2 1_555 1_555
H6_2 C14_2 1_555 1_555
C15_2 O5_2 1_555 1_555
C16_2 C13_2 1_555 1_555
C37_2 N5_2 1_555 1_555
C38_2 C37_2 1_555 1_555
C39_2 C38_2 1_555 1_555
C40_2 C39_2 1_555 1_555
C41_2 C40_2 1_555 1_555
H25_2 C41_2 1_555 1_555
C42_2 C41_2 1_555 1_555
H26_2 C42_2 1_555 1_555
C43_2 N6 1_555 1_555
H27_2 C43_2 1_555 1_555
C44_2 C40_2 1_555 1_555
H28_2 C44_2 1_555 1_555
C45_2 C39_2 1_555 1_555
H29_2 C45_2 1_555 1_555
C46_2 N5_2 1_555 1_555
H30_2 C46_2 1_555 1_555
C5_2 C6_2 1_555 1_555
C11_2 C15_2 1_555 1_555
C13_2 C14_2 1_555 1_555
C43_2 C44_2 1_555 1_555
C45_2 C46_2 1_555 1_555
O18_2 H41_2 1_555 1_555
N11 C47_2 1_555 1_555
C47_2 H31_2 1_555 1_555
C48_2 C47_2 1_555 1_555
H32_2 C48_2 1_555 1_555
C49_2 C48_2 1_555 1_555
C50_2 C49_2 1_555 1_555
C55_2 C49_2 1_555 1_555
C56_2 N11 1_555 1_555
H38_2 C56_2 1_555 1_555
C55_2 C56_2 1_555 1_555
Ni3 O19_3 1_555 1_555
O20_3 Ni3 1_555 1_555
N2_3 Ni3 1_555 1_555
C23_3 N2_3 1_555 1_555
H11_3 C23_3 1_555 1_555
N10_2 Ni3 1_555 1_555
N11_2 Ni3 1_555 1_555
C23_3 C24_3 1_555 1_555
O19_3 H45_3 1_555 1_555
O19_3 H46_3 1_555 1_555
O20_3 H47_3 1_555 1_555
O20_3 H48_3 1_555 1_555
N6_2 C42_3 1_555 1_555
C40_3 C39_3 1_555 1_555
C41_3 C40_3 1_555 1_555
H25_3 C41_3 1_555 1_555
C42_3 C41_3 1_555 1_555
H26_3 C42_3 1_555 1_555
C43_3 N6_2 1_555 1_555
H27_3 C43_3 1_555 1_555
C44_3 C40_3 1_555 1_555
H28_3 C44_3 1_555 1_555
Ni6_2 N6_2 1_555 1_555
C43_3 C44_3 1_555 1_555
Ni6_2 O3_3 1_555 1_555
S1_3 O9_3 1_555 1_555
S2_3 O12_3 1_555 1_555
O2_3 C7_3 1_555 1_555
O3_3 C8_3 1_555 1_555
O4_3 C8_3 1_555 1_555
O5_3 Ni6_2 1_555 1_555
O6_3 C15_3 1_555 1_555
O7_2 C16_3 1_555 1_555
O8_3 C16_3 1_555 1_555
O10_3 S1_3 1_555 1_555
O11_3 S1_3 1_555 1_555
O13_3 S2_3 1_555 1_555
O14_3 S2_3 1_555 1_555
O17_2 Ni6_2 1_555 1_555
O18_3 Ni6_2 1_555 1_555
N5_3 Ni6_2 1_555 1_555
C1_3 S1_3 1_555 1_555
C2_3 C1_3 1_555 1_555
H1_3 C2_3 1_555 1_555
C3_3 C2_3 1_555 1_555
C4_3 C3_3 1_555 1_555
H2_3 C4_3 1_555 1_555
C5_3 C4_3 1_555 1_555
C6_3 C1_3 1_555 1_555
H3_3 C6_3 1_555 1_555
C7_3 C3_3 1_555 1_555
C8_3 C5_3 1_555 1_555
C9_3 S2_3 1_555 1_555
C10_3 C9_3 1_555 1_555
H4_3 C10_3 1_555 1_555
C11_3 C10_3 1_555 1_555
C12_3 C11_3 1_555 1_555
H5_3 C12_3 1_555 1_555
C13_3 C12_3 1_555 1_555
C14_3 C9_3 1_555 1_555
H6_3 C14_3 1_555 1_555
C15_3 O5_3 1_555 1_555
C16_3 C13_3 1_555 1_555
C37_3 N5_3 1_555 1_555
H23_2 C37_3 1_555 1_555
C38_3 C37_3 1_555 1_555
C46_3 N5_3 1_555 1_555
H30_3 C46_3 1_555 1_555
Ni4_2 O7_2 1_555 1_555
C5_3 C6_3 1_555 1_555
C11_3 C15_3 1_555 1_555
C13_3 C14_3 1_555 1_555
C45_3 C46_3 1_555 1_555
O18_3 H41_3 1_555 1_555
O18_3 H42_2 1_555 1_555
O17_2 H43_2 1_555 1_555
O17_2 H44_2 1_555 1_555
Ni1_3 O1_3 1_555 1_555
O15_3 Ni1_3 1_555 1_555
O16_3 Ni1_3 1_555 1_555
N1_3 Ni1_3 1_555 1_555
N3_3 Ni1_3 1_555 1_555
N4_2 C32_3 1_555 1_555
N11_2 C47_3 1_555 1_555
N8_3 Ni1_3 1_555 1_555
C17_3 N1_3 1_555 1_555
H7_3 C17_3 1_555 1_555
C18_3 C17_3 1_555 1_555
H8_3 C18_3 1_555 1_555
C19_3 C18_3 1_555 1_555
C25_3 C19_3 1_555 1_555
H13_3 C25_3 1_555 1_555
C26_3 N1_3 1_555 1_555
H14_3 C26_3 1_555 1_555
C27_3 N3_3 1_555 1_555
H15_3 C27_3 1_555 1_555
C28_3 C27_3 1_555 1_555
H16_3 C28_3 1_555 1_555
C29_3 C28_3 1_555 1_555
C30_3 C29_3 1_555 1_555
C31_3 C30_3 1_555 1_555
H17_3 C31_3 1_555 1_555
C32_3 C31_3 1_555 1_555
H18_3 C32_3 1_555 1_555
C33_3 N4_2 1_555 1_555
H19_3 C33_3 1_555 1_555
C34_3 C30_3 1_555 1_555
H20_3 C34_3 1_555 1_555
C35_3 C29_3 1_555 1_555
H21_3 C35_3 1_555 1_555
C36_3 N3_3 1_555 1_555
H22_3 C36_3 1_555 1_555
C47_3 H31_3 1_555 1_555
C48_3 C47_3 1_555 1_555
H32_3 C48_3 1_555 1_555
C49_3 C48_3 1_555 1_555
C50_3 C49_3 1_555 1_555
C51_2 C50_3 1_555 1_555
H33_2 C51_2 1_555 1_555
C52_2 N8_3 1_555 1_555
H34_2 C52_2 1_555 1_555
C53_3 N8_3 1_555 1_555
H35_3 C53_3 1_555 1_555
C54_2 C50_3 1_555 1_555
H36_2 C54_2 1_555 1_555
C55_3 C49_3 1_555 1_555
H37_2 C55_3 1_555 1_555
C56_3 N11_2 1_555 1_555
H38_3 C56_3 1_555 1_555
Ni4_2 N4_2 1_555 1_555
C25_3 C26_3 1_555 1_555
C33_3 C34_3 1_555 1_555
C35_3 C36_3 1_555 1_555
C51_2 C52_2 1_555 1_555
C53_3 C54_2 1_555 1_555
C55_3 C56_3 1_555 1_555
O16_3 H39_3 1_555 1_555
O16_3 H40_3 1_555 1_555
O15_3 H49_3 1_555 1_555
O15_3 H50_3 1_555 1_555
Ni1_4 O1_4 1_555 1_555
Ni2_2 O3_4 1_555 1_555
S1_4 O9_4 1_555 1_555
S2_4 O12_4 1_555 1_555
O1_4 C7_4 1_555 1_555
O2_4 C7_4 1_555 1_555
O3_4 C8_4 1_555 1_555
O4_4 C8_4 1_555 1_555
O5_4 Ni2_2 1_555 1_555
O6_4 C15_4 1_555 1_555
O21_2 C16_4 1_555 1_555
O8_4 C16_4 1_555 1_555
O10_4 S1_4 1_555 1_555
O11_4 S1_4 1_555 1_555
O13_4 S2_4 1_555 1_555
O14_4 S2_4 1_555 1_555
O15_4 Ni1_4 1_555 1_555
O16_4 Ni1_4 1_555 1_555
O18_4 Ni2_2 1_555 1_555
N1_4 Ni1_4 1_555 1_555
N3_4 Ni1_4 1_555 1_555
N10_2 C32_4 1_555 1_555
N5_4 Ni2_2 1_555 1_555
N8_4 Ni1_4 1_555 1_555
C1_4 S1_4 1_555 1_555
C2_4 C1_4 1_555 1_555
H1_4 C2_4 1_555 1_555
C3_4 C2_4 1_555 1_555
C4_4 C3_4 1_555 1_555
H2_4 C4_4 1_555 1_555
C5_4 C4_4 1_555 1_555
C6_4 C1_4 1_555 1_555
H3_4 C6_4 1_555 1_555
C7_4 C3_4 1_555 1_555
C8_4 C5_4 1_555 1_555
C9_4 S2_4 1_555 1_555
C10_4 C9_4 1_555 1_555
H4_4 C10_4 1_555 1_555
C11_4 C10_4 1_555 1_555
C12_4 C11_4 1_555 1_555
H5_4 C12_4 1_555 1_555
C13_4 C12_4 1_555 1_555
C14_4 C9_4 1_555 1_555
H6_4 C14_4 1_555 1_555
C15_4 O5_4 1_555 1_555
C16_4 C13_4 1_555 1_555
C17_4 N1_4 1_555 1_555
H7_4 C17_4 1_555 1_555
C18_4 C17_4 1_555 1_555
H8_4 C18_4 1_555 1_555
C19_4 C18_4 1_555 1_555
C20_3 C19_4 1_555 1_555
C21_3 C20_3 1_555 1_555
H9_3 C21_3 1_555 1_555
H10_3 C22_3 1_555 1_555
C25_4 C19_4 1_555 1_555
H13_4 C25_4 1_555 1_555
C26_4 N1_4 1_555 1_555
H14_4 C26_4 1_555 1_555
C27_4 N3_4 1_555 1_555
H15_4 C27_4 1_555 1_555
C28_4 C27_4 1_555 1_555
H16_4 C28_4 1_555 1_555
C29_4 C28_4 1_555 1_555
C30_4 C29_4 1_555 1_555
C31_4 C30_4 1_555 1_555
H17_4 C31_4 1_555 1_555
C32_4 C31_4 1_555 1_555
H18_4 C32_4 1_555 1_555
C33_4 N10_2 1_555 1_555
H19_4 C33_4 1_555 1_555
C34_4 C30_4 1_555 1_555
H20_4 C34_4 1_555 1_555
C35_4 C29_4 1_555 1_555
H21_4 C35_4 1_555 1_555
C36_4 N3_4 1_555 1_555
H22_4 C36_4 1_555 1_555
C37_4 N5_4 1_555 1_555
C38_4 C37_4 1_555 1_555
C46_4 N5_4 1_555 1_555
H30_4 C46_4 1_555 1_555
H33_3 C51_3 1_555 1_555
C52_3 N8_4 1_555 1_555
H34_3 C52_3 1_555 1_555
C53_4 N8_4 1_555 1_555
H35_4 C53_4 1_555 1_555
N9_2 Ni2_2 1_555 1_555
C5_4 C6_4 1_555 1_555
C11_4 C15_4 1_555 1_555
C13_4 C14_4 1_555 1_555
C21_3 C22_3 1_555 1_555
C25_4 C26_4 1_555 1_555
C33_4 C34_4 1_555 1_555
C35_4 C36_4 1_555 1_555
C45_4 C46_4 1_555 1_555
C51_3 C52_3 1_555 1_555
O16_4 H39_4 1_555 1_555
O16_4 H40_4 1_555 1_555
O18_4 H41_4 1_555 1_555
O15_4 H49_4 1_555 1_555
O15_4 H50_4 1_555 1_555
N7_2 C47_4 1_555 1_555
C47_4 H31_4 1_555 1_555
C48_4 C47_4 1_555 1_555
H32_4 C48_4 1_555 1_555
C49_4 C48_4 1_555 1_555
C50_4 C49_4 1_555 1_555
C54_3 C50_4 1_555 1_555
H36_3 C54_3 1_555 1_555
C55_4 C49_4 1_555 1_555
H37_3 C55_4 1_555 1_555
C56_4 N7_2 1_555 1_555
H38_4 C56_4 1_555 1_555
Ni4_2 N7_2 1_555 1_555
C55_4 C56_4 1_555 1_555
O17_3 H43_3 1_555 1_555
O17_3 H44_3 1_555 1_555
Ni4_2 O19_4 1_555 1_555
O20_4 Ni4_2 1_555 1_555
N2_4 Ni4_2 1_555 1_555
N9_2 C42_4 1_555 1_555
C23_4 N2_4 1_555 1_555
H11_4 C23_4 1_555 1_555
H12_3 C24_4 1_555 1_555
C40_4 C39_4 1_555 1_555
C41_4 C40_4 1_555 1_555
H25_4 C41_4 1_555 1_555
C42_4 C41_4 1_555 1_555
H26_4 C42_4 1_555 1_555
C43_4 N9_2 1_555 1_555
H27_4 C43_4 1_555 1_555
C44_4 C40_4 1_555 1_555
H28_4 C44_4 1_555 1_555
C23_4 C24_4 1_555 1_555
C43_4 C44_4 1_555 1_555
O19_4 H45_4 1_555 1_555
O19_4 H46_4 1_555 1_555
O20_4 H47_4 1_555 1_555
O20_4 H48_4 1_555 1_555
C21_4 C20_4 1_555 1_555
H9_4 C21_4 1_555 1_555
H10_4 C22_4 1_555 1_555
C21_4 C22_4 1_555 1_555
H36_4 C54_4 1_555 1_555
O17_4 H43_4 1_555 1_555
O17_4 H44_4 1_555 1_555
H33_4 C51_4 1_555 1_555
H34_4 C52_4 1_555 1_555
C51_4 C52_4 1_555 1_555

#END
