
###############################################################################
#
# This file contains modified crystal structure data generated from the
# MOF subset of the Cambridge Structural Database (CSD) v543 
# hosted by the Cambridge Crystallographic Data Centre (CCDC).
#
# This work is licensed under the Creative Commons
# Attribution-NonCommercial-ShareAlike 4.0 International License.
# To view a copy of this license, visit
# http://creativecommons.org/licenses/by-nc-sa/4.0/
# or send a letter to
# Creative Commons, PO Box 1866, Mountain View, CA 94042, USA.
#
# CIF created using the CSD Python API on 29 September 2022
# The structure has been converted into the P1 space group
# The structure has a 3D framework
# The original CSD entry IYAHAT is in the triclinic crystal system
# The framework has been calculated to contain at least 10.0% void space
# The void calculation uses a probe of radius 1.32A, grid spacing 0.4
# H atom positions have been added when not included in the experimental data
#
###############################################################################

data_IYAHAT
_chemical_formula_moiety         '(C68 H54 Nd6 O56)n'
_symmetry_cell_setting           triclinic
_symmetry_space_group_name_H-M   'P 1'
_symmetry_Int_Tables_number      1
_space_group_name_Hall           'P 1'
loop_
_symmetry_equiv_pos_site_id
_symmetry_equiv_pos_as_xyz
1 x,y,z
_cell_length_a                   9.398(4)
_cell_length_b                   15.307(6)
_cell_length_c                   16.751(6)
_cell_angle_alpha                68.756(10)
_cell_angle_beta                 79.322(13)
_cell_angle_gamma                89.276(17)
_cell_volume                     2203.17
loop_
_atom_site_label
_atom_site_type_symbol
_atom_site_fract_x
_atom_site_fract_y
_atom_site_fract_z
Nd5 Nd 0.00058(3) 0.82258(2) 0.109118(19)
O5 O 0.5328(5) 0.1774(3) 0.0864(3)
O6 O 0.3501(5) 0.1597(3) 0.1944(3)
H2 H 0.6384 0.0095 0.1154
C6 C 0.4393(6) 0.0198(4) 0.1779(4)
C9 C 0.4438(7) 0.1253(4) 0.1510(4)
Nd8 Nd 0.41556(3) 0.32823(2) 0.107914(19)
Nd3 Nd 0.11638(4) 0.26122(2) 0.52165(2)
O1 O 0.0822(5) 0.8020(3) 0.2424(3)
O2 O 0.1002(5) 0.8160(3) 0.3679(3)
O3 O 0.7484(5) 0.8644(3) 0.0711(3)
O4 O 0.7474(5) 0.7791(3) 0.2085(3)
O7 O 0.5141(6) 0.6095(3) 0.0455(3)
O8 O 0.4630(6) 0.4655(3) 0.1399(3)
O9 O 0.2365(8) 0.4084(3) 0.4393(3)
O10 O 0.2319(7) 0.5183(3) 0.4953(3)
O11 O 0.0092(5) 0.6529(3) 0.2037(3)
O13 O 0.2489(5) 0.3042(3) 0.2471(3)
O14 O 0.1062(5) 0.2648(3) 0.3762(3)
O21 O 0.2209(5) 0.7589(3) 0.0423(3)
O22 O 0.2248(5) 0.9429(3) 0.0518(3)
O23 O 0.2286(5) 0.4486(3) 0.0551(3)
O24 O 0.2344(6) 0.2627(4) 0.0469(3)
O26 O 0.3601(8) 0.2321(4) 0.4576(4)
O27 O 0.0562(7) 0.3623(4) 0.6083(3)
O28 O 0.2716(7) 0.2107(5) 0.6313(4)
C1 C 0.1494(6) 0.8246(4) 0.2911(4)
C2 C 0.3005(6) 0.8706(4) 0.2505(4)
C3 C 0.4203(6) 0.8235(4) 0.2245(4)
C4 C 0.5479(6) 0.8771(4) 0.1753(4)
C5 C 0.5546(6) 0.9746(4) 0.1507(4)
C7 C 0.3113(6) 0.9674(4) 0.2297(4)
H3 H 0.2340 0.9972 0.2500
C8 C 0.6871(6) 0.8356(4) 0.1496(4)
C10 C 0.4051(6) 0.7193(4) 0.2434(4)
C11 C 0.4486(6) 0.6849(4) 0.1766(4)
H4 H 0.4900 0.7261 0.1209
C12 C 0.4306(6) 0.5899(4) 0.1924(4)
C13 C 0.3703(6) 0.5277(4) 0.2768(4)
H5 H 0.3602 0.4638 0.2878
C14 C 0.3258(7) 0.5603(4) 0.3435(4)
C15 C 0.3446(7) 0.6571(4) 0.3272(4)
H6 H 0.3167 0.6794 0.3723
C16 C 0.4727(6) 0.5509(4) 0.1208(4)
C17 C 0.2597(8) 0.4924(5) 0.4335(4)
C20 C 0.0234(6) 0.4596(4) 0.2324(4)
H7 H 0.0875 0.4851 0.2553
C21 C 0.0170(6) 0.3628(4) 0.2503(4)
C25 C 0.1331(6) 0.3066(4) 0.2949(4)
O35 O 0.6915(5) 0.3706(3) 0.0650(3)
O36 O 0.6072(5) 0.2870(3) 0.2029(3)
O39 O 0.1315(6) 0.0939(3) 0.5440(3)
H15 H 0.262718 0.200042 0.0467211
H16 H 0.00689247 0.417663 0.575115
H18 H 0.230476 0.693015 0.0805022
H20 H 0.279408 0.50756 0.0109266
H21 H 0.161536 0.42296 0.0285341
H22 H 0.267515 0.255474 0.662117
H23 H 0.236885 0.146996 0.674101
H24 H 0.313224 0.909319 0.0661178
H26 H 0.43352 0.260646 0.477955
H27 H 0.370951 0.163377 0.475946
Nd9 Nd 0.58444(3) 0.67177(2) 0.892086(19)
O34 O 0.4859(6) 0.3905(3) 0.9545(3)
O37 O 0.0157(6) 0.8930(3) 0.9568(3)
H14 H 0.232808 0.305764 0.986285
H19 H 0.209989 0.760877 0.98384
H25 H 0.236962 0.974972 0.987526
O12 O 0.9073(5) 0.6761(3) 0.0907(3)
O17 O 0.9843(6) 0.1070(3) 0.0432(3)
O19 O 0.8243(8) 0.0278(4) 0.4956(3)
O25 O 0.9012(8) 0.3431(5) 0.4701(4)
C18 C 0.9485(6) 0.6212(4) 0.1581(4)
C19 C 0.9348(6) 0.5178(4) 0.1805(4)
C22 C 0.9152(6) 0.3213(4) 0.2216(4)
C23 C 0.8244(6) 0.3804(4) 0.1705(4)
C24 C 0.8379(6) 0.4775(4) 0.1482(4)
H8 H 0.7813 0.5159 0.1111
C26 C 0.7019(7) 0.3415(4) 0.1445(4)
C27 C 0.9081(6) 0.2182(4) 0.2414(4)
C28 C 0.9245(6) 0.1820(4) 0.1743(4)
H9 H 0.9377 0.2234 0.1166
C29 C 0.9215(6) 0.0871(4) 0.1921(4)
C30 C 0.9016(7) 0.0236(4) 0.2786(4)
C31 C 0.8836(7) 0.0582(4) 0.3447(4)
C32 C 0.8863(8) 0.1538(5) 0.3274(4)
H11 H 0.8734 0.1754 0.3734
C33 C 0.9457(6) 0.0485(4) 0.1189(4)
Nd11 Nd 0.88362(4) 0.73878(2) 0.47835(2)
O29 O 0.8998(5) 0.1840(3) 0.6321(3)
O38 O 0.9285(5) 0.9615(3) 0.1390(3)
H12 H 0.918943 0.367012 0.405317
H13 H 0.814524 0.298439 0.494067
H17 H 0.990872 0.326075 0.664465
Nd6 Nd 0.99942(3) 0.17742(2) 0.890882(19)
H1 H 0.7872 0.9875 0.5425
O20 O 0.8685(6) 0.9061(3) 0.4560(3)
H10 H 0.9007 0.9593 0.2911
C34 C 0.8590(9) 0.9898(5) 0.4383(4)
O18 O 0.0715(5) 0.0385(3) 0.8610(3)
H1_2 H 0.2128 0.0125 0.4575
H10_2 H 0.0993 0.0407 0.7089
C34_2 C 0.1410(9) 0.0102(5) 0.5617(4)
O12_2 O 0.0927(5) 0.3239(3) 0.9093(3)
O15 O 0.3085(5) 0.6294(3) 0.9350(3)
O16 O 0.3928(5) 0.7130(3) 0.7971(3)
O19_2 O 0.1757(8) 0.9722(4) 0.5044(3)
O25_2 O 0.0988(8) 0.6569(5) 0.5299(4)
C18_2 C 0.0515(6) 0.3788(4) 0.8419(4)
C19_2 C 0.0652(6) 0.4822(4) 0.8195(4)
C22_2 C 0.0848(6) 0.6787(4) 0.7784(4)
C23_2 C 0.1756(6) 0.6196(4) 0.8295(4)
C24_2 C 0.1621(6) 0.5225(4) 0.8518(4)
H8_2 H 0.2187 0.4841 0.8889
C26_2 C 0.2981(7) 0.6585(4) 0.8555(4)
C27_2 C 0.0919(6) 0.7818(4) 0.7586(4)
C28_2 C 0.0755(6) 0.8180(4) 0.8257(4)
H9_2 H 0.0623 0.7766 0.8834
C29_2 C 0.0785(6) 0.9129(4) 0.8079(4)
C30_2 C 0.0984(7) 0.9764(4) 0.7214(4)
C31_2 C 0.1164(7) 0.9418(4) 0.6553(4)
C32_2 C 0.1137(8) 0.8462(5) 0.6726(4)
H11_2 H 0.1266 0.8246 0.6266
C33_2 C 0.0543(6) 0.9515(4) 0.8811(4)
O30 O 0.2516(5) 0.1356(3) 0.9289(3)
O31 O 0.2526(5) 0.2209(3) 0.7915(3)
H12_2 H 0.081057 0.632988 0.594683
H13_2 H 0.185476 0.701561 0.505933
H17_2 H 0.00912839 0.673925 0.335535
H14_2 H 0.767192 0.694236 0.0137149
H19_2 H 0.790011 0.239123 0.0161601
H25_2 H 0.763038 0.0250282 0.0124745
O1_2 O 0.9178(5) 0.1980(3) 0.7576(3)
O8_2 O 0.5370(6) 0.5345(3) 0.8601(3)
O9_2 O 0.7635(8) 0.5916(3) 0.5607(3)
O10_2 O 0.7681(7) 0.4817(3) 0.5047(3)
O11_2 O 0.9908(5) 0.3471(3) 0.7963(3)
O13_2 O 0.7511(5) 0.6958(3) 0.7529(3)
O14_2 O 0.8938(5) 0.7352(3) 0.6238(3)
O21_2 O 0.7791(5) 0.2411(3) 0.9577(3)
O22_2 O 0.7752(5) 0.0571(3) 0.9482(3)
O23_2 O 0.7714(5) 0.5514(3) 0.9449(3)
O24_2 O 0.7656(6) 0.7373(4) 0.9531(3)
O26_2 O 0.6399(8) 0.7679(4) 0.5424(4)
O27_2 O 0.9438(7) 0.6377(4) 0.3917(3)
O28_2 O 0.7284(7) 0.7893(5) 0.3687(4)
C1_2 C 0.8506(6) 0.1754(4) 0.7089(4)
C2_2 C 0.6995(6) 0.1294(4) 0.7495(4)
C3_2 C 0.5797(6) 0.1765(4) 0.7755(4)
C4_2 C 0.4521(6) 0.1229(4) 0.8247(4)
C5_2 C 0.4454(6) 0.0254(4) 0.8493(4)
C7_2 C 0.6887(6) 0.0326(4) 0.7703(4)
H3_2 H 0.7660 0.0028 0.7500
C8_2 C 0.3129(6) 0.1644(4) 0.8504(4)
C10_2 C 0.5949(6) 0.2807(4) 0.7566(4)
C11_2 C 0.5514(6) 0.3151(4) 0.8234(4)
H4_2 H 0.5100 0.2739 0.8791
C12_2 C 0.5694(6) 0.4101(4) 0.8076(4)
C13_2 C 0.6297(6) 0.4723(4) 0.7232(4)
H5_2 H 0.6398 0.5362 0.7122
C14_2 C 0.6742(7) 0.4397(4) 0.6565(4)
C15_2 C 0.6554(7) 0.3429(4) 0.6728(4)
H6_2 H 0.6833 0.3206 0.6277
C16_2 C 0.5273(6) 0.4491(4) 0.8792(4)
C17_2 C 0.7403(8) 0.5076(5) 0.5665(4)
C20_2 C 0.9766(6) 0.5404(4) 0.7676(4)
H7_2 H 0.9125 0.5149 0.7447
C21_2 C 0.9830(6) 0.6372(4) 0.7497(4)
C25_2 C 0.8669(6) 0.6934(4) 0.7051(4)
O32 O 0.4672(5) 0.8226(3) 0.9136(3)
O33 O 0.6499(5) 0.8403(3) 0.8056(3)
H15_2 H 0.737282 0.799958 0.953279
H16_2 H 0.993108 0.582337 0.424885
H18_2 H 0.769524 0.306985 0.919498
H20_2 H 0.720592 0.49244 0.989073
H21_2 H 0.838464 0.57704 0.971466
H22_2 H 0.732485 0.744526 0.337883
H23_2 H 0.763115 0.853004 0.325899
H24_2 H 0.686776 0.0906812 0.933882
H26_2 H 0.56648 0.739354 0.522045
H27_2 H 0.629049 0.836623 0.524054
H2_2 H 0.3616 0.9905 0.8846
C6_2 C 0.5607(6) 0.9802(4) 0.8221(4)
C9_2 C 0.5562(7) 0.8747(4) 0.8490(4)
loop_
_geom_bond_atom_site_label_1
_geom_bond_atom_site_label_2
_geom_bond_site_symmetry_1
_geom_bond_site_symmetry_2
O5 C9 1_555 1_555
O6 C9 1_555 1_555
C9 C6 1_555 1_555
Nd8 O5 1_555 1_555
O6 Nd8 1_555 1_555
Nd5 O1 1_555 1_555
Nd8 O8 1_555 1_555
Nd3 O9 1_555 1_555
O1 C1 1_555 1_555
O2 C1 1_555 1_555
O3 C8 1_555 1_555
O4 C8 1_555 1_555
O7 C16 1_555 1_555
O8 C16 1_555 1_555
O9 C17 1_555 1_555
O10 C17 1_555 1_555
O11 Nd5 1_555 1_555
O13 Nd8 1_555 1_555
O14 Nd3 1_555 1_555
O21 Nd5 1_555 1_555
O22 Nd5 1_555 1_555
O23 Nd8 1_555 1_555
O24 Nd8 1_555 1_555
O26 Nd3 1_555 1_555
O27 Nd3 1_555 1_555
O28 Nd3 1_555 1_555
C1 C2 1_555 1_555
C2 C3 1_555 1_555
C3 C4 1_555 1_555
C4 C5 1_555 1_555
C7 C2 1_555 1_555
H3 C7 1_555 1_555
C8 C4 1_555 1_555
C10 C3 1_555 1_555
C11 C10 1_555 1_555
H4 C11 1_555 1_555
C12 C11 1_555 1_555
C13 C12 1_555 1_555
H5 C13 1_555 1_555
C14 C13 1_555 1_555
C15 C10 1_555 1_555
H6 C15 1_555 1_555
C16 C12 1_555 1_555
C17 C14 1_555 1_555
H7 C20 1_555 1_555
C21 C20 1_555 1_555
C25 O13 1_555 1_555
O35 Nd8 1_555 1_555
O36 Nd8 1_555 1_555
O39 Nd3 1_555 1_555
O14 C25 1_555 1_555
C14 C15 1_555 1_555
C21 C25 1_555 1_555
O24 H15 1_555 1_555
O27 H16 1_555 1_555
O21 H18 1_555 1_555
O23 H20 1_555 1_555
O23 H21 1_555 1_555
O28 H22 1_555 1_555
O28 H23 1_555 1_555
O22 H24 1_555 1_555
O26 H26 1_555 1_555
O26 H27 1_555 1_555
O35 C26 1_555 1_555
O36 C26 1_555 1_555
O17 C33 1_555 1_555
C19 C18 1_555 1_555
C23 C22 1_555 1_555
C24 C19 1_555 1_555
H8 C24 1_555 1_555
C26 C23 1_555 1_555
C27 C22 1_555 1_555
C28 C27 1_555 1_555
H9 C28 1_555 1_555
C29 C28 1_555 1_555
C30 C29 1_555 1_555
C31 C30 1_555 1_555
C32 C27 1_555 1_555
H11 C32 1_555 1_555
C33 C29 1_555 1_555
O12 C18 1_555 1_555
C23 C24 1_555 1_555
C31 C32 1_555 1_555
O25 H12 1_555 1_555
O25 H13 1_555 1_555
O20 C34 1_555 1_555
Nd11 O20 1_555 1_555
O39 C34_2 1_555 1_555
O15 C26_2 1_555 1_555
O16 C26_2 1_555 1_555
O37 C33_2 1_555 1_555
C19_2 C18_2 1_555 1_555
C23_2 C22_2 1_555 1_555
C24_2 C19_2 1_555 1_555
H8_2 C24_2 1_555 1_555
C26_2 C23_2 1_555 1_555
C27_2 C22_2 1_555 1_555
C28_2 C27_2 1_555 1_555
H9_2 C28_2 1_555 1_555
C29_2 C28_2 1_555 1_555
C30_2 C29_2 1_555 1_555
C31_2 C30_2 1_555 1_555
C32_2 C27_2 1_555 1_555
H11_2 C32_2 1_555 1_555
C33_2 C29_2 1_555 1_555
Nd9 O15 1_555 1_555
O12_2 C18_2 1_555 1_555
O16 Nd9 1_555 1_555
C23_2 C24_2 1_555 1_555
C31_2 C32_2 1_555 1_555
O25_2 H12_2 1_555 1_555
O25_2 H13_2 1_555 1_555
Nd6 O1_2 1_555 1_555
Nd9 O8_2 1_555 1_555
Nd11 O9_2 1_555 1_555
O1_2 C1_2 1_555 1_555
O29 C1_2 1_555 1_555
O30 C8_2 1_555 1_555
O31 C8_2 1_555 1_555
O34 C16_2 1_555 1_555
O8_2 C16_2 1_555 1_555
O9_2 C17_2 1_555 1_555
O10_2 C17_2 1_555 1_555
O11_2 Nd6 1_555 1_555
O13_2 Nd9 1_555 1_555
O14_2 Nd11 1_555 1_555
O21_2 Nd6 1_555 1_555
O22_2 Nd6 1_555 1_555
O23_2 Nd9 1_555 1_555
O24_2 Nd9 1_555 1_555
O26_2 Nd11 1_555 1_555
O27_2 Nd11 1_555 1_555
O28_2 Nd11 1_555 1_555
C1_2 C2_2 1_555 1_555
C2_2 C3_2 1_555 1_555
C3_2 C4_2 1_555 1_555
C4_2 C5_2 1_555 1_555
C7_2 C2_2 1_555 1_555
H3_2 C7_2 1_555 1_555
C8_2 C4_2 1_555 1_555
C10_2 C3_2 1_555 1_555
C11_2 C10_2 1_555 1_555
H4_2 C11_2 1_555 1_555
C12_2 C11_2 1_555 1_555
C13_2 C12_2 1_555 1_555
H5_2 C13_2 1_555 1_555
C14_2 C13_2 1_555 1_555
C15_2 C10_2 1_555 1_555
H6_2 C15_2 1_555 1_555
C16_2 C12_2 1_555 1_555
C17_2 C14_2 1_555 1_555
H7_2 C20_2 1_555 1_555
C21_2 C20_2 1_555 1_555
C25_2 O13_2 1_555 1_555
O32 Nd9 1_555 1_555
O33 Nd9 1_555 1_555
O14_2 C25_2 1_555 1_555
C14_2 C15_2 1_555 1_555
C21_2 C25_2 1_555 1_555
O24_2 H15_2 1_555 1_555
O27_2 H16_2 1_555 1_555
O21_2 H18_2 1_555 1_555
O23_2 H20_2 1_555 1_555
O23_2 H21_2 1_555 1_555
O28_2 H22_2 1_555 1_555
O28_2 H23_2 1_555 1_555
O22_2 H24_2 1_555 1_555
O26_2 H26_2 1_555 1_555
O26_2 H27_2 1_555 1_555
O32 C9_2 1_555 1_555
O33 C9_2 1_555 1_555
C9_2 C6_2 1_555 1_555

#END
