
###############################################################################
#
# This file contains modified crystal structure data generated from the
# MOF subset of the Cambridge Structural Database (CSD) v543 
# hosted by the Cambridge Crystallographic Data Centre (CCDC).
#
# This work is licensed under the Creative Commons
# Attribution-NonCommercial-ShareAlike 4.0 International License.
# To view a copy of this license, visit
# http://creativecommons.org/licenses/by-nc-sa/4.0/
# or send a letter to
# Creative Commons, PO Box 1866, Mountain View, CA 94042, USA.
#
# CIF created using the CSD Python API on 29 September 2022
# The structure has been converted into the P1 space group
# The structure has a 3D framework
# The original CSD entry IYAJUP is in the monoclinic crystal system
# The framework has been calculated to contain at least 10.0% void space
# The void calculation uses a probe of radius 1.32A, grid spacing 0.4
# The framework is charged, counterions have been retained in the structure
# H atom positions have been added when not included in the experimental data
#
###############################################################################

data_IYAJUP
_chemical_formula_moiety         '(C208 H160 Cd7 K7 N8 O89 2-)n'
_symmetry_cell_setting           triclinic
_symmetry_space_group_name_H-M   'P 1'
_symmetry_Int_Tables_number      1
_space_group_name_Hall           'P 1'
loop_
_symmetry_equiv_pos_site_id
_symmetry_equiv_pos_as_xyz
1 x,y,z
_cell_length_a                   19.2145(17)
_cell_length_b                   26.4088(17)
_cell_length_c                   17.7174(12)
_cell_angle_alpha                90
_cell_angle_beta                 118.431(2)
_cell_angle_gamma                90
_cell_volume                     7906.05
loop_
_atom_site_label
_atom_site_type_symbol
_atom_site_fract_x
_atom_site_fract_y
_atom_site_fract_z
Cd9 Cd -0.0000 0.13650(3) 0.7500
K5 K -0.0000 0.66949(8) 0.7500
O34 O 0.0316(2) 0.66489(17) 0.9142(3)
Cd1 Cd 0.89816(2) 0.63320(2) 0.86642(2)
Cd2 Cd 0.5000 0.36350(3) 0.2500
K1 K 0.5000 0.83051(8) 0.2500
K2 K 0.69525(10) 0.40755(8) 0.28858(12)
O1 O 0.9048(2) 0.59087(16) 0.7592(3)
O2 O 0.7842(3) 0.67092(17) 0.7759(3)
O3 O 0.8244(3) 0.40123(17) 0.4305(3)
O4 O 0.9424(3) 0.43331(19) 0.4679(3)
O5 O 0.5316(2) 0.83511(17) 0.4142(3)
O6 O 0.8637(3) 0.7102(2) 0.7359(3)
O7 O 0.6267(3) 0.33175(19) 0.3181(3)
O8 O 0.4613(2) 0.80777(19) 0.4740(3)
O9 O 0.5491(3) 0.2960(2) 0.3612(4)
O10 O 0.8022(3) 0.5480(2) 0.7481(4)
C1 C 0.8544(4) 0.5578(3) 0.7272(4)
C2 C 0.7968(3) 0.7019(3) 0.7281(4)
C3 C 0.8805(4) 0.4314(2) 0.4745(4)
C4 C 0.8253(4) 0.2615(3) 0.5147(4)
H1 H 0.8761 0.2694 0.5247
C5 C 0.6851(4) 0.2746(2) 0.4349(4)
C6 C 0.5872(4) 0.7503(3) 0.5946(4)
H2 H 0.5384 0.7474 0.5932
C7 C 0.9199(4) 0.5334(3) 0.6393(4)
H3 H 0.9583 0.5581 0.6665
C8 C 0.5949(3) 0.7798(2) 0.5348(4)
C9 C 0.6529(3) 0.7247(3) 0.6573(4)
H4 H 0.6478 0.7054 0.6982
C10 C 0.8613(4) 0.5292(3) 0.6632(4)
C11 C 0.6683(4) 0.7829(3) 0.5356(4)
H5 H 0.6734 0.8022 0.4945
C12 C 0.9259(4) 0.5037(2) 0.5780(4)
H6 H 0.9669 0.5091 0.5651
C13 C 0.7329(4) 0.7572(3) 0.5976(4)
H7 H 0.7815 0.7595 0.5983
C14 C 0.7261(3) 0.7279(2) 0.6591(4)
C15 C 0.8705(4) 0.4660(2) 0.5360(4)
C16 C 0.8082(4) 0.4596(3) 0.5539(4)
H8 H 0.7700 0.4351 0.5247
C17 C 0.5253(3) 0.8094(2) 0.4700(4)
O11 O 0.4542(4) 0.4089(3) 0.3268(4)
C18 C 0.6157(4) 0.3022(3) 0.3672(4)
C19 C 0.7608(4) 0.2859(3) 0.4496(4)
H9 H 0.7684 0.3098 0.4157
C20 C 0.8022(4) 0.4894(3) 0.6146(5)
H10 H 0.7599 0.4843 0.6255
C21 C 0.5606(6) 0.5309(4) 0.5526(6)
H11 H 0.6028 0.5516 0.5880
C22 C 0.5052(6) 0.4688(3) 0.4394(5)
C23 C 0.5152(7) 0.4346(3) 0.3744(6)
C24 C 0.5673(6) 0.4999(4) 0.4917(6)
H12 H 0.6134 0.5004 0.4867
O12 O 0.5761(6) 0.4314(4) 0.3741(6)
O13 O 0.8733(3) 0.16825(19) 0.6819(3)
O14 O 0.9509(3) 0.2040(2) 0.6388(4)
C25 C 0.6747(4) 0.2385(3) 0.4853(4)
H13 H 0.6239 0.2306 0.4753
C26 C 0.8149(4) 0.2254(2) 0.5651(4)
C27 C 0.8843(4) 0.1978(3) 0.6328(4)
C28 C 0.7392(4) 0.2141(3) 0.5504(4)
H14 H 0.7316 0.1902 0.5843
O15 O 0.5458(4) 0.5911(3) 0.6732(4)
C29 C 0.4394(6) 0.4691(4) 0.4474(6)
H15 H 0.3972 0.4484 0.4120
C30 C 0.4948(6) 0.5312(3) 0.5606(5)
C31 C 0.4848(7) 0.5654(3) 0.6256(6)
C32 C 0.4327(6) 0.5001(4) 0.5083(6)
H16 H 0.3866 0.4996 0.5133
O16 O 0.4239(6) 0.5686(4) 0.6259(6)
K3 K 0.30475(10) 0.40755(8) 0.21142(12)
O19 O 0.1756(3) 0.40123(17) 0.0695(3)
O20 O 0.0576(3) 0.43331(19) 0.0321(3)
O21 O 0.4684(2) 0.83511(17) 0.0858(3)
O23 O 0.5387(2) 0.80777(19) 0.0260(3)
C35 C 0.1195(4) 0.4314(2) 0.0255(4)
H20 H 0.3266 0.8022 0.0055
C47 C 0.4747(3) 0.8094(2) 0.0300(4)
Cd4 Cd 0.10184(2) 0.36680(2) 0.13358(2)
Cd5 Cd 0.89816(2) 0.36680(2) 0.36642(2)
Cd6 Cd 0.60184(2) 0.86680(2) 0.13358(2)
Cd7 Cd 0.39816(2) 0.86680(2) 0.36642(2)
Cd8 Cd 0.5000 0.63650(3) 0.7500
Cd9_2 Cd 1.0000 0.13650(3) 0.7500
K5_2 K 1.0000 0.66949(8) 0.7500
K7 K 0.30475(10) 0.59245(8) 0.71142(12)
K8 K 0.69525(10) 0.59245(8) 0.78858(12)
K9 K 0.80475(10) 0.09245(8) 0.71142(12)
O25 O 0.5952(2) 0.90913(16) 0.2408(3)
O26 O 0.4048(2) 0.90913(16) 0.2592(3)
O27 O 0.2158(3) 0.32908(17) 0.2241(3)
O28 O 0.7842(3) 0.32908(17) 0.2759(3)
O30 O 0.8244(3) 0.59877(17) 0.9305(3)
O32 O 0.9424(3) 0.56669(19) 0.9679(3)
O35 O 0.6363(3) 0.7898(2) 0.2641(3)
O36 O 0.3637(3) 0.7898(2) 0.2359(3)
O37 O 0.3733(3) 0.33175(19) 0.1819(3)
O39 O 0.9613(2) 0.69223(19) 0.9740(3)
O40 O 0.4509(3) 0.2960(2) 0.1388(4)
O41 O 0.1978(3) 0.4520(2) 0.2519(4)
O42 O 0.8022(3) 0.4520(2) 0.2481(4)
O43 O 0.5458(4) 0.4089(3) 0.1732(4)
O44 O 0.4239(6) 0.4314(4) 0.1259(6)
Cd3 Cd 0.10184(2) 0.63320(2) 0.63358(2)
O17 O 0.0952(2) 0.59087(16) 0.7408(3)
O18 O 0.2158(3) 0.67092(17) 0.7241(3)
O22 O 0.1363(3) 0.7102(2) 0.7641(3)
O24 O 0.1978(3) 0.5480(2) 0.7519(4)
C33 C 0.1456(4) 0.5578(3) 0.7728(4)
C34 C 0.2032(3) 0.7019(3) 0.7719(4)
C36 C 0.4128(4) 0.7503(3) 0.9054(4)
H17 H 0.4616 0.7474 0.9068
C37 C 0.0801(4) 0.5334(3) 0.8607(4)
H18 H 0.0417 0.5581 0.8335
C38 C 0.4051(3) 0.7798(2) 0.9652(4)
C39 C 0.3471(3) 0.7247(3) 0.8427(4)
H19 H 0.3522 0.7054 0.8018
C40 C 0.1387(4) 0.5292(3) 0.8368(4)
C41 C 0.3317(4) 0.7829(3) 0.9644(4)
C42 C 0.0741(4) 0.5037(2) 0.9220(4)
H21 H 0.0331 0.5091 0.9349
C43 C 0.2671(4) 0.7572(3) 0.9024(4)
H22 H 0.2185 0.7595 0.9017
C44 C 0.2739(3) 0.7279(2) 0.8409(4)
C45 C 0.1295(4) 0.4660(2) 0.9640(4)
C46 C 0.1918(4) 0.4596(3) 0.9461(4)
H23 H 0.2300 0.4351 0.9753
C48 C 0.1978(4) 0.4894(3) 0.8854(5)
H24 H 0.2401 0.4843 0.8745
O29 O 0.1756(3) 0.59877(17) 0.5695(3)
O31 O 0.0576(3) 0.56669(19) 0.5321(3)
O38 O 0.0387(2) 0.69223(19) 0.5260(3)
O33 O 0.9684(2) 0.66489(17) 0.5858(3)
C5_2 C 0.3149(4) 0.2746(2) 0.0651(4)
C18_2 C 0.3843(4) 0.3022(3) 0.1328(4)
C19_2 C 0.2392(4) 0.2859(3) 0.0504(4)
H9_2 H 0.2316 0.3098 0.0843
C22_2 C 0.4948(6) 0.4688(3) 0.0606(5)
C23_2 C 0.4848(7) 0.4346(3) 0.1256(6)
C24_2 C 0.4327(6) 0.4999(4) 0.0083(6)
H12_2 H 0.3866 0.5004 0.0133
C25_2 C 0.3253(4) 0.2385(3) 0.0147(4)
H13_2 H 0.3761 0.2306 0.0247
C29_2 C 0.5606(6) 0.4691(4) 0.0526(6)
H15_2 H 0.6028 0.4484 0.0880
C4_2 C 0.1747(4) 0.2615(3) 0.9853(4)
H1_2 H 0.1239 0.2694 0.9753
C21_2 C 0.4394(6) 0.5309(4) 0.9474(6)
H11_2 H 0.3972 0.5516 0.9120
O13_2 O 0.1267(3) 0.16825(19) 0.8181(3)
O14_2 O 0.0491(3) 0.2040(2) 0.8612(4)
C26_2 C 0.1851(4) 0.2254(2) 0.9349(4)
C27_2 C 0.1157(4) 0.1978(3) 0.8672(4)
C28_2 C 0.2608(4) 0.2141(3) 0.9496(4)
H14_2 H 0.2684 0.1902 0.9157
O15_2 O 0.4542(4) 0.5911(3) 0.8268(4)
C30_2 C 0.5052(6) 0.5312(3) 0.9394(5)
C31_2 C 0.5152(7) 0.5654(3) 0.8744(6)
C32_2 C 0.5673(6) 0.5001(4) 0.9917(6)
H16_2 H 0.6134 0.4996 0.9867
O16_2 O 0.5761(6) 0.5686(4) 0.8741(6)
K9_2 K 0.19525(10) 0.09245(8) 0.78858(12)
Cd1_2 Cd 0.39816(2) 0.13320(2) 0.86642(2)
K1_2 K 0.0000 0.33051(8) 0.2500
O1_2 O 0.4048(2) 0.09087(16) 0.7592(3)
O2_2 O 0.2842(3) 0.17092(17) 0.7759(3)
O5_2 O 0.0316(2) 0.33511(17) 0.4142(3)
O6_2 O 0.3637(3) 0.2102(2) 0.7359(3)
O10_2 O 0.3022(3) 0.0480(2) 0.7481(4)
C1_2 C 0.3544(4) 0.0578(3) 0.7272(4)
C2_2 C 0.2968(3) 0.2019(3) 0.7281(4)
C6_2 C 0.0872(4) 0.2503(3) 0.5946(4)
H2_2 H 0.0384 0.2474 0.5932
C7_2 C 0.4199(4) 0.0334(3) 0.6393(4)
H3_2 H 0.4583 0.0581 0.6665
C8_2 C 0.0949(3) 0.2798(2) 0.5348(4)
C9_2 C 0.1529(3) 0.2247(3) 0.6573(4)
H4_2 H 0.1478 0.2054 0.6982
C10_2 C 0.3613(4) 0.0292(3) 0.6632(4)
C11_2 C 0.1683(4) 0.2829(3) 0.5356(4)
H5_2 H 0.1734 0.3022 0.4945
C12_2 C 0.4259(4) 0.0037(2) 0.5780(4)
H6_2 H 0.4669 0.0091 0.5651
C13_2 C 0.2329(4) 0.2572(3) 0.5976(4)
H7_2 H 0.2815 0.2595 0.5983
C14_2 C 0.2261(3) 0.2279(2) 0.6591(4)
C17_2 C 0.0253(3) 0.3094(2) 0.4700(4)
C21_3 C 0.0606(6) 0.0309(4) 0.5526(6)
H11_3 H 0.1028 0.0516 0.5880
H12_3 H 0.1134 0.0004 0.4867
O15_3 O 0.0458(4) 0.0911(3) 0.6732(4)
O23_2 O 0.0387(2) 0.30777(19) 0.0260(3)
K5_3 K 0.5000 0.16949(8) 0.7500
O25_2 O 0.0952(2) 0.40913(16) 0.2408(3)
O30_2 O 0.3244(3) 0.09877(17) 0.9305(3)
O32_2 O 0.4424(3) 0.06669(19) 0.9679(3)
O34_2 O 0.5316(2) 0.16489(17) 0.9142(3)
O35_2 O 0.1363(3) 0.2898(2) 0.2641(3)
O39_2 O 0.4613(2) 0.19223(19) 0.9740(3)
Cd2_2 Cd -0.0000 0.86350(3) 0.2500
K2_2 K 0.19525(10) 0.90755(8) 0.28858(12)
O3_2 O 0.3244(3) 0.90123(17) 0.4305(3)
O4_2 O 0.4424(3) 0.93331(19) 0.4679(3)
O7_2 O 0.1267(3) 0.83175(19) 0.3181(3)
O9_2 O 0.0491(3) 0.7960(2) 0.3612(4)
C3_2 C 0.3805(4) 0.9314(2) 0.4745(4)
C4_3 C 0.3253(4) 0.7615(3) 0.5147(4)
H1_3 H 0.3761 0.7694 0.5247
C5_3 C 0.1851(4) 0.7746(2) 0.4349(4)
C15_2 C 0.3705(4) 0.9660(2) 0.5360(4)
C16_2 C 0.3082(4) 0.9596(3) 0.5539(4)
H8_2 H 0.2700 0.9351 0.5247
C18_3 C 0.1157(4) 0.8022(3) 0.3672(4)
C19_3 C 0.2608(4) 0.7859(3) 0.4496(4)
H9_3 H 0.2684 0.8098 0.4157
C20_2 C 0.3022(4) 0.9894(3) 0.6146(5)
H10_2 H 0.2599 0.9843 0.6255
C22_3 C 0.0052(6) 0.9688(3) 0.4394(5)
C23_3 C 0.0152(7) 0.9346(3) 0.3744(6)
C24_3 C 0.0673(6) 0.9999(4) 0.4917(6)
O12_2 O 0.0761(6) 0.9314(4) 0.3741(6)
O13_3 O 0.3733(3) 0.66825(19) 0.6819(3)
O14_3 O 0.4509(3) 0.7040(2) 0.6388(4)
C25_3 C 0.1747(4) 0.7385(3) 0.4853(4)
H13_3 H 0.1239 0.7306 0.4753
C26_3 C 0.3149(4) 0.7254(2) 0.5651(4)
C27_3 C 0.3843(4) 0.6978(3) 0.6328(4)
C28_3 C 0.2392(4) 0.7141(3) 0.5504(4)
H14_3 H 0.2316 0.6902 0.5843
O28_2 O 0.2842(3) 0.82908(17) 0.2759(3)
O42_2 O 0.3022(3) 0.9520(2) 0.2481(4)
O43_2 O 0.0458(4) 0.9089(3) 0.1732(4)
K1_3 K 1.0000 0.33051(8) 0.2500
O8_2 O 0.9613(2) 0.30777(19) 0.4740(3)
C30_3 C 0.9948(6) 0.0312(3) 0.5606(5)
C31_3 C 0.9848(7) 0.0654(3) 0.6256(6)
C32_3 C 0.9327(6) 0.0001(4) 0.5083(6)
O16_3 O 0.9239(6) 0.0686(4) 0.6259(6)
O21_2 O 0.9684(2) 0.33511(17) 0.0858(3)
H20_2 H 0.8266 0.3022 0.0055
C47_2 C 0.9747(3) 0.3094(2) 0.0300(4)
O26_2 O 0.9048(2) 0.40913(16) 0.2592(3)
O36_2 O 0.8637(3) 0.2898(2) 0.2359(3)
Cd3_2 Cd 0.60184(2) 0.13320(2) 0.63358(2)
O17_2 O 0.5952(2) 0.09087(16) 0.7408(3)
O18_2 O 0.7158(3) 0.17092(17) 0.7241(3)
O22_2 O 0.6363(3) 0.2102(2) 0.7641(3)
O24_2 O 0.6978(3) 0.0480(2) 0.7519(4)
C33_2 C 0.6456(4) 0.0578(3) 0.7728(4)
C34_2 C 0.7032(3) 0.2019(3) 0.7719(4)
C36_2 C 0.9128(4) 0.2503(3) 0.9054(4)
H17_2 H 0.9616 0.2474 0.9068
C37_2 C 0.5801(4) 0.0334(3) 0.8607(4)
H18_2 H 0.5417 0.0581 0.8335
C38_2 C 0.9051(3) 0.2798(2) 0.9652(4)
C39_2 C 0.8471(3) 0.2247(3) 0.8427(4)
H19_2 H 0.8522 0.2054 0.8018
C40_2 C 0.6387(4) 0.0292(3) 0.8368(4)
C41_2 C 0.8317(4) 0.2829(3) 0.9644(4)
C42_2 C 0.5741(4) 0.0037(2) 0.9220(4)
H21_2 H 0.5331 0.0091 0.9349
C43_2 C 0.7671(4) 0.2572(3) 0.9024(4)
H22_2 H 0.7185 0.2595 0.9017
C44_2 C 0.7739(3) 0.2279(2) 0.8409(4)
O29_2 O 0.6756(3) 0.09877(17) 0.5695(3)
O31_2 O 0.5576(3) 0.06669(19) 0.5321(3)
O33_2 O 0.4684(2) 0.16489(17) 0.5858(3)
O38_2 O 0.5387(2) 0.19223(19) 0.5260(3)
Cd2_3 Cd 1.0000 0.86350(3) 0.2500
O11_2 O 0.9542(4) 0.9089(3) 0.3268(4)
C29_3 C 0.9394(6) 0.9691(4) 0.4474(6)
H15_3 H 0.8972 0.9484 0.4120
H16_3 H 0.8866 0.9996 0.5133
K3_2 K 0.80475(10) 0.90755(8) 0.21142(12)
O19_2 O 0.6756(3) 0.90123(17) 0.0695(3)
O20_2 O 0.5576(3) 0.93331(19) 0.0321(3)
C35_2 C 0.6195(4) 0.9314(2) 0.0255(4)
O27_2 O 0.7158(3) 0.82908(17) 0.2241(3)
O37_2 O 0.8733(3) 0.83175(19) 0.1819(3)
O40_2 O 0.9509(3) 0.7960(2) 0.1388(4)
O41_2 O 0.6978(3) 0.9520(2) 0.2519(4)
O44_2 O 0.9239(6) 0.9314(4) 0.1259(6)
C45_2 C 0.6295(4) 0.9660(2) 0.9640(4)
C46_2 C 0.6918(4) 0.9596(3) 0.9461(4)
H23_2 H 0.7300 0.9351 0.9753
C48_2 C 0.6978(4) 0.9894(3) 0.8854(5)
H24_2 H 0.7401 0.9843 0.8745
C30_4 C 0.0052(6) 0.0312(3) 0.9394(5)
C31_4 C 0.0152(7) 0.0654(3) 0.8744(6)
C32_4 C 0.0673(6) 0.0001(4) 0.9917(6)
O16_4 O 0.0761(6) 0.0686(4) 0.8741(6)
C29_4 C 0.0606(6) 0.9691(4) 0.0526(6)
H15_4 H 0.1028 0.9484 0.0880
H16_4 H 0.1134 0.9996 0.9867
H12_4 H 0.8866 0.0004 0.0133
C21_4 C 0.9394(6) 0.0309(4) 0.9474(6)
H11_4 H 0.8972 0.0516 0.9120
O15_4 O 0.9542(4) 0.0911(3) 0.8268(4)
C5_4 C 0.8149(4) 0.7746(2) 0.0651(4)
C18_4 C 0.8843(4) 0.8022(3) 0.1328(4)
C19_4 C 0.7392(4) 0.7859(3) 0.0504(4)
H9_4 H 0.7316 0.8098 0.0843
C22_4 C 0.9948(6) 0.9688(3) 0.0606(5)
C23_4 C 0.9848(7) 0.9346(3) 0.1256(6)
C24_4 C 0.9327(6) 0.9999(4) 0.0083(6)
C25_4 C 0.8253(4) 0.7385(3) 0.0147(4)
H13_4 H 0.8761 0.7306 0.0247
C4_4 C 0.6747(4) 0.7615(3) 0.9853(4)
H1_4 H 0.6239 0.7694 0.9753
O13_4 O 0.6267(3) 0.66825(19) 0.8181(3)
O14_4 O 0.5491(3) 0.7040(2) 0.8612(4)
C26_4 C 0.6851(4) 0.7254(2) 0.9349(4)
C27_4 C 0.6157(4) 0.6978(3) 0.8672(4)
C28_4 C 0.7608(4) 0.7141(3) 0.9496(4)
H14_4 H 0.7684 0.6902 0.9157
C33_3 C 0.8544(4) 0.4422(3) 0.2272(4)
C34_3 C 0.7968(3) 0.2981(3) 0.2281(4)
C36_3 C 0.5872(4) 0.2497(3) 0.0946(4)
H17_3 H 0.5384 0.2526 0.0932
C37_3 C 0.9199(4) 0.4666(3) 0.1393(4)
H18_3 H 0.9583 0.4419 0.1665
C38_3 C 0.5949(3) 0.2202(2) 0.0348(4)
C39_3 C 0.6529(3) 0.2753(3) 0.1573(4)
H19_3 H 0.6478 0.2946 0.1982
C40_3 C 0.8613(4) 0.4708(3) 0.1632(4)
C41_3 C 0.6683(4) 0.2171(3) 0.0356(4)
C42_3 C 0.9259(4) 0.4963(2) 0.0780(4)
H21_3 H 0.9669 0.4909 0.0651
C43_3 C 0.7329(4) 0.2428(3) 0.0976(4)
H22_3 H 0.7815 0.2405 0.0983
C44_3 C 0.7261(3) 0.2721(2) 0.1591(4)
C45_3 C 0.8705(4) 0.5340(2) 0.0360(4)
C46_3 C 0.8082(4) 0.5404(3) 0.0539(4)
H23_3 H 0.7700 0.5649 0.0247
C48_3 C 0.8022(4) 0.5106(3) 0.1146(5)
H24_3 H 0.7599 0.5157 0.1255
C1_3 C 0.1456(4) 0.4422(3) 0.2728(4)
C2_3 C 0.2032(3) 0.2981(3) 0.2719(4)
C3_3 C 0.1195(4) 0.5686(2) 0.5255(4)
C6_3 C 0.4128(4) 0.2497(3) 0.4054(4)
H2_3 H 0.4616 0.2526 0.4068
C7_3 C 0.0801(4) 0.4666(3) 0.3607(4)
H3_3 H 0.0417 0.4419 0.3335
C8_3 C 0.4051(3) 0.2202(2) 0.4652(4)
C9_3 C 0.3471(3) 0.2753(3) 0.3427(4)
H4_3 H 0.3522 0.2946 0.3018
C10_3 C 0.1387(4) 0.4708(3) 0.3368(4)
C11_3 C 0.3317(4) 0.2171(3) 0.4644(4)
H5_3 H 0.3266 0.1978 0.5055
C12_3 C 0.0741(4) 0.4963(2) 0.4220(4)
H6_3 H 0.0331 0.4909 0.4349
C13_3 C 0.2671(4) 0.2428(3) 0.4024(4)
H7_3 H 0.2185 0.2405 0.4017
C14_3 C 0.2739(3) 0.2721(2) 0.3409(4)
C15_3 C 0.1295(4) 0.5340(2) 0.4640(4)
C16_3 C 0.1918(4) 0.5404(3) 0.4461(4)
H8_3 H 0.2300 0.5649 0.4753
C17_3 C 0.4747(3) 0.1906(2) 0.5300(4)
C20_3 C 0.1978(4) 0.5106(3) 0.3854(5)
H10_3 H 0.2401 0.5157 0.3745
C35_3 C 0.8805(4) 0.5686(2) 0.9745(4)
H20_3 H 0.6734 0.1978 0.9945
C47_3 C 0.5253(3) 0.1906(2) 0.9700(4)
C45_4 C 0.3705(4) 0.0340(2) 0.0360(4)
C46_4 C 0.3082(4) 0.0404(3) 0.0539(4)
H23_4 H 0.2700 0.0649 0.0247
C48_4 C 0.3022(4) 0.0106(3) 0.1146(5)
H24_4 H 0.2599 0.0157 0.1255
C35_4 C 0.3805(4) 0.0686(2) 0.9745(4)
C33_4 C 0.3544(4) 0.9422(3) 0.2272(4)
C34_4 C 0.2968(3) 0.7981(3) 0.2281(4)
C36_4 C 0.0872(4) 0.7497(3) 0.0946(4)
H17_4 H 0.0384 0.7526 0.0932
C37_4 C 0.4199(4) 0.9666(3) 0.1393(4)
H18_4 H 0.4583 0.9419 0.1665
C38_4 C 0.0949(3) 0.7202(2) 0.0348(4)
C39_4 C 0.1529(3) 0.7753(3) 0.1573(4)
H19_4 H 0.1478 0.7946 0.1982
C40_4 C 0.3613(4) 0.9708(3) 0.1632(4)
C41_4 C 0.1683(4) 0.7171(3) 0.0356(4)
C42_4 C 0.4259(4) 0.9963(2) 0.0780(4)
H21_4 H 0.4669 0.9909 0.0651
C43_4 C 0.2329(4) 0.7428(3) 0.0976(4)
H22_4 H 0.2815 0.7405 0.0983
C44_4 C 0.2261(3) 0.7721(2) 0.1591(4)
H20_4 H 0.1734 0.6978 0.9945
C47_4 C 0.0253(3) 0.6906(2) 0.9700(4)
C3_4 C 0.6195(4) 0.0686(2) 0.5255(4)
C15_4 C 0.6295(4) 0.0340(2) 0.4640(4)
C16_4 C 0.6918(4) 0.0404(3) 0.4461(4)
H8_4 H 0.7300 0.0649 0.4753
C20_4 C 0.6978(4) 0.0106(3) 0.3854(5)
H10_4 H 0.7401 0.0157 0.3745
C1_4 C 0.6456(4) 0.9422(3) 0.2728(4)
C2_4 C 0.7032(3) 0.7981(3) 0.2719(4)
C6_4 C 0.9128(4) 0.7497(3) 0.4054(4)
H2_4 H 0.9616 0.7526 0.4068
C7_4 C 0.5801(4) 0.9666(3) 0.3607(4)
H3_4 H 0.5417 0.9419 0.3335
C8_4 C 0.9051(3) 0.7202(2) 0.4652(4)
C9_4 C 0.8471(3) 0.7753(3) 0.3427(4)
H4_4 H 0.8522 0.7946 0.3018
C10_4 C 0.6387(4) 0.9708(3) 0.3368(4)
C11_4 C 0.8317(4) 0.7171(3) 0.4644(4)
H5_4 H 0.8266 0.6978 0.5055
C12_4 C 0.5741(4) 0.9963(2) 0.4220(4)
H6_4 H 0.5331 0.9909 0.4349
C13_4 C 0.7671(4) 0.7428(3) 0.4024(4)
H7_4 H 0.7185 0.7405 0.4017
C14_4 C 0.7739(3) 0.7721(2) 0.3409(4)
C17_4 C 0.9747(3) 0.6906(2) 0.5300(4)
N1 N 0.3680(7) 0.6522(4) 0.3674(7)
H25 H 0.3536 0.6636 0.3167
C49 C 0.4318(11) 0.6833(7) 0.4337(13)
H26 H 0.4371 0.7142 0.4083
H27 H 0.4808 0.6649 0.4572
H28 H 0.4190 0.6911 0.4786
C50 C 0.3831(12) 0.6003(5) 0.3721(15)
H29 H 0.3568 0.5860 0.3154
H30 H 0.3640 0.5845 0.4073
H31 H 0.4391 0.5948 0.3966
H32 H 0.320496 0.656388 0.377375
N1_2 N 0.6320(7) 0.6522(4) 0.1326(7)
H25_2 H 0.6464 0.6636 0.1833
C49_2 C 0.5682(11) 0.6833(7) 0.0663(13)
H26_2 H 0.5629 0.7142 0.0917
H27_2 H 0.5192 0.6649 0.0428
H28_2 H 0.5810 0.6911 0.0214
C50_2 C 0.6169(12) 0.6003(5) 0.1279(15)
H29_2 H 0.6432 0.5860 0.1846
H30_2 H 0.6360 0.5845 0.0927
H31_2 H 0.5609 0.5948 0.1034
H32_2 H 0.679504 0.656388 0.122625
N1_3 N 0.8680(7) 0.1522(4) 0.3674(7)
H25_3 H 0.8536 0.1636 0.3167
C49_3 C 0.9318(11) 0.1833(7) 0.4337(13)
H26_3 H 0.9371 0.2142 0.4083
H27_3 H 0.9808 0.1649 0.4572
H28_3 H 0.9190 0.1911 0.4786
C50_3 C 0.8831(12) 0.1003(5) 0.3721(15)
H29_3 H 0.8568 0.0860 0.3154
H30_3 H 0.8640 0.0845 0.4073
H31_3 H 0.9391 0.0948 0.3966
H32_3 H 0.820496 0.156388 0.377375
N1_4 N 0.1320(7) 0.1522(4) 0.1326(7)
H25_4 H 0.1464 0.1636 0.1833
C49_4 C 0.0682(11) 0.1833(7) 0.0663(13)
H26_4 H 0.0629 0.2142 0.0917
H27_4 H 0.0192 0.1649 0.0428
H28_4 H 0.0810 0.1911 0.0214
C50_4 C 0.1169(12) 0.1003(5) 0.1279(15)
H29_4 H 0.1432 0.0860 0.1846
H30_4 H 0.1360 0.0845 0.0927
H31_4 H 0.0609 0.0948 0.1034
H32_4 H 0.179504 0.156388 0.122625
N1_5 N 0.6320(7) 0.3478(4) 0.6326(7)
H25_5 H 0.6464 0.3364 0.6833
C49_5 C 0.5682(11) 0.3167(7) 0.5663(13)
H26_5 H 0.5629 0.2858 0.5917
H27_5 H 0.5192 0.3351 0.5428
H28_5 H 0.5810 0.3089 0.5214
C50_5 C 0.6169(12) 0.3997(5) 0.6279(15)
H29_5 H 0.6432 0.4140 0.6846
H30_5 H 0.6360 0.4155 0.5927
H31_5 H 0.5609 0.4052 0.6034
H32_5 H 0.679504 0.343612 0.622625
N1_6 N 0.3680(7) 0.3478(4) 0.8674(7)
H25_6 H 0.3536 0.3364 0.8167
C49_6 C 0.4318(11) 0.3167(7) 0.9337(13)
H26_6 H 0.4371 0.2858 0.9083
H27_6 H 0.4808 0.3351 0.9572
H28_6 H 0.4190 0.3089 0.9786
C50_6 C 0.3831(12) 0.3997(5) 0.8721(15)
H29_6 H 0.3568 0.4140 0.8154
H30_6 H 0.3640 0.4155 0.9073
H31_6 H 0.4391 0.4052 0.8966
H32_6 H 0.320496 0.343612 0.877375
N1_7 N 0.1320(7) 0.8478(4) 0.6326(7)
H25_7 H 0.1464 0.8364 0.6833
C49_7 C 0.0682(11) 0.8167(7) 0.5663(13)
H26_7 H 0.0629 0.7858 0.5917
H27_7 H 0.0192 0.8351 0.5428
H28_7 H 0.0810 0.8089 0.5214
C50_7 C 0.1169(12) 0.8997(5) 0.6279(15)
H29_7 H 0.1432 0.9140 0.6846
H30_7 H 0.1360 0.9155 0.5927
H31_7 H 0.0609 0.9052 0.6034
H32_7 H 0.179504 0.843612 0.622625
N1_8 N 0.8680(7) 0.8478(4) 0.8674(7)
H25_8 H 0.8536 0.8364 0.8167
C49_8 C 0.9318(11) 0.8167(7) 0.9337(13)
H26_8 H 0.9371 0.7858 0.9083
H27_8 H 0.9808 0.8351 0.9572
H28_8 H 0.9190 0.8089 0.9786
C50_8 C 0.8831(12) 0.8997(5) 0.8721(15)
H29_8 H 0.8568 0.9140 0.8154
H30_8 H 0.8640 0.9155 0.9073
H31_8 H 0.9391 0.9052 0.8966
H32_8 H 0.820496 0.843612 0.877375
loop_
_geom_bond_atom_site_label_1
_geom_bond_atom_site_label_2
_geom_bond_site_symmetry_1
_geom_bond_site_symmetry_2
K5 O34 1_555 1_555
Cd1 O1 1_555 1_555
Cd2 O7 1_555 1_555
K1 O5 1_555 1_555
K2 O3 1_555 1_555
O1 C1 1_555 1_555
O2 Cd1 1_555 1_555
O3 C3 1_555 1_555
O4 C3 1_555 1_555
O5 C17 1_555 1_555
O6 C2 1_555 1_555
O7 K2 1_555 1_555
O8 C17 1_555 1_555
O9 Cd2 1_555 1_555
O10 C1 1_555 1_555
C1 C10 1_555 1_555
C2 O2 1_555 1_555
C3 C15 1_555 1_555
C4 H1 1_555 1_555
C5 C18 1_555 1_555
C6 H2 1_555 1_555
C7 H3 1_555 1_555
C8 C6 1_555 1_555
C9 C6 1_555 1_555
H4 C9 1_555 1_555
C10 C7 1_555 1_555
C11 C8 1_555 1_555
H5 C11 1_555 1_555
C12 C7 1_555 1_555
H6 C12 1_555 1_555
C13 C11 1_555 1_555
H7 C13 1_555 1_555
C14 C2 1_555 1_555
C15 C12 1_555 1_555
C16 C15 1_555 1_555
H8 C16 1_555 1_555
C17 C8 1_555 1_555
O11 Cd2 1_555 1_555
C18 O7 1_555 1_555
C19 C4 1_555 1_555
H9 C19 1_555 1_555
C20 C10 1_555 1_555
H10 C20 1_555 1_555
C21 H11 1_555 1_555
C22 C23 1_555 1_555
C23 O11 1_555 1_555
C24 C21 1_555 1_555
H12 C24 1_555 1_555
O12 Cd2 1_555 1_555
O13 C27 1_555 1_555
O14 C27 1_555 1_555
C25 C5 1_555 1_555
H13 C25 1_555 1_555
C26 C4 1_555 1_555
C27 C26 1_555 1_555
C28 C25 1_555 1_555
H14 C28 1_555 1_555
O15 C31 1_555 1_555
C29 C22 1_555 1_555
H15 C29 1_555 1_555
C30 C21 1_555 1_555
C31 C30 1_555 1_555
C32 C29 1_555 1_555
H16 C32 1_555 1_555
O16 C31 1_555 1_555
K3 O11 1_555 1_555
O19 K3 1_555 1_555
O20 C35 1_555 1_555
O21 K1 1_555 1_555
O23 C47 1_555 1_555
C35 O19 1_555 1_555
C47 O21 1_555 1_555
Cd4 O19 1_555 1_555
Cd5 O3 1_555 1_555
Cd6 O21 1_555 1_555
Cd7 O5 1_555 1_555
Cd8 O15 1_555 1_555
Cd9_2 O13 1_555 1_555
K5_2 O1 1_555 1_555
K7 O16 1_555 1_555
K8 O2 1_555 1_555
K9 O13 1_555 1_555
O25 K1 1_555 1_555
O26 K1 1_555 1_555
O27 K3 1_555 1_555
O28 K2 1_555 1_555
O30 Cd1 1_555 1_555
O32 Cd1 1_555 1_555
O35 K1 1_555 1_555
O36 K1 1_555 1_555
O37 Cd2 1_555 1_555
O39 Cd1 1_555 1_555
O40 Cd2 1_555 1_555
O41 K3 1_555 1_555
O42 K2 1_555 1_555
O43 Cd2 1_555 1_555
O44 Cd2 1_555 1_555
K2 O12 1_555 1_555
K2 O43 1_555 1_555
O4 Cd5 1_555 1_555
O6 K5_2 1_555 1_555
O8 Cd7 1_555 1_555
O9 C18 1_555 1_555
O10 K8 1_555 1_555
C5 C19 1_555 1_555
C9 C14 1_555 1_555
C13 C14 1_555 1_555
C16 C20 1_555 1_555
C22 C24 1_555 1_555
C23 O12 1_555 1_555
O14 Cd9_2 1_555 1_555
C26 C28 1_555 1_555
O15 K8 1_555 1_555
C30 C32 1_555 1_555
O16 Cd8 1_555 1_555
K3 O37 1_555 1_555
K3 O44 1_555 1_555
O20 Cd4 1_555 1_555
O23 Cd6 1_555 1_555
Cd4 O27 1_555 1_555
Cd5 O28 1_555 1_555
Cd6 O25 1_555 1_555
Cd7 O26 1_555 1_555
K8 O30 1_555 1_555
Cd3 O17 1_555 1_555
O17 C33 1_555 1_555
O18 Cd3 1_555 1_555
O22 C34 1_555 1_555
O24 C33 1_555 1_555
C33 C40 1_555 1_555
C34 O18 1_555 1_555
C36 H17 1_555 1_555
C37 H18 1_555 1_555
C38 C36 1_555 1_555
C39 C36 1_555 1_555
H19 C39 1_555 1_555
C40 C37 1_555 1_555
C41 C38 1_555 1_555
C42 C37 1_555 1_555
H21 C42 1_555 1_555
C43 C41 1_555 1_555
H22 C43 1_555 1_555
C44 C34 1_555 1_555
C46 C45 1_555 1_555
H23 C46 1_555 1_555
C48 C40 1_555 1_555
H24 C48 1_555 1_555
K5 O17 1_555 1_555
K7 O18 1_555 1_555
O29 Cd3 1_555 1_555
O31 Cd3 1_555 1_555
O38 Cd3 1_555 1_555
O22 K5 1_555 1_555
O24 K7 1_555 1_555
C39 C44 1_555 1_555
C42 C45 1_555 1_555
C43 C44 1_555 1_555
C46 C48 1_555 1_555
K7 O29 1_555 1_555
K5_2 O33 1_555 1_555
C5_2 C18_2 1_555 1_555
C18_2 O37 1_555 1_555
H9_2 C19_2 1_555 1_555
C22_2 C23_2 1_555 1_555
C23_2 O43 1_555 1_555
H12_2 C24_2 1_555 1_555
C25_2 C5_2 1_555 1_555
H13_2 C25_2 1_555 1_555
C29_2 C22_2 1_555 1_555
H15_2 C29_2 1_555 1_555
O40 C18_2 1_555 1_555
C5_2 C19_2 1_555 1_555
C22_2 C24_2 1_555 1_555
C23_2 O44 1_555 1_555
C4_2 H1_2 1_555 1_555
C21_2 H11_2 1_555 1_555
O13_2 C27_2 1_555 1_555
O14_2 C27_2 1_555 1_555
C26_2 C4_2 1_555 1_555
C27_2 C26_2 1_555 1_555
H14_2 C28_2 1_555 1_555
O15_2 C31_2 1_555 1_555
C30_2 C21_2 1_555 1_555
C31_2 C30_2 1_555 1_555
H16_2 C32_2 1_555 1_555
O16_2 C31_2 1_555 1_555
Cd8 O15_2 1_555 1_555
Cd9 O13_2 1_555 1_555
K8 O16_2 1_555 1_555
K9_2 O13_2 1_555 1_555
O14_2 Cd9 1_555 1_555
C26_2 C28_2 1_555 1_555
O15_2 K7 1_555 1_555
C30_2 C32_2 1_555 1_555
O16_2 Cd8 1_555 1_555
Cd1_2 O1_2 1_555 1_555
K1_2 O5_2 1_555 1_555
O1_2 C1_2 1_555 1_555
O2_2 Cd1_2 1_555 1_555
O5_2 C17_2 1_555 1_555
O6_2 C2_2 1_555 1_555
O10_2 C1_2 1_555 1_555
C1_2 C10_2 1_555 1_555
C2_2 O2_2 1_555 1_555
C6_2 H2_2 1_555 1_555
C7_2 H3_2 1_555 1_555
C8_2 C6_2 1_555 1_555
C9_2 C6_2 1_555 1_555
H4_2 C9_2 1_555 1_555
C10_2 C7_2 1_555 1_555
C11_2 C8_2 1_555 1_555
H5_2 C11_2 1_555 1_555
C12_2 C7_2 1_555 1_555
H6_2 C12_2 1_555 1_555
C13_2 C11_2 1_555 1_555
H7_2 C13_2 1_555 1_555
C14_2 C2_2 1_555 1_555
C17_2 C8_2 1_555 1_555
C21_3 H11_3 1_555 1_555
Cd9 O15_3 1_555 1_555
K5_3 O1_2 1_555 1_555
K9_2 O2_2 1_555 1_555
O25_2 K1_2 1_555 1_555
O30_2 Cd1_2 1_555 1_555
O32_2 Cd1_2 1_555 1_555
O34_2 Cd1_2 1_555 1_555
O35_2 K1_2 1_555 1_555
O39_2 Cd1_2 1_555 1_555
O6_2 K5_3 1_555 1_555
O10_2 K9_2 1_555 1_555
C9_2 C14_2 1_555 1_555
C13_2 C14_2 1_555 1_555
O15_3 K9_2 1_555 1_555
O23_2 Cd4 1_555 1_555
Cd4 O25_2 1_555 1_555
K5_3 O34_2 1_555 1_555
K9_2 O30_2 1_555 1_555
Cd2_2 O7_2 1_555 1_555
K2_2 O3_2 1_555 1_555
O3_2 C3_2 1_555 1_555
O4_2 C3_2 1_555 1_555
O7_2 K2_2 1_555 1_555
O9_2 Cd2_2 1_555 1_555
C3_2 C15_2 1_555 1_555
C4_3 H1_3 1_555 1_555
C5_3 C18_3 1_555 1_555
C16_2 C15_2 1_555 1_555
H8_2 C16_2 1_555 1_555
C18_3 O7_2 1_555 1_555
C19_3 C4_3 1_555 1_555
H9_3 C19_3 1_555 1_555
H10_2 C20_2 1_555 1_555
C22_3 C23_3 1_555 1_555
O12_2 Cd2_2 1_555 1_555
O13_3 C27_3 1_555 1_555
O14_3 C27_3 1_555 1_555
C25_3 C5_3 1_555 1_555
H13_3 C25_3 1_555 1_555
C26_3 C4_3 1_555 1_555
C27_3 C26_3 1_555 1_555
C28_3 C25_3 1_555 1_555
H14_3 C28_3 1_555 1_555
Cd7 O3_2 1_555 1_555
Cd8 O13_3 1_555 1_555
K7 O13_3 1_555 1_555
O28_2 K2_2 1_555 1_555
O42_2 K2_2 1_555 1_555
O43_2 Cd2_2 1_555 1_555
K2_2 O12_2 1_555 1_555
K2_2 O43_2 1_555 1_555
O4_2 Cd7 1_555 1_555
O9_2 C18_3 1_555 1_555
C5_3 C19_3 1_555 1_555
C16_2 C20_2 1_555 1_555
C22_3 C24_3 1_555 1_555
C23_3 O12_2 1_555 1_555
O14_3 Cd8 1_555 1_555
C26_3 C28_3 1_555 1_555
Cd7 O28_2 1_555 1_555
C31_3 C30_3 1_555 1_555
O16_3 C31_3 1_555 1_555
O21_2 K1_3 1_555 1_555
C47_2 O21_2 1_555 1_555
K9 O16_3 1_555 1_555
O26_2 K1_3 1_555 1_555
O36_2 K1_3 1_555 1_555
O8_2 Cd5 1_555 1_555
C30_3 C32_3 1_555 1_555
O16_3 Cd9_2 1_555 1_555
Cd5 O26_2 1_555 1_555
Cd3_2 O17_2 1_555 1_555
O17_2 C33_2 1_555 1_555
O18_2 Cd3_2 1_555 1_555
O22_2 C34_2 1_555 1_555
O24_2 C33_2 1_555 1_555
C33_2 C40_2 1_555 1_555
C34_2 O18_2 1_555 1_555
C36_2 H17_2 1_555 1_555
C37_2 H18_2 1_555 1_555
C38_2 C36_2 1_555 1_555
C39_2 C36_2 1_555 1_555
H19_2 C39_2 1_555 1_555
C40_2 C37_2 1_555 1_555
C41_2 C38_2 1_555 1_555
C42_2 C37_2 1_555 1_555
H21_2 C42_2 1_555 1_555
C43_2 C41_2 1_555 1_555
H22_2 C43_2 1_555 1_555
C44_2 C34_2 1_555 1_555
K5_3 O17_2 1_555 1_555
K9 O18_2 1_555 1_555
O29_2 Cd3_2 1_555 1_555
O31_2 Cd3_2 1_555 1_555
O33_2 Cd3_2 1_555 1_555
O38_2 Cd3_2 1_555 1_555
O22_2 K5_3 1_555 1_555
O24_2 K9 1_555 1_555
C39_2 C44_2 1_555 1_555
C43_2 C44_2 1_555 1_555
K5_3 O33_2 1_555 1_555
K9 O29_2 1_555 1_555
O11_2 Cd2_3 1_555 1_555
H15_3 C29_3 1_555 1_555
K3_2 O11_2 1_555 1_555
O19_2 K3_2 1_555 1_555
O20_2 C35_2 1_555 1_555
C35_2 O19_2 1_555 1_555
Cd6 O19_2 1_555 1_555
O27_2 K3_2 1_555 1_555
O37_2 Cd2_3 1_555 1_555
O40_2 Cd2_3 1_555 1_555
O41_2 K3_2 1_555 1_555
O44_2 Cd2_3 1_555 1_555
K3_2 O37_2 1_555 1_555
K3_2 O44_2 1_555 1_555
O20_2 Cd6 1_555 1_555
Cd6 O27_2 1_555 1_555
C46_2 C45_2 1_555 1_555
H23_2 C46_2 1_555 1_555
H24_2 C48_2 1_555 1_555
C46_2 C48_2 1_555 1_555
C31_4 C30_4 1_555 1_555
O16_4 C31_4 1_555 1_555
K9_2 O16_4 1_555 1_555
C30_4 C32_4 1_555 1_555
O16_4 Cd9 1_555 1_555
H15_4 C29_4 1_555 1_555
C21_4 H11_4 1_555 1_555
Cd9_2 O15_4 1_555 1_555
O15_4 K9 1_555 1_555
C5_4 C18_4 1_555 1_555
C18_4 O37_2 1_555 1_555
H9_4 C19_4 1_555 1_555
C22_4 C23_4 1_555 1_555
C25_4 C5_4 1_555 1_555
H13_4 C25_4 1_555 1_555
O40_2 C18_4 1_555 1_555
C5_4 C19_4 1_555 1_555
C22_4 C24_4 1_555 1_555
C23_4 O44_2 1_555 1_555
C4_4 H1_4 1_555 1_555
O13_4 C27_4 1_555 1_555
O14_4 C27_4 1_555 1_555
C26_4 C4_4 1_555 1_555
C27_4 C26_4 1_555 1_555
H14_4 C28_4 1_555 1_555
Cd8 O13_4 1_555 1_555
K8 O13_4 1_555 1_555
O14_4 Cd8 1_555 1_555
C26_4 C28_4 1_555 1_555
O26_2 C33_3 1_555 1_555
O36_2 C34_3 1_555 1_555
O42 C33_3 1_555 1_555
C33_3 C40_3 1_555 1_555
C34_3 O28 1_555 1_555
C36_3 H17_3 1_555 1_555
C37_3 H18_3 1_555 1_555
C38_3 C36_3 1_555 1_555
C39_3 C36_3 1_555 1_555
H19_3 C39_3 1_555 1_555
C40_3 C37_3 1_555 1_555
C41_3 C38_3 1_555 1_555
C42_3 C37_3 1_555 1_555
H21_3 C42_3 1_555 1_555
C43_3 C41_3 1_555 1_555
H22_3 C43_3 1_555 1_555
C44_3 C34_3 1_555 1_555
C46_3 C45_3 1_555 1_555
H23_3 C46_3 1_555 1_555
C48_3 C40_3 1_555 1_555
H24_3 C48_3 1_555 1_555
C39_3 C44_3 1_555 1_555
C42_3 C45_3 1_555 1_555
C43_3 C44_3 1_555 1_555
C46_3 C48_3 1_555 1_555
O25_2 C1_3 1_555 1_555
O29 C3_3 1_555 1_555
O31 C3_3 1_555 1_555
O33_2 C17_3 1_555 1_555
O35_2 C2_3 1_555 1_555
O38_2 C17_3 1_555 1_555
O41 C1_3 1_555 1_555
C1_3 C10_3 1_555 1_555
C2_3 O27 1_555 1_555
C3_3 C15_3 1_555 1_555
C6_3 H2_3 1_555 1_555
C7_3 H3_3 1_555 1_555
C8_3 C6_3 1_555 1_555
C9_3 C6_3 1_555 1_555
H4_3 C9_3 1_555 1_555
C10_3 C7_3 1_555 1_555
C11_3 C8_3 1_555 1_555
H5_3 C11_3 1_555 1_555
C12_3 C7_3 1_555 1_555
H6_3 C12_3 1_555 1_555
C13_3 C11_3 1_555 1_555
H7_3 C13_3 1_555 1_555
C14_3 C2_3 1_555 1_555
C15_3 C12_3 1_555 1_555
C16_3 C15_3 1_555 1_555
H8_3 C16_3 1_555 1_555
C17_3 C8_3 1_555 1_555
C20_3 C10_3 1_555 1_555
H10_3 C20_3 1_555 1_555
O32 C35_3 1_555 1_555
O39_2 C47_3 1_555 1_555
C35_3 O30 1_555 1_555
C47_3 O34_2 1_555 1_555
C9_3 C14_3 1_555 1_555
C13_3 C14_3 1_555 1_555
C16_3 C20_3 1_555 1_555
C46_4 C45_4 1_555 1_555
H23_4 C46_4 1_555 1_555
H24_4 C48_4 1_555 1_555
C46_4 C48_4 1_555 1_555
O32_2 C35_4 1_555 1_555
C35_4 O30_2 1_555 1_555
O26 C33_4 1_555 1_555
O36 C34_4 1_555 1_555
O42_2 C33_4 1_555 1_555
C33_4 C40_4 1_555 1_555
C34_4 O28_2 1_555 1_555
C36_4 H17_4 1_555 1_555
C37_4 H18_4 1_555 1_555
C38_4 C36_4 1_555 1_555
C39_4 C36_4 1_555 1_555
H19_4 C39_4 1_555 1_555
C40_4 C37_4 1_555 1_555
C41_4 C38_4 1_555 1_555
C42_4 C37_4 1_555 1_555
H21_4 C42_4 1_555 1_555
C43_4 C41_4 1_555 1_555
H22_4 C43_4 1_555 1_555
C44_4 C34_4 1_555 1_555
C39_4 C44_4 1_555 1_555
C43_4 C44_4 1_555 1_555
C47_4 O34 1_555 1_555
O29_2 C3_4 1_555 1_555
O31_2 C3_4 1_555 1_555
C3_4 C15_4 1_555 1_555
C16_4 C15_4 1_555 1_555
H8_4 C16_4 1_555 1_555
H10_4 C20_4 1_555 1_555
C16_4 C20_4 1_555 1_555
O25 C1_4 1_555 1_555
O33 C17_4 1_555 1_555
O35 C2_4 1_555 1_555
O41_2 C1_4 1_555 1_555
C1_4 C10_4 1_555 1_555
C2_4 O27_2 1_555 1_555
C6_4 H2_4 1_555 1_555
C7_4 H3_4 1_555 1_555
C8_4 C6_4 1_555 1_555
C9_4 C6_4 1_555 1_555
H4_4 C9_4 1_555 1_555
C10_4 C7_4 1_555 1_555
C11_4 C8_4 1_555 1_555
H5_4 C11_4 1_555 1_555
C12_4 C7_4 1_555 1_555
H6_4 C12_4 1_555 1_555
C13_4 C11_4 1_555 1_555
H7_4 C13_4 1_555 1_555
C14_4 C2_4 1_555 1_555
C17_4 C8_4 1_555 1_555
C9_4 C14_4 1_555 1_555
C13_4 C14_4 1_555 1_555
N1 H25 1_555 1_555
C49 N1 1_555 1_555
H26 C49 1_555 1_555
H27 C49 1_555 1_555
H28 C49 1_555 1_555
C50 N1 1_555 1_555
H29 C50 1_555 1_555
H30 C50 1_555 1_555
H31 C50 1_555 1_555
N1 H32 1_555 1_555
N1_2 H25_2 1_555 1_555
C49_2 N1_2 1_555 1_555
H26_2 C49_2 1_555 1_555
H27_2 C49_2 1_555 1_555
H28_2 C49_2 1_555 1_555
C50_2 N1_2 1_555 1_555
H29_2 C50_2 1_555 1_555
H30_2 C50_2 1_555 1_555
H31_2 C50_2 1_555 1_555
N1_2 H32_2 1_555 1_555
N1_3 H25_3 1_555 1_555
C49_3 N1_3 1_555 1_555
H26_3 C49_3 1_555 1_555
H27_3 C49_3 1_555 1_555
H28_3 C49_3 1_555 1_555
C50_3 N1_3 1_555 1_555
H29_3 C50_3 1_555 1_555
H30_3 C50_3 1_555 1_555
H31_3 C50_3 1_555 1_555
N1_3 H32_3 1_555 1_555
N1_4 H25_4 1_555 1_555
C49_4 N1_4 1_555 1_555
H26_4 C49_4 1_555 1_555
H27_4 C49_4 1_555 1_555
H28_4 C49_4 1_555 1_555
C50_4 N1_4 1_555 1_555
H29_4 C50_4 1_555 1_555
H30_4 C50_4 1_555 1_555
H31_4 C50_4 1_555 1_555
N1_4 H32_4 1_555 1_555
N1_5 H25_5 1_555 1_555
C49_5 N1_5 1_555 1_555
H26_5 C49_5 1_555 1_555
H27_5 C49_5 1_555 1_555
H28_5 C49_5 1_555 1_555
C50_5 N1_5 1_555 1_555
H29_5 C50_5 1_555 1_555
H30_5 C50_5 1_555 1_555
H31_5 C50_5 1_555 1_555
N1_5 H32_5 1_555 1_555
N1_6 H25_6 1_555 1_555
C49_6 N1_6 1_555 1_555
H26_6 C49_6 1_555 1_555
H27_6 C49_6 1_555 1_555
H28_6 C49_6 1_555 1_555
C50_6 N1_6 1_555 1_555
H29_6 C50_6 1_555 1_555
H30_6 C50_6 1_555 1_555
H31_6 C50_6 1_555 1_555
N1_6 H32_6 1_555 1_555
N1_7 H25_7 1_555 1_555
C49_7 N1_7 1_555 1_555
H26_7 C49_7 1_555 1_555
H27_7 C49_7 1_555 1_555
H28_7 C49_7 1_555 1_555
C50_7 N1_7 1_555 1_555
H29_7 C50_7 1_555 1_555
H30_7 C50_7 1_555 1_555
H31_7 C50_7 1_555 1_555
N1_7 H32_7 1_555 1_555
N1_8 H25_8 1_555 1_555
C49_8 N1_8 1_555 1_555
H26_8 C49_8 1_555 1_555
H27_8 C49_8 1_555 1_555
H28_8 C49_8 1_555 1_555
C50_8 N1_8 1_555 1_555
H29_8 C50_8 1_555 1_555
H30_8 C50_8 1_555 1_555
H31_8 C50_8 1_555 1_555
N1_8 H32_8 1_555 1_555

#END
