
###############################################################################
#
# This file contains modified crystal structure data generated from the
# MOF subset of the Cambridge Structural Database (CSD) v543 
# hosted by the Cambridge Crystallographic Data Centre (CCDC).
#
# This work is licensed under the Creative Commons
# Attribution-NonCommercial-ShareAlike 4.0 International License.
# To view a copy of this license, visit
# http://creativecommons.org/licenses/by-nc-sa/4.0/
# or send a letter to
# Creative Commons, PO Box 1866, Mountain View, CA 94042, USA.
#
# CIF created using the CSD Python API on 29 September 2022
# The structure has been converted into the P1 space group
# The structure has a 3D framework
# The original CSD entry IYAJID is in the monoclinic crystal system
# The framework has been calculated to contain at least 10.0% void space
# The void calculation uses a probe of radius 1.32A, grid spacing 0.4
# The framework is charged, counterions have been retained in the structure
#
###############################################################################

data_IYAJID
_chemical_formula_moiety         '(C192 H96 Cd11 Na14 O93 8-)n'
_symmetry_cell_setting           triclinic
_symmetry_space_group_name_H-M   'P 1'
_symmetry_Int_Tables_number      1
_space_group_name_Hall           'P 1'
loop_
_symmetry_equiv_pos_site_id
_symmetry_equiv_pos_as_xyz
1 x,y,z
_cell_length_a                   18.4148(9)
_cell_length_b                   29.5574(15)
_cell_length_c                   16.3155(8)
_cell_angle_alpha                90
_cell_angle_beta                 119.2690(10)
_cell_angle_gamma                90
_cell_volume                     7746.69
loop_
_atom_site_label
_atom_site_type_symbol
_atom_site_fract_x
_atom_site_fract_y
_atom_site_fract_z
Cd1 Cd 0.095611(17) 0.630631(10) 0.13057(2)
Cd2 Cd 0.5000 0.632537(14) 0.2500
O1 O 0.09089(19) 0.59639(10) 0.2496(2)
O2 O 0.0609(2) 0.43044(12) 0.5327(3)
O5 O 0.36700(18) 0.66394(11) 0.1769(2)
O6 O 0.5561(2) 0.57734(15) 0.3656(3)
O7 O 0.2137(2) 0.57013(13) 0.2782(3)
O8 O 0.1863(2) 0.40501(11) 0.5733(2)
O10 O 0.4519(2) 0.69354(15) 0.1334(3)
O11 O 0.0259(2) 0.68179(13) 0.0095(2)
C1 C 0.2096(3) 0.5032(2) 0.3989(4)
H1 H 0.2555 0.5036 0.3895
O12 O 0.4272(2) 0.59182(13) 0.3274(3)
C2 C 0.3303(3) 0.75673(18) 0.0169(4)
H2 H 0.3844 0.7614 0.0284
C4 C 0.2040(3) 0.47028(19) 0.4566(4)
H4 H 0.2461 0.4489 0.4856
C8 C 0.0750(3) 0.50120(17) 0.4281(4)
H6 H 0.0292 0.5006 0.4376
C9 C 0.4309(3) 0.52751(19) 0.4571(4)
H7 H 0.3843 0.5461 0.4286
C10 C 0.1478(3) 0.53542(16) 0.3554(3)
C11 C 0.1364(3) 0.46928(16) 0.4708(3)
C12 C 0.1524(3) 0.56989(16) 0.2907(3)
C13 C 0.4959(3) 0.53374(18) 0.4387(4)
C15 C 0.2325(3) 0.71572(18) 0.0451(4)
H9 H 0.2208 0.6927 0.0757
C16 C 0.3140(3) 0.72205(17) 0.0626(3)
C17 C 0.5651(3) 0.5059(2) 0.4827(4)
H10 H 0.6094 0.5099 0.4712
C20 C 0.3824(3) 0.69154(17) 0.1287(3)
C21 C 0.0803(3) 0.53405(17) 0.3715(4)
H12 H 0.0383 0.5555 0.3437
C23 C 0.1281(3) 0.43241(16) 0.5305(3)
C24 C 0.4922(3) 0.57014(18) 0.3725(4)
Na1 Na 0.29578(10) 0.61398(6) 0.22518(13)
Na2 Na -0.0000 0.65814(9) 0.2500
O15 O 0.4439(2) 0.42266(15) 0.6344(3)
O16 O 0.5728(2) 0.40818(13) 0.6726(3)
C29 C 0.5691(3) 0.47249(19) 0.5429(4)
H15 H 0.6157 0.4539 0.5714
C30 C 0.5041(3) 0.46626(18) 0.5613(4)
C31 C 0.4349(3) 0.4941(2) 0.5173(4)
H16 H 0.3906 0.4901 0.5288
C32 C 0.5078(3) 0.42986(18) 0.6275(4)
O19 O 0.04112(19) 0.66197(11) 0.4159(2)
O20 O 0.29411(19) 0.82704(11) 0.7785(2)
O23 O 0.3799(2) 0.79523(12) 0.7361(3)
C34 C 0.2484(3) 0.73994(17) 0.6047(3)
H18 H 0.2983 0.7392 0.6033
C36 C 0.1828(3) 0.71284(17) 0.5437(3)
H20 H 0.1889 0.6941 0.5016
C37 C 0.3107(3) 0.79872(15) 0.7319(3)
C38 C 0.1083(3) 0.71338(16) 0.5449(3)
C43 C 0.1009(3) 0.74086(19) 0.6077(4)
H22 H 0.0511 0.7412 0.6094
C44 C 0.2406(3) 0.76793(16) 0.6672(3)
C45 C 0.1657(3) 0.76811(18) 0.6686(4)
H23 H 0.1593 0.7867 0.7107
C47 C 0.0367(3) 0.68374(15) 0.4789(3)
Cd5 Cd 0.095611(17) 0.369369(10) 0.63057(2)
Cd6 Cd 0.404389(17) 0.869369(10) 0.86943(2)
Cd8 Cd 0.5000 0.367463(14) 0.7500
O26 O 0.0609(2) 0.56956(12) 0.0327(3)
O28 O 0.20589(19) 0.67296(11) 0.2215(2)
O30 O 0.63300(18) 0.66394(11) 0.3231(2)
O31 O 0.4439(2) 0.57734(15) 0.1344(3)
O33 O 0.1863(2) 0.59499(11) 0.0733(2)
O35 O 0.1201(2) 0.70477(12) 0.2639(3)
O36 O 0.5481(2) 0.69354(15) 0.3666(3)
O38 O 0.5728(2) 0.59182(13) 0.1726(3)
Na5 Na 0.70422(10) 0.38602(6) 0.77482(13)
Na6 Na 0.29578(10) 0.38602(6) 0.72518(13)
Na8 Na 0.20422(10) 0.88602(6) 0.77482(13)
Na11 Na 0.5000 0.84186(9) 0.7500
O13 O 0.13300(18) 0.83606(11) 0.8231(2)
O14 O 0.0481(2) 0.80646(15) 0.8666(3)
C25 C 0.1697(3) 0.74327(18) 0.9831(4)
H13 H 0.1156 0.7386 0.9716
C26 C 0.2675(3) 0.78428(18) 0.9549(4)
H14 H 0.2792 0.8073 0.9243
C27 C 0.1860(3) 0.77795(17) 0.9374(3)
C28 C 0.1176(3) 0.80846(17) 0.8713(3)
Cd9 Cd 0.0000 0.867463(14) 0.7500
O3 O 0.95888(19) 0.66197(11) 0.0841(2)
C22 C 0.9633(3) 0.68374(15) 0.0211(3)
Na2_2 Na 1.0000 0.65814(9) 0.2500
Cd3 Cd 0.904389(17) 0.630631(10) 0.36943(2)
O17 O 0.90911(19) 0.59639(10) 0.2504(2)
O21 O 0.7863(2) 0.57013(13) 0.2218(3)
O24 O 0.9741(2) 0.68179(13) 0.4905(2)
C33 C 0.7904(3) 0.5032(2) 0.1011(4)
H17 H 0.7445 0.5036 0.1105
C35 C 0.7960(3) 0.47028(19) 0.0434(4)
H19 H 0.7539 0.4489 0.0144
C39 C 0.9250(3) 0.50120(17) 0.0719(4)
H21 H 0.9708 0.5006 0.0624
C40 C 0.8522(3) 0.53542(16) 0.1446(3)
C41 C 0.8636(3) 0.46928(16) 0.0292(3)
C42 C 0.8476(3) 0.56989(16) 0.2093(3)
C46 C 0.9197(3) 0.53405(17) 0.1285(4)
H24 H 0.9617 0.5555 0.1563
Na3 Na 0.70422(10) 0.61398(6) 0.27482(13)
O25 O 0.9391(2) 0.56956(12) 0.4673(3)
O27 O 0.79411(19) 0.67296(11) 0.2785(2)
O32 O 0.8137(2) 0.59499(11) 0.4267(2)
O34 O 0.8799(2) 0.70477(12) 0.2361(3)
O4 O 0.70589(19) 0.82704(11) 0.7215(2)
O9 O 0.6201(2) 0.79523(12) 0.7639(3)
C3 C 0.7516(3) 0.73994(17) 0.8953(3)
H3 H 0.7017 0.7392 0.8967
C5 C 0.8172(3) 0.71284(17) 0.9563(3)
H5 H 0.8111 0.6941 0.9984
C6 C 0.6893(3) 0.79872(15) 0.7681(3)
C7 C 0.8917(3) 0.71338(16) 0.9551(3)
C14 C 0.8991(3) 0.74086(19) 0.8923(4)
H8 H 0.9489 0.7412 0.8906
C18 C 0.7594(3) 0.76793(16) 0.8328(3)
C19 C 0.8343(3) 0.76811(18) 0.8314(4)
H11 H 0.8407 0.7867 0.7893
O18 O 0.9391(2) 0.43044(12) 0.9673(3)
O22 O 0.8137(2) 0.40501(11) 0.9267(2)
C48 C 0.8719(3) 0.43241(16) 0.9695(3)
Cd4 Cd 0.904389(17) 0.369369(10) 0.86943(2)
Cd7 Cd 0.595611(17) 0.869369(10) 0.63057(2)
Cd9_2 Cd 1.0000 0.867463(14) 0.7500
Na9 Na 0.79578(10) 0.88602(6) 0.72518(13)
C2_2 C 0.6697(3) 0.75673(18) 0.4831(4)
H2_2 H 0.6156 0.7614 0.4716
C9_2 C 0.5691(3) 0.52751(19) 0.0429(4)
H7_2 H 0.6157 0.5461 0.0714
C13_2 C 0.5041(3) 0.53374(18) 0.0613(4)
C15_2 C 0.7675(3) 0.71572(18) 0.4549(4)
H9_2 H 0.7792 0.6927 0.4243
C16_2 C 0.6860(3) 0.72205(17) 0.4374(3)
C17_2 C 0.4349(3) 0.5059(2) 0.0173(4)
H10_2 H 0.3906 0.5099 0.0288
C20_2 C 0.6176(3) 0.69154(17) 0.3713(3)
C24_2 C 0.5078(3) 0.57014(18) 0.1275(4)
O13_2 O 0.86700(18) 0.83606(11) 0.6769(2)
O14_2 O 0.9519(2) 0.80646(15) 0.6334(3)
C25_2 C 0.8303(3) 0.74327(18) 0.5169(4)
H13_2 H 0.8844 0.7386 0.5284
C26_2 C 0.7325(3) 0.78428(18) 0.5451(4)
H14_2 H 0.7208 0.8073 0.5757
C27_2 C 0.8140(3) 0.77795(17) 0.5626(3)
C28_2 C 0.8824(3) 0.80846(17) 0.6287(3)
O15_2 O 0.5561(2) 0.42266(15) 0.8656(3)
O16_2 O 0.4272(2) 0.40818(13) 0.8274(3)
C29_2 C 0.4309(3) 0.47249(19) 0.9571(4)
H15_2 H 0.3843 0.4539 0.9286
C30_2 C 0.4959(3) 0.46626(18) 0.9387(4)
C31_2 C 0.5651(3) 0.4941(2) 0.9827(4)
H16_2 H 0.6094 0.4901 0.9712
C32_2 C 0.4922(3) 0.42986(18) 0.8725(4)
Cd2_2 Cd -0.0000 0.132537(14) 0.2500
O6_2 O 0.0561(2) 0.07734(15) 0.3656(3)
C17_3 C 0.0651(3) 0.0059(2) 0.4827(4)
H10_3 H 0.1094 0.0099 0.4712
O30_2 O 0.13300(18) 0.16394(11) 0.3231(2)
O36_2 O 0.0481(2) 0.19354(15) 0.3666(3)
O38_2 O 0.0728(2) 0.09182(13) 0.1726(3)
Na11_2 Na 0.0000 0.34186(9) 0.7500
O16_3 O 0.0728(2) 0.90818(13) 0.6726(3)
C29_3 C 0.0691(3) 0.97249(19) 0.5429(4)
H15_3 H 0.1157 0.9539 0.5714
C30_3 C 0.0041(3) 0.96626(18) 0.5613(4)
C32_3 C 0.0078(3) 0.92986(18) 0.6275(4)
Cd1_2 Cd 0.595611(17) 0.130631(10) 0.13057(2)
Cd2_3 Cd 1.0000 0.132537(14) 0.2500
O1_2 O 0.59089(19) 0.09639(10) 0.2496(2)
O3_2 O 0.45888(19) 0.16197(11) 0.0841(2)
O5_2 O 0.86700(18) 0.16394(11) 0.1769(2)
O7_2 O 0.7137(2) 0.07013(13) 0.2782(3)
O10_2 O 0.9519(2) 0.19354(15) 0.1334(3)
O11_2 O 0.5259(2) 0.18179(13) 0.0095(2)
C1_2 C 0.7096(3) 0.0032(2) 0.3989(4)
H1_2 H 0.7555 0.0036 0.3895
O12_2 O 0.9272(2) 0.09182(13) 0.3274(3)
C2_3 C 0.8303(3) 0.25673(18) 0.0169(4)
H2_3 H 0.8844 0.2614 0.0284
C8_2 C 0.5750(3) 0.00120(17) 0.4281(4)
H6_2 H 0.5292 0.0006 0.4376
C9_3 C 0.9309(3) 0.02751(19) 0.4571(4)
H7_3 H 0.8843 0.0461 0.4286
C10_2 C 0.6478(3) 0.03542(16) 0.3554(3)
C12_2 C 0.6524(3) 0.06989(16) 0.2907(3)
C13_3 C 0.9959(3) 0.03374(18) 0.4387(4)
C15_3 C 0.7325(3) 0.21572(18) 0.0451(4)
H9_3 H 0.7208 0.1927 0.0757
C16_3 C 0.8140(3) 0.22205(17) 0.0626(3)
C20_3 C 0.8824(3) 0.19154(17) 0.1287(3)
C21_2 C 0.5803(3) 0.03405(17) 0.3715(4)
H12_2 H 0.5383 0.0555 0.3437
C22_2 C 0.4633(3) 0.18374(15) 0.0211(3)
C24_3 C 0.9922(3) 0.07014(18) 0.3725(4)
Na1_2 Na 0.79578(10) 0.11398(6) 0.22518(13)
Na2_3 Na 0.5000 0.15814(9) 0.2500
Cd3_2 Cd 0.404389(17) 0.130631(10) 0.36943(2)
O17_2 O 0.40911(19) 0.09639(10) 0.2504(2)
O19_2 O 0.54112(19) 0.16197(11) 0.4159(2)
O20_2 O 0.79411(19) 0.32704(11) 0.7785(2)
O21_2 O 0.2863(2) 0.07013(13) 0.2218(3)
O23_2 O 0.8799(2) 0.29523(12) 0.7361(3)
O24_2 O 0.4741(2) 0.18179(13) 0.4905(2)
C33_2 C 0.2904(3) 0.0032(2) 0.1011(4)
H17_2 H 0.2445 0.0036 0.1105
C34_2 C 0.7484(3) 0.23994(17) 0.6047(3)
H18_2 H 0.7983 0.2392 0.6033
C36_2 C 0.6828(3) 0.21284(17) 0.5437(3)
H20_2 H 0.6889 0.1941 0.5016
C37_2 C 0.8107(3) 0.29872(15) 0.7319(3)
C38_2 C 0.6083(3) 0.21338(16) 0.5449(3)
C39_2 C 0.4250(3) 0.00120(17) 0.0719(4)
H21_2 H 0.4708 0.0006 0.0624
C40_2 C 0.3522(3) 0.03542(16) 0.1446(3)
C42_2 C 0.3476(3) 0.06989(16) 0.2093(3)
C43_2 C 0.6009(3) 0.24086(19) 0.6077(4)
H22_2 H 0.5511 0.2412 0.6094
C44_2 C 0.7406(3) 0.26793(16) 0.6672(3)
C45_2 C 0.6657(3) 0.26811(18) 0.6686(4)
H23_2 H 0.6593 0.2867 0.7107
C46_2 C 0.4197(3) 0.03405(17) 0.1285(4)
H24_2 H 0.4617 0.0555 0.1563
C47_2 C 0.5367(3) 0.18374(15) 0.4789(3)
Na3_2 Na 0.20422(10) 0.11398(6) 0.27482(13)
O25_2 O 0.4391(2) 0.06956(12) 0.4673(3)
O26_2 O 0.5609(2) 0.06956(12) 0.0327(3)
O27_2 O 0.29411(19) 0.17296(11) 0.2785(2)
O28_2 O 0.70589(19) 0.17296(11) 0.2215(2)
O31_2 O 0.9439(2) 0.07734(15) 0.1344(3)
O32_2 O 0.3137(2) 0.09499(11) 0.4267(2)
O33_2 O 0.6863(2) 0.09499(11) 0.0733(2)
O34_2 O 0.3799(2) 0.20477(12) 0.2361(3)
O35_2 O 0.6201(2) 0.20477(12) 0.2639(3)
Na11_3 Na 1.0000 0.34186(9) 0.7500
O4_2 O 0.20589(19) 0.32704(11) 0.7215(2)
O9_2 O 0.1201(2) 0.29523(12) 0.7639(3)
C3_2 C 0.2516(3) 0.23994(17) 0.8953(3)
H3_2 H 0.2017 0.2392 0.8967
C5_2 C 0.3172(3) 0.21284(17) 0.9563(3)
H5_2 H 0.3111 0.1941 0.9984
C6_2 C 0.1893(3) 0.29872(15) 0.7681(3)
C7_2 C 0.3917(3) 0.21338(16) 0.9551(3)
C14_2 C 0.3991(3) 0.24086(19) 0.8923(4)
H8_2 H 0.4489 0.2412 0.8906
C18_2 C 0.2594(3) 0.26793(16) 0.8328(3)
C19_2 C 0.3343(3) 0.26811(18) 0.8314(4)
H11_2 H 0.3407 0.2867 0.7893
O13_3 O 0.63300(18) 0.33606(11) 0.8231(2)
O14_3 O 0.5481(2) 0.30646(15) 0.8666(3)
C25_3 C 0.6697(3) 0.24327(18) 0.9831(4)
H13_3 H 0.6156 0.2386 0.9716
C26_3 C 0.7675(3) 0.28428(18) 0.9549(4)
H14_3 H 0.7792 0.3073 0.9243
C27_3 C 0.6860(3) 0.27795(17) 0.9374(3)
C28_3 C 0.6176(3) 0.30846(17) 0.8713(3)
O2_2 O 0.5609(2) 0.93044(12) 0.5327(3)
O8_2 O 0.6863(2) 0.90501(11) 0.5733(2)
C4_2 C 0.7040(3) 0.97028(19) 0.4566(4)
H4_2 H 0.7461 0.9489 0.4856
C11_2 C 0.6364(3) 0.96928(16) 0.4708(3)
C23_2 C 0.6281(3) 0.93241(16) 0.5305(3)
O15_3 O 0.9439(2) 0.92266(15) 0.6344(3)
C31_3 C 0.9349(3) 0.9941(2) 0.5173(4)
H16_3 H 0.8906 0.9901 0.5288
C35_2 C 0.2960(3) 0.97028(19) 0.0434(4)
H19_2 H 0.2539 0.9489 0.0144
C41_2 C 0.3636(3) 0.96928(16) 0.0292(3)
O18_2 O 0.4391(2) 0.93044(12) 0.9673(3)
O22_2 O 0.3137(2) 0.90501(11) 0.9267(2)
C48_2 C 0.3719(3) 0.93241(16) 0.9695(3)
C2_4 C 0.1697(3) 0.25673(18) 0.4831(4)
H2_4 H 0.1156 0.2614 0.4716
C9_4 C 0.0691(3) 0.02751(19) 0.0429(4)
H7_4 H 0.1157 0.0461 0.0714
C13_4 C 0.0041(3) 0.03374(18) 0.0613(4)
C15_4 C 0.2675(3) 0.21572(18) 0.4549(4)
H9_4 H 0.2792 0.1927 0.4243
C16_4 C 0.1860(3) 0.22205(17) 0.4374(3)
C20_4 C 0.1176(3) 0.19154(17) 0.3713(3)
C24_4 C 0.0078(3) 0.07014(18) 0.1275(4)
O13_4 O 0.36700(18) 0.33606(11) 0.6769(2)
O14_4 O 0.4519(2) 0.30646(15) 0.6334(3)
C25_4 C 0.3303(3) 0.24327(18) 0.5169(4)
H13_4 H 0.3844 0.2386 0.5284
C26_4 C 0.2325(3) 0.28428(18) 0.5451(4)
H14_4 H 0.2208 0.3073 0.5757
C27_4 C 0.3140(3) 0.27795(17) 0.5626(3)
C28_4 C 0.3824(3) 0.30846(17) 0.6287(3)
O15_4 O 0.0561(2) 0.92266(15) 0.8656(3)
C31_4 C 0.0651(3) 0.9941(2) 0.9827(4)
H16_4 H 0.1094 0.9901 0.9712
C17_4 C 0.9349(3) 0.0059(2) 0.0173(4)
H10_4 H 0.8906 0.0099 0.0288
O16_4 O 0.9272(2) 0.90818(13) 0.8274(3)
C29_4 C 0.9309(3) 0.97249(19) 0.9571(4)
H15_4 H 0.8843 0.9539 0.9286
C30_4 C 0.9959(3) 0.96626(18) 0.9387(4)
C32_4 C 0.9922(3) 0.92986(18) 0.8725(4)
C3_3 C 0.2484(3) 0.26006(17) 0.1047(3)
H3_3 H 0.2983 0.2608 0.1033
C5_3 C 0.1828(3) 0.28716(17) 0.0437(3)
H5_3 H 0.1889 0.3059 0.0016
C6_3 C 0.3107(3) 0.20128(15) 0.2319(3)
C7_3 C 0.1083(3) 0.28662(16) 0.0449(3)
C14_3 C 0.1009(3) 0.25914(19) 0.1077(4)
H8_3 H 0.0511 0.2588 0.1094
C18_3 C 0.2406(3) 0.23207(16) 0.1672(3)
C19_3 C 0.1657(3) 0.23189(18) 0.1686(4)
H11_3 H 0.1593 0.2133 0.2107
C48_3 C 0.1281(3) 0.56759(16) 0.0305(3)
O3_3 O 0.04112(19) 0.33803(11) 0.9159(2)
C22_3 C 0.0367(3) 0.31626(15) 0.9789(3)
O17_3 O 0.09089(19) 0.40361(10) 0.7496(2)
O21_3 O 0.2137(2) 0.42987(13) 0.7782(3)
O24_3 O 0.0259(2) 0.31821(13) 0.5095(2)
C33_3 C 0.2096(3) 0.4968(2) 0.8989(4)
H17_3 H 0.2555 0.4964 0.8895
C35_3 C 0.2040(3) 0.52972(19) 0.9566(4)
H19_3 H 0.2461 0.5511 0.9856
C39_3 C 0.0750(3) 0.49880(17) 0.9281(4)
H21_3 H 0.0292 0.4994 0.9376
C40_3 C 0.1478(3) 0.46458(16) 0.8554(3)
C41_3 C 0.1364(3) 0.53072(16) 0.9708(3)
C42_3 C 0.1524(3) 0.43011(16) 0.7907(3)
C46_3 C 0.0803(3) 0.46595(17) 0.8715(4)
H24_3 H 0.0383 0.4445 0.8437
O1_3 O 0.90911(19) 0.40361(10) 0.7504(2)
O7_3 O 0.7863(2) 0.42987(13) 0.7218(3)
O11_3 O 0.9741(2) 0.31821(13) 0.9905(2)
C1_3 C 0.7904(3) 0.4968(2) 0.6011(4)
H1_3 H 0.7445 0.4964 0.6105
C4_3 C 0.7960(3) 0.52972(19) 0.5434(4)
H4_3 H 0.7539 0.5511 0.5144
C8_3 C 0.9250(3) 0.49880(17) 0.5719(4)
H6_3 H 0.9708 0.4994 0.5624
C10_3 C 0.8522(3) 0.46458(16) 0.6446(3)
C11_3 C 0.8636(3) 0.53072(16) 0.5292(3)
C12_3 C 0.8476(3) 0.43011(16) 0.7093(3)
C21_3 C 0.9197(3) 0.46595(17) 0.6285(4)
H12_3 H 0.9617 0.4445 0.6563
C23_3 C 0.8719(3) 0.56759(16) 0.4695(3)
O19_3 O 0.95888(19) 0.33803(11) 0.5841(2)
C34_3 C 0.7516(3) 0.26006(17) 0.3953(3)
H18_3 H 0.7017 0.2608 0.3967
C36_3 C 0.8172(3) 0.28716(17) 0.4563(3)
H20_3 H 0.8111 0.3059 0.4984
C37_3 C 0.6893(3) 0.20128(15) 0.2681(3)
C38_3 C 0.8917(3) 0.28662(16) 0.4551(3)
C43_3 C 0.8991(3) 0.25914(19) 0.3923(4)
H22_3 H 0.9489 0.2588 0.3906
C44_3 C 0.7594(3) 0.23207(16) 0.3328(3)
C45_3 C 0.8343(3) 0.23189(18) 0.3314(4)
H23_3 H 0.8407 0.2133 0.2893
C47_3 C 0.9633(3) 0.31626(15) 0.5211(3)
C48_4 C 0.6281(3) 0.06759(16) 0.0305(3)
C4_4 C 0.2960(3) 0.02972(19) 0.5434(4)
H4_4 H 0.2539 0.0511 0.5144
C11_4 C 0.3636(3) 0.03072(16) 0.5292(3)
C23_4 C 0.3719(3) 0.06759(16) 0.4695(3)
C35_4 C 0.7040(3) 0.02972(19) 0.9566(4)
H19_4 H 0.7461 0.0511 0.9856
C41_4 C 0.6364(3) 0.03072(16) 0.9708(3)
C3_4 C 0.7484(3) 0.76006(17) 0.1047(3)
H3_4 H 0.7983 0.7608 0.1033
C5_4 C 0.6828(3) 0.78716(17) 0.0437(3)
H5_4 H 0.6889 0.8059 0.0016
C6_4 C 0.8107(3) 0.70128(15) 0.2319(3)
C7_4 C 0.6083(3) 0.78662(16) 0.0449(3)
C14_4 C 0.6009(3) 0.75914(19) 0.1077(4)
H8_4 H 0.5511 0.7588 0.1094
C18_4 C 0.7406(3) 0.73207(16) 0.1672(3)
C19_4 C 0.6657(3) 0.73189(18) 0.1686(4)
H11_4 H 0.6593 0.7133 0.2107
O1_4 O 0.40911(19) 0.90361(10) 0.7504(2)
O3_4 O 0.54112(19) 0.83803(11) 0.9159(2)
O7_4 O 0.2863(2) 0.92987(13) 0.7218(3)
O11_4 O 0.4741(2) 0.81821(13) 0.9905(2)
C1_4 C 0.2904(3) 0.9968(2) 0.6011(4)
H1_4 H 0.2445 0.9964 0.6105
C8_4 C 0.4250(3) 0.99880(17) 0.5719(4)
H6_4 H 0.4708 0.9994 0.5624
C10_4 C 0.3522(3) 0.96458(16) 0.6446(3)
C12_4 C 0.3476(3) 0.93011(16) 0.7093(3)
C21_4 C 0.4197(3) 0.96595(17) 0.6285(4)
H12_4 H 0.4617 0.9445 0.6563
C22_4 C 0.5367(3) 0.81626(15) 0.9789(3)
O17_4 O 0.59089(19) 0.90361(10) 0.7496(2)
O19_4 O 0.45888(19) 0.83803(11) 0.5841(2)
O21_4 O 0.7137(2) 0.92987(13) 0.7782(3)
O24_4 O 0.5259(2) 0.81821(13) 0.5095(2)
C33_4 C 0.7096(3) 0.9968(2) 0.8989(4)
H17_4 H 0.7555 0.9964 0.8895
C34_4 C 0.2516(3) 0.76006(17) 0.3953(3)
H18_4 H 0.2017 0.7608 0.3967
C36_4 C 0.3172(3) 0.78716(17) 0.4563(3)
H20_4 H 0.3111 0.8059 0.4984
C37_4 C 0.1893(3) 0.70128(15) 0.2681(3)
C38_4 C 0.3917(3) 0.78662(16) 0.4551(3)
C39_4 C 0.5750(3) 0.99880(17) 0.9281(4)
H21_4 H 0.5292 0.9994 0.9376
C40_4 C 0.6478(3) 0.96458(16) 0.8554(3)
C42_4 C 0.6524(3) 0.93011(16) 0.7907(3)
C43_4 C 0.3991(3) 0.75914(19) 0.3923(4)
H22_4 H 0.4489 0.7588 0.3906
C44_4 C 0.2594(3) 0.73207(16) 0.3328(3)
C45_4 C 0.3343(3) 0.73189(18) 0.3314(4)
H23_4 H 0.3407 0.7133 0.2893
C46_4 C 0.5803(3) 0.96595(17) 0.8715(4)
H24_4 H 0.5383 0.9445 0.8437
C47_4 C 0.4633(3) 0.81626(15) 0.5211(3)
loop_
_geom_bond_atom_site_label_1
_geom_bond_atom_site_label_2
_geom_bond_site_symmetry_1
_geom_bond_site_symmetry_2
Cd1 O1 1_555 1_555
Cd2 O5 1_555 1_555
O1 C12 1_555 1_555
O2 C23 1_555 1_555
O5 C20 1_555 1_555
O6 Cd2 1_555 1_555
O7 C12 1_555 1_555
O8 C23 1_555 1_555
O10 Cd2 1_555 1_555
O11 Cd1 1_555 1_555
C1 H1 1_555 1_555
O12 Cd2 1_555 1_555
C2 H2 1_555 1_555
C4 C1 1_555 1_555
H4 C4 1_555 1_555
C8 H6 1_555 1_555
C9 H7 1_555 1_555
C10 C1 1_555 1_555
C11 C4 1_555 1_555
C12 C10 1_555 1_555
C13 C9 1_555 1_555
C15 H9 1_555 1_555
C16 C2 1_555 1_555
C17 C13 1_555 1_555
H10 C17 1_555 1_555
C20 O10 1_555 1_555
C21 C8 1_555 1_555
H12 C21 1_555 1_555
C23 C11 1_555 1_555
C24 O6 1_555 1_555
Na1 O5 1_555 1_555
Na2 O1 1_555 1_555
O15 C32 1_555 1_555
O16 C32 1_555 1_555
C29 C17 1_555 1_555
H15 C29 1_555 1_555
C30 C29 1_555 1_555
C31 C9 1_555 1_555
H16 C31 1_555 1_555
C32 C30 1_555 1_555
O19 Na2 1_555 1_555
O20 C37 1_555 1_555
O23 C37 1_555 1_555
C34 H18 1_555 1_555
C36 C34 1_555 1_555
H20 C36 1_555 1_555
C37 C44 1_555 1_555
C38 C36 1_555 1_555
C43 C38 1_555 1_555
H22 C43 1_555 1_555
C44 C34 1_555 1_555
C45 C43 1_555 1_555
H23 C45 1_555 1_555
C47 O19 1_555 1_555
Cd5 O2 1_555 1_555
Cd6 O20 1_555 1_555
Cd8 O15 1_555 1_555
O26 Cd1 1_555 1_555
O28 Cd1 1_555 1_555
O30 Cd2 1_555 1_555
O31 Cd2 1_555 1_555
O33 Cd1 1_555 1_555
O35 Na2 1_555 1_555
O36 Cd2 1_555 1_555
O38 Cd2 1_555 1_555
Na5 O16 1_555 1_555
Na6 O8 1_555 1_555
Na8 O20 1_555 1_555
Na11 O23 1_555 1_555
O7 Na1 1_555 1_555
O8 Cd5 1_555 1_555
O12 C24 1_555 1_555
O12 Na1 1_555 1_555
C8 C11 1_555 1_555
C10 C21 1_555 1_555
C13 C24 1_555 1_555
C15 C16 1_555 1_555
C16 C20 1_555 1_555
Na1 O28 1_555 1_555
Na1 O33 1_555 1_555
O16 Cd8 1_555 1_555
C30 C31 1_555 1_555
C38 C47 1_555 1_555
C44 C45 1_555 1_555
O13 C28 1_555 1_555
O14 C28 1_555 1_555
H13 C25 1_555 1_555
H14 C26 1_555 1_555
C27 C25 1_555 1_555
C28 C27 1_555 1_555
Cd9 O13 1_555 1_555
Na8 O13 1_555 1_555
O14 Cd9 1_555 1_555
C26 C27 1_555 1_555
C22 O3 1_555 1_555
Cd3 O17 1_555 1_555
O17 Na2_2 1_555 1_555
O21 C42 1_555 1_555
O24 Cd3 1_555 1_555
C33 H17 1_555 1_555
C35 C33 1_555 1_555
H19 C35 1_555 1_555
C39 H21 1_555 1_555
C40 C33 1_555 1_555
C41 C35 1_555 1_555
C42 O17 1_555 1_555
C46 C39 1_555 1_555
H24 C46 1_555 1_555
Na3 O21 1_555 1_555
O25 Cd3 1_555 1_555
O27 Cd3 1_555 1_555
O30 Na3 1_555 1_555
O32 Cd3 1_555 1_555
O34 Na2_2 1_555 1_555
O38 Na3 1_555 1_555
O3 Na2_2 1_555 1_555
C39 C41 1_555 1_555
C40 C42 1_555 1_555
C40 C46 1_555 1_555
Na3 O27 1_555 1_555
Na3 O32 1_555 1_555
O4 C6 1_555 1_555
O9 C6 1_555 1_555
C3 H3 1_555 1_555
C5 C3 1_555 1_555
H5 C5 1_555 1_555
C6 C18 1_555 1_555
C7 C5 1_555 1_555
C14 C7 1_555 1_555
H8 C14 1_555 1_555
C18 C3 1_555 1_555
C19 C14 1_555 1_555
H11 C19 1_555 1_555
O18 C48 1_555 1_555
O22 C48 1_555 1_555
Cd4 O18 1_555 1_555
Cd7 O4 1_555 1_555
Na5 O22 1_555 1_555
Na9 O4 1_555 1_555
Na11 O9 1_555 1_555
C18 C19 1_555 1_555
O22 Cd4 1_555 1_555
O30 C20_2 1_555 1_555
C2_2 H2_2 1_555 1_555
C9_2 H7_2 1_555 1_555
C13_2 C9_2 1_555 1_555
C15_2 H9_2 1_555 1_555
C16_2 C2_2 1_555 1_555
C17_2 C13_2 1_555 1_555
H10_2 C17_2 1_555 1_555
C20_2 O36 1_555 1_555
C24_2 O31 1_555 1_555
O13_2 C28_2 1_555 1_555
O14_2 C28_2 1_555 1_555
C25_2 C15_2 1_555 1_555
H13_2 C25_2 1_555 1_555
C26_2 C2_2 1_555 1_555
H14_2 C26_2 1_555 1_555
C27_2 C25_2 1_555 1_555
C28_2 C27_2 1_555 1_555
Cd9_2 O13_2 1_555 1_555
Na9 O13_2 1_555 1_555
O38 C24_2 1_555 1_555
C13_2 C24_2 1_555 1_555
C15_2 C16_2 1_555 1_555
C16_2 C20_2 1_555 1_555
O14_2 Cd9_2 1_555 1_555
C26_2 C27_2 1_555 1_555
O15_2 C32_2 1_555 1_555
O16_2 C32_2 1_555 1_555
H15_2 C29_2 1_555 1_555
C30_2 C29_2 1_555 1_555
H16_2 C31_2 1_555 1_555
C32_2 C30_2 1_555 1_555
Cd8 O15_2 1_555 1_555
Na6 O16_2 1_555 1_555
O16_2 Cd8 1_555 1_555
C30_2 C31_2 1_555 1_555
O6_2 Cd2_2 1_555 1_555
H10_3 C17_3 1_555 1_555
O30_2 Cd2_2 1_555 1_555
O36_2 Cd2_2 1_555 1_555
O38_2 Cd2_2 1_555 1_555
O16_3 C32_3 1_555 1_555
H15_3 C29_3 1_555 1_555
C30_3 C29_3 1_555 1_555
C32_3 C30_3 1_555 1_555
Na8 O16_3 1_555 1_555
O16_3 Cd9 1_555 1_555
Cd1_2 O1_2 1_555 1_555
Cd2_3 O5_2 1_555 1_555
O1_2 C12_2 1_555 1_555
O3_2 Cd1_2 1_555 1_555
O5_2 C20_3 1_555 1_555
O7_2 C12_2 1_555 1_555
O10_2 Cd2_3 1_555 1_555
O11_2 Cd1_2 1_555 1_555
C1_2 H1_2 1_555 1_555
O12_2 Cd2_3 1_555 1_555
C2_3 H2_3 1_555 1_555
C8_2 H6_2 1_555 1_555
C9_3 H7_3 1_555 1_555
C10_2 C1_2 1_555 1_555
C12_2 C10_2 1_555 1_555
C13_3 C9_3 1_555 1_555
C15_3 H9_3 1_555 1_555
C16_3 C2_3 1_555 1_555
C20_3 O10_2 1_555 1_555
C21_2 C8_2 1_555 1_555
H12_2 C21_2 1_555 1_555
C22_2 O3_2 1_555 1_555
Na1_2 O5_2 1_555 1_555
Na2_3 O1_2 1_555 1_555
Cd3_2 O17_2 1_555 1_555
O17_2 Na2_3 1_555 1_555
O19_2 Na2_3 1_555 1_555
O20_2 C37_2 1_555 1_555
O21_2 C42_2 1_555 1_555
O23_2 C37_2 1_555 1_555
O24_2 Cd3_2 1_555 1_555
C33_2 H17_2 1_555 1_555
C34_2 H18_2 1_555 1_555
C36_2 C34_2 1_555 1_555
H20_2 C36_2 1_555 1_555
C37_2 C44_2 1_555 1_555
C38_2 C36_2 1_555 1_555
C39_2 H21_2 1_555 1_555
C40_2 C33_2 1_555 1_555
C42_2 O17_2 1_555 1_555
C43_2 C38_2 1_555 1_555
H22_2 C43_2 1_555 1_555
C44_2 C34_2 1_555 1_555
C45_2 C43_2 1_555 1_555
H23_2 C45_2 1_555 1_555
C46_2 C39_2 1_555 1_555
H24_2 C46_2 1_555 1_555
C47_2 O19_2 1_555 1_555
Na3_2 O21_2 1_555 1_555
Cd4 O20_2 1_555 1_555
O25_2 Cd3_2 1_555 1_555
O26_2 Cd1_2 1_555 1_555
O27_2 Cd3_2 1_555 1_555
O28_2 Cd1_2 1_555 1_555
O30_2 Na3_2 1_555 1_555
O31_2 Cd2_3 1_555 1_555
O32_2 Cd3_2 1_555 1_555
O33_2 Cd1_2 1_555 1_555
O34_2 Na2_3 1_555 1_555
O35_2 Na2_3 1_555 1_555
O38_2 Na3_2 1_555 1_555
Na5 O20_2 1_555 1_555
Na11_3 O23_2 1_555 1_555
O3_2 Na2_3 1_555 1_555
O7_2 Na1_2 1_555 1_555
O11_2 C22_2 1_555 1_555
O12_2 C24_3 1_555 1_555
O12_2 Na1_2 1_555 1_555
C10_2 C21_2 1_555 1_555
C13_3 C24_3 1_555 1_555
C15_3 C16_3 1_555 1_555
C16_3 C20_3 1_555 1_555
Na1_2 O28_2 1_555 1_555
Na1_2 O33_2 1_555 1_555
Cd3_2 O19_2 1_555 1_555
O24_2 C47_2 1_555 1_555
C38_2 C47_2 1_555 1_555
C40_2 C42_2 1_555 1_555
C40_2 C46_2 1_555 1_555
C44_2 C45_2 1_555 1_555
Na3_2 O27_2 1_555 1_555
Na3_2 O32_2 1_555 1_555
O4_2 C6_2 1_555 1_555
O9_2 C6_2 1_555 1_555
C3_2 H3_2 1_555 1_555
C5_2 C3_2 1_555 1_555
H5_2 C5_2 1_555 1_555
C6_2 C18_2 1_555 1_555
C7_2 C5_2 1_555 1_555
C14_2 C7_2 1_555 1_555
H8_2 C14_2 1_555 1_555
C18_2 C3_2 1_555 1_555
C19_2 C14_2 1_555 1_555
H11_2 C19_2 1_555 1_555
O13_3 C28_3 1_555 1_555
O14_3 C28_3 1_555 1_555
H13_3 C25_3 1_555 1_555
H14_3 C26_3 1_555 1_555
C27_3 C25_3 1_555 1_555
C28_3 C27_3 1_555 1_555
Cd5 O4_2 1_555 1_555
Cd8 O13_3 1_555 1_555
Na5 O13_3 1_555 1_555
Na6 O4_2 1_555 1_555
Na11_2 O9_2 1_555 1_555
C18_2 C19_2 1_555 1_555
O14_3 Cd8 1_555 1_555
C26_3 C27_3 1_555 1_555
O2_2 C23_2 1_555 1_555
O8_2 C23_2 1_555 1_555
H4_2 C4_2 1_555 1_555
C11_2 C4_2 1_555 1_555
C23_2 C11_2 1_555 1_555
H16_3 C31_3 1_555 1_555
H19_2 C35_2 1_555 1_555
C41_2 C35_2 1_555 1_555
Cd7 O2_2 1_555 1_555
Cd9_2 O15_3 1_555 1_555
Na9 O8_2 1_555 1_555
O8_2 Cd7 1_555 1_555
O18_2 C48_2 1_555 1_555
O22_2 C48_2 1_555 1_555
Cd6 O18_2 1_555 1_555
Na8 O22_2 1_555 1_555
O22_2 Cd6 1_555 1_555
O30_2 C20_4 1_555 1_555
C2_4 H2_4 1_555 1_555
C9_4 H7_4 1_555 1_555
C13_4 C9_4 1_555 1_555
C15_4 H9_4 1_555 1_555
C16_4 C2_4 1_555 1_555
C20_4 O36_2 1_555 1_555
O13_4 C28_4 1_555 1_555
O14_4 C28_4 1_555 1_555
C25_4 C15_4 1_555 1_555
H13_4 C25_4 1_555 1_555
C26_4 C2_4 1_555 1_555
H14_4 C26_4 1_555 1_555
C27_4 C25_4 1_555 1_555
C28_4 C27_4 1_555 1_555
Cd8 O13_4 1_555 1_555
Na6 O13_4 1_555 1_555
O38_2 C24_4 1_555 1_555
C13_4 C24_4 1_555 1_555
C15_4 C16_4 1_555 1_555
C16_4 C20_4 1_555 1_555
O14_4 Cd8 1_555 1_555
C26_4 C27_4 1_555 1_555
H16_4 C31_4 1_555 1_555
Cd9 O15_4 1_555 1_555
H10_4 C17_4 1_555 1_555
O16_4 C32_4 1_555 1_555
H15_4 C29_4 1_555 1_555
C30_4 C29_4 1_555 1_555
C32_4 C30_4 1_555 1_555
Na9 O16_4 1_555 1_555
O16_4 Cd9_2 1_555 1_555
O27_2 C6_3 1_555 1_555
O34_2 C6_3 1_555 1_555
C3_3 H3_3 1_555 1_555
C5_3 C3_3 1_555 1_555
H5_3 C5_3 1_555 1_555
C6_3 C18_3 1_555 1_555
C7_3 C5_3 1_555 1_555
C14_3 C7_3 1_555 1_555
H8_3 C14_3 1_555 1_555
C18_3 C3_3 1_555 1_555
C19_3 C14_3 1_555 1_555
H11_3 C19_3 1_555 1_555
O26 C48_3 1_555 1_555
O33 C48_3 1_555 1_555
C18_3 C19_3 1_555 1_555
C22_3 O3_3 1_555 1_555
Cd5 O17_3 1_555 1_555
O17_3 Na11_2 1_555 1_555
O21_3 C42_3 1_555 1_555
O24_3 Cd5 1_555 1_555
C33_3 H17_3 1_555 1_555
C35_3 C33_3 1_555 1_555
H19_3 C35_3 1_555 1_555
C39_3 H21_3 1_555 1_555
C40_3 C33_3 1_555 1_555
C41_3 C35_3 1_555 1_555
C42_3 O17_3 1_555 1_555
C46_3 C39_3 1_555 1_555
H24_3 C46_3 1_555 1_555
Na6 O21_3 1_555 1_555
O3_3 Na11_2 1_555 1_555
C39_3 C41_3 1_555 1_555
C40_3 C42_3 1_555 1_555
C40_3 C46_3 1_555 1_555
Cd4 O1_3 1_555 1_555
O1_3 C12_3 1_555 1_555
O25 C23_3 1_555 1_555
O7_3 C12_3 1_555 1_555
O32 C23_3 1_555 1_555
O11_3 Cd4 1_555 1_555
C1_3 H1_3 1_555 1_555
C4_3 C1_3 1_555 1_555
H4_3 C4_3 1_555 1_555
C8_3 H6_3 1_555 1_555
C10_3 C1_3 1_555 1_555
C11_3 C4_3 1_555 1_555
C12_3 C10_3 1_555 1_555
C21_3 C8_3 1_555 1_555
H12_3 C21_3 1_555 1_555
C23_3 C11_3 1_555 1_555
Na11_3 O1_3 1_555 1_555
O19_3 Na11_3 1_555 1_555
O28_2 C37_3 1_555 1_555
O35_2 C37_3 1_555 1_555
C34_3 H18_3 1_555 1_555
C36_3 C34_3 1_555 1_555
H20_3 C36_3 1_555 1_555
C37_3 C44_3 1_555 1_555
C38_3 C36_3 1_555 1_555
C43_3 C38_3 1_555 1_555
H22_3 C43_3 1_555 1_555
C44_3 C34_3 1_555 1_555
C45_3 C43_3 1_555 1_555
H23_3 C45_3 1_555 1_555
C47_3 O19_3 1_555 1_555
O7_3 Na5 1_555 1_555
C8_3 C11_3 1_555 1_555
C10_3 C21_3 1_555 1_555
C38_3 C47_3 1_555 1_555
C44_3 C45_3 1_555 1_555
O26_2 C48_4 1_555 1_555
O33_2 C48_4 1_555 1_555
O25_2 C23_4 1_555 1_555
O32_2 C23_4 1_555 1_555
H4_4 C4_4 1_555 1_555
C11_4 C4_4 1_555 1_555
C23_4 C11_4 1_555 1_555
H19_4 C35_4 1_555 1_555
C41_4 C35_4 1_555 1_555
O27 C6_4 1_555 1_555
O34 C6_4 1_555 1_555
C3_4 H3_4 1_555 1_555
C5_4 C3_4 1_555 1_555
H5_4 C5_4 1_555 1_555
C6_4 C18_4 1_555 1_555
C7_4 C5_4 1_555 1_555
C14_4 C7_4 1_555 1_555
H8_4 C14_4 1_555 1_555
C18_4 C3_4 1_555 1_555
C19_4 C14_4 1_555 1_555
H11_4 C19_4 1_555 1_555
C18_4 C19_4 1_555 1_555
Cd6 O1_4 1_555 1_555
O1_4 C12_4 1_555 1_555
O3_4 Cd6 1_555 1_555
O7_4 C12_4 1_555 1_555
O11_4 Cd6 1_555 1_555
C1_4 H1_4 1_555 1_555
C8_4 H6_4 1_555 1_555
C10_4 C1_4 1_555 1_555
C12_4 C10_4 1_555 1_555
C21_4 C8_4 1_555 1_555
H12_4 C21_4 1_555 1_555
C22_4 O3_4 1_555 1_555
Na11 O1_4 1_555 1_555
Cd7 O17_4 1_555 1_555
O17_4 Na11 1_555 1_555
O19_4 Na11 1_555 1_555
O28 C37_4 1_555 1_555
O21_4 C42_4 1_555 1_555
O35 C37_4 1_555 1_555
O24_4 Cd7 1_555 1_555
C33_4 H17_4 1_555 1_555
C34_4 H18_4 1_555 1_555
C36_4 C34_4 1_555 1_555
H20_4 C36_4 1_555 1_555
C37_4 C44_4 1_555 1_555
C38_4 C36_4 1_555 1_555
C39_4 H21_4 1_555 1_555
C40_4 C33_4 1_555 1_555
C42_4 O17_4 1_555 1_555
C43_4 C38_4 1_555 1_555
H22_4 C43_4 1_555 1_555
C44_4 C34_4 1_555 1_555
C45_4 C43_4 1_555 1_555
H23_4 C45_4 1_555 1_555
C46_4 C39_4 1_555 1_555
H24_4 C46_4 1_555 1_555
C47_4 O19_4 1_555 1_555
Na9 O21_4 1_555 1_555
O3_4 Na11 1_555 1_555
O7_4 Na8 1_555 1_555
O11_4 C22_4 1_555 1_555
C10_4 C21_4 1_555 1_555
Cd7 O19_4 1_555 1_555
O24_4 C47_4 1_555 1_555
C38_4 C47_4 1_555 1_555
C40_4 C42_4 1_555 1_555
C40_4 C46_4 1_555 1_555
C44_4 C45_4 1_555 1_555

#END
