
###############################################################################
#
# This file contains modified crystal structure data generated from the
# MOF subset of the Cambridge Structural Database (CSD) v543 
# hosted by the Cambridge Crystallographic Data Centre (CCDC).
#
# This work is licensed under the Creative Commons
# Attribution-NonCommercial-ShareAlike 4.0 International License.
# To view a copy of this license, visit
# http://creativecommons.org/licenses/by-nc-sa/4.0/
# or send a letter to
# Creative Commons, PO Box 1866, Mountain View, CA 94042, USA.
#
# CIF created using the CSD Python API on 29 September 2022
# The structure has been converted into the P1 space group
# The structure has a 3D framework
# The original CSD entry IYAJOJ is in the monoclinic crystal system
# The framework has been calculated to contain at least 10.0% void space
# The void calculation uses a probe of radius 1.32A, grid spacing 0.4
# The framework is charged, counterions have been retained in the structure
#
###############################################################################

data_IYAJOJ
_chemical_formula_moiety         '(C192 H96 Cd11 K4 Na8 O89 12-)n'
_symmetry_cell_setting           triclinic
_symmetry_space_group_name_H-M   'P 1'
_symmetry_Int_Tables_number      1
_space_group_name_Hall           'P 1'
loop_
_symmetry_equiv_pos_site_id
_symmetry_equiv_pos_as_xyz
1 x,y,z
_cell_length_a                   18.9895(13)
_cell_length_b                   28.481(2)
_cell_length_c                   16.9587(18)
_cell_angle_alpha                90
_cell_angle_beta                 119.896(2)
_cell_angle_gamma                90
_cell_volume                     7951.45
loop_
_atom_site_label
_atom_site_type_symbol
_atom_site_fract_x
_atom_site_fract_y
_atom_site_fract_z
Cd1 Cd 0.40033(2) 0.630520(15) 0.37225(3)
Cd2 Cd 0.0000 0.63247(2) 0.2500
K1 K 0.5000 0.66301(8) 0.2500
Na1 Na 0.20235(14) 0.60864(11) 0.28182(19)
O2 O 0.4059(3) 0.59183(16) 0.2623(3)
O3 O 0.2883(4) 0.5626(2) 0.2320(4)
O4 O 0.2879(3) 0.67119(16) 0.2804(3)
O8 O 0.3684(3) 0.70583(19) 0.2397(4)
C1 C 0.3469(5) 0.5640(3) 0.2210(5)
C3 C 0.3015(4) 0.6997(2) 0.2333(5)
C4 C 0.3523(4) 0.5301(2) 0.1546(5)
C6 C 0.2352(4) 0.7565(3) 0.1023(5)
H2 H 0.2838 0.7566 0.0991
C8 C 0.1580(4) 0.7281(3) 0.1680(5)
H3 H 0.1529 0.7084 0.2100
C10 C 0.0988(4) 0.7835(2) 0.0450(4)
O12 O 0.0734(4) 0.5898(2) 0.1772(4)
C11 C 0.1699(4) 0.7835(3) 0.0425(5)
C12 C 0.2946(5) 0.4962(3) 0.1115(5)
H5 H 0.2500 0.4940 0.1220
C14 C 0.4204(5) 0.5023(3) 0.0762(5)
H7 H 0.4639 0.5050 0.0639
C15 C 0.4146(5) 0.5340(3) 0.1363(5)
H8 H 0.4539 0.5581 0.1642
C16 C 0.2301(4) 0.7292(2) 0.1667(5)
C17 C 0.3635(4) 0.4675(2) 0.0353(5)
C19 C 0.0933(4) 0.7556(3) 0.1084(5)
H9 H 0.0445 0.7553 0.1109
C20 C 0.3006(5) 0.4651(3) 0.0530(6)
H10 H 0.2604 0.4414 0.0244
C21 C 0.0052(5) 0.5328(3) 0.0628(5)
C23 C 0.0704(5) 0.5248(3) 0.0503(6)
H12 H 0.1193 0.5420 0.0854
C24 C 0.0096(5) 0.5686(3) 0.1304(6)
O22 O 0.0343(3) 0.81429(18) 0.5111(3)
Cd6 Cd 0.09967(2) 0.869480(15) 0.62775(3)
K4 K 0.0000 0.83699(8) 0.7500
O26 O 0.4384(3) 0.56874(19) 0.4740(4)
O27 O 0.5941(3) 0.59183(16) 0.2377(3)
O29 O 0.4660(3) 0.66193(17) 0.0770(3)
O30 O 0.5340(3) 0.66193(17) 0.4230(3)
O32 O 0.4657(3) 0.68571(18) 0.4889(3)
O34 O 0.3156(3) 0.59525(17) 0.4296(3)
O35 O 0.6316(3) 0.70583(19) 0.2603(4)
O36 O 0.1306(3) 0.66346(16) 0.3236(3)
O37 O 0.0528(4) 0.5754(2) 0.3640(4)
O38 O 0.0500(3) 0.6957(2) 0.3655(4)
O1 O 0.4384(3) 0.43126(19) 0.9740(4)
O5 O 0.0340(3) 0.83807(17) 0.9230(3)
O7 O 0.3156(3) 0.40475(17) 0.9296(3)
C7 C 0.3731(4) 0.4325(2) 0.9750(4)
C9 C 0.0278(4) 0.8135(2) 0.9813(5)
H4 H 0.1743 0.8024 0.9990
O15 O 0.0528(4) 0.4246(2) 0.8640(4)
C30 C 0.0661(5) 0.4929(3) 0.9887(5)
H15 H 0.1115 0.4880 0.9806
Cd5 Cd 0.40033(2) 0.369480(15) 0.87225(3)
Cd8 Cd 0.0000 0.36753(2) 0.7500
Na5 Na 0.20235(14) 0.39136(11) 0.78182(19)
Cd2_2 Cd 1.0000 0.63247(2) 0.2500
O9 O 0.8694(3) 0.66346(16) 0.1764(3)
O10 O 0.9472(4) 0.5754(2) 0.1360(4)
O11 O 0.9500(3) 0.6957(2) 0.1345(4)
C2 C 0.8272(4) 0.7575(3) 0.0162(5)
H1 H 0.8807 0.7628 0.0271
C5 C 0.8139(4) 0.7224(2) 0.0625(4)
C13 C 0.7350(4) 0.7150(3) 0.0456(5)
H6 H 0.7245 0.6909 0.0769
C18 C 0.8819(4) 0.6919(2) 0.1291(5)
C22 C 0.9339(5) 0.5071(3) 0.0113(5)
H11 H 0.8885 0.5120 0.0194
Cd3 Cd 0.59967(2) 0.630520(15) 0.12775(3)
Na2 Na 0.79765(14) 0.60864(11) 0.21818(19)
O17 O 0.5616(3) 0.43126(19) 0.5260(4)
O19 O 0.7117(4) 0.5626(2) 0.2680(4)
O20 O 0.7121(3) 0.67119(16) 0.2196(3)
O21 O 0.9660(3) 0.83807(17) 0.5770(3)
O23 O 0.6844(3) 0.40475(17) 0.5704(3)
C33 C 0.6531(5) 0.5640(3) 0.2790(5)
C34 C 0.6985(4) 0.6997(2) 0.2667(5)
C35 C 0.6477(4) 0.5301(2) 0.3454(5)
C36 C 0.7648(4) 0.7565(3) 0.3977(5)
H17 H 0.7162 0.7566 0.4009
C37 C 0.6269(4) 0.4325(2) 0.5250(4)
C38 C 0.8420(4) 0.7281(3) 0.3320(5)
H18 H 0.8471 0.7084 0.2900
C39 C 0.9722(4) 0.8135(2) 0.5187(5)
C40 C 0.9012(4) 0.7835(2) 0.4550(4)
C41 C 0.8301(4) 0.7835(3) 0.4575(5)
H19 H 0.8257 0.8024 0.5010
C42 C 0.7054(5) 0.4962(3) 0.3885(5)
H20 H 0.7500 0.4940 0.3780
C43 C 0.5796(5) 0.5023(3) 0.4238(5)
H21 H 0.5361 0.5050 0.4361
C44 C 0.5854(5) 0.5340(3) 0.3637(5)
H22 H 0.5461 0.5581 0.3358
C45 C 0.7699(4) 0.7292(2) 0.3333(5)
C46 C 0.6365(4) 0.4675(2) 0.4647(5)
C47 C 0.9067(4) 0.7556(3) 0.3916(5)
H23 H 0.9555 0.7553 0.3891
C48 C 0.6994(5) 0.4651(3) 0.4470(6)
H24 H 0.7396 0.4414 0.4756
Cd4 Cd 0.59967(2) 0.369480(15) 0.62775(3)
K4_2 K 1.0000 0.83699(8) 0.7500
Na4 Na 0.79765(14) 0.39136(11) 0.71818(19)
O25 O 0.5616(3) 0.56874(19) 0.0260(4)
O31 O 0.5343(3) 0.68571(18) 0.0111(3)
O33 O 0.6844(3) 0.59525(17) 0.0704(3)
O39 O 0.9266(4) 0.5898(2) 0.3228(4)
O6 O 0.9657(3) 0.81429(18) 0.9889(3)
O13 O 0.6306(3) 0.83654(16) 0.8236(3)
O14 O 0.5500(3) 0.8043(2) 0.8655(4)
C25 C 0.6728(4) 0.7425(3) 0.9838(5)
H13 H 0.6193 0.7372 0.9729
C26 C 0.6861(4) 0.7776(2) 0.9375(4)
C27 C 0.7650(4) 0.7850(3) 0.9544(5)
H14 H 0.7755 0.8091 0.9231
C28 C 0.6181(4) 0.8081(2) 0.8709(5)
O16 O 0.9266(4) 0.4102(2) 0.8228(4)
C29 C 0.9948(5) 0.4672(3) 0.9372(5)
C31 C 0.9296(5) 0.4752(3) 0.9497(6)
H16 H 0.8807 0.4580 0.9146
C32 C 0.9904(5) 0.4314(3) 0.8696(6)
Cd7 Cd 0.90033(2) 0.869480(15) 0.87225(3)
Cd8_2 Cd 1.0000 0.36753(2) 0.7500
Cd9 Cd 0.5000 0.86753(2) 0.7500
Na6 Na 0.70235(14) 0.89136(11) 0.78182(19)
C2_2 C 0.1728(4) 0.7575(3) 0.4838(5)
H1_2 H 0.1193 0.7628 0.4729
C5_2 C 0.1861(4) 0.7224(2) 0.4375(4)
C13_2 C 0.2650(4) 0.7150(3) 0.4544(5)
H6_2 H 0.2755 0.6909 0.4231
C18_2 C 0.1181(4) 0.6919(2) 0.3709(5)
C22_2 C 0.0661(5) 0.5071(3) 0.4887(5)
H11_2 H 0.1115 0.5120 0.4806
O13_2 O 0.3694(3) 0.83654(16) 0.6764(3)
O14_2 O 0.4500(3) 0.8043(2) 0.6345(4)
C25_2 C 0.3272(4) 0.7425(3) 0.5162(5)
H13_2 H 0.3807 0.7372 0.5271
C26_2 C 0.3139(4) 0.7776(2) 0.5625(4)
C27_2 C 0.2350(4) 0.7850(3) 0.5456(5)
H14_2 H 0.2245 0.8091 0.5769
C28_2 C 0.3819(4) 0.8081(2) 0.6291(5)
O16_2 O 0.0734(4) 0.4102(2) 0.6772(4)
C29_2 C 0.0052(5) 0.4672(3) 0.5628(5)
C31_2 C 0.0704(5) 0.4752(3) 0.5503(6)
H16_2 H 0.1193 0.4580 0.5854
C32_2 C 0.0096(5) 0.4314(3) 0.6304(6)
Na6_2 Na 0.29765(14) 0.89136(11) 0.71818(19)
C21_2 C 0.9948(5) 0.5328(3) 0.4372(5)
C23_2 C 0.9296(5) 0.5248(3) 0.4497(6)
H12_2 H 0.8807 0.5420 0.4146
C24_2 C 0.9904(5) 0.5686(3) 0.3696(6)
O15_2 O 0.9472(4) 0.4246(2) 0.6360(4)
C30_2 C 0.9339(5) 0.4929(3) 0.5113(5)
H15_2 H 0.8885 0.4880 0.5194
K1_2 K 0.0000 0.16301(8) 0.2500
O27_2 O 0.0941(3) 0.09183(16) 0.2377(3)
O30_2 O 0.0340(3) 0.16193(17) 0.4230(3)
O35_2 O 0.1316(3) 0.20583(19) 0.2603(4)
Cd1_2 Cd 0.90033(2) 0.130520(15) 0.37225(3)
Cd2_3 Cd 0.5000 0.13247(2) 0.2500
K1_3 K 1.0000 0.16301(8) 0.2500
Na1_2 Na 0.70235(14) 0.10864(11) 0.28182(19)
O2_2 O 0.9059(3) 0.09183(16) 0.2623(3)
O3_2 O 0.7883(4) 0.0626(2) 0.2320(4)
O4_2 O 0.7879(3) 0.17119(16) 0.2804(3)
O8_2 O 0.8684(3) 0.20583(19) 0.2397(4)
O9_2 O 0.3694(3) 0.16346(16) 0.1764(3)
O10_2 O 0.4472(4) 0.0754(2) 0.1360(4)
O11_2 O 0.4500(3) 0.1957(2) 0.1345(4)
C1_2 C 0.8469(5) 0.0640(3) 0.2210(5)
C2_3 C 0.3272(4) 0.2575(3) 0.0162(5)
H1_3 H 0.3807 0.2628 0.0271
C3_2 C 0.8015(4) 0.1997(2) 0.2333(5)
C4_2 C 0.8523(4) 0.0301(2) 0.1546(5)
C5_3 C 0.3139(4) 0.2224(2) 0.0625(4)
C6_2 C 0.7352(4) 0.2565(3) 0.1023(5)
H2_2 H 0.7838 0.2566 0.0991
C8_2 C 0.6580(4) 0.2281(3) 0.1680(5)
H3_2 H 0.6529 0.2084 0.2100
C10_2 C 0.5988(4) 0.2835(2) 0.0450(4)
O12_2 O 0.5734(4) 0.0898(2) 0.1772(4)
C11_2 C 0.6699(4) 0.2835(3) 0.0425(5)
C13_3 C 0.2350(4) 0.2150(3) 0.0456(5)
H6_3 H 0.2245 0.1909 0.0769
C14_2 C 0.9204(5) 0.0023(3) 0.0762(5)
H7_2 H 0.9639 0.0050 0.0639
C15_2 C 0.9146(5) 0.0340(3) 0.1363(5)
H8_2 H 0.9539 0.0581 0.1642
C16_2 C 0.7301(4) 0.2292(2) 0.1667(5)
C18_3 C 0.3819(4) 0.1919(2) 0.1291(5)
C19_2 C 0.5933(4) 0.2556(3) 0.1084(5)
H9_2 H 0.5445 0.2553 0.1109
C21_3 C 0.5052(5) 0.0328(3) 0.0628(5)
C22_3 C 0.4339(5) 0.0071(3) 0.0113(5)
H11_3 H 0.3885 0.0120 0.0194
C23_3 C 0.5704(5) 0.0248(3) 0.0503(6)
H12_3 H 0.6193 0.0420 0.0854
C24_3 C 0.5096(5) 0.0686(3) 0.1304(6)
Cd3_2 Cd 0.09967(2) 0.130520(15) 0.12775(3)
Na2_2 Na 0.29765(14) 0.10864(11) 0.21818(19)
O19_2 O 0.2117(4) 0.0626(2) 0.2680(4)
O20_2 O 0.2121(3) 0.17119(16) 0.2196(3)
O21_2 O 0.4660(3) 0.33807(17) 0.5770(3)
O22_2 O 0.5343(3) 0.31429(18) 0.5111(3)
C33_2 C 0.1531(5) 0.0640(3) 0.2790(5)
C34_2 C 0.1985(4) 0.1997(2) 0.2667(5)
C35_2 C 0.1477(4) 0.0301(2) 0.3454(5)
C36_2 C 0.2648(4) 0.2565(3) 0.3977(5)
H17_2 H 0.2162 0.2566 0.4009
C38_2 C 0.3420(4) 0.2281(3) 0.3320(5)
H18_2 H 0.3471 0.2084 0.2900
C39_2 C 0.4722(4) 0.3135(2) 0.5187(5)
C40_2 C 0.4012(4) 0.2835(2) 0.4550(4)
C41_2 C 0.3301(4) 0.2835(3) 0.4575(5)
H19_2 H 0.3257 0.3024 0.5010
C43_2 C 0.0796(5) 0.0023(3) 0.4238(5)
H21_2 H 0.0361 0.0050 0.4361
C44_2 C 0.0854(5) 0.0340(3) 0.3637(5)
H22_2 H 0.0461 0.0581 0.3358
C45_2 C 0.2699(4) 0.2292(2) 0.3333(5)
C47_2 C 0.4067(4) 0.2556(3) 0.3916(5)
H23_2 H 0.4555 0.2553 0.3891
K4_3 K 0.5000 0.33699(8) 0.7500
O25_2 O 0.0616(3) 0.06874(19) 0.0260(4)
O26_2 O 0.9384(3) 0.06874(19) 0.4740(4)
O29_2 O 0.9660(3) 0.16193(17) 0.0770(3)
O31_2 O 0.0343(3) 0.18571(18) 0.0111(3)
O32_2 O 0.9657(3) 0.18571(18) 0.4889(3)
O33_2 O 0.1844(3) 0.09525(17) 0.0704(3)
O34_2 O 0.8156(3) 0.09525(17) 0.4296(3)
O36_2 O 0.6306(3) 0.16346(16) 0.3236(3)
O37_2 O 0.5528(4) 0.0754(2) 0.3640(4)
O38_2 O 0.5500(3) 0.1957(2) 0.3655(4)
O39_2 O 0.4266(4) 0.0898(2) 0.3228(4)
O5_2 O 0.5340(3) 0.33807(17) 0.9230(3)
O6_2 O 0.4657(3) 0.31429(18) 0.9889(3)
C9_2 C 0.5278(4) 0.3135(2) 0.9813(5)
H4_2 H 0.6743 0.3024 0.9990
O13_3 O 0.1306(3) 0.33654(16) 0.8236(3)
O14_3 O 0.0500(3) 0.3043(2) 0.8655(4)
C25_3 C 0.1728(4) 0.2425(3) 0.9838(5)
H13_3 H 0.1193 0.2372 0.9729
C26_3 C 0.1861(4) 0.2776(2) 0.9375(4)
C27_3 C 0.2650(4) 0.2850(3) 0.9544(5)
H14_3 H 0.2755 0.3091 0.9231
C28_3 C 0.1181(4) 0.3081(2) 0.8709(5)
C12_2 C 0.7946(5) 0.9962(3) 0.1115(5)
H5_2 H 0.7500 0.9940 0.1220
C17_2 C 0.8635(4) 0.9675(2) 0.0353(5)
C20_2 C 0.8006(5) 0.9651(3) 0.0530(6)
H10_2 H 0.7604 0.9414 0.0244
O17_2 O 0.0616(3) 0.93126(19) 0.5260(4)
O23_2 O 0.1844(3) 0.90475(17) 0.5704(3)
C37_2 C 0.1269(4) 0.9325(2) 0.5250(4)
C42_2 C 0.2054(5) 0.9962(3) 0.3885(5)
H20_2 H 0.2500 0.9940 0.3780
C46_2 C 0.1365(4) 0.9675(2) 0.4647(5)
C48_2 C 0.1994(5) 0.9651(3) 0.4470(6)
H24_2 H 0.2396 0.9414 0.4756
O1_2 O 0.9384(3) 0.93126(19) 0.9740(4)
O7_2 O 0.8156(3) 0.90475(17) 0.9296(3)
C7_2 C 0.8731(4) 0.9325(2) 0.9750(4)
O15_3 O 0.5528(4) 0.9246(2) 0.8640(4)
O16_3 O 0.4266(4) 0.9102(2) 0.8228(4)
C29_3 C 0.4948(5) 0.9672(3) 0.9372(5)
C30_3 C 0.5661(5) 0.9929(3) 0.9887(5)
H15_3 H 0.6115 0.9880 0.9806
C31_3 C 0.4296(5) 0.9752(3) 0.9497(6)
H16_3 H 0.3807 0.9580 0.9146
C32_3 C 0.4904(5) 0.9314(3) 0.8696(6)
C2_4 C 0.6728(4) 0.2575(3) 0.4838(5)
H1_4 H 0.6193 0.2628 0.4729
C5_4 C 0.6861(4) 0.2224(2) 0.4375(4)
C13_4 C 0.7650(4) 0.2150(3) 0.4544(5)
H6_4 H 0.7755 0.1909 0.4231
C18_4 C 0.6181(4) 0.1919(2) 0.3709(5)
C21_4 C 0.4948(5) 0.0328(3) 0.4372(5)
C22_4 C 0.5661(5) 0.0071(3) 0.4887(5)
H11_4 H 0.6115 0.0120 0.4806
C23_4 C 0.4296(5) 0.0248(3) 0.4497(6)
H12_4 H 0.3807 0.0420 0.4146
C24_4 C 0.4904(5) 0.0686(3) 0.3696(6)
O13_4 O 0.8694(3) 0.33654(16) 0.6764(3)
O14_4 O 0.9500(3) 0.3043(2) 0.6345(4)
C25_4 C 0.8272(4) 0.2425(3) 0.5162(5)
H13_4 H 0.8807 0.2372 0.5271
C26_4 C 0.8139(4) 0.2776(2) 0.5625(4)
C27_4 C 0.7350(4) 0.2850(3) 0.5456(5)
H14_4 H 0.7245 0.3091 0.5769
C28_4 C 0.8819(4) 0.3081(2) 0.6291(5)
O15_4 O 0.4472(4) 0.9246(2) 0.6360(4)
O16_4 O 0.5734(4) 0.9102(2) 0.6772(4)
C29_4 C 0.5052(5) 0.9672(3) 0.5628(5)
C30_4 C 0.4339(5) 0.9929(3) 0.5113(5)
H15_4 H 0.3885 0.9880 0.5194
C31_4 C 0.5704(5) 0.9752(3) 0.5503(6)
H16_4 H 0.6193 0.9580 0.5854
C32_4 C 0.5096(5) 0.9314(3) 0.6304(6)
O18 O 0.4059(3) 0.40817(16) 0.7623(3)
O19_3 O 0.2883(4) 0.4374(2) 0.7320(4)
O20_3 O 0.2879(3) 0.32881(16) 0.7804(3)
O24 O 0.3684(3) 0.29417(19) 0.7397(4)
C33_3 C 0.3469(5) 0.4360(3) 0.7210(5)
C34_3 C 0.3015(4) 0.3003(2) 0.7333(5)
C35_3 C 0.3523(4) 0.4699(2) 0.6546(5)
C36_3 C 0.2352(4) 0.2435(3) 0.6023(5)
H17_3 H 0.2838 0.2434 0.5991
C37_3 C 0.3731(4) 0.5675(2) 0.4750(4)
C38_3 C 0.1580(4) 0.2719(3) 0.6680(5)
H18_3 H 0.1529 0.2916 0.7100
C39_3 C 0.0278(4) 0.1865(2) 0.4813(5)
C40_3 C 0.0988(4) 0.2165(2) 0.5450(4)
C41_3 C 0.1699(4) 0.2165(3) 0.5425(5)
H19_3 H 0.1743 0.1976 0.4990
C42_3 C 0.2946(5) 0.5038(3) 0.6115(5)
H20_3 H 0.2500 0.5060 0.6220
C43_3 C 0.4204(5) 0.4977(3) 0.5762(5)
H21_3 H 0.4639 0.4950 0.5639
C44_3 C 0.4146(5) 0.4660(3) 0.6363(5)
H22_3 H 0.4539 0.4419 0.6642
C45_3 C 0.2301(4) 0.2708(2) 0.6667(5)
C46_3 C 0.3635(4) 0.5325(2) 0.5353(5)
C47_3 C 0.0933(4) 0.2444(3) 0.6084(5)
H23_3 H 0.0445 0.2447 0.6109
C48_3 C 0.3006(5) 0.5349(3) 0.5530(6)
H24_3 H 0.2604 0.5586 0.5244
C7_3 C 0.6269(4) 0.5675(2) 0.0250(4)
C9_3 C 0.9722(4) 0.1865(2) 0.0187(5)
H4_3 H 0.8257 0.1976 0.0010
O2_3 O 0.5941(3) 0.40817(16) 0.7377(3)
O3_3 O 0.7117(4) 0.4374(2) 0.7680(4)
O4_3 O 0.7121(3) 0.32881(16) 0.7196(3)
O8_3 O 0.6316(3) 0.29417(19) 0.7603(4)
C1_3 C 0.6531(5) 0.4360(3) 0.7790(5)
C3_3 C 0.6985(4) 0.3003(2) 0.7667(5)
C4_3 C 0.6477(4) 0.4699(2) 0.8454(5)
C6_3 C 0.7648(4) 0.2435(3) 0.8977(5)
H2_3 H 0.7162 0.2434 0.9009
C8_3 C 0.8420(4) 0.2719(3) 0.8320(5)
H3_3 H 0.8471 0.2916 0.7900
C10_3 C 0.9012(4) 0.2165(2) 0.9550(4)
C11_3 C 0.8301(4) 0.2165(3) 0.9575(5)
C12_3 C 0.7054(5) 0.5038(3) 0.8885(5)
H5_3 H 0.7500 0.5060 0.8780
C14_3 C 0.5796(5) 0.4977(3) 0.9238(5)
H7_3 H 0.5361 0.4950 0.9361
C15_3 C 0.5854(5) 0.4660(3) 0.8637(5)
H8_3 H 0.5461 0.4419 0.8358
C16_3 C 0.7699(4) 0.2708(2) 0.8333(5)
C17_3 C 0.6365(4) 0.5325(2) 0.9647(5)
C19_3 C 0.9067(4) 0.2444(3) 0.8916(5)
H9_3 H 0.9555 0.2447 0.8891
C20_3 C 0.6994(5) 0.5349(3) 0.9470(6)
H10_3 H 0.7396 0.5586 0.9756
C7_4 C 0.1269(4) 0.0675(2) 0.0250(4)
C12_4 C 0.2054(5) 0.0038(3) 0.8885(5)
H5_4 H 0.2500 0.0060 0.8780
C17_4 C 0.1365(4) 0.0325(2) 0.9647(5)
C20_4 C 0.1994(5) 0.0349(3) 0.9470(6)
H10_4 H 0.2396 0.0586 0.9756
C37_4 C 0.8731(4) 0.0675(2) 0.4750(4)
C42_4 C 0.7946(5) 0.0038(3) 0.6115(5)
H20_4 H 0.7500 0.0060 0.6220
C46_4 C 0.8635(4) 0.0325(2) 0.5353(5)
C48_4 C 0.8006(5) 0.0349(3) 0.5530(6)
H24_4 H 0.7604 0.0586 0.5244
C9_4 C 0.4722(4) 0.6865(2) 0.0187(5)
H4_4 H 0.3257 0.6976 0.0010
O2_4 O 0.0941(3) 0.90817(16) 0.7377(3)
O3_4 O 0.2117(4) 0.9374(2) 0.7680(4)
O4_4 O 0.2121(3) 0.82881(16) 0.7196(3)
O8_4 O 0.1316(3) 0.79417(19) 0.7603(4)
C1_4 C 0.1531(5) 0.9360(3) 0.7790(5)
C3_4 C 0.1985(4) 0.8003(2) 0.7667(5)
C4_4 C 0.1477(4) 0.9699(2) 0.8454(5)
C6_4 C 0.2648(4) 0.7435(3) 0.8977(5)
H2_4 H 0.2162 0.7434 0.9009
C8_4 C 0.3420(4) 0.7719(3) 0.8320(5)
H3_4 H 0.3471 0.7916 0.7900
C10_4 C 0.4012(4) 0.7165(2) 0.9550(4)
C11_4 C 0.3301(4) 0.7165(3) 0.9575(5)
C14_4 C 0.0796(5) 0.9977(3) 0.9238(5)
H7_4 H 0.0361 0.9950 0.9361
C15_4 C 0.0854(5) 0.9660(3) 0.8637(5)
H8_4 H 0.0461 0.9419 0.8358
C16_4 C 0.2699(4) 0.7708(2) 0.8333(5)
C19_4 C 0.4067(4) 0.7444(3) 0.8916(5)
H9_4 H 0.4555 0.7447 0.8891
O18_2 O 0.9059(3) 0.90817(16) 0.7623(3)
O19_4 O 0.7883(4) 0.9374(2) 0.7320(4)
O20_4 O 0.7879(3) 0.82881(16) 0.7804(3)
O24_2 O 0.8684(3) 0.79417(19) 0.7397(4)
C33_4 C 0.8469(5) 0.9360(3) 0.7210(5)
C34_4 C 0.8015(4) 0.8003(2) 0.7333(5)
C35_4 C 0.8523(4) 0.9699(2) 0.6546(5)
C36_4 C 0.7352(4) 0.7435(3) 0.6023(5)
H17_4 H 0.7838 0.7434 0.5991
C38_4 C 0.6580(4) 0.7719(3) 0.6680(5)
H18_4 H 0.6529 0.7916 0.7100
C39_4 C 0.5278(4) 0.6865(2) 0.4813(5)
C40_4 C 0.5988(4) 0.7165(2) 0.5450(4)
C41_4 C 0.6699(4) 0.7165(3) 0.5425(5)
H19_4 H 0.6743 0.6976 0.4990
C43_4 C 0.9204(5) 0.9977(3) 0.5762(5)
H21_4 H 0.9639 0.9950 0.5639
C44_4 C 0.9146(5) 0.9660(3) 0.6363(5)
H22_4 H 0.9539 0.9419 0.6642
C45_4 C 0.7301(4) 0.7708(2) 0.6667(5)
C47_4 C 0.5933(4) 0.7444(3) 0.6084(5)
H23_4 H 0.5445 0.7447 0.6109
loop_
_geom_bond_atom_site_label_1
_geom_bond_atom_site_label_2
_geom_bond_site_symmetry_1
_geom_bond_site_symmetry_2
Cd1 O2 1_555 1_555
K1 O2 1_555 1_555
Na1 O3 1_555 1_555
O2 C1 1_555 1_555
O3 C1 1_555 1_555
O4 Cd1 1_555 1_555
O8 K1 1_555 1_555
C1 C4 1_555 1_555
C3 O4 1_555 1_555
C4 C12 1_555 1_555
C6 H2 1_555 1_555
C8 H3 1_555 1_555
C10 C11 1_555 1_555
O12 Cd2 1_555 1_555
C11 C6 1_555 1_555
C12 H5 1_555 1_555
C14 H7 1_555 1_555
C15 C4 1_555 1_555
H8 C15 1_555 1_555
C16 C3 1_555 1_555
C17 C14 1_555 1_555
C19 C8 1_555 1_555
H9 C19 1_555 1_555
C20 C12 1_555 1_555
H10 C20 1_555 1_555
C23 C21 1_555 1_555
H12 C23 1_555 1_555
O26 Cd1 1_555 1_555
O27 K1 1_555 1_555
O29 K1 1_555 1_555
O30 Cd1 1_555 1_555
O32 Cd1 1_555 1_555
O34 Cd1 1_555 1_555
O35 K1 1_555 1_555
O36 Cd2 1_555 1_555
O37 Cd2 1_555 1_555
O38 Cd2 1_555 1_555
K1 O30 1_555 1_555
Na1 O4 1_555 1_555
Na1 O12 1_555 1_555
Na1 O34 1_555 1_555
Na1 O36 1_555 1_555
O8 C3 1_555 1_555
C6 C16 1_555 1_555
C8 C16 1_555 1_555
C10 C19 1_555 1_555
O12 C24 1_555 1_555
C14 C15 1_555 1_555
C17 C20 1_555 1_555
C21 C24 1_555 1_555
O22 Cd6 1_555 1_555
O1 C7 1_555 1_555
O5 C9 1_555 1_555
O7 C7 1_555 1_555
H15 C30 1_555 1_555
Cd5 O1 1_555 1_555
Cd8 O15 1_555 1_555
K4 O5 1_555 1_555
Na5 O7 1_555 1_555
O7 Cd5 1_555 1_555
Cd2_2 O9 1_555 1_555
O9 C18 1_555 1_555
O10 Cd2_2 1_555 1_555
O11 Cd2_2 1_555 1_555
C2 H1 1_555 1_555
C5 C2 1_555 1_555
C13 C5 1_555 1_555
H6 C13 1_555 1_555
C18 O11 1_555 1_555
C22 H11 1_555 1_555
Cd3 O27 1_555 1_555
Na2 O9 1_555 1_555
O17 C37 1_555 1_555
O27 C33 1_555 1_555
O19 Na2 1_555 1_555
O20 Cd3 1_555 1_555
O21 C39 1_555 1_555
O23 C37 1_555 1_555
O35 C34 1_555 1_555
C33 O19 1_555 1_555
C34 O20 1_555 1_555
C35 C33 1_555 1_555
C36 H17 1_555 1_555
C37 C46 1_555 1_555
C38 H18 1_555 1_555
C39 C40 1_555 1_555
C40 C41 1_555 1_555
C41 C36 1_555 1_555
H19 C41 1_555 1_555
C42 C35 1_555 1_555
H20 C42 1_555 1_555
C43 H21 1_555 1_555
C44 C35 1_555 1_555
H22 C44 1_555 1_555
C45 C34 1_555 1_555
C46 C43 1_555 1_555
C47 C38 1_555 1_555
H23 C47 1_555 1_555
C48 C42 1_555 1_555
H24 C48 1_555 1_555
Cd4 O17 1_555 1_555
K4_2 O21 1_555 1_555
Na4 O23 1_555 1_555
O25 Cd3 1_555 1_555
O29 Cd3 1_555 1_555
O31 Cd3 1_555 1_555
O33 Cd3 1_555 1_555
O39 Cd2_2 1_555 1_555
C5 C18 1_555 1_555
Na2 O20 1_555 1_555
Na2 O33 1_555 1_555
Na2 O39 1_555 1_555
O23 Cd4 1_555 1_555
C36 C45 1_555 1_555
C38 C45 1_555 1_555
C40 C47 1_555 1_555
C43 C44 1_555 1_555
C46 C48 1_555 1_555
O13 C28 1_555 1_555
O14 C28 1_555 1_555
H13 C25 1_555 1_555
C26 C25 1_555 1_555
H14 C27 1_555 1_555
C28 C26 1_555 1_555
O16 C32 1_555 1_555
H16 C31 1_555 1_555
C32 C29 1_555 1_555
Cd9 O13 1_555 1_555
Na4 O16 1_555 1_555
Na6 O13 1_555 1_555
O6 Cd7 1_555 1_555
O14 Cd9 1_555 1_555
C26 C27 1_555 1_555
O16 Cd8_2 1_555 1_555
C29 C31 1_555 1_555
O36 C18_2 1_555 1_555
C2_2 H1_2 1_555 1_555
C5_2 C2_2 1_555 1_555
C13_2 C5_2 1_555 1_555
H6_2 C13_2 1_555 1_555
C18_2 O38 1_555 1_555
C22_2 H11_2 1_555 1_555
O13_2 C28_2 1_555 1_555
O14_2 C28_2 1_555 1_555
C25_2 C13_2 1_555 1_555
H13_2 C25_2 1_555 1_555
C26_2 C25_2 1_555 1_555
C27_2 C2_2 1_555 1_555
H14_2 C27_2 1_555 1_555
C28_2 C26_2 1_555 1_555
O16_2 C32_2 1_555 1_555
C31_2 C22_2 1_555 1_555
H16_2 C31_2 1_555 1_555
C32_2 C29_2 1_555 1_555
Cd9 O13_2 1_555 1_555
Na5 O16_2 1_555 1_555
Na6_2 O13_2 1_555 1_555
C5_2 C18_2 1_555 1_555
O14_2 Cd9 1_555 1_555
C26_2 C27_2 1_555 1_555
O16_2 Cd8 1_555 1_555
C29_2 C31_2 1_555 1_555
C23_2 C21_2 1_555 1_555
H12_2 C23_2 1_555 1_555
C30_2 C23_2 1_555 1_555
H15_2 C30_2 1_555 1_555
Cd8_2 O15_2 1_555 1_555
O39 C24_2 1_555 1_555
C21_2 C24_2 1_555 1_555
O27_2 K1_2 1_555 1_555
O35_2 K1_2 1_555 1_555
K1_2 O30_2 1_555 1_555
Cd1_2 O2_2 1_555 1_555
Cd2_3 O9_2 1_555 1_555
K1_3 O2_2 1_555 1_555
Na1_2 O3_2 1_555 1_555
O2_2 C1_2 1_555 1_555
O3_2 C1_2 1_555 1_555
O4_2 Cd1_2 1_555 1_555
O8_2 K1_3 1_555 1_555
O9_2 C18_3 1_555 1_555
O10_2 Cd2_3 1_555 1_555
O11_2 Cd2_3 1_555 1_555
C1_2 C4_2 1_555 1_555
C2_3 H1_3 1_555 1_555
C3_2 O4_2 1_555 1_555
C5_3 C2_3 1_555 1_555
C6_2 H2_2 1_555 1_555
C8_2 H3_2 1_555 1_555
C10_2 C11_2 1_555 1_555
O12_2 Cd2_3 1_555 1_555
C11_2 C6_2 1_555 1_555
C13_3 C5_3 1_555 1_555
H6_3 C13_3 1_555 1_555
C14_2 H7_2 1_555 1_555
C15_2 C4_2 1_555 1_555
H8_2 C15_2 1_555 1_555
C16_2 C3_2 1_555 1_555
C18_3 O11_2 1_555 1_555
C19_2 C8_2 1_555 1_555
H9_2 C19_2 1_555 1_555
C21_3 C22_3 1_555 1_555
C22_3 H11_3 1_555 1_555
C23_3 C21_3 1_555 1_555
H12_3 C23_3 1_555 1_555
C24_3 O10_2 1_555 1_555
Cd3_2 O27_2 1_555 1_555
Na2_2 O9_2 1_555 1_555
O27_2 C33_2 1_555 1_555
O19_2 Na2_2 1_555 1_555
O20_2 Cd3_2 1_555 1_555
O21_2 C39_2 1_555 1_555
O22_2 C39_2 1_555 1_555
O35_2 C34_2 1_555 1_555
C33_2 O19_2 1_555 1_555
C34_2 O20_2 1_555 1_555
C35_2 C33_2 1_555 1_555
C36_2 H17_2 1_555 1_555
C38_2 H18_2 1_555 1_555
C39_2 C40_2 1_555 1_555
C40_2 C41_2 1_555 1_555
C41_2 C36_2 1_555 1_555
H19_2 C41_2 1_555 1_555
C43_2 H21_2 1_555 1_555
C44_2 C35_2 1_555 1_555
H22_2 C44_2 1_555 1_555
C45_2 C34_2 1_555 1_555
C47_2 C38_2 1_555 1_555
H23_2 C47_2 1_555 1_555
Cd4 O21_2 1_555 1_555
K4_3 O21_2 1_555 1_555
O25_2 Cd3_2 1_555 1_555
O26_2 Cd1_2 1_555 1_555
O29_2 K1_3 1_555 1_555
O31_2 Cd3_2 1_555 1_555
O32_2 Cd1_2 1_555 1_555
O33_2 Cd3_2 1_555 1_555
O34_2 Cd1_2 1_555 1_555
O36_2 Cd2_3 1_555 1_555
O37_2 Cd2_3 1_555 1_555
O38_2 Cd2_3 1_555 1_555
O39_2 Cd2_3 1_555 1_555
Na1_2 O4_2 1_555 1_555
Na1_2 O12_2 1_555 1_555
Na1_2 O34_2 1_555 1_555
Na1_2 O36_2 1_555 1_555
O8_2 C3_2 1_555 1_555
C5_3 C18_3 1_555 1_555
C6_2 C16_2 1_555 1_555
C8_2 C16_2 1_555 1_555
C10_2 C19_2 1_555 1_555
O12_2 C24_3 1_555 1_555
C14_2 C15_2 1_555 1_555
C21_3 C24_3 1_555 1_555
Na2_2 O20_2 1_555 1_555
Na2_2 O33_2 1_555 1_555
Na2_2 O39_2 1_555 1_555
O22_2 Cd4 1_555 1_555
C36_2 C45_2 1_555 1_555
C38_2 C45_2 1_555 1_555
C40_2 C47_2 1_555 1_555
C43_2 C44_2 1_555 1_555
O5_2 C9_2 1_555 1_555
O6_2 C9_2 1_555 1_555
O13_3 C28_3 1_555 1_555
O14_3 C28_3 1_555 1_555
H13_3 C25_3 1_555 1_555
C26_3 C25_3 1_555 1_555
H14_3 C27_3 1_555 1_555
C28_3 C26_3 1_555 1_555
Cd5 O5_2 1_555 1_555
Cd8 O13_3 1_555 1_555
K4_3 O5_2 1_555 1_555
Na5 O13_3 1_555 1_555
O6_2 Cd5 1_555 1_555
O14_3 Cd8 1_555 1_555
C26_3 C27_3 1_555 1_555
C12_2 H5_2 1_555 1_555
C20_2 C12_2 1_555 1_555
H10_2 C20_2 1_555 1_555
O17_2 C37_2 1_555 1_555
O23_2 C37_2 1_555 1_555
C37_2 C46_2 1_555 1_555
H20_2 C42_2 1_555 1_555
C48_2 C42_2 1_555 1_555
H24_2 C48_2 1_555 1_555
Cd6 O17_2 1_555 1_555
Na6_2 O23_2 1_555 1_555
C17_2 C20_2 1_555 1_555
O23_2 Cd6 1_555 1_555
C46_2 C48_2 1_555 1_555
O1_2 C7_2 1_555 1_555
O7_2 C7_2 1_555 1_555
O15_3 C32_3 1_555 1_555
O16_3 C32_3 1_555 1_555
C29_3 C30_3 1_555 1_555
H15_3 C30_3 1_555 1_555
H16_3 C31_3 1_555 1_555
C32_3 C29_3 1_555 1_555
Cd7 O1_2 1_555 1_555
Cd9 O15_3 1_555 1_555
Na6_2 O16_3 1_555 1_555
Na6 O7_2 1_555 1_555
O7_2 Cd7 1_555 1_555
O16_3 Cd9 1_555 1_555
C29_3 C31_3 1_555 1_555
O36_2 C18_4 1_555 1_555
C2_4 H1_4 1_555 1_555
C5_4 C2_4 1_555 1_555
C13_4 C5_4 1_555 1_555
H6_4 C13_4 1_555 1_555
C18_4 O38_2 1_555 1_555
C21_4 C22_4 1_555 1_555
C22_4 H11_4 1_555 1_555
C23_4 C21_4 1_555 1_555
H12_4 C23_4 1_555 1_555
C24_4 O37_2 1_555 1_555
O13_4 C28_4 1_555 1_555
O14_4 C28_4 1_555 1_555
C25_4 C13_4 1_555 1_555
H13_4 C25_4 1_555 1_555
C26_4 C25_4 1_555 1_555
C27_4 C2_4 1_555 1_555
H14_4 C27_4 1_555 1_555
C28_4 C26_4 1_555 1_555
Cd8_2 O13_4 1_555 1_555
Na4 O13_4 1_555 1_555
C5_4 C18_4 1_555 1_555
O39_2 C24_4 1_555 1_555
C21_4 C24_4 1_555 1_555
O14_4 Cd8_2 1_555 1_555
C26_4 C27_4 1_555 1_555
O15_4 C32_4 1_555 1_555
O16_4 C32_4 1_555 1_555
C29_4 C30_4 1_555 1_555
H15_4 C30_4 1_555 1_555
H16_4 C31_4 1_555 1_555
C32_4 C29_4 1_555 1_555
Cd9 O15_4 1_555 1_555
Na6 O16_4 1_555 1_555
O16_4 Cd9 1_555 1_555
C29_4 C31_4 1_555 1_555
Cd5 O18 1_555 1_555
O26 C37_3 1_555 1_555
O18 C33_3 1_555 1_555
O19_3 Na5 1_555 1_555
O20_3 Cd5 1_555 1_555
O30_2 C39_3 1_555 1_555
O34 C37_3 1_555 1_555
O24 C34_3 1_555 1_555
C33_3 O19_3 1_555 1_555
C34_3 O20_3 1_555 1_555
C35_3 C33_3 1_555 1_555
C36_3 H17_3 1_555 1_555
C37_3 C46_3 1_555 1_555
C38_3 H18_3 1_555 1_555
C39_3 C40_3 1_555 1_555
C40_3 C41_3 1_555 1_555
C41_3 C36_3 1_555 1_555
H19_3 C41_3 1_555 1_555
C42_3 C35_3 1_555 1_555
H20_3 C42_3 1_555 1_555
C43_3 H21_3 1_555 1_555
C44_3 C35_3 1_555 1_555
H22_3 C44_3 1_555 1_555
C45_3 C34_3 1_555 1_555
C46_3 C43_3 1_555 1_555
C47_3 C38_3 1_555 1_555
H23_3 C47_3 1_555 1_555
C48_3 C42_3 1_555 1_555
H24_3 C48_3 1_555 1_555
K4_3 O18 1_555 1_555
Na5 O20_3 1_555 1_555
O24 K4_3 1_555 1_555
C36_3 C45_3 1_555 1_555
C38_3 C45_3 1_555 1_555
C40_3 C47_3 1_555 1_555
C43_3 C44_3 1_555 1_555
C46_3 C48_3 1_555 1_555
O25 C7_3 1_555 1_555
O29_2 C9_3 1_555 1_555
O33 C7_3 1_555 1_555
Cd4 O2_3 1_555 1_555
K4_3 O2_3 1_555 1_555
Na4 O3_3 1_555 1_555
O2_3 C1_3 1_555 1_555
O3_3 C1_3 1_555 1_555
O4_3 Cd4 1_555 1_555
O8_3 K4_3 1_555 1_555
C1_3 C4_3 1_555 1_555
C3_3 O4_3 1_555 1_555
C4_3 C12_3 1_555 1_555
C6_3 H2_3 1_555 1_555
C8_3 H3_3 1_555 1_555
C10_3 C11_3 1_555 1_555
C11_3 C6_3 1_555 1_555
C12_3 H5_3 1_555 1_555
C14_3 H7_3 1_555 1_555
C15_3 C4_3 1_555 1_555
H8_3 C15_3 1_555 1_555
C16_3 C3_3 1_555 1_555
C17_3 C14_3 1_555 1_555
C19_3 C8_3 1_555 1_555
H9_3 C19_3 1_555 1_555
C20_3 C12_3 1_555 1_555
H10_3 C20_3 1_555 1_555
Na4 O4_3 1_555 1_555
O8_3 C3_3 1_555 1_555
C6_3 C16_3 1_555 1_555
C8_3 C16_3 1_555 1_555
C10_3 C19_3 1_555 1_555
C14_3 C15_3 1_555 1_555
C17_3 C20_3 1_555 1_555
O25_2 C7_4 1_555 1_555
O33_2 C7_4 1_555 1_555
C12_4 H5_4 1_555 1_555
C20_4 C12_4 1_555 1_555
H10_4 C20_4 1_555 1_555
O26_2 C37_4 1_555 1_555
O34_2 C37_4 1_555 1_555
C37_4 C46_4 1_555 1_555
H20_4 C42_4 1_555 1_555
C48_4 C42_4 1_555 1_555
H24_4 C48_4 1_555 1_555
C17_4 C20_4 1_555 1_555
C46_4 C48_4 1_555 1_555
O29 C9_4 1_555 1_555
O31 C9_4 1_555 1_555
Cd6 O2_4 1_555 1_555
K4 O2_4 1_555 1_555
Na6_2 O3_4 1_555 1_555
O2_4 C1_4 1_555 1_555
O3_4 C1_4 1_555 1_555
O4_4 Cd6 1_555 1_555
O8_4 K4 1_555 1_555
C1_4 C4_4 1_555 1_555
C3_4 O4_4 1_555 1_555
C6_4 H2_4 1_555 1_555
C8_4 H3_4 1_555 1_555
C10_4 C11_4 1_555 1_555
C11_4 C6_4 1_555 1_555
C14_4 H7_4 1_555 1_555
C15_4 C4_4 1_555 1_555
H8_4 C15_4 1_555 1_555
C16_4 C3_4 1_555 1_555
C19_4 C8_4 1_555 1_555
H9_4 C19_4 1_555 1_555
Cd7 O18_2 1_555 1_555
O18_2 C33_4 1_555 1_555
O19_4 Na6 1_555 1_555
O20_4 Cd7 1_555 1_555
O30 C39_4 1_555 1_555
O32 C39_4 1_555 1_555
O24_2 C34_4 1_555 1_555
C33_4 O19_4 1_555 1_555
C34_4 O20_4 1_555 1_555
C35_4 C33_4 1_555 1_555
C36_4 H17_4 1_555 1_555
C38_4 H18_4 1_555 1_555
C39_4 C40_4 1_555 1_555
C40_4 C41_4 1_555 1_555
C41_4 C36_4 1_555 1_555
H19_4 C41_4 1_555 1_555
C43_4 H21_4 1_555 1_555
C44_4 C35_4 1_555 1_555
H22_4 C44_4 1_555 1_555
C45_4 C34_4 1_555 1_555
C47_4 C38_4 1_555 1_555
H23_4 C47_4 1_555 1_555
K4_2 O18_2 1_555 1_555
Na6_2 O4_4 1_555 1_555
O8_4 C3_4 1_555 1_555
C6_4 C16_4 1_555 1_555
C8_4 C16_4 1_555 1_555
C10_4 C19_4 1_555 1_555
C14_4 C15_4 1_555 1_555
Na6 O20_4 1_555 1_555
O24_2 K4_2 1_555 1_555
C36_4 C45_4 1_555 1_555
C38_4 C45_4 1_555 1_555
C40_4 C47_4 1_555 1_555
C43_4 C44_4 1_555 1_555

#END
