
###############################################################################
#
# This file contains modified crystal structure data generated from the
# MOF subset of the Cambridge Structural Database (CSD) v543 
# hosted by the Cambridge Crystallographic Data Centre (CCDC).
#
# This work is licensed under the Creative Commons
# Attribution-NonCommercial-ShareAlike 4.0 International License.
# To view a copy of this license, visit
# http://creativecommons.org/licenses/by-nc-sa/4.0/
# or send a letter to
# Creative Commons, PO Box 1866, Mountain View, CA 94042, USA.
#
# CIF created using the CSD Python API on 29 September 2022
# The structure has been converted into the P1 space group
# The structure has a 3D framework
# The original CSD entry IYAKAW is in the monoclinic crystal system
# The framework has been calculated to contain at least 10.0% void space
# The void calculation uses a probe of radius 1.32A, grid spacing 0.4
#
###############################################################################

data_IYAKAW
_chemical_formula_moiety         '(C192 H96 Cd11 Mg14 O93)n'
_symmetry_cell_setting           triclinic
_symmetry_space_group_name_H-M   'P 1'
_symmetry_Int_Tables_number      1
_space_group_name_Hall           'P 1'
loop_
_symmetry_equiv_pos_site_id
_symmetry_equiv_pos_as_xyz
1 x,y,z
_cell_length_a                   18.5166(7)
_cell_length_b                   29.4652(8)
_cell_length_c                   16.3850(4)
_cell_angle_alpha                90
_cell_angle_beta                 119.388(3)
_cell_angle_gamma                90
_cell_volume                     7789.2
loop_
_atom_site_label
_atom_site_type_symbol
_atom_site_fract_x
_atom_site_fract_y
_atom_site_fract_z
Cd1 Cd -0.0000 0.632791(18) 0.7500
O12 O 0.0734(3) 0.59152(19) 0.6747(4)
C4 C 0.0045(4) 0.5336(2) 0.5626(4)
C6 C 0.0685(4) 0.5276(3) 0.5426(5)
H4 H 0.1159 0.5467 0.5713
C17 C 0.0080(4) 0.5699(2) 0.6265(5)
O13 O 0.0554(3) 0.4223(2) 0.3653(4)
C27 C 0.0637(4) 0.4944(3) 0.4818(5)
H14 H 0.1086 0.4905 0.4699
Cd4 Cd -0.0000 0.367209(18) 0.2500
Mg4 Mg 0.20409(14) 0.61451(9) 0.77323(18)
O25 O 0.0554(3) 0.5777(2) 0.8653(4)
O32 O 0.0491(3) 0.6945(2) 0.8653(4)
O34 O 0.1335(3) 0.66396(15) 0.8223(3)
O19 O 0.7945(3) 0.82658(15) 0.2779(3)
O20 O 0.2856(3) 0.4284(2) 0.2176(4)
O21 O 0.8791(3) 0.79479(18) 0.2345(3)
O22 O 0.4096(3) 0.40338(15) 0.2500(3)
C33 C 0.6815(4) 0.7122(2) 0.0422(4)
C34 C 0.7479(4) 0.7395(2) 0.1043(4)
H18 H 0.7989 0.7384 0.1037
C35 C 0.6073(4) 0.7131(2) 0.0436(4)
C36 C 0.6015(4) 0.7406(3) 0.1072(5)
H19 H 0.5514 0.7408 0.1097
C37 C 0.8107(4) 0.7987(2) 0.2316(4)
C38 C 0.2944(5) 0.5276(3) 0.0385(6)
H20 H 0.2507 0.5488 0.0071
C39 C 0.3632(4) 0.5295(2) 0.0262(4)
C40 C 0.3472(4) 0.4292(2) 0.2075(5)
C41 C 0.7396(4) 0.7678(2) 0.1662(4)
C42 C 0.4256(4) 0.4990(3) 0.0725(5)
H21 H 0.4735 0.5004 0.0656
C45 C 0.4200(4) 0.4664(3) 0.1290(5)
H22 H 0.4638 0.4451 0.1596
C46 C 0.6660(4) 0.7682(3) 0.1678(5)
H23 H 0.6596 0.7874 0.2105
C47 C 0.2889(4) 0.4953(3) 0.0959(6)
H24 H 0.2414 0.4945 0.1038
C48 C 0.3518(4) 0.4640(2) 0.1422(4)
Cd6 Cd 0.40412(2) 0.369237(13) 0.36830(2)
Cd8 Cd 0.90412(2) 0.869237(13) 0.36830(2)
Mg5 Mg 0.20409(14) 0.38549(9) 0.27323(18)
Mg8 Mg 0.70409(14) 0.88549(9) 0.27323(18)
Mg11 Mg 0.5000 0.34207(14) 0.2500
Cd1_2 Cd 1.0000 0.632791(18) 0.7500
Cd2 Cd 0.59588(2) 0.630763(13) 0.63170(2)
Mg1 Mg 0.79591(14) 0.61451(9) 0.72677(18)
O1 O 0.5621(3) 0.56930(18) 0.5350(4)
O2 O 0.9446(3) 0.5777(2) 0.6347(4)
O3 O 0.4605(3) 0.66207(16) 0.5855(3)
O4 O 0.2055(3) 0.82658(15) 0.2221(3)
O5 O 0.7144(3) 0.4284(2) 0.2824(4)
O6 O 0.1209(3) 0.79479(18) 0.2655(3)
O7 O 0.5904(3) 0.40338(15) 0.2500(3)
O8 O 0.6873(3) 0.59418(17) 0.5759(3)
O9 O 0.9509(3) 0.6945(2) 0.6347(4)
O10 O 0.8665(3) 0.66396(15) 0.6777(3)
O11 O 0.5261(3) 0.68191(18) 0.5106(3)
C1 C 0.3185(4) 0.7122(2) 0.4578(4)
H1 H 0.3126 0.6931 0.5009
C2 C 0.2521(4) 0.7395(2) 0.3957(4)
H2 H 0.2011 0.7384 0.3963
C3 C 0.3927(4) 0.7131(2) 0.4564(4)
C5 C 0.3985(4) 0.7406(3) 0.3928(5)
H3 H 0.4486 0.7408 0.3903
C7 C 0.1893(4) 0.7987(2) 0.2684(4)
C8 C 0.7056(5) 0.5276(3) 0.4615(6)
H5 H 0.7493 0.5488 0.4929
C9 C 0.6368(4) 0.5295(2) 0.4738(4)
C10 C 0.8302(4) 0.7567(3) 0.5167(5)
H6 H 0.8851 0.7615 0.5281
C11 C 0.9363(4) 0.5056(3) 0.5182(5)
H7 H 0.8914 0.5095 0.5301
C12 C 0.6528(4) 0.4292(2) 0.2925(5)
C13 C 0.7337(4) 0.7158(3) 0.5465(5)
H8 H 0.7221 0.6923 0.5782
C14 C 0.8140(4) 0.7220(2) 0.5638(4)
C15 C 0.2604(4) 0.7678(2) 0.3338(4)
C16 C 0.5744(4) 0.4990(3) 0.4275(5)
H9 H 0.5265 0.5004 0.4344
C18 C 0.6286(4) 0.5666(2) 0.5324(4)
C19 C 0.4635(4) 0.6835(2) 0.5221(4)
C20 C 0.5800(4) 0.4664(3) 0.3710(5)
H10 H 0.5362 0.4451 0.3404
C21 C 0.3340(4) 0.7682(3) 0.3322(5)
H11 H 0.3404 0.7874 0.2895
C22 C 0.8822(4) 0.6921(2) 0.6301(5)
C23 C 0.7111(4) 0.4953(3) 0.4041(6)
H12 H 0.7586 0.4945 0.3962
C24 C 0.6482(4) 0.4640(2) 0.3578(4)
Mg2 Mg 0.5000 0.65793(14) 0.7500
O14 O 0.9266(3) 0.40848(19) 0.3253(4)
C25 C 0.9955(4) 0.4664(2) 0.4374(4)
C26 C 0.9315(4) 0.4724(3) 0.4574(5)
H13 H 0.8841 0.4533 0.4287
C28 C 0.9920(4) 0.4301(2) 0.3735(5)
O15 O 0.5491(3) 0.8055(2) 0.3653(4)
O16 O 0.6335(3) 0.83604(15) 0.3223(3)
C29 C 0.6698(4) 0.7433(3) 0.4833(5)
H15 H 0.6149 0.7385 0.4719
C30 C 0.7663(4) 0.7842(3) 0.4535(5)
H16 H 0.7779 0.8077 0.4218
C31 C 0.6860(4) 0.7780(2) 0.4362(4)
C32 C 0.6178(4) 0.8079(2) 0.3699(5)
Cd3 Cd 0.40412(2) 0.630763(13) 0.86830(2)
O17 O 0.4379(3) 0.56930(18) 0.9650(4)
O18 O 0.5395(3) 0.66207(16) 0.9145(3)
O23 O 0.3127(3) 0.59418(17) 0.9241(3)
O24 O 0.4739(3) 0.68191(18) 0.9894(3)
H17 H 0.6874 0.6931 0.9991
C43 C 0.3714(4) 0.5666(2) 0.9676(4)
C44 C 0.5365(4) 0.6835(2) 0.9779(4)
Cd4_2 Cd 1.0000 0.367209(18) 0.2500
Cd5 Cd 0.5000 0.867209(18) 0.2500
Cd7 Cd 0.59588(2) 0.369237(13) 0.13170(2)
Cd9 Cd 0.09588(2) 0.869237(13) 0.13170(2)
Mg6 Mg 0.79591(14) 0.38549(9) 0.22677(18)
Mg9 Mg 0.29591(14) 0.88549(9) 0.22677(18)
O26 O 0.2945(3) 0.67342(15) 0.7779(3)
O27 O 0.7055(3) 0.67342(15) 0.7221(3)
O28 O 0.2856(3) 0.5716(2) 0.7176(4)
O29 O 0.7144(3) 0.5716(2) 0.7824(4)
O30 O 0.4096(3) 0.59662(15) 0.7500(3)
O31 O 0.5904(3) 0.59662(15) 0.7500(3)
O36 O 0.9266(3) 0.59152(19) 0.8253(4)
O14_2 O 0.0734(3) 0.40848(19) 0.1747(4)
C25_2 C 0.0045(4) 0.4664(2) 0.0626(4)
C26_2 C 0.0685(4) 0.4724(3) 0.0426(5)
H13_2 H 0.1159 0.4533 0.0713
C28_2 C 0.0080(4) 0.4301(2) 0.1265(5)
O15_2 O 0.4509(3) 0.8055(2) 0.1347(4)
O16_2 O 0.3665(3) 0.83604(15) 0.1777(3)
C29_2 C 0.3302(4) 0.7433(3) 0.0167(5)
H15_2 H 0.3851 0.7385 0.0281
C30_2 C 0.2337(4) 0.7842(3) 0.0465(5)
H16_2 H 0.2221 0.8077 0.0782
C31_2 C 0.3140(4) 0.7780(2) 0.0638(4)
C32_2 C 0.3822(4) 0.8079(2) 0.1301(5)
C10_2 C 0.1698(4) 0.7567(3) 0.9833(5)
H6_2 H 0.1149 0.7615 0.9719
C11_2 C 0.0637(4) 0.5056(3) 0.9818(5)
H7_2 H 0.1086 0.5095 0.9699
C13_2 C 0.2663(4) 0.7158(3) 0.9535(5)
H8_2 H 0.2779 0.6923 0.9218
C14_2 C 0.1860(4) 0.7220(2) 0.9362(4)
C22_2 C 0.1178(4) 0.6921(2) 0.8699(5)
O13_2 O 0.9446(3) 0.4223(2) 0.1347(4)
C27_2 C 0.9363(4) 0.4944(3) 0.0182(5)
H14_2 H 0.8914 0.4905 0.0301
C4_2 C 0.9955(4) 0.5336(2) 0.9374(4)
C6_2 C 0.9315(4) 0.5276(3) 0.9574(5)
H4_2 H 0.8841 0.5467 0.9287
C17_2 C 0.9920(4) 0.5699(2) 0.8735(5)
O19_2 O 0.2945(3) 0.32658(15) 0.2779(3)
O21_2 O 0.3791(3) 0.29479(18) 0.2345(3)
C33_2 C 0.1815(4) 0.2122(2) 0.0422(4)
C34_2 C 0.2479(4) 0.2395(2) 0.1043(4)
H18_2 H 0.2989 0.2384 0.1037
C35_2 C 0.1073(4) 0.2131(2) 0.0436(4)
C36_2 C 0.1015(4) 0.2406(3) 0.1072(5)
H19_2 H 0.0514 0.2408 0.1097
C37_2 C 0.3107(4) 0.2987(2) 0.2316(4)
C41_2 C 0.2396(4) 0.2678(2) 0.1662(4)
C46_2 C 0.1660(4) 0.2682(3) 0.1678(5)
H23_2 H 0.1596 0.2874 0.2105
Cd1_3 Cd 0.5000 0.132791(18) 0.7500
Cd2_2 Cd 0.09588(2) 0.130763(13) 0.63170(2)
Mg1_2 Mg 0.29591(14) 0.11451(9) 0.72677(18)
O1_2 O 0.0621(3) 0.06930(18) 0.5350(4)
O2_2 O 0.4446(3) 0.0777(2) 0.6347(4)
O8_2 O 0.1873(3) 0.09418(17) 0.5759(3)
O9_2 O 0.4509(3) 0.1945(2) 0.6347(4)
O10_2 O 0.3665(3) 0.16396(15) 0.6777(3)
O11_2 O 0.0261(3) 0.18191(18) 0.5106(3)
O12_2 O 0.5734(3) 0.09152(19) 0.6747(4)
C4_3 C 0.5045(4) 0.0336(2) 0.5626(4)
C6_3 C 0.5685(4) 0.0276(3) 0.5426(5)
H4_3 H 0.6159 0.0467 0.5713
C8_2 C 0.2056(5) 0.0276(3) 0.4615(6)
H5_2 H 0.2493 0.0488 0.4929
C9_2 C 0.1368(4) 0.0295(2) 0.4738(4)
C10_3 C 0.3302(4) 0.2567(3) 0.5167(5)
H6_3 H 0.3851 0.2615 0.5281
C11_3 C 0.4363(4) 0.0056(3) 0.5182(5)
H7_3 H 0.3914 0.0095 0.5301
C13_3 C 0.2337(4) 0.2158(3) 0.5465(5)
H8_3 H 0.2221 0.1923 0.5782
C14_3 C 0.3140(4) 0.2220(2) 0.5638(4)
H9_2 H 0.0265 0.0004 0.4344
C17_3 C 0.5080(4) 0.0699(2) 0.6265(5)
C18_2 C 0.1286(4) 0.0666(2) 0.5324(4)
C22_3 C 0.3822(4) 0.1921(2) 0.6301(5)
Mg2_2 Mg 0.0000 0.15793(14) 0.7500
O15_3 O 0.0491(3) 0.3055(2) 0.3653(4)
O16_3 O 0.1335(3) 0.33604(15) 0.3223(3)
C29_3 C 0.1698(4) 0.2433(3) 0.4833(5)
H15_3 H 0.1149 0.2385 0.4719
C30_3 C 0.2663(4) 0.2842(3) 0.4535(5)
H16_3 H 0.2779 0.3077 0.4218
C31_3 C 0.1860(4) 0.2780(2) 0.4362(4)
C32_3 C 0.1178(4) 0.3079(2) 0.3699(5)
O18_2 O 0.0395(3) 0.16207(16) 0.9145(3)
H17_2 H 0.1874 0.1931 0.9991
C44_2 C 0.0365(4) 0.1835(2) 0.9779(4)
Mg4_2 Mg 0.70409(14) 0.11451(9) 0.77323(18)
O25_2 O 0.5554(3) 0.0777(2) 0.8653(4)
O27_2 O 0.2055(3) 0.17342(15) 0.7221(3)
O29_2 O 0.2144(3) 0.0716(2) 0.7824(4)
O31_2 O 0.0904(3) 0.09662(15) 0.7500(3)
O32_2 O 0.5491(3) 0.1945(2) 0.8653(4)
O34_2 O 0.6335(3) 0.16396(15) 0.8223(3)
O36_2 O 0.4266(3) 0.09152(19) 0.8253(4)
Mg11_2 Mg 0.0000 0.84207(14) 0.2500
O5_2 O 0.2144(3) 0.9284(2) 0.2824(4)
O7_2 O 0.0904(3) 0.90338(15) 0.2500(3)
C12_2 C 0.1528(4) 0.9292(2) 0.2925(5)
C16_2 C 0.0744(4) 0.9990(3) 0.4275(5)
C20_2 C 0.0800(4) 0.9664(3) 0.3710(5)
H10_2 H 0.0362 0.9451 0.3404
C23_2 C 0.2111(4) 0.9953(3) 0.4041(6)
H12_2 H 0.2586 0.9945 0.3962
C24_2 C 0.1482(4) 0.9640(2) 0.3578(4)
O13_3 O 0.5554(3) 0.9223(2) 0.3653(4)
O14_3 O 0.4266(3) 0.90848(19) 0.3253(4)
C25_3 C 0.4955(4) 0.9664(2) 0.4374(4)
C26_3 C 0.4315(4) 0.9724(3) 0.4574(5)
H13_3 H 0.3841 0.9533 0.4287
C27_3 C 0.5637(4) 0.9944(3) 0.4818(5)
H14_3 H 0.6086 0.9905 0.4699
C28_3 C 0.4920(4) 0.9301(2) 0.3735(5)
C38_2 C 0.7944(5) 0.0276(3) 0.0385(6)
H20_2 H 0.7507 0.0488 0.0071
C39_2 C 0.8632(4) 0.0295(2) 0.0262(4)
H21_2 H 0.9735 0.0004 0.0656
O3_2 O 0.9605(3) 0.16207(16) 0.5855(3)
O4_2 O 0.7055(3) 0.32658(15) 0.2221(3)
O6_2 O 0.6209(3) 0.29479(18) 0.2655(3)
C1_2 C 0.8185(4) 0.2122(2) 0.4578(4)
H1_2 H 0.8126 0.1931 0.5009
C2_2 C 0.7521(4) 0.2395(2) 0.3957(4)
H2_2 H 0.7011 0.2384 0.3963
C3_2 C 0.8927(4) 0.2131(2) 0.4564(4)
C5_2 C 0.8985(4) 0.2406(3) 0.3928(5)
H3_2 H 0.9486 0.2408 0.3903
C7_2 C 0.6893(4) 0.2987(2) 0.2684(4)
C15_2 C 0.7604(4) 0.2678(2) 0.3338(4)
C19_2 C 0.9635(4) 0.1835(2) 0.5221(4)
C21_2 C 0.8340(4) 0.2682(3) 0.3322(5)
H11_2 H 0.8404 0.2874 0.2895
Mg2_3 Mg 1.0000 0.15793(14) 0.7500
Cd3_2 Cd 0.90412(2) 0.130763(13) 0.86830(2)
O17_2 O 0.9379(3) 0.06930(18) 0.9650(4)
O23_2 O 0.8127(3) 0.09418(17) 0.9241(3)
O24_2 O 0.9739(3) 0.18191(18) 0.9894(3)
C43_2 C 0.8714(4) 0.0666(2) 0.9676(4)
O26_2 O 0.7945(3) 0.17342(15) 0.7779(3)
O28_2 O 0.7856(3) 0.0716(2) 0.7176(4)
O30_2 O 0.9096(3) 0.09662(15) 0.7500(3)
O20_2 O 0.7856(3) 0.9284(2) 0.2176(4)
O22_2 O 0.9096(3) 0.90338(15) 0.2500(3)
C40_2 C 0.8472(4) 0.9292(2) 0.2075(5)
C42_2 C 0.9256(4) 0.9990(3) 0.0725(5)
C45_2 C 0.9200(4) 0.9664(3) 0.1290(5)
H22_2 H 0.9638 0.9451 0.1596
C47_2 C 0.7889(4) 0.9953(3) 0.0959(6)
H24_2 H 0.7414 0.9945 0.1038
C48_2 C 0.8518(4) 0.9640(2) 0.1422(4)
Mg11_3 Mg 1.0000 0.84207(14) 0.2500
O15_4 O 0.9509(3) 0.3055(2) 0.1347(4)
O16_4 O 0.8665(3) 0.33604(15) 0.1777(3)
C29_4 C 0.8302(4) 0.2433(3) 0.0167(5)
H15_4 H 0.8851 0.2385 0.0281
C30_4 C 0.7337(4) 0.2842(3) 0.0465(5)
H16_4 H 0.7221 0.3077 0.0782
C31_4 C 0.8140(4) 0.2780(2) 0.0638(4)
C32_4 C 0.8822(4) 0.3079(2) 0.1301(5)
C4_4 C 0.4955(4) 0.0336(2) 0.9374(4)
C6_4 C 0.4315(4) 0.0276(3) 0.9574(5)
H4_4 H 0.3841 0.0467 0.9287
C10_4 C 0.6698(4) 0.2567(3) 0.9833(5)
H6_4 H 0.6149 0.2615 0.9719
C11_4 C 0.5637(4) 0.0056(3) 0.9818(5)
H7_4 H 0.6086 0.0095 0.9699
C13_4 C 0.7663(4) 0.2158(3) 0.9535(5)
H8_4 H 0.7779 0.1923 0.9218
C14_4 C 0.6860(4) 0.2220(2) 0.9362(4)
C17_4 C 0.4920(4) 0.0699(2) 0.8735(5)
C22_4 C 0.6178(4) 0.1921(2) 0.8699(5)
O13_4 O 0.4446(3) 0.9223(2) 0.1347(4)
O14_4 O 0.5734(3) 0.90848(19) 0.1747(4)
C25_4 C 0.5045(4) 0.9664(2) 0.0626(4)
C26_4 C 0.5685(4) 0.9724(3) 0.0426(5)
H13_4 H 0.6159 0.9533 0.0713
C27_4 C 0.4363(4) 0.9944(3) 0.0182(5)
H14_4 H 0.3914 0.9905 0.0301
C28_4 C 0.5080(4) 0.9301(2) 0.1265(5)
O1_3 O 0.4379(3) 0.43070(18) 0.4650(4)
O3_3 O 0.5395(3) 0.33793(16) 0.4145(3)
O6_3 O 0.8791(3) 0.20521(18) 0.7345(3)
O8_3 O 0.3127(3) 0.40582(17) 0.4241(3)
O11_3 O 0.4739(3) 0.31809(18) 0.4894(3)
C1_3 C 0.6815(4) 0.2878(2) 0.5422(4)
H1_3 H 0.6874 0.3069 0.4991
C2_3 C 0.7479(4) 0.2605(2) 0.6043(4)
H2_3 H 0.7989 0.2616 0.6037
C3_3 C 0.6073(4) 0.2869(2) 0.5436(4)
C5_3 C 0.6015(4) 0.2594(3) 0.6072(5)
H3_3 H 0.5514 0.2592 0.6097
C7_3 C 0.8107(4) 0.2013(2) 0.7316(4)
C8_3 C 0.2944(5) 0.4724(3) 0.5385(6)
H5_3 H 0.2507 0.4512 0.5071
C9_3 C 0.3632(4) 0.4705(2) 0.5262(4)
C12_3 C 0.3472(4) 0.5708(2) 0.7075(5)
C15_3 C 0.7396(4) 0.2322(2) 0.6662(4)
C16_3 C 0.4256(4) 0.5010(3) 0.5725(5)
H9_3 H 0.4735 0.4996 0.5656
C18_3 C 0.3714(4) 0.4334(2) 0.4676(4)
C19_3 C 0.5365(4) 0.3165(2) 0.4779(4)
C20_3 C 0.4200(4) 0.5336(3) 0.6290(5)
H10_3 H 0.4638 0.5549 0.6596
C21_3 C 0.6660(4) 0.2318(3) 0.6678(5)
H11_3 H 0.6596 0.2126 0.7105
C23_3 C 0.2889(4) 0.5047(3) 0.5959(6)
H12_3 H 0.2414 0.5055 0.6038
C24_3 C 0.3518(4) 0.5360(2) 0.6422(4)
O17_3 O 0.5621(3) 0.43070(18) 0.0350(4)
O18_3 O 0.4605(3) 0.33793(16) 0.0855(3)
O23_3 O 0.6873(3) 0.40582(17) 0.0759(3)
O24_3 O 0.5261(3) 0.31809(18) 0.0106(3)
H17_3 H 0.3126 0.3069 0.0009
C43_3 C 0.6286(4) 0.4334(2) 0.0324(4)
C44_3 C 0.4635(4) 0.3165(2) 0.0221(4)
O21_3 O 0.1209(3) 0.20521(18) 0.7655(3)
C33_3 C 0.3185(4) 0.2878(2) 0.9578(4)
C34_3 C 0.2521(4) 0.2605(2) 0.8957(4)
H18_3 H 0.2011 0.2616 0.8963
C35_3 C 0.3927(4) 0.2869(2) 0.9564(4)
C36_3 C 0.3985(4) 0.2594(3) 0.8928(5)
H19_3 H 0.4486 0.2592 0.8903
C37_3 C 0.1893(4) 0.2013(2) 0.7684(4)
C38_3 C 0.7056(5) 0.4724(3) 0.9615(6)
H20_3 H 0.7493 0.4512 0.9929
C39_3 C 0.6368(4) 0.4705(2) 0.9738(4)
C40_3 C 0.6528(4) 0.5708(2) 0.7925(5)
C41_3 C 0.2604(4) 0.2322(2) 0.8338(4)
C42_3 C 0.5744(4) 0.5010(3) 0.9275(5)
H21_3 H 0.5265 0.4996 0.9344
C45_3 C 0.5800(4) 0.5336(3) 0.8710(5)
H22_3 H 0.5362 0.5549 0.8404
C46_3 C 0.3340(4) 0.2318(3) 0.8322(5)
H23_3 H 0.3404 0.2126 0.7895
C47_3 C 0.7111(4) 0.5047(3) 0.9041(6)
H24_3 H 0.7586 0.5055 0.8962
C48_3 C 0.6482(4) 0.5360(2) 0.8578(4)
C40_4 C 0.1528(4) 0.0708(2) 0.7925(5)
C42_4 C 0.0744(4) 0.0010(3) 0.9275(5)
C45_4 C 0.0800(4) 0.0336(3) 0.8710(5)
H22_4 H 0.0362 0.0549 0.8404
C47_4 C 0.2111(4) 0.0047(3) 0.9041(6)
H24_4 H 0.2586 0.0055 0.8962
C48_4 C 0.1482(4) 0.0360(2) 0.8578(4)
O3_4 O 0.0395(3) 0.83793(16) 0.4145(3)
O6_4 O 0.3791(3) 0.70521(18) 0.7345(3)
C1_4 C 0.1815(4) 0.7878(2) 0.5422(4)
H1_4 H 0.1874 0.8069 0.4991
C2_4 C 0.2479(4) 0.7605(2) 0.6043(4)
H2_4 H 0.2989 0.7616 0.6037
C3_4 C 0.1073(4) 0.7869(2) 0.5436(4)
C5_4 C 0.1015(4) 0.7594(3) 0.6072(5)
H3_4 H 0.0514 0.7592 0.6097
C7_4 C 0.3107(4) 0.7013(2) 0.7316(4)
C15_4 C 0.2396(4) 0.7322(2) 0.6662(4)
C19_4 C 0.0365(4) 0.8165(2) 0.4779(4)
C21_4 C 0.1660(4) 0.7318(3) 0.6678(5)
H11_4 H 0.1596 0.7126 0.7105
O17_4 O 0.0621(3) 0.93070(18) 0.0350(4)
O23_4 O 0.1873(3) 0.90582(17) 0.0759(3)
O24_4 O 0.0261(3) 0.81809(18) 0.0106(3)
C43_4 C 0.1286(4) 0.9334(2) 0.0324(4)
C38_4 C 0.2056(5) 0.9724(3) 0.9615(6)
H20_4 H 0.2493 0.9512 0.9929
C39_4 C 0.1368(4) 0.9705(2) 0.9738(4)
H21_4 H 0.0265 0.9996 0.9344
C12_4 C 0.8472(4) 0.0708(2) 0.7075(5)
C16_4 C 0.9256(4) 0.0010(3) 0.5725(5)
C20_4 C 0.9200(4) 0.0336(3) 0.6290(5)
H10_4 H 0.9638 0.0549 0.6596
C23_4 C 0.7889(4) 0.0047(3) 0.5959(6)
H12_4 H 0.7414 0.0055 0.6038
C24_4 C 0.8518(4) 0.0360(2) 0.6422(4)
O1_4 O 0.9379(3) 0.93070(18) 0.4650(4)
O8_4 O 0.8127(3) 0.90582(17) 0.4241(3)
O11_4 O 0.9739(3) 0.81809(18) 0.4894(3)
C8_4 C 0.7944(5) 0.9724(3) 0.5385(6)
H5_4 H 0.7507 0.9512 0.5071
C9_4 C 0.8632(4) 0.9705(2) 0.5262(4)
H9_4 H 0.9735 0.9996 0.5656
C18_4 C 0.8714(4) 0.9334(2) 0.4676(4)
O18_4 O 0.9605(3) 0.83793(16) 0.0855(3)
H17_4 H 0.8126 0.8069 0.0009
C44_4 C 0.9635(4) 0.8165(2) 0.0221(4)
O21_4 O 0.6209(3) 0.70521(18) 0.7655(3)
C33_4 C 0.8185(4) 0.7878(2) 0.9578(4)
C34_4 C 0.7521(4) 0.7605(2) 0.8957(4)
H18_4 H 0.7011 0.7616 0.8963
C35_4 C 0.8927(4) 0.7869(2) 0.9564(4)
C36_4 C 0.8985(4) 0.7594(3) 0.8928(5)
H19_4 H 0.9486 0.7592 0.8903
C37_4 C 0.6893(4) 0.7013(2) 0.7684(4)
C41_4 C 0.7604(4) 0.7322(2) 0.8338(4)
C46_4 C 0.8340(4) 0.7318(3) 0.8322(5)
H23_4 H 0.8404 0.7126 0.7895
loop_
_geom_bond_atom_site_label_1
_geom_bond_atom_site_label_2
_geom_bond_site_symmetry_1
_geom_bond_site_symmetry_2
O12 Cd1 1_555 1_555
C4 C6 1_555 1_555
C6 H4 1_555 1_555
C17 O12 1_555 1_555
C27 C6 1_555 1_555
H14 C27 1_555 1_555
Cd4 O13 1_555 1_555
Mg4 O12 1_555 1_555
O25 Cd1 1_555 1_555
O32 Cd1 1_555 1_555
O34 Cd1 1_555 1_555
C4 C17 1_555 1_555
Mg4 O34 1_555 1_555
O19 C37 1_555 1_555
O20 C40 1_555 1_555
O21 C37 1_555 1_555
O22 C40 1_555 1_555
C34 C33 1_555 1_555
H18 C34 1_555 1_555
C35 C33 1_555 1_555
C36 C35 1_555 1_555
H19 C36 1_555 1_555
C37 C41 1_555 1_555
C38 H20 1_555 1_555
C39 C38 1_555 1_555
C40 C48 1_555 1_555
C41 C34 1_555 1_555
C42 C39 1_555 1_555
H21 C42 1_555 1_555
C45 C42 1_555 1_555
H22 C45 1_555 1_555
C46 C36 1_555 1_555
H23 C46 1_555 1_555
C47 C38 1_555 1_555
H24 C47 1_555 1_555
C48 C45 1_555 1_555
Cd6 O22 1_555 1_555
Cd8 O19 1_555 1_555
Mg5 O20 1_555 1_555
Mg8 O19 1_555 1_555
Mg11 O22 1_555 1_555
C41 C46 1_555 1_555
C47 C48 1_555 1_555
Cd1_2 O2 1_555 1_555
Cd2 O1 1_555 1_555
Mg1 O8 1_555 1_555
O1 C18 1_555 1_555
O3 Cd2 1_555 1_555
O4 C7 1_555 1_555
O5 C12 1_555 1_555
O6 C7 1_555 1_555
O7 C12 1_555 1_555
O8 Cd2 1_555 1_555
O9 Cd1_2 1_555 1_555
O10 Cd1_2 1_555 1_555
O11 Cd2 1_555 1_555
C1 H1 1_555 1_555
C2 C1 1_555 1_555
H2 C2 1_555 1_555
C3 C1 1_555 1_555
C5 C3 1_555 1_555
H3 C5 1_555 1_555
C7 C15 1_555 1_555
C8 H5 1_555 1_555
C9 C8 1_555 1_555
C10 H6 1_555 1_555
H7 C11 1_555 1_555
C12 C24 1_555 1_555
C13 H8 1_555 1_555
C14 C10 1_555 1_555
C15 C2 1_555 1_555
C16 C9 1_555 1_555
H9 C16 1_555 1_555
C18 O8 1_555 1_555
C19 O3 1_555 1_555
C20 C16 1_555 1_555
H10 C20 1_555 1_555
C21 C5 1_555 1_555
H11 C21 1_555 1_555
C22 O9 1_555 1_555
C23 C8 1_555 1_555
H12 C23 1_555 1_555
C24 C20 1_555 1_555
Mg2 O3 1_555 1_555
O14 C28 1_555 1_555
C25 C26 1_555 1_555
C26 C11 1_555 1_555
H13 C26 1_555 1_555
C28 C25 1_555 1_555
O15 C32 1_555 1_555
O16 C32 1_555 1_555
C29 C13 1_555 1_555
H15 C29 1_555 1_555
C30 C10 1_555 1_555
H16 C30 1_555 1_555
C31 C29 1_555 1_555
C32 C31 1_555 1_555
Cd3 O17 1_555 1_555
Mg4 O23 1_555 1_555
O17 C43 1_555 1_555
O18 Mg2 1_555 1_555
O23 Cd3 1_555 1_555
O24 Cd3 1_555 1_555
C43 O23 1_555 1_555
C44 O18 1_555 1_555
Cd5 O15 1_555 1_555
Cd7 O7 1_555 1_555
Cd9 O4 1_555 1_555
Mg6 O5 1_555 1_555
Mg8 O16 1_555 1_555
Mg9 O4 1_555 1_555
O26 Cd3 1_555 1_555
O27 Cd2 1_555 1_555
O28 Mg4 1_555 1_555
O29 Mg1 1_555 1_555
O30 Mg2 1_555 1_555
O31 Cd2 1_555 1_555
O36 Cd1_2 1_555 1_555
Mg11 O7 1_555 1_555
Mg1 O10 1_555 1_555
Mg1 O27 1_555 1_555
Mg1 O36 1_555 1_555
O10 C22 1_555 1_555
O11 C19 1_555 1_555
C3 C19 1_555 1_555
C9 C18 1_555 1_555
C13 C14 1_555 1_555
C14 C22 1_555 1_555
C15 C21 1_555 1_555
C23 C24 1_555 1_555
Mg2 O31 1_555 1_555
O14 Cd4_2 1_555 1_555
O14 Mg6 1_555 1_555
O16 Cd5 1_555 1_555
C30 C31 1_555 1_555
Cd3 O18 1_555 1_555
Cd3 O30 1_555 1_555
Mg4 O26 1_555 1_555
O24 C44 1_555 1_555
O14_2 C28_2 1_555 1_555
C25_2 C26_2 1_555 1_555
H13_2 C26_2 1_555 1_555
C28_2 C25_2 1_555 1_555
O15_2 C32_2 1_555 1_555
O16_2 C32_2 1_555 1_555
H15_2 C29_2 1_555 1_555
H16_2 C30_2 1_555 1_555
C31_2 C29_2 1_555 1_555
C32_2 C31_2 1_555 1_555
Cd5 O15_2 1_555 1_555
Mg9 O16_2 1_555 1_555
O14_2 Cd4 1_555 1_555
O14_2 Mg5 1_555 1_555
O16_2 Cd5 1_555 1_555
C30_2 C31_2 1_555 1_555
C10_2 H6_2 1_555 1_555
H7_2 C11_2 1_555 1_555
C13_2 H8_2 1_555 1_555
C14_2 C10_2 1_555 1_555
C22_2 O32 1_555 1_555
O34 C22_2 1_555 1_555
C13_2 C14_2 1_555 1_555
C14_2 C22_2 1_555 1_555
H14_2 C27_2 1_555 1_555
Cd4_2 O13_2 1_555 1_555
C4_2 C6_2 1_555 1_555
C6_2 H4_2 1_555 1_555
C17_2 O36 1_555 1_555
C4_2 C17_2 1_555 1_555
O19_2 C37_2 1_555 1_555
O21_2 C37_2 1_555 1_555
C34_2 C33_2 1_555 1_555
H18_2 C34_2 1_555 1_555
C35_2 C33_2 1_555 1_555
C36_2 C35_2 1_555 1_555
H19_2 C36_2 1_555 1_555
C37_2 C41_2 1_555 1_555
C41_2 C34_2 1_555 1_555
C46_2 C36_2 1_555 1_555
H23_2 C46_2 1_555 1_555
Cd6 O19_2 1_555 1_555
Mg5 O19_2 1_555 1_555
C41_2 C46_2 1_555 1_555
Cd1_3 O2_2 1_555 1_555
Cd2_2 O1_2 1_555 1_555
Mg1_2 O8_2 1_555 1_555
O1_2 C18_2 1_555 1_555
O2_2 C17_3 1_555 1_555
O8_2 Cd2_2 1_555 1_555
O9_2 Cd1_3 1_555 1_555
O10_2 Cd1_3 1_555 1_555
O11_2 Cd2_2 1_555 1_555
O12_2 Cd1_3 1_555 1_555
C4_3 C6_3 1_555 1_555
C6_3 H4_3 1_555 1_555
C8_2 H5_2 1_555 1_555
C9_2 C8_2 1_555 1_555
C10_3 H6_3 1_555 1_555
C11_3 C4_3 1_555 1_555
H7_3 C11_3 1_555 1_555
C13_3 H8_3 1_555 1_555
C14_3 C10_3 1_555 1_555
C17_3 O12_2 1_555 1_555
C18_2 O8_2 1_555 1_555
C22_3 O9_2 1_555 1_555
O15_3 C32_3 1_555 1_555
O16_3 C32_3 1_555 1_555
C29_3 C13_3 1_555 1_555
H15_3 C29_3 1_555 1_555
C30_3 C10_3 1_555 1_555
H16_3 C30_3 1_555 1_555
C31_3 C29_3 1_555 1_555
C32_3 C31_3 1_555 1_555
O18_2 Mg2_2 1_555 1_555
C44_2 O18_2 1_555 1_555
Cd4 O15_3 1_555 1_555
Mg4_2 O12_2 1_555 1_555
Mg5 O16_3 1_555 1_555
O25_2 Cd1_3 1_555 1_555
O27_2 Cd2_2 1_555 1_555
O29_2 Mg1_2 1_555 1_555
O31_2 Cd2_2 1_555 1_555
O32_2 Cd1_3 1_555 1_555
O34_2 Cd1_3 1_555 1_555
O36_2 Cd1_3 1_555 1_555
Mg1_2 O10_2 1_555 1_555
Mg1_2 O27_2 1_555 1_555
Mg1_2 O36_2 1_555 1_555
O10_2 C22_3 1_555 1_555
C4_3 C17_3 1_555 1_555
C9_2 C18_2 1_555 1_555
C13_3 C14_3 1_555 1_555
C14_3 C22_3 1_555 1_555
Mg2_2 O31_2 1_555 1_555
O16_3 Cd4 1_555 1_555
C30_3 C31_3 1_555 1_555
Mg4_2 O34_2 1_555 1_555
O5_2 C12_2 1_555 1_555
O7_2 C12_2 1_555 1_555
C12_2 C24_2 1_555 1_555
C20_2 C16_2 1_555 1_555
H10_2 C20_2 1_555 1_555
H12_2 C23_2 1_555 1_555
C24_2 C20_2 1_555 1_555
O13_3 C28_3 1_555 1_555
O14_3 C28_3 1_555 1_555
C25_3 C26_3 1_555 1_555
H13_3 C26_3 1_555 1_555
H14_3 C27_3 1_555 1_555
C28_3 C25_3 1_555 1_555
Cd5 O13_3 1_555 1_555
Cd9 O7_2 1_555 1_555
Mg9 O5_2 1_555 1_555
Mg11_2 O7_2 1_555 1_555
C23_2 C24_2 1_555 1_555
O14_3 Cd5 1_555 1_555
O14_3 Mg9 1_555 1_555
C25_3 C27_3 1_555 1_555
C38_2 H20_2 1_555 1_555
C39_2 C38_2 1_555 1_555
O4_2 C7_2 1_555 1_555
O6_2 C7_2 1_555 1_555
C1_2 H1_2 1_555 1_555
C2_2 C1_2 1_555 1_555
H2_2 C2_2 1_555 1_555
C3_2 C1_2 1_555 1_555
C5_2 C3_2 1_555 1_555
H3_2 C5_2 1_555 1_555
C7_2 C15_2 1_555 1_555
C15_2 C2_2 1_555 1_555
C19_2 O3_2 1_555 1_555
C21_2 C5_2 1_555 1_555
H11_2 C21_2 1_555 1_555
Mg2_3 O3_2 1_555 1_555
Cd3_2 O17_2 1_555 1_555
Mg4_2 O23_2 1_555 1_555
O17_2 C43_2 1_555 1_555
O23_2 Cd3_2 1_555 1_555
O24_2 Cd3_2 1_555 1_555
C43_2 O23_2 1_555 1_555
Cd7 O4_2 1_555 1_555
Mg6 O4_2 1_555 1_555
O26_2 Cd3_2 1_555 1_555
O28_2 Mg4_2 1_555 1_555
O30_2 Mg2_3 1_555 1_555
C3_2 C19_2 1_555 1_555
C15_2 C21_2 1_555 1_555
Cd3_2 O30_2 1_555 1_555
Mg4_2 O26_2 1_555 1_555
O20_2 C40_2 1_555 1_555
O22_2 C40_2 1_555 1_555
C40_2 C48_2 1_555 1_555
C45_2 C42_2 1_555 1_555
H22_2 C45_2 1_555 1_555
H24_2 C47_2 1_555 1_555
C48_2 C45_2 1_555 1_555
Cd8 O22_2 1_555 1_555
Mg8 O20_2 1_555 1_555
Mg11_3 O22_2 1_555 1_555
C47_2 C48_2 1_555 1_555
O15_4 C32_4 1_555 1_555
O16_4 C32_4 1_555 1_555
H15_4 C29_4 1_555 1_555
H16_4 C30_4 1_555 1_555
C31_4 C29_4 1_555 1_555
C32_4 C31_4 1_555 1_555
Cd4_2 O15_4 1_555 1_555
Mg6 O16_4 1_555 1_555
O16_4 Cd4_2 1_555 1_555
C30_4 C31_4 1_555 1_555
O25_2 C17_4 1_555 1_555
C4_4 C6_4 1_555 1_555
C6_4 H4_4 1_555 1_555
C10_4 H6_4 1_555 1_555
C11_4 C4_4 1_555 1_555
H7_4 C11_4 1_555 1_555
C13_4 H8_4 1_555 1_555
C14_4 C10_4 1_555 1_555
C17_4 O36_2 1_555 1_555
C22_4 O32_2 1_555 1_555
O34_2 C22_4 1_555 1_555
C4_4 C17_4 1_555 1_555
C13_4 C14_4 1_555 1_555
C14_4 C22_4 1_555 1_555
O13_4 C28_4 1_555 1_555
O14_4 C28_4 1_555 1_555
C25_4 C26_4 1_555 1_555
H13_4 C26_4 1_555 1_555
H14_4 C27_4 1_555 1_555
C28_4 C25_4 1_555 1_555
Cd5 O13_4 1_555 1_555
O14_4 Cd5 1_555 1_555
O14_4 Mg8 1_555 1_555
C25_4 C27_4 1_555 1_555
Cd6 O1_3 1_555 1_555
Mg5 O8_3 1_555 1_555
O1_3 C18_3 1_555 1_555
O3_3 Cd6 1_555 1_555
O26_2 C7_3 1_555 1_555
O28 C12_3 1_555 1_555
O6_3 C7_3 1_555 1_555
O30 C12_3 1_555 1_555
O8_3 Cd6 1_555 1_555
O11_3 Cd6 1_555 1_555
C1_3 H1_3 1_555 1_555
C2_3 C1_3 1_555 1_555
H2_3 C2_3 1_555 1_555
C3_3 C1_3 1_555 1_555
C5_3 C3_3 1_555 1_555
H3_3 C5_3 1_555 1_555
C7_3 C15_3 1_555 1_555
C8_3 H5_3 1_555 1_555
C9_3 C8_3 1_555 1_555
C12_3 C24_3 1_555 1_555
C15_3 C2_3 1_555 1_555
C16_3 C9_3 1_555 1_555
H9_3 C16_3 1_555 1_555
C18_3 O8_3 1_555 1_555
C19_3 O3_3 1_555 1_555
C20_3 C16_3 1_555 1_555
H10_3 C20_3 1_555 1_555
C21_3 C5_3 1_555 1_555
H11_3 C21_3 1_555 1_555
C23_3 C8_3 1_555 1_555
H12_3 C23_3 1_555 1_555
C24_3 C20_3 1_555 1_555
Mg11 O3_3 1_555 1_555
Cd7 O17_3 1_555 1_555
Mg6 O23_3 1_555 1_555
O17_3 C43_3 1_555 1_555
O18_3 Mg11 1_555 1_555
O23_3 Cd7 1_555 1_555
O24_3 Cd7 1_555 1_555
C43_3 O23_3 1_555 1_555
C44_3 O18_3 1_555 1_555
O11_3 C19_3 1_555 1_555
C3_3 C19_3 1_555 1_555
C9_3 C18_3 1_555 1_555
C15_3 C21_3 1_555 1_555
C23_3 C24_3 1_555 1_555
Cd7 O18_3 1_555 1_555
O24_3 C44_3 1_555 1_555
O27_2 C37_3 1_555 1_555
O29 C40_3 1_555 1_555
O21_3 C37_3 1_555 1_555
O31 C40_3 1_555 1_555
C34_3 C33_3 1_555 1_555
H18_3 C34_3 1_555 1_555
C35_3 C33_3 1_555 1_555
C36_3 C35_3 1_555 1_555
H19_3 C36_3 1_555 1_555
C37_3 C41_3 1_555 1_555
C38_3 H20_3 1_555 1_555
C39_3 C38_3 1_555 1_555
C40_3 C48_3 1_555 1_555
C41_3 C34_3 1_555 1_555
C42_3 C39_3 1_555 1_555
H21_3 C42_3 1_555 1_555
C45_3 C42_3 1_555 1_555
H22_3 C45_3 1_555 1_555
C46_3 C36_3 1_555 1_555
H23_3 C46_3 1_555 1_555
C47_3 C38_3 1_555 1_555
H24_3 C47_3 1_555 1_555
C48_3 C45_3 1_555 1_555
C41_3 C46_3 1_555 1_555
C47_3 C48_3 1_555 1_555
O29_2 C40_4 1_555 1_555
O31_2 C40_4 1_555 1_555
C40_4 C48_4 1_555 1_555
C45_4 C42_4 1_555 1_555
H22_4 C45_4 1_555 1_555
H24_4 C47_4 1_555 1_555
C48_4 C45_4 1_555 1_555
C47_4 C48_4 1_555 1_555
O26 C7_4 1_555 1_555
O6_4 C7_4 1_555 1_555
C1_4 H1_4 1_555 1_555
C2_4 C1_4 1_555 1_555
H2_4 C2_4 1_555 1_555
C3_4 C1_4 1_555 1_555
C5_4 C3_4 1_555 1_555
H3_4 C5_4 1_555 1_555
C7_4 C15_4 1_555 1_555
C15_4 C2_4 1_555 1_555
C19_4 O3_4 1_555 1_555
C21_4 C5_4 1_555 1_555
H11_4 C21_4 1_555 1_555
Mg11_2 O3_4 1_555 1_555
Cd9 O17_4 1_555 1_555
Mg9 O23_4 1_555 1_555
O17_4 C43_4 1_555 1_555
O23_4 Cd9 1_555 1_555
O24_4 Cd9 1_555 1_555
C43_4 O23_4 1_555 1_555
C3_4 C19_4 1_555 1_555
C15_4 C21_4 1_555 1_555
C38_4 H20_4 1_555 1_555
C39_4 C38_4 1_555 1_555
O28_2 C12_4 1_555 1_555
O30_2 C12_4 1_555 1_555
C12_4 C24_4 1_555 1_555
C20_4 C16_4 1_555 1_555
H10_4 C20_4 1_555 1_555
H12_4 C23_4 1_555 1_555
C24_4 C20_4 1_555 1_555
C23_4 C24_4 1_555 1_555
Cd8 O1_4 1_555 1_555
Mg8 O8_4 1_555 1_555
O1_4 C18_4 1_555 1_555
O8_4 Cd8 1_555 1_555
O11_4 Cd8 1_555 1_555
C8_4 H5_4 1_555 1_555
C9_4 C8_4 1_555 1_555
C18_4 O8_4 1_555 1_555
O18_4 Mg11_3 1_555 1_555
C44_4 O18_4 1_555 1_555
C9_4 C18_4 1_555 1_555
O27 C37_4 1_555 1_555
O21_4 C37_4 1_555 1_555
C34_4 C33_4 1_555 1_555
H18_4 C34_4 1_555 1_555
C35_4 C33_4 1_555 1_555
C36_4 C35_4 1_555 1_555
H19_4 C36_4 1_555 1_555
C37_4 C41_4 1_555 1_555
C41_4 C34_4 1_555 1_555
C46_4 C36_4 1_555 1_555
H23_4 C46_4 1_555 1_555
C41_4 C46_4 1_555 1_555

#END
