
###############################################################################
#
# This file contains modified crystal structure data generated from the
# MOF subset of the Cambridge Structural Database (CSD) v543 
# hosted by the Cambridge Crystallographic Data Centre (CCDC).
#
# This work is licensed under the Creative Commons
# Attribution-NonCommercial-ShareAlike 4.0 International License.
# To view a copy of this license, visit
# http://creativecommons.org/licenses/by-nc-sa/4.0/
# or send a letter to
# Creative Commons, PO Box 1866, Mountain View, CA 94042, USA.
#
# CIF created using the CSD Python API on 29 September 2022
# The structure has been converted into the P1 space group
# The structure has a 3D framework
# The original CSD entry IYAKIE is in the orthorhombic crystal system
# The framework has been calculated to contain at least 10.0% void space
# The void calculation uses a probe of radius 1.32A, grid spacing 0.4
# H atom positions have been added when not included in the experimental data
#
###############################################################################

data_IYAKIE
_chemical_formula_moiety         '(C304 H292 Ca8 Cd14 N20 O130)n'
_symmetry_cell_setting           triclinic
_symmetry_space_group_name_H-M   'P 1'
_symmetry_Int_Tables_number      1
_space_group_name_Hall           'P 1'
loop_
_symmetry_equiv_pos_site_id
_symmetry_equiv_pos_as_xyz
1 x,y,z
_cell_length_a                   19.9990(11)
_cell_length_b                   18.6284(11)
_cell_length_c                   35.123(2)
_cell_angle_alpha                90
_cell_angle_beta                 90
_cell_angle_gamma                90
_cell_volume                     13085.1
loop_
_atom_site_label
_atom_site_type_symbol
_atom_site_fract_x
_atom_site_fract_y
_atom_site_fract_z
C43 C 0.0305(5) 0.3125(6) 0.6317(3)
H21 H 0.0319 0.3482 0.6502
C44 C 0.0834(5) 0.3039(5) 0.6079(3)
H22 H 0.1193 0.3356 0.6093
C45 C 0.0265(5) 0.2001(6) 0.5771(3)
H23 H 0.0260 0.1641 0.5588
C47 C 0.0845(5) 0.2467(6) 0.5809(4)
C48 C 0.1431(5) 0.2357(7) 0.5553(3)
C49 C 0.1607(5) 0.7357(8) 0.5715(3)
C50 C 0.2189(5) 0.7493(6) 0.5973(3)
C51 C 0.2206(5) 0.7993(6) 0.6224(3)
H25 H 0.1835 0.8288 0.6255
C52 C 0.2783(5) 0.8107(6) 0.6457(3)
H26 H 0.2805 0.8505 0.6616
C53 C 0.3286(5) 0.7644(6) 0.6446(3)
C54 C 0.3288(5) 0.7068(6) 0.6182(3)
H27 H 0.3654 0.6762 0.6166
C55 C 0.2742(5) 0.6968(6) 0.5952(3)
H28 H 0.2721 0.6580 0.5786
C56 C 0.3878(5) 0.7707(7) 0.6712(4)
C57 C 0.1121(5) 0.7387(7) 0.4489(3)
C58 C 0.1359(5) 0.7412(7) 0.4071(3)
C59 C 0.1846(6) 0.7846(8) 0.3955(3)
H29 H 0.2078 0.8116 0.4134
C60 C 0.2019(5) 0.7907(6) 0.3565(3)
H30 H 0.2354 0.8217 0.3485
C61 C 0.1675(5) 0.7493(6) 0.3314(3)
C62 C 0.1173(6) 0.6992(6) 0.3446(3)
H31 H 0.0954 0.6688 0.3277
C63 C 0.1034(6) 0.6978(7) 0.3816(4)
H32 H 0.0708 0.6664 0.3905
C64 C 0.1807(6) 0.7583(6) 0.2894(4)
Ca2 Ca 0.01954(9) 0.77118(10) 0.61684(5)
Cd3 Cd 0.06044(3) 0.74530(4) 0.51810(2)
O23 O 0.1408(3) 0.1891(5) 0.5310(2)
O24 O 0.1930(3) 0.2753(4) 0.5593(2)
O25 O 0.1597(4) 0.6865(4) 0.5472(2)
O26 O 0.1116(3) 0.7824(4) 0.5743(2)
O27 O 0.4366(4) 0.7283(5) 0.6652(2)
O28 O 0.3843(4) 0.8116(4) 0.6992(3)
O29 O 0.0713(4) 0.6914(5) 0.4585(2)
O30 O 0.1370(4) 0.7834(5) 0.4711(2)
O31 O 0.1434(4) 0.7240(5) 0.2664(2)
O32 O 0.2266(4) 0.7984(5) 0.2776(2)
Ca3 Ca 0.27774(9) 0.26604(11) 0.60644(5)
Cd5 Cd 0.18114(3) 0.77027(4) 0.21112(2)
Ca7 Ca 0.51954(9) 0.72882(10) 0.61684(5)
Cd6 Cd 0.24735(3) 0.24205(4) 0.50412(2)
Cd9 Cd 0.49941(3) 0.73430(4) 0.71908(2)
O34 O 0.0509(4) 0.8673(5) 0.6522(2)
O36 O 0.0837(4) 0.7016(5) 0.6538(2)
O38 O 0.0008(4) 0.8439(4) 0.5086(2)
C1 C 0.7209(5) 0.3411(6) 0.6770(3)
C2 C 0.6830(5) 0.4112(6) 0.6780(3)
C3 C 0.9733(5) 0.2685(6) 0.6289(3)
C4 C 0.6790(5) 0.4492(6) 0.7116(3)
H1 H 0.6998 0.4310 0.7332
C5 C 0.6448(5) 0.5140(6) 0.7142(3)
H2 H 0.6423 0.5389 0.7371
C6 C 0.6137(5) 0.5410(6) 0.6808(3)
C7 C 0.6195(6) 0.5042(7) 0.6470(3)
H3 H 0.6007 0.5231 0.6250
C8 C 0.6527(6) 0.4398(7) 0.6456(3)
H4 H 0.6550 0.4149 0.6227
C9 C 0.5722(5) 0.6087(6) 0.6830(3)
C10 C 0.7354(5) 0.1090(5) 0.6667(3)
C11 C 0.6988(5) 0.0374(6) 0.6703(3)
H5 H 0.7112 0.0024 0.6163
C16 C 0.6707(5) 0.0175(6) 0.7057(3)
H8 H 0.6763 0.0475 0.7266
C18 C 0.8334(5) 0.1402(6) 0.5271(3)
C19 C 0.8665(5) 0.0667(6) 0.5300(3)
C20 C 0.8882(6) 0.0330(6) 0.4970(3)
H9 H 0.8795 0.0529 0.4733
C24 C 0.8758(6) 0.0352(7) 0.5641(3)
H12 H 0.8610 0.0576 0.5862
C26 C 0.6853(6) 0.2562(7) 0.4364(4)
C27 C 0.6537(7) 0.2570(7) 0.3966(4)
C28 C 0.5965(6) 0.2190(8) 0.3917(3)
H13 H 0.5768 0.1944 0.4119
C29 C 0.5677(6) 0.2179(7) 0.3548(4)
H14 H 0.5324 0.1872 0.3492
C30 C 0.5936(5) 0.2645(5) 0.3263(3)
C31 C 0.6460(6) 0.3054(7) 0.3345(4)
H15 H 0.6614 0.3381 0.3165
C32 C 0.6781(6) 0.3002(7) 0.3691(4)
H16 H 0.7167 0.3267 0.3735
C33 C 0.5567(5) 0.2653(6) 0.2884(3)
C34 C 0.8258(6) 0.3685(6) 0.5487(3)
C35 C 0.8600(5) 0.4394(6) 0.5523(3)
C36 C 0.8740(8) 0.4721(7) 0.5891(4)
H17 H 0.8603 0.4493 0.6114
C37 C 0.9078(7) 0.5373(7) 0.5911(4)
H18 H 0.9177 0.5578 0.6146
C38 C 0.9255(5) 0.5695(6) 0.5594(3)
C39 C 0.9126(5) 0.5417(6) 0.5234(3)
H19 H 0.9253 0.5677 0.5019
C40 C 0.8814(6) 0.4767(6) 0.5190(4)
H20 H 0.8743 0.4574 0.4949
C41 C 0.9634(5) 0.6419(6) 0.5617(3)
C42 C 0.9177(5) 0.2731(6) 0.6571(3)
C46 C 0.9718(5) 0.2097(6) 0.6011(3)
H24 H 0.9350 0.1794 0.5995
C65 C 0.8877(7) 0.0736(8) 0.7205(5)
C66 C 0.8436(9) 0.0381(12) 0.7560(6)
H33 H 0.8107 0.0059 0.7459
H34 H 0.8217 0.0757 0.7700
H35 H 0.8730 0.0123 0.7728
C68 C 0.9426(10) 0.0559(11) 0.6653(5)
H39 H 0.9103 0.0754 0.6480
H40 H 0.9663 0.0173 0.6531
H41 H 0.9737 0.0927 0.6726
Ca1 Ca 0.77774(9) 0.23396(11) 0.60644(5)
Cd1 Cd 0.81886(3) 0.22973(4) 0.71112(2)
O1 O 0.7520(4) 0.3239(4) 0.7058(2)
Cd2 Cd 0.74735(3) 0.25795(4) 0.50412(2)
O2 O 0.7163(4) 0.3041(4) 0.6473(2)
O3 O 0.5644(3) 0.6385(4) 0.7154(2)
O4 O 0.5509(4) 0.6327(5) 0.6522(2)
N1 N 0.9092(6) 0.0292(6) 0.6985(4)
O5 O 0.7462(4) 0.1435(4) 0.6974(2)
O6 O 0.7513(4) 0.1262(4) 0.6336(2)
O9 O 0.8295(3) 0.1765(4) 0.5571(2)
O10 O 0.8106(4) 0.1583(4) 0.4963(2)
O13 O 0.7324(4) 0.3002(5) 0.4428(2)
O14 O 0.6695(4) 0.2082(5) 0.4596(2)
O15 O 0.5761(4) 0.3124(4) 0.2649(2)
O16 O 0.5116(4) 0.2226(5) 0.2807(2)
O17 O 0.8138(4) 0.3468(4) 0.5155(2)
O18 O 0.8078(4) 0.3379(5) 0.5788(2)
O19 O 0.9739(4) 0.6685(4) 0.5919(2)
O20 O 0.9860(4) 0.6640(5) 0.5302(2)
O21 O 0.8642(3) 0.2391(5) 0.6501(2)
O22 O 0.9262(4) 0.3078(6) 0.6852(3)
O33 O 0.8971(4) 0.1370(5) 0.7204(3)
Cd10 Cd 0.50059(3) 0.26570(4) 0.21908(2)
O35 O 0.5650(4) 0.8280(4) 0.7151(2)
O37 O 0.9709(3) 0.8373(4) 0.5701(2)
O39 O 0.4239(4) 0.6876(4) 0.7649(2)
O40 O 0.4884(4) 0.7774(5) 0.7807(2)
O41 O 0.6408(3) 0.3109(5) 0.5310(2)
O42 O 0.6930(3) 0.2247(4) 0.5593(2)
O44 O 0.9366(4) 0.7717(5) 0.6652(2)
O46 O 0.8566(4) 0.2760(5) 0.7664(2)
O47 O 0.7734(4) 0.2016(5) 0.7776(2)
C12 C 0.6915(6) 0.9912(7) 0.6395(3)
C13 C 0.6553(6) 0.9290(6) 0.6435(3)
H6 H 0.6486 0.8992 0.6226
C14 C 0.6286(4) 0.9104(5) 0.6787(3)
C15 C 0.6355(4) 0.9554(5) 0.7097(3)
H7 H 0.6164 0.9434 0.7330
C17 C 0.5908(5) 0.8404(6) 0.6828(3)
C21 C 0.9236(6) 0.9685(6) 0.5002(3)
H10 H 0.9412 0.9470 0.4785
C22 C 0.9323(5) 0.9367(6) 0.5349(3)
C23 C 0.9087(6) 0.9668(6) 0.5660(3)
H11 H 0.9133 0.9437 0.5894
C25 C 0.9694(5) 0.8667(6) 0.5388(3)
C67 C 0.8942(11) 0.9462(8) 0.6977(5)
H36 H 0.8957 0.9275 0.7231
H37 H 0.9272 0.9224 0.6823
H38 H 0.8506 0.9382 0.6870
O8 O 0.5837(4) 0.7984(5) 0.6538(2)
C12_2 C 0.3085(6) 0.0088(7) 0.1395(3)
C13_2 C 0.3447(6) 0.0710(6) 0.1435(3)
H6_2 H 0.3514 0.1008 0.1226
C14_2 C 0.3714(4) 0.0896(5) 0.1787(3)
C15_2 C 0.3645(4) 0.0446(5) 0.2097(3)
H7_2 H 0.3836 0.0566 0.2330
C17_2 C 0.4092(5) 0.1596(6) 0.1828(3)
C21_2 C 0.0764(6) 0.0315(6) 0.0002(3)
C22_2 C 0.0677(5) 0.0633(6) 0.0349(3)
C23_2 C 0.0913(6) 0.0332(6) 0.0660(3)
H11_2 H 0.0867 0.0563 0.0894
C25_2 C 0.0306(5) 0.1333(6) 0.0388(3)
C67_2 C 0.1058(11) 0.0538(8) 0.1977(5)
H36_2 H 0.1043 0.0725 0.2231
H37_2 H 0.0728 0.0776 0.1823
H38_2 H 0.1494 0.0618 0.1870
O7 O 0.4350(4) 0.1720(4) 0.2151(2)
O8_2 O 0.4163(4) 0.2016(5) 0.1538(2)
O11 O 0.0291(3) 0.1627(4) 0.0701(2)
Ca5 Ca 0.48046(9) 0.27118(10) 0.11684(5)
C1_2 C 0.2791(5) 0.6589(6) 0.1770(3)
C2_2 C 0.3170(5) 0.5888(6) 0.1780(3)
C3_2 C 0.0267(5) 0.7315(6) 0.1289(3)
C4_2 C 0.3210(5) 0.5508(6) 0.2116(3)
H1_2 H 0.3002 0.5690 0.2332
C5_2 C 0.3552(5) 0.4860(6) 0.2142(3)
H2_2 H 0.3577 0.4611 0.2371
C6_2 C 0.3863(5) 0.4590(6) 0.1808(3)
C7_2 C 0.3805(6) 0.4958(7) 0.1470(3)
H3_2 H 0.3993 0.4769 0.1250
C8_2 C 0.3473(6) 0.5602(7) 0.1456(3)
H4_2 H 0.3450 0.5851 0.1227
C9_2 C 0.4278(5) 0.3913(6) 0.1830(3)
C10_2 C 0.2646(5) 0.8910(5) 0.1667(3)
C11_2 C 0.3012(5) 0.9626(6) 0.1703(3)
H5_2 H 0.2888 0.9976 0.1163
C16_2 C 0.3293(5) 0.9825(6) 0.2057(3)
H8_2 H 0.3237 0.9525 0.2266
C18_2 C 0.1666(5) 0.8598(6) 0.0271(3)
C19_2 C 0.1335(5) 0.9333(6) 0.0300(3)
C24_2 C 0.1242(6) 0.9648(7) 0.0641(3)
H12_2 H 0.1390 0.9424 0.0862
C34_2 C 0.1742(6) 0.6315(6) 0.0487(3)
C35_2 C 0.1400(5) 0.5606(6) 0.0523(3)
C36_2 C 0.1260(8) 0.5279(7) 0.0891(4)
H17_2 H 0.1397 0.5507 0.1114
C37_2 C 0.0922(7) 0.4627(7) 0.0911(4)
H18_2 H 0.0823 0.4422 0.1146
C38_2 C 0.0745(5) 0.4305(6) 0.0594(3)
C39_2 C 0.0874(5) 0.4583(6) 0.0234(3)
H19_2 H 0.0747 0.4323 0.0019
C40_2 C 0.1186(6) 0.5233(6) 0.0190(4)
C41_2 C 0.0366(5) 0.3581(6) 0.0617(3)
C42_2 C 0.0823(5) 0.7269(6) 0.1571(3)
C46_2 C 0.0282(5) 0.7903(6) 0.1011(3)
H24_2 H 0.0650 0.8206 0.0995
C65_2 C 0.1123(7) 0.9264(8) 0.2205(5)
C66_2 C 0.1564(9) 0.9619(12) 0.2560(6)
H33_2 H 0.1893 0.9941 0.2459
H34_2 H 0.1783 0.9243 0.2700
H35_2 H 0.1270 0.9877 0.2728
C68_2 C 0.0574(10) 0.9441(11) 0.1653(5)
H39_2 H 0.0897 0.9246 0.1480
H40_2 H 0.0337 0.9827 0.1531
H41_2 H 0.0263 0.9073 0.1726
Ca1_2 Ca 0.22226(9) 0.76604(11) 0.10644(5)
O1_2 O 0.2480(4) 0.6761(4) 0.2058(2)
Cd2_2 Cd 0.25265(3) 0.74205(4) 0.00412(2)
O2_2 O 0.2837(4) 0.6959(4) 0.1473(2)
O3_2 O 0.4356(3) 0.3615(4) 0.2154(2)
O4_2 O 0.4491(4) 0.3673(5) 0.1522(2)
N1_2 N 0.0908(6) 0.9708(6) 0.1985(4)
O5_2 O 0.2538(4) 0.8565(4) 0.1974(2)
O6_2 O 0.2487(4) 0.8738(4) 0.1336(2)
O9_2 O 0.1705(3) 0.8235(4) 0.0571(2)
O17_2 O 0.1862(4) 0.6532(4) 0.0155(2)
O18_2 O 0.1922(4) 0.6621(5) 0.0788(2)
O19_2 O 0.0261(4) 0.3315(4) 0.0919(2)
O20_2 O 0.0140(4) 0.3360(5) 0.0302(2)
O21_2 O 0.1358(3) 0.7609(5) 0.1501(2)
O22_2 O 0.0738(4) 0.6922(6) 0.1852(3)
O33_2 O 0.1029(4) 0.8630(5) 0.2204(3)
O41_2 O 0.3592(3) 0.6891(5) 0.0310(2)
O42_2 O 0.3070(3) 0.7753(4) 0.0593(2)
O43 O 0.5634(4) 0.2717(5) 0.1652(2)
O44_2 O 0.0634(4) 0.2283(5) 0.1652(2)
O45 O 0.6157(4) 0.1884(4) 0.1992(3)
C20_2 C 0.1118(6) 0.9670(6) 0.9970(3)
H9_2 H 0.1205 0.9471 0.9733
C26_2 C 0.3147(6) 0.7438(7) 0.9364(4)
C27_2 C 0.3463(7) 0.7430(7) 0.8966(4)
C28_2 C 0.4035(6) 0.7810(8) 0.8917(3)
H13_2 H 0.4232 0.8056 0.9119
C29_2 C 0.4323(6) 0.7821(7) 0.8548(4)
H14_2 H 0.4676 0.8128 0.8492
C30_2 C 0.4064(5) 0.7355(5) 0.8263(3)
C31_2 C 0.3540(6) 0.6946(7) 0.8345(4)
H15_2 H 0.3386 0.6619 0.8165
C32_2 C 0.3219(6) 0.6998(7) 0.8691(4)
H16_2 H 0.2833 0.6733 0.8735
C33_2 C 0.4433(5) 0.7347(6) 0.7884(3)
H20_2 H 0.1257 0.5426 0.9949
O10_2 O 0.1894(4) 0.8417(4) 0.9963(2)
O13_2 O 0.2676(4) 0.6998(5) 0.9428(2)
O14_2 O 0.3305(4) 0.7918(5) 0.9596(2)
O12 O 0.9992(4) 0.1561(4) 0.0086(2)
Ca4 Ca 0.98046(9) 0.22882(10) 0.11684(5)
Cd7 Cd 0.93956(3) 0.25470(4) 0.01810(2)
C43_2 C 0.9695(5) 0.6875(6) 0.1317(3)
H21_2 H 0.9681 0.6518 0.1502
C44_2 C 0.9166(5) 0.6961(5) 0.1079(3)
H22_2 H 0.8807 0.6644 0.1093
C45_2 C 0.9735(5) 0.7999(6) 0.0771(3)
H23_2 H 0.9740 0.8359 0.0588
C47_2 C 0.9155(5) 0.7533(6) 0.0809(4)
C48_2 C 0.8569(5) 0.7643(7) 0.0553(3)
C49_2 C 0.8393(5) 0.2643(8) 0.0715(3)
C50_2 C 0.7811(5) 0.2507(6) 0.0973(3)
C51_2 C 0.7794(5) 0.2007(6) 0.1224(3)
H25_2 H 0.8165 0.1712 0.1255
C52_2 C 0.7217(5) 0.1893(6) 0.1457(3)
H26_2 H 0.7195 0.1495 0.1616
C53_2 C 0.6714(5) 0.2356(6) 0.1446(3)
C54_2 C 0.6712(5) 0.2932(6) 0.1182(3)
H27_2 H 0.6346 0.3238 0.1166
C55_2 C 0.7258(5) 0.3032(6) 0.0952(3)
H28_2 H 0.7279 0.3420 0.0786
C56_2 C 0.6122(5) 0.2293(7) 0.1712(4)
O23_2 O 0.8592(3) 0.8109(5) 0.0310(2)
O24_2 O 0.8070(3) 0.7247(4) 0.0593(2)
O25_2 O 0.8403(4) 0.3135(4) 0.0472(2)
O26_2 O 0.8884(3) 0.2176(4) 0.0743(2)
Ca3_2 Ca 0.72226(9) 0.73396(11) 0.10644(5)
Cd6_2 Cd 0.75265(3) 0.75795(4) 0.00412(2)
O34_2 O 0.9491(4) 0.1327(5) 0.1522(2)
O36_2 O 0.9163(4) 0.2984(5) 0.1538(2)
C57_2 C 0.8879(5) 0.2613(7) 0.9489(3)
C58_2 C 0.8641(5) 0.2588(7) 0.9071(3)
C59_2 C 0.8154(6) 0.2154(8) 0.8955(3)
H29_2 H 0.7922 0.1884 0.9134
C60_2 C 0.7981(5) 0.2093(6) 0.8565(3)
H30_2 H 0.7646 0.1783 0.8485
C61_2 C 0.8325(5) 0.2507(6) 0.8314(3)
C62_2 C 0.8827(6) 0.3008(6) 0.8446(3)
H31_2 H 0.9046 0.3312 0.8277
C63_2 C 0.8966(6) 0.3022(7) 0.8816(4)
H32_2 H 0.9292 0.3336 0.8905
C64_2 C 0.8193(6) 0.2417(6) 0.7894(4)
O29_2 O 0.9287(4) 0.3086(5) 0.9585(2)
O30_2 O 0.8630(4) 0.2166(5) 0.9711(2)
C1_3 C 0.2209(5) 0.1589(6) 0.6770(3)
C2_3 C 0.1830(5) 0.0888(6) 0.6780(3)
C3_3 C 0.4733(5) 0.2315(6) 0.6289(3)
C4_3 C 0.1790(5) 0.0508(6) 0.7116(3)
H1_3 H 0.1998 0.0690 0.7332
C8_3 C 0.1527(6) 0.0602(7) 0.6456(3)
H4_3 H 0.1550 0.0851 0.6227
C10_3 C 0.2354(5) 0.3910(5) 0.6667(3)
C11_3 C 0.1988(5) 0.4626(6) 0.6703(3)
C12_3 C 0.1915(6) 0.5088(7) 0.6395(3)
H5_3 H 0.2112 0.4976 0.6163
C13_3 C 0.1553(6) 0.5710(6) 0.6435(3)
H6_3 H 0.1486 0.6008 0.6226
C14_3 C 0.1286(4) 0.5896(5) 0.6787(3)
C15_3 C 0.1355(4) 0.5446(5) 0.7097(3)
H7_3 H 0.1164 0.5566 0.7330
C16_3 C 0.1707(5) 0.4825(6) 0.7057(3)
H8_3 H 0.1763 0.4525 0.7266
C17_3 C 0.0908(5) 0.6596(6) 0.6828(3)
C18_3 C 0.3334(5) 0.3598(6) 0.5271(3)
C19_3 C 0.3665(5) 0.4333(6) 0.5300(3)
C20_3 C 0.3882(6) 0.4670(6) 0.4970(3)
H9_3 H 0.3795 0.4471 0.4733
C21_3 C 0.4236(6) 0.5315(6) 0.5002(3)
H10_2 H 0.4412 0.5530 0.4785
C22_3 C 0.4323(5) 0.5633(6) 0.5349(3)
C23_3 C 0.4087(6) 0.5332(6) 0.5660(3)
H11_3 H 0.4133 0.5563 0.5894
C24_3 C 0.3758(6) 0.4648(7) 0.5641(3)
H12_3 H 0.3610 0.4424 0.5862
C25_3 C 0.4694(5) 0.6333(6) 0.5388(3)
C26_3 C 0.1853(6) 0.2438(7) 0.4364(4)
C27_3 C 0.1537(7) 0.2430(7) 0.3966(4)
C28_3 C 0.0965(6) 0.2810(8) 0.3917(3)
H13_3 H 0.0768 0.3056 0.4119
C29_3 C 0.0677(6) 0.2821(7) 0.3548(4)
H14_3 H 0.0324 0.3128 0.3492
C30_3 C 0.0936(5) 0.2355(5) 0.3263(3)
C31_3 C 0.1460(6) 0.1946(7) 0.3345(4)
H15_3 H 0.1614 0.1619 0.3165
C32_3 C 0.1781(6) 0.1998(7) 0.3691(4)
H16_3 H 0.2167 0.1733 0.3735
C33_3 C 0.0567(5) 0.2347(6) 0.2884(3)
C34_3 C 0.3258(6) 0.1315(6) 0.5487(3)
C35_3 C 0.3600(5) 0.0606(6) 0.5523(3)
C36_3 C 0.3740(8) 0.0279(7) 0.5891(4)
H17_3 H 0.3603 0.0507 0.6114
C40_3 C 0.3814(6) 0.0233(6) 0.5190(4)
H20_3 H 0.3743 0.0426 0.4949
C42_3 C 0.4177(5) 0.2269(6) 0.6571(3)
C43_3 C 0.5305(5) 0.1875(6) 0.6317(3)
H21_3 H 0.5319 0.1518 0.6502
C44_3 C 0.5834(5) 0.1961(5) 0.6079(3)
H22_3 H 0.6193 0.1644 0.6093
C45_3 C 0.5265(5) 0.2999(6) 0.5771(3)
H23_3 H 0.5260 0.3359 0.5588
C46_3 C 0.4718(5) 0.2903(6) 0.6011(3)
H24_3 H 0.4350 0.3206 0.5995
C47_3 C 0.5845(5) 0.2533(6) 0.5809(4)
C48_3 C 0.6431(5) 0.2643(7) 0.5553(3)
C65_3 C 0.3877(7) 0.4264(8) 0.7205(5)
C66_3 C 0.3436(9) 0.4619(12) 0.7560(6)
H33_3 H 0.3107 0.4941 0.7459
H34_3 H 0.3217 0.4243 0.7700
H35_3 H 0.3730 0.4877 0.7728
C67_3 C 0.3942(11) 0.5538(8) 0.6977(5)
H36_3 H 0.3957 0.5725 0.7231
H37_3 H 0.4272 0.5776 0.6823
H38_3 H 0.3506 0.5618 0.6870
C68_3 C 0.4426(10) 0.4441(11) 0.6653(5)
H39_3 H 0.4103 0.4246 0.6480
H40_3 H 0.4663 0.4827 0.6531
H41_3 H 0.4737 0.4073 0.6726
Cd1_2 Cd 0.31886(3) 0.27027(4) 0.71112(2)
O1_3 O 0.2520(4) 0.1761(4) 0.7058(2)
O2_3 O 0.2163(4) 0.1959(4) 0.6473(2)
N1_3 N 0.4092(6) 0.4708(6) 0.6985(4)
O5_3 O 0.2462(4) 0.3565(4) 0.6974(2)
O6_3 O 0.2513(4) 0.3738(4) 0.6336(2)
O7_2 O 0.0650(4) 0.6720(4) 0.7151(2)
O9_3 O 0.3295(3) 0.3235(4) 0.5571(2)
O10_3 O 0.3106(4) 0.3417(4) 0.4963(2)
O11_2 O 0.4709(3) 0.6627(4) 0.5701(2)
O12_2 O 0.5008(4) 0.6561(4) 0.5086(2)
O13_3 O 0.2324(4) 0.1998(5) 0.4428(2)
O14_3 O 0.1695(4) 0.2918(5) 0.4596(2)
O15_2 O 0.0761(4) 0.1876(4) 0.2649(2)
O16_2 O 0.0116(4) 0.2774(5) 0.2807(2)
O17_3 O 0.3138(4) 0.1532(4) 0.5155(2)
O18_3 O 0.3078(4) 0.1621(5) 0.5788(2)
O21_3 O 0.3642(3) 0.2609(5) 0.6501(2)
O22_3 O 0.4262(4) 0.1922(6) 0.6852(3)
O33_3 O 0.3971(4) 0.3630(5) 0.7204(3)
Cd7_2 Cd 0.56044(3) 0.75470(4) 0.51810(2)
Cd10_2 Cd 0.00059(3) 0.23430(4) 0.21908(2)
O46_2 O 0.3566(4) 0.2240(5) 0.7664(2)
O47_2 O 0.2734(4) 0.2984(5) 0.7776(2)
C5_3 C 0.1448(5) 0.9860(6) 0.7142(3)
H2_3 H 0.1423 0.9611 0.7371
C6_3 C 0.1137(5) 0.9590(6) 0.6808(3)
C7_3 C 0.1195(6) 0.9958(7) 0.6470(3)
H3_3 H 0.1007 0.9769 0.6250
C9_3 C 0.0722(5) 0.8913(6) 0.6830(3)
C37_3 C 0.4078(7) 0.9627(7) 0.5911(4)
H18_3 H 0.4177 0.9422 0.6146
C38_3 C 0.4255(5) 0.9305(6) 0.5594(3)
C39_3 C 0.4126(5) 0.9583(6) 0.5234(3)
H19_3 H 0.4253 0.9323 0.5019
C41_3 C 0.4634(5) 0.8581(6) 0.5617(3)
C49_3 C 0.6607(5) 0.7643(8) 0.5715(3)
C50_3 C 0.7189(5) 0.7507(6) 0.5973(3)
C51_3 C 0.7206(5) 0.7007(6) 0.6224(3)
H25_3 H 0.6835 0.6712 0.6255
C52_3 C 0.7783(5) 0.6893(6) 0.6457(3)
H26_3 H 0.7805 0.6495 0.6616
C53_3 C 0.8286(5) 0.7356(6) 0.6446(3)
C54_3 C 0.8288(5) 0.7932(6) 0.6182(3)
H27_3 H 0.8654 0.8238 0.6166
C55_3 C 0.7742(5) 0.8032(6) 0.5952(3)
H28_3 H 0.7721 0.8420 0.5786
C56_3 C 0.8878(5) 0.7293(7) 0.6712(4)
C57_3 C 0.6121(5) 0.7613(7) 0.4489(3)
C58_3 C 0.6359(5) 0.7588(7) 0.4071(3)
C59_3 C 0.6846(6) 0.7154(8) 0.3955(3)
H29_3 H 0.7078 0.6884 0.4134
C60_3 C 0.7019(5) 0.7093(6) 0.3565(3)
H30_3 H 0.7354 0.6783 0.3485
C61_3 C 0.6675(5) 0.7507(6) 0.3314(3)
C62_3 C 0.6173(6) 0.8008(6) 0.3446(3)
H31_3 H 0.5954 0.8312 0.3277
C63_3 C 0.6034(6) 0.8022(7) 0.3816(4)
H32_3 H 0.5708 0.8336 0.3905
C64_3 C 0.6807(6) 0.7417(6) 0.2894(4)
O3_3 O 0.0644(3) 0.8615(4) 0.7154(2)
O19_3 O 0.4739(4) 0.8315(4) 0.5919(2)
O20_3 O 0.4860(4) 0.8360(5) 0.5302(2)
O25_3 O 0.6597(4) 0.8135(4) 0.5472(2)
O26_3 O 0.6116(3) 0.7176(4) 0.5743(2)
O28_2 O 0.8843(4) 0.6884(4) 0.6992(3)
O29_3 O 0.5713(4) 0.8086(5) 0.4585(2)
O30_3 O 0.6370(4) 0.7166(5) 0.4711(2)
O31_2 O 0.6434(4) 0.7760(5) 0.2664(2)
O32_2 O 0.7266(4) 0.7016(5) 0.2776(2)
Cd5_2 Cd 0.68114(3) 0.72973(4) 0.21112(2)
Cd9_2 Cd 0.99941(3) 0.76570(4) 0.71908(2)
O39_2 O 0.9239(4) 0.8124(4) 0.7649(2)
O40_2 O 0.9884(4) 0.7226(5) 0.7807(2)
O45_2 O 0.1157(4) 0.3116(4) 0.1992(3)
C5_4 C 0.8552(5) 0.0140(6) 0.2142(3)
H2_4 H 0.8577 0.0389 0.2371
C6_4 C 0.8863(5) 0.0410(6) 0.1808(3)
C7_4 C 0.8805(6) 0.0042(7) 0.1470(3)
H3_4 H 0.8993 0.0231 0.1250
C9_4 C 0.9278(5) 0.1087(6) 0.1830(3)
C37_4 C 0.5922(7) 0.0373(7) 0.0911(4)
H18_4 H 0.5823 0.0578 0.1146
C38_4 C 0.5745(5) 0.0695(6) 0.0594(3)
C39_4 C 0.5874(5) 0.0417(6) 0.0234(3)
H19_4 H 0.5747 0.0677 0.0019
C41_4 C 0.5366(5) 0.1419(6) 0.0617(3)
C49_4 C 0.3393(5) 0.2357(8) 0.0715(3)
C50_4 C 0.2811(5) 0.2493(6) 0.0973(3)
C51_4 C 0.2794(5) 0.2993(6) 0.1224(3)
H25_4 H 0.3165 0.3288 0.1255
C52_4 C 0.2217(5) 0.3107(6) 0.1457(3)
H26_4 H 0.2195 0.3505 0.1616
C53_4 C 0.1714(5) 0.2644(6) 0.1446(3)
C54_4 C 0.1712(5) 0.2068(6) 0.1182(3)
H27_4 H 0.1346 0.1762 0.1166
C55_4 C 0.2258(5) 0.1968(6) 0.0952(3)
H28_4 H 0.2279 0.1580 0.0786
C56_4 C 0.1122(5) 0.2707(7) 0.1712(4)
Cd3_2 Cd 0.43956(3) 0.24530(4) 0.01810(2)
O3_4 O 0.9356(3) 0.1385(4) 0.2154(2)
O19_4 O 0.5261(4) 0.1685(4) 0.0919(2)
O20_4 O 0.5140(4) 0.1640(5) 0.0302(2)
O25_4 O 0.3403(4) 0.1865(4) 0.0472(2)
O26_4 O 0.3884(3) 0.2824(4) 0.0743(2)
O35_2 O 0.9350(4) 0.3280(4) 0.2151(2)
O37_2 O 0.5291(3) 0.3373(4) 0.0701(2)
O38_2 O 0.4992(4) 0.3439(4) 0.0086(2)
C57_4 C 0.3879(5) 0.2387(7) 0.9489(3)
C58_4 C 0.3641(5) 0.2412(7) 0.9071(3)
C59_4 C 0.3154(6) 0.2846(8) 0.8955(3)
H29_4 H 0.2922 0.3116 0.9134
C60_4 C 0.2981(5) 0.2907(6) 0.8565(3)
H30_4 H 0.2646 0.3217 0.8485
C61_4 C 0.3325(5) 0.2493(6) 0.8314(3)
C62_4 C 0.3827(6) 0.1992(6) 0.8446(3)
H31_4 H 0.4046 0.1688 0.8277
C63_4 C 0.3966(6) 0.1978(7) 0.8816(4)
H32_4 H 0.4292 0.1664 0.8905
C64_4 C 0.3193(6) 0.2583(6) 0.7894(4)
O29_4 O 0.4287(4) 0.1914(5) 0.9585(2)
O30_4 O 0.3630(4) 0.2834(5) 0.9711(2)
C1_4 C 0.7791(5) 0.8411(6) 0.1770(3)
C2_4 C 0.8170(5) 0.9112(6) 0.1780(3)
C3_4 C 0.5267(5) 0.7685(6) 0.1289(3)
C4_4 C 0.8210(5) 0.9492(6) 0.2116(3)
H1_4 H 0.8002 0.9310 0.2332
C8_4 C 0.8473(6) 0.9398(7) 0.1456(3)
H4_4 H 0.8450 0.9149 0.1227
C10_4 C 0.7646(5) 0.6090(5) 0.1667(3)
C11_4 C 0.8012(5) 0.5374(6) 0.1703(3)
C12_4 C 0.8085(6) 0.4912(7) 0.1395(3)
H5_4 H 0.7888 0.5024 0.1163
C13_4 C 0.8447(6) 0.4290(6) 0.1435(3)
H6_4 H 0.8514 0.3992 0.1226
C14_4 C 0.8714(4) 0.4104(5) 0.1787(3)
C15_4 C 0.8645(4) 0.4554(5) 0.2097(3)
H7_4 H 0.8836 0.4434 0.2330
C16_4 C 0.8293(5) 0.5175(6) 0.2057(3)
H8_4 H 0.8237 0.5475 0.2266
C17_4 C 0.9092(5) 0.3404(6) 0.1828(3)
C18_4 C 0.6666(5) 0.6402(6) 0.0271(3)
C19_4 C 0.6335(5) 0.5667(6) 0.0300(3)
C21_4 C 0.5764(6) 0.4685(6) 0.0002(3)
C22_4 C 0.5677(5) 0.4367(6) 0.0349(3)
C23_4 C 0.5913(6) 0.4668(6) 0.0660(3)
H11_4 H 0.5867 0.4437 0.0894
C24_4 C 0.6242(6) 0.5352(7) 0.0641(3)
H12_4 H 0.6390 0.5576 0.0862
C25_4 C 0.5306(5) 0.3667(6) 0.0388(3)
C34_4 C 0.6742(6) 0.8685(6) 0.0487(3)
C35_4 C 0.6400(5) 0.9394(6) 0.0523(3)
C36_4 C 0.6260(8) 0.9721(7) 0.0891(4)
H17_4 H 0.6397 0.9493 0.1114
C40_4 C 0.6186(6) 0.9767(6) 0.0190(4)
C42_4 C 0.5823(5) 0.7731(6) 0.1571(3)
C43_4 C 0.4695(5) 0.8125(6) 0.1317(3)
H21_4 H 0.4681 0.8482 0.1502
C44_4 C 0.4166(5) 0.8039(5) 0.1079(3)
H22_4 H 0.3807 0.8356 0.1093
C45_4 C 0.4735(5) 0.7001(6) 0.0771(3)
H23_4 H 0.4740 0.6641 0.0588
C46_4 C 0.5282(5) 0.7097(6) 0.1011(3)
H24_4 H 0.5650 0.6794 0.0995
C47_4 C 0.4155(5) 0.7467(6) 0.0809(4)
C48_4 C 0.3569(5) 0.7357(7) 0.0553(3)
C65_4 C 0.6123(7) 0.5736(8) 0.2205(5)
C66_4 C 0.6564(9) 0.5381(12) 0.2560(6)
H33_4 H 0.6893 0.5059 0.2459
H34_4 H 0.6783 0.5757 0.2700
H35_4 H 0.6270 0.5123 0.2728
C67_4 C 0.6058(11) 0.4462(8) 0.1977(5)
H36_4 H 0.6043 0.4275 0.2231
H37_4 H 0.5728 0.4224 0.1823
H38_4 H 0.6494 0.4382 0.1870
C68_4 C 0.5574(10) 0.5559(11) 0.1653(5)
H39_4 H 0.5897 0.5754 0.1480
H40_4 H 0.5337 0.5173 0.1531
H41_4 H 0.5263 0.5927 0.1726
O1_4 O 0.7480(4) 0.8239(4) 0.2058(2)
O2_4 O 0.7837(4) 0.8041(4) 0.1473(2)
N1_4 N 0.5908(6) 0.5292(6) 0.1985(4)
O5_4 O 0.7538(4) 0.6435(4) 0.1974(2)
O6_4 O 0.7487(4) 0.6262(4) 0.1336(2)
O9_4 O 0.6705(3) 0.6765(4) 0.0571(2)
O17_4 O 0.6862(4) 0.8468(4) 0.0155(2)
O18_4 O 0.6922(4) 0.8379(5) 0.0788(2)
O21_4 O 0.6358(3) 0.7391(5) 0.1501(2)
O22_4 O 0.5738(4) 0.8078(6) 0.1852(3)
O33_4 O 0.6029(4) 0.6370(5) 0.2204(3)
C20_4 C 0.6118(6) 0.5330(6) 0.9970(3)
H9_4 H 0.6205 0.5529 0.9733
H10_3 H 0.5588 0.4470 0.9785
C26_4 C 0.8147(6) 0.7562(7) 0.9364(4)
C27_4 C 0.8463(7) 0.7570(7) 0.8966(4)
C28_4 C 0.9035(6) 0.7190(8) 0.8917(3)
H13_4 H 0.9232 0.6944 0.9119
C29_4 C 0.9323(6) 0.7179(7) 0.8548(4)
H14_4 H 0.9676 0.6872 0.8492
C30_4 C 0.9064(5) 0.7645(5) 0.8263(3)
C31_4 C 0.8540(6) 0.8054(7) 0.8345(4)
H15_4 H 0.8386 0.8381 0.8165
C32_4 C 0.8219(6) 0.8002(7) 0.8691(4)
H16_4 H 0.7833 0.8267 0.8735
C33_4 C 0.9433(5) 0.7653(6) 0.7884(3)
H20_4 H 0.6257 0.9574 0.9949
O10_4 O 0.6894(4) 0.6583(4) 0.9963(2)
O13_4 O 0.7676(4) 0.8002(5) 0.9428(2)
O14_4 O 0.8305(4) 0.7082(5) 0.9596(2)
H10_4 H 0.0588 0.0530 0.9785
H42 H 0.4713 0.0296 0.7005
H44 H 0.4983 0.0077 0.7408
C70 C 0.3920(8) 0.0652(7) 0.7553(5)
H45 H 0.3903 0.1032 0.7369
H46 H 0.4297 0.0723 0.7718
H47 H 0.3516 0.0652 0.7701
C69 C 0.4671(8) 0.9957(10) 0.7210(6)
H43 H 0.4764 0.9483 0.7117
N2 N 0.3985(5) 0.9983(6) 0.7362(3)
H48 H 0.3685 0.9950 0.7172
H49 H 0.3917 0.9618 0.7526
C69_2 C 0.5329(8) 0.0043(10) 0.2210(6)
H43_2 H 0.5236 0.0517 0.2117
N2_2 N 0.6015(5) 0.0017(6) 0.2362(3)
H48_2 H 0.6315 0.0050 0.2172
H49_2 H 0.6083 0.0382 0.2526
H42_2 H 0.5287 0.9704 0.2005
H44_2 H 0.5017 0.9923 0.2408
C70_2 C 0.6080(8) 0.9348(7) 0.2553(5)
H45_2 H 0.6097 0.8968 0.2369
H46_2 H 0.5703 0.9277 0.2718
H47_2 H 0.6484 0.9348 0.2701
C69_3 C 0.9671(8) 0.5043(10) 0.7210(6)
H42_3 H 0.9713 0.4704 0.7005
H43_3 H 0.9764 0.5517 0.7117
H44_3 H 0.9983 0.4923 0.7408
C70_3 C 0.8920(8) 0.4348(7) 0.7553(5)
H45_3 H 0.8903 0.3968 0.7369
H46_3 H 0.9297 0.4277 0.7718
H47_3 H 0.8516 0.4348 0.7701
N2_3 N 0.8985(5) 0.5017(6) 0.7362(3)
H48_3 H 0.8685 0.5050 0.7172
H49_3 H 0.8917 0.5382 0.7526
C69_4 C 0.0329(8) 0.4957(10) 0.2210(6)
H42_4 H 0.0287 0.5296 0.2005
H43_4 H 0.0236 0.4483 0.2117
H44_4 H 0.0017 0.5077 0.2408
C70_4 C 0.1080(8) 0.5652(7) 0.2553(5)
H45_4 H 0.1097 0.6032 0.2369
H46_4 H 0.0703 0.5723 0.2718
H47_4 H 0.1484 0.5652 0.2701
N2_4 N 0.1015(5) 0.4983(6) 0.2362(3)
H48_4 H 0.1315 0.4950 0.2172
H49_4 H 0.1083 0.4618 0.2526
C71 C 0.0914(11) 0.3175(11) 0.7363(6)
H50 H 0.0536 0.3360 0.7226
H51 H 0.1275 0.3088 0.7188
H52 H 0.1054 0.3519 0.7550
C72 C 0.1348(11) 0.2233(14) 0.7753(7)
H53 H 0.1573 0.1889 0.7595
H54 H 0.1227 0.2012 0.7990
H55 H 0.1641 0.2632 0.7801
N3 N 0.0727(5) 0.2495(7) 0.7553(4)
H56 H 0.0588 0.2170 0.7381
H57 H 0.0396 0.2570 0.7722
C71_2 C 0.9086(11) 0.6825(11) 0.2363(6)
H50_2 H 0.9464 0.6640 0.2226
H51_2 H 0.8725 0.6912 0.2188
H52_2 H 0.8946 0.6481 0.2550
C72_2 C 0.8652(11) 0.7767(14) 0.2753(7)
H53_2 H 0.8427 0.8111 0.2595
H54_2 H 0.8773 0.7988 0.2990
H55_2 H 0.8359 0.7368 0.2801
N3_2 N 0.9273(5) 0.7505(7) 0.2553(4)
H56_2 H 0.9412 0.7830 0.2381
H57_2 H 0.9604 0.7430 0.2722
C71_3 C 0.5914(11) 0.1825(11) 0.7363(6)
H50_3 H 0.5536 0.1640 0.7226
H51_3 H 0.6275 0.1912 0.7188
H52_3 H 0.6054 0.1481 0.7550
C72_3 C 0.6348(11) 0.2767(14) 0.7753(7)
H53_3 H 0.6573 0.3111 0.7595
H54_3 H 0.6227 0.2988 0.7990
H55_3 H 0.6641 0.2368 0.7801
N3_3 N 0.5727(5) 0.2505(7) 0.7553(4)
H56_3 H 0.5588 0.2830 0.7381
H57_3 H 0.5396 0.2430 0.7722
C71_4 C 0.4086(11) 0.8175(11) 0.2363(6)
H50_4 H 0.4464 0.8360 0.2226
H51_4 H 0.3725 0.8088 0.2188
H52_4 H 0.3946 0.8519 0.2550
C72_4 C 0.3652(11) 0.7233(14) 0.2753(7)
H53_4 H 0.3427 0.6889 0.2595
H54_4 H 0.3773 0.7012 0.2990
H55_4 H 0.3359 0.7632 0.2801
N3_4 N 0.4273(5) 0.7495(7) 0.2553(4)
H56_4 H 0.4412 0.7170 0.2381
H57_4 H 0.4604 0.7570 0.2722
C73 C 0.1966(16) 0.4591(18) 0.5195(10)
C74 C 0.1048(15) 0.5405(18) 0.4890(9)
N4 N 0.1213(11) 0.4829(12) 0.5185(7)
H58 H 0.0960 0.4440 0.5136
H59 H 0.1099 0.4993 0.5416
H68 H 0.227926 0.505294 0.526051
H69 H 0.203402 0.418143 0.541282
H70 H 0.210695 0.437357 0.491861
H71 H 0.116829 0.520616 0.460659
H72 H 0.0517498 0.553391 0.490462
H73 H 0.134059 0.588553 0.494849
C73_2 C 0.8034(16) 0.5409(18) 0.0195(10)
N4_2 N 0.8787(11) 0.5171(12) 0.0185(7)
H58_2 H 0.9040 0.5560 0.0136
H59_2 H 0.8901 0.5007 0.0416
H68_2 H 0.772074 0.494706 0.0260508
H69_2 H 0.796598 0.581857 0.0412819
C74_2 C 0.8952(15) 0.4595(18) 0.9890(9)
H70_2 H 0.789305 0.562643 0.991861
H71_2 H 0.883171 0.479384 0.960659
H72_2 H 0.94825 0.446609 0.990462
H73_2 H 0.865941 0.411447 0.994849
C73_3 C 0.6966(16) 0.0409(18) 0.5195(10)
N4_3 N 0.6213(11) 0.0171(12) 0.5185(7)
H58_3 H 0.5960 0.0560 0.5136
H59_3 H 0.6099 0.0007 0.5416
H69_3 H 0.703402 0.0818572 0.541282
H70_3 H 0.710695 0.0626432 0.491861
C74_3 C 0.6048(15) 0.9595(18) 0.4890(9)
H68_3 H 0.727926 0.994706 0.526051
H71_3 H 0.616829 0.979384 0.460659
H72_3 H 0.55175 0.946609 0.490462
H73_3 H 0.634059 0.911447 0.494849
H68_4 H 0.272074 0.00529435 0.0260508
C74_4 C 0.3952(15) 0.0405(18) 0.9890(9)
H71_4 H 0.383171 0.0206159 0.960659
H72_4 H 0.44825 0.0533909 0.990462
H73_4 H 0.365941 0.0885534 0.994849
C73_4 C 0.3034(16) 0.9591(18) 0.0195(10)
N4_4 N 0.3787(11) 0.9829(12) 0.0185(7)
H58_4 H 0.4040 0.9440 0.0136
H59_4 H 0.3901 0.9993 0.0416
H69_4 H 0.296598 0.918143 0.0412819
H70_4 H 0.289305 0.937357 0.991861
C75 C 0.7575(7) 0.8326(9) 0.7414(5)
H60 H 0.7684 0.8026 0.7200
H61 H 0.7980 0.8482 0.7535
H62 H 0.7327 0.8736 0.7328
C76 C 0.6897(6) 0.8522(8) 0.7936(4)
H63 H 0.7203 0.8916 0.7911
H64 H 0.6866 0.8383 0.8199
H65 H 0.6464 0.8664 0.7846
N5 N 0.7146(8) 0.7893(9) 0.7703(5)
H66 H 0.6811 0.7653 0.7589
H67 H 0.7395 0.7587 0.7842
C75_2 C 0.2425(7) 0.1674(9) 0.2414(5)
H60_2 H 0.2316 0.1974 0.2200
H61_2 H 0.2020 0.1518 0.2535
H62_2 H 0.2673 0.1264 0.2328
C76_2 C 0.3103(6) 0.1478(8) 0.2936(4)
H63_2 H 0.2797 0.1084 0.2911
H64_2 H 0.3134 0.1617 0.3199
H65_2 H 0.3536 0.1336 0.2846
N5_2 N 0.2854(8) 0.2107(9) 0.2703(5)
H66_2 H 0.3189 0.2347 0.2589
H67_2 H 0.2605 0.2413 0.2842
C75_3 C 0.2575(7) 0.6674(9) 0.7414(5)
H60_3 H 0.2684 0.6974 0.7200
H61_3 H 0.2980 0.6518 0.7535
H62_3 H 0.2327 0.6264 0.7328
C76_3 C 0.1897(6) 0.6478(8) 0.7936(4)
H63_3 H 0.2203 0.6084 0.7911
H64_3 H 0.1866 0.6617 0.8199
H65_3 H 0.1464 0.6336 0.7846
N5_3 N 0.2146(8) 0.7107(9) 0.7703(5)
H66_3 H 0.1811 0.7347 0.7589
H67_3 H 0.2395 0.7413 0.7842
C75_4 C 0.7425(7) 0.3326(9) 0.2414(5)
H60_4 H 0.7316 0.3026 0.2200
H61_4 H 0.7020 0.3482 0.2535
H62_4 H 0.7673 0.3736 0.2328
C76_4 C 0.8103(6) 0.3522(8) 0.2936(4)
H63_4 H 0.7797 0.3916 0.2911
H64_4 H 0.8134 0.3383 0.3199
H65_4 H 0.8536 0.3664 0.2846
N5_4 N 0.7854(8) 0.2893(9) 0.2703(5)
H66_4 H 0.8189 0.2653 0.2589
H67_4 H 0.7605 0.2587 0.2842
loop_
_geom_bond_atom_site_label_1
_geom_bond_atom_site_label_2
_geom_bond_site_symmetry_1
_geom_bond_site_symmetry_2
H21 C43 1_555 1_555
C44 C43 1_555 1_555
H22 C44 1_555 1_555
C45 H23 1_555 1_555
C47 C44 1_555 1_555
C48 C47 1_555 1_555
C49 C50 1_555 1_555
C50 C51 1_555 1_555
C51 H25 1_555 1_555
C52 C51 1_555 1_555
H26 C52 1_555 1_555
C53 C52 1_555 1_555
C54 C53 1_555 1_555
H27 C54 1_555 1_555
C55 C50 1_555 1_555
H28 C55 1_555 1_555
C56 C53 1_555 1_555
C57 C58 1_555 1_555
C58 C59 1_555 1_555
C59 H29 1_555 1_555
C60 C59 1_555 1_555
H30 C60 1_555 1_555
C61 C60 1_555 1_555
C62 C61 1_555 1_555
H31 C62 1_555 1_555
C63 C58 1_555 1_555
H32 C63 1_555 1_555
C64 C61 1_555 1_555
O23 C48 1_555 1_555
O24 C48 1_555 1_555
O25 C49 1_555 1_555
O26 C49 1_555 1_555
O27 C56 1_555 1_555
O28 C56 1_555 1_555
O29 C57 1_555 1_555
O30 C57 1_555 1_555
O31 C64 1_555 1_555
O32 C64 1_555 1_555
Ca3 O24 1_555 1_555
Cd5 O31 1_555 1_555
Ca7 O27 1_555 1_555
Cd6 O23 1_555 1_555
Cd9 O27 1_555 1_555
O34 Ca2 1_555 1_555
O36 Ca2 1_555 1_555
O38 Cd3 1_555 1_555
C45 C47 1_555 1_555
C54 C55 1_555 1_555
C62 C63 1_555 1_555
Ca2 O26 1_555 1_555
Cd3 O25 1_555 1_555
Cd3 O26 1_555 1_555
Cd3 O29 1_555 1_555
Cd3 O30 1_555 1_555
O24 Cd6 1_555 1_555
O28 Cd9 1_555 1_555
O32 Cd5 1_555 1_555
C1 C2 1_555 1_555
C2 C4 1_555 1_555
C3 C42 1_555 1_555
C4 H1 1_555 1_555
C5 C4 1_555 1_555
H2 C5 1_555 1_555
C6 C5 1_555 1_555
C7 C6 1_555 1_555
H3 C7 1_555 1_555
C8 C2 1_555 1_555
H4 C8 1_555 1_555
C9 C6 1_555 1_555
C10 C11 1_555 1_555
C16 C11 1_555 1_555
H8 C16 1_555 1_555
C18 C19 1_555 1_555
C19 C20 1_555 1_555
C20 H9 1_555 1_555
C24 C19 1_555 1_555
H12 C24 1_555 1_555
C26 C27 1_555 1_555
C27 C28 1_555 1_555
C28 H13 1_555 1_555
C29 C28 1_555 1_555
H14 C29 1_555 1_555
C30 C29 1_555 1_555
C31 C30 1_555 1_555
H15 C31 1_555 1_555
C32 C27 1_555 1_555
H16 C32 1_555 1_555
C33 C30 1_555 1_555
C34 C35 1_555 1_555
C35 C36 1_555 1_555
C36 H17 1_555 1_555
C37 C36 1_555 1_555
H18 C37 1_555 1_555
C38 C37 1_555 1_555
C39 C38 1_555 1_555
H19 C39 1_555 1_555
C40 C35 1_555 1_555
H20 C40 1_555 1_555
C41 C38 1_555 1_555
C42 O21 1_555 1_555
C46 C3 1_555 1_555
H24 C46 1_555 1_555
C65 C66 1_555 1_555
C66 H33 1_555 1_555
H34 C66 1_555 1_555
H35 C66 1_555 1_555
C68 H39 1_555 1_555
H40 C68 1_555 1_555
H41 C68 1_555 1_555
Ca1 O2 1_555 1_555
Cd1 O1 1_555 1_555
O1 C1 1_555 1_555
Cd2 O10 1_555 1_555
O2 C1 1_555 1_555
O3 C9 1_555 1_555
Cd9 O3 1_555 1_555
O4 C9 1_555 1_555
N1 C65 1_555 1_555
O5 C10 1_555 1_555
O6 C10 1_555 1_555
O9 C18 1_555 1_555
O10 C18 1_555 1_555
O13 C26 1_555 1_555
O14 C26 1_555 1_555
O15 C33 1_555 1_555
O16 C33 1_555 1_555
O17 C34 1_555 1_555
O18 C34 1_555 1_555
O19 C41 1_555 1_555
O20 C41 1_555 1_555
O21 Ca1 1_555 1_555
O22 C42 1_555 1_555
O33 C65 1_555 1_555
Ca7 O4 1_555 1_555
Cd10 O15 1_555 1_555
O35 Cd9 1_555 1_555
O39 Cd9 1_555 1_555
O40 Cd9 1_555 1_555
O41 Cd2 1_555 1_555
O42 Ca1 1_555 1_555
O46 Cd1 1_555 1_555
O47 Cd1 1_555 1_555
C7 C8 1_555 1_555
C31 C32 1_555 1_555
C39 C40 1_555 1_555
C68 N1 1_555 1_555
Ca1 O6 1_555 1_555
Ca1 O9 1_555 1_555
Ca1 O18 1_555 1_555
Cd1 O5 1_555 1_555
Cd1 O21 1_555 1_555
Cd1 O22 1_555 1_555
Cd1 O33 1_555 1_555
Cd2 O13 1_555 1_555
Cd2 O14 1_555 1_555
Cd2 O17 1_555 1_555
Cd2 O42 1_555 1_555
O16 Cd10 1_555 1_555
C13 C12 1_555 1_555
H6 C13 1_555 1_555
C14 C13 1_555 1_555
C15 C14 1_555 1_555
H7 C15 1_555 1_555
C17 C14 1_555 1_555
H10 C21 1_555 1_555
C22 C21 1_555 1_555
C23 C22 1_555 1_555
H11 C23 1_555 1_555
C25 C22 1_555 1_555
C67 H36 1_555 1_555
H37 C67 1_555 1_555
H38 C67 1_555 1_555
O35 C17 1_555 1_555
O8 C17 1_555 1_555
O37 C25 1_555 1_555
Ca7 O8 1_555 1_555
C13_2 C12_2 1_555 1_555
H6_2 C13_2 1_555 1_555
C14_2 C13_2 1_555 1_555
C15_2 C14_2 1_555 1_555
H7_2 C15_2 1_555 1_555
C17_2 C14_2 1_555 1_555
C22_2 C21_2 1_555 1_555
C23_2 C22_2 1_555 1_555
H11_2 C23_2 1_555 1_555
C25_2 C22_2 1_555 1_555
C67_2 H36_2 1_555 1_555
H37_2 C67_2 1_555 1_555
H38_2 C67_2 1_555 1_555
O7 C17_2 1_555 1_555
O8_2 C17_2 1_555 1_555
O11 C25_2 1_555 1_555
Ca5 O8_2 1_555 1_555
Cd10 O7 1_555 1_555
C1_2 C2_2 1_555 1_555
C2_2 C4_2 1_555 1_555
C3_2 C42_2 1_555 1_555
C4_2 H1_2 1_555 1_555
C5_2 C4_2 1_555 1_555
H2_2 C5_2 1_555 1_555
C6_2 C5_2 1_555 1_555
C7_2 C6_2 1_555 1_555
H3_2 C7_2 1_555 1_555
C8_2 C2_2 1_555 1_555
H4_2 C8_2 1_555 1_555
C9_2 C6_2 1_555 1_555
C10_2 C11_2 1_555 1_555
C16_2 C11_2 1_555 1_555
H8_2 C16_2 1_555 1_555
C18_2 C19_2 1_555 1_555
C24_2 C19_2 1_555 1_555
H12_2 C24_2 1_555 1_555
C34_2 C35_2 1_555 1_555
C35_2 C36_2 1_555 1_555
C36_2 H17_2 1_555 1_555
C37_2 C36_2 1_555 1_555
H18_2 C37_2 1_555 1_555
C38_2 C37_2 1_555 1_555
C39_2 C38_2 1_555 1_555
H19_2 C39_2 1_555 1_555
C40_2 C35_2 1_555 1_555
C41_2 C38_2 1_555 1_555
C42_2 O21_2 1_555 1_555
C46_2 C3_2 1_555 1_555
H24_2 C46_2 1_555 1_555
C65_2 C66_2 1_555 1_555
C66_2 H33_2 1_555 1_555
H34_2 C66_2 1_555 1_555
H35_2 C66_2 1_555 1_555
C68_2 H39_2 1_555 1_555
H40_2 C68_2 1_555 1_555
H41_2 C68_2 1_555 1_555
Ca1_2 O2_2 1_555 1_555
Cd5 O1_2 1_555 1_555
O1_2 C1_2 1_555 1_555
O2_2 C1_2 1_555 1_555
O3_2 C9_2 1_555 1_555
Cd10 O3_2 1_555 1_555
O4_2 C9_2 1_555 1_555
N1_2 C65_2 1_555 1_555
O5_2 C10_2 1_555 1_555
O6_2 C10_2 1_555 1_555
O9_2 C18_2 1_555 1_555
O17_2 C34_2 1_555 1_555
O18_2 C34_2 1_555 1_555
O19_2 C41_2 1_555 1_555
O20_2 C41_2 1_555 1_555
O21_2 Ca1_2 1_555 1_555
O22_2 C42_2 1_555 1_555
O33_2 C65_2 1_555 1_555
Ca5 O4_2 1_555 1_555
O41_2 Cd2_2 1_555 1_555
O42_2 Ca1_2 1_555 1_555
O43 Cd10 1_555 1_555
O45 Cd10 1_555 1_555
C7_2 C8_2 1_555 1_555
C39_2 C40_2 1_555 1_555
C68_2 N1_2 1_555 1_555
Ca1_2 O6_2 1_555 1_555
Ca1_2 O9_2 1_555 1_555
Ca1_2 O18_2 1_555 1_555
Cd5 O5_2 1_555 1_555
Cd5 O21_2 1_555 1_555
Cd5 O22_2 1_555 1_555
Cd5 O33_2 1_555 1_555
Cd2_2 O17_2 1_555 1_555
Cd2_2 O42_2 1_555 1_555
Ca5 O43 1_555 1_555
C20_2 H9_2 1_555 1_555
C26_2 C27_2 1_555 1_555
C27_2 C28_2 1_555 1_555
C28_2 H13_2 1_555 1_555
C29_2 C28_2 1_555 1_555
H14_2 C29_2 1_555 1_555
C30_2 C29_2 1_555 1_555
C31_2 C30_2 1_555 1_555
H15_2 C31_2 1_555 1_555
C32_2 C27_2 1_555 1_555
H16_2 C32_2 1_555 1_555
C33_2 C30_2 1_555 1_555
O13_2 C26_2 1_555 1_555
O14_2 C26_2 1_555 1_555
O39 C33_2 1_555 1_555
O40 C33_2 1_555 1_555
C31_2 C32_2 1_555 1_555
Cd7 O12 1_555 1_555
H21_2 C43_2 1_555 1_555
C44_2 C43_2 1_555 1_555
H22_2 C44_2 1_555 1_555
C45_2 H23_2 1_555 1_555
C47_2 C44_2 1_555 1_555
C48_2 C47_2 1_555 1_555
C49_2 C50_2 1_555 1_555
C50_2 C51_2 1_555 1_555
C51_2 H25_2 1_555 1_555
C52_2 C51_2 1_555 1_555
H26_2 C52_2 1_555 1_555
C53_2 C52_2 1_555 1_555
C54_2 C53_2 1_555 1_555
H27_2 C54_2 1_555 1_555
C55_2 C50_2 1_555 1_555
H28_2 C55_2 1_555 1_555
C56_2 C53_2 1_555 1_555
O23_2 C48_2 1_555 1_555
O24_2 C48_2 1_555 1_555
O25_2 C49_2 1_555 1_555
O26_2 C49_2 1_555 1_555
O43 C56_2 1_555 1_555
O45 C56_2 1_555 1_555
Ca3_2 O24_2 1_555 1_555
Cd6_2 O23_2 1_555 1_555
O34_2 Ca4 1_555 1_555
O36_2 Ca4 1_555 1_555
C45_2 C47_2 1_555 1_555
C54_2 C55_2 1_555 1_555
Ca4 O26_2 1_555 1_555
Cd7 O25_2 1_555 1_555
Cd7 O26_2 1_555 1_555
O24_2 Cd6_2 1_555 1_555
C57_2 C58_2 1_555 1_555
C58_2 C59_2 1_555 1_555
C59_2 H29_2 1_555 1_555
C60_2 C59_2 1_555 1_555
H30_2 C60_2 1_555 1_555
C61_2 C60_2 1_555 1_555
C62_2 C61_2 1_555 1_555
H31_2 C62_2 1_555 1_555
C63_2 C58_2 1_555 1_555
H32_2 C63_2 1_555 1_555
C64_2 C61_2 1_555 1_555
O29_2 C57_2 1_555 1_555
O30_2 C57_2 1_555 1_555
O46 C64_2 1_555 1_555
O47 C64_2 1_555 1_555
C62_2 C63_2 1_555 1_555
C1_3 C2_3 1_555 1_555
C2_3 C4_3 1_555 1_555
C3_3 C42_3 1_555 1_555
C4_3 H1_3 1_555 1_555
C8_3 C2_3 1_555 1_555
H4_3 C8_3 1_555 1_555
C10_3 C11_3 1_555 1_555
C11_3 C12_3 1_555 1_555
C12_3 H5_3 1_555 1_555
C13_3 C12_3 1_555 1_555
H6_3 C13_3 1_555 1_555
C14_3 C13_3 1_555 1_555
C15_3 C14_3 1_555 1_555
H7_3 C15_3 1_555 1_555
C16_3 C11_3 1_555 1_555
H8_3 C16_3 1_555 1_555
C17_3 C14_3 1_555 1_555
C18_3 C19_3 1_555 1_555
C19_3 C20_3 1_555 1_555
C20_3 H9_3 1_555 1_555
C21_3 C20_3 1_555 1_555
H10_2 C21_3 1_555 1_555
C22_3 C21_3 1_555 1_555
C23_3 C22_3 1_555 1_555
H11_3 C23_3 1_555 1_555
C24_3 C19_3 1_555 1_555
H12_3 C24_3 1_555 1_555
C25_3 C22_3 1_555 1_555
C26_3 C27_3 1_555 1_555
C27_3 C28_3 1_555 1_555
C28_3 H13_3 1_555 1_555
C29_3 C28_3 1_555 1_555
H14_3 C29_3 1_555 1_555
C30_3 C29_3 1_555 1_555
C31_3 C30_3 1_555 1_555
H15_3 C31_3 1_555 1_555
C32_3 C27_3 1_555 1_555
H16_3 C32_3 1_555 1_555
C33_3 C30_3 1_555 1_555
C34_3 C35_3 1_555 1_555
C35_3 C36_3 1_555 1_555
C36_3 H17_3 1_555 1_555
C40_3 C35_3 1_555 1_555
H20_3 C40_3 1_555 1_555
C42_3 O21_3 1_555 1_555
C43_3 C3_3 1_555 1_555
H21_3 C43_3 1_555 1_555
C44_3 C43_3 1_555 1_555
H22_3 C44_3 1_555 1_555
C45_3 H23_3 1_555 1_555
C46_3 C3_3 1_555 1_555
H24_3 C46_3 1_555 1_555
C47_3 C44_3 1_555 1_555
C48_3 C47_3 1_555 1_555
C65_3 C66_3 1_555 1_555
C66_3 H33_3 1_555 1_555
H34_3 C66_3 1_555 1_555
H35_3 C66_3 1_555 1_555
C67_3 H36_3 1_555 1_555
H37_3 C67_3 1_555 1_555
H38_3 C67_3 1_555 1_555
C68_3 H39_3 1_555 1_555
H40_3 C68_3 1_555 1_555
H41_3 C68_3 1_555 1_555
Ca3 O2_3 1_555 1_555
Cd1_2 O1_3 1_555 1_555
O1_3 C1_3 1_555 1_555
Cd6 O10_3 1_555 1_555
O2_3 C1_3 1_555 1_555
N1_3 C65_3 1_555 1_555
O5_3 C10_3 1_555 1_555
O6_3 C10_3 1_555 1_555
O7_2 C17_3 1_555 1_555
O36 C17_3 1_555 1_555
O9_3 C18_3 1_555 1_555
O10_3 C18_3 1_555 1_555
O11_2 C25_3 1_555 1_555
O12_2 C25_3 1_555 1_555
O13_3 C26_3 1_555 1_555
O14_3 C26_3 1_555 1_555
O15_2 C33_3 1_555 1_555
O16_2 C33_3 1_555 1_555
O17_3 C34_3 1_555 1_555
O18_3 C34_3 1_555 1_555
O21_3 Ca3 1_555 1_555
O22_3 C42_3 1_555 1_555
O41 C48_3 1_555 1_555
O42 C48_3 1_555 1_555
O33_3 C65_3 1_555 1_555
Ca7 O11_2 1_555 1_555
Cd7_2 O12_2 1_555 1_555
Cd10_2 O15_2 1_555 1_555
O46_2 Cd1_2 1_555 1_555
O47_2 Cd1_2 1_555 1_555
C15_3 C16_3 1_555 1_555
C23_3 C24_3 1_555 1_555
C31_3 C32_3 1_555 1_555
C45_3 C46_3 1_555 1_555
C45_3 C47_3 1_555 1_555
C67_3 N1_3 1_555 1_555
C68_3 N1_3 1_555 1_555
Ca3 O6_3 1_555 1_555
Ca3 O9_3 1_555 1_555
Ca3 O18_3 1_555 1_555
Cd1_2 O5_3 1_555 1_555
Cd1_2 O21_3 1_555 1_555
Cd1_2 O22_3 1_555 1_555
Cd1_2 O33_3 1_555 1_555
Cd6 O13_3 1_555 1_555
Cd6 O14_3 1_555 1_555
Cd6 O17_3 1_555 1_555
O16_2 Cd10_2 1_555 1_555
H2_3 C5_3 1_555 1_555
C6_3 C5_3 1_555 1_555
C7_3 C6_3 1_555 1_555
H3_3 C7_3 1_555 1_555
C9_3 C6_3 1_555 1_555
H18_3 C37_3 1_555 1_555
C38_3 C37_3 1_555 1_555
C39_3 C38_3 1_555 1_555
H19_3 C39_3 1_555 1_555
C41_3 C38_3 1_555 1_555
C49_3 C50_3 1_555 1_555
C50_3 C51_3 1_555 1_555
C51_3 H25_3 1_555 1_555
C52_3 C51_3 1_555 1_555
H26_3 C52_3 1_555 1_555
C53_3 C52_3 1_555 1_555
C54_3 C53_3 1_555 1_555
H27_3 C54_3 1_555 1_555
C55_3 C50_3 1_555 1_555
H28_3 C55_3 1_555 1_555
C56_3 C53_3 1_555 1_555
C57_3 C58_3 1_555 1_555
C58_3 C59_3 1_555 1_555
C59_3 H29_3 1_555 1_555
C60_3 C59_3 1_555 1_555
H30_3 C60_3 1_555 1_555
C61_3 C60_3 1_555 1_555
C62_3 C61_3 1_555 1_555
H31_3 C62_3 1_555 1_555
C63_3 C58_3 1_555 1_555
H32_3 C63_3 1_555 1_555
C64_3 C61_3 1_555 1_555
Ca7 O19_3 1_555 1_555
Cd7_2 O20_3 1_555 1_555
O3_3 C9_3 1_555 1_555
O34 C9_3 1_555 1_555
O19_3 C41_3 1_555 1_555
O20_3 C41_3 1_555 1_555
O25_3 C49_3 1_555 1_555
O26_3 C49_3 1_555 1_555
O44 C56_3 1_555 1_555
O28_2 C56_3 1_555 1_555
O29_3 C57_3 1_555 1_555
O30_3 C57_3 1_555 1_555
O31_2 C64_3 1_555 1_555
O32_2 C64_3 1_555 1_555
Cd5_2 O31_2 1_555 1_555
Cd9_2 O44 1_555 1_555
C54_3 C55_3 1_555 1_555
C62_3 C63_3 1_555 1_555
Ca7 O26_3 1_555 1_555
Cd7_2 O25_3 1_555 1_555
Cd7_2 O26_3 1_555 1_555
Cd7_2 O29_3 1_555 1_555
Cd7_2 O30_3 1_555 1_555
O28_2 Cd9_2 1_555 1_555
O32_2 Cd5_2 1_555 1_555
O39_2 Cd9_2 1_555 1_555
O40_2 Cd9_2 1_555 1_555
O44_2 Cd10_2 1_555 1_555
O45_2 Cd10_2 1_555 1_555
H2_4 C5_4 1_555 1_555
C6_4 C5_4 1_555 1_555
C7_4 C6_4 1_555 1_555
H3_4 C7_4 1_555 1_555
C9_4 C6_4 1_555 1_555
H18_4 C37_4 1_555 1_555
C38_4 C37_4 1_555 1_555
C39_4 C38_4 1_555 1_555
H19_4 C39_4 1_555 1_555
C41_4 C38_4 1_555 1_555
C49_4 C50_4 1_555 1_555
C50_4 C51_4 1_555 1_555
C51_4 H25_4 1_555 1_555
C52_4 C51_4 1_555 1_555
H26_4 C52_4 1_555 1_555
C53_4 C52_4 1_555 1_555
C54_4 C53_4 1_555 1_555
H27_4 C54_4 1_555 1_555
C55_4 C50_4 1_555 1_555
H28_4 C55_4 1_555 1_555
C56_4 C53_4 1_555 1_555
Ca5 O19_4 1_555 1_555
Cd3_2 O20_4 1_555 1_555
O3_4 C9_4 1_555 1_555
O34_2 C9_4 1_555 1_555
O19_4 C41_4 1_555 1_555
O20_4 C41_4 1_555 1_555
O25_4 C49_4 1_555 1_555
O26_4 C49_4 1_555 1_555
O44_2 C56_4 1_555 1_555
O45_2 C56_4 1_555 1_555
O37_2 Ca5 1_555 1_555
O38_2 Cd3_2 1_555 1_555
C54_4 C55_4 1_555 1_555
Ca5 O26_4 1_555 1_555
Cd3_2 O25_4 1_555 1_555
Cd3_2 O26_4 1_555 1_555
C57_4 C58_4 1_555 1_555
C58_4 C59_4 1_555 1_555
C59_4 H29_4 1_555 1_555
C60_4 C59_4 1_555 1_555
H30_4 C60_4 1_555 1_555
C61_4 C60_4 1_555 1_555
C62_4 C61_4 1_555 1_555
H31_4 C62_4 1_555 1_555
C63_4 C58_4 1_555 1_555
H32_4 C63_4 1_555 1_555
C64_4 C61_4 1_555 1_555
O29_4 C57_4 1_555 1_555
O30_4 C57_4 1_555 1_555
O46_2 C64_4 1_555 1_555
O47_2 C64_4 1_555 1_555
C62_4 C63_4 1_555 1_555
C1_4 C2_4 1_555 1_555
C2_4 C4_4 1_555 1_555
C3_4 C42_4 1_555 1_555
C4_4 H1_4 1_555 1_555
C8_4 C2_4 1_555 1_555
H4_4 C8_4 1_555 1_555
C10_4 C11_4 1_555 1_555
C11_4 C12_4 1_555 1_555
C12_4 H5_4 1_555 1_555
C13_4 C12_4 1_555 1_555
H6_4 C13_4 1_555 1_555
C14_4 C13_4 1_555 1_555
C15_4 C14_4 1_555 1_555
H7_4 C15_4 1_555 1_555
C16_4 C11_4 1_555 1_555
H8_4 C16_4 1_555 1_555
C17_4 C14_4 1_555 1_555
C18_4 C19_4 1_555 1_555
C22_4 C21_4 1_555 1_555
C23_4 C22_4 1_555 1_555
H11_4 C23_4 1_555 1_555
C24_4 C19_4 1_555 1_555
H12_4 C24_4 1_555 1_555
C25_4 C22_4 1_555 1_555
C34_4 C35_4 1_555 1_555
C35_4 C36_4 1_555 1_555
C36_4 H17_4 1_555 1_555
C40_4 C35_4 1_555 1_555
C42_4 O21_4 1_555 1_555
C43_4 C3_4 1_555 1_555
H21_4 C43_4 1_555 1_555
C44_4 C43_4 1_555 1_555
H22_4 C44_4 1_555 1_555
C45_4 H23_4 1_555 1_555
C46_4 C3_4 1_555 1_555
H24_4 C46_4 1_555 1_555
C47_4 C44_4 1_555 1_555
C48_4 C47_4 1_555 1_555
C65_4 C66_4 1_555 1_555
C66_4 H33_4 1_555 1_555
H34_4 C66_4 1_555 1_555
H35_4 C66_4 1_555 1_555
C67_4 H36_4 1_555 1_555
H37_4 C67_4 1_555 1_555
H38_4 C67_4 1_555 1_555
C68_4 H39_4 1_555 1_555
H40_4 C68_4 1_555 1_555
H41_4 C68_4 1_555 1_555
Ca3_2 O2_4 1_555 1_555
Cd5_2 O1_4 1_555 1_555
O1_4 C1_4 1_555 1_555
O2_4 C1_4 1_555 1_555
N1_4 C65_4 1_555 1_555
O5_4 C10_4 1_555 1_555
O6_4 C10_4 1_555 1_555
O35_2 C17_4 1_555 1_555
O36_2 C17_4 1_555 1_555
O9_4 C18_4 1_555 1_555
O37_2 C25_4 1_555 1_555
O38_2 C25_4 1_555 1_555
O17_4 C34_4 1_555 1_555
O18_4 C34_4 1_555 1_555
O21_4 Ca3_2 1_555 1_555
O22_4 C42_4 1_555 1_555
O41_2 C48_4 1_555 1_555
O42_2 C48_4 1_555 1_555
O33_4 C65_4 1_555 1_555
C15_4 C16_4 1_555 1_555
C23_4 C24_4 1_555 1_555
C45_4 C46_4 1_555 1_555
C45_4 C47_4 1_555 1_555
C67_4 N1_4 1_555 1_555
C68_4 N1_4 1_555 1_555
Ca3_2 O6_4 1_555 1_555
Ca3_2 O9_4 1_555 1_555
Ca3_2 O18_4 1_555 1_555
Cd5_2 O5_4 1_555 1_555
Cd5_2 O21_4 1_555 1_555
Cd5_2 O22_4 1_555 1_555
Cd5_2 O33_4 1_555 1_555
Cd6_2 O17_4 1_555 1_555
C20_4 H9_4 1_555 1_555
C26_4 C27_4 1_555 1_555
C27_4 C28_4 1_555 1_555
C28_4 H13_4 1_555 1_555
C29_4 C28_4 1_555 1_555
H14_4 C29_4 1_555 1_555
C30_4 C29_4 1_555 1_555
C31_4 C30_4 1_555 1_555
H15_4 C31_4 1_555 1_555
C32_4 C27_4 1_555 1_555
H16_4 C32_4 1_555 1_555
C33_4 C30_4 1_555 1_555
O13_4 C26_4 1_555 1_555
O14_4 C26_4 1_555 1_555
O39_2 C33_4 1_555 1_555
O40_2 C33_4 1_555 1_555
C31_4 C32_4 1_555 1_555
C70 H45 1_555 1_555
H46 C70 1_555 1_555
H47 C70 1_555 1_555
H43 C69 1_555 1_555
N2 C69 1_555 1_555
H48 N2 1_555 1_555
H49 N2 1_555 1_555
H43_2 C69_2 1_555 1_555
N2_2 C69_2 1_555 1_555
H48_2 N2_2 1_555 1_555
H49_2 N2_2 1_555 1_555
C70_2 H45_2 1_555 1_555
H46_2 C70_2 1_555 1_555
H47_2 C70_2 1_555 1_555
C69_3 H42_3 1_555 1_555
H43_3 C69_3 1_555 1_555
H44_3 C69_3 1_555 1_555
C70_3 H45_3 1_555 1_555
H46_3 C70_3 1_555 1_555
H47_3 C70_3 1_555 1_555
N2_3 C69_3 1_555 1_555
H48_3 N2_3 1_555 1_555
H49_3 N2_3 1_555 1_555
C70_3 N2_3 1_555 1_555
C69_4 H42_4 1_555 1_555
H43_4 C69_4 1_555 1_555
H44_4 C69_4 1_555 1_555
C70_4 H45_4 1_555 1_555
H46_4 C70_4 1_555 1_555
H47_4 C70_4 1_555 1_555
N2_4 C69_4 1_555 1_555
H48_4 N2_4 1_555 1_555
H49_4 N2_4 1_555 1_555
C70_4 N2_4 1_555 1_555
C71 H50 1_555 1_555
H51 C71 1_555 1_555
H52 C71 1_555 1_555
C72 H53 1_555 1_555
H54 C72 1_555 1_555
H55 C72 1_555 1_555
N3 C71 1_555 1_555
H56 N3 1_555 1_555
H57 N3 1_555 1_555
C72 N3 1_555 1_555
C71_2 H50_2 1_555 1_555
H51_2 C71_2 1_555 1_555
H52_2 C71_2 1_555 1_555
C72_2 H53_2 1_555 1_555
H54_2 C72_2 1_555 1_555
H55_2 C72_2 1_555 1_555
N3_2 C71_2 1_555 1_555
H56_2 N3_2 1_555 1_555
H57_2 N3_2 1_555 1_555
C72_2 N3_2 1_555 1_555
C71_3 H50_3 1_555 1_555
H51_3 C71_3 1_555 1_555
H52_3 C71_3 1_555 1_555
C72_3 H53_3 1_555 1_555
H54_3 C72_3 1_555 1_555
H55_3 C72_3 1_555 1_555
N3_3 C71_3 1_555 1_555
H56_3 N3_3 1_555 1_555
H57_3 N3_3 1_555 1_555
C72_3 N3_3 1_555 1_555
C71_4 H50_4 1_555 1_555
H51_4 C71_4 1_555 1_555
H52_4 C71_4 1_555 1_555
C72_4 H53_4 1_555 1_555
H54_4 C72_4 1_555 1_555
H55_4 C72_4 1_555 1_555
N3_4 C71_4 1_555 1_555
H56_4 N3_4 1_555 1_555
H57_4 N3_4 1_555 1_555
C72_4 N3_4 1_555 1_555
C73 N4 1_555 1_555
C74 N4 1_555 1_555
N4 H58 1_555 1_555
H59 N4 1_555 1_555
C73 H68 1_555 1_555
C73 H69 1_555 1_555
C73 H70 1_555 1_555
C74 H71 1_555 1_555
C74 H72 1_555 1_555
C74 H73 1_555 1_555
C73_2 N4_2 1_555 1_555
N4_2 H58_2 1_555 1_555
H59_2 N4_2 1_555 1_555
C73_2 H68_2 1_555 1_555
C73_2 H69_2 1_555 1_555
C74_2 H71_2 1_555 1_555
C74_2 H72_2 1_555 1_555
C74_2 H73_2 1_555 1_555
C73_3 N4_3 1_555 1_555
N4_3 H58_3 1_555 1_555
H59_3 N4_3 1_555 1_555
C73_3 H69_3 1_555 1_555
C73_3 H70_3 1_555 1_555
C74_3 H71_3 1_555 1_555
C74_3 H72_3 1_555 1_555
C74_3 H73_3 1_555 1_555
C74_4 H71_4 1_555 1_555
C74_4 H72_4 1_555 1_555
C74_4 H73_4 1_555 1_555
C73_4 N4_4 1_555 1_555
N4_4 H58_4 1_555 1_555
H59_4 N4_4 1_555 1_555
C73_4 H69_4 1_555 1_555
C75 H60 1_555 1_555
H61 C75 1_555 1_555
H62 C75 1_555 1_555
C76 H63 1_555 1_555
H64 C76 1_555 1_555
H65 C76 1_555 1_555
N5 C75 1_555 1_555
H66 N5 1_555 1_555
H67 N5 1_555 1_555
C76 N5 1_555 1_555
C75_2 H60_2 1_555 1_555
H61_2 C75_2 1_555 1_555
H62_2 C75_2 1_555 1_555
C76_2 H63_2 1_555 1_555
H64_2 C76_2 1_555 1_555
H65_2 C76_2 1_555 1_555
N5_2 C75_2 1_555 1_555
H66_2 N5_2 1_555 1_555
H67_2 N5_2 1_555 1_555
C76_2 N5_2 1_555 1_555
C75_3 H60_3 1_555 1_555
H61_3 C75_3 1_555 1_555
H62_3 C75_3 1_555 1_555
C76_3 H63_3 1_555 1_555
H64_3 C76_3 1_555 1_555
H65_3 C76_3 1_555 1_555
N5_3 C75_3 1_555 1_555
H66_3 N5_3 1_555 1_555
H67_3 N5_3 1_555 1_555
C76_3 N5_3 1_555 1_555
C75_4 H60_4 1_555 1_555
H61_4 C75_4 1_555 1_555
H62_4 C75_4 1_555 1_555
C76_4 H63_4 1_555 1_555
H64_4 C76_4 1_555 1_555
H65_4 C76_4 1_555 1_555
N5_4 C75_4 1_555 1_555
H66_4 N5_4 1_555 1_555
H67_4 N5_4 1_555 1_555
C76_4 N5_4 1_555 1_555

#END
