
###############################################################################
#
# This file contains modified crystal structure data generated from the
# MOF subset of the Cambridge Structural Database (CSD) v543 
# hosted by the Cambridge Crystallographic Data Centre (CCDC).
#
# This work is licensed under the Creative Commons
# Attribution-NonCommercial-ShareAlike 4.0 International License.
# To view a copy of this license, visit
# http://creativecommons.org/licenses/by-nc-sa/4.0/
# or send a letter to
# Creative Commons, PO Box 1866, Mountain View, CA 94042, USA.
#
# CIF created using the CSD Python API on 29 September 2022
# The structure has been converted into the P1 space group
# The structure has a 3D framework
# The original CSD entry IYALUR is in the monoclinic crystal system
# The framework has been calculated to contain at least 10.0% void space
# The void calculation uses a probe of radius 1.32A, grid spacing 0.4
# H atom positions have been added when not included in the experimental data
#
###############################################################################

data_IYALUR
_chemical_formula_moiety         '(C368 H232 Ba32 N16 O144 P48)n'
_symmetry_cell_setting           triclinic
_symmetry_space_group_name_H-M   'P 1'
_symmetry_Int_Tables_number      1
_space_group_name_Hall           'P 1'
loop_
_symmetry_equiv_pos_site_id
_symmetry_equiv_pos_as_xyz
1 x,y,z
_cell_length_a                   43.611(9)
_cell_length_b                   8.5490(17)
_cell_length_c                   34.589(3)
_cell_angle_alpha                90
_cell_angle_beta                 103.59(3)
_cell_angle_gamma                90
_cell_volume                     12534.8
loop_
_atom_site_label
_atom_site_type_symbol
_atom_site_fract_x
_atom_site_fract_y
_atom_site_fract_z
C1 C 0.4277(2) 0.4570(12) 0.6128(3)
C2 C 0.41532(19) 0.4207(10) 0.5736(2)
H1 H 0.4288 0.3901 0.5571
C3 C 0.38326(18) 0.4286(10) 0.5583(2)
C4 C 0.3636(2) 0.4725(9) 0.5818(2)
H2 H 0.3415 0.4777 0.5711
C5 C 0.3758(2) 0.5091(11) 0.6212(2)
N1 N 0.4081(2) 0.5047(13) 0.6369(3)
C6 C 0.31540(17) 0.6077(10) 0.6986(2)
C7 C 0.35487(18) 0.5419(11) 0.6481(2)
C8 C 0.3069(2) 0.4912(14) 0.6689(3)
H3 H 0.2879 0.4341 0.6662
C9 C 0.3429(3) 0.6870(13) 0.7022(3)
H4 H 0.3486 0.7653 0.7221
C10 C 0.3630(2) 0.6558(14) 0.6772(3)
H5 H 0.3822 0.7122 0.6801
C11 C 0.3264(2) 0.4620(13) 0.6441(3)
H6 H 0.3204 0.3858 0.6237
C12 C 0.6868(2) 0.1015(10) 0.5641(2)
C15 C 0.6483(2) 0.0577(11) 0.4882(2)
C16 C 0.6408(3) 0.1736(12) 0.5118(3)
H9 H 0.6228 0.2380 0.5026
C17 C 0.6609(3) 0.1958(13) 0.5512(3)
H10 H 0.6561 0.2754 0.5680
C18 C 0.6262(2) 0.0289(12) 0.4480(3)
C21 C 0.5750(3) 0.0368(13) 0.4072(3)
C22 C 0.5947(2) 0.0579(11) 0.4437(3)
H12 H 0.5868 0.0919 0.4657
H13 H 0.6722 0.0331 0.3619
O1 O 0.26804(17) 0.5057(8) 0.72920(18)
O2 O 0.27299(18) 0.7980(9) 0.7218(2)
O3 O 0.31137(16) 0.6518(8) 0.77430(17)
O4 O 0.6896(2) 0.1559(9) 0.64171(19)
O5 O 0.7290(3) 0.2869(12) 0.6127(3)
O10 O 0.5834(4) 0.354(2) 0.6515(5)
O11 O 0.5673(4) 0.163(2) 0.6970(5)
O12 O 0.5775(5) 0.438(2) 0.7178(5)
O13 O 0.75494(16) 0.6620(8) 0.69517(18)
P1 P 0.28996(6) 0.6448(3) 0.73209(6)
P2 P 0.71054(8) 0.1300(4) 0.61292(7)
P4 P 0.56607(14) 0.3385(12) 0.6828(2)
C29 C 0.5039(5) 0.383(3) 0.6861(8)
H17 H 0.5110 0.3602 0.7137
C30 C 0.4615(5) 0.446(3) 0.6304(7)
C31 C 0.5252(5) 0.387(2) 0.6628(6)
C32 C 0.4724(5) 0.412(3) 0.6705(6)
H18 H 0.4580 0.4094 0.6872
C33 C 0.4832(4) 0.450(2) 0.6072(6)
H19 H 0.4763 0.4737 0.5797
C34 C 0.5144(4) 0.421(2) 0.6232(6)
H20 H 0.5288 0.4247 0.6065
Ba2 Ba 0.37468(10) 0.2601(9) 0.30031(7)
Ba3 Ba 0.62161(12) 0.0656(8) 0.63214(8)
Ba4 Ba 0.7096(5) 0.4144(11) 0.6909(3)
C35 C 0.5219(4) 0.114(2) 0.3676(4)
C36 C 0.5405(3) 0.057(2) 0.4030(5)
C37 C 0.5265(3) 0.011(2) 0.4335(4)
C38 C 0.4940(3) 0.022(2) 0.4284(4)
C39 C 0.4755(3) 0.080(2) 0.3930(5)
C40 C 0.4894(3) 0.126(2) 0.3626(4)
H23 H 0.4767 0.1647 0.3383
O14 O 0.4299(5) 0.2665(15) 0.3994(5)
O16 O 0.4172(4) 0.060(2) 0.3457(3)
P5 P 0.43417(15) 0.0964(10) 0.3881(2)
C41 C 0.3761(2) 0.2758(13) 0.4528(2)
H24 H 0.3882 0.2151 0.4388
C42 C 0.38688(19) 0.2984(13) 0.4936(2)
H25 H 0.4063 0.2532 0.5074
C43 C 0.3692(2) 0.3872(14) 0.51415(19)
C44 C 0.3409(2) 0.4534(13) 0.4940(3)
H26 H 0.3288 0.5141 0.5080
C45 C 0.3301(2) 0.4308(13) 0.4532(3)
H27 H 0.3107 0.4760 0.4395
C46 C 0.3478(2) 0.3420(13) 0.43266(19)
O17 O 0.3002(2) 0.3412(13) 0.3671(3)
O18 O 0.3486(2) 0.1903(12) 0.3643(3)
O19 O 0.3483(3) 0.4804(14) 0.3625(3)
P6 P 0.33575(9) 0.3346(8) 0.37949(10)
Ba5 Ba 0.71164(2) 0.90442(7) 0.69540(2)
Ba6 Ba 0.28836(2) 0.90442(7) 0.80460(2)
Ba7 Ba 0.21164(2) 0.40442(7) 0.69540(2)
Ba8 Ba 0.28836(2) 0.09558(7) 0.30460(2)
Ba9 Ba 0.71164(2) 0.09558(7) 0.19540(2)
O20 O 0.73196(17) 0.5057(8) 0.77080(18)
O21 O 0.76804(17) 0.0057(8) 0.72920(18)
O23 O 0.77299(18) 0.2980(9) 0.7218(2)
O25 O 0.68863(16) 0.6518(8) 0.72570(17)
O26 O 0.31137(16) 0.3482(8) 0.27430(17)
O27 O 0.69926(17) 0.1627(9) 0.7382(2)
O29 O 0.65115(18) 0.0154(12) 0.7061(2)
O30 O 0.6506(2) 0.3072(12) 0.7093(2)
Ba10 Ba 0.62532(10) 0.2601(9) 0.19969(7)
Ba11 Ba 0.37468(10) 0.7399(9) 0.80031(7)
Ba14 Ba 0.2904(5) 0.4144(11) 0.8091(3)
Ba15 Ba 0.2096(5) 0.9144(11) 0.6909(3)
Ba16 Ba 0.2904(5) 0.5856(11) 0.3091(3)
O32 O 0.5782(4) 0.0113(19) 0.5836(5)
O35 O 0.6998(2) 0.6588(13) 0.6329(3)
O37 O 0.6517(3) 0.5196(14) 0.6375(3)
H28 H 0.53279 0.149403 0.343687
H29 H 0.589603 0.131273 0.707553
C13 C 0.6938(2) 0.9843(12) 0.5394(2)
H7 H 0.7118 0.9193 0.5484
C14 C 0.6745(2) 0.9629(11) 0.5014(2)
H8 H 0.6792 0.8833 0.4845
N2 N 0.6384(2) 0.9822(13) 0.4167(3)
C19 C 0.6181(2) 0.9591(12) 0.3805(3)
C20 C 0.5865(2) 0.9874(12) 0.3754(3)
H11 H 0.5726 0.9730 0.3501
C23 C 0.6310(2) 0.9130(11) 0.3452(3)
C24 C 0.6597(2) 0.9712(11) 0.3413(3)
C25 C 0.6703(2) 0.9398(11) 0.3074(2)
H14 H 0.6901 0.9799 0.3049
C26 C 0.6525(2) 0.8513(11) 0.2775(3)
C27 C 0.6242(2) 0.7935(13) 0.2817(3)
H15 H 0.6118 0.7310 0.2613
C28 C 0.6138(3) 0.8250(13) 0.3154(3)
H16 H 0.5940 0.7843 0.3177
O6 O 0.7313(2) 0.9914(11) 0.6237(2)
O7 O 0.69926(17) 0.8373(9) 0.2382(2)
O8 O 0.65115(18) 0.9846(12) 0.2061(2)
O9 O 0.6506(2) 0.6928(12) 0.2093(2)
P3 P 0.66398(7) 0.8395(4) 0.23086(7)
H21 H 0.5392 0.9718 0.4577
H22 H 0.4845 0.9910 0.4492
O15 O 0.4218(4) 0.9887(19) 0.4164(5)
O22 O 0.72701(18) 0.7980(9) 0.7782(2)
O28 O 0.34885(18) 0.9846(12) 0.2939(2)
Ba12 Ba 0.37839(12) 0.9344(8) 0.36786(8)
Ba13 Ba 0.62161(12) 0.9344(8) 0.13214(8)
Ba17 Ba 0.7096(5) 0.5856(11) 0.1909(3)
O33 O 0.5828(4) 0.940(2) 0.6543(3)
O36 O 0.6514(2) 0.8097(12) 0.6357(3)
C15_2 C 0.3517(2) 0.0577(11) 0.0118(2)
C18_2 C 0.3738(2) 0.0289(12) 0.0520(3)
C21_2 C 0.4250(3) 0.0368(13) 0.0928(3)
C22_2 C 0.4053(2) 0.0579(11) 0.0563(3)
H12_2 H 0.4132 0.0919 0.0343
H13_2 H 0.3278 0.0331 0.1381
C35_2 C 0.4781(4) 0.114(2) 0.1324(4)
C36_2 C 0.4595(3) 0.057(2) 0.0970(5)
C37_2 C 0.4735(3) 0.011(2) 0.0665(4)
C38_2 C 0.5060(3) 0.022(2) 0.0716(4)
C39_2 C 0.5245(3) 0.080(2) 0.1070(5)
C40_2 C 0.5106(3) 0.126(2) 0.1374(4)
H23_2 H 0.5233 0.1647 0.1617
O14_2 O 0.5701(5) 0.2665(15) 0.1006(5)
O16_2 O 0.5828(4) 0.060(2) 0.1543(3)
P5_2 P 0.56583(15) 0.0964(10) 0.1119(2)
C41_2 C 0.6239(2) 0.2758(13) 0.0472(2)
H24_2 H 0.6118 0.2151 0.0612
C42_2 C 0.61312(19) 0.2984(13) 0.0064(2)
C44_2 C 0.6591(2) 0.4534(13) 0.0060(3)
C45_2 C 0.6699(2) 0.4308(13) 0.0468(3)
H27_2 H 0.6893 0.4760 0.0605
C46_2 C 0.6522(2) 0.3420(13) 0.06734(19)
O17_2 O 0.6998(2) 0.3412(13) 0.1329(3)
O18_2 O 0.6514(2) 0.1903(12) 0.1357(3)
O19_2 O 0.6517(3) 0.4804(14) 0.1375(3)
P6_2 P 0.66425(9) 0.3346(8) 0.12051(10)
O26_2 O 0.68863(16) 0.3482(8) 0.22570(17)
H28_2 H 0.46721 0.149403 0.156313
C1_2 C 0.5723(2) 0.4570(12) 0.8872(3)
C2_2 C 0.58468(19) 0.4207(10) 0.9264(2)
H1_2 H 0.5712 0.3901 0.9429
C3_2 C 0.61674(18) 0.4286(10) 0.9417(2)
C4_2 C 0.6364(2) 0.4725(9) 0.9182(2)
H2_2 H 0.6585 0.4777 0.9289
C5_2 C 0.6242(2) 0.5091(11) 0.8788(2)
N1_2 N 0.5919(2) 0.5047(13) 0.8631(3)
C6_2 C 0.68460(17) 0.6077(10) 0.8014(2)
C7_2 C 0.64513(18) 0.5419(11) 0.8519(2)
C8_2 C 0.6931(2) 0.4912(14) 0.8311(3)
H3_2 H 0.7121 0.4341 0.8338
C9_2 C 0.6571(3) 0.6870(13) 0.7978(3)
H4_2 H 0.6514 0.7653 0.7779
C10_2 C 0.6370(2) 0.6558(14) 0.8228(3)
H5_2 H 0.6178 0.7122 0.8199
C11_2 C 0.6736(2) 0.4620(13) 0.8559(3)
H6_2 H 0.6796 0.3858 0.8763
C12_2 C 0.3132(2) 0.1015(10) 0.9359(2)
C16_2 C 0.3592(3) 0.1736(12) 0.9882(3)
H9_2 H 0.3772 0.2380 0.9974
C17_2 C 0.3391(3) 0.1958(13) 0.9488(3)
H10_2 H 0.3439 0.2754 0.9320
O4_2 O 0.3104(2) 0.1559(9) 0.85829(19)
O5_2 O 0.2710(3) 0.2869(12) 0.8873(3)
O10_2 O 0.4166(4) 0.354(2) 0.8485(5)
O11_2 O 0.4327(4) 0.163(2) 0.8030(5)
O12_2 O 0.4225(5) 0.438(2) 0.7822(5)
O13_2 O 0.24506(16) 0.6620(8) 0.80483(18)
P1_2 P 0.71004(6) 0.6448(3) 0.76791(6)
P2_2 P 0.28946(8) 0.1300(4) 0.88708(7)
P4_2 P 0.43393(14) 0.3385(12) 0.8172(2)
C29_2 C 0.4961(5) 0.383(3) 0.8139(8)
H17_2 H 0.4890 0.3602 0.7863
C30_2 C 0.5385(5) 0.446(3) 0.8696(7)
C31_2 C 0.4748(5) 0.387(2) 0.8372(6)
C32_2 C 0.5276(5) 0.412(3) 0.8295(6)
H18_2 H 0.5420 0.4094 0.8128
C33_2 C 0.5168(4) 0.450(2) 0.8928(6)
H19_2 H 0.5237 0.4737 0.9203
C34_2 C 0.4856(4) 0.421(2) 0.8768(6)
H20_2 H 0.4712 0.4247 0.8935
Ba3_2 Ba 0.37839(12) 0.0656(8) 0.86786(8)
H25_2 H 0.5937 0.2532 0.9926
C43_2 C 0.6308(2) 0.3872(14) 0.98585(19)
H26_2 H 0.6712 0.5141 0.9920
Ba7_2 Ba 0.78836(2) 0.40442(7) 0.80460(2)
O21_2 O 0.23196(17) 0.0057(8) 0.77080(18)
O23_2 O 0.22701(18) 0.2980(9) 0.7782(2)
O27_2 O 0.30074(17) 0.1627(9) 0.7618(2)
O29_2 O 0.34885(18) 0.0154(12) 0.7939(2)
O30_2 O 0.3494(2) 0.3072(12) 0.7907(2)
Ba11_2 Ba 0.62532(10) 0.7399(9) 0.69969(7)
Ba15_2 Ba 0.7904(5) 0.9144(11) 0.8091(3)
O32_2 O 0.4218(4) 0.0113(19) 0.9164(5)
O35_2 O 0.3002(2) 0.6588(13) 0.8671(3)
O37_2 O 0.3483(3) 0.5196(14) 0.8625(3)
H29_2 H 0.410397 0.131273 0.792447
H8_2 H 0.3208 0.8833 0.0155
N2_2 N 0.3616(2) 0.9822(13) 0.0833(3)
C19_2 C 0.3819(2) 0.9591(12) 0.1195(3)
C20_2 C 0.4135(2) 0.9874(12) 0.1246(3)
H11_2 H 0.4274 0.9730 0.1499
C23_2 C 0.3690(2) 0.9130(11) 0.1548(3)
C24_2 C 0.3403(2) 0.9712(11) 0.1587(3)
C25_2 C 0.3297(2) 0.9398(11) 0.1926(2)
H14_2 H 0.3099 0.9799 0.1951
C26_2 C 0.3475(2) 0.8513(11) 0.2225(3)
C27_2 C 0.3758(2) 0.7935(13) 0.2183(3)
H15_2 H 0.3882 0.7310 0.2387
C28_2 C 0.3862(3) 0.8250(13) 0.1846(3)
H16_2 H 0.4060 0.7843 0.1823
O7_2 O 0.30074(17) 0.8373(9) 0.2618(2)
O9_2 O 0.3494(2) 0.6928(12) 0.2907(2)
P3_2 P 0.33602(7) 0.8395(4) 0.26914(7)
H21_2 H 0.4608 0.9718 0.0423
H22_2 H 0.5155 0.9910 0.0508
O15_2 O 0.5782(4) 0.9887(19) 0.0836(5)
C13_2 C 0.3062(2) 0.9843(12) 0.9606(2)
H7_2 H 0.2882 0.9193 0.9516
C14_2 C 0.3255(2) 0.9629(11) 0.9986(2)
O6_2 O 0.2687(2) 0.9914(11) 0.8763(2)
O33_2 O 0.4172(4) 0.940(2) 0.8457(3)
O36_2 O 0.3486(2) 0.8097(12) 0.8643(3)
O13_3 O 0.25494(16) 0.1620(8) 0.69517(18)
O25_2 O 0.18863(16) 0.1518(8) 0.72570(17)
O35_3 O 0.1998(2) 0.1588(13) 0.6329(3)
O37_3 O 0.1517(3) 0.0196(14) 0.6375(3)
C12_3 C 0.1868(2) 0.6015(10) 0.5641(2)
C13_3 C 0.1938(2) 0.4843(12) 0.5394(2)
H7_3 H 0.2118 0.4193 0.5484
C14_3 C 0.1745(2) 0.4629(11) 0.5014(2)
H8_3 H 0.1792 0.3833 0.4845
C15_3 C 0.1483(2) 0.5577(11) 0.4882(2)
C16_3 C 0.1408(3) 0.6736(12) 0.5118(3)
H9_3 H 0.1228 0.7380 0.5026
C17_3 C 0.1609(3) 0.6958(13) 0.5512(3)
H10_3 H 0.1561 0.7754 0.5680
C18_3 C 0.1262(2) 0.5289(12) 0.4480(3)
N2_3 N 0.1384(2) 0.4822(13) 0.4167(3)
C19_3 C 0.1181(2) 0.4591(12) 0.3805(3)
C20_3 C 0.0865(2) 0.4874(12) 0.3754(3)
H11_3 H 0.0726 0.4730 0.3501
C21_3 C 0.0750(3) 0.5368(13) 0.4072(3)
C22_3 C 0.0947(2) 0.5579(11) 0.4437(3)
H12_3 H 0.0868 0.5919 0.4657
C23_3 C 0.1310(2) 0.4130(11) 0.3452(3)
C24_3 C 0.1597(2) 0.4712(11) 0.3413(3)
H13_3 H 0.1722 0.5331 0.3619
C25_3 C 0.1703(2) 0.4398(11) 0.3074(2)
H14_3 H 0.1901 0.4799 0.3049
C26_3 C 0.1525(2) 0.3513(11) 0.2775(3)
C27_3 C 0.1242(2) 0.2935(13) 0.2817(3)
H15_3 H 0.1118 0.2310 0.2613
C28_3 C 0.1138(3) 0.3250(13) 0.3154(3)
H16_3 H 0.0940 0.2843 0.3177
O4_3 O 0.1896(2) 0.6559(9) 0.64171(19)
O5_3 O 0.2290(3) 0.7869(12) 0.6127(3)
O6_3 O 0.2313(2) 0.4914(11) 0.6237(2)
O7_3 O 0.19926(17) 0.3373(9) 0.2382(2)
O8_2 O 0.15115(18) 0.4846(12) 0.2061(2)
O9_3 O 0.1506(2) 0.1928(12) 0.2093(2)
O10_3 O 0.0834(4) 0.854(2) 0.6515(5)
O11_3 O 0.0673(4) 0.663(2) 0.6970(5)
O12_3 O 0.0775(5) 0.938(2) 0.7178(5)
P2_3 P 0.21054(8) 0.6300(4) 0.61292(7)
P3_3 P 0.16398(7) 0.3395(4) 0.23086(7)
P4_3 P 0.06607(14) 0.8385(12) 0.6828(2)
C29_3 C 0.0039(5) 0.883(3) 0.6861(8)
H17_3 H 0.0110 0.8602 0.7137
C31_3 C 0.0252(5) 0.887(2) 0.6628(6)
C34_3 C 0.0144(4) 0.921(2) 0.6232(6)
H20_3 H 0.0288 0.9247 0.6065
Ba3_3 Ba 0.12161(12) 0.5656(8) 0.63214(8)
C35_3 C 0.0219(4) 0.614(2) 0.3676(4)
C36_3 C 0.0405(3) 0.557(2) 0.4030(5)
C37_3 C 0.0265(3) 0.511(2) 0.4335(4)
H21_3 H 0.0392 0.4718 0.4577
Ba9_2 Ba 0.21164(2) 0.59558(7) 0.19540(2)
O27_3 O 0.19926(17) 0.6627(9) 0.7382(2)
O29_3 O 0.15115(18) 0.5154(12) 0.7061(2)
O30_3 O 0.1506(2) 0.8072(12) 0.7093(2)
Ba10_2 Ba 0.12532(10) 0.7601(9) 0.19969(7)
Ba13_2 Ba 0.12161(12) 0.4344(8) 0.13214(8)
Ba17_2 Ba 0.2096(5) 0.0856(11) 0.1909(3)
O32_3 O 0.0782(4) 0.5113(19) 0.5836(5)
O33_3 O 0.0828(4) 0.440(2) 0.6543(3)
O36_3 O 0.1514(2) 0.3097(12) 0.6357(3)
H28_3 H 0.0327902 0.649403 0.343687
H29_3 H 0.0896034 0.631273 0.707553
C5_3 C 0.8758(2) 0.0091(11) 0.6212(2)
N1_3 N 0.9081(2) 0.0047(13) 0.6369(3)
C6_3 C 0.81540(17) 0.1077(10) 0.6986(2)
C7_3 C 0.85487(18) 0.0419(11) 0.6481(2)
C9_3 C 0.8429(3) 0.1870(13) 0.7022(3)
H4_3 H 0.8486 0.2653 0.7221
C10_3 C 0.8630(2) 0.1558(14) 0.6772(3)
H5_3 H 0.8822 0.2122 0.6801
O3_2 O 0.81137(16) 0.1518(8) 0.77430(17)
P1_3 P 0.78996(6) 0.1448(3) 0.73209(6)
H26_3 H 0.8288 0.0141 0.5080
Ba11_3 Ba 0.87468(10) 0.2399(9) 0.80031(7)
Ba16_2 Ba 0.7904(5) 0.0856(11) 0.3091(3)
C1_3 C 0.9277(2) 0.9570(12) 0.6128(3)
C2_3 C 0.91532(19) 0.9207(10) 0.5736(2)
H1_3 H 0.9288 0.8901 0.5571
C3_3 C 0.88326(18) 0.9286(10) 0.5583(2)
C4_3 C 0.8636(2) 0.9725(9) 0.5818(2)
H2_3 H 0.8415 0.9777 0.5711
C8_3 C 0.8069(2) 0.9912(14) 0.6689(3)
H3_3 H 0.7879 0.9341 0.6662
C11_3 C 0.8264(2) 0.9620(13) 0.6441(3)
H6_3 H 0.8204 0.8858 0.6237
C30_3 C 0.9615(5) 0.946(3) 0.6304(7)
C32_3 C 0.9724(5) 0.912(3) 0.6705(6)
H18_3 H 0.9580 0.9094 0.6872
C33_3 C 0.9832(4) 0.950(2) 0.6072(6)
H19_3 H 0.9763 0.9737 0.5797
Ba2_2 Ba 0.87468(10) 0.7601(9) 0.30031(7)
C38_3 C 0.9940(3) 0.522(2) 0.4284(4)
H22_3 H 0.9845 0.4910 0.4492
C39_3 C 0.9755(3) 0.580(2) 0.3930(5)
C40_3 C 0.9894(3) 0.626(2) 0.3626(4)
H23_3 H 0.9767 0.6647 0.3383
O14_3 O 0.9299(5) 0.7665(15) 0.3994(5)
O15_3 O 0.9218(4) 0.4887(19) 0.4164(5)
O16_3 O 0.9172(4) 0.560(2) 0.3457(3)
P5_3 P 0.93417(15) 0.5964(10) 0.3881(2)
C41_3 C 0.8761(2) 0.7758(13) 0.4528(2)
H24_3 H 0.8882 0.7151 0.4388
C42_3 C 0.88688(19) 0.7984(13) 0.4936(2)
H25_3 H 0.9063 0.7532 0.5074
C43_3 C 0.8692(2) 0.8872(14) 0.51415(19)
C44_3 C 0.8409(2) 0.9534(13) 0.4940(3)
C45_3 C 0.8301(2) 0.9308(13) 0.4532(3)
H27_3 H 0.8107 0.9760 0.4395
C46_3 C 0.8478(2) 0.8420(13) 0.43266(19)
O17_3 O 0.8002(2) 0.8412(13) 0.3671(3)
O18_3 O 0.8486(2) 0.6903(12) 0.3643(3)
O19_3 O 0.8483(3) 0.9804(14) 0.3625(3)
P6_3 P 0.83575(9) 0.8346(8) 0.37949(10)
Ba8_2 Ba 0.78836(2) 0.59558(7) 0.30460(2)
O26_3 O 0.81137(16) 0.8482(8) 0.27430(17)
O28_2 O 0.84885(18) 0.4846(12) 0.2939(2)
Ba12_2 Ba 0.87839(12) 0.4344(8) 0.36786(8)
C5_4 C 0.1242(2) 0.0091(11) 0.8788(2)
N1_4 N 0.0919(2) 0.0047(13) 0.8631(3)
C6_4 C 0.18460(17) 0.1077(10) 0.8014(2)
C7_4 C 0.14513(18) 0.0419(11) 0.8519(2)
C9_4 C 0.1571(3) 0.1870(13) 0.7978(3)
H4_4 H 0.1514 0.2653 0.7779
C10_4 C 0.1370(2) 0.1558(14) 0.8228(3)
H5_4 H 0.1178 0.2122 0.8199
P1_4 P 0.21004(6) 0.1448(3) 0.76791(6)
H26_4 H 0.1712 0.0141 0.9920
Ba11_4 Ba 0.12532(10) 0.2399(9) 0.69969(7)
C38_4 C 0.0060(3) 0.522(2) 0.0716(4)
H22_4 H 0.0155 0.4910 0.0508
C39_4 C 0.0245(3) 0.580(2) 0.1070(5)
C40_4 C 0.0106(3) 0.626(2) 0.1374(4)
H23_4 H 0.0233 0.6647 0.1617
O14_4 O 0.0701(5) 0.7665(15) 0.1006(5)
O15_4 O 0.0782(4) 0.4887(19) 0.0836(5)
O16_4 O 0.0828(4) 0.560(2) 0.1543(3)
P5_4 P 0.06583(15) 0.5964(10) 0.1119(2)
C41_4 C 0.1239(2) 0.7758(13) 0.0472(2)
H24_4 H 0.1118 0.7151 0.0612
C42_4 C 0.11312(19) 0.7984(13) 0.0064(2)
C44_4 C 0.1591(2) 0.9534(13) 0.0060(3)
C45_4 C 0.1699(2) 0.9308(13) 0.0468(3)
H27_4 H 0.1893 0.9760 0.0605
C46_4 C 0.1522(2) 0.8420(13) 0.06734(19)
O17_4 O 0.1998(2) 0.8412(13) 0.1329(3)
O18_4 O 0.1514(2) 0.6903(12) 0.1357(3)
O19_4 O 0.1517(3) 0.9804(14) 0.1375(3)
P6_4 P 0.16425(9) 0.8346(8) 0.12051(10)
O26_4 O 0.18863(16) 0.8482(8) 0.22570(17)
C1_4 C 0.0723(2) 0.9570(12) 0.8872(3)
C2_4 C 0.08468(19) 0.9207(10) 0.9264(2)
H1_4 H 0.0712 0.8901 0.9429
C3_4 C 0.11674(18) 0.9286(10) 0.9417(2)
C4_4 C 0.1364(2) 0.9725(9) 0.9182(2)
H2_4 H 0.1585 0.9777 0.9289
C8_4 C 0.1931(2) 0.9912(14) 0.8311(3)
H3_4 H 0.2121 0.9341 0.8338
C11_4 C 0.1736(2) 0.9620(13) 0.8559(3)
H6_4 H 0.1796 0.8858 0.8763
C30_4 C 0.0385(5) 0.946(3) 0.8696(7)
C32_4 C 0.0276(5) 0.912(3) 0.8295(6)
H18_4 H 0.0420 0.9094 0.8128
C33_4 C 0.0168(4) 0.950(2) 0.8928(6)
H19_4 H 0.0237 0.9737 0.9203
H25_4 H 0.0937 0.7532 0.9926
C43_4 C 0.1308(2) 0.8872(14) 0.98585(19)
O13_4 O 0.74506(16) 0.1620(8) 0.80483(18)
O35_4 O 0.8002(2) 0.1588(13) 0.8671(3)
O37_4 O 0.8483(3) 0.0196(14) 0.8625(3)
H8_4 H 0.8208 0.3833 0.0155
C15_4 C 0.8517(2) 0.5577(11) 0.0118(2)
C18_4 C 0.8738(2) 0.5289(12) 0.0520(3)
N2_4 N 0.8616(2) 0.4822(13) 0.0833(3)
C19_4 C 0.8819(2) 0.4591(12) 0.1195(3)
C20_4 C 0.9135(2) 0.4874(12) 0.1246(3)
H11_4 H 0.9274 0.4730 0.1499
C21_4 C 0.9250(3) 0.5368(13) 0.0928(3)
C22_4 C 0.9053(2) 0.5579(11) 0.0563(3)
H12_4 H 0.9132 0.5919 0.0343
C23_4 C 0.8690(2) 0.4130(11) 0.1548(3)
C24_4 C 0.8403(2) 0.4712(11) 0.1587(3)
H13_4 H 0.8278 0.5331 0.1381
C25_4 C 0.8297(2) 0.4398(11) 0.1926(2)
H14_4 H 0.8099 0.4799 0.1951
C26_4 C 0.8475(2) 0.3513(11) 0.2225(3)
C27_4 C 0.8758(2) 0.2935(13) 0.2183(3)
H15_4 H 0.8882 0.2310 0.2387
C28_4 C 0.8862(3) 0.3250(13) 0.1846(3)
H16_4 H 0.9060 0.2843 0.1823
O7_4 O 0.80074(17) 0.3373(9) 0.2618(2)
O9_4 O 0.8494(2) 0.1928(12) 0.2907(2)
P3_4 P 0.83602(7) 0.3395(4) 0.26914(7)
C35_4 C 0.9781(4) 0.614(2) 0.1324(4)
C36_4 C 0.9595(3) 0.557(2) 0.0970(5)
C37_4 C 0.9735(3) 0.511(2) 0.0665(4)
H21_4 H 0.9608 0.4718 0.0423
H28_4 H 0.96721 0.649403 0.156313
C12_4 C 0.8132(2) 0.6015(10) 0.9359(2)
C13_4 C 0.8062(2) 0.4843(12) 0.9606(2)
H7_4 H 0.7882 0.4193 0.9516
C14_4 C 0.8255(2) 0.4629(11) 0.9986(2)
C16_4 C 0.8592(3) 0.6736(12) 0.9882(3)
H9_4 H 0.8772 0.7380 0.9974
C17_4 C 0.8391(3) 0.6958(13) 0.9488(3)
H10_4 H 0.8439 0.7754 0.9320
O4_4 O 0.8104(2) 0.6559(9) 0.85829(19)
O5_4 O 0.7710(3) 0.7869(12) 0.8873(3)
O6_4 O 0.7687(2) 0.4914(11) 0.8763(2)
O10_4 O 0.9166(4) 0.854(2) 0.8485(5)
O11_4 O 0.9327(4) 0.663(2) 0.8030(5)
O12_4 O 0.9225(5) 0.938(2) 0.7822(5)
P2_4 P 0.78946(8) 0.6300(4) 0.88708(7)
P4_4 P 0.93393(14) 0.8385(12) 0.8172(2)
C29_4 C 0.9961(5) 0.883(3) 0.8139(8)
H17_4 H 0.9890 0.8602 0.7863
C31_4 C 0.9748(5) 0.887(2) 0.8372(6)
C34_4 C 0.9856(4) 0.921(2) 0.8768(6)
H20_4 H 0.9712 0.9247 0.8935
Ba3_4 Ba 0.87839(12) 0.5656(8) 0.86786(8)
O27_4 O 0.80074(17) 0.6627(9) 0.7618(2)
O29_4 O 0.84885(18) 0.5154(12) 0.7939(2)
O30_4 O 0.8494(2) 0.8072(12) 0.7907(2)
O32_4 O 0.9218(4) 0.5113(19) 0.9164(5)
O33_4 O 0.9172(4) 0.440(2) 0.8457(3)
O36_4 O 0.8486(2) 0.3097(12) 0.8643(3)
H29_4 H 0.910397 0.631273 0.792447
C13_5 C 0.3062(2) 0.0157(12) 0.4606(2)
H7_5 H 0.2882 0.0807 0.4516
C14_5 C 0.3255(2) 0.0371(11) 0.4986(2)
H8_5 H 0.3208 0.1167 0.5155
N2_5 N 0.3616(2) 0.0178(13) 0.5833(3)
C19_5 C 0.3819(2) 0.0409(12) 0.6195(3)
C20_5 C 0.4135(2) 0.0126(12) 0.6246(3)
H11_5 H 0.4274 0.0270 0.6499
C23_5 C 0.3690(2) 0.0870(11) 0.6548(3)
C24_5 C 0.3403(2) 0.0288(11) 0.6587(3)
C25_5 C 0.3297(2) 0.0602(11) 0.6926(2)
H14_5 H 0.3099 0.0201 0.6951
C26_5 C 0.3475(2) 0.1487(11) 0.7225(3)
C27_5 C 0.3758(2) 0.2065(13) 0.7183(3)
H15_5 H 0.3882 0.2690 0.7387
C28_5 C 0.3862(3) 0.1750(13) 0.6846(3)
H16_5 H 0.4060 0.2157 0.6823
O6_5 O 0.2687(2) 0.0086(11) 0.3763(2)
P3_5 P 0.33602(7) 0.1605(4) 0.76914(7)
H21_5 H 0.4608 0.0282 0.5423
H22_5 H 0.5155 0.0090 0.5508
O22_2 O 0.27299(18) 0.2020(9) 0.2218(2)
O31 O 0.24506(16) 0.3380(8) 0.30483(18)
C1_5 C 0.5723(2) 0.5430(12) 0.3872(3)
C2_5 C 0.58468(19) 0.5793(10) 0.4264(2)
H1_5 H 0.5712 0.6099 0.4429
C3_5 C 0.61674(18) 0.5714(10) 0.4417(2)
C4_5 C 0.6364(2) 0.5275(9) 0.4182(2)
H2_5 H 0.6585 0.5223 0.4289
C5_5 C 0.6242(2) 0.4909(11) 0.3788(2)
N1_5 N 0.5919(2) 0.4953(13) 0.3631(3)
C6_5 C 0.68460(17) 0.3923(10) 0.3014(2)
C7_5 C 0.64513(18) 0.4581(11) 0.3519(2)
C8_5 C 0.6931(2) 0.5088(14) 0.3311(3)
H3_5 H 0.7121 0.5659 0.3338
C9_5 C 0.6571(3) 0.3130(13) 0.2978(3)
H4_5 H 0.6514 0.2347 0.2779
C10_5 C 0.6370(2) 0.3442(14) 0.3228(3)
H5_5 H 0.6178 0.2878 0.3199
C11_5 C 0.6736(2) 0.5380(13) 0.3559(3)
H6_5 H 0.6796 0.6142 0.3763
C12_5 C 0.3132(2) 0.8985(10) 0.4359(2)
C15_5 C 0.3517(2) 0.9423(11) 0.5118(2)
C16_5 C 0.3592(3) 0.8264(12) 0.4882(3)
H9_5 H 0.3772 0.7620 0.4974
C17_5 C 0.3391(3) 0.8042(13) 0.4488(3)
H10_5 H 0.3439 0.7246 0.4320
C18_5 C 0.3738(2) 0.9711(12) 0.5520(3)
C21_5 C 0.4250(3) 0.9632(13) 0.5928(3)
C22_5 C 0.4053(2) 0.9421(11) 0.5563(3)
H12_5 H 0.4132 0.9081 0.5343
H13_5 H 0.3278 0.9669 0.6381
O1_2 O 0.73196(17) 0.4943(8) 0.27080(18)
O2_2 O 0.72701(18) 0.2020(9) 0.2782(2)
O4_5 O 0.3104(2) 0.8441(9) 0.35829(19)
O5_5 O 0.2710(3) 0.7131(12) 0.3873(3)
O10_5 O 0.4166(4) 0.646(2) 0.3485(5)
O11_5 O 0.4327(4) 0.837(2) 0.3030(5)
O12_5 O 0.4225(5) 0.562(2) 0.2822(5)
P1_5 P 0.71004(6) 0.3552(3) 0.26791(6)
P2_5 P 0.28946(8) 0.8700(4) 0.38708(7)
P4_5 P 0.43393(14) 0.6615(12) 0.3172(2)
C29_5 C 0.4961(5) 0.617(3) 0.3139(8)
H17_5 H 0.4890 0.6398 0.2863
C30_5 C 0.5385(5) 0.554(3) 0.3696(7)
C31_5 C 0.4748(5) 0.613(2) 0.3372(6)
C32_5 C 0.5276(5) 0.588(3) 0.3295(6)
H18_5 H 0.5420 0.5906 0.3128
C33_5 C 0.5168(4) 0.550(2) 0.3928(6)
H19_5 H 0.5237 0.5263 0.4203
C34_5 C 0.4856(4) 0.579(2) 0.3768(6)
H20_5 H 0.4712 0.5753 0.3935
C35_5 C 0.4781(4) 0.886(2) 0.6324(4)
C36_5 C 0.4595(3) 0.943(2) 0.5970(5)
C37_5 C 0.4735(3) 0.989(2) 0.5665(4)
C38_5 C 0.5060(3) 0.978(2) 0.5716(4)
C39_5 C 0.5245(3) 0.920(2) 0.6070(5)
C40_5 C 0.5106(3) 0.874(2) 0.6374(4)
H23_5 H 0.5233 0.8353 0.6617
O14_5 O 0.5701(5) 0.7335(15) 0.6006(5)
P5_5 P 0.56583(15) 0.9036(10) 0.6119(2)
C41_5 C 0.6239(2) 0.7242(13) 0.5472(2)
H24_5 H 0.6118 0.7849 0.5612
C42_5 C 0.61312(19) 0.7016(13) 0.5064(2)
H25_5 H 0.5937 0.7468 0.4926
C43_5 C 0.6308(2) 0.6128(14) 0.48585(19)
C44_5 C 0.6591(2) 0.5466(13) 0.5060(3)
H26_5 H 0.6712 0.4859 0.4920
C45_5 C 0.6699(2) 0.5692(13) 0.5468(3)
H27_5 H 0.6893 0.5240 0.5605
C46_5 C 0.6522(2) 0.6580(13) 0.56734(19)
P6_5 P 0.66425(9) 0.6654(8) 0.62051(10)
O20_2 O 0.26804(17) 0.4943(8) 0.22920(18)
O21_3 O 0.23196(17) 0.9943(8) 0.27080(18)
O23_3 O 0.22701(18) 0.7020(9) 0.2782(2)
H28_5 H 0.46721 0.850597 0.656313
H29_5 H 0.410397 0.868727 0.292447
C13_6 C 0.6938(2) 0.0157(12) 0.0394(2)
H7_6 H 0.7118 0.0807 0.0484
C14_6 C 0.6745(2) 0.0371(11) 0.0014(2)
O6_6 O 0.7313(2) 0.0086(11) 0.1237(2)
O31_2 O 0.75494(16) 0.3380(8) 0.19517(18)
H8_6 H 0.6792 0.1167 0.9845
N2_6 N 0.6384(2) 0.0178(13) 0.9167(3)
C19_6 C 0.6181(2) 0.0409(12) 0.8805(3)
C20_6 C 0.5865(2) 0.0126(12) 0.8754(3)
H11_6 H 0.5726 0.0270 0.8501
C23_6 C 0.6310(2) 0.0870(11) 0.8452(3)
C24_6 C 0.6597(2) 0.0288(11) 0.8413(3)
C25_6 C 0.6703(2) 0.0602(11) 0.8074(2)
H14_6 H 0.6901 0.0201 0.8049
C26_6 C 0.6525(2) 0.1487(11) 0.7775(3)
C27_6 C 0.6242(2) 0.2065(13) 0.7817(3)
H15_6 H 0.6118 0.2690 0.7613
C28_6 C 0.6138(3) 0.1750(13) 0.8154(3)
H16_6 H 0.5940 0.2157 0.8177
P3_6 P 0.66398(7) 0.1605(4) 0.73086(7)
H21_6 H 0.5392 0.0282 0.9577
H22_6 H 0.4845 0.0090 0.9492
C1_6 C 0.4277(2) 0.5430(12) 0.1128(3)
C2_6 C 0.41532(19) 0.5793(10) 0.0736(2)
H1_6 H 0.4288 0.6099 0.0571
C3_6 C 0.38326(18) 0.5714(10) 0.0583(2)
C4_6 C 0.3636(2) 0.5275(9) 0.0818(2)
H2_6 H 0.3415 0.5223 0.0711
C5_6 C 0.3758(2) 0.4909(11) 0.1212(2)
N1_6 N 0.4081(2) 0.4953(13) 0.1369(3)
C6_6 C 0.31540(17) 0.3923(10) 0.1986(2)
C7_6 C 0.35487(18) 0.4581(11) 0.1481(2)
C8_6 C 0.3069(2) 0.5088(14) 0.1689(3)
H3_6 H 0.2879 0.5659 0.1662
C9_6 C 0.3429(3) 0.3130(13) 0.2022(3)
H4_6 H 0.3486 0.2347 0.2221
C10_6 C 0.3630(2) 0.3442(14) 0.1772(3)
H5_6 H 0.3822 0.2878 0.1801
C11_6 C 0.3264(2) 0.5380(13) 0.1441(3)
H6_6 H 0.3204 0.6142 0.1237
C12_6 C 0.6868(2) 0.8985(10) 0.0641(2)
C16_6 C 0.6408(3) 0.8264(12) 0.0118(3)
H9_6 H 0.6228 0.7620 0.0026
C17_6 C 0.6609(3) 0.8042(13) 0.0512(3)
H10_6 H 0.6561 0.7246 0.0680
O4_6 O 0.6896(2) 0.8441(9) 0.14171(19)
O5_6 O 0.7290(3) 0.7131(12) 0.1127(3)
O10_6 O 0.5834(4) 0.646(2) 0.1515(5)
O11_6 O 0.5673(4) 0.837(2) 0.1970(5)
O12_6 O 0.5775(5) 0.562(2) 0.2178(5)
P1_6 P 0.28996(6) 0.3552(3) 0.23209(6)
P2_6 P 0.71054(8) 0.8700(4) 0.11292(7)
P4_6 P 0.56607(14) 0.6615(12) 0.1828(2)
C29_6 C 0.5039(5) 0.617(3) 0.1861(8)
H17_6 H 0.5110 0.6398 0.2137
C30_6 C 0.4615(5) 0.554(3) 0.1304(7)
C31_6 C 0.5252(5) 0.613(2) 0.1628(6)
C32_6 C 0.4724(5) 0.588(3) 0.1705(6)
H18_6 H 0.4580 0.5906 0.1872
C33_6 C 0.4832(4) 0.550(2) 0.1072(6)
H19_6 H 0.4763 0.5263 0.0797
C34_6 C 0.5144(4) 0.579(2) 0.1232(6)
H20_6 H 0.5288 0.5753 0.1065
H25_6 H 0.4063 0.7468 0.0074
C43_6 C 0.3692(2) 0.6128(14) 0.01415(19)
H26_6 H 0.3288 0.4859 0.0080
O21_4 O 0.76804(17) 0.9943(8) 0.22920(18)
O23_4 O 0.77299(18) 0.7020(9) 0.2218(2)
H29_6 H 0.589603 0.868727 0.207553
C15_6 C 0.6483(2) 0.9423(11) 0.9882(2)
C18_6 C 0.6262(2) 0.9711(12) 0.9480(3)
C21_6 C 0.5750(3) 0.9632(13) 0.9072(3)
C22_6 C 0.5947(2) 0.9421(11) 0.9437(3)
H12_6 H 0.5868 0.9081 0.9657
H13_6 H 0.6722 0.9669 0.8619
C35_6 C 0.5219(4) 0.886(2) 0.8676(4)
C36_6 C 0.5405(3) 0.943(2) 0.9030(5)
C37_6 C 0.5265(3) 0.989(2) 0.9335(4)
C38_6 C 0.4940(3) 0.978(2) 0.9284(4)
C39_6 C 0.4755(3) 0.920(2) 0.8930(5)
C40_6 C 0.4894(3) 0.874(2) 0.8626(4)
H23_6 H 0.4767 0.8353 0.8383
O14_6 O 0.4299(5) 0.7335(15) 0.8994(5)
P5_6 P 0.43417(15) 0.9036(10) 0.8881(2)
C41_6 C 0.3761(2) 0.7242(13) 0.9528(2)
H24_6 H 0.3882 0.7849 0.9388
C42_6 C 0.38688(19) 0.7016(13) 0.9936(2)
C44_6 C 0.3409(2) 0.5466(13) 0.9940(3)
C45_6 C 0.3301(2) 0.5692(13) 0.9532(3)
H27_6 H 0.3107 0.5240 0.9395
C46_6 C 0.3478(2) 0.6580(13) 0.93266(19)
P6_6 P 0.33575(9) 0.6654(8) 0.87949(10)
H28_6 H 0.53279 0.850597 0.843687
C1_7 C 0.0723(2) 0.0430(12) 0.3872(3)
C2_7 C 0.08468(19) 0.0793(10) 0.4264(2)
H1_7 H 0.0712 0.1099 0.4429
C3_7 C 0.11674(18) 0.0714(10) 0.4417(2)
C4_7 C 0.1364(2) 0.0275(9) 0.4182(2)
H2_7 H 0.1585 0.0223 0.4289
C8_7 C 0.1931(2) 0.0088(14) 0.3311(3)
H3_7 H 0.2121 0.0659 0.3338
C11_7 C 0.1736(2) 0.0380(13) 0.3559(3)
H6_7 H 0.1796 0.1142 0.3763
C30_7 C 0.0385(5) 0.054(3) 0.3696(7)
C32_7 C 0.0276(5) 0.088(3) 0.3295(6)
H18_7 H 0.0420 0.0906 0.3128
C33_7 C 0.0168(4) 0.050(2) 0.3928(6)
H19_7 H 0.0237 0.0263 0.4203
C38_7 C 0.0060(3) 0.478(2) 0.5716(4)
H22_7 H 0.0155 0.5090 0.5508
C39_7 C 0.0245(3) 0.420(2) 0.6070(5)
C40_7 C 0.0106(3) 0.374(2) 0.6374(4)
H23_7 H 0.0233 0.3353 0.6617
O14_7 O 0.0701(5) 0.2335(15) 0.6006(5)
P5_7 P 0.06583(15) 0.4036(10) 0.6119(2)
C41_7 C 0.1239(2) 0.2242(13) 0.5472(2)
H24_7 H 0.1118 0.2849 0.5612
C42_7 C 0.11312(19) 0.2016(13) 0.5064(2)
H25_7 H 0.0937 0.2468 0.4926
C43_7 C 0.1308(2) 0.1128(14) 0.48585(19)
C44_7 C 0.1591(2) 0.0466(13) 0.5060(3)
C45_7 C 0.1699(2) 0.0692(13) 0.5468(3)
H27_7 H 0.1893 0.0240 0.5605
C46_7 C 0.1522(2) 0.1580(13) 0.56734(19)
P6_7 P 0.16425(9) 0.1654(8) 0.62051(10)
C5_7 C 0.1242(2) 0.9909(11) 0.3788(2)
N1_7 N 0.0919(2) 0.9953(13) 0.3631(3)
C6_7 C 0.18460(17) 0.8923(10) 0.3014(2)
C7_7 C 0.14513(18) 0.9581(11) 0.3519(2)
C9_7 C 0.1571(3) 0.8130(13) 0.2978(3)
H4_7 H 0.1514 0.7347 0.2779
C10_7 C 0.1370(2) 0.8442(14) 0.3228(3)
H5_7 H 0.1178 0.7878 0.3199
P1_7 P 0.21004(6) 0.8552(3) 0.26791(6)
H26_7 H 0.1712 0.9859 0.4920
C12_7 C 0.8132(2) 0.3985(10) 0.4359(2)
C13_7 C 0.8062(2) 0.5157(12) 0.4606(2)
H7_7 H 0.7882 0.5807 0.4516
C14_7 C 0.8255(2) 0.5371(11) 0.4986(2)
H8_7 H 0.8208 0.6167 0.5155
C15_7 C 0.8517(2) 0.4423(11) 0.5118(2)
C16_7 C 0.8592(3) 0.3264(12) 0.4882(3)
H9_7 H 0.8772 0.2620 0.4974
C17_7 C 0.8391(3) 0.3042(13) 0.4488(3)
H10_7 H 0.8439 0.2246 0.4320
C18_7 C 0.8738(2) 0.4711(12) 0.5520(3)
N2_7 N 0.8616(2) 0.5178(13) 0.5833(3)
C19_7 C 0.8819(2) 0.5409(12) 0.6195(3)
C20_7 C 0.9135(2) 0.5126(12) 0.6246(3)
H11_7 H 0.9274 0.5270 0.6499
C21_7 C 0.9250(3) 0.4632(13) 0.5928(3)
C22_7 C 0.9053(2) 0.4421(11) 0.5563(3)
H12_7 H 0.9132 0.4081 0.5343
C23_7 C 0.8690(2) 0.5870(11) 0.6548(3)
C24_7 C 0.8403(2) 0.5288(11) 0.6587(3)
H13_7 H 0.8278 0.4669 0.6381
C25_7 C 0.8297(2) 0.5602(11) 0.6926(2)
H14_7 H 0.8099 0.5201 0.6951
C26_7 C 0.8475(2) 0.6487(11) 0.7225(3)
C27_7 C 0.8758(2) 0.7065(13) 0.7183(3)
H15_7 H 0.8882 0.7690 0.7387
C28_7 C 0.8862(3) 0.6750(13) 0.6846(3)
H16_7 H 0.9060 0.7157 0.6823
O4_7 O 0.8104(2) 0.3441(9) 0.35829(19)
O5_7 O 0.7710(3) 0.2131(12) 0.3873(3)
O6_7 O 0.7687(2) 0.5086(11) 0.3763(2)
O10_7 O 0.9166(4) 0.146(2) 0.3485(5)
O11_7 O 0.9327(4) 0.337(2) 0.3030(5)
O12_7 O 0.9225(5) 0.062(2) 0.2822(5)
P2_7 P 0.78946(8) 0.3700(4) 0.38708(7)
P3_7 P 0.83602(7) 0.6605(4) 0.76914(7)
P4_7 P 0.93393(14) 0.1615(12) 0.3172(2)
C29_7 C 0.9961(5) 0.117(3) 0.3139(8)
H17_7 H 0.9890 0.1398 0.2863
C31_7 C 0.9748(5) 0.113(2) 0.3372(6)
C34_7 C 0.9856(4) 0.079(2) 0.3768(6)
H20_7 H 0.9712 0.0753 0.3935
C35_7 C 0.9781(4) 0.386(2) 0.6324(4)
C36_7 C 0.9595(3) 0.443(2) 0.5970(5)
C37_7 C 0.9735(3) 0.489(2) 0.5665(4)
H21_7 H 0.9608 0.5282 0.5423
O31_3 O 0.74506(16) 0.8380(8) 0.30483(18)
H28_7 H 0.96721 0.350597 0.656313
H29_7 H 0.910397 0.368727 0.292447
C12_8 C 0.1868(2) 0.3985(10) 0.0641(2)
C13_8 C 0.1938(2) 0.5157(12) 0.0394(2)
H7_8 H 0.2118 0.5807 0.0484
C14_8 C 0.1745(2) 0.5371(11) 0.0014(2)
C16_8 C 0.1408(3) 0.3264(12) 0.0118(3)
H9_8 H 0.1228 0.2620 0.0026
C17_8 C 0.1609(3) 0.3042(13) 0.0512(3)
H10_8 H 0.1561 0.2246 0.0680
O4_8 O 0.1896(2) 0.3441(9) 0.14171(19)
O5_8 O 0.2290(3) 0.2131(12) 0.1127(3)
O6_8 O 0.2313(2) 0.5086(11) 0.1237(2)
O10_8 O 0.0834(4) 0.146(2) 0.1515(5)
O11_8 O 0.0673(4) 0.337(2) 0.1970(5)
O12_8 O 0.0775(5) 0.062(2) 0.2178(5)
P2_8 P 0.21054(8) 0.3700(4) 0.11292(7)
P4_8 P 0.06607(14) 0.1615(12) 0.1828(2)
C29_8 C 0.0039(5) 0.117(3) 0.1861(8)
H17_8 H 0.0110 0.1398 0.2137
C31_8 C 0.0252(5) 0.113(2) 0.1628(6)
C34_8 C 0.0144(4) 0.079(2) 0.1232(6)
H20_8 H 0.0288 0.0753 0.1065
O31_4 O 0.25494(16) 0.8380(8) 0.19517(18)
H29_8 H 0.0896034 0.368727 0.207553
H8_8 H 0.1792 0.6167 0.9845
C15_8 C 0.1483(2) 0.4423(11) 0.9882(2)
C18_8 C 0.1262(2) 0.4711(12) 0.9480(3)
N2_8 N 0.1384(2) 0.5178(13) 0.9167(3)
C19_8 C 0.1181(2) 0.5409(12) 0.8805(3)
C20_8 C 0.0865(2) 0.5126(12) 0.8754(3)
H11_8 H 0.0726 0.5270 0.8501
C21_8 C 0.0750(3) 0.4632(13) 0.9072(3)
C22_8 C 0.0947(2) 0.4421(11) 0.9437(3)
H12_8 H 0.0868 0.4081 0.9657
C23_8 C 0.1310(2) 0.5870(11) 0.8452(3)
C24_8 C 0.1597(2) 0.5288(11) 0.8413(3)
H13_8 H 0.1722 0.4669 0.8619
C25_8 C 0.1703(2) 0.5602(11) 0.8074(2)
H14_8 H 0.1901 0.5201 0.8049
C26_8 C 0.1525(2) 0.6487(11) 0.7775(3)
C27_8 C 0.1242(2) 0.7065(13) 0.7817(3)
H15_8 H 0.1118 0.7690 0.7613
C28_8 C 0.1138(3) 0.6750(13) 0.8154(3)
H16_8 H 0.0940 0.7157 0.8177
P3_8 P 0.16398(7) 0.6605(4) 0.73086(7)
C35_8 C 0.0219(4) 0.386(2) 0.8676(4)
C36_8 C 0.0405(3) 0.443(2) 0.9030(5)
C37_8 C 0.0265(3) 0.489(2) 0.9335(4)
H21_8 H 0.0392 0.5282 0.9577
H28_8 H 0.0327902 0.350597 0.843687
C1_8 C 0.9277(2) 0.0430(12) 0.1128(3)
C2_8 C 0.91532(19) 0.0793(10) 0.0736(2)
H1_8 H 0.9288 0.1099 0.0571
C3_8 C 0.88326(18) 0.0714(10) 0.0583(2)
C4_8 C 0.8636(2) 0.0275(9) 0.0818(2)
H2_8 H 0.8415 0.0223 0.0711
C8_8 C 0.8069(2) 0.0088(14) 0.1689(3)
H3_8 H 0.7879 0.0659 0.1662
C11_8 C 0.8264(2) 0.0380(13) 0.1441(3)
H6_8 H 0.8204 0.1142 0.1237
C30_8 C 0.9615(5) 0.054(3) 0.1304(7)
C32_8 C 0.9724(5) 0.088(3) 0.1705(6)
H18_8 H 0.9580 0.0906 0.1872
C33_8 C 0.9832(4) 0.050(2) 0.1072(6)
H19_8 H 0.9763 0.0263 0.0797
H25_8 H 0.9063 0.2468 0.0074
C43_8 C 0.8692(2) 0.1128(14) 0.01415(19)
C38_8 C 0.9940(3) 0.478(2) 0.9284(4)
H22_8 H 0.9845 0.5090 0.9492
C39_8 C 0.9755(3) 0.420(2) 0.8930(5)
C40_8 C 0.9894(3) 0.374(2) 0.8626(4)
H23_8 H 0.9767 0.3353 0.8383
O14_8 O 0.9299(5) 0.2335(15) 0.8994(5)
P5_8 P 0.93417(15) 0.4036(10) 0.8881(2)
C41_8 C 0.8761(2) 0.2242(13) 0.9528(2)
H24_8 H 0.8882 0.2849 0.9388
C42_8 C 0.88688(19) 0.2016(13) 0.9936(2)
C44_8 C 0.8409(2) 0.0466(13) 0.9940(3)
C45_8 C 0.8301(2) 0.0692(13) 0.9532(3)
H27_8 H 0.8107 0.0240 0.9395
C46_8 C 0.8478(2) 0.1580(13) 0.93266(19)
P6_8 P 0.83575(9) 0.1654(8) 0.87949(10)
C5_8 C 0.8758(2) 0.9909(11) 0.1212(2)
N1_8 N 0.9081(2) 0.9953(13) 0.1369(3)
C6_8 C 0.81540(17) 0.8923(10) 0.1986(2)
C7_8 C 0.85487(18) 0.9581(11) 0.1481(2)
C9_8 C 0.8429(3) 0.8130(13) 0.2022(3)
H4_8 H 0.8486 0.7347 0.2221
C10_8 C 0.8630(2) 0.8442(14) 0.1772(3)
H5_8 H 0.8822 0.7878 0.1801
P1_8 P 0.78996(6) 0.8552(3) 0.23209(6)
H26_8 H 0.8288 0.9859 0.0080
loop_
_geom_bond_atom_site_label_1
_geom_bond_atom_site_label_2
_geom_bond_site_symmetry_1
_geom_bond_site_symmetry_2
C1 C2 1_555 1_555
C2 H1 1_555 1_555
C3 C2 1_555 1_555
C4 C3 1_555 1_555
H2 C4 1_555 1_555
C5 C4 1_555 1_555
N1 C1 1_555 1_555
C6 C8 1_555 1_555
C7 C5 1_555 1_555
C8 H3 1_555 1_555
C9 C6 1_555 1_555
H4 C9 1_555 1_555
C10 C7 1_555 1_555
H5 C10 1_555 1_555
C11 C7 1_555 1_555
H6 C11 1_555 1_555
C16 C15 1_555 1_555
H9 C16 1_555 1_555
C17 C12 1_555 1_555
H10 C17 1_555 1_555
C18 C15 1_555 1_555
C22 C18 1_555 1_555
H12 C22 1_555 1_555
O1 P1 1_555 1_555
O2 P1 1_555 1_555
O3 P1 1_555 1_555
O4 P2 1_555 1_555
O5 P2 1_555 1_555
O10 P4 1_555 1_555
O11 P4 1_555 1_555
O12 P4 1_555 1_555
O13 Ba4 1_555 1_555
P1 C6 1_555 1_555
P2 C12 1_555 1_555
P4 C31 1_555 1_555
C29 H17 1_555 1_555
C30 C1 1_555 1_555
C31 C29 1_555 1_555
C32 C29 1_555 1_555
H18 C32 1_555 1_555
C33 C30 1_555 1_555
H19 C33 1_555 1_555
C34 C31 1_555 1_555
H20 C34 1_555 1_555
Ba2 O16 1_555 1_555
Ba3 O4 1_555 1_555
Ba4 O4 1_555 1_555
C35 C36 1_555 1_555
C36 C21 1_555 1_555
C37 C36 1_555 1_555
C38 C37 1_555 1_555
C39 C38 1_555 1_555
C40 C35 1_555 1_555
H23 C40 1_555 1_555
O14 P5 1_555 1_555
O16 P5 1_555 1_555
P5 C39 1_555 1_555
C41 H24 1_555 1_555
C42 C41 1_555 1_555
H25 C42 1_555 1_555
C43 C3 1_555 1_555
C44 C43 1_555 1_555
H26 C44 1_555 1_555
C45 C44 1_555 1_555
H27 C45 1_555 1_555
C46 C41 1_555 1_555
O17 P6 1_555 1_555
O18 Ba2 1_555 1_555
O19 Ba2 1_555 1_555
P6 C46 1_555 1_555
Ba5 O13 1_555 1_555
Ba6 O2 1_555 1_555
Ba7 O1 1_555 1_555
Ba8 O17 1_555 1_555
O20 Ba4 1_555 1_555
O23 Ba4 1_555 1_555
O25 Ba4 1_555 1_555
O26 Ba2 1_555 1_555
O30 Ba4 1_555 1_555
Ba11 O3 1_555 1_555
Ba14 O1 1_555 1_555
Ba15 O2 1_555 1_555
Ba16 O17 1_555 1_555
O32 Ba3 1_555 1_555
O35 Ba4 1_555 1_555
O37 Ba4 1_555 1_555
C5 N1 1_555 1_555
C8 C11 1_555 1_555
C9 C10 1_555 1_555
C16 C17 1_555 1_555
C21 C22 1_555 1_555
O3 Ba6 1_555 1_555
O3 Ba14 1_555 1_555
O5 Ba4 1_555 1_555
O10 Ba3 1_555 1_555
C30 C32 1_555 1_555
C33 C34 1_555 1_555
Ba3 O29 1_555 1_555
Ba4 O27 1_555 1_555
C39 C40 1_555 1_555
C42 C43 1_555 1_555
C45 C46 1_555 1_555
O18 P6 1_555 1_555
O18 Ba8 1_555 1_555
O19 P6 1_555 1_555
O19 Ba16 1_555 1_555
Ba5 O25 1_555 1_555
Ba5 O35 1_555 1_555
Ba8 O26 1_555 1_555
O26 Ba16 1_555 1_555
C35 H28 1_555 1_555
O11 H29 1_555 1_555
C13 H7 1_555 1_555
C14 C13 1_555 1_555
H8 C14 1_555 1_555
C19 N2 1_555 1_555
C20 C19 1_555 1_555
H11 C20 1_555 1_555
C23 C19 1_555 1_555
C24 C23 1_555 1_555
C25 C24 1_555 1_555
H14 C25 1_555 1_555
C26 C25 1_555 1_555
C27 C26 1_555 1_555
H15 C27 1_555 1_555
C28 C23 1_555 1_555
H16 C28 1_555 1_555
O6 Ba5 1_555 1_555
O7 P3 1_555 1_555
O8 P3 1_555 1_555
O9 P3 1_555 1_555
P3 C26 1_555 1_555
O22 Ba5 1_555 1_555
Ba12 O15 1_555 1_555
Ba13 O8 1_555 1_555
Ba17 O7 1_555 1_555
O36 Ba5 1_555 1_555
C27 C28 1_555 1_555
O9 Ba17 1_555 1_555
O28 Ba12 1_555 1_555
C18_2 C15_2 1_555 1_555
C22_2 C18_2 1_555 1_555
H12_2 C22_2 1_555 1_555
Ba10 O16_2 1_555 1_555
C35_2 C36_2 1_555 1_555
C36_2 C21_2 1_555 1_555
C37_2 C36_2 1_555 1_555
C38_2 C37_2 1_555 1_555
C39_2 C38_2 1_555 1_555
C40_2 C35_2 1_555 1_555
H23_2 C40_2 1_555 1_555
O14_2 P5_2 1_555 1_555
O16_2 P5_2 1_555 1_555
P5_2 C39_2 1_555 1_555
C41_2 H24_2 1_555 1_555
C42_2 C41_2 1_555 1_555
C45_2 C44_2 1_555 1_555
H27_2 C45_2 1_555 1_555
C46_2 C41_2 1_555 1_555
O17_2 P6_2 1_555 1_555
O18_2 Ba10 1_555 1_555
O19_2 Ba10 1_555 1_555
P6_2 C46_2 1_555 1_555
Ba9 O17_2 1_555 1_555
O26_2 Ba10 1_555 1_555
Ba17 O17_2 1_555 1_555
C21_2 C22_2 1_555 1_555
C39_2 C40_2 1_555 1_555
C45_2 C46_2 1_555 1_555
O18_2 P6_2 1_555 1_555
O18_2 Ba9 1_555 1_555
O19_2 P6_2 1_555 1_555
O19_2 Ba17 1_555 1_555
Ba9 O26_2 1_555 1_555
O26_2 Ba17 1_555 1_555
C35_2 H28_2 1_555 1_555
C1_2 C2_2 1_555 1_555
C2_2 H1_2 1_555 1_555
C3_2 C2_2 1_555 1_555
C4_2 C3_2 1_555 1_555
H2_2 C4_2 1_555 1_555
C5_2 C4_2 1_555 1_555
N1_2 C1_2 1_555 1_555
C6_2 C8_2 1_555 1_555
C7_2 C5_2 1_555 1_555
C8_2 H3_2 1_555 1_555
C9_2 C6_2 1_555 1_555
H4_2 C9_2 1_555 1_555
C10_2 C7_2 1_555 1_555
H5_2 C10_2 1_555 1_555
C11_2 C7_2 1_555 1_555
H6_2 C11_2 1_555 1_555
H9_2 C16_2 1_555 1_555
C17_2 C12_2 1_555 1_555
H10_2 C17_2 1_555 1_555
O20 P1_2 1_555 1_555
O22 P1_2 1_555 1_555
O25 P1_2 1_555 1_555
O4_2 P2_2 1_555 1_555
O5_2 P2_2 1_555 1_555
O10_2 P4_2 1_555 1_555
O11_2 P4_2 1_555 1_555
O12_2 P4_2 1_555 1_555
O13_2 Ba14 1_555 1_555
P1_2 C6_2 1_555 1_555
P2_2 C12_2 1_555 1_555
P4_2 C31_2 1_555 1_555
C29_2 H17_2 1_555 1_555
C30_2 C1_2 1_555 1_555
C31_2 C29_2 1_555 1_555
C32_2 C29_2 1_555 1_555
H18_2 C32_2 1_555 1_555
C33_2 C30_2 1_555 1_555
H19_2 C33_2 1_555 1_555
C34_2 C31_2 1_555 1_555
H20_2 C34_2 1_555 1_555
Ba3_2 O4_2 1_555 1_555
Ba14 O4_2 1_555 1_555
C43_2 C3_2 1_555 1_555
Ba6 O13_2 1_555 1_555
Ba7_2 O20 1_555 1_555
O23_2 Ba14 1_555 1_555
O30_2 Ba14 1_555 1_555
Ba11_2 O25 1_555 1_555
Ba15_2 O22 1_555 1_555
O32_2 Ba3_2 1_555 1_555
O35_2 Ba14 1_555 1_555
O37_2 Ba14 1_555 1_555
C5_2 N1_2 1_555 1_555
C8_2 C11_2 1_555 1_555
C9_2 C10_2 1_555 1_555
C16_2 C17_2 1_555 1_555
O5_2 Ba14 1_555 1_555
O10_2 Ba3_2 1_555 1_555
C30_2 C32_2 1_555 1_555
C33_2 C34_2 1_555 1_555
Ba3_2 O29_2 1_555 1_555
Ba14 O27_2 1_555 1_555
Ba6 O35_2 1_555 1_555
O11_2 H29_2 1_555 1_555
C19_2 N2_2 1_555 1_555
C20_2 C19_2 1_555 1_555
H11_2 C20_2 1_555 1_555
C23_2 C19_2 1_555 1_555
C24_2 C23_2 1_555 1_555
C25_2 C24_2 1_555 1_555
H14_2 C25_2 1_555 1_555
C26_2 C25_2 1_555 1_555
C27_2 C26_2 1_555 1_555
H15_2 C27_2 1_555 1_555
C28_2 C23_2 1_555 1_555
H16_2 C28_2 1_555 1_555
O7_2 P3_2 1_555 1_555
O28 P3_2 1_555 1_555
O9_2 P3_2 1_555 1_555
P3_2 C26_2 1_555 1_555
Ba13 O15_2 1_555 1_555
Ba16 O7_2 1_555 1_555
C27_2 C28_2 1_555 1_555
O9_2 Ba16 1_555 1_555
C13_2 H7_2 1_555 1_555
C14_2 C13_2 1_555 1_555
O6_2 Ba6 1_555 1_555
O36_2 Ba6 1_555 1_555
Ba7 O13_3 1_555 1_555
Ba7 O25_2 1_555 1_555
Ba7 O35_3 1_555 1_555
Ba7 O4_3 1_555 1_555
C12_3 C13_3 1_555 1_555
C13_3 H7_3 1_555 1_555
C14_3 C13_3 1_555 1_555
H8_3 C14_3 1_555 1_555
C15_3 C14_3 1_555 1_555
C16_3 C15_3 1_555 1_555
H9_3 C16_3 1_555 1_555
C17_3 C12_3 1_555 1_555
H10_3 C17_3 1_555 1_555
C18_3 C15_3 1_555 1_555
N2_3 C18_3 1_555 1_555
C19_3 N2_3 1_555 1_555
C20_3 C19_3 1_555 1_555
H11_3 C20_3 1_555 1_555
C21_3 C20_3 1_555 1_555
C22_3 C18_3 1_555 1_555
H12_3 C22_3 1_555 1_555
C23_3 C19_3 1_555 1_555
C24_3 C23_3 1_555 1_555
H13_3 C24_3 1_555 1_555
C25_3 C24_3 1_555 1_555
H14_3 C25_3 1_555 1_555
C26_3 C25_3 1_555 1_555
C27_3 C26_3 1_555 1_555
H15_3 C27_3 1_555 1_555
C28_3 C23_3 1_555 1_555
H16_3 C28_3 1_555 1_555
O4_3 P2_3 1_555 1_555
O5_3 P2_3 1_555 1_555
O6_3 Ba7 1_555 1_555
O7_3 P3_3 1_555 1_555
O8_2 P3_3 1_555 1_555
O9_3 P3_3 1_555 1_555
O10_3 P4_3 1_555 1_555
O11_3 P4_3 1_555 1_555
O12_3 P4_3 1_555 1_555
P2_3 C12_3 1_555 1_555
P3_3 C26_3 1_555 1_555
P4_3 C31_3 1_555 1_555
C29_3 H17_3 1_555 1_555
C31_3 C29_3 1_555 1_555
C34_3 C31_3 1_555 1_555
H20_3 C34_3 1_555 1_555
Ba3_3 O4_3 1_555 1_555
Ba15 O4_3 1_555 1_555
C35_3 C36_3 1_555 1_555
C36_3 C21_3 1_555 1_555
C37_3 C36_3 1_555 1_555
H21_3 C37_3 1_555 1_555
Ba9_2 O7_3 1_555 1_555
O23_2 Ba7 1_555 1_555
O27_3 Ba7 1_555 1_555
O29_3 Ba7 1_555 1_555
O30_3 Ba15 1_555 1_555
Ba10_2 O8_2 1_555 1_555
Ba13_2 O8_2 1_555 1_555
Ba17_2 O7_3 1_555 1_555
O32_3 Ba3_3 1_555 1_555
O33_3 Ba3_3 1_555 1_555
O36_3 Ba7 1_555 1_555
C16_3 C17_3 1_555 1_555
C21_3 C22_3 1_555 1_555
C27_3 C28_3 1_555 1_555
O5_3 Ba15 1_555 1_555
O6_3 P2_3 1_555 1_555
O8_2 Ba9_2 1_555 1_555
O9_3 Ba17_2 1_555 1_555
O10_3 Ba3_3 1_555 1_555
Ba3_3 O29_3 1_555 1_555
Ba3_3 O36_3 1_555 1_555
Ba15 O27_3 1_555 1_555
C35_3 H28_3 1_555 1_555
O11_3 H29_3 1_555 1_555
C7_3 C5_3 1_555 1_555
C9_3 C6_3 1_555 1_555
H4_3 C9_3 1_555 1_555
C10_3 C7_3 1_555 1_555
H5_3 C10_3 1_555 1_555
O21 P1_3 1_555 1_555
O23 P1_3 1_555 1_555
O3_2 P1_3 1_555 1_555
P1_3 C6_3 1_555 1_555
Ba7_2 O23 1_555 1_555
Ba11_3 O3_2 1_555 1_555
C5_3 N1_3 1_555 1_555
C9_3 C10_3 1_555 1_555
O3_2 Ba7_2 1_555 1_555
C1_3 C2_3 1_555 1_555
C2_3 H1_3 1_555 1_555
C3_3 C2_3 1_555 1_555
C4_3 C3_3 1_555 1_555
H2_3 C4_3 1_555 1_555
C8_3 H3_3 1_555 1_555
H6_3 C11_3 1_555 1_555
C30_3 C1_3 1_555 1_555
H18_3 C32_3 1_555 1_555
C33_3 C30_3 1_555 1_555
H19_3 C33_3 1_555 1_555
Ba2_2 O16_3 1_555 1_555
H22_3 C38_3 1_555 1_555
C39_3 C38_3 1_555 1_555
H23_3 C40_3 1_555 1_555
O14_3 P5_3 1_555 1_555
O15_3 P5_3 1_555 1_555
O16_3 P5_3 1_555 1_555
P5_3 C39_3 1_555 1_555
C41_3 H24_3 1_555 1_555
C42_3 C41_3 1_555 1_555
H25_3 C42_3 1_555 1_555
C43_3 C3_3 1_555 1_555
C44_3 C43_3 1_555 1_555
C45_3 C44_3 1_555 1_555
H27_3 C45_3 1_555 1_555
C46_3 C41_3 1_555 1_555
O17_3 P6_3 1_555 1_555
O18_3 Ba2_2 1_555 1_555
O19_3 Ba2_2 1_555 1_555
P6_3 C46_3 1_555 1_555
Ba8_2 O17_3 1_555 1_555
O26_3 Ba2_2 1_555 1_555
O28_2 Ba2_2 1_555 1_555
Ba12_2 O15_3 1_555 1_555
C8_3 C11_3 1_555 1_555
C30_3 C32_3 1_555 1_555
C39_3 C40_3 1_555 1_555
O16_3 Ba12_2 1_555 1_555
C42_3 C43_3 1_555 1_555
C45_3 C46_3 1_555 1_555
O18_3 P6_3 1_555 1_555
O18_3 Ba8_2 1_555 1_555
O18_3 Ba12_2 1_555 1_555
O19_3 P6_3 1_555 1_555
Ba8_2 O26_3 1_555 1_555
Ba8_2 O28_2 1_555 1_555
O28_2 Ba12_2 1_555 1_555
C7_4 C5_4 1_555 1_555
C9_4 C6_4 1_555 1_555
H4_4 C9_4 1_555 1_555
C10_4 C7_4 1_555 1_555
H5_4 C10_4 1_555 1_555
O21_2 P1_4 1_555 1_555
O23_2 P1_4 1_555 1_555
O25_2 P1_4 1_555 1_555
P1_4 C6_4 1_555 1_555
Ba11_4 O25_2 1_555 1_555
C5_4 N1_4 1_555 1_555
C9_4 C10_4 1_555 1_555
Ba10_2 O16_4 1_555 1_555
H22_4 C38_4 1_555 1_555
C39_4 C38_4 1_555 1_555
H23_4 C40_4 1_555 1_555
O14_4 P5_4 1_555 1_555
O15_4 P5_4 1_555 1_555
O16_4 P5_4 1_555 1_555
P5_4 C39_4 1_555 1_555
C41_4 H24_4 1_555 1_555
C42_4 C41_4 1_555 1_555
C45_4 C44_4 1_555 1_555
H27_4 C45_4 1_555 1_555
C46_4 C41_4 1_555 1_555
O17_4 P6_4 1_555 1_555
O18_4 Ba10_2 1_555 1_555
O19_4 Ba10_2 1_555 1_555
P6_4 C46_4 1_555 1_555
Ba9_2 O17_4 1_555 1_555
O26_4 Ba10_2 1_555 1_555
Ba13_2 O15_4 1_555 1_555
C39_4 C40_4 1_555 1_555
O16_4 Ba13_2 1_555 1_555
C45_4 C46_4 1_555 1_555
O18_4 P6_4 1_555 1_555
O18_4 Ba9_2 1_555 1_555
O18_4 Ba13_2 1_555 1_555
O19_4 P6_4 1_555 1_555
Ba9_2 O26_4 1_555 1_555
C1_4 C2_4 1_555 1_555
C2_4 H1_4 1_555 1_555
C3_4 C2_4 1_555 1_555
C4_4 C3_4 1_555 1_555
H2_4 C4_4 1_555 1_555
C8_4 H3_4 1_555 1_555
H6_4 C11_4 1_555 1_555
C30_4 C1_4 1_555 1_555
H18_4 C32_4 1_555 1_555
C33_4 C30_4 1_555 1_555
H19_4 C33_4 1_555 1_555
C43_4 C3_4 1_555 1_555
C8_4 C11_4 1_555 1_555
C30_4 C32_4 1_555 1_555
Ba7_2 O13_4 1_555 1_555
Ba7_2 O35_4 1_555 1_555
C18_4 C15_4 1_555 1_555
N2_4 C18_4 1_555 1_555
C19_4 N2_4 1_555 1_555
C20_4 C19_4 1_555 1_555
H11_4 C20_4 1_555 1_555
C21_4 C20_4 1_555 1_555
C22_4 C18_4 1_555 1_555
H12_4 C22_4 1_555 1_555
C23_4 C19_4 1_555 1_555
C24_4 C23_4 1_555 1_555
H13_4 C24_4 1_555 1_555
C25_4 C24_4 1_555 1_555
H14_4 C25_4 1_555 1_555
C26_4 C25_4 1_555 1_555
C27_4 C26_4 1_555 1_555
H15_4 C27_4 1_555 1_555
C28_4 C23_4 1_555 1_555
H16_4 C28_4 1_555 1_555
O7_4 P3_4 1_555 1_555
O28_2 P3_4 1_555 1_555
O9_4 P3_4 1_555 1_555
P3_4 C26_4 1_555 1_555
C35_4 C36_4 1_555 1_555
C36_4 C21_4 1_555 1_555
C37_4 C36_4 1_555 1_555
H21_4 C37_4 1_555 1_555
Ba8_2 O7_4 1_555 1_555
Ba16_2 O7_4 1_555 1_555
C21_4 C22_4 1_555 1_555
C27_4 C28_4 1_555 1_555
O9_4 Ba16_2 1_555 1_555
C35_4 H28_4 1_555 1_555
Ba7_2 O4_4 1_555 1_555
C12_4 C13_4 1_555 1_555
C13_4 H7_4 1_555 1_555
C14_4 C13_4 1_555 1_555
H9_4 C16_4 1_555 1_555
C17_4 C12_4 1_555 1_555
H10_4 C17_4 1_555 1_555
O4_4 P2_4 1_555 1_555
O5_4 P2_4 1_555 1_555
O6_4 Ba7_2 1_555 1_555
O10_4 P4_4 1_555 1_555
O11_4 P4_4 1_555 1_555
O12_4 P4_4 1_555 1_555
P2_4 C12_4 1_555 1_555
P4_4 C31_4 1_555 1_555
C29_4 H17_4 1_555 1_555
C31_4 C29_4 1_555 1_555
C34_4 C31_4 1_555 1_555
H20_4 C34_4 1_555 1_555
Ba3_4 O4_4 1_555 1_555
Ba15_2 O4_4 1_555 1_555
O27_4 Ba7_2 1_555 1_555
O29_4 Ba7_2 1_555 1_555
O30_4 Ba15_2 1_555 1_555
O32_4 Ba3_4 1_555 1_555
O33_4 Ba3_4 1_555 1_555
O36_4 Ba7_2 1_555 1_555
C16_4 C17_4 1_555 1_555
O5_4 Ba15_2 1_555 1_555
O6_4 P2_4 1_555 1_555
O10_4 Ba3_4 1_555 1_555
Ba3_4 O29_4 1_555 1_555
Ba3_4 O36_4 1_555 1_555
Ba15_2 O27_4 1_555 1_555
O11_4 H29_4 1_555 1_555
C13_5 H7_5 1_555 1_555
C14_5 C13_5 1_555 1_555
H8_5 C14_5 1_555 1_555
C19_5 N2_5 1_555 1_555
C20_5 C19_5 1_555 1_555
H11_5 C20_5 1_555 1_555
C23_5 C19_5 1_555 1_555
C24_5 C23_5 1_555 1_555
C25_5 C24_5 1_555 1_555
H14_5 C25_5 1_555 1_555
C26_5 C25_5 1_555 1_555
C27_5 C26_5 1_555 1_555
H15_5 C27_5 1_555 1_555
C28_5 C23_5 1_555 1_555
H16_5 C28_5 1_555 1_555
O6_5 Ba8 1_555 1_555
O27_2 P3_5 1_555 1_555
O29_2 P3_5 1_555 1_555
O30_2 P3_5 1_555 1_555
P3_5 C26_5 1_555 1_555
O22_2 Ba8 1_555 1_555
O31 Ba8 1_555 1_555
C27_5 C28_5 1_555 1_555
C1_5 C2_5 1_555 1_555
C2_5 H1_5 1_555 1_555
C3_5 C2_5 1_555 1_555
C4_5 C3_5 1_555 1_555
H2_5 C4_5 1_555 1_555
C5_5 C4_5 1_555 1_555
N1_5 C1_5 1_555 1_555
C6_5 C8_5 1_555 1_555
C7_5 C5_5 1_555 1_555
C8_5 H3_5 1_555 1_555
C9_5 C6_5 1_555 1_555
H4_5 C9_5 1_555 1_555
C10_5 C7_5 1_555 1_555
H5_5 C10_5 1_555 1_555
C11_5 C7_5 1_555 1_555
H6_5 C11_5 1_555 1_555
C16_5 C15_5 1_555 1_555
H9_5 C16_5 1_555 1_555
C17_5 C12_5 1_555 1_555
H10_5 C17_5 1_555 1_555
C18_5 C15_5 1_555 1_555
C22_5 C18_5 1_555 1_555
H12_5 C22_5 1_555 1_555
O1_2 P1_5 1_555 1_555
O2_2 P1_5 1_555 1_555
O26_2 P1_5 1_555 1_555
O4_5 P2_5 1_555 1_555
O5_5 P2_5 1_555 1_555
O10_5 P4_5 1_555 1_555
O11_5 P4_5 1_555 1_555
O12_5 P4_5 1_555 1_555
O31 Ba16 1_555 1_555
P1_5 C6_5 1_555 1_555
P2_5 C12_5 1_555 1_555
P4_5 C31_5 1_555 1_555
C29_5 H17_5 1_555 1_555
C30_5 C1_5 1_555 1_555
C31_5 C29_5 1_555 1_555
C32_5 C29_5 1_555 1_555
H18_5 C32_5 1_555 1_555
C33_5 C30_5 1_555 1_555
H19_5 C33_5 1_555 1_555
C34_5 C31_5 1_555 1_555
H20_5 C34_5 1_555 1_555
Ba11_2 O33 1_555 1_555
Ba12 O4_5 1_555 1_555
Ba16 O4_5 1_555 1_555
C35_5 C36_5 1_555 1_555
C36_5 C21_5 1_555 1_555
C37_5 C36_5 1_555 1_555
C38_5 C37_5 1_555 1_555
C39_5 C38_5 1_555 1_555
C40_5 C35_5 1_555 1_555
H23_5 C40_5 1_555 1_555
O14_5 P5_5 1_555 1_555
O33 P5_5 1_555 1_555
P5_5 C39_5 1_555 1_555
C41_5 H24_5 1_555 1_555
C42_5 C41_5 1_555 1_555
H25_5 C42_5 1_555 1_555
C43_5 C3_5 1_555 1_555
C44_5 C43_5 1_555 1_555
H26_5 C44_5 1_555 1_555
C45_5 C44_5 1_555 1_555
H27_5 C45_5 1_555 1_555
C46_5 C41_5 1_555 1_555
O35 P6_5 1_555 1_555
O36 Ba11_2 1_555 1_555
O37 Ba11_2 1_555 1_555
P6_5 C46_5 1_555 1_555
Ba9 O2_2 1_555 1_555
Ba8_2 O1_2 1_555 1_555
O20_2 Ba16 1_555 1_555
O23_3 Ba16 1_555 1_555
Ba17 O1_2 1_555 1_555
Ba16_2 O2_2 1_555 1_555
C5_5 N1_5 1_555 1_555
C8_5 C11_5 1_555 1_555
C9_5 C10_5 1_555 1_555
C16_5 C17_5 1_555 1_555
C21_5 C22_5 1_555 1_555
O5_5 Ba16 1_555 1_555
O10_5 Ba12 1_555 1_555
C30_5 C32_5 1_555 1_555
C33_5 C34_5 1_555 1_555
C39_5 C40_5 1_555 1_555
C42_5 C43_5 1_555 1_555
C45_5 C46_5 1_555 1_555
O36 P6_5 1_555 1_555
O37 P6_5 1_555 1_555
C35_5 H28_5 1_555 1_555
O11_5 H29_5 1_555 1_555
C13_6 H7_6 1_555 1_555
C14_6 C13_6 1_555 1_555
O6_6 Ba9 1_555 1_555
O31_2 Ba9 1_555 1_555
C19_6 N2_6 1_555 1_555
C20_6 C19_6 1_555 1_555
H11_6 C20_6 1_555 1_555
C23_6 C19_6 1_555 1_555
C24_6 C23_6 1_555 1_555
C25_6 C24_6 1_555 1_555
H14_6 C25_6 1_555 1_555
C26_6 C25_6 1_555 1_555
C27_6 C26_6 1_555 1_555
H15_6 C27_6 1_555 1_555
C28_6 C23_6 1_555 1_555
H16_6 C28_6 1_555 1_555
O27 P3_6 1_555 1_555
O29 P3_6 1_555 1_555
O30 P3_6 1_555 1_555
P3_6 C26_6 1_555 1_555
C27_6 C28_6 1_555 1_555
C1_6 C2_6 1_555 1_555
C2_6 H1_6 1_555 1_555
C3_6 C2_6 1_555 1_555
C4_6 C3_6 1_555 1_555
H2_6 C4_6 1_555 1_555
C5_6 C4_6 1_555 1_555
N1_6 C1_6 1_555 1_555
C6_6 C8_6 1_555 1_555
C7_6 C5_6 1_555 1_555
C8_6 H3_6 1_555 1_555
C9_6 C6_6 1_555 1_555
H4_6 C9_6 1_555 1_555
C10_6 C7_6 1_555 1_555
H5_6 C10_6 1_555 1_555
C11_6 C7_6 1_555 1_555
H6_6 C11_6 1_555 1_555
H9_6 C16_6 1_555 1_555
C17_6 C12_6 1_555 1_555
H10_6 C17_6 1_555 1_555
O20_2 P1_6 1_555 1_555
O22_2 P1_6 1_555 1_555
O26 P1_6 1_555 1_555
O4_6 P2_6 1_555 1_555
O5_6 P2_6 1_555 1_555
O10_6 P4_6 1_555 1_555
O11_6 P4_6 1_555 1_555
O12_6 P4_6 1_555 1_555
O31_2 Ba17 1_555 1_555
P1_6 C6_6 1_555 1_555
P2_6 C12_6 1_555 1_555
P4_6 C31_6 1_555 1_555
C29_6 H17_6 1_555 1_555
C30_6 C1_6 1_555 1_555
C31_6 C29_6 1_555 1_555
C32_6 C29_6 1_555 1_555
H18_6 C32_6 1_555 1_555
C33_6 C30_6 1_555 1_555
H19_6 C33_6 1_555 1_555
C34_6 C31_6 1_555 1_555
H20_6 C34_6 1_555 1_555
Ba13 O4_6 1_555 1_555
Ba17 O4_6 1_555 1_555
C43_6 C3_6 1_555 1_555
Ba9_2 O20_2 1_555 1_555
O23_4 Ba17 1_555 1_555
Ba17_2 O22_2 1_555 1_555
C5_6 N1_6 1_555 1_555
C8_6 C11_6 1_555 1_555
C9_6 C10_6 1_555 1_555
C16_6 C17_6 1_555 1_555
O5_6 Ba17 1_555 1_555
O10_6 Ba13 1_555 1_555
C30_6 C32_6 1_555 1_555
C33_6 C34_6 1_555 1_555
O11_6 H29_6 1_555 1_555
C18_6 C15_6 1_555 1_555
C22_6 C18_6 1_555 1_555
H12_6 C22_6 1_555 1_555
Ba11 O33_2 1_555 1_555
C35_6 C36_6 1_555 1_555
C36_6 C21_6 1_555 1_555
C37_6 C36_6 1_555 1_555
C38_6 C37_6 1_555 1_555
C39_6 C38_6 1_555 1_555
C40_6 C35_6 1_555 1_555
H23_6 C40_6 1_555 1_555
O14_6 P5_6 1_555 1_555
O33_2 P5_6 1_555 1_555
P5_6 C39_6 1_555 1_555
C41_6 H24_6 1_555 1_555
C42_6 C41_6 1_555 1_555
C45_6 C44_6 1_555 1_555
H27_6 C45_6 1_555 1_555
C46_6 C41_6 1_555 1_555
O35_2 P6_6 1_555 1_555
O36_2 Ba11 1_555 1_555
O37_2 Ba11 1_555 1_555
P6_6 C46_6 1_555 1_555
C21_6 C22_6 1_555 1_555
C39_6 C40_6 1_555 1_555
C45_6 C46_6 1_555 1_555
O36_2 P6_6 1_555 1_555
O37_2 P6_6 1_555 1_555
C35_6 H28_6 1_555 1_555
C1_7 C2_7 1_555 1_555
C2_7 H1_7 1_555 1_555
C3_7 C2_7 1_555 1_555
C4_7 C3_7 1_555 1_555
H2_7 C4_7 1_555 1_555
C8_7 H3_7 1_555 1_555
H6_7 C11_7 1_555 1_555
C30_7 C1_7 1_555 1_555
H18_7 C32_7 1_555 1_555
C33_7 C30_7 1_555 1_555
H19_7 C33_7 1_555 1_555
Ba11_4 O33_3 1_555 1_555
H22_7 C38_7 1_555 1_555
C39_7 C38_7 1_555 1_555
H23_7 C40_7 1_555 1_555
O14_7 P5_7 1_555 1_555
O32_3 P5_7 1_555 1_555
O33_3 P5_7 1_555 1_555
P5_7 C39_7 1_555 1_555
C41_7 H24_7 1_555 1_555
C42_7 C41_7 1_555 1_555
H25_7 C42_7 1_555 1_555
C43_7 C3_7 1_555 1_555
C44_7 C43_7 1_555 1_555
C45_7 C44_7 1_555 1_555
H27_7 C45_7 1_555 1_555
C46_7 C41_7 1_555 1_555
O35_3 P6_7 1_555 1_555
O36_3 Ba11_4 1_555 1_555
O37_3 Ba11_4 1_555 1_555
P6_7 C46_7 1_555 1_555
O29_3 Ba11_4 1_555 1_555
C8_7 C11_7 1_555 1_555
C30_7 C32_7 1_555 1_555
C39_7 C40_7 1_555 1_555
C42_7 C43_7 1_555 1_555
C45_7 C46_7 1_555 1_555
O36_3 P6_7 1_555 1_555
O37_3 P6_7 1_555 1_555
C7_7 C5_7 1_555 1_555
C9_7 C6_7 1_555 1_555
H4_7 C9_7 1_555 1_555
C10_7 C7_7 1_555 1_555
H5_7 C10_7 1_555 1_555
O21_3 P1_7 1_555 1_555
O23_3 P1_7 1_555 1_555
O26_4 P1_7 1_555 1_555
P1_7 C6_7 1_555 1_555
Ba9_2 O23_3 1_555 1_555
C5_7 N1_7 1_555 1_555
C9_7 C10_7 1_555 1_555
Ba8_2 O4_7 1_555 1_555
C12_7 C13_7 1_555 1_555
C13_7 H7_7 1_555 1_555
C14_7 C13_7 1_555 1_555
H8_7 C14_7 1_555 1_555
C15_7 C14_7 1_555 1_555
C16_7 C15_7 1_555 1_555
H9_7 C16_7 1_555 1_555
C17_7 C12_7 1_555 1_555
H10_7 C17_7 1_555 1_555
C18_7 C15_7 1_555 1_555
N2_7 C18_7 1_555 1_555
C19_7 N2_7 1_555 1_555
C20_7 C19_7 1_555 1_555
H11_7 C20_7 1_555 1_555
C21_7 C20_7 1_555 1_555
C22_7 C18_7 1_555 1_555
H12_7 C22_7 1_555 1_555
C23_7 C19_7 1_555 1_555
C24_7 C23_7 1_555 1_555
H13_7 C24_7 1_555 1_555
C25_7 C24_7 1_555 1_555
H14_7 C25_7 1_555 1_555
C26_7 C25_7 1_555 1_555
C27_7 C26_7 1_555 1_555
H15_7 C27_7 1_555 1_555
C28_7 C23_7 1_555 1_555
H16_7 C28_7 1_555 1_555
O4_7 P2_7 1_555 1_555
O5_7 P2_7 1_555 1_555
O6_7 Ba8_2 1_555 1_555
O27_4 P3_7 1_555 1_555
O29_4 P3_7 1_555 1_555
O30_4 P3_7 1_555 1_555
O10_7 P4_7 1_555 1_555
O11_7 P4_7 1_555 1_555
O12_7 P4_7 1_555 1_555
P2_7 C12_7 1_555 1_555
P3_7 C26_7 1_555 1_555
P4_7 C31_7 1_555 1_555
C29_7 H17_7 1_555 1_555
C31_7 C29_7 1_555 1_555
C34_7 C31_7 1_555 1_555
H20_7 C34_7 1_555 1_555
Ba12_2 O4_7 1_555 1_555
Ba16_2 O4_7 1_555 1_555
C35_7 C36_7 1_555 1_555
C36_7 C21_7 1_555 1_555
C37_7 C36_7 1_555 1_555
H21_7 C37_7 1_555 1_555
O23_4 Ba8_2 1_555 1_555
O31_3 Ba8_2 1_555 1_555
Ba11_3 O29_4 1_555 1_555
C16_7 C17_7 1_555 1_555
C21_7 C22_7 1_555 1_555
C27_7 C28_7 1_555 1_555
O5_7 Ba16_2 1_555 1_555
O6_7 P2_7 1_555 1_555
O10_7 Ba12_2 1_555 1_555
C35_7 H28_7 1_555 1_555
O11_7 H29_7 1_555 1_555
Ba9_2 O4_8 1_555 1_555
C12_8 C13_8 1_555 1_555
C13_8 H7_8 1_555 1_555
C14_8 C13_8 1_555 1_555
H9_8 C16_8 1_555 1_555
C17_8 C12_8 1_555 1_555
H10_8 C17_8 1_555 1_555
O4_8 P2_8 1_555 1_555
O5_8 P2_8 1_555 1_555
O6_8 Ba9_2 1_555 1_555
O10_8 P4_8 1_555 1_555
O11_8 P4_8 1_555 1_555
O12_8 P4_8 1_555 1_555
P2_8 C12_8 1_555 1_555
P4_8 C31_8 1_555 1_555
C29_8 H17_8 1_555 1_555
C31_8 C29_8 1_555 1_555
C34_8 C31_8 1_555 1_555
H20_8 C34_8 1_555 1_555
Ba13_2 O4_8 1_555 1_555
Ba17_2 O4_8 1_555 1_555
O31_4 Ba9_2 1_555 1_555
C16_8 C17_8 1_555 1_555
O5_8 Ba17_2 1_555 1_555
O6_8 P2_8 1_555 1_555
O10_8 Ba13_2 1_555 1_555
O11_8 H29_8 1_555 1_555
C18_8 C15_8 1_555 1_555
N2_8 C18_8 1_555 1_555
C19_8 N2_8 1_555 1_555
C20_8 C19_8 1_555 1_555
H11_8 C20_8 1_555 1_555
C21_8 C20_8 1_555 1_555
C22_8 C18_8 1_555 1_555
H12_8 C22_8 1_555 1_555
C23_8 C19_8 1_555 1_555
C24_8 C23_8 1_555 1_555
H13_8 C24_8 1_555 1_555
C25_8 C24_8 1_555 1_555
H14_8 C25_8 1_555 1_555
C26_8 C25_8 1_555 1_555
C27_8 C26_8 1_555 1_555
H15_8 C27_8 1_555 1_555
C28_8 C23_8 1_555 1_555
H16_8 C28_8 1_555 1_555
O27_3 P3_8 1_555 1_555
O29_3 P3_8 1_555 1_555
O30_3 P3_8 1_555 1_555
P3_8 C26_8 1_555 1_555
C35_8 C36_8 1_555 1_555
C36_8 C21_8 1_555 1_555
C37_8 C36_8 1_555 1_555
H21_8 C37_8 1_555 1_555
C21_8 C22_8 1_555 1_555
C27_8 C28_8 1_555 1_555
C35_8 H28_8 1_555 1_555
C1_8 C2_8 1_555 1_555
C2_8 H1_8 1_555 1_555
C3_8 C2_8 1_555 1_555
C4_8 C3_8 1_555 1_555
H2_8 C4_8 1_555 1_555
C8_8 H3_8 1_555 1_555
H6_8 C11_8 1_555 1_555
C30_8 C1_8 1_555 1_555
H18_8 C32_8 1_555 1_555
C33_8 C30_8 1_555 1_555
H19_8 C33_8 1_555 1_555
C43_8 C3_8 1_555 1_555
C8_8 C11_8 1_555 1_555
C30_8 C32_8 1_555 1_555
Ba11_3 O33_4 1_555 1_555
H22_8 C38_8 1_555 1_555
C39_8 C38_8 1_555 1_555
H23_8 C40_8 1_555 1_555
O14_8 P5_8 1_555 1_555
O32_4 P5_8 1_555 1_555
O33_4 P5_8 1_555 1_555
P5_8 C39_8 1_555 1_555
C41_8 H24_8 1_555 1_555
C42_8 C41_8 1_555 1_555
C45_8 C44_8 1_555 1_555
H27_8 C45_8 1_555 1_555
C46_8 C41_8 1_555 1_555
O35_4 P6_8 1_555 1_555
O36_4 Ba11_3 1_555 1_555
O37_4 Ba11_3 1_555 1_555
P6_8 C46_8 1_555 1_555
C39_8 C40_8 1_555 1_555
C45_8 C46_8 1_555 1_555
O36_4 P6_8 1_555 1_555
O37_4 P6_8 1_555 1_555
C7_8 C5_8 1_555 1_555
C9_8 C6_8 1_555 1_555
H4_8 C9_8 1_555 1_555
C10_8 C7_8 1_555 1_555
H5_8 C10_8 1_555 1_555
O21_4 P1_8 1_555 1_555
O23_4 P1_8 1_555 1_555
O26_3 P1_8 1_555 1_555
P1_8 C6_8 1_555 1_555
C5_8 N1_8 1_555 1_555
C9_8 C10_8 1_555 1_555

#END
