
###############################################################################
#
# This file contains modified crystal structure data generated from the
# MOF subset of the Cambridge Structural Database (CSD) v543 
# hosted by the Cambridge Crystallographic Data Centre (CCDC).
#
# This work is licensed under the Creative Commons
# Attribution-NonCommercial-ShareAlike 4.0 International License.
# To view a copy of this license, visit
# http://creativecommons.org/licenses/by-nc-sa/4.0/
# or send a letter to
# Creative Commons, PO Box 1866, Mountain View, CA 94042, USA.
#
# CIF created using the CSD Python API on 29 September 2022
# The structure has been converted into the P1 space group
# The structure has a 3D framework
# The original CSD entry IYASOS is in the monoclinic crystal system
# The framework has been calculated to contain at least 10.0% void space
# The void calculation uses a probe of radius 1.32A, grid spacing 0.4
#
###############################################################################

data_IYASOS
_chemical_formula_moiety         '(C60 H60 Cd11 N16 O32)n'
_symmetry_cell_setting           triclinic
_symmetry_space_group_name_H-M   'P 1'
_symmetry_Int_Tables_number      1
_space_group_name_Hall           'P 1'
loop_
_symmetry_equiv_pos_site_id
_symmetry_equiv_pos_as_xyz
1 x,y,z
_cell_length_a                   10.4993(3)
_cell_length_b                   16.9416(5)
_cell_length_c                   12.3346(4)
_cell_angle_alpha                90
_cell_angle_beta                 100.516(3)
_cell_angle_gamma                90
_cell_volume                     2157.17
loop_
_atom_site_label
_atom_site_type_symbol
_atom_site_fract_x
_atom_site_fract_y
_atom_site_fract_z
Cd2 Cd 0.0000 0.0000 0.0000
C1 C 0.2129(4) 0.1619(3) 0.2500(4)
C2 C 0.2224(4) 0.2256(3) 0.3212(4)
H1 H 0.1493 0.2427 0.3472
C3 C 0.3391(4) 0.2642(3) 0.3543(4)
C4 C 0.4468(4) 0.2389(3) 0.3129(4)
H2 H 0.5245 0.2663 0.3314
C5 C 0.4402(4) 0.1736(3) 0.2443(4)
C6 C 0.3239(4) 0.1344(3) 0.2141(4)
H3 H 0.3192 0.0898 0.1697
C7 C 0.0840(5) 0.1223(3) 0.2089(4)
C8 C 0.3511(4) 0.3317(3) 0.4359(4)
C9 C 0.5608(5) 0.1462(3) 0.2067(4)
O1 O 0.0845(3) 0.0561(2) 0.1644(3)
O3 O 0.2672(3) 0.3369(2) 0.4938(3)
O4 O 0.4467(3) 0.3772(2) 0.4386(3)
O5 O 0.6612(3) 0.1873(2) 0.2305(3)
O6 O 0.5577(3) 0.0838(2) 0.1519(3)
H22 H 0.3654 0.2244 0.0085
Cd4 Cd 0.79437(3) 0.104470(19) 0.16037(3)
Cd7 Cd 0.29437(3) 0.395530(19) 0.66037(3)
Cd9 Cd 0.5000 0.5000 0.5000
Cd2_2 Cd -0.0000 -0.0000 1.0000
C25 C 0.2594(4) 0.0739(3) 0.9237(4)
C26 C 0.4282(6) 0.1528(3) 0.8935(6)
H19 H 0.5131 0.1574 0.9398
H20 H 0.4343 0.1672 0.8185
C27 C 0.3301(5) 0.2029(3) 0.9364(5)
H21 H 0.3001 0.2459 0.8862
C28 C 0.1210(8) 0.0284(6) 0.6468(7)
C29 C 0.0591(18) 0.1404(9) 0.5432(12)
H23 H 0.0214 0.1383 0.4653
H24 H 0.0987 0.1918 0.5601
N5 N 0.3757(4) 0.0729(3) 0.8984(4)
H27 H 0.4160 0.0305 0.8863
N6 N 0.2257(4) 0.1465(2) 0.9423(4)
H28 H 0.1511 0.1594 0.9564
N7 N 0.1486(11) 0.0799(6) 0.5723(9)
H29 H 0.2174 0.0759 0.5441
N8 N 0.0254(17) 0.0518(10) 0.6742(11)
O15 O 0.1905(3) 0.01322(18) 0.9310(3)
Cd2_3 Cd 0.0000 1.0000 0.0000
C15 C 0.019(3) 0.8728(15) 0.4015(16)
H10 H 0.0284 0.8275 0.3555
H11 H 0.1027 0.8830 0.4481
H15 H 0.0122 0.9677 0.2754
O17 O 0.2328(3) 0.8369(2) 0.0062(3)
O19 O 0.0533(3) 0.8772(2) 0.0614(3)
Cd2_4 Cd -0.0000 1.0000 1.0000
Cd3 Cd 0.20563(3) 0.895530(19) 0.83963(3)
O10 O 0.0149(3) 0.8413(2) 0.7764(3)
O16 O 0.1871(5) 0.9726(3) 0.6840(4)
O22 O 0.3388(3) 0.8127(2) 0.7695(3)
O24 O 0.4423(3) 0.9162(2) 0.8481(3)
Cd2_5 Cd 1.0000 0.0000 0.0000
O2 O 0.9851(3) 0.1587(2) 0.2236(3)
O8 O 0.8129(5) 0.0274(3) 0.3160(4)
Cd2_6 Cd 1.0000 -0.0000 1.0000
C30 C 0.981(3) 0.1272(15) 0.5985(16)
H25 H 0.9716 0.1725 0.6445
H26 H 0.8973 0.1170 0.5519
H30 H 0.9878 0.0323 0.7246
O18 O 0.7672(3) 0.1631(2) 0.9938(3)
O20 O 0.9467(3) 0.1228(2) 0.9386(3)
Cd2_7 Cd 1.0000 1.0000 0.0000
C10 C 0.7406(4) 0.9261(3) 0.0763(4)
C11 C 0.5718(6) 0.8472(3) 0.1065(6)
H4 H 0.4869 0.8426 0.0602
H5 H 0.5657 0.8328 0.1815
C12 C 0.6699(5) 0.7971(3) 0.0636(5)
H6 H 0.6999 0.7541 0.1138
C13 C 0.8790(8) 0.9716(6) 0.3532(7)
C14 C 0.9409(18) 0.8596(9) 0.4568(12)
H8 H 0.9786 0.8617 0.5347
H9 H 0.9013 0.8082 0.4399
N1 N 0.6243(4) 0.9271(3) 0.1016(4)
H12 H 0.5840 0.9695 0.1137
N2 N 0.7743(4) 0.8535(2) 0.0577(4)
H13 H 0.8489 0.8406 0.0436
N3 N 0.8514(11) 0.9201(6) 0.4277(9)
H14 H 0.7826 0.9241 0.4559
N4 N 0.9746(17) 0.9482(10) 0.3258(11)
O7 O 0.8095(3) 0.98678(18) 0.0690(3)
Cd2_8 Cd 1.0000 1.0000 1.0000
H7 H 0.6346 0.7756 0.9915
C16 C 0.7871(4) 0.8381(3) 0.7500(4)
C17 C 0.7776(4) 0.7744(3) 0.6788(4)
H16 H 0.8507 0.7573 0.6528
C18 C 0.6609(4) 0.7358(3) 0.6457(4)
C19 C 0.5532(4) 0.7611(3) 0.6871(4)
H17 H 0.4755 0.7337 0.6686
C20 C 0.5598(4) 0.8264(3) 0.7557(4)
C21 C 0.6761(4) 0.8656(3) 0.7859(4)
H18 H 0.6808 0.9102 0.8303
C22 C 0.9160(5) 0.8777(3) 0.7911(4)
C23 C 0.6489(4) 0.6683(3) 0.5641(4)
C24 C 0.4392(5) 0.8538(3) 0.7933(4)
O9 O 0.9155(3) 0.9439(2) 0.8356(3)
O11 O 0.7328(3) 0.6631(2) 0.5062(3)
O12 O 0.5533(3) 0.6228(2) 0.5614(3)
Cd5 Cd 0.70563(3) 0.604470(19) 0.33963(3)
H4_2 H 0.0131 0.3426 0.4398
H17_2 H 0.0245 0.2337 0.8314
C24_2 C 0.0608(5) 0.3538(3) 0.7067(4)
O13 O 0.1612(3) 0.3127(2) 0.7305(3)
O14 O 0.0577(3) 0.4162(2) 0.6519(3)
H23_2 H 0.4786 0.6383 0.0347
C1_2 C 0.2871(4) 0.6619(3) 0.2500(4)
C2_2 C 0.2776(4) 0.7256(3) 0.1788(4)
H1_2 H 0.3507 0.7427 0.1528
C3_2 C 0.1609(4) 0.7642(3) 0.1457(4)
C4_2 C 0.0532(4) 0.7389(3) 0.1871(4)
C5_2 C 0.0598(4) 0.6736(3) 0.2557(4)
C6_2 C 0.1761(4) 0.6344(3) 0.2859(4)
H3_2 H 0.1808 0.5898 0.3303
C7_2 C 0.4160(5) 0.6223(3) 0.2911(4)
C8_2 C 0.1489(4) 0.8317(3) 0.0641(4)
C10_2 C 0.7594(4) 0.4261(3) 0.4237(4)
C11_2 C 0.9282(6) 0.3472(3) 0.3935(6)
H5_2 H 0.9343 0.3328 0.3185
C12_2 C 0.8301(5) 0.2971(3) 0.4364(5)
H6_2 H 0.8001 0.2541 0.3862
H7_2 H 0.8654 0.2756 0.5085
C13_2 C 0.6210(8) 0.4716(6) 0.1468(7)
C14_2 C 0.5591(18) 0.3596(9) 0.0432(12)
H9_2 H 0.5987 0.3082 0.0601
C15_2 C 0.481(3) 0.3728(15) 0.0985(16)
H10_2 H 0.4716 0.3275 0.1445
H11_2 H 0.3973 0.3830 0.0519
N1_2 N 0.8757(4) 0.4271(3) 0.3984(4)
H12_2 H 0.9160 0.4695 0.3863
N2_2 N 0.7257(4) 0.3535(2) 0.4423(4)
H13_2 H 0.6511 0.3406 0.4564
N3_2 N 0.6486(11) 0.4201(6) 0.0723(9)
H14_2 H 0.7174 0.4241 0.0441
N4_2 N 0.5254(17) 0.4482(10) 0.1742(11)
H15_2 H 0.4878 0.4677 0.2246
O1_2 O 0.4155(3) 0.5561(2) 0.3356(3)
O2_2 O 0.5149(3) 0.6587(2) 0.2764(3)
O7_2 O 0.6905(3) 0.48678(18) 0.4310(3)
O8_2 O 0.6871(5) 0.5274(3) 0.1840(4)
C16_2 C 0.7129(4) 0.3381(3) 0.7500(4)
C17_2 C 0.7224(4) 0.2744(3) 0.8212(4)
H16_2 H 0.6493 0.2573 0.8472
C18_2 C 0.8391(4) 0.2358(3) 0.8543(4)
C19_2 C 0.9468(4) 0.2611(3) 0.8129(4)
C20_2 C 0.9402(4) 0.3264(3) 0.7443(4)
C21_2 C 0.8239(4) 0.3656(3) 0.7141(4)
H18_2 H 0.8192 0.4102 0.6697
C22_2 C 0.5840(5) 0.3777(3) 0.7089(4)
C23_2 C 0.8511(4) 0.1683(3) 0.9359(4)
C25_2 C 0.2406(4) 0.5739(3) 0.5763(4)
C26_2 C 0.0718(6) 0.6528(3) 0.6065(6)
H20_2 H 0.0657 0.6672 0.6815
C27_2 C 0.1699(5) 0.7029(3) 0.5636(5)
H21_2 H 0.1999 0.7459 0.6138
H22_2 H 0.1346 0.7244 0.4915
C28_2 C 0.3790(8) 0.5284(6) 0.8532(7)
C29_2 C 0.4409(18) 0.6404(9) 0.9568(12)
H24_2 H 0.4013 0.6918 0.9399
C30_2 C 0.519(3) 0.6272(15) 0.9015(16)
H25_2 H 0.5284 0.6725 0.8555
H26_2 H 0.6027 0.6170 0.9481
N5_2 N 0.1243(4) 0.5729(3) 0.6016(4)
H27_2 H 0.0840 0.5305 0.6137
N6_2 N 0.2743(4) 0.6465(2) 0.5577(4)
H28_2 H 0.3489 0.6594 0.5436
N7_2 N 0.3514(11) 0.5799(6) 0.9277(9)
H29_2 H 0.2826 0.5759 0.9559
N8_2 N 0.4746(17) 0.5518(10) 0.8258(11)
H30_2 H 0.5122 0.5323 0.7754
O9_2 O 0.5845(3) 0.4439(2) 0.6644(3)
O10_2 O 0.4851(3) 0.3413(2) 0.7236(3)
O15_2 O 0.3095(3) 0.51322(18) 0.5690(3)
O16_2 O 0.3129(5) 0.4726(3) 0.8160(4)
O21 O 0.8388(3) 0.6873(2) 0.2695(3)
O23 O 0.9423(3) 0.5838(2) 0.3481(3)
H8_2 H 0.5214 0.3617 0.9653
H2_2 H 0.9755 0.7663 0.1686
C9_2 C 0.9392(5) 0.6462(3) 0.2933(4)
H19_2 H 0.9869 0.6574 0.5602
loop_
_geom_bond_atom_site_label_1
_geom_bond_atom_site_label_2
_geom_bond_site_symmetry_1
_geom_bond_site_symmetry_2
Cd2 O1 1_555 1_555
C1 C2 1_555 1_555
C2 H1 1_555 1_555
C3 C2 1_555 1_555
C4 C3 1_555 1_555
H2 C4 1_555 1_555
C5 C4 1_555 1_555
C6 C1 1_555 1_555
H3 C6 1_555 1_555
C7 C1 1_555 1_555
C8 C3 1_555 1_555
C9 C5 1_555 1_555
O1 C7 1_555 1_555
O3 C8 1_555 1_555
O4 C8 1_555 1_555
O5 C9 1_555 1_555
O6 C9 1_555 1_555
Cd4 O5 1_555 1_555
Cd7 O3 1_555 1_555
Cd9 O4 1_555 1_555
C5 C6 1_555 1_555
O6 Cd4 1_555 1_555
C25 N5 1_555 1_555
C26 H19 1_555 1_555
H20 C26 1_555 1_555
C27 C26 1_555 1_555
H21 C27 1_555 1_555
C28 N7 1_555 1_555
C29 H23 1_555 1_555
H24 C29 1_555 1_555
N5 C26 1_555 1_555
H27 N5 1_555 1_555
N6 C25 1_555 1_555
H28 N6 1_555 1_555
N7 C29 1_555 1_555
H29 N7 1_555 1_555
N8 C28 1_555 1_555
O15 Cd2_2 1_555 1_555
C25 O15 1_555 1_555
C27 N6 1_555 1_555
H10 C15 1_555 1_555
H11 C15 1_555 1_555
O19 Cd2_3 1_555 1_555
Cd3 O10 1_555 1_555
O16 Cd3 1_555 1_555
O22 Cd3 1_555 1_555
O24 Cd3 1_555 1_555
Cd4 O2 1_555 1_555
O8 Cd4 1_555 1_555
H25 C30 1_555 1_555
H26 C30 1_555 1_555
O20 Cd2_6 1_555 1_555
C10 N1 1_555 1_555
C11 H4 1_555 1_555
H5 C11 1_555 1_555
C12 C11 1_555 1_555
H6 C12 1_555 1_555
C13 N3 1_555 1_555
C14 H8 1_555 1_555
H9 C14 1_555 1_555
N1 C11 1_555 1_555
H12 N1 1_555 1_555
N2 C10 1_555 1_555
H13 N2 1_555 1_555
N3 C14 1_555 1_555
H14 N3 1_555 1_555
N4 C13 1_555 1_555
Cd2_7 O7 1_555 1_555
C10 O7 1_555 1_555
C12 N2 1_555 1_555
C16 C17 1_555 1_555
C17 H16 1_555 1_555
C18 C17 1_555 1_555
C19 C18 1_555 1_555
H17 C19 1_555 1_555
C20 C19 1_555 1_555
C21 C16 1_555 1_555
H18 C21 1_555 1_555
C22 C16 1_555 1_555
C23 C18 1_555 1_555
C24 C20 1_555 1_555
O9 Cd2_8 1_555 1_555
O11 C23 1_555 1_555
O12 C23 1_555 1_555
O22 C24 1_555 1_555
O24 C24 1_555 1_555
Cd5 O11 1_555 1_555
Cd9 O12 1_555 1_555
C20 C21 1_555 1_555
C22 O9 1_555 1_555
O13 C24_2 1_555 1_555
O14 C24_2 1_555 1_555
Cd7 O13 1_555 1_555
O14 Cd7 1_555 1_555
Cd5 O2_2 1_555 1_555
Cd9 O1_2 1_555 1_555
C1_2 C2_2 1_555 1_555
C2_2 H1_2 1_555 1_555
C3_2 C2_2 1_555 1_555
C4_2 C3_2 1_555 1_555
C5_2 C4_2 1_555 1_555
C6_2 C1_2 1_555 1_555
H3_2 C6_2 1_555 1_555
C7_2 C1_2 1_555 1_555
C8_2 C3_2 1_555 1_555
C10_2 N1_2 1_555 1_555
H5_2 C11_2 1_555 1_555
C12_2 C11_2 1_555 1_555
H6_2 C12_2 1_555 1_555
H7_2 C12_2 1_555 1_555
C13_2 N3_2 1_555 1_555
H9_2 C14_2 1_555 1_555
C15_2 C14_2 1_555 1_555
H10_2 C15_2 1_555 1_555
H11_2 C15_2 1_555 1_555
N1_2 C11_2 1_555 1_555
H12_2 N1_2 1_555 1_555
N2_2 C10_2 1_555 1_555
H13_2 N2_2 1_555 1_555
N3_2 C14_2 1_555 1_555
H14_2 N3_2 1_555 1_555
N4_2 C13_2 1_555 1_555
H15_2 N4_2 1_555 1_555
O1_2 C7_2 1_555 1_555
O2_2 C7_2 1_555 1_555
O17 C8_2 1_555 1_555
O19 C8_2 1_555 1_555
O7_2 Cd5 1_555 1_555
O8_2 Cd5 1_555 1_555
Cd7 O10_2 1_555 1_555
C16_2 C17_2 1_555 1_555
C17_2 H16_2 1_555 1_555
C18_2 C17_2 1_555 1_555
C19_2 C18_2 1_555 1_555
C20_2 C19_2 1_555 1_555
C21_2 C16_2 1_555 1_555
H18_2 C21_2 1_555 1_555
C22_2 C16_2 1_555 1_555
C23_2 C18_2 1_555 1_555
C25_2 N5_2 1_555 1_555
H20_2 C26_2 1_555 1_555
C27_2 C26_2 1_555 1_555
H21_2 C27_2 1_555 1_555
H22_2 C27_2 1_555 1_555
C28_2 N7_2 1_555 1_555
H24_2 C29_2 1_555 1_555
C30_2 C29_2 1_555 1_555
H25_2 C30_2 1_555 1_555
H26_2 C30_2 1_555 1_555
N5_2 C26_2 1_555 1_555
H27_2 N5_2 1_555 1_555
N6_2 C25_2 1_555 1_555
H28_2 N6_2 1_555 1_555
N7_2 C29_2 1_555 1_555
H29_2 N7_2 1_555 1_555
N8_2 C28_2 1_555 1_555
H30_2 N8_2 1_555 1_555
O9_2 Cd9 1_555 1_555
O10_2 C22_2 1_555 1_555
O18 C23_2 1_555 1_555
O20 C23_2 1_555 1_555
O15_2 Cd9 1_555 1_555
O16_2 Cd7 1_555 1_555
O21 Cd5 1_555 1_555
O23 Cd5 1_555 1_555
Cd9 O7_2 1_555 1_555
C5_2 C6_2 1_555 1_555
C10_2 O7_2 1_555 1_555
C12_2 N2_2 1_555 1_555
C13_2 O8_2 1_555 1_555
C15_2 N4_2 1_555 1_555
Cd7 O15_2 1_555 1_555
C20_2 C21_2 1_555 1_555
C22_2 O9_2 1_555 1_555
C25_2 O15_2 1_555 1_555
C27_2 N6_2 1_555 1_555
C28_2 O16_2 1_555 1_555
C30_2 N8_2 1_555 1_555
O21 C9_2 1_555 1_555
O23 C9_2 1_555 1_555

#END
