
###############################################################################
#
# This file contains modified crystal structure data generated from the
# MOF subset of the Cambridge Structural Database (CSD) v543 
# hosted by the Cambridge Crystallographic Data Centre (CCDC).
#
# This work is licensed under the Creative Commons
# Attribution-NonCommercial-ShareAlike 4.0 International License.
# To view a copy of this license, visit
# http://creativecommons.org/licenses/by-nc-sa/4.0/
# or send a letter to
# Creative Commons, PO Box 1866, Mountain View, CA 94042, USA.
#
# CIF created using the CSD Python API on 29 September 2022
# The structure has been converted into the P1 space group
# The structure has a 3D framework
# The original CSD entry IYEPUZ is in the monoclinic crystal system
# The framework has been calculated to contain at least 10.0% void space
# The void calculation uses a probe of radius 1.32A, grid spacing 0.4
# H atom positions have been added when not included in the experimental data
# Generated hydrogen atom positions removed from atoms on special positions
#
###############################################################################

data_IYEPUZ
_chemical_formula_moiety         '(C168 H152 Mn16 N12 O56)n'
_symmetry_cell_setting           triclinic
_symmetry_space_group_name_H-M   'P 1'
_symmetry_Int_Tables_number      1
_space_group_name_Hall           'P 1'
loop_
_symmetry_equiv_pos_site_id
_symmetry_equiv_pos_as_xyz
1 x,y,z
_cell_length_a                   10.3144(7)
_cell_length_b                   16.810(3)
_cell_length_c                   44.985(4)
_cell_angle_alpha                90
_cell_angle_beta                 101.869(7)
_cell_angle_gamma                90
_cell_volume                     7632.97
loop_
_atom_site_label
_atom_site_type_symbol
_atom_site_fract_x
_atom_site_fract_y
_atom_site_fract_z
Mn2 Mn 0.10432(6) 0.00427(6) 0.811652(17)
O31 O 0.1063(4) 0.1260(3) 0.80851(12)
Mn1 Mn 0.0000 -0.0000 1.0000
Mn3 Mn 0.29609(9) 0.09160(7) 0.75759(2)
C7 C 0.0681(6) 0.0576(4) 0.91247(12)
H3 H 0.0448 0.0813 0.8934
C8 C 0.1700(6) 0.0093(5) 0.92189(12)
H5 H 0.4649 0.0156 0.9648
H10 H 0.6432 0.0231 0.8111
C24 C 0.4009(5) 0.0090(4) 0.82270(13)
H17 H 0.0276 0.3009 0.7507
C37 C 0.0883(6) 0.1717(5) 0.78672(18)
N2 N 0.0602(4) 0.0174(3) 0.96078(9)
O2 O 0.8795(3) 0.0138(3) 0.80642(11)
O3 O 0.4338(8) 0.2008(5) 0.7601(2)
O4 O 0.3990(4) 0.0517(3) 0.80038(10)
O5 O 0.2465(11) 0.1080(6) 0.7071(2)
O7 O 0.4458(9) 0.0350(6) 0.7349(2)
O8 O 0.1470(5) 0.1701(3) 0.76454(12)
C84 C 0.2756(11) 0.1849(9) 0.9914(3)
H52 H 0.3181 0.2297 0.9842
H54 H 0.2221 0.1577 0.9745
O1 O 0.0023(3) 0.9622(3) 0.84625(8)
O29 O 0.3027(3) 0.9862(2) 0.83245(8)
O33 O 0.0773(5) 0.9143(4) 0.77946(13)
Mn1_2 Mn 0.0000 1.0000 0.0000
C44 C 0.3389(6) 0.8488(4) 0.01539(14)
H28 H 0.4128 0.8265 0.0097
C45 C 0.2963(6) 0.8331(4) 0.04070(13)
H29 H 0.3348 0.7983 0.0561
C46 C 0.1772(5) 0.8811(4) 0.03979(12)
C47 C 0.1087(5) 0.8849(4) 0.06319(12)
C48 C 0.0001(5) 0.9335(4) 0.06257(11)
C67 C 0.1480(7) 0.8303(5) 0.09002(16)
C68 C 0.2488(8) 0.8502(5) 0.11383(18)
H39 H 0.2969 0.8965 0.1127
C69 C 0.2798(11) 0.8045(6) 0.1388(2)
H40 H 0.3495 0.8196 0.1544
C70 C 0.2117(12) 0.7366(8) 0.1419(2)
C71 C 0.1128(12) 0.7137(7) 0.1183(3)
H41 H 0.0669 0.6667 0.1198
C72 C 0.0785(9) 0.7610(6) 0.0912(2)
H42 H 0.0118 0.7453 0.0751
C73 C 0.1558(8) 0.6936(6) 0.18786(18)
C74 C 0.1705(7) 0.6323(5) 0.20905(17)
H43 H 0.2262 0.5897 0.2074
C75 C 0.1039(6) 0.6344(4) 0.23217(16)
C76 C 0.0185(7) 0.6966(4) 0.23357(14)
C77 C 0.0014(6) 0.7551(4) 0.21163(15)
C78 C 0.0683(7) 0.7541(5) 0.18850(17)
H45 H 0.0548 0.7934 0.1736
C80 C 0.1201(8) 0.5700(6) 0.2564(2)
N4 N 0.1517(4) 0.9233(3) 0.01345(10)
O21 O 0.0773(5) 0.5857(4) 0.27946(13)
O22 O 0.1785(8) 0.5092(4) 0.25120(18)
O24 O 0.2312(7) 0.6818(5) 0.16564(14)
Mn9 Mn 0.10432(6) 0.49573(6) 0.311652(17)
Mn11 Mn 0.29609(9) 0.40840(7) 0.25759(2)
Mn1_3 Mn 0.0000 1.0000 1.0000
H4 H 0.2333 0.9951 0.9108
C9 C 0.1661(5) 0.9828(4) 0.95174(11)
C10 C 0.2567(5) 0.9352(4) 0.96919(13)
C11 C 0.3777(5) 0.9102(5) 0.95628(12)
C12 C 0.4716(5) 0.9671(4) 0.95527(12)
C13 C 0.5772(5) 0.9557(5) 0.94051(14)
H6 H 0.6406 0.9949 0.9401
C14 C 0.5815(5) 0.8829(5) 0.92661(14)
C15 C 0.4944(6) 0.8237(5) 0.92829(15)
H7 H 0.5030 0.7740 0.9198
C16 C 0.3885(6) 0.8403(5) 0.94357(17)
H8 H 0.3260 0.8010 0.9446
C17 C 0.6646(5) 0.9142(4) 0.88272(13)
C18 C 0.5446(5) 0.9396(4) 0.86688(13)
H9 H 0.4691 0.9296 0.8746
C19 C 0.5328(5) 0.9791(4) 0.84009(12)
C20 C 0.6482(4) 0.9943(4) 0.82893(12)
C21 C 0.7698(5) 0.9661(4) 0.84467(12)
C22 C 0.7765(5) 0.9276(4) 0.87130(12)
H11 H 0.8581 0.9100 0.8821
C23 C 0.8924(5) 0.9838(5) 0.83118(14)
H22 H 0.0019 0.8408 0.9457
H24 H 0.0252 0.7597 0.9632
O12 O 0.6795(3) 0.8699(3) 0.90951(9)
C43 C 0.2519(5) 0.9055(4) 0.99851(12)
O35 O 0.1785(8) 0.9908(4) 0.75120(18)
H58 H 0.419094 0.979287 0.729406
O15 O 0.0023(3) 0.5378(3) 0.34625(8)
O30 O 0.3027(3) 0.5138(2) 0.33245(8)
O32 O 0.1063(4) 0.3740(3) 0.30851(12)
Mn1_4 Mn 0.0000 0.5000 0.5000
C1 C 0.2519(5) 0.5945(4) 0.49851(12)
C2 C 0.3389(6) 0.6512(4) 0.51539(14)
H1 H 0.4128 0.6735 0.5097
C3 C 0.2963(6) 0.6669(4) 0.54070(13)
H2 H 0.3348 0.7017 0.5561
C4 C 0.1772(5) 0.6189(4) 0.53979(12)
C5 C 0.1087(5) 0.6151(4) 0.56319(12)
C6 C 0.0001(5) 0.5665(4) 0.56257(11)
C25 C 0.1480(7) 0.6697(5) 0.59002(16)
C26 C 0.2488(8) 0.6498(5) 0.61383(18)
H12 H 0.2969 0.6035 0.6127
C27 C 0.2798(11) 0.6955(6) 0.6388(2)
H13 H 0.3495 0.6804 0.6544
C28 C 0.2117(12) 0.7634(8) 0.6419(2)
C29 C 0.1128(12) 0.7863(7) 0.6183(3)
H14 H 0.0669 0.8333 0.6198
C30 C 0.0785(9) 0.7390(6) 0.5912(2)
H15 H 0.0118 0.7547 0.5751
C31 C 0.1558(8) 0.8064(6) 0.68786(18)
C32 C 0.1705(7) 0.8677(5) 0.70905(17)
H16 H 0.2262 0.9103 0.7074
C33 C 0.1039(6) 0.8656(4) 0.73217(16)
C34 C 0.0185(7) 0.8034(4) 0.73357(14)
C35 C 0.0014(6) 0.7449(4) 0.71163(15)
C36 C 0.0683(7) 0.7459(5) 0.68850(17)
H18 H 0.0548 0.7066 0.6736
C38 C 0.1201(8) 0.9300(6) 0.7564(2)
C39 C 0.1362(11) 0.3279(6) 0.5228(3)
C40 C 0.1975(16) 0.1975(9) 0.5227(4)
H19 H 0.2502 0.1694 0.5108
H20 H 0.1105 0.1745 0.5193
H21 H 0.2383 0.1936 0.5438
C41 C 0.0407(9) 0.2960(7) 0.5472(2)
H23 H 0.0955 0.2696 0.5641
C42 C 0.2756(11) 0.3151(9) 0.4914(3)
H25 H 0.3181 0.2703 0.4842
H26 H 0.3417 0.3508 0.5021
H27 H 0.2221 0.3423 0.4745
N1 N 0.1517(4) 0.5767(3) 0.51345(10)
N3 N 0.1870(13) 0.2859(7) 0.5130(4)
O13 O 0.2312(7) 0.8182(5) 0.66564(14)
O14 O 0.1244(4) 0.3984(4) 0.51994(10)
C49 C 0.0681(6) 0.4424(4) 0.41247(12)
H30 H 0.0448 0.4187 0.3934
C50 C 0.1700(6) 0.4907(5) 0.42189(12)
H31 H 0.2333 0.5049 0.4108
C51 C 0.1661(5) 0.5172(4) 0.45174(11)
C52 C 0.2567(5) 0.5648(4) 0.46919(13)
C53 C 0.3777(5) 0.5898(5) 0.45628(12)
C54 C 0.4716(5) 0.5329(4) 0.45527(12)
H32 H 0.4649 0.4844 0.4648
C55 C 0.5772(5) 0.5443(5) 0.44051(14)
H33 H 0.6406 0.5051 0.4401
C56 C 0.5815(5) 0.6171(5) 0.42661(14)
C57 C 0.4944(6) 0.6763(5) 0.42829(15)
H34 H 0.5030 0.7260 0.4198
C58 C 0.3885(6) 0.6597(5) 0.44357(17)
H35 H 0.3260 0.6990 0.4446
C59 C 0.6646(5) 0.5858(4) 0.38272(13)
C60 C 0.5446(5) 0.5604(4) 0.36688(13)
H36 H 0.4691 0.5704 0.3746
C61 C 0.5328(5) 0.5209(4) 0.34009(12)
C62 C 0.6482(4) 0.5057(4) 0.32893(12)
H37 H 0.6432 0.4769 0.3111
C63 C 0.7698(5) 0.5339(4) 0.34467(12)
C64 C 0.7765(5) 0.5724(4) 0.37130(12)
H38 H 0.8581 0.5900 0.3821
C65 C 0.8924(5) 0.5162(5) 0.33118(14)
C66 C 0.4009(5) 0.4910(4) 0.32270(13)
H44 H 0.0276 0.1991 0.2507
C79 C 0.0883(6) 0.3283(5) 0.28672(18)
N5 N 0.0602(4) 0.4826(3) 0.46078(9)
O16 O 0.8795(3) 0.4862(3) 0.30642(11)
O17 O 0.3990(4) 0.4483(3) 0.30038(10)
O19 O 0.1470(5) 0.3299(3) 0.26454(12)
O23 O 0.6795(3) 0.6301(3) 0.40951(9)
H49 H 0.0019 0.6592 0.4457
H51 H 0.0252 0.7403 0.4632
O25 O 0.4338(8) 0.2992(5) 0.2601(2)
O26 O 0.2465(11) 0.3920(6) 0.2071(2)
O27 O 0.4458(9) 0.4650(6) 0.2349(2)
Mn1_5 Mn 0.0000 0.0000 0.0000
C81 C 0.1362(11) 0.1721(6) 0.0228(3)
C82 C 0.1975(16) 0.3025(9) 0.0227(4)
H46 H 0.2502 0.3306 0.0108
H47 H 0.1105 0.3255 0.0193
H48 H 0.2383 0.3064 0.0438
C83 C 0.0407(9) 0.2040(7) 0.0472(2)
H50 H 0.0955 0.2304 0.0641
H53 H 0.3417 0.1492 0.0021
N6 N 0.1870(13) 0.2141(7) 0.0130(4)
O28 O 0.1244(4) 0.1016(4) 0.01994(10)
Mn1_6 Mn 1.0000 0.0000 0.0000
C1_2 C 0.7481(5) 0.0945(4) 0.00149(12)
H31_2 H 0.7667 0.0049 0.0892
C51_2 C 0.8339(5) 0.0172(4) 0.04826(11)
C52_2 C 0.7433(5) 0.0648(4) 0.03081(13)
C53_2 C 0.6223(5) 0.0898(5) 0.04372(12)
C54_2 C 0.5284(5) 0.0329(4) 0.04473(12)
C55_2 C 0.4228(5) 0.0443(5) 0.05949(14)
H33_2 H 0.3594 0.0051 0.0599
C56_2 C 0.4185(5) 0.1171(5) 0.07339(14)
C57_2 C 0.5056(6) 0.1763(5) 0.07171(15)
H34_2 H 0.4970 0.2260 0.0802
C58_2 C 0.6115(6) 0.1597(5) 0.05643(17)
H35_2 H 0.6740 0.1990 0.0554
C59_2 C 0.3354(5) 0.0858(4) 0.11728(13)
C60_2 C 0.4554(5) 0.0604(4) 0.13312(13)
H36_2 H 0.5309 0.0704 0.1254
C61_2 C 0.4672(5) 0.0209(4) 0.15991(12)
C62_2 C 0.3518(4) 0.0057(4) 0.17107(12)
C63_2 C 0.2302(5) 0.0339(4) 0.15533(12)
C64_2 C 0.2235(5) 0.0724(4) 0.12870(12)
H38_2 H 0.1419 0.0900 0.1179
C65_2 C 0.1076(5) 0.0162(5) 0.16882(14)
O18 O 0.6973(3) 0.0138(2) 0.16755(8)
O23_2 O 0.3205(3) 0.1301(3) 0.09049(9)
H49_2 H 0.9981 0.1592 0.0543
H51_2 H 0.9748 0.2403 0.0368
O36 O 0.8215(8) 0.0092(4) 0.24880(18)
Mn1_7 Mn 1.0000 -0.0000 1.0000
C2_2 C 0.6611(6) 0.1512(4) 0.98461(14)
H1_2 H 0.5872 0.1735 0.9903
C3_2 C 0.7037(6) 0.1669(4) 0.95930(13)
H2_2 H 0.6652 0.2017 0.9439
C4_2 C 0.8228(5) 0.1189(4) 0.96021(12)
C5_2 C 0.8913(5) 0.1151(4) 0.93681(12)
C6_2 C 0.9999(5) 0.0665(4) 0.93743(11)
C25_2 C 0.8520(7) 0.1697(5) 0.90998(16)
C26_2 C 0.7512(8) 0.1498(5) 0.88617(18)
H12_2 H 0.7031 0.1035 0.8873
C27_2 C 0.7202(11) 0.1955(6) 0.8612(2)
H13_2 H 0.6505 0.1804 0.8456
C28_2 C 0.7883(12) 0.2634(8) 0.8581(2)
C29_2 C 0.8872(12) 0.2863(7) 0.8817(3)
H14_2 H 0.9331 0.3333 0.8802
C30_2 C 0.9215(9) 0.2390(6) 0.9088(2)
H15_2 H 0.9882 0.2547 0.9249
C31_2 C 0.8442(8) 0.3064(6) 0.81214(18)
C32_2 C 0.8295(7) 0.3677(5) 0.79095(17)
H16_2 H 0.7738 0.4103 0.7926
C33_2 C 0.8961(6) 0.3656(4) 0.76783(16)
C34_2 C 0.9815(7) 0.3034(4) 0.76643(14)
C35_2 C 0.9986(6) 0.2449(4) 0.78837(15)
C36_2 C 0.9317(7) 0.2459(5) 0.81150(17)
H18_2 H 0.9452 0.2066 0.8264
C38_2 C 0.8799(8) 0.4300(6) 0.7436(2)
N1_2 N 0.8483(4) 0.0767(3) 0.98655(10)
O10 O 0.9227(5) 0.4143(4) 0.72054(13)
O11 O 0.8215(8) 0.4908(4) 0.74880(18)
O13_2 O 0.7688(7) 0.3182(5) 0.83436(14)
Mn7 Mn 0.89568(6) 0.50427(6) 0.688348(17)
Mn10 Mn 0.70391(9) 0.59160(7) 0.74241(2)
O15_2 O 0.9977(3) 0.0378(3) 0.15375(8)
O34 O 0.9227(5) 0.0857(4) 0.22054(13)
Mn1_8 Mn 1.0000 0.5000 0.5000
C7_2 C 0.9319(6) 0.5576(4) 0.58753(12)
H3_2 H 0.9552 0.5813 0.6066
C8_2 C 0.8300(6) 0.5093(5) 0.57811(12)
H4_2 H 0.7667 0.4951 0.5892
C9_2 C 0.8339(5) 0.4828(4) 0.54826(11)
C10_2 C 0.7433(5) 0.4352(4) 0.53081(13)
C11_2 C 0.6223(5) 0.4102(5) 0.54372(12)
C12_2 C 0.5284(5) 0.4671(4) 0.54473(12)
H5_2 H 0.5351 0.5156 0.5352
C13_2 C 0.4228(5) 0.4557(5) 0.55949(14)
H6_2 H 0.3594 0.4949 0.5599
C14_2 C 0.4185(5) 0.3829(5) 0.57339(14)
C15_2 C 0.5056(6) 0.3237(5) 0.57171(15)
H7_2 H 0.4970 0.2740 0.5802
C16_2 C 0.6115(6) 0.3403(5) 0.55643(17)
H8_2 H 0.6740 0.3010 0.5554
C17_2 C 0.3354(5) 0.4142(4) 0.61728(13)
C18_2 C 0.4554(5) 0.4396(4) 0.63312(13)
H9_2 H 0.5309 0.4296 0.6254
C19_2 C 0.4672(5) 0.4791(4) 0.65991(12)
C20_2 C 0.3518(4) 0.4943(4) 0.67107(12)
H10_2 H 0.3568 0.5231 0.6889
C21_2 C 0.2302(5) 0.4661(4) 0.65533(12)
C22_2 C 0.2235(5) 0.4276(4) 0.62870(12)
H11_2 H 0.1419 0.4100 0.6179
C23_2 C 0.1076(5) 0.4838(5) 0.66882(14)
C24_2 C 0.5991(5) 0.5090(4) 0.67730(13)
H17_2 H 0.9724 0.8009 0.7493
C37_2 C 0.9117(6) 0.6717(5) 0.71328(18)
H22_2 H 0.9981 0.3408 0.5543
H24_2 H 0.9748 0.2597 0.5368
N2_2 N 0.9398(4) 0.5174(3) 0.53922(9)
O2_2 O 0.1205(3) 0.5138(3) 0.69358(11)
O3_2 O 0.5662(8) 0.7008(5) 0.7399(2)
O4_2 O 0.6010(4) 0.5517(3) 0.69962(10)
O5_2 O 0.7535(11) 0.6080(6) 0.7929(2)
O6 O 0.6973(3) 0.4862(2) 0.66755(8)
O7_2 O 0.5542(9) 0.5350(6) 0.7651(2)
O8_2 O 0.8530(5) 0.6701(3) 0.73546(12)
O9 O 0.8937(4) 0.6260(3) 0.69149(12)
O12_2 O 0.3205(3) 0.3699(3) 0.59049(9)
C43_2 C 0.7481(5) 0.4055(4) 0.50149(12)
C44_2 C 0.6611(6) 0.3488(4) 0.48461(14)
H28_2 H 0.5872 0.3265 0.4903
C45_2 C 0.7037(6) 0.3331(4) 0.45930(13)
H29_2 H 0.6652 0.2983 0.4439
C46_2 C 0.8228(5) 0.3811(4) 0.46021(12)
C47_2 C 0.8913(5) 0.3849(4) 0.43681(12)
C48_2 C 0.9999(5) 0.4335(4) 0.43743(11)
C67_2 C 0.8520(7) 0.3303(5) 0.40998(16)
C68_2 C 0.7512(8) 0.3502(5) 0.38617(18)
H39_2 H 0.7031 0.3965 0.3873
C69_2 C 0.7202(11) 0.3045(6) 0.3612(2)
H40_2 H 0.6505 0.3196 0.3456
C70_2 C 0.7883(12) 0.2366(8) 0.3581(2)
C71_2 C 0.8872(12) 0.2137(7) 0.3817(3)
H41_2 H 0.9331 0.1667 0.3802
C72_2 C 0.9215(9) 0.2610(6) 0.4088(2)
H42_2 H 0.9882 0.2453 0.4249
C73_2 C 0.8442(8) 0.1936(6) 0.31214(18)
C74_2 C 0.8295(7) 0.1323(5) 0.29095(17)
H43_2 H 0.7738 0.0897 0.2926
C75_2 C 0.8961(6) 0.1344(4) 0.26783(16)
C76_2 C 0.9815(7) 0.1966(4) 0.26643(14)
C77_2 C 0.9986(6) 0.2551(4) 0.28837(15)
C78_2 C 0.9317(7) 0.2541(5) 0.31150(17)
H45_2 H 0.9452 0.2934 0.3264
C80_2 C 0.8799(8) 0.0700(6) 0.2436(2)
N4_2 N 0.8483(4) 0.4233(3) 0.48655(10)
O24_2 O 0.7688(7) 0.1818(5) 0.33436(14)
C81_2 C 0.8638(11) 0.6721(6) 0.4772(3)
C82_2 C 0.8025(16) 0.8025(9) 0.4773(4)
H46_2 H 0.7498 0.8306 0.4892
H47_2 H 0.8895 0.8255 0.4807
H48_2 H 0.7617 0.8064 0.4562
C83_2 C 0.9593(9) 0.7040(7) 0.4528(2)
H50_2 H 0.9045 0.7304 0.4359
C84_2 C 0.7244(11) 0.6849(9) 0.5086(3)
H52_2 H 0.6819 0.7297 0.5158
H53_2 H 0.6583 0.6492 0.4979
H54_2 H 0.7779 0.6577 0.5255
N6_2 N 0.8130(13) 0.7141(7) 0.4870(4)
O28_2 O 0.8756(4) 0.6016(4) 0.48006(10)
O1_2 O 0.9977(3) 0.4622(3) 0.65375(8)
H58_2 H 0.580906 0.0207129 0.270594
Mn1_9 Mn 1.0000 1.0000 0.0000
C42_2 C 0.7244(11) 0.8151(9) 0.0086(3)
H25_2 H 0.6819 0.7703 0.0158
H27_2 H 0.7779 0.8423 0.0255
C49_2 C 0.9319(6) 0.9424(4) 0.08753(12)
H30_2 H 0.9552 0.9187 0.1066
C50_2 C 0.8300(6) 0.9907(5) 0.07811(12)
H32_2 H 0.5351 0.9844 0.0352
H37_2 H 0.3568 0.9769 0.1889
C66_2 C 0.5991(5) 0.9910(4) 0.17730(13)
H44_2 H 0.9724 0.6991 0.2493
C79_2 C 0.9117(6) 0.8283(5) 0.21328(18)
N5_2 N 0.9398(4) 0.9826(3) 0.03922(9)
O16_2 O 0.1205(3) 0.9862(3) 0.19358(11)
O17_2 O 0.6010(4) 0.9483(3) 0.19962(10)
O19_2 O 0.8530(5) 0.8299(3) 0.23546(12)
O20 O 0.8937(4) 0.8740(3) 0.19149(12)
Mn5 Mn 0.70391(9) 0.90840(7) 0.24241(2)
O25_2 O 0.5662(8) 0.7992(5) 0.2399(2)
O26_2 O 0.7535(11) 0.8920(6) 0.2929(2)
O27_2 O 0.5542(9) 0.9650(6) 0.2651(2)
Mn8 Mn 0.89568(6) 0.99573(6) 0.188348(17)
Mn1_10 Mn 1.0000 1.0000 1.0000
C39_2 C 0.8638(11) 0.8279(6) 0.9772(3)
C40_2 C 0.8025(16) 0.6975(9) 0.9773(4)
H19_2 H 0.7498 0.6694 0.9892
H20_2 H 0.8895 0.6745 0.9807
H21_2 H 0.7617 0.6936 0.9562
C41_2 C 0.9593(9) 0.7960(7) 0.9528(2)
H23_2 H 0.9045 0.7696 0.9359
H26_2 H 0.6583 0.8508 0.9979
N3_2 N 0.8130(13) 0.7859(7) 0.9870(4)
O14_2 O 0.8756(4) 0.8984(4) 0.98006(10)
loop_
_geom_bond_atom_site_label_1
_geom_bond_atom_site_label_2
_geom_bond_site_symmetry_1
_geom_bond_site_symmetry_2
O31 Mn2 1_555 1_555
Mn3 O3 1_555 1_555
H3 C7 1_555 1_555
C8 C7 1_555 1_555
N2 Mn1 1_555 1_555
O4 Mn3 1_555 1_555
O5 Mn3 1_555 1_555
O7 Mn3 1_555 1_555
O8 Mn3 1_555 1_555
O31 C37 1_555 1_555
C84 H52 1_555 1_555
H54 C84 1_555 1_555
C24 O4 1_555 1_555
C37 O8 1_555 1_555
H28 C44 1_555 1_555
C45 C44 1_555 1_555
H29 C45 1_555 1_555
C46 C45 1_555 1_555
C47 C46 1_555 1_555
C48 C47 1_555 1_555
C67 C47 1_555 1_555
C68 C67 1_555 1_555
H39 C68 1_555 1_555
C69 C68 1_555 1_555
H40 C69 1_555 1_555
C70 C69 1_555 1_555
C71 C70 1_555 1_555
H41 C71 1_555 1_555
C72 C67 1_555 1_555
H42 C72 1_555 1_555
C73 C74 1_555 1_555
C74 H43 1_555 1_555
C75 C74 1_555 1_555
C76 C75 1_555 1_555
C77 C76 1_555 1_555
C78 C73 1_555 1_555
H45 C78 1_555 1_555
C80 C75 1_555 1_555
N4 Mn1_2 1_555 1_555
O21 C80 1_555 1_555
O22 C80 1_555 1_555
O24 C70 1_555 1_555
Mn9 O21 1_555 1_555
Mn11 O22 1_555 1_555
C46 N4 1_555 1_555
C71 C72 1_555 1_555
C73 O24 1_555 1_555
C77 C78 1_555 1_555
C10 C9 1_555 1_555
C11 C10 1_555 1_555
C12 C11 1_555 1_555
C13 C12 1_555 1_555
H6 C13 1_555 1_555
C14 C13 1_555 1_555
C15 C14 1_555 1_555
H7 C15 1_555 1_555
C16 C11 1_555 1_555
H8 C16 1_555 1_555
C17 C18 1_555 1_555
C18 H9 1_555 1_555
C19 C18 1_555 1_555
C20 C19 1_555 1_555
C21 C20 1_555 1_555
C22 C17 1_555 1_555
H11 C22 1_555 1_555
C23 C21 1_555 1_555
O12 C14 1_555 1_555
C43 C10 1_555 1_555
C15 C16 1_555 1_555
C17 O12 1_555 1_555
C21 C22 1_555 1_555
Mn9 O15 1_555 1_555
O30 Mn9 1_555 1_555
O32 Mn9 1_555 1_555
Mn1_4 N1 1_555 1_555
C1 C2 1_555 1_555
C2 H1 1_555 1_555
C3 C2 1_555 1_555
H2 C3 1_555 1_555
C4 C3 1_555 1_555
C5 C4 1_555 1_555
C6 C5 1_555 1_555
C25 C5 1_555 1_555
C26 C25 1_555 1_555
H12 C26 1_555 1_555
C27 C26 1_555 1_555
H13 C27 1_555 1_555
C28 C27 1_555 1_555
C29 C28 1_555 1_555
H14 C29 1_555 1_555
C30 C25 1_555 1_555
H15 C30 1_555 1_555
C31 C32 1_555 1_555
C32 H16 1_555 1_555
C33 C32 1_555 1_555
C34 C33 1_555 1_555
C35 C34 1_555 1_555
C36 C31 1_555 1_555
H18 C36 1_555 1_555
C38 C33 1_555 1_555
C39 C41 1_555 1_555
C40 H19 1_555 1_555
H20 C40 1_555 1_555
H21 C40 1_555 1_555
H23 C41 1_555 1_555
C42 H25 1_555 1_555
H26 C42 1_555 1_555
H27 C42 1_555 1_555
N1 C1 1_555 1_555
N3 C39 1_555 1_555
O33 C38 1_555 1_555
O35 C38 1_555 1_555
O13 C28 1_555 1_555
O14 Mn1_4 1_555 1_555
H30 C49 1_555 1_555
C50 C49 1_555 1_555
H31 C50 1_555 1_555
C51 C50 1_555 1_555
C52 C1 1_555 1_555
C53 C52 1_555 1_555
C54 C53 1_555 1_555
H32 C54 1_555 1_555
C55 C54 1_555 1_555
H33 C55 1_555 1_555
C56 C55 1_555 1_555
C57 C56 1_555 1_555
H34 C57 1_555 1_555
C58 C53 1_555 1_555
H35 C58 1_555 1_555
C59 C60 1_555 1_555
C60 H36 1_555 1_555
C61 C60 1_555 1_555
C62 C61 1_555 1_555
H37 C62 1_555 1_555
C63 C62 1_555 1_555
C64 C59 1_555 1_555
H38 C64 1_555 1_555
C65 C63 1_555 1_555
C66 C61 1_555 1_555
N5 Mn1_4 1_555 1_555
O16 C65 1_555 1_555
O17 C66 1_555 1_555
O30 C66 1_555 1_555
O19 C79 1_555 1_555
O32 C79 1_555 1_555
O23 C56 1_555 1_555
Mn11 O17 1_555 1_555
O25 Mn11 1_555 1_555
O26 Mn11 1_555 1_555
O27 Mn11 1_555 1_555
C4 N1 1_555 1_555
C29 C30 1_555 1_555
C31 O13 1_555 1_555
C35 C36 1_555 1_555
C39 O14 1_555 1_555
C40 N3 1_555 1_555
C42 N3 1_555 1_555
C51 C52 1_555 1_555
C51 N5 1_555 1_555
C57 C58 1_555 1_555
C59 O23 1_555 1_555
C63 C64 1_555 1_555
O19 Mn11 1_555 1_555
C81 C83 1_555 1_555
C82 H46 1_555 1_555
H47 C82 1_555 1_555
H48 C82 1_555 1_555
H50 C83 1_555 1_555
N6 C81 1_555 1_555
O28 Mn1_5 1_555 1_555
C81 O28 1_555 1_555
C82 N6 1_555 1_555
C52_2 C1_2 1_555 1_555
C53_2 C52_2 1_555 1_555
C54_2 C53_2 1_555 1_555
C55_2 C54_2 1_555 1_555
H33_2 C55_2 1_555 1_555
C56_2 C55_2 1_555 1_555
C57_2 C56_2 1_555 1_555
H34_2 C57_2 1_555 1_555
C58_2 C53_2 1_555 1_555
H35_2 C58_2 1_555 1_555
C59_2 C60_2 1_555 1_555
C60_2 H36_2 1_555 1_555
C61_2 C60_2 1_555 1_555
C62_2 C61_2 1_555 1_555
C63_2 C62_2 1_555 1_555
C64_2 C59_2 1_555 1_555
H38_2 C64_2 1_555 1_555
C65_2 C63_2 1_555 1_555
O23_2 C56_2 1_555 1_555
C51_2 C52_2 1_555 1_555
C57_2 C58_2 1_555 1_555
C59_2 O23_2 1_555 1_555
C63_2 C64_2 1_555 1_555
Mn1_7 N1_2 1_555 1_555
C2_2 H1_2 1_555 1_555
C3_2 C2_2 1_555 1_555
H2_2 C3_2 1_555 1_555
C4_2 C3_2 1_555 1_555
C5_2 C4_2 1_555 1_555
C6_2 C5_2 1_555 1_555
C25_2 C5_2 1_555 1_555
C26_2 C25_2 1_555 1_555
H12_2 C26_2 1_555 1_555
C27_2 C26_2 1_555 1_555
H13_2 C27_2 1_555 1_555
C28_2 C27_2 1_555 1_555
C29_2 C28_2 1_555 1_555
H14_2 C29_2 1_555 1_555
C30_2 C25_2 1_555 1_555
H15_2 C30_2 1_555 1_555
C31_2 C32_2 1_555 1_555
C32_2 H16_2 1_555 1_555
C33_2 C32_2 1_555 1_555
C34_2 C33_2 1_555 1_555
C35_2 C34_2 1_555 1_555
C36_2 C31_2 1_555 1_555
H18_2 C36_2 1_555 1_555
C38_2 C33_2 1_555 1_555
O10 C38_2 1_555 1_555
O11 C38_2 1_555 1_555
O13_2 C28_2 1_555 1_555
Mn7 O10 1_555 1_555
Mn10 O11 1_555 1_555
C4_2 N1_2 1_555 1_555
C29_2 C30_2 1_555 1_555
C31_2 O13_2 1_555 1_555
C35_2 C36_2 1_555 1_555
Mn10 O3_2 1_555 1_555
H3_2 C7_2 1_555 1_555
C8_2 C7_2 1_555 1_555
H4_2 C8_2 1_555 1_555
C9_2 C8_2 1_555 1_555
C10_2 C9_2 1_555 1_555
C11_2 C10_2 1_555 1_555
C12_2 C11_2 1_555 1_555
H5_2 C12_2 1_555 1_555
C13_2 C12_2 1_555 1_555
H6_2 C13_2 1_555 1_555
C14_2 C13_2 1_555 1_555
C15_2 C14_2 1_555 1_555
H7_2 C15_2 1_555 1_555
C16_2 C11_2 1_555 1_555
H8_2 C16_2 1_555 1_555
C17_2 C18_2 1_555 1_555
C18_2 H9_2 1_555 1_555
C19_2 C18_2 1_555 1_555
C20_2 C19_2 1_555 1_555
H10_2 C20_2 1_555 1_555
C21_2 C20_2 1_555 1_555
C22_2 C17_2 1_555 1_555
H11_2 C22_2 1_555 1_555
C23_2 C21_2 1_555 1_555
C24_2 C19_2 1_555 1_555
N2_2 Mn1_8 1_555 1_555
O4_2 Mn10 1_555 1_555
O5_2 Mn10 1_555 1_555
O6 C24_2 1_555 1_555
O7_2 Mn10 1_555 1_555
O8_2 Mn10 1_555 1_555
O9 C37_2 1_555 1_555
O12_2 C14_2 1_555 1_555
C43_2 C10_2 1_555 1_555
C44_2 C43_2 1_555 1_555
H28_2 C44_2 1_555 1_555
C45_2 C44_2 1_555 1_555
H29_2 C45_2 1_555 1_555
C46_2 C45_2 1_555 1_555
C47_2 C46_2 1_555 1_555
C48_2 C47_2 1_555 1_555
C67_2 C47_2 1_555 1_555
C68_2 C67_2 1_555 1_555
H39_2 C68_2 1_555 1_555
C69_2 C68_2 1_555 1_555
H40_2 C69_2 1_555 1_555
C70_2 C69_2 1_555 1_555
C71_2 C70_2 1_555 1_555
H41_2 C71_2 1_555 1_555
C72_2 C67_2 1_555 1_555
H42_2 C72_2 1_555 1_555
C73_2 C74_2 1_555 1_555
C74_2 H43_2 1_555 1_555
C75_2 C74_2 1_555 1_555
C76_2 C75_2 1_555 1_555
C77_2 C76_2 1_555 1_555
C78_2 C73_2 1_555 1_555
H45_2 C78_2 1_555 1_555
C80_2 C75_2 1_555 1_555
N4_2 Mn1_8 1_555 1_555
O34 C80_2 1_555 1_555
O36 C80_2 1_555 1_555
O24_2 C70_2 1_555 1_555
C81_2 C83_2 1_555 1_555
C82_2 H46_2 1_555 1_555
H47_2 C82_2 1_555 1_555
H48_2 C82_2 1_555 1_555
H50_2 C83_2 1_555 1_555
C84_2 H52_2 1_555 1_555
H53_2 C84_2 1_555 1_555
H54_2 C84_2 1_555 1_555
N6_2 C81_2 1_555 1_555
O28_2 Mn1_8 1_555 1_555
Mn7 O6 1_555 1_555
C9_2 N2_2 1_555 1_555
C15_2 C16_2 1_555 1_555
C17_2 O12_2 1_555 1_555
C21_2 C22_2 1_555 1_555
C23_2 O2_2 1_555 1_555
C24_2 O4_2 1_555 1_555
C37_2 O8_2 1_555 1_555
O9 Mn7 1_555 1_555
C43_2 N4_2 1_555 1_555
C46_2 N4_2 1_555 1_555
C71_2 C72_2 1_555 1_555
C73_2 O24_2 1_555 1_555
C77_2 C78_2 1_555 1_555
C81_2 O28_2 1_555 1_555
C82_2 N6_2 1_555 1_555
C84_2 N6_2 1_555 1_555
Mn7 O1_2 1_555 1_555
C42_2 H25_2 1_555 1_555
H27_2 C42_2 1_555 1_555
H30_2 C49_2 1_555 1_555
C50_2 C49_2 1_555 1_555
N5_2 Mn1_9 1_555 1_555
O17_2 C66_2 1_555 1_555
O19_2 C79_2 1_555 1_555
O20 C79_2 1_555 1_555
Mn5 O17_2 1_555 1_555
O25_2 Mn5 1_555 1_555
O26_2 Mn5 1_555 1_555
O27_2 Mn5 1_555 1_555
O19_2 Mn5 1_555 1_555
O20 Mn8 1_555 1_555
C39_2 C41_2 1_555 1_555
C40_2 H19_2 1_555 1_555
H20_2 C40_2 1_555 1_555
H21_2 C40_2 1_555 1_555
H23_2 C41_2 1_555 1_555
N3_2 C39_2 1_555 1_555
O14_2 Mn1_10 1_555 1_555
C39_2 O14_2 1_555 1_555
C40_2 N3_2 1_555 1_555

#END
