
###############################################################################
#
# This file contains modified crystal structure data generated from the
# MOF subset of the Cambridge Structural Database (CSD) v543 
# hosted by the Cambridge Crystallographic Data Centre (CCDC).
#
# This work is licensed under the Creative Commons
# Attribution-NonCommercial-ShareAlike 4.0 International License.
# To view a copy of this license, visit
# http://creativecommons.org/licenses/by-nc-sa/4.0/
# or send a letter to
# Creative Commons, PO Box 1866, Mountain View, CA 94042, USA.
#
# CIF created using the CSD Python API on 29 September 2022
# The structure has been converted into the P1 space group
# The structure has a 3D framework
# The original CSD entry IYEQUA is in the orthorhombic crystal system
# The framework has been calculated to contain at least 10.0% void space
# The void calculation uses a probe of radius 1.32A, grid spacing 0.4
#
###############################################################################

data_IYEQUA
_chemical_formula_moiety         '(C144 H208 Cd8 N32 O32)n'
_symmetry_cell_setting           triclinic
_symmetry_space_group_name_H-M   'P 1'
_symmetry_Int_Tables_number      1
_space_group_name_Hall           'P 1'
loop_
_symmetry_equiv_pos_site_id
_symmetry_equiv_pos_as_xyz
1 x,y,z
_cell_length_a                   17.6907(5)
_cell_length_b                   16.1672(4)
_cell_length_c                   16.8283(4)
_cell_angle_alpha                90
_cell_angle_beta                 90
_cell_angle_gamma                90
_cell_volume                     4813.05
loop_
_atom_site_label
_atom_site_type_symbol
_atom_site_fract_x
_atom_site_fract_y
_atom_site_fract_z
Cd1 Cd 0.25416(4) 0.17057(4) 0.27661(4)
C1 C 0.2453(6) 0.2794(7) 0.1524(6)
C2 C 0.2279(7) 0.3456(7) 0.0901(8)
H1 H 0.1990 0.3203 0.0476
H2 H 0.1962 0.3874 0.1144
C3 C 0.2956(7) 0.3878(7) 0.0541(7)
H3 H 0.3239 0.3480 0.0229
H4 H 0.3283 0.4074 0.0964
C4 C 0.2740(7) 0.4602(7) 0.0015(7)
C5 C 0.2472(6) 0.5352(7) 0.0458(7)
H7 H 0.2874 0.5534 0.0809
H8 H 0.2047 0.5195 0.0788
H10 H 0.1951 0.6469 0.0264
C9 C 0.1453(6) 0.0032(7) 0.2855(6)
C11 C 0.0980(5) 0.1077(6) 0.3460(6)
H15 H 0.0914 0.1602 0.3675
H18 H 0.0244 0.0815 0.5041
C16 C 0.3974(6) 0.0957(7) 0.1891(6)
H22 H 0.4070 0.1480 0.1684
C17 C 0.4979(6) 0.0220(8) 0.1119(6)
H24 H 0.5249 0.0742 0.1108
C18 C 0.4686(6) 0.0032(7) 0.0302(6)
H25 H 0.4339 0.0465 0.0141
N1 N 0.1574(5) 0.0845(5) 0.3035(5)
N2 N 0.0488(5) 0.0455(5) 0.3538(5)
N3 N 0.3430(5) 0.0786(5) 0.2408(5)
N4 N 0.4369(5) 0.0269(6) 0.1707(5)
O1 O 0.1921(4) 0.2315(5) 0.1703(4)
O2 O 0.3069(5) 0.2746(5) 0.1869(5)
O10 O 0.3176(5) 0.2275(5) 0.3829(5)
O12 O 0.2043(5) 0.2766(5) 0.3673(5)
H5 H 0.3174 0.4754 0.9695
H6 H 0.2343 0.4425 0.9656
C6 C 0.2235(7) 0.6081(7) 0.9941(8)
H9 H 0.1901 0.5882 0.9526
C7 C 0.2885(6) 0.6530(7) 0.9564(7)
H11 H 0.3196 0.6765 0.9981
H12 H 0.3192 0.6131 0.9279
C8 C 0.2670(7) 0.7205(7) 0.9002(6)
O3 O 0.3176(5) 0.7725(5) 0.8829(5)
O4 O 0.2043(5) 0.7234(5) 0.8673(5)
C24 C 0.6512(6) 0.0039(7) 0.7446(6)
H34 H 0.6820 0.0337 0.7101
C25 C 0.5942(6) 0.0359(7) 0.7874(6)
H35 H 0.5789 0.0909 0.7881
H37 H 0.4667 0.0208 0.8724
H40 H 0.5591 0.0485 0.9685
Cd5 Cd 0.25416(4) 0.82943(4) 0.77661(4)
C12 C 0.9770(6) 0.0487(8) 0.3972(7)
H16 H 0.9445 0.0044 0.3788
H17 H 0.9520 0.1007 0.3856
C13 C 0.9876(8) 0.0408(8) 0.4869(8)
H19 H 0.9400 0.0537 0.5128
H27 H 0.8217 0.0300 0.7434
C20 C 0.9217(6) 0.0220(7) 0.6843(6)
H28 H 0.9432 0.0743 0.6886
C19 C 0.1453(6) 0.9968(7) 0.7855(6)
C21 C 0.0980(5) 0.8923(6) 0.8460(6)
H29 H 0.0914 0.8398 0.8675
N5 N 0.1574(5) 0.9155(5) 0.8035(5)
N6 N 0.0488(5) 0.9545(5) 0.8538(5)
C29 C 0.2453(6) 0.7206(7) 0.6524(6)
C30 C 0.2279(7) 0.6544(7) 0.5901(8)
H41 H 0.1990 0.6797 0.5476
H42 H 0.1962 0.6126 0.6144
C31 C 0.2956(7) 0.6122(7) 0.5541(7)
H43 H 0.3239 0.6520 0.5229
H44 H 0.3283 0.5926 0.5964
C32 C 0.2740(7) 0.5398(7) 0.5015(7)
H45 H 0.3174 0.5246 0.4695
H46 H 0.2343 0.5575 0.4656
C33 C 0.2472(6) 0.4648(7) 0.5458(7)
H47 H 0.2874 0.4466 0.5809
H48 H 0.2047 0.4805 0.5788
C34 C 0.2235(7) 0.3919(7) 0.4941(8)
H49 H 0.1901 0.4118 0.4526
H50 H 0.1951 0.3531 0.5264
C35 C 0.2885(6) 0.3470(7) 0.4564(7)
H51 H 0.3196 0.3235 0.4981
H52 H 0.3192 0.3869 0.4279
C36 C 0.2670(7) 0.2795(7) 0.4002(6)
O5 O 0.1921(4) 0.7685(5) 0.6703(4)
O6 O 0.3069(5) 0.7254(5) 0.6869(5)
N9 N 0.3430(5) 0.9214(5) 0.7408(5)
H13 H 0.8217 0.9700 0.2434
C10 C 0.9217(6) 0.9780(7) 0.1843(6)
H14 H 0.9432 0.9257 0.1886
C14 C 0.6512(6) 0.9961(7) 0.2446(6)
H20 H 0.6820 0.9663 0.2101
C15 C 0.5942(6) 0.9641(7) 0.2874(6)
H21 H 0.5789 0.9091 0.2881
H23 H 0.4667 0.9792 0.3724
H26 H 0.5591 0.9515 0.4685
H33 H 0.9400 0.9463 0.0128
C26 C 0.3974(6) 0.9043(7) 0.6891(6)
H36 H 0.4070 0.8520 0.6684
C27 C 0.4979(6) 0.9780(8) 0.6119(6)
H38 H 0.5249 0.9258 0.6108
C28 C 0.4686(6) 0.9968(7) 0.5302(6)
H39 H 0.4339 0.9535 0.5141
N8 N 0.4369(5) 0.9731(6) 0.6707(5)
H13_2 H 0.1783 0.9700 0.2566
C10_2 C 0.0783(6) 0.9780(7) 0.3157(6)
H14_2 H 0.0568 0.9257 0.3114
C14_2 C 0.3488(6) 0.9961(7) 0.2554(6)
H20_2 H 0.3180 0.9663 0.2899
C15_2 C 0.4058(6) 0.9641(7) 0.2126(6)
H21_2 H 0.4211 0.9091 0.2119
H23_2 H 0.5333 0.9792 0.1276
H26_2 H 0.4409 0.9515 0.0315
C22 C 0.0230(6) 0.9513(8) 0.6028(7)
H30 H 0.0555 0.9956 0.6212
H31 H 0.0480 0.8993 0.6144
C23 C 0.0124(8) 0.9592(8) 0.5131(8)
H33_2 H 0.0600 0.9463 0.4872
C26_2 C 0.6026(6) 0.9043(7) 0.8109(6)
H36_2 H 0.5930 0.8520 0.8316
C27_2 C 0.5021(6) 0.9780(8) 0.8881(6)
H38_2 H 0.4751 0.9258 0.8892
C28_2 C 0.5314(6) 0.9968(7) 0.9698(6)
H39_2 H 0.5661 0.9535 0.9859
N7 N 0.6570(5) 0.9214(5) 0.7592(5)
N8_2 N 0.5631(5) 0.9731(6) 0.8293(5)
Cd4 Cd 0.74584(4) 0.82943(4) 0.72339(4)
H45_2 H 0.6826 0.5246 0.0305
H46_2 H 0.7657 0.5575 0.0344
C34_2 C 0.7765(7) 0.3919(7) 0.0059(8)
H49_2 H 0.8099 0.4118 0.0474
C35_2 C 0.7115(6) 0.3470(7) 0.0436(7)
H51_2 H 0.6804 0.3235 0.0019
H52_2 H 0.6808 0.3869 0.0721
C36_2 C 0.7330(7) 0.2795(7) 0.0998(6)
O7 O 0.6824(5) 0.2275(5) 0.1171(5)
O8 O 0.7957(5) 0.2766(5) 0.1327(5)
Cd3 Cd 0.74584(4) 0.17057(4) 0.22339(4)
C19_2 C 0.8547(6) 0.9968(7) 0.7145(6)
C21_2 C 0.9020(5) 0.8923(6) 0.6540(6)
H29_2 H 0.9086 0.8398 0.6325
H32 H 0.9756 0.9185 0.4959
N5_2 N 0.8426(5) 0.9155(5) 0.6965(5)
N6_2 N 0.9512(5) 0.9545(5) 0.6462(5)
C29_2 C 0.7547(6) 0.7206(7) 0.8476(6)
C30_2 C 0.7721(7) 0.6544(7) 0.9099(8)
H41_2 H 0.8010 0.6797 0.9524
H42_2 H 0.8038 0.6126 0.8856
C31_2 C 0.7044(7) 0.6122(7) 0.9459(7)
H43_2 H 0.6761 0.6520 0.9771
H44_2 H 0.6717 0.5926 0.9036
C32_2 C 0.7260(7) 0.5398(7) 0.9985(7)
C33_2 C 0.7528(6) 0.4648(7) 0.9542(7)
H47_2 H 0.7126 0.4466 0.9191
H48_2 H 0.7953 0.4805 0.9212
H50_2 H 0.8049 0.3531 0.9736
O5_2 O 0.8079(4) 0.7685(5) 0.8297(4)
O6_2 O 0.6931(5) 0.7254(5) 0.8131(5)
O9 O 0.6824(5) 0.7725(5) 0.6171(5)
O11 O 0.7957(5) 0.7234(5) 0.6327(5)
H19_2 H 0.0600 0.0537 0.9872
H27_2 H 0.1783 0.0300 0.7566
C20_2 C 0.0783(6) 0.0220(7) 0.8157(6)
H28_2 H 0.0568 0.0743 0.8114
C1_2 C 0.7547(6) 0.2794(7) 0.3476(6)
C2_2 C 0.7721(7) 0.3456(7) 0.4099(8)
H1_2 H 0.8010 0.3203 0.4524
H2_2 H 0.8038 0.3874 0.3856
C3_2 C 0.7044(7) 0.3878(7) 0.4459(7)
H3_2 H 0.6761 0.3480 0.4771
H4_2 H 0.6717 0.4074 0.4036
C4_2 C 0.7260(7) 0.4602(7) 0.4985(7)
H5_2 H 0.6826 0.4754 0.5305
H6_2 H 0.7657 0.4425 0.5344
C5_2 C 0.7528(6) 0.5352(7) 0.4542(7)
H7_2 H 0.7126 0.5534 0.4191
H8_2 H 0.7953 0.5195 0.4212
C6_2 C 0.7765(7) 0.6081(7) 0.5059(8)
H9_2 H 0.8099 0.5882 0.5474
H10_2 H 0.8049 0.6469 0.4736
C7_2 C 0.7115(6) 0.6530(7) 0.5436(7)
H11_2 H 0.6804 0.6765 0.5019
H12_2 H 0.6808 0.6131 0.5721
C8_2 C 0.7330(7) 0.7205(7) 0.5998(6)
C9_2 C 0.8547(6) 0.0032(7) 0.2145(6)
C11_2 C 0.9020(5) 0.1077(6) 0.1540(6)
H15_2 H 0.9086 0.1602 0.1325
C16_2 C 0.6026(6) 0.0957(7) 0.3109(6)
H22_2 H 0.5930 0.1480 0.3316
C17_2 C 0.5021(6) 0.0220(8) 0.3881(6)
H24_2 H 0.4751 0.0742 0.3892
C18_2 C 0.5314(6) 0.0032(7) 0.4698(6)
H25_2 H 0.5661 0.0465 0.4859
N1_2 N 0.8426(5) 0.0845(5) 0.1965(5)
N2_2 N 0.9512(5) 0.0455(5) 0.1462(5)
N3_2 N 0.6570(5) 0.0786(5) 0.2592(5)
N4_2 N 0.5631(5) 0.0269(6) 0.3293(5)
O1_2 O 0.8079(4) 0.2315(5) 0.3297(4)
O2_2 O 0.6931(5) 0.2746(5) 0.3131(5)
C24_2 C 0.3488(6) 0.0039(7) 0.7554(6)
H34_2 H 0.3180 0.0337 0.7899
C25_2 C 0.4058(6) 0.0359(7) 0.7126(6)
H35_2 H 0.4211 0.0909 0.7119
H37_2 H 0.5333 0.0208 0.6276
H40_2 H 0.4409 0.0485 0.5315
C33_3 C 0.7472(6) 0.0352(7) 0.4542(7)
H47_3 H 0.7874 0.0534 0.4191
H48_3 H 0.7047 0.0195 0.4212
C34_3 C 0.7235(7) 0.1081(7) 0.5059(8)
H49_3 H 0.6901 0.0882 0.5474
H50_3 H 0.6951 0.1469 0.4736
C35_3 C 0.7885(6) 0.1530(7) 0.5436(7)
H51_3 H 0.8196 0.1765 0.5019
H52_3 H 0.8192 0.1131 0.5721
C36_3 C 0.7670(7) 0.2205(7) 0.5998(6)
O7_2 O 0.8176(5) 0.2725(5) 0.6171(5)
O8_2 O 0.7043(5) 0.2234(5) 0.6327(5)
Cd3_2 Cd 0.75416(4) 0.32943(4) 0.72339(4)
C5_3 C 0.2528(6) 0.9648(7) 0.5458(7)
H7_3 H 0.2126 0.9466 0.5809
H8_3 H 0.2953 0.9805 0.5788
C6_3 C 0.2765(7) 0.8919(7) 0.4941(8)
H9_3 H 0.3099 0.9118 0.4526
H10_3 H 0.3049 0.8531 0.5264
C7_3 C 0.2115(6) 0.8470(7) 0.4564(7)
H11_3 H 0.1804 0.8235 0.4981
H12_3 H 0.1808 0.8869 0.4279
C8_3 C 0.2330(7) 0.7795(7) 0.4002(6)
O3_2 O 0.1824(5) 0.7275(5) 0.3829(5)
O4_2 O 0.2957(5) 0.7766(5) 0.3673(5)
Cd5_2 Cd 0.24584(4) 0.67057(4) 0.27661(4)
C24_3 C 0.1512(6) 0.4961(7) 0.2554(6)
H34_3 H 0.1820 0.4663 0.2899
C25_3 C 0.0942(6) 0.4641(7) 0.2126(6)
H35_3 H 0.0789 0.4091 0.2119
C26_3 C 0.1026(6) 0.5957(7) 0.1891(6)
H36_3 H 0.0930 0.6480 0.1684
C27_3 C 0.0021(6) 0.5220(8) 0.1119(6)
C28_3 C 0.0314(6) 0.5032(7) 0.0302(6)
H39_3 H 0.0661 0.5465 0.0141
H40_3 H 0.0591 0.4515 0.0315
N7_2 N 0.1570(5) 0.5786(5) 0.2408(5)
N8_3 N 0.0631(5) 0.5269(6) 0.1707(5)
C1_3 C 0.7453(6) 0.2206(7) 0.8476(6)
C2_3 C 0.7279(7) 0.1544(7) 0.9099(8)
H1_3 H 0.6990 0.1797 0.9524
H2_3 H 0.6962 0.1126 0.8856
C3_3 C 0.7956(7) 0.1122(7) 0.9459(7)
H3_3 H 0.8239 0.1520 0.9771
H4_3 H 0.8283 0.0926 0.9036
C4_3 C 0.7740(7) 0.0398(7) 0.9985(7)
C9_3 C 0.6453(6) 0.4968(7) 0.7145(6)
H13_3 H 0.6783 0.5300 0.7434
C10_3 C 0.5783(6) 0.5220(7) 0.6843(6)
H14_3 H 0.5568 0.5743 0.6886
C11_3 C 0.5980(5) 0.3923(6) 0.6540(6)
H15_3 H 0.5914 0.3398 0.6325
C12_2 C 0.4770(6) 0.4513(8) 0.6028(7)
H16_2 H 0.4445 0.4956 0.6212
H17_2 H 0.4520 0.3993 0.6144
C13_2 C 0.4876(8) 0.4592(8) 0.5131(8)
H18_2 H 0.5244 0.4185 0.4959
H19_3 H 0.4400 0.4463 0.4872
C14_3 C 0.8488(6) 0.5039(7) 0.7446(6)
H20_3 H 0.8180 0.5337 0.7101
C15_3 C 0.9058(6) 0.5359(7) 0.7874(6)
H21_3 H 0.9211 0.5909 0.7881
C16_3 C 0.8974(6) 0.4043(7) 0.8109(6)
H22_3 H 0.9070 0.3520 0.8316
C17_3 C 0.9979(6) 0.4780(8) 0.8881(6)
C18_3 C 0.9686(6) 0.4968(7) 0.9698(6)
H25_3 H 0.9339 0.4535 0.9859
H26_3 H 0.9409 0.5485 0.9685
N1_3 N 0.6574(5) 0.4155(5) 0.6965(5)
N2_3 N 0.5488(5) 0.4545(5) 0.6462(5)
N3_3 N 0.8430(5) 0.4214(5) 0.7592(5)
N4_3 N 0.9369(5) 0.4731(6) 0.8293(5)
O1_3 O 0.6921(4) 0.2685(5) 0.8297(4)
O2_3 O 0.8069(5) 0.2254(5) 0.8131(5)
C19_3 C 0.3547(6) 0.5032(7) 0.2855(6)
H27_3 H 0.3217 0.4700 0.2566
C20_3 C 0.4217(6) 0.4780(7) 0.3157(6)
H28_3 H 0.4432 0.4257 0.3114
C21_3 C 0.4020(5) 0.6077(6) 0.3460(6)
H29_3 H 0.4086 0.6602 0.3675
C22_2 C 0.5230(6) 0.5487(8) 0.3972(7)
H30_2 H 0.5555 0.5044 0.3788
H31_2 H 0.5480 0.6007 0.3856
C23_2 C 0.5124(8) 0.5408(8) 0.4869(8)
H32_2 H 0.4756 0.5815 0.5041
H33_3 H 0.5600 0.5537 0.5128
N5_3 N 0.3426(5) 0.5845(5) 0.3035(5)
N6_3 N 0.4512(5) 0.5455(5) 0.3538(5)
C29_3 C 0.2547(6) 0.7794(7) 0.1524(6)
C30_3 C 0.2721(7) 0.8456(7) 0.0901(8)
H41_3 H 0.3010 0.8203 0.0476
H42_3 H 0.3038 0.8874 0.1144
C31_3 C 0.2044(7) 0.8878(7) 0.0541(7)
H43_3 H 0.1761 0.8480 0.0229
H44_3 H 0.1717 0.9074 0.0964
C32_3 C 0.2260(7) 0.9602(7) 0.0015(7)
O5_3 O 0.3079(4) 0.7315(5) 0.1703(4)
O6_3 O 0.1931(5) 0.7746(5) 0.1869(5)
H18_3 H 0.4756 0.4185 0.0041
H19_4 H 0.5600 0.4463 0.0128
C19_4 C 0.6453(6) 0.5032(7) 0.2145(6)
H27_4 H 0.6783 0.4700 0.2434
C20_4 C 0.5783(6) 0.4780(7) 0.1843(6)
H28_4 H 0.5568 0.4257 0.1886
C21_4 C 0.5980(5) 0.6077(6) 0.1540(6)
H29_4 H 0.5914 0.6602 0.1325
C22_3 C 0.4770(6) 0.5487(8) 0.1028(7)
H30_3 H 0.4445 0.5044 0.1212
H31_3 H 0.4520 0.6007 0.1144
C23_3 C 0.4876(8) 0.5408(8) 0.0131(8)
N5_4 N 0.6574(5) 0.5845(5) 0.1965(5)
N6_4 N 0.5488(5) 0.5455(5) 0.1462(5)
Cd2 Cd 0.75416(4) 0.67057(4) 0.22339(4)
C29_4 C 0.7453(6) 0.7794(7) 0.3476(6)
C30_4 C 0.7279(7) 0.8456(7) 0.4099(8)
H41_4 H 0.6990 0.8203 0.4524
H42_4 H 0.6962 0.8874 0.3856
C31_4 C 0.7956(7) 0.8878(7) 0.4459(7)
H43_4 H 0.8239 0.8480 0.4771
H44_4 H 0.8283 0.9074 0.4036
C32_4 C 0.7740(7) 0.9602(7) 0.4985(7)
H45_3 H 0.8174 0.9754 0.5305
H46_3 H 0.7343 0.9425 0.5344
O5_4 O 0.6921(4) 0.7315(5) 0.3297(4)
O6_4 O 0.8069(5) 0.7746(5) 0.3131(5)
N9_2 N 0.8430(5) 0.5786(5) 0.2592(5)
O9_2 O 0.8176(5) 0.7275(5) 0.1171(5)
O11_2 O 0.7043(5) 0.7766(5) 0.1327(5)
H23_3 H 0.9667 0.5208 0.6276
H24_3 H 0.9751 0.4258 0.6108
C24_4 C 0.8488(6) 0.4961(7) 0.2446(6)
H34_4 H 0.8180 0.4663 0.2101
C25_4 C 0.9058(6) 0.4641(7) 0.2874(6)
H35_4 H 0.9211 0.4091 0.2881
C26_4 C 0.8974(6) 0.5957(7) 0.3109(6)
H36_4 H 0.9070 0.6480 0.3316
C27_4 C 0.9979(6) 0.5220(8) 0.3881(6)
C28_4 C 0.9686(6) 0.5032(7) 0.4698(6)
H39_4 H 0.9339 0.5465 0.4859
H40_4 H 0.9409 0.4515 0.4685
N8_4 N 0.9369(5) 0.5269(6) 0.3293(5)
C6_4 C 0.7235(7) 0.8919(7) 0.0059(8)
H9_4 H 0.6901 0.9118 0.0474
C7_4 C 0.7885(6) 0.8470(7) 0.0436(7)
H11_4 H 0.8196 0.8235 0.0019
H12_4 H 0.8192 0.8869 0.0721
C8_4 C 0.7670(7) 0.7795(7) 0.0998(6)
Cd1_2 Cd 0.24584(4) 0.32943(4) 0.77661(4)
C1_4 C 0.2547(6) 0.2206(7) 0.6524(6)
C2_4 C 0.2721(7) 0.1544(7) 0.5901(8)
H1_4 H 0.3010 0.1797 0.5476
H2_4 H 0.3038 0.1126 0.6144
C3_4 C 0.2044(7) 0.1122(7) 0.5541(7)
H3_4 H 0.1761 0.1520 0.5229
H4_4 H 0.1717 0.0926 0.5964
C4_4 C 0.2260(7) 0.0398(7) 0.5015(7)
H5_3 H 0.1826 0.0246 0.4695
H6_3 H 0.2657 0.0575 0.4656
C9_4 C 0.3547(6) 0.4968(7) 0.7855(6)
H13_4 H 0.3217 0.5300 0.7566
C10_4 C 0.4217(6) 0.5220(7) 0.8157(6)
H14_4 H 0.4432 0.5743 0.8114
C11_4 C 0.4020(5) 0.3923(6) 0.8460(6)
H15_4 H 0.4086 0.3398 0.8675
C12_3 C 0.5230(6) 0.4513(8) 0.8972(7)
H16_3 H 0.5555 0.4956 0.8788
H17_3 H 0.5480 0.3993 0.8856
C13_3 C 0.5124(8) 0.4592(8) 0.9869(8)
C14_4 C 0.1512(6) 0.5039(7) 0.7554(6)
H20_4 H 0.1820 0.5337 0.7899
C15_4 C 0.0942(6) 0.5359(7) 0.7126(6)
H21_4 H 0.0789 0.5909 0.7119
C16_4 C 0.1026(6) 0.4043(7) 0.6891(6)
H22_4 H 0.0930 0.3520 0.6684
C17_4 C 0.0021(6) 0.4780(8) 0.6119(6)
C18_4 C 0.0314(6) 0.4968(7) 0.5302(6)
H25_4 H 0.0661 0.4535 0.5141
H26_4 H 0.0591 0.5485 0.5315
N1_4 N 0.3426(5) 0.4155(5) 0.8035(5)
N2_4 N 0.4512(5) 0.4545(5) 0.8538(5)
N3_4 N 0.1570(5) 0.4214(5) 0.7408(5)
N4_4 N 0.0631(5) 0.4731(6) 0.6707(5)
O1_4 O 0.3079(4) 0.2685(5) 0.6703(4)
O2_4 O 0.1931(5) 0.2254(5) 0.6869(5)
H32_3 H 0.5244 0.5815 0.9959
H33_4 H 0.4400 0.5537 0.9872
H37_3 H 0.0333 0.4792 0.3724
H38_3 H 0.0249 0.5742 0.3892
O10_2 O 0.1824(5) 0.2725(5) 0.8829(5)
O12_2 O 0.2957(5) 0.2234(5) 0.8673(5)
C34_4 C 0.2765(7) 0.1081(7) 0.9941(8)
H49_4 H 0.3099 0.0882 0.9526
C35_4 C 0.2115(6) 0.1530(7) 0.9564(7)
H51_4 H 0.1804 0.1765 0.9981
H52_4 H 0.1808 0.1131 0.9279
C36_4 C 0.2330(7) 0.2205(7) 0.9002(6)
H23_4 H 0.0333 0.5208 0.8724
H24_4 H 0.0249 0.4258 0.8892
H45_4 H 0.1826 0.9754 0.9695
H46_4 H 0.2657 0.9425 0.9656
C33_4 C 0.2528(6) 0.0352(7) 0.0458(7)
H47_4 H 0.2126 0.0534 0.0809
H48_4 H 0.2953 0.0195 0.0788
H50_4 H 0.3049 0.1469 0.0264
H5_4 H 0.8174 0.0246 0.0305
H6_4 H 0.7343 0.0575 0.0344
H37_4 H 0.9667 0.4792 0.1276
H38_4 H 0.9751 0.5742 0.1108
C5_4 C 0.7472(6) 0.9648(7) 0.9542(7)
H7_4 H 0.7874 0.9466 0.9191
H8_4 H 0.7047 0.9805 0.9212
H10_4 H 0.6951 0.8531 0.9736
C12_4 C 0.0230(6) 0.0487(8) 0.1028(7)
H16_4 H 0.0555 0.0044 0.1212
H17_4 H 0.0480 0.1007 0.1144
C13_4 C 0.0124(8) 0.0408(8) 0.0131(8)
H32_4 H 0.0244 0.9185 0.0041
H18_4 H 0.9756 0.0815 0.9959
C22_4 C 0.9770(6) 0.9513(8) 0.8972(7)
H30_4 H 0.9445 0.9956 0.8788
H31_4 H 0.9520 0.8993 0.8856
C23_4 C 0.9876(8) 0.9592(8) 0.9869(8)
loop_
_geom_bond_atom_site_label_1
_geom_bond_atom_site_label_2
_geom_bond_site_symmetry_1
_geom_bond_site_symmetry_2
Cd1 N1 1_555 1_555
C1 C2 1_555 1_555
C2 H1 1_555 1_555
H2 C2 1_555 1_555
C3 C2 1_555 1_555
H3 C3 1_555 1_555
H4 C3 1_555 1_555
C4 C3 1_555 1_555
C5 C4 1_555 1_555
H7 C5 1_555 1_555
H8 C5 1_555 1_555
C11 H15 1_555 1_555
C16 H22 1_555 1_555
H24 C17 1_555 1_555
C18 C17 1_555 1_555
H25 C18 1_555 1_555
N1 C9 1_555 1_555
N3 Cd1 1_555 1_555
O1 Cd1 1_555 1_555
O2 Cd1 1_555 1_555
O10 Cd1 1_555 1_555
O12 Cd1 1_555 1_555
C1 O1 1_555 1_555
C1 O2 1_555 1_555
C11 N1 1_555 1_555
C11 N2 1_555 1_555
C16 N3 1_555 1_555
C16 N4 1_555 1_555
C17 N4 1_555 1_555
H9 C6 1_555 1_555
C7 C6 1_555 1_555
H11 C7 1_555 1_555
H12 C7 1_555 1_555
C8 C7 1_555 1_555
O3 C8 1_555 1_555
O4 C8 1_555 1_555
C24 H34 1_555 1_555
C25 C24 1_555 1_555
H35 C25 1_555 1_555
Cd5 O3 1_555 1_555
O4 Cd5 1_555 1_555
C12 H16 1_555 1_555
H17 C12 1_555 1_555
C13 C12 1_555 1_555
H19 C13 1_555 1_555
H28 C20 1_555 1_555
C21 H29 1_555 1_555
N5 C19 1_555 1_555
Cd5 N5 1_555 1_555
C29 C30 1_555 1_555
C30 H41 1_555 1_555
H42 C30 1_555 1_555
C31 C30 1_555 1_555
H43 C31 1_555 1_555
H44 C31 1_555 1_555
C32 C31 1_555 1_555
H45 C32 1_555 1_555
H46 C32 1_555 1_555
C33 C32 1_555 1_555
H47 C33 1_555 1_555
H48 C33 1_555 1_555
C34 C33 1_555 1_555
H49 C34 1_555 1_555
H50 C34 1_555 1_555
C35 C34 1_555 1_555
H51 C35 1_555 1_555
H52 C35 1_555 1_555
C36 C35 1_555 1_555
O5 Cd5 1_555 1_555
O6 Cd5 1_555 1_555
O10 C36 1_555 1_555
O12 C36 1_555 1_555
N9 Cd5 1_555 1_555
C21 N5 1_555 1_555
C21 N6 1_555 1_555
C29 O5 1_555 1_555
C29 O6 1_555 1_555
H14 C10 1_555 1_555
C14 H20 1_555 1_555
C15 C14 1_555 1_555
H21 C15 1_555 1_555
C26 H36 1_555 1_555
H38 C27 1_555 1_555
H39 C28 1_555 1_555
C26 N9 1_555 1_555
C26 N8 1_555 1_555
C27 C28 1_555 1_555
C27 N8 1_555 1_555
H14_2 C10_2 1_555 1_555
C14_2 H20_2 1_555 1_555
C15_2 C14_2 1_555 1_555
H21_2 C15_2 1_555 1_555
C22 H30 1_555 1_555
H31 C22 1_555 1_555
H33_2 C23 1_555 1_555
C22 C23 1_555 1_555
C26_2 H36_2 1_555 1_555
H38_2 C27_2 1_555 1_555
H39_2 C28_2 1_555 1_555
Cd4 N7 1_555 1_555
C26_2 N7 1_555 1_555
C26_2 N8_2 1_555 1_555
C27_2 C28_2 1_555 1_555
C27_2 N8_2 1_555 1_555
H49_2 C34_2 1_555 1_555
C35_2 C34_2 1_555 1_555
H51_2 C35_2 1_555 1_555
H52_2 C35_2 1_555 1_555
C36_2 C35_2 1_555 1_555
O7 C36_2 1_555 1_555
O8 C36_2 1_555 1_555
Cd3 O7 1_555 1_555
O8 Cd3 1_555 1_555
C21_2 H29_2 1_555 1_555
N5_2 C19_2 1_555 1_555
Cd4 N5_2 1_555 1_555
C29_2 C30_2 1_555 1_555
C30_2 H41_2 1_555 1_555
H42_2 C30_2 1_555 1_555
C31_2 C30_2 1_555 1_555
H43_2 C31_2 1_555 1_555
H44_2 C31_2 1_555 1_555
C32_2 C31_2 1_555 1_555
C33_2 C32_2 1_555 1_555
H47_2 C33_2 1_555 1_555
H48_2 C33_2 1_555 1_555
O5_2 Cd4 1_555 1_555
O6_2 Cd4 1_555 1_555
O9 Cd4 1_555 1_555
O11 Cd4 1_555 1_555
C21_2 N5_2 1_555 1_555
C21_2 N6_2 1_555 1_555
C29_2 O5_2 1_555 1_555
C29_2 O6_2 1_555 1_555
H28_2 C20_2 1_555 1_555
Cd3 N1_2 1_555 1_555
C1_2 C2_2 1_555 1_555
C2_2 H1_2 1_555 1_555
H2_2 C2_2 1_555 1_555
C3_2 C2_2 1_555 1_555
H3_2 C3_2 1_555 1_555
H4_2 C3_2 1_555 1_555
C4_2 C3_2 1_555 1_555
H5_2 C4_2 1_555 1_555
H6_2 C4_2 1_555 1_555
C5_2 C4_2 1_555 1_555
H7_2 C5_2 1_555 1_555
H8_2 C5_2 1_555 1_555
C6_2 C5_2 1_555 1_555
H9_2 C6_2 1_555 1_555
H10_2 C6_2 1_555 1_555
C7_2 C6_2 1_555 1_555
H11_2 C7_2 1_555 1_555
H12_2 C7_2 1_555 1_555
C8_2 C7_2 1_555 1_555
C11_2 H15_2 1_555 1_555
C16_2 H22_2 1_555 1_555
H24_2 C17_2 1_555 1_555
C18_2 C17_2 1_555 1_555
H25_2 C18_2 1_555 1_555
N1_2 C9_2 1_555 1_555
N3_2 Cd3 1_555 1_555
O1_2 Cd3 1_555 1_555
O2_2 Cd3 1_555 1_555
O9 C8_2 1_555 1_555
O11 C8_2 1_555 1_555
C24_2 H34_2 1_555 1_555
C25_2 C24_2 1_555 1_555
H35_2 C25_2 1_555 1_555
C1_2 O1_2 1_555 1_555
C1_2 O2_2 1_555 1_555
C11_2 N1_2 1_555 1_555
C11_2 N2_2 1_555 1_555
C16_2 N3_2 1_555 1_555
C16_2 N4_2 1_555 1_555
C17_2 N4_2 1_555 1_555
H47_3 C33_3 1_555 1_555
H48_3 C33_3 1_555 1_555
C34_3 C33_3 1_555 1_555
H49_3 C34_3 1_555 1_555
H50_3 C34_3 1_555 1_555
C35_3 C34_3 1_555 1_555
H51_3 C35_3 1_555 1_555
H52_3 C35_3 1_555 1_555
C36_3 C35_3 1_555 1_555
O7_2 C36_3 1_555 1_555
O8_2 C36_3 1_555 1_555
Cd3_2 O7_2 1_555 1_555
O8_2 Cd3_2 1_555 1_555
H7_3 C5_3 1_555 1_555
H8_3 C5_3 1_555 1_555
C6_3 C5_3 1_555 1_555
H9_3 C6_3 1_555 1_555
H10_3 C6_3 1_555 1_555
C7_3 C6_3 1_555 1_555
H11_3 C7_3 1_555 1_555
H12_3 C7_3 1_555 1_555
C8_3 C7_3 1_555 1_555
O3_2 C8_3 1_555 1_555
O4_2 C8_3 1_555 1_555
Cd5_2 O3_2 1_555 1_555
O4_2 Cd5_2 1_555 1_555
C24_3 H34_3 1_555 1_555
C25_3 C24_3 1_555 1_555
H35_3 C25_3 1_555 1_555
C26_3 H36_3 1_555 1_555
H39_3 C28_3 1_555 1_555
H40_3 C28_3 1_555 1_555
N7_2 C24_3 1_555 1_555
N8_3 C25_3 1_555 1_555
Cd5_2 N7_2 1_555 1_555
C26_3 N7_2 1_555 1_555
C26_3 N8_3 1_555 1_555
C27_3 C28_3 1_555 1_555
C27_3 N8_3 1_555 1_555
Cd3_2 N1_3 1_555 1_555
C1_3 C2_3 1_555 1_555
C2_3 H1_3 1_555 1_555
H2_3 C2_3 1_555 1_555
C3_3 C2_3 1_555 1_555
H3_3 C3_3 1_555 1_555
H4_3 C3_3 1_555 1_555
C4_3 C3_3 1_555 1_555
C9_3 H13_3 1_555 1_555
C10_3 C9_3 1_555 1_555
H14_3 C10_3 1_555 1_555
C11_3 H15_3 1_555 1_555
C12_2 H16_2 1_555 1_555
H17_2 C12_2 1_555 1_555
C13_2 C12_2 1_555 1_555
H18_2 C13_2 1_555 1_555
H19_3 C13_2 1_555 1_555
C14_3 H20_3 1_555 1_555
C15_3 C14_3 1_555 1_555
H21_3 C15_3 1_555 1_555
C16_3 H22_3 1_555 1_555
C18_3 C17_3 1_555 1_555
H25_3 C18_3 1_555 1_555
H26_3 C18_3 1_555 1_555
N1_3 C9_3 1_555 1_555
N2_3 C10_3 1_555 1_555
N3_3 Cd3_2 1_555 1_555
N4_3 C15_3 1_555 1_555
O1_3 Cd3_2 1_555 1_555
O2_3 Cd3_2 1_555 1_555
C19_3 H27_3 1_555 1_555
C20_3 C19_3 1_555 1_555
H28_3 C20_3 1_555 1_555
C21_3 H29_3 1_555 1_555
C22_2 H30_2 1_555 1_555
H31_2 C22_2 1_555 1_555
C23_2 C13_2 1_555 1_555
H32_2 C23_2 1_555 1_555
H33_3 C23_2 1_555 1_555
N5_3 C19_3 1_555 1_555
N6_3 C20_3 1_555 1_555
Cd5_2 N5_3 1_555 1_555
C29_3 C30_3 1_555 1_555
C30_3 H41_3 1_555 1_555
H42_3 C30_3 1_555 1_555
C31_3 C30_3 1_555 1_555
H43_3 C31_3 1_555 1_555
H44_3 C31_3 1_555 1_555
C32_3 C31_3 1_555 1_555
O5_3 Cd5_2 1_555 1_555
O6_3 Cd5_2 1_555 1_555
C1_3 O1_3 1_555 1_555
C1_3 O2_3 1_555 1_555
C11_3 N1_3 1_555 1_555
C11_3 N2_3 1_555 1_555
C12_2 N2_3 1_555 1_555
C14_3 N3_3 1_555 1_555
C16_3 N3_3 1_555 1_555
C16_3 N4_3 1_555 1_555
C17_3 N4_3 1_555 1_555
C21_3 N5_3 1_555 1_555
C21_3 N6_3 1_555 1_555
C22_2 C23_2 1_555 1_555
C22_2 N6_3 1_555 1_555
C29_3 O5_3 1_555 1_555
C29_3 O6_3 1_555 1_555
C19_4 H27_4 1_555 1_555
C20_4 C19_4 1_555 1_555
H28_4 C20_4 1_555 1_555
C21_4 H29_4 1_555 1_555
C22_3 H30_3 1_555 1_555
H31_3 C22_3 1_555 1_555
N5_4 C19_4 1_555 1_555
N6_4 C20_4 1_555 1_555
Cd2 N5_4 1_555 1_555
C29_4 C30_4 1_555 1_555
C30_4 H41_4 1_555 1_555
H42_4 C30_4 1_555 1_555
C31_4 C30_4 1_555 1_555
H43_4 C31_4 1_555 1_555
H44_4 C31_4 1_555 1_555
C32_4 C31_4 1_555 1_555
H45_3 C32_4 1_555 1_555
H46_3 C32_4 1_555 1_555
O5_4 Cd2 1_555 1_555
O6_4 Cd2 1_555 1_555
N9_2 Cd2 1_555 1_555
O9_2 Cd2 1_555 1_555
O11_2 Cd2 1_555 1_555
C21_4 N5_4 1_555 1_555
C21_4 N6_4 1_555 1_555
C22_3 C23_3 1_555 1_555
C22_3 N6_4 1_555 1_555
C29_4 O5_4 1_555 1_555
C29_4 O6_4 1_555 1_555
C24_4 H34_4 1_555 1_555
C25_4 C24_4 1_555 1_555
H35_4 C25_4 1_555 1_555
C26_4 H36_4 1_555 1_555
H39_4 C28_4 1_555 1_555
H40_4 C28_4 1_555 1_555
N9_2 C24_4 1_555 1_555
N8_4 C25_4 1_555 1_555
C26_4 N9_2 1_555 1_555
C26_4 N8_4 1_555 1_555
C27_4 C28_4 1_555 1_555
C27_4 N8_4 1_555 1_555
H9_4 C6_4 1_555 1_555
C7_4 C6_4 1_555 1_555
H11_4 C7_4 1_555 1_555
H12_4 C7_4 1_555 1_555
C8_4 C7_4 1_555 1_555
O9_2 C8_4 1_555 1_555
O11_2 C8_4 1_555 1_555
Cd1_2 N1_4 1_555 1_555
C1_4 C2_4 1_555 1_555
C2_4 H1_4 1_555 1_555
H2_4 C2_4 1_555 1_555
C3_4 C2_4 1_555 1_555
H3_4 C3_4 1_555 1_555
H4_4 C3_4 1_555 1_555
C4_4 C3_4 1_555 1_555
H5_3 C4_4 1_555 1_555
H6_3 C4_4 1_555 1_555
C9_4 H13_4 1_555 1_555
C10_4 C9_4 1_555 1_555
H14_4 C10_4 1_555 1_555
C11_4 H15_4 1_555 1_555
C12_3 H16_3 1_555 1_555
H17_3 C12_3 1_555 1_555
C13_3 C12_3 1_555 1_555
C14_4 H20_4 1_555 1_555
C15_4 C14_4 1_555 1_555
H21_4 C15_4 1_555 1_555
C16_4 H22_4 1_555 1_555
C18_4 C17_4 1_555 1_555
H25_4 C18_4 1_555 1_555
H26_4 C18_4 1_555 1_555
N1_4 C9_4 1_555 1_555
N2_4 C10_4 1_555 1_555
N3_4 Cd1_2 1_555 1_555
N4_4 C15_4 1_555 1_555
O1_4 Cd1_2 1_555 1_555
O2_4 Cd1_2 1_555 1_555
O10_2 Cd1_2 1_555 1_555
O12_2 Cd1_2 1_555 1_555
C1_4 O1_4 1_555 1_555
C1_4 O2_4 1_555 1_555
C11_4 N1_4 1_555 1_555
C11_4 N2_4 1_555 1_555
C12_3 N2_4 1_555 1_555
C14_4 N3_4 1_555 1_555
C16_4 N3_4 1_555 1_555
C16_4 N4_4 1_555 1_555
C17_4 N4_4 1_555 1_555
H49_4 C34_4 1_555 1_555
C35_4 C34_4 1_555 1_555
H51_4 C35_4 1_555 1_555
H52_4 C35_4 1_555 1_555
C36_4 C35_4 1_555 1_555
O10_2 C36_4 1_555 1_555
O12_2 C36_4 1_555 1_555
H47_4 C33_4 1_555 1_555
H48_4 C33_4 1_555 1_555
H7_4 C5_4 1_555 1_555
H8_4 C5_4 1_555 1_555
C12_4 H16_4 1_555 1_555
H17_4 C12_4 1_555 1_555
C13_4 C12_4 1_555 1_555
C22_4 H30_4 1_555 1_555
H31_4 C22_4 1_555 1_555
C22_4 C23_4 1_555 1_555

#END
