
###############################################################################
#
# This file contains modified crystal structure data generated from the
# MOF subset of the Cambridge Structural Database (CSD) v543 
# hosted by the Cambridge Crystallographic Data Centre (CCDC).
#
# This work is licensed under the Creative Commons
# Attribution-NonCommercial-ShareAlike 4.0 International License.
# To view a copy of this license, visit
# http://creativecommons.org/licenses/by-nc-sa/4.0/
# or send a letter to
# Creative Commons, PO Box 1866, Mountain View, CA 94042, USA.
#
# CIF created using the CSD Python API on 29 September 2022
# The structure has been converted into the P1 space group
# The structure has a 3D framework
# The original CSD entry IYESUC is in the orthorhombic crystal system
# The framework has been calculated to contain at least 10.0% void space
# The void calculation uses a probe of radius 1.32A, grid spacing 0.4
# H atom positions have been added when not included in the experimental data
# Generated hydrogen atom positions removed from atoms on special positions
#
###############################################################################

data_IYESUC
_chemical_formula_moiety         '(C384 H224 Co12 In6 N40 O62)n'
_symmetry_cell_setting           triclinic
_symmetry_space_group_name_H-M   'P 1'
_symmetry_Int_Tables_number      1
_space_group_name_Hall           'P 1'
loop_
_symmetry_equiv_pos_site_id
_symmetry_equiv_pos_as_xyz
1 x,y,z
_cell_length_a                   14.3986(8)
_cell_length_b                   31.365(2)
_cell_length_c                   32.0647(16)
_cell_angle_alpha                90
_cell_angle_beta                 90
_cell_angle_gamma                90
_cell_volume                     14480.8
loop_
_atom_site_label
_atom_site_type_symbol
_atom_site_fract_x
_atom_site_fract_y
_atom_site_fract_z
In1 In 0.0000 0.28826(2) 0.2500
Co1 Co 0.28887(10) 0.04604(3) 0.5000
C1 C 0.0761(6) 0.23350(16) 0.69889(16)
C2 C 0.1199(5) 0.20368(16) 0.66727(16)
C3 C 0.2097(5) 0.19301(17) 0.66831(16)
H1 H 0.2485 0.2039 0.6898
C4 C 0.1916(5) 0.14732(19) 0.60830(17)
C5 C 0.2470(5) 0.16602(17) 0.63803(16)
H2 H 0.3119 0.1605 0.6380
C6 C 0.0588(6) 0.1853(2) 0.63822(19)
C7 C 0.0957(6) 0.1558(2) 0.6088(2)
H4 H 0.0557 0.1418 0.5897
C8 C 0.2252(5) 0.11736(16) 0.57586(17)
C9 C 0.2248(5) 0.13031(18) 0.53453(16)
C10 C 0.2899(6) 0.0230(2) 0.62979(18)
H5 H 0.2981 0.0045 0.6530
C11 C 0.3146(6) 0.0143(2) 0.58699(18)
C12 C 0.1998(6) 0.17259(19) 0.52139(18)
H6 H 0.1860 0.1961 0.5390
C13 C 0.2533(6) 0.06189(19) 0.63019(18)
H7 H 0.2310 0.0769 0.6539
C18 C 0.2540(5) 0.07683(18) 0.58792(16)
N1 N 0.2918(4) 0.04603(13) 0.56197(14)
N2 N 0.2422(6) 0.1040(2) 0.5000
O1 O 0.1282(3) 0.25203(10) 0.72468(10)
O5 O 0.1578(11) 0.0197(5) 0.5000
C25 C 0.2899(6) 0.0230(2) 0.37021(18)
H13 H 0.2981 0.0045 0.3470
C26 C 0.3146(6) 0.0143(2) 0.41301(18)
C27 C 0.2533(6) 0.06189(19) 0.36981(18)
H14 H 0.2310 0.0769 0.3461
C32 C 0.2540(5) 0.07683(18) 0.41208(16)
N4 N 0.2918(4) 0.04603(13) 0.43803(14)
C39 C 0.0761(6) 0.23350(16) 0.30111(16)
C40 C 0.1199(5) 0.20368(16) 0.33273(16)
C41 C 0.2097(5) 0.19301(17) 0.33169(16)
H20 H 0.2485 0.2039 0.3102
C42 C 0.1916(5) 0.14732(19) 0.39170(17)
C43 C 0.2470(5) 0.16602(17) 0.36197(16)
H21 H 0.3119 0.1605 0.3620
C44 C 0.0588(6) 0.1853(2) 0.36178(19)
C45 C 0.0957(6) 0.1558(2) 0.3912(2)
H23 H 0.0557 0.1418 0.4103
C46 C 0.2252(5) 0.11736(16) 0.42414(17)
C47 C 0.2248(5) 0.13031(18) 0.46547(16)
C48 C 0.1998(6) 0.17259(19) 0.47861(18)
H24 H 0.1860 0.1961 0.4610
O8 O 0.1282(3) 0.25203(10) 0.27532(10)
In3 In -0.0000 0.28826(2) 0.7500
O11 O 0.0097(3) 0.24080(14) 0.19755(13)
O13 O 0.1092(3) 0.32335(12) 0.21115(11)
O14 O 0.0406(4) 0.33968(12) 0.29626(11)
C14 C 0.3831(7) 0.9425(2) 0.60700(18)
C15 C 0.4773(8) 0.9369(2) 0.6185(2)
H8 H 0.5244 0.9545 0.6068
C16 C 0.3601(7) 0.97561(19) 0.57470(17)
C17 C 0.3143(7) 0.9173(2) 0.6240(3)
H9 H 0.2514 0.9214 0.6160
C19 C 0.3858(6) 0.9687(2) 0.5345(2)
C20 C 0.4356(7) 0.9297(3) 0.5219(2)
H10 H 0.4623 0.9088 0.5397
C21 C 0.4298(5) 0.87951(17) 0.66402(16)
C22 C 0.3370(6) 0.8861(2) 0.6526(2)
H11 H 0.2894 0.8691 0.6646
C23 C 0.5003(5) 0.9048(2) 0.6476(2)
H12 H 0.5629 0.9006 0.6558
C24 C 0.4565(6) 0.84545(18) 0.69470(16)
N3 N 0.3590(7) 0.9916(2) 0.5000
O3 O 0.3908(3) 0.82335(12) 0.71115(11)
O4 O 0.5406(4) 0.83968(12) 0.70374(11)
C28 C 0.3831(7) 0.9425(2) 0.39300(18)
C29 C 0.4773(8) 0.9369(2) 0.3815(2)
H15 H 0.5244 0.9545 0.3932
C30 C 0.3601(7) 0.97561(19) 0.42530(17)
C31 C 0.3143(7) 0.9173(2) 0.3760(3)
H16 H 0.2514 0.9214 0.3840
C33 C 0.3858(6) 0.9687(2) 0.4655(2)
C34 C 0.4356(7) 0.9297(3) 0.4781(2)
H17 H 0.4623 0.9088 0.4603
C35 C 0.4298(5) 0.87951(17) 0.33598(16)
C36 C 0.3370(6) 0.8861(2) 0.3474(2)
H18 H 0.2894 0.8691 0.3354
C37 C 0.5003(5) 0.9048(2) 0.3524(2)
H19 H 0.5629 0.9006 0.3442
C38 C 0.4565(6) 0.84545(18) 0.30530(16)
O6 O 0.3908(3) 0.82335(12) 0.28885(11)
O7 O 0.5406(4) 0.83968(12) 0.29626(11)
In2 In 0.5000 0.78826(2) 0.2500
In4 In 0.5000 0.78826(2) 0.7500
In1_2 In 1.0000 0.28826(2) 0.2500
H3 H 0.9946 0.1923 0.6382
O2 O 0.9903(3) 0.24080(14) 0.69755(13)
H22 H 0.9946 0.1923 0.3618
O9 O 0.9903(3) 0.24080(14) 0.30245(13)
In3_2 In 1.0000 0.28826(2) 0.7500
O10 O 0.8718(3) 0.25203(10) 0.22468(10)
O12 O 0.8908(3) 0.32335(12) 0.28885(11)
O15 O 0.9594(4) 0.33968(12) 0.20374(11)
H22_2 H 0.0054 0.1923 0.1382
H3_2 H 0.0054 0.1923 0.8618
O2_2 O 0.0097(3) 0.24080(14) 0.80245(13)
Co1_2 Co 0.71113(10) 0.04604(3) 0.0000
N2_2 N 0.7578(6) 0.1040(2) 0.0000
O5_2 O 0.8422(11) 0.0197(5) 0.0000
C25_2 C 0.7101(6) 0.0230(2) 0.12979(18)
H13_2 H 0.7019 0.0045 0.1530
C26_2 C 0.6854(6) 0.0143(2) 0.08699(18)
C27_2 C 0.7467(6) 0.06189(19) 0.13019(18)
H14_2 H 0.7690 0.0769 0.1539
C32_2 C 0.7460(5) 0.07683(18) 0.08792(16)
N4_2 N 0.7082(4) 0.04603(13) 0.06197(14)
C39_2 C 0.9239(6) 0.23350(16) 0.19889(16)
C40_2 C 0.8801(5) 0.20368(16) 0.16727(16)
C41_2 C 0.7903(5) 0.19301(17) 0.16831(16)
H20_2 H 0.7515 0.2039 0.1898
C42_2 C 0.8084(5) 0.14732(19) 0.10830(17)
C43_2 C 0.7530(5) 0.16602(17) 0.13803(16)
H21_2 H 0.6881 0.1605 0.1380
C44_2 C 0.9412(6) 0.1853(2) 0.13822(19)
C45_2 C 0.9043(6) 0.1558(2) 0.1088(2)
H23_2 H 0.9443 0.1418 0.0897
C46_2 C 0.7748(5) 0.11736(16) 0.07586(17)
C47_2 C 0.7752(5) 0.13031(18) 0.03453(16)
C48_2 C 0.8002(6) 0.17259(19) 0.02139(18)
H24_2 H 0.8140 0.1961 0.0390
H26 H 0.863485 0.0157047 0.0291964
Co1_3 Co 0.71113(10) 0.04604(3) 1.0000
C1_2 C 0.9239(6) 0.23350(16) 0.80111(16)
C2_2 C 0.8801(5) 0.20368(16) 0.83273(16)
C3_2 C 0.7903(5) 0.19301(17) 0.83169(16)
H1_2 H 0.7515 0.2039 0.8102
C4_2 C 0.8084(5) 0.14732(19) 0.89170(17)
C5_2 C 0.7530(5) 0.16602(17) 0.86197(16)
H2_2 H 0.6881 0.1605 0.8620
C6_2 C 0.9412(6) 0.1853(2) 0.86178(19)
C7_2 C 0.9043(6) 0.1558(2) 0.8912(2)
H4_2 H 0.9443 0.1418 0.9103
C8_2 C 0.7748(5) 0.11736(16) 0.92414(17)
C9_2 C 0.7752(5) 0.13031(18) 0.96547(16)
C10_2 C 0.7101(6) 0.0230(2) 0.87021(18)
H5_2 H 0.7019 0.0045 0.8470
C11_2 C 0.6854(6) 0.0143(2) 0.91301(18)
C12_2 C 0.8002(6) 0.17259(19) 0.97861(18)
H6_2 H 0.8140 0.1961 0.9610
C13_2 C 0.7467(6) 0.06189(19) 0.86981(18)
H7_2 H 0.7690 0.0769 0.8461
C18_2 C 0.7460(5) 0.07683(18) 0.91208(16)
N1_2 N 0.7082(4) 0.04603(13) 0.93803(14)
N2_3 N 0.7578(6) 0.1040(2) 1.0000
O1_2 O 0.8718(3) 0.25203(10) 0.77532(10)
O5_3 O 0.8422(11) 0.0197(5) 1.0000
H25 H 0.885727 0.039029 0.985183
N3_2 N 0.6410(7) 0.9916(2) 0.0000
C28_2 C 0.6169(7) 0.9425(2) 0.10700(18)
C29_2 C 0.5227(8) 0.9369(2) 0.1185(2)
H15_2 H 0.4756 0.9545 0.1068
C30_2 C 0.6399(7) 0.97561(19) 0.07470(17)
C31_2 C 0.6857(7) 0.9173(2) 0.1240(3)
H16_2 H 0.7486 0.9214 0.1160
C33_2 C 0.6142(6) 0.9687(2) 0.0345(2)
C34_2 C 0.5644(7) 0.9297(3) 0.0219(2)
H17_2 H 0.5377 0.9088 0.0397
C35_2 C 0.5702(5) 0.87951(17) 0.16402(16)
C36_2 C 0.6630(6) 0.8861(2) 0.1526(2)
H18_2 H 0.7106 0.8691 0.1646
C37_2 C 0.4997(5) 0.9048(2) 0.1476(2)
H19_2 H 0.4371 0.9006 0.1558
C38_2 C 0.5435(6) 0.84545(18) 0.19470(16)
O6_2 O 0.6092(3) 0.82335(12) 0.21115(11)
O7_2 O 0.4594(4) 0.83968(12) 0.20374(11)
C14_2 C 0.6169(7) 0.9425(2) 0.89300(18)
C15_2 C 0.5227(8) 0.9369(2) 0.8815(2)
H8_2 H 0.4756 0.9545 0.8932
C16_2 C 0.6399(7) 0.97561(19) 0.92530(17)
C17_2 C 0.6857(7) 0.9173(2) 0.8760(3)
H9_2 H 0.7486 0.9214 0.8840
C19_2 C 0.6142(6) 0.9687(2) 0.9655(2)
C20_2 C 0.5644(7) 0.9297(3) 0.9781(2)
H10_2 H 0.5377 0.9088 0.9603
C21_2 C 0.5702(5) 0.87951(17) 0.83598(16)
C22_2 C 0.6630(6) 0.8861(2) 0.8474(2)
H11_2 H 0.7106 0.8691 0.8354
C23_2 C 0.4997(5) 0.9048(2) 0.8524(2)
H12_2 H 0.4371 0.9006 0.8442
C24_2 C 0.5435(6) 0.84545(18) 0.80530(16)
N3_3 N 0.6410(7) 0.9916(2) 1.0000
O3_2 O 0.6092(3) 0.82335(12) 0.78885(11)
O4_2 O 0.4594(4) 0.83968(12) 0.79626(11)
H8_3 H 0.0244 0.4545 0.6068
C23_3 C 0.0003(5) 0.4048(2) 0.6476(2)
H12_3 H 0.0629 0.4006 0.6558
O4_3 O 0.0406(4) 0.33968(12) 0.70374(11)
H15_3 H 0.0244 0.4545 0.3932
C37_3 C 0.0003(5) 0.4048(2) 0.3524(2)
H19_3 H 0.0629 0.4006 0.3442
Co1_4 Co 0.78887(10) 0.54604(3) 0.5000
C1_3 C 0.5761(6) 0.73350(16) 0.69889(16)
C2_3 C 0.6199(5) 0.70368(16) 0.66727(16)
C3_3 C 0.7097(5) 0.69301(17) 0.66831(16)
H1_3 H 0.7485 0.7039 0.6898
C4_3 C 0.6916(5) 0.64732(19) 0.60830(17)
C5_3 C 0.7470(5) 0.66602(17) 0.63803(16)
H2_3 H 0.8119 0.6605 0.6380
C6_3 C 0.5588(6) 0.6853(2) 0.63822(19)
H3_3 H 0.4946 0.6923 0.6382
C7_3 C 0.5957(6) 0.6558(2) 0.6088(2)
H4_3 H 0.5557 0.6418 0.5897
C8_3 C 0.7252(5) 0.61736(16) 0.57586(17)
C9_3 C 0.7248(5) 0.63031(18) 0.53453(16)
C10_3 C 0.7899(6) 0.5230(2) 0.62979(18)
H5_3 H 0.7981 0.5045 0.6530
C11_3 C 0.8146(6) 0.5143(2) 0.58699(18)
C12_3 C 0.6998(6) 0.67259(19) 0.52139(18)
H6_3 H 0.6860 0.6961 0.5390
C13_3 C 0.7533(6) 0.56189(19) 0.63019(18)
H7_3 H 0.7310 0.5769 0.6539
C14_3 C 0.8831(7) 0.4425(2) 0.60700(18)
C15_3 C 0.9773(8) 0.4369(2) 0.6185(2)
C16_3 C 0.8601(7) 0.47561(19) 0.57470(17)
C17_3 C 0.8143(7) 0.4173(2) 0.6240(3)
H9_3 H 0.7514 0.4214 0.6160
C18_3 C 0.7540(5) 0.57683(18) 0.58792(16)
C19_3 C 0.8858(6) 0.4687(2) 0.5345(2)
C20_3 C 0.9356(7) 0.4297(3) 0.5219(2)
H10_3 H 0.9623 0.4088 0.5397
C21_3 C 0.9298(5) 0.37951(17) 0.66402(16)
C22_3 C 0.8370(6) 0.3861(2) 0.6526(2)
H11_3 H 0.7894 0.3691 0.6646
C24_3 C 0.9565(6) 0.34545(18) 0.69470(16)
N1_3 N 0.7918(4) 0.54603(13) 0.56197(14)
N2_4 N 0.7422(6) 0.6040(2) 0.5000
N3_4 N 0.8590(7) 0.4916(2) 0.5000
O1_3 O 0.6282(3) 0.75203(10) 0.72468(10)
O2_3 O 0.4903(3) 0.74080(14) 0.69755(13)
O3_3 O 0.8908(3) 0.32335(12) 0.71115(11)
O5_4 O 0.6578(11) 0.5197(5) 0.5000
C25_3 C 0.7899(6) 0.5230(2) 0.37021(18)
H13_3 H 0.7981 0.5045 0.3470
C26_3 C 0.8146(6) 0.5143(2) 0.41301(18)
C27_3 C 0.7533(6) 0.56189(19) 0.36981(18)
H14_3 H 0.7310 0.5769 0.3461
C28_3 C 0.8831(7) 0.4425(2) 0.39300(18)
C29_3 C 0.9773(8) 0.4369(2) 0.3815(2)
C30_3 C 0.8601(7) 0.47561(19) 0.42530(17)
C31_3 C 0.8143(7) 0.4173(2) 0.3760(3)
H16_3 H 0.7514 0.4214 0.3840
C32_3 C 0.7540(5) 0.57683(18) 0.41208(16)
C33_3 C 0.8858(6) 0.4687(2) 0.4655(2)
C34_3 C 0.9356(7) 0.4297(3) 0.4781(2)
H17_3 H 0.9623 0.4088 0.4603
C35_3 C 0.9298(5) 0.37951(17) 0.33598(16)
C36_3 C 0.8370(6) 0.3861(2) 0.3474(2)
H18_3 H 0.7894 0.3691 0.3354
C38_3 C 0.9565(6) 0.34545(18) 0.30530(16)
N4_3 N 0.7918(4) 0.54603(13) 0.43803(14)
C39_3 C 0.5761(6) 0.73350(16) 0.30111(16)
C40_3 C 0.6199(5) 0.70368(16) 0.33273(16)
C41_3 C 0.7097(5) 0.69301(17) 0.33169(16)
H20_3 H 0.7485 0.7039 0.3102
C42_3 C 0.6916(5) 0.64732(19) 0.39170(17)
C43_3 C 0.7470(5) 0.66602(17) 0.36197(16)
H21_3 H 0.8119 0.6605 0.3620
C44_3 C 0.5588(6) 0.6853(2) 0.36178(19)
H22_3 H 0.4946 0.6923 0.3618
C45_3 C 0.5957(6) 0.6558(2) 0.3912(2)
H23_3 H 0.5557 0.6418 0.4103
C46_3 C 0.7252(5) 0.61736(16) 0.42414(17)
C47_3 C 0.7248(5) 0.63031(18) 0.46547(16)
C48_3 C 0.6998(6) 0.67259(19) 0.47861(18)
H24_3 H 0.6860 0.6961 0.4610
O8_2 O 0.6282(3) 0.75203(10) 0.27532(10)
O9_2 O 0.4903(3) 0.74080(14) 0.30245(13)
O10_2 O 0.3718(3) 0.75203(10) 0.22468(10)
O11_2 O 0.5097(3) 0.74080(14) 0.19755(13)
Co1_5 Co 0.21113(10) 0.54604(3) 0.0000
N2_5 N 0.2578(6) 0.6040(2) 0.0000
N3_5 N 0.1410(7) 0.4916(2) 0.0000
O5_5 O 0.3422(11) 0.5197(5) 0.0000
C25_4 C 0.2101(6) 0.5230(2) 0.12979(18)
H13_4 H 0.2019 0.5045 0.1530
C26_4 C 0.1854(6) 0.5143(2) 0.08699(18)
C27_4 C 0.2467(6) 0.56189(19) 0.13019(18)
H14_4 H 0.2690 0.5769 0.1539
C28_4 C 0.1169(7) 0.4425(2) 0.10700(18)
C29_4 C 0.0227(8) 0.4369(2) 0.1185(2)
C30_4 C 0.1399(7) 0.47561(19) 0.07470(17)
C31_4 C 0.1857(7) 0.4173(2) 0.1240(3)
H16_4 H 0.2486 0.4214 0.1160
C32_4 C 0.2460(5) 0.57683(18) 0.08792(16)
C33_4 C 0.1142(6) 0.4687(2) 0.0345(2)
C34_4 C 0.0644(7) 0.4297(3) 0.0219(2)
H17_4 H 0.0377 0.4088 0.0397
C35_4 C 0.0702(5) 0.37951(17) 0.16402(16)
C36_4 C 0.1630(6) 0.3861(2) 0.1526(2)
H18_4 H 0.2106 0.3691 0.1646
C38_4 C 0.0435(6) 0.34545(18) 0.19470(16)
N4_4 N 0.2082(4) 0.54603(13) 0.06197(14)
C39_4 C 0.4239(6) 0.73350(16) 0.19889(16)
C40_4 C 0.3801(5) 0.70368(16) 0.16727(16)
C41_4 C 0.2903(5) 0.69301(17) 0.16831(16)
H20_4 H 0.2515 0.7039 0.1898
C42_4 C 0.3084(5) 0.64732(19) 0.10830(17)
C43_4 C 0.2530(5) 0.66602(17) 0.13803(16)
H21_4 H 0.1881 0.6605 0.1380
C44_4 C 0.4412(6) 0.6853(2) 0.13822(19)
H22_4 H 0.5054 0.6923 0.1382
C45_4 C 0.4043(6) 0.6558(2) 0.1088(2)
H23_4 H 0.4443 0.6418 0.0897
C46_4 C 0.2748(5) 0.61736(16) 0.07586(17)
C47_4 C 0.2752(5) 0.63031(18) 0.03453(16)
C48_4 C 0.3002(6) 0.67259(19) 0.02139(18)
H24_4 H 0.3140 0.6961 0.0390
H26_2 H 0.363485 0.515705 0.0291964
Co1_6 Co 0.21113(10) 0.54604(3) 1.0000
C1_4 C 0.4239(6) 0.73350(16) 0.80111(16)
C2_4 C 0.3801(5) 0.70368(16) 0.83273(16)
C3_4 C 0.2903(5) 0.69301(17) 0.83169(16)
H1_4 H 0.2515 0.7039 0.8102
C4_4 C 0.3084(5) 0.64732(19) 0.89170(17)
C5_4 C 0.2530(5) 0.66602(17) 0.86197(16)
H2_4 H 0.1881 0.6605 0.8620
C6_4 C 0.4412(6) 0.6853(2) 0.86178(19)
H3_4 H 0.5054 0.6923 0.8618
C7_4 C 0.4043(6) 0.6558(2) 0.8912(2)
H4_4 H 0.4443 0.6418 0.9103
C8_4 C 0.2748(5) 0.61736(16) 0.92414(17)
C9_4 C 0.2752(5) 0.63031(18) 0.96547(16)
C10_4 C 0.2101(6) 0.5230(2) 0.87021(18)
H5_4 H 0.2019 0.5045 0.8470
C11_4 C 0.1854(6) 0.5143(2) 0.91301(18)
C12_4 C 0.3002(6) 0.67259(19) 0.97861(18)
H6_4 H 0.3140 0.6961 0.9610
C13_4 C 0.2467(6) 0.56189(19) 0.86981(18)
H7_4 H 0.2690 0.5769 0.8461
C14_4 C 0.1169(7) 0.4425(2) 0.89300(18)
C15_4 C 0.0227(8) 0.4369(2) 0.8815(2)
C16_4 C 0.1399(7) 0.47561(19) 0.92530(17)
C17_4 C 0.1857(7) 0.4173(2) 0.8760(3)
H9_4 H 0.2486 0.4214 0.8840
C18_4 C 0.2460(5) 0.57683(18) 0.91208(16)
C19_4 C 0.1142(6) 0.4687(2) 0.9655(2)
C20_4 C 0.0644(7) 0.4297(3) 0.9781(2)
H10_4 H 0.0377 0.4088 0.9603
C21_4 C 0.0702(5) 0.37951(17) 0.83598(16)
C22_4 C 0.1630(6) 0.3861(2) 0.8474(2)
H11_4 H 0.2106 0.3691 0.8354
C24_4 C 0.0435(6) 0.34545(18) 0.80530(16)
N1_4 N 0.2082(4) 0.54603(13) 0.93803(14)
N2_6 N 0.2578(6) 0.6040(2) 1.0000
N3_6 N 0.1410(7) 0.4916(2) 1.0000
O1_4 O 0.3718(3) 0.75203(10) 0.77532(10)
O2_4 O 0.5097(3) 0.74080(14) 0.80245(13)
O3_4 O 0.1092(3) 0.32335(12) 0.78885(11)
O5_6 O 0.3422(11) 0.5197(5) 1.0000
H25_2 H 0.385727 0.539029 0.985183
H15_4 H 0.9756 0.4545 0.1068
C37_4 C 0.9997(5) 0.4048(2) 0.1476(2)
H19_4 H 0.9371 0.4006 0.1558
H8_4 H 0.9756 0.4545 0.8932
C23_4 C 0.9997(5) 0.4048(2) 0.8524(2)
H12_4 H 0.9371 0.4006 0.8442
O4_4 O 0.9594(4) 0.33968(12) 0.79626(11)
H25_3 H 0.885727 0.039029 0.0148171
H26_3 H 0.863485 0.0157047 0.970804
H25_4 H 0.385727 0.539029 0.0148171
H26_4 H 0.363485 0.515705 0.970804
In1_3 In 0.0000 0.71174(2) 0.2500
H3_5 H 0.0054 0.8077 0.6382
O2_5 O 0.0097(3) 0.75920(14) 0.69755(13)
H22_5 H 0.0054 0.8077 0.3618
O9_3 O 0.0097(3) 0.75920(14) 0.30245(13)
In3_3 In 0.0000 0.71174(2) 0.7500
O10_3 O 0.1282(3) 0.74797(10) 0.22468(10)
O12_2 O 0.1092(3) 0.67665(12) 0.28885(11)
O15_2 O 0.0406(4) 0.66032(12) 0.20374(11)
C14_5 C 0.6169(7) 0.0575(2) 0.60700(18)
C15_5 C 0.5227(8) 0.0631(2) 0.6185(2)
H8_5 H 0.4756 0.0455 0.6068
C16_5 C 0.6399(7) 0.02439(19) 0.57470(17)
C17_5 C 0.6857(7) 0.0827(2) 0.6240(3)
H9_5 H 0.7486 0.0786 0.6160
C19_5 C 0.6142(6) 0.0313(2) 0.5345(2)
C20_5 C 0.5644(7) 0.0703(3) 0.5219(2)
H10_5 H 0.5377 0.0912 0.5397
C21_5 C 0.5702(5) 0.12049(17) 0.66402(16)
C22_5 C 0.6630(6) 0.1139(2) 0.6526(2)
H11_5 H 0.7106 0.1309 0.6646
C23_5 C 0.4997(5) 0.0952(2) 0.6476(2)
H12_5 H 0.4371 0.0994 0.6558
C24_5 C 0.5435(6) 0.15455(18) 0.69470(16)
N3_7 N 0.6410(7) 0.0084(2) 0.5000
O3_5 O 0.6092(3) 0.17665(12) 0.71115(11)
O4_5 O 0.4594(4) 0.16032(12) 0.70374(11)
C28_5 C 0.6169(7) 0.0575(2) 0.39300(18)
C29_5 C 0.5227(8) 0.0631(2) 0.3815(2)
H15_5 H 0.4756 0.0455 0.3932
C30_5 C 0.6399(7) 0.02439(19) 0.42530(17)
C31_5 C 0.6857(7) 0.0827(2) 0.3760(3)
H16_5 H 0.7486 0.0786 0.3840
C33_5 C 0.6142(6) 0.0313(2) 0.4655(2)
C34_5 C 0.5644(7) 0.0703(3) 0.4781(2)
H17_5 H 0.5377 0.0912 0.4603
C35_5 C 0.5702(5) 0.12049(17) 0.33598(16)
C36_5 C 0.6630(6) 0.1139(2) 0.3474(2)
H18_5 H 0.7106 0.1309 0.3354
C37_5 C 0.4997(5) 0.0952(2) 0.3524(2)
H19_5 H 0.4371 0.0994 0.3442
C38_5 C 0.5435(6) 0.15455(18) 0.30530(16)
O6_3 O 0.6092(3) 0.17665(12) 0.28885(11)
O7_3 O 0.4594(4) 0.16032(12) 0.29626(11)
In2_2 In 0.5000 0.21174(2) 0.2500
In4_2 In 0.5000 0.21174(2) 0.7500
In1_4 In 1.0000 0.71174(2) 0.2500
Co1_7 Co 0.71113(10) 0.95396(3) 0.5000
C1_5 C 0.9239(6) 0.76650(16) 0.69889(16)
C2_5 C 0.8801(5) 0.79632(16) 0.66727(16)
C3_5 C 0.7903(5) 0.80699(17) 0.66831(16)
H1_5 H 0.7515 0.7961 0.6898
C4_5 C 0.8084(5) 0.85268(19) 0.60830(17)
C5_5 C 0.7530(5) 0.83398(17) 0.63803(16)
H2_5 H 0.6881 0.8395 0.6380
C6_5 C 0.9412(6) 0.8147(2) 0.63822(19)
C7_5 C 0.9043(6) 0.8442(2) 0.6088(2)
H4_5 H 0.9443 0.8582 0.5897
C8_5 C 0.7748(5) 0.88264(16) 0.57586(17)
C9_5 C 0.7752(5) 0.86969(18) 0.53453(16)
C10_5 C 0.7101(6) 0.9770(2) 0.62979(18)
H5_5 H 0.7019 0.9955 0.6530
C11_5 C 0.6854(6) 0.9857(2) 0.58699(18)
C12_5 C 0.8002(6) 0.82741(19) 0.52139(18)
H6_5 H 0.8140 0.8039 0.5390
C13_5 C 0.7467(6) 0.93811(19) 0.63019(18)
H7_5 H 0.7690 0.9231 0.6539
C18_5 C 0.7460(5) 0.92317(18) 0.58792(16)
N1_5 N 0.7082(4) 0.95397(13) 0.56197(14)
N2_7 N 0.7578(6) 0.8960(2) 0.5000
O1_5 O 0.8718(3) 0.74797(10) 0.72468(10)
O5_7 O 0.8422(11) 0.9803(5) 0.5000
C25_5 C 0.7101(6) 0.9770(2) 0.37021(18)
H13_5 H 0.7019 0.9955 0.3470
C26_5 C 0.6854(6) 0.9857(2) 0.41301(18)
C27_5 C 0.7467(6) 0.93811(19) 0.36981(18)
H14_5 H 0.7690 0.9231 0.3461
C32_5 C 0.7460(5) 0.92317(18) 0.41208(16)
N4_5 N 0.7082(4) 0.95397(13) 0.43803(14)
C39_5 C 0.9239(6) 0.76650(16) 0.30111(16)
C40_5 C 0.8801(5) 0.79632(16) 0.33273(16)
C41_5 C 0.7903(5) 0.80699(17) 0.33169(16)
H20_5 H 0.7515 0.7961 0.3102
C42_5 C 0.8084(5) 0.85268(19) 0.39170(17)
C43_5 C 0.7530(5) 0.83398(17) 0.36197(16)
H21_5 H 0.6881 0.8395 0.3620
C44_5 C 0.9412(6) 0.8147(2) 0.36178(19)
C45_5 C 0.9043(6) 0.8442(2) 0.3912(2)
H23_5 H 0.9443 0.8582 0.4103
C46_5 C 0.7748(5) 0.88264(16) 0.42414(17)
C47_5 C 0.7752(5) 0.86969(18) 0.46547(16)
C48_5 C 0.8002(6) 0.82741(19) 0.47861(18)
H24_5 H 0.8140 0.8039 0.4610
O8_3 O 0.8718(3) 0.74797(10) 0.27532(10)
In3_4 In 1.0000 0.71174(2) 0.7500
O11_3 O 0.9903(3) 0.75920(14) 0.19755(13)
O13_2 O 0.8908(3) 0.67665(12) 0.21115(11)
O14_2 O 0.9594(4) 0.66032(12) 0.29626(11)
N3_8 N 0.3590(7) 0.0084(2) 0.0000
C28_6 C 0.3831(7) 0.0575(2) 0.10700(18)
C29_6 C 0.4773(8) 0.0631(2) 0.1185(2)
H15_6 H 0.5244 0.0455 0.1068
C30_6 C 0.3601(7) 0.02439(19) 0.07470(17)
C31_6 C 0.3143(7) 0.0827(2) 0.1240(3)
H16_6 H 0.2514 0.0786 0.1160
C33_6 C 0.3858(6) 0.0313(2) 0.0345(2)
C34_6 C 0.4356(7) 0.0703(3) 0.0219(2)
H17_6 H 0.4623 0.0912 0.0397
C35_6 C 0.4298(5) 0.12049(17) 0.16402(16)
C36_6 C 0.3370(6) 0.1139(2) 0.1526(2)
H18_6 H 0.2894 0.1309 0.1646
C37_6 C 0.5003(5) 0.0952(2) 0.1476(2)
H19_6 H 0.5629 0.0994 0.1558
C38_6 C 0.4565(6) 0.15455(18) 0.19470(16)
O6_4 O 0.3908(3) 0.17665(12) 0.21115(11)
O7_4 O 0.5406(4) 0.16032(12) 0.20374(11)
C14_6 C 0.3831(7) 0.0575(2) 0.89300(18)
C15_6 C 0.4773(8) 0.0631(2) 0.8815(2)
H8_6 H 0.5244 0.0455 0.8932
C16_6 C 0.3601(7) 0.02439(19) 0.92530(17)
C17_6 C 0.3143(7) 0.0827(2) 0.8760(3)
H9_6 H 0.2514 0.0786 0.8840
C19_6 C 0.3858(6) 0.0313(2) 0.9655(2)
C20_6 C 0.4356(7) 0.0703(3) 0.9781(2)
H10_6 H 0.4623 0.0912 0.9603
C21_6 C 0.4298(5) 0.12049(17) 0.83598(16)
C22_6 C 0.3370(6) 0.1139(2) 0.8474(2)
H11_6 H 0.2894 0.1309 0.8354
C23_6 C 0.5003(5) 0.0952(2) 0.8524(2)
H12_6 H 0.5629 0.0994 0.8442
C24_6 C 0.4565(6) 0.15455(18) 0.80530(16)
N3_9 N 0.3590(7) 0.0084(2) 1.0000
O3_6 O 0.3908(3) 0.17665(12) 0.78885(11)
O4_6 O 0.5406(4) 0.16032(12) 0.79626(11)
Co1_8 Co 0.28887(10) 0.95396(3) 0.0000
N2_8 N 0.2422(6) 0.8960(2) 0.0000
O5_8 O 0.1578(11) 0.9803(5) 0.0000
C25_6 C 0.2899(6) 0.9770(2) 0.12979(18)
H13_6 H 0.2981 0.9955 0.1530
C26_6 C 0.3146(6) 0.9857(2) 0.08699(18)
C27_6 C 0.2533(6) 0.93811(19) 0.13019(18)
H14_6 H 0.2310 0.9231 0.1539
C32_6 C 0.2540(5) 0.92317(18) 0.08792(16)
N4_6 N 0.2918(4) 0.95397(13) 0.06197(14)
C39_6 C 0.0761(6) 0.76650(16) 0.19889(16)
C40_6 C 0.1199(5) 0.79632(16) 0.16727(16)
C41_6 C 0.2097(5) 0.80699(17) 0.16831(16)
H20_6 H 0.2485 0.7961 0.1898
C42_6 C 0.1916(5) 0.85268(19) 0.10830(17)
C43_6 C 0.2470(5) 0.83398(17) 0.13803(16)
H21_6 H 0.3119 0.8395 0.1380
C44_6 C 0.0588(6) 0.8147(2) 0.13822(19)
C45_6 C 0.0957(6) 0.8442(2) 0.1088(2)
H23_6 H 0.0557 0.8582 0.0897
C46_6 C 0.2252(5) 0.88264(16) 0.07586(17)
C47_6 C 0.2248(5) 0.86969(18) 0.03453(16)
C48_6 C 0.1998(6) 0.82741(19) 0.02139(18)
H24_6 H 0.1860 0.8039 0.0390
H26_5 H 0.136515 0.984295 0.0291964
Co1_9 Co 0.28887(10) 0.95396(3) 1.0000
C1_6 C 0.0761(6) 0.76650(16) 0.80111(16)
C2_6 C 0.1199(5) 0.79632(16) 0.83273(16)
C3_6 C 0.2097(5) 0.80699(17) 0.83169(16)
H1_6 H 0.2485 0.7961 0.8102
C4_6 C 0.1916(5) 0.85268(19) 0.89170(17)
C5_6 C 0.2470(5) 0.83398(17) 0.86197(16)
H2_6 H 0.3119 0.8395 0.8620
C6_6 C 0.0588(6) 0.8147(2) 0.86178(19)
C7_6 C 0.0957(6) 0.8442(2) 0.8912(2)
H4_6 H 0.0557 0.8582 0.9103
C8_6 C 0.2252(5) 0.88264(16) 0.92414(17)
C9_6 C 0.2248(5) 0.86969(18) 0.96547(16)
C10_6 C 0.2899(6) 0.9770(2) 0.87021(18)
H5_6 H 0.2981 0.9955 0.8470
C11_6 C 0.3146(6) 0.9857(2) 0.91301(18)
C12_6 C 0.1998(6) 0.82741(19) 0.97861(18)
H6_6 H 0.1860 0.8039 0.9610
C13_6 C 0.2533(6) 0.93811(19) 0.86981(18)
H7_6 H 0.2310 0.9231 0.8461
C18_6 C 0.2540(5) 0.92317(18) 0.91208(16)
N1_6 N 0.2918(4) 0.95397(13) 0.93803(14)
N2_9 N 0.2422(6) 0.8960(2) 1.0000
O1_6 O 0.1282(3) 0.74797(10) 0.77532(10)
O5_9 O 0.1578(11) 0.9803(5) 1.0000
H25_5 H 0.114273 0.960971 0.985183
H22_6 H 0.9946 0.8077 0.1382
H3_6 H 0.9946 0.8077 0.8618
O2_6 O 0.9903(3) 0.75920(14) 0.80245(13)
Co1_10 Co 0.21113(10) 0.45396(3) 0.5000
C1_7 C 0.4239(6) 0.26650(16) 0.69889(16)
C2_7 C 0.3801(5) 0.29632(16) 0.66727(16)
C3_7 C 0.2903(5) 0.30699(17) 0.66831(16)
H1_7 H 0.2515 0.2961 0.6898
C4_7 C 0.3084(5) 0.35268(19) 0.60830(17)
C5_7 C 0.2530(5) 0.33398(17) 0.63803(16)
H2_7 H 0.1881 0.3395 0.6380
C6_7 C 0.4412(6) 0.3147(2) 0.63822(19)
H3_7 H 0.5054 0.3077 0.6382
C7_7 C 0.4043(6) 0.3442(2) 0.6088(2)
H4_7 H 0.4443 0.3582 0.5897
C8_7 C 0.2748(5) 0.38264(16) 0.57586(17)
C9_7 C 0.2752(5) 0.36969(18) 0.53453(16)
C10_7 C 0.2101(6) 0.4770(2) 0.62979(18)
H5_7 H 0.2019 0.4955 0.6530
C11_7 C 0.1854(6) 0.4857(2) 0.58699(18)
C12_7 C 0.3002(6) 0.32741(19) 0.52139(18)
H6_7 H 0.3140 0.3039 0.5390
C13_7 C 0.2467(6) 0.43811(19) 0.63019(18)
H7_7 H 0.2690 0.4231 0.6539
C14_7 C 0.1169(7) 0.5575(2) 0.60700(18)
C15_7 C 0.0227(8) 0.5631(2) 0.6185(2)
C16_7 C 0.1399(7) 0.52439(19) 0.57470(17)
C17_7 C 0.1857(7) 0.5827(2) 0.6240(3)
H9_7 H 0.2486 0.5786 0.6160
C18_7 C 0.2460(5) 0.42317(18) 0.58792(16)
C19_7 C 0.1142(6) 0.5313(2) 0.5345(2)
C20_7 C 0.0644(7) 0.5703(3) 0.5219(2)
H10_7 H 0.0377 0.5912 0.5397
C21_7 C 0.0702(5) 0.62049(17) 0.66402(16)
C22_7 C 0.1630(6) 0.6139(2) 0.6526(2)
H11_7 H 0.2106 0.6309 0.6646
C24_7 C 0.0435(6) 0.65455(18) 0.69470(16)
N1_7 N 0.2082(4) 0.45397(13) 0.56197(14)
N2_10 N 0.2578(6) 0.3960(2) 0.5000
N3_10 N 0.1410(7) 0.5084(2) 0.5000
O1_7 O 0.3718(3) 0.24797(10) 0.72468(10)
O2_7 O 0.5097(3) 0.25920(14) 0.69755(13)
O3_7 O 0.1092(3) 0.67665(12) 0.71115(11)
O5_10 O 0.3422(11) 0.4803(5) 0.5000
C25_7 C 0.2101(6) 0.4770(2) 0.37021(18)
H13_7 H 0.2019 0.4955 0.3470
C26_7 C 0.1854(6) 0.4857(2) 0.41301(18)
C27_7 C 0.2467(6) 0.43811(19) 0.36981(18)
H14_7 H 0.2690 0.4231 0.3461
C28_7 C 0.1169(7) 0.5575(2) 0.39300(18)
C29_7 C 0.0227(8) 0.5631(2) 0.3815(2)
C30_7 C 0.1399(7) 0.52439(19) 0.42530(17)
C31_7 C 0.1857(7) 0.5827(2) 0.3760(3)
H16_7 H 0.2486 0.5786 0.3840
C32_7 C 0.2460(5) 0.42317(18) 0.41208(16)
C33_7 C 0.1142(6) 0.5313(2) 0.4655(2)
C34_7 C 0.0644(7) 0.5703(3) 0.4781(2)
H17_7 H 0.0377 0.5912 0.4603
C35_7 C 0.0702(5) 0.62049(17) 0.33598(16)
C36_7 C 0.1630(6) 0.6139(2) 0.3474(2)
H18_7 H 0.2106 0.6309 0.3354
C38_7 C 0.0435(6) 0.65455(18) 0.30530(16)
N4_7 N 0.2082(4) 0.45397(13) 0.43803(14)
C39_7 C 0.4239(6) 0.26650(16) 0.30111(16)
C40_7 C 0.3801(5) 0.29632(16) 0.33273(16)
C41_7 C 0.2903(5) 0.30699(17) 0.33169(16)
H20_7 H 0.2515 0.2961 0.3102
C42_7 C 0.3084(5) 0.35268(19) 0.39170(17)
C43_7 C 0.2530(5) 0.33398(17) 0.36197(16)
H21_7 H 0.1881 0.3395 0.3620
C44_7 C 0.4412(6) 0.3147(2) 0.36178(19)
H22_7 H 0.5054 0.3077 0.3618
C45_7 C 0.4043(6) 0.3442(2) 0.3912(2)
H23_7 H 0.4443 0.3582 0.4103
C46_7 C 0.2748(5) 0.38264(16) 0.42414(17)
C47_7 C 0.2752(5) 0.36969(18) 0.46547(16)
C48_7 C 0.3002(6) 0.32741(19) 0.47861(18)
H24_7 H 0.3140 0.3039 0.4610
O8_4 O 0.3718(3) 0.24797(10) 0.27532(10)
O9_4 O 0.5097(3) 0.25920(14) 0.30245(13)
O10_4 O 0.6282(3) 0.24797(10) 0.22468(10)
O11_4 O 0.4903(3) 0.25920(14) 0.19755(13)
H8_7 H 0.9756 0.5455 0.6068
C23_7 C 0.9997(5) 0.5952(2) 0.6476(2)
H12_7 H 0.9371 0.5994 0.6558
O4_7 O 0.9594(4) 0.66032(12) 0.70374(11)
H15_7 H 0.9756 0.5455 0.3932
C37_7 C 0.9997(5) 0.5952(2) 0.3524(2)
H19_7 H 0.9371 0.5994 0.3442
H15_8 H 0.0244 0.5455 0.1068
C37_8 C 0.0003(5) 0.5952(2) 0.1476(2)
H19_8 H 0.0629 0.5994 0.1558
H8_8 H 0.0244 0.5455 0.8932
C23_8 C 0.0003(5) 0.5952(2) 0.8524(2)
H12_8 H 0.0629 0.5994 0.8442
O4_8 O 0.0406(4) 0.66032(12) 0.79626(11)
Co1_11 Co 0.78887(10) 0.45396(3) 0.0000
N2_11 N 0.7422(6) 0.3960(2) 0.0000
N3_11 N 0.8590(7) 0.5084(2) 0.0000
O5_11 O 0.6578(11) 0.4803(5) 0.0000
C25_8 C 0.7899(6) 0.4770(2) 0.12979(18)
H13_8 H 0.7981 0.4955 0.1530
C26_8 C 0.8146(6) 0.4857(2) 0.08699(18)
C27_8 C 0.7533(6) 0.43811(19) 0.13019(18)
H14_8 H 0.7310 0.4231 0.1539
C28_8 C 0.8831(7) 0.5575(2) 0.10700(18)
C29_8 C 0.9773(8) 0.5631(2) 0.1185(2)
C30_8 C 0.8601(7) 0.52439(19) 0.07470(17)
C31_8 C 0.8143(7) 0.5827(2) 0.1240(3)
H16_8 H 0.7514 0.5786 0.1160
C32_8 C 0.7540(5) 0.42317(18) 0.08792(16)
C33_8 C 0.8858(6) 0.5313(2) 0.0345(2)
C34_8 C 0.9356(7) 0.5703(3) 0.0219(2)
H17_8 H 0.9623 0.5912 0.0397
C35_8 C 0.9298(5) 0.62049(17) 0.16402(16)
C36_8 C 0.8370(6) 0.6139(2) 0.1526(2)
H18_8 H 0.7894 0.6309 0.1646
C38_8 C 0.9565(6) 0.65455(18) 0.19470(16)
N4_8 N 0.7918(4) 0.45397(13) 0.06197(14)
C39_8 C 0.5761(6) 0.26650(16) 0.19889(16)
C40_8 C 0.6199(5) 0.29632(16) 0.16727(16)
C41_8 C 0.7097(5) 0.30699(17) 0.16831(16)
H20_8 H 0.7485 0.2961 0.1898
C42_8 C 0.6916(5) 0.35268(19) 0.10830(17)
C43_8 C 0.7470(5) 0.33398(17) 0.13803(16)
H21_8 H 0.8119 0.3395 0.1380
C44_8 C 0.5588(6) 0.3147(2) 0.13822(19)
H22_8 H 0.4946 0.3077 0.1382
C45_8 C 0.5957(6) 0.3442(2) 0.1088(2)
H23_8 H 0.5557 0.3582 0.0897
C46_8 C 0.7252(5) 0.38264(16) 0.07586(17)
C47_8 C 0.7248(5) 0.36969(18) 0.03453(16)
C48_8 C 0.6998(6) 0.32741(19) 0.02139(18)
H24_8 H 0.6860 0.3039 0.0390
H26_6 H 0.636515 0.484295 0.0291964
Co1_12 Co 0.78887(10) 0.45396(3) 1.0000
C1_8 C 0.5761(6) 0.26650(16) 0.80111(16)
C2_8 C 0.6199(5) 0.29632(16) 0.83273(16)
C3_8 C 0.7097(5) 0.30699(17) 0.83169(16)
H1_8 H 0.7485 0.2961 0.8102
C4_8 C 0.6916(5) 0.35268(19) 0.89170(17)
C5_8 C 0.7470(5) 0.33398(17) 0.86197(16)
H2_8 H 0.8119 0.3395 0.8620
C6_8 C 0.5588(6) 0.3147(2) 0.86178(19)
H3_8 H 0.4946 0.3077 0.8618
C7_8 C 0.5957(6) 0.3442(2) 0.8912(2)
H4_8 H 0.5557 0.3582 0.9103
C8_8 C 0.7252(5) 0.38264(16) 0.92414(17)
C9_8 C 0.7248(5) 0.36969(18) 0.96547(16)
C10_8 C 0.7899(6) 0.4770(2) 0.87021(18)
H5_8 H 0.7981 0.4955 0.8470
C11_8 C 0.8146(6) 0.4857(2) 0.91301(18)
C12_8 C 0.6998(6) 0.32741(19) 0.97861(18)
H6_8 H 0.6860 0.3039 0.9610
C13_8 C 0.7533(6) 0.43811(19) 0.86981(18)
H7_8 H 0.7310 0.4231 0.8461
C14_8 C 0.8831(7) 0.5575(2) 0.89300(18)
C15_8 C 0.9773(8) 0.5631(2) 0.8815(2)
C16_8 C 0.8601(7) 0.52439(19) 0.92530(17)
C17_8 C 0.8143(7) 0.5827(2) 0.8760(3)
H9_8 H 0.7514 0.5786 0.8840
C18_8 C 0.7540(5) 0.42317(18) 0.91208(16)
C19_8 C 0.8858(6) 0.5313(2) 0.9655(2)
C20_8 C 0.9356(7) 0.5703(3) 0.9781(2)
H10_8 H 0.9623 0.5912 0.9603
C21_8 C 0.9298(5) 0.62049(17) 0.83598(16)
C22_8 C 0.8370(6) 0.6139(2) 0.8474(2)
H11_8 H 0.7894 0.6309 0.8354
C24_8 C 0.9565(6) 0.65455(18) 0.80530(16)
N1_8 N 0.7918(4) 0.45397(13) 0.93803(14)
N2_12 N 0.7422(6) 0.3960(2) 1.0000
N3_12 N 0.8590(7) 0.5084(2) 1.0000
O1_8 O 0.6282(3) 0.24797(10) 0.77532(10)
O2_8 O 0.4903(3) 0.25920(14) 0.80245(13)
O3_8 O 0.8908(3) 0.67665(12) 0.78885(11)
O5_12 O 0.6578(11) 0.4803(5) 1.0000
H25_6 H 0.614273 0.460971 0.985183
H25_7 H 0.114273 0.960971 0.0148171
H26_7 H 0.136515 0.984295 0.970804
H25_8 H 0.614273 0.460971 0.0148171
H26_8 H 0.636515 0.484295 0.970804
loop_
_geom_bond_atom_site_label_1
_geom_bond_atom_site_label_2
_geom_bond_site_symmetry_1
_geom_bond_site_symmetry_2
In1 O8 1_555 1_555
Co1 N1 1_555 1_555
C1 C2 1_555 1_555
C2 C3 1_555 1_555
C3 H1 1_555 1_555
C4 C5 1_555 1_555
C5 C3 1_555 1_555
H2 C5 1_555 1_555
C6 C2 1_555 1_555
C7 C4 1_555 1_555
H4 C7 1_555 1_555
C8 C4 1_555 1_555
C9 C8 1_555 1_555
C10 H5 1_555 1_555
C11 C10 1_555 1_555
C12 C9 1_555 1_555
H6 C12 1_555 1_555
C13 C10 1_555 1_555
H7 C13 1_555 1_555
C18 C8 1_555 1_555
N1 C11 1_555 1_555
N2 Co1 1_555 1_555
O1 C1 1_555 1_555
O5 Co1 1_555 1_555
C25 H13 1_555 1_555
C26 C25 1_555 1_555
C27 C25 1_555 1_555
H14 C27 1_555 1_555
C32 C27 1_555 1_555
N4 Co1 1_555 1_555
C39 C40 1_555 1_555
C40 C41 1_555 1_555
C41 H20 1_555 1_555
C42 C43 1_555 1_555
C43 C41 1_555 1_555
H21 C43 1_555 1_555
C44 C40 1_555 1_555
C45 C42 1_555 1_555
H23 C45 1_555 1_555
C46 C32 1_555 1_555
C47 N2 1_555 1_555
C48 C12 1_555 1_555
H24 C48 1_555 1_555
O8 C39 1_555 1_555
In3 O1 1_555 1_555
O11 In1 1_555 1_555
O13 In1 1_555 1_555
O14 In1 1_555 1_555
C6 C7 1_555 1_555
C9 N2 1_555 1_555
C13 C18 1_555 1_555
C18 N1 1_555 1_555
C26 N4 1_555 1_555
C32 N4 1_555 1_555
C42 C46 1_555 1_555
C44 C45 1_555 1_555
C46 C47 1_555 1_555
C47 C48 1_555 1_555
C14 C15 1_555 1_555
C15 H8 1_555 1_555
C17 C14 1_555 1_555
H9 C17 1_555 1_555
C19 C16 1_555 1_555
C20 C19 1_555 1_555
H10 C20 1_555 1_555
C21 C22 1_555 1_555
C22 C17 1_555 1_555
H11 C22 1_555 1_555
C23 C15 1_555 1_555
H12 C23 1_555 1_555
C24 C21 1_555 1_555
O3 C24 1_555 1_555
O4 C24 1_555 1_555
C28 C29 1_555 1_555
C29 H15 1_555 1_555
C31 C28 1_555 1_555
H16 C31 1_555 1_555
C33 N3 1_555 1_555
C34 C20 1_555 1_555
H17 C34 1_555 1_555
C35 C36 1_555 1_555
C36 C31 1_555 1_555
H18 C36 1_555 1_555
C37 C29 1_555 1_555
H19 C37 1_555 1_555
C38 C35 1_555 1_555
O6 C38 1_555 1_555
O7 C38 1_555 1_555
In2 O6 1_555 1_555
In4 O3 1_555 1_555
C14 C16 1_555 1_555
C19 N3 1_555 1_555
C21 C23 1_555 1_555
O4 In4 1_555 1_555
C28 C30 1_555 1_555
C30 C33 1_555 1_555
C33 C34 1_555 1_555
C35 C37 1_555 1_555
O7 In2 1_555 1_555
O9 In1_2 1_555 1_555
O10 In1_2 1_555 1_555
O12 In1_2 1_555 1_555
O15 In1_2 1_555 1_555
O2 In3_2 1_555 1_555
O2_2 In3 1_555 1_555
N2_2 Co1_2 1_555 1_555
O5_2 Co1_2 1_555 1_555
C25_2 H13_2 1_555 1_555
C26_2 C25_2 1_555 1_555
C27_2 C25_2 1_555 1_555
H14_2 C27_2 1_555 1_555
C32_2 C27_2 1_555 1_555
N4_2 Co1_2 1_555 1_555
C39_2 C40_2 1_555 1_555
C40_2 C41_2 1_555 1_555
C41_2 H20_2 1_555 1_555
C42_2 C43_2 1_555 1_555
C43_2 C41_2 1_555 1_555
H21_2 C43_2 1_555 1_555
C44_2 C40_2 1_555 1_555
C45_2 C42_2 1_555 1_555
H23_2 C45_2 1_555 1_555
C46_2 C32_2 1_555 1_555
C47_2 N2_2 1_555 1_555
H24_2 C48_2 1_555 1_555
O10 C39_2 1_555 1_555
C26_2 N4_2 1_555 1_555
C32_2 N4_2 1_555 1_555
C42_2 C46_2 1_555 1_555
C44_2 C45_2 1_555 1_555
C46_2 C47_2 1_555 1_555
C47_2 C48_2 1_555 1_555
O5_2 H26 1_555 1_555
Co1_3 N1_2 1_555 1_555
C1_2 C2_2 1_555 1_555
C2_2 C3_2 1_555 1_555
C3_2 H1_2 1_555 1_555
C4_2 C5_2 1_555 1_555
C5_2 C3_2 1_555 1_555
H2_2 C5_2 1_555 1_555
C6_2 C2_2 1_555 1_555
C7_2 C4_2 1_555 1_555
H4_2 C7_2 1_555 1_555
C8_2 C4_2 1_555 1_555
C9_2 C8_2 1_555 1_555
C10_2 H5_2 1_555 1_555
C11_2 C10_2 1_555 1_555
C12_2 C9_2 1_555 1_555
H6_2 C12_2 1_555 1_555
C13_2 C10_2 1_555 1_555
H7_2 C13_2 1_555 1_555
C18_2 C8_2 1_555 1_555
N1_2 C11_2 1_555 1_555
N2_3 Co1_3 1_555 1_555
O1_2 C1_2 1_555 1_555
O5_3 Co1_3 1_555 1_555
In3_2 O1_2 1_555 1_555
C6_2 C7_2 1_555 1_555
C9_2 N2_3 1_555 1_555
C13_2 C18_2 1_555 1_555
C18_2 N1_2 1_555 1_555
O5_3 H25 1_555 1_555
C28_2 C29_2 1_555 1_555
C29_2 H15_2 1_555 1_555
C31_2 C28_2 1_555 1_555
H16_2 C31_2 1_555 1_555
C33_2 N3_2 1_555 1_555
H17_2 C34_2 1_555 1_555
C35_2 C36_2 1_555 1_555
C36_2 C31_2 1_555 1_555
H18_2 C36_2 1_555 1_555
C37_2 C29_2 1_555 1_555
H19_2 C37_2 1_555 1_555
C38_2 C35_2 1_555 1_555
O6_2 C38_2 1_555 1_555
O7_2 C38_2 1_555 1_555
In2 O6_2 1_555 1_555
C28_2 C30_2 1_555 1_555
C30_2 C33_2 1_555 1_555
C33_2 C34_2 1_555 1_555
C35_2 C37_2 1_555 1_555
O7_2 In2 1_555 1_555
C14_2 C15_2 1_555 1_555
C15_2 H8_2 1_555 1_555
C17_2 C14_2 1_555 1_555
H9_2 C17_2 1_555 1_555
C19_2 C16_2 1_555 1_555
C20_2 C19_2 1_555 1_555
H10_2 C20_2 1_555 1_555
C21_2 C22_2 1_555 1_555
C22_2 C17_2 1_555 1_555
H11_2 C22_2 1_555 1_555
C23_2 C15_2 1_555 1_555
H12_2 C23_2 1_555 1_555
C24_2 C21_2 1_555 1_555
O3_2 C24_2 1_555 1_555
O4_2 C24_2 1_555 1_555
In4 O3_2 1_555 1_555
C14_2 C16_2 1_555 1_555
C19_2 N3_3 1_555 1_555
C21_2 C23_2 1_555 1_555
O4_2 In4 1_555 1_555
H12_3 C23_3 1_555 1_555
H19_3 C37_3 1_555 1_555
O4_3 In3 1_555 1_555
In2 O8_2 1_555 1_555
Co1_4 N1_3 1_555 1_555
C1_3 C2_3 1_555 1_555
C2_3 C3_3 1_555 1_555
C3_3 H1_3 1_555 1_555
C4_3 C5_3 1_555 1_555
C5_3 C3_3 1_555 1_555
H2_3 C5_3 1_555 1_555
C6_3 C2_3 1_555 1_555
H3_3 C6_3 1_555 1_555
C7_3 C4_3 1_555 1_555
H4_3 C7_3 1_555 1_555
C8_3 C4_3 1_555 1_555
C9_3 C8_3 1_555 1_555
C10_3 H5_3 1_555 1_555
C11_3 C10_3 1_555 1_555
C12_3 C9_3 1_555 1_555
H6_3 C12_3 1_555 1_555
C13_3 C10_3 1_555 1_555
H7_3 C13_3 1_555 1_555
C14_3 C15_3 1_555 1_555
C16_3 C11_3 1_555 1_555
C17_3 C14_3 1_555 1_555
H9_3 C17_3 1_555 1_555
C18_3 C8_3 1_555 1_555
C19_3 C16_3 1_555 1_555
C20_3 C19_3 1_555 1_555
H10_3 C20_3 1_555 1_555
C21_3 C22_3 1_555 1_555
C22_3 C17_3 1_555 1_555
H11_3 C22_3 1_555 1_555
C24_3 C21_3 1_555 1_555
N1_3 C11_3 1_555 1_555
N2_4 Co1_4 1_555 1_555
N3_4 Co1_4 1_555 1_555
O1_3 C1_3 1_555 1_555
O2_3 C1_3 1_555 1_555
O3_3 C24_3 1_555 1_555
O5_4 Co1_4 1_555 1_555
C25_3 H13_3 1_555 1_555
C26_3 C25_3 1_555 1_555
C27_3 C25_3 1_555 1_555
H14_3 C27_3 1_555 1_555
C28_3 C29_3 1_555 1_555
C30_3 C26_3 1_555 1_555
C31_3 C28_3 1_555 1_555
H16_3 C31_3 1_555 1_555
C32_3 C27_3 1_555 1_555
C33_3 N3_4 1_555 1_555
C34_3 C20_3 1_555 1_555
H17_3 C34_3 1_555 1_555
C35_3 C36_3 1_555 1_555
C36_3 C31_3 1_555 1_555
H18_3 C36_3 1_555 1_555
C38_3 C35_3 1_555 1_555
N4_3 Co1_4 1_555 1_555
O12 C38_3 1_555 1_555
C39_3 C40_3 1_555 1_555
C40_3 C41_3 1_555 1_555
C41_3 H20_3 1_555 1_555
C42_3 C43_3 1_555 1_555
C43_3 C41_3 1_555 1_555
H21_3 C43_3 1_555 1_555
C44_3 C40_3 1_555 1_555
H22_3 C44_3 1_555 1_555
C45_3 C42_3 1_555 1_555
H23_3 C45_3 1_555 1_555
C46_3 C32_3 1_555 1_555
C47_3 N2_4 1_555 1_555
C48_3 C12_3 1_555 1_555
H24_3 C48_3 1_555 1_555
O8_2 C39_3 1_555 1_555
O9_2 In2 1_555 1_555
In4 O1_3 1_555 1_555
In3_2 O3_3 1_555 1_555
O10_2 In2 1_555 1_555
O11_2 In2 1_555 1_555
C6_3 C7_3 1_555 1_555
C9_3 N2_4 1_555 1_555
C13_3 C18_3 1_555 1_555
C14_3 C16_3 1_555 1_555
C18_3 N1_3 1_555 1_555
C19_3 N3_4 1_555 1_555
O2_3 In4 1_555 1_555
C26_3 N4_3 1_555 1_555
C28_3 C30_3 1_555 1_555
C30_3 C33_3 1_555 1_555
C32_3 N4_3 1_555 1_555
C33_3 C34_3 1_555 1_555
C39_3 O9_2 1_555 1_555
C42_3 C46_3 1_555 1_555
C44_3 C45_3 1_555 1_555
C46_3 C47_3 1_555 1_555
C47_3 C48_3 1_555 1_555
N2_5 Co1_5 1_555 1_555
N3_5 Co1_5 1_555 1_555
O5_5 Co1_5 1_555 1_555
C25_4 H13_4 1_555 1_555
C26_4 C25_4 1_555 1_555
C27_4 C25_4 1_555 1_555
H14_4 C27_4 1_555 1_555
C28_4 C29_4 1_555 1_555
C30_4 C26_4 1_555 1_555
C31_4 C28_4 1_555 1_555
H16_4 C31_4 1_555 1_555
C32_4 C27_4 1_555 1_555
C33_4 N3_5 1_555 1_555
H17_4 C34_4 1_555 1_555
C35_4 C36_4 1_555 1_555
C36_4 C31_4 1_555 1_555
H18_4 C36_4 1_555 1_555
C38_4 C35_4 1_555 1_555
N4_4 Co1_5 1_555 1_555
O13 C38_4 1_555 1_555
C39_4 C40_4 1_555 1_555
C40_4 C41_4 1_555 1_555
C41_4 H20_4 1_555 1_555
C42_4 C43_4 1_555 1_555
C43_4 C41_4 1_555 1_555
H21_4 C43_4 1_555 1_555
C44_4 C40_4 1_555 1_555
H22_4 C44_4 1_555 1_555
C45_4 C42_4 1_555 1_555
H23_4 C45_4 1_555 1_555
C46_4 C32_4 1_555 1_555
C47_4 N2_5 1_555 1_555
H24_4 C48_4 1_555 1_555
O10_2 C39_4 1_555 1_555
C26_4 N4_4 1_555 1_555
C28_4 C30_4 1_555 1_555
C30_4 C33_4 1_555 1_555
C32_4 N4_4 1_555 1_555
C33_4 C34_4 1_555 1_555
C39_4 O11_2 1_555 1_555
C42_4 C46_4 1_555 1_555
C44_4 C45_4 1_555 1_555
C46_4 C47_4 1_555 1_555
C47_4 C48_4 1_555 1_555
O5_5 H26_2 1_555 1_555
Co1_6 N1_4 1_555 1_555
C1_4 C2_4 1_555 1_555
C2_4 C3_4 1_555 1_555
C3_4 H1_4 1_555 1_555
C4_4 C5_4 1_555 1_555
C5_4 C3_4 1_555 1_555
H2_4 C5_4 1_555 1_555
C6_4 C2_4 1_555 1_555
H3_4 C6_4 1_555 1_555
C7_4 C4_4 1_555 1_555
H4_4 C7_4 1_555 1_555
C8_4 C4_4 1_555 1_555
C9_4 C8_4 1_555 1_555
C10_4 H5_4 1_555 1_555
C11_4 C10_4 1_555 1_555
C12_4 C9_4 1_555 1_555
H6_4 C12_4 1_555 1_555
C13_4 C10_4 1_555 1_555
H7_4 C13_4 1_555 1_555
C14_4 C15_4 1_555 1_555
C16_4 C11_4 1_555 1_555
C17_4 C14_4 1_555 1_555
H9_4 C17_4 1_555 1_555
C18_4 C8_4 1_555 1_555
C19_4 C16_4 1_555 1_555
C20_4 C19_4 1_555 1_555
H10_4 C20_4 1_555 1_555
C21_4 C22_4 1_555 1_555
C22_4 C17_4 1_555 1_555
H11_4 C22_4 1_555 1_555
C24_4 C21_4 1_555 1_555
N1_4 C11_4 1_555 1_555
N2_6 Co1_6 1_555 1_555
N3_6 Co1_6 1_555 1_555
O1_4 C1_4 1_555 1_555
O2_4 C1_4 1_555 1_555
O3_4 C24_4 1_555 1_555
O5_6 Co1_6 1_555 1_555
In4 O1_4 1_555 1_555
In3 O3_4 1_555 1_555
C6_4 C7_4 1_555 1_555
C9_4 N2_6 1_555 1_555
C13_4 C18_4 1_555 1_555
C14_4 C16_4 1_555 1_555
C18_4 N1_4 1_555 1_555
C19_4 N3_6 1_555 1_555
O2_4 In4 1_555 1_555
O5_6 H25_2 1_555 1_555
H19_4 C37_4 1_555 1_555
H12_4 C23_4 1_555 1_555
O4_4 In3_2 1_555 1_555
O5_2 H25_3 1_555 1_555
O5_3 H26_3 1_555 1_555
O5_5 H25_4 1_555 1_555
O5_6 H26_4 1_555 1_555
O9_3 In1_3 1_555 1_555
O10_3 In1_3 1_555 1_555
O12_2 In1_3 1_555 1_555
O15_2 In1_3 1_555 1_555
O2_5 In3_3 1_555 1_555
C14_5 C15_5 1_555 1_555
C15_5 H8_5 1_555 1_555
C17_5 C14_5 1_555 1_555
H9_5 C17_5 1_555 1_555
C19_5 C16_5 1_555 1_555
C20_5 C19_5 1_555 1_555
H10_5 C20_5 1_555 1_555
C21_5 C22_5 1_555 1_555
C22_5 C17_5 1_555 1_555
H11_5 C22_5 1_555 1_555
C23_5 C15_5 1_555 1_555
H12_5 C23_5 1_555 1_555
C24_5 C21_5 1_555 1_555
O3_5 C24_5 1_555 1_555
O4_5 C24_5 1_555 1_555
C28_5 C29_5 1_555 1_555
C29_5 H15_5 1_555 1_555
C31_5 C28_5 1_555 1_555
H16_5 C31_5 1_555 1_555
C33_5 N3_7 1_555 1_555
C34_5 C20_5 1_555 1_555
H17_5 C34_5 1_555 1_555
C35_5 C36_5 1_555 1_555
C36_5 C31_5 1_555 1_555
H18_5 C36_5 1_555 1_555
C37_5 C29_5 1_555 1_555
H19_5 C37_5 1_555 1_555
C38_5 C35_5 1_555 1_555
O6_3 C38_5 1_555 1_555
O7_3 C38_5 1_555 1_555
In2_2 O6_3 1_555 1_555
In4_2 O3_5 1_555 1_555
C14_5 C16_5 1_555 1_555
C19_5 N3_7 1_555 1_555
C21_5 C23_5 1_555 1_555
O4_5 In4_2 1_555 1_555
C28_5 C30_5 1_555 1_555
C30_5 C33_5 1_555 1_555
C33_5 C34_5 1_555 1_555
C35_5 C37_5 1_555 1_555
O7_3 In2_2 1_555 1_555
In1_4 O8_3 1_555 1_555
Co1_7 N1_5 1_555 1_555
C1_5 C2_5 1_555 1_555
C2_5 C3_5 1_555 1_555
C3_5 H1_5 1_555 1_555
C4_5 C5_5 1_555 1_555
C5_5 C3_5 1_555 1_555
H2_5 C5_5 1_555 1_555
C6_5 C2_5 1_555 1_555
C7_5 C4_5 1_555 1_555
H4_5 C7_5 1_555 1_555
C8_5 C4_5 1_555 1_555
C9_5 C8_5 1_555 1_555
C10_5 H5_5 1_555 1_555
C11_5 C10_5 1_555 1_555
C12_5 C9_5 1_555 1_555
H6_5 C12_5 1_555 1_555
C13_5 C10_5 1_555 1_555
H7_5 C13_5 1_555 1_555
C18_5 C8_5 1_555 1_555
N1_5 C11_5 1_555 1_555
N2_7 Co1_7 1_555 1_555
O1_5 C1_5 1_555 1_555
O5_7 Co1_7 1_555 1_555
C25_5 H13_5 1_555 1_555
C26_5 C25_5 1_555 1_555
C27_5 C25_5 1_555 1_555
H14_5 C27_5 1_555 1_555
C32_5 C27_5 1_555 1_555
N4_5 Co1_7 1_555 1_555
C39_5 C40_5 1_555 1_555
C40_5 C41_5 1_555 1_555
C41_5 H20_5 1_555 1_555
C42_5 C43_5 1_555 1_555
C43_5 C41_5 1_555 1_555
H21_5 C43_5 1_555 1_555
C44_5 C40_5 1_555 1_555
C45_5 C42_5 1_555 1_555
H23_5 C45_5 1_555 1_555
C46_5 C32_5 1_555 1_555
C47_5 N2_7 1_555 1_555
C48_5 C12_5 1_555 1_555
H24_5 C48_5 1_555 1_555
O8_3 C39_5 1_555 1_555
In3_4 O1_5 1_555 1_555
O11_3 In1_4 1_555 1_555
O13_2 In1_4 1_555 1_555
O14_2 In1_4 1_555 1_555
C6_5 C7_5 1_555 1_555
C9_5 N2_7 1_555 1_555
C13_5 C18_5 1_555 1_555
C18_5 N1_5 1_555 1_555
C26_5 N4_5 1_555 1_555
C32_5 N4_5 1_555 1_555
C42_5 C46_5 1_555 1_555
C44_5 C45_5 1_555 1_555
C46_5 C47_5 1_555 1_555
C47_5 C48_5 1_555 1_555
C28_6 C29_6 1_555 1_555
C29_6 H15_6 1_555 1_555
C31_6 C28_6 1_555 1_555
H16_6 C31_6 1_555 1_555
C33_6 N3_8 1_555 1_555
H17_6 C34_6 1_555 1_555
C35_6 C36_6 1_555 1_555
C36_6 C31_6 1_555 1_555
H18_6 C36_6 1_555 1_555
C37_6 C29_6 1_555 1_555
H19_6 C37_6 1_555 1_555
C38_6 C35_6 1_555 1_555
O6_4 C38_6 1_555 1_555
O7_4 C38_6 1_555 1_555
In2_2 O6_4 1_555 1_555
C28_6 C30_6 1_555 1_555
C30_6 C33_6 1_555 1_555
C33_6 C34_6 1_555 1_555
C35_6 C37_6 1_555 1_555
O7_4 In2_2 1_555 1_555
C14_6 C15_6 1_555 1_555
C15_6 H8_6 1_555 1_555
C17_6 C14_6 1_555 1_555
H9_6 C17_6 1_555 1_555
C19_6 C16_6 1_555 1_555
C20_6 C19_6 1_555 1_555
H10_6 C20_6 1_555 1_555
C21_6 C22_6 1_555 1_555
C22_6 C17_6 1_555 1_555
H11_6 C22_6 1_555 1_555
C23_6 C15_6 1_555 1_555
H12_6 C23_6 1_555 1_555
C24_6 C21_6 1_555 1_555
O3_6 C24_6 1_555 1_555
O4_6 C24_6 1_555 1_555
In4_2 O3_6 1_555 1_555
C14_6 C16_6 1_555 1_555
C19_6 N3_9 1_555 1_555
C21_6 C23_6 1_555 1_555
O4_6 In4_2 1_555 1_555
N2_8 Co1_8 1_555 1_555
O5_8 Co1_8 1_555 1_555
C25_6 H13_6 1_555 1_555
C26_6 C25_6 1_555 1_555
C27_6 C25_6 1_555 1_555
H14_6 C27_6 1_555 1_555
C32_6 C27_6 1_555 1_555
N4_6 Co1_8 1_555 1_555
C39_6 C40_6 1_555 1_555
C40_6 C41_6 1_555 1_555
C41_6 H20_6 1_555 1_555
C42_6 C43_6 1_555 1_555
C43_6 C41_6 1_555 1_555
H21_6 C43_6 1_555 1_555
C44_6 C40_6 1_555 1_555
C45_6 C42_6 1_555 1_555
H23_6 C45_6 1_555 1_555
C46_6 C32_6 1_555 1_555
C47_6 N2_8 1_555 1_555
H24_6 C48_6 1_555 1_555
O10_3 C39_6 1_555 1_555
C26_6 N4_6 1_555 1_555
C32_6 N4_6 1_555 1_555
C42_6 C46_6 1_555 1_555
C44_6 C45_6 1_555 1_555
C46_6 C47_6 1_555 1_555
C47_6 C48_6 1_555 1_555
O5_8 H26_5 1_555 1_555
Co1_9 N1_6 1_555 1_555
C1_6 C2_6 1_555 1_555
C2_6 C3_6 1_555 1_555
C3_6 H1_6 1_555 1_555
C4_6 C5_6 1_555 1_555
C5_6 C3_6 1_555 1_555
H2_6 C5_6 1_555 1_555
C6_6 C2_6 1_555 1_555
C7_6 C4_6 1_555 1_555
H4_6 C7_6 1_555 1_555
C8_6 C4_6 1_555 1_555
C9_6 C8_6 1_555 1_555
C10_6 H5_6 1_555 1_555
C11_6 C10_6 1_555 1_555
C12_6 C9_6 1_555 1_555
H6_6 C12_6 1_555 1_555
C13_6 C10_6 1_555 1_555
H7_6 C13_6 1_555 1_555
C18_6 C8_6 1_555 1_555
N1_6 C11_6 1_555 1_555
N2_9 Co1_9 1_555 1_555
O1_6 C1_6 1_555 1_555
O5_9 Co1_9 1_555 1_555
In3_3 O1_6 1_555 1_555
C6_6 C7_6 1_555 1_555
C9_6 N2_9 1_555 1_555
C13_6 C18_6 1_555 1_555
C18_6 N1_6 1_555 1_555
O5_9 H25_5 1_555 1_555
O2_6 In3_4 1_555 1_555
In2_2 O8_4 1_555 1_555
Co1_10 N1_7 1_555 1_555
C1_7 C2_7 1_555 1_555
C2_7 C3_7 1_555 1_555
C3_7 H1_7 1_555 1_555
C4_7 C5_7 1_555 1_555
C5_7 C3_7 1_555 1_555
H2_7 C5_7 1_555 1_555
C6_7 C2_7 1_555 1_555
H3_7 C6_7 1_555 1_555
C7_7 C4_7 1_555 1_555
H4_7 C7_7 1_555 1_555
C8_7 C4_7 1_555 1_555
C9_7 C8_7 1_555 1_555
C10_7 H5_7 1_555 1_555
C11_7 C10_7 1_555 1_555
C12_7 C9_7 1_555 1_555
H6_7 C12_7 1_555 1_555
C13_7 C10_7 1_555 1_555
H7_7 C13_7 1_555 1_555
C14_7 C15_7 1_555 1_555
C16_7 C11_7 1_555 1_555
C17_7 C14_7 1_555 1_555
H9_7 C17_7 1_555 1_555
C18_7 C8_7 1_555 1_555
C19_7 C16_7 1_555 1_555
C20_7 C19_7 1_555 1_555
H10_7 C20_7 1_555 1_555
C21_7 C22_7 1_555 1_555
C22_7 C17_7 1_555 1_555
H11_7 C22_7 1_555 1_555
C24_7 C21_7 1_555 1_555
N1_7 C11_7 1_555 1_555
N2_10 Co1_10 1_555 1_555
N3_10 Co1_10 1_555 1_555
O1_7 C1_7 1_555 1_555
O2_7 C1_7 1_555 1_555
O3_7 C24_7 1_555 1_555
O5_10 Co1_10 1_555 1_555
C25_7 H13_7 1_555 1_555
C26_7 C25_7 1_555 1_555
C27_7 C25_7 1_555 1_555
H14_7 C27_7 1_555 1_555
C28_7 C29_7 1_555 1_555
C30_7 C26_7 1_555 1_555
C31_7 C28_7 1_555 1_555
H16_7 C31_7 1_555 1_555
C32_7 C27_7 1_555 1_555
C33_7 N3_10 1_555 1_555
C34_7 C20_7 1_555 1_555
H17_7 C34_7 1_555 1_555
C35_7 C36_7 1_555 1_555
C36_7 C31_7 1_555 1_555
H18_7 C36_7 1_555 1_555
C38_7 C35_7 1_555 1_555
N4_7 Co1_10 1_555 1_555
O12_2 C38_7 1_555 1_555
C39_7 C40_7 1_555 1_555
C40_7 C41_7 1_555 1_555
C41_7 H20_7 1_555 1_555
C42_7 C43_7 1_555 1_555
C43_7 C41_7 1_555 1_555
H21_7 C43_7 1_555 1_555
C44_7 C40_7 1_555 1_555
H22_7 C44_7 1_555 1_555
C45_7 C42_7 1_555 1_555
H23_7 C45_7 1_555 1_555
C46_7 C32_7 1_555 1_555
C47_7 N2_10 1_555 1_555
C48_7 C12_7 1_555 1_555
H24_7 C48_7 1_555 1_555
O8_4 C39_7 1_555 1_555
O9_4 In2_2 1_555 1_555
In4_2 O1_7 1_555 1_555
In3_3 O3_7 1_555 1_555
O10_4 In2_2 1_555 1_555
O11_4 In2_2 1_555 1_555
C6_7 C7_7 1_555 1_555
C9_7 N2_10 1_555 1_555
C13_7 C18_7 1_555 1_555
C14_7 C16_7 1_555 1_555
C18_7 N1_7 1_555 1_555
C19_7 N3_10 1_555 1_555
O2_7 In4_2 1_555 1_555
C26_7 N4_7 1_555 1_555
C28_7 C30_7 1_555 1_555
C30_7 C33_7 1_555 1_555
C32_7 N4_7 1_555 1_555
C33_7 C34_7 1_555 1_555
C39_7 O9_4 1_555 1_555
C42_7 C46_7 1_555 1_555
C44_7 C45_7 1_555 1_555
C46_7 C47_7 1_555 1_555
C47_7 C48_7 1_555 1_555
H12_7 C23_7 1_555 1_555
H19_7 C37_7 1_555 1_555
O4_7 In3_4 1_555 1_555
H19_8 C37_8 1_555 1_555
H12_8 C23_8 1_555 1_555
O4_8 In3_3 1_555 1_555
N2_11 Co1_11 1_555 1_555
N3_11 Co1_11 1_555 1_555
O5_11 Co1_11 1_555 1_555
C25_8 H13_8 1_555 1_555
C26_8 C25_8 1_555 1_555
C27_8 C25_8 1_555 1_555
H14_8 C27_8 1_555 1_555
C28_8 C29_8 1_555 1_555
C30_8 C26_8 1_555 1_555
C31_8 C28_8 1_555 1_555
H16_8 C31_8 1_555 1_555
C32_8 C27_8 1_555 1_555
C33_8 N3_11 1_555 1_555
H17_8 C34_8 1_555 1_555
C35_8 C36_8 1_555 1_555
C36_8 C31_8 1_555 1_555
H18_8 C36_8 1_555 1_555
C38_8 C35_8 1_555 1_555
N4_8 Co1_11 1_555 1_555
O13_2 C38_8 1_555 1_555
C39_8 C40_8 1_555 1_555
C40_8 C41_8 1_555 1_555
C41_8 H20_8 1_555 1_555
C42_8 C43_8 1_555 1_555
C43_8 C41_8 1_555 1_555
H21_8 C43_8 1_555 1_555
C44_8 C40_8 1_555 1_555
H22_8 C44_8 1_555 1_555
C45_8 C42_8 1_555 1_555
H23_8 C45_8 1_555 1_555
C46_8 C32_8 1_555 1_555
C47_8 N2_11 1_555 1_555
H24_8 C48_8 1_555 1_555
O10_4 C39_8 1_555 1_555
C26_8 N4_8 1_555 1_555
C28_8 C30_8 1_555 1_555
C30_8 C33_8 1_555 1_555
C32_8 N4_8 1_555 1_555
C33_8 C34_8 1_555 1_555
C39_8 O11_4 1_555 1_555
C42_8 C46_8 1_555 1_555
C44_8 C45_8 1_555 1_555
C46_8 C47_8 1_555 1_555
C47_8 C48_8 1_555 1_555
O5_11 H26_6 1_555 1_555
Co1_12 N1_8 1_555 1_555
C1_8 C2_8 1_555 1_555
C2_8 C3_8 1_555 1_555
C3_8 H1_8 1_555 1_555
C4_8 C5_8 1_555 1_555
C5_8 C3_8 1_555 1_555
H2_8 C5_8 1_555 1_555
C6_8 C2_8 1_555 1_555
H3_8 C6_8 1_555 1_555
C7_8 C4_8 1_555 1_555
H4_8 C7_8 1_555 1_555
C8_8 C4_8 1_555 1_555
C9_8 C8_8 1_555 1_555
C10_8 H5_8 1_555 1_555
C11_8 C10_8 1_555 1_555
C12_8 C9_8 1_555 1_555
H6_8 C12_8 1_555 1_555
C13_8 C10_8 1_555 1_555
H7_8 C13_8 1_555 1_555
C14_8 C15_8 1_555 1_555
C16_8 C11_8 1_555 1_555
C17_8 C14_8 1_555 1_555
H9_8 C17_8 1_555 1_555
C18_8 C8_8 1_555 1_555
C19_8 C16_8 1_555 1_555
C20_8 C19_8 1_555 1_555
H10_8 C20_8 1_555 1_555
C21_8 C22_8 1_555 1_555
C22_8 C17_8 1_555 1_555
H11_8 C22_8 1_555 1_555
C24_8 C21_8 1_555 1_555
N1_8 C11_8 1_555 1_555
N2_12 Co1_12 1_555 1_555
N3_12 Co1_12 1_555 1_555
O1_8 C1_8 1_555 1_555
O2_8 C1_8 1_555 1_555
O3_8 C24_8 1_555 1_555
O5_12 Co1_12 1_555 1_555
In4_2 O1_8 1_555 1_555
In3_4 O3_8 1_555 1_555
C6_8 C7_8 1_555 1_555
C9_8 N2_12 1_555 1_555
C13_8 C18_8 1_555 1_555
C14_8 C16_8 1_555 1_555
C18_8 N1_8 1_555 1_555
C19_8 N3_12 1_555 1_555
O2_8 In4_2 1_555 1_555
O5_12 H25_6 1_555 1_555
O5_8 H25_7 1_555 1_555
O5_9 H26_7 1_555 1_555
O5_11 H25_8 1_555 1_555
O5_12 H26_8 1_555 1_555

#END
