
###############################################################################
#
# This file contains modified crystal structure data generated from the
# MOF subset of the Cambridge Structural Database (CSD) v543 
# hosted by the Cambridge Crystallographic Data Centre (CCDC).
#
# This work is licensed under the Creative Commons
# Attribution-NonCommercial-ShareAlike 4.0 International License.
# To view a copy of this license, visit
# http://creativecommons.org/licenses/by-nc-sa/4.0/
# or send a letter to
# Creative Commons, PO Box 1866, Mountain View, CA 94042, USA.
#
# CIF created using the CSD Python API on 29 September 2022
# The structure has been converted into the P1 space group
# The structure has a 3D framework
# The original CSD entry IYICUP is in the orthorhombic crystal system
# The framework has been calculated to contain at least 10.0% void space
# The void calculation uses a probe of radius 1.32A, grid spacing 0.4
#
###############################################################################

data_IYICUP
_chemical_formula_moiety         '(C576 H288 Co8 La14 N96 O192)n'
_symmetry_cell_setting           triclinic
_symmetry_space_group_name_H-M   'P 1'
_symmetry_Int_Tables_number      1
_space_group_name_Hall           'P 1'
loop_
_symmetry_equiv_pos_site_id
_symmetry_equiv_pos_as_xyz
1 x,y,z
_cell_length_a                   23.522(3)
_cell_length_b                   28.077(4)
_cell_length_c                   36.438(5)
_cell_angle_alpha                90
_cell_angle_beta                 90
_cell_angle_gamma                90
_cell_volume                     24064.6
loop_
_atom_site_label
_atom_site_type_symbol
_atom_site_fract_x
_atom_site_fract_y
_atom_site_fract_z
La1 La 0.39669(2) 0.1250 0.1250
Co1 Co 0.1250 0.35862(5) 0.1250
O1 O 0.3074(2) 0.16890(19) 0.10061(14)
O2 O 0.3286(2) 0.1872(2) 0.15757(14)
O3 O 0.2472(3) 0.3220(3) 0.29348(17)
O4 O 0.1747(3) 0.3684(2) 0.31111(15)
O5 O 0.4157(3) 0.2177(2) 0.1080(2)
O6 O 0.4861(3) 0.1790(2) 0.13459(19)
N1 N 0.1818(2) 0.3084(2) 0.12227(15)
N2 N 0.1422(2) 0.3564(2) 0.17680(17)
N3 N 0.5705(2) 0.3405(2) 0.12071(16)
C1 C 0.1992(3) 0.2855(2) 0.0919(2)
C2 C 0.2377(3) 0.2486(2) 0.0934(2)
C3 C 0.2589(3) 0.2347(2) 0.1256(2)
C4 C 0.2422(3) 0.2582(2) 0.1578(2)
C5 C 0.2031(3) 0.2954(2) 0.15486(19)
C6 C 0.1828(3) 0.3238(2) 0.18580(19)
C7 C 0.2029(3) 0.3194(2) 0.2217(2)
C8 C 0.1793(3) 0.3484(3) 0.24898(19)
C9 C 0.1378(3) 0.3808(3) 0.2394(2)
C10 C 0.1207(3) 0.3843(2) 0.2032(2)
C11 C 0.3010(3) 0.1936(2) 0.12816(19)
C12 C 0.2023(4) 0.3458(3) 0.2876(2)
C13 C 0.5140(3) 0.3446(3) 0.1164(2)
C14 C 0.4797(4) 0.3048(3) 0.1161(2)
C15 C 0.5030(4) 0.2594(2) 0.1202(2)
C16 C 0.5610(3) 0.2547(2) 0.1231(2)
C17 C 0.5939(3) 0.2962(2) 0.1234(2)
C18 C 0.4656(4) 0.2148(3) 0.1216(2)
H1 H 0.1846 0.2950 0.0687
H2 H 0.2491 0.2331 0.0715
H3 H 0.2570 0.2490 0.1810
H4 H 0.2320 0.2972 0.2275
H5 H 0.1210 0.4005 0.2576
H6 H 0.0927 0.4072 0.1968
H7 H 0.4975 0.3753 0.1134
H8 H 0.4398 0.3084 0.1132
H9 H 0.5782 0.2242 0.1248
La2 La 0.14669(2) 0.3750 0.3750
La3 La 0.85331(2) 0.1250 0.1250
Co2 Co 0.6250 0.39138(5) 0.1250
Co3 Co 0.3750 0.10862(5) 0.3750
O8 O 0.3074(2) 0.08110(19) 0.14939(14)
O10 O 0.3286(2) 0.0628(2) 0.09243(14)
O11 O 0.4972(3) 0.0720(3) 0.20652(17)
O12 O 0.4247(3) 0.1184(2) 0.18889(15)
O13 O 0.4247(3) 0.1316(2) 0.06111(15)
O14 O 0.8343(3) 0.2177(2) 0.1420(2)
O15 O 0.4157(3) 0.0323(2) 0.1420(2)
O16 O 0.7639(3) 0.1790(2) 0.11541(19)
O17 O 0.4861(3) 0.0710(2) 0.11541(19)
N4 N 0.4318(2) 0.0584(2) 0.37773(15)
N5 N 0.0682(2) 0.3084(2) 0.12773(15)
N6 N 0.3922(2) 0.1064(2) 0.32320(17)
N7 N 0.1078(2) 0.3564(2) 0.07320(17)
N8 N 0.6795(2) 0.3405(2) 0.12929(16)
N9 N 0.1795(2) 0.4095(2) 0.12071(16)
N10 N 0.0705(2) 0.4095(2) 0.12929(16)
C19 C 0.4492(3) 0.0355(2) 0.4081(2)
C22 C 0.4922(3) 0.0082(2) 0.3422(2)
C23 C 0.4531(3) 0.0454(2) 0.34514(19)
C24 C 0.4328(3) 0.0738(2) 0.31420(19)
C25 C 0.4529(3) 0.0694(2) 0.2783(2)
C26 C 0.4293(3) 0.0984(3) 0.25102(19)
C27 C 0.3878(3) 0.1308(3) 0.2606(2)
C28 C 0.3707(3) 0.1343(2) 0.2968(2)
C30 C 0.4523(4) 0.0958(3) 0.2124(2)
C31 C 0.7360(3) 0.3446(3) 0.1336(2)
C32 C 0.7703(4) 0.3048(3) 0.1339(2)
C33 C 0.7470(4) 0.2594(2) 0.1298(2)
C34 C 0.6890(3) 0.2547(2) 0.1269(2)
C35 C 0.6561(3) 0.2962(2) 0.1266(2)
C36 C 0.7844(4) 0.2148(3) 0.1284(2)
H10 H 0.4346 0.0450 0.4313
H13 H 0.4820 0.0472 0.2725
H14 H 0.3710 0.1505 0.2424
H15 H 0.3427 0.1572 0.3032
H16 H 0.7525 0.3753 0.1366
H17 H 0.8102 0.3084 0.1368
H18 H 0.6718 0.2242 0.1252
La4 La 0.64669(2) 0.8750 0.3750
O7 O 0.5574(2) 0.91890(19) 0.39939(14)
O9 O 0.5786(2) 0.9372(2) 0.34243(14)
C20 C 0.4877(3) 0.9986(2) 0.4066(2)
C21 C 0.5089(3) 0.9847(2) 0.3744(2)
C29 C 0.5510(3) 0.9436(2) 0.37184(19)
H11 H 0.4991 0.9831 0.4285
H12 H 0.5070 0.9990 0.3190
Co1_2 Co 0.1250 0.39138(5) 0.6250
O3_2 O 0.0028(3) 0.4280(3) 0.79348(17)
O4_2 O 0.0753(3) 0.3816(2) 0.81111(15)
N1_2 N 0.0682(2) 0.4416(2) 0.62227(15)
N2_2 N 0.1078(2) 0.3936(2) 0.67680(17)
C1_2 C 0.0508(3) 0.4645(2) 0.5919(2)
C2_2 C 0.0123(3) 0.5014(2) 0.5934(2)
C4_2 C 0.0078(3) 0.4918(2) 0.6578(2)
C5_2 C 0.0469(3) 0.4546(2) 0.65486(19)
C6_2 C 0.0672(3) 0.4262(2) 0.68580(19)
C7_2 C 0.0471(3) 0.4306(2) 0.7217(2)
C8_2 C 0.0707(3) 0.4016(3) 0.74898(19)
C9_2 C 0.1122(3) 0.3692(3) 0.7394(2)
C10_2 C 0.1293(3) 0.3657(2) 0.7032(2)
C12_2 C 0.0477(4) 0.4042(3) 0.7876(2)
H1_2 H 0.0654 0.4550 0.5687
H2_2 H 0.0009 0.5169 0.5715
H4_2 H 0.0180 0.4528 0.7275
H5_2 H 0.1290 0.3495 0.7576
H6_2 H 0.1573 0.3428 0.6968
La2_2 La 0.10331(2) 0.3750 0.8750
N5_2 N 0.1818(2) 0.4416(2) 0.62773(15)
N7_2 N 0.1422(2) 0.3936(2) 0.57320(17)
N9_2 N 0.0705(2) 0.3405(2) 0.62071(16)
N10_2 N 0.1795(2) 0.3405(2) 0.62929(16)
La1_2 La 0.85331(2) 0.6250 0.6250
O1_2 O 0.9426(2) 0.58110(19) 0.60061(14)
O2_2 O 0.9214(2) 0.5628(2) 0.65757(14)
O5_2 O 0.8343(3) 0.5323(2) 0.6080(2)
O6_2 O 0.7639(3) 0.5710(2) 0.63459(19)
N3_2 N 0.6795(2) 0.4095(2) 0.62071(16)
C3_2 C 0.9911(3) 0.5153(2) 0.6256(2)
C11_2 C 0.9490(3) 0.5564(2) 0.62816(19)
C13_2 C 0.7360(3) 0.4054(3) 0.6164(2)
C14_2 C 0.7703(4) 0.4452(3) 0.6161(2)
C15_2 C 0.7470(4) 0.4906(2) 0.6202(2)
C16_2 C 0.6890(3) 0.4953(2) 0.6231(2)
C17_2 C 0.6561(3) 0.4538(2) 0.6234(2)
C18_2 C 0.7844(4) 0.5352(3) 0.6216(2)
H3_2 H 0.9930 0.5010 0.6810
H7_2 H 0.7525 0.3747 0.6134
H8_2 H 0.8102 0.4416 0.6132
H9_2 H 0.6718 0.5258 0.6248
La3_2 La 0.39669(2) 0.6250 0.6250
La4_2 La 0.60331(2) 0.8750 0.8750
Co2_2 Co 0.6250 0.35862(5) 0.6250
Co3_2 Co 0.8750 0.64138(5) 0.8750
O7_2 O 0.6926(2) 0.83110(19) 0.89939(14)
O8_2 O 0.9426(2) 0.66890(19) 0.64939(14)
O9_2 O 0.6714(2) 0.8128(2) 0.84243(14)
O10_2 O 0.9214(2) 0.6872(2) 0.59243(14)
O11_2 O 0.7528(3) 0.6780(3) 0.70652(17)
O12_2 O 0.8253(3) 0.6316(2) 0.68889(15)
O13_2 O 0.8253(3) 0.6184(2) 0.56111(15)
O14_2 O 0.4157(3) 0.5323(2) 0.6420(2)
O15_2 O 0.8343(3) 0.7177(2) 0.6420(2)
O16_2 O 0.4861(3) 0.5710(2) 0.61541(19)
O17_2 O 0.7639(3) 0.6790(2) 0.61541(19)
N4_2 N 0.8182(2) 0.6916(2) 0.87773(15)
N6_2 N 0.8578(2) 0.6436(2) 0.82320(17)
N8_2 N 0.5705(2) 0.4095(2) 0.62929(16)
C19_2 C 0.8008(3) 0.7145(2) 0.9081(2)
C20_2 C 0.7623(3) 0.7514(2) 0.9066(2)
C21_2 C 0.7411(3) 0.7653(2) 0.8744(2)
C22_2 C 0.7578(3) 0.7418(2) 0.8422(2)
C23_2 C 0.7969(3) 0.7046(2) 0.84514(19)
C24_2 C 0.8172(3) 0.6762(2) 0.81420(19)
C25_2 C 0.7971(3) 0.6806(2) 0.7783(2)
C26_2 C 0.8207(3) 0.6516(3) 0.75102(19)
C27_2 C 0.8622(3) 0.6192(3) 0.7606(2)
C28_2 C 0.8793(3) 0.6157(2) 0.7968(2)
C29_2 C 0.6990(3) 0.8064(2) 0.87184(19)
C30_2 C 0.7977(4) 0.6542(3) 0.7124(2)
C31_2 C 0.5140(3) 0.4054(3) 0.6336(2)
C32_2 C 0.4797(4) 0.4452(3) 0.6339(2)
C33_2 C 0.5030(4) 0.4906(2) 0.6298(2)
C34_2 C 0.5610(3) 0.4953(2) 0.6269(2)
C35_2 C 0.5939(3) 0.4538(2) 0.6266(2)
C36_2 C 0.4656(4) 0.5352(3) 0.6284(2)
H10_2 H 0.8154 0.7050 0.9313
H11_2 H 0.7509 0.7669 0.9285
H12_2 H 0.7430 0.7510 0.8190
H13_2 H 0.7680 0.7028 0.7725
H14_2 H 0.8790 0.5995 0.7424
H15_2 H 0.9073 0.5928 0.8032
H16_2 H 0.4975 0.3747 0.6366
H17_2 H 0.4398 0.4416 0.6368
H18_2 H 0.5782 0.5258 0.6252
C2_3 C 0.2377(3) 0.0014(2) 0.1566(2)
C3_3 C 0.2589(3) 0.0153(2) 0.1244(2)
C11_3 C 0.3010(3) 0.0564(2) 0.12184(19)
C18_3 C 0.4656(4) 0.0352(3) 0.1284(2)
H2_3 H 0.2491 0.0169 0.1785
H3_3 H 0.2570 0.0010 0.0690
H9_3 H 0.5782 0.0258 0.1252
O11_3 O 0.4972(3) 0.1780(3) 0.04348(17)
O14_3 O 0.8343(3) 0.0323(2) 0.1080(2)
O16_3 O 0.7639(3) 0.0710(2) 0.13459(19)
C30_3 C 0.4523(4) 0.1542(3) 0.0376(2)
C36_3 C 0.7844(4) 0.0352(3) 0.1216(2)
H14_3 H 0.3710 0.0995 0.0076
H18_3 H 0.6718 0.0258 0.1248
La4_3 La 0.64669(2) 0.3750 0.8750
Co3_3 Co 0.3750 0.14138(5) 0.8750
O7_3 O 0.5574(2) 0.33110(19) 0.85061(14)
O9_3 O 0.5786(2) 0.3128(2) 0.90757(14)
N4_3 N 0.4318(2) 0.1916(2) 0.87227(15)
N6_3 N 0.3922(2) 0.1436(2) 0.92680(17)
C19_3 C 0.4492(3) 0.2145(2) 0.8419(2)
C20_3 C 0.4877(3) 0.2514(2) 0.8434(2)
C21_3 C 0.5089(3) 0.2653(2) 0.8756(2)
C22_3 C 0.4922(3) 0.2418(2) 0.9078(2)
C23_3 C 0.4531(3) 0.2046(2) 0.90486(19)
C24_3 C 0.4328(3) 0.1762(2) 0.93580(19)
C25_3 C 0.4529(3) 0.1806(2) 0.9717(2)
C26_3 C 0.4293(3) 0.1516(3) 0.99898(19)
C27_3 C 0.3878(3) 0.1192(3) 0.9894(2)
C28_3 C 0.3707(3) 0.1157(2) 0.9532(2)
C29_3 C 0.5510(3) 0.3064(2) 0.87816(19)
H10_3 H 0.4346 0.2050 0.8187
H11_3 H 0.4991 0.2669 0.8215
H12_3 H 0.5070 0.2510 0.9310
H13_3 H 0.4820 0.2028 0.9775
H15_3 H 0.3427 0.0928 0.9468
Co1_3 Co 0.1250 0.89138(5) 0.1250
N1_3 N 0.1818(2) 0.9416(2) 0.12773(15)
N2_3 N 0.1422(2) 0.8936(2) 0.07320(17)
N3_3 N 0.5705(2) 0.9095(2) 0.12929(16)
C1_3 C 0.1992(3) 0.9645(2) 0.1581(2)
C4_3 C 0.2422(3) 0.9918(2) 0.0922(2)
C5_3 C 0.2031(3) 0.9546(2) 0.09514(19)
C6_3 C 0.1828(3) 0.9262(2) 0.06420(19)
C7_3 C 0.2029(3) 0.9306(2) 0.0283(2)
C8_3 C 0.1793(3) 0.9016(3) 0.00102(19)
C9_3 C 0.1378(3) 0.8692(3) 0.0106(2)
C10_3 C 0.1207(3) 0.8657(2) 0.0468(2)
C13_3 C 0.5140(3) 0.9054(3) 0.1336(2)
C14_3 C 0.4797(4) 0.9452(3) 0.1339(2)
C15_3 C 0.5030(4) 0.9906(2) 0.1298(2)
C16_3 C 0.5610(3) 0.9953(2) 0.1269(2)
C17_3 C 0.5939(3) 0.9538(2) 0.1266(2)
H1_3 H 0.1846 0.9550 0.1813
H4_3 H 0.2320 0.9528 0.0225
H6_3 H 0.0927 0.8428 0.0532
H7_3 H 0.4975 0.8747 0.1366
H8_3 H 0.4398 0.9416 0.1368
Co2_3 Co 0.6250 0.85862(5) 0.1250
N5_3 N 0.0682(2) 0.9416(2) 0.12227(15)
N7_3 N 0.1078(2) 0.8936(2) 0.17680(17)
N8_3 N 0.6795(2) 0.9095(2) 0.12071(16)
N9_3 N 0.1795(2) 0.8405(2) 0.12929(16)
N10_3 N 0.0705(2) 0.8405(2) 0.12071(16)
C31_3 C 0.7360(3) 0.9054(3) 0.1164(2)
C32_3 C 0.7703(4) 0.9452(3) 0.1161(2)
C33_3 C 0.7470(4) 0.9906(2) 0.1202(2)
C34_3 C 0.6890(3) 0.9953(2) 0.1231(2)
C35_3 C 0.6561(3) 0.9538(2) 0.1234(2)
H16_3 H 0.7525 0.8747 0.1134
H17_3 H 0.8102 0.9416 0.1132
O3_3 O 0.2472(3) 0.9280(3) 0.95652(17)
O4_3 O 0.1747(3) 0.8816(2) 0.93889(15)
C12_3 C 0.2023(4) 0.9042(3) 0.9624(2)
H5_3 H 0.1210 0.8495 0.9924
La2_3 La 0.14669(2) 0.8750 0.8750
C1_4 C 0.0508(3) 0.2855(2) 0.1581(2)
C2_4 C 0.0123(3) 0.2486(2) 0.1566(2)
C4_4 C 0.0078(3) 0.2582(2) 0.0922(2)
C5_4 C 0.0469(3) 0.2954(2) 0.09514(19)
C6_4 C 0.0672(3) 0.3238(2) 0.06420(19)
C7_4 C 0.0471(3) 0.3194(2) 0.0283(2)
C8_4 C 0.0707(3) 0.3484(3) 0.00102(19)
C9_4 C 0.1122(3) 0.3808(3) 0.0106(2)
C10_4 C 0.1293(3) 0.3843(2) 0.0468(2)
H1_4 H 0.0654 0.2950 0.1813
H2_4 H 0.0009 0.2331 0.1785
H4_4 H 0.0180 0.2972 0.0225
H6_4 H 0.1573 0.4072 0.0532
O3_4 O 0.0028(3) 0.3220(3) 0.95652(17)
O4_4 O 0.0753(3) 0.3684(2) 0.93889(15)
C12_4 C 0.0477(4) 0.3458(3) 0.9624(2)
H5_4 H 0.1290 0.4005 0.9924
O1_3 O 0.9426(2) 0.16890(19) 0.14939(14)
O2_3 O 0.9214(2) 0.1872(2) 0.09243(14)
C3_4 C 0.9911(3) 0.2347(2) 0.1244(2)
C11_4 C 0.9490(3) 0.1936(2) 0.12184(19)
H3_4 H 0.9930 0.2490 0.0690
O8_3 O 0.9426(2) 0.08110(19) 0.10061(14)
O10_3 O 0.9214(2) 0.0628(2) 0.15757(14)
O11_4 O 0.7528(3) 0.0720(3) 0.04348(17)
O12_3 O 0.8253(3) 0.1184(2) 0.06111(15)
O13_3 O 0.8253(3) 0.1316(2) 0.18889(15)
C30_4 C 0.7977(4) 0.0958(3) 0.0376(2)
H14_4 H 0.8790 0.1505 0.0076
Co3_4 Co 0.8750 0.10862(5) 0.8750
N4_4 N 0.8182(2) 0.0584(2) 0.87227(15)
N6_4 N 0.8578(2) 0.1064(2) 0.92680(17)
C19_4 C 0.8008(3) 0.0355(2) 0.8419(2)
C22_4 C 0.7578(3) 0.0082(2) 0.9078(2)
C23_4 C 0.7969(3) 0.0454(2) 0.90486(19)
C24_4 C 0.8172(3) 0.0738(2) 0.93580(19)
C25_4 C 0.7971(3) 0.0694(2) 0.9717(2)
C26_4 C 0.8207(3) 0.0984(3) 0.99898(19)
C27_4 C 0.8622(3) 0.1308(3) 0.9894(2)
C28_4 C 0.8793(3) 0.1343(2) 0.9532(2)
H10_4 H 0.8154 0.0450 0.8187
H13_4 H 0.7680 0.0472 0.9775
H15_4 H 0.9073 0.1572 0.9468
O7_4 O 0.6926(2) 0.91890(19) 0.85061(14)
O9_4 O 0.6714(2) 0.9372(2) 0.90757(14)
C20_4 C 0.7623(3) 0.9986(2) 0.8434(2)
C21_4 C 0.7411(3) 0.9847(2) 0.8756(2)
C29_4 C 0.6990(3) 0.9436(2) 0.87816(19)
H11_4 H 0.7509 0.9831 0.8215
H12_4 H 0.7430 0.9990 0.9310
Co1_4 Co 0.1250 0.85862(5) 0.6250
O1_4 O 0.3074(2) 0.66890(19) 0.60061(14)
O2_4 O 0.3286(2) 0.6872(2) 0.65757(14)
O3_5 O 0.2472(3) 0.8220(3) 0.79348(17)
O4_5 O 0.1747(3) 0.8684(2) 0.81111(15)
O5_3 O 0.4157(3) 0.7177(2) 0.6080(2)
O6_3 O 0.4861(3) 0.6790(2) 0.63459(19)
N1_4 N 0.1818(2) 0.8084(2) 0.62227(15)
N2_4 N 0.1422(2) 0.8564(2) 0.67680(17)
N3_4 N 0.5705(2) 0.8405(2) 0.62071(16)
C1_5 C 0.1992(3) 0.7855(2) 0.5919(2)
C2_5 C 0.2377(3) 0.7486(2) 0.5934(2)
C3_5 C 0.2589(3) 0.7347(2) 0.6256(2)
C4_5 C 0.2422(3) 0.7582(2) 0.6578(2)
C5_5 C 0.2031(3) 0.7954(2) 0.65486(19)
C6_5 C 0.1828(3) 0.8238(2) 0.68580(19)
C7_5 C 0.2029(3) 0.8194(2) 0.7217(2)
C8_5 C 0.1793(3) 0.8484(3) 0.74898(19)
C9_5 C 0.1378(3) 0.8808(3) 0.7394(2)
C10_5 C 0.1207(3) 0.8843(2) 0.7032(2)
C11_5 C 0.3010(3) 0.6936(2) 0.62816(19)
C12_5 C 0.2023(4) 0.8458(3) 0.7876(2)
C13_4 C 0.5140(3) 0.8446(3) 0.6164(2)
C14_4 C 0.4797(4) 0.8048(3) 0.6161(2)
C15_4 C 0.5030(4) 0.7594(2) 0.6202(2)
C16_4 C 0.5610(3) 0.7547(2) 0.6231(2)
C17_4 C 0.5939(3) 0.7962(2) 0.6234(2)
C18_4 C 0.4656(4) 0.7148(3) 0.6216(2)
H1_5 H 0.1846 0.7950 0.5687
H2_5 H 0.2491 0.7331 0.5715
H3_5 H 0.2570 0.7490 0.6810
H4_5 H 0.2320 0.7972 0.7275
H5_5 H 0.1210 0.9005 0.7576
H6_5 H 0.0927 0.9072 0.6968
H7_4 H 0.4975 0.8753 0.6134
H8_4 H 0.4398 0.8084 0.6132
H9_4 H 0.5782 0.7242 0.6248
Co2_4 Co 0.6250 0.89138(5) 0.6250
Co3_5 Co 0.3750 0.60862(5) 0.8750
O7_5 O 0.5574(2) 0.41890(19) 0.89939(14)
O8_4 O 0.3074(2) 0.58110(19) 0.64939(14)
O9_5 O 0.5786(2) 0.4372(2) 0.84243(14)
O10_4 O 0.3286(2) 0.5628(2) 0.59243(14)
O11_5 O 0.4972(3) 0.5720(3) 0.70652(17)
O12_4 O 0.4247(3) 0.6184(2) 0.68889(15)
O13_4 O 0.4247(3) 0.6316(2) 0.56111(15)
N4_5 N 0.4318(2) 0.5584(2) 0.87773(15)
N5_4 N 0.0682(2) 0.8084(2) 0.62773(15)
N6_5 N 0.3922(2) 0.6064(2) 0.82320(17)
N7_4 N 0.1078(2) 0.8564(2) 0.57320(17)
N8_4 N 0.6795(2) 0.8405(2) 0.62929(16)
N9_4 N 0.1795(2) 0.9095(2) 0.62071(16)
N10_4 N 0.0705(2) 0.9095(2) 0.62929(16)
C19_5 C 0.4492(3) 0.5355(2) 0.9081(2)
C20_5 C 0.4877(3) 0.4986(2) 0.9066(2)
C21_5 C 0.5089(3) 0.4847(2) 0.8744(2)
C22_5 C 0.4922(3) 0.5082(2) 0.8422(2)
C23_5 C 0.4531(3) 0.5454(2) 0.84514(19)
C24_5 C 0.4328(3) 0.5738(2) 0.81420(19)
C25_5 C 0.4529(3) 0.5694(2) 0.7783(2)
C26_5 C 0.4293(3) 0.5984(3) 0.75102(19)
C27_5 C 0.3878(3) 0.6308(3) 0.7606(2)
C28_5 C 0.3707(3) 0.6343(2) 0.7968(2)
C29_5 C 0.5510(3) 0.4436(2) 0.87184(19)
C30_5 C 0.4523(4) 0.5958(3) 0.7124(2)
C31_4 C 0.7360(3) 0.8446(3) 0.6336(2)
C32_4 C 0.7703(4) 0.8048(3) 0.6339(2)
C33_4 C 0.7470(4) 0.7594(2) 0.6298(2)
C34_4 C 0.6890(3) 0.7547(2) 0.6269(2)
C35_4 C 0.6561(3) 0.7962(2) 0.6266(2)
C36_4 C 0.7844(4) 0.7148(3) 0.6284(2)
H10_5 H 0.4346 0.5450 0.9313
H11_5 H 0.4991 0.4831 0.9285
H12_5 H 0.5070 0.4990 0.8190
H13_5 H 0.4820 0.5472 0.7725
H14_5 H 0.3710 0.6505 0.7424
H15_5 H 0.3427 0.6572 0.8032
H16_4 H 0.7525 0.8753 0.6366
H17_4 H 0.8102 0.8084 0.6368
H18_4 H 0.6718 0.7242 0.6252
O3_6 O 0.0028(3) 0.9280(3) 0.29348(17)
O4_6 O 0.0753(3) 0.8816(2) 0.31111(15)
C1_6 C 0.0508(3) 0.9645(2) 0.0919(2)
C4_6 C 0.0078(3) 0.9918(2) 0.1578(2)
C5_6 C 0.0469(3) 0.9546(2) 0.15486(19)
C6_6 C 0.0672(3) 0.9262(2) 0.18580(19)
C7_6 C 0.0471(3) 0.9306(2) 0.2217(2)
C8_6 C 0.0707(3) 0.9016(3) 0.24898(19)
C9_6 C 0.1122(3) 0.8692(3) 0.2394(2)
C10_6 C 0.1293(3) 0.8657(2) 0.2032(2)
C12_6 C 0.0477(4) 0.9042(3) 0.2876(2)
H1_6 H 0.0654 0.9550 0.0687
H4_6 H 0.0180 0.9528 0.2275
H5_6 H 0.1290 0.8495 0.2576
H6_6 H 0.1573 0.8428 0.1968
La2_4 La 0.10331(2) 0.8750 0.3750
C3_6 C 0.9911(3) 0.0153(2) 0.1256(2)
C11_6 C 0.9490(3) 0.0564(2) 0.12816(19)
H3_6 H 0.9930 0.0010 0.1810
La4_4 La 0.60331(2) 0.3750 0.3750
Co3_6 Co 0.8750 0.14138(5) 0.3750
O7_6 O 0.6926(2) 0.33110(19) 0.39939(14)
O9_6 O 0.6714(2) 0.3128(2) 0.34243(14)
O11_6 O 0.7528(3) 0.1780(3) 0.20652(17)
N4_6 N 0.8182(2) 0.1916(2) 0.37773(15)
N6_6 N 0.8578(2) 0.1436(2) 0.32320(17)
C19_6 C 0.8008(3) 0.2145(2) 0.4081(2)
C20_6 C 0.7623(3) 0.2514(2) 0.4066(2)
C21_6 C 0.7411(3) 0.2653(2) 0.3744(2)
C22_6 C 0.7578(3) 0.2418(2) 0.3422(2)
C23_6 C 0.7969(3) 0.2046(2) 0.34514(19)
C24_6 C 0.8172(3) 0.1762(2) 0.31420(19)
C25_6 C 0.7971(3) 0.1806(2) 0.2783(2)
C26_6 C 0.8207(3) 0.1516(3) 0.25102(19)
C27_6 C 0.8622(3) 0.1192(3) 0.2606(2)
C28_6 C 0.8793(3) 0.1157(2) 0.2968(2)
C29_6 C 0.6990(3) 0.3064(2) 0.37184(19)
C30_6 C 0.7977(4) 0.1542(3) 0.2124(2)
H10_6 H 0.8154 0.2050 0.4313
H11_6 H 0.7509 0.2669 0.4285
H12_6 H 0.7430 0.2510 0.3190
H13_6 H 0.7680 0.2028 0.2725
H14_6 H 0.8790 0.0995 0.2424
H15_6 H 0.9073 0.0928 0.3032
O3_7 O 0.2472(3) 0.4280(3) 0.45652(17)
O4_7 O 0.1747(3) 0.3816(2) 0.43889(15)
C1_7 C 0.1992(3) 0.4645(2) 0.6581(2)
C2_6 C 0.2377(3) 0.5014(2) 0.6566(2)
C3_7 C 0.2589(3) 0.5153(2) 0.6244(2)
C4_7 C 0.2422(3) 0.4918(2) 0.5922(2)
C5_7 C 0.2031(3) 0.4546(2) 0.59514(19)
C6_7 C 0.1828(3) 0.4262(2) 0.56420(19)
C7_7 C 0.2029(3) 0.4306(2) 0.5283(2)
C8_7 C 0.1793(3) 0.4016(3) 0.50102(19)
C9_7 C 0.1378(3) 0.3692(3) 0.5106(2)
C10_7 C 0.1207(3) 0.3657(2) 0.5468(2)
C11_7 C 0.3010(3) 0.5564(2) 0.62184(19)
C12_7 C 0.2023(4) 0.4042(3) 0.4624(2)
H1_7 H 0.1846 0.4550 0.6813
H2_6 H 0.2491 0.5169 0.6785
H3_7 H 0.2570 0.5010 0.5690
H4_7 H 0.2320 0.4528 0.5225
H5_7 H 0.1210 0.3495 0.4924
H6_7 H 0.0927 0.3428 0.5532
Co3_7 Co 0.3750 0.64138(5) 0.3750
O7_7 O 0.5574(2) 0.83110(19) 0.35061(14)
O9_7 O 0.5786(2) 0.8128(2) 0.40757(14)
O11_7 O 0.4972(3) 0.6780(3) 0.54348(17)
N4_7 N 0.4318(2) 0.6916(2) 0.37227(15)
N6_7 N 0.3922(2) 0.6436(2) 0.42680(17)
C19_7 C 0.4492(3) 0.7145(2) 0.3419(2)
C20_7 C 0.4877(3) 0.7514(2) 0.3434(2)
C21_7 C 0.5089(3) 0.7653(2) 0.3756(2)
C22_7 C 0.4922(3) 0.7418(2) 0.4078(2)
C23_7 C 0.4531(3) 0.7046(2) 0.40486(19)
C24_7 C 0.4328(3) 0.6762(2) 0.43580(19)
C25_7 C 0.4529(3) 0.6806(2) 0.4717(2)
C26_7 C 0.4293(3) 0.6516(3) 0.49898(19)
C27_7 C 0.3878(3) 0.6192(3) 0.4894(2)
C28_7 C 0.3707(3) 0.6157(2) 0.4532(2)
C29_7 C 0.5510(3) 0.8064(2) 0.37816(19)
C30_7 C 0.4523(4) 0.6542(3) 0.5376(2)
H10_7 H 0.4346 0.7050 0.3187
H11_7 H 0.4991 0.7669 0.3215
H12_7 H 0.5070 0.7510 0.4310
H13_7 H 0.4820 0.7028 0.4775
H14_7 H 0.3710 0.5995 0.5076
H15_7 H 0.3427 0.5928 0.4468
O3_8 O 0.0028(3) 0.8220(3) 0.45652(17)
O4_8 O 0.0753(3) 0.8684(2) 0.43889(15)
C1_8 C 0.0508(3) 0.7855(2) 0.6581(2)
C2_7 C 0.0123(3) 0.7486(2) 0.6566(2)
C4_8 C 0.0078(3) 0.7582(2) 0.5922(2)
C5_8 C 0.0469(3) 0.7954(2) 0.59514(19)
C6_8 C 0.0672(3) 0.8238(2) 0.56420(19)
C7_8 C 0.0471(3) 0.8194(2) 0.5283(2)
C8_8 C 0.0707(3) 0.8484(3) 0.50102(19)
C9_8 C 0.1122(3) 0.8808(3) 0.5106(2)
C10_8 C 0.1293(3) 0.8843(2) 0.5468(2)
C12_8 C 0.0477(4) 0.8458(3) 0.4624(2)
H1_8 H 0.0654 0.7950 0.6813
H2_7 H 0.0009 0.7331 0.6785
H4_8 H 0.0180 0.7972 0.5225
H5_8 H 0.1290 0.9005 0.4924
H6_8 H 0.1573 0.9072 0.5532
C3_8 C 0.9911(3) 0.7347(2) 0.6244(2)
C11_8 C 0.9490(3) 0.6936(2) 0.62184(19)
H3_8 H 0.9930 0.7490 0.5690
Co3_8 Co 0.8750 0.60862(5) 0.3750
O7_8 O 0.6926(2) 0.41890(19) 0.35061(14)
O9_8 O 0.6714(2) 0.4372(2) 0.40757(14)
O11_8 O 0.7528(3) 0.5720(3) 0.54348(17)
N4_8 N 0.8182(2) 0.5584(2) 0.37227(15)
N6_8 N 0.8578(2) 0.6064(2) 0.42680(17)
C19_8 C 0.8008(3) 0.5355(2) 0.3419(2)
C20_8 C 0.7623(3) 0.4986(2) 0.3434(2)
C21_8 C 0.7411(3) 0.4847(2) 0.3756(2)
C22_8 C 0.7578(3) 0.5082(2) 0.4078(2)
C23_8 C 0.7969(3) 0.5454(2) 0.40486(19)
C24_8 C 0.8172(3) 0.5738(2) 0.43580(19)
C25_8 C 0.7971(3) 0.5694(2) 0.4717(2)
C26_8 C 0.8207(3) 0.5984(3) 0.49898(19)
C27_8 C 0.8622(3) 0.6308(3) 0.4894(2)
C28_8 C 0.8793(3) 0.6343(2) 0.4532(2)
C29_8 C 0.6990(3) 0.4436(2) 0.37816(19)
C30_8 C 0.7977(4) 0.5958(3) 0.5376(2)
H10_8 H 0.8154 0.5450 0.3187
H11_8 H 0.7509 0.4831 0.3215
H12_8 H 0.7430 0.4990 0.4310
H13_8 H 0.7680 0.5472 0.4775
H14_8 H 0.8790 0.6505 0.5076
H15_8 H 0.9073 0.6572 0.4468
C13_5 C 0.0140(3) 0.3446(3) 0.6164(2)
C15_5 C 0.0030(4) 0.2594(2) 0.6202(2)
C16_5 C 0.0610(3) 0.2547(2) 0.6231(2)
C17_5 C 0.0939(3) 0.2962(2) 0.6234(2)
H9_5 H 0.0782 0.2242 0.6248
La3_3 La 0.35331(2) 0.1250 0.6250
O14_4 O 0.3343(3) 0.2177(2) 0.6420(2)
O16_4 O 0.2639(3) 0.1790(2) 0.61541(19)
C31_5 C 0.2360(3) 0.3446(3) 0.6336(2)
C32_5 C 0.2703(4) 0.3048(3) 0.6339(2)
C33_5 C 0.2470(4) 0.2594(2) 0.6298(2)
C34_5 C 0.1890(3) 0.2547(2) 0.6269(2)
C35_5 C 0.1561(3) 0.2962(2) 0.6266(2)
C36_5 C 0.2844(4) 0.2148(3) 0.6284(2)
H16_5 H 0.2525 0.3753 0.6366
H17_5 H 0.3102 0.3084 0.6368
H18_5 H 0.1718 0.2242 0.6252
O7_9 O 0.0574(2) 0.91890(19) 0.89939(14)
O9_9 O 0.0786(2) 0.9372(2) 0.84243(14)
C21_9 C 0.0089(3) 0.9847(2) 0.8744(2)
C29_9 C 0.0510(3) 0.9436(2) 0.87184(19)
H12_9 H 0.0070 0.9990 0.8190
La1_3 La 0.89669(2) 0.1250 0.6250
O1_5 O 0.8074(2) 0.16890(19) 0.60061(14)
O2_5 O 0.8286(2) 0.1872(2) 0.65757(14)
O3_9 O 0.7472(3) 0.3220(3) 0.79348(17)
O4_9 O 0.6747(3) 0.3684(2) 0.81111(15)
O5_4 O 0.9157(3) 0.2177(2) 0.6080(2)
O6_4 O 0.9861(3) 0.1790(2) 0.63459(19)
N1_5 N 0.6818(2) 0.3084(2) 0.62227(15)
N2_5 N 0.6422(2) 0.3564(2) 0.67680(17)
C1_9 C 0.6992(3) 0.2855(2) 0.5919(2)
C2_8 C 0.7377(3) 0.2486(2) 0.5934(2)
C3_9 C 0.7589(3) 0.2347(2) 0.6256(2)
C4_9 C 0.7422(3) 0.2582(2) 0.6578(2)
C5_9 C 0.7031(3) 0.2954(2) 0.65486(19)
C6_9 C 0.6828(3) 0.3238(2) 0.68580(19)
C7_9 C 0.7029(3) 0.3194(2) 0.7217(2)
C8_9 C 0.6793(3) 0.3484(3) 0.74898(19)
C9_9 C 0.6378(3) 0.3808(3) 0.7394(2)
C10_9 C 0.6207(3) 0.3843(2) 0.7032(2)
C11_9 C 0.8010(3) 0.1936(2) 0.62816(19)
C12_9 C 0.7023(4) 0.3458(3) 0.7876(2)
C14_5 C 0.9797(4) 0.3048(3) 0.6161(2)
C18_5 C 0.9656(4) 0.2148(3) 0.6216(2)
H1_9 H 0.6846 0.2950 0.5687
H2_8 H 0.7491 0.2331 0.5715
H3_9 H 0.7570 0.2490 0.6810
H4_9 H 0.7320 0.2972 0.7275
H5_9 H 0.6210 0.4005 0.7576
H6_9 H 0.5927 0.4072 0.6968
H7_5 H 0.9975 0.3753 0.6134
H8_5 H 0.9398 0.3084 0.6132
O8_5 O 0.8074(2) 0.08110(19) 0.64939(14)
O10_5 O 0.8286(2) 0.0628(2) 0.59243(14)
O11_9 O 0.9972(3) 0.0720(3) 0.70652(17)
O12_5 O 0.9247(3) 0.1184(2) 0.68889(15)
O13_5 O 0.9247(3) 0.1316(2) 0.56111(15)
O15_3 O 0.9157(3) 0.0323(2) 0.6420(2)
O17_3 O 0.9861(3) 0.0710(2) 0.61541(19)
N4_9 N 0.9318(2) 0.0584(2) 0.87773(15)
N5_5 N 0.5682(2) 0.3084(2) 0.62773(15)
N6_9 N 0.8922(2) 0.1064(2) 0.82320(17)
N7_5 N 0.6078(2) 0.3564(2) 0.57320(17)
C19_9 C 0.9492(3) 0.0355(2) 0.9081(2)
C22_9 C 0.9922(3) 0.0082(2) 0.8422(2)
C23_9 C 0.9531(3) 0.0454(2) 0.84514(19)
C24_9 C 0.9328(3) 0.0738(2) 0.81420(19)
C25_9 C 0.9529(3) 0.0694(2) 0.7783(2)
C26_9 C 0.9293(3) 0.0984(3) 0.75102(19)
C27_9 C 0.8878(3) 0.1308(3) 0.7606(2)
C28_9 C 0.8707(3) 0.1343(2) 0.7968(2)
C30_9 C 0.9523(4) 0.0958(3) 0.7124(2)
H10_9 H 0.9346 0.0450 0.9313
H13_9 H 0.9820 0.0472 0.7725
H14_9 H 0.8710 0.1505 0.7424
H15_9 H 0.8427 0.1572 0.8032
La1_4 La 0.35331(2) 0.6250 0.1250
O1_6 O 0.4426(2) 0.58110(19) 0.10061(14)
O2_6 O 0.4214(2) 0.5628(2) 0.15757(14)
O3_10 O 0.5028(3) 0.4280(3) 0.29348(17)
O4_10 O 0.5753(3) 0.3816(2) 0.31111(15)
O5_5 O 0.3343(3) 0.5323(2) 0.1080(2)
O6_5 O 0.2639(3) 0.5710(2) 0.13459(19)
N1_6 N 0.5682(2) 0.4416(2) 0.12227(15)
N2_6 N 0.6078(2) 0.3936(2) 0.17680(17)
C1_10 C 0.5508(3) 0.4645(2) 0.0919(2)
C2_9 C 0.5123(3) 0.5014(2) 0.0934(2)
C3_10 C 0.4911(3) 0.5153(2) 0.1256(2)
C4_10 C 0.5078(3) 0.4918(2) 0.1578(2)
C5_10 C 0.5469(3) 0.4546(2) 0.15486(19)
C6_10 C 0.5672(3) 0.4262(2) 0.18580(19)
C7_10 C 0.5471(3) 0.4306(2) 0.2217(2)
C8_10 C 0.5707(3) 0.4016(3) 0.24898(19)
C9_10 C 0.6122(3) 0.3692(3) 0.2394(2)
C10_10 C 0.6293(3) 0.3657(2) 0.2032(2)
C11_10 C 0.4490(3) 0.5564(2) 0.12816(19)
C12_10 C 0.5477(4) 0.4042(3) 0.2876(2)
C13_6 C 0.2360(3) 0.4054(3) 0.1164(2)
C14_6 C 0.2703(4) 0.4452(3) 0.1161(2)
C15_6 C 0.2470(4) 0.4906(2) 0.1202(2)
C16_6 C 0.1890(3) 0.4953(2) 0.1231(2)
C17_6 C 0.1561(3) 0.4538(2) 0.1234(2)
C18_6 C 0.2844(4) 0.5352(3) 0.1216(2)
H1_10 H 0.5654 0.4550 0.0687
H2_9 H 0.5009 0.5169 0.0715
H3_10 H 0.4930 0.5010 0.1810
H4_10 H 0.5180 0.4528 0.2275
H5_10 H 0.6290 0.3495 0.2576
H6_10 H 0.6573 0.3428 0.1968
H7_6 H 0.2525 0.3747 0.1134
H8_6 H 0.3102 0.4416 0.1132
H9_6 H 0.1718 0.5258 0.1248
O7_10 O 0.1926(2) 0.83110(19) 0.39939(14)
O8_6 O 0.4426(2) 0.66890(19) 0.14939(14)
O9_10 O 0.1714(2) 0.8128(2) 0.34243(14)
O10_6 O 0.4214(2) 0.6872(2) 0.09243(14)
O11_10 O 0.2528(3) 0.6780(3) 0.20652(17)
O12_6 O 0.3253(3) 0.6316(2) 0.18889(15)
O13_6 O 0.3253(3) 0.6184(2) 0.06111(15)
O15_4 O 0.3343(3) 0.7177(2) 0.1420(2)
O17_4 O 0.2639(3) 0.6790(2) 0.11541(19)
N4_10 N 0.3182(2) 0.6916(2) 0.37773(15)
N5_6 N 0.6818(2) 0.4416(2) 0.12773(15)
N6_10 N 0.3578(2) 0.6436(2) 0.32320(17)
N7_6 N 0.6422(2) 0.3936(2) 0.07320(17)
C19_10 C 0.3008(3) 0.7145(2) 0.4081(2)
C20_9 C 0.2623(3) 0.7514(2) 0.4066(2)
C21_10 C 0.2411(3) 0.7653(2) 0.3744(2)
C22_10 C 0.2578(3) 0.7418(2) 0.3422(2)
C23_10 C 0.2969(3) 0.7046(2) 0.34514(19)
C24_10 C 0.3172(3) 0.6762(2) 0.31420(19)
C25_10 C 0.2971(3) 0.6806(2) 0.2783(2)
C26_10 C 0.3207(3) 0.6516(3) 0.25102(19)
C27_10 C 0.3622(3) 0.6192(3) 0.2606(2)
C28_10 C 0.3793(3) 0.6157(2) 0.2968(2)
C29_10 C 0.1990(3) 0.8064(2) 0.37184(19)
C30_10 C 0.2977(4) 0.6542(3) 0.2124(2)
C31_6 C 0.0140(3) 0.4054(3) 0.1336(2)
C33_6 C 0.0030(4) 0.4906(2) 0.1298(2)
C34_6 C 0.0610(3) 0.4953(2) 0.1269(2)
C35_6 C 0.0939(3) 0.4538(2) 0.1266(2)
H10_10 H 0.3154 0.7050 0.4313
H11_9 H 0.2509 0.7669 0.4285
H12_10 H 0.2430 0.7510 0.3190
H13_10 H 0.2680 0.7028 0.2725
H14_10 H 0.3790 0.5995 0.2424
H15_10 H 0.4073 0.5928 0.3032
H18_6 H 0.0782 0.5258 0.1252
La3_4 La 0.89669(2) 0.6250 0.1250
O14_5 O 0.9157(3) 0.5323(2) 0.1420(2)
O16_5 O 0.9861(3) 0.5710(2) 0.11541(19)
C32_6 C 0.9797(4) 0.4452(3) 0.1339(2)
C36_6 C 0.9656(4) 0.5352(3) 0.1284(2)
H16_6 H 0.9975 0.3747 0.1366
H17_6 H 0.9398 0.4416 0.1368
H9_7 H 0.0782 0.0258 0.6252
O7_11 O 0.0574(2) 0.33110(19) 0.35061(14)
O9_11 O 0.0786(2) 0.3128(2) 0.40757(14)
O14_6 O 0.3343(3) 0.0323(2) 0.6080(2)
O16_6 O 0.2639(3) 0.0710(2) 0.63459(19)
C21_11 C 0.0089(3) 0.2653(2) 0.3756(2)
C29_11 C 0.0510(3) 0.3064(2) 0.37816(19)
C36_7 C 0.2844(4) 0.0352(3) 0.6216(2)
H12_11 H 0.0070 0.2510 0.4310
H18_7 H 0.1718 0.0258 0.6248
C13_7 C 0.0140(3) 0.9054(3) 0.6336(2)
C15_7 C 0.0030(4) 0.9906(2) 0.6298(2)
C16_7 C 0.0610(3) 0.9953(2) 0.6269(2)
C17_7 C 0.0939(3) 0.9538(2) 0.6266(2)
C31_7 C 0.2360(3) 0.9054(3) 0.6164(2)
C32_7 C 0.2703(4) 0.9452(3) 0.6161(2)
C33_7 C 0.2470(4) 0.9906(2) 0.6202(2)
C34_7 C 0.1890(3) 0.9953(2) 0.6231(2)
C35_7 C 0.1561(3) 0.9538(2) 0.6234(2)
H16_7 H 0.2525 0.8747 0.6134
H17_7 H 0.3102 0.9416 0.6132
C2_10 C 0.7377(3) 0.0014(2) 0.6566(2)
C3_11 C 0.7589(3) 0.0153(2) 0.6244(2)
C11_11 C 0.8010(3) 0.0564(2) 0.62184(19)
C18_7 C 0.9656(4) 0.0352(3) 0.6284(2)
H2_10 H 0.7491 0.0169 0.6785
H3_11 H 0.7570 0.0010 0.5690
O11_11 O 0.9972(3) 0.1780(3) 0.54348(17)
N4_11 N 0.9318(2) 0.1916(2) 0.37227(15)
N6_11 N 0.8922(2) 0.1436(2) 0.42680(17)
C19_11 C 0.9492(3) 0.2145(2) 0.3419(2)
C20_10 C 0.9877(3) 0.2514(2) 0.3434(2)
C22_11 C 0.9922(3) 0.2418(2) 0.4078(2)
C23_11 C 0.9531(3) 0.2046(2) 0.40486(19)
C24_11 C 0.9328(3) 0.1762(2) 0.43580(19)
C25_11 C 0.9529(3) 0.1806(2) 0.4717(2)
C26_11 C 0.9293(3) 0.1516(3) 0.49898(19)
C27_11 C 0.8878(3) 0.1192(3) 0.4894(2)
C28_11 C 0.8707(3) 0.1157(2) 0.4532(2)
C30_11 C 0.9523(4) 0.1542(3) 0.5376(2)
H10_11 H 0.9346 0.2050 0.3187
H11_10 H 0.9991 0.2669 0.3215
H13_11 H 0.9820 0.2028 0.4775
H14_11 H 0.8710 0.0995 0.5076
H15_11 H 0.8427 0.0928 0.4468
O3_11 O 0.7472(3) 0.9280(3) 0.45652(17)
O4_11 O 0.6747(3) 0.8816(2) 0.43889(15)
N1_7 N 0.6818(2) 0.9416(2) 0.62773(15)
N2_7 N 0.6422(2) 0.8936(2) 0.57320(17)
C1_11 C 0.6992(3) 0.9645(2) 0.6581(2)
C4_11 C 0.7422(3) 0.9918(2) 0.5922(2)
C5_11 C 0.7031(3) 0.9546(2) 0.59514(19)
C6_11 C 0.6828(3) 0.9262(2) 0.56420(19)
C7_11 C 0.7029(3) 0.9306(2) 0.5283(2)
C8_11 C 0.6793(3) 0.9016(3) 0.50102(19)
C9_11 C 0.6378(3) 0.8692(3) 0.5106(2)
C10_11 C 0.6207(3) 0.8657(2) 0.5468(2)
C12_11 C 0.7023(4) 0.9042(3) 0.4624(2)
C14_7 C 0.9797(4) 0.9452(3) 0.6339(2)
H1_11 H 0.6846 0.9550 0.6813
H4_11 H 0.7320 0.9528 0.5225
H5_11 H 0.6210 0.8495 0.4924
H6_11 H 0.5927 0.8428 0.5532
H7_7 H 0.9975 0.8747 0.6366
H8_7 H 0.9398 0.9416 0.6368
N5_7 N 0.5682(2) 0.9416(2) 0.62227(15)
N7_7 N 0.6078(2) 0.8936(2) 0.67680(17)
O1_7 O 0.4426(2) 0.16890(19) 0.64939(14)
O2_7 O 0.4214(2) 0.1872(2) 0.59243(14)
O3_12 O 0.5028(3) 0.3220(3) 0.45652(17)
O4_12 O 0.5753(3) 0.3684(2) 0.43889(15)
C1_12 C 0.5508(3) 0.2855(2) 0.6581(2)
C2_11 C 0.5123(3) 0.2486(2) 0.6566(2)
C3_12 C 0.4911(3) 0.2347(2) 0.6244(2)
C4_12 C 0.5078(3) 0.2582(2) 0.5922(2)
C5_12 C 0.5469(3) 0.2954(2) 0.59514(19)
C6_12 C 0.5672(3) 0.3238(2) 0.56420(19)
C7_12 C 0.5471(3) 0.3194(2) 0.5283(2)
C8_12 C 0.5707(3) 0.3484(3) 0.50102(19)
C9_12 C 0.6122(3) 0.3808(3) 0.5106(2)
C10_12 C 0.6293(3) 0.3843(2) 0.5468(2)
C11_12 C 0.4490(3) 0.1936(2) 0.62184(19)
C12_12 C 0.5477(4) 0.3458(3) 0.4624(2)
H1_12 H 0.5654 0.2950 0.6813
H2_11 H 0.5009 0.2331 0.6785
H3_12 H 0.4930 0.2490 0.5690
H4_12 H 0.5180 0.2972 0.5225
H5_12 H 0.6290 0.4005 0.4924
H6_12 H 0.6573 0.4072 0.5532
O8_7 O 0.4426(2) 0.08110(19) 0.60061(14)
O10_7 O 0.4214(2) 0.0628(2) 0.65757(14)
O11_12 O 0.2528(3) 0.0720(3) 0.54348(17)
O12_7 O 0.3253(3) 0.1184(2) 0.56111(15)
O13_7 O 0.3253(3) 0.1316(2) 0.68889(15)
N4_12 N 0.3182(2) 0.0584(2) 0.37227(15)
N6_12 N 0.3578(2) 0.1064(2) 0.42680(17)
C19_12 C 0.3008(3) 0.0355(2) 0.3419(2)
C22_12 C 0.2578(3) 0.0082(2) 0.4078(2)
C23_12 C 0.2969(3) 0.0454(2) 0.40486(19)
C24_12 C 0.3172(3) 0.0738(2) 0.43580(19)
C25_12 C 0.2971(3) 0.0694(2) 0.4717(2)
C26_12 C 0.3207(3) 0.0984(3) 0.49898(19)
C27_12 C 0.3622(3) 0.1308(3) 0.4894(2)
C28_12 C 0.3793(3) 0.1343(2) 0.4532(2)
C30_12 C 0.2977(4) 0.0958(3) 0.5376(2)
H10_12 H 0.3154 0.0450 0.3187
H13_12 H 0.2680 0.0472 0.4775
H14_12 H 0.3790 0.1505 0.5076
H15_12 H 0.4073 0.1572 0.4468
O7_12 O 0.1926(2) 0.91890(19) 0.35061(14)
O9_12 O 0.1714(2) 0.9372(2) 0.40757(14)
C20_11 C 0.2623(3) 0.9986(2) 0.3434(2)
C21_12 C 0.2411(3) 0.9847(2) 0.3756(2)
C29_12 C 0.1990(3) 0.9436(2) 0.37816(19)
H11_11 H 0.2509 0.9831 0.3215
H12_12 H 0.2430 0.9990 0.4310
C13_8 C 0.0140(3) 0.8446(3) 0.1164(2)
C15_8 C 0.0030(4) 0.7594(2) 0.1202(2)
C16_8 C 0.0610(3) 0.7547(2) 0.1231(2)
C17_8 C 0.0939(3) 0.7962(2) 0.1234(2)
H9_8 H 0.0782 0.7242 0.1248
O7_13 O 0.0574(2) 0.41890(19) 0.39939(14)
O9_13 O 0.0786(2) 0.4372(2) 0.34243(14)
C21_13 C 0.0089(3) 0.4847(2) 0.3744(2)
C29_13 C 0.0510(3) 0.4436(2) 0.37184(19)
C31_8 C 0.2360(3) 0.8446(3) 0.1336(2)
C32_8 C 0.2703(4) 0.8048(3) 0.1339(2)
C33_8 C 0.2470(4) 0.7594(2) 0.1298(2)
C34_8 C 0.1890(3) 0.7547(2) 0.1269(2)
C35_8 C 0.1561(3) 0.7962(2) 0.1266(2)
C36_8 C 0.2844(4) 0.7148(3) 0.1284(2)
H12_13 H 0.0070 0.4990 0.3190
H16_8 H 0.2525 0.8753 0.1366
H17_8 H 0.3102 0.8084 0.1368
H18_8 H 0.1718 0.7242 0.1252
O1_8 O 0.8074(2) 0.66890(19) 0.10061(14)
O2_8 O 0.8286(2) 0.6872(2) 0.15757(14)
O3_13 O 0.7472(3) 0.8220(3) 0.29348(17)
O4_13 O 0.6747(3) 0.8684(2) 0.31111(15)
O5_6 O 0.9157(3) 0.7177(2) 0.1080(2)
O6_6 O 0.9861(3) 0.6790(2) 0.13459(19)
N1_8 N 0.6818(2) 0.8084(2) 0.12227(15)
N2_8 N 0.6422(2) 0.8564(2) 0.17680(17)
C1_13 C 0.6992(3) 0.7855(2) 0.0919(2)
C2_12 C 0.7377(3) 0.7486(2) 0.0934(2)
C3_13 C 0.7589(3) 0.7347(2) 0.1256(2)
C4_13 C 0.7422(3) 0.7582(2) 0.1578(2)
C5_13 C 0.7031(3) 0.7954(2) 0.15486(19)
C6_13 C 0.6828(3) 0.8238(2) 0.18580(19)
C7_13 C 0.7029(3) 0.8194(2) 0.2217(2)
C8_13 C 0.6793(3) 0.8484(3) 0.24898(19)
C9_13 C 0.6378(3) 0.8808(3) 0.2394(2)
C10_13 C 0.6207(3) 0.8843(2) 0.2032(2)
C11_13 C 0.8010(3) 0.6936(2) 0.12816(19)
C12_13 C 0.7023(4) 0.8458(3) 0.2876(2)
C14_8 C 0.9797(4) 0.8048(3) 0.1161(2)
C18_8 C 0.9656(4) 0.7148(3) 0.1216(2)
H1_13 H 0.6846 0.7950 0.0687
H2_12 H 0.7491 0.7331 0.0715
H3_13 H 0.7570 0.7490 0.1810
H4_13 H 0.7320 0.7972 0.2275
H5_13 H 0.6210 0.9005 0.2576
H6_13 H 0.5927 0.9072 0.1968
H7_8 H 0.9975 0.8753 0.1134
H8_8 H 0.9398 0.8084 0.1132
O8_8 O 0.8074(2) 0.58110(19) 0.14939(14)
O10_8 O 0.8286(2) 0.5628(2) 0.09243(14)
O11_13 O 0.9972(3) 0.5720(3) 0.20652(17)
O12_8 O 0.9247(3) 0.6184(2) 0.18889(15)
O13_8 O 0.9247(3) 0.6316(2) 0.06111(15)
N4_13 N 0.9318(2) 0.5584(2) 0.37773(15)
N5_8 N 0.5682(2) 0.8084(2) 0.12773(15)
N6_13 N 0.8922(2) 0.6064(2) 0.32320(17)
N7_8 N 0.6078(2) 0.8564(2) 0.07320(17)
C19_13 C 0.9492(3) 0.5355(2) 0.4081(2)
C20_12 C 0.9877(3) 0.4986(2) 0.4066(2)
C22_13 C 0.9922(3) 0.5082(2) 0.3422(2)
C23_13 C 0.9531(3) 0.5454(2) 0.34514(19)
C24_13 C 0.9328(3) 0.5738(2) 0.31420(19)
C25_13 C 0.9529(3) 0.5694(2) 0.2783(2)
C26_13 C 0.9293(3) 0.5984(3) 0.25102(19)
C27_13 C 0.8878(3) 0.6308(3) 0.2606(2)
C28_13 C 0.8707(3) 0.6343(2) 0.2968(2)
C30_13 C 0.9523(4) 0.5958(3) 0.2124(2)
H10_13 H 0.9346 0.5450 0.4313
H11_12 H 0.9991 0.4831 0.4285
H13_13 H 0.9820 0.5472 0.2725
H14_13 H 0.8710 0.6505 0.2424
H15_13 H 0.8427 0.6572 0.3032
C2_13 C 0.5123(3) 0.0014(2) 0.5934(2)
C3_14 C 0.4911(3) 0.0153(2) 0.6256(2)
C11_14 C 0.4490(3) 0.0564(2) 0.62816(19)
H2_13 H 0.5009 0.0169 0.5715
H3_14 H 0.4930 0.0010 0.6810
O7_14 O 0.1926(2) 0.33110(19) 0.89939(14)
O9_14 O 0.1714(2) 0.3128(2) 0.84243(14)
O11_14 O 0.2528(3) 0.1780(3) 0.70652(17)
N4_14 N 0.3182(2) 0.1916(2) 0.87773(15)
N6_14 N 0.3578(2) 0.1436(2) 0.82320(17)
C19_14 C 0.3008(3) 0.2145(2) 0.9081(2)
C20_13 C 0.2623(3) 0.2514(2) 0.9066(2)
C21_14 C 0.2411(3) 0.2653(2) 0.8744(2)
C22_14 C 0.2578(3) 0.2418(2) 0.8422(2)
C23_14 C 0.2969(3) 0.2046(2) 0.84514(19)
C24_14 C 0.3172(3) 0.1762(2) 0.81420(19)
C25_14 C 0.2971(3) 0.1806(2) 0.7783(2)
C26_14 C 0.3207(3) 0.1516(3) 0.75102(19)
C27_14 C 0.3622(3) 0.1192(3) 0.7606(2)
C28_14 C 0.3793(3) 0.1157(2) 0.7968(2)
C29_14 C 0.1990(3) 0.3064(2) 0.87184(19)
C30_14 C 0.2977(4) 0.1542(3) 0.7124(2)
H10_14 H 0.3154 0.2050 0.9313
H11_13 H 0.2509 0.2669 0.9285
H12_14 H 0.2430 0.2510 0.8190
H13_14 H 0.2680 0.2028 0.7725
H14_14 H 0.3790 0.0995 0.7424
H15_14 H 0.4073 0.0928 0.8032
O3_14 O 0.5028(3) 0.9280(3) 0.79348(17)
O4_14 O 0.5753(3) 0.8816(2) 0.81111(15)
C1_14 C 0.5508(3) 0.9645(2) 0.5919(2)
C4_14 C 0.5078(3) 0.9918(2) 0.6578(2)
C5_14 C 0.5469(3) 0.9546(2) 0.65486(19)
C6_14 C 0.5672(3) 0.9262(2) 0.68580(19)
C7_14 C 0.5471(3) 0.9306(2) 0.7217(2)
C8_14 C 0.5707(3) 0.9016(3) 0.74898(19)
C9_14 C 0.6122(3) 0.8692(3) 0.7394(2)
C10_14 C 0.6293(3) 0.8657(2) 0.7032(2)
C12_14 C 0.5477(4) 0.9042(3) 0.7876(2)
H1_14 H 0.5654 0.9550 0.5687
H4_14 H 0.5180 0.9528 0.7275
H5_14 H 0.6290 0.8495 0.7576
H6_14 H 0.6573 0.8428 0.6968
O7_15 O 0.0574(2) 0.83110(19) 0.85061(14)
O9_15 O 0.0786(2) 0.8128(2) 0.90757(14)
C21_15 C 0.0089(3) 0.7653(2) 0.8756(2)
C29_15 C 0.0510(3) 0.8064(2) 0.87816(19)
H12_15 H 0.0070 0.7510 0.9310
C1_15 C 0.6992(3) 0.4645(2) 0.1581(2)
C2_14 C 0.7377(3) 0.5014(2) 0.1566(2)
C3_15 C 0.7589(3) 0.5153(2) 0.1244(2)
C4_15 C 0.7422(3) 0.4918(2) 0.0922(2)
C5_15 C 0.7031(3) 0.4546(2) 0.09514(19)
C6_15 C 0.6828(3) 0.4262(2) 0.06420(19)
C7_15 C 0.7029(3) 0.4306(2) 0.0283(2)
C8_15 C 0.6793(3) 0.4016(3) 0.00102(19)
C9_15 C 0.6378(3) 0.3692(3) 0.0106(2)
C10_15 C 0.6207(3) 0.3657(2) 0.0468(2)
C11_15 C 0.8010(3) 0.5564(2) 0.12184(19)
H1_15 H 0.6846 0.4550 0.1813
H2_14 H 0.7491 0.5169 0.1785
H3_15 H 0.7570 0.5010 0.0690
H4_15 H 0.7320 0.4528 0.0225
H6_15 H 0.5927 0.3428 0.0532
O11_15 O 0.9972(3) 0.6780(3) 0.04348(17)
C30_15 C 0.9523(4) 0.6542(3) 0.0376(2)
H14_15 H 0.8710 0.5995 0.0076
O3_15 O 0.7472(3) 0.4280(3) 0.95652(17)
O4_15 O 0.6747(3) 0.3816(2) 0.93889(15)
C12_15 C 0.7023(4) 0.4042(3) 0.9624(2)
H5_15 H 0.6210 0.3495 0.9924
N4_15 N 0.9318(2) 0.6916(2) 0.87227(15)
N6_15 N 0.8922(2) 0.6436(2) 0.92680(17)
C19_15 C 0.9492(3) 0.7145(2) 0.8419(2)
C20_14 C 0.9877(3) 0.7514(2) 0.8434(2)
C22_15 C 0.9922(3) 0.7418(2) 0.9078(2)
C23_15 C 0.9531(3) 0.7046(2) 0.90486(19)
C24_15 C 0.9328(3) 0.6762(2) 0.93580(19)
C25_15 C 0.9529(3) 0.6806(2) 0.9717(2)
C26_15 C 0.9293(3) 0.6516(3) 0.99898(19)
C27_15 C 0.8878(3) 0.6192(3) 0.9894(2)
C28_15 C 0.8707(3) 0.6157(2) 0.9532(2)
H10_15 H 0.9346 0.7050 0.8187
H11_14 H 0.9991 0.7669 0.8215
H13_15 H 0.9820 0.7028 0.9775
H15_15 H 0.8427 0.5928 0.9468
C1_16 C 0.5508(3) 0.7855(2) 0.1581(2)
C2_15 C 0.5123(3) 0.7486(2) 0.1566(2)
C3_16 C 0.4911(3) 0.7347(2) 0.1244(2)
C4_16 C 0.5078(3) 0.7582(2) 0.0922(2)
C5_16 C 0.5469(3) 0.7954(2) 0.09514(19)
C6_16 C 0.5672(3) 0.8238(2) 0.06420(19)
C7_16 C 0.5471(3) 0.8194(2) 0.0283(2)
C8_16 C 0.5707(3) 0.8484(3) 0.00102(19)
C9_16 C 0.6122(3) 0.8808(3) 0.0106(2)
C10_16 C 0.6293(3) 0.8843(2) 0.0468(2)
C11_16 C 0.4490(3) 0.6936(2) 0.12184(19)
H1_16 H 0.5654 0.7950 0.1813
H2_15 H 0.5009 0.7331 0.1785
H3_16 H 0.4930 0.7490 0.0690
H4_16 H 0.5180 0.7972 0.0225
H6_16 H 0.6573 0.9072 0.0532
O11_16 O 0.2528(3) 0.5720(3) 0.04348(17)
C30_16 C 0.2977(4) 0.5958(3) 0.0376(2)
H14_16 H 0.3790 0.6505 0.0076
O3_16 O 0.5028(3) 0.8220(3) 0.95652(17)
O4_16 O 0.5753(3) 0.8684(2) 0.93889(15)
C12_16 C 0.5477(4) 0.8458(3) 0.9624(2)
H5_16 H 0.6290 0.9005 0.9924
O7_16 O 0.1926(2) 0.41890(19) 0.85061(14)
O9_16 O 0.1714(2) 0.4372(2) 0.90757(14)
N4_16 N 0.3182(2) 0.5584(2) 0.87227(15)
N6_16 N 0.3578(2) 0.6064(2) 0.92680(17)
C19_16 C 0.3008(3) 0.5355(2) 0.8419(2)
C20_15 C 0.2623(3) 0.4986(2) 0.8434(2)
C21_16 C 0.2411(3) 0.4847(2) 0.8756(2)
C22_16 C 0.2578(3) 0.5082(2) 0.9078(2)
C23_16 C 0.2969(3) 0.5454(2) 0.90486(19)
C24_16 C 0.3172(3) 0.5738(2) 0.93580(19)
C25_16 C 0.2971(3) 0.5694(2) 0.9717(2)
C26_16 C 0.3207(3) 0.5984(3) 0.99898(19)
C27_16 C 0.3622(3) 0.6308(3) 0.9894(2)
C28_16 C 0.3793(3) 0.6343(2) 0.9532(2)
C29_16 C 0.1990(3) 0.4436(2) 0.87816(19)
H10_16 H 0.3154 0.5450 0.8187
H11_15 H 0.2509 0.4831 0.8215
H12_16 H 0.2430 0.4990 0.9310
H13_16 H 0.2680 0.5472 0.9775
H15_16 H 0.4073 0.6572 0.9468
O5_7 O 0.5843(3) 0.7823(2) 0.8920(2)
O6_7 O 0.5139(3) 0.8210(2) 0.86541(19)
N3_5 N 0.4295(2) 0.6595(2) 0.87929(16)
C13_9 C 0.4860(3) 0.6554(3) 0.8836(2)
C14_9 C 0.5203(4) 0.6952(3) 0.8839(2)
C15_9 C 0.4970(4) 0.7406(2) 0.8798(2)
C16_9 C 0.4390(3) 0.7453(2) 0.8769(2)
C17_9 C 0.4061(3) 0.7038(2) 0.8766(2)
C18_9 C 0.5344(4) 0.7852(3) 0.8784(2)
H7_9 H 0.5025 0.6247 0.8866
H8_9 H 0.5602 0.6916 0.8868
H9_9 H 0.4218 0.7758 0.8752
O14_7 O 0.1657(3) 0.7823(2) 0.8580(2)
O15_5 O 0.5843(3) 0.9677(2) 0.8580(2)
O16_7 O 0.2361(3) 0.8210(2) 0.88459(19)
O17_5 O 0.5139(3) 0.9290(2) 0.88459(19)
N8_5 N 0.3205(2) 0.6595(2) 0.87071(16)
N9_5 N 0.8205(2) 0.5905(2) 0.87929(16)
N10_5 N 0.9295(2) 0.5905(2) 0.87071(16)
C31_9 C 0.2640(3) 0.6554(3) 0.8664(2)
C32_9 C 0.2297(4) 0.6952(3) 0.8661(2)
C33_9 C 0.2530(4) 0.7406(2) 0.8702(2)
C34_9 C 0.3110(3) 0.7453(2) 0.8731(2)
C35_9 C 0.3439(3) 0.7038(2) 0.8734(2)
C36_9 C 0.2156(4) 0.7852(3) 0.8716(2)
H16_9 H 0.2475 0.6247 0.8634
H17_9 H 0.1898 0.6916 0.8632
H18_9 H 0.3282 0.7758 0.8748
O5_8 O 0.1657(3) 0.4677(2) 0.3920(2)
O6_8 O 0.2361(3) 0.4290(2) 0.36541(19)
N3_6 N 0.3205(2) 0.5905(2) 0.37929(16)
C13_10 C 0.2640(3) 0.5946(3) 0.3836(2)
C14_10 C 0.2297(4) 0.5548(3) 0.3839(2)
C15_10 C 0.2530(4) 0.5094(2) 0.3798(2)
C16_10 C 0.3110(3) 0.5047(2) 0.3769(2)
C17_10 C 0.3439(3) 0.5462(2) 0.3766(2)
C18_10 C 0.2156(4) 0.4648(3) 0.3784(2)
H7_10 H 0.2475 0.6253 0.3866
H8_10 H 0.1898 0.5584 0.3868
H9_10 H 0.3282 0.4742 0.3752
O14_8 O 0.5843(3) 0.4677(2) 0.3580(2)
O15_6 O 0.1657(3) 0.2823(2) 0.3580(2)
O16_8 O 0.5139(3) 0.4290(2) 0.38459(19)
O17_6 O 0.2361(3) 0.3210(2) 0.38459(19)
N8_6 N 0.4295(2) 0.5905(2) 0.37071(16)
C31_10 C 0.4860(3) 0.5946(3) 0.3664(2)
C32_10 C 0.5203(4) 0.5548(3) 0.3661(2)
C33_10 C 0.4970(4) 0.5094(2) 0.3702(2)
C34_10 C 0.4390(3) 0.5047(2) 0.3731(2)
C35_10 C 0.4061(3) 0.5462(2) 0.3734(2)
C36_10 C 0.5344(4) 0.4648(3) 0.3716(2)
H16_10 H 0.5025 0.6253 0.3634
H17_10 H 0.5602 0.5584 0.3632
H18_10 H 0.4218 0.4742 0.3748
N9_6 N 0.9295(2) 0.6595(2) 0.37929(16)
N10_6 N 0.8205(2) 0.6595(2) 0.37071(16)
N3_7 N 0.4295(2) 0.0905(2) 0.87071(16)
C13_11 C 0.4860(3) 0.0946(3) 0.8664(2)
C14_11 C 0.5203(4) 0.0548(3) 0.8661(2)
C15_11 C 0.4970(4) 0.0094(2) 0.8702(2)
C16_11 C 0.4390(3) 0.0047(2) 0.8731(2)
C17_11 C 0.4061(3) 0.0462(2) 0.8734(2)
H7_11 H 0.5025 0.1253 0.8634
H8_11 H 0.5602 0.0584 0.8632
N8_7 N 0.3205(2) 0.0905(2) 0.87929(16)
N9_7 N 0.8205(2) 0.1595(2) 0.87071(16)
N10_7 N 0.9295(2) 0.1595(2) 0.87929(16)
C31_11 C 0.2640(3) 0.0946(3) 0.8836(2)
C32_11 C 0.2297(4) 0.0548(3) 0.8839(2)
C33_11 C 0.2530(4) 0.0094(2) 0.8798(2)
C34_11 C 0.3110(3) 0.0047(2) 0.8769(2)
C35_11 C 0.3439(3) 0.0462(2) 0.8766(2)
H16_11 H 0.2475 0.1253 0.8866
H17_11 H 0.1898 0.0584 0.8868
C18_11 C 0.5344(4) 0.9648(3) 0.8716(2)
H9_11 H 0.4218 0.9742 0.8748
O14_9 O 0.1657(3) 0.9677(2) 0.8920(2)
O16_9 O 0.2361(3) 0.9290(2) 0.86541(19)
C36_11 C 0.2156(4) 0.9648(3) 0.8784(2)
H18_11 H 0.3282 0.9742 0.8752
O5_9 O 0.5843(3) 0.2823(2) 0.3920(2)
O6_9 O 0.5139(3) 0.3210(2) 0.36541(19)
N3_8 N 0.4295(2) 0.1595(2) 0.37929(16)
C13_12 C 0.4860(3) 0.1554(3) 0.3836(2)
C14_12 C 0.5203(4) 0.1952(3) 0.3839(2)
C15_12 C 0.4970(4) 0.2406(2) 0.3798(2)
C16_12 C 0.4390(3) 0.2453(2) 0.3769(2)
C17_12 C 0.4061(3) 0.2038(2) 0.3766(2)
C18_12 C 0.5344(4) 0.2852(3) 0.3784(2)
H7_12 H 0.5025 0.1247 0.3866
H8_12 H 0.5602 0.1916 0.3868
H9_12 H 0.4218 0.2758 0.3752
N8_8 N 0.3205(2) 0.1595(2) 0.37071(16)
N9_8 N 0.8205(2) 0.0905(2) 0.37929(16)
N10_8 N 0.9295(2) 0.0905(2) 0.37071(16)
C31_12 C 0.2640(3) 0.1554(3) 0.3664(2)
C32_12 C 0.2297(4) 0.1952(3) 0.3661(2)
C33_12 C 0.2530(4) 0.2406(2) 0.3702(2)
C34_12 C 0.3110(3) 0.2453(2) 0.3731(2)
C35_12 C 0.3439(3) 0.2038(2) 0.3734(2)
C36_12 C 0.2156(4) 0.2852(3) 0.3716(2)
H16_12 H 0.2475 0.1247 0.3634
H17_12 H 0.1898 0.1916 0.3632
H18_12 H 0.3282 0.2758 0.3748
O5_10 O 0.0843(3) 0.7823(2) 0.3920(2)
O6_10 O 0.0139(3) 0.8210(2) 0.36541(19)
C14_13 C 0.0203(4) 0.6952(3) 0.3839(2)
C18_13 C 0.0344(4) 0.7852(3) 0.3784(2)
H7_13 H 0.0025 0.6247 0.3866
H8_13 H 0.0602 0.6916 0.3868
O15_7 O 0.0843(3) 0.9677(2) 0.3580(2)
O17_7 O 0.0139(3) 0.9290(2) 0.38459(19)
C13_13 C 0.9860(3) 0.6554(3) 0.3836(2)
C15_13 C 0.9970(4) 0.7406(2) 0.3798(2)
C16_13 C 0.9390(3) 0.7453(2) 0.3769(2)
C17_13 C 0.9061(3) 0.7038(2) 0.3766(2)
H9_13 H 0.9218 0.7758 0.3752
O14_10 O 0.6657(3) 0.7823(2) 0.3580(2)
O16_10 O 0.7361(3) 0.8210(2) 0.38459(19)
C31_13 C 0.7640(3) 0.6554(3) 0.3664(2)
C32_13 C 0.7297(4) 0.6952(3) 0.3661(2)
C33_13 C 0.7530(4) 0.7406(2) 0.3702(2)
C34_13 C 0.8110(3) 0.7453(2) 0.3731(2)
C35_13 C 0.8439(3) 0.7038(2) 0.3734(2)
C36_13 C 0.7156(4) 0.7852(3) 0.3716(2)
H16_13 H 0.7475 0.6247 0.3634
H17_13 H 0.6898 0.6916 0.3632
H18_13 H 0.8282 0.7758 0.3748
O14_11 O 0.0843(3) 0.4677(2) 0.8580(2)
O16_11 O 0.0139(3) 0.4290(2) 0.88459(19)
C32_14 C 0.0203(4) 0.5548(3) 0.8661(2)
C36_14 C 0.0344(4) 0.4648(3) 0.8716(2)
H16_14 H 0.0025 0.6253 0.8634
H17_14 H 0.0602 0.5584 0.8632
O5_11 O 0.6657(3) 0.4677(2) 0.8920(2)
O6_11 O 0.7361(3) 0.4290(2) 0.86541(19)
C13_14 C 0.7640(3) 0.5946(3) 0.8836(2)
C14_14 C 0.7297(4) 0.5548(3) 0.8839(2)
C15_14 C 0.7530(4) 0.5094(2) 0.8798(2)
C16_14 C 0.8110(3) 0.5047(2) 0.8769(2)
C17_14 C 0.8439(3) 0.5462(2) 0.8766(2)
C18_14 C 0.7156(4) 0.4648(3) 0.8784(2)
H7_14 H 0.7475 0.6253 0.8866
H8_14 H 0.6898 0.5584 0.8868
H9_14 H 0.8282 0.4742 0.8752
O15_8 O 0.6657(3) 0.2823(2) 0.8580(2)
O17_8 O 0.7361(3) 0.3210(2) 0.88459(19)
C31_14 C 0.9860(3) 0.5946(3) 0.8664(2)
C33_14 C 0.9970(4) 0.5094(2) 0.8702(2)
C34_14 C 0.9390(3) 0.5047(2) 0.8731(2)
C35_14 C 0.9061(3) 0.5462(2) 0.8734(2)
H18_14 H 0.9218 0.4742 0.8748
C14_15 C 0.0203(4) 0.0548(3) 0.3661(2)
H7_15 H 0.0025 0.1253 0.3634
H8_15 H 0.0602 0.0584 0.3632
C18_15 C 0.0344(4) 0.9648(3) 0.3716(2)
C13_15 C 0.9860(3) 0.0946(3) 0.3664(2)
C15_15 C 0.9970(4) 0.0094(2) 0.3702(2)
C16_15 C 0.9390(3) 0.0047(2) 0.3731(2)
C17_15 C 0.9061(3) 0.0462(2) 0.3734(2)
C31_15 C 0.7640(3) 0.0946(3) 0.3836(2)
C32_15 C 0.7297(4) 0.0548(3) 0.3839(2)
C33_15 C 0.7530(4) 0.0094(2) 0.3798(2)
C34_15 C 0.8110(3) 0.0047(2) 0.3769(2)
C35_15 C 0.8439(3) 0.0462(2) 0.3766(2)
H16_15 H 0.7475 0.1253 0.3866
H17_15 H 0.6898 0.0584 0.3868
H9_15 H 0.9218 0.9742 0.3748
O14_12 O 0.6657(3) 0.9677(2) 0.3920(2)
O16_12 O 0.7361(3) 0.9290(2) 0.36541(19)
C36_15 C 0.7156(4) 0.9648(3) 0.3784(2)
H18_15 H 0.8282 0.9742 0.3752
O5_12 O 0.0843(3) 0.2823(2) 0.8920(2)
O6_12 O 0.0139(3) 0.3210(2) 0.86541(19)
C14_16 C 0.0203(4) 0.1952(3) 0.8839(2)
C18_16 C 0.0344(4) 0.2852(3) 0.8784(2)
H7_16 H 0.0025 0.1247 0.8866
H8_16 H 0.0602 0.1916 0.8868
C13_16 C 0.9860(3) 0.1554(3) 0.8836(2)
C15_16 C 0.9970(4) 0.2406(2) 0.8798(2)
C16_16 C 0.9390(3) 0.2453(2) 0.8769(2)
C17_16 C 0.9061(3) 0.2038(2) 0.8766(2)
H9_16 H 0.9218 0.2758 0.8752
C31_16 C 0.7640(3) 0.1554(3) 0.8664(2)
C32_16 C 0.7297(4) 0.1952(3) 0.8661(2)
C33_16 C 0.7530(4) 0.2406(2) 0.8702(2)
C34_16 C 0.8110(3) 0.2453(2) 0.8731(2)
C35_16 C 0.8439(3) 0.2038(2) 0.8734(2)
C36_16 C 0.7156(4) 0.2852(3) 0.8716(2)
H16_16 H 0.7475 0.1247 0.8634
H17_16 H 0.6898 0.1916 0.8632
H18_16 H 0.8282 0.2758 0.8748
C2_16 C 0.0123(3) 0.0014(2) 0.0934(2)
H2_16 H 0.0009 0.0169 0.0715
C20_16 C 0.9877(3) 0.9986(2) 0.9066(2)
H11_16 H 0.9991 0.9831 0.9285
loop_
_geom_bond_atom_site_label_1
_geom_bond_atom_site_label_2
_geom_bond_site_symmetry_1
_geom_bond_site_symmetry_2
La1 O1 1_555 1_555
Co1 N1 1_555 1_555
O1 C11 1_555 1_555
O2 La1 1_555 1_555
O3 C12 1_555 1_555
O4 C12 1_555 1_555
O5 La1 1_555 1_555
O6 La1 1_555 1_555
N1 C1 1_555 1_555
N2 Co1 1_555 1_555
N3 C13 1_555 1_555
C1 C2 1_555 1_555
C2 C3 1_555 1_555
C3 C4 1_555 1_555
C4 C5 1_555 1_555
C5 N1 1_555 1_555
C6 N2 1_555 1_555
C7 C6 1_555 1_555
C8 C7 1_555 1_555
C9 C8 1_555 1_555
C10 N2 1_555 1_555
C11 O2 1_555 1_555
C12 C8 1_555 1_555
C13 C14 1_555 1_555
C14 C15 1_555 1_555
C15 C16 1_555 1_555
C16 C17 1_555 1_555
C17 N3 1_555 1_555
C18 O5 1_555 1_555
H1 C1 1_555 1_555
H2 C2 1_555 1_555
H3 C4 1_555 1_555
H4 C7 1_555 1_555
H5 C9 1_555 1_555
H6 C10 1_555 1_555
H7 C13 1_555 1_555
H8 C14 1_555 1_555
H9 C16 1_555 1_555
La2 O4 1_555 1_555
La3 O14 1_555 1_555
Co2 N3 1_555 1_555
Co3 N4 1_555 1_555
O8 La1 1_555 1_555
O10 La1 1_555 1_555
O11 C30 1_555 1_555
O12 La1 1_555 1_555
O13 La1 1_555 1_555
O14 C36 1_555 1_555
O15 La1 1_555 1_555
O16 La3 1_555 1_555
O17 La1 1_555 1_555
N4 C19 1_555 1_555
N5 Co1 1_555 1_555
N6 Co3 1_555 1_555
N7 Co1 1_555 1_555
N8 Co2 1_555 1_555
N9 Co1 1_555 1_555
N10 Co1 1_555 1_555
C22 C23 1_555 1_555
C23 N4 1_555 1_555
C24 N6 1_555 1_555
C25 C24 1_555 1_555
C26 C25 1_555 1_555
C27 C26 1_555 1_555
C28 N6 1_555 1_555
C30 O12 1_555 1_555
C31 N8 1_555 1_555
C32 C31 1_555 1_555
C33 C32 1_555 1_555
C34 C33 1_555 1_555
C35 C17 1_555 1_555
C36 O16 1_555 1_555
H10 C19 1_555 1_555
H13 C25 1_555 1_555
H14 C27 1_555 1_555
H15 C28 1_555 1_555
H16 C31 1_555 1_555
H17 C32 1_555 1_555
H18 C34 1_555 1_555
O6 C18 1_555 1_555
C3 C11 1_555 1_555
C5 C6 1_555 1_555
C9 C10 1_555 1_555
C15 C18 1_555 1_555
N8 C35 1_555 1_555
C23 C24 1_555 1_555
C26 C30 1_555 1_555
C27 C28 1_555 1_555
C33 C36 1_555 1_555
C34 C35 1_555 1_555
La4 O7 1_555 1_555
O7 C29 1_555 1_555
O9 La4 1_555 1_555
C20 C21 1_555 1_555
C29 O9 1_555 1_555
H11 C20 1_555 1_555
C21 C29 1_555 1_555
Co1_2 N1_2 1_555 1_555
O3_2 C12_2 1_555 1_555
O4_2 C12_2 1_555 1_555
N1_2 C1_2 1_555 1_555
N2_2 Co1_2 1_555 1_555
C1_2 C2_2 1_555 1_555
C4_2 C5_2 1_555 1_555
C5_2 N1_2 1_555 1_555
C6_2 N2_2 1_555 1_555
C7_2 C6_2 1_555 1_555
C8_2 C7_2 1_555 1_555
C9_2 C8_2 1_555 1_555
C10_2 N2_2 1_555 1_555
C12_2 C8_2 1_555 1_555
H1_2 C1_2 1_555 1_555
H2_2 C2_2 1_555 1_555
H4_2 C7_2 1_555 1_555
H5_2 C9_2 1_555 1_555
H6_2 C10_2 1_555 1_555
La2_2 O4_2 1_555 1_555
N5_2 Co1_2 1_555 1_555
N7_2 Co1_2 1_555 1_555
N9_2 Co1_2 1_555 1_555
N10_2 Co1_2 1_555 1_555
C5_2 C6_2 1_555 1_555
C9_2 C10_2 1_555 1_555
La1_2 O1_2 1_555 1_555
O1_2 C11_2 1_555 1_555
O2_2 La1_2 1_555 1_555
O5_2 La1_2 1_555 1_555
O6_2 La1_2 1_555 1_555
N3_2 C13_2 1_555 1_555
C11_2 O2_2 1_555 1_555
C13_2 C14_2 1_555 1_555
C14_2 C15_2 1_555 1_555
C15_2 C16_2 1_555 1_555
C16_2 C17_2 1_555 1_555
C17_2 N3_2 1_555 1_555
C18_2 O5_2 1_555 1_555
H7_2 C13_2 1_555 1_555
H8_2 C14_2 1_555 1_555
H9_2 C16_2 1_555 1_555
La3_2 O14_2 1_555 1_555
La4_2 O7_2 1_555 1_555
Co2_2 N3_2 1_555 1_555
Co3_2 N4_2 1_555 1_555
O7_2 C29_2 1_555 1_555
O8_2 La1_2 1_555 1_555
O9_2 La4_2 1_555 1_555
O10_2 La1_2 1_555 1_555
O11_2 C30_2 1_555 1_555
O12_2 La1_2 1_555 1_555
O13_2 La1_2 1_555 1_555
O14_2 C36_2 1_555 1_555
O15_2 La1_2 1_555 1_555
O16_2 La3_2 1_555 1_555
O17_2 La1_2 1_555 1_555
N4_2 C19_2 1_555 1_555
N6_2 Co3_2 1_555 1_555
N8_2 Co2_2 1_555 1_555
C19_2 C20_2 1_555 1_555
C20_2 C21_2 1_555 1_555
C21_2 C22_2 1_555 1_555
C22_2 C23_2 1_555 1_555
C23_2 N4_2 1_555 1_555
C24_2 N6_2 1_555 1_555
C25_2 C24_2 1_555 1_555
C26_2 C25_2 1_555 1_555
C27_2 C26_2 1_555 1_555
C28_2 N6_2 1_555 1_555
C29_2 O9_2 1_555 1_555
C30_2 O12_2 1_555 1_555
C31_2 N8_2 1_555 1_555
C32_2 C31_2 1_555 1_555
C33_2 C32_2 1_555 1_555
C34_2 C33_2 1_555 1_555
C35_2 C17_2 1_555 1_555
C36_2 O16_2 1_555 1_555
H10_2 C19_2 1_555 1_555
H11_2 C20_2 1_555 1_555
H12_2 C22_2 1_555 1_555
H13_2 C25_2 1_555 1_555
H14_2 C27_2 1_555 1_555
H15_2 C28_2 1_555 1_555
H16_2 C31_2 1_555 1_555
H17_2 C32_2 1_555 1_555
H18_2 C34_2 1_555 1_555
O6_2 C18_2 1_555 1_555
C3_2 C11_2 1_555 1_555
C15_2 C18_2 1_555 1_555
N8_2 C35_2 1_555 1_555
C21_2 C29_2 1_555 1_555
C23_2 C24_2 1_555 1_555
C26_2 C30_2 1_555 1_555
C27_2 C28_2 1_555 1_555
C33_2 C36_2 1_555 1_555
C34_2 C35_2 1_555 1_555
O8 C11_3 1_555 1_555
C2_3 C3_3 1_555 1_555
C11_3 O10 1_555 1_555
C18_3 O15 1_555 1_555
H2_3 C2_3 1_555 1_555
La3 O14_3 1_555 1_555
O11_3 C30_3 1_555 1_555
O14_3 C36_3 1_555 1_555
O16_3 La3 1_555 1_555
C30_3 O13 1_555 1_555
C36_3 O16_3 1_555 1_555
O17 C18_3 1_555 1_555
C3_3 C11_3 1_555 1_555
La4_3 O7_3 1_555 1_555
Co3_3 N4_3 1_555 1_555
O7_3 C29_3 1_555 1_555
O9_3 La4_3 1_555 1_555
N4_3 C19_3 1_555 1_555
N6_3 Co3_3 1_555 1_555
C19_3 C20_3 1_555 1_555
C20_3 C21_3 1_555 1_555
C21_3 C22_3 1_555 1_555
C22_3 C23_3 1_555 1_555
C23_3 N4_3 1_555 1_555
C24_3 N6_3 1_555 1_555
C25_3 C24_3 1_555 1_555
C26_3 C25_3 1_555 1_555
C27_3 C26_3 1_555 1_555
C28_3 N6_3 1_555 1_555
C29_3 O9_3 1_555 1_555
H10_3 C19_3 1_555 1_555
H11_3 C20_3 1_555 1_555
H12_3 C22_3 1_555 1_555
H13_3 C25_3 1_555 1_555
H15_3 C28_3 1_555 1_555
C21_3 C29_3 1_555 1_555
C23_3 C24_3 1_555 1_555
C27_3 C28_3 1_555 1_555
Co1_3 N1_3 1_555 1_555
N1_3 C1_3 1_555 1_555
N2_3 Co1_3 1_555 1_555
N3_3 C13_3 1_555 1_555
C4_3 C5_3 1_555 1_555
C5_3 N1_3 1_555 1_555
C6_3 N2_3 1_555 1_555
C7_3 C6_3 1_555 1_555
C8_3 C7_3 1_555 1_555
C9_3 C8_3 1_555 1_555
C10_3 N2_3 1_555 1_555
C13_3 C14_3 1_555 1_555
C14_3 C15_3 1_555 1_555
C15_3 C16_3 1_555 1_555
C16_3 C17_3 1_555 1_555
C17_3 N3_3 1_555 1_555
H1_3 C1_3 1_555 1_555
H4_3 C7_3 1_555 1_555
H6_3 C10_3 1_555 1_555
H7_3 C13_3 1_555 1_555
H8_3 C14_3 1_555 1_555
Co2_3 N3_3 1_555 1_555
N5_3 Co1_3 1_555 1_555
N7_3 Co1_3 1_555 1_555
N8_3 Co2_3 1_555 1_555
N9_3 Co1_3 1_555 1_555
N10_3 Co1_3 1_555 1_555
C31_3 N8_3 1_555 1_555
C32_3 C31_3 1_555 1_555
C33_3 C32_3 1_555 1_555
C34_3 C33_3 1_555 1_555
C35_3 C17_3 1_555 1_555
H16_3 C31_3 1_555 1_555
H17_3 C32_3 1_555 1_555
C5_3 C6_3 1_555 1_555
C9_3 C10_3 1_555 1_555
N8_3 C35_3 1_555 1_555
C34_3 C35_3 1_555 1_555
O3_3 C12_3 1_555 1_555
O4_3 C12_3 1_555 1_555
La2_3 O4_3 1_555 1_555
N5 C1_4 1_555 1_555
C1_4 C2_4 1_555 1_555
C4_4 C5_4 1_555 1_555
C5_4 N5 1_555 1_555
C6_4 N7 1_555 1_555
C7_4 C6_4 1_555 1_555
C8_4 C7_4 1_555 1_555
C9_4 C8_4 1_555 1_555
C10_4 N7 1_555 1_555
H1_4 C1_4 1_555 1_555
H2_4 C2_4 1_555 1_555
H4_4 C7_4 1_555 1_555
H6_4 C10_4 1_555 1_555
C5_4 C6_4 1_555 1_555
C9_4 C10_4 1_555 1_555
O3_4 C12_4 1_555 1_555
O4_4 C12_4 1_555 1_555
La2_2 O4_4 1_555 1_555
La3 O1_3 1_555 1_555
O1_3 C11_4 1_555 1_555
O2_3 La3 1_555 1_555
C11_4 O2_3 1_555 1_555
O8_3 La3 1_555 1_555
O10_3 La3 1_555 1_555
O11_4 C30_4 1_555 1_555
O12_3 La3 1_555 1_555
O13_3 La3 1_555 1_555
C30_4 O12_3 1_555 1_555
C3_4 C11_4 1_555 1_555
Co3_4 N4_4 1_555 1_555
N4_4 C19_4 1_555 1_555
N6_4 Co3_4 1_555 1_555
C22_4 C23_4 1_555 1_555
C23_4 N4_4 1_555 1_555
C24_4 N6_4 1_555 1_555
C25_4 C24_4 1_555 1_555
C26_4 C25_4 1_555 1_555
C27_4 C26_4 1_555 1_555
C28_4 N6_4 1_555 1_555
H10_4 C19_4 1_555 1_555
H13_4 C25_4 1_555 1_555
H15_4 C28_4 1_555 1_555
C23_4 C24_4 1_555 1_555
C27_4 C28_4 1_555 1_555
La4_2 O7_4 1_555 1_555
O7_4 C29_4 1_555 1_555
O9_4 La4_2 1_555 1_555
C20_4 C21_4 1_555 1_555
C29_4 O9_4 1_555 1_555
H11_4 C20_4 1_555 1_555
C21_4 C29_4 1_555 1_555
La3_2 O1_4 1_555 1_555
Co1_4 N1_4 1_555 1_555
O1_4 C11_5 1_555 1_555
O2_4 La3_2 1_555 1_555
O3_5 C12_5 1_555 1_555
O4_5 C12_5 1_555 1_555
O5_3 La3_2 1_555 1_555
O6_3 La3_2 1_555 1_555
N1_4 C1_5 1_555 1_555
N2_4 Co1_4 1_555 1_555
N3_4 C13_4 1_555 1_555
C1_5 C2_5 1_555 1_555
C2_5 C3_5 1_555 1_555
C3_5 C4_5 1_555 1_555
C4_5 C5_5 1_555 1_555
C5_5 N1_4 1_555 1_555
C6_5 N2_4 1_555 1_555
C7_5 C6_5 1_555 1_555
C8_5 C7_5 1_555 1_555
C9_5 C8_5 1_555 1_555
C10_5 N2_4 1_555 1_555
C11_5 O2_4 1_555 1_555
C12_5 C8_5 1_555 1_555
C13_4 C14_4 1_555 1_555
C14_4 C15_4 1_555 1_555
C15_4 C16_4 1_555 1_555
C16_4 C17_4 1_555 1_555
C17_4 N3_4 1_555 1_555
C18_4 O5_3 1_555 1_555
H1_5 C1_5 1_555 1_555
H2_5 C2_5 1_555 1_555
H3_5 C4_5 1_555 1_555
H4_5 C7_5 1_555 1_555
H5_5 C9_5 1_555 1_555
H6_5 C10_5 1_555 1_555
H7_4 C13_4 1_555 1_555
H8_4 C14_4 1_555 1_555
H9_4 C16_4 1_555 1_555
La2_3 O4_5 1_555 1_555
La4_3 O7_5 1_555 1_555
Co2_4 N3_4 1_555 1_555
Co3_5 N4_5 1_555 1_555
O7_5 C29_5 1_555 1_555
O8_4 La3_2 1_555 1_555
O9_5 La4_3 1_555 1_555
O10_4 La3_2 1_555 1_555
O11_5 C30_5 1_555 1_555
O12_4 La3_2 1_555 1_555
O13_4 La3_2 1_555 1_555
O15_2 C36_4 1_555 1_555
N4_5 C19_5 1_555 1_555
N5_4 Co1_4 1_555 1_555
N6_5 Co3_5 1_555 1_555
N7_4 Co1_4 1_555 1_555
N8_4 Co2_4 1_555 1_555
N9_4 Co1_4 1_555 1_555
N10_4 Co1_4 1_555 1_555
C19_5 C20_5 1_555 1_555
C20_5 C21_5 1_555 1_555
C21_5 C22_5 1_555 1_555
C22_5 C23_5 1_555 1_555
C23_5 N4_5 1_555 1_555
C24_5 N6_5 1_555 1_555
C25_5 C24_5 1_555 1_555
C26_5 C25_5 1_555 1_555
C27_5 C26_5 1_555 1_555
C28_5 N6_5 1_555 1_555
C29_5 O9_5 1_555 1_555
C30_5 O12_4 1_555 1_555
C31_4 N8_4 1_555 1_555
C32_4 C31_4 1_555 1_555
C33_4 C32_4 1_555 1_555
C34_4 C33_4 1_555 1_555
C35_4 C17_4 1_555 1_555
C36_4 O17_2 1_555 1_555
H10_5 C19_5 1_555 1_555
H11_5 C20_5 1_555 1_555
H12_5 C22_5 1_555 1_555
H13_5 C25_5 1_555 1_555
H14_5 C27_5 1_555 1_555
H15_5 C28_5 1_555 1_555
H16_4 C31_4 1_555 1_555
H17_4 C32_4 1_555 1_555
H18_4 C34_4 1_555 1_555
O6_3 C18_4 1_555 1_555
C3_5 C11_5 1_555 1_555
C5_5 C6_5 1_555 1_555
C9_5 C10_5 1_555 1_555
C15_4 C18_4 1_555 1_555
N8_4 C35_4 1_555 1_555
C21_5 C29_5 1_555 1_555
C23_5 C24_5 1_555 1_555
C26_5 C30_5 1_555 1_555
C27_5 C28_5 1_555 1_555
C33_4 C36_4 1_555 1_555
C34_4 C35_4 1_555 1_555
O3_6 C12_6 1_555 1_555
O4_6 C12_6 1_555 1_555
N5_3 C1_6 1_555 1_555
C4_6 C5_6 1_555 1_555
C5_6 N5_3 1_555 1_555
C6_6 N7_3 1_555 1_555
C7_6 C6_6 1_555 1_555
C8_6 C7_6 1_555 1_555
C9_6 C8_6 1_555 1_555
C10_6 N7_3 1_555 1_555
C12_6 C8_6 1_555 1_555
H1_6 C1_6 1_555 1_555
H4_6 C7_6 1_555 1_555
H5_6 C9_6 1_555 1_555
H6_6 C10_6 1_555 1_555
La2_4 O4_6 1_555 1_555
C5_6 C6_6 1_555 1_555
C9_6 C10_6 1_555 1_555
O8_3 C11_6 1_555 1_555
C11_6 O10_3 1_555 1_555
La4_4 O7_6 1_555 1_555
Co3_6 N4_6 1_555 1_555
O7_6 C29_6 1_555 1_555
O9_6 La4_4 1_555 1_555
O11_6 C30_6 1_555 1_555
N4_6 C19_6 1_555 1_555
N6_6 Co3_6 1_555 1_555
C19_6 C20_6 1_555 1_555
C20_6 C21_6 1_555 1_555
C21_6 C22_6 1_555 1_555
C22_6 C23_6 1_555 1_555
C23_6 N4_6 1_555 1_555
C24_6 N6_6 1_555 1_555
C25_6 C24_6 1_555 1_555
C26_6 C25_6 1_555 1_555
C27_6 C26_6 1_555 1_555
C28_6 N6_6 1_555 1_555
C29_6 O9_6 1_555 1_555
C30_6 O13_3 1_555 1_555
H10_6 C19_6 1_555 1_555
H11_6 C20_6 1_555 1_555
H12_6 C22_6 1_555 1_555
H13_6 C25_6 1_555 1_555
H14_6 C27_6 1_555 1_555
H15_6 C28_6 1_555 1_555
C3_6 C11_6 1_555 1_555
C21_6 C29_6 1_555 1_555
C23_6 C24_6 1_555 1_555
C26_6 C30_6 1_555 1_555
C27_6 C28_6 1_555 1_555
O8_4 C11_7 1_555 1_555
O3_7 C12_7 1_555 1_555
O4_7 C12_7 1_555 1_555
N5_2 C1_7 1_555 1_555
C1_7 C2_6 1_555 1_555
C2_6 C3_7 1_555 1_555
C3_7 C4_7 1_555 1_555
C4_7 C5_7 1_555 1_555
C5_7 N5_2 1_555 1_555
C6_7 N7_2 1_555 1_555
C7_7 C6_7 1_555 1_555
C8_7 C7_7 1_555 1_555
C9_7 C8_7 1_555 1_555
C10_7 N7_2 1_555 1_555
C11_7 O10_4 1_555 1_555
C12_7 C8_7 1_555 1_555
H1_7 C1_7 1_555 1_555
H2_6 C2_6 1_555 1_555
H3_7 C4_7 1_555 1_555
H4_7 C7_7 1_555 1_555
H5_7 C9_7 1_555 1_555
H6_7 C10_7 1_555 1_555
La2 O4_7 1_555 1_555
La4 O7_7 1_555 1_555
Co3_7 N4_7 1_555 1_555
O7_7 C29_7 1_555 1_555
O9_7 La4 1_555 1_555
O11_7 C30_7 1_555 1_555
N4_7 C19_7 1_555 1_555
N6_7 Co3_7 1_555 1_555
C19_7 C20_7 1_555 1_555
C20_7 C21_7 1_555 1_555
C21_7 C22_7 1_555 1_555
C22_7 C23_7 1_555 1_555
C23_7 N4_7 1_555 1_555
C24_7 N6_7 1_555 1_555
C25_7 C24_7 1_555 1_555
C26_7 C25_7 1_555 1_555
C27_7 C26_7 1_555 1_555
C28_7 N6_7 1_555 1_555
C29_7 O9_7 1_555 1_555
C30_7 O13_4 1_555 1_555
H10_7 C19_7 1_555 1_555
H11_7 C20_7 1_555 1_555
H12_7 C22_7 1_555 1_555
H13_7 C25_7 1_555 1_555
H14_7 C27_7 1_555 1_555
H15_7 C28_7 1_555 1_555
C3_7 C11_7 1_555 1_555
C5_7 C6_7 1_555 1_555
C9_7 C10_7 1_555 1_555
C21_7 C29_7 1_555 1_555
C23_7 C24_7 1_555 1_555
C26_7 C30_7 1_555 1_555
C27_7 C28_7 1_555 1_555
O3_8 C12_8 1_555 1_555
O4_8 C12_8 1_555 1_555
N5_4 C1_8 1_555 1_555
C1_8 C2_7 1_555 1_555
C4_8 C5_8 1_555 1_555
C5_8 N5_4 1_555 1_555
C6_8 N7_4 1_555 1_555
C7_8 C6_8 1_555 1_555
C8_8 C7_8 1_555 1_555
C9_8 C8_8 1_555 1_555
C10_8 N7_4 1_555 1_555
C12_8 C8_8 1_555 1_555
H1_8 C1_8 1_555 1_555
H2_7 C2_7 1_555 1_555
H4_8 C7_8 1_555 1_555
H5_8 C9_8 1_555 1_555
H6_8 C10_8 1_555 1_555
La2_4 O4_8 1_555 1_555
C5_8 C6_8 1_555 1_555
C9_8 C10_8 1_555 1_555
O8_2 C11_8 1_555 1_555
C11_8 O10_2 1_555 1_555
La4_4 O7_8 1_555 1_555
Co3_8 N4_8 1_555 1_555
O7_8 C29_8 1_555 1_555
O9_8 La4_4 1_555 1_555
O11_8 C30_8 1_555 1_555
N4_8 C19_8 1_555 1_555
N6_8 Co3_8 1_555 1_555
C19_8 C20_8 1_555 1_555
C20_8 C21_8 1_555 1_555
C21_8 C22_8 1_555 1_555
C22_8 C23_8 1_555 1_555
C23_8 N4_8 1_555 1_555
C24_8 N6_8 1_555 1_555
C25_8 C24_8 1_555 1_555
C26_8 C25_8 1_555 1_555
C27_8 C26_8 1_555 1_555
C28_8 N6_8 1_555 1_555
C29_8 O9_8 1_555 1_555
C30_8 O13_2 1_555 1_555
H10_8 C19_8 1_555 1_555
H11_8 C20_8 1_555 1_555
H12_8 C22_8 1_555 1_555
H13_8 C25_8 1_555 1_555
H14_8 C27_8 1_555 1_555
H15_8 C28_8 1_555 1_555
C3_8 C11_8 1_555 1_555
C21_8 C29_8 1_555 1_555
C23_8 C24_8 1_555 1_555
C26_8 C30_8 1_555 1_555
C27_8 C28_8 1_555 1_555
N9_2 C13_5 1_555 1_555
C15_5 C16_5 1_555 1_555
C16_5 C17_5 1_555 1_555
C17_5 N9_2 1_555 1_555
H9_5 C16_5 1_555 1_555
La3_3 O14_4 1_555 1_555
O14_4 C36_5 1_555 1_555
O16_4 La3_3 1_555 1_555
C31_5 N10_2 1_555 1_555
C32_5 C31_5 1_555 1_555
C33_5 C32_5 1_555 1_555
C34_5 C33_5 1_555 1_555
C35_5 C17_5 1_555 1_555
C36_5 O16_4 1_555 1_555
H16_5 C31_5 1_555 1_555
H17_5 C32_5 1_555 1_555
H18_5 C34_5 1_555 1_555
N10_2 C35_5 1_555 1_555
C33_5 C36_5 1_555 1_555
C34_5 C35_5 1_555 1_555
La2_3 O7_9 1_555 1_555
O7_9 C29_9 1_555 1_555
O9_9 La2_3 1_555 1_555
C29_9 O9_9 1_555 1_555
C21_9 C29_9 1_555 1_555
La1_3 O1_5 1_555 1_555
Co2_2 N1_5 1_555 1_555
O1_5 C11_9 1_555 1_555
O2_5 La1_3 1_555 1_555
O3_9 C12_9 1_555 1_555
O4_9 C12_9 1_555 1_555
O5_4 La1_3 1_555 1_555
O6_4 La1_3 1_555 1_555
N1_5 C1_9 1_555 1_555
N2_5 Co2_2 1_555 1_555
C1_9 C2_8 1_555 1_555
C2_8 C3_9 1_555 1_555
C3_9 C4_9 1_555 1_555
C4_9 C5_9 1_555 1_555
C5_9 N1_5 1_555 1_555
C6_9 N2_5 1_555 1_555
C7_9 C6_9 1_555 1_555
C8_9 C7_9 1_555 1_555
C9_9 C8_9 1_555 1_555
C10_9 N2_5 1_555 1_555
C11_9 O2_5 1_555 1_555
C12_9 C8_9 1_555 1_555
C18_5 O5_4 1_555 1_555
H1_9 C1_9 1_555 1_555
H2_8 C2_8 1_555 1_555
H3_9 C4_9 1_555 1_555
H4_9 C7_9 1_555 1_555
H5_9 C9_9 1_555 1_555
H6_9 C10_9 1_555 1_555
H8_5 C14_5 1_555 1_555
La4_3 O4_9 1_555 1_555
Co3_4 N4_9 1_555 1_555
O8_5 La1_3 1_555 1_555
O10_5 La1_3 1_555 1_555
O11_9 C30_9 1_555 1_555
O12_5 La1_3 1_555 1_555
O13_5 La1_3 1_555 1_555
O15_3 La1_3 1_555 1_555
O17_3 La1_3 1_555 1_555
N4_9 C19_9 1_555 1_555
N5_5 Co2_2 1_555 1_555
N6_9 Co3_4 1_555 1_555
N7_5 Co2_2 1_555 1_555
C22_9 C23_9 1_555 1_555
C23_9 N4_9 1_555 1_555
C24_9 N6_9 1_555 1_555
C25_9 C24_9 1_555 1_555
C26_9 C25_9 1_555 1_555
C27_9 C26_9 1_555 1_555
C28_9 N6_9 1_555 1_555
C30_9 O12_5 1_555 1_555
H10_9 C19_9 1_555 1_555
H13_9 C25_9 1_555 1_555
H14_9 C27_9 1_555 1_555
H15_9 C28_9 1_555 1_555
O6_4 C18_5 1_555 1_555
C3_9 C11_9 1_555 1_555
C5_9 C6_9 1_555 1_555
C9_9 C10_9 1_555 1_555
C23_9 C24_9 1_555 1_555
C26_9 C30_9 1_555 1_555
C27_9 C28_9 1_555 1_555
La1_4 O1_6 1_555 1_555
Co2 N1_6 1_555 1_555
O1_6 C11_10 1_555 1_555
O2_6 La1_4 1_555 1_555
O3_10 C12_10 1_555 1_555
O4_10 C12_10 1_555 1_555
O5_5 La1_4 1_555 1_555
O6_5 La1_4 1_555 1_555
N1_6 C1_10 1_555 1_555
N2_6 Co2 1_555 1_555
N9 C13_6 1_555 1_555
C1_10 C2_9 1_555 1_555
C2_9 C3_10 1_555 1_555
C3_10 C4_10 1_555 1_555
C4_10 C5_10 1_555 1_555
C5_10 N1_6 1_555 1_555
C6_10 N2_6 1_555 1_555
C7_10 C6_10 1_555 1_555
C8_10 C7_10 1_555 1_555
C9_10 C8_10 1_555 1_555
C10_10 N2_6 1_555 1_555
C11_10 O2_6 1_555 1_555
C12_10 C8_10 1_555 1_555
C13_6 C14_6 1_555 1_555
C14_6 C15_6 1_555 1_555
C15_6 C16_6 1_555 1_555
C16_6 C17_6 1_555 1_555
C17_6 N9 1_555 1_555
C18_6 O5_5 1_555 1_555
H1_10 C1_10 1_555 1_555
H2_9 C2_9 1_555 1_555
H3_10 C4_10 1_555 1_555
H4_10 C7_10 1_555 1_555
H5_10 C9_10 1_555 1_555
H6_10 C10_10 1_555 1_555
H7_6 C13_6 1_555 1_555
H8_6 C14_6 1_555 1_555
H9_6 C16_6 1_555 1_555
La4_4 O4_10 1_555 1_555
La2_4 O7_10 1_555 1_555
Co3_7 N4_10 1_555 1_555
O7_10 C29_10 1_555 1_555
O8_6 La1_4 1_555 1_555
O9_10 La2_4 1_555 1_555
O10_6 La1_4 1_555 1_555
O11_10 C30_10 1_555 1_555
O12_6 La1_4 1_555 1_555
O13_6 La1_4 1_555 1_555
O15_4 La1_4 1_555 1_555
O17_4 La1_4 1_555 1_555
N4_10 C19_10 1_555 1_555
N5_6 Co2 1_555 1_555
N6_10 Co3_7 1_555 1_555
N7_6 Co2 1_555 1_555
C19_10 C20_9 1_555 1_555
C20_9 C21_10 1_555 1_555
C21_10 C22_10 1_555 1_555
C22_10 C23_10 1_555 1_555
C23_10 N4_10 1_555 1_555
C24_10 N6_10 1_555 1_555
C25_10 C24_10 1_555 1_555
C26_10 C25_10 1_555 1_555
C27_10 C26_10 1_555 1_555
C28_10 N6_10 1_555 1_555
C29_10 O9_10 1_555 1_555
C30_10 O12_6 1_555 1_555
C31_6 N10 1_555 1_555
C34_6 C33_6 1_555 1_555
C35_6 C17_6 1_555 1_555
H10_10 C19_10 1_555 1_555
H11_9 C20_9 1_555 1_555
H12_10 C22_10 1_555 1_555
H13_10 C25_10 1_555 1_555
H14_10 C27_10 1_555 1_555
H15_10 C28_10 1_555 1_555
H18_6 C34_6 1_555 1_555
O6_5 C18_6 1_555 1_555
C3_10 C11_10 1_555 1_555
C5_10 C6_10 1_555 1_555
C9_10 C10_10 1_555 1_555
C15_6 C18_6 1_555 1_555
N10 C35_6 1_555 1_555
C21_10 C29_10 1_555 1_555
C23_10 C24_10 1_555 1_555
C26_10 C30_10 1_555 1_555
C27_10 C28_10 1_555 1_555
C34_6 C35_6 1_555 1_555
La3_4 O14_5 1_555 1_555
O14_5 C36_6 1_555 1_555
O16_5 La3_4 1_555 1_555
C36_6 O16_5 1_555 1_555
H17_6 C32_6 1_555 1_555
La3_3 O14_6 1_555 1_555
La2 O7_11 1_555 1_555
O7_11 C29_11 1_555 1_555
O9_11 La2 1_555 1_555
O14_6 C36_7 1_555 1_555
O16_6 La3_3 1_555 1_555
C29_11 O9_11 1_555 1_555
C36_7 O16_6 1_555 1_555
C21_11 C29_11 1_555 1_555
N10_4 C13_7 1_555 1_555
C15_7 C16_7 1_555 1_555
C16_7 C17_7 1_555 1_555
C17_7 N10_4 1_555 1_555
C31_7 N9_4 1_555 1_555
C32_7 C31_7 1_555 1_555
C33_7 C32_7 1_555 1_555
C34_7 C33_7 1_555 1_555
C35_7 C17_7 1_555 1_555
H16_7 C31_7 1_555 1_555
H17_7 C32_7 1_555 1_555
N9_4 C35_7 1_555 1_555
C34_7 C35_7 1_555 1_555
O8_5 C11_11 1_555 1_555
C2_10 C3_11 1_555 1_555
C11_11 O10_5 1_555 1_555
C18_7 O15_3 1_555 1_555
H2_10 C2_10 1_555 1_555
Co3_6 N4_11 1_555 1_555
O11_11 C30_11 1_555 1_555
N4_11 C19_11 1_555 1_555
N6_11 Co3_6 1_555 1_555
C19_11 C20_10 1_555 1_555
C22_11 C23_11 1_555 1_555
C23_11 N4_11 1_555 1_555
C24_11 N6_11 1_555 1_555
C25_11 C24_11 1_555 1_555
C26_11 C25_11 1_555 1_555
C27_11 C26_11 1_555 1_555
C28_11 N6_11 1_555 1_555
C30_11 O13_5 1_555 1_555
H10_11 C19_11 1_555 1_555
H11_10 C20_10 1_555 1_555
H13_11 C25_11 1_555 1_555
H14_11 C27_11 1_555 1_555
H15_11 C28_11 1_555 1_555
O17_3 C18_7 1_555 1_555
C3_11 C11_11 1_555 1_555
C23_11 C24_11 1_555 1_555
C26_11 C30_11 1_555 1_555
C27_11 C28_11 1_555 1_555
Co2_4 N1_7 1_555 1_555
O3_11 C12_11 1_555 1_555
O4_11 C12_11 1_555 1_555
N1_7 C1_11 1_555 1_555
N2_7 Co2_4 1_555 1_555
C4_11 C5_11 1_555 1_555
C5_11 N1_7 1_555 1_555
C6_11 N2_7 1_555 1_555
C7_11 C6_11 1_555 1_555
C8_11 C7_11 1_555 1_555
C9_11 C8_11 1_555 1_555
C10_11 N2_7 1_555 1_555
C12_11 C8_11 1_555 1_555
H1_11 C1_11 1_555 1_555
H4_11 C7_11 1_555 1_555
H5_11 C9_11 1_555 1_555
H6_11 C10_11 1_555 1_555
H8_7 C14_7 1_555 1_555
La4 O4_11 1_555 1_555
N5_7 Co2_4 1_555 1_555
N7_7 Co2_4 1_555 1_555
C5_11 C6_11 1_555 1_555
C9_11 C10_11 1_555 1_555
La3_3 O1_7 1_555 1_555
O1_7 C11_12 1_555 1_555
O2_7 La3_3 1_555 1_555
O3_12 C12_12 1_555 1_555
O4_12 C12_12 1_555 1_555
N5_5 C1_12 1_555 1_555
C1_12 C2_11 1_555 1_555
C2_11 C3_12 1_555 1_555
C3_12 C4_12 1_555 1_555
C4_12 C5_12 1_555 1_555
C5_12 N5_5 1_555 1_555
C6_12 N7_5 1_555 1_555
C7_12 C6_12 1_555 1_555
C8_12 C7_12 1_555 1_555
C9_12 C8_12 1_555 1_555
C10_12 N7_5 1_555 1_555
C11_12 O2_7 1_555 1_555
C12_12 C8_12 1_555 1_555
H1_12 C1_12 1_555 1_555
H2_11 C2_11 1_555 1_555
H3_12 C4_12 1_555 1_555
H4_12 C7_12 1_555 1_555
H5_12 C9_12 1_555 1_555
H6_12 C10_12 1_555 1_555
La4_4 O4_12 1_555 1_555
Co3 N4_12 1_555 1_555
O8_7 La3_3 1_555 1_555
O10_7 La3_3 1_555 1_555
O11_12 C30_12 1_555 1_555
O12_7 La3_3 1_555 1_555
O13_7 La3_3 1_555 1_555
N4_12 C19_12 1_555 1_555
N6_12 Co3 1_555 1_555
C22_12 C23_12 1_555 1_555
C23_12 N4_12 1_555 1_555
C24_12 N6_12 1_555 1_555
C25_12 C24_12 1_555 1_555
C26_12 C25_12 1_555 1_555
C27_12 C26_12 1_555 1_555
C28_12 N6_12 1_555 1_555
C30_12 O12_7 1_555 1_555
H10_12 C19_12 1_555 1_555
H13_12 C25_12 1_555 1_555
H14_12 C27_12 1_555 1_555
H15_12 C28_12 1_555 1_555
C3_12 C11_12 1_555 1_555
C5_12 C6_12 1_555 1_555
C9_12 C10_12 1_555 1_555
C23_12 C24_12 1_555 1_555
C26_12 C30_12 1_555 1_555
C27_12 C28_12 1_555 1_555
La2_4 O7_12 1_555 1_555
O7_12 C29_12 1_555 1_555
O9_12 La2_4 1_555 1_555
C20_11 C21_12 1_555 1_555
C29_12 O9_12 1_555 1_555
H11_11 C20_11 1_555 1_555
C21_12 C29_12 1_555 1_555
N10_3 C13_8 1_555 1_555
C15_8 C16_8 1_555 1_555
C16_8 C17_8 1_555 1_555
C17_8 N10_3 1_555 1_555
H9_8 C16_8 1_555 1_555
La2 O7_13 1_555 1_555
O7_13 C29_13 1_555 1_555
O9_13 La2 1_555 1_555
O15_4 C36_8 1_555 1_555
C29_13 O9_13 1_555 1_555
C31_8 N9_3 1_555 1_555
C32_8 C31_8 1_555 1_555
C33_8 C32_8 1_555 1_555
C34_8 C33_8 1_555 1_555
C35_8 C17_8 1_555 1_555
C36_8 O17_4 1_555 1_555
H16_8 C31_8 1_555 1_555
H17_8 C32_8 1_555 1_555
H18_8 C34_8 1_555 1_555
N9_3 C35_8 1_555 1_555
C21_13 C29_13 1_555 1_555
C33_8 C36_8 1_555 1_555
C34_8 C35_8 1_555 1_555
La3_4 O1_8 1_555 1_555
Co2_3 N1_8 1_555 1_555
O1_8 C11_13 1_555 1_555
O2_8 La3_4 1_555 1_555
O3_13 C12_13 1_555 1_555
O4_13 C12_13 1_555 1_555
O5_6 La3_4 1_555 1_555
O6_6 La3_4 1_555 1_555
N1_8 C1_13 1_555 1_555
N2_8 Co2_3 1_555 1_555
C1_13 C2_12 1_555 1_555
C2_12 C3_13 1_555 1_555
C3_13 C4_13 1_555 1_555
C4_13 C5_13 1_555 1_555
C5_13 N1_8 1_555 1_555
C6_13 N2_8 1_555 1_555
C7_13 C6_13 1_555 1_555
C8_13 C7_13 1_555 1_555
C9_13 C8_13 1_555 1_555
C10_13 N2_8 1_555 1_555
C11_13 O2_8 1_555 1_555
C12_13 C8_13 1_555 1_555
C18_8 O5_6 1_555 1_555
H1_13 C1_13 1_555 1_555
H2_12 C2_12 1_555 1_555
H3_13 C4_13 1_555 1_555
H4_13 C7_13 1_555 1_555
H5_13 C9_13 1_555 1_555
H6_13 C10_13 1_555 1_555
H8_8 C14_8 1_555 1_555
La4 O4_13 1_555 1_555
Co3_8 N4_13 1_555 1_555
O8_8 La3_4 1_555 1_555
O10_8 La3_4 1_555 1_555
O11_13 C30_13 1_555 1_555
O12_8 La3_4 1_555 1_555
O13_8 La3_4 1_555 1_555
N4_13 C19_13 1_555 1_555
N5_8 Co2_3 1_555 1_555
N6_13 Co3_8 1_555 1_555
N7_8 Co2_3 1_555 1_555
C19_13 C20_12 1_555 1_555
C22_13 C23_13 1_555 1_555
C23_13 N4_13 1_555 1_555
C24_13 N6_13 1_555 1_555
C25_13 C24_13 1_555 1_555
C26_13 C25_13 1_555 1_555
C27_13 C26_13 1_555 1_555
C28_13 N6_13 1_555 1_555
C30_13 O12_8 1_555 1_555
H10_13 C19_13 1_555 1_555
H11_12 C20_12 1_555 1_555
H13_13 C25_13 1_555 1_555
H14_13 C27_13 1_555 1_555
H15_13 C28_13 1_555 1_555
O6_6 C18_8 1_555 1_555
C3_13 C11_13 1_555 1_555
C5_13 C6_13 1_555 1_555
C9_13 C10_13 1_555 1_555
C23_13 C24_13 1_555 1_555
C26_13 C30_13 1_555 1_555
C27_13 C28_13 1_555 1_555
O8_7 C11_14 1_555 1_555
C2_13 C3_14 1_555 1_555
C11_14 O10_7 1_555 1_555
H2_13 C2_13 1_555 1_555
La2_2 O7_14 1_555 1_555
Co3_3 N4_14 1_555 1_555
O7_14 C29_14 1_555 1_555
O9_14 La2_2 1_555 1_555
O11_14 C30_14 1_555 1_555
N4_14 C19_14 1_555 1_555
N6_14 Co3_3 1_555 1_555
C19_14 C20_13 1_555 1_555
C20_13 C21_14 1_555 1_555
C21_14 C22_14 1_555 1_555
C22_14 C23_14 1_555 1_555
C23_14 N4_14 1_555 1_555
C24_14 N6_14 1_555 1_555
C25_14 C24_14 1_555 1_555
C26_14 C25_14 1_555 1_555
C27_14 C26_14 1_555 1_555
C28_14 N6_14 1_555 1_555
C29_14 O9_14 1_555 1_555
C30_14 O13_7 1_555 1_555
H10_14 C19_14 1_555 1_555
H11_13 C20_13 1_555 1_555
H12_14 C22_14 1_555 1_555
H13_14 C25_14 1_555 1_555
H14_14 C27_14 1_555 1_555
H15_14 C28_14 1_555 1_555
C3_14 C11_14 1_555 1_555
C21_14 C29_14 1_555 1_555
C23_14 C24_14 1_555 1_555
C26_14 C30_14 1_555 1_555
C27_14 C28_14 1_555 1_555
O3_14 C12_14 1_555 1_555
O4_14 C12_14 1_555 1_555
N5_7 C1_14 1_555 1_555
C4_14 C5_14 1_555 1_555
C5_14 N5_7 1_555 1_555
C6_14 N7_7 1_555 1_555
C7_14 C6_14 1_555 1_555
C8_14 C7_14 1_555 1_555
C9_14 C8_14 1_555 1_555
C10_14 N7_7 1_555 1_555
C12_14 C8_14 1_555 1_555
H1_14 C1_14 1_555 1_555
H4_14 C7_14 1_555 1_555
H5_14 C9_14 1_555 1_555
H6_14 C10_14 1_555 1_555
La4_2 O4_14 1_555 1_555
C5_14 C6_14 1_555 1_555
C9_14 C10_14 1_555 1_555
La2_3 O7_15 1_555 1_555
O7_15 C29_15 1_555 1_555
O9_15 La2_3 1_555 1_555
C29_15 O9_15 1_555 1_555
C21_15 C29_15 1_555 1_555
O8_8 C11_15 1_555 1_555
N5_6 C1_15 1_555 1_555
C1_15 C2_14 1_555 1_555
C2_14 C3_15 1_555 1_555
C3_15 C4_15 1_555 1_555
C4_15 C5_15 1_555 1_555
C5_15 N5_6 1_555 1_555
C6_15 N7_6 1_555 1_555
C7_15 C6_15 1_555 1_555
C8_15 C7_15 1_555 1_555
C9_15 C8_15 1_555 1_555
C10_15 N7_6 1_555 1_555
C11_15 O10_8 1_555 1_555
H1_15 C1_15 1_555 1_555
H2_14 C2_14 1_555 1_555
H3_15 C4_15 1_555 1_555
H4_15 C7_15 1_555 1_555
H6_15 C10_15 1_555 1_555
O11_15 C30_15 1_555 1_555
C30_15 O13_8 1_555 1_555
C3_15 C11_15 1_555 1_555
C5_15 C6_15 1_555 1_555
C9_15 C10_15 1_555 1_555
O3_15 C12_15 1_555 1_555
O4_15 C12_15 1_555 1_555
La4_3 O4_15 1_555 1_555
Co3_2 N4_15 1_555 1_555
N4_15 C19_15 1_555 1_555
N6_15 Co3_2 1_555 1_555
C19_15 C20_14 1_555 1_555
C22_15 C23_15 1_555 1_555
C23_15 N4_15 1_555 1_555
C24_15 N6_15 1_555 1_555
C25_15 C24_15 1_555 1_555
C26_15 C25_15 1_555 1_555
C27_15 C26_15 1_555 1_555
C28_15 N6_15 1_555 1_555
H10_15 C19_15 1_555 1_555
H11_14 C20_14 1_555 1_555
H13_15 C25_15 1_555 1_555
H15_15 C28_15 1_555 1_555
C23_15 C24_15 1_555 1_555
C27_15 C28_15 1_555 1_555
O8_6 C11_16 1_555 1_555
N5_8 C1_16 1_555 1_555
C1_16 C2_15 1_555 1_555
C2_15 C3_16 1_555 1_555
C3_16 C4_16 1_555 1_555
C4_16 C5_16 1_555 1_555
C5_16 N5_8 1_555 1_555
C6_16 N7_8 1_555 1_555
C7_16 C6_16 1_555 1_555
C8_16 C7_16 1_555 1_555
C9_16 C8_16 1_555 1_555
C10_16 N7_8 1_555 1_555
C11_16 O10_6 1_555 1_555
H1_16 C1_16 1_555 1_555
H2_15 C2_15 1_555 1_555
H3_16 C4_16 1_555 1_555
H4_16 C7_16 1_555 1_555
H6_16 C10_16 1_555 1_555
O11_16 C30_16 1_555 1_555
C30_16 O13_6 1_555 1_555
C3_16 C11_16 1_555 1_555
C5_16 C6_16 1_555 1_555
C9_16 C10_16 1_555 1_555
O3_16 C12_16 1_555 1_555
O4_16 C12_16 1_555 1_555
La4_2 O4_16 1_555 1_555
La2_2 O7_16 1_555 1_555
Co3_5 N4_16 1_555 1_555
O7_16 C29_16 1_555 1_555
O9_16 La2_2 1_555 1_555
N4_16 C19_16 1_555 1_555
N6_16 Co3_5 1_555 1_555
C19_16 C20_15 1_555 1_555
C20_15 C21_16 1_555 1_555
C21_16 C22_16 1_555 1_555
C22_16 C23_16 1_555 1_555
C23_16 N4_16 1_555 1_555
C24_16 N6_16 1_555 1_555
C25_16 C24_16 1_555 1_555
C26_16 C25_16 1_555 1_555
C27_16 C26_16 1_555 1_555
C28_16 N6_16 1_555 1_555
C29_16 O9_16 1_555 1_555
H10_16 C19_16 1_555 1_555
H11_15 C20_15 1_555 1_555
H12_16 C22_16 1_555 1_555
H13_16 C25_16 1_555 1_555
H15_16 C28_16 1_555 1_555
C21_16 C29_16 1_555 1_555
C23_16 C24_16 1_555 1_555
C27_16 C28_16 1_555 1_555
O5_7 La4_2 1_555 1_555
O6_7 La4_2 1_555 1_555
N3_5 C13_9 1_555 1_555
C13_9 C14_9 1_555 1_555
C14_9 C15_9 1_555 1_555
C15_9 C16_9 1_555 1_555
C16_9 C17_9 1_555 1_555
C17_9 N3_5 1_555 1_555
C18_9 O5_7 1_555 1_555
H7_9 C13_9 1_555 1_555
H8_9 C14_9 1_555 1_555
H9_9 C16_9 1_555 1_555
La2_3 O14_7 1_555 1_555
Co3_5 N3_5 1_555 1_555
O14_7 C36_9 1_555 1_555
O15_5 La4_2 1_555 1_555
O16_7 La2_3 1_555 1_555
O17_5 La4_2 1_555 1_555
N8_5 Co3_5 1_555 1_555
N9_5 Co3_2 1_555 1_555
N10_5 Co3_2 1_555 1_555
C31_9 N8_5 1_555 1_555
C32_9 C31_9 1_555 1_555
C33_9 C32_9 1_555 1_555
C34_9 C33_9 1_555 1_555
C35_9 C17_9 1_555 1_555
C36_9 O16_7 1_555 1_555
H16_9 C31_9 1_555 1_555
H17_9 C32_9 1_555 1_555
H18_9 C34_9 1_555 1_555
O6_7 C18_9 1_555 1_555
C15_9 C18_9 1_555 1_555
N8_5 C35_9 1_555 1_555
C33_9 C36_9 1_555 1_555
C34_9 C35_9 1_555 1_555
O5_8 La2 1_555 1_555
O6_8 La2 1_555 1_555
N3_6 C13_10 1_555 1_555
C13_10 C14_10 1_555 1_555
C14_10 C15_10 1_555 1_555
C15_10 C16_10 1_555 1_555
C16_10 C17_10 1_555 1_555
C17_10 N3_6 1_555 1_555
C18_10 O5_8 1_555 1_555
H7_10 C13_10 1_555 1_555
H8_10 C14_10 1_555 1_555
H9_10 C16_10 1_555 1_555
La4_4 O14_8 1_555 1_555
Co3_7 N3_6 1_555 1_555
O14_8 C36_10 1_555 1_555
O15_6 La2 1_555 1_555
O16_8 La4_4 1_555 1_555
O17_6 La2 1_555 1_555
N8_6 Co3_7 1_555 1_555
C31_10 N8_6 1_555 1_555
C32_10 C31_10 1_555 1_555
C33_10 C32_10 1_555 1_555
C34_10 C33_10 1_555 1_555
C35_10 C17_10 1_555 1_555
C36_10 O16_8 1_555 1_555
H16_10 C31_10 1_555 1_555
H17_10 C32_10 1_555 1_555
H18_10 C34_10 1_555 1_555
O6_8 C18_10 1_555 1_555
C15_10 C18_10 1_555 1_555
N8_6 C35_10 1_555 1_555
C33_10 C36_10 1_555 1_555
C34_10 C35_10 1_555 1_555
N9_6 Co3_8 1_555 1_555
N10_6 Co3_8 1_555 1_555
N3_7 C13_11 1_555 1_555
C13_11 C14_11 1_555 1_555
C14_11 C15_11 1_555 1_555
C15_11 C16_11 1_555 1_555
C16_11 C17_11 1_555 1_555
C17_11 N3_7 1_555 1_555
H7_11 C13_11 1_555 1_555
H8_11 C14_11 1_555 1_555
Co3_3 N3_7 1_555 1_555
N8_7 Co3_3 1_555 1_555
N9_7 Co3_4 1_555 1_555
N10_7 Co3_4 1_555 1_555
C31_11 N8_7 1_555 1_555
C32_11 C31_11 1_555 1_555
C33_11 C32_11 1_555 1_555
C34_11 C33_11 1_555 1_555
C35_11 C17_11 1_555 1_555
H16_11 C31_11 1_555 1_555
H17_11 C32_11 1_555 1_555
N8_7 C35_11 1_555 1_555
C34_11 C35_11 1_555 1_555
C18_11 O15_5 1_555 1_555
La2_3 O14_9 1_555 1_555
O14_9 C36_11 1_555 1_555
O16_9 La2_3 1_555 1_555
C36_11 O16_9 1_555 1_555
O17_5 C18_11 1_555 1_555
O5_9 La4_4 1_555 1_555
O6_9 La4_4 1_555 1_555
N3_8 C13_12 1_555 1_555
C13_12 C14_12 1_555 1_555
C14_12 C15_12 1_555 1_555
C15_12 C16_12 1_555 1_555
C16_12 C17_12 1_555 1_555
C17_12 N3_8 1_555 1_555
C18_12 O5_9 1_555 1_555
H7_12 C13_12 1_555 1_555
H8_12 C14_12 1_555 1_555
H9_12 C16_12 1_555 1_555
Co3 N3_8 1_555 1_555
O15_6 C36_12 1_555 1_555
N8_8 Co3 1_555 1_555
N9_8 Co3_6 1_555 1_555
N10_8 Co3_6 1_555 1_555
C31_12 N8_8 1_555 1_555
C32_12 C31_12 1_555 1_555
C33_12 C32_12 1_555 1_555
C34_12 C33_12 1_555 1_555
C35_12 C17_12 1_555 1_555
C36_12 O17_6 1_555 1_555
H16_12 C31_12 1_555 1_555
H17_12 C32_12 1_555 1_555
H18_12 C34_12 1_555 1_555
O6_9 C18_12 1_555 1_555
C15_12 C18_12 1_555 1_555
N8_8 C35_12 1_555 1_555
C33_12 C36_12 1_555 1_555
C34_12 C35_12 1_555 1_555
O5_10 La2_4 1_555 1_555
O6_10 La2_4 1_555 1_555
C18_13 O5_10 1_555 1_555
H8_13 C14_13 1_555 1_555
O15_7 La2_4 1_555 1_555
O17_7 La2_4 1_555 1_555
O6_10 C18_13 1_555 1_555
N9_6 C13_13 1_555 1_555
C15_13 C16_13 1_555 1_555
C16_13 C17_13 1_555 1_555
C17_13 N9_6 1_555 1_555
H9_13 C16_13 1_555 1_555
La4 O14_10 1_555 1_555
O14_10 C36_13 1_555 1_555
O16_10 La4 1_555 1_555
C31_13 N10_6 1_555 1_555
C32_13 C31_13 1_555 1_555
C33_13 C32_13 1_555 1_555
C34_13 C33_13 1_555 1_555
C35_13 C17_13 1_555 1_555
C36_13 O16_10 1_555 1_555
H16_13 C31_13 1_555 1_555
H17_13 C32_13 1_555 1_555
H18_13 C34_13 1_555 1_555
N10_6 C35_13 1_555 1_555
C33_13 C36_13 1_555 1_555
C34_13 C35_13 1_555 1_555
La2_2 O14_11 1_555 1_555
O14_11 C36_14 1_555 1_555
O16_11 La2_2 1_555 1_555
C36_14 O16_11 1_555 1_555
H17_14 C32_14 1_555 1_555
O5_11 La4_3 1_555 1_555
O6_11 La4_3 1_555 1_555
N9_5 C13_14 1_555 1_555
C13_14 C14_14 1_555 1_555
C14_14 C15_14 1_555 1_555
C15_14 C16_14 1_555 1_555
C16_14 C17_14 1_555 1_555
C17_14 N9_5 1_555 1_555
C18_14 O5_11 1_555 1_555
H7_14 C13_14 1_555 1_555
H8_14 C14_14 1_555 1_555
H9_14 C16_14 1_555 1_555
O15_8 La4_3 1_555 1_555
O17_8 La4_3 1_555 1_555
C31_14 N10_5 1_555 1_555
C34_14 C33_14 1_555 1_555
C35_14 C17_14 1_555 1_555
H18_14 C34_14 1_555 1_555
O6_11 C18_14 1_555 1_555
C15_14 C18_14 1_555 1_555
N10_5 C35_14 1_555 1_555
C34_14 C35_14 1_555 1_555
H8_15 C14_15 1_555 1_555
C18_15 O15_7 1_555 1_555
O17_7 C18_15 1_555 1_555
N10_8 C13_15 1_555 1_555
C15_15 C16_15 1_555 1_555
C16_15 C17_15 1_555 1_555
C17_15 N10_8 1_555 1_555
C31_15 N9_8 1_555 1_555
C32_15 C31_15 1_555 1_555
C33_15 C32_15 1_555 1_555
C34_15 C33_15 1_555 1_555
C35_15 C17_15 1_555 1_555
H16_15 C31_15 1_555 1_555
H17_15 C32_15 1_555 1_555
N9_8 C35_15 1_555 1_555
C34_15 C35_15 1_555 1_555
La4 O14_12 1_555 1_555
O14_12 C36_15 1_555 1_555
O16_12 La4 1_555 1_555
C36_15 O16_12 1_555 1_555
O5_12 La2_2 1_555 1_555
O6_12 La2_2 1_555 1_555
C18_16 O5_12 1_555 1_555
H8_16 C14_16 1_555 1_555
O6_12 C18_16 1_555 1_555
N10_7 C13_16 1_555 1_555
C15_16 C16_16 1_555 1_555
C16_16 C17_16 1_555 1_555
C17_16 N10_7 1_555 1_555
H9_16 C16_16 1_555 1_555
O15_8 C36_16 1_555 1_555
C31_16 N9_7 1_555 1_555
C32_16 C31_16 1_555 1_555
C33_16 C32_16 1_555 1_555
C34_16 C33_16 1_555 1_555
C35_16 C17_16 1_555 1_555
C36_16 O17_8 1_555 1_555
H16_16 C31_16 1_555 1_555
H17_16 C32_16 1_555 1_555
H18_16 C34_16 1_555 1_555
N9_7 C35_16 1_555 1_555
C33_16 C36_16 1_555 1_555
C34_16 C35_16 1_555 1_555
H2_16 C2_16 1_555 1_555
H11_16 C20_16 1_555 1_555

#END
