
###############################################################################
#
# This file contains modified crystal structure data generated from the
# MOF subset of the Cambridge Structural Database (CSD) v543 
# hosted by the Cambridge Crystallographic Data Centre (CCDC).
#
# This work is licensed under the Creative Commons
# Attribution-NonCommercial-ShareAlike 4.0 International License.
# To view a copy of this license, visit
# http://creativecommons.org/licenses/by-nc-sa/4.0/
# or send a letter to
# Creative Commons, PO Box 1866, Mountain View, CA 94042, USA.
#
# CIF created using the CSD Python API on 29 September 2022
# The structure has been converted into the P1 space group
# The structure has a 3D framework
# The original CSD entry IYIHUU is in the monoclinic crystal system
# The framework has been calculated to contain at least 10.0% void space
# The void calculation uses a probe of radius 1.32A, grid spacing 0.4
# H atom positions have been added when not included in the experimental data
#
###############################################################################

data_IYIHUU
_chemical_formula_moiety         '(C52 H26 Br4 N2 O8 Zn2)n'
_symmetry_cell_setting           triclinic
_symmetry_space_group_name_H-M   'P 1'
_symmetry_Int_Tables_number      1
_space_group_name_Hall           'P 1'
loop_
_symmetry_equiv_pos_site_id
_symmetry_equiv_pos_as_xyz
1 x,y,z
_cell_length_a                   11.106(2)
_cell_length_b                   15.916(2)
_cell_length_c                   16.224(3)
_cell_angle_alpha                90
_cell_angle_beta                 101.594(15)
_cell_angle_gamma                90
_cell_volume                     2809.29
loop_
_atom_site_label
_atom_site_type_symbol
_atom_site_fract_x
_atom_site_fract_y
_atom_site_fract_z
C10 C 0.055(3) 0.5000 0.2523(11)
H5 H 0.1321 0.5000 0.2899
C11 C 0.054(2) 0.5000 0.1644(10)
H6 H 0.1311 0.5000 0.1469
Zn3 Zn 0.02696(11) 0.5000 0.59260(8)
O11 O 0.1069(5) 0.4102(3) 0.4351(4)
O12 O 0.1069(5) 0.5898(3) 0.4351(4)
H24 H 0.1444 0.5000 0.0219
N2 N 0.0522(16) 0.5000 0.7121(7)
C45 C 0.0526(19) 0.5000 0.8966(10)
C46 C 0.159(2) 0.5000 0.8630(9)
C47 C 0.154(3) 0.5000 0.7754(9)
H23 H 0.2312 0.5000 0.7582
C48 C 0.067(3) 0.5000 0.9844(11)
C49 C 0.274(3) 0.5000 0.917(3)
C50 C 0.380(4) 0.5000 0.954(6)
H26 H 0.475463 0.5 0.987322
Br1 Br 0.79289(12) -0.0000 0.49640(12)
Zn1 Zn 0.97304(11) 0.5000 0.40740(8)
O1 O 0.8523(5) 0.4096(3) 0.4261(4)
O2 O 0.8931(5) 0.4102(3) 0.5649(4)
N1 N 0.9478(16) 0.5000 0.2879(7)
C1 C 0.8448(7) 0.3833(4) 0.4957(5)
C2 C 0.7606(6) 0.3055(4) 0.4961(5)
C3 C 0.7091(8) 0.2671(5) 0.4222(5)
H1 H 0.7207 0.2902 0.3703
C4 C 0.6406(9) 0.1951(5) 0.4224(6)
H2 H 0.5998 0.1708 0.3708
C5 C 0.6312(6) 0.1581(3) 0.4986(5)
C6 C 0.6840(8) 0.1977(4) 0.5721(5)
H3 H 0.6739 0.1742 0.6241
C7 C 0.7498(8) 0.2687(5) 0.5726(5)
H4 H 0.7886 0.2936 0.6244
C8 C 0.5599(6) 0.0775(4) 0.4969(5)
C9 C 0.6219(10) -0.0000 0.4968(8)
C12 C 0.9474(19) 0.5000 0.1034(10)
C13 C 0.841(2) 0.5000 0.1370(9)
C14 C 0.846(3) 0.5000 0.2246(9)
H7 H 0.7688 0.5000 0.2418
C15 C 0.933(3) 0.5000 0.0156(11)
C16 C 0.726(3) 0.5000 0.083(3)
C17 C 0.620(4) 0.5000 0.046(6)
Br2 Br 0.20711(12) -0.0000 0.50360(12)
O3 O 0.1477(5) 0.4096(3) 0.5739(4)
O6 O 0.8523(5) 0.5904(3) 0.4261(4)
O7 O 0.1477(5) 0.5904(3) 0.5739(4)
C18 C 0.1552(7) 0.3833(4) 0.5043(5)
C21 C 0.2394(6) 0.3055(4) 0.5039(5)
C24 C 0.2909(8) 0.2671(5) 0.5778(5)
H9 H 0.2793 0.2902 0.6297
C27 C 0.3594(9) 0.1951(5) 0.5776(6)
H12 H 0.4002 0.1708 0.6292
C30 C 0.3688(6) 0.1581(3) 0.5014(5)
C33 C 0.3160(8) 0.1977(4) 0.4279(5)
H15 H 0.3261 0.1742 0.3759
C36 C 0.2502(8) 0.2687(5) 0.4274(5)
H18 H 0.2114 0.2936 0.3756
C39 C 0.4401(6) 0.0775(4) 0.5031(5)
C42 C 0.3781(10) -0.0000 0.5032(8)
H25 H 0.524537 0.5 0.0126781
H8 H 0.8556 0.5000 0.9781
C43 C 0.945(3) 0.5000 0.7477(11)
H21 H 0.8679 0.5000 0.7101
C44 C 0.946(2) 0.5000 0.8356(10)
H22 H 0.8689 0.5000 0.8531
Br1_2 Br 0.79289(12) 1.0000 0.49640(12)
C9_2 C 0.6219(10) 1.0000 0.4968(8)
Br2_2 Br 0.20711(12) 1.0000 0.50360(12)
O10 O 0.8931(5) 0.5898(3) 0.5649(4)
C19 C 0.1552(7) 0.6167(4) 0.5043(5)
C20 C 0.8448(7) 0.6167(4) 0.4957(5)
C22 C 0.2394(6) 0.6945(4) 0.5039(5)
C23 C 0.7606(6) 0.6945(4) 0.4961(5)
C25 C 0.2909(8) 0.7329(5) 0.5778(5)
C26 C 0.7091(8) 0.7329(5) 0.4222(5)
H10 H 0.2793 0.7098 0.6297
H11 H 0.7207 0.7098 0.3703
C28 C 0.3594(9) 0.8049(5) 0.5776(6)
C29 C 0.6406(9) 0.8049(5) 0.4224(6)
H13 H 0.4002 0.8292 0.6292
H14 H 0.5998 0.8292 0.3708
C31 C 0.3688(6) 0.8419(3) 0.5014(5)
C32 C 0.6312(6) 0.8419(3) 0.4986(5)
C34 C 0.3160(8) 0.8023(4) 0.4279(5)
C35 C 0.6840(8) 0.8023(4) 0.5721(5)
H16 H 0.3261 0.8258 0.3759
H17 H 0.6739 0.8258 0.6241
C37 C 0.2502(8) 0.7313(5) 0.4274(5)
C38 C 0.7498(8) 0.7313(5) 0.5726(5)
H19 H 0.2114 0.7064 0.3756
H20 H 0.7886 0.7064 0.6244
C40 C 0.4401(6) 0.9225(4) 0.5031(5)
C41 C 0.5599(6) 0.9225(4) 0.4969(5)
C42_2 C 0.3781(10) 1.0000 0.5032(8)
loop_
_geom_bond_atom_site_label_1
_geom_bond_atom_site_label_2
_geom_bond_site_symmetry_1
_geom_bond_site_symmetry_2
H5 C10 1_555 1_555
C11 C10 1_555 1_555
H6 C11 1_555 1_555
Zn3 N2 1_555 1_555
C46 C45 1_555 1_555
C47 N2 1_555 1_555
H23 C47 1_555 1_555
C49 C46 1_555 1_555
C50 C49 1_555 1_555
C45 C48 1_555 1_555
C46 C47 1_555 1_555
C50 H26 1_555 1_555
Br1 C9 1_555 1_555
Zn1 O1 1_555 1_555
O1 C1 1_555 1_555
O2 C1 1_555 1_555
N1 Zn1 1_555 1_555
C1 C2 1_555 1_555
C2 C3 1_555 1_555
C3 H1 1_555 1_555
C4 C3 1_555 1_555
H2 C4 1_555 1_555
C5 C4 1_555 1_555
C6 C5 1_555 1_555
H3 C6 1_555 1_555
C7 C2 1_555 1_555
H4 C7 1_555 1_555
C8 C5 1_555 1_555
C9 C8 1_555 1_555
C13 C12 1_555 1_555
C14 N1 1_555 1_555
H7 C14 1_555 1_555
C15 C12 1_555 1_555
C16 C13 1_555 1_555
C17 C16 1_555 1_555
Br2 C42 1_555 1_555
Zn3 O3 1_555 1_555
O3 C18 1_555 1_555
O6 Zn1 1_555 1_555
O7 Zn3 1_555 1_555
O11 C18 1_555 1_555
C18 C21 1_555 1_555
C21 C24 1_555 1_555
C24 H9 1_555 1_555
C27 C24 1_555 1_555
H12 C27 1_555 1_555
C30 C27 1_555 1_555
C33 C30 1_555 1_555
H15 C33 1_555 1_555
C36 C21 1_555 1_555
H18 C36 1_555 1_555
C39 C8 1_555 1_555
C42 C39 1_555 1_555
C6 C7 1_555 1_555
C13 C14 1_555 1_555
C30 C39 1_555 1_555
C33 C36 1_555 1_555
C17 H25 1_555 1_555
C43 H21 1_555 1_555
C44 C43 1_555 1_555
H22 C44 1_555 1_555
Br1_2 C9_2 1_555 1_555
Br2_2 C42_2 1_555 1_555
O7 C19 1_555 1_555
O6 C20 1_555 1_555
O12 C19 1_555 1_555
O10 C20 1_555 1_555
C19 C22 1_555 1_555
C20 C23 1_555 1_555
C22 C25 1_555 1_555
C23 C26 1_555 1_555
C25 H10 1_555 1_555
C26 H11 1_555 1_555
C28 C25 1_555 1_555
C29 C26 1_555 1_555
H13 C28 1_555 1_555
H14 C29 1_555 1_555
C31 C28 1_555 1_555
C32 C29 1_555 1_555
C34 C31 1_555 1_555
C35 C32 1_555 1_555
H16 C34 1_555 1_555
H17 C35 1_555 1_555
C37 C22 1_555 1_555
C38 C23 1_555 1_555
H19 C37 1_555 1_555
H20 C38 1_555 1_555
C40 C31 1_555 1_555
C41 C9_2 1_555 1_555
C32 C41 1_555 1_555
C34 C37 1_555 1_555
C35 C38 1_555 1_555
C40 C41 1_555 1_555
C40 C42_2 1_555 1_555

#END
