
###############################################################################
#
# This file contains modified crystal structure data generated from the
# MOF subset of the Cambridge Structural Database (CSD) v543 
# hosted by the Cambridge Crystallographic Data Centre (CCDC).
#
# This work is licensed under the Creative Commons
# Attribution-NonCommercial-ShareAlike 4.0 International License.
# To view a copy of this license, visit
# http://creativecommons.org/licenses/by-nc-sa/4.0/
# or send a letter to
# Creative Commons, PO Box 1866, Mountain View, CA 94042, USA.
#
# CIF created using the CSD Python API on 29 September 2022
# The structure has been converted into the P1 space group
# The structure has a 3D framework
# The original CSD entry IYOBAA is in the monoclinic crystal system
# The framework has been calculated to contain at least 10.0% void space
# The void calculation uses a probe of radius 1.32A, grid spacing 0.4
#
###############################################################################

data_IYOBAA
_chemical_formula_moiety         '(C216 H168 Br8 Cu24 N56 O8 S24 W8)n'
_symmetry_cell_setting           triclinic
_symmetry_space_group_name_H-M   'P 1'
_symmetry_Int_Tables_number      1
_space_group_name_Hall           'P 1'
loop_
_symmetry_equiv_pos_site_id
_symmetry_equiv_pos_as_xyz
1 x,y,z
_cell_length_a                   37.3848(11)
_cell_length_b                   9.3228(13)
_cell_length_c                   30.230(2)
_cell_angle_alpha                90
_cell_angle_beta                 128.195(3)
_cell_angle_gamma                90
_cell_volume                     8280.43
loop_
_atom_site_label
_atom_site_type_symbol
_atom_site_fract_x
_atom_site_fract_y
_atom_site_fract_z
C9 C 0.1641(2) 0.1402(7) 0.4672(3)
H7 H 0.1719 0.2108 0.4935
C10 C 0.1368(2) 0.0355(7) 0.3891(3)
H8 H 0.1221 0.0202 0.3510
H11 H 0.1781 0.0718 0.5667
N1 N 0.1423(2) 0.1668(6) 0.4132(2)
O1 O 0.06705(16) 0.7260(5) 0.3300(2)
Cu1 Cu 0.10688(3) 0.48494(9) 0.45871(4)
Cu2 Cu 0.13791(3) 0.35884(9) 0.37414(4)
Cu3 Cu 0.02557(3) 0.32812(9) 0.32316(4)
S1 S 0.15182(6) 0.53778(19) 0.43488(9)
S2 S 0.06565(6) 0.39502(19) 0.29339(9)
S3 S 0.03387(6) 0.50208(19) 0.38162(9)
W1 W 0.078280(10) 0.55725(3) 0.357180(15)
Br1 Br 0.12970(2) 0.42437(7) 0.54511(3)
N8 N 0.18450(19) 0.3024(6) 0.3663(2)
C1 C 0.3168(2) 0.6904(7) 0.7163(3)
C2 C 0.3747(2) 0.5159(8) 0.7763(3)
H1 H 0.3847 0.4358 0.7995
C3 C 0.3326(2) 0.5748(8) 0.7525(3)
H2 H 0.3146 0.5363 0.7610
C4 C 0.34546(19) 0.7547(7) 0.7071(3)
H3 H 0.3367 0.8387 0.6861
C5 C 0.4016(2) 0.5782(7) 0.7649(3)
C6 C 0.3864(2) 0.6931(7) 0.7291(3)
H4 H 0.4041 0.7293 0.7199
C7 C 0.4553(2) 0.3766(7) 0.7940(3)
H5 H 0.4352 0.3036 0.7863
C8 C 0.5141(2) 0.4869(8) 0.8151(3)
H6 H 0.5424 0.5049 0.8242
C11 C 0.1555(3) 0.9319(7) 0.4286(3)
H9 H 0.1561 0.8343 0.4228
C12 C 0.1974(2) 0.9317(6) 0.5330(3)
C13 C 0.2233(3) 0.8135(8) 0.5448(3)
H10 H 0.2264 0.7791 0.5184
C14 C 0.1961(2) 0.9920(6) 0.5745(3)
C15 C 0.2226(2) 0.9293(6) 0.6281(3)
H12 H 0.2232 0.9715 0.6564
C16 C 0.2446(2) 0.7457(6) 0.5951(3)
H13 H 0.2576 0.6561 0.5999
C17 C 0.2479(2) 0.8060(7) 0.6401(3)
C18 C 0.2589(2) 0.7520(7) 0.7270(3)
C19 C 0.2225(3) 0.7859(8) 0.9053(4)
H14 H 0.2315 0.8154 0.9402
C20 C 0.18556(19) 0.6829(6) 0.8240(3)
H15 H 0.1644 0.6282 0.7924
C21 C 0.2437(3) 0.8201(9) 0.8826(3)
H16 H 0.2694 0.8774 0.8992
C22 C 0.2320(2) 0.7551(6) 0.7947(3)
C23 C 0.2026(2) 0.7098(8) 0.7397(3)
H17 H 0.1738 0.6775 0.7255
C24 C 0.2753(3) 0.7987(8) 0.8161(3)
H18 H 0.2959 0.8267 0.8535
C25 C 0.2879(3) 0.8006(8) 0.7819(4)
H19 H 0.3165 0.8353 0.7960
C26 C 0.2151(2) 0.7112(7) 0.7042(3)
H20 H 0.1945 0.6853 0.6665
C27 C 0.4835(2) 0.5865(8) 0.8018(3)
H21 H 0.4870 0.6854 0.8021
N2 N 0.17404(19) 0.9987(5) 0.4804(2)
N3 N 0.27305(17) 0.7448(6) 0.6924(2)
N4 N 0.18450(19) 0.6976(6) 0.8663(2)
N5 N 0.22012(17) 0.7542(6) 0.8305(2)
N6 N 0.49825(18) 0.3569(6) 0.8134(3)
N7 N 0.44573(19) 0.5139(6) 0.7877(2)
Cu4 Cu 0.13791(3) 0.64116(9) 0.87414(4)
Cu5 Cu 0.52557(3) 0.17188(9) 0.82316(4)
C8_2 C 0.0141(2) 0.9869(8) 0.8151(3)
Cu5_2 Cu 0.02557(3) 0.67188(9) 0.82316(4)
C1_2 C 0.8168(2) 0.1904(7) 0.7163(3)
C2_2 C 0.8747(2) 0.0159(8) 0.7763(3)
C3_2 C 0.8326(2) 0.0748(8) 0.7525(3)
H2_2 H 0.8146 0.0363 0.7610
C4_2 C 0.84546(19) 0.2547(7) 0.7071(3)
H3_2 H 0.8367 0.3387 0.6861
C5_2 C 0.9016(2) 0.0782(7) 0.7649(3)
C6_2 C 0.8864(2) 0.1931(7) 0.7291(3)
H4_2 H 0.9041 0.2293 0.7199
C9_2 C 0.6641(2) 0.6402(7) 0.4672(3)
H7_2 H 0.6719 0.7108 0.4935
C10_2 C 0.6368(2) 0.5355(7) 0.3891(3)
H8_2 H 0.6221 0.5202 0.3510
C11_2 C 0.6555(3) 0.4319(7) 0.4286(3)
H9_2 H 0.6561 0.3343 0.4228
C12_2 C 0.6974(2) 0.4317(6) 0.5330(3)
C13_2 C 0.7233(3) 0.3135(8) 0.5448(3)
H10_2 H 0.7264 0.2791 0.5184
C14_2 C 0.6961(2) 0.4920(6) 0.5745(3)
H11_2 H 0.6781 0.5718 0.5667
C15_2 C 0.7226(2) 0.4293(6) 0.6281(3)
H12_2 H 0.7232 0.4715 0.6564
C16_2 C 0.7446(2) 0.2457(6) 0.5951(3)
H13_2 H 0.7576 0.1561 0.5999
C17_2 C 0.7479(2) 0.3060(7) 0.6401(3)
C18_2 C 0.7589(2) 0.2520(7) 0.7270(3)
C19_2 C 0.7225(3) 0.2859(8) 0.9053(4)
H14_2 H 0.7315 0.3154 0.9402
C20_2 C 0.68556(19) 0.1829(6) 0.8240(3)
H15_2 H 0.6644 0.1282 0.7924
C21_2 C 0.7437(3) 0.3201(9) 0.8826(3)
H16_2 H 0.7694 0.3774 0.8992
C22_2 C 0.7320(2) 0.2551(6) 0.7947(3)
C23_2 C 0.7026(2) 0.2098(8) 0.7397(3)
H17_2 H 0.6738 0.1775 0.7255
C24_2 C 0.7753(3) 0.2987(8) 0.8161(3)
H18_2 H 0.7959 0.3267 0.8535
C25_2 C 0.7879(3) 0.3006(8) 0.7819(4)
H19_2 H 0.8165 0.3353 0.7960
C26_2 C 0.7151(2) 0.2112(7) 0.7042(3)
H20_2 H 0.6945 0.1853 0.6665
C27_2 C 0.9835(2) 0.0865(8) 0.8018(3)
H21_2 H 0.9870 0.1854 0.8021
N1_2 N 0.6423(2) 0.6668(6) 0.4132(2)
N2_2 N 0.67404(19) 0.4987(5) 0.4804(2)
N3_2 N 0.77305(17) 0.2448(6) 0.6924(2)
N4_2 N 0.68450(19) 0.1976(6) 0.8663(2)
N5_2 N 0.72012(17) 0.2542(6) 0.8305(2)
N7_2 N 0.94573(19) 0.0139(6) 0.7877(2)
Cu1_2 Cu 0.60688(3) 0.98494(9) 0.45871(4)
Cu2_2 Cu 0.63791(3) 0.85884(9) 0.37414(4)
Cu3_2 Cu 0.52557(3) 0.82812(9) 0.32316(4)
S2_2 S 0.56565(6) 0.89502(19) 0.29339(9)
Br1_2 Br 0.62970(2) 0.92437(7) 0.54511(3)
N8_2 N 0.68450(19) 0.8024(6) 0.3663(2)
N9 N 0.49825(18) 0.6431(6) 0.3134(3)
Cu4_2 Cu 0.63791(3) 0.14116(9) 0.87414(4)
C1_3 C 0.3168(2) 0.3096(7) 0.2163(3)
C2_3 C 0.3747(2) 0.4841(8) 0.2763(3)
H1_2 H 0.3847 0.5642 0.2995
C3_3 C 0.3326(2) 0.4252(8) 0.2525(3)
H2_3 H 0.3146 0.4637 0.2610
C4_3 C 0.34546(19) 0.2453(7) 0.2071(3)
H3_3 H 0.3367 0.1613 0.1861
C5_3 C 0.4016(2) 0.4218(7) 0.2649(3)
C6_3 C 0.3864(2) 0.3069(7) 0.2291(3)
H4_3 H 0.4041 0.2707 0.2199
C7_2 C 0.4553(2) 0.6234(7) 0.2940(3)
H5_2 H 0.4352 0.6964 0.2863
C8_3 C 0.5141(2) 0.5131(8) 0.3151(3)
H6_2 H 0.5424 0.4951 0.3242
C12_3 C 0.1974(2) 0.0683(6) 0.0330(3)
C13_3 C 0.2233(3) 0.1865(8) 0.0448(3)
H10_3 H 0.2264 0.2209 0.0184
C14_3 C 0.1961(2) 0.0080(6) 0.0745(3)
C15_3 C 0.2226(2) 0.0707(6) 0.1281(3)
H12_3 H 0.2232 0.0285 0.1564
C16_3 C 0.2446(2) 0.2543(6) 0.0951(3)
H13_3 H 0.2576 0.3439 0.0999
C17_3 C 0.2479(2) 0.1940(7) 0.1401(3)
C18_3 C 0.2589(2) 0.2480(7) 0.2270(3)
C19_3 C 0.2225(3) 0.2141(8) 0.4053(4)
H14_3 H 0.2315 0.1846 0.4402
C20_3 C 0.18556(19) 0.3171(6) 0.3240(3)
H15_3 H 0.1644 0.3718 0.2924
C21_3 C 0.2437(3) 0.1799(9) 0.3826(3)
H16_3 H 0.2694 0.1226 0.3992
C22_3 C 0.2320(2) 0.2449(6) 0.2947(3)
C23_3 C 0.2026(2) 0.2902(8) 0.2397(3)
H17_3 H 0.1738 0.3225 0.2255
C24_3 C 0.2753(3) 0.2013(8) 0.3161(3)
H18_3 H 0.2959 0.1733 0.3535
C25_3 C 0.2879(3) 0.1994(8) 0.2819(4)
H19_3 H 0.3165 0.1647 0.2960
C26_3 C 0.2151(2) 0.2888(7) 0.2042(3)
H20_3 H 0.1945 0.3147 0.1665
C27_3 C 0.4835(2) 0.4135(8) 0.3018(3)
H21_3 H 0.4870 0.3146 0.3021
N3_3 N 0.27305(17) 0.2552(6) 0.1924(2)
N5_3 N 0.22012(17) 0.2458(6) 0.3305(2)
N7_3 N 0.44573(19) 0.4861(6) 0.2877(2)
C9_3 C 0.1641(2) 0.8598(7) 0.9672(3)
H7_3 H 0.1719 0.7892 0.9935
C10_3 C 0.1368(2) 0.9645(7) 0.8891(3)
H8_3 H 0.1221 0.9798 0.8510
N1_3 N 0.1423(2) 0.8332(6) 0.9132(2)
O1_2 O 0.06705(16) 0.2740(5) 0.8300(2)
Cu1_3 Cu 0.10688(3) 0.51506(9) 0.95871(4)
S1_2 S 0.15182(6) 0.46222(19) 0.93488(9)
S2_3 S 0.06565(6) 0.60498(19) 0.79339(9)
S3_2 S 0.03387(6) 0.49792(19) 0.88162(9)
W1_2 W 0.078280(10) 0.44275(3) 0.857180(15)
C8_4 C 0.0141(2) 0.0131(8) 0.3151(3)
C1_4 C 0.8168(2) 0.8096(7) 0.2163(3)
C2_4 C 0.8747(2) 0.9841(8) 0.2763(3)
C3_4 C 0.8326(2) 0.9252(8) 0.2525(3)
H2_4 H 0.8146 0.9637 0.2610
C4_4 C 0.84546(19) 0.7453(7) 0.2071(3)
H3_4 H 0.8367 0.6613 0.1861
C5_4 C 0.9016(2) 0.9218(7) 0.2649(3)
C6_4 C 0.8864(2) 0.8069(7) 0.2291(3)
H4_4 H 0.9041 0.7707 0.2199
C12_4 C 0.6974(2) 0.5683(6) 0.0330(3)
C13_4 C 0.7233(3) 0.6865(8) 0.0448(3)
H10_4 H 0.7264 0.7209 0.0184
C14_4 C 0.6961(2) 0.5080(6) 0.0745(3)
H11_3 H 0.6781 0.4282 0.0667
C15_4 C 0.7226(2) 0.5707(6) 0.1281(3)
H12_4 H 0.7232 0.5285 0.1564
C16_4 C 0.7446(2) 0.7543(6) 0.0951(3)
H13_4 H 0.7576 0.8439 0.0999
C17_4 C 0.7479(2) 0.6940(7) 0.1401(3)
C18_4 C 0.7589(2) 0.7480(7) 0.2270(3)
C19_4 C 0.7225(3) 0.7141(8) 0.4053(4)
H14_4 H 0.7315 0.6846 0.4402
C20_4 C 0.68556(19) 0.8171(6) 0.3240(3)
H15_4 H 0.6644 0.8718 0.2924
C21_4 C 0.7437(3) 0.6799(9) 0.3826(3)
H16_4 H 0.7694 0.6226 0.3992
C22_4 C 0.7320(2) 0.7449(6) 0.2947(3)
C23_4 C 0.7026(2) 0.7902(8) 0.2397(3)
H17_4 H 0.6738 0.8225 0.2255
C24_4 C 0.7753(3) 0.7013(8) 0.3161(3)
H18_4 H 0.7959 0.6733 0.3535
C25_4 C 0.7879(3) 0.6994(8) 0.2819(4)
H19_4 H 0.8165 0.6647 0.2960
C26_4 C 0.7151(2) 0.7888(7) 0.2042(3)
H20_4 H 0.6945 0.8147 0.1665
C27_4 C 0.9835(2) 0.9135(8) 0.3018(3)
H21_4 H 0.9870 0.8146 0.3021
N3_4 N 0.77305(17) 0.7552(6) 0.1924(2)
N5_4 N 0.72012(17) 0.7458(6) 0.3305(2)
N7_4 N 0.94573(19) 0.9861(6) 0.2877(2)
Br1_3 Br 0.62970(2) 0.07563(7) 0.04511(3)
C9_4 C 0.6641(2) 0.3598(7) 0.9672(3)
H7_4 H 0.6719 0.2892 0.9935
C10_4 C 0.6368(2) 0.4645(7) 0.8891(3)
H8_4 H 0.6221 0.4798 0.8510
C11_3 C 0.6555(3) 0.5681(7) 0.9286(3)
H9_3 H 0.6561 0.6657 0.9228
N1_4 N 0.6423(2) 0.3332(6) 0.9132(2)
N2_3 N 0.67404(19) 0.5013(5) 0.9804(2)
Cu1_4 Cu 0.60688(3) 0.01506(9) 0.95871(4)
S2_4 S 0.56565(6) 0.10498(19) 0.79339(9)
N9_2 N 0.99825(18) 0.1431(6) 0.3134(3)
H1_3 H 0.8847 0.0642 0.2995
C7_3 C 0.9553(2) 0.1234(7) 0.2940(3)
H5_3 H 0.9352 0.1964 0.2863
N9_3 N 0.00175(18) 0.1431(6) 0.1866(3)
H1_4 H 0.1153 0.0642 0.2005
C7_4 C 0.0447(2) 0.1234(7) 0.2060(3)
H5_4 H 0.0648 0.1964 0.2137
C9_5 C 0.8359(2) 0.1402(7) 0.0328(3)
H7_5 H 0.8281 0.2108 0.0065
C10_5 C 0.8632(2) 0.0355(7) 0.1109(3)
H8_5 H 0.8779 0.0202 0.1490
N1_5 N 0.8577(2) 0.1668(6) 0.0868(2)
O1_3 O 0.93295(16) 0.7260(5) 0.1700(2)
Cu1_5 Cu 0.89312(3) 0.48494(9) 0.04129(4)
Cu2_3 Cu 0.86209(3) 0.35884(9) 0.12586(4)
Cu3_3 Cu 0.97443(3) 0.32812(9) 0.17684(4)
S1_3 S 0.84818(6) 0.53778(19) 0.06512(9)
S2_5 S 0.93435(6) 0.39502(19) 0.20661(9)
S3_3 S 0.96613(6) 0.50208(19) 0.11838(9)
W1_3 W 0.921720(10) 0.55725(3) 0.142820(15)
N8_3 N 0.81550(19) 0.3024(6) 0.1337(2)
C1_5 C 0.6832(2) 0.6904(7) 0.7837(3)
C2_5 C 0.6253(2) 0.5159(8) 0.7237(3)
H1_5 H 0.6153 0.4358 0.7005
C3_5 C 0.6674(2) 0.5748(8) 0.7475(3)
H2_5 H 0.6854 0.5363 0.7390
C4_5 C 0.65454(19) 0.7547(7) 0.7929(3)
H3_5 H 0.6633 0.8387 0.8139
C5_5 C 0.5984(2) 0.5782(7) 0.7351(3)
C6_5 C 0.6136(2) 0.6931(7) 0.7709(3)
H4_5 H 0.5959 0.7293 0.7801
C7_5 C 0.5447(2) 0.3766(7) 0.7060(3)
H5_5 H 0.5648 0.3036 0.7137
C8_5 C 0.4859(2) 0.4869(8) 0.6849(3)
H6_3 H 0.4576 0.5049 0.6758
C12_5 C 0.8026(2) 0.9317(6) 0.9670(3)
C13_5 C 0.7767(3) 0.8135(8) 0.9552(3)
H10_5 H 0.7736 0.7791 0.9816
C14_5 C 0.8039(2) 0.9920(6) 0.9255(3)
C15_5 C 0.7774(2) 0.9293(6) 0.8719(3)
H12_5 H 0.7768 0.9715 0.8436
C16_5 C 0.7554(2) 0.7457(6) 0.9049(3)
H13_5 H 0.7424 0.6561 0.9001
C17_5 C 0.7521(2) 0.8060(7) 0.8599(3)
C18_5 C 0.7411(2) 0.7520(7) 0.7730(3)
C19_5 C 0.7775(3) 0.7859(8) 0.5947(4)
H14_5 H 0.7685 0.8154 0.5598
C20_5 C 0.81444(19) 0.6829(6) 0.6760(3)
H15_5 H 0.8356 0.6282 0.7076
C21_5 C 0.7563(3) 0.8201(9) 0.6174(3)
H16_5 H 0.7306 0.8774 0.6008
C22_5 C 0.7680(2) 0.7551(6) 0.7053(3)
C23_5 C 0.7974(2) 0.7098(8) 0.7603(3)
H17_5 H 0.8262 0.6775 0.7745
C24_5 C 0.7247(3) 0.7987(8) 0.6839(3)
H18_5 H 0.7041 0.8267 0.6465
C25_5 C 0.7121(3) 0.8006(8) 0.7181(4)
H19_5 H 0.6835 0.8353 0.7040
C26_5 C 0.7849(2) 0.7112(7) 0.7958(3)
H20_5 H 0.8055 0.6853 0.8335
C27_5 C 0.5165(2) 0.5865(8) 0.6982(3)
H21_5 H 0.5130 0.6854 0.6979
N3_5 N 0.72695(17) 0.7448(6) 0.8076(2)
N4_3 N 0.81550(19) 0.6976(6) 0.6337(2)
N5_5 N 0.77988(17) 0.7542(6) 0.6695(2)
N6_2 N 0.50175(18) 0.3569(6) 0.6866(3)
N7_5 N 0.55427(19) 0.5139(6) 0.7123(2)
Cu4_3 Cu 0.86209(3) 0.64116(9) 0.62586(4)
Cu5_3 Cu 0.47443(3) 0.17188(9) 0.67684(4)
C9_6 C 0.3359(2) 0.6402(7) 0.0328(3)
H7_6 H 0.3281 0.7108 0.0065
C10_6 C 0.3632(2) 0.5355(7) 0.1109(3)
H8_6 H 0.3779 0.5202 0.1490
C11_4 C 0.3445(3) 0.4319(7) 0.0714(3)
H9_4 H 0.3439 0.3343 0.0772
N1_6 N 0.3577(2) 0.6668(6) 0.0868(2)
N2_4 N 0.32596(19) 0.4987(5) 0.0196(2)
Cu1_6 Cu 0.39312(3) 0.98494(9) 0.04129(4)
Cu2_4 Cu 0.36209(3) 0.85884(9) 0.12586(4)
Cu3_4 Cu 0.47443(3) 0.82812(9) 0.17684(4)
S2_6 S 0.43435(6) 0.89502(19) 0.20661(9)
N8_4 N 0.31550(19) 0.8024(6) 0.1337(2)
N9_4 N 0.50175(18) 0.6431(6) 0.1866(3)
C1_6 C 0.1832(2) 0.1904(7) 0.7837(3)
C2_6 C 0.1253(2) 0.0159(8) 0.7237(3)
C3_6 C 0.1674(2) 0.0748(8) 0.7475(3)
H2_6 H 0.1854 0.0363 0.7390
C4_6 C 0.15454(19) 0.2547(7) 0.7929(3)
H3_6 H 0.1633 0.3387 0.8139
C5_6 C 0.0984(2) 0.0782(7) 0.7351(3)
C6_6 C 0.1136(2) 0.1931(7) 0.7709(3)
H4_6 H 0.0959 0.2293 0.7801
C12_6 C 0.3026(2) 0.4317(6) 0.9670(3)
C13_6 C 0.2767(3) 0.3135(8) 0.9552(3)
H10_6 H 0.2736 0.2791 0.9816
C14_6 C 0.3039(2) 0.4920(6) 0.9255(3)
H11_4 H 0.3219 0.5718 0.9333
C15_6 C 0.2774(2) 0.4293(6) 0.8719(3)
H12_6 H 0.2768 0.4715 0.8436
C16_6 C 0.2554(2) 0.2457(6) 0.9049(3)
H13_6 H 0.2424 0.1561 0.9001
C17_6 C 0.2521(2) 0.3060(7) 0.8599(3)
C18_6 C 0.2411(2) 0.2520(7) 0.7730(3)
C19_6 C 0.2775(3) 0.2859(8) 0.5947(4)
H14_6 H 0.2685 0.3154 0.5598
C20_6 C 0.31444(19) 0.1829(6) 0.6760(3)
H15_6 H 0.3356 0.1282 0.7076
C21_6 C 0.2563(3) 0.3201(9) 0.6174(3)
H16_6 H 0.2306 0.3774 0.6008
C22_6 C 0.2680(2) 0.2551(6) 0.7053(3)
C23_6 C 0.2974(2) 0.2098(8) 0.7603(3)
H17_6 H 0.3262 0.1775 0.7745
C24_6 C 0.2247(3) 0.2987(8) 0.6839(3)
H18_6 H 0.2041 0.3267 0.6465
C25_6 C 0.2121(3) 0.3006(8) 0.7181(4)
H19_6 H 0.1835 0.3353 0.7040
C26_6 C 0.2849(2) 0.2112(7) 0.7958(3)
H20_6 H 0.3055 0.1853 0.8335
C27_6 C 0.0165(2) 0.0865(8) 0.6982(3)
H21_6 H 0.0130 0.1854 0.6979
N3_6 N 0.22695(17) 0.2448(6) 0.8076(2)
N4_4 N 0.31550(19) 0.1976(6) 0.6337(2)
N5_6 N 0.27988(17) 0.2542(6) 0.6695(2)
N7_6 N 0.05427(19) 0.0139(6) 0.7123(2)
Br1_4 Br 0.37030(2) 0.92437(7) 0.95489(3)
Cu4_4 Cu 0.36209(3) 0.14116(9) 0.62586(4)
C8_6 C 0.9859(2) 0.9869(8) 0.6849(3)
Cu5_4 Cu 0.97443(3) 0.67188(9) 0.67684(4)
C1_7 C 0.6832(2) 0.3096(7) 0.2837(3)
C2_7 C 0.6253(2) 0.4841(8) 0.2237(3)
H1_6 H 0.6153 0.5642 0.2005
C3_7 C 0.6674(2) 0.4252(8) 0.2475(3)
H2_7 H 0.6854 0.4637 0.2390
C4_7 C 0.65454(19) 0.2453(7) 0.2929(3)
H3_7 H 0.6633 0.1613 0.3139
C5_7 C 0.5984(2) 0.4218(7) 0.2351(3)
C6_7 C 0.6136(2) 0.3069(7) 0.2709(3)
H4_7 H 0.5959 0.2707 0.2801
C7_6 C 0.5447(2) 0.6234(7) 0.2060(3)
H5_6 H 0.5648 0.6964 0.2137
C8_7 C 0.4859(2) 0.5131(8) 0.1849(3)
H6_4 H 0.4576 0.4951 0.1758
C11_5 C 0.8445(3) 0.0681(7) 0.5714(3)
H9_5 H 0.8439 0.1657 0.5772
C12_7 C 0.8026(2) 0.0683(6) 0.4670(3)
C13_7 C 0.7767(3) 0.1865(8) 0.4552(3)
H10_7 H 0.7736 0.2209 0.4816
C14_7 C 0.8039(2) 0.0080(6) 0.4255(3)
C15_7 C 0.7774(2) 0.0707(6) 0.3719(3)
H12_7 H 0.7768 0.0285 0.3436
C16_7 C 0.7554(2) 0.2543(6) 0.4049(3)
H13_7 H 0.7424 0.3439 0.4001
C17_7 C 0.7521(2) 0.1940(7) 0.3599(3)
C18_7 C 0.7411(2) 0.2480(7) 0.2730(3)
C19_7 C 0.7775(3) 0.2141(8) 0.0947(4)
H14_7 H 0.7685 0.1846 0.0598
C20_7 C 0.81444(19) 0.3171(6) 0.1760(3)
H15_7 H 0.8356 0.3718 0.2076
C21_7 C 0.7563(3) 0.1799(9) 0.1174(3)
H16_7 H 0.7306 0.1226 0.1008
C22_7 C 0.7680(2) 0.2449(6) 0.2053(3)
C23_7 C 0.7974(2) 0.2902(8) 0.2603(3)
H17_7 H 0.8262 0.3225 0.2745
C24_7 C 0.7247(3) 0.2013(8) 0.1839(3)
H18_7 H 0.7041 0.1733 0.1465
C25_7 C 0.7121(3) 0.1994(8) 0.2181(4)
H19_7 H 0.6835 0.1647 0.2040
C26_7 C 0.7849(2) 0.2888(7) 0.2958(3)
H20_7 H 0.8055 0.3147 0.3335
C27_7 C 0.5165(2) 0.4135(8) 0.1982(3)
H21_7 H 0.5130 0.3146 0.1979
N2_5 N 0.82596(19) 0.0013(5) 0.5196(2)
N3_7 N 0.72695(17) 0.2552(6) 0.3076(2)
N5_7 N 0.77988(17) 0.2458(6) 0.1695(2)
N7_7 N 0.55427(19) 0.4861(6) 0.2123(2)
C9_7 C 0.8359(2) 0.8598(7) 0.5328(3)
H7_7 H 0.8281 0.7892 0.5065
C10_7 C 0.8632(2) 0.9645(7) 0.6109(3)
H8_7 H 0.8779 0.9798 0.6490
H11_5 H 0.8219 0.9282 0.4333
N1_7 N 0.8577(2) 0.8332(6) 0.5868(2)
O1_4 O 0.93295(16) 0.2740(5) 0.6700(2)
Cu1_7 Cu 0.89312(3) 0.51506(9) 0.54129(4)
S1_4 S 0.84818(6) 0.46222(19) 0.56512(9)
S2_7 S 0.93435(6) 0.60498(19) 0.70661(9)
S3_4 S 0.96613(6) 0.49792(19) 0.61838(9)
W1_4 W 0.921720(10) 0.44275(3) 0.642820(15)
Br1_5 Br 0.87030(2) 0.57563(7) 0.45489(3)
C1_8 C 0.1832(2) 0.8096(7) 0.2837(3)
C2_8 C 0.1253(2) 0.9841(8) 0.2237(3)
C3_8 C 0.1674(2) 0.9252(8) 0.2475(3)
H2_8 H 0.1854 0.9637 0.2390
C4_8 C 0.15454(19) 0.7453(7) 0.2929(3)
H3_8 H 0.1633 0.6613 0.3139
C5_8 C 0.0984(2) 0.9218(7) 0.2351(3)
C6_8 C 0.1136(2) 0.8069(7) 0.2709(3)
H4_8 H 0.0959 0.7707 0.2801
C9_8 C 0.3359(2) 0.3598(7) 0.5328(3)
H7_8 H 0.3281 0.2892 0.5065
C10_8 C 0.3632(2) 0.4645(7) 0.6109(3)
H8_8 H 0.3779 0.4798 0.6490
C11_6 C 0.3445(3) 0.5681(7) 0.5714(3)
H9_6 H 0.3439 0.6657 0.5772
C12_8 C 0.3026(2) 0.5683(6) 0.4670(3)
C13_8 C 0.2767(3) 0.6865(8) 0.4552(3)
H10_8 H 0.2736 0.7209 0.4816
C14_8 C 0.3039(2) 0.5080(6) 0.4255(3)
H11_6 H 0.3219 0.4282 0.4333
C15_8 C 0.2774(2) 0.5707(6) 0.3719(3)
H12_8 H 0.2768 0.5285 0.3436
C16_8 C 0.2554(2) 0.7543(6) 0.4049(3)
H13_8 H 0.2424 0.8439 0.4001
C17_8 C 0.2521(2) 0.6940(7) 0.3599(3)
C18_8 C 0.2411(2) 0.7480(7) 0.2730(3)
C19_8 C 0.2775(3) 0.7141(8) 0.0947(4)
H14_8 H 0.2685 0.6846 0.0598
C20_8 C 0.31444(19) 0.8171(6) 0.1760(3)
H15_8 H 0.3356 0.8718 0.2076
C21_8 C 0.2563(3) 0.6799(9) 0.1174(3)
H16_8 H 0.2306 0.6226 0.1008
C22_8 C 0.2680(2) 0.7449(6) 0.2053(3)
C23_8 C 0.2974(2) 0.7902(8) 0.2603(3)
H17_8 H 0.3262 0.8225 0.2745
C24_8 C 0.2247(3) 0.7013(8) 0.1839(3)
H18_8 H 0.2041 0.6733 0.1465
C25_8 C 0.2121(3) 0.6994(8) 0.2181(4)
H19_8 H 0.1835 0.6647 0.2040
C26_8 C 0.2849(2) 0.7888(7) 0.2958(3)
H20_8 H 0.3055 0.8147 0.3335
C27_8 C 0.0165(2) 0.9135(8) 0.1982(3)
H21_8 H 0.0130 0.8146 0.1979
N1_8 N 0.3577(2) 0.3332(6) 0.5868(2)
N2_6 N 0.32596(19) 0.5013(5) 0.5196(2)
N3_8 N 0.22695(17) 0.7552(6) 0.3076(2)
N5_8 N 0.27988(17) 0.7458(6) 0.1695(2)
N7_8 N 0.05427(19) 0.9861(6) 0.2123(2)
Cu1_8 Cu 0.39312(3) 0.01506(9) 0.54129(4)
S2_8 S 0.43435(6) 0.10498(19) 0.70661(9)
Br1_6 Br 0.37030(2) 0.07563(7) 0.45489(3)
C8_8 C 0.9859(2) 0.0131(8) 0.1849(3)
H11_7 H 0.8219 0.0718 0.9333
Br1_7 Br 0.87030(2) 0.42437(7) 0.95489(3)
C11_7 C 0.8445(3) 0.9319(7) 0.0714(3)
H9_7 H 0.8439 0.8343 0.0772
N2_7 N 0.82596(19) 0.9987(5) 0.0196(2)
H6_5 H 0.0424 0.0049 0.8242
O1_5 O 0.56705(16) 0.2260(5) 0.3300(2)
S1_5 S 0.65182(6) 0.03778(19) 0.43488(9)
S3_5 S 0.53387(6) 0.00208(19) 0.38162(9)
W1_5 W 0.578280(10) 0.05725(3) 0.357180(15)
H1_7 H 0.8847 0.9358 0.7995
C7_7 C 0.9553(2) 0.8766(7) 0.7940(3)
H5_7 H 0.9352 0.8036 0.7863
N6_3 N 0.99825(18) 0.8569(6) 0.8134(3)
O1_6 O 0.43295(16) 0.2260(5) 0.1700(2)
S1_6 S 0.34818(6) 0.03778(19) 0.06512(9)
S3_6 S 0.46613(6) 0.00208(19) 0.11838(9)
W1_6 W 0.421720(10) 0.05725(3) 0.142820(15)
H1_8 H 0.1153 0.9358 0.7005
C7_8 C 0.0447(2) 0.8766(7) 0.7060(3)
H5_8 H 0.0648 0.8036 0.7137
N6_4 N 0.00175(18) 0.8569(6) 0.6866(3)
H6_6 H 0.9576 0.0049 0.6758
C11_8 C 0.1555(3) 0.0681(7) 0.9286(3)
H9_8 H 0.1561 0.1657 0.9228
N2_8 N 0.17404(19) 0.0013(5) 0.9804(2)
H11_8 H 0.1781 0.9282 0.0667
Br1_8 Br 0.12970(2) 0.57563(7) 0.04511(3)
O1_7 O 0.43295(16) 0.7740(5) 0.6700(2)
S1_7 S 0.34818(6) 0.96222(19) 0.56512(9)
S3_7 S 0.46613(6) 0.99792(19) 0.61838(9)
W1_7 W 0.421720(10) 0.94275(3) 0.642820(15)
H6_7 H 0.9576 0.9951 0.1758
H6_8 H 0.0424 0.9951 0.3242
O1_8 O 0.56705(16) 0.7740(5) 0.8300(2)
S1_8 S 0.65182(6) 0.96222(19) 0.93488(9)
S3_8 S 0.53387(6) 0.99792(19) 0.88162(9)
W1_8 W 0.578280(10) 0.94275(3) 0.857180(15)
loop_
_geom_bond_atom_site_label_1
_geom_bond_atom_site_label_2
_geom_bond_site_symmetry_1
_geom_bond_site_symmetry_2
C9 H7 1_555 1_555
C10 H8 1_555 1_555
N1 C9 1_555 1_555
O1 W1 1_555 1_555
Cu1 S1 1_555 1_555
Cu2 N1 1_555 1_555
Cu3 S2 1_555 1_555
S1 Cu2 1_555 1_555
S2 Cu2 1_555 1_555
S3 Cu1 1_555 1_555
W1 S1 1_555 1_555
Br1 Cu1 1_555 1_555
N8 Cu2 1_555 1_555
C10 N1 1_555 1_555
Cu3 S3 1_555 1_555
S2 W1 1_555 1_555
S3 W1 1_555 1_555
C1 C3 1_555 1_555
C2 H1 1_555 1_555
C3 C2 1_555 1_555
H2 C3 1_555 1_555
C4 C1 1_555 1_555
H3 C4 1_555 1_555
C5 C2 1_555 1_555
C6 C4 1_555 1_555
H4 C6 1_555 1_555
C7 H5 1_555 1_555
C8 H6 1_555 1_555
H9 C11 1_555 1_555
C12 C13 1_555 1_555
C13 H10 1_555 1_555
C14 C12 1_555 1_555
C15 C14 1_555 1_555
H12 C15 1_555 1_555
C16 C13 1_555 1_555
H13 C16 1_555 1_555
C17 C15 1_555 1_555
C18 C25 1_555 1_555
C19 H14 1_555 1_555
C20 H15 1_555 1_555
C21 C19 1_555 1_555
H16 C21 1_555 1_555
C22 C23 1_555 1_555
C23 H17 1_555 1_555
C24 C22 1_555 1_555
H18 C24 1_555 1_555
C25 C24 1_555 1_555
H19 C25 1_555 1_555
C26 C18 1_555 1_555
H20 C26 1_555 1_555
C27 C8 1_555 1_555
H21 C27 1_555 1_555
N3 C1 1_555 1_555
N4 C19 1_555 1_555
N5 C20 1_555 1_555
N6 C7 1_555 1_555
N7 C5 1_555 1_555
Cu4 N4 1_555 1_555
Cu5 N6 1_555 1_555
C5 C6 1_555 1_555
C7 N7 1_555 1_555
C8 N6 1_555 1_555
C11 N2 1_555 1_555
C12 N2 1_555 1_555
C16 C17 1_555 1_555
C17 N3 1_555 1_555
C18 N3 1_555 1_555
C20 N4 1_555 1_555
C21 N5 1_555 1_555
C22 N5 1_555 1_555
C23 C26 1_555 1_555
C27 N7 1_555 1_555
C1_2 C3_2 1_555 1_555
C3_2 C2_2 1_555 1_555
H2_2 C3_2 1_555 1_555
C4_2 C1_2 1_555 1_555
H3_2 C4_2 1_555 1_555
C5_2 C2_2 1_555 1_555
C6_2 C4_2 1_555 1_555
H4_2 C6_2 1_555 1_555
C9_2 H7_2 1_555 1_555
C10_2 H8_2 1_555 1_555
C11_2 C10_2 1_555 1_555
H9_2 C11_2 1_555 1_555
C12_2 C13_2 1_555 1_555
C13_2 H10_2 1_555 1_555
C14_2 C12_2 1_555 1_555
H11_2 C14_2 1_555 1_555
C15_2 C14_2 1_555 1_555
H12_2 C15_2 1_555 1_555
C16_2 C13_2 1_555 1_555
H13_2 C16_2 1_555 1_555
C17_2 C15_2 1_555 1_555
C18_2 C25_2 1_555 1_555
C19_2 H14_2 1_555 1_555
C20_2 H15_2 1_555 1_555
C21_2 C19_2 1_555 1_555
H16_2 C21_2 1_555 1_555
C22_2 C23_2 1_555 1_555
C23_2 H17_2 1_555 1_555
C24_2 C22_2 1_555 1_555
H18_2 C24_2 1_555 1_555
C25_2 C24_2 1_555 1_555
H19_2 C25_2 1_555 1_555
C26_2 C18_2 1_555 1_555
H20_2 C26_2 1_555 1_555
H21_2 C27_2 1_555 1_555
N1_2 C9_2 1_555 1_555
N2_2 C9_2 1_555 1_555
N3_2 C1_2 1_555 1_555
N4_2 C19_2 1_555 1_555
N5_2 C20_2 1_555 1_555
N7_2 C5_2 1_555 1_555
Cu2_2 N1_2 1_555 1_555
Cu3_2 S2_2 1_555 1_555
S2_2 Cu2_2 1_555 1_555
Br1_2 Cu1_2 1_555 1_555
N8_2 Cu2_2 1_555 1_555
N9 Cu3_2 1_555 1_555
Cu4_2 N4_2 1_555 1_555
C5_2 C6_2 1_555 1_555
C10_2 N1_2 1_555 1_555
C11_2 N2_2 1_555 1_555
C12_2 N2_2 1_555 1_555
C16_2 C17_2 1_555 1_555
C17_2 N3_2 1_555 1_555
C18_2 N3_2 1_555 1_555
C20_2 N4_2 1_555 1_555
C21_2 N5_2 1_555 1_555
C22_2 N5_2 1_555 1_555
C23_2 C26_2 1_555 1_555
C27_2 N7_2 1_555 1_555
C1_3 C3_3 1_555 1_555
C2_3 H1_2 1_555 1_555
C3_3 C2_3 1_555 1_555
H2_3 C3_3 1_555 1_555
C4_3 C1_3 1_555 1_555
H3_3 C4_3 1_555 1_555
C5_3 C2_3 1_555 1_555
C6_3 C4_3 1_555 1_555
H4_3 C6_3 1_555 1_555
C7_2 H5_2 1_555 1_555
C8_3 H6_2 1_555 1_555
C12_3 C13_3 1_555 1_555
C13_3 H10_3 1_555 1_555
C14_3 C12_3 1_555 1_555
C15_3 C14_3 1_555 1_555
H12_3 C15_3 1_555 1_555
C16_3 C13_3 1_555 1_555
H13_3 C16_3 1_555 1_555
C17_3 C15_3 1_555 1_555
C18_3 C25_3 1_555 1_555
C19_3 H14_3 1_555 1_555
C20_3 H15_3 1_555 1_555
C21_3 C19_3 1_555 1_555
H16_3 C21_3 1_555 1_555
C22_3 C23_3 1_555 1_555
C23_3 H17_3 1_555 1_555
C24_3 C22_3 1_555 1_555
H18_3 C24_3 1_555 1_555
C25_3 C24_3 1_555 1_555
H19_3 C25_3 1_555 1_555
C26_3 C18_3 1_555 1_555
H20_3 C26_3 1_555 1_555
C27_3 C8_3 1_555 1_555
H21_3 C27_3 1_555 1_555
N3_3 C1_3 1_555 1_555
N8 C19_3 1_555 1_555
N5_3 C20_3 1_555 1_555
N9 C7_2 1_555 1_555
N7_3 C5_3 1_555 1_555
C5_3 C6_3 1_555 1_555
C7_2 N7_3 1_555 1_555
C8_3 N9 1_555 1_555
C16_3 C17_3 1_555 1_555
C17_3 N3_3 1_555 1_555
C18_3 N3_3 1_555 1_555
C20_3 N8 1_555 1_555
C21_3 N5_3 1_555 1_555
C22_3 N5_3 1_555 1_555
C23_3 C26_3 1_555 1_555
C27_3 N7_3 1_555 1_555
C9_3 H7_3 1_555 1_555
C10_3 H8_3 1_555 1_555
N1_3 C9_3 1_555 1_555
O1_2 W1_2 1_555 1_555
Cu1_3 S1_2 1_555 1_555
Cu4 N1_3 1_555 1_555
Cu5_2 S2_3 1_555 1_555
S1_2 Cu4 1_555 1_555
S2_3 Cu4 1_555 1_555
S3_2 Cu1_3 1_555 1_555
W1_2 S1_2 1_555 1_555
C10_3 N1_3 1_555 1_555
Cu5_2 S3_2 1_555 1_555
S2_3 W1_2 1_555 1_555
S3_2 W1_2 1_555 1_555
C1_4 C3_4 1_555 1_555
C3_4 C2_4 1_555 1_555
H2_4 C3_4 1_555 1_555
C4_4 C1_4 1_555 1_555
H3_4 C4_4 1_555 1_555
C5_4 C2_4 1_555 1_555
C6_4 C4_4 1_555 1_555
H4_4 C6_4 1_555 1_555
C12_4 C13_4 1_555 1_555
C13_4 H10_4 1_555 1_555
C14_4 C12_4 1_555 1_555
H11_3 C14_4 1_555 1_555
C15_4 C14_4 1_555 1_555
H12_4 C15_4 1_555 1_555
C16_4 C13_4 1_555 1_555
H13_4 C16_4 1_555 1_555
C17_4 C15_4 1_555 1_555
C18_4 C25_4 1_555 1_555
C19_4 H14_4 1_555 1_555
C20_4 H15_4 1_555 1_555
C21_4 C19_4 1_555 1_555
H16_4 C21_4 1_555 1_555
C22_4 C23_4 1_555 1_555
C23_4 H17_4 1_555 1_555
C24_4 C22_4 1_555 1_555
H18_4 C24_4 1_555 1_555
C25_4 C24_4 1_555 1_555
H19_4 C25_4 1_555 1_555
C26_4 C18_4 1_555 1_555
H20_4 C26_4 1_555 1_555
H21_4 C27_4 1_555 1_555
N3_4 C1_4 1_555 1_555
N8_2 C19_4 1_555 1_555
N5_4 C20_4 1_555 1_555
N7_4 C5_4 1_555 1_555
C5_4 C6_4 1_555 1_555
C16_4 C17_4 1_555 1_555
C17_4 N3_4 1_555 1_555
C18_4 N3_4 1_555 1_555
C20_4 N8_2 1_555 1_555
C21_4 N5_4 1_555 1_555
C22_4 N5_4 1_555 1_555
C23_4 C26_4 1_555 1_555
C27_4 N7_4 1_555 1_555
C9_4 H7_4 1_555 1_555
C10_4 H8_4 1_555 1_555
C11_3 C10_4 1_555 1_555
H9_3 C11_3 1_555 1_555
N1_4 C9_4 1_555 1_555
N2_3 C9_4 1_555 1_555
Cu4_2 N1_4 1_555 1_555
Cu5 S2_4 1_555 1_555
S2_4 Cu4_2 1_555 1_555
C10_4 N1_4 1_555 1_555
C11_3 N2_3 1_555 1_555
C7_3 H5_3 1_555 1_555
N9_2 C7_3 1_555 1_555
C7_4 H5_4 1_555 1_555
N9_3 C7_4 1_555 1_555
C9_5 H7_5 1_555 1_555
C10_5 H8_5 1_555 1_555
N1_5 C9_5 1_555 1_555
O1_3 W1_3 1_555 1_555
Cu1_5 S1_3 1_555 1_555
Cu2_3 N1_5 1_555 1_555
Cu3_3 S2_5 1_555 1_555
S1_3 Cu2_3 1_555 1_555
S2_5 Cu2_3 1_555 1_555
S3_3 Cu1_5 1_555 1_555
W1_3 S1_3 1_555 1_555
N8_3 Cu2_3 1_555 1_555
C10_5 N1_5 1_555 1_555
Cu3_3 S3_3 1_555 1_555
S2_5 W1_3 1_555 1_555
S3_3 W1_3 1_555 1_555
C1_5 C3_5 1_555 1_555
C2_5 H1_5 1_555 1_555
C3_5 C2_5 1_555 1_555
H2_5 C3_5 1_555 1_555
C4_5 C1_5 1_555 1_555
H3_5 C4_5 1_555 1_555
C5_5 C2_5 1_555 1_555
C6_5 C4_5 1_555 1_555
H4_5 C6_5 1_555 1_555
C7_5 H5_5 1_555 1_555
C8_5 H6_3 1_555 1_555
C12_5 C13_5 1_555 1_555
C13_5 H10_5 1_555 1_555
C14_5 C12_5 1_555 1_555
C15_5 C14_5 1_555 1_555
H12_5 C15_5 1_555 1_555
C16_5 C13_5 1_555 1_555
H13_5 C16_5 1_555 1_555
C17_5 C15_5 1_555 1_555
C18_5 C25_5 1_555 1_555
C19_5 H14_5 1_555 1_555
C20_5 H15_5 1_555 1_555
C21_5 C19_5 1_555 1_555
H16_5 C21_5 1_555 1_555
C22_5 C23_5 1_555 1_555
C23_5 H17_5 1_555 1_555
C24_5 C22_5 1_555 1_555
H18_5 C24_5 1_555 1_555
C25_5 C24_5 1_555 1_555
H19_5 C25_5 1_555 1_555
C26_5 C18_5 1_555 1_555
H20_5 C26_5 1_555 1_555
C27_5 C8_5 1_555 1_555
H21_5 C27_5 1_555 1_555
N3_5 C1_5 1_555 1_555
N4_3 C19_5 1_555 1_555
N5_5 C20_5 1_555 1_555
N6_2 C7_5 1_555 1_555
N7_5 C5_5 1_555 1_555
Cu4_3 N4_3 1_555 1_555
Cu5_3 N6_2 1_555 1_555
C5_5 C6_5 1_555 1_555
C7_5 N7_5 1_555 1_555
C8_5 N6_2 1_555 1_555
C16_5 C17_5 1_555 1_555
C17_5 N3_5 1_555 1_555
C18_5 N3_5 1_555 1_555
C20_5 N4_3 1_555 1_555
C21_5 N5_5 1_555 1_555
C22_5 N5_5 1_555 1_555
C23_5 C26_5 1_555 1_555
C27_5 N7_5 1_555 1_555
C9_6 H7_6 1_555 1_555
C10_6 H8_6 1_555 1_555
C11_4 C10_6 1_555 1_555
H9_4 C11_4 1_555 1_555
N1_6 C9_6 1_555 1_555
N2_4 C9_6 1_555 1_555
Cu2_4 N1_6 1_555 1_555
Cu3_4 S2_6 1_555 1_555
S2_6 Cu2_4 1_555 1_555
N8_4 Cu2_4 1_555 1_555
N9_4 Cu3_4 1_555 1_555
C10_6 N1_6 1_555 1_555
C11_4 N2_4 1_555 1_555
C1_6 C3_6 1_555 1_555
C3_6 C2_6 1_555 1_555
H2_6 C3_6 1_555 1_555
C4_6 C1_6 1_555 1_555
H3_6 C4_6 1_555 1_555
C5_6 C2_6 1_555 1_555
C6_6 C4_6 1_555 1_555
H4_6 C6_6 1_555 1_555
C12_6 C13_6 1_555 1_555
C13_6 H10_6 1_555 1_555
C14_6 C12_6 1_555 1_555
H11_4 C14_6 1_555 1_555
C15_6 C14_6 1_555 1_555
H12_6 C15_6 1_555 1_555
C16_6 C13_6 1_555 1_555
H13_6 C16_6 1_555 1_555
C17_6 C15_6 1_555 1_555
C18_6 C25_6 1_555 1_555
C19_6 H14_6 1_555 1_555
C20_6 H15_6 1_555 1_555
C21_6 C19_6 1_555 1_555
H16_6 C21_6 1_555 1_555
C22_6 C23_6 1_555 1_555
C23_6 H17_6 1_555 1_555
C24_6 C22_6 1_555 1_555
H18_6 C24_6 1_555 1_555
C25_6 C24_6 1_555 1_555
H19_6 C25_6 1_555 1_555
C26_6 C18_6 1_555 1_555
H20_6 C26_6 1_555 1_555
H21_6 C27_6 1_555 1_555
N3_6 C1_6 1_555 1_555
N4_4 C19_6 1_555 1_555
N5_6 C20_6 1_555 1_555
N7_6 C5_6 1_555 1_555
Cu4_4 N4_4 1_555 1_555
C5_6 C6_6 1_555 1_555
C16_6 C17_6 1_555 1_555
C17_6 N3_6 1_555 1_555
C18_6 N3_6 1_555 1_555
C20_6 N4_4 1_555 1_555
C21_6 N5_6 1_555 1_555
C22_6 N5_6 1_555 1_555
C23_6 C26_6 1_555 1_555
C27_6 N7_6 1_555 1_555
C1_7 C3_7 1_555 1_555
C2_7 H1_6 1_555 1_555
C3_7 C2_7 1_555 1_555
H2_7 C3_7 1_555 1_555
C4_7 C1_7 1_555 1_555
H3_7 C4_7 1_555 1_555
C5_7 C2_7 1_555 1_555
C6_7 C4_7 1_555 1_555
H4_7 C6_7 1_555 1_555
C7_6 H5_6 1_555 1_555
C8_7 H6_4 1_555 1_555
H9_5 C11_5 1_555 1_555
C12_7 C13_7 1_555 1_555
C13_7 H10_7 1_555 1_555
C14_7 C12_7 1_555 1_555
C15_7 C14_7 1_555 1_555
H12_7 C15_7 1_555 1_555
C16_7 C13_7 1_555 1_555
H13_7 C16_7 1_555 1_555
C17_7 C15_7 1_555 1_555
C18_7 C25_7 1_555 1_555
C19_7 H14_7 1_555 1_555
C20_7 H15_7 1_555 1_555
C21_7 C19_7 1_555 1_555
H16_7 C21_7 1_555 1_555
C22_7 C23_7 1_555 1_555
C23_7 H17_7 1_555 1_555
C24_7 C22_7 1_555 1_555
H18_7 C24_7 1_555 1_555
C25_7 C24_7 1_555 1_555
H19_7 C25_7 1_555 1_555
C26_7 C18_7 1_555 1_555
H20_7 C26_7 1_555 1_555
C27_7 C8_7 1_555 1_555
H21_7 C27_7 1_555 1_555
N3_7 C1_7 1_555 1_555
N8_3 C19_7 1_555 1_555
N5_7 C20_7 1_555 1_555
N9_4 C7_6 1_555 1_555
N7_7 C5_7 1_555 1_555
C5_7 C6_7 1_555 1_555
C7_6 N7_7 1_555 1_555
C8_7 N9_4 1_555 1_555
C11_5 N2_5 1_555 1_555
C12_7 N2_5 1_555 1_555
C16_7 C17_7 1_555 1_555
C17_7 N3_7 1_555 1_555
C18_7 N3_7 1_555 1_555
C20_7 N8_3 1_555 1_555
C21_7 N5_7 1_555 1_555
C22_7 N5_7 1_555 1_555
C23_7 C26_7 1_555 1_555
C27_7 N7_7 1_555 1_555
C9_7 H7_7 1_555 1_555
C10_7 H8_7 1_555 1_555
N1_7 C9_7 1_555 1_555
O1_4 W1_4 1_555 1_555
Cu1_7 S1_4 1_555 1_555
Cu4_3 N1_7 1_555 1_555
Cu5_4 S2_7 1_555 1_555
S1_4 Cu4_3 1_555 1_555
S2_7 Cu4_3 1_555 1_555
S3_4 Cu1_7 1_555 1_555
W1_4 S1_4 1_555 1_555
Br1_5 Cu1_7 1_555 1_555
C10_7 N1_7 1_555 1_555
Cu5_4 S3_4 1_555 1_555
S2_7 W1_4 1_555 1_555
S3_4 W1_4 1_555 1_555
C1_8 C3_8 1_555 1_555
C3_8 C2_8 1_555 1_555
H2_8 C3_8 1_555 1_555
C4_8 C1_8 1_555 1_555
H3_8 C4_8 1_555 1_555
C5_8 C2_8 1_555 1_555
C6_8 C4_8 1_555 1_555
H4_8 C6_8 1_555 1_555
C9_8 H7_8 1_555 1_555
C10_8 H8_8 1_555 1_555
C11_6 C10_8 1_555 1_555
H9_6 C11_6 1_555 1_555
C12_8 C13_8 1_555 1_555
C13_8 H10_8 1_555 1_555
C14_8 C12_8 1_555 1_555
H11_6 C14_8 1_555 1_555
C15_8 C14_8 1_555 1_555
H12_8 C15_8 1_555 1_555
C16_8 C13_8 1_555 1_555
H13_8 C16_8 1_555 1_555
C17_8 C15_8 1_555 1_555
C18_8 C25_8 1_555 1_555
C19_8 H14_8 1_555 1_555
C20_8 H15_8 1_555 1_555
C21_8 C19_8 1_555 1_555
H16_8 C21_8 1_555 1_555
C22_8 C23_8 1_555 1_555
C23_8 H17_8 1_555 1_555
C24_8 C22_8 1_555 1_555
H18_8 C24_8 1_555 1_555
C25_8 C24_8 1_555 1_555
H19_8 C25_8 1_555 1_555
C26_8 C18_8 1_555 1_555
H20_8 C26_8 1_555 1_555
H21_8 C27_8 1_555 1_555
N1_8 C9_8 1_555 1_555
N2_6 C9_8 1_555 1_555
N3_8 C1_8 1_555 1_555
N8_4 C19_8 1_555 1_555
N5_8 C20_8 1_555 1_555
N7_8 C5_8 1_555 1_555
Cu4_4 N1_8 1_555 1_555
Cu5_3 S2_8 1_555 1_555
S2_8 Cu4_4 1_555 1_555
Br1_6 Cu1_8 1_555 1_555
C5_8 C6_8 1_555 1_555
C10_8 N1_8 1_555 1_555
C11_6 N2_6 1_555 1_555
C12_8 N2_6 1_555 1_555
C16_8 C17_8 1_555 1_555
C17_8 N3_8 1_555 1_555
C18_8 N3_8 1_555 1_555
C20_8 N8_4 1_555 1_555
C21_8 N5_8 1_555 1_555
C22_8 N5_8 1_555 1_555
C23_8 C26_8 1_555 1_555
C27_8 N7_8 1_555 1_555
H9_7 C11_7 1_555 1_555
C11_7 N2_7 1_555 1_555
O1_5 W1_5 1_555 1_555
W1_5 S1_5 1_555 1_555
S3_5 W1_5 1_555 1_555
C7_7 H5_7 1_555 1_555
N6_3 C7_7 1_555 1_555
O1_6 W1_6 1_555 1_555
W1_6 S1_6 1_555 1_555
S3_6 W1_6 1_555 1_555
C7_8 H5_8 1_555 1_555
N6_4 C7_8 1_555 1_555
H9_8 C11_8 1_555 1_555
C11_8 N2_8 1_555 1_555
O1_7 W1_7 1_555 1_555
W1_7 S1_7 1_555 1_555
S3_7 W1_7 1_555 1_555
O1_8 W1_8 1_555 1_555
W1_8 S1_8 1_555 1_555
S3_8 W1_8 1_555 1_555

#END
