
###############################################################################
#
# This file contains modified crystal structure data generated from the
# MOF subset of the Cambridge Structural Database (CSD) v543 
# hosted by the Cambridge Crystallographic Data Centre (CCDC).
#
# This work is licensed under the Creative Commons
# Attribution-NonCommercial-ShareAlike 4.0 International License.
# To view a copy of this license, visit
# http://creativecommons.org/licenses/by-nc-sa/4.0/
# or send a letter to
# Creative Commons, PO Box 1866, Mountain View, CA 94042, USA.
#
# CIF created using the CSD Python API on 29 September 2022
# The structure has been converted into the P1 space group
# The structure has a 3D framework
# The original CSD entry IYOCOQ is in the monoclinic crystal system
# The framework has been calculated to contain at least 10.0% void space
# The void calculation uses a probe of radius 1.32A, grid spacing 0.4
#
###############################################################################

data_IYOCOQ
_chemical_formula_moiety         '(C288 H192 I48 N96 Zn24)n'
_symmetry_cell_setting           triclinic
_symmetry_space_group_name_H-M   'P 1'
_symmetry_Int_Tables_number      1
_space_group_name_Hall           'P 1'
loop_
_symmetry_equiv_pos_site_id
_symmetry_equiv_pos_as_xyz
1 x,y,z
_cell_length_a                   34.841(2)
_cell_length_b                   14.7428(9)
_cell_length_c                   31.0430(18)
_cell_angle_alpha                90
_cell_angle_beta                 101.299(3)
_cell_angle_gamma                90
_cell_volume                     15636.3
loop_
_atom_site_label
_atom_site_type_symbol
_atom_site_fract_x
_atom_site_fract_y
_atom_site_fract_z
N1 N 0.5691(3) 0.0270(6) 0.0477(3)
C36 C 0.5937(4) 0.0057(9) 0.0205(4)
H24 H 0.6152 0.0427 0.0203
Zn4 Zn 0.58369(4) 0.13167(9) 0.09243(4)
I1 I 0.62041(3) 0.24635(5) 0.05554(3)
I2 I 0.52644(3) 0.15509(6) 0.13106(2)
N2 N 0.6243(3) 0.0636(6) 0.1388(3)
C1 C 0.6523(3) 0.1059(7) 0.1676(3)
C3 C 0.6745(3) 0.0626(7) 0.2028(3)
H1 H 0.6568 0.1672 0.1634
H3 H 0.6931 0.0946 0.2226
C14 C 0.7832(3) 0.0407(7) 0.3291(3)
C18 C 0.8126(3) 0.0808(7) 0.3589(3)
H8 H 0.7705 0.0724 0.3046
N7 N 0.8313(2) 0.0389(6) 0.3951(3)
H12 H 0.8198 0.1399 0.3536
Zn3 Zn 0.87417(4) 0.09984(9) 0.44090(4)
I5 I 0.89696(3) 0.23781(6) 0.40304(3)
I6 I 0.85106(2) 0.09656(8) 0.51316(3)
N9 N 0.9193(2) 0.0084(6) 0.4446(3)
H13 H 0.9225 0.0217 0.3825
H10 H 0.2332 0.0074 0.8159
Zn2 Zn 0.16882(4) 0.13595(9) 0.76885(4)
I3 I 0.12275(3) 0.15165(5) 0.69512(2)
I4 I 0.22975(2) 0.23323(5) 0.79116(2)
N14 N 0.1375(3) 0.1560(6) 0.8183(3)
C24 C 0.0173(3) 0.1641(6) 0.9453(3)
N10 N 0.0391(2) 0.1449(6) 0.9151(3)
N11 N 0.0226(2) 0.2336(6) 0.9728(2)
C25 C 0.0673(3) 0.2055(7) 0.9131(3)
C26 C 0.0511(3) 0.2910(7) 0.9663(3)
C27 C 0.0920(3) 0.1879(7) 0.8808(3)
N12 N 0.0734(2) 0.2811(6) 0.9373(3)
C28 C 0.0563(3) 0.3739(7) 0.9941(3)
C29 C 0.0932(5) 0.1024(10) 0.8625(5)
C30 C 0.1151(5) 0.2541(10) 0.8687(6)
C32 C 0.0880(4) 0.4316(10) 0.9932(4)
C33 C 0.1166(4) 0.0897(9) 0.8313(4)
H17 H 0.0787 0.0547 0.8707
C34 C 0.1380(6) 0.2321(10) 0.8387(6)
H18 H 0.1154 0.3123 0.8803
H20 H 0.1051 0.4199 0.9743
H21 H 0.1177 0.0323 0.8191
H22 H 0.1553 0.2761 0.8326
I6_2 I 0.35106(2) 0.40344(8) 0.01316(3)
H14 H 0.4263 0.5253 0.0065
H16 H 0.4786 0.6213 0.0098
C31 C 0.5314(3) 0.8960(7) 0.0215(3)
C35 C 0.5383(3) 0.9732(7) 0.0481(3)
H19 H 0.5098 0.8596 0.0225
H23 H 0.5211 0.9873 0.0665
I1_2 I 0.12041(3) 0.25365(5) 0.55554(3)
Zn1 Zn 0.08369(4) 0.36833(9) 0.59243(4)
I2_2 I 0.02644(3) 0.34491(6) 0.63106(2)
N2_2 N 0.1243(3) 0.4364(6) 0.6388(3)
C1_2 C 0.1523(3) 0.3941(7) 0.6676(3)
C2 C 0.1191(4) 0.5257(9) 0.6447(4)
C3_2 C 0.1745(3) 0.4374(7) 0.7028(3)
H1_2 H 0.1568 0.3328 0.6634
C4 C 0.1403(4) 0.5743(8) 0.6785(4)
H2 H 0.1001 0.5558 0.6246
H3_2 H 0.1931 0.4054 0.7226
C5 C 0.1690(3) 0.5303(7) 0.7089(3)
H4 H 0.1356 0.6359 0.6812
C6 C 0.1922(3) 0.5823(6) 0.7457(3)
N3 N 0.1824(2) 0.6694(6) 0.7489(3)
N4 N 0.2217(2) 0.5410(6) 0.7719(3)
C7 C 0.2048(3) 0.7156(7) 0.7816(3)
C8 C 0.2409(3) 0.5924(7) 0.8048(3)
C9 C 0.1964(3) 0.8130(7) 0.7821(3)
N5 N 0.2334(2) 0.6805(6) 0.8109(3)
C10 C 0.2728(3) 0.5480(7) 0.8363(3)
C11 C 0.1630(4) 0.8486(8) 0.7549(4)
C12 C 0.2223(3) 0.8748(7) 0.8059(4)
C13 C 0.2920(3) 0.5922(8) 0.8730(3)
C14_2 C 0.2832(3) 0.4593(7) 0.8291(3)
C15 C 0.1567(4) 0.9408(8) 0.7535(4)
H5 H 0.1451 0.8100 0.7379
C16 C 0.2149(3) 0.9666(8) 0.8011(3)
H6 H 0.2445 0.8544 0.8251
C17 C 0.3211(3) 0.5461(7) 0.9015(3)
H7 H 0.2856 0.6516 0.8788
C18_2 C 0.3126(3) 0.4192(7) 0.8589(3)
H8_2 H 0.2705 0.4276 0.8046
N6 N 0.1823(3) 0.9984(6) 0.7757(3)
H9 H 0.1337 0.9634 0.7364
N7_2 N 0.3313(2) 0.4611(6) 0.8951(3)
H11 H 0.3342 0.5763 0.9263
H12_2 H 0.3198 0.3601 0.8536
Zn3_2 Zn 0.37417(4) 0.40016(9) 0.94090(4)
N8 N 0.6375(3) 0.6560(6) 0.8183(3)
I5_2 I 0.39696(3) 0.26219(6) 0.90304(3)
N9_2 N 0.4193(2) 0.4916(6) 0.9446(3)
C19 C 0.4344(4) 0.5061(9) 0.9086(3)
C20 C 0.4364(3) 0.5345(7) 0.9812(3)
C21 C 0.4661(4) 0.5589(9) 0.9082(3)
H13_2 H 0.4225 0.4783 0.8825
C22 C 0.4680(3) 0.5917(7) 0.9837(3)
C23 C 0.4835(3) 0.6037(7) 0.9459(3)
H15 H 0.4761 0.5649 0.8827
C24_2 C 0.5173(3) 0.6641(6) 0.9453(3)
N10_2 N 0.5391(2) 0.6449(6) 0.9151(3)
N11_2 N 0.5226(2) 0.7336(6) 0.9728(2)
C25_2 C 0.5673(3) 0.7055(7) 0.9131(3)
C26_2 C 0.5511(3) 0.7910(7) 0.9663(3)
C27_2 C 0.5920(3) 0.6879(7) 0.8808(3)
N12_2 N 0.5734(2) 0.7811(6) 0.9373(3)
C28_2 C 0.5563(3) 0.8739(7) 0.9941(3)
C29_2 C 0.5932(5) 0.6024(10) 0.8625(5)
C30_2 C 0.6151(5) 0.7541(10) 0.8687(6)
C32_2 C 0.5880(4) 0.9316(10) 0.9932(4)
C33_2 C 0.6166(4) 0.5897(9) 0.8313(4)
H17_2 H 0.5787 0.5547 0.8707
C34_2 C 0.6380(6) 0.7321(10) 0.8387(6)
H18_2 H 0.6154 0.8123 0.8803
H20_2 H 0.6051 0.9199 0.9743
H21_2 H 0.6177 0.5323 0.8191
H22_2 H 0.6553 0.7761 0.8326
N13 N 0.0691(3) 0.4730(6) 0.5477(3)
Zn5 Zn 0.66882(4) 0.63595(9) 0.76885(4)
C2_2 C 0.6191(4) 0.0257(9) 0.6447(4)
C4_2 C 0.6403(4) 0.0743(8) 0.6785(4)
H2_2 H 0.6001 0.0558 0.6246
C5_2 C 0.6690(3) 0.0303(7) 0.7089(3)
H4_2 H 0.6356 0.1359 0.6812
C6_2 C 0.6922(3) 0.0823(6) 0.7457(3)
N3_2 N 0.6824(2) 0.1694(6) 0.7489(3)
N4_2 N 0.7217(2) 0.0410(6) 0.7719(3)
C7_2 C 0.7048(3) 0.2156(7) 0.7816(3)
C8_2 C 0.7409(3) 0.0924(7) 0.8048(3)
C9_2 C 0.6964(3) 0.3130(7) 0.7821(3)
N5_2 N 0.7334(2) 0.1805(6) 0.8109(3)
C10_2 C 0.7728(3) 0.0480(7) 0.8363(3)
C11_2 C 0.6630(4) 0.3486(8) 0.7549(4)
C12_2 C 0.7223(3) 0.3748(7) 0.8059(4)
C13_2 C 0.7920(3) 0.0922(8) 0.8730(3)
C15_2 C 0.6567(4) 0.4408(8) 0.7535(4)
H5_2 H 0.6451 0.3100 0.7379
C16_2 C 0.7149(3) 0.4666(8) 0.8011(3)
H6_2 H 0.7445 0.3544 0.8251
C17_2 C 0.8211(3) 0.0461(7) 0.9015(3)
H7_2 H 0.7856 0.1516 0.8788
N6_2 N 0.6823(3) 0.4984(6) 0.7757(3)
H9_2 H 0.6337 0.4634 0.7364
H10_2 H 0.7332 0.5074 0.8159
H11_2 H 0.8342 0.0763 0.9263
I3_2 I 0.62275(3) 0.65165(5) 0.69512(2)
I4_2 I 0.72975(2) 0.73323(5) 0.79116(2)
C19_2 C 0.9344(4) 0.0061(9) 0.9086(3)
C20_2 C 0.9364(3) 0.0345(7) 0.9812(3)
C21_2 C 0.9661(4) 0.0589(9) 0.9082(3)
C22_2 C 0.9680(3) 0.0917(7) 0.9837(3)
C23_2 C 0.9835(3) 0.1037(7) 0.9459(3)
H15_2 H 0.9761 0.0649 0.8827
I1_3 I 0.62041(3) 0.75365(5) 0.55554(3)
Zn1_2 Zn 0.58369(4) 0.86833(9) 0.59243(4)
I2_3 I 0.52644(3) 0.84491(6) 0.63106(2)
N2_3 N 0.6243(3) 0.9364(6) 0.6388(3)
C1_3 C 0.6523(3) 0.8941(7) 0.6676(3)
C3_3 C 0.6745(3) 0.9374(7) 0.7028(3)
H1_3 H 0.6568 0.8328 0.6634
H3_3 H 0.6931 0.9054 0.7226
C14_3 C 0.7832(3) 0.9593(7) 0.8291(3)
C18_3 C 0.8126(3) 0.9192(7) 0.8589(3)
H8_3 H 0.7705 0.9276 0.8046
N7_3 N 0.8313(2) 0.9611(6) 0.8951(3)
H12_3 H 0.8198 0.8601 0.8536
Zn3_3 Zn 0.87417(4) 0.90016(9) 0.94090(4)
I5_3 I 0.89696(3) 0.76219(6) 0.90304(3)
N9_3 N 0.9193(2) 0.9916(6) 0.9446(3)
H13_3 H 0.9225 0.9783 0.8825
N13_2 N 0.5691(3) 0.9730(6) 0.5477(3)
H10_3 H 0.2332 0.9926 0.3159
Zn2_2 Zn 0.16882(4) 0.86405(9) 0.26885(4)
I3_3 I 0.12275(3) 0.84835(5) 0.19512(2)
I4_3 I 0.22975(2) 0.76677(5) 0.29116(2)
C36_2 C 0.5937(4) 0.9943(9) 0.5205(4)
H24_2 H 0.6152 0.9573 0.5203
N14_2 N 0.1375(3) 0.8440(6) 0.3183(3)
C24_3 C 0.0173(3) 0.8359(6) 0.4453(3)
N10_3 N 0.0391(2) 0.8551(6) 0.4151(3)
N11_3 N 0.0226(2) 0.7664(6) 0.4728(2)
C25_3 C 0.0673(3) 0.7945(7) 0.4131(3)
C26_3 C 0.0511(3) 0.7090(7) 0.4663(3)
C27_3 C 0.0920(3) 0.8121(7) 0.3808(3)
N12_3 N 0.0734(2) 0.7189(6) 0.4373(3)
C28_3 C 0.0563(3) 0.6261(7) 0.4941(3)
C29_3 C 0.0932(5) 0.8976(10) 0.3625(5)
C30_3 C 0.1151(5) 0.7459(10) 0.3687(6)
C31_2 C 0.0314(3) 0.6040(7) 0.5215(3)
C32_3 C 0.0880(4) 0.5684(10) 0.4932(4)
C33_3 C 0.1166(4) 0.9103(9) 0.3313(4)
H17_3 H 0.0787 0.9453 0.3707
C34_3 C 0.1380(6) 0.7679(10) 0.3387(6)
H18_3 H 0.1154 0.6877 0.3803
C35_2 C 0.0383(3) 0.5268(7) 0.5481(3)
H19_2 H 0.0098 0.6404 0.5225
C36_3 C 0.0937(4) 0.4943(9) 0.5205(4)
H20_3 H 0.1051 0.5801 0.4743
H21_3 H 0.1177 0.9677 0.3191
H22_3 H 0.1553 0.7239 0.3326
H23_2 H 0.0211 0.5127 0.5665
H24_3 H 0.1152 0.4573 0.5203
N1_2 N 0.4309(3) 0.0270(6) 0.4523(3)
H10_4 H 0.7668 0.0074 0.6841
Zn2_3 Zn 0.83118(4) 0.13595(9) 0.73115(4)
I3_4 I 0.87725(3) 0.15165(5) 0.80488(2)
I4_4 I 0.77025(2) 0.23323(5) 0.70884(2)
C36_4 C 0.4063(4) 0.0057(9) 0.4795(4)
H24_4 H 0.3848 0.0427 0.4797
Zn4_2 Zn 0.41631(4) 0.13167(9) 0.40757(4)
N14_3 N 0.8625(3) 0.1560(6) 0.6817(3)
N1_3 N 0.9309(3) 0.5270(6) 0.4523(3)
C24_4 C 0.9827(3) 0.1641(6) 0.5547(3)
N10_4 N 0.9609(2) 0.1449(6) 0.5849(3)
N11_4 N 0.9774(2) 0.2336(6) 0.5272(2)
C25_4 C 0.9327(3) 0.2055(7) 0.5869(3)
C26_4 C 0.9489(3) 0.2910(7) 0.5337(3)
C27_4 C 0.9080(3) 0.1879(7) 0.6192(3)
N12_4 N 0.9266(2) 0.2811(6) 0.5627(3)
C28_4 C 0.9437(3) 0.3739(7) 0.5059(3)
C29_4 C 0.9068(5) 0.1024(10) 0.6375(5)
C30_4 C 0.8849(5) 0.2541(10) 0.6313(6)
C31_3 C 0.9686(3) 0.3960(7) 0.4785(3)
C32_4 C 0.9120(4) 0.4316(10) 0.5068(4)
C33_4 C 0.8834(4) 0.0897(9) 0.6687(4)
H17_4 H 0.9213 0.0547 0.6293
C34_4 C 0.8620(6) 0.2321(10) 0.6613(6)
H18_4 H 0.8846 0.3123 0.6197
C35_3 C 0.9617(3) 0.4732(7) 0.4519(3)
H19_3 H 0.9902 0.3596 0.4775
C36_5 C 0.9063(4) 0.5057(9) 0.4795(4)
H20_4 H 0.8949 0.4199 0.5257
H21_4 H 0.8823 0.0323 0.6809
H22_4 H 0.8447 0.2761 0.6674
H23_3 H 0.9789 0.4873 0.4335
H24_5 H 0.8848 0.5427 0.4797
Zn4_3 Zn 0.91631(4) 0.63167(9) 0.40757(4)
I1_4 I 0.87959(3) 0.74635(5) 0.44446(3)
I2_4 I 0.97356(3) 0.65509(6) 0.36894(2)
N2_4 N 0.8757(3) 0.5636(6) 0.3612(3)
C1_4 C 0.8477(3) 0.6059(7) 0.3324(3)
C2_3 C 0.8809(4) 0.4743(9) 0.3553(4)
C3_4 C 0.8255(3) 0.5626(7) 0.2972(3)
H1_4 H 0.8432 0.6672 0.3366
C4_3 C 0.8597(4) 0.4257(8) 0.3215(4)
H2_3 H 0.8999 0.4442 0.3754
H3_4 H 0.8069 0.5946 0.2774
C5_3 C 0.8310(3) 0.4697(7) 0.2911(3)
H4_3 H 0.8644 0.3641 0.3188
C6_3 C 0.8078(3) 0.4177(6) 0.2543(3)
N3_3 N 0.8176(2) 0.3306(6) 0.2511(3)
N4_3 N 0.7783(2) 0.4590(6) 0.2281(3)
C7_3 C 0.7952(3) 0.2844(7) 0.2184(3)
C8_3 C 0.7591(3) 0.4076(7) 0.1952(3)
C9_3 C 0.8036(3) 0.1870(7) 0.2179(3)
N5_3 N 0.7666(2) 0.3195(6) 0.1891(3)
C10_3 C 0.7272(3) 0.4520(7) 0.1637(3)
C11_3 C 0.8370(4) 0.1514(8) 0.2451(4)
C12_3 C 0.7777(3) 0.1252(7) 0.1941(4)
C13_3 C 0.7080(3) 0.4078(8) 0.1270(3)
C14_4 C 0.7168(3) 0.5407(7) 0.1709(3)
C15_3 C 0.8433(4) 0.0592(8) 0.2465(4)
H5_3 H 0.8549 0.1900 0.2621
C16_3 C 0.7851(3) 0.0334(8) 0.1989(3)
H6_3 H 0.7555 0.1456 0.1749
C17_3 C 0.6789(3) 0.4539(7) 0.0985(3)
H7_3 H 0.7144 0.3484 0.1212
C18_4 C 0.6874(3) 0.5808(7) 0.1411(3)
H8_4 H 0.7295 0.5724 0.1954
N6_3 N 0.8177(3) 0.0016(6) 0.2243(3)
H9_3 H 0.8663 0.0366 0.2636
N7_4 N 0.6687(2) 0.5389(6) 0.1049(3)
H11_3 H 0.6658 0.4237 0.0737
H12_4 H 0.6802 0.6399 0.1464
Zn3_4 Zn 0.62583(4) 0.59984(9) 0.05910(4)
N8_2 N 0.3625(3) 0.3440(6) 0.1817(3)
I5_4 I 0.60304(3) 0.73781(6) 0.09696(3)
N9_4 N 0.5807(2) 0.5084(6) 0.0554(3)
C19_3 C 0.5656(4) 0.4939(9) 0.0914(3)
C20_3 C 0.5636(3) 0.4655(7) 0.0188(3)
C21_3 C 0.5339(4) 0.4411(9) 0.0918(3)
H13_4 H 0.5775 0.5217 0.1175
C22_3 C 0.5320(3) 0.4083(7) 0.0163(3)
C23_3 C 0.5165(3) 0.3963(7) 0.0541(3)
H15_3 H 0.5239 0.4351 0.1173
C24_5 C 0.4827(3) 0.3359(6) 0.0547(3)
N10_5 N 0.4609(2) 0.3551(6) 0.0849(3)
N11_5 N 0.4774(2) 0.2664(6) 0.0272(2)
C25_5 C 0.4327(3) 0.2945(7) 0.0869(3)
C26_5 C 0.4489(3) 0.2090(7) 0.0337(3)
C27_5 C 0.4080(3) 0.3121(7) 0.1192(3)
N12_5 N 0.4266(2) 0.2189(6) 0.0627(3)
C28_5 C 0.4437(3) 0.1261(7) 0.0059(3)
C29_5 C 0.4068(5) 0.3976(10) 0.1375(5)
C30_5 C 0.3849(5) 0.2459(10) 0.1313(6)
C32_5 C 0.4120(4) 0.0684(10) 0.0068(4)
C33_5 C 0.3834(4) 0.4103(9) 0.1687(4)
H17_5 H 0.4213 0.4453 0.1293
C34_5 C 0.3620(6) 0.2679(10) 0.1613(6)
H18_5 H 0.3846 0.1877 0.1197
H20_5 H 0.3949 0.0801 0.0257
H21_5 H 0.3823 0.4677 0.1809
H22_5 H 0.3447 0.2239 0.1674
Zn5_2 Zn 0.33118(4) 0.36405(9) 0.23115(4)
I1_5 I 0.37959(3) 0.24635(5) 0.44446(3)
I2_5 I 0.47356(3) 0.15509(6) 0.36894(2)
N2_5 N 0.3757(3) 0.0636(6) 0.3612(3)
C1_5 C 0.3477(3) 0.1059(7) 0.3324(3)
C3_5 C 0.3255(3) 0.0626(7) 0.2972(3)
H1_5 H 0.3432 0.1672 0.3366
H3_5 H 0.3069 0.0946 0.2774
C14_5 C 0.2168(3) 0.0407(7) 0.1709(3)
C18_5 C 0.1874(3) 0.0808(7) 0.1411(3)
H8_5 H 0.2295 0.0724 0.1954
N7_5 N 0.1687(2) 0.0389(6) 0.1049(3)
H12_5 H 0.1802 0.1399 0.1464
Zn3_5 Zn 0.12583(4) 0.09984(9) 0.05910(4)
I5_5 I 0.10304(3) 0.23781(6) 0.09696(3)
N9_5 N 0.0807(2) 0.0084(6) 0.0554(3)
H13_5 H 0.0775 0.0217 0.1175
C2_4 C 0.3809(4) 0.9743(9) 0.3553(4)
C4_4 C 0.3597(4) 0.9257(8) 0.3215(4)
H2_4 H 0.3999 0.9442 0.3754
C5_4 C 0.3310(3) 0.9697(7) 0.2911(3)
H4_4 H 0.3644 0.8641 0.3188
C6_4 C 0.3078(3) 0.9177(6) 0.2543(3)
N3_4 N 0.3176(2) 0.8306(6) 0.2511(3)
N4_4 N 0.2783(2) 0.9590(6) 0.2281(3)
C7_4 C 0.2952(3) 0.7844(7) 0.2184(3)
C8_4 C 0.2591(3) 0.9076(7) 0.1952(3)
C9_4 C 0.3036(3) 0.6870(7) 0.2179(3)
N5_4 N 0.2666(2) 0.8195(6) 0.1891(3)
C10_4 C 0.2272(3) 0.9520(7) 0.1637(3)
C11_4 C 0.3370(4) 0.6514(8) 0.2451(4)
C12_4 C 0.2777(3) 0.6252(7) 0.1941(4)
C13_4 C 0.2080(3) 0.9078(8) 0.1270(3)
C15_4 C 0.3433(4) 0.5592(8) 0.2465(4)
H5_4 H 0.3549 0.6900 0.2621
C16_4 C 0.2851(3) 0.5334(8) 0.1989(3)
H6_4 H 0.2555 0.6456 0.1749
C17_4 C 0.1789(3) 0.9539(7) 0.0985(3)
H7_4 H 0.2144 0.8484 0.1212
N6_4 N 0.3177(3) 0.5016(6) 0.2243(3)
H9_4 H 0.3663 0.5366 0.2636
H10_5 H 0.2668 0.4926 0.1841
H11_4 H 0.1658 0.9237 0.0737
I3_5 I 0.37725(3) 0.34835(5) 0.30488(2)
I4_5 I 0.27025(2) 0.26677(5) 0.20884(2)
C19_4 C 0.0656(4) 0.9939(9) 0.0914(3)
C20_4 C 0.0636(3) 0.9655(7) 0.0188(3)
C21_4 C 0.0339(4) 0.9411(9) 0.0918(3)
C22_4 C 0.0320(3) 0.9083(7) 0.0163(3)
C23_4 C 0.0165(3) 0.8963(7) 0.0541(3)
H15_4 H 0.0239 0.9351 0.1173
I1_6 I 0.87959(3) 0.25365(5) 0.94446(3)
Zn1_3 Zn 0.91631(4) 0.36833(9) 0.90757(4)
I2_6 I 0.97356(3) 0.34491(6) 0.86894(2)
N2_6 N 0.8757(3) 0.4364(6) 0.8612(3)
C1_6 C 0.8477(3) 0.3941(7) 0.8324(3)
C2_5 C 0.8809(4) 0.5257(9) 0.8553(4)
C3_6 C 0.8255(3) 0.4374(7) 0.7972(3)
H1_6 H 0.8432 0.3328 0.8366
C4_5 C 0.8597(4) 0.5743(8) 0.8215(4)
H2_5 H 0.8999 0.5558 0.8754
H3_6 H 0.8069 0.4054 0.7774
C5_5 C 0.8310(3) 0.5303(7) 0.7911(3)
H4_5 H 0.8644 0.6359 0.8188
C6_5 C 0.8078(3) 0.5823(6) 0.7543(3)
N3_5 N 0.8176(2) 0.6694(6) 0.7511(3)
N4_5 N 0.7783(2) 0.5410(6) 0.7281(3)
C7_5 C 0.7952(3) 0.7156(7) 0.7184(3)
C8_5 C 0.7591(3) 0.5924(7) 0.6952(3)
C9_5 C 0.8036(3) 0.8130(7) 0.7179(3)
N5_5 N 0.7666(2) 0.6805(6) 0.6891(3)
C10_5 C 0.7272(3) 0.5480(7) 0.6637(3)
C11_5 C 0.8370(4) 0.8486(8) 0.7451(4)
C12_5 C 0.7777(3) 0.8748(7) 0.6941(4)
C13_5 C 0.7080(3) 0.5922(8) 0.6270(3)
C14_6 C 0.7168(3) 0.4593(7) 0.6709(3)
C15_5 C 0.8433(4) 0.9408(8) 0.7465(4)
H5_5 H 0.8549 0.8100 0.7621
C16_5 C 0.7851(3) 0.9666(8) 0.6989(3)
H6_5 H 0.7555 0.8544 0.6749
C17_5 C 0.6789(3) 0.5461(7) 0.5985(3)
H7_5 H 0.7144 0.6516 0.6212
C18_6 C 0.6874(3) 0.4192(7) 0.6411(3)
H8_6 H 0.7295 0.4276 0.6954
N6_5 N 0.8177(3) 0.9984(6) 0.7243(3)
H9_5 H 0.8663 0.9634 0.7636
N7_6 N 0.6687(2) 0.4611(6) 0.6049(3)
H11_5 H 0.6658 0.5763 0.5737
H12_6 H 0.6802 0.3601 0.6464
Zn3_6 Zn 0.62583(4) 0.40016(9) 0.55910(4)
N8_3 N 0.3625(3) 0.6560(6) 0.6817(3)
I5_6 I 0.60304(3) 0.26219(6) 0.59696(3)
I6_3 I 0.64894(2) 0.40344(8) 0.48684(3)
N9_6 N 0.5807(2) 0.4916(6) 0.5554(3)
C19_5 C 0.5656(4) 0.5061(9) 0.5914(3)
C20_5 C 0.5636(3) 0.5345(7) 0.5188(3)
C21_5 C 0.5339(4) 0.5589(9) 0.5918(3)
H13_6 H 0.5775 0.4783 0.6175
H14_2 H 0.5737 0.5253 0.4935
C22_5 C 0.5320(3) 0.5917(7) 0.5163(3)
C23_5 C 0.5165(3) 0.6037(7) 0.5541(3)
H15_5 H 0.5239 0.5649 0.6173
H16_2 H 0.5214 0.6213 0.4902
C24_6 C 0.4827(3) 0.6641(6) 0.5547(3)
N10_6 N 0.4609(2) 0.6449(6) 0.5849(3)
N11_6 N 0.4774(2) 0.7336(6) 0.5272(2)
C25_6 C 0.4327(3) 0.7055(7) 0.5869(3)
C26_6 C 0.4489(3) 0.7910(7) 0.5337(3)
C27_6 C 0.4080(3) 0.6879(7) 0.6192(3)
N12_6 N 0.4266(2) 0.7811(6) 0.5627(3)
C28_6 C 0.4437(3) 0.8739(7) 0.5059(3)
C29_6 C 0.4068(5) 0.6024(10) 0.6375(5)
C30_6 C 0.3849(5) 0.7541(10) 0.6313(6)
C31_4 C 0.4686(3) 0.8960(7) 0.4785(3)
C32_6 C 0.4120(4) 0.9316(10) 0.5068(4)
C33_6 C 0.3834(4) 0.5897(9) 0.6687(4)
H17_6 H 0.4213 0.5547 0.6293
C34_6 C 0.3620(6) 0.7321(10) 0.6613(6)
H18_6 H 0.3846 0.8123 0.6197
C35_4 C 0.4617(3) 0.9732(7) 0.4519(3)
H19_4 H 0.4902 0.8596 0.4775
H20_6 H 0.3949 0.9199 0.5257
H21_6 H 0.3823 0.5323 0.6809
H22_6 H 0.3447 0.7761 0.6674
H23_4 H 0.4789 0.9873 0.4335
N13_3 N 0.9309(3) 0.4730(6) 0.9523(3)
Zn5_3 Zn 0.33118(4) 0.63595(9) 0.73115(4)
C2_6 C 0.3809(4) 0.0257(9) 0.8553(4)
C4_6 C 0.3597(4) 0.0743(8) 0.8215(4)
H2_6 H 0.3999 0.0558 0.8754
C5_6 C 0.3310(3) 0.0303(7) 0.7911(3)
H4_6 H 0.3644 0.1359 0.8188
C6_6 C 0.3078(3) 0.0823(6) 0.7543(3)
N3_6 N 0.3176(2) 0.1694(6) 0.7511(3)
N4_6 N 0.2783(2) 0.0410(6) 0.7281(3)
C7_6 C 0.2952(3) 0.2156(7) 0.7184(3)
C8_6 C 0.2591(3) 0.0924(7) 0.6952(3)
C9_6 C 0.3036(3) 0.3130(7) 0.7179(3)
N5_6 N 0.2666(2) 0.1805(6) 0.6891(3)
C10_6 C 0.2272(3) 0.0480(7) 0.6637(3)
C11_6 C 0.3370(4) 0.3486(8) 0.7451(4)
C12_6 C 0.2777(3) 0.3748(7) 0.6941(4)
C13_6 C 0.2080(3) 0.0922(8) 0.6270(3)
C15_6 C 0.3433(4) 0.4408(8) 0.7465(4)
H5_6 H 0.3549 0.3100 0.7621
C16_6 C 0.2851(3) 0.4666(8) 0.6989(3)
H6_6 H 0.2555 0.3544 0.6749
C17_6 C 0.1789(3) 0.0461(7) 0.5985(3)
H7_6 H 0.2144 0.1516 0.6212
N6_6 N 0.3177(3) 0.4984(6) 0.7243(3)
H9_6 H 0.3663 0.4634 0.7636
H10_6 H 0.2668 0.5074 0.6841
H11_6 H 0.1658 0.0763 0.5737
I3_6 I 0.37725(3) 0.65165(5) 0.80488(2)
I4_6 I 0.27025(2) 0.73323(5) 0.70884(2)
C19_6 C 0.0656(4) 0.0061(9) 0.5914(3)
C20_6 C 0.0636(3) 0.0345(7) 0.5188(3)
C21_6 C 0.0339(4) 0.0589(9) 0.5918(3)
H14_3 H 0.0737 0.0253 0.4935
C22_6 C 0.0320(3) 0.0917(7) 0.5163(3)
C23_6 C 0.0165(3) 0.1037(7) 0.5541(3)
H15_6 H 0.0239 0.0649 0.6173
H16_3 H 0.0214 0.1213 0.4902
C31_5 C 0.9686(3) 0.6040(7) 0.9785(3)
C35_5 C 0.9617(3) 0.5268(7) 0.9519(3)
H19_5 H 0.9902 0.6404 0.9775
C36_6 C 0.9063(4) 0.4943(9) 0.9795(4)
H23_5 H 0.9789 0.5127 0.9335
H24_6 H 0.8848 0.4573 0.9797
N1_4 N 0.0691(3) 0.5270(6) 0.0477(3)
C31_6 C 0.0314(3) 0.3960(7) 0.0215(3)
C35_6 C 0.0383(3) 0.4732(7) 0.0481(3)
H19_6 H 0.0098 0.3596 0.0225
C36_7 C 0.0937(4) 0.5057(9) 0.0205(4)
H23_6 H 0.0211 0.4873 0.0665
H24_7 H 0.1152 0.5427 0.0203
Zn4_4 Zn 0.08369(4) 0.63167(9) 0.09243(4)
I1_7 I 0.12041(3) 0.74635(5) 0.05554(3)
I2_7 I 0.02644(3) 0.65509(6) 0.13106(2)
N2_7 N 0.1243(3) 0.5636(6) 0.1388(3)
C1_7 C 0.1523(3) 0.6059(7) 0.1676(3)
C2_7 C 0.1191(4) 0.4743(9) 0.1447(4)
C3_7 C 0.1745(3) 0.5626(7) 0.2028(3)
H1_7 H 0.1568 0.6672 0.1634
C4_7 C 0.1403(4) 0.4257(8) 0.1785(4)
H2_7 H 0.1001 0.4442 0.1246
H3_7 H 0.1931 0.5946 0.2226
C5_7 C 0.1690(3) 0.4697(7) 0.2089(3)
H4_7 H 0.1356 0.3641 0.1812
C6_7 C 0.1922(3) 0.4177(6) 0.2457(3)
N3_7 N 0.1824(2) 0.3306(6) 0.2489(3)
N4_7 N 0.2217(2) 0.4590(6) 0.2719(3)
C7_7 C 0.2048(3) 0.2844(7) 0.2816(3)
C8_7 C 0.2409(3) 0.4076(7) 0.3048(3)
C9_7 C 0.1964(3) 0.1870(7) 0.2821(3)
N5_7 N 0.2334(2) 0.3195(6) 0.3109(3)
C10_7 C 0.2728(3) 0.4520(7) 0.3363(3)
C11_7 C 0.1630(4) 0.1514(8) 0.2549(4)
C12_7 C 0.2223(3) 0.1252(7) 0.3059(4)
C13_7 C 0.2920(3) 0.4078(8) 0.3730(3)
C14_7 C 0.2832(3) 0.5407(7) 0.3291(3)
C15_7 C 0.1567(4) 0.0592(8) 0.2535(4)
H5_7 H 0.1451 0.1900 0.2379
C16_7 C 0.2149(3) 0.0334(8) 0.3011(3)
H6_7 H 0.2445 0.1456 0.3251
C17_7 C 0.3211(3) 0.4539(7) 0.4015(3)
H7_7 H 0.2856 0.3484 0.3788
C18_7 C 0.3126(3) 0.5808(7) 0.3589(3)
H8_7 H 0.2705 0.5724 0.3046
N6_7 N 0.1823(3) 0.0016(6) 0.2757(3)
H9_7 H 0.1337 0.0366 0.2364
N7_7 N 0.3313(2) 0.5389(6) 0.3951(3)
H11_7 H 0.3342 0.4237 0.4263
H12_7 H 0.3198 0.6399 0.3536
Zn3_7 Zn 0.37417(4) 0.59984(9) 0.44090(4)
N8_4 N 0.6375(3) 0.3440(6) 0.3183(3)
I5_7 I 0.39696(3) 0.73781(6) 0.40304(3)
I6_4 I 0.35106(2) 0.59656(8) 0.51316(3)
N9_7 N 0.4193(2) 0.5084(6) 0.4446(3)
C19_7 C 0.4344(4) 0.4939(9) 0.4086(3)
C20_7 C 0.4364(3) 0.4655(7) 0.4812(3)
C21_7 C 0.4661(4) 0.4411(9) 0.4082(3)
H13_7 H 0.4225 0.5217 0.3825
H14_4 H 0.4263 0.4747 0.5065
C22_7 C 0.4680(3) 0.4083(7) 0.4837(3)
C23_7 C 0.4835(3) 0.3963(7) 0.4459(3)
H15_7 H 0.4761 0.4351 0.3827
H16_4 H 0.4786 0.3787 0.5098
C24_7 C 0.5173(3) 0.3359(6) 0.4453(3)
N10_7 N 0.5391(2) 0.3551(6) 0.4151(3)
N11_7 N 0.5226(2) 0.2664(6) 0.4728(2)
C25_7 C 0.5673(3) 0.2945(7) 0.4131(3)
C26_7 C 0.5511(3) 0.2090(7) 0.4663(3)
C27_7 C 0.5920(3) 0.3121(7) 0.3808(3)
N12_7 N 0.5734(2) 0.2189(6) 0.4373(3)
C28_7 C 0.5563(3) 0.1261(7) 0.4941(3)
C29_7 C 0.5932(5) 0.3976(10) 0.3625(5)
C30_7 C 0.6151(5) 0.2459(10) 0.3687(6)
C31_7 C 0.5314(3) 0.1040(7) 0.5215(3)
C32_7 C 0.5880(4) 0.0684(10) 0.4932(4)
C33_7 C 0.6166(4) 0.4103(9) 0.3313(4)
H17_7 H 0.5787 0.4453 0.3707
C34_7 C 0.6380(6) 0.2679(10) 0.3387(6)
H18_7 H 0.6154 0.1877 0.3803
C35_7 C 0.5383(3) 0.0268(7) 0.5481(3)
H19_7 H 0.5098 0.1404 0.5225
H20_7 H 0.6051 0.0801 0.4743
H21_7 H 0.6177 0.4677 0.3191
H22_7 H 0.6553 0.2239 0.3326
H23_7 H 0.5211 0.0127 0.5665
Zn5_4 Zn 0.66882(4) 0.36405(9) 0.26885(4)
C2_8 C 0.6191(4) 0.9743(9) 0.1447(4)
C4_8 C 0.6403(4) 0.9257(8) 0.1785(4)
H2_8 H 0.6001 0.9442 0.1246
C5_8 C 0.6690(3) 0.9697(7) 0.2089(3)
H4_8 H 0.6356 0.8641 0.1812
C6_8 C 0.6922(3) 0.9177(6) 0.2457(3)
N3_8 N 0.6824(2) 0.8306(6) 0.2489(3)
N4_8 N 0.7217(2) 0.9590(6) 0.2719(3)
C7_8 C 0.7048(3) 0.7844(7) 0.2816(3)
C8_8 C 0.7409(3) 0.9076(7) 0.3048(3)
C9_8 C 0.6964(3) 0.6870(7) 0.2821(3)
N5_8 N 0.7334(2) 0.8195(6) 0.3109(3)
C10_8 C 0.7728(3) 0.9520(7) 0.3363(3)
C11_8 C 0.6630(4) 0.6514(8) 0.2549(4)
C12_8 C 0.7223(3) 0.6252(7) 0.3059(4)
C13_8 C 0.7920(3) 0.9078(8) 0.3730(3)
C15_8 C 0.6567(4) 0.5592(8) 0.2535(4)
H5_8 H 0.6451 0.6900 0.2379
C16_8 C 0.7149(3) 0.5334(8) 0.3011(3)
H6_8 H 0.7445 0.6456 0.3251
C17_8 C 0.8211(3) 0.9539(7) 0.4015(3)
H7_8 H 0.7856 0.8484 0.3788
N6_8 N 0.6823(3) 0.5016(6) 0.2757(3)
H9_8 H 0.6337 0.5366 0.2364
H10_7 H 0.7332 0.4926 0.3159
H11_8 H 0.8342 0.9237 0.4263
I3_7 I 0.62275(3) 0.34835(5) 0.19512(2)
I4_7 I 0.72975(2) 0.26677(5) 0.29116(2)
C19_8 C 0.9344(4) 0.9939(9) 0.4086(3)
C20_8 C 0.9364(3) 0.9655(7) 0.4812(3)
C21_8 C 0.9661(4) 0.9411(9) 0.4082(3)
H14_5 H 0.9263 0.9747 0.5065
C22_8 C 0.9680(3) 0.9083(7) 0.4837(3)
C23_8 C 0.9835(3) 0.8963(7) 0.4459(3)
H15_8 H 0.9761 0.9351 0.3827
H16_5 H 0.9786 0.8787 0.5098
H14_6 H 0.9263 0.0253 0.0065
H16_6 H 0.9786 0.1213 0.0098
I6_5 I 0.85106(2) 0.90344(8) 0.01316(3)
I1_8 I 0.37959(3) 0.75365(5) 0.94446(3)
Zn1_4 Zn 0.41631(4) 0.86833(9) 0.90757(4)
I2_8 I 0.47356(3) 0.84491(6) 0.86894(2)
N2_8 N 0.3757(3) 0.9364(6) 0.8612(3)
C1_8 C 0.3477(3) 0.8941(7) 0.8324(3)
C3_8 C 0.3255(3) 0.9374(7) 0.7972(3)
H1_8 H 0.3432 0.8328 0.8366
H3_8 H 0.3069 0.9054 0.7774
C14_8 C 0.2168(3) 0.9593(7) 0.6709(3)
C18_8 C 0.1874(3) 0.9192(7) 0.6411(3)
H8_8 H 0.2295 0.9276 0.6954
N7_8 N 0.1687(2) 0.9611(6) 0.6049(3)
H12_8 H 0.1802 0.8601 0.6464
Zn3_8 Zn 0.12583(4) 0.90016(9) 0.55910(4)
I5_8 I 0.10304(3) 0.76219(6) 0.59696(3)
I6_6 I 0.14894(2) 0.90344(8) 0.48684(3)
N9_8 N 0.0807(2) 0.9916(6) 0.5554(3)
H13_8 H 0.0775 0.9783 0.6175
N13_4 N 0.4309(3) 0.9730(6) 0.9523(3)
C36_8 C 0.4063(4) 0.9943(9) 0.9795(4)
H24_8 H 0.3848 0.9573 0.9797
I6_7 I 0.64894(2) 0.59656(8) 0.98684(3)
H14_7 H 0.5737 0.4747 0.9935
H16_7 H 0.5214 0.3787 0.9902
C31_8 C 0.4686(3) 0.1040(7) 0.9785(3)
C35_8 C 0.4617(3) 0.0268(7) 0.9519(3)
H19_8 H 0.4902 0.1404 0.9775
H23_8 H 0.4789 0.0127 0.9335
H10_8 H 0.7668 0.9926 0.1841
Zn2_4 Zn 0.83118(4) 0.86405(9) 0.23115(4)
I3_8 I 0.87725(3) 0.84835(5) 0.30488(2)
I4_8 I 0.77025(2) 0.76677(5) 0.20884(2)
N14_4 N 0.8625(3) 0.8440(6) 0.1817(3)
C24_8 C 0.9827(3) 0.8359(6) 0.0547(3)
N10_8 N 0.9609(2) 0.8551(6) 0.0849(3)
N11_8 N 0.9774(2) 0.7664(6) 0.0272(2)
C25_8 C 0.9327(3) 0.7945(7) 0.0869(3)
C26_8 C 0.9489(3) 0.7090(7) 0.0337(3)
C27_8 C 0.9080(3) 0.8121(7) 0.1192(3)
N12_8 N 0.9266(2) 0.7189(6) 0.0627(3)
C28_8 C 0.9437(3) 0.6261(7) 0.0059(3)
C29_8 C 0.9068(5) 0.8976(10) 0.1375(5)
C30_8 C 0.8849(5) 0.7459(10) 0.1313(6)
C32_8 C 0.9120(4) 0.5684(10) 0.0068(4)
C33_8 C 0.8834(4) 0.9103(9) 0.1687(4)
H17_8 H 0.9213 0.9453 0.1293
C34_8 C 0.8620(6) 0.7679(10) 0.1613(6)
H18_8 H 0.8846 0.6877 0.1197
H20_8 H 0.8949 0.5801 0.0257
H21_8 H 0.8823 0.9677 0.1809
H22_8 H 0.8447 0.7239 0.1674
I6_8 I 0.14894(2) 0.09656(8) 0.98684(3)
H14_8 H 0.0737 0.9747 0.9935
H16_8 H 0.0214 0.8787 0.9902
loop_
_geom_bond_atom_site_label_1
_geom_bond_atom_site_label_2
_geom_bond_site_symmetry_1
_geom_bond_site_symmetry_2
C36 N1 1_555 1_555
H24 C36 1_555 1_555
Zn4 N1 1_555 1_555
I1 Zn4 1_555 1_555
Zn4 I2 1_555 1_555
N2 Zn4 1_555 1_555
C1 N2 1_555 1_555
C3 C1 1_555 1_555
H1 C1 1_555 1_555
H3 C3 1_555 1_555
C18 C14 1_555 1_555
H8 C14 1_555 1_555
H12 C18 1_555 1_555
Zn3 N7 1_555 1_555
I5 Zn3 1_555 1_555
I6 Zn3 1_555 1_555
N9 Zn3 1_555 1_555
C18 N7 1_555 1_555
I3 Zn2 1_555 1_555
I4 Zn2 1_555 1_555
N14 Zn2 1_555 1_555
N14 C33 1_555 1_555
N10 C24 1_555 1_555
N11 C24 1_555 1_555
C25 N10 1_555 1_555
C26 N11 1_555 1_555
C27 C25 1_555 1_555
N12 C25 1_555 1_555
C28 C26 1_555 1_555
C29 C27 1_555 1_555
C30 C27 1_555 1_555
C32 C28 1_555 1_555
C33 C29 1_555 1_555
H17 C29 1_555 1_555
C34 N14 1_555 1_555
H18 C30 1_555 1_555
H20 C32 1_555 1_555
H21 C33 1_555 1_555
H22 C34 1_555 1_555
C26 N12 1_555 1_555
C30 C34 1_555 1_555
C35 C31 1_555 1_555
H19 C31 1_555 1_555
H23 C35 1_555 1_555
I1_2 Zn1 1_555 1_555
Zn1 I2_2 1_555 1_555
N2_2 Zn1 1_555 1_555
C1_2 N2_2 1_555 1_555
C2 N2_2 1_555 1_555
C3_2 C1_2 1_555 1_555
H1_2 C1_2 1_555 1_555
C4 C2 1_555 1_555
H2 C2 1_555 1_555
H3_2 C3_2 1_555 1_555
C5 C3_2 1_555 1_555
H4 C4 1_555 1_555
C6 C5 1_555 1_555
N3 C6 1_555 1_555
N4 C6 1_555 1_555
C7 N3 1_555 1_555
C8 N4 1_555 1_555
C9 C7 1_555 1_555
N5 C7 1_555 1_555
C10 C8 1_555 1_555
C11 C9 1_555 1_555
C12 C9 1_555 1_555
C13 C10 1_555 1_555
C14_2 C10 1_555 1_555
C15 C11 1_555 1_555
H5 C11 1_555 1_555
C16 C12 1_555 1_555
H6 C12 1_555 1_555
C17 C13 1_555 1_555
H7 C13 1_555 1_555
C18_2 C14_2 1_555 1_555
H8_2 C14_2 1_555 1_555
N6 C15 1_555 1_555
H9 C15 1_555 1_555
N7_2 C17 1_555 1_555
H11 C17 1_555 1_555
H12_2 C18_2 1_555 1_555
Zn3_2 N7_2 1_555 1_555
N8 C33_2 1_555 1_555
I5_2 Zn3_2 1_555 1_555
N9_2 Zn3_2 1_555 1_555
C19 N9_2 1_555 1_555
C20 N9_2 1_555 1_555
C21 C19 1_555 1_555
H13_2 C19 1_555 1_555
C22 C20 1_555 1_555
C23 C21 1_555 1_555
H15 C21 1_555 1_555
C24_2 C23 1_555 1_555
N10_2 C24_2 1_555 1_555
N11_2 C24_2 1_555 1_555
C25_2 N10_2 1_555 1_555
C26_2 N11_2 1_555 1_555
C27_2 C25_2 1_555 1_555
N12_2 C25_2 1_555 1_555
C28_2 C26_2 1_555 1_555
C29_2 C27_2 1_555 1_555
C30_2 C27_2 1_555 1_555
C32_2 C28_2 1_555 1_555
C33_2 C29_2 1_555 1_555
H17_2 C29_2 1_555 1_555
C34_2 N8 1_555 1_555
H18_2 C30_2 1_555 1_555
H20_2 C32_2 1_555 1_555
H21_2 C33_2 1_555 1_555
H22_2 C34_2 1_555 1_555
N13 Zn1 1_555 1_555
Zn5 N8 1_555 1_555
C4 C5 1_555 1_555
C8 N5 1_555 1_555
C16 N6 1_555 1_555
C18_2 N7_2 1_555 1_555
C22 C23 1_555 1_555
C26_2 N12_2 1_555 1_555
C30_2 C34_2 1_555 1_555
C4_2 C2_2 1_555 1_555
H2_2 C2_2 1_555 1_555
H4_2 C4_2 1_555 1_555
C6_2 C5_2 1_555 1_555
N3_2 C6_2 1_555 1_555
N4_2 C6_2 1_555 1_555
C7_2 N3_2 1_555 1_555
C8_2 N4_2 1_555 1_555
C9_2 C7_2 1_555 1_555
N5_2 C7_2 1_555 1_555
C10_2 C8_2 1_555 1_555
C11_2 C9_2 1_555 1_555
C12_2 C9_2 1_555 1_555
C13_2 C10_2 1_555 1_555
C15_2 C11_2 1_555 1_555
H5_2 C11_2 1_555 1_555
C16_2 C12_2 1_555 1_555
H6_2 C12_2 1_555 1_555
C17_2 C13_2 1_555 1_555
H7_2 C13_2 1_555 1_555
N6_2 C15_2 1_555 1_555
H9_2 C15_2 1_555 1_555
H10_2 C16_2 1_555 1_555
H11_2 C17_2 1_555 1_555
Zn5 N6_2 1_555 1_555
I3_2 Zn5 1_555 1_555
I4_2 Zn5 1_555 1_555
C21_2 C19_2 1_555 1_555
C22_2 C20_2 1_555 1_555
C23_2 C21_2 1_555 1_555
H15_2 C21_2 1_555 1_555
C4_2 C5_2 1_555 1_555
C8_2 N5_2 1_555 1_555
C16_2 N6_2 1_555 1_555
C22_2 C23_2 1_555 1_555
I1_3 Zn1_2 1_555 1_555
Zn1_2 I2_3 1_555 1_555
N2_3 Zn1_2 1_555 1_555
C1_3 N2_3 1_555 1_555
C3_3 C1_3 1_555 1_555
H1_3 C1_3 1_555 1_555
H3_3 C3_3 1_555 1_555
C18_3 C14_3 1_555 1_555
H8_3 C14_3 1_555 1_555
H12_3 C18_3 1_555 1_555
Zn3_3 N7_3 1_555 1_555
I5_3 Zn3_3 1_555 1_555
N9_3 Zn3_3 1_555 1_555
N13_2 Zn1_2 1_555 1_555
C18_3 N7_3 1_555 1_555
I3_3 Zn2_2 1_555 1_555
I4_3 Zn2_2 1_555 1_555
C36_2 N13_2 1_555 1_555
H24_2 C36_2 1_555 1_555
N14_2 Zn2_2 1_555 1_555
N13 C35_2 1_555 1_555
N14_2 C33_3 1_555 1_555
N10_3 C24_3 1_555 1_555
N11_3 C24_3 1_555 1_555
C25_3 N10_3 1_555 1_555
C26_3 N11_3 1_555 1_555
C27_3 C25_3 1_555 1_555
N12_3 C25_3 1_555 1_555
C28_3 C26_3 1_555 1_555
C29_3 C27_3 1_555 1_555
C30_3 C27_3 1_555 1_555
C31_2 C28_3 1_555 1_555
C32_3 C28_3 1_555 1_555
C33_3 C29_3 1_555 1_555
H17_3 C29_3 1_555 1_555
C34_3 N14_2 1_555 1_555
H18_3 C30_3 1_555 1_555
C35_2 C31_2 1_555 1_555
H19_2 C31_2 1_555 1_555
C36_3 N13 1_555 1_555
H20_3 C32_3 1_555 1_555
H21_3 C33_3 1_555 1_555
H22_3 C34_3 1_555 1_555
H23_2 C35_2 1_555 1_555
H24_3 C36_3 1_555 1_555
C26_3 N12_3 1_555 1_555
C30_3 C34_3 1_555 1_555
C32_3 C36_3 1_555 1_555
I3_4 Zn2_3 1_555 1_555
I4_4 Zn2_3 1_555 1_555
C36_4 N1_2 1_555 1_555
H24_4 C36_4 1_555 1_555
Zn4_2 N1_2 1_555 1_555
N14_3 Zn2_3 1_555 1_555
N1_3 C35_3 1_555 1_555
N14_3 C33_4 1_555 1_555
N10_4 C24_4 1_555 1_555
N11_4 C24_4 1_555 1_555
C25_4 N10_4 1_555 1_555
C26_4 N11_4 1_555 1_555
C27_4 C25_4 1_555 1_555
N12_4 C25_4 1_555 1_555
C28_4 C26_4 1_555 1_555
C29_4 C27_4 1_555 1_555
C30_4 C27_4 1_555 1_555
C31_3 C28_4 1_555 1_555
C32_4 C28_4 1_555 1_555
C33_4 C29_4 1_555 1_555
H17_4 C29_4 1_555 1_555
C34_4 N14_3 1_555 1_555
H18_4 C30_4 1_555 1_555
C35_3 C31_3 1_555 1_555
H19_3 C31_3 1_555 1_555
C36_5 N1_3 1_555 1_555
H20_4 C32_4 1_555 1_555
H21_4 C33_4 1_555 1_555
H22_4 C34_4 1_555 1_555
H23_3 C35_3 1_555 1_555
H24_5 C36_5 1_555 1_555
Zn4_3 N1_3 1_555 1_555
C26_4 N12_4 1_555 1_555
C30_4 C34_4 1_555 1_555
C32_4 C36_5 1_555 1_555
I1_4 Zn4_3 1_555 1_555
Zn4_3 I2_4 1_555 1_555
N2_4 Zn4_3 1_555 1_555
C1_4 N2_4 1_555 1_555
C2_3 N2_4 1_555 1_555
C3_4 C1_4 1_555 1_555
H1_4 C1_4 1_555 1_555
C4_3 C2_3 1_555 1_555
H2_3 C2_3 1_555 1_555
H3_4 C3_4 1_555 1_555
C5_3 C3_4 1_555 1_555
H4_3 C4_3 1_555 1_555
C6_3 C5_3 1_555 1_555
N3_3 C6_3 1_555 1_555
N4_3 C6_3 1_555 1_555
C7_3 N3_3 1_555 1_555
C8_3 N4_3 1_555 1_555
C9_3 C7_3 1_555 1_555
N5_3 C7_3 1_555 1_555
C10_3 C8_3 1_555 1_555
C11_3 C9_3 1_555 1_555
C12_3 C9_3 1_555 1_555
C13_3 C10_3 1_555 1_555
C14_4 C10_3 1_555 1_555
C15_3 C11_3 1_555 1_555
H5_3 C11_3 1_555 1_555
C16_3 C12_3 1_555 1_555
H6_3 C12_3 1_555 1_555
C17_3 C13_3 1_555 1_555
H7_3 C13_3 1_555 1_555
C18_4 C14_4 1_555 1_555
H8_4 C14_4 1_555 1_555
N6_3 C15_3 1_555 1_555
H9_3 C15_3 1_555 1_555
N7_4 C17_3 1_555 1_555
H11_3 C17_3 1_555 1_555
H12_4 C18_4 1_555 1_555
Zn3_4 N7_4 1_555 1_555
N8_2 C33_5 1_555 1_555
I5_4 Zn3_4 1_555 1_555
N9_4 Zn3_4 1_555 1_555
C19_3 N9_4 1_555 1_555
C20_3 N9_4 1_555 1_555
C21_3 C19_3 1_555 1_555
H13_4 C19_3 1_555 1_555
C22_3 C20_3 1_555 1_555
C23_3 C21_3 1_555 1_555
H15_3 C21_3 1_555 1_555
C24_5 C23_3 1_555 1_555
N10_5 C24_5 1_555 1_555
N11_5 C24_5 1_555 1_555
C25_5 N10_5 1_555 1_555
C26_5 N11_5 1_555 1_555
C27_5 C25_5 1_555 1_555
N12_5 C25_5 1_555 1_555
C28_5 C26_5 1_555 1_555
C29_5 C27_5 1_555 1_555
C30_5 C27_5 1_555 1_555
C32_5 C28_5 1_555 1_555
C33_5 C29_5 1_555 1_555
H17_5 C29_5 1_555 1_555
C34_5 N8_2 1_555 1_555
H18_5 C30_5 1_555 1_555
H20_5 C32_5 1_555 1_555
H21_5 C33_5 1_555 1_555
H22_5 C34_5 1_555 1_555
Zn5_2 N8_2 1_555 1_555
C4_3 C5_3 1_555 1_555
C8_3 N5_3 1_555 1_555
C16_3 N6_3 1_555 1_555
C18_4 N7_4 1_555 1_555
C22_3 C23_3 1_555 1_555
C26_5 N12_5 1_555 1_555
C30_5 C34_5 1_555 1_555
I1_5 Zn4_2 1_555 1_555
Zn4_2 I2_5 1_555 1_555
N2_5 Zn4_2 1_555 1_555
C1_5 N2_5 1_555 1_555
C3_5 C1_5 1_555 1_555
H1_5 C1_5 1_555 1_555
H3_5 C3_5 1_555 1_555
C18_5 C14_5 1_555 1_555
H8_5 C14_5 1_555 1_555
H12_5 C18_5 1_555 1_555
Zn3_5 N7_5 1_555 1_555
I5_5 Zn3_5 1_555 1_555
N9_5 Zn3_5 1_555 1_555
C18_5 N7_5 1_555 1_555
C4_4 C2_4 1_555 1_555
H2_4 C2_4 1_555 1_555
H4_4 C4_4 1_555 1_555
C6_4 C5_4 1_555 1_555
N3_4 C6_4 1_555 1_555
N4_4 C6_4 1_555 1_555
C7_4 N3_4 1_555 1_555
C8_4 N4_4 1_555 1_555
C9_4 C7_4 1_555 1_555
N5_4 C7_4 1_555 1_555
C10_4 C8_4 1_555 1_555
C11_4 C9_4 1_555 1_555
C12_4 C9_4 1_555 1_555
C13_4 C10_4 1_555 1_555
C15_4 C11_4 1_555 1_555
H5_4 C11_4 1_555 1_555
C16_4 C12_4 1_555 1_555
H6_4 C12_4 1_555 1_555
C17_4 C13_4 1_555 1_555
H7_4 C13_4 1_555 1_555
N6_4 C15_4 1_555 1_555
H9_4 C15_4 1_555 1_555
H10_5 C16_4 1_555 1_555
H11_4 C17_4 1_555 1_555
Zn5_2 N6_4 1_555 1_555
I3_5 Zn5_2 1_555 1_555
I4_5 Zn5_2 1_555 1_555
C21_4 C19_4 1_555 1_555
C22_4 C20_4 1_555 1_555
C23_4 C21_4 1_555 1_555
H15_4 C21_4 1_555 1_555
C4_4 C5_4 1_555 1_555
C8_4 N5_4 1_555 1_555
C16_4 N6_4 1_555 1_555
C22_4 C23_4 1_555 1_555
I1_6 Zn1_3 1_555 1_555
Zn1_3 I2_6 1_555 1_555
N2_6 Zn1_3 1_555 1_555
C1_6 N2_6 1_555 1_555
C2_5 N2_6 1_555 1_555
C3_6 C1_6 1_555 1_555
H1_6 C1_6 1_555 1_555
C4_5 C2_5 1_555 1_555
H2_5 C2_5 1_555 1_555
H3_6 C3_6 1_555 1_555
C5_5 C3_6 1_555 1_555
H4_5 C4_5 1_555 1_555
C6_5 C5_5 1_555 1_555
N3_5 C6_5 1_555 1_555
N4_5 C6_5 1_555 1_555
C7_5 N3_5 1_555 1_555
C8_5 N4_5 1_555 1_555
C9_5 C7_5 1_555 1_555
N5_5 C7_5 1_555 1_555
C10_5 C8_5 1_555 1_555
C11_5 C9_5 1_555 1_555
C12_5 C9_5 1_555 1_555
C13_5 C10_5 1_555 1_555
C14_6 C10_5 1_555 1_555
C15_5 C11_5 1_555 1_555
H5_5 C11_5 1_555 1_555
C16_5 C12_5 1_555 1_555
H6_5 C12_5 1_555 1_555
C17_5 C13_5 1_555 1_555
H7_5 C13_5 1_555 1_555
C18_6 C14_6 1_555 1_555
H8_6 C14_6 1_555 1_555
N6_5 C15_5 1_555 1_555
H9_5 C15_5 1_555 1_555
N7_6 C17_5 1_555 1_555
H11_5 C17_5 1_555 1_555
H12_6 C18_6 1_555 1_555
Zn3_6 N7_6 1_555 1_555
N8_3 C33_6 1_555 1_555
I5_6 Zn3_6 1_555 1_555
I6_3 Zn3_6 1_555 1_555
N9_6 Zn3_6 1_555 1_555
C19_5 N9_6 1_555 1_555
C20_5 N9_6 1_555 1_555
C21_5 C19_5 1_555 1_555
H13_6 C19_5 1_555 1_555
H14_2 C20_5 1_555 1_555
C22_5 C20_5 1_555 1_555
C23_5 C21_5 1_555 1_555
H15_5 C21_5 1_555 1_555
H16_2 C22_5 1_555 1_555
C24_6 C23_5 1_555 1_555
N10_6 C24_6 1_555 1_555
N11_6 C24_6 1_555 1_555
C25_6 N10_6 1_555 1_555
C26_6 N11_6 1_555 1_555
C27_6 C25_6 1_555 1_555
N12_6 C25_6 1_555 1_555
C28_6 C26_6 1_555 1_555
C29_6 C27_6 1_555 1_555
C30_6 C27_6 1_555 1_555
C31_4 C28_6 1_555 1_555
C32_6 C28_6 1_555 1_555
C33_6 C29_6 1_555 1_555
H17_6 C29_6 1_555 1_555
C34_6 N8_3 1_555 1_555
H18_6 C30_6 1_555 1_555
C35_4 C31_4 1_555 1_555
H19_4 C31_4 1_555 1_555
H20_6 C32_6 1_555 1_555
H21_6 C33_6 1_555 1_555
H22_6 C34_6 1_555 1_555
H23_4 C35_4 1_555 1_555
N13_3 Zn1_3 1_555 1_555
Zn5_3 N8_3 1_555 1_555
C4_5 C5_5 1_555 1_555
C8_5 N5_5 1_555 1_555
C16_5 N6_5 1_555 1_555
C18_6 N7_6 1_555 1_555
C22_5 C23_5 1_555 1_555
C26_6 N12_6 1_555 1_555
C30_6 C34_6 1_555 1_555
C4_6 C2_6 1_555 1_555
H2_6 C2_6 1_555 1_555
H4_6 C4_6 1_555 1_555
C6_6 C5_6 1_555 1_555
N3_6 C6_6 1_555 1_555
N4_6 C6_6 1_555 1_555
C7_6 N3_6 1_555 1_555
C8_6 N4_6 1_555 1_555
C9_6 C7_6 1_555 1_555
N5_6 C7_6 1_555 1_555
C10_6 C8_6 1_555 1_555
C11_6 C9_6 1_555 1_555
C12_6 C9_6 1_555 1_555
C13_6 C10_6 1_555 1_555
C15_6 C11_6 1_555 1_555
H5_6 C11_6 1_555 1_555
C16_6 C12_6 1_555 1_555
H6_6 C12_6 1_555 1_555
C17_6 C13_6 1_555 1_555
H7_6 C13_6 1_555 1_555
N6_6 C15_6 1_555 1_555
H9_6 C15_6 1_555 1_555
H10_6 C16_6 1_555 1_555
H11_6 C17_6 1_555 1_555
Zn5_3 N6_6 1_555 1_555
I3_6 Zn5_3 1_555 1_555
I4_6 Zn5_3 1_555 1_555
C21_6 C19_6 1_555 1_555
H14_3 C20_6 1_555 1_555
C22_6 C20_6 1_555 1_555
C23_6 C21_6 1_555 1_555
H15_6 C21_6 1_555 1_555
H16_3 C22_6 1_555 1_555
C4_6 C5_6 1_555 1_555
C8_6 N5_6 1_555 1_555
C16_6 N6_6 1_555 1_555
C22_6 C23_6 1_555 1_555
N13_3 C35_5 1_555 1_555
C35_5 C31_5 1_555 1_555
H19_5 C31_5 1_555 1_555
C36_6 N13_3 1_555 1_555
H23_5 C35_5 1_555 1_555
H24_6 C36_6 1_555 1_555
N1_4 C35_6 1_555 1_555
C35_6 C31_6 1_555 1_555
H19_6 C31_6 1_555 1_555
C36_7 N1_4 1_555 1_555
H23_6 C35_6 1_555 1_555
H24_7 C36_7 1_555 1_555
Zn4_4 N1_4 1_555 1_555
I1_7 Zn4_4 1_555 1_555
Zn4_4 I2_7 1_555 1_555
N2_7 Zn4_4 1_555 1_555
C1_7 N2_7 1_555 1_555
C2_7 N2_7 1_555 1_555
C3_7 C1_7 1_555 1_555
H1_7 C1_7 1_555 1_555
C4_7 C2_7 1_555 1_555
H2_7 C2_7 1_555 1_555
H3_7 C3_7 1_555 1_555
C5_7 C3_7 1_555 1_555
H4_7 C4_7 1_555 1_555
C6_7 C5_7 1_555 1_555
N3_7 C6_7 1_555 1_555
N4_7 C6_7 1_555 1_555
C7_7 N3_7 1_555 1_555
C8_7 N4_7 1_555 1_555
C9_7 C7_7 1_555 1_555
N5_7 C7_7 1_555 1_555
C10_7 C8_7 1_555 1_555
C11_7 C9_7 1_555 1_555
C12_7 C9_7 1_555 1_555
C13_7 C10_7 1_555 1_555
C14_7 C10_7 1_555 1_555
C15_7 C11_7 1_555 1_555
H5_7 C11_7 1_555 1_555
C16_7 C12_7 1_555 1_555
H6_7 C12_7 1_555 1_555
C17_7 C13_7 1_555 1_555
H7_7 C13_7 1_555 1_555
C18_7 C14_7 1_555 1_555
H8_7 C14_7 1_555 1_555
N6_7 C15_7 1_555 1_555
H9_7 C15_7 1_555 1_555
N7_7 C17_7 1_555 1_555
H11_7 C17_7 1_555 1_555
H12_7 C18_7 1_555 1_555
Zn3_7 N7_7 1_555 1_555
N8_4 C33_7 1_555 1_555
I5_7 Zn3_7 1_555 1_555
I6_4 Zn3_7 1_555 1_555
N9_7 Zn3_7 1_555 1_555
C19_7 N9_7 1_555 1_555
C20_7 N9_7 1_555 1_555
C21_7 C19_7 1_555 1_555
H13_7 C19_7 1_555 1_555
H14_4 C20_7 1_555 1_555
C22_7 C20_7 1_555 1_555
C23_7 C21_7 1_555 1_555
H15_7 C21_7 1_555 1_555
H16_4 C22_7 1_555 1_555
C24_7 C23_7 1_555 1_555
N10_7 C24_7 1_555 1_555
N11_7 C24_7 1_555 1_555
C25_7 N10_7 1_555 1_555
C26_7 N11_7 1_555 1_555
C27_7 C25_7 1_555 1_555
N12_7 C25_7 1_555 1_555
C28_7 C26_7 1_555 1_555
C29_7 C27_7 1_555 1_555
C30_7 C27_7 1_555 1_555
C31_7 C28_7 1_555 1_555
C32_7 C28_7 1_555 1_555
C33_7 C29_7 1_555 1_555
H17_7 C29_7 1_555 1_555
C34_7 N8_4 1_555 1_555
H18_7 C30_7 1_555 1_555
C35_7 C31_7 1_555 1_555
H19_7 C31_7 1_555 1_555
H20_7 C32_7 1_555 1_555
H21_7 C33_7 1_555 1_555
H22_7 C34_7 1_555 1_555
H23_7 C35_7 1_555 1_555
Zn5_4 N8_4 1_555 1_555
C4_7 C5_7 1_555 1_555
C8_7 N5_7 1_555 1_555
C16_7 N6_7 1_555 1_555
C18_7 N7_7 1_555 1_555
C22_7 C23_7 1_555 1_555
C26_7 N12_7 1_555 1_555
C30_7 C34_7 1_555 1_555
C4_8 C2_8 1_555 1_555
H2_8 C2_8 1_555 1_555
H4_8 C4_8 1_555 1_555
C6_8 C5_8 1_555 1_555
N3_8 C6_8 1_555 1_555
N4_8 C6_8 1_555 1_555
C7_8 N3_8 1_555 1_555
C8_8 N4_8 1_555 1_555
C9_8 C7_8 1_555 1_555
N5_8 C7_8 1_555 1_555
C10_8 C8_8 1_555 1_555
C11_8 C9_8 1_555 1_555
C12_8 C9_8 1_555 1_555
C13_8 C10_8 1_555 1_555
C15_8 C11_8 1_555 1_555
H5_8 C11_8 1_555 1_555
C16_8 C12_8 1_555 1_555
H6_8 C12_8 1_555 1_555
C17_8 C13_8 1_555 1_555
H7_8 C13_8 1_555 1_555
N6_8 C15_8 1_555 1_555
H9_8 C15_8 1_555 1_555
H10_7 C16_8 1_555 1_555
H11_8 C17_8 1_555 1_555
Zn5_4 N6_8 1_555 1_555
I3_7 Zn5_4 1_555 1_555
I4_7 Zn5_4 1_555 1_555
C21_8 C19_8 1_555 1_555
H14_5 C20_8 1_555 1_555
C22_8 C20_8 1_555 1_555
C23_8 C21_8 1_555 1_555
H15_8 C21_8 1_555 1_555
H16_5 C22_8 1_555 1_555
C4_8 C5_8 1_555 1_555
C8_8 N5_8 1_555 1_555
C16_8 N6_8 1_555 1_555
C22_8 C23_8 1_555 1_555
I1_8 Zn1_4 1_555 1_555
Zn1_4 I2_8 1_555 1_555
N2_8 Zn1_4 1_555 1_555
C1_8 N2_8 1_555 1_555
C3_8 C1_8 1_555 1_555
H1_8 C1_8 1_555 1_555
H3_8 C3_8 1_555 1_555
C18_8 C14_8 1_555 1_555
H8_8 C14_8 1_555 1_555
H12_8 C18_8 1_555 1_555
Zn3_8 N7_8 1_555 1_555
I5_8 Zn3_8 1_555 1_555
I6_6 Zn3_8 1_555 1_555
N9_8 Zn3_8 1_555 1_555
N13_4 Zn1_4 1_555 1_555
C18_8 N7_8 1_555 1_555
C36_8 N13_4 1_555 1_555
H24_8 C36_8 1_555 1_555
C35_8 C31_8 1_555 1_555
H19_8 C31_8 1_555 1_555
H23_8 C35_8 1_555 1_555
I3_8 Zn2_4 1_555 1_555
I4_8 Zn2_4 1_555 1_555
N14_4 Zn2_4 1_555 1_555
N14_4 C33_8 1_555 1_555
N10_8 C24_8 1_555 1_555
N11_8 C24_8 1_555 1_555
C25_8 N10_8 1_555 1_555
C26_8 N11_8 1_555 1_555
C27_8 C25_8 1_555 1_555
N12_8 C25_8 1_555 1_555
C28_8 C26_8 1_555 1_555
C29_8 C27_8 1_555 1_555
C30_8 C27_8 1_555 1_555
C32_8 C28_8 1_555 1_555
C33_8 C29_8 1_555 1_555
H17_8 C29_8 1_555 1_555
C34_8 N14_4 1_555 1_555
H18_8 C30_8 1_555 1_555
H20_8 C32_8 1_555 1_555
H21_8 C33_8 1_555 1_555
H22_8 C34_8 1_555 1_555
C26_8 N12_8 1_555 1_555
C30_8 C34_8 1_555 1_555

#END
