
###############################################################################
#
# This file contains modified crystal structure data generated from the
# MOF subset of the Cambridge Structural Database (CSD) v543 
# hosted by the Cambridge Crystallographic Data Centre (CCDC).
#
# This work is licensed under the Creative Commons
# Attribution-NonCommercial-ShareAlike 4.0 International License.
# To view a copy of this license, visit
# http://creativecommons.org/licenses/by-nc-sa/4.0/
# or send a letter to
# Creative Commons, PO Box 1866, Mountain View, CA 94042, USA.
#
# CIF created using the CSD Python API on 29 September 2022
# The structure has been converted into the P1 space group
# The structure has a 3D framework
# The original CSD entry IYOCIK is in the monoclinic crystal system
# The framework has been calculated to contain at least 10.0% void space
# The void calculation uses a probe of radius 1.32A, grid spacing 0.4
#
###############################################################################

data_IYOCIK
_chemical_formula_moiety         '(C288 H192 I48 N96 Zn24)n'
_symmetry_cell_setting           triclinic
_symmetry_space_group_name_H-M   'P 1'
_symmetry_Int_Tables_number      1
_space_group_name_Hall           'P 1'
loop_
_symmetry_equiv_pos_site_id
_symmetry_equiv_pos_as_xyz
1 x,y,z
_cell_length_a                   34.895(2)
_cell_length_b                   14.6553(9)
_cell_length_c                   31.3930(18)
_cell_angle_alpha                90
_cell_angle_beta                 101.491(3)
_cell_angle_gamma                90
_cell_volume                     15732.5
loop_
_atom_site_label
_atom_site_type_symbol
_atom_site_fract_x
_atom_site_fract_y
_atom_site_fract_z
H3 H 0.2320 0.0079 0.3154
C35 C 0.5936(4) 0.0072(9) 0.5199(4)
H23 H 0.6144 0.0464 0.5190
I1 I 0.12022(2) 0.15173(5) 0.19573(2)
I2 I 0.22737(2) 0.23555(5) 0.29022(2)
N12 N 0.5699(3) 0.0267(6) 0.5473(3)
Zn1 Zn 0.16684(4) 0.13635(9) 0.26845(4)
N13 N 0.1363(3) 0.1546(6) 0.3179(3)
Zn5 Zn 0.58379(5) 0.13248(9) 0.59200(5)
C19 C 0.0179(3) 0.1634(6) 0.4443(3)
C20 C 0.0521(3) 0.2911(7) 0.4665(3)
C21 C 0.0679(3) 0.2057(7) 0.4129(3)
C27 C 0.0923(3) 0.1876(7) 0.3804(3)
C28 C 0.1123(3) 0.2578(8) 0.3643(4)
H17 H 0.1112 0.3171 0.3745
C29 C 0.1332(4) 0.2388(8) 0.3340(4)
H18 H 0.1463 0.2864 0.3235
C30 C 0.1179(3) 0.0875(8) 0.3338(4)
H19 H 0.1203 0.0286 0.3237
C31 C 0.0957(3) 0.1011(8) 0.3644(4)
H20 H 0.0830 0.0522 0.3744
C32 C 0.0577(3) 0.3744(7) 0.4933(3)
C33 C 0.0319(3) 0.3960(7) 0.5204(3)
H21 H 0.0101 0.3596 0.5208
C34 C 0.0391(3) 0.4725(7) 0.5469(3)
H22 H 0.0219 0.4864 0.5651
C35_2 C 0.0936(4) 0.5072(9) 0.5199(4)
H23_2 H 0.1144 0.5464 0.5190
C36 C 0.0888(3) 0.4320(8) 0.4931(4)
H24 H 0.1064 0.4204 0.4750
N7 N 0.0397(2) 0.1445(6) 0.4149(3)
N8 N 0.0742(2) 0.2818(6) 0.4368(3)
N9 N 0.0239(2) 0.2332(6) 0.4722(3)
N12_2 N 0.0699(3) 0.5267(6) 0.5473(3)
Zn5_2 Zn 0.08379(5) 0.63248(9) 0.59200(5)
C1 C 0.2418(3) 0.4100(7) 0.8026(3)
C2 C 0.1941(3) 0.4201(7) 0.7437(3)
C3 C 0.2053(3) 0.2867(7) 0.7791(3)
C4 C 0.1968(3) 0.1877(7) 0.7800(3)
C5 C 0.1623(3) 0.1537(7) 0.7546(4)
H1 H 0.1439 0.1932 0.7389
C6 C 0.1559(3) 0.0616(7) 0.7530(4)
H2 H 0.1330 0.0398 0.7356
C7 C 0.2141(3) 0.0334(7) 0.8002(3)
C8 C 0.2222(3) 0.1256(7) 0.8036(3)
H4 H 0.2449 0.1459 0.8219
C9 C 0.2735(3) 0.4539(7) 0.8345(3)
C10 C 0.2845(3) 0.5435(7) 0.8276(4)
H5 H 0.2725 0.5754 0.8030
C11 C 0.3133(3) 0.5833(7) 0.8578(4)
H6 H 0.3205 0.6431 0.8532
C12 C 0.3211(3) 0.4544(7) 0.9002(4)
H7 H 0.3337 0.4243 0.9251
C13 C 0.2924(3) 0.4089(7) 0.8713(3)
H8 H 0.2860 0.3489 0.8766
C14 C 0.1711(3) 0.4714(7) 0.7068(4)
C15 C 0.1426(4) 0.4264(8) 0.6761(4)
H9 H 0.1385 0.3640 0.6782
C16 C 0.1212(4) 0.4759(8) 0.6434(4)
H10 H 0.1023 0.4454 0.6234
C17 C 0.1526(3) 0.6081(7) 0.6660(3)
H11 H 0.1565 0.6701 0.6621
C18 C 0.1755(3) 0.5641(7) 0.7011(3)
H12 H 0.1938 0.5969 0.7208
C19_2 C 0.5179(3) 0.3366(6) 0.9443(3)
C20_2 C 0.5521(3) 0.2089(7) 0.9665(3)
C21_2 C 0.5679(3) 0.2943(7) 0.9129(3)
C22 C 0.4842(3) 0.3973(6) 0.9449(3)
C23 C 0.4694(3) 0.4089(7) 0.9820(3)
C24 C 0.4367(3) 0.4662(7) 0.9793(3)
C25 C 0.4340(3) 0.4944(8) 0.9075(4)
H15 H 0.4217 0.5221 0.8817
C26 C 0.4658(3) 0.4404(8) 0.9070(4)
H16 H 0.4751 0.4325 0.8815
C27_2 C 0.5923(3) 0.3124(7) 0.8804(3)
C28_2 C 0.6123(3) 0.2422(8) 0.8643(4)
H17_2 H 0.6112 0.1829 0.8745
C29_2 C 0.6332(4) 0.2612(8) 0.8340(4)
H18_2 H 0.6463 0.2136 0.8235
C30_2 C 0.6179(3) 0.4125(8) 0.8338(4)
H19_2 H 0.6203 0.4714 0.8237
C31_2 C 0.5957(3) 0.3989(8) 0.8644(4)
H20_2 H 0.5830 0.4478 0.8744
C32_2 C 0.5577(3) 0.1256(7) 0.9933(3)
C36_2 C 0.5888(3) 0.0680(8) 0.9931(4)
H24_2 H 0.6064 0.0796 0.9750
I3 I 0.02628(3) 0.65252(6) 0.62988(3)
I4 I 0.11951(3) 0.74937(5) 0.55567(3)
I6 I 0.39850(3) 0.73870(5) 0.90293(3)
N1 N 0.2231(2) 0.4605(6) 0.7698(3)
N2 N 0.1834(2) 0.3327(6) 0.7469(3)
N3 N 0.2339(2) 0.3211(5) 0.8087(3)
N4 N 0.3315(2) 0.5407(6) 0.8935(3)
N5 N 0.1253(3) 0.5651(6) 0.6379(3)
N6 N 0.1807(2) 0.0018(6) 0.7751(3)
N7_2 N 0.5397(2) 0.3555(6) 0.9149(3)
N8_2 N 0.5742(2) 0.2182(6) 0.9368(3)
N9_2 N 0.5239(2) 0.2668(6) 0.9722(3)
N10 N 0.4197(2) 0.5093(6) 0.9434(3)
N11 N 0.6363(3) 0.3454(6) 0.8179(3)
Zn3 Zn 0.37456(4) 0.60040(9) 0.93974(5)
Zn4 Zn 0.66684(4) 0.36365(9) 0.76845(4)
C10_2 C 0.7845(3) 0.0435(7) 0.8276(4)
H5_2 H 0.7725 0.0754 0.8030
C11_2 C 0.8133(3) 0.0833(7) 0.8578(4)
H6_2 H 0.8205 0.1431 0.8532
C17_2 C 0.6526(3) 0.1081(7) 0.6660(3)
H11_2 H 0.6565 0.1701 0.6621
C18_2 C 0.6755(3) 0.0641(7) 0.7011(3)
H12_2 H 0.6938 0.0969 0.7208
H15_2 H 0.9217 0.0221 0.8817
I3_2 I 0.52628(3) 0.15252(6) 0.62988(3)
I4_2 I 0.61951(3) 0.24937(5) 0.55567(3)
I6_2 I 0.89850(3) 0.23870(5) 0.90293(3)
N4_2 N 0.8315(2) 0.0407(6) 0.8935(3)
N5_2 N 0.6253(3) 0.0651(6) 0.6379(3)
N10_2 N 0.9197(2) 0.0093(6) 0.9434(3)
Zn3_2 Zn 0.87456(4) 0.10040(9) 0.93974(5)
C1_2 C 0.7418(3) 0.9100(7) 0.8026(3)
C2_2 C 0.6941(3) 0.9201(7) 0.7437(3)
C3_2 C 0.7053(3) 0.7867(7) 0.7791(3)
C4_2 C 0.6968(3) 0.6877(7) 0.7800(3)
C5_2 C 0.6623(3) 0.6537(7) 0.7546(4)
H1_2 H 0.6439 0.6932 0.7389
C6_2 C 0.6559(3) 0.5616(7) 0.7530(4)
H2_2 H 0.6330 0.5398 0.7356
C7_2 C 0.7141(3) 0.5334(7) 0.8002(3)
H3_2 H 0.7320 0.4921 0.8154
C8_2 C 0.7222(3) 0.6256(7) 0.8036(3)
H4_2 H 0.7449 0.6459 0.8219
C9_2 C 0.7735(3) 0.9539(7) 0.8345(3)
C12_2 C 0.8211(3) 0.9544(7) 0.9002(4)
H7_2 H 0.8337 0.9243 0.9251
C13_2 C 0.7924(3) 0.9089(7) 0.8713(3)
H8_2 H 0.7860 0.8489 0.8766
C14_2 C 0.6711(3) 0.9714(7) 0.7068(4)
C15_2 C 0.6426(4) 0.9264(8) 0.6761(4)
H9_2 H 0.6385 0.8640 0.6782
C16_2 C 0.6212(4) 0.9759(8) 0.6434(4)
H10_2 H 0.6023 0.9454 0.6234
C22_2 C 0.9842(3) 0.8973(6) 0.9449(3)
C23_2 C 0.9694(3) 0.9089(7) 0.9820(3)
C24_2 C 0.9367(3) 0.9662(7) 0.9793(3)
C25_2 C 0.9340(3) 0.9944(8) 0.9075(4)
C26_2 C 0.9658(3) 0.9404(8) 0.9070(4)
H16_2 H 0.9751 0.9325 0.8815
I1_2 I 0.62022(2) 0.34827(5) 0.69573(2)
I2_2 I 0.72737(2) 0.26445(5) 0.79022(2)
N1_2 N 0.7231(2) 0.9605(6) 0.7698(3)
N2_2 N 0.6834(2) 0.8327(6) 0.7469(3)
N3_2 N 0.7339(2) 0.8211(5) 0.8087(3)
N6_2 N 0.6807(2) 0.5018(6) 0.7751(3)
C1_3 C 0.2418(3) 0.5900(7) 0.3026(3)
C2_3 C 0.1941(3) 0.5799(7) 0.2437(3)
C3_3 C 0.2053(3) 0.7133(7) 0.2791(3)
C4_3 C 0.1968(3) 0.8123(7) 0.2800(3)
C5_3 C 0.1623(3) 0.8463(7) 0.2546(4)
H1_3 H 0.1439 0.8068 0.2389
C6_3 C 0.1559(3) 0.9384(7) 0.2530(4)
H2_3 H 0.1330 0.9602 0.2356
C7_3 C 0.2141(3) 0.9666(7) 0.3002(3)
C8_3 C 0.2222(3) 0.8744(7) 0.3036(3)
H4_3 H 0.2449 0.8541 0.3219
C9_3 C 0.2735(3) 0.5461(7) 0.3345(3)
C10_3 C 0.2845(3) 0.4565(7) 0.3276(4)
H5_3 H 0.2725 0.4246 0.3030
C11_3 C 0.3133(3) 0.4167(7) 0.3578(4)
H6_3 H 0.3205 0.3569 0.3532
C12_3 C 0.3211(3) 0.5456(7) 0.4002(4)
H7_3 H 0.3337 0.5757 0.4251
C13_3 C 0.2924(3) 0.5911(7) 0.3713(3)
H8_3 H 0.2860 0.6511 0.3766
C14_3 C 0.1711(3) 0.5286(7) 0.2068(4)
C15_3 C 0.1426(4) 0.5736(8) 0.1761(4)
H9_3 H 0.1385 0.6360 0.1782
C16_3 C 0.1212(4) 0.5241(8) 0.1434(4)
H10_3 H 0.1023 0.5546 0.1234
C17_3 C 0.1526(3) 0.3919(7) 0.1660(3)
H11_3 H 0.1565 0.3299 0.1621
C18_3 C 0.1755(3) 0.4359(7) 0.2011(3)
H12_3 H 0.1938 0.4031 0.2208
C19_3 C 0.5179(3) 0.6634(6) 0.4443(3)
C20_3 C 0.5521(3) 0.7911(7) 0.4665(3)
C21_3 C 0.5679(3) 0.7057(7) 0.4129(3)
C22_3 C 0.4842(3) 0.6027(6) 0.4449(3)
C23_3 C 0.4694(3) 0.5911(7) 0.4820(3)
H13 H 0.4807 0.6200 0.5079
C24_3 C 0.4367(3) 0.5338(7) 0.4793(3)
H14 H 0.4263 0.5258 0.5041
C25_3 C 0.4340(3) 0.5056(8) 0.4075(4)
H15_3 H 0.4217 0.4779 0.3817
C26_3 C 0.4658(3) 0.5596(8) 0.4070(4)
H16_3 H 0.4751 0.5675 0.3815
C27_3 C 0.5923(3) 0.6876(7) 0.3804(3)
C28_3 C 0.6123(3) 0.7578(8) 0.3643(4)
H17_3 H 0.6112 0.8171 0.3745
C29_3 C 0.6332(4) 0.7388(8) 0.3340(4)
H18_3 H 0.6463 0.7864 0.3235
C30_3 C 0.6179(3) 0.5875(8) 0.3338(4)
H19_3 H 0.6203 0.5286 0.3237
C31_3 C 0.5957(3) 0.6011(8) 0.3644(4)
H20_3 H 0.5830 0.5522 0.3744
C32_3 C 0.5577(3) 0.8744(7) 0.4933(3)
C33_2 C 0.5319(3) 0.8960(7) 0.5204(3)
H21_2 H 0.5101 0.8596 0.5208
C34_2 C 0.5391(3) 0.9725(7) 0.5469(3)
H22_2 H 0.5219 0.9864 0.5651
C36_3 C 0.5888(3) 0.9320(8) 0.4931(4)
H24_3 H 0.6064 0.9204 0.4750
I3_3 I 0.02628(3) 0.34748(6) 0.12988(3)
I4_3 I 0.11951(3) 0.25063(5) 0.05567(3)
I5 I 0.35190(2) 0.40435(7) 0.51126(3)
I6_3 I 0.39850(3) 0.26130(5) 0.40293(3)
N1_3 N 0.2231(2) 0.5395(6) 0.2698(3)
N2_3 N 0.1834(2) 0.6673(6) 0.2469(3)
N3_3 N 0.2339(2) 0.6789(5) 0.3087(3)
N4_3 N 0.3315(2) 0.4593(6) 0.3935(3)
N5_3 N 0.1253(3) 0.4349(6) 0.1379(3)
N6_3 N 0.1807(2) 0.9982(6) 0.2751(3)
N7_3 N 0.5397(2) 0.6445(6) 0.4149(3)
N8_3 N 0.5742(2) 0.7818(6) 0.4368(3)
N9_3 N 0.5239(2) 0.7332(6) 0.4722(3)
N10_3 N 0.4197(2) 0.4907(6) 0.4434(3)
N11_2 N 0.6363(3) 0.6546(6) 0.3179(3)
Zn2 Zn 0.08379(5) 0.36752(9) 0.09200(5)
Zn3_3 Zn 0.37456(4) 0.39960(9) 0.43974(5)
N14 N 0.0699(3) 0.4733(6) 0.0473(3)
Zn4_2 Zn 0.66684(4) 0.63635(9) 0.26845(4)
C1_4 C 0.7418(3) 0.0900(7) 0.3026(3)
C2_4 C 0.6941(3) 0.0799(7) 0.2437(3)
C3_4 C 0.7053(3) 0.2133(7) 0.2791(3)
C4_4 C 0.6968(3) 0.3123(7) 0.2800(3)
C5_4 C 0.6623(3) 0.3463(7) 0.2546(4)
H1_4 H 0.6439 0.3068 0.2389
C6_4 C 0.6559(3) 0.4384(7) 0.2530(4)
H2_4 H 0.6330 0.4602 0.2356
C7_4 C 0.7141(3) 0.4666(7) 0.3002(3)
H3_3 H 0.7320 0.5079 0.3154
C8_4 C 0.7222(3) 0.3744(7) 0.3036(3)
H4_4 H 0.7449 0.3541 0.3219
C9_4 C 0.7735(3) 0.0461(7) 0.3345(3)
C12_4 C 0.8211(3) 0.0456(7) 0.4002(4)
H7_4 H 0.8337 0.0757 0.4251
C13_4 C 0.7924(3) 0.0911(7) 0.3713(3)
H8_4 H 0.7860 0.1511 0.3766
C14_4 C 0.6711(3) 0.0286(7) 0.2068(4)
C15_4 C 0.6426(4) 0.0736(8) 0.1761(4)
H9_4 H 0.6385 0.1360 0.1782
C16_4 C 0.6212(4) 0.0241(8) 0.1434(4)
H10_4 H 0.6023 0.0546 0.1234
C22_4 C 0.9842(3) 0.1027(6) 0.4449(3)
C23_4 C 0.9694(3) 0.0911(7) 0.4820(3)
H13_2 H 0.9807 0.1200 0.5079
C24_4 C 0.9367(3) 0.0338(7) 0.4793(3)
H14_2 H 0.9263 0.0258 0.5041
C25_4 C 0.9340(3) 0.0056(8) 0.4075(4)
C26_4 C 0.9658(3) 0.0596(8) 0.4070(4)
H16_4 H 0.9751 0.0675 0.3815
I1_3 I 0.62022(2) 0.65173(5) 0.19573(2)
I2_3 I 0.72737(2) 0.73555(5) 0.29022(2)
N1_4 N 0.7231(2) 0.0395(6) 0.2698(3)
N2_4 N 0.6834(2) 0.1673(6) 0.2469(3)
N3_4 N 0.7339(2) 0.1789(5) 0.3087(3)
N6_4 N 0.6807(2) 0.4982(6) 0.2751(3)
C33_3 C 0.0319(3) 0.6040(7) 0.0204(3)
H21_3 H 0.0101 0.6404 0.0208
C34_3 C 0.0391(3) 0.5275(7) 0.0469(3)
H22_3 H 0.0219 0.5136 0.0651
C35_3 C 0.0936(4) 0.4928(9) 0.0199(4)
H23_3 H 0.1144 0.4536 0.0190
H3_4 H 0.7680 0.0079 0.1846
I1_4 I 0.87978(2) 0.15173(5) 0.30427(2)
I2_4 I 0.77263(2) 0.23555(5) 0.20978(2)
Zn1_2 Zn 0.83316(4) 0.13635(9) 0.23155(4)
N13_2 N 0.8637(3) 0.1546(6) 0.1821(3)
C19_4 C 0.9821(3) 0.1634(6) 0.0557(3)
C20_4 C 0.9479(3) 0.2911(7) 0.0335(3)
C21_4 C 0.9321(3) 0.2057(7) 0.0871(3)
C27_4 C 0.9077(3) 0.1876(7) 0.1196(3)
C28_4 C 0.8877(3) 0.2578(8) 0.1357(4)
H17_4 H 0.8888 0.3171 0.1255
C29_4 C 0.8668(4) 0.2388(8) 0.1660(4)
H18_4 H 0.8537 0.2864 0.1765
C30_4 C 0.8821(3) 0.0875(8) 0.1662(4)
H19_4 H 0.8797 0.0286 0.1763
C31_4 C 0.9043(3) 0.1011(8) 0.1356(4)
H20_4 H 0.9170 0.0522 0.1256
C32_4 C 0.9423(3) 0.3744(7) 0.0067(3)
C36_4 C 0.9112(3) 0.4320(8) 0.0069(4)
H24_4 H 0.8936 0.4204 0.0250
N7_4 N 0.9603(2) 0.1445(6) 0.0851(3)
N8_4 N 0.9258(2) 0.2818(6) 0.0632(3)
N9_4 N 0.9761(2) 0.2332(6) 0.0278(3)
C35_4 C 0.4064(4) 0.0072(9) 0.9801(4)
H23_4 H 0.3856 0.0464 0.9810
N12_3 N 0.4301(3) 0.0267(6) 0.9527(3)
Zn5_3 Zn 0.41621(5) 0.13248(9) 0.90800(5)
C10_4 C 0.2155(3) 0.0435(7) 0.6724(4)
H5_4 H 0.2275 0.0754 0.6970
C11_4 C 0.1867(3) 0.0833(7) 0.6422(4)
H6_4 H 0.1795 0.1431 0.6468
C17_4 C 0.3474(3) 0.1081(7) 0.8340(3)
H11_4 H 0.3435 0.1701 0.8379
C18_4 C 0.3245(3) 0.0641(7) 0.7989(3)
H12_4 H 0.3062 0.0969 0.7792
H15_4 H 0.0783 0.0221 0.6183
I3_4 I 0.47372(3) 0.15252(6) 0.87012(3)
I4_4 I 0.38049(3) 0.24937(5) 0.94433(3)
I5_2 I 0.14810(2) 0.09565(7) 0.48874(3)
I6_4 I 0.10150(3) 0.23870(5) 0.59707(3)
N4_4 N 0.1685(2) 0.0407(6) 0.6065(3)
N5_4 N 0.3747(3) 0.0651(6) 0.8621(3)
N10_4 N 0.0803(2) 0.0093(6) 0.5566(3)
Zn3_4 Zn 0.12544(4) 0.10040(9) 0.56026(5)
C1_5 C 0.7582(3) 0.5900(7) 0.1974(3)
C2_5 C 0.8059(3) 0.5799(7) 0.2563(3)
C3_5 C 0.7947(3) 0.7133(7) 0.2209(3)
C4_5 C 0.8032(3) 0.8123(7) 0.2200(3)
C5_5 C 0.8377(3) 0.8463(7) 0.2454(4)
H1_5 H 0.8561 0.8068 0.2611
C6_5 C 0.8441(3) 0.9384(7) 0.2470(4)
H2_5 H 0.8670 0.9602 0.2644
C7_5 C 0.7859(3) 0.9666(7) 0.1998(3)
C8_5 C 0.7778(3) 0.8744(7) 0.1964(3)
H4_5 H 0.7551 0.8541 0.1781
C9_5 C 0.7265(3) 0.5461(7) 0.1655(3)
C10_5 C 0.7155(3) 0.4565(7) 0.1724(4)
H5_5 H 0.7275 0.4246 0.1970
C11_5 C 0.6867(3) 0.4167(7) 0.1422(4)
H6_5 H 0.6795 0.3569 0.1468
C12_5 C 0.6789(3) 0.5456(7) 0.0998(4)
H7_5 H 0.6663 0.5757 0.0749
C13_5 C 0.7076(3) 0.5911(7) 0.1287(3)
H8_5 H 0.7140 0.6511 0.1234
C14_5 C 0.8289(3) 0.5286(7) 0.2932(4)
C15_5 C 0.8574(4) 0.5736(8) 0.3239(4)
H9_5 H 0.8615 0.6360 0.3218
C16_5 C 0.8788(4) 0.5241(8) 0.3566(4)
H10_5 H 0.8977 0.5546 0.3766
C17_5 C 0.8474(3) 0.3919(7) 0.3340(3)
H11_5 H 0.8435 0.3299 0.3379
C18_5 C 0.8245(3) 0.4359(7) 0.2989(3)
H12_5 H 0.8062 0.4031 0.2792
C19_5 C 0.4821(3) 0.6634(6) 0.0557(3)
C20_5 C 0.4479(3) 0.7911(7) 0.0335(3)
C21_5 C 0.4321(3) 0.7057(7) 0.0871(3)
C22_5 C 0.5158(3) 0.6027(6) 0.0551(3)
C23_5 C 0.5306(3) 0.5911(7) 0.0180(3)
C24_5 C 0.5633(3) 0.5338(7) 0.0207(3)
C25_5 C 0.5660(3) 0.5056(8) 0.0925(4)
H15_5 H 0.5783 0.4779 0.1183
C26_5 C 0.5342(3) 0.5596(8) 0.0930(4)
H16_5 H 0.5249 0.5675 0.1185
C27_5 C 0.4077(3) 0.6876(7) 0.1196(3)
C28_5 C 0.3877(3) 0.7578(8) 0.1357(4)
H17_5 H 0.3888 0.8171 0.1255
C29_5 C 0.3668(4) 0.7388(8) 0.1660(4)
H18_5 H 0.3537 0.7864 0.1765
C30_5 C 0.3821(3) 0.5875(8) 0.1662(4)
H19_5 H 0.3797 0.5286 0.1763
C31_5 C 0.4043(3) 0.6011(8) 0.1356(4)
H20_5 H 0.4170 0.5522 0.1256
C32_5 C 0.4423(3) 0.8744(7) 0.0067(3)
C36_5 C 0.4112(3) 0.9320(8) 0.0069(4)
H24_5 H 0.3936 0.9204 0.0250
I3_5 I 0.97372(3) 0.34748(6) 0.37012(3)
I4_5 I 0.88049(3) 0.25063(5) 0.44433(3)
I6_5 I 0.60150(3) 0.26130(5) 0.09707(3)
N1_5 N 0.7769(2) 0.5395(6) 0.2302(3)
N2_5 N 0.8166(2) 0.6673(6) 0.2531(3)
N3_5 N 0.7661(2) 0.6789(5) 0.1913(3)
N4_5 N 0.6685(2) 0.4593(6) 0.1065(3)
N5_5 N 0.8747(3) 0.4349(6) 0.3621(3)
N6_5 N 0.8193(2) 0.9982(6) 0.2249(3)
N7_5 N 0.4603(2) 0.6445(6) 0.0851(3)
N8_5 N 0.4258(2) 0.7818(6) 0.0632(3)
N9_5 N 0.4761(2) 0.7332(6) 0.0278(3)
N10_5 N 0.5803(2) 0.4907(6) 0.0566(3)
N11_3 N 0.3637(3) 0.6546(6) 0.1821(3)
Zn2_2 Zn 0.91621(5) 0.36752(9) 0.40800(5)
Zn3_5 Zn 0.62544(4) 0.39960(9) 0.06026(5)
N14_2 N 0.9301(3) 0.4733(6) 0.4527(3)
Zn4_3 Zn 0.33316(4) 0.63635(9) 0.23155(4)
C1_6 C 0.2582(3) 0.0900(7) 0.1974(3)
C2_6 C 0.3059(3) 0.0799(7) 0.2563(3)
C3_6 C 0.2947(3) 0.2133(7) 0.2209(3)
C4_6 C 0.3032(3) 0.3123(7) 0.2200(3)
C5_6 C 0.3377(3) 0.3463(7) 0.2454(4)
H1_6 H 0.3561 0.3068 0.2611
C6_6 C 0.3441(3) 0.4384(7) 0.2470(4)
H2_6 H 0.3670 0.4602 0.2644
C7_6 C 0.2859(3) 0.4666(7) 0.1998(3)
H3_5 H 0.2680 0.5079 0.1846
C8_6 C 0.2778(3) 0.3744(7) 0.1964(3)
H4_6 H 0.2551 0.3541 0.1781
C9_6 C 0.2265(3) 0.0461(7) 0.1655(3)
C12_6 C 0.1789(3) 0.0456(7) 0.0998(4)
H7_6 H 0.1663 0.0757 0.0749
C13_6 C 0.2076(3) 0.0911(7) 0.1287(3)
H8_6 H 0.2140 0.1511 0.1234
C14_6 C 0.3289(3) 0.0286(7) 0.2932(4)
C15_6 C 0.3574(4) 0.0736(8) 0.3239(4)
H9_6 H 0.3615 0.1360 0.3218
C16_6 C 0.3788(4) 0.0241(8) 0.3566(4)
H10_6 H 0.3977 0.0546 0.3766
C22_6 C 0.0158(3) 0.1027(6) 0.0551(3)
C23_6 C 0.0306(3) 0.0911(7) 0.0180(3)
C24_6 C 0.0633(3) 0.0338(7) 0.0207(3)
C25_6 C 0.0660(3) 0.0056(8) 0.0925(4)
C26_6 C 0.0342(3) 0.0596(8) 0.0930(4)
H16_6 H 0.0249 0.0675 0.1185
I1_5 I 0.37978(2) 0.65173(5) 0.30427(2)
I2_5 I 0.27263(2) 0.73555(5) 0.20978(2)
N1_6 N 0.2769(2) 0.0395(6) 0.2302(3)
N2_6 N 0.3166(2) 0.1673(6) 0.2531(3)
N3_6 N 0.2661(2) 0.1789(5) 0.1913(3)
N6_6 N 0.3193(2) 0.4982(6) 0.2249(3)
C10_6 C 0.2155(3) 0.9565(7) 0.1724(4)
H5_6 H 0.2275 0.9246 0.1970
C11_6 C 0.1867(3) 0.9167(7) 0.1422(4)
H6_6 H 0.1795 0.8569 0.1468
C17_6 C 0.3474(3) 0.8919(7) 0.3340(3)
H11_6 H 0.3435 0.8299 0.3379
C18_6 C 0.3245(3) 0.9359(7) 0.2989(3)
H12_6 H 0.3062 0.9031 0.2792
H15_6 H 0.0783 0.9779 0.1183
I3_6 I 0.47372(3) 0.84748(6) 0.37012(3)
I4_6 I 0.38049(3) 0.75063(5) 0.44433(3)
I6_6 I 0.10150(3) 0.76130(5) 0.09707(3)
N4_6 N 0.1685(2) 0.9593(6) 0.1065(3)
N5_6 N 0.3747(3) 0.9349(6) 0.3621(3)
N10_6 N 0.0803(2) 0.9907(6) 0.0566(3)
Zn2_3 Zn 0.41621(5) 0.86752(9) 0.40800(5)
Zn3_6 Zn 0.12544(4) 0.89960(9) 0.06026(5)
N14_3 N 0.4301(3) 0.9733(6) 0.4527(3)
H3_6 H 0.7680 0.9921 0.6846
C35_5 C 0.4064(4) 0.9928(9) 0.4801(4)
H23_5 H 0.3856 0.9536 0.4810
I1_6 I 0.87978(2) 0.84827(5) 0.80427(2)
I2_6 I 0.77263(2) 0.76445(5) 0.70978(2)
Zn1_3 Zn 0.83316(4) 0.86365(9) 0.73155(4)
N13_3 N 0.8637(3) 0.8454(6) 0.6821(3)
C19_6 C 0.9821(3) 0.8366(6) 0.5557(3)
C20_6 C 0.9479(3) 0.7089(7) 0.5335(3)
C21_6 C 0.9321(3) 0.7943(7) 0.5871(3)
C27_6 C 0.9077(3) 0.8124(7) 0.6196(3)
C28_6 C 0.8877(3) 0.7422(8) 0.6357(4)
H17_6 H 0.8888 0.6829 0.6255
C29_6 C 0.8668(4) 0.7612(8) 0.6660(4)
H18_6 H 0.8537 0.7136 0.6765
C30_6 C 0.8821(3) 0.9125(8) 0.6662(4)
H19_6 H 0.8797 0.9714 0.6763
C31_6 C 0.9043(3) 0.8989(8) 0.6356(4)
H20_6 H 0.9170 0.9478 0.6256
C32_6 C 0.9423(3) 0.6256(7) 0.5067(3)
C33_4 C 0.9681(3) 0.6040(7) 0.4796(3)
H21_4 H 0.9899 0.6404 0.4792
C34_4 C 0.9609(3) 0.5275(7) 0.4531(3)
H22_4 H 0.9781 0.5136 0.4349
C35_6 C 0.9064(4) 0.4928(9) 0.4801(4)
H23_6 H 0.8856 0.4536 0.4810
C36_6 C 0.9112(3) 0.5680(8) 0.5069(4)
H24_6 H 0.8936 0.5796 0.5250
N7_6 N 0.9603(2) 0.8555(6) 0.5851(3)
N8_6 N 0.9258(2) 0.7182(6) 0.5632(3)
N9_6 N 0.9761(2) 0.7668(6) 0.5278(3)
H13_3 H 0.5193 0.6200 0.9921
H14_3 H 0.5737 0.5258 0.9959
C33_5 C 0.4681(3) 0.8960(7) 0.9796(3)
H21_5 H 0.4899 0.8596 0.9792
C34_5 C 0.4609(3) 0.9725(7) 0.9531(3)
H22_5 H 0.4781 0.9864 0.9349
I5_3 I 0.64810(2) 0.40435(7) 0.98874(3)
C10_7 C 0.7845(3) 0.9565(7) 0.3276(4)
H5_7 H 0.7725 0.9246 0.3030
C11_7 C 0.8133(3) 0.9167(7) 0.3578(4)
H6_7 H 0.8205 0.8569 0.3532
C17_7 C 0.6526(3) 0.8919(7) 0.1660(3)
H11_7 H 0.6565 0.8299 0.1621
C18_7 C 0.6755(3) 0.9359(7) 0.2011(3)
H12_7 H 0.6938 0.9031 0.2208
H15_7 H 0.9217 0.9779 0.3817
I3_7 I 0.52628(3) 0.84748(6) 0.12988(3)
I4_7 I 0.61951(3) 0.75063(5) 0.05567(3)
I5_4 I 0.85190(2) 0.90435(7) 0.51126(3)
I6_7 I 0.89850(3) 0.76130(5) 0.40293(3)
N4_7 N 0.8315(2) 0.9593(6) 0.3935(3)
N5_7 N 0.6253(3) 0.9349(6) 0.1379(3)
N10_7 N 0.9197(2) 0.9907(6) 0.4434(3)
Zn2_4 Zn 0.58379(5) 0.86752(9) 0.09200(5)
Zn3_7 Zn 0.87456(4) 0.89960(9) 0.43974(5)
N14_4 N 0.5699(3) 0.9733(6) 0.0473(3)
C35_7 C 0.5936(4) 0.9928(9) 0.0199(4)
H23_7 H 0.6144 0.9536 0.0190
H13_4 H 0.0193 0.1200 0.9921
H14_4 H 0.0737 0.0258 0.9959
I5_5 I 0.14810(2) 0.90435(7) 0.98874(3)
C33_6 C 0.9681(3) 0.3960(7) 0.9796(3)
H21_6 H 0.9899 0.3596 0.9792
C34_6 C 0.9609(3) 0.4725(7) 0.9531(3)
H22_6 H 0.9781 0.4864 0.9349
C35_8 C 0.9064(4) 0.5072(9) 0.9801(4)
H23_8 H 0.8856 0.5464 0.9810
N12_4 N 0.9301(3) 0.5267(6) 0.9527(3)
Zn5_4 Zn 0.91621(5) 0.63248(9) 0.90800(5)
C1_7 C 0.7582(3) 0.4100(7) 0.6974(3)
C2_7 C 0.8059(3) 0.4201(7) 0.7563(3)
C3_7 C 0.7947(3) 0.2867(7) 0.7209(3)
C4_7 C 0.8032(3) 0.1877(7) 0.7200(3)
C5_7 C 0.8377(3) 0.1537(7) 0.7454(4)
H1_7 H 0.8561 0.1932 0.7611
C6_7 C 0.8441(3) 0.0616(7) 0.7470(4)
H2_7 H 0.8670 0.0398 0.7644
C7_7 C 0.7859(3) 0.0334(7) 0.6998(3)
C8_7 C 0.7778(3) 0.1256(7) 0.6964(3)
H4_7 H 0.7551 0.1459 0.6781
C9_7 C 0.7265(3) 0.4539(7) 0.6655(3)
C10_8 C 0.7155(3) 0.5435(7) 0.6724(4)
H5_8 H 0.7275 0.5754 0.6970
C11_8 C 0.6867(3) 0.5833(7) 0.6422(4)
H6_8 H 0.6795 0.6431 0.6468
C12_7 C 0.6789(3) 0.4544(7) 0.5998(4)
H7_7 H 0.6663 0.4243 0.5749
C13_7 C 0.7076(3) 0.4089(7) 0.6287(3)
H8_7 H 0.7140 0.3489 0.6234
C14_7 C 0.8289(3) 0.4714(7) 0.7932(4)
C15_7 C 0.8574(4) 0.4264(8) 0.8239(4)
H9_7 H 0.8615 0.3640 0.8218
C16_7 C 0.8788(4) 0.4759(8) 0.8566(4)
H10_7 H 0.8977 0.4454 0.8766
C17_8 C 0.8474(3) 0.6081(7) 0.8340(3)
H11_8 H 0.8435 0.6701 0.8379
C18_8 C 0.8245(3) 0.5641(7) 0.7989(3)
H12_8 H 0.8062 0.5969 0.7792
C19_7 C 0.4821(3) 0.3366(6) 0.5557(3)
C20_7 C 0.4479(3) 0.2089(7) 0.5335(3)
C21_7 C 0.4321(3) 0.2943(7) 0.5871(3)
C22_7 C 0.5158(3) 0.3973(6) 0.5551(3)
C23_7 C 0.5306(3) 0.4089(7) 0.5180(3)
H13_5 H 0.5193 0.3800 0.4921
C24_7 C 0.5633(3) 0.4662(7) 0.5207(3)
H14_5 H 0.5737 0.4742 0.4959
C25_7 C 0.5660(3) 0.4944(8) 0.5925(4)
H15_8 H 0.5783 0.5221 0.6183
C26_7 C 0.5342(3) 0.4404(8) 0.5930(4)
H16_7 H 0.5249 0.4325 0.6185
C27_7 C 0.4077(3) 0.3124(7) 0.6196(3)
C28_7 C 0.3877(3) 0.2422(8) 0.6357(4)
H17_7 H 0.3888 0.1829 0.6255
C29_7 C 0.3668(4) 0.2612(8) 0.6660(4)
H18_7 H 0.3537 0.2136 0.6765
C30_7 C 0.3821(3) 0.4125(8) 0.6662(4)
H19_7 H 0.3797 0.4714 0.6763
C31_7 C 0.4043(3) 0.3989(8) 0.6356(4)
H20_7 H 0.4170 0.4478 0.6256
C32_7 C 0.4423(3) 0.1256(7) 0.5067(3)
C33_7 C 0.4681(3) 0.1040(7) 0.4796(3)
H21_7 H 0.4899 0.1404 0.4792
C34_7 C 0.4609(3) 0.0275(7) 0.4531(3)
H22_7 H 0.4781 0.0136 0.4349
C36_7 C 0.4112(3) 0.0680(8) 0.5069(4)
H24_7 H 0.3936 0.0796 0.5250
I3_8 I 0.97372(3) 0.65252(6) 0.87012(3)
I4_8 I 0.88049(3) 0.74937(5) 0.94433(3)
I5_6 I 0.64810(2) 0.59565(7) 0.48874(3)
I6_8 I 0.60150(3) 0.73870(5) 0.59707(3)
N1_7 N 0.7769(2) 0.4605(6) 0.7302(3)
N2_7 N 0.8166(2) 0.3327(6) 0.7531(3)
N3_7 N 0.7661(2) 0.3211(5) 0.6913(3)
N4_8 N 0.6685(2) 0.5407(6) 0.6065(3)
N5_8 N 0.8747(3) 0.5651(6) 0.8621(3)
N6_7 N 0.8193(2) 0.0018(6) 0.7249(3)
N7_7 N 0.4603(2) 0.3555(6) 0.5851(3)
N8_7 N 0.4258(2) 0.2182(6) 0.5632(3)
N9_7 N 0.4761(2) 0.2668(6) 0.5278(3)
N10_8 N 0.5803(2) 0.5093(6) 0.5566(3)
N11_4 N 0.3637(3) 0.3454(6) 0.6821(3)
Zn3_8 Zn 0.62544(4) 0.60040(9) 0.56026(5)
Zn4_4 Zn 0.33316(4) 0.36365(9) 0.73155(4)
C1_8 C 0.2582(3) 0.9100(7) 0.6974(3)
C2_8 C 0.3059(3) 0.9201(7) 0.7563(3)
C3_8 C 0.2947(3) 0.7867(7) 0.7209(3)
C4_8 C 0.3032(3) 0.6877(7) 0.7200(3)
C5_8 C 0.3377(3) 0.6537(7) 0.7454(4)
H1_8 H 0.3561 0.6932 0.7611
C6_8 C 0.3441(3) 0.5616(7) 0.7470(4)
H2_8 H 0.3670 0.5398 0.7644
C7_8 C 0.2859(3) 0.5334(7) 0.6998(3)
H3_7 H 0.2680 0.4921 0.6846
C8_8 C 0.2778(3) 0.6256(7) 0.6964(3)
H4_8 H 0.2551 0.6459 0.6781
C9_8 C 0.2265(3) 0.9539(7) 0.6655(3)
C12_8 C 0.1789(3) 0.9544(7) 0.5998(4)
H7_8 H 0.1663 0.9243 0.5749
C13_8 C 0.2076(3) 0.9089(7) 0.6287(3)
H8_8 H 0.2140 0.8489 0.6234
C14_8 C 0.3289(3) 0.9714(7) 0.7932(4)
C15_8 C 0.3574(4) 0.9264(8) 0.8239(4)
H9_8 H 0.3615 0.8640 0.8218
C16_8 C 0.3788(4) 0.9759(8) 0.8566(4)
H10_8 H 0.3977 0.9454 0.8766
C22_8 C 0.0158(3) 0.8973(6) 0.5551(3)
C23_8 C 0.0306(3) 0.9089(7) 0.5180(3)
H13_6 H 0.0193 0.8800 0.4921
C24_8 C 0.0633(3) 0.9662(7) 0.5207(3)
H14_6 H 0.0737 0.9742 0.4959
C25_8 C 0.0660(3) 0.9944(8) 0.5925(4)
C26_8 C 0.0342(3) 0.9404(8) 0.5930(4)
H16_8 H 0.0249 0.9325 0.6185
I1_7 I 0.37978(2) 0.34827(5) 0.80427(2)
I2_7 I 0.27263(2) 0.26445(5) 0.70978(2)
N1_8 N 0.2769(2) 0.9605(6) 0.7302(3)
N2_8 N 0.3166(2) 0.8327(6) 0.7531(3)
N3_8 N 0.2661(2) 0.8211(5) 0.6913(3)
N6_8 N 0.3193(2) 0.5018(6) 0.7249(3)
H13_7 H 0.4807 0.3800 0.0079
H14_7 H 0.4263 0.4742 0.0041
C33_8 C 0.5319(3) 0.1040(7) 0.0204(3)
H21_8 H 0.5101 0.1404 0.0208
C34_8 C 0.5391(3) 0.0275(7) 0.0469(3)
H22_8 H 0.5219 0.0136 0.0651
I5_7 I 0.35190(2) 0.59565(7) 0.01126(3)
H3_8 H 0.2320 0.9921 0.8154
I1_8 I 0.12022(2) 0.84827(5) 0.69573(2)
I2_8 I 0.22737(2) 0.76445(5) 0.79022(2)
Zn1_4 Zn 0.16684(4) 0.86365(9) 0.76845(4)
N13_4 N 0.1363(3) 0.8454(6) 0.8179(3)
C19_8 C 0.0179(3) 0.8366(6) 0.9443(3)
C20_8 C 0.0521(3) 0.7089(7) 0.9665(3)
C21_8 C 0.0679(3) 0.7943(7) 0.9129(3)
C27_8 C 0.0923(3) 0.8124(7) 0.8804(3)
C28_8 C 0.1123(3) 0.7422(8) 0.8643(4)
H17_8 H 0.1112 0.6829 0.8745
C29_8 C 0.1332(4) 0.7612(8) 0.8340(4)
H18_8 H 0.1463 0.7136 0.8235
C30_8 C 0.1179(3) 0.9125(8) 0.8338(4)
H19_8 H 0.1203 0.9714 0.8237
C31_8 C 0.0957(3) 0.8989(8) 0.8644(4)
H20_8 H 0.0830 0.9478 0.8744
C32_8 C 0.0577(3) 0.6256(7) 0.9933(3)
C36_8 C 0.0888(3) 0.5680(8) 0.9931(4)
H24_8 H 0.1064 0.5796 0.9750
N7_8 N 0.0397(2) 0.8555(6) 0.9149(3)
N8_8 N 0.0742(2) 0.7182(6) 0.9368(3)
N9_8 N 0.0239(2) 0.7668(6) 0.9722(3)
I5_8 I 0.85190(2) 0.09565(7) 0.01126(3)
H13_8 H 0.9807 0.8800 0.0079
H14_8 H 0.9263 0.9742 0.0041
loop_
_geom_bond_atom_site_label_1
_geom_bond_atom_site_label_2
_geom_bond_site_symmetry_1
_geom_bond_site_symmetry_2
C35 H23 1_555 1_555
I1 Zn1 1_555 1_555
I2 Zn1 1_555 1_555
N13 Zn1 1_555 1_555
Zn5 N12 1_555 1_555
C35 N12 1_555 1_555
C20 C32 1_555 1_555
C21 C27 1_555 1_555
C27 C28 1_555 1_555
C28 H17 1_555 1_555
C29 C28 1_555 1_555
H18 C29 1_555 1_555
C30 H19 1_555 1_555
C31 C27 1_555 1_555
H20 C31 1_555 1_555
C32 C33 1_555 1_555
C33 H21 1_555 1_555
C34 C33 1_555 1_555
H22 C34 1_555 1_555
C35_2 H23_2 1_555 1_555
C36 C32 1_555 1_555
H24 C36 1_555 1_555
N7 C19 1_555 1_555
N8 C20 1_555 1_555
N9 C19 1_555 1_555
N13 C29 1_555 1_555
N12_2 C34 1_555 1_555
Zn5_2 N12_2 1_555 1_555
C20 N9 1_555 1_555
C21 N7 1_555 1_555
C21 N8 1_555 1_555
C30 C31 1_555 1_555
C30 N13 1_555 1_555
C35_2 C36 1_555 1_555
C35_2 N12_2 1_555 1_555
C1 C9 1_555 1_555
C2 C14 1_555 1_555
C3 C4 1_555 1_555
C4 C5 1_555 1_555
C5 H1 1_555 1_555
C6 C5 1_555 1_555
H2 C6 1_555 1_555
C8 C4 1_555 1_555
H4 C8 1_555 1_555
C9 C10 1_555 1_555
C10 H5 1_555 1_555
C11 C10 1_555 1_555
H6 C11 1_555 1_555
C12 H7 1_555 1_555
C13 C9 1_555 1_555
H8 C13 1_555 1_555
C14 C15 1_555 1_555
C15 H9 1_555 1_555
C16 C15 1_555 1_555
H10 C16 1_555 1_555
C17 H11 1_555 1_555
C18 C14 1_555 1_555
H12 C18 1_555 1_555
C19_2 C22 1_555 1_555
C20_2 C32_2 1_555 1_555
C21_2 C27_2 1_555 1_555
C22 C23 1_555 1_555
C24 C23 1_555 1_555
C25 H15 1_555 1_555
C26 C22 1_555 1_555
H16 C26 1_555 1_555
C27_2 C28_2 1_555 1_555
C28_2 H17_2 1_555 1_555
C29_2 C28_2 1_555 1_555
H18_2 C29_2 1_555 1_555
C30_2 H19_2 1_555 1_555
C31_2 C27_2 1_555 1_555
H20_2 C31_2 1_555 1_555
C36_2 C32_2 1_555 1_555
H24_2 C36_2 1_555 1_555
I3 Zn5_2 1_555 1_555
I4 Zn5_2 1_555 1_555
I6 Zn3 1_555 1_555
N1 C1 1_555 1_555
N2 C2 1_555 1_555
N3 C1 1_555 1_555
N4 C11 1_555 1_555
N5 C16 1_555 1_555
N6 C6 1_555 1_555
N7_2 C19_2 1_555 1_555
N8_2 C20_2 1_555 1_555
N9_2 C19_2 1_555 1_555
N10 C24 1_555 1_555
N11 C29_2 1_555 1_555
Zn5_2 N5 1_555 1_555
Zn3 N4 1_555 1_555
Zn4 N11 1_555 1_555
C2 N1 1_555 1_555
C3 N2 1_555 1_555
C3 N3 1_555 1_555
C7 C8 1_555 1_555
C7 N6 1_555 1_555
C12 C13 1_555 1_555
C12 N4 1_555 1_555
C17 C18 1_555 1_555
C17 N5 1_555 1_555
C20_2 N9_2 1_555 1_555
C21_2 N7_2 1_555 1_555
C21_2 N8_2 1_555 1_555
C25 C26 1_555 1_555
C25 N10 1_555 1_555
C30_2 C31_2 1_555 1_555
C30_2 N11 1_555 1_555
N10 Zn3 1_555 1_555
C10_2 H5_2 1_555 1_555
C11_2 C10_2 1_555 1_555
H6_2 C11_2 1_555 1_555
C17_2 H11_2 1_555 1_555
H12_2 C18_2 1_555 1_555
I3_2 Zn5 1_555 1_555
I4_2 Zn5 1_555 1_555
I6_2 Zn3_2 1_555 1_555
N4_2 C11_2 1_555 1_555
Zn5 N5_2 1_555 1_555
Zn3_2 N4_2 1_555 1_555
C17_2 C18_2 1_555 1_555
C17_2 N5_2 1_555 1_555
N10_2 Zn3_2 1_555 1_555
C1_2 C9_2 1_555 1_555
C2_2 C14_2 1_555 1_555
C3_2 C4_2 1_555 1_555
C4_2 C5_2 1_555 1_555
C5_2 H1_2 1_555 1_555
C6_2 C5_2 1_555 1_555
H2_2 C6_2 1_555 1_555
C7_2 H3_2 1_555 1_555
C8_2 C4_2 1_555 1_555
H4_2 C8_2 1_555 1_555
C12_2 H7_2 1_555 1_555
C13_2 C9_2 1_555 1_555
H8_2 C13_2 1_555 1_555
C14_2 C15_2 1_555 1_555
C15_2 H9_2 1_555 1_555
C16_2 C15_2 1_555 1_555
H10_2 C16_2 1_555 1_555
C22_2 C23_2 1_555 1_555
C24_2 C23_2 1_555 1_555
C26_2 C22_2 1_555 1_555
H16_2 C26_2 1_555 1_555
I1_2 Zn4 1_555 1_555
I2_2 Zn4 1_555 1_555
N1_2 C1_2 1_555 1_555
N2_2 C2_2 1_555 1_555
N3_2 C1_2 1_555 1_555
N6_2 C6_2 1_555 1_555
Zn4 N6_2 1_555 1_555
C2_2 N1_2 1_555 1_555
C3_2 N2_2 1_555 1_555
C3_2 N3_2 1_555 1_555
C7_2 C8_2 1_555 1_555
C7_2 N6_2 1_555 1_555
C12_2 C13_2 1_555 1_555
C25_2 C26_2 1_555 1_555
C1_3 C9_3 1_555 1_555
C2_3 C14_3 1_555 1_555
C3_3 C4_3 1_555 1_555
C4_3 C5_3 1_555 1_555
C5_3 H1_3 1_555 1_555
C6_3 C5_3 1_555 1_555
H2_3 C6_3 1_555 1_555
C8_3 C4_3 1_555 1_555
H4_3 C8_3 1_555 1_555
C9_3 C10_3 1_555 1_555
C10_3 H5_3 1_555 1_555
C11_3 C10_3 1_555 1_555
H6_3 C11_3 1_555 1_555
C12_3 H7_3 1_555 1_555
C13_3 C9_3 1_555 1_555
H8_3 C13_3 1_555 1_555
C14_3 C15_3 1_555 1_555
C15_3 H9_3 1_555 1_555
C16_3 C15_3 1_555 1_555
H10_3 C16_3 1_555 1_555
C17_3 H11_3 1_555 1_555
C18_3 C14_3 1_555 1_555
H12_3 C18_3 1_555 1_555
C19_3 C22_3 1_555 1_555
C20_3 C32_3 1_555 1_555
C21_3 C27_3 1_555 1_555
C22_3 C23_3 1_555 1_555
C23_3 H13 1_555 1_555
C24_3 C23_3 1_555 1_555
H14 C24_3 1_555 1_555
C25_3 H15_3 1_555 1_555
C26_3 C22_3 1_555 1_555
H16_3 C26_3 1_555 1_555
C27_3 C28_3 1_555 1_555
C28_3 H17_3 1_555 1_555
C29_3 C28_3 1_555 1_555
H18_3 C29_3 1_555 1_555
C30_3 H19_3 1_555 1_555
C31_3 C27_3 1_555 1_555
H20_3 C31_3 1_555 1_555
C32_3 C33_2 1_555 1_555
C33_2 H21_2 1_555 1_555
C34_2 C33_2 1_555 1_555
H22_2 C34_2 1_555 1_555
C36_3 C32_3 1_555 1_555
H24_3 C36_3 1_555 1_555
I3_3 Zn2 1_555 1_555
I4_3 Zn2 1_555 1_555
I5 Zn3_3 1_555 1_555
I6_3 Zn3_3 1_555 1_555
N1_3 C1_3 1_555 1_555
N2_3 C2_3 1_555 1_555
N3_3 C1_3 1_555 1_555
N4_3 C11_3 1_555 1_555
N5_3 C16_3 1_555 1_555
N6_3 C6_3 1_555 1_555
N7_3 C19_3 1_555 1_555
N8_3 C20_3 1_555 1_555
N9_3 C19_3 1_555 1_555
N10_3 C24_3 1_555 1_555
N11_2 C29_3 1_555 1_555
Zn2 N5_3 1_555 1_555
Zn3_3 N4_3 1_555 1_555
N14 Zn2 1_555 1_555
Zn4_2 N11_2 1_555 1_555
C2_3 N1_3 1_555 1_555
C3_3 N2_3 1_555 1_555
C3_3 N3_3 1_555 1_555
C7_3 C8_3 1_555 1_555
C7_3 N6_3 1_555 1_555
C12_3 C13_3 1_555 1_555
C12_3 N4_3 1_555 1_555
C17_3 C18_3 1_555 1_555
C17_3 N5_3 1_555 1_555
C20_3 N9_3 1_555 1_555
C21_3 N7_3 1_555 1_555
C21_3 N8_3 1_555 1_555
C25_3 C26_3 1_555 1_555
C25_3 N10_3 1_555 1_555
C30_3 C31_3 1_555 1_555
C30_3 N11_2 1_555 1_555
N10_3 Zn3_3 1_555 1_555
C1_4 C9_4 1_555 1_555
C2_4 C14_4 1_555 1_555
C3_4 C4_4 1_555 1_555
C4_4 C5_4 1_555 1_555
C5_4 H1_4 1_555 1_555
C6_4 C5_4 1_555 1_555
H2_4 C6_4 1_555 1_555
C7_4 H3_3 1_555 1_555
C8_4 C4_4 1_555 1_555
H4_4 C8_4 1_555 1_555
C12_4 H7_4 1_555 1_555
C13_4 C9_4 1_555 1_555
H8_4 C13_4 1_555 1_555
C14_4 C15_4 1_555 1_555
C15_4 H9_4 1_555 1_555
C16_4 C15_4 1_555 1_555
H10_4 C16_4 1_555 1_555
C22_4 C23_4 1_555 1_555
C23_4 H13_2 1_555 1_555
C24_4 C23_4 1_555 1_555
H14_2 C24_4 1_555 1_555
C26_4 C22_4 1_555 1_555
H16_4 C26_4 1_555 1_555
I1_3 Zn4_2 1_555 1_555
I2_3 Zn4_2 1_555 1_555
N1_4 C1_4 1_555 1_555
N2_4 C2_4 1_555 1_555
N3_4 C1_4 1_555 1_555
N6_4 C6_4 1_555 1_555
Zn4_2 N6_4 1_555 1_555
C2_4 N1_4 1_555 1_555
C3_4 N2_4 1_555 1_555
C3_4 N3_4 1_555 1_555
C7_4 C8_4 1_555 1_555
C7_4 N6_4 1_555 1_555
C12_4 C13_4 1_555 1_555
C25_4 C26_4 1_555 1_555
C33_3 H21_3 1_555 1_555
C34_3 C33_3 1_555 1_555
H22_3 C34_3 1_555 1_555
C35_3 H23_3 1_555 1_555
N14 C34_3 1_555 1_555
C35_3 N14 1_555 1_555
I1_4 Zn1_2 1_555 1_555
I2_4 Zn1_2 1_555 1_555
N13_2 Zn1_2 1_555 1_555
C20_4 C32_4 1_555 1_555
C21_4 C27_4 1_555 1_555
C27_4 C28_4 1_555 1_555
C28_4 H17_4 1_555 1_555
C29_4 C28_4 1_555 1_555
H18_4 C29_4 1_555 1_555
C30_4 H19_4 1_555 1_555
C31_4 C27_4 1_555 1_555
H20_4 C31_4 1_555 1_555
C36_4 C32_4 1_555 1_555
H24_4 C36_4 1_555 1_555
N7_4 C19_4 1_555 1_555
N8_4 C20_4 1_555 1_555
N9_4 C19_4 1_555 1_555
N13_2 C29_4 1_555 1_555
C20_4 N9_4 1_555 1_555
C21_4 N7_4 1_555 1_555
C21_4 N8_4 1_555 1_555
C30_4 C31_4 1_555 1_555
C30_4 N13_2 1_555 1_555
C35_4 H23_4 1_555 1_555
Zn5_3 N12_3 1_555 1_555
C35_4 N12_3 1_555 1_555
C10_4 H5_4 1_555 1_555
C11_4 C10_4 1_555 1_555
H6_4 C11_4 1_555 1_555
C17_4 H11_4 1_555 1_555
H12_4 C18_4 1_555 1_555
I3_4 Zn5_3 1_555 1_555
I4_4 Zn5_3 1_555 1_555
I5_2 Zn3_4 1_555 1_555
I6_4 Zn3_4 1_555 1_555
N4_4 C11_4 1_555 1_555
Zn5_3 N5_4 1_555 1_555
Zn3_4 N4_4 1_555 1_555
C17_4 C18_4 1_555 1_555
C17_4 N5_4 1_555 1_555
N10_4 Zn3_4 1_555 1_555
C1_5 C9_5 1_555 1_555
C2_5 C14_5 1_555 1_555
C3_5 C4_5 1_555 1_555
C4_5 C5_5 1_555 1_555
C5_5 H1_5 1_555 1_555
C6_5 C5_5 1_555 1_555
H2_5 C6_5 1_555 1_555
C8_5 C4_5 1_555 1_555
H4_5 C8_5 1_555 1_555
C9_5 C10_5 1_555 1_555
C10_5 H5_5 1_555 1_555
C11_5 C10_5 1_555 1_555
H6_5 C11_5 1_555 1_555
C12_5 H7_5 1_555 1_555
C13_5 C9_5 1_555 1_555
H8_5 C13_5 1_555 1_555
C14_5 C15_5 1_555 1_555
C15_5 H9_5 1_555 1_555
C16_5 C15_5 1_555 1_555
H10_5 C16_5 1_555 1_555
C17_5 H11_5 1_555 1_555
C18_5 C14_5 1_555 1_555
H12_5 C18_5 1_555 1_555
C19_5 C22_5 1_555 1_555
C20_5 C32_5 1_555 1_555
C21_5 C27_5 1_555 1_555
C22_5 C23_5 1_555 1_555
C24_5 C23_5 1_555 1_555
C25_5 H15_5 1_555 1_555
C26_5 C22_5 1_555 1_555
H16_5 C26_5 1_555 1_555
C27_5 C28_5 1_555 1_555
C28_5 H17_5 1_555 1_555
C29_5 C28_5 1_555 1_555
H18_5 C29_5 1_555 1_555
C30_5 H19_5 1_555 1_555
C31_5 C27_5 1_555 1_555
H20_5 C31_5 1_555 1_555
C36_5 C32_5 1_555 1_555
H24_5 C36_5 1_555 1_555
I3_5 Zn2_2 1_555 1_555
I4_5 Zn2_2 1_555 1_555
I6_5 Zn3_5 1_555 1_555
N1_5 C1_5 1_555 1_555
N2_5 C2_5 1_555 1_555
N3_5 C1_5 1_555 1_555
N4_5 C11_5 1_555 1_555
N5_5 C16_5 1_555 1_555
N6_5 C6_5 1_555 1_555
N7_5 C19_5 1_555 1_555
N8_5 C20_5 1_555 1_555
N9_5 C19_5 1_555 1_555
N10_5 C24_5 1_555 1_555
N11_3 C29_5 1_555 1_555
Zn2_2 N5_5 1_555 1_555
Zn3_5 N4_5 1_555 1_555
N14_2 Zn2_2 1_555 1_555
Zn4_3 N11_3 1_555 1_555
C2_5 N1_5 1_555 1_555
C3_5 N2_5 1_555 1_555
C3_5 N3_5 1_555 1_555
C7_5 C8_5 1_555 1_555
C7_5 N6_5 1_555 1_555
C12_5 C13_5 1_555 1_555
C12_5 N4_5 1_555 1_555
C17_5 C18_5 1_555 1_555
C17_5 N5_5 1_555 1_555
C20_5 N9_5 1_555 1_555
C21_5 N7_5 1_555 1_555
C21_5 N8_5 1_555 1_555
C25_5 C26_5 1_555 1_555
C25_5 N10_5 1_555 1_555
C30_5 C31_5 1_555 1_555
C30_5 N11_3 1_555 1_555
N10_5 Zn3_5 1_555 1_555
C1_6 C9_6 1_555 1_555
C2_6 C14_6 1_555 1_555
C3_6 C4_6 1_555 1_555
C4_6 C5_6 1_555 1_555
C5_6 H1_6 1_555 1_555
C6_6 C5_6 1_555 1_555
H2_6 C6_6 1_555 1_555
C7_6 H3_5 1_555 1_555
C8_6 C4_6 1_555 1_555
H4_6 C8_6 1_555 1_555
C12_6 H7_6 1_555 1_555
C13_6 C9_6 1_555 1_555
H8_6 C13_6 1_555 1_555
C14_6 C15_6 1_555 1_555
C15_6 H9_6 1_555 1_555
C16_6 C15_6 1_555 1_555
H10_6 C16_6 1_555 1_555
C22_6 C23_6 1_555 1_555
C24_6 C23_6 1_555 1_555
C26_6 C22_6 1_555 1_555
H16_6 C26_6 1_555 1_555
I1_5 Zn4_3 1_555 1_555
I2_5 Zn4_3 1_555 1_555
N1_6 C1_6 1_555 1_555
N2_6 C2_6 1_555 1_555
N3_6 C1_6 1_555 1_555
N6_6 C6_6 1_555 1_555
Zn4_3 N6_6 1_555 1_555
C2_6 N1_6 1_555 1_555
C3_6 N2_6 1_555 1_555
C3_6 N3_6 1_555 1_555
C7_6 C8_6 1_555 1_555
C7_6 N6_6 1_555 1_555
C12_6 C13_6 1_555 1_555
C25_6 C26_6 1_555 1_555
C10_6 H5_6 1_555 1_555
C11_6 C10_6 1_555 1_555
H6_6 C11_6 1_555 1_555
C17_6 H11_6 1_555 1_555
H12_6 C18_6 1_555 1_555
I3_6 Zn2_3 1_555 1_555
I4_6 Zn2_3 1_555 1_555
I6_6 Zn3_6 1_555 1_555
N4_6 C11_6 1_555 1_555
Zn2_3 N5_6 1_555 1_555
Zn3_6 N4_6 1_555 1_555
N14_3 Zn2_3 1_555 1_555
C17_6 C18_6 1_555 1_555
C17_6 N5_6 1_555 1_555
N10_6 Zn3_6 1_555 1_555
C35_5 H23_5 1_555 1_555
I1_6 Zn1_3 1_555 1_555
I2_6 Zn1_3 1_555 1_555
N13_3 Zn1_3 1_555 1_555
C35_5 N14_3 1_555 1_555
C20_6 C32_6 1_555 1_555
C21_6 C27_6 1_555 1_555
C27_6 C28_6 1_555 1_555
C28_6 H17_6 1_555 1_555
C29_6 C28_6 1_555 1_555
H18_6 C29_6 1_555 1_555
C30_6 H19_6 1_555 1_555
C31_6 C27_6 1_555 1_555
H20_6 C31_6 1_555 1_555
C32_6 C33_4 1_555 1_555
C33_4 H21_4 1_555 1_555
C34_4 C33_4 1_555 1_555
H22_4 C34_4 1_555 1_555
C35_6 H23_6 1_555 1_555
C36_6 C32_6 1_555 1_555
H24_6 C36_6 1_555 1_555
N7_6 C19_6 1_555 1_555
N8_6 C20_6 1_555 1_555
N9_6 C19_6 1_555 1_555
N13_3 C29_6 1_555 1_555
N14_2 C34_4 1_555 1_555
C20_6 N9_6 1_555 1_555
C21_6 N7_6 1_555 1_555
C21_6 N8_6 1_555 1_555
C30_6 C31_6 1_555 1_555
C30_6 N13_3 1_555 1_555
C35_6 C36_6 1_555 1_555
C35_6 N14_2 1_555 1_555
C33_5 H21_5 1_555 1_555
C34_5 C33_5 1_555 1_555
H22_5 C34_5 1_555 1_555
C10_7 H5_7 1_555 1_555
C11_7 C10_7 1_555 1_555
H6_7 C11_7 1_555 1_555
C17_7 H11_7 1_555 1_555
H12_7 C18_7 1_555 1_555
I3_7 Zn2_4 1_555 1_555
I4_7 Zn2_4 1_555 1_555
I5_4 Zn3_7 1_555 1_555
I6_7 Zn3_7 1_555 1_555
N4_7 C11_7 1_555 1_555
Zn2_4 N5_7 1_555 1_555
Zn3_7 N4_7 1_555 1_555
N14_4 Zn2_4 1_555 1_555
C17_7 C18_7 1_555 1_555
C17_7 N5_7 1_555 1_555
N10_7 Zn3_7 1_555 1_555
C35_7 H23_7 1_555 1_555
C35_7 N14_4 1_555 1_555
C33_6 H21_6 1_555 1_555
C34_6 C33_6 1_555 1_555
H22_6 C34_6 1_555 1_555
C35_8 H23_8 1_555 1_555
N12_4 C34_6 1_555 1_555
Zn5_4 N12_4 1_555 1_555
C35_8 N12_4 1_555 1_555
C1_7 C9_7 1_555 1_555
C2_7 C14_7 1_555 1_555
C3_7 C4_7 1_555 1_555
C4_7 C5_7 1_555 1_555
C5_7 H1_7 1_555 1_555
C6_7 C5_7 1_555 1_555
H2_7 C6_7 1_555 1_555
C8_7 C4_7 1_555 1_555
H4_7 C8_7 1_555 1_555
C9_7 C10_8 1_555 1_555
C10_8 H5_8 1_555 1_555
C11_8 C10_8 1_555 1_555
H6_8 C11_8 1_555 1_555
C12_7 H7_7 1_555 1_555
C13_7 C9_7 1_555 1_555
H8_7 C13_7 1_555 1_555
C14_7 C15_7 1_555 1_555
C15_7 H9_7 1_555 1_555
C16_7 C15_7 1_555 1_555
H10_7 C16_7 1_555 1_555
C17_8 H11_8 1_555 1_555
C18_8 C14_7 1_555 1_555
H12_8 C18_8 1_555 1_555
C19_7 C22_7 1_555 1_555
C20_7 C32_7 1_555 1_555
C21_7 C27_7 1_555 1_555
C22_7 C23_7 1_555 1_555
C23_7 H13_5 1_555 1_555
C24_7 C23_7 1_555 1_555
H14_5 C24_7 1_555 1_555
C25_7 H15_8 1_555 1_555
C26_7 C22_7 1_555 1_555
H16_7 C26_7 1_555 1_555
C27_7 C28_7 1_555 1_555
C28_7 H17_7 1_555 1_555
C29_7 C28_7 1_555 1_555
H18_7 C29_7 1_555 1_555
C30_7 H19_7 1_555 1_555
C31_7 C27_7 1_555 1_555
H20_7 C31_7 1_555 1_555
C32_7 C33_7 1_555 1_555
C33_7 H21_7 1_555 1_555
C34_7 C33_7 1_555 1_555
H22_7 C34_7 1_555 1_555
C36_7 C32_7 1_555 1_555
H24_7 C36_7 1_555 1_555
I3_8 Zn5_4 1_555 1_555
I4_8 Zn5_4 1_555 1_555
I5_6 Zn3_8 1_555 1_555
I6_8 Zn3_8 1_555 1_555
N1_7 C1_7 1_555 1_555
N2_7 C2_7 1_555 1_555
N3_7 C1_7 1_555 1_555
N4_8 C11_8 1_555 1_555
N5_8 C16_7 1_555 1_555
N6_7 C6_7 1_555 1_555
N7_7 C19_7 1_555 1_555
N8_7 C20_7 1_555 1_555
N9_7 C19_7 1_555 1_555
N10_8 C24_7 1_555 1_555
N11_4 C29_7 1_555 1_555
Zn5_4 N5_8 1_555 1_555
Zn3_8 N4_8 1_555 1_555
Zn4_4 N11_4 1_555 1_555
C2_7 N1_7 1_555 1_555
C3_7 N2_7 1_555 1_555
C3_7 N3_7 1_555 1_555
C7_7 C8_7 1_555 1_555
C7_7 N6_7 1_555 1_555
C12_7 C13_7 1_555 1_555
C12_7 N4_8 1_555 1_555
C17_8 C18_8 1_555 1_555
C17_8 N5_8 1_555 1_555
C20_7 N9_7 1_555 1_555
C21_7 N7_7 1_555 1_555
C21_7 N8_7 1_555 1_555
C25_7 C26_7 1_555 1_555
C25_7 N10_8 1_555 1_555
C30_7 C31_7 1_555 1_555
C30_7 N11_4 1_555 1_555
N10_8 Zn3_8 1_555 1_555
C1_8 C9_8 1_555 1_555
C2_8 C14_8 1_555 1_555
C3_8 C4_8 1_555 1_555
C4_8 C5_8 1_555 1_555
C5_8 H1_8 1_555 1_555
C6_8 C5_8 1_555 1_555
H2_8 C6_8 1_555 1_555
C7_8 H3_7 1_555 1_555
C8_8 C4_8 1_555 1_555
H4_8 C8_8 1_555 1_555
C12_8 H7_8 1_555 1_555
C13_8 C9_8 1_555 1_555
H8_8 C13_8 1_555 1_555
C14_8 C15_8 1_555 1_555
C15_8 H9_8 1_555 1_555
C16_8 C15_8 1_555 1_555
H10_8 C16_8 1_555 1_555
C22_8 C23_8 1_555 1_555
C23_8 H13_6 1_555 1_555
C24_8 C23_8 1_555 1_555
H14_6 C24_8 1_555 1_555
C26_8 C22_8 1_555 1_555
H16_8 C26_8 1_555 1_555
I1_7 Zn4_4 1_555 1_555
I2_7 Zn4_4 1_555 1_555
N1_8 C1_8 1_555 1_555
N2_8 C2_8 1_555 1_555
N3_8 C1_8 1_555 1_555
N6_8 C6_8 1_555 1_555
Zn4_4 N6_8 1_555 1_555
C2_8 N1_8 1_555 1_555
C3_8 N2_8 1_555 1_555
C3_8 N3_8 1_555 1_555
C7_8 C8_8 1_555 1_555
C7_8 N6_8 1_555 1_555
C12_8 C13_8 1_555 1_555
C25_8 C26_8 1_555 1_555
C33_8 H21_8 1_555 1_555
C34_8 C33_8 1_555 1_555
H22_8 C34_8 1_555 1_555
I1_8 Zn1_4 1_555 1_555
I2_8 Zn1_4 1_555 1_555
N13_4 Zn1_4 1_555 1_555
C20_8 C32_8 1_555 1_555
C21_8 C27_8 1_555 1_555
C27_8 C28_8 1_555 1_555
C28_8 H17_8 1_555 1_555
C29_8 C28_8 1_555 1_555
H18_8 C29_8 1_555 1_555
C30_8 H19_8 1_555 1_555
C31_8 C27_8 1_555 1_555
H20_8 C31_8 1_555 1_555
C36_8 C32_8 1_555 1_555
H24_8 C36_8 1_555 1_555
N7_8 C19_8 1_555 1_555
N8_8 C20_8 1_555 1_555
N9_8 C19_8 1_555 1_555
N13_4 C29_8 1_555 1_555
C20_8 N9_8 1_555 1_555
C21_8 N7_8 1_555 1_555
C21_8 N8_8 1_555 1_555
C30_8 C31_8 1_555 1_555
C30_8 N13_4 1_555 1_555

#END
