
###############################################################################
#
# This file contains modified crystal structure data generated from the
# MOF subset of the Cambridge Structural Database (CSD) v543 
# hosted by the Cambridge Crystallographic Data Centre (CCDC).
#
# This work is licensed under the Creative Commons
# Attribution-NonCommercial-ShareAlike 4.0 International License.
# To view a copy of this license, visit
# http://creativecommons.org/licenses/by-nc-sa/4.0/
# or send a letter to
# Creative Commons, PO Box 1866, Mountain View, CA 94042, USA.
#
# CIF created using the CSD Python API on 29 September 2022
# The structure has been converted into the P1 space group
# The structure has a 3D framework
# The original CSD entry IYOHOU is in the monoclinic crystal system
# The framework has been calculated to contain at least 10.0% void space
# The void calculation uses a probe of radius 1.32A, grid spacing 0.4
#
###############################################################################

data_IYOHOU
_chemical_formula_moiety         '(C288 H192 Cl48 N96 Zn24)n'
_symmetry_cell_setting           triclinic
_symmetry_space_group_name_H-M   'P 1'
_symmetry_Int_Tables_number      1
_space_group_name_Hall           'P 1'
loop_
_symmetry_equiv_pos_site_id
_symmetry_equiv_pos_as_xyz
1 x,y,z
_cell_length_a                   32.668(3)
_cell_length_b                   14.4026(7)
_cell_length_c                   31.108(3)
_cell_angle_alpha                90
_cell_angle_beta                 100.533(7)
_cell_angle_gamma                90
_cell_volume                     14389.8
loop_
_atom_site_label
_atom_site_type_symbol
_atom_site_fract_x
_atom_site_fract_y
_atom_site_fract_z
C1 C 0.30961(17) 0.1040(3) 0.36964(18)
H1 H 0.3106 0.1685 0.3692
C2 C 0.27994(17) 0.0616(3) 0.33979(18)
H2 H 0.2624 0.0968 0.3192
C17 C 0.13958(19) 0.1087(3) 0.17883(19)
H11 H 0.1404 0.1731 0.1773
C18 C 0.16512(18) 0.0665(3) 0.21184(17)
H12 H 0.1825 0.1018 0.2326
C19 C 0.0859(2) 0.0280(4) 0.0249(3)
H13 H 0.1059 0.0735 0.0238
Cl1 Cl 0.10888(7) 0.25096(8) 0.07883(7)
Cl2 Cl 0.01532(7) 0.15533(12) 0.12851(6)
Cl3 Cl 0.35670(6) 0.12011(11) 0.50757(6)
Cl4 Cl 0.39367(5) 0.25756(8) 0.41215(6)
N1 N 0.33745(14) 0.0599(2) 0.39958(14)
N6 N 0.11309(16) 0.0638(3) 0.14816(14)
N7 N 0.06022(19) 0.0375(3) 0.05376(19)
Zn1 Zn 0.07311(3) 0.13740(4) 0.10186(2)
Zn2 Zn 0.37874(2) 0.12896(3) 0.44525(2)
N13 N 0.42901(17) 0.0423(3) 0.45156(19)
C20 C 0.58375(19) 0.4546(3) 0.9970(2)
H14 H 0.6023 0.4494 0.9777
C21 C 0.5530(2) 0.3868(3) 0.9981(2)
C24 C 0.5524(2) 0.3045(3) 0.9685(2)
C25 C 0.5741(2) 0.2225(4) 0.9157(2)
C26 C 0.52071(18) 0.1669(3) 0.9471(2)
C27 C 0.4885(2) 0.0932(3) 0.9494(2)
C28 C 0.48571(18) 0.0168(4) 0.9209(2)
H17 H 0.5036 0.0094 0.9011
C30 C 0.43269(18) 0.0285(3) 0.98026(18)
C31 C 0.4629(2) 0.0974(3) 0.9788(2)
H20 H 0.4652 0.1467 0.9984
C32 C 0.6022(3) 0.2095(4) 0.8870(3)
C33 C 0.6414(3) 0.2457(4) 0.8952(3)
H21 H 0.6504 0.2832 0.9194
C34 C 0.6664(3) 0.2246(4) 0.8668(3)
H22 H 0.6936 0.2458 0.8745
C35 C 0.6174(4) 0.1543(5) 0.8221(3)
H23 H 0.6076 0.1271 0.7951
C36 C 0.5876(3) 0.1639(5) 0.8489(3)
H24 H 0.5606 0.1414 0.8415
N8 N 0.57804(17) 0.2971(3) 0.94170(19)
N9 N 0.54422(16) 0.1566(3) 0.91775(17)
N10 N 0.52188(14) 0.2390(3) 0.97550(15)
N12 N 0.6582(2) 0.1781(3) 0.8290(2)
Zn5 Zn 0.69828(3) 0.15026(4) 0.78987(3)
C29 C 0.4542(2) 0.0475(4) 0.4242(3)
H18 H 0.4512 0.0979 0.4052
Cl5 Cl 0.66805(9) 0.18391(10) 0.72321(7)
Cl6 Cl 0.75968(7) 0.20188(9) 0.82237(8)
N5 N 0.70181(17) 0.0078(3) 0.79116(17)
C3 C 0.27592(17) 0.9667(3) 0.34011(18)
C4 C 0.30374(17) 0.9177(3) 0.37213(18)
H3 H 0.3024 0.8533 0.3734
C5 C 0.33216(18) 0.9644(3) 0.4008(2)
H4 H 0.3492 0.9309 0.4225
C6 C 0.24413(17) 0.9188(3) 0.30880(19)
C7 C 0.20981(16) 0.7872(3) 0.28693(17)
C8 C 0.19206(18) 0.9203(3) 0.25183(17)
C9 C 0.20755(15) 0.6819(3) 0.28957(16)
C10 C 0.23294(17) 0.6345(3) 0.3192(2)
H5 H 0.2520 0.6651 0.3403
C11 C 0.2310(2) 0.5369(3) 0.3187(3)
H6 H 0.2505 0.5032 0.3381
C12 C 0.1761(2) 0.5403(3) 0.2607(2)
H7 H 0.1575 0.5078 0.2399
C13 C 0.17618(17) 0.6381(3) 0.25872(17)
H8 H 0.1571 0.6714 0.2387
C14 C 0.16567(16) 0.9693(3) 0.21501(17)
C15 C 0.1389(2) 0.9215(3) 0.1837(2)
H9 H 0.1375 0.8571 0.1849
C16 C 0.1139(2) 0.9695(3) 0.1504(2)
H10 H 0.0969 0.9359 0.1285
C22 C 0.02726(19) 0.8971(3) 0.02735(19)
H15 H 0.0071 0.8526 0.0296
C23 C 0.03147(18) 0.9748(3) 0.05384(17)
H16 H 0.0128 0.9828 0.0728
Cl5_2 Cl 0.16805(9) 0.31609(10) 0.22321(7)
Cl6_2 Cl 0.25968(7) 0.29812(9) 0.32237(8)
N2 N 0.23915(13) 0.8265(2) 0.31681(13)
N3 N 0.18353(14) 0.8287(2) 0.25484(13)
N4 N 0.22089(15) 0.9669(2) 0.27816(14)
N5_2 N 0.20181(17) 0.4922(3) 0.29116(17)
Zn3 Zn 0.19828(3) 0.34974(4) 0.28987(3)
N14 N 0.1582(2) 0.3219(3) 0.3290(2)
C20_2 C 0.08375(19) 0.9546(3) 0.9970(2)
H14_2 H 0.1023 0.9494 0.9777
C21_2 C 0.0530(2) 0.8868(3) 0.9981(2)
C24_2 C 0.0524(2) 0.8045(3) 0.9685(2)
C25_2 C 0.0741(2) 0.7225(4) 0.9157(2)
C26_2 C 0.02071(18) 0.6669(3) 0.9471(2)
H17_2 H 0.0036 0.5094 0.9011
C32_2 C 0.1022(3) 0.7095(4) 0.8870(3)
C33_2 C 0.1414(3) 0.7457(4) 0.8952(3)
H21_2 H 0.1504 0.7832 0.9194
C34_2 C 0.1664(3) 0.7246(4) 0.8668(3)
H22_2 H 0.1936 0.7458 0.8745
C35_2 C 0.1174(4) 0.6543(5) 0.8221(3)
H23_2 H 0.1076 0.6271 0.7951
C36_2 C 0.0876(3) 0.6639(5) 0.8489(3)
H24_2 H 0.0606 0.6414 0.8415
N8_2 N 0.07804(17) 0.7971(3) 0.94170(19)
N9_2 N 0.04422(16) 0.6566(3) 0.91775(17)
N10_2 N 0.02188(14) 0.7390(3) 0.97550(15)
N12_2 N 0.1582(2) 0.6781(3) 0.8290(2)
Zn5_2 Zn 0.19828(3) 0.65026(4) 0.78987(3)
C3_2 C 0.27592(17) 0.0333(3) 0.84011(18)
C4_2 C 0.30374(17) 0.0823(3) 0.87213(18)
H3_2 H 0.3024 0.1467 0.8734
C5_2 C 0.33216(18) 0.0356(3) 0.9008(2)
H4_2 H 0.3492 0.0691 0.9225
C6_2 C 0.24413(17) 0.0812(3) 0.80880(19)
C7_2 C 0.20981(16) 0.2128(3) 0.78693(17)
C8_2 C 0.19206(18) 0.0797(3) 0.75183(17)
C9_2 C 0.20755(15) 0.3181(3) 0.78957(16)
C10_2 C 0.23294(17) 0.3655(3) 0.8192(2)
H5_2 H 0.2520 0.3349 0.8403
C11_2 C 0.2310(2) 0.4631(3) 0.8187(3)
H6_2 H 0.2505 0.4968 0.8381
C12_2 C 0.1761(2) 0.4597(3) 0.7607(2)
H7_2 H 0.1575 0.4922 0.7399
C13_2 C 0.17618(17) 0.3619(3) 0.75872(17)
H8_2 H 0.1571 0.3286 0.7387
C14_2 C 0.16567(16) 0.0307(3) 0.71501(17)
C15_2 C 0.1389(2) 0.0785(3) 0.6837(2)
H9_2 H 0.1375 0.1429 0.6849
C16_2 C 0.1139(2) 0.0305(3) 0.6504(2)
H10_2 H 0.0969 0.0641 0.6285
C20_3 C 0.08375(19) 0.0454(3) 0.4970(2)
H14_3 H 0.1023 0.0506 0.4777
C21_3 C 0.0530(2) 0.1132(3) 0.4981(2)
C22_2 C 0.02726(19) 0.1029(3) 0.52735(19)
H15_2 H 0.0071 0.1474 0.5296
C23_2 C 0.03147(18) 0.0252(3) 0.55384(17)
H16_2 H 0.0128 0.0172 0.5728
C24_3 C 0.0524(2) 0.1955(3) 0.4685(2)
C25_3 C 0.0741(2) 0.2775(4) 0.4157(2)
C26_3 C 0.02071(18) 0.3331(3) 0.4471(2)
H17_3 H 0.0036 0.4906 0.4011
C32_3 C 0.1022(3) 0.2905(4) 0.3870(3)
C33_3 C 0.1414(3) 0.2543(4) 0.3952(3)
H21_3 H 0.1504 0.2168 0.4194
C34_3 C 0.1664(3) 0.2754(4) 0.3668(3)
H22_3 H 0.1936 0.2542 0.3745
C35_3 C 0.1174(4) 0.3457(5) 0.3221(3)
H23_3 H 0.1076 0.3729 0.2951
C36_3 C 0.0876(3) 0.3361(5) 0.3489(3)
H24_3 H 0.0606 0.3586 0.3415
Cl5_3 Cl 0.16805(9) 0.68391(10) 0.72321(7)
Cl6_3 Cl 0.25968(7) 0.70188(9) 0.82237(8)
N2_2 N 0.23915(13) 0.1735(2) 0.81681(13)
N3_2 N 0.18353(14) 0.1713(2) 0.75484(13)
N4_2 N 0.22089(15) 0.0331(2) 0.77816(14)
N5_3 N 0.20181(17) 0.5078(3) 0.79116(17)
N8_3 N 0.07804(17) 0.2029(3) 0.44170(19)
N9_3 N 0.04422(16) 0.3434(3) 0.41775(17)
N10_3 N 0.02188(14) 0.2610(3) 0.47550(15)
H19 H 0.9154 0.5317 0.0009
C27_2 C 0.9885(2) 0.5932(3) 0.9494(2)
C28_2 C 0.98571(18) 0.5168(4) 0.9209(2)
C29_2 C 0.9542(2) 0.4525(4) 0.9242(3)
H18_2 H 0.9512 0.4021 0.9052
C30_2 C 0.93269(18) 0.5285(3) 0.98026(18)
C31_2 C 0.9629(2) 0.5974(3) 0.9788(2)
H20_2 H 0.9652 0.6467 0.9984
N11 N 0.92901(17) 0.4577(3) 0.95156(19)
Zn4 Zn 0.87874(2) 0.37104(3) 0.94525(2)
Cl5_4 Cl 0.66805(9) 0.81609(10) 0.22321(7)
Cl6_4 Cl 0.75968(7) 0.79812(9) 0.32237(8)
N5_4 N 0.70181(17) 0.9922(3) 0.29116(17)
Zn3_2 Zn 0.69828(3) 0.84974(4) 0.28987(3)
N14_2 N 0.6582(2) 0.8219(3) 0.3290(2)
C1_2 C 0.80961(17) 0.3960(3) 0.86964(18)
H1_2 H 0.8106 0.3315 0.8692
C2_2 C 0.77994(17) 0.4384(3) 0.83979(18)
H2_2 H 0.7624 0.4032 0.8192
C3_3 C 0.77592(17) 0.5333(3) 0.84011(18)
C4_3 C 0.80374(17) 0.5823(3) 0.87213(18)
H3_3 H 0.8024 0.6467 0.8734
C5_3 C 0.83216(18) 0.5356(3) 0.9008(2)
H4_3 H 0.8492 0.5691 0.9225
C6_3 C 0.74413(17) 0.5812(3) 0.80880(19)
C7_3 C 0.70981(16) 0.7128(3) 0.78693(17)
C8_3 C 0.69206(18) 0.5797(3) 0.75183(17)
C9_3 C 0.70755(15) 0.8181(3) 0.78957(16)
C10_3 C 0.73294(17) 0.8655(3) 0.8192(2)
H5_3 H 0.7520 0.8349 0.8403
C11_3 C 0.7310(2) 0.9631(3) 0.8187(3)
H6_3 H 0.7505 0.9968 0.8381
C12_3 C 0.6761(2) 0.9597(3) 0.7607(2)
H7_3 H 0.6575 0.9922 0.7399
C13_3 C 0.67618(17) 0.8619(3) 0.75872(17)
H8_3 H 0.6571 0.8286 0.7387
C14_3 C 0.66567(16) 0.5307(3) 0.71501(17)
C15_3 C 0.6389(2) 0.5785(3) 0.6837(2)
H9_3 H 0.6375 0.6429 0.6849
C16_3 C 0.6139(2) 0.5305(3) 0.6504(2)
H10_3 H 0.5969 0.5641 0.6285
C17_2 C 0.63958(19) 0.3913(3) 0.67883(19)
H11_2 H 0.6404 0.3269 0.6773
C18_2 C 0.66512(18) 0.4335(3) 0.71184(17)
H12_2 H 0.6825 0.3982 0.7326
C19_2 C 0.5859(2) 0.4720(4) 0.5249(3)
H13_2 H 0.6059 0.4265 0.5238
C20_4 C 0.58375(19) 0.5454(3) 0.4970(2)
H14_4 H 0.6023 0.5506 0.4777
C21_4 C 0.5530(2) 0.6132(3) 0.4981(2)
C22_3 C 0.52726(19) 0.6029(3) 0.52735(19)
H15_3 H 0.5071 0.6474 0.5296
C23_3 C 0.53147(18) 0.5252(3) 0.55384(17)
H16_3 H 0.5128 0.5172 0.5728
C24_4 C 0.5524(2) 0.6955(3) 0.4685(2)
C25_4 C 0.5741(2) 0.7775(4) 0.4157(2)
C26_4 C 0.52071(18) 0.8331(3) 0.4471(2)
C27_3 C 0.4885(2) 0.9068(3) 0.4494(2)
C28_3 C 0.48571(18) 0.9832(4) 0.4209(2)
H17_4 H 0.5036 0.9906 0.4011
C30_3 C 0.43269(18) 0.9715(3) 0.48026(18)
H19_2 H 0.4154 0.9683 0.5009
C31_3 C 0.4629(2) 0.9026(3) 0.4788(2)
H20_3 H 0.4652 0.8533 0.4984
C32_4 C 0.6022(3) 0.7905(4) 0.3870(3)
C33_4 C 0.6414(3) 0.7543(4) 0.3952(3)
H21_4 H 0.6504 0.7168 0.4194
C34_4 C 0.6664(3) 0.7754(4) 0.3668(3)
H22_4 H 0.6936 0.7542 0.3745
C35_4 C 0.6174(4) 0.8457(5) 0.3221(3)
H23_4 H 0.6076 0.8729 0.2951
C36_4 C 0.5876(3) 0.8361(5) 0.3489(3)
H24_4 H 0.5606 0.8586 0.3415
Cl1_2 Cl 0.60888(7) 0.24904(8) 0.57883(7)
Cl2_2 Cl 0.51532(7) 0.34467(12) 0.62851(6)
Cl4_2 Cl 0.89367(5) 0.24244(8) 0.91215(6)
N1_2 N 0.83745(14) 0.4401(2) 0.89958(14)
N2_3 N 0.73915(13) 0.6735(2) 0.81681(13)
N3_3 N 0.68353(14) 0.6713(2) 0.75484(13)
N4_3 N 0.72089(15) 0.5331(2) 0.77816(14)
N6_2 N 0.61309(16) 0.4362(3) 0.64816(14)
N7_2 N 0.56022(19) 0.4625(3) 0.55376(19)
N8_4 N 0.57804(17) 0.7029(3) 0.44170(19)
N9_4 N 0.54422(16) 0.8434(3) 0.41775(17)
N10_4 N 0.52188(14) 0.7610(3) 0.47550(15)
Zn1_2 Zn 0.57311(3) 0.36260(4) 0.60186(2)
C27_4 C 0.0115(2) 0.5932(3) 0.5506(2)
C28_4 C 0.01429(18) 0.5168(4) 0.5791(2)
C29_3 C 0.0458(2) 0.4525(4) 0.5758(3)
H18_3 H 0.0488 0.4021 0.5948
C30_4 C 0.06731(18) 0.5285(3) 0.51974(18)
H19_3 H 0.0846 0.5317 0.4991
C31_4 C 0.0371(2) 0.5974(3) 0.5212(2)
H20_4 H 0.0348 0.6467 0.5016
N11_2 N 0.07099(17) 0.4577(3) 0.54844(19)
Zn4_2 Zn 0.12126(2) 0.37104(3) 0.55475(2)
C1_3 C 0.19039(17) 0.3960(3) 0.63036(18)
H1_3 H 0.1894 0.3315 0.6308
C2_3 C 0.22006(17) 0.4384(3) 0.66021(18)
H2_3 H 0.2376 0.4032 0.6808
C3_4 C 0.22408(17) 0.5333(3) 0.65989(18)
C4_4 C 0.19626(17) 0.5823(3) 0.62787(18)
H3_4 H 0.1976 0.6467 0.6266
C5_4 C 0.16784(18) 0.5356(3) 0.5992(2)
H4_4 H 0.1508 0.5691 0.5775
C6_4 C 0.25587(17) 0.5812(3) 0.69120(19)
C7_4 C 0.29019(16) 0.7128(3) 0.71307(17)
C8_4 C 0.30794(18) 0.5797(3) 0.74817(17)
C9_4 C 0.29245(15) 0.8181(3) 0.71043(16)
C10_4 C 0.26706(17) 0.8655(3) 0.6808(2)
H5_4 H 0.2480 0.8349 0.6597
C11_4 C 0.2690(2) 0.9631(3) 0.6813(3)
H6_4 H 0.2495 0.9968 0.6619
C12_4 C 0.3239(2) 0.9597(3) 0.7393(2)
H7_4 H 0.3425 0.9922 0.7601
C13_4 C 0.32382(17) 0.8619(3) 0.74128(17)
H8_4 H 0.3429 0.8286 0.7613
C14_4 C 0.33433(16) 0.5307(3) 0.78499(17)
C15_4 C 0.3611(2) 0.5785(3) 0.8163(2)
H9_4 H 0.3625 0.6429 0.8151
C16_4 C 0.3861(2) 0.5305(3) 0.8496(2)
H10_4 H 0.4031 0.5641 0.8715
C17_3 C 0.36042(19) 0.3913(3) 0.82117(19)
H11_3 H 0.3596 0.3269 0.8227
C18_3 C 0.33488(18) 0.4335(3) 0.78816(17)
H12_3 H 0.3175 0.3982 0.7674
C19_3 C 0.4141(2) 0.4720(4) 0.9751(3)
H13_3 H 0.3941 0.4265 0.9762
C22_4 C 0.47274(19) 0.6029(3) 0.97265(19)
H15_4 H 0.4929 0.6474 0.9704
C23_4 C 0.46853(18) 0.5252(3) 0.94616(17)
H16_4 H 0.4872 0.5172 0.9272
H19_4 H 0.5846 0.9683 0.9991
Cl1_3 Cl 0.39112(7) 0.24904(8) 0.92117(7)
Cl2_3 Cl 0.48468(7) 0.34467(12) 0.87149(6)
Cl3_2 Cl 0.14330(6) 0.37989(11) 0.49243(6)
Cl4_3 Cl 0.10633(5) 0.24244(8) 0.58785(6)
N1_3 N 0.16255(14) 0.4401(2) 0.60042(14)
N2_4 N 0.26085(13) 0.6735(2) 0.68319(13)
N3_4 N 0.31647(14) 0.6713(2) 0.74516(13)
N4_4 N 0.27911(15) 0.5331(2) 0.72184(14)
N6_3 N 0.38691(16) 0.4362(3) 0.85184(14)
N7_3 N 0.43978(19) 0.4625(3) 0.94624(19)
Zn1_3 Zn 0.42689(3) 0.36260(4) 0.89814(2)
C1_4 C 0.69039(17) 0.1040(3) 0.13036(18)
H1_4 H 0.6894 0.1685 0.1308
C2_4 C 0.72006(17) 0.0616(3) 0.16021(18)
H2_4 H 0.7376 0.0968 0.1808
C17_4 C 0.86042(19) 0.1087(3) 0.32117(19)
H11_4 H 0.8596 0.1731 0.3227
C18_4 C 0.83488(18) 0.0665(3) 0.28816(17)
H12_4 H 0.8175 0.1018 0.2674
C19_4 C 0.9141(2) 0.0280(4) 0.4751(3)
H13_4 H 0.8941 0.0735 0.4762
Cl1_4 Cl 0.89112(7) 0.25096(8) 0.42117(7)
Cl2_4 Cl 0.98468(7) 0.15533(12) 0.37149(6)
Cl4_4 Cl 0.60633(5) 0.25756(8) 0.08785(6)
N1_4 N 0.66255(14) 0.0599(2) 0.10042(14)
N6_4 N 0.88691(16) 0.0638(3) 0.35184(14)
N7_4 N 0.93978(19) 0.0375(3) 0.44624(19)
Zn1_4 Zn 0.92689(3) 0.13740(4) 0.39814(2)
Zn2_2 Zn 0.62126(2) 0.12896(3) 0.05475(2)
N13_2 N 0.57099(17) 0.0423(3) 0.04844(19)
C29_4 C 0.5458(2) 0.0475(4) 0.0758(3)
H18_4 H 0.5488 0.0979 0.0948
Cl3_3 Cl 0.64330(6) 0.12011(11) 0.99243(6)
C3_5 C 0.72408(17) 0.9667(3) 0.15989(18)
C4_5 C 0.69626(17) 0.9177(3) 0.12787(18)
H3_5 H 0.6976 0.8533 0.1266
C5_5 C 0.66784(18) 0.9644(3) 0.0992(2)
H4_5 H 0.6508 0.9309 0.0775
C6_5 C 0.75587(17) 0.9188(3) 0.19120(19)
C7_5 C 0.79019(16) 0.7872(3) 0.21307(17)
C8_5 C 0.80794(18) 0.9203(3) 0.24817(17)
C9_5 C 0.79245(15) 0.6819(3) 0.21043(16)
C10_5 C 0.76706(17) 0.6345(3) 0.1808(2)
H5_5 H 0.7480 0.6651 0.1597
C11_5 C 0.7690(2) 0.5369(3) 0.1813(3)
H6_5 H 0.7495 0.5032 0.1619
C12_5 C 0.8239(2) 0.5403(3) 0.2393(2)
H7_5 H 0.8425 0.5078 0.2601
C13_5 C 0.82382(17) 0.6381(3) 0.24128(17)
H8_5 H 0.8429 0.6714 0.2613
C14_5 C 0.83433(16) 0.9693(3) 0.28499(17)
C15_5 C 0.8611(2) 0.9215(3) 0.3163(2)
H9_5 H 0.8625 0.8571 0.3151
C16_5 C 0.8861(2) 0.9695(3) 0.3496(2)
H10_5 H 0.9031 0.9359 0.3715
C20_5 C 0.91625(19) 0.9546(3) 0.5030(2)
H14_5 H 0.8977 0.9494 0.5223
C21_5 C 0.9470(2) 0.8868(3) 0.5019(2)
C22_5 C 0.97274(19) 0.8971(3) 0.47265(19)
H15_5 H 0.9929 0.8526 0.4704
C23_5 C 0.96853(18) 0.9748(3) 0.44616(17)
H16_5 H 0.9872 0.9828 0.4272
C24_5 C 0.9476(2) 0.8045(3) 0.5315(2)
C25_5 C 0.9259(2) 0.7225(4) 0.5843(2)
C26_5 C 0.97929(18) 0.6669(3) 0.5529(2)
H17_5 H 0.9964 0.5094 0.5989
C32_5 C 0.8978(3) 0.7095(4) 0.6130(3)
C33_5 C 0.8586(3) 0.7457(4) 0.6048(3)
H21_5 H 0.8496 0.7832 0.5806
C34_5 C 0.8336(3) 0.7246(4) 0.6332(3)
H22_5 H 0.8064 0.7458 0.6255
C35_5 C 0.8826(4) 0.6543(5) 0.6779(3)
H23_5 H 0.8924 0.6271 0.7049
C36_5 C 0.9124(3) 0.6639(5) 0.6511(3)
H24_5 H 0.9394 0.6414 0.6585
Cl5_5 Cl 0.83195(9) 0.31609(10) 0.27679(7)
Cl6_5 Cl 0.74032(7) 0.29812(9) 0.17763(8)
N2_5 N 0.76085(13) 0.8265(2) 0.18319(13)
N3_5 N 0.81647(14) 0.8287(2) 0.24516(13)
N4_5 N 0.77911(15) 0.9669(2) 0.22184(14)
N5_5 N 0.79819(17) 0.4922(3) 0.20884(17)
N8_5 N 0.92196(17) 0.7971(3) 0.55830(19)
N9_5 N 0.95578(16) 0.6566(3) 0.58225(17)
N10_5 N 0.97812(14) 0.7390(3) 0.52450(15)
N12_3 N 0.8418(2) 0.6781(3) 0.6710(2)
Zn3_3 Zn 0.80172(3) 0.34974(4) 0.21013(3)
N14_3 N 0.8418(2) 0.3219(3) 0.1710(2)
Zn5_3 Zn 0.80172(3) 0.65026(4) 0.71013(3)
C20_6 C 0.91625(19) 0.0454(3) 0.0030(2)
H14_6 H 0.8977 0.0506 0.0223
C21_6 C 0.9470(2) 0.1132(3) 0.0019(2)
C24_6 C 0.9476(2) 0.1955(3) 0.0315(2)
C25_6 C 0.9259(2) 0.2775(4) 0.0843(2)
C26_6 C 0.97929(18) 0.3331(3) 0.0529(2)
H17_6 H 0.9964 0.4906 0.0989
C32_6 C 0.8978(3) 0.2905(4) 0.1130(3)
C33_6 C 0.8586(3) 0.2543(4) 0.1048(3)
H21_6 H 0.8496 0.2168 0.0806
C34_6 C 0.8336(3) 0.2754(4) 0.1332(3)
H22_6 H 0.8064 0.2542 0.1255
C35_6 C 0.8826(4) 0.3457(5) 0.1779(3)
H23_6 H 0.8924 0.3729 0.2049
C36_6 C 0.9124(3) 0.3361(5) 0.1511(3)
H24_6 H 0.9394 0.3586 0.1585
N8_6 N 0.92196(17) 0.2029(3) 0.05830(19)
N9_6 N 0.95578(16) 0.3434(3) 0.08225(17)
N10_6 N 0.97812(14) 0.2610(3) 0.02450(15)
C3_6 C 0.72408(17) 0.0333(3) 0.65989(18)
C4_6 C 0.69626(17) 0.0823(3) 0.62787(18)
H3_6 H 0.6976 0.1467 0.6266
C5_6 C 0.66784(18) 0.0356(3) 0.5992(2)
H4_6 H 0.6508 0.0691 0.5775
C6_6 C 0.75587(17) 0.0812(3) 0.69120(19)
C7_6 C 0.79019(16) 0.2128(3) 0.71307(17)
C8_6 C 0.80794(18) 0.0797(3) 0.74817(17)
C9_6 C 0.79245(15) 0.3181(3) 0.71043(16)
C10_6 C 0.76706(17) 0.3655(3) 0.6808(2)
H5_6 H 0.7480 0.3349 0.6597
C11_6 C 0.7690(2) 0.4631(3) 0.6813(3)
H6_6 H 0.7495 0.4968 0.6619
C12_6 C 0.8239(2) 0.4597(3) 0.7393(2)
H7_6 H 0.8425 0.4922 0.7601
C13_6 C 0.82382(17) 0.3619(3) 0.74128(17)
H8_6 H 0.8429 0.3286 0.7613
C14_6 C 0.83433(16) 0.0307(3) 0.78499(17)
C15_6 C 0.8611(2) 0.0785(3) 0.8163(2)
H9_6 H 0.8625 0.1429 0.8151
C16_6 C 0.8861(2) 0.0305(3) 0.8496(2)
H10_6 H 0.9031 0.0641 0.8715
C22_6 C 0.97274(19) 0.1029(3) 0.97265(19)
H15_6 H 0.9929 0.1474 0.9704
C23_6 C 0.96853(18) 0.0252(3) 0.94616(17)
H16_6 H 0.9872 0.0172 0.9272
Cl5_6 Cl 0.83195(9) 0.68391(10) 0.77679(7)
Cl6_6 Cl 0.74032(7) 0.70188(9) 0.67763(8)
N2_6 N 0.76085(13) 0.1735(2) 0.68319(13)
N3_6 N 0.81647(14) 0.1713(2) 0.74516(13)
N4_6 N 0.77911(15) 0.0331(2) 0.72184(14)
N5_6 N 0.79819(17) 0.5078(3) 0.70884(17)
C1_5 C 0.80961(17) 0.6040(3) 0.36964(18)
H1_5 H 0.8106 0.6685 0.3692
C2_5 C 0.77994(17) 0.5616(3) 0.33979(18)
H2_5 H 0.7624 0.5968 0.3192
C3_7 C 0.77592(17) 0.4667(3) 0.34011(18)
C4_7 C 0.80374(17) 0.4177(3) 0.37213(18)
H3_7 H 0.8024 0.3533 0.3734
C5_7 C 0.83216(18) 0.4644(3) 0.4008(2)
H4_7 H 0.8492 0.4309 0.4225
C6_7 C 0.74413(17) 0.4188(3) 0.30880(19)
C7_7 C 0.70981(16) 0.2872(3) 0.28693(17)
C8_7 C 0.69206(18) 0.4203(3) 0.25183(17)
C9_7 C 0.70755(15) 0.1819(3) 0.28957(16)
C10_7 C 0.73294(17) 0.1345(3) 0.3192(2)
H5_7 H 0.7520 0.1651 0.3403
C11_7 C 0.7310(2) 0.0369(3) 0.3187(3)
H6_7 H 0.7505 0.0032 0.3381
C12_7 C 0.6761(2) 0.0403(3) 0.2607(2)
H7_7 H 0.6575 0.0078 0.2399
C13_7 C 0.67618(17) 0.1381(3) 0.25872(17)
H8_7 H 0.6571 0.1714 0.2387
C14_7 C 0.66567(16) 0.4693(3) 0.21501(17)
C15_7 C 0.6389(2) 0.4215(3) 0.1837(2)
H9_7 H 0.6375 0.3571 0.1849
C16_7 C 0.6139(2) 0.4695(3) 0.1504(2)
H10_7 H 0.5969 0.4359 0.1285
C17_5 C 0.63958(19) 0.6087(3) 0.17883(19)
H11_5 H 0.6404 0.6731 0.1773
C18_5 C 0.66512(18) 0.5665(3) 0.21184(17)
H12_5 H 0.6825 0.6018 0.2326
C19_5 C 0.5859(2) 0.5280(4) 0.0249(3)
H13_5 H 0.6059 0.5735 0.0238
C22_7 C 0.52726(19) 0.3971(3) 0.02735(19)
H15_7 H 0.5071 0.3526 0.0296
C23_7 C 0.53147(18) 0.4748(3) 0.05384(17)
H16_7 H 0.5128 0.4828 0.0728
H19_5 H 0.4154 0.0317 0.0009
Cl1_5 Cl 0.60888(7) 0.75096(8) 0.07883(7)
Cl2_5 Cl 0.51532(7) 0.65533(12) 0.12851(6)
Cl3_4 Cl 0.85670(6) 0.62011(11) 0.50757(6)
Cl4_5 Cl 0.89367(5) 0.75756(8) 0.41215(6)
N1_5 N 0.83745(14) 0.5599(2) 0.39958(14)
N2_7 N 0.73915(13) 0.3265(2) 0.31681(13)
N3_7 N 0.68353(14) 0.3287(2) 0.25484(13)
N4_7 N 0.72089(15) 0.4669(2) 0.27816(14)
N6_5 N 0.61309(16) 0.5638(3) 0.14816(14)
N7_5 N 0.56022(19) 0.5375(3) 0.05376(19)
Zn1_5 Zn 0.57311(3) 0.63740(4) 0.10186(2)
Zn2_3 Zn 0.87874(2) 0.62896(3) 0.44525(2)
N13_3 N 0.92901(17) 0.5423(3) 0.45156(19)
C27_5 C 0.9885(2) 0.4068(3) 0.4494(2)
C28_5 C 0.98571(18) 0.4832(4) 0.4209(2)
C29_5 C 0.9542(2) 0.5475(4) 0.4242(3)
H18_5 H 0.9512 0.5979 0.4052
C30_5 C 0.93269(18) 0.4715(3) 0.48026(18)
H19_6 H 0.9154 0.4683 0.5009
C31_5 C 0.9629(2) 0.4026(3) 0.4788(2)
H20_5 H 0.9652 0.3533 0.4984
C29_6 C 0.4542(2) 0.9525(4) 0.9242(3)
H18_6 H 0.4512 0.9021 0.9052
N11_3 N 0.42901(17) 0.9577(3) 0.95156(19)
Zn4_3 Zn 0.37874(2) 0.87104(3) 0.94525(2)
C1_6 C 0.30961(17) 0.8960(3) 0.86964(18)
H1_6 H 0.3106 0.8315 0.8692
C2_6 C 0.27994(17) 0.9384(3) 0.83979(18)
H2_6 H 0.2624 0.9032 0.8192
C17_6 C 0.13958(19) 0.8913(3) 0.67883(19)
H11_6 H 0.1404 0.8269 0.6773
C18_6 C 0.16512(18) 0.9335(3) 0.71184(17)
H12_6 H 0.1825 0.8982 0.7326
C19_6 C 0.0859(2) 0.9720(4) 0.5249(3)
H13_6 H 0.1059 0.9265 0.5238
Cl1_6 Cl 0.10888(7) 0.74904(8) 0.57883(7)
Cl2_6 Cl 0.01532(7) 0.84467(12) 0.62851(6)
Cl4_6 Cl 0.39367(5) 0.74244(8) 0.91215(6)
N1_6 N 0.33745(14) 0.9401(2) 0.89958(14)
N6_6 N 0.11309(16) 0.9362(3) 0.64816(14)
N7_6 N 0.06022(19) 0.9625(3) 0.55376(19)
Zn1_6 Zn 0.07311(3) 0.86260(4) 0.60186(2)
C1_7 C 0.19039(17) 0.6040(3) 0.13036(18)
H1_7 H 0.1894 0.6685 0.1308
C2_7 C 0.22006(17) 0.5616(3) 0.16021(18)
H2_7 H 0.2376 0.5968 0.1808
C3_8 C 0.22408(17) 0.4667(3) 0.15989(18)
C4_8 C 0.19626(17) 0.4177(3) 0.12787(18)
H3_8 H 0.1976 0.3533 0.1266
C5_8 C 0.16784(18) 0.4644(3) 0.0992(2)
H4_8 H 0.1508 0.4309 0.0775
C6_8 C 0.25587(17) 0.4188(3) 0.19120(19)
C7_8 C 0.29019(16) 0.2872(3) 0.21307(17)
C8_8 C 0.30794(18) 0.4203(3) 0.24817(17)
C9_8 C 0.29245(15) 0.1819(3) 0.21043(16)
C10_8 C 0.26706(17) 0.1345(3) 0.1808(2)
H5_8 H 0.2480 0.1651 0.1597
C11_8 C 0.2690(2) 0.0369(3) 0.1813(3)
H6_8 H 0.2495 0.0032 0.1619
C12_8 C 0.3239(2) 0.0403(3) 0.2393(2)
H7_8 H 0.3425 0.0078 0.2601
C13_8 C 0.32382(17) 0.1381(3) 0.24128(17)
H8_8 H 0.3429 0.1714 0.2613
C14_8 C 0.33433(16) 0.4693(3) 0.28499(17)
C15_8 C 0.3611(2) 0.4215(3) 0.3163(2)
H9_8 H 0.3625 0.3571 0.3151
C16_8 C 0.3861(2) 0.4695(3) 0.3496(2)
H10_8 H 0.4031 0.4359 0.3715
C17_7 C 0.36042(19) 0.6087(3) 0.32117(19)
H11_7 H 0.3596 0.6731 0.3227
C18_7 C 0.33488(18) 0.5665(3) 0.28816(17)
H12_7 H 0.3175 0.6018 0.2674
C19_7 C 0.4141(2) 0.5280(4) 0.4751(3)
H13_7 H 0.3941 0.5735 0.4762
C20_7 C 0.41625(19) 0.4546(3) 0.5030(2)
H14_7 H 0.3977 0.4494 0.5223
C21_7 C 0.4470(2) 0.3868(3) 0.5019(2)
C22_8 C 0.47274(19) 0.3971(3) 0.47265(19)
H15_8 H 0.4929 0.3526 0.4704
C23_8 C 0.46853(18) 0.4748(3) 0.44616(17)
H16_8 H 0.4872 0.4828 0.4272
C24_7 C 0.4476(2) 0.3045(3) 0.5315(2)
C25_7 C 0.4259(2) 0.2225(4) 0.5843(2)
C26_7 C 0.47929(18) 0.1669(3) 0.5529(2)
C27_6 C 0.5115(2) 0.0932(3) 0.5506(2)
C28_6 C 0.51429(18) 0.0168(4) 0.5791(2)
H17_7 H 0.4964 0.0094 0.5989
C30_6 C 0.56731(18) 0.0285(3) 0.51974(18)
H19_7 H 0.5846 0.0317 0.4991
C31_6 C 0.5371(2) 0.0974(3) 0.5212(2)
H20_6 H 0.5348 0.1467 0.5016
C32_7 C 0.3978(3) 0.2095(4) 0.6130(3)
C33_7 C 0.3586(3) 0.2457(4) 0.6048(3)
H21_7 H 0.3496 0.2832 0.5806
C34_7 C 0.3336(3) 0.2246(4) 0.6332(3)
H22_7 H 0.3064 0.2458 0.6255
C35_7 C 0.3826(4) 0.1543(5) 0.6779(3)
H23_7 H 0.3924 0.1271 0.7049
C36_7 C 0.4124(3) 0.1639(5) 0.6511(3)
H24_7 H 0.4394 0.1414 0.6585
Cl1_7 Cl 0.39112(7) 0.75096(8) 0.42117(7)
Cl2_7 Cl 0.48468(7) 0.65533(12) 0.37149(6)
Cl4_7 Cl 0.10633(5) 0.75756(8) 0.08785(6)
N1_7 N 0.16255(14) 0.5599(2) 0.10042(14)
N2_8 N 0.26085(13) 0.3265(2) 0.18319(13)
N3_8 N 0.31647(14) 0.3287(2) 0.24516(13)
N4_8 N 0.27911(15) 0.4669(2) 0.22184(14)
N6_7 N 0.38691(16) 0.5638(3) 0.35184(14)
N7_7 N 0.43978(19) 0.5375(3) 0.44624(19)
N8_7 N 0.42196(17) 0.2971(3) 0.55830(19)
N9_7 N 0.45578(16) 0.1566(3) 0.58225(17)
N10_7 N 0.47812(14) 0.2390(3) 0.52450(15)
N12_4 N 0.3418(2) 0.1781(3) 0.6710(2)
Zn1_7 Zn 0.42689(3) 0.63740(4) 0.39814(2)
Zn2_4 Zn 0.12126(2) 0.62896(3) 0.05475(2)
N13_4 N 0.07099(17) 0.5423(3) 0.04844(19)
Zn5_4 Zn 0.30172(3) 0.15026(4) 0.71013(3)
C27_7 C 0.0115(2) 0.4068(3) 0.0506(2)
C28_7 C 0.01429(18) 0.4832(4) 0.0791(2)
C29_7 C 0.0458(2) 0.5475(4) 0.0758(3)
H18_7 H 0.0488 0.5979 0.0948
C30_7 C 0.06731(18) 0.4715(3) 0.01974(18)
C31_7 C 0.0371(2) 0.4026(3) 0.0212(2)
H20_7 H 0.0348 0.3533 0.0016
Cl5_7 Cl 0.33195(9) 0.18391(10) 0.77679(7)
Cl6_7 Cl 0.24032(7) 0.20188(9) 0.67763(8)
N5_7 N 0.29819(17) 0.0078(3) 0.70884(17)
Cl3_5 Cl 0.14330(6) 0.62011(11) 0.99243(6)
C29_8 C 0.5458(2) 0.9525(4) 0.5758(3)
H18_8 H 0.5488 0.9021 0.5948
Cl5_8 Cl 0.33195(9) 0.81609(10) 0.27679(7)
Cl6_8 Cl 0.24032(7) 0.79812(9) 0.17763(8)
N5_8 N 0.29819(17) 0.9922(3) 0.20884(17)
N11_4 N 0.57099(17) 0.9577(3) 0.54844(19)
Zn3_4 Zn 0.30172(3) 0.84974(4) 0.21013(3)
N14_4 N 0.3418(2) 0.8219(3) 0.1710(2)
Zn4_4 Zn 0.62126(2) 0.87104(3) 0.55475(2)
C1_8 C 0.69039(17) 0.8960(3) 0.63036(18)
H1_8 H 0.6894 0.8315 0.6308
C2_8 C 0.72006(17) 0.9384(3) 0.66021(18)
H2_8 H 0.7376 0.9032 0.6808
C17_8 C 0.86042(19) 0.8913(3) 0.82117(19)
H11_8 H 0.8596 0.8269 0.8227
C18_8 C 0.83488(18) 0.9335(3) 0.78816(17)
H12_8 H 0.8175 0.8982 0.7674
C19_8 C 0.9141(2) 0.9720(4) 0.9751(3)
H13_8 H 0.8941 0.9265 0.9762
Cl1_8 Cl 0.89112(7) 0.74904(8) 0.92117(7)
Cl2_8 Cl 0.98468(7) 0.84467(12) 0.87149(6)
Cl3_6 Cl 0.64330(6) 0.87989(11) 0.49243(6)
Cl4_8 Cl 0.60633(5) 0.74244(8) 0.58785(6)
N1_8 N 0.66255(14) 0.9401(2) 0.60042(14)
N6_8 N 0.88691(16) 0.9362(3) 0.85184(14)
N7_8 N 0.93978(19) 0.9625(3) 0.94624(19)
Zn1_8 Zn 0.92689(3) 0.86260(4) 0.89814(2)
C20_8 C 0.41625(19) 0.5454(3) 0.0030(2)
H14_8 H 0.3977 0.5506 0.0223
C21_8 C 0.4470(2) 0.6132(3) 0.0019(2)
C24_8 C 0.4476(2) 0.6955(3) 0.0315(2)
C25_8 C 0.4259(2) 0.7775(4) 0.0843(2)
C26_8 C 0.47929(18) 0.8331(3) 0.0529(2)
C27_8 C 0.5115(2) 0.9068(3) 0.0506(2)
C28_8 C 0.51429(18) 0.9832(4) 0.0791(2)
H17_8 H 0.4964 0.9906 0.0989
C30_8 C 0.56731(18) 0.9715(3) 0.01974(18)
C31_8 C 0.5371(2) 0.9026(3) 0.0212(2)
H20_8 H 0.5348 0.8533 0.0016
C32_8 C 0.3978(3) 0.7905(4) 0.1130(3)
C33_8 C 0.3586(3) 0.7543(4) 0.1048(3)
H21_8 H 0.3496 0.7168 0.0806
C34_8 C 0.3336(3) 0.7754(4) 0.1332(3)
H22_8 H 0.3064 0.7542 0.1255
C35_8 C 0.3826(4) 0.8457(5) 0.1779(3)
H23_8 H 0.3924 0.8729 0.2049
C36_8 C 0.4124(3) 0.8361(5) 0.1511(3)
H24_8 H 0.4394 0.8586 0.1585
N8_8 N 0.42196(17) 0.7029(3) 0.05830(19)
N9_8 N 0.45578(16) 0.8434(3) 0.08225(17)
N10_8 N 0.47812(14) 0.7610(3) 0.02450(15)
H19_8 H 0.0846 0.4683 0.9991
Cl3_7 Cl 0.35670(6) 0.87989(11) 0.00757(6)
Cl3_8 Cl 0.85670(6) 0.37989(11) 0.00757(6)
loop_
_geom_bond_atom_site_label_1
_geom_bond_atom_site_label_2
_geom_bond_site_symmetry_1
_geom_bond_site_symmetry_2
C1 H1 1_555 1_555
C2 C1 1_555 1_555
H2 C2 1_555 1_555
C17 H11 1_555 1_555
H12 C18 1_555 1_555
C19 H13 1_555 1_555
Cl1 Zn1 1_555 1_555
Cl2 Zn1 1_555 1_555
Cl3 Zn2 1_555 1_555
Cl4 Zn2 1_555 1_555
N1 C1 1_555 1_555
N7 C19 1_555 1_555
Zn1 N6 1_555 1_555
Zn2 N1 1_555 1_555
N13 Zn2 1_555 1_555
C17 C18 1_555 1_555
C17 N6 1_555 1_555
N7 Zn1 1_555 1_555
H14 C20 1_555 1_555
C21 C20 1_555 1_555
C24 C21 1_555 1_555
C25 C32 1_555 1_555
C26 C27 1_555 1_555
C27 C28 1_555 1_555
C28 H17 1_555 1_555
C31 C27 1_555 1_555
H20 C31 1_555 1_555
C32 C33 1_555 1_555
C33 H21 1_555 1_555
C34 C33 1_555 1_555
H22 C34 1_555 1_555
C35 H23 1_555 1_555
C36 C32 1_555 1_555
H24 C36 1_555 1_555
N8 C24 1_555 1_555
N9 C25 1_555 1_555
N10 C24 1_555 1_555
N12 C34 1_555 1_555
Zn5 N12 1_555 1_555
C25 N8 1_555 1_555
C26 N9 1_555 1_555
C26 N10 1_555 1_555
C30 C31 1_555 1_555
C35 C36 1_555 1_555
C35 N12 1_555 1_555
H18 C29 1_555 1_555
Cl5 Zn5 1_555 1_555
Cl6 Zn5 1_555 1_555
N13 C29 1_555 1_555
Zn5 N5 1_555 1_555
C4 C3 1_555 1_555
H3 C4 1_555 1_555
C5 C4 1_555 1_555
H4 C5 1_555 1_555
C6 C3 1_555 1_555
C7 C9 1_555 1_555
C8 C14 1_555 1_555
C9 C10 1_555 1_555
C10 H5 1_555 1_555
C11 C10 1_555 1_555
H6 C11 1_555 1_555
C12 H7 1_555 1_555
C13 C9 1_555 1_555
H8 C13 1_555 1_555
C14 C15 1_555 1_555
C15 H9 1_555 1_555
C16 C15 1_555 1_555
H10 C16 1_555 1_555
H15 C22 1_555 1_555
C23 C22 1_555 1_555
H16 C23 1_555 1_555
Cl5_2 Zn3 1_555 1_555
Cl6_2 Zn3 1_555 1_555
N2 C6 1_555 1_555
N3 C7 1_555 1_555
N4 C6 1_555 1_555
N5_2 C11 1_555 1_555
Zn3 N5_2 1_555 1_555
N14 Zn3 1_555 1_555
C7 N2 1_555 1_555
C8 N3 1_555 1_555
C8 N4 1_555 1_555
C12 C13 1_555 1_555
C12 N5_2 1_555 1_555
H14_2 C20_2 1_555 1_555
C21_2 C20_2 1_555 1_555
C24_2 C21_2 1_555 1_555
C25_2 C32_2 1_555 1_555
C32_2 C33_2 1_555 1_555
C33_2 H21_2 1_555 1_555
C34_2 C33_2 1_555 1_555
H22_2 C34_2 1_555 1_555
C35_2 H23_2 1_555 1_555
C36_2 C32_2 1_555 1_555
H24_2 C36_2 1_555 1_555
N8_2 C24_2 1_555 1_555
N9_2 C25_2 1_555 1_555
N10_2 C24_2 1_555 1_555
N12_2 C34_2 1_555 1_555
Zn5_2 N12_2 1_555 1_555
C25_2 N8_2 1_555 1_555
C26_2 N9_2 1_555 1_555
C26_2 N10_2 1_555 1_555
C35_2 C36_2 1_555 1_555
C35_2 N12_2 1_555 1_555
C4_2 C3_2 1_555 1_555
H3_2 C4_2 1_555 1_555
C5_2 C4_2 1_555 1_555
H4_2 C5_2 1_555 1_555
C6_2 C3_2 1_555 1_555
C7_2 C9_2 1_555 1_555
C8_2 C14_2 1_555 1_555
C9_2 C10_2 1_555 1_555
C10_2 H5_2 1_555 1_555
C11_2 C10_2 1_555 1_555
H6_2 C11_2 1_555 1_555
C12_2 H7_2 1_555 1_555
C13_2 C9_2 1_555 1_555
H8_2 C13_2 1_555 1_555
C14_2 C15_2 1_555 1_555
C15_2 H9_2 1_555 1_555
C16_2 C15_2 1_555 1_555
H10_2 C16_2 1_555 1_555
H14_3 C20_3 1_555 1_555
C21_3 C20_3 1_555 1_555
C22_2 C21_3 1_555 1_555
H15_2 C22_2 1_555 1_555
C23_2 C22_2 1_555 1_555
H16_2 C23_2 1_555 1_555
C24_3 C21_3 1_555 1_555
C25_3 C32_3 1_555 1_555
C32_3 C33_3 1_555 1_555
C33_3 H21_3 1_555 1_555
C34_3 C33_3 1_555 1_555
H22_3 C34_3 1_555 1_555
C35_3 H23_3 1_555 1_555
C36_3 C32_3 1_555 1_555
H24_3 C36_3 1_555 1_555
Cl5_3 Zn5_2 1_555 1_555
Cl6_3 Zn5_2 1_555 1_555
N2_2 C6_2 1_555 1_555
N3_2 C7_2 1_555 1_555
N4_2 C6_2 1_555 1_555
N5_3 C11_2 1_555 1_555
N8_3 C24_3 1_555 1_555
N9_3 C25_3 1_555 1_555
N10_3 C24_3 1_555 1_555
N14 C34_3 1_555 1_555
Zn5_2 N5_3 1_555 1_555
C7_2 N2_2 1_555 1_555
C8_2 N3_2 1_555 1_555
C8_2 N4_2 1_555 1_555
C12_2 C13_2 1_555 1_555
C12_2 N5_3 1_555 1_555
C25_3 N8_3 1_555 1_555
C26_3 N9_3 1_555 1_555
C26_3 N10_3 1_555 1_555
C35_3 C36_3 1_555 1_555
C35_3 N14 1_555 1_555
C27_2 C28_2 1_555 1_555
C29_2 C28_2 1_555 1_555
H18_2 C29_2 1_555 1_555
C31_2 C27_2 1_555 1_555
H20_2 C31_2 1_555 1_555
N11 C29_2 1_555 1_555
Zn4 N11 1_555 1_555
C30_2 C31_2 1_555 1_555
C30_2 N11 1_555 1_555
Cl5_4 Zn3_2 1_555 1_555
Cl6_4 Zn3_2 1_555 1_555
Zn3_2 N5_4 1_555 1_555
N14_2 Zn3_2 1_555 1_555
C1_2 H1_2 1_555 1_555
C2_2 C1_2 1_555 1_555
H2_2 C2_2 1_555 1_555
C3_3 C2_2 1_555 1_555
C4_3 C3_3 1_555 1_555
H3_3 C4_3 1_555 1_555
C5_3 C4_3 1_555 1_555
H4_3 C5_3 1_555 1_555
C6_3 C3_3 1_555 1_555
C7_3 C9_3 1_555 1_555
C8_3 C14_3 1_555 1_555
C9_3 C10_3 1_555 1_555
C10_3 H5_3 1_555 1_555
C11_3 C10_3 1_555 1_555
H6_3 C11_3 1_555 1_555
C12_3 H7_3 1_555 1_555
C13_3 C9_3 1_555 1_555
H8_3 C13_3 1_555 1_555
C14_3 C15_3 1_555 1_555
C15_3 H9_3 1_555 1_555
C16_3 C15_3 1_555 1_555
H10_3 C16_3 1_555 1_555
C17_2 H11_2 1_555 1_555
C18_2 C14_3 1_555 1_555
H12_2 C18_2 1_555 1_555
C19_2 H13_2 1_555 1_555
C20_4 C19_2 1_555 1_555
H14_4 C20_4 1_555 1_555
C21_4 C20_4 1_555 1_555
C22_3 C21_4 1_555 1_555
H15_3 C22_3 1_555 1_555
C23_3 C22_3 1_555 1_555
H16_3 C23_3 1_555 1_555
C24_4 C21_4 1_555 1_555
C25_4 C32_4 1_555 1_555
C26_4 C27_3 1_555 1_555
C27_3 C28_3 1_555 1_555
C28_3 H17_4 1_555 1_555
C30_3 H19_2 1_555 1_555
C31_3 C27_3 1_555 1_555
H20_3 C31_3 1_555 1_555
C32_4 C33_4 1_555 1_555
C33_4 H21_4 1_555 1_555
C34_4 C33_4 1_555 1_555
H22_4 C34_4 1_555 1_555
C35_4 H23_4 1_555 1_555
C36_4 C32_4 1_555 1_555
H24_4 C36_4 1_555 1_555
Cl1_2 Zn1_2 1_555 1_555
Cl2_2 Zn1_2 1_555 1_555
Cl4_2 Zn4 1_555 1_555
N1_2 C1_2 1_555 1_555
N2_3 C6_3 1_555 1_555
N3_3 C7_3 1_555 1_555
N4_3 C6_3 1_555 1_555
N6_2 C16_3 1_555 1_555
N7_2 C19_2 1_555 1_555
N8_4 C24_4 1_555 1_555
N9_4 C25_4 1_555 1_555
N10_4 C24_4 1_555 1_555
N14_2 C34_4 1_555 1_555
Zn1_2 N6_2 1_555 1_555
Zn4 N1_2 1_555 1_555
C5_3 N1_2 1_555 1_555
C7_3 N2_3 1_555 1_555
C8_3 N3_3 1_555 1_555
C8_3 N4_3 1_555 1_555
C12_3 C13_3 1_555 1_555
C17_2 C18_2 1_555 1_555
C17_2 N6_2 1_555 1_555
C23_3 N7_2 1_555 1_555
C25_4 N8_4 1_555 1_555
C26_4 N9_4 1_555 1_555
C26_4 N10_4 1_555 1_555
C30_3 C31_3 1_555 1_555
C35_4 C36_4 1_555 1_555
C35_4 N14_2 1_555 1_555
N7_2 Zn1_2 1_555 1_555
C27_4 C28_4 1_555 1_555
C29_3 C28_4 1_555 1_555
H18_3 C29_3 1_555 1_555
C30_4 H19_3 1_555 1_555
C31_4 C27_4 1_555 1_555
H20_4 C31_4 1_555 1_555
N11_2 C29_3 1_555 1_555
Zn4_2 N11_2 1_555 1_555
C30_4 C31_4 1_555 1_555
C30_4 N11_2 1_555 1_555
C1_3 H1_3 1_555 1_555
C2_3 C1_3 1_555 1_555
H2_3 C2_3 1_555 1_555
C3_4 C2_3 1_555 1_555
C4_4 C3_4 1_555 1_555
H3_4 C4_4 1_555 1_555
C5_4 C4_4 1_555 1_555
H4_4 C5_4 1_555 1_555
C6_4 C3_4 1_555 1_555
C7_4 C9_4 1_555 1_555
C8_4 C14_4 1_555 1_555
C9_4 C10_4 1_555 1_555
C10_4 H5_4 1_555 1_555
C11_4 C10_4 1_555 1_555
H6_4 C11_4 1_555 1_555
C12_4 H7_4 1_555 1_555
C13_4 C9_4 1_555 1_555
H8_4 C13_4 1_555 1_555
C14_4 C15_4 1_555 1_555
C15_4 H9_4 1_555 1_555
C16_4 C15_4 1_555 1_555
H10_4 C16_4 1_555 1_555
C17_3 H11_3 1_555 1_555
C18_3 C14_4 1_555 1_555
H12_3 C18_3 1_555 1_555
C19_3 H13_3 1_555 1_555
H15_4 C22_4 1_555 1_555
C23_4 C22_4 1_555 1_555
H16_4 C23_4 1_555 1_555
Cl1_3 Zn1_3 1_555 1_555
Cl2_3 Zn1_3 1_555 1_555
Cl3_2 Zn4_2 1_555 1_555
Cl4_3 Zn4_2 1_555 1_555
N1_3 C1_3 1_555 1_555
N2_4 C6_4 1_555 1_555
N3_4 C7_4 1_555 1_555
N4_4 C6_4 1_555 1_555
N6_3 C16_4 1_555 1_555
N7_3 C19_3 1_555 1_555
Zn1_3 N6_3 1_555 1_555
Zn4_2 N1_3 1_555 1_555
C5_4 N1_3 1_555 1_555
C7_4 N2_4 1_555 1_555
C8_4 N3_4 1_555 1_555
C8_4 N4_4 1_555 1_555
C12_4 C13_4 1_555 1_555
C17_3 C18_3 1_555 1_555
C17_3 N6_3 1_555 1_555
C23_4 N7_3 1_555 1_555
N7_3 Zn1_3 1_555 1_555
C1_4 H1_4 1_555 1_555
C2_4 C1_4 1_555 1_555
H2_4 C2_4 1_555 1_555
C17_4 H11_4 1_555 1_555
H12_4 C18_4 1_555 1_555
C19_4 H13_4 1_555 1_555
Cl1_4 Zn1_4 1_555 1_555
Cl2_4 Zn1_4 1_555 1_555
Cl4_4 Zn2_2 1_555 1_555
N1_4 C1_4 1_555 1_555
N7_4 C19_4 1_555 1_555
Zn1_4 N6_4 1_555 1_555
Zn2_2 N1_4 1_555 1_555
N13_2 Zn2_2 1_555 1_555
C17_4 C18_4 1_555 1_555
C17_4 N6_4 1_555 1_555
N7_4 Zn1_4 1_555 1_555
H18_4 C29_4 1_555 1_555
N13_2 C29_4 1_555 1_555
C4_5 C3_5 1_555 1_555
H3_5 C4_5 1_555 1_555
C5_5 C4_5 1_555 1_555
H4_5 C5_5 1_555 1_555
C6_5 C3_5 1_555 1_555
C7_5 C9_5 1_555 1_555
C8_5 C14_5 1_555 1_555
C9_5 C10_5 1_555 1_555
C10_5 H5_5 1_555 1_555
C11_5 C10_5 1_555 1_555
H6_5 C11_5 1_555 1_555
C12_5 H7_5 1_555 1_555
C13_5 C9_5 1_555 1_555
H8_5 C13_5 1_555 1_555
C14_5 C15_5 1_555 1_555
C15_5 H9_5 1_555 1_555
C16_5 C15_5 1_555 1_555
H10_5 C16_5 1_555 1_555
H14_5 C20_5 1_555 1_555
C21_5 C20_5 1_555 1_555
C22_5 C21_5 1_555 1_555
H15_5 C22_5 1_555 1_555
C23_5 C22_5 1_555 1_555
H16_5 C23_5 1_555 1_555
C24_5 C21_5 1_555 1_555
C25_5 C32_5 1_555 1_555
C32_5 C33_5 1_555 1_555
C33_5 H21_5 1_555 1_555
C34_5 C33_5 1_555 1_555
H22_5 C34_5 1_555 1_555
C35_5 H23_5 1_555 1_555
C36_5 C32_5 1_555 1_555
H24_5 C36_5 1_555 1_555
Cl5_5 Zn3_3 1_555 1_555
Cl6_5 Zn3_3 1_555 1_555
N2_5 C6_5 1_555 1_555
N3_5 C7_5 1_555 1_555
N4_5 C6_5 1_555 1_555
N5_5 C11_5 1_555 1_555
N8_5 C24_5 1_555 1_555
N9_5 C25_5 1_555 1_555
N10_5 C24_5 1_555 1_555
N12_3 C34_5 1_555 1_555
Zn3_3 N5_5 1_555 1_555
N14_3 Zn3_3 1_555 1_555
Zn5_3 N12_3 1_555 1_555
C7_5 N2_5 1_555 1_555
C8_5 N3_5 1_555 1_555
C8_5 N4_5 1_555 1_555
C12_5 C13_5 1_555 1_555
C12_5 N5_5 1_555 1_555
C25_5 N8_5 1_555 1_555
C26_5 N9_5 1_555 1_555
C26_5 N10_5 1_555 1_555
C35_5 C36_5 1_555 1_555
C35_5 N12_3 1_555 1_555
H14_6 C20_6 1_555 1_555
C21_6 C20_6 1_555 1_555
C24_6 C21_6 1_555 1_555
C25_6 C32_6 1_555 1_555
C32_6 C33_6 1_555 1_555
C33_6 H21_6 1_555 1_555
C34_6 C33_6 1_555 1_555
H22_6 C34_6 1_555 1_555
C35_6 H23_6 1_555 1_555
C36_6 C32_6 1_555 1_555
H24_6 C36_6 1_555 1_555
N8_6 C24_6 1_555 1_555
N9_6 C25_6 1_555 1_555
N10_6 C24_6 1_555 1_555
N14_3 C34_6 1_555 1_555
C25_6 N8_6 1_555 1_555
C26_6 N9_6 1_555 1_555
C26_6 N10_6 1_555 1_555
C35_6 C36_6 1_555 1_555
C35_6 N14_3 1_555 1_555
C4_6 C3_6 1_555 1_555
H3_6 C4_6 1_555 1_555
C5_6 C4_6 1_555 1_555
H4_6 C5_6 1_555 1_555
C6_6 C3_6 1_555 1_555
C7_6 C9_6 1_555 1_555
C8_6 C14_6 1_555 1_555
C9_6 C10_6 1_555 1_555
C10_6 H5_6 1_555 1_555
C11_6 C10_6 1_555 1_555
H6_6 C11_6 1_555 1_555
C12_6 H7_6 1_555 1_555
C13_6 C9_6 1_555 1_555
H8_6 C13_6 1_555 1_555
C14_6 C15_6 1_555 1_555
C15_6 H9_6 1_555 1_555
C16_6 C15_6 1_555 1_555
H10_6 C16_6 1_555 1_555
H15_6 C22_6 1_555 1_555
C23_6 C22_6 1_555 1_555
H16_6 C23_6 1_555 1_555
Cl5_6 Zn5_3 1_555 1_555
Cl6_6 Zn5_3 1_555 1_555
N2_6 C6_6 1_555 1_555
N3_6 C7_6 1_555 1_555
N4_6 C6_6 1_555 1_555
N5_6 C11_6 1_555 1_555
Zn5_3 N5_6 1_555 1_555
C7_6 N2_6 1_555 1_555
C8_6 N3_6 1_555 1_555
C8_6 N4_6 1_555 1_555
C12_6 C13_6 1_555 1_555
C12_6 N5_6 1_555 1_555
C1_5 H1_5 1_555 1_555
C2_5 C1_5 1_555 1_555
H2_5 C2_5 1_555 1_555
C3_7 C2_5 1_555 1_555
C4_7 C3_7 1_555 1_555
H3_7 C4_7 1_555 1_555
C5_7 C4_7 1_555 1_555
H4_7 C5_7 1_555 1_555
C6_7 C3_7 1_555 1_555
C7_7 C9_7 1_555 1_555
C8_7 C14_7 1_555 1_555
C9_7 C10_7 1_555 1_555
C10_7 H5_7 1_555 1_555
C11_7 C10_7 1_555 1_555
H6_7 C11_7 1_555 1_555
C12_7 H7_7 1_555 1_555
C13_7 C9_7 1_555 1_555
H8_7 C13_7 1_555 1_555
C14_7 C15_7 1_555 1_555
C15_7 H9_7 1_555 1_555
C16_7 C15_7 1_555 1_555
H10_7 C16_7 1_555 1_555
C17_5 H11_5 1_555 1_555
C18_5 C14_7 1_555 1_555
H12_5 C18_5 1_555 1_555
C19_5 H13_5 1_555 1_555
H15_7 C22_7 1_555 1_555
C23_7 C22_7 1_555 1_555
H16_7 C23_7 1_555 1_555
Cl1_5 Zn1_5 1_555 1_555
Cl2_5 Zn1_5 1_555 1_555
Cl3_4 Zn2_3 1_555 1_555
Cl4_5 Zn2_3 1_555 1_555
N1_5 C1_5 1_555 1_555
N2_7 C6_7 1_555 1_555
N3_7 C7_7 1_555 1_555
N4_7 C6_7 1_555 1_555
N6_5 C16_7 1_555 1_555
N7_5 C19_5 1_555 1_555
Zn1_5 N6_5 1_555 1_555
Zn2_3 N1_5 1_555 1_555
N13_3 Zn2_3 1_555 1_555
C5_7 N1_5 1_555 1_555
C7_7 N2_7 1_555 1_555
C8_7 N3_7 1_555 1_555
C8_7 N4_7 1_555 1_555
C12_7 C13_7 1_555 1_555
C17_5 C18_5 1_555 1_555
C17_5 N6_5 1_555 1_555
C23_7 N7_5 1_555 1_555
N7_5 Zn1_5 1_555 1_555
C27_5 C28_5 1_555 1_555
C29_5 C28_5 1_555 1_555
H18_5 C29_5 1_555 1_555
C30_5 H19_6 1_555 1_555
C31_5 C27_5 1_555 1_555
H20_5 C31_5 1_555 1_555
N13_3 C29_5 1_555 1_555
C30_5 C31_5 1_555 1_555
C30_5 N13_3 1_555 1_555
H18_6 C29_6 1_555 1_555
N11_3 C29_6 1_555 1_555
Zn4_3 N11_3 1_555 1_555
C1_6 H1_6 1_555 1_555
C2_6 C1_6 1_555 1_555
H2_6 C2_6 1_555 1_555
C17_6 H11_6 1_555 1_555
H12_6 C18_6 1_555 1_555
C19_6 H13_6 1_555 1_555
Cl1_6 Zn1_6 1_555 1_555
Cl2_6 Zn1_6 1_555 1_555
Cl4_6 Zn4_3 1_555 1_555
N1_6 C1_6 1_555 1_555
N7_6 C19_6 1_555 1_555
Zn1_6 N6_6 1_555 1_555
Zn4_3 N1_6 1_555 1_555
C17_6 C18_6 1_555 1_555
C17_6 N6_6 1_555 1_555
N7_6 Zn1_6 1_555 1_555
C1_7 H1_7 1_555 1_555
C2_7 C1_7 1_555 1_555
H2_7 C2_7 1_555 1_555
C3_8 C2_7 1_555 1_555
C4_8 C3_8 1_555 1_555
H3_8 C4_8 1_555 1_555
C5_8 C4_8 1_555 1_555
H4_8 C5_8 1_555 1_555
C6_8 C3_8 1_555 1_555
C7_8 C9_8 1_555 1_555
C8_8 C14_8 1_555 1_555
C9_8 C10_8 1_555 1_555
C10_8 H5_8 1_555 1_555
C11_8 C10_8 1_555 1_555
H6_8 C11_8 1_555 1_555
C12_8 H7_8 1_555 1_555
C13_8 C9_8 1_555 1_555
H8_8 C13_8 1_555 1_555
C14_8 C15_8 1_555 1_555
C15_8 H9_8 1_555 1_555
C16_8 C15_8 1_555 1_555
H10_8 C16_8 1_555 1_555
C17_7 H11_7 1_555 1_555
C18_7 C14_8 1_555 1_555
H12_7 C18_7 1_555 1_555
C19_7 H13_7 1_555 1_555
C20_7 C19_7 1_555 1_555
H14_7 C20_7 1_555 1_555
C21_7 C20_7 1_555 1_555
C22_8 C21_7 1_555 1_555
H15_8 C22_8 1_555 1_555
C23_8 C22_8 1_555 1_555
H16_8 C23_8 1_555 1_555
C24_7 C21_7 1_555 1_555
C25_7 C32_7 1_555 1_555
C26_7 C27_6 1_555 1_555
C27_6 C28_6 1_555 1_555
C28_6 H17_7 1_555 1_555
C30_6 H19_7 1_555 1_555
C31_6 C27_6 1_555 1_555
H20_6 C31_6 1_555 1_555
C32_7 C33_7 1_555 1_555
C33_7 H21_7 1_555 1_555
C34_7 C33_7 1_555 1_555
H22_7 C34_7 1_555 1_555
C35_7 H23_7 1_555 1_555
C36_7 C32_7 1_555 1_555
H24_7 C36_7 1_555 1_555
Cl1_7 Zn1_7 1_555 1_555
Cl2_7 Zn1_7 1_555 1_555
Cl4_7 Zn2_4 1_555 1_555
N1_7 C1_7 1_555 1_555
N2_8 C6_8 1_555 1_555
N3_8 C7_8 1_555 1_555
N4_8 C6_8 1_555 1_555
N6_7 C16_8 1_555 1_555
N7_7 C19_7 1_555 1_555
N8_7 C24_7 1_555 1_555
N9_7 C25_7 1_555 1_555
N10_7 C24_7 1_555 1_555
N12_4 C34_7 1_555 1_555
Zn1_7 N6_7 1_555 1_555
Zn2_4 N1_7 1_555 1_555
N13_4 Zn2_4 1_555 1_555
Zn5_4 N12_4 1_555 1_555
C5_8 N1_7 1_555 1_555
C7_8 N2_8 1_555 1_555
C8_8 N3_8 1_555 1_555
C8_8 N4_8 1_555 1_555
C12_8 C13_8 1_555 1_555
C17_7 C18_7 1_555 1_555
C17_7 N6_7 1_555 1_555
C23_8 N7_7 1_555 1_555
C25_7 N8_7 1_555 1_555
C26_7 N9_7 1_555 1_555
C26_7 N10_7 1_555 1_555
C30_6 C31_6 1_555 1_555
C35_7 C36_7 1_555 1_555
C35_7 N12_4 1_555 1_555
N7_7 Zn1_7 1_555 1_555
C27_7 C28_7 1_555 1_555
C29_7 C28_7 1_555 1_555
H18_7 C29_7 1_555 1_555
C31_7 C27_7 1_555 1_555
H20_7 C31_7 1_555 1_555
N13_4 C29_7 1_555 1_555
C30_7 C31_7 1_555 1_555
C30_7 N13_4 1_555 1_555
Cl5_7 Zn5_4 1_555 1_555
Cl6_7 Zn5_4 1_555 1_555
Zn5_4 N5_7 1_555 1_555
H18_8 C29_8 1_555 1_555
Cl5_8 Zn3_4 1_555 1_555
Cl6_8 Zn3_4 1_555 1_555
N11_4 C29_8 1_555 1_555
Zn3_4 N5_8 1_555 1_555
N14_4 Zn3_4 1_555 1_555
Zn4_4 N11_4 1_555 1_555
C1_8 H1_8 1_555 1_555
C2_8 C1_8 1_555 1_555
H2_8 C2_8 1_555 1_555
C17_8 H11_8 1_555 1_555
H12_8 C18_8 1_555 1_555
C19_8 H13_8 1_555 1_555
Cl1_8 Zn1_8 1_555 1_555
Cl2_8 Zn1_8 1_555 1_555
Cl3_6 Zn4_4 1_555 1_555
Cl4_8 Zn4_4 1_555 1_555
N1_8 C1_8 1_555 1_555
N7_8 C19_8 1_555 1_555
Zn1_8 N6_8 1_555 1_555
Zn4_4 N1_8 1_555 1_555
C17_8 C18_8 1_555 1_555
C17_8 N6_8 1_555 1_555
N7_8 Zn1_8 1_555 1_555
H14_8 C20_8 1_555 1_555
C21_8 C20_8 1_555 1_555
C24_8 C21_8 1_555 1_555
C25_8 C32_8 1_555 1_555
C26_8 C27_8 1_555 1_555
C27_8 C28_8 1_555 1_555
C28_8 H17_8 1_555 1_555
C31_8 C27_8 1_555 1_555
H20_8 C31_8 1_555 1_555
C32_8 C33_8 1_555 1_555
C33_8 H21_8 1_555 1_555
C34_8 C33_8 1_555 1_555
H22_8 C34_8 1_555 1_555
C35_8 H23_8 1_555 1_555
C36_8 C32_8 1_555 1_555
H24_8 C36_8 1_555 1_555
N8_8 C24_8 1_555 1_555
N9_8 C25_8 1_555 1_555
N10_8 C24_8 1_555 1_555
N14_4 C34_8 1_555 1_555
C25_8 N8_8 1_555 1_555
C26_8 N9_8 1_555 1_555
C26_8 N10_8 1_555 1_555
C30_8 C31_8 1_555 1_555
C35_8 C36_8 1_555 1_555
C35_8 N14_4 1_555 1_555

#END
