
###############################################################################
#
# This file contains modified crystal structure data generated from the
# MOF subset of the Cambridge Structural Database (CSD) v543 
# hosted by the Cambridge Crystallographic Data Centre (CCDC).
#
# This work is licensed under the Creative Commons
# Attribution-NonCommercial-ShareAlike 4.0 International License.
# To view a copy of this license, visit
# http://creativecommons.org/licenses/by-nc-sa/4.0/
# or send a letter to
# Creative Commons, PO Box 1866, Mountain View, CA 94042, USA.
#
# CIF created using the CSD Python API on 29 September 2022
# The structure has been converted into the P1 space group
# The structure has a 3D framework
# The original CSD entry IYOQAQ is in the orthorhombic crystal system
# The framework has been calculated to contain at least 10.0% void space
# The void calculation uses a probe of radius 1.32A, grid spacing 0.4
#
###############################################################################

data_IYOQAQ
_chemical_formula_moiety         '(C42 H30 N24 O40 Zn21)n'
_symmetry_cell_setting           triclinic
_symmetry_space_group_name_H-M   'P 1'
_symmetry_Int_Tables_number      1
_space_group_name_Hall           'P 1'
loop_
_symmetry_equiv_pos_site_id
_symmetry_equiv_pos_as_xyz
1 x,y,z
_cell_length_a                   10.3973(19)
_cell_length_b                   23.431(5)
_cell_length_c                   6.9270(12)
_cell_angle_alpha                90
_cell_angle_beta                 90
_cell_angle_gamma                90
_cell_volume                     1687.55
loop_
_atom_site_label
_atom_site_type_symbol
_atom_site_fract_x
_atom_site_fract_y
_atom_site_fract_z
Zn1 Zn 0.5000 0.36596(4) 0.2500
Zn2 Zn 0.5000 0.5000 0.0000
O1 O 0.3426(4) 0.3197(2) 0.2500
O2 O 0.2369(6) 0.4007(2) 0.2500
O3 O 0.2953(6) 0.5000 0.0000
H1 H 0.2690 0.4819 0.0933
O4 O 0.5000 0.4517(3) 0.2500
N1 N -0.0000 0.13073(19) 0.4092(7)
N2 N -0.0000 0.0770(2) 0.3420(7)
C1 C -0.0000 0.1623(3) 0.2500
C2 C 0.0000 0.2264(3) 0.2500
C3 C 0.1160(6) 0.2559(2) 0.2500
H2 H 0.1934 0.2361 0.2500
C4 C 0.1157(6) 0.3154(3) 0.2500
C5 C -0.0000 0.3453(4) 0.2500
H3 H 0.0000 0.3850 0.2500
C6 C 0.2408(7) 0.3487(3) 0.2500
N3 N 0.0000 0.13073(19) 0.0908(7)
N4 N -0.0000 0.0770(2) 0.1580(7)
O7 O 0.7047(6) 0.5000 0.0000
H6 H 0.7310 0.4819 0.0933
Zn5 Zn -0.0000 0.13404(4) 0.7500
Zn6 Zn 0.5000 0.5000 0.5000
Zn7 Zn 0.0000 0.0000 0.0000
Zn8 Zn 0.0000 0.0000 0.5000
O8 O 0.6574(4) 0.3197(2) 0.2500
N6 N 0.5000 0.36927(19) 0.5908(7)
N8 N 0.5000 0.5770(2) 0.1580(7)
Zn2_2 Zn 0.5000 0.5000 1.0000
O3_2 O 0.2953(6) 0.5000 1.0000
H5 H 0.2690 0.5181 0.9067
O7_2 O 0.7047(6) 0.5000 1.0000
H7 H 0.7310 0.5181 0.9067
Zn7_2 Zn 0.0000 0.0000 1.0000
O9 O 0.5000 0.5483(3) 0.7500
N5 N 0.5000 0.36927(19) 0.9092(7)
N7 N 0.5000 0.4230(2) 0.8420(7)
Zn7_3 Zn 0.0000 1.0000 0.0000
Zn8_2 Zn -0.0000 1.0000 0.5000
Zn7_4 Zn 0.0000 1.0000 1.0000
N1_2 N 1.0000 0.13073(19) 0.4092(7)
N2_2 N 1.0000 0.0770(2) 0.3420(7)
C1_2 C 1.0000 0.1623(3) 0.2500
C2_2 C 1.0000 0.2264(3) 0.2500
C5_2 C 1.0000 0.3453(4) 0.2500
H3_2 H 1.0000 0.3850 0.2500
O6 O 0.7631(6) 0.4007(2) 0.2500
N3_2 N 1.0000 0.13073(19) 0.0908(7)
N4_2 N 1.0000 0.0770(2) 0.1580(7)
C7 C 0.8840(6) 0.2559(2) 0.2500
H4 H 0.8066 0.2361 0.2500
C8 C 0.8843(6) 0.3154(3) 0.2500
C9 C 0.7592(7) 0.3487(3) 0.2500
Zn5_2 Zn 1.0000 0.13404(4) 0.7500
Zn7_5 Zn 1.0000 0.0000 0.0000
Zn8_3 Zn 1.0000 0.0000 0.5000
Zn7_6 Zn 1.0000 0.0000 1.0000
Zn7_7 Zn 1.0000 1.0000 0.0000
Zn8_4 Zn 1.0000 1.0000 0.5000
Zn7_8 Zn 1.0000 1.0000 1.0000
Zn5_3 Zn 0.0000 0.86596(4) 0.2500
N1_3 N 0.0000 0.86927(19) 0.9092(7)
N2_3 N 0.0000 0.9230(2) 0.8420(7)
C1_3 C 0.0000 0.8377(3) 0.7500
C2_3 C -0.0000 0.7736(3) 0.7500
C5_3 C 0.0000 0.6547(4) 0.7500
H3_3 H -0.0000 0.6150 0.7500
O5 O 0.3426(4) 0.6803(2) 0.7500
O6_2 O 0.2369(6) 0.5993(2) 0.7500
N3_3 N -0.0000 0.86927(19) 0.5908(7)
N4_3 N 0.0000 0.9230(2) 0.6580(7)
C7_2 C 0.1160(6) 0.7441(2) 0.7500
H4_2 H 0.1934 0.7639 0.7500
C8_2 C 0.1157(6) 0.6846(3) 0.7500
C9_2 C 0.2408(7) 0.6513(3) 0.7500
Zn3 Zn 0.5000 0.63404(4) 0.7500
Zn5_4 Zn 1.0000 0.86596(4) 0.2500
N6_2 N 0.5000 0.63073(19) 0.0908(7)
O1_2 O 0.6574(4) 0.6803(2) 0.7500
O2_2 O 0.7631(6) 0.5993(2) 0.7500
O3_3 O 0.7047(6) 0.5000 0.5000
H1_2 H 0.7310 0.5181 0.5933
N1_4 N 1.0000 0.86927(19) 0.9092(7)
N2_4 N 1.0000 0.9230(2) 0.8420(7)
C1_4 C 1.0000 0.8377(3) 0.7500
C2_4 C 1.0000 0.7736(3) 0.7500
C3_2 C 0.8840(6) 0.7441(2) 0.7500
H2_2 H 0.8066 0.7639 0.7500
C4_2 C 0.8843(6) 0.6846(3) 0.7500
C5_4 C 1.0000 0.6547(4) 0.7500
H3_4 H 1.0000 0.6150 0.7500
C6_2 C 0.7592(7) 0.6513(3) 0.7500
N3_4 N 1.0000 0.86927(19) 0.5908(7)
N4_4 N 1.0000 0.9230(2) 0.6580(7)
H5_2 H 0.7310 0.4819 0.4067
O7_3 O 0.2953(6) 0.5000 0.5000
H6_2 H 0.2690 0.5181 0.5933
H7_2 H 0.2690 0.4819 0.4067
N5_2 N 0.5000 0.63073(19) 0.4092(7)
N7_2 N 0.5000 0.5770(2) 0.3420(7)
N8_2 N 0.5000 0.4230(2) 0.6580(7)
O7_4 O 0.2047(6) -0.0000 0.0000
O7_5 O 0.2047(6) -0.0000 1.0000
H7_3 H 0.2310 0.0181 0.9067
O9_2 O -0.0000 0.0483(3) 0.7500
O4_2 O -0.0000 0.9517(3) 0.2500
O7_6 O 0.2047(6) 1.0000 0.0000
H6_3 H 0.2310 0.9819 0.0933
O8_2 O 0.1574(4) 0.8197(2) 0.2500
O7_7 O 0.2047(6) 1.0000 1.0000
O3_4 O 0.7953(6) -0.0000 0.0000
O3_5 O 0.7953(6) -0.0000 1.0000
H5_3 H 0.7690 0.0181 0.9067
O9_3 O 1.0000 0.0483(3) 0.7500
O1_3 O 0.8426(4) 0.8197(2) 0.2500
O2_3 O 0.7369(6) 0.9007(2) 0.2500
O3_6 O 0.7953(6) 1.0000 0.0000
H1_3 H 0.7690 0.9819 0.0933
O4_3 O 1.0000 0.9517(3) 0.2500
C1_5 C 0.5000 0.6623(3) 0.2500
C2_5 C 0.5000 0.7264(3) 0.2500
C3_3 C 0.6160(6) 0.7559(2) 0.2500
H2_3 H 0.6934 0.7361 0.2500
C4_3 C 0.6157(6) 0.8154(3) 0.2500
C5_5 C 0.5000 0.8453(4) 0.2500
H3_5 H 0.5000 0.8850 0.2500
C6_3 C 0.7408(7) 0.8487(3) 0.2500
O6_3 O 0.2631(6) 0.9007(2) 0.2500
C7_3 C 0.3840(6) 0.7559(2) 0.2500
H4_3 H 0.3066 0.7361 0.2500
C8_3 C 0.3843(6) 0.8154(3) 0.2500
C9_3 C 0.2592(7) 0.8487(3) 0.2500
O3_7 O 0.7953(6) 1.0000 1.0000
O1_4 O 0.1574(4) 0.1803(2) 0.7500
O2_4 O 0.2631(6) 0.0993(2) 0.7500
O3_8 O 0.2047(6) 0.0000 0.5000
H1_4 H 0.2310 0.0181 0.5933
C1_6 C 0.5000 0.3377(3) 0.7500
C2_6 C 0.5000 0.2736(3) 0.7500
C3_4 C 0.3840(6) 0.2441(2) 0.7500
H2_4 H 0.3066 0.2639 0.7500
C4_4 C 0.3843(6) 0.1846(3) 0.7500
C5_6 C 0.5000 0.1547(4) 0.7500
H3_6 H 0.5000 0.1150 0.7500
C6_4 C 0.2592(7) 0.1513(3) 0.7500
O5_2 O 0.8426(4) 0.1803(2) 0.7500
O6_4 O 0.7369(6) 0.0993(2) 0.7500
C7_4 C 0.6160(6) 0.2441(2) 0.7500
H4_4 H 0.6934 0.2639 0.7500
C8_4 C 0.6157(6) 0.1846(3) 0.7500
C9_4 C 0.7408(7) 0.1513(3) 0.7500
O3_9 O 0.2047(6) 1.0000 0.5000
H5_4 H 0.2310 0.9819 0.4067
O7_8 O 0.7953(6) 0.0000 0.5000
H6_4 H 0.7690 0.0181 0.5933
O7_9 O 0.7953(6) 1.0000 0.5000
H7_4 H 0.7690 0.9819 0.4067
loop_
_geom_bond_atom_site_label_1
_geom_bond_atom_site_label_2
_geom_bond_site_symmetry_1
_geom_bond_site_symmetry_2
Zn1 O1 1_555 1_555
Zn2 O3 1_555 1_555
O1 C6 1_555 1_555
O2 C6 1_555 1_555
O3 H1 1_555 1_555
O4 Zn1 1_555 1_555
N1 N2 1_555 1_555
N2 N4 1_555 1_555
C1 N1 1_555 1_555
C2 C1 1_555 1_555
C3 C2 1_555 1_555
H2 C3 1_555 1_555
C4 C3 1_555 1_555
C5 C4 1_555 1_555
H3 C5 1_555 1_555
C6 C4 1_555 1_555
N3 C1 1_555 1_555
N4 N3 1_555 1_555
O7 Zn2 1_555 1_555
H6 O7 1_555 1_555
Zn5 N1 1_555 1_555
Zn6 O4 1_555 1_555
Zn7 N4 1_555 1_555
Zn8 N2 1_555 1_555
O8 Zn1 1_555 1_555
N6 Zn1 1_555 1_555
N8 Zn2 1_555 1_555
Zn2 O4 1_555 1_555
Zn2_2 O3_2 1_555 1_555
H5 O3_2 1_555 1_555
O7_2 Zn2_2 1_555 1_555
H7 O7_2 1_555 1_555
O9 Zn2_2 1_555 1_555
N7 Zn2_2 1_555 1_555
N5 N7 1_555 1_555
N1_2 N2_2 1_555 1_555
N2_2 N4_2 1_555 1_555
C1_2 N1_2 1_555 1_555
C2_2 C1_2 1_555 1_555
H3_2 C5_2 1_555 1_555
O8 C9 1_555 1_555
O6 C9 1_555 1_555
N3_2 C1_2 1_555 1_555
N4_2 N3_2 1_555 1_555
C7 C2_2 1_555 1_555
H4 C7 1_555 1_555
C8 C5_2 1_555 1_555
C9 C8 1_555 1_555
Zn5_2 N1_2 1_555 1_555
Zn7_5 N4_2 1_555 1_555
Zn8_3 N2_2 1_555 1_555
C7 C8 1_555 1_555
N1_3 N2_3 1_555 1_555
N2_3 N4_3 1_555 1_555
C1_3 N1_3 1_555 1_555
C2_3 C1_3 1_555 1_555
H3_3 C5_3 1_555 1_555
O5 C9_2 1_555 1_555
O6_2 C9_2 1_555 1_555
N3_3 C1_3 1_555 1_555
N4_3 N3_3 1_555 1_555
C7_2 C2_3 1_555 1_555
H4_2 C7_2 1_555 1_555
C8_2 C5_3 1_555 1_555
C9_2 C8_2 1_555 1_555
Zn3 O5 1_555 1_555
Zn5_3 N3_3 1_555 1_555
Zn8_2 N4_3 1_555 1_555
Zn7_4 N2_3 1_555 1_555
C7_2 C8_2 1_555 1_555
Zn3 O1_2 1_555 1_555
Zn6 O3_3 1_555 1_555
O1_2 C6_2 1_555 1_555
O2_2 C6_2 1_555 1_555
O3_3 H1_2 1_555 1_555
O9 Zn3 1_555 1_555
N1_4 N2_4 1_555 1_555
N2_4 N4_4 1_555 1_555
C1_4 N1_4 1_555 1_555
C2_4 C1_4 1_555 1_555
C3_2 C2_4 1_555 1_555
H2_2 C3_2 1_555 1_555
C4_2 C3_2 1_555 1_555
C5_4 C4_2 1_555 1_555
H3_4 C5_4 1_555 1_555
C6_2 C4_2 1_555 1_555
N3_4 C1_4 1_555 1_555
N4_4 N3_4 1_555 1_555
H5_2 O3_3 1_555 1_555
O7_3 Zn6 1_555 1_555
H6_2 O7_3 1_555 1_555
H7_2 O7_3 1_555 1_555
Zn5_4 N3_4 1_555 1_555
Zn8_4 N4_4 1_555 1_555
Zn7_8 N2_4 1_555 1_555
N5_2 Zn3 1_555 1_555
N7_2 Zn6 1_555 1_555
N8_2 Zn6 1_555 1_555
Zn6 O9 1_555 1_555
N5_2 N7_2 1_555 1_555
N6 N8_2 1_555 1_555
N6_2 N8 1_555 1_555
O7_4 Zn7 1_555 1_555
O7_5 Zn7_2 1_555 1_555
H7_3 O7_5 1_555 1_555
O9_2 Zn7_2 1_555 1_555
O4_2 Zn5_3 1_555 1_555
O7_6 Zn7_3 1_555 1_555
H6_3 O7_6 1_555 1_555
Zn8_2 O4_2 1_555 1_555
O8_2 Zn5_3 1_555 1_555
Zn7_3 O4_2 1_555 1_555
O7_7 Zn7_4 1_555 1_555
Zn7_5 O3_4 1_555 1_555
Zn7_6 O3_5 1_555 1_555
H5_3 O3_5 1_555 1_555
O9_3 Zn7_6 1_555 1_555
Zn5_4 O1_3 1_555 1_555
Zn7_7 O3_6 1_555 1_555
O1_3 C6_3 1_555 1_555
O2_3 C6_3 1_555 1_555
O3_6 H1_3 1_555 1_555
O4_3 Zn5_4 1_555 1_555
N7_2 N8 1_555 1_555
C1_5 N5_2 1_555 1_555
C2_5 C1_5 1_555 1_555
C3_3 C2_5 1_555 1_555
H2_3 C3_3 1_555 1_555
C4_3 C3_3 1_555 1_555
C5_5 C4_3 1_555 1_555
H3_5 C5_5 1_555 1_555
C6_3 C4_3 1_555 1_555
O8_2 C9_3 1_555 1_555
O6_3 C9_3 1_555 1_555
N6_2 C1_5 1_555 1_555
C7_3 C2_5 1_555 1_555
H4_3 C7_3 1_555 1_555
C8_3 C5_5 1_555 1_555
C9_3 C8_3 1_555 1_555
Zn8_4 O4_3 1_555 1_555
Zn7_7 O4_3 1_555 1_555
C7_3 C8_3 1_555 1_555
Zn7_8 O3_7 1_555 1_555
Zn5 O1_4 1_555 1_555
Zn8 O3_8 1_555 1_555
O1_4 C6_4 1_555 1_555
O2_4 C6_4 1_555 1_555
O3_8 H1_4 1_555 1_555
O9_2 Zn5 1_555 1_555
N7 N8_2 1_555 1_555
C1_6 N5 1_555 1_555
C2_6 C1_6 1_555 1_555
C3_4 C2_6 1_555 1_555
H2_4 C3_4 1_555 1_555
C4_4 C3_4 1_555 1_555
C5_6 C4_4 1_555 1_555
H3_6 C5_6 1_555 1_555
C6_4 C4_4 1_555 1_555
O5_2 C9_4 1_555 1_555
O6_4 C9_4 1_555 1_555
N6 C1_6 1_555 1_555
C7_4 C2_6 1_555 1_555
H4_4 C7_4 1_555 1_555
C8_4 C5_6 1_555 1_555
C9_4 C8_4 1_555 1_555
Zn5_2 O5_2 1_555 1_555
Zn8 O9_2 1_555 1_555
C7_4 C8_4 1_555 1_555
Zn8_2 O3_9 1_555 1_555
H5_4 O3_9 1_555 1_555
O9_3 Zn5_2 1_555 1_555
O7_8 Zn8_3 1_555 1_555
H6_4 O7_8 1_555 1_555
Zn8_3 O9_3 1_555 1_555
O7_9 Zn8_4 1_555 1_555
H7_4 O7_9 1_555 1_555

#END
