
###############################################################################
#
# This file contains modified crystal structure data generated from the
# MOF subset of the Cambridge Structural Database (CSD) v543 
# hosted by the Cambridge Crystallographic Data Centre (CCDC).
#
# This work is licensed under the Creative Commons
# Attribution-NonCommercial-ShareAlike 4.0 International License.
# To view a copy of this license, visit
# http://creativecommons.org/licenses/by-nc-sa/4.0/
# or send a letter to
# Creative Commons, PO Box 1866, Mountain View, CA 94042, USA.
#
# CIF created using the CSD Python API on 29 September 2022
# The structure has been converted into the P1 space group
# The structure has a 3D framework
# The original CSD entry IYOVIC is in the orthorhombic crystal system
# The original CSD entry IYOVIC is in a Sohncke space group
# The framework has been calculated to contain at least 10.0% void space
# The void calculation uses a probe of radius 1.32A, grid spacing 0.4
# The framework is charged, counterions have been retained in the structure
#
###############################################################################

data_IYOVIC
_chemical_formula_moiety         '(C48 H16 Cl8 Eu8 O32 S8 4-)n'
_symmetry_cell_setting           triclinic
_symmetry_space_group_name_H-M   'P 1'
_symmetry_Int_Tables_number      1
_space_group_name_Hall           'P 1'
loop_
_symmetry_equiv_pos_site_id
_symmetry_equiv_pos_as_xyz
1 x,y,z
_cell_length_a                   16.2850(5)
_cell_length_b                   11.9314(3)
_cell_length_c                   12.2099(4)
_cell_angle_alpha                90
_cell_angle_beta                 90
_cell_angle_gamma                90
_cell_volume                     2372.42
loop_
_atom_site_label
_atom_site_type_symbol
_atom_site_fract_x
_atom_site_fract_y
_atom_site_fract_z
Cl4 Cl 0.0000 0.0000 0.1197(3)
O17 O 0.0806(4) 0.0381(6) 0.3413(6)
Eu1 Eu 0.0000 0.5000 0.19727(6)
Eu5 Eu 0.02955(3) 0.83940(4) 0.28216(4)
Eu10 Eu 0.47045(3) 0.33940(4) 0.71784(4)
Eu11 Eu 0.52955(3) 0.66060(4) 0.71784(4)
Cl3 Cl 0.0127(11) 0.7955(19) 0.5000(16)
Cl4_2 Cl 0.0000 1.0000 0.1197(3)
S3 S 0.20987(17) 0.4792(2) 0.5209(2)
O9 O 0.0835(4) 0.6470(5) 0.3020(5)
O10 O 0.0773(4) 0.2641(6) 0.2153(7)
C13 C 0.3491(7) 0.4970(9) 0.6417(8)
O11 O 0.3316(5) 0.4005(5) 0.6776(6)
O13 O 0.1684(5) 0.9005(5) 0.3224(6)
O14 O 0.4194(4) 0.5381(6) 0.6587(6)
O19 O 0.0860(5) 0.4716(6) 0.3574(7)
C14 C 0.1276(7) 0.3113(9) 0.1534(9)
O20 O 0.1241(5) 0.4132(6) 0.1282(6)
C15 C 0.2910(6) 0.5552(9) 0.5716(8)
C16 C 0.1800(7) 0.5903(9) 0.4429(9)
C17 C 0.1118(7) 0.5704(8) 0.3653(9)
C18 C 0.2935(7) 0.6606(10) 0.5285(9)
H5 H 0.3342 0.7146 0.5465
C19 C 0.1979(7) 0.2470(9) 0.1085(10)
S4 S 0.26672(18) 0.3146(2) 0.0236(3)
O23 O 0.0556(4) 0.6148(5) 0.0589(6)
O26 O 0.0944(5) 0.7820(6) 0.1187(6)
C21 C 0.2892(7) 0.1061(9) 0.0646(9)
H6 H 0.3116 0.0326 0.0660
C22 C 0.3238(7) 0.1948(8) 0.0085(10)
C23 C 0.2290(7) 0.6803(8) 0.4543(9)
H7 H 0.2209 0.7491 0.4167
C24 C 0.2165(8) 0.1378(9) 0.1198(11)
H8 H 0.1838 0.0869 0.1608
Eu4 Eu 0.5000 0.0000 0.80273(6)
O21 O 0.4444(4) 0.1148(5) 0.9411(6)
O24 O 0.4056(5) 0.2820(6) 0.8813(6)
C20 C 0.3967(7) 0.1959(8) 0.9365(9)
Eu4_2 Eu 0.5000 1.0000 0.80273(6)
Cl4_3 Cl 1.0000 0.0000 0.1197(3)
Eu1_2 Eu 1.0000 0.5000 0.19727(6)
Eu2 Eu 0.97045(3) 0.16060(4) 0.28216(4)
Cl1 Cl 0.9873(11) 0.2045(19) 0.5000(16)
S1 S 0.79013(17) 0.5208(2) 0.5209(2)
O1 O 0.9165(4) 0.3530(5) 0.3020(5)
O2 O 0.9227(4) 0.7359(6) 0.2153(7)
C1 C 0.6509(7) 0.5030(9) 0.6417(8)
O3 O 0.6684(5) 0.5995(5) 0.6776(6)
O4 O 0.5806(4) 0.4619(6) 0.6587(6)
O5 O 0.9140(5) 0.5284(6) 0.3574(7)
C2 C 0.8724(7) 0.6887(9) 0.1534(9)
O6 O 0.8759(5) 0.5868(6) 0.1282(6)
C3 C 0.7090(6) 0.4448(9) 0.5716(8)
C4 C 0.8200(7) 0.4097(9) 0.4429(9)
C5 C 0.8882(7) 0.4296(8) 0.3653(9)
C6 C 0.7065(7) 0.3394(10) 0.5285(9)
H1 H 0.6658 0.2854 0.5465
C7 C 0.8021(7) 0.7530(9) 0.1085(10)
S2 S 0.73328(18) 0.6854(2) 0.0236(3)
C9 C 0.7108(7) 0.8939(9) 0.0646(9)
H2 H 0.6884 0.9674 0.0660
C10 C 0.6762(7) 0.8052(8) 0.0085(10)
C11 C 0.7710(7) 0.3197(8) 0.4543(9)
H3 H 0.7791 0.2509 0.4167
C12 C 0.7835(8) 0.8622(9) 0.1198(11)
H4 H 0.8162 0.9131 0.1608
Cl4_4 Cl 1.0000 1.0000 0.1197(3)
O12 O 0.8316(5) 0.0995(5) 0.3224(6)
O18 O 0.9194(4) 0.9619(6) 0.3413(6)
O22 O 0.9444(4) 0.3852(5) 0.0589(6)
O25 O 0.9056(5) 0.2180(6) 0.1187(6)
O7 O 0.5556(4) 0.8852(5) 0.9411(6)
O8 O 0.5944(5) 0.7180(6) 0.8813(6)
C8 C 0.6033(7) 0.8041(8) 0.9365(9)
C8_2 C 0.8967(7) 0.3041(8) 0.0635(9)
S1_2 S 0.70987(17) 0.0208(2) 0.4791(2)
O2_2 O 0.5773(4) 0.2359(6) 0.7847(7)
C1_2 C 0.8491(7) 0.0030(9) 0.3583(8)
O5_2 O 0.5860(5) 0.0284(6) 0.6426(7)
C2_2 C 0.6276(7) 0.1887(9) 0.8466(9)
O6_2 O 0.6241(5) 0.0868(6) 0.8718(6)
C7_2 C 0.6979(7) 0.2530(9) 0.8915(10)
S2_2 S 0.76672(18) 0.1854(2) 0.9764(3)
C9_2 C 0.7892(7) 0.3939(9) 0.9354(9)
H2_2 H 0.8116 0.4674 0.9340
C10_2 C 0.8238(7) 0.3052(8) 0.9915(10)
C12_2 C 0.7165(8) 0.3622(9) 0.8802(11)
H4_2 H 0.6838 0.4131 0.8392
Cl3_2 Cl 0.4873(11) 0.2955(19) 0.5000(16)
Cl4_5 Cl 0.5000 0.5000 0.8803(3)
O9_2 O 0.4165(4) 0.1470(5) 0.6980(5)
C15_2 C 0.2090(6) 0.0552(9) 0.4284(8)
C16_2 C 0.3200(7) 0.0903(9) 0.5571(9)
C17_2 C 0.3882(7) 0.0704(8) 0.6347(9)
C18_2 C 0.2065(7) 0.1606(10) 0.4715(9)
H5_2 H 0.1658 0.2146 0.4535
C23_2 C 0.2710(7) 0.1803(8) 0.5457(9)
H7_2 H 0.2791 0.2491 0.5833
C20_2 C 0.1033(7) 0.6959(8) 0.0635(9)
Cl1_2 Cl 0.5127(11) 0.7045(19) 0.5000(16)
O1_2 O 0.5835(4) 0.8530(5) 0.6980(5)
C3_2 C 0.7910(6) 0.9448(9) 0.4284(8)
C4_2 C 0.6800(7) 0.9097(9) 0.5571(9)
C5_2 C 0.6118(7) 0.9296(8) 0.6347(9)
C6_2 C 0.7935(7) 0.8394(10) 0.4715(9)
H1_2 H 0.8342 0.7854 0.4535
C11_2 C 0.7290(7) 0.8197(8) 0.5457(9)
H3_2 H 0.7209 0.7509 0.5833
S3_2 S 0.29013(17) 0.9792(2) 0.4791(2)
O10_2 O 0.4227(4) 0.7641(6) 0.7847(7)
C13_2 C 0.1509(7) 0.9970(9) 0.3583(8)
O19_2 O 0.4140(5) 0.9716(6) 0.6426(7)
C14_2 C 0.3724(7) 0.8113(9) 0.8466(9)
O20_2 O 0.3759(5) 0.9132(6) 0.8718(6)
C19_2 C 0.3021(7) 0.7470(9) 0.8915(10)
S4_2 S 0.23328(18) 0.8146(2) 0.9764(3)
C21_2 C 0.2108(7) 0.6061(9) 0.9354(9)
H6_2 H 0.1884 0.5326 0.9340
C22_2 C 0.1762(7) 0.6948(8) 0.9915(10)
C24_2 C 0.2835(8) 0.6378(9) 0.8802(11)
H8_2 H 0.3162 0.5869 0.8392
loop_
_geom_bond_atom_site_label_1
_geom_bond_atom_site_label_2
_geom_bond_site_symmetry_1
_geom_bond_site_symmetry_2
Eu10 O11 1_555 1_555
Eu11 O14 1_555 1_555
Cl3 Eu5 1_555 1_555
Cl4_2 Eu5 1_555 1_555
S3 C15 1_555 1_555
O9 Eu1 1_555 1_555
C13 O11 1_555 1_555
O13 Eu5 1_555 1_555
O14 Eu10 1_555 1_555
O19 Eu1 1_555 1_555
C14 O10 1_555 1_555
O20 Eu1 1_555 1_555
C15 C13 1_555 1_555
C16 S3 1_555 1_555
C17 O9 1_555 1_555
C18 C15 1_555 1_555
H5 C18 1_555 1_555
C19 C14 1_555 1_555
S4 C19 1_555 1_555
O23 Eu1 1_555 1_555
O26 Eu5 1_555 1_555
C21 H6 1_555 1_555
C22 S4 1_555 1_555
C23 C16 1_555 1_555
H7 C23 1_555 1_555
C24 C19 1_555 1_555
H8 C24 1_555 1_555
Eu5 O9 1_555 1_555
C13 O14 1_555 1_555
O19 C17 1_555 1_555
C14 O20 1_555 1_555
C16 C17 1_555 1_555
C18 C23 1_555 1_555
C21 C22 1_555 1_555
C21 C24 1_555 1_555
Eu4 O21 1_555 1_555
Eu10 O24 1_555 1_555
O21 C20 1_555 1_555
O24 C20 1_555 1_555
Eu1_2 O1 1_555 1_555
Eu2 Cl1 1_555 1_555
Cl4_3 Eu2 1_555 1_555
S1 C3 1_555 1_555
O1 Eu2 1_555 1_555
O2 C2 1_555 1_555
C1 O3 1_555 1_555
O3 Eu11 1_555 1_555
O4 C1 1_555 1_555
O5 Eu1_2 1_555 1_555
C2 O6 1_555 1_555
O6 Eu1_2 1_555 1_555
C3 C1 1_555 1_555
C4 S1 1_555 1_555
C5 O1 1_555 1_555
C6 C3 1_555 1_555
H1 C6 1_555 1_555
C7 C2 1_555 1_555
S2 C7 1_555 1_555
C9 H2 1_555 1_555
C10 S2 1_555 1_555
C11 C4 1_555 1_555
H3 C11 1_555 1_555
C12 C7 1_555 1_555
H4 C12 1_555 1_555
Eu11 O4 1_555 1_555
Eu10 O4 1_555 1_555
O12 Eu2 1_555 1_555
O22 Eu1_2 1_555 1_555
O25 Eu2 1_555 1_555
O5 C5 1_555 1_555
C4 C5 1_555 1_555
C6 C11 1_555 1_555
C9 C10 1_555 1_555
C9 C12 1_555 1_555
O7 C8 1_555 1_555
O8 C8 1_555 1_555
Eu4_2 O7 1_555 1_555
Eu11 O8 1_555 1_555
O22 C8_2 1_555 1_555
O25 C8_2 1_555 1_555
O2_2 C2_2 1_555 1_555
C1_2 O12 1_555 1_555
O5_2 Eu4 1_555 1_555
C2_2 O6_2 1_555 1_555
O6_2 Eu4 1_555 1_555
C7_2 C2_2 1_555 1_555
S2_2 C7_2 1_555 1_555
C9_2 H2_2 1_555 1_555
C10_2 S2_2 1_555 1_555
C12_2 C7_2 1_555 1_555
H4_2 C12_2 1_555 1_555
Eu10 O2_2 1_555 1_555
Cl3_2 Eu10 1_555 1_555
Cl4_5 Eu10 1_555 1_555
O9_2 Eu4 1_555 1_555
C17_2 O9_2 1_555 1_555
C18_2 C15_2 1_555 1_555
H5_2 C18_2 1_555 1_555
C23_2 C16_2 1_555 1_555
H7_2 C23_2 1_555 1_555
C9_2 C10_2 1_555 1_555
C9_2 C12_2 1_555 1_555
Eu10 O9_2 1_555 1_555
C16_2 C17_2 1_555 1_555
C18_2 C23_2 1_555 1_555
O23 C20_2 1_555 1_555
O26 C20_2 1_555 1_555
Eu4_2 O1_2 1_555 1_555
Eu11 Cl1_2 1_555 1_555
Cl4_5 Eu11 1_555 1_555
O1_2 Eu11 1_555 1_555
C5_2 O1_2 1_555 1_555
C6_2 C3_2 1_555 1_555
H1_2 C6_2 1_555 1_555
C11_2 C4_2 1_555 1_555
H3_2 C11_2 1_555 1_555
O10_2 Eu11 1_555 1_555
C13_2 O13 1_555 1_555
O19_2 Eu4_2 1_555 1_555
C14_2 O10_2 1_555 1_555
O20_2 Eu4_2 1_555 1_555
C19_2 C14_2 1_555 1_555
S4_2 C19_2 1_555 1_555
C21_2 H6_2 1_555 1_555
C22_2 S4_2 1_555 1_555
C24_2 C19_2 1_555 1_555
H8_2 C24_2 1_555 1_555
C4_2 C5_2 1_555 1_555
C6_2 C11_2 1_555 1_555
C14_2 O20_2 1_555 1_555
C21_2 C22_2 1_555 1_555
C21_2 C24_2 1_555 1_555

#END
