
###############################################################################
#
# This file contains modified crystal structure data generated from the
# MOF subset of the Cambridge Structural Database (CSD) v543 
# hosted by the Cambridge Crystallographic Data Centre (CCDC).
#
# This work is licensed under the Creative Commons
# Attribution-NonCommercial-ShareAlike 4.0 International License.
# To view a copy of this license, visit
# http://creativecommons.org/licenses/by-nc-sa/4.0/
# or send a letter to
# Creative Commons, PO Box 1866, Mountain View, CA 94042, USA.
#
# CIF created using the CSD Python API on 29 September 2022
# The structure has been converted into the P1 space group
# The structure has a 3D framework
# The original CSD entry IYOVEY is in the orthorhombic crystal system
# The original CSD entry IYOVEY is in a Sohncke space group
# The framework has been calculated to contain at least 10.0% void space
# The void calculation uses a probe of radius 1.32A, grid spacing 0.4
# The framework is charged, counterions have been retained in the structure
#
###############################################################################

data_IYOVEY
_chemical_formula_moiety         '(C48 H16 Cl8 Nd8 O32 S8 3-)n'
_symmetry_cell_setting           triclinic
_symmetry_space_group_name_H-M   'P 1'
_symmetry_Int_Tables_number      1
_space_group_name_Hall           'P 1'
loop_
_symmetry_equiv_pos_site_id
_symmetry_equiv_pos_as_xyz
1 x,y,z
_cell_length_a                   16.3890(3)
_cell_length_b                   12.0113(2)
_cell_length_c                   12.2966(2)
_cell_angle_alpha                90
_cell_angle_beta                 90
_cell_angle_gamma                90
_cell_volume                     2420.63
loop_
_atom_site_label
_atom_site_type_symbol
_atom_site_fract_x
_atom_site_fract_y
_atom_site_fract_z
Cl4 Cl -0.0000 0.0000 0.11748(8)
O18 O 0.08177(12) 0.03942(15) 0.33890(18)
Nd1 Nd -0.0000 0.5000 0.195880(17)
Nd5 Nd 0.029847(9) 0.838275(11) 0.281049(12)
Nd11 Nd 0.470153(9) 0.338275(11) 0.718951(12)
Nd12 Nd 0.529847(9) 0.661725(11) 0.718951(12)
Cl3 Cl 0.0198(3) 0.7996(3) 0.5076(3)
Cl4_2 Cl -0.0000 1.0000 0.11748(8)
S3 S 0.21042(5) 0.47954(6) 0.52027(7)
O9 O 0.08636(11) 0.64610(14) 0.30198(16)
O11 O 0.07628(11) 0.27122(15) 0.21078(19)
C13 C 0.34937(18) 0.4974(2) 0.6418(2)
O12 O 0.33047(12) 0.40141(15) 0.67836(17)
O14 O 0.16953(12) 0.90141(15) 0.32164(17)
O15 O 0.41823(12) 0.53942(15) 0.66110(18)
O20 O 0.08468(14) 0.47314(15) 0.35943(19)
O22 O 0.12727(15) 0.41749(16) 0.1266(2)
C15 C 0.29123(18) 0.5545(2) 0.5700(3)
C16 C 0.18051(19) 0.5897(2) 0.4409(3)
C17 C 0.11251(19) 0.5702(2) 0.3650(3)
C18 C 0.29370(19) 0.6592(3) 0.5280(3)
H5 H 0.3340 0.7128 0.5465
O24 O 0.05468(12) 0.61472(14) 0.05348(17)
O26 O 0.09481(13) 0.78040(15) 0.11775(18)
C23 C 0.22954(19) 0.6794(2) 0.4539(3)
H7 H 0.2217 0.7482 0.4173
Cl4_3 Cl 1.0000 0.0000 0.11748(8)
Nd3 Nd 0.5000 0.0000 0.804120(17)
Nd1_2 Nd 1.0000 0.5000 0.195880(17)
Nd2 Nd 0.970153(9) 0.161725(11) 0.281049(12)
Cl1 Cl 0.9802(3) 0.2004(3) 0.5076(3)
S1 S 0.78958(5) 0.52046(6) 0.52027(7)
O1 O 0.91364(11) 0.35390(14) 0.30198(16)
O2 O 0.92372(11) 0.72878(15) 0.21078(19)
C1 C 0.65063(18) 0.5026(2) 0.6418(2)
O3 O 0.66953(12) 0.59859(15) 0.67836(17)
O4 O 0.58177(12) 0.46058(15) 0.66110(18)
O5 O 0.91532(14) 0.52686(15) 0.35943(19)
C2 C 0.87072(18) 0.6840(3) 0.1514(3)
O6 O 0.87273(15) 0.58251(16) 0.1266(2)
C3 C 0.70877(18) 0.4455(2) 0.5700(3)
C4 C 0.81949(19) 0.4103(2) 0.4409(3)
C5 C 0.88749(19) 0.4298(2) 0.3650(3)
C6 C 0.70630(19) 0.3408(3) 0.5280(3)
H1 H 0.6660 0.2872 0.5465
C7 C 0.80291(19) 0.7508(2) 0.1081(3)
S2 S 0.73239(5) 0.68505(6) 0.02505(7)
C9 C 0.7117(2) 0.8917(2) 0.0671(3)
H2 H 0.6899 0.9650 0.0690
C10 C 0.67614(18) 0.8055(2) 0.0121(3)
C11 C 0.77046(19) 0.3206(2) 0.4539(3)
H3 H 0.7783 0.2518 0.4173
C12 C 0.7841(2) 0.8601(2) 0.1206(3)
H4 H 0.8166 0.9104 0.1614
Cl4_4 Cl 1.0000 1.0000 0.11748(8)
O13 O 0.83047(12) 0.09859(15) 0.32164(17)
O19 O 0.91823(12) 0.96058(15) 0.33890(18)
O23 O 0.94532(12) 0.38528(14) 0.05348(17)
O25 O 0.90519(13) 0.21960(15) 0.11775(18)
C20 C 0.89733(18) 0.3034(2) 0.0587(2)
O7 O 0.55468(12) 0.88528(14) 0.94652(17)
O8 O 0.59481(13) 0.71960(15) 0.88225(18)
C8 C 0.60267(18) 0.8034(2) 0.9413(2)
Nd3_2 Nd 0.5000 1.0000 0.804120(17)
O10 O 0.57628(11) 0.22878(15) 0.78922(19)
C14 C 0.62928(18) 0.1840(3) 0.8486(3)
O21 O 0.62727(15) 0.08251(16) 0.8734(2)
C19 C 0.69709(19) 0.2508(2) 0.8919(3)
S4 S 0.76761(5) 0.18505(6) 0.97495(7)
C21 C 0.7883(2) 0.3917(2) 0.9329(3)
H6 H 0.8101 0.4650 0.9310
C22 C 0.82386(18) 0.3055(2) 0.9879(3)
C24 C 0.7159(2) 0.3601(2) 0.8794(3)
H8 H 0.6834 0.4104 0.8386
C2_2 C 0.12928(18) 0.3160(3) 0.1514(3)
C7_2 C 0.19709(19) 0.2492(2) 0.1081(3)
S2_2 S 0.26761(5) 0.31495(6) 0.02505(7)
C9_2 C 0.2883(2) 0.1083(2) 0.0671(3)
H2_2 H 0.3101 0.0350 0.0690
C10_2 C 0.32386(18) 0.1945(2) 0.0121(3)
C12_2 C 0.2159(2) 0.1399(2) 0.1206(3)
H4_2 H 0.1834 0.0896 0.1614
C20_2 C 0.10267(18) 0.6966(2) 0.0587(2)
O7_2 O 0.44532(12) 0.11472(14) 0.94652(17)
O8_2 O 0.40519(13) 0.28040(15) 0.88225(18)
C8_2 C 0.39733(18) 0.1966(2) 0.9413(2)
O10_2 O 0.42372(11) 0.77122(15) 0.78922(19)
C14_2 C 0.37072(18) 0.8160(3) 0.8486(3)
O21_2 O 0.37273(15) 0.91749(16) 0.8734(2)
C19_2 C 0.30291(19) 0.7492(2) 0.8919(3)
S4_2 S 0.23239(5) 0.81495(6) 0.97495(7)
C21_2 C 0.2117(2) 0.6083(2) 0.9329(3)
H6_2 H 0.1899 0.5350 0.9310
C22_2 C 0.17614(18) 0.6945(2) 0.9879(3)
C24_2 C 0.2841(2) 0.6399(2) 0.8794(3)
H8_2 H 0.3166 0.5896 0.8386
S1_2 S 0.71042(5) 0.02046(6) 0.47973(7)
C1_2 C 0.84937(18) 0.0026(2) 0.3582(2)
O5_2 O 0.58468(14) 0.02686(15) 0.64057(19)
Cl3_2 Cl 0.4802(3) 0.2996(3) 0.4924(3)
Cl4_5 Cl 0.5000 0.5000 0.88252(8)
O9_2 O 0.41364(11) 0.14610(14) 0.69802(16)
C15_2 C 0.20877(18) 0.0545(2) 0.4300(3)
C16_2 C 0.31949(19) 0.0897(2) 0.5591(3)
C17_2 C 0.38749(19) 0.0702(2) 0.6350(3)
C18_2 C 0.20630(19) 0.1592(3) 0.4720(3)
H5_2 H 0.1660 0.2128 0.4535
C23_2 C 0.27046(19) 0.1794(2) 0.5461(3)
H7_2 H 0.2783 0.2482 0.5827
Cl1_2 Cl 0.5198(3) 0.7004(3) 0.4924(3)
O1_2 O 0.58636(11) 0.85390(14) 0.69802(16)
C3_2 C 0.79123(18) 0.9455(2) 0.4300(3)
C4_2 C 0.68051(19) 0.9103(2) 0.5591(3)
C5_2 C 0.61251(19) 0.9298(2) 0.6350(3)
C6_2 C 0.79370(19) 0.8408(3) 0.4720(3)
H1_2 H 0.8340 0.7872 0.4535
C11_2 C 0.72954(19) 0.8206(2) 0.5461(3)
H3_2 H 0.7217 0.7518 0.5827
S3_2 S 0.28958(5) 0.97954(6) 0.47973(7)
C13_2 C 0.15063(18) 0.9974(2) 0.3582(2)
O20_2 O 0.41532(14) 0.97314(15) 0.64057(19)
loop_
_geom_bond_atom_site_label_1
_geom_bond_atom_site_label_2
_geom_bond_site_symmetry_1
_geom_bond_site_symmetry_2
Nd11 O12 1_555 1_555
Nd12 O15 1_555 1_555
Cl3 Nd5 1_555 1_555
Cl4_2 Nd5 1_555 1_555
S3 C15 1_555 1_555
O9 Nd1 1_555 1_555
C13 O12 1_555 1_555
O14 Nd5 1_555 1_555
O15 Nd11 1_555 1_555
O20 Nd1 1_555 1_555
O22 Nd1 1_555 1_555
C15 C13 1_555 1_555
C16 S3 1_555 1_555
C17 O9 1_555 1_555
C18 C15 1_555 1_555
H5 C18 1_555 1_555
O24 Nd1 1_555 1_555
O26 Nd5 1_555 1_555
C23 C16 1_555 1_555
H7 C23 1_555 1_555
Nd5 O9 1_555 1_555
C13 O15 1_555 1_555
O20 C17 1_555 1_555
C16 C17 1_555 1_555
C18 C23 1_555 1_555
Nd1_2 O1 1_555 1_555
Nd2 Cl1 1_555 1_555
Cl4_3 Nd2 1_555 1_555
S1 C3 1_555 1_555
O1 Nd2 1_555 1_555
O2 C2 1_555 1_555
C1 O3 1_555 1_555
O3 Nd12 1_555 1_555
O4 C1 1_555 1_555
O5 Nd1_2 1_555 1_555
C2 O6 1_555 1_555
O6 Nd1_2 1_555 1_555
C3 C1 1_555 1_555
C4 S1 1_555 1_555
C5 O1 1_555 1_555
C6 C3 1_555 1_555
H1 C6 1_555 1_555
C7 C2 1_555 1_555
S2 C7 1_555 1_555
C9 H2 1_555 1_555
C10 S2 1_555 1_555
C11 C4 1_555 1_555
H3 C11 1_555 1_555
C12 C7 1_555 1_555
H4 C12 1_555 1_555
Nd12 O4 1_555 1_555
Nd11 O4 1_555 1_555
O13 Nd2 1_555 1_555
O23 Nd1_2 1_555 1_555
O25 Nd2 1_555 1_555
C20 O23 1_555 1_555
O5 C5 1_555 1_555
C4 C5 1_555 1_555
C6 C11 1_555 1_555
C9 C10 1_555 1_555
C9 C12 1_555 1_555
O25 C20 1_555 1_555
O7 C8 1_555 1_555
O8 C8 1_555 1_555
Nd3_2 O7 1_555 1_555
Nd3 O21 1_555 1_555
Nd12 O8 1_555 1_555
Nd11 O10 1_555 1_555
O10 C14 1_555 1_555
C14 O21 1_555 1_555
C19 C14 1_555 1_555
S4 C19 1_555 1_555
C21 H6 1_555 1_555
C22 S4 1_555 1_555
C24 C19 1_555 1_555
H8 C24 1_555 1_555
C21 C22 1_555 1_555
C21 C24 1_555 1_555
O11 C2_2 1_555 1_555
C2_2 O22 1_555 1_555
C7_2 C2_2 1_555 1_555
S2_2 C7_2 1_555 1_555
C9_2 H2_2 1_555 1_555
C10_2 S2_2 1_555 1_555
C12_2 C7_2 1_555 1_555
H4_2 C12_2 1_555 1_555
C20_2 O24 1_555 1_555
C9_2 C10_2 1_555 1_555
C9_2 C12_2 1_555 1_555
O26 C20_2 1_555 1_555
O7_2 C8_2 1_555 1_555
O8_2 C8_2 1_555 1_555
Nd3 O7_2 1_555 1_555
Nd3_2 O21_2 1_555 1_555
Nd11 O8_2 1_555 1_555
Nd12 O10_2 1_555 1_555
O10_2 C14_2 1_555 1_555
C14_2 O21_2 1_555 1_555
C19_2 C14_2 1_555 1_555
S4_2 C19_2 1_555 1_555
C21_2 H6_2 1_555 1_555
C22_2 S4_2 1_555 1_555
C24_2 C19_2 1_555 1_555
H8_2 C24_2 1_555 1_555
C21_2 C22_2 1_555 1_555
C21_2 C24_2 1_555 1_555
C1_2 O13 1_555 1_555
O5_2 Nd3 1_555 1_555
Cl3_2 Nd11 1_555 1_555
Cl4_5 Nd11 1_555 1_555
O9_2 Nd3 1_555 1_555
C17_2 O9_2 1_555 1_555
C18_2 C15_2 1_555 1_555
H5_2 C18_2 1_555 1_555
C23_2 C16_2 1_555 1_555
H7_2 C23_2 1_555 1_555
Nd11 O9_2 1_555 1_555
C16_2 C17_2 1_555 1_555
C18_2 C23_2 1_555 1_555
Nd3_2 O1_2 1_555 1_555
Nd12 Cl1_2 1_555 1_555
Cl4_5 Nd12 1_555 1_555
O1_2 Nd12 1_555 1_555
C5_2 O1_2 1_555 1_555
C6_2 C3_2 1_555 1_555
H1_2 C6_2 1_555 1_555
C11_2 C4_2 1_555 1_555
H3_2 C11_2 1_555 1_555
C13_2 O14 1_555 1_555
O20_2 Nd3_2 1_555 1_555
C4_2 C5_2 1_555 1_555
C6_2 C11_2 1_555 1_555

#END
