
###############################################################################
#
# This file contains modified crystal structure data generated from the
# MOF subset of the Cambridge Structural Database (CSD) v543 
# hosted by the Cambridge Crystallographic Data Centre (CCDC).
#
# This work is licensed under the Creative Commons
# Attribution-NonCommercial-ShareAlike 4.0 International License.
# To view a copy of this license, visit
# http://creativecommons.org/licenses/by-nc-sa/4.0/
# or send a letter to
# Creative Commons, PO Box 1866, Mountain View, CA 94042, USA.
#
# CIF created using the CSD Python API on 29 September 2022
# The structure has been converted into the P1 space group
# The structure has a 3D framework
# The original CSD entry IYUCIQ is in the monoclinic crystal system
# The framework has been calculated to contain at least 10.0% void space
# The void calculation uses a probe of radius 1.32A, grid spacing 0.4
# H atom positions have been added when not included in the experimental data
#
###############################################################################

data_IYUCIQ
_chemical_formula_moiety         '(C192 H120 Dy8 N48 O42)n'
_symmetry_cell_setting           triclinic
_symmetry_space_group_name_H-M   'P 1'
_symmetry_Int_Tables_number      1
_space_group_name_Hall           'P 1'
loop_
_symmetry_equiv_pos_site_id
_symmetry_equiv_pos_as_xyz
1 x,y,z
_cell_length_a                   29.162(4)
_cell_length_b                   21.924(2)
_cell_length_c                   14.955(2)
_cell_angle_alpha                90
_cell_angle_beta                 103.380(7)
_cell_angle_gamma                90
_cell_volume                     9301.92
loop_
_atom_site_label
_atom_site_type_symbol
_atom_site_fract_x
_atom_site_fract_y
_atom_site_fract_z
N2 N 0.0740(3) 0.0287(5) 0.0148(5)
N3 N 0.0936(4) 0.0507(5) 0.3338(6)
N4 N 0.0397(3) 0.1089(5) 0.2334(6)
N5 N 0.0852(3) 0.0354(5) 0.1753(6)
N6 N 0.0281(3) 0.0943(5) 0.0706(6)
C8 C 0.0178(3) 0.1205(5) 0.1438(7)
C9 C 0.0698(4) 0.0630(6) 0.2440(7)
C10 C 0.0620(3) 0.0521(5) 0.0936(7)
C18 C 0.1251(4) 0.0054(6) 0.3597(7)
C19 C 0.1576(5) 0.0111(7) 0.4456(8)
H9 H 0.1586 0.0471 0.4788
H27 H 0.0867292 0.0779994 0.383943
H25 H 0.0564896 0.0464398 0.953733
O18 O 0.7896(2) 0.3040(3) 0.0498(4)
O20 O 0.6989(2) 0.2666(3) 0.0508(5)
Dy1 Dy 0.23540(2) 0.75204(2) 0.32745(3)
Dy2 Dy 0.73402(2) 0.26331(2) 0.90554(3)
O4 O 0.2342(2) 0.8237(3) 0.0314(4)
O5 O 0.2104(2) 0.8040(3) 0.4502(4)
O6 O 0.2422(3) 0.8661(4) 0.5580(6)
O7 O 0.3011(2) 0.7666(3) 0.4492(5)
O8 O 0.3389(2) 0.7216(4) 0.5768(5)
O9 O 0.7239(3) 0.3239(4) 0.7132(6)
O10 O 0.6782(2) 0.3266(3) 0.8141(5)
O11 O 0.71520(17) 0.3003(3) 0.2736(4)
O12 O 0.7558(2) 0.3574(3) 0.2002(5)
N7 N 0.4922(3) 0.6726(5) 0.3432(6)
N8 N 0.5485(3) 0.6148(5) 0.3016(6)
N9 N 0.6068(3) 0.5560(5) 0.2640(6)
N10 N 0.5900(3) 0.5409(4) 0.4101(6)
N11 N 0.5313(3) 0.5998(5) 0.4490(6)
N12 N 0.5697(4) 0.5291(5) 0.5501(6)
C11 C 0.1067(4) 0.9846(6) 0.0111(7)
C12 C 0.1440(4) 0.9630(6) 0.0814(7)
H5 H 0.1485 0.9793 0.1401
C13 C 0.1732(3) 0.9195(5) 0.0651(7)
H6 H 0.1957 0.9044 0.1146
C20 C 0.1874(5) 0.9649(6) 0.4803(9)
H10 H 0.2111 0.9717 0.5328
C21 C 0.1833(3) 0.9063(5) 0.4383(7)
C22 C 0.1507(3) 0.8986(5) 0.3568(7)
H11 H 0.1488 0.8617 0.3254
C23 C 0.1205(4) 0.9464(6) 0.3214(7)
H12 H 0.0962 0.9391 0.2701
C24 C 0.2137(3) 0.8557(5) 0.4850(6)
C25 C 0.3369(3) 0.7390(3) 0.4985(6)
C26 C 0.3807(3) 0.7265(5) 0.4613(6)
C27 C 0.4136(3) 0.6888(6) 0.5098(7)
H13 H 0.4114 0.6759 0.5678
C28 C 0.4527(4) 0.6680(6) 0.4723(7)
H14 H 0.4745 0.6399 0.5034
C29 C 0.4559(4) 0.6920(5) 0.3882(7)
C30 C 0.4217(3) 0.7297(5) 0.3409(7)
H15 H 0.4238 0.7426 0.2827
C31 C 0.3841(4) 0.7498(5) 0.3748(7)
H16 H 0.3622 0.7774 0.3424
C32 C 0.5233(4) 0.6269(6) 0.3672(7)
C33 C 0.5625(4) 0.5567(6) 0.4676(7)
C34 C 0.5809(4) 0.5700(6) 0.3302(8)
C35 C 0.6356(4) 0.5067(6) 0.2669(8)
C36 C 0.6301(4) 0.4501(6) 0.3044(7)
H17 H 0.6052 0.4452 0.3329
C37 C 0.6588(4) 0.4006(6) 0.3024(8)
H18 H 0.6543 0.3643 0.3316
C38 C 0.6947(3) 0.4060(5) 0.2555(7)
C39 C 0.7001(4) 0.4624(5) 0.2140(8)
H19 H 0.7232 0.4665 0.1809
C40 C 0.6722(4) 0.5107(6) 0.2211(8)
H20 H 0.6776 0.5476 0.1947
C41 C 0.6007(4) 0.4868(6) 0.5937(8)
C42 C 0.6393(4) 0.4646(6) 0.5646(8)
H21 H 0.6465 0.4804 0.5118
C43 C 0.6670(4) 0.4196(6) 0.6131(8)
H22 H 0.6919 0.4042 0.5909
C44 C 0.6589(4) 0.3968(5) 0.6937(7)
C45 C 0.6215(4) 0.4192(6) 0.7224(8)
H23 H 0.6154 0.4041 0.7765
C46 C 0.5929(4) 0.4624(6) 0.6760(8)
H24 H 0.5676 0.4763 0.6986
C47 C 0.6872(4) 0.3435(5) 0.7417(8)
C48 C 0.7220(3) 0.3512(4) 0.2411(6)
Dy3 Dy 0.76460(2) 0.25204(2) 0.17255(3)
Dy5 Dy 0.76460(2) 0.24796(2) 0.67255(3)
Dy8 Dy 0.26598(2) 0.76331(2) 0.59446(3)
Dy9 Dy 0.26598(2) 0.73669(2) 0.09446(3)
Dy10 Dy 0.73402(2) 0.23669(2) 0.40554(3)
O13 O 0.8022(2) 0.2667(3) 0.8417(5)
O14 O 0.1978(2) 0.7333(3) 0.1583(5)
O15 O 0.1580(2) 0.7706(4) 0.2496(5)
O16 O 0.2018(3) 0.6732(3) 0.3841(4)
O17 O 0.7658(2) 0.1763(3) 0.9686(4)
O19 O 0.7578(3) 0.3661(4) 0.9420(6)
O21 O 0.6611(2) 0.2216(4) 0.9232(5)
O22 O 0.2761(3) 0.6761(4) 0.2868(6)
O23 O 0.28480(17) 0.8003(3) 0.2264(4)
O24 O 0.71520(17) 0.1997(3) 0.7736(4)
O25 O 0.2442(2) 0.8574(3) 0.2998(5)
H28 H 0.603748 0.584922 0.209943
H29 H 0.546866 0.543099 0.587847
H30 H 0.494514 0.696492 0.286276
O3 O 0.2018(3) 0.8268(3) 0.8841(4)
C14 C 0.1718(3) 0.8953(4) 0.9774(6)
C15 C 0.1380(4) 0.9175(6) 0.9084(8)
H7 H 0.1360 0.9025 0.8495
C16 C 0.1063(4) 0.9612(6) 0.9206(7)
H8 H 0.0843 0.9759 0.8699
C17 C 0.2056(3) 0.8477(5) 0.9671(6)
Dy6 Dy 0.23540(2) 0.74796(2) 0.82745(3)
O2 O 0.8420(2) 0.2294(4) 0.7504(5)
C1 C 0.8391(3) 0.2432(4) 0.8300(6)
C2 C 0.8791(3) 0.2248(5) 0.9106(6)
C3 C 0.9142(3) 0.1843(5) 0.8953(7)
H1 H 0.9129 0.1702 0.8362
C4 C 0.9489(3) 0.1658(6) 0.9643(7)
H2 H 0.9723 0.1404 0.9522
C7 C 0.8806(3) 0.2447(5) 0.9979(7)
O1 O 0.1978(2) 0.7667(3) 0.6583(5)
O2_2 O 0.1580(2) 0.7294(4) 0.7496(5)
N1 N 0.0161(3) 0.6655(5) 0.3646(6)
C1_2 C 0.1609(3) 0.7432(4) 0.6700(6)
C2_2 C 0.1209(3) 0.7248(5) 0.5894(6)
C3_2 C 0.0858(3) 0.6843(5) 0.6047(7)
H1_2 H 0.0871 0.6702 0.6638
C4_2 C 0.0511(3) 0.6658(6) 0.5357(7)
H2_2 H 0.0277 0.6404 0.5478
C5 C 0.0490(3) 0.6840(5) 0.4460(7)
C6 C 0.0821(3) 0.7258(5) 0.4291(7)
H3 H 0.0796 0.7412 0.3702
C7_2 C 0.1194(3) 0.7447(5) 0.5021(7)
H4 H 0.1428 0.7705 0.4909
H26 H 0.0177317 0.687929 0.306043
O3_2 O 0.7982(3) 0.3268(3) 0.6159(4)
O4_2 O 0.7658(2) 0.3237(3) 0.4686(4)
N2_2 N 0.9260(3) 0.5287(5) 0.4852(5)
N3_2 N 0.9064(4) 0.5507(5) 0.1662(6)
N4_2 N 0.9603(3) 0.6089(5) 0.2666(6)
N5_2 N 0.9148(3) 0.5354(5) 0.3247(6)
N6_2 N 0.9719(3) 0.5943(5) 0.4294(6)
N7_2 N 0.5078(3) 0.1726(5) 0.1568(6)
N8_2 N 0.4515(3) 0.1148(5) 0.1984(6)
N9_2 N 0.3932(3) 0.0560(5) 0.2360(6)
N10_2 N 0.4100(3) 0.0409(4) 0.0899(6)
N11_2 N 0.4687(3) 0.0998(5) 0.0510(6)
C8_2 C 0.9822(3) 0.6205(5) 0.3562(7)
C9_2 C 0.9302(4) 0.5630(6) 0.2560(7)
C10_2 C 0.9380(3) 0.5521(5) 0.4064(7)
C11_2 C 0.8933(4) 0.4846(6) 0.4889(7)
C12_2 C 0.8560(4) 0.4630(6) 0.4186(7)
H5_2 H 0.8515 0.4793 0.3599
C13_2 C 0.8268(3) 0.4195(5) 0.4349(7)
H6_2 H 0.8043 0.4044 0.3854
C14_2 C 0.8282(3) 0.3953(4) 0.5226(6)
C15_2 C 0.8620(4) 0.4175(6) 0.5916(8)
H7_2 H 0.8640 0.4025 0.6505
C16_2 C 0.8937(4) 0.4612(6) 0.5794(7)
H8_2 H 0.9157 0.4759 0.6301
C17_2 C 0.7944(3) 0.3477(5) 0.5329(6)
C18_2 C 0.8749(4) 0.5054(6) 0.1403(7)
C19_2 C 0.8424(5) 0.5111(7) 0.0544(8)
H9_2 H 0.8414 0.5471 0.0212
C20_2 C 0.8126(5) 0.4649(6) 0.0197(9)
C21_2 C 0.8167(3) 0.4063(5) 0.0617(7)
C22_2 C 0.8493(3) 0.3986(5) 0.1432(7)
H11_2 H 0.8512 0.3617 0.1746
C23_2 C 0.8795(4) 0.4464(6) 0.1786(7)
H12_2 H 0.9038 0.4391 0.2299
C24_2 C 0.7863(3) 0.3557(5) 0.0150(6)
C25_2 C 0.6631(3) 0.2390(3) 0.0015(6)
C26_2 C 0.6193(3) 0.2265(5) 0.0387(6)
C28_2 C 0.5473(4) 0.1680(6) 0.0277(7)
C29_2 C 0.5441(4) 0.1920(5) 0.1118(7)
C30_2 C 0.5783(3) 0.2297(5) 0.1591(7)
H15_2 H 0.5762 0.2426 0.2173
C31_2 C 0.6159(4) 0.2498(5) 0.1252(7)
H16_2 H 0.6378 0.2774 0.1576
C32_2 C 0.4767(4) 0.1269(6) 0.1328(7)
C33_2 C 0.4375(4) 0.0567(6) 0.0324(7)
C34_2 C 0.4191(4) 0.0700(6) 0.1698(8)
C35_2 C 0.3644(4) 0.0067(6) 0.2331(8)
C40_2 C 0.3278(4) 0.0107(6) 0.2789(8)
H20_2 H 0.3224 0.0476 0.3053
O14_2 O 0.8022(2) 0.2333(3) 0.3417(5)
O15_2 O 0.8420(2) 0.2706(4) 0.2504(5)
O16_2 O 0.7982(3) 0.1732(3) 0.1159(4)
O22_2 O 0.7239(3) 0.1761(4) 0.2132(6)
H25_2 H 0.94351 0.54644 0.546267
H27_2 H 0.913271 0.577999 0.116057
H28_2 H 0.396252 0.0849215 0.290057
H30_2 H 0.505486 0.196492 0.213724
N12_2 N 0.4303(4) 0.0291(5) 0.9499(6)
H10_2 H 0.7889 0.4717 0.9672
C27_2 C 0.5864(3) 0.1888(6) 0.9902(7)
H13_2 H 0.5886 0.1759 0.9322
H14_2 H 0.5255 0.1399 0.9966
H29_2 H 0.453134 0.0430988 0.912153
C36_2 C 0.3699(4) 0.9501(6) 0.1956(7)
H17_2 H 0.3948 0.9452 0.1671
C37_2 C 0.3412(4) 0.9006(6) 0.1976(8)
H18_2 H 0.3457 0.8643 0.1684
C38_2 C 0.3053(3) 0.9060(5) 0.2445(7)
C39_2 C 0.2999(4) 0.9624(5) 0.2860(8)
H19_2 H 0.2768 0.9665 0.3191
C48_2 C 0.2780(3) 0.8512(4) 0.2589(6)
O9_2 O 0.2761(3) 0.8239(4) 0.7868(6)
O10_2 O 0.3218(2) 0.8266(3) 0.6859(5)
C41_2 C 0.3993(4) 0.9868(6) 0.9063(8)
C42_2 C 0.3607(4) 0.9646(6) 0.9354(8)
H21_2 H 0.3535 0.9804 0.9882
C43_2 C 0.3330(4) 0.9196(6) 0.8869(8)
H22_2 H 0.3081 0.9042 0.9091
C44_2 C 0.3411(4) 0.8968(5) 0.8063(7)
C45_2 C 0.3785(4) 0.9192(6) 0.7776(8)
H23_2 H 0.3846 0.9041 0.7235
C46_2 C 0.4071(4) 0.9624(6) 0.8240(8)
H24_2 H 0.4324 0.9763 0.8014
C47_2 C 0.3128(4) 0.8435(5) 0.7583(8)
O17_2 O 0.2342(2) 0.6763(3) 0.5314(4)
O24_2 O 0.28480(17) 0.6997(3) 0.7264(4)
C1_3 C 0.1609(3) 0.7568(4) 0.1700(6)
C2_3 C 0.1209(3) 0.7752(5) 0.0894(6)
C3_3 C 0.0858(3) 0.8157(5) 0.1047(7)
H1_3 H 0.0871 0.8298 0.1638
C4_3 C 0.0511(3) 0.8342(6) 0.0357(7)
H2_3 H 0.0277 0.8596 0.0478
C7_3 C 0.1194(3) 0.7553(5) 0.0021(7)
C14_3 C 0.8282(3) 0.1047(4) 0.0226(6)
C15_3 C 0.8620(4) 0.0825(6) 0.0916(8)
H7_3 H 0.8640 0.0975 0.1505
C16_3 C 0.8937(4) 0.0388(6) 0.0794(7)
H8_3 H 0.9157 0.0241 0.1301
C17_3 C 0.7944(3) 0.1523(5) 0.0329(6)
O5_2 O 0.7896(2) 0.1960(3) 0.5498(4)
O6_2 O 0.7578(3) 0.1339(4) 0.4420(6)
O7_2 O 0.6989(2) 0.2334(3) 0.5508(5)
O8_2 O 0.6611(2) 0.2784(4) 0.4232(5)
O10_3 O 0.3218(2) 0.6734(3) 0.1859(5)
O12_2 O 0.2442(2) 0.6426(3) 0.7998(5)
N7_3 N 0.5078(3) 0.3274(5) 0.6568(6)
N8_3 N 0.4515(3) 0.3852(5) 0.6984(6)
N9_3 N 0.3932(3) 0.4440(5) 0.7360(6)
N10_3 N 0.4100(3) 0.4591(4) 0.5899(6)
N11_3 N 0.4687(3) 0.4002(5) 0.5510(6)
N12_3 N 0.4303(4) 0.4709(5) 0.4499(6)
C11_3 C 0.8933(4) 0.0154(6) 0.9889(7)
C12_3 C 0.8560(4) 0.0370(6) 0.9186(7)
H5_3 H 0.8515 0.0207 0.8599
C13_3 C 0.8268(3) 0.0805(5) 0.9349(7)
H6_3 H 0.8043 0.0956 0.8854
C20_3 C 0.8126(5) 0.0351(6) 0.5197(9)
H10_3 H 0.7889 0.0283 0.4672
C21_3 C 0.8167(3) 0.0937(5) 0.5617(7)
C22_3 C 0.8493(3) 0.1014(5) 0.6432(7)
H11_3 H 0.8512 0.1383 0.6746
C23_3 C 0.8795(4) 0.0536(6) 0.6786(7)
H12_3 H 0.9038 0.0609 0.7299
C24_3 C 0.7863(3) 0.1443(5) 0.5150(6)
C25_3 C 0.6631(3) 0.2610(3) 0.5015(6)
C26_3 C 0.6193(3) 0.2735(5) 0.5387(6)
C27_3 C 0.5864(3) 0.3112(6) 0.4902(7)
H13_3 H 0.5886 0.3241 0.4322
C28_3 C 0.5473(4) 0.3320(6) 0.5277(7)
H14_3 H 0.5255 0.3601 0.4966
C29_3 C 0.5441(4) 0.3080(5) 0.6118(7)
C30_3 C 0.5783(3) 0.2703(5) 0.6591(7)
H15_3 H 0.5762 0.2574 0.7173
C31_3 C 0.6159(4) 0.2502(5) 0.6252(7)
H16_3 H 0.6378 0.2226 0.6576
C32_3 C 0.4767(4) 0.3731(6) 0.6328(7)
C33_3 C 0.4375(4) 0.4433(6) 0.5324(7)
C34_3 C 0.4191(4) 0.4300(6) 0.6698(8)
C35_3 C 0.3644(4) 0.4933(6) 0.7331(8)
C36_3 C 0.3699(4) 0.5499(6) 0.6956(7)
H17_3 H 0.3948 0.5548 0.6671
C37_3 C 0.3412(4) 0.5994(6) 0.6976(8)
H18_3 H 0.3457 0.6357 0.6684
C38_3 C 0.3053(3) 0.5940(5) 0.7445(7)
C39_3 C 0.2999(4) 0.5376(5) 0.7860(8)
H19_3 H 0.2768 0.5335 0.8191
C40_3 C 0.3278(4) 0.4893(6) 0.7789(8)
H20_3 H 0.3224 0.4524 0.8053
C41_3 C 0.3993(4) 0.5132(6) 0.4063(8)
C42_3 C 0.3607(4) 0.5354(6) 0.4354(8)
H21_3 H 0.3535 0.5196 0.4882
C43_3 C 0.3330(4) 0.5804(6) 0.3869(8)
H22_3 H 0.3081 0.5958 0.4091
C44_3 C 0.3411(4) 0.6032(5) 0.3063(7)
C45_3 C 0.3785(4) 0.5808(6) 0.2776(8)
H23_3 H 0.3846 0.5959 0.2235
C46_3 C 0.4071(4) 0.5376(6) 0.3240(8)
H24_3 H 0.4324 0.5237 0.3014
C47_3 C 0.3128(4) 0.6565(5) 0.2583(8)
C48_3 C 0.2780(3) 0.6488(4) 0.7589(6)
O19_2 O 0.2422(3) 0.6339(4) 0.0580(6)
O21_2 O 0.3389(2) 0.7784(4) 0.0768(5)
O25_2 O 0.7558(2) 0.1426(3) 0.7002(5)
H28_3 H 0.396252 0.415078 0.790057
H29_3 H 0.453134 0.456901 0.412153
H30_3 H 0.505486 0.303508 0.713724
O18_2 O 0.2104(2) 0.6960(3) 0.9502(4)
O20_2 O 0.3011(2) 0.7334(3) 0.9492(5)
O10_4 O 0.6782(2) 0.1734(3) 0.3141(5)
C41_4 C 0.6007(4) 0.0132(6) 0.0937(8)
C42_4 C 0.6393(4) 0.0354(6) 0.0646(8)
H21_4 H 0.6465 0.0196 0.0118
C43_4 C 0.6670(4) 0.0804(6) 0.1131(8)
H22_4 H 0.6919 0.0958 0.0909
C44_4 C 0.6589(4) 0.1032(5) 0.1937(7)
C45_4 C 0.6215(4) 0.0808(6) 0.2224(8)
H23_4 H 0.6154 0.0959 0.2765
C46_4 C 0.5929(4) 0.0376(6) 0.1760(8)
H24_4 H 0.5676 0.0237 0.1986
C47_4 C 0.6872(4) 0.1565(5) 0.2417(8)
C36_4 C 0.6301(4) 0.0499(6) 0.8044(7)
H17_4 H 0.6052 0.0548 0.8329
C37_4 C 0.6588(4) 0.0994(6) 0.8024(8)
H18_4 H 0.6543 0.1357 0.8316
C38_4 C 0.6947(3) 0.0940(5) 0.7555(7)
C39_4 C 0.7001(4) 0.0376(5) 0.7140(8)
H19_4 H 0.7232 0.0335 0.6809
C48_4 C 0.7220(3) 0.1488(4) 0.7411(6)
N12_4 N 0.5697(4) 0.9709(5) 0.0501(6)
H10_4 H 0.2111 0.5283 0.0328
C27_4 C 0.4136(3) 0.8112(6) 0.0098(7)
H13_4 H 0.4114 0.8241 0.0678
H14_4 H 0.4745 0.8601 0.0034
H29_4 H 0.546866 0.956901 0.0878466
N2_3 N 0.0740(3) 0.4713(5) 0.5148(5)
N3_3 N 0.0936(4) 0.4493(5) 0.8338(6)
N4_3 N 0.0397(3) 0.3911(5) 0.7334(6)
N5_3 N 0.0852(3) 0.4646(5) 0.6753(6)
N6_3 N 0.0281(3) 0.4057(5) 0.5706(6)
N7_4 N 0.4922(3) 0.8274(5) 0.8432(6)
N8_4 N 0.5485(3) 0.8852(5) 0.8016(6)
N9_4 N 0.6068(3) 0.9440(5) 0.7640(6)
N10_4 N 0.5900(3) 0.9591(4) 0.9101(6)
N11_4 N 0.5313(3) 0.9002(5) 0.9490(6)
C8_3 C 0.0178(3) 0.3795(5) 0.6438(7)
C9_3 C 0.0698(4) 0.4370(6) 0.7440(7)
C10_3 C 0.0620(3) 0.4479(5) 0.5936(7)
C11_4 C 0.1067(4) 0.5154(6) 0.5111(7)
C12_4 C 0.1440(4) 0.5370(6) 0.5814(7)
H5_4 H 0.1485 0.5207 0.6401
C13_4 C 0.1732(3) 0.5805(5) 0.5651(7)
H6_4 H 0.1957 0.5956 0.6146
C14_4 C 0.1718(3) 0.6047(4) 0.4774(6)
C15_4 C 0.1380(4) 0.5825(6) 0.4084(8)
H7_4 H 0.1360 0.5975 0.3495
C16_4 C 0.1063(4) 0.5388(6) 0.4206(7)
H8_4 H 0.0843 0.5241 0.3699
C17_4 C 0.2056(3) 0.6523(5) 0.4671(6)
C18_3 C 0.1251(4) 0.4946(6) 0.8597(7)
C19_3 C 0.1576(5) 0.4889(7) 0.9456(8)
H9_3 H 0.1586 0.4529 0.9788
C20_4 C 0.1874(5) 0.5351(6) 0.9803(9)
C21_4 C 0.1833(3) 0.5937(5) 0.9383(7)
C22_4 C 0.1507(3) 0.6014(5) 0.8568(7)
H11_4 H 0.1488 0.6383 0.8254
C23_4 C 0.1205(4) 0.5536(6) 0.8214(7)
H12_4 H 0.0962 0.5609 0.7701
C24_4 C 0.2137(3) 0.6443(5) 0.9850(6)
C25_4 C 0.3369(3) 0.7610(3) 0.9985(6)
C26_4 C 0.3807(3) 0.7735(5) 0.9613(6)
C28_4 C 0.4527(4) 0.8320(6) 0.9723(7)
C29_4 C 0.4559(4) 0.8080(5) 0.8882(7)
C30_4 C 0.4217(3) 0.7703(5) 0.8409(7)
H15_4 H 0.4238 0.7574 0.7827
C31_4 C 0.3841(4) 0.7502(5) 0.8748(7)
H16_4 H 0.3622 0.7226 0.8424
C32_4 C 0.5233(4) 0.8731(6) 0.8672(7)
C33_4 C 0.5625(4) 0.9433(6) 0.9676(7)
C34_4 C 0.5809(4) 0.9300(6) 0.8302(8)
C35_4 C 0.6356(4) 0.9933(6) 0.7669(8)
C40_4 C 0.6722(4) 0.9893(6) 0.7211(8)
H20_4 H 0.6776 0.9524 0.6947
H25_3 H 0.0564896 0.45356 0.453733
H27_3 H 0.0867292 0.422001 0.883943
H28_4 H 0.603748 0.915078 0.709943
H30_4 H 0.494514 0.803508 0.786276
N1_2 N 0.9839(3) 0.3345(5) 0.6354(6)
C1_4 C 0.8391(3) 0.2568(4) 0.3300(6)
C2_4 C 0.8791(3) 0.2752(5) 0.4106(6)
C3_4 C 0.9142(3) 0.3157(5) 0.3953(7)
H1_4 H 0.9129 0.3298 0.3362
C4_4 C 0.9489(3) 0.3342(6) 0.4643(7)
H2_4 H 0.9723 0.3596 0.4522
C5_2 C 0.9510(3) 0.3160(5) 0.5540(7)
C6_2 C 0.9179(3) 0.2742(5) 0.5709(7)
H3_2 H 0.9204 0.2588 0.6298
C7_4 C 0.8806(3) 0.2553(5) 0.4979(7)
H4_2 H 0.8572 0.2295 0.5091
H26_2 H 0.982268 0.312071 0.693957
N1_3 N 0.9839(3) 0.1655(5) 0.1354(6)
C5_3 C 0.9510(3) 0.1840(5) 0.0540(7)
C6_3 C 0.9179(3) 0.2258(5) 0.0709(7)
H3_3 H 0.9204 0.2412 0.1298
H4_3 H 0.8572 0.2705 0.0091
H26_3 H 0.982268 0.187929 0.193957
N1_4 N 0.0161(3) 0.8345(5) 0.8646(6)
C5_4 C 0.0490(3) 0.8160(5) 0.9460(7)
C6_4 C 0.0821(3) 0.7742(5) 0.9291(7)
H3_4 H 0.0796 0.7588 0.8702
H4_4 H 0.1428 0.7295 0.9909
H26_4 H 0.0177317 0.812071 0.806043
H25_4 H 0.94351 0.95356 0.0462671
N2_4 N 0.9260(3) 0.9713(5) 0.9852(5)
N3_4 N 0.9064(4) 0.9493(5) 0.6662(6)
N4_4 N 0.9603(3) 0.8911(5) 0.7666(6)
N5_4 N 0.9148(3) 0.9646(5) 0.8247(6)
N6_4 N 0.9719(3) 0.9057(5) 0.9294(6)
C8_4 C 0.9822(3) 0.8795(5) 0.8562(7)
C9_4 C 0.9302(4) 0.9370(6) 0.7560(7)
C10_4 C 0.9380(3) 0.9479(5) 0.9064(7)
C18_4 C 0.8749(4) 0.9946(6) 0.6403(7)
C19_4 C 0.8424(5) 0.9889(7) 0.5544(8)
H9_4 H 0.8414 0.9529 0.5212
H27_4 H 0.913271 0.922001 0.616057
loop_
_geom_bond_atom_site_label_1
_geom_bond_atom_site_label_2
_geom_bond_site_symmetry_1
_geom_bond_site_symmetry_2
N2 C10 1_555 1_555
N3 C9 1_555 1_555
N4 C8 1_555 1_555
N5 C9 1_555 1_555
N6 C8 1_555 1_555
C9 N4 1_555 1_555
C10 N5 1_555 1_555
C18 N3 1_555 1_555
C19 C18 1_555 1_555
H9 C19 1_555 1_555
N6 C10 1_555 1_555
N3 H27 1_555 1_555
Dy1 O5 1_555 1_555
Dy2 O10 1_555 1_555
O5 C24 1_555 1_555
O6 C24 1_555 1_555
O7 Dy1 1_555 1_555
O8 C25 1_555 1_555
O9 C47 1_555 1_555
O10 C47 1_555 1_555
O11 C48 1_555 1_555
O12 C48 1_555 1_555
N7 C29 1_555 1_555
N8 C32 1_555 1_555
N9 C34 1_555 1_555
N10 C33 1_555 1_555
N11 C32 1_555 1_555
N12 C33 1_555 1_555
C12 C11 1_555 1_555
H5 C12 1_555 1_555
C13 C12 1_555 1_555
H6 C13 1_555 1_555
H10 C20 1_555 1_555
C21 C20 1_555 1_555
C22 C21 1_555 1_555
H11 C22 1_555 1_555
H12 C23 1_555 1_555
C24 C21 1_555 1_555
C25 O7 1_555 1_555
C26 C25 1_555 1_555
C27 C26 1_555 1_555
H13 C27 1_555 1_555
C28 C27 1_555 1_555
H14 C28 1_555 1_555
C29 C28 1_555 1_555
C30 C29 1_555 1_555
H15 C30 1_555 1_555
C31 C26 1_555 1_555
H16 C31 1_555 1_555
C32 N7 1_555 1_555
C33 N11 1_555 1_555
C34 N8 1_555 1_555
C35 N9 1_555 1_555
C36 C35 1_555 1_555
H17 C36 1_555 1_555
C37 C36 1_555 1_555
H18 C37 1_555 1_555
C38 C37 1_555 1_555
C39 C38 1_555 1_555
H19 C39 1_555 1_555
C40 C35 1_555 1_555
H20 C40 1_555 1_555
C41 N12 1_555 1_555
C42 C41 1_555 1_555
H21 C42 1_555 1_555
C43 C42 1_555 1_555
H22 C43 1_555 1_555
C44 C43 1_555 1_555
C45 C44 1_555 1_555
H23 C45 1_555 1_555
C46 C41 1_555 1_555
H24 C46 1_555 1_555
C47 C44 1_555 1_555
C48 C38 1_555 1_555
Dy3 O11 1_555 1_555
Dy5 O9 1_555 1_555
Dy8 O5 1_555 1_555
Dy9 O4 1_555 1_555
Dy10 O11 1_555 1_555
O13 Dy2 1_555 1_555
O14 Dy1 1_555 1_555
O15 Dy1 1_555 1_555
O16 Dy1 1_555 1_555
O17 Dy2 1_555 1_555
O19 Dy2 1_555 1_555
O21 Dy2 1_555 1_555
O22 Dy1 1_555 1_555
O23 Dy1 1_555 1_555
O24 Dy2 1_555 1_555
O25 Dy1 1_555 1_555
O6 Dy8 1_555 1_555
O7 Dy8 1_555 1_555
O8 Dy8 1_555 1_555
O12 Dy3 1_555 1_555
N10 C34 1_555 1_555
C22 C23 1_555 1_555
C30 C31 1_555 1_555
C39 C40 1_555 1_555
C45 C46 1_555 1_555
Dy5 O13 1_555 1_555
Dy5 O24 1_555 1_555
Dy9 O14 1_555 1_555
Dy9 O23 1_555 1_555
N9 H28 1_555 1_555
N12 H29 1_555 1_555
N7 H30 1_555 1_555
O3 C17 1_555 1_555
C15 C14 1_555 1_555
H7 C15 1_555 1_555
H8 C16 1_555 1_555
C17 C14 1_555 1_555
Dy6 O3 1_555 1_555
C15 C16 1_555 1_555
O13 C1 1_555 1_555
O2 C1 1_555 1_555
C1 C2 1_555 1_555
C2 C3 1_555 1_555
C3 H1 1_555 1_555
C4 C3 1_555 1_555
H2 C4 1_555 1_555
C7 C2 1_555 1_555
O2 Dy5 1_555 1_555
O1 C1_2 1_555 1_555
O2_2 C1_2 1_555 1_555
N1 C5 1_555 1_555
C1_2 C2_2 1_555 1_555
C2_2 C3_2 1_555 1_555
C3_2 H1_2 1_555 1_555
C4_2 C3_2 1_555 1_555
H2_2 C4_2 1_555 1_555
C5 C4_2 1_555 1_555
C6 C5 1_555 1_555
H3 C6 1_555 1_555
C7_2 C2_2 1_555 1_555
H4 C7_2 1_555 1_555
Dy6 O1 1_555 1_555
Dy8 O1 1_555 1_555
O2_2 Dy6 1_555 1_555
C6 C7_2 1_555 1_555
N1 H26 1_555 1_555
Dy3 O18 1_555 1_555
O3_2 C17_2 1_555 1_555
O4_2 C17_2 1_555 1_555
O18 C24_2 1_555 1_555
O20 Dy3 1_555 1_555
N2_2 C10_2 1_555 1_555
N3_2 C9_2 1_555 1_555
N4_2 C8_2 1_555 1_555
N5_2 C9_2 1_555 1_555
N6_2 C8_2 1_555 1_555
N7_2 C29_2 1_555 1_555
N8_2 C32_2 1_555 1_555
N9_2 C34_2 1_555 1_555
N10_2 C33_2 1_555 1_555
N11_2 C32_2 1_555 1_555
C9_2 N4_2 1_555 1_555
C10_2 N5_2 1_555 1_555
C11_2 N2_2 1_555 1_555
C12_2 C11_2 1_555 1_555
H5_2 C12_2 1_555 1_555
C13_2 C12_2 1_555 1_555
H6_2 C13_2 1_555 1_555
C14_2 C13_2 1_555 1_555
C15_2 C14_2 1_555 1_555
H7_2 C15_2 1_555 1_555
C16_2 C11_2 1_555 1_555
H8_2 C16_2 1_555 1_555
C17_2 C14_2 1_555 1_555
C18_2 N3_2 1_555 1_555
C19_2 C18_2 1_555 1_555
H9_2 C19_2 1_555 1_555
C20_2 C19_2 1_555 1_555
C21_2 C20_2 1_555 1_555
C22_2 C21_2 1_555 1_555
H11_2 C22_2 1_555 1_555
C23_2 C18_2 1_555 1_555
H12_2 C23_2 1_555 1_555
C24_2 C21_2 1_555 1_555
C25_2 O20 1_555 1_555
C26_2 C25_2 1_555 1_555
C29_2 C28_2 1_555 1_555
C30_2 C29_2 1_555 1_555
H15_2 C30_2 1_555 1_555
C31_2 C26_2 1_555 1_555
H16_2 C31_2 1_555 1_555
C32_2 N7_2 1_555 1_555
C33_2 N11_2 1_555 1_555
C34_2 N8_2 1_555 1_555
C35_2 N9_2 1_555 1_555
C40_2 C35_2 1_555 1_555
H20_2 C40_2 1_555 1_555
Dy5 O3_2 1_555 1_555
Dy10 O4_2 1_555 1_555
O14_2 Dy3 1_555 1_555
O15_2 Dy3 1_555 1_555
O16_2 Dy3 1_555 1_555
O22_2 Dy3 1_555 1_555
N6_2 C10_2 1_555 1_555
N10_2 C34_2 1_555 1_555
C15_2 C16_2 1_555 1_555
C22_2 C23_2 1_555 1_555
C30_2 C31_2 1_555 1_555
Dy10 O14_2 1_555 1_555
N2_2 H25_2 1_555 1_555
N3_2 H27_2 1_555 1_555
N9_2 H28_2 1_555 1_555
N7_2 H30_2 1_555 1_555
H13_2 C27_2 1_555 1_555
N12_2 H29_2 1_555 1_555
O23 C48_2 1_555 1_555
O25 C48_2 1_555 1_555
H17_2 C36_2 1_555 1_555
C37_2 C36_2 1_555 1_555
H18_2 C37_2 1_555 1_555
C38_2 C37_2 1_555 1_555
C39_2 C38_2 1_555 1_555
H19_2 C39_2 1_555 1_555
C48_2 C38_2 1_555 1_555
Dy8 O10_2 1_555 1_555
O9_2 C47_2 1_555 1_555
O10_2 C47_2 1_555 1_555
C42_2 C41_2 1_555 1_555
H21_2 C42_2 1_555 1_555
C43_2 C42_2 1_555 1_555
H22_2 C43_2 1_555 1_555
C44_2 C43_2 1_555 1_555
C45_2 C44_2 1_555 1_555
H23_2 C45_2 1_555 1_555
C46_2 C41_2 1_555 1_555
H24_2 C46_2 1_555 1_555
C47_2 C44_2 1_555 1_555
Dy6 O9_2 1_555 1_555
O17_2 Dy8 1_555 1_555
O24_2 Dy8 1_555 1_555
C45_2 C46_2 1_555 1_555
Dy6 O24_2 1_555 1_555
O14 C1_3 1_555 1_555
O15 C1_3 1_555 1_555
C1_3 C2_3 1_555 1_555
C2_3 C3_3 1_555 1_555
C3_3 H1_3 1_555 1_555
C4_3 C3_3 1_555 1_555
H2_3 C4_3 1_555 1_555
C7_3 C2_3 1_555 1_555
O16_2 C17_3 1_555 1_555
C15_3 C14_3 1_555 1_555
H7_3 C15_3 1_555 1_555
H8_3 C16_3 1_555 1_555
C17_3 C14_3 1_555 1_555
C15_3 C16_3 1_555 1_555
Dy5 O5_2 1_555 1_555
Dy9 O10_3 1_555 1_555
O5_2 C24_3 1_555 1_555
O6_2 C24_3 1_555 1_555
O7_2 Dy5 1_555 1_555
O8_2 C25_3 1_555 1_555
O22 C47_3 1_555 1_555
O10_3 C47_3 1_555 1_555
O24_2 C48_3 1_555 1_555
O12_2 C48_3 1_555 1_555
N7_3 C29_3 1_555 1_555
N8_3 C32_3 1_555 1_555
N9_3 C34_3 1_555 1_555
N10_3 C33_3 1_555 1_555
N11_3 C32_3 1_555 1_555
N12_3 C33_3 1_555 1_555
C12_3 C11_3 1_555 1_555
H5_3 C12_3 1_555 1_555
C13_3 C12_3 1_555 1_555
H6_3 C13_3 1_555 1_555
H10_3 C20_3 1_555 1_555
C21_3 C20_3 1_555 1_555
C22_3 C21_3 1_555 1_555
H11_3 C22_3 1_555 1_555
H12_3 C23_3 1_555 1_555
C24_3 C21_3 1_555 1_555
C25_3 O7_2 1_555 1_555
C26_3 C25_3 1_555 1_555
C27_3 C26_3 1_555 1_555
H13_3 C27_3 1_555 1_555
C28_3 C27_3 1_555 1_555
H14_3 C28_3 1_555 1_555
C29_3 C28_3 1_555 1_555
C30_3 C29_3 1_555 1_555
H15_3 C30_3 1_555 1_555
C31_3 C26_3 1_555 1_555
H16_3 C31_3 1_555 1_555
C32_3 N7_3 1_555 1_555
C33_3 N11_3 1_555 1_555
C34_3 N8_3 1_555 1_555
C35_3 N9_3 1_555 1_555
C36_3 C35_3 1_555 1_555
H17_3 C36_3 1_555 1_555
C37_3 C36_3 1_555 1_555
H18_3 C37_3 1_555 1_555
C38_3 C37_3 1_555 1_555
C39_3 C38_3 1_555 1_555
H19_3 C39_3 1_555 1_555
C40_3 C35_3 1_555 1_555
H20_3 C40_3 1_555 1_555
C41_3 N12_3 1_555 1_555
C42_3 C41_3 1_555 1_555
H21_3 C42_3 1_555 1_555
C43_3 C42_3 1_555 1_555
H22_3 C43_3 1_555 1_555
C44_3 C43_3 1_555 1_555
C45_3 C44_3 1_555 1_555
H23_3 C45_3 1_555 1_555
C46_3 C41_3 1_555 1_555
H24_3 C46_3 1_555 1_555
C47_3 C44_3 1_555 1_555
C48_3 C38_3 1_555 1_555
Dy10 O5_2 1_555 1_555
O19_2 Dy9 1_555 1_555
O21_2 Dy9 1_555 1_555
O25_2 Dy5 1_555 1_555
O6_2 Dy10 1_555 1_555
O7_2 Dy10 1_555 1_555
O8_2 Dy10 1_555 1_555
O12_2 Dy6 1_555 1_555
N10_3 C34_3 1_555 1_555
C22_3 C23_3 1_555 1_555
C30_3 C31_3 1_555 1_555
C39_3 C40_3 1_555 1_555
C45_3 C46_3 1_555 1_555
N9_3 H28_3 1_555 1_555
N12_3 H29_3 1_555 1_555
N7_3 H30_3 1_555 1_555
Dy10 O10_4 1_555 1_555
O22_2 C47_4 1_555 1_555
O10_4 C47_4 1_555 1_555
C42_4 C41_4 1_555 1_555
H21_4 C42_4 1_555 1_555
C43_4 C42_4 1_555 1_555
H22_4 C43_4 1_555 1_555
C44_4 C43_4 1_555 1_555
C45_4 C44_4 1_555 1_555
H23_4 C45_4 1_555 1_555
C46_4 C41_4 1_555 1_555
H24_4 C46_4 1_555 1_555
C47_4 C44_4 1_555 1_555
C45_4 C46_4 1_555 1_555
O24 C48_4 1_555 1_555
O25_2 C48_4 1_555 1_555
H17_4 C36_4 1_555 1_555
C37_4 C36_4 1_555 1_555
H18_4 C37_4 1_555 1_555
C38_4 C37_4 1_555 1_555
C39_4 C38_4 1_555 1_555
H19_4 C39_4 1_555 1_555
C48_4 C38_4 1_555 1_555
H13_4 C27_4 1_555 1_555
N12_4 H29_4 1_555 1_555
Dy6 O18_2 1_555 1_555
O16 C17_4 1_555 1_555
O17_2 C17_4 1_555 1_555
O18_2 C24_4 1_555 1_555
O20_2 Dy6 1_555 1_555
N2_3 C10_3 1_555 1_555
N3_3 C9_3 1_555 1_555
N4_3 C8_3 1_555 1_555
N5_3 C9_3 1_555 1_555
N6_3 C8_3 1_555 1_555
N7_4 C29_4 1_555 1_555
N8_4 C32_4 1_555 1_555
N9_4 C34_4 1_555 1_555
N10_4 C33_4 1_555 1_555
N11_4 C32_4 1_555 1_555
C9_3 N4_3 1_555 1_555
C10_3 N5_3 1_555 1_555
C11_4 N2_3 1_555 1_555
C12_4 C11_4 1_555 1_555
H5_4 C12_4 1_555 1_555
C13_4 C12_4 1_555 1_555
H6_4 C13_4 1_555 1_555
C14_4 C13_4 1_555 1_555
C15_4 C14_4 1_555 1_555
H7_4 C15_4 1_555 1_555
C16_4 C11_4 1_555 1_555
H8_4 C16_4 1_555 1_555
C17_4 C14_4 1_555 1_555
C18_3 N3_3 1_555 1_555
C19_3 C18_3 1_555 1_555
H9_3 C19_3 1_555 1_555
C20_4 C19_3 1_555 1_555
C21_4 C20_4 1_555 1_555
C22_4 C21_4 1_555 1_555
H11_4 C22_4 1_555 1_555
C23_4 C18_3 1_555 1_555
H12_4 C23_4 1_555 1_555
C24_4 C21_4 1_555 1_555
C25_4 O20_2 1_555 1_555
C26_4 C25_4 1_555 1_555
C29_4 C28_4 1_555 1_555
C30_4 C29_4 1_555 1_555
H15_4 C30_4 1_555 1_555
C31_4 C26_4 1_555 1_555
H16_4 C31_4 1_555 1_555
C32_4 N7_4 1_555 1_555
C33_4 N11_4 1_555 1_555
C34_4 N8_4 1_555 1_555
C35_4 N9_4 1_555 1_555
C40_4 C35_4 1_555 1_555
H20_4 C40_4 1_555 1_555
N6_3 C10_3 1_555 1_555
N10_4 C34_4 1_555 1_555
C15_4 C16_4 1_555 1_555
C22_4 C23_4 1_555 1_555
C30_4 C31_4 1_555 1_555
N2_3 H25_3 1_555 1_555
N3_3 H27_3 1_555 1_555
N9_4 H28_4 1_555 1_555
N7_4 H30_4 1_555 1_555
O14_2 C1_4 1_555 1_555
O15_2 C1_4 1_555 1_555
N1_2 C5_2 1_555 1_555
C1_4 C2_4 1_555 1_555
C2_4 C3_4 1_555 1_555
C3_4 H1_4 1_555 1_555
C4_4 C3_4 1_555 1_555
H2_4 C4_4 1_555 1_555
C5_2 C4_4 1_555 1_555
C6_2 C5_2 1_555 1_555
H3_2 C6_2 1_555 1_555
C7_4 C2_4 1_555 1_555
H4_2 C7_4 1_555 1_555
C6_2 C7_4 1_555 1_555
N1_2 H26_2 1_555 1_555
N1_3 C5_3 1_555 1_555
C6_3 C5_3 1_555 1_555
H3_3 C6_3 1_555 1_555
N1_3 H26_3 1_555 1_555
N1_4 C5_4 1_555 1_555
C6_4 C5_4 1_555 1_555
H3_4 C6_4 1_555 1_555
N1_4 H26_4 1_555 1_555
N2_4 C10_4 1_555 1_555
N3_4 C9_4 1_555 1_555
N4_4 C8_4 1_555 1_555
N5_4 C9_4 1_555 1_555
N6_4 C8_4 1_555 1_555
C9_4 N4_4 1_555 1_555
C10_4 N5_4 1_555 1_555
C18_4 N3_4 1_555 1_555
C19_4 C18_4 1_555 1_555
H9_4 C19_4 1_555 1_555
N6_4 C10_4 1_555 1_555
N3_4 H27_4 1_555 1_555

#END
