
###############################################################################
#
# This file contains modified crystal structure data generated from the
# MOF subset of the Cambridge Structural Database (CSD) v543 
# hosted by the Cambridge Crystallographic Data Centre (CCDC).
#
# This work is licensed under the Creative Commons
# Attribution-NonCommercial-ShareAlike 4.0 International License.
# To view a copy of this license, visit
# http://creativecommons.org/licenses/by-nc-sa/4.0/
# or send a letter to
# Creative Commons, PO Box 1866, Mountain View, CA 94042, USA.
#
# CIF created using the CSD Python API on 29 September 2022
# The structure has been converted into the P1 space group
# The structure has a 3D framework
# The original CSD entry IYUHOA is in the trigonal crystal system
# The framework has been calculated to contain at least 10.0% void space
# The void calculation uses a probe of radius 1.32A, grid spacing 0.4
# The framework is charged, counterions have been retained in the structure
# H atom positions have been added when not included in the experimental data
#
###############################################################################

data_IYUHOA
_chemical_formula_moiety         '(C246 H234 In6 N12 O88 2+)n'
_symmetry_cell_setting           triclinic
_symmetry_space_group_name_H-M   'P 1'
_symmetry_Int_Tables_number      1
_space_group_name_Hall           'P 1'
loop_
_symmetry_equiv_pos_site_id
_symmetry_equiv_pos_as_xyz
1 x,y,z
_cell_length_a                   24.7273(2)
_cell_length_b                   24.7273(2)
_cell_length_c                   14.3812(3)
_cell_angle_alpha                90
_cell_angle_beta                 90
_cell_angle_gamma                120
_cell_volume                     7615.16
loop_
_atom_site_label
_atom_site_type_symbol
_atom_site_fract_x
_atom_site_fract_y
_atom_site_fract_z
In4 In 0.43894(3) 0.10916(4) 0.38717(6)
O20 O 0.4291(3) 0.1346(4) 0.2515(6)
O24 O 0.4454(4) 0.0347(5) 0.3120(7)
O27 O 0.4622(3) 0.0597(4) 0.4934(6)
O39 O 0.4485(3) 0.1342(4) 0.5488(6)
O44 O 0.3375(3) 0.0442(4) 0.4075(5)
O58 O 0.5373(3) 0.1736(4) 0.3842(7)
O59 O 0.3648(3) 0.1437(4) 0.4038(6)
C36 C 0.1769(3) 0.0922(5) 0.3506(6)
H14 H 0.1661 0.1194 0.3223
C40 C 0.2391(4) 0.1093(6) 0.3586(7)
H18 H 0.2699 0.1482 0.3371
C46 C 0.2101(4) 0.0120(6) 0.4329(6)
H23 H 0.0155 0.2364 0.4601
C53 C 0.0047(6) 0.1530(4) 0.4272(6)
H27 H 0.0426 0.1607 0.4520
C60 C 0.3241(4) 0.0868(6) 0.4045(8)
C68 C 0.0635(3) 0.0168(4) 0.3781(6)
C70 C 0.1299(4) 0.0347(5) 0.3844(6)
C72 C 0.2561(4) 0.0682(6) 0.3993(7)
C74 C 0.0456(3) 0.0630(5) 0.3764(6)
H31 H 0.0762 0.1050 0.3741
C21 C 0.0174(4) 0.9544(3) 0.3764(6)
H9 H 0.0288 0.9238 0.3741
H22 H 0.2209 0.9845 0.4601
C52 C 0.1483(4) 0.9953(6) 0.4272(6)
H26 H 0.1181 0.9574 0.4520
In7 In 0.89084(4) 0.32978(3) 0.38717(6)
O45 O 0.9558(4) 0.2933(3) 0.4075(5)
O60 O 0.8563(4) 0.2211(3) 0.4038(6)
C37 C 0.9078(5) 0.0847(4) 0.3506(6)
H15 H 0.8806 0.0467 0.3223
C41 C 0.8907(6) 0.1298(4) 0.3586(7)
H19 H 0.8518 0.1217 0.3371
C47 C 0.9880(6) 0.1981(4) 0.4329(6)
C61 C 0.9132(6) 0.2373(5) 0.4045(8)
C69 C 0.9832(4) 0.0467(3) 0.3781(6)
C71 C 0.9653(5) 0.0952(3) 0.3844(6)
C73 C 0.9318(6) 0.1879(4) 0.3993(7)
In10 In 0.67026(3) 0.55928(3) 0.11459(7)
O21 O 0.7055(3) 0.5709(3) 0.2515(6)
O30 O 0.5799(3) 0.5443(3) 0.1560(6)
O33 O 0.6197(3) 0.4520(3) 0.1289(7)
O42 O 0.6995(3) 0.6638(3) 0.1199(6)
O49 O 0.7200(3) 0.5008(3) 0.0972(5)
O53 O 0.7686(4) 0.6377(4) 0.0784(7)
In1 In 0.67022(3) 0.56106(3) 0.38717(6)
O1 O 0.3699(3) 0.4552(4) 0.0190(6)
O3 O 0.5893(3) 0.5546(4) 0.3120(7)
O4 O 0.4025(3) 0.4622(3) 0.5066(6)
O7 O 0.7383(4) 0.5031(3) 0.3845(9)
O8 O 0.3143(3) 0.4485(3) 0.4512(6)
O10 O 0.7067(3) 0.6625(3) 0.4075(5)
O13 O 0.6363(3) 0.4627(3) 0.3842(7)
O14 O 0.7789(3) 0.6352(3) 0.4038(6)
O15 O 0.2938(4) 0.4534(4) 0.1014(6)
C1 C 0.3989(4) 0.4802(4) 0.3437(9)
C2 C 0.9153(4) 0.8231(3) 0.3506(6)
H1 H 0.9533 0.8339 0.3223
C3 C 0.4518(4) 0.5023(4) 0.1684(9)
H2 H 0.4692 0.5086 0.1093
C4 C 0.8702(4) 0.7609(4) 0.3586(7)
H3 H 0.8783 0.7301 0.3371
C5 C 0.4637(4) 0.5053(4) 0.3329(8)
H4 H 0.4890 0.5140 0.3851
C6 C 0.5595(4) 0.5414(4) 0.2384(11)
C7 C 0.8019(4) 0.7899(4) 0.4329(6)
H5 H 0.7636 0.7791 0.4601
C9 C 0.4896(4) 0.5169(4) 0.2461(10)
C10 C 0.8470(4) 0.8517(4) 0.4272(6)
H7 H 0.8393 0.8819 0.4520
C11 C 0.3875(5) 0.4782(4) 0.1786(9)
C12 C 0.3449(5) 0.4611(5) 0.0926(9)
C13 C 0.3620(4) 0.4680(4) 0.2669(8)
H8 H 0.3194 0.4529 0.2740
C14 C 0.7627(5) 0.6759(4) 0.4045(8)
C16 C 0.3696(5) 0.4633(4) 0.4388(9)
C18 C 0.9533(3) 0.9365(3) 0.3781(6)
C19 C 0.9048(3) 0.8701(4) 0.3844(6)
C20 C 0.8121(4) 0.7439(4) 0.3993(7)
C25 C 0.6848(5) 0.4573(5) 0.3829(10)
C29 C 0.6757(4) 0.3935(4) 0.3821(6)
C30 C 0.6161(4) 0.3426(4) 0.3814(7)
In3 In 0.32978(3) 0.43894(3) 0.61283(6)
In16 In 0.32974(3) 0.44072(3) 0.88541(7)
O16 O 0.6301(3) 0.5448(4) 0.9810(6)
O19 O 0.2945(3) 0.4291(3) 0.7485(6)
O22 O 0.4107(3) 0.4454(4) 0.6880(7)
O25 O 0.5975(3) 0.5378(3) 0.4934(6)
O28 O 0.4201(3) 0.4557(3) 0.8440(6)
O35 O 0.4969(3) 0.2352(5) 0.3845(9)
O36 O 0.7648(5) 0.2617(4) 0.3845(9)
O37 O 0.6857(3) 0.5515(3) 0.5488(6)
O46 O 0.2933(3) 0.3375(3) 0.5925(5)
O56 O 0.8264(4) 0.3637(3) 0.3842(7)
O57 O 0.3637(3) 0.5373(3) 0.6158(7)
O61 O 0.2211(3) 0.3648(3) 0.5962(6)
O62 O 0.7062(4) 0.5466(4) 0.8986(6)
C34 C 0.6011(4) 0.5198(4) 0.6563(9)
C38 C 0.5482(4) 0.4977(4) 0.8316(9)
H16 H 0.5308 0.4914 0.8907
C42 C 0.5363(4) 0.4947(4) 0.6671(8)
H20 H 0.5110 0.4860 0.6149
C44 C 0.4405(4) 0.4586(4) 0.7616(11)
C50 C 0.5104(4) 0.4831(4) 0.7539(10)
C54 C 0.6125(5) 0.5218(4) 0.8214(9)
C56 C 0.6551(5) 0.5389(5) 0.9074(9)
C58 C 0.6380(4) 0.5320(4) 0.7331(8)
H28 H 0.6806 0.5471 0.7260
C64 C 0.6304(5) 0.5367(4) 0.5612(9)
C75 C 0.9370(5) 0.9826(4) 0.3764(6)
H30 H 0.8950 0.9712 0.3741
C82 C 0.5427(5) 0.2275(7) 0.3829(10)
C83 C 0.7725(7) 0.3152(5) 0.3829(10)
C90 C 0.6065(4) 0.2822(6) 0.3821(6)
C91 C 0.7178(6) 0.3243(4) 0.3821(6)
C92 C 0.6574(4) 0.2735(6) 0.3814(7)
C93 C 0.7265(6) 0.3839(4) 0.3814(7)
H40 H 0.650205 0.22631 0.380286
H48 H 0.77369 0.423895 0.380286
H68 H 0.576105 0.349795 0.380286
O6 O 0.3803(3) 0.5480(3) 0.8711(7)
O9 O 0.3005(3) 0.3362(3) 0.8801(6)
O11 O 0.2800(3) 0.4992(3) 0.9028(5)
O12 O 0.2314(4) 0.3623(4) 0.9216(7)
C8 C 0.1376(5) 0.2351(4) 0.9349(8)
H6 H 0.1309 0.2643 0.9655
C15 C 0.2430(6) 0.3208(5) 0.8986(9)
C17 C 0.1941(5) 0.2533(4) 0.8970(7)
C22 C 0.2039(4) 0.2106(4) 0.8466(7)
H10 H 0.2419 0.2231 0.8174
C23 C 0.3307(5) 0.5489(5) 0.8866(8)
C24 C 0.0892(4) 0.1733(4) 0.9292(6)
H11 H 0.0508 0.1615 0.9569
C26 C 0.1558(4) 0.1494(4) 0.8412(7)
H12 H 0.1625 0.1207 0.8088
C27 C 0.2763(4) 0.6113(4) 0.8830(7)
C28 C 0.3323(4) 0.6102(4) 0.8838(6)
C31 C 0.0981(4) 0.1291(4) 0.8821(6)
C32 C 0.0482(4) 0.0636(4) 0.8784(6)
In12 In 0.11098(4) 0.67026(3) 0.88541(7)
In13 In 0.55928(3) 0.88902(4) 0.88541(7)
O31 O 0.1677(4) 0.6197(3) 0.8711(7)
O32 O 0.4520(3) 0.8323(4) 0.8711(7)
O47 O 0.2192(4) 0.7200(3) 0.9028(5)
O48 O 0.5008(3) 0.7808(4) 0.9028(5)
C78 C 0.2182(7) 0.6693(5) 0.8866(8)
C79 C 0.4511(5) 0.7818(7) 0.8866(8)
C86 C 0.3350(6) 0.7237(4) 0.8830(7)
C87 C 0.3887(4) 0.6650(6) 0.8830(7)
C88 C 0.2779(6) 0.6677(4) 0.8838(6)
C89 C 0.3898(4) 0.7221(6) 0.8838(6)
C99 C 0.0622(6) 0.0154(4) 0.8768(7)
H38 H 0.1038 0.0256 0.8747
H43 H 0.336062 0.768256 0.881752
H47 H 0.432194 0.663938 0.881752
H69 H 0.231744 0.567806 0.881752
O41 O 0.0357(4) 0.6995(3) 0.8801(6)
O52 O 0.1309(6) 0.7686(4) 0.9216(7)
C49 C 0.0975(6) 0.8624(5) 0.9349(8)
H25 H 0.1334 0.8691 0.9655
C63 C 0.0778(8) 0.7570(6) 0.8986(9)
C67 C 0.0592(6) 0.8059(5) 0.8970(7)
C77 C 0.0067(6) 0.7961(4) 0.8466(7)
C81 C 0.0841(6) 0.9108(4) 0.9292(6)
H35 H 0.1107 0.9492 0.9569
C95 C 0.0310(6) 0.9019(4) 0.8821(6)
C97 C 0.0154(6) 0.9518(4) 0.8784(6)
C33 C 0.9846(4) 0.0468(4) 0.8768(7)
H13 H 0.9744 0.0782 0.8747
H32 H 0.7769 0.0188 0.8174
C84 C 0.8506(4) 0.0064(6) 0.8412(7)
H36 H 0.8793 0.0418 0.8088
O40 O 0.6638(3) 0.9643(4) 0.8801(6)
O51 O 0.6377(4) 0.8691(6) 0.9216(7)
C48 C 0.7649(4) 0.9025(6) 0.9349(8)
H24 H 0.7357 0.8666 0.9655
C62 C 0.6792(5) 0.9222(8) 0.8986(9)
C66 C 0.7467(4) 0.9408(6) 0.8970(7)
C76 C 0.7894(4) 0.9933(6) 0.8466(7)
H33 H 0.9812 0.7581 0.8174
C80 C 0.8267(4) 0.9159(6) 0.9292(6)
H34 H 0.8385 0.8893 0.9569
C85 C 0.9936(6) 0.8442(4) 0.8412(7)
H37 H 0.9582 0.8375 0.8088
C94 C 0.8709(4) 0.9690(6) 0.8821(6)
C96 C 0.9364(4) 0.9846(6) 0.8784(6)
C98 C 0.9532(4) 0.9378(6) 0.8768(7)
H39 H 0.9218 0.8962 0.8747
In10_2 In 0.44072(3) 0.11098(4) 0.11459(7)
O30_2 O 0.4557(3) 0.0356(4) 0.1560(6)
O33_2 O 0.5480(3) 0.1677(4) 0.1289(7)
O42_2 O 0.3362(3) 0.0357(4) 0.1199(6)
O49_2 O 0.4992(3) 0.2192(4) 0.0972(5)
O53_2 O 0.3623(4) 0.1309(6) 0.0784(7)
C6_2 C 0.4586(4) 0.0181(6) 0.2384(11)
O16_2 O 0.4552(4) 0.0853(5) 0.9810(6)
O62_2 O 0.4534(4) 0.1596(6) 0.8986(6)
C34_2 C 0.4802(4) 0.0813(6) 0.6563(9)
C38_2 C 0.5023(4) 0.0505(6) 0.8316(9)
H16_2 H 0.5086 0.0394 0.8907
C42_2 C 0.5053(4) 0.0416(6) 0.6671(8)
H20_2 H 0.5140 0.0250 0.6149
C50_2 C 0.5169(4) 0.0273(6) 0.7539(10)
C54_2 C 0.4782(4) 0.0907(6) 0.8214(9)
C56_2 C 0.4611(5) 0.1162(7) 0.9074(9)
C58_2 C 0.4680(4) 0.1060(6) 0.7331(8)
H28_2 H 0.4529 0.1335 0.7260
C64_2 C 0.4633(4) 0.0937(6) 0.5612(9)
O1_2 O 0.5448(4) 0.9147(5) 0.0190(6)
O4_2 O 0.5378(3) 0.9403(4) 0.5066(6)
O8_2 O 0.5515(3) 0.8658(4) 0.4512(6)
O15_2 O 0.5466(4) 0.8404(6) 0.1014(6)
C1_2 C 0.5198(4) 0.9187(6) 0.3437(9)
C3_2 C 0.4977(4) 0.9495(6) 0.1684(9)
H2_2 H 0.4914 0.9606 0.1093
C5_2 C 0.4947(4) 0.9584(6) 0.3329(8)
H4_2 H 0.4860 0.9750 0.3851
C9_2 C 0.4831(4) 0.9727(6) 0.2461(10)
C11_2 C 0.5218(4) 0.9093(6) 0.1786(9)
C12_2 C 0.5389(5) 0.8838(7) 0.0926(9)
C13_2 C 0.5320(4) 0.8940(6) 0.2669(8)
H8_2 H 0.5471 0.8665 0.2740
C16_2 C 0.5367(4) 0.9063(6) 0.4388(9)
In3_2 In 0.56106(3) 0.89084(4) 0.61283(6)
O19_2 O 0.5709(3) 0.8654(4) 0.7485(6)
O22_2 O 0.5546(4) 0.9653(5) 0.6880(7)
O28_2 O 0.5443(3) 0.9644(4) 0.8440(6)
O46_2 O 0.6625(3) 0.9558(4) 0.5925(5)
O57_2 O 0.4627(3) 0.8264(4) 0.6158(7)
O61_2 O 0.6352(3) 0.8563(4) 0.5962(6)
C44_2 C 0.5414(4) 0.9819(6) 0.7616(11)
O20_2 O 0.8654(4) 0.2945(5) 0.2515(6)
O24_2 O 0.9653(5) 0.4107(6) 0.3120(7)
O27_2 O 0.9403(4) 0.4025(5) 0.4934(6)
O39_2 O 0.8658(4) 0.3143(5) 0.5488(6)
O1_3 O 0.0853(5) 0.6301(3) 0.0190(6)
O4_3 O 0.0597(4) 0.5975(3) 0.5066(6)
O8_3 O 0.1342(4) 0.6857(3) 0.4512(6)
O15_3 O 0.1596(6) 0.7062(4) 0.1014(6)
C1_3 C 0.0813(6) 0.6011(4) 0.3437(9)
C3_3 C 0.0505(6) 0.5482(4) 0.1684(9)
H2_3 H 0.0394 0.5308 0.1093
C5_3 C 0.0416(6) 0.5363(4) 0.3329(8)
H4_3 H 0.0250 0.5110 0.3851
C9_3 C 0.0273(6) 0.5104(4) 0.2461(10)
C11_3 C 0.0907(6) 0.6125(5) 0.1786(9)
C12_3 C 0.1162(7) 0.6551(5) 0.0926(9)
C13_3 C 0.1060(6) 0.6380(4) 0.2669(8)
H8_3 H 0.1335 0.6806 0.2740
C16_3 C 0.0937(6) 0.6304(5) 0.4388(9)
In3_3 In 0.10916(4) 0.67022(3) 0.61283(6)
O19_3 O 0.1346(4) 0.7055(3) 0.7485(6)
O22_3 O 0.0347(5) 0.5893(3) 0.6880(7)
O28_3 O 0.0356(4) 0.5799(3) 0.8440(6)
O46_3 O 0.0442(4) 0.7067(3) 0.5925(5)
O57_3 O 0.1736(4) 0.6363(3) 0.6158(7)
O61_3 O 0.1437(4) 0.7789(3) 0.5962(6)
C44_3 C 0.0181(6) 0.5595(4) 0.7616(11)
In10_3 In 0.88902(4) 0.32974(3) 0.11459(7)
O30_3 O 0.9644(4) 0.4201(3) 0.1560(6)
O33_3 O 0.8323(4) 0.3803(3) 0.1289(7)
O42_3 O 0.9643(4) 0.3005(3) 0.1199(6)
O49_3 O 0.7808(4) 0.2800(3) 0.0972(5)
O53_3 O 0.8691(6) 0.2314(4) 0.0784(7)
C6_3 C 0.9819(6) 0.4405(4) 0.2384(11)
O16_3 O 0.9147(5) 0.3699(3) 0.9810(6)
O62_3 O 0.8404(6) 0.2938(4) 0.8986(6)
C34_3 C 0.9187(6) 0.3989(4) 0.6563(9)
C38_3 C 0.9495(6) 0.4518(4) 0.8316(9)
H16_3 H 0.9606 0.4692 0.8907
C42_3 C 0.9584(6) 0.4637(4) 0.6671(8)
H20_3 H 0.9750 0.4890 0.6149
C50_3 C 0.9727(6) 0.4896(4) 0.7539(10)
C54_3 C 0.9093(6) 0.3875(5) 0.8214(9)
C56_3 C 0.8838(7) 0.3449(5) 0.9074(9)
C58_3 C 0.8940(6) 0.3620(4) 0.7331(8)
H28_3 H 0.8665 0.3194 0.7260
C64_3 C 0.9063(6) 0.3696(5) 0.5612(9)
C48_2 C 0.2351(4) 0.0975(6) 0.0651(8)
H24_2 H 0.2643 0.1334 0.0345
C62_2 C 0.3208(5) 0.0778(8) 0.1014(9)
C66_2 C 0.2533(4) 0.0592(6) 0.1030(7)
C76_2 C 0.2106(4) 0.0067(6) 0.1534(7)
H33_2 H 0.0188 0.2419 0.1826
C80_2 C 0.1733(4) 0.0841(6) 0.0708(6)
H34_2 H 0.1615 0.1107 0.0431
C85_2 C 0.0064(6) 0.1558(4) 0.1588(7)
H37_2 H 0.0418 0.1625 0.1912
C94_2 C 0.1291(4) 0.0310(6) 0.1179(6)
C96_2 C 0.0636(4) 0.0154(6) 0.1216(6)
C98_2 C 0.0468(4) 0.0622(6) 0.1232(7)
H39_2 H 0.0782 0.1038 0.1253
C33_2 C 0.0154(4) 0.9532(4) 0.1232(7)
H13_2 H 0.0256 0.9218 0.1253
H32_2 H 0.2231 0.9812 0.1826
C84_2 C 0.1494(4) 0.9936(6) 0.1588(7)
H36_2 H 0.1207 0.9582 0.1912
C49_2 C 0.9025(6) 0.1376(5) 0.0651(8)
H25_2 H 0.8666 0.1309 0.0345
C63_2 C 0.9222(8) 0.2430(6) 0.1014(9)
C67_2 C 0.9408(6) 0.1941(5) 0.1030(7)
C77_2 C 0.9933(6) 0.2039(4) 0.1534(7)
C81_2 C 0.9159(6) 0.0892(4) 0.0708(6)
H35_2 H 0.8893 0.0508 0.0431
C95_2 C 0.9690(6) 0.0981(4) 0.1179(6)
C97_2 C 0.9846(6) 0.0482(4) 0.1216(6)
C8_2 C 0.8624(5) 0.7649(4) 0.0651(8)
H6_2 H 0.8691 0.7357 0.0345
C15_2 C 0.7570(6) 0.6792(5) 0.1014(9)
C17_2 C 0.8059(5) 0.7467(4) 0.1030(7)
C22_2 C 0.7961(4) 0.7894(4) 0.1534(7)
H10_2 H 0.7581 0.7769 0.1826
C23_2 C 0.6693(5) 0.4511(5) 0.1134(8)
C24_2 C 0.9108(4) 0.8267(4) 0.0708(6)
H11_2 H 0.9492 0.8385 0.0431
C26_2 C 0.8442(4) 0.8506(4) 0.1588(7)
H12_2 H 0.8375 0.8793 0.1912
C27_2 C 0.7237(4) 0.3887(4) 0.1170(7)
C28_2 C 0.6677(4) 0.3898(4) 0.1162(6)
C31_2 C 0.9019(4) 0.8709(4) 0.1179(6)
C32_2 C 0.9518(4) 0.9364(4) 0.1216(6)
C78_2 C 0.7818(7) 0.3307(5) 0.1134(8)
C79_2 C 0.5489(5) 0.2182(7) 0.1134(8)
C86_2 C 0.6650(6) 0.2763(4) 0.1170(7)
C87_2 C 0.6113(4) 0.3350(6) 0.1170(7)
C88_2 C 0.7221(6) 0.3323(4) 0.1162(6)
C89_2 C 0.6102(4) 0.2779(6) 0.1162(6)
C99_2 C 0.9378(6) 0.9846(4) 0.1232(7)
H38_2 H 0.8962 0.9744 0.1253
H43_2 H 0.663938 0.231744 0.118248
H47_2 H 0.567806 0.336062 0.118248
H69_2 H 0.768256 0.432194 0.118248
O7_2 O 0.2617(4) 0.4969(3) 0.6155(9)
C2_2 C 0.0847(4) 0.1769(3) 0.6494(6)
H1_2 H 0.0467 0.1661 0.6777
C4_2 C 0.1298(4) 0.2391(4) 0.6414(7)
H3_2 H 0.1217 0.2699 0.6629
C7_2 C 0.1981(4) 0.2101(4) 0.5671(6)
H5_2 H 0.2364 0.2209 0.5399
C10_2 C 0.1530(4) 0.1483(4) 0.5728(6)
H7_2 H 0.1607 0.1181 0.5480
C14_2 C 0.2373(5) 0.3241(4) 0.5955(8)
C18_2 C 0.0467(3) 0.0635(3) 0.6219(6)
C19_2 C 0.0952(3) 0.1299(4) 0.6156(6)
C20_2 C 0.1879(4) 0.2561(4) 0.6007(7)
C25_2 C 0.3152(5) 0.5427(5) 0.6171(10)
C29_2 C 0.3243(4) 0.6065(4) 0.6179(6)
C30_2 C 0.3839(4) 0.6574(4) 0.6186(7)
O35_2 O 0.5031(3) 0.7648(5) 0.6155(9)
O36_2 O 0.2352(5) 0.7383(4) 0.6155(9)
C75_2 C 0.0630(5) 0.0174(4) 0.6236(6)
H30_2 H 0.1050 0.0288 0.6259
C82_2 C 0.4573(5) 0.7725(7) 0.6171(10)
C83_2 C 0.2275(7) 0.6848(5) 0.6171(10)
C90_2 C 0.3935(4) 0.7178(6) 0.6179(6)
C91_2 C 0.2822(6) 0.6757(4) 0.6179(6)
C92_2 C 0.3426(4) 0.7265(6) 0.6186(7)
C93_2 C 0.2735(6) 0.6161(4) 0.6186(7)
H40_2 H 0.349795 0.77369 0.619714
H48_2 H 0.22631 0.576105 0.619714
H68_2 H 0.423895 0.650205 0.619714
C37_2 C 0.0922(5) 0.9153(4) 0.6494(6)
H15_2 H 0.1194 0.9533 0.6777
C41_2 C 0.1093(6) 0.8702(4) 0.6414(7)
H19_2 H 0.1482 0.8783 0.6629
C47_2 C 0.0120(6) 0.8019(4) 0.5671(6)
C61_2 C 0.0868(6) 0.7627(5) 0.5955(8)
C69_2 C 0.0168(4) 0.9533(3) 0.6219(6)
C71_2 C 0.0347(5) 0.9048(3) 0.6156(6)
C73_2 C 0.0682(6) 0.8121(4) 0.6007(7)
C21_2 C 0.9826(4) 0.0456(3) 0.6236(6)
H9_2 H 0.9712 0.0762 0.6259
H22_2 H 0.7791 0.0155 0.5399
C52_2 C 0.8517(4) 0.0047(6) 0.5728(6)
H26_2 H 0.8819 0.0426 0.5480
C36_2 C 0.8231(3) 0.9078(5) 0.6494(6)
H14_2 H 0.8339 0.8806 0.6777
C40_2 C 0.7609(4) 0.8907(6) 0.6414(7)
H18_2 H 0.7301 0.8518 0.6629
C46_2 C 0.7899(4) 0.9880(6) 0.5671(6)
H23_2 H 0.9845 0.7636 0.5399
C53_2 C 0.9953(6) 0.8470(4) 0.5728(6)
H27_2 H 0.9574 0.8393 0.5480
C60_2 C 0.6759(4) 0.9132(6) 0.5955(8)
C68_2 C 0.9365(3) 0.9832(4) 0.6219(6)
C70_2 C 0.8701(4) 0.9653(5) 0.6156(6)
C72_2 C 0.7439(4) 0.9318(6) 0.6007(7)
C74_2 C 0.9544(3) 0.9370(5) 0.6236(6)
H31_2 H 0.9238 0.8950 0.6259
N1 N 0.0454(5) 0.7481(5) 0.2881(8)
C101 C 0.0133(3) 0.7101(5) 0.3470(8)
C102 C 0.0133(11) 0.7211(11) 0.1182(17)
C103 C 0.0115(9) 0.7650(9) 0.1929(13)
H41 H 0.0733758 0.732926 0.261049
H42 H 0.0719366 0.78909 0.321981
H49 H 0.0189217 0.736006 0.41093
H50 H 0.0320824 0.678958 0.356731
H53 H 0.0614808 0.732945 0.106217
H54 H 0.0389965 0.81379 0.172225
C100 C 0.9468(3) 0.6710(4) 0.3315(6)
H44 H 0.938931 0.643237 0.268905
H45 H 0.925708 0.640085 0.390839
H46 H 0.925771 0.700285 0.323104
H51 H 0.986324 0.672934 0.141976
H52 H 0.993365 0.72645 0.0537075
H55 H 0.96384 0.753779 0.207985
N1_2 N 0.2519(5) 0.2973(7) 0.2881(8)
C100_2 C 0.3290(4) 0.2758(5) 0.3315(6)
C101_2 C 0.2899(5) 0.3032(6) 0.3470(8)
C102_2 C 0.2789(11) 0.2922(16) 0.1182(17)
C103_2 C 0.2350(9) 0.2465(13) 0.1929(13)
H41_2 H 0.267074 0.34045 0.261049
H42_2 H 0.21091 0.282847 0.321981
H44_2 H 0.356763 0.295694 0.268905
H45_2 H 0.359915 0.285623 0.390839
H46_2 H 0.299715 0.225485 0.323104
H49_2 H 0.263994 0.282915 0.41093
H50_2 H 0.321042 0.353124 0.356731
H51_2 H 0.327066 0.31339 0.141976
H52_2 H 0.27355 0.266915 0.0537075
H53_2 H 0.267055 0.328536 0.106217
H54_2 H 0.18621 0.225206 0.172225
H55_2 H 0.246221 0.210061 0.207985
C100_3 C 0.7242(5) 0.0532(3) 0.3315(6)
H44_3 H 0.704306 0.0610688 0.268905
H45_3 H 0.714377 0.0742923 0.390839
H46_3 H 0.774515 0.0742295 0.323104
H51_3 H 0.68661 0.0136758 0.141976
H52_3 H 0.733085 0.0066351 0.0537075
H55_3 H 0.789939 0.03616 0.207985
N1_3 N 0.7027(7) 0.9546(5) 0.2881(8)
C101_3 C 0.6968(6) 0.9867(3) 0.3470(8)
C102_3 C 0.7078(16) 0.9867(11) 0.1182(17)
C103_3 C 0.7535(13) 0.9885(9) 0.1929(13)
H41_3 H 0.65955 0.926624 0.261049
H42_3 H 0.717153 0.928063 0.321981
H49_3 H 0.717085 0.981078 0.41093
H50_3 H 0.646876 0.967918 0.356731
H53_3 H 0.671464 0.938519 0.106217
H54_3 H 0.774794 0.961003 0.172225
C100_4 C 0.0532(3) 0.3290(4) 0.6685(6)
H44_4 H 0.0610688 0.356763 0.731095
H45_4 H 0.0742923 0.359915 0.609161
H46_4 H 0.0742295 0.299715 0.676896
H51_4 H 0.0136758 0.327066 0.858024
H52_4 H 0.0066351 0.27355 0.946293
H55_4 H 0.03616 0.246221 0.792015
N1_4 N 0.9546(5) 0.2519(5) 0.7119(8)
C101_4 C 0.9867(3) 0.2899(5) 0.6530(8)
C102_4 C 0.9867(11) 0.2789(11) 0.8818(17)
C103_4 C 0.9885(9) 0.2350(9) 0.8071(13)
H41_4 H 0.926624 0.267074 0.738951
H42_4 H 0.928063 0.21091 0.678019
H49_4 H 0.981078 0.263994 0.58907
H50_4 H 0.967918 0.321042 0.643269
H53_4 H 0.938519 0.267055 0.893783
H54_4 H 0.961003 0.18621 0.827775
N1_5 N 0.7481(5) 0.7027(7) 0.7119(8)
C100_5 C 0.6710(4) 0.7242(5) 0.6685(6)
C101_5 C 0.7101(5) 0.6968(6) 0.6530(8)
C102_5 C 0.7211(11) 0.7078(16) 0.8818(17)
C103_5 C 0.7650(9) 0.7535(13) 0.8071(13)
H41_5 H 0.732926 0.65955 0.738951
H42_5 H 0.78909 0.717153 0.678019
H44_5 H 0.643237 0.704306 0.731095
H45_5 H 0.640085 0.714377 0.609161
H46_5 H 0.700285 0.774515 0.676896
H49_5 H 0.736006 0.717085 0.58907
H50_5 H 0.678958 0.646876 0.643269
H51_5 H 0.672934 0.68661 0.858024
H52_5 H 0.72645 0.733085 0.946293
H53_5 H 0.732945 0.671464 0.893783
H54_5 H 0.81379 0.774794 0.827775
H55_5 H 0.753779 0.789939 0.792015
N1_6 N 0.2973(7) 0.0454(5) 0.7119(8)
C101_6 C 0.3032(6) 0.0133(3) 0.6530(8)
C102_6 C 0.2922(16) 0.0133(11) 0.8818(17)
C103_6 C 0.2465(13) 0.0115(9) 0.8071(13)
H41_6 H 0.34045 0.0733758 0.738951
H42_6 H 0.282847 0.0719366 0.678019
H49_6 H 0.282915 0.0189217 0.58907
H50_6 H 0.353124 0.0320824 0.643269
H53_6 H 0.328536 0.0614808 0.893783
H54_6 H 0.225206 0.0389965 0.827775
C100_6 C 0.2758(5) 0.9468(3) 0.6685(6)
H44_6 H 0.295694 0.938931 0.731095
H45_6 H 0.285623 0.925708 0.609161
H46_6 H 0.225485 0.925771 0.676896
H51_6 H 0.31339 0.986324 0.858024
H52_6 H 0.266915 0.993365 0.946293
H55_6 H 0.210061 0.96384 0.792015
N2 N 0.8672(5) 0.5675(5) 0.4236(8)
C104 C 0.8261(14) 0.5365(14) 0.593(2)
C105 C 0.8683(13) 0.5933(13) 0.5341(18)
C106 C 0.8900(8) 0.5241(8) 0.3954(12)
C107 C 0.8856(8) 0.5141(8) 0.2919(12)
H56 H 0.843589 0.503894 0.592012
H57 H 0.82561 0.551159 0.664252
H58 H 0.778887 0.513779 0.564907
H59 H 0.851011 0.626073 0.534336
H60 H 0.915714 0.616188 0.561441
H61 H 0.91396 0.558665 0.256954
H62 H 0.902508 0.482382 0.273754
H63 H 0.837146 0.494011 0.270043
H64 H 0.892354 0.606654 0.384998
H65 H 0.821765 0.54609 0.403628
H66 H 0.861718 0.479311 0.429804
H67 H 0.938532 0.543966 0.416716
N2_2 N 0.4325(5) 0.2997(7) 0.4236(8)
C104_2 C 0.4635(14) 0.2896(20) 0.593(2)
C105_2 C 0.4067(13) 0.2750(18) 0.5341(18)
C106_2 C 0.4759(8) 0.3659(11) 0.3954(12)
C107_2 C 0.4859(8) 0.3715(11) 0.2919(12)
H56_2 H 0.496106 0.339695 0.592012
H57_2 H 0.448841 0.274451 0.664252
H58_2 H 0.486221 0.265108 0.564907
H59_2 H 0.373927 0.224939 0.534336
H60_2 H 0.383812 0.299526 0.561441
H61_2 H 0.441335 0.355294 0.256954
H62_2 H 0.517618 0.420126 0.273754
H63_2 H 0.505989 0.343135 0.270043
H64_2 H 0.393346 0.2857 0.384998
H65_2 H 0.45391 0.275675 0.403628
H66_2 H 0.520689 0.382407 0.429804
H67_2 H 0.456034 0.394566 0.416716
N2_3 N 0.7003(7) 0.1328(5) 0.4236(8)
C104_3 C 0.7104(20) 0.1739(14) 0.593(2)
C105_3 C 0.7250(18) 0.1317(13) 0.5341(18)
C106_3 C 0.6341(11) 0.1100(8) 0.3954(12)
C107_3 C 0.6285(11) 0.1144(8) 0.2919(12)
H56_3 H 0.660305 0.156411 0.592012
H57_3 H 0.725549 0.17439 0.664252
H58_3 H 0.734892 0.221113 0.564907
H59_3 H 0.775061 0.148989 0.534336
H60_3 H 0.700474 0.0842864 0.561441
H61_3 H 0.644706 0.0860402 0.256954
H62_3 H 0.579874 0.097492 0.273754
H63_3 H 0.656865 0.162854 0.270043
H64_3 H 0.7143 0.107646 0.384998
H65_3 H 0.724325 0.178235 0.403628
H66_3 H 0.617593 0.138282 0.429804
H67_3 H 0.605434 0.0614681 0.416716
N2_4 N 0.1328(5) 0.4325(5) 0.5764(8)
C104_4 C 0.1739(14) 0.4635(14) 0.407(2)
C105_4 C 0.1317(13) 0.4067(13) 0.4659(18)
C106_4 C 0.1100(8) 0.4759(8) 0.6046(12)
C107_4 C 0.1144(8) 0.4859(8) 0.7081(12)
H56_4 H 0.156411 0.496106 0.407988
H57_4 H 0.17439 0.448841 0.335748
H58_4 H 0.221113 0.486221 0.435093
H59_4 H 0.148989 0.373927 0.465664
H60_4 H 0.0842864 0.383812 0.438559
H61_4 H 0.0860402 0.441335 0.743046
H62_4 H 0.097492 0.517618 0.726246
H63_4 H 0.162854 0.505989 0.729957
H64_4 H 0.107646 0.393346 0.615002
H65_4 H 0.178235 0.45391 0.596372
H66_4 H 0.138282 0.520689 0.570196
H67_4 H 0.0614681 0.456034 0.583284
N2_5 N 0.5675(5) 0.7003(7) 0.5764(8)
C104_5 C 0.5365(14) 0.7104(20) 0.407(2)
C105_5 C 0.5933(13) 0.7250(18) 0.4659(18)
C106_5 C 0.5241(8) 0.6341(11) 0.6046(12)
C107_5 C 0.5141(8) 0.6285(11) 0.7081(12)
H56_5 H 0.503894 0.660305 0.407988
H57_5 H 0.551159 0.725549 0.335748
H58_5 H 0.513779 0.734892 0.435093
H59_5 H 0.626073 0.775061 0.465664
H60_5 H 0.616188 0.700474 0.438559
H61_5 H 0.558665 0.644706 0.743046
H62_5 H 0.482382 0.579874 0.726246
H63_5 H 0.494011 0.656865 0.729957
H64_5 H 0.606654 0.7143 0.615002
H65_5 H 0.54609 0.724325 0.596372
H66_5 H 0.479311 0.617593 0.570196
H67_5 H 0.543966 0.605434 0.583284
N2_6 N 0.2997(7) 0.8672(5) 0.5764(8)
C104_6 C 0.2896(20) 0.8261(14) 0.407(2)
C105_6 C 0.2750(18) 0.8683(13) 0.4659(18)
C106_6 C 0.3659(11) 0.8900(8) 0.6046(12)
C107_6 C 0.3715(11) 0.8856(8) 0.7081(12)
H56_6 H 0.339695 0.843589 0.407988
H57_6 H 0.274451 0.82561 0.335748
H58_6 H 0.265108 0.778887 0.435093
H59_6 H 0.224939 0.851011 0.465664
H60_6 H 0.299526 0.915714 0.438559
H61_6 H 0.355294 0.91396 0.743046
H62_6 H 0.420126 0.902508 0.726246
H63_6 H 0.343135 0.837146 0.729957
H64_6 H 0.2857 0.892354 0.615002
H65_6 H 0.275675 0.821765 0.596372
H66_6 H 0.382407 0.861718 0.570196
H67_6 H 0.394566 0.938532 0.583284
loop_
_geom_bond_atom_site_label_1
_geom_bond_atom_site_label_2
_geom_bond_site_symmetry_1
_geom_bond_site_symmetry_2
In4 O20 1_555 1_555
O24 In4 1_555 1_555
O27 In4 1_555 1_555
O39 In4 1_555 1_555
O44 In4 1_555 1_555
O58 In4 1_555 1_555
O59 In4 1_555 1_555
C36 H14 1_555 1_555
C40 C36 1_555 1_555
H18 C40 1_555 1_555
H27 C53 1_555 1_555
C60 O44 1_555 1_555
C70 C36 1_555 1_555
C72 C40 1_555 1_555
C74 C68 1_555 1_555
H31 C74 1_555 1_555
O59 C60 1_555 1_555
C46 C72 1_555 1_555
C60 C72 1_555 1_555
C68 C70 1_555 1_555
H9 C21 1_555 1_555
H26 C52 1_555 1_555
In7 O45 1_555 1_555
O45 C61 1_555 1_555
O60 In7 1_555 1_555
C37 H15 1_555 1_555
C41 C37 1_555 1_555
H19 C41 1_555 1_555
C61 O60 1_555 1_555
C69 C71 1_555 1_555
C71 C37 1_555 1_555
C73 C41 1_555 1_555
C47 C73 1_555 1_555
C61 C73 1_555 1_555
O21 In10 1_555 1_555
O30 In10 1_555 1_555
O33 In10 1_555 1_555
O42 In10 1_555 1_555
O49 In10 1_555 1_555
O53 In10 1_555 1_555
In1 O21 1_555 1_555
O1 C12 1_555 1_555
O3 In1 1_555 1_555
O4 C16 1_555 1_555
O30 C6 1_555 1_555
O7 C25 1_555 1_555
O8 C16 1_555 1_555
O10 In1 1_555 1_555
O13 In1 1_555 1_555
O14 In1 1_555 1_555
O15 C12 1_555 1_555
C1 C5 1_555 1_555
C2 H1 1_555 1_555
C3 H2 1_555 1_555
C4 C2 1_555 1_555
H3 C4 1_555 1_555
C5 H4 1_555 1_555
C6 O3 1_555 1_555
C7 H5 1_555 1_555
C9 C3 1_555 1_555
C10 C7 1_555 1_555
H7 C10 1_555 1_555
C11 C3 1_555 1_555
C12 C11 1_555 1_555
C13 C1 1_555 1_555
H8 C13 1_555 1_555
C14 O10 1_555 1_555
C16 C1 1_555 1_555
C18 C19 1_555 1_555
C19 C2 1_555 1_555
C20 C4 1_555 1_555
C25 O13 1_555 1_555
C29 C25 1_555 1_555
C30 C29 1_555 1_555
In3 O4 1_555 1_555
In7 O56 1_555 1_555
In16 O19 1_555 1_555
O16 C56 1_555 1_555
O19 In3 1_555 1_555
O22 In3 1_555 1_555
O25 In1 1_555 1_555
O28 In16 1_555 1_555
O35 C82 1_555 1_555
O36 C83 1_555 1_555
O37 In1 1_555 1_555
O46 In3 1_555 1_555
O58 C82 1_555 1_555
O56 C83 1_555 1_555
O57 In3 1_555 1_555
O61 In3 1_555 1_555
O62 C56 1_555 1_555
C34 C42 1_555 1_555
C38 H16 1_555 1_555
C42 H20 1_555 1_555
C44 O22 1_555 1_555
C50 C38 1_555 1_555
C54 C38 1_555 1_555
C56 C54 1_555 1_555
C58 C34 1_555 1_555
H28 C58 1_555 1_555
C64 O25 1_555 1_555
C75 C18 1_555 1_555
H30 C75 1_555 1_555
C82 C90 1_555 1_555
C83 C91 1_555 1_555
C90 C30 1_555 1_555
C91 C92 1_555 1_555
C92 C90 1_555 1_555
C93 C29 1_555 1_555
O8 In3 1_555 1_555
O14 C14 1_555 1_555
C5 C9 1_555 1_555
C6 C9 1_555 1_555
C7 C20 1_555 1_555
C10 C19 1_555 1_555
C11 C13 1_555 1_555
C14 C20 1_555 1_555
O28 C44 1_555 1_555
O37 C64 1_555 1_555
C34 C64 1_555 1_555
C42 C50 1_555 1_555
C44 C50 1_555 1_555
C54 C58 1_555 1_555
C91 C93 1_555 1_555
C92 H40 1_555 1_555
C93 H48 1_555 1_555
C30 H68 1_555 1_555
O6 In16 1_555 1_555
O9 In16 1_555 1_555
O11 In16 1_555 1_555
O12 In16 1_555 1_555
C8 H6 1_555 1_555
C15 O9 1_555 1_555
C17 C8 1_555 1_555
C22 C17 1_555 1_555
H10 C22 1_555 1_555
C23 O6 1_555 1_555
C24 C8 1_555 1_555
H11 C24 1_555 1_555
C26 C22 1_555 1_555
H12 C26 1_555 1_555
C27 C28 1_555 1_555
C28 C23 1_555 1_555
C31 C24 1_555 1_555
C32 C31 1_555 1_555
In12 O31 1_555 1_555
In13 O32 1_555 1_555
O31 C78 1_555 1_555
O32 C79 1_555 1_555
O47 In12 1_555 1_555
O48 In13 1_555 1_555
C78 O47 1_555 1_555
C79 O48 1_555 1_555
C86 C88 1_555 1_555
C87 C28 1_555 1_555
C88 C27 1_555 1_555
C89 C79 1_555 1_555
C99 C32 1_555 1_555
H38 C99 1_555 1_555
O11 C23 1_555 1_555
O12 C15 1_555 1_555
C15 C17 1_555 1_555
C26 C31 1_555 1_555
C78 C88 1_555 1_555
C86 C89 1_555 1_555
C87 C89 1_555 1_555
C86 H43 1_555 1_555
C87 H47 1_555 1_555
C27 H69 1_555 1_555
In12 O41 1_555 1_555
O41 C63 1_555 1_555
O52 In12 1_555 1_555
C49 H25 1_555 1_555
C63 O52 1_555 1_555
C67 C49 1_555 1_555
C77 C67 1_555 1_555
C81 C49 1_555 1_555
H35 C81 1_555 1_555
C95 C81 1_555 1_555
C97 C95 1_555 1_555
C63 C67 1_555 1_555
H13 C33 1_555 1_555
H36 C84 1_555 1_555
In13 O40 1_555 1_555
O40 C62 1_555 1_555
O51 In13 1_555 1_555
C48 H24 1_555 1_555
C62 O51 1_555 1_555
C66 C48 1_555 1_555
C76 C66 1_555 1_555
C80 C48 1_555 1_555
H34 C80 1_555 1_555
H37 C85 1_555 1_555
C94 C80 1_555 1_555
C98 C96 1_555 1_555
H39 C98 1_555 1_555
C62 C66 1_555 1_555
C94 C96 1_555 1_555
O20 In10_2 1_555 1_555
O30_2 In10_2 1_555 1_555
O33_2 In10_2 1_555 1_555
O42_2 In10_2 1_555 1_555
O49_2 In10_2 1_555 1_555
O53_2 In10_2 1_555 1_555
O30_2 C6_2 1_555 1_555
C6_2 O24 1_555 1_555
O16_2 C56_2 1_555 1_555
O62_2 C56_2 1_555 1_555
C34_2 C42_2 1_555 1_555
C38_2 H16_2 1_555 1_555
C42_2 H20_2 1_555 1_555
C50_2 C38_2 1_555 1_555
C54_2 C38_2 1_555 1_555
C56_2 C54_2 1_555 1_555
C58_2 C34_2 1_555 1_555
H28_2 C58_2 1_555 1_555
C64_2 O27 1_555 1_555
O39 C64_2 1_555 1_555
C34_2 C64_2 1_555 1_555
C42_2 C50_2 1_555 1_555
C54_2 C58_2 1_555 1_555
O1_2 C12_2 1_555 1_555
O4_2 C16_2 1_555 1_555
O8_2 C16_2 1_555 1_555
O15_2 C12_2 1_555 1_555
C1_2 C5_2 1_555 1_555
C3_2 H2_2 1_555 1_555
C5_2 H4_2 1_555 1_555
C9_2 C3_2 1_555 1_555
C11_2 C3_2 1_555 1_555
C12_2 C11_2 1_555 1_555
C13_2 C1_2 1_555 1_555
H8_2 C13_2 1_555 1_555
C16_2 C1_2 1_555 1_555
In3_2 O4_2 1_555 1_555
In13 O19_2 1_555 1_555
O19_2 In3_2 1_555 1_555
O22_2 In3_2 1_555 1_555
O28_2 In13 1_555 1_555
O46_2 In3_2 1_555 1_555
O57_2 In3_2 1_555 1_555
O61_2 In3_2 1_555 1_555
C44_2 O22_2 1_555 1_555
O8_2 In3_2 1_555 1_555
C5_2 C9_2 1_555 1_555
C11_2 C13_2 1_555 1_555
O28_2 C44_2 1_555 1_555
In7 O20_2 1_555 1_555
O24_2 In7 1_555 1_555
O27_2 In7 1_555 1_555
O39_2 In7 1_555 1_555
O1_3 C12_3 1_555 1_555
O4_3 C16_3 1_555 1_555
O8_3 C16_3 1_555 1_555
O15_3 C12_3 1_555 1_555
C1_3 C5_3 1_555 1_555
C3_3 H2_3 1_555 1_555
C5_3 H4_3 1_555 1_555
C9_3 C3_3 1_555 1_555
C11_3 C3_3 1_555 1_555
C12_3 C11_3 1_555 1_555
C13_3 C1_3 1_555 1_555
H8_3 C13_3 1_555 1_555
C16_3 C1_3 1_555 1_555
In3_3 O4_3 1_555 1_555
In12 O19_3 1_555 1_555
O19_3 In3_3 1_555 1_555
O22_3 In3_3 1_555 1_555
O28_3 In12 1_555 1_555
O46_3 In3_3 1_555 1_555
O57_3 In3_3 1_555 1_555
O61_3 In3_3 1_555 1_555
C44_3 O22_3 1_555 1_555
O8_3 In3_3 1_555 1_555
C5_3 C9_3 1_555 1_555
C11_3 C13_3 1_555 1_555
O28_3 C44_3 1_555 1_555
O20_2 In10_3 1_555 1_555
O30_3 In10_3 1_555 1_555
O33_3 In10_3 1_555 1_555
O42_3 In10_3 1_555 1_555
O49_3 In10_3 1_555 1_555
O53_3 In10_3 1_555 1_555
O30_3 C6_3 1_555 1_555
C6_3 O24_2 1_555 1_555
O16_3 C56_3 1_555 1_555
O62_3 C56_3 1_555 1_555
C34_3 C42_3 1_555 1_555
C38_3 H16_3 1_555 1_555
C42_3 H20_3 1_555 1_555
C50_3 C38_3 1_555 1_555
C54_3 C38_3 1_555 1_555
C56_3 C54_3 1_555 1_555
C58_3 C34_3 1_555 1_555
H28_3 C58_3 1_555 1_555
C64_3 O27_2 1_555 1_555
O39_2 C64_3 1_555 1_555
C34_3 C64_3 1_555 1_555
C42_3 C50_3 1_555 1_555
C54_3 C58_3 1_555 1_555
O42_2 C62_2 1_555 1_555
C48_2 H24_2 1_555 1_555
C62_2 O53_2 1_555 1_555
C66_2 C48_2 1_555 1_555
C76_2 C66_2 1_555 1_555
C80_2 C48_2 1_555 1_555
H34_2 C80_2 1_555 1_555
H37_2 C85_2 1_555 1_555
C94_2 C80_2 1_555 1_555
C98_2 C96_2 1_555 1_555
H39_2 C98_2 1_555 1_555
C62_2 C66_2 1_555 1_555
C94_2 C96_2 1_555 1_555
H13_2 C33_2 1_555 1_555
H36_2 C84_2 1_555 1_555
O42_3 C63_2 1_555 1_555
C49_2 H25_2 1_555 1_555
C63_2 O53_3 1_555 1_555
C67_2 C49_2 1_555 1_555
C77_2 C67_2 1_555 1_555
C81_2 C49_2 1_555 1_555
H35_2 C81_2 1_555 1_555
C95_2 C81_2 1_555 1_555
C97_2 C95_2 1_555 1_555
C63_2 C67_2 1_555 1_555
C8_2 H6_2 1_555 1_555
C15_2 O42 1_555 1_555
C17_2 C8_2 1_555 1_555
C22_2 C17_2 1_555 1_555
H10_2 C22_2 1_555 1_555
C23_2 O33 1_555 1_555
C24_2 C8_2 1_555 1_555
H11_2 C24_2 1_555 1_555
C26_2 C22_2 1_555 1_555
H12_2 C26_2 1_555 1_555
C27_2 C28_2 1_555 1_555
C28_2 C23_2 1_555 1_555
C31_2 C24_2 1_555 1_555
C32_2 C31_2 1_555 1_555
O33_3 C78_2 1_555 1_555
O33_2 C79_2 1_555 1_555
C78_2 O49_3 1_555 1_555
C79_2 O49_2 1_555 1_555
C86_2 C88_2 1_555 1_555
C87_2 C28_2 1_555 1_555
C88_2 C27_2 1_555 1_555
C89_2 C79_2 1_555 1_555
C99_2 C32_2 1_555 1_555
H38_2 C99_2 1_555 1_555
O49 C23_2 1_555 1_555
O53 C15_2 1_555 1_555
C15_2 C17_2 1_555 1_555
C26_2 C31_2 1_555 1_555
C78_2 C88_2 1_555 1_555
C86_2 C89_2 1_555 1_555
C87_2 C89_2 1_555 1_555
C86_2 H43_2 1_555 1_555
C87_2 H47_2 1_555 1_555
C27_2 H69_2 1_555 1_555
O7_2 C25_2 1_555 1_555
C2_2 H1_2 1_555 1_555
C4_2 C2_2 1_555 1_555
H3_2 C4_2 1_555 1_555
C7_2 H5_2 1_555 1_555
C10_2 C7_2 1_555 1_555
H7_2 C10_2 1_555 1_555
C14_2 O46 1_555 1_555
C18_2 C19_2 1_555 1_555
C19_2 C2_2 1_555 1_555
C20_2 C4_2 1_555 1_555
C25_2 O57 1_555 1_555
C29_2 C25_2 1_555 1_555
C30_2 C29_2 1_555 1_555
O35_2 C82_2 1_555 1_555
O36_2 C83_2 1_555 1_555
O57_2 C82_2 1_555 1_555
O57_3 C83_2 1_555 1_555
C75_2 C18_2 1_555 1_555
H30_2 C75_2 1_555 1_555
C82_2 C90_2 1_555 1_555
C83_2 C91_2 1_555 1_555
C90_2 C30_2 1_555 1_555
C91_2 C92_2 1_555 1_555
C92_2 C90_2 1_555 1_555
C93_2 C29_2 1_555 1_555
O61 C14_2 1_555 1_555
C7_2 C20_2 1_555 1_555
C10_2 C19_2 1_555 1_555
C14_2 C20_2 1_555 1_555
C91_2 C93_2 1_555 1_555
C92_2 H40_2 1_555 1_555
C93_2 H48_2 1_555 1_555
C30_2 H68_2 1_555 1_555
O46_3 C61_2 1_555 1_555
C37_2 H15_2 1_555 1_555
C41_2 C37_2 1_555 1_555
H19_2 C41_2 1_555 1_555
C61_2 O61_3 1_555 1_555
C69_2 C71_2 1_555 1_555
C71_2 C37_2 1_555 1_555
C73_2 C41_2 1_555 1_555
C47_2 C73_2 1_555 1_555
C61_2 C73_2 1_555 1_555
H9_2 C21_2 1_555 1_555
H26_2 C52_2 1_555 1_555
C36_2 H14_2 1_555 1_555
C40_2 C36_2 1_555 1_555
H18_2 C40_2 1_555 1_555
H27_2 C53_2 1_555 1_555
C60_2 O46_2 1_555 1_555
C70_2 C36_2 1_555 1_555
C72_2 C40_2 1_555 1_555
C74_2 C68_2 1_555 1_555
H31_2 C74_2 1_555 1_555
O61_2 C60_2 1_555 1_555
C46_2 C72_2 1_555 1_555
C60_2 C72_2 1_555 1_555
C68_2 C70_2 1_555 1_555
N1 C101 1_555 1_555
C102 C103 1_555 1_555
C103 N1 1_555 1_555
N1 H41 1_555 1_555
N1 H42 1_555 1_555
C101 H49 1_555 1_555
C101 H50 1_555 1_555
C102 H53 1_555 1_555
C103 H54 1_555 1_555
C100 H44 1_555 1_555
C100 H45 1_555 1_555
C100 H46 1_555 1_555
N1_2 C101_2 1_555 1_555
C100_2 C101_2 1_555 1_555
C102_2 C103_2 1_555 1_555
C103_2 N1_2 1_555 1_555
N1_2 H41_2 1_555 1_555
N1_2 H42_2 1_555 1_555
C100_2 H44_2 1_555 1_555
C100_2 H45_2 1_555 1_555
C100_2 H46_2 1_555 1_555
C101_2 H49_2 1_555 1_555
C101_2 H50_2 1_555 1_555
C102_2 H51_2 1_555 1_555
C102_2 H52_2 1_555 1_555
C102_2 H53_2 1_555 1_555
C103_2 H54_2 1_555 1_555
C103_2 H55_2 1_555 1_555
C100_3 H44_3 1_555 1_555
C100_3 H45_3 1_555 1_555
C100_3 H46_3 1_555 1_555
N1_3 C101_3 1_555 1_555
C102_3 C103_3 1_555 1_555
C103_3 N1_3 1_555 1_555
N1_3 H41_3 1_555 1_555
N1_3 H42_3 1_555 1_555
C101_3 H49_3 1_555 1_555
C101_3 H50_3 1_555 1_555
C102_3 H53_3 1_555 1_555
C103_3 H54_3 1_555 1_555
C100_4 H44_4 1_555 1_555
C100_4 H45_4 1_555 1_555
C100_4 H46_4 1_555 1_555
N1_4 C101_4 1_555 1_555
C102_4 C103_4 1_555 1_555
C103_4 N1_4 1_555 1_555
N1_4 H41_4 1_555 1_555
N1_4 H42_4 1_555 1_555
C101_4 H49_4 1_555 1_555
C101_4 H50_4 1_555 1_555
C102_4 H53_4 1_555 1_555
C103_4 H54_4 1_555 1_555
N1_5 C101_5 1_555 1_555
C100_5 C101_5 1_555 1_555
C102_5 C103_5 1_555 1_555
C103_5 N1_5 1_555 1_555
N1_5 H41_5 1_555 1_555
N1_5 H42_5 1_555 1_555
C100_5 H44_5 1_555 1_555
C100_5 H45_5 1_555 1_555
C100_5 H46_5 1_555 1_555
C101_5 H49_5 1_555 1_555
C101_5 H50_5 1_555 1_555
C102_5 H51_5 1_555 1_555
C102_5 H52_5 1_555 1_555
C102_5 H53_5 1_555 1_555
C103_5 H54_5 1_555 1_555
C103_5 H55_5 1_555 1_555
N1_6 C101_6 1_555 1_555
C102_6 C103_6 1_555 1_555
C103_6 N1_6 1_555 1_555
N1_6 H41_6 1_555 1_555
N1_6 H42_6 1_555 1_555
C101_6 H49_6 1_555 1_555
C101_6 H50_6 1_555 1_555
C102_6 H53_6 1_555 1_555
C103_6 H54_6 1_555 1_555
C100_6 H44_6 1_555 1_555
C100_6 H45_6 1_555 1_555
C100_6 H46_6 1_555 1_555
N2 C105 1_555 1_555
C104 C105 1_555 1_555
C106 N2 1_555 1_555
C107 C106 1_555 1_555
C104 H56 1_555 1_555
C104 H57 1_555 1_555
C104 H58 1_555 1_555
C105 H59 1_555 1_555
C105 H60 1_555 1_555
C107 H61 1_555 1_555
C107 H62 1_555 1_555
C107 H63 1_555 1_555
N2 H64 1_555 1_555
N2 H65 1_555 1_555
C106 H66 1_555 1_555
C106 H67 1_555 1_555
N2_2 C105_2 1_555 1_555
C104_2 C105_2 1_555 1_555
C106_2 N2_2 1_555 1_555
C107_2 C106_2 1_555 1_555
C104_2 H56_2 1_555 1_555
C104_2 H57_2 1_555 1_555
C104_2 H58_2 1_555 1_555
C105_2 H59_2 1_555 1_555
C105_2 H60_2 1_555 1_555
C107_2 H61_2 1_555 1_555
C107_2 H62_2 1_555 1_555
C107_2 H63_2 1_555 1_555
N2_2 H64_2 1_555 1_555
N2_2 H65_2 1_555 1_555
C106_2 H66_2 1_555 1_555
C106_2 H67_2 1_555 1_555
N2_3 C105_3 1_555 1_555
C104_3 C105_3 1_555 1_555
C106_3 N2_3 1_555 1_555
C107_3 C106_3 1_555 1_555
C104_3 H56_3 1_555 1_555
C104_3 H57_3 1_555 1_555
C104_3 H58_3 1_555 1_555
C105_3 H59_3 1_555 1_555
C105_3 H60_3 1_555 1_555
C107_3 H61_3 1_555 1_555
C107_3 H62_3 1_555 1_555
C107_3 H63_3 1_555 1_555
N2_3 H64_3 1_555 1_555
N2_3 H65_3 1_555 1_555
C106_3 H66_3 1_555 1_555
C106_3 H67_3 1_555 1_555
N2_4 C105_4 1_555 1_555
C104_4 C105_4 1_555 1_555
C106_4 N2_4 1_555 1_555
C107_4 C106_4 1_555 1_555
C104_4 H56_4 1_555 1_555
C104_4 H57_4 1_555 1_555
C104_4 H58_4 1_555 1_555
C105_4 H59_4 1_555 1_555
C105_4 H60_4 1_555 1_555
C107_4 H61_4 1_555 1_555
C107_4 H62_4 1_555 1_555
C107_4 H63_4 1_555 1_555
N2_4 H64_4 1_555 1_555
N2_4 H65_4 1_555 1_555
C106_4 H66_4 1_555 1_555
C106_4 H67_4 1_555 1_555
N2_5 C105_5 1_555 1_555
C104_5 C105_5 1_555 1_555
C106_5 N2_5 1_555 1_555
C107_5 C106_5 1_555 1_555
C104_5 H56_5 1_555 1_555
C104_5 H57_5 1_555 1_555
C104_5 H58_5 1_555 1_555
C105_5 H59_5 1_555 1_555
C105_5 H60_5 1_555 1_555
C107_5 H61_5 1_555 1_555
C107_5 H62_5 1_555 1_555
C107_5 H63_5 1_555 1_555
N2_5 H64_5 1_555 1_555
N2_5 H65_5 1_555 1_555
C106_5 H66_5 1_555 1_555
C106_5 H67_5 1_555 1_555
N2_6 C105_6 1_555 1_555
C104_6 C105_6 1_555 1_555
C106_6 N2_6 1_555 1_555
C107_6 C106_6 1_555 1_555
C104_6 H56_6 1_555 1_555
C104_6 H57_6 1_555 1_555
C104_6 H58_6 1_555 1_555
C105_6 H59_6 1_555 1_555
C105_6 H60_6 1_555 1_555
C107_6 H61_6 1_555 1_555
C107_6 H62_6 1_555 1_555
C107_6 H63_6 1_555 1_555
N2_6 H64_6 1_555 1_555
N2_6 H65_6 1_555 1_555
C106_6 H66_6 1_555 1_555
C106_6 H67_6 1_555 1_555

#END
