
###############################################################################
#
# This file contains modified crystal structure data generated from the
# MOF subset of the Cambridge Structural Database (CSD) v543 
# hosted by the Cambridge Crystallographic Data Centre (CCDC).
#
# This work is licensed under the Creative Commons
# Attribution-NonCommercial-ShareAlike 4.0 International License.
# To view a copy of this license, visit
# http://creativecommons.org/licenses/by-nc-sa/4.0/
# or send a letter to
# Creative Commons, PO Box 1866, Mountain View, CA 94042, USA.
#
# CIF created using the CSD Python API on 29 September 2022
# The structure has been converted into the P1 space group
# The structure has a 3D framework
# The original CSD entry IYUHIU is in the orthorhombic crystal system
# The framework has been calculated to contain at least 10.0% void space
# The void calculation uses a probe of radius 1.32A, grid spacing 0.4
# H atom positions have been added when not included in the experimental data
#
###############################################################################

data_IYUHIU
_chemical_formula_moiety         '(C308 H468 In20 N56 O180 30+)n'
_symmetry_cell_setting           triclinic
_symmetry_space_group_name_H-M   'P 1'
_symmetry_Int_Tables_number      1
_space_group_name_Hall           'P 1'
loop_
_symmetry_equiv_pos_site_id
_symmetry_equiv_pos_as_xyz
1 x,y,z
_cell_length_a                   29.7560(9)
_cell_length_b                   14.5284(4)
_cell_length_c                   29.7388(9)
_cell_angle_alpha                90
_cell_angle_beta                 90
_cell_angle_gamma                90
_cell_volume                     12856.3
loop_
_atom_site_label
_atom_site_type_symbol
_atom_site_fract_x
_atom_site_fract_y
_atom_site_fract_z
In17 In 0.324287(19) 0.11798(4) 0.152885(18)
O37 O 0.3397(2) 0.1046(5) 0.0780(2)
O42 O 0.2717(2) 0.1403(5) 0.0985(2)
C43 C 0.2402(3) 0.1282(6) 0.0084(3)
H15 H 0.2188 0.1335 0.0310
C45 C 0.2996(3) 0.1232(6) 0.0683(3)
C50 C 0.2846(3) 0.1233(5) 0.0201(3)
In2 In 0.093790(18) 0.11802(4) 0.922200(19)
O6 O 0.0978(2) 0.0487(5) 0.8559(2)
O9 O 0.0958(3) 0.2500 0.8933(3)
O12 O 0.0300(2) 0.0951(5) 0.8722(2)
C1 C 0.0569(3) 0.0611(6) 0.8448(3)
C14 C 0.0003(3) 0.0541(6) 0.7825(3)
C28 C 0.0436(3) 0.0353(6) 0.7985(3)
In6 In 0.367443(18) 0.11917(4) 0.812018(18)
In9 In 0.093790(18) 0.38198(4) 0.922200(19)
O53 O 0.0448(2) 0.1721(4) 0.9689(2)
O55 O 0.14668(19) 0.1368(5) 0.9796(2)
O57 O 0.1681(2) 0.1135(4) 0.9095(2)
O58 O 0.3197(2) 0.1301(4) 0.8636(2)
O60 O 0.3777(2) 0.1156(5) 0.9097(2)
C38 C 0.2261(3) 0.1257(6) 0.9646(3)
C42 C 0.2579(3) 0.1237(6) 0.9321(3)
H14 H 0.2484 0.1233 0.9023
C44 C 0.3042(3) 0.1222(5) 0.9405(3)
C51 C 0.3165(3) 0.1217(5) 0.9851(3)
H17 H 0.3469 0.1201 0.9924
C52 C 0.3377(3) 0.1222(5) 0.9026(3)
C53 C 0.1780(3) 0.1251(5) 0.9508(3)
O2 O 0.1376(3) 0.9230(5) 0.9360(3)
O3 O 0.0941(3) 0.9312(5) 0.6545(3)
O4 O 0.0740(2) 0.9932(4) 0.9529(2)
O5 O 0.1375(2) 0.9179(5) 0.7129(3)
C5 C 0.0155(4) 0.7500 0.9977(4)
C6 C 0.0989(3) 0.9218(6) 0.9500(3)
C26 C 0.0773(3) 0.8332(6) 0.9641(3)
C30 C 0.1006(3) 0.9393(6) 0.6951(3)
C31 C 0.0356(3) 0.8323(6) 0.9861(3)
H8 H 0.0214 0.8875 0.9930
C32 C 0.0642(3) 0.9785(6) 0.7248(3)
C33 C 0.0976(5) 0.7500 0.9537(5)
H9 H 0.1254 0.7500 0.9394
C35 C 0.0749(3) 0.9980(6) 0.7693(3)
H10 H 0.1038 0.9858 0.7797
C36 C 0.0215(3) 0.9994(6) 0.7090(3)
H11 H 0.0142 0.9883 0.6791
In14 In 0.175713(19) 0.88202(4) 0.652885(18)
O26 O 0.1376(3) 0.5770(5) 0.9360(3)
O28 O 0.0740(2) 0.5068(4) 0.9529(2)
C40 C 0.0989(3) 0.5782(6) 0.9500(3)
C55 C 0.0773(3) 0.6668(6) 0.9641(3)
C59 C 0.0356(3) 0.6677(6) 0.9861(3)
H18 H 0.0214 0.6125 0.9930
In1 In 0.867443(18) 0.11917(4) 0.687982(18)
O1 O 0.7128(3) 0.0059(4) 0.8332(3)
O8 O 0.9352(2) 0.0527(4) 0.67888(19)
O10 O 0.8397(2) 0.1046(5) 0.4220(2)
O11 O 0.8961(3) 0.2500 0.6768(3)
O13 O 0.7717(2) 0.1403(5) 0.4015(2)
O16 O 0.91648(19) 0.0998(4) 0.7469(2)
O17 O 0.8198(2) 0.1725(4) 0.7365(2)
O19 O 0.64668(19) 0.1368(5) 0.5204(2)
O20 O 0.6605(4) 0.0805(7) 0.8676(4)
O21 O 0.6681(2) 0.1135(4) 0.5905(2)
O22 O 0.8197(2) 0.1301(4) 0.6364(2)
O23 O 0.8777(2) 0.1156(5) 0.5903(2)
C2 C 0.7261(3) 0.1257(6) 0.5354(3)
C4 C 0.7516(3) 0.1663(5) 0.8004(3)
H1 H 0.7632 0.1106 0.7903
C8 C 0.7579(3) 0.1237(6) 0.5679(3)
H3 H 0.7484 0.1233 0.5977
C9 C 0.7402(3) 0.1282(6) 0.4916(3)
H4 H 0.7188 0.1335 0.4690
C10 C 0.8042(3) 0.1222(5) 0.5595(3)
C12 C 0.7996(3) 0.1232(6) 0.4317(3)
H5 H 0.9787 0.0782 0.8018
C15 C 0.8058(4) 0.2500 0.7498(4)
C16 C 0.6957(3) 0.0793(7) 0.8461(4)
C18 C 0.7846(3) 0.1233(5) 0.4799(3)
C19 C 0.8165(3) 0.1217(5) 0.5149(3)
H6 H 0.8469 0.1201 0.5076
C20 C 0.7703(4) 0.2500 0.7848(4)
C22 C 0.8377(3) 0.1222(5) 0.5974(3)
C23 C 0.6780(3) 0.1251(5) 0.5492(3)
C25 C 0.9897(3) 0.0366(6) 0.7376(3)
C27 C 0.9447(3) 0.0632(6) 0.7199(3)
C29 C 0.6993(4) 0.2500 0.8462(5)
H7 H 0.6762 0.2500 0.8673
C34 C 0.7165(3) 0.1665(6) 0.8305(3)
In5 In 0.867443(18) 0.38083(4) 0.687982(18)
In8 In 0.593790(18) 0.11802(4) 0.577800(19)
In13 In 0.675713(19) 0.61798(4) 0.847115(18)
In15 In 0.824287(19) 0.11798(4) 0.347115(18)
O25 O 0.7128(3) 0.4941(4) 0.8332(3)
O31 O 0.6375(2) 0.5821(5) 0.7871(3)
O32 O 0.5978(2) 0.0487(5) 0.6441(2)
O34 O 0.4352(2) 0.0527(4) 0.82112(19)
O36 O 0.5958(3) 0.2500 0.6067(3)
O39 O 0.6603(2) 0.6046(5) 0.9220(2)
O41 O 0.5300(2) 0.0951(5) 0.6278(2)
O44 O 0.7283(2) 0.6403(5) 0.9015(2)
O45 O 0.6464(3) 0.7500 0.8505(3)
O47 O 0.7267(2) 0.6735(4) 0.8020(2)
O48 O 0.41648(19) 0.0998(4) 0.7531(2)
O50 O 0.8198(2) 0.3275(4) 0.7365(2)
O54 O 0.5448(2) 0.1721(4) 0.5311(2)
O56 O 0.6605(4) 0.4195(7) 0.8676(4)
C37 C 0.5569(3) 0.0611(6) 0.6552(3)
C39 C 0.7516(3) 0.3337(5) 0.8004(3)
H12 H 0.7632 0.3894 0.7903
C47 C 0.5003(3) 0.0541(6) 0.7175(3)
H16 H 0.4787 0.0782 0.6982
C48 C 0.6957(3) 0.4207(7) 0.8461(4)
C54 C 0.4897(3) 0.0366(6) 0.7624(3)
C56 C 0.4447(3) 0.0632(6) 0.7801(3)
C57 C 0.5436(3) 0.0353(6) 0.7015(3)
C61 C 0.7165(3) 0.3335(6) 0.8305(3)
O18 O 0.9552(2) 0.8279(4) 0.0311(2)
C24 C 0.9720(4) 0.7500 0.0216(4)
In10 In 0.906210(18) 0.88198(4) 0.077800(19)
In11 In 0.906210(18) 0.61802(4) 0.077800(19)
O52 O 0.9552(2) 0.6721(4) 0.0311(2)
In3 In 0.675713(19) 0.88202(4) 0.847115(18)
O7 O 0.8389(2) 0.9905(4) 0.7085(2)
O15 O 0.7267(2) 0.8265(4) 0.8020(2)
O24 O 0.8574(3) 0.9253(5) 0.6439(2)
C3 C 0.8378(4) 0.7500 0.6812(5)
C7 C 0.7915(3) 0.8329(5) 0.7352(3)
H2 H 0.7809 0.8882 0.7468
C11 C 0.7758(4) 0.7500 0.7530(4)
C13 C 0.8231(3) 0.8340(5) 0.7002(3)
C17 C 0.8408(3) 0.9226(5) 0.6824(3)
C21 C 0.7401(4) 0.7500 0.7882(4)
O27 O 0.5941(3) 0.9312(5) 0.8455(3)
O29 O 0.5740(2) 0.9932(4) 0.5471(2)
O30 O 0.6375(2) 0.9179(5) 0.7871(3)
O33 O 0.8389(2) 0.5095(4) 0.7085(2)
O35 O 0.9352(2) 0.4473(4) 0.67888(19)
O38 O 0.6603(2) 0.8954(5) 0.9220(2)
O43 O 0.7283(2) 0.8597(5) 0.9015(2)
O49 O 0.91648(19) 0.4002(4) 0.7469(2)
O59 O 0.8197(2) 0.3699(4) 0.6364(2)
O61 O 0.8574(3) 0.5747(5) 0.6439(2)
C41 C 0.7915(3) 0.6671(5) 0.7352(3)
H13 H 0.7809 0.6118 0.7468
C46 C 0.8231(3) 0.6660(5) 0.7002(3)
C49 C 0.8408(3) 0.5774(5) 0.6824(3)
C58 C 0.6006(3) 0.9393(6) 0.8049(3)
C60 C 0.5642(3) 0.9785(6) 0.7752(3)
C62 C 0.5749(3) 0.9980(6) 0.7307(3)
H19 H 0.6038 0.9858 0.7203
C63 C 0.5215(3) 0.9994(6) 0.7910(3)
H20 H 0.5142 0.9883 0.8209
H21 H 0.860203 0.75 0.652244
In7 In 0.132557(18) 0.88083(4) 0.312018(18)
O34_2 O 0.0648(2) 0.9473(4) 0.32112(19)
O48_2 O 0.08352(19) 0.9002(4) 0.2531(2)
H16_2 H 0.0213 0.9218 0.1982
C54_2 C 0.0103(3) 0.9634(6) 0.2624(3)
C56_2 C 0.0553(3) 0.9368(6) 0.2801(3)
O2_2 O 0.3624(3) 0.0770(5) 0.4360(3)
O3_2 O 0.4059(3) 0.0688(5) 0.1545(3)
O4_2 O 0.4260(2) 0.0068(4) 0.4529(2)
O5_2 O 0.3625(2) 0.0821(5) 0.2129(3)
O7_2 O 0.6611(2) 0.0095(4) 0.2085(2)
O14 O 0.8536(3) 0.2500 0.3505(3)
O15_2 O 0.7733(2) 0.1735(4) 0.3020(2)
O24_2 O 0.6426(3) 0.0747(5) 0.1439(2)
C3_2 C 0.6622(4) 0.2500 0.1812(5)
C5_2 C 0.4845(4) 0.2500 0.4977(4)
C6_2 C 0.4011(3) 0.0782(6) 0.4500(3)
C7_2 C 0.7085(3) 0.1671(5) 0.2352(3)
H2_2 H 0.7191 0.1118 0.2468
C11_2 C 0.7242(4) 0.2500 0.2530(4)
C13_2 C 0.6769(3) 0.1660(5) 0.2002(3)
C17_2 C 0.6592(3) 0.0774(5) 0.1824(3)
C21_2 C 0.7599(4) 0.2500 0.2882(4)
C24_2 C 0.5280(4) 0.2500 0.5216(4)
C26_2 C 0.4227(3) 0.1668(6) 0.4641(3)
C30_2 C 0.3994(3) 0.0607(6) 0.1951(3)
C31_2 C 0.4644(3) 0.1677(6) 0.4861(3)
H8_2 H 0.4786 0.1125 0.4930
C32_2 C 0.4358(3) 0.0215(6) 0.2248(3)
C33_2 C 0.4024(5) 0.2500 0.4537(5)
H9_2 H 0.3746 0.2500 0.4394
C35_2 C 0.4251(3) 0.0020(6) 0.2693(3)
H10_2 H 0.3962 0.0142 0.2797
C36_2 C 0.4785(3) 0.0006(6) 0.2090(3)
H11_2 H 0.4858 0.0117 0.1791
In4 In 0.632557(18) 0.61917(4) 0.187982(18)
In11_2 In 0.593790(18) 0.38198(4) 0.577800(19)
In12 In 0.406210(18) 0.61802(4) 0.422200(19)
In16 In 0.824287(19) 0.38202(4) 0.347115(18)
O26_2 O 0.3624(3) 0.4230(5) 0.4360(3)
O27_2 O 0.9059(3) 0.0688(5) 0.3455(3)
O28_2 O 0.4260(2) 0.4932(4) 0.4529(2)
O29_2 O 0.9260(2) 0.0068(4) 0.0471(2)
O30_2 O 0.8625(2) 0.0821(5) 0.2871(3)
O33_2 O 0.6611(2) 0.4905(4) 0.2085(2)
O35_2 O 0.5648(2) 0.5527(4) 0.17888(19)
O40 O 0.6039(3) 0.7500 0.1768(3)
O46 O 0.7733(2) 0.3265(4) 0.3020(2)
O49_2 O 0.58352(19) 0.5998(4) 0.2469(2)
O51 O 0.6802(2) 0.6725(4) 0.2365(2)
O52_2 O 0.5448(2) 0.3279(4) 0.5311(2)
O59_2 O 0.6803(2) 0.6301(4) 0.1364(2)
O61_2 O 0.6426(3) 0.4253(5) 0.1439(2)
C40_2 C 0.4011(3) 0.4218(6) 0.4500(3)
C41_2 C 0.7085(3) 0.3329(5) 0.2352(3)
H13_2 H 0.7191 0.3882 0.2468
C46_2 C 0.6769(3) 0.3340(5) 0.2002(3)
C49_2 C 0.6592(3) 0.4226(5) 0.1824(3)
C55_2 C 0.4227(3) 0.3332(6) 0.4641(3)
C58_2 C 0.8994(3) 0.0607(6) 0.3049(3)
C59_2 C 0.4644(3) 0.3323(6) 0.4861(3)
H18_2 H 0.4786 0.3875 0.4930
C60_2 C 0.9358(3) 0.0215(6) 0.2752(3)
C62_2 C 0.9251(3) 0.0020(6) 0.2307(3)
H19_2 H 0.8962 0.0142 0.2203
C63_2 C 0.9785(3) 0.0006(6) 0.2910(3)
H20_2 H 0.9858 0.0117 0.3209
H21_2 H 0.639797 0.25 0.152244
In1_2 In 0.632557(18) 0.88083(4) 0.187982(18)
In2_2 In 0.406210(18) 0.88198(4) 0.422200(19)
O1_2 O 0.7872(3) 0.9941(4) 0.3332(3)
O6_2 O 0.4022(2) 0.9513(5) 0.3559(2)
O8_2 O 0.5648(2) 0.9473(4) 0.17888(19)
O9_2 O 0.4042(3) 0.7500 0.3933(3)
O12_2 O 0.4700(2) 0.9049(5) 0.3722(2)
O16_2 O 0.58352(19) 0.9002(4) 0.2469(2)
O17_2 O 0.6802(2) 0.8275(4) 0.2365(2)
O19_2 O 0.85332(19) 0.8632(5) 0.0204(2)
O20_2 O 0.8395(4) 0.9195(7) 0.3676(4)
O21_2 O 0.8319(2) 0.8865(4) 0.0905(2)
O22_2 O 0.6803(2) 0.8699(4) 0.1364(2)
O23_2 O 0.6223(2) 0.8844(5) 0.0903(2)
C1_2 C 0.4431(3) 0.9389(6) 0.3448(3)
C2_2 C 0.7739(3) 0.8743(6) 0.0354(3)
C4_2 C 0.7484(3) 0.8337(5) 0.3004(3)
H1_2 H 0.7368 0.8894 0.2903
C8_2 C 0.7421(3) 0.8763(6) 0.0679(3)
H3_2 H 0.7516 0.8767 0.0977
C10_2 C 0.6958(3) 0.8778(5) 0.0595(3)
C14_2 C 0.4997(3) 0.9459(6) 0.2825(3)
H5_2 H 0.5213 0.9218 0.3018
C15_2 C 0.6942(4) 0.7500 0.2498(4)
C16_2 C 0.8043(3) 0.9207(7) 0.3461(4)
C19_2 C 0.6835(3) 0.8783(5) 0.0149(3)
H6_2 H 0.6531 0.8799 0.0076
C20_2 C 0.7297(4) 0.7500 0.2848(4)
C22_2 C 0.6623(3) 0.8778(5) 0.0974(3)
C23_2 C 0.8220(3) 0.8749(5) 0.0492(3)
C25_2 C 0.5103(3) 0.9634(6) 0.2376(3)
C27_2 C 0.5553(3) 0.9368(6) 0.2199(3)
C28_2 C 0.4564(3) 0.9647(6) 0.2985(3)
C29_2 C 0.8007(4) 0.7500 0.3462(5)
H7_2 H 0.8238 0.7500 0.3673
C34_2 C 0.7835(3) 0.8335(6) 0.3305(3)
O25_2 O 0.7872(3) 0.5059(4) 0.3332(3)
O31_2 O 0.8625(2) 0.4179(5) 0.2871(3)
O32_2 O 0.9022(2) 0.9513(5) 0.1441(2)
O36_2 O 0.9042(3) 0.7500 0.1067(3)
O37_2 O 0.1603(2) 0.8954(5) 0.5780(2)
O39_2 O 0.8397(2) 0.3954(5) 0.4220(2)
O41_2 O 0.9700(2) 0.9049(5) 0.1278(2)
O42_2 O 0.2283(2) 0.8597(5) 0.5985(2)
O44_2 O 0.7717(2) 0.3597(5) 0.4015(2)
O53_2 O 0.4552(2) 0.8279(4) 0.4689(2)
O55_2 O 0.35332(19) 0.8632(5) 0.4796(2)
O56_2 O 0.8395(4) 0.5805(7) 0.3676(4)
O57_2 O 0.3319(2) 0.8865(4) 0.4095(2)
O58_2 O 0.1803(2) 0.8699(4) 0.3636(2)
O60_2 O 0.1223(2) 0.8844(5) 0.4097(2)
C37_2 C 0.9431(3) 0.9389(6) 0.1552(3)
C38_2 C 0.2739(3) 0.8743(6) 0.4646(3)
C39_2 C 0.7484(3) 0.6663(5) 0.3004(3)
H12_2 H 0.7368 0.6106 0.2903
C42_2 C 0.2421(3) 0.8763(6) 0.4321(3)
H14_2 H 0.2516 0.8767 0.4023
C43_2 C 0.2598(3) 0.8718(6) 0.5084(3)
H15_2 H 0.2812 0.8665 0.5310
C44_2 C 0.1958(3) 0.8778(5) 0.4405(3)
C45_2 C 0.2004(3) 0.8768(6) 0.5683(3)
C47_2 C 0.9997(3) 0.9459(6) 0.2175(3)
C48_2 C 0.8043(3) 0.5793(7) 0.3461(4)
C50_2 C 0.2154(3) 0.8767(5) 0.5201(3)
C51_2 C 0.1835(3) 0.8783(5) 0.4851(3)
H17_2 H 0.1531 0.8799 0.4924
C52_2 C 0.1623(3) 0.8778(5) 0.4026(3)
C53_2 C 0.3220(3) 0.8749(5) 0.4508(3)
C57_2 C 0.9564(3) 0.9647(6) 0.2015(3)
C61_2 C 0.7835(3) 0.6665(6) 0.3305(3)
C9_2 C 0.7598(3) 0.8718(6) 0.9916(3)
H4_2 H 0.7812 0.8665 0.9690
C12_2 C 0.7004(3) 0.8768(6) 0.9317(3)
C18_2 C 0.7154(3) 0.8767(5) 0.9799(3)
O45_2 O 0.3536(3) 0.2500 0.1495(3)
O47_2 O 0.2733(2) 0.1735(4) 0.1980(2)
In1_3 In 0.132557(18) 0.61917(4) 0.312018(18)
In3_2 In 0.324287(19) 0.38202(4) 0.152885(18)
O1_3 O 0.2872(3) 0.5059(4) 0.1668(3)
O7_3 O 0.1611(2) 0.4905(4) 0.2915(2)
O8_3 O 0.0648(2) 0.5527(4) 0.32112(19)
O10_2 O 0.1603(2) 0.6046(5) 0.5780(2)
O11_2 O 0.1039(3) 0.7500 0.3232(3)
O13_2 O 0.2283(2) 0.6403(5) 0.5985(2)
O15_3 O 0.2733(2) 0.3265(4) 0.1980(2)
O16_3 O 0.08352(19) 0.5998(4) 0.2531(2)
O17_3 O 0.1802(2) 0.6725(4) 0.2635(2)
O19_3 O 0.35332(19) 0.6368(5) 0.4796(2)
O20_3 O 0.3395(4) 0.5805(7) 0.1324(4)
O21_3 O 0.3319(2) 0.6135(4) 0.4095(2)
O22_3 O 0.1803(2) 0.6301(4) 0.3636(2)
O23_3 O 0.1223(2) 0.6156(5) 0.4097(2)
O24_3 O 0.1426(3) 0.4253(5) 0.3561(2)
C2_3 C 0.2739(3) 0.6257(6) 0.4646(3)
C3_3 C 0.1622(4) 0.2500 0.3188(5)
C4_3 C 0.2484(3) 0.6663(5) 0.1996(3)
H1_3 H 0.2368 0.6106 0.2097
C7_3 C 0.2085(3) 0.3329(5) 0.2648(3)
H2_3 H 0.2191 0.3882 0.2532
C8_3 C 0.2421(3) 0.6237(6) 0.4321(3)
H3_3 H 0.2516 0.6233 0.4023
C9_3 C 0.2598(3) 0.6282(6) 0.5084(3)
H4_3 H 0.2812 0.6335 0.5310
C10_3 C 0.1958(3) 0.6222(5) 0.4405(3)
C11_3 C 0.2242(4) 0.2500 0.2470(4)
C12_3 C 0.2004(3) 0.6232(6) 0.5683(3)
C13_3 C 0.1769(3) 0.3340(5) 0.2998(3)
H5_3 H 0.0213 0.5782 0.1982
C15_3 C 0.1942(4) 0.7500 0.2502(4)
C16_3 C 0.3043(3) 0.5793(7) 0.1539(4)
C17_3 C 0.1592(3) 0.4226(5) 0.3176(3)
C18_3 C 0.2154(3) 0.6233(5) 0.5201(3)
C19_3 C 0.1835(3) 0.6217(5) 0.4851(3)
H6_3 H 0.1531 0.6201 0.4924
C20_3 C 0.2297(4) 0.7500 0.2152(4)
C21_3 C 0.2599(4) 0.2500 0.2118(4)
C22_3 C 0.1623(3) 0.6222(5) 0.4026(3)
C23_3 C 0.3220(3) 0.6251(5) 0.4508(3)
C25_3 C 0.0103(3) 0.5366(6) 0.2624(3)
C27_3 C 0.0553(3) 0.5632(6) 0.2801(3)
C29_3 C 0.3007(4) 0.7500 0.1538(5)
H7_3 H 0.3238 0.7500 0.1327
C34_3 C 0.2835(3) 0.6665(6) 0.1695(3)
In15_2 In 0.175713(19) 0.61798(4) 0.652885(18)
O25_3 O 0.2872(3) 0.9941(4) 0.1668(3)
O27_3 O 0.4059(3) 0.4312(5) 0.1545(3)
O30_3 O 0.3625(2) 0.4179(5) 0.2129(3)
O32_3 O 0.4022(2) 0.5487(5) 0.3559(2)
O33_3 O 0.1611(2) 0.0095(4) 0.2915(2)
O38_2 O 0.3397(2) 0.3954(5) 0.0780(2)
O41_3 O 0.4700(2) 0.5951(5) 0.3722(2)
O43_2 O 0.2717(2) 0.3597(5) 0.0985(2)
O50_2 O 0.1802(2) 0.8275(4) 0.2635(2)
O54_2 O 0.4552(2) 0.6721(4) 0.4689(2)
O56_3 O 0.3395(4) 0.9195(7) 0.1324(4)
O61_3 O 0.1426(3) 0.0747(5) 0.3561(2)
C37_3 C 0.4431(3) 0.5611(6) 0.3448(3)
C39_3 C 0.2484(3) 0.8337(5) 0.1996(3)
H12_3 H 0.2368 0.8894 0.2097
C41_3 C 0.2085(3) 0.1671(5) 0.2648(3)
H13_3 H 0.2191 0.1118 0.2532
C46_3 C 0.1769(3) 0.1660(5) 0.2998(3)
C47_3 C 0.4997(3) 0.5541(6) 0.2825(3)
H16_3 H 0.5213 0.5782 0.3018
C48_3 C 0.3043(3) 0.9207(7) 0.1539(4)
C49_3 C 0.1592(3) 0.0774(5) 0.3176(3)
C54_3 C 0.5103(3) 0.5366(6) 0.2376(3)
C56_3 C 0.5553(3) 0.5632(6) 0.2199(3)
C57_3 C 0.4564(3) 0.5353(6) 0.2985(3)
C58_3 C 0.3994(3) 0.4393(6) 0.1951(3)
C60_3 C 0.4358(3) 0.4785(6) 0.2248(3)
C61_3 C 0.2835(3) 0.8335(6) 0.1695(3)
C62_3 C 0.4251(3) 0.4980(6) 0.2693(3)
H19_3 H 0.3962 0.4858 0.2797
C63_3 C 0.4785(3) 0.4994(6) 0.2090(3)
H20_3 H 0.4858 0.4883 0.1791
H21_3 H 0.139797 0.25 0.347756
O18_2 O 0.0448(2) 0.3279(4) 0.9689(2)
C24_3 C 0.0280(4) 0.2500 0.9784(4)
O2_3 O 0.8624(3) 0.4230(5) 0.0640(3)
O3_3 O 0.9059(3) 0.4312(5) 0.3455(3)
O4_3 O 0.9260(2) 0.4932(4) 0.0471(2)
O6_3 O 0.9022(2) 0.5487(5) 0.1441(2)
O12_3 O 0.9700(2) 0.5951(5) 0.1278(2)
C1_3 C 0.9431(3) 0.5611(6) 0.1552(3)
C5_3 C 0.9845(4) 0.2500 0.0023(4)
C6_3 C 0.9011(3) 0.4218(6) 0.0500(3)
C14_3 C 0.9997(3) 0.5541(6) 0.2175(3)
C26_3 C 0.9227(3) 0.3332(6) 0.0359(3)
C28_3 C 0.9564(3) 0.5353(6) 0.2015(3)
C30_3 C 0.8994(3) 0.4393(6) 0.3049(3)
C31_3 C 0.9644(3) 0.3323(6) 0.0139(3)
H8_3 H 0.9786 0.3875 0.0070
C32_3 C 0.9358(3) 0.4785(6) 0.2752(3)
C33_3 C 0.9024(5) 0.2500 0.0463(5)
H9_3 H 0.8746 0.2500 0.0606
C35_3 C 0.9251(3) 0.4980(6) 0.2307(3)
H10_3 H 0.8962 0.4858 0.2203
C36_3 C 0.9785(3) 0.4994(6) 0.2910(3)
H11_3 H 0.9858 0.4883 0.3209
O26_3 O 0.8624(3) 0.0770(5) 0.0640(3)
O55_3 O 0.85332(19) 0.6368(5) 0.0204(2)
O57_3 O 0.8319(2) 0.6135(4) 0.0905(2)
O60_3 O 0.6223(2) 0.6156(5) 0.0903(2)
C38_3 C 0.7739(3) 0.6257(6) 0.0354(3)
C40_3 C 0.9011(3) 0.0782(6) 0.0500(3)
C42_3 C 0.7421(3) 0.6237(6) 0.0679(3)
H14_3 H 0.7516 0.6233 0.0977
C44_3 C 0.6958(3) 0.6222(5) 0.0595(3)
C51_3 C 0.6835(3) 0.6217(5) 0.0149(3)
H17_3 H 0.6531 0.6201 0.0076
C52_3 C 0.6623(3) 0.6222(5) 0.0974(3)
C53_3 C 0.8220(3) 0.6251(5) 0.0492(3)
C55_3 C 0.9227(3) 0.1668(6) 0.0359(3)
C59_3 C 0.9644(3) 0.1677(6) 0.0139(3)
H18_3 H 0.9786 0.1125 0.0070
C43_3 C 0.7598(3) 0.6282(6) 0.9916(3)
H15_3 H 0.7812 0.6335 0.9690
C45_3 C 0.7004(3) 0.6232(6) 0.9317(3)
C50_3 C 0.7154(3) 0.6233(5) 0.9799(3)
O40_2 O 0.3961(3) 0.2500 0.8232(3)
O51_2 O 0.3198(2) 0.1725(4) 0.7635(2)
C9_4 C 0.2402(3) 0.3718(6) 0.0084(3)
H4_4 H 0.2188 0.3665 0.0310
C12_4 C 0.2996(3) 0.3768(6) 0.0683(3)
C18_4 C 0.2846(3) 0.3767(5) 0.0201(3)
In1_4 In 0.367443(18) 0.38083(4) 0.812018(18)
O1_4 O 0.2128(3) 0.4941(4) 0.6668(3)
O2_4 O 0.6376(3) 0.5770(5) 0.5640(3)
O3_4 O 0.5941(3) 0.5688(5) 0.8455(3)
O4_4 O 0.5740(2) 0.5068(4) 0.5471(2)
O6_4 O 0.5978(2) 0.4513(5) 0.6441(2)
O7_4 O 0.3389(2) 0.5095(4) 0.7915(2)
O8_4 O 0.4352(2) 0.4473(4) 0.82112(19)
O12_4 O 0.5300(2) 0.4049(5) 0.6278(2)
O14_2 O 0.1464(3) 0.7500 0.6495(3)
O15_4 O 0.2267(2) 0.6735(4) 0.6980(2)
O16_4 O 0.41648(19) 0.4002(4) 0.7531(2)
O17_4 O 0.3198(2) 0.3275(4) 0.7635(2)
O19_4 O 0.14668(19) 0.3632(5) 0.9796(2)
O20_4 O 0.1605(4) 0.4195(7) 0.6324(4)
O21_4 O 0.1681(2) 0.3865(4) 0.9095(2)
O22_4 O 0.3197(2) 0.3699(4) 0.8636(2)
O23_4 O 0.3777(2) 0.3844(5) 0.9097(2)
O24_4 O 0.3574(3) 0.5747(5) 0.8561(2)
C1_4 C 0.5569(3) 0.4389(6) 0.6552(3)
C2_4 C 0.2261(3) 0.3743(6) 0.9646(3)
C3_4 C 0.3378(4) 0.7500 0.8188(5)
C4_4 C 0.2516(3) 0.3337(5) 0.6996(3)
H1_4 H 0.2632 0.3894 0.7097
C5_4 C 0.5155(4) 0.7500 0.5023(4)
C6_4 C 0.5989(3) 0.5782(6) 0.5500(3)
C7_4 C 0.2915(3) 0.6671(5) 0.7648(3)
H2_4 H 0.2809 0.6118 0.7532
C8_4 C 0.2579(3) 0.3763(6) 0.9321(3)
H3_4 H 0.2484 0.3767 0.9023
C10_4 C 0.3042(3) 0.3778(5) 0.9405(3)
C11_4 C 0.2758(4) 0.7500 0.7470(4)
C13_4 C 0.3231(3) 0.6660(5) 0.7998(3)
C14_4 C 0.5003(3) 0.4459(6) 0.7175(3)
H5_4 H 0.4787 0.4218 0.6982
C15_4 C 0.3058(4) 0.2500 0.7502(4)
C16_4 C 0.1957(3) 0.4207(7) 0.6539(4)
C17_4 C 0.3408(3) 0.5774(5) 0.8176(3)
C19_4 C 0.3165(3) 0.3783(5) 0.9851(3)
H6_4 H 0.3469 0.3799 0.9924
C20_4 C 0.2703(4) 0.2500 0.7152(4)
C21_4 C 0.2401(4) 0.7500 0.7118(4)
C22_4 C 0.3377(3) 0.3778(5) 0.9026(3)
C23_4 C 0.1780(3) 0.3749(5) 0.9508(3)
C24_4 C 0.4720(4) 0.7500 0.4784(4)
C25_4 C 0.4897(3) 0.4634(6) 0.7624(3)
C26_4 C 0.5773(3) 0.6668(6) 0.5359(3)
C27_4 C 0.4447(3) 0.4368(6) 0.7801(3)
C28_4 C 0.5436(3) 0.4647(6) 0.7015(3)
C29_4 C 0.1993(4) 0.2500 0.6538(5)
H7_4 H 0.1762 0.2500 0.6327
C30_4 C 0.6006(3) 0.5607(6) 0.8049(3)
C31_4 C 0.5356(3) 0.6677(6) 0.5139(3)
H8_4 H 0.5214 0.6125 0.5070
C32_4 C 0.5642(3) 0.5215(6) 0.7752(3)
C33_4 C 0.5976(5) 0.7500 0.5463(5)
H9_4 H 0.6254 0.7500 0.5606
C34_4 C 0.2165(3) 0.3335(6) 0.6695(3)
C35_4 C 0.5749(3) 0.5020(6) 0.7307(3)
H10_4 H 0.6038 0.5142 0.7203
C36_4 C 0.5215(3) 0.5006(6) 0.7910(3)
H11_4 H 0.5142 0.5117 0.8209
O25_4 O 0.2128(3) 0.0059(4) 0.6668(3)
O26_4 O 0.6376(3) 0.9230(5) 0.5640(3)
O27_4 O 0.0941(3) 0.5688(5) 0.6545(3)
O30_4 O 0.1375(2) 0.5821(5) 0.7129(3)
O32_4 O 0.0978(2) 0.4513(5) 0.8559(2)
O33_4 O 0.3389(2) 0.9905(4) 0.7915(2)
O41_4 O 0.0300(2) 0.4049(5) 0.8722(2)
O46_2 O 0.2267(2) 0.8265(4) 0.6980(2)
O55_4 O 0.64668(19) 0.3632(5) 0.5204(2)
O56_4 O 0.1605(4) 0.0805(7) 0.6324(4)
O57_4 O 0.6681(2) 0.3865(4) 0.5905(2)
O60_4 O 0.8777(2) 0.3844(5) 0.5903(2)
O61_4 O 0.3574(3) 0.9253(5) 0.8561(2)
C37_4 C 0.0569(3) 0.4389(6) 0.8448(3)
C38_4 C 0.7261(3) 0.3743(6) 0.5354(3)
C39_4 C 0.2516(3) 0.1663(5) 0.6996(3)
H12_4 H 0.2632 0.1106 0.7097
C40_4 C 0.5989(3) 0.9218(6) 0.5500(3)
C41_4 C 0.2915(3) 0.8329(5) 0.7648(3)
H13_4 H 0.2809 0.8882 0.7532
C42_4 C 0.7579(3) 0.3763(6) 0.5679(3)
H14_4 H 0.7484 0.3767 0.5977
C43_4 C 0.7402(3) 0.3718(6) 0.4916(3)
H15_4 H 0.7188 0.3665 0.4690
C44_4 C 0.8042(3) 0.3778(5) 0.5595(3)
C45_4 C 0.7996(3) 0.3768(6) 0.4317(3)
C46_4 C 0.3231(3) 0.8340(5) 0.7998(3)
C47_4 C 0.0003(3) 0.4459(6) 0.7825(3)
C48_4 C 0.1957(3) 0.0793(7) 0.6539(4)
C49_4 C 0.3408(3) 0.9226(5) 0.8176(3)
C50_4 C 0.7846(3) 0.3767(5) 0.4799(3)
C51_4 C 0.8165(3) 0.3783(5) 0.5149(3)
H17_4 H 0.8469 0.3799 0.5076
C52_4 C 0.8377(3) 0.3778(5) 0.5974(3)
C53_4 C 0.6780(3) 0.3749(5) 0.5492(3)
C55_4 C 0.5773(3) 0.8332(6) 0.5359(3)
C57_4 C 0.0436(3) 0.4647(6) 0.7985(3)
C58_4 C 0.1006(3) 0.5607(6) 0.6951(3)
C59_4 C 0.5356(3) 0.8323(6) 0.5139(3)
H18_4 H 0.5214 0.8875 0.5070
C60_4 C 0.0642(3) 0.5215(6) 0.7248(3)
C61_4 C 0.2165(3) 0.1665(6) 0.6695(3)
C62_4 C 0.0749(3) 0.5020(6) 0.7693(3)
H19_4 H 0.1038 0.5142 0.7797
C63_4 C 0.0215(3) 0.5006(6) 0.7090(3)
H20_4 H 0.0142 0.5117 0.6791
H21_4 H 0.360203 0.75 0.847756
H16_4 H 0.9787 0.4218 0.8018
C54_4 C 0.9897(3) 0.4634(6) 0.7376(3)
C56_4 C 0.9447(3) 0.4368(6) 0.7199(3)
N1 N 0.8128(6) 0.0635(14) 0.1439(6)
C64 C 0.7960(12) 0.013(3) 0.1813(12)
H25 H 0.790598 0.113699 0.135535
H26 H 0.842749 0.0923964 0.152124
H27 H 0.817036 0.0204229 0.117366
H48 H 0.791455 0.0592177 0.209769
H46 H 0.763868 0.981997 0.172476
H47 H 0.819821 0.959142 0.190274
H46_2 H 0.736132 0.0180032 0.672476
H47_2 H 0.680179 0.0408583 0.690274
N1_2 N 0.6872(6) 0.9365(14) 0.6439(6)
C64_2 C 0.7040(12) 0.987(3) 0.6813(12)
H25_2 H 0.709402 0.886301 0.635535
H26_2 H 0.657251 0.907604 0.652124
H27_2 H 0.682964 0.979577 0.617366
H48_2 H 0.708545 0.940782 0.709769
N1_3 N 0.1872(6) 0.5635(14) 0.8561(6)
C64_3 C 0.2040(12) 0.513(3) 0.8187(12)
H25_3 H 0.209402 0.613699 0.864465
H26_3 H 0.157251 0.592396 0.847876
H27_3 H 0.182964 0.520423 0.882634
H46_3 H 0.236132 0.481997 0.827524
H47_3 H 0.180179 0.459142 0.809726
H48_3 H 0.208545 0.559218 0.790231
N1_4 N 0.3128(6) 0.4365(14) 0.3561(6)
C64_4 C 0.2960(12) 0.487(3) 0.3187(12)
H25_4 H 0.290598 0.386301 0.364465
H26_4 H 0.342749 0.407604 0.347876
H27_4 H 0.317036 0.479577 0.382634
H46_4 H 0.263868 0.518003 0.327524
H47_4 H 0.319821 0.540858 0.309726
H48_4 H 0.291455 0.440782 0.290231
H46_5 H 0.236132 0.0180032 0.827524
H47_5 H 0.180179 0.0408583 0.809726
N1_5 N 0.1872(6) 0.9365(14) 0.8561(6)
C64_5 C 0.2040(12) 0.987(3) 0.8187(12)
H25_5 H 0.209402 0.886301 0.864465
H26_5 H 0.157251 0.907604 0.847876
H27_5 H 0.182964 0.979577 0.882634
H48_5 H 0.208545 0.940782 0.790231
N1_6 N 0.3128(6) 0.0635(14) 0.3561(6)
C64_6 C 0.2960(12) 0.013(3) 0.3187(12)
H25_6 H 0.290598 0.113699 0.364465
H26_6 H 0.342749 0.0923964 0.347876
H27_6 H 0.317036 0.0204229 0.382634
H48_6 H 0.291455 0.0592177 0.290231
H46_6 H 0.263868 0.981997 0.327524
H47_6 H 0.319821 0.959142 0.309726
N1_7 N 0.8128(6) 0.4365(14) 0.1439(6)
C64_7 C 0.7960(12) 0.487(3) 0.1813(12)
H25_7 H 0.790598 0.386301 0.135535
H26_7 H 0.842749 0.407604 0.152124
H27_7 H 0.817036 0.479577 0.117366
H46_7 H 0.763868 0.518003 0.172476
H47_7 H 0.819821 0.540858 0.190274
H48_7 H 0.791455 0.440782 0.209769
N1_8 N 0.6872(6) 0.5635(14) 0.6439(6)
C64_8 C 0.7040(12) 0.513(3) 0.6813(12)
H25_8 H 0.709402 0.613699 0.635535
H26_8 H 0.657251 0.592396 0.652124
H27_8 H 0.682964 0.520423 0.617366
H46_8 H 0.736132 0.481997 0.672476
H47_8 H 0.680179 0.459142 0.690274
H48_8 H 0.708545 0.559218 0.709769
N2 N 0.9359(5) 0.9560(11) 0.5893(5)
C65 C 0.9600(17) 0.879(4) 0.6020(17)
H40 H 0.971608 0.842743 0.572129
H41 H 0.988823 0.899896 0.622124
H42 H 0.938567 0.833661 0.621759
H52 H 0.909035 0.936524 0.570543
H53 H 0.925081 0.989793 0.617142
H54 H 0.955877 0.998258 0.570884
N2_2 N 0.5641(5) 0.0440(11) 0.0893(5)
C65_2 C 0.5400(17) 0.121(4) 0.1020(17)
H40_2 H 0.528392 0.157257 0.0721286
H41_2 H 0.511177 0.100104 0.122124
H42_2 H 0.561433 0.166339 0.121759
H52_2 H 0.590965 0.0634762 0.0705434
H53_2 H 0.574919 0.010207 0.117142
H54_2 H 0.544123 0.0017416 0.0708838
N2_3 N 0.0641(5) 0.4560(11) 0.4107(5)
C65_3 C 0.0400(17) 0.379(4) 0.3980(17)
H40_3 H 0.0283919 0.342743 0.427871
H41_3 H 0.0111766 0.399896 0.377876
H42_3 H 0.0614332 0.333661 0.378241
H52_3 H 0.0909648 0.436524 0.429457
H53_3 H 0.0749193 0.489793 0.382858
H54_3 H 0.0441232 0.498258 0.429116
N2_4 N 0.4359(5) 0.5440(11) 0.9107(5)
C65_4 C 0.4600(17) 0.621(4) 0.8980(17)
H40_4 H 0.471608 0.657257 0.927871
H41_4 H 0.488823 0.600104 0.877876
H42_4 H 0.438567 0.666339 0.878241
H52_4 H 0.409035 0.563476 0.929457
H53_4 H 0.425081 0.510207 0.882858
H54_4 H 0.455877 0.501742 0.929116
N2_5 N 0.0641(5) 0.0440(11) 0.4107(5)
C65_5 C 0.0400(17) 0.121(4) 0.3980(17)
H40_5 H 0.0283919 0.157257 0.427871
H41_5 H 0.0111766 0.100104 0.377876
H42_5 H 0.0614332 0.166339 0.378241
H52_5 H 0.0909648 0.0634762 0.429457
H53_5 H 0.0749193 0.010207 0.382858
H54_5 H 0.0441232 0.0017416 0.429116
N2_6 N 0.4359(5) 0.9560(11) 0.9107(5)
C65_6 C 0.4600(17) 0.879(4) 0.8980(17)
H40_6 H 0.471608 0.842743 0.927871
H41_6 H 0.488823 0.899896 0.877876
H42_6 H 0.438567 0.833661 0.878241
H52_6 H 0.409035 0.936524 0.929457
H53_6 H 0.425081 0.989793 0.882858
H54_6 H 0.455877 0.998258 0.929116
N2_7 N 0.9359(5) 0.5440(11) 0.5893(5)
C65_7 C 0.9600(17) 0.621(4) 0.6020(17)
H40_7 H 0.971608 0.657257 0.572129
H41_7 H 0.988823 0.600104 0.622124
H42_7 H 0.938567 0.666339 0.621759
H52_7 H 0.909035 0.563476 0.570543
H53_7 H 0.925081 0.510207 0.617142
H54_7 H 0.955877 0.501742 0.570884
N2_8 N 0.5641(5) 0.4560(11) 0.0893(5)
C65_8 C 0.5400(17) 0.379(4) 0.1020(17)
H40_8 H 0.528392 0.342743 0.0721286
H41_8 H 0.511177 0.399896 0.122124
H42_8 H 0.561433 0.333661 0.121759
H52_8 H 0.590965 0.436524 0.0705434
H53_8 H 0.574919 0.489793 0.117142
H54_8 H 0.544123 0.498258 0.0708838
N3 N 0.5458(9) 0.7500 0.0912(9)
C66 C 0.5584(19) 0.7500 0.0441(10)
H55 H 0.52326 0.698897 0.0969404
H56 H 0.573534 0.739562 0.110405
H57 H 0.531787 0.811541 0.0992243
H64 H 0.528644 0.761199 0.0234947
H65 H 0.582584 0.804829 0.0379411
H66 H 0.573435 0.683972 0.0354907
H55_2 H 0.52326 0.801103 0.0969404
H56_2 H 0.573534 0.760438 0.110405
H57_2 H 0.531787 0.688459 0.0992243
H64_2 H 0.528644 0.738801 0.0234947
H65_2 H 0.582584 0.695171 0.0379411
H66_2 H 0.573435 0.816028 0.0354907
N3_2 N 0.9542(9) 0.2500 0.5912(9)
C66_2 C 0.9416(19) 0.2500 0.5441(10)
H55_3 H 0.97674 0.301103 0.59694
H56_3 H 0.926466 0.260438 0.610405
H57_3 H 0.968213 0.188459 0.599224
H64_3 H 0.971356 0.238801 0.523495
H65_3 H 0.917416 0.195171 0.537941
H66_3 H 0.926565 0.316028 0.535491
H55_4 H 0.97674 0.198897 0.59694
H56_4 H 0.926466 0.239562 0.610405
H57_4 H 0.968213 0.311541 0.599224
H64_4 H 0.971356 0.261199 0.523495
H65_4 H 0.917416 0.304829 0.537941
H66_4 H 0.926565 0.183972 0.535491
N3_3 N 0.4542(9) 0.2500 0.9088(9)
C66_3 C 0.4416(19) 0.2500 0.9559(10)
H55_5 H 0.47674 0.198897 0.90306
H56_5 H 0.426466 0.239562 0.889595
H57_5 H 0.468213 0.311541 0.900776
H64_5 H 0.471356 0.261199 0.976505
H65_5 H 0.417416 0.304829 0.962059
H66_5 H 0.426565 0.183972 0.964509
H55_6 H 0.47674 0.301103 0.90306
H56_6 H 0.426466 0.260438 0.889595
H57_6 H 0.468213 0.188459 0.900776
H64_6 H 0.471356 0.238801 0.976505
H65_6 H 0.417416 0.195171 0.962059
H66_6 H 0.426565 0.316028 0.964509
N3_4 N 0.0458(9) 0.7500 0.4088(9)
C66_4 C 0.0584(19) 0.7500 0.4559(10)
H55_7 H 0.0232595 0.801103 0.40306
H56_7 H 0.0735337 0.760438 0.389595
H57_7 H 0.0317868 0.688459 0.400776
H64_7 H 0.0286443 0.738801 0.476505
H65_7 H 0.0825838 0.695171 0.462059
H66_7 H 0.0734348 0.816028 0.464509
H55_8 H 0.0232595 0.698897 0.40306
H56_8 H 0.0735337 0.739562 0.389595
H57_8 H 0.0317868 0.811541 0.400776
H64_8 H 0.0286443 0.761199 0.476505
H65_8 H 0.0825838 0.804829 0.462059
H66_8 H 0.0734348 0.683972 0.464509
H34 H 0.835606 0.0558934 0.807661
N4 N 0.8111(7) 0.9533(16) 0.8522(8)
C67 C 0.8460(12) 0.989(3) 0.8205(12)
H35 H 0.877882 0.995979 0.838155
H36 H 0.849927 0.941125 0.792599
H49 H 0.781385 0.946795 0.835745
H50 H 0.820787 0.890952 0.864166
H51 H 0.80744 0.997922 0.878205
N4_2 N 0.6889(7) 0.0467(16) 0.3522(8)
C67_2 C 0.6540(12) 0.011(3) 0.3205(12)
H35_2 H 0.622118 0.00402051 0.338155
H36_2 H 0.650073 0.0588747 0.292599
H49_2 H 0.718615 0.0532052 0.335745
H50_2 H 0.679213 0.109048 0.364166
H51_2 H 0.69256 0.00207848 0.378205
H34_2 H 0.664394 0.944107 0.307661
N4_3 N 0.1889(7) 0.4533(16) 0.1478(8)
C67_3 C 0.1540(12) 0.489(3) 0.1795(12)
H34_3 H 0.164394 0.555893 0.192339
H35_3 H 0.122118 0.495979 0.161845
H36_3 H 0.150073 0.441125 0.207401
H49_3 H 0.218615 0.446795 0.164255
H50_3 H 0.179213 0.390952 0.135834
H51_3 H 0.19256 0.497922 0.121795
N4_4 N 0.3111(7) 0.5467(16) 0.6478(8)
C67_4 C 0.3460(12) 0.511(3) 0.6795(12)
H34_4 H 0.335606 0.444107 0.692339
H35_4 H 0.377882 0.504021 0.661845
H36_4 H 0.349927 0.558875 0.707401
H49_4 H 0.281385 0.553205 0.664255
H50_4 H 0.320787 0.609048 0.635834
H51_4 H 0.30744 0.502078 0.621795
N4_5 N 0.1889(7) 0.0467(16) 0.1478(8)
C67_5 C 0.1540(12) 0.011(3) 0.1795(12)
H35_5 H 0.122118 0.00402051 0.161845
H36_5 H 0.150073 0.0588747 0.207401
H49_5 H 0.218615 0.0532052 0.164255
H50_5 H 0.179213 0.109048 0.135834
H51_5 H 0.19256 0.00207848 0.121795
H34_5 H 0.164394 0.944107 0.192339
H34_6 H 0.335606 0.0558934 0.692339
N4_6 N 0.3111(7) 0.9533(16) 0.6478(8)
C67_6 C 0.3460(12) 0.989(3) 0.6795(12)
H35_6 H 0.377882 0.995979 0.661845
H36_6 H 0.349927 0.941125 0.707401
H49_6 H 0.281385 0.946795 0.664255
H50_6 H 0.320787 0.890952 0.635834
H51_6 H 0.30744 0.997922 0.621795
N4_7 N 0.8111(7) 0.5467(16) 0.8522(8)
C67_7 C 0.8460(12) 0.511(3) 0.8205(12)
H34_7 H 0.835606 0.444107 0.807661
H35_7 H 0.877882 0.504021 0.838155
H36_7 H 0.849927 0.558875 0.792599
H49_7 H 0.781385 0.553205 0.835745
H50_7 H 0.820787 0.609048 0.864166
H51_7 H 0.80744 0.502078 0.878205
N4_8 N 0.6889(7) 0.4533(16) 0.3522(8)
C67_8 C 0.6540(12) 0.489(3) 0.3205(12)
H34_8 H 0.664394 0.555893 0.307661
H35_8 H 0.622118 0.495979 0.338155
H36_8 H 0.650073 0.441125 0.292599
H49_8 H 0.718615 0.446795 0.335745
H50_8 H 0.679213 0.390952 0.364166
H51_8 H 0.69256 0.497922 0.378205
N5 N 0.9100(10) 0.2500 0.2122(18)
C68 C 0.8613(10) 0.2500 0.212(2)
H28 H 0.921447 0.303591 0.193538
H29 H 0.921239 0.256369 0.244274
H30 H 0.921425 0.19004 0.198928
H61 H 0.849242 0.243167 0.177587
H62 H 0.849019 0.192502 0.232022
H63 H 0.849042 0.314332 0.22624
H28_2 H 0.921447 0.196409 0.193538
H29_2 H 0.921239 0.243631 0.244274
H30_2 H 0.921425 0.30996 0.198928
H61_2 H 0.849242 0.256833 0.177587
H62_2 H 0.849019 0.307498 0.232022
H63_2 H 0.849042 0.185668 0.22624
N5_2 N 0.5900(10) 0.7500 0.7122(18)
C68_2 C 0.6387(10) 0.7500 0.712(2)
H28_3 H 0.578553 0.696409 0.693538
H29_3 H 0.578761 0.743631 0.744274
H30_3 H 0.578575 0.80996 0.698928
H61_3 H 0.650758 0.756833 0.677587
H62_3 H 0.650981 0.807498 0.732022
H63_3 H 0.650958 0.685668 0.72624
H28_4 H 0.578553 0.803591 0.693538
H29_4 H 0.578761 0.756369 0.744274
H30_4 H 0.578575 0.69004 0.698928
H61_4 H 0.650758 0.743167 0.677587
H62_4 H 0.650981 0.692502 0.732022
H63_4 H 0.650958 0.814332 0.72624
N5_3 N 0.0900(10) 0.7500 0.7878(18)
C68_3 C 0.1387(10) 0.7500 0.788(2)
H28_5 H 0.0785531 0.803591 0.806462
H29_5 H 0.0787612 0.756369 0.755726
H30_5 H 0.0785752 0.69004 0.801072
H61_5 H 0.150758 0.743167 0.822413
H62_5 H 0.150981 0.692502 0.767978
H63_5 H 0.150958 0.814332 0.77376
H28_6 H 0.0785531 0.696409 0.806462
H29_6 H 0.0787612 0.743631 0.755726
H30_6 H 0.0785752 0.80996 0.801072
H61_6 H 0.150758 0.756833 0.822413
H62_6 H 0.150981 0.807498 0.767978
H63_6 H 0.150958 0.685668 0.77376
N5_4 N 0.4100(10) 0.2500 0.2878(18)
C68_4 C 0.3613(10) 0.2500 0.288(2)
H28_7 H 0.421447 0.196409 0.306462
H29_7 H 0.421239 0.243631 0.255726
H30_7 H 0.421425 0.30996 0.301072
H61_7 H 0.349242 0.256833 0.322413
H62_7 H 0.349019 0.307498 0.267978
H63_7 H 0.349042 0.185668 0.27376
H28_8 H 0.421447 0.303591 0.306462
H29_8 H 0.421239 0.256369 0.255726
H30_8 H 0.421425 0.19004 0.301072
H61_8 H 0.349242 0.243167 0.322413
H62_8 H 0.349019 0.192502 0.267978
H63_8 H 0.349042 0.314332 0.27376
N6 N 0.5071(7) 0.091(2) 0.9184(10)
C69 C 0.5546(8) 0.072(3) 0.9124(15)
H22 H 0.48887 0.035806 0.908148
H23 H 0.500785 0.103564 0.951374
H24 H 0.498421 0.146919 0.899875
H31 H 0.561376 0.0585195 0.877022
H32 H 0.574159 0.131218 0.923399
H33 H 0.563912 0.0120039 0.932276
H22_2 H 0.0111302 0.964194 0.408148
H24_2 H 0.00157877 0.853081 0.399875
N6_2 N 0.9929(7) 0.909(2) 0.4184(10)
C69_2 C 0.9454(8) 0.928(3) 0.4124(15)
H23_2 H 0.999215 0.896436 0.451374
H31_2 H 0.938624 0.94148 0.377022
H32_2 H 0.925841 0.868782 0.423399
H33_2 H 0.936088 0.987996 0.432276
N6_3 N 0.4929(7) 0.591(2) 0.0816(10)
C69_3 C 0.4454(8) 0.572(3) 0.0876(15)
H22_3 H 0.51113 0.535806 0.091852
H23_3 H 0.499215 0.603564 0.048626
H24_3 H 0.501579 0.646919 0.100125
H31_3 H 0.438624 0.55852 0.122978
H32_3 H 0.425841 0.631218 0.0766006
H33_3 H 0.436088 0.512004 0.0677241
N6_4 N 0.0071(7) 0.409(2) 0.5816(10)
C69_4 C 0.0546(8) 0.428(3) 0.5876(15)
H23_4 H 0.000784757 0.396436 0.548626
H31_4 H 0.0613757 0.44148 0.622978
H32_4 H 0.0741593 0.368782 0.576601
H33_4 H 0.0639115 0.487996 0.567724
H22_4 H 0.98887 0.464194 0.591852
H24_4 H 0.998421 0.353081 0.600125
N6_5 N 0.4929(7) 0.909(2) 0.0816(10)
C69_5 C 0.4454(8) 0.928(3) 0.0876(15)
H22_5 H 0.51113 0.964194 0.091852
H23_5 H 0.499215 0.896436 0.048626
H24_5 H 0.501579 0.853081 0.100125
H31_5 H 0.438624 0.94148 0.122978
H32_5 H 0.425841 0.868782 0.0766006
H33_5 H 0.436088 0.987996 0.0677241
N6_6 N 0.0071(7) 0.091(2) 0.5816(10)
C69_6 C 0.0546(8) 0.072(3) 0.5876(15)
H23_6 H 0.000784757 0.103564 0.548626
H31_6 H 0.0613757 0.0585195 0.622978
H32_6 H 0.0741593 0.131218 0.576601
H33_6 H 0.0639115 0.0120039 0.567724
H22_6 H 0.98887 0.035806 0.591852
H24_6 H 0.998421 0.146919 0.600125
N6_7 N 0.5071(7) 0.409(2) 0.9184(10)
C69_7 C 0.5546(8) 0.428(3) 0.9124(15)
H22_7 H 0.48887 0.464194 0.908148
H23_7 H 0.500785 0.396436 0.951374
H24_7 H 0.498421 0.353081 0.899875
H31_7 H 0.561376 0.44148 0.877022
H32_7 H 0.574159 0.368782 0.923399
H33_7 H 0.563912 0.487996 0.932276
H22_8 H 0.0111302 0.535806 0.408148
H24_8 H 0.00157877 0.646919 0.399875
N6_8 N 0.9929(7) 0.591(2) 0.4184(10)
C69_8 C 0.9454(8) 0.572(3) 0.4124(15)
H23_8 H 0.999215 0.603564 0.451374
H31_8 H 0.938624 0.55852 0.377022
H32_8 H 0.925841 0.631218 0.423399
H33_8 H 0.936088 0.512004 0.432276
C70 C 0.7449(14) 0.127(6) 0.003(3)
H59 H 0.808717 0.147814 0.0247938
H68 H 0.7415 0.0608083 0.0198432
H69 H 0.730703 0.180878 0.024127
N7 N 0.7921(12) 0.146(6) 0.995(2)
H58 H 0.795269 0.207694 0.979301
H60 H 0.805332 0.095783 0.975309
H67 H 0.727072 0.125054 0.971034
N7_2 N 0.7079(12) 0.854(6) 0.495(2)
C70_2 C 0.7551(14) 0.873(6) 0.503(3)
H58_2 H 0.704731 0.792306 0.479301
H59_2 H 0.691283 0.852186 0.524794
H60_2 H 0.694668 0.904217 0.475309
H67_2 H 0.772928 0.874946 0.471034
H68_2 H 0.7585 0.939192 0.519843
H69_2 H 0.769297 0.819122 0.524127
N7_3 N 0.2079(12) 0.646(6) 0.005(2)
H58_3 H 0.204731 0.707694 0.0206987
H60_3 H 0.194668 0.595783 0.0246914
H67_3 H 0.272928 0.625054 0.028966
C70_3 C 0.2551(14) 0.627(6) 0.997(3)
H59_3 H 0.191283 0.647814 0.975206
H68_3 H 0.2585 0.560808 0.980157
H69_3 H 0.269297 0.680878 0.975873
N7_4 N 0.2921(12) 0.354(6) 0.505(2)
C70_4 C 0.2449(14) 0.373(6) 0.497(3)
H58_4 H 0.295269 0.292306 0.520699
H59_4 H 0.308717 0.352186 0.475206
H60_4 H 0.305332 0.404217 0.524691
H67_4 H 0.227072 0.374946 0.528966
H68_4 H 0.2415 0.439192 0.480157
H69_4 H 0.230703 0.319122 0.475873
N7_5 N 0.2079(12) 0.854(6) 0.005(2)
H58_5 H 0.204731 0.792306 0.0206987
H60_5 H 0.194668 0.904217 0.0246914
H67_5 H 0.272928 0.874946 0.028966
C70_5 C 0.2551(14) 0.873(6) 0.997(3)
H59_5 H 0.191283 0.852186 0.975206
H68_5 H 0.2585 0.939192 0.980157
H69_5 H 0.269297 0.819122 0.975873
N7_6 N 0.2921(12) 0.146(6) 0.505(2)
C70_6 C 0.2449(14) 0.127(6) 0.497(3)
H58_6 H 0.295269 0.207694 0.520699
H59_6 H 0.308717 0.147814 0.475206
H60_6 H 0.305332 0.095783 0.524691
H67_6 H 0.227072 0.125054 0.528966
H68_6 H 0.2415 0.0608083 0.480157
H69_6 H 0.230703 0.180878 0.475873
C70_7 C 0.7449(14) 0.373(6) 0.003(3)
H59_7 H 0.808717 0.352186 0.0247938
H68_7 H 0.7415 0.439192 0.0198432
H69_7 H 0.730703 0.319122 0.024127
N7_7 N 0.7921(12) 0.354(6) 0.995(2)
H58_7 H 0.795269 0.292306 0.979301
H60_7 H 0.805332 0.404217 0.975309
H67_7 H 0.727072 0.374946 0.971034
N7_8 N 0.7079(12) 0.646(6) 0.495(2)
C70_8 C 0.7551(14) 0.627(6) 0.503(3)
H58_8 H 0.704731 0.707694 0.479301
H59_8 H 0.691283 0.647814 0.524794
H60_8 H 0.694668 0.595783 0.475309
H67_8 H 0.772928 0.625054 0.471034
H68_8 H 0.7585 0.560808 0.519843
H69_8 H 0.769297 0.680878 0.524127
N8 N 0.0463(8) 0.0327(17) 0.0868(10)
C71 C 0.0263(19) 0.109(3) 0.111(2)
H37 H 0.0544368 0.0531881 0.0552022
H38 H 0.0744514 0.011573 0.103077
H44 H 0.0175699 0.0870181 0.144902
H45 H 0.0502076 0.16564 0.112744
H39 H 0.024017 0.979909 0.0851744
H43 H 0.996096 0.131667 0.0935363
H39_2 H 0.475983 0.0200913 0.585174
N8_2 N 0.4537(8) 0.9673(17) 0.5868(10)
C71_2 C 0.4737(19) 0.891(3) 0.611(2)
H37_2 H 0.445563 0.946812 0.555202
H38_2 H 0.425549 0.988427 0.603077
H43_2 H 0.503904 0.868333 0.593536
H44_2 H 0.48243 0.912982 0.644902
H45_2 H 0.449792 0.83436 0.612744
H43_3 H 0.00390387 0.631667 0.906464
N8_3 N 0.9537(8) 0.5327(17) 0.9132(10)
C71_3 C 0.9737(19) 0.609(3) 0.889(2)
H37_3 H 0.945563 0.553188 0.944798
H38_3 H 0.925549 0.511573 0.896923
H39_3 H 0.975983 0.479909 0.914826
H44_3 H 0.98243 0.587018 0.855098
H45_3 H 0.949792 0.66564 0.887256
N8_4 N 0.5463(8) 0.4673(17) 0.4132(10)
C71_4 C 0.5263(19) 0.391(3) 0.389(2)
H37_4 H 0.554437 0.446812 0.444798
H38_4 H 0.574451 0.488427 0.396923
H39_4 H 0.524017 0.520091 0.414826
H43_4 H 0.496096 0.368333 0.406464
H44_4 H 0.51757 0.412982 0.355098
H45_4 H 0.550208 0.33436 0.387256
H43_5 H 0.00390387 0.868333 0.906464
H39_5 H 0.975983 0.0200913 0.914826
N8_5 N 0.9537(8) 0.9673(17) 0.9132(10)
C71_5 C 0.9737(19) 0.891(3) 0.889(2)
H37_5 H 0.945563 0.946812 0.944798
H38_5 H 0.925549 0.988427 0.896923
H44_5 H 0.98243 0.912982 0.855098
H45_5 H 0.949792 0.83436 0.887256
N8_6 N 0.5463(8) 0.0327(17) 0.4132(10)
C71_6 C 0.5263(19) 0.109(3) 0.389(2)
H37_6 H 0.554437 0.0531881 0.444798
H38_6 H 0.574451 0.011573 0.396923
H43_6 H 0.496096 0.131667 0.406464
H44_6 H 0.51757 0.0870181 0.355098
H45_6 H 0.550208 0.16564 0.387256
H39_6 H 0.524017 0.979909 0.414826
N8_7 N 0.0463(8) 0.4673(17) 0.0868(10)
C71_7 C 0.0263(19) 0.391(3) 0.111(2)
H37_7 H 0.0544368 0.446812 0.0552022
H38_7 H 0.0744514 0.488427 0.103077
H39_7 H 0.024017 0.520091 0.0851744
H44_7 H 0.0175699 0.412982 0.144902
H45_7 H 0.0502076 0.33436 0.112744
H43_7 H 0.996096 0.368333 0.0935363
N8_8 N 0.4537(8) 0.5327(17) 0.5868(10)
C71_8 C 0.4737(19) 0.609(3) 0.611(2)
H37_8 H 0.445563 0.553188 0.555202
H38_8 H 0.425549 0.511573 0.603077
H39_8 H 0.475983 0.479909 0.585174
H43_8 H 0.503904 0.631667 0.593536
H44_8 H 0.48243 0.587018 0.644902
H45_8 H 0.449792 0.66564 0.612744
loop_
_geom_bond_atom_site_label_1
_geom_bond_atom_site_label_2
_geom_bond_site_symmetry_1
_geom_bond_site_symmetry_2
In17 O37 1_555 1_555
O37 C45 1_555 1_555
O42 In17 1_555 1_555
H15 C43 1_555 1_555
C45 O42 1_555 1_555
C50 C43 1_555 1_555
C45 C50 1_555 1_555
O6 In2 1_555 1_555
O9 In2 1_555 1_555
O12 In2 1_555 1_555
C1 O6 1_555 1_555
C28 C1 1_555 1_555
In6 O58 1_555 1_555
In9 O9 1_555 1_555
O53 In2 1_555 1_555
O55 In2 1_555 1_555
O57 In2 1_555 1_555
O58 C52 1_555 1_555
O60 C52 1_555 1_555
C38 C42 1_555 1_555
C42 H14 1_555 1_555
C44 C42 1_555 1_555
C51 C44 1_555 1_555
H17 C51 1_555 1_555
C52 C44 1_555 1_555
C53 O55 1_555 1_555
O12 C1 1_555 1_555
C14 C28 1_555 1_555
O57 C53 1_555 1_555
C38 C53 1_555 1_555
O2 C6 1_555 1_555
O3 C30 1_555 1_555
O4 C6 1_555 1_555
O5 C30 1_555 1_555
C6 C26 1_555 1_555
C26 C31 1_555 1_555
C30 C32 1_555 1_555
C31 C5 1_555 1_555
H8 C31 1_555 1_555
C32 C35 1_555 1_555
C33 C26 1_555 1_555
H9 C33 1_555 1_555
H10 C35 1_555 1_555
H11 C36 1_555 1_555
In9 O28 1_555 1_555
In14 O5 1_555 1_555
O26 C40 1_555 1_555
O28 C40 1_555 1_555
C40 C55 1_555 1_555
C55 C33 1_555 1_555
C59 C5 1_555 1_555
H18 C59 1_555 1_555
C32 C36 1_555 1_555
C55 C59 1_555 1_555
O1 C16 1_555 1_555
O8 In1 1_555 1_555
O10 C12 1_555 1_555
O11 In1 1_555 1_555
O13 C12 1_555 1_555
O16 In1 1_555 1_555
O17 In1 1_555 1_555
O19 C23 1_555 1_555
O20 C16 1_555 1_555
O21 C23 1_555 1_555
O22 In1 1_555 1_555
O23 C22 1_555 1_555
C2 C8 1_555 1_555
C4 H1 1_555 1_555
C8 H3 1_555 1_555
C9 C2 1_555 1_555
H4 C9 1_555 1_555
C10 C8 1_555 1_555
C12 C18 1_555 1_555
C15 O17 1_555 1_555
C16 C34 1_555 1_555
C18 C9 1_555 1_555
C19 C10 1_555 1_555
H6 C19 1_555 1_555
C20 C4 1_555 1_555
C22 O22 1_555 1_555
C23 C2 1_555 1_555
C27 O8 1_555 1_555
C29 H7 1_555 1_555
C34 C4 1_555 1_555
In5 O11 1_555 1_555
In6 O34 1_555 1_555
In8 O19 1_555 1_555
In13 O25 1_555 1_555
In15 O10 1_555 1_555
O25 C48 1_555 1_555
O31 In13 1_555 1_555
O32 In8 1_555 1_555
O34 C56 1_555 1_555
O36 In8 1_555 1_555
O39 In13 1_555 1_555
O41 In8 1_555 1_555
O44 In13 1_555 1_555
O45 In13 1_555 1_555
O47 In13 1_555 1_555
O48 In6 1_555 1_555
O50 C15 1_555 1_555
O54 In8 1_555 1_555
O56 C48 1_555 1_555
C37 O32 1_555 1_555
C39 C20 1_555 1_555
H12 C39 1_555 1_555
C47 H16 1_555 1_555
C48 C61 1_555 1_555
C54 C47 1_555 1_555
C56 O48 1_555 1_555
C57 C37 1_555 1_555
C61 C29 1_555 1_555
O13 In15 1_555 1_555
O16 C27 1_555 1_555
O21 In8 1_555 1_555
C10 C22 1_555 1_555
C15 C20 1_555 1_555
C18 C19 1_555 1_555
C25 C27 1_555 1_555
C29 C34 1_555 1_555
In5 O50 1_555 1_555
O41 C37 1_555 1_555
C39 C61 1_555 1_555
C47 C57 1_555 1_555
C54 C56 1_555 1_555
O18 C24 1_555 1_555
C24 O52 1_555 1_555
In10 O18 1_555 1_555
In11 O52 1_555 1_555
O7 C17 1_555 1_555
O45 In3 1_555 1_555
O15 In3 1_555 1_555
O24 C17 1_555 1_555
C3 C13 1_555 1_555
C7 H2 1_555 1_555
C11 C7 1_555 1_555
C13 C7 1_555 1_555
C17 C13 1_555 1_555
C21 O15 1_555 1_555
In5 O33 1_555 1_555
O27 C58 1_555 1_555
O30 In3 1_555 1_555
O33 C49 1_555 1_555
O35 In5 1_555 1_555
O38 In3 1_555 1_555
O43 In3 1_555 1_555
O47 C21 1_555 1_555
O49 In5 1_555 1_555
O59 In5 1_555 1_555
O61 C49 1_555 1_555
C41 C11 1_555 1_555
H13 C41 1_555 1_555
C46 C3 1_555 1_555
C49 C46 1_555 1_555
C58 O30 1_555 1_555
C60 C58 1_555 1_555
H19 C62 1_555 1_555
H20 C63 1_555 1_555
C11 C21 1_555 1_555
C41 C46 1_555 1_555
C60 C62 1_555 1_555
C60 C63 1_555 1_555
C3 H21 1_555 1_555
In7 O34_2 1_555 1_555
O34_2 C56_2 1_555 1_555
O48_2 In7 1_555 1_555
C56_2 O48_2 1_555 1_555
C54_2 C56_2 1_555 1_555
O2_2 C6_2 1_555 1_555
O3_2 C30_2 1_555 1_555
O4_2 C6_2 1_555 1_555
O5_2 C30_2 1_555 1_555
O7_2 C17_2 1_555 1_555
O14 In15 1_555 1_555
O15_2 In15 1_555 1_555
O54 C24_2 1_555 1_555
O24_2 C17_2 1_555 1_555
C3_2 C13_2 1_555 1_555
C5_2 C24_2 1_555 1_555
C6_2 C26_2 1_555 1_555
C7_2 H2_2 1_555 1_555
C11_2 C7_2 1_555 1_555
C13_2 C7_2 1_555 1_555
C17_2 C13_2 1_555 1_555
C21_2 O15_2 1_555 1_555
C24_2 O52_2 1_555 1_555
C26_2 C31_2 1_555 1_555
C30_2 C32_2 1_555 1_555
C31_2 C5_2 1_555 1_555
H8_2 C31_2 1_555 1_555
C32_2 C35_2 1_555 1_555
C33_2 C26_2 1_555 1_555
H9_2 C33_2 1_555 1_555
H10_2 C35_2 1_555 1_555
H11_2 C36_2 1_555 1_555
In4 O33_2 1_555 1_555
In11_2 O52_2 1_555 1_555
In12 O28_2 1_555 1_555
In17 O5_2 1_555 1_555
In16 O14 1_555 1_555
O26_2 C40_2 1_555 1_555
O27_2 C58_2 1_555 1_555
O28_2 C40_2 1_555 1_555
O30_2 In15 1_555 1_555
O33_2 C49_2 1_555 1_555
O35_2 In4 1_555 1_555
O40 In4 1_555 1_555
O46 C21_2 1_555 1_555
O49_2 In4 1_555 1_555
O51 In4 1_555 1_555
O59_2 In4 1_555 1_555
O61_2 C49_2 1_555 1_555
C40_2 C55_2 1_555 1_555
C41_2 C11_2 1_555 1_555
H13_2 C41_2 1_555 1_555
C46_2 C3_2 1_555 1_555
C49_2 C46_2 1_555 1_555
C55_2 C33_2 1_555 1_555
C58_2 O30_2 1_555 1_555
C59_2 C5_2 1_555 1_555
H18_2 C59_2 1_555 1_555
C60_2 C58_2 1_555 1_555
H19_2 C62_2 1_555 1_555
H20_2 C63_2 1_555 1_555
C11_2 C21_2 1_555 1_555
C32_2 C36_2 1_555 1_555
In16 O46 1_555 1_555
C41_2 C46_2 1_555 1_555
C55_2 C59_2 1_555 1_555
C60_2 C62_2 1_555 1_555
C60_2 C63_2 1_555 1_555
C3_2 H21_2 1_555 1_555
O1_2 C16_2 1_555 1_555
O6_2 In2_2 1_555 1_555
O8_2 In1_2 1_555 1_555
O9_2 In2_2 1_555 1_555
O40 In1_2 1_555 1_555
O12_2 In2_2 1_555 1_555
O16_2 In1_2 1_555 1_555
O17_2 In1_2 1_555 1_555
O19_2 C23_2 1_555 1_555
O20_2 C16_2 1_555 1_555
O21_2 C23_2 1_555 1_555
O22_2 In1_2 1_555 1_555
O23_2 C22_2 1_555 1_555
C1_2 O6_2 1_555 1_555
C2_2 C8_2 1_555 1_555
C4_2 H1_2 1_555 1_555
C8_2 H3_2 1_555 1_555
C10_2 C8_2 1_555 1_555
C14_2 H5_2 1_555 1_555
C15_2 O17_2 1_555 1_555
C16_2 C34_2 1_555 1_555
C19_2 C10_2 1_555 1_555
H6_2 C19_2 1_555 1_555
C20_2 C4_2 1_555 1_555
C22_2 O22_2 1_555 1_555
C23_2 C2_2 1_555 1_555
C25_2 C14_2 1_555 1_555
C27_2 O8_2 1_555 1_555
C28_2 C1_2 1_555 1_555
C29_2 H7_2 1_555 1_555
C34_2 C4_2 1_555 1_555
In7 O58_2 1_555 1_555
In10 O19_2 1_555 1_555
In12 O9_2 1_555 1_555
In16 O25_2 1_555 1_555
In14 O37_2 1_555 1_555
O25_2 C48_2 1_555 1_555
O31_2 In16 1_555 1_555
O32_2 In10 1_555 1_555
O36_2 In10 1_555 1_555
O37_2 C45_2 1_555 1_555
O39_2 In16 1_555 1_555
O41_2 In10 1_555 1_555
O42_2 In14 1_555 1_555
O44_2 In16 1_555 1_555
O51 C15_2 1_555 1_555
O53_2 In2_2 1_555 1_555
O55_2 In2_2 1_555 1_555
O56_2 C48_2 1_555 1_555
O57_2 In2_2 1_555 1_555
O58_2 C52_2 1_555 1_555
O60_2 C52_2 1_555 1_555
C37_2 O32_2 1_555 1_555
C38_2 C42_2 1_555 1_555
C39_2 C20_2 1_555 1_555
H12_2 C39_2 1_555 1_555
C42_2 H14_2 1_555 1_555
C43_2 C38_2 1_555 1_555
H15_2 C43_2 1_555 1_555
C44_2 C42_2 1_555 1_555
C45_2 O42_2 1_555 1_555
C48_2 C61_2 1_555 1_555
C50_2 C43_2 1_555 1_555
C51_2 C44_2 1_555 1_555
H17_2 C51_2 1_555 1_555
C52_2 C44_2 1_555 1_555
C53_2 O55_2 1_555 1_555
C57_2 C37_2 1_555 1_555
C61_2 C29_2 1_555 1_555
O12_2 C1_2 1_555 1_555
O16_2 C27_2 1_555 1_555
O21_2 In10 1_555 1_555
C10_2 C22_2 1_555 1_555
C14_2 C28_2 1_555 1_555
C15_2 C20_2 1_555 1_555
C25_2 C27_2 1_555 1_555
C29_2 C34_2 1_555 1_555
O41_2 C37_2 1_555 1_555
O57_2 C53_2 1_555 1_555
C38_2 C53_2 1_555 1_555
C39_2 C61_2 1_555 1_555
C45_2 C50_2 1_555 1_555
C47_2 C57_2 1_555 1_555
C50_2 C51_2 1_555 1_555
O38 C12_2 1_555 1_555
O43 C12_2 1_555 1_555
H4_2 C9_2 1_555 1_555
C12_2 C18_2 1_555 1_555
C18_2 C9_2 1_555 1_555
O45_2 In17 1_555 1_555
O47_2 In17 1_555 1_555
In1_3 O7_3 1_555 1_555
In3_2 O1_3 1_555 1_555
O1_3 C16_3 1_555 1_555
O7_3 C17_3 1_555 1_555
O8_3 In1_3 1_555 1_555
O10_2 C12_3 1_555 1_555
O11_2 In1_3 1_555 1_555
O13_2 C12_3 1_555 1_555
O45_2 In3_2 1_555 1_555
O15_3 In3_2 1_555 1_555
O16_3 In1_3 1_555 1_555
O17_3 In1_3 1_555 1_555
O19_3 C23_3 1_555 1_555
O20_3 C16_3 1_555 1_555
O21_3 C23_3 1_555 1_555
O22_3 In1_3 1_555 1_555
O23_3 C22_3 1_555 1_555
O24_3 C17_3 1_555 1_555
C2_3 C8_3 1_555 1_555
C3_3 C13_3 1_555 1_555
C4_3 H1_3 1_555 1_555
C7_3 H2_3 1_555 1_555
C8_3 H3_3 1_555 1_555
C9_3 C2_3 1_555 1_555
H4_3 C9_3 1_555 1_555
C10_3 C8_3 1_555 1_555
C11_3 C7_3 1_555 1_555
C12_3 C18_3 1_555 1_555
C13_3 C7_3 1_555 1_555
C15_3 O17_3 1_555 1_555
C16_3 C34_3 1_555 1_555
C17_3 C13_3 1_555 1_555
C18_3 C9_3 1_555 1_555
C19_3 C10_3 1_555 1_555
H6_3 C19_3 1_555 1_555
C20_3 C4_3 1_555 1_555
C21_3 O15_3 1_555 1_555
C22_3 O22_3 1_555 1_555
C23_3 C2_3 1_555 1_555
C27_3 O8_3 1_555 1_555
C29_3 H7_3 1_555 1_555
C34_3 C4_3 1_555 1_555
In7 O11_2 1_555 1_555
In12 O19_3 1_555 1_555
In15_2 O10_2 1_555 1_555
O25_3 C48_3 1_555 1_555
O27_3 C58_3 1_555 1_555
O30_3 In3_2 1_555 1_555
O32_3 In12 1_555 1_555
O33_3 C49_3 1_555 1_555
O35_2 C56_3 1_555 1_555
O38_2 In3_2 1_555 1_555
O41_3 In12 1_555 1_555
O43_2 In3_2 1_555 1_555
O47_2 C21_3 1_555 1_555
O50_2 C15_3 1_555 1_555
O54_2 In12 1_555 1_555
O56_3 C48_3 1_555 1_555
O61_3 C49_3 1_555 1_555
C37_3 O32_3 1_555 1_555
C39_3 C20_3 1_555 1_555
H12_3 C39_3 1_555 1_555
C41_3 C11_3 1_555 1_555
H13_3 C41_3 1_555 1_555
C46_3 C3_3 1_555 1_555
C47_3 H16_3 1_555 1_555
C48_3 C61_3 1_555 1_555
C49_3 C46_3 1_555 1_555
C54_3 C47_3 1_555 1_555
C56_3 O49_2 1_555 1_555
C57_3 C37_3 1_555 1_555
C58_3 O30_3 1_555 1_555
C60_3 C58_3 1_555 1_555
C61_3 C29_3 1_555 1_555
C62_3 C57_3 1_555 1_555
H19_3 C62_3 1_555 1_555
C63_3 C54_3 1_555 1_555
H20_3 C63_3 1_555 1_555
O13_2 In15_2 1_555 1_555
O16_3 C27_3 1_555 1_555
O21_3 In12 1_555 1_555
C10_3 C22_3 1_555 1_555
C11_3 C21_3 1_555 1_555
C15_3 C20_3 1_555 1_555
C18_3 C19_3 1_555 1_555
C25_3 C27_3 1_555 1_555
C29_3 C34_3 1_555 1_555
In7 O50_2 1_555 1_555
O41_3 C37_3 1_555 1_555
C39_3 C61_3 1_555 1_555
C41_3 C46_3 1_555 1_555
C47_3 C57_3 1_555 1_555
C54_3 C56_3 1_555 1_555
C60_3 C62_3 1_555 1_555
C60_3 C63_3 1_555 1_555
C3_3 H21_3 1_555 1_555
O18_2 C24_3 1_555 1_555
C24_3 O53 1_555 1_555
In9 O18_2 1_555 1_555
In11 O4_3 1_555 1_555
O2_3 C6_3 1_555 1_555
O3_3 C30_3 1_555 1_555
O4_3 C6_3 1_555 1_555
O31_2 C30_3 1_555 1_555
O6_3 In11 1_555 1_555
O36_2 In11 1_555 1_555
O12_3 In11 1_555 1_555
C1_3 O6_3 1_555 1_555
C6_3 C26_3 1_555 1_555
C26_3 C31_3 1_555 1_555
C28_3 C1_3 1_555 1_555
C30_3 C32_3 1_555 1_555
C31_3 C5_3 1_555 1_555
H8_3 C31_3 1_555 1_555
C32_3 C35_3 1_555 1_555
C33_3 C26_3 1_555 1_555
H9_3 C33_3 1_555 1_555
C35_3 C28_3 1_555 1_555
H10_3 C35_3 1_555 1_555
H11_3 C36_3 1_555 1_555
O26_3 C40_3 1_555 1_555
O29_2 C40_3 1_555 1_555
O55_3 In11 1_555 1_555
O57_3 In11 1_555 1_555
O59_2 C52_3 1_555 1_555
O60_3 C52_3 1_555 1_555
C38_3 C42_3 1_555 1_555
C40_3 C55_3 1_555 1_555
C42_3 H14_3 1_555 1_555
C44_3 C42_3 1_555 1_555
C51_3 C44_3 1_555 1_555
H17_3 C51_3 1_555 1_555
C52_3 C44_3 1_555 1_555
C53_3 O55_3 1_555 1_555
C55_3 C33_3 1_555 1_555
C59_3 C5_3 1_555 1_555
H18_3 C59_3 1_555 1_555
O12_3 C1_3 1_555 1_555
C14_3 C28_3 1_555 1_555
C32_3 C36_3 1_555 1_555
O57_3 C53_3 1_555 1_555
C38_3 C53_3 1_555 1_555
C55_3 C59_3 1_555 1_555
O39 C45_3 1_555 1_555
H15_3 C43_3 1_555 1_555
C45_3 O44 1_555 1_555
C50_3 C43_3 1_555 1_555
C45_3 C50_3 1_555 1_555
O40_2 In6 1_555 1_555
O51_2 In6 1_555 1_555
O38_2 C12_4 1_555 1_555
O43_2 C12_4 1_555 1_555
H4_4 C9_4 1_555 1_555
C12_4 C18_4 1_555 1_555
C18_4 C9_4 1_555 1_555
In1_4 O7_4 1_555 1_555
In11_2 O4_4 1_555 1_555
In15_2 O1_4 1_555 1_555
O1_4 C16_4 1_555 1_555
O2_4 C6_4 1_555 1_555
O3_4 C30_4 1_555 1_555
O4_4 C6_4 1_555 1_555
O31 C30_4 1_555 1_555
O6_4 In11_2 1_555 1_555
O7_4 C17_4 1_555 1_555
O8_4 In1_4 1_555 1_555
O36 In11_2 1_555 1_555
O40_2 In1_4 1_555 1_555
O12_4 In11_2 1_555 1_555
O14_2 In15_2 1_555 1_555
O15_4 In15_2 1_555 1_555
O16_4 In1_4 1_555 1_555
O17_4 In1_4 1_555 1_555
O54_2 C24_4 1_555 1_555
O19_4 C23_4 1_555 1_555
O20_4 C16_4 1_555 1_555
O21_4 C23_4 1_555 1_555
O22_4 In1_4 1_555 1_555
O23_4 C22_4 1_555 1_555
O24_4 C17_4 1_555 1_555
C1_4 O6_4 1_555 1_555
C2_4 C8_4 1_555 1_555
C3_4 C13_4 1_555 1_555
C4_4 H1_4 1_555 1_555
C5_4 C24_4 1_555 1_555
C6_4 C26_4 1_555 1_555
C7_4 H2_4 1_555 1_555
C8_4 H3_4 1_555 1_555
C10_4 C8_4 1_555 1_555
C11_4 C7_4 1_555 1_555
C13_4 C7_4 1_555 1_555
C14_4 H5_4 1_555 1_555
C15_4 O17_4 1_555 1_555
C16_4 C34_4 1_555 1_555
C17_4 C13_4 1_555 1_555
C19_4 C10_4 1_555 1_555
H6_4 C19_4 1_555 1_555
C20_4 C4_4 1_555 1_555
C21_4 O15_4 1_555 1_555
C22_4 O22_4 1_555 1_555
C23_4 C2_4 1_555 1_555
C24_4 O53_2 1_555 1_555
C25_4 C14_4 1_555 1_555
C26_4 C31_4 1_555 1_555
C27_4 O8_4 1_555 1_555
C28_4 C1_4 1_555 1_555
C29_4 H7_4 1_555 1_555
C30_4 C32_4 1_555 1_555
C31_4 C5_4 1_555 1_555
H8_4 C31_4 1_555 1_555
C32_4 C35_4 1_555 1_555
C33_4 C26_4 1_555 1_555
H9_4 C33_4 1_555 1_555
C34_4 C4_4 1_555 1_555
C35_4 C28_4 1_555 1_555
H10_4 C35_4 1_555 1_555
C36_4 C25_4 1_555 1_555
H11_4 C36_4 1_555 1_555
In9 O19_4 1_555 1_555
In14 O14_2 1_555 1_555
O25_4 C48_4 1_555 1_555
O26_4 C40_4 1_555 1_555
O27_4 C58_4 1_555 1_555
O29 C40_4 1_555 1_555
O30_4 In15_2 1_555 1_555
O32_4 In9 1_555 1_555
O33_4 C49_4 1_555 1_555
O39_2 C45_4 1_555 1_555
O41_4 In9 1_555 1_555
O46_2 C21_4 1_555 1_555
O51_2 C15_4 1_555 1_555
O55_4 In11_2 1_555 1_555
O56_4 C48_4 1_555 1_555
O57_4 In11_2 1_555 1_555
O59 C52_4 1_555 1_555
O60_4 C52_4 1_555 1_555
O61_4 C49_4 1_555 1_555
C37_4 O32_4 1_555 1_555
C38_4 C42_4 1_555 1_555
C39_4 C20_4 1_555 1_555
H12_4 C39_4 1_555 1_555
C40_4 C55_4 1_555 1_555
C41_4 C11_4 1_555 1_555
H13_4 C41_4 1_555 1_555
C42_4 H14_4 1_555 1_555
C43_4 C38_4 1_555 1_555
H15_4 C43_4 1_555 1_555
C44_4 C42_4 1_555 1_555
C45_4 O44_2 1_555 1_555
C46_4 C3_4 1_555 1_555
C48_4 C61_4 1_555 1_555
C49_4 C46_4 1_555 1_555
C50_4 C43_4 1_555 1_555
C51_4 C44_4 1_555 1_555
H17_4 C51_4 1_555 1_555
C52_4 C44_4 1_555 1_555
C53_4 O55_4 1_555 1_555
C55_4 C33_4 1_555 1_555
C57_4 C37_4 1_555 1_555
C58_4 O30_4 1_555 1_555
C59_4 C5_4 1_555 1_555
H18_4 C59_4 1_555 1_555
C60_4 C58_4 1_555 1_555
C61_4 C29_4 1_555 1_555
C62_4 C57_4 1_555 1_555
H19_4 C62_4 1_555 1_555
H20_4 C63_4 1_555 1_555
O12_4 C1_4 1_555 1_555
O16_4 C27_4 1_555 1_555
O21_4 In9 1_555 1_555
C10_4 C22_4 1_555 1_555
C11_4 C21_4 1_555 1_555
C14_4 C28_4 1_555 1_555
C15_4 C20_4 1_555 1_555
C25_4 C27_4 1_555 1_555
C29_4 C34_4 1_555 1_555
C32_4 C36_4 1_555 1_555
In14 O46_2 1_555 1_555
O41_4 C37_4 1_555 1_555
O57_4 C53_4 1_555 1_555
C38_4 C53_4 1_555 1_555
C39_4 C61_4 1_555 1_555
C41_4 C46_4 1_555 1_555
C45_4 C50_4 1_555 1_555
C47_4 C57_4 1_555 1_555
C50_4 C51_4 1_555 1_555
C55_4 C59_4 1_555 1_555
C60_4 C62_4 1_555 1_555
C60_4 C63_4 1_555 1_555
C3_4 H21_4 1_555 1_555
O35 C56_4 1_555 1_555
C56_4 O49 1_555 1_555
C54_4 C56_4 1_555 1_555
N1 C64 1_555 1_555
N1 H25 1_555 1_555
N1 H26 1_555 1_555
N1 H27 1_555 1_555
C64 H48 1_555 1_555
N1_2 C64_2 1_555 1_555
N1_2 H25_2 1_555 1_555
N1_2 H26_2 1_555 1_555
N1_2 H27_2 1_555 1_555
C64_2 H48_2 1_555 1_555
N1_3 C64_3 1_555 1_555
N1_3 H25_3 1_555 1_555
N1_3 H26_3 1_555 1_555
N1_3 H27_3 1_555 1_555
C64_3 H46_3 1_555 1_555
C64_3 H47_3 1_555 1_555
C64_3 H48_3 1_555 1_555
N1_4 C64_4 1_555 1_555
N1_4 H25_4 1_555 1_555
N1_4 H26_4 1_555 1_555
N1_4 H27_4 1_555 1_555
C64_4 H46_4 1_555 1_555
C64_4 H47_4 1_555 1_555
C64_4 H48_4 1_555 1_555
N1_5 C64_5 1_555 1_555
N1_5 H25_5 1_555 1_555
N1_5 H26_5 1_555 1_555
N1_5 H27_5 1_555 1_555
C64_5 H48_5 1_555 1_555
N1_6 C64_6 1_555 1_555
N1_6 H25_6 1_555 1_555
N1_6 H26_6 1_555 1_555
N1_6 H27_6 1_555 1_555
C64_6 H48_6 1_555 1_555
N1_7 C64_7 1_555 1_555
N1_7 H25_7 1_555 1_555
N1_7 H26_7 1_555 1_555
N1_7 H27_7 1_555 1_555
C64_7 H46_7 1_555 1_555
C64_7 H47_7 1_555 1_555
C64_7 H48_7 1_555 1_555
N1_8 C64_8 1_555 1_555
N1_8 H25_8 1_555 1_555
N1_8 H26_8 1_555 1_555
N1_8 H27_8 1_555 1_555
C64_8 H46_8 1_555 1_555
C64_8 H47_8 1_555 1_555
C64_8 H48_8 1_555 1_555
N2 C65 1_555 1_555
C65 H40 1_555 1_555
C65 H41 1_555 1_555
C65 H42 1_555 1_555
N2 H52 1_555 1_555
N2 H53 1_555 1_555
N2 H54 1_555 1_555
N2_2 C65_2 1_555 1_555
C65_2 H40_2 1_555 1_555
C65_2 H41_2 1_555 1_555
C65_2 H42_2 1_555 1_555
N2_2 H52_2 1_555 1_555
N2_2 H53_2 1_555 1_555
N2_2 H54_2 1_555 1_555
N2_3 C65_3 1_555 1_555
C65_3 H40_3 1_555 1_555
C65_3 H41_3 1_555 1_555
C65_3 H42_3 1_555 1_555
N2_3 H52_3 1_555 1_555
N2_3 H53_3 1_555 1_555
N2_3 H54_3 1_555 1_555
N2_4 C65_4 1_555 1_555
C65_4 H40_4 1_555 1_555
C65_4 H41_4 1_555 1_555
C65_4 H42_4 1_555 1_555
N2_4 H52_4 1_555 1_555
N2_4 H53_4 1_555 1_555
N2_4 H54_4 1_555 1_555
N2_5 C65_5 1_555 1_555
C65_5 H40_5 1_555 1_555
C65_5 H41_5 1_555 1_555
C65_5 H42_5 1_555 1_555
N2_5 H52_5 1_555 1_555
N2_5 H53_5 1_555 1_555
N2_5 H54_5 1_555 1_555
N2_6 C65_6 1_555 1_555
C65_6 H40_6 1_555 1_555
C65_6 H41_6 1_555 1_555
C65_6 H42_6 1_555 1_555
N2_6 H52_6 1_555 1_555
N2_6 H53_6 1_555 1_555
N2_6 H54_6 1_555 1_555
N2_7 C65_7 1_555 1_555
C65_7 H40_7 1_555 1_555
C65_7 H41_7 1_555 1_555
C65_7 H42_7 1_555 1_555
N2_7 H52_7 1_555 1_555
N2_7 H53_7 1_555 1_555
N2_7 H54_7 1_555 1_555
N2_8 C65_8 1_555 1_555
C65_8 H40_8 1_555 1_555
C65_8 H41_8 1_555 1_555
C65_8 H42_8 1_555 1_555
N2_8 H52_8 1_555 1_555
N2_8 H53_8 1_555 1_555
N2_8 H54_8 1_555 1_555
N3 C66 1_555 1_555
N3 H55 1_555 1_555
N3 H56 1_555 1_555
N3 H57 1_555 1_555
C66 H64 1_555 1_555
C66 H65 1_555 1_555
C66 H66 1_555 1_555
N3 H55_2 1_555 1_555
N3 H56_2 1_555 1_555
N3 H57_2 1_555 1_555
C66 H64_2 1_555 1_555
C66 H65_2 1_555 1_555
C66 H66_2 1_555 1_555
N3_2 C66_2 1_555 1_555
N3_2 H55_3 1_555 1_555
N3_2 H56_3 1_555 1_555
N3_2 H57_3 1_555 1_555
C66_2 H64_3 1_555 1_555
C66_2 H65_3 1_555 1_555
C66_2 H66_3 1_555 1_555
N3_2 H55_4 1_555 1_555
N3_2 H56_4 1_555 1_555
N3_2 H57_4 1_555 1_555
C66_2 H64_4 1_555 1_555
C66_2 H65_4 1_555 1_555
C66_2 H66_4 1_555 1_555
N3_3 C66_3 1_555 1_555
N3_3 H55_5 1_555 1_555
N3_3 H56_5 1_555 1_555
N3_3 H57_5 1_555 1_555
C66_3 H64_5 1_555 1_555
C66_3 H65_5 1_555 1_555
C66_3 H66_5 1_555 1_555
N3_3 H55_6 1_555 1_555
N3_3 H56_6 1_555 1_555
N3_3 H57_6 1_555 1_555
C66_3 H64_6 1_555 1_555
C66_3 H65_6 1_555 1_555
C66_3 H66_6 1_555 1_555
N3_4 C66_4 1_555 1_555
N3_4 H55_7 1_555 1_555
N3_4 H56_7 1_555 1_555
N3_4 H57_7 1_555 1_555
C66_4 H64_7 1_555 1_555
C66_4 H65_7 1_555 1_555
C66_4 H66_7 1_555 1_555
N3_4 H55_8 1_555 1_555
N3_4 H56_8 1_555 1_555
N3_4 H57_8 1_555 1_555
C66_4 H64_8 1_555 1_555
C66_4 H65_8 1_555 1_555
C66_4 H66_8 1_555 1_555
N4 C67 1_555 1_555
C67 H35 1_555 1_555
C67 H36 1_555 1_555
N4 H49 1_555 1_555
N4 H50 1_555 1_555
N4 H51 1_555 1_555
N4_2 C67_2 1_555 1_555
C67_2 H35_2 1_555 1_555
C67_2 H36_2 1_555 1_555
N4_2 H49_2 1_555 1_555
N4_2 H50_2 1_555 1_555
N4_2 H51_2 1_555 1_555
N4_3 C67_3 1_555 1_555
C67_3 H34_3 1_555 1_555
C67_3 H35_3 1_555 1_555
C67_3 H36_3 1_555 1_555
N4_3 H49_3 1_555 1_555
N4_3 H50_3 1_555 1_555
N4_3 H51_3 1_555 1_555
N4_4 C67_4 1_555 1_555
C67_4 H34_4 1_555 1_555
C67_4 H35_4 1_555 1_555
C67_4 H36_4 1_555 1_555
N4_4 H49_4 1_555 1_555
N4_4 H50_4 1_555 1_555
N4_4 H51_4 1_555 1_555
N4_5 C67_5 1_555 1_555
C67_5 H35_5 1_555 1_555
C67_5 H36_5 1_555 1_555
N4_5 H49_5 1_555 1_555
N4_5 H50_5 1_555 1_555
N4_5 H51_5 1_555 1_555
N4_6 C67_6 1_555 1_555
C67_6 H35_6 1_555 1_555
C67_6 H36_6 1_555 1_555
N4_6 H49_6 1_555 1_555
N4_6 H50_6 1_555 1_555
N4_6 H51_6 1_555 1_555
N4_7 C67_7 1_555 1_555
C67_7 H34_7 1_555 1_555
C67_7 H35_7 1_555 1_555
C67_7 H36_7 1_555 1_555
N4_7 H49_7 1_555 1_555
N4_7 H50_7 1_555 1_555
N4_7 H51_7 1_555 1_555
N4_8 C67_8 1_555 1_555
C67_8 H34_8 1_555 1_555
C67_8 H35_8 1_555 1_555
C67_8 H36_8 1_555 1_555
N4_8 H49_8 1_555 1_555
N4_8 H50_8 1_555 1_555
N4_8 H51_8 1_555 1_555
N5 C68 1_555 1_555
N5 H28 1_555 1_555
N5 H29 1_555 1_555
N5 H30 1_555 1_555
C68 H61 1_555 1_555
C68 H62 1_555 1_555
C68 H63 1_555 1_555
N5 H28_2 1_555 1_555
N5 H29_2 1_555 1_555
N5 H30_2 1_555 1_555
C68 H61_2 1_555 1_555
C68 H62_2 1_555 1_555
C68 H63_2 1_555 1_555
N5_2 C68_2 1_555 1_555
N5_2 H28_3 1_555 1_555
N5_2 H29_3 1_555 1_555
N5_2 H30_3 1_555 1_555
C68_2 H61_3 1_555 1_555
C68_2 H62_3 1_555 1_555
C68_2 H63_3 1_555 1_555
N5_2 H28_4 1_555 1_555
N5_2 H29_4 1_555 1_555
N5_2 H30_4 1_555 1_555
C68_2 H61_4 1_555 1_555
C68_2 H62_4 1_555 1_555
C68_2 H63_4 1_555 1_555
N5_3 C68_3 1_555 1_555
N5_3 H28_5 1_555 1_555
N5_3 H29_5 1_555 1_555
N5_3 H30_5 1_555 1_555
C68_3 H61_5 1_555 1_555
C68_3 H62_5 1_555 1_555
C68_3 H63_5 1_555 1_555
N5_3 H28_6 1_555 1_555
N5_3 H29_6 1_555 1_555
N5_3 H30_6 1_555 1_555
C68_3 H61_6 1_555 1_555
C68_3 H62_6 1_555 1_555
C68_3 H63_6 1_555 1_555
N5_4 C68_4 1_555 1_555
N5_4 H28_7 1_555 1_555
N5_4 H29_7 1_555 1_555
N5_4 H30_7 1_555 1_555
C68_4 H61_7 1_555 1_555
C68_4 H62_7 1_555 1_555
C68_4 H63_7 1_555 1_555
N5_4 H28_8 1_555 1_555
N5_4 H29_8 1_555 1_555
N5_4 H30_8 1_555 1_555
C68_4 H61_8 1_555 1_555
C68_4 H62_8 1_555 1_555
C68_4 H63_8 1_555 1_555
N6 C69 1_555 1_555
N6 H22 1_555 1_555
N6 H23 1_555 1_555
N6 H24 1_555 1_555
C69 H31 1_555 1_555
C69 H32 1_555 1_555
C69 H33 1_555 1_555
N6_2 C69_2 1_555 1_555
N6_2 H23_2 1_555 1_555
C69_2 H31_2 1_555 1_555
C69_2 H32_2 1_555 1_555
C69_2 H33_2 1_555 1_555
N6_3 C69_3 1_555 1_555
N6_3 H22_3 1_555 1_555
N6_3 H23_3 1_555 1_555
N6_3 H24_3 1_555 1_555
C69_3 H31_3 1_555 1_555
C69_3 H32_3 1_555 1_555
C69_3 H33_3 1_555 1_555
N6_4 C69_4 1_555 1_555
N6_4 H23_4 1_555 1_555
C69_4 H31_4 1_555 1_555
C69_4 H32_4 1_555 1_555
C69_4 H33_4 1_555 1_555
N6_5 C69_5 1_555 1_555
N6_5 H22_5 1_555 1_555
N6_5 H23_5 1_555 1_555
N6_5 H24_5 1_555 1_555
C69_5 H31_5 1_555 1_555
C69_5 H32_5 1_555 1_555
C69_5 H33_5 1_555 1_555
N6_6 C69_6 1_555 1_555
N6_6 H23_6 1_555 1_555
C69_6 H31_6 1_555 1_555
C69_6 H32_6 1_555 1_555
C69_6 H33_6 1_555 1_555
N6_7 C69_7 1_555 1_555
N6_7 H22_7 1_555 1_555
N6_7 H23_7 1_555 1_555
N6_7 H24_7 1_555 1_555
C69_7 H31_7 1_555 1_555
C69_7 H32_7 1_555 1_555
C69_7 H33_7 1_555 1_555
N6_8 C69_8 1_555 1_555
N6_8 H23_8 1_555 1_555
C69_8 H31_8 1_555 1_555
C69_8 H32_8 1_555 1_555
C69_8 H33_8 1_555 1_555
C70 H68 1_555 1_555
C70 H69 1_555 1_555
N7 H58 1_555 1_555
N7 H60 1_555 1_555
N7_2 C70_2 1_555 1_555
N7_2 H58_2 1_555 1_555
N7_2 H59_2 1_555 1_555
N7_2 H60_2 1_555 1_555
C70_2 H67_2 1_555 1_555
C70_2 H68_2 1_555 1_555
C70_2 H69_2 1_555 1_555
N7_3 H58_3 1_555 1_555
N7_3 H60_3 1_555 1_555
C70_3 H68_3 1_555 1_555
C70_3 H69_3 1_555 1_555
N7_4 C70_4 1_555 1_555
N7_4 H58_4 1_555 1_555
N7_4 H59_4 1_555 1_555
N7_4 H60_4 1_555 1_555
C70_4 H67_4 1_555 1_555
C70_4 H68_4 1_555 1_555
C70_4 H69_4 1_555 1_555
N7_5 H58_5 1_555 1_555
N7_5 H60_5 1_555 1_555
C70_5 H68_5 1_555 1_555
C70_5 H69_5 1_555 1_555
N7_6 C70_6 1_555 1_555
N7_6 H58_6 1_555 1_555
N7_6 H59_6 1_555 1_555
N7_6 H60_6 1_555 1_555
C70_6 H67_6 1_555 1_555
C70_6 H68_6 1_555 1_555
C70_6 H69_6 1_555 1_555
C70_7 H68_7 1_555 1_555
C70_7 H69_7 1_555 1_555
N7_7 H58_7 1_555 1_555
N7_7 H60_7 1_555 1_555
N7_8 C70_8 1_555 1_555
N7_8 H58_8 1_555 1_555
N7_8 H59_8 1_555 1_555
N7_8 H60_8 1_555 1_555
C70_8 H67_8 1_555 1_555
C70_8 H68_8 1_555 1_555
C70_8 H69_8 1_555 1_555
N8 C71 1_555 1_555
N8 H37 1_555 1_555
N8 H38 1_555 1_555
C71 H44 1_555 1_555
C71 H45 1_555 1_555
N8_2 C71_2 1_555 1_555
N8_2 H37_2 1_555 1_555
N8_2 H38_2 1_555 1_555
C71_2 H43_2 1_555 1_555
C71_2 H44_2 1_555 1_555
C71_2 H45_2 1_555 1_555
N8_3 C71_3 1_555 1_555
N8_3 H37_3 1_555 1_555
N8_3 H38_3 1_555 1_555
N8_3 H39_3 1_555 1_555
C71_3 H44_3 1_555 1_555
C71_3 H45_3 1_555 1_555
N8_4 C71_4 1_555 1_555
N8_4 H37_4 1_555 1_555
N8_4 H38_4 1_555 1_555
N8_4 H39_4 1_555 1_555
C71_4 H43_4 1_555 1_555
C71_4 H44_4 1_555 1_555
C71_4 H45_4 1_555 1_555
N8_5 C71_5 1_555 1_555
N8_5 H37_5 1_555 1_555
N8_5 H38_5 1_555 1_555
C71_5 H44_5 1_555 1_555
C71_5 H45_5 1_555 1_555
N8_6 C71_6 1_555 1_555
N8_6 H37_6 1_555 1_555
N8_6 H38_6 1_555 1_555
C71_6 H43_6 1_555 1_555
C71_6 H44_6 1_555 1_555
C71_6 H45_6 1_555 1_555
N8_7 C71_7 1_555 1_555
N8_7 H37_7 1_555 1_555
N8_7 H38_7 1_555 1_555
N8_7 H39_7 1_555 1_555
C71_7 H44_7 1_555 1_555
C71_7 H45_7 1_555 1_555
N8_8 C71_8 1_555 1_555
N8_8 H37_8 1_555 1_555
N8_8 H38_8 1_555 1_555
N8_8 H39_8 1_555 1_555
C71_8 H43_8 1_555 1_555
C71_8 H44_8 1_555 1_555
C71_8 H45_8 1_555 1_555

#END
