
###############################################################################
#
# This file contains modified crystal structure data generated from the
# MOF subset of the Cambridge Structural Database (CSD) v543 
# hosted by the Cambridge Crystallographic Data Centre (CCDC).
#
# This work is licensed under the Creative Commons
# Attribution-NonCommercial-ShareAlike 4.0 International License.
# To view a copy of this license, visit
# http://creativecommons.org/licenses/by-nc-sa/4.0/
# or send a letter to
# Creative Commons, PO Box 1866, Mountain View, CA 94042, USA.
#
# CIF created using the CSD Python API on 29 September 2022
# The structure has been converted into the P1 space group
# The structure has a 3D framework
# The original CSD entry IYUJAO is in the rhombohedral crystal system
# The original CSD entry IYUJAO is in a Sohncke space group
# The framework has been calculated to contain at least 10.0% void space
# The void calculation uses a probe of radius 1.32A, grid spacing 0.4
# H atom positions have been added when not included in the experimental data
# Generated hydrogen atom positions removed from atoms on special positions
#
###############################################################################

data_IYUJAO
_chemical_formula_moiety         '(C394 H264 In29 O182)n'
_symmetry_cell_setting           triclinic
_symmetry_space_group_name_H-M   'P 1'
_symmetry_Int_Tables_number      1
_space_group_name_Hall           'P 1'
loop_
_symmetry_equiv_pos_site_id
_symmetry_equiv_pos_as_xyz
1 x,y,z
_cell_length_a                   23.312(4)
_cell_length_b                   23.312(4)
_cell_length_c                   26.665(9)
_cell_angle_alpha                90
_cell_angle_beta                 90
_cell_angle_gamma                120
_cell_volume                     12549.6
loop_
_atom_site_label
_atom_site_type_symbol
_atom_site_fract_x
_atom_site_fract_y
_atom_site_fract_z
O4 O 0.2864(5) 0.2871(5) 0.7824(3)
O5 O 0.2735(5) 0.2375(4) 0.8575(3)
H3 H 0.0012 0.0745 0.7185
C8 C 0.2510(6) 0.2497(6) 0.8175(4)
C9 C 0.1764(6) 0.2130(7) 0.8109(4)
C10 C 0.1364(7) 0.1652(8) 0.8443(5)
H5 H 0.1553 0.1557 0.8715
C11 C 0.0682(8) 0.1305(9) 0.8384(5)
H6 H 0.0410 0.0967 0.8604
C12 C 0.0419(7) 0.1482(8) 0.7986(4)
C13 C 0.0861(8) 0.1973(9) 0.7629(5)
H7 H 0.0691 0.2069 0.7346
C14 C 0.1483(7) 0.2272(8) 0.7706(5)
H8 H 0.1760 0.2599 0.7481
In4 In 0.39062(7) 0.36058(5) 0.77047(3)
In5 In 0.36337(5) 0.30608(5) 0.89619(3)
In8 In 0.03003(5) 0.63942(5) 0.22953(3)
In9 In 0.05728(7) 0.69392(5) 0.10381(3)
O18 O 0.0360(6) 0.7625(4) 0.1425(3)
C30 C 0.0013(8) 0.7503(6) 0.1825(4)
In2 In 0.84064(6) -0.0000 0.5000
O1 O 0.8652(5) 0.0312(6) 0.5784(3)
O2 O 0.7798(4) 0.0400(5) 0.6115(3)
O3 O 0.9726(5) 0.1186(6) 0.7973(3)
O9 O 0.7518(5) -0.0000 0.5000
C1 C 0.8358(7) 0.0430(7) 0.6130(5)
C2 C 0.8721(6) 0.0622(7) 0.6622(4)
C3 C 0.8501(7) 0.0848(7) 0.7014(5)
H1 H 0.8112 0.0863 0.6980
C4 C 0.8855(6) 0.1053(8) 0.7461(4)
H2 H 0.8719 0.1224 0.7720
C5 C 0.9410(7) 0.0998(9) 0.7510(5)
C6 C 0.9634(8) 0.0778(8) 0.7141(5)
C7 C 0.9294(6) 0.0599(8) 0.6691(5)
H4 H 0.9457 0.0460 0.6428
O11 O 0.9364(7) -0.0000 0.5000
In3 In 0.72395(7) 0.02725(5) 0.43714(3)
In7 In 0.63942(5) 0.03003(5) 0.77047(3)
O16 O 0.6660(7) 0.0462(5) 0.5509(3)
O20 O 0.7027(6) 0.0958(4) 0.4758(3)
O22 O 0.8964(8) 0.1011(5) 0.4735(3)
O24 O 0.8238(7) 0.1047(5) 0.4182(4)
O26 O 0.6910(7) 0.0556(5) 0.3706(3)
H27 H 0.69705 0.0302782 0.666736
In1 In 0.69670(5) 0.97275(5) 0.56286(3)
In2_2 In 0.84064(6) 1.0000 0.5000
O6 O 0.7953(6) 0.8989(5) 0.5265(3)
O7 O 0.7191(5) 0.8953(5) 0.5818(4)
O8 O 0.7638(7) 0.6667 0.6667
O9_2 O 0.7518(5) 1.0000 0.5000
O10 O 0.6354(5) 0.9444(5) 0.6294(3)
C15 C 0.7577(7) 0.8754(7) 0.5649(4)
C16 C 0.7591(8) 0.8206(8) 0.5924(5)
C17 C 0.7216(7) 0.7955(7) 0.6362(5)
H9 H 0.6962 0.8132 0.6481
C18 C 0.7227(9) 0.7443(8) 0.6616(7)
H10 H 0.6994 0.7281 0.6914
C19 C 0.7602(9) 0.7172(9) 0.6409(6)
C20 C 0.7940(7) 0.7401(8) 0.5980(6)
H11 H 0.8167 0.7203 0.5847
C21 C 0.7953(8) 0.7924(9) 0.5736(5)
H12 H 0.8203 0.8092 0.5445
C22 C 0.6503(8) 0.9836(8) 0.6667
O11_2 O 0.9364(7) 1.0000 0.5000
In10 In 0.50731(6) 0.3333 0.8333
O12 O 0.8340(8) 0.9688(6) 0.4216(3)
O13 O 0.7398(6) 0.9600(5) 0.3885(3)
O14 O 0.8540(8) 0.8814(6) 0.2027(3)
O15 O 0.9993(7) 0.7129(5) 0.2176(3)
O17 O 0.6197(5) 0.9538(5) 0.4491(3)
O19 O 0.6068(5) 0.9042(4) 0.5242(3)
O21 O 0.5631(8) 0.4344(5) 0.8068(3)
O23 O 0.4905(7) 0.4380(5) 0.7515(4)
O25 O 0.6111(5) 0.9687(5) 0.7039(3)
C23 C 0.7928(10) 0.9570(7) 0.3870(5)
C24 C 0.8099(9) 0.9378(7) 0.3378(4)
C25 C 0.7653(10) 0.9152(7) 0.2986(5)
H13 H 0.7249 0.9137 0.3020
C26 C 0.7802(10) 0.8947(8) 0.2539(4)
H14 H 0.7495 0.8776 0.2280
C27 C 0.8412(11) 0.9002(9) 0.2490(5)
C28 C 0.8856(11) 0.9222(8) 0.2859(5)
H15 H 0.9267 0.9255 0.2815
C29 C 0.8695(10) 0.9401(8) 0.3309(5)
H16 H 0.8997 0.9540 0.3572
C31 C 0.9634(9) 0.7870(7) 0.1891(4)
C32 C 0.9712(11) 0.8348(8) 0.1557(5)
H17 H 0.9996 0.8443 0.1285
C33 C 0.9377(12) 0.8695(9) 0.1616(5)
H18 H 0.9443 0.9033 0.1396
C34 C 0.8937(11) 0.8518(8) 0.2014(4)
C35 C 0.8888(12) 0.8027(9) 0.2371(5)
H19 H 0.8622 0.7931 0.2654
C36 C 0.9211(11) 0.7728(8) 0.2294(5)
H20 H 0.9161 0.7401 0.2519
C37 C 0.5490(10) 0.4579(7) 0.7684(4)
C38 C 0.6052(11) 0.5127(8) 0.7409(5)
C39 C 0.5928(10) 0.5378(7) 0.6971(5)
H21 H 0.5497 0.5201 0.6852
C40 C 0.6451(12) 0.5890(8) 0.6717(7)
H22 H 0.6380 0.6052 0.6419
C41 C 0.7097(13) 0.6161(9) 0.6924(6)
C42 C 0.7206(11) 0.5932(8) 0.7353(6)
H23 H 0.7631 0.6130 0.7486
C43 C 0.6696(12) 0.5409(9) 0.7597(5)
H24 H 0.6778 0.5241 0.7888
H25 H 0.934717 0.968237 0.525581
H26 H 0.94391 0.986622 0.466383
O8_2 O 0.3333 0.0971(7) 0.6667
C19_2 C 0.2828(9) 0.0430(13) 0.6409(6)
C20_2 C 0.2599(8) 0.0539(11) 0.5980(6)
H11_2 H 0.2797 0.0964 0.5847
C21_2 C 0.2076(9) 0.0029(12) 0.5736(5)
H12_2 H 0.1908 0.0111 0.5445
In8_2 In 0.36058(5) 0.39062(7) 0.22953(3)
In9_2 In 0.30608(5) 0.36337(9) 0.10381(3)
In10_2 In 0.6667 0.17397(6) 0.8333
O15_2 O 0.2871(5) 0.2864(9) 0.2176(3)
O18_2 O 0.2375(4) 0.2735(7) 0.1425(3)
O21_2 O 0.5656(5) 0.1286(9) 0.8068(3)
O23_2 O 0.5620(5) 0.0524(9) 0.7515(4)
H15_2 H 0.0745 0.0012 0.2815
C30_2 C 0.2497(6) 0.2510(10) 0.1825(4)
C31_2 C 0.2130(7) 0.1764(11) 0.1891(4)
C32_2 C 0.1652(8) 0.1364(14) 0.1557(5)
H17_2 H 0.1557 0.1553 0.1285
C33_2 C 0.1305(9) 0.0682(15) 0.1616(5)
H18_2 H 0.0967 0.0410 0.1396
C34_2 C 0.1482(8) 0.0419(14) 0.2014(4)
C35_2 C 0.1973(9) 0.0861(15) 0.2371(5)
H19_2 H 0.2069 0.0691 0.2654
C36_2 C 0.2272(8) 0.1483(14) 0.2294(5)
H20_2 H 0.2599 0.1760 0.2519
C37_2 C 0.5421(7) 0.0910(12) 0.7684(4)
C38_2 C 0.4873(8) 0.0924(14) 0.7409(5)
C39_2 C 0.4622(7) 0.0549(12) 0.6971(5)
H21_2 H 0.4799 0.0295 0.6852
C40_2 C 0.4110(8) 0.0560(14) 0.6717(7)
H22_2 H 0.3948 0.0327 0.6419
C41_2 C 0.3839(9) 0.0935(16) 0.6924(6)
C42_2 C 0.4068(8) 0.1273(14) 0.7353(6)
H23_2 H 0.3870 0.1500 0.7486
C43_2 C 0.4591(9) 0.1286(15) 0.7597(5)
H24_2 H 0.4759 0.1536 0.7888
In1_2 In 0.02725(5) 0.72395(7) 0.56286(3)
In2_3 In 0.0000 0.84064(6) 0.5000
O6_2 O 0.1011(5) 0.8964(8) 0.5265(3)
O7_2 O 0.1047(5) 0.8238(7) 0.5818(4)
O9_3 O 0.0000 0.7518(5) 0.5000
O10_2 O 0.0556(5) 0.6910(7) 0.6294(3)
C15_2 C 0.1246(7) 0.8823(10) 0.5649(4)
C16_2 C 0.1794(8) 0.9385(11) 0.5924(5)
C17_2 C 0.2045(7) 0.9261(10) 0.6362(5)
H9_2 H 0.1868 0.8830 0.6481
C18_2 C 0.2557(8) 0.9784(12) 0.6616(7)
H10_2 H 0.2719 0.9713 0.6914
C22_2 C 0.0164(8) 0.6667(11) 0.6667
O11_3 O 0.0000 0.9364(7) 0.5000
O12_2 O 0.0312(6) 0.8652(10) 0.4216(3)
O13_2 O 0.0400(5) 0.7798(8) 0.3885(3)
O14_2 O 0.1186(6) 0.9726(10) 0.2027(3)
O17_2 O 0.0462(5) 0.6660(7) 0.4491(3)
O19_2 O 0.0958(4) 0.7027(6) 0.5242(3)
O25_2 O 0.0313(5) 0.6423(7) 0.7039(3)
C23_2 C 0.0430(7) 0.8358(12) 0.3870(5)
C24_2 C 0.0622(7) 0.8721(11) 0.3378(4)
C25_2 C 0.0848(7) 0.8501(12) 0.2986(5)
H13_2 H 0.0863 0.8112 0.3020
C26_2 C 0.1053(8) 0.8855(13) 0.2539(4)
H14_2 H 0.1224 0.8719 0.2280
C27_2 C 0.0998(9) 0.9410(14) 0.2490(5)
C28_2 C 0.0778(8) 0.9634(14) 0.2859(5)
C29_2 C 0.0599(8) 0.9294(13) 0.3309(5)
H16_2 H 0.0460 0.9457 0.3572
H25_2 H 0.0317633 0.96648 0.525581
H26_2 H 0.0133783 0.957288 0.466383
O5_2 O 0.7625(4) 0.0360(6) 0.8575(3)
C8_2 C 0.7503(6) 0.0013(8) 0.8175(4)
In5_2 In 0.69392(5) 0.05728(7) 0.89619(3)
In2_4 In 1.0000 0.84064(6) 0.5000
O1_2 O 0.9688(6) 0.8340(8) 0.5784(3)
O2_2 O 0.9600(5) 0.7398(6) 0.6115(3)
O3_2 O 0.8814(6) 0.8540(8) 0.7973(3)
O4_2 O 0.7129(5) 0.9993(7) 0.7824(3)
O9_4 O 1.0000 0.7518(5) 0.5000
C1_2 C 0.9570(7) 0.7928(10) 0.6130(5)
C2_2 C 0.9378(7) 0.8099(9) 0.6622(4)
C3_2 C 0.9152(7) 0.7653(10) 0.7014(5)
H1_2 H 0.9137 0.7249 0.6980
C4_2 C 0.8947(8) 0.7802(10) 0.7461(4)
H2_2 H 0.8776 0.7495 0.7720
C5_2 C 0.9002(9) 0.8412(11) 0.7510(5)
C6_2 C 0.9222(8) 0.8856(11) 0.7141(5)
H3_2 H 0.9255 0.9267 0.7185
C7_2 C 0.9401(8) 0.8695(10) 0.6691(5)
H4_2 H 0.9540 0.8997 0.6428
C9_2 C 0.7870(7) 0.9634(9) 0.8109(4)
C10_2 C 0.8348(8) 0.9712(11) 0.8443(5)
H5_2 H 0.8443 0.9996 0.8715
C11_2 C 0.8695(9) 0.9377(12) 0.8384(5)
H6_2 H 0.9033 0.9443 0.8604
C12_2 C 0.8518(8) 0.8937(11) 0.7986(4)
C13_2 C 0.8027(9) 0.8888(12) 0.7629(5)
H7_2 H 0.7931 0.8622 0.7346
C14_2 C 0.7728(8) 0.9211(11) 0.7706(5)
H8_2 H 0.7401 0.9161 0.7481
O11_4 O 1.0000 0.9364(7) 0.5000
In3_2 In 0.97275(5) 0.69670(9) 0.43714(3)
In7_2 In 0.96997(5) 0.60938(7) 0.77047(3)
O16_2 O 0.9538(5) 0.6197(9) 0.5509(3)
O20_2 O 0.9042(4) 0.6068(7) 0.4758(3)
O22_2 O 0.8989(5) 0.7953(9) 0.4735(3)
O24_2 O 0.8953(5) 0.7191(9) 0.4182(4)
O26_2 O 0.9444(5) 0.6354(9) 0.3706(3)
H27_2 H 0.969722 0.666772 0.666736
In1_3 In 0.27605(7) 0.30330(5) 0.56286(3)
In2_5 In 0.15936(6) 0.15936(6) 0.5000
O1_3 O 0.1660(8) 0.1348(5) 0.5784(3)
O2_3 O 0.2602(6) 0.2202(4) 0.6115(3)
O3_3 O 0.1460(8) 0.0274(5) 0.7973(3)
O6_3 O 0.1036(8) 0.2047(6) 0.5265(3)
O7_3 O 0.1762(7) 0.2809(5) 0.5818(4)
O9_5 O 0.2482(5) 0.2482(5) 0.5000
O10_3 O 0.3090(7) 0.3646(5) 0.6294(3)
C1_3 C 0.2072(10) 0.1642(7) 0.6130(5)
C2_3 C 0.1901(9) 0.1279(6) 0.6622(4)
C3_3 C 0.2347(10) 0.1499(7) 0.7014(5)
H1_3 H 0.2751 0.1888 0.6980
C4_3 C 0.2198(10) 0.1145(6) 0.7461(4)
H2_3 H 0.2505 0.1281 0.7720
C5_3 C 0.1588(11) 0.0590(7) 0.7510(5)
C6_3 C 0.1144(11) 0.0366(8) 0.7141(5)
C7_3 C 0.1305(10) 0.0706(6) 0.6691(5)
H4_3 H 0.1003 0.0543 0.6428
C15_3 C 0.1177(10) 0.2423(7) 0.5649(4)
C16_3 C 0.0615(11) 0.2409(8) 0.5924(5)
C17_3 C 0.0739(10) 0.2784(7) 0.6362(5)
H9_3 H 0.1170 0.3038 0.6481
C18_3 C 0.0216(12) 0.2773(9) 0.6616(7)
H10_3 H 0.0287 0.3006 0.6914
C22_3 C 0.3333(11) 0.3497(8) 0.6667
O11_5 O 0.0636(7) 0.0636(7) 0.5000
In3_3 In 0.30330(9) 0.27605(7) 0.43714(3)
O12_3 O 0.1348(10) 0.1660(8) 0.4216(3)
O13_3 O 0.2202(8) 0.2602(6) 0.3885(3)
O14_3 O 0.0274(10) 0.1460(8) 0.2027(3)
O16_3 O 0.3803(9) 0.3340(7) 0.5509(3)
O17_3 O 0.3340(7) 0.3803(5) 0.4491(3)
O19_3 O 0.2973(6) 0.3932(5) 0.5242(3)
O20_3 O 0.3932(7) 0.2973(6) 0.4758(3)
O22_3 O 0.2047(9) 0.1036(8) 0.4735(3)
O24_3 O 0.2809(9) 0.1762(7) 0.4182(4)
O25_3 O 0.3577(7) 0.3889(5) 0.7039(3)
O26_3 O 0.3646(9) 0.3090(7) 0.3706(3)
C23_3 C 0.1642(12) 0.2072(10) 0.3870(5)
C24_3 C 0.1279(11) 0.1901(9) 0.3378(4)
C25_3 C 0.1499(12) 0.2347(10) 0.2986(5)
H13_3 H 0.1888 0.2751 0.3020
C26_3 C 0.1145(13) 0.2198(10) 0.2539(4)
H14_3 H 0.1281 0.2505 0.2280
C27_3 C 0.0590(14) 0.1588(11) 0.2490(5)
C28_3 C 0.0366(14) 0.1144(11) 0.2859(5)
C29_3 C 0.0706(13) 0.1305(10) 0.3309(5)
H16_3 H 0.0543 0.1003 0.3572
H27_3 H 0.333228 0.30295 0.666736
O4_3 O 0.0007(7) 0.7136(5) 0.7824(3)
H3_3 H 0.0733 0.9988 0.7185
C9_3 C 0.0366(9) 0.8236(6) 0.8109(4)
C10_3 C 0.0288(11) 0.8636(7) 0.8443(5)
H5_3 H 0.0004 0.8447 0.8715
C11_3 C 0.0623(12) 0.9318(8) 0.8384(5)
H6_3 H 0.0557 0.9590 0.8604
C12_3 C 0.1063(11) 0.9581(7) 0.7986(4)
C13_3 C 0.1112(12) 0.9139(8) 0.7629(5)
H7_3 H 0.1378 0.9309 0.7346
C14_3 C 0.0789(11) 0.8517(7) 0.7706(5)
H8_3 H 0.0839 0.8240 0.7481
O8_3 O 0.9029(7) 0.2362(7) 0.6667
C19_3 C 0.9570(13) 0.2398(9) 0.6409(6)
C20_3 C 0.9461(11) 0.2060(7) 0.5980(6)
H11_3 H 0.9036 0.1833 0.5847
C21_3 C 0.9971(12) 0.2047(8) 0.5736(5)
H12_3 H 0.9889 0.1797 0.5445
In10_3 In 0.82603(6) 0.49269(6) 0.8333
O15_3 O 0.7136(9) 0.0007(7) 0.2176(3)
O21_3 O 0.8714(9) 0.4369(8) 0.8068(3)
O23_3 O 0.9476(9) 0.5095(7) 0.7515(4)
H15_3 H 0.9988 0.0733 0.2815
C31_3 C 0.8236(11) 0.0366(9) 0.1891(4)
C32_3 C 0.8636(14) 0.0288(11) 0.1557(5)
H17_3 H 0.8447 0.0004 0.1285
C33_3 C 0.9318(15) 0.0623(12) 0.1616(5)
H18_3 H 0.9590 0.0557 0.1396
C34_3 C 0.9581(14) 0.1063(11) 0.2014(4)
C35_3 C 0.9139(15) 0.1112(12) 0.2371(5)
H19_3 H 0.9309 0.1378 0.2654
C36_3 C 0.8517(14) 0.0789(11) 0.2294(5)
H20_3 H 0.8240 0.0839 0.2519
C37_3 C 0.9090(12) 0.4510(10) 0.7684(4)
C38_3 C 0.9076(14) 0.3948(11) 0.7409(5)
C39_3 C 0.9451(12) 0.4072(10) 0.6971(5)
H21_3 H 0.9705 0.4503 0.6852
C40_3 C 0.9440(14) 0.3549(12) 0.6717(7)
H22_3 H 0.9673 0.3620 0.6419
C41_3 C 0.9065(16) 0.2903(13) 0.6924(6)
C42_3 C 0.8727(14) 0.2794(11) 0.7353(6)
H23_3 H 0.8500 0.2369 0.7486
C43_3 C 0.8714(15) 0.3304(12) 0.7597(5)
H24_3 H 0.8464 0.3222 0.7888
O5_3 O 0.9640(6) 0.7265(5) 0.8575(3)
C8_3 C 0.9987(8) 0.7490(6) 0.8175(4)
In5_3 In 0.94272(7) 0.63663(5) 0.89619(3)
In8_3 In 0.60938(7) 0.96997(5) 0.22953(3)
In9_3 In 0.63663(9) 0.94272(7) 0.10381(3)
O18_3 O 0.7265(7) 0.9640(6) 0.1425(3)
C30_3 C 0.7490(10) 0.9987(8) 0.1825(4)
H27_4 H 0.0302782 0.69705 0.333264
O8_4 O 0.6667 0.7638(7) 0.3333
C15_4 C 0.8754(7) 0.7577(7) 0.4351(4)
C16_4 C 0.8206(8) 0.7591(8) 0.4076(5)
C17_4 C 0.7955(7) 0.7216(7) 0.3638(5)
H9_4 H 0.8132 0.6962 0.3519
C18_4 C 0.7443(8) 0.7227(9) 0.3384(7)
H10_4 H 0.7281 0.6994 0.3086
C19_4 C 0.7172(9) 0.7602(9) 0.3591(6)
C20_4 C 0.7401(8) 0.7940(7) 0.4020(6)
H11_4 H 0.7203 0.8167 0.4153
C21_4 C 0.7924(9) 0.7953(8) 0.4264(5)
H12_4 H 0.8092 0.8203 0.4555
C22_4 C 0.9836(8) 0.6503(8) 0.3333
In10_4 In 0.3333 0.50731(6) 0.1667
O21_4 O 0.4344(5) 0.5631(8) 0.1932(3)
O23_4 O 0.4380(5) 0.4905(7) 0.2485(4)
O25_4 O 0.9687(5) 0.6111(5) 0.2961(3)
C37_4 C 0.4579(7) 0.5490(10) 0.2316(4)
C38_4 C 0.5127(8) 0.6052(11) 0.2591(5)
C39_4 C 0.5378(7) 0.5928(10) 0.3029(5)
H21_4 H 0.5201 0.5497 0.3148
C40_4 C 0.5890(8) 0.6451(12) 0.3283(7)
H22_4 H 0.6052 0.6380 0.3581
C41_4 C 0.6161(9) 0.7097(13) 0.3076(6)
C42_4 C 0.5932(8) 0.7206(11) 0.2647(6)
H23_4 H 0.6130 0.7631 0.2514
C43_4 C 0.5409(9) 0.6696(12) 0.2403(5)
H24_4 H 0.5241 0.6778 0.2112
H25_3 H 0.968237 0.934717 0.474419
H26_3 H 0.986622 0.94391 0.533617
O8_5 O 0.0971(7) 0.3333 0.3333
C19_5 C 0.0430(13) 0.2828(9) 0.3591(6)
C20_5 C 0.0539(11) 0.2599(8) 0.4020(6)
H11_5 H 0.0964 0.2797 0.4153
C21_5 C 0.0029(12) 0.2076(9) 0.4264(5)
H12_5 H 0.0111 0.1908 0.4555
In10_5 In 0.17397(6) 0.6667 0.1667
O21_5 O 0.1286(9) 0.5656(5) 0.1932(3)
O23_5 O 0.0524(9) 0.5620(5) 0.2485(4)
C37_5 C 0.0910(12) 0.5421(7) 0.2316(4)
C38_5 C 0.0924(14) 0.4873(8) 0.2591(5)
C39_5 C 0.0549(12) 0.4622(7) 0.3029(5)
H21_5 H 0.0295 0.4799 0.3148
C40_5 C 0.0560(14) 0.4110(8) 0.3283(7)
H22_5 H 0.0327 0.3948 0.3581
C41_5 C 0.0935(16) 0.3839(9) 0.3076(6)
C42_5 C 0.1273(14) 0.4068(8) 0.2647(6)
H23_5 H 0.1500 0.3870 0.2514
C43_5 C 0.1286(15) 0.4591(9) 0.2403(5)
H24_5 H 0.1536 0.4759 0.2112
C15_5 C 0.8823(10) 0.1246(7) 0.4351(4)
C16_5 C 0.9385(11) 0.1794(8) 0.4076(5)
C17_5 C 0.9261(10) 0.2045(7) 0.3638(5)
H9_5 H 0.8830 0.1868 0.3519
C18_5 C 0.9784(12) 0.2557(8) 0.3384(7)
H10_5 H 0.9713 0.2719 0.3086
C22_5 C 0.6667(11) 0.0164(8) 0.3333
O25_5 O 0.6423(7) 0.0313(5) 0.2961(3)
H25_4 H 0.96648 0.0317633 0.474419
H26_4 H 0.957288 0.0133783 0.533617
H27_5 H 0.666772 0.969722 0.333264
C15_6 C 0.2423(7) 0.1177(10) 0.4351(4)
C16_6 C 0.2409(8) 0.0615(11) 0.4076(5)
C17_6 C 0.2784(7) 0.0739(10) 0.3638(5)
H9_6 H 0.3038 0.1170 0.3519
C18_6 C 0.2773(9) 0.0216(12) 0.3384(7)
H10_6 H 0.3006 0.0287 0.3086
C22_6 C 0.3497(8) 0.3333(11) 0.3333
O25_6 O 0.3889(5) 0.3577(7) 0.2961(3)
H27_6 H 0.30295 0.333228 0.333264
O8_6 O 0.2362(7) 0.9029(7) 0.3333
C19_6 C 0.2398(9) 0.9570(13) 0.3591(6)
C20_6 C 0.2060(7) 0.9461(11) 0.4020(6)
H11_6 H 0.1833 0.9036 0.4153
C21_6 C 0.2047(8) 0.9971(12) 0.4264(5)
H12_6 H 0.1797 0.9889 0.4555
In10_6 In 0.49269(6) 0.82603(6) 0.1667
O21_6 O 0.4369(8) 0.8714(9) 0.1932(3)
O23_6 O 0.5095(7) 0.9476(9) 0.2485(4)
C37_6 C 0.4510(10) 0.9090(12) 0.2316(4)
C38_6 C 0.3948(11) 0.9076(14) 0.2591(5)
C39_6 C 0.4072(10) 0.9451(12) 0.3029(5)
H21_6 H 0.4503 0.9705 0.3148
C40_6 C 0.3549(12) 0.9440(14) 0.3283(7)
H22_6 H 0.3620 0.9673 0.3581
C41_6 C 0.2903(13) 0.9065(16) 0.3076(6)
C42_6 C 0.2794(11) 0.8727(14) 0.2647(6)
H23_6 H 0.2369 0.8500 0.2514
C43_6 C 0.3304(12) 0.8714(15) 0.2403(5)
H24_6 H 0.3222 0.8464 0.2112
O3_4 O 0.6393(5) 0.4519(6) 0.1306(3)
O4_4 O 0.9531(5) 0.6204(5) 0.1157(3)
O5_4 O 0.9402(5) 0.5708(4) 0.1908(3)
O8_7 O 0.4305(7) 0.0000 0.0000
C3_4 C 0.5168(7) 0.4181(7) 0.0347(5)
H1_4 H 0.4779 0.4196 0.0313
C4_4 C 0.5522(6) 0.4386(8) 0.0794(4)
H2_4 H 0.5386 0.4557 0.1053
C5_4 C 0.6077(7) 0.4331(9) 0.0843(5)
C6_4 C 0.6301(8) 0.4111(8) 0.0474(5)
H3_4 H 0.6679 0.4078 0.0518
C7_4 C 0.5961(6) 0.3932(8) 0.0024(5)
C8_4 C 0.9177(6) 0.5830(6) 0.1508(4)
C9_4 C 0.8431(6) 0.5463(7) 0.1442(4)
C10_4 C 0.8031(7) 0.4985(8) 0.1776(5)
H5_4 H 0.8220 0.4890 0.2048
C11_4 C 0.7349(8) 0.4638(9) 0.1717(5)
H6_4 H 0.7077 0.4300 0.1937
C12_4 C 0.7086(7) 0.4815(8) 0.1319(4)
C13_4 C 0.7528(8) 0.5306(9) 0.0962(5)
H7_4 H 0.7358 0.5402 0.0679
C14_4 C 0.8150(7) 0.5605(8) 0.1039(5)
H8_4 H 0.8427 0.5932 0.0814
H10_7 H 0.3661 0.0614 0.0247
C22_7 C 0.3170(8) 0.3169(8) 0.0000
O25_7 O 0.2777(5) 0.3021(5) 0.0373(3)
H27_7 H 0.363717 0.363611 6.90304e-05
O1_4 O 0.5319(5) 0.3645(6) 0.9117(3)
O2_4 O 0.4465(4) 0.3733(5) 0.9448(3)
O6_4 O 0.4620(6) 0.2322(5) 0.8598(3)
O7_4 O 0.3858(5) 0.2286(5) 0.9151(4)
O8_8 O 0.4305(7) 0.0000 1.0000
O9_6 O 0.4185(5) 0.3333 0.8333
O10_4 O 0.3021(5) 0.2777(5) 0.9627(3)
C1_4 C 0.5025(7) 0.3763(7) 0.9463(5)
C2_4 C 0.5388(6) 0.3955(7) 0.9955(4)
H4_4 H 0.6124 0.3793 0.9761
C15_7 C 0.4244(7) 0.2087(7) 0.8982(4)
C16_7 C 0.4258(8) 0.1539(8) 0.9257(5)
C17_7 C 0.3883(7) 0.1288(7) 0.9695(5)
H9_7 H 0.3629 0.1465 0.9814
C18_7 C 0.3894(9) 0.0776(8) 0.9949(7)
C19_7 C 0.4269(9) 0.0505(9) 0.9742(6)
C20_7 C 0.4607(7) 0.0734(8) 0.9313(6)
H11_7 H 0.4834 0.0536 0.9180
C21_7 C 0.4620(8) 0.1257(9) 0.9069(5)
H12_7 H 0.4870 0.1425 0.8778
C22_8 C 0.3170(8) 0.3169(8) 1.0000
O11_6 O 0.6031(7) 0.3333 0.8333
O12_4 O 0.5007(8) 0.3021(6) 0.7549(3)
O13_4 O 0.4065(6) 0.2933(5) 0.7218(3)
O14_4 O 0.5207(8) 0.2147(6) 0.5360(3)
O16_4 O 0.3326(7) 0.3796(5) 0.8843(3)
O20_4 O 0.3693(6) 0.4292(4) 0.8092(3)
C23_4 C 0.4595(10) 0.2903(7) 0.7203(5)
C24_4 C 0.4766(9) 0.2711(7) 0.6711(4)
C25_4 C 0.4320(10) 0.2485(7) 0.6319(5)
H13_4 H 0.3916 0.2470 0.6353
C26_4 C 0.4469(10) 0.2280(8) 0.5872(4)
H14_4 H 0.4162 0.2109 0.5613
C27_4 C 0.5079(11) 0.2335(9) 0.5823(5)
C28_4 C 0.5523(11) 0.2555(8) 0.6192(5)
H15_4 H 0.5934 0.2588 0.6148
C29_4 C 0.5362(10) 0.2734(8) 0.6642(5)
H16_4 H 0.5664 0.2873 0.6905
C30_4 C 0.6680(8) 0.0836(6) 0.5158(4)
C31_4 C 0.6301(9) 0.1203(7) 0.5224(4)
C32_4 C 0.6379(11) 0.1681(8) 0.4890(5)
H17_4 H 0.6663 0.1776 0.4618
C33_4 C 0.6044(12) 0.2028(9) 0.4949(5)
H18_4 H 0.6110 0.2366 0.4729
C34_4 C 0.5604(11) 0.1851(8) 0.5347(4)
C35_4 C 0.5555(12) 0.1360(9) 0.5704(5)
H19_4 H 0.5289 0.1264 0.5987
C36_4 C 0.5878(11) 0.1061(8) 0.5627(5)
H20_4 H 0.5828 0.0734 0.5852
O8_9 O 0.4305(7) 1.0000 0.0000
O21_7 O 0.2297(8) 0.7678(5) 0.1402(3)
O23_7 O 0.1571(7) 0.7714(5) 0.0849(4)
C37_7 C 0.2156(10) 0.7913(7) 0.1018(4)
C38_7 C 0.2718(11) 0.8461(8) 0.0743(5)
C39_7 C 0.2594(10) 0.8712(7) 0.0305(5)
H21_7 H 0.2163 0.8535 0.0186
C40_7 C 0.3117(12) 0.9224(8) 0.0051(7)
C41_7 C 0.3763(13) 0.9495(9) 0.0258(6)
C42_7 C 0.3872(11) 0.9266(8) 0.0687(6)
H23_7 H 0.4297 0.9464 0.0820
C43_7 C 0.3362(12) 0.8743(9) 0.0931(5)
H24_7 H 0.3444 0.8575 0.1222
O8_10 O 0.4305(7) 1.0000 1.0000
H22_7 H 0.3046 0.9386 0.9753
O8_11 O -0.0000 0.4304(7) 0.0000
O21_8 O 0.2322(5) 0.4620(9) 0.1402(3)
O23_8 O 0.2286(5) 0.3858(9) 0.0849(4)
C37_8 C 0.2087(7) 0.4244(12) 0.1018(4)
C38_8 C 0.1539(8) 0.4258(14) 0.0743(5)
C39_8 C 0.1288(7) 0.3883(12) 0.0305(5)
H21_8 H 0.1465 0.3629 0.0186
C40_8 C 0.0776(8) 0.3894(14) 0.0051(7)
C41_8 C 0.0505(9) 0.4269(16) 0.0258(6)
C42_8 C 0.0734(8) 0.4607(14) 0.0687(6)
H23_8 H 0.0536 0.4834 0.0820
C43_8 C 0.1257(9) 0.4620(15) 0.0931(5)
H24_8 H 0.1425 0.4870 0.1222
O8_12 O -0.0000 0.4304(7) 1.0000
H22_8 H 0.0614 0.3661 0.9753
O3_5 O 0.5481(6) 0.1873(8) 0.1306(3)
O4_5 O 0.3796(5) 0.3326(7) 0.1157(3)
O5_5 O 0.4292(4) 0.3693(6) 0.1908(3)
O8_13 O 1.0000 0.4304(7) 0.0000
C3_5 C 0.5819(7) 0.0986(10) 0.0347(5)
H1_5 H 0.5804 0.0582 0.0313
C4_5 C 0.5614(8) 0.1135(10) 0.0794(4)
H2_5 H 0.5443 0.0828 0.1053
C5_5 C 0.5669(9) 0.1745(11) 0.0843(5)
C6_5 C 0.5889(8) 0.2189(11) 0.0474(5)
H3_5 H 0.5922 0.2600 0.0518
C7_5 C 0.6068(8) 0.2028(10) 0.0024(5)
C8_5 C 0.4170(6) 0.3346(8) 0.1508(4)
C9_5 C 0.4537(7) 0.2967(9) 0.1442(4)
C10_5 C 0.5015(8) 0.3045(11) 0.1776(5)
H5_5 H 0.5110 0.3329 0.2048
C11_5 C 0.5362(9) 0.2710(12) 0.1717(5)
H6_5 H 0.5700 0.2776 0.1937
C12_5 C 0.5185(8) 0.2270(11) 0.1319(4)
C13_5 C 0.4694(9) 0.2221(12) 0.0962(5)
H7_5 H 0.4598 0.1955 0.0679
C14_5 C 0.4395(8) 0.2544(11) 0.1039(5)
H8_5 H 0.4068 0.2494 0.0814
H10_8 H 0.9386 0.3046 0.0247
C22_9 C 0.6831(8) 0.0000(11) 0.0000
H27_8 H 0.636389 0.000105177 6.90304e-05
O1_5 O 0.6355(6) 0.1673(8) 0.9117(3)
O2_5 O 0.6267(5) 0.0731(6) 0.9448(3)
O6_5 O 0.7678(5) 0.2297(8) 0.8598(3)
O7_5 O 0.7714(5) 0.1571(7) 0.9151(4)
O8_14 O 1.0000 0.4304(7) 1.0000
O9_7 O 0.6667 0.0851(5) 0.8333
O10_5 O 0.7223(5) 0.0243(7) 0.9627(3)
C1_5 C 0.6237(7) 0.1261(10) 0.9463(5)
C2_5 C 0.6045(7) 0.1432(9) 0.9955(4)
H4_5 H 0.6207 0.2330 0.9761
C15_8 C 0.7913(7) 0.2156(10) 0.8982(4)
C16_8 C 0.8461(8) 0.2718(11) 0.9257(5)
C17_8 C 0.8712(7) 0.2594(10) 0.9695(5)
H9_8 H 0.8535 0.2163 0.9814
C18_8 C 0.9224(8) 0.3117(12) 0.9949(7)
C19_8 C 0.9495(9) 0.3763(13) 0.9742(6)
C20_8 C 0.9266(8) 0.3872(11) 0.9313(6)
H11_8 H 0.9464 0.4297 0.9180
C21_8 C 0.8743(9) 0.3362(12) 0.9069(5)
H12_8 H 0.8575 0.3444 0.8778
C22_10 C 0.6831(8) 0.0000(11) 1.0000
O11_7 O 0.6667 0.2697(7) 0.8333
O12_5 O 0.6979(6) 0.1985(10) 0.7549(3)
O13_5 O 0.7067(5) 0.1131(8) 0.7218(3)
O14_5 O 0.7853(6) 0.3059(10) 0.5360(3)
C23_5 C 0.7097(7) 0.1691(12) 0.7203(5)
C24_5 C 0.7289(7) 0.2054(11) 0.6711(4)
C25_5 C 0.7515(7) 0.1834(12) 0.6319(5)
H13_5 H 0.7530 0.1445 0.6353
C26_5 C 0.7720(8) 0.2188(13) 0.5872(4)
H14_5 H 0.7891 0.2052 0.5613
C27_5 C 0.7665(9) 0.2743(14) 0.5823(5)
C28_5 C 0.7445(8) 0.2967(14) 0.6192(5)
H15_5 H 0.7412 0.3345 0.6148
C29_5 C 0.7266(8) 0.2627(13) 0.6642(5)
H16_5 H 0.7127 0.2790 0.6905
C30_5 C 0.9164(6) 0.5843(10) 0.5158(4)
C31_5 C 0.8797(7) 0.5097(11) 0.5224(4)
C32_5 C 0.8319(8) 0.4697(14) 0.4890(5)
H17_5 H 0.8224 0.4886 0.4618
C33_5 C 0.7972(9) 0.4015(15) 0.4949(5)
H18_5 H 0.7634 0.3743 0.4729
C34_5 C 0.8149(8) 0.3752(14) 0.5347(4)
C35_5 C 0.8640(9) 0.4194(15) 0.5704(5)
H19_5 H 0.8736 0.4024 0.5987
C36_5 C 0.8939(8) 0.4816(14) 0.5627(5)
H20_5 H 0.9266 0.5093 0.5852
C22_11 C 0.6831(8) 1.0000(11) 0.0000
O25_8 O 0.6979(5) 0.9757(7) 0.0373(3)
C22_12 C 0.6831(8) 1.0000(11) 1.0000
O16_5 O 0.6204(5) 0.9531(9) 0.8843(3)
O20_5 O 0.5708(4) 0.9402(7) 0.8092(3)
C22_13 C -0.0000(11) 0.6830(8) 0.0000
O25_9 O 0.0243(7) 0.7223(5) 0.0373(3)
C22_14 C -0.0000(11) 0.6830(8) 1.0000
O16_6 O 0.0469(9) 0.6674(7) 0.8843(3)
O20_6 O 0.0598(7) 0.6307(6) 0.8092(3)
O3_6 O 0.8127(8) 0.3607(5) 0.1306(3)
O4_6 O 0.6674(7) 0.0469(5) 0.1157(3)
O5_6 O 0.6307(6) 0.0598(5) 0.1908(3)
O8_15 O 0.5696(7) 0.5695(7) 0.0000
C3_6 C 0.9014(10) 0.4832(7) 0.0347(5)
H1_6 H 0.9418 0.5221 0.0313
C4_6 C 0.8865(10) 0.4478(6) 0.0794(4)
H2_6 H 0.9172 0.4614 0.1053
C5_6 C 0.8255(11) 0.3923(7) 0.0843(5)
C6_6 C 0.7811(11) 0.3699(8) 0.0474(5)
H3_6 H 0.7400 0.3321 0.0518
C7_6 C 0.7972(10) 0.4039(6) 0.0024(5)
C8_6 C 0.6654(8) 0.0823(6) 0.1508(4)
C9_6 C 0.7033(9) 0.1569(6) 0.1442(4)
C10_6 C 0.6955(11) 0.1969(7) 0.1776(5)
H5_6 H 0.6671 0.1780 0.2048
C11_6 C 0.7290(12) 0.2651(8) 0.1717(5)
H6_6 H 0.7224 0.2923 0.1937
C12_6 C 0.7730(11) 0.2914(7) 0.1319(4)
C13_6 C 0.7779(12) 0.2472(8) 0.0962(5)
H7_6 H 0.8045 0.2642 0.0679
C14_6 C 0.7456(11) 0.1850(7) 0.1039(5)
H8_6 H 0.7506 0.1573 0.0814
H10_9 H 0.6954 0.6339 0.0247
C22_15 C 1.0000(11) 0.6830(8) 0.0000
O21_9 O 0.5380(9) 0.7703(8) 0.1402(3)
O23_9 O 0.6142(9) 0.8429(7) 0.0849(4)
C37_9 C 0.5756(12) 0.7844(10) 0.1018(4)
C38_9 C 0.5742(14) 0.7282(11) 0.0743(5)
C39_9 C 0.6117(12) 0.7406(10) 0.0305(5)
H21_9 H 0.6371 0.7837 0.0186
C40_9 C 0.6106(14) 0.6883(12) 0.0051(7)
C41_9 C 0.5731(16) 0.6237(13) 0.0258(6)
C42_9 C 0.5393(14) 0.6128(11) 0.0687(6)
H23_9 H 0.5166 0.5703 0.0820
C43_9 C 0.5380(15) 0.6638(12) 0.0931(5)
H24_9 H 0.5130 0.6556 0.1222
H27_9 H 0.999895 0.636283 6.90304e-05
O1_6 O 0.8327(8) 0.4681(5) 0.9117(3)
O2_6 O 0.9269(6) 0.5535(4) 0.9448(3)
O6_6 O 0.7703(8) 0.5380(6) 0.8598(3)
O7_6 O 0.8429(7) 0.6142(5) 0.9151(4)
O8_16 O 0.5696(7) 0.5695(7) 1.0000
O9_8 O 0.9149(5) 0.5815(5) 0.8333
O10_6 O 0.9757(7) 0.6979(5) 0.9627(3)
C1_6 C 0.8739(10) 0.4975(7) 0.9463(5)
C2_6 C 0.8568(9) 0.4612(6) 0.9955(4)
H4_6 H 0.7670 0.3876 0.9761
C15_9 C 0.7844(10) 0.5756(7) 0.8982(4)
C16_9 C 0.7282(11) 0.5742(8) 0.9257(5)
C17_9 C 0.7406(10) 0.6117(7) 0.9695(5)
H9_9 H 0.7837 0.6371 0.9814
C18_9 C 0.6883(12) 0.6106(9) 0.9949(7)
C19_9 C 0.6237(13) 0.5731(9) 0.9742(6)
C20_9 C 0.6128(11) 0.5393(7) 0.9313(6)
H11_9 H 0.5703 0.5166 0.9180
C21_9 C 0.6638(12) 0.5380(8) 0.9069(5)
H12_9 H 0.6556 0.5130 0.8778
C22_16 C 1.0000(11) 0.6830(8) 1.0000
O11_8 O 0.7303(7) 0.3969(7) 0.8333
O12_6 O 0.8015(10) 0.4993(8) 0.7549(3)
O13_6 O 0.8869(8) 0.5935(6) 0.7218(3)
O14_6 O 0.6941(10) 0.4793(8) 0.5360(3)
C23_6 C 0.8309(12) 0.5405(10) 0.7203(5)
C24_6 C 0.7946(11) 0.5234(9) 0.6711(4)
C25_6 C 0.8166(12) 0.5680(10) 0.6319(5)
H13_6 H 0.8555 0.6084 0.6353
C26_6 C 0.7812(13) 0.5531(10) 0.5872(4)
H14_6 H 0.7948 0.5838 0.5613
C27_6 C 0.7257(14) 0.4921(11) 0.5823(5)
C28_6 C 0.7033(14) 0.4477(11) 0.6192(5)
H15_6 H 0.6655 0.4066 0.6148
C29_6 C 0.7373(13) 0.4638(10) 0.6642(5)
H16_6 H 0.7210 0.4336 0.6905
C30_6 C 0.4157(10) 0.3320(8) 0.5158(4)
C31_6 C 0.4903(11) 0.3699(9) 0.5224(4)
C32_6 C 0.5303(14) 0.3621(11) 0.4890(5)
H17_6 H 0.5114 0.3337 0.4618
C33_6 C 0.5985(15) 0.3956(12) 0.4949(5)
H18_6 H 0.6257 0.3890 0.4729
C34_6 C 0.6248(14) 0.4396(11) 0.5347(4)
C35_6 C 0.5806(15) 0.4445(12) 0.5704(5)
H19_6 H 0.5976 0.4711 0.5987
C36_6 C 0.5184(14) 0.4122(11) 0.5627(5)
H20_6 H 0.4907 0.4172 0.5852
H22_9 H 0.6339 0.6954 0.9753
O1_7 O 0.1985(5) 0.6979(6) 0.2451(3)
O2_7 O 0.1131(4) 0.7067(5) 0.2782(3)
O3_7 O 0.3059(5) 0.7853(6) 0.4640(3)
O9_9 O 0.0851(5) 0.6667 0.1667
C1_7 C 0.1691(7) 0.7097(7) 0.2797(5)
C2_7 C 0.2054(6) 0.7289(7) 0.3289(4)
C3_7 C 0.1834(7) 0.7515(7) 0.3681(5)
H1_7 H 0.1445 0.7530 0.3647
C4_7 C 0.2188(6) 0.7720(8) 0.4128(4)
H2_7 H 0.2052 0.7891 0.4387
C5_7 C 0.2743(7) 0.7665(9) 0.4177(5)
C6_7 C 0.2967(8) 0.7445(8) 0.3808(5)
H3_7 H 0.3345 0.7412 0.3852
C7_7 C 0.2627(6) 0.7266(8) 0.3358(5)
H4_7 H 0.2790 0.7127 0.3095
C8_7 C 0.5843(6) 0.9164(6) 0.4842(4)
C9_7 C 0.5097(6) 0.8797(7) 0.4776(4)
C10_7 C 0.4697(7) 0.8319(8) 0.5110(5)
H5_7 H 0.4886 0.8224 0.5382
C11_7 C 0.4015(8) 0.7972(9) 0.5051(5)
H6_7 H 0.3743 0.7634 0.5271
C12_7 C 0.3752(7) 0.8149(8) 0.4653(4)
C13_7 C 0.4194(8) 0.8640(9) 0.4296(5)
H7_7 H 0.4024 0.8736 0.4013
C14_7 C 0.4816(7) 0.8939(8) 0.4373(5)
H8_7 H 0.5093 0.9266 0.4148
O11_9 O 0.2697(7) 0.6667 0.1667
O12_7 O 0.1673(8) 0.6355(6) 0.0883(3)
O13_7 O 0.0731(6) 0.6267(5) 0.0552(3)
C23_7 C 0.1261(10) 0.6237(7) 0.0537(5)
C24_7 C 0.1432(9) 0.6045(7) 0.0045(4)
H16_7 H 0.2330 0.6207 0.0239
O14_7 O 0.1873(8) 0.5481(6) 0.8694(3)
C25_7 C 0.0986(10) 0.5819(7) 0.9653(5)
H13_7 H 0.0582 0.5804 0.9687
C26_7 C 0.1135(10) 0.5614(8) 0.9206(4)
H14_7 H 0.0828 0.5443 0.8947
C27_7 C 0.1745(11) 0.5669(9) 0.9157(5)
C28_7 C 0.2189(11) 0.5889(8) 0.9526(5)
H15_7 H 0.2600 0.5922 0.9482
C29_7 C 0.2028(10) 0.6068(8) 0.9976(5)
C30_7 C 0.3346(8) 0.4170(6) 0.8492(4)
C31_7 C 0.2967(9) 0.4537(7) 0.8558(4)
C32_7 C 0.3045(11) 0.5015(8) 0.8224(5)
H17_7 H 0.3329 0.5110 0.7952
C33_7 C 0.2710(12) 0.5362(9) 0.8283(5)
H18_7 H 0.2776 0.5700 0.8063
C34_7 C 0.2270(11) 0.5185(8) 0.8681(4)
C35_7 C 0.2221(12) 0.4694(9) 0.9038(5)
H19_7 H 0.1955 0.4598 0.9321
C36_7 C 0.2544(11) 0.4395(8) 0.8961(5)
H20_7 H 0.2494 0.4068 0.9186
O1_8 O 0.3021(6) 0.5007(8) 0.2451(3)
O2_8 O 0.2933(5) 0.4065(6) 0.2782(3)
O3_8 O 0.2147(6) 0.5207(8) 0.4640(3)
O9_10 O 0.3333 0.4185(5) 0.1667
C1_8 C 0.2903(7) 0.4595(10) 0.2797(5)
C2_8 C 0.2711(7) 0.4766(9) 0.3289(4)
C3_8 C 0.2485(7) 0.4320(10) 0.3681(5)
H1_8 H 0.2470 0.3916 0.3647
C4_8 C 0.2280(8) 0.4469(10) 0.4128(4)
H2_8 H 0.2109 0.4162 0.4387
C5_8 C 0.2335(9) 0.5079(11) 0.4177(5)
C6_8 C 0.2555(8) 0.5523(11) 0.3808(5)
H3_8 H 0.2588 0.5934 0.3852
C7_8 C 0.2734(8) 0.5362(10) 0.3358(5)
H4_8 H 0.2873 0.5664 0.3095
C8_8 C 0.0836(6) 0.6680(8) 0.4842(4)
C9_8 C 0.1203(7) 0.6301(9) 0.4776(4)
C10_8 C 0.1681(8) 0.6379(11) 0.5110(5)
H5_8 H 0.1776 0.6663 0.5382
C11_8 C 0.2028(9) 0.6044(12) 0.5051(5)
H6_8 H 0.2366 0.6110 0.5271
C12_8 C 0.1851(8) 0.5604(11) 0.4653(4)
C13_8 C 0.1360(9) 0.5555(12) 0.4296(5)
H7_8 H 0.1264 0.5289 0.4013
C14_8 C 0.1061(8) 0.5878(11) 0.4373(5)
H8_8 H 0.0734 0.5828 0.4148
O11_10 O 0.3333 0.6031(7) 0.1667
O12_8 O 0.3645(6) 0.5319(10) 0.0883(3)
O13_8 O 0.3733(5) 0.4465(8) 0.0552(3)
C23_8 C 0.3763(7) 0.5025(12) 0.0537(5)
C24_8 C 0.3955(7) 0.5388(11) 0.0045(4)
H16_8 H 0.3793 0.6124 0.0239
O14_8 O 0.4519(6) 0.6393(10) 0.8694(3)
C25_8 C 0.4181(7) 0.5168(12) 0.9653(5)
H13_8 H 0.4196 0.4779 0.9687
C26_8 C 0.4386(8) 0.5522(13) 0.9206(4)
H14_8 H 0.4557 0.5386 0.8947
C27_8 C 0.4331(9) 0.6077(14) 0.9157(5)
C28_8 C 0.4111(8) 0.6301(14) 0.9526(5)
H15_8 H 0.4078 0.6679 0.9482
C29_8 C 0.3932(8) 0.5961(13) 0.9976(5)
C30_8 C 0.5830(6) 0.9177(10) 0.8492(4)
C31_8 C 0.5463(7) 0.8431(11) 0.8558(4)
C32_8 C 0.4985(8) 0.8031(14) 0.8224(5)
H17_8 H 0.4890 0.8220 0.7952
C33_8 C 0.4638(9) 0.7349(15) 0.8283(5)
H18_8 H 0.4300 0.7077 0.8063
C34_8 C 0.4815(8) 0.7086(14) 0.8681(4)
C35_8 C 0.5306(9) 0.7528(15) 0.9038(5)
H19_8 H 0.5402 0.7358 0.9321
C36_8 C 0.5605(8) 0.8150(14) 0.8961(5)
H20_8 H 0.5932 0.8427 0.9186
O1_9 O 0.4993(8) 0.8015(5) 0.2451(3)
O2_9 O 0.5935(6) 0.8869(4) 0.2782(3)
O3_9 O 0.4793(8) 0.6941(5) 0.4640(3)
O9_11 O 0.5815(5) 0.9149(5) 0.1667
C1_9 C 0.5405(10) 0.8309(7) 0.2797(5)
C2_9 C 0.5234(9) 0.7946(6) 0.3289(4)
C3_9 C 0.5680(10) 0.8166(7) 0.3681(5)
H1_9 H 0.6084 0.8555 0.3647
C4_9 C 0.5531(10) 0.7812(6) 0.4128(4)
H2_9 H 0.5838 0.7948 0.4387
C5_9 C 0.4921(11) 0.7257(7) 0.4177(5)
C6_9 C 0.4477(11) 0.7033(8) 0.3808(5)
H3_9 H 0.4066 0.6655 0.3852
C7_9 C 0.4638(10) 0.7373(6) 0.3358(5)
H4_9 H 0.4336 0.7210 0.3095
C8_9 C 0.3320(8) 0.4157(6) 0.4842(4)
C9_9 C 0.3699(9) 0.4903(6) 0.4776(4)
C10_9 C 0.3621(11) 0.5303(7) 0.5110(5)
H5_9 H 0.3337 0.5114 0.5382
C11_9 C 0.3956(12) 0.5985(8) 0.5051(5)
H6_9 H 0.3890 0.6257 0.5271
C12_9 C 0.4396(11) 0.6248(7) 0.4653(4)
C13_9 C 0.4445(12) 0.5806(8) 0.4296(5)
H7_9 H 0.4711 0.5976 0.4013
C14_9 C 0.4122(11) 0.5184(7) 0.4373(5)
H8_9 H 0.4172 0.4907 0.4148
O11_11 O 0.3969(7) 0.7303(7) 0.1667
O12_9 O 0.4681(10) 0.8327(8) 0.0883(3)
O13_9 O 0.5535(8) 0.9269(6) 0.0552(3)
C23_9 C 0.4975(12) 0.8739(10) 0.0537(5)
C24_9 C 0.4612(11) 0.8568(9) 0.0045(4)
H16_9 H 0.3876 0.7670 0.0239
O14_9 O 0.3607(10) 0.8127(8) 0.8694(3)
C25_9 C 0.4832(12) 0.9014(10) 0.9653(5)
H13_9 H 0.5221 0.9418 0.9687
C26_9 C 0.4478(13) 0.8865(10) 0.9206(4)
H14_9 H 0.4614 0.9172 0.8947
C27_9 C 0.3923(14) 0.8255(11) 0.9157(5)
C28_9 C 0.3699(14) 0.7811(11) 0.9526(5)
H15_9 H 0.3321 0.7400 0.9482
C29_9 C 0.4039(13) 0.7972(10) 0.9976(5)
C30_9 C 0.0823(10) 0.6654(8) 0.8492(4)
C31_9 C 0.1569(11) 0.7033(9) 0.8558(4)
C32_9 C 0.1969(14) 0.6955(11) 0.8224(5)
H17_9 H 0.1780 0.6671 0.7952
C33_9 C 0.2651(15) 0.7290(12) 0.8283(5)
H18_9 H 0.2923 0.7224 0.8063
C34_9 C 0.2914(14) 0.7730(11) 0.8681(4)
C35_9 C 0.2472(15) 0.7779(12) 0.9038(5)
H19_9 H 0.2642 0.8045 0.9321
C36_9 C 0.1850(14) 0.7456(11) 0.8961(5)
H20_9 H 0.1573 0.7506 0.9186
H27_10 H 0.363611 0.363717 0.999931
H27_11 H 0.000105177 0.636389 0.999931
H27_12 H 0.636283 0.999895 0.999931
loop_
_geom_bond_atom_site_label_1
_geom_bond_atom_site_label_2
_geom_bond_site_symmetry_1
_geom_bond_site_symmetry_2
O4 C8 1_555 1_555
O5 C8 1_555 1_555
C8 C9 1_555 1_555
C9 C10 1_555 1_555
C10 H5 1_555 1_555
C11 C10 1_555 1_555
H6 C11 1_555 1_555
C13 C12 1_555 1_555
H7 C13 1_555 1_555
C14 C9 1_555 1_555
H8 C14 1_555 1_555
In4 O4 1_555 1_555
In5 O5 1_555 1_555
C11 C12 1_555 1_555
C13 C14 1_555 1_555
In9 O18 1_555 1_555
O18 C30 1_555 1_555
In2 O1 1_555 1_555
O1 C1 1_555 1_555
O2 C1 1_555 1_555
O3 C5 1_555 1_555
C1 C2 1_555 1_555
C2 C3 1_555 1_555
C3 H1 1_555 1_555
C4 C3 1_555 1_555
H2 C4 1_555 1_555
C5 C4 1_555 1_555
C6 C5 1_555 1_555
C7 C2 1_555 1_555
H4 C7 1_555 1_555
O11 In2 1_555 1_555
In3 O9 1_555 1_555
O20 In3 1_555 1_555
O22 In2 1_555 1_555
O24 In3 1_555 1_555
O26 In3 1_555 1_555
In2 O9 1_555 1_555
C6 C7 1_555 1_555
O6 In2_2 1_555 1_555
O7 In1 1_555 1_555
O8 C19 1_555 1_555
O9_2 In1 1_555 1_555
O10 In1 1_555 1_555
C15 O6 1_555 1_555
C16 C15 1_555 1_555
C17 C16 1_555 1_555
H9 C17 1_555 1_555
C18 C17 1_555 1_555
H10 C18 1_555 1_555
C19 C18 1_555 1_555
C20 C19 1_555 1_555
H11 C20 1_555 1_555
C21 C16 1_555 1_555
H12 C21 1_555 1_555
C22 O10 1_555 1_555
O11_2 In2_2 1_555 1_555
In4 O23 1_555 1_555
In10 O21 1_555 1_555
O12 In2_2 1_555 1_555
O14 C27 1_555 1_555
O19 In1 1_555 1_555
O21 C37 1_555 1_555
O23 C37 1_555 1_555
O25 C22 1_555 1_555
C23 O12 1_555 1_555
C24 C23 1_555 1_555
C25 C24 1_555 1_555
H13 C25 1_555 1_555
C26 C25 1_555 1_555
H14 C26 1_555 1_555
C27 C26 1_555 1_555
C28 C27 1_555 1_555
H15 C28 1_555 1_555
C29 C24 1_555 1_555
H16 C29 1_555 1_555
C31 C32 1_555 1_555
C32 H17 1_555 1_555
C33 C32 1_555 1_555
H18 C33 1_555 1_555
C34 O14 1_555 1_555
C35 C34 1_555 1_555
H19 C35 1_555 1_555
C36 C31 1_555 1_555
H20 C36 1_555 1_555
C37 C38 1_555 1_555
C38 C39 1_555 1_555
C39 H21 1_555 1_555
C40 C39 1_555 1_555
H22 C40 1_555 1_555
C41 O8 1_555 1_555
C42 C41 1_555 1_555
H23 C42 1_555 1_555
C43 C38 1_555 1_555
H24 C43 1_555 1_555
In2_2 O9_2 1_555 1_555
O7 C15 1_555 1_555
C20 C21 1_555 1_555
O13 C23 1_555 1_555
C28 C29 1_555 1_555
C33 C34 1_555 1_555
C35 C36 1_555 1_555
C40 C41 1_555 1_555
C42 C43 1_555 1_555
O11_2 H25 1_555 1_555
O11_2 H26 1_555 1_555
O8_2 C19_2 1_555 1_555
C20_2 C19_2 1_555 1_555
H11_2 C20_2 1_555 1_555
H12_2 C21_2 1_555 1_555
In7 O23_2 1_555 1_555
In8_2 O15_2 1_555 1_555
In9_2 O18_2 1_555 1_555
In10_2 O21_2 1_555 1_555
O15_2 C30_2 1_555 1_555
O18_2 C30_2 1_555 1_555
O21_2 C37_2 1_555 1_555
O23_2 C37_2 1_555 1_555
C30_2 C31_2 1_555 1_555
C31_2 C32_2 1_555 1_555
C32_2 H17_2 1_555 1_555
C33_2 C32_2 1_555 1_555
H18_2 C33_2 1_555 1_555
C35_2 C34_2 1_555 1_555
H19_2 C35_2 1_555 1_555
C36_2 C31_2 1_555 1_555
H20_2 C36_2 1_555 1_555
C37_2 C38_2 1_555 1_555
C38_2 C39_2 1_555 1_555
C39_2 H21_2 1_555 1_555
C40_2 C39_2 1_555 1_555
H22_2 C40_2 1_555 1_555
C41_2 O8_2 1_555 1_555
C42_2 C41_2 1_555 1_555
H23_2 C42_2 1_555 1_555
C43_2 C38_2 1_555 1_555
H24_2 C43_2 1_555 1_555
C20_2 C21_2 1_555 1_555
C33_2 C34_2 1_555 1_555
C35_2 C36_2 1_555 1_555
C40_2 C41_2 1_555 1_555
C42_2 C43_2 1_555 1_555
O6_2 In2_3 1_555 1_555
O7_2 In1_2 1_555 1_555
O9_3 In1_2 1_555 1_555
O10_2 In1_2 1_555 1_555
C15_2 O6_2 1_555 1_555
C16_2 C15_2 1_555 1_555
C17_2 C16_2 1_555 1_555
H9_2 C17_2 1_555 1_555
C18_2 C17_2 1_555 1_555
H10_2 C18_2 1_555 1_555
C22_2 O10_2 1_555 1_555
O11_3 In2_3 1_555 1_555
O12_2 In2_3 1_555 1_555
O14_2 C27_2 1_555 1_555
O19_2 In1_2 1_555 1_555
O25_2 C22_2 1_555 1_555
C23_2 O12_2 1_555 1_555
C24_2 C23_2 1_555 1_555
C25_2 C24_2 1_555 1_555
H13_2 C25_2 1_555 1_555
C26_2 C25_2 1_555 1_555
H14_2 C26_2 1_555 1_555
C27_2 C26_2 1_555 1_555
C28_2 C27_2 1_555 1_555
C29_2 C24_2 1_555 1_555
H16_2 C29_2 1_555 1_555
In2_3 O9_3 1_555 1_555
O7_2 C15_2 1_555 1_555
O13_2 C23_2 1_555 1_555
C28_2 C29_2 1_555 1_555
O11_3 H25_2 1_555 1_555
O11_3 H26_2 1_555 1_555
O5_2 C8_2 1_555 1_555
In5_2 O5_2 1_555 1_555
In2_4 O1_2 1_555 1_555
O1_2 C1_2 1_555 1_555
O2_2 C1_2 1_555 1_555
O3_2 C5_2 1_555 1_555
C1_2 C2_2 1_555 1_555
C2_2 C3_2 1_555 1_555
C3_2 H1_2 1_555 1_555
C4_2 C3_2 1_555 1_555
H2_2 C4_2 1_555 1_555
C5_2 C4_2 1_555 1_555
C6_2 C5_2 1_555 1_555
H3_2 C6_2 1_555 1_555
C7_2 C2_2 1_555 1_555
H4_2 C7_2 1_555 1_555
C9_2 C10_2 1_555 1_555
C10_2 H5_2 1_555 1_555
C11_2 C10_2 1_555 1_555
H6_2 C11_2 1_555 1_555
C12_2 O3_2 1_555 1_555
C13_2 C12_2 1_555 1_555
H7_2 C13_2 1_555 1_555
C14_2 C9_2 1_555 1_555
H8_2 C14_2 1_555 1_555
O11_4 In2_4 1_555 1_555
In3_2 O9_4 1_555 1_555
O20_2 In3_2 1_555 1_555
O22_2 In2_4 1_555 1_555
O24_2 In3_2 1_555 1_555
O26_2 In3_2 1_555 1_555
In2_4 O9_4 1_555 1_555
C6_2 C7_2 1_555 1_555
C11_2 C12_2 1_555 1_555
C13_2 C14_2 1_555 1_555
In1_3 O2_3 1_555 1_555
In2_5 O1_3 1_555 1_555
O1_3 C1_3 1_555 1_555
O2_3 C1_3 1_555 1_555
O3_3 C5_3 1_555 1_555
O6_3 In2_5 1_555 1_555
O7_3 In1_3 1_555 1_555
O9_5 In1_3 1_555 1_555
O10_3 In1_3 1_555 1_555
C1_3 C2_3 1_555 1_555
C2_3 C3_3 1_555 1_555
C3_3 H1_3 1_555 1_555
C4_3 C3_3 1_555 1_555
H2_3 C4_3 1_555 1_555
C5_3 C4_3 1_555 1_555
C6_3 C5_3 1_555 1_555
C7_3 C2_3 1_555 1_555
H4_3 C7_3 1_555 1_555
C15_3 O6_3 1_555 1_555
C16_3 C15_3 1_555 1_555
C17_3 C16_3 1_555 1_555
H9_3 C17_3 1_555 1_555
C18_3 C17_3 1_555 1_555
H10_3 C18_3 1_555 1_555
C22_3 O10_3 1_555 1_555
O11_5 In2_5 1_555 1_555
In3_3 O9_5 1_555 1_555
In4 O25_3 1_555 1_555
O12_3 In2_5 1_555 1_555
O13_3 In3_3 1_555 1_555
O14_3 C27_3 1_555 1_555
O16_3 In1_3 1_555 1_555
O17_3 In3_3 1_555 1_555
O19_3 In1_3 1_555 1_555
O20_3 In3_3 1_555 1_555
O22_3 In2_5 1_555 1_555
O24_3 In3_3 1_555 1_555
O25_3 C22_3 1_555 1_555
O26_3 In3_3 1_555 1_555
C23_3 O12_3 1_555 1_555
C24_3 C23_3 1_555 1_555
C25_3 C24_3 1_555 1_555
H13_3 C25_3 1_555 1_555
C26_3 C25_3 1_555 1_555
H14_3 C26_3 1_555 1_555
C27_3 C26_3 1_555 1_555
C28_3 C27_3 1_555 1_555
C29_3 C24_3 1_555 1_555
H16_3 C29_3 1_555 1_555
In2_5 O9_5 1_555 1_555
O7_3 C15_3 1_555 1_555
C6_3 C7_3 1_555 1_555
O13_3 C23_3 1_555 1_555
C28_3 C29_3 1_555 1_555
C22_3 H27_3 1_555 1_555
C9_3 C10_3 1_555 1_555
C10_3 H5_3 1_555 1_555
C11_3 C10_3 1_555 1_555
H6_3 C11_3 1_555 1_555
C13_3 C12_3 1_555 1_555
H7_3 C13_3 1_555 1_555
C14_3 C9_3 1_555 1_555
H8_3 C14_3 1_555 1_555
C11_3 C12_3 1_555 1_555
C13_3 C14_3 1_555 1_555
O8_3 C19_3 1_555 1_555
C20_3 C19_3 1_555 1_555
H11_3 C20_3 1_555 1_555
H12_3 C21_3 1_555 1_555
In7_2 O23_3 1_555 1_555
In10_3 O21_3 1_555 1_555
O21_3 C37_3 1_555 1_555
O23_3 C37_3 1_555 1_555
C31_3 C32_3 1_555 1_555
C32_3 H17_3 1_555 1_555
C33_3 C32_3 1_555 1_555
H18_3 C33_3 1_555 1_555
C35_3 C34_3 1_555 1_555
H19_3 C35_3 1_555 1_555
C36_3 C31_3 1_555 1_555
H20_3 C36_3 1_555 1_555
C37_3 C38_3 1_555 1_555
C38_3 C39_3 1_555 1_555
C39_3 H21_3 1_555 1_555
C40_3 C39_3 1_555 1_555
H22_3 C40_3 1_555 1_555
C41_3 O8_3 1_555 1_555
C42_3 C41_3 1_555 1_555
H23_3 C42_3 1_555 1_555
C43_3 C38_3 1_555 1_555
H24_3 C43_3 1_555 1_555
C20_3 C21_3 1_555 1_555
C33_3 C34_3 1_555 1_555
C35_3 C36_3 1_555 1_555
C40_3 C41_3 1_555 1_555
C42_3 C43_3 1_555 1_555
O5_3 C8_3 1_555 1_555
In5_3 O5_3 1_555 1_555
In9_3 O18_3 1_555 1_555
O18_3 C30_3 1_555 1_555
O8_4 C19_4 1_555 1_555
C15_4 O22_2 1_555 1_555
C16_4 C15_4 1_555 1_555
C17_4 C16_4 1_555 1_555
H9_4 C17_4 1_555 1_555
C18_4 C17_4 1_555 1_555
H10_4 C18_4 1_555 1_555
C19_4 C18_4 1_555 1_555
C20_4 C19_4 1_555 1_555
H11_4 C20_4 1_555 1_555
C21_4 C16_4 1_555 1_555
H12_4 C21_4 1_555 1_555
C22_4 O26_2 1_555 1_555
In8_2 O23_4 1_555 1_555
In10_4 O21_4 1_555 1_555
O21_4 C37_4 1_555 1_555
O23_4 C37_4 1_555 1_555
O25_4 C22_4 1_555 1_555
C37_4 C38_4 1_555 1_555
C38_4 C39_4 1_555 1_555
C39_4 H21_4 1_555 1_555
C40_4 C39_4 1_555 1_555
H22_4 C40_4 1_555 1_555
C41_4 O8_4 1_555 1_555
C42_4 C41_4 1_555 1_555
H23_4 C42_4 1_555 1_555
C43_4 C38_4 1_555 1_555
H24_4 C43_4 1_555 1_555
O24_2 C15_4 1_555 1_555
C20_4 C21_4 1_555 1_555
C40_4 C41_4 1_555 1_555
C42_4 C43_4 1_555 1_555
O11_4 H25_3 1_555 1_555
O11_4 H26_3 1_555 1_555
O8_5 C19_5 1_555 1_555
C20_5 C19_5 1_555 1_555
H11_5 C20_5 1_555 1_555
H12_5 C21_5 1_555 1_555
In8 O23_5 1_555 1_555
In10_5 O21_5 1_555 1_555
O21_5 C37_5 1_555 1_555
O23_5 C37_5 1_555 1_555
C37_5 C38_5 1_555 1_555
C38_5 C39_5 1_555 1_555
C39_5 H21_5 1_555 1_555
C40_5 C39_5 1_555 1_555
H22_5 C40_5 1_555 1_555
C41_5 O8_5 1_555 1_555
C42_5 C41_5 1_555 1_555
H23_5 C42_5 1_555 1_555
C43_5 C38_5 1_555 1_555
H24_5 C43_5 1_555 1_555
C20_5 C21_5 1_555 1_555
C40_5 C41_5 1_555 1_555
C42_5 C43_5 1_555 1_555
C15_5 O22 1_555 1_555
C16_5 C15_5 1_555 1_555
C17_5 C16_5 1_555 1_555
H9_5 C17_5 1_555 1_555
C18_5 C17_5 1_555 1_555
H10_5 C18_5 1_555 1_555
C22_5 O26 1_555 1_555
O25_5 C22_5 1_555 1_555
O24 C15_5 1_555 1_555
O11 H25_4 1_555 1_555
O11 H26_4 1_555 1_555
C15_6 O22_3 1_555 1_555
C16_6 C15_6 1_555 1_555
C17_6 C16_6 1_555 1_555
H9_6 C17_6 1_555 1_555
C18_6 C17_6 1_555 1_555
H10_6 C18_6 1_555 1_555
C22_6 O26_3 1_555 1_555
In8_2 O25_6 1_555 1_555
O25_6 C22_6 1_555 1_555
O24_3 C15_6 1_555 1_555
C22_6 H27_6 1_555 1_555
O8_6 C19_6 1_555 1_555
C20_6 C19_6 1_555 1_555
H11_6 C20_6 1_555 1_555
H12_6 C21_6 1_555 1_555
In8_3 O23_6 1_555 1_555
In10_6 O21_6 1_555 1_555
O21_6 C37_6 1_555 1_555
O23_6 C37_6 1_555 1_555
C37_6 C38_6 1_555 1_555
C38_6 C39_6 1_555 1_555
C39_6 H21_6 1_555 1_555
C40_6 C39_6 1_555 1_555
H22_6 C40_6 1_555 1_555
C41_6 O8_6 1_555 1_555
C42_6 C41_6 1_555 1_555
H23_6 C42_6 1_555 1_555
C43_6 C38_6 1_555 1_555
H24_6 C43_6 1_555 1_555
C20_6 C21_6 1_555 1_555
C40_6 C41_6 1_555 1_555
C42_6 C43_6 1_555 1_555
O3_4 C5_4 1_555 1_555
O4_4 C8_4 1_555 1_555
O5_4 C8_4 1_555 1_555
C3_4 H1_4 1_555 1_555
C4_4 C3_4 1_555 1_555
H2_4 C4_4 1_555 1_555
C5_4 C4_4 1_555 1_555
C6_4 C5_4 1_555 1_555
H3_4 C6_4 1_555 1_555
C8_4 C9_4 1_555 1_555
C9_4 C10_4 1_555 1_555
C10_4 H5_4 1_555 1_555
C11_4 C10_4 1_555 1_555
H6_4 C11_4 1_555 1_555
C12_4 O3_4 1_555 1_555
C13_4 C12_4 1_555 1_555
H7_4 C13_4 1_555 1_555
C14_4 C9_4 1_555 1_555
H8_4 C14_4 1_555 1_555
In9_2 O25_7 1_555 1_555
O25_7 C22_7 1_555 1_555
C6_4 C7_4 1_555 1_555
C11_4 C12_4 1_555 1_555
C13_4 C14_4 1_555 1_555
C22_7 H27_7 1_555 1_555
In5 O2_4 1_555 1_555
In10 O1_4 1_555 1_555
O1_4 C1_4 1_555 1_555
O2_4 C1_4 1_555 1_555
O6_4 In10 1_555 1_555
O7_4 In5 1_555 1_555
O8_8 C19_7 1_555 1_555
O9_6 In5 1_555 1_555
O10_4 In5 1_555 1_555
C1_4 C2_4 1_555 1_555
C15_7 O6_4 1_555 1_555
C16_7 C15_7 1_555 1_555
C17_7 C16_7 1_555 1_555
H9_7 C17_7 1_555 1_555
C18_7 C17_7 1_555 1_555
C19_7 C18_7 1_555 1_555
C20_7 C19_7 1_555 1_555
H11_7 C20_7 1_555 1_555
C21_7 C16_7 1_555 1_555
H12_7 C21_7 1_555 1_555
C22_8 O10_4 1_555 1_555
O11_6 In10 1_555 1_555
In4 O9_6 1_555 1_555
O12_4 In10 1_555 1_555
O13_4 In4 1_555 1_555
O14_4 C27_4 1_555 1_555
O16 C30_4 1_555 1_555
O16_4 In5 1_555 1_555
O20 C30_4 1_555 1_555
O20_4 In4 1_555 1_555
C23_4 O12_4 1_555 1_555
C24_4 C23_4 1_555 1_555
C25_4 C24_4 1_555 1_555
H13_4 C25_4 1_555 1_555
C26_4 C25_4 1_555 1_555
H14_4 C26_4 1_555 1_555
C27_4 C26_4 1_555 1_555
C28_4 C27_4 1_555 1_555
H15_4 C28_4 1_555 1_555
C29_4 C24_4 1_555 1_555
H16_4 C29_4 1_555 1_555
C30_4 C31_4 1_555 1_555
C31_4 C32_4 1_555 1_555
C32_4 H17_4 1_555 1_555
C33_4 C32_4 1_555 1_555
H18_4 C33_4 1_555 1_555
C34_4 O14_4 1_555 1_555
C35_4 C34_4 1_555 1_555
H19_4 C35_4 1_555 1_555
C36_4 C31_4 1_555 1_555
H20_4 C36_4 1_555 1_555
In10 O9_6 1_555 1_555
O7_4 C15_7 1_555 1_555
C20_7 C21_7 1_555 1_555
O13_4 C23_4 1_555 1_555
C28_4 C29_4 1_555 1_555
C33_4 C34_4 1_555 1_555
C35_4 C36_4 1_555 1_555
In9 O23_7 1_555 1_555
In10_5 O21_7 1_555 1_555
O21_7 C37_7 1_555 1_555
O23_7 C37_7 1_555 1_555
C37_7 C38_7 1_555 1_555
C38_7 C39_7 1_555 1_555
C39_7 H21_7 1_555 1_555
C40_7 C39_7 1_555 1_555
C41_7 O8_9 1_555 1_555
C42_7 C41_7 1_555 1_555
H23_7 C42_7 1_555 1_555
C43_7 C38_7 1_555 1_555
H24_7 C43_7 1_555 1_555
C40_7 C41_7 1_555 1_555
C42_7 C43_7 1_555 1_555
In9_2 O23_8 1_555 1_555
In10_4 O21_8 1_555 1_555
O21_8 C37_8 1_555 1_555
O23_8 C37_8 1_555 1_555
C37_8 C38_8 1_555 1_555
C38_8 C39_8 1_555 1_555
C39_8 H21_8 1_555 1_555
C40_8 C39_8 1_555 1_555
C41_8 O8_11 1_555 1_555
C42_8 C41_8 1_555 1_555
H23_8 C42_8 1_555 1_555
C43_8 C38_8 1_555 1_555
H24_8 C43_8 1_555 1_555
C40_8 C41_8 1_555 1_555
C42_8 C43_8 1_555 1_555
O3_5 C5_5 1_555 1_555
O4_5 C8_5 1_555 1_555
O5_5 C8_5 1_555 1_555
C3_5 H1_5 1_555 1_555
C4_5 C3_5 1_555 1_555
H2_5 C4_5 1_555 1_555
C5_5 C4_5 1_555 1_555
C6_5 C5_5 1_555 1_555
H3_5 C6_5 1_555 1_555
C8_5 C9_5 1_555 1_555
C9_5 C10_5 1_555 1_555
C10_5 H5_5 1_555 1_555
C11_5 C10_5 1_555 1_555
H6_5 C11_5 1_555 1_555
C12_5 O3_5 1_555 1_555
C13_5 C12_5 1_555 1_555
H7_5 C13_5 1_555 1_555
C14_5 C9_5 1_555 1_555
H8_5 C14_5 1_555 1_555
In9_2 O4_5 1_555 1_555
In8_2 O5_5 1_555 1_555
C6_5 C7_5 1_555 1_555
C11_5 C12_5 1_555 1_555
C13_5 C14_5 1_555 1_555
C22_9 H27_8 1_555 1_555
In5_2 O2_5 1_555 1_555
In10_2 O1_5 1_555 1_555
O1_5 C1_5 1_555 1_555
O2_5 C1_5 1_555 1_555
O6_5 In10_2 1_555 1_555
O7_5 In5_2 1_555 1_555
O8_14 C19_8 1_555 1_555
O9_7 In5_2 1_555 1_555
O10_5 In5_2 1_555 1_555
C1_5 C2_5 1_555 1_555
C15_8 O6_5 1_555 1_555
C16_8 C15_8 1_555 1_555
C17_8 C16_8 1_555 1_555
H9_8 C17_8 1_555 1_555
C18_8 C17_8 1_555 1_555
C19_8 C18_8 1_555 1_555
C20_8 C19_8 1_555 1_555
H11_8 C20_8 1_555 1_555
C21_8 C16_8 1_555 1_555
H12_8 C21_8 1_555 1_555
C22_10 O10_5 1_555 1_555
O11_7 In10_2 1_555 1_555
In7 O9_7 1_555 1_555
O12_5 In10_2 1_555 1_555
O13_5 In7 1_555 1_555
O14_5 C27_5 1_555 1_555
O16_2 C30_5 1_555 1_555
O20_2 C30_5 1_555 1_555
C23_5 O12_5 1_555 1_555
C24_5 C23_5 1_555 1_555
C25_5 C24_5 1_555 1_555
H13_5 C25_5 1_555 1_555
C26_5 C25_5 1_555 1_555
H14_5 C26_5 1_555 1_555
C27_5 C26_5 1_555 1_555
C28_5 C27_5 1_555 1_555
H15_5 C28_5 1_555 1_555
C29_5 C24_5 1_555 1_555
H16_5 C29_5 1_555 1_555
C30_5 C31_5 1_555 1_555
C31_5 C32_5 1_555 1_555
C32_5 H17_5 1_555 1_555
C33_5 C32_5 1_555 1_555
H18_5 C33_5 1_555 1_555
C34_5 O14_5 1_555 1_555
C35_5 C34_5 1_555 1_555
H19_5 C35_5 1_555 1_555
C36_5 C31_5 1_555 1_555
H20_5 C36_5 1_555 1_555
In10_2 O9_7 1_555 1_555
O7_5 C15_8 1_555 1_555
C20_8 C21_8 1_555 1_555
O13_5 C23_5 1_555 1_555
C28_5 C29_5 1_555 1_555
C33_5 C34_5 1_555 1_555
C35_5 C36_5 1_555 1_555
In9_3 O25_8 1_555 1_555
O25_8 C22_11 1_555 1_555
In9 O25_9 1_555 1_555
O25_9 C22_13 1_555 1_555
O3_6 C5_6 1_555 1_555
O4_6 C8_6 1_555 1_555
O5_6 C8_6 1_555 1_555
C3_6 H1_6 1_555 1_555
C4_6 C3_6 1_555 1_555
H2_6 C4_6 1_555 1_555
C5_6 C4_6 1_555 1_555
C6_6 C5_6 1_555 1_555
H3_6 C6_6 1_555 1_555
C8_6 C9_6 1_555 1_555
C9_6 C10_6 1_555 1_555
C10_6 H5_6 1_555 1_555
C11_6 C10_6 1_555 1_555
H6_6 C11_6 1_555 1_555
C12_6 O3_6 1_555 1_555
C13_6 C12_6 1_555 1_555
H7_6 C13_6 1_555 1_555
C14_6 C9_6 1_555 1_555
H8_6 C14_6 1_555 1_555
In9_3 O23_9 1_555 1_555
In10_6 O21_9 1_555 1_555
O21_9 C37_9 1_555 1_555
O23_9 C37_9 1_555 1_555
C37_9 C38_9 1_555 1_555
C38_9 C39_9 1_555 1_555
C39_9 H21_9 1_555 1_555
C40_9 C39_9 1_555 1_555
C41_9 O8_15 1_555 1_555
C42_9 C41_9 1_555 1_555
H23_9 C42_9 1_555 1_555
C43_9 C38_9 1_555 1_555
H24_9 C43_9 1_555 1_555
C6_6 C7_6 1_555 1_555
C11_6 C12_6 1_555 1_555
C13_6 C14_6 1_555 1_555
C40_9 C41_9 1_555 1_555
C42_9 C43_9 1_555 1_555
C22_15 H27_9 1_555 1_555
In5_3 O2_6 1_555 1_555
In10_3 O1_6 1_555 1_555
O1_6 C1_6 1_555 1_555
O2_6 C1_6 1_555 1_555
O6_6 In10_3 1_555 1_555
O7_6 In5_3 1_555 1_555
O8_16 C19_9 1_555 1_555
O9_8 In5_3 1_555 1_555
O10_6 In5_3 1_555 1_555
C1_6 C2_6 1_555 1_555
C15_9 O6_6 1_555 1_555
C16_9 C15_9 1_555 1_555
C17_9 C16_9 1_555 1_555
H9_9 C17_9 1_555 1_555
C18_9 C17_9 1_555 1_555
C19_9 C18_9 1_555 1_555
C20_9 C19_9 1_555 1_555
H11_9 C20_9 1_555 1_555
C21_9 C16_9 1_555 1_555
H12_9 C21_9 1_555 1_555
C22_16 O10_6 1_555 1_555
O11_8 In10_3 1_555 1_555
In7_2 O9_8 1_555 1_555
O12_6 In10_3 1_555 1_555
O13_6 In7_2 1_555 1_555
O14_6 C27_6 1_555 1_555
O16_3 C30_6 1_555 1_555
O20_3 C30_6 1_555 1_555
C23_6 O12_6 1_555 1_555
C24_6 C23_6 1_555 1_555
C25_6 C24_6 1_555 1_555
H13_6 C25_6 1_555 1_555
C26_6 C25_6 1_555 1_555
H14_6 C26_6 1_555 1_555
C27_6 C26_6 1_555 1_555
C28_6 C27_6 1_555 1_555
H15_6 C28_6 1_555 1_555
C29_6 C24_6 1_555 1_555
H16_6 C29_6 1_555 1_555
C30_6 C31_6 1_555 1_555
C31_6 C32_6 1_555 1_555
C32_6 H17_6 1_555 1_555
C33_6 C32_6 1_555 1_555
H18_6 C33_6 1_555 1_555
C34_6 O14_6 1_555 1_555
C35_6 C34_6 1_555 1_555
H19_6 C35_6 1_555 1_555
C36_6 C31_6 1_555 1_555
H20_6 C36_6 1_555 1_555
In10_3 O9_8 1_555 1_555
O7_6 C15_9 1_555 1_555
C20_9 C21_9 1_555 1_555
O13_6 C23_6 1_555 1_555
C28_6 C29_6 1_555 1_555
C33_6 C34_6 1_555 1_555
C35_6 C36_6 1_555 1_555
In8 O2_7 1_555 1_555
In10_5 O1_7 1_555 1_555
O1_7 C1_7 1_555 1_555
O2_7 C1_7 1_555 1_555
O3_7 C5_7 1_555 1_555
O17 C8_7 1_555 1_555
O19 C8_7 1_555 1_555
O9_9 In8 1_555 1_555
C1_7 C2_7 1_555 1_555
C2_7 C3_7 1_555 1_555
C3_7 H1_7 1_555 1_555
C4_7 C3_7 1_555 1_555
H2_7 C4_7 1_555 1_555
C5_7 C4_7 1_555 1_555
C6_7 C5_7 1_555 1_555
H3_7 C6_7 1_555 1_555
C7_7 C2_7 1_555 1_555
H4_7 C7_7 1_555 1_555
C8_7 C9_7 1_555 1_555
C9_7 C10_7 1_555 1_555
C10_7 H5_7 1_555 1_555
C11_7 C10_7 1_555 1_555
H6_7 C11_7 1_555 1_555
C12_7 O3_7 1_555 1_555
C13_7 C12_7 1_555 1_555
H7_7 C13_7 1_555 1_555
C14_7 C9_7 1_555 1_555
H8_7 C14_7 1_555 1_555
O11_9 In10_5 1_555 1_555
In9 O9_9 1_555 1_555
O12_7 In10_5 1_555 1_555
O13_7 In9 1_555 1_555
C23_7 O12_7 1_555 1_555
C24_7 C23_7 1_555 1_555
In10_5 O9_9 1_555 1_555
C6_7 C7_7 1_555 1_555
C11_7 C12_7 1_555 1_555
C13_7 C14_7 1_555 1_555
O13_7 C23_7 1_555 1_555
O14_7 C27_7 1_555 1_555
O16_4 C30_7 1_555 1_555
O20_4 C30_7 1_555 1_555
H13_7 C25_7 1_555 1_555
C26_7 C25_7 1_555 1_555
H14_7 C26_7 1_555 1_555
C27_7 C26_7 1_555 1_555
C28_7 C27_7 1_555 1_555
H15_7 C28_7 1_555 1_555
C30_7 C31_7 1_555 1_555
C31_7 C32_7 1_555 1_555
C32_7 H17_7 1_555 1_555
C33_7 C32_7 1_555 1_555
H18_7 C33_7 1_555 1_555
C34_7 O14_7 1_555 1_555
C35_7 C34_7 1_555 1_555
H19_7 C35_7 1_555 1_555
C36_7 C31_7 1_555 1_555
H20_7 C36_7 1_555 1_555
C28_7 C29_7 1_555 1_555
C33_7 C34_7 1_555 1_555
C35_7 C36_7 1_555 1_555
In8_2 O2_8 1_555 1_555
In10_4 O1_8 1_555 1_555
O1_8 C1_8 1_555 1_555
O2_8 C1_8 1_555 1_555
O3_8 C5_8 1_555 1_555
O17_2 C8_8 1_555 1_555
O19_2 C8_8 1_555 1_555
O9_10 In8_2 1_555 1_555
C1_8 C2_8 1_555 1_555
C2_8 C3_8 1_555 1_555
C3_8 H1_8 1_555 1_555
C4_8 C3_8 1_555 1_555
H2_8 C4_8 1_555 1_555
C5_8 C4_8 1_555 1_555
C6_8 C5_8 1_555 1_555
H3_8 C6_8 1_555 1_555
C7_8 C2_8 1_555 1_555
H4_8 C7_8 1_555 1_555
C8_8 C9_8 1_555 1_555
C9_8 C10_8 1_555 1_555
C10_8 H5_8 1_555 1_555
C11_8 C10_8 1_555 1_555
H6_8 C11_8 1_555 1_555
C12_8 O3_8 1_555 1_555
C13_8 C12_8 1_555 1_555
H7_8 C13_8 1_555 1_555
C14_8 C9_8 1_555 1_555
H8_8 C14_8 1_555 1_555
O11_10 In10_4 1_555 1_555
In9_2 O9_10 1_555 1_555
O12_8 In10_4 1_555 1_555
O13_8 In9_2 1_555 1_555
C23_8 O12_8 1_555 1_555
C24_8 C23_8 1_555 1_555
In10_4 O9_10 1_555 1_555
C6_8 C7_8 1_555 1_555
C11_8 C12_8 1_555 1_555
C13_8 C14_8 1_555 1_555
O13_8 C23_8 1_555 1_555
O14_8 C27_8 1_555 1_555
O16_5 C30_8 1_555 1_555
O20_5 C30_8 1_555 1_555
H13_8 C25_8 1_555 1_555
C26_8 C25_8 1_555 1_555
H14_8 C26_8 1_555 1_555
C27_8 C26_8 1_555 1_555
C28_8 C27_8 1_555 1_555
H15_8 C28_8 1_555 1_555
C30_8 C31_8 1_555 1_555
C31_8 C32_8 1_555 1_555
C32_8 H17_8 1_555 1_555
C33_8 C32_8 1_555 1_555
H18_8 C33_8 1_555 1_555
C34_8 O14_8 1_555 1_555
C35_8 C34_8 1_555 1_555
H19_8 C35_8 1_555 1_555
C36_8 C31_8 1_555 1_555
H20_8 C36_8 1_555 1_555
C28_8 C29_8 1_555 1_555
C33_8 C34_8 1_555 1_555
C35_8 C36_8 1_555 1_555
In8_3 O2_9 1_555 1_555
In10_6 O1_9 1_555 1_555
O1_9 C1_9 1_555 1_555
O2_9 C1_9 1_555 1_555
O3_9 C5_9 1_555 1_555
O17_3 C8_9 1_555 1_555
O19_3 C8_9 1_555 1_555
O9_11 In8_3 1_555 1_555
C1_9 C2_9 1_555 1_555
C2_9 C3_9 1_555 1_555
C3_9 H1_9 1_555 1_555
C4_9 C3_9 1_555 1_555
H2_9 C4_9 1_555 1_555
C5_9 C4_9 1_555 1_555
C6_9 C5_9 1_555 1_555
H3_9 C6_9 1_555 1_555
C7_9 C2_9 1_555 1_555
H4_9 C7_9 1_555 1_555
C8_9 C9_9 1_555 1_555
C9_9 C10_9 1_555 1_555
C10_9 H5_9 1_555 1_555
C11_9 C10_9 1_555 1_555
H6_9 C11_9 1_555 1_555
C12_9 O3_9 1_555 1_555
C13_9 C12_9 1_555 1_555
H7_9 C13_9 1_555 1_555
C14_9 C9_9 1_555 1_555
H8_9 C14_9 1_555 1_555
O11_11 In10_6 1_555 1_555
In9_3 O9_11 1_555 1_555
O12_9 In10_6 1_555 1_555
O13_9 In9_3 1_555 1_555
C23_9 O12_9 1_555 1_555
C24_9 C23_9 1_555 1_555
In10_6 O9_11 1_555 1_555
C6_9 C7_9 1_555 1_555
C11_9 C12_9 1_555 1_555
C13_9 C14_9 1_555 1_555
O13_9 C23_9 1_555 1_555
O14_9 C27_9 1_555 1_555
O16_6 C30_9 1_555 1_555
O20_6 C30_9 1_555 1_555
H13_9 C25_9 1_555 1_555
C26_9 C25_9 1_555 1_555
H14_9 C26_9 1_555 1_555
C27_9 C26_9 1_555 1_555
C28_9 C27_9 1_555 1_555
H15_9 C28_9 1_555 1_555
C30_9 C31_9 1_555 1_555
C31_9 C32_9 1_555 1_555
C32_9 H17_9 1_555 1_555
C33_9 C32_9 1_555 1_555
H18_9 C33_9 1_555 1_555
C34_9 O14_9 1_555 1_555
C35_9 C34_9 1_555 1_555
H19_9 C35_9 1_555 1_555
C36_9 C31_9 1_555 1_555
H20_9 C36_9 1_555 1_555
C28_9 C29_9 1_555 1_555
C33_9 C34_9 1_555 1_555
C35_9 C36_9 1_555 1_555
C22_8 H27_10 1_555 1_555
C22_14 H27_11 1_555 1_555
C22_12 H27_12 1_555 1_555

#END
