
###############################################################################
#
# This file contains modified crystal structure data generated from the
# MOF subset of the Cambridge Structural Database (CSD) v543 
# hosted by the Cambridge Crystallographic Data Centre (CCDC).
#
# This work is licensed under the Creative Commons
# Attribution-NonCommercial-ShareAlike 4.0 International License.
# To view a copy of this license, visit
# http://creativecommons.org/licenses/by-nc-sa/4.0/
# or send a letter to
# Creative Commons, PO Box 1866, Mountain View, CA 94042, USA.
#
# CIF created using the CSD Python API on 29 September 2022
# The structure has been converted into the P1 space group
# The structure has a 3D framework
# The original CSD entry IZAYUG is in the orthorhombic crystal system
# The framework has been calculated to contain at least 10.0% void space
# The void calculation uses a probe of radius 1.32A, grid spacing 0.4
# The framework is charged, counterions have been retained in the structure
#
###############################################################################

data_IZAYUG
_chemical_formula_moiety         '(C400 H434 Al32 Cu10 N56 O158 18+)n'
_symmetry_cell_setting           triclinic
_symmetry_space_group_name_H-M   'P 1'
_symmetry_Int_Tables_number      1
_space_group_name_Hall           'P 1'
loop_
_symmetry_equiv_pos_site_id
_symmetry_equiv_pos_as_xyz
1 x,y,z
_cell_length_a                   36.1349(7)
_cell_length_b                   22.1648(4)
_cell_length_c                   21.0109(5)
_cell_angle_alpha                90
_cell_angle_beta                 90
_cell_angle_gamma                90
_cell_volume                     16828.1
loop_
_atom_site_label
_atom_site_type_symbol
_atom_site_fract_x
_atom_site_fract_y
_atom_site_fract_z
Cu12 Cu 0.500000 0.000000 0.500000
Cu2 Cu 0.500000 0.500000 0.000000
N19 N 0.500000 0.5430(12) 0.076(2)
N20 N 0.500000 0.4159(3) 0.0383(3)
Cu1 Cu 0.750000 0.31116(4) 0.250000
Al1 Al 0.54613(3) 0.37376(5) 0.61576(5)
Al2 Al 0.60067(3) 0.44221(5) 0.55013(6)
O1 O 0.56807(7) 0.37857(11) 0.53524(13)
O2 O 0.57788(10) 0.500000 0.500000
H1 H 0.5544(3) 0.500000 0.500000
O3 O 0.58958(7) 0.33523(12) 0.65062(13)
O4 O 0.56901(7) 0.44936(11) 0.62015(12)
O5 O 0.500000 0.40128(16) 0.59014(17)
O6 O 0.63242(7) 0.38870(13) 0.59827(14)
O7 O 0.53078(8) 0.29250(12) 0.60463(15)
O8 O 0.53083(7) 0.37719(13) 0.70234(13)
O9 O 0.63472(7) 0.50031(13) 0.41870(15)
O10 O 0.63269(8) 0.41924(13) 0.48253(14)
N1 N 0.72346(9) 0.36140(15) 0.31523(17)
N2 N 0.70916(9) 0.24071(16) 0.71483(18)
C1 C 0.500000 0.2680(2) 0.5977(3)
C2 C 0.65268(11) 0.31043(19) 0.6649(2)
C3 C 0.62258(10) 0.34769(18) 0.6358(2)
C4 C 0.67186(10) 0.41739(18) 0.3934(2)
C5 C 0.500000 0.3854(2) 0.7273(3)
C6 C 0.500000 0.2027(3) 0.5790(3)
C7 C 0.64394(11) 0.44771(19) 0.4348(2)
N3 N 0.500000 0.4570(12) 0.924(2)
C8 C 0.500000 0.4096(3) 0.7936(3)
N4 N 0.500000 0.0841(3) 0.5383(3)
C9 C 0.70836(13) 0.4140(2) 0.2998(2)
H2 H 0.715408 0.431898 0.261623
C10 C 0.68261(13) 0.4436(2) 0.3374(2)
H3 H 0.672842 0.480507 0.324875
C11 C 0.68755(15) 0.3633(2) 0.4102(2)
H4 H 0.680724 0.344381 0.447948
C12 C 0.71363(15) 0.3372(2) 0.3706(2)
H5 H 0.724710 0.301261 0.383205
C13 C 0.71533(14) 0.2911(3) 0.6851(4)
H6 H 0.739779 0.303719 0.681333
C14 C 0.68856(14) 0.3270(3) 0.6588(4)
H7 H 0.694910 0.362028 0.637071
C15 C 0.64513(14) 0.2605(3) 0.6979(4)
H8 H 0.620719 0.248828 0.704609
C16 C 0.67397(14) 0.2259(3) 0.7220(4)
H9 H 0.668264 0.190756 0.744098
C17 C 0.5655(2) 0.3393(3) 0.4820(3)
H10 H 0.570475 0.362512 0.443777
H11 H 0.540248 0.324705 0.479103
C18 C 0.5926(2) 0.2826(4) 0.4831(4)
H12 H 0.618086 0.296358 0.482091
H13 H 0.588894 0.259946 0.522033
C19 C 0.4653(3) 0.1681(4) 0.5889(6)
H14 H 0.444677 0.185899 0.607713
C20 C 0.5650(3) 0.4954(4) 0.6647(5)
H15 H 0.539746 0.495023 0.680492
H16 H 0.569035 0.533809 0.643761
C21 C 0.5332(3) 0.4264(5) 0.8911(4)
H17 H 0.555585 0.425631 0.912995
C22 C 0.5320(2) 0.4003(5) 0.8324(4)
H18 H 0.551629 0.376940 0.817842
C23 C 0.4645(3) 0.1092(5) 0.5696(5)
H19 H 0.443565 0.085301 0.574970
C24 C 0.5818(6) 0.5505(7) 0.7610(8)
H20 H 0.562135 0.570369 0.738525
H21 H 0.602776 0.576979 0.763725
H22 H 0.573615 0.540169 0.803025
C25 C 0.5854(5) 0.2437(8) 0.4279(8)
H23 H 0.588159 0.202167 0.440063
H24 H 0.602589 0.253007 0.394514
H25 H 0.560579 0.250324 0.412928
C26 C 0.5947(3) 0.4893(5) 0.7276(5)
H26 H 0.589832 0.454006 0.753599
H27 H 0.620440 0.490123 0.714742
Cu2_2 Cu 0.500000 0.500000 1.000000
O11 O 0.46922(8) 0.29250(12) 0.60463(15)
C27 C 0.5347(3) 0.1681(4) 0.5889(6)
H28 H 0.555323 0.185899 0.607713
C28 C 0.5355(3) 0.1092(5) 0.5696(5)
H29 H 0.556435 0.085301 0.574970
O12 O 0.46917(7) 0.37719(13) 0.70234(13)
C29 C 0.4668(3) 0.4264(5) 0.8911(4)
H30 H 0.444415 0.425631 0.912995
C30 C 0.4680(2) 0.4003(5) 0.8324(4)
H31 H 0.448371 0.376940 0.817842
Cu3 Cu 0.750000 0.68884(4) 0.750000
Al3 Al 0.54613(3) 0.62624(5) 0.38424(5)
Al4 Al 0.60067(3) 0.55779(5) 0.44987(6)
O13 O 0.56807(7) 0.62143(11) 0.46476(13)
O14 O 0.58958(7) 0.66477(12) 0.34938(13)
O15 O 0.56901(7) 0.55064(11) 0.37985(12)
O16 O 0.500000 0.59872(16) 0.40986(17)
O17 O 0.63242(7) 0.61130(13) 0.40173(14)
O18 O 0.53078(8) 0.70750(12) 0.39537(15)
O19 O 0.53083(7) 0.62281(13) 0.29766(13)
O20 O 0.63472(7) 0.49969(13) 0.58130(15)
O21 O 0.63269(8) 0.58076(13) 0.51747(14)
N5 N 0.72346(9) 0.63860(15) 0.68477(17)
N6 N 0.70916(9) 0.75929(16) 0.28517(18)
C31 C 0.500000 0.7320(2) 0.4023(3)
C32 C 0.65268(11) 0.68957(19) 0.3351(2)
C33 C 0.62258(10) 0.65231(18) 0.3642(2)
C34 C 0.67186(10) 0.58261(18) 0.6066(2)
C35 C 0.500000 0.6146(2) 0.2727(3)
C36 C 0.500000 0.7973(3) 0.4210(3)
C37 C 0.64394(11) 0.55229(19) 0.5652(2)
C38 C 0.500000 0.5904(3) 0.2064(3)
N8 N 0.500000 0.9159(3) 0.4617(3)
C39 C 0.70836(13) 0.5860(2) 0.7002(2)
H32 H 0.715408 0.568102 0.738377
C40 C 0.68261(13) 0.5564(2) 0.6626(2)
H33 H 0.672842 0.519493 0.675125
C41 C 0.68755(15) 0.6367(2) 0.5898(2)
H34 H 0.680724 0.655619 0.552052
C42 C 0.71363(15) 0.6628(2) 0.6294(2)
H35 H 0.724710 0.698739 0.616795
C43 C 0.71533(14) 0.7089(3) 0.3149(4)
H36 H 0.739779 0.696281 0.318667
C44 C 0.68856(14) 0.6730(3) 0.3412(4)
H37 H 0.694910 0.637972 0.362929
C45 C 0.64513(14) 0.7395(3) 0.3021(4)
H38 H 0.620719 0.751172 0.295391
C46 C 0.67397(14) 0.7741(3) 0.2780(4)
H39 H 0.668264 0.809244 0.255902
C47 C 0.5655(2) 0.6607(3) 0.5180(3)
H40 H 0.570475 0.637488 0.556223
H41 H 0.540248 0.675295 0.520897
C48 C 0.5926(2) 0.7174(4) 0.5169(4)
H42 H 0.618086 0.703642 0.517909
H43 H 0.588894 0.740054 0.477967
C49 C 0.4653(3) 0.8319(4) 0.4111(6)
H44 H 0.444677 0.814101 0.392287
C50 C 0.5650(3) 0.5046(4) 0.3353(5)
H45 H 0.539746 0.504977 0.319508
H46 H 0.569035 0.466191 0.356239
C51 C 0.5332(3) 0.5736(5) 0.1089(4)
H47 H 0.555585 0.574369 0.087005
C52 C 0.5320(2) 0.5997(5) 0.1676(4)
H48 H 0.551629 0.623060 0.182158
C53 C 0.4645(3) 0.8908(5) 0.4304(5)
H49 H 0.443565 0.914699 0.425030
C54 C 0.5818(6) 0.4495(7) 0.2390(8)
H50 H 0.562135 0.429631 0.261475
H51 H 0.602776 0.423021 0.236275
H52 H 0.573615 0.459831 0.196975
C55 C 0.5854(5) 0.7563(8) 0.5721(8)
H53 H 0.588159 0.797833 0.559937
H54 H 0.602589 0.746993 0.605486
H55 H 0.560579 0.749676 0.587072
C56 C 0.5947(3) 0.5107(5) 0.2724(5)
H56 H 0.589832 0.545994 0.246401
H57 H 0.620440 0.509877 0.285258
O22 O 0.46922(8) 0.70750(12) 0.39537(15)
C57 C 0.5347(3) 0.8319(4) 0.4111(6)
H58 H 0.555323 0.814101 0.392287
C58 C 0.5355(3) 0.8908(5) 0.4304(5)
H59 H 0.556435 0.914699 0.425030
O23 O 0.46917(7) 0.62281(13) 0.29766(13)
C59 C 0.4668(3) 0.5736(5) 0.1089(4)
H60 H 0.444415 0.574369 0.087005
C60 C 0.4680(2) 0.5997(5) 0.1676(4)
H61 H 0.448371 0.623060 0.182158
Al5 Al 0.45387(3) 0.62624(5) 0.38424(5)
Al6 Al 0.39933(3) 0.55779(5) 0.44987(6)
O24 O 0.43193(7) 0.62143(11) 0.46476(13)
O25 O 0.42212(10) 0.500000 0.500000
H62 H 0.4456(3) 0.500000 0.500000
O26 O 0.41042(7) 0.66477(12) 0.34938(13)
O27 O 0.43099(7) 0.55064(11) 0.37985(12)
O28 O 0.36758(7) 0.61130(13) 0.40173(14)
O29 O 0.36528(7) 0.49969(13) 0.58130(15)
O30 O 0.36731(8) 0.58076(13) 0.51747(14)
N9 N 0.27654(9) 0.63860(15) 0.68477(17)
N10 N 0.29084(9) 0.75929(16) 0.28517(18)
C61 C 0.34732(11) 0.68957(19) 0.3351(2)
C62 C 0.37742(10) 0.65231(18) 0.3642(2)
C63 C 0.32814(10) 0.58261(18) 0.6066(2)
C64 C 0.35606(11) 0.55229(19) 0.5652(2)
C65 C 0.29164(13) 0.5860(2) 0.7002(2)
H63 H 0.284592 0.568102 0.738377
C66 C 0.31739(13) 0.5564(2) 0.6626(2)
H64 H 0.327158 0.519493 0.675125
C67 C 0.31245(15) 0.6367(2) 0.5898(2)
H65 H 0.319276 0.655619 0.552052
C68 C 0.28637(15) 0.6628(2) 0.6294(2)
H66 H 0.275290 0.698739 0.616795
C69 C 0.28467(14) 0.7089(3) 0.3149(4)
H67 H 0.260221 0.696281 0.318667
C70 C 0.31144(14) 0.6730(3) 0.3412(4)
H68 H 0.305090 0.637972 0.362929
C71 C 0.35487(14) 0.7395(3) 0.3021(4)
H69 H 0.379281 0.751172 0.295391
C72 C 0.32603(14) 0.7741(3) 0.2780(4)
H70 H 0.331736 0.809244 0.255902
C73 C 0.4345(2) 0.6607(3) 0.5180(3)
H71 H 0.429525 0.637488 0.556223
H72 H 0.459752 0.675295 0.520897
C74 C 0.4074(2) 0.7174(4) 0.5169(4)
H73 H 0.381914 0.703642 0.517909
H74 H 0.411106 0.740054 0.477967
C75 C 0.4350(3) 0.5046(4) 0.3353(5)
H75 H 0.460254 0.504977 0.319508
H76 H 0.430965 0.466191 0.356239
C76 C 0.4182(6) 0.4495(7) 0.2390(8)
H77 H 0.437865 0.429631 0.261475
H78 H 0.397224 0.423021 0.236275
H79 H 0.426385 0.459831 0.196975
C77 C 0.4146(5) 0.7563(8) 0.5721(8)
H80 H 0.411841 0.797833 0.559937
H81 H 0.397411 0.746993 0.605486
H82 H 0.439421 0.749676 0.587072
C78 C 0.4053(3) 0.5107(5) 0.2724(5)
H83 H 0.410168 0.545994 0.246401
H84 H 0.379560 0.509877 0.285258
Al7 Al 0.45387(3) 0.37376(5) 0.61576(5)
Al8 Al 0.39933(3) 0.44221(5) 0.55013(6)
O31 O 0.43193(7) 0.37857(11) 0.53524(13)
O32 O 0.41042(7) 0.33523(12) 0.65062(13)
O33 O 0.43099(7) 0.44936(11) 0.62015(12)
O34 O 0.36758(7) 0.38870(13) 0.59827(14)
O35 O 0.36528(7) 0.50031(13) 0.41870(15)
O36 O 0.36731(8) 0.41924(13) 0.48253(14)
N11 N 0.27654(9) 0.36140(15) 0.31523(17)
N12 N 0.29084(9) 0.24071(16) 0.71483(18)
C79 C 0.34732(11) 0.31043(19) 0.6649(2)
C80 C 0.37742(10) 0.34769(18) 0.6358(2)
C81 C 0.32814(10) 0.41739(18) 0.3934(2)
C82 C 0.35606(11) 0.44771(19) 0.4348(2)
C83 C 0.29164(13) 0.4140(2) 0.2998(2)
H85 H 0.284592 0.431898 0.261623
C84 C 0.31739(13) 0.4436(2) 0.3374(2)
H86 H 0.327158 0.480507 0.324875
C85 C 0.31245(15) 0.3633(2) 0.4102(2)
H87 H 0.319276 0.344381 0.447948
C86 C 0.28637(15) 0.3372(2) 0.3706(2)
H88 H 0.275290 0.301261 0.383205
C87 C 0.28467(14) 0.2911(3) 0.6851(4)
H89 H 0.260221 0.303719 0.681333
C88 C 0.31144(14) 0.3270(3) 0.6588(4)
H90 H 0.305090 0.362028 0.637071
C89 C 0.35487(14) 0.2605(3) 0.6979(4)
H91 H 0.379281 0.248828 0.704609
C90 C 0.32603(14) 0.2259(3) 0.7220(4)
H92 H 0.331736 0.190756 0.744098
C91 C 0.4345(2) 0.3393(3) 0.4820(3)
H93 H 0.429525 0.362512 0.443777
H94 H 0.459752 0.324705 0.479103
C92 C 0.4074(2) 0.2826(4) 0.4831(4)
H95 H 0.381914 0.296358 0.482091
H96 H 0.411106 0.259946 0.522033
C93 C 0.4350(3) 0.4954(4) 0.6647(5)
H97 H 0.460254 0.495023 0.680492
H98 H 0.430965 0.533809 0.643761
C94 C 0.4182(6) 0.5505(7) 0.7610(8)
H99 H 0.437865 0.570369 0.738525
H100 H 0.397224 0.576979 0.763725
H101 H 0.426385 0.540169 0.803025
C95 C 0.4146(5) 0.2437(8) 0.4279(8)
H102 H 0.411841 0.202167 0.440063
H103 H 0.397411 0.253007 0.394514
H104 H 0.439421 0.250324 0.412928
C96 C 0.4053(3) 0.4893(5) 0.7276(5)
H105 H 0.410168 0.454006 0.753599
H106 H 0.379560 0.490123 0.714742
Cu4 Cu 0.250000 0.18884(4) 0.750000
Cu5 Cu 0.250000 0.81116(4) 0.250000
Cu6 Cu 0.250000 0.68884(4) 0.750000
Cu7 Cu 0.750000 0.81116(4) 0.250000
Cu8 Cu 0.750000 0.18884(4) 0.750000
Cu9 Cu 0.250000 0.31116(4) 0.250000
N13 N 0.77654(9) 0.63860(15) 0.81523(17)
N14 N 0.77654(9) 0.36140(15) 0.18477(17)
N15 N 0.70916(9) 0.74071(16) 0.78517(18)
N16 N 0.70916(9) 0.25929(16) 0.21483(18)
N17 N 0.79084(9) 0.25929(16) 0.28517(18)
N18 N 0.79084(9) 0.74071(16) 0.71483(18)
N21 N 0.500000 0.5841(3) 0.9617(3)
Cu12_2 Cu 0.500000 1.000000 0.500000
Al1_2 Al 0.45387(3) 0.12624(5) 0.11576(5)
Al2_2 Al 0.39933(3) 0.05779(5) 0.05013(6)
O1_2 O 0.43193(7) 0.12143(11) 0.03524(13)
O2_2 O 0.42212(10) 0.000000 0.000000
H1_2 H 0.4456(3) 0.000000 0.000000
O3_2 O 0.41042(7) 0.16477(12) 0.15062(13)
O4_2 O 0.43099(7) 0.05064(11) 0.12015(12)
O5_2 O 0.500000 0.09872(16) 0.09014(17)
O6_2 O 0.36758(7) 0.11130(13) 0.09827(14)
O7_2 O 0.46922(8) 0.20750(12) 0.10463(15)
O8_2 O 0.46917(7) 0.12281(13) 0.20234(13)
N2_2 N 0.29084(9) 0.25929(16) 0.21483(18)
C1_2 C 0.500000 0.2320(2) 0.0977(3)
C2_2 C 0.34732(11) 0.18957(19) 0.1649(2)
C3_2 C 0.37742(10) 0.15231(18) 0.1358(2)
C5_2 C 0.500000 0.1146(2) 0.2273(3)
C6_2 C 0.500000 0.2973(3) 0.0790(3)
N3_2 N 0.500000 0.0430(12) 0.424(2)
C8_2 C 0.500000 0.0904(3) 0.2936(3)
C13_2 C 0.28467(14) 0.2089(3) 0.1851(4)
H6_2 H 0.260221 0.196281 0.181333
C14_2 C 0.31144(14) 0.1730(3) 0.1588(4)
H7_2 H 0.305090 0.137972 0.137071
C15_2 C 0.35487(14) 0.2395(3) 0.1979(4)
H8_2 H 0.379281 0.251172 0.204609
C16_2 C 0.32603(14) 0.2741(3) 0.2220(4)
H9_2 H 0.331736 0.309244 0.244098
H13_2 H 0.411106 0.240054 0.022033
C19_2 C 0.5347(3) 0.3319(4) 0.0889(6)
H14_2 H 0.555323 0.314101 0.107713
C20_2 C 0.4350(3) 0.0046(4) 0.1647(5)
H15_2 H 0.460254 0.004977 0.180492
C21_2 C 0.4668(3) 0.0736(5) 0.3911(4)
H17_2 H 0.444415 0.074369 0.412995
C22_2 C 0.4680(2) 0.0997(5) 0.3324(4)
H18_2 H 0.448371 0.123060 0.317842
C23_2 C 0.5355(3) 0.3908(5) 0.0696(5)
H19_2 H 0.556435 0.414699 0.074970
C26_2 C 0.4053(3) 0.0107(5) 0.2276(5)
H26_2 H 0.410168 0.045994 0.253599
H27_2 H 0.379560 0.009877 0.214742
O11_2 O 0.53078(8) 0.20750(12) 0.10463(15)
C27_2 C 0.4653(3) 0.3319(4) 0.0889(6)
H28_2 H 0.444677 0.314101 0.107713
C28_2 C 0.4645(3) 0.3908(5) 0.0696(5)
H29_2 H 0.443565 0.414699 0.074970
O12_2 O 0.53083(7) 0.12281(13) 0.20234(13)
C29_2 C 0.5332(3) 0.0736(5) 0.3911(4)
H30_2 H 0.555585 0.074369 0.412995
C30_2 C 0.5320(2) 0.0997(5) 0.3324(4)
H31_2 H 0.551629 0.123060 0.317842
O20_2 O 0.36528(7) 0.00031(13) 0.08130(15)
O25_2 O 0.57788(10) 0.000000 0.000000
H62_2 H 0.5544(3) 0.000000 0.000000
O29_2 O 0.63472(7) 0.00031(13) 0.08130(15)
Al7_2 Al 0.54613(3) 0.12624(5) 0.11576(5)
Al8_2 Al 0.60067(3) 0.05779(5) 0.05013(6)
O31_2 O 0.56807(7) 0.12143(11) 0.03524(13)
O32_2 O 0.58958(7) 0.16477(12) 0.15062(13)
O33_2 O 0.56901(7) 0.05064(11) 0.12015(12)
O34_2 O 0.63242(7) 0.11130(13) 0.09827(14)
C79_2 C 0.65268(11) 0.18957(19) 0.1649(2)
C80_2 C 0.62258(10) 0.15231(18) 0.1358(2)
C87_2 C 0.71533(14) 0.2089(3) 0.1851(4)
H89_2 H 0.739779 0.196281 0.181333
C88_2 C 0.68856(14) 0.1730(3) 0.1588(4)
H90_2 H 0.694910 0.137972 0.137071
C89_2 C 0.64513(14) 0.2395(3) 0.1979(4)
H91_2 H 0.620719 0.251172 0.204609
C90_2 C 0.67397(14) 0.2741(3) 0.2220(4)
H92_2 H 0.668264 0.309244 0.244098
H96_2 H 0.588894 0.240054 0.022033
C93_2 C 0.5650(3) 0.0046(4) 0.1647(5)
H97_2 H 0.539746 0.004977 0.180492
C96_2 C 0.5947(3) 0.0107(5) 0.2276(5)
H105_2 H 0.589832 0.045994 0.253599
H106_2 H 0.620440 0.009877 0.214742
O2_3 O 0.42212(10) 0.000000 1.000000
H1_3 H 0.4456(3) 0.000000 1.000000
O10_2 O 0.36731(8) 0.08076(13) 0.98253(14)
N1_2 N 0.27654(9) 0.13860(15) 0.81523(17)
C4_2 C 0.32814(10) 0.08261(18) 0.8934(2)
C7_2 C 0.35606(11) 0.05229(19) 0.9348(2)
C9_2 C 0.29164(13) 0.0860(2) 0.7998(2)
H2_2 H 0.284592 0.068102 0.761623
C10_2 C 0.31739(13) 0.0564(2) 0.8374(2)
H3_2 H 0.327158 0.019493 0.824875
C11_2 C 0.31245(15) 0.1367(2) 0.9102(2)
H4_2 H 0.319276 0.155619 0.947948
C12_2 C 0.28637(15) 0.1628(2) 0.8706(2)
H5_2 H 0.275290 0.198739 0.883205
C17_2 C 0.4345(2) 0.1607(3) 0.9820(3)
H10_2 H 0.429525 0.137488 0.943777
H11_2 H 0.459752 0.175295 0.979103
C18_2 C 0.4074(2) 0.2174(4) 0.9831(4)
H12_2 H 0.381914 0.203642 0.982091
C25_2 C 0.4146(5) 0.2563(8) 0.9279(8)
H23_2 H 0.411841 0.297833 0.940063
H24_2 H 0.397411 0.246993 0.894514
H25_2 H 0.439421 0.249676 0.912928
H46_2 H 0.430965 0.033809 0.856239
C54_2 C 0.4182(6) 0.0505(7) 0.7390(8)
H50_2 H 0.437865 0.070369 0.761475
H51_2 H 0.397224 0.076979 0.736275
H52_2 H 0.426385 0.040169 0.696975
O25_3 O 0.57788(10) 0.000000 1.000000
H62_3 H 0.5544(3) 0.000000 1.000000
H76_2 H 0.569035 0.033809 0.856239
C76_2 C 0.5818(6) 0.0505(7) 0.7390(8)
H77_2 H 0.562135 0.070369 0.761475
H78_2 H 0.602776 0.076979 0.736275
H79_2 H 0.573615 0.040169 0.696975
O36_2 O 0.63269(8) 0.08076(13) 0.98253(14)
N11_2 N 0.72346(9) 0.13860(15) 0.81523(17)
C81_2 C 0.67186(10) 0.08261(18) 0.8934(2)
C82_2 C 0.64394(11) 0.05229(19) 0.9348(2)
C83_2 C 0.70836(13) 0.0860(2) 0.7998(2)
H85_2 H 0.715408 0.068102 0.761623
C84_2 C 0.68261(13) 0.0564(2) 0.8374(2)
H86_2 H 0.672842 0.019493 0.824875
C85_2 C 0.68755(15) 0.1367(2) 0.9102(2)
H87_2 H 0.680724 0.155619 0.947948
C86_2 C 0.71363(15) 0.1628(2) 0.8706(2)
H88_2 H 0.724710 0.198739 0.883205
C91_2 C 0.5655(2) 0.1607(3) 0.9820(3)
H93_2 H 0.570475 0.137488 0.943777
H94_2 H 0.540248 0.175295 0.979103
C92_2 C 0.5926(2) 0.2174(4) 0.9831(4)
H95_2 H 0.618086 0.203642 0.982091
C95_2 C 0.5854(5) 0.2563(8) 0.9279(8)
H102_2 H 0.588159 0.297833 0.940063
H103_2 H 0.602589 0.246993 0.894514
H104_2 H 0.560579 0.249676 0.912928
N14_2 N 0.22346(9) 0.13860(15) 0.68477(17)
N17_2 N 0.20916(9) 0.24071(16) 0.78517(18)
O2_4 O 0.42212(10) 1.000000 0.000000
H1_4 H 0.4456(3) 1.000000 0.000000
H16_2 H 0.430965 0.966191 0.143761
C24_2 C 0.4182(6) 0.9495(7) 0.2610(8)
H20_2 H 0.437865 0.929631 0.238525
H21_2 H 0.397224 0.923021 0.263725
H22_2 H 0.426385 0.959831 0.303025
O21_2 O 0.36731(8) 0.91924(13) 0.01747(14)
N5_2 N 0.27654(9) 0.86140(15) 0.18477(17)
C34_2 C 0.32814(10) 0.91739(18) 0.1066(2)
C37_2 C 0.35606(11) 0.94771(19) 0.0652(2)
C39_2 C 0.29164(13) 0.9140(2) 0.2002(2)
H32_2 H 0.284592 0.931898 0.238377
C40_2 C 0.31739(13) 0.9436(2) 0.1626(2)
H33_2 H 0.327158 0.980507 0.175125
C41_2 C 0.31245(15) 0.8633(2) 0.0898(2)
H34_2 H 0.319276 0.844381 0.052052
C42_2 C 0.28637(15) 0.8372(2) 0.1294(2)
H35_2 H 0.275290 0.801261 0.116795
C47_2 C 0.4345(2) 0.8393(3) 0.0180(3)
H40_2 H 0.429525 0.862512 0.056223
H41_2 H 0.459752 0.824705 0.020897
C48_2 C 0.4074(2) 0.7826(4) 0.0169(4)
H42_2 H 0.381914 0.796358 0.017909
C55_2 C 0.4146(5) 0.7437(8) 0.0721(8)
H53_2 H 0.411841 0.702167 0.059937
H54_2 H 0.397411 0.753007 0.105486
H55_2 H 0.439421 0.750324 0.087072
O25_4 O 0.57788(10) 1.000000 0.000000
H62_4 H 0.5544(3) 1.000000 0.000000
O30_2 O 0.63269(8) 0.91924(13) 0.01747(14)
N9_2 N 0.72346(9) 0.86140(15) 0.18477(17)
C63_2 C 0.67186(10) 0.91739(18) 0.1066(2)
C64_2 C 0.64394(11) 0.94771(19) 0.0652(2)
C65_2 C 0.70836(13) 0.9140(2) 0.2002(2)
H63_2 H 0.715408 0.931898 0.238377
C66_2 C 0.68261(13) 0.9436(2) 0.1626(2)
H64_2 H 0.672842 0.980507 0.175125
C67_2 C 0.68755(15) 0.8633(2) 0.0898(2)
H65_2 H 0.680724 0.844381 0.052052
C68_2 C 0.71363(15) 0.8372(2) 0.1294(2)
H66_2 H 0.724710 0.801261 0.116795
C73_2 C 0.5655(2) 0.8393(3) 0.0180(3)
H71_2 H 0.570475 0.862512 0.056223
H72_2 H 0.540248 0.824705 0.020897
C74_2 C 0.5926(2) 0.7826(4) 0.0169(4)
H73_2 H 0.618086 0.796358 0.017909
C77_2 C 0.5854(5) 0.7437(8) 0.0721(8)
H80_2 H 0.588159 0.702167 0.059937
H81_2 H 0.602589 0.753007 0.105486
H82_2 H 0.560579 0.750324 0.087072
H98_2 H 0.569035 0.966191 0.143761
C94_2 C 0.5818(6) 0.9495(7) 0.2610(8)
H99_2 H 0.562135 0.929631 0.238525
H100_2 H 0.602776 0.923021 0.263725
H101_2 H 0.573615 0.959831 0.303025
N13_2 N 0.22346(9) 0.86140(15) 0.31523(17)
N18_2 N 0.20916(9) 0.75929(16) 0.21483(18)
N19_2 N 0.500000 0.9570(12) 0.576(2)
O2_5 O 0.42212(10) 1.000000 1.000000
H1_5 H 0.4456(3) 1.000000 1.000000
O9_2 O 0.36528(7) 0.99969(13) 0.91870(15)
Al3_2 Al 0.45387(3) 0.87376(5) 0.88424(5)
Al4_2 Al 0.39933(3) 0.94221(5) 0.94987(6)
O13_2 O 0.43193(7) 0.87857(11) 0.96476(13)
O14_2 O 0.41042(7) 0.83523(12) 0.84938(13)
O15_2 O 0.43099(7) 0.94936(11) 0.87985(12)
O16_2 O 0.500000 0.90128(16) 0.90986(17)
O17_2 O 0.36758(7) 0.88870(13) 0.90173(14)
O18_2 O 0.46922(8) 0.79250(12) 0.89537(15)
O19_2 O 0.46917(7) 0.87719(13) 0.79766(13)
N6_2 N 0.29084(9) 0.74071(16) 0.78517(18)
C31_2 C 0.500000 0.7680(2) 0.9023(3)
C32_2 C 0.34732(11) 0.81043(19) 0.8351(2)
C33_2 C 0.37742(10) 0.84769(18) 0.8642(2)
C35_2 C 0.500000 0.8854(2) 0.7727(3)
C36_2 C 0.500000 0.7027(3) 0.9210(3)
C38_2 C 0.500000 0.9096(3) 0.7064(3)
C43_2 C 0.28467(14) 0.7911(3) 0.8149(4)
H36_2 H 0.260221 0.803719 0.818667
C44_2 C 0.31144(14) 0.8270(3) 0.8412(4)
H37_2 H 0.305090 0.862028 0.862929
C45_2 C 0.35487(14) 0.7605(3) 0.8021(4)
H38_2 H 0.379281 0.748828 0.795391
C46_2 C 0.32603(14) 0.7259(3) 0.7780(4)
H39_2 H 0.331736 0.690756 0.755902
H43_2 H 0.411106 0.759946 0.977967
C49_2 C 0.5347(3) 0.6681(4) 0.9111(6)
H44_2 H 0.555323 0.685899 0.892287
C50_2 C 0.4350(3) 0.9954(4) 0.8353(5)
H45_2 H 0.460254 0.995023 0.819508
C51_2 C 0.4668(3) 0.9264(5) 0.6089(4)
H47_2 H 0.444415 0.925631 0.587005
C52_2 C 0.4680(2) 0.9003(5) 0.6676(4)
H48_2 H 0.448371 0.876940 0.682158
C53_2 C 0.5355(3) 0.6092(5) 0.9304(5)
H49_2 H 0.556435 0.585301 0.925030
C56_2 C 0.4053(3) 0.9893(5) 0.7724(5)
H56_2 H 0.410168 0.954006 0.746401
H57_2 H 0.379560 0.990123 0.785258
O22_2 O 0.53078(8) 0.79250(12) 0.89537(15)
C57_2 C 0.4653(3) 0.6681(4) 0.9111(6)
H58_2 H 0.444677 0.685899 0.892287
C58_2 C 0.4645(3) 0.6092(5) 0.9304(5)
H59_2 H 0.443565 0.585301 0.925030
O23_2 O 0.53083(7) 0.87719(13) 0.79766(13)
C59_2 C 0.5332(3) 0.9264(5) 0.6089(4)
H60_2 H 0.555585 0.925631 0.587005
C60_2 C 0.5320(2) 0.9003(5) 0.6676(4)
H61_2 H 0.551629 0.876940 0.682158
Al5_2 Al 0.54613(3) 0.87376(5) 0.88424(5)
Al6_2 Al 0.60067(3) 0.94221(5) 0.94987(6)
O24_2 O 0.56807(7) 0.87857(11) 0.96476(13)
O25_5 O 0.57788(10) 1.000000 1.000000
H62_5 H 0.5544(3) 1.000000 1.000000
O26_2 O 0.58958(7) 0.83523(12) 0.84938(13)
O27_2 O 0.56901(7) 0.94936(11) 0.87985(12)
O28_2 O 0.63242(7) 0.88870(13) 0.90173(14)
C61_2 C 0.65268(11) 0.81043(19) 0.8351(2)
C62_2 C 0.62258(10) 0.84769(18) 0.8642(2)
C69_2 C 0.71533(14) 0.7911(3) 0.8149(4)
H67_2 H 0.739779 0.803719 0.818667
C70_2 C 0.68856(14) 0.8270(3) 0.8412(4)
H68_2 H 0.694910 0.862028 0.862929
C71_2 C 0.64513(14) 0.7605(3) 0.8021(4)
H69_2 H 0.620719 0.748828 0.795391
C72_2 C 0.67397(14) 0.7259(3) 0.7780(4)
H70_2 H 0.668264 0.690756 0.755902
H74_2 H 0.588894 0.759946 0.977967
C75_2 C 0.5650(3) 0.9954(4) 0.8353(5)
H75_2 H 0.539746 0.995023 0.819508
C78_2 C 0.5947(3) 0.9893(5) 0.7724(5)
H83_2 H 0.589832 0.954006 0.746401
H84_2 H 0.620440 0.990123 0.785258
O35_2 O 0.63472(7) 0.99969(13) 0.91870(15)
Cu2_3 Cu -0.000000 0.000000 0.000000
N19_3 N -0.000000 0.0430(12) 0.076(2)
O2_6 O 0.07788(10) -0.000000 0.500000
H1_6 H 0.0544(3) -0.000000 0.500000
O9_3 O 0.13472(7) 0.00031(13) 0.41870(15)
H16_3 H 0.069035 0.033809 0.643761
C24_3 C 0.0818(6) 0.0505(7) 0.7610(8)
H20_3 H 0.062135 0.070369 0.738525
H21_3 H 0.102776 0.076979 0.763725
H22_3 H 0.073615 0.040169 0.803025
Cu2_4 Cu -0.000000 0.000000 1.000000
Al3_3 Al 0.04613(3) 0.12624(5) 0.38424(5)
Al4_3 Al 0.10067(3) 0.05779(5) 0.44987(6)
O13_3 O 0.06807(7) 0.12143(11) 0.46476(13)
O14_3 O 0.08958(7) 0.16477(12) 0.34938(13)
O15_3 O 0.06901(7) 0.05064(11) 0.37985(12)
O16_3 O 0.000000 0.09872(16) 0.40986(17)
O17_3 O 0.13242(7) 0.11130(13) 0.40173(14)
O18_3 O 0.03078(8) 0.20750(12) 0.39537(15)
O19_3 O 0.03083(7) 0.12281(13) 0.29766(13)
O21_3 O 0.13269(8) 0.08076(13) 0.51747(14)
N6_3 N 0.20916(9) 0.25929(16) 0.28517(18)
C31_3 C 0.000000 0.2320(2) 0.4023(3)
C32_3 C 0.15268(11) 0.18957(19) 0.3351(2)
C33_3 C 0.12258(10) 0.15231(18) 0.3642(2)
C34_3 C 0.17186(10) 0.08261(18) 0.6066(2)
C35_3 C -0.000000 0.1146(2) 0.2727(3)
C36_3 C -0.000000 0.2973(3) 0.4210(3)
C37_3 C 0.14394(11) 0.05229(19) 0.5652(2)
C38_3 C -0.000000 0.0904(3) 0.2064(3)
N8_2 N -0.000000 0.4159(3) 0.4617(3)
C39_3 C 0.20836(13) 0.0860(2) 0.7002(2)
H32_3 H 0.215408 0.068102 0.738377
C40_3 C 0.18261(13) 0.0564(2) 0.6626(2)
H33_3 H 0.172842 0.019493 0.675125
C41_3 C 0.18755(15) 0.1367(2) 0.5898(2)
H34_3 H 0.180724 0.155619 0.552052
C42_3 C 0.21363(15) 0.1628(2) 0.6294(2)
H35_3 H 0.224710 0.198739 0.616795
C43_3 C 0.21533(14) 0.2089(3) 0.3149(4)
H36_3 H 0.239779 0.196281 0.318667
C44_3 C 0.18856(14) 0.1730(3) 0.3412(4)
H37_3 H 0.194910 0.137972 0.362929
C45_3 C 0.14513(14) 0.2395(3) 0.3021(4)
H38_3 H 0.120719 0.251172 0.295391
C46_3 C 0.17397(14) 0.2741(3) 0.2780(4)
H39_3 H 0.168264 0.309244 0.255902
C47_3 C 0.0655(2) 0.1607(3) 0.5180(3)
H40_3 H 0.070475 0.137488 0.556223
H41_3 H 0.040248 0.175295 0.520897
C48_3 C 0.0926(2) 0.2174(4) 0.5169(4)
H42_3 H 0.118086 0.203642 0.517909
H43_3 H 0.088894 0.240054 0.477967
C50_3 C 0.0650(3) 0.0046(4) 0.3353(5)
H45_3 H 0.039746 0.004977 0.319508
C51_3 C 0.0332(3) 0.0736(5) 0.1089(4)
H47_3 H 0.055585 0.074369 0.087005
C52_3 C 0.0320(2) 0.0997(5) 0.1676(4)
H48_3 H 0.051629 0.123060 0.182158
C55_3 C 0.0854(5) 0.2563(8) 0.5721(8)
H53_3 H 0.088159 0.297833 0.559937
H54_3 H 0.102589 0.246993 0.605486
H55_3 H 0.060579 0.249676 0.587072
C56_3 C 0.0947(3) 0.0107(5) 0.2724(5)
H56_3 H 0.089832 0.045994 0.246401
H57_3 H 0.120440 0.009877 0.285258
C57_3 C 0.0347(3) 0.3319(4) 0.4111(6)
H58_3 H 0.055323 0.314101 0.392287
C58_3 C 0.0355(3) 0.3908(5) 0.4304(5)
H59_3 H 0.056435 0.414699 0.425030
N21_2 N -0.000000 0.0841(3) 0.9617(3)
Cu12_3 Cu -0.000000 0.500000 0.500000
Cu2_5 Cu -0.000000 1.000000 0.000000
N20_2 N -0.000000 0.9159(3) 0.0383(3)
Al1_3 Al 0.04613(3) 0.87376(5) 0.61576(5)
Al2_3 Al 0.10067(3) 0.94221(5) 0.55013(6)
O1_3 O 0.06807(7) 0.87857(11) 0.53524(13)
O2_7 O 0.07788(10) 1.000000 0.500000
H1_7 H 0.0544(3) 1.000000 0.500000
O3_3 O 0.08958(7) 0.83523(12) 0.65062(13)
O4_3 O 0.06901(7) 0.94936(11) 0.62015(12)
O5_3 O -0.000000 0.90128(16) 0.59014(17)
O6_3 O 0.13242(7) 0.88870(13) 0.59827(14)
O7_3 O 0.03078(8) 0.79250(12) 0.60463(15)
O8_3 O 0.03083(7) 0.87719(13) 0.70234(13)
O10_3 O 0.13269(8) 0.91924(13) 0.48253(14)
N2_3 N 0.20916(9) 0.74071(16) 0.71483(18)
C1_3 C 0.000000 0.7680(2) 0.5977(3)
C2_3 C 0.15268(11) 0.81043(19) 0.6649(2)
C3_3 C 0.12258(10) 0.84769(18) 0.6358(2)
C4_3 C 0.17186(10) 0.91739(18) 0.3934(2)
C5_3 C 0.000000 0.8854(2) 0.7273(3)
C6_3 C 0.000000 0.7027(3) 0.5790(3)
C7_3 C 0.14394(11) 0.94771(19) 0.4348(2)
N3_3 N -0.000000 0.9570(12) 0.924(2)
C8_3 C -0.000000 0.9096(3) 0.7936(3)
N4_2 N 0.000000 0.5841(3) 0.5383(3)
C9_3 C 0.20836(13) 0.9140(2) 0.2998(2)
H2_3 H 0.215408 0.931898 0.261623
C10_3 C 0.18261(13) 0.9436(2) 0.3374(2)
H3_3 H 0.172842 0.980507 0.324875
C11_3 C 0.18755(15) 0.8633(2) 0.4102(2)
H4_3 H 0.180724 0.844381 0.447948
C12_3 C 0.21363(15) 0.8372(2) 0.3706(2)
H5_3 H 0.224710 0.801261 0.383205
C13_3 C 0.21533(14) 0.7911(3) 0.6851(4)
H6_3 H 0.239779 0.803719 0.681333
C14_3 C 0.18856(14) 0.8270(3) 0.6588(4)
H7_3 H 0.194910 0.862028 0.637071
C15_3 C 0.14513(14) 0.7605(3) 0.6979(4)
H8_3 H 0.120719 0.748828 0.704609
C16_3 C 0.17397(14) 0.7259(3) 0.7220(4)
H9_3 H 0.168264 0.690756 0.744098
C17_3 C 0.0655(2) 0.8393(3) 0.4820(3)
H10_3 H 0.070475 0.862512 0.443777
H11_3 H 0.040248 0.824705 0.479103
C18_3 C 0.0926(2) 0.7826(4) 0.4831(4)
H12_3 H 0.118086 0.796358 0.482091
H13_3 H 0.088894 0.759946 0.522033
C20_3 C 0.0650(3) 0.9954(4) 0.6647(5)
H15_3 H 0.039746 0.995023 0.680492
C21_3 C 0.0332(3) 0.9264(5) 0.8911(4)
H17_3 H 0.055585 0.925631 0.912995
C22_3 C 0.0320(2) 0.9003(5) 0.8324(4)
H18_3 H 0.051629 0.876940 0.817842
C25_3 C 0.0854(5) 0.7437(8) 0.4279(8)
H23_3 H 0.088159 0.702167 0.440063
H24_3 H 0.102589 0.753007 0.394514
H25_3 H 0.060579 0.750324 0.412928
C26_3 C 0.0947(3) 0.9893(5) 0.7276(5)
H26_3 H 0.089832 0.954006 0.753599
H27_3 H 0.120440 0.990123 0.714742
Cu2_6 Cu -0.000000 1.000000 1.000000
C27_3 C 0.0347(3) 0.6681(4) 0.5889(6)
H28_3 H 0.055323 0.685899 0.607713
C28_3 C 0.0355(3) 0.6092(5) 0.5696(5)
H29_3 H 0.056435 0.585301 0.574970
O20_3 O 0.13472(7) 0.99969(13) 0.58130(15)
H46_3 H 0.069035 0.966191 0.356239
C54_3 C 0.0818(6) 0.9495(7) 0.2390(8)
H50_3 H 0.062135 0.929631 0.261475
H51_3 H 0.102776 0.923021 0.236275
H52_3 H 0.073615 0.959831 0.196975
Cu2_7 Cu 1.000000 0.000000 0.000000
N19_4 N 1.000000 0.0430(12) 0.076(2)
Cu2_8 Cu 1.000000 0.000000 1.000000
O16_4 O 1.000000 0.09872(16) 0.40986(17)
C31_4 C 1.000000 0.2320(2) 0.4023(3)
C35_4 C 1.000000 0.1146(2) 0.2727(3)
C36_4 C 1.000000 0.2973(3) 0.4210(3)
C38_4 C 1.000000 0.0904(3) 0.2064(3)
N8_3 N 1.000000 0.4159(3) 0.4617(3)
C49_3 C 0.9653(3) 0.3319(4) 0.4111(6)
H44_3 H 0.944677 0.314101 0.392287
C53_3 C 0.9645(3) 0.3908(5) 0.4304(5)
H49_3 H 0.943565 0.414699 0.425030
O22_3 O 0.96922(8) 0.20750(12) 0.39537(15)
O23_3 O 0.96917(7) 0.12281(13) 0.29766(13)
C59_3 C 0.9668(3) 0.0736(5) 0.1089(4)
H60_3 H 0.944415 0.074369 0.087005
C60_3 C 0.9680(2) 0.0997(5) 0.1676(4)
H61_3 H 0.948371 0.123060 0.182158
Al5_3 Al 0.95387(3) 0.12624(5) 0.38424(5)
Al6_3 Al 0.89933(3) 0.05779(5) 0.44987(6)
O24_3 O 0.93193(7) 0.12143(11) 0.46476(13)
O25_6 O 0.92212(10) -0.000000 0.500000
H62_6 H 0.9456(3) -0.000000 0.500000
O26_3 O 0.91042(7) 0.16477(12) 0.34938(13)
O27_3 O 0.93099(7) 0.05064(11) 0.37985(12)
O28_3 O 0.86758(7) 0.11130(13) 0.40173(14)
O30_3 O 0.86731(8) 0.08076(13) 0.51747(14)
N9_3 N 0.77654(9) 0.13860(15) 0.68477(17)
C61_3 C 0.84732(11) 0.18957(19) 0.3351(2)
C62_3 C 0.87742(10) 0.15231(18) 0.3642(2)
C63_3 C 0.82814(10) 0.08261(18) 0.6066(2)
C64_3 C 0.85606(11) 0.05229(19) 0.5652(2)
C65_3 C 0.79164(13) 0.0860(2) 0.7002(2)
H63_3 H 0.784592 0.068102 0.738377
C66_3 C 0.81739(13) 0.0564(2) 0.6626(2)
H64_3 H 0.827158 0.019493 0.675125
C67_3 C 0.81245(15) 0.1367(2) 0.5898(2)
H65_3 H 0.819276 0.155619 0.552052
C68_3 C 0.78637(15) 0.1628(2) 0.6294(2)
H66_3 H 0.775290 0.198739 0.616795
C69_3 C 0.78467(14) 0.2089(3) 0.3149(4)
H67_3 H 0.760221 0.196281 0.318667
C70_3 C 0.81144(14) 0.1730(3) 0.3412(4)
H68_3 H 0.805090 0.137972 0.362929
C71_3 C 0.85487(14) 0.2395(3) 0.3021(4)
H69_3 H 0.879281 0.251172 0.295391
C72_3 C 0.82603(14) 0.2741(3) 0.2780(4)
H70_3 H 0.831736 0.309244 0.255902
C73_3 C 0.9345(2) 0.1607(3) 0.5180(3)
H71_3 H 0.929525 0.137488 0.556223
H72_3 H 0.959752 0.175295 0.520897
C74_3 C 0.9074(2) 0.2174(4) 0.5169(4)
H73_3 H 0.881914 0.203642 0.517909
H74_3 H 0.911106 0.240054 0.477967
C75_3 C 0.9350(3) 0.0046(4) 0.3353(5)
H75_3 H 0.960254 0.004977 0.319508
C77_3 C 0.9146(5) 0.2563(8) 0.5721(8)
H80_3 H 0.911841 0.297833 0.559937
H81_3 H 0.897411 0.246993 0.605486
H82_3 H 0.939421 0.249676 0.587072
C78_3 C 0.9053(3) 0.0107(5) 0.2724(5)
H83_3 H 0.910168 0.045994 0.246401
H84_3 H 0.879560 0.009877 0.285258
O35_3 O 0.86528(7) 0.00031(13) 0.41870(15)
H98_3 H 0.930965 0.033809 0.643761
C94_3 C 0.9182(6) 0.0505(7) 0.7610(8)
H99_3 H 0.937865 0.070369 0.738525
H100_3 H 0.897224 0.076979 0.763725
H101_3 H 0.926385 0.040169 0.803025
N21_3 N 1.000000 0.0841(3) 0.9617(3)
Cu12_4 Cu 1.000000 0.500000 0.500000
Cu2_9 Cu 1.000000 1.000000 0.000000
N20_3 N 1.000000 0.9159(3) 0.0383(3)
O5_4 O 1.000000 0.90128(16) 0.59014(17)
C1_4 C 1.000000 0.7680(2) 0.5977(3)
C5_4 C 1.000000 0.8854(2) 0.7273(3)
C6_4 C 1.000000 0.7027(3) 0.5790(3)
N3_4 N 1.000000 0.9570(12) 0.924(2)
C8_4 C 1.000000 0.9096(3) 0.7936(3)
N4_3 N 1.000000 0.5841(3) 0.5383(3)
C19_3 C 0.9653(3) 0.6681(4) 0.5889(6)
H14_3 H 0.944677 0.685899 0.607713
C23_3 C 0.9645(3) 0.6092(5) 0.5696(5)
H19_3 H 0.943565 0.585301 0.574970
Cu2_10 Cu 1.000000 1.000000 1.000000
O11_3 O 0.96922(8) 0.79250(12) 0.60463(15)
O12_3 O 0.96917(7) 0.87719(13) 0.70234(13)
C29_3 C 0.9668(3) 0.9264(5) 0.8911(4)
H30_3 H 0.944415 0.925631 0.912995
C30_3 C 0.9680(2) 0.9003(5) 0.8324(4)
H31_3 H 0.948371 0.876940 0.817842
O25_7 O 0.92212(10) 1.000000 0.500000
H62_7 H 0.9456(3) 1.000000 0.500000
O29_3 O 0.86528(7) 0.99969(13) 0.58130(15)
H76_3 H 0.930965 0.966191 0.356239
C76_3 C 0.9182(6) 0.9495(7) 0.2390(8)
H77_3 H 0.937865 0.929631 0.261475
H78_3 H 0.897224 0.923021 0.236275
H79_3 H 0.926385 0.959831 0.196975
Al7_3 Al 0.95387(3) 0.87376(5) 0.61576(5)
Al8_3 Al 0.89933(3) 0.94221(5) 0.55013(6)
O31_3 O 0.93193(7) 0.87857(11) 0.53524(13)
O32_3 O 0.91042(7) 0.83523(12) 0.65062(13)
O33_3 O 0.93099(7) 0.94936(11) 0.62015(12)
O34_3 O 0.86758(7) 0.88870(13) 0.59827(14)
O36_3 O 0.86731(8) 0.91924(13) 0.48253(14)
N11_3 N 0.77654(9) 0.86140(15) 0.31523(17)
C79_3 C 0.84732(11) 0.81043(19) 0.6649(2)
C80_3 C 0.87742(10) 0.84769(18) 0.6358(2)
C81_3 C 0.82814(10) 0.91739(18) 0.3934(2)
C82_3 C 0.85606(11) 0.94771(19) 0.4348(2)
C83_3 C 0.79164(13) 0.9140(2) 0.2998(2)
H85_3 H 0.784592 0.931898 0.261623
C84_3 C 0.81739(13) 0.9436(2) 0.3374(2)
H86_3 H 0.827158 0.980507 0.324875
C85_3 C 0.81245(15) 0.8633(2) 0.4102(2)
H87_3 H 0.819276 0.844381 0.447948
C86_3 C 0.78637(15) 0.8372(2) 0.3706(2)
H88_3 H 0.775290 0.801261 0.383205
C87_3 C 0.78467(14) 0.7911(3) 0.6851(4)
H89_3 H 0.760221 0.803719 0.681333
C88_3 C 0.81144(14) 0.8270(3) 0.6588(4)
H90_3 H 0.805090 0.862028 0.637071
C89_3 C 0.85487(14) 0.7605(3) 0.6979(4)
H91_3 H 0.879281 0.748828 0.704609
C90_3 C 0.82603(14) 0.7259(3) 0.7220(4)
H92_3 H 0.831736 0.690756 0.744098
C91_3 C 0.9345(2) 0.8393(3) 0.4820(3)
H93_3 H 0.929525 0.862512 0.443777
H94_3 H 0.959752 0.824705 0.479103
C92_3 C 0.9074(2) 0.7826(4) 0.4831(4)
H95_3 H 0.881914 0.796358 0.482091
H96_3 H 0.911106 0.759946 0.522033
C93_3 C 0.9350(3) 0.9954(4) 0.6647(5)
H97_3 H 0.960254 0.995023 0.680492
C95_3 C 0.9146(5) 0.7437(8) 0.4279(8)
H102_3 H 0.911841 0.702167 0.440063
H103_3 H 0.897411 0.753007 0.394514
H104_3 H 0.939421 0.750324 0.412928
C96_3 C 0.9053(3) 0.9893(5) 0.7276(5)
H105_3 H 0.910168 0.954006 0.753599
H106_3 H 0.879560 0.990123 0.714742
O5_5 O -0.000000 0.59872(16) 0.09014(17)
C1_5 C 0.000000 0.7320(2) 0.0977(3)
C5_5 C 0.000000 0.6146(2) 0.2273(3)
C6_5 C 0.000000 0.7973(3) 0.0790(3)
N3_5 N 0.000000 0.5430(12) 0.424(2)
C8_5 C 0.000000 0.5904(3) 0.2936(3)
C19_4 C 0.0347(3) 0.8319(4) 0.0889(6)
H14_4 H 0.055323 0.814101 0.107713
C23_4 C 0.0355(3) 0.8908(5) 0.0696(5)
H19_4 H 0.056435 0.914699 0.074970
O11_4 O 0.03078(8) 0.70750(12) 0.10463(15)
O12_4 O 0.03083(7) 0.62281(13) 0.20234(13)
C29_4 C 0.0332(3) 0.5736(5) 0.3911(4)
H30_4 H 0.055585 0.574369 0.412995
C30_4 C 0.0320(2) 0.5997(5) 0.3324(4)
H31_4 H 0.051629 0.623060 0.317842
O25_8 O 0.07788(10) 0.500000 0.000000
H62_8 H 0.0544(3) 0.500000 0.000000
O29_4 O 0.13472(7) 0.50031(13) 0.08130(15)
O30_4 O 0.13269(8) 0.41924(13) 0.01747(14)
N9_4 N 0.22346(9) 0.36140(15) 0.18477(17)
C63_4 C 0.17186(10) 0.41739(18) 0.1066(2)
C64_4 C 0.14394(11) 0.44771(19) 0.0652(2)
C65_4 C 0.20836(13) 0.4140(2) 0.2002(2)
H63_4 H 0.215408 0.431898 0.238377
C66_4 C 0.18261(13) 0.4436(2) 0.1626(2)
H64_4 H 0.172842 0.480507 0.175125
C67_4 C 0.18755(15) 0.3633(2) 0.0898(2)
H65_4 H 0.180724 0.344381 0.052052
C68_4 C 0.21363(15) 0.3372(2) 0.1294(2)
H66_4 H 0.224710 0.301261 0.116795
C73_4 C 0.0655(2) 0.3393(3) 0.0180(3)
H71_4 H 0.070475 0.362512 0.056223
H72_4 H 0.040248 0.324705 0.020897
C74_4 C 0.0926(2) 0.2826(4) 0.0169(4)
H73_4 H 0.118086 0.296358 0.017909
C77_4 C 0.0854(5) 0.2437(8) 0.0721(8)
H80_4 H 0.088159 0.202167 0.059937
H81_4 H 0.102589 0.253007 0.105486
H82_4 H 0.060579 0.250324 0.087072
Al7_4 Al 0.04613(3) 0.62624(5) 0.11576(5)
Al8_4 Al 0.10067(3) 0.55779(5) 0.05013(6)
O31_4 O 0.06807(7) 0.62143(11) 0.03524(13)
O32_4 O 0.08958(7) 0.66477(12) 0.15062(13)
O33_4 O 0.06901(7) 0.55064(11) 0.12015(12)
O34_4 O 0.13242(7) 0.61130(13) 0.09827(14)
C79_4 C 0.15268(11) 0.68957(19) 0.1649(2)
C80_4 C 0.12258(10) 0.65231(18) 0.1358(2)
C87_4 C 0.21533(14) 0.7089(3) 0.1851(4)
H89_4 H 0.239779 0.696281 0.181333
C88_4 C 0.18856(14) 0.6730(3) 0.1588(4)
H90_4 H 0.194910 0.637972 0.137071
C89_4 C 0.14513(14) 0.7395(3) 0.1979(4)
H91_4 H 0.120719 0.751172 0.204609
C90_4 C 0.17397(14) 0.7741(3) 0.2220(4)
H92_4 H 0.168264 0.809244 0.244098
H96_4 H 0.088894 0.740054 0.022033
C93_4 C 0.0650(3) 0.5046(4) 0.1647(5)
H97_4 H 0.039746 0.504977 0.180492
H98_4 H 0.069035 0.466191 0.143761
C94_4 C 0.0818(6) 0.4495(7) 0.2610(8)
H99_4 H 0.062135 0.429631 0.238525
H100_4 H 0.102776 0.423021 0.263725
H101_4 H 0.073615 0.459831 0.303025
C96_4 C 0.0947(3) 0.5107(5) 0.2276(5)
H105_4 H 0.089832 0.545994 0.253599
H106_4 H 0.120440 0.509877 0.214742
N19_5 N 0.000000 0.4570(12) 0.576(2)
O16_5 O -0.000000 0.40128(16) 0.90986(17)
C31_5 C 0.000000 0.2680(2) 0.9023(3)
C35_5 C 0.000000 0.3854(2) 0.7727(3)
C36_5 C 0.000000 0.2027(3) 0.9210(3)
C38_5 C -0.000000 0.4096(3) 0.7064(3)
C49_4 C 0.0347(3) 0.1681(4) 0.9111(6)
H44_4 H 0.055323 0.185899 0.892287
C53_4 C 0.0355(3) 0.1092(5) 0.9304(5)
H49_4 H 0.056435 0.085301 0.925030
O22_4 O 0.03078(8) 0.29250(12) 0.89537(15)
O23_4 O 0.03083(7) 0.37719(13) 0.79766(13)
C59_4 C 0.0332(3) 0.4264(5) 0.6089(4)
H60_4 H 0.055585 0.425631 0.587005
C60_4 C 0.0320(2) 0.4003(5) 0.6676(4)
H61_4 H 0.051629 0.376940 0.682158
Al5_4 Al 0.04613(3) 0.37376(5) 0.88424(5)
Al6_4 Al 0.10067(3) 0.44221(5) 0.94987(6)
O24_4 O 0.06807(7) 0.37857(11) 0.96476(13)
O25_9 O 0.07788(10) 0.500000 1.000000
H62_9 H 0.0544(3) 0.500000 1.000000
O26_4 O 0.08958(7) 0.33523(12) 0.84938(13)
O27_4 O 0.06901(7) 0.44936(11) 0.87985(12)
O28_4 O 0.13242(7) 0.38870(13) 0.90173(14)
C61_4 C 0.15268(11) 0.31043(19) 0.8351(2)
C62_4 C 0.12258(10) 0.34769(18) 0.8642(2)
C69_4 C 0.21533(14) 0.2911(3) 0.8149(4)
H67_4 H 0.239779 0.303719 0.818667
C70_4 C 0.18856(14) 0.3270(3) 0.8412(4)
H68_4 H 0.194910 0.362028 0.862929
C71_4 C 0.14513(14) 0.2605(3) 0.8021(4)
H69_4 H 0.120719 0.248828 0.795391
C72_4 C 0.17397(14) 0.2259(3) 0.7780(4)
H70_4 H 0.168264 0.190756 0.755902
H74_4 H 0.088894 0.259946 0.977967
C75_4 C 0.0650(3) 0.4954(4) 0.8353(5)
H75_4 H 0.039746 0.495023 0.819508
H76_4 H 0.069035 0.533809 0.856239
C76_4 C 0.0818(6) 0.5505(7) 0.7390(8)
H77_4 H 0.062135 0.570369 0.761475
H78_4 H 0.102776 0.576979 0.736275
H79_4 H 0.073615 0.540169 0.696975
C78_4 C 0.0947(3) 0.4893(5) 0.7724(5)
H83_4 H 0.089832 0.454006 0.746401
H84_4 H 0.120440 0.490123 0.785258
O35_4 O 0.13472(7) 0.49969(13) 0.91870(15)
O36_4 O 0.13269(8) 0.58076(13) 0.98253(14)
N11_4 N 0.22346(9) 0.63860(15) 0.81523(17)
C81_4 C 0.17186(10) 0.58261(18) 0.8934(2)
C82_4 C 0.14394(11) 0.55229(19) 0.9348(2)
C83_4 C 0.20836(13) 0.5860(2) 0.7998(2)
H85_4 H 0.215408 0.568102 0.761623
C84_4 C 0.18261(13) 0.5564(2) 0.8374(2)
H86_4 H 0.172842 0.519493 0.824875
C85_4 C 0.18755(15) 0.6367(2) 0.9102(2)
H87_4 H 0.180724 0.655619 0.947948
C86_4 C 0.21363(15) 0.6628(2) 0.8706(2)
H88_4 H 0.224710 0.698739 0.883205
C91_4 C 0.0655(2) 0.6607(3) 0.9820(3)
H93_4 H 0.070475 0.637488 0.943777
H94_4 H 0.040248 0.675295 0.979103
C92_4 C 0.0926(2) 0.7174(4) 0.9831(4)
H95_4 H 0.118086 0.703642 0.982091
C95_4 C 0.0854(5) 0.7563(8) 0.9279(8)
H102_4 H 0.088159 0.797833 0.940063
H103_4 H 0.102589 0.746993 0.894514
H104_4 H 0.060579 0.749676 0.912928
Al1_4 Al 0.95387(3) 0.62624(5) 0.11576(5)
Al2_4 Al 0.89933(3) 0.55779(5) 0.05013(6)
O1_4 O 0.93193(7) 0.62143(11) 0.03524(13)
O2_8 O 0.92212(10) 0.500000 0.000000
H1_8 H 0.9456(3) 0.500000 0.000000
O3_4 O 0.91042(7) 0.66477(12) 0.15062(13)
O4_4 O 0.93099(7) 0.55064(11) 0.12015(12)
O5_6 O 1.000000 0.59872(16) 0.09014(17)
O6_4 O 0.86758(7) 0.61130(13) 0.09827(14)
O7_4 O 0.96922(8) 0.70750(12) 0.10463(15)
O8_4 O 0.96917(7) 0.62281(13) 0.20234(13)
N2_4 N 0.79084(9) 0.75929(16) 0.21483(18)
C1_6 C 1.000000 0.7320(2) 0.0977(3)
C2_4 C 0.84732(11) 0.68957(19) 0.1649(2)
C3_4 C 0.87742(10) 0.65231(18) 0.1358(2)
C5_6 C 1.000000 0.6146(2) 0.2273(3)
C6_6 C 1.000000 0.7973(3) 0.0790(3)
N3_6 N 1.000000 0.5430(12) 0.424(2)
C8_6 C 1.000000 0.5904(3) 0.2936(3)
C13_4 C 0.78467(14) 0.7089(3) 0.1851(4)
H6_4 H 0.760221 0.696281 0.181333
C14_4 C 0.81144(14) 0.6730(3) 0.1588(4)
H7_4 H 0.805090 0.637972 0.137071
C15_4 C 0.85487(14) 0.7395(3) 0.1979(4)
H8_4 H 0.879281 0.751172 0.204609
C16_4 C 0.82603(14) 0.7741(3) 0.2220(4)
H9_4 H 0.831736 0.809244 0.244098
H13_4 H 0.911106 0.740054 0.022033
C20_4 C 0.9350(3) 0.5046(4) 0.1647(5)
H15_4 H 0.960254 0.504977 0.180492
H16_4 H 0.930965 0.466191 0.143761
C21_4 C 0.9668(3) 0.5736(5) 0.3911(4)
H17_4 H 0.944415 0.574369 0.412995
C22_4 C 0.9680(2) 0.5997(5) 0.3324(4)
H18_4 H 0.948371 0.623060 0.317842
C24_4 C 0.9182(6) 0.4495(7) 0.2610(8)
H20_4 H 0.937865 0.429631 0.238525
H21_4 H 0.897224 0.423021 0.263725
H22_4 H 0.926385 0.459831 0.303025
C26_4 C 0.9053(3) 0.5107(5) 0.2276(5)
H26_4 H 0.910168 0.545994 0.253599
H27_4 H 0.879560 0.509877 0.214742
C27_4 C 0.9653(3) 0.8319(4) 0.0889(6)
H28_4 H 0.944677 0.814101 0.107713
C28_4 C 0.9645(3) 0.8908(5) 0.0696(5)
H29_4 H 0.943565 0.914699 0.074970
O20_4 O 0.86528(7) 0.50031(13) 0.08130(15)
O21_4 O 0.86731(8) 0.41924(13) 0.01747(14)
C34_4 C 0.82814(10) 0.41739(18) 0.1066(2)
C37_4 C 0.85606(11) 0.44771(19) 0.0652(2)
C39_4 C 0.79164(13) 0.4140(2) 0.2002(2)
H32_4 H 0.784592 0.431898 0.238377
C40_4 C 0.81739(13) 0.4436(2) 0.1626(2)
H33_4 H 0.827158 0.480507 0.175125
C41_4 C 0.81245(15) 0.3633(2) 0.0898(2)
H34_4 H 0.819276 0.344381 0.052052
C42_4 C 0.78637(15) 0.3372(2) 0.1294(2)
H35_4 H 0.775290 0.301261 0.116795
C47_4 C 0.9345(2) 0.3393(3) 0.0180(3)
H40_4 H 0.929525 0.362512 0.056223
H41_4 H 0.959752 0.324705 0.020897
C48_4 C 0.9074(2) 0.2826(4) 0.0169(4)
H42_4 H 0.881914 0.296358 0.017909
C55_4 C 0.9146(5) 0.2437(8) 0.0721(8)
H53_4 H 0.911841 0.202167 0.059937
H54_4 H 0.897411 0.253007 0.105486
H55_4 H 0.939421 0.250324 0.087072
N19_6 N 1.000000 0.4570(12) 0.576(2)
O2_9 O 0.92212(10) 0.500000 1.000000
H1_9 H 0.9456(3) 0.500000 1.000000
O9_4 O 0.86528(7) 0.49969(13) 0.91870(15)
O10_4 O 0.86731(8) 0.58076(13) 0.98253(14)
C4_4 C 0.82814(10) 0.58261(18) 0.8934(2)
C7_4 C 0.85606(11) 0.55229(19) 0.9348(2)
C9_4 C 0.79164(13) 0.5860(2) 0.7998(2)
H2_4 H 0.784592 0.568102 0.761623
C10_4 C 0.81739(13) 0.5564(2) 0.8374(2)
H3_4 H 0.827158 0.519493 0.824875
C11_4 C 0.81245(15) 0.6367(2) 0.9102(2)
H4_4 H 0.819276 0.655619 0.947948
C12_4 C 0.78637(15) 0.6628(2) 0.8706(2)
H5_4 H 0.775290 0.698739 0.883205
C17_4 C 0.9345(2) 0.6607(3) 0.9820(3)
H10_4 H 0.929525 0.637488 0.943777
H11_4 H 0.959752 0.675295 0.979103
C18_4 C 0.9074(2) 0.7174(4) 0.9831(4)
H12_4 H 0.881914 0.703642 0.982091
C25_4 C 0.9146(5) 0.7563(8) 0.9279(8)
H23_4 H 0.911841 0.797833 0.940063
H24_4 H 0.897411 0.746993 0.894514
H25_4 H 0.939421 0.749676 0.912928
Al3_4 Al 0.95387(3) 0.37376(5) 0.88424(5)
Al4_4 Al 0.89933(3) 0.44221(5) 0.94987(6)
O13_4 O 0.93193(7) 0.37857(11) 0.96476(13)
O14_4 O 0.91042(7) 0.33523(12) 0.84938(13)
O15_4 O 0.93099(7) 0.44936(11) 0.87985(12)
O16_6 O 1.000000 0.40128(16) 0.90986(17)
O17_4 O 0.86758(7) 0.38870(13) 0.90173(14)
O18_4 O 0.96922(8) 0.29250(12) 0.89537(15)
O19_4 O 0.96917(7) 0.37719(13) 0.79766(13)
N6_4 N 0.79084(9) 0.24071(16) 0.78517(18)
C31_6 C 1.000000 0.2680(2) 0.9023(3)
C32_4 C 0.84732(11) 0.31043(19) 0.8351(2)
C33_4 C 0.87742(10) 0.34769(18) 0.8642(2)
C35_6 C 1.000000 0.3854(2) 0.7727(3)
C36_6 C 1.000000 0.2027(3) 0.9210(3)
C38_6 C 1.000000 0.4096(3) 0.7064(3)
C43_4 C 0.78467(14) 0.2911(3) 0.8149(4)
H36_4 H 0.760221 0.303719 0.818667
C44_4 C 0.81144(14) 0.3270(3) 0.8412(4)
H37_4 H 0.805090 0.362028 0.862929
C45_4 C 0.85487(14) 0.2605(3) 0.8021(4)
H38_4 H 0.879281 0.248828 0.795391
C46_4 C 0.82603(14) 0.2259(3) 0.7780(4)
H39_4 H 0.831736 0.190756 0.755902
H43_4 H 0.911106 0.259946 0.977967
C50_4 C 0.9350(3) 0.4954(4) 0.8353(5)
H45_4 H 0.960254 0.495023 0.819508
H46_4 H 0.930965 0.533809 0.856239
C51_4 C 0.9668(3) 0.4264(5) 0.6089(4)
H47_4 H 0.944415 0.425631 0.587005
C52_4 C 0.9680(2) 0.4003(5) 0.6676(4)
H48_4 H 0.948371 0.376940 0.682158
C54_4 C 0.9182(6) 0.5505(7) 0.7390(8)
H50_4 H 0.937865 0.570369 0.761475
H51_4 H 0.897224 0.576979 0.736275
H52_4 H 0.926385 0.540169 0.696975
C56_4 C 0.9053(3) 0.4893(5) 0.7724(5)
H56_4 H 0.910168 0.454006 0.746401
H57_4 H 0.879560 0.490123 0.785258
C57_4 C 0.9653(3) 0.1681(4) 0.9111(6)
H58_4 H 0.944677 0.185899 0.892287
C58_4 C 0.9645(3) 0.1092(5) 0.9304(5)
H59_4 H 0.943565 0.085301 0.925030
loop_
_geom_bond_atom_site_label_1
_geom_bond_atom_site_label_2
_geom_bond_site_symmetry_1
_geom_bond_site_symmetry_2
N19 Cu2 1_555 1_555
N20 Cu2 1_555 1_555
Cu1 N1 1_555 1_555
Al1 O1 1_555 1_555
Al2 O1 1_555 1_555
O1 C17 1_555 1_555
O2 Al2 1_555 1_555
H1 O2 1_555 1_555
O3 Al1 1_555 1_555
O4 Al1 1_555 1_555
O5 Al1 1_555 1_555
O6 Al2 1_555 1_555
O7 Al1 1_555 1_555
O8 Al1 1_555 1_555
O9 C7 1_555 1_555
O10 Al2 1_555 1_555
N1 C9 1_555 1_555
N2 C13 1_555 1_555
C1 O7 1_555 1_555
C2 C3 1_555 1_555
C3 O3 1_555 1_555
C4 C7 1_555 1_555
C5 O8 1_555 1_555
C6 C1 1_555 1_555
C7 O10 1_555 1_555
N3 C21 1_555 1_555
C8 C5 1_555 1_555
N4 C23 1_555 1_555
C9 H2 1_555 1_555
C10 C4 1_555 1_555
H3 C10 1_555 1_555
C11 C4 1_555 1_555
H4 C11 1_555 1_555
C12 N1 1_555 1_555
H5 C12 1_555 1_555
C13 H6 1_555 1_555
C14 C2 1_555 1_555
H7 C14 1_555 1_555
C15 C2 1_555 1_555
H8 C15 1_555 1_555
C16 N2 1_555 1_555
H9 C16 1_555 1_555
C17 H10 1_555 1_555
H11 C17 1_555 1_555
C18 C17 1_555 1_555
H12 C18 1_555 1_555
H13 C18 1_555 1_555
C19 C6 1_555 1_555
H14 C19 1_555 1_555
C20 O4 1_555 1_555
H15 C20 1_555 1_555
H16 C20 1_555 1_555
C21 H17 1_555 1_555
C22 C8 1_555 1_555
H18 C22 1_555 1_555
C23 C19 1_555 1_555
H19 C23 1_555 1_555
C24 H20 1_555 1_555
H21 C24 1_555 1_555
H22 C24 1_555 1_555
C25 C18 1_555 1_555
H23 C25 1_555 1_555
H24 C25 1_555 1_555
H25 C25 1_555 1_555
C26 C20 1_555 1_555
H26 C26 1_555 1_555
H27 C26 1_555 1_555
Cu2_2 N3 1_555 1_555
O11 C1 1_555 1_555
C27 C6 1_555 1_555
H28 C27 1_555 1_555
C28 N4 1_555 1_555
H29 C28 1_555 1_555
O12 C5 1_555 1_555
C29 N3 1_555 1_555
H30 C29 1_555 1_555
C30 C8 1_555 1_555
H31 C30 1_555 1_555
Cu3 N5 1_555 1_555
Al3 O13 1_555 1_555
Al4 O2 1_555 1_555
O13 Al4 1_555 1_555
O14 Al3 1_555 1_555
O15 Al3 1_555 1_555
O16 Al3 1_555 1_555
O17 Al4 1_555 1_555
O18 Al3 1_555 1_555
O19 Al3 1_555 1_555
O20 Al2 1_555 1_555
O21 Al4 1_555 1_555
N5 C39 1_555 1_555
N6 C43 1_555 1_555
C31 O18 1_555 1_555
C32 C33 1_555 1_555
C33 O14 1_555 1_555
C34 C37 1_555 1_555
C35 O19 1_555 1_555
C36 C31 1_555 1_555
C37 O20 1_555 1_555
N19 C51 1_555 1_555
C38 C35 1_555 1_555
N8 C53 1_555 1_555
C39 H32 1_555 1_555
C40 C34 1_555 1_555
H33 C40 1_555 1_555
C41 C34 1_555 1_555
H34 C41 1_555 1_555
C42 N5 1_555 1_555
H35 C42 1_555 1_555
C43 H36 1_555 1_555
C44 C32 1_555 1_555
H37 C44 1_555 1_555
C45 C32 1_555 1_555
H38 C45 1_555 1_555
C46 N6 1_555 1_555
H39 C46 1_555 1_555
C47 O13 1_555 1_555
H40 C47 1_555 1_555
H41 C47 1_555 1_555
C48 C47 1_555 1_555
H42 C48 1_555 1_555
H43 C48 1_555 1_555
C49 C36 1_555 1_555
H44 C49 1_555 1_555
C50 O15 1_555 1_555
H45 C50 1_555 1_555
H46 C50 1_555 1_555
C51 H47 1_555 1_555
C52 C38 1_555 1_555
H48 C52 1_555 1_555
C53 C49 1_555 1_555
H49 C53 1_555 1_555
C54 H50 1_555 1_555
H51 C54 1_555 1_555
H52 C54 1_555 1_555
C55 C48 1_555 1_555
H53 C55 1_555 1_555
H54 C55 1_555 1_555
H55 C55 1_555 1_555
C56 C50 1_555 1_555
H56 C56 1_555 1_555
H57 C56 1_555 1_555
O22 C31 1_555 1_555
C57 C36 1_555 1_555
H58 C57 1_555 1_555
C58 N8 1_555 1_555
H59 C58 1_555 1_555
O23 C35 1_555 1_555
C59 N19 1_555 1_555
H60 C59 1_555 1_555
C60 C38 1_555 1_555
H61 C60 1_555 1_555
Al5 O16 1_555 1_555
Al6 O24 1_555 1_555
O24 Al5 1_555 1_555
O25 Al6 1_555 1_555
H62 O25 1_555 1_555
O26 Al5 1_555 1_555
O27 Al5 1_555 1_555
O28 Al6 1_555 1_555
O29 C64 1_555 1_555
O30 Al6 1_555 1_555
N9 C65 1_555 1_555
N10 C69 1_555 1_555
C61 C62 1_555 1_555
C62 O26 1_555 1_555
C63 C64 1_555 1_555
C64 O30 1_555 1_555
C65 H63 1_555 1_555
C66 C63 1_555 1_555
H64 C66 1_555 1_555
C67 C63 1_555 1_555
H65 C67 1_555 1_555
C68 N9 1_555 1_555
H66 C68 1_555 1_555
C69 H67 1_555 1_555
C70 C61 1_555 1_555
H68 C70 1_555 1_555
C71 C61 1_555 1_555
H69 C71 1_555 1_555
C72 N10 1_555 1_555
H70 C72 1_555 1_555
C73 O24 1_555 1_555
H71 C73 1_555 1_555
H72 C73 1_555 1_555
C74 C73 1_555 1_555
H73 C74 1_555 1_555
H74 C74 1_555 1_555
C75 O27 1_555 1_555
H75 C75 1_555 1_555
H76 C75 1_555 1_555
C76 H77 1_555 1_555
H78 C76 1_555 1_555
H79 C76 1_555 1_555
C77 C74 1_555 1_555
H80 C77 1_555 1_555
H81 C77 1_555 1_555
H82 C77 1_555 1_555
C78 C75 1_555 1_555
H83 C78 1_555 1_555
H84 C78 1_555 1_555
Al7 O5 1_555 1_555
Al8 O25 1_555 1_555
O31 Al7 1_555 1_555
O32 Al7 1_555 1_555
O33 Al7 1_555 1_555
O34 Al8 1_555 1_555
O35 Al6 1_555 1_555
O36 Al8 1_555 1_555
N11 C83 1_555 1_555
N12 C87 1_555 1_555
C79 C80 1_555 1_555
C80 O32 1_555 1_555
C81 C82 1_555 1_555
C82 O35 1_555 1_555
C83 H85 1_555 1_555
C84 C81 1_555 1_555
H86 C84 1_555 1_555
C85 C81 1_555 1_555
H87 C85 1_555 1_555
C86 N11 1_555 1_555
H88 C86 1_555 1_555
C87 H89 1_555 1_555
C88 C79 1_555 1_555
H90 C88 1_555 1_555
C89 C79 1_555 1_555
H91 C89 1_555 1_555
C90 N12 1_555 1_555
H92 C90 1_555 1_555
C91 O31 1_555 1_555
H93 C91 1_555 1_555
H94 C91 1_555 1_555
C92 C91 1_555 1_555
H95 C92 1_555 1_555
H96 C92 1_555 1_555
C93 O33 1_555 1_555
H97 C93 1_555 1_555
H98 C93 1_555 1_555
C94 H99 1_555 1_555
H100 C94 1_555 1_555
H101 C94 1_555 1_555
C95 C92 1_555 1_555
H102 C95 1_555 1_555
H103 C95 1_555 1_555
H104 C95 1_555 1_555
C96 C93 1_555 1_555
H105 C96 1_555 1_555
H106 C96 1_555 1_555
Cu4 N12 1_555 1_555
Cu5 N10 1_555 1_555
Cu6 N9 1_555 1_555
Cu7 N6 1_555 1_555
Cu8 N2 1_555 1_555
Cu9 N11 1_555 1_555
N13 Cu3 1_555 1_555
N14 Cu1 1_555 1_555
N15 Cu3 1_555 1_555
N16 Cu1 1_555 1_555
N17 Cu1 1_555 1_555
N18 Cu3 1_555 1_555
N21 Cu2_2 1_555 1_555
Cu12 N4 1_555 1_555
Cu12_2 N8 1_555 1_555
Al2 O4 1_555 1_555
O6 C3 1_555 1_555
O9 Al4 1_555 1_555
C9 C10 1_555 1_555
C11 C12 1_555 1_555
C13 C14 1_555 1_555
C15 C16 1_555 1_555
C21 C22 1_555 1_555
C24 C26 1_555 1_555
O11 Al7 1_555 1_555
C27 C28 1_555 1_555
O12 Al7 1_555 1_555
C29 C30 1_555 1_555
Al4 O15 1_555 1_555
O17 C33 1_555 1_555
O21 C37 1_555 1_555
C39 C40 1_555 1_555
C41 C42 1_555 1_555
C43 C44 1_555 1_555
C45 C46 1_555 1_555
C51 C52 1_555 1_555
C54 C56 1_555 1_555
O22 Al5 1_555 1_555
C57 C58 1_555 1_555
O23 Al5 1_555 1_555
C59 C60 1_555 1_555
Al6 O27 1_555 1_555
O28 C62 1_555 1_555
O29 Al8 1_555 1_555
C65 C66 1_555 1_555
C67 C68 1_555 1_555
C69 C70 1_555 1_555
C71 C72 1_555 1_555
C76 C78 1_555 1_555
Al8 O31 1_555 1_555
Al8 O33 1_555 1_555
O34 C80 1_555 1_555
O36 C82 1_555 1_555
C83 C84 1_555 1_555
C85 C86 1_555 1_555
C87 C88 1_555 1_555
C89 C90 1_555 1_555
C94 C96 1_555 1_555
Al1_2 O1_2 1_555 1_555
Al2_2 O1_2 1_555 1_555
O2_2 Al2_2 1_555 1_555
H1_2 O2_2 1_555 1_555
O3_2 Al1_2 1_555 1_555
O4_2 Al1_2 1_555 1_555
O5_2 Al1_2 1_555 1_555
O6_2 Al2_2 1_555 1_555
O7_2 Al1_2 1_555 1_555
O8_2 Al1_2 1_555 1_555
N2_2 C13_2 1_555 1_555
C1_2 O7_2 1_555 1_555
C2_2 C3_2 1_555 1_555
C3_2 O3_2 1_555 1_555
C5_2 O8_2 1_555 1_555
C6_2 C1_2 1_555 1_555
N3_2 C21_2 1_555 1_555
C8_2 C5_2 1_555 1_555
N20 C23_2 1_555 1_555
C13_2 H6_2 1_555 1_555
C14_2 C2_2 1_555 1_555
H7_2 C14_2 1_555 1_555
C15_2 C2_2 1_555 1_555
H8_2 C15_2 1_555 1_555
C16_2 N2_2 1_555 1_555
H9_2 C16_2 1_555 1_555
C19_2 C6_2 1_555 1_555
H14_2 C19_2 1_555 1_555
C20_2 O4_2 1_555 1_555
H15_2 C20_2 1_555 1_555
C21_2 H17_2 1_555 1_555
C22_2 C8_2 1_555 1_555
H18_2 C22_2 1_555 1_555
C23_2 C19_2 1_555 1_555
H19_2 C23_2 1_555 1_555
C26_2 C20_2 1_555 1_555
H26_2 C26_2 1_555 1_555
H27_2 C26_2 1_555 1_555
Cu12 N3_2 1_555 1_555
O11_2 C1_2 1_555 1_555
C27_2 C6_2 1_555 1_555
H28_2 C27_2 1_555 1_555
C28_2 N20 1_555 1_555
H29_2 C28_2 1_555 1_555
O12_2 C5_2 1_555 1_555
C29_2 N3_2 1_555 1_555
H30_2 C29_2 1_555 1_555
C30_2 C8_2 1_555 1_555
H31_2 C30_2 1_555 1_555
O20_2 Al2_2 1_555 1_555
H62_2 O25_2 1_555 1_555
Al7_2 O5_2 1_555 1_555
Al8_2 O25_2 1_555 1_555
O31_2 Al7_2 1_555 1_555
O32_2 Al7_2 1_555 1_555
O33_2 Al7_2 1_555 1_555
O34_2 Al8_2 1_555 1_555
N16 C87_2 1_555 1_555
C79_2 C80_2 1_555 1_555
C80_2 O32_2 1_555 1_555
C87_2 H89_2 1_555 1_555
C88_2 C79_2 1_555 1_555
H90_2 C88_2 1_555 1_555
C89_2 C79_2 1_555 1_555
H91_2 C89_2 1_555 1_555
C90_2 N16 1_555 1_555
H92_2 C90_2 1_555 1_555
C93_2 O33_2 1_555 1_555
H97_2 C93_2 1_555 1_555
C96_2 C93_2 1_555 1_555
H105_2 C96_2 1_555 1_555
H106_2 C96_2 1_555 1_555
Cu9 N2_2 1_555 1_555
Al2_2 O4_2 1_555 1_555
O6_2 C3_2 1_555 1_555
C13_2 C14_2 1_555 1_555
C15_2 C16_2 1_555 1_555
C21_2 C22_2 1_555 1_555
O11_2 Al7_2 1_555 1_555
C27_2 C28_2 1_555 1_555
O12_2 Al7_2 1_555 1_555
C29_2 C30_2 1_555 1_555
O29_2 Al8_2 1_555 1_555
Al8_2 O31_2 1_555 1_555
Al8_2 O33_2 1_555 1_555
O34_2 C80_2 1_555 1_555
C87_2 C88_2 1_555 1_555
C89_2 C90_2 1_555 1_555
Cu4 N1_2 1_555 1_555
H1_3 O2_3 1_555 1_555
N1_2 C9_2 1_555 1_555
C4_2 C7_2 1_555 1_555
C7_2 O10_2 1_555 1_555
C9_2 H2_2 1_555 1_555
C10_2 C4_2 1_555 1_555
H3_2 C10_2 1_555 1_555
C11_2 C4_2 1_555 1_555
H4_2 C11_2 1_555 1_555
C12_2 N1_2 1_555 1_555
H5_2 C12_2 1_555 1_555
C17_2 H10_2 1_555 1_555
H11_2 C17_2 1_555 1_555
C18_2 C17_2 1_555 1_555
H12_2 C18_2 1_555 1_555
C25_2 C18_2 1_555 1_555
H23_2 C25_2 1_555 1_555
H24_2 C25_2 1_555 1_555
H25_2 C25_2 1_555 1_555
C54_2 H50_2 1_555 1_555
H51_2 C54_2 1_555 1_555
H52_2 C54_2 1_555 1_555
H62_3 O25_3 1_555 1_555
C76_2 H77_2 1_555 1_555
H78_2 C76_2 1_555 1_555
H79_2 C76_2 1_555 1_555
N11_2 C83_2 1_555 1_555
C81_2 C82_2 1_555 1_555
C83_2 H85_2 1_555 1_555
C84_2 C81_2 1_555 1_555
H86_2 C84_2 1_555 1_555
C85_2 C81_2 1_555 1_555
H87_2 C85_2 1_555 1_555
C86_2 N11_2 1_555 1_555
H88_2 C86_2 1_555 1_555
H93_2 C91_2 1_555 1_555
H94_2 C91_2 1_555 1_555
C92_2 C91_2 1_555 1_555
H95_2 C92_2 1_555 1_555
C95_2 C92_2 1_555 1_555
H102_2 C95_2 1_555 1_555
H103_2 C95_2 1_555 1_555
H104_2 C95_2 1_555 1_555
Cu8 N11_2 1_555 1_555
N14_2 Cu4 1_555 1_555
N17_2 Cu4 1_555 1_555
C9_2 C10_2 1_555 1_555
C11_2 C12_2 1_555 1_555
O36_2 C82_2 1_555 1_555
C83_2 C84_2 1_555 1_555
C85_2 C86_2 1_555 1_555
H1_4 O2_4 1_555 1_555
C24_2 H20_2 1_555 1_555
H21_2 C24_2 1_555 1_555
H22_2 C24_2 1_555 1_555
Cu5 N5_2 1_555 1_555
N5_2 C39_2 1_555 1_555
C34_2 C37_2 1_555 1_555
C39_2 H32_2 1_555 1_555
C40_2 C34_2 1_555 1_555
H33_2 C40_2 1_555 1_555
C41_2 C34_2 1_555 1_555
H34_2 C41_2 1_555 1_555
C42_2 N5_2 1_555 1_555
H35_2 C42_2 1_555 1_555
H40_2 C47_2 1_555 1_555
H41_2 C47_2 1_555 1_555
C48_2 C47_2 1_555 1_555
H42_2 C48_2 1_555 1_555
C55_2 C48_2 1_555 1_555
H53_2 C55_2 1_555 1_555
H54_2 C55_2 1_555 1_555
H55_2 C55_2 1_555 1_555
H62_4 O25_4 1_555 1_555
N9_2 C65_2 1_555 1_555
C63_2 C64_2 1_555 1_555
C64_2 O30_2 1_555 1_555
C65_2 H63_2 1_555 1_555
C66_2 C63_2 1_555 1_555
H64_2 C66_2 1_555 1_555
C67_2 C63_2 1_555 1_555
H65_2 C67_2 1_555 1_555
C68_2 N9_2 1_555 1_555
H66_2 C68_2 1_555 1_555
H71_2 C73_2 1_555 1_555
H72_2 C73_2 1_555 1_555
C74_2 C73_2 1_555 1_555
H73_2 C74_2 1_555 1_555
C77_2 C74_2 1_555 1_555
H80_2 C77_2 1_555 1_555
H81_2 C77_2 1_555 1_555
H82_2 C77_2 1_555 1_555
C94_2 H99_2 1_555 1_555
H100_2 C94_2 1_555 1_555
H101_2 C94_2 1_555 1_555
Cu7 N9_2 1_555 1_555
N13_2 Cu5 1_555 1_555
N18_2 Cu5 1_555 1_555
N19_2 Cu12_2 1_555 1_555
O21_2 C37_2 1_555 1_555
C39_2 C40_2 1_555 1_555
C41_2 C42_2 1_555 1_555
C65_2 C66_2 1_555 1_555
C67_2 C68_2 1_555 1_555
H1_5 O2_5 1_555 1_555
Al3_2 O13_2 1_555 1_555
Al4_2 O2_5 1_555 1_555
O13_2 Al4_2 1_555 1_555
O14_2 Al3_2 1_555 1_555
O15_2 Al3_2 1_555 1_555
O16_2 Al3_2 1_555 1_555
O17_2 Al4_2 1_555 1_555
O18_2 Al3_2 1_555 1_555
O19_2 Al3_2 1_555 1_555
N6_2 C43_2 1_555 1_555
C31_2 O18_2 1_555 1_555
C32_2 C33_2 1_555 1_555
C33_2 O14_2 1_555 1_555
C35_2 O19_2 1_555 1_555
C36_2 C31_2 1_555 1_555
N19_2 C51_2 1_555 1_555
C38_2 C35_2 1_555 1_555
N21 C53_2 1_555 1_555
C43_2 H36_2 1_555 1_555
C44_2 C32_2 1_555 1_555
H37_2 C44_2 1_555 1_555
C45_2 C32_2 1_555 1_555
H38_2 C45_2 1_555 1_555
C46_2 N6_2 1_555 1_555
H39_2 C46_2 1_555 1_555
C49_2 C36_2 1_555 1_555
H44_2 C49_2 1_555 1_555
C50_2 O15_2 1_555 1_555
H45_2 C50_2 1_555 1_555
C51_2 H47_2 1_555 1_555
C52_2 C38_2 1_555 1_555
H48_2 C52_2 1_555 1_555
C53_2 C49_2 1_555 1_555
H49_2 C53_2 1_555 1_555
C56_2 C50_2 1_555 1_555
H56_2 C56_2 1_555 1_555
H57_2 C56_2 1_555 1_555
O22_2 C31_2 1_555 1_555
C57_2 C36_2 1_555 1_555
H58_2 C57_2 1_555 1_555
C58_2 N21 1_555 1_555
H59_2 C58_2 1_555 1_555
O23_2 C35_2 1_555 1_555
C59_2 N19_2 1_555 1_555
H60_2 C59_2 1_555 1_555
C60_2 C38_2 1_555 1_555
H61_2 C60_2 1_555 1_555
Al5_2 O16_2 1_555 1_555
Al6_2 O24_2 1_555 1_555
O24_2 Al5_2 1_555 1_555
O25_5 Al6_2 1_555 1_555
H62_5 O25_5 1_555 1_555
O26_2 Al5_2 1_555 1_555
O27_2 Al5_2 1_555 1_555
O28_2 Al6_2 1_555 1_555
N15 C69_2 1_555 1_555
C61_2 C62_2 1_555 1_555
C62_2 O26_2 1_555 1_555
C69_2 H67_2 1_555 1_555
C70_2 C61_2 1_555 1_555
H68_2 C70_2 1_555 1_555
C71_2 C61_2 1_555 1_555
H69_2 C71_2 1_555 1_555
C72_2 N15 1_555 1_555
H70_2 C72_2 1_555 1_555
C75_2 O27_2 1_555 1_555
H75_2 C75_2 1_555 1_555
C78_2 C75_2 1_555 1_555
H83_2 C78_2 1_555 1_555
H84_2 C78_2 1_555 1_555
O35_2 Al6_2 1_555 1_555
Cu6 N6_2 1_555 1_555
O9_2 Al4_2 1_555 1_555
Al4_2 O15_2 1_555 1_555
O17_2 C33_2 1_555 1_555
C43_2 C44_2 1_555 1_555
C45_2 C46_2 1_555 1_555
C51_2 C52_2 1_555 1_555
O22_2 Al5_2 1_555 1_555
C57_2 C58_2 1_555 1_555
O23_2 Al5_2 1_555 1_555
C59_2 C60_2 1_555 1_555
Al6_2 O27_2 1_555 1_555
O28_2 C62_2 1_555 1_555
C69_2 C70_2 1_555 1_555
C71_2 C72_2 1_555 1_555
N19_3 Cu2_3 1_555 1_555
H1_6 O2_6 1_555 1_555
C24_3 H20_3 1_555 1_555
H21_3 C24_3 1_555 1_555
H22_3 C24_3 1_555 1_555
Al3_3 O13_3 1_555 1_555
Al4_3 O2_6 1_555 1_555
O13_3 Al4_3 1_555 1_555
O14_3 Al3_3 1_555 1_555
O15_3 Al3_3 1_555 1_555
O16_3 Al3_3 1_555 1_555
O17_3 Al4_3 1_555 1_555
O18_3 Al3_3 1_555 1_555
O19_3 Al3_3 1_555 1_555
O21_3 Al4_3 1_555 1_555
N14_2 C39_3 1_555 1_555
N6_3 C43_3 1_555 1_555
C31_3 O18_3 1_555 1_555
C32_3 C33_3 1_555 1_555
C33_3 O14_3 1_555 1_555
C34_3 C37_3 1_555 1_555
C35_3 O19_3 1_555 1_555
C36_3 C31_3 1_555 1_555
N19_3 C51_3 1_555 1_555
C38_3 C35_3 1_555 1_555
C39_3 H32_3 1_555 1_555
C40_3 C34_3 1_555 1_555
H33_3 C40_3 1_555 1_555
C41_3 C34_3 1_555 1_555
H34_3 C41_3 1_555 1_555
C42_3 N14_2 1_555 1_555
H35_3 C42_3 1_555 1_555
C43_3 H36_3 1_555 1_555
C44_3 C32_3 1_555 1_555
H37_3 C44_3 1_555 1_555
C45_3 C32_3 1_555 1_555
H38_3 C45_3 1_555 1_555
C46_3 N6_3 1_555 1_555
H39_3 C46_3 1_555 1_555
C47_3 O13_3 1_555 1_555
H40_3 C47_3 1_555 1_555
H41_3 C47_3 1_555 1_555
C48_3 C47_3 1_555 1_555
H42_3 C48_3 1_555 1_555
H43_3 C48_3 1_555 1_555
C50_3 O15_3 1_555 1_555
H45_3 C50_3 1_555 1_555
C51_3 H47_3 1_555 1_555
C52_3 C38_3 1_555 1_555
H48_3 C52_3 1_555 1_555
C55_3 C48_3 1_555 1_555
H53_3 C55_3 1_555 1_555
H54_3 C55_3 1_555 1_555
H55_3 C55_3 1_555 1_555
C56_3 C50_3 1_555 1_555
H56_3 C56_3 1_555 1_555
H57_3 C56_3 1_555 1_555
C57_3 C36_3 1_555 1_555
H58_3 C57_3 1_555 1_555
C58_3 N8_2 1_555 1_555
H59_3 C58_3 1_555 1_555
Cu9 N6_3 1_555 1_555
N21_2 Cu2_4 1_555 1_555
Cu12_3 N8_2 1_555 1_555
O9_3 Al4_3 1_555 1_555
Al4_3 O15_3 1_555 1_555
O17_3 C33_3 1_555 1_555
O21_3 C37_3 1_555 1_555
C39_3 C40_3 1_555 1_555
C41_3 C42_3 1_555 1_555
C43_3 C44_3 1_555 1_555
C45_3 C46_3 1_555 1_555
C51_3 C52_3 1_555 1_555
C57_3 C58_3 1_555 1_555
N20_2 Cu2_5 1_555 1_555
Al1_3 O1_3 1_555 1_555
Al2_3 O1_3 1_555 1_555
O1_3 C17_3 1_555 1_555
O2_7 Al2_3 1_555 1_555
H1_7 O2_7 1_555 1_555
O3_3 Al1_3 1_555 1_555
O4_3 Al1_3 1_555 1_555
O5_3 Al1_3 1_555 1_555
O6_3 Al2_3 1_555 1_555
O7_3 Al1_3 1_555 1_555
O8_3 Al1_3 1_555 1_555
O10_3 Al2_3 1_555 1_555
N13_2 C9_3 1_555 1_555
N2_3 C13_3 1_555 1_555
C1_3 O7_3 1_555 1_555
C2_3 C3_3 1_555 1_555
C3_3 O3_3 1_555 1_555
C4_3 C7_3 1_555 1_555
C5_3 O8_3 1_555 1_555
C6_3 C1_3 1_555 1_555
C7_3 O10_3 1_555 1_555
N3_3 C21_3 1_555 1_555
C8_3 C5_3 1_555 1_555
C9_3 H2_3 1_555 1_555
C10_3 C4_3 1_555 1_555
H3_3 C10_3 1_555 1_555
C11_3 C4_3 1_555 1_555
H4_3 C11_3 1_555 1_555
C12_3 N13_2 1_555 1_555
H5_3 C12_3 1_555 1_555
C13_3 H6_3 1_555 1_555
C14_3 C2_3 1_555 1_555
H7_3 C14_3 1_555 1_555
C15_3 C2_3 1_555 1_555
H8_3 C15_3 1_555 1_555
C16_3 N2_3 1_555 1_555
H9_3 C16_3 1_555 1_555
C17_3 H10_3 1_555 1_555
H11_3 C17_3 1_555 1_555
C18_3 C17_3 1_555 1_555
H12_3 C18_3 1_555 1_555
H13_3 C18_3 1_555 1_555
C20_3 O4_3 1_555 1_555
H15_3 C20_3 1_555 1_555
C21_3 H17_3 1_555 1_555
C22_3 C8_3 1_555 1_555
H18_3 C22_3 1_555 1_555
C25_3 C18_3 1_555 1_555
H23_3 C25_3 1_555 1_555
H24_3 C25_3 1_555 1_555
H25_3 C25_3 1_555 1_555
C26_3 C20_3 1_555 1_555
H26_3 C26_3 1_555 1_555
H27_3 C26_3 1_555 1_555
Cu2_6 N3_3 1_555 1_555
C27_3 C6_3 1_555 1_555
H28_3 C27_3 1_555 1_555
C28_3 N4_2 1_555 1_555
H29_3 C28_3 1_555 1_555
O20_3 Al2_3 1_555 1_555
C54_3 H50_3 1_555 1_555
H51_3 C54_3 1_555 1_555
H52_3 C54_3 1_555 1_555
Cu6 N2_3 1_555 1_555
Cu12_3 N4_2 1_555 1_555
Al2_3 O4_3 1_555 1_555
O6_3 C3_3 1_555 1_555
C9_3 C10_3 1_555 1_555
C11_3 C12_3 1_555 1_555
C13_3 C14_3 1_555 1_555
C15_3 C16_3 1_555 1_555
C21_3 C22_3 1_555 1_555
C27_3 C28_3 1_555 1_555
N19_4 Cu2_7 1_555 1_555
C36_4 C31_4 1_555 1_555
C38_4 C35_4 1_555 1_555
N8_3 C53_3 1_555 1_555
C49_3 C36_4 1_555 1_555
H44_3 C49_3 1_555 1_555
C53_3 C49_3 1_555 1_555
H49_3 C53_3 1_555 1_555
O22_3 C31_4 1_555 1_555
O23_3 C35_4 1_555 1_555
C59_3 N19_4 1_555 1_555
H60_3 C59_3 1_555 1_555
C60_3 C38_4 1_555 1_555
H61_3 C60_3 1_555 1_555
Al5_3 O16_4 1_555 1_555
Al6_3 O24_3 1_555 1_555
O24_3 Al5_3 1_555 1_555
O25_6 Al6_3 1_555 1_555
H62_6 O25_6 1_555 1_555
O26_3 Al5_3 1_555 1_555
O27_3 Al5_3 1_555 1_555
O28_3 Al6_3 1_555 1_555
O30_3 Al6_3 1_555 1_555
N9_3 C65_3 1_555 1_555
N17 C69_3 1_555 1_555
C61_3 C62_3 1_555 1_555
C62_3 O26_3 1_555 1_555
C63_3 C64_3 1_555 1_555
C64_3 O30_3 1_555 1_555
C65_3 H63_3 1_555 1_555
C66_3 C63_3 1_555 1_555
H64_3 C66_3 1_555 1_555
C67_3 C63_3 1_555 1_555
H65_3 C67_3 1_555 1_555
C68_3 N9_3 1_555 1_555
H66_3 C68_3 1_555 1_555
C69_3 H67_3 1_555 1_555
C70_3 C61_3 1_555 1_555
H68_3 C70_3 1_555 1_555
C71_3 C61_3 1_555 1_555
H69_3 C71_3 1_555 1_555
C72_3 N17 1_555 1_555
H70_3 C72_3 1_555 1_555
C73_3 O24_3 1_555 1_555
H71_3 C73_3 1_555 1_555
H72_3 C73_3 1_555 1_555
C74_3 C73_3 1_555 1_555
H73_3 C74_3 1_555 1_555
H74_3 C74_3 1_555 1_555
C75_3 O27_3 1_555 1_555
H75_3 C75_3 1_555 1_555
C77_3 C74_3 1_555 1_555
H80_3 C77_3 1_555 1_555
H81_3 C77_3 1_555 1_555
H82_3 C77_3 1_555 1_555
C78_3 C75_3 1_555 1_555
H83_3 C78_3 1_555 1_555
H84_3 C78_3 1_555 1_555
O35_3 Al6_3 1_555 1_555
C94_3 H99_3 1_555 1_555
H100_3 C94_3 1_555 1_555
H101_3 C94_3 1_555 1_555
Cu8 N9_3 1_555 1_555
N21_3 Cu2_8 1_555 1_555
Cu12_4 N8_3 1_555 1_555
O22_3 Al5_3 1_555 1_555
O23_3 Al5_3 1_555 1_555
C59_3 C60_3 1_555 1_555
Al6_3 O27_3 1_555 1_555
O28_3 C62_3 1_555 1_555
C65_3 C66_3 1_555 1_555
C67_3 C68_3 1_555 1_555
C69_3 C70_3 1_555 1_555
C71_3 C72_3 1_555 1_555
N20_3 Cu2_9 1_555 1_555
C6_4 C1_4 1_555 1_555
C8_4 C5_4 1_555 1_555
N4_3 C23_3 1_555 1_555
C19_3 C6_4 1_555 1_555
H14_3 C19_3 1_555 1_555
C23_3 C19_3 1_555 1_555
H19_3 C23_3 1_555 1_555
Cu2_10 N3_4 1_555 1_555
O11_3 C1_4 1_555 1_555
O12_3 C5_4 1_555 1_555
C29_3 N3_4 1_555 1_555
H30_3 C29_3 1_555 1_555
C30_3 C8_4 1_555 1_555
H31_3 C30_3 1_555 1_555
H62_7 O25_7 1_555 1_555
C76_3 H77_3 1_555 1_555
H78_3 C76_3 1_555 1_555
H79_3 C76_3 1_555 1_555
Al7_3 O5_4 1_555 1_555
Al8_3 O25_7 1_555 1_555
O31_3 Al7_3 1_555 1_555
O32_3 Al7_3 1_555 1_555
O33_3 Al7_3 1_555 1_555
O34_3 Al8_3 1_555 1_555
O36_3 Al8_3 1_555 1_555
N11_3 C83_3 1_555 1_555
N18 C87_3 1_555 1_555
C79_3 C80_3 1_555 1_555
C80_3 O32_3 1_555 1_555
C81_3 C82_3 1_555 1_555
C83_3 H85_3 1_555 1_555
C84_3 C81_3 1_555 1_555
H86_3 C84_3 1_555 1_555
C85_3 C81_3 1_555 1_555
H87_3 C85_3 1_555 1_555
C86_3 N11_3 1_555 1_555
H88_3 C86_3 1_555 1_555
C87_3 H89_3 1_555 1_555
C88_3 C79_3 1_555 1_555
H90_3 C88_3 1_555 1_555
C89_3 C79_3 1_555 1_555
H91_3 C89_3 1_555 1_555
C90_3 N18 1_555 1_555
H92_3 C90_3 1_555 1_555
C91_3 O31_3 1_555 1_555
H93_3 C91_3 1_555 1_555
H94_3 C91_3 1_555 1_555
C92_3 C91_3 1_555 1_555
H95_3 C92_3 1_555 1_555
H96_3 C92_3 1_555 1_555
C93_3 O33_3 1_555 1_555
H97_3 C93_3 1_555 1_555
C95_3 C92_3 1_555 1_555
H102_3 C95_3 1_555 1_555
H103_3 C95_3 1_555 1_555
H104_3 C95_3 1_555 1_555
C96_3 C93_3 1_555 1_555
H105_3 C96_3 1_555 1_555
H106_3 C96_3 1_555 1_555
Cu7 N11_3 1_555 1_555
Cu12_4 N4_3 1_555 1_555
O11_3 Al7_3 1_555 1_555
O12_3 Al7_3 1_555 1_555
C29_3 C30_3 1_555 1_555
O29_3 Al8_3 1_555 1_555
Al8_3 O31_3 1_555 1_555
Al8_3 O33_3 1_555 1_555
O34_3 C80_3 1_555 1_555
O36_3 C82_3 1_555 1_555
C83_3 C84_3 1_555 1_555
C85_3 C86_3 1_555 1_555
C87_3 C88_3 1_555 1_555
C89_3 C90_3 1_555 1_555
C6_5 C1_5 1_555 1_555
C8_5 C5_5 1_555 1_555
N20_2 C23_4 1_555 1_555
C19_4 C6_5 1_555 1_555
H14_4 C19_4 1_555 1_555
C23_4 C19_4 1_555 1_555
H19_4 C23_4 1_555 1_555
Cu12_3 N3_5 1_555 1_555
O11_4 C1_5 1_555 1_555
O12_4 C5_5 1_555 1_555
C29_4 N3_5 1_555 1_555
H30_4 C29_4 1_555 1_555
C30_4 C8_5 1_555 1_555
H31_4 C30_4 1_555 1_555
H62_8 O25_8 1_555 1_555
O29_4 C64_4 1_555 1_555
N9_4 C65_4 1_555 1_555
C63_4 C64_4 1_555 1_555
C64_4 O30_4 1_555 1_555
C65_4 H63_4 1_555 1_555
C66_4 C63_4 1_555 1_555
H64_4 C66_4 1_555 1_555
C67_4 C63_4 1_555 1_555
H65_4 C67_4 1_555 1_555
C68_4 N9_4 1_555 1_555
H66_4 C68_4 1_555 1_555
H71_4 C73_4 1_555 1_555
H72_4 C73_4 1_555 1_555
C74_4 C73_4 1_555 1_555
H73_4 C74_4 1_555 1_555
C77_4 C74_4 1_555 1_555
H80_4 C77_4 1_555 1_555
H81_4 C77_4 1_555 1_555
H82_4 C77_4 1_555 1_555
Al7_4 O5_5 1_555 1_555
Al8_4 O25_8 1_555 1_555
O31_4 Al7_4 1_555 1_555
O32_4 Al7_4 1_555 1_555
O33_4 Al7_4 1_555 1_555
O34_4 Al8_4 1_555 1_555
N18_2 C87_4 1_555 1_555
C79_4 C80_4 1_555 1_555
C80_4 O32_4 1_555 1_555
C87_4 H89_4 1_555 1_555
C88_4 C79_4 1_555 1_555
H90_4 C88_4 1_555 1_555
C89_4 C79_4 1_555 1_555
H91_4 C89_4 1_555 1_555
C90_4 N18_2 1_555 1_555
H92_4 C90_4 1_555 1_555
C93_4 O33_4 1_555 1_555
H97_4 C93_4 1_555 1_555
H98_4 C93_4 1_555 1_555
C94_4 H99_4 1_555 1_555
H100_4 C94_4 1_555 1_555
H101_4 C94_4 1_555 1_555
C96_4 C93_4 1_555 1_555
H105_4 C96_4 1_555 1_555
H106_4 C96_4 1_555 1_555
Cu9 N9_4 1_555 1_555
N19_5 Cu12_3 1_555 1_555
O11_4 Al7_4 1_555 1_555
O12_4 Al7_4 1_555 1_555
C29_4 C30_4 1_555 1_555
O29_4 Al8_4 1_555 1_555
C65_4 C66_4 1_555 1_555
C67_4 C68_4 1_555 1_555
Al8_4 O31_4 1_555 1_555
Al8_4 O33_4 1_555 1_555
O34_4 C80_4 1_555 1_555
C87_4 C88_4 1_555 1_555
C89_4 C90_4 1_555 1_555
C94_4 C96_4 1_555 1_555
C36_5 C31_5 1_555 1_555
C38_5 C35_5 1_555 1_555
N21_2 C53_4 1_555 1_555
C49_4 C36_5 1_555 1_555
H44_4 C49_4 1_555 1_555
C53_4 C49_4 1_555 1_555
H49_4 C53_4 1_555 1_555
O22_4 C31_5 1_555 1_555
O23_4 C35_5 1_555 1_555
C59_4 N19_5 1_555 1_555
H60_4 C59_4 1_555 1_555
C60_4 C38_5 1_555 1_555
H61_4 C60_4 1_555 1_555
Al5_4 O16_5 1_555 1_555
Al6_4 O24_4 1_555 1_555
O24_4 Al5_4 1_555 1_555
O25_9 Al6_4 1_555 1_555
H62_9 O25_9 1_555 1_555
O26_4 Al5_4 1_555 1_555
O27_4 Al5_4 1_555 1_555
O28_4 Al6_4 1_555 1_555
N17_2 C69_4 1_555 1_555
C61_4 C62_4 1_555 1_555
C62_4 O26_4 1_555 1_555
C69_4 H67_4 1_555 1_555
C70_4 C61_4 1_555 1_555
H68_4 C70_4 1_555 1_555
C71_4 C61_4 1_555 1_555
H69_4 C71_4 1_555 1_555
C72_4 N17_2 1_555 1_555
H70_4 C72_4 1_555 1_555
C75_4 O27_4 1_555 1_555
H75_4 C75_4 1_555 1_555
H76_4 C75_4 1_555 1_555
C76_4 H77_4 1_555 1_555
H78_4 C76_4 1_555 1_555
H79_4 C76_4 1_555 1_555
C78_4 C75_4 1_555 1_555
H83_4 C78_4 1_555 1_555
H84_4 C78_4 1_555 1_555
O35_4 Al6_4 1_555 1_555
N11_4 C83_4 1_555 1_555
C81_4 C82_4 1_555 1_555
C82_4 O35_4 1_555 1_555
C83_4 H85_4 1_555 1_555
C84_4 C81_4 1_555 1_555
H86_4 C84_4 1_555 1_555
C85_4 C81_4 1_555 1_555
H87_4 C85_4 1_555 1_555
C86_4 N11_4 1_555 1_555
H88_4 C86_4 1_555 1_555
H93_4 C91_4 1_555 1_555
H94_4 C91_4 1_555 1_555
C92_4 C91_4 1_555 1_555
H95_4 C92_4 1_555 1_555
C95_4 C92_4 1_555 1_555
H102_4 C95_4 1_555 1_555
H103_4 C95_4 1_555 1_555
H104_4 C95_4 1_555 1_555
Cu6 N11_4 1_555 1_555
O22_4 Al5_4 1_555 1_555
O23_4 Al5_4 1_555 1_555
C59_4 C60_4 1_555 1_555
Al6_4 O27_4 1_555 1_555
O28_4 C62_4 1_555 1_555
C69_4 C70_4 1_555 1_555
C71_4 C72_4 1_555 1_555
C76_4 C78_4 1_555 1_555
O36_4 C82_4 1_555 1_555
C83_4 C84_4 1_555 1_555
C85_4 C86_4 1_555 1_555
Al1_4 O1_4 1_555 1_555
Al2_4 O1_4 1_555 1_555
O2_8 Al2_4 1_555 1_555
H1_8 O2_8 1_555 1_555
O3_4 Al1_4 1_555 1_555
O4_4 Al1_4 1_555 1_555
O5_6 Al1_4 1_555 1_555
O6_4 Al2_4 1_555 1_555
O7_4 Al1_4 1_555 1_555
O8_4 Al1_4 1_555 1_555
N2_4 C13_4 1_555 1_555
C1_6 O7_4 1_555 1_555
C2_4 C3_4 1_555 1_555
C3_4 O3_4 1_555 1_555
C5_6 O8_4 1_555 1_555
C6_6 C1_6 1_555 1_555
N3_6 C21_4 1_555 1_555
C8_6 C5_6 1_555 1_555
C13_4 H6_4 1_555 1_555
C14_4 C2_4 1_555 1_555
H7_4 C14_4 1_555 1_555
C15_4 C2_4 1_555 1_555
H8_4 C15_4 1_555 1_555
C16_4 N2_4 1_555 1_555
H9_4 C16_4 1_555 1_555
C20_4 O4_4 1_555 1_555
H15_4 C20_4 1_555 1_555
H16_4 C20_4 1_555 1_555
C21_4 H17_4 1_555 1_555
C22_4 C8_6 1_555 1_555
H18_4 C22_4 1_555 1_555
C24_4 H20_4 1_555 1_555
H21_4 C24_4 1_555 1_555
H22_4 C24_4 1_555 1_555
C26_4 C20_4 1_555 1_555
H26_4 C26_4 1_555 1_555
H27_4 C26_4 1_555 1_555
Cu12_4 N3_6 1_555 1_555
C27_4 C6_6 1_555 1_555
H28_4 C27_4 1_555 1_555
C28_4 N20_3 1_555 1_555
H29_4 C28_4 1_555 1_555
O20_4 Al2_4 1_555 1_555
N14 C39_4 1_555 1_555
C34_4 C37_4 1_555 1_555
C37_4 O20_4 1_555 1_555
C39_4 H32_4 1_555 1_555
C40_4 C34_4 1_555 1_555
H33_4 C40_4 1_555 1_555
C41_4 C34_4 1_555 1_555
H34_4 C41_4 1_555 1_555
C42_4 N14 1_555 1_555
H35_4 C42_4 1_555 1_555
H40_4 C47_4 1_555 1_555
H41_4 C47_4 1_555 1_555
C48_4 C47_4 1_555 1_555
H42_4 C48_4 1_555 1_555
C55_4 C48_4 1_555 1_555
H53_4 C55_4 1_555 1_555
H54_4 C55_4 1_555 1_555
H55_4 C55_4 1_555 1_555
Cu7 N2_4 1_555 1_555
N19_6 Cu12_4 1_555 1_555
Al2_4 O4_4 1_555 1_555
O6_4 C3_4 1_555 1_555
C13_4 C14_4 1_555 1_555
C15_4 C16_4 1_555 1_555
C21_4 C22_4 1_555 1_555
C24_4 C26_4 1_555 1_555
C27_4 C28_4 1_555 1_555
O21_4 C37_4 1_555 1_555
C39_4 C40_4 1_555 1_555
C41_4 C42_4 1_555 1_555
H1_9 O2_9 1_555 1_555
O9_4 C7_4 1_555 1_555
N13 C9_4 1_555 1_555
C4_4 C7_4 1_555 1_555
C7_4 O10_4 1_555 1_555
C9_4 H2_4 1_555 1_555
C10_4 C4_4 1_555 1_555
H3_4 C10_4 1_555 1_555
C11_4 C4_4 1_555 1_555
H4_4 C11_4 1_555 1_555
C12_4 N13 1_555 1_555
H5_4 C12_4 1_555 1_555
C17_4 H10_4 1_555 1_555
H11_4 C17_4 1_555 1_555
C18_4 C17_4 1_555 1_555
H12_4 C18_4 1_555 1_555
C25_4 C18_4 1_555 1_555
H23_4 C25_4 1_555 1_555
H24_4 C25_4 1_555 1_555
H25_4 C25_4 1_555 1_555
Al3_4 O13_4 1_555 1_555
Al4_4 O2_9 1_555 1_555
O13_4 Al4_4 1_555 1_555
O14_4 Al3_4 1_555 1_555
O15_4 Al3_4 1_555 1_555
O16_6 Al3_4 1_555 1_555
O17_4 Al4_4 1_555 1_555
O18_4 Al3_4 1_555 1_555
O19_4 Al3_4 1_555 1_555
N6_4 C43_4 1_555 1_555
C31_6 O18_4 1_555 1_555
C32_4 C33_4 1_555 1_555
C33_4 O14_4 1_555 1_555
C35_6 O19_4 1_555 1_555
C36_6 C31_6 1_555 1_555
N19_6 C51_4 1_555 1_555
C38_6 C35_6 1_555 1_555
C43_4 H36_4 1_555 1_555
C44_4 C32_4 1_555 1_555
H37_4 C44_4 1_555 1_555
C45_4 C32_4 1_555 1_555
H38_4 C45_4 1_555 1_555
C46_4 N6_4 1_555 1_555
H39_4 C46_4 1_555 1_555
C50_4 O15_4 1_555 1_555
H45_4 C50_4 1_555 1_555
H46_4 C50_4 1_555 1_555
C51_4 H47_4 1_555 1_555
C52_4 C38_6 1_555 1_555
H48_4 C52_4 1_555 1_555
C54_4 H50_4 1_555 1_555
H51_4 C54_4 1_555 1_555
H52_4 C54_4 1_555 1_555
C56_4 C50_4 1_555 1_555
H56_4 C56_4 1_555 1_555
H57_4 C56_4 1_555 1_555
C57_4 C36_6 1_555 1_555
H58_4 C57_4 1_555 1_555
C58_4 N21_3 1_555 1_555
H59_4 C58_4 1_555 1_555
Cu8 N6_4 1_555 1_555
O9_4 Al4_4 1_555 1_555
C9_4 C10_4 1_555 1_555
C11_4 C12_4 1_555 1_555
Al4_4 O15_4 1_555 1_555
O17_4 C33_4 1_555 1_555
C43_4 C44_4 1_555 1_555
C45_4 C46_4 1_555 1_555
C51_4 C52_4 1_555 1_555
C54_4 C56_4 1_555 1_555
C57_4 C58_4 1_555 1_555

#END
