
###############################################################################
#
# This file contains modified crystal structure data generated from the
# MOF subset of the Cambridge Structural Database (CSD) v543 
# hosted by the Cambridge Crystallographic Data Centre (CCDC).
#
# This work is licensed under the Creative Commons
# Attribution-NonCommercial-ShareAlike 4.0 International License.
# To view a copy of this license, visit
# http://creativecommons.org/licenses/by-nc-sa/4.0/
# or send a letter to
# Creative Commons, PO Box 1866, Mountain View, CA 94042, USA.
#
# CIF created using the CSD Python API on 29 September 2022
# The structure has been converted into the P1 space group
# The structure has a 3D framework
# The original CSD entry IZENUY is in the cubic crystal system
# The framework has been calculated to contain at least 10.0% void space
# The void calculation uses a probe of radius 1.32A, grid spacing 0.4
# The framework is charged, counterions have been retained in the structure
# H atom positions have been added when not included in the experimental data
#
###############################################################################

data_IZENUY
_chemical_formula_moiety         '(C192 H120 Cl40 Fe24 N24 O124 38-)n'
_symmetry_cell_setting           triclinic
_symmetry_space_group_name_H-M   'P 1'
_symmetry_Int_Tables_number      1
_space_group_name_Hall           'P 1'
loop_
_symmetry_equiv_pos_site_id
_symmetry_equiv_pos_as_xyz
1 x,y,z
_cell_length_a                   21.8720(9)
_cell_length_b                   21.8720(9)
_cell_length_c                   21.8720(9)
_cell_angle_alpha                90
_cell_angle_beta                 90
_cell_angle_gamma                90
_cell_volume                     10463.2
loop_
_atom_site_label
_atom_site_type_symbol
_atom_site_fract_x
_atom_site_fract_y
_atom_site_fract_z
Fe1 Fe 0.26092(5) 0.67949(5) 0.80347(5)
O1 O 0.2601(2) 0.7399(2) 0.7399(2)
O2 O 0.3498(2) 0.6654(3) 0.7956(3)
O3 O 0.3927(2) 0.7499(2) 0.7547(2)
O4 O 0.6262(2) 0.7634(3) 0.7741(3)
O5 O 0.6712(2) 0.6809(2) 0.8143(3)
O6 O 0.2618(3) 0.6134(2) 0.8727(3)
C1 C 0.3956(3) 0.6968(4) 0.7762(3)
C2 C 0.4574(3) 0.6692(4) 0.7848(4)
C3 C 0.4612(4) 0.6065(4) 0.7944(6)
H1 H 0.4252 0.5830 0.7950
C4 C 0.5146(4) 0.5794(4) 0.8027(6)
C5 C 0.5717(4) 0.6128(4) 0.8028(5)
H2 H 0.6094 0.5930 0.8087
C6 C 0.5104(4) 0.7025(4) 0.7831(4)
H3 H 0.5086 0.7446 0.7746
C7 C 0.5680(4) 0.6748(4) 0.7938(4)
C8 C 0.6258(4) 0.7076(5) 0.7939(4)
N1 N 0.5241(3) 0.5126(4) 0.8049(5)
O7 O 0.6502(2) 0.3346(3) 0.7956(3)
O8 O 0.6073(2) 0.2501(2) 0.7547(2)
C9 C 0.6044(3) 0.3032(4) 0.7762(3)
C10 C 0.5426(3) 0.3308(4) 0.7848(4)
C11 C 0.5388(4) 0.3935(4) 0.7944(6)
H4 H 0.5748 0.4170 0.7950
C12 C 0.4854(4) 0.4206(4) 0.8027(6)
C13 C 0.4283(4) 0.3872(4) 0.8028(5)
H5 H 0.3906 0.4070 0.8087
C14 C 0.4896(4) 0.2975(4) 0.7831(4)
H6 H 0.4914 0.2554 0.7746
C15 C 0.4320(4) 0.3252(4) 0.7938(4)
N2 N 0.4759(3) 0.4874(4) 0.8049(5)
O9 O 0.3288(2) 0.3191(2) 0.8143(3)
C16 C 0.3742(4) 0.2924(5) 0.7939(4)
O10 O 0.3738(2) 0.2366(3) 0.7741(3)
Fe2 Fe 0.73908(5) 0.32051(5) 0.80347(5)
O11 O 0.7399(2) 0.2601(2) 0.7399(2)
O12 O 0.7382(3) 0.3866(2) 0.8727(3)
Fe3 Fe 0.80347(5) 0.26092(5) 0.67949(5)
O13 O 0.7956(3) 0.3498(2) 0.6654(3)
O14 O 0.7547(2) 0.3927(2) 0.7499(2)
O15 O 0.7741(3) 0.6262(2) 0.7634(3)
O16 O 0.8143(3) 0.6712(2) 0.6809(2)
O17 O 0.8727(3) 0.2618(3) 0.6134(2)
C17 C 0.7762(3) 0.3956(3) 0.6968(4)
C18 C 0.7848(4) 0.4574(3) 0.6692(4)
C19 C 0.7944(6) 0.4612(4) 0.6065(4)
H7 H 0.7950 0.4252 0.5830
C20 C 0.8027(6) 0.5146(4) 0.5794(4)
C21 C 0.8028(5) 0.5717(4) 0.6128(4)
H8 H 0.8087 0.6094 0.5930
C22 C 0.7831(4) 0.5104(4) 0.7025(4)
H9 H 0.7746 0.5086 0.7446
C23 C 0.7938(4) 0.5680(4) 0.6748(4)
C24 C 0.7939(4) 0.6258(4) 0.7076(5)
N3 N 0.8049(5) 0.5241(3) 0.5126(4)
O18 O 0.7956(3) 0.6502(2) 0.3346(3)
O19 O 0.7547(2) 0.6073(2) 0.2501(2)
C25 C 0.7762(3) 0.6044(3) 0.3032(4)
C26 C 0.7848(4) 0.5426(3) 0.3308(4)
C27 C 0.7944(6) 0.5388(4) 0.3935(4)
H10 H 0.7950 0.5748 0.4170
C28 C 0.8027(6) 0.4854(4) 0.4206(4)
C29 C 0.8028(5) 0.4283(4) 0.3872(4)
H11 H 0.8087 0.3906 0.4070
C30 C 0.7831(4) 0.4896(4) 0.2975(4)
H12 H 0.7746 0.4914 0.2554
C31 C 0.7938(4) 0.4320(4) 0.3252(4)
N4 N 0.8049(5) 0.4759(3) 0.4874(4)
O20 O 0.8143(3) 0.3288(2) 0.3191(2)
C32 C 0.7939(4) 0.3742(4) 0.2924(5)
O21 O 0.7741(3) 0.3738(2) 0.2366(3)
Fe4 Fe 0.80347(5) 0.73908(5) 0.32051(5)
O22 O 0.8727(3) 0.7382(3) 0.3866(2)
Fe5 Fe 0.19653(5) 0.73908(5) 0.67949(5)
O23 O 0.2044(3) 0.6502(2) 0.6654(3)
O24 O 0.2453(2) 0.6073(2) 0.7499(2)
O25 O 0.2259(3) 0.3738(2) 0.7634(3)
O26 O 0.1857(3) 0.3288(2) 0.6809(2)
O27 O 0.1273(3) 0.7382(3) 0.6134(2)
C33 C 0.2238(3) 0.6044(3) 0.6968(4)
C34 C 0.2152(4) 0.5426(3) 0.6692(4)
C35 C 0.2056(6) 0.5388(4) 0.6065(4)
H13 H 0.2050 0.5748 0.5830
C36 C 0.1973(6) 0.4854(4) 0.5794(4)
C37 C 0.1972(5) 0.4283(4) 0.6128(4)
H14 H 0.1913 0.3906 0.5930
C38 C 0.2169(4) 0.4896(4) 0.7025(4)
H15 H 0.2254 0.4914 0.7446
C39 C 0.2062(4) 0.4320(4) 0.6748(4)
C40 C 0.2061(4) 0.3742(4) 0.7076(5)
N5 N 0.1951(5) 0.4759(3) 0.5126(4)
O28 O 0.2044(3) 0.3498(2) 0.3346(3)
O29 O 0.2453(2) 0.3927(2) 0.2501(2)
C41 C 0.2238(3) 0.3956(3) 0.3032(4)
C42 C 0.2152(4) 0.4574(3) 0.3308(4)
C43 C 0.2056(6) 0.4612(4) 0.3935(4)
H16 H 0.2050 0.4252 0.4170
C44 C 0.1973(6) 0.5146(4) 0.4206(4)
C45 C 0.1972(5) 0.5717(4) 0.3872(4)
H17 H 0.1913 0.6094 0.4070
C46 C 0.2169(4) 0.5104(4) 0.2975(4)
H18 H 0.2254 0.5086 0.2554
C47 C 0.2062(4) 0.5680(4) 0.3252(4)
N6 N 0.1951(5) 0.5241(3) 0.4874(4)
O30 O 0.1857(3) 0.6712(2) 0.3191(2)
C48 C 0.2061(4) 0.6258(4) 0.2924(5)
O31 O 0.2259(3) 0.6262(2) 0.2366(3)
Fe6 Fe 0.19653(5) 0.26092(5) 0.32051(5)
O32 O 0.1273(3) 0.2618(3) 0.3866(2)
Fe7 Fe 0.73908(5) 0.67949(5) 0.19653(5)
Fe8 Fe 0.26092(5) 0.32051(5) 0.19653(5)
Fe9 Fe 0.32051(5) 0.80347(5) 0.73908(5)
Fe10 Fe 0.67949(5) 0.19653(5) 0.73908(5)
Fe11 Fe 0.17949(5) 0.76092(5) 0.30347(5)
Fe12 Fe 0.82051(5) 0.23908(5) 0.30347(5)
Fe13 Fe 0.17949(5) 0.23908(5) 0.69653(5)
Fe14 Fe 0.82051(5) 0.76092(5) 0.69653(5)
Fe15 Fe 0.76092(5) 0.30347(5) 0.17949(5)
Fe16 Fe 0.23908(5) 0.30347(5) 0.82051(5)
Fe17 Fe 0.23908(5) 0.69653(5) 0.17949(5)
Fe18 Fe 0.76092(5) 0.69653(5) 0.82051(5)
Fe19 Fe 0.30347(5) 0.17949(5) 0.76092(5)
Fe20 Fe 0.69653(5) 0.82051(5) 0.76092(5)
O33 O 0.7399(2) 0.7399(2) 0.2601(2)
O34 O 0.2601(2) 0.2601(2) 0.2601(2)
O35 O 0.7499(2) 0.7547(2) 0.3927(2)
O36 O 0.2501(2) 0.7547(2) 0.6073(2)
O37 O 0.7499(2) 0.2453(2) 0.6073(2)
O38 O 0.2501(2) 0.2453(2) 0.3927(2)
O39 O 0.1262(2) 0.2741(3) 0.2634(3)
O40 O 0.8738(2) 0.2741(3) 0.7366(3)
O41 O 0.8738(2) 0.7259(3) 0.2634(3)
O42 O 0.1262(2) 0.7259(3) 0.7366(3)
O43 O 0.2741(3) 0.7366(3) 0.8738(2)
O44 O 0.7259(3) 0.2634(3) 0.8738(2)
O45 O 0.1809(2) 0.1712(2) 0.3143(3)
O46 O 0.8191(2) 0.8288(2) 0.3143(3)
O47 O 0.1809(2) 0.8288(2) 0.6857(3)
O48 O 0.8191(2) 0.1712(2) 0.6857(3)
O49 O 0.8288(2) 0.3143(3) 0.8191(2)
O50 O 0.1712(2) 0.6857(3) 0.8191(2)
H19 H 0.289438 0.626851 0.906113
H20 H 0.219784 0.608046 0.889046
H21 H 0.710562 0.373149 0.906113
H22 H 0.780216 0.391954 0.889046
H23 H 0.906113 0.289438 0.626851
H24 H 0.889046 0.219784 0.608046
H25 H 0.906113 0.710562 0.373149
H26 H 0.889046 0.780216 0.391954
H27 H 0.0938872 0.710562 0.626851
H28 H 0.110954 0.780216 0.608046
H29 H 0.0938872 0.289438 0.373149
H30 H 0.110954 0.219784 0.391954
O2_2 O 0.6502(2) 0.6654(3) 0.2044(3)
O3_2 O 0.6073(2) 0.7499(2) 0.2453(2)
O4_2 O 0.3738(2) 0.7634(3) 0.2259(3)
O5_2 O 0.3288(2) 0.6809(2) 0.1857(3)
O6_2 O 0.7382(3) 0.6134(2) 0.1273(3)
C1_2 C 0.6044(3) 0.6968(4) 0.2238(3)
C2_2 C 0.5426(3) 0.6692(4) 0.2152(4)
C3_2 C 0.5388(4) 0.6065(4) 0.2056(6)
H1_2 H 0.5748 0.5830 0.2050
C4_2 C 0.4854(4) 0.5794(4) 0.1973(6)
C5_2 C 0.4283(4) 0.6128(4) 0.1972(5)
H2_2 H 0.3906 0.5930 0.1913
C6_2 C 0.4896(4) 0.7025(4) 0.2169(4)
H3_2 H 0.4914 0.7446 0.2254
C7_2 C 0.4320(4) 0.6748(4) 0.2062(4)
C8_2 C 0.3742(4) 0.7076(5) 0.2061(4)
N1_2 N 0.4759(3) 0.5126(4) 0.1951(5)
O7_2 O 0.3498(2) 0.3346(3) 0.2044(3)
O8_2 O 0.3927(2) 0.2501(2) 0.2453(2)
C9_2 C 0.3956(3) 0.3032(4) 0.2238(3)
C10_2 C 0.4574(3) 0.3308(4) 0.2152(4)
C11_2 C 0.4612(4) 0.3935(4) 0.2056(6)
H4_2 H 0.4252 0.4170 0.2050
C12_2 C 0.5146(4) 0.4206(4) 0.1973(6)
C13_2 C 0.5717(4) 0.3872(4) 0.1972(5)
H5_2 H 0.6094 0.4070 0.1913
C14_2 C 0.5104(4) 0.2975(4) 0.2169(4)
H6_2 H 0.5086 0.2554 0.2254
C15_2 C 0.5680(4) 0.3252(4) 0.2062(4)
N2_2 N 0.5241(3) 0.4874(4) 0.1951(5)
O9_2 O 0.6712(2) 0.3191(2) 0.1857(3)
C16_2 C 0.6258(4) 0.2924(5) 0.2061(4)
O10_2 O 0.6262(2) 0.2366(3) 0.2259(3)
O12_2 O 0.2618(3) 0.3866(2) 0.1273(3)
Fe9_2 Fe 0.67949(5) 0.80347(5) 0.26092(5)
Fe10_2 Fe 0.32051(5) 0.19653(5) 0.26092(5)
Fe19_2 Fe 0.69653(5) 0.17949(5) 0.23908(5)
Fe20_2 Fe 0.30347(5) 0.82051(5) 0.23908(5)
O43_2 O 0.7259(3) 0.7366(3) 0.1262(2)
O44_2 O 0.2741(3) 0.2634(3) 0.1262(2)
O49_2 O 0.1712(2) 0.3143(3) 0.1809(2)
O50_2 O 0.8288(2) 0.6857(3) 0.1809(2)
H19_2 H 0.710562 0.626851 0.0938872
H20_2 H 0.780216 0.608046 0.110954
H21_2 H 0.289438 0.373149 0.0938872
H22_2 H 0.219784 0.391954 0.110954
O13_2 O 0.6654(3) 0.7956(3) 0.3498(2)
O15_2 O 0.7634(3) 0.7741(3) 0.6262(2)
O16_2 O 0.6809(2) 0.8143(3) 0.6712(2)
O17_2 O 0.6134(2) 0.8727(3) 0.2618(3)
C17_2 C 0.6968(4) 0.7762(3) 0.3956(3)
C18_2 C 0.6692(4) 0.7848(4) 0.4574(3)
C19_2 C 0.6065(4) 0.7944(6) 0.4612(4)
H7_2 H 0.5830 0.7950 0.4252
C20_2 C 0.5794(4) 0.8027(6) 0.5146(4)
C21_2 C 0.6128(4) 0.8028(5) 0.5717(4)
H8_2 H 0.5930 0.8087 0.6094
C22_2 C 0.7025(4) 0.7831(4) 0.5104(4)
H9_2 H 0.7446 0.7746 0.5086
C23_2 C 0.6748(4) 0.7938(4) 0.5680(4)
C24_2 C 0.7076(5) 0.7939(4) 0.6258(4)
N3_2 N 0.5126(4) 0.8049(5) 0.5241(3)
O18_2 O 0.3346(3) 0.7956(3) 0.6502(2)
C25_2 C 0.3032(4) 0.7762(3) 0.6044(3)
C26_2 C 0.3308(4) 0.7848(4) 0.5426(3)
C27_2 C 0.3935(4) 0.7944(6) 0.5388(4)
H10_2 H 0.4170 0.7950 0.5748
C28_2 C 0.4206(4) 0.8027(6) 0.4854(4)
C29_2 C 0.3872(4) 0.8028(5) 0.4283(4)
H11_2 H 0.4070 0.8087 0.3906
C30_2 C 0.2975(4) 0.7831(4) 0.4896(4)
H12_2 H 0.2554 0.7746 0.4914
C31_2 C 0.3252(4) 0.7938(4) 0.4320(4)
N4_2 N 0.4874(4) 0.8049(5) 0.4759(3)
O20_2 O 0.3191(2) 0.8143(3) 0.3288(2)
C32_2 C 0.2924(5) 0.7939(4) 0.3742(4)
O21_2 O 0.2366(3) 0.7741(3) 0.3738(2)
O22_2 O 0.3866(2) 0.8727(3) 0.7382(3)
O23_2 O 0.6654(3) 0.2044(3) 0.6502(2)
O25_2 O 0.7634(3) 0.2259(3) 0.3738(2)
O26_2 O 0.6809(2) 0.1857(3) 0.3288(2)
O27_2 O 0.6134(2) 0.1273(3) 0.7382(3)
C33_2 C 0.6968(4) 0.2238(3) 0.6044(3)
C34_2 C 0.6692(4) 0.2152(4) 0.5426(3)
C35_2 C 0.6065(4) 0.2056(6) 0.5388(4)
H13_2 H 0.5830 0.2050 0.5748
C36_2 C 0.5794(4) 0.1973(6) 0.4854(4)
C37_2 C 0.6128(4) 0.1972(5) 0.4283(4)
H14_2 H 0.5930 0.1913 0.3906
C38_2 C 0.7025(4) 0.2169(4) 0.4896(4)
H15_2 H 0.7446 0.2254 0.4914
C39_2 C 0.6748(4) 0.2062(4) 0.4320(4)
C40_2 C 0.7076(5) 0.2061(4) 0.3742(4)
N5_2 N 0.5126(4) 0.1951(5) 0.4759(3)
O28_2 O 0.3346(3) 0.2044(3) 0.3498(2)
C41_2 C 0.3032(4) 0.2238(3) 0.3956(3)
C42_2 C 0.3308(4) 0.2152(4) 0.4574(3)
C43_2 C 0.3935(4) 0.2056(6) 0.4612(4)
H16_2 H 0.4170 0.2050 0.4252
C44_2 C 0.4206(4) 0.1973(6) 0.5146(4)
C45_2 C 0.3872(4) 0.1972(5) 0.5717(4)
H17_2 H 0.4070 0.1913 0.6094
C46_2 C 0.2975(4) 0.2169(4) 0.5104(4)
H18_2 H 0.2554 0.2254 0.5086
C47_2 C 0.3252(4) 0.2062(4) 0.5680(4)
N6_2 N 0.4874(4) 0.1951(5) 0.5241(3)
O30_2 O 0.3191(2) 0.1857(3) 0.6712(2)
C48_2 C 0.2924(5) 0.2061(4) 0.6258(4)
O31_2 O 0.2366(3) 0.2259(3) 0.6262(2)
O32_2 O 0.3866(2) 0.1273(3) 0.2618(3)
O39_2 O 0.2634(3) 0.1262(2) 0.2741(3)
O40_2 O 0.7366(3) 0.8738(2) 0.2741(3)
O41_2 O 0.2634(3) 0.8738(2) 0.7259(3)
O42_2 O 0.7366(3) 0.1262(2) 0.7259(3)
O45_2 O 0.3143(3) 0.1809(2) 0.1712(2)
O46_2 O 0.3143(3) 0.8191(2) 0.8288(2)
O47_2 O 0.6857(3) 0.1809(2) 0.8288(2)
O48_2 O 0.6857(3) 0.8191(2) 0.1712(2)
H23_2 H 0.626851 0.906113 0.289438
H24_2 H 0.608046 0.889046 0.219784
H25_2 H 0.373149 0.906113 0.710562
H26_2 H 0.391954 0.889046 0.780216
H27_2 H 0.626851 0.0938872 0.710562
H28_2 H 0.608046 0.110954 0.780216
H29_2 H 0.373149 0.0938872 0.289438
H30_2 H 0.391954 0.110954 0.219784
C4_3 C 0.0794(4) 0.0146(4) 0.3027(6)
C5_3 C 0.1128(4) 0.0717(4) 0.3028(5)
H2_3 H 0.0930 0.1094 0.3087
C6_3 C 0.2025(4) 0.0104(4) 0.2831(4)
H3_3 H 0.2446 0.0086 0.2746
C7_3 C 0.1748(4) 0.0680(4) 0.2938(4)
C8_3 C 0.2076(5) 0.1258(4) 0.2939(4)
N1_3 N 0.0126(4) 0.0241(3) 0.3049(5)
C20_3 C 0.0146(4) 0.3027(6) 0.0794(4)
C21_3 C 0.0717(4) 0.3028(5) 0.1128(4)
H8_3 H 0.1094 0.3087 0.0930
C22_3 C 0.0104(4) 0.2831(4) 0.2025(4)
H9_3 H 0.0086 0.2746 0.2446
C23_3 C 0.0680(4) 0.2938(4) 0.1748(4)
C24_3 C 0.1258(4) 0.2939(4) 0.2076(5)
N3_3 N 0.0241(3) 0.3049(5) 0.0126(4)
O18_3 O 0.1502(2) 0.2956(3) 0.8346(3)
O19_2 O 0.1073(2) 0.2547(2) 0.7501(2)
C25_3 C 0.1044(3) 0.2762(3) 0.8032(4)
C26_3 C 0.0426(3) 0.2848(4) 0.8308(4)
C27_3 C 0.0388(4) 0.2944(6) 0.8935(4)
H10_3 H 0.0748 0.2950 0.9170
O22_3 O 0.2382(3) 0.3727(3) 0.8866(2)
O33_2 O 0.2399(2) 0.2399(2) 0.7601(2)
O35_2 O 0.2547(2) 0.2499(2) 0.8927(2)
H25_3 H 0.210562 0.406113 0.873149
H26_3 H 0.280216 0.389046 0.891954
O1_2 O 0.2399(2) 0.7601(2) 0.2399(2)
O2_3 O 0.1654(3) 0.8498(2) 0.2956(3)
O3_3 O 0.2499(2) 0.8927(2) 0.2547(2)
O6_3 O 0.1134(2) 0.7618(3) 0.3727(3)
C1_3 C 0.1968(4) 0.8956(3) 0.2762(3)
C2_3 C 0.1692(4) 0.9574(3) 0.2848(4)
C3_3 C 0.1065(4) 0.9612(4) 0.2944(6)
H1_3 H 0.0830 0.9252 0.2950
O23_3 O 0.1502(2) 0.7044(3) 0.1654(3)
O24_2 O 0.1073(2) 0.7453(2) 0.2499(2)
O27_3 O 0.2382(3) 0.6273(3) 0.1134(2)
C33_3 C 0.1044(3) 0.7238(3) 0.1968(4)
C34_3 C 0.0426(3) 0.7152(4) 0.1692(4)
C35_3 C 0.0388(4) 0.7056(6) 0.1065(4)
H13_3 H 0.0748 0.7050 0.0830
O36_2 O 0.2547(2) 0.7501(2) 0.1073(2)
H19_3 H 0.126851 0.789438 0.406113
H20_3 H 0.108046 0.719784 0.389046
H27_3 H 0.210562 0.593887 0.126851
H28_3 H 0.280216 0.610954 0.108046
C44_3 C 0.0146(4) 0.6973(6) 0.9206(4)
C45_3 C 0.0717(4) 0.6972(5) 0.8872(4)
H17_3 H 0.1094 0.6913 0.9070
C46_3 C 0.0104(4) 0.7169(4) 0.7975(4)
H18_3 H 0.0086 0.7254 0.7554
C47_3 C 0.0680(4) 0.7062(4) 0.8252(4)
N6_3 N 0.0241(3) 0.6951(5) 0.9874(4)
C48_3 C 0.1258(4) 0.7061(4) 0.7924(5)
O7_3 O 0.8346(3) 0.1502(2) 0.2956(3)
O8_3 O 0.7501(2) 0.1073(2) 0.2547(2)
C9_3 C 0.8032(4) 0.1044(3) 0.2762(3)
C10_3 C 0.8308(4) 0.0426(3) 0.2848(4)
C11_3 C 0.8935(4) 0.0388(4) 0.2944(6)
H4_3 H 0.9170 0.0748 0.2950
O11_2 O 0.7601(2) 0.2399(2) 0.2399(2)
O12_3 O 0.8866(2) 0.2382(3) 0.3727(3)
O13_3 O 0.8498(2) 0.2956(3) 0.1654(3)
O14_2 O 0.8927(2) 0.2547(2) 0.2499(2)
O17_3 O 0.7618(3) 0.3727(3) 0.1134(2)
C17_3 C 0.8956(3) 0.2762(3) 0.1968(4)
C18_3 C 0.9574(3) 0.2848(4) 0.1692(4)
C19_3 C 0.9612(4) 0.2944(6) 0.1065(4)
H7_3 H 0.9252 0.2950 0.0830
O37_2 O 0.7453(2) 0.2499(2) 0.1073(2)
H21_3 H 0.873149 0.210562 0.406113
H22_3 H 0.891954 0.280216 0.389046
H23_3 H 0.789438 0.406113 0.126851
H24_3 H 0.719784 0.389046 0.108046
C28_3 C 0.9854(4) 0.3027(6) 0.9206(4)
C29_3 C 0.9283(4) 0.3028(5) 0.8872(4)
H11_3 H 0.8906 0.3087 0.9070
C30_3 C 0.9896(4) 0.2831(4) 0.7975(4)
H12_3 H 0.9914 0.2746 0.7554
C31_3 C 0.9320(4) 0.2938(4) 0.8252(4)
N4_3 N 0.9759(3) 0.3049(5) 0.9874(4)
C32_3 C 0.8742(4) 0.2939(4) 0.7924(5)
C12_3 C 0.9206(4) 0.9854(4) 0.3027(6)
C13_3 C 0.8872(4) 0.9283(4) 0.3028(5)
H5_3 H 0.9070 0.8906 0.3087
C14_3 C 0.7975(4) 0.9896(4) 0.2831(4)
H6_3 H 0.7554 0.9914 0.2746
C15_3 C 0.8252(4) 0.9320(4) 0.2938(4)
N2_3 N 0.9874(4) 0.9759(3) 0.3049(5)
C16_3 C 0.7924(5) 0.8742(4) 0.2939(4)
C36_3 C 0.9854(4) 0.6973(6) 0.0794(4)
C37_3 C 0.9283(4) 0.6972(5) 0.1128(4)
H14_3 H 0.8906 0.6913 0.0930
C38_3 C 0.9896(4) 0.7169(4) 0.2025(4)
H15_3 H 0.9914 0.7254 0.2446
C39_3 C 0.9320(4) 0.7062(4) 0.1748(4)
C40_3 C 0.8742(4) 0.7061(4) 0.2076(5)
N5_3 N 0.9759(3) 0.6951(5) 0.0126(4)
O28_3 O 0.8498(2) 0.7044(3) 0.8346(3)
O29_2 O 0.8927(2) 0.7453(2) 0.7501(2)
C41_3 C 0.8956(3) 0.7238(3) 0.8032(4)
C42_3 C 0.9574(3) 0.7152(4) 0.8308(4)
C43_3 C 0.9612(4) 0.7056(6) 0.8935(4)
H16_3 H 0.9252 0.7050 0.9170
O32_3 O 0.7618(3) 0.6273(3) 0.8866(2)
O34_2 O 0.7601(2) 0.7601(2) 0.7601(2)
O38_2 O 0.7453(2) 0.7501(2) 0.8927(2)
H29_3 H 0.789438 0.593887 0.873149
H30_3 H 0.719784 0.610954 0.891954
O2_4 O 0.1654(3) 0.1502(2) 0.7044(3)
O3_4 O 0.2499(2) 0.1073(2) 0.7453(2)
O6_4 O 0.1134(2) 0.2382(3) 0.6273(3)
C1_4 C 0.1968(4) 0.1044(3) 0.7238(3)
C2_4 C 0.1692(4) 0.0426(3) 0.7152(4)
C3_4 C 0.1065(4) 0.0388(4) 0.7056(6)
H1_4 H 0.0830 0.0748 0.7050
H19_4 H 0.126851 0.210562 0.593887
H20_4 H 0.108046 0.280216 0.610954
C4_4 C 0.0794(4) 0.9854(4) 0.6973(6)
C5_4 C 0.1128(4) 0.9283(4) 0.6972(5)
H2_4 H 0.0930 0.8906 0.6913
C6_4 C 0.2025(4) 0.9896(4) 0.7169(4)
H3_4 H 0.2446 0.9914 0.7254
C7_4 C 0.1748(4) 0.9320(4) 0.7062(4)
C8_4 C 0.2076(5) 0.8742(4) 0.7061(4)
N1_4 N 0.0126(4) 0.9759(3) 0.6951(5)
C12_4 C 0.9206(4) 0.0146(4) 0.6973(6)
C13_4 C 0.8872(4) 0.0717(4) 0.6972(5)
H5_4 H 0.9070 0.1094 0.6913
C14_4 C 0.7975(4) 0.0104(4) 0.7169(4)
H6_4 H 0.7554 0.0086 0.7254
C15_4 C 0.8252(4) 0.0680(4) 0.7062(4)
N2_4 N 0.9874(4) 0.0241(3) 0.6951(5)
C16_4 C 0.7924(5) 0.1258(4) 0.7061(4)
O7_4 O 0.8346(3) 0.8498(2) 0.7044(3)
O8_4 O 0.7501(2) 0.8927(2) 0.7453(2)
C9_4 C 0.8032(4) 0.8956(3) 0.7238(3)
C10_4 C 0.8308(4) 0.9574(3) 0.7152(4)
C11_4 C 0.8935(4) 0.9612(4) 0.7056(6)
H4_4 H 0.9170 0.9252 0.7050
O12_4 O 0.8866(2) 0.7618(3) 0.6273(3)
H21_4 H 0.873149 0.789438 0.593887
H22_4 H 0.891954 0.719784 0.610954
C20_4 C 0.3027(6) 0.0794(4) 0.0146(4)
C21_4 C 0.3028(5) 0.1128(4) 0.0717(4)
H8_4 H 0.3087 0.0930 0.1094
C22_4 C 0.2831(4) 0.2025(4) 0.0104(4)
H9_4 H 0.2746 0.2446 0.0086
C23_4 C 0.2938(4) 0.1748(4) 0.0680(4)
C24_4 C 0.2939(4) 0.2076(5) 0.1258(4)
N3_4 N 0.3049(5) 0.0126(4) 0.0241(3)
O13_4 O 0.2956(3) 0.1654(3) 0.8498(2)
O17_4 O 0.3727(3) 0.1134(2) 0.7618(3)
C17_4 C 0.2762(3) 0.1968(4) 0.8956(3)
C18_4 C 0.2848(4) 0.1692(4) 0.9574(3)
C19_4 C 0.2944(6) 0.1065(4) 0.9612(4)
H7_4 H 0.2950 0.0830 0.9252
H23_4 H 0.406113 0.126851 0.789438
H24_4 H 0.389046 0.108046 0.719784
O18_4 O 0.2956(3) 0.8346(3) 0.1502(2)
C25_4 C 0.2762(3) 0.8032(4) 0.1044(3)
C26_4 C 0.2848(4) 0.8308(4) 0.0426(3)
C27_4 C 0.2944(6) 0.8935(4) 0.0388(4)
H10_4 H 0.2950 0.9170 0.0748
O22_4 O 0.3727(3) 0.8866(2) 0.2382(3)
H25_4 H 0.406113 0.873149 0.210562
H26_4 H 0.389046 0.891954 0.280216
C28_4 C 0.3027(6) 0.9206(4) 0.9854(4)
C29_4 C 0.3028(5) 0.8872(4) 0.9283(4)
H11_4 H 0.3087 0.9070 0.8906
C30_4 C 0.2831(4) 0.7975(4) 0.9896(4)
H12_4 H 0.2746 0.7554 0.9914
C31_4 C 0.2938(4) 0.8252(4) 0.9320(4)
N4_4 N 0.3049(5) 0.9874(4) 0.9759(3)
C32_4 C 0.2939(4) 0.7924(5) 0.8742(4)
O23_4 O 0.7044(3) 0.1654(3) 0.1502(2)
O27_4 O 0.6273(3) 0.1134(2) 0.2382(3)
C33_4 C 0.7238(3) 0.1968(4) 0.1044(3)
C34_4 C 0.7152(4) 0.1692(4) 0.0426(3)
C35_4 C 0.7056(6) 0.1065(4) 0.0388(4)
H13_4 H 0.7050 0.0830 0.0748
H27_4 H 0.593887 0.126851 0.210562
H28_4 H 0.610954 0.108046 0.280216
C36_4 C 0.6973(6) 0.0794(4) 0.9854(4)
C37_4 C 0.6972(5) 0.1128(4) 0.9283(4)
H14_4 H 0.6913 0.0930 0.8906
C38_4 C 0.7169(4) 0.2025(4) 0.9896(4)
H15_4 H 0.7254 0.2446 0.9914
C39_4 C 0.7062(4) 0.1748(4) 0.9320(4)
C40_4 C 0.7061(4) 0.2076(5) 0.8742(4)
N5_4 N 0.6951(5) 0.0126(4) 0.9759(3)
C44_4 C 0.6973(6) 0.9206(4) 0.0146(4)
C45_4 C 0.6972(5) 0.8872(4) 0.0717(4)
H17_4 H 0.6913 0.9070 0.1094
C46_4 C 0.7169(4) 0.7975(4) 0.0104(4)
H18_4 H 0.7254 0.7554 0.0086
C47_4 C 0.7062(4) 0.8252(4) 0.0680(4)
N6_4 N 0.6951(5) 0.9874(4) 0.0241(3)
C48_4 C 0.7061(4) 0.7924(5) 0.1258(4)
O28_4 O 0.7044(3) 0.8346(3) 0.8498(2)
C41_4 C 0.7238(3) 0.8032(4) 0.8956(3)
C42_4 C 0.7152(4) 0.8308(4) 0.9574(3)
C43_4 C 0.7056(6) 0.8935(4) 0.9612(4)
H16_4 H 0.7050 0.9170 0.9252
O32_4 O 0.6273(3) 0.8866(2) 0.7618(3)
H29_4 H 0.593887 0.873149 0.789438
H30_4 H 0.610954 0.891954 0.719784
Cl1 Cl 0.1399(10) 0.8601(10) 0.8601(10)
Cl1_2 Cl 0.8601(10) 0.1399(10) 0.8601(10)
Cl1_3 Cl 0.8601(10) 0.8601(10) 0.1399(10)
Cl1_4 Cl 0.1399(10) 0.1399(10) 0.1399(10)
Cl1_5 Cl 0.3601(10) 0.6399(10) 0.3601(10)
Cl1_6 Cl 0.6399(10) 0.3601(10) 0.3601(10)
Cl1_7 Cl 0.3601(10) 0.3601(10) 0.6399(10)
Cl1_8 Cl 0.6399(10) 0.6399(10) 0.6399(10)
Cl2 Cl 0.375(2) 0.625(2) 0.625(2)
Cl2_2 Cl 0.625(2) 0.375(2) 0.625(2)
Cl2_3 Cl 0.625(2) 0.625(2) 0.375(2)
Cl2_4 Cl 0.375(2) 0.375(2) 0.375(2)
Cl2_5 Cl 0.125(2) 0.875(2) 0.125(2)
Cl2_6 Cl 0.875(2) 0.125(2) 0.125(2)
Cl2_7 Cl 0.125(2) 0.125(2) 0.875(2)
Cl2_8 Cl 0.875(2) 0.875(2) 0.875(2)
Cl3 Cl 0.3278(18) 0.6231(19) 0.5167(19)
Cl3_2 Cl 0.6722(18) 0.3769(19) 0.5167(19)
Cl3_3 Cl 0.6722(18) 0.6231(19) 0.4833(19)
Cl3_4 Cl 0.3278(18) 0.3769(19) 0.4833(19)
Cl3_5 Cl 0.5167(19) 0.3278(18) 0.6231(19)
Cl3_6 Cl 0.5167(19) 0.6722(18) 0.3769(19)
Cl3_7 Cl 0.4833(19) 0.6722(18) 0.6231(19)
Cl3_8 Cl 0.4833(19) 0.3278(18) 0.3769(19)
Cl3_9 Cl 0.6231(19) 0.5167(19) 0.3278(18)
Cl3_10 Cl 0.3769(19) 0.5167(19) 0.6722(18)
Cl3_11 Cl 0.6231(19) 0.4833(19) 0.6722(18)
Cl3_12 Cl 0.3769(19) 0.4833(19) 0.3278(18)
Cl3_13 Cl 0.1231(19) 0.8278(18) 0.0167(19)
Cl3_14 Cl 0.8769(19) 0.1722(18) 0.0167(19)
Cl3_15 Cl 0.1231(19) 0.1722(18) 0.9833(19)
Cl3_16 Cl 0.8769(19) 0.8278(18) 0.9833(19)
Cl3_17 Cl 0.8278(18) 0.0167(19) 0.1231(19)
Cl3_18 Cl 0.1722(18) 0.0167(19) 0.8769(19)
Cl3_19 Cl 0.1722(18) 0.9833(19) 0.1231(19)
Cl3_20 Cl 0.8278(18) 0.9833(19) 0.8769(19)
Cl3_21 Cl 0.0167(19) 0.1231(19) 0.8278(18)
Cl3_22 Cl 0.0167(19) 0.8769(19) 0.1722(18)
Cl3_23 Cl 0.9833(19) 0.1231(19) 0.1722(18)
Cl3_24 Cl 0.9833(19) 0.8769(19) 0.8278(18)
loop_
_geom_bond_atom_site_label_1
_geom_bond_atom_site_label_2
_geom_bond_site_symmetry_1
_geom_bond_site_symmetry_2
Fe1 O1 1_555 1_555
O1 Fe5 1_555 1_555
O2 Fe1 1_555 1_555
O3 C1 1_555 1_555
O4 C8 1_555 1_555
O5 C8 1_555 1_555
O6 Fe1 1_555 1_555
C1 O2 1_555 1_555
C2 C1 1_555 1_555
C3 C2 1_555 1_555
H1 C3 1_555 1_555
C4 C3 1_555 1_555
C5 C4 1_555 1_555
H2 C5 1_555 1_555
C6 C2 1_555 1_555
H3 C6 1_555 1_555
C7 C5 1_555 1_555
C8 C7 1_555 1_555
N1 C4 1_555 1_555
O7 C9 1_555 1_555
O8 C9 1_555 1_555
C9 C10 1_555 1_555
C10 C11 1_555 1_555
C11 H4 1_555 1_555
C12 C11 1_555 1_555
C13 C12 1_555 1_555
H5 C13 1_555 1_555
C14 C10 1_555 1_555
H6 C14 1_555 1_555
C15 C13 1_555 1_555
N2 N1 1_555 1_555
O9 C16 1_555 1_555
C16 C15 1_555 1_555
O10 C16 1_555 1_555
Fe2 O7 1_555 1_555
O11 Fe2 1_555 1_555
O12 Fe2 1_555 1_555
Fe3 O11 1_555 1_555
O13 Fe3 1_555 1_555
O14 Fe2 1_555 1_555
O15 C24 1_555 1_555
O16 C24 1_555 1_555
O17 Fe3 1_555 1_555
C17 O13 1_555 1_555
C18 C17 1_555 1_555
C19 C18 1_555 1_555
H7 C19 1_555 1_555
C20 C19 1_555 1_555
C21 C20 1_555 1_555
H8 C21 1_555 1_555
C22 C18 1_555 1_555
H9 C22 1_555 1_555
C23 C21 1_555 1_555
C24 C23 1_555 1_555
N3 C20 1_555 1_555
O18 C25 1_555 1_555
O19 C25 1_555 1_555
C25 C26 1_555 1_555
C26 C27 1_555 1_555
C27 H10 1_555 1_555
C28 C27 1_555 1_555
C29 C28 1_555 1_555
H11 C29 1_555 1_555
C30 C26 1_555 1_555
H12 C30 1_555 1_555
C31 C29 1_555 1_555
N4 N3 1_555 1_555
O20 C32 1_555 1_555
C32 C31 1_555 1_555
O21 C32 1_555 1_555
Fe4 O18 1_555 1_555
O22 Fe4 1_555 1_555
Fe5 O23 1_555 1_555
O23 C33 1_555 1_555
O24 Fe1 1_555 1_555
O25 C40 1_555 1_555
O26 C40 1_555 1_555
O27 Fe5 1_555 1_555
C33 O24 1_555 1_555
C34 C33 1_555 1_555
C35 C34 1_555 1_555
H13 C35 1_555 1_555
C36 C35 1_555 1_555
C37 C36 1_555 1_555
H14 C37 1_555 1_555
C38 C34 1_555 1_555
H15 C38 1_555 1_555
C39 C37 1_555 1_555
C40 C39 1_555 1_555
N5 C36 1_555 1_555
O28 C41 1_555 1_555
O29 C41 1_555 1_555
C41 C42 1_555 1_555
C42 C43 1_555 1_555
C43 H16 1_555 1_555
C44 C43 1_555 1_555
C45 C44 1_555 1_555
H17 C45 1_555 1_555
C46 C42 1_555 1_555
H18 C46 1_555 1_555
C47 C45 1_555 1_555
N6 N5 1_555 1_555
O30 C48 1_555 1_555
C48 C47 1_555 1_555
O31 C48 1_555 1_555
Fe6 O28 1_555 1_555
O32 Fe6 1_555 1_555
Fe7 O19 1_555 1_555
Fe8 O29 1_555 1_555
Fe9 O1 1_555 1_555
Fe10 O8 1_555 1_555
Fe11 O30 1_555 1_555
Fe12 O20 1_555 1_555
Fe13 O26 1_555 1_555
Fe14 O16 1_555 1_555
Fe15 O21 1_555 1_555
Fe16 O9 1_555 1_555
Fe17 O31 1_555 1_555
Fe18 O5 1_555 1_555
Fe19 O10 1_555 1_555
Fe20 O4 1_555 1_555
O33 Fe4 1_555 1_555
O34 Fe6 1_555 1_555
O35 Fe4 1_555 1_555
O36 Fe5 1_555 1_555
O37 Fe3 1_555 1_555
O38 Fe6 1_555 1_555
O39 Fe6 1_555 1_555
O40 Fe3 1_555 1_555
O41 Fe4 1_555 1_555
O42 Fe5 1_555 1_555
O43 Fe1 1_555 1_555
O44 Fe2 1_555 1_555
O45 Fe6 1_555 1_555
O46 Fe4 1_555 1_555
O47 Fe5 1_555 1_555
O48 Fe3 1_555 1_555
O49 Fe2 1_555 1_555
O50 Fe1 1_555 1_555
O3 Fe9 1_555 1_555
C6 C7 1_555 1_555
C12 N2 1_555 1_555
C14 C15 1_555 1_555
O11 Fe10 1_555 1_555
O14 C17 1_555 1_555
O15 Fe18 1_555 1_555
C22 C23 1_555 1_555
C28 N4 1_555 1_555
C30 C31 1_555 1_555
O25 Fe16 1_555 1_555
C38 C39 1_555 1_555
C44 N6 1_555 1_555
C46 C47 1_555 1_555
Fe7 O33 1_555 1_555
Fe8 O34 1_555 1_555
O6 H19 1_555 1_555
O6 H20 1_555 1_555
O12 H21 1_555 1_555
O12 H22 1_555 1_555
O17 H23 1_555 1_555
O17 H24 1_555 1_555
O22 H25 1_555 1_555
O22 H26 1_555 1_555
O27 H27 1_555 1_555
O27 H28 1_555 1_555
O32 H29 1_555 1_555
O32 H30 1_555 1_555
O2_2 Fe7 1_555 1_555
O3_2 C1_2 1_555 1_555
O4_2 C8_2 1_555 1_555
O5_2 C8_2 1_555 1_555
O6_2 Fe7 1_555 1_555
C1_2 O2_2 1_555 1_555
C2_2 C1_2 1_555 1_555
C3_2 C2_2 1_555 1_555
H1_2 C3_2 1_555 1_555
C4_2 C3_2 1_555 1_555
C5_2 C4_2 1_555 1_555
H2_2 C5_2 1_555 1_555
C6_2 C2_2 1_555 1_555
H3_2 C6_2 1_555 1_555
C7_2 C5_2 1_555 1_555
C8_2 C7_2 1_555 1_555
N1_2 C4_2 1_555 1_555
O7_2 C9_2 1_555 1_555
O8_2 C9_2 1_555 1_555
C9_2 C10_2 1_555 1_555
C10_2 C11_2 1_555 1_555
C11_2 H4_2 1_555 1_555
C12_2 C11_2 1_555 1_555
C13_2 C12_2 1_555 1_555
H5_2 C13_2 1_555 1_555
C14_2 C10_2 1_555 1_555
H6_2 C14_2 1_555 1_555
C15_2 C13_2 1_555 1_555
N2_2 N1_2 1_555 1_555
O9_2 C16_2 1_555 1_555
C16_2 C15_2 1_555 1_555
O10_2 C16_2 1_555 1_555
Fe8 O7_2 1_555 1_555
O12_2 Fe8 1_555 1_555
Fe9_2 O33 1_555 1_555
Fe10_2 O8_2 1_555 1_555
Fe15 O9_2 1_555 1_555
Fe17 O5_2 1_555 1_555
Fe19_2 O10_2 1_555 1_555
Fe20_2 O4_2 1_555 1_555
O43_2 Fe7 1_555 1_555
O44_2 Fe8 1_555 1_555
O49_2 Fe8 1_555 1_555
O50_2 Fe7 1_555 1_555
O3_2 Fe9_2 1_555 1_555
C6_2 C7_2 1_555 1_555
C12_2 N2_2 1_555 1_555
C14_2 C15_2 1_555 1_555
O34 Fe10_2 1_555 1_555
O6_2 H19_2 1_555 1_555
O6_2 H20_2 1_555 1_555
O12_2 H21_2 1_555 1_555
O12_2 H22_2 1_555 1_555
O13_2 Fe9_2 1_555 1_555
O15_2 C24_2 1_555 1_555
O16_2 C24_2 1_555 1_555
O17_2 Fe9_2 1_555 1_555
C17_2 O13_2 1_555 1_555
C18_2 C17_2 1_555 1_555
C19_2 C18_2 1_555 1_555
H7_2 C19_2 1_555 1_555
C20_2 C19_2 1_555 1_555
C21_2 C20_2 1_555 1_555
H8_2 C21_2 1_555 1_555
C22_2 C18_2 1_555 1_555
H9_2 C22_2 1_555 1_555
C23_2 C21_2 1_555 1_555
C24_2 C23_2 1_555 1_555
N3_2 C20_2 1_555 1_555
O18_2 C25_2 1_555 1_555
O36 C25_2 1_555 1_555
C25_2 C26_2 1_555 1_555
C26_2 C27_2 1_555 1_555
C27_2 H10_2 1_555 1_555
C28_2 C27_2 1_555 1_555
C29_2 C28_2 1_555 1_555
H11_2 C29_2 1_555 1_555
C30_2 C26_2 1_555 1_555
H12_2 C30_2 1_555 1_555
C31_2 C29_2 1_555 1_555
N4_2 N3_2 1_555 1_555
O20_2 C32_2 1_555 1_555
C32_2 C31_2 1_555 1_555
O21_2 C32_2 1_555 1_555
Fe9 O18_2 1_555 1_555
O22_2 Fe9 1_555 1_555
Fe10 O23_2 1_555 1_555
O23_2 C33_2 1_555 1_555
O25_2 C40_2 1_555 1_555
O26_2 C40_2 1_555 1_555
O27_2 Fe10 1_555 1_555
C33_2 O37 1_555 1_555
C34_2 C33_2 1_555 1_555
C35_2 C34_2 1_555 1_555
H13_2 C35_2 1_555 1_555
C36_2 C35_2 1_555 1_555
C37_2 C36_2 1_555 1_555
H14_2 C37_2 1_555 1_555
C38_2 C34_2 1_555 1_555
H15_2 C38_2 1_555 1_555
C39_2 C37_2 1_555 1_555
C40_2 C39_2 1_555 1_555
N5_2 C36_2 1_555 1_555
O28_2 C41_2 1_555 1_555
O38 C41_2 1_555 1_555
C41_2 C42_2 1_555 1_555
C42_2 C43_2 1_555 1_555
C43_2 H16_2 1_555 1_555
C44_2 C43_2 1_555 1_555
C45_2 C44_2 1_555 1_555
H17_2 C45_2 1_555 1_555
C46_2 C42_2 1_555 1_555
H18_2 C46_2 1_555 1_555
C47_2 C45_2 1_555 1_555
N6_2 N5_2 1_555 1_555
O30_2 C48_2 1_555 1_555
C48_2 C47_2 1_555 1_555
O31_2 C48_2 1_555 1_555
Fe10_2 O28_2 1_555 1_555
O32_2 Fe10_2 1_555 1_555
Fe19 O30_2 1_555 1_555
Fe20_2 O20_2 1_555 1_555
Fe19_2 O26_2 1_555 1_555
Fe20 O16_2 1_555 1_555
Fe11 O21_2 1_555 1_555
Fe13 O31_2 1_555 1_555
O39_2 Fe10_2 1_555 1_555
O40_2 Fe9_2 1_555 1_555
O41_2 Fe9 1_555 1_555
O42_2 Fe10 1_555 1_555
O45_2 Fe10_2 1_555 1_555
O46_2 Fe9 1_555 1_555
O47_2 Fe10 1_555 1_555
O48_2 Fe9_2 1_555 1_555
O35 C17_2 1_555 1_555
O15_2 Fe14 1_555 1_555
C22_2 C23_2 1_555 1_555
C28_2 N4_2 1_555 1_555
C30_2 C31_2 1_555 1_555
O25_2 Fe12 1_555 1_555
C38_2 C39_2 1_555 1_555
C44_2 N6_2 1_555 1_555
C46_2 C47_2 1_555 1_555
O17_2 H23_2 1_555 1_555
O17_2 H24_2 1_555 1_555
O22_2 H25_2 1_555 1_555
O22_2 H26_2 1_555 1_555
O27_2 H27_2 1_555 1_555
O27_2 H28_2 1_555 1_555
O32_2 H29_2 1_555 1_555
O32_2 H30_2 1_555 1_555
O39_2 C8_3 1_555 1_555
O45 C8_3 1_555 1_555
C5_3 C4_3 1_555 1_555
H2_3 C5_3 1_555 1_555
H3_3 C6_3 1_555 1_555
C7_3 C5_3 1_555 1_555
C8_3 C7_3 1_555 1_555
N1_3 C4_3 1_555 1_555
O39 C24_3 1_555 1_555
O49_2 C24_3 1_555 1_555
C21_3 C20_3 1_555 1_555
H8_3 C21_3 1_555 1_555
H9_3 C22_3 1_555 1_555
C23_3 C21_3 1_555 1_555
C24_3 C23_3 1_555 1_555
N3_3 C20_3 1_555 1_555
C6_3 C7_3 1_555 1_555
C22_3 C23_3 1_555 1_555
O18_3 C25_3 1_555 1_555
O19_2 C25_3 1_555 1_555
C25_3 C26_3 1_555 1_555
C26_3 C27_3 1_555 1_555
C27_3 H10_3 1_555 1_555
Fe16 O18_3 1_555 1_555
O22_3 Fe16 1_555 1_555
Fe13 O19_2 1_555 1_555
O33_2 Fe16 1_555 1_555
O35_2 Fe16 1_555 1_555
Fe13 O33_2 1_555 1_555
O22_3 H25_3 1_555 1_555
O22_3 H26_3 1_555 1_555
Fe11 O1_2 1_555 1_555
O1_2 Fe17 1_555 1_555
O2_3 Fe11 1_555 1_555
O3_3 C1_3 1_555 1_555
O6_3 Fe11 1_555 1_555
C1_3 O2_3 1_555 1_555
C2_3 C1_3 1_555 1_555
C3_3 C2_3 1_555 1_555
H1_3 C3_3 1_555 1_555
Fe17 O23_3 1_555 1_555
O23_3 C33_3 1_555 1_555
O24_2 Fe11 1_555 1_555
O27_3 Fe17 1_555 1_555
C33_3 O24_2 1_555 1_555
C34_3 C33_3 1_555 1_555
C35_3 C34_3 1_555 1_555
H13_3 C35_3 1_555 1_555
Fe20_2 O1_2 1_555 1_555
O36_2 Fe17 1_555 1_555
O3_3 Fe20_2 1_555 1_555
O6_3 H19_3 1_555 1_555
O6_3 H20_3 1_555 1_555
O27_3 H27_3 1_555 1_555
O27_3 H28_3 1_555 1_555
C45_3 C44_3 1_555 1_555
H17_3 C45_3 1_555 1_555
H18_3 C46_3 1_555 1_555
C47_3 C45_3 1_555 1_555
O50 C48_3 1_555 1_555
C48_3 C47_3 1_555 1_555
O42 C48_3 1_555 1_555
C44_3 N6_3 1_555 1_555
C46_3 C47_3 1_555 1_555
O7_3 C9_3 1_555 1_555
O8_3 C9_3 1_555 1_555
C9_3 C10_3 1_555 1_555
C10_3 C11_3 1_555 1_555
C11_3 H4_3 1_555 1_555
Fe12 O7_3 1_555 1_555
O11_2 Fe12 1_555 1_555
O12_3 Fe12 1_555 1_555
Fe15 O11_2 1_555 1_555
O13_3 Fe15 1_555 1_555
O14_2 Fe12 1_555 1_555
O17_3 Fe15 1_555 1_555
C17_3 O13_3 1_555 1_555
C18_3 C17_3 1_555 1_555
C19_3 C18_3 1_555 1_555
H7_3 C19_3 1_555 1_555
Fe19_2 O8_3 1_555 1_555
O37_2 Fe15 1_555 1_555
O11_2 Fe19_2 1_555 1_555
O14_2 C17_3 1_555 1_555
O12_3 H21_3 1_555 1_555
O12_3 H22_3 1_555 1_555
O17_3 H23_3 1_555 1_555
O17_3 H24_3 1_555 1_555
C29_3 C28_3 1_555 1_555
H11_3 C29_3 1_555 1_555
H12_3 C30_3 1_555 1_555
C31_3 C29_3 1_555 1_555
O49 C32_3 1_555 1_555
C32_3 C31_3 1_555 1_555
O40 C32_3 1_555 1_555
C28_3 N4_3 1_555 1_555
C30_3 C31_3 1_555 1_555
C13_3 C12_3 1_555 1_555
H5_3 C13_3 1_555 1_555
H6_3 C14_3 1_555 1_555
C15_3 C13_3 1_555 1_555
O46 C16_3 1_555 1_555
C16_3 C15_3 1_555 1_555
O40_2 C16_3 1_555 1_555
O41 C40_3 1_555 1_555
O50_2 C40_3 1_555 1_555
C37_3 C36_3 1_555 1_555
H14_3 C37_3 1_555 1_555
H15_3 C38_3 1_555 1_555
C39_3 C37_3 1_555 1_555
C40_3 C39_3 1_555 1_555
N5_3 C36_3 1_555 1_555
C12_3 N2_3 1_555 1_555
C14_3 C15_3 1_555 1_555
C38_3 C39_3 1_555 1_555
O28_3 C41_3 1_555 1_555
O29_2 C41_3 1_555 1_555
C41_3 C42_3 1_555 1_555
C42_3 C43_3 1_555 1_555
C43_3 H16_3 1_555 1_555
Fe18 O28_3 1_555 1_555
O32_3 Fe18 1_555 1_555
Fe14 O29_2 1_555 1_555
O34_2 Fe18 1_555 1_555
O38_2 Fe18 1_555 1_555
Fe14 O34_2 1_555 1_555
O32_3 H29_3 1_555 1_555
O32_3 H30_3 1_555 1_555
O2_4 Fe13 1_555 1_555
O3_4 C1_4 1_555 1_555
O6_4 Fe13 1_555 1_555
C1_4 O2_4 1_555 1_555
C2_4 C1_4 1_555 1_555
C3_4 C2_4 1_555 1_555
H1_4 C3_4 1_555 1_555
Fe19 O33_2 1_555 1_555
O3_4 Fe19 1_555 1_555
O6_4 H19_4 1_555 1_555
O6_4 H20_4 1_555 1_555
O41_2 C8_4 1_555 1_555
O47 C8_4 1_555 1_555
C5_4 C4_4 1_555 1_555
H2_4 C5_4 1_555 1_555
H3_4 C6_4 1_555 1_555
C7_4 C5_4 1_555 1_555
C8_4 C7_4 1_555 1_555
N1_4 C4_4 1_555 1_555
C6_4 C7_4 1_555 1_555
C13_4 C12_4 1_555 1_555
H5_4 C13_4 1_555 1_555
H6_4 C14_4 1_555 1_555
C15_4 C13_4 1_555 1_555
O48 C16_4 1_555 1_555
C16_4 C15_4 1_555 1_555
O42_2 C16_4 1_555 1_555
C12_4 N2_4 1_555 1_555
C14_4 C15_4 1_555 1_555
O7_4 C9_4 1_555 1_555
O8_4 C9_4 1_555 1_555
C9_4 C10_4 1_555 1_555
C10_4 C11_4 1_555 1_555
C11_4 H4_4 1_555 1_555
Fe14 O7_4 1_555 1_555
O12_4 Fe14 1_555 1_555
Fe20 O8_4 1_555 1_555
O34_2 Fe20 1_555 1_555
O12_4 H21_4 1_555 1_555
O12_4 H22_4 1_555 1_555
O44_2 C24_4 1_555 1_555
O45_2 C24_4 1_555 1_555
C21_4 C20_4 1_555 1_555
H8_4 C21_4 1_555 1_555
H9_4 C22_4 1_555 1_555
C23_4 C21_4 1_555 1_555
C24_4 C23_4 1_555 1_555
N3_4 C20_4 1_555 1_555
C22_4 C23_4 1_555 1_555
O13_4 Fe19 1_555 1_555
O17_4 Fe19 1_555 1_555
C17_4 O13_4 1_555 1_555
C18_4 C17_4 1_555 1_555
C19_4 C18_4 1_555 1_555
H7_4 C19_4 1_555 1_555
O35_2 C17_4 1_555 1_555
O17_4 H23_4 1_555 1_555
O17_4 H24_4 1_555 1_555
O18_4 C25_4 1_555 1_555
O36_2 C25_4 1_555 1_555
C25_4 C26_4 1_555 1_555
C26_4 C27_4 1_555 1_555
C27_4 H10_4 1_555 1_555
Fe20_2 O18_4 1_555 1_555
O22_4 Fe20_2 1_555 1_555
O22_4 H25_4 1_555 1_555
O22_4 H26_4 1_555 1_555
C29_4 C28_4 1_555 1_555
H11_4 C29_4 1_555 1_555
H12_4 C30_4 1_555 1_555
C31_4 C29_4 1_555 1_555
O46_2 C32_4 1_555 1_555
C32_4 C31_4 1_555 1_555
O43 C32_4 1_555 1_555
C28_4 N4_4 1_555 1_555
C30_4 C31_4 1_555 1_555
Fe19_2 O23_4 1_555 1_555
O23_4 C33_4 1_555 1_555
O27_4 Fe19_2 1_555 1_555
C33_4 O37_2 1_555 1_555
C34_4 C33_4 1_555 1_555
C35_4 C34_4 1_555 1_555
H13_4 C35_4 1_555 1_555
O27_4 H27_4 1_555 1_555
O27_4 H28_4 1_555 1_555
O44 C40_4 1_555 1_555
O47_2 C40_4 1_555 1_555
C37_4 C36_4 1_555 1_555
H14_4 C37_4 1_555 1_555
H15_4 C38_4 1_555 1_555
C39_4 C37_4 1_555 1_555
C40_4 C39_4 1_555 1_555
N5_4 C36_4 1_555 1_555
C38_4 C39_4 1_555 1_555
C45_4 C44_4 1_555 1_555
H17_4 C45_4 1_555 1_555
H18_4 C46_4 1_555 1_555
C47_4 C45_4 1_555 1_555
O48_2 C48_4 1_555 1_555
C48_4 C47_4 1_555 1_555
O43_2 C48_4 1_555 1_555
C44_4 N6_4 1_555 1_555
C46_4 C47_4 1_555 1_555
O28_4 C41_4 1_555 1_555
O38_2 C41_4 1_555 1_555
C41_4 C42_4 1_555 1_555
C42_4 C43_4 1_555 1_555
C43_4 H16_4 1_555 1_555
Fe20 O28_4 1_555 1_555
O32_4 Fe20 1_555 1_555
O32_4 H29_4 1_555 1_555
O32_4 H30_4 1_555 1_555

#END
