
###############################################################################
#
# This file contains modified crystal structure data generated from the
# MOF subset of the Cambridge Structural Database (CSD) v543 
# hosted by the Cambridge Crystallographic Data Centre (CCDC).
#
# This work is licensed under the Creative Commons
# Attribution-NonCommercial-ShareAlike 4.0 International License.
# To view a copy of this license, visit
# http://creativecommons.org/licenses/by-nc-sa/4.0/
# or send a letter to
# Creative Commons, PO Box 1866, Mountain View, CA 94042, USA.
#
# CIF created using the CSD Python API on 29 September 2022
# The structure has been converted into the P1 space group
# The structure has a 3D framework
# The original CSD entry IZENOS is in the cubic crystal system
# The framework has been calculated to contain at least 10.0% void space
# The void calculation uses a probe of radius 1.32A, grid spacing 0.4
# The framework is charged, counterions have been retained in the structure
# H atom positions have been added when not included in the experimental data
#
###############################################################################

data_IZENOS
_chemical_formula_moiety         '(C192 H120 Fe24 N32 O148 6-)n'
_symmetry_cell_setting           triclinic
_symmetry_space_group_name_H-M   'P 1'
_symmetry_Int_Tables_number      1
_space_group_name_Hall           'P 1'
loop_
_symmetry_equiv_pos_site_id
_symmetry_equiv_pos_as_xyz
1 x,y,z
_cell_length_a                   21.9524(6)
_cell_length_b                   21.9524(6)
_cell_length_c                   21.9524(6)
_cell_angle_alpha                90
_cell_angle_beta                 90
_cell_angle_gamma                90
_cell_volume                     10579
loop_
_atom_site_label
_atom_site_type_symbol
_atom_site_fract_x
_atom_site_fract_y
_atom_site_fract_z
O29 O 0.12595(15) 0.27361(17) 0.26305(15)
O30 O 0.17084(14) 0.31427(17) 0.18086(16)
C42 C 0.12535(19) 0.2938(2) 0.2088(2)
C43 C 0.0103(2) 0.2842(2) 0.2025(2)
H16 H 0.0085 0.2760 0.2450
C45 C 0.0666(2) 0.2937(2) 0.1745(2)
C46 C 0.0702(2) 0.3040(3) 0.1129(2)
H17 H 0.1084 0.3105 0.0936
C47 C 0.0163(2) 0.3045(3) 0.0793(2)
N6 N 0.02385(18) 0.3074(3) 0.0132(2)
Fe14 Fe 0.19658(3) 0.26070(3) 0.32042(3)
Fe18 Fe 0.26070(3) 0.32042(3) 0.19658(3)
Fe4 Fe 0.17958(3) 0.23930(3) 0.69658(3)
O22 O 0.11422(16) 0.23803(18) 0.62926(17)
O23 O 0.10698(14) 0.25439(15) 0.75046(15)
O24 O 0.14923(13) 0.29655(17) 0.83399(16)
C33 C 0.10424(19) 0.2785(2) 0.8022(2)
C36 C 0.0427(2) 0.2867(2) 0.8308(2)
C40 C 0.0404(2) 0.2970(3) 0.8932(2)
H15 H 0.0767 0.2989 0.9166
Fe8 Fe 0.23930(3) 0.30342(3) 0.82042(3)
O34 O 0.24046(14) 0.24046(14) 0.75954(14)
O35 O 0.16601(16) 0.14923(13) 0.70345(17)
O42 O 0.23695(15) 0.22639(17) 0.62595(15)
O45 O 0.18573(17) 0.32916(14) 0.68086(16)
H29 H 0.0927036 0.27781 0.628382
H30 H 0.13395 0.230673 0.589226
Fe3 Fe 0.17958(3) 0.76070(3) 0.30342(3)
O13 O 0.11422(16) 0.76197(18) 0.37074(17)
O14 O 0.10698(14) 0.74561(15) 0.24954(15)
O15 O 0.14923(13) 0.70345(17) 0.16601(16)
C17 C 0.10424(19) 0.7215(2) 0.1978(2)
C20 C 0.0427(2) 0.7133(2) 0.1692(2)
C24 C 0.0404(2) 0.7030(3) 0.1068(2)
H9 H 0.0767 0.7011 0.0834
Fe7 Fe 0.23930(3) 0.69658(3) 0.17958(3)
O33 O 0.24046(14) 0.75954(14) 0.24046(14)
O37 O 0.16601(16) 0.85077(13) 0.29655(17)
O40 O 0.23695(15) 0.77361(17) 0.37405(15)
O48 O 0.18573(17) 0.67084(14) 0.31914(16)
H23 H 0.0927036 0.72219 0.371618
H24 H 0.13395 0.769327 0.410774
O20 O 0.12595(15) 0.72639(17) 0.73695(15)
O21 O 0.17084(14) 0.68573(17) 0.81914(16)
C26 C 0.12535(19) 0.7062(2) 0.7912(2)
C27 C 0.0103(2) 0.7158(2) 0.7975(2)
H10 H 0.0085 0.7240 0.7550
C29 C 0.0666(2) 0.7063(2) 0.8255(2)
C30 C 0.0702(2) 0.6960(3) 0.8871(2)
H11 H 0.1084 0.6895 0.9064
C31 C 0.0163(2) 0.6955(3) 0.9207(2)
N4 N 0.02385(18) 0.6926(3) 0.9868(2)
Fe12 Fe 0.19658(3) 0.73930(3) 0.67958(3)
Fe15 Fe 0.26070(3) 0.67958(3) 0.80342(3)
Fe1 Fe 0.76070(3) 0.30342(3) 0.17958(3)
O1 O 0.75954(14) 0.24046(14) 0.24046(14)
O2 O 0.76197(18) 0.37074(17) 0.11422(16)
O3 O 0.74561(15) 0.24954(15) 0.10698(14)
O4 O 0.70345(17) 0.16601(16) 0.14923(13)
C1 C 0.7215(2) 0.1978(2) 0.10424(19)
C4 C 0.7133(2) 0.1692(2) 0.0427(2)
C8 C 0.7030(3) 0.1068(2) 0.0404(2)
H3 H 0.7011 0.0834 0.0767
O27 O 0.89302(14) 0.25439(15) 0.24954(15)
O28 O 0.85077(13) 0.29655(17) 0.16601(16)
C41 C 0.89576(19) 0.2785(2) 0.1978(2)
C44 C 0.9573(2) 0.2867(2) 0.1692(2)
C48 C 0.9596(2) 0.2970(3) 0.1068(2)
H18 H 0.9233 0.2989 0.0834
Fe5 Fe 0.82042(3) 0.23930(3) 0.30342(3)
O31 O 0.88578(16) 0.23803(18) 0.37074(17)
Fe9 Fe 0.69658(3) 0.17958(3) 0.23930(3)
O36 O 0.83399(16) 0.14923(13) 0.29655(17)
O39 O 0.76305(15) 0.22639(17) 0.37405(15)
O43 O 0.77361(17) 0.37405(15) 0.23695(15)
O46 O 0.81427(17) 0.32916(14) 0.31914(16)
O50 O 0.67084(14) 0.31914(16) 0.18573(17)
H19 H 0.907296 0.27781 0.371618
H20 H 0.86605 0.230673 0.410774
H25 H 0.72219 0.371618 0.0927036
H26 H 0.769327 0.410774 0.13395
O5 O 0.72639(17) 0.26305(15) 0.87405(15)
O6 O 0.68573(17) 0.18086(16) 0.82916(14)
C2 C 0.7062(2) 0.2088(2) 0.87465(19)
C3 C 0.7158(2) 0.2025(2) 0.9897(2)
H1 H 0.7240 0.2450 0.9915
C5 C 0.7063(2) 0.1745(2) 0.9334(2)
C6 C 0.6960(3) 0.1129(2) 0.9298(2)
H2 H 0.6895 0.0936 0.8916
C7 C 0.6955(3) 0.0793(2) 0.9837(2)
N1 N 0.6926(3) 0.0132(2) 0.97615(18)
O25 O 0.87405(15) 0.27361(17) 0.73695(15)
O26 O 0.82916(14) 0.31427(17) 0.81914(16)
C34 C 0.87465(19) 0.2938(2) 0.7912(2)
C35 C 0.9897(2) 0.2842(2) 0.7975(2)
H13 H 0.9915 0.2760 0.7550
C37 C 0.9334(2) 0.2937(2) 0.8255(2)
C38 C 0.9298(2) 0.3040(3) 0.8871(2)
H14 H 0.8916 0.3105 0.9064
C39 C 0.9837(2) 0.3045(3) 0.9207(2)
N5 N 0.97615(18) 0.3074(3) 0.9868(2)
Fe11 Fe 0.80342(3) 0.26070(3) 0.67958(3)
Fe17 Fe 0.73930(3) 0.32042(3) 0.80342(3)
Fe20 Fe 0.67958(3) 0.19658(3) 0.73930(3)
O9 O 0.72639(17) 0.73695(15) 0.12595(15)
O10 O 0.68573(17) 0.81914(16) 0.17084(14)
C10 C 0.7062(2) 0.7912(2) 0.12535(19)
C11 C 0.7158(2) 0.7975(2) 0.0103(2)
H4 H 0.7240 0.7550 0.0085
C13 C 0.7063(2) 0.8255(2) 0.0666(2)
C14 C 0.6960(3) 0.8871(2) 0.0702(2)
H5 H 0.6895 0.9064 0.1084
C15 C 0.6955(3) 0.9207(2) 0.0163(2)
N2 N 0.6926(3) 0.9868(2) 0.02385(18)
O16 O 0.87405(15) 0.72639(17) 0.26305(15)
O17 O 0.82916(14) 0.68573(17) 0.18086(16)
C18 C 0.87465(19) 0.7062(2) 0.2088(2)
C19 C 0.9897(2) 0.7158(2) 0.2025(2)
H7 H 0.9915 0.7240 0.2450
C21 C 0.9334(2) 0.7063(2) 0.1745(2)
C22 C 0.9298(2) 0.6960(3) 0.1129(2)
H8 H 0.8916 0.6895 0.0936
C23 C 0.9837(2) 0.6955(3) 0.0793(2)
N3 N 0.97615(18) 0.6926(3) 0.0132(2)
Fe13 Fe 0.80342(3) 0.73930(3) 0.32042(3)
Fe16 Fe 0.73930(3) 0.67958(3) 0.19658(3)
Fe19 Fe 0.67958(3) 0.80342(3) 0.26070(3)
O7 O 0.74561(15) 0.75046(15) 0.89302(14)
O8 O 0.70345(17) 0.83399(16) 0.85077(13)
C9 C 0.7215(2) 0.8022(2) 0.89576(19)
C12 C 0.7133(2) 0.8308(2) 0.9573(2)
C16 C 0.7030(3) 0.8932(2) 0.9596(2)
H6 H 0.7011 0.9166 0.9233
Fe2 Fe 0.76070(3) 0.69658(3) 0.82042(3)
O11 O 0.75954(14) 0.75954(14) 0.75954(14)
O12 O 0.76197(18) 0.62926(17) 0.88578(16)
O18 O 0.89302(14) 0.74561(15) 0.75046(15)
O19 O 0.85077(13) 0.70345(17) 0.83399(16)
C25 C 0.89576(19) 0.7215(2) 0.8022(2)
C28 C 0.9573(2) 0.7133(2) 0.8308(2)
C32 C 0.9596(2) 0.7030(3) 0.8932(2)
H12 H 0.9233 0.7011 0.9166
Fe6 Fe 0.82042(3) 0.76070(3) 0.69658(3)
O32 O 0.88578(16) 0.76197(18) 0.62926(17)
Fe10 Fe 0.69658(3) 0.82042(3) 0.76070(3)
O38 O 0.83399(16) 0.85077(13) 0.70345(17)
O41 O 0.76305(15) 0.77361(17) 0.62595(15)
O44 O 0.77361(17) 0.62595(15) 0.76305(15)
O47 O 0.81427(17) 0.67084(14) 0.68086(16)
O49 O 0.67084(14) 0.68086(16) 0.81427(17)
H21 H 0.907296 0.72219 0.628382
H22 H 0.86605 0.769327 0.589226
H27 H 0.72219 0.628382 0.907296
H28 H 0.769327 0.589226 0.86605
O9_2 O 0.27361(17) 0.26305(15) 0.12595(15)
O10_2 O 0.31427(17) 0.18086(16) 0.17084(14)
C10_2 C 0.2938(2) 0.2088(2) 0.12535(19)
C11_2 C 0.2842(2) 0.2025(2) 0.0103(2)
H4_2 H 0.2760 0.2450 0.0085
C13_2 C 0.2937(2) 0.1745(2) 0.0666(2)
C14_2 C 0.3040(3) 0.1129(2) 0.0702(2)
H5_2 H 0.3105 0.0936 0.1084
C15_2 C 0.3045(3) 0.0793(2) 0.0163(2)
N2_2 N 0.3074(3) 0.0132(2) 0.02385(18)
Fe19_2 Fe 0.32042(3) 0.19658(3) 0.26070(3)
O7_2 O 0.25439(15) 0.24954(15) 0.89302(14)
O8_2 O 0.29655(17) 0.16601(16) 0.85077(13)
C9_2 C 0.2785(2) 0.1978(2) 0.89576(19)
C12_2 C 0.2867(2) 0.1692(2) 0.9573(2)
C16_2 C 0.2970(3) 0.1068(2) 0.9596(2)
H6_2 H 0.2989 0.0834 0.9233
O12_2 O 0.23803(18) 0.37074(17) 0.88578(16)
Fe10_2 Fe 0.30342(3) 0.17958(3) 0.76070(3)
O44_2 O 0.22639(17) 0.37405(15) 0.76305(15)
O49_2 O 0.32916(14) 0.31914(16) 0.81427(17)
H27_2 H 0.27781 0.371618 0.907296
H28_2 H 0.230673 0.410774 0.86605
O2_2 O 0.23803(18) 0.62926(17) 0.11422(16)
O3_2 O 0.25439(15) 0.75046(15) 0.10698(14)
O4_2 O 0.29655(17) 0.83399(16) 0.14923(13)
C1_2 C 0.2785(2) 0.8022(2) 0.10424(19)
C4_2 C 0.2867(2) 0.8308(2) 0.0427(2)
C8_2 C 0.2970(3) 0.8932(2) 0.0404(2)
H3_2 H 0.2989 0.9166 0.0767
Fe9_2 Fe 0.30342(3) 0.82042(3) 0.23930(3)
O43_2 O 0.22639(17) 0.62595(15) 0.23695(15)
O50_2 O 0.32916(14) 0.68086(16) 0.18573(17)
H25_2 H 0.27781 0.628382 0.0927036
H26_2 H 0.230673 0.589226 0.13395
O5_2 O 0.27361(17) 0.73695(15) 0.87405(15)
O6_2 O 0.31427(17) 0.81914(16) 0.82916(14)
C2_2 C 0.2938(2) 0.7912(2) 0.87465(19)
C3_2 C 0.2842(2) 0.7975(2) 0.9897(2)
H1_2 H 0.2760 0.7550 0.9915
C5_2 C 0.2937(2) 0.8255(2) 0.9334(2)
C6_2 C 0.3040(3) 0.8871(2) 0.9298(2)
H2_2 H 0.3105 0.9064 0.8916
C7_2 C 0.3045(3) 0.9207(2) 0.9837(2)
N1_2 N 0.3074(3) 0.9868(2) 0.97615(18)
Fe20_2 Fe 0.32042(3) 0.80342(3) 0.73930(3)
O29_2 O 0.26305(15) 0.12595(15) 0.27361(17)
O30_2 O 0.18086(16) 0.17084(14) 0.31427(17)
C42_2 C 0.2088(2) 0.12535(19) 0.2938(2)
C43_2 C 0.2025(2) 0.0103(2) 0.2842(2)
H16_2 H 0.2450 0.0085 0.2760
C45_2 C 0.1745(2) 0.0666(2) 0.2937(2)
C46_2 C 0.1129(2) 0.0702(2) 0.3040(3)
H17_2 H 0.0936 0.1084 0.3105
C47_2 C 0.0793(2) 0.0163(2) 0.3045(3)
N6_2 N 0.0132(2) 0.02385(18) 0.3074(3)
O13_2 O 0.37074(17) 0.11422(16) 0.76197(18)
O14_2 O 0.24954(15) 0.10698(14) 0.74561(15)
C17_2 C 0.1978(2) 0.10424(19) 0.7215(2)
C20_2 C 0.1692(2) 0.0427(2) 0.7133(2)
C24_2 C 0.1068(2) 0.0404(2) 0.7030(3)
H9_2 H 0.0834 0.0767 0.7011
O40_2 O 0.37405(15) 0.23695(15) 0.77361(17)
O48_2 O 0.31914(16) 0.18573(17) 0.67084(14)
H23_2 H 0.371618 0.0927036 0.72219
H24_2 H 0.410774 0.13395 0.769327
O27_2 O 0.24954(15) 0.89302(14) 0.25439(15)
C41_2 C 0.1978(2) 0.89576(19) 0.2785(2)
C44_2 C 0.1692(2) 0.9573(2) 0.2867(2)
C48_2 C 0.1068(2) 0.9596(2) 0.2970(3)
H18_2 H 0.0834 0.9233 0.2989
O31_2 O 0.37074(17) 0.88578(16) 0.23803(18)
O39_2 O 0.37405(15) 0.76305(15) 0.22639(17)
O46_2 O 0.31914(16) 0.81427(17) 0.32916(14)
H19_2 H 0.371618 0.907296 0.27781
H20_2 H 0.410774 0.86605 0.230673
O16_2 O 0.26305(15) 0.87405(15) 0.72639(17)
O17_2 O 0.18086(16) 0.82916(14) 0.68573(17)
C18_2 C 0.2088(2) 0.87465(19) 0.7062(2)
C19_2 C 0.2025(2) 0.9897(2) 0.7158(2)
H7_2 H 0.2450 0.9915 0.7240
C21_2 C 0.1745(2) 0.9334(2) 0.7063(2)
C22_2 C 0.1129(2) 0.9298(2) 0.6960(3)
H8_2 H 0.0936 0.8916 0.6895
C23_2 C 0.0793(2) 0.9837(2) 0.6955(3)
N3_2 N 0.0132(2) 0.97615(18) 0.6926(3)
O22_2 O 0.62926(17) 0.11422(16) 0.23803(18)
O23_2 O 0.75046(15) 0.10698(14) 0.25439(15)
C33_2 C 0.8022(2) 0.10424(19) 0.2785(2)
C36_2 C 0.8308(2) 0.0427(2) 0.2867(2)
C40_2 C 0.8932(2) 0.0404(2) 0.2970(3)
H15_2 H 0.9166 0.0767 0.2989
O42_2 O 0.62595(15) 0.23695(15) 0.22639(17)
O45_2 O 0.68086(16) 0.18573(17) 0.32916(14)
H29_2 H 0.628382 0.0927036 0.27781
H30_2 H 0.589226 0.13395 0.230673
O20_2 O 0.73695(15) 0.12595(15) 0.72639(17)
O21_2 O 0.81914(16) 0.17084(14) 0.68573(17)
C26_2 C 0.7912(2) 0.12535(19) 0.7062(2)
C27_2 C 0.7975(2) 0.0103(2) 0.7158(2)
H10_2 H 0.7550 0.0085 0.7240
C29_2 C 0.8255(2) 0.0666(2) 0.7063(2)
C30_2 C 0.8871(2) 0.0702(2) 0.6960(3)
H11_2 H 0.9064 0.1084 0.6895
C31_2 C 0.9207(2) 0.0163(2) 0.6955(3)
N4_2 N 0.9868(2) 0.02385(18) 0.6926(3)
O25_2 O 0.73695(15) 0.87405(15) 0.27361(17)
O26_2 O 0.81914(16) 0.82916(14) 0.31427(17)
C34_2 C 0.7912(2) 0.87465(19) 0.2938(2)
C35_2 C 0.7975(2) 0.9897(2) 0.2842(2)
H13_2 H 0.7550 0.9915 0.2760
C37_2 C 0.8255(2) 0.9334(2) 0.2937(2)
C38_2 C 0.8871(2) 0.9298(2) 0.3040(3)
H14_2 H 0.9064 0.8916 0.3105
C39_2 C 0.9207(2) 0.9837(2) 0.3045(3)
N5_2 N 0.9868(2) 0.97615(18) 0.3074(3)
O18_2 O 0.75046(15) 0.89302(14) 0.74561(15)
C25_2 C 0.8022(2) 0.89576(19) 0.7215(2)
C28_2 C 0.8308(2) 0.9573(2) 0.7133(2)
C32_2 C 0.8932(2) 0.9596(2) 0.7030(3)
H12_2 H 0.9166 0.9233 0.7011
O32_2 O 0.62926(17) 0.88578(16) 0.76197(18)
O41_2 O 0.62595(15) 0.76305(15) 0.77361(17)
O47_2 O 0.68086(16) 0.81427(17) 0.67084(14)
H21_2 H 0.628382 0.907296 0.72219
H22_2 H 0.589226 0.86605 0.769327
O1_2 O 0.74046(14) 0.25954(14) 0.74046(14)
O2_3 O 0.87074(17) 0.26197(18) 0.61422(16)
O3_3 O 0.74954(15) 0.24561(15) 0.60698(14)
O4_3 O 0.66601(16) 0.20345(17) 0.64923(13)
C1_3 C 0.6978(2) 0.2215(2) 0.60424(19)
C2_3 C 0.7088(2) 0.2062(2) 0.37465(19)
C3_3 C 0.7025(2) 0.2158(2) 0.4897(2)
H1_3 H 0.7450 0.2240 0.4915
C4_3 C 0.6692(2) 0.2133(2) 0.5427(2)
C5_3 C 0.6745(2) 0.2063(2) 0.4334(2)
C6_3 C 0.6129(2) 0.1960(3) 0.4298(2)
H2_3 H 0.5936 0.1895 0.3916
C7_3 C 0.5793(2) 0.1955(3) 0.4837(2)
C8_3 C 0.6068(2) 0.2030(3) 0.5404(2)
H3_3 H 0.5834 0.2011 0.5767
N1_3 N 0.5132(2) 0.1926(3) 0.47615(18)
O7_3 O 0.25046(15) 0.24561(15) 0.39302(14)
O8_3 O 0.33399(16) 0.20345(17) 0.35077(13)
C9_3 C 0.3022(2) 0.2215(2) 0.39576(19)
C10_3 C 0.2912(2) 0.2062(2) 0.62535(19)
C11_3 C 0.2975(2) 0.2158(2) 0.5103(2)
H4_3 H 0.2550 0.2240 0.5085
C12_3 C 0.3308(2) 0.2133(2) 0.4573(2)
C13_3 C 0.3255(2) 0.2063(2) 0.5666(2)
C14_3 C 0.3871(2) 0.1960(3) 0.5702(2)
H5_3 H 0.4064 0.1895 0.6084
C15_3 C 0.4207(2) 0.1955(3) 0.5163(2)
C16_3 C 0.3932(2) 0.2030(3) 0.4596(2)
H6_3 H 0.4166 0.2011 0.4233
N2_3 N 0.4868(2) 0.1926(3) 0.52385(18)
O11_2 O 0.25954(14) 0.25954(14) 0.25954(14)
O12_3 O 0.12926(17) 0.26197(18) 0.38578(16)
O13_3 O 0.26197(18) 0.61422(16) 0.87074(17)
O14_3 O 0.24561(15) 0.60698(14) 0.74954(15)
O15_2 O 0.20345(17) 0.64923(13) 0.66601(16)
C17_3 C 0.2215(2) 0.60424(19) 0.6978(2)
C18_3 C 0.2062(2) 0.37465(19) 0.7088(2)
C19_3 C 0.2158(2) 0.4897(2) 0.7025(2)
H7_3 H 0.2240 0.4915 0.7450
C20_3 C 0.2133(2) 0.5427(2) 0.6692(2)
C21_3 C 0.2063(2) 0.4334(2) 0.6745(2)
C22_3 C 0.1960(3) 0.4298(2) 0.6129(2)
H8_3 H 0.1895 0.3916 0.5936
C23_3 C 0.1955(3) 0.4837(2) 0.5793(2)
C24_3 C 0.2030(3) 0.5404(2) 0.6068(2)
H9_3 H 0.2011 0.5767 0.5834
N3_3 N 0.1926(3) 0.47615(18) 0.5132(2)
O18_3 O 0.24561(15) 0.39302(14) 0.25046(15)
O19_2 O 0.20345(17) 0.35077(13) 0.33399(16)
C25_3 C 0.2215(2) 0.39576(19) 0.3022(2)
C26_3 C 0.2062(2) 0.62535(19) 0.2912(2)
C27_3 C 0.2158(2) 0.5103(2) 0.2975(2)
H10_3 H 0.2240 0.5085 0.2550
C28_3 C 0.2133(2) 0.4573(2) 0.3308(2)
C29_3 C 0.2063(2) 0.5666(2) 0.3255(2)
C30_3 C 0.1960(3) 0.5702(2) 0.3871(2)
H11_3 H 0.1895 0.6084 0.4064
C31_3 C 0.1955(3) 0.5163(2) 0.4207(2)
C32_3 C 0.2030(3) 0.4596(2) 0.3932(2)
H12_3 H 0.2011 0.4233 0.4166
N4_3 N 0.1926(3) 0.52385(18) 0.4868(2)
O22_3 O 0.73803(18) 0.61422(16) 0.12926(17)
O23_3 O 0.75439(15) 0.60698(14) 0.25046(15)
O24_2 O 0.79655(17) 0.64923(13) 0.33399(16)
C33_3 C 0.7785(2) 0.60424(19) 0.3022(2)
C34_3 C 0.7938(2) 0.37465(19) 0.2912(2)
C35_3 C 0.7842(2) 0.4897(2) 0.2975(2)
H13_3 H 0.7760 0.4915 0.2550
C36_3 C 0.7867(2) 0.5427(2) 0.3308(2)
C37_3 C 0.7937(2) 0.4334(2) 0.3255(2)
C38_3 C 0.8040(3) 0.4298(2) 0.3871(2)
H14_3 H 0.8105 0.3916 0.4064
C39_3 C 0.8045(3) 0.4837(2) 0.4207(2)
C40_3 C 0.7970(3) 0.5404(2) 0.3932(2)
H15_3 H 0.7989 0.5767 0.4166
N5_3 N 0.8074(3) 0.47615(18) 0.4868(2)
O27_3 O 0.75439(15) 0.39302(14) 0.74954(15)
O28_2 O 0.79655(17) 0.35077(13) 0.66601(16)
C41_3 C 0.7785(2) 0.39576(19) 0.6978(2)
C42_3 C 0.7938(2) 0.62535(19) 0.7088(2)
C43_3 C 0.7842(2) 0.5103(2) 0.7025(2)
H16_3 H 0.7760 0.5085 0.7450
C44_3 C 0.7867(2) 0.4573(2) 0.6692(2)
C45_3 C 0.7937(2) 0.5666(2) 0.6745(2)
C46_3 C 0.8040(3) 0.5702(2) 0.6129(2)
H17_3 H 0.8105 0.6084 0.5936
C47_3 C 0.8045(3) 0.5163(2) 0.5793(2)
C48_3 C 0.7970(3) 0.4596(2) 0.6068(2)
H18_3 H 0.7989 0.4233 0.5834
N6_3 N 0.8074(3) 0.52385(18) 0.5132(2)
O31_3 O 0.73803(18) 0.38578(16) 0.87074(17)
O32_3 O 0.26197(18) 0.38578(16) 0.12926(17)
O33_2 O 0.25954(14) 0.74046(14) 0.74046(14)
O34_2 O 0.74046(14) 0.74046(14) 0.25954(14)
O35_2 O 0.64923(13) 0.66601(16) 0.20345(17)
O36_2 O 0.64923(13) 0.33399(16) 0.79655(17)
O37_2 O 0.35077(13) 0.66601(16) 0.79655(17)
O38_2 O 0.35077(13) 0.33399(16) 0.20345(17)
H19_3 H 0.77781 0.407296 0.871618
H20_3 H 0.730673 0.36605 0.910774
H21_3 H 0.22219 0.407296 0.128382
H22_3 H 0.269327 0.36605 0.0892259
H23_3 H 0.22219 0.592704 0.871618
H24_3 H 0.269327 0.63395 0.910774
H25_3 H 0.871618 0.22219 0.592704
H26_3 H 0.910774 0.269327 0.63395
H27_3 H 0.128382 0.22219 0.407296
H28_3 H 0.0892259 0.269327 0.36605
H29_3 H 0.77781 0.592704 0.128382
H30_3 H 0.730673 0.63395 0.0892259
O2_4 O 0.12926(17) 0.73803(18) 0.61422(16)
O3_4 O 0.25046(15) 0.75439(15) 0.60698(14)
O4_4 O 0.33399(16) 0.79655(17) 0.64923(13)
C1_4 C 0.3022(2) 0.7785(2) 0.60424(19)
C2_4 C 0.2912(2) 0.7938(2) 0.37465(19)
C3_4 C 0.2975(2) 0.7842(2) 0.4897(2)
H1_4 H 0.2550 0.7760 0.4915
C4_4 C 0.3308(2) 0.7867(2) 0.5427(2)
C5_4 C 0.3255(2) 0.7937(2) 0.4334(2)
C6_4 C 0.3871(2) 0.8040(3) 0.4298(2)
H2_4 H 0.4064 0.8105 0.3916
C7_4 C 0.4207(2) 0.8045(3) 0.4837(2)
C8_4 C 0.3932(2) 0.7970(3) 0.5404(2)
H3_4 H 0.4166 0.7989 0.5767
N1_4 N 0.4868(2) 0.8074(3) 0.47615(18)
O7_4 O 0.74954(15) 0.75439(15) 0.39302(14)
O8_4 O 0.66601(16) 0.79655(17) 0.35077(13)
C9_4 C 0.6978(2) 0.7785(2) 0.39576(19)
C10_4 C 0.7088(2) 0.7938(2) 0.62535(19)
C11_4 C 0.7025(2) 0.7842(2) 0.5103(2)
H4_4 H 0.7450 0.7760 0.5085
C12_4 C 0.6692(2) 0.7867(2) 0.4573(2)
C13_4 C 0.6745(2) 0.7937(2) 0.5666(2)
C14_4 C 0.6129(2) 0.8040(3) 0.5702(2)
H5_4 H 0.5936 0.8105 0.6084
C15_4 C 0.5793(2) 0.8045(3) 0.5163(2)
C16_4 C 0.6068(2) 0.7970(3) 0.4596(2)
H6_4 H 0.5834 0.7989 0.4233
N2_4 N 0.5132(2) 0.8074(3) 0.52385(18)
O12_4 O 0.87074(17) 0.73803(18) 0.38578(16)
H25_4 H 0.128382 0.77781 0.592704
H26_4 H 0.0892259 0.730673 0.63395
H27_4 H 0.871618 0.77781 0.407296
H28_4 H 0.910774 0.730673 0.36605
O13_4 O 0.61422(16) 0.87074(17) 0.26197(18)
O14_4 O 0.60698(14) 0.74954(15) 0.24561(15)
C17_4 C 0.60424(19) 0.6978(2) 0.2215(2)
C18_4 C 0.37465(19) 0.7088(2) 0.2062(2)
C19_4 C 0.4897(2) 0.7025(2) 0.2158(2)
H7_4 H 0.4915 0.7450 0.2240
C20_4 C 0.5427(2) 0.6692(2) 0.2133(2)
C21_4 C 0.4334(2) 0.6745(2) 0.2063(2)
C22_4 C 0.4298(2) 0.6129(2) 0.1960(3)
H8_4 H 0.3916 0.5936 0.1895
C23_4 C 0.4837(2) 0.5793(2) 0.1955(3)
C24_4 C 0.5404(2) 0.6068(2) 0.2030(3)
H9_4 H 0.5767 0.5834 0.2011
N3_4 N 0.47615(18) 0.5132(2) 0.1926(3)
O18_4 O 0.39302(14) 0.25046(15) 0.24561(15)
C25_4 C 0.39576(19) 0.3022(2) 0.2215(2)
C26_4 C 0.62535(19) 0.2912(2) 0.2062(2)
C27_4 C 0.5103(2) 0.2975(2) 0.2158(2)
H10_4 H 0.5085 0.2550 0.2240
C28_4 C 0.4573(2) 0.3308(2) 0.2133(2)
C29_4 C 0.5666(2) 0.3255(2) 0.2063(2)
C30_4 C 0.5702(2) 0.3871(2) 0.1960(3)
H11_4 H 0.6084 0.4064 0.1895
C31_4 C 0.5163(2) 0.4207(2) 0.1955(3)
C32_4 C 0.4596(2) 0.3932(2) 0.2030(3)
H12_4 H 0.4233 0.4166 0.2011
N4_4 N 0.52385(18) 0.4868(2) 0.1926(3)
O22_4 O 0.61422(16) 0.12926(17) 0.73803(18)
O23_4 O 0.60698(14) 0.25046(15) 0.75439(15)
C33_4 C 0.60424(19) 0.3022(2) 0.7785(2)
C34_4 C 0.37465(19) 0.2912(2) 0.7938(2)
C35_4 C 0.4897(2) 0.2975(2) 0.7842(2)
H13_4 H 0.4915 0.2550 0.7760
C36_4 C 0.5427(2) 0.3308(2) 0.7867(2)
C37_4 C 0.4334(2) 0.3255(2) 0.7937(2)
C38_4 C 0.4298(2) 0.3871(2) 0.8040(3)
H14_4 H 0.3916 0.4064 0.8105
C39_4 C 0.4837(2) 0.4207(2) 0.8045(3)
C40_4 C 0.5404(2) 0.3932(2) 0.7970(3)
H15_4 H 0.5767 0.4166 0.7989
N5_4 N 0.47615(18) 0.4868(2) 0.8074(3)
O27_4 O 0.39302(14) 0.74954(15) 0.75439(15)
C41_4 C 0.39576(19) 0.6978(2) 0.7785(2)
C42_4 C 0.62535(19) 0.7088(2) 0.7938(2)
C43_4 C 0.5103(2) 0.7025(2) 0.7842(2)
H16_4 H 0.5085 0.7450 0.7760
C44_4 C 0.4573(2) 0.6692(2) 0.7867(2)
C45_4 C 0.5666(2) 0.6745(2) 0.7937(2)
C46_4 C 0.5702(2) 0.6129(2) 0.8040(3)
H17_4 H 0.6084 0.5936 0.8105
C47_4 C 0.5163(2) 0.5793(2) 0.8045(3)
C48_4 C 0.4596(2) 0.6068(2) 0.7970(3)
H18_4 H 0.4233 0.5834 0.7989
N6_4 N 0.52385(18) 0.5132(2) 0.8074(3)
O31_4 O 0.38578(16) 0.87074(17) 0.73803(18)
O32_4 O 0.38578(16) 0.12926(17) 0.26197(18)
H19_4 H 0.407296 0.871618 0.77781
H20_4 H 0.36605 0.910774 0.730673
H21_4 H 0.407296 0.128382 0.22219
H22_4 H 0.36605 0.0892259 0.269327
H23_4 H 0.592704 0.871618 0.22219
H24_4 H 0.63395 0.910774 0.269327
H29_4 H 0.592704 0.128382 0.77781
H30_4 H 0.63395 0.0892259 0.730673
N7 N 0.8824(7) 0.1176(7) 0.1176(7)
O51 O 0.8449(11) 0.0665(9) 0.1278(13)
O52 O 0.8722(13) 0.1551(11) 0.0665(9)
O53 O 0.9335(9) 0.1278(13) 0.1551(11)
N7_2 N 0.1176(7) 0.8824(7) 0.1176(7)
O51_2 O 0.1551(11) 0.9335(9) 0.1278(13)
O52_2 O 0.1278(13) 0.8449(11) 0.0665(9)
O53_2 O 0.0665(9) 0.8722(13) 0.1551(11)
N7_3 N 0.1176(7) 0.1176(7) 0.8824(7)
O51_3 O 0.1551(11) 0.0665(9) 0.8722(13)
O52_3 O 0.1278(13) 0.1551(11) 0.9335(9)
O53_3 O 0.0665(9) 0.1278(13) 0.8449(11)
N7_4 N 0.8824(7) 0.8824(7) 0.8824(7)
O51_4 O 0.8449(11) 0.9335(9) 0.8722(13)
O52_4 O 0.8722(13) 0.8449(11) 0.9335(9)
O53_4 O 0.9335(9) 0.8722(13) 0.8449(11)
N7_5 N 0.6176(7) 0.3824(7) 0.6176(7)
O51_5 O 0.5665(9) 0.3449(11) 0.6278(13)
O52_5 O 0.6551(11) 0.3722(13) 0.5665(9)
O53_5 O 0.6278(13) 0.4335(9) 0.6551(11)
N7_6 N 0.3824(7) 0.6176(7) 0.6176(7)
O51_6 O 0.4335(9) 0.6551(11) 0.6278(13)
O52_6 O 0.3449(11) 0.6278(13) 0.5665(9)
O53_6 O 0.3722(13) 0.5665(9) 0.6551(11)
N7_7 N 0.6176(7) 0.6176(7) 0.3824(7)
O51_7 O 0.5665(9) 0.6551(11) 0.3722(13)
O52_7 O 0.6551(11) 0.6278(13) 0.4335(9)
O53_7 O 0.6278(13) 0.5665(9) 0.3449(11)
N7_8 N 0.3824(7) 0.3824(7) 0.3824(7)
O51_8 O 0.4335(9) 0.3449(11) 0.3722(13)
O52_8 O 0.3449(11) 0.3722(13) 0.4335(9)
O53_8 O 0.3722(13) 0.4335(9) 0.3449(11)
loop_
_geom_bond_atom_site_label_1
_geom_bond_atom_site_label_2
_geom_bond_site_symmetry_1
_geom_bond_site_symmetry_2
O29 C42 1_555 1_555
O30 C42 1_555 1_555
C42 C45 1_555 1_555
C43 H16 1_555 1_555
C45 C43 1_555 1_555
C46 C45 1_555 1_555
H17 C46 1_555 1_555
C47 C46 1_555 1_555
Fe14 O29 1_555 1_555
Fe18 O30 1_555 1_555
C47 N6 1_555 1_555
Fe4 O22 1_555 1_555
O23 Fe4 1_555 1_555
O24 C33 1_555 1_555
C33 O23 1_555 1_555
C36 C33 1_555 1_555
C40 C36 1_555 1_555
H15 C40 1_555 1_555
Fe8 O24 1_555 1_555
O34 Fe4 1_555 1_555
O35 Fe4 1_555 1_555
O42 Fe4 1_555 1_555
O45 Fe4 1_555 1_555
Fe8 O34 1_555 1_555
O22 H29 1_555 1_555
O22 H30 1_555 1_555
Fe3 O13 1_555 1_555
O14 Fe3 1_555 1_555
O15 C17 1_555 1_555
C17 O14 1_555 1_555
C20 C17 1_555 1_555
C24 C20 1_555 1_555
H9 C24 1_555 1_555
Fe7 O15 1_555 1_555
O33 Fe3 1_555 1_555
O37 Fe3 1_555 1_555
O40 Fe3 1_555 1_555
O48 Fe3 1_555 1_555
Fe7 O33 1_555 1_555
O13 H23 1_555 1_555
O13 H24 1_555 1_555
O20 C26 1_555 1_555
O21 C26 1_555 1_555
C26 C29 1_555 1_555
C27 H10 1_555 1_555
C29 C27 1_555 1_555
C30 C29 1_555 1_555
H11 C30 1_555 1_555
C31 C30 1_555 1_555
Fe12 O20 1_555 1_555
Fe15 O21 1_555 1_555
C31 N4 1_555 1_555
Fe1 O1 1_555 1_555
O1 Fe5 1_555 1_555
O2 Fe1 1_555 1_555
O3 Fe1 1_555 1_555
O4 C1 1_555 1_555
C1 O3 1_555 1_555
C4 C1 1_555 1_555
C8 C4 1_555 1_555
H3 C8 1_555 1_555
O27 C41 1_555 1_555
O28 Fe1 1_555 1_555
C41 O28 1_555 1_555
C44 C41 1_555 1_555
C48 C44 1_555 1_555
H18 C48 1_555 1_555
Fe5 O27 1_555 1_555
O31 Fe5 1_555 1_555
Fe9 O1 1_555 1_555
O36 Fe5 1_555 1_555
O39 Fe5 1_555 1_555
O43 Fe1 1_555 1_555
O46 Fe5 1_555 1_555
O50 Fe1 1_555 1_555
O4 Fe9 1_555 1_555
O31 H19 1_555 1_555
O31 H20 1_555 1_555
O2 H25 1_555 1_555
O2 H26 1_555 1_555
O5 C2 1_555 1_555
O6 C2 1_555 1_555
C2 C5 1_555 1_555
C3 H1 1_555 1_555
C5 C3 1_555 1_555
C6 C5 1_555 1_555
H2 C6 1_555 1_555
C7 C6 1_555 1_555
N1 C7 1_555 1_555
O25 C34 1_555 1_555
O26 C34 1_555 1_555
C34 C37 1_555 1_555
C35 H13 1_555 1_555
C37 C35 1_555 1_555
C38 C37 1_555 1_555
H14 C38 1_555 1_555
C39 C38 1_555 1_555
N5 C39 1_555 1_555
Fe11 O25 1_555 1_555
Fe17 O5 1_555 1_555
Fe20 O6 1_555 1_555
O26 Fe17 1_555 1_555
O9 C10 1_555 1_555
O10 C10 1_555 1_555
C10 C13 1_555 1_555
C11 H4 1_555 1_555
C13 C11 1_555 1_555
C14 C13 1_555 1_555
H5 C14 1_555 1_555
C15 C14 1_555 1_555
O16 C18 1_555 1_555
O17 C18 1_555 1_555
C18 C21 1_555 1_555
C19 H7 1_555 1_555
C21 C19 1_555 1_555
C22 C21 1_555 1_555
H8 C22 1_555 1_555
C23 C22 1_555 1_555
N3 C23 1_555 1_555
Fe13 O16 1_555 1_555
Fe16 O9 1_555 1_555
Fe19 O10 1_555 1_555
C15 N2 1_555 1_555
O17 Fe16 1_555 1_555
O7 C9 1_555 1_555
O8 C9 1_555 1_555
C9 C12 1_555 1_555
C16 C12 1_555 1_555
H6 C16 1_555 1_555
Fe2 O7 1_555 1_555
O11 Fe2 1_555 1_555
O12 Fe2 1_555 1_555
O18 C25 1_555 1_555
O19 Fe2 1_555 1_555
C25 O19 1_555 1_555
C28 C25 1_555 1_555
C32 C28 1_555 1_555
H12 C32 1_555 1_555
Fe6 O11 1_555 1_555
O32 Fe6 1_555 1_555
Fe10 O8 1_555 1_555
O38 Fe6 1_555 1_555
O41 Fe6 1_555 1_555
O44 Fe2 1_555 1_555
O47 Fe6 1_555 1_555
O49 Fe2 1_555 1_555
O11 Fe10 1_555 1_555
O18 Fe6 1_555 1_555
O32 H21 1_555 1_555
O32 H22 1_555 1_555
O12 H27 1_555 1_555
O12 H28 1_555 1_555
O9_2 C10_2 1_555 1_555
O10_2 C10_2 1_555 1_555
C10_2 C13_2 1_555 1_555
C11_2 H4_2 1_555 1_555
C13_2 C11_2 1_555 1_555
C14_2 C13_2 1_555 1_555
H5_2 C14_2 1_555 1_555
C15_2 C14_2 1_555 1_555
Fe18 O9_2 1_555 1_555
Fe19_2 O10_2 1_555 1_555
C15_2 N2_2 1_555 1_555
O7_2 C9_2 1_555 1_555
O8_2 C9_2 1_555 1_555
C9_2 C12_2 1_555 1_555
C16_2 C12_2 1_555 1_555
H6_2 C16_2 1_555 1_555
Fe8 O7_2 1_555 1_555
O12_2 Fe8 1_555 1_555
Fe10_2 O8_2 1_555 1_555
O44_2 Fe8 1_555 1_555
O49_2 Fe8 1_555 1_555
O34 Fe10_2 1_555 1_555
O12_2 H27_2 1_555 1_555
O12_2 H28_2 1_555 1_555
O2_2 Fe7 1_555 1_555
O3_2 Fe7 1_555 1_555
O4_2 C1_2 1_555 1_555
C1_2 O3_2 1_555 1_555
C4_2 C1_2 1_555 1_555
C8_2 C4_2 1_555 1_555
H3_2 C8_2 1_555 1_555
Fe9_2 O33 1_555 1_555
O43_2 Fe7 1_555 1_555
O50_2 Fe7 1_555 1_555
O4_2 Fe9_2 1_555 1_555
O2_2 H25_2 1_555 1_555
O2_2 H26_2 1_555 1_555
O5_2 C2_2 1_555 1_555
O6_2 C2_2 1_555 1_555
C2_2 C5_2 1_555 1_555
C3_2 H1_2 1_555 1_555
C5_2 C3_2 1_555 1_555
C6_2 C5_2 1_555 1_555
H2_2 C6_2 1_555 1_555
C7_2 C6_2 1_555 1_555
N1_2 C7_2 1_555 1_555
Fe15 O5_2 1_555 1_555
Fe20_2 O6_2 1_555 1_555
O29_2 C42_2 1_555 1_555
O30_2 C42_2 1_555 1_555
C42_2 C45_2 1_555 1_555
C43_2 H16_2 1_555 1_555
C45_2 C43_2 1_555 1_555
C46_2 C45_2 1_555 1_555
H17_2 C46_2 1_555 1_555
C47_2 C46_2 1_555 1_555
Fe19_2 O29_2 1_555 1_555
Fe14 O30_2 1_555 1_555
C47_2 N6_2 1_555 1_555
Fe10_2 O13_2 1_555 1_555
O14_2 Fe10_2 1_555 1_555
O35 C17_2 1_555 1_555
C17_2 O14_2 1_555 1_555
C20_2 C17_2 1_555 1_555
C24_2 C20_2 1_555 1_555
H9_2 C24_2 1_555 1_555
O40_2 Fe10_2 1_555 1_555
O48_2 Fe10_2 1_555 1_555
O13_2 H23_2 1_555 1_555
O13_2 H24_2 1_555 1_555
O27_2 C41_2 1_555 1_555
C41_2 O37 1_555 1_555
C44_2 C41_2 1_555 1_555
C48_2 C44_2 1_555 1_555
H18_2 C48_2 1_555 1_555
Fe9_2 O27_2 1_555 1_555
O31_2 Fe9_2 1_555 1_555
O39_2 Fe9_2 1_555 1_555
O46_2 Fe9_2 1_555 1_555
O31_2 H19_2 1_555 1_555
O31_2 H20_2 1_555 1_555
O16_2 C18_2 1_555 1_555
O17_2 C18_2 1_555 1_555
C18_2 C21_2 1_555 1_555
C19_2 H7_2 1_555 1_555
C21_2 C19_2 1_555 1_555
C22_2 C21_2 1_555 1_555
H8_2 C22_2 1_555 1_555
C23_2 C22_2 1_555 1_555
N3_2 C23_2 1_555 1_555
Fe20_2 O16_2 1_555 1_555
O17_2 Fe12 1_555 1_555
Fe9 O22_2 1_555 1_555
O23_2 Fe9 1_555 1_555
O36 C33_2 1_555 1_555
C33_2 O23_2 1_555 1_555
C36_2 C33_2 1_555 1_555
C40_2 C36_2 1_555 1_555
H15_2 C40_2 1_555 1_555
O42_2 Fe9 1_555 1_555
O45_2 Fe9 1_555 1_555
O22_2 H29_2 1_555 1_555
O22_2 H30_2 1_555 1_555
O20_2 C26_2 1_555 1_555
O21_2 C26_2 1_555 1_555
C26_2 C29_2 1_555 1_555
C27_2 H10_2 1_555 1_555
C29_2 C27_2 1_555 1_555
C30_2 C29_2 1_555 1_555
H11_2 C30_2 1_555 1_555
C31_2 C30_2 1_555 1_555
Fe20 O20_2 1_555 1_555
Fe11 O21_2 1_555 1_555
C31_2 N4_2 1_555 1_555
O25_2 C34_2 1_555 1_555
O26_2 C34_2 1_555 1_555
C34_2 C37_2 1_555 1_555
C35_2 H13_2 1_555 1_555
C37_2 C35_2 1_555 1_555
C38_2 C37_2 1_555 1_555
H14_2 C38_2 1_555 1_555
C39_2 C38_2 1_555 1_555
N5_2 C39_2 1_555 1_555
Fe19 O25_2 1_555 1_555
O26_2 Fe13 1_555 1_555
O18_2 C25_2 1_555 1_555
C25_2 O38 1_555 1_555
C28_2 C25_2 1_555 1_555
C32_2 C28_2 1_555 1_555
H12_2 C32_2 1_555 1_555
O32_2 Fe10 1_555 1_555
O41_2 Fe10 1_555 1_555
O47_2 Fe10 1_555 1_555
O18_2 Fe10 1_555 1_555
O32_2 H21_2 1_555 1_555
O32_2 H22_2 1_555 1_555
Fe11 O1_2 1_555 1_555
O1_2 Fe17 1_555 1_555
O2_3 Fe11 1_555 1_555
O3_3 Fe11 1_555 1_555
O4_3 C1_3 1_555 1_555
O39 C2_3 1_555 1_555
O45_2 C2_3 1_555 1_555
C1_3 O3_3 1_555 1_555
C2_3 C5_3 1_555 1_555
C3_3 H1_3 1_555 1_555
C4_3 C1_3 1_555 1_555
C5_3 C3_3 1_555 1_555
C6_3 C5_3 1_555 1_555
H2_3 C6_3 1_555 1_555
C7_3 C6_3 1_555 1_555
C8_3 C4_3 1_555 1_555
H3_3 C8_3 1_555 1_555
N1_3 C7_3 1_555 1_555
O7_3 C9_3 1_555 1_555
O8_3 C9_3 1_555 1_555
O42 C10_3 1_555 1_555
O48_2 C10_3 1_555 1_555
C9_3 C12_3 1_555 1_555
C10_3 C13_3 1_555 1_555
C11_3 H4_3 1_555 1_555
C12_3 C11_3 1_555 1_555
C13_3 C11_3 1_555 1_555
C14_3 C13_3 1_555 1_555
H5_3 C14_3 1_555 1_555
C15_3 C14_3 1_555 1_555
C16_3 C12_3 1_555 1_555
H6_3 C16_3 1_555 1_555
N2_3 N1_3 1_555 1_555
Fe14 O7_3 1_555 1_555
O11_2 Fe14 1_555 1_555
O12_3 Fe14 1_555 1_555
Fe15 O13_3 1_555 1_555
O14_3 Fe15 1_555 1_555
O15_2 C17_3 1_555 1_555
O44_2 C18_3 1_555 1_555
O45 C18_3 1_555 1_555
C17_3 O14_3 1_555 1_555
C18_3 C21_3 1_555 1_555
C19_3 H7_3 1_555 1_555
C20_3 C17_3 1_555 1_555
C21_3 C19_3 1_555 1_555
C22_3 C21_3 1_555 1_555
H8_3 C22_3 1_555 1_555
C23_3 C22_3 1_555 1_555
C24_3 C20_3 1_555 1_555
H9_3 C24_3 1_555 1_555
N3_3 C23_3 1_555 1_555
O18_3 C25_3 1_555 1_555
O19_2 Fe14 1_555 1_555
O43_2 C26_3 1_555 1_555
O48 C26_3 1_555 1_555
C25_3 O19_2 1_555 1_555
C26_3 C29_3 1_555 1_555
C27_3 H10_3 1_555 1_555
C28_3 C25_3 1_555 1_555
C29_3 C27_3 1_555 1_555
C30_3 C29_3 1_555 1_555
H11_3 C30_3 1_555 1_555
C31_3 C30_3 1_555 1_555
C32_3 C28_3 1_555 1_555
H12_3 C32_3 1_555 1_555
N4_3 N3_3 1_555 1_555
Fe16 O22_3 1_555 1_555
O23_3 Fe16 1_555 1_555
O24_2 C33_3 1_555 1_555
O43 C34_3 1_555 1_555
O46 C34_3 1_555 1_555
C33_3 O23_3 1_555 1_555
C34_3 C37_3 1_555 1_555
C35_3 H13_3 1_555 1_555
C36_3 C33_3 1_555 1_555
C37_3 C35_3 1_555 1_555
C38_3 C37_3 1_555 1_555
H14_3 C38_3 1_555 1_555
C39_3 C38_3 1_555 1_555
C40_3 C36_3 1_555 1_555
H15_3 C40_3 1_555 1_555
N5_3 C39_3 1_555 1_555
O27_3 C41_3 1_555 1_555
O28_2 Fe11 1_555 1_555
O44 C42_3 1_555 1_555
O47 C42_3 1_555 1_555
C41_3 O28_2 1_555 1_555
C42_3 C45_3 1_555 1_555
C43_3 H16_3 1_555 1_555
C44_3 C41_3 1_555 1_555
C45_3 C43_3 1_555 1_555
C46_3 C45_3 1_555 1_555
H17_3 C46_3 1_555 1_555
C47_3 C46_3 1_555 1_555
C48_3 C44_3 1_555 1_555
H18_3 C48_3 1_555 1_555
N6_3 N5_3 1_555 1_555
Fe17 O27_3 1_555 1_555
O31_3 Fe17 1_555 1_555
Fe18 O11_2 1_555 1_555
O32_3 Fe18 1_555 1_555
Fe12 O15_2 1_555 1_555
Fe13 O24_2 1_555 1_555
Fe20 O1_2 1_555 1_555
Fe19_2 O8_3 1_555 1_555
O33_2 Fe15 1_555 1_555
O34_2 Fe16 1_555 1_555
O35_2 Fe16 1_555 1_555
O36_2 Fe17 1_555 1_555
O37_2 Fe15 1_555 1_555
O38_2 Fe18 1_555 1_555
O4_3 Fe20 1_555 1_555
C3_3 C4_3 1_555 1_555
C7_3 C8_3 1_555 1_555
C15_3 C16_3 1_555 1_555
C15_3 N2_3 1_555 1_555
O11_2 Fe19_2 1_555 1_555
C19_3 C20_3 1_555 1_555
C23_3 C24_3 1_555 1_555
O18_3 Fe18 1_555 1_555
C27_3 C28_3 1_555 1_555
C31_3 C32_3 1_555 1_555
C31_3 N4_3 1_555 1_555
C35_3 C36_3 1_555 1_555
C39_3 C40_3 1_555 1_555
C43_3 C44_3 1_555 1_555
C47_3 C48_3 1_555 1_555
C47_3 N6_3 1_555 1_555
Fe12 O33_2 1_555 1_555
Fe13 O34_2 1_555 1_555
O31_3 H19_3 1_555 1_555
O31_3 H20_3 1_555 1_555
O32_3 H21_3 1_555 1_555
O32_3 H22_3 1_555 1_555
O13_3 H23_3 1_555 1_555
O13_3 H24_3 1_555 1_555
O2_3 H25_3 1_555 1_555
O2_3 H26_3 1_555 1_555
O12_3 H27_3 1_555 1_555
O12_3 H28_3 1_555 1_555
O22_3 H29_3 1_555 1_555
O22_3 H30_3 1_555 1_555
O2_4 Fe12 1_555 1_555
O3_4 Fe12 1_555 1_555
O4_4 C1_4 1_555 1_555
O40 C2_4 1_555 1_555
O46_2 C2_4 1_555 1_555
C1_4 O3_4 1_555 1_555
C2_4 C5_4 1_555 1_555
C3_4 H1_4 1_555 1_555
C4_4 C1_4 1_555 1_555
C5_4 C3_4 1_555 1_555
C6_4 C5_4 1_555 1_555
H2_4 C6_4 1_555 1_555
C7_4 C6_4 1_555 1_555
C8_4 C4_4 1_555 1_555
H3_4 C8_4 1_555 1_555
N1_4 C7_4 1_555 1_555
O7_4 C9_4 1_555 1_555
O8_4 C9_4 1_555 1_555
O41 C10_4 1_555 1_555
O47_2 C10_4 1_555 1_555
C9_4 C12_4 1_555 1_555
C10_4 C13_4 1_555 1_555
C11_4 H4_4 1_555 1_555
C12_4 C11_4 1_555 1_555
C13_4 C11_4 1_555 1_555
C14_4 C13_4 1_555 1_555
H5_4 C14_4 1_555 1_555
C15_4 C14_4 1_555 1_555
C16_4 C12_4 1_555 1_555
H6_4 C16_4 1_555 1_555
N2_4 N1_4 1_555 1_555
Fe13 O7_4 1_555 1_555
O12_4 Fe13 1_555 1_555
Fe20_2 O33_2 1_555 1_555
Fe19 O8_4 1_555 1_555
O4_4 Fe20_2 1_555 1_555
C3_4 C4_4 1_555 1_555
C7_4 C8_4 1_555 1_555
C15_4 C16_4 1_555 1_555
C15_4 N2_4 1_555 1_555
O34_2 Fe19 1_555 1_555
O2_4 H25_4 1_555 1_555
O2_4 H26_4 1_555 1_555
O12_4 H27_4 1_555 1_555
O12_4 H28_4 1_555 1_555
Fe19 O13_4 1_555 1_555
O14_4 Fe19 1_555 1_555
O35_2 C17_4 1_555 1_555
O39_2 C18_4 1_555 1_555
O50_2 C18_4 1_555 1_555
C17_4 O14_4 1_555 1_555
C18_4 C21_4 1_555 1_555
C19_4 H7_4 1_555 1_555
C20_4 C17_4 1_555 1_555
C21_4 C19_4 1_555 1_555
C22_4 C21_4 1_555 1_555
H8_4 C22_4 1_555 1_555
C23_4 C22_4 1_555 1_555
C24_4 C20_4 1_555 1_555
H9_4 C24_4 1_555 1_555
N3_4 C23_4 1_555 1_555
O18_4 C25_4 1_555 1_555
O42_2 C26_4 1_555 1_555
O50 C26_4 1_555 1_555
C25_4 O38_2 1_555 1_555
C26_4 C29_4 1_555 1_555
C27_4 H10_4 1_555 1_555
C28_4 C25_4 1_555 1_555
C29_4 C27_4 1_555 1_555
C30_4 C29_4 1_555 1_555
H11_4 C30_4 1_555 1_555
C31_4 C30_4 1_555 1_555
C32_4 C28_4 1_555 1_555
H12_4 C32_4 1_555 1_555
N4_4 N3_4 1_555 1_555
Fe20 O22_4 1_555 1_555
O23_4 Fe20 1_555 1_555
O36_2 C33_4 1_555 1_555
O40_2 C34_4 1_555 1_555
O49_2 C34_4 1_555 1_555
C33_4 O23_4 1_555 1_555
C34_4 C37_4 1_555 1_555
C35_4 H13_4 1_555 1_555
C36_4 C33_4 1_555 1_555
C37_4 C35_4 1_555 1_555
C38_4 C37_4 1_555 1_555
H14_4 C38_4 1_555 1_555
C39_4 C38_4 1_555 1_555
C40_4 C36_4 1_555 1_555
H15_4 C40_4 1_555 1_555
N5_4 C39_4 1_555 1_555
O27_4 C41_4 1_555 1_555
O41_2 C42_4 1_555 1_555
O49 C42_4 1_555 1_555
C41_4 O37_2 1_555 1_555
C42_4 C45_4 1_555 1_555
C43_4 H16_4 1_555 1_555
C44_4 C41_4 1_555 1_555
C45_4 C43_4 1_555 1_555
C46_4 C45_4 1_555 1_555
H17_4 C46_4 1_555 1_555
C47_4 C46_4 1_555 1_555
C48_4 C44_4 1_555 1_555
H18_4 C48_4 1_555 1_555
N6_4 N5_4 1_555 1_555
Fe20_2 O27_4 1_555 1_555
O31_4 Fe20_2 1_555 1_555
O32_4 Fe19_2 1_555 1_555
C19_4 C20_4 1_555 1_555
C23_4 C24_4 1_555 1_555
O18_4 Fe19_2 1_555 1_555
C27_4 C28_4 1_555 1_555
C31_4 C32_4 1_555 1_555
C31_4 N4_4 1_555 1_555
C35_4 C36_4 1_555 1_555
C39_4 C40_4 1_555 1_555
C43_4 C44_4 1_555 1_555
C47_4 C48_4 1_555 1_555
C47_4 N6_4 1_555 1_555
O31_4 H19_4 1_555 1_555
O31_4 H20_4 1_555 1_555
O32_4 H21_4 1_555 1_555
O32_4 H22_4 1_555 1_555
O13_4 H23_4 1_555 1_555
O13_4 H24_4 1_555 1_555
O22_4 H29_4 1_555 1_555
O22_4 H30_4 1_555 1_555
N7 O51 1_555 1_555
O52 N7 1_555 1_555
O53 N7 1_555 1_555
N7_2 O51_2 1_555 1_555
O52_2 N7_2 1_555 1_555
O53_2 N7_2 1_555 1_555
N7_3 O51_3 1_555 1_555
O52_3 N7_3 1_555 1_555
O53_3 N7_3 1_555 1_555
N7_4 O51_4 1_555 1_555
O52_4 N7_4 1_555 1_555
O53_4 N7_4 1_555 1_555
N7_5 O51_5 1_555 1_555
O52_5 N7_5 1_555 1_555
O53_5 N7_5 1_555 1_555
N7_6 O51_6 1_555 1_555
O52_6 N7_6 1_555 1_555
O53_6 N7_6 1_555 1_555
N7_7 O51_7 1_555 1_555
O52_7 N7_7 1_555 1_555
O53_7 N7_7 1_555 1_555
N7_8 O51_8 1_555 1_555
O52_8 N7_8 1_555 1_555
O53_8 N7_8 1_555 1_555

#END
