
###############################################################################
#
# This file contains modified crystal structure data generated from the
# MOF subset of the Cambridge Structural Database (CSD) v543 
# hosted by the Cambridge Crystallographic Data Centre (CCDC).
#
# This work is licensed under the Creative Commons
# Attribution-NonCommercial-ShareAlike 4.0 International License.
# To view a copy of this license, visit
# http://creativecommons.org/licenses/by-nc-sa/4.0/
# or send a letter to
# Creative Commons, PO Box 1866, Mountain View, CA 94042, USA.
#
# CIF created using the CSD Python API on 29 September 2022
# The structure has been converted into the P1 space group
# The structure has a 3D framework
# The original CSD entry IZEQUB is in the orthorhombic crystal system
# The framework has been calculated to contain at least 10.0% void space
# The void calculation uses a probe of radius 1.32A, grid spacing 0.4
# H atom positions have been added when not included in the experimental data
# Generated hydrogen atom positions removed from atoms on special positions
#
###############################################################################

data_IZEQUB
_chemical_formula_moiety         '(C120 H78 Ni12 O38)n'
_symmetry_cell_setting           triclinic
_symmetry_space_group_name_H-M   'P 1'
_symmetry_Int_Tables_number      1
_space_group_name_Hall           'P 1'
loop_
_symmetry_equiv_pos_site_id
_symmetry_equiv_pos_as_xyz
1 x,y,z
_cell_length_a                   27.2662(6)
_cell_length_b                   11.5396(3)
_cell_length_c                   13.9678(3)
_cell_angle_alpha                90
_cell_angle_beta                 90
_cell_angle_gamma                90
_cell_volume                     4394.84
loop_
_atom_site_label
_atom_site_type_symbol
_atom_site_fract_x
_atom_site_fract_y
_atom_site_fract_z
Ni11 Ni 0.5000 0.0000 0.0000
Ni2 Ni -0.0000 0.0000 0.5000
O4 O 0.0525(2) 0.0623(5) 0.4157(4)
C1 C 0.0722(2) 0.0371(5) 0.3387(4)
C2 C 0.20504(18) 0.2223(4) 0.2747(4)
C3 C 0.29486(18) 0.4768(4) 0.2272(4)
C4 C 0.2500 0.2895(6) 0.2500
C5 C 0.2500 0.4066(6) 0.2500
C6 C 0.1197(2) 0.0988(5) 0.3165(4)
C7 C 0.1841(2) 0.2262(5) 0.3646(4)
H1 H 0.1994 0.2716 0.4138
C8 C 0.1420(2) 0.1666(6) 0.3849(5)
H2 H 0.1278 0.1722 0.4476
C9 C 0.1824(3) 0.1543(7) 0.2057(5)
H3 H 0.1962 0.1496 0.1426
C10 C 0.1402(3) 0.0932(7) 0.2270(5)
H4 H 0.1251 0.0463 0.1785
C11 C 0.3319(3) 0.4934(8) 0.2910(6)
H5 H 0.3306 0.4552 0.3520
C12 C 0.2990(3) 0.5290(8) 0.1397(6)
H6 H 0.2736 0.5191 0.0928
C13 C 0.3398(3) 0.5964(8) 0.1181(5)
H7 H 0.3424 0.6311 0.0558
C14 C 0.37619(18) 0.6142(5) 0.1836(4)
C15 C 0.41947(19) 0.6902(5) 0.1586(4)
C16 C 0.3708(3) 0.5628(8) 0.2705(5)
H8 H 0.3951 0.5761 0.3190
O5 O 0.44657(13) 0.7217(3) 0.2258(2)
O6 O 0.42521(17) 0.7147(5) 0.0725(3)
O8 O 0.4475(2) 0.0623(5) 0.0843(4)
C17 C 0.4278(2) 0.0371(5) 0.1613(4)
C18 C 0.29496(18) 0.2223(4) 0.2253(4)
C19 C 0.20514(18) 0.4768(4) 0.2728(4)
C20 C 0.3803(2) 0.0988(5) 0.1835(4)
C21 C 0.3159(2) 0.2262(5) 0.1354(4)
H9 H 0.3006 0.2716 0.0862
C22 C 0.3580(2) 0.1666(6) 0.1151(5)
H10 H 0.3722 0.1722 0.0524
C23 C 0.3176(3) 0.1543(7) 0.2943(5)
H11 H 0.3038 0.1496 0.3574
C24 C 0.3598(3) 0.0932(7) 0.2730(5)
H12 H 0.3749 0.0463 0.3215
C25 C 0.1681(3) 0.4934(8) 0.2090(6)
H13 H 0.1694 0.4552 0.1480
C26 C 0.2010(3) 0.5290(8) 0.3603(6)
H14 H 0.2264 0.5191 0.4072
C27 C 0.1602(3) 0.5964(8) 0.3819(5)
H15 H 0.1576 0.6311 0.4442
C28 C 0.12381(18) 0.6142(5) 0.3164(4)
C29 C 0.08053(19) 0.6902(5) 0.3414(4)
C30 C 0.1292(3) 0.5628(8) 0.2295(5)
H16 H 0.1049 0.5761 0.1810
O9 O 0.05343(13) 0.7217(3) 0.2742(2)
O10 O 0.07479(17) 0.7147(5) 0.4275(3)
Ni3 Ni -0.0000 0.14970(7) 0.71863(6)
O11 O -0.0000 0.1558(3) 0.5705(3)
O12 O 0.05617(14) 0.0326(3) 0.7218(3)
O13 O -0.0000 0.1501(5) 0.8654(4)
O17 O 0.44383(14) 0.0326(3) 0.7782(3)
Ni4 Ni -0.0000 0.85030(7) 0.28137(6)
Ni6 Ni 0.5000 0.14970(7) 0.78137(6)
Ni9 Ni 0.5000 0.85030(7) 0.21863(6)
Ni11_2 Ni 0.5000 0.0000 1.0000
O25 O 0.05343(13) 0.2783(3) 0.7258(2)
H36 H -4.20493e-18 0.0690346 0.889248
Ni11_3 Ni 0.5000 1.0000 0.0000
Ni2_2 Ni -0.0000 1.0000 0.5000
O1 O -0.0000 0.8442(3) 0.4295(3)
O2 O 0.05617(14) 0.9674(3) 0.2782(3)
O3 O -0.0000 0.8499(5) 0.1346(4)
O7 O 0.44383(14) 0.9674(3) 0.2218(3)
O14 O 0.0525(2) 0.9377(5) 0.5843(4)
C31 C 0.0722(2) 0.9629(5) 0.6613(4)
C32 C 0.20504(18) 0.7777(4) 0.7253(4)
C33 C 0.29486(18) 0.5232(4) 0.7728(4)
C34 C 0.2500 0.7105(6) 0.7500
C35 C 0.2500 0.5934(6) 0.7500
C36 C 0.1197(2) 0.9012(5) 0.6835(4)
C37 C 0.1841(2) 0.7738(5) 0.6354(4)
H17 H 0.1994 0.7284 0.5862
C38 C 0.1420(2) 0.8334(6) 0.6151(5)
H18 H 0.1278 0.8278 0.5524
C39 C 0.1824(3) 0.8457(7) 0.7943(5)
H19 H 0.1962 0.8504 0.8574
C40 C 0.1402(3) 0.9068(7) 0.7730(5)
H20 H 0.1251 0.9537 0.8215
C41 C 0.3319(3) 0.5066(8) 0.7090(6)
H21 H 0.3306 0.5448 0.6480
C42 C 0.2990(3) 0.4710(8) 0.8603(6)
H22 H 0.2736 0.4809 0.9072
C43 C 0.3398(3) 0.4036(8) 0.8819(5)
H23 H 0.3424 0.3689 0.9442
C44 C 0.37619(18) 0.3858(5) 0.8164(4)
C45 C 0.41947(19) 0.3098(5) 0.8414(4)
C46 C 0.3708(3) 0.4372(8) 0.7295(5)
H24 H 0.3951 0.4239 0.6810
O15 O 0.44657(13) 0.2783(3) 0.7742(2)
O16 O 0.42521(17) 0.2853(5) 0.9275(3)
O18 O 0.4475(2) 0.9377(5) 0.9157(4)
C47 C 0.4278(2) 0.9629(5) 0.8387(4)
C48 C 0.29496(18) 0.7777(4) 0.7747(4)
C49 C 0.20514(18) 0.5232(4) 0.7272(4)
C50 C 0.3803(2) 0.9012(5) 0.8165(4)
C51 C 0.3159(2) 0.7738(5) 0.8646(4)
H25 H 0.3006 0.7284 0.9138
C52 C 0.3580(2) 0.8334(6) 0.8849(5)
H26 H 0.3722 0.8278 0.9476
C53 C 0.3176(3) 0.8457(7) 0.7057(5)
H27 H 0.3038 0.8504 0.6426
C54 C 0.3598(3) 0.9068(7) 0.7270(5)
H28 H 0.3749 0.9537 0.6785
C55 C 0.1681(3) 0.5066(8) 0.7910(6)
H29 H 0.1694 0.5448 0.8520
C56 C 0.2010(3) 0.4710(8) 0.6397(6)
H30 H 0.2264 0.4809 0.5928
C57 C 0.1602(3) 0.4036(8) 0.6181(5)
H31 H 0.1576 0.3689 0.5558
C58 C 0.12381(18) 0.3858(5) 0.6836(4)
C59 C 0.08053(19) 0.3098(5) 0.6586(4)
C60 C 0.1292(3) 0.4372(8) 0.7705(5)
H32 H 0.1049 0.4239 0.8190
O20 O 0.07479(17) 0.2853(5) 0.5725(3)
Ni11_4 Ni 0.5000 1.0000 1.0000
H34 H -4.20493e-18 0.930965 0.110752
Ni2_3 Ni 1.0000 0.0000 0.5000
Ni3_2 Ni 1.0000 0.14970(7) 0.71863(6)
O11_2 O 1.0000 0.1558(3) 0.5705(3)
O13_2 O 1.0000 0.1501(5) 0.8654(4)
Ni4_2 Ni 1.0000 0.85030(7) 0.28137(6)
O21 O 0.94383(14) 0.0326(3) 0.7218(3)
O24 O 0.9475(2) 0.0623(5) 0.4157(4)
O28 O 0.94657(13) 0.2783(3) 0.7258(2)
H35 H 0.970264 0.19073 0.889022
H36_2 H 1 0.0690346 0.889248
Ni2_4 Ni 1.0000 1.0000 0.5000
O1_2 O 1.0000 0.8442(3) 0.4295(3)
O3_2 O 1.0000 0.8499(5) 0.1346(4)
O22 O 0.94383(14) 0.9674(3) 0.2782(3)
O23 O 0.9475(2) 0.9377(5) 0.5843(4)
O27 O 0.94657(13) 0.7217(3) 0.2742(2)
H33 H 0.970264 0.80927 0.110978
H34_2 H 1 0.930965 0.110752
O23_2 O 0.5525(2) 0.0623(5) 0.0843(4)
O1_3 O 0.5000 0.1558(3) 0.9295(3)
O3_3 O 0.5000 0.1501(5) 0.6346(4)
O22_2 O 0.55617(14) 0.0326(3) 0.7782(3)
O27_2 O 0.55343(13) 0.2783(3) 0.7742(2)
O11_3 O 0.5000 0.8442(3) 0.0705(3)
O13_3 O 0.5000 0.8499(5) 0.3654(4)
O21_2 O 0.55617(14) 0.9674(3) 0.2218(3)
O28_2 O 0.55343(13) 0.7217(3) 0.2258(2)
O24_2 O 0.5525(2) 0.9377(5) 0.9157(4)
H33_2 H 0.0297358 0.19073 0.889022
H35_2 H 0.0297358 0.80927 0.110978
C31_2 C 0.9278(2) 0.0371(5) 0.3387(4)
C32_2 C 0.79496(18) 0.2223(4) 0.2747(4)
C33_2 C 0.70514(18) 0.4768(4) 0.2272(4)
C34_2 C 0.7500 0.2895(6) 0.2500
C35_2 C 0.7500 0.4066(6) 0.2500
C36_2 C 0.8803(2) 0.0988(5) 0.3165(4)
C37_2 C 0.8159(2) 0.2262(5) 0.3646(4)
H17_2 H 0.8006 0.2716 0.4138
C38_2 C 0.8580(2) 0.1666(6) 0.3849(5)
H18_2 H 0.8722 0.1722 0.4476
C39_2 C 0.8176(3) 0.1543(7) 0.2057(5)
H19_2 H 0.8038 0.1496 0.1426
C40_2 C 0.8598(3) 0.0932(7) 0.2270(5)
H20_2 H 0.8749 0.0463 0.1785
C41_2 C 0.6681(3) 0.4934(8) 0.2910(6)
H21_2 H 0.6694 0.4552 0.3520
C42_2 C 0.7010(3) 0.5290(8) 0.1397(6)
H22_2 H 0.7264 0.5191 0.0928
C43_2 C 0.6602(3) 0.5964(8) 0.1181(5)
H23_2 H 0.6576 0.6311 0.0558
C44_2 C 0.62381(18) 0.6142(5) 0.1836(4)
C45_2 C 0.58053(19) 0.6902(5) 0.1586(4)
C46_2 C 0.6292(3) 0.5628(8) 0.2705(5)
H24_2 H 0.6049 0.5761 0.3190
O16_2 O 0.57479(17) 0.7147(5) 0.0725(3)
C47_2 C 0.5722(2) 0.0371(5) 0.1613(4)
C48_2 C 0.70504(18) 0.2223(4) 0.2253(4)
C49_2 C 0.79486(18) 0.4768(4) 0.2728(4)
C50_2 C 0.6197(2) 0.0988(5) 0.1835(4)
C51_2 C 0.6841(2) 0.2262(5) 0.1354(4)
H25_2 H 0.6994 0.2716 0.0862
C52_2 C 0.6420(2) 0.1666(6) 0.1151(5)
H26_2 H 0.6278 0.1722 0.0524
C53_2 C 0.6824(3) 0.1543(7) 0.2943(5)
H27_2 H 0.6962 0.1496 0.3574
C54_2 C 0.6402(3) 0.0932(7) 0.2730(5)
H28_2 H 0.6251 0.0463 0.3215
C55_2 C 0.8319(3) 0.4934(8) 0.2090(6)
H29_2 H 0.8306 0.4552 0.1480
C56_2 C 0.7990(3) 0.5290(8) 0.3603(6)
H30_2 H 0.7736 0.5191 0.4072
C57_2 C 0.8398(3) 0.5964(8) 0.3819(5)
H31_2 H 0.8424 0.6311 0.4442
C58_2 C 0.87619(18) 0.6142(5) 0.3164(4)
C59_2 C 0.91947(19) 0.6902(5) 0.3414(4)
C60_2 C 0.8708(3) 0.5628(8) 0.2295(5)
H32_2 H 0.8951 0.5761 0.1810
O20_2 O 0.92521(17) 0.7147(5) 0.4275(3)
C1_2 C 0.9278(2) 0.9629(5) 0.6613(4)
C2_2 C 0.79496(18) 0.7777(4) 0.7253(4)
C3_2 C 0.70514(18) 0.5232(4) 0.7728(4)
C4_2 C 0.7500 0.7105(6) 0.7500
C5_2 C 0.7500 0.5934(6) 0.7500
C6_2 C 0.8803(2) 0.9012(5) 0.6835(4)
C7_2 C 0.8159(2) 0.7738(5) 0.6354(4)
H1_2 H 0.8006 0.7284 0.5862
C8_2 C 0.8580(2) 0.8334(6) 0.6151(5)
H2_2 H 0.8722 0.8278 0.5524
C9_2 C 0.8176(3) 0.8457(7) 0.7943(5)
H3_2 H 0.8038 0.8504 0.8574
C10_2 C 0.8598(3) 0.9068(7) 0.7730(5)
H4_2 H 0.8749 0.9537 0.8215
C11_2 C 0.6681(3) 0.5066(8) 0.7090(6)
H5_2 H 0.6694 0.5448 0.6480
C12_2 C 0.7010(3) 0.4710(8) 0.8603(6)
H6_2 H 0.7264 0.4809 0.9072
C13_2 C 0.6602(3) 0.4036(8) 0.8819(5)
H7_2 H 0.6576 0.3689 0.9442
C14_2 C 0.62381(18) 0.3858(5) 0.8164(4)
C15_2 C 0.58053(19) 0.3098(5) 0.8414(4)
C16_2 C 0.6292(3) 0.4372(8) 0.7295(5)
H8_2 H 0.6049 0.4239 0.6810
O6_2 O 0.57479(17) 0.2853(5) 0.9275(3)
C17_2 C 0.5722(2) 0.9629(5) 0.8387(4)
C18_2 C 0.70504(18) 0.7777(4) 0.7747(4)
C19_2 C 0.79486(18) 0.5232(4) 0.7272(4)
C20_2 C 0.6197(2) 0.9012(5) 0.8165(4)
C21_2 C 0.6841(2) 0.7738(5) 0.8646(4)
H9_2 H 0.6994 0.7284 0.9138
C22_2 C 0.6420(2) 0.8334(6) 0.8849(5)
H10_2 H 0.6278 0.8278 0.9476
C23_2 C 0.6824(3) 0.8457(7) 0.7057(5)
H11_2 H 0.6962 0.8504 0.6426
C24_2 C 0.6402(3) 0.9068(7) 0.7270(5)
H12_2 H 0.6251 0.9537 0.6785
C25_2 C 0.8319(3) 0.5066(8) 0.7910(6)
H13_2 H 0.8306 0.5448 0.8520
C26_2 C 0.7990(3) 0.4710(8) 0.6397(6)
H14_2 H 0.7736 0.4809 0.5928
C27_2 C 0.8398(3) 0.4036(8) 0.6181(5)
H15_2 H 0.8424 0.3689 0.5558
C28_2 C 0.87619(18) 0.3858(5) 0.6836(4)
C29_2 C 0.91947(19) 0.3098(5) 0.6586(4)
C30_2 C 0.8708(3) 0.4372(8) 0.7705(5)
H16_2 H 0.8951 0.4239 0.8190
O10_2 O 0.92521(17) 0.2853(5) 0.5725(3)
loop_
_geom_bond_atom_site_label_1
_geom_bond_atom_site_label_2
_geom_bond_site_symmetry_1
_geom_bond_site_symmetry_2
O4 Ni2 1_555 1_555
C2 C4 1_555 1_555
C3 C5 1_555 1_555
C4 C5 1_555 1_555
C5 C19 1_555 1_555
C6 C1 1_555 1_555
C7 C2 1_555 1_555
H1 C7 1_555 1_555
C8 C6 1_555 1_555
H2 C8 1_555 1_555
C9 C2 1_555 1_555
H3 C9 1_555 1_555
C10 C6 1_555 1_555
H4 C10 1_555 1_555
C11 C3 1_555 1_555
H5 C11 1_555 1_555
C12 C3 1_555 1_555
H6 C12 1_555 1_555
C13 C12 1_555 1_555
H7 C13 1_555 1_555
C14 C13 1_555 1_555
C15 C14 1_555 1_555
C16 C11 1_555 1_555
H8 C16 1_555 1_555
O5 C15 1_555 1_555
O6 C15 1_555 1_555
O8 C17 1_555 1_555
C17 C20 1_555 1_555
C18 C4 1_555 1_555
C19 C25 1_555 1_555
C20 C22 1_555 1_555
C21 C18 1_555 1_555
H9 C21 1_555 1_555
C22 C21 1_555 1_555
H10 C22 1_555 1_555
C23 C18 1_555 1_555
H11 C23 1_555 1_555
C24 C20 1_555 1_555
H12 C24 1_555 1_555
C25 H13 1_555 1_555
C26 C19 1_555 1_555
H14 C26 1_555 1_555
C27 C26 1_555 1_555
H15 C27 1_555 1_555
C28 C27 1_555 1_555
C29 C28 1_555 1_555
C30 C25 1_555 1_555
H16 C30 1_555 1_555
O9 C29 1_555 1_555
O10 C29 1_555 1_555
Ni3 O11 1_555 1_555
O11 Ni2 1_555 1_555
O12 Ni3 1_555 1_555
O13 Ni3 1_555 1_555
Ni4 O9 1_555 1_555
Ni6 O17 1_555 1_555
Ni9 O5 1_555 1_555
Ni11 O8 1_555 1_555
O25 Ni3 1_555 1_555
O4 C1 1_555 1_555
C7 C8 1_555 1_555
C9 C10 1_555 1_555
C14 C16 1_555 1_555
C23 C24 1_555 1_555
C28 C30 1_555 1_555
O13 H36 1_555 1_555
Ni4 O1 1_555 1_555
Ni2_2 O1 1_555 1_555
O2 Ni4 1_555 1_555
O3 Ni4 1_555 1_555
O14 Ni2_2 1_555 1_555
C32 C34 1_555 1_555
C33 C35 1_555 1_555
C34 C35 1_555 1_555
C35 C49 1_555 1_555
C36 C31 1_555 1_555
C37 C32 1_555 1_555
H17 C37 1_555 1_555
C38 C36 1_555 1_555
H18 C38 1_555 1_555
C39 C32 1_555 1_555
H19 C39 1_555 1_555
C40 C36 1_555 1_555
H20 C40 1_555 1_555
C41 C33 1_555 1_555
H21 C41 1_555 1_555
C42 C33 1_555 1_555
H22 C42 1_555 1_555
C43 C42 1_555 1_555
H23 C43 1_555 1_555
C44 C43 1_555 1_555
C45 C44 1_555 1_555
C46 C41 1_555 1_555
H24 C46 1_555 1_555
O15 C45 1_555 1_555
O16 C45 1_555 1_555
O18 C47 1_555 1_555
C47 C50 1_555 1_555
C48 C34 1_555 1_555
C49 C55 1_555 1_555
C50 C52 1_555 1_555
C51 C48 1_555 1_555
H25 C51 1_555 1_555
C52 C51 1_555 1_555
H26 C52 1_555 1_555
C53 C48 1_555 1_555
H27 C53 1_555 1_555
C54 C50 1_555 1_555
H28 C54 1_555 1_555
C55 H29 1_555 1_555
C56 C49 1_555 1_555
H30 C56 1_555 1_555
C57 C56 1_555 1_555
H31 C57 1_555 1_555
C58 C57 1_555 1_555
C59 C58 1_555 1_555
C60 C55 1_555 1_555
H32 C60 1_555 1_555
O25 C59 1_555 1_555
O20 C59 1_555 1_555
Ni6 O15 1_555 1_555
Ni9 O7 1_555 1_555
Ni11_4 O18 1_555 1_555
O14 C31 1_555 1_555
C37 C38 1_555 1_555
C39 C40 1_555 1_555
C44 C46 1_555 1_555
C53 C54 1_555 1_555
C58 C60 1_555 1_555
O3 H34 1_555 1_555
Ni3_2 O11_2 1_555 1_555
O11_2 Ni2_3 1_555 1_555
O13_2 Ni3_2 1_555 1_555
O21 Ni3_2 1_555 1_555
O24 Ni2_3 1_555 1_555
O28 Ni3_2 1_555 1_555
O13_2 H35 1_555 1_555
O13_2 H36_2 1_555 1_555
Ni4_2 O1_2 1_555 1_555
Ni2_4 O1_2 1_555 1_555
O3_2 Ni4_2 1_555 1_555
O22 Ni4_2 1_555 1_555
O23 Ni2_4 1_555 1_555
O27 Ni4_2 1_555 1_555
O3_2 H33 1_555 1_555
O3_2 H34_2 1_555 1_555
O23_2 Ni11 1_555 1_555
Ni6 O1_3 1_555 1_555
Ni11_2 O1_3 1_555 1_555
O3_3 Ni6 1_555 1_555
O22_2 Ni6 1_555 1_555
O27_2 Ni6 1_555 1_555
Ni9 O11_3 1_555 1_555
O11_3 Ni11_3 1_555 1_555
O13_3 Ni9 1_555 1_555
O21_2 Ni9 1_555 1_555
O28_2 Ni9 1_555 1_555
O24_2 Ni11_4 1_555 1_555
O13 H33_2 1_555 1_555
O3 H35_2 1_555 1_555
C32_2 C34_2 1_555 1_555
C33_2 C35_2 1_555 1_555
C34_2 C35_2 1_555 1_555
C35_2 C49_2 1_555 1_555
C36_2 C31_2 1_555 1_555
C37_2 C32_2 1_555 1_555
H17_2 C37_2 1_555 1_555
C38_2 C36_2 1_555 1_555
H18_2 C38_2 1_555 1_555
C39_2 C32_2 1_555 1_555
H19_2 C39_2 1_555 1_555
C40_2 C36_2 1_555 1_555
H20_2 C40_2 1_555 1_555
C41_2 C33_2 1_555 1_555
H21_2 C41_2 1_555 1_555
C42_2 C33_2 1_555 1_555
H22_2 C42_2 1_555 1_555
C43_2 C42_2 1_555 1_555
H23_2 C43_2 1_555 1_555
C44_2 C43_2 1_555 1_555
C45_2 C44_2 1_555 1_555
C46_2 C41_2 1_555 1_555
H24_2 C46_2 1_555 1_555
O28_2 C45_2 1_555 1_555
O16_2 C45_2 1_555 1_555
O23_2 C47_2 1_555 1_555
C47_2 C50_2 1_555 1_555
C48_2 C34_2 1_555 1_555
C49_2 C55_2 1_555 1_555
C50_2 C52_2 1_555 1_555
C51_2 C48_2 1_555 1_555
H25_2 C51_2 1_555 1_555
C52_2 C51_2 1_555 1_555
H26_2 C52_2 1_555 1_555
C53_2 C48_2 1_555 1_555
H27_2 C53_2 1_555 1_555
C54_2 C50_2 1_555 1_555
H28_2 C54_2 1_555 1_555
C55_2 H29_2 1_555 1_555
C56_2 C49_2 1_555 1_555
H30_2 C56_2 1_555 1_555
C57_2 C56_2 1_555 1_555
H31_2 C57_2 1_555 1_555
C58_2 C57_2 1_555 1_555
C59_2 C58_2 1_555 1_555
C60_2 C55_2 1_555 1_555
H32_2 C60_2 1_555 1_555
O27 C59_2 1_555 1_555
O20_2 C59_2 1_555 1_555
O24 C31_2 1_555 1_555
C37_2 C38_2 1_555 1_555
C39_2 C40_2 1_555 1_555
C44_2 C46_2 1_555 1_555
C53_2 C54_2 1_555 1_555
C58_2 C60_2 1_555 1_555
C2_2 C4_2 1_555 1_555
C3_2 C5_2 1_555 1_555
C4_2 C5_2 1_555 1_555
C5_2 C19_2 1_555 1_555
C6_2 C1_2 1_555 1_555
C7_2 C2_2 1_555 1_555
H1_2 C7_2 1_555 1_555
C8_2 C6_2 1_555 1_555
H2_2 C8_2 1_555 1_555
C9_2 C2_2 1_555 1_555
H3_2 C9_2 1_555 1_555
C10_2 C6_2 1_555 1_555
H4_2 C10_2 1_555 1_555
C11_2 C3_2 1_555 1_555
H5_2 C11_2 1_555 1_555
C12_2 C3_2 1_555 1_555
H6_2 C12_2 1_555 1_555
C13_2 C12_2 1_555 1_555
H7_2 C13_2 1_555 1_555
C14_2 C13_2 1_555 1_555
C15_2 C14_2 1_555 1_555
C16_2 C11_2 1_555 1_555
H8_2 C16_2 1_555 1_555
O27_2 C15_2 1_555 1_555
O6_2 C15_2 1_555 1_555
O24_2 C17_2 1_555 1_555
C17_2 C20_2 1_555 1_555
C18_2 C4_2 1_555 1_555
C19_2 C25_2 1_555 1_555
C20_2 C22_2 1_555 1_555
C21_2 C18_2 1_555 1_555
H9_2 C21_2 1_555 1_555
C22_2 C21_2 1_555 1_555
H10_2 C22_2 1_555 1_555
C23_2 C18_2 1_555 1_555
H11_2 C23_2 1_555 1_555
C24_2 C20_2 1_555 1_555
H12_2 C24_2 1_555 1_555
C25_2 H13_2 1_555 1_555
C26_2 C19_2 1_555 1_555
H14_2 C26_2 1_555 1_555
C27_2 C26_2 1_555 1_555
H15_2 C27_2 1_555 1_555
C28_2 C27_2 1_555 1_555
C29_2 C28_2 1_555 1_555
C30_2 C25_2 1_555 1_555
H16_2 C30_2 1_555 1_555
O28 C29_2 1_555 1_555
O10_2 C29_2 1_555 1_555
O23 C1_2 1_555 1_555
C7_2 C8_2 1_555 1_555
C9_2 C10_2 1_555 1_555
C14_2 C16_2 1_555 1_555
C23_2 C24_2 1_555 1_555
C28_2 C30_2 1_555 1_555

#END
