
###############################################################################
#
# This file contains modified crystal structure data generated from the
# MOF subset of the Cambridge Structural Database (CSD) v543 
# hosted by the Cambridge Crystallographic Data Centre (CCDC).
#
# This work is licensed under the Creative Commons
# Attribution-NonCommercial-ShareAlike 4.0 International License.
# To view a copy of this license, visit
# http://creativecommons.org/licenses/by-nc-sa/4.0/
# or send a letter to
# Creative Commons, PO Box 1866, Mountain View, CA 94042, USA.
#
# CIF created using the CSD Python API on 29 September 2022
# The structure has been converted into the P1 space group
# The structure has a 3D framework
# The original CSD entry IZETUF is in the tetragonal crystal system
# The framework has been calculated to contain at least 10.0% void space
# The void calculation uses a probe of radius 1.32A, grid spacing 0.4
# The framework is charged, counterions have been retained in the structure
# H atom positions have been added when not included in the experimental data
#
###############################################################################

data_IZETUF
_chemical_formula_moiety         '(C480 H288 Co28 Li53 N16 O313 16-)n'
_symmetry_cell_setting           triclinic
_symmetry_space_group_name_H-M   'P 1'
_symmetry_Int_Tables_number      1
_space_group_name_Hall           'P 1'
loop_
_symmetry_equiv_pos_site_id
_symmetry_equiv_pos_as_xyz
1 x,y,z
_cell_length_a                   43.6487(6)
_cell_length_b                   43.6487(6)
_cell_length_c                   11.8097(3)
_cell_angle_alpha                90
_cell_angle_beta                 90
_cell_angle_gamma                90
_cell_volume                     22499.9
loop_
_atom_site_label
_atom_site_type_symbol
_atom_site_fract_x
_atom_site_fract_y
_atom_site_fract_z
Co1 Co 0.69676(2) 0.15958(2) 0.01886(5)
O1 O 0.76035(8) 0.12043(8) 0.1175(3)
C1 C 0.75977(10) 0.13171(11) 0.0209(4)
H2 H 0.809621 0.094923 0.022587
O27 O 0.66731(8) 0.12916(8) 0.0675(3)
Li6 Li 0.78901(18) 0.12559(17) 0.2400(7)
Li9 Li 0.7287(8) 0.1286(8) 0.224(3)
O33 O 0.69740(10) 0.19605(8) 0.1111(3)
Co2 Co 0.82376(2) 0.15558(2) 0.43614(5)
O2 O 0.79471(8) 0.18995(7) 0.6664(3)
O3 O 0.83409(8) 0.16318(8) 0.6009(3)
O4 O 0.75551(7) 0.11783(8) 0.3513(3)
O5 O 0.78266(8) 0.13726(9) 0.4937(3)
C2 C 0.78879(11) 0.15020(11) 0.8527(4)
H1 H 0.773775 0.165105 0.843441
C3 C 0.72990(10) 0.13000(10) 0.5245(4)
O6 O 0.68423(8) 0.16818(10) 0.8619(3)
C4 C 0.81258(10) 0.14793(10) 0.7756(4)
C5 C 0.78739(11) 0.12992(11) 0.9449(4)
O7 O 0.65433(10) 0.07031(10) 0.4947(3)
C6 C 0.81009(11) 0.10788(11) 0.9601(4)
C7 C 0.70502(11) 0.15240(12) 0.6862(4)
C8 C 0.68014(11) 0.11167(12) 0.5816(4)
C9 C 0.75798(11) 0.12827(10) 0.4500(4)
C10 C 0.68044(11) 0.13245(11) 0.6720(4)
H3 H 0.664146 0.132918 0.722692
C11 C 0.72975(11) 0.15099(11) 0.6139(4)
H4 H 0.746364 0.164016 0.624563
O8 O 0.73706(9) 0.14471(10) 0.9771(3)
O9 O 0.72331(9) 0.19494(9) 0.7915(3)
C12 C 0.70526(11) 0.11083(11) 0.5071(4)
H5 H 0.705246 0.097352 0.446054
C13 C 0.65388(12) 0.08956(12) 0.5712(5)
C14 C 0.81382(10) 0.16872(10) 0.6736(3)
C15 C 0.70477(11) 0.17403(12) 0.7862(4)
C16 C 0.83487(11) 0.12554(11) 0.7892(4)
H6 H 0.850729 0.124038 0.736937
O10 O 0.85299(8) 0.05886(8) 0.9554(3)
O11 O 0.63265(10) 0.09381(10) 0.6419(4)
C17 C 0.85701(11) 0.08004(12) 0.8870(4)
C18 C 0.83376(11) 0.10545(11) 0.8797(4)
O12 O 0.87916(8) 0.08269(8) 0.8175(3)
O13 O 0.80229(9) 0.16793(8) 0.2464(3)
O14 O 0.80169(9) 0.19586(9) 0.4011(3)
C19 C 0.79149(11) 0.22127(10) 0.2282(4)
C20 C 0.79833(12) 0.19305(11) 0.2945(4)
Li1 Li 0.62441(17) 0.03901(18) 0.4900(7)
Li2 Li 0.7605(2) 0.2131(2) 0.7382(7)
C21 C 0.78289(11) 0.22053(10) 0.1142(4)
H7 H 0.781858 0.202005 0.075531
C22 C 0.79391(11) 0.24955(11) 0.2835(4)
H8 H 0.799949 0.250079 0.358957
C23 C 0.78752(11) 0.27655(10) 0.2282(4)
C24 C 0.77591(12) 0.24779(11) 0.0595(4)
C25 C 0.77747(12) 0.27558(11) 0.1162(4)
H9 H 0.771800 0.293562 0.079578
C27 C 0.79013(13) 0.30610(11) 0.2909(4)
O16 O 0.78124(10) 0.32995(8) 0.2487(3)
O18 O 0.80260(10) 0.30395(8) 0.3889(3)
O19 O 0.86475(12) 0.17893(13) 0.3858(4)
C28 C 0.8702(3) 0.2050(3) 0.4312(10)
N1 N 0.8954(4) 0.2209(4) 0.3926(16)
C29 C 0.8945(12) 0.2511(7) 0.443(4)
H10 H 0.909007 0.264218 0.406228
H11 H 0.899529 0.249649 0.522393
H12 H 0.874278 0.259591 0.435439
C30 C 0.9142(8) 0.2074(9) 0.303(3)
H13 H 0.906756 0.187198 0.285844
H14 H 0.935069 0.206055 0.328422
H15 H 0.913142 0.219941 0.236667
Co3 Co 0.90958(2) 0.05324(2) 0.76886(5)
Co4 Co 0.80324(2) 0.34042(2) 0.48114(5)
Co5 Co 0.59442(2) 0.07376(2) 0.68614(5)
O22 O 0.62957(8) 0.01035(8) 0.3675(3)
O24 O 0.63217(8) 0.00551(7) 0.6013(3)
O25 O 0.69114(8) 0.10299(8) 0.2054(3)
O26 O 0.84381(10) 0.11735(10) 0.3919(4)
O28 O 0.58207(8) 0.05229(9) 0.4964(3)
O29 O 0.69831(9) 0.30414(9) 0.0989(3)
Li10 Li 0.8786(8) 0.0213(8) 0.974(3)
Li11 Li 0.7713(8) 0.3714(8) 0.276(3)
O30 O 0.77875(9) 0.22839(8) 0.8731(3)
O31 O 0.71876(10) 0.17005(8) 0.2513(3)
O32 O 0.75336(11) 0.23326(9) 0.5940(3)
Li12 Li 0.7914(2) 0.2184(2) 0.5388(7)
H18 H 0.855536 0.214227 0.497551
C26 C 0.76648(13) 0.24773(11) 0.9364(4)
O17 O 0.74664(11) 0.26674(9) 0.9060(3)
O20 O 0.6810(3) 0.2469(2) 0.9289(6)
Li4 Li 0.7086(2) 0.2816(2) 0.9612(7)
O23 O 0.70529(8) 0.31005(7) 0.8336(3)
Li8 Li 0.7395(2) 0.2869(2) 0.7618(7)
H16 H 0.688331 0.228412 0.969722
H17 H 0.659946 0.252024 0.954519
Co1_2 Co 0.80324(2) 0.84042(2) 0.51886(5)
O1_2 O 0.73965(8) 0.87957(8) 0.6175(3)
O2_2 O 0.70529(8) 0.81005(7) 0.1664(3)
O3_2 O 0.66591(8) 0.83682(8) 0.1009(3)
C1_2 C 0.74023(10) 0.86829(11) 0.5209(4)
C2_2 C 0.71121(11) 0.84980(11) 0.3527(4)
H1_2 H 0.726225 0.834895 0.343441
C3_2 C 0.77010(10) 0.87000(10) 0.0245(4)
O6_2 O 0.81577(8) 0.83182(10) 0.3619(3)
C4_2 C 0.68742(10) 0.85207(10) 0.2756(4)
C5_2 C 0.71261(11) 0.87008(11) 0.4449(4)
C6_2 C 0.68991(11) 0.89212(11) 0.4601(4)
H2_2 H 0.690379 0.905077 0.522587
C7_2 C 0.79498(11) 0.84760(12) 0.1862(4)
C8_2 C 0.81986(11) 0.88833(12) 0.0816(4)
C10_2 C 0.81956(11) 0.86755(11) 0.1720(4)
H3_2 H 0.835854 0.867082 0.222692
C11_2 C 0.77025(11) 0.84901(11) 0.1139(4)
H4_2 H 0.753636 0.835984 0.124563
O8_2 O 0.76294(9) 0.85529(10) 0.4771(3)
O9_2 O 0.77669(9) 0.80506(9) 0.2915(3)
C12_2 C 0.79474(11) 0.88917(11) 0.0071(4)
C13_2 C 0.84612(12) 0.91044(12) 0.0712(5)
C14_2 C 0.68618(10) 0.83128(10) 0.1736(3)
C15_2 C 0.79523(11) 0.82597(12) 0.2862(4)
C16_2 C 0.66513(11) 0.87446(11) 0.2892(4)
H6_2 H 0.649271 0.875962 0.236937
O10_2 O 0.64701(8) 0.94114(8) 0.4554(3)
O11_2 O 0.86735(10) 0.90619(10) 0.1419(4)
C17_2 C 0.64299(11) 0.91996(12) 0.3870(4)
C18_2 C 0.66624(11) 0.89455(11) 0.3797(4)
O12_2 O 0.62084(8) 0.91731(8) 0.3175(3)
Li2_2 Li 0.7395(2) 0.7869(2) 0.2382(7)
H11_2 H 0.600471 0.750351 0.022393
Co3_2 Co 0.59042(2) 0.94676(2) 0.26886(5)
Co5_2 Co 0.90558(2) 0.92624(2) 0.18614(5)
O24_2 O 0.86783(8) 0.99449(7) 0.1013(3)
O27_2 O 0.83269(8) 0.87084(8) 0.5675(3)
Li6_2 Li 0.71099(18) 0.87441(17) 0.7400(7)
Li9_2 Li 0.7713(8) 0.8714(8) 0.724(3)
Li10_2 Li 0.6214(8) 0.9787(8) 0.474(3)
O30_2 O 0.72125(9) 0.77161(8) 0.3731(3)
O32_2 O 0.74664(11) 0.76674(9) 0.0940(3)
O33_2 O 0.80260(10) 0.80395(8) 0.6111(3)
Li12_2 Li 0.7086(2) 0.7816(2) 0.0388(7)
Co2_2 Co 0.67624(2) 0.84442(2) 0.93614(5)
O4_2 O 0.74449(7) 0.88217(8) 0.8513(3)
O5_2 O 0.71734(8) 0.86274(9) 0.9937(3)
O7_2 O 0.84567(10) 0.92969(10) 0.9947(3)
C9_2 C 0.74202(11) 0.87173(10) 0.9500(4)
H5_2 H 0.794754 0.902648 0.946054
O13_2 O 0.69771(9) 0.83207(8) 0.7464(3)
O14_2 O 0.69831(9) 0.80414(9) 0.9011(3)
C19_2 C 0.70851(11) 0.77873(10) 0.7282(4)
C20_2 C 0.70167(12) 0.80695(11) 0.7945(4)
Li1_2 Li 0.87559(17) 0.96099(18) 0.9900(7)
C21_2 C 0.71711(11) 0.77947(10) 0.6142(4)
H7_2 H 0.718142 0.797995 0.575531
C22_2 C 0.70609(11) 0.75045(11) 0.7835(4)
H8_2 H 0.700051 0.749921 0.858957
C23_2 C 0.71248(11) 0.72345(10) 0.7282(4)
C24_2 C 0.72409(12) 0.75221(11) 0.5595(4)
C25_2 C 0.72253(12) 0.72442(11) 0.6162(4)
H9_2 H 0.728200 0.706438 0.579578
C26_2 C 0.73352(13) 0.75227(11) 0.4364(4)
C27_2 C 0.70987(13) 0.69390(11) 0.7909(4)
O16_2 O 0.71876(10) 0.67005(8) 0.7487(3)
O17_2 O 0.75336(11) 0.73326(9) 0.4060(3)
O18_2 O 0.69740(10) 0.69605(8) 0.8889(3)
O19_2 O 0.63525(12) 0.82107(13) 0.8858(4)
O20_2 O 0.8190(3) 0.7531(2) 0.4289(6)
Li4_2 Li 0.7914(2) 0.7184(2) 0.4612(7)
C28_2 C 0.6298(3) 0.7950(3) 0.9312(10)
N1_2 N 0.6046(4) 0.7791(4) 0.8926(16)
C29_2 C 0.6055(12) 0.7489(7) 0.943(4)
H10_2 H 0.590993 0.735782 0.906228
H12_2 H 0.625722 0.740409 0.935439
C30_2 C 0.5858(8) 0.7926(9) 0.803(3)
H13_2 H 0.593244 0.812802 0.785844
H14_2 H 0.564931 0.793945 0.828422
H15_2 H 0.586858 0.780059 0.736667
Co4_2 Co 0.69676(2) 0.65958(2) 0.98114(5)
O22_2 O 0.87043(8) 0.98965(8) 0.8675(3)
O23_2 O 0.79471(8) 0.68995(7) 0.3336(3)
O25_2 O 0.80886(8) 0.89701(8) 0.7054(3)
O26_2 O 0.65619(10) 0.88265(10) 0.8919(4)
O28_2 O 0.91793(8) 0.94771(9) 0.9964(3)
O29_2 O 0.80169(9) 0.69586(9) 0.5989(3)
Li8_2 Li 0.7605(2) 0.7131(2) 0.2618(7)
Li11_2 Li 0.7287(8) 0.6286(8) 0.776(3)
O31_2 O 0.78124(10) 0.82995(8) 0.7513(3)
H16_2 H 0.811669 0.771588 0.469722
H17_2 H 0.840054 0.747976 0.454519
H18_2 H 0.644464 0.785773 0.997551
C1_3 C 0.61829(11) 0.00977(10) 0.2709(4)
C2_3 C 0.59980(11) 0.03879(11) 0.1027(4)
H1_3 H 0.584895 0.023775 0.093441
C4_3 C 0.60207(10) 0.06258(10) 0.0256(4)
C5_3 C 0.62008(11) 0.03739(11) 0.1949(4)
C6_3 C 0.64212(11) 0.06009(11) 0.2101(4)
H2_3 H 0.655077 0.059621 0.272587
C16_3 C 0.62446(11) 0.08487(11) 0.0392(4)
C17_3 C 0.66996(12) 0.10701(11) 0.1370(4)
C18_3 C 0.64455(11) 0.08376(11) 0.1297(4)
O30_3 O 0.52161(8) 0.02875(9) 0.1231(3)
O2_3 O 0.56005(7) 0.04471(8) 0.9164(3)
O3_3 O 0.58682(8) 0.08409(8) 0.8509(3)
O5_3 O 0.61274(9) 0.03266(8) 0.7437(3)
C9_3 C 0.62173(10) 0.00798(11) 0.7000(4)
C14_3 C 0.58128(10) 0.06382(10) 0.9236(3)
H6_3 H 0.625962 0.100729 0.986937
O14_3 O 0.55414(9) 0.05169(9) 0.6511(3)
C19_3 C 0.52873(10) 0.04149(11) 0.4782(4)
C20_3 C 0.55695(11) 0.04833(12) 0.5445(4)
Li2_3 Li 0.5369(2) 0.0105(2) 0.9882(7)
C21_3 C 0.52947(10) 0.03289(11) 0.3642(4)
H7_3 H 0.547995 0.031858 0.325531
C22_3 C 0.50045(11) 0.04391(11) 0.5335(4)
H8_3 H 0.499921 0.049949 0.608957
C23_3 C 0.47345(10) 0.03752(11) 0.4782(4)
C24_3 C 0.50221(11) 0.02591(12) 0.3095(4)
C25_3 C 0.47442(11) 0.02747(12) 0.3662(4)
H9_3 H 0.456438 0.021800 0.329578
C26_3 C 0.50227(11) 0.01648(13) 0.1864(4)
C27_3 C 0.44390(11) 0.04013(13) 0.5409(4)
O16_3 O 0.42005(8) 0.03124(10) 0.4987(3)
O18_3 O 0.44605(8) 0.05260(10) 0.6389(3)
O19_3 O 0.57107(13) 0.11475(12) 0.6358(4)
C28_3 C 0.5450(3) 0.1202(3) 0.6812(10)
N1_3 N 0.5291(4) 0.1454(4) 0.6426(16)
C29_3 C 0.4989(7) 0.1445(12) 0.693(4)
H10_3 H 0.485782 0.159007 0.656228
H11_3 H 0.500351 0.149529 0.772393
H12_3 H 0.490409 0.124278 0.685439
C30_3 C 0.5426(9) 0.1642(8) 0.553(3)
H13_3 H 0.562802 0.156756 0.535844
H14_3 H 0.543945 0.185069 0.578422
H15_3 H 0.530059 0.163142 0.486667
Co4_3 Co 0.40958(2) 0.05324(2) 0.73114(5)
Li11_3 Li 0.3786(8) 0.0213(8) 0.526(3)
O32_3 O 0.51674(9) 0.00336(11) 0.8440(3)
Li12_3 Li 0.5316(2) 0.0414(2) 0.7888(7)
H18_3 H 0.535773 0.105536 0.747551
O6_3 O 0.58182(10) 0.93423(8) 0.1119(3)
O8_3 O 0.60529(10) 0.98706(9) 0.2271(3)
O9_3 O 0.55506(9) 0.97331(9) 0.0415(3)
C15_3 C 0.57597(12) 0.95477(11) 0.0362(4)
O33_3 O 0.55395(8) 0.94740(10) 0.3611(3)
C3_3 C 0.62000(10) 0.97990(10) 0.7745(4)
O7_3 O 0.67969(10) 0.90433(10) 0.7447(3)
C7_3 C 0.59760(12) 0.95502(11) 0.9362(4)
C8_3 C 0.63833(12) 0.93014(11) 0.8316(4)
C10_3 C 0.61755(11) 0.93044(11) 0.9220(4)
H3_3 H 0.617082 0.914146 0.972692
C11_3 C 0.59901(11) 0.97975(11) 0.8639(4)
H4_3 H 0.585984 0.996364 0.874563
C12_3 C 0.63917(11) 0.95526(11) 0.7571(4)
H5_3 H 0.652648 0.955246 0.696054
C13_3 C 0.66044(12) 0.90388(12) 0.8212(5)
O17_3 O 0.48326(9) 0.99664(11) 0.1560(3)
O20_3 O 0.5031(2) 0.9310(3) 0.1789(6)
Li4_3 Li 0.4684(2) 0.9586(2) 0.2112(7)
O23_3 O 0.43995(7) 0.95529(8) 0.0836(3)
O29_3 O 0.44586(9) 0.94831(9) 0.3489(3)
Li8_3 Li 0.4631(2) 0.9895(2) 0.0118(7)
O31_3 O 0.57995(8) 0.96876(10) 0.5013(3)
H16_3 H 0.521588 0.938331 0.219722
H17_3 H 0.497976 0.909946 0.204519
O17_4 O 0.01674(9) 0.00336(11) 0.6560(3)
Li4_4 Li 0.0316(2) 0.0414(2) 0.7112(7)
O23_4 O 0.06005(7) 0.04471(8) 0.5836(3)
O29_4 O 0.05414(9) 0.05169(9) 0.8489(3)
Li8_4 Li 0.0369(2) 0.0105(2) 0.5118(7)
H17_4 H 0.0020241 0.0900535 0.704519
H8_4 H 0.000079 0.950051 0.108957
C27_4 C 0.05610(11) 0.95987(13) 0.0409(4)
O18_4 O 0.05395(8) 0.94740(10) 0.1389(3)
C29_4 C 0.0011(7) 0.8555(12) 0.193(4)
H10_4 H 0.014218 0.840993 0.156228
H12_4 H 0.009591 0.875722 0.185439
Co4_4 Co 0.09042(2) 0.94676(2) 0.23114(5)
Li11_4 Li 0.1214(8) 0.9787(8) 0.026(3)
C23_4 C 0.02655(10) 0.96248(11) 0.9782(4)
C25_4 C 0.02558(11) 0.97253(12) 0.8662(4)
H9_4 H 0.043562 0.978200 0.829578
O16_4 O 0.07995(8) 0.96876(10) 0.9987(3)
C3_4 C 0.88000(10) 0.02010(10) 0.2745(4)
O6_4 O 0.91818(10) 0.06577(8) 0.6119(3)
O7_4 O 0.82031(10) 0.09567(10) 0.2447(3)
C7_4 C 0.90240(12) 0.04498(11) 0.4362(4)
C8_4 C 0.86167(12) 0.06986(11) 0.3316(4)
C10_4 C 0.88245(11) 0.06956(11) 0.4220(4)
H3_4 H 0.882918 0.085854 0.472692
C11_4 C 0.90099(11) 0.02025(11) 0.3639(4)
H4_4 H 0.914016 0.003636 0.374563
O8_4 O 0.89471(10) 0.01294(9) 0.7271(3)
O9_4 O 0.94494(9) 0.02669(9) 0.5415(3)
C12_4 C 0.86083(11) 0.04474(11) 0.2571(4)
H5_4 H 0.847352 0.044754 0.196054
C13_4 C 0.83956(12) 0.09612(12) 0.3212(5)
C15_4 C 0.92403(12) 0.04523(11) 0.5362(4)
O31_4 O 0.92005(8) 0.03124(10) 0.0013(3)
O33_4 O 0.94605(8) 0.05260(10) 0.8611(3)
O20_4 O 0.9969(2) 0.0690(3) 0.6789(6)
H16_4 H 0.978412 0.0616692 0.719722
O2_4 O 0.93995(7) 0.95529(8) 0.4164(3)
O3_4 O 0.91318(8) 0.91591(8) 0.3509(3)
C1_4 C 0.88171(11) 0.99023(10) 0.7709(4)
O5_4 O 0.88726(9) 0.96734(8) 0.2437(3)
C2_4 C 0.90020(11) 0.96121(11) 0.6027(4)
H1_4 H 0.915105 0.976225 0.593441
C4_4 C 0.89793(10) 0.93742(10) 0.5256(4)
C5_4 C 0.87992(11) 0.96261(11) 0.6949(4)
C6_4 C 0.85788(11) 0.93991(11) 0.7101(4)
H2_4 H 0.844923 0.940379 0.772587
C9_4 C 0.87827(10) 0.99202(11) 0.2000(4)
C14_4 C 0.91872(10) 0.93618(10) 0.4236(3)
C16_4 C 0.87554(11) 0.91513(11) 0.5392(4)
H6_4 H 0.874038 0.899271 0.486937
C17_4 C 0.83004(12) 0.89299(11) 0.6370(4)
C18_4 C 0.85545(11) 0.91624(11) 0.6297(4)
O14_4 O 0.94586(9) 0.94831(9) 0.1511(3)
C20_4 C 0.94305(11) 0.95167(12) 0.0445(4)
Li2_4 Li 0.9631(2) 0.9895(2) 0.4882(7)
C22_4 C 0.99955(11) 0.95609(11) 0.0335(4)
O19_4 O 0.92893(13) 0.88525(12) 0.1358(4)
C28_4 C 0.9550(3) 0.8798(3) 0.1812(10)
N1_4 N 0.9709(4) 0.8546(4) 0.1426(16)
H11_4 H 0.999649 0.850471 0.272393
C30_4 C 0.9574(9) 0.8358(8) 0.053(3)
H13_4 H 0.937198 0.843244 0.035844
H14_4 H 0.956055 0.814931 0.078422
O30_4 O 0.97839(8) 0.97125(9) 0.6231(3)
O32_4 O 0.98326(9) 0.99664(11) 0.3440(3)
Li12_4 Li 0.9684(2) 0.9586(2) 0.2888(7)
H18_4 H 0.964227 0.894464 0.247551
C19_4 C 0.97127(10) 0.95851(11) 0.9782(4)
C21_4 C 0.97053(10) 0.96711(11) 0.8642(4)
H7_4 H 0.952005 0.968142 0.825531
C24_4 C 0.99779(11) 0.97409(12) 0.8095(4)
C26_4 C 0.99773(11) 0.98352(13) 0.6864(4)
H15_4 H 0.969941 0.836858 0.986667
Co1_3 Co 0.19676(2) 0.65958(2) 0.51886(5)
O1_3 O 0.26035(8) 0.62043(8) 0.6175(3)
O2_5 O 0.29471(8) 0.68995(7) 0.1664(3)
O3_5 O 0.33409(8) 0.66318(8) 0.1009(3)
C1_5 C 0.25977(10) 0.63171(11) 0.5209(4)
C2_5 C 0.28879(11) 0.65020(11) 0.3527(4)
H1_5 H 0.273775 0.665105 0.343441
C3_5 C 0.22990(10) 0.63000(10) 0.0245(4)
O6_5 O 0.18423(8) 0.66818(10) 0.3619(3)
C4_5 C 0.31258(10) 0.64793(10) 0.2756(4)
C5_5 C 0.28739(11) 0.62992(11) 0.4449(4)
C6_5 C 0.31009(11) 0.60788(11) 0.4601(4)
H2_5 H 0.309621 0.594923 0.522587
C7_5 C 0.20502(11) 0.65240(12) 0.1862(4)
C8_5 C 0.18014(11) 0.61167(12) 0.0816(4)
C10_5 C 0.18044(11) 0.63245(11) 0.1720(4)
H3_5 H 0.164146 0.632918 0.222692
C11_5 C 0.22975(11) 0.65099(11) 0.1139(4)
H4_5 H 0.246364 0.664016 0.124563
O8_5 O 0.23706(9) 0.64471(10) 0.4771(3)
O9_5 O 0.22331(9) 0.69494(9) 0.2915(3)
C12_5 C 0.20526(11) 0.61083(11) 0.0071(4)
C13_5 C 0.15388(12) 0.58956(12) 0.0712(5)
C14_5 C 0.31382(10) 0.66872(10) 0.1736(3)
C15_5 C 0.20477(11) 0.67403(12) 0.2862(4)
C16_5 C 0.33487(11) 0.62554(11) 0.2892(4)
H6_5 H 0.350729 0.624038 0.236937
O10_3 O 0.35299(8) 0.55886(8) 0.4554(3)
O11_3 O 0.13265(10) 0.59381(10) 0.1419(4)
C17_5 C 0.35701(11) 0.58004(12) 0.3870(4)
C18_5 C 0.33376(11) 0.60545(11) 0.3797(4)
O12_3 O 0.37916(8) 0.58269(8) 0.3175(3)
Li2_5 Li 0.2605(2) 0.7131(2) 0.2382(7)
H11_5 H 0.399529 0.749649 0.022393
Co3_3 Co 0.40958(2) 0.55324(2) 0.26886(5)
Co5_3 Co 0.09442(2) 0.57376(2) 0.18614(5)
O24_3 O 0.13217(8) 0.50551(7) 0.1013(3)
O27_3 O 0.16731(8) 0.62916(8) 0.5675(3)
Li6_3 Li 0.28901(18) 0.62559(17) 0.7400(7)
Li9_3 Li 0.2287(8) 0.6286(8) 0.724(3)
Li10_3 Li 0.3786(8) 0.5213(8) 0.474(3)
O30_5 O 0.27875(9) 0.72839(8) 0.3731(3)
O32_5 O 0.25336(11) 0.73326(9) 0.0940(3)
O33_5 O 0.19740(10) 0.69605(8) 0.6111(3)
Li12_5 Li 0.2914(2) 0.7184(2) 0.0388(7)
Co2_3 Co 0.32376(2) 0.65558(2) 0.93614(5)
O4_3 O 0.25551(7) 0.61783(8) 0.8513(3)
O5_5 O 0.28266(8) 0.63726(9) 0.9937(3)
O7_5 O 0.15433(10) 0.57031(10) 0.9947(3)
C9_5 C 0.25798(11) 0.62827(10) 0.9500(4)
H5_5 H 0.205246 0.597352 0.946054
O13_3 O 0.30229(9) 0.66793(8) 0.7464(3)
O14_5 O 0.30169(9) 0.69586(9) 0.9011(3)
C19_5 C 0.29149(11) 0.72127(10) 0.7282(4)
C20_5 C 0.29833(12) 0.69305(11) 0.7945(4)
Li1_3 Li 0.12441(17) 0.53901(18) 0.9900(7)
C21_5 C 0.28289(11) 0.72053(10) 0.6142(4)
H7_5 H 0.281858 0.702005 0.575531
C22_5 C 0.29391(11) 0.74955(11) 0.7835(4)
H8_5 H 0.299949 0.750079 0.858957
C23_5 C 0.28752(11) 0.77655(10) 0.7282(4)
C24_5 C 0.27591(12) 0.74779(11) 0.5595(4)
C25_5 C 0.27747(12) 0.77558(11) 0.6162(4)
H9_5 H 0.271800 0.793562 0.579578
C26_5 C 0.26648(13) 0.74773(11) 0.4364(4)
C27_5 C 0.29013(13) 0.80610(11) 0.7909(4)
O16_5 O 0.28124(10) 0.82995(8) 0.7487(3)
O17_5 O 0.24664(11) 0.76674(9) 0.4060(3)
O18_5 O 0.30260(10) 0.80395(8) 0.8889(3)
O19_5 O 0.36475(12) 0.67893(13) 0.8858(4)
O20_5 O 0.1810(3) 0.7469(2) 0.4289(6)
Li4_5 Li 0.2086(2) 0.7816(2) 0.4612(7)
C28_5 C 0.3702(3) 0.7050(3) 0.9312(10)
N1_5 N 0.3954(4) 0.7209(4) 0.8926(16)
C29_5 C 0.3945(12) 0.7511(7) 0.943(4)
H10_5 H 0.409007 0.764218 0.906228
H12_5 H 0.374278 0.759591 0.935439
C30_5 C 0.4142(8) 0.7074(9) 0.803(3)
H13_5 H 0.406756 0.687198 0.785844
H14_5 H 0.435069 0.706055 0.828422
H15_5 H 0.413142 0.719941 0.736667
Co4_5 Co 0.30324(2) 0.84042(2) 0.98114(5)
O22_3 O 0.12957(8) 0.51035(8) 0.8675(3)
O23_5 O 0.20529(8) 0.81005(7) 0.3336(3)
O25_3 O 0.19114(8) 0.60299(8) 0.7054(3)
O26_3 O 0.34381(10) 0.61735(10) 0.8919(4)
O28_3 O 0.08207(8) 0.55229(9) 0.9964(3)
O29_5 O 0.19831(9) 0.80414(9) 0.5989(3)
Li8_5 Li 0.2395(2) 0.7869(2) 0.2618(7)
Li11_5 Li 0.2713(8) 0.8714(8) 0.776(3)
O31_5 O 0.21876(10) 0.67005(8) 0.7513(3)
H16_5 H 0.188331 0.728412 0.469722
H17_5 H 0.159946 0.752024 0.454519
H18_5 H 0.355536 0.714227 0.997551
Co1_4 Co 0.30324(2) 0.34042(2) 0.01886(5)
O1_4 O 0.23965(8) 0.37957(8) 0.1175(3)
C1_6 C 0.24023(10) 0.36829(11) 0.0209(4)
H2_6 H 0.190379 0.405077 0.022587
O27_4 O 0.33269(8) 0.37084(8) 0.0675(3)
Li6_4 Li 0.21099(18) 0.37441(17) 0.2400(7)
Li9_4 Li 0.2713(8) 0.3714(8) 0.224(3)
O33_6 O 0.30260(10) 0.30395(8) 0.1111(3)
Co2_4 Co 0.17624(2) 0.34442(2) 0.43614(5)
O2_6 O 0.20529(8) 0.31005(7) 0.6664(3)
O3_6 O 0.16591(8) 0.33682(8) 0.6009(3)
O4_4 O 0.24449(7) 0.38217(8) 0.3513(3)
O5_6 O 0.21734(8) 0.36274(9) 0.4937(3)
C2_6 C 0.21121(11) 0.34980(11) 0.8527(4)
H1_6 H 0.226225 0.334895 0.843441
C3_6 C 0.27010(10) 0.37000(10) 0.5245(4)
O6_6 O 0.31577(8) 0.33182(10) 0.8619(3)
C4_6 C 0.18742(10) 0.35207(10) 0.7756(4)
C5_6 C 0.21261(11) 0.37008(11) 0.9449(4)
O7_6 O 0.34567(10) 0.42969(10) 0.4947(3)
C6_6 C 0.18991(11) 0.39212(11) 0.9601(4)
C7_6 C 0.29498(11) 0.34760(12) 0.6862(4)
C8_6 C 0.31986(11) 0.38833(12) 0.5816(4)
C9_6 C 0.24202(11) 0.37173(10) 0.4500(4)
C10_6 C 0.31956(11) 0.36755(11) 0.6720(4)
H3_6 H 0.335854 0.367082 0.722692
C11_6 C 0.27025(11) 0.34901(11) 0.6139(4)
H4_6 H 0.253636 0.335984 0.624563
O8_6 O 0.26294(9) 0.35529(10) 0.9771(3)
O9_6 O 0.27669(9) 0.30506(9) 0.7915(3)
C12_6 C 0.29474(11) 0.38917(11) 0.5071(4)
H5_6 H 0.294754 0.402648 0.446054
C13_6 C 0.34612(12) 0.41044(12) 0.5712(5)
C14_6 C 0.18618(10) 0.33128(10) 0.6736(3)
C15_6 C 0.29523(11) 0.32597(12) 0.7862(4)
C16_6 C 0.16513(11) 0.37446(11) 0.7892(4)
H6_6 H 0.149271 0.375962 0.736937
O10_4 O 0.14701(8) 0.44114(8) 0.9554(3)
O11_4 O 0.36735(10) 0.40619(10) 0.6419(4)
C17_6 C 0.14299(11) 0.41996(12) 0.8870(4)
C18_6 C 0.16624(11) 0.39455(11) 0.8797(4)
O12_4 O 0.12084(8) 0.41731(8) 0.8175(3)
O13_4 O 0.19771(9) 0.33207(8) 0.2464(3)
O14_6 O 0.19831(9) 0.30414(9) 0.4011(3)
C19_6 C 0.20851(11) 0.27873(10) 0.2282(4)
C20_6 C 0.20167(12) 0.30695(11) 0.2945(4)
Li1_4 Li 0.37559(17) 0.46099(18) 0.4900(7)
Li2_6 Li 0.2395(2) 0.2869(2) 0.7382(7)
C21_6 C 0.21711(11) 0.27947(10) 0.1142(4)
H7_6 H 0.218142 0.297995 0.075531
C22_6 C 0.20609(11) 0.25045(11) 0.2835(4)
H8_6 H 0.200051 0.249921 0.358957
C23_6 C 0.21248(11) 0.22345(10) 0.2282(4)
C24_6 C 0.22409(12) 0.25221(11) 0.0595(4)
C25_6 C 0.22253(12) 0.22442(11) 0.1162(4)
H9_6 H 0.228200 0.206438 0.079578
C27_6 C 0.20987(13) 0.19390(11) 0.2909(4)
O16_6 O 0.21876(10) 0.17005(8) 0.2487(3)
O18_6 O 0.19740(10) 0.19605(8) 0.3889(3)
O19_6 O 0.13525(12) 0.32107(13) 0.3858(4)
C28_6 C 0.1298(3) 0.2950(3) 0.4312(10)
N1_6 N 0.1046(4) 0.2791(4) 0.3926(16)
C29_6 C 0.1055(12) 0.2489(7) 0.443(4)
H10_6 H 0.090993 0.235782 0.406228
H11_6 H 0.100471 0.250351 0.522393
H12_6 H 0.125722 0.240409 0.435439
C30_6 C 0.0858(8) 0.2926(9) 0.303(3)
H13_6 H 0.093244 0.312802 0.285844
H14_6 H 0.064931 0.293945 0.328422
H15_6 H 0.086858 0.280059 0.236667
Co3_4 Co 0.09042(2) 0.44676(2) 0.76886(5)
Co4_6 Co 0.19676(2) 0.15958(2) 0.48114(5)
Co5_4 Co 0.40558(2) 0.42624(2) 0.68614(5)
O22_4 O 0.37043(8) 0.48965(8) 0.3675(3)
O24_4 O 0.36783(8) 0.49449(7) 0.6013(3)
O25_4 O 0.30886(8) 0.39701(8) 0.2054(3)
O26_4 O 0.15619(10) 0.38265(10) 0.3919(4)
O28_4 O 0.41793(8) 0.44771(9) 0.4964(3)
O29_6 O 0.30169(9) 0.19586(9) 0.0989(3)
Li10_4 Li 0.1214(8) 0.4787(8) 0.974(3)
Li11_6 Li 0.2287(8) 0.1286(8) 0.276(3)
O30_6 O 0.22125(9) 0.27161(8) 0.8731(3)
O31_6 O 0.28124(10) 0.32995(8) 0.2513(3)
O32_6 O 0.24664(11) 0.26674(9) 0.5940(3)
Li12_6 Li 0.2086(2) 0.2816(2) 0.5388(7)
H18_6 H 0.144464 0.285773 0.497551
C26_6 C 0.23352(13) 0.25227(11) 0.9364(4)
O17_6 O 0.25336(11) 0.23326(9) 0.9060(3)
O20_6 O 0.3190(3) 0.2531(2) 0.9289(6)
Li4_6 Li 0.2914(2) 0.2184(2) 0.9612(7)
O23_6 O 0.29471(8) 0.18995(7) 0.8336(3)
Li8_6 Li 0.2605(2) 0.2131(2) 0.7618(7)
H16_6 H 0.311669 0.271588 0.969722
H17_6 H 0.340054 0.247976 0.954519
O2_7 O 0.06005(7) 0.54471(8) 0.4164(3)
O3_7 O 0.08682(8) 0.58409(8) 0.3509(3)
C1_7 C 0.11829(11) 0.50977(10) 0.7709(4)
O5_7 O 0.11274(9) 0.53266(8) 0.2437(3)
C2_7 C 0.09980(11) 0.53879(11) 0.6027(4)
H1_7 H 0.084895 0.523775 0.593441
C3_7 C 0.12000(10) 0.47990(10) 0.2745(4)
O6_7 O 0.08182(10) 0.43423(8) 0.6119(3)
C4_7 C 0.10207(10) 0.56258(10) 0.5256(4)
C5_7 C 0.12008(11) 0.53739(11) 0.6949(4)
O7_7 O 0.17969(10) 0.40433(10) 0.2447(3)
C6_7 C 0.14212(11) 0.56009(11) 0.7101(4)
H2_7 H 0.155077 0.559621 0.772587
C7_7 C 0.09760(12) 0.45502(11) 0.4362(4)
C8_7 C 0.13833(12) 0.43014(11) 0.3316(4)
C9_7 C 0.12173(10) 0.50798(11) 0.2000(4)
C10_7 C 0.11755(11) 0.43044(11) 0.4220(4)
H3_7 H 0.117082 0.414146 0.472692
C11_7 C 0.09901(11) 0.47975(11) 0.3639(4)
H4_7 H 0.085984 0.496364 0.374563
O8_7 O 0.10529(10) 0.48706(9) 0.7271(3)
O9_7 O 0.05506(9) 0.47331(9) 0.5415(3)
C12_7 C 0.13917(11) 0.45526(11) 0.2571(4)
H5_7 H 0.152648 0.455246 0.196054
C13_7 C 0.16044(12) 0.40388(12) 0.3212(5)
C14_7 C 0.08128(10) 0.56382(10) 0.4236(3)
C15_7 C 0.07597(12) 0.45477(11) 0.5362(4)
C16_7 C 0.12446(11) 0.58487(11) 0.5392(4)
H6_7 H 0.125962 0.600729 0.486937
C17_7 C 0.16996(12) 0.60701(11) 0.6370(4)
C18_7 C 0.14455(11) 0.58376(11) 0.6297(4)
O14_7 O 0.05414(9) 0.55169(9) 0.1511(3)
C20_7 C 0.05695(11) 0.54833(12) 0.0445(4)
Li2_7 Li 0.0369(2) 0.5105(2) 0.4882(7)
C22_7 C 0.00045(11) 0.54391(11) 0.0335(4)
O19_7 O 0.07107(13) 0.61475(12) 0.1358(4)
C28_7 C 0.0450(3) 0.6202(3) 0.1812(10)
N1_7 N 0.0291(4) 0.6454(4) 0.1426(16)
H11_7 H 0.000351 0.649529 0.272393
C30_7 C 0.0426(9) 0.6642(8) 0.053(3)
H13_7 H 0.062802 0.656756 0.035844
H14_7 H 0.043945 0.685069 0.078422
O30_7 O 0.02161(8) 0.52875(9) 0.6231(3)
O31_7 O 0.07995(8) 0.46876(10) 0.0013(3)
O32_7 O 0.01674(9) 0.50336(11) 0.3440(3)
O33_7 O 0.05395(8) 0.44740(10) 0.8611(3)
Li12_7 Li 0.0316(2) 0.5414(2) 0.2888(7)
H18_7 H 0.0357727 0.605536 0.247551
C19_7 C 0.02873(10) 0.54149(11) 0.9782(4)
C21_7 C 0.02947(10) 0.53289(11) 0.8642(4)
H7_7 H 0.047995 0.531858 0.825531
C24_7 C 0.00221(11) 0.52591(12) 0.8095(4)
C26_7 C 0.00227(11) 0.51648(13) 0.6864(4)
O20_7 O 0.0031(2) 0.4310(3) 0.6789(6)
H15_7 H 0.030059 0.663142 0.986667
H16_7 H 0.0215885 0.438331 0.719722
H8_7 H 0.999921 0.549949 0.108957
C27_7 C 0.94390(11) 0.54013(13) 0.0409(4)
O18_7 O 0.94605(8) 0.55260(10) 0.1389(3)
C29_7 C 0.9989(7) 0.6445(12) 0.193(4)
H10_7 H 0.985782 0.659007 0.156228
H12_7 H 0.990409 0.624278 0.185439
Co4_7 Co 0.90958(2) 0.55324(2) 0.23114(5)
Li11_7 Li 0.8786(8) 0.5213(8) 0.026(3)
C23_7 C 0.97345(10) 0.53752(11) 0.9782(4)
C25_7 C 0.97442(11) 0.52747(12) 0.8662(4)
H9_7 H 0.956438 0.521800 0.829578
O16_7 O 0.92005(8) 0.53124(10) 0.9987(3)
O17_7 O 0.98326(9) 0.49664(11) 0.6560(3)
Li4_7 Li 0.9684(2) 0.4586(2) 0.7112(7)
O23_7 O 0.93995(7) 0.45529(8) 0.5836(3)
O29_7 O 0.94586(9) 0.44831(9) 0.8489(3)
Li8_7 Li 0.9631(2) 0.4895(2) 0.5118(7)
H17_7 H 0.997976 0.409946 0.704519
C1_8 C 0.38171(11) 0.49023(10) 0.2709(4)
C2_8 C 0.40020(11) 0.46121(11) 0.1027(4)
H1_8 H 0.415105 0.476225 0.093441
O6_8 O 0.41818(10) 0.56577(8) 0.1119(3)
C4_8 C 0.39793(10) 0.43742(10) 0.0256(4)
C5_8 C 0.37992(11) 0.46261(11) 0.1949(4)
C6_8 C 0.35788(11) 0.43991(11) 0.2101(4)
H2_8 H 0.344923 0.440379 0.272587
O8_8 O 0.39471(10) 0.51294(9) 0.2271(3)
O9_8 O 0.44494(9) 0.52669(9) 0.0415(3)
C15_8 C 0.42403(12) 0.54523(11) 0.0362(4)
C16_8 C 0.37554(11) 0.41513(11) 0.0392(4)
C17_8 C 0.33004(12) 0.39299(11) 0.1370(4)
C18_8 C 0.35545(11) 0.41624(11) 0.1297(4)
O30_8 O 0.47839(8) 0.47125(9) 0.1231(3)
O33_8 O 0.44605(8) 0.55260(10) 0.3611(3)
O2_8 O 0.43995(7) 0.45529(8) 0.9164(3)
O3_8 O 0.41318(8) 0.41591(8) 0.8509(3)
O5_8 O 0.38726(9) 0.46734(8) 0.7437(3)
C3_8 C 0.38000(10) 0.52010(10) 0.7745(4)
O7_8 O 0.32031(10) 0.59567(10) 0.7447(3)
C7_8 C 0.40240(12) 0.54498(11) 0.9362(4)
C8_8 C 0.36167(12) 0.56986(11) 0.8316(4)
C9_8 C 0.37827(10) 0.49202(11) 0.7000(4)
C10_8 C 0.38245(11) 0.56956(11) 0.9220(4)
H3_8 H 0.382918 0.585854 0.972692
C11_8 C 0.40099(11) 0.52025(11) 0.8639(4)
H4_8 H 0.414016 0.503636 0.874563
C12_8 C 0.36083(11) 0.54474(11) 0.7571(4)
H5_8 H 0.347352 0.544754 0.696054
C13_8 C 0.33956(12) 0.59612(12) 0.8212(5)
C14_8 C 0.41872(10) 0.43618(10) 0.9236(3)
H6_8 H 0.374038 0.399271 0.986937
O14_8 O 0.44586(9) 0.44831(9) 0.6511(3)
C19_8 C 0.47127(10) 0.45851(11) 0.4782(4)
C20_8 C 0.44305(11) 0.45167(12) 0.5445(4)
Li2_8 Li 0.4631(2) 0.4895(2) 0.9882(7)
C21_8 C 0.47053(10) 0.46711(11) 0.3642(4)
H7_8 H 0.452005 0.468142 0.325531
C22_8 C 0.49955(11) 0.45609(11) 0.5335(4)
H8_8 H 0.500079 0.450051 0.608957
C23_8 C 0.52655(10) 0.46248(11) 0.4782(4)
C24_8 C 0.49779(11) 0.47409(12) 0.3095(4)
C25_8 C 0.52558(11) 0.47253(12) 0.3662(4)
H9_8 H 0.543562 0.478200 0.329578
C26_8 C 0.49773(11) 0.48352(13) 0.1864(4)
C27_8 C 0.55610(11) 0.45987(13) 0.5409(4)
O16_8 O 0.57995(8) 0.46876(10) 0.4987(3)
O17_8 O 0.51674(9) 0.50336(11) 0.1560(3)
O18_8 O 0.55395(8) 0.44740(10) 0.6389(3)
O19_8 O 0.42893(13) 0.38525(12) 0.6358(4)
O20_8 O 0.4969(2) 0.5690(3) 0.1789(6)
Li4_8 Li 0.5316(2) 0.5414(2) 0.2112(7)
C28_8 C 0.4550(3) 0.3798(3) 0.6812(10)
N1_8 N 0.4709(4) 0.3546(4) 0.6426(16)
C29_8 C 0.5011(7) 0.3555(12) 0.693(4)
H10_8 H 0.514218 0.340993 0.656228
H11_8 H 0.499649 0.350471 0.772393
H12_8 H 0.509591 0.375722 0.685439
C30_8 C 0.4574(9) 0.3358(8) 0.553(3)
H13_8 H 0.437198 0.343244 0.535844
H14_8 H 0.456055 0.314931 0.578422
H15_8 H 0.469941 0.336858 0.486667
Co4_8 Co 0.59042(2) 0.44676(2) 0.73114(5)
O23_8 O 0.56005(7) 0.54471(8) 0.0836(3)
O29_8 O 0.55414(9) 0.55169(9) 0.3489(3)
Li8_8 Li 0.5369(2) 0.5105(2) 0.0118(7)
Li11_8 Li 0.6214(8) 0.4787(8) 0.526(3)
O31_8 O 0.42005(8) 0.53124(10) 0.5013(3)
O32_8 O 0.48326(9) 0.49664(11) 0.8440(3)
Li12_8 Li 0.4684(2) 0.4586(2) 0.7888(7)
H16_8 H 0.478412 0.561669 0.219722
H17_8 H 0.502024 0.590054 0.204519
H18_8 H 0.464227 0.394464 0.747551
C26_9 C 0.23352(13) 0.75227(11) 0.0636(4)
O15 O 0.22125(9) 0.77161(8) 0.1269(3)
O20_9 O 0.3190(3) 0.7531(2) 0.0711(6)
H16_9 H 0.311669 0.771588 0.030278
H17_9 H 0.340054 0.747976 0.0454809
Co2_5 Co 0.17624(2) 0.84442(2) 0.56386(5)
O3_9 O 0.16591(8) 0.83682(8) 0.3991(3)
O4_5 O 0.24449(7) 0.88217(8) 0.6487(3)
O5_9 O 0.21734(8) 0.86274(9) 0.5063(3)
C2_9 C 0.21121(11) 0.84980(11) 0.1473(4)
H1_9 H 0.226225 0.834895 0.156559
C3_9 C 0.27010(10) 0.87000(10) 0.4755(4)
O6_9 O 0.31577(8) 0.83182(10) 0.1381(3)
C4_9 C 0.18742(10) 0.85207(10) 0.2244(4)
C5_9 C 0.21261(11) 0.87008(11) 0.0551(4)
O7_9 O 0.34567(10) 0.92969(10) 0.5053(3)
C6_9 C 0.18991(11) 0.89212(11) 0.0399(4)
C7_9 C 0.29498(11) 0.84760(12) 0.3138(4)
C8_9 C 0.31986(11) 0.88833(12) 0.4184(4)
C9_9 C 0.24202(11) 0.87173(10) 0.5500(4)
C10_9 C 0.31956(11) 0.86755(11) 0.3280(4)
H3_9 H 0.335854 0.867082 0.277308
C11_9 C 0.27025(11) 0.84901(11) 0.3861(4)
H4_9 H 0.253636 0.835984 0.375437
O8_9 O 0.26294(9) 0.85529(10) 0.0229(3)
O9_9 O 0.27669(9) 0.80506(9) 0.2085(3)
C12_9 C 0.29474(11) 0.88917(11) 0.4929(4)
H5_9 H 0.294754 0.902648 0.553946
C13_9 C 0.34612(12) 0.91044(12) 0.4288(5)
C14_9 C 0.18618(10) 0.83128(10) 0.3264(3)
C15_9 C 0.29523(11) 0.82597(12) 0.2138(4)
C16_9 C 0.16513(11) 0.87446(11) 0.2108(4)
H6_9 H 0.149271 0.875962 0.263063
O10_5 O 0.14701(8) 0.94114(8) 0.0446(3)
O11_5 O 0.36735(10) 0.90619(10) 0.3581(4)
C17_9 C 0.14299(11) 0.91996(12) 0.1130(4)
C18_9 C 0.16624(11) 0.89455(11) 0.1203(4)
O12_5 O 0.12084(8) 0.91731(8) 0.1825(3)
O13_5 O 0.19771(9) 0.83207(8) 0.7536(3)
C19_9 C 0.20851(11) 0.77873(10) 0.7718(4)
C20_9 C 0.20167(12) 0.80695(11) 0.7055(4)
Li1_5 Li 0.37559(17) 0.96099(18) 0.5100(7)
C21_9 C 0.21711(11) 0.77947(10) 0.8858(4)
H7_9 H 0.218142 0.797995 0.924469
C22_9 C 0.20609(11) 0.75045(11) 0.7165(4)
H8_9 H 0.200051 0.749921 0.641043
C23_9 C 0.21248(11) 0.72345(10) 0.7718(4)
C24_9 C 0.22409(12) 0.75221(11) 0.9405(4)
C25_9 C 0.22253(12) 0.72442(11) 0.8838(4)
H9_9 H 0.228200 0.706438 0.920422
C27_9 C 0.20987(13) 0.69390(11) 0.7091(4)
O19_9 O 0.13525(12) 0.82107(13) 0.6142(4)
C28_9 C 0.1298(3) 0.7950(3) 0.5688(10)
N1_9 N 0.1046(4) 0.7791(4) 0.6074(16)
C29_9 C 0.1055(12) 0.7489(7) 0.557(4)
H10_9 H 0.090993 0.735782 0.593772
H11_9 H 0.100471 0.750351 0.477607
H12_9 H 0.125722 0.740409 0.564561
C30_9 C 0.0858(8) 0.7926(9) 0.697(3)
H13_9 H 0.093244 0.812802 0.714156
H14_9 H 0.064931 0.793945 0.671578
H15_9 H 0.086858 0.780059 0.763333
Co5_5 Co 0.40558(2) 0.92624(2) 0.31386(5)
O21 O 0.23965(8) 0.87957(8) 0.8825(3)
O22_5 O 0.37043(8) 0.98965(8) 0.6325(3)
O24_5 O 0.36783(8) 0.99449(7) 0.3987(3)
O25_5 O 0.30886(8) 0.89701(8) 0.7946(3)
O26_5 O 0.15619(10) 0.88265(10) 0.6081(4)
O28_5 O 0.41793(8) 0.94771(9) 0.5036(3)
Li5 Li 0.21099(18) 0.87441(17) 0.7600(7)
H18_9 H 0.144464 0.785773 0.502449
C1_9 C 0.24023(10) 0.86829(11) 0.9791(4)
H2_9 H 0.190379 0.905077 0.977413
O27_5 O 0.33269(8) 0.87084(8) 0.9325(3)
Co2_6 Co 0.32376(2) 0.15558(2) 0.06386(5)
O4_6 O 0.25551(7) 0.11783(8) 0.1487(3)
O5_10 O 0.28266(8) 0.13726(9) 0.0063(3)
O7_10 O 0.15433(10) 0.07031(10) 0.0053(3)
C9_10 C 0.25798(11) 0.12827(10) 0.0500(4)
H5_10 H 0.205246 0.097352 0.053946
O13_6 O 0.30229(9) 0.16793(8) 0.2536(3)
C19_10 C 0.29149(11) 0.22127(10) 0.2718(4)
C20_10 C 0.29833(12) 0.19305(11) 0.2055(4)
Li1_6 Li 0.12441(17) 0.03901(18) 0.0100(7)
C21_10 C 0.28289(11) 0.22053(10) 0.3858(4)
H7_10 H 0.281858 0.202005 0.424469
C22_10 C 0.29391(11) 0.24955(11) 0.2165(4)
H8_10 H 0.299949 0.250079 0.141043
C23_10 C 0.28752(11) 0.27655(10) 0.2718(4)
C24_10 C 0.27591(12) 0.24779(11) 0.4405(4)
C25_10 C 0.27747(12) 0.27558(11) 0.3838(4)
H9_10 H 0.271800 0.293562 0.420422
C26_10 C 0.26648(13) 0.24773(11) 0.5636(4)
C27_10 C 0.29013(13) 0.30610(11) 0.2091(4)
O15_2 O 0.27875(9) 0.22839(8) 0.6269(3)
O19_10 O 0.36475(12) 0.17893(13) 0.1142(4)
O20_10 O 0.1810(3) 0.2469(2) 0.5711(6)
C28_10 C 0.3702(3) 0.2050(3) 0.0688(10)
N1_10 N 0.3954(4) 0.2209(4) 0.1074(16)
C29_10 C 0.3945(12) 0.2511(7) 0.057(4)
H10_10 H 0.409007 0.264218 0.093772
H12_10 H 0.374278 0.259591 0.064561
C30_10 C 0.4142(8) 0.2074(9) 0.197(3)
H13_10 H 0.406756 0.187198 0.214156
H14_10 H 0.435069 0.206055 0.171578
H15_10 H 0.413142 0.219941 0.263333
O21_2 O 0.26035(8) 0.12043(8) 0.3825(3)
O22_6 O 0.12957(8) 0.01035(8) 0.1325(3)
O25_6 O 0.19114(8) 0.10299(8) 0.2946(3)
O26_6 O 0.34381(10) 0.11735(10) 0.1081(4)
O28_6 O 0.08207(8) 0.05229(9) 0.0036(3)
Li5_2 Li 0.28901(18) 0.12559(17) 0.2600(7)
H16_10 H 0.188331 0.228412 0.530278
H17_10 H 0.159946 0.252024 0.545481
H18_10 H 0.355536 0.214227 0.00244932
O3_10 O 0.33409(8) 0.16318(8) 0.8991(3)
C1_10 C 0.25977(10) 0.13171(11) 0.4791(4)
C2_10 C 0.28879(11) 0.15020(11) 0.6473(4)
H1_10 H 0.273775 0.165105 0.656559
C3_10 C 0.22990(10) 0.13000(10) 0.9755(4)
O6_10 O 0.18423(8) 0.16818(10) 0.6381(3)
C4_10 C 0.31258(10) 0.14793(10) 0.7244(4)
C5_10 C 0.28739(11) 0.12992(11) 0.5551(4)
C6_10 C 0.31009(11) 0.10788(11) 0.5399(4)
H2_10 H 0.309621 0.094923 0.477413
C7_10 C 0.20502(11) 0.15240(12) 0.8138(4)
C8_10 C 0.18014(11) 0.11167(12) 0.9184(4)
C10_10 C 0.18044(11) 0.13245(11) 0.8280(4)
H3_10 H 0.164146 0.132918 0.777308
C11_10 C 0.22975(11) 0.15099(11) 0.8861(4)
H4_10 H 0.246364 0.164016 0.875437
O8_10 O 0.23706(9) 0.14471(10) 0.5229(3)
O9_10 O 0.22331(9) 0.19494(9) 0.7085(3)
C12_10 C 0.20526(11) 0.11083(11) 0.9929(4)
C13_10 C 0.15388(12) 0.08956(12) 0.9288(5)
C14_10 C 0.31382(10) 0.16872(10) 0.8264(3)
C15_10 C 0.20477(11) 0.17403(12) 0.7138(4)
C16_10 C 0.33487(11) 0.12554(11) 0.7108(4)
H6_10 H 0.350729 0.124038 0.763063
O10_6 O 0.35299(8) 0.05886(8) 0.5446(3)
O11_6 O 0.13265(10) 0.09381(10) 0.8581(4)
C17_10 C 0.35701(11) 0.08004(12) 0.6130(4)
C18_10 C 0.33376(11) 0.10545(11) 0.6203(4)
O12_6 O 0.37916(8) 0.08269(8) 0.6825(3)
H11_10 H 0.399529 0.249649 0.977607
Co5_6 Co 0.09442(2) 0.07376(2) 0.81386(5)
O24_6 O 0.13217(8) 0.00551(7) 0.8987(3)
O27_6 O 0.16731(8) 0.12916(8) 0.4325(3)
C3_11 C 0.38000(10) 0.02010(10) 0.2255(4)
O7_11 O 0.32031(10) 0.09567(10) 0.2553(3)
C7_11 C 0.40240(12) 0.04498(11) 0.0638(4)
C8_11 C 0.36167(12) 0.06986(11) 0.1684(4)
C10_11 C 0.38245(11) 0.06956(11) 0.0780(4)
H3_11 H 0.382918 0.085854 0.027308
C11_11 C 0.40099(11) 0.02025(11) 0.1361(4)
H4_11 H 0.414016 0.003636 0.125437
C12_11 C 0.36083(11) 0.04474(11) 0.2429(4)
H5_11 H 0.347352 0.044754 0.303946
C13_11 C 0.33956(12) 0.09612(12) 0.1788(5)
O20_11 O 0.4969(2) 0.0690(3) 0.8211(6)
H16_11 H 0.478412 0.0616692 0.780278
H17_11 H 0.502024 0.0900535 0.795481
O6_11 O 0.41818(10) 0.06577(8) 0.8881(3)
O8_11 O 0.39471(10) 0.01294(9) 0.7729(3)
O9_11 O 0.44494(9) 0.02669(9) 0.9585(3)
C15_11 C 0.42403(12) 0.04523(11) 0.9638(4)
O3_11 O 0.41318(8) 0.91591(8) 0.1491(3)
O5_11 O 0.38726(9) 0.96734(8) 0.2563(3)
C9_11 C 0.37827(10) 0.99202(11) 0.3000(4)
C14_11 C 0.41872(10) 0.93618(10) 0.0764(3)
H6_11 H 0.374038 0.899271 0.013063
C19_11 C 0.47127(10) 0.95851(11) 0.5218(4)
C20_11 C 0.44305(11) 0.95167(12) 0.4555(4)
C21_11 C 0.47053(10) 0.96711(11) 0.6358(4)
H7_11 H 0.452005 0.968142 0.674469
C22_11 C 0.49955(11) 0.95609(11) 0.4665(4)
H8_11 H 0.500079 0.950051 0.391043
C23_11 C 0.52655(10) 0.96248(11) 0.5218(4)
C24_11 C 0.49779(11) 0.97409(12) 0.6905(4)
C25_11 C 0.52558(11) 0.97253(12) 0.6338(4)
H9_11 H 0.543562 0.978200 0.670422
C26_11 C 0.49773(11) 0.98352(13) 0.8136(4)
C27_11 C 0.55610(11) 0.95987(13) 0.4591(4)
O15_3 O 0.47839(8) 0.97125(9) 0.8769(3)
O19_11 O 0.42893(13) 0.88525(12) 0.3642(4)
C28_11 C 0.4550(3) 0.8798(3) 0.3188(10)
N1_11 N 0.4709(4) 0.8546(4) 0.3574(16)
C29_11 C 0.5011(7) 0.8555(12) 0.307(4)
H10_11 H 0.514218 0.840993 0.343772
H11_11 H 0.499649 0.850471 0.227607
H12_11 H 0.509591 0.875722 0.314561
C30_11 C 0.4574(9) 0.8358(8) 0.447(3)
H13_11 H 0.437198 0.843244 0.464156
H14_11 H 0.456055 0.814931 0.421578
H15_11 H 0.469941 0.836858 0.513333
H18_11 H 0.464227 0.894464 0.252449
C1_11 C 0.38171(11) 0.99023(10) 0.7291(4)
C2_11 C 0.40020(11) 0.96121(11) 0.8973(4)
H1_11 H 0.415105 0.976225 0.906559
C4_11 C 0.39793(10) 0.93742(10) 0.9744(4)
C5_11 C 0.37992(11) 0.96261(11) 0.8051(4)
C6_11 C 0.35788(11) 0.93991(11) 0.7899(4)
H2_11 H 0.344923 0.940379 0.727413
C16_11 C 0.37554(11) 0.91513(11) 0.9608(4)
C17_11 C 0.33004(12) 0.89299(11) 0.8630(4)
C18_11 C 0.35545(11) 0.91624(11) 0.8703(4)
C19_12 C 0.02873(10) 0.04149(11) 0.0218(4)
C21_12 C 0.02947(10) 0.03289(11) 0.1358(4)
H7_12 H 0.047995 0.031858 0.174469
C24_12 C 0.00221(11) 0.02591(12) 0.1905(4)
C26_12 C 0.00227(11) 0.01648(13) 0.3136(4)
O15_4 O 0.02161(8) 0.02875(9) 0.3769(3)
H15_12 H 0.030059 0.163142 0.013333
O3_12 O 0.08682(8) 0.08409(8) 0.6491(3)
C1_12 C 0.11829(11) 0.00977(10) 0.2291(4)
O5_12 O 0.11274(9) 0.03266(8) 0.7563(3)
C2_12 C 0.09980(11) 0.03879(11) 0.3973(4)
H1_12 H 0.084895 0.023775 0.406559
C4_12 C 0.10207(10) 0.06258(10) 0.4744(4)
C5_12 C 0.12008(11) 0.03739(11) 0.3051(4)
C6_12 C 0.14212(11) 0.06009(11) 0.2899(4)
H2_12 H 0.155077 0.059621 0.227413
C9_12 C 0.12173(10) 0.00798(11) 0.8000(4)
C14_12 C 0.08128(10) 0.06382(10) 0.5764(3)
C16_12 C 0.12446(11) 0.08487(11) 0.4608(4)
H6_12 H 0.125962 0.100729 0.513063
C17_12 C 0.16996(12) 0.10701(11) 0.3630(4)
C18_12 C 0.14455(11) 0.08376(11) 0.3703(4)
C20_12 C 0.05695(11) 0.04833(12) 0.9555(4)
C22_12 C 0.00045(11) 0.04391(11) 0.9665(4)
O19_12 O 0.07107(13) 0.11475(12) 0.8642(4)
C28_12 C 0.0450(3) 0.1202(3) 0.8188(10)
N1_12 N 0.0291(4) 0.1454(4) 0.8574(16)
H11_12 H 0.000351 0.149529 0.727607
C30_12 C 0.0426(9) 0.1642(8) 0.947(3)
H13_12 H 0.062802 0.156756 0.964156
H14_12 H 0.043945 0.185069 0.921578
H18_12 H 0.0357727 0.105536 0.752449
O20_12 O 0.0031(2) 0.9310(3) 0.3211(6)
H16_12 H 0.0215885 0.938331 0.280278
C3_12 C 0.12000(10) 0.97990(10) 0.7255(4)
O6_12 O 0.08182(10) 0.93423(8) 0.3881(3)
O7_12 O 0.17969(10) 0.90433(10) 0.7553(3)
C7_12 C 0.09760(12) 0.95502(11) 0.5638(4)
C8_12 C 0.13833(12) 0.93014(11) 0.6684(4)
C10_12 C 0.11755(11) 0.93044(11) 0.5780(4)
H3_12 H 0.117082 0.914146 0.527308
C11_12 C 0.09901(11) 0.97975(11) 0.6361(4)
H4_12 H 0.085984 0.996364 0.625437
O8_12 O 0.10529(10) 0.98706(9) 0.2729(3)
O9_12 O 0.05506(9) 0.97331(9) 0.4585(3)
C12_12 C 0.13917(11) 0.95526(11) 0.7429(4)
H5_12 H 0.152648 0.955246 0.803946
C13_12 C 0.16044(12) 0.90388(12) 0.6788(5)
C15_12 C 0.07597(12) 0.95477(11) 0.4638(4)
C23_12 C 0.97345(10) 0.03752(11) 0.0218(4)
C25_12 C 0.97442(11) 0.02747(12) 0.1338(4)
H9_12 H 0.956438 0.021800 0.170422
H8_12 H 0.999921 0.049949 0.891043
C27_12 C 0.94390(11) 0.04013(13) 0.9591(4)
C29_12 C 0.9989(7) 0.1445(12) 0.807(4)
H10_12 H 0.985782 0.159007 0.843772
H12_12 H 0.990409 0.124278 0.814561
H17_12 H 0.997976 0.909946 0.295481
Co2_7 Co 0.67624(2) 0.34442(2) 0.06386(5)
O4_7 O 0.74449(7) 0.38217(8) 0.1487(3)
O5_13 O 0.71734(8) 0.36274(9) 0.0063(3)
O7_13 O 0.84567(10) 0.42969(10) 0.0053(3)
C9_13 C 0.74202(11) 0.37173(10) 0.0500(4)
H5_13 H 0.794754 0.402648 0.053946
O13_7 O 0.69771(9) 0.33207(8) 0.2536(3)
C19_13 C 0.70851(11) 0.27873(10) 0.2718(4)
C20_13 C 0.70167(12) 0.30695(11) 0.2055(4)
Li1_7 Li 0.87559(17) 0.46099(18) 0.0100(7)
C21_13 C 0.71711(11) 0.27947(10) 0.3858(4)
H7_13 H 0.718142 0.297995 0.424469
C22_13 C 0.70609(11) 0.25045(11) 0.2165(4)
H8_13 H 0.700051 0.249921 0.141043
C23_13 C 0.71248(11) 0.22345(10) 0.2718(4)
C24_13 C 0.72409(12) 0.25221(11) 0.4405(4)
C25_13 C 0.72253(12) 0.22442(11) 0.3838(4)
H9_13 H 0.728200 0.206438 0.420422
C26_13 C 0.73352(13) 0.25227(11) 0.5636(4)
C27_13 C 0.70987(13) 0.19390(11) 0.2091(4)
O15_5 O 0.72125(9) 0.27161(8) 0.6269(3)
O19_13 O 0.63525(12) 0.32107(13) 0.1142(4)
O20_13 O 0.8190(3) 0.2531(2) 0.5711(6)
C28_13 C 0.6298(3) 0.2950(3) 0.0688(10)
N1_13 N 0.6046(4) 0.2791(4) 0.1074(16)
C29_13 C 0.6055(12) 0.2489(7) 0.057(4)
H10_13 H 0.590993 0.235782 0.093772
H12_13 H 0.625722 0.240409 0.064561
C30_13 C 0.5858(8) 0.2926(9) 0.197(3)
H13_13 H 0.593244 0.312802 0.214156
H14_13 H 0.564931 0.293945 0.171578
H15_13 H 0.586858 0.280059 0.263333
O21_3 O 0.73965(8) 0.37957(8) 0.3825(3)
O22_7 O 0.87043(8) 0.48965(8) 0.1325(3)
O25_7 O 0.80886(8) 0.39701(8) 0.2946(3)
O26_7 O 0.65619(10) 0.38265(10) 0.1081(4)
O28_7 O 0.91793(8) 0.44771(9) 0.0036(3)
Li5_3 Li 0.71099(18) 0.37441(17) 0.2600(7)
H16_13 H 0.811669 0.271588 0.530278
H17_13 H 0.840054 0.247976 0.545481
H18_13 H 0.644464 0.285773 0.00244932
O3_13 O 0.66591(8) 0.33682(8) 0.8991(3)
C1_13 C 0.74023(10) 0.36829(11) 0.4791(4)
C2_13 C 0.71121(11) 0.34980(11) 0.6473(4)
H1_13 H 0.726225 0.334895 0.656559
C3_13 C 0.77010(10) 0.37000(10) 0.9755(4)
O6_13 O 0.81577(8) 0.33182(10) 0.6381(3)
C4_13 C 0.68742(10) 0.35207(10) 0.7244(4)
C5_13 C 0.71261(11) 0.37008(11) 0.5551(4)
C6_13 C 0.68991(11) 0.39212(11) 0.5399(4)
H2_13 H 0.690379 0.405077 0.477413
C7_13 C 0.79498(11) 0.34760(12) 0.8138(4)
C8_13 C 0.81986(11) 0.38833(12) 0.9184(4)
C10_13 C 0.81956(11) 0.36755(11) 0.8280(4)
H3_13 H 0.835854 0.367082 0.777308
C11_13 C 0.77025(11) 0.34901(11) 0.8861(4)
H4_13 H 0.753636 0.335984 0.875437
O8_13 O 0.76294(9) 0.35529(10) 0.5229(3)
O9_13 O 0.77669(9) 0.30506(9) 0.7085(3)
C12_13 C 0.79474(11) 0.38917(11) 0.9929(4)
C13_13 C 0.84612(12) 0.41044(12) 0.9288(5)
C14_13 C 0.68618(10) 0.33128(10) 0.8264(3)
C15_13 C 0.79523(11) 0.32597(12) 0.7138(4)
C16_13 C 0.66513(11) 0.37446(11) 0.7108(4)
H6_13 H 0.649271 0.375962 0.763063
O10_7 O 0.64701(8) 0.44114(8) 0.5446(3)
O11_7 O 0.86735(10) 0.40619(10) 0.8581(4)
C17_13 C 0.64299(11) 0.41996(12) 0.6130(4)
C18_13 C 0.66624(11) 0.39455(11) 0.6203(4)
O12_7 O 0.62084(8) 0.41731(8) 0.6825(3)
H11_13 H 0.600471 0.250351 0.977607
Co5_7 Co 0.90558(2) 0.42624(2) 0.81386(5)
O24_7 O 0.86783(8) 0.49449(7) 0.8987(3)
O27_7 O 0.83269(8) 0.37084(8) 0.4325(3)
C26_14 C 0.76648(13) 0.74773(11) 0.0636(4)
O15_6 O 0.77875(9) 0.72839(8) 0.1269(3)
O20_14 O 0.6810(3) 0.7469(2) 0.0711(6)
H16_14 H 0.688331 0.728412 0.030278
H17_14 H 0.659946 0.752024 0.0454809
Co2_8 Co 0.82376(2) 0.65558(2) 0.56386(5)
O3_14 O 0.83409(8) 0.66318(8) 0.3991(3)
O4_8 O 0.75551(7) 0.61783(8) 0.6487(3)
O5_14 O 0.78266(8) 0.63726(9) 0.5063(3)
C2_14 C 0.78879(11) 0.65020(11) 0.1473(4)
H1_14 H 0.773775 0.665105 0.156559
C3_14 C 0.72990(10) 0.63000(10) 0.4755(4)
O6_14 O 0.68423(8) 0.66818(10) 0.1381(3)
C4_14 C 0.81258(10) 0.64793(10) 0.2244(4)
C5_14 C 0.78739(11) 0.62992(11) 0.0551(4)
O7_14 O 0.65433(10) 0.57031(10) 0.5053(3)
C6_14 C 0.81009(11) 0.60788(11) 0.0399(4)
C7_14 C 0.70502(11) 0.65240(12) 0.3138(4)
C8_14 C 0.68014(11) 0.61167(12) 0.4184(4)
C9_14 C 0.75798(11) 0.62827(10) 0.5500(4)
C10_14 C 0.68044(11) 0.63245(11) 0.3280(4)
H3_14 H 0.664146 0.632918 0.277308
C11_14 C 0.72975(11) 0.65099(11) 0.3861(4)
H4_14 H 0.746364 0.664016 0.375437
O8_14 O 0.73706(9) 0.64471(10) 0.0229(3)
O9_14 O 0.72331(9) 0.69494(9) 0.2085(3)
C12_14 C 0.70526(11) 0.61083(11) 0.4929(4)
H5_14 H 0.705246 0.597352 0.553946
C13_14 C 0.65388(12) 0.58956(12) 0.4288(5)
C14_14 C 0.81382(10) 0.66872(10) 0.3264(3)
C15_14 C 0.70477(11) 0.67403(12) 0.2138(4)
C16_14 C 0.83487(11) 0.62554(11) 0.2108(4)
H6_14 H 0.850729 0.624038 0.263063
O10_8 O 0.85299(8) 0.55886(8) 0.0446(3)
O11_8 O 0.63265(10) 0.59381(10) 0.3581(4)
C17_14 C 0.85701(11) 0.58004(12) 0.1130(4)
C18_14 C 0.83376(11) 0.60545(11) 0.1203(4)
O12_8 O 0.87916(8) 0.58269(8) 0.1825(3)
O13_8 O 0.80229(9) 0.66793(8) 0.7536(3)
C19_14 C 0.79149(11) 0.72127(10) 0.7718(4)
C20_14 C 0.79833(12) 0.69305(11) 0.7055(4)
Li1_8 Li 0.62441(17) 0.53901(18) 0.5100(7)
C21_14 C 0.78289(11) 0.72053(10) 0.8858(4)
H7_14 H 0.781858 0.702005 0.924469
C22_14 C 0.79391(11) 0.74955(11) 0.7165(4)
H8_14 H 0.799949 0.750079 0.641043
C23_14 C 0.78752(11) 0.77655(10) 0.7718(4)
C24_14 C 0.77591(12) 0.74779(11) 0.9405(4)
C25_14 C 0.77747(12) 0.77558(11) 0.8838(4)
H9_14 H 0.771800 0.793562 0.920422
C27_14 C 0.79013(13) 0.80610(11) 0.7091(4)
O19_14 O 0.86475(12) 0.67893(13) 0.6142(4)
C28_14 C 0.8702(3) 0.7050(3) 0.5688(10)
N1_14 N 0.8954(4) 0.7209(4) 0.6074(16)
C29_14 C 0.8945(12) 0.7511(7) 0.557(4)
H10_14 H 0.909007 0.764218 0.593772
H11_14 H 0.899529 0.749649 0.477607
H12_14 H 0.874278 0.759591 0.564561
C30_14 C 0.9142(8) 0.7074(9) 0.697(3)
H13_14 H 0.906756 0.687198 0.714156
H14_14 H 0.935069 0.706055 0.671578
H15_14 H 0.913142 0.719941 0.763333
Co5_8 Co 0.59442(2) 0.57376(2) 0.31386(5)
O21_4 O 0.76035(8) 0.62043(8) 0.8825(3)
O22_8 O 0.62957(8) 0.51035(8) 0.6325(3)
O24_8 O 0.63217(8) 0.50551(7) 0.3987(3)
O25_8 O 0.69114(8) 0.60299(8) 0.7946(3)
O26_8 O 0.84381(10) 0.61735(10) 0.6081(4)
O28_8 O 0.58207(8) 0.55229(9) 0.5036(3)
Li5_4 Li 0.78901(18) 0.62559(17) 0.7600(7)
H18_14 H 0.855536 0.714227 0.502449
C1_14 C 0.75977(10) 0.63171(11) 0.9791(4)
H2_14 H 0.809621 0.594923 0.977413
O27_8 O 0.66731(8) 0.62916(8) 0.9325(3)
C23_15 C 0.02655(10) 0.46248(11) 0.0218(4)
C25_15 C 0.02558(11) 0.47253(12) 0.1338(4)
H9_15 H 0.043562 0.478200 0.170422
H17_15 H 0.0020241 0.590054 0.295481
H8_15 H 0.000079 0.450051 0.891043
C27_15 C 0.05610(11) 0.45987(13) 0.9591(4)
C29_15 C 0.0011(7) 0.3555(12) 0.807(4)
H10_15 H 0.014218 0.340993 0.843772
H12_15 H 0.009591 0.375722 0.814561
C19_15 C 0.97127(10) 0.45851(11) 0.0218(4)
C21_15 C 0.97053(10) 0.46711(11) 0.1358(4)
H7_15 H 0.952005 0.468142 0.174469
C24_15 C 0.99779(11) 0.47409(12) 0.1905(4)
C26_15 C 0.99773(11) 0.48352(13) 0.3136(4)
O15_7 O 0.97839(8) 0.47125(9) 0.3769(3)
O20_15 O 0.9969(2) 0.5690(3) 0.3211(6)
H15_15 H 0.969941 0.336858 0.013333
H16_15 H 0.978412 0.561669 0.280278
O3_15 O 0.91318(8) 0.41591(8) 0.6491(3)
C1_15 C 0.88171(11) 0.49023(10) 0.2291(4)
O5_15 O 0.88726(9) 0.46734(8) 0.7563(3)
C2_15 C 0.90020(11) 0.46121(11) 0.3973(4)
H1_15 H 0.915105 0.476225 0.406559
C3_15 C 0.88000(10) 0.52010(10) 0.7255(4)
O6_15 O 0.91818(10) 0.56577(8) 0.3881(3)
C4_15 C 0.89793(10) 0.43742(10) 0.4744(4)
C5_15 C 0.87992(11) 0.46261(11) 0.3051(4)
O7_15 O 0.82031(10) 0.59567(10) 0.7553(3)
C6_15 C 0.85788(11) 0.43991(11) 0.2899(4)
H2_15 H 0.844923 0.440379 0.227413
C7_15 C 0.90240(12) 0.54498(11) 0.5638(4)
C8_15 C 0.86167(12) 0.56986(11) 0.6684(4)
C9_15 C 0.87827(10) 0.49202(11) 0.8000(4)
C10_15 C 0.88245(11) 0.56956(11) 0.5780(4)
H3_15 H 0.882918 0.585854 0.527308
C11_15 C 0.90099(11) 0.52025(11) 0.6361(4)
H4_15 H 0.914016 0.503636 0.625437
O8_15 O 0.89471(10) 0.51294(9) 0.2729(3)
O9_15 O 0.94494(9) 0.52669(9) 0.4585(3)
C12_15 C 0.86083(11) 0.54474(11) 0.7429(4)
H5_15 H 0.847352 0.544754 0.803946
C13_15 C 0.83956(12) 0.59612(12) 0.6788(5)
C14_15 C 0.91872(10) 0.43618(10) 0.5764(3)
C15_15 C 0.92403(12) 0.54523(11) 0.4638(4)
C16_15 C 0.87554(11) 0.41513(11) 0.4608(4)
H6_15 H 0.874038 0.399271 0.513063
C17_15 C 0.83004(12) 0.39299(11) 0.3630(4)
C18_15 C 0.85545(11) 0.41624(11) 0.3703(4)
C20_15 C 0.94305(11) 0.45167(12) 0.9555(4)
C22_15 C 0.99955(11) 0.45609(11) 0.9665(4)
O19_15 O 0.92893(13) 0.38525(12) 0.8642(4)
C28_15 C 0.9550(3) 0.3798(3) 0.8188(10)
N1_15 N 0.9709(4) 0.3546(4) 0.8574(16)
H11_15 H 0.999649 0.350471 0.727607
C30_15 C 0.9574(9) 0.3358(8) 0.947(3)
H13_15 H 0.937198 0.343244 0.964156
H14_15 H 0.956055 0.314931 0.921578
H18_15 H 0.964227 0.394464 0.752449
O3_16 O 0.58682(8) 0.58409(8) 0.1491(3)
O5_16 O 0.61274(9) 0.53266(8) 0.2563(3)
C3_16 C 0.62000(10) 0.47990(10) 0.2255(4)
O7_16 O 0.67969(10) 0.40433(10) 0.2553(3)
C7_16 C 0.59760(12) 0.45502(11) 0.0638(4)
C8_16 C 0.63833(12) 0.43014(11) 0.1684(4)
C9_16 C 0.62173(10) 0.50798(11) 0.3000(4)
C10_16 C 0.61755(11) 0.43044(11) 0.0780(4)
H3_16 H 0.617082 0.414146 0.027308
C11_16 C 0.59901(11) 0.47975(11) 0.1361(4)
H4_16 H 0.585984 0.496364 0.125437
C12_16 C 0.63917(11) 0.45526(11) 0.2429(4)
H5_16 H 0.652648 0.455246 0.303946
C13_16 C 0.66044(12) 0.40388(12) 0.1788(5)
C14_16 C 0.58128(10) 0.56382(10) 0.0764(3)
H6_16 H 0.625962 0.600729 0.013063
C19_16 C 0.52873(10) 0.54149(11) 0.5218(4)
C20_16 C 0.55695(11) 0.54833(12) 0.4555(4)
C21_16 C 0.52947(10) 0.53289(11) 0.6358(4)
H7_16 H 0.547995 0.531858 0.674469
C22_16 C 0.50045(11) 0.54391(11) 0.4665(4)
H8_16 H 0.499921 0.549949 0.391043
C23_16 C 0.47345(10) 0.53752(11) 0.5218(4)
C24_16 C 0.50221(11) 0.52591(12) 0.6905(4)
C25_16 C 0.47442(11) 0.52747(12) 0.6338(4)
H9_16 H 0.456438 0.521800 0.670422
C26_16 C 0.50227(11) 0.51648(13) 0.8136(4)
C27_16 C 0.44390(11) 0.54013(13) 0.4591(4)
O15_8 O 0.52161(8) 0.52875(9) 0.8769(3)
O19_16 O 0.57107(13) 0.61475(12) 0.3642(4)
O20_16 O 0.5031(2) 0.4310(3) 0.8211(6)
C28_16 C 0.5450(3) 0.6202(3) 0.3188(10)
N1_16 N 0.5291(4) 0.6454(4) 0.3574(16)
C29_16 C 0.4989(7) 0.6445(12) 0.307(4)
H10_16 H 0.485782 0.659007 0.343772
H11_16 H 0.500351 0.649529 0.227607
H12_16 H 0.490409 0.624278 0.314561
C30_16 C 0.5426(9) 0.6642(8) 0.447(3)
H13_16 H 0.562802 0.656756 0.464156
H14_16 H 0.543945 0.685069 0.421578
H15_16 H 0.530059 0.663142 0.513333
H16_16 H 0.521588 0.438331 0.780278
H17_16 H 0.497976 0.409946 0.795481
H18_16 H 0.535773 0.605536 0.252449
C1_16 C 0.61829(11) 0.50977(10) 0.7291(4)
C2_16 C 0.59980(11) 0.53879(11) 0.8973(4)
H1_16 H 0.584895 0.523775 0.906559
O6_16 O 0.58182(10) 0.43423(8) 0.8881(3)
C4_16 C 0.60207(10) 0.56258(10) 0.9744(4)
C5_16 C 0.62008(11) 0.53739(11) 0.8051(4)
C6_16 C 0.64212(11) 0.56009(11) 0.7899(4)
H2_16 H 0.655077 0.559621 0.727413
O8_16 O 0.60529(10) 0.48706(9) 0.7729(3)
O9_16 O 0.55506(9) 0.47331(9) 0.9585(3)
C15_16 C 0.57597(12) 0.45477(11) 0.9638(4)
C16_16 C 0.62446(11) 0.58487(11) 0.9608(4)
C17_16 C 0.66996(12) 0.60701(11) 0.8630(4)
C18_16 C 0.64455(11) 0.58376(11) 0.8703(4)
loop_
_geom_bond_atom_site_label_1
_geom_bond_atom_site_label_2
_geom_bond_site_symmetry_1
_geom_bond_site_symmetry_2
O1 C1 1_555 1_555
O27 Co1 1_555 1_555
Li6 O1 1_555 1_555
Li9 O1 1_555 1_555
O33 Co1 1_555 1_555
Co2 O3 1_555 1_555
O2 C14 1_555 1_555
O3 C14 1_555 1_555
O4 C9 1_555 1_555
O5 Co2 1_555 1_555
C2 H1 1_555 1_555
C3 C9 1_555 1_555
O6 C15 1_555 1_555
C4 C2 1_555 1_555
C5 C2 1_555 1_555
O7 C13 1_555 1_555
C6 C5 1_555 1_555
C7 C10 1_555 1_555
C8 C10 1_555 1_555
C9 O5 1_555 1_555
C10 H3 1_555 1_555
C11 C3 1_555 1_555
H4 C11 1_555 1_555
O9 C15 1_555 1_555
C12 C3 1_555 1_555
H5 C12 1_555 1_555
C13 C8 1_555 1_555
C14 C4 1_555 1_555
C15 C7 1_555 1_555
C16 C4 1_555 1_555
H6 C16 1_555 1_555
O10 C17 1_555 1_555
O11 C13 1_555 1_555
C17 C18 1_555 1_555
C18 C6 1_555 1_555
O12 C17 1_555 1_555
O13 C20 1_555 1_555
O14 Co2 1_555 1_555
C19 C20 1_555 1_555
C20 O14 1_555 1_555
Li1 O7 1_555 1_555
Li2 O2 1_555 1_555
C21 C19 1_555 1_555
H7 C21 1_555 1_555
C22 C19 1_555 1_555
H8 C22 1_555 1_555
C23 C22 1_555 1_555
C24 C21 1_555 1_555
C25 C23 1_555 1_555
H9 C25 1_555 1_555
Li9 O4 1_555 1_555
C27 C23 1_555 1_555
O16 C27 1_555 1_555
O18 C27 1_555 1_555
O19 Co2 1_555 1_555
C28 O19 1_555 1_555
N1 C28 1_555 1_555
C29 N1 1_555 1_555
H10 C29 1_555 1_555
H11 C29 1_555 1_555
H12 C29 1_555 1_555
C30 N1 1_555 1_555
H13 C30 1_555 1_555
H14 C30 1_555 1_555
H15 C30 1_555 1_555
Co3 O12 1_555 1_555
Co4 O18 1_555 1_555
Co5 O11 1_555 1_555
O22 Li1 1_555 1_555
O24 Li1 1_555 1_555
O25 Li9 1_555 1_555
O26 Co2 1_555 1_555
O28 Li1 1_555 1_555
Li6 O4 1_555 1_555
Li10 O10 1_555 1_555
Li11 O16 1_555 1_555
O30 Li2 1_555 1_555
O31 Li9 1_555 1_555
O32 Li2 1_555 1_555
Li12 O2 1_555 1_555
C7 C11 1_555 1_555
C8 C12 1_555 1_555
O9 Li2 1_555 1_555
C16 C18 1_555 1_555
O13 Li6 1_555 1_555
O14 Li12 1_555 1_555
C24 C25 1_555 1_555
O32 Li12 1_555 1_555
C28 H18 1_555 1_555
O30 C26 1_555 1_555
O17 C26 1_555 1_555
O20 Li4 1_555 1_555
Li4 O17 1_555 1_555
O23 Li4 1_555 1_555
Li8 O17 1_555 1_555
O23 Li8 1_555 1_555
O20 H16 1_555 1_555
O20 H17 1_555 1_555
Co1_2 O6_2 1_555 1_555
O1_2 C1_2 1_555 1_555
O2_2 C14_2 1_555 1_555
O3_2 C14_2 1_555 1_555
C1_2 C5_2 1_555 1_555
C2_2 H1_2 1_555 1_555
O6_2 C15_2 1_555 1_555
C4_2 C2_2 1_555 1_555
C5_2 C2_2 1_555 1_555
C6_2 C5_2 1_555 1_555
H2_2 C6_2 1_555 1_555
C7_2 C10_2 1_555 1_555
C8_2 C10_2 1_555 1_555
C10_2 H3_2 1_555 1_555
C11_2 C3_2 1_555 1_555
H4_2 C11_2 1_555 1_555
O8_2 Co1_2 1_555 1_555
O9_2 C15_2 1_555 1_555
C12_2 C3_2 1_555 1_555
C13_2 C8_2 1_555 1_555
C14_2 C4_2 1_555 1_555
C15_2 C7_2 1_555 1_555
C16_2 C4_2 1_555 1_555
H6_2 C16_2 1_555 1_555
O10_2 C17_2 1_555 1_555
O11_2 C13_2 1_555 1_555
C17_2 C18_2 1_555 1_555
C18_2 C6_2 1_555 1_555
O12_2 C17_2 1_555 1_555
Li2_2 O2_2 1_555 1_555
Co3_2 O12_2 1_555 1_555
Co5_2 O11_2 1_555 1_555
O27_2 Co1_2 1_555 1_555
Li6_2 O1_2 1_555 1_555
Li9_2 O1_2 1_555 1_555
Li10_2 O10_2 1_555 1_555
O30_2 Li2_2 1_555 1_555
O32_2 Li2_2 1_555 1_555
O33_2 Co1_2 1_555 1_555
Li12_2 O2_2 1_555 1_555
C1_2 O8_2 1_555 1_555
C7_2 C11_2 1_555 1_555
C8_2 C12_2 1_555 1_555
O9_2 Li2_2 1_555 1_555
C16_2 C18_2 1_555 1_555
O32_2 Li12_2 1_555 1_555
O4_2 C9_2 1_555 1_555
O5_2 Co2_2 1_555 1_555
C9_2 O5_2 1_555 1_555
O13_2 C20_2 1_555 1_555
O14_2 Co2_2 1_555 1_555
C19_2 C20_2 1_555 1_555
C20_2 O14_2 1_555 1_555
Li1_2 O7_2 1_555 1_555
C21_2 C19_2 1_555 1_555
H7_2 C21_2 1_555 1_555
C22_2 C19_2 1_555 1_555
H8_2 C22_2 1_555 1_555
C23_2 C22_2 1_555 1_555
C24_2 C21_2 1_555 1_555
C25_2 C23_2 1_555 1_555
H9_2 C25_2 1_555 1_555
Li9_2 O4_2 1_555 1_555
C26_2 C24_2 1_555 1_555
C27_2 C23_2 1_555 1_555
O30_2 C26_2 1_555 1_555
O16_2 C27_2 1_555 1_555
O17_2 C26_2 1_555 1_555
O18_2 C27_2 1_555 1_555
O19_2 Co2_2 1_555 1_555
O20_2 Li4_2 1_555 1_555
Li4_2 O17_2 1_555 1_555
C28_2 O19_2 1_555 1_555
N1_2 C28_2 1_555 1_555
C29_2 N1_2 1_555 1_555
H10_2 C29_2 1_555 1_555
H12_2 C29_2 1_555 1_555
C30_2 N1_2 1_555 1_555
H13_2 C30_2 1_555 1_555
H14_2 C30_2 1_555 1_555
H15_2 C30_2 1_555 1_555
Co4_2 O18_2 1_555 1_555
O22_2 Li1_2 1_555 1_555
O23_2 Li4_2 1_555 1_555
O25_2 Li9_2 1_555 1_555
O26_2 Co2_2 1_555 1_555
O28_2 Li1_2 1_555 1_555
O29_2 Li4_2 1_555 1_555
Li6_2 O4_2 1_555 1_555
Li8_2 O17_2 1_555 1_555
Li11_2 O16_2 1_555 1_555
O31_2 Li9_2 1_555 1_555
O13_2 Li6_2 1_555 1_555
C24_2 C25_2 1_555 1_555
O23_2 Li8_2 1_555 1_555
O20_2 H16_2 1_555 1_555
O20_2 H17_2 1_555 1_555
C28_2 H18_2 1_555 1_555
O22 C1_3 1_555 1_555
C1_3 C5_3 1_555 1_555
C2_3 H1_3 1_555 1_555
C4_3 C2_3 1_555 1_555
C5_3 C2_3 1_555 1_555
C6_3 C5_3 1_555 1_555
H2_3 C6_3 1_555 1_555
C16_3 C4_3 1_555 1_555
O25 C17_3 1_555 1_555
C17_3 C18_3 1_555 1_555
C18_3 C6_3 1_555 1_555
O27 C17_3 1_555 1_555
C16_3 C18_3 1_555 1_555
Co5 O3_3 1_555 1_555
O2_3 C14_3 1_555 1_555
O3_3 C14_3 1_555 1_555
O24 C9_3 1_555 1_555
O5_3 Co5 1_555 1_555
C9_3 O5_3 1_555 1_555
O28 C20_3 1_555 1_555
O14_3 Co5 1_555 1_555
C19_3 C20_3 1_555 1_555
C20_3 O14_3 1_555 1_555
Li2_3 O2_3 1_555 1_555
C21_3 C19_3 1_555 1_555
H7_3 C21_3 1_555 1_555
C22_3 C19_3 1_555 1_555
H8_3 C22_3 1_555 1_555
C23_3 C22_3 1_555 1_555
C24_3 C21_3 1_555 1_555
C25_3 C23_3 1_555 1_555
H9_3 C25_3 1_555 1_555
C26_3 C24_3 1_555 1_555
C27_3 C23_3 1_555 1_555
O30_3 C26_3 1_555 1_555
O16_3 C27_3 1_555 1_555
O18_3 C27_3 1_555 1_555
O19_3 Co5 1_555 1_555
C28_3 O19_3 1_555 1_555
N1_3 C28_3 1_555 1_555
C29_3 N1_3 1_555 1_555
H10_3 C29_3 1_555 1_555
H11_3 C29_3 1_555 1_555
H12_3 C29_3 1_555 1_555
C30_3 N1_3 1_555 1_555
H13_3 C30_3 1_555 1_555
H14_3 C30_3 1_555 1_555
H15_3 C30_3 1_555 1_555
Co4_3 O18_3 1_555 1_555
Li11_3 O16_3 1_555 1_555
O32_3 Li2_3 1_555 1_555
Li12_3 O2_3 1_555 1_555
O14_3 Li12_3 1_555 1_555
C24_3 C25_3 1_555 1_555
O32_3 Li12_3 1_555 1_555
C28_3 H18_3 1_555 1_555
Co3_2 O6_3 1_555 1_555
O6_3 C15_3 1_555 1_555
O8_3 Co3_2 1_555 1_555
O9_3 C15_3 1_555 1_555
O33_3 Co3_2 1_555 1_555
O7_3 C13_3 1_555 1_555
C7_3 C10_3 1_555 1_555
C8_3 C10_3 1_555 1_555
C10_3 H3_3 1_555 1_555
C11_3 C3_3 1_555 1_555
H4_3 C11_3 1_555 1_555
C12_3 C3_3 1_555 1_555
H5_3 C12_3 1_555 1_555
C13_3 C8_3 1_555 1_555
O26_2 C13_3 1_555 1_555
Li6_2 O7_3 1_555 1_555
O20_3 Li4_3 1_555 1_555
Li4_3 O17_3 1_555 1_555
O23_3 Li4_3 1_555 1_555
O29_3 Li4_3 1_555 1_555
Li8_3 O17_3 1_555 1_555
O31_3 Li10_2 1_555 1_555
C7_3 C11_3 1_555 1_555
C8_3 C12_3 1_555 1_555
O23_3 Li8_3 1_555 1_555
O20_3 H16_3 1_555 1_555
O20_3 H17_3 1_555 1_555
Li4_4 O17_4 1_555 1_555
O23_4 Li4_4 1_555 1_555
O29_4 Li4_4 1_555 1_555
Li8_4 O17_4 1_555 1_555
O23_4 Li8_4 1_555 1_555
O18_4 C27_4 1_555 1_555
H10_4 C29_4 1_555 1_555
H12_4 C29_4 1_555 1_555
Co4_4 O18_4 1_555 1_555
C25_4 C23_4 1_555 1_555
H9_4 C25_4 1_555 1_555
Co3 O6_4 1_555 1_555
O6_4 C15_4 1_555 1_555
O7_4 C13_4 1_555 1_555
C7_4 C10_4 1_555 1_555
C8_4 C10_4 1_555 1_555
C10_4 H3_4 1_555 1_555
C11_4 C3_4 1_555 1_555
H4_4 C11_4 1_555 1_555
O8_4 Co3 1_555 1_555
O9_4 C15_4 1_555 1_555
C12_4 C3_4 1_555 1_555
H5_4 C12_4 1_555 1_555
C13_4 C8_4 1_555 1_555
C15_4 C7_4 1_555 1_555
O26 C13_4 1_555 1_555
Li6 O7_4 1_555 1_555
O33_4 Co3 1_555 1_555
C7_4 C11_4 1_555 1_555
C8_4 C12_4 1_555 1_555
O20_4 H16_4 1_555 1_555
Co5_2 O3_4 1_555 1_555
O22_2 C1_4 1_555 1_555
O2_4 C14_4 1_555 1_555
O3_4 C14_4 1_555 1_555
O24_2 C9_4 1_555 1_555
C1_4 C5_4 1_555 1_555
O5_4 Co5_2 1_555 1_555
C2_4 H1_4 1_555 1_555
C4_4 C2_4 1_555 1_555
C5_4 C2_4 1_555 1_555
C6_4 C5_4 1_555 1_555
H2_4 C6_4 1_555 1_555
C9_4 O5_4 1_555 1_555
C14_4 C4_4 1_555 1_555
C16_4 C4_4 1_555 1_555
H6_4 C16_4 1_555 1_555
O25_2 C17_4 1_555 1_555
C17_4 C18_4 1_555 1_555
C18_4 C6_4 1_555 1_555
O27_2 C17_4 1_555 1_555
O14_4 Co5_2 1_555 1_555
C20_4 O14_4 1_555 1_555
Li2_4 O2_4 1_555 1_555
O19_4 Co5_2 1_555 1_555
C28_4 O19_4 1_555 1_555
N1_4 C28_4 1_555 1_555
C30_4 N1_4 1_555 1_555
H13_4 C30_4 1_555 1_555
H14_4 C30_4 1_555 1_555
O30_4 Li2_4 1_555 1_555
O32_4 Li2_4 1_555 1_555
Li12_4 O2_4 1_555 1_555
C16_4 C18_4 1_555 1_555
O14_4 Li12_4 1_555 1_555
O32_4 Li12_4 1_555 1_555
C28_4 H18_4 1_555 1_555
C21_4 C19_4 1_555 1_555
H7_4 C21_4 1_555 1_555
C24_4 C21_4 1_555 1_555
C26_4 C24_4 1_555 1_555
O30_4 C26_4 1_555 1_555
Co1_3 O6_5 1_555 1_555
O1_3 C1_5 1_555 1_555
O2_5 C14_5 1_555 1_555
O3_5 C14_5 1_555 1_555
C1_5 C5_5 1_555 1_555
C2_5 H1_5 1_555 1_555
O6_5 C15_5 1_555 1_555
C4_5 C2_5 1_555 1_555
C5_5 C2_5 1_555 1_555
C6_5 C5_5 1_555 1_555
H2_5 C6_5 1_555 1_555
C7_5 C10_5 1_555 1_555
C8_5 C10_5 1_555 1_555
C10_5 H3_5 1_555 1_555
C11_5 C3_5 1_555 1_555
H4_5 C11_5 1_555 1_555
O8_5 Co1_3 1_555 1_555
O9_5 C15_5 1_555 1_555
C12_5 C3_5 1_555 1_555
C13_5 C8_5 1_555 1_555
C14_5 C4_5 1_555 1_555
C15_5 C7_5 1_555 1_555
C16_5 C4_5 1_555 1_555
H6_5 C16_5 1_555 1_555
O10_3 C17_5 1_555 1_555
O11_3 C13_5 1_555 1_555
C17_5 C18_5 1_555 1_555
C18_5 C6_5 1_555 1_555
O12_3 C17_5 1_555 1_555
Li2_5 O2_5 1_555 1_555
Co3_3 O12_3 1_555 1_555
Co5_3 O11_3 1_555 1_555
O27_3 Co1_3 1_555 1_555
Li6_3 O1_3 1_555 1_555
Li9_3 O1_3 1_555 1_555
Li10_3 O10_3 1_555 1_555
O30_5 Li2_5 1_555 1_555
O32_5 Li2_5 1_555 1_555
O33_5 Co1_3 1_555 1_555
Li12_5 O2_5 1_555 1_555
C1_5 O8_5 1_555 1_555
C7_5 C11_5 1_555 1_555
C8_5 C12_5 1_555 1_555
O9_5 Li2_5 1_555 1_555
C16_5 C18_5 1_555 1_555
O32_5 Li12_5 1_555 1_555
O4_3 C9_5 1_555 1_555
O5_5 Co2_3 1_555 1_555
C9_5 O5_5 1_555 1_555
O13_3 C20_5 1_555 1_555
O14_5 Co2_3 1_555 1_555
C19_5 C20_5 1_555 1_555
C20_5 O14_5 1_555 1_555
Li1_3 O7_5 1_555 1_555
C21_5 C19_5 1_555 1_555
H7_5 C21_5 1_555 1_555
C22_5 C19_5 1_555 1_555
H8_5 C22_5 1_555 1_555
C23_5 C22_5 1_555 1_555
C24_5 C21_5 1_555 1_555
C25_5 C23_5 1_555 1_555
H9_5 C25_5 1_555 1_555
Li9_3 O4_3 1_555 1_555
C26_5 C24_5 1_555 1_555
C27_5 C23_5 1_555 1_555
O30_5 C26_5 1_555 1_555
O16_5 C27_5 1_555 1_555
O17_5 C26_5 1_555 1_555
O18_5 C27_5 1_555 1_555
O19_5 Co2_3 1_555 1_555
O20_5 Li4_5 1_555 1_555
Li4_5 O17_5 1_555 1_555
C28_5 O19_5 1_555 1_555
N1_5 C28_5 1_555 1_555
C29_5 N1_5 1_555 1_555
H10_5 C29_5 1_555 1_555
H12_5 C29_5 1_555 1_555
C30_5 N1_5 1_555 1_555
H13_5 C30_5 1_555 1_555
H14_5 C30_5 1_555 1_555
H15_5 C30_5 1_555 1_555
Co4_5 O18_5 1_555 1_555
O22_3 Li1_3 1_555 1_555
O23_5 Li4_5 1_555 1_555
O25_3 Li9_3 1_555 1_555
O26_3 Co2_3 1_555 1_555
O28_3 Li1_3 1_555 1_555
O29_5 Li4_5 1_555 1_555
Li6_3 O4_3 1_555 1_555
Li8_5 O17_5 1_555 1_555
Li11_5 O16_5 1_555 1_555
O31_5 Li9_3 1_555 1_555
O13_3 Li6_3 1_555 1_555
C24_5 C25_5 1_555 1_555
O23_5 Li8_5 1_555 1_555
O20_5 H16_5 1_555 1_555
O20_5 H17_5 1_555 1_555
C28_5 H18_5 1_555 1_555
O1_4 C1_6 1_555 1_555
O27_4 Co1_4 1_555 1_555
Li6_4 O1_4 1_555 1_555
Li9_4 O1_4 1_555 1_555
O33_6 Co1_4 1_555 1_555
Co2_4 O3_6 1_555 1_555
O2_6 C14_6 1_555 1_555
O3_6 C14_6 1_555 1_555
O4_4 C9_6 1_555 1_555
O5_6 Co2_4 1_555 1_555
C2_6 H1_6 1_555 1_555
C3_6 C9_6 1_555 1_555
O6_6 C15_6 1_555 1_555
C4_6 C2_6 1_555 1_555
C5_6 C2_6 1_555 1_555
O7_6 C13_6 1_555 1_555
C6_6 C5_6 1_555 1_555
C7_6 C10_6 1_555 1_555
C8_6 C10_6 1_555 1_555
C9_6 O5_6 1_555 1_555
C10_6 H3_6 1_555 1_555
C11_6 C3_6 1_555 1_555
H4_6 C11_6 1_555 1_555
O9_6 C15_6 1_555 1_555
C12_6 C3_6 1_555 1_555
H5_6 C12_6 1_555 1_555
C13_6 C8_6 1_555 1_555
C14_6 C4_6 1_555 1_555
C15_6 C7_6 1_555 1_555
C16_6 C4_6 1_555 1_555
H6_6 C16_6 1_555 1_555
O10_4 C17_6 1_555 1_555
O11_4 C13_6 1_555 1_555
C17_6 C18_6 1_555 1_555
C18_6 C6_6 1_555 1_555
O12_4 C17_6 1_555 1_555
O13_4 C20_6 1_555 1_555
O14_6 Co2_4 1_555 1_555
C19_6 C20_6 1_555 1_555
C20_6 O14_6 1_555 1_555
Li1_4 O7_6 1_555 1_555
Li2_6 O2_6 1_555 1_555
C21_6 C19_6 1_555 1_555
H7_6 C21_6 1_555 1_555
C22_6 C19_6 1_555 1_555
H8_6 C22_6 1_555 1_555
C23_6 C22_6 1_555 1_555
C24_6 C21_6 1_555 1_555
C25_6 C23_6 1_555 1_555
H9_6 C25_6 1_555 1_555
Li9_4 O4_4 1_555 1_555
C27_6 C23_6 1_555 1_555
O16_6 C27_6 1_555 1_555
O18_6 C27_6 1_555 1_555
O19_6 Co2_4 1_555 1_555
C28_6 O19_6 1_555 1_555
N1_6 C28_6 1_555 1_555
C29_6 N1_6 1_555 1_555
H10_6 C29_6 1_555 1_555
H11_6 C29_6 1_555 1_555
H12_6 C29_6 1_555 1_555
C30_6 N1_6 1_555 1_555
H13_6 C30_6 1_555 1_555
H14_6 C30_6 1_555 1_555
H15_6 C30_6 1_555 1_555
Co3_4 O12_4 1_555 1_555
Co4_6 O18_6 1_555 1_555
Co5_4 O11_4 1_555 1_555
O22_4 Li1_4 1_555 1_555
O24_4 Li1_4 1_555 1_555
O25_4 Li9_4 1_555 1_555
O26_4 Co2_4 1_555 1_555
O28_4 Li1_4 1_555 1_555
Li6_4 O4_4 1_555 1_555
Li10_4 O10_4 1_555 1_555
Li11_6 O16_6 1_555 1_555
O30_6 Li2_6 1_555 1_555
O31_6 Li9_4 1_555 1_555
O32_6 Li2_6 1_555 1_555
Li12_6 O2_6 1_555 1_555
C7_6 C11_6 1_555 1_555
C8_6 C12_6 1_555 1_555
O9_6 Li2_6 1_555 1_555
C16_6 C18_6 1_555 1_555
O13_4 Li6_4 1_555 1_555
O14_6 Li12_6 1_555 1_555
C24_6 C25_6 1_555 1_555
O32_6 Li12_6 1_555 1_555
C28_6 H18_6 1_555 1_555
O30_6 C26_6 1_555 1_555
O17_6 C26_6 1_555 1_555
O20_6 Li4_6 1_555 1_555
Li4_6 O17_6 1_555 1_555
O23_6 Li4_6 1_555 1_555
Li8_6 O17_6 1_555 1_555
O23_6 Li8_6 1_555 1_555
O20_6 H16_6 1_555 1_555
O20_6 H17_6 1_555 1_555
Co3_4 O6_7 1_555 1_555
Co5_3 O3_7 1_555 1_555
O22_3 C1_7 1_555 1_555
O2_7 C14_7 1_555 1_555
O3_7 C14_7 1_555 1_555
O24_3 C9_7 1_555 1_555
C1_7 C5_7 1_555 1_555
O5_7 Co5_3 1_555 1_555
C2_7 H1_7 1_555 1_555
C3_7 C9_7 1_555 1_555
O6_7 C15_7 1_555 1_555
C4_7 C2_7 1_555 1_555
C5_7 C2_7 1_555 1_555
O7_7 C13_7 1_555 1_555
C6_7 C5_7 1_555 1_555
H2_7 C6_7 1_555 1_555
C7_7 C10_7 1_555 1_555
C8_7 C10_7 1_555 1_555
C9_7 O5_7 1_555 1_555
C10_7 H3_7 1_555 1_555
C11_7 C3_7 1_555 1_555
H4_7 C11_7 1_555 1_555
O8_7 Co3_4 1_555 1_555
O9_7 C15_7 1_555 1_555
C12_7 C3_7 1_555 1_555
H5_7 C12_7 1_555 1_555
C13_7 C8_7 1_555 1_555
C14_7 C4_7 1_555 1_555
C15_7 C7_7 1_555 1_555
C16_7 C4_7 1_555 1_555
H6_7 C16_7 1_555 1_555
O25_3 C17_7 1_555 1_555
O26_4 C13_7 1_555 1_555
C17_7 C18_7 1_555 1_555
C18_7 C6_7 1_555 1_555
O27_3 C17_7 1_555 1_555
O14_7 Co5_3 1_555 1_555
C20_7 O14_7 1_555 1_555
Li6_4 O7_7 1_555 1_555
Li2_7 O2_7 1_555 1_555
O19_7 Co5_3 1_555 1_555
C28_7 O19_7 1_555 1_555
N1_7 C28_7 1_555 1_555
C30_7 N1_7 1_555 1_555
H13_7 C30_7 1_555 1_555
H14_7 C30_7 1_555 1_555
Li10_4 O22_3 1_555 1_555
O30_7 Li2_7 1_555 1_555
O32_7 Li2_7 1_555 1_555
O33_7 Co3_4 1_555 1_555
Li12_7 O2_7 1_555 1_555
C1_7 O8_7 1_555 1_555
C7_7 C11_7 1_555 1_555
C8_7 C12_7 1_555 1_555
O9_7 Li2_7 1_555 1_555
C16_7 C18_7 1_555 1_555
O14_7 Li12_7 1_555 1_555
O32_7 Li12_7 1_555 1_555
C28_7 H18_7 1_555 1_555
C21_7 C19_7 1_555 1_555
H7_7 C21_7 1_555 1_555
C24_7 C21_7 1_555 1_555
C26_7 C24_7 1_555 1_555
O30_7 C26_7 1_555 1_555
O20_7 H16_7 1_555 1_555
O18_7 C27_7 1_555 1_555
H10_7 C29_7 1_555 1_555
H12_7 C29_7 1_555 1_555
Co4_7 O18_7 1_555 1_555
C25_7 C23_7 1_555 1_555
H9_7 C25_7 1_555 1_555
Li4_7 O17_7 1_555 1_555
O23_7 Li4_7 1_555 1_555
O29_7 Li4_7 1_555 1_555
Li8_7 O17_7 1_555 1_555
O23_7 Li8_7 1_555 1_555
Co3_3 O6_8 1_555 1_555
O22_4 C1_8 1_555 1_555
C1_8 C5_8 1_555 1_555
C2_8 H1_8 1_555 1_555
O6_8 C15_8 1_555 1_555
C4_8 C2_8 1_555 1_555
C5_8 C2_8 1_555 1_555
C6_8 C5_8 1_555 1_555
H2_8 C6_8 1_555 1_555
O8_8 Co3_3 1_555 1_555
O9_8 C15_8 1_555 1_555
C16_8 C4_8 1_555 1_555
O25_4 C17_8 1_555 1_555
C17_8 C18_8 1_555 1_555
C18_8 C6_8 1_555 1_555
O27_4 C17_8 1_555 1_555
Li10_3 O22_4 1_555 1_555
O33_8 Co3_3 1_555 1_555
C1_8 O8_8 1_555 1_555
C16_8 C18_8 1_555 1_555
Co5_4 O3_8 1_555 1_555
O2_8 C14_8 1_555 1_555
O3_8 C14_8 1_555 1_555
O24_4 C9_8 1_555 1_555
O5_8 Co5_4 1_555 1_555
C3_8 C9_8 1_555 1_555
O7_8 C13_8 1_555 1_555
C7_8 C10_8 1_555 1_555
C8_8 C10_8 1_555 1_555
C9_8 O5_8 1_555 1_555
C10_8 H3_8 1_555 1_555
C11_8 C3_8 1_555 1_555
H4_8 C11_8 1_555 1_555
C12_8 C3_8 1_555 1_555
H5_8 C12_8 1_555 1_555
C13_8 C8_8 1_555 1_555
O26_3 C13_8 1_555 1_555
O28_4 C20_8 1_555 1_555
O14_8 Co5_4 1_555 1_555
C19_8 C20_8 1_555 1_555
C20_8 O14_8 1_555 1_555
Li6_3 O7_8 1_555 1_555
Li2_8 O2_8 1_555 1_555
C21_8 C19_8 1_555 1_555
H7_8 C21_8 1_555 1_555
C22_8 C19_8 1_555 1_555
H8_8 C22_8 1_555 1_555
C23_8 C22_8 1_555 1_555
C24_8 C21_8 1_555 1_555
C25_8 C23_8 1_555 1_555
H9_8 C25_8 1_555 1_555
Li10_3 O24_4 1_555 1_555
C26_8 C24_8 1_555 1_555
C27_8 C23_8 1_555 1_555
O30_8 C26_8 1_555 1_555
O16_8 C27_8 1_555 1_555
O17_8 C26_8 1_555 1_555
O18_8 C27_8 1_555 1_555
O19_8 Co5_4 1_555 1_555
O20_8 Li4_8 1_555 1_555
Li4_8 O17_8 1_555 1_555
C28_8 O19_8 1_555 1_555
N1_8 C28_8 1_555 1_555
C29_8 N1_8 1_555 1_555
H10_8 C29_8 1_555 1_555
H11_8 C29_8 1_555 1_555
H12_8 C29_8 1_555 1_555
C30_8 N1_8 1_555 1_555
H13_8 C30_8 1_555 1_555
H14_8 C30_8 1_555 1_555
H15_8 C30_8 1_555 1_555
Co4_8 O18_8 1_555 1_555
O23_8 Li4_8 1_555 1_555
O29_8 Li4_8 1_555 1_555
Li8_8 O17_8 1_555 1_555
Li11_8 O16_8 1_555 1_555
O31_8 Li10_3 1_555 1_555
O32_8 Li2_8 1_555 1_555
Li12_8 O2_8 1_555 1_555
C7_8 C11_8 1_555 1_555
C8_8 C12_8 1_555 1_555
O14_8 Li12_8 1_555 1_555
C24_8 C25_8 1_555 1_555
O23_8 Li8_8 1_555 1_555
O32_8 Li12_8 1_555 1_555
O20_8 H16_8 1_555 1_555
O20_8 H17_8 1_555 1_555
C28_8 H18_8 1_555 1_555
O15 C26_9 1_555 1_555
O32_5 C26_9 1_555 1_555
O20_9 Li12_5 1_555 1_555
Li8_5 O15 1_555 1_555
O20_9 H16_9 1_555 1_555
O20_9 H17_9 1_555 1_555
Co2_5 O3_9 1_555 1_555
O23_5 C14_9 1_555 1_555
O3_9 C14_9 1_555 1_555
O4_5 C9_9 1_555 1_555
O5_9 Co2_5 1_555 1_555
C2_9 H1_9 1_555 1_555
C3_9 C9_9 1_555 1_555
O6_9 C15_9 1_555 1_555
C4_9 C2_9 1_555 1_555
C5_9 C2_9 1_555 1_555
O7_9 C13_9 1_555 1_555
C6_9 C5_9 1_555 1_555
C7_9 C10_9 1_555 1_555
C8_9 C10_9 1_555 1_555
C9_9 O5_9 1_555 1_555
C10_9 H3_9 1_555 1_555
C11_9 C3_9 1_555 1_555
H4_9 C11_9 1_555 1_555
O9_9 C15_9 1_555 1_555
C12_9 C3_9 1_555 1_555
H5_9 C12_9 1_555 1_555
C13_9 C8_9 1_555 1_555
C14_9 C4_9 1_555 1_555
C15_9 C7_9 1_555 1_555
C16_9 C4_9 1_555 1_555
H6_9 C16_9 1_555 1_555
O10_5 C17_9 1_555 1_555
O11_5 C13_9 1_555 1_555
C17_9 C18_9 1_555 1_555
C18_9 C6_9 1_555 1_555
O12_5 C17_9 1_555 1_555
O13_5 C20_9 1_555 1_555
O29_5 Co2_5 1_555 1_555
C19_9 C20_9 1_555 1_555
C20_9 O29_5 1_555 1_555
Li1_5 O7_9 1_555 1_555
C21_9 C19_9 1_555 1_555
H7_9 C21_9 1_555 1_555
C22_9 C19_9 1_555 1_555
H8_9 C22_9 1_555 1_555
C23_9 C22_9 1_555 1_555
C24_9 C21_9 1_555 1_555
C25_9 C23_9 1_555 1_555
H9_9 C25_9 1_555 1_555
Li11_5 O4_5 1_555 1_555
C27_9 C23_9 1_555 1_555
O31_5 C27_9 1_555 1_555
O33_5 C27_9 1_555 1_555
O19_9 Co2_5 1_555 1_555
C28_9 O19_9 1_555 1_555
N1_9 C28_9 1_555 1_555
C29_9 N1_9 1_555 1_555
H10_9 C29_9 1_555 1_555
H11_9 C29_9 1_555 1_555
H12_9 C29_9 1_555 1_555
C30_9 N1_9 1_555 1_555
H13_9 C30_9 1_555 1_555
H14_9 C30_9 1_555 1_555
H15_9 C30_9 1_555 1_555
Co4_4 O12_5 1_555 1_555
Co5_5 O11_5 1_555 1_555
O21 Li11_5 1_555 1_555
O22_5 Li1_5 1_555 1_555
O24_5 Li1_5 1_555 1_555
O25_5 Li11_5 1_555 1_555
O26_5 Co2_5 1_555 1_555
O28_5 Li1_5 1_555 1_555
Li5 O4_5 1_555 1_555
Li11_4 O10_5 1_555 1_555
C7_9 C11_9 1_555 1_555
C8_9 C12_9 1_555 1_555
O9_9 Li8_5 1_555 1_555
C16_9 C18_9 1_555 1_555
O13_5 Li5 1_555 1_555
C24_9 C25_9 1_555 1_555
O21 Li5 1_555 1_555
C28_9 H18_9 1_555 1_555
O21 C1_9 1_555 1_555
O27_5 Co4_5 1_555 1_555
O4_6 C9_10 1_555 1_555
O5_10 Co2_6 1_555 1_555
C9_10 O5_10 1_555 1_555
O13_6 C20_10 1_555 1_555
O29_6 Co2_6 1_555 1_555
C19_10 C20_10 1_555 1_555
C20_10 O29_6 1_555 1_555
Li1_6 O7_10 1_555 1_555
C21_10 C19_10 1_555 1_555
H7_10 C21_10 1_555 1_555
C22_10 C19_10 1_555 1_555
H8_10 C22_10 1_555 1_555
C23_10 C22_10 1_555 1_555
C24_10 C21_10 1_555 1_555
C25_10 C23_10 1_555 1_555
H9_10 C25_10 1_555 1_555
Li11_6 O4_6 1_555 1_555
C26_10 C24_10 1_555 1_555
C27_10 C23_10 1_555 1_555
O15_2 C26_10 1_555 1_555
O31_6 C27_10 1_555 1_555
O32_6 C26_10 1_555 1_555
O33_6 C27_10 1_555 1_555
O19_10 Co2_6 1_555 1_555
O20_10 Li12_6 1_555 1_555
C28_10 O19_10 1_555 1_555
N1_10 C28_10 1_555 1_555
C29_10 N1_10 1_555 1_555
H10_10 C29_10 1_555 1_555
H12_10 C29_10 1_555 1_555
C30_10 N1_10 1_555 1_555
H13_10 C30_10 1_555 1_555
H14_10 C30_10 1_555 1_555
H15_10 C30_10 1_555 1_555
O21_2 Li11_6 1_555 1_555
O22_6 Li1_6 1_555 1_555
O25_6 Li11_6 1_555 1_555
O26_6 Co2_6 1_555 1_555
O28_6 Li1_6 1_555 1_555
Li5_2 O4_6 1_555 1_555
Li8_6 O15_2 1_555 1_555
O13_6 Li5_2 1_555 1_555
C24_10 C25_10 1_555 1_555
O21_2 Li5_2 1_555 1_555
O20_10 H16_10 1_555 1_555
O20_10 H17_10 1_555 1_555
C28_10 H18_10 1_555 1_555
Co4_6 O6_10 1_555 1_555
O21_2 C1_10 1_555 1_555
O23_6 C14_10 1_555 1_555
O3_10 C14_10 1_555 1_555
C1_10 C5_10 1_555 1_555
C2_10 H1_10 1_555 1_555
O6_10 C15_10 1_555 1_555
C4_10 C2_10 1_555 1_555
C5_10 C2_10 1_555 1_555
C6_10 C5_10 1_555 1_555
H2_10 C6_10 1_555 1_555
C7_10 C10_10 1_555 1_555
C8_10 C10_10 1_555 1_555
C10_10 H3_10 1_555 1_555
C11_10 C3_10 1_555 1_555
H4_10 C11_10 1_555 1_555
O8_10 Co4_6 1_555 1_555
O9_10 C15_10 1_555 1_555
C12_10 C3_10 1_555 1_555
C13_10 C8_10 1_555 1_555
C14_10 C4_10 1_555 1_555
C15_10 C7_10 1_555 1_555
C16_10 C4_10 1_555 1_555
H6_10 C16_10 1_555 1_555
O10_6 C17_10 1_555 1_555
O11_6 C13_10 1_555 1_555
C17_10 C18_10 1_555 1_555
C18_10 C6_10 1_555 1_555
O12_6 C17_10 1_555 1_555
Co4_3 O12_6 1_555 1_555
Co5_6 O11_6 1_555 1_555
O27_6 Co4_6 1_555 1_555
Li11_3 O10_6 1_555 1_555
C1_10 O8_10 1_555 1_555
C7_10 C11_10 1_555 1_555
C8_10 C12_10 1_555 1_555
O9_10 Li8_6 1_555 1_555
C16_10 C18_10 1_555 1_555
O7_11 C13_11 1_555 1_555
C7_11 C10_11 1_555 1_555
C8_11 C10_11 1_555 1_555
C10_11 H3_11 1_555 1_555
C11_11 C3_11 1_555 1_555
H4_11 C11_11 1_555 1_555
C12_11 C3_11 1_555 1_555
H5_11 C12_11 1_555 1_555
C13_11 C8_11 1_555 1_555
O26_6 C13_11 1_555 1_555
Li5_2 O7_11 1_555 1_555
O20_11 Li12_3 1_555 1_555
C7_11 C11_11 1_555 1_555
C8_11 C12_11 1_555 1_555
O20_11 H16_11 1_555 1_555
O20_11 H17_11 1_555 1_555
Co4_3 O6_11 1_555 1_555
O6_11 C15_11 1_555 1_555
O8_11 Co4_3 1_555 1_555
O9_11 C15_11 1_555 1_555
Co5_5 O3_11 1_555 1_555
O23_3 C14_11 1_555 1_555
O3_11 C14_11 1_555 1_555
O24_5 C9_11 1_555 1_555
O5_11 Co5_5 1_555 1_555
C9_11 O5_11 1_555 1_555
O28_5 C20_11 1_555 1_555
O29_3 Co5_5 1_555 1_555
C19_11 C20_11 1_555 1_555
C20_11 O29_3 1_555 1_555
C21_11 C19_11 1_555 1_555
H7_11 C21_11 1_555 1_555
C22_11 C19_11 1_555 1_555
H8_11 C22_11 1_555 1_555
C23_11 C22_11 1_555 1_555
C24_11 C21_11 1_555 1_555
C25_11 C23_11 1_555 1_555
H9_11 C25_11 1_555 1_555
C26_11 C24_11 1_555 1_555
C27_11 C23_11 1_555 1_555
O15_3 C26_11 1_555 1_555
O31_3 C27_11 1_555 1_555
O33_3 C27_11 1_555 1_555
O19_11 Co5_5 1_555 1_555
C28_11 O19_11 1_555 1_555
N1_11 C28_11 1_555 1_555
C29_11 N1_11 1_555 1_555
H10_11 C29_11 1_555 1_555
H11_11 C29_11 1_555 1_555
H12_11 C29_11 1_555 1_555
C30_11 N1_11 1_555 1_555
H13_11 C30_11 1_555 1_555
H14_11 C30_11 1_555 1_555
H15_11 C30_11 1_555 1_555
C24_11 C25_11 1_555 1_555
C28_11 H18_11 1_555 1_555
O22_5 C1_11 1_555 1_555
C1_11 C5_11 1_555 1_555
C2_11 H1_11 1_555 1_555
C4_11 C2_11 1_555 1_555
C5_11 C2_11 1_555 1_555
C6_11 C5_11 1_555 1_555
H2_11 C6_11 1_555 1_555
C16_11 C4_11 1_555 1_555
O25_5 C17_11 1_555 1_555
C17_11 C18_11 1_555 1_555
C18_11 C6_11 1_555 1_555
O27_5 C17_11 1_555 1_555
C16_11 C18_11 1_555 1_555
C21_12 C19_12 1_555 1_555
H7_12 C21_12 1_555 1_555
C24_12 C21_12 1_555 1_555
C26_12 C24_12 1_555 1_555
O15_4 C26_12 1_555 1_555
Li8_4 O15_4 1_555 1_555
Co5_6 O3_12 1_555 1_555
O22_6 C1_12 1_555 1_555
O23_4 C14_12 1_555 1_555
O3_12 C14_12 1_555 1_555
O24_6 C9_12 1_555 1_555
C1_12 C5_12 1_555 1_555
O5_12 Co5_6 1_555 1_555
C2_12 H1_12 1_555 1_555
C4_12 C2_12 1_555 1_555
C5_12 C2_12 1_555 1_555
C6_12 C5_12 1_555 1_555
H2_12 C6_12 1_555 1_555
C9_12 O5_12 1_555 1_555
C14_12 C4_12 1_555 1_555
C16_12 C4_12 1_555 1_555
H6_12 C16_12 1_555 1_555
O25_6 C17_12 1_555 1_555
C17_12 C18_12 1_555 1_555
C18_12 C6_12 1_555 1_555
O27_6 C17_12 1_555 1_555
O29_4 Co5_6 1_555 1_555
C20_12 O29_4 1_555 1_555
O19_12 Co5_6 1_555 1_555
C28_12 O19_12 1_555 1_555
N1_12 C28_12 1_555 1_555
C30_12 N1_12 1_555 1_555
H13_12 C30_12 1_555 1_555
H14_12 C30_12 1_555 1_555
C16_12 C18_12 1_555 1_555
C28_12 H18_12 1_555 1_555
O20_12 H16_12 1_555 1_555
Co4_4 O6_12 1_555 1_555
O6_12 C15_12 1_555 1_555
O7_12 C13_12 1_555 1_555
C7_12 C10_12 1_555 1_555
C8_12 C10_12 1_555 1_555
C10_12 H3_12 1_555 1_555
C11_12 C3_12 1_555 1_555
H4_12 C11_12 1_555 1_555
O8_12 Co4_4 1_555 1_555
O9_12 C15_12 1_555 1_555
C12_12 C3_12 1_555 1_555
H5_12 C12_12 1_555 1_555
C13_12 C8_12 1_555 1_555
C15_12 C7_12 1_555 1_555
O26_5 C13_12 1_555 1_555
Li5 O7_12 1_555 1_555
C7_12 C11_12 1_555 1_555
C8_12 C12_12 1_555 1_555
C25_12 C23_12 1_555 1_555
H9_12 C25_12 1_555 1_555
O33_4 C27_12 1_555 1_555
H10_12 C29_12 1_555 1_555
H12_12 C29_12 1_555 1_555
O4_7 C9_13 1_555 1_555
O5_13 Co2_7 1_555 1_555
C9_13 O5_13 1_555 1_555
O13_7 C20_13 1_555 1_555
O29 Co2_7 1_555 1_555
C19_13 C20_13 1_555 1_555
C20_13 O29 1_555 1_555
Li1_7 O7_13 1_555 1_555
C21_13 C19_13 1_555 1_555
H7_13 C21_13 1_555 1_555
C22_13 C19_13 1_555 1_555
H8_13 C22_13 1_555 1_555
C23_13 C22_13 1_555 1_555
C24_13 C21_13 1_555 1_555
C25_13 C23_13 1_555 1_555
H9_13 C25_13 1_555 1_555
Li11 O4_7 1_555 1_555
C26_13 C24_13 1_555 1_555
C27_13 C23_13 1_555 1_555
O15_5 C26_13 1_555 1_555
O31 C27_13 1_555 1_555
O32 C26_13 1_555 1_555
O33 C27_13 1_555 1_555
O19_13 Co2_7 1_555 1_555
O20_13 Li12 1_555 1_555
C28_13 O19_13 1_555 1_555
N1_13 C28_13 1_555 1_555
C29_13 N1_13 1_555 1_555
H10_13 C29_13 1_555 1_555
H12_13 C29_13 1_555 1_555
C30_13 N1_13 1_555 1_555
H13_13 C30_13 1_555 1_555
H14_13 C30_13 1_555 1_555
H15_13 C30_13 1_555 1_555
O21_3 Li11 1_555 1_555
O22_7 Li1_7 1_555 1_555
O25_7 Li11 1_555 1_555
O26_7 Co2_7 1_555 1_555
O28_7 Li1_7 1_555 1_555
Li5_3 O4_7 1_555 1_555
Li8 O15_5 1_555 1_555
O13_7 Li5_3 1_555 1_555
C24_13 C25_13 1_555 1_555
O21_3 Li5_3 1_555 1_555
O20_13 H16_13 1_555 1_555
O20_13 H17_13 1_555 1_555
C28_13 H18_13 1_555 1_555
Co4 O6_13 1_555 1_555
O21_3 C1_13 1_555 1_555
O23 C14_13 1_555 1_555
O3_13 C14_13 1_555 1_555
C1_13 C5_13 1_555 1_555
C2_13 H1_13 1_555 1_555
O6_13 C15_13 1_555 1_555
C4_13 C2_13 1_555 1_555
C5_13 C2_13 1_555 1_555
C6_13 C5_13 1_555 1_555
H2_13 C6_13 1_555 1_555
C7_13 C10_13 1_555 1_555
C8_13 C10_13 1_555 1_555
C10_13 H3_13 1_555 1_555
C11_13 C3_13 1_555 1_555
H4_13 C11_13 1_555 1_555
O8_13 Co4 1_555 1_555
O9_13 C15_13 1_555 1_555
C12_13 C3_13 1_555 1_555
C13_13 C8_13 1_555 1_555
C14_13 C4_13 1_555 1_555
C15_13 C7_13 1_555 1_555
C16_13 C4_13 1_555 1_555
H6_13 C16_13 1_555 1_555
O10_7 C17_13 1_555 1_555
O11_7 C13_13 1_555 1_555
C17_13 C18_13 1_555 1_555
C18_13 C6_13 1_555 1_555
O12_7 C17_13 1_555 1_555
Co4_8 O12_7 1_555 1_555
Co5_7 O11_7 1_555 1_555
O27_7 Co4 1_555 1_555
Li11_8 O10_7 1_555 1_555
C1_13 O8_13 1_555 1_555
C7_13 C11_13 1_555 1_555
C8_13 C12_13 1_555 1_555
O9_13 Li8 1_555 1_555
C16_13 C18_13 1_555 1_555
O15_6 C26_14 1_555 1_555
O32_2 C26_14 1_555 1_555
O20_14 Li12_2 1_555 1_555
Li8_2 O15_6 1_555 1_555
O20_14 H16_14 1_555 1_555
O20_14 H17_14 1_555 1_555
Co2_8 O3_14 1_555 1_555
O23_2 C14_14 1_555 1_555
O3_14 C14_14 1_555 1_555
O4_8 C9_14 1_555 1_555
O5_14 Co2_8 1_555 1_555
C2_14 H1_14 1_555 1_555
C3_14 C9_14 1_555 1_555
O6_14 C15_14 1_555 1_555
C4_14 C2_14 1_555 1_555
C5_14 C2_14 1_555 1_555
O7_14 C13_14 1_555 1_555
C6_14 C5_14 1_555 1_555
C7_14 C10_14 1_555 1_555
C8_14 C10_14 1_555 1_555
C9_14 O5_14 1_555 1_555
C10_14 H3_14 1_555 1_555
C11_14 C3_14 1_555 1_555
H4_14 C11_14 1_555 1_555
O9_14 C15_14 1_555 1_555
C12_14 C3_14 1_555 1_555
H5_14 C12_14 1_555 1_555
C13_14 C8_14 1_555 1_555
C14_14 C4_14 1_555 1_555
C15_14 C7_14 1_555 1_555
C16_14 C4_14 1_555 1_555
H6_14 C16_14 1_555 1_555
O10_8 C17_14 1_555 1_555
O11_8 C13_14 1_555 1_555
C17_14 C18_14 1_555 1_555
C18_14 C6_14 1_555 1_555
O12_8 C17_14 1_555 1_555
O13_8 C20_14 1_555 1_555
O29_2 Co2_8 1_555 1_555
C19_14 C20_14 1_555 1_555
C20_14 O29_2 1_555 1_555
Li1_8 O7_14 1_555 1_555
C21_14 C19_14 1_555 1_555
H7_14 C21_14 1_555 1_555
C22_14 C19_14 1_555 1_555
H8_14 C22_14 1_555 1_555
C23_14 C22_14 1_555 1_555
C24_14 C21_14 1_555 1_555
C25_14 C23_14 1_555 1_555
H9_14 C25_14 1_555 1_555
Li11_2 O4_8 1_555 1_555
C27_14 C23_14 1_555 1_555
O31_2 C27_14 1_555 1_555
O33_2 C27_14 1_555 1_555
O19_14 Co2_8 1_555 1_555
C28_14 O19_14 1_555 1_555
N1_14 C28_14 1_555 1_555
C29_14 N1_14 1_555 1_555
H10_14 C29_14 1_555 1_555
H11_14 C29_14 1_555 1_555
H12_14 C29_14 1_555 1_555
C30_14 N1_14 1_555 1_555
H13_14 C30_14 1_555 1_555
H14_14 C30_14 1_555 1_555
H15_14 C30_14 1_555 1_555
Co4_7 O12_8 1_555 1_555
Co5_8 O11_8 1_555 1_555
O21_4 Li11_2 1_555 1_555
O22_8 Li1_8 1_555 1_555
O24_8 Li1_8 1_555 1_555
O25_8 Li11_2 1_555 1_555
O26_8 Co2_8 1_555 1_555
O28_8 Li1_8 1_555 1_555
Li5_4 O4_8 1_555 1_555
Li11_7 O10_8 1_555 1_555
C7_14 C11_14 1_555 1_555
C8_14 C12_14 1_555 1_555
O9_14 Li8_2 1_555 1_555
C16_14 C18_14 1_555 1_555
O13_8 Li5_4 1_555 1_555
C24_14 C25_14 1_555 1_555
O21_4 Li5_4 1_555 1_555
C28_14 H18_14 1_555 1_555
O21_4 C1_14 1_555 1_555
O27_8 Co4_2 1_555 1_555
C25_15 C23_15 1_555 1_555
H9_15 C25_15 1_555 1_555
O33_7 C27_15 1_555 1_555
H10_15 C29_15 1_555 1_555
H12_15 C29_15 1_555 1_555
C21_15 C19_15 1_555 1_555
H7_15 C21_15 1_555 1_555
C24_15 C21_15 1_555 1_555
C26_15 C24_15 1_555 1_555
O15_7 C26_15 1_555 1_555
O22_7 Li11_7 1_555 1_555
Li8_7 O15_7 1_555 1_555
O20_15 H16_15 1_555 1_555
Co4_7 O6_15 1_555 1_555
Co5_7 O3_15 1_555 1_555
O22_7 C1_15 1_555 1_555
O23_7 C14_15 1_555 1_555
O3_15 C14_15 1_555 1_555
O24_7 C9_15 1_555 1_555
C1_15 C5_15 1_555 1_555
O5_15 Co5_7 1_555 1_555
C2_15 H1_15 1_555 1_555
C3_15 C9_15 1_555 1_555
O6_15 C15_15 1_555 1_555
C4_15 C2_15 1_555 1_555
C5_15 C2_15 1_555 1_555
O7_15 C13_15 1_555 1_555
C6_15 C5_15 1_555 1_555
H2_15 C6_15 1_555 1_555
C7_15 C10_15 1_555 1_555
C8_15 C10_15 1_555 1_555
C9_15 O5_15 1_555 1_555
C10_15 H3_15 1_555 1_555
C11_15 C3_15 1_555 1_555
H4_15 C11_15 1_555 1_555
O8_15 Co4_7 1_555 1_555
O9_15 C15_15 1_555 1_555
C12_15 C3_15 1_555 1_555
H5_15 C12_15 1_555 1_555
C13_15 C8_15 1_555 1_555
C14_15 C4_15 1_555 1_555
C15_15 C7_15 1_555 1_555
C16_15 C4_15 1_555 1_555
H6_15 C16_15 1_555 1_555
O25_7 C17_15 1_555 1_555
O26_8 C13_15 1_555 1_555
C17_15 C18_15 1_555 1_555
C18_15 C6_15 1_555 1_555
O27_7 C17_15 1_555 1_555
O29_7 Co5_7 1_555 1_555
C20_15 O29_7 1_555 1_555
Li5_4 O7_15 1_555 1_555
O19_15 Co5_7 1_555 1_555
C28_15 O19_15 1_555 1_555
N1_15 C28_15 1_555 1_555
C30_15 N1_15 1_555 1_555
H13_15 C30_15 1_555 1_555
H14_15 C30_15 1_555 1_555
C1_15 O8_15 1_555 1_555
C7_15 C11_15 1_555 1_555
C8_15 C12_15 1_555 1_555
O9_15 Li8_7 1_555 1_555
C16_15 C18_15 1_555 1_555
C28_15 H18_15 1_555 1_555
Co5_8 O3_16 1_555 1_555
O23_8 C14_16 1_555 1_555
O3_16 C14_16 1_555 1_555
O24_8 C9_16 1_555 1_555
O5_16 Co5_8 1_555 1_555
C3_16 C9_16 1_555 1_555
O7_16 C13_16 1_555 1_555
C7_16 C10_16 1_555 1_555
C8_16 C10_16 1_555 1_555
C9_16 O5_16 1_555 1_555
C10_16 H3_16 1_555 1_555
C11_16 C3_16 1_555 1_555
H4_16 C11_16 1_555 1_555
C12_16 C3_16 1_555 1_555
H5_16 C12_16 1_555 1_555
C13_16 C8_16 1_555 1_555
O26_7 C13_16 1_555 1_555
O28_8 C20_16 1_555 1_555
O29_8 Co5_8 1_555 1_555
C19_16 C20_16 1_555 1_555
C20_16 O29_8 1_555 1_555
Li5_3 O7_16 1_555 1_555
C21_16 C19_16 1_555 1_555
H7_16 C21_16 1_555 1_555
C22_16 C19_16 1_555 1_555
H8_16 C22_16 1_555 1_555
C23_16 C22_16 1_555 1_555
C24_16 C21_16 1_555 1_555
C25_16 C23_16 1_555 1_555
H9_16 C25_16 1_555 1_555
Li11_8 O24_8 1_555 1_555
C26_16 C24_16 1_555 1_555
C27_16 C23_16 1_555 1_555
O15_8 C26_16 1_555 1_555
O31_8 C27_16 1_555 1_555
O32_8 C26_16 1_555 1_555
O33_8 C27_16 1_555 1_555
O19_16 Co5_8 1_555 1_555
O20_16 Li12_8 1_555 1_555
C28_16 O19_16 1_555 1_555
N1_16 C28_16 1_555 1_555
C29_16 N1_16 1_555 1_555
H10_16 C29_16 1_555 1_555
H11_16 C29_16 1_555 1_555
H12_16 C29_16 1_555 1_555
C30_16 N1_16 1_555 1_555
H13_16 C30_16 1_555 1_555
H14_16 C30_16 1_555 1_555
H15_16 C30_16 1_555 1_555
O22_8 Li11_8 1_555 1_555
C7_16 C11_16 1_555 1_555
C8_16 C12_16 1_555 1_555
C24_16 C25_16 1_555 1_555
O20_16 H16_16 1_555 1_555
O20_16 H17_16 1_555 1_555
C28_16 H18_16 1_555 1_555
Co4_8 O6_16 1_555 1_555
O22_8 C1_16 1_555 1_555
C1_16 C5_16 1_555 1_555
C2_16 H1_16 1_555 1_555
O6_16 C15_16 1_555 1_555
C4_16 C2_16 1_555 1_555
C5_16 C2_16 1_555 1_555
C6_16 C5_16 1_555 1_555
H2_16 C6_16 1_555 1_555
O8_16 Co4_8 1_555 1_555
O9_16 C15_16 1_555 1_555
C16_16 C4_16 1_555 1_555
O25_8 C17_16 1_555 1_555
C17_16 C18_16 1_555 1_555
C18_16 C6_16 1_555 1_555
O27_8 C17_16 1_555 1_555
C1_16 O8_16 1_555 1_555
C16_16 C18_16 1_555 1_555

#END
