
###############################################################################
#
# This file contains modified crystal structure data generated from the
# MOF subset of the Cambridge Structural Database (CSD) v543 
# hosted by the Cambridge Crystallographic Data Centre (CCDC).
#
# This work is licensed under the Creative Commons
# Attribution-NonCommercial-ShareAlike 4.0 International License.
# To view a copy of this license, visit
# http://creativecommons.org/licenses/by-nc-sa/4.0/
# or send a letter to
# Creative Commons, PO Box 1866, Mountain View, CA 94042, USA.
#
# CIF created using the CSD Python API on 29 September 2022
# The structure has been converted into the P1 space group
# The structure has a 3D framework
# The original CSD entry IZEWAN is in the monoclinic crystal system
# The framework has been calculated to contain at least 10.0% void space
# The void calculation uses a probe of radius 1.32A, grid spacing 0.4
#
###############################################################################

data_IZEWAN
_chemical_formula_moiety         '(C108 H72 O44 Zn8)n'
_symmetry_cell_setting           triclinic
_symmetry_space_group_name_H-M   'P 1'
_symmetry_Int_Tables_number      1
_space_group_name_Hall           'P 1'
loop_
_symmetry_equiv_pos_site_id
_symmetry_equiv_pos_as_xyz
1 x,y,z
_cell_length_a                   7.3800(15)
_cell_length_b                   28.290(6)
_cell_length_c                   22.470(5)
_cell_angle_alpha                90
_cell_angle_beta                 99.13(3)
_cell_angle_gamma                90
_cell_volume                     4631.86
loop_
_atom_site_label
_atom_site_type_symbol
_atom_site_fract_x
_atom_site_fract_y
_atom_site_fract_z
C2 C 0.0634(6) 0.12059(17) 0.2798(2)
C3 C 0.0210(7) 0.16242(18) 0.3070(2)
C4 C 0.1542(7) 0.19446(17) 0.3319(2)
C5 C 0.3378(7) 0.18303(19) 0.3278(3)
H2 H 0.4306 0.2039 0.3435
C6 C 0.3830(7) 0.1416(2) 0.3010(3)
H3 H 0.5056 0.1352 0.2992
C7 C 0.2509(7) 0.10932(17) 0.2769(2)
C8 C 0.1120(7) 0.23982(17) 0.3612(2)
C11 C 0.0531(7) 0.3265(2) 0.4146(3)
H5 H 0.0342 0.3556 0.4318
C12 C 0.2145(7) 0.30086(19) 0.4354(3)
C13 C 0.2378(7) 0.25780(18) 0.4076(3)
H6 H 0.3433 0.2404 0.4209
C21 C 0.3600(7) 0.3204(2) 0.4830(3)
C22 C 0.3227(7) 0.34952(19) 0.5302(3)
H10 H 0.2010 0.3568 0.5323
C23 C 0.4572(7) 0.3679(2) 0.5734(3)
C24 C 0.6388(7) 0.3564(2) 0.5709(3)
C25 C 0.6834(8) 0.3269(2) 0.5251(3)
H11 H 0.8049 0.3194 0.5231
C26 C 0.5451(8) 0.3096(2) 0.4841(3)
H12 H 0.5753 0.2892 0.4547
C27 C 0.4085(7) 0.39921(19) 0.6218(3)
O1 O 0.2966(5) 0.06872(13) 0.25272(18)
O7 O 0.2382(5) 0.40869(14) 0.6213(2)
O8 O 0.5349(5) 0.41591(16) 0.6599(2)
O9 O 0.7844(6) 0.3739(2) 0.6115(3)
H14 H 0.7457 0.3921 0.6349
Zn1 Zn 0.13730(8) 0.04717(2) 0.17419(3)
O15 O 0.2382(5) 0.09131(14) 0.1213(2)
Zn4 Zn 0.13730(8) 0.45283(2) 0.67419(3)
Zn5 Zn 0.55402(8) 0.05087(2) 0.24499(3)
Zn7 Zn 0.55402(8) 0.44913(2) 0.74499(3)
O14 O 0.2363(5) 0.98133(13) 0.18042(19)
C1 C 0.9104(6) 0.08731(18) 0.2554(2)
H1 H 0.8986 0.1692 0.3085
C9 C 0.9535(7) 0.26561(18) 0.3418(3)
H4 H 0.8679 0.2539 0.3104
C10 C 0.9199(7) 0.30849(18) 0.3681(2)
C14 C 0.7522(7) 0.33654(17) 0.3464(2)
C15 C 0.5838(7) 0.31398(19) 0.3317(3)
H7 H 0.5803 0.2812 0.3340
C16 C 0.4185(8) 0.3385(2) 0.3134(3)
H8 H 0.3070 0.3225 0.3063
C17 C 0.4263(7) 0.3874(2) 0.3062(3)
C18 C 0.5935(7) 0.41142(19) 0.3175(3)
C19 C 0.7530(7) 0.38505(18) 0.3381(3)
H9 H 0.8644 0.4010 0.3466
C20 C 0.6084(8) 0.46233(19) 0.3087(3)
O2 O 0.9246(5) 0.05735(13) 0.21536(19)
O3 O 0.7618(5) 0.09121(13) 0.27741(18)
O4 O 0.2634(5) 0.41018(15) 0.2877(2)
H13 H 0.2838 0.4376 0.2788
O5 O 0.4611(5) 0.48561(13) 0.2907(2)
O6 O 0.7637(5) 0.48133(13) 0.31958(19)
O10 O 0.5947(6) 0.01926(18) 0.3345(2)
H16 H 0.7065 0.0113 0.3443
O11 O 0.9594(7) 0.02441(16) 0.0937(2)
H18 H 0.9597 0.0442 0.0671
O16 O 0.5349(5) 0.08409(16) 0.1599(2)
Zn3 Zn 0.86270(8) 0.54717(2) 0.32581(3)
Zn6 Zn 0.44598(8) 0.55087(2) 0.25501(3)
H15 H 0.5292 0.9945 0.3339
H17 H 0.9971 0.9981 0.0822
O13 O 0.5389(5) 0.98561(13) 0.2093(2)
C1_2 C 0.0896(6) 0.58731(18) 0.2446(2)
H1_2 H 0.1014 0.6692 0.1915
C9_2 C 0.0465(7) 0.76561(18) 0.1582(3)
H4_2 H 0.1321 0.7539 0.1896
C10_2 C 0.0801(7) 0.80849(18) 0.1319(2)
C14_2 C 0.2478(7) 0.83654(17) 0.1536(2)
C15_2 C 0.4162(7) 0.81398(19) 0.1683(3)
H7_2 H 0.4197 0.7812 0.1660
C16_2 C 0.5815(8) 0.8385(2) 0.1866(3)
H8_2 H 0.6930 0.8225 0.1937
C17_2 C 0.5737(7) 0.8874(2) 0.1938(3)
C18_2 C 0.4065(7) 0.91142(19) 0.1825(3)
C19_2 C 0.2470(7) 0.88505(18) 0.1619(3)
H9_2 H 0.1356 0.9010 0.1534
C20_2 C 0.3916(8) 0.96233(19) 0.1913(3)
O2_2 O 0.0754(5) 0.55735(13) 0.28464(19)
O3_2 O 0.2382(5) 0.59121(13) 0.22259(18)
O4_2 O 0.7366(5) 0.91018(15) 0.2123(2)
H13_2 H 0.7162 0.9376 0.2212
O10_2 O 0.4053(6) 0.51926(18) 0.1655(2)
H15_2 H 0.4708 0.4945 0.1661
H16_2 H 0.2935 0.5113 0.1557
O11_2 O 0.0406(7) 0.52441(16) 0.4063(2)
H17_2 H 0.0029 0.4981 0.4178
H18_2 H 0.0403 0.5442 0.4329
O12 O 0.7034(5) 0.56872(13) 0.24728(18)
O16_2 O 0.4651(5) 0.58409(16) 0.3401(2)
C2_2 C 0.9366(6) 0.62059(17) 0.2202(2)
C3_2 C 0.9790(7) 0.66242(18) 0.1930(2)
C4_2 C 0.8458(7) 0.69446(17) 0.1681(2)
C5_2 C 0.6622(7) 0.68303(19) 0.1722(3)
H2_2 H 0.5694 0.7039 0.1565
C6_2 C 0.6170(7) 0.6416(2) 0.1990(3)
H3_2 H 0.4944 0.6352 0.2008
C7_2 C 0.7491(7) 0.60932(17) 0.2231(2)
C8_2 C 0.8880(7) 0.73982(17) 0.1388(2)
C11_2 C 0.9469(7) 0.8265(2) 0.0854(3)
H5_2 H 0.9658 0.8556 0.0682
C12_2 C 0.7855(7) 0.80086(19) 0.0646(3)
C13_2 C 0.7622(7) 0.75780(18) 0.0924(3)
H6_2 H 0.6567 0.7404 0.0791
C21_2 C 0.6400(7) 0.8204(2) 0.0170(3)
C26_2 C 0.4549(8) 0.8096(2) 0.0159(3)
H12_2 H 0.4247 0.7892 0.0453
O15_2 O 0.7618(5) 0.59131(14) 0.3787(2)
C22_2 C 0.6773(7) 0.84952(19) 0.9698(3)
H10_2 H 0.7990 0.8568 0.9677
C23_2 C 0.5428(7) 0.8679(2) 0.9266(3)
C24_2 C 0.3612(7) 0.8564(2) 0.9291(3)
C25_2 C 0.3166(8) 0.8269(2) 0.9749(3)
H11_2 H 0.1951 0.8194 0.9769
C27_2 C 0.5915(7) 0.89921(19) 0.8782(3)
O7_2 O 0.7618(5) 0.90869(14) 0.8787(2)
O8_2 O 0.4651(5) 0.91591(16) 0.8401(2)
O9_2 O 0.2156(6) 0.8739(2) 0.8885(3)
H14_2 H 0.2543 0.8921 0.8651
Zn4_2 Zn 0.86270(8) 0.95283(2) 0.82581(3)
Zn7_2 Zn 0.44598(8) 0.94913(2) 0.75501(3)
H15_3 H 0.4708 0.0055 0.6661
H17_3 H 0.0029 0.0019 0.9178
O13_2 O 0.4611(5) 0.01439(13) 0.7907(2)
C1_3 C 0.0896(6) 0.91269(18) 0.7446(2)
H1_3 H 0.1014 0.8308 0.6915
C9_3 C 0.0465(7) 0.73439(18) 0.6582(3)
H4_3 H 0.1321 0.7461 0.6896
C10_3 C 0.0801(7) 0.69151(18) 0.6319(2)
C14_3 C 0.2478(7) 0.66346(17) 0.6536(2)
C15_3 C 0.4162(7) 0.68602(19) 0.6683(3)
H7_3 H 0.4197 0.7188 0.6660
C16_3 C 0.5815(8) 0.6615(2) 0.6866(3)
H8_3 H 0.6930 0.6775 0.6937
C17_3 C 0.5737(7) 0.6126(2) 0.6938(3)
C18_3 C 0.4065(7) 0.58858(19) 0.6825(3)
C19_3 C 0.2470(7) 0.61495(18) 0.6619(3)
H9_3 H 0.1356 0.5990 0.6534
C20_3 C 0.3916(8) 0.53767(19) 0.6913(3)
O2_3 O 0.0754(5) 0.94265(13) 0.78464(19)
O3_3 O 0.2382(5) 0.90879(13) 0.72259(18)
O4_3 O 0.7366(5) 0.58982(15) 0.7123(2)
H13_3 H 0.7162 0.5624 0.7212
O5_2 O 0.5389(5) 0.51439(13) 0.7093(2)
O6_2 O 0.2363(5) 0.51867(13) 0.68042(19)
O10_3 O 0.4053(6) 0.98074(18) 0.6655(2)
H16_3 H 0.2935 0.9887 0.6557
O11_3 O 0.0406(7) 0.97559(16) 0.9063(2)
H18_3 H 0.0403 0.9558 0.9329
O12_2 O 0.7034(5) 0.93128(13) 0.74728(18)
O14_2 O 0.7637(5) 0.01867(13) 0.81958(19)
C2_3 C 0.9366(6) 0.87941(17) 0.7202(2)
C3_3 C 0.9790(7) 0.83758(18) 0.6930(2)
C4_3 C 0.8458(7) 0.80554(17) 0.6681(2)
C5_3 C 0.6622(7) 0.81697(19) 0.6722(3)
H2_3 H 0.5694 0.7961 0.6565
C6_3 C 0.6170(7) 0.8584(2) 0.6990(3)
H3_3 H 0.4944 0.8648 0.7008
C7_3 C 0.7491(7) 0.89068(17) 0.7231(2)
C8_3 C 0.8880(7) 0.76018(17) 0.6388(2)
C11_3 C 0.9469(7) 0.6735(2) 0.5854(3)
H5_3 H 0.9658 0.6444 0.5682
C12_3 C 0.7855(7) 0.69914(19) 0.5646(3)
C13_3 C 0.7622(7) 0.74220(18) 0.5924(3)
H6_3 H 0.6567 0.7596 0.5791
C21_3 C 0.6400(7) 0.6796(2) 0.5170(3)
C22_3 C 0.6773(7) 0.65048(19) 0.4698(3)
H10_3 H 0.7990 0.6432 0.4677
C23_3 C 0.5428(7) 0.6321(2) 0.4266(3)
C24_3 C 0.3612(7) 0.6436(2) 0.4291(3)
C25_3 C 0.3166(8) 0.6731(2) 0.4749(3)
H11_3 H 0.1951 0.6806 0.4769
C26_3 C 0.4549(8) 0.6904(2) 0.5159(3)
H12_3 H 0.4247 0.7108 0.5453
C27_3 C 0.5915(7) 0.60079(19) 0.3782(3)
O9_3 O 0.2156(6) 0.6261(2) 0.3885(3)
H14_3 H 0.2543 0.6079 0.3651
C22_4 C 0.3227(7) 0.15048(19) 0.0302(3)
H10_4 H 0.2010 0.1432 0.0323
C23_4 C 0.4572(7) 0.1321(2) 0.0734(3)
C24_4 C 0.6388(7) 0.1436(2) 0.0709(3)
C25_4 C 0.6834(8) 0.1731(2) 0.0251(3)
H11_4 H 0.8049 0.1806 0.0231
C27_4 C 0.4085(7) 0.10079(19) 0.1218(3)
O9_4 O 0.7844(6) 0.1261(2) 0.1115(3)
H14_4 H 0.7457 0.1079 0.1349
C2_4 C 0.0634(6) 0.37941(17) 0.7798(2)
C3_4 C 0.0210(7) 0.33758(18) 0.8070(2)
C4_4 C 0.1542(7) 0.30554(17) 0.8319(2)
C5_4 C 0.3378(7) 0.31697(19) 0.8278(3)
H2_4 H 0.4306 0.2961 0.8435
C6_4 C 0.3830(7) 0.3584(2) 0.8010(3)
H3_4 H 0.5056 0.3648 0.7992
C7_4 C 0.2509(7) 0.39068(17) 0.7769(2)
C8_4 C 0.1120(7) 0.26018(17) 0.8612(2)
C11_4 C 0.0531(7) 0.1735(2) 0.9146(3)
H5_4 H 0.0342 0.1444 0.9318
C12_4 C 0.2145(7) 0.19914(19) 0.9354(3)
C13_4 C 0.2378(7) 0.24220(18) 0.9076(3)
H6_4 H 0.3433 0.2596 0.9209
C21_4 C 0.3600(7) 0.1796(2) 0.9830(3)
C26_4 C 0.5451(8) 0.1904(2) 0.9841(3)
H12_4 H 0.5753 0.2108 0.9547
O1_2 O 0.2966(5) 0.43128(13) 0.75272(18)
C1_4 C 0.9104(6) 0.41269(18) 0.7554(2)
H1_4 H 0.8986 0.3308 0.8085
C9_4 C 0.9535(7) 0.23439(18) 0.8418(3)
H4_4 H 0.8679 0.2461 0.8104
C10_4 C 0.9199(7) 0.19151(18) 0.8681(2)
C14_4 C 0.7522(7) 0.16346(17) 0.8464(2)
C15_4 C 0.5838(7) 0.18602(19) 0.8317(3)
H7_4 H 0.5803 0.2188 0.8340
C16_4 C 0.4185(8) 0.1615(2) 0.8134(3)
H8_4 H 0.3070 0.1775 0.8063
C17_4 C 0.4263(7) 0.1126(2) 0.8062(3)
C18_4 C 0.5935(7) 0.08858(19) 0.8175(3)
C19_4 C 0.7530(7) 0.11495(18) 0.8381(3)
H9_4 H 0.8644 0.0990 0.8466
C20_4 C 0.6084(8) 0.03767(19) 0.8087(3)
O2_4 O 0.9246(5) 0.44265(13) 0.71536(19)
O3_4 O 0.7618(5) 0.40879(13) 0.77741(18)
O4_4 O 0.2634(5) 0.08982(15) 0.7877(2)
H13_4 H 0.2838 0.0624 0.7788
O10_4 O 0.5947(6) 0.48074(18) 0.8345(2)
H15_4 H 0.5292 0.5055 0.8339
H16_4 H 0.7065 0.4887 0.8443
O11_4 O 0.9594(7) 0.47559(16) 0.5937(2)
H17_4 H 0.9971 0.5019 0.5822
H18_4 H 0.9597 0.4558 0.5671
loop_
_geom_bond_atom_site_label_1
_geom_bond_atom_site_label_2
_geom_bond_site_symmetry_1
_geom_bond_site_symmetry_2
C2 C3 1_555 1_555
C4 C3 1_555 1_555
C5 C4 1_555 1_555
H2 C5 1_555 1_555
C6 C5 1_555 1_555
H3 C6 1_555 1_555
C7 C2 1_555 1_555
C8 C4 1_555 1_555
H5 C11 1_555 1_555
C12 C11 1_555 1_555
C13 C8 1_555 1_555
H6 C13 1_555 1_555
C21 C12 1_555 1_555
C22 C21 1_555 1_555
H10 C22 1_555 1_555
C23 C22 1_555 1_555
C24 C23 1_555 1_555
C25 C24 1_555 1_555
H11 C25 1_555 1_555
C26 C21 1_555 1_555
H12 C26 1_555 1_555
C27 C23 1_555 1_555
O1 C7 1_555 1_555
O7 C27 1_555 1_555
O8 C27 1_555 1_555
O9 C24 1_555 1_555
H14 O9 1_555 1_555
Zn1 O1 1_555 1_555
O15 Zn1 1_555 1_555
Zn4 O7 1_555 1_555
Zn5 O1 1_555 1_555
Zn7 O8 1_555 1_555
C6 C7 1_555 1_555
C12 C13 1_555 1_555
C25 C26 1_555 1_555
H4 C9 1_555 1_555
C10 C9 1_555 1_555
C14 C10 1_555 1_555
C15 C14 1_555 1_555
H7 C15 1_555 1_555
C16 C15 1_555 1_555
H8 C16 1_555 1_555
C17 C16 1_555 1_555
C18 C17 1_555 1_555
C19 C14 1_555 1_555
H9 C19 1_555 1_555
C20 C18 1_555 1_555
O2 C1 1_555 1_555
O3 C1 1_555 1_555
O4 C17 1_555 1_555
H13 O4 1_555 1_555
O5 C20 1_555 1_555
O6 C20 1_555 1_555
H16 O10 1_555 1_555
H18 O11 1_555 1_555
Zn5 O3 1_555 1_555
O16 Zn5 1_555 1_555
Zn3 O6 1_555 1_555
Zn6 O5 1_555 1_555
C18 C19 1_555 1_555
O10 Zn5 1_555 1_555
H4_2 C9_2 1_555 1_555
C10_2 C9_2 1_555 1_555
C14_2 C10_2 1_555 1_555
C15_2 C14_2 1_555 1_555
H7_2 C15_2 1_555 1_555
C16_2 C15_2 1_555 1_555
H8_2 C16_2 1_555 1_555
C17_2 C16_2 1_555 1_555
C18_2 C17_2 1_555 1_555
C19_2 C14_2 1_555 1_555
H9_2 C19_2 1_555 1_555
C20_2 C18_2 1_555 1_555
O2_2 C1_2 1_555 1_555
O3_2 C1_2 1_555 1_555
O4_2 C17_2 1_555 1_555
H13_2 O4_2 1_555 1_555
O13 C20_2 1_555 1_555
O14 C20_2 1_555 1_555
O10_2 H15_2 1_555 1_555
H16_2 O10_2 1_555 1_555
O11_2 H17_2 1_555 1_555
H18_2 O11_2 1_555 1_555
Zn6 O3_2 1_555 1_555
O12 Zn6 1_555 1_555
O16_2 Zn6 1_555 1_555
C18_2 C19_2 1_555 1_555
O10_2 Zn6 1_555 1_555
C2_2 C3_2 1_555 1_555
C4_2 C3_2 1_555 1_555
C5_2 C4_2 1_555 1_555
H2_2 C5_2 1_555 1_555
C6_2 C5_2 1_555 1_555
H3_2 C6_2 1_555 1_555
C7_2 C2_2 1_555 1_555
C8_2 C4_2 1_555 1_555
H5_2 C11_2 1_555 1_555
C12_2 C11_2 1_555 1_555
C13_2 C8_2 1_555 1_555
H6_2 C13_2 1_555 1_555
C21_2 C12_2 1_555 1_555
C26_2 C21_2 1_555 1_555
H12_2 C26_2 1_555 1_555
O12 C7_2 1_555 1_555
Zn3 O12 1_555 1_555
O15_2 Zn3 1_555 1_555
C6_2 C7_2 1_555 1_555
C12_2 C13_2 1_555 1_555
H10_2 C22_2 1_555 1_555
C23_2 C22_2 1_555 1_555
C24_2 C23_2 1_555 1_555
C25_2 C24_2 1_555 1_555
H11_2 C25_2 1_555 1_555
C27_2 C23_2 1_555 1_555
O7_2 C27_2 1_555 1_555
O8_2 C27_2 1_555 1_555
O9_2 C24_2 1_555 1_555
H14_2 O9_2 1_555 1_555
Zn4_2 O7_2 1_555 1_555
Zn7_2 O8_2 1_555 1_555
H4_3 C9_3 1_555 1_555
C10_3 C9_3 1_555 1_555
C14_3 C10_3 1_555 1_555
C15_3 C14_3 1_555 1_555
H7_3 C15_3 1_555 1_555
C16_3 C15_3 1_555 1_555
H8_3 C16_3 1_555 1_555
C17_3 C16_3 1_555 1_555
C18_3 C17_3 1_555 1_555
C19_3 C14_3 1_555 1_555
H9_3 C19_3 1_555 1_555
C20_3 C18_3 1_555 1_555
O2_3 C1_3 1_555 1_555
O3_3 C1_3 1_555 1_555
O4_3 C17_3 1_555 1_555
H13_3 O4_3 1_555 1_555
O5_2 C20_3 1_555 1_555
O6_2 C20_3 1_555 1_555
H16_3 O10_3 1_555 1_555
H18_3 O11_3 1_555 1_555
Zn7_2 O3_3 1_555 1_555
O12_2 Zn7_2 1_555 1_555
Zn4 O6_2 1_555 1_555
Zn7 O5_2 1_555 1_555
C18_3 C19_3 1_555 1_555
O10_3 Zn7_2 1_555 1_555
C2_3 C3_3 1_555 1_555
C4_3 C3_3 1_555 1_555
C5_3 C4_3 1_555 1_555
H2_3 C5_3 1_555 1_555
C6_3 C5_3 1_555 1_555
H3_3 C6_3 1_555 1_555
C7_3 C2_3 1_555 1_555
C8_3 C4_3 1_555 1_555
H5_3 C11_3 1_555 1_555
C12_3 C11_3 1_555 1_555
C13_3 C8_3 1_555 1_555
H6_3 C13_3 1_555 1_555
C21_3 C12_3 1_555 1_555
C22_3 C21_3 1_555 1_555
H10_3 C22_3 1_555 1_555
C23_3 C22_3 1_555 1_555
C24_3 C23_3 1_555 1_555
C25_3 C24_3 1_555 1_555
H11_3 C25_3 1_555 1_555
C26_3 C21_3 1_555 1_555
H12_3 C26_3 1_555 1_555
C27_3 C23_3 1_555 1_555
O12_2 C7_3 1_555 1_555
O15_2 C27_3 1_555 1_555
O16_2 C27_3 1_555 1_555
O9_3 C24_3 1_555 1_555
H14_3 O9_3 1_555 1_555
Zn4_2 O12_2 1_555 1_555
C6_3 C7_3 1_555 1_555
C12_3 C13_3 1_555 1_555
C25_3 C26_3 1_555 1_555
H10_4 C22_4 1_555 1_555
C23_4 C22_4 1_555 1_555
C24_4 C23_4 1_555 1_555
C25_4 C24_4 1_555 1_555
H11_4 C25_4 1_555 1_555
C27_4 C23_4 1_555 1_555
O15 C27_4 1_555 1_555
O16 C27_4 1_555 1_555
O9_4 C24_4 1_555 1_555
H14_4 O9_4 1_555 1_555
C2_4 C3_4 1_555 1_555
C4_4 C3_4 1_555 1_555
C5_4 C4_4 1_555 1_555
H2_4 C5_4 1_555 1_555
C6_4 C5_4 1_555 1_555
H3_4 C6_4 1_555 1_555
C7_4 C2_4 1_555 1_555
C8_4 C4_4 1_555 1_555
H5_4 C11_4 1_555 1_555
C12_4 C11_4 1_555 1_555
C13_4 C8_4 1_555 1_555
H6_4 C13_4 1_555 1_555
C21_4 C12_4 1_555 1_555
C26_4 C21_4 1_555 1_555
H12_4 C26_4 1_555 1_555
O1_2 C7_4 1_555 1_555
Zn4 O1_2 1_555 1_555
Zn7 O1_2 1_555 1_555
C6_4 C7_4 1_555 1_555
C12_4 C13_4 1_555 1_555
H4_4 C9_4 1_555 1_555
C10_4 C9_4 1_555 1_555
C14_4 C10_4 1_555 1_555
C15_4 C14_4 1_555 1_555
H7_4 C15_4 1_555 1_555
C16_4 C15_4 1_555 1_555
H8_4 C16_4 1_555 1_555
C17_4 C16_4 1_555 1_555
C18_4 C17_4 1_555 1_555
C19_4 C14_4 1_555 1_555
H9_4 C19_4 1_555 1_555
C20_4 C18_4 1_555 1_555
O2_4 C1_4 1_555 1_555
O3_4 C1_4 1_555 1_555
O4_4 C17_4 1_555 1_555
H13_4 O4_4 1_555 1_555
O13_2 C20_4 1_555 1_555
O14_2 C20_4 1_555 1_555
O10_4 H15_4 1_555 1_555
H16_4 O10_4 1_555 1_555
O11_4 H17_4 1_555 1_555
H18_4 O11_4 1_555 1_555
Zn7 O3_4 1_555 1_555
C18_4 C19_4 1_555 1_555
O10_4 Zn7 1_555 1_555

#END
