
###############################################################################
#
# This file contains modified crystal structure data generated from the
# MOF subset of the Cambridge Structural Database (CSD) v543 
# hosted by the Cambridge Crystallographic Data Centre (CCDC).
#
# This work is licensed under the Creative Commons
# Attribution-NonCommercial-ShareAlike 4.0 International License.
# To view a copy of this license, visit
# http://creativecommons.org/licenses/by-nc-sa/4.0/
# or send a letter to
# Creative Commons, PO Box 1866, Mountain View, CA 94042, USA.
#
# CIF created using the CSD Python API on 29 September 2022
# The structure has been converted into the P1 space group
# The structure has a 3D framework
# The original CSD entry IZIBUQ is in the orthorhombic crystal system
# The framework has been calculated to contain at least 10.0% void space
# The void calculation uses a probe of radius 1.32A, grid spacing 0.4
# H atom positions have been added when not included in the experimental data
# Generated hydrogen atom positions removed from atoms on special positions
#
###############################################################################

data_IZIBUQ
_chemical_formula_moiety         '(C136 H196 O67 Zr19)n'
_symmetry_cell_setting           triclinic
_symmetry_space_group_name_H-M   'P 1'
_symmetry_Int_Tables_number      1
_space_group_name_Hall           'P 1'
loop_
_symmetry_equiv_pos_site_id
_symmetry_equiv_pos_as_xyz
1 x,y,z
_cell_length_a                   20.1413(24)
_cell_length_b                   34.892(10)
_cell_length_c                   11.19392(74)
_cell_angle_alpha                90
_cell_angle_beta                 90
_cell_angle_gamma                90
_cell_volume                     7866.75
loop_
_atom_site_label
_atom_site_type_symbol
_atom_site_fract_x
_atom_site_fract_y
_atom_site_fract_z
_atom_site_U_iso_or_equiv
_atom_site_thermal_displace_type
Zr7 Zr 0.0 0.93432(49) -0.000 0.1013 Uiso
Zr7_2 Zr 0.0 0.93432(49) 1.000 0.1013 Uiso
Zr11 Zr 0.91887(67) 0.0 0.1535(11) 0.1013 Uiso
Zr12 Zr 0.91887(67) 0.0 0.8465(11) 0.1013 Uiso
Zr5 Zr 0.5 0.56568(49) -0.000 0.1013 Uiso
Zr7_3 Zr 1.0 0.93432(49) -0.000 0.1013 Uiso
O1 O 0.93453(92) 0.89402(71) 0.1020(16) 0.1013 Uiso
O2 O 0.8979(10) 0.94241(55) 0.2195(21) 0.1013 Uiso
C1 C 0.784815 0.780133 0.437387 0.1013 Uiso
C2 C 0.810078 0.812998 0.369104 0.1013 Uiso
C3 C 0.867208 0.807830 0.300765 0.1013 Uiso
C4 C 0.895238 0.838693 0.241278 0.1013 Uiso
C5 C 0.780215 0.849346 0.374772 0.1013 Uiso
C6 C 0.900650 0.906854 0.187002 0.1013 Uiso
C7 C 0.867075 0.875363 0.249308 0.1013 Uiso
C8 C 0.808915 0.880631 0.315723 0.1013 Uiso
C9 C 0.75 0.75 0.3769(39) 0.1013 Uiso
O4 O 0.3968(20) 0.53714(93) 0.000 0.1013 Uiso
O7 O 0.56547(92) 0.60598(71) 0.1020(16) 0.1013 Uiso
O8 O 0.6021(10) 0.55759(55) 0.2195(21) 0.1013 Uiso
C10 C 0.715185 0.719867 0.437387 0.1013 Uiso
C11 C 0.689922 0.687002 0.369104 0.1013 Uiso
C12 C 0.632792 0.692170 0.300765 0.1013 Uiso
C13 C 0.604762 0.661307 0.241278 0.1013 Uiso
C14 C 0.719785 0.650654 0.374772 0.1013 Uiso
C15 C 0.599350 0.593146 0.187002 0.1013 Uiso
C16 C 0.632925 0.624637 0.249308 0.1013 Uiso
C17 C 0.691085 0.619369 0.315723 0.1013 Uiso
O9 O 0.93453(92) 0.89402(71) 0.8980(16) 0.1013 Uiso
O10 O 0.8979(10) 0.94241(55) 0.7805(21) 0.1013 Uiso
C18 C 0.784815 0.780133 0.562613 0.1013 Uiso
C19 C 0.810078 0.812998 0.630896 0.1013 Uiso
C20 C 0.867208 0.807830 0.699235 0.1013 Uiso
C21 C 0.895238 0.838693 0.758722 0.1013 Uiso
C22 C 0.780215 0.849346 0.625228 0.1013 Uiso
C23 C 0.900650 0.906854 0.812998 0.1013 Uiso
C24 C 0.867075 0.875363 0.750692 0.1013 Uiso
C25 C 0.808915 0.880631 0.684277 0.1013 Uiso
C26 C 0.75 0.75 0.6231(39) 0.1013 Uiso
O11 O 0.56547(92) 0.60598(71) 0.8980(16) 0.1013 Uiso
O12 O 0.6021(10) 0.55759(55) 0.7805(21) 0.1013 Uiso
C27 C 0.715185 0.719867 0.562613 0.1013 Uiso
C28 C 0.689922 0.687002 0.630896 0.1013 Uiso
C29 C 0.632792 0.692170 0.699235 0.1013 Uiso
C30 C 0.604762 0.661307 0.758722 0.1013 Uiso
C31 C 0.719785 0.650654 0.625228 0.1013 Uiso
C32 C 0.599350 0.593146 0.812998 0.1013 Uiso
C33 C 0.632925 0.624637 0.750692 0.1013 Uiso
C34 C 0.691085 0.619369 0.684277 0.1013 Uiso
Zr3 Zr 0.58113(67) 0.5 0.1535(11) 0.1013 Uiso
O13 O 0.68505(97) 0.5 0.1287(48) 0.1013 Uiso
O14 O 0.6032(20) 0.46286(93) 0.000 0.1013 Uiso
O15 O 0.5 0.46034(87) 0.1793(22) 0.1013 Uiso
O16 O 0.5593(13) 0.5 0.3460(21) 0.1013 Uiso
Zr4 Zr 0.5 0.43432(49) 0.000 0.1013 Uiso
Zr5_2 Zr 0.5 0.56568(49) 1.000 0.1013 Uiso
Zr7_4 Zr 1.0 0.93432(49) 1.000 0.1013 Uiso
O19 O 0.43453(92) 0.60598(71) 0.1020(16) 0.1013 Uiso
O20 O 0.6021(10) 0.44241(55) 0.2195(21) 0.1013 Uiso
Zr9 Zr 0.58113(67) 0.5 0.8465(11) 0.1013 Uiso
Zr10 Zr 0.41887(67) 0.5 0.1535(11) 0.1013 Uiso
Zr11_2 Zr 0.91887(67) 1.0 0.1535(11) 0.1013 Uiso
Zr12_2 Zr 0.91887(67) 1.0 0.8465(11) 0.1013 Uiso
O23 O 0.6032(20) 0.53714(93) 0.000 0.1013 Uiso
O24 O 0.3968(20) 0.46286(93) 0.000 0.1013 Uiso
O26 O 0.5 0.53966(87) 0.1793(22) 0.1013 Uiso
H1 H 0.939715 0.834407 0.1876 . .
H2 H 0.734514 0.853219 0.425338 . .
H3 H 0.786114 0.908871 0.321464 . .
H4 H 0.75 0.75 0.279615 . .
H7 H 0.610176 0.720438 0.294092 . .
H8 H 0.560285 0.665593 0.1876 . .
H9 H 0.889824 0.779562 0.294092 . .
H12 H 0.713886 0.591129 0.321464 . .
H13 H 0.610176 0.720438 0.705908 . .
H14 H 0.734514 0.853219 0.574662 . .
H15 H 0.560285 0.665593 0.8124 . .
H16 H 0.765486 0.646781 0.574662 . .
H17 H 0.75 0.75 0.720385 . .
H18 H 0.765486 0.646781 0.425338 . .
H19 H 0.786114 0.908871 0.678536 . .
H20 H 0.713886 0.591129 0.678536 . .
H21 H 0.939715 0.834407 0.8124 . .
H26 H 0.889824 0.779562 0.705908 . .
Zr2 Zr 0.41887(67) 0.5 0.8465(11) 0.1013 Uiso
O3 O 0.31495(97) 0.5 0.8713(48) 0.1013 Uiso
O4_2 O 0.3968(20) 0.53714(93) 1.000 0.1013 Uiso
O5 O 0.5 0.53966(87) 0.8207(22) 0.1013 Uiso
O6 O 0.4407(13) 0.5 0.6540(21) 0.1013 Uiso
O14_2 O 0.6032(20) 0.46286(93) 1.000 0.1013 Uiso
Zr4_2 Zr 0.5 0.43432(49) 1.000 0.1013 Uiso
O18 O 0.43453(92) 0.60598(71) 0.8980(16) 0.1013 Uiso
O21 O 0.3979(10) 0.55759(55) 0.7805(21) 0.1013 Uiso
O22 O 0.3979(10) 0.44241(55) 0.7805(21) 0.1013 Uiso
O23_2 O 0.6032(20) 0.53714(93) 1.000 0.1013 Uiso
O24_2 O 0.3968(20) 0.46286(93) 1.000 0.1013 Uiso
O25 O 0.5 0.46034(87) 0.8207(22) 0.1013 Uiso
Zr7_5 Zr -0.0 0.06568(49) -0.000 0.1013 Uiso
O1_2 O 0.06547(92) 0.10598(71) 0.1020(16) 0.1013 Uiso
O2_2 O 0.1021(10) 0.05759(55) 0.2195(21) 0.1013 Uiso
C1_2 C 0.215185 0.219867 0.437387 0.1013 Uiso
C2_2 C 0.189922 0.187002 0.369104 0.1013 Uiso
C3_2 C 0.132792 0.192170 0.300765 0.1013 Uiso
C4_2 C 0.104762 0.161307 0.241278 0.1013 Uiso
C5_2 C 0.219785 0.150654 0.374772 0.1013 Uiso
C6_2 C 0.099350 0.093146 0.187002 0.1013 Uiso
C7_2 C 0.132925 0.124637 0.249308 0.1013 Uiso
C8_2 C 0.191085 0.119369 0.315723 0.1013 Uiso
C9_2 C 0.25 0.25 0.3769(39) 0.1013 Uiso
O7_2 O 0.43453(92) 0.39402(71) 0.1020(16) 0.1013 Uiso
O8_2 O 0.3979(10) 0.44241(55) 0.2195(21) 0.1013 Uiso
C10_2 C 0.284815 0.280133 0.437387 0.1013 Uiso
C11_2 C 0.310078 0.312998 0.369104 0.1013 Uiso
C12_2 C 0.367208 0.307830 0.300765 0.1013 Uiso
C13_2 C 0.395238 0.338693 0.241278 0.1013 Uiso
C14_2 C 0.280215 0.349346 0.374772 0.1013 Uiso
C15_2 C 0.400650 0.406854 0.187002 0.1013 Uiso
C16_2 C 0.367075 0.375363 0.249308 0.1013 Uiso
C17_2 C 0.308915 0.380631 0.315723 0.1013 Uiso
O9_2 O 0.06547(92) 0.10598(71) 0.8980(16) 0.1013 Uiso
O10_2 O 0.1021(10) 0.05759(55) 0.7805(21) 0.1013 Uiso
C18_2 C 0.215185 0.219867 0.562613 0.1013 Uiso
C19_2 C 0.189922 0.187002 0.630896 0.1013 Uiso
C20_2 C 0.132792 0.192170 0.699235 0.1013 Uiso
C21_2 C 0.104762 0.161307 0.758722 0.1013 Uiso
C22_2 C 0.219785 0.150654 0.625228 0.1013 Uiso
C23_2 C 0.099350 0.093146 0.812998 0.1013 Uiso
C24_2 C 0.132925 0.124637 0.750692 0.1013 Uiso
C25_2 C 0.191085 0.119369 0.684277 0.1013 Uiso
C26_2 C 0.25 0.25 0.6231(39) 0.1013 Uiso
O11_2 O 0.43453(92) 0.39402(71) 0.8980(16) 0.1013 Uiso
C27_2 C 0.284815 0.280133 0.562613 0.1013 Uiso
C28_2 C 0.310078 0.312998 0.630896 0.1013 Uiso
C29_2 C 0.367208 0.307830 0.699235 0.1013 Uiso
C30_2 C 0.395238 0.338693 0.758722 0.1013 Uiso
C31_2 C 0.280215 0.349346 0.625228 0.1013 Uiso
C32_2 C 0.400650 0.406854 0.812998 0.1013 Uiso
C33_2 C 0.367075 0.375363 0.750692 0.1013 Uiso
C34_2 C 0.308915 0.380631 0.684277 0.1013 Uiso
O13_2 O 0.31495(97) 0.5 0.1287(48) 0.1013 Uiso
O16_2 O 0.4407(13) 0.5 0.3460(21) 0.1013 Uiso
Zr7_6 Zr -0.0 0.06568(49) 1.000 0.1013 Uiso
O19_2 O 0.56547(92) 0.39402(71) 0.1020(16) 0.1013 Uiso
O20_2 O 0.3979(10) 0.55759(55) 0.2195(21) 0.1013 Uiso
Zr11_3 Zr 0.08113(67) 0.0 0.1535(11) 0.1013 Uiso
Zr12_3 Zr 0.08113(67) 0.0 0.8465(11) 0.1013 Uiso
H1_2 H 0.0602845 0.165593 0.1876 . .
H2_2 H 0.265486 0.146781 0.425338 . .
H3_2 H 0.213886 0.0911295 0.321464 . .
H4_2 H 0.25 0.25 0.279615 . .
H7_2 H 0.389824 0.279562 0.294092 . .
H8_2 H 0.439715 0.334407 0.1876 . .
H9_2 H 0.110176 0.220438 0.294092 . .
H12_2 H 0.286114 0.408871 0.321464 . .
H13_2 H 0.389824 0.279562 0.705908 . .
H14_2 H 0.265486 0.146781 0.574662 . .
H15_2 H 0.439715 0.334407 0.8124 . .
H16_2 H 0.234514 0.353219 0.574662 . .
H17_2 H 0.25 0.25 0.720385 . .
H18_2 H 0.234514 0.353219 0.425338 . .
H19_2 H 0.213886 0.0911295 0.678536 . .
H20_2 H 0.286114 0.408871 0.678536 . .
H21_2 H 0.0602845 0.165593 0.8124 . .
H26_2 H 0.110176 0.220438 0.705908 . .
O3_2 O 0.68505(97) 0.5 0.8713(48) 0.1013 Uiso
O6_2 O 0.5593(13) 0.5 0.6540(21) 0.1013 Uiso
O18_2 O 0.56547(92) 0.39402(71) 0.8980(16) 0.1013 Uiso
O21_2 O 0.6021(10) 0.44241(55) 0.7805(21) 0.1013 Uiso
Zr11_4 Zr 0.08113(67) 1.0 0.1535(11) 0.1013 Uiso
Zr12_4 Zr 0.08113(67) 1.0 0.8465(11) 0.1013 Uiso
Zr7_7 Zr 1.0 0.06568(49) -0.000 0.1013 Uiso
Zr7_8 Zr 1.0 0.06568(49) 1.000 0.1013 Uiso
O1_3 O 0.06547(92) 0.89402(71) 0.8980(16) 0.1013 Uiso
O2_3 O 0.1021(10) 0.94241(55) 0.7805(21) 0.1013 Uiso
C1_3 C 0.215185 0.780133 0.562613 0.1013 Uiso
C2_3 C 0.189922 0.812998 0.630896 0.1013 Uiso
C3_3 C 0.132792 0.807830 0.699235 0.1013 Uiso
C4_3 C 0.104762 0.838693 0.758722 0.1013 Uiso
C5_3 C 0.219785 0.849346 0.625228 0.1013 Uiso
C6_3 C 0.099350 0.906854 0.812998 0.1013 Uiso
C7_3 C 0.132925 0.875363 0.750692 0.1013 Uiso
C8_3 C 0.191085 0.880631 0.684277 0.1013 Uiso
C9_3 C 0.25 0.75 0.6231(39) 0.1013 Uiso
C10_3 C 0.284815 0.719867 0.562613 0.1013 Uiso
C11_3 C 0.310078 0.687002 0.630896 0.1013 Uiso
C12_3 C 0.367208 0.692170 0.699235 0.1013 Uiso
C13_3 C 0.395238 0.661307 0.758722 0.1013 Uiso
C14_3 C 0.280215 0.650654 0.625228 0.1013 Uiso
C15_3 C 0.400650 0.593146 0.812998 0.1013 Uiso
C16_3 C 0.367075 0.624637 0.750692 0.1013 Uiso
C17_3 C 0.308915 0.619369 0.684277 0.1013 Uiso
O9_3 O 0.06547(92) 0.89402(71) 0.1020(16) 0.1013 Uiso
O10_3 O 0.1021(10) 0.94241(55) 0.2195(21) 0.1013 Uiso
C18_3 C 0.215185 0.780133 0.437387 0.1013 Uiso
C19_3 C 0.189922 0.812998 0.369104 0.1013 Uiso
C20_3 C 0.132792 0.807830 0.300765 0.1013 Uiso
C21_3 C 0.104762 0.838693 0.241278 0.1013 Uiso
C22_3 C 0.219785 0.849346 0.374772 0.1013 Uiso
C23_3 C 0.099350 0.906854 0.187002 0.1013 Uiso
C24_3 C 0.132925 0.875363 0.249308 0.1013 Uiso
C25_3 C 0.191085 0.880631 0.315723 0.1013 Uiso
C26_3 C 0.25 0.75 0.3769(39) 0.1013 Uiso
C27_3 C 0.284815 0.719867 0.437387 0.1013 Uiso
C28_3 C 0.310078 0.687002 0.369104 0.1013 Uiso
C29_3 C 0.367208 0.692170 0.300765 0.1013 Uiso
C30_3 C 0.395238 0.661307 0.241278 0.1013 Uiso
C31_3 C 0.280215 0.650654 0.374772 0.1013 Uiso
C32_3 C 0.400650 0.593146 0.187002 0.1013 Uiso
C33_3 C 0.367075 0.624637 0.249308 0.1013 Uiso
C34_3 C 0.308915 0.619369 0.315723 0.1013 Uiso
H1_3 H 0.0602845 0.834407 0.8124 . .
H2_3 H 0.265486 0.853219 0.574662 . .
H3_3 H 0.213886 0.908871 0.678536 . .
H4_3 H 0.25 0.75 0.720385 . .
H7_3 H 0.389824 0.720438 0.705908 . .
H8_3 H 0.439715 0.665593 0.8124 . .
H9_3 H 0.110176 0.779562 0.705908 . .
H12_3 H 0.286114 0.591129 0.678536 . .
H13_3 H 0.389824 0.720438 0.294092 . .
H14_3 H 0.265486 0.853219 0.425338 . .
H15_3 H 0.439715 0.665593 0.1876 . .
H16_3 H 0.234514 0.646781 0.425338 . .
H17_3 H 0.25 0.75 0.279615 . .
H18_3 H 0.234514 0.646781 0.574662 . .
H19_3 H 0.213886 0.908871 0.321464 . .
H20_3 H 0.286114 0.591129 0.321464 . .
H21_3 H 0.0602845 0.834407 0.1876 . .
H26_3 H 0.110176 0.779562 0.294092 . .
O15_2 O 0.0 0.03966(87) 0.1793(22) 0.1013 Uiso
O24_3 O 0.1032(20) 0.03714(93) 0.000 0.1013 Uiso
O3_3 O 0.18505(97) -0.0 0.8713(48) 0.1013 Uiso
O6_3 O 0.0593(13) -0.0 0.6540(21) 0.1013 Uiso
O24_4 O 0.1032(20) 0.03714(93) 1.000 0.1013 Uiso
O25_2 O 0.0 0.03966(87) 0.8207(22) 0.1013 Uiso
O4_3 O 0.1032(20) 0.96286(93) 0.000 0.1013 Uiso
O26_2 O 0.0 0.96034(87) 0.1793(22) 0.1013 Uiso
O3_4 O 0.18505(97) 1.0 0.8713(48) 0.1013 Uiso
O4_4 O 0.1032(20) 0.96286(93) 1.000 0.1013 Uiso
O5_2 O 0.0 0.96034(87) 0.8207(22) 0.1013 Uiso
O6_4 O 0.0593(13) 1.0 0.6540(21) 0.1013 Uiso
O13_3 O 0.81495(97) -0.0 0.1287(48) 0.1013 Uiso
O14_3 O 0.8968(20) 0.03714(93) 0.000 0.1013 Uiso
O15_3 O 1.0 0.03966(87) 0.1793(22) 0.1013 Uiso
O16_3 O 0.9407(13) -0.0 0.3460(21) 0.1013 Uiso
O20_3 O 0.8979(10) 0.05759(55) 0.2195(21) 0.1013 Uiso
O14_4 O 0.8968(20) 0.03714(93) 1.000 0.1013 Uiso
O25_3 O 1.0 0.03966(87) 0.8207(22) 0.1013 Uiso
O13_4 O 0.81495(97) 1.0 0.1287(48) 0.1013 Uiso
O16_4 O 0.9407(13) 1.0 0.3460(21) 0.1013 Uiso
O23_3 O 0.8968(20) 0.96286(93) 0.000 0.1013 Uiso
O26_3 O 1.0 0.96034(87) 0.1793(22) 0.1013 Uiso
O5_3 O 1.0 0.96034(87) 0.8207(22) 0.1013 Uiso
O23_4 O 0.8968(20) 0.96286(93) 1.000 0.1013 Uiso
O3_5 O 0.18505(97) 0.0 0.1287(48) 0.1013 Uiso
O6_5 O 0.0593(13) 0.0 0.3460(21) 0.1013 Uiso
O3_6 O 0.18505(97) 1.0 0.1287(48) 0.1013 Uiso
O6_6 O 0.0593(13) 1.0 0.3460(21) 0.1013 Uiso
O17 O 0.93453(92) 0.10598(71) 0.1020(16) 0.1013 Uiso
C1_4 C 0.715185 0.280133 0.562613 0.1013 Uiso
C2_4 C 0.689922 0.312998 0.630896 0.1013 Uiso
C3_4 C 0.632792 0.307830 0.699235 0.1013 Uiso
C4_4 C 0.604762 0.338693 0.758722 0.1013 Uiso
C5_4 C 0.719785 0.349346 0.625228 0.1013 Uiso
C6_4 C 0.599350 0.406854 0.812998 0.1013 Uiso
C7_4 C 0.632925 0.375363 0.750692 0.1013 Uiso
C8_4 C 0.691085 0.380631 0.684277 0.1013 Uiso
C9_4 C 0.75 0.25 0.6231(39) 0.1013 Uiso
O7_3 O 0.93453(92) 0.10598(71) 0.8980(16) 0.1013 Uiso
O8_3 O 0.8979(10) 0.05759(55) 0.7805(21) 0.1013 Uiso
C10_4 C 0.784815 0.219867 0.562613 0.1013 Uiso
C11_4 C 0.810078 0.187002 0.630896 0.1013 Uiso
C12_4 C 0.867208 0.192170 0.699235 0.1013 Uiso
C13_4 C 0.895238 0.161307 0.758722 0.1013 Uiso
C14_4 C 0.780215 0.150654 0.625228 0.1013 Uiso
C15_4 C 0.900650 0.093146 0.812998 0.1013 Uiso
C16_4 C 0.867075 0.124637 0.750692 0.1013 Uiso
C17_4 C 0.808915 0.119369 0.684277 0.1013 Uiso
C18_4 C 0.715185 0.280133 0.437387 0.1013 Uiso
C19_4 C 0.689922 0.312998 0.369104 0.1013 Uiso
C20_4 C 0.632792 0.307830 0.300765 0.1013 Uiso
C21_4 C 0.604762 0.338693 0.241278 0.1013 Uiso
C22_4 C 0.719785 0.349346 0.374772 0.1013 Uiso
C23_4 C 0.599350 0.406854 0.187002 0.1013 Uiso
C24_4 C 0.632925 0.375363 0.249308 0.1013 Uiso
C25_4 C 0.691085 0.380631 0.315723 0.1013 Uiso
C26_4 C 0.75 0.25 0.3769(39) 0.1013 Uiso
C27_4 C 0.784815 0.219867 0.437387 0.1013 Uiso
C28_4 C 0.810078 0.187002 0.369104 0.1013 Uiso
C29_4 C 0.867208 0.192170 0.300765 0.1013 Uiso
C30_4 C 0.895238 0.161307 0.241278 0.1013 Uiso
C31_4 C 0.780215 0.150654 0.374772 0.1013 Uiso
C32_4 C 0.900650 0.093146 0.187002 0.1013 Uiso
C33_4 C 0.867075 0.124637 0.249308 0.1013 Uiso
C34_4 C 0.808915 0.119369 0.315723 0.1013 Uiso
O13_5 O 0.81495(97) 0.0 0.8713(48) 0.1013 Uiso
O16_5 O 0.9407(13) 0.0 0.6540(21) 0.1013 Uiso
H1_4 H 0.560285 0.334407 0.8124 . .
H2_4 H 0.765486 0.353219 0.574662 . .
H3_4 H 0.713886 0.408871 0.678536 . .
H4_4 H 0.75 0.25 0.720385 . .
H7_4 H 0.889824 0.220438 0.705908 . .
H8_4 H 0.939715 0.165593 0.8124 . .
H9_4 H 0.610176 0.279562 0.705908 . .
H12_4 H 0.786114 0.0911295 0.678536 . .
H13_4 H 0.889824 0.220438 0.294092 . .
H14_4 H 0.765486 0.353219 0.425338 . .
H15_4 H 0.939715 0.165593 0.1876 . .
H16_4 H 0.734514 0.146781 0.425338 . .
H17_4 H 0.75 0.25 0.279615 . .
H18_4 H 0.734514 0.146781 0.574662 . .
H19_4 H 0.713886 0.408871 0.321464 . .
H20_4 H 0.786114 0.0911295 0.321464 . .
H21_4 H 0.560285 0.334407 0.1876 . .
H26_4 H 0.610176 0.279562 0.294092 . .
O13_6 O 0.81495(97) 1.0 0.8713(48) 0.1013 Uiso
O16_6 O 0.9407(13) 1.0 0.6540(21) 0.1013 Uiso
loop_
_geom_bond_atom_site_label_1
_geom_bond_atom_site_label_2
_geom_bond_site_symmetry_1
_geom_bond_site_symmetry_2
Zr5 O4 1_555 1_555
O1 C6 1_555 1_555
O2 C6 1_555 1_555
C1 C2 1_555 1_555
C2 C3 1_555 1_555
C3 C4 1_555 1_555
C4 C7 1_555 1_555
C5 C2 1_555 1_555
C6 C7 1_555 1_555
C7 C8 1_555 1_555
C8 C5 1_555 1_555
C9 C1 1_555 1_555
O7 Zr5 1_555 1_555
O8 C15 1_555 1_555
C10 C9 1_555 1_555
C11 C10 1_555 1_555
C12 C11 1_555 1_555
C13 C12 1_555 1_555
C14 C11 1_555 1_555
C15 O7 1_555 1_555
C16 C13 1_555 1_555
C17 C14 1_555 1_555
O9 C23 1_555 1_555
O10 C23 1_555 1_555
C18 C1 1_555 1_555
C19 C18 1_555 1_555
C20 C19 1_555 1_555
C21 C20 1_555 1_555
C22 C19 1_555 1_555
C23 C24 1_555 1_555
C24 C21 1_555 1_555
C25 C22 1_555 1_555
C26 C18 1_555 1_555
O11 C32 1_555 1_555
O12 C32 1_555 1_555
C27 C10 1_555 1_555
C28 C27 1_555 1_555
C29 C28 1_555 1_555
C30 C29 1_555 1_555
C31 C28 1_555 1_555
C32 C33 1_555 1_555
C33 C30 1_555 1_555
C34 C31 1_555 1_555
Zr3 O8 1_555 1_555
O13 Zr3 1_555 1_555
O14 Zr3 1_555 1_555
O15 Zr3 1_555 1_555
O16 Zr3 1_555 1_555
Zr4 O14 1_555 1_555
Zr5_2 O11 1_555 1_555
Zr7_3 O1 1_555 1_555
Zr7_4 O9 1_555 1_555
O19 Zr5 1_555 1_555
O20 Zr3 1_555 1_555
Zr9 O12 1_555 1_555
Zr10 O4 1_555 1_555
Zr11_2 O2 1_555 1_555
Zr12_2 O10 1_555 1_555
O23 Zr5 1_555 1_555
O26 Zr5 1_555 1_555
C15 C16 1_555 1_555
C16 C17 1_555 1_555
C24 C25 1_555 1_555
C26 C27 1_555 1_555
C33 C34 1_555 1_555
Zr3 O23 1_555 1_555
Zr3 O26 1_555 1_555
O15 Zr4 1_555 1_555
O15 Zr10 1_555 1_555
Zr4 O24 1_555 1_555
Zr10 O24 1_555 1_555
Zr10 O26 1_555 1_555
C4 H1 1_555 1_555
C5 H2 1_555 1_555
C8 H3 1_555 1_555
C9 H4 1_555 1_555
C12 H7 1_555 1_555
C13 H8 1_555 1_555
C3 H9 1_555 1_555
C17 H12 1_555 1_555
C29 H13 1_555 1_555
C22 H14 1_555 1_555
C30 H15 1_555 1_555
C31 H16 1_555 1_555
C26 H17 1_555 1_555
C14 H18 1_555 1_555
C25 H19 1_555 1_555
C34 H20 1_555 1_555
C21 H21 1_555 1_555
C20 H26 1_555 1_555
Zr5_2 O4_2 1_555 1_555
Zr2 O3 1_555 1_555
O4_2 Zr2 1_555 1_555
O5 Zr5_2 1_555 1_555
O6 Zr2 1_555 1_555
Zr4_2 O14_2 1_555 1_555
O18 Zr5_2 1_555 1_555
O21 Zr2 1_555 1_555
O22 Zr2 1_555 1_555
Zr9 O5 1_555 1_555
O23_2 Zr5_2 1_555 1_555
O24_2 Zr2 1_555 1_555
O25 Zr2 1_555 1_555
Zr2 O5 1_555 1_555
O14_2 Zr9 1_555 1_555
Zr4_2 O24_2 1_555 1_555
Zr4_2 O25 1_555 1_555
Zr9 O23_2 1_555 1_555
Zr9 O25 1_555 1_555
O1_2 C6_2 1_555 1_555
O2_2 C6_2 1_555 1_555
C1_2 C2_2 1_555 1_555
C2_2 C3_2 1_555 1_555
C3_2 C4_2 1_555 1_555
C4_2 C7_2 1_555 1_555
C5_2 C2_2 1_555 1_555
C6_2 C7_2 1_555 1_555
C7_2 C8_2 1_555 1_555
C8_2 C5_2 1_555 1_555
C9_2 C1_2 1_555 1_555
O7_2 Zr4 1_555 1_555
O8_2 C15_2 1_555 1_555
C10_2 C9_2 1_555 1_555
C11_2 C10_2 1_555 1_555
C12_2 C11_2 1_555 1_555
C13_2 C12_2 1_555 1_555
C14_2 C11_2 1_555 1_555
C15_2 O7_2 1_555 1_555
C16_2 C13_2 1_555 1_555
C17_2 C14_2 1_555 1_555
O9_2 C23_2 1_555 1_555
O10_2 C23_2 1_555 1_555
C18_2 C1_2 1_555 1_555
C19_2 C18_2 1_555 1_555
C20_2 C19_2 1_555 1_555
C21_2 C20_2 1_555 1_555
C22_2 C19_2 1_555 1_555
C23_2 C24_2 1_555 1_555
C24_2 C21_2 1_555 1_555
C25_2 C22_2 1_555 1_555
C26_2 C18_2 1_555 1_555
O11_2 C32_2 1_555 1_555
O22 C32_2 1_555 1_555
C27_2 C10_2 1_555 1_555
C28_2 C27_2 1_555 1_555
C29_2 C28_2 1_555 1_555
C30_2 C29_2 1_555 1_555
C31_2 C28_2 1_555 1_555
C32_2 C33_2 1_555 1_555
C33_2 C30_2 1_555 1_555
C34_2 C31_2 1_555 1_555
Zr10 O8_2 1_555 1_555
O13_2 Zr10 1_555 1_555
O16_2 Zr10 1_555 1_555
Zr4_2 O11_2 1_555 1_555
Zr7_5 O1_2 1_555 1_555
Zr7_6 O9_2 1_555 1_555
O19_2 Zr4 1_555 1_555
O20_2 Zr10 1_555 1_555
Zr11_3 O2_2 1_555 1_555
Zr12_3 O10_2 1_555 1_555
C15_2 C16_2 1_555 1_555
C16_2 C17_2 1_555 1_555
C24_2 C25_2 1_555 1_555
C26_2 C27_2 1_555 1_555
C33_2 C34_2 1_555 1_555
C4_2 H1_2 1_555 1_555
C5_2 H2_2 1_555 1_555
C8_2 H3_2 1_555 1_555
C9_2 H4_2 1_555 1_555
C12_2 H7_2 1_555 1_555
C13_2 H8_2 1_555 1_555
C3_2 H9_2 1_555 1_555
C17_2 H12_2 1_555 1_555
C29_2 H13_2 1_555 1_555
C22_2 H14_2 1_555 1_555
C30_2 H15_2 1_555 1_555
C31_2 H16_2 1_555 1_555
C26_2 H17_2 1_555 1_555
C14_2 H18_2 1_555 1_555
C25_2 H19_2 1_555 1_555
C34_2 H20_2 1_555 1_555
C21_2 H21_2 1_555 1_555
C20_2 H26_2 1_555 1_555
Zr9 O3_2 1_555 1_555
O6_2 Zr9 1_555 1_555
O18_2 Zr4_2 1_555 1_555
O21_2 Zr9 1_555 1_555
O1_3 C6_3 1_555 1_555
O2_3 C6_3 1_555 1_555
C1_3 C2_3 1_555 1_555
C2_3 C3_3 1_555 1_555
C3_3 C4_3 1_555 1_555
C4_3 C7_3 1_555 1_555
C5_3 C2_3 1_555 1_555
C6_3 C7_3 1_555 1_555
C7_3 C8_3 1_555 1_555
C8_3 C5_3 1_555 1_555
C9_3 C1_3 1_555 1_555
O21 C15_3 1_555 1_555
C10_3 C9_3 1_555 1_555
C11_3 C10_3 1_555 1_555
C12_3 C11_3 1_555 1_555
C13_3 C12_3 1_555 1_555
C14_3 C11_3 1_555 1_555
C15_3 O18 1_555 1_555
C16_3 C13_3 1_555 1_555
C17_3 C14_3 1_555 1_555
O9_3 C23_3 1_555 1_555
O10_3 C23_3 1_555 1_555
C18_3 C1_3 1_555 1_555
C19_3 C18_3 1_555 1_555
C20_3 C19_3 1_555 1_555
C21_3 C20_3 1_555 1_555
C22_3 C19_3 1_555 1_555
C23_3 C24_3 1_555 1_555
C24_3 C21_3 1_555 1_555
C25_3 C22_3 1_555 1_555
C26_3 C18_3 1_555 1_555
O19 C32_3 1_555 1_555
O20_2 C32_3 1_555 1_555
C27_3 C10_3 1_555 1_555
C28_3 C27_3 1_555 1_555
C29_3 C28_3 1_555 1_555
C30_3 C29_3 1_555 1_555
C31_3 C28_3 1_555 1_555
C32_3 C33_3 1_555 1_555
C33_3 C30_3 1_555 1_555
C34_3 C31_3 1_555 1_555
Zr7_2 O1_3 1_555 1_555
Zr7 O9_3 1_555 1_555
Zr12_4 O2_3 1_555 1_555
Zr11_4 O10_3 1_555 1_555
C15_3 C16_3 1_555 1_555
C16_3 C17_3 1_555 1_555
C24_3 C25_3 1_555 1_555
C26_3 C27_3 1_555 1_555
C33_3 C34_3 1_555 1_555
C4_3 H1_3 1_555 1_555
C5_3 H2_3 1_555 1_555
C8_3 H3_3 1_555 1_555
C9_3 H4_3 1_555 1_555
C12_3 H7_3 1_555 1_555
C13_3 H8_3 1_555 1_555
C3_3 H9_3 1_555 1_555
C17_3 H12_3 1_555 1_555
C29_3 H13_3 1_555 1_555
C22_3 H14_3 1_555 1_555
C30_3 H15_3 1_555 1_555
C31_3 H16_3 1_555 1_555
C26_3 H17_3 1_555 1_555
C14_3 H18_3 1_555 1_555
C25_3 H19_3 1_555 1_555
C34_3 H20_3 1_555 1_555
C21_3 H21_3 1_555 1_555
C20_3 H26_3 1_555 1_555
O15_2 Zr7_5 1_555 1_555
O15_2 Zr11_3 1_555 1_555
Zr7_5 O24_3 1_555 1_555
Zr11_3 O24_3 1_555 1_555
Zr12_3 O3_3 1_555 1_555
O6_3 Zr12_3 1_555 1_555
O24_4 Zr12_3 1_555 1_555
O25_2 Zr12_3 1_555 1_555
Zr7_6 O24_4 1_555 1_555
Zr7_6 O25_2 1_555 1_555
Zr7 O4_3 1_555 1_555
Zr11_4 O4_3 1_555 1_555
O26_2 Zr7 1_555 1_555
Zr11_4 O26_2 1_555 1_555
Zr7_2 O4_4 1_555 1_555
Zr12_4 O3_4 1_555 1_555
O4_4 Zr12_4 1_555 1_555
O5_2 Zr7_2 1_555 1_555
O6_4 Zr12_4 1_555 1_555
Zr12_4 O5_2 1_555 1_555
O13_3 Zr11 1_555 1_555
O14_3 Zr11 1_555 1_555
O15_3 Zr11 1_555 1_555
O16_3 Zr11 1_555 1_555
Zr7_7 O14_3 1_555 1_555
O20_3 Zr11 1_555 1_555
O15_3 Zr7_7 1_555 1_555
Zr7_8 O14_4 1_555 1_555
O14_4 Zr12 1_555 1_555
Zr7_8 O25_3 1_555 1_555
Zr12 O25_3 1_555 1_555
O13_4 Zr11_2 1_555 1_555
O16_4 Zr11_2 1_555 1_555
O23_3 Zr7_3 1_555 1_555
O26_3 Zr7_3 1_555 1_555
Zr11_2 O23_3 1_555 1_555
Zr11_2 O26_3 1_555 1_555
O5_3 Zr7_4 1_555 1_555
Zr12_2 O5_3 1_555 1_555
O23_4 Zr7_4 1_555 1_555
Zr12_2 O23_4 1_555 1_555
Zr11_3 O3_5 1_555 1_555
O6_5 Zr11_3 1_555 1_555
Zr11_4 O3_6 1_555 1_555
O6_6 Zr11_4 1_555 1_555
O17 Zr7_7 1_555 1_555
O18_2 C6_4 1_555 1_555
O21_2 C6_4 1_555 1_555
C1_4 C2_4 1_555 1_555
C2_4 C3_4 1_555 1_555
C3_4 C4_4 1_555 1_555
C4_4 C7_4 1_555 1_555
C5_4 C2_4 1_555 1_555
C6_4 C7_4 1_555 1_555
C7_4 C8_4 1_555 1_555
C8_4 C5_4 1_555 1_555
C9_4 C1_4 1_555 1_555
O7_3 Zr7_8 1_555 1_555
O8_3 C15_4 1_555 1_555
C10_4 C9_4 1_555 1_555
C11_4 C10_4 1_555 1_555
C12_4 C11_4 1_555 1_555
C13_4 C12_4 1_555 1_555
C14_4 C11_4 1_555 1_555
C15_4 O7_3 1_555 1_555
C16_4 C13_4 1_555 1_555
C17_4 C14_4 1_555 1_555
O19_2 C23_4 1_555 1_555
O20 C23_4 1_555 1_555
C18_4 C1_4 1_555 1_555
C19_4 C18_4 1_555 1_555
C20_4 C19_4 1_555 1_555
C21_4 C20_4 1_555 1_555
C22_4 C19_4 1_555 1_555
C23_4 C24_4 1_555 1_555
C24_4 C21_4 1_555 1_555
C25_4 C22_4 1_555 1_555
C26_4 C18_4 1_555 1_555
O17 C32_4 1_555 1_555
O20_3 C32_4 1_555 1_555
C27_4 C10_4 1_555 1_555
C28_4 C27_4 1_555 1_555
C29_4 C28_4 1_555 1_555
C30_4 C29_4 1_555 1_555
C31_4 C28_4 1_555 1_555
C32_4 C33_4 1_555 1_555
C33_4 C30_4 1_555 1_555
C34_4 C31_4 1_555 1_555
Zr12 O8_3 1_555 1_555
O13_5 Zr12 1_555 1_555
O16_5 Zr12 1_555 1_555
C15_4 C16_4 1_555 1_555
C16_4 C17_4 1_555 1_555
C24_4 C25_4 1_555 1_555
C26_4 C27_4 1_555 1_555
C33_4 C34_4 1_555 1_555
C4_4 H1_4 1_555 1_555
C5_4 H2_4 1_555 1_555
C8_4 H3_4 1_555 1_555
C9_4 H4_4 1_555 1_555
C12_4 H7_4 1_555 1_555
C13_4 H8_4 1_555 1_555
C3_4 H9_4 1_555 1_555
C17_4 H12_4 1_555 1_555
C29_4 H13_4 1_555 1_555
C22_4 H14_4 1_555 1_555
C30_4 H15_4 1_555 1_555
C31_4 H16_4 1_555 1_555
C26_4 H17_4 1_555 1_555
C14_4 H18_4 1_555 1_555
C25_4 H19_4 1_555 1_555
C34_4 H20_4 1_555 1_555
C21_4 H21_4 1_555 1_555
C20_4 H26_4 1_555 1_555
O13_6 Zr12_2 1_555 1_555
O16_6 Zr12_2 1_555 1_555

#END
