
###############################################################################
#
# This file contains modified crystal structure data generated from the
# MOF subset of the Cambridge Structural Database (CSD) v543 
# hosted by the Cambridge Crystallographic Data Centre (CCDC).
#
# This work is licensed under the Creative Commons
# Attribution-NonCommercial-ShareAlike 4.0 International License.
# To view a copy of this license, visit
# http://creativecommons.org/licenses/by-nc-sa/4.0/
# or send a letter to
# Creative Commons, PO Box 1866, Mountain View, CA 94042, USA.
#
# CIF created using the CSD Python API on 29 September 2022
# The structure has been converted into the P1 space group
# The structure has a 3D framework
# The original CSD entry IZIDOM is in the orthorhombic crystal system
# The framework has been calculated to contain at least 10.0% void space
# The void calculation uses a probe of radius 1.32A, grid spacing 0.4
# The framework is charged, counterions have been retained in the structure
#
###############################################################################

data_IZIDOM
_chemical_formula_moiety         '(C12 H12 Fe11 O24 6-)n'
_symmetry_cell_setting           triclinic
_symmetry_space_group_name_H-M   'P 1'
_symmetry_Int_Tables_number      1
_space_group_name_Hall           'P 1'
loop_
_symmetry_equiv_pos_site_id
_symmetry_equiv_pos_as_xyz
1 x,y,z
_cell_length_a                   8.736(3)
_cell_length_b                   11.763(4)
_cell_length_c                   7.871(3)
_cell_angle_alpha                90
_cell_angle_beta                 90
_cell_angle_gamma                90
_cell_volume                     808.836
loop_
_atom_site_label
_atom_site_type_symbol
_atom_site_fract_x
_atom_site_fract_y
_atom_site_fract_z
Fe3 Fe 0.0000 0.0000 0.0000
Fe3_2 Fe 0.0000 0.0000 1.0000
Fe3_3 Fe 0.0000 1.0000 0.0000
Fe3_4 Fe 0.0000 1.0000 1.0000
Fe1 Fe 0.5000 0.0000 0.5000
O1 O 0.46464(18) 0.15617(13) 0.36613(19)
O2 O 0.40243(18) 0.06791(12) 0.72685(17)
O3 O 0.21747(17) 0.06654(13) 0.91839(17)
C1 C 0.4724(4) 0.2500 0.4378(4)
H1 H 0.4851 0.2500 0.5551
C2 C 0.2804(3) 0.0324(2) 0.7858(3)
O4 O 0.46464(18) 0.34383(13) 0.36613(19)
H3 H 0.7689 0.0251 0.2742
Fe3_5 Fe 1.0000 0.0000 0.0000
Fe4 Fe 0.5000 0.5000 0.5000
O9 O 0.71747(17) 0.06654(13) 0.58161(17)
Fe3_6 Fe 1.0000 0.0000 1.0000
Fe1_2 Fe 0.5000 1.0000 0.5000
H2 H 0.2311 0.9749 0.7258
O5 O 0.59757(18) 0.93209(12) 0.27315(17)
O6 O 0.78253(17) 0.93346(13) 0.08161(17)
C3 C 0.7196(3) 0.9676(2) 0.2142(3)
Fe3_7 Fe 1.0000 1.0000 0.0000
O7 O 0.53536(18) 0.84383(13) 0.63387(19)
O8 O 0.28253(17) 0.93346(13) 0.41839(17)
Fe3_8 Fe 1.0000 1.0000 1.0000
H2_2 H 0.2689 0.0251 0.2258
O2_2 O 0.09757(18) 0.93209(12) 0.22685(17)
H1_2 H 0.0149 0.7500 0.0551
C2_2 C 0.2196(3) 0.9676(2) 0.2858(3)
Fe4_2 Fe 0.0000 0.5000 0.0000
O1_2 O 0.03536(18) 0.84383(13) 0.86613(19)
C1_2 C 0.0276(4) 0.7500 0.9378(4)
O4_2 O 0.03536(18) 0.65617(13) 0.86613(19)
Fe4_3 Fe 0.0000 0.5000 1.0000
O7_2 O 0.96464(18) 0.15617(13) 0.13387(19)
O5_2 O 0.90243(18) 0.06791(12) 0.77315(17)
C3_2 C 0.7804(3) 0.0324(2) 0.7142(3)
Fe4_4 Fe 1.0000 0.5000 0.0000
H3_2 H 0.7311 0.9749 0.7742
Fe4_5 Fe 1.0000 0.5000 1.0000
O5_3 O 0.09757(18) 0.56791(12) 0.22685(17)
O6_2 O 0.28253(17) 0.56654(13) 0.41839(17)
C3_3 C 0.2196(3) 0.5324(2) 0.2858(3)
H3_3 H 0.2689 0.4749 0.2258
O9_2 O 0.21747(17) 0.43346(13) 0.91839(17)
O1_3 O 0.96464(18) 0.34383(13) 0.13387(19)
C1_3 C 0.9724(4) 0.2500 0.0622(4)
O8_2 O 0.78253(17) 0.56654(13) 0.08161(17)
O2_3 O 0.90243(18) 0.43209(12) 0.77315(17)
O3_2 O 0.71747(17) 0.43346(13) 0.58161(17)
H1_3 H 0.9851 0.2500 0.9449
C2_3 C 0.7804(3) 0.4676(2) 0.7142(3)
H2_3 H 0.7311 0.5251 0.7742
O1_4 O 0.53536(18) 0.65617(13) 0.63387(19)
O2_4 O 0.59757(18) 0.56791(12) 0.27315(17)
C1_4 C 0.5276(4) 0.7500 0.5622(4)
H1_4 H 0.5149 0.7500 0.4449
C2_4 C 0.7196(3) 0.5324(2) 0.2142(3)
H2_4 H 0.7689 0.4749 0.2742
O5_4 O 0.40243(18) 0.43209(12) 0.72685(17)
C3_4 C 0.2804(3) 0.4676(2) 0.7858(3)
H3_4 H 0.2311 0.5251 0.7258
loop_
_geom_bond_atom_site_label_1
_geom_bond_atom_site_label_2
_geom_bond_site_symmetry_1
_geom_bond_site_symmetry_2
Fe1 O1 1_555 1_555
O1 C1 1_555 1_555
O2 Fe1 1_555 1_555
O3 C2 1_555 1_555
C1 H1 1_555 1_555
C2 O2 1_555 1_555
O4 C1 1_555 1_555
Fe3_2 O3 1_555 1_555
Fe4 O4 1_555 1_555
O9 Fe1 1_555 1_555
O5 Fe1_2 1_555 1_555
O6 C3 1_555 1_555
C3 O5 1_555 1_555
Fe3_7 O6 1_555 1_555
O7 Fe1_2 1_555 1_555
O8 Fe1_2 1_555 1_555
O2_2 Fe3_3 1_555 1_555
O8 C2_2 1_555 1_555
C2_2 O2_2 1_555 1_555
Fe3_4 O1_2 1_555 1_555
O1_2 C1_2 1_555 1_555
O4_2 C1_2 1_555 1_555
Fe4_3 O4_2 1_555 1_555
O7_2 Fe3_5 1_555 1_555
O5_2 Fe3_6 1_555 1_555
O9 C3_2 1_555 1_555
C3_2 O5_2 1_555 1_555
O5_3 Fe4_2 1_555 1_555
O6_2 C3_3 1_555 1_555
C3_3 O5_3 1_555 1_555
H3_3 C3_3 1_555 1_555
Fe4 O6_2 1_555 1_555
O9_2 Fe4_3 1_555 1_555
Fe4_4 O1_3 1_555 1_555
O1_3 C1_3 1_555 1_555
O7_2 C1_3 1_555 1_555
O8_2 Fe4_4 1_555 1_555
O2_3 Fe4_5 1_555 1_555
O3_2 C2_3 1_555 1_555
C2_3 O2_3 1_555 1_555
H2_3 C2_3 1_555 1_555
Fe4 O3_2 1_555 1_555
Fe4 O1_4 1_555 1_555
O1_4 C1_4 1_555 1_555
O2_4 Fe4 1_555 1_555
O8_2 C2_4 1_555 1_555
C1_4 H1_4 1_555 1_555
C2_4 O2_4 1_555 1_555
H2_4 C2_4 1_555 1_555
O7 C1_4 1_555 1_555
O5_4 Fe4 1_555 1_555
O9_2 C3_4 1_555 1_555
C3_4 O5_4 1_555 1_555
H3_4 C3_4 1_555 1_555

#END
