
###############################################################################
#
# This file contains modified crystal structure data generated from the
# MOF subset of the Cambridge Structural Database (CSD) v543 
# hosted by the Cambridge Crystallographic Data Centre (CCDC).
#
# This work is licensed under the Creative Commons
# Attribution-NonCommercial-ShareAlike 4.0 International License.
# To view a copy of this license, visit
# http://creativecommons.org/licenses/by-nc-sa/4.0/
# or send a letter to
# Creative Commons, PO Box 1866, Mountain View, CA 94042, USA.
#
# CIF created using the CSD Python API on 29 September 2022
# The structure has been converted into the P1 space group
# The structure has a 3D framework
# The original CSD entry IZIDIG01 is in the hexagonal crystal system
# The original CSD entry IZIDIG01 is in a Sohncke space group
# The framework has been calculated to contain at least 10.0% void space
# The void calculation uses a probe of radius 1.32A, grid spacing 0.4
# The framework is charged, counterions have been retained in the structure
#
###############################################################################

data_IZIDIG01
_chemical_formula_moiety         '(C6 H6 Fe2 O12 4-)n'
_symmetry_cell_setting           triclinic
_symmetry_space_group_name_H-M   'P 1'
_symmetry_Int_Tables_number      1
_space_group_name_Hall           'P 1'
loop_
_symmetry_equiv_pos_site_id
_symmetry_equiv_pos_as_xyz
1 x,y,z
_cell_length_a                   7.946(3)
_cell_length_b                   7.946(3)
_cell_length_c                   7.618(3)
_cell_angle_alpha                90
_cell_angle_beta                 90
_cell_angle_gamma                120
_cell_volume                     416.552
loop_
_atom_site_label
_atom_site_type_symbol
_atom_site_fract_x
_atom_site_fract_y
_atom_site_fract_z
O6 O 0.1198(6) 0.4356(4) 0.3855(3)
C3 C 0.0004(8) 0.4443(6) 0.4818(9)
H3 H 0.0012 0.5617 0.4826
Fe4 Fe 0.3334 0.6667 0.2318(4)
Fe1 Fe 0.6667 0.3333 0.7318(4)
O1 O 0.6846(4) 0.5643(4) 0.5776(3)
O2 O 0.5644(4) 0.6842(4) 0.3855(3)
C1 C 0.5557(6) 0.5561(5) 0.4818(9)
H1 H 0.4383 0.4395 0.4826
O3 O 0.4357(4) 0.1203(6) 0.5776(3)
O5 O 0.8797(6) 0.3154(4) 0.5776(3)
O7 O 0.8802(6) 0.5644(4) 0.8855(3)
O8 O 0.4356(4) 0.3158(4) 0.8855(3)
O9 O 0.6842(4) 0.1198(6) 0.8855(3)
O4 O 0.3158(4) 0.8802(6) 0.3855(3)
C2 C 0.4439(5) 0.9996(8) 0.4818(9)
H2 H 0.5605 0.9988 0.4826
C3_2 C 0.5561(10) 0.0004(8) 0.9818(9)
H3_2 H 0.4395 0.0012 0.9826
O1_2 O 0.1203(6) 0.6846(4) 0.0776(3)
O3_2 O 0.3154(7) 0.4357(4) 0.0776(3)
O5_2 O 0.5643(7) 0.8797(6) 0.0776(3)
C2_2 C 0.4443(9) 0.4439(5) 0.9818(9)
H2_2 H 0.5617 0.5605 0.9826
C1_2 C 0.9996(8) 0.5557(6) 0.9818(9)
H1_2 H 0.9988 0.4383 0.9826
loop_
_geom_bond_atom_site_label_1
_geom_bond_atom_site_label_2
_geom_bond_site_symmetry_1
_geom_bond_site_symmetry_2
O6 C3 1_555 1_555
H3 C3 1_555 1_555
Fe4 O6 1_555 1_555
Fe1 O1 1_555 1_555
O1 C1 1_555 1_555
O2 C1 1_555 1_555
C1 H1 1_555 1_555
O3 Fe1 1_555 1_555
O5 Fe1 1_555 1_555
Fe4 O2 1_555 1_555
O7 Fe1 1_555 1_555
O8 Fe1 1_555 1_555
O9 Fe1 1_555 1_555
O4 C2 1_555 1_555
H2 C2 1_555 1_555
Fe4 O4 1_555 1_555
O9 C3_2 1_555 1_555
H3_2 C3_2 1_555 1_555
Fe4 O1_2 1_555 1_555
O3_2 Fe4 1_555 1_555
O5_2 Fe4 1_555 1_555
O8 C2_2 1_555 1_555
H2_2 C2_2 1_555 1_555
O7 C1_2 1_555 1_555
C1_2 H1_2 1_555 1_555

#END
