
###############################################################################
#
# This file contains modified crystal structure data generated from the
# MOF subset of the Cambridge Structural Database (CSD) v543 
# hosted by the Cambridge Crystallographic Data Centre (CCDC).
#
# This work is licensed under the Creative Commons
# Attribution-NonCommercial-ShareAlike 4.0 International License.
# To view a copy of this license, visit
# http://creativecommons.org/licenses/by-nc-sa/4.0/
# or send a letter to
# Creative Commons, PO Box 1866, Mountain View, CA 94042, USA.
#
# CIF created using the CSD Python API on 29 September 2022
# The structure has been converted into the P1 space group
# The structure has a 3D framework
# The original CSD entry IZIHOQ is in the tetragonal crystal system
# The framework has been calculated to contain at least 10.0% void space
# The void calculation uses a probe of radius 1.32A, grid spacing 0.4
#
###############################################################################

data_IZIHOQ
_chemical_formula_moiety         '(C370 H258 Dy34 O190)n'
_symmetry_cell_setting           triclinic
_symmetry_space_group_name_H-M   'P 1'
_symmetry_Int_Tables_number      1
_space_group_name_Hall           'P 1'
loop_
_symmetry_equiv_pos_site_id
_symmetry_equiv_pos_as_xyz
1 x,y,z
_cell_length_a                   14.1545(3)
_cell_length_b                   14.1545(3)
_cell_length_c                   62.938(2)
_cell_angle_alpha                90
_cell_angle_beta                 90
_cell_angle_gamma                90
_cell_volume                     12609.6
loop_
_atom_site_label
_atom_site_type_symbol
_atom_site_fract_x
_atom_site_fract_y
_atom_site_fract_z
Dy1 Dy 0.0000 0.5000 0.45908(2)
O8 O 0.0081(4) 0.6104(3) 0.42981(5)
O12 O 0.0000 0.5000 0.49750(8)
H9 H 0.0019 0.9092 0.4729
C11 C 0.0475(6) 0.8904(6) 0.44292(12)
H10 H 0.1044 0.9224 0.4447
C12 C 0.0255(6) 0.8514(5) 0.42336(11)
H11 H 0.0675 0.8565 0.4121
H17 H 0.0190 0.4565 0.5056
O24 O 0.0892(3) 0.3726(3) 0.47057(7)
O28 O 0.1298(4) 0.5918(4) 0.46527(8)
O33 O 0.1311(3) 0.4553(3) 0.42870(6)
Dy6 Dy 0.5000 0.0000 0.54092(2)
Dy1_2 Dy 1.0000 0.5000 0.45908(2)
Dy2 Dy 0.72283(2) 0.48884(2) 0.43889(2)
O1 O 0.7586(3) 0.5960(3) 0.46489(7)
O2 O 0.9108(3) 0.6274(3) 0.47057(7)
O3 O 0.6138(4) 0.7176(4) 0.53226(8)
O4 O 0.5918(4) 0.8702(4) 0.53473(8)
O5 O 0.8242(5) 0.6376(4) 0.32775(8)
O6 O 0.8214(3) 0.5102(4) 0.34732(6)
O7 O 0.8689(3) 0.5447(3) 0.42870(6)
O9 O 0.5698(2) 0.5255(6) 0.45600(14)
O10 O 0.5988(6) 0.3770(7) 0.43113(15)
H1 H 0.6083 0.3120 0.4365
H2 H 0.5845 0.3646 0.4158
O11 O 0.8025(4) 0.3594(4) 0.42153(8)
H3 H 0.7678 0.3099 0.4220
H4 H 0.8547 0.3482 0.4279
O12_2 O 1.0000 0.5000 0.49750(8)
H5 H 0.9810 0.5435 0.5056
C1 C 0.8242(5) 0.6472(5) 0.47128(11)
C2 C 0.7959(4) 0.7390(5) 0.48166(9)
C3 C 0.7297(5) 0.7341(5) 0.49748(12)
H6 H 0.7035 0.6758 0.5009
C4 C 0.7006(5) 0.8134(5) 0.50862(11)
C5 C 0.7390(5) 0.9006(5) 0.50324(11)
H7 H 0.7210 0.9545 0.5107
C6 C 0.8028(5) 0.9074(5) 0.48716(11)
H8 H 0.8265 0.9664 0.4835
C7 C 0.8343(5) 0.8255(5) 0.47579(10)
C8 C 0.6300(6) 0.8001(6) 0.52625(12)
C9 C 0.9018(5) 0.8358(5) 0.45761(11)
C10 C 0.9861(6) 0.8826(5) 0.45990(10)
C13 C 0.9407(5) 0.8048(5) 0.42086(10)
C14 C 0.8779(5) 0.7981(4) 0.43776(10)
H12 H 0.8198 0.7685 0.4359
C15 C 0.9171(5) 0.7538(5) 0.40070(9)
C16 C 0.9036(6) 0.7978(6) 0.38148(11)
H13 H 0.9127 0.8628 0.3805
C17 C 0.8775(5) 0.7495(6) 0.36382(10)
H14 H 0.8661 0.7817 0.3512
C18 C 0.8677(5) 0.6527(5) 0.36460(10)
C19 C 0.8799(5) 0.6065(5) 0.38337(9)
H15 H 0.8701 0.5416 0.3841
C20 C 0.9067(4) 0.6557(5) 0.40136(9)
C21 C 0.8363(5) 0.5974(6) 0.34544(11)
C22 C 0.9298(5) 0.6017(4) 0.42147(9)
C23 C 0.5000 0.5000 0.4439(3)
H16 H 0.5000 0.5000 0.4292
O13 O 0.4302(2) 0.4745(6) 0.45600(14)
Dy3 Dy 0.27717(2) 0.51116(2) 0.43889(2)
O14 O 0.2414(3) 0.4040(3) 0.46489(7)
O16 O 0.3862(4) 0.2824(4) 0.53226(8)
O17 O 0.4082(4) 0.1298(4) 0.53473(8)
O18 O 0.1758(5) 0.3624(4) 0.32775(8)
O19 O 0.1786(3) 0.4898(4) 0.34732(6)
O22 O 0.4012(6) 0.6230(7) 0.43113(15)
H18 H 0.3917 0.6880 0.4365
H19 H 0.4155 0.6354 0.4158
O23 O 0.1975(4) 0.6406(4) 0.42153(8)
H20 H 0.2322 0.6901 0.4220
H21 H 0.1453 0.6518 0.4279
C24 C 0.1758(5) 0.3528(5) 0.47128(11)
C25 C 0.2041(4) 0.2610(5) 0.48166(9)
C26 C 0.2703(5) 0.2659(5) 0.49748(12)
H22 H 0.2965 0.3242 0.5009
C27 C 0.2994(5) 0.1866(5) 0.50862(11)
C28 C 0.2610(5) 0.0994(5) 0.50324(11)
H23 H 0.2790 0.0455 0.5107
C29 C 0.1972(5) 0.0926(5) 0.48716(11)
H24 H 0.1735 0.0336 0.4835
C30 C 0.1657(5) 0.1745(5) 0.47579(10)
C31 C 0.3700(6) 0.1999(6) 0.52625(12)
C32 C 0.0982(5) 0.1642(5) 0.45761(11)
C33 C 0.0139(6) 0.1174(5) 0.45990(10)
C36 C 0.0593(5) 0.1952(5) 0.42086(10)
C37 C 0.1221(5) 0.2019(4) 0.43776(10)
H28 H 0.1802 0.2315 0.4359
C38 C 0.0829(5) 0.2462(5) 0.40070(9)
C39 C 0.0964(6) 0.2022(6) 0.38148(11)
H29 H 0.0873 0.1372 0.3805
C40 C 0.1225(5) 0.2505(6) 0.36382(10)
H30 H 0.1339 0.2183 0.3512
C41 C 0.1323(5) 0.3473(5) 0.36460(10)
C42 C 0.1201(5) 0.3935(5) 0.38337(9)
H31 H 0.1299 0.4584 0.3841
C43 C 0.0933(4) 0.3443(5) 0.40136(9)
C44 C 0.1637(5) 0.4026(6) 0.34544(11)
C45 C 0.0702(5) 0.3983(4) 0.42147(9)
Dy6_2 Dy 0.5000 1.0000 0.54092(2)
Dy7 Dy 0.48884(2) 0.27717(2) 0.56111(2)
Dy8 Dy 0.51116(2) 0.72283(2) 0.56111(2)
Dy9 Dy 0.77717(2) 0.48884(2) 0.31111(2)
Dy10 Dy 0.22283(2) 0.51116(2) 0.31111(2)
O25 O 0.7176(4) 0.3862(4) 0.46774(8)
O26 O 0.2824(4) 0.6138(4) 0.46774(8)
O27 O 0.8702(4) 0.4082(4) 0.46527(8)
O29 O 0.6758(5) 0.6376(4) 0.42225(8)
O30 O 0.3242(5) 0.3624(4) 0.42225(8)
O31 O 0.6786(3) 0.5102(4) 0.40268(6)
O32 O 0.3214(3) 0.4898(4) 0.40268(6)
O34 O 0.9919(4) 0.3896(3) 0.42981(5)
H25 H 0.9981 0.0908 0.4729
C34 C 0.9525(6) 0.1096(6) 0.44292(12)
H26 H 0.8956 0.0776 0.4447
C35 C 0.9745(6) 0.1486(5) 0.42336(11)
H27 H 0.9325 0.1435 0.4121
O21 O 0.3896(3) 0.0081(4) 0.57019(5)
H25_2 H 0.0908 0.0019 0.5271
C34_2 C 0.1096(6) 0.0475(6) 0.55708(12)
H26_2 H 0.0776 0.1044 0.5553
C35_2 C 0.1486(5) 0.0255(6) 0.57664(11)
H27_2 H 0.1435 0.0675 0.5879
O1_2 O 0.5960(3) 0.2414(3) 0.53511(7)
O2_2 O 0.6274(3) 0.0892(3) 0.52943(7)
O5_2 O 0.6376(4) 0.1758(5) 0.67225(8)
O6_2 O 0.5102(4) 0.1786(3) 0.65268(6)
O7_2 O 0.5447(3) 0.1311(3) 0.57130(6)
O9_2 O 0.5255(6) 0.4302(2) 0.54400(14)
O10_2 O 0.3770(7) 0.4012(6) 0.56887(15)
H1_2 H 0.3120 0.3917 0.5635
H2_2 H 0.3646 0.4155 0.5842
O11_2 O 0.3594(4) 0.1975(4) 0.57847(8)
H3_2 H 0.3099 0.2322 0.5780
H4_2 H 0.3482 0.1453 0.5721
O12_3 O 0.5000 0.0000 0.50250(8)
H5_2 H 0.5435 0.0190 0.4944
C1_2 C 0.6472(5) 0.1758(5) 0.52872(11)
C2_2 C 0.7390(5) 0.2041(4) 0.51834(9)
C3_2 C 0.7341(5) 0.2703(5) 0.50252(12)
H6_2 H 0.6758 0.2965 0.4991
C4_2 C 0.8134(5) 0.2994(5) 0.49138(11)
C5_2 C 0.9006(5) 0.2610(5) 0.49676(11)
H7_2 H 0.9545 0.2790 0.4893
C6_2 C 0.9074(5) 0.1972(5) 0.51284(11)
H8_2 H 0.9664 0.1735 0.5165
C7_2 C 0.8255(5) 0.1657(5) 0.52421(10)
C8_2 C 0.8001(6) 0.3700(6) 0.47375(12)
C9_2 C 0.8358(5) 0.0982(5) 0.54239(11)
C10_2 C 0.8826(5) 0.0139(6) 0.54010(10)
C13_2 C 0.8048(5) 0.0593(5) 0.57914(10)
C14_2 C 0.7981(4) 0.1221(5) 0.56224(10)
H12_2 H 0.7685 0.1802 0.5641
C15_2 C 0.7538(5) 0.0829(5) 0.59930(9)
C16_2 C 0.7978(6) 0.0964(6) 0.61852(11)
H13_2 H 0.8628 0.0873 0.6195
C17_2 C 0.7495(6) 0.1225(5) 0.63618(10)
H14_2 H 0.7817 0.1339 0.6488
C18_2 C 0.6527(5) 0.1323(5) 0.63540(10)
C19_2 C 0.6065(5) 0.1201(5) 0.61663(9)
H15_2 H 0.5416 0.1299 0.6159
C20_2 C 0.6557(5) 0.0933(4) 0.59864(9)
C21_2 C 0.5974(6) 0.1637(5) 0.65456(11)
C22_2 C 0.6017(4) 0.0702(5) 0.57853(9)
C23_2 C 0.5000 0.5000 0.5561(3)
H16_2 H 0.5000 0.5000 0.5708
O13_2 O 0.4745(6) 0.5698(2) 0.54400(14)
O14_2 O 0.4040(3) 0.7586(3) 0.53511(7)
O15 O 0.3726(3) 0.9108(3) 0.52943(7)
O18_2 O 0.3624(4) 0.8242(5) 0.67225(8)
O19_2 O 0.4898(4) 0.8214(3) 0.65268(6)
O20 O 0.4553(3) 0.8689(3) 0.57130(6)
O22_2 O 0.6230(7) 0.5988(6) 0.56887(15)
H18_2 H 0.6880 0.6083 0.5635
H19_2 H 0.6354 0.5845 0.5842
O23_2 O 0.6406(4) 0.8025(4) 0.57847(8)
H20_2 H 0.6901 0.7678 0.5780
H21_2 H 0.6518 0.8547 0.5721
C24_2 C 0.3528(5) 0.8242(5) 0.52872(11)
C25_2 C 0.2610(5) 0.7959(4) 0.51834(9)
C26_2 C 0.2659(5) 0.7297(5) 0.50252(12)
H22_2 H 0.3242 0.7035 0.4991
C27_2 C 0.1866(5) 0.7006(5) 0.49138(11)
C28_2 C 0.0994(5) 0.7390(5) 0.49676(11)
H23_2 H 0.0455 0.7210 0.4893
C29_2 C 0.0926(5) 0.8028(5) 0.51284(11)
H24_2 H 0.0336 0.8265 0.5165
C30_2 C 0.1745(5) 0.8343(5) 0.52421(10)
C31_2 C 0.1999(6) 0.6300(6) 0.47375(12)
C32_2 C 0.1642(5) 0.9018(5) 0.54239(11)
C33_2 C 0.1174(5) 0.9861(6) 0.54010(10)
C36_2 C 0.1952(5) 0.9407(5) 0.57914(10)
C37_2 C 0.2019(4) 0.8779(5) 0.56224(10)
H28_2 H 0.2315 0.8198 0.5641
C38_2 C 0.2462(5) 0.9171(5) 0.59930(9)
C39_2 C 0.2022(6) 0.9036(6) 0.61852(11)
H29_2 H 0.1372 0.9127 0.6195
C40_2 C 0.2505(6) 0.8775(5) 0.63618(10)
H30_2 H 0.2183 0.8661 0.6488
C41_2 C 0.3473(5) 0.8677(5) 0.63540(10)
C42_2 C 0.3935(5) 0.8799(5) 0.61663(9)
H31_2 H 0.4584 0.8701 0.6159
C43_2 C 0.3443(5) 0.9067(4) 0.59864(9)
C44_2 C 0.4026(6) 0.8363(5) 0.65456(11)
C45_2 C 0.3983(4) 0.9298(5) 0.57853(9)
Dy9_2 Dy 0.48884(2) 0.22283(2) 0.68889(2)
Dy10_2 Dy 0.51116(2) 0.77717(2) 0.68889(2)
O29_2 O 0.6376(4) 0.3242(5) 0.57775(8)
O30_2 O 0.3624(4) 0.6758(5) 0.57775(8)
O31_2 O 0.5102(4) 0.3214(3) 0.59732(6)
O32_2 O 0.4898(4) 0.6786(3) 0.59732(6)
O8_2 O 0.6104(3) 0.9919(4) 0.57019(5)
O12_4 O 0.5000 1.0000 0.50250(8)
H9_2 H 0.9092 0.9981 0.5271
C11_2 C 0.8904(6) 0.9525(6) 0.55708(12)
H10_2 H 0.9224 0.8956 0.5553
C12_2 C 0.8514(5) 0.9745(6) 0.57664(11)
H11_2 H 0.8565 0.9325 0.5879
H17_2 H 0.4565 0.9810 0.4944
Dy6_3 Dy 0.0000 0.0000 0.20908(2)
C23_3 C 0.0000 0.5000 0.3061(3)
H16_3 H 0.0000 0.5000 0.3208
O13_3 O 0.0698(2) 0.4745(6) 0.29400(14)
O14_3 O 0.2586(3) 0.4040(3) 0.28511(7)
O15_2 O 0.4108(3) 0.3726(3) 0.27943(7)
O16_2 O 0.1138(4) 0.2824(4) 0.21774(8)
O17_2 O 0.0918(4) 0.1298(4) 0.21527(8)
O20_2 O 0.3689(3) 0.4553(3) 0.32130(6)
O21_2 O 0.5081(4) 0.3896(3) 0.32019(5)
O22_3 O 0.0988(6) 0.6230(7) 0.31887(15)
H18_3 H 0.1083 0.6880 0.3135
H19_3 H 0.0845 0.6354 0.3342
O23_3 O 0.3025(4) 0.6406(4) 0.32847(8)
H20_3 H 0.2678 0.6901 0.3280
H21_3 H 0.3547 0.6518 0.3221
C24_3 C 0.3242(5) 0.3528(5) 0.27872(11)
C25_3 C 0.2959(4) 0.2610(5) 0.26834(9)
C26_3 C 0.2297(5) 0.2659(5) 0.25252(12)
H22_3 H 0.2035 0.3242 0.2491
C27_3 C 0.2006(5) 0.1866(5) 0.24138(11)
C28_3 C 0.2390(5) 0.0994(5) 0.24676(11)
H23_3 H 0.2210 0.0455 0.2393
C29_3 C 0.3028(5) 0.0926(5) 0.26284(11)
H24_3 H 0.3265 0.0336 0.2665
C30_3 C 0.3343(5) 0.1745(5) 0.27421(10)
C31_3 C 0.1300(6) 0.1999(6) 0.22375(12)
C32_3 C 0.4018(5) 0.1642(5) 0.29239(11)
C33_3 C 0.4861(6) 0.1174(5) 0.29010(10)
H25_3 H 0.5019 0.0908 0.2771
C34_3 C 0.5475(6) 0.1096(6) 0.30708(12)
H26_3 H 0.6044 0.0776 0.3053
C35_3 C 0.5255(6) 0.1486(5) 0.32664(11)
H27_3 H 0.5675 0.1435 0.3379
C36_3 C 0.4407(5) 0.1952(5) 0.32914(10)
C37_3 C 0.3779(5) 0.2019(4) 0.31224(10)
H28_3 H 0.3198 0.2315 0.3141
C38_3 C 0.4171(5) 0.2462(5) 0.34930(9)
C39_3 C 0.4036(6) 0.2022(6) 0.36852(11)
H29_3 H 0.4127 0.1372 0.3695
C40_3 C 0.3775(5) 0.2505(6) 0.38618(10)
H30_3 H 0.3661 0.2183 0.3988
C41_3 C 0.3677(5) 0.3473(5) 0.38540(10)
C42_3 C 0.3799(5) 0.3935(5) 0.36663(9)
H31_3 H 0.3701 0.4584 0.3659
C43_3 C 0.4067(4) 0.3443(5) 0.34864(9)
C44_3 C 0.3363(5) 0.4026(6) 0.40456(11)
C45_3 C 0.4298(5) 0.3983(4) 0.32853(9)
Dy4 Dy 0.5000 0.5000 0.29092(2)
Dy6_4 Dy 0.0000 1.0000 0.20908(2)
Dy7_2 Dy 0.01116(2) 0.27717(2) 0.18889(2)
O26_2 O 0.2176(4) 0.6138(4) 0.28226(8)
Dy6_5 Dy 1.0000 0.0000 0.20908(2)
O1_3 O 0.7414(3) 0.5960(3) 0.28511(7)
O2_3 O 0.5892(3) 0.6274(3) 0.27943(7)
O3_2 O 0.8862(4) 0.7176(4) 0.21774(8)
O4_2 O 0.9082(4) 0.8702(4) 0.21527(8)
O7_3 O 0.6311(3) 0.5447(3) 0.32130(6)
O8_3 O 0.4919(4) 0.6104(3) 0.32019(5)
O9_3 O 0.9302(2) 0.5255(6) 0.29400(14)
O10_3 O 0.9012(6) 0.3770(7) 0.31887(15)
H1_3 H 0.8917 0.3120 0.3135
H2_3 H 0.9155 0.3646 0.3342
O11_3 O 0.6975(4) 0.3594(4) 0.32847(8)
H3_3 H 0.7322 0.3099 0.3280
H4_3 H 0.6453 0.3482 0.3221
O12_5 O 0.5000 0.5000 0.25250(8)
H5_3 H 0.5190 0.5435 0.2444
C1_3 C 0.6758(5) 0.6472(5) 0.27872(11)
C2_3 C 0.7041(4) 0.7390(5) 0.26834(9)
C3_3 C 0.7703(5) 0.7341(5) 0.25252(12)
H6_3 H 0.7965 0.6758 0.2491
C4_3 C 0.7994(5) 0.8134(5) 0.24138(11)
C5_3 C 0.7610(5) 0.9006(5) 0.24676(11)
H7_3 H 0.7790 0.9545 0.2393
C6_3 C 0.6972(5) 0.9074(5) 0.26284(11)
H8_3 H 0.6735 0.9664 0.2665
C7_3 C 0.6657(5) 0.8255(5) 0.27421(10)
C8_3 C 0.8700(6) 0.8001(6) 0.22375(12)
C9_3 C 0.5982(5) 0.8358(5) 0.29239(11)
C10_3 C 0.5139(6) 0.8826(5) 0.29010(10)
H9_3 H 0.4981 0.9092 0.2771
C11_3 C 0.4525(6) 0.8904(6) 0.30708(12)
H10_3 H 0.3956 0.9224 0.3053
C12_3 C 0.4745(6) 0.8514(5) 0.32664(11)
H11_3 H 0.4325 0.8565 0.3379
C13_3 C 0.5593(5) 0.8048(5) 0.32914(10)
C14_3 C 0.6221(5) 0.7981(4) 0.31224(10)
H12_3 H 0.6802 0.7685 0.3141
C15_3 C 0.5829(5) 0.7538(5) 0.34930(9)
C16_3 C 0.5964(6) 0.7978(6) 0.36852(11)
H13_3 H 0.5873 0.8628 0.3695
C17_3 C 0.6225(5) 0.7495(6) 0.38618(10)
H14_3 H 0.6339 0.7817 0.3988
C18_3 C 0.6323(5) 0.6527(5) 0.38540(10)
C19_3 C 0.6201(5) 0.6065(5) 0.36663(9)
H15_3 H 0.6299 0.5416 0.3659
C20_3 C 0.5933(4) 0.6557(5) 0.34864(9)
C21_3 C 0.6637(5) 0.5974(6) 0.40456(11)
C22_3 C 0.5702(5) 0.6017(4) 0.32853(9)
C23_4 C 1.0000 0.5000 0.3061(3)
H16_4 H 1.0000 0.5000 0.3208
H17_3 H 0.4810 0.4565 0.2444
Dy6_6 Dy 1.0000 1.0000 0.20908(2)
Dy8_2 Dy 0.98884(2) 0.72283(2) 0.18889(2)
O25_2 O 0.7824(4) 0.3862(4) 0.28226(8)
O27_2 O 0.6298(4) 0.4082(4) 0.28473(8)
O28_2 O 0.3702(4) 0.5918(4) 0.28473(8)
O21_3 O 0.1104(3) 0.0081(4) 0.17981(5)
H25_4 H 0.4092 0.0019 0.2229
C34_4 C 0.3904(6) 0.0475(6) 0.19292(12)
H26_4 H 0.4224 0.1044 0.1947
C35_4 C 0.3514(5) 0.0255(6) 0.17336(11)
H27_4 H 0.3565 0.0675 0.1621
O10_4 O 0.1230(7) 0.4012(6) 0.18113(15)
H1_4 H 0.1880 0.3917 0.1865
H2_4 H 0.1354 0.4155 0.1658
O11_4 O 0.1406(4) 0.1975(4) 0.17153(8)
H3_4 H 0.1901 0.2322 0.1720
H4_4 H 0.1518 0.1453 0.1779
O12_6 O 0.0000 -0.0000 0.24750(8)
C23_5 C 0.0000 0.5000 0.1939(3)
H16_5 H 0.0000 0.5000 0.1792
O13_4 O 0.0255(6) 0.5698(2) 0.20600(14)
O14_4 O 0.0960(3) 0.7586(3) 0.21489(7)
O15_3 O 0.1274(3) 0.9108(3) 0.22057(7)
O18_3 O 0.1376(4) 0.8242(5) 0.07775(8)
O19_3 O 0.0102(4) 0.8214(3) 0.09732(6)
O20_3 O 0.0447(3) 0.8689(3) 0.17870(6)
C24_4 C 0.1472(5) 0.8242(5) 0.22128(11)
C25_4 C 0.2390(5) 0.7959(4) 0.23166(9)
C26_4 C 0.2341(5) 0.7297(5) 0.24748(12)
H22_4 H 0.1758 0.7035 0.2509
C27_4 C 0.3134(5) 0.7006(5) 0.25862(11)
C28_4 C 0.4006(5) 0.7390(5) 0.25324(11)
H23_4 H 0.4545 0.7210 0.2607
C29_4 C 0.4074(5) 0.8028(5) 0.23716(11)
H24_4 H 0.4664 0.8265 0.2335
C30_4 C 0.3255(5) 0.8343(5) 0.22579(10)
C31_4 C 0.3001(6) 0.6300(6) 0.27625(12)
C32_4 C 0.3358(5) 0.9018(5) 0.20761(11)
C33_4 C 0.3826(5) 0.9861(6) 0.20990(10)
C36_4 C 0.3048(5) 0.9407(5) 0.17086(10)
C37_4 C 0.2981(4) 0.8779(5) 0.18776(10)
H28_4 H 0.2685 0.8198 0.1859
C38_4 C 0.2538(5) 0.9171(5) 0.15070(9)
C39_4 C 0.2978(6) 0.9036(6) 0.13148(11)
H29_4 H 0.3628 0.9127 0.1305
C40_4 C 0.2495(6) 0.8775(5) 0.11382(10)
H30_4 H 0.2817 0.8661 0.1012
C41_4 C 0.1527(5) 0.8677(5) 0.11460(10)
C42_4 C 0.1065(5) 0.8799(5) 0.13337(9)
H31_4 H 0.0416 0.8701 0.1341
C43_4 C 0.1557(5) 0.9067(4) 0.15136(9)
C44_4 C 0.0974(6) 0.8363(5) 0.09544(11)
C45_4 C 0.1017(4) 0.9298(5) 0.17147(9)
Dy9_3 Dy 0.01116(2) 0.22283(2) 0.06111(2)
O30_3 O 0.1376(4) 0.6758(5) 0.17225(8)
O32_3 O 0.0102(4) 0.6786(3) 0.15268(6)
O12_7 O -0.0000 1.0000 0.24750(8)
H17_4 H 0.0435 0.9810 0.2556
O1_4 O 0.9040(3) 0.2414(3) 0.21489(7)
O2_4 O 0.8726(3) 0.0892(3) 0.22057(7)
O5_3 O 0.8624(4) 0.1758(5) 0.07775(8)
O6_3 O 0.9898(4) 0.1786(3) 0.09732(6)
O7_4 O 0.9553(3) 0.1311(3) 0.17870(6)
O9_4 O 0.9745(6) 0.4302(2) 0.20600(14)
O12_8 O 1.0000 -0.0000 0.24750(8)
H5_4 H 0.9565 0.0190 0.2556
C1_4 C 0.8528(5) 0.1758(5) 0.22128(11)
C2_4 C 0.7610(5) 0.2041(4) 0.23166(9)
C3_4 C 0.7659(5) 0.2703(5) 0.24748(12)
H6_4 H 0.8242 0.2965 0.2509
C4_4 C 0.6866(5) 0.2994(5) 0.25862(11)
C5_4 C 0.5994(5) 0.2610(5) 0.25324(11)
H7_4 H 0.5455 0.2790 0.2607
C6_4 C 0.5926(5) 0.1972(5) 0.23716(11)
H8_4 H 0.5336 0.1735 0.2335
C7_4 C 0.6745(5) 0.1657(5) 0.22579(10)
C8_4 C 0.6999(6) 0.3700(6) 0.27625(12)
C9_4 C 0.6642(5) 0.0982(5) 0.20761(11)
C10_4 C 0.6174(5) 0.0139(6) 0.20990(10)
C13_4 C 0.6952(5) 0.0593(5) 0.17086(10)
C14_4 C 0.7019(4) 0.1221(5) 0.18776(10)
H12_4 H 0.7315 0.1802 0.1859
C15_4 C 0.7462(5) 0.0829(5) 0.15070(9)
C16_4 C 0.7022(6) 0.0964(6) 0.13148(11)
H13_4 H 0.6372 0.0873 0.1305
C17_4 C 0.7505(6) 0.1225(5) 0.11382(10)
H14_4 H 0.7183 0.1339 0.1012
C18_4 C 0.8473(5) 0.1323(5) 0.11460(10)
C19_4 C 0.8935(5) 0.1201(5) 0.13337(9)
H15_4 H 0.9584 0.1299 0.1341
C20_4 C 0.8443(5) 0.0933(4) 0.15136(9)
C21_4 C 0.9026(6) 0.1637(5) 0.09544(11)
C22_4 C 0.8983(4) 0.0702(5) 0.17147(9)
C23_6 C 1.0000 0.5000 0.1939(3)
H16_6 H 1.0000 0.5000 0.1792
O22_4 O 0.8770(7) 0.5988(6) 0.18113(15)
H18_4 H 0.8120 0.6083 0.1865
H19_4 H 0.8646 0.5845 0.1658
O23_4 O 0.8594(4) 0.8025(4) 0.17153(8)
H20_4 H 0.8099 0.7678 0.1720
H21_4 H 0.8482 0.8547 0.1779
Dy10_3 Dy 0.98884(2) 0.77717(2) 0.06111(2)
O29_3 O 0.8624(4) 0.3242(5) 0.17225(8)
O31_3 O 0.9898(4) 0.3214(3) 0.15268(6)
O8_4 O 0.8896(3) 0.9919(4) 0.17981(5)
O12_9 O 1.0000 1.0000 0.24750(8)
H9_4 H 0.5908 0.9981 0.2229
C11_4 C 0.6096(6) 0.9525(6) 0.19292(12)
H10_4 H 0.5776 0.8956 0.1947
C12_4 C 0.6486(5) 0.9745(6) 0.17336(11)
H11_4 H 0.6435 0.9325 0.1621
O3_3 O 0.1138(4) 0.2176(4) 0.03226(8)
O4_3 O 0.0918(4) 0.3702(4) 0.03473(8)
H5_5 H 0.4810 0.0435 0.0056
H6_5 H 0.2035 0.1758 0.0009
C4_5 C 0.2006(5) 0.3134(5) 0.00862(11)
C5_5 C 0.2390(5) 0.4006(5) 0.00324(11)
H7_5 H 0.2210 0.4545 0.0107
C8_5 C 0.1300(6) 0.3001(6) 0.02625(12)
Dy6_7 Dy -0.0000 0.5000 0.04092(2)
Dy1_3 Dy 0.5000 0.0000 0.95908(2)
O1_5 O 0.2586(3) 0.0960(3) 0.96489(7)
O2_5 O 0.4108(3) 0.1274(3) 0.97057(7)
O5_4 O 0.3242(5) 0.1376(4) 0.82775(8)
O6_4 O 0.3214(3) 0.0102(4) 0.84732(6)
O7_5 O 0.3689(3) 0.0447(3) 0.92870(6)
O8_5 O 0.5081(4) 0.1104(3) 0.92981(5)
O9_5 O 0.0698(2) 0.0255(6) 0.95600(14)
O12_10 O 0.5000 0.0000 0.99750(8)
C1_5 C 0.3242(5) 0.1472(5) 0.97128(11)
C2_5 C 0.2959(4) 0.2390(5) 0.98166(9)
C3_5 C 0.2297(5) 0.2341(5) 0.99748(12)
C6_5 C 0.3028(5) 0.4074(5) 0.98716(11)
H8_5 H 0.3265 0.4664 0.9835
C7_5 C 0.3343(5) 0.3255(5) 0.97579(10)
C9_5 C 0.4018(5) 0.3358(5) 0.95761(11)
C10_5 C 0.4861(6) 0.3826(5) 0.95990(10)
H9_5 H 0.5019 0.4092 0.9729
C11_5 C 0.5475(6) 0.3904(6) 0.94292(12)
H10_5 H 0.6044 0.4224 0.9447
C12_5 C 0.5255(6) 0.3514(5) 0.92336(11)
H11_5 H 0.5675 0.3565 0.9121
C13_5 C 0.4407(5) 0.3048(5) 0.92086(10)
C14_5 C 0.3779(5) 0.2981(4) 0.93776(10)
H12_5 H 0.3198 0.2685 0.9359
C15_5 C 0.4171(5) 0.2538(5) 0.90070(9)
C16_5 C 0.4036(6) 0.2978(6) 0.88148(11)
H13_5 H 0.4127 0.3628 0.8805
C17_5 C 0.3775(5) 0.2495(6) 0.86382(10)
H14_5 H 0.3661 0.2817 0.8512
C18_5 C 0.3677(5) 0.1527(5) 0.86460(10)
C19_5 C 0.3799(5) 0.1065(5) 0.88337(9)
H15_5 H 0.3701 0.0416 0.8841
C20_5 C 0.4067(4) 0.1557(5) 0.90136(9)
C21_5 C 0.3363(5) 0.0974(6) 0.84544(11)
C22_5 C 0.4298(5) 0.1017(4) 0.92147(9)
C23_7 C 0.0000 0.0000 0.9439(3)
H16_7 H 0.0000 0.0000 0.9292
O28_3 O 0.6298(4) 0.0918(4) 0.96527(8)
O29_4 O 0.1758(5) 0.1376(4) 0.92225(8)
O31_4 O 0.1786(3) 0.0102(4) 0.90268(6)
H17_5 H 0.5190 0.9565 0.0056
Dy1_4 Dy 0.5000 1.0000 0.95908(2)
Dy2_2 Dy 0.22283(2) 0.98884(2) 0.93889(2)
O10_5 O 0.0988(6) 0.8770(7) 0.93113(15)
H1_5 H 0.1083 0.8120 0.9365
H2_5 H 0.0845 0.8646 0.9158
O11_5 O 0.3025(4) 0.8594(4) 0.92153(8)
H3_5 H 0.2678 0.8099 0.9220
H4_5 H 0.3547 0.8482 0.9279
O12_11 O 0.5000 1.0000 0.99750(8)
C23_8 C 0.0000 1.0000 0.9439(3)
H16_8 H 0.0000 1.0000 0.9292
Dy9_4 Dy 0.27717(2) 0.98884(2) 0.81111(2)
O24_2 O 0.5892(3) 0.8726(3) 0.97057(7)
O25_3 O 0.2176(4) 0.8862(4) 0.96774(8)
O27_3 O 0.3702(4) 0.9082(4) 0.96527(8)
O33_2 O 0.6311(3) 0.9553(3) 0.92870(6)
O34_2 O 0.4919(4) 0.8896(3) 0.92981(5)
Dy6_8 Dy 1.0000 0.5000 0.04092(2)
C23_9 C 1.0000 0.0000 0.9439(3)
H16_9 H 1.0000 0.0000 0.9292
Dy3_2 Dy 0.77717(2) 0.01116(2) 0.93889(2)
O22_5 O 0.9012(6) 0.1230(7) 0.93113(15)
H18_5 H 0.8917 0.1880 0.9365
H19_5 H 0.9155 0.1354 0.9158
O23_5 O 0.6975(4) 0.1406(4) 0.92153(8)
H20_5 H 0.7322 0.1901 0.9220
H21_5 H 0.6453 0.1518 0.9279
Dy10_4 Dy 0.72283(2) 0.01116(2) 0.81111(2)
O26_3 O 0.7824(4) 0.1138(4) 0.96774(8)
O16_3 O 0.8862(4) 0.7824(4) 0.03226(8)
O17_3 O 0.9082(4) 0.6298(4) 0.03473(8)
H22_5 H 0.7965 0.8242 0.0009
C27_5 C 0.7994(5) 0.6866(5) 0.00862(11)
C28_5 C 0.7610(5) 0.5994(5) 0.00324(11)
H23_5 H 0.7790 0.5455 0.0107
C31_5 C 0.8700(6) 0.6999(6) 0.02625(12)
C23_10 C 1.0000 1.0000 0.9439(3)
H16_10 H 1.0000 1.0000 0.9292
O13_5 O 0.9302(2) 0.9745(6) 0.95600(14)
O14_5 O 0.7414(3) 0.9040(3) 0.96489(7)
O18_4 O 0.6758(5) 0.8624(4) 0.82775(8)
O19_4 O 0.6786(3) 0.9898(4) 0.84732(6)
C24_5 C 0.6758(5) 0.8528(5) 0.97128(11)
C25_5 C 0.7041(4) 0.7610(5) 0.98166(9)
C26_5 C 0.7703(5) 0.7659(5) 0.99748(12)
C29_5 C 0.6972(5) 0.5926(5) 0.98716(11)
H24_5 H 0.6735 0.5336 0.9835
C30_5 C 0.6657(5) 0.6745(5) 0.97579(10)
C32_5 C 0.5982(5) 0.6642(5) 0.95761(11)
C33_5 C 0.5139(6) 0.6174(5) 0.95990(10)
H25_5 H 0.4981 0.5908 0.9729
C34_5 C 0.4525(6) 0.6096(6) 0.94292(12)
H26_5 H 0.3956 0.5776 0.9447
C35_5 C 0.4745(6) 0.6486(5) 0.92336(11)
H27_5 H 0.4325 0.6435 0.9121
C36_5 C 0.5593(5) 0.6952(5) 0.92086(10)
C37_5 C 0.6221(5) 0.7019(4) 0.93776(10)
H28_5 H 0.6802 0.7315 0.9359
C38_5 C 0.5829(5) 0.7462(5) 0.90070(9)
C39_5 C 0.5964(6) 0.7022(6) 0.88148(11)
H29_5 H 0.5873 0.6372 0.8805
C40_5 C 0.6225(5) 0.7505(6) 0.86382(10)
H30_5 H 0.6339 0.7183 0.8512
C41_5 C 0.6323(5) 0.8473(5) 0.86460(10)
C42_5 C 0.6201(5) 0.8935(5) 0.88337(9)
H31_5 H 0.6299 0.9584 0.8841
C43_5 C 0.5933(4) 0.8443(5) 0.90136(9)
C44_5 C 0.6637(5) 0.9026(6) 0.84544(11)
C45_5 C 0.5702(5) 0.8983(4) 0.92147(9)
O30_4 O 0.8242(5) 0.8624(4) 0.92225(8)
O32_4 O 0.8214(3) 0.9898(4) 0.90268(6)
C23_11 C 0.0000 0.0000 0.0561(3)
H16_11 H 0.0000 0.0000 0.0708
O22_6 O 0.1230(7) 0.0988(6) 0.06887(15)
H18_6 H 0.1880 0.1083 0.0635
H19_6 H 0.1354 0.0845 0.0842
O23_6 O 0.1406(4) 0.3025(4) 0.07847(8)
H20_6 H 0.1901 0.2678 0.0780
H21_6 H 0.1518 0.3547 0.0721
O1_6 O 0.0960(3) 0.7414(3) 0.03511(7)
O2_6 O 0.1274(3) 0.5892(3) 0.02943(7)
O7_6 O 0.0447(3) 0.6311(3) 0.07130(6)
O8_6 O 0.1104(3) 0.4919(4) 0.07019(5)
O9_6 O 0.0255(6) 0.9302(2) 0.04400(14)
O12_12 O 0.0000 0.5000 0.00250(8)
C1_6 C 0.1472(5) 0.6758(5) 0.02872(11)
C2_6 C 0.2390(5) 0.7041(4) 0.01834(9)
C3_6 C 0.2341(5) 0.7703(5) 0.00252(12)
C6_6 C 0.4074(5) 0.6972(5) 0.01284(11)
H8_6 H 0.4664 0.6735 0.0165
C7_6 C 0.3255(5) 0.6657(5) 0.02421(10)
C9_6 C 0.3358(5) 0.5982(5) 0.04239(11)
C10_6 C 0.3826(5) 0.5139(6) 0.04010(10)
H9_6 H 0.4092 0.4981 0.0271
C11_6 C 0.3904(6) 0.4525(6) 0.05708(12)
H10_6 H 0.4224 0.3956 0.0553
C12_6 C 0.3514(5) 0.4745(6) 0.07664(11)
H11_6 H 0.3565 0.4325 0.0879
C13_6 C 0.3048(5) 0.5593(5) 0.07914(10)
C14_6 C 0.2981(4) 0.6221(5) 0.06224(10)
H12_6 H 0.2685 0.6802 0.0641
C15_6 C 0.2538(5) 0.5829(5) 0.09930(9)
C16_6 C 0.2978(6) 0.5964(6) 0.11852(11)
H13_6 H 0.3628 0.5873 0.1195
C17_6 C 0.2495(6) 0.6225(5) 0.13618(10)
H14_6 H 0.2817 0.6339 0.1488
C18_6 C 0.1527(5) 0.6323(5) 0.13540(10)
C19_6 C 0.1065(5) 0.6201(5) 0.11663(9)
H15_6 H 0.0416 0.6299 0.1159
C20_6 C 0.1557(5) 0.5933(4) 0.09864(9)
C21_6 C 0.0974(6) 0.6637(5) 0.15456(11)
C22_6 C 0.1017(4) 0.5702(5) 0.07853(9)
C23_12 C 0.0000 1.0000 0.0561(3)
H16_12 H 0.0000 1.0000 0.0708
H5_6 H 0.0435 0.5190 0.9944
H6_6 H 0.1758 0.7965 0.9991
C4_6 C 0.3134(5) 0.7994(5) 0.99138(11)
C5_6 C 0.4006(5) 0.7610(5) 0.99676(11)
H7_6 H 0.4545 0.7790 0.9893
C8_6 C 0.3001(6) 0.8700(6) 0.97375(12)
C23_13 C 1.0000 0.0000 0.0561(3)
H16_13 H 1.0000 0.0000 0.0708
O13_6 O 0.9745(6) 0.0698(2) 0.04400(14)
O14_6 O 0.9040(3) 0.2586(3) 0.03511(7)
O15_4 O 0.8726(3) 0.4108(3) 0.02943(7)
O20_4 O 0.9553(3) 0.3689(3) 0.07130(6)
O21_4 O 0.8896(3) 0.5081(4) 0.07019(5)
C24_6 C 0.8528(5) 0.3242(5) 0.02872(11)
C25_6 C 0.7610(5) 0.2959(4) 0.01834(9)
C26_6 C 0.7659(5) 0.2297(5) 0.00252(12)
C29_6 C 0.5926(5) 0.3028(5) 0.01284(11)
H24_6 H 0.5336 0.3265 0.0165
C30_6 C 0.6745(5) 0.3343(5) 0.02421(10)
C32_6 C 0.6642(5) 0.4018(5) 0.04239(11)
C33_6 C 0.6174(5) 0.4861(6) 0.04010(10)
H25_6 H 0.5908 0.5019 0.0271
C34_6 C 0.6096(6) 0.5475(6) 0.05708(12)
H26_6 H 0.5776 0.6044 0.0553
C35_6 C 0.6486(5) 0.5255(6) 0.07664(11)
H27_6 H 0.6435 0.5675 0.0879
C36_6 C 0.6952(5) 0.4407(5) 0.07914(10)
C37_6 C 0.7019(4) 0.3779(5) 0.06224(10)
H28_6 H 0.7315 0.3198 0.0641
C38_6 C 0.7462(5) 0.4171(5) 0.09930(9)
C39_6 C 0.7022(6) 0.4036(6) 0.11852(11)
H29_6 H 0.6372 0.4127 0.1195
C40_6 C 0.7505(6) 0.3775(5) 0.13618(10)
H30_6 H 0.7183 0.3661 0.1488
C41_6 C 0.8473(5) 0.3677(5) 0.13540(10)
C42_6 C 0.8935(5) 0.3799(5) 0.11663(9)
H31_6 H 0.9584 0.3701 0.1159
C43_6 C 0.8443(5) 0.4067(4) 0.09864(9)
C44_6 C 0.9026(6) 0.3363(5) 0.15456(11)
C45_6 C 0.8983(4) 0.4298(5) 0.07853(9)
H22_6 H 0.8242 0.2035 0.9991
C27_6 C 0.6866(5) 0.2006(5) 0.99138(11)
C28_6 C 0.5994(5) 0.2390(5) 0.99676(11)
H23_6 H 0.5455 0.2210 0.9893
C31_6 C 0.6999(6) 0.1300(6) 0.97375(12)
O10_6 O 0.8770(7) 0.9012(6) 0.06887(15)
H1_6 H 0.8120 0.8917 0.0635
H2_6 H 0.8646 0.9155 0.0842
O11_6 O 0.8594(4) 0.6975(4) 0.07847(8)
H3_6 H 0.8099 0.7322 0.0780
H4_6 H 0.8482 0.6453 0.0721
O12_13 O 1.0000 0.5000 0.00250(8)
C23_14 C 1.0000 1.0000 0.0561(3)
H16_14 H 1.0000 1.0000 0.0708
H17_6 H 0.9565 0.4810 0.9944
Dy4_2 Dy 0.0000 0.0000 0.79092(2)
O21_5 O 0.0081(4) 0.8896(3) 0.82019(5)
H25_7 H 0.0019 0.5908 0.7771
C34_7 C 0.0475(6) 0.6096(6) 0.80708(12)
H26_7 H 0.1044 0.5776 0.8053
C35_7 C 0.0255(6) 0.6486(5) 0.82664(11)
H27_7 H 0.0675 0.6435 0.8379
Dy4_3 Dy 0.0000 1.0000 0.79092(2)
O1_7 O 0.2414(3) 0.0960(3) 0.78511(7)
O2_7 O 0.0892(3) 0.1274(3) 0.77943(7)
O3_4 O 0.3862(4) 0.2176(4) 0.71774(8)
O4_4 O 0.4082(4) 0.3702(4) 0.71527(8)
O7_7 O 0.1311(3) 0.0447(3) 0.82130(6)
O9_7 O 0.4302(2) 0.0255(6) 0.79400(14)
O12_14 O 0.0000 0.0000 0.75250(8)
H5_7 H 0.0190 0.0435 0.7444
C1_7 C 0.1758(5) 0.1472(5) 0.77872(11)
C2_7 C 0.2041(4) 0.2390(5) 0.76834(9)
C3_7 C 0.2703(5) 0.2341(5) 0.75252(12)
H6_7 H 0.2965 0.1758 0.7491
C4_7 C 0.2994(5) 0.3134(5) 0.74138(11)
C5_7 C 0.2610(5) 0.4006(5) 0.74676(11)
H7_7 H 0.2790 0.4545 0.7393
C6_7 C 0.1972(5) 0.4074(5) 0.76284(11)
H8_7 H 0.1735 0.4664 0.7665
C7_7 C 0.1657(5) 0.3255(5) 0.77421(10)
C8_7 C 0.3700(6) 0.3001(6) 0.72375(12)
C9_7 C 0.0982(5) 0.3358(5) 0.79239(11)
C10_7 C 0.0139(6) 0.3826(5) 0.79010(10)
C13_7 C 0.0593(5) 0.3048(5) 0.82914(10)
C14_7 C 0.1221(5) 0.2981(4) 0.81224(10)
H12_7 H 0.1802 0.2685 0.8141
C15_7 C 0.0829(5) 0.2538(5) 0.84930(9)
C16_7 C 0.0964(6) 0.2978(6) 0.86852(11)
H13_7 H 0.0873 0.3628 0.8695
C17_7 C 0.1225(5) 0.2495(6) 0.88618(10)
H14_7 H 0.1339 0.2817 0.8988
C18_7 C 0.1323(5) 0.1527(5) 0.88540(10)
C19_7 C 0.1201(5) 0.1065(5) 0.86663(9)
H15_7 H 0.1299 0.0416 0.8659
C20_7 C 0.0933(4) 0.1557(5) 0.84864(9)
C21_7 C 0.1637(5) 0.0974(6) 0.90456(11)
C22_7 C 0.0702(5) 0.1017(4) 0.82853(9)
C23_15 C 0.5000 0.0000 0.8061(3)
H16_15 H 0.5000 -0.0000 0.8208
O22_7 O 0.5988(6) 0.1230(7) 0.81887(15)
H18_7 H 0.6083 0.1880 0.8135
H19_7 H 0.5845 0.1354 0.8342
O23_7 O 0.8025(4) 0.1406(4) 0.82847(8)
H20_7 H 0.7678 0.1901 0.8280
H21_7 H 0.8547 0.1518 0.8221
Dy4_4 Dy 1.0000 0.0000 0.79092(2)
Dy6_9 Dy 0.5000 0.5000 0.70908(2)
O26_4 O 0.7176(4) 0.1138(4) 0.78226(8)
O10_7 O 0.4012(6) 0.8770(7) 0.81887(15)
H1_7 H 0.3917 0.8120 0.8135
H2_7 H 0.4155 0.8646 0.8342
O11_7 O 0.1975(4) 0.8594(4) 0.82847(8)
H3_7 H 0.2322 0.8099 0.8280
H4_7 H 0.1453 0.8482 0.8221
O12_15 O 0.0000 1.0000 0.75250(8)
C23_16 C 0.5000 1.0000 0.8061(3)
H16_16 H 0.5000 1.0000 0.8208
O13_7 O 0.5698(2) 0.9745(6) 0.79400(14)
O14_7 O 0.7586(3) 0.9040(3) 0.78511(7)
O15_5 O 0.9108(3) 0.8726(3) 0.77943(7)
O16_4 O 0.6138(4) 0.7824(4) 0.71774(8)
O17_4 O 0.5918(4) 0.6298(4) 0.71527(8)
O20_5 O 0.8689(3) 0.9553(3) 0.82130(6)
C24_7 C 0.8242(5) 0.8528(5) 0.77872(11)
C25_7 C 0.7959(4) 0.7610(5) 0.76834(9)
C26_7 C 0.7297(5) 0.7659(5) 0.75252(12)
H22_7 H 0.7035 0.8242 0.7491
C27_7 C 0.7006(5) 0.6866(5) 0.74138(11)
C28_7 C 0.7390(5) 0.5994(5) 0.74676(11)
H23_7 H 0.7210 0.5455 0.7393
C29_7 C 0.8028(5) 0.5926(5) 0.76284(11)
H24_7 H 0.8265 0.5336 0.7665
C30_7 C 0.8343(5) 0.6745(5) 0.77421(10)
C31_7 C 0.6300(6) 0.6999(6) 0.72375(12)
C32_7 C 0.9018(5) 0.6642(5) 0.79239(11)
C33_7 C 0.9861(6) 0.6174(5) 0.79010(10)
C36_7 C 0.9407(5) 0.6952(5) 0.82914(10)
C37_7 C 0.8779(5) 0.7019(4) 0.81224(10)
H28_7 H 0.8198 0.7315 0.8141
C38_7 C 0.9171(5) 0.7462(5) 0.84930(9)
C39_7 C 0.9036(6) 0.7022(6) 0.86852(11)
H29_7 H 0.9127 0.6372 0.8695
C40_7 C 0.8775(5) 0.7505(6) 0.88618(10)
H30_7 H 0.8661 0.7183 0.8988
C41_7 C 0.8677(5) 0.8473(5) 0.88540(10)
C42_7 C 0.8799(5) 0.8935(5) 0.86663(9)
H31_7 H 0.8701 0.9584 0.8659
C43_7 C 0.9067(4) 0.8443(5) 0.84864(9)
C44_7 C 0.8363(5) 0.9026(6) 0.90456(11)
C45_7 C 0.9298(5) 0.8983(4) 0.82853(9)
Dy4_5 Dy 1.0000 1.0000 0.79092(2)
O25_4 O 0.2824(4) 0.8862(4) 0.78226(8)
O27_4 O 0.1298(4) 0.9082(4) 0.78473(8)
O8_7 O 0.9919(4) 0.1104(3) 0.82019(5)
O12_16 O 1.0000 0.0000 0.75250(8)
H9_7 H 0.9981 0.4092 0.7771
C11_7 C 0.9525(6) 0.3904(6) 0.80708(12)
H10_7 H 0.8956 0.4224 0.8053
C12_7 C 0.9745(6) 0.3514(5) 0.82664(11)
H11_7 H 0.9325 0.3565 0.8379
O28_4 O 0.8702(4) 0.0918(4) 0.78473(8)
O12_17 O 1.0000 1.0000 0.75250(8)
H17_7 H 0.9810 0.9565 0.7444
C23_17 C 0.5000 0.0000 0.6939(3)
H16_17 H 0.5000 0.0000 0.6792
O13_8 O 0.5255(6) 0.0698(2) 0.70600(14)
O14_8 O 0.5960(3) 0.2586(3) 0.71489(7)
O15_6 O 0.6274(3) 0.4108(3) 0.72057(7)
O20_6 O 0.5447(3) 0.3689(3) 0.67870(6)
O21_6 O 0.6104(3) 0.5081(4) 0.67981(5)
O22_8 O 0.3770(7) 0.0988(6) 0.68113(15)
H18_8 H 0.3120 0.1083 0.6865
H19_8 H 0.3646 0.0845 0.6658
O23_8 O 0.3594(4) 0.3025(4) 0.67153(8)
H20_8 H 0.3099 0.2678 0.6720
H21_8 H 0.3482 0.3547 0.6779
C24_8 C 0.6472(5) 0.3242(5) 0.72128(11)
C25_8 C 0.7390(5) 0.2959(4) 0.73166(9)
C26_8 C 0.7341(5) 0.2297(5) 0.74748(12)
H22_8 H 0.6758 0.2035 0.7509
C27_8 C 0.8134(5) 0.2006(5) 0.75862(11)
C28_8 C 0.9006(5) 0.2390(5) 0.75324(11)
H23_8 H 0.9545 0.2210 0.7607
C29_8 C 0.9074(5) 0.3028(5) 0.73716(11)
H24_8 H 0.9664 0.3265 0.7335
C30_8 C 0.8255(5) 0.3343(5) 0.72579(10)
C31_8 C 0.8001(6) 0.1300(6) 0.77625(12)
C32_8 C 0.8358(5) 0.4018(5) 0.70761(11)
C33_8 C 0.8826(5) 0.4861(6) 0.70990(10)
H25_8 H 0.9092 0.5019 0.7229
C34_8 C 0.8904(6) 0.5475(6) 0.69292(12)
H26_8 H 0.9224 0.6044 0.6947
C35_8 C 0.8514(5) 0.5255(6) 0.67336(11)
H27_8 H 0.8565 0.5675 0.6621
C36_8 C 0.8048(5) 0.4407(5) 0.67086(10)
C37_8 C 0.7981(4) 0.3779(5) 0.68776(10)
H28_8 H 0.7685 0.3198 0.6859
C38_8 C 0.7538(5) 0.4171(5) 0.65070(9)
C39_8 C 0.7978(6) 0.4036(6) 0.63148(11)
H29_8 H 0.8628 0.4127 0.6305
C40_8 C 0.7495(6) 0.3775(5) 0.61382(10)
H30_8 H 0.7817 0.3661 0.6012
C41_8 C 0.6527(5) 0.3677(5) 0.61460(10)
C42_8 C 0.6065(5) 0.3799(5) 0.63337(9)
H31_8 H 0.5416 0.3701 0.6341
C43_8 C 0.6557(5) 0.4067(4) 0.65136(9)
C44_8 C 0.5974(6) 0.3363(5) 0.59544(11)
C45_8 C 0.6017(4) 0.4298(5) 0.67147(9)
O1_8 O 0.4040(3) 0.7414(3) 0.71489(7)
O2_8 O 0.3726(3) 0.5892(3) 0.72057(7)
O7_8 O 0.4553(3) 0.6311(3) 0.67870(6)
O8_8 O 0.3896(3) 0.4919(4) 0.67981(5)
O9_8 O 0.4745(6) 0.9302(2) 0.70600(14)
O10_8 O 0.6230(7) 0.9012(6) 0.68113(15)
H1_8 H 0.6880 0.8917 0.6865
H2_8 H 0.6354 0.9155 0.6658
O11_8 O 0.6406(4) 0.6975(4) 0.67153(8)
H3_8 H 0.6901 0.7322 0.6720
H4_8 H 0.6518 0.6453 0.6779
O12_18 O 0.5000 0.5000 0.74750(8)
H5_8 H 0.4565 0.5190 0.7556
C1_8 C 0.3528(5) 0.6758(5) 0.72128(11)
C2_8 C 0.2610(5) 0.7041(4) 0.73166(9)
C3_8 C 0.2659(5) 0.7703(5) 0.74748(12)
H6_8 H 0.3242 0.7965 0.7509
C4_8 C 0.1866(5) 0.7994(5) 0.75862(11)
C5_8 C 0.0994(5) 0.7610(5) 0.75324(11)
H7_8 H 0.0455 0.7790 0.7607
C6_8 C 0.0926(5) 0.6972(5) 0.73716(11)
H8_8 H 0.0336 0.6735 0.7335
C7_8 C 0.1745(5) 0.6657(5) 0.72579(10)
C8_8 C 0.1999(6) 0.8700(6) 0.77625(12)
C9_8 C 0.1642(5) 0.5982(5) 0.70761(11)
C10_8 C 0.1174(5) 0.5139(6) 0.70990(10)
H9_8 H 0.0908 0.4981 0.7229
C11_8 C 0.1096(6) 0.4525(6) 0.69292(12)
H10_8 H 0.0776 0.3956 0.6947
C12_8 C 0.1486(5) 0.4745(6) 0.67336(11)
H11_8 H 0.1435 0.4325 0.6621
C13_8 C 0.1952(5) 0.5593(5) 0.67086(10)
C14_8 C 0.2019(4) 0.6221(5) 0.68776(10)
H12_8 H 0.2315 0.6802 0.6859
C15_8 C 0.2462(5) 0.5829(5) 0.65070(9)
C16_8 C 0.2022(6) 0.5964(6) 0.63148(11)
H13_8 H 0.1372 0.5873 0.6305
C17_8 C 0.2505(6) 0.6225(5) 0.61382(10)
H14_8 H 0.2183 0.6339 0.6012
C18_8 C 0.3473(5) 0.6323(5) 0.61460(10)
C19_8 C 0.3935(5) 0.6201(5) 0.63337(9)
H15_8 H 0.4584 0.6299 0.6341
C20_8 C 0.3443(5) 0.5933(4) 0.65136(9)
C21_8 C 0.4026(6) 0.6637(5) 0.59544(11)
C22_8 C 0.3983(4) 0.5702(5) 0.67147(9)
C23_18 C 0.5000 1.0000 0.6939(3)
H16_18 H 0.5000 1.0000 0.6792
H17_8 H 0.5435 0.4810 0.7556
loop_
_geom_bond_atom_site_label_1
_geom_bond_atom_site_label_2
_geom_bond_site_symmetry_1
_geom_bond_site_symmetry_2
O8 Dy1 1_555 1_555
O12 Dy1 1_555 1_555
H10 C11 1_555 1_555
C12 C11 1_555 1_555
H11 C12 1_555 1_555
H17 O12 1_555 1_555
O24 Dy1 1_555 1_555
O28 Dy1 1_555 1_555
O33 Dy1 1_555 1_555
Dy1_2 O2 1_555 1_555
Dy2 O1 1_555 1_555
O1 C1 1_555 1_555
O2 C1 1_555 1_555
O3 C8 1_555 1_555
O4 C8 1_555 1_555
O5 C21 1_555 1_555
O6 C21 1_555 1_555
O7 Dy1_2 1_555 1_555
O9 Dy2 1_555 1_555
O10 Dy2 1_555 1_555
H1 O10 1_555 1_555
H2 O10 1_555 1_555
O11 Dy2 1_555 1_555
H3 O11 1_555 1_555
H4 O11 1_555 1_555
O12_2 Dy1_2 1_555 1_555
H5 O12_2 1_555 1_555
C1 C2 1_555 1_555
C2 C3 1_555 1_555
C3 H6 1_555 1_555
C4 C3 1_555 1_555
C5 C4 1_555 1_555
H7 C5 1_555 1_555
C6 C5 1_555 1_555
H8 C6 1_555 1_555
C7 C2 1_555 1_555
C8 C4 1_555 1_555
C9 C7 1_555 1_555
C10 C9 1_555 1_555
C14 C9 1_555 1_555
H12 C14 1_555 1_555
C15 C13 1_555 1_555
C16 C15 1_555 1_555
H13 C16 1_555 1_555
C17 C16 1_555 1_555
H14 C17 1_555 1_555
C18 C17 1_555 1_555
C19 C18 1_555 1_555
H15 C19 1_555 1_555
C20 C15 1_555 1_555
C21 C18 1_555 1_555
C22 O7 1_555 1_555
C23 O9 1_555 1_555
H16 C23 1_555 1_555
O13 C23 1_555 1_555
Dy3 O13 1_555 1_555
O14 Dy3 1_555 1_555
O24 C24 1_555 1_555
O16 C31 1_555 1_555
O17 C31 1_555 1_555
O18 C44 1_555 1_555
O19 C44 1_555 1_555
O33 Dy3 1_555 1_555
O22 Dy3 1_555 1_555
H18 O22 1_555 1_555
H19 O22 1_555 1_555
O23 Dy3 1_555 1_555
H20 O23 1_555 1_555
H21 O23 1_555 1_555
C24 O14 1_555 1_555
C25 C24 1_555 1_555
C26 C25 1_555 1_555
H22 C26 1_555 1_555
C27 C26 1_555 1_555
C28 C27 1_555 1_555
H23 C28 1_555 1_555
C29 C28 1_555 1_555
H24 C29 1_555 1_555
C30 C25 1_555 1_555
C31 C27 1_555 1_555
C32 C30 1_555 1_555
C33 C32 1_555 1_555
C37 C32 1_555 1_555
H28 C37 1_555 1_555
C38 C36 1_555 1_555
C39 C38 1_555 1_555
H29 C39 1_555 1_555
C40 C39 1_555 1_555
H30 C40 1_555 1_555
C41 C40 1_555 1_555
C42 C41 1_555 1_555
H31 C42 1_555 1_555
C43 C38 1_555 1_555
C44 C41 1_555 1_555
C45 O33 1_555 1_555
Dy6 O17 1_555 1_555
Dy6_2 O4 1_555 1_555
Dy7 O16 1_555 1_555
Dy8 O3 1_555 1_555
Dy9 O5 1_555 1_555
Dy10 O18 1_555 1_555
O25 Dy2 1_555 1_555
O26 Dy3 1_555 1_555
O27 Dy1_2 1_555 1_555
O29 Dy2 1_555 1_555
O30 Dy3 1_555 1_555
O31 Dy2 1_555 1_555
O32 Dy3 1_555 1_555
O34 Dy1_2 1_555 1_555
Dy2 O7 1_555 1_555
O6 Dy9 1_555 1_555
C6 C7 1_555 1_555
C13 C14 1_555 1_555
C19 C20 1_555 1_555
C20 C22 1_555 1_555
O19 Dy10 1_555 1_555
C29 C30 1_555 1_555
C36 C37 1_555 1_555
C42 C43 1_555 1_555
C43 C45 1_555 1_555
H26 C34 1_555 1_555
C35 C34 1_555 1_555
H27 C35 1_555 1_555
H26_2 C34_2 1_555 1_555
C35_2 C34_2 1_555 1_555
H27_2 C35_2 1_555 1_555
O21 Dy6 1_555 1_555
Dy6 O2_2 1_555 1_555
Dy7 O1_2 1_555 1_555
O1_2 C1_2 1_555 1_555
O2_2 C1_2 1_555 1_555
O25 C8_2 1_555 1_555
O27 C8_2 1_555 1_555
O5_2 C21_2 1_555 1_555
O6_2 C21_2 1_555 1_555
O7_2 Dy6 1_555 1_555
O9_2 Dy7 1_555 1_555
O10_2 Dy7 1_555 1_555
H1_2 O10_2 1_555 1_555
H2_2 O10_2 1_555 1_555
O11_2 Dy7 1_555 1_555
H3_2 O11_2 1_555 1_555
H4_2 O11_2 1_555 1_555
O12_3 Dy6 1_555 1_555
H5_2 O12_3 1_555 1_555
C1_2 C2_2 1_555 1_555
C2_2 C3_2 1_555 1_555
C3_2 H6_2 1_555 1_555
C4_2 C3_2 1_555 1_555
C5_2 C4_2 1_555 1_555
H7_2 C5_2 1_555 1_555
C6_2 C5_2 1_555 1_555
H8_2 C6_2 1_555 1_555
C7_2 C2_2 1_555 1_555
C8_2 C4_2 1_555 1_555
C9_2 C7_2 1_555 1_555
C10_2 C9_2 1_555 1_555
C14_2 C9_2 1_555 1_555
H12_2 C14_2 1_555 1_555
C15_2 C13_2 1_555 1_555
C16_2 C15_2 1_555 1_555
H13_2 C16_2 1_555 1_555
C17_2 C16_2 1_555 1_555
H14_2 C17_2 1_555 1_555
C18_2 C17_2 1_555 1_555
C19_2 C18_2 1_555 1_555
H15_2 C19_2 1_555 1_555
C20_2 C15_2 1_555 1_555
C21_2 C18_2 1_555 1_555
C22_2 O7_2 1_555 1_555
C23_2 O9_2 1_555 1_555
H16_2 C23_2 1_555 1_555
O13_2 C23_2 1_555 1_555
Dy8 O13_2 1_555 1_555
O14_2 Dy8 1_555 1_555
O15 C24_2 1_555 1_555
O26 C31_2 1_555 1_555
O28 C31_2 1_555 1_555
O18_2 C44_2 1_555 1_555
O19_2 C44_2 1_555 1_555
O20 Dy8 1_555 1_555
O22_2 Dy8 1_555 1_555
H18_2 O22_2 1_555 1_555
H19_2 O22_2 1_555 1_555
O23_2 Dy8 1_555 1_555
H20_2 O23_2 1_555 1_555
H21_2 O23_2 1_555 1_555
C24_2 O14_2 1_555 1_555
C25_2 C24_2 1_555 1_555
C26_2 C25_2 1_555 1_555
H22_2 C26_2 1_555 1_555
C27_2 C26_2 1_555 1_555
C28_2 C27_2 1_555 1_555
H23_2 C28_2 1_555 1_555
C29_2 C28_2 1_555 1_555
H24_2 C29_2 1_555 1_555
C30_2 C25_2 1_555 1_555
C31_2 C27_2 1_555 1_555
C32_2 C30_2 1_555 1_555
C33_2 C32_2 1_555 1_555
C37_2 C32_2 1_555 1_555
H28_2 C37_2 1_555 1_555
C38_2 C36_2 1_555 1_555
C39_2 C38_2 1_555 1_555
H29_2 C39_2 1_555 1_555
C40_2 C39_2 1_555 1_555
H30_2 C40_2 1_555 1_555
C41_2 C40_2 1_555 1_555
C42_2 C41_2 1_555 1_555
H31_2 C42_2 1_555 1_555
C43_2 C38_2 1_555 1_555
C44_2 C41_2 1_555 1_555
C45_2 O20 1_555 1_555
Dy6_2 O15 1_555 1_555
Dy9_2 O5_2 1_555 1_555
Dy10_2 O18_2 1_555 1_555
O29_2 Dy7 1_555 1_555
O30_2 Dy8 1_555 1_555
O31_2 Dy7 1_555 1_555
O32_2 Dy8 1_555 1_555
Dy7 O7_2 1_555 1_555
O6_2 Dy9_2 1_555 1_555
C6_2 C7_2 1_555 1_555
C13_2 C14_2 1_555 1_555
C19_2 C20_2 1_555 1_555
C20_2 C22_2 1_555 1_555
O19_2 Dy10_2 1_555 1_555
O20 Dy6_2 1_555 1_555
C29_2 C30_2 1_555 1_555
C36_2 C37_2 1_555 1_555
C42_2 C43_2 1_555 1_555
C43_2 C45_2 1_555 1_555
O8_2 Dy6_2 1_555 1_555
O12_4 Dy6_2 1_555 1_555
H10_2 C11_2 1_555 1_555
C12_2 C11_2 1_555 1_555
H11_2 C12_2 1_555 1_555
H17_2 O12_4 1_555 1_555
H16_3 C23_3 1_555 1_555
O13_3 C23_3 1_555 1_555
Dy10 O13_3 1_555 1_555
O14_3 Dy10 1_555 1_555
O15_2 C24_3 1_555 1_555
O16_2 C31_3 1_555 1_555
O17_2 C31_3 1_555 1_555
O30 C44_3 1_555 1_555
O32 C44_3 1_555 1_555
O20_2 Dy10 1_555 1_555
O21_2 C45_3 1_555 1_555
O22_3 Dy10 1_555 1_555
H18_3 O22_3 1_555 1_555
H19_3 O22_3 1_555 1_555
O23_3 Dy10 1_555 1_555
H20_3 O23_3 1_555 1_555
H21_3 O23_3 1_555 1_555
C24_3 O14_3 1_555 1_555
C25_3 C24_3 1_555 1_555
C26_3 C25_3 1_555 1_555
H22_3 C26_3 1_555 1_555
C27_3 C26_3 1_555 1_555
C28_3 C27_3 1_555 1_555
H23_3 C28_3 1_555 1_555
C29_3 C28_3 1_555 1_555
H24_3 C29_3 1_555 1_555
C30_3 C25_3 1_555 1_555
C31_3 C27_3 1_555 1_555
C32_3 C30_3 1_555 1_555
C33_3 C32_3 1_555 1_555
H25_3 C33_3 1_555 1_555
C34_3 C33_3 1_555 1_555
H26_3 C34_3 1_555 1_555
C35_3 C34_3 1_555 1_555
H27_3 C35_3 1_555 1_555
C36_3 C35_3 1_555 1_555
C37_3 C32_3 1_555 1_555
H28_3 C37_3 1_555 1_555
C38_3 C36_3 1_555 1_555
C39_3 C38_3 1_555 1_555
H29_3 C39_3 1_555 1_555
C40_3 C39_3 1_555 1_555
H30_3 C40_3 1_555 1_555
C41_3 C40_3 1_555 1_555
C42_3 C41_3 1_555 1_555
H31_3 C42_3 1_555 1_555
C43_3 C38_3 1_555 1_555
C44_3 C41_3 1_555 1_555
C45_3 O20_2 1_555 1_555
Dy4 O15_2 1_555 1_555
Dy6_3 O17_2 1_555 1_555
Dy7_2 O16_2 1_555 1_555
O26_2 Dy10 1_555 1_555
O20_2 Dy4 1_555 1_555
O21_2 Dy4 1_555 1_555
C29_3 C30_3 1_555 1_555
C36_3 C37_3 1_555 1_555
C42_3 C43_3 1_555 1_555
C43_3 C45_3 1_555 1_555
Dy4 O2_3 1_555 1_555
Dy9 O1_3 1_555 1_555
O1_3 C1_3 1_555 1_555
O2_3 C1_3 1_555 1_555
O3_2 C8_3 1_555 1_555
O4_2 C8_3 1_555 1_555
O29 C21_3 1_555 1_555
O31 C21_3 1_555 1_555
O7_3 Dy4 1_555 1_555
O8_3 Dy4 1_555 1_555
O9_3 Dy9 1_555 1_555
O10_3 Dy9 1_555 1_555
H1_3 O10_3 1_555 1_555
H2_3 O10_3 1_555 1_555
O11_3 Dy9 1_555 1_555
H3_3 O11_3 1_555 1_555
H4_3 O11_3 1_555 1_555
O12_5 Dy4 1_555 1_555
H5_3 O12_5 1_555 1_555
C1_3 C2_3 1_555 1_555
C2_3 C3_3 1_555 1_555
C3_3 H6_3 1_555 1_555
C4_3 C3_3 1_555 1_555
C5_3 C4_3 1_555 1_555
H7_3 C5_3 1_555 1_555
C6_3 C5_3 1_555 1_555
H8_3 C6_3 1_555 1_555
C7_3 C2_3 1_555 1_555
C8_3 C4_3 1_555 1_555
C9_3 C7_3 1_555 1_555
C10_3 C9_3 1_555 1_555
H9_3 C10_3 1_555 1_555
C11_3 C10_3 1_555 1_555
H10_3 C11_3 1_555 1_555
C12_3 C11_3 1_555 1_555
H11_3 C12_3 1_555 1_555
C13_3 C12_3 1_555 1_555
C14_3 C9_3 1_555 1_555
H12_3 C14_3 1_555 1_555
C15_3 C13_3 1_555 1_555
C16_3 C15_3 1_555 1_555
H13_3 C16_3 1_555 1_555
C17_3 C16_3 1_555 1_555
H14_3 C17_3 1_555 1_555
C18_3 C17_3 1_555 1_555
C19_3 C18_3 1_555 1_555
H15_3 C19_3 1_555 1_555
C20_3 C15_3 1_555 1_555
C21_3 C18_3 1_555 1_555
C22_3 O7_3 1_555 1_555
C23_4 O9_3 1_555 1_555
H16_4 C23_4 1_555 1_555
H17_3 O12_5 1_555 1_555
Dy6_6 O4_2 1_555 1_555
Dy8_2 O3_2 1_555 1_555
O25_2 Dy9 1_555 1_555
O27_2 Dy4 1_555 1_555
O28_2 Dy4 1_555 1_555
Dy9 O7_3 1_555 1_555
O8_3 C22_3 1_555 1_555
C6_3 C7_3 1_555 1_555
C13_3 C14_3 1_555 1_555
C19_3 C20_3 1_555 1_555
C20_3 C22_3 1_555 1_555
H26_4 C34_4 1_555 1_555
C35_4 C34_4 1_555 1_555
H27_4 C35_4 1_555 1_555
O21_3 Dy6_3 1_555 1_555
O10_4 Dy7_2 1_555 1_555
H1_4 O10_4 1_555 1_555
H2_4 O10_4 1_555 1_555
O11_4 Dy7_2 1_555 1_555
H3_4 O11_4 1_555 1_555
H4_4 O11_4 1_555 1_555
O12_6 Dy6_3 1_555 1_555
H16_5 C23_5 1_555 1_555
O13_4 C23_5 1_555 1_555
O15_3 C24_4 1_555 1_555
O26_2 C31_4 1_555 1_555
O28_2 C31_4 1_555 1_555
O18_3 C44_4 1_555 1_555
O19_3 C44_4 1_555 1_555
C24_4 O14_4 1_555 1_555
C25_4 C24_4 1_555 1_555
C26_4 C25_4 1_555 1_555
H22_4 C26_4 1_555 1_555
C27_4 C26_4 1_555 1_555
C28_4 C27_4 1_555 1_555
H23_4 C28_4 1_555 1_555
C29_4 C28_4 1_555 1_555
H24_4 C29_4 1_555 1_555
C30_4 C25_4 1_555 1_555
C31_4 C27_4 1_555 1_555
C32_4 C30_4 1_555 1_555
C33_4 C32_4 1_555 1_555
C37_4 C32_4 1_555 1_555
H28_4 C37_4 1_555 1_555
C38_4 C36_4 1_555 1_555
C39_4 C38_4 1_555 1_555
H29_4 C39_4 1_555 1_555
C40_4 C39_4 1_555 1_555
H30_4 C40_4 1_555 1_555
C41_4 C40_4 1_555 1_555
C42_4 C41_4 1_555 1_555
H31_4 C42_4 1_555 1_555
C43_4 C38_4 1_555 1_555
C44_4 C41_4 1_555 1_555
C45_4 O20_3 1_555 1_555
Dy6_4 O15_3 1_555 1_555
O20_3 Dy6_4 1_555 1_555
C29_4 C30_4 1_555 1_555
C36_4 C37_4 1_555 1_555
C42_4 C43_4 1_555 1_555
C43_4 C45_4 1_555 1_555
O12_7 Dy6_4 1_555 1_555
H17_4 O12_7 1_555 1_555
Dy6_5 O2_4 1_555 1_555
O1_4 C1_4 1_555 1_555
O2_4 C1_4 1_555 1_555
O25_2 C8_4 1_555 1_555
O27_2 C8_4 1_555 1_555
O5_3 C21_4 1_555 1_555
O6_3 C21_4 1_555 1_555
O7_4 Dy6_5 1_555 1_555
O12_8 Dy6_5 1_555 1_555
H5_4 O12_8 1_555 1_555
C1_4 C2_4 1_555 1_555
C2_4 C3_4 1_555 1_555
C3_4 H6_4 1_555 1_555
C4_4 C3_4 1_555 1_555
C5_4 C4_4 1_555 1_555
H7_4 C5_4 1_555 1_555
C6_4 C5_4 1_555 1_555
H8_4 C6_4 1_555 1_555
C7_4 C2_4 1_555 1_555
C8_4 C4_4 1_555 1_555
C9_4 C7_4 1_555 1_555
C10_4 C9_4 1_555 1_555
C14_4 C9_4 1_555 1_555
H12_4 C14_4 1_555 1_555
C15_4 C13_4 1_555 1_555
C16_4 C15_4 1_555 1_555
H13_4 C16_4 1_555 1_555
C17_4 C16_4 1_555 1_555
H14_4 C17_4 1_555 1_555
C18_4 C17_4 1_555 1_555
C19_4 C18_4 1_555 1_555
H15_4 C19_4 1_555 1_555
C20_4 C15_4 1_555 1_555
C21_4 C18_4 1_555 1_555
C22_4 O7_4 1_555 1_555
C23_6 O9_4 1_555 1_555
H16_6 C23_6 1_555 1_555
O22_4 Dy8_2 1_555 1_555
H18_4 O22_4 1_555 1_555
H19_4 O22_4 1_555 1_555
O23_4 Dy8_2 1_555 1_555
H20_4 O23_4 1_555 1_555
H21_4 O23_4 1_555 1_555
C6_4 C7_4 1_555 1_555
C13_4 C14_4 1_555 1_555
C19_4 C20_4 1_555 1_555
C20_4 C22_4 1_555 1_555
O8_4 Dy6_6 1_555 1_555
O12_9 Dy6_6 1_555 1_555
H10_4 C11_4 1_555 1_555
C12_4 C11_4 1_555 1_555
H11_4 C12_4 1_555 1_555
O3_3 C8_5 1_555 1_555
O4_3 C8_5 1_555 1_555
C5_5 C4_5 1_555 1_555
H7_5 C5_5 1_555 1_555
C8_5 C4_5 1_555 1_555
Dy6_7 O4_3 1_555 1_555
Dy9_3 O3_3 1_555 1_555
Dy1_3 O2_5 1_555 1_555
O1_5 C1_5 1_555 1_555
O2_5 C1_5 1_555 1_555
O5_4 C21_5 1_555 1_555
O6_4 C21_5 1_555 1_555
O7_5 Dy1_3 1_555 1_555
O8_5 Dy1_3 1_555 1_555
O12_10 Dy1_3 1_555 1_555
C1_5 C2_5 1_555 1_555
C2_5 C3_5 1_555 1_555
H8_5 C6_5 1_555 1_555
C7_5 C2_5 1_555 1_555
C9_5 C7_5 1_555 1_555
C10_5 C9_5 1_555 1_555
H9_5 C10_5 1_555 1_555
C11_5 C10_5 1_555 1_555
H10_5 C11_5 1_555 1_555
C12_5 C11_5 1_555 1_555
H11_5 C12_5 1_555 1_555
C13_5 C12_5 1_555 1_555
C14_5 C9_5 1_555 1_555
H12_5 C14_5 1_555 1_555
C15_5 C13_5 1_555 1_555
C16_5 C15_5 1_555 1_555
H13_5 C16_5 1_555 1_555
C17_5 C16_5 1_555 1_555
H14_5 C17_5 1_555 1_555
C18_5 C17_5 1_555 1_555
C19_5 C18_5 1_555 1_555
H15_5 C19_5 1_555 1_555
C20_5 C15_5 1_555 1_555
C21_5 C18_5 1_555 1_555
C22_5 O7_5 1_555 1_555
C23_7 O9_5 1_555 1_555
H16_7 C23_7 1_555 1_555
O28_3 Dy1_3 1_555 1_555
O8_5 C22_5 1_555 1_555
C6_5 C7_5 1_555 1_555
C13_5 C14_5 1_555 1_555
C19_5 C20_5 1_555 1_555
C20_5 C22_5 1_555 1_555
O10_5 Dy2_2 1_555 1_555
H1_5 O10_5 1_555 1_555
H2_5 O10_5 1_555 1_555
O11_5 Dy2_2 1_555 1_555
H3_5 O11_5 1_555 1_555
H4_5 O11_5 1_555 1_555
O12_11 Dy1_4 1_555 1_555
H16_8 C23_8 1_555 1_555
O24_2 Dy1_4 1_555 1_555
O25_3 Dy2_2 1_555 1_555
O27_3 Dy1_4 1_555 1_555
O33_2 Dy1_4 1_555 1_555
O34_2 Dy1_4 1_555 1_555
H16_9 C23_9 1_555 1_555
O22_5 Dy3_2 1_555 1_555
H18_5 O22_5 1_555 1_555
H19_5 O22_5 1_555 1_555
O23_5 Dy3_2 1_555 1_555
H20_5 O23_5 1_555 1_555
H21_5 O23_5 1_555 1_555
O26_3 Dy3_2 1_555 1_555
O16_3 C31_5 1_555 1_555
O17_3 C31_5 1_555 1_555
C28_5 C27_5 1_555 1_555
H23_5 C28_5 1_555 1_555
C31_5 C27_5 1_555 1_555
Dy6_8 O17_3 1_555 1_555
Dy10_3 O16_3 1_555 1_555
H16_10 C23_10 1_555 1_555
O13_5 C23_10 1_555 1_555
O24_2 C24_5 1_555 1_555
O18_4 C44_5 1_555 1_555
O19_4 C44_5 1_555 1_555
O34_2 C45_5 1_555 1_555
C24_5 O14_5 1_555 1_555
C25_5 C24_5 1_555 1_555
C26_5 C25_5 1_555 1_555
H24_5 C29_5 1_555 1_555
C30_5 C25_5 1_555 1_555
C32_5 C30_5 1_555 1_555
C33_5 C32_5 1_555 1_555
H25_5 C33_5 1_555 1_555
C34_5 C33_5 1_555 1_555
H26_5 C34_5 1_555 1_555
C35_5 C34_5 1_555 1_555
H27_5 C35_5 1_555 1_555
C36_5 C35_5 1_555 1_555
C37_5 C32_5 1_555 1_555
H28_5 C37_5 1_555 1_555
C38_5 C36_5 1_555 1_555
C39_5 C38_5 1_555 1_555
H29_5 C39_5 1_555 1_555
C40_5 C39_5 1_555 1_555
H30_5 C40_5 1_555 1_555
C41_5 C40_5 1_555 1_555
C42_5 C41_5 1_555 1_555
H31_5 C42_5 1_555 1_555
C43_5 C38_5 1_555 1_555
C44_5 C41_5 1_555 1_555
C45_5 O33_2 1_555 1_555
C29_5 C30_5 1_555 1_555
C36_5 C37_5 1_555 1_555
C42_5 C43_5 1_555 1_555
C43_5 C45_5 1_555 1_555
H16_11 C23_11 1_555 1_555
O22_6 Dy9_3 1_555 1_555
H18_6 O22_6 1_555 1_555
H19_6 O22_6 1_555 1_555
O23_6 Dy9_3 1_555 1_555
H20_6 O23_6 1_555 1_555
H21_6 O23_6 1_555 1_555
Dy6_7 O2_6 1_555 1_555
O1_6 C1_6 1_555 1_555
O2_6 C1_6 1_555 1_555
O30_3 C21_6 1_555 1_555
O32_3 C21_6 1_555 1_555
O7_6 Dy6_7 1_555 1_555
O8_6 Dy6_7 1_555 1_555
O12_12 Dy6_7 1_555 1_555
C1_6 C2_6 1_555 1_555
C2_6 C3_6 1_555 1_555
H8_6 C6_6 1_555 1_555
C7_6 C2_6 1_555 1_555
C9_6 C7_6 1_555 1_555
C10_6 C9_6 1_555 1_555
H9_6 C10_6 1_555 1_555
C11_6 C10_6 1_555 1_555
H10_6 C11_6 1_555 1_555
C12_6 C11_6 1_555 1_555
H11_6 C12_6 1_555 1_555
C13_6 C12_6 1_555 1_555
C14_6 C9_6 1_555 1_555
H12_6 C14_6 1_555 1_555
C15_6 C13_6 1_555 1_555
C16_6 C15_6 1_555 1_555
H13_6 C16_6 1_555 1_555
C17_6 C16_6 1_555 1_555
H14_6 C17_6 1_555 1_555
C18_6 C17_6 1_555 1_555
C19_6 C18_6 1_555 1_555
H15_6 C19_6 1_555 1_555
C20_6 C15_6 1_555 1_555
C21_6 C18_6 1_555 1_555
C22_6 O7_6 1_555 1_555
C23_12 O9_6 1_555 1_555
H16_12 C23_12 1_555 1_555
O8_6 C22_6 1_555 1_555
C6_6 C7_6 1_555 1_555
C13_6 C14_6 1_555 1_555
C19_6 C20_6 1_555 1_555
C20_6 C22_6 1_555 1_555
O25_3 C8_6 1_555 1_555
O27_3 C8_6 1_555 1_555
C5_6 C4_6 1_555 1_555
H7_6 C5_6 1_555 1_555
C8_6 C4_6 1_555 1_555
H16_13 C23_13 1_555 1_555
O13_6 C23_13 1_555 1_555
O15_4 C24_6 1_555 1_555
O29_3 C44_6 1_555 1_555
O31_3 C44_6 1_555 1_555
O21_4 C45_6 1_555 1_555
C24_6 O14_6 1_555 1_555
C25_6 C24_6 1_555 1_555
C26_6 C25_6 1_555 1_555
H24_6 C29_6 1_555 1_555
C30_6 C25_6 1_555 1_555
C32_6 C30_6 1_555 1_555
C33_6 C32_6 1_555 1_555
H25_6 C33_6 1_555 1_555
C34_6 C33_6 1_555 1_555
H26_6 C34_6 1_555 1_555
C35_6 C34_6 1_555 1_555
H27_6 C35_6 1_555 1_555
C36_6 C35_6 1_555 1_555
C37_6 C32_6 1_555 1_555
H28_6 C37_6 1_555 1_555
C38_6 C36_6 1_555 1_555
C39_6 C38_6 1_555 1_555
H29_6 C39_6 1_555 1_555
C40_6 C39_6 1_555 1_555
H30_6 C40_6 1_555 1_555
C41_6 C40_6 1_555 1_555
C42_6 C41_6 1_555 1_555
H31_6 C42_6 1_555 1_555
C43_6 C38_6 1_555 1_555
C44_6 C41_6 1_555 1_555
C45_6 O20_4 1_555 1_555
Dy6_8 O15_4 1_555 1_555
O20_4 Dy6_8 1_555 1_555
O21_4 Dy6_8 1_555 1_555
C29_6 C30_6 1_555 1_555
C36_6 C37_6 1_555 1_555
C42_6 C43_6 1_555 1_555
C43_6 C45_6 1_555 1_555
O26_3 C31_6 1_555 1_555
O28_3 C31_6 1_555 1_555
C28_6 C27_6 1_555 1_555
H23_6 C28_6 1_555 1_555
C31_6 C27_6 1_555 1_555
O10_6 Dy10_3 1_555 1_555
H1_6 O10_6 1_555 1_555
H2_6 O10_6 1_555 1_555
O11_6 Dy10_3 1_555 1_555
H3_6 O11_6 1_555 1_555
H4_6 O11_6 1_555 1_555
O12_13 Dy6_8 1_555 1_555
H16_14 C23_14 1_555 1_555
H26_7 C34_7 1_555 1_555
C35_7 C34_7 1_555 1_555
H27_7 C35_7 1_555 1_555
O21_5 Dy4_3 1_555 1_555
Dy4_2 O2_7 1_555 1_555
O1_7 C1_7 1_555 1_555
O2_7 C1_7 1_555 1_555
O3_4 C8_7 1_555 1_555
O4_4 C8_7 1_555 1_555
O29_4 C21_7 1_555 1_555
O31_4 C21_7 1_555 1_555
O7_7 Dy4_2 1_555 1_555
O12_14 Dy4_2 1_555 1_555
H5_7 O12_14 1_555 1_555
C1_7 C2_7 1_555 1_555
C2_7 C3_7 1_555 1_555
C3_7 H6_7 1_555 1_555
C4_7 C3_7 1_555 1_555
C5_7 C4_7 1_555 1_555
H7_7 C5_7 1_555 1_555
C6_7 C5_7 1_555 1_555
H8_7 C6_7 1_555 1_555
C7_7 C2_7 1_555 1_555
C8_7 C4_7 1_555 1_555
C9_7 C7_7 1_555 1_555
C10_7 C9_7 1_555 1_555
C14_7 C9_7 1_555 1_555
H12_7 C14_7 1_555 1_555
C15_7 C13_7 1_555 1_555
C16_7 C15_7 1_555 1_555
H13_7 C16_7 1_555 1_555
C17_7 C16_7 1_555 1_555
H14_7 C17_7 1_555 1_555
C18_7 C17_7 1_555 1_555
C19_7 C18_7 1_555 1_555
H15_7 C19_7 1_555 1_555
C20_7 C15_7 1_555 1_555
C21_7 C18_7 1_555 1_555
C22_7 O7_7 1_555 1_555
C23_15 O9_7 1_555 1_555
H16_15 C23_15 1_555 1_555
O22_7 Dy10_4 1_555 1_555
H18_7 O22_7 1_555 1_555
H19_7 O22_7 1_555 1_555
O23_7 Dy10_4 1_555 1_555
H20_7 O23_7 1_555 1_555
H21_7 O23_7 1_555 1_555
Dy6_9 O4_4 1_555 1_555
Dy9_2 O3_4 1_555 1_555
O26_4 Dy10_4 1_555 1_555
C6_7 C7_7 1_555 1_555
C13_7 C14_7 1_555 1_555
C19_7 C20_7 1_555 1_555
C20_7 C22_7 1_555 1_555
O10_7 Dy9_4 1_555 1_555
H1_7 O10_7 1_555 1_555
H2_7 O10_7 1_555 1_555
O11_7 Dy9_4 1_555 1_555
H3_7 O11_7 1_555 1_555
H4_7 O11_7 1_555 1_555
O12_15 Dy4_3 1_555 1_555
H16_16 C23_16 1_555 1_555
O13_7 C23_16 1_555 1_555
O15_5 C24_7 1_555 1_555
O16_4 C31_7 1_555 1_555
O17_4 C31_7 1_555 1_555
O30_4 C44_7 1_555 1_555
O32_4 C44_7 1_555 1_555
C24_7 O14_7 1_555 1_555
C25_7 C24_7 1_555 1_555
C26_7 C25_7 1_555 1_555
H22_7 C26_7 1_555 1_555
C27_7 C26_7 1_555 1_555
C28_7 C27_7 1_555 1_555
H23_7 C28_7 1_555 1_555
C29_7 C28_7 1_555 1_555
H24_7 C29_7 1_555 1_555
C30_7 C25_7 1_555 1_555
C31_7 C27_7 1_555 1_555
C32_7 C30_7 1_555 1_555
C33_7 C32_7 1_555 1_555
C37_7 C32_7 1_555 1_555
H28_7 C37_7 1_555 1_555
C38_7 C36_7 1_555 1_555
C39_7 C38_7 1_555 1_555
H29_7 C39_7 1_555 1_555
C40_7 C39_7 1_555 1_555
H30_7 C40_7 1_555 1_555
C41_7 C40_7 1_555 1_555
C42_7 C41_7 1_555 1_555
H31_7 C42_7 1_555 1_555
C43_7 C38_7 1_555 1_555
C44_7 C41_7 1_555 1_555
C45_7 O20_5 1_555 1_555
Dy4_5 O15_5 1_555 1_555
Dy6_9 O17_4 1_555 1_555
Dy10_2 O16_4 1_555 1_555
O25_4 Dy9_4 1_555 1_555
O27_4 Dy4_3 1_555 1_555
O20_5 Dy4_5 1_555 1_555
C29_7 C30_7 1_555 1_555
C36_7 C37_7 1_555 1_555
C42_7 C43_7 1_555 1_555
C43_7 C45_7 1_555 1_555
O8_7 Dy4_4 1_555 1_555
O12_16 Dy4_4 1_555 1_555
H10_7 C11_7 1_555 1_555
C12_7 C11_7 1_555 1_555
H11_7 C12_7 1_555 1_555
O28_4 Dy4_4 1_555 1_555
O12_17 Dy4_5 1_555 1_555
H17_7 O12_17 1_555 1_555
H16_17 C23_17 1_555 1_555
O13_8 C23_17 1_555 1_555
Dy9_2 O13_8 1_555 1_555
O14_8 Dy9_2 1_555 1_555
O15_6 C24_8 1_555 1_555
O26_4 C31_8 1_555 1_555
O28_4 C31_8 1_555 1_555
O29_2 C44_8 1_555 1_555
O31_2 C44_8 1_555 1_555
O20_6 Dy9_2 1_555 1_555
O21_6 C45_8 1_555 1_555
O22_8 Dy9_2 1_555 1_555
H18_8 O22_8 1_555 1_555
H19_8 O22_8 1_555 1_555
O23_8 Dy9_2 1_555 1_555
H20_8 O23_8 1_555 1_555
H21_8 O23_8 1_555 1_555
C24_8 O14_8 1_555 1_555
C25_8 C24_8 1_555 1_555
C26_8 C25_8 1_555 1_555
H22_8 C26_8 1_555 1_555
C27_8 C26_8 1_555 1_555
C28_8 C27_8 1_555 1_555
H23_8 C28_8 1_555 1_555
C29_8 C28_8 1_555 1_555
H24_8 C29_8 1_555 1_555
C30_8 C25_8 1_555 1_555
C31_8 C27_8 1_555 1_555
C32_8 C30_8 1_555 1_555
C33_8 C32_8 1_555 1_555
H25_8 C33_8 1_555 1_555
C34_8 C33_8 1_555 1_555
H26_8 C34_8 1_555 1_555
C35_8 C34_8 1_555 1_555
H27_8 C35_8 1_555 1_555
C36_8 C35_8 1_555 1_555
C37_8 C32_8 1_555 1_555
H28_8 C37_8 1_555 1_555
C38_8 C36_8 1_555 1_555
C39_8 C38_8 1_555 1_555
H29_8 C39_8 1_555 1_555
C40_8 C39_8 1_555 1_555
H30_8 C40_8 1_555 1_555
C41_8 C40_8 1_555 1_555
C42_8 C41_8 1_555 1_555
H31_8 C42_8 1_555 1_555
C43_8 C38_8 1_555 1_555
C44_8 C41_8 1_555 1_555
C45_8 O20_6 1_555 1_555
Dy6_9 O15_6 1_555 1_555
O20_6 Dy6_9 1_555 1_555
O21_6 Dy6_9 1_555 1_555
C29_8 C30_8 1_555 1_555
C36_8 C37_8 1_555 1_555
C42_8 C43_8 1_555 1_555
C43_8 C45_8 1_555 1_555
Dy6_9 O2_8 1_555 1_555
Dy10_2 O1_8 1_555 1_555
O1_8 C1_8 1_555 1_555
O2_8 C1_8 1_555 1_555
O25_4 C8_8 1_555 1_555
O27_4 C8_8 1_555 1_555
O30_2 C21_8 1_555 1_555
O32_2 C21_8 1_555 1_555
O7_8 Dy6_9 1_555 1_555
O8_8 Dy6_9 1_555 1_555
O9_8 Dy10_2 1_555 1_555
O10_8 Dy10_2 1_555 1_555
H1_8 O10_8 1_555 1_555
H2_8 O10_8 1_555 1_555
O11_8 Dy10_2 1_555 1_555
H3_8 O11_8 1_555 1_555
H4_8 O11_8 1_555 1_555
O12_18 Dy6_9 1_555 1_555
H5_8 O12_18 1_555 1_555
C1_8 C2_8 1_555 1_555
C2_8 C3_8 1_555 1_555
C3_8 H6_8 1_555 1_555
C4_8 C3_8 1_555 1_555
C5_8 C4_8 1_555 1_555
H7_8 C5_8 1_555 1_555
C6_8 C5_8 1_555 1_555
H8_8 C6_8 1_555 1_555
C7_8 C2_8 1_555 1_555
C8_8 C4_8 1_555 1_555
C9_8 C7_8 1_555 1_555
C10_8 C9_8 1_555 1_555
H9_8 C10_8 1_555 1_555
C11_8 C10_8 1_555 1_555
H10_8 C11_8 1_555 1_555
C12_8 C11_8 1_555 1_555
H11_8 C12_8 1_555 1_555
C13_8 C12_8 1_555 1_555
C14_8 C9_8 1_555 1_555
H12_8 C14_8 1_555 1_555
C15_8 C13_8 1_555 1_555
C16_8 C15_8 1_555 1_555
H13_8 C16_8 1_555 1_555
C17_8 C16_8 1_555 1_555
H14_8 C17_8 1_555 1_555
C18_8 C17_8 1_555 1_555
C19_8 C18_8 1_555 1_555
H15_8 C19_8 1_555 1_555
C20_8 C15_8 1_555 1_555
C21_8 C18_8 1_555 1_555
C22_8 O7_8 1_555 1_555
C23_18 O9_8 1_555 1_555
H16_18 C23_18 1_555 1_555
H17_8 O12_18 1_555 1_555
Dy10_2 O7_8 1_555 1_555
O8_8 C22_8 1_555 1_555
C6_8 C7_8 1_555 1_555
C13_8 C14_8 1_555 1_555
C19_8 C20_8 1_555 1_555
C20_8 C22_8 1_555 1_555

#END
