
###############################################################################
#
# This file contains modified crystal structure data generated from the
# MOF subset of the Cambridge Structural Database (CSD) v543 
# hosted by the Cambridge Crystallographic Data Centre (CCDC).
#
# This work is licensed under the Creative Commons
# Attribution-NonCommercial-ShareAlike 4.0 International License.
# To view a copy of this license, visit
# http://creativecommons.org/licenses/by-nc-sa/4.0/
# or send a letter to
# Creative Commons, PO Box 1866, Mountain View, CA 94042, USA.
#
# CIF created using the CSD Python API on 29 September 2022
# The structure has been converted into the P1 space group
# The structure has a 3D framework
# The original CSD entry IZIHEG is in the tetragonal crystal system
# The framework has been calculated to contain at least 10.0% void space
# The void calculation uses a probe of radius 1.32A, grid spacing 0.4
#
###############################################################################

data_IZIHEG
_chemical_formula_moiety         '(C370 H258 Eu34 O186)n'
_symmetry_cell_setting           triclinic
_symmetry_space_group_name_H-M   'P 1'
_symmetry_Int_Tables_number      1
_space_group_name_Hall           'P 1'
loop_
_symmetry_equiv_pos_site_id
_symmetry_equiv_pos_as_xyz
1 x,y,z
_cell_length_a                   14.2118(5)
_cell_length_b                   14.2118(5)
_cell_length_c                   63.501(4)
_cell_angle_alpha                90
_cell_angle_beta                 90
_cell_angle_gamma                90
_cell_volume                     12825.6
loop_
_atom_site_label
_atom_site_type_symbol
_atom_site_fract_x
_atom_site_fract_y
_atom_site_fract_z
Eu1 Eu 0.5000 0.0000 0.45980(2)
O2 O 0.5000 0.0000 0.4976(2)
H1 H 0.5447 0.0276 0.5060
O12 O 0.0755(13) 0.0118(19) 0.4513(3)
C23 C 0.0000 0.0000 0.4430(6)
H16 H 0.0000 0.0000 0.4283
Eu6 Eu 0.0000 0.5000 0.54020(2)
Eu8 Eu 0.01920(8) 0.22204(7) 0.56174(2)
Eu9 Eu 0.01920(8) 0.27796(7) 0.68826(2)
O24 O 0.6259(10) 0.0910(12) 0.4656(2)
O26 O 0.2555(9) 0.0950(10) 0.4648(2)
O28 O 0.4049(10) 0.1226(10) 0.4708(2)
O31 O 0.3685(8) 0.0448(7) 0.42892(17)
O33 O 0.5023(9) 0.1136(8) 0.43039(15)
O35 O 0.1786(12) 0.1363(10) 0.4211(2)
O37 O 0.1768(10) 0.0018(16) 0.40194(18)
Eu1_2 Eu 0.5000 1.0000 0.45980(2)
Eu2 Eu 0.22204(7) 0.98080(8) 0.43826(2)
O1 O 0.3741(10) 0.9090(12) 0.4656(2)
O2_2 O 0.5000 1.0000 0.4976(2)
O3 O 0.2189(12) 0.8834(13) 0.4668(2)
O4 O 0.3067(10) 0.8556(9) 0.4220(2)
H2 H 0.3147 0.8545 0.4087
H3 H 0.3618 0.8464 0.4283
O5 O 0.0950(10) 0.7445(9) 0.5352(2)
O6 O 0.1169(14) 0.8433(18) 0.4295(3)
H4 H 0.0486 0.8437 0.4298
H5 H 0.1382 0.7815 0.4251
O7 O 0.1226(10) 0.5951(10) 0.5292(2)
O8 O 0.0448(7) 0.6315(8) 0.57108(17)
O9 O 0.1136(8) 0.4977(9) 0.56961(15)
O10 O 0.1363(10) 0.6786(12) 0.6711(2)
O11 O 0.0018(16) 0.6768(10) 0.65194(18)
C1 C 0.3163(16) 0.7922(16) 0.4916(3)
C2 C 0.3962(14) 0.7627(15) 0.4969(3)
H6 H 0.4495 0.7848 0.4900
C3 C 0.4054(15) 0.6964(16) 0.5133(3)
H7 H 0.4639 0.6710 0.5166
C4 C 0.3210(16) 0.6679(19) 0.5250(3)
C5 C 0.2363(14) 0.7075(14) 0.5188(3)
C6 C 0.2328(15) 0.7721(17) 0.5036(3)
H8 H 0.1770 0.8038 0.5007
C7 C 0.3357(13) 0.6036(14) 0.5429(3)
C8 C 0.3784(13) 0.5201(15) 0.5410(3)
H9 H 0.4008 0.5015 0.5278
C9 C 0.3900(17) 0.4615(18) 0.5579(3)
H10 H 0.4253 0.4068 0.5565
C10 C 0.3505(17) 0.483(2) 0.5764(3)
H11 H 0.3581 0.4414 0.5876
C11 C 0.2984(13) 0.5642(16) 0.5795(3)
C12 C 0.2917(11) 0.6178(15) 0.5625(3)
H12 H 0.2536 0.6708 0.5636
C13 C 0.2476(14) 0.5845(16) 0.5984(3)
C14 C 0.2939(15) 0.5997(17) 0.6189(3)
H13 H 0.3587 0.5936 0.6204
C15 C 0.2390(16) 0.6227(16) 0.6352(3)
H14 H 0.2690 0.6305 0.6481
C16 C 0.1457(16) 0.6357(16) 0.6350(3)
C17 C 0.0992(13) 0.6222(12) 0.6161(3)
H15 H 0.0347 0.6322 0.6150
C18 C 0.1527(14) 0.5928(14) 0.5985(3)
C19 C 0.3026(17) 0.8683(16) 0.4746(3)
C20 C 0.1420(17) 0.6813(16) 0.5290(3)
C21 C 0.0990(13) 0.5719(16) 0.5777(3)
C22 C 0.0940(19) 0.6591(16) 0.6540(3)
C23_2 C 0.0000 1.0000 0.4430(6)
H16_2 H 0.0000 1.0000 0.4283
H17 H 0.4553 0.9724 0.5060
O27 O 0.5951(10) 0.8774(10) 0.4708(2)
O30 O 0.6315(8) 0.9552(7) 0.42892(17)
O32 O 0.4977(9) 0.8864(8) 0.43039(15)
C23_3 C 1.0000 0.0000 0.4430(6)
H16_3 H 1.0000 0.0000 0.4283
Eu3 Eu 0.77796(7) 0.01920(8) 0.43826(2)
O15 O 0.7811(12) 0.1166(13) 0.4668(2)
O16 O 0.6933(10) 0.1444(9) 0.4220(2)
H18 H 0.6853 0.1455 0.4087
H19 H 0.6382 0.1536 0.4283
O17 O 0.9050(10) 0.2555(9) 0.5352(2)
O18 O 0.8831(14) 0.1567(18) 0.4295(3)
H20 H 0.9514 0.1563 0.4298
H21 H 0.8618 0.2185 0.4251
O19 O 0.8774(10) 0.4049(10) 0.5292(2)
O20 O 0.9552(7) 0.3685(8) 0.57108(17)
O21 O 0.8864(8) 0.5023(9) 0.56961(15)
O22 O 0.8637(10) 0.3214(12) 0.6711(2)
O23 O 0.9982(16) 0.3232(10) 0.65194(18)
C24 C 0.6837(16) 0.2078(16) 0.4916(3)
C25 C 0.6038(14) 0.2373(15) 0.4969(3)
H22 H 0.5505 0.2152 0.4900
C26 C 0.5946(15) 0.3036(16) 0.5133(3)
H23 H 0.5361 0.3290 0.5166
C27 C 0.6790(16) 0.3321(19) 0.5250(3)
C28 C 0.7637(14) 0.2925(14) 0.5188(3)
C29 C 0.7672(15) 0.2279(17) 0.5036(3)
H24 H 0.8230 0.1962 0.5007
C30 C 0.6643(13) 0.3964(14) 0.5429(3)
C31 C 0.6216(13) 0.4799(15) 0.5410(3)
H25 H 0.5992 0.4985 0.5278
C32 C 0.6100(17) 0.5385(18) 0.5579(3)
H26 H 0.5747 0.5932 0.5565
C33 C 0.6495(17) 0.517(2) 0.5764(3)
H27 H 0.6419 0.5586 0.5876
C34 C 0.7016(13) 0.4358(16) 0.5795(3)
C35 C 0.7083(11) 0.3822(15) 0.5625(3)
H28 H 0.7464 0.3292 0.5636
C36 C 0.7524(14) 0.4155(16) 0.5984(3)
C37 C 0.7061(15) 0.4003(17) 0.6189(3)
H29 H 0.6413 0.4064 0.6204
C38 C 0.7610(16) 0.3773(16) 0.6352(3)
H30 H 0.7310 0.3695 0.6481
C39 C 0.8543(16) 0.3643(16) 0.6350(3)
C40 C 0.9008(13) 0.3778(12) 0.6161(3)
H31 H 0.9653 0.3678 0.6150
C41 C 0.8473(14) 0.4072(14) 0.5985(3)
C42 C 0.6974(17) 0.1317(16) 0.4746(3)
C43 C 0.8580(17) 0.3187(16) 0.5290(3)
C44 C 0.9010(13) 0.4281(16) 0.5777(3)
C45 C 0.9060(19) 0.3409(16) 0.6540(3)
Eu6_2 Eu 1.0000 0.5000 0.54020(2)
C23_4 C 1.0000 1.0000 0.4430(6)
H16_4 H 1.0000 1.0000 0.4283
O13 O 0.9245(13) 0.9882(19) 0.4513(3)
Eu7 Eu 0.98080(8) 0.77796(7) 0.56174(2)
Eu10 Eu 0.98080(8) 0.72204(7) 0.68826(2)
O25 O 0.7445(9) 0.9050(10) 0.4648(2)
O34 O 0.8214(12) 0.8637(10) 0.4211(2)
O36 O 0.8232(10) 0.9982(16) 0.40194(18)
C23_5 C 0.0000 0.0000 0.5570(6)
H16_5 H 0.0000 -0.0000 0.5717
O14 O 0.0910(12) 0.3741(10) 0.5344(2)
O15_2 O 0.1166(13) 0.2189(12) 0.5332(2)
O16_2 O 0.1444(9) 0.3067(10) 0.5780(2)
H18_2 H 0.1455 0.3147 0.5913
H19_2 H 0.1536 0.3618 0.5717
O18_2 O 0.1567(18) 0.1169(14) 0.5705(3)
H20_2 H 0.1563 0.0486 0.5702
H21_2 H 0.2185 0.1382 0.5749
O22_2 O 0.3214(12) 0.1363(10) 0.3289(2)
O23_2 O 0.3232(10) 0.0018(16) 0.34806(18)
C24_2 C 0.2078(16) 0.3163(16) 0.5084(3)
C25_2 C 0.2373(15) 0.3962(14) 0.5031(3)
H22_2 H 0.2152 0.4495 0.5100
C26_2 C 0.3036(16) 0.4054(15) 0.4867(3)
H23_2 H 0.3290 0.4639 0.4834
C27_2 C 0.3321(19) 0.3210(16) 0.4750(3)
C28_2 C 0.2925(14) 0.2363(14) 0.4812(3)
C29_2 C 0.2279(17) 0.2328(15) 0.4964(3)
H24_2 H 0.1962 0.1770 0.4993
C30_2 C 0.3964(14) 0.3357(13) 0.4571(3)
C31_2 C 0.4799(15) 0.3784(13) 0.4590(3)
H25_2 H 0.4985 0.4008 0.4722
C32_2 C 0.5385(18) 0.3900(17) 0.4421(3)
H26_2 H 0.5932 0.4253 0.4435
C33_2 C 0.517(2) 0.3505(17) 0.4236(3)
H27_2 H 0.5586 0.3581 0.4124
C34_2 C 0.4358(16) 0.2984(13) 0.4205(3)
C35_2 C 0.3822(15) 0.2917(11) 0.4375(3)
H28_2 H 0.3292 0.2536 0.4364
C36_2 C 0.4155(16) 0.2476(14) 0.4016(3)
C37_2 C 0.4003(17) 0.2939(15) 0.3811(3)
H29_2 H 0.4064 0.3587 0.3796
C38_2 C 0.3773(16) 0.2390(16) 0.3648(3)
H30_2 H 0.3695 0.2690 0.3519
C39_2 C 0.3643(16) 0.1457(16) 0.3650(3)
C40_2 C 0.3778(12) 0.0992(13) 0.3839(3)
H31_2 H 0.3678 0.0347 0.3850
C41_2 C 0.4072(14) 0.1527(14) 0.4015(3)
C42_2 C 0.1317(16) 0.3026(17) 0.5254(3)
C43_2 C 0.3187(16) 0.1420(17) 0.4710(3)
C44_2 C 0.4281(16) 0.0990(13) 0.4223(3)
C45_2 C 0.3409(16) 0.0940(19) 0.3460(3)
O2_3 O 0.0000 0.5000 0.5024(2)
H1_2 H 0.0276 0.4553 0.4940
O12_2 O 0.0118(19) 0.9245(13) 0.5487(3)
C23_6 C 0.0000 1.0000 0.5570(6)
H16_6 H 0.0000 1.0000 0.5717
Eu9_2 Eu 0.27796(7) 0.98080(8) 0.31174(2)
O35_2 O 0.1363(10) 0.8214(12) 0.5789(2)
O37_2 O 0.0018(16) 0.8232(10) 0.59806(18)
C23_7 C 1.0000 0.0000 0.5570(6)
H16_7 H 1.0000 -0.0000 0.5717
O13_2 O 0.9882(19) 0.0755(13) 0.5487(3)
Eu10_2 Eu 0.72204(7) 0.01920(8) 0.31174(2)
O34_2 O 0.8637(10) 0.1786(12) 0.5789(2)
O36_2 O 0.9982(16) 0.1768(10) 0.59806(18)
O1_2 O 0.9090(12) 0.6259(10) 0.5344(2)
O2_4 O 1.0000 0.5000 0.5024(2)
O3_2 O 0.8834(13) 0.7811(12) 0.5332(2)
O4_2 O 0.8556(9) 0.6933(10) 0.5780(2)
H2_2 H 0.8545 0.6853 0.5913
H3_2 H 0.8464 0.6382 0.5717
O6_2 O 0.8433(18) 0.8831(14) 0.5705(3)
H4_2 H 0.8437 0.9514 0.5702
H5_2 H 0.7815 0.8618 0.5749
O10_2 O 0.6786(12) 0.8637(10) 0.3289(2)
O11_2 O 0.6768(10) 0.9982(16) 0.34806(18)
C1_2 C 0.7922(16) 0.6837(16) 0.5084(3)
C2_2 C 0.7627(15) 0.6038(14) 0.5031(3)
H6_2 H 0.7848 0.5505 0.5100
C3_2 C 0.6964(16) 0.5946(15) 0.4867(3)
H7_2 H 0.6710 0.5361 0.4834
C4_2 C 0.6679(19) 0.6790(16) 0.4750(3)
C5_2 C 0.7075(14) 0.7637(14) 0.4812(3)
C6_2 C 0.7721(17) 0.7672(15) 0.4964(3)
H8_2 H 0.8038 0.8230 0.4993
C7_2 C 0.6036(14) 0.6643(13) 0.4571(3)
C8_2 C 0.5201(15) 0.6216(13) 0.4590(3)
H9_2 H 0.5015 0.5992 0.4722
C9_2 C 0.4615(18) 0.6100(17) 0.4421(3)
H10_2 H 0.4068 0.5747 0.4435
C10_2 C 0.483(2) 0.6495(17) 0.4236(3)
H11_2 H 0.4414 0.6419 0.4124
C11_2 C 0.5642(16) 0.7016(13) 0.4205(3)
C12_2 C 0.6178(15) 0.7083(11) 0.4375(3)
H12_2 H 0.6708 0.7464 0.4364
C13_2 C 0.5845(16) 0.7524(14) 0.4016(3)
C14_2 C 0.5997(17) 0.7061(15) 0.3811(3)
H13_2 H 0.5936 0.6413 0.3796
C15_2 C 0.6227(16) 0.7610(16) 0.3648(3)
H14_2 H 0.6305 0.7310 0.3519
C16_2 C 0.6357(16) 0.8543(16) 0.3650(3)
C17_2 C 0.6222(12) 0.9008(13) 0.3839(3)
H15_2 H 0.6322 0.9653 0.3850
C18_2 C 0.5928(14) 0.8473(14) 0.4015(3)
C19_2 C 0.8683(16) 0.6974(17) 0.5254(3)
C20_2 C 0.6813(16) 0.8580(17) 0.4710(3)
C21_2 C 0.5719(16) 0.9010(13) 0.4223(3)
C22_2 C 0.6591(16) 0.9060(19) 0.3460(3)
C23_8 C 1.0000 1.0000 0.5570(6)
H16_8 H 1.0000 1.0000 0.5717
H17_2 H 0.9724 0.5447 0.4940
Eu4 Eu 0.0000 0.0000 0.29020(2)
Eu4_2 Eu -0.0000 1.0000 0.29020(2)
O2_5 O 0.0000 0.0000 0.2524(2)
O12_3 O 0.4245(13) 0.0118(19) 0.2987(3)
C23_9 C 0.5000 0.0000 0.3070(6)
H16_9 H 0.5000 0.0000 0.3217
O14_2 O 0.8741(10) 0.0910(12) 0.2844(2)
O15_3 O 0.7189(12) 0.1166(13) 0.2832(2)
O16_3 O 0.8067(10) 0.1444(9) 0.3280(2)
H18_3 H 0.8147 0.1455 0.3413
H19_3 H 0.8618 0.1536 0.3217
O17_2 O 0.5950(10) 0.2555(9) 0.2148(2)
O18_3 O 0.6169(14) 0.1567(18) 0.3205(3)
H20_3 H 0.5486 0.1563 0.3202
H21_3 H 0.6382 0.2185 0.3249
O19_2 O 0.6226(10) 0.4049(10) 0.2208(2)
O20_2 O 0.5448(7) 0.3685(8) 0.17892(17)
O21_2 O 0.6136(8) 0.5023(9) 0.18039(15)
O22_3 O 0.6363(10) 0.3214(12) 0.0789(2)
O23_3 O 0.5018(16) 0.3232(10) 0.09806(18)
C24_3 C 0.8163(16) 0.2078(16) 0.2584(3)
C25_3 C 0.8962(14) 0.2373(15) 0.2531(3)
H22_3 H 0.9495 0.2152 0.2600
C26_3 C 0.9054(15) 0.3036(16) 0.2367(3)
H23_3 H 0.9639 0.3290 0.2334
C27_3 C 0.8210(16) 0.3321(19) 0.2250(3)
C28_3 C 0.7363(14) 0.2925(14) 0.2312(3)
C29_3 C 0.7328(15) 0.2279(17) 0.2464(3)
H24_3 H 0.6770 0.1962 0.2493
C30_3 C 0.8357(13) 0.3964(14) 0.2071(3)
C31_3 C 0.8784(13) 0.4799(15) 0.2090(3)
H25_3 H 0.9008 0.4985 0.2222
C32_3 C 0.8900(17) 0.5385(18) 0.1921(3)
H26_3 H 0.9253 0.5932 0.1935
C33_3 C 0.8505(17) 0.517(2) 0.1736(3)
H27_3 H 0.8581 0.5586 0.1624
C34_3 C 0.7984(13) 0.4358(16) 0.1705(3)
C35_3 C 0.7917(11) 0.3822(15) 0.1875(3)
H28_3 H 0.7536 0.3292 0.1864
C36_3 C 0.7476(14) 0.4155(16) 0.1516(3)
C37_3 C 0.7939(15) 0.4003(17) 0.1311(3)
H29_3 H 0.8587 0.4064 0.1296
C38_3 C 0.7390(16) 0.3773(16) 0.1148(3)
H30_3 H 0.7690 0.3695 0.1019
C39_3 C 0.6457(16) 0.3643(16) 0.1150(3)
C40_3 C 0.5992(13) 0.3778(12) 0.1339(3)
H31_3 H 0.5347 0.3678 0.1350
C41_3 C 0.6527(14) 0.4072(14) 0.1515(3)
C42_3 C 0.8026(17) 0.1317(16) 0.2754(3)
C43_3 C 0.6420(17) 0.3187(16) 0.2210(3)
C44_3 C 0.5990(13) 0.4281(16) 0.1723(3)
C45_3 C 0.5940(19) 0.3409(16) 0.0960(3)
Eu4_3 Eu 1.0000 0.0000 0.29020(2)
Eu6_3 Eu 0.5000 0.5000 0.20980(2)
Eu8_2 Eu 0.48080(8) 0.22204(7) 0.18826(2)
Eu9_3 Eu 0.48080(8) 0.27796(7) 0.06174(2)
O26_2 O 0.2445(9) 0.0950(10) 0.2852(2)
O28_2 O 0.0951(10) 0.1226(10) 0.2792(2)
O31_2 O 0.1315(8) 0.0448(7) 0.32108(17)
O1_3 O 0.1259(10) 0.9090(12) 0.2844(2)
O2_6 O 0.0000 1.0000 0.2524(2)
O3_3 O 0.2811(12) 0.8834(13) 0.2832(2)
O4_3 O 0.1933(10) 0.8556(9) 0.3280(2)
H2_3 H 0.1853 0.8545 0.3413
H3_3 H 0.1382 0.8464 0.3217
O5_2 O 0.4050(10) 0.7445(9) 0.2148(2)
O6_3 O 0.3831(14) 0.8433(18) 0.3205(3)
H4_3 H 0.4514 0.8437 0.3202
H5_3 H 0.3618 0.7815 0.3249
O7_2 O 0.3774(10) 0.5951(10) 0.2208(2)
O8_2 O 0.4552(7) 0.6315(8) 0.17892(17)
O9_2 O 0.3864(8) 0.4977(9) 0.18039(15)
O10_3 O 0.3637(10) 0.6786(12) 0.0789(2)
O11_3 O 0.4982(16) 0.6768(10) 0.09806(18)
C1_3 C 0.1837(16) 0.7922(16) 0.2584(3)
C2_3 C 0.1038(14) 0.7627(15) 0.2531(3)
H6_3 H 0.0505 0.7848 0.2600
C3_3 C 0.0946(15) 0.6964(16) 0.2367(3)
H7_3 H 0.0361 0.6710 0.2334
C4_3 C 0.1790(16) 0.6679(19) 0.2250(3)
C5_3 C 0.2637(14) 0.7075(14) 0.2312(3)
C6_3 C 0.2672(15) 0.7721(17) 0.2464(3)
H8_3 H 0.3230 0.8038 0.2493
C7_3 C 0.1643(13) 0.6036(14) 0.2071(3)
C8_3 C 0.1216(13) 0.5201(15) 0.2090(3)
H9_3 H 0.0992 0.5015 0.2222
C9_3 C 0.1100(17) 0.4615(18) 0.1921(3)
H10_3 H 0.0747 0.4068 0.1935
C10_3 C 0.1495(17) 0.483(2) 0.1736(3)
H11_3 H 0.1419 0.4414 0.1624
C11_3 C 0.2016(13) 0.5642(16) 0.1705(3)
C12_3 C 0.2083(11) 0.6178(15) 0.1875(3)
H12_3 H 0.2464 0.6708 0.1864
C13_3 C 0.2524(14) 0.5845(16) 0.1516(3)
C14_3 C 0.2061(15) 0.5997(17) 0.1311(3)
H13_3 H 0.1413 0.5936 0.1296
C15_3 C 0.2610(16) 0.6227(16) 0.1148(3)
H14_3 H 0.2310 0.6305 0.1019
C16_3 C 0.3543(16) 0.6357(16) 0.1150(3)
C17_3 C 0.4008(13) 0.6222(12) 0.1339(3)
H15_3 H 0.4653 0.6322 0.1350
C18_3 C 0.3473(14) 0.5928(14) 0.1515(3)
C19_3 C 0.1974(17) 0.8683(16) 0.2754(3)
C20_3 C 0.3580(17) 0.6813(16) 0.2210(3)
C21_3 C 0.4010(13) 0.5719(16) 0.1723(3)
C22_3 C 0.4060(19) 0.6591(16) 0.0960(3)
C23_10 C 0.5000 1.0000 0.3070(6)
H16_10 H 0.5000 1.0000 0.3217
H17_3 H 0.0447 0.9724 0.2440
O13_3 O 0.5755(13) 0.9882(19) 0.2987(3)
Eu4_4 Eu 1.0000 1.0000 0.29020(2)
Eu7_2 Eu 0.51920(8) 0.77796(7) 0.18826(2)
Eu10_3 Eu 0.51920(8) 0.72204(7) 0.06174(2)
O25_2 O 0.7555(9) 0.9050(10) 0.2852(2)
O29 O 0.8685(8) 0.9552(7) 0.32108(17)
O32_2 O 0.0023(9) 0.8864(8) 0.31961(15)
O2_7 O 1.0000 0.0000 0.2524(2)
H1_3 H 0.9553 0.0276 0.2440
O33_2 O 0.9977(9) 0.1136(8) 0.31961(15)
O2_8 O 1.0000 1.0000 0.2524(2)
O27_2 O 0.9049(10) 0.8774(10) 0.2792(2)
C9_4 C 0.0385(18) 0.6100(17) 0.3079(3)
H10_4 H 0.0932 0.5747 0.3065
C10_4 C 0.017(2) 0.6495(17) 0.3264(3)
H11_4 H 0.0586 0.6419 0.3376
C23_11 C 0.5000 -0.0000 0.1930(6)
H16_11 H 0.5000 0.0000 0.1783
O13_4 O 0.5118(19) 0.0755(13) 0.2013(3)
O14_3 O 0.4090(12) 0.3741(10) 0.2156(2)
O15_4 O 0.3834(13) 0.2189(12) 0.2168(2)
O16_4 O 0.3556(9) 0.3067(10) 0.1720(2)
H18_4 H 0.3545 0.3147 0.1587
H19_4 H 0.3464 0.3618 0.1783
O18_4 O 0.3433(18) 0.1169(14) 0.1795(3)
H20_4 H 0.3437 0.0486 0.1798
H21_4 H 0.2815 0.1382 0.1751
C24_4 C 0.2922(16) 0.3163(16) 0.2416(3)
C25_4 C 0.2627(15) 0.3962(14) 0.2469(3)
H22_4 H 0.2848 0.4495 0.2400
C26_4 C 0.1964(16) 0.4054(15) 0.2633(3)
H23_4 H 0.1710 0.4639 0.2666
C27_4 C 0.1679(19) 0.3210(16) 0.2750(3)
C28_4 C 0.2075(14) 0.2363(14) 0.2688(3)
C29_4 C 0.2721(17) 0.2328(15) 0.2536(3)
H24_4 H 0.3038 0.1770 0.2507
C30_4 C 0.1036(14) 0.3357(13) 0.2929(3)
C31_4 C 0.0201(15) 0.3784(13) 0.2910(3)
H25_4 H 0.0015 0.4008 0.2778
C34_4 C 0.0642(16) 0.2984(13) 0.3295(3)
C35_4 C 0.1178(15) 0.2917(11) 0.3125(3)
H28_4 H 0.1708 0.2536 0.3136
C36_4 C 0.0845(16) 0.2476(14) 0.3484(3)
C37_4 C 0.0997(17) 0.2939(15) 0.3689(3)
H29_4 H 0.0936 0.3587 0.3704
C38_4 C 0.1227(16) 0.2390(16) 0.3852(3)
H30_4 H 0.1305 0.2690 0.3981
C39_4 C 0.1357(16) 0.1457(16) 0.3850(3)
C40_4 C 0.1222(12) 0.0992(13) 0.3661(3)
H31_4 H 0.1322 0.0347 0.3650
C41_4 C 0.0928(14) 0.1527(14) 0.3485(3)
C42_4 C 0.3683(16) 0.3026(17) 0.2246(3)
C43_4 C 0.1813(16) 0.1420(17) 0.2790(3)
C44_4 C 0.0719(16) 0.0990(13) 0.3277(3)
C45_4 C 0.1591(16) 0.0940(19) 0.4040(3)
O34_3 O 0.6363(10) 0.1786(12) 0.1711(2)
O36_3 O 0.5018(16) 0.1768(10) 0.15194(18)
O1_4 O 0.5910(12) 0.6259(10) 0.2156(2)
O2_9 O 0.5000 0.5000 0.2476(2)
H1_4 H 0.4724 0.4553 0.2560
O3_4 O 0.6166(13) 0.7811(12) 0.2168(2)
O4_4 O 0.6444(9) 0.6933(10) 0.1720(2)
H2_4 H 0.6455 0.6853 0.1587
H3_4 H 0.6536 0.6382 0.1783
O6_4 O 0.6567(18) 0.8831(14) 0.1795(3)
H4_4 H 0.6563 0.9514 0.1798
H5_4 H 0.7185 0.8618 0.1751
O12_4 O 0.4882(19) 0.9245(13) 0.2013(3)
C1_4 C 0.7078(16) 0.6837(16) 0.2416(3)
C2_4 C 0.7373(15) 0.6038(14) 0.2469(3)
H6_4 H 0.7152 0.5505 0.2400
C3_4 C 0.8036(16) 0.5946(15) 0.2633(3)
H7_4 H 0.8290 0.5361 0.2666
C4_4 C 0.8321(19) 0.6790(16) 0.2750(3)
C5_4 C 0.7925(14) 0.7637(14) 0.2688(3)
C6_4 C 0.7279(17) 0.7672(15) 0.2536(3)
H8_4 H 0.6962 0.8230 0.2507
C7_4 C 0.8964(14) 0.6643(13) 0.2929(3)
C8_4 C 0.9799(15) 0.6216(13) 0.2910(3)
H9_4 H 0.9985 0.5992 0.2778
C11_4 C 0.9358(16) 0.7016(13) 0.3295(3)
C12_4 C 0.8822(15) 0.7083(11) 0.3125(3)
H12_4 H 0.8292 0.7464 0.3136
C13_4 C 0.9155(16) 0.7524(14) 0.3484(3)
C14_4 C 0.9003(17) 0.7061(15) 0.3689(3)
H13_4 H 0.9064 0.6413 0.3704
C15_4 C 0.8773(16) 0.7610(16) 0.3852(3)
H14_4 H 0.8695 0.7310 0.3981
C16_4 C 0.8643(16) 0.8543(16) 0.3850(3)
C17_4 C 0.8778(12) 0.9008(13) 0.3661(3)
H15_4 H 0.8678 0.9653 0.3650
C18_4 C 0.9072(14) 0.8473(14) 0.3485(3)
C19_4 C 0.6317(16) 0.6974(17) 0.2246(3)
C20_4 C 0.8187(16) 0.8580(17) 0.2790(3)
C21_4 C 0.9281(16) 0.9010(13) 0.3277(3)
C22_4 C 0.8409(16) 0.9060(19) 0.4040(3)
C23_12 C 0.5000 1.0000 0.1930(6)
H16_12 H 0.5000 1.0000 0.1783
H17_4 H 0.5276 0.5447 0.2560
O35_3 O 0.3637(10) 0.8214(12) 0.1711(2)
O37_3 O 0.4982(16) 0.8232(10) 0.15194(18)
C32_4 C 0.9615(18) 0.3900(17) 0.3079(3)
H26_4 H 0.9068 0.4253 0.3065
C33_4 C 0.983(2) 0.3505(17) 0.3264(3)
H27_4 H 0.9414 0.3581 0.3376
H1_5 H 0.0447 0.5276 0.0060
Eu1_3 Eu 0.0000 0.5000 0.95980(2)
O2_10 O 0.0000 0.5000 0.9976(2)
O24_2 O 0.1259(10) 0.5910(12) 0.9656(2)
O27_3 O 0.0951(10) 0.3774(10) 0.9708(2)
O30_2 O 0.1315(8) 0.4552(7) 0.92892(17)
O33_3 O 0.0023(9) 0.6136(8) 0.93039(15)
O21_3 O 0.3864(8) 0.0023(9) 0.06961(15)
C32_5 C 0.1100(17) 0.0385(18) 0.0579(3)
H26_5 H 0.0747 0.0932 0.0565
C33_5 C 0.1495(17) 0.017(2) 0.0764(3)
H27_5 H 0.1419 0.0586 0.0876
Eu6_4 Eu 0.5000 0.0000 0.04020(2)
O5_3 O 0.5950(10) 0.2445(9) 0.0352(2)
O7_3 O 0.6226(10) 0.0951(10) 0.0292(2)
O8_3 O 0.5448(7) 0.1315(8) 0.07108(17)
C3_5 C 0.9054(15) 0.1964(16) 0.0133(3)
H7_5 H 0.9639 0.1710 0.0166
C4_5 C 0.8210(16) 0.1679(19) 0.0250(3)
C5_5 C 0.7363(14) 0.2075(14) 0.0188(3)
C6_5 C 0.7328(15) 0.2721(17) 0.0036(3)
H8_5 H 0.6770 0.3038 0.0007
C7_5 C 0.8357(13) 0.1036(14) 0.0429(3)
C8_5 C 0.8784(13) 0.0201(15) 0.0410(3)
H9_5 H 0.9008 0.0015 0.0278
C11_5 C 0.7984(13) 0.0642(16) 0.0795(3)
C12_5 C 0.7917(11) 0.1178(15) 0.0625(3)
H12_5 H 0.7536 0.1708 0.0636
C13_5 C 0.7476(14) 0.0845(16) 0.0984(3)
C14_5 C 0.7939(15) 0.0997(17) 0.1189(3)
H13_5 H 0.8587 0.0936 0.1204
C15_5 C 0.7390(16) 0.1227(16) 0.1352(3)
H14_5 H 0.7690 0.1305 0.1481
C16_5 C 0.6457(16) 0.1357(16) 0.1350(3)
C17_5 C 0.5992(13) 0.1222(12) 0.1161(3)
H15_5 H 0.5347 0.1322 0.1150
C18_5 C 0.6527(14) 0.0928(14) 0.0985(3)
C20_5 C 0.6420(17) 0.1813(16) 0.0290(3)
C21_5 C 0.5990(13) 0.0719(16) 0.0777(3)
C22_5 C 0.5940(19) 0.1591(16) 0.1540(3)
H17_5 H 0.9553 0.4724 0.0060
O17_3 O 0.4050(10) 0.7555(9) 0.0352(2)
O19_3 O 0.3774(10) 0.9049(10) 0.0292(2)
O20_3 O 0.4552(7) 0.8685(8) 0.07108(17)
C26_5 C 0.0946(15) 0.8036(16) 0.0133(3)
H23_5 H 0.0361 0.8290 0.0166
C27_5 C 0.1790(16) 0.8321(19) 0.0250(3)
C28_5 C 0.2637(14) 0.7925(14) 0.0188(3)
C29_5 C 0.2672(15) 0.7279(17) 0.0036(3)
H24_5 H 0.3230 0.6962 0.0007
C30_5 C 0.1643(13) 0.8964(14) 0.0429(3)
C31_5 C 0.1216(13) 0.9799(15) 0.0410(3)
H25_5 H 0.0992 0.9985 0.0278
C34_5 C 0.2016(13) 0.9358(16) 0.0795(3)
C35_5 C 0.2083(11) 0.8822(15) 0.0625(3)
H28_5 H 0.2464 0.8292 0.0636
C36_5 C 0.2524(14) 0.9155(16) 0.0984(3)
C37_5 C 0.2061(15) 0.9003(17) 0.1189(3)
H29_5 H 0.1413 0.9064 0.1204
C38_5 C 0.2610(16) 0.8773(16) 0.1352(3)
H30_5 H 0.2310 0.8695 0.1481
C39_5 C 0.3543(16) 0.8643(16) 0.1350(3)
C40_5 C 0.4008(13) 0.8778(12) 0.1161(3)
H31_5 H 0.4653 0.8678 0.1150
C41_5 C 0.3473(14) 0.9072(14) 0.0985(3)
C43_5 C 0.3580(17) 0.8187(16) 0.0290(3)
C44_5 C 0.4010(13) 0.9281(16) 0.0777(3)
C45_5 C 0.4060(19) 0.8409(16) 0.1540(3)
Eu6_5 Eu 0.5000 1.0000 0.04020(2)
Eu1_4 Eu 1.0000 0.5000 0.95980(2)
Eu2_2 Eu 0.72204(7) 0.48080(8) 0.93826(2)
O1_5 O 0.8741(10) 0.4090(12) 0.9656(2)
O2_11 O 1.0000 0.5000 0.9976(2)
O3_5 O 0.7189(12) 0.3834(13) 0.9668(2)
O4_5 O 0.8067(10) 0.3556(9) 0.9220(2)
H2_5 H 0.8147 0.3545 0.9087
H3_5 H 0.8618 0.3464 0.9283
O6_5 O 0.6169(14) 0.3433(18) 0.9295(3)
H4_5 H 0.5486 0.3437 0.9298
H5_5 H 0.6382 0.2815 0.9251
O12_5 O 0.5755(13) 0.5118(19) 0.9513(3)
C1_5 C 0.8163(16) 0.2922(16) 0.9916(3)
C2_5 C 0.8962(14) 0.2627(15) 0.9969(3)
H6_5 H 0.9495 0.2848 0.9900
C19_5 C 0.8026(17) 0.3683(16) 0.9746(3)
C23_13 C 0.5000 0.5000 0.9430(6)
H16_13 H 0.5000 0.5000 0.9283
O13_5 O 0.4245(13) 0.4882(19) 0.9513(3)
Eu3_2 Eu 0.27796(7) 0.51920(8) 0.93826(2)
O15_5 O 0.2811(12) 0.6166(13) 0.9668(2)
O16_5 O 0.1933(10) 0.6444(9) 0.9220(2)
H18_5 H 0.1853 0.6455 0.9087
H19_5 H 0.1382 0.6536 0.9283
O18_5 O 0.3831(14) 0.6567(18) 0.9295(3)
H20_5 H 0.4514 0.6563 0.9298
H21_5 H 0.3618 0.7185 0.9251
C24_5 C 0.1837(16) 0.7078(16) 0.9916(3)
C25_5 C 0.1038(14) 0.7373(15) 0.9969(3)
H22_5 H 0.0505 0.7152 0.9900
C42_5 C 0.1974(17) 0.6317(16) 0.9746(3)
O25_3 O 0.2445(9) 0.4050(10) 0.9648(2)
O26_3 O 0.7555(9) 0.5950(10) 0.9648(2)
O28_3 O 0.9049(10) 0.6226(10) 0.9708(2)
O31_3 O 0.8685(8) 0.5448(7) 0.92892(17)
O32_3 O 0.9977(9) 0.3864(8) 0.93039(15)
O34_4 O 0.3214(12) 0.3637(10) 0.9211(2)
O35_4 O 0.6786(12) 0.6363(10) 0.9211(2)
O36_4 O 0.3232(10) 0.4982(16) 0.90194(18)
O37_4 O 0.6768(10) 0.5018(16) 0.90194(18)
O9_3 O 0.6136(8) 0.9977(9) 0.06961(15)
C9_5 C 0.8900(17) 0.9615(18) 0.0579(3)
H10_5 H 0.9253 0.9068 0.0565
C10_5 C 0.8505(17) 0.983(2) 0.0764(3)
H11_5 H 0.8581 0.9414 0.0876
C32_6 C 0.0385(18) 0.8900(17) 0.9421(3)
H26_6 H 0.0932 0.9253 0.9435
C33_6 C 0.017(2) 0.8505(17) 0.9236(3)
H27_6 H 0.0586 0.8581 0.9124
O1_6 O 0.4090(12) 0.1259(10) 0.0344(2)
O2_12 O 0.5000 0.0000 0.0024(2)
O3_6 O 0.3834(13) 0.2811(12) 0.0332(2)
O4_6 O 0.3556(9) 0.1933(10) 0.0780(2)
H2_6 H 0.3545 0.1853 0.0913
H3_6 H 0.3464 0.1382 0.0717
O6_6 O 0.3433(18) 0.3831(14) 0.0705(3)
H4_6 H 0.3437 0.4514 0.0702
H5_6 H 0.2815 0.3618 0.0749
O12_6 O 0.5118(19) 0.4245(13) 0.0487(3)
C1_6 C 0.2922(16) 0.1837(16) 0.0084(3)
C2_6 C 0.2627(15) 0.1038(14) 0.0031(3)
H6_6 H 0.2848 0.0505 0.0100
C19_6 C 0.3683(16) 0.1974(17) 0.0254(3)
C23_14 C 0.5000 0.5000 0.0570(6)
H16_14 H 0.5000 0.5000 0.0717
O13_6 O 0.4882(19) 0.5755(13) 0.0487(3)
O14_4 O 0.5910(12) 0.8741(10) 0.0344(2)
O15_6 O 0.6166(13) 0.7189(12) 0.0332(2)
O16_6 O 0.6444(9) 0.8067(10) 0.0780(2)
H18_6 H 0.6455 0.8147 0.0913
H19_6 H 0.6536 0.8618 0.0717
O18_6 O 0.6567(18) 0.6169(14) 0.0705(3)
H20_6 H 0.6563 0.5486 0.0702
H21_6 H 0.7185 0.6382 0.0749
C24_6 C 0.7078(16) 0.8163(16) 0.0084(3)
C25_6 C 0.7373(15) 0.8962(14) 0.0031(3)
H22_6 H 0.7152 0.9495 0.0100
C42_6 C 0.6317(16) 0.8026(17) 0.0254(3)
O10_4 O 0.1786(12) 0.3637(10) 0.8289(2)
O11_4 O 0.1768(10) 0.4982(16) 0.84806(18)
C3_6 C 0.1964(16) 0.0946(15) 0.9867(3)
H7_6 H 0.1710 0.0361 0.9834
C4_6 C 0.1679(19) 0.1790(16) 0.9750(3)
C5_6 C 0.2075(14) 0.2637(14) 0.9812(3)
C6_6 C 0.2721(17) 0.2672(15) 0.9964(3)
H8_6 H 0.3038 0.3230 0.9993
C7_6 C 0.1036(14) 0.1643(13) 0.9571(3)
C8_6 C 0.0201(15) 0.1216(13) 0.9590(3)
H9_6 H 0.0015 0.0992 0.9722
C11_6 C 0.0642(16) 0.2016(13) 0.9205(3)
C12_6 C 0.1178(15) 0.2083(11) 0.9375(3)
H12_6 H 0.1708 0.2464 0.9364
C13_6 C 0.0845(16) 0.2524(14) 0.9016(3)
C14_6 C 0.0997(17) 0.2061(15) 0.8811(3)
H13_6 H 0.0936 0.1413 0.8796
C15_6 C 0.1227(16) 0.2610(16) 0.8648(3)
H14_6 H 0.1305 0.2310 0.8519
C16_6 C 0.1357(16) 0.3543(16) 0.8650(3)
C17_6 C 0.1222(12) 0.4008(13) 0.8839(3)
H15_6 H 0.1322 0.4653 0.8850
C18_6 C 0.0928(14) 0.3473(14) 0.9015(3)
C20_6 C 0.1813(16) 0.3580(17) 0.9710(3)
C21_6 C 0.0719(16) 0.4010(13) 0.9223(3)
C22_6 C 0.1591(16) 0.4060(19) 0.8460(3)
H17_6 H 0.4724 0.0447 0.9940
O22_4 O 0.8214(12) 0.6363(10) 0.8289(2)
O23_4 O 0.8232(10) 0.5018(16) 0.84806(18)
C26_6 C 0.8036(16) 0.9054(15) 0.9867(3)
H23_6 H 0.8290 0.9639 0.9834
C27_6 C 0.8321(19) 0.8210(16) 0.9750(3)
C28_6 C 0.7925(14) 0.7363(14) 0.9812(3)
C29_6 C 0.7279(17) 0.7328(15) 0.9964(3)
H24_6 H 0.6962 0.6770 0.9993
C30_6 C 0.8964(14) 0.8357(13) 0.9571(3)
C31_6 C 0.9799(15) 0.8784(13) 0.9590(3)
H25_6 H 0.9985 0.9008 0.9722
C34_6 C 0.9358(16) 0.7984(13) 0.9205(3)
C35_6 C 0.8822(15) 0.7917(11) 0.9375(3)
H28_6 H 0.8292 0.7536 0.9364
C36_6 C 0.9155(16) 0.7476(14) 0.9016(3)
C37_6 C 0.9003(17) 0.7939(15) 0.8811(3)
H29_6 H 0.9064 0.8587 0.8796
C38_6 C 0.8773(16) 0.7390(16) 0.8648(3)
H30_6 H 0.8695 0.7690 0.8519
C39_6 C 0.8643(16) 0.6457(16) 0.8650(3)
C40_6 C 0.8778(12) 0.5992(13) 0.8839(3)
H31_6 H 0.8678 0.5347 0.8850
C41_6 C 0.9072(14) 0.6527(14) 0.9015(3)
C43_6 C 0.8187(16) 0.6420(17) 0.9710(3)
C44_6 C 0.9281(16) 0.5990(13) 0.9223(3)
C45_6 C 0.8409(16) 0.5940(19) 0.8460(3)
Eu9_4 Eu 0.77796(7) 0.48080(8) 0.81174(2)
Eu10_4 Eu 0.22204(7) 0.51920(8) 0.81174(2)
O2_13 O 0.5000 1.0000 0.0024(2)
H1_6 H 0.5276 0.9553 0.9940
C9_6 C 0.9615(18) 0.1100(17) 0.9421(3)
H10_6 H 0.9068 0.0747 0.9435
C10_6 C 0.983(2) 0.1495(17) 0.9236(3)
H11_6 H 0.9414 0.1419 0.9124
O21_4 O 0.1136(8) 0.0023(9) 0.68039(15)
C32_7 C 0.3900(17) 0.0385(18) 0.6921(3)
H26_7 H 0.4253 0.0932 0.6935
C33_7 C 0.3505(17) 0.017(2) 0.6736(3)
H27_7 H 0.3581 0.0586 0.6624
Eu6_6 Eu 0.0000 0.0000 0.70980(2)
C23_15 C 0.0000 0.5000 0.8070(6)
H16_15 H 0.0000 0.5000 0.8217
O13_7 O 0.0755(13) 0.4882(19) 0.7987(3)
O14_5 O 0.3741(10) 0.5910(12) 0.7844(2)
O15_7 O 0.2189(12) 0.6166(13) 0.7832(2)
O16_7 O 0.3067(10) 0.6444(9) 0.8280(2)
H18_7 H 0.3147 0.6455 0.8413
H19_7 H 0.3618 0.6536 0.8217
O17_4 O 0.0950(10) 0.7555(9) 0.7148(2)
O18_7 O 0.1169(14) 0.6567(18) 0.8205(3)
H20_7 H 0.0486 0.6563 0.8202
H21_7 H 0.1382 0.7185 0.8249
O19_4 O 0.1226(10) 0.9049(10) 0.7208(2)
O20_4 O 0.0448(7) 0.8685(8) 0.67892(17)
C24_7 C 0.3163(16) 0.7078(16) 0.7584(3)
C25_7 C 0.3962(14) 0.7373(15) 0.7531(3)
H22_7 H 0.4495 0.7152 0.7600
C26_7 C 0.4054(15) 0.8036(16) 0.7367(3)
H23_7 H 0.4639 0.8290 0.7334
C27_7 C 0.3210(16) 0.8321(19) 0.7250(3)
C28_7 C 0.2363(14) 0.7925(14) 0.7312(3)
C29_7 C 0.2328(15) 0.7279(17) 0.7464(3)
H24_7 H 0.1770 0.6962 0.7493
C30_7 C 0.3357(13) 0.8964(14) 0.7071(3)
C31_7 C 0.3784(13) 0.9799(15) 0.7090(3)
H25_7 H 0.4008 0.9985 0.7222
C34_7 C 0.2984(13) 0.9358(16) 0.6705(3)
C35_7 C 0.2917(11) 0.8822(15) 0.6875(3)
H28_7 H 0.2536 0.8292 0.6864
C36_7 C 0.2476(14) 0.9155(16) 0.6516(3)
C37_7 C 0.2939(15) 0.9003(17) 0.6311(3)
H29_7 H 0.3587 0.9064 0.6296
C38_7 C 0.2390(16) 0.8773(16) 0.6148(3)
H30_7 H 0.2690 0.8695 0.6019
C39_7 C 0.1457(16) 0.8643(16) 0.6150(3)
C40_7 C 0.0992(13) 0.8778(12) 0.6339(3)
H31_7 H 0.0347 0.8678 0.6350
C41_7 C 0.1527(14) 0.9072(14) 0.6515(3)
C42_7 C 0.3026(17) 0.6317(16) 0.7754(3)
C43_7 C 0.1420(17) 0.8187(16) 0.7210(3)
C44_7 C 0.0990(13) 0.9281(16) 0.6723(3)
C45_7 C 0.0940(19) 0.8409(16) 0.5960(3)
Eu4_5 Eu 0.5000 0.5000 0.79020(2)
Eu6_7 Eu 0.0000 1.0000 0.70980(2)
O25_4 O 0.2555(9) 0.4050(10) 0.7852(2)
O29_2 O 0.3685(8) 0.4552(7) 0.82108(17)
Eu6_8 Eu 1.0000 0.0000 0.70980(2)
O1_7 O 0.6259(10) 0.4090(12) 0.7844(2)
O2_14 O 0.5000 0.5000 0.7524(2)
H1_7 H 0.4553 0.5276 0.7440
O3_7 O 0.7811(12) 0.3834(13) 0.7832(2)
O4_7 O 0.6933(10) 0.3556(9) 0.8280(2)
H2_7 H 0.6853 0.3545 0.8413
H3_7 H 0.6382 0.3464 0.8217
O5_4 O 0.9050(10) 0.2445(9) 0.7148(2)
O6_7 O 0.8831(14) 0.3433(18) 0.8205(3)
H4_7 H 0.9514 0.3437 0.8202
H5_7 H 0.8618 0.2815 0.8249
O7_4 O 0.8774(10) 0.0951(10) 0.7208(2)
O8_4 O 0.9552(7) 0.1315(8) 0.67892(17)
O12_7 O 0.9245(13) 0.5118(19) 0.7987(3)
C1_7 C 0.6837(16) 0.2922(16) 0.7584(3)
C2_7 C 0.6038(14) 0.2627(15) 0.7531(3)
H6_7 H 0.5505 0.2848 0.7600
C3_7 C 0.5946(15) 0.1964(16) 0.7367(3)
H7_7 H 0.5361 0.1710 0.7334
C4_7 C 0.6790(16) 0.1679(19) 0.7250(3)
C5_7 C 0.7637(14) 0.2075(14) 0.7312(3)
C6_7 C 0.7672(15) 0.2721(17) 0.7464(3)
H8_7 H 0.8230 0.3038 0.7493
C7_7 C 0.6643(13) 0.1036(14) 0.7071(3)
C8_7 C 0.6216(13) 0.0201(15) 0.7090(3)
H9_7 H 0.5992 0.0015 0.7222
C11_7 C 0.7016(13) 0.0642(16) 0.6705(3)
C12_7 C 0.7083(11) 0.1178(15) 0.6875(3)
H12_7 H 0.7464 0.1708 0.6864
C13_7 C 0.7524(14) 0.0845(16) 0.6516(3)
C14_7 C 0.7061(15) 0.0997(17) 0.6311(3)
H13_7 H 0.6413 0.0936 0.6296
C15_7 C 0.7610(16) 0.1227(16) 0.6148(3)
H14_7 H 0.7310 0.1305 0.6019
C16_7 C 0.8543(16) 0.1357(16) 0.6150(3)
C17_7 C 0.9008(13) 0.1222(12) 0.6339(3)
H15_7 H 0.9653 0.1322 0.6350
C18_7 C 0.8473(14) 0.0928(14) 0.6515(3)
C19_7 C 0.6974(17) 0.3683(16) 0.7754(3)
C20_7 C 0.8580(17) 0.1813(16) 0.7210(3)
C21_7 C 0.9010(13) 0.0719(16) 0.6723(3)
C22_7 C 0.9060(19) 0.1591(16) 0.5960(3)
C23_16 C 1.0000 0.5000 0.8070(6)
H16_16 H 1.0000 0.5000 0.8217
H17_7 H 0.5447 0.4724 0.7440
Eu6_9 Eu 1.0000 1.0000 0.70980(2)
O26_4 O 0.7445(9) 0.5950(10) 0.7852(2)
O27_4 O 0.4049(10) 0.3774(10) 0.7792(2)
O28_4 O 0.5951(10) 0.6226(10) 0.7792(2)
O31_4 O 0.6315(8) 0.5448(7) 0.82108(17)
O32_4 O 0.5023(9) 0.3864(8) 0.81961(15)
O33_4 O 0.4977(9) 0.6136(8) 0.81961(15)
O9_4 O 0.8864(8) 0.9977(9) 0.68039(15)
C9_7 C 0.6100(17) 0.9615(18) 0.6921(3)
H10_7 H 0.5747 0.9068 0.6935
C10_7 C 0.6495(17) 0.983(2) 0.6736(3)
H11_7 H 0.6419 0.9414 0.6624
O1_8 O 0.0910(12) 0.1259(10) 0.7156(2)
O2_15 O 0.0000 0.0000 0.7476(2)
O3_8 O 0.1166(13) 0.2811(12) 0.7168(2)
O4_8 O 0.1444(9) 0.1933(10) 0.6720(2)
H2_8 H 0.1455 0.1853 0.6587
H3_8 H 0.1536 0.1382 0.6783
O6_8 O 0.1567(18) 0.3831(14) 0.6795(3)
H4_8 H 0.1563 0.4514 0.6798
H5_8 H 0.2185 0.3618 0.6751
C1_8 C 0.2078(16) 0.1837(16) 0.7416(3)
C2_8 C 0.2373(15) 0.1038(14) 0.7469(3)
H6_8 H 0.2152 0.0505 0.7400
C3_8 C 0.3036(16) 0.0946(15) 0.7633(3)
H7_8 H 0.3290 0.0361 0.7666
C4_8 C 0.3321(19) 0.1790(16) 0.7750(3)
C5_8 C 0.2925(14) 0.2637(14) 0.7688(3)
C6_8 C 0.2279(17) 0.2672(15) 0.7536(3)
H8_8 H 0.1962 0.3230 0.7507
C7_8 C 0.3964(14) 0.1643(13) 0.7929(3)
C8_8 C 0.4799(15) 0.1216(13) 0.7910(3)
H9_8 H 0.4985 0.0992 0.7778
C9_8 C 0.5385(18) 0.1100(17) 0.8079(3)
H10_8 H 0.5932 0.0747 0.8065
C10_8 C 0.517(2) 0.1495(17) 0.8264(3)
H11_8 H 0.5586 0.1419 0.8376
C11_8 C 0.4358(16) 0.2016(13) 0.8295(3)
C12_8 C 0.3822(15) 0.2083(11) 0.8125(3)
H12_8 H 0.3292 0.2464 0.8136
C13_8 C 0.4155(16) 0.2524(14) 0.8484(3)
C14_8 C 0.4003(17) 0.2061(15) 0.8689(3)
H13_8 H 0.4064 0.1413 0.8704
C15_8 C 0.3773(16) 0.2610(16) 0.8852(3)
H14_8 H 0.3695 0.2310 0.8981
C16_8 C 0.3643(16) 0.3543(16) 0.8850(3)
C17_8 C 0.3778(12) 0.4008(13) 0.8661(3)
H15_8 H 0.3678 0.4653 0.8650
C18_8 C 0.4072(14) 0.3473(14) 0.8485(3)
C19_8 C 0.1317(16) 0.1974(17) 0.7246(3)
C20_8 C 0.3187(16) 0.3580(17) 0.7790(3)
C21_8 C 0.4281(16) 0.4010(13) 0.8277(3)
C22_8 C 0.3409(16) 0.4060(19) 0.9040(3)
C23_17 C 0.0000 0.5000 0.6930(6)
H16_17 H 0.0000 0.5000 0.6783
H17_8 H 0.0276 0.0447 0.7560
O13_8 O 0.0118(19) 0.5755(13) 0.7013(3)
O2_16 O 0.0000 1.0000 0.7476(2)
O2_17 O 1.0000 0.0000 0.7476(2)
O12_8 O 0.9882(19) 0.4245(13) 0.7013(3)
C23_18 C 1.0000 0.5000 0.6930(6)
H16_18 H 1.0000 0.5000 0.6783
O14_6 O 0.9090(12) 0.8741(10) 0.7156(2)
O15_8 O 0.8834(13) 0.7189(12) 0.7168(2)
O16_8 O 0.8556(9) 0.8067(10) 0.6720(2)
H18_8 H 0.8545 0.8147 0.6587
H19_8 H 0.8464 0.8618 0.6783
O18_8 O 0.8433(18) 0.6169(14) 0.6795(3)
H20_8 H 0.8437 0.5486 0.6798
H21_8 H 0.7815 0.6382 0.6751
C24_8 C 0.7922(16) 0.8163(16) 0.7416(3)
C25_8 C 0.7627(15) 0.8962(14) 0.7469(3)
H22_8 H 0.7848 0.9495 0.7400
C26_8 C 0.6964(16) 0.9054(15) 0.7633(3)
H23_8 H 0.6710 0.9639 0.7666
C27_8 C 0.6679(19) 0.8210(16) 0.7750(3)
C28_8 C 0.7075(14) 0.7363(14) 0.7688(3)
C29_8 C 0.7721(17) 0.7328(15) 0.7536(3)
H24_8 H 0.8038 0.6770 0.7507
C30_8 C 0.6036(14) 0.8357(13) 0.7929(3)
C31_8 C 0.5201(15) 0.8784(13) 0.7910(3)
H25_8 H 0.5015 0.9008 0.7778
C32_8 C 0.4615(18) 0.8900(17) 0.8079(3)
H26_8 H 0.4068 0.9253 0.8065
C33_8 C 0.483(2) 0.8505(17) 0.8264(3)
H27_8 H 0.4414 0.8581 0.8376
C34_8 C 0.5642(16) 0.7984(13) 0.8295(3)
C35_8 C 0.6178(15) 0.7917(11) 0.8125(3)
H28_8 H 0.6708 0.7536 0.8136
C36_8 C 0.5845(16) 0.7476(14) 0.8484(3)
C37_8 C 0.5997(17) 0.7939(15) 0.8689(3)
H29_8 H 0.5936 0.8587 0.8704
C38_8 C 0.6227(16) 0.7390(16) 0.8852(3)
H30_8 H 0.6305 0.7690 0.8981
C39_8 C 0.6357(16) 0.6457(16) 0.8850(3)
C40_8 C 0.6222(12) 0.5992(13) 0.8661(3)
H31_8 H 0.6322 0.5347 0.8650
C41_8 C 0.5928(14) 0.6527(14) 0.8485(3)
C42_8 C 0.8683(16) 0.8026(17) 0.7246(3)
C43_8 C 0.6813(16) 0.6420(17) 0.7790(3)
C44_8 C 0.5719(16) 0.5990(13) 0.8277(3)
C45_8 C 0.6591(16) 0.5940(19) 0.9040(3)
O2_18 O 1.0000 1.0000 0.7476(2)
H1_8 H 0.9724 0.9553 0.7560
loop_
_geom_bond_atom_site_label_1
_geom_bond_atom_site_label_2
_geom_bond_site_symmetry_1
_geom_bond_site_symmetry_2
O2 Eu1 1_555 1_555
H1 O2 1_555 1_555
C23 O12 1_555 1_555
H16 C23 1_555 1_555
O24 Eu1 1_555 1_555
O28 Eu1 1_555 1_555
O31 Eu1 1_555 1_555
O33 Eu1 1_555 1_555
Eu1_2 O1 1_555 1_555
Eu2 O3 1_555 1_555
O1 C19 1_555 1_555
O2_2 Eu1_2 1_555 1_555
O3 C19 1_555 1_555
O4 Eu2 1_555 1_555
H2 O4 1_555 1_555
H3 O4 1_555 1_555
O5 C20 1_555 1_555
O6 Eu2 1_555 1_555
H4 O6 1_555 1_555
H5 O6 1_555 1_555
O7 C20 1_555 1_555
O8 C21 1_555 1_555
O9 C21 1_555 1_555
O10 C22 1_555 1_555
O11 C22 1_555 1_555
C1 C2 1_555 1_555
C2 H6 1_555 1_555
C3 C2 1_555 1_555
H7 C3 1_555 1_555
C4 C3 1_555 1_555
C5 C4 1_555 1_555
C6 C1 1_555 1_555
H8 C6 1_555 1_555
C7 C4 1_555 1_555
C8 C7 1_555 1_555
H9 C8 1_555 1_555
C9 C8 1_555 1_555
H10 C9 1_555 1_555
C10 C9 1_555 1_555
H11 C10 1_555 1_555
C11 C10 1_555 1_555
C12 C7 1_555 1_555
H12 C12 1_555 1_555
C13 C11 1_555 1_555
C14 C13 1_555 1_555
H13 C14 1_555 1_555
C15 C14 1_555 1_555
H14 C15 1_555 1_555
C16 C15 1_555 1_555
C17 C16 1_555 1_555
H15 C17 1_555 1_555
C18 C13 1_555 1_555
C19 C1 1_555 1_555
C20 C5 1_555 1_555
C21 C18 1_555 1_555
C22 C16 1_555 1_555
H16_2 C23_2 1_555 1_555
H17 O2_2 1_555 1_555
Eu6 O7 1_555 1_555
O27 Eu1_2 1_555 1_555
O30 Eu1_2 1_555 1_555
O32 Eu1_2 1_555 1_555
O8 Eu6 1_555 1_555
O9 Eu6 1_555 1_555
C5 C6 1_555 1_555
C11 C12 1_555 1_555
C17 C18 1_555 1_555
H16_3 C23_3 1_555 1_555
O24 C42 1_555 1_555
O15 Eu3 1_555 1_555
O16 Eu3 1_555 1_555
H18 O16 1_555 1_555
H19 O16 1_555 1_555
O17 C43 1_555 1_555
O18 Eu3 1_555 1_555
H20 O18 1_555 1_555
H21 O18 1_555 1_555
O19 C43 1_555 1_555
O20 C44 1_555 1_555
O21 C44 1_555 1_555
O22 C45 1_555 1_555
O23 C45 1_555 1_555
C24 C25 1_555 1_555
C25 H22 1_555 1_555
C26 C25 1_555 1_555
H23 C26 1_555 1_555
C27 C26 1_555 1_555
C28 C27 1_555 1_555
C29 C24 1_555 1_555
H24 C29 1_555 1_555
C30 C27 1_555 1_555
C31 C30 1_555 1_555
H25 C31 1_555 1_555
C32 C31 1_555 1_555
H26 C32 1_555 1_555
C33 C32 1_555 1_555
H27 C33 1_555 1_555
C34 C33 1_555 1_555
C35 C30 1_555 1_555
H28 C35 1_555 1_555
C36 C34 1_555 1_555
C37 C36 1_555 1_555
H29 C37 1_555 1_555
C38 C37 1_555 1_555
H30 C38 1_555 1_555
C39 C38 1_555 1_555
C40 C39 1_555 1_555
H31 C40 1_555 1_555
C41 C36 1_555 1_555
C42 O15 1_555 1_555
C43 C28 1_555 1_555
C44 C41 1_555 1_555
C45 C39 1_555 1_555
Eu6_2 O19 1_555 1_555
O20 Eu6_2 1_555 1_555
O21 Eu6_2 1_555 1_555
C24 C42 1_555 1_555
C28 C29 1_555 1_555
C34 C35 1_555 1_555
C40 C41 1_555 1_555
H16_4 C23_4 1_555 1_555
O13 C23_4 1_555 1_555
H16_5 C23_5 1_555 1_555
O14 C42_2 1_555 1_555
O15_2 Eu8 1_555 1_555
O16_2 Eu8 1_555 1_555
H18_2 O16_2 1_555 1_555
H19_2 O16_2 1_555 1_555
O26 C43_2 1_555 1_555
O18_2 Eu8 1_555 1_555
H20_2 O18_2 1_555 1_555
H21_2 O18_2 1_555 1_555
O28 C43_2 1_555 1_555
O31 C44_2 1_555 1_555
O33 C44_2 1_555 1_555
O22_2 C45_2 1_555 1_555
O23_2 C45_2 1_555 1_555
C24_2 C25_2 1_555 1_555
C25_2 H22_2 1_555 1_555
C26_2 C25_2 1_555 1_555
H23_2 C26_2 1_555 1_555
C27_2 C26_2 1_555 1_555
C28_2 C27_2 1_555 1_555
C29_2 C24_2 1_555 1_555
H24_2 C29_2 1_555 1_555
C30_2 C27_2 1_555 1_555
C31_2 C30_2 1_555 1_555
H25_2 C31_2 1_555 1_555
C32_2 C31_2 1_555 1_555
H26_2 C32_2 1_555 1_555
C33_2 C32_2 1_555 1_555
H27_2 C33_2 1_555 1_555
C34_2 C33_2 1_555 1_555
C35_2 C30_2 1_555 1_555
H28_2 C35_2 1_555 1_555
C36_2 C34_2 1_555 1_555
C37_2 C36_2 1_555 1_555
H29_2 C37_2 1_555 1_555
C38_2 C37_2 1_555 1_555
H30_2 C38_2 1_555 1_555
C39_2 C38_2 1_555 1_555
C40_2 C39_2 1_555 1_555
H31_2 C40_2 1_555 1_555
C41_2 C36_2 1_555 1_555
C42_2 O15_2 1_555 1_555
C43_2 C28_2 1_555 1_555
C44_2 C41_2 1_555 1_555
C45_2 C39_2 1_555 1_555
Eu6 O14 1_555 1_555
C24_2 C42_2 1_555 1_555
C28_2 C29_2 1_555 1_555
C34_2 C35_2 1_555 1_555
C40_2 C41_2 1_555 1_555
O2_3 Eu6 1_555 1_555
H1_2 O2_3 1_555 1_555
C23_6 O12_2 1_555 1_555
H16_6 C23_6 1_555 1_555
H16_7 C23_7 1_555 1_555
O13_2 C23_7 1_555 1_555
Eu6_2 O1_2 1_555 1_555
Eu7 O3_2 1_555 1_555
O1_2 C19_2 1_555 1_555
O2_4 Eu6_2 1_555 1_555
O3_2 C19_2 1_555 1_555
O4_2 Eu7 1_555 1_555
H2_2 O4_2 1_555 1_555
H3_2 O4_2 1_555 1_555
O25 C20_2 1_555 1_555
O6_2 Eu7 1_555 1_555
H4_2 O6_2 1_555 1_555
H5_2 O6_2 1_555 1_555
O27 C20_2 1_555 1_555
O30 C21_2 1_555 1_555
O32 C21_2 1_555 1_555
O10_2 C22_2 1_555 1_555
O11_2 C22_2 1_555 1_555
C1_2 C2_2 1_555 1_555
C2_2 H6_2 1_555 1_555
C3_2 C2_2 1_555 1_555
H7_2 C3_2 1_555 1_555
C4_2 C3_2 1_555 1_555
C5_2 C4_2 1_555 1_555
C6_2 C1_2 1_555 1_555
H8_2 C6_2 1_555 1_555
C7_2 C4_2 1_555 1_555
C8_2 C7_2 1_555 1_555
H9_2 C8_2 1_555 1_555
C9_2 C8_2 1_555 1_555
H10_2 C9_2 1_555 1_555
C10_2 C9_2 1_555 1_555
H11_2 C10_2 1_555 1_555
C11_2 C10_2 1_555 1_555
C12_2 C7_2 1_555 1_555
H12_2 C12_2 1_555 1_555
C13_2 C11_2 1_555 1_555
C14_2 C13_2 1_555 1_555
H13_2 C14_2 1_555 1_555
C15_2 C14_2 1_555 1_555
H14_2 C15_2 1_555 1_555
C16_2 C15_2 1_555 1_555
C17_2 C16_2 1_555 1_555
H15_2 C17_2 1_555 1_555
C18_2 C13_2 1_555 1_555
C19_2 C1_2 1_555 1_555
C20_2 C5_2 1_555 1_555
C21_2 C18_2 1_555 1_555
C22_2 C16_2 1_555 1_555
H16_8 C23_8 1_555 1_555
H17_2 O2_4 1_555 1_555
C5_2 C6_2 1_555 1_555
C11_2 C12_2 1_555 1_555
C17_2 C18_2 1_555 1_555
O2_5 Eu4 1_555 1_555
C23_9 O12_3 1_555 1_555
H16_9 C23_9 1_555 1_555
O14_2 C42_3 1_555 1_555
O15_3 Eu10_2 1_555 1_555
O16_3 Eu10_2 1_555 1_555
H18_3 O16_3 1_555 1_555
H19_3 O16_3 1_555 1_555
O17_2 C43_3 1_555 1_555
O18_3 Eu10_2 1_555 1_555
H20_3 O18_3 1_555 1_555
H21_3 O18_3 1_555 1_555
O19_2 C43_3 1_555 1_555
O20_2 C44_3 1_555 1_555
O21_2 C44_3 1_555 1_555
O22_3 C45_3 1_555 1_555
O23_3 C45_3 1_555 1_555
C24_3 C25_3 1_555 1_555
C25_3 H22_3 1_555 1_555
C26_3 C25_3 1_555 1_555
H23_3 C26_3 1_555 1_555
C27_3 C26_3 1_555 1_555
C28_3 C27_3 1_555 1_555
C29_3 C24_3 1_555 1_555
H24_3 C29_3 1_555 1_555
C30_3 C27_3 1_555 1_555
C31_3 C30_3 1_555 1_555
H25_3 C31_3 1_555 1_555
C32_3 C31_3 1_555 1_555
H26_3 C32_3 1_555 1_555
C33_3 C32_3 1_555 1_555
H27_3 C33_3 1_555 1_555
C34_3 C33_3 1_555 1_555
C35_3 C30_3 1_555 1_555
H28_3 C35_3 1_555 1_555
C36_3 C34_3 1_555 1_555
C37_3 C36_3 1_555 1_555
H29_3 C37_3 1_555 1_555
C38_3 C37_3 1_555 1_555
H30_3 C38_3 1_555 1_555
C39_3 C38_3 1_555 1_555
C40_3 C39_3 1_555 1_555
H31_3 C40_3 1_555 1_555
C41_3 C36_3 1_555 1_555
C42_3 O15_3 1_555 1_555
C43_3 C28_3 1_555 1_555
C44_3 C41_3 1_555 1_555
C45_3 C39_3 1_555 1_555
Eu4_3 O14_2 1_555 1_555
Eu6_3 O19_2 1_555 1_555
Eu8_2 O17_2 1_555 1_555
Eu9_3 O22_3 1_555 1_555
O28_2 Eu4 1_555 1_555
O31_2 Eu4 1_555 1_555
O20_2 Eu6_3 1_555 1_555
O20_2 Eu8_2 1_555 1_555
O21_2 Eu6_3 1_555 1_555
O23_3 Eu9_3 1_555 1_555
C24_3 C42_3 1_555 1_555
C28_3 C29_3 1_555 1_555
C34_3 C35_3 1_555 1_555
C40_3 C41_3 1_555 1_555
Eu4_2 O1_3 1_555 1_555
Eu9_2 O3_3 1_555 1_555
O1_3 C19_3 1_555 1_555
O2_6 Eu4_2 1_555 1_555
O3_3 C19_3 1_555 1_555
O4_3 Eu9_2 1_555 1_555
H2_3 O4_3 1_555 1_555
H3_3 O4_3 1_555 1_555
O5_2 C20_3 1_555 1_555
O6_3 Eu9_2 1_555 1_555
H4_3 O6_3 1_555 1_555
H5_3 O6_3 1_555 1_555
O7_2 C20_3 1_555 1_555
O8_2 C21_3 1_555 1_555
O9_2 C21_3 1_555 1_555
O10_3 C22_3 1_555 1_555
O11_3 C22_3 1_555 1_555
C1_3 C2_3 1_555 1_555
C2_3 H6_3 1_555 1_555
C3_3 C2_3 1_555 1_555
H7_3 C3_3 1_555 1_555
C4_3 C3_3 1_555 1_555
C5_3 C4_3 1_555 1_555
C6_3 C1_3 1_555 1_555
H8_3 C6_3 1_555 1_555
C7_3 C4_3 1_555 1_555
C8_3 C7_3 1_555 1_555
H9_3 C8_3 1_555 1_555
C9_3 C8_3 1_555 1_555
H10_3 C9_3 1_555 1_555
C10_3 C9_3 1_555 1_555
H11_3 C10_3 1_555 1_555
C11_3 C10_3 1_555 1_555
C12_3 C7_3 1_555 1_555
H12_3 C12_3 1_555 1_555
C13_3 C11_3 1_555 1_555
C14_3 C13_3 1_555 1_555
H13_3 C14_3 1_555 1_555
C15_3 C14_3 1_555 1_555
H14_3 C15_3 1_555 1_555
C16_3 C15_3 1_555 1_555
C17_3 C16_3 1_555 1_555
H15_3 C17_3 1_555 1_555
C18_3 C13_3 1_555 1_555
C19_3 C1_3 1_555 1_555
C20_3 C5_3 1_555 1_555
C21_3 C18_3 1_555 1_555
C22_3 C16_3 1_555 1_555
H16_10 C23_10 1_555 1_555
H17_3 O2_6 1_555 1_555
O13_3 C23_10 1_555 1_555
Eu6_3 O7_2 1_555 1_555
Eu7_2 O5_2 1_555 1_555
Eu10_3 O10_3 1_555 1_555
O32_2 Eu4_2 1_555 1_555
O8_2 Eu6_3 1_555 1_555
O8_2 Eu7_2 1_555 1_555
O9_2 Eu6_3 1_555 1_555
O11_3 Eu10_3 1_555 1_555
C5_3 C6_3 1_555 1_555
C11_3 C12_3 1_555 1_555
C17_3 C18_3 1_555 1_555
Eu4_4 O29 1_555 1_555
O2_7 Eu4_3 1_555 1_555
H1_3 O2_7 1_555 1_555
O33_2 Eu4_3 1_555 1_555
O2_8 Eu4_4 1_555 1_555
O27_2 Eu4_4 1_555 1_555
H10_4 C9_4 1_555 1_555
C10_4 C9_4 1_555 1_555
H11_4 C10_4 1_555 1_555
H16_11 C23_11 1_555 1_555
O13_4 C23_11 1_555 1_555
Eu8_2 O13_4 1_555 1_555
O14_3 C42_4 1_555 1_555
O15_4 Eu8_2 1_555 1_555
O16_4 Eu8_2 1_555 1_555
H18_4 O16_4 1_555 1_555
H19_4 O16_4 1_555 1_555
O26_2 C43_4 1_555 1_555
O18_4 Eu8_2 1_555 1_555
H20_4 O18_4 1_555 1_555
H21_4 O18_4 1_555 1_555
O28_2 C43_4 1_555 1_555
O31_2 C44_4 1_555 1_555
O35 C45_4 1_555 1_555
O37 C45_4 1_555 1_555
C24_4 C25_4 1_555 1_555
C25_4 H22_4 1_555 1_555
C26_4 C25_4 1_555 1_555
H23_4 C26_4 1_555 1_555
C27_4 C26_4 1_555 1_555
C28_4 C27_4 1_555 1_555
C29_4 C24_4 1_555 1_555
H24_4 C29_4 1_555 1_555
C30_4 C27_4 1_555 1_555
C31_4 C30_4 1_555 1_555
H25_4 C31_4 1_555 1_555
C35_4 C30_4 1_555 1_555
H28_4 C35_4 1_555 1_555
C36_4 C34_4 1_555 1_555
C37_4 C36_4 1_555 1_555
H29_4 C37_4 1_555 1_555
C38_4 C37_4 1_555 1_555
H30_4 C38_4 1_555 1_555
C39_4 C38_4 1_555 1_555
C40_4 C39_4 1_555 1_555
H31_4 C40_4 1_555 1_555
C41_4 C36_4 1_555 1_555
C42_4 O15_4 1_555 1_555
C43_4 C28_4 1_555 1_555
C44_4 C41_4 1_555 1_555
C45_4 C39_4 1_555 1_555
Eu6_3 O14_3 1_555 1_555
O34_3 Eu8_2 1_555 1_555
O36_3 Eu8_2 1_555 1_555
C24_4 C42_4 1_555 1_555
C28_4 C29_4 1_555 1_555
C34_4 C35_4 1_555 1_555
C40_4 C41_4 1_555 1_555
Eu6_3 O1_4 1_555 1_555
Eu7_2 O3_4 1_555 1_555
O1_4 C19_4 1_555 1_555
O2_9 Eu6_3 1_555 1_555
H1_4 O2_9 1_555 1_555
O3_4 C19_4 1_555 1_555
O4_4 Eu7_2 1_555 1_555
H2_4 O4_4 1_555 1_555
H3_4 O4_4 1_555 1_555
O25_2 C20_4 1_555 1_555
O6_4 Eu7_2 1_555 1_555
H4_4 O6_4 1_555 1_555
H5_4 O6_4 1_555 1_555
O27_2 C20_4 1_555 1_555
O29 C21_4 1_555 1_555
O34 C22_4 1_555 1_555
O36 C22_4 1_555 1_555
O12_4 Eu7_2 1_555 1_555
C1_4 C2_4 1_555 1_555
C2_4 H6_4 1_555 1_555
C3_4 C2_4 1_555 1_555
H7_4 C3_4 1_555 1_555
C4_4 C3_4 1_555 1_555
C5_4 C4_4 1_555 1_555
C6_4 C1_4 1_555 1_555
H8_4 C6_4 1_555 1_555
C7_4 C4_4 1_555 1_555
C8_4 C7_4 1_555 1_555
H9_4 C8_4 1_555 1_555
C12_4 C7_4 1_555 1_555
H12_4 C12_4 1_555 1_555
C13_4 C11_4 1_555 1_555
C14_4 C13_4 1_555 1_555
H13_4 C14_4 1_555 1_555
C15_4 C14_4 1_555 1_555
H14_4 C15_4 1_555 1_555
C16_4 C15_4 1_555 1_555
C17_4 C16_4 1_555 1_555
H15_4 C17_4 1_555 1_555
C18_4 C13_4 1_555 1_555
C19_4 C1_4 1_555 1_555
C20_4 C5_4 1_555 1_555
C21_4 C18_4 1_555 1_555
C22_4 C16_4 1_555 1_555
C23_12 O12_4 1_555 1_555
H16_12 C23_12 1_555 1_555
H17_4 O2_9 1_555 1_555
O35_3 Eu7_2 1_555 1_555
O37_3 Eu7_2 1_555 1_555
C5_4 C6_4 1_555 1_555
C11_4 C12_4 1_555 1_555
C17_4 C18_4 1_555 1_555
H26_4 C32_4 1_555 1_555
C33_4 C32_4 1_555 1_555
H27_4 C33_4 1_555 1_555
O2_10 Eu1_3 1_555 1_555
O24_2 Eu1_3 1_555 1_555
O27_3 Eu1_3 1_555 1_555
O30_2 Eu1_3 1_555 1_555
O33_3 Eu1_3 1_555 1_555
H26_5 C32_5 1_555 1_555
C33_5 C32_5 1_555 1_555
H27_5 C33_5 1_555 1_555
O21_3 Eu6_4 1_555 1_555
O5_3 C20_5 1_555 1_555
O7_3 C20_5 1_555 1_555
O8_3 C21_5 1_555 1_555
O34_3 C22_5 1_555 1_555
O36_3 C22_5 1_555 1_555
H7_5 C3_5 1_555 1_555
C4_5 C3_5 1_555 1_555
C5_5 C4_5 1_555 1_555
H8_5 C6_5 1_555 1_555
C7_5 C4_5 1_555 1_555
C8_5 C7_5 1_555 1_555
H9_5 C8_5 1_555 1_555
C12_5 C7_5 1_555 1_555
H12_5 C12_5 1_555 1_555
C13_5 C11_5 1_555 1_555
C14_5 C13_5 1_555 1_555
H13_5 C14_5 1_555 1_555
C15_5 C14_5 1_555 1_555
H14_5 C15_5 1_555 1_555
C16_5 C15_5 1_555 1_555
C17_5 C16_5 1_555 1_555
H15_5 C17_5 1_555 1_555
C18_5 C13_5 1_555 1_555
C20_5 C5_5 1_555 1_555
C21_5 C18_5 1_555 1_555
C22_5 C16_5 1_555 1_555
O17_3 C43_5 1_555 1_555
O19_3 C43_5 1_555 1_555
O20_3 C44_5 1_555 1_555
O35_3 C45_5 1_555 1_555
O37_3 C45_5 1_555 1_555
H23_5 C26_5 1_555 1_555
C27_5 C26_5 1_555 1_555
C28_5 C27_5 1_555 1_555
H24_5 C29_5 1_555 1_555
C30_5 C27_5 1_555 1_555
C31_5 C30_5 1_555 1_555
H25_5 C31_5 1_555 1_555
C35_5 C30_5 1_555 1_555
H28_5 C35_5 1_555 1_555
C36_5 C34_5 1_555 1_555
C37_5 C36_5 1_555 1_555
H29_5 C37_5 1_555 1_555
C38_5 C37_5 1_555 1_555
H30_5 C38_5 1_555 1_555
C39_5 C38_5 1_555 1_555
C40_5 C39_5 1_555 1_555
H31_5 C40_5 1_555 1_555
C41_5 C36_5 1_555 1_555
C43_5 C28_5 1_555 1_555
C44_5 C41_5 1_555 1_555
C45_5 C39_5 1_555 1_555
Eu6_4 O7_3 1_555 1_555
Eu6_5 O19_3 1_555 1_555
Eu9_3 O5_3 1_555 1_555
Eu10_3 O17_3 1_555 1_555
O8_3 Eu6_4 1_555 1_555
O8_3 Eu9_3 1_555 1_555
C5_5 C6_5 1_555 1_555
C11_5 C12_5 1_555 1_555
C17_5 C18_5 1_555 1_555
O20_3 Eu6_5 1_555 1_555
O20_3 Eu10_3 1_555 1_555
C28_5 C29_5 1_555 1_555
C34_5 C35_5 1_555 1_555
C40_5 C41_5 1_555 1_555
Eu1_4 O1_5 1_555 1_555
Eu2_2 O3_5 1_555 1_555
O1_5 C19_5 1_555 1_555
O2_11 Eu1_4 1_555 1_555
O3_5 C19_5 1_555 1_555
O4_5 Eu2_2 1_555 1_555
H2_5 O4_5 1_555 1_555
H3_5 O4_5 1_555 1_555
O6_5 Eu2_2 1_555 1_555
H4_5 O6_5 1_555 1_555
H5_5 O6_5 1_555 1_555
O12_5 Eu2_2 1_555 1_555
C1_5 C2_5 1_555 1_555
C2_5 H6_5 1_555 1_555
C19_5 C1_5 1_555 1_555
C23_13 O12_5 1_555 1_555
H16_13 C23_13 1_555 1_555
O13_5 C23_13 1_555 1_555
Eu3_2 O13_5 1_555 1_555
O24_2 C42_5 1_555 1_555
O15_5 Eu3_2 1_555 1_555
O16_5 Eu3_2 1_555 1_555
H18_5 O16_5 1_555 1_555
H19_5 O16_5 1_555 1_555
O18_5 Eu3_2 1_555 1_555
H20_5 O18_5 1_555 1_555
H21_5 O18_5 1_555 1_555
C24_5 C25_5 1_555 1_555
C25_5 H22_5 1_555 1_555
C42_5 O15_5 1_555 1_555
O25_3 Eu3_2 1_555 1_555
O26_3 Eu2_2 1_555 1_555
O28_3 Eu1_4 1_555 1_555
O30_2 Eu3_2 1_555 1_555
O31_3 Eu1_4 1_555 1_555
O32_3 Eu1_4 1_555 1_555
O34_4 Eu3_2 1_555 1_555
O35_4 Eu2_2 1_555 1_555
O36_4 Eu3_2 1_555 1_555
O37_4 Eu2_2 1_555 1_555
Eu2_2 O31_3 1_555 1_555
C24_5 C42_5 1_555 1_555
H10_5 C9_5 1_555 1_555
C10_5 C9_5 1_555 1_555
H11_5 C10_5 1_555 1_555
O9_3 Eu6_5 1_555 1_555
H26_6 C32_6 1_555 1_555
C33_6 C32_6 1_555 1_555
H27_6 C33_6 1_555 1_555
Eu6_4 O1_6 1_555 1_555
Eu9_3 O3_6 1_555 1_555
O1_6 C19_6 1_555 1_555
O2_12 Eu6_4 1_555 1_555
O3_6 C19_6 1_555 1_555
O4_6 Eu9_3 1_555 1_555
H2_6 O4_6 1_555 1_555
H3_6 O4_6 1_555 1_555
O6_6 Eu9_3 1_555 1_555
H4_6 O6_6 1_555 1_555
H5_6 O6_6 1_555 1_555
O12_6 Eu9_3 1_555 1_555
C1_6 C2_6 1_555 1_555
C2_6 H6_6 1_555 1_555
C19_6 C1_6 1_555 1_555
C23_14 O12_6 1_555 1_555
H16_14 C23_14 1_555 1_555
O13_6 C23_14 1_555 1_555
Eu10_3 O13_6 1_555 1_555
O14_4 C42_6 1_555 1_555
O15_6 Eu10_3 1_555 1_555
O16_6 Eu10_3 1_555 1_555
H18_6 O16_6 1_555 1_555
H19_6 O16_6 1_555 1_555
O18_6 Eu10_3 1_555 1_555
H20_6 O18_6 1_555 1_555
H21_6 O18_6 1_555 1_555
C24_6 C25_6 1_555 1_555
C25_6 H22_6 1_555 1_555
C42_6 O15_6 1_555 1_555
Eu6_5 O14_4 1_555 1_555
C24_6 C42_6 1_555 1_555
O25_3 C20_6 1_555 1_555
O27_3 C20_6 1_555 1_555
O30_2 C21_6 1_555 1_555
O10_4 C22_6 1_555 1_555
O11_4 C22_6 1_555 1_555
H7_6 C3_6 1_555 1_555
C4_6 C3_6 1_555 1_555
C5_6 C4_6 1_555 1_555
H8_6 C6_6 1_555 1_555
C7_6 C4_6 1_555 1_555
C8_6 C7_6 1_555 1_555
H9_6 C8_6 1_555 1_555
C12_6 C7_6 1_555 1_555
H12_6 C12_6 1_555 1_555
C13_6 C11_6 1_555 1_555
C14_6 C13_6 1_555 1_555
H13_6 C14_6 1_555 1_555
C15_6 C14_6 1_555 1_555
H14_6 C15_6 1_555 1_555
C16_6 C15_6 1_555 1_555
C17_6 C16_6 1_555 1_555
H15_6 C17_6 1_555 1_555
C18_6 C13_6 1_555 1_555
C20_6 C5_6 1_555 1_555
C21_6 C18_6 1_555 1_555
C22_6 C16_6 1_555 1_555
O26_3 C43_6 1_555 1_555
O28_3 C43_6 1_555 1_555
O31_3 C44_6 1_555 1_555
O22_4 C45_6 1_555 1_555
O23_4 C45_6 1_555 1_555
H23_6 C26_6 1_555 1_555
C27_6 C26_6 1_555 1_555
C28_6 C27_6 1_555 1_555
H24_6 C29_6 1_555 1_555
C30_6 C27_6 1_555 1_555
C31_6 C30_6 1_555 1_555
H25_6 C31_6 1_555 1_555
C35_6 C30_6 1_555 1_555
H28_6 C35_6 1_555 1_555
C36_6 C34_6 1_555 1_555
C37_6 C36_6 1_555 1_555
H29_6 C37_6 1_555 1_555
C38_6 C37_6 1_555 1_555
H30_6 C38_6 1_555 1_555
C39_6 C38_6 1_555 1_555
C40_6 C39_6 1_555 1_555
H31_6 C40_6 1_555 1_555
C41_6 C36_6 1_555 1_555
C43_6 C28_6 1_555 1_555
C44_6 C41_6 1_555 1_555
C45_6 C39_6 1_555 1_555
Eu9_4 O22_4 1_555 1_555
Eu10_4 O10_4 1_555 1_555
O11_4 Eu10_4 1_555 1_555
C5_6 C6_6 1_555 1_555
C11_6 C12_6 1_555 1_555
C17_6 C18_6 1_555 1_555
O23_4 Eu9_4 1_555 1_555
C28_6 C29_6 1_555 1_555
C34_6 C35_6 1_555 1_555
C40_6 C41_6 1_555 1_555
O2_13 Eu6_5 1_555 1_555
H10_6 C9_6 1_555 1_555
C10_6 C9_6 1_555 1_555
H11_6 C10_6 1_555 1_555
H26_7 C32_7 1_555 1_555
C33_7 C32_7 1_555 1_555
H27_7 C33_7 1_555 1_555
O21_4 Eu6_6 1_555 1_555
H16_15 C23_15 1_555 1_555
O13_7 C23_15 1_555 1_555
Eu10_4 O13_7 1_555 1_555
O14_5 C42_7 1_555 1_555
O15_7 Eu10_4 1_555 1_555
O16_7 Eu10_4 1_555 1_555
H18_7 O16_7 1_555 1_555
H19_7 O16_7 1_555 1_555
O17_4 C43_7 1_555 1_555
O18_7 Eu10_4 1_555 1_555
H20_7 O18_7 1_555 1_555
H21_7 O18_7 1_555 1_555
O19_4 C43_7 1_555 1_555
O20_4 C44_7 1_555 1_555
O35_2 C45_7 1_555 1_555
O37_2 C45_7 1_555 1_555
C24_7 C25_7 1_555 1_555
C25_7 H22_7 1_555 1_555
C26_7 C25_7 1_555 1_555
H23_7 C26_7 1_555 1_555
C27_7 C26_7 1_555 1_555
C28_7 C27_7 1_555 1_555
C29_7 C24_7 1_555 1_555
H24_7 C29_7 1_555 1_555
C30_7 C27_7 1_555 1_555
C31_7 C30_7 1_555 1_555
H25_7 C31_7 1_555 1_555
C35_7 C30_7 1_555 1_555
H28_7 C35_7 1_555 1_555
C36_7 C34_7 1_555 1_555
C37_7 C36_7 1_555 1_555
H29_7 C37_7 1_555 1_555
C38_7 C37_7 1_555 1_555
H30_7 C38_7 1_555 1_555
C39_7 C38_7 1_555 1_555
C40_7 C39_7 1_555 1_555
H31_7 C40_7 1_555 1_555
C41_7 C36_7 1_555 1_555
C42_7 O15_7 1_555 1_555
C43_7 C28_7 1_555 1_555
C44_7 C41_7 1_555 1_555
C45_7 C39_7 1_555 1_555
Eu4_5 O14_5 1_555 1_555
Eu6_7 O19_4 1_555 1_555
O25_4 Eu10_4 1_555 1_555
O29_2 Eu10_4 1_555 1_555
O20_4 Eu6_7 1_555 1_555
C24_7 C42_7 1_555 1_555
C28_7 C29_7 1_555 1_555
C34_7 C35_7 1_555 1_555
C40_7 C41_7 1_555 1_555
Eu4_5 O29_2 1_555 1_555
Eu4_5 O1_7 1_555 1_555
Eu9_4 O3_7 1_555 1_555
O1_7 C19_7 1_555 1_555
O2_14 Eu4_5 1_555 1_555
H1_7 O2_14 1_555 1_555
O3_7 C19_7 1_555 1_555
O4_7 Eu9_4 1_555 1_555
H2_7 O4_7 1_555 1_555
H3_7 O4_7 1_555 1_555
O5_4 C20_7 1_555 1_555
O6_7 Eu9_4 1_555 1_555
H4_7 O6_7 1_555 1_555
H5_7 O6_7 1_555 1_555
O7_4 C20_7 1_555 1_555
O8_4 C21_7 1_555 1_555
O34_2 C22_7 1_555 1_555
O36_2 C22_7 1_555 1_555
O12_7 Eu9_4 1_555 1_555
C1_7 C2_7 1_555 1_555
C2_7 H6_7 1_555 1_555
C3_7 C2_7 1_555 1_555
H7_7 C3_7 1_555 1_555
C4_7 C3_7 1_555 1_555
C5_7 C4_7 1_555 1_555
C6_7 C1_7 1_555 1_555
H8_7 C6_7 1_555 1_555
C7_7 C4_7 1_555 1_555
C8_7 C7_7 1_555 1_555
H9_7 C8_7 1_555 1_555
C12_7 C7_7 1_555 1_555
H12_7 C12_7 1_555 1_555
C13_7 C11_7 1_555 1_555
C14_7 C13_7 1_555 1_555
H13_7 C14_7 1_555 1_555
C15_7 C14_7 1_555 1_555
H14_7 C15_7 1_555 1_555
C16_7 C15_7 1_555 1_555
C17_7 C16_7 1_555 1_555
H15_7 C17_7 1_555 1_555
C18_7 C13_7 1_555 1_555
C19_7 C1_7 1_555 1_555
C20_7 C5_7 1_555 1_555
C21_7 C18_7 1_555 1_555
C22_7 C16_7 1_555 1_555
C23_16 O12_7 1_555 1_555
H16_16 C23_16 1_555 1_555
H17_7 O2_14 1_555 1_555
Eu6_8 O7_4 1_555 1_555
O26_4 Eu9_4 1_555 1_555
O27_4 Eu4_5 1_555 1_555
O28_4 Eu4_5 1_555 1_555
O31_4 Eu4_5 1_555 1_555
O32_4 Eu4_5 1_555 1_555
O33_4 Eu4_5 1_555 1_555
Eu9_4 O31_4 1_555 1_555
O8_4 Eu6_8 1_555 1_555
C5_7 C6_7 1_555 1_555
C11_7 C12_7 1_555 1_555
C17_7 C18_7 1_555 1_555
H10_7 C9_7 1_555 1_555
C10_7 C9_7 1_555 1_555
H11_7 C10_7 1_555 1_555
O9_4 Eu6_9 1_555 1_555
Eu6_6 O1_8 1_555 1_555
Eu9 O3_8 1_555 1_555
O1_8 C19_8 1_555 1_555
O2_15 Eu6_6 1_555 1_555
O3_8 C19_8 1_555 1_555
O4_8 Eu9 1_555 1_555
H2_8 O4_8 1_555 1_555
H3_8 O4_8 1_555 1_555
O25_4 C20_8 1_555 1_555
O6_8 Eu9 1_555 1_555
H4_8 O6_8 1_555 1_555
H5_8 O6_8 1_555 1_555
O27_4 C20_8 1_555 1_555
O29_2 C21_8 1_555 1_555
O32_4 C21_8 1_555 1_555
O34_4 C22_8 1_555 1_555
O36_4 C22_8 1_555 1_555
C1_8 C2_8 1_555 1_555
C2_8 H6_8 1_555 1_555
C3_8 C2_8 1_555 1_555
H7_8 C3_8 1_555 1_555
C4_8 C3_8 1_555 1_555
C5_8 C4_8 1_555 1_555
C6_8 C1_8 1_555 1_555
H8_8 C6_8 1_555 1_555
C7_8 C4_8 1_555 1_555
C8_8 C7_8 1_555 1_555
H9_8 C8_8 1_555 1_555
C9_8 C8_8 1_555 1_555
H10_8 C9_8 1_555 1_555
C10_8 C9_8 1_555 1_555
H11_8 C10_8 1_555 1_555
C11_8 C10_8 1_555 1_555
C12_8 C7_8 1_555 1_555
H12_8 C12_8 1_555 1_555
C13_8 C11_8 1_555 1_555
C14_8 C13_8 1_555 1_555
H13_8 C14_8 1_555 1_555
C15_8 C14_8 1_555 1_555
H14_8 C15_8 1_555 1_555
C16_8 C15_8 1_555 1_555
C17_8 C16_8 1_555 1_555
H15_8 C17_8 1_555 1_555
C18_8 C13_8 1_555 1_555
C19_8 C1_8 1_555 1_555
C20_8 C5_8 1_555 1_555
C21_8 C18_8 1_555 1_555
C22_8 C16_8 1_555 1_555
H16_17 C23_17 1_555 1_555
H17_8 O2_15 1_555 1_555
O13_8 C23_17 1_555 1_555
C5_8 C6_8 1_555 1_555
C11_8 C12_8 1_555 1_555
C17_8 C18_8 1_555 1_555
O2_16 Eu6_7 1_555 1_555
O2_17 Eu6_8 1_555 1_555
C23_18 O12_8 1_555 1_555
H16_18 C23_18 1_555 1_555
O14_6 C42_8 1_555 1_555
O15_8 Eu10 1_555 1_555
O16_8 Eu10 1_555 1_555
H18_8 O16_8 1_555 1_555
H19_8 O16_8 1_555 1_555
O26_4 C43_8 1_555 1_555
O18_8 Eu10 1_555 1_555
H20_8 O18_8 1_555 1_555
H21_8 O18_8 1_555 1_555
O28_4 C43_8 1_555 1_555
O31_4 C44_8 1_555 1_555
O33_4 C44_8 1_555 1_555
O35_4 C45_8 1_555 1_555
O37_4 C45_8 1_555 1_555
C24_8 C25_8 1_555 1_555
C25_8 H22_8 1_555 1_555
C26_8 C25_8 1_555 1_555
H23_8 C26_8 1_555 1_555
C27_8 C26_8 1_555 1_555
C28_8 C27_8 1_555 1_555
C29_8 C24_8 1_555 1_555
H24_8 C29_8 1_555 1_555
C30_8 C27_8 1_555 1_555
C31_8 C30_8 1_555 1_555
H25_8 C31_8 1_555 1_555
C32_8 C31_8 1_555 1_555
H26_8 C32_8 1_555 1_555
C33_8 C32_8 1_555 1_555
H27_8 C33_8 1_555 1_555
C34_8 C33_8 1_555 1_555
C35_8 C30_8 1_555 1_555
H28_8 C35_8 1_555 1_555
C36_8 C34_8 1_555 1_555
C37_8 C36_8 1_555 1_555
H29_8 C37_8 1_555 1_555
C38_8 C37_8 1_555 1_555
H30_8 C38_8 1_555 1_555
C39_8 C38_8 1_555 1_555
C40_8 C39_8 1_555 1_555
H31_8 C40_8 1_555 1_555
C41_8 C36_8 1_555 1_555
C42_8 O15_8 1_555 1_555
C43_8 C28_8 1_555 1_555
C44_8 C41_8 1_555 1_555
C45_8 C39_8 1_555 1_555
Eu6_9 O14_6 1_555 1_555
C24_8 C42_8 1_555 1_555
C28_8 C29_8 1_555 1_555
C34_8 C35_8 1_555 1_555
C40_8 C41_8 1_555 1_555
O2_18 Eu6_9 1_555 1_555
H1_8 O2_18 1_555 1_555

#END
