
###############################################################################
#
# This file contains modified crystal structure data generated from the
# MOF subset of the Cambridge Structural Database (CSD) v543 
# hosted by the Cambridge Crystallographic Data Centre (CCDC).
#
# This work is licensed under the Creative Commons
# Attribution-NonCommercial-ShareAlike 4.0 International License.
# To view a copy of this license, visit
# http://creativecommons.org/licenses/by-nc-sa/4.0/
# or send a letter to
# Creative Commons, PO Box 1866, Mountain View, CA 94042, USA.
#
# CIF created using the CSD Python API on 29 September 2022
# The structure has been converted into the P1 space group
# The structure has a 3D framework
# The original CSD entry IZIHAC is in the tetragonal crystal system
# The framework has been calculated to contain at least 10.0% void space
# The void calculation uses a probe of radius 1.32A, grid spacing 0.4
#
###############################################################################

data_IZIHAC
_chemical_formula_moiety         '(C370 H266 O189 Sm34)n'
_symmetry_cell_setting           triclinic
_symmetry_space_group_name_H-M   'P 1'
_symmetry_Int_Tables_number      1
_space_group_name_Hall           'P 1'
loop_
_symmetry_equiv_pos_site_id
_symmetry_equiv_pos_as_xyz
1 x,y,z
_cell_length_a                   14.3090(4)
_cell_length_b                   14.3090(4)
_cell_length_c                   63.900(4)
_cell_angle_alpha                90
_cell_angle_beta                 90
_cell_angle_gamma                90
_cell_volume                     13083.4
loop_
_atom_site_label
_atom_site_type_symbol
_atom_site_fract_x
_atom_site_fract_y
_atom_site_fract_z
Sm1 Sm 0.0000 0.5000 0.45983(2)
O6 O 0.0000 0.5000 0.49778(12)
H5 H 0.0485 0.5000 0.5055
O12 O 0.0051(4) 0.3861(4) 0.43044(7)
C19 C 0.0156(8) 0.1495(7) 0.42326(14)
H13 H 0.0557 0.1426 0.4119
C20 C 0.0390(8) 0.1098(8) 0.44238(15)
H14 H 0.0949 0.0775 0.4439
O25 O 0.1289(4) 0.5403(4) 0.42877(8)
O26 O 0.1315(4) 0.4056(5) 0.46561(10)
O28 O 0.0965(4) 0.6260(4) 0.47050(9)
Sm1_2 Sm 1.0000 0.5000 0.45983(2)
Sm2 Sm 0.52019(3) 0.27694(3) 0.56202(2)
O1 O 0.8711(4) 0.4597(4) 0.42877(8)
O2 O 0.6468(5) 0.1882(6) 0.57901(11)
H1 H 0.6990 0.2102 0.5750
H2 H 0.6430 0.1310 0.5755
O3 O 0.6161(6) 0.2818(5) 0.53172(11)
O4 O 0.6538(10) 0.3806(9) 0.57169(17)
H3 H 0.6702 0.3931 0.5842
H4 H 0.6902 0.4082 0.5632
O5 O 0.5944(5) 0.1315(4) 0.53439(10)
O6_2 O 1.0000 0.5000 0.49778(12)
O7 O 0.9035(4) 0.3740(4) 0.47050(9)
O8 O 0.7544(4) 0.4050(5) 0.46395(9)
O9 O 0.8199(6) 0.3692(6) 0.32949(10)
O10 O 0.8210(5) 0.4947(6) 0.34865(8)
O11 O 0.4914(9) 0.4266(5) 0.54916(16)
C1 C 0.6333(7) 0.2008(7) 0.52549(14)
C2 C 0.7010(7) 0.1875(7) 0.50788(12)
C3 C 0.7258(6) 0.2661(6) 0.49663(12)
H6 H 0.6977 0.3230 0.4998
C4 C 0.7911(6) 0.2626(6) 0.48075(12)
C5 C 0.8186(6) 0.3547(6) 0.47056(12)
C6 C 0.8293(7) 0.1766(6) 0.47542(12)
C7 C 0.8023(7) 0.0977(7) 0.48654(14)
H7 H 0.8278 0.0399 0.4831
C8 C 0.7371(7) 0.1039(6) 0.50294(13)
H8 H 0.7192 0.0507 0.5103
C9 C 0.8945(6) 0.1668(6) 0.45726(13)
C10 C 0.8732(6) 0.2079(6) 0.43752(13)
H9 H 0.8178 0.2410 0.4358
C11 C 0.9339(7) 0.1991(6) 0.42086(12)
C12 C 0.9139(7) 0.2514(6) 0.40144(12)
C13 C 0.9062(6) 0.3472(6) 0.40210(12)
C14 C 0.8811(6) 0.3979(7) 0.38434(12)
H10 H 0.8750 0.4625 0.3852
C15 C 0.8651(7) 0.3532(7) 0.36565(13)
C16 C 0.8352(7) 0.4105(8) 0.34680(14)
C17 C 0.8729(8) 0.2571(7) 0.36502(14)
H11 H 0.8621 0.2259 0.3525
C18 C 0.8956(8) 0.2076(8) 0.38212(14)
H12 H 0.8992 0.1428 0.3812
C21 C 0.9790(8) 0.1186(7) 0.45905(15)
H15 H 0.9950 0.0919 0.4718
C22 C 0.9295(6) 0.4012(5) 0.42185(11)
C23 C 0.5000 0.5000 0.5581(3)
H16 H 0.5000 0.5000 0.5727
H17 H 0.9515 0.5000 0.5055
O13 O 0.5086(9) 0.5734(5) 0.54916(16)
Sm3 Sm 0.27694(3) 0.47981(3) 0.43798(2)
O14 O 0.4597(4) 0.1289(4) 0.57123(8)
O15 O 0.1882(6) 0.3532(5) 0.42099(11)
H18 H 0.2102 0.3010 0.4250
H19 H 0.1310 0.3570 0.4245
O16 O 0.2818(5) 0.3839(6) 0.46828(11)
O17 O 0.3806(9) 0.3462(10) 0.42831(17)
H20 H 0.3931 0.3298 0.4158
H21 H 0.4082 0.3098 0.4368
O19 O 0.3740(4) 0.0965(4) 0.52950(9)
O20 O 0.4050(5) 0.2456(4) 0.53605(9)
O21 O 0.3692(6) 0.1801(6) 0.67051(10)
O22 O 0.4947(6) 0.1790(5) 0.65135(8)
C24 C 0.2008(7) 0.3667(7) 0.47451(14)
C25 C 0.1875(7) 0.2990(7) 0.49212(12)
C26 C 0.2661(6) 0.2742(6) 0.50337(12)
H22 H 0.3230 0.3023 0.5002
C27 C 0.2626(6) 0.2089(6) 0.51925(12)
C28 C 0.3547(6) 0.1814(6) 0.52944(12)
C29 C 0.1766(6) 0.1707(7) 0.52458(12)
C30 C 0.0977(7) 0.1977(7) 0.51346(14)
H23 H 0.0399 0.1722 0.5169
C31 C 0.1039(6) 0.2629(7) 0.49706(13)
H24 H 0.0507 0.2808 0.4897
C32 C 0.1668(6) 0.1055(6) 0.54274(13)
C33 C 0.2079(6) 0.1268(6) 0.56248(13)
H25 H 0.2410 0.1822 0.5642
C34 C 0.1991(6) 0.0661(7) 0.57914(12)
C35 C 0.2514(6) 0.0861(7) 0.59856(12)
C36 C 0.3472(6) 0.0938(6) 0.59790(12)
C37 C 0.3979(7) 0.1189(6) 0.61566(12)
H26 H 0.4625 0.1250 0.6148
C38 C 0.3532(7) 0.1349(7) 0.63435(13)
C39 C 0.4105(8) 0.1648(7) 0.65320(14)
C40 C 0.2571(7) 0.1271(8) 0.63498(14)
H27 H 0.2259 0.1379 0.6475
C41 C 0.2076(8) 0.1044(8) 0.61788(14)
H28 H 0.1428 0.1008 0.6188
C44 C 0.1186(7) 0.0210(8) 0.54095(15)
H31 H 0.0919 0.0050 0.5282
C45 C 0.4012(5) 0.0705(6) 0.57815(11)
Sm5 Sm 0.5000 0.0000 0.54017(2)
Sm6 Sm 0.47981(3) 0.72306(3) 0.56202(2)
Sm7 Sm 0.72306(3) 0.52019(3) 0.43798(2)
Sm8 Sm 0.52019(3) 0.22306(3) 0.68798(2)
Sm9 Sm 0.77694(3) 0.52019(3) 0.31202(2)
O27 O 0.8685(4) 0.5944(5) 0.46561(10)
O29 O 0.2456(4) 0.5950(5) 0.46395(9)
O30 O 0.3199(6) 0.6308(6) 0.42051(10)
O31 O 0.3692(6) 0.3199(6) 0.57949(10)
O32 O 0.3210(5) 0.5053(6) 0.40135(8)
O33 O 0.4947(6) 0.3210(5) 0.59865(8)
O34 O 0.4266(5) 0.5086(9) 0.45084(16)
O35 O 0.9949(4) 0.6139(4) 0.43044(7)
O23 O 0.3861(4) 0.9949(4) 0.56956(7)
C42 C 0.1495(7) 0.9844(8) 0.57674(14)
H29 H 0.1426 0.9443 0.5881
C43 C 0.1098(8) 0.9610(8) 0.55762(15)
H30 H 0.0775 0.9051 0.5561
Sm5_2 Sm 0.5000 1.0000 0.54017(2)
O6_3 O 0.5000 -0.0000 0.50222(12)
C23_2 C 0.5000 0.5000 0.4419(3)
H16_2 H 0.5000 0.5000 0.4273
H17_2 H 0.5000 0.0485 0.4945
O13_2 O 0.5734(5) 0.4914(9) 0.45084(16)
O15_2 O 0.3532(5) 0.8118(6) 0.57901(11)
H18_2 H 0.3010 0.7898 0.5750
H19_2 H 0.3570 0.8690 0.5755
O16_2 O 0.3839(6) 0.7182(5) 0.53172(11)
O17_2 O 0.3462(10) 0.6194(9) 0.57169(17)
H20_2 H 0.3298 0.6069 0.5842
H21_2 H 0.3098 0.5918 0.5632
O18 O 0.4056(5) 0.8685(4) 0.53439(10)
O21_2 O 0.1801(6) 0.6308(6) 0.32949(10)
O22_2 O 0.1790(5) 0.5053(6) 0.34865(8)
C24_2 C 0.3667(7) 0.7992(7) 0.52549(14)
C25_2 C 0.2990(7) 0.8125(7) 0.50788(12)
C26_2 C 0.2742(6) 0.7339(6) 0.49663(12)
H22_2 H 0.3023 0.6770 0.4998
C27_2 C 0.2089(6) 0.7374(6) 0.48075(12)
C28_2 C 0.1814(6) 0.6453(6) 0.47056(12)
C29_2 C 0.1707(7) 0.8234(6) 0.47542(12)
C30_2 C 0.1977(7) 0.9023(7) 0.48654(14)
H23_2 H 0.1722 0.9601 0.4831
C31_2 C 0.2629(7) 0.8961(6) 0.50294(13)
H24_2 H 0.2808 0.9493 0.5103
C32_2 C 0.1055(6) 0.8332(6) 0.45726(13)
C33_2 C 0.1268(6) 0.7921(6) 0.43752(13)
H25_2 H 0.1822 0.7590 0.4358
C34_2 C 0.0661(7) 0.8009(6) 0.42086(12)
C35_2 C 0.0861(7) 0.7486(6) 0.40144(12)
C36_2 C 0.0938(6) 0.6528(6) 0.40210(12)
C37_2 C 0.1189(6) 0.6021(7) 0.38434(12)
H26_2 H 0.1250 0.5375 0.3852
C38_2 C 0.1349(7) 0.6468(7) 0.36565(13)
C39_2 C 0.1648(7) 0.5895(8) 0.34680(14)
C40_2 C 0.1271(8) 0.7429(7) 0.36502(14)
H27_2 H 0.1379 0.7741 0.3525
C41_2 C 0.1044(8) 0.7924(8) 0.38212(14)
H28_2 H 0.1008 0.8572 0.3812
C44_2 C 0.0210(8) 0.8814(7) 0.45905(15)
H31_2 H 0.0050 0.9081 0.4718
C45_2 C 0.0705(6) 0.5988(5) 0.42185(11)
Sm8_2 Sm 0.22306(3) 0.47981(3) 0.31202(2)
O24 O 0.5403(4) 0.8711(4) 0.57123(8)
O29_2 O 0.5950(5) 0.7544(4) 0.53605(9)
O30_2 O 0.6308(6) 0.6801(6) 0.57949(10)
O32_2 O 0.5053(6) 0.6790(5) 0.59865(8)
O35_2 O 0.6139(4) 0.0051(4) 0.56956(7)
O6_4 O 0.5000 1.0000 0.50222(12)
H5_2 H 0.5000 0.9515 0.4945
O28_2 O 0.6260(4) 0.9035(4) 0.52950(9)
C42_2 C 0.9844(8) 0.8505(7) 0.42326(14)
H29_2 H 0.9443 0.8574 0.4119
C43_2 C 0.9610(8) 0.8902(8) 0.44238(15)
H30_2 H 0.9051 0.9225 0.4439
C42_3 C 0.8505(7) 0.0156(8) 0.57674(14)
H29_3 H 0.8574 0.0557 0.5881
C43_3 C 0.8902(8) 0.0390(8) 0.55762(15)
H30_3 H 0.9225 0.0949 0.5561
O15_3 O 0.8118(6) 0.6468(5) 0.42099(11)
H18_3 H 0.7898 0.6990 0.4250
H19_3 H 0.8690 0.6430 0.4245
O16_3 O 0.7182(5) 0.6161(6) 0.46828(11)
O17_3 O 0.6194(9) 0.6538(10) 0.42831(17)
H20_3 H 0.6069 0.6702 0.4158
H21_3 H 0.5918 0.6902 0.4368
O21_3 O 0.6308(6) 0.8199(6) 0.67051(10)
O22_3 O 0.5053(6) 0.8210(5) 0.65135(8)
C24_3 C 0.7992(7) 0.6333(7) 0.47451(14)
C25_3 C 0.8125(7) 0.7010(7) 0.49212(12)
C26_3 C 0.7339(6) 0.7258(6) 0.50337(12)
H22_3 H 0.6770 0.6977 0.5002
C27_3 C 0.7374(6) 0.7911(6) 0.51925(12)
C28_3 C 0.6453(6) 0.8186(6) 0.52944(12)
C29_3 C 0.8234(6) 0.8293(7) 0.52458(12)
C30_3 C 0.9023(7) 0.8023(7) 0.51346(14)
H23_3 H 0.9601 0.8278 0.5169
C31_3 C 0.8961(6) 0.7371(7) 0.49706(13)
H24_3 H 0.9493 0.7192 0.4897
C32_3 C 0.8332(6) 0.8945(6) 0.54274(13)
C33_3 C 0.7921(6) 0.8732(6) 0.56248(13)
H25_3 H 0.7590 0.8178 0.5642
C34_3 C 0.8009(6) 0.9339(7) 0.57914(12)
C35_3 C 0.7486(6) 0.9139(7) 0.59856(12)
C36_3 C 0.6528(6) 0.9062(6) 0.59790(12)
C37_3 C 0.6021(7) 0.8811(6) 0.61566(12)
H26_3 H 0.5375 0.8750 0.6148
C38_3 C 0.6468(7) 0.8651(7) 0.63435(13)
C39_3 C 0.5895(8) 0.8352(7) 0.65320(14)
C40_3 C 0.7429(7) 0.8729(8) 0.63498(14)
H27_3 H 0.7741 0.8621 0.6475
C41_3 C 0.7924(8) 0.8956(8) 0.61788(14)
H28_3 H 0.8572 0.8992 0.6188
C44_3 C 0.8814(7) 0.9790(8) 0.54095(15)
H31_3 H 0.9081 0.9950 0.5282
C45_3 C 0.5988(5) 0.9295(6) 0.57815(11)
Sm8_3 Sm 0.47981(3) 0.77694(3) 0.68798(2)
O30_3 O 0.6801(6) 0.3692(6) 0.42051(10)
O32_3 O 0.6790(5) 0.4947(6) 0.40135(8)
Sm1_3 Sm 0.0000 -0.0000 0.79017(2)
O6_5 O 0.0000 -0.0000 0.75222(12)
H5_3 H 0.0485 -0.0000 0.7445
O12_2 O 0.0051(4) 0.1139(4) 0.81956(7)
C19_2 C 0.0156(8) 0.3505(7) 0.82674(14)
H13_2 H 0.0557 0.3574 0.8381
C20_2 C 0.0390(8) 0.3902(8) 0.80762(15)
H14_2 H 0.0949 0.4225 0.8061
O26_2 O 0.1315(4) 0.0944(5) 0.78439(10)
Sm1_4 Sm 0.0000 1.0000 0.79017(2)
O6_6 O 0.0000 1.0000 0.75222(12)
H5_4 H 0.0485 1.0000 0.7445
O25_2 O 0.1289(4) 0.9597(4) 0.82123(8)
O28_3 O 0.0965(4) 0.8740(4) 0.77950(9)
Sm1_5 Sm 1.0000 -0.0000 0.79017(2)
O1_2 O 0.8711(4) 0.0403(4) 0.82123(8)
O2_2 O 0.6468(5) 0.3118(6) 0.67099(11)
H1_2 H 0.6990 0.2898 0.6750
H2_2 H 0.6430 0.3690 0.6745
O3_2 O 0.6161(6) 0.2182(5) 0.71828(11)
O4_2 O 0.6538(10) 0.1194(9) 0.67831(17)
H3_2 H 0.6702 0.1069 0.6658
H4_2 H 0.6902 0.0918 0.6868
O5_2 O 0.5944(5) 0.3685(4) 0.71561(10)
O6_7 O 1.0000 -0.0000 0.75222(12)
O7_2 O 0.9035(4) 0.1260(4) 0.77950(9)
O8_2 O 0.7544(4) 0.0950(5) 0.78605(9)
O9_2 O 0.8199(6) 0.1308(6) 0.92051(10)
O10_2 O 0.8210(5) 0.0053(6) 0.90135(8)
O11_2 O 0.4914(9) 0.0734(5) 0.70084(16)
C1_2 C 0.6333(7) 0.2992(7) 0.72451(14)
C2_2 C 0.7010(7) 0.3125(7) 0.74212(12)
C3_2 C 0.7258(6) 0.2339(6) 0.75337(12)
H6_2 H 0.6977 0.1770 0.7502
C4_2 C 0.7911(6) 0.2374(6) 0.76925(12)
C5_2 C 0.8186(6) 0.1453(6) 0.77944(12)
C6_2 C 0.8293(7) 0.3234(6) 0.77458(12)
C7_2 C 0.8023(7) 0.4023(7) 0.76346(14)
H7_2 H 0.8278 0.4601 0.7669
C8_2 C 0.7371(7) 0.3961(6) 0.74706(13)
H8_2 H 0.7192 0.4493 0.7397
C9_2 C 0.8945(6) 0.3332(6) 0.79274(13)
C10_2 C 0.8732(6) 0.2921(6) 0.81248(13)
H9_2 H 0.8178 0.2590 0.8142
C11_2 C 0.9339(7) 0.3009(6) 0.82914(12)
C12_2 C 0.9139(7) 0.2486(6) 0.84856(12)
C13_2 C 0.9062(6) 0.1528(6) 0.84790(12)
C14_2 C 0.8811(6) 0.1021(7) 0.86566(12)
H10_2 H 0.8750 0.0375 0.8648
C15_2 C 0.8651(7) 0.1468(7) 0.88435(13)
C16_2 C 0.8352(7) 0.0895(8) 0.90320(14)
C17_2 C 0.8729(8) 0.2429(7) 0.88498(14)
H11_2 H 0.8621 0.2741 0.8975
C18_2 C 0.8956(8) 0.2924(8) 0.86788(14)
H12_2 H 0.8992 0.3572 0.8688
C21_2 C 0.9790(8) 0.3814(7) 0.79095(15)
H15_2 H 0.9950 0.4081 0.7782
C22_2 C 0.9295(6) 0.0988(5) 0.82815(11)
C23_3 C 0.5000 -0.0000 0.6919(3)
H16_3 H 0.5000 -0.0000 0.6773
H17_3 H 0.9515 -0.0000 0.7445
Sm3_2 Sm 0.27694(3) 0.02019(3) 0.81202(2)
O14_2 O 0.4597(4) 0.3711(4) 0.67877(8)
O15_4 O 0.1882(6) 0.1468(5) 0.82901(11)
H18_4 H 0.2102 0.1990 0.8250
H19_4 H 0.1310 0.1430 0.8255
O16_4 O 0.2818(5) 0.1161(6) 0.78172(11)
O17_4 O 0.3806(9) 0.1538(10) 0.82169(17)
H20_4 H 0.3931 0.1702 0.8342
H21_4 H 0.4082 0.1902 0.8132
O19_2 O 0.3740(4) 0.4035(4) 0.72050(9)
O20_2 O 0.4050(5) 0.2544(4) 0.71395(9)
O23_2 O 0.3861(4) 0.5051(4) 0.68044(7)
C24_4 C 0.2008(7) 0.1333(7) 0.77549(14)
C25_4 C 0.1875(7) 0.2010(7) 0.75788(12)
C26_4 C 0.2661(6) 0.2258(6) 0.74663(12)
H22_4 H 0.3230 0.1977 0.7498
C27_4 C 0.2626(6) 0.2911(6) 0.73075(12)
C28_4 C 0.3547(6) 0.3186(6) 0.72056(12)
C29_4 C 0.1766(6) 0.3293(7) 0.72542(12)
C30_4 C 0.0977(7) 0.3023(7) 0.73654(14)
H23_4 H 0.0399 0.3278 0.7331
C31_4 C 0.1039(6) 0.2371(7) 0.75294(13)
H24_4 H 0.0507 0.2192 0.7603
C32_4 C 0.1668(6) 0.3945(6) 0.70726(13)
C33_4 C 0.2079(6) 0.3732(6) 0.68752(13)
H25_4 H 0.2410 0.3178 0.6858
C34_4 C 0.1991(6) 0.4339(7) 0.67086(12)
C35_4 C 0.2514(6) 0.4139(7) 0.65144(12)
C36_4 C 0.3472(6) 0.4062(6) 0.65210(12)
C37_4 C 0.3979(7) 0.3811(6) 0.63434(12)
H26_4 H 0.4625 0.3750 0.6352
C38_4 C 0.3532(7) 0.3651(7) 0.61565(13)
C39_4 C 0.4105(8) 0.3352(7) 0.59680(14)
C40_4 C 0.2571(7) 0.3729(8) 0.61502(14)
H27_4 H 0.2259 0.3621 0.6025
C41_4 C 0.2076(8) 0.3956(8) 0.63212(14)
H28_4 H 0.1428 0.3992 0.6312
C42_4 C 0.1495(7) 0.5156(8) 0.67326(14)
H29_4 H 0.1426 0.5557 0.6619
C43_4 C 0.1098(8) 0.5390(8) 0.69238(15)
H30_4 H 0.0775 0.5949 0.6939
C44_4 C 0.1186(7) 0.4790(8) 0.70905(15)
H31_4 H 0.0919 0.4950 0.7218
C45_4 C 0.4012(5) 0.4295(6) 0.67185(11)
Sm5_3 Sm 0.5000 0.5000 0.70983(2)
Sm1_6 Sm 1.0000 1.0000 0.79017(2)
O6_8 O 1.0000 1.0000 0.75222(12)
C23_4 C 0.5000 1.0000 0.6919(3)
H16_4 H 0.5000 1.0000 0.6773
H17_4 H 0.9515 1.0000 0.7445
O13_3 O 0.5086(9) 0.9266(5) 0.70084(16)
Sm7_2 Sm 0.72306(3) 0.97981(3) 0.81202(2)
Sm9_2 Sm 0.77694(3) 0.97981(3) 0.93798(2)
O27_2 O 0.8685(4) 0.9056(5) 0.78439(10)
O29_3 O 0.2456(4) 0.9050(5) 0.78605(9)
O30_4 O 0.3199(6) 0.8692(6) 0.82949(10)
O32_4 O 0.3210(5) 0.9947(6) 0.84865(8)
O34_2 O 0.4266(5) 0.9914(9) 0.79916(16)
O35_3 O 0.9949(4) 0.8861(4) 0.81956(7)
Sm4 Sm -0.0000 0.0000 0.20983(2)
O1_3 O 0.0403(4) 0.1289(4) 0.17877(8)
O2_3 O 0.3118(6) 0.3532(5) 0.32901(11)
H1_3 H 0.2898 0.3010 0.3250
H2_3 H 0.3690 0.3570 0.3255
O3_3 O 0.2182(5) 0.3839(6) 0.28172(11)
O4_3 O 0.1194(9) 0.3462(10) 0.32169(17)
H3_3 H 0.1069 0.3298 0.3342
H4_3 H 0.0918 0.3098 0.3132
O5_3 O 0.3685(4) 0.4056(5) 0.28439(10)
O6_9 O -0.0000 -0.0000 0.24778(12)
O7_3 O 0.1260(4) 0.0965(4) 0.22050(9)
O8_3 O 0.0950(5) 0.2456(4) 0.21395(9)
O9_3 O 0.1308(6) 0.1801(6) 0.07949(10)
O10_3 O 0.0053(6) 0.1790(5) 0.09865(8)
O11_3 O 0.0734(5) 0.5086(9) 0.29916(16)
C1_3 C 0.2992(7) 0.3667(7) 0.27549(14)
C2_3 C 0.3125(7) 0.2990(7) 0.25788(12)
C3_3 C 0.2339(6) 0.2742(6) 0.24663(12)
H6_3 H 0.1770 0.3023 0.2498
C4_3 C 0.2374(6) 0.2089(6) 0.23075(12)
C5_3 C 0.1453(6) 0.1814(6) 0.22056(12)
C6_3 C 0.3234(6) 0.1707(7) 0.22542(12)
C7_3 C 0.4023(7) 0.1977(7) 0.23654(14)
H7_3 H 0.4601 0.1722 0.2331
C8_3 C 0.3961(6) 0.2629(7) 0.25294(13)
H8_3 H 0.4493 0.2808 0.2603
C9_3 C 0.3332(6) 0.1055(6) 0.20726(13)
C10_3 C 0.2921(6) 0.1268(6) 0.18752(13)
H9_3 H 0.2590 0.1822 0.1858
C11_3 C 0.3009(6) 0.0661(7) 0.17086(12)
C12_3 C 0.2486(6) 0.0861(7) 0.15144(12)
C13_3 C 0.1528(6) 0.0938(6) 0.15210(12)
C14_3 C 0.1021(7) 0.1189(6) 0.13434(12)
H10_3 H 0.0375 0.1250 0.1352
C15_3 C 0.1468(7) 0.1349(7) 0.11565(13)
C16_3 C 0.0895(8) 0.1648(7) 0.09680(14)
C17_3 C 0.2429(7) 0.1271(8) 0.11502(14)
H11_3 H 0.2741 0.1379 0.1025
C18_3 C 0.2924(8) 0.1044(8) 0.13212(14)
H12_3 H 0.3572 0.1008 0.1312
C21_3 C 0.3814(7) 0.0210(8) 0.20905(15)
H15_3 H 0.4081 0.0050 0.2218
C22_3 C 0.0988(5) 0.0705(6) 0.17185(11)
C23_5 C -0.0000 0.5000 0.3081(3)
H16_5 H -0.0000 0.5000 0.3227
H17_5 H -0.0000 0.0485 0.2555
Sm3_3 Sm 0.02019(3) 0.72306(3) 0.18798(2)
O14_3 O 0.3711(4) 0.5403(4) 0.32123(8)
O15_5 O 0.1468(5) 0.8118(6) 0.17099(11)
H18_5 H 0.1990 0.7898 0.1750
H19_5 H 0.1430 0.8690 0.1745
O16_5 O 0.1161(6) 0.7182(5) 0.21828(11)
O17_5 O 0.1538(10) 0.6194(9) 0.17831(17)
H20_5 H 0.1702 0.6069 0.1658
H21_5 H 0.1902 0.5918 0.1868
O18_2 O 0.0944(5) 0.8685(4) 0.21561(10)
O19_3 O 0.4035(4) 0.6260(4) 0.27950(9)
O20_3 O 0.2544(4) 0.5950(5) 0.28605(9)
O23_3 O 0.5051(4) 0.6139(4) 0.31956(7)
C24_5 C 0.1333(7) 0.7992(7) 0.22451(14)
C25_5 C 0.2010(7) 0.8125(7) 0.24212(12)
C26_5 C 0.2258(6) 0.7339(6) 0.25337(12)
H22_5 H 0.1977 0.6770 0.2502
C27_5 C 0.2911(6) 0.7374(6) 0.26925(12)
C28_5 C 0.3186(6) 0.6453(6) 0.27944(12)
C29_5 C 0.3293(7) 0.8234(6) 0.27458(12)
C30_5 C 0.3023(7) 0.9023(7) 0.26346(14)
H23_5 H 0.3278 0.9601 0.2669
C31_5 C 0.2371(7) 0.8961(6) 0.24706(13)
H24_5 H 0.2192 0.9493 0.2397
C32_5 C 0.3945(6) 0.8332(6) 0.29274(13)
C33_5 C 0.3732(6) 0.7921(6) 0.31248(13)
H25_5 H 0.3178 0.7590 0.3142
C34_5 C 0.4339(7) 0.8009(6) 0.32914(12)
C35_5 C 0.4139(7) 0.7486(6) 0.34856(12)
C36_5 C 0.4062(6) 0.6528(6) 0.34790(12)
C37_5 C 0.3811(6) 0.6021(7) 0.36566(12)
H26_5 H 0.3750 0.5375 0.3648
C38_5 C 0.3651(7) 0.6468(7) 0.38435(13)
C39_5 C 0.3352(7) 0.5895(8) 0.40320(14)
C40_5 C 0.3729(8) 0.7429(7) 0.38498(14)
H27_5 H 0.3621 0.7741 0.3975
C41_5 C 0.3956(8) 0.7924(8) 0.36788(14)
H28_5 H 0.3992 0.8572 0.3688
C42_5 C 0.5156(8) 0.8505(7) 0.32674(14)
H29_5 H 0.5557 0.8574 0.3381
C43_5 C 0.5390(8) 0.8902(8) 0.30762(15)
H30_5 H 0.5949 0.9225 0.3061
C44_5 C 0.4790(8) 0.8814(7) 0.29095(15)
H31_5 H 0.4950 0.9081 0.2782
C45_5 C 0.4295(6) 0.5988(5) 0.32815(11)
Sm4_2 Sm -0.0000 1.0000 0.20983(2)
Sm5_4 Sm 0.5000 0.5000 0.29017(2)
O6_10 O -0.0000 1.0000 0.24778(12)
H5_5 H -0.0000 0.9515 0.2555
O12_3 O 0.1139(4) 0.9949(4) 0.18044(7)
C19_3 C 0.3505(7) 0.9844(8) 0.17326(14)
H13_3 H 0.3574 0.9443 0.1619
C20_3 C 0.3902(8) 0.9610(8) 0.19238(15)
H14_3 H 0.4225 0.9051 0.1939
Sm4_3 Sm 1.0000 0.0000 0.20983(2)
O6_11 O 1.0000 -0.0000 0.24778(12)
C23_6 C 1.0000 0.5000 0.3081(3)
H16_6 H 1.0000 0.5000 0.3227
H17_6 H 1.0000 0.0485 0.2555
O13_4 O 0.9266(5) 0.4914(9) 0.29916(16)
Sm4_4 Sm 1.0000 1.0000 0.20983(2)
Sm7_3 Sm 0.97981(3) 0.27694(3) 0.18798(2)
Sm9_3 Sm 0.97981(3) 0.22306(3) 0.06202(2)
O24_2 O 0.9597(4) 0.8711(4) 0.17877(8)
O27_3 O 0.9056(5) 0.1315(4) 0.21561(10)
O29_4 O 0.9050(5) 0.7544(4) 0.21395(9)
O30_5 O 0.8692(6) 0.6801(6) 0.17051(10)
O32_5 O 0.9947(6) 0.6790(5) 0.15135(8)
O34_3 O 0.9914(9) 0.5734(5) 0.20084(16)
O35_4 O 0.8861(4) 0.0051(4) 0.18044(7)
O6_12 O 1.0000 1.0000 0.24778(12)
H5_6 H 1.0000 0.9515 0.2555
O28_4 O 0.8740(4) 0.9035(4) 0.22050(9)
Sm9_4 Sm 0.22306(3) 0.02019(3) 0.93798(2)
O30_6 O 0.6801(6) 0.1308(6) 0.82949(10)
O32_6 O 0.6790(5) 0.0053(6) 0.84865(8)
O34_4 O 0.5734(5) 0.0086(9) 0.79916(16)
O2_4 O 0.3532(5) 0.6882(6) 0.67099(11)
H1_4 H 0.3010 0.7102 0.6750
H2_4 H 0.3570 0.6310 0.6745
O3_4 O 0.3839(6) 0.7818(5) 0.71828(11)
O4_4 O 0.3462(10) 0.8806(9) 0.67831(17)
H3_4 H 0.3298 0.8931 0.6658
H4_4 H 0.3098 0.9082 0.6868
O5_4 O 0.4056(5) 0.6315(4) 0.71561(10)
O9_4 O 0.1801(6) 0.8692(6) 0.92051(10)
O10_4 O 0.1790(5) 0.9947(6) 0.90135(8)
C1_4 C 0.3667(7) 0.7008(7) 0.72451(14)
C2_4 C 0.2990(7) 0.6875(7) 0.74212(12)
C3_4 C 0.2742(6) 0.7661(6) 0.75337(12)
H6_4 H 0.3023 0.8230 0.7502
C4_4 C 0.2089(6) 0.7626(6) 0.76925(12)
C5_4 C 0.1814(6) 0.8547(6) 0.77944(12)
C6_4 C 0.1707(7) 0.6766(6) 0.77458(12)
C7_4 C 0.1977(7) 0.5977(7) 0.76346(14)
H7_4 H 0.1722 0.5399 0.7669
C8_4 C 0.2629(7) 0.6039(6) 0.74706(13)
H8_4 H 0.2808 0.5507 0.7397
C9_4 C 0.1055(6) 0.6668(6) 0.79274(13)
C10_4 C 0.1268(6) 0.7079(6) 0.81248(13)
H9_4 H 0.1822 0.7410 0.8142
C11_4 C 0.0661(7) 0.6991(6) 0.82914(12)
C12_4 C 0.0861(7) 0.7514(6) 0.84856(12)
C13_4 C 0.0938(6) 0.8472(6) 0.84790(12)
C14_4 C 0.1189(6) 0.8979(7) 0.86566(12)
H10_4 H 0.1250 0.9625 0.8648
C15_4 C 0.1349(7) 0.8532(7) 0.88435(13)
C16_4 C 0.1648(7) 0.9105(8) 0.90320(14)
C17_4 C 0.1271(8) 0.7571(7) 0.88498(14)
H11_4 H 0.1379 0.7259 0.8975
C18_4 C 0.1044(8) 0.7076(8) 0.86788(14)
H12_4 H 0.1008 0.6428 0.8688
C21_4 C 0.0210(8) 0.6186(7) 0.79095(15)
H15_4 H 0.0050 0.5919 0.7782
C22_4 C 0.0705(6) 0.9012(5) 0.82815(11)
O14_4 O 0.5403(4) 0.6289(4) 0.67877(8)
O15_6 O 0.8118(6) 0.8532(5) 0.82901(11)
H18_6 H 0.7898 0.8010 0.8250
H19_6 H 0.8690 0.8570 0.8255
O16_6 O 0.7182(5) 0.8839(6) 0.78172(11)
O17_6 O 0.6194(9) 0.8462(10) 0.82169(17)
H20_6 H 0.6069 0.8298 0.8342
H21_6 H 0.5918 0.8098 0.8132
O19_4 O 0.6260(4) 0.5965(4) 0.72050(9)
O20_4 O 0.5950(5) 0.7456(4) 0.71395(9)
O23_4 O 0.6139(4) 0.4949(4) 0.68044(7)
C24_6 C 0.7992(7) 0.8667(7) 0.77549(14)
C25_6 C 0.8125(7) 0.7990(7) 0.75788(12)
C26_6 C 0.7339(6) 0.7742(6) 0.74663(12)
H22_6 H 0.6770 0.8023 0.7498
C27_6 C 0.7374(6) 0.7089(6) 0.73075(12)
C28_6 C 0.6453(6) 0.6814(6) 0.72056(12)
C29_6 C 0.8234(6) 0.6707(7) 0.72542(12)
C30_6 C 0.9023(7) 0.6977(7) 0.73654(14)
H23_6 H 0.9601 0.6722 0.7331
C31_6 C 0.8961(6) 0.7629(7) 0.75294(13)
H24_6 H 0.9493 0.7808 0.7603
C32_6 C 0.8332(6) 0.6055(6) 0.70726(13)
C33_6 C 0.7921(6) 0.6268(6) 0.68752(13)
H25_6 H 0.7590 0.6822 0.6858
C34_6 C 0.8009(6) 0.5661(7) 0.67086(12)
C35_6 C 0.7486(6) 0.5861(7) 0.65144(12)
C36_6 C 0.6528(6) 0.5938(6) 0.65210(12)
C37_6 C 0.6021(7) 0.6189(6) 0.63434(12)
H26_6 H 0.5375 0.6250 0.6352
C38_6 C 0.6468(7) 0.6349(7) 0.61565(13)
C39_6 C 0.5895(8) 0.6648(7) 0.59680(14)
C40_6 C 0.7429(7) 0.6271(8) 0.61502(14)
H27_6 H 0.7741 0.6379 0.6025
C41_6 C 0.7924(8) 0.6044(8) 0.63212(14)
H28_6 H 0.8572 0.6008 0.6312
C42_6 C 0.8505(7) 0.4844(8) 0.67326(14)
H29_6 H 0.8574 0.4443 0.6619
C43_6 C 0.8902(8) 0.4610(8) 0.69238(15)
H30_6 H 0.9225 0.4051 0.6939
C44_6 C 0.8814(7) 0.5210(8) 0.70905(15)
H31_6 H 0.9081 0.5050 0.7218
C45_6 C 0.5988(5) 0.5705(6) 0.67185(11)
C19_4 C 0.9844(8) 0.6495(7) 0.82674(14)
H13_4 H 0.9443 0.6426 0.8381
C20_4 C 0.9610(8) 0.6098(8) 0.80762(15)
H14_4 H 0.9051 0.5775 0.8061
Sm9_5 Sm 0.02019(3) 0.77694(3) 0.06202(2)
O30_7 O 0.1308(6) 0.3199(6) 0.17051(10)
O32_7 O 0.0053(6) 0.3210(5) 0.15135(8)
O34_5 O 0.0086(9) 0.4266(5) 0.20084(16)
C19_5 C 0.6495(7) 0.0156(8) 0.17326(14)
H13_5 H 0.6426 0.0557 0.1619
C20_5 C 0.6098(8) 0.0390(8) 0.19238(15)
H14_5 H 0.5775 0.0949 0.1939
O2_5 O 0.6882(6) 0.6468(5) 0.32901(11)
H1_5 H 0.7102 0.6990 0.3250
H2_5 H 0.6310 0.6430 0.3255
O3_5 O 0.7818(5) 0.6161(6) 0.28172(11)
O4_5 O 0.8806(9) 0.6538(10) 0.32169(17)
H3_5 H 0.8931 0.6702 0.3342
H4_5 H 0.9082 0.6902 0.3132
O5_5 O 0.6315(4) 0.5944(5) 0.28439(10)
O9_5 O 0.8692(6) 0.8199(6) 0.07949(10)
O10_5 O 0.9947(6) 0.8210(5) 0.09865(8)
C1_5 C 0.7008(7) 0.6333(7) 0.27549(14)
C2_5 C 0.6875(7) 0.7010(7) 0.25788(12)
C3_5 C 0.7661(6) 0.7258(6) 0.24663(12)
H6_5 H 0.8230 0.6977 0.2498
C4_5 C 0.7626(6) 0.7911(6) 0.23075(12)
C5_5 C 0.8547(6) 0.8186(6) 0.22056(12)
C6_5 C 0.6766(6) 0.8293(7) 0.22542(12)
C7_5 C 0.5977(7) 0.8023(7) 0.23654(14)
H7_5 H 0.5399 0.8278 0.2331
C8_5 C 0.6039(6) 0.7371(7) 0.25294(13)
H8_5 H 0.5507 0.7192 0.2603
C9_5 C 0.6668(6) 0.8945(6) 0.20726(13)
C10_5 C 0.7079(6) 0.8732(6) 0.18752(13)
H9_5 H 0.7410 0.8178 0.1858
C11_5 C 0.6991(6) 0.9339(7) 0.17086(12)
C12_5 C 0.7514(6) 0.9139(7) 0.15144(12)
C13_5 C 0.8472(6) 0.9062(6) 0.15210(12)
C14_5 C 0.8979(7) 0.8811(6) 0.13434(12)
H10_5 H 0.9625 0.8750 0.1352
C15_5 C 0.8532(7) 0.8651(7) 0.11565(13)
C16_5 C 0.9105(8) 0.8352(7) 0.09680(14)
C17_5 C 0.7571(7) 0.8729(8) 0.11502(14)
H11_5 H 0.7259 0.8621 0.1025
C18_5 C 0.7076(8) 0.8956(8) 0.13212(14)
H12_5 H 0.6428 0.8992 0.1312
C21_5 C 0.6186(7) 0.9790(8) 0.20905(15)
H15_5 H 0.5919 0.9950 0.2218
C22_5 C 0.9012(5) 0.9295(6) 0.17185(11)
O14_5 O 0.6289(4) 0.4597(4) 0.32123(8)
O15_7 O 0.8532(5) 0.1882(6) 0.17099(11)
H18_7 H 0.8010 0.2102 0.1750
H19_7 H 0.8570 0.1310 0.1745
O16_7 O 0.8839(6) 0.2818(5) 0.21828(11)
O17_7 O 0.8462(10) 0.3806(9) 0.17831(17)
H20_7 H 0.8298 0.3931 0.1658
H21_7 H 0.8098 0.4082 0.1868
O19_5 O 0.5965(4) 0.3740(4) 0.27950(9)
O20_5 O 0.7456(4) 0.4050(5) 0.28605(9)
O23_5 O 0.4949(4) 0.3861(4) 0.31956(7)
C24_7 C 0.8667(7) 0.2008(7) 0.22451(14)
C25_7 C 0.7990(7) 0.1875(7) 0.24212(12)
C26_7 C 0.7742(6) 0.2661(6) 0.25337(12)
H22_7 H 0.8023 0.3230 0.2502
C27_7 C 0.7089(6) 0.2626(6) 0.26925(12)
C28_7 C 0.6814(6) 0.3547(6) 0.27944(12)
C29_7 C 0.6707(7) 0.1766(6) 0.27458(12)
C30_7 C 0.6977(7) 0.0977(7) 0.26346(14)
H23_7 H 0.6722 0.0399 0.2669
C31_7 C 0.7629(7) 0.1039(6) 0.24706(13)
H24_7 H 0.7808 0.0507 0.2397
C32_7 C 0.6055(6) 0.1668(6) 0.29274(13)
C33_7 C 0.6268(6) 0.2079(6) 0.31248(13)
H25_7 H 0.6822 0.2410 0.3142
C34_7 C 0.5661(7) 0.1991(6) 0.32914(12)
C35_7 C 0.5861(7) 0.2514(6) 0.34856(12)
C36_7 C 0.5938(6) 0.3472(6) 0.34790(12)
C37_7 C 0.6189(6) 0.3979(7) 0.36566(12)
H26_7 H 0.6250 0.4625 0.3648
C38_7 C 0.6349(7) 0.3532(7) 0.38435(13)
C39_7 C 0.6648(7) 0.4105(8) 0.40320(14)
C40_7 C 0.6271(8) 0.2571(7) 0.38498(14)
H27_7 H 0.6379 0.2259 0.3975
C41_7 C 0.6044(8) 0.2076(8) 0.36788(14)
H28_7 H 0.6008 0.1428 0.3688
C42_7 C 0.4844(8) 0.1495(7) 0.32674(14)
H29_7 H 0.4443 0.1426 0.3381
C43_7 C 0.4610(8) 0.1098(8) 0.30762(15)
H30_7 H 0.4051 0.0775 0.3061
C44_7 C 0.5210(8) 0.1186(7) 0.29095(15)
H31_7 H 0.5050 0.0919 0.2782
C45_7 C 0.5705(6) 0.4012(5) 0.32815(11)
H5_7 H 0.5485 0.0000 0.0055
C23_7 C 0.0000 0.0000 0.0581(3)
H16_7 H 0.0000 0.0000 0.0727
H17_7 H 0.4515 0.0000 0.0055
O13_5 O 0.0086(9) 0.0734(5) 0.04916(16)
Sm1_7 Sm 0.5000 0.0000 0.95983(2)
O6_13 O 0.5000 0.0000 0.99778(12)
O25_3 O 0.6289(4) 0.0403(4) 0.92877(8)
O27_4 O 0.3685(4) 0.0944(5) 0.96561(10)
O28_5 O 0.5965(4) 0.1260(4) 0.97050(9)
O35_5 O 0.4949(4) 0.1139(4) 0.93044(7)
O2_6 O 0.1468(5) 0.6882(6) 0.07901(11)
H1_6 H 0.1990 0.7102 0.0750
H2_6 H 0.1430 0.6310 0.0755
O3_6 O 0.1161(6) 0.7818(5) 0.03172(11)
O4_6 O 0.1538(10) 0.8806(9) 0.07169(17)
H3_6 H 0.1702 0.8931 0.0842
H4_6 H 0.1902 0.9082 0.0632
O5_6 O 0.0944(5) 0.6315(4) 0.03439(10)
H5_8 H 0.5485 1.0000 0.0055
C1_6 C 0.1333(7) 0.7008(7) 0.02549(14)
C2_6 C 0.2010(7) 0.6875(7) 0.00788(12)
C8_6 C 0.2371(7) 0.6039(6) 0.00294(13)
H8_6 H 0.2192 0.5507 0.0103
C23_8 C 0.0000 1.0000 0.0581(3)
H16_8 H 0.0000 1.0000 0.0727
H17_8 H 0.4515 1.0000 0.0055
Sm5_5 Sm 0.0000 0.5000 0.04017(2)
Sm1_8 Sm 0.5000 1.0000 0.95983(2)
O1_4 O 0.3711(4) 0.9597(4) 0.92877(8)
O6_14 O 0.5000 1.0000 0.99778(12)
O7_4 O 0.4035(4) 0.8740(4) 0.97050(9)
O8_4 O 0.2544(4) 0.9050(5) 0.96395(9)
O12_4 O 0.5051(4) 0.8861(4) 0.93044(7)
C3_6 C 0.2258(6) 0.7661(6) 0.99663(12)
H6_6 H 0.1977 0.8230 0.9998
C4_6 C 0.2911(6) 0.7626(6) 0.98075(12)
C5_6 C 0.3186(6) 0.8547(6) 0.97056(12)
C6_6 C 0.3293(7) 0.6766(6) 0.97542(12)
C7_6 C 0.3023(7) 0.5977(7) 0.98654(14)
H7_6 H 0.3278 0.5399 0.9831
C9_6 C 0.3945(6) 0.6668(6) 0.95726(13)
C10_6 C 0.3732(6) 0.7079(6) 0.93752(13)
H9_6 H 0.3178 0.7410 0.9358
C11_6 C 0.4339(7) 0.6991(6) 0.92086(12)
C12_6 C 0.4139(7) 0.7514(6) 0.90144(12)
C13_6 C 0.4062(6) 0.8472(6) 0.90210(12)
C14_6 C 0.3811(6) 0.8979(7) 0.88434(12)
H10_6 H 0.3750 0.9625 0.8852
C15_6 C 0.3651(7) 0.8532(7) 0.86565(13)
C16_6 C 0.3352(7) 0.9105(8) 0.84680(14)
C17_6 C 0.3729(8) 0.7571(7) 0.86502(14)
H11_6 H 0.3621 0.7259 0.8525
C18_6 C 0.3956(8) 0.7076(8) 0.88212(14)
H12_6 H 0.3992 0.6428 0.8812
C19_6 C 0.5156(8) 0.6495(7) 0.92326(14)
H13_6 H 0.5557 0.6426 0.9119
C20_6 C 0.5390(8) 0.6098(8) 0.94238(15)
H14_6 H 0.5949 0.5775 0.9439
C21_6 C 0.4790(8) 0.6186(7) 0.95905(15)
H15_6 H 0.4950 0.5919 0.9718
C22_6 C 0.4295(6) 0.9012(5) 0.92185(11)
O26_3 O 0.6315(4) 0.9056(5) 0.96561(10)
C23_9 C 1.0000 0.0000 0.0581(3)
H16_9 H 1.0000 0.0000 0.0727
O29_5 O 0.7456(4) 0.0950(5) 0.96395(9)
O34_6 O 0.9266(5) 0.0086(9) 0.95084(16)
O11_4 O 0.9914(9) 0.9266(5) 0.04916(16)
C23_10 C 1.0000 1.0000 0.0581(3)
H16_10 H 1.0000 1.0000 0.0727
O14_6 O 0.9597(4) 0.6289(4) 0.07123(8)
O19_6 O 0.8740(4) 0.5965(4) 0.02950(9)
O20_6 O 0.9050(5) 0.7456(4) 0.03605(9)
O23_6 O 0.8861(4) 0.4949(4) 0.06956(7)
C26_8 C 0.7661(6) 0.7742(6) 0.00337(12)
H22_8 H 0.8230 0.8023 0.0002
C27_8 C 0.7626(6) 0.7089(6) 0.01925(12)
C28_8 C 0.8547(6) 0.6814(6) 0.02944(12)
C29_8 C 0.6766(6) 0.6707(7) 0.02458(12)
C30_8 C 0.5977(7) 0.6977(7) 0.01346(14)
H23_8 H 0.5399 0.6722 0.0169
C32_8 C 0.6668(6) 0.6055(6) 0.04274(13)
C33_8 C 0.7079(6) 0.6268(6) 0.06248(13)
H25_8 H 0.7410 0.6822 0.0642
C34_8 C 0.6991(6) 0.5661(7) 0.07914(12)
C35_8 C 0.7514(6) 0.5861(7) 0.09856(12)
C36_8 C 0.8472(6) 0.5938(6) 0.09790(12)
C37_8 C 0.8979(7) 0.6189(6) 0.11566(12)
H26_8 H 0.9625 0.6250 0.1148
C38_8 C 0.8532(7) 0.6349(7) 0.13435(13)
C39_8 C 0.9105(8) 0.6648(7) 0.15320(14)
C40_8 C 0.7571(7) 0.6271(8) 0.13498(14)
H27_8 H 0.7259 0.6379 0.1475
C41_8 C 0.7076(8) 0.6044(8) 0.11788(14)
H28_8 H 0.6428 0.6008 0.1188
C42_8 C 0.6495(7) 0.4844(8) 0.07674(14)
H29_8 H 0.6426 0.4443 0.0881
C43_8 C 0.6098(8) 0.4610(8) 0.05762(15)
H30_8 H 0.5775 0.4051 0.0561
C44_8 C 0.6186(7) 0.5210(8) 0.04095(15)
H31_8 H 0.5919 0.5050 0.0282
C45_8 C 0.9012(5) 0.5705(6) 0.07815(11)
Sm5_6 Sm 1.0000 0.5000 0.04017(2)
O15_8 O 0.6882(6) 0.8532(5) 0.92099(11)
H18_8 H 0.7102 0.8010 0.9250
H19_8 H 0.6310 0.8570 0.9245
O16_8 O 0.7818(5) 0.8839(6) 0.96828(11)
O17_8 O 0.8806(9) 0.8462(10) 0.92831(17)
H20_8 H 0.8931 0.8298 0.9158
H21_8 H 0.9082 0.8098 0.9368
C24_8 C 0.7008(7) 0.8667(7) 0.97451(14)
C25_8 C 0.6875(7) 0.7990(7) 0.99212(12)
C31_8 C 0.6039(6) 0.7629(7) 0.99706(13)
H24_8 H 0.5507 0.7808 0.9897
O24_3 O 0.0403(4) 0.3711(4) 0.07123(8)
O29_6 O 0.0950(5) 0.2544(4) 0.03605(9)
C23_11 C 0.0000 -0.0000 0.9419(3)
H16_11 H 0.0000 -0.0000 0.9273
O6_15 O 0.0000 0.5000 0.00222(12)
O28_6 O 0.1260(4) 0.4035(4) 0.02950(9)
O35_6 O 0.1139(4) 0.5051(4) 0.06956(7)
H5_9 H 0.0000 0.4515 0.9945
C23_12 C 0.0000 1.0000 0.9419(3)
H16_12 H 0.0000 1.0000 0.9273
H17_9 H 0.0000 0.5485 0.9945
O13_6 O 0.0734(5) 0.9914(9) 0.95084(16)
O15_9 O 0.8532(5) 0.3118(6) 0.07901(11)
H18_9 H 0.8010 0.2898 0.0750
H19_9 H 0.8570 0.3690 0.0755
O16_9 O 0.8839(6) 0.2182(5) 0.03172(11)
O17_9 O 0.8462(10) 0.1194(9) 0.07169(17)
H20_9 H 0.8298 0.1069 0.0842
H21_9 H 0.8098 0.0918 0.0632
O18_3 O 0.9056(5) 0.3685(4) 0.03439(10)
C24_9 C 0.8667(7) 0.2992(7) 0.02549(14)
C25_9 C 0.7990(7) 0.3125(7) 0.00788(12)
C31_9 C 0.7629(7) 0.3961(6) 0.00294(13)
H24_9 H 0.7808 0.4493 0.0103
C23_13 C 1.0000 -0.0000 0.9419(3)
H16_13 H 1.0000 -0.0000 0.9273
C26_9 C 0.7742(6) 0.2339(6) 0.99663(12)
H22_9 H 0.8023 0.1770 0.9998
C27_9 C 0.7089(6) 0.2374(6) 0.98075(12)
C28_9 C 0.6814(6) 0.1453(6) 0.97056(12)
C29_9 C 0.6707(7) 0.3234(6) 0.97542(12)
C30_9 C 0.6977(7) 0.4023(7) 0.98654(14)
H23_9 H 0.6722 0.4601 0.9831
C32_9 C 0.6055(6) 0.3332(6) 0.95726(13)
C33_9 C 0.6268(6) 0.2921(6) 0.93752(13)
H25_9 H 0.6822 0.2590 0.9358
C34_9 C 0.5661(7) 0.3009(6) 0.92086(12)
C35_9 C 0.5861(7) 0.2486(6) 0.90144(12)
C36_9 C 0.5938(6) 0.1528(6) 0.90210(12)
C37_9 C 0.6189(6) 0.1021(7) 0.88434(12)
H26_9 H 0.6250 0.0375 0.8852
C38_9 C 0.6349(7) 0.1468(7) 0.86565(13)
C39_9 C 0.6648(7) 0.0895(8) 0.84680(14)
C40_9 C 0.6271(8) 0.2429(7) 0.86502(14)
H27_9 H 0.6379 0.2741 0.8525
C41_9 C 0.6044(8) 0.2924(8) 0.88212(14)
H28_9 H 0.6008 0.3572 0.8812
C42_9 C 0.4844(8) 0.3505(7) 0.92326(14)
H29_9 H 0.4443 0.3574 0.9119
C43_9 C 0.4610(8) 0.3902(8) 0.94238(15)
H30_9 H 0.4051 0.4225 0.9439
C44_9 C 0.5210(8) 0.3814(7) 0.95905(15)
H31_9 H 0.5050 0.4081 0.9718
C45_9 C 0.5705(6) 0.0988(5) 0.92185(11)
O6_16 O 1.0000 0.5000 0.00222(12)
H5_10 H 1.0000 0.4515 0.9945
C23_14 C 1.0000 1.0000 0.9419(3)
H16_14 H 1.0000 1.0000 0.9273
H17_10 H 1.0000 0.5485 0.9945
C26_10 C 0.2339(6) 0.2258(6) 0.00337(12)
H22_10 H 0.1770 0.1977 0.0002
C27_10 C 0.2374(6) 0.2911(6) 0.01925(12)
C28_10 C 0.1453(6) 0.3186(6) 0.02944(12)
C29_10 C 0.3234(6) 0.3293(7) 0.02458(12)
C30_10 C 0.4023(7) 0.3023(7) 0.01346(14)
H23_10 H 0.4601 0.3278 0.0169
C32_10 C 0.3332(6) 0.3945(6) 0.04274(13)
C33_10 C 0.2921(6) 0.3732(6) 0.06248(13)
H25_10 H 0.2590 0.3178 0.0642
C34_10 C 0.3009(6) 0.4339(7) 0.07914(12)
C35_10 C 0.2486(6) 0.4139(7) 0.09856(12)
C36_10 C 0.1528(6) 0.4062(6) 0.09790(12)
C37_10 C 0.1021(7) 0.3811(6) 0.11566(12)
H26_10 H 0.0375 0.3750 0.1148
C38_10 C 0.1468(7) 0.3651(7) 0.13435(13)
C39_10 C 0.0895(8) 0.3352(7) 0.15320(14)
C40_10 C 0.2429(7) 0.3729(8) 0.13498(14)
H27_10 H 0.2741 0.3621 0.1475
C41_10 C 0.2924(8) 0.3956(8) 0.11788(14)
H28_10 H 0.3572 0.3992 0.1188
C42_10 C 0.3505(7) 0.5156(8) 0.07674(14)
H29_10 H 0.3574 0.5557 0.0881
C43_10 C 0.3902(8) 0.5390(8) 0.05762(15)
H30_10 H 0.4225 0.5949 0.0561
C44_10 C 0.3814(7) 0.4790(8) 0.04095(15)
H31_10 H 0.4081 0.4950 0.0282
C45_10 C 0.0988(5) 0.4295(6) 0.07815(11)
O15_10 O 0.3118(6) 0.1468(5) 0.92099(11)
H18_10 H 0.2898 0.1990 0.9250
H19_10 H 0.3690 0.1430 0.9245
O16_10 O 0.2182(5) 0.1161(6) 0.96828(11)
O17_10 O 0.1194(9) 0.1538(10) 0.92831(17)
H20_10 H 0.1069 0.1702 0.9158
H21_10 H 0.0918 0.1902 0.9368
C24_10 C 0.2992(7) 0.1333(7) 0.97451(14)
C25_10 C 0.3125(7) 0.2010(7) 0.99212(12)
C31_10 C 0.3961(6) 0.2371(7) 0.99706(13)
H24_10 H 0.4493 0.2192 0.9897
O6_17 O 0.5000 0.5000 0.25222(12)
H5_11 H 0.5485 0.5000 0.2445
C23_15 C 0.0000 0.5000 0.1919(3)
H16_15 H 0.0000 0.5000 0.1773
H17_11 H 0.4515 0.5000 0.2445
C23_16 C 1.0000 0.5000 0.1919(3)
H16_16 H 1.0000 0.5000 0.1773
C23_17 C 0.5000 -0.0000 0.8081(3)
H16_17 H 0.5000 -0.0000 0.8227
O6_18 O 0.5000 0.5000 0.74778(12)
H5_12 H 0.5000 0.4515 0.7555
C23_18 C 0.5000 1.0000 0.8081(3)
H16_18 H 0.5000 1.0000 0.8227
H17_12 H 0.5000 0.5485 0.7555
loop_
_geom_bond_atom_site_label_1
_geom_bond_atom_site_label_2
_geom_bond_site_symmetry_1
_geom_bond_site_symmetry_2
O6 Sm1 1_555 1_555
H5 O6 1_555 1_555
O12 Sm1 1_555 1_555
H13 C19 1_555 1_555
C20 C19 1_555 1_555
H14 C20 1_555 1_555
O25 Sm1 1_555 1_555
O26 Sm1 1_555 1_555
O28 Sm1 1_555 1_555
Sm1_2 O1 1_555 1_555
Sm2 O2 1_555 1_555
O1 C22 1_555 1_555
O2 H1 1_555 1_555
H2 O2 1_555 1_555
O3 Sm2 1_555 1_555
O4 Sm2 1_555 1_555
H3 O4 1_555 1_555
H4 O4 1_555 1_555
O5 Sm2 1_555 1_555
O6_2 Sm1_2 1_555 1_555
O7 Sm1_2 1_555 1_555
O8 C5 1_555 1_555
O9 C16 1_555 1_555
O10 C16 1_555 1_555
O11 Sm2 1_555 1_555
C1 O3 1_555 1_555
C2 C1 1_555 1_555
C3 C2 1_555 1_555
H6 C3 1_555 1_555
C4 C3 1_555 1_555
C5 O7 1_555 1_555
C6 C4 1_555 1_555
C7 C6 1_555 1_555
H7 C7 1_555 1_555
C8 C2 1_555 1_555
H8 C8 1_555 1_555
C9 C6 1_555 1_555
C10 C9 1_555 1_555
H9 C10 1_555 1_555
C11 C10 1_555 1_555
C12 C11 1_555 1_555
C13 C12 1_555 1_555
C14 C13 1_555 1_555
H10 C14 1_555 1_555
C15 C14 1_555 1_555
C16 C15 1_555 1_555
C17 C15 1_555 1_555
H11 C17 1_555 1_555
C18 C12 1_555 1_555
H12 C18 1_555 1_555
C21 C9 1_555 1_555
H15 C21 1_555 1_555
C23 O11 1_555 1_555
H16 C23 1_555 1_555
H17 O6_2 1_555 1_555
O13 C23 1_555 1_555
Sm3 O15 1_555 1_555
O14 Sm2 1_555 1_555
O15 H18 1_555 1_555
H19 O15 1_555 1_555
O16 Sm3 1_555 1_555
O17 Sm3 1_555 1_555
H20 O17 1_555 1_555
H21 O17 1_555 1_555
O26 Sm3 1_555 1_555
O19 C28 1_555 1_555
O20 Sm2 1_555 1_555
O21 C39 1_555 1_555
O22 C39 1_555 1_555
C24 O16 1_555 1_555
C25 C24 1_555 1_555
C26 C25 1_555 1_555
H22 C26 1_555 1_555
C27 C26 1_555 1_555
C28 O20 1_555 1_555
C29 C27 1_555 1_555
C30 C29 1_555 1_555
H23 C30 1_555 1_555
C31 C25 1_555 1_555
H24 C31 1_555 1_555
C32 C29 1_555 1_555
C33 C32 1_555 1_555
H25 C33 1_555 1_555
C34 C33 1_555 1_555
C35 C34 1_555 1_555
C36 C35 1_555 1_555
C37 C36 1_555 1_555
H26 C37 1_555 1_555
C38 C37 1_555 1_555
C39 C38 1_555 1_555
C40 C38 1_555 1_555
H27 C40 1_555 1_555
C41 C35 1_555 1_555
H28 C41 1_555 1_555
C44 C32 1_555 1_555
H31 C44 1_555 1_555
C45 O14 1_555 1_555
Sm5 O5 1_555 1_555
Sm6 O13 1_555 1_555
Sm7 O1 1_555 1_555
Sm8 O21 1_555 1_555
Sm9 O9 1_555 1_555
O25 Sm3 1_555 1_555
O27 Sm1_2 1_555 1_555
O29 Sm3 1_555 1_555
O30 Sm3 1_555 1_555
O31 Sm2 1_555 1_555
O32 Sm3 1_555 1_555
O33 Sm2 1_555 1_555
O34 Sm3 1_555 1_555
O35 Sm1_2 1_555 1_555
O5 C1 1_555 1_555
O8 Sm7 1_555 1_555
O10 Sm9 1_555 1_555
C4 C5 1_555 1_555
C7 C8 1_555 1_555
C13 C22 1_555 1_555
C17 C18 1_555 1_555
O14 Sm5 1_555 1_555
O26 C24 1_555 1_555
O19 Sm5 1_555 1_555
O22 Sm8 1_555 1_555
C27 C28 1_555 1_555
C30 C31 1_555 1_555
C36 C45 1_555 1_555
C40 C41 1_555 1_555
Sm7 O27 1_555 1_555
H29 C42 1_555 1_555
C43 C42 1_555 1_555
H30 C43 1_555 1_555
O23 Sm5_2 1_555 1_555
O6_3 Sm5 1_555 1_555
C23_2 O34 1_555 1_555
H16_2 C23_2 1_555 1_555
H17_2 O6_3 1_555 1_555
O13_2 C23_2 1_555 1_555
Sm6 O15_2 1_555 1_555
O15_2 H18_2 1_555 1_555
H19_2 O15_2 1_555 1_555
O16_2 Sm6 1_555 1_555
O17_2 Sm6 1_555 1_555
H20_2 O17_2 1_555 1_555
H21_2 O17_2 1_555 1_555
O18 Sm6 1_555 1_555
O28 C28_2 1_555 1_555
O21_2 C39_2 1_555 1_555
O22_2 C39_2 1_555 1_555
C24_2 O16_2 1_555 1_555
C25_2 C24_2 1_555 1_555
C26_2 C25_2 1_555 1_555
H22_2 C26_2 1_555 1_555
C27_2 C26_2 1_555 1_555
C28_2 O29 1_555 1_555
C29_2 C27_2 1_555 1_555
C30_2 C29_2 1_555 1_555
H23_2 C30_2 1_555 1_555
C31_2 C25_2 1_555 1_555
H24_2 C31_2 1_555 1_555
C32_2 C29_2 1_555 1_555
C33_2 C32_2 1_555 1_555
H25_2 C33_2 1_555 1_555
C34_2 C33_2 1_555 1_555
C35_2 C34_2 1_555 1_555
C36_2 C35_2 1_555 1_555
C37_2 C36_2 1_555 1_555
H26_2 C37_2 1_555 1_555
C38_2 C37_2 1_555 1_555
C39_2 C38_2 1_555 1_555
C40_2 C38_2 1_555 1_555
H27_2 C40_2 1_555 1_555
C41_2 C35_2 1_555 1_555
H28_2 C41_2 1_555 1_555
C44_2 C32_2 1_555 1_555
H31_2 C44_2 1_555 1_555
C45_2 O25 1_555 1_555
Sm5_2 O18 1_555 1_555
Sm7 O13_2 1_555 1_555
Sm8_2 O21_2 1_555 1_555
O24 Sm6 1_555 1_555
O29_2 Sm6 1_555 1_555
O30_2 Sm6 1_555 1_555
O32_2 Sm6 1_555 1_555
O35_2 Sm5 1_555 1_555
O18 C24_2 1_555 1_555
O22_2 Sm8_2 1_555 1_555
C27_2 C28_2 1_555 1_555
C30_2 C31_2 1_555 1_555
C36_2 C45_2 1_555 1_555
C40_2 C41_2 1_555 1_555
Sm5_2 O24 1_555 1_555
O6_4 Sm5_2 1_555 1_555
H5_2 O6_4 1_555 1_555
O28_2 Sm5_2 1_555 1_555
H29_2 C42_2 1_555 1_555
C43_2 C42_2 1_555 1_555
H30_2 C43_2 1_555 1_555
H29_3 C42_3 1_555 1_555
C43_3 C42_3 1_555 1_555
H30_3 C43_3 1_555 1_555
Sm7 O15_3 1_555 1_555
O15_3 H18_3 1_555 1_555
H19_3 O15_3 1_555 1_555
O16_3 Sm7 1_555 1_555
O17_3 Sm7 1_555 1_555
H20_3 O17_3 1_555 1_555
H21_3 O17_3 1_555 1_555
O28_2 C28_3 1_555 1_555
O21_3 C39_3 1_555 1_555
O22_3 C39_3 1_555 1_555
C24_3 O16_3 1_555 1_555
C25_3 C24_3 1_555 1_555
C26_3 C25_3 1_555 1_555
H22_3 C26_3 1_555 1_555
C27_3 C26_3 1_555 1_555
C28_3 O29_2 1_555 1_555
C29_3 C27_3 1_555 1_555
C30_3 C29_3 1_555 1_555
H23_3 C30_3 1_555 1_555
C31_3 C25_3 1_555 1_555
H24_3 C31_3 1_555 1_555
C32_3 C29_3 1_555 1_555
C33_3 C32_3 1_555 1_555
H25_3 C33_3 1_555 1_555
C34_3 C33_3 1_555 1_555
C35_3 C34_3 1_555 1_555
C36_3 C35_3 1_555 1_555
C37_3 C36_3 1_555 1_555
H26_3 C37_3 1_555 1_555
C38_3 C37_3 1_555 1_555
C39_3 C38_3 1_555 1_555
C40_3 C38_3 1_555 1_555
H27_3 C40_3 1_555 1_555
C41_3 C35_3 1_555 1_555
H28_3 C41_3 1_555 1_555
C44_3 C32_3 1_555 1_555
H31_3 C44_3 1_555 1_555
C45_3 O24 1_555 1_555
Sm8_3 O21_3 1_555 1_555
O30_3 Sm7 1_555 1_555
O32_3 Sm7 1_555 1_555
O27 C24_3 1_555 1_555
O22_3 Sm8_3 1_555 1_555
C27_3 C28_3 1_555 1_555
C30_3 C31_3 1_555 1_555
C36_3 C45_3 1_555 1_555
C40_3 C41_3 1_555 1_555
O6_5 Sm1_3 1_555 1_555
H5_3 O6_5 1_555 1_555
O12_2 Sm1_3 1_555 1_555
H13_2 C19_2 1_555 1_555
C20_2 C19_2 1_555 1_555
H14_2 C20_2 1_555 1_555
O26_2 Sm1_3 1_555 1_555
O6_6 Sm1_4 1_555 1_555
H5_4 O6_6 1_555 1_555
O25_2 Sm1_4 1_555 1_555
O28_3 Sm1_4 1_555 1_555
Sm1_5 O1_2 1_555 1_555
Sm8 O2_2 1_555 1_555
O1_2 C22_2 1_555 1_555
O2_2 H1_2 1_555 1_555
H2_2 O2_2 1_555 1_555
O3_2 Sm8 1_555 1_555
O4_2 Sm8 1_555 1_555
H3_2 O4_2 1_555 1_555
H4_2 O4_2 1_555 1_555
O5_2 Sm8 1_555 1_555
O6_7 Sm1_5 1_555 1_555
O7_2 Sm1_5 1_555 1_555
O8_2 C5_2 1_555 1_555
O9_2 C16_2 1_555 1_555
O10_2 C16_2 1_555 1_555
O11_2 Sm8 1_555 1_555
C1_2 O3_2 1_555 1_555
C2_2 C1_2 1_555 1_555
C3_2 C2_2 1_555 1_555
H6_2 C3_2 1_555 1_555
C4_2 C3_2 1_555 1_555
C5_2 O7_2 1_555 1_555
C6_2 C4_2 1_555 1_555
C7_2 C6_2 1_555 1_555
H7_2 C7_2 1_555 1_555
C8_2 C2_2 1_555 1_555
H8_2 C8_2 1_555 1_555
C9_2 C6_2 1_555 1_555
C10_2 C9_2 1_555 1_555
H9_2 C10_2 1_555 1_555
C11_2 C10_2 1_555 1_555
C12_2 C11_2 1_555 1_555
C13_2 C12_2 1_555 1_555
C14_2 C13_2 1_555 1_555
H10_2 C14_2 1_555 1_555
C15_2 C14_2 1_555 1_555
C16_2 C15_2 1_555 1_555
C17_2 C15_2 1_555 1_555
H11_2 C17_2 1_555 1_555
C18_2 C12_2 1_555 1_555
H12_2 C18_2 1_555 1_555
C21_2 C9_2 1_555 1_555
H15_2 C21_2 1_555 1_555
C23_3 O11_2 1_555 1_555
H16_3 C23_3 1_555 1_555
H17_3 O6_7 1_555 1_555
Sm3_2 O15_4 1_555 1_555
O14_2 Sm8 1_555 1_555
O15_4 H18_4 1_555 1_555
H19_4 O15_4 1_555 1_555
O16_4 Sm3_2 1_555 1_555
O17_4 Sm3_2 1_555 1_555
H20_4 O17_4 1_555 1_555
H21_4 O17_4 1_555 1_555
O26_2 Sm3_2 1_555 1_555
O19_2 C28_4 1_555 1_555
O20_2 Sm8 1_555 1_555
O31 C39_4 1_555 1_555
O33 C39_4 1_555 1_555
O23_2 C45_4 1_555 1_555
C24_4 O16_4 1_555 1_555
C25_4 C24_4 1_555 1_555
C26_4 C25_4 1_555 1_555
H22_4 C26_4 1_555 1_555
C27_4 C26_4 1_555 1_555
C28_4 O20_2 1_555 1_555
C29_4 C27_4 1_555 1_555
C30_4 C29_4 1_555 1_555
H23_4 C30_4 1_555 1_555
C31_4 C25_4 1_555 1_555
H24_4 C31_4 1_555 1_555
C32_4 C29_4 1_555 1_555
C33_4 C32_4 1_555 1_555
H25_4 C33_4 1_555 1_555
C34_4 C33_4 1_555 1_555
C35_4 C34_4 1_555 1_555
C36_4 C35_4 1_555 1_555
C37_4 C36_4 1_555 1_555
H26_4 C37_4 1_555 1_555
C38_4 C37_4 1_555 1_555
C39_4 C38_4 1_555 1_555
C40_4 C38_4 1_555 1_555
H27_4 C40_4 1_555 1_555
C41_4 C35_4 1_555 1_555
H28_4 C41_4 1_555 1_555
C42_4 C34_4 1_555 1_555
H29_4 C42_4 1_555 1_555
C43_4 C42_4 1_555 1_555
H30_4 C43_4 1_555 1_555
C44_4 C32_4 1_555 1_555
H31_4 C44_4 1_555 1_555
C45_4 O14_2 1_555 1_555
Sm5_3 O5_2 1_555 1_555
O5_2 C1_2 1_555 1_555
C4_2 C5_2 1_555 1_555
C7_2 C8_2 1_555 1_555
C13_2 C22_2 1_555 1_555
C17_2 C18_2 1_555 1_555
O14_2 Sm5_3 1_555 1_555
O26_2 C24_4 1_555 1_555
O19_2 Sm5_3 1_555 1_555
O23_2 Sm5_3 1_555 1_555
C27_4 C28_4 1_555 1_555
C30_4 C31_4 1_555 1_555
C36_4 C45_4 1_555 1_555
C40_4 C41_4 1_555 1_555
C43_4 C44_4 1_555 1_555
O6_8 Sm1_6 1_555 1_555
H16_4 C23_4 1_555 1_555
H17_4 O6_8 1_555 1_555
O13_3 C23_4 1_555 1_555
Sm8_3 O13_3 1_555 1_555
O27_2 Sm1_6 1_555 1_555
O35_3 Sm1_6 1_555 1_555
Sm7_2 O27_2 1_555 1_555
Sm4 O1_3 1_555 1_555
Sm8_2 O2_3 1_555 1_555
O1_3 C22_3 1_555 1_555
O2_3 H1_3 1_555 1_555
H2_3 O2_3 1_555 1_555
O3_3 Sm8_2 1_555 1_555
O4_3 Sm8_2 1_555 1_555
H3_3 O4_3 1_555 1_555
H4_3 O4_3 1_555 1_555
O5_3 Sm8_2 1_555 1_555
O6_9 Sm4 1_555 1_555
O7_3 Sm4 1_555 1_555
O8_3 C5_3 1_555 1_555
O9_3 C16_3 1_555 1_555
O10_3 C16_3 1_555 1_555
O11_3 Sm8_2 1_555 1_555
C1_3 O3_3 1_555 1_555
C2_3 C1_3 1_555 1_555
C3_3 C2_3 1_555 1_555
H6_3 C3_3 1_555 1_555
C4_3 C3_3 1_555 1_555
C5_3 O7_3 1_555 1_555
C6_3 C4_3 1_555 1_555
C7_3 C6_3 1_555 1_555
H7_3 C7_3 1_555 1_555
C8_3 C2_3 1_555 1_555
H8_3 C8_3 1_555 1_555
C9_3 C6_3 1_555 1_555
C10_3 C9_3 1_555 1_555
H9_3 C10_3 1_555 1_555
C11_3 C10_3 1_555 1_555
C12_3 C11_3 1_555 1_555
C13_3 C12_3 1_555 1_555
C14_3 C13_3 1_555 1_555
H10_3 C14_3 1_555 1_555
C15_3 C14_3 1_555 1_555
C16_3 C15_3 1_555 1_555
C17_3 C15_3 1_555 1_555
H11_3 C17_3 1_555 1_555
C18_3 C12_3 1_555 1_555
H12_3 C18_3 1_555 1_555
C21_3 C9_3 1_555 1_555
H15_3 C21_3 1_555 1_555
C23_5 O11_3 1_555 1_555
H16_5 C23_5 1_555 1_555
H17_5 O6_9 1_555 1_555
Sm3_3 O15_5 1_555 1_555
O14_3 Sm8_2 1_555 1_555
O15_5 H18_5 1_555 1_555
H19_5 O15_5 1_555 1_555
O16_5 Sm3_3 1_555 1_555
O17_5 Sm3_3 1_555 1_555
H20_5 O17_5 1_555 1_555
H21_5 O17_5 1_555 1_555
O18_2 Sm3_3 1_555 1_555
O19_3 C28_5 1_555 1_555
O20_3 Sm8_2 1_555 1_555
O30 C39_5 1_555 1_555
O32 C39_5 1_555 1_555
O23_3 C45_5 1_555 1_555
C24_5 O16_5 1_555 1_555
C25_5 C24_5 1_555 1_555
C26_5 C25_5 1_555 1_555
H22_5 C26_5 1_555 1_555
C27_5 C26_5 1_555 1_555
C28_5 O20_3 1_555 1_555
C29_5 C27_5 1_555 1_555
C30_5 C29_5 1_555 1_555
H23_5 C30_5 1_555 1_555
C31_5 C25_5 1_555 1_555
H24_5 C31_5 1_555 1_555
C32_5 C29_5 1_555 1_555
C33_5 C32_5 1_555 1_555
H25_5 C33_5 1_555 1_555
C34_5 C33_5 1_555 1_555
C35_5 C34_5 1_555 1_555
C36_5 C35_5 1_555 1_555
C37_5 C36_5 1_555 1_555
H26_5 C37_5 1_555 1_555
C38_5 C37_5 1_555 1_555
C39_5 C38_5 1_555 1_555
C40_5 C38_5 1_555 1_555
H27_5 C40_5 1_555 1_555
C41_5 C35_5 1_555 1_555
H28_5 C41_5 1_555 1_555
C42_5 C34_5 1_555 1_555
H29_5 C42_5 1_555 1_555
C43_5 C42_5 1_555 1_555
H30_5 C43_5 1_555 1_555
C44_5 C32_5 1_555 1_555
H31_5 C44_5 1_555 1_555
C45_5 O14_3 1_555 1_555
Sm4_2 O18_2 1_555 1_555
Sm5_4 O5_3 1_555 1_555
O5_3 C1_3 1_555 1_555
C4_3 C5_3 1_555 1_555
C7_3 C8_3 1_555 1_555
C13_3 C22_3 1_555 1_555
C17_3 C18_3 1_555 1_555
O14_3 Sm5_4 1_555 1_555
O18_2 C24_5 1_555 1_555
O19_3 Sm5_4 1_555 1_555
O23_3 Sm5_4 1_555 1_555
C27_5 C28_5 1_555 1_555
C30_5 C31_5 1_555 1_555
C36_5 C45_5 1_555 1_555
C40_5 C41_5 1_555 1_555
C43_5 C44_5 1_555 1_555
O6_10 Sm4_2 1_555 1_555
H5_5 O6_10 1_555 1_555
O12_3 Sm4_2 1_555 1_555
H13_3 C19_3 1_555 1_555
C20_3 C19_3 1_555 1_555
H14_3 C20_3 1_555 1_555
O6_11 Sm4_3 1_555 1_555
H16_6 C23_6 1_555 1_555
H17_6 O6_11 1_555 1_555
O13_4 C23_6 1_555 1_555
Sm9 O13_4 1_555 1_555
O27_3 Sm4_3 1_555 1_555
O35_4 Sm4_3 1_555 1_555
Sm4_4 O24_2 1_555 1_555
Sm7_3 O27_3 1_555 1_555
O6_12 Sm4_4 1_555 1_555
H5_6 O6_12 1_555 1_555
O28_4 Sm4_4 1_555 1_555
Sm8_3 O2_4 1_555 1_555
O25_2 C22_4 1_555 1_555
O2_4 H1_4 1_555 1_555
H2_4 O2_4 1_555 1_555
O3_4 Sm8_3 1_555 1_555
O4_4 Sm8_3 1_555 1_555
H3_4 O4_4 1_555 1_555
H4_4 O4_4 1_555 1_555
O5_4 Sm8_3 1_555 1_555
O29_3 C5_4 1_555 1_555
O9_4 C16_4 1_555 1_555
O10_4 C16_4 1_555 1_555
C1_4 O3_4 1_555 1_555
C2_4 C1_4 1_555 1_555
C3_4 C2_4 1_555 1_555
H6_4 C3_4 1_555 1_555
C4_4 C3_4 1_555 1_555
C5_4 O28_3 1_555 1_555
C6_4 C4_4 1_555 1_555
C7_4 C6_4 1_555 1_555
H7_4 C7_4 1_555 1_555
C8_4 C2_4 1_555 1_555
H8_4 C8_4 1_555 1_555
C9_4 C6_4 1_555 1_555
C10_4 C9_4 1_555 1_555
H9_4 C10_4 1_555 1_555
C11_4 C10_4 1_555 1_555
C12_4 C11_4 1_555 1_555
C13_4 C12_4 1_555 1_555
C14_4 C13_4 1_555 1_555
H10_4 C14_4 1_555 1_555
C15_4 C14_4 1_555 1_555
C16_4 C15_4 1_555 1_555
C17_4 C15_4 1_555 1_555
H11_4 C17_4 1_555 1_555
C18_4 C12_4 1_555 1_555
H12_4 C18_4 1_555 1_555
C21_4 C9_4 1_555 1_555
H15_4 C21_4 1_555 1_555
Sm7_2 O15_6 1_555 1_555
O14_4 Sm8_3 1_555 1_555
O15_6 H18_6 1_555 1_555
H19_6 O15_6 1_555 1_555
O16_6 Sm7_2 1_555 1_555
O17_6 Sm7_2 1_555 1_555
H20_6 O17_6 1_555 1_555
H21_6 O17_6 1_555 1_555
O19_4 C28_6 1_555 1_555
O20_4 Sm8_3 1_555 1_555
O30_2 C39_6 1_555 1_555
O32_2 C39_6 1_555 1_555
O23_4 C45_6 1_555 1_555
C24_6 O16_6 1_555 1_555
C25_6 C24_6 1_555 1_555
C26_6 C25_6 1_555 1_555
H22_6 C26_6 1_555 1_555
C27_6 C26_6 1_555 1_555
C28_6 O20_4 1_555 1_555
C29_6 C27_6 1_555 1_555
C30_6 C29_6 1_555 1_555
H23_6 C30_6 1_555 1_555
C31_6 C25_6 1_555 1_555
H24_6 C31_6 1_555 1_555
C32_6 C29_6 1_555 1_555
C33_6 C32_6 1_555 1_555
H25_6 C33_6 1_555 1_555
C34_6 C33_6 1_555 1_555
C35_6 C34_6 1_555 1_555
C36_6 C35_6 1_555 1_555
C37_6 C36_6 1_555 1_555
H26_6 C37_6 1_555 1_555
C38_6 C37_6 1_555 1_555
C39_6 C38_6 1_555 1_555
C40_6 C38_6 1_555 1_555
H27_6 C40_6 1_555 1_555
C41_6 C35_6 1_555 1_555
H28_6 C41_6 1_555 1_555
C42_6 C34_6 1_555 1_555
H29_6 C42_6 1_555 1_555
C43_6 C42_6 1_555 1_555
H30_6 C43_6 1_555 1_555
C44_6 C32_6 1_555 1_555
H31_6 C44_6 1_555 1_555
C45_6 O14_4 1_555 1_555
Sm5_3 O5_4 1_555 1_555
O5_4 C1_4 1_555 1_555
C4_4 C5_4 1_555 1_555
C7_4 C8_4 1_555 1_555
C13_4 C22_4 1_555 1_555
C17_4 C18_4 1_555 1_555
O14_4 Sm5_3 1_555 1_555
O27_2 C24_6 1_555 1_555
O19_4 Sm5_3 1_555 1_555
O23_4 Sm5_3 1_555 1_555
C27_6 C28_6 1_555 1_555
C30_6 C31_6 1_555 1_555
C36_6 C45_6 1_555 1_555
C40_6 C41_6 1_555 1_555
C43_6 C44_6 1_555 1_555
H13_4 C19_4 1_555 1_555
C20_4 C19_4 1_555 1_555
H14_4 C20_4 1_555 1_555
H13_5 C19_5 1_555 1_555
C20_5 C19_5 1_555 1_555
H14_5 C20_5 1_555 1_555
Sm9 O2_5 1_555 1_555
O24_2 C22_5 1_555 1_555
O2_5 H1_5 1_555 1_555
H2_5 O2_5 1_555 1_555
O3_5 Sm9 1_555 1_555
O4_5 Sm9 1_555 1_555
H3_5 O4_5 1_555 1_555
H4_5 O4_5 1_555 1_555
O5_5 Sm9 1_555 1_555
O29_4 C5_5 1_555 1_555
O9_5 C16_5 1_555 1_555
O10_5 C16_5 1_555 1_555
C1_5 O3_5 1_555 1_555
C2_5 C1_5 1_555 1_555
C3_5 C2_5 1_555 1_555
H6_5 C3_5 1_555 1_555
C4_5 C3_5 1_555 1_555
C5_5 O28_4 1_555 1_555
C6_5 C4_5 1_555 1_555
C7_5 C6_5 1_555 1_555
H7_5 C7_5 1_555 1_555
C8_5 C2_5 1_555 1_555
H8_5 C8_5 1_555 1_555
C9_5 C6_5 1_555 1_555
C10_5 C9_5 1_555 1_555
H9_5 C10_5 1_555 1_555
C11_5 C10_5 1_555 1_555
C12_5 C11_5 1_555 1_555
C13_5 C12_5 1_555 1_555
C14_5 C13_5 1_555 1_555
H10_5 C14_5 1_555 1_555
C15_5 C14_5 1_555 1_555
C16_5 C15_5 1_555 1_555
C17_5 C15_5 1_555 1_555
H11_5 C17_5 1_555 1_555
C18_5 C12_5 1_555 1_555
H12_5 C18_5 1_555 1_555
C21_5 C9_5 1_555 1_555
H15_5 C21_5 1_555 1_555
Sm7_3 O15_7 1_555 1_555
O14_5 Sm9 1_555 1_555
O15_7 H18_7 1_555 1_555
H19_7 O15_7 1_555 1_555
O16_7 Sm7_3 1_555 1_555
O17_7 Sm7_3 1_555 1_555
H20_7 O17_7 1_555 1_555
H21_7 O17_7 1_555 1_555
O19_5 C28_7 1_555 1_555
O20_5 Sm9 1_555 1_555
O30_3 C39_7 1_555 1_555
O32_3 C39_7 1_555 1_555
O23_5 C45_7 1_555 1_555
C24_7 O16_7 1_555 1_555
C25_7 C24_7 1_555 1_555
C26_7 C25_7 1_555 1_555
H22_7 C26_7 1_555 1_555
C27_7 C26_7 1_555 1_555
C28_7 O20_5 1_555 1_555
C29_7 C27_7 1_555 1_555
C30_7 C29_7 1_555 1_555
H23_7 C30_7 1_555 1_555
C31_7 C25_7 1_555 1_555
H24_7 C31_7 1_555 1_555
C32_7 C29_7 1_555 1_555
C33_7 C32_7 1_555 1_555
H25_7 C33_7 1_555 1_555
C34_7 C33_7 1_555 1_555
C35_7 C34_7 1_555 1_555
C36_7 C35_7 1_555 1_555
C37_7 C36_7 1_555 1_555
H26_7 C37_7 1_555 1_555
C38_7 C37_7 1_555 1_555
C39_7 C38_7 1_555 1_555
C40_7 C38_7 1_555 1_555
H27_7 C40_7 1_555 1_555
C41_7 C35_7 1_555 1_555
H28_7 C41_7 1_555 1_555
C42_7 C34_7 1_555 1_555
H29_7 C42_7 1_555 1_555
C43_7 C42_7 1_555 1_555
H30_7 C43_7 1_555 1_555
C44_7 C32_7 1_555 1_555
H31_7 C44_7 1_555 1_555
C45_7 O14_5 1_555 1_555
Sm5_4 O5_5 1_555 1_555
O5_5 C1_5 1_555 1_555
C4_5 C5_5 1_555 1_555
C7_5 C8_5 1_555 1_555
C13_5 C22_5 1_555 1_555
C17_5 C18_5 1_555 1_555
O14_5 Sm5_4 1_555 1_555
O27_3 C24_7 1_555 1_555
O19_5 Sm5_4 1_555 1_555
O23_5 Sm5_4 1_555 1_555
C27_7 C28_7 1_555 1_555
C30_7 C31_7 1_555 1_555
C36_7 C45_7 1_555 1_555
C40_7 C41_7 1_555 1_555
C43_7 C44_7 1_555 1_555
H16_7 C23_7 1_555 1_555
O13_5 C23_7 1_555 1_555
O6_13 Sm1_7 1_555 1_555
O25_3 Sm1_7 1_555 1_555
O27_4 Sm1_7 1_555 1_555
O28_5 Sm1_7 1_555 1_555
O35_5 Sm1_7 1_555 1_555
Sm9_4 O27_4 1_555 1_555
Sm9_5 O2_6 1_555 1_555
O2_6 H1_6 1_555 1_555
H2_6 O2_6 1_555 1_555
O3_6 Sm9_5 1_555 1_555
O4_6 Sm9_5 1_555 1_555
H3_6 O4_6 1_555 1_555
H4_6 O4_6 1_555 1_555
O5_6 Sm9_5 1_555 1_555
C1_6 O3_6 1_555 1_555
C2_6 C1_6 1_555 1_555
C8_6 C2_6 1_555 1_555
H8_6 C8_6 1_555 1_555
H16_8 C23_8 1_555 1_555
Sm5_5 O5_6 1_555 1_555
O5_6 C1_6 1_555 1_555
Sm1_8 O1_4 1_555 1_555
O1_4 C22_6 1_555 1_555
O6_14 Sm1_8 1_555 1_555
O7_4 Sm1_8 1_555 1_555
O8_4 C5_6 1_555 1_555
O30_4 C16_6 1_555 1_555
O32_4 C16_6 1_555 1_555
O12_4 Sm1_8 1_555 1_555
H6_6 C3_6 1_555 1_555
C4_6 C3_6 1_555 1_555
C5_6 O7_4 1_555 1_555
C6_6 C4_6 1_555 1_555
C7_6 C6_6 1_555 1_555
H7_6 C7_6 1_555 1_555
C9_6 C6_6 1_555 1_555
C10_6 C9_6 1_555 1_555
H9_6 C10_6 1_555 1_555
C11_6 C10_6 1_555 1_555
C12_6 C11_6 1_555 1_555
C13_6 C12_6 1_555 1_555
C14_6 C13_6 1_555 1_555
H10_6 C14_6 1_555 1_555
C15_6 C14_6 1_555 1_555
C16_6 C15_6 1_555 1_555
C17_6 C15_6 1_555 1_555
H11_6 C17_6 1_555 1_555
C18_6 C12_6 1_555 1_555
H12_6 C18_6 1_555 1_555
C19_6 C11_6 1_555 1_555
H13_6 C19_6 1_555 1_555
C20_6 C19_6 1_555 1_555
H14_6 C20_6 1_555 1_555
C21_6 C9_6 1_555 1_555
H15_6 C21_6 1_555 1_555
C22_6 O12_4 1_555 1_555
O26_3 Sm1_8 1_555 1_555
C4_6 C5_6 1_555 1_555
C13_6 C22_6 1_555 1_555
C17_6 C18_6 1_555 1_555
C20_6 C21_6 1_555 1_555
H16_9 C23_9 1_555 1_555
C23_10 O11_4 1_555 1_555
H16_10 C23_10 1_555 1_555
O19_6 C28_8 1_555 1_555
O30_5 C39_8 1_555 1_555
O32_5 C39_8 1_555 1_555
O23_6 C45_8 1_555 1_555
H22_8 C26_8 1_555 1_555
C27_8 C26_8 1_555 1_555
C28_8 O20_6 1_555 1_555
C29_8 C27_8 1_555 1_555
C30_8 C29_8 1_555 1_555
H23_8 C30_8 1_555 1_555
C32_8 C29_8 1_555 1_555
C33_8 C32_8 1_555 1_555
H25_8 C33_8 1_555 1_555
C34_8 C33_8 1_555 1_555
C35_8 C34_8 1_555 1_555
C36_8 C35_8 1_555 1_555
C37_8 C36_8 1_555 1_555
H26_8 C37_8 1_555 1_555
C38_8 C37_8 1_555 1_555
C39_8 C38_8 1_555 1_555
C40_8 C38_8 1_555 1_555
H27_8 C40_8 1_555 1_555
C41_8 C35_8 1_555 1_555
H28_8 C41_8 1_555 1_555
C42_8 C34_8 1_555 1_555
H29_8 C42_8 1_555 1_555
C43_8 C42_8 1_555 1_555
H30_8 C43_8 1_555 1_555
C44_8 C32_8 1_555 1_555
H31_8 C44_8 1_555 1_555
C45_8 O14_6 1_555 1_555
O14_6 Sm5_6 1_555 1_555
O19_6 Sm5_6 1_555 1_555
O23_6 Sm5_6 1_555 1_555
C27_8 C28_8 1_555 1_555
C36_8 C45_8 1_555 1_555
C40_8 C41_8 1_555 1_555
C43_8 C44_8 1_555 1_555
Sm9_2 O15_8 1_555 1_555
O15_8 H18_8 1_555 1_555
H19_8 O15_8 1_555 1_555
O16_8 Sm9_2 1_555 1_555
O17_8 Sm9_2 1_555 1_555
H20_8 O17_8 1_555 1_555
H21_8 O17_8 1_555 1_555
O26_3 Sm9_2 1_555 1_555
C24_8 O16_8 1_555 1_555
C25_8 C24_8 1_555 1_555
C31_8 C25_8 1_555 1_555
H24_8 C31_8 1_555 1_555
O26_3 C24_8 1_555 1_555
Sm5_5 O24_3 1_555 1_555
H16_11 C23_11 1_555 1_555
O6_15 Sm5_5 1_555 1_555
O28_6 Sm5_5 1_555 1_555
O35_6 Sm5_5 1_555 1_555
H16_12 C23_12 1_555 1_555
O13_6 C23_12 1_555 1_555
Sm9_3 O15_9 1_555 1_555
O15_9 H18_9 1_555 1_555
H19_9 O15_9 1_555 1_555
O16_9 Sm9_3 1_555 1_555
O17_9 Sm9_3 1_555 1_555
H20_9 O17_9 1_555 1_555
H21_9 O17_9 1_555 1_555
O18_3 Sm9_3 1_555 1_555
C24_9 O16_9 1_555 1_555
C25_9 C24_9 1_555 1_555
C31_9 C25_9 1_555 1_555
H24_9 C31_9 1_555 1_555
Sm5_6 O18_3 1_555 1_555
O18_3 C24_9 1_555 1_555
C23_13 O34_6 1_555 1_555
H16_13 C23_13 1_555 1_555
O28_5 C28_9 1_555 1_555
O30_6 C39_9 1_555 1_555
O32_6 C39_9 1_555 1_555
O35_5 C45_9 1_555 1_555
H22_9 C26_9 1_555 1_555
C27_9 C26_9 1_555 1_555
C28_9 O29_5 1_555 1_555
C29_9 C27_9 1_555 1_555
C30_9 C29_9 1_555 1_555
H23_9 C30_9 1_555 1_555
C32_9 C29_9 1_555 1_555
C33_9 C32_9 1_555 1_555
H25_9 C33_9 1_555 1_555
C34_9 C33_9 1_555 1_555
C35_9 C34_9 1_555 1_555
C36_9 C35_9 1_555 1_555
C37_9 C36_9 1_555 1_555
H26_9 C37_9 1_555 1_555
C38_9 C37_9 1_555 1_555
C39_9 C38_9 1_555 1_555
C40_9 C38_9 1_555 1_555
H27_9 C40_9 1_555 1_555
C41_9 C35_9 1_555 1_555
H28_9 C41_9 1_555 1_555
C42_9 C34_9 1_555 1_555
H29_9 C42_9 1_555 1_555
C43_9 C42_9 1_555 1_555
H30_9 C43_9 1_555 1_555
C44_9 C32_9 1_555 1_555
H31_9 C44_9 1_555 1_555
C45_9 O25_3 1_555 1_555
C27_9 C28_9 1_555 1_555
C36_9 C45_9 1_555 1_555
C40_9 C41_9 1_555 1_555
C43_9 C44_9 1_555 1_555
O6_16 Sm5_6 1_555 1_555
H16_14 C23_14 1_555 1_555
O28_6 C28_10 1_555 1_555
O30_7 C39_10 1_555 1_555
O32_7 C39_10 1_555 1_555
O35_6 C45_10 1_555 1_555
H22_10 C26_10 1_555 1_555
C27_10 C26_10 1_555 1_555
C28_10 O29_6 1_555 1_555
C29_10 C27_10 1_555 1_555
C30_10 C29_10 1_555 1_555
H23_10 C30_10 1_555 1_555
C32_10 C29_10 1_555 1_555
C33_10 C32_10 1_555 1_555
H25_10 C33_10 1_555 1_555
C34_10 C33_10 1_555 1_555
C35_10 C34_10 1_555 1_555
C36_10 C35_10 1_555 1_555
C37_10 C36_10 1_555 1_555
H26_10 C37_10 1_555 1_555
C38_10 C37_10 1_555 1_555
C39_10 C38_10 1_555 1_555
C40_10 C38_10 1_555 1_555
H27_10 C40_10 1_555 1_555
C41_10 C35_10 1_555 1_555
H28_10 C41_10 1_555 1_555
C42_10 C34_10 1_555 1_555
H29_10 C42_10 1_555 1_555
C43_10 C42_10 1_555 1_555
H30_10 C43_10 1_555 1_555
C44_10 C32_10 1_555 1_555
H31_10 C44_10 1_555 1_555
C45_10 O24_3 1_555 1_555
C27_10 C28_10 1_555 1_555
C36_10 C45_10 1_555 1_555
C40_10 C41_10 1_555 1_555
C43_10 C44_10 1_555 1_555
Sm9_4 O15_10 1_555 1_555
O15_10 H18_10 1_555 1_555
H19_10 O15_10 1_555 1_555
O16_10 Sm9_4 1_555 1_555
O17_10 Sm9_4 1_555 1_555
H20_10 O17_10 1_555 1_555
H21_10 O17_10 1_555 1_555
C24_10 O16_10 1_555 1_555
C25_10 C24_10 1_555 1_555
C31_10 C25_10 1_555 1_555
H24_10 C31_10 1_555 1_555
O27_4 C24_10 1_555 1_555
O6_17 Sm5_4 1_555 1_555
H5_11 O6_17 1_555 1_555
H16_15 C23_15 1_555 1_555
H17_11 O6_17 1_555 1_555
O34_5 C23_15 1_555 1_555
C23_16 O34_3 1_555 1_555
H16_16 C23_16 1_555 1_555
C23_17 O34_4 1_555 1_555
H16_17 C23_17 1_555 1_555
O6_18 Sm5_3 1_555 1_555
H5_12 O6_18 1_555 1_555
H16_18 C23_18 1_555 1_555
H17_12 O6_18 1_555 1_555
O34_2 C23_18 1_555 1_555

#END
