
###############################################################################
#
# This file contains modified crystal structure data generated from the
# MOF subset of the Cambridge Structural Database (CSD) v543 
# hosted by the Cambridge Crystallographic Data Centre (CCDC).
#
# This work is licensed under the Creative Commons
# Attribution-NonCommercial-ShareAlike 4.0 International License.
# To view a copy of this license, visit
# http://creativecommons.org/licenses/by-nc-sa/4.0/
# or send a letter to
# Creative Commons, PO Box 1866, Mountain View, CA 94042, USA.
#
# CIF created using the CSD Python API on 29 September 2022
# The structure has been converted into the P1 space group
# The structure has a 3D framework
# The original CSD entry IZISEQ is in the tetragonal crystal system
# The framework has been calculated to contain at least 10.0% void space
# The void calculation uses a probe of radius 1.32A, grid spacing 0.4
# The framework is charged, counterions have been retained in the structure
#
###############################################################################

data_IZISEQ
_chemical_formula_moiety         '(C256 H416 N32 Ni12 O16 Si32 24+)n'
_symmetry_cell_setting           triclinic
_symmetry_space_group_name_H-M   'P 1'
_symmetry_Int_Tables_number      1
_space_group_name_Hall           'P 1'
loop_
_symmetry_equiv_pos_site_id
_symmetry_equiv_pos_as_xyz
1 x,y,z
_cell_length_a                   22.9094(12)
_cell_length_b                   22.9094(12)
_cell_length_c                   16.3322(18)
_cell_angle_alpha                90
_cell_angle_beta                 90
_cell_angle_gamma                90
_cell_volume                     8571.8
loop_
_atom_site_label
_atom_site_type_symbol
_atom_site_fract_x
_atom_site_fract_y
_atom_site_fract_z
Ni3 Ni -0.0000 0.2500 0.1250
Si4 Si 0.09503(7) 0.02909(7) 0.01654(13)
N4 N 0.04484(19) 0.20267(19) 0.0349(3)
C11 C 0.0525(2) 0.1449(2) 0.0444(3)
H19 H 0.0344 0.1268 0.0901
C26 C 0.1017(4) 0.0226(3) 0.1294(6)
H34 H 0.0662 0.0378 0.1554
H37 H 0.1355 0.0452 0.1482
Ni1 Ni -0.0000 0.7500 0.8750
Si1 Si 0.22091(7) 0.65497(7) 0.76654(13)
N1 N 0.04733(19) 0.70516(19) 0.7849(3)
C1 C 0.1051(2) 0.6975(2) 0.7944(3)
H2 H 0.1232 0.7156 0.8401
C2 C 0.1407(2) 0.6646(2) 0.7418(4)
C3 C 0.1125(3) 0.6402(2) 0.6741(4)
H3 H 0.1344 0.6184 0.6353
C4 C 0.0531(3) 0.6475(2) 0.6631(4)
H4 H 0.0340 0.6306 0.6172
C5 C 0.0220(3) 0.6797(2) 0.7200(3)
C6 C 0.2274(3) 0.6483(4) 0.8794(6)
H6 H 0.2685 0.6431 0.8943
H7 H 0.2122 0.6838 0.9054
H8 H 0.2048 0.6145 0.8982
C7 C 0.2475(4) 0.5878(3) 0.7152(8)
H9 H 0.2890 0.5822 0.7276
H10 H 0.2252 0.5541 0.7351
H11 H 0.2423 0.5916 0.6559
C8 C 0.2603(3) 0.7212(2) 0.7302(4)
H12 H 0.2554 0.7243 0.6701
H13 H 0.3025 0.7162 0.7414
Ni2 Ni 0.5000 0.7500 0.6250
Si2 Si 0.27909(7) 0.84503(7) 0.73346(13)
O2 O 0.06502(17) 0.81502(17) 0.8750
H15 H 0.0649 0.8325 0.8298
H16 H 0.0825 0.8149 0.9202
N2 N 0.45267(19) 0.79484(19) 0.7151(3)
N6 N 0.04484(19) 0.70267(19) 0.9651(3)
C9 C 0.3949(2) 0.8025(2) 0.7056(3)
H17 H 0.3768 0.7844 0.6599
C12 C 0.3593(2) 0.8354(2) 0.7582(4)
C15 C 0.3875(3) 0.8598(2) 0.8259(4)
H20 H 0.3656 0.8816 0.8647
C18 C 0.4469(3) 0.8525(2) 0.8369(4)
H23 H 0.4660 0.8694 0.8828
C21 C 0.4780(3) 0.8203(2) 0.7800(3)
H26 H 0.5189 0.8160 0.7873
C24 C 0.2726(3) 0.8517(4) 0.6206(6)
H29 H 0.2315 0.8569 0.6057
H32 H 0.2878 0.8162 0.5946
H35 H 0.2952 0.8855 0.6018
C27 C 0.2525(4) 0.9122(3) 0.7848(8)
H38 H 0.2110 0.9178 0.7724
H40 H 0.1678 0.9610 0.9776
H41 H 0.2748 0.9459 0.7649
H44 H 0.2577 0.9084 0.8441
C30 C 0.2397(3) 0.7788(2) 0.7698(4)
C32 C 0.0288(2) 0.9897(3) 0.9802(4)
H47 H 0.2446 0.7757 0.8299
H49 H 0.0257 0.9946 0.9201
H50 H 0.1975 0.7838 0.7586
H52 H 0.0338 0.9475 0.9914
Ni3_2 Ni 1.0000 0.2500 0.1250
H39 H 0.8322 0.0390 0.0224
C31 C 0.9712(2) 0.0103(3) 0.0198(4)
H48 H 0.9743 0.0054 0.0799
H51 H 0.9662 0.0525 0.0086
Ni1_2 Ni 1.0000 0.7500 0.8750
O1 O 0.93498(17) 0.68498(17) 0.8750
H1 H 0.9351 0.6675 0.8298
H5 H 0.9811 0.6840 0.7127
Si3 Si 0.90497(7) 0.97091(7) 0.98346(13)
H14 H 0.9175 0.6851 0.9202
N3 N 0.95516(19) 0.79733(19) 0.9651(3)
N5 N 0.95267(19) 0.79484(19) 0.7849(3)
C10 C 0.9475(2) 0.8551(2) 0.9556(3)
H18 H 0.9656 0.8732 0.9099
C25 C 0.8983(4) 0.9774(3) 0.8706(6)
H33 H 0.9338 0.9622 0.8446
H36 H 0.8645 0.9548 0.8518
Ni1_3 Ni 0.5000 0.2500 0.3750
Si1_2 Si 0.27909(7) 0.34503(7) 0.26654(13)
O1_2 O 0.56502(17) 0.31502(17) 0.3750
H1_2 H 0.5649 0.3325 0.3298
N1_2 N 0.45267(19) 0.29484(19) 0.2849(3)
C1_2 C 0.3949(2) 0.3025(2) 0.2944(3)
H2_2 H 0.3768 0.2844 0.3401
C2_2 C 0.3593(2) 0.3354(2) 0.2418(4)
C3_2 C 0.3875(3) 0.3598(2) 0.1741(4)
H3_2 H 0.3656 0.3816 0.1353
C4_2 C 0.4469(3) 0.3525(2) 0.1631(4)
H4_2 H 0.4660 0.3694 0.1172
C5_2 C 0.4780(3) 0.3203(2) 0.2200(3)
H5_2 H 0.5189 0.3160 0.2127
C6_2 C 0.2726(3) 0.3517(4) 0.3794(6)
H6_2 H 0.2315 0.3569 0.3943
H7_2 H 0.2878 0.3162 0.4054
H8_2 H 0.2952 0.3855 0.3982
C7_2 C 0.2525(4) 0.4122(3) 0.2152(8)
H9_2 H 0.2110 0.4178 0.2276
H10_2 H 0.2748 0.4459 0.2351
H11_2 H 0.2577 0.4084 0.1559
C8_2 C 0.2397(3) 0.2788(2) 0.2302(4)
H12_2 H 0.2446 0.2757 0.1701
H13_2 H 0.1975 0.2838 0.2414
Si2_2 Si 0.22091(7) 0.15497(7) 0.23346(13)
Si3_2 Si 0.59503(7) 0.02909(7) 0.48346(13)
O2_2 O 0.43498(17) 0.18498(17) 0.3750
H14_2 H 0.5825 0.3149 0.4202
H15_2 H 0.4351 0.1675 0.3298
H16_2 H 0.4175 0.1851 0.4202
N2_2 N 0.04733(19) 0.20516(19) 0.2151(3)
N3_2 N 0.54484(19) 0.20267(19) 0.4651(3)
N5_2 N 0.54733(19) 0.20516(19) 0.2849(3)
N6_2 N 0.45516(19) 0.29733(19) 0.4651(3)
C9_2 C 0.1051(2) 0.1975(2) 0.2056(3)
C10_2 C 0.5525(2) 0.1449(2) 0.4556(3)
H17_2 H 0.1232 0.2156 0.1599
H18_2 H 0.5344 0.1268 0.4099
C12_2 C 0.1407(2) 0.1646(2) 0.2582(4)
C13 C 0.5854(2) 0.1093(2) 0.5082(4)
C15_2 C 0.1125(3) 0.1402(2) 0.3259(4)
C16 C 0.6098(2) 0.1375(3) 0.5759(4)
H20_2 H 0.1344 0.1184 0.3647
H21 H 0.6316 0.1156 0.6147
C18_2 C 0.0531(3) 0.1475(2) 0.3369(4)
C19 C 0.6025(2) 0.1969(3) 0.5869(4)
H23_2 H 0.0340 0.1306 0.3828
H24 H 0.6194 0.2160 0.6328
C21_2 C 0.0220(3) 0.1797(2) 0.2800(3)
C22 C 0.5703(2) 0.2280(3) 0.5300(3)
H27 H 0.5660 0.2689 0.5373
C24_2 C 0.2274(3) 0.1483(4) 0.1206(6)
C25_2 C 0.6017(4) 0.0226(3) 0.3706(6)
H29_2 H 0.2685 0.1431 0.1057
H31 H 0.3931 0.0185 0.6443
H32_2 H 0.2122 0.1838 0.0946
H33_2 H 0.5662 0.0378 0.3446
H35_2 H 0.2048 0.1145 0.1018
H36_2 H 0.6355 0.0452 0.3518
C27_2 C 0.2475(4) 0.0878(3) 0.2848(8)
C28 C 0.6622(3) 0.0025(4) 0.5348(8)
H38_2 H 0.2890 0.0822 0.2724
H40_2 H 0.3322 0.0390 0.4776
H41_2 H 0.2252 0.0541 0.2649
H42 H 0.6959 0.0248 0.5149
H44_2 H 0.2423 0.0916 0.3441
H45 H 0.6584 0.0077 0.5941
C30_2 C 0.2603(3) 0.2212(2) 0.2698(4)
C32_2 C 0.4712(2) 0.0103(3) 0.4802(4)
H47_2 H 0.2554 0.2243 0.3299
H49_2 H 0.4743 0.0054 0.4201
H50_2 H 0.3025 0.2162 0.2586
H52_2 H 0.4662 0.0525 0.4914
Si4_2 Si 0.40497(7) 0.97091(7) 0.51654(13)
N4_2 N 0.45516(19) 0.79733(19) 0.5349(3)
C11_2 C 0.4475(2) 0.8551(2) 0.5444(3)
H19_2 H 0.4656 0.8732 0.5901
C14 C 0.4146(2) 0.8907(2) 0.4918(4)
C17 C 0.3902(2) 0.8625(3) 0.4241(4)
H22 H 0.3684 0.8844 0.3853
C20 C 0.3975(2) 0.8031(3) 0.4131(4)
H25 H 0.3806 0.7840 0.3672
C23 C 0.4297(2) 0.7720(3) 0.4700(3)
H28 H 0.4340 0.7311 0.4627
C26_2 C 0.3983(4) 0.9774(3) 0.6294(6)
H30 H 0.6069 0.9815 0.3557
H34_2 H 0.4338 0.9622 0.6554
H37_2 H 0.3645 0.9548 0.6482
C29 C 0.3378(3) 0.9975(4) 0.4652(8)
H39_2 H 0.6678 0.9610 0.5224
H43 H 0.3041 0.9752 0.4851
H46 H 0.3416 0.9923 0.4059
C31_2 C 0.5288(2) 0.9897(3) 0.5198(4)
H48_2 H 0.5257 0.9946 0.5799
H51_2 H 0.5338 0.9475 0.5086
H26_2 H 0.9811 0.1840 0.2873
H26_3 H 0.0189 0.3160 0.2873
Si1_3 Si 0.72091(7) 0.15497(7) 0.26654(13)
C1_3 C 0.6051(2) 0.1975(2) 0.2944(3)
H2_3 H 0.6232 0.2156 0.3401
C2_3 C 0.6407(2) 0.1646(2) 0.2418(4)
C3_3 C 0.6125(3) 0.1402(2) 0.1741(4)
H3_3 H 0.6344 0.1184 0.1353
C4_3 C 0.5531(3) 0.1475(2) 0.1631(4)
H4_3 H 0.5340 0.1306 0.1172
C5_3 C 0.5220(3) 0.1797(2) 0.2200(3)
H5_3 H 0.4811 0.1840 0.2127
C6_3 C 0.7274(3) 0.1483(4) 0.3794(6)
H6_3 H 0.7685 0.1431 0.3943
H7_3 H 0.7122 0.1838 0.4054
H8_3 H 0.7048 0.1145 0.3982
C7_3 C 0.7475(4) 0.0878(3) 0.2152(8)
H9_3 H 0.7890 0.0822 0.2276
H10_3 H 0.7252 0.0541 0.2351
H11_3 H 0.7423 0.0916 0.1559
C8_3 C 0.7603(3) 0.2212(2) 0.2302(4)
H12_3 H 0.7554 0.2243 0.1701
H13_3 H 0.8025 0.2162 0.2414
Si2_3 Si 0.77909(7) 0.34503(7) 0.23346(13)
Si3_3 Si 0.40497(7) 0.47091(7) 0.48346(13)
Si4_3 Si 0.59503(7) 0.52909(7) 0.51654(13)
N2_3 N 0.95267(19) 0.29484(19) 0.2151(3)
N4_3 N 0.54484(19) 0.70267(19) 0.5349(3)
C9_3 C 0.8949(2) 0.3025(2) 0.2056(3)
C10_3 C 0.4475(2) 0.3551(2) 0.4556(3)
C11_3 C 0.5525(2) 0.6449(2) 0.5444(3)
H17_3 H 0.8768 0.2844 0.1599
H18_3 H 0.4656 0.3732 0.4099
H19_3 H 0.5344 0.6268 0.5901
C12_3 C 0.8593(2) 0.3354(2) 0.2582(4)
C13_2 C 0.4146(2) 0.3907(2) 0.5082(4)
C14_2 C 0.5854(2) 0.6093(2) 0.4918(4)
C15_3 C 0.8875(3) 0.3598(2) 0.3259(4)
C16_2 C 0.3902(2) 0.3625(3) 0.5759(4)
C17_2 C 0.6098(2) 0.6375(3) 0.4241(4)
H20_3 H 0.8656 0.3816 0.3647
H21_2 H 0.3684 0.3844 0.6147
H22_2 H 0.6316 0.6156 0.3853
C18_3 C 0.9469(3) 0.3525(2) 0.3369(4)
C19_2 C 0.3975(2) 0.3031(3) 0.5869(4)
C20_2 C 0.6025(2) 0.6969(3) 0.4131(4)
H23_3 H 0.9660 0.3694 0.3828
H24_2 H 0.3806 0.2840 0.6328
H25_2 H 0.6194 0.7160 0.3672
C21_3 C 0.9780(3) 0.3203(2) 0.2800(3)
C22_2 C 0.4297(2) 0.2720(3) 0.5300(3)
C23_2 C 0.5703(2) 0.7280(3) 0.4700(3)
H27_2 H 0.4340 0.2311 0.5373
H28_2 H 0.5660 0.7689 0.4627
C24_3 C 0.7726(3) 0.3517(4) 0.1206(6)
C25_3 C 0.3983(4) 0.4774(3) 0.3706(6)
C26_3 C 0.6017(4) 0.5226(3) 0.6294(6)
H29_3 H 0.7315 0.3569 0.1057
H30_2 H 0.3931 0.5185 0.3557
H31_2 H 0.6069 0.4815 0.6443
H32_3 H 0.7878 0.3162 0.0946
H33_3 H 0.4338 0.4622 0.3446
H34_3 H 0.5662 0.5378 0.6554
H35_3 H 0.7952 0.3855 0.1018
H36_3 H 0.3645 0.4548 0.3518
H37_3 H 0.6355 0.5452 0.6482
C27_3 C 0.7525(4) 0.4122(3) 0.2848(8)
C28_2 C 0.3378(3) 0.4975(4) 0.5348(8)
C29_2 C 0.6622(3) 0.5025(4) 0.4652(8)
H38_3 H 0.7110 0.4178 0.2724
H39_3 H 0.3322 0.5390 0.5224
H40_3 H 0.6678 0.4610 0.4776
H41_3 H 0.7748 0.4459 0.2649
H42_2 H 0.3041 0.4752 0.5149
H43_2 H 0.6959 0.5248 0.4851
H44_3 H 0.7577 0.4084 0.3441
H45_2 H 0.3416 0.4923 0.5941
H46_2 H 0.6584 0.5077 0.4059
C30_3 C 0.7397(3) 0.2788(2) 0.2698(4)
C31_3 C 0.4712(2) 0.5103(3) 0.5198(4)
C32_3 C 0.5288(2) 0.4897(3) 0.4802(4)
H47_3 H 0.7446 0.2757 0.3299
H48_3 H 0.4743 0.5054 0.5799
H49_3 H 0.5257 0.4946 0.4201
H50_3 H 0.6975 0.2838 0.2586
H51_3 H 0.4662 0.5525 0.5086
H52_3 H 0.5338 0.4475 0.4914
C13_3 C 0.0854(2) 0.6093(2) 0.0082(4)
C16_3 C 0.1098(2) 0.6375(3) 0.0759(4)
H21_3 H 0.1316 0.6156 0.1147
C19_3 C 0.1025(2) 0.6969(3) 0.0869(4)
H24_3 H 0.1194 0.7160 0.1328
C22_3 C 0.0703(2) 0.7280(3) 0.0300(3)
H27_3 H 0.0660 0.7689 0.0373
C28_3 C 0.1622(3) 0.5025(4) 0.0348(8)
H39_4 H 0.1678 0.4610 0.0224
H42_3 H 0.1959 0.5248 0.0149
H45_3 H 0.1584 0.5077 0.0941
C31_4 C 0.0288(2) 0.4897(3) 0.0198(4)
H48_4 H 0.0257 0.4946 0.0799
H51_4 H 0.0338 0.4475 0.0086
H5_4 H 0.0189 0.8160 0.7127
Si3_4 Si 0.09503(7) 0.52909(7) 0.98346(13)
C10_4 C 0.0525(2) 0.6449(2) 0.9556(3)
H18_4 H 0.0344 0.6268 0.9099
C25_4 C 0.1017(4) 0.5226(3) 0.8706(6)
H30_3 H 0.1069 0.4815 0.8557
H33_4 H 0.0662 0.5378 0.8446
H36_4 H 0.1355 0.5452 0.8518
Si4_4 Si 0.90497(7) 0.47091(7) 0.01654(13)
N4_4 N 0.95516(19) 0.29733(19) 0.0349(3)
C11_4 C 0.9475(2) 0.3551(2) 0.0444(3)
H19_4 H 0.9656 0.3732 0.0901
C26_4 C 0.8983(4) 0.4774(3) 0.1294(6)
H31_3 H 0.8931 0.5185 0.1443
H34_4 H 0.9338 0.4622 0.1554
H37_4 H 0.8645 0.4548 0.1482
Si1_4 Si 0.77909(7) 0.84503(7) 0.76654(13)
C1_4 C 0.8949(2) 0.8025(2) 0.7944(3)
H2_4 H 0.8768 0.7844 0.8401
C2_4 C 0.8593(2) 0.8354(2) 0.7418(4)
C3_4 C 0.8875(3) 0.8598(2) 0.6741(4)
H3_4 H 0.8656 0.8816 0.6353
C4_4 C 0.9469(3) 0.8525(2) 0.6631(4)
H4_4 H 0.9660 0.8694 0.6172
C5_4 C 0.9780(3) 0.8203(2) 0.7200(3)
C6_4 C 0.7726(3) 0.8517(4) 0.8794(6)
H6_4 H 0.7315 0.8569 0.8943
H7_4 H 0.7878 0.8162 0.9054
H8_4 H 0.7952 0.8855 0.8982
C7_4 C 0.7525(4) 0.9122(3) 0.7152(8)
H9_4 H 0.7110 0.9178 0.7276
H10_4 H 0.7748 0.9459 0.7351
H11_4 H 0.7577 0.9084 0.6559
C8_4 C 0.7397(3) 0.7788(2) 0.7302(4)
H12_4 H 0.7446 0.7757 0.6701
H13_4 H 0.6975 0.7838 0.7414
Si2_4 Si 0.72091(7) 0.65497(7) 0.73346(13)
N2_4 N 0.54733(19) 0.70516(19) 0.7151(3)
C9_4 C 0.6051(2) 0.6975(2) 0.7056(3)
H17_4 H 0.6232 0.7156 0.6599
C12_4 C 0.6407(2) 0.6646(2) 0.7582(4)
C14_3 C 0.9146(2) 0.3907(2) 0.9918(4)
C15_4 C 0.6125(3) 0.6402(2) 0.8259(4)
C17_3 C 0.8902(2) 0.3625(3) 0.9241(4)
H20_4 H 0.6344 0.6184 0.8647
H22_3 H 0.8684 0.3844 0.8853
C18_4 C 0.5531(3) 0.6475(2) 0.8369(4)
C20_3 C 0.8975(2) 0.3031(3) 0.9131(4)
H23_4 H 0.5340 0.6306 0.8828
H25_3 H 0.8806 0.2840 0.8672
C21_4 C 0.5220(3) 0.6797(2) 0.7800(3)
C23_3 C 0.9297(2) 0.2720(3) 0.9700(3)
H26_4 H 0.4811 0.6840 0.7873
H28_3 H 0.9340 0.2311 0.9627
C24_4 C 0.7274(3) 0.6483(4) 0.6206(6)
H29_4 H 0.7685 0.6431 0.6057
H32_4 H 0.7122 0.6838 0.5946
H35_4 H 0.7048 0.6145 0.6018
C27_4 C 0.7475(4) 0.5878(3) 0.7848(8)
C29_3 C 0.8378(3) 0.4975(4) 0.9652(8)
H38_4 H 0.7890 0.5822 0.7724
H40_4 H 0.8322 0.5390 0.9776
H41_4 H 0.7252 0.5541 0.7649
H43_3 H 0.8041 0.4752 0.9851
H44_4 H 0.7423 0.5916 0.8441
H46_3 H 0.8416 0.4923 0.9059
C30_4 C 0.7603(3) 0.7212(2) 0.7698(4)
C32_4 C 0.9712(2) 0.5103(3) 0.9802(4)
H47_4 H 0.7554 0.7243 0.8299
H49_4 H 0.9743 0.5054 0.9201
H50_4 H 0.8025 0.7162 0.7586
H52_4 H 0.9662 0.5525 0.9914
O1_3 O 0.06502(17) 0.31502(17) 0.1250
H1_3 H 0.0649 0.3325 0.1702
H14_3 H 0.0825 0.3149 0.0798
O2_3 O 0.93498(17) 0.18498(17) 0.1250
H15_3 H 0.9351 0.1675 0.1702
H16_3 H 0.9175 0.1851 0.0798
O1_4 O 0.43498(17) 0.68498(17) 0.6250
H1_4 H 0.4351 0.6675 0.6702
O2_4 O 0.56502(17) 0.81502(17) 0.6250
H14_4 H 0.4175 0.6851 0.5798
H15_4 H 0.5649 0.8325 0.6702
H16_4 H 0.5825 0.8149 0.5798
C14_4 C 0.0854(2) 0.1093(2) 0.9918(4)
C17_4 C 0.1098(2) 0.1375(3) 0.9241(4)
H22_4 H 0.1316 0.1156 0.8853
C20_4 C 0.1025(2) 0.1969(3) 0.9131(4)
H25_4 H 0.1194 0.2160 0.8672
C23_4 C 0.0703(2) 0.2280(3) 0.9700(3)
H28_4 H 0.0660 0.2689 0.9627
C29_4 C 0.1622(3) 0.0025(4) 0.9652(8)
H43_4 H 0.1959 0.0248 0.9851
H46_4 H 0.1584 0.0077 0.9059
H31_4 H 0.1069 0.9815 0.1443
H30_4 H 0.8931 0.0185 0.8557
C13_4 C 0.9146(2) 0.8907(2) 0.0082(4)
C16_4 C 0.8902(2) 0.8625(3) 0.0759(4)
H21_4 H 0.8684 0.8844 0.1147
C19_4 C 0.8975(2) 0.8031(3) 0.0869(4)
H24_4 H 0.8806 0.7840 0.1328
C22_4 C 0.9297(2) 0.7720(3) 0.0300(3)
H27_4 H 0.9340 0.7311 0.0373
C28_4 C 0.8378(3) 0.9975(4) 0.0348(8)
H42_4 H 0.8041 0.9752 0.0149
H45_4 H 0.8416 0.9923 0.0941
H6_5 H 0.6069 0.0185 0.1443
C12_5 C 0.4146(2) 0.1093(2) 0.0082(4)
C15_5 C 0.3902(2) 0.1375(3) 0.0759(4)
H20_5 H 0.3684 0.1156 0.1147
C18_5 C 0.3975(2) 0.1969(3) 0.0869(4)
H23_5 H 0.3806 0.2160 0.1328
C21_5 C 0.4297(2) 0.2280(3) 0.0300(3)
H26_5 H 0.4340 0.2689 0.0373
C27_5 C 0.3378(3) 0.0025(4) 0.0348(8)
H41_5 H 0.3041 0.0248 0.0149
H44_5 H 0.3416 0.0077 0.0941
H9_5 H 0.6678 0.0390 0.9776
C8_5 C 0.5288(2) 0.0103(3) 0.9802(4)
H12_5 H 0.5257 0.0054 0.9201
H13_5 H 0.5338 0.0525 0.9914
Ni2_2 Ni 0.5000 0.2500 0.8750
Si2_5 Si 0.40497(7) 0.02909(7) 0.98346(13)
N2_5 N 0.45516(19) 0.20267(19) 0.9651(3)
C9_5 C 0.4475(2) 0.1449(2) 0.9556(3)
H17_5 H 0.4656 0.1268 0.9099
C24_5 C 0.3983(4) 0.0226(3) 0.8706(6)
H32_5 H 0.4338 0.0378 0.8446
H35_5 H 0.3645 0.0452 0.8518
Ni1_4 Ni 0.5000 0.7500 0.1250
Si1_5 Si 0.59503(7) 0.97091(7) 0.01654(13)
O1_5 O 0.56502(17) 0.68498(17) 0.1250
H1_5 H 0.5825 0.6851 0.0798
N1_3 N 0.54484(19) 0.79733(19) 0.0349(3)
C1_5 C 0.5525(2) 0.8551(2) 0.0444(3)
H2_5 H 0.5344 0.8732 0.0901
C6_5 C 0.6017(4) 0.9774(3) 0.1294(6)
H7_5 H 0.5662 0.9622 0.1554
H8_5 H 0.6355 0.9548 0.1482
Ni3_3 Ni -0.0000 0.7500 0.3750
Si3_5 Si 0.27909(7) 0.65497(7) 0.23346(13)
Si4_5 Si 0.22091(7) 0.84503(7) 0.26654(13)
O2_5 O 0.43498(17) 0.81502(17) 0.1250
H14_5 H 0.5649 0.6675 0.1702
H15_5 H 0.4175 0.8149 0.0798
H16_5 H 0.4351 0.8325 0.1702
N3_3 N 0.45267(19) 0.70516(19) 0.2151(3)
N4_5 N 0.04733(19) 0.79484(19) 0.2849(3)
N5_3 N 0.45516(19) 0.70267(19) 0.0349(3)
N6_3 N 0.54733(19) 0.79484(19) 0.2151(3)
C10_5 C 0.3949(2) 0.6975(2) 0.2056(3)
C11_5 C 0.1051(2) 0.8025(2) 0.2944(3)
H18_5 H 0.3768 0.7156 0.1599
H19_5 H 0.1232 0.7844 0.3401
C13_5 C 0.3593(2) 0.6646(2) 0.2582(4)
C14_5 C 0.1407(2) 0.8354(2) 0.2418(4)
C16_5 C 0.3875(3) 0.6402(2) 0.3259(4)
C17_5 C 0.1125(3) 0.8598(2) 0.1741(4)
H21_5 H 0.3656 0.6184 0.3647
H22_5 H 0.1344 0.8816 0.1353
C19_5 C 0.4469(3) 0.6475(2) 0.3369(4)
C20_5 C 0.0531(3) 0.8525(2) 0.1631(4)
H24_5 H 0.4660 0.6306 0.3828
H25_5 H 0.0340 0.8694 0.1172
C22_5 C 0.4780(3) 0.6797(2) 0.2800(3)
C23_5 C 0.0220(3) 0.8203(2) 0.2200(3)
H27_5 H 0.5189 0.6840 0.2873
C25_5 C 0.2726(3) 0.6483(4) 0.1206(6)
C26_5 C 0.2274(3) 0.8517(4) 0.3794(6)
H30_5 H 0.2315 0.6431 0.1057
H31_5 H 0.2685 0.8569 0.3943
H33_5 H 0.2878 0.6838 0.0946
H34_5 H 0.2122 0.8162 0.4054
H36_5 H 0.2952 0.6145 0.1018
H37_5 H 0.2048 0.8855 0.3982
C28_5 C 0.2525(4) 0.5878(3) 0.2848(8)
C29_5 C 0.2475(4) 0.9122(3) 0.2152(8)
H38_5 H 0.3322 0.9610 0.0224
H39_5 H 0.2110 0.5822 0.2724
H40_5 H 0.2890 0.9178 0.2276
H42_5 H 0.2748 0.5541 0.2649
H43_5 H 0.2252 0.9459 0.2351
H45_5 H 0.2577 0.5916 0.3441
H46_5 H 0.2423 0.9084 0.1559
C30_5 C 0.4712(2) 0.9897(3) 0.0198(4)
C31_5 C 0.2397(3) 0.7212(2) 0.2698(4)
C32_5 C 0.2603(3) 0.7788(2) 0.2302(4)
H47_5 H 0.4743 0.9946 0.0799
H48_5 H 0.2446 0.7243 0.3299
H49_5 H 0.2554 0.7757 0.1701
H50_5 H 0.4662 0.9475 0.0086
H51_5 H 0.1975 0.7162 0.2586
H52_5 H 0.3025 0.7838 0.2414
Ni3_4 Ni 1.0000 0.7500 0.3750
H28_5 H 0.9811 0.8160 0.2127
Ni1_5 Ni -0.0000 0.2500 0.6250
Si3_6 Si 0.22091(7) 0.34503(7) 0.73346(13)
Si4_6 Si 0.27909(7) 0.15497(7) 0.76654(13)
O2_6 O 0.06502(17) 0.18498(17) 0.6250
H15_6 H 0.0825 0.1851 0.5798
H16_6 H 0.0649 0.1675 0.6702
N3_4 N 0.04733(19) 0.29484(19) 0.7151(3)
N4_6 N 0.45267(19) 0.20516(19) 0.7849(3)
N5_4 N 0.04484(19) 0.29733(19) 0.5349(3)
C10_6 C 0.1051(2) 0.3025(2) 0.7056(3)
C11_6 C 0.3949(2) 0.1975(2) 0.7944(3)
H18_6 H 0.1232 0.2844 0.6599
H19_6 H 0.3768 0.2156 0.8401
C13_6 C 0.1407(2) 0.3354(2) 0.7582(4)
C14_6 C 0.3593(2) 0.1646(2) 0.7418(4)
C16_6 C 0.1125(3) 0.3598(2) 0.8259(4)
C17_6 C 0.3875(3) 0.1402(2) 0.6741(4)
H21_6 H 0.1344 0.3816 0.8647
H22_6 H 0.3656 0.1184 0.6353
C19_6 C 0.0531(3) 0.3525(2) 0.8369(4)
C20_6 C 0.4469(3) 0.1475(2) 0.6631(4)
H24_6 H 0.0340 0.3694 0.8828
H25_6 H 0.4660 0.1306 0.6172
C22_6 C 0.0220(3) 0.3203(2) 0.7800(3)
C23_6 C 0.4780(3) 0.1797(2) 0.7200(3)
H28_6 H 0.5189 0.1840 0.7127
C25_6 C 0.2274(3) 0.3517(4) 0.6206(6)
C26_6 C 0.2726(3) 0.1483(4) 0.8794(6)
H29_5 H 0.1069 0.0185 0.3557
H30_6 H 0.2685 0.3569 0.6057
H31_6 H 0.2315 0.1431 0.8943
H33_6 H 0.2122 0.3162 0.5946
H34_6 H 0.2878 0.1838 0.9054
H36_6 H 0.2048 0.3855 0.6018
H37_6 H 0.2952 0.1145 0.8982
C28_6 C 0.2475(4) 0.4122(3) 0.7848(8)
C29_6 C 0.2525(4) 0.0878(3) 0.7152(8)
H38_6 H 0.1678 0.0390 0.5224
H39_6 H 0.2890 0.4178 0.7724
H40_6 H 0.2110 0.0822 0.7276
H42_6 H 0.2252 0.4459 0.7649
H43_6 H 0.2748 0.0541 0.7351
H45_6 H 0.2423 0.4084 0.8441
H46_6 H 0.2577 0.0916 0.6559
C30_6 C 0.0288(2) 0.0103(3) 0.5198(4)
C31_6 C 0.2603(3) 0.2788(2) 0.7698(4)
C32_6 C 0.2397(3) 0.2212(2) 0.7302(4)
H47_6 H 0.0257 0.0054 0.5799
H48_6 H 0.2554 0.2757 0.8299
H49_6 H 0.2446 0.2243 0.6701
H50_6 H 0.0338 0.0525 0.5086
H51_6 H 0.3025 0.2838 0.7586
H52_6 H 0.1975 0.2162 0.7414
Si2_6 Si 0.09503(7) 0.97091(7) 0.48346(13)
N2_6 N 0.04484(19) 0.79733(19) 0.4651(3)
C9_6 C 0.0525(2) 0.8551(2) 0.4556(3)
H17_6 H 0.0344 0.8732 0.4099
C12_6 C 0.0854(2) 0.8907(2) 0.5082(4)
C15_6 C 0.1098(2) 0.8625(3) 0.5759(4)
H20_6 H 0.1316 0.8844 0.6147
C18_6 C 0.1025(2) 0.8031(3) 0.5869(4)
H23_6 H 0.1194 0.7840 0.6328
C21_6 C 0.0703(2) 0.7720(3) 0.5300(3)
H26_6 H 0.0660 0.7311 0.5373
C24_6 C 0.1017(4) 0.9774(3) 0.3706(6)
H32_6 H 0.0662 0.9622 0.3446
H35_6 H 0.1355 0.9548 0.3518
C27_6 C 0.1622(3) 0.9975(4) 0.5348(8)
H41_6 H 0.1959 0.9752 0.5149
H44_6 H 0.1584 0.9923 0.5941
Ni1_6 Ni 1.0000 0.2500 0.6250
Si1_6 Si 0.90497(7) 0.02909(7) 0.51654(13)
O1_6 O 0.93498(17) 0.31502(17) 0.6250
H1_6 H 0.9175 0.3149 0.5798
N1_4 N 0.95516(19) 0.20267(19) 0.5349(3)
C1_6 C 0.9475(2) 0.1449(2) 0.5444(3)
H2_6 H 0.9656 0.1268 0.5901
C2_5 C 0.9146(2) 0.1093(2) 0.4918(4)
C3_5 C 0.8902(2) 0.1375(3) 0.4241(4)
H3_5 H 0.8684 0.1156 0.3853
C4_5 C 0.8975(2) 0.1969(3) 0.4131(4)
H4_5 H 0.8806 0.2160 0.3672
C5_5 C 0.9297(2) 0.2280(3) 0.4700(3)
H5_5 H 0.9340 0.2689 0.4627
C6_6 C 0.8983(4) 0.0226(3) 0.6294(6)
H7_6 H 0.9338 0.0378 0.6554
H8_6 H 0.8645 0.0452 0.6482
C7_5 C 0.8378(3) 0.0025(4) 0.4652(8)
H10_5 H 0.8041 0.0248 0.4851
H11_5 H 0.8416 0.0077 0.4059
H14_6 H 0.9351 0.3325 0.6702
N6_4 N 0.95267(19) 0.20516(19) 0.7151(3)
H27_6 H 0.9811 0.3160 0.7873
H6_6 H 0.8931 0.9815 0.6443
H9_6 H 0.8322 0.9610 0.4776
C8_6 C 0.9712(2) 0.9897(3) 0.4802(4)
H12_6 H 0.9743 0.9946 0.4201
H13_6 H 0.9662 0.9475 0.4914
Si1_7 Si 0.09503(7) 0.47091(7) 0.51654(13)
C1_7 C 0.0525(2) 0.3551(2) 0.5444(3)
H2_7 H 0.0344 0.3732 0.5901
C2_6 C 0.0854(2) 0.3907(2) 0.4918(4)
C3_6 C 0.1098(2) 0.3625(3) 0.4241(4)
H3_6 H 0.1316 0.3844 0.3853
C4_6 C 0.1025(2) 0.3031(3) 0.4131(4)
H4_6 H 0.1194 0.2840 0.3672
C5_6 C 0.0703(2) 0.2720(3) 0.4700(3)
H5_6 H 0.0660 0.2311 0.4627
C6_7 C 0.1017(4) 0.4774(3) 0.6294(6)
H6_7 H 0.1069 0.5185 0.6443
H7_7 H 0.0662 0.4622 0.6554
H8_7 H 0.1355 0.4548 0.6482
C7_6 C 0.1622(3) 0.4975(4) 0.4652(8)
H9_7 H 0.1678 0.5390 0.4776
H10_6 H 0.1959 0.4752 0.4851
H11_6 H 0.1584 0.4923 0.4059
C8_7 C 0.0288(2) 0.5103(3) 0.4802(4)
H12_7 H 0.0257 0.5054 0.4201
H13_7 H 0.0338 0.5525 0.4914
H27_7 H 0.0189 0.1840 0.7873
Si2_7 Si 0.90497(7) 0.52909(7) 0.48346(13)
Si3_7 Si 0.77909(7) 0.15497(7) 0.73346(13)
Si4_7 Si 0.72091(7) 0.34503(7) 0.76654(13)
N2_7 N 0.95516(19) 0.70267(19) 0.4651(3)
N4_7 N 0.54733(19) 0.29484(19) 0.7849(3)
C9_7 C 0.9475(2) 0.6449(2) 0.4556(3)
C10_7 C 0.8949(2) 0.1975(2) 0.7056(3)
C11_7 C 0.6051(2) 0.3025(2) 0.7944(3)
H17_7 H 0.9656 0.6268 0.4099
H18_7 H 0.8768 0.2156 0.6599
H19_7 H 0.6232 0.2844 0.8401
C12_7 C 0.9146(2) 0.6093(2) 0.5082(4)
C13_7 C 0.8593(2) 0.1646(2) 0.7582(4)
C14_7 C 0.6407(2) 0.3354(2) 0.7418(4)
C15_7 C 0.8902(2) 0.6375(3) 0.5759(4)
C16_7 C 0.8875(3) 0.1402(2) 0.8259(4)
C17_7 C 0.6125(3) 0.3598(2) 0.6741(4)
H20_7 H 0.8684 0.6156 0.6147
H21_7 H 0.8656 0.1184 0.8647
H22_7 H 0.6344 0.3816 0.6353
C18_7 C 0.8975(2) 0.6969(3) 0.5869(4)
C19_7 C 0.9469(3) 0.1475(2) 0.8369(4)
C20_7 C 0.5531(3) 0.3525(2) 0.6631(4)
H23_7 H 0.8806 0.7160 0.6328
H24_7 H 0.9660 0.1306 0.8828
H25_7 H 0.5340 0.3694 0.6172
C21_7 C 0.9297(2) 0.7280(3) 0.5300(3)
C22_7 C 0.9780(3) 0.1797(2) 0.7800(3)
C23_7 C 0.5220(3) 0.3203(2) 0.7200(3)
H26_7 H 0.9340 0.7689 0.5373
H28_7 H 0.4811 0.3160 0.7127
C24_7 C 0.8983(4) 0.5226(3) 0.3706(6)
C25_7 C 0.7726(3) 0.1483(4) 0.6206(6)
C26_7 C 0.7274(3) 0.3517(4) 0.8794(6)
H29_6 H 0.8931 0.4815 0.3557
H30_7 H 0.7315 0.1431 0.6057
H31_7 H 0.7685 0.3569 0.8943
H32_7 H 0.9338 0.5378 0.3446
H33_7 H 0.7878 0.1838 0.5946
H34_7 H 0.7122 0.3162 0.9054
H35_7 H 0.8645 0.5452 0.3518
H36_7 H 0.7952 0.1145 0.6018
H37_7 H 0.7048 0.3855 0.8982
C27_7 C 0.8378(3) 0.5025(4) 0.5348(8)
C28_7 C 0.7525(4) 0.0878(3) 0.7848(8)
C29_7 C 0.7475(4) 0.4122(3) 0.7152(8)
H38_7 H 0.8322 0.4610 0.5224
H39_7 H 0.7110 0.0822 0.7724
H40_7 H 0.7890 0.4178 0.7276
H41_7 H 0.8041 0.5248 0.5149
H42_7 H 0.7748 0.0541 0.7649
H43_7 H 0.7252 0.4459 0.7351
H44_7 H 0.8416 0.5077 0.5941
H45_7 H 0.7577 0.0916 0.8441
H46_7 H 0.7423 0.4084 0.6559
C30_7 C 0.9712(2) 0.4897(3) 0.5198(4)
C31_7 C 0.7397(3) 0.2212(2) 0.7698(4)
C32_7 C 0.7603(3) 0.2788(2) 0.7302(4)
H47_7 H 0.9743 0.4946 0.5799
H48_7 H 0.7446 0.2243 0.8299
H49_7 H 0.7554 0.2757 0.6701
H50_7 H 0.9662 0.4475 0.5086
H51_7 H 0.6975 0.2162 0.7586
H52_7 H 0.8025 0.2838 0.7414
H28_8 H 0.0189 0.6840 0.2127
Si1_8 Si 0.40497(7) 0.52909(7) 0.01654(13)
C1_8 C 0.4475(2) 0.6449(2) 0.0444(3)
H2_8 H 0.4656 0.6268 0.0901
C6_8 C 0.3983(4) 0.5226(3) 0.1294(6)
H6_8 H 0.3931 0.4815 0.1443
H7_8 H 0.4338 0.5378 0.1554
H8_8 H 0.3645 0.5452 0.1482
Si3_8 Si 0.72091(7) 0.84503(7) 0.23346(13)
Si4_8 Si 0.77909(7) 0.65497(7) 0.26654(13)
N4_8 N 0.95267(19) 0.70516(19) 0.2849(3)
C10_8 C 0.6051(2) 0.8025(2) 0.2056(3)
C11_8 C 0.8949(2) 0.6975(2) 0.2944(3)
H18_8 H 0.6232 0.7844 0.1599
H19_8 H 0.8768 0.7156 0.3401
C12_8 C 0.5854(2) 0.3907(2) 0.0082(4)
C13_8 C 0.6407(2) 0.8354(2) 0.2582(4)
C14_8 C 0.8593(2) 0.6646(2) 0.2418(4)
C15_8 C 0.6098(2) 0.3625(3) 0.0759(4)
C16_8 C 0.6125(3) 0.8598(2) 0.3259(4)
C17_8 C 0.8875(3) 0.6402(2) 0.1741(4)
H20_8 H 0.6316 0.3844 0.1147
H21_8 H 0.6344 0.8816 0.3647
H22_8 H 0.8656 0.6184 0.1353
C18_8 C 0.6025(2) 0.3031(3) 0.0869(4)
C19_8 C 0.5531(3) 0.8525(2) 0.3369(4)
C20_8 C 0.9469(3) 0.6475(2) 0.1631(4)
H23_8 H 0.6194 0.2840 0.1328
H24_8 H 0.5340 0.8694 0.3828
H25_8 H 0.9660 0.6306 0.1172
C21_8 C 0.5703(2) 0.2720(3) 0.0300(3)
C22_8 C 0.5220(3) 0.8203(2) 0.2800(3)
C23_8 C 0.9780(3) 0.6797(2) 0.2200(3)
H26_8 H 0.5660 0.2311 0.0373
H27_8 H 0.4811 0.8160 0.2873
C25_8 C 0.7274(3) 0.8517(4) 0.1206(6)
C26_8 C 0.7726(3) 0.6483(4) 0.3794(6)
H30_8 H 0.7685 0.8569 0.1057
H31_8 H 0.7315 0.6431 0.3943
H33_8 H 0.7122 0.8162 0.0946
H34_8 H 0.7878 0.6838 0.4054
H36_8 H 0.7048 0.8855 0.1018
H37_8 H 0.7952 0.6145 0.3982
C27_8 C 0.6622(3) 0.4975(4) 0.0348(8)
C28_8 C 0.7475(4) 0.9122(3) 0.2848(8)
C29_8 C 0.7525(4) 0.5878(3) 0.2152(8)
H38_8 H 0.6678 0.5390 0.0224
H39_8 H 0.7890 0.9178 0.2724
H40_8 H 0.7110 0.5822 0.2276
H41_8 H 0.6959 0.4752 0.0149
H42_8 H 0.7252 0.9459 0.2649
H43_8 H 0.7748 0.5541 0.2351
H44_8 H 0.6584 0.4923 0.0941
H45_8 H 0.7423 0.9084 0.3441
H46_8 H 0.7577 0.5916 0.1559
C30_8 C 0.5288(2) 0.5103(3) 0.0198(4)
C31_8 C 0.7603(3) 0.7788(2) 0.2698(4)
C32_8 C 0.7397(3) 0.7212(2) 0.2302(4)
H47_8 H 0.5257 0.5054 0.0799
H48_8 H 0.7554 0.7757 0.3299
H49_8 H 0.7446 0.7243 0.1701
H50_8 H 0.5338 0.5525 0.0086
H51_8 H 0.8025 0.7838 0.2586
H52_8 H 0.6975 0.7162 0.2414
C2_7 C 0.4146(2) 0.6093(2) 0.9918(4)
C3_7 C 0.3902(2) 0.6375(3) 0.9241(4)
H3_7 H 0.3684 0.6156 0.8853
C4_7 C 0.3975(2) 0.6969(3) 0.9131(4)
H4_7 H 0.3806 0.7160 0.8672
C5_7 C 0.4297(2) 0.7280(3) 0.9700(3)
H5_7 H 0.4340 0.7689 0.9627
C7_7 C 0.3378(3) 0.5025(4) 0.9652(8)
H9_8 H 0.3322 0.4610 0.9776
H10_7 H 0.3041 0.5248 0.9851
H11_7 H 0.3416 0.5077 0.9059
C8_8 C 0.4712(2) 0.4897(3) 0.9802(4)
H12_8 H 0.4743 0.4946 0.9201
H13_8 H 0.4662 0.4475 0.9914
Si2_8 Si 0.59503(7) 0.47091(7) 0.98346(13)
N2_8 N 0.54484(19) 0.29733(19) 0.9651(3)
C9_8 C 0.5525(2) 0.3551(2) 0.9556(3)
H17_8 H 0.5344 0.3732 0.9099
C24_8 C 0.6017(4) 0.4774(3) 0.8706(6)
H29_7 H 0.6069 0.5185 0.8557
H32_8 H 0.5662 0.4622 0.8446
H35_8 H 0.6355 0.4548 0.8518
O1_7 O 0.43498(17) 0.31502(17) 0.8750
H1_7 H 0.4175 0.3149 0.9202
O2_7 O 0.56502(17) 0.18498(17) 0.8750
H14_7 H 0.4351 0.3325 0.8298
H15_7 H 0.5825 0.1851 0.9202
H16_7 H 0.5649 0.1675 0.8298
O1_8 O 0.06502(17) 0.68498(17) 0.3750
H1_8 H 0.0825 0.6851 0.4202
H14_8 H 0.0649 0.6675 0.3298
O2_8 O 0.93498(17) 0.81502(17) 0.3750
H15_8 H 0.9175 0.8149 0.4202
H16_8 H 0.9351 0.8325 0.3298
C2_8 C 0.5854(2) 0.8907(2) 0.9918(4)
C3_8 C 0.6098(2) 0.8625(3) 0.9241(4)
H3_8 H 0.6316 0.8844 0.8853
C4_8 C 0.6025(2) 0.8031(3) 0.9131(4)
H4_8 H 0.6194 0.7840 0.8672
C5_8 C 0.5703(2) 0.7720(3) 0.9700(3)
H5_8 H 0.5660 0.7311 0.9627
C7_8 C 0.6622(3) 0.9975(4) 0.9652(8)
H10_8 H 0.6959 0.9752 0.9851
H11_8 H 0.6584 0.9923 0.9059
H29_8 H 0.3931 0.9815 0.8557
loop_
_geom_bond_atom_site_label_1
_geom_bond_atom_site_label_2
_geom_bond_site_symmetry_1
_geom_bond_site_symmetry_2
Ni3 N4 1_555 1_555
N4 C11 1_555 1_555
C11 H19 1_555 1_555
C26 Si4 1_555 1_555
H34 C26 1_555 1_555
H37 C26 1_555 1_555
Si1 C2 1_555 1_555
N1 Ni1 1_555 1_555
C1 N1 1_555 1_555
H2 C1 1_555 1_555
C2 C1 1_555 1_555
C3 C2 1_555 1_555
H3 C3 1_555 1_555
C4 C3 1_555 1_555
H4 C4 1_555 1_555
C5 N1 1_555 1_555
C6 Si1 1_555 1_555
H6 C6 1_555 1_555
H7 C6 1_555 1_555
H8 C6 1_555 1_555
C7 Si1 1_555 1_555
H9 C7 1_555 1_555
H10 C7 1_555 1_555
H11 C7 1_555 1_555
C8 Si1 1_555 1_555
H12 C8 1_555 1_555
H13 C8 1_555 1_555
Ni2 N2 1_555 1_555
Si2 C12 1_555 1_555
O2 Ni1 1_555 1_555
H15 O2 1_555 1_555
H16 O2 1_555 1_555
N2 C9 1_555 1_555
N6 Ni1 1_555 1_555
C9 H17 1_555 1_555
C12 C9 1_555 1_555
C15 C12 1_555 1_555
H20 C15 1_555 1_555
C18 C15 1_555 1_555
H23 C18 1_555 1_555
C21 N2 1_555 1_555
H26 C21 1_555 1_555
C24 Si2 1_555 1_555
H29 C24 1_555 1_555
H32 C24 1_555 1_555
H35 C24 1_555 1_555
C27 Si2 1_555 1_555
H38 C27 1_555 1_555
H41 C27 1_555 1_555
H44 C27 1_555 1_555
C30 C8 1_555 1_555
H47 C30 1_555 1_555
H49 C32 1_555 1_555
H50 C30 1_555 1_555
H52 C32 1_555 1_555
C4 C5 1_555 1_555
Si2 C30 1_555 1_555
C18 C21 1_555 1_555
H48 C31 1_555 1_555
H51 C31 1_555 1_555
Ni1_2 O1 1_555 1_555
O1 H1 1_555 1_555
H14 O1 1_555 1_555
N3 Ni1_2 1_555 1_555
N5 Ni1_2 1_555 1_555
C10 N3 1_555 1_555
H18 C10 1_555 1_555
C25 Si3 1_555 1_555
H33 C25 1_555 1_555
H36 C25 1_555 1_555
Ni1_3 O1_2 1_555 1_555
Si1_2 C2_2 1_555 1_555
O1_2 H1_2 1_555 1_555
N1_2 Ni1_3 1_555 1_555
C1_2 N1_2 1_555 1_555
H2_2 C1_2 1_555 1_555
C2_2 C1_2 1_555 1_555
C3_2 C2_2 1_555 1_555
H3_2 C3_2 1_555 1_555
C4_2 C3_2 1_555 1_555
H4_2 C4_2 1_555 1_555
C5_2 N1_2 1_555 1_555
H5_2 C5_2 1_555 1_555
C6_2 Si1_2 1_555 1_555
H6_2 C6_2 1_555 1_555
H7_2 C6_2 1_555 1_555
H8_2 C6_2 1_555 1_555
C7_2 Si1_2 1_555 1_555
H9_2 C7_2 1_555 1_555
H10_2 C7_2 1_555 1_555
H11_2 C7_2 1_555 1_555
C8_2 Si1_2 1_555 1_555
H12_2 C8_2 1_555 1_555
H13_2 C8_2 1_555 1_555
Ni3 N2_2 1_555 1_555
Si2_2 C12_2 1_555 1_555
Si3_2 C13 1_555 1_555
O2_2 Ni1_3 1_555 1_555
H14_2 O1_2 1_555 1_555
H15_2 O2_2 1_555 1_555
H16_2 O2_2 1_555 1_555
N2_2 C9_2 1_555 1_555
N3_2 Ni1_3 1_555 1_555
N5_2 Ni1_3 1_555 1_555
N6_2 Ni1_3 1_555 1_555
C9_2 H17_2 1_555 1_555
C10_2 N3_2 1_555 1_555
H18_2 C10_2 1_555 1_555
C12_2 C9_2 1_555 1_555
C13 C10_2 1_555 1_555
C15_2 C12_2 1_555 1_555
C16 C13 1_555 1_555
H20_2 C15_2 1_555 1_555
H21 C16 1_555 1_555
C18_2 C15_2 1_555 1_555
C19 C16 1_555 1_555
H23_2 C18_2 1_555 1_555
H24 C19 1_555 1_555
C21_2 N2_2 1_555 1_555
C22 N3_2 1_555 1_555
H27 C22 1_555 1_555
C24_2 Si2_2 1_555 1_555
C25_2 Si3_2 1_555 1_555
H29_2 C24_2 1_555 1_555
H32_2 C24_2 1_555 1_555
H33_2 C25_2 1_555 1_555
H35_2 C24_2 1_555 1_555
H36_2 C25_2 1_555 1_555
C27_2 Si2_2 1_555 1_555
C28 Si3_2 1_555 1_555
H38_2 C27_2 1_555 1_555
H41_2 C27_2 1_555 1_555
H42 C28 1_555 1_555
H44_2 C27_2 1_555 1_555
H45 C28 1_555 1_555
C30_2 C8_2 1_555 1_555
H47_2 C30_2 1_555 1_555
H49_2 C32_2 1_555 1_555
H50_2 C30_2 1_555 1_555
H52_2 C32_2 1_555 1_555
C4_2 C5_2 1_555 1_555
Si2_2 C30_2 1_555 1_555
C18_2 C21_2 1_555 1_555
C19 C22 1_555 1_555
Ni2 N4_2 1_555 1_555
Si4_2 C14 1_555 1_555
N4_2 C11_2 1_555 1_555
C11_2 H19_2 1_555 1_555
C14 C11_2 1_555 1_555
C17 C14 1_555 1_555
H22 C17 1_555 1_555
C20 C17 1_555 1_555
H25 C20 1_555 1_555
C23 N4_2 1_555 1_555
H28 C23 1_555 1_555
C26_2 Si4_2 1_555 1_555
H34_2 C26_2 1_555 1_555
H37_2 C26_2 1_555 1_555
C29 Si4_2 1_555 1_555
H43 C29 1_555 1_555
H46 C29 1_555 1_555
H48_2 C31_2 1_555 1_555
H51_2 C31_2 1_555 1_555
C20 C23 1_555 1_555
Si1_3 C2_3 1_555 1_555
C1_3 N5_2 1_555 1_555
H2_3 C1_3 1_555 1_555
C2_3 C1_3 1_555 1_555
C3_3 C2_3 1_555 1_555
H3_3 C3_3 1_555 1_555
C4_3 C3_3 1_555 1_555
H4_3 C4_3 1_555 1_555
C5_3 N5_2 1_555 1_555
H5_3 C5_3 1_555 1_555
C6_3 Si1_3 1_555 1_555
H6_3 C6_3 1_555 1_555
H7_3 C6_3 1_555 1_555
H8_3 C6_3 1_555 1_555
C7_3 Si1_3 1_555 1_555
H9_3 C7_3 1_555 1_555
H10_3 C7_3 1_555 1_555
H11_3 C7_3 1_555 1_555
C8_3 Si1_3 1_555 1_555
H12_3 C8_3 1_555 1_555
H13_3 C8_3 1_555 1_555
Ni3_2 N2_3 1_555 1_555
Ni2 N4_3 1_555 1_555
Si2_3 C12_3 1_555 1_555
Si3_3 C13_2 1_555 1_555
Si4_3 C14_2 1_555 1_555
N2_3 C9_3 1_555 1_555
N4_3 C11_3 1_555 1_555
C9_3 H17_3 1_555 1_555
C10_3 N6_2 1_555 1_555
C11_3 H19_3 1_555 1_555
H18_3 C10_3 1_555 1_555
C12_3 C9_3 1_555 1_555
C13_2 C10_3 1_555 1_555
C14_2 C11_3 1_555 1_555
C15_3 C12_3 1_555 1_555
C16_2 C13_2 1_555 1_555
C17_2 C14_2 1_555 1_555
H20_3 C15_3 1_555 1_555
H21_2 C16_2 1_555 1_555
H22_2 C17_2 1_555 1_555
C18_3 C15_3 1_555 1_555
C19_2 C16_2 1_555 1_555
C20_2 C17_2 1_555 1_555
H23_3 C18_3 1_555 1_555
H24_2 C19_2 1_555 1_555
H25_2 C20_2 1_555 1_555
C21_3 N2_3 1_555 1_555
C22_2 N6_2 1_555 1_555
C23_2 N4_3 1_555 1_555
H27_2 C22_2 1_555 1_555
H28_2 C23_2 1_555 1_555
C24_3 Si2_3 1_555 1_555
C25_3 Si3_3 1_555 1_555
C26_3 Si4_3 1_555 1_555
H29_3 C24_3 1_555 1_555
H30_2 C25_3 1_555 1_555
H31_2 C26_3 1_555 1_555
H32_3 C24_3 1_555 1_555
H33_3 C25_3 1_555 1_555
H34_3 C26_3 1_555 1_555
H35_3 C24_3 1_555 1_555
H36_3 C25_3 1_555 1_555
H37_3 C26_3 1_555 1_555
C27_3 Si2_3 1_555 1_555
C28_2 Si3_3 1_555 1_555
C29_2 Si4_3 1_555 1_555
H38_3 C27_3 1_555 1_555
H39_3 C28_2 1_555 1_555
H40_3 C29_2 1_555 1_555
H41_3 C27_3 1_555 1_555
H42_2 C28_2 1_555 1_555
H43_2 C29_2 1_555 1_555
H44_3 C27_3 1_555 1_555
H45_2 C28_2 1_555 1_555
H46_2 C29_2 1_555 1_555
C30_3 C8_3 1_555 1_555
C31_3 Si3_3 1_555 1_555
C32_3 Si4_3 1_555 1_555
H47_3 C30_3 1_555 1_555
H48_3 C31_3 1_555 1_555
H49_3 C32_3 1_555 1_555
H50_3 C30_3 1_555 1_555
H51_3 C31_3 1_555 1_555
H52_3 C32_3 1_555 1_555
C4_3 C5_3 1_555 1_555
Si2_3 C30_3 1_555 1_555
C18_3 C21_3 1_555 1_555
C19_2 C22_2 1_555 1_555
C20_2 C23_2 1_555 1_555
C31_3 C32_3 1_555 1_555
C16_3 C13_3 1_555 1_555
H21_3 C16_3 1_555 1_555
C19_3 C16_3 1_555 1_555
H24_3 C19_3 1_555 1_555
H27_3 C22_3 1_555 1_555
H39_4 C28_3 1_555 1_555
H42_3 C28_3 1_555 1_555
H45_3 C28_3 1_555 1_555
H48_4 C31_4 1_555 1_555
H51_4 C31_4 1_555 1_555
C19_3 C22_3 1_555 1_555
C10_4 N6 1_555 1_555
H18_4 C10_4 1_555 1_555
C25_4 Si3_4 1_555 1_555
H30_3 C25_4 1_555 1_555
H33_4 C25_4 1_555 1_555
H36_4 C25_4 1_555 1_555
Ni3_2 N4_4 1_555 1_555
N4_4 C11_4 1_555 1_555
C11_4 H19_4 1_555 1_555
C26_4 Si4_4 1_555 1_555
H31_3 C26_4 1_555 1_555
H34_4 C26_4 1_555 1_555
H37_4 C26_4 1_555 1_555
Si1_4 C2_4 1_555 1_555
C1_4 N5 1_555 1_555
H2_4 C1_4 1_555 1_555
C2_4 C1_4 1_555 1_555
C3_4 C2_4 1_555 1_555
H3_4 C3_4 1_555 1_555
C4_4 C3_4 1_555 1_555
H4_4 C4_4 1_555 1_555
C5_4 N5 1_555 1_555
C6_4 Si1_4 1_555 1_555
H6_4 C6_4 1_555 1_555
H7_4 C6_4 1_555 1_555
H8_4 C6_4 1_555 1_555
C7_4 Si1_4 1_555 1_555
H9_4 C7_4 1_555 1_555
H10_4 C7_4 1_555 1_555
H11_4 C7_4 1_555 1_555
C8_4 Si1_4 1_555 1_555
H12_4 C8_4 1_555 1_555
H13_4 C8_4 1_555 1_555
Ni2 N2_4 1_555 1_555
Si2_4 C12_4 1_555 1_555
N2_4 C9_4 1_555 1_555
C9_4 H17_4 1_555 1_555
C12_4 C9_4 1_555 1_555
C15_4 C12_4 1_555 1_555
C17_3 C14_3 1_555 1_555
H20_4 C15_4 1_555 1_555
H22_3 C17_3 1_555 1_555
C18_4 C15_4 1_555 1_555
C20_3 C17_3 1_555 1_555
H23_4 C18_4 1_555 1_555
H25_3 C20_3 1_555 1_555
C21_4 N2_4 1_555 1_555
H26_4 C21_4 1_555 1_555
H28_3 C23_3 1_555 1_555
C24_4 Si2_4 1_555 1_555
H29_4 C24_4 1_555 1_555
H32_4 C24_4 1_555 1_555
H35_4 C24_4 1_555 1_555
C27_4 Si2_4 1_555 1_555
H38_4 C27_4 1_555 1_555
H40_4 C29_3 1_555 1_555
H41_4 C27_4 1_555 1_555
H43_3 C29_3 1_555 1_555
H44_4 C27_4 1_555 1_555
H46_3 C29_3 1_555 1_555
C30_4 C8_4 1_555 1_555
H47_4 C30_4 1_555 1_555
H49_4 C32_4 1_555 1_555
H50_4 C30_4 1_555 1_555
H52_4 C32_4 1_555 1_555
C4_4 C5_4 1_555 1_555
Si2_4 C30_4 1_555 1_555
C18_4 C21_4 1_555 1_555
C20_3 C23_3 1_555 1_555
Ni3 O1_3 1_555 1_555
O1_3 H1_3 1_555 1_555
H14_3 O1_3 1_555 1_555
O2_3 Ni3_2 1_555 1_555
H15_3 O2_3 1_555 1_555
H16_3 O2_3 1_555 1_555
Ni2 O1_4 1_555 1_555
O1_4 H1_4 1_555 1_555
O2_4 Ni2 1_555 1_555
H14_4 O1_4 1_555 1_555
H15_4 O2_4 1_555 1_555
H16_4 O2_4 1_555 1_555
C17_4 C14_4 1_555 1_555
H22_4 C17_4 1_555 1_555
C20_4 C17_4 1_555 1_555
H25_4 C20_4 1_555 1_555
H28_4 C23_4 1_555 1_555
H43_4 C29_4 1_555 1_555
H46_4 C29_4 1_555 1_555
C20_4 C23_4 1_555 1_555
C16_4 C13_4 1_555 1_555
H21_4 C16_4 1_555 1_555
C19_4 C16_4 1_555 1_555
H24_4 C19_4 1_555 1_555
H27_4 C22_4 1_555 1_555
H42_4 C28_4 1_555 1_555
H45_4 C28_4 1_555 1_555
C19_4 C22_4 1_555 1_555
C15_5 C12_5 1_555 1_555
H20_5 C15_5 1_555 1_555
C18_5 C15_5 1_555 1_555
H23_5 C18_5 1_555 1_555
H26_5 C21_5 1_555 1_555
H41_5 C27_5 1_555 1_555
H44_5 C27_5 1_555 1_555
C18_5 C21_5 1_555 1_555
H12_5 C8_5 1_555 1_555
H13_5 C8_5 1_555 1_555
Ni2_2 N2_5 1_555 1_555
N2_5 C9_5 1_555 1_555
C9_5 H17_5 1_555 1_555
C24_5 Si2_5 1_555 1_555
H32_5 C24_5 1_555 1_555
H35_5 C24_5 1_555 1_555
Ni1_4 O1_5 1_555 1_555
O1_5 H1_5 1_555 1_555
N1_3 Ni1_4 1_555 1_555
C1_5 N1_3 1_555 1_555
H2_5 C1_5 1_555 1_555
C6_5 Si1_5 1_555 1_555
H7_5 C6_5 1_555 1_555
H8_5 C6_5 1_555 1_555
Ni3_3 N4_5 1_555 1_555
Si3_5 C13_5 1_555 1_555
Si4_5 C14_5 1_555 1_555
O2_5 Ni1_4 1_555 1_555
H14_5 O1_5 1_555 1_555
H15_5 O2_5 1_555 1_555
H16_5 O2_5 1_555 1_555
N3_3 Ni1_4 1_555 1_555
N4_5 C11_5 1_555 1_555
N5_3 Ni1_4 1_555 1_555
N6_3 Ni1_4 1_555 1_555
C10_5 N3_3 1_555 1_555
C11_5 H19_5 1_555 1_555
H18_5 C10_5 1_555 1_555
C13_5 C10_5 1_555 1_555
C14_5 C11_5 1_555 1_555
C16_5 C13_5 1_555 1_555
C17_5 C14_5 1_555 1_555
H21_5 C16_5 1_555 1_555
H22_5 C17_5 1_555 1_555
C19_5 C16_5 1_555 1_555
C20_5 C17_5 1_555 1_555
H24_5 C19_5 1_555 1_555
H25_5 C20_5 1_555 1_555
C22_5 N3_3 1_555 1_555
C23_5 N4_5 1_555 1_555
H27_5 C22_5 1_555 1_555
C25_5 Si3_5 1_555 1_555
C26_5 Si4_5 1_555 1_555
H30_5 C25_5 1_555 1_555
H31_5 C26_5 1_555 1_555
H33_5 C25_5 1_555 1_555
H34_5 C26_5 1_555 1_555
H36_5 C25_5 1_555 1_555
H37_5 C26_5 1_555 1_555
C28_5 Si3_5 1_555 1_555
C29_5 Si4_5 1_555 1_555
H39_5 C28_5 1_555 1_555
H40_5 C29_5 1_555 1_555
H42_5 C28_5 1_555 1_555
H43_5 C29_5 1_555 1_555
H45_5 C28_5 1_555 1_555
H46_5 C29_5 1_555 1_555
C31_5 Si3_5 1_555 1_555
C32_5 Si4_5 1_555 1_555
H47_5 C30_5 1_555 1_555
H48_5 C31_5 1_555 1_555
H49_5 C32_5 1_555 1_555
H50_5 C30_5 1_555 1_555
H51_5 C31_5 1_555 1_555
H52_5 C32_5 1_555 1_555
C19_5 C22_5 1_555 1_555
C20_5 C23_5 1_555 1_555
C31_5 C32_5 1_555 1_555
Ni2_2 N4_6 1_555 1_555
Si3_6 C13_6 1_555 1_555
Si4_6 C14_6 1_555 1_555
O2_6 Ni1_5 1_555 1_555
H15_6 O2_6 1_555 1_555
H16_6 O2_6 1_555 1_555
N3_4 Ni1_5 1_555 1_555
N4_6 C11_6 1_555 1_555
N5_4 Ni1_5 1_555 1_555
C10_6 N3_4 1_555 1_555
C11_6 H19_6 1_555 1_555
H18_6 C10_6 1_555 1_555
C13_6 C10_6 1_555 1_555
C14_6 C11_6 1_555 1_555
C16_6 C13_6 1_555 1_555
C17_6 C14_6 1_555 1_555
H21_6 C16_6 1_555 1_555
H22_6 C17_6 1_555 1_555
C19_6 C16_6 1_555 1_555
C20_6 C17_6 1_555 1_555
H24_6 C19_6 1_555 1_555
H25_6 C20_6 1_555 1_555
C22_6 N3_4 1_555 1_555
C23_6 N4_6 1_555 1_555
H28_6 C23_6 1_555 1_555
C25_6 Si3_6 1_555 1_555
C26_6 Si4_6 1_555 1_555
H30_6 C25_6 1_555 1_555
H31_6 C26_6 1_555 1_555
H33_6 C25_6 1_555 1_555
H34_6 C26_6 1_555 1_555
H36_6 C25_6 1_555 1_555
H37_6 C26_6 1_555 1_555
C28_6 Si3_6 1_555 1_555
C29_6 Si4_6 1_555 1_555
H39_6 C28_6 1_555 1_555
H40_6 C29_6 1_555 1_555
H42_6 C28_6 1_555 1_555
H43_6 C29_6 1_555 1_555
H45_6 C28_6 1_555 1_555
H46_6 C29_6 1_555 1_555
C31_6 Si3_6 1_555 1_555
C32_6 Si4_6 1_555 1_555
H47_6 C30_6 1_555 1_555
H48_6 C31_6 1_555 1_555
H49_6 C32_6 1_555 1_555
H50_6 C30_6 1_555 1_555
H51_6 C31_6 1_555 1_555
H52_6 C32_6 1_555 1_555
C19_6 C22_6 1_555 1_555
C20_6 C23_6 1_555 1_555
C31_6 C32_6 1_555 1_555
Ni3_3 N2_6 1_555 1_555
Si2_6 C12_6 1_555 1_555
N2_6 C9_6 1_555 1_555
C9_6 H17_6 1_555 1_555
C12_6 C9_6 1_555 1_555
C15_6 C12_6 1_555 1_555
H20_6 C15_6 1_555 1_555
C18_6 C15_6 1_555 1_555
H23_6 C18_6 1_555 1_555
C21_6 N2_6 1_555 1_555
H26_6 C21_6 1_555 1_555
C24_6 Si2_6 1_555 1_555
H32_6 C24_6 1_555 1_555
H35_6 C24_6 1_555 1_555
C27_6 Si2_6 1_555 1_555
H41_6 C27_6 1_555 1_555
H44_6 C27_6 1_555 1_555
C18_6 C21_6 1_555 1_555
Ni1_6 O1_6 1_555 1_555
Si1_6 C2_5 1_555 1_555
O1_6 H1_6 1_555 1_555
N1_4 Ni1_6 1_555 1_555
C1_6 N1_4 1_555 1_555
H2_6 C1_6 1_555 1_555
C2_5 C1_6 1_555 1_555
C3_5 C2_5 1_555 1_555
H3_5 C3_5 1_555 1_555
C4_5 C3_5 1_555 1_555
H4_5 C4_5 1_555 1_555
C5_5 N1_4 1_555 1_555
H5_5 C5_5 1_555 1_555
C6_6 Si1_6 1_555 1_555
H7_6 C6_6 1_555 1_555
H8_6 C6_6 1_555 1_555
C7_5 Si1_6 1_555 1_555
H10_5 C7_5 1_555 1_555
H11_5 C7_5 1_555 1_555
H14_6 O1_6 1_555 1_555
N6_4 Ni1_6 1_555 1_555
C4_5 C5_5 1_555 1_555
H12_6 C8_6 1_555 1_555
H13_6 C8_6 1_555 1_555
Si1_7 C2_6 1_555 1_555
C1_7 N5_4 1_555 1_555
H2_7 C1_7 1_555 1_555
C2_6 C1_7 1_555 1_555
C3_6 C2_6 1_555 1_555
H3_6 C3_6 1_555 1_555
C4_6 C3_6 1_555 1_555
H4_6 C4_6 1_555 1_555
C5_6 N5_4 1_555 1_555
H5_6 C5_6 1_555 1_555
C6_7 Si1_7 1_555 1_555
H6_7 C6_7 1_555 1_555
H7_7 C6_7 1_555 1_555
H8_7 C6_7 1_555 1_555
C7_6 Si1_7 1_555 1_555
H9_7 C7_6 1_555 1_555
H10_6 C7_6 1_555 1_555
H11_6 C7_6 1_555 1_555
C8_7 Si1_7 1_555 1_555
H12_7 C8_7 1_555 1_555
H13_7 C8_7 1_555 1_555
C4_6 C5_6 1_555 1_555
Ni3_4 N2_7 1_555 1_555
Ni2_2 N4_7 1_555 1_555
Si2_7 C12_7 1_555 1_555
Si3_7 C13_7 1_555 1_555
Si4_7 C14_7 1_555 1_555
N2_7 C9_7 1_555 1_555
N4_7 C11_7 1_555 1_555
C9_7 H17_7 1_555 1_555
C10_7 N6_4 1_555 1_555
C11_7 H19_7 1_555 1_555
H18_7 C10_7 1_555 1_555
C12_7 C9_7 1_555 1_555
C13_7 C10_7 1_555 1_555
C14_7 C11_7 1_555 1_555
C15_7 C12_7 1_555 1_555
C16_7 C13_7 1_555 1_555
C17_7 C14_7 1_555 1_555
H20_7 C15_7 1_555 1_555
H21_7 C16_7 1_555 1_555
H22_7 C17_7 1_555 1_555
C18_7 C15_7 1_555 1_555
C19_7 C16_7 1_555 1_555
C20_7 C17_7 1_555 1_555
H23_7 C18_7 1_555 1_555
H24_7 C19_7 1_555 1_555
H25_7 C20_7 1_555 1_555
C21_7 N2_7 1_555 1_555
C22_7 N6_4 1_555 1_555
C23_7 N4_7 1_555 1_555
H26_7 C21_7 1_555 1_555
H28_7 C23_7 1_555 1_555
C24_7 Si2_7 1_555 1_555
C25_7 Si3_7 1_555 1_555
C26_7 Si4_7 1_555 1_555
H29_6 C24_7 1_555 1_555
H30_7 C25_7 1_555 1_555
H31_7 C26_7 1_555 1_555
H32_7 C24_7 1_555 1_555
H33_7 C25_7 1_555 1_555
H34_7 C26_7 1_555 1_555
H35_7 C24_7 1_555 1_555
H36_7 C25_7 1_555 1_555
H37_7 C26_7 1_555 1_555
C27_7 Si2_7 1_555 1_555
C28_7 Si3_7 1_555 1_555
C29_7 Si4_7 1_555 1_555
H38_7 C27_7 1_555 1_555
H39_7 C28_7 1_555 1_555
H40_7 C29_7 1_555 1_555
H41_7 C27_7 1_555 1_555
H42_7 C28_7 1_555 1_555
H43_7 C29_7 1_555 1_555
H44_7 C27_7 1_555 1_555
H45_7 C28_7 1_555 1_555
H46_7 C29_7 1_555 1_555
C31_7 Si3_7 1_555 1_555
C32_7 Si4_7 1_555 1_555
H47_7 C30_7 1_555 1_555
H48_7 C31_7 1_555 1_555
H49_7 C32_7 1_555 1_555
H50_7 C30_7 1_555 1_555
H51_7 C31_7 1_555 1_555
H52_7 C32_7 1_555 1_555
Si2_7 C30_7 1_555 1_555
C18_7 C21_7 1_555 1_555
C19_7 C22_7 1_555 1_555
C20_7 C23_7 1_555 1_555
C31_7 C32_7 1_555 1_555
C1_8 N5_3 1_555 1_555
H2_8 C1_8 1_555 1_555
C6_8 Si1_8 1_555 1_555
H6_8 C6_8 1_555 1_555
H7_8 C6_8 1_555 1_555
H8_8 C6_8 1_555 1_555
Ni3_4 N4_8 1_555 1_555
Si3_8 C13_8 1_555 1_555
Si4_8 C14_8 1_555 1_555
N4_8 C11_8 1_555 1_555
C10_8 N6_3 1_555 1_555
C11_8 H19_8 1_555 1_555
H18_8 C10_8 1_555 1_555
C13_8 C10_8 1_555 1_555
C14_8 C11_8 1_555 1_555
C15_8 C12_8 1_555 1_555
C16_8 C13_8 1_555 1_555
C17_8 C14_8 1_555 1_555
H20_8 C15_8 1_555 1_555
H21_8 C16_8 1_555 1_555
H22_8 C17_8 1_555 1_555
C18_8 C15_8 1_555 1_555
C19_8 C16_8 1_555 1_555
C20_8 C17_8 1_555 1_555
H23_8 C18_8 1_555 1_555
H24_8 C19_8 1_555 1_555
H25_8 C20_8 1_555 1_555
C22_8 N6_3 1_555 1_555
C23_8 N4_8 1_555 1_555
H26_8 C21_8 1_555 1_555
H27_8 C22_8 1_555 1_555
C25_8 Si3_8 1_555 1_555
C26_8 Si4_8 1_555 1_555
H30_8 C25_8 1_555 1_555
H31_8 C26_8 1_555 1_555
H33_8 C25_8 1_555 1_555
H34_8 C26_8 1_555 1_555
H36_8 C25_8 1_555 1_555
H37_8 C26_8 1_555 1_555
C28_8 Si3_8 1_555 1_555
C29_8 Si4_8 1_555 1_555
H38_8 C27_8 1_555 1_555
H39_8 C28_8 1_555 1_555
H40_8 C29_8 1_555 1_555
H41_8 C27_8 1_555 1_555
H42_8 C28_8 1_555 1_555
H43_8 C29_8 1_555 1_555
H44_8 C27_8 1_555 1_555
H45_8 C28_8 1_555 1_555
H46_8 C29_8 1_555 1_555
C31_8 Si3_8 1_555 1_555
C32_8 Si4_8 1_555 1_555
H47_8 C30_8 1_555 1_555
H48_8 C31_8 1_555 1_555
H49_8 C32_8 1_555 1_555
H50_8 C30_8 1_555 1_555
H51_8 C31_8 1_555 1_555
H52_8 C32_8 1_555 1_555
C18_8 C21_8 1_555 1_555
C19_8 C22_8 1_555 1_555
C20_8 C23_8 1_555 1_555
C31_8 C32_8 1_555 1_555
C3_7 C2_7 1_555 1_555
H3_7 C3_7 1_555 1_555
C4_7 C3_7 1_555 1_555
H4_7 C4_7 1_555 1_555
H5_7 C5_7 1_555 1_555
H9_8 C7_7 1_555 1_555
H10_7 C7_7 1_555 1_555
H11_7 C7_7 1_555 1_555
H12_8 C8_8 1_555 1_555
H13_8 C8_8 1_555 1_555
Ni2_2 N2_8 1_555 1_555
N2_8 C9_8 1_555 1_555
C9_8 H17_8 1_555 1_555
C24_8 Si2_8 1_555 1_555
H29_7 C24_8 1_555 1_555
H32_8 C24_8 1_555 1_555
H35_8 C24_8 1_555 1_555
C4_7 C5_7 1_555 1_555
Ni2_2 O1_7 1_555 1_555
O1_7 H1_7 1_555 1_555
O2_7 Ni2_2 1_555 1_555
H14_7 O1_7 1_555 1_555
H15_7 O2_7 1_555 1_555
H16_7 O2_7 1_555 1_555
Ni3_3 O1_8 1_555 1_555
O1_8 H1_8 1_555 1_555
H14_8 O1_8 1_555 1_555
O2_8 Ni3_4 1_555 1_555
H15_8 O2_8 1_555 1_555
H16_8 O2_8 1_555 1_555
C3_8 C2_8 1_555 1_555
H3_8 C3_8 1_555 1_555
C4_8 C3_8 1_555 1_555
H4_8 C4_8 1_555 1_555
H5_8 C5_8 1_555 1_555
H10_8 C7_8 1_555 1_555
H11_8 C7_8 1_555 1_555
C4_8 C5_8 1_555 1_555

#END
