
###############################################################################
#
# This file contains modified crystal structure data generated from the
# MOF subset of the Cambridge Structural Database (CSD) v543 
# hosted by the Cambridge Crystallographic Data Centre (CCDC).
#
# This work is licensed under the Creative Commons
# Attribution-NonCommercial-ShareAlike 4.0 International License.
# To view a copy of this license, visit
# http://creativecommons.org/licenses/by-nc-sa/4.0/
# or send a letter to
# Creative Commons, PO Box 1866, Mountain View, CA 94042, USA.
#
# CIF created using the CSD Python API on 29 September 2022
# The structure has been converted into the P1 space group
# The structure has a 3D framework
# The original CSD entry IZOWAW is in the orthorhombic crystal system
# The original CSD entry IZOWAW is in a Sohncke space group
# The framework has been calculated to contain at least 10.0% void space
# The void calculation uses a probe of radius 1.32A, grid spacing 0.4
# The framework is charged, counterions have been retained in the structure
# H atom positions have been added when not included in the experimental data
#
###############################################################################

data_IZOWAW
_chemical_formula_moiety         '(C72 H56 Mo72 O269 P16 Zn24 16-)n'
_symmetry_cell_setting           triclinic
_symmetry_space_group_name_H-M   'P 1'
_symmetry_Int_Tables_number      1
_space_group_name_Hall           'P 1'
loop_
_symmetry_equiv_pos_site_id
_symmetry_equiv_pos_as_xyz
1 x,y,z
_cell_length_a                   21.6212(10)
_cell_length_b                   22.5502(10)
_cell_length_c                   42.1069(17)
_cell_angle_alpha                90
_cell_angle_beta                 90
_cell_angle_gamma                90
_cell_volume                     20529.7
loop_
_atom_site_label
_atom_site_type_symbol
_atom_site_fract_x
_atom_site_fract_y
_atom_site_fract_z
P1 P 0.5000 0.5000 0.75098(5)
O1 O 0.5239(2) 0.4499(2) 0.77148(10)
O2 O 0.5518(3) 0.5256(2) 0.73038(11)
O3 O 0.4761(2) 0.5501(2) 0.77148(10)
O4 O 0.4482(3) 0.4744(2) 0.73038(11)
P1_2 P 0.5000 0.5000 0.24902(5)
O1_2 O 0.4761(2) 0.4499(2) 0.22852(10)
O2_2 O 0.4482(3) 0.5256(2) 0.26962(11)
O3_2 O 0.5239(2) 0.5501(2) 0.22852(10)
O4_2 O 0.5518(3) 0.4744(2) 0.26962(11)
P1_3 P 0.0000 0.0000 0.25098(5)
O2_3 O 0.0518(3) 0.0256(2) 0.23038(11)
P1_4 P -0.0000 1.0000 0.25098(5)
O1_3 O 0.0239(2) 0.9499(2) 0.27148(10)
P1_5 P 1.0000 0.0000 0.25098(5)
O3_3 O 0.9761(2) 0.0501(2) 0.27148(10)
P1_6 P 1.0000 1.0000 0.25098(5)
O4_3 O 0.9482(3) 0.9744(2) 0.23038(11)
P1_7 P -0.0000 -0.0000 0.74902(5)
O3_4 O 0.0239(2) 0.0501(2) 0.72852(10)
P1_8 P -0.0000 1.0000 0.74902(5)
O4_4 O 0.0518(3) 0.9744(2) 0.76962(11)
P1_9 P 1.0000 -0.0000 0.74902(5)
O2_4 O 0.9482(3) 0.0256(2) 0.76962(11)
P1_10 P 1.0000 1.0000 0.74902(5)
O1_4 O 0.9761(2) 0.9499(2) 0.72852(10)
P2 P -0.0000 0.5000 0.0000
O7 O 0.0413(3) 0.4590(2) 0.02041(9)
P2_2 P -0.0000 0.5000 1.0000
O6 O 0.0413(3) 0.5410(2) 0.97959(9)
P2_3 P 1.0000 0.5000 0.0000
O8 O 0.9587(3) 0.5410(2) 0.02041(9)
P2_4 P 1.0000 0.5000 1.0000
O5 O 0.9587(3) 0.4590(2) 0.97959(9)
P2_5 P 0.5000 -0.0000 0.5000
O6_2 O 0.5413(3) 0.0410(2) 0.47959(9)
O8_2 O 0.4587(3) 0.0410(2) 0.52041(9)
P2_6 P 0.5000 1.0000 0.5000
O5_2 O 0.4587(3) 0.9590(2) 0.47959(9)
O7_2 O 0.5413(3) 0.9590(2) 0.52041(9)
O104 O 0.0288(3) 0.0481(2) 0.82624(11)
Zn21 Zn 0.10197(8) 0.59039(8) 0.05020(3)
O138 O 0.0439(4) 0.6352(3) 0.02305(12)
Mo18 Mo 0.00420(4) 0.84062(3) 0.726618(16)
Mo29 Mo 0.06492(4) 0.96650(3) 0.830365(15)
Mo32 Mo 0.08580(4) 0.86460(3) 0.770663(17)
Mo35 Mo 0.04539(6) 0.54344(5) 0.918440(18)
Mo38 Mo 0.04426(8) 0.65227(6) 0.97686(3)
Mo47 Mo 0.15711(6) 0.54937(8) 0.97445(2)
Zn7 Zn 0.11779(5) 0.93944(4) 0.69509(2)
Zn20 Zn 0.10197(8) 0.40961(8) 0.94980(3)
O56 O 0.0536(2) 0.9772(2) 0.67125(10)
O59 O 0.0141(3) 0.7686(3) 0.72046(13)
O62 O 0.0862(3) 0.8776(2) 0.72471(12)
O91 O 0.1680(2) 0.9098(3) 0.76889(13)
O99 O 0.0788(3) 0.8905(3) 0.81494(12)
O107 O 0.1180(3) 0.7971(3) 0.77569(13)
O115 O 0.0573(4) 0.5553(4) 0.88117(14)
O120 O 0.0390(3) 0.4613(4) 0.92673(14)
O123 O 0.0435(5) 0.6278(5) 0.9321(2)
O129 O 0.1336(4) 0.5383(4) 0.93193(15)
O133 O 0.0566(6) 0.7206(3) 0.97114(18)
O156 O 0.1372(4) 0.6290(4) 0.97527(14)
Mo13 Mo 0.03505(3) 0.06205(3) 0.667335(14)
Mo27 Mo 0.93508(4) 0.03350(3) 0.830365(15)
Mo34 Mo 0.91420(4) 0.13540(3) 0.770663(17)
Zn9 Zn 0.88221(5) 0.06056(4) 0.69509(2)
O55 O 0.9464(2) 0.0228(2) 0.67125(10)
O75 O 0.8460(2) 0.00398(18) 0.72551(9)
O89 O 0.8320(2) 0.0902(3) 0.76889(13)
O94 O 0.9239(3) 0.0415(3) 0.87123(10)
O97 O 0.9212(3) 0.1095(3) 0.81494(12)
Mo39 Mo 0.04426(8) 0.34773(6) 0.02314(3)
Mo40 Mo 0.95574(8) 0.65227(6) 0.02314(3)
Mo44 Mo 0.15711(6) 0.45063(8) 0.02555(2)
Mo45 Mo 0.84289(6) 0.54937(8) 0.02555(2)
Zn22 Zn 0.89803(8) 0.40961(8) 0.05020(3)
O126 O 0.0435(5) 0.3722(5) 0.0679(2)
O127 O 0.9565(5) 0.6278(5) 0.0679(2)
O131 O 0.1336(4) 0.4617(4) 0.06807(15)
O132 O 0.8664(4) 0.5383(4) 0.06807(15)
O134 O 0.0566(6) 0.2794(3) 0.02886(18)
O135 O 0.9434(6) 0.7206(3) 0.02886(18)
O142 O 0.2380(3) 0.4432(4) 0.0269(2)
O143 O 0.7620(3) 0.5568(4) 0.0269(2)
O145 O 0.1483(4) 0.5389(4) 0.02083(14)
O146 O 0.8517(4) 0.4611(4) 0.02083(14)
O157 O 0.1372(4) 0.3710(4) 0.02473(14)
O158 O 0.8628(4) 0.6290(4) 0.02473(14)
Mo1 Mo 0.46495(3) 0.56205(3) 0.832665(14)
Mo2 Mo 0.50420(4) 0.65938(3) 0.773382(16)
Mo3 Mo 0.35855(4) 0.58253(3) 0.772790(17)
Mo4 Mo 0.33401(3) 0.50422(4) 0.728910(16)
Mo5 Mo 0.43508(4) 0.46650(3) 0.669635(15)
Mo6 Mo 0.58580(4) 0.63540(3) 0.729337(17)
Zn1 Zn 0.38221(5) 0.43944(4) 0.80491(2)
Zn2 Zn 0.43690(5) 0.61211(4) 0.69732(2)
O9 O 0.4582(3) 0.5735(2) 0.87339(10)
O10 O 0.3846(3) 0.5743(3) 0.81844(13)
O11 O 0.4977(3) 0.6326(2) 0.81886(10)
O12 O 0.4464(2) 0.4772(2) 0.82875(10)
O13 O 0.5141(3) 0.7314(3) 0.77954(13)
O14 O 0.5862(3) 0.6224(2) 0.77529(12)
O15 O 0.4989(2) 0.64697(18) 0.72806(10)
O16 O 0.4087(3) 0.6616(2) 0.77153(11)
O17 O 0.2823(3) 0.6080(3) 0.77859(14)
O18 O 0.3460(2) 0.49602(18) 0.77449(9)
O19 O 0.3728(3) 0.5823(2) 0.72573(10)
O20 O 0.2557(2) 0.5148(4) 0.72260(12)
O21 O 0.3596(3) 0.5003(3) 0.68387(10)
O22 O 0.3320(2) 0.4098(3) 0.73111(13)
O23 O 0.4239(3) 0.4585(3) 0.62877(10)
O24 O 0.5788(3) 0.6095(3) 0.68506(12)
O25 O 0.4712(3) 0.5481(2) 0.67376(11)
O26 O 0.6180(3) 0.7029(3) 0.72431(13)
O27 O 0.3136(4) 0.4041(3) 0.82970(15)
O28 O 0.1003(3) 0.1767(3) 0.82631(15)
O34 O 0.0439(4) 0.3648(3) 0.97695(12)
O35 O 0.2380(3) 0.5568(4) 0.9731(2)
O36 O 0.1483(4) 0.4611(4) 0.97917(14)
O37 O 0.1665(4) 0.3866(4) 0.9180(2)
O38 O 0.0807(5) 0.3356(5) 0.9113(3)
O40 O 0.2799(3) 0.3718(3) 0.78486(17)
O41 O 0.1293(4) 0.2114(4) 0.78215(12)
C1 C 0.2231(4) 0.3454(4) 0.8264(3)
C2 C 0.1934(4) 0.2993(3) 0.8096(2)
H1 H 0.2012 0.2919 0.7882
C3 C 0.1534(4) 0.2671(3) 0.82639(16)
C4 C 0.1354(5) 0.2861(5) 0.8548(3)
H2 H 0.0999 0.2684 0.8629
C5 C 0.1619(4) 0.3281(4) 0.8734(2)
C6 C 0.2034(4) 0.3619(5) 0.8575(2)
H3 H 0.2191 0.3961 0.8669
C7 C 0.2746(5) 0.3777(4) 0.81092(17)
C8 C 0.1257(5) 0.2145(4) 0.8089(2)
C9 C 0.1341(8) 0.3460(6) 0.9023(2)
Mo10 Mo 0.53505(3) 0.43795(3) 0.832665(14)
Mo12 Mo 0.96495(3) 0.93795(3) 0.667335(14)
Mo16 Mo 0.49580(4) 0.34062(3) 0.773382(16)
Mo19 Mo 0.64145(4) 0.41747(3) 0.772790(17)
Mo20 Mo 0.14145(4) 0.08253(3) 0.727210(17)
Mo21 Mo 0.85855(4) 0.91747(3) 0.727210(17)
Mo22 Mo 0.66599(3) 0.49578(4) 0.728910(16)
Mo23 Mo 0.16599(3) 0.00422(4) 0.771090(16)
Mo24 Mo 0.83401(3) 0.99578(4) 0.771090(16)
Mo25 Mo 0.56492(4) 0.53350(3) 0.669635(15)
Mo30 Mo 0.41420(4) 0.36460(3) 0.729337(17)
Mo37 Mo 0.95461(6) 0.45656(5) 0.918440(18)
Mo42 Mo 0.95574(8) 0.34773(6) 0.97686(3)
Mo43 Mo 0.84289(6) 0.45063(8) 0.97445(2)
Zn4 Zn 0.61779(5) 0.56056(4) 0.80491(2)
Zn11 Zn 0.06310(5) 0.11211(4) 0.80268(2)
Zn12 Zn 0.93690(5) 0.88789(4) 0.80268(2)
Zn13 Zn 0.56310(5) 0.38789(4) 0.69732(2)
Zn14 Zn 0.89803(8) 0.59039(8) 0.94980(3)
Zn15 Zn 0.39803(8) 0.90961(8) 0.55020(3)
Zn16 Zn 0.60197(8) 0.09039(8) 0.55020(3)
O42 O 0.5418(3) 0.4265(2) 0.87339(10)
O43 O 0.0418(3) 0.0735(2) 0.62661(10)
O44 O 0.9582(3) 0.9265(2) 0.62661(10)
O45 O 0.6154(3) 0.4257(3) 0.81844(13)
O46 O 0.1154(3) 0.0743(3) 0.68156(13)
O47 O 0.8846(3) 0.9257(3) 0.68156(13)
O48 O 0.5023(3) 0.3674(2) 0.81886(10)
O49 O 0.0023(3) 0.1326(2) 0.68114(10)
O50 O 0.9977(3) 0.8674(2) 0.68114(10)
O51 O 0.5536(2) 0.5228(2) 0.82875(10)
O57 O 0.4859(3) 0.2686(3) 0.77954(13)
O60 O 0.4138(3) 0.3776(2) 0.77529(12)
O64 O 0.5011(2) 0.35303(18) 0.72806(10)
O65 O 0.0011(2) 0.14697(18) 0.77194(10)
O66 O 0.9989(2) 0.85303(18) 0.77194(10)
O67 O 0.5913(3) 0.3384(2) 0.77153(11)
O68 O 0.0913(3) 0.1616(2) 0.72847(11)
O69 O 0.9087(3) 0.8384(2) 0.72847(11)
O70 O 0.7177(3) 0.3920(3) 0.77859(14)
O71 O 0.2177(3) 0.1080(3) 0.72141(14)
O72 O 0.7823(3) 0.8920(3) 0.72141(14)
O73 O 0.6540(2) 0.50398(18) 0.77449(9)
O76 O 0.1540(2) 0.99602(18) 0.72551(9)
O78 O 0.6272(3) 0.4177(2) 0.72573(10)
O79 O 0.1272(3) 0.0823(2) 0.77427(10)
O80 O 0.8728(3) 0.9177(2) 0.77427(10)
O81 O 0.7443(2) 0.4852(4) 0.72260(12)
O82 O 0.2443(2) 0.0148(4) 0.77740(12)
O83 O 0.7557(2) 0.9852(4) 0.77740(12)
O84 O 0.6404(3) 0.4997(3) 0.68387(10)
O85 O 0.1404(3) 0.0003(3) 0.81613(10)
O86 O 0.8596(3) 0.9997(3) 0.81613(10)
O87 O 0.6680(2) 0.5902(3) 0.73111(13)
O92 O 0.5761(3) 0.5415(3) 0.62877(10)
O95 O 0.4212(3) 0.3905(3) 0.68506(12)
O101 O 0.9712(3) 0.9519(2) 0.82624(11)
O102 O 0.5288(3) 0.4519(2) 0.67376(11)
O105 O 0.3820(3) 0.2971(3) 0.72431(13)
O108 O 0.6864(4) 0.5959(3) 0.82970(15)
O109 O 0.1864(4) 0.9041(3) 0.67030(15)
O110 O 0.8136(4) 0.0959(3) 0.67030(15)
O112 O 0.8997(3) 0.8233(3) 0.82631(15)
O113 O 0.3997(3) 0.6767(3) 0.67369(15)
O114 O 0.6003(3) 0.3233(3) 0.67369(15)
O117 O 0.9427(4) 0.4447(4) 0.88117(14)
O118 O 0.9610(3) 0.5387(4) 0.92673(14)
O121 O 0.4610(3) 0.9613(4) 0.57327(14)
O122 O 0.5390(3) 0.0387(4) 0.57327(14)
O125 O 0.9565(5) 0.3722(5) 0.9321(2)
O130 O 0.8664(4) 0.4617(4) 0.93193(15)
O136 O 0.9561(4) 0.6352(3) 0.97695(12)
O139 O 0.4561(4) 0.8648(3) 0.52305(12)
O140 O 0.5439(4) 0.1352(3) 0.52305(12)
O141 O 0.7620(3) 0.4432(4) 0.9731(2)
O144 O 0.8517(4) 0.5389(4) 0.97917(14)
O147 O 0.3517(4) 0.9611(4) 0.52083(14)
O148 O 0.6483(4) 0.0389(4) 0.52083(14)
O149 O 0.8335(4) 0.6134(4) 0.9180(2)
O150 O 0.3335(4) 0.8866(4) 0.5820(2)
O151 O 0.6665(4) 0.1134(4) 0.5820(2)
O152 O 0.9193(5) 0.6644(5) 0.9113(3)
O153 O 0.4193(5) 0.8356(5) 0.5887(3)
O154 O 0.5807(5) 0.1644(5) 0.5887(3)
O159 O 0.8628(4) 0.3710(4) 0.97527(14)
O160 O 0.7201(3) 0.6282(3) 0.78486(17)
O161 O 0.2201(3) 0.8718(3) 0.71514(17)
O162 O 0.7799(3) 0.1282(3) 0.71514(17)
O163 O 0.8707(4) 0.7886(4) 0.78215(12)
O164 O 0.3707(4) 0.7114(4) 0.71785(12)
O165 O 0.6293(4) 0.2886(4) 0.71785(12)
C10 C 0.7769(4) 0.6546(4) 0.8264(3)
C11 C 0.2769(4) 0.8454(4) 0.6736(3)
C12 C 0.7231(4) 0.1546(4) 0.6736(3)
C13 C 0.8066(4) 0.7007(3) 0.8096(2)
C14 C 0.3066(4) 0.7993(3) 0.6904(2)
C15 C 0.6934(4) 0.2007(3) 0.6904(2)
H4 H 0.7988 0.7081 0.7882
H5 H 0.2988 0.7919 0.7118
H6 H 0.7012 0.2081 0.7118
C16 C 0.8466(4) 0.7329(3) 0.82639(16)
C17 C 0.3466(4) 0.7671(3) 0.67361(16)
C18 C 0.6534(4) 0.2329(3) 0.67361(16)
C19 C 0.8646(5) 0.7139(5) 0.8548(3)
C20 C 0.3646(5) 0.7861(5) 0.6452(3)
C21 C 0.6354(5) 0.2139(5) 0.6452(3)
H7 H 0.9001 0.7316 0.8629
H8 H 0.4001 0.7684 0.6371
H9 H 0.5999 0.2316 0.6371
C22 C 0.8381(4) 0.6719(4) 0.8734(2)
C23 C 0.3381(4) 0.8281(4) 0.6266(2)
C24 C 0.6619(4) 0.1719(4) 0.6266(2)
C25 C 0.7966(4) 0.6381(5) 0.8575(2)
C26 C 0.2966(4) 0.8619(5) 0.6425(2)
C27 C 0.7034(4) 0.1381(5) 0.6425(2)
H10 H 0.7809 0.6039 0.8669
H11 H 0.2809 0.8961 0.6331
H12 H 0.7191 0.1039 0.6331
C28 C 0.7254(5) 0.6223(4) 0.81092(17)
C29 C 0.2254(5) 0.8777(4) 0.68908(17)
C30 C 0.7746(5) 0.1223(4) 0.68908(17)
C31 C 0.8743(5) 0.7855(4) 0.8089(2)
C32 C 0.3743(5) 0.7145(4) 0.6911(2)
C33 C 0.6257(5) 0.2855(4) 0.6911(2)
C34 C 0.8659(8) 0.6540(6) 0.9023(2)
C35 C 0.3659(8) 0.8460(6) 0.5977(2)
C36 C 0.6341(8) 0.1540(6) 0.5977(2)
H13 H 0.283163 0.645896 0.790592
H14 H 0.262246 0.614476 0.75766
O93 O 0.0761(3) 0.9585(3) 0.87123(10)
H15 H 0.0840851 0.997968 0.880851
H16 H 0.0384955 0.94087 0.880934
O137 O 0.9561(4) 0.3648(3) 0.02305(12)
O33 O 0.9434(6) 0.2794(3) 0.97114(18)
Mo17 Mo 0.99580(4) 0.15938(3) 0.726618(16)
O58 O 0.9859(3) 0.2314(3) 0.72046(13)
O61 O 0.9138(3) 0.1224(2) 0.72471(12)
O106 O 0.8820(3) 0.2029(3) 0.77569(13)
H15_2 H 0.915915 0.0020317 0.880851
H16_2 H 0.961505 0.0591297 0.880934
H13_2 H 0.716837 0.354104 0.790592
H14_2 H 0.737754 0.385524 0.75766
Mo7 Mo 0.04539(6) 0.45656(5) 0.081560(18)
O29 O 0.0573(4) 0.4447(4) 0.11883(14)
Mo14 Mo 0.03505(3) 0.93795(3) 0.332665(14)
Mo17_2 Mo 0.00420(4) 0.15938(3) 0.273382(16)
Mo28 Mo 0.06492(4) 0.03350(3) 0.169635(15)
Mo31 Mo 0.08580(4) 0.13540(3) 0.229337(17)
Zn6 Zn 0.11779(5) 0.06056(4) 0.30491(2)
O54 O 0.0536(2) 0.0228(2) 0.32875(10)
O58_2 O 0.0141(3) 0.2314(3) 0.27954(13)
O61_2 O 0.0862(3) 0.1224(2) 0.27529(12)
O77 O 0.1540(2) 0.00398(18) 0.27449(9)
O90 O 0.1680(2) 0.0902(3) 0.23111(13)
O98 O 0.0788(3) 0.1095(3) 0.18506(12)
O106_2 O 0.1180(3) 0.2029(3) 0.22431(13)
O111 O 0.1864(4) 0.0959(3) 0.32970(15)
O119 O 0.0390(3) 0.5387(4) 0.07327(14)
O103 O 0.0288(3) 0.9519(2) 0.17376(11)
Mo13_2 Mo 0.96495(3) 0.06205(3) 0.332665(14)
O94_2 O 0.0761(3) 0.0415(3) 0.12877(10)
Mo1_2 Mo 0.53505(3) 0.56205(3) 0.167335(14)
Mo2_2 Mo 0.49580(4) 0.65938(3) 0.226618(16)
Mo3_2 Mo 0.64145(4) 0.58253(3) 0.227210(17)
Mo4_2 Mo 0.66599(3) 0.50422(4) 0.271090(16)
Mo5_2 Mo 0.56492(4) 0.46650(3) 0.330365(15)
Mo6_2 Mo 0.41420(4) 0.63540(3) 0.270663(17)
Zn1_2 Zn 0.61779(5) 0.43944(4) 0.19509(2)
Zn2_2 Zn 0.56310(5) 0.61211(4) 0.30268(2)
O9_2 O 0.5418(3) 0.5735(2) 0.12661(10)
O10_2 O 0.6154(3) 0.5743(3) 0.18156(13)
O11_2 O 0.5023(3) 0.6326(2) 0.18114(10)
O12_2 O 0.5536(2) 0.4772(2) 0.17125(10)
O13_2 O 0.4859(3) 0.7314(3) 0.22046(13)
O14_2 O 0.4138(3) 0.6224(2) 0.22471(12)
O15_2 O 0.5011(2) 0.64697(18) 0.27194(10)
O16_2 O 0.5913(3) 0.6616(2) 0.22847(11)
O17_2 O 0.7177(3) 0.6080(3) 0.22141(14)
O18_2 O 0.6540(2) 0.49602(18) 0.22551(9)
O19_2 O 0.6272(3) 0.5823(2) 0.27427(10)
O20_2 O 0.7443(2) 0.5148(4) 0.27740(12)
O21_2 O 0.6404(3) 0.5003(3) 0.31613(10)
O22_2 O 0.6680(2) 0.4098(3) 0.26889(13)
O23_2 O 0.5761(3) 0.4585(3) 0.37123(10)
O24_2 O 0.4212(3) 0.6095(3) 0.31494(12)
O25_2 O 0.5288(3) 0.5481(2) 0.32624(11)
O26_2 O 0.3820(3) 0.7029(3) 0.27569(13)
O27_2 O 0.6864(4) 0.4041(3) 0.17030(15)
O28_2 O 0.8997(3) 0.1767(3) 0.17369(15)
O30 O 0.9610(3) 0.4613(4) 0.07327(14)
O37_2 O 0.8335(4) 0.3866(4) 0.0820(2)
O38_2 O 0.9193(5) 0.3356(5) 0.0887(3)
O40_2 O 0.7201(3) 0.3718(3) 0.21514(17)
O41_2 O 0.8707(4) 0.2114(4) 0.21785(12)
C1_2 C 0.7769(4) 0.3454(4) 0.1736(3)
C2_2 C 0.8066(4) 0.2993(3) 0.1904(2)
H1_2 H 0.7988 0.2919 0.2118
C3_2 C 0.8466(4) 0.2671(3) 0.17361(16)
C4_2 C 0.8646(5) 0.2861(5) 0.1452(3)
H2_2 H 0.9001 0.2684 0.1371
C5_2 C 0.8381(4) 0.3281(4) 0.1266(2)
C6_2 C 0.7966(4) 0.3619(5) 0.1425(2)
H3_2 H 0.7809 0.3961 0.1331
C7_2 C 0.7254(5) 0.3777(4) 0.18908(17)
C8_2 C 0.8743(5) 0.2145(4) 0.1911(2)
C9_2 C 0.8659(8) 0.3460(6) 0.0977(2)
Mo10_2 Mo 0.46495(3) 0.43795(3) 0.167335(14)
Mo16_2 Mo 0.50420(4) 0.34062(3) 0.226618(16)
Mo19_2 Mo 0.35855(4) 0.41747(3) 0.227210(17)
Mo20_2 Mo 0.85855(4) 0.08253(3) 0.272790(17)
Mo21_2 Mo 0.14145(4) 0.91747(3) 0.272790(17)
Mo22_2 Mo 0.33401(3) 0.49578(4) 0.271090(16)
Mo23_2 Mo 0.83401(3) 0.00422(4) 0.228910(16)
Mo24_2 Mo 0.16599(3) 0.99578(4) 0.228910(16)
Mo25_2 Mo 0.43508(4) 0.53350(3) 0.330365(15)
Mo30_2 Mo 0.58580(4) 0.36460(3) 0.270663(17)
Mo36 Mo 0.95461(6) 0.54344(5) 0.081560(18)
Zn4_2 Zn 0.38221(5) 0.56056(4) 0.19509(2)
Zn5 Zn 0.88221(5) 0.93944(4) 0.30491(2)
Zn11_2 Zn 0.93690(5) 0.11211(4) 0.19732(2)
Zn12_2 Zn 0.06310(5) 0.88789(4) 0.19732(2)
Zn13_2 Zn 0.43690(5) 0.38789(4) 0.30268(2)
Zn15_2 Zn 0.60197(8) 0.90961(8) 0.44980(3)
Zn16_2 Zn 0.39803(8) 0.09039(8) 0.44980(3)
O42_2 O 0.4582(3) 0.4265(2) 0.12661(10)
O43_2 O 0.9582(3) 0.0735(2) 0.37339(10)
O44_2 O 0.0418(3) 0.9265(2) 0.37339(10)
O45_2 O 0.3846(3) 0.4257(3) 0.18156(13)
O46_2 O 0.8846(3) 0.0743(3) 0.31844(13)
O47_2 O 0.1154(3) 0.9257(3) 0.31844(13)
O48_2 O 0.4977(3) 0.3674(2) 0.18114(10)
O49_2 O 0.9977(3) 0.1326(2) 0.31886(10)
O50_2 O 0.0023(3) 0.8674(2) 0.31886(10)
O51_2 O 0.4464(2) 0.5228(2) 0.17125(10)
O52 O 0.9464(2) 0.9772(2) 0.32875(10)
O57_2 O 0.5141(3) 0.2686(3) 0.22046(13)
O60_2 O 0.5862(3) 0.3776(2) 0.22471(12)
O63 O 0.9138(3) 0.8776(2) 0.27529(12)
O64_2 O 0.4989(2) 0.35303(18) 0.27194(10)
O65_2 O 0.9989(2) 0.14697(18) 0.22806(10)
O66_2 O 0.0011(2) 0.85303(18) 0.22806(10)
O67_2 O 0.4087(3) 0.3384(2) 0.22847(11)
O68_2 O 0.9087(3) 0.1616(2) 0.27153(11)
O69_2 O 0.0913(3) 0.8384(2) 0.27153(11)
O70_2 O 0.2823(3) 0.3920(3) 0.22141(14)
O71_2 O 0.7823(3) 0.1080(3) 0.27859(14)
O72_2 O 0.2177(3) 0.8920(3) 0.27859(14)
O73_2 O 0.3460(2) 0.50398(18) 0.22551(9)
O76_2 O 0.8460(2) 0.99602(18) 0.27449(9)
O78_2 O 0.3728(3) 0.4177(2) 0.27427(10)
O79_2 O 0.8728(3) 0.0823(2) 0.22573(10)
O80_2 O 0.1272(3) 0.9177(2) 0.22573(10)
O81_2 O 0.2557(2) 0.4852(4) 0.27740(12)
O82_2 O 0.7557(2) 0.0148(4) 0.22260(12)
O83_2 O 0.2443(2) 0.9852(4) 0.22260(12)
O84_2 O 0.3596(3) 0.4997(3) 0.31613(10)
O85_2 O 0.8596(3) 0.0003(3) 0.18387(10)
O86_2 O 0.1404(3) 0.9997(3) 0.18387(10)
O87_2 O 0.3320(2) 0.5902(3) 0.26889(13)
O92_2 O 0.4239(3) 0.5415(3) 0.37123(10)
O95_2 O 0.5788(3) 0.3905(3) 0.31494(12)
O100 O 0.9712(3) 0.0481(2) 0.17376(11)
O102_2 O 0.4712(3) 0.4519(2) 0.32624(11)
O105_2 O 0.6180(3) 0.2971(3) 0.27569(13)
O108_2 O 0.3136(4) 0.5959(3) 0.17030(15)
O109_2 O 0.8136(4) 0.9041(3) 0.32970(15)
O112_2 O 0.1003(3) 0.8233(3) 0.17369(15)
O113_2 O 0.6003(3) 0.6767(3) 0.32631(15)
O114_2 O 0.3997(3) 0.3233(3) 0.32631(15)
O116 O 0.9427(4) 0.5553(4) 0.11883(14)
O121_2 O 0.5390(3) 0.9613(4) 0.42673(14)
O122_2 O 0.4610(3) 0.0387(4) 0.42673(14)
O139_2 O 0.5439(4) 0.8648(3) 0.47695(12)
O140_2 O 0.4561(4) 0.1352(3) 0.47695(12)
O147_2 O 0.6483(4) 0.9611(4) 0.47917(14)
O148_2 O 0.3517(4) 0.0389(4) 0.47917(14)
O149_2 O 0.1665(4) 0.6134(4) 0.0820(2)
O150_2 O 0.6665(4) 0.8866(4) 0.4180(2)
O151_2 O 0.3335(4) 0.1134(4) 0.4180(2)
O152_2 O 0.0807(5) 0.6644(5) 0.0887(3)
O153_2 O 0.5807(5) 0.8356(5) 0.4113(3)
O154_2 O 0.4193(5) 0.1644(5) 0.4113(3)
O160_2 O 0.2799(3) 0.6282(3) 0.21514(17)
O161_2 O 0.7799(3) 0.8718(3) 0.28486(17)
O162_2 O 0.2201(3) 0.1282(3) 0.28486(17)
O163_2 O 0.1293(4) 0.7886(4) 0.21785(12)
O164_2 O 0.6293(4) 0.7114(4) 0.28215(12)
O165_2 O 0.3707(4) 0.2886(4) 0.28215(12)
C10_2 C 0.2231(4) 0.6546(4) 0.1736(3)
C11_2 C 0.7231(4) 0.8454(4) 0.3264(3)
C12_2 C 0.2769(4) 0.1546(4) 0.3264(3)
C13_2 C 0.1934(4) 0.7007(3) 0.1904(2)
C14_2 C 0.6934(4) 0.7993(3) 0.3096(2)
C15_2 C 0.3066(4) 0.2007(3) 0.3096(2)
H4_2 H 0.2012 0.7081 0.2118
H5_2 H 0.7012 0.7919 0.2882
H6_2 H 0.2988 0.2081 0.2882
C16_2 C 0.1534(4) 0.7329(3) 0.17361(16)
C17_2 C 0.6534(4) 0.7671(3) 0.32639(16)
C18_2 C 0.3466(4) 0.2329(3) 0.32639(16)
C19_2 C 0.1354(5) 0.7139(5) 0.1452(3)
C20_2 C 0.6354(5) 0.7861(5) 0.3548(3)
C21_2 C 0.3646(5) 0.2139(5) 0.3548(3)
H7_2 H 0.0999 0.7316 0.1371
H8_2 H 0.5999 0.7684 0.3629
H9_2 H 0.4001 0.2316 0.3629
C22_2 C 0.1619(4) 0.6719(4) 0.1266(2)
C23_2 C 0.6619(4) 0.8281(4) 0.3734(2)
C24_2 C 0.3381(4) 0.1719(4) 0.3734(2)
C25_2 C 0.2034(4) 0.6381(5) 0.1425(2)
C26_2 C 0.7034(4) 0.8619(5) 0.3575(2)
C27_2 C 0.2966(4) 0.1381(5) 0.3575(2)
H10_2 H 0.2191 0.6039 0.1331
H11_2 H 0.7191 0.8961 0.3669
H12_2 H 0.2809 0.1039 0.3669
C28_2 C 0.2746(5) 0.6223(4) 0.18908(17)
C29_2 C 0.7746(5) 0.8777(4) 0.31092(17)
C30_2 C 0.2254(5) 0.1223(4) 0.31092(17)
C31_2 C 0.1257(5) 0.7855(4) 0.1911(2)
C32_2 C 0.6257(5) 0.7145(4) 0.3089(2)
C33_2 C 0.3743(5) 0.2855(4) 0.3089(2)
C34_2 C 0.1341(8) 0.6540(6) 0.0977(2)
C35_2 C 0.6341(8) 0.8460(6) 0.4023(2)
C36_2 C 0.3659(8) 0.1540(6) 0.4023(2)
H13_3 H 0.716837 0.645896 0.209408
H14_3 H 0.737754 0.614476 0.24234
Mo26 Mo 0.93508(4) 0.96650(3) 0.169635(15)
Mo33 Mo 0.91420(4) 0.86460(3) 0.229337(17)
O88 O 0.8320(2) 0.9098(3) 0.23111(13)
O93_2 O 0.9239(3) 0.9585(3) 0.12877(10)
O96 O 0.9212(3) 0.8905(3) 0.18506(12)
H15_3 H 0.915915 0.997968 0.119149
H16_3 H 0.961505 0.94087 0.119066
Mo18_2 Mo 0.99580(4) 0.84062(3) 0.273382(16)
O59_2 O 0.9859(3) 0.7686(3) 0.27954(13)
O107_2 O 0.8820(3) 0.7971(3) 0.22431(13)
H15_4 H 0.0840851 0.0020317 0.119149
H16_4 H 0.0384955 0.0591297 0.119066
H13_4 H 0.283163 0.354104 0.209408
H14_4 H 0.262246 0.385524 0.24234
Mo35_2 Mo 0.54539(6) 0.04344(5) 0.418440(18)
Mo38_2 Mo 0.54426(8) 0.15227(6) 0.47686(3)
Mo40_2 Mo 0.45574(8) 0.15227(6) 0.52314(3)
Mo45_2 Mo 0.34289(6) 0.04937(8) 0.52555(2)
Mo47_2 Mo 0.65711(6) 0.04937(8) 0.47445(2)
O115_2 O 0.5573(4) 0.0553(4) 0.38117(14)
O123_2 O 0.5435(5) 0.1278(5) 0.4321(2)
O127_2 O 0.4565(5) 0.1278(5) 0.5679(2)
O129_2 O 0.6336(4) 0.0383(4) 0.43193(15)
O132_2 O 0.3664(4) 0.0383(4) 0.56807(15)
O133_2 O 0.5566(6) 0.2206(3) 0.47114(18)
O135_2 O 0.4434(6) 0.2206(3) 0.52886(18)
O143_2 O 0.2620(3) 0.0568(4) 0.5269(2)
O156_2 O 0.6372(4) 0.1290(4) 0.47527(14)
O158_2 O 0.3628(4) 0.1290(4) 0.52473(14)
Mo37_2 Mo 0.45461(6) 0.95656(5) 0.418440(18)
Mo42_2 Mo 0.45574(8) 0.84773(6) 0.47686(3)
Mo43_2 Mo 0.34289(6) 0.95063(8) 0.47445(2)
O117_2 O 0.4427(4) 0.9447(4) 0.38117(14)
O125_2 O 0.4565(5) 0.8722(5) 0.4321(2)
O130_2 O 0.3664(4) 0.9617(4) 0.43193(15)
O141_2 O 0.2620(3) 0.9432(4) 0.4731(2)
O159_2 O 0.3628(4) 0.8710(4) 0.47527(14)
O35_2 O 0.7380(3) 0.0568(4) 0.4731(2)
H13_5 H 0.783163 0.145896 0.290592
H14_5 H 0.762246 0.114476 0.25766
O33_2 O 0.4434(6) 0.7794(3) 0.47114(18)
Mo39_2 Mo 0.54426(8) 0.84773(6) 0.52314(3)
Mo44_2 Mo 0.65711(6) 0.95063(8) 0.52555(2)
O126_2 O 0.5435(5) 0.8722(5) 0.5679(2)
O131_2 O 0.6336(4) 0.9617(4) 0.56807(15)
O134_2 O 0.5566(6) 0.7794(3) 0.52886(18)
O142_2 O 0.7380(3) 0.9432(4) 0.5269(2)
O157_2 O 0.6372(4) 0.8710(4) 0.52473(14)
H15_5 H 0.584085 0.497968 0.380851
H16_5 H 0.538495 0.44087 0.380934
H15_6 H 0.415915 0.502032 0.380851
H16_6 H 0.461505 0.55913 0.380934
H13_6 H 0.216837 0.854104 0.290592
H14_6 H 0.237754 0.885524 0.25766
Mo36_2 Mo 0.45461(6) 0.04344(5) 0.581560(18)
O116_2 O 0.4427(4) 0.0553(4) 0.61883(14)
H13_7 H 0.216837 0.145896 0.709408
H14_7 H 0.237754 0.114476 0.74234
Mo7_2 Mo 0.54539(6) 0.95656(5) 0.581560(18)
O29_2 O 0.5573(4) 0.9447(4) 0.61883(14)
H15_7 H 0.415915 0.497968 0.619149
H16_7 H 0.461505 0.44087 0.619066
H15_8 H 0.584085 0.502032 0.619149
H16_8 H 0.538495 0.55913 0.619066
H13_8 H 0.783163 0.854104 0.709408
H14_8 H 0.762246 0.885524 0.74234
loop_
_geom_bond_atom_site_label_1
_geom_bond_atom_site_label_2
_geom_bond_site_symmetry_1
_geom_bond_site_symmetry_2
P1 O1 1_555 1_555
O2 P1 1_555 1_555
O3 P1 1_555 1_555
O4 P1 1_555 1_555
P1_2 O1_2 1_555 1_555
O2_2 P1_2 1_555 1_555
O3_2 P1_2 1_555 1_555
O4_2 P1_2 1_555 1_555
O2_3 P1_3 1_555 1_555
P1_4 O1_3 1_555 1_555
O3_3 P1_5 1_555 1_555
O4_3 P1_6 1_555 1_555
O3_4 P1_7 1_555 1_555
O4_4 P1_8 1_555 1_555
O2_4 P1_9 1_555 1_555
P1_10 O1_4 1_555 1_555
O7 P2 1_555 1_555
O6 P2_2 1_555 1_555
O8 P2_3 1_555 1_555
P2_4 O5 1_555 1_555
O6_2 P2_5 1_555 1_555
O8_2 P2_5 1_555 1_555
P2_6 O5_2 1_555 1_555
O7_2 P2_6 1_555 1_555
Zn21 O138 1_555 1_555
Mo29 O99 1_555 1_555
Mo32 O62 1_555 1_555
Mo35 O115 1_555 1_555
Mo38 O123 1_555 1_555
Mo47 O129 1_555 1_555
Zn7 O56 1_555 1_555
Zn20 O120 1_555 1_555
O59 Mo18 1_555 1_555
O62 Mo18 1_555 1_555
O91 Mo32 1_555 1_555
O99 Mo32 1_555 1_555
O107 Mo32 1_555 1_555
O120 Mo35 1_555 1_555
O123 Mo35 1_555 1_555
O129 Mo35 1_555 1_555
O133 Mo38 1_555 1_555
O156 Mo38 1_555 1_555
Mo47 O156 1_555 1_555
Zn7 O62 1_555 1_555
Mo34 O89 1_555 1_555
Zn9 O55 1_555 1_555
O94 Mo27 1_555 1_555
O97 Mo27 1_555 1_555
Mo34 O97 1_555 1_555
Zn9 O75 1_555 1_555
Mo40 O127 1_555 1_555
Mo45 O132 1_555 1_555
Zn21 O145 1_555 1_555
Zn22 O146 1_555 1_555
O126 Mo39 1_555 1_555
O131 Mo44 1_555 1_555
O134 Mo39 1_555 1_555
O135 Mo40 1_555 1_555
O142 Mo44 1_555 1_555
O143 Mo45 1_555 1_555
O157 Mo39 1_555 1_555
O158 Mo40 1_555 1_555
Mo44 O145 1_555 1_555
Mo44 O157 1_555 1_555
Mo45 O146 1_555 1_555
Mo45 O158 1_555 1_555
Mo1 O9 1_555 1_555
Mo2 O11 1_555 1_555
Mo3 O10 1_555 1_555
Mo4 O18 1_555 1_555
Mo5 O21 1_555 1_555
Mo6 O14 1_555 1_555
Mo47 O35 1_555 1_555
Zn1 O12 1_555 1_555
Zn2 O15 1_555 1_555
O10 Mo1 1_555 1_555
O11 Mo1 1_555 1_555
O12 Mo1 1_555 1_555
O13 Mo2 1_555 1_555
O14 Mo2 1_555 1_555
O15 Mo2 1_555 1_555
O16 Mo2 1_555 1_555
O17 Mo3 1_555 1_555
O18 Mo3 1_555 1_555
O19 Mo3 1_555 1_555
O20 Mo4 1_555 1_555
O21 Mo4 1_555 1_555
O22 Mo4 1_555 1_555
O23 Mo5 1_555 1_555
O24 Mo6 1_555 1_555
O25 Mo5 1_555 1_555
O26 Mo6 1_555 1_555
O27 Zn1 1_555 1_555
O28 C8 1_555 1_555
O36 Mo47 1_555 1_555
O37 Zn20 1_555 1_555
O38 Zn20 1_555 1_555
O40 C7 1_555 1_555
O41 C8 1_555 1_555
C1 C2 1_555 1_555
C2 H1 1_555 1_555
C3 C2 1_555 1_555
C4 C3 1_555 1_555
H2 C4 1_555 1_555
C5 C4 1_555 1_555
C6 C1 1_555 1_555
H3 C6 1_555 1_555
C7 O27 1_555 1_555
C8 C3 1_555 1_555
C9 O37 1_555 1_555
Mo10 O12 1_555 1_555
Mo13 O43 1_555 1_555
Mo12 O44 1_555 1_555
Mo16 O48 1_555 1_555
Mo19 O45 1_555 1_555
Mo20 O46 1_555 1_555
Mo21 O47 1_555 1_555
Mo22 O73 1_555 1_555
Mo25 O24 1_555 1_555
Mo30 O22 1_555 1_555
Mo37 O117 1_555 1_555
Mo42 O125 1_555 1_555
Mo43 O130 1_555 1_555
Zn4 O14 1_555 1_555
Zn9 O110 1_555 1_555
Zn11 O28 1_555 1_555
Zn12 O66 1_555 1_555
Zn13 O64 1_555 1_555
Zn14 O118 1_555 1_555
Zn15 O121 1_555 1_555
Zn16 O122 1_555 1_555
O42 Mo10 1_555 1_555
O45 Mo10 1_555 1_555
O46 Mo13 1_555 1_555
O47 Mo12 1_555 1_555
O48 Mo10 1_555 1_555
O49 Mo13 1_555 1_555
O50 Mo12 1_555 1_555
O51 Mo1 1_555 1_555
O57 Mo16 1_555 1_555
O60 Zn1 1_555 1_555
O64 Mo16 1_555 1_555
O67 Mo16 1_555 1_555
O70 Mo19 1_555 1_555
O71 Mo20 1_555 1_555
O72 Mo21 1_555 1_555
O73 Mo19 1_555 1_555
O76 Zn7 1_555 1_555
O78 Mo19 1_555 1_555
O79 Mo20 1_555 1_555
O80 Mo21 1_555 1_555
O81 Mo22 1_555 1_555
O82 Mo23 1_555 1_555
O83 Mo24 1_555 1_555
O84 Mo22 1_555 1_555
O85 Mo23 1_555 1_555
O86 Mo24 1_555 1_555
O87 Mo6 1_555 1_555
O92 Mo25 1_555 1_555
O95 Mo5 1_555 1_555
O102 Mo5 1_555 1_555
O105 Mo30 1_555 1_555
O108 Zn4 1_555 1_555
O109 Zn7 1_555 1_555
O110 C30 1_555 1_555
O112 Zn12 1_555 1_555
O113 Zn2 1_555 1_555
O114 Zn13 1_555 1_555
O125 Mo37 1_555 1_555
O130 Mo37 1_555 1_555
O139 Zn15 1_555 1_555
O140 Zn16 1_555 1_555
O141 Mo43 1_555 1_555
O144 Mo43 1_555 1_555
O147 Zn15 1_555 1_555
O148 Zn16 1_555 1_555
O149 Zn14 1_555 1_555
O150 Zn15 1_555 1_555
O151 Zn16 1_555 1_555
O152 Zn14 1_555 1_555
O153 Zn15 1_555 1_555
O154 Zn16 1_555 1_555
O159 Mo42 1_555 1_555
O160 C28 1_555 1_555
O161 C29 1_555 1_555
O162 C30 1_555 1_555
O163 C31 1_555 1_555
O164 C32 1_555 1_555
O165 C33 1_555 1_555
C10 C13 1_555 1_555
C11 C14 1_555 1_555
C12 C15 1_555 1_555
C13 H4 1_555 1_555
C14 H5 1_555 1_555
C15 H6 1_555 1_555
C16 C13 1_555 1_555
C17 C14 1_555 1_555
C18 C15 1_555 1_555
C19 C16 1_555 1_555
C20 C17 1_555 1_555
C21 C18 1_555 1_555
H7 C19 1_555 1_555
H8 C20 1_555 1_555
H9 C21 1_555 1_555
C22 C19 1_555 1_555
C23 C20 1_555 1_555
C24 C21 1_555 1_555
C25 C10 1_555 1_555
C26 C11 1_555 1_555
C27 C12 1_555 1_555
H10 C25 1_555 1_555
H11 C26 1_555 1_555
H12 C27 1_555 1_555
C28 O108 1_555 1_555
C29 O109 1_555 1_555
C30 C12 1_555 1_555
C31 O112 1_555 1_555
C32 O113 1_555 1_555
C33 O114 1_555 1_555
C34 O149 1_555 1_555
C35 O150 1_555 1_555
C36 O151 1_555 1_555
Mo3 O16 1_555 1_555
Mo4 O19 1_555 1_555
Mo6 O15 1_555 1_555
Zn1 O18 1_555 1_555
Zn2 O19 1_555 1_555
Zn2 O25 1_555 1_555
Zn20 O34 1_555 1_555
Zn20 O36 1_555 1_555
O25 Mo25 1_555 1_555
O38 C9 1_555 1_555
C1 C7 1_555 1_555
C5 C6 1_555 1_555
C5 C9 1_555 1_555
Mo10 O51 1_555 1_555
Mo16 O60 1_555 1_555
Mo19 O67 1_555 1_555
Mo20 O68 1_555 1_555
Mo21 O69 1_555 1_555
Mo22 O78 1_555 1_555
Mo22 O87 1_555 1_555
Mo23 O79 1_555 1_555
Mo24 O80 1_555 1_555
Mo25 O84 1_555 1_555
Mo25 O102 1_555 1_555
Mo30 O60 1_555 1_555
Mo30 O64 1_555 1_555
Mo30 O95 1_555 1_555
Mo37 O118 1_555 1_555
Mo43 O159 1_555 1_555
Zn4 O51 1_555 1_555
Zn4 O73 1_555 1_555
Zn11 O65 1_555 1_555
Zn11 O79 1_555 1_555
Zn11 O104 1_555 1_555
Zn12 O80 1_555 1_555
Zn12 O101 1_555 1_555
Zn13 O78 1_555 1_555
Zn13 O102 1_555 1_555
Zn14 O136 1_555 1_555
Zn14 O144 1_555 1_555
O152 C34 1_555 1_555
O153 C35 1_555 1_555
O154 C36 1_555 1_555
C10 C28 1_555 1_555
C11 C29 1_555 1_555
C16 C31 1_555 1_555
C17 C32 1_555 1_555
C18 C33 1_555 1_555
C22 C25 1_555 1_555
C22 C34 1_555 1_555
C23 C26 1_555 1_555
C23 C35 1_555 1_555
C24 C27 1_555 1_555
C24 C36 1_555 1_555
O17 H13 1_555 1_555
O17 H14 1_555 1_555
O93 Mo29 1_555 1_555
O93 H15 1_555 1_555
O93 H16 1_555 1_555
Zn22 O137 1_555 1_555
O33 Mo42 1_555 1_555
Mo34 O61 1_555 1_555
O58 Mo17 1_555 1_555
O61 Mo17 1_555 1_555
O106 Mo34 1_555 1_555
Zn9 O61 1_555 1_555
O94 H15_2 1_555 1_555
O94 H16_2 1_555 1_555
O70 H13_2 1_555 1_555
O70 H14_2 1_555 1_555
Mo7 O29 1_555 1_555
O126 Mo7 1_555 1_555
O131 Mo7 1_555 1_555
Mo28 O98 1_555 1_555
Mo31 O61_2 1_555 1_555
Zn6 O54 1_555 1_555
Zn21 O119 1_555 1_555
O58_2 Mo17_2 1_555 1_555
O61_2 Mo17_2 1_555 1_555
O77 Zn6 1_555 1_555
O90 Mo31 1_555 1_555
O98 Mo31 1_555 1_555
O106_2 Mo31 1_555 1_555
O111 Zn6 1_555 1_555
O119 Mo7 1_555 1_555
Zn6 O61_2 1_555 1_555
O94_2 Mo28 1_555 1_555
Mo1_2 O9_2 1_555 1_555
Mo2_2 O11_2 1_555 1_555
Mo3_2 O10_2 1_555 1_555
Mo4_2 O18_2 1_555 1_555
Mo5_2 O21_2 1_555 1_555
Mo6_2 O14_2 1_555 1_555
Zn1_2 O12_2 1_555 1_555
Zn2_2 O15_2 1_555 1_555
Zn22 O30 1_555 1_555
O10_2 Mo1_2 1_555 1_555
O11_2 Mo1_2 1_555 1_555
O12_2 Mo1_2 1_555 1_555
O13_2 Mo2_2 1_555 1_555
O14_2 Mo2_2 1_555 1_555
O15_2 Mo2_2 1_555 1_555
O16_2 Mo2_2 1_555 1_555
O17_2 Mo3_2 1_555 1_555
O18_2 Mo3_2 1_555 1_555
O19_2 Mo3_2 1_555 1_555
O20_2 Mo4_2 1_555 1_555
O21_2 Mo4_2 1_555 1_555
O22_2 Mo4_2 1_555 1_555
O23_2 Mo5_2 1_555 1_555
O24_2 Mo6_2 1_555 1_555
O25_2 Mo5_2 1_555 1_555
O26_2 Mo6_2 1_555 1_555
O27_2 Zn1_2 1_555 1_555
O28_2 C8_2 1_555 1_555
O37_2 Zn22 1_555 1_555
O38_2 Zn22 1_555 1_555
O40_2 C7_2 1_555 1_555
O41_2 C8_2 1_555 1_555
C1_2 C2_2 1_555 1_555
C2_2 H1_2 1_555 1_555
C3_2 C2_2 1_555 1_555
C4_2 C3_2 1_555 1_555
H2_2 C4_2 1_555 1_555
C5_2 C4_2 1_555 1_555
C6_2 C1_2 1_555 1_555
H3_2 C6_2 1_555 1_555
C7_2 O27_2 1_555 1_555
C8_2 C3_2 1_555 1_555
C9_2 O37_2 1_555 1_555
Mo10_2 O12_2 1_555 1_555
Mo13_2 O43_2 1_555 1_555
Mo14 O44_2 1_555 1_555
Mo16_2 O48_2 1_555 1_555
Mo19_2 O45_2 1_555 1_555
Mo20_2 O46_2 1_555 1_555
Mo21_2 O47_2 1_555 1_555
Mo22_2 O73_2 1_555 1_555
Mo25_2 O24_2 1_555 1_555
Mo30_2 O22_2 1_555 1_555
Mo36 O30 1_555 1_555
Zn4_2 O14_2 1_555 1_555
Zn5 O52 1_555 1_555
Zn11_2 O28_2 1_555 1_555
Zn12_2 O66_2 1_555 1_555
Zn13_2 O64_2 1_555 1_555
Zn15_2 O121_2 1_555 1_555
Zn16_2 O122_2 1_555 1_555
O42_2 Mo10_2 1_555 1_555
O45_2 Mo10_2 1_555 1_555
O46_2 Mo13_2 1_555 1_555
O47_2 Mo14 1_555 1_555
O48_2 Mo10_2 1_555 1_555
O49_2 Mo13_2 1_555 1_555
O50_2 Mo14 1_555 1_555
O51_2 Mo1_2 1_555 1_555
O57_2 Mo16_2 1_555 1_555
O60_2 Zn1_2 1_555 1_555
O63 Zn5 1_555 1_555
O64_2 Mo16_2 1_555 1_555
O67_2 Mo16_2 1_555 1_555
O70_2 Mo19_2 1_555 1_555
O71_2 Mo20_2 1_555 1_555
O72_2 Mo21_2 1_555 1_555
O73_2 Mo19_2 1_555 1_555
O76_2 Zn5 1_555 1_555
O78_2 Mo19_2 1_555 1_555
O79_2 Mo20_2 1_555 1_555
O80_2 Mo21_2 1_555 1_555
O81_2 Mo22_2 1_555 1_555
O82_2 Mo23_2 1_555 1_555
O83_2 Mo24_2 1_555 1_555
O84_2 Mo22_2 1_555 1_555
O85_2 Mo23_2 1_555 1_555
O86_2 Mo24_2 1_555 1_555
O87_2 Mo6_2 1_555 1_555
O92_2 Mo25_2 1_555 1_555
O95_2 Mo5_2 1_555 1_555
O102_2 Mo5_2 1_555 1_555
O105_2 Mo30_2 1_555 1_555
O108_2 Zn4_2 1_555 1_555
O109_2 Zn5 1_555 1_555
O111 C30_2 1_555 1_555
O112_2 Zn12_2 1_555 1_555
O113_2 Zn2_2 1_555 1_555
O114_2 Zn13_2 1_555 1_555
O116 Mo36 1_555 1_555
O127 Mo36 1_555 1_555
O139_2 Zn15_2 1_555 1_555
O140_2 Zn16_2 1_555 1_555
O147_2 Zn15_2 1_555 1_555
O148_2 Zn16_2 1_555 1_555
O149_2 Zn21 1_555 1_555
O150_2 Zn15_2 1_555 1_555
O151_2 Zn16_2 1_555 1_555
O152_2 Zn21 1_555 1_555
O153_2 Zn15_2 1_555 1_555
O154_2 Zn16_2 1_555 1_555
O160_2 C28_2 1_555 1_555
O161_2 C29_2 1_555 1_555
O162_2 C30_2 1_555 1_555
O163_2 C31_2 1_555 1_555
O164_2 C32_2 1_555 1_555
O165_2 C33_2 1_555 1_555
C10_2 C13_2 1_555 1_555
C11_2 C14_2 1_555 1_555
C12_2 C15_2 1_555 1_555
C13_2 H4_2 1_555 1_555
C14_2 H5_2 1_555 1_555
C15_2 H6_2 1_555 1_555
C16_2 C13_2 1_555 1_555
C17_2 C14_2 1_555 1_555
C18_2 C15_2 1_555 1_555
C19_2 C16_2 1_555 1_555
C20_2 C17_2 1_555 1_555
C21_2 C18_2 1_555 1_555
H7_2 C19_2 1_555 1_555
H8_2 C20_2 1_555 1_555
H9_2 C21_2 1_555 1_555
C22_2 C19_2 1_555 1_555
C23_2 C20_2 1_555 1_555
C24_2 C21_2 1_555 1_555
C25_2 C10_2 1_555 1_555
C26_2 C11_2 1_555 1_555
C27_2 C12_2 1_555 1_555
H10_2 C25_2 1_555 1_555
H11_2 C26_2 1_555 1_555
H12_2 C27_2 1_555 1_555
C28_2 O108_2 1_555 1_555
C29_2 O109_2 1_555 1_555
C30_2 C12_2 1_555 1_555
C31_2 O112_2 1_555 1_555
C32_2 O113_2 1_555 1_555
C33_2 O114_2 1_555 1_555
C34_2 O149_2 1_555 1_555
C35_2 O150_2 1_555 1_555
C36_2 O151_2 1_555 1_555
Mo3_2 O16_2 1_555 1_555
Mo4_2 O19_2 1_555 1_555
Mo6_2 O15_2 1_555 1_555
Zn1_2 O18_2 1_555 1_555
Zn2_2 O19_2 1_555 1_555
Zn2_2 O25_2 1_555 1_555
O25_2 Mo25_2 1_555 1_555
O38_2 C9_2 1_555 1_555
C1_2 C7_2 1_555 1_555
C5_2 C6_2 1_555 1_555
C5_2 C9_2 1_555 1_555
Mo10_2 O51_2 1_555 1_555
Mo16_2 O60_2 1_555 1_555
Mo19_2 O67_2 1_555 1_555
Mo20_2 O68_2 1_555 1_555
Mo21_2 O69_2 1_555 1_555
Mo22_2 O78_2 1_555 1_555
Mo22_2 O87_2 1_555 1_555
Mo23_2 O79_2 1_555 1_555
Mo24_2 O80_2 1_555 1_555
Mo25_2 O84_2 1_555 1_555
Mo25_2 O102_2 1_555 1_555
Mo30_2 O60_2 1_555 1_555
Mo30_2 O64_2 1_555 1_555
Mo30_2 O95_2 1_555 1_555
Mo36 O132 1_555 1_555
Zn4_2 O51_2 1_555 1_555
Zn4_2 O73_2 1_555 1_555
Zn11_2 O65_2 1_555 1_555
Zn11_2 O79_2 1_555 1_555
Zn11_2 O100 1_555 1_555
Zn12_2 O80_2 1_555 1_555
Zn12_2 O103 1_555 1_555
Zn13_2 O78_2 1_555 1_555
Zn13_2 O102_2 1_555 1_555
O152_2 C34_2 1_555 1_555
O153_2 C35_2 1_555 1_555
O154_2 C36_2 1_555 1_555
C10_2 C28_2 1_555 1_555
C11_2 C29_2 1_555 1_555
C16_2 C31_2 1_555 1_555
C17_2 C32_2 1_555 1_555
C18_2 C33_2 1_555 1_555
C22_2 C25_2 1_555 1_555
C22_2 C34_2 1_555 1_555
C23_2 C26_2 1_555 1_555
C23_2 C35_2 1_555 1_555
C24_2 C27_2 1_555 1_555
C24_2 C36_2 1_555 1_555
O17_2 H13_3 1_555 1_555
O17_2 H14_3 1_555 1_555
Mo33 O88 1_555 1_555
O93_2 Mo26 1_555 1_555
O96 Mo26 1_555 1_555
Mo33 O96 1_555 1_555
O93_2 H15_3 1_555 1_555
O93_2 H16_3 1_555 1_555
Mo33 O63 1_555 1_555
O59_2 Mo18_2 1_555 1_555
O63 Mo18_2 1_555 1_555
O107_2 Mo33 1_555 1_555
O94_2 H15_4 1_555 1_555
O94_2 H16_4 1_555 1_555
O70_2 H13_4 1_555 1_555
O70_2 H14_4 1_555 1_555
Mo35_2 O115_2 1_555 1_555
Mo38_2 O123_2 1_555 1_555
Mo40_2 O127_2 1_555 1_555
Mo45_2 O132_2 1_555 1_555
Mo47_2 O129_2 1_555 1_555
O122_2 Mo35_2 1_555 1_555
O123_2 Mo35_2 1_555 1_555
O129_2 Mo35_2 1_555 1_555
O133_2 Mo38_2 1_555 1_555
O135_2 Mo40_2 1_555 1_555
O140_2 Mo38_2 1_555 1_555
O140 Mo38_2 1_555 1_555
O143_2 Mo45_2 1_555 1_555
O156_2 Mo38_2 1_555 1_555
O158_2 Mo40_2 1_555 1_555
Mo40_2 O140_2 1_555 1_555
Mo40_2 O140 1_555 1_555
Mo45_2 O148_2 1_555 1_555
Mo45_2 O158_2 1_555 1_555
Mo47_2 O156_2 1_555 1_555
Mo37_2 O117_2 1_555 1_555
Mo42_2 O125_2 1_555 1_555
Mo43_2 O130_2 1_555 1_555
O125_2 Mo37_2 1_555 1_555
O130_2 Mo37_2 1_555 1_555
O141_2 Mo43_2 1_555 1_555
O147 Mo43_2 1_555 1_555
O159_2 Mo42_2 1_555 1_555
Mo37_2 O121_2 1_555 1_555
Mo43_2 O159_2 1_555 1_555
Mo47_2 O35_2 1_555 1_555
O148 Mo47_2 1_555 1_555
O71_2 H13_5 1_555 1_555
O71_2 H14_5 1_555 1_555
O33_2 Mo42_2 1_555 1_555
O139_2 Mo42_2 1_555 1_555
Mo39_2 O139_2 1_555 1_555
Mo44_2 O147_2 1_555 1_555
O126_2 Mo39_2 1_555 1_555
O131_2 Mo44_2 1_555 1_555
O134_2 Mo39_2 1_555 1_555
O139 Mo42_2 1_555 1_555
O142_2 Mo44_2 1_555 1_555
O157_2 Mo39_2 1_555 1_555
Mo39_2 O139 1_555 1_555
Mo44_2 O157_2 1_555 1_555
O23_2 H15_5 1_555 1_555
O23_2 H16_5 1_555 1_555
O92_2 H15_6 1_555 1_555
O92_2 H16_6 1_555 1_555
O72_2 H13_6 1_555 1_555
O72_2 H14_6 1_555 1_555
O116_2 Mo36_2 1_555 1_555
O127_2 Mo36_2 1_555 1_555
Mo36_2 O122 1_555 1_555
Mo36_2 O132_2 1_555 1_555
O71 H13_7 1_555 1_555
O71 H14_7 1_555 1_555
Mo7_2 O29_2 1_555 1_555
O121 Mo7_2 1_555 1_555
O126_2 Mo7_2 1_555 1_555
O131_2 Mo7_2 1_555 1_555
O23 H15_7 1_555 1_555
O23 H16_7 1_555 1_555
O92 H15_8 1_555 1_555
O92 H16_8 1_555 1_555
O72 H13_8 1_555 1_555
O72 H14_8 1_555 1_555

#END
