
###############################################################################
#
# This file contains modified crystal structure data generated from the
# MOF subset of the Cambridge Structural Database (CSD) v543 
# hosted by the Cambridge Crystallographic Data Centre (CCDC).
#
# This work is licensed under the Creative Commons
# Attribution-NonCommercial-ShareAlike 4.0 International License.
# To view a copy of this license, visit
# http://creativecommons.org/licenses/by-nc-sa/4.0/
# or send a letter to
# Creative Commons, PO Box 1866, Mountain View, CA 94042, USA.
#
# CIF created using the CSD Python API on 29 September 2022
# The structure has been converted into the P1 space group
# The structure has a 3D framework
# The original CSD entry IZOWEA is in the orthorhombic crystal system
# The framework has been calculated to contain at least 10.0% void space
# The void calculation uses a probe of radius 1.32A, grid spacing 0.4
# The framework is charged, counterions have been retained in the structure
#
###############################################################################

data_IZOWEA
_chemical_formula_moiety         '(C42 H14 Mo52 O194 P6 Zn20 14-)n'
_symmetry_cell_setting           triclinic
_symmetry_space_group_name_H-M   'P 1'
_symmetry_Int_Tables_number      1
_space_group_name_Hall           'P 1'
loop_
_symmetry_equiv_pos_site_id
_symmetry_equiv_pos_as_xyz
1 x,y,z
_cell_length_a                   24.156(9)
_cell_length_b                   24.992(9)
_cell_length_c                   16.214(6)
_cell_angle_alpha                90
_cell_angle_beta                 90
_cell_angle_gamma                90
_cell_volume                     9788.5
loop_
_atom_site_label
_atom_site_type_symbol
_atom_site_fract_x
_atom_site_fract_y
_atom_site_fract_z
P1 P 0.17736(19) 0.56308(16) 0.0000
O1 O 0.2425(5) 0.5646(4) 0.0000
O2 O 0.1546(4) 0.5050(4) 0.0000
O4 O 0.1574(3) 0.5915(3) 0.0782(5)
P1_2 P 0.17736(19) 0.56308(16) 1.0000
O1_2 O 0.2425(5) 0.5646(4) 1.0000
O2_2 O 0.1546(4) 0.5050(4) 1.0000
O3 O 0.1574(3) 0.5915(3) 0.9218(5)
P1_3 P 0.82264(19) 0.43692(16) 0.0000
O1_3 O 0.7575(5) 0.4354(4) 0.0000
O2_3 O 0.8454(4) 0.4950(4) 0.0000
O4_2 O 0.8426(3) 0.4085(3) 0.0782(5)
P1_4 P 0.82264(19) 0.43692(16) 1.0000
O1_4 O 0.7575(5) 0.4354(4) 1.0000
O2_4 O 0.8454(4) 0.4950(4) 1.0000
O3_2 O 0.8426(3) 0.4085(3) 0.9218(5)
P1_5 P 0.32264(19) 0.06308(16) 0.5000
O1_5 O 0.2575(5) 0.0646(4) 0.5000
O2_5 O 0.3454(4) 0.0050(4) 0.5000
O3_3 O 0.3426(3) 0.0915(3) 0.5782(5)
O4_3 O 0.3426(3) 0.0915(3) 0.4218(5)
P1_6 P 0.67736(19) 0.93692(16) 0.5000
O1_6 O 0.7425(5) 0.9354(4) 0.5000
O2_6 O 0.6546(4) 0.9950(4) 0.5000
O3_4 O 0.6574(3) 0.9085(3) 0.5782(5)
O4_4 O 0.6574(3) 0.9085(3) 0.4218(5)
Mo2 Mo 0.20308(7) 0.41413(6) 0.0000
Mo5 Mo 0.21488(5) 0.63408(4) 0.18775(8)
Mo6 Mo 0.31202(7) 0.48589(7) 0.0000
Mo7 Mo 0.30337(5) 0.60309(5) 0.10919(9)
Zn2 Zn 0.28067(10) 0.20760(8) 0.5000
Zn3 Zn 0.22872(7) 0.48810(6) 0.17889(10)
O5 O 0.0599(5) 0.4384(4) 0.0000
O8 O 0.2474(5) 0.4543(4) 0.2824(7)
O9 O 0.3635(6) 0.1977(4) 0.5000
O13 O 0.2533(3) 0.4558(3) 0.0752(6)
O14 O 0.2507(3) 0.5641(3) 0.1819(6)
O15 O 0.2511(4) 0.6645(3) 0.0915(6)
O17 O 0.2322(6) 0.3536(4) 0.0000
O18 O 0.2437(4) 0.6647(4) 0.2648(6)
O19 O 0.3395(5) 0.6266(5) 0.0000
O22 O 0.3527(4) 0.6256(4) 0.1758(7)
O24 O 0.1549(4) 0.6874(3) 0.1615(6)
O26 O 0.2100(4) 0.5234(3) 0.3472(7)
O27 O 0.3609(6) 0.4384(5) 0.0000
O28 O 0.2683(5) 0.2807(4) 0.5635(7)
C1 C 0.2521(5) 0.3953(4) 0.4247(9)
H1 H 0.2587 0.3775 0.3754
C2 C 0.2405(5) 0.4487(4) 0.4238(8)
C3 C 0.2349(7) 0.4744(7) 0.5000
H2 H 0.2270 0.5108 0.5000
C4 C 0.2542(7) 0.3669(6) 0.5000
C5 C 0.2316(5) 0.4779(4) 0.3478(10)
C6 C 0.2660(7) 0.3063(6) 0.5000
Mo8 Mo 0.09158(5) 0.46201(4) 0.10803(7)
Mo9 Mo 0.09238(5) 0.55213(4) 0.19071(7)
Mo10 Mo 0.40601(5) 0.17598(4) 0.40148(8)
Mo12 Mo 0.40601(5) 0.17598(4) 0.59852(8)
Mo14 Mo 0.09399(5) 0.67598(4) 0.09852(8)
Mo16 Mo 0.28512(5) 0.13408(4) 0.31225(8)
Mo18 Mo 0.19663(5) 0.10309(5) 0.39081(9)
Zn4 Zn 0.02108(9) 0.57203(7) 0.0000
Zn5 Zn 0.21933(10) 0.70760(8) 0.0000
Zn7 Zn 0.22872(7) 0.48810(6) 0.82111(10)
O29 O 0.4444(5) 0.1423(4) 0.5000
O30 O 0.0529(3) 0.5303(2) 0.0922(5)
O33 O 0.2474(5) 0.4543(4) 0.7176(7)
O36 O 0.0535(3) 0.4252(3) 0.1716(5)
O37 O 0.1474(3) 0.4959(3) 0.1815(5)
O38 O 0.0540(4) 0.5359(3) 0.2706(5)
O41 O 0.2489(4) 0.1645(3) 0.4085(6)
O42 O 0.2489(4) 0.1645(3) 0.5915(6)
O44 O 0.4437(4) 0.2306(3) 0.3827(6)
O46 O 0.1535(3) 0.4100(3) 0.0835(5)
O47 O 0.0640(4) 0.6241(3) 0.1650(6)
O49 O 0.4360(4) 0.1241(3) 0.3350(6)
O51 O 0.1559(3) 0.5916(3) 0.2572(6)
O54 O 0.3451(4) 0.1874(3) 0.3385(6)
O55 O 0.3322(3) 0.5299(3) 0.0854(6)
O56 O 0.2100(4) 0.5234(3) 0.6528(7)
O57 O 0.2683(5) 0.2807(4) 0.4365(7)
C7 C 0.2521(5) 0.3953(4) 0.5753(9)
H3 H 0.2587 0.3775 0.6246
C8 C 0.2405(5) 0.4487(4) 0.5762(8)
C9 C 0.2316(5) 0.4779(4) 0.6522(10)
Mo1 Mo 0.09158(5) 0.46201(4) 0.89197(7)
Mo2_2 Mo 0.20308(7) 0.41413(6) 1.0000
Mo3 Mo 0.09238(5) 0.55213(4) 0.80929(7)
Mo6_2 Mo 0.31202(7) 0.48589(7) 1.0000
O5_2 O 0.0599(5) 0.4384(4) 1.0000
O7 O 0.0529(3) 0.5303(2) 0.9078(5)
O10 O 0.0535(3) 0.4252(3) 0.8284(5)
O11 O 0.1474(3) 0.4959(3) 0.8185(5)
O12 O 0.0540(4) 0.5359(3) 0.7294(5)
O17_2 O 0.2322(6) 0.3536(4) 1.0000
O19_2 O 0.3395(5) 0.6266(5) 1.0000
O20 O 0.1535(3) 0.4100(3) 0.9165(5)
O21 O 0.0640(4) 0.6241(3) 0.8350(6)
O23 O 0.1559(3) 0.5916(3) 0.7428(6)
O25 O 0.3322(3) 0.5299(3) 0.9146(6)
O27_2 O 0.3609(6) 0.4384(5) 1.0000
Mo13 Mo 0.09399(5) 0.67598(4) 0.90148(8)
Mo15 Mo 0.21488(5) 0.63408(4) 0.81225(8)
Mo17 Mo 0.30337(5) 0.60309(5) 0.89081(9)
Zn4_2 Zn 0.02108(9) 0.57203(7) 1.0000
Zn5_2 Zn 0.21933(10) 0.70760(8) 1.0000
O39 O 0.2533(3) 0.4558(3) 0.9248(6)
O40 O 0.2507(3) 0.5641(3) 0.8181(6)
O43 O 0.2511(4) 0.6645(3) 0.9085(6)
O45 O 0.2437(4) 0.6647(4) 0.7352(6)
O50 O 0.3527(4) 0.6256(4) 0.8242(7)
O52 O 0.1549(4) 0.6874(3) 0.8385(6)
Zn1 Zn 0.97892(9) 0.42797(7) 0.0000
O6 O 0.9444(5) 0.3577(4) 0.0000
Mo11 Mo 0.90601(5) 0.32402(4) 0.09852(8)
O32 O 0.9471(3) 0.4697(2) 0.0922(5)
O35 O 0.8635(6) 0.3023(4) 0.0000
Mo4 Mo 0.90601(5) 0.32402(4) 0.90148(8)
Zn1_2 Zn 0.97892(9) 0.42797(7) 1.0000
O6_2 O 0.9444(5) 0.3577(4) 1.0000
O16 O 0.9437(4) 0.2694(3) 0.8827(6)
O31 O 0.9471(3) 0.4697(2) 0.9078(5)
O35_2 O 0.8635(6) 0.3023(4) 1.0000
O48 O 0.9360(4) 0.3759(3) 0.8350(6)
O53 O 0.8451(4) 0.3126(3) 0.8385(6)
O6_3 O 0.0556(5) 0.6423(4) 0.0000
O35_3 O 0.1365(6) 0.6977(4) 0.0000
O6_4 O 0.0556(5) 0.6423(4) 1.0000
O16_2 O 0.0563(4) 0.7306(3) 0.8827(6)
O35_4 O 0.1365(6) 0.6977(4) 1.0000
Mo2_3 Mo 0.79692(7) 0.58587(6) 0.0000
Mo5_2 Mo 0.78512(5) 0.36592(4) 0.18775(8)
Mo6_3 Mo 0.68798(7) 0.51411(7) 0.0000
Mo7_2 Mo 0.69663(5) 0.39691(5) 0.10919(9)
Zn2_2 Zn 0.71933(10) 0.79240(8) 0.5000
Zn3_2 Zn 0.77128(7) 0.51190(6) 0.17889(10)
O5_3 O 0.9401(5) 0.5616(4) 0.0000
O8_2 O 0.7526(5) 0.5457(4) 0.2824(7)
O9_2 O 0.6365(6) 0.8023(4) 0.5000
O13_2 O 0.7467(3) 0.5442(3) 0.0752(6)
O14_2 O 0.7493(3) 0.4359(3) 0.1819(6)
O15_2 O 0.7489(4) 0.3355(3) 0.0915(6)
O17_3 O 0.7678(6) 0.6464(4) 0.0000
O18_2 O 0.7563(4) 0.3353(4) 0.2648(6)
O19_3 O 0.6605(5) 0.3734(5) 0.0000
O22_2 O 0.6473(4) 0.3744(4) 0.1758(7)
O24_2 O 0.8451(4) 0.3126(3) 0.1615(6)
O26_2 O 0.7900(4) 0.4766(3) 0.3472(7)
O27_3 O 0.6391(6) 0.5616(5) 0.0000
O28_2 O 0.7317(5) 0.7193(4) 0.5635(7)
C1_2 C 0.7479(5) 0.6047(4) 0.4247(9)
H1_2 H 0.7413 0.6225 0.3754
C2_2 C 0.7595(5) 0.5513(4) 0.4238(8)
C3_2 C 0.7651(7) 0.5256(7) 0.5000
H2_2 H 0.7730 0.4892 0.5000
C4_2 C 0.7458(7) 0.6331(6) 0.5000
C5_2 C 0.7684(5) 0.5221(4) 0.3478(10)
C6_2 C 0.7340(7) 0.6937(6) 0.5000
Mo8_2 Mo 0.90842(5) 0.53799(4) 0.10803(7)
Mo9_2 Mo 0.90762(5) 0.44787(4) 0.19071(7)
Mo10_2 Mo 0.59399(5) 0.82402(4) 0.40148(8)
Mo12_2 Mo 0.59399(5) 0.82402(4) 0.59852(8)
Mo16_2 Mo 0.71488(5) 0.86592(4) 0.31225(8)
Mo18_2 Mo 0.80337(5) 0.89691(5) 0.39081(9)
Zn5_3 Zn 0.78067(10) 0.29240(8) 0.0000
Zn7_2 Zn 0.77128(7) 0.51190(6) 0.82111(10)
O29_2 O 0.5556(5) 0.8577(4) 0.5000
O33_2 O 0.7526(5) 0.5457(4) 0.7176(7)
O36_2 O 0.9465(3) 0.5748(3) 0.1716(5)
O37_2 O 0.8526(3) 0.5041(3) 0.1815(5)
O38_2 O 0.9460(4) 0.4641(3) 0.2706(5)
O41_2 O 0.7511(4) 0.8355(3) 0.4085(6)
O42_2 O 0.7511(4) 0.8355(3) 0.5915(6)
O44_2 O 0.5563(4) 0.7694(3) 0.3827(6)
O46_2 O 0.8465(3) 0.5900(3) 0.0835(5)
O47_2 O 0.9360(4) 0.3759(3) 0.1650(6)
O49_2 O 0.5640(4) 0.8759(3) 0.3350(6)
O51_2 O 0.8441(3) 0.4084(3) 0.2572(6)
O54_2 O 0.6549(4) 0.8126(3) 0.3385(6)
O55_2 O 0.6678(3) 0.4701(3) 0.0854(6)
O56_2 O 0.7900(4) 0.4766(3) 0.6528(7)
O57_2 O 0.7317(5) 0.7193(4) 0.4365(7)
C7_2 C 0.7479(5) 0.6047(4) 0.5753(9)
H3_2 H 0.7413 0.6225 0.6246
C8_2 C 0.7595(5) 0.5513(4) 0.5762(8)
C9_2 C 0.7684(5) 0.5221(4) 0.6522(10)
Mo1_2 Mo 0.90842(5) 0.53799(4) 0.89197(7)
Mo2_4 Mo 0.79692(7) 0.58587(6) 1.0000
Mo3_2 Mo 0.90762(5) 0.44787(4) 0.80929(7)
Mo6_4 Mo 0.68798(7) 0.51411(7) 1.0000
O5_4 O 0.9401(5) 0.5616(4) 1.0000
O10_2 O 0.9465(3) 0.5748(3) 0.8284(5)
O11_2 O 0.8526(3) 0.5041(3) 0.8185(5)
O12_2 O 0.9460(4) 0.4641(3) 0.7294(5)
O17_4 O 0.7678(6) 0.6464(4) 1.0000
O19_4 O 0.6605(5) 0.3734(5) 1.0000
O20_2 O 0.8465(3) 0.5900(3) 0.9165(5)
O23_2 O 0.8441(3) 0.4084(3) 0.7428(6)
O25_2 O 0.6678(3) 0.4701(3) 0.9146(6)
O27_4 O 0.6391(6) 0.5616(5) 1.0000
Mo15_2 Mo 0.78512(5) 0.36592(4) 0.81225(8)
Mo17_2 Mo 0.69663(5) 0.39691(5) 0.89081(9)
Zn5_4 Zn 0.78067(10) 0.29240(8) 1.0000
O39_2 O 0.7467(3) 0.5442(3) 0.9248(6)
O40_2 O 0.7493(3) 0.4359(3) 0.8181(6)
O43_2 O 0.7489(4) 0.3355(3) 0.9085(6)
O45_2 O 0.7563(4) 0.3353(4) 0.7352(6)
O50_2 O 0.6473(4) 0.3744(4) 0.8242(7)
Mo3_3 Mo 0.40762(5) 0.05213(4) 0.69071(7)
O7_2 O 0.4471(3) 0.0303(2) 0.5922(5)
O12_3 O 0.4460(4) 0.0359(3) 0.7706(5)
O14_3 O 0.2493(3) 0.0641(3) 0.3181(6)
O18_3 O 0.2563(4) 0.1647(4) 0.2352(6)
O19_5 O 0.1605(5) 0.1266(5) 0.5000
O21_2 O 0.4360(4) 0.1241(3) 0.6650(6)
O22_3 O 0.1473(4) 0.1256(4) 0.3242(7)
O23_3 O 0.3441(3) 0.0916(3) 0.7572(6)
O25_3 O 0.1678(3) 0.0299(3) 0.5854(6)
O26_3 O 0.2900(4) 0.0234(3) 0.1528(7)
H2_3 H 0.2730 0.0108 0.0000
Mo9_3 Mo 0.40762(5) 0.05213(4) 0.30929(7)
Mo15_3 Mo 0.28512(5) 0.13408(4) 0.68775(8)
Mo17_3 Mo 0.19663(5) 0.10309(5) 0.60919(9)
Zn4_3 Zn 0.47892(9) 0.07203(7) 0.5000
O30_2 O 0.4471(3) 0.0303(2) 0.4078(5)
O38_3 O 0.4460(4) 0.0359(3) 0.2294(5)
O40_3 O 0.2493(3) 0.0641(3) 0.6819(6)
O45_3 O 0.2563(4) 0.1647(4) 0.7648(6)
O50_3 O 0.1473(4) 0.1256(4) 0.6758(7)
O51_3 O 0.3441(3) 0.0916(3) 0.2428(6)
O52_2 O 0.3451(4) 0.1874(3) 0.6615(6)
O55_3 O 0.1678(3) 0.0299(3) 0.4146(6)
H2_4 H 0.2730 0.0108 1.0000
O56_3 O 0.2900(4) 0.0234(3) 0.8472(7)
Mo1_3 Mo 0.40842(5) 0.96201(4) 0.60803(7)
Mo2_5 Mo 0.29692(7) 0.91413(6) 0.5000
Mo6_5 Mo 0.18798(7) 0.98589(7) 0.5000
Zn1_3 Zn 0.52108(9) 0.92797(7) 0.5000
Zn3_3 Zn 0.27128(7) 0.98810(6) 0.32111(10)
O5_5 O 0.4401(5) 0.9384(4) 0.5000
O8_3 O 0.2526(5) 0.9543(4) 0.2176(7)
O10_3 O 0.4465(3) 0.9252(3) 0.6716(5)
O11_3 O 0.3526(3) 0.9959(3) 0.6815(5)
O13_3 O 0.2467(3) 0.9558(3) 0.4248(6)
O16_3 O 0.5563(4) 0.7694(3) 0.6173(6)
O17_5 O 0.2678(6) 0.8536(4) 0.5000
O20_3 O 0.3465(3) 0.9100(3) 0.5835(5)
O27_5 O 0.1391(6) 0.9384(5) 0.5000
C1_3 C 0.2479(5) 0.8953(4) 0.0753(9)
H1_3 H 0.2413 0.8775 0.1246
C2_3 C 0.2595(5) 0.9487(4) 0.0762(8)
C3_3 C 0.2651(7) 0.9744(7) 0.0000
C4_3 C 0.2458(7) 0.8669(6) 0.0000
C5_3 C 0.2684(5) 0.9779(4) 0.1522(10)
C6_3 C 0.2340(7) 0.8063(6) 0.0000
Mo8_3 Mo 0.40842(5) 0.96201(4) 0.39197(7)
Zn6 Zn 0.27128(7) 0.98810(6) 0.67889(10)
O31_2 O 0.5529(3) 0.9697(2) 0.5922(5)
O32_2 O 0.5529(3) 0.9697(2) 0.4078(5)
O34 O 0.2526(5) 0.9543(4) 0.7824(7)
O36_3 O 0.4465(3) 0.9252(3) 0.3284(5)
O37_3 O 0.3526(3) 0.9959(3) 0.3185(5)
O39_3 O 0.2467(3) 0.9558(3) 0.5752(6)
O44_3 O 0.0563(4) 0.7306(3) 0.1173(6)
O46_3 O 0.3465(3) 0.9100(3) 0.4165(5)
O48_2 O 0.5640(4) 0.8759(3) 0.6650(6)
O53_2 O 0.6549(4) 0.8126(3) 0.6615(6)
O57_3 O 0.2317(5) 0.7807(4) 0.0635(7)
O28_3 O 0.2317(5) 0.7807(4) 0.9365(7)
C3_4 C 0.2651(7) 0.9744(7) 1.0000
C4_4 C 0.2458(7) 0.8669(6) 1.0000
C6_4 C 0.2340(7) 0.8063(6) 1.0000
C7_3 C 0.2479(5) 0.8953(4) 0.9247(9)
H3_3 H 0.2413 0.8775 0.8754
C8_3 C 0.2595(5) 0.9487(4) 0.9238(8)
C9_3 C 0.2684(5) 0.9779(4) 0.8478(10)
Mo1_4 Mo 0.59158(5) 0.03799(4) 0.60803(7)
Mo2_6 Mo 0.70308(7) 0.08587(6) 0.5000
Mo6_6 Mo 0.81202(7) 0.01411(7) 0.5000
Zn3_4 Zn 0.72872(7) 0.01190(6) 0.32111(10)
O5_6 O 0.5599(5) 0.0616(4) 0.5000
O8_4 O 0.7474(5) 0.0457(4) 0.2176(7)
O10_4 O 0.5535(3) 0.0748(3) 0.6716(5)
O11_4 O 0.6474(3) 0.0041(3) 0.6815(5)
O13_4 O 0.7533(3) 0.0442(3) 0.4248(6)
O16_4 O 0.4437(4) 0.2306(3) 0.6173(6)
O17_6 O 0.7322(6) 0.1464(4) 0.5000
O20_4 O 0.6535(3) 0.0900(3) 0.5835(5)
O27_6 O 0.8609(6) 0.0616(5) 0.5000
C1_4 C 0.7521(5) 0.1047(4) 0.0753(9)
H1_4 H 0.7587 0.1225 0.1246
C2_4 C 0.7405(5) 0.0513(4) 0.0762(8)
C3_5 C 0.7349(7) 0.0256(7) 0.0000
C4_5 C 0.7542(7) 0.1331(6) 0.0000
C5_4 C 0.7316(5) 0.0221(4) 0.1522(10)
C6_5 C 0.7660(7) 0.1937(6) 0.0000
Mo8_4 Mo 0.59158(5) 0.03799(4) 0.39197(7)
Zn6_2 Zn 0.72872(7) 0.01190(6) 0.67889(10)
O34_2 O 0.7474(5) 0.0457(4) 0.7824(7)
O36_4 O 0.5535(3) 0.0748(3) 0.3284(5)
O37_4 O 0.6474(3) 0.0041(3) 0.3185(5)
O39_4 O 0.7533(3) 0.0442(3) 0.5752(6)
O44_4 O 0.9437(4) 0.2694(3) 0.1173(6)
O46_4 O 0.6535(3) 0.0900(3) 0.4165(5)
O57_4 O 0.7683(5) 0.2193(4) 0.0635(7)
O28_4 O 0.7683(5) 0.2193(4) 0.9365(7)
C3_6 C 0.7349(7) 0.0256(7) 1.0000
C4_6 C 0.7542(7) 0.1331(6) 1.0000
C6_6 C 0.7660(7) 0.1937(6) 1.0000
C7_4 C 0.7521(5) 0.1047(4) 0.9247(9)
H3_4 H 0.7587 0.1225 0.8754
C8_4 C 0.7405(5) 0.0513(4) 0.9238(8)
C9_4 C 0.7316(5) 0.0221(4) 0.8478(10)
Mo3_4 Mo 0.59238(5) 0.94787(4) 0.69071(7)
O12_4 O 0.5540(4) 0.9641(3) 0.7706(5)
O14_4 O 0.7507(3) 0.9359(3) 0.3181(6)
O18_4 O 0.7437(4) 0.8353(4) 0.2352(6)
O19_6 O 0.8395(5) 0.8734(5) 0.5000
O22_4 O 0.8527(4) 0.8744(4) 0.3242(7)
O23_4 O 0.6559(3) 0.9084(3) 0.7572(6)
O25_4 O 0.8322(3) 0.9701(3) 0.5854(6)
O26_4 O 0.7100(4) 0.9766(3) 0.1528(7)
H2_5 H 0.7270 0.9892 0.0000
Mo9_4 Mo 0.59238(5) 0.94787(4) 0.30929(7)
Mo15_4 Mo 0.71488(5) 0.86592(4) 0.68775(8)
Mo17_4 Mo 0.80337(5) 0.89691(5) 0.60919(9)
O38_4 O 0.5540(4) 0.9641(3) 0.2294(5)
O40_4 O 0.7507(3) 0.9359(3) 0.6819(6)
O45_4 O 0.7437(4) 0.8353(4) 0.7648(6)
O50_4 O 0.8527(4) 0.8744(4) 0.6758(7)
O51_4 O 0.6559(3) 0.9084(3) 0.2428(6)
O55_4 O 0.8322(3) 0.9701(3) 0.4146(6)
H2_6 H 0.7270 0.9892 1.0000
O56_4 O 0.7100(4) 0.9766(3) 0.8472(7)
loop_
_geom_bond_atom_site_label_1
_geom_bond_atom_site_label_2
_geom_bond_site_symmetry_1
_geom_bond_site_symmetry_2
P1 O1 1_555 1_555
O2 P1 1_555 1_555
O4 P1 1_555 1_555
P1_2 O1_2 1_555 1_555
O2_2 P1_2 1_555 1_555
O3 P1_2 1_555 1_555
P1_3 O1_3 1_555 1_555
O2_3 P1_3 1_555 1_555
O4_2 P1_3 1_555 1_555
P1_4 O1_4 1_555 1_555
O2_4 P1_4 1_555 1_555
O3_2 P1_4 1_555 1_555
P1_5 O1_5 1_555 1_555
O2_5 P1_5 1_555 1_555
O3_3 P1_5 1_555 1_555
O4_3 P1_5 1_555 1_555
P1_6 O1_6 1_555 1_555
O2_6 P1_6 1_555 1_555
O3_4 P1_6 1_555 1_555
O4_4 P1_6 1_555 1_555
Mo2 O13 1_555 1_555
Mo5 O14 1_555 1_555
Mo6 O13 1_555 1_555
Mo7 O14 1_555 1_555
Zn2 O9 1_555 1_555
Zn3 O8 1_555 1_555
O5 Mo8 1_555 1_555
O8 C5 1_555 1_555
O9 Mo10 1_555 1_555
O13 Zn3 1_555 1_555
O14 Zn3 1_555 1_555
O15 Mo5 1_555 1_555
O17 Mo2 1_555 1_555
O18 Mo5 1_555 1_555
O19 Mo7 1_555 1_555
O22 Mo7 1_555 1_555
O24 Mo5 1_555 1_555
O26 C5 1_555 1_555
O27 Mo6 1_555 1_555
O28 Zn2 1_555 1_555
C1 H1 1_555 1_555
C2 C1 1_555 1_555
C3 C2 1_555 1_555
H2 C3 1_555 1_555
C4 C1 1_555 1_555
C5 C2 1_555 1_555
C6 O28 1_555 1_555
Mo8 O30 1_555 1_555
Mo9 O30 1_555 1_555
Mo10 O29 1_555 1_555
Mo12 O9 1_555 1_555
Mo14 O24 1_555 1_555
Mo16 O41 1_555 1_555
Mo18 O41 1_555 1_555
Zn5 O15 1_555 1_555
Zn7 O33 1_555 1_555
O29 Mo12 1_555 1_555
O30 Zn4 1_555 1_555
O33 C9 1_555 1_555
O36 Mo8 1_555 1_555
O37 Zn3 1_555 1_555
O38 Mo9 1_555 1_555
O41 Zn2 1_555 1_555
O42 Zn2 1_555 1_555
O44 Mo10 1_555 1_555
O46 Mo2 1_555 1_555
O47 Mo9 1_555 1_555
O49 Mo10 1_555 1_555
O51 Mo5 1_555 1_555
O54 Mo10 1_555 1_555
O55 Mo6 1_555 1_555
O56 C9 1_555 1_555
O57 Zn2 1_555 1_555
C7 C4 1_555 1_555
H3 C7 1_555 1_555
C8 C3 1_555 1_555
C9 C8 1_555 1_555
Mo7 O15 1_555 1_555
Mo7 O55 1_555 1_555
C4 C6 1_555 1_555
C6 O57 1_555 1_555
Mo8 O37 1_555 1_555
Mo8 O46 1_555 1_555
Mo9 O37 1_555 1_555
Mo9 O51 1_555 1_555
Mo14 O47 1_555 1_555
Mo16 O54 1_555 1_555
C7 C8 1_555 1_555
Mo1 O5_2 1_555 1_555
Mo3 O7 1_555 1_555
O7 Mo1 1_555 1_555
O10 Mo1 1_555 1_555
O11 Mo1 1_555 1_555
O12 Mo3 1_555 1_555
O17_2 Mo2_2 1_555 1_555
O20 Mo1 1_555 1_555
O21 Mo3 1_555 1_555
O23 Mo3 1_555 1_555
O25 Mo6_2 1_555 1_555
O27_2 Mo6_2 1_555 1_555
Mo13 O21 1_555 1_555
Mo15 O23 1_555 1_555
Mo17 O19_2 1_555 1_555
Zn4_2 O7 1_555 1_555
Zn7 O11 1_555 1_555
O39 Mo2_2 1_555 1_555
O40 Mo15 1_555 1_555
O43 Mo15 1_555 1_555
O45 Mo15 1_555 1_555
O50 Mo17 1_555 1_555
O52 Mo13 1_555 1_555
Mo2_2 O20 1_555 1_555
Mo3 O11 1_555 1_555
Mo6_2 O39 1_555 1_555
O25 Mo17 1_555 1_555
Mo15 O52 1_555 1_555
Mo17 O40 1_555 1_555
Mo17 O43 1_555 1_555
Zn5_2 O43 1_555 1_555
Zn7 O39 1_555 1_555
Zn7 O40 1_555 1_555
O6 Zn1 1_555 1_555
Mo11 O6 1_555 1_555
O32 Zn1 1_555 1_555
Mo11 O35 1_555 1_555
Mo4 O6_2 1_555 1_555
O6_2 Zn1_2 1_555 1_555
O16 Mo4 1_555 1_555
O31 Zn1_2 1_555 1_555
O35_2 Mo4 1_555 1_555
O48 Mo4 1_555 1_555
O53 Mo4 1_555 1_555
O6_3 Zn4 1_555 1_555
Mo14 O6_3 1_555 1_555
Mo14 O35_3 1_555 1_555
Mo13 O6_4 1_555 1_555
O6_4 Zn4_2 1_555 1_555
O16_2 Mo13 1_555 1_555
O35_4 Mo13 1_555 1_555
Mo2_3 O13_2 1_555 1_555
Mo5_2 O14_2 1_555 1_555
Mo6_3 O13_2 1_555 1_555
Mo7_2 O14_2 1_555 1_555
Zn2_2 O9_2 1_555 1_555
Zn3_2 O8_2 1_555 1_555
O5_3 Mo8_2 1_555 1_555
O8_2 C5_2 1_555 1_555
O9_2 Mo10_2 1_555 1_555
O13_2 Zn3_2 1_555 1_555
O14_2 Zn3_2 1_555 1_555
O15_2 Mo5_2 1_555 1_555
O17_3 Mo2_3 1_555 1_555
O18_2 Mo5_2 1_555 1_555
O19_3 Mo7_2 1_555 1_555
O22_2 Mo7_2 1_555 1_555
O24_2 Mo5_2 1_555 1_555
O26_2 C5_2 1_555 1_555
O27_3 Mo6_3 1_555 1_555
O28_2 Zn2_2 1_555 1_555
C1_2 H1_2 1_555 1_555
C2_2 C1_2 1_555 1_555
C3_2 C2_2 1_555 1_555
H2_2 C3_2 1_555 1_555
C4_2 C1_2 1_555 1_555
C5_2 C2_2 1_555 1_555
C6_2 O28_2 1_555 1_555
Mo8_2 O32 1_555 1_555
Mo9_2 O32 1_555 1_555
Mo10_2 O29_2 1_555 1_555
Mo12_2 O9_2 1_555 1_555
Mo11 O24_2 1_555 1_555
Mo16_2 O41_2 1_555 1_555
Mo18_2 O41_2 1_555 1_555
Zn5_3 O15_2 1_555 1_555
Zn7_2 O33_2 1_555 1_555
O29_2 Mo12_2 1_555 1_555
O33_2 C9_2 1_555 1_555
O36_2 Mo8_2 1_555 1_555
O37_2 Zn3_2 1_555 1_555
O38_2 Mo9_2 1_555 1_555
O41_2 Zn2_2 1_555 1_555
O42_2 Zn2_2 1_555 1_555
O44_2 Mo10_2 1_555 1_555
O46_2 Mo2_3 1_555 1_555
O47_2 Mo9_2 1_555 1_555
O49_2 Mo10_2 1_555 1_555
O51_2 Mo5_2 1_555 1_555
O54_2 Mo10_2 1_555 1_555
O55_2 Mo6_3 1_555 1_555
O56_2 C9_2 1_555 1_555
O57_2 Zn2_2 1_555 1_555
C7_2 C4_2 1_555 1_555
H3_2 C7_2 1_555 1_555
C8_2 C3_2 1_555 1_555
C9_2 C8_2 1_555 1_555
Mo7_2 O15_2 1_555 1_555
Mo7_2 O55_2 1_555 1_555
C4_2 C6_2 1_555 1_555
C6_2 O57_2 1_555 1_555
Mo8_2 O37_2 1_555 1_555
Mo8_2 O46_2 1_555 1_555
Mo9_2 O37_2 1_555 1_555
Mo9_2 O51_2 1_555 1_555
Mo11 O47_2 1_555 1_555
Mo16_2 O54_2 1_555 1_555
C7_2 C8_2 1_555 1_555
Mo1_2 O5_4 1_555 1_555
Mo3_2 O31 1_555 1_555
O31 Mo1_2 1_555 1_555
O10_2 Mo1_2 1_555 1_555
O11_2 Mo1_2 1_555 1_555
O12_2 Mo3_2 1_555 1_555
O17_4 Mo2_4 1_555 1_555
O20_2 Mo1_2 1_555 1_555
O48 Mo3_2 1_555 1_555
O23_2 Mo3_2 1_555 1_555
O25_2 Mo6_4 1_555 1_555
O27_4 Mo6_4 1_555 1_555
Mo15_2 O23_2 1_555 1_555
Mo17_2 O19_4 1_555 1_555
Zn7_2 O11_2 1_555 1_555
O39_2 Mo2_4 1_555 1_555
O40_2 Mo15_2 1_555 1_555
O43_2 Mo15_2 1_555 1_555
O45_2 Mo15_2 1_555 1_555
O50_2 Mo17_2 1_555 1_555
Mo2_4 O20_2 1_555 1_555
Mo3_2 O11_2 1_555 1_555
Mo6_4 O39_2 1_555 1_555
O25_2 Mo17_2 1_555 1_555
Mo15_2 O53 1_555 1_555
Mo17_2 O40_2 1_555 1_555
Mo17_2 O43_2 1_555 1_555
Zn5_4 O43_2 1_555 1_555
Zn7_2 O39_2 1_555 1_555
Zn7_2 O40_2 1_555 1_555
Mo3_3 O7_2 1_555 1_555
Mo16 O14_3 1_555 1_555
Mo18 O14_3 1_555 1_555
O12_3 Mo3_3 1_555 1_555
O18_3 Mo16 1_555 1_555
O19_5 Mo18 1_555 1_555
O21_2 Mo3_3 1_555 1_555
O22_3 Mo18 1_555 1_555
O23_3 Mo3_3 1_555 1_555
Mo9_3 O30_2 1_555 1_555
Mo12 O21_2 1_555 1_555
Mo15_3 O23_3 1_555 1_555
Mo17_3 O19_5 1_555 1_555
Zn4_3 O7_2 1_555 1_555
O30_2 Zn4_3 1_555 1_555
O38_3 Mo9_3 1_555 1_555
O40_3 Mo15_3 1_555 1_555
O42 Mo15_3 1_555 1_555
O45_3 Mo15_3 1_555 1_555
O49 Mo9_3 1_555 1_555
O50_3 Mo17_3 1_555 1_555
O51_3 Mo16 1_555 1_555
O52_2 Mo12 1_555 1_555
Mo18 O55_3 1_555 1_555
O25_3 Mo17_3 1_555 1_555
Mo9_3 O51_3 1_555 1_555
Mo15_3 O52_2 1_555 1_555
Mo17_3 O40_3 1_555 1_555
Mo17_3 O42 1_555 1_555
Mo1_3 O5_5 1_555 1_555
Mo2_5 O13_3 1_555 1_555
Mo6_5 O13_3 1_555 1_555
Zn1_3 O5_5 1_555 1_555
Zn5 O35_3 1_555 1_555
Zn3_3 O8_3 1_555 1_555
O5_5 Mo8_3 1_555 1_555
O29_2 Zn1_3 1_555 1_555
O8_3 C5_3 1_555 1_555
O10_3 Mo1_3 1_555 1_555
O11_3 Mo1_3 1_555 1_555
O13_3 Zn3_3 1_555 1_555
O16_3 Mo12_2 1_555 1_555
O17_5 Mo2_5 1_555 1_555
O20_3 Mo1_3 1_555 1_555
O27_5 Mo6_5 1_555 1_555
C1_3 H1_3 1_555 1_555
C2_3 C1_3 1_555 1_555
C3_3 C2_3 1_555 1_555
C4_3 C1_3 1_555 1_555
C5_3 C2_3 1_555 1_555
Zn6 O11_3 1_555 1_555
O31_2 Zn1_3 1_555 1_555
O32_2 Zn1_3 1_555 1_555
O34 Zn6 1_555 1_555
O36_3 Mo8_3 1_555 1_555
O37_3 Zn3_3 1_555 1_555
O39_3 Mo2_5 1_555 1_555
O44_3 Mo14 1_555 1_555
O46_3 Mo2_5 1_555 1_555
O48_2 Mo12_2 1_555 1_555
O53_2 Mo12_2 1_555 1_555
O57_3 Zn5 1_555 1_555
Mo2_5 O20_3 1_555 1_555
Mo6_5 O39_3 1_555 1_555
C4_3 C6_3 1_555 1_555
C6_3 O57_3 1_555 1_555
Mo8_3 O37_3 1_555 1_555
Mo8_3 O46_3 1_555 1_555
Zn6 O39_3 1_555 1_555
Zn5_2 O35_4 1_555 1_555
O28_3 Zn5_2 1_555 1_555
C6_4 O28_3 1_555 1_555
O34 C9_3 1_555 1_555
C7_3 C4_4 1_555 1_555
H3_3 C7_3 1_555 1_555
C8_3 C3_4 1_555 1_555
C9_3 C8_3 1_555 1_555
C4_4 C6_4 1_555 1_555
C7_3 C8_3 1_555 1_555
Mo1_4 O5_6 1_555 1_555
Mo2_6 O13_4 1_555 1_555
Mo6_6 O13_4 1_555 1_555
Zn4_3 O5_6 1_555 1_555
Zn5_3 O35 1_555 1_555
Zn3_4 O8_4 1_555 1_555
O5_6 Mo8_4 1_555 1_555
O29 Zn4_3 1_555 1_555
O8_4 C5_4 1_555 1_555
O10_4 Mo1_4 1_555 1_555
O11_4 Mo1_4 1_555 1_555
O13_4 Zn3_4 1_555 1_555
O16_4 Mo12 1_555 1_555
O17_6 Mo2_6 1_555 1_555
O20_4 Mo1_4 1_555 1_555
O27_6 Mo6_6 1_555 1_555
C1_4 H1_4 1_555 1_555
C2_4 C1_4 1_555 1_555
C3_5 C2_4 1_555 1_555
C4_5 C1_4 1_555 1_555
C5_4 C2_4 1_555 1_555
Zn6_2 O11_4 1_555 1_555
O34_2 Zn6_2 1_555 1_555
O36_4 Mo8_4 1_555 1_555
O37_4 Zn3_4 1_555 1_555
O39_4 Mo2_6 1_555 1_555
O44_4 Mo11 1_555 1_555
O46_4 Mo2_6 1_555 1_555
O57_4 Zn5_3 1_555 1_555
Mo2_6 O20_4 1_555 1_555
Mo6_6 O39_4 1_555 1_555
C4_5 C6_5 1_555 1_555
C6_5 O57_4 1_555 1_555
Mo8_4 O37_4 1_555 1_555
Mo8_4 O46_4 1_555 1_555
Zn6_2 O39_4 1_555 1_555
Zn5_4 O35_2 1_555 1_555
O28_4 Zn5_4 1_555 1_555
C6_6 O28_4 1_555 1_555
O34_2 C9_4 1_555 1_555
C7_4 C4_6 1_555 1_555
H3_4 C7_4 1_555 1_555
C8_4 C3_6 1_555 1_555
C9_4 C8_4 1_555 1_555
C4_6 C6_6 1_555 1_555
C7_4 C8_4 1_555 1_555
Mo3_4 O31_2 1_555 1_555
Mo16_2 O14_4 1_555 1_555
Mo18_2 O14_4 1_555 1_555
O12_4 Mo3_4 1_555 1_555
O18_4 Mo16_2 1_555 1_555
O19_6 Mo18_2 1_555 1_555
O48_2 Mo3_4 1_555 1_555
O22_4 Mo18_2 1_555 1_555
O23_4 Mo3_4 1_555 1_555
Mo9_4 O32_2 1_555 1_555
Mo15_4 O23_4 1_555 1_555
Mo17_4 O19_6 1_555 1_555
O38_4 Mo9_4 1_555 1_555
O40_4 Mo15_4 1_555 1_555
O42_2 Mo15_4 1_555 1_555
O45_4 Mo15_4 1_555 1_555
O49_2 Mo9_4 1_555 1_555
O50_4 Mo17_4 1_555 1_555
O51_4 Mo16_2 1_555 1_555
Mo18_2 O55_4 1_555 1_555
O25_4 Mo17_4 1_555 1_555
Mo9_4 O51_4 1_555 1_555
Mo15_4 O53_2 1_555 1_555
Mo17_4 O40_4 1_555 1_555
Mo17_4 O42_2 1_555 1_555

#END
