
###############################################################################
#
# This file contains modified crystal structure data generated from the
# MOF subset of the Cambridge Structural Database (CSD) v543 
# hosted by the Cambridge Crystallographic Data Centre (CCDC).
#
# This work is licensed under the Creative Commons
# Attribution-NonCommercial-ShareAlike 4.0 International License.
# To view a copy of this license, visit
# http://creativecommons.org/licenses/by-nc-sa/4.0/
# or send a letter to
# Creative Commons, PO Box 1866, Mountain View, CA 94042, USA.
#
# CIF created using the CSD Python API on 29 September 2022
# The structure has been converted into the P1 space group
# The structure has a 3D framework
# The original CSD entry IZUMUM is in the tetragonal crystal system
# The framework has been calculated to contain at least 10.0% void space
# The void calculation uses a probe of radius 1.32A, grid spacing 0.4
#
###############################################################################

data_IZUMUM
_chemical_formula_moiety         '(C112 H112 Cu16 N80 O32)n'
_symmetry_cell_setting           triclinic
_symmetry_space_group_name_H-M   'P 1'
_symmetry_Int_Tables_number      1
_space_group_name_Hall           'P 1'
loop_
_symmetry_equiv_pos_site_id
_symmetry_equiv_pos_as_xyz
1 x,y,z
_cell_length_a                   15.298(1)
_cell_length_b                   15.298(1)
_cell_length_c                   22.517(3)
_cell_angle_alpha                90
_cell_angle_beta                 90
_cell_angle_gamma                90
_cell_volume                     5269.63
loop_
_atom_site_label
_atom_site_type_symbol
_atom_site_fract_x
_atom_site_fract_y
_atom_site_fract_z
Cu4 Cu 0.23146(7) 0.21010(7) 0.69417(5)
N6 N 0.2822(6) 0.1169(6) 0.4671(4)
C8 C 0.2169(7) 0.0718(8) 0.4457(5)
H8 H 0.2242 0.0493 0.4077
N7 N 0.1411(5) 0.0546(5) 0.4722(4)
C9 C 0.1381(6) 0.0875(6) 0.5281(4)
C10 C 0.2062(7) 0.1319(6) 0.5580(4)
C11 C 0.2775(7) 0.1489(7) 0.5271(6)
N8 N 0.3484(6) 0.1914(7) 0.5497(4)
H9 H 0.3482 0.2088 0.5860
H10 H 0.3933 0.2009 0.5277
N10 N 0.1812(6) 0.1530(6) 0.6134(3)
C12 C 0.1008(7) 0.1196(7) 0.6163(4)
H11 H 0.0669 0.1230 0.6505
N12 N 0.0721(5) 0.0808(5) 0.5666(3)
O1 O 0.0184(4) 0.9085(4) 0.5819(3)
O2 O 0.0854(4) 0.8827(4) 0.4966(3)
C6 C 0.0700(6) 0.8671(6) 0.5499(4)
C7 C 0.1158(7) 0.7872(6) 0.5752(5)
H5 H 0.0984 0.7790 0.6158
H6 H 0.1001 0.7365 0.5525
H7 H 0.1780 0.7955 0.5734
Cu3 Cu 0.03990(7) 0.98146(7) 0.44417(5)
N11 N 0.0970(6) 0.9312(6) 0.3634(3)
Cu1 Cu 0.96010(7) 0.01854(7) 0.55583(5)
N9 N 0.9030(6) 0.0688(6) 0.6366(3)
O3 O 0.9816(4) 0.0915(4) 0.4181(3)
O4 O 0.9146(4) 0.1173(4) 0.5034(3)
C13 C 0.9300(6) 0.1329(6) 0.4501(4)
C14 C 0.8842(7) 0.2128(6) 0.4248(5)
H12 H 0.9016 0.2210 0.3842
H13 H 0.8999 0.2635 0.4475
H14 H 0.8220 0.2045 0.4266
N1 N 0.7178(6) 0.8831(6) 0.5329(4)
C1 C 0.7831(7) 0.9282(8) 0.5543(5)
H1 H 0.7758 0.9507 0.5923
N2 N 0.8589(5) 0.9454(5) 0.5278(4)
C2 C 0.8619(6) 0.9125(6) 0.4719(4)
C3 C 0.7938(7) 0.8681(6) 0.4420(4)
C4 C 0.7225(7) 0.8511(7) 0.4729(6)
N3 N 0.6516(6) 0.8086(7) 0.4503(4)
H2 H 0.6518 0.7912 0.4140
H3 H 0.6067 0.7991 0.4723
N4 N 0.8188(6) 0.8470(6) 0.3866(3)
C5 C 0.8992(7) 0.8804(7) 0.3837(4)
H4 H 0.9331 0.8770 0.3495
N5 N 0.9279(5) 0.9192(5) 0.4334(3)
Cu2 Cu 0.76854(7) 0.78990(7) 0.30583(5)
Cu1_2 Cu 0.03990(7) 0.48146(7) 0.55583(5)
N1_2 N 0.2822(6) 0.6169(6) 0.5329(4)
C1_2 C 0.2169(7) 0.5718(8) 0.5543(5)
H1_2 H 0.2242 0.5493 0.5923
N2_2 N 0.1411(5) 0.5546(5) 0.5278(4)
C2_2 C 0.1381(6) 0.5875(6) 0.4719(4)
C3_2 C 0.2062(7) 0.6319(6) 0.4420(4)
C4_2 C 0.2775(7) 0.6489(7) 0.4729(6)
N3_2 N 0.3484(6) 0.6914(7) 0.4503(4)
H2_2 H 0.3482 0.7088 0.4140
H3_2 H 0.3933 0.7009 0.4723
N4_2 N 0.1812(6) 0.6530(6) 0.3866(3)
C5_2 C 0.1008(7) 0.6196(7) 0.3837(4)
H4_2 H 0.0669 0.6230 0.3495
N5_2 N 0.0721(5) 0.5808(5) 0.4334(3)
Cu2_2 Cu 0.23146(7) 0.71010(7) 0.30583(5)
N9_2 N 0.0970(6) 0.4312(6) 0.6366(3)
O3_2 O 0.0184(4) 0.4085(4) 0.4181(3)
O4_2 O 0.0854(4) 0.3827(4) 0.5034(3)
C13_2 C 0.0700(6) 0.3671(6) 0.4501(4)
C14_2 C 0.1158(7) 0.2872(6) 0.4248(5)
H12_2 H 0.0984 0.2790 0.3842
H13_2 H 0.1001 0.2365 0.4475
H14_2 H 0.1780 0.2955 0.4266
O1_2 O 0.9816(4) 0.5915(4) 0.5819(3)
O2_2 O 0.9146(4) 0.6173(4) 0.4966(3)
C6_2 C 0.9300(6) 0.6329(6) 0.5499(4)
C7_2 C 0.8842(7) 0.7128(6) 0.5752(5)
H5_2 H 0.9016 0.7210 0.6158
H6_2 H 0.8999 0.7635 0.5525
H7_2 H 0.8220 0.7045 0.5734
Cu3_2 Cu 0.96010(7) 0.51854(7) 0.44417(5)
Cu4_2 Cu 0.76854(7) 0.28990(7) 0.69417(5)
N6_2 N 0.7178(6) 0.3831(6) 0.4671(4)
C8_2 C 0.7831(7) 0.4282(8) 0.4457(5)
H8_2 H 0.7758 0.4507 0.4077
N7_2 N 0.8589(5) 0.4454(5) 0.4722(4)
C9_2 C 0.8619(6) 0.4125(6) 0.5281(4)
C10_2 C 0.7938(7) 0.3681(6) 0.5580(4)
C11_2 C 0.7225(7) 0.3511(7) 0.5271(6)
N8_2 N 0.6516(6) 0.3086(7) 0.5497(4)
H9_2 H 0.6518 0.2912 0.5860
H10_2 H 0.6067 0.2991 0.5277
N10_2 N 0.8188(6) 0.3470(6) 0.6134(3)
N11_2 N 0.9030(6) 0.5688(6) 0.3634(3)
C12_2 C 0.8992(7) 0.3804(7) 0.6163(4)
H11_2 H 0.9331 0.3770 0.6505
N12_2 N 0.9279(5) 0.4192(5) 0.5666(3)
Cu1_3 Cu 0.73146(7) 0.21010(7) 0.80583(5)
C1_3 C 0.8218(8) 0.0331(7) 0.8043(5)
H1_3 H 0.7993 0.0258 0.8423
N2_3 N 0.8046(5) 0.1089(5) 0.7778(4)
C2_3 C 0.8375(6) 0.1119(6) 0.7219(4)
C3_3 C 0.8819(6) 0.0438(7) 0.6920(4)
C5_3 C 0.8696(7) 0.1492(7) 0.6337(4)
H4_3 H 0.8730 0.1831 0.5995
N5_3 N 0.8308(5) 0.1779(5) 0.6834(3)
O1_3 O 0.8415(4) 0.2684(4) 0.8319(3)
O2_3 O 0.8673(4) 0.3354(4) 0.7466(3)
C6_3 C 0.8829(6) 0.3200(6) 0.7999(4)
C7_3 C 0.9628(6) 0.3658(7) 0.8252(5)
H5_3 H 0.9710 0.3484 0.8658
H7_3 H 0.9545 0.4280 0.8234
Cu4_3 Cu 0.53990(7) 0.48146(7) 0.94417(5)
N6_3 N 0.6331(6) 0.5322(6) 0.7171(4)
C8_3 C 0.6782(8) 0.4669(7) 0.6957(5)
H8_3 H 0.7007 0.4742 0.6577
N7_3 N 0.6954(5) 0.3911(5) 0.7222(4)
C9_3 C 0.6625(6) 0.3881(6) 0.7781(4)
C10_3 C 0.6181(6) 0.4562(7) 0.8080(4)
C11_3 C 0.6011(7) 0.5275(7) 0.7771(6)
N8_3 N 0.5586(7) 0.5984(6) 0.7997(4)
H9_3 H 0.5412 0.5982 0.8360
H10_3 H 0.5491 0.6433 0.7777
N9_3 N 0.6812(6) 0.1530(6) 0.8866(3)
N10_3 N 0.5970(6) 0.4312(6) 0.8634(3)
C12_3 C 0.6304(7) 0.3508(7) 0.8663(4)
H11_3 H 0.6270 0.3169 0.9005
N12_3 N 0.6692(5) 0.3221(5) 0.8166(3)
O3_3 O 0.6585(4) 0.2316(4) 0.6681(3)
O4_3 O 0.6327(4) 0.1646(4) 0.7534(3)
C13_3 C 0.6171(6) 0.1800(6) 0.7001(4)
C14_3 C 0.5372(6) 0.1342(7) 0.6748(5)
H12_3 H 0.5290 0.1516 0.6342
H13_3 H 0.4865 0.1499 0.6975
H14_3 H 0.5455 0.0720 0.6766
Cu1_4 Cu 0.26854(7) 0.28990(7) 0.80583(5)
N1_3 N 0.1331(6) 0.5322(6) 0.7829(4)
C1_4 C 0.1782(8) 0.4669(7) 0.8043(5)
H1_4 H 0.2007 0.4742 0.8423
N2_4 N 0.1954(5) 0.3911(5) 0.7778(4)
C2_4 C 0.1625(6) 0.3881(6) 0.7219(4)
C3_4 C 0.1181(6) 0.4562(7) 0.6920(4)
C4_3 C 0.1011(7) 0.5275(7) 0.7229(6)
N3_3 N 0.0586(7) 0.5984(6) 0.7003(4)
H2_3 H 0.0412 0.5982 0.6640
H3_3 H 0.0491 0.6433 0.7223
C5_4 C 0.1304(7) 0.3508(7) 0.6337(4)
H4_4 H 0.1270 0.3169 0.5995
N5_4 N 0.1692(5) 0.3221(5) 0.6834(3)
O1_4 O 0.1585(4) 0.2316(4) 0.8319(3)
O2_4 O 0.1327(4) 0.1646(4) 0.7466(3)
C6_4 C 0.1171(6) 0.1800(6) 0.7999(4)
C7_4 C 0.0372(6) 0.1342(7) 0.8252(5)
H5_4 H 0.0290 0.1516 0.8658
H7_4 H 0.0455 0.0720 0.8234
Cu4_4 Cu 0.46010(7) 0.01854(7) 0.94417(5)
C8_4 C 0.3218(8) 0.0331(7) 0.6957(5)
H8_4 H 0.2993 0.0258 0.6577
N7_4 N 0.3046(5) 0.1089(5) 0.7222(4)
C9_4 C 0.3375(6) 0.1119(6) 0.7781(4)
C10_4 C 0.3819(6) 0.0438(7) 0.8080(4)
N9_4 N 0.3188(6) 0.3470(6) 0.8866(3)
N10_4 N 0.4030(6) 0.0688(6) 0.8634(3)
C12_4 C 0.3696(7) 0.1492(7) 0.8663(4)
H11_4 H 0.3730 0.1831 0.9005
N12_4 N 0.3308(5) 0.1779(5) 0.8166(3)
O3_4 O 0.3415(4) 0.2684(4) 0.6681(3)
O4_4 O 0.3673(4) 0.3354(4) 0.7534(3)
C13_4 C 0.3829(6) 0.3200(6) 0.7001(4)
C14_4 C 0.4628(6) 0.3658(7) 0.6748(5)
H12_4 H 0.4710 0.3484 0.6342
H13_4 H 0.5135 0.3501 0.6975
H14_4 H 0.4545 0.4280 0.6766
Cu1_5 Cu 0.46010(7) 0.51854(7) 0.05583(5)
N1_4 N 0.2178(6) 0.3831(6) 0.0329(4)
C1_5 C 0.2831(7) 0.4282(8) 0.0543(5)
H1_5 H 0.2758 0.4507 0.0923
N2_5 N 0.3589(5) 0.4454(5) 0.0278(4)
O1_5 O 0.5184(4) 0.4085(4) 0.0819(3)
C6_5 C 0.5700(6) 0.3671(6) 0.0499(4)
C7_5 C 0.6158(7) 0.2872(6) 0.0752(5)
H5_5 H 0.5984 0.2790 0.1158
H6_3 H 0.6001 0.2365 0.0525
H7_5 H 0.6780 0.2955 0.0734
Cu4_5 Cu 0.73146(7) 0.71010(7) 0.19417(5)
C9_5 C 0.6381(6) 0.5875(6) 0.0281(4)
C10_5 C 0.7062(7) 0.6319(6) 0.0580(4)
C11_4 C 0.7775(7) 0.6489(7) 0.0271(6)
N8_4 N 0.8484(6) 0.6914(7) 0.0497(4)
H9_4 H 0.8482 0.7088 0.0860
H10_4 H 0.8933 0.7009 0.0277
N9_5 N 0.4030(6) 0.5688(6) 0.1366(3)
N10_5 N 0.6812(6) 0.6530(6) 0.1134(3)
C12_5 C 0.6008(7) 0.6196(7) 0.1163(4)
H11_5 H 0.5669 0.6230 0.1505
N12_5 N 0.5721(5) 0.5808(5) 0.0666(3)
O4_5 O 0.4146(4) 0.6173(4) 0.0034(3)
C2_5 C 0.3619(6) 0.4125(6) 0.9719(4)
C3_5 C 0.2938(7) 0.3681(6) 0.9420(4)
C4_4 C 0.2225(7) 0.3511(7) 0.9729(6)
N3_4 N 0.1516(6) 0.3086(7) 0.9503(4)
H2_4 H 0.1518 0.2912 0.9140
H3_4 H 0.1067 0.2991 0.9723
C5_5 C 0.3992(7) 0.3804(7) 0.8837(4)
H4_5 H 0.4331 0.3770 0.8495
N5_5 N 0.4279(5) 0.4192(5) 0.9334(3)
O2_5 O 0.5854(4) 0.3827(4) 0.9966(3)
N6_4 N 0.7822(6) 0.6169(6) 0.9671(4)
C8_5 C 0.7169(7) 0.5718(8) 0.9457(5)
H8_5 H 0.7242 0.5493 0.9077
N7_5 N 0.6411(5) 0.5546(5) 0.9722(4)
O3_5 O 0.4816(4) 0.5915(4) 0.9181(3)
C13_5 C 0.4300(6) 0.6329(6) 0.9501(4)
C14_5 C 0.3842(7) 0.7128(6) 0.9248(5)
H12_5 H 0.4016 0.7210 0.8842
H13_5 H 0.3999 0.7635 0.9475
H14_5 H 0.3220 0.7045 0.9266
C2_6 C 0.6381(6) 0.0875(6) 0.9719(4)
C3_6 C 0.7062(7) 0.1319(6) 0.9420(4)
C4_5 C 0.7775(7) 0.1489(7) 0.9729(6)
N3_5 N 0.8484(6) 0.1914(7) 0.9503(4)
H2_5 H 0.8482 0.2088 0.9140
H3_5 H 0.8933 0.2009 0.9723
C5_6 C 0.6008(7) 0.1196(7) 0.8837(4)
H4_6 H 0.5669 0.1230 0.8495
N5_6 N 0.5721(5) 0.0808(5) 0.9334(3)
O2_6 O 0.4146(4) 0.1173(4) 0.9966(3)
Cu1_6 Cu 0.53990(7) 0.98146(7) 0.05583(5)
Cu4_6 Cu 0.26854(7) 0.78990(7) 0.19417(5)
C9_6 C 0.3619(6) 0.9125(6) 0.0281(4)
C10_6 C 0.2938(7) 0.8681(6) 0.0580(4)
C11_5 C 0.2225(7) 0.8511(7) 0.0271(6)
N8_5 N 0.1516(6) 0.8086(7) 0.0497(4)
H9_5 H 0.1518 0.7912 0.0860
H10_5 H 0.1067 0.7991 0.0277
N9_6 N 0.5970(6) 0.9312(6) 0.1366(3)
N10_6 N 0.3188(6) 0.8470(6) 0.1134(3)
C12_6 C 0.3992(7) 0.8804(7) 0.1163(4)
H11_6 H 0.4331 0.8770 0.1505
N12_6 N 0.4279(5) 0.9192(5) 0.0666(3)
O4_6 O 0.5854(4) 0.8827(4) 0.0034(3)
N1_5 N 0.3669(6) 0.4678(6) 0.2829(4)
C1_6 C 0.3218(8) 0.5331(7) 0.3043(5)
H1_6 H 0.2993 0.5258 0.3423
N2_6 N 0.3046(5) 0.6089(5) 0.2778(4)
C2_7 C 0.3375(6) 0.6119(6) 0.2219(4)
C3_7 C 0.3819(6) 0.5438(7) 0.1920(4)
C4_6 C 0.3989(7) 0.4725(7) 0.2229(6)
N3_6 N 0.4414(7) 0.4016(6) 0.2003(4)
H2_6 H 0.4588 0.4018 0.1640
H3_6 H 0.4509 0.3567 0.2223
C5_7 C 0.3696(7) 0.6492(7) 0.1337(4)
H4_7 H 0.3730 0.6831 0.0995
N5_7 N 0.3308(5) 0.6779(5) 0.1834(3)
O1_6 O 0.3415(4) 0.7684(4) 0.3319(3)
O2_7 O 0.3673(4) 0.8354(4) 0.2466(3)
C6_6 C 0.3829(6) 0.8200(6) 0.2999(4)
C7_6 C 0.4628(6) 0.8658(7) 0.3252(5)
H5_6 H 0.4710 0.8484 0.3658
H6_4 H 0.5135 0.8501 0.3025
H7_6 H 0.4545 0.9280 0.3234
C8_6 C 0.1782(8) 0.9669(7) 0.1957(5)
H8_6 H 0.2007 0.9742 0.1577
N7_6 N 0.1954(5) 0.8911(5) 0.2222(4)
C9_7 C 0.1625(6) 0.8881(6) 0.2781(4)
C10_7 C 0.1181(6) 0.9562(7) 0.3080(4)
C12_7 C 0.1304(7) 0.8508(7) 0.3663(4)
H11_7 H 0.1270 0.8169 0.4005
N12_7 N 0.1692(5) 0.8221(5) 0.3166(3)
O3_6 O 0.1585(4) 0.7316(4) 0.1681(3)
O4_7 O 0.1327(4) 0.6646(4) 0.2534(3)
C13_6 C 0.1171(6) 0.6800(6) 0.2001(4)
C14_6 C 0.0372(6) 0.6342(7) 0.1748(5)
H12_6 H 0.0290 0.6516 0.1342
H14_6 H 0.0455 0.5720 0.1766
C1_7 C 0.6782(8) 0.9669(7) 0.3043(5)
H1_7 H 0.7007 0.9742 0.3423
N2_7 N 0.6954(5) 0.8911(5) 0.2778(4)
C2_8 C 0.6625(6) 0.8881(6) 0.2219(4)
C3_8 C 0.6181(6) 0.9562(7) 0.1920(4)
C5_8 C 0.6304(7) 0.8508(7) 0.1337(4)
H4_8 H 0.6270 0.8169 0.0995
N5_8 N 0.6692(5) 0.8221(5) 0.1834(3)
O1_7 O 0.6585(4) 0.7316(4) 0.3319(3)
O2_8 O 0.6327(4) 0.6646(4) 0.2466(3)
C6_7 C 0.6171(6) 0.6800(6) 0.2999(4)
C7_7 C 0.5372(6) 0.6342(7) 0.3252(5)
H5_7 H 0.5290 0.6516 0.3658
H6_5 H 0.4865 0.6499 0.3025
H7_7 H 0.5455 0.5720 0.3234
N6_5 N 0.8669(6) 0.4678(6) 0.2171(4)
C8_7 C 0.8218(8) 0.5331(7) 0.1957(5)
H8_7 H 0.7993 0.5258 0.1577
N7_7 N 0.8046(5) 0.6089(5) 0.2222(4)
C9_8 C 0.8375(6) 0.6119(6) 0.2781(4)
C10_8 C 0.8819(6) 0.5438(7) 0.3080(4)
C11_6 C 0.8989(7) 0.4725(7) 0.2771(6)
N8_6 N 0.9414(7) 0.4016(6) 0.2997(4)
H9_6 H 0.9588 0.4018 0.3360
H10_6 H 0.9509 0.3567 0.2777
C12_8 C 0.8696(7) 0.6492(7) 0.3663(4)
H11_8 H 0.8730 0.6831 0.4005
N12_8 N 0.8308(5) 0.6779(5) 0.3166(3)
O3_7 O 0.8415(4) 0.7684(4) 0.1681(3)
O4_8 O 0.8673(4) 0.8354(4) 0.2534(3)
C13_7 C 0.8829(6) 0.8200(6) 0.2001(4)
C14_7 C 0.9628(6) 0.8658(7) 0.1748(5)
H12_7 H 0.9710 0.8484 0.1342
H14_7 H 0.9545 0.9280 0.1766
H6_6 H 0.0135 0.3501 0.8025
N1_6 N 0.8669(6) 0.9678(6) 0.7829(4)
C4_7 C 0.8989(7) 0.9725(7) 0.7229(6)
N3_7 N 0.9414(7) 0.9016(6) 0.7003(4)
H2_7 H 0.9588 0.9018 0.6640
H3_7 H 0.9509 0.8567 0.7223
N6_6 N 0.3669(6) 0.9678(6) 0.7171(4)
C11_7 C 0.3989(7) 0.9725(7) 0.7771(6)
N8_7 N 0.4414(7) 0.9016(6) 0.7997(4)
H9_7 H 0.4588 0.9018 0.8360
H10_7 H 0.4509 0.8567 0.7777
H6_7 H 0.9865 0.1499 0.8025
N1_7 N 0.7822(6) 0.1169(6) 0.0329(4)
C1_8 C 0.7169(7) 0.0718(8) 0.0543(5)
H1_8 H 0.7242 0.0493 0.0923
N2_8 N 0.6411(5) 0.0546(5) 0.0278(4)
O1_8 O 0.4816(4) 0.0915(4) 0.0819(3)
C6_8 C 0.4300(6) 0.1329(6) 0.0499(4)
C7_8 C 0.3842(7) 0.2128(6) 0.0752(5)
H5_8 H 0.4016 0.2210 0.1158
H6_8 H 0.3999 0.2635 0.0525
H7_8 H 0.3220 0.2045 0.0734
N6_7 N 0.2178(6) 0.8831(6) 0.9671(4)
C8_8 C 0.2831(7) 0.9282(8) 0.9457(5)
H8_8 H 0.2758 0.9507 0.9077
N7_8 N 0.3589(5) 0.9454(5) 0.9722(4)
O3_8 O 0.5184(4) 0.9085(4) 0.9181(3)
C13_8 C 0.5700(6) 0.8671(6) 0.9501(4)
C14_8 C 0.6158(7) 0.7872(6) 0.9248(5)
H12_8 H 0.5984 0.7790 0.8842
H13_6 H 0.6001 0.7365 0.9475
H14_8 H 0.6780 0.7955 0.9266
N6_8 N 0.1331(6) 0.0322(6) 0.2171(4)
C11_8 C 0.1011(7) 0.0275(7) 0.2771(6)
N8_8 N 0.0586(7) 0.0984(6) 0.2997(4)
H9_8 H 0.0412 0.0982 0.3360
H10_8 H 0.0491 0.1433 0.2777
H13_7 H 0.9865 0.6499 0.1975
H13_8 H 0.0135 0.8501 0.1975
N1_8 N 0.6331(6) 0.0322(6) 0.2829(4)
C4_8 C 0.6011(7) 0.0275(7) 0.2229(6)
N3_8 N 0.5586(7) 0.0984(6) 0.2003(4)
H2_8 H 0.5412 0.0982 0.1640
H3_8 H 0.5491 0.1433 0.2223
loop_
_geom_bond_atom_site_label_1
_geom_bond_atom_site_label_2
_geom_bond_site_symmetry_1
_geom_bond_site_symmetry_2
Cu4 N10 1_555 1_555
N6 C8 1_555 1_555
C8 H8 1_555 1_555
C9 N7 1_555 1_555
C10 C9 1_555 1_555
C11 N6 1_555 1_555
N8 C11 1_555 1_555
H9 N8 1_555 1_555
H10 N8 1_555 1_555
N10 C10 1_555 1_555
C12 N10 1_555 1_555
H11 C12 1_555 1_555
C8 N7 1_555 1_555
C9 N12 1_555 1_555
C10 C11 1_555 1_555
C12 N12 1_555 1_555
O2 C6 1_555 1_555
C6 O1 1_555 1_555
C7 C6 1_555 1_555
H5 C7 1_555 1_555
H6 C7 1_555 1_555
H7 C7 1_555 1_555
N11 Cu3 1_555 1_555
O2 Cu3 1_555 1_555
N9 Cu1 1_555 1_555
O4 Cu1 1_555 1_555
C13 O3 1_555 1_555
C14 C13 1_555 1_555
H12 C14 1_555 1_555
H13 C14 1_555 1_555
H14 C14 1_555 1_555
O4 C13 1_555 1_555
N1 C1 1_555 1_555
C1 H1 1_555 1_555
N2 C1 1_555 1_555
C2 N2 1_555 1_555
C3 C2 1_555 1_555
C4 N1 1_555 1_555
N3 C4 1_555 1_555
H2 N3 1_555 1_555
H3 N3 1_555 1_555
N4 C3 1_555 1_555
C5 N4 1_555 1_555
H4 C5 1_555 1_555
N5 C2 1_555 1_555
Cu2 N4 1_555 1_555
C3 C4 1_555 1_555
C5 N5 1_555 1_555
Cu1_2 N2_2 1_555 1_555
N1_2 C1_2 1_555 1_555
C1_2 H1_2 1_555 1_555
N2_2 C1_2 1_555 1_555
C2_2 N2_2 1_555 1_555
C3_2 C2_2 1_555 1_555
C4_2 N1_2 1_555 1_555
N3_2 C4_2 1_555 1_555
H2_2 N3_2 1_555 1_555
H3_2 N3_2 1_555 1_555
N4_2 C3_2 1_555 1_555
C5_2 N4_2 1_555 1_555
H4_2 C5_2 1_555 1_555
N5_2 C2_2 1_555 1_555
Cu2_2 N4_2 1_555 1_555
N9_2 Cu1_2 1_555 1_555
O4_2 Cu1_2 1_555 1_555
C13_2 O3_2 1_555 1_555
C14_2 C13_2 1_555 1_555
H12_2 C14_2 1_555 1_555
H13_2 C14_2 1_555 1_555
H14_2 C14_2 1_555 1_555
C3_2 C4_2 1_555 1_555
C5_2 N5_2 1_555 1_555
O4_2 C13_2 1_555 1_555
O2_2 C6_2 1_555 1_555
C6_2 O1_2 1_555 1_555
C7_2 C6_2 1_555 1_555
H5_2 C7_2 1_555 1_555
H6_2 C7_2 1_555 1_555
H7_2 C7_2 1_555 1_555
Cu4_2 N10_2 1_555 1_555
N6_2 C8_2 1_555 1_555
C8_2 H8_2 1_555 1_555
N7_2 Cu3_2 1_555 1_555
C9_2 N7_2 1_555 1_555
C10_2 C9_2 1_555 1_555
C11_2 N6_2 1_555 1_555
N8_2 C11_2 1_555 1_555
H9_2 N8_2 1_555 1_555
H10_2 N8_2 1_555 1_555
N10_2 C10_2 1_555 1_555
N11_2 Cu3_2 1_555 1_555
C12_2 N10_2 1_555 1_555
H11_2 C12_2 1_555 1_555
O2_2 Cu3_2 1_555 1_555
C8_2 N7_2 1_555 1_555
C9_2 N12_2 1_555 1_555
C10_2 C11_2 1_555 1_555
C12_2 N12_2 1_555 1_555
Cu1_3 N2_3 1_555 1_555
C1_3 H1_3 1_555 1_555
N2_3 C1_3 1_555 1_555
C2_3 N2_3 1_555 1_555
C3_3 C2_3 1_555 1_555
N9 C3_3 1_555 1_555
C5_3 N9 1_555 1_555
H4_3 C5_3 1_555 1_555
N5_3 C2_3 1_555 1_555
O1_3 Cu1_3 1_555 1_555
O2_3 C6_3 1_555 1_555
C6_3 O1_3 1_555 1_555
C7_3 C6_3 1_555 1_555
H5_3 C7_3 1_555 1_555
H7_3 C7_3 1_555 1_555
Cu4_2 N5_3 1_555 1_555
Cu4_3 N10_3 1_555 1_555
N6_3 C8_3 1_555 1_555
C8_3 H8_3 1_555 1_555
N7_3 Cu4_2 1_555 1_555
C9_3 N7_3 1_555 1_555
C10_3 C9_3 1_555 1_555
C11_3 N6_3 1_555 1_555
N8_3 C11_3 1_555 1_555
H9_3 N8_3 1_555 1_555
H10_3 N8_3 1_555 1_555
N9_3 Cu1_3 1_555 1_555
N10_3 C10_3 1_555 1_555
C12_3 N10_3 1_555 1_555
H11_3 C12_3 1_555 1_555
N12_3 Cu1_3 1_555 1_555
O3_3 Cu4_2 1_555 1_555
O4_3 Cu1_3 1_555 1_555
C13_3 O3_3 1_555 1_555
C14_3 C13_3 1_555 1_555
H12_3 C14_3 1_555 1_555
H13_3 C14_3 1_555 1_555
H14_3 C14_3 1_555 1_555
C5_3 N5_3 1_555 1_555
O2_3 Cu4_2 1_555 1_555
C8_3 N7_3 1_555 1_555
C9_3 N12_3 1_555 1_555
C10_3 C11_3 1_555 1_555
C12_3 N12_3 1_555 1_555
O4_3 C13_3 1_555 1_555
Cu1_4 N2_4 1_555 1_555
N1_3 C1_4 1_555 1_555
C1_4 H1_4 1_555 1_555
N2_4 C1_4 1_555 1_555
C2_4 N2_4 1_555 1_555
C3_4 C2_4 1_555 1_555
C4_3 N1_3 1_555 1_555
N3_3 C4_3 1_555 1_555
H2_3 N3_3 1_555 1_555
H3_3 N3_3 1_555 1_555
N9_2 C3_4 1_555 1_555
C5_4 N9_2 1_555 1_555
H4_4 C5_4 1_555 1_555
N5_4 C2_4 1_555 1_555
O1_4 Cu1_4 1_555 1_555
O2_4 C6_4 1_555 1_555
C6_4 O1_4 1_555 1_555
C7_4 C6_4 1_555 1_555
H5_4 C7_4 1_555 1_555
H7_4 C7_4 1_555 1_555
Cu4 N5_4 1_555 1_555
Cu4_4 N10_4 1_555 1_555
C8_4 H8_4 1_555 1_555
N7_4 Cu4 1_555 1_555
C9_4 N7_4 1_555 1_555
C10_4 C9_4 1_555 1_555
N9_4 Cu1_4 1_555 1_555
N10_4 C10_4 1_555 1_555
C12_4 N10_4 1_555 1_555
H11_4 C12_4 1_555 1_555
N12_4 Cu1_4 1_555 1_555
O3_4 Cu4 1_555 1_555
O4_4 Cu1_4 1_555 1_555
C13_4 O3_4 1_555 1_555
C14_4 C13_4 1_555 1_555
H12_4 C14_4 1_555 1_555
H13_4 C14_4 1_555 1_555
H14_4 C14_4 1_555 1_555
C3_4 C4_3 1_555 1_555
C5_4 N5_4 1_555 1_555
O2_4 Cu4 1_555 1_555
C8_4 N7_4 1_555 1_555
C9_4 N12_4 1_555 1_555
C12_4 N12_4 1_555 1_555
O4_4 C13_4 1_555 1_555
Cu1_5 N2_5 1_555 1_555
N1_4 C1_5 1_555 1_555
C1_5 H1_5 1_555 1_555
N2_5 C1_5 1_555 1_555
O1_5 Cu1_5 1_555 1_555
C6_5 O1_5 1_555 1_555
C7_5 C6_5 1_555 1_555
H5_5 C7_5 1_555 1_555
H6_3 C7_5 1_555 1_555
H7_5 C7_5 1_555 1_555
Cu4_5 N10_5 1_555 1_555
C10_5 C9_5 1_555 1_555
N8_4 C11_4 1_555 1_555
H9_4 N8_4 1_555 1_555
H10_4 N8_4 1_555 1_555
N9_5 Cu1_5 1_555 1_555
N10_5 C10_5 1_555 1_555
C12_5 N10_5 1_555 1_555
H11_5 C12_5 1_555 1_555
N12_5 Cu1_5 1_555 1_555
O4_5 Cu1_5 1_555 1_555
C9_5 N12_5 1_555 1_555
C10_5 C11_4 1_555 1_555
C12_5 N12_5 1_555 1_555
C3_5 C2_5 1_555 1_555
N3_4 C4_4 1_555 1_555
H2_4 N3_4 1_555 1_555
H3_4 N3_4 1_555 1_555
N9_4 C3_5 1_555 1_555
C5_5 N9_4 1_555 1_555
H4_5 C5_5 1_555 1_555
N5_5 C2_5 1_555 1_555
Cu4_3 N5_5 1_555 1_555
N6_4 C8_5 1_555 1_555
C8_5 H8_5 1_555 1_555
N7_5 Cu4_3 1_555 1_555
O3_5 Cu4_3 1_555 1_555
C13_5 O3_5 1_555 1_555
C14_5 C13_5 1_555 1_555
H12_5 C14_5 1_555 1_555
H13_5 C14_5 1_555 1_555
H14_5 C14_5 1_555 1_555
C3_5 C4_4 1_555 1_555
C5_5 N5_5 1_555 1_555
O2_5 Cu4_3 1_555 1_555
C8_5 N7_5 1_555 1_555
C3_6 C2_6 1_555 1_555
N3_5 C4_5 1_555 1_555
H2_5 N3_5 1_555 1_555
H3_5 N3_5 1_555 1_555
N9_3 C3_6 1_555 1_555
C5_6 N9_3 1_555 1_555
H4_6 C5_6 1_555 1_555
N5_6 C2_6 1_555 1_555
Cu4_4 N5_6 1_555 1_555
C3_6 C4_5 1_555 1_555
C5_6 N5_6 1_555 1_555
O2_6 Cu4_4 1_555 1_555
Cu4_6 N10_6 1_555 1_555
C10_6 C9_6 1_555 1_555
N8_5 C11_5 1_555 1_555
H9_5 N8_5 1_555 1_555
H10_5 N8_5 1_555 1_555
N9_6 Cu1_6 1_555 1_555
N10_6 C10_6 1_555 1_555
C12_6 N10_6 1_555 1_555
H11_6 C12_6 1_555 1_555
N12_6 Cu1_6 1_555 1_555
O4_6 Cu1_6 1_555 1_555
C9_6 N12_6 1_555 1_555
C10_6 C11_5 1_555 1_555
C12_6 N12_6 1_555 1_555
Cu2_2 N2_6 1_555 1_555
N1_5 C1_6 1_555 1_555
C1_6 H1_6 1_555 1_555
N2_6 C1_6 1_555 1_555
C2_7 N2_6 1_555 1_555
C3_7 C2_7 1_555 1_555
C4_6 N1_5 1_555 1_555
N3_6 C4_6 1_555 1_555
H2_6 N3_6 1_555 1_555
H3_6 N3_6 1_555 1_555
N9_5 C3_7 1_555 1_555
C5_7 N9_5 1_555 1_555
H4_7 C5_7 1_555 1_555
N5_7 C2_7 1_555 1_555
O1_6 Cu2_2 1_555 1_555
O2_7 C6_6 1_555 1_555
C6_6 O1_6 1_555 1_555
C7_6 C6_6 1_555 1_555
H5_6 C7_6 1_555 1_555
H6_4 C7_6 1_555 1_555
H7_6 C7_6 1_555 1_555
Cu4_6 N5_7 1_555 1_555
C8_6 H8_6 1_555 1_555
N7_6 Cu4_6 1_555 1_555
C9_7 N7_6 1_555 1_555
C10_7 C9_7 1_555 1_555
N11 C10_7 1_555 1_555
C12_7 N11 1_555 1_555
H11_7 C12_7 1_555 1_555
N12_7 Cu2_2 1_555 1_555
O3_6 Cu4_6 1_555 1_555
O4_7 Cu2_2 1_555 1_555
C13_6 O3_6 1_555 1_555
C14_6 C13_6 1_555 1_555
H12_6 C14_6 1_555 1_555
H14_6 C14_6 1_555 1_555
C3_7 C4_6 1_555 1_555
C5_7 N5_7 1_555 1_555
O2_7 Cu4_6 1_555 1_555
C8_6 N7_6 1_555 1_555
C9_7 N12_7 1_555 1_555
C12_7 N12_7 1_555 1_555
O4_7 C13_6 1_555 1_555
Cu2 N2_7 1_555 1_555
C1_7 H1_7 1_555 1_555
N2_7 C1_7 1_555 1_555
C2_8 N2_7 1_555 1_555
C3_8 C2_8 1_555 1_555
N9_6 C3_8 1_555 1_555
C5_8 N9_6 1_555 1_555
H4_8 C5_8 1_555 1_555
N5_8 C2_8 1_555 1_555
O1_7 Cu2 1_555 1_555
O2_8 C6_7 1_555 1_555
C6_7 O1_7 1_555 1_555
C7_7 C6_7 1_555 1_555
H5_7 C7_7 1_555 1_555
H6_5 C7_7 1_555 1_555
H7_7 C7_7 1_555 1_555
Cu4_5 N5_8 1_555 1_555
N6_5 C8_7 1_555 1_555
C8_7 H8_7 1_555 1_555
N7_7 Cu4_5 1_555 1_555
C9_8 N7_7 1_555 1_555
C10_8 C9_8 1_555 1_555
C11_6 N6_5 1_555 1_555
N8_6 C11_6 1_555 1_555
H9_6 N8_6 1_555 1_555
H10_6 N8_6 1_555 1_555
N11_2 C10_8 1_555 1_555
C12_8 N11_2 1_555 1_555
H11_8 C12_8 1_555 1_555
N12_8 Cu2 1_555 1_555
O3_7 Cu4_5 1_555 1_555
O4_8 Cu2 1_555 1_555
C13_7 O3_7 1_555 1_555
C14_7 C13_7 1_555 1_555
H12_7 C14_7 1_555 1_555
H14_7 C14_7 1_555 1_555
C5_8 N5_8 1_555 1_555
O2_8 Cu4_5 1_555 1_555
C8_7 N7_7 1_555 1_555
C9_8 N12_8 1_555 1_555
C10_8 C11_6 1_555 1_555
C12_8 N12_8 1_555 1_555
O4_8 C13_7 1_555 1_555
C4_7 N1_6 1_555 1_555
N3_7 C4_7 1_555 1_555
H2_7 N3_7 1_555 1_555
H3_7 N3_7 1_555 1_555
C11_7 N6_6 1_555 1_555
N8_7 C11_7 1_555 1_555
H9_7 N8_7 1_555 1_555
H10_7 N8_7 1_555 1_555
N1_7 C1_8 1_555 1_555
C1_8 H1_8 1_555 1_555
N2_8 C1_8 1_555 1_555
C6_8 O1_8 1_555 1_555
C7_8 C6_8 1_555 1_555
H5_8 C7_8 1_555 1_555
H6_8 C7_8 1_555 1_555
H7_8 C7_8 1_555 1_555
N6_7 C8_8 1_555 1_555
C8_8 H8_8 1_555 1_555
C13_8 O3_8 1_555 1_555
C14_8 C13_8 1_555 1_555
H12_8 C14_8 1_555 1_555
H13_6 C14_8 1_555 1_555
H14_8 C14_8 1_555 1_555
C8_8 N7_8 1_555 1_555
C11_8 N6_8 1_555 1_555
N8_8 C11_8 1_555 1_555
H9_8 N8_8 1_555 1_555
H10_8 N8_8 1_555 1_555
C4_8 N1_8 1_555 1_555
N3_8 C4_8 1_555 1_555
H2_8 N3_8 1_555 1_555
H3_8 N3_8 1_555 1_555

#END
