
###############################################################################
#
# This file contains modified crystal structure data generated from the
# MOF subset of the Cambridge Structural Database (CSD) v543 
# hosted by the Cambridge Crystallographic Data Centre (CCDC).
#
# This work is licensed under the Creative Commons
# Attribution-NonCommercial-ShareAlike 4.0 International License.
# To view a copy of this license, visit
# http://creativecommons.org/licenses/by-nc-sa/4.0/
# or send a letter to
# Creative Commons, PO Box 1866, Mountain View, CA 94042, USA.
#
# CIF created using the CSD Python API on 29 September 2022
# The structure has been converted into the P1 space group
# The structure has a 3D framework
# The original CSD entry IZUVUV is in the orthorhombic crystal system
# The framework has been calculated to contain at least 10.0% void space
# The void calculation uses a probe of radius 1.32A, grid spacing 0.4
#
###############################################################################

data_IZUVUV
_chemical_formula_moiety         '(C288 H192 Cl48 N96 Zn29)n'
_symmetry_cell_setting           triclinic
_symmetry_space_group_name_H-M   'P 1'
_symmetry_Int_Tables_number      1
_space_group_name_Hall           'P 1'
loop_
_symmetry_equiv_pos_site_id
_symmetry_equiv_pos_as_xyz
1 x,y,z
_cell_length_a                   49.62000(10)
_cell_length_b                   50.5890(6)
_cell_length_c                   6.0590(6)
_cell_angle_alpha                90
_cell_angle_beta                 90
_cell_angle_gamma                90
_cell_volume                     15209.5
loop_
_atom_site_label
_atom_site_type_symbol
_atom_site_fract_x
_atom_site_fract_y
_atom_site_fract_z
Zn2 Zn 0.874690(16) 0.13747(2) 0.14012(19)
Cl1 Cl 0.86018(4) 0.10593(5) 0.3647(4)
Cl2 Cl 0.88733(4) 0.17672(5) 0.2770(4)
H4 H 0.8207 0.1157 0.0514
Zn3 Zn 0.625310(16) 0.36253(2) 0.14012(19)
Cl4 Cl 0.63982(4) 0.39407(5) 0.3647(4)
Cl5 Cl 0.61267(4) 0.32328(5) 0.2770(4)
H16 H 0.6793 0.3843 0.0514
C1 C 0.84712(15) 0.15829(19) 0.7380(18)
H1 H 0.8635 0.1676 0.7169
C2 C 0.82630(14) 0.16249(18) 0.5861(17)
H2 H 0.8284 0.1741 0.4639
C3 C 0.80230(15) 0.14876(19) 0.6233(16)
C4 C 0.80019(15) 0.1316(2) 0.7903(17)
H3 H 0.7840 0.1218 0.8115
C5 C 0.82212(14) 0.12812(19) 0.9342(19)
C6 C 0.77797(15) 0.15456(19) 0.4765(17)
C7 C 0.75664(14) 0.17305(18) 0.1900(16)
C8 C 0.73272(14) 0.15062(19) 0.4410(17)
C14 C 0.70642(15) 0.14087(18) 0.5427(17)
C15 C 0.68224(15) 0.1466(2) 0.4308(18)
H9 H 0.6818 0.1559 0.2946
C16 C 0.65828(16) 0.13728(19) 0.539(2)
H10 H 0.6414 0.1405 0.4703
C17 C 0.68232(15) 0.11964(19) 0.8281(18)
H11 H 0.6824 0.1102 0.9635
C18 C 0.70670(16) 0.1280(2) 0.738(2)
H12 H 0.7232 0.1247 0.8127
N1 N 0.75476(13) 0.14377(15) 0.5590(14)
N2 N 0.78016(13) 0.16889(16) 0.2993(13)
N3 N 0.73233(13) 0.16394(16) 0.2580(14)
N5 N 0.84535(12) 0.14210(14) 0.9095(14)
N6 N 0.65833(13) 0.12472(16) 0.7264(14)
Zn4 Zn 0.624690(16) 0.11253(2) 0.89012(19)
Zn5 Zn 0.875310(16) 0.38747(2) 0.89012(19)
C19 C 0.65288(15) 0.34171(19) 0.7380(18)
H13 H 0.6365 0.3324 0.7169
C20 C 0.67370(14) 0.33751(18) 0.5861(17)
H14 H 0.6716 0.3259 0.4639
C21 C 0.69770(15) 0.35124(19) 0.6233(16)
C22 C 0.69981(15) 0.3684(2) 0.7903(17)
H15 H 0.7160 0.3782 0.8115
C23 C 0.67788(14) 0.37188(19) 0.9342(19)
C24 C 0.72203(15) 0.34544(19) 0.4765(17)
C25 C 0.74336(14) 0.32695(18) 0.1900(16)
C26 C 0.76728(14) 0.34938(19) 0.4410(17)
C32 C 0.79358(15) 0.35913(18) 0.5427(17)
C33 C 0.81776(15) 0.3534(2) 0.4308(18)
H21 H 0.8182 0.3441 0.2946
C34 C 0.84172(16) 0.36272(19) 0.539(2)
H22 H 0.8586 0.3595 0.4703
C35 C 0.81768(15) 0.38036(19) 0.8281(18)
H23 H 0.8176 0.3898 0.9635
C36 C 0.79330(16) 0.3720(2) 0.738(2)
H24 H 0.7768 0.3753 0.8127
N7 N 0.74524(13) 0.35623(15) 0.5590(14)
N8 N 0.71984(13) 0.33111(16) 0.2993(13)
N9 N 0.76767(13) 0.33606(16) 0.2580(14)
N11 N 0.65465(12) 0.35790(14) 0.9095(14)
N12 N 0.84167(13) 0.37528(16) 0.7264(14)
N13 N 0.90833(13) 0.12528(16) 0.9764(14)
N14 N 0.59167(13) 0.37472(16) 0.9764(14)
Zn2_2 Zn 0.125310(16) 0.86253(2) 0.14012(19)
Cl1_2 Cl 0.13982(4) 0.89407(5) 0.3647(4)
Cl2_2 Cl 0.11267(4) 0.82328(5) 0.2770(4)
H4_2 H 0.1793 0.8843 0.0514
Zn3_2 Zn 0.374690(16) 0.63747(2) 0.14012(19)
Cl4_2 Cl 0.36018(4) 0.60593(5) 0.3647(4)
Cl5_2 Cl 0.38733(4) 0.67672(5) 0.2770(4)
H16_2 H 0.3207 0.6157 0.0514
C1_2 C 0.15288(15) 0.84171(19) 0.7380(18)
H1_2 H 0.1365 0.8324 0.7169
C2_2 C 0.17370(14) 0.83751(18) 0.5861(17)
H2_2 H 0.1716 0.8259 0.4639
C3_2 C 0.19770(15) 0.85124(19) 0.6233(16)
C4_2 C 0.19981(15) 0.8684(2) 0.7903(17)
H3_2 H 0.2160 0.8782 0.8115
C5_2 C 0.17788(14) 0.87188(19) 0.9342(19)
C6_2 C 0.22203(15) 0.84544(19) 0.4765(17)
C7_2 C 0.24336(14) 0.82695(18) 0.1900(16)
C8_2 C 0.26728(14) 0.84938(19) 0.4410(17)
C14_2 C 0.29358(15) 0.85913(18) 0.5427(17)
C15_2 C 0.31776(15) 0.8534(2) 0.4308(18)
H9_2 H 0.3182 0.8441 0.2946
C16_2 C 0.34172(16) 0.86272(19) 0.539(2)
H10_2 H 0.3586 0.8595 0.4703
C17_2 C 0.31768(15) 0.88036(19) 0.8281(18)
H11_2 H 0.3176 0.8898 0.9635
C18_2 C 0.29330(16) 0.8720(2) 0.738(2)
H12_2 H 0.2768 0.8753 0.8127
N1_2 N 0.24524(13) 0.85623(15) 0.5590(14)
N2_2 N 0.21984(13) 0.83111(16) 0.2993(13)
N3_2 N 0.26767(13) 0.83606(16) 0.2580(14)
N5_2 N 0.15465(12) 0.85790(14) 0.9095(14)
N6_2 N 0.34167(13) 0.87528(16) 0.7264(14)
Zn4_2 Zn 0.375310(16) 0.88747(2) 0.89012(19)
Zn5_2 Zn 0.124690(16) 0.61253(2) 0.89012(19)
C19_2 C 0.34712(15) 0.65829(19) 0.7380(18)
H13_2 H 0.3635 0.6676 0.7169
C20_2 C 0.32630(14) 0.66249(18) 0.5861(17)
H14_2 H 0.3284 0.6741 0.4639
C21_2 C 0.30230(15) 0.64876(19) 0.6233(16)
C22_2 C 0.30019(15) 0.6316(2) 0.7903(17)
H15_2 H 0.2840 0.6218 0.8115
C23_2 C 0.32212(14) 0.62812(19) 0.9342(19)
C24_2 C 0.27797(15) 0.65456(19) 0.4765(17)
C25_2 C 0.25664(14) 0.67305(18) 0.1900(16)
C26_2 C 0.23272(14) 0.65062(19) 0.4410(17)
C32_2 C 0.20642(15) 0.64087(18) 0.5427(17)
C33_2 C 0.18224(15) 0.6466(2) 0.4308(18)
H21_2 H 0.1818 0.6559 0.2946
C34_2 C 0.15828(16) 0.63728(19) 0.539(2)
H22_2 H 0.1414 0.6405 0.4703
C35_2 C 0.18232(15) 0.61964(19) 0.8281(18)
H23_2 H 0.1824 0.6102 0.9635
C36_2 C 0.20670(16) 0.6280(2) 0.738(2)
H24_2 H 0.2232 0.6247 0.8127
N7_2 N 0.25476(13) 0.64377(15) 0.5590(14)
N8_2 N 0.28016(13) 0.66889(16) 0.2993(13)
N9_2 N 0.23233(13) 0.66394(16) 0.2580(14)
N11_2 N 0.34535(12) 0.64210(14) 0.9095(14)
N12_2 N 0.15833(13) 0.62472(16) 0.7264(14)
N13_2 N 0.09167(13) 0.87472(16) 0.9764(14)
N14_2 N 0.40833(13) 0.62528(16) 0.9764(14)
Zn2_3 Zn 0.124690(16) 0.11253(2) 0.39012(19)
Cl1_3 Cl 0.11018(4) 0.14407(5) 0.6147(4)
Cl2_3 Cl 0.13733(4) 0.07328(5) 0.5270(4)
C4_3 C 0.05019(15) 0.1184(2) 0.0403(17)
H3_3 H 0.0340 0.1282 0.0615
C5_3 C 0.07212(14) 0.12188(19) 0.1842(19)
H4_3 H 0.0707 0.1343 0.3014
N5_3 N 0.09535(12) 0.10790(14) 0.1595(14)
N13_3 N 0.15833(13) 0.12472(16) 0.2264(14)
C35_3 C 0.06768(15) 0.86964(19) 0.0781(18)
H23_3 H 0.0676 0.8602 0.2135
H24_3 H 0.0268 0.8747 0.0627
C26_3 C 0.01728(14) 0.90062(19) 0.6910(17)
C31 C 0.01767(15) 0.94358(19) 0.1205(18)
H20 H 0.0340 0.9357 0.1685
C32_3 C 0.04358(15) 0.89087(18) 0.7927(17)
C33_3 C 0.06776(15) 0.8966(2) 0.6808(18)
H21_3 H 0.0682 0.9059 0.5446
C34_3 C 0.09172(16) 0.88728(19) 0.789(2)
H22_3 H 0.1086 0.8905 0.7203
C36_3 C 0.04330(16) 0.8780(2) 0.988(2)
N9_3 N 0.01767(13) 0.91394(16) 0.5080(14)
C17_3 C 0.93232(15) 0.13036(19) 0.0781(18)
H11_3 H 0.9324 0.1398 0.2135
H12_3 H 0.9732 0.1253 0.0627
C8_3 C 0.98272(14) 0.09938(19) 0.6910(17)
C13 C 0.98233(15) 0.05642(19) 0.1205(18)
H8 H 0.9660 0.0643 0.1685
C14_3 C 0.95642(15) 0.10913(18) 0.7927(17)
C15_3 C 0.93224(15) 0.1034(2) 0.6808(18)
H9_3 H 0.9318 0.0941 0.5446
C16_3 C 0.90828(16) 0.11272(19) 0.789(2)
H10_3 H 0.8914 0.1095 0.7203
C18_3 C 0.95670(16) 0.1220(2) 0.988(2)
N3_3 N 0.98233(13) 0.08606(16) 0.5080(14)
Zn3_3 Zn 0.875310(16) 0.88747(2) 0.39012(19)
Cl4_3 Cl 0.88982(4) 0.85593(5) 0.6147(4)
Cl5_3 Cl 0.86267(4) 0.92672(5) 0.5270(4)
C22_3 C 0.94981(15) 0.8816(2) 0.0403(17)
H15_3 H 0.9660 0.8718 0.0615
C23_3 C 0.92788(14) 0.87812(19) 0.1842(19)
H16_3 H 0.9293 0.8657 0.3014
N11_3 N 0.90465(12) 0.89210(14) 0.1595(14)
N14_3 N 0.84167(13) 0.87528(16) 0.2264(14)
Zn2_4 Zn 0.375310(16) 0.38747(2) 0.39012(19)
Cl1_4 Cl 0.38982(4) 0.35593(5) 0.6147(4)
Cl2_4 Cl 0.36267(4) 0.42672(5) 0.5270(4)
C4_4 C 0.44981(15) 0.3816(2) 0.0403(17)
H3_4 H 0.4660 0.3718 0.0615
C5_4 C 0.42788(14) 0.37812(19) 0.1842(19)
H4_4 H 0.4293 0.3657 0.3014
C17_4 C 0.56768(15) 0.36964(19) 0.0781(18)
H11_4 H 0.5676 0.3602 0.2135
H12_4 H 0.5268 0.3747 0.0627
N5_4 N 0.40465(12) 0.39210(14) 0.1595(14)
Zn3_4 Zn 0.624690(16) 0.61253(2) 0.39012(19)
Cl4_4 Cl 0.61018(4) 0.64407(5) 0.6147(4)
Cl5_4 Cl 0.63733(4) 0.57328(5) 0.5270(4)
C22_4 C 0.55019(15) 0.6184(2) 0.0403(17)
H15_4 H 0.5340 0.6282 0.0615
C23_4 C 0.57212(14) 0.62188(19) 0.1842(19)
H16_4 H 0.5707 0.6343 0.3014
C35_4 C 0.43232(15) 0.63036(19) 0.0781(18)
H23_4 H 0.4324 0.6398 0.2135
H24_4 H 0.4732 0.6253 0.0627
N11_4 N 0.59535(12) 0.60790(14) 0.1595(14)
N13_4 N 0.34167(13) 0.37528(16) 0.2264(14)
N14_4 N 0.65833(13) 0.62472(16) 0.2264(14)
C1_3 C 0.40288(15) 0.40829(19) 0.9880(18)
H1_3 H 0.3865 0.4176 0.9669
C2_3 C 0.42370(14) 0.41249(18) 0.8361(17)
H2_3 H 0.4216 0.4241 0.7139
C3_3 C 0.44770(15) 0.39876(19) 0.8733(16)
C6_3 C 0.47203(15) 0.40456(19) 0.7265(17)
C7_3 C 0.49336(14) 0.42305(18) 0.4400(16)
C8_4 C 0.51728(14) 0.40062(19) 0.6910(17)
C9 C 0.49315(16) 0.43899(18) 0.2418(18)
C10 C 0.46979(15) 0.45074(18) 0.1554(17)
H5 H 0.4528 0.4477 0.2225
C13_2 C 0.51767(15) 0.44358(19) 0.1205(18)
H8_2 H 0.5340 0.4357 0.1685
C14_4 C 0.54358(15) 0.39087(18) 0.7927(17)
C15_4 C 0.56776(15) 0.3966(2) 0.6808(18)
H9_4 H 0.5682 0.4059 0.5446
C16_4 C 0.59172(16) 0.38728(19) 0.789(2)
H10_4 H 0.6086 0.3905 0.7203
C18_4 C 0.54330(16) 0.3780(2) 0.988(2)
N1_3 N 0.49524(13) 0.39377(15) 0.8090(14)
N2_3 N 0.46984(13) 0.41889(16) 0.5493(13)
N3_4 N 0.51767(13) 0.41394(16) 0.5080(14)
C19_3 C 0.59712(15) 0.59171(19) 0.9880(18)
H13_3 H 0.6135 0.5824 0.9669
C20_3 C 0.57630(14) 0.58751(18) 0.8361(17)
H14_3 H 0.5784 0.5759 0.7139
C21_3 C 0.55230(15) 0.60124(19) 0.8733(16)
C24_3 C 0.52797(15) 0.59544(19) 0.7265(17)
C25_3 C 0.50664(14) 0.57695(18) 0.4400(16)
C26_4 C 0.48272(14) 0.59938(19) 0.6910(17)
C27 C 0.50685(16) 0.56101(18) 0.2418(18)
C28 C 0.53021(15) 0.54926(18) 0.1554(17)
H17 H 0.5472 0.5523 0.2225
C31_2 C 0.48233(15) 0.55642(19) 0.1205(18)
H20_2 H 0.4660 0.5643 0.1685
C32_4 C 0.45642(15) 0.60913(18) 0.7927(17)
C33_4 C 0.43224(15) 0.6034(2) 0.6808(18)
H21_4 H 0.4318 0.5941 0.5446
C34_4 C 0.40828(16) 0.61272(19) 0.789(2)
H22_4 H 0.3914 0.6095 0.7203
C36_4 C 0.45670(16) 0.6220(2) 0.988(2)
N7_3 N 0.50476(13) 0.60623(15) 0.8090(14)
N8_3 N 0.53016(13) 0.58111(16) 0.5493(13)
N9_4 N 0.48233(13) 0.58606(16) 0.5080(14)
Zn2_5 Zn 0.874690(16) 0.63747(2) 0.64012(19)
Cl1_5 Cl 0.86018(4) 0.60593(5) 0.8647(4)
Cl2_5 Cl 0.88733(4) 0.67672(5) 0.7770(4)
C1_4 C 0.84712(15) 0.65829(19) 0.2380(18)
H1_4 H 0.8635 0.6676 0.2169
C2_4 C 0.82630(14) 0.66249(18) 0.0861(17)
C3_4 C 0.80230(15) 0.64876(19) 0.1233(16)
C4_5 C 0.80019(15) 0.6316(2) 0.2903(17)
H3_5 H 0.7840 0.6218 0.3115
C5_5 C 0.82212(14) 0.62812(19) 0.4342(19)
H4_5 H 0.8207 0.6157 0.5514
C14_5 C 0.70642(15) 0.64087(18) 0.0427(17)
C16_5 C 0.65828(16) 0.63728(19) 0.039(2)
C17_5 C 0.68232(15) 0.61964(19) 0.3281(18)
H11_5 H 0.6824 0.6102 0.4635
C18_5 C 0.70670(16) 0.6280(2) 0.238(2)
H12_5 H 0.7232 0.6247 0.3127
N1_4 N 0.75476(13) 0.64377(15) 0.0590(14)
N5_5 N 0.84535(12) 0.64210(14) 0.4095(14)
Zn3_5 Zn 0.625310(16) 0.86253(2) 0.64012(19)
Cl4_5 Cl 0.63982(4) 0.89407(5) 0.8647(4)
Cl5_5 Cl 0.61267(4) 0.82328(5) 0.7770(4)
C19_4 C 0.65288(15) 0.84171(19) 0.2380(18)
H13_4 H 0.6365 0.8324 0.2169
C20_4 C 0.67370(14) 0.83751(18) 0.0861(17)
C21_4 C 0.69770(15) 0.85124(19) 0.1233(16)
C22_5 C 0.69981(15) 0.8684(2) 0.2903(17)
H15_5 H 0.7160 0.8782 0.3115
C23_5 C 0.67788(14) 0.87188(19) 0.4342(19)
H16_5 H 0.6793 0.8843 0.5514
C32_5 C 0.79358(15) 0.85913(18) 0.0427(17)
C34_5 C 0.84172(16) 0.86272(19) 0.039(2)
C35_5 C 0.81768(15) 0.88036(19) 0.3281(18)
H23_5 H 0.8176 0.8898 0.4635
C36_5 C 0.79330(16) 0.8720(2) 0.238(2)
H24_5 H 0.7768 0.8753 0.3127
N7_4 N 0.74524(13) 0.85623(15) 0.0590(14)
N11_5 N 0.65465(12) 0.85790(14) 0.4095(14)
N13_5 N 0.90833(13) 0.62528(16) 0.4764(14)
N14_5 N 0.59167(13) 0.87472(16) 0.4764(14)
Zn2_6 Zn 0.125310(16) 0.36253(2) 0.64012(19)
Cl1_6 Cl 0.13982(4) 0.39407(5) 0.8647(4)
Cl2_6 Cl 0.11267(4) 0.32328(5) 0.7770(4)
C1_5 C 0.15288(15) 0.34171(19) 0.2380(18)
H1_5 H 0.1365 0.3324 0.2169
C2_5 C 0.17370(14) 0.33751(18) 0.0861(17)
C3_5 C 0.19770(15) 0.35124(19) 0.1233(16)
C4_6 C 0.19981(15) 0.3684(2) 0.2903(17)
H3_6 H 0.2160 0.3782 0.3115
C5_6 C 0.17788(14) 0.37188(19) 0.4342(19)
H4_6 H 0.1793 0.3843 0.5514
C14_6 C 0.29358(15) 0.35913(18) 0.0427(17)
C16_6 C 0.34172(16) 0.36272(19) 0.039(2)
C17_6 C 0.31768(15) 0.38036(19) 0.3281(18)
H11_6 H 0.3176 0.3898 0.4635
C18_6 C 0.29330(16) 0.3720(2) 0.238(2)
H12_6 H 0.2768 0.3753 0.3127
N1_5 N 0.24524(13) 0.35623(15) 0.0590(14)
N5_6 N 0.15465(12) 0.35790(14) 0.4095(14)
Zn3_6 Zn 0.374690(16) 0.13747(2) 0.64012(19)
Cl4_6 Cl 0.36018(4) 0.10593(5) 0.8647(4)
Cl5_6 Cl 0.38733(4) 0.17672(5) 0.7770(4)
C19_5 C 0.34712(15) 0.15829(19) 0.2380(18)
H13_5 H 0.3635 0.1676 0.2169
C20_5 C 0.32630(14) 0.16249(18) 0.0861(17)
C21_5 C 0.30230(15) 0.14876(19) 0.1233(16)
C22_6 C 0.30019(15) 0.1316(2) 0.2903(17)
H15_6 H 0.2840 0.1218 0.3115
C23_6 C 0.32212(14) 0.12812(19) 0.4342(19)
H16_6 H 0.3207 0.1157 0.5514
C32_6 C 0.20642(15) 0.14087(18) 0.0427(17)
C34_6 C 0.15828(16) 0.13728(19) 0.039(2)
C35_6 C 0.18232(15) 0.11964(19) 0.3281(18)
H23_6 H 0.1824 0.1102 0.4635
C36_6 C 0.20670(16) 0.1280(2) 0.238(2)
H24_6 H 0.2232 0.1247 0.3127
N7_5 N 0.25476(13) 0.14377(15) 0.0590(14)
N11_6 N 0.34535(12) 0.14210(14) 0.4095(14)
N13_6 N 0.09167(13) 0.37472(16) 0.4764(14)
N14_6 N 0.40833(13) 0.12528(16) 0.4764(14)
C1_6 C 0.09712(15) 0.59171(19) 0.4880(18)
H1_6 H 0.1135 0.5824 0.4669
C2_6 C 0.07630(14) 0.58751(18) 0.3361(17)
H2_4 H 0.0784 0.5759 0.2139
C3_6 C 0.05230(15) 0.60124(19) 0.3733(16)
C4_7 C 0.05019(15) 0.6184(2) 0.5403(17)
H3_7 H 0.0340 0.6282 0.5615
C5_7 C 0.07212(14) 0.62188(19) 0.6842(19)
H4_7 H 0.0707 0.6343 0.8014
C6_4 C 0.02797(15) 0.59544(19) 0.2265(17)
N1_6 N 0.00476(13) 0.60623(15) 0.3090(14)
N2_4 N 0.03016(13) 0.58111(16) 0.0493(13)
N5_7 N 0.09535(12) 0.60790(14) 0.6595(14)
C26_5 C 0.01728(14) 0.40062(19) 0.1910(17)
C32_7 C 0.04358(15) 0.39087(18) 0.2927(17)
C33_5 C 0.06776(15) 0.3966(2) 0.1808(18)
H21_5 H 0.0682 0.4059 0.0446
C34_7 C 0.09172(16) 0.38728(19) 0.289(2)
H22_5 H 0.1086 0.3905 0.2203
C35_7 C 0.06768(15) 0.36964(19) 0.5781(18)
H23_7 H 0.0676 0.3602 0.7135
C36_7 C 0.04330(16) 0.3780(2) 0.488(2)
H24_7 H 0.0268 0.3747 0.5627
N9_5 N 0.01767(13) 0.41394(16) 0.0080(14)
C8_5 C 0.98272(14) 0.59938(19) 0.1910(17)
C14_7 C 0.95642(15) 0.60913(18) 0.2927(17)
C15_5 C 0.93224(15) 0.6034(2) 0.1808(18)
H9_5 H 0.9318 0.5941 0.0446
C16_7 C 0.90828(16) 0.61272(19) 0.289(2)
H10_5 H 0.8914 0.6095 0.2203
C17_7 C 0.93232(15) 0.63036(19) 0.5781(18)
H11_7 H 0.9324 0.6398 0.7135
C18_7 C 0.95670(16) 0.6220(2) 0.488(2)
H12_7 H 0.9732 0.6253 0.5627
N3_5 N 0.98233(13) 0.58606(16) 0.0080(14)
C19_6 C 0.90288(15) 0.40829(19) 0.4880(18)
H13_6 H 0.8865 0.4176 0.4669
C20_6 C 0.92370(14) 0.41249(18) 0.3361(17)
H14_4 H 0.9216 0.4241 0.2139
C21_6 C 0.94770(15) 0.39876(19) 0.3733(16)
C22_7 C 0.94981(15) 0.3816(2) 0.5403(17)
H15_7 H 0.9660 0.3718 0.5615
C23_7 C 0.92788(14) 0.37812(19) 0.6842(19)
H16_7 H 0.9293 0.3657 0.8014
C24_4 C 0.97203(15) 0.40456(19) 0.2265(17)
N7_6 N 0.99524(13) 0.39377(15) 0.3090(14)
N8_4 N 0.96984(13) 0.41889(16) 0.0493(13)
N11_7 N 0.90465(12) 0.39210(14) 0.6595(14)
C19_7 C 0.59712(15) 0.09171(19) 0.4880(18)
H13_7 H 0.6135 0.0824 0.4669
C20_7 C 0.57630(14) 0.08751(18) 0.3361(17)
H14_5 H 0.5784 0.0759 0.2139
C21_7 C 0.55230(15) 0.10124(19) 0.3733(16)
C22_8 C 0.55019(15) 0.1184(2) 0.5403(17)
H15_8 H 0.5340 0.1282 0.5615
C23_8 C 0.57212(14) 0.12188(19) 0.6842(19)
H16_8 H 0.5707 0.1343 0.8014
C24_5 C 0.52797(15) 0.09544(19) 0.2265(17)
C26_6 C 0.48272(14) 0.09938(19) 0.1910(17)
C32_8 C 0.45642(15) 0.10913(18) 0.2927(17)
C33_6 C 0.43224(15) 0.1034(2) 0.1808(18)
H21_6 H 0.4318 0.0941 0.0446
C34_8 C 0.40828(16) 0.11272(19) 0.289(2)
H22_6 H 0.3914 0.1095 0.2203
C35_8 C 0.43232(15) 0.13036(19) 0.5781(18)
H23_8 H 0.4324 0.1398 0.7135
C36_8 C 0.45670(16) 0.1220(2) 0.488(2)
H24_8 H 0.4732 0.1253 0.5627
N7_7 N 0.50476(13) 0.10623(15) 0.3090(14)
N8_5 N 0.53016(13) 0.08111(16) 0.0493(13)
N9_6 N 0.48233(13) 0.08606(16) 0.0080(14)
N11_8 N 0.59535(12) 0.10790(14) 0.6595(14)
C1_7 C 0.40288(15) 0.90829(19) 0.4880(18)
H1_7 H 0.3865 0.9176 0.4669
C2_7 C 0.42370(14) 0.91249(18) 0.3361(17)
H2_5 H 0.4216 0.9241 0.2139
C3_7 C 0.44770(15) 0.89876(19) 0.3733(16)
C4_8 C 0.44981(15) 0.8816(2) 0.5403(17)
H3_8 H 0.4660 0.8718 0.5615
C5_8 C 0.42788(14) 0.87812(19) 0.6842(19)
H4_8 H 0.4293 0.8657 0.8014
C6_5 C 0.47203(15) 0.90456(19) 0.2265(17)
C8_6 C 0.51728(14) 0.90062(19) 0.1910(17)
C14_8 C 0.54358(15) 0.89087(18) 0.2927(17)
C15_6 C 0.56776(15) 0.8966(2) 0.1808(18)
H9_6 H 0.5682 0.9059 0.0446
C16_8 C 0.59172(16) 0.88728(19) 0.289(2)
H10_6 H 0.6086 0.8905 0.2203
C17_8 C 0.56768(15) 0.86964(19) 0.5781(18)
H11_8 H 0.5676 0.8602 0.7135
C18_8 C 0.54330(16) 0.8780(2) 0.488(2)
H12_8 H 0.5268 0.8747 0.5627
N1_7 N 0.49524(13) 0.89377(15) 0.3090(14)
N2_5 N 0.46984(13) 0.91889(16) 0.0493(13)
N3_6 N 0.51767(13) 0.91394(16) 0.0080(14)
N5_8 N 0.40465(12) 0.89210(14) 0.6595(14)
Zn1 Zn 0.7500 0.2500 0.3789(3)
Cl3 Cl 0.71049(5) 0.24256(5) 0.2205(5)
C9_2 C 0.75685(16) 0.18899(18) 0.9918(18)
C10_2 C 0.78021(15) 0.20074(18) 0.9054(17)
H5_2 H 0.7972 0.1977 0.9725
C11 C 0.77814(16) 0.21648(18) 0.7246(17)
H6 H 0.7940 0.2250 0.6724
C12 C 0.73255(17) 0.2086(2) 0.6936(18)
H7 H 0.7161 0.2112 0.6161
C13_3 C 0.73233(15) 0.19358(19) 0.8705(18)
H8_3 H 0.7160 0.1857 0.9185
N4 N 0.75514(13) 0.22069(14) 0.6159(14)
Cl6 Cl 0.78951(5) 0.25744(5) 0.2205(5)
C27_2 C 0.74315(16) 0.31101(18) 0.9918(18)
C28_2 C 0.71979(15) 0.29926(18) 0.9054(17)
H17_2 H 0.7028 0.3023 0.9725
C29 C 0.72186(16) 0.28352(18) 0.7246(17)
H18 H 0.7060 0.2750 0.6724
C30 C 0.76745(17) 0.2914(2) 0.6936(18)
H19 H 0.7839 0.2888 0.6161
C31_3 C 0.76767(15) 0.30642(19) 0.8705(18)
H20_3 H 0.7840 0.3143 0.9185
N10 N 0.74486(13) 0.27931(14) 0.6159(14)
Zn1_2 Zn 0.2500 0.7500 0.3789(3)
Cl3_2 Cl 0.28951(5) 0.75744(5) 0.2205(5)
C9_3 C 0.24315(16) 0.81101(18) 0.9918(18)
C10_3 C 0.21979(15) 0.79926(18) 0.9054(17)
H5_3 H 0.2028 0.8023 0.9725
C11_2 C 0.22186(16) 0.78352(18) 0.7246(17)
H6_2 H 0.2060 0.7750 0.6724
C12_2 C 0.26745(17) 0.7914(2) 0.6936(18)
H7_2 H 0.2839 0.7888 0.6161
C13_4 C 0.26767(15) 0.80642(19) 0.8705(18)
H8_4 H 0.2840 0.8143 0.9185
N4_2 N 0.24486(13) 0.77931(14) 0.6159(14)
Cl6_2 Cl 0.21049(5) 0.74256(5) 0.2205(5)
C27_3 C 0.25685(16) 0.68899(18) 0.9918(18)
C28_3 C 0.28021(15) 0.70074(18) 0.9054(17)
H17_3 H 0.2972 0.6977 0.9725
C29_2 C 0.27814(16) 0.71648(18) 0.7246(17)
H18_2 H 0.2940 0.7250 0.6724
C30_2 C 0.23255(17) 0.7086(2) 0.6936(18)
H19_2 H 0.2161 0.7112 0.6161
C31_4 C 0.23233(15) 0.69358(19) 0.8705(18)
H20_4 H 0.2160 0.6857 0.9185
N10_2 N 0.25514(13) 0.72069(14) 0.6159(14)
C1_8 C 0.09712(15) 0.09171(19) 0.9880(18)
H1_8 H 0.1135 0.0824 0.9669
C2_8 C 0.07630(14) 0.08751(18) 0.8361(17)
H2_6 H 0.0784 0.0759 0.7139
C3_8 C 0.05230(15) 0.10124(19) 0.8733(16)
C6_6 C 0.02797(15) 0.09544(19) 0.7265(17)
C7_4 C 0.00664(14) 0.07695(18) 0.4400(16)
C9_4 C 0.00685(16) 0.06101(18) 0.2418(18)
C10_4 C 0.03021(15) 0.04926(18) 0.1554(17)
H5_4 H 0.0472 0.0523 0.2225
N1_8 N 0.00476(13) 0.10623(15) 0.8090(14)
N2_6 N 0.03016(13) 0.08111(16) 0.5493(13)
Zn1_3 Zn -0.0000 0.0000 0.6289(3)
C11_3 C 0.02814(16) 0.03352(18) 0.9746(17)
H6_3 H 0.0440 0.0250 0.9224
N4_3 N 0.00514(13) 0.02931(14) 0.8659(14)
Zn1_4 Zn -0.0000 1.0000 0.6289(3)
Cl6_3 Cl 0.03951(5) 0.99256(5) 0.4705(5)
C30_3 C 0.01745(17) 0.9586(2) 0.9436(18)
H19_3 H 0.0339 0.9612 0.8661
Zn1_5 Zn 1.0000 0.0000 0.6289(3)
Cl3_3 Cl 0.96049(5) 0.00744(5) 0.4705(5)
C12_3 C 0.98255(17) 0.0414(2) 0.9436(18)
H7_3 H 0.9661 0.0388 0.8661
C19_8 C 0.90288(15) 0.90829(19) 0.9880(18)
H13_8 H 0.8865 0.9176 0.9669
C20_8 C 0.92370(14) 0.91249(18) 0.8361(17)
H14_6 H 0.9216 0.9241 0.7139
C21_8 C 0.94770(15) 0.89876(19) 0.8733(16)
C24_6 C 0.97203(15) 0.90456(19) 0.7265(17)
C25_4 C 0.99336(14) 0.92305(18) 0.4400(16)
C27_4 C 0.99315(16) 0.93899(18) 0.2418(18)
C28_4 C 0.96979(15) 0.95074(18) 0.1554(17)
H17_4 H 0.9528 0.9477 0.2225
N7_8 N 0.99524(13) 0.89377(15) 0.8090(14)
N8_6 N 0.96984(13) 0.91889(16) 0.5493(13)
Zn1_6 Zn 1.0000 1.0000 0.6289(3)
C29_3 C 0.97186(16) 0.96648(18) 0.9746(17)
H18_3 H 0.9560 0.9750 0.9224
N10_3 N 0.99486(13) 0.97069(14) 0.8659(14)
Zn1_7 Zn 0.5000 0.5000 0.6289(3)
Cl3_4 Cl 0.53951(5) 0.49256(5) 0.4705(5)
C11_4 C 0.47186(16) 0.46648(18) 0.9746(17)
H6_4 H 0.4560 0.4750 0.9224
C12_4 C 0.51745(17) 0.4586(2) 0.9436(18)
H7_4 H 0.5339 0.4612 0.8661
N4_4 N 0.49486(13) 0.47069(14) 0.8659(14)
Cl6_4 Cl 0.46049(5) 0.50744(5) 0.4705(5)
C29_4 C 0.52814(16) 0.53352(18) 0.9746(17)
H18_4 H 0.5440 0.5250 0.9224
C30_4 C 0.48255(17) 0.5414(2) 0.9436(18)
H19_4 H 0.4661 0.5388 0.8661
N10_4 N 0.50514(13) 0.52931(14) 0.8659(14)
H2_7 H 0.8284 0.6741 0.9639
C6_7 C 0.77797(15) 0.65456(19) 0.9765(17)
C7_5 C 0.75664(14) 0.67305(18) 0.6900(16)
C8_7 C 0.73272(14) 0.65062(19) 0.9410(17)
C9_5 C 0.75685(16) 0.68899(18) 0.4918(18)
C10_5 C 0.78021(15) 0.70074(18) 0.4054(17)
H5_5 H 0.7972 0.6977 0.4725
C11_5 C 0.77814(16) 0.71648(18) 0.2246(17)
H6_5 H 0.7940 0.7250 0.1724
C12_5 C 0.73255(17) 0.7086(2) 0.1936(18)
H7_5 H 0.7161 0.7112 0.1161
C13_5 C 0.73233(15) 0.69358(19) 0.3705(18)
H8_5 H 0.7160 0.6857 0.4185
C15_7 C 0.68224(15) 0.6466(2) 0.9308(18)
H9_7 H 0.6818 0.6559 0.7946
H10_7 H 0.6414 0.6405 0.9703
N2_7 N 0.78016(13) 0.66889(16) 0.7993(13)
N3_7 N 0.73233(13) 0.66394(16) 0.7580(14)
N4_5 N 0.75514(13) 0.72069(14) 0.1159(14)
H14_7 H 0.6716 0.8259 0.9639
C24_7 C 0.72203(15) 0.84544(19) 0.9765(17)
C25_5 C 0.74336(14) 0.82695(18) 0.6900(16)
C26_7 C 0.76728(14) 0.84938(19) 0.9410(17)
C27_5 C 0.74315(16) 0.81101(18) 0.4918(18)
C28_5 C 0.71979(15) 0.79926(18) 0.4054(17)
H17_5 H 0.7028 0.8023 0.4725
C29_5 C 0.72186(16) 0.78352(18) 0.2246(17)
H18_5 H 0.7060 0.7750 0.1724
C30_5 C 0.76745(17) 0.7914(2) 0.1936(18)
H19_5 H 0.7839 0.7888 0.1161
C31_5 C 0.76767(15) 0.80642(19) 0.3705(18)
H20_5 H 0.7840 0.8143 0.4185
C33_7 C 0.81776(15) 0.8534(2) 0.9308(18)
H21_7 H 0.8182 0.8441 0.7946
H22_7 H 0.8586 0.8595 0.9703
N8_7 N 0.71984(13) 0.83111(16) 0.7993(13)
N9_7 N 0.76767(13) 0.83606(16) 0.7580(14)
N10_5 N 0.74486(13) 0.77931(14) 0.1159(14)
Zn1_8 Zn 0.7500 0.7500 0.8789(3)
Cl3_5 Cl 0.71049(5) 0.74256(5) 0.7205(5)
Cl6_5 Cl 0.78951(5) 0.75744(5) 0.7205(5)
H2_8 H 0.1716 0.3259 0.9639
C6_8 C 0.22203(15) 0.34544(19) 0.9765(17)
C7_6 C 0.24336(14) 0.32695(18) 0.6900(16)
C8_8 C 0.26728(14) 0.34938(19) 0.9410(17)
C9_6 C 0.24315(16) 0.31101(18) 0.4918(18)
C10_6 C 0.21979(15) 0.29926(18) 0.4054(17)
H5_6 H 0.2028 0.3023 0.4725
C11_6 C 0.22186(16) 0.28352(18) 0.2246(17)
H6_6 H 0.2060 0.2750 0.1724
C12_6 C 0.26745(17) 0.2914(2) 0.1936(18)
H7_6 H 0.2839 0.2888 0.1161
C13_6 C 0.26767(15) 0.30642(19) 0.3705(18)
H8_6 H 0.2840 0.3143 0.4185
C15_8 C 0.31776(15) 0.3534(2) 0.9308(18)
H9_8 H 0.3182 0.3441 0.7946
H10_8 H 0.3586 0.3595 0.9703
N2_8 N 0.21984(13) 0.33111(16) 0.7993(13)
N3_8 N 0.26767(13) 0.33606(16) 0.7580(14)
N4_6 N 0.24486(13) 0.27931(14) 0.1159(14)
H14_8 H 0.3284 0.1741 0.9639
C24_8 C 0.27797(15) 0.15456(19) 0.9765(17)
C25_6 C 0.25664(14) 0.17305(18) 0.6900(16)
C26_8 C 0.23272(14) 0.15062(19) 0.9410(17)
C27_6 C 0.25685(16) 0.18899(18) 0.4918(18)
C28_6 C 0.28021(15) 0.20074(18) 0.4054(17)
H17_6 H 0.2972 0.1977 0.4725
C29_6 C 0.27814(16) 0.21648(18) 0.2246(17)
H18_6 H 0.2940 0.2250 0.1724
C30_6 C 0.23255(17) 0.2086(2) 0.1936(18)
H19_6 H 0.2161 0.2112 0.1161
C31_6 C 0.23233(15) 0.19358(19) 0.3705(18)
H20_6 H 0.2160 0.1857 0.4185
C33_8 C 0.18224(15) 0.1466(2) 0.9308(18)
H21_8 H 0.1818 0.1559 0.7946
H22_8 H 0.1414 0.1405 0.9703
N8_8 N 0.28016(13) 0.16889(16) 0.7993(13)
N9_8 N 0.23233(13) 0.16394(16) 0.7580(14)
N10_6 N 0.25514(13) 0.22069(14) 0.1159(14)
Zn1_9 Zn 0.2500 0.2500 0.8789(3)
Cl3_6 Cl 0.28951(5) 0.25744(5) 0.7205(5)
Cl6_6 Cl 0.21049(5) 0.24256(5) 0.7205(5)
Cl1_7 Cl 0.11018(4) 0.64407(5) 0.1147(4)
Cl2_7 Cl 0.13733(4) 0.57328(5) 0.0270(4)
Zn1_10 Zn -0.0000 0.5000 0.1289(3)
C7_7 C 0.00664(14) 0.57695(18) 0.9400(16)
C9_7 C 0.00685(16) 0.56101(18) 0.7418(18)
C10_7 C 0.03021(15) 0.54926(18) 0.6554(17)
H5_7 H 0.0472 0.5523 0.7225
C11_7 C 0.02814(16) 0.53352(18) 0.4746(17)
H6_7 H 0.0440 0.5250 0.4224
N4_7 N 0.00514(13) 0.52931(14) 0.3659(14)
C30_7 C 0.01745(17) 0.4586(2) 0.4436(18)
H19_7 H 0.0339 0.4612 0.3661
C31_7 C 0.01767(15) 0.44358(19) 0.6205(18)
H20_7 H 0.0340 0.4357 0.6685
Cl6_7 Cl 0.03951(5) 0.49256(5) 0.9705(5)
Cl4_7 Cl 0.88982(4) 0.35593(5) 0.1147(4)
Cl5_7 Cl 0.86267(4) 0.42672(5) 0.0270(4)
Zn1_11 Zn 1.0000 0.5000 0.1289(3)
C12_7 C 0.98255(17) 0.5414(2) 0.4436(18)
H7_7 H 0.9661 0.5388 0.3661
C13_7 C 0.98233(15) 0.55642(19) 0.6205(18)
H8_7 H 0.9660 0.5643 0.6685
C25_7 C 0.99336(14) 0.42305(18) 0.9400(16)
C27_7 C 0.99315(16) 0.43899(18) 0.7418(18)
C28_7 C 0.96979(15) 0.45074(18) 0.6554(17)
H17_7 H 0.9528 0.4477 0.7225
C29_7 C 0.97186(16) 0.46648(18) 0.4746(17)
H18_7 H 0.9560 0.4750 0.4224
N10_7 N 0.99486(13) 0.47069(14) 0.3659(14)
Cl3_7 Cl 0.96049(5) 0.50744(5) 0.9705(5)
Cl4_8 Cl 0.61018(4) 0.14407(5) 0.1147(4)
Cl5_8 Cl 0.63733(4) 0.07328(5) 0.0270(4)
Zn1_12 Zn 0.5000 0.0000 0.1289(3)
C25_8 C 0.50664(14) 0.07695(18) 0.9400(16)
C27_8 C 0.50685(16) 0.06101(18) 0.7418(18)
C28_8 C 0.53021(15) 0.04926(18) 0.6554(17)
H17_8 H 0.5472 0.0523 0.7225
C29_8 C 0.52814(16) 0.03352(18) 0.4746(17)
H18_8 H 0.5440 0.0250 0.4224
C30_8 C 0.48255(17) 0.0414(2) 0.4436(18)
H19_8 H 0.4661 0.0388 0.3661
C31_8 C 0.48233(15) 0.05642(19) 0.6205(18)
H20_8 H 0.4660 0.0643 0.6685
N10_8 N 0.50514(13) 0.02931(14) 0.3659(14)
Cl6_8 Cl 0.46049(5) 0.00744(5) 0.9705(5)
Cl1_8 Cl 0.38982(4) 0.85593(5) 0.1147(4)
Cl2_8 Cl 0.36267(4) 0.92672(5) 0.0270(4)
Zn1_13 Zn 0.5000 1.0000 0.1289(3)
C7_8 C 0.49336(14) 0.92305(18) 0.9400(16)
C9_8 C 0.49315(16) 0.93899(18) 0.7418(18)
C10_8 C 0.46979(15) 0.95074(18) 0.6554(17)
H5_8 H 0.4528 0.9477 0.7225
C11_8 C 0.47186(16) 0.96648(18) 0.4746(17)
H6_8 H 0.4560 0.9750 0.4224
C12_8 C 0.51745(17) 0.9586(2) 0.4436(18)
H7_8 H 0.5339 0.9612 0.3661
C13_8 C 0.51767(15) 0.94358(19) 0.6205(18)
H8_8 H 0.5340 0.9357 0.6685
N4_8 N 0.49486(13) 0.97069(14) 0.3659(14)
Cl3_8 Cl 0.53951(5) 0.99256(5) 0.9705(5)
loop_
_geom_bond_atom_site_label_1
_geom_bond_atom_site_label_2
_geom_bond_site_symmetry_1
_geom_bond_site_symmetry_2
Zn2 Cl1 1_555 1_555
Cl2 Zn2 1_555 1_555
Zn3 Cl4 1_555 1_555
Cl5 Zn3 1_555 1_555
C1 H1 1_555 1_555
C2 C1 1_555 1_555
H2 C2 1_555 1_555
C3 C2 1_555 1_555
C4 C3 1_555 1_555
H3 C4 1_555 1_555
C5 C4 1_555 1_555
C6 C3 1_555 1_555
C8 C14 1_555 1_555
C14 C15 1_555 1_555
C15 H9 1_555 1_555
C16 C15 1_555 1_555
H10 C16 1_555 1_555
C17 H11 1_555 1_555
C18 C14 1_555 1_555
H12 C18 1_555 1_555
N1 C6 1_555 1_555
N2 C6 1_555 1_555
N3 C7 1_555 1_555
N6 C16 1_555 1_555
Zn4 N6 1_555 1_555
Zn5 N12 1_555 1_555
C19 H13 1_555 1_555
C20 C19 1_555 1_555
H14 C20 1_555 1_555
C21 C20 1_555 1_555
C22 C21 1_555 1_555
H15 C22 1_555 1_555
C23 C22 1_555 1_555
C24 C21 1_555 1_555
C26 C32 1_555 1_555
C32 C33 1_555 1_555
C33 H21 1_555 1_555
C34 C33 1_555 1_555
H22 C34 1_555 1_555
C35 H23 1_555 1_555
C36 C32 1_555 1_555
H24 C36 1_555 1_555
N7 C24 1_555 1_555
N8 C24 1_555 1_555
N9 C25 1_555 1_555
N12 C34 1_555 1_555
C1 N5 1_555 1_555
C5 N5 1_555 1_555
C7 N2 1_555 1_555
C8 N1 1_555 1_555
C8 N3 1_555 1_555
C17 C18 1_555 1_555
C17 N6 1_555 1_555
C19 N11 1_555 1_555
C23 N11 1_555 1_555
C25 N8 1_555 1_555
C26 N7 1_555 1_555
C26 N9 1_555 1_555
C35 C36 1_555 1_555
C35 N12 1_555 1_555
Zn2_2 Cl1_2 1_555 1_555
Cl2_2 Zn2_2 1_555 1_555
Zn3_2 Cl4_2 1_555 1_555
Cl5_2 Zn3_2 1_555 1_555
C1_2 H1_2 1_555 1_555
C2_2 C1_2 1_555 1_555
H2_2 C2_2 1_555 1_555
C3_2 C2_2 1_555 1_555
C4_2 C3_2 1_555 1_555
H3_2 C4_2 1_555 1_555
C5_2 C4_2 1_555 1_555
C6_2 C3_2 1_555 1_555
C8_2 C14_2 1_555 1_555
C14_2 C15_2 1_555 1_555
C15_2 H9_2 1_555 1_555
C16_2 C15_2 1_555 1_555
H10_2 C16_2 1_555 1_555
C17_2 H11_2 1_555 1_555
C18_2 C14_2 1_555 1_555
H12_2 C18_2 1_555 1_555
N1_2 C6_2 1_555 1_555
N2_2 C6_2 1_555 1_555
N3_2 C7_2 1_555 1_555
N6_2 C16_2 1_555 1_555
Zn4_2 N6_2 1_555 1_555
Zn5_2 N12_2 1_555 1_555
C19_2 H13_2 1_555 1_555
C20_2 C19_2 1_555 1_555
H14_2 C20_2 1_555 1_555
C21_2 C20_2 1_555 1_555
C22_2 C21_2 1_555 1_555
H15_2 C22_2 1_555 1_555
C23_2 C22_2 1_555 1_555
C24_2 C21_2 1_555 1_555
C26_2 C32_2 1_555 1_555
C32_2 C33_2 1_555 1_555
C33_2 H21_2 1_555 1_555
C34_2 C33_2 1_555 1_555
H22_2 C34_2 1_555 1_555
C35_2 H23_2 1_555 1_555
C36_2 C32_2 1_555 1_555
H24_2 C36_2 1_555 1_555
N7_2 C24_2 1_555 1_555
N8_2 C24_2 1_555 1_555
N9_2 C25_2 1_555 1_555
N12_2 C34_2 1_555 1_555
C1_2 N5_2 1_555 1_555
C5_2 N5_2 1_555 1_555
C7_2 N2_2 1_555 1_555
C8_2 N1_2 1_555 1_555
C8_2 N3_2 1_555 1_555
C17_2 C18_2 1_555 1_555
C17_2 N6_2 1_555 1_555
C19_2 N11_2 1_555 1_555
C23_2 N11_2 1_555 1_555
C25_2 N8_2 1_555 1_555
C26_2 N7_2 1_555 1_555
C26_2 N9_2 1_555 1_555
C35_2 C36_2 1_555 1_555
C35_2 N12_2 1_555 1_555
Zn2_3 Cl1_3 1_555 1_555
Cl2_3 Zn2_3 1_555 1_555
H3_3 C4_3 1_555 1_555
C5_3 C4_3 1_555 1_555
H4_3 C5_3 1_555 1_555
N5_3 Zn2_3 1_555 1_555
N13_3 Zn2_3 1_555 1_555
C5_3 N5_3 1_555 1_555
C35_3 H23_3 1_555 1_555
C26_3 C32_3 1_555 1_555
H20 C31 1_555 1_555
C32_3 C33_3 1_555 1_555
C33_3 H21_3 1_555 1_555
C34_3 C33_3 1_555 1_555
H22_3 C34_3 1_555 1_555
C36_3 C32_3 1_555 1_555
N13_2 C34_3 1_555 1_555
C26_3 N9_3 1_555 1_555
C17_3 H11_3 1_555 1_555
C8_3 C14_3 1_555 1_555
H8 C13 1_555 1_555
C14_3 C15_3 1_555 1_555
C15_3 H9_3 1_555 1_555
C16_3 C15_3 1_555 1_555
H10_3 C16_3 1_555 1_555
C18_3 C14_3 1_555 1_555
N13 C16_3 1_555 1_555
C8_3 N3_3 1_555 1_555
Zn3_3 Cl4_3 1_555 1_555
Cl5_3 Zn3_3 1_555 1_555
H15_3 C22_3 1_555 1_555
C23_3 C22_3 1_555 1_555
H16_3 C23_3 1_555 1_555
N11_3 Zn3_3 1_555 1_555
N14_3 Zn3_3 1_555 1_555
C23_3 N11_3 1_555 1_555
Zn2_4 Cl1_4 1_555 1_555
Cl2_4 Zn2_4 1_555 1_555
H3_4 C4_4 1_555 1_555
C5_4 C4_4 1_555 1_555
H4_4 C5_4 1_555 1_555
C17_4 H11_4 1_555 1_555
N5_4 Zn2_4 1_555 1_555
Zn3_4 Cl4_4 1_555 1_555
Cl5_4 Zn3_4 1_555 1_555
H15_4 C22_4 1_555 1_555
C23_4 C22_4 1_555 1_555
H16_4 C23_4 1_555 1_555
C35_4 H23_4 1_555 1_555
N11_4 Zn3_4 1_555 1_555
N13_4 Zn2_4 1_555 1_555
N14_4 Zn3_4 1_555 1_555
C5_4 N5_4 1_555 1_555
C23_4 N11_4 1_555 1_555
C1_3 H1_3 1_555 1_555
C2_3 C1_3 1_555 1_555
H2_3 C2_3 1_555 1_555
C3_3 C2_3 1_555 1_555
C6_3 C3_3 1_555 1_555
C7_3 C9 1_555 1_555
C8_4 C14_4 1_555 1_555
C9 C10 1_555 1_555
C10 H5 1_555 1_555
C13_2 C9 1_555 1_555
H8_2 C13_2 1_555 1_555
C14_4 C15_4 1_555 1_555
C15_4 H9_4 1_555 1_555
C16_4 C15_4 1_555 1_555
H10_4 C16_4 1_555 1_555
C18_4 C14_4 1_555 1_555
N1_3 C6_3 1_555 1_555
N2_3 C6_3 1_555 1_555
N3_4 C7_3 1_555 1_555
N14 C16_4 1_555 1_555
C19_3 H13_3 1_555 1_555
C20_3 C19_3 1_555 1_555
H14_3 C20_3 1_555 1_555
C21_3 C20_3 1_555 1_555
C24_3 C21_3 1_555 1_555
C25_3 C27 1_555 1_555
C26_4 C32_4 1_555 1_555
C27 C28 1_555 1_555
C28 H17 1_555 1_555
C31_2 C27 1_555 1_555
H20_2 C31_2 1_555 1_555
C32_4 C33_4 1_555 1_555
C33_4 H21_4 1_555 1_555
C34_4 C33_4 1_555 1_555
H22_4 C34_4 1_555 1_555
C36_4 C32_4 1_555 1_555
N7_3 C24_3 1_555 1_555
N8_3 C24_3 1_555 1_555
N9_4 C25_3 1_555 1_555
N14_2 C34_4 1_555 1_555
C7_3 N2_3 1_555 1_555
C8_4 N1_3 1_555 1_555
C8_4 N3_4 1_555 1_555
C25_3 N8_3 1_555 1_555
C26_4 N7_3 1_555 1_555
C26_4 N9_4 1_555 1_555
Zn2_5 Cl1_5 1_555 1_555
Cl2_5 Zn2_5 1_555 1_555
C1_4 H1_4 1_555 1_555
C2_4 C1_4 1_555 1_555
C3_4 C2_4 1_555 1_555
C4_5 C3_4 1_555 1_555
H3_5 C4_5 1_555 1_555
C5_5 C4_5 1_555 1_555
H4_5 C5_5 1_555 1_555
C17_5 H11_5 1_555 1_555
C18_5 C14_5 1_555 1_555
H12_5 C18_5 1_555 1_555
N5_5 Zn2_5 1_555 1_555
N14_4 C16_5 1_555 1_555
Zn3_5 Cl4_5 1_555 1_555
Cl5_5 Zn3_5 1_555 1_555
C19_4 H13_4 1_555 1_555
C20_4 C19_4 1_555 1_555
C21_4 C20_4 1_555 1_555
C22_5 C21_4 1_555 1_555
H15_5 C22_5 1_555 1_555
C23_5 C22_5 1_555 1_555
H16_5 C23_5 1_555 1_555
C35_5 H23_5 1_555 1_555
C36_5 C32_5 1_555 1_555
H24_5 C36_5 1_555 1_555
N11_5 Zn3_5 1_555 1_555
N14_3 C34_5 1_555 1_555
N13_5 Zn2_5 1_555 1_555
N14_5 Zn3_5 1_555 1_555
C1_4 N5_5 1_555 1_555
C5_5 N5_5 1_555 1_555
C17_5 C18_5 1_555 1_555
C17_5 N14_4 1_555 1_555
C19_4 N11_5 1_555 1_555
C23_5 N11_5 1_555 1_555
C35_5 C36_5 1_555 1_555
C35_5 N14_3 1_555 1_555
Zn2_6 Cl1_6 1_555 1_555
Cl2_6 Zn2_6 1_555 1_555
C1_5 H1_5 1_555 1_555
C2_5 C1_5 1_555 1_555
C3_5 C2_5 1_555 1_555
C4_6 C3_5 1_555 1_555
H3_6 C4_6 1_555 1_555
C5_6 C4_6 1_555 1_555
H4_6 C5_6 1_555 1_555
C17_6 H11_6 1_555 1_555
C18_6 C14_6 1_555 1_555
H12_6 C18_6 1_555 1_555
N5_6 Zn2_6 1_555 1_555
N13_4 C16_6 1_555 1_555
Zn3_6 Cl4_6 1_555 1_555
Cl5_6 Zn3_6 1_555 1_555
C19_5 H13_5 1_555 1_555
C20_5 C19_5 1_555 1_555
C21_5 C20_5 1_555 1_555
C22_6 C21_5 1_555 1_555
H15_6 C22_6 1_555 1_555
C23_6 C22_6 1_555 1_555
H16_6 C23_6 1_555 1_555
C35_6 H23_6 1_555 1_555
C36_6 C32_6 1_555 1_555
H24_6 C36_6 1_555 1_555
N11_6 Zn3_6 1_555 1_555
N13_3 C34_6 1_555 1_555
N13_6 Zn2_6 1_555 1_555
N14_6 Zn3_6 1_555 1_555
C1_5 N5_6 1_555 1_555
C5_6 N5_6 1_555 1_555
C17_6 C18_6 1_555 1_555
C17_6 N13_4 1_555 1_555
C19_5 N11_6 1_555 1_555
C23_6 N11_6 1_555 1_555
C35_6 C36_6 1_555 1_555
C35_6 N13_3 1_555 1_555
C1_6 H1_6 1_555 1_555
C2_6 C1_6 1_555 1_555
H2_4 C2_6 1_555 1_555
C3_6 C2_6 1_555 1_555
C4_7 C3_6 1_555 1_555
H3_7 C4_7 1_555 1_555
C5_7 C4_7 1_555 1_555
H4_7 C5_7 1_555 1_555
C6_4 C3_6 1_555 1_555
N1_6 C6_4 1_555 1_555
N2_4 C6_4 1_555 1_555
N5_7 Zn5_2 1_555 1_555
C26_5 C32_7 1_555 1_555
C32_7 C33_5 1_555 1_555
C33_5 H21_5 1_555 1_555
C34_7 C33_5 1_555 1_555
H22_5 C34_7 1_555 1_555
C35_7 H23_7 1_555 1_555
C36_7 C32_7 1_555 1_555
H24_7 C36_7 1_555 1_555
N13_6 C34_7 1_555 1_555
C1_6 N5_7 1_555 1_555
C5_7 N5_7 1_555 1_555
C26_5 N9_5 1_555 1_555
C35_7 C36_7 1_555 1_555
C35_7 N13_6 1_555 1_555
C8_5 C14_7 1_555 1_555
C14_7 C15_5 1_555 1_555
C15_5 H9_5 1_555 1_555
C16_7 C15_5 1_555 1_555
H10_5 C16_7 1_555 1_555
C17_7 H11_7 1_555 1_555
C18_7 C14_7 1_555 1_555
H12_7 C18_7 1_555 1_555
N13_5 C16_7 1_555 1_555
C19_6 H13_6 1_555 1_555
C20_6 C19_6 1_555 1_555
H14_4 C20_6 1_555 1_555
C21_6 C20_6 1_555 1_555
C22_7 C21_6 1_555 1_555
H15_7 C22_7 1_555 1_555
C23_7 C22_7 1_555 1_555
H16_7 C23_7 1_555 1_555
C24_4 C21_6 1_555 1_555
N7_6 C24_4 1_555 1_555
N8_4 C24_4 1_555 1_555
N11_7 Zn5 1_555 1_555
C8_5 N3_5 1_555 1_555
C17_7 C18_7 1_555 1_555
C17_7 N13_5 1_555 1_555
C19_6 N11_7 1_555 1_555
C23_7 N11_7 1_555 1_555
C19_7 H13_7 1_555 1_555
C20_7 C19_7 1_555 1_555
H14_5 C20_7 1_555 1_555
C21_7 C20_7 1_555 1_555
C22_8 C21_7 1_555 1_555
H15_8 C22_8 1_555 1_555
C23_8 C22_8 1_555 1_555
H16_8 C23_8 1_555 1_555
C24_5 C21_7 1_555 1_555
C26_6 C32_8 1_555 1_555
C32_8 C33_6 1_555 1_555
C33_6 H21_6 1_555 1_555
C34_8 C33_6 1_555 1_555
H22_6 C34_8 1_555 1_555
C35_8 H23_8 1_555 1_555
C36_8 C32_8 1_555 1_555
H24_8 C36_8 1_555 1_555
N7_7 C24_5 1_555 1_555
N8_5 C24_5 1_555 1_555
N11_8 Zn4 1_555 1_555
N14_6 C34_8 1_555 1_555
C19_7 N11_8 1_555 1_555
C23_8 N11_8 1_555 1_555
C26_6 N7_7 1_555 1_555
C26_6 N9_6 1_555 1_555
C35_8 C36_8 1_555 1_555
C35_8 N14_6 1_555 1_555
C1_7 H1_7 1_555 1_555
C2_7 C1_7 1_555 1_555
H2_5 C2_7 1_555 1_555
C3_7 C2_7 1_555 1_555
C4_8 C3_7 1_555 1_555
H3_8 C4_8 1_555 1_555
C5_8 C4_8 1_555 1_555
H4_8 C5_8 1_555 1_555
C6_5 C3_7 1_555 1_555
C8_6 C14_8 1_555 1_555
C14_8 C15_6 1_555 1_555
C15_6 H9_6 1_555 1_555
C16_8 C15_6 1_555 1_555
H10_6 C16_8 1_555 1_555
C17_8 H11_8 1_555 1_555
C18_8 C14_8 1_555 1_555
H12_8 C18_8 1_555 1_555
N1_7 C6_5 1_555 1_555
N2_5 C6_5 1_555 1_555
N5_8 Zn4_2 1_555 1_555
N14_5 C16_8 1_555 1_555
C1_7 N5_8 1_555 1_555
C5_8 N5_8 1_555 1_555
C8_6 N1_7 1_555 1_555
C8_6 N3_6 1_555 1_555
C17_8 C18_8 1_555 1_555
C17_8 N14_5 1_555 1_555
Zn1 Cl3 1_555 1_555
C9_2 C10_2 1_555 1_555
C10_2 H5_2 1_555 1_555
C11 C10_2 1_555 1_555
H6 C11 1_555 1_555
C12 H7 1_555 1_555
C13_3 C9_2 1_555 1_555
H8_3 C13_3 1_555 1_555
N4 Zn1 1_555 1_555
Cl6 Zn1 1_555 1_555
C27_2 C28_2 1_555 1_555
C28_2 H17_2 1_555 1_555
C29 C28_2 1_555 1_555
H18 C29 1_555 1_555
C30 H19 1_555 1_555
C31_3 C27_2 1_555 1_555
H20_3 C31_3 1_555 1_555
N10 Zn1 1_555 1_555
C11 N4 1_555 1_555
C12 C13_3 1_555 1_555
C12 N4 1_555 1_555
C29 N10 1_555 1_555
C30 C31_3 1_555 1_555
C30 N10 1_555 1_555
Zn1_2 Cl3_2 1_555 1_555
C9_3 C10_3 1_555 1_555
C10_3 H5_3 1_555 1_555
C11_2 C10_3 1_555 1_555
H6_2 C11_2 1_555 1_555
C12_2 H7_2 1_555 1_555
C13_4 C9_3 1_555 1_555
H8_4 C13_4 1_555 1_555
N4_2 Zn1_2 1_555 1_555
Cl6_2 Zn1_2 1_555 1_555
C27_3 C28_3 1_555 1_555
C28_3 H17_3 1_555 1_555
C29_2 C28_3 1_555 1_555
H18_2 C29_2 1_555 1_555
C30_2 H19_2 1_555 1_555
C31_4 C27_3 1_555 1_555
H20_4 C31_4 1_555 1_555
N10_2 Zn1_2 1_555 1_555
C11_2 N4_2 1_555 1_555
C12_2 C13_4 1_555 1_555
C12_2 N4_2 1_555 1_555
C29_2 N10_2 1_555 1_555
C30_2 C31_4 1_555 1_555
C30_2 N10_2 1_555 1_555
C1_8 H1_8 1_555 1_555
C2_8 C1_8 1_555 1_555
H2_6 C2_8 1_555 1_555
C3_8 C2_8 1_555 1_555
C6_6 C3_8 1_555 1_555
C7_4 C9_4 1_555 1_555
C9_4 C10_4 1_555 1_555
C10_4 H5_4 1_555 1_555
N1_8 C6_6 1_555 1_555
N2_6 C6_6 1_555 1_555
C7_4 N2_6 1_555 1_555
H6_3 C11_3 1_555 1_555
N4_3 Zn1_3 1_555 1_555
C11_3 N4_3 1_555 1_555
Cl6_3 Zn1_4 1_555 1_555
C30_3 H19_3 1_555 1_555
Zn1_5 Cl3_3 1_555 1_555
C12_3 H7_3 1_555 1_555
C19_8 H13_8 1_555 1_555
C20_8 C19_8 1_555 1_555
H14_6 C20_8 1_555 1_555
C21_8 C20_8 1_555 1_555
C24_6 C21_8 1_555 1_555
C25_4 C27_4 1_555 1_555
C27_4 C28_4 1_555 1_555
C28_4 H17_4 1_555 1_555
N7_8 C24_6 1_555 1_555
N8_6 C24_6 1_555 1_555
C25_4 N8_6 1_555 1_555
H18_3 C29_3 1_555 1_555
N10_3 Zn1_6 1_555 1_555
C29_3 N10_3 1_555 1_555
Zn1_7 Cl3_4 1_555 1_555
H6_4 C11_4 1_555 1_555
C12_4 H7_4 1_555 1_555
N4_4 Zn1_7 1_555 1_555
Cl6_4 Zn1_7 1_555 1_555
H18_4 C29_4 1_555 1_555
C30_4 H19_4 1_555 1_555
N10_4 Zn1_7 1_555 1_555
C11_4 N4_4 1_555 1_555
C12_4 N4_4 1_555 1_555
C29_4 N10_4 1_555 1_555
C30_4 N10_4 1_555 1_555
C7_5 C9_5 1_555 1_555
C9_5 C10_5 1_555 1_555
C10_5 H5_5 1_555 1_555
C11_5 C10_5 1_555 1_555
H6_5 C11_5 1_555 1_555
C12_5 H7_5 1_555 1_555
C13_5 C9_5 1_555 1_555
H8_5 C13_5 1_555 1_555
C15_7 H9_7 1_555 1_555
N2_7 C6_7 1_555 1_555
N3_7 C7_5 1_555 1_555
C25_5 C27_5 1_555 1_555
C27_5 C28_5 1_555 1_555
C28_5 H17_5 1_555 1_555
C29_5 C28_5 1_555 1_555
H18_5 C29_5 1_555 1_555
C30_5 H19_5 1_555 1_555
C31_5 C27_5 1_555 1_555
H20_5 C31_5 1_555 1_555
C33_7 H21_7 1_555 1_555
N8_7 C24_7 1_555 1_555
N9_7 C25_5 1_555 1_555
C7_5 N2_7 1_555 1_555
C8_7 N3_7 1_555 1_555
C11_5 N4_5 1_555 1_555
C12_5 C13_5 1_555 1_555
C12_5 N4_5 1_555 1_555
C25_5 N8_7 1_555 1_555
C26_7 N9_7 1_555 1_555
C29_5 N10_5 1_555 1_555
C30_5 C31_5 1_555 1_555
C30_5 N10_5 1_555 1_555
Zn1_8 Cl3_5 1_555 1_555
Cl6_5 Zn1_8 1_555 1_555
C7_6 C9_6 1_555 1_555
C9_6 C10_6 1_555 1_555
C10_6 H5_6 1_555 1_555
C11_6 C10_6 1_555 1_555
H6_6 C11_6 1_555 1_555
C12_6 H7_6 1_555 1_555
C13_6 C9_6 1_555 1_555
H8_6 C13_6 1_555 1_555
C15_8 H9_8 1_555 1_555
N2_8 C6_8 1_555 1_555
N3_8 C7_6 1_555 1_555
C25_6 C27_6 1_555 1_555
C27_6 C28_6 1_555 1_555
C28_6 H17_6 1_555 1_555
C29_6 C28_6 1_555 1_555
H18_6 C29_6 1_555 1_555
C30_6 H19_6 1_555 1_555
C31_6 C27_6 1_555 1_555
H20_6 C31_6 1_555 1_555
C33_8 H21_8 1_555 1_555
N8_8 C24_8 1_555 1_555
N9_8 C25_6 1_555 1_555
C7_6 N2_8 1_555 1_555
C8_8 N3_8 1_555 1_555
C11_6 N4_6 1_555 1_555
C12_6 C13_6 1_555 1_555
C12_6 N4_6 1_555 1_555
C25_6 N8_8 1_555 1_555
C26_8 N9_8 1_555 1_555
C29_6 N10_6 1_555 1_555
C30_6 C31_6 1_555 1_555
C30_6 N10_6 1_555 1_555
Zn1_9 Cl3_6 1_555 1_555
Cl6_6 Zn1_9 1_555 1_555
C7_7 C9_7 1_555 1_555
C9_7 C10_7 1_555 1_555
C10_7 H5_7 1_555 1_555
C11_7 C10_7 1_555 1_555
H6_7 C11_7 1_555 1_555
N4_7 Zn1_10 1_555 1_555
C30_7 H19_7 1_555 1_555
H20_7 C31_7 1_555 1_555
C11_7 N4_7 1_555 1_555
C30_7 C31_7 1_555 1_555
C12_7 H7_7 1_555 1_555
H8_7 C13_7 1_555 1_555
C25_7 C27_7 1_555 1_555
C27_7 C28_7 1_555 1_555
C28_7 H17_7 1_555 1_555
C29_7 C28_7 1_555 1_555
H18_7 C29_7 1_555 1_555
N10_7 Zn1_11 1_555 1_555
C12_7 C13_7 1_555 1_555
C29_7 N10_7 1_555 1_555
C25_8 C27_8 1_555 1_555
C27_8 C28_8 1_555 1_555
C28_8 H17_8 1_555 1_555
C29_8 C28_8 1_555 1_555
H18_8 C29_8 1_555 1_555
C30_8 H19_8 1_555 1_555
C31_8 C27_8 1_555 1_555
H20_8 C31_8 1_555 1_555
N10_8 Zn1_12 1_555 1_555
C29_8 N10_8 1_555 1_555
C30_8 C31_8 1_555 1_555
C30_8 N10_8 1_555 1_555
C7_8 C9_8 1_555 1_555
C9_8 C10_8 1_555 1_555
C10_8 H5_8 1_555 1_555
C11_8 C10_8 1_555 1_555
H6_8 C11_8 1_555 1_555
C12_8 H7_8 1_555 1_555
C13_8 C9_8 1_555 1_555
H8_8 C13_8 1_555 1_555
N4_8 Zn1_13 1_555 1_555
C11_8 N4_8 1_555 1_555
C12_8 C13_8 1_555 1_555
C12_8 N4_8 1_555 1_555

#END
