
###############################################################################
#
# This file contains modified crystal structure data generated from the
# MOF subset of the Cambridge Structural Database (CSD) v543 
# hosted by the Cambridge Crystallographic Data Centre (CCDC).
#
# This work is licensed under the Creative Commons
# Attribution-NonCommercial-ShareAlike 4.0 International License.
# To view a copy of this license, visit
# http://creativecommons.org/licenses/by-nc-sa/4.0/
# or send a letter to
# Creative Commons, PO Box 1866, Mountain View, CA 94042, USA.
#
# CIF created using the CSD Python API on 29 September 2022
# The structure has been converted into the P1 space group
# The structure has a 3D framework
# The original CSD entry IZUZOV is in the orthorhombic crystal system
# The original CSD entry IZUZOV is in a Sohncke space group
# The framework has been calculated to contain at least 10.0% void space
# The void calculation uses a probe of radius 1.32A, grid spacing 0.4
#
###############################################################################

data_IZUZOV
_chemical_formula_moiety         '(C226 H252 N84 O94 Tb8 Zn12)n'
_symmetry_cell_setting           triclinic
_symmetry_space_group_name_H-M   'P 1'
_symmetry_Int_Tables_number      1
_space_group_name_Hall           'P 1'
loop_
_symmetry_equiv_pos_site_id
_symmetry_equiv_pos_as_xyz
1 x,y,z
_cell_length_a                   15.6906(14)
_cell_length_b                   21.4770(18)
_cell_length_c                   27.783(2)
_cell_angle_alpha                90
_cell_angle_beta                 90
_cell_angle_gamma                90
_cell_volume                     9362.51
loop_
_atom_site_label
_atom_site_type_symbol
_atom_site_fract_x
_atom_site_fract_y
_atom_site_fract_z
Tb6 Tb 0.01221(3) 0.79171(2) 0.40938(2)
N12 N 0.7950(6) 0.0361(4) 0.4673(4)
N13 N 0.7859(6) 0.0984(4) 0.4688(3)
N14 N 0.7087(7) 0.1128(5) 0.4845(4)
N15 N 0.6673(6) 0.0605(4) 0.4935(4)
C7 C 0.0064(18) 0.0463(9) 0.1936(10)
H19 H 0.057553 0.052574 0.211889
C8 C 0.0346(18) 0.0010(11) 0.1075(10)
H21 H 0.029873 0.044396 0.099593
C47 C 0.7213(7) 0.0141(5) 0.4827(4)
Zn4 Zn 0.86739(8) 0.16135(5) 0.44267(4)
Tb2 Tb 0.51221(3) 0.70829(2) 0.59062(2)
Zn1 Zn 0.13261(8) 0.66135(5) 0.05733(4)
H3 H 0.505(6) 0.4218(10) 0.276(2)
Zn2 Zn 0.85458(7) 0.66111(5) 0.45561(4)
H4 H 0.521(5) 0.357(2) 0.295(2)
Zn3 Zn 0.49441(9) 0.45904(7) 0.23821(6)
O5 O 0.0278(7) 0.8929(4) 0.1442(3)
H5 H 0.648(7) 0.676(5) 0.549(2)
O7 O 0.0188(5) 0.6353(4) 0.0389(3)
O8 O 0.0802(6) 0.7368(4) 0.1473(3)
O9 O 0.1524(6) 0.6521(4) 0.1258(3)
O10 O 0.0828(5) 0.7006(4) 0.3733(3)
O11 O 0.0615(5) 0.7818(4) 0.3266(3)
O12 O 0.4679(8) 0.4326(5) 0.1729(4)
O13 O 0.8967(6) 0.7168(4) 0.1398(3)
O14 O 0.9315(5) 0.7893(4) 0.1908(3)
O15 O 0.9045(5) 0.7374(4) 0.3679(3)
O16 O 0.8335(6) 0.6527(4) 0.3871(3)
O17 O 0.8804(5) 0.8151(4) 0.4451(3)
O18 O 0.8032(5) 0.7380(3) 0.4775(3)
O19 O 0.5102(5) 0.7843(3) 0.5320(3)
O20 O 0.4632(5) 0.8797(4) 0.5282(3)
O21 O 0.6607(5) 0.6965(4) 0.5785(3)
O22 O 0.5009(7) 0.6083(4) 0.6204(4)
O23 O 0.5382(7) 0.6513(6) 0.5183(4)
O24 O 0.4908(7) 0.3788(5) 0.2703(5)
N6 N 0.0147(15) 0.9912(7) 0.1651(8)
N7 N 0.3283(8) 0.5588(7) 0.3191(4)
N8 N 0.3929(9) 0.5179(7) 0.3122(5)
N9 N 0.4021(7) 0.5110(6) 0.2664(4)
N10 N 0.3451(7) 0.5432(5) 0.2415(4)
N11 N 0.5292(13) 0.4565(10) 0.1028(7)
N16 N 0.5141(10) 0.5084(5) 0.6396(4)
N17 N 0.5638(14) 0.6216(10) 0.4411(7)
C5 C 0.0181(17) 0.9376(9) 0.1701(9)
H16 H 0.050123 0.937525 0.246233
H23 H 0.091243 0.986807 0.100480
C18 C 0.1244(7) 0.6898(6) 0.1569(4)
C19 C 0.1487(7) 0.6760(6) 0.2079(4)
C20 C 0.2099(7) 0.6311(6) 0.2173(4)
H27 H 0.235192 0.609741 0.191945
C21 C 0.2343(8) 0.6174(6) 0.2651(4)
C22 C 0.1909(8) 0.6484(6) 0.3024(5)
H28 H 0.203246 0.638634 0.334238
C23 C 0.1308(7) 0.6927(6) 0.2925(4)
C24 C 0.1093(7) 0.7090(6) 0.2451(4)
H29 H 0.070387 0.740558 0.238661
C25 C 0.0894(7) 0.7272(6) 0.3333(4)
C26 C 0.3001(8) 0.5736(6) 0.2739(5)
C27 C 0.5755(18) 0.3878(13) 0.1114(9)
H30 H 0.599720 0.373556 0.081604
H31 H 0.533855 0.358336 0.122369
H32 H 0.619698 0.391893 0.135042
C28 C 0.5591(16) 0.4914(12) 0.0615(7)
H33 H 0.591771 0.526564 0.072259
H34 H 0.511212 0.505664 0.043054
H35 H 0.594278 0.465133 0.041816
C29 C 0.4849(17) 0.4631(12) 0.1344(8)
C30 C 0.4361(17) 0.5330(12) 0.1256(8)
H36 H 0.380369 0.532117 0.139873
H37 H 0.431045 0.540930 0.091724
H38 H 0.469316 0.565358 0.140305
N18 N 0.6057(7) 0.5021(6) 0.2334(5)
N19 N 0.6530(9) 0.4925(8) 0.1950(7)
N20 N 0.7164(9) 0.5310(7) 0.1955(6)
C31 C 0.7061(9) 0.5666(7) 0.2349(5)
N21 N 0.6376(7) 0.5488(6) 0.2585(5)
C32 C 0.7623(8) 0.6168(6) 0.2469(4)
C33 C 0.8030(8) 0.6526(6) 0.2105(5)
H39 H 0.793840 0.642715 0.178368
C34 C 0.8556(7) 0.7015(6) 0.2219(4)
C35 C 0.8736(7) 0.7155(6) 0.2695(4)
H40 H 0.911109 0.747562 0.276933
C36 C 0.8358(7) 0.6817(6) 0.3057(4)
C37 C 0.7801(7) 0.6333(6) 0.2941(4)
H41 H 0.754038 0.611268 0.318884
C38 C 0.8977(7) 0.7389(6) 0.1818(4)
C39 C 0.8596(7) 0.6917(6) 0.3570(4)
C40 C 0.8169(6) 0.7938(5) 0.4665(4)
C41 C 0.7486(7) 0.8410(5) 0.4802(4)
C42 C 0.7641(7) 0.9039(5) 0.4750(4)
H42 H 0.816421 0.917257 0.463188
C43 C 0.7028(7) 0.9472(5) 0.4871(4)
C44 C 0.6236(7) 0.9271(5) 0.5048(4)
H43 H 0.582054 0.955930 0.513364
C45 C 0.6083(7) 0.8637(5) 0.5093(4)
C46 C 0.6713(7) 0.8204(5) 0.4986(4)
H44 H 0.661928 0.778172 0.503806
C48 C 0.5235(7) 0.8410(5) 0.5250(4)
C49 C 0.6069(17) 0.6819(12) 0.4314(9)
H45 H 0.610494 0.688480 0.397322
H46 H 0.663275 0.681124 0.444892
H47 H 0.574869 0.715107 0.445854
C50 C 0.5664(19) 0.5720(13) 0.4020(9)
H48 H 0.550105 0.590182 0.371769
H49 H 0.527668 0.539062 0.410001
H50 H 0.623171 0.555626 0.399474
C51 C 0.5301(16) 0.6135(10) 0.4858(7)
C52 C 0.4798(15) 0.5491(9) 0.4945(8)
H51 H 0.467884 0.544275 0.528160
H52 H 0.514338 0.514897 0.483665
H53 H 0.427299 0.549608 0.476765
C53 C 0.6360(10) 0.5739(8) 0.6511(6)
H54 H 0.641851 0.615683 0.662926
H55 H 0.673483 0.567828 0.624245
H56 H 0.650409 0.545026 0.676238
C54 C 0.5463(11) 0.5632(6) 0.6356(6)
C55 C 0.5600(13) 0.4534(7) 0.6557(7)
H57 H 0.536211 0.417060 0.640725
H58 H 0.555010 0.449693 0.690068
H59 H 0.619003 0.457075 0.647113
C56 C 0.4260(13) 0.4996(9) 0.6240(7)
H60 H 0.399324 0.539494 0.619863
H61 H 0.395565 0.476163 0.647837
H62 H 0.425258 0.477469 0.593970
H63 H 0.696(10) 0.667(5) 0.595(4)
Tb3 Tb 0.98452(3) 0.80123(2) 0.10746(2)
Zn7 Zn 0.35458(7) 0.83889(5) 0.54439(4)
O25 O 0.1190(4) 0.8146(3) 0.0685(3)
O26 O 0.1822(5) 0.7349(3) 0.0304(3)
O27 O 0.5828(5) 0.7994(4) 0.6267(3)
O28 O 0.5615(5) 0.7182(4) 0.6734(3)
O31 O 0.4045(5) 0.7626(4) 0.6321(3)
O32 O 0.3804(5) 0.6849(4) 0.5549(3)
O33 O 0.9632(5) 0.6203(4) 0.4718(3)
N22 N 0.7794(6) 0.5953(4) 0.4847(4)
N23 N 0.2141(6) 0.5984(4) 0.0312(3)
H1 H 0.958(5) 0.830(2) 0.051(3)
H2 H 0.921(3) 0.886(4) 0.027(4)
O3 O 0.8514(6) 0.8487(5) 0.1066(4)
O4 O 0.9725(6) 0.8679(4) 0.0364(3)
O6 O 0.9658(5) 0.7295(3) 0.0462(3)
N3 N 0.7736(7) 0.3987(5) 0.0224(5)
N4 N 0.8058(8) 0.4549(5) 0.0314(5)
N5 N 0.7296(10) 0.8994(10) 0.1003(6)
C1 C 0.7925(15) 0.9609(12) 0.1135(8)
H6 H 0.765706 0.985716 0.137954
H7 H 0.800914 0.985570 0.085148
H8 H 0.846540 0.946190 0.125062
C2 C 0.6416(12) 0.9117(12) 0.0932(7)
H9 H 0.609760 0.873910 0.097582
H10 H 0.632705 0.927160 0.061230
H11 H 0.622855 0.942162 0.116170
C3 C 0.7756(11) 0.8557(11) 0.1019(6)
C4 C 0.7183(13) 0.7981(12) 0.0917(7)
H12 H 0.679427 0.807533 0.066023
H13 H 0.686700 0.787697 0.120169
H14 H 0.753401 0.763399 0.082592
C6 C 0.9990(17) 0.9292(12) 0.2284(8)
H15 H 0.955271 0.957884 0.238068
H17 H 0.980469 0.887389 0.234642
H22 H 0.994295 0.977623 0.088831
C10 C 0.7696(7) 0.4942(5) 0.0000(4)
C11 C 0.9588(7) 0.6734(5) 0.0362(4)
C15 C 0.8611(7) 0.5845(5) 0.0175(4)
H25 H 0.901851 0.557582 0.030109
C16 C 0.8748(7) 0.6489(5) 0.0171(4)
H26 H 0.822582 0.731036 0.000961
O1 O 0.6190(4) 0.6854(3) 0.9315(3)
O2 O 0.6822(5) 0.7651(3) 0.9696(3)
N1 N 0.7155(6) 0.4640(4) 0.9716(4)
N2 N 0.7206(6) 0.4047(4) 0.9847(4)
C9 C 0.6739(6) 0.7085(5) 0.9582(4)
C10_2 C 0.7696(7) 0.4942(5) 1.0000(4)
C12 C 0.7395(7) 0.6658(5) 0.9791(4)
C13 C 0.7257(7) 0.6014(5) 0.9795(4)
H24 H 0.675605 0.585433 0.966611
C14 C 0.7852(7) 0.5615(5) 0.9988(4)
C17 C 0.8138(7) 0.6883(5) 0.9994(4)
Tb4 Tb 0.48452(3) 0.69877(2) 0.89254(2)
Zn5 Zn 0.63261(8) 0.83865(5) 0.94267(4)
Zn6 Zn 0.64542(7) 0.33889(5) 0.95561(4)
Tb4_2 Tb 0.01548(3) 0.30123(2) 0.39254(2)
O20_2 O 0.0368(5) 0.1203(4) 0.0282(3)
H51_2 H 0.032116 0.455725 0.028160
C56_2 C 0.0740(13) 0.5004(9) 0.1240(7)
H60_2 H 0.100676 0.460506 0.119863
H61_2 H 0.104435 0.523837 0.147837
H62_2 H 0.074742 0.522531 0.093970
Zn7_2 Zn 0.14542(7) 0.16111(5) 0.04439(4)
O31_2 O 0.0955(5) 0.2374(4) 0.1321(3)
O32_2 O 0.1196(5) 0.3151(4) 0.0549(3)
Tb1 Tb 0.51548(3) 0.19877(2) 0.60746(2)
H1_2 H 0.542(5) 0.170(2) 0.551(3)
H2_2 H 0.579(3) 0.114(4) 0.527(4)
Zn1_2 Zn 0.36739(8) 0.33865(5) 0.55733(4)
Zn3_2 Zn 0.00559(9) 0.54096(7) 0.73821(6)
O1_2 O 0.8810(4) 0.3146(3) 0.4315(3)
O2_2 O 0.8178(5) 0.2349(3) 0.4696(3)
O3_2 O 0.6486(6) 0.1513(5) 0.6066(4)
O4_2 O 0.5275(6) 0.1321(4) 0.5364(3)
O5_2 O 0.4722(7) 0.1071(4) 0.6442(3)
O6_2 O 0.5342(5) 0.2705(3) 0.5462(3)
O7_2 O 0.4812(5) 0.3647(4) 0.5389(3)
O8_2 O 0.4198(6) 0.2632(4) 0.6473(3)
O9_2 O 0.3476(6) 0.3479(4) 0.6258(3)
O10_2 O 0.4172(5) 0.2994(4) 0.8733(3)
O11_2 O 0.4385(5) 0.2182(4) 0.8266(3)
O12_2 O 0.0321(8) 0.5674(5) 0.6729(4)
O24_2 O 0.0092(7) 0.6212(5) 0.7703(5)
N1_2 N 0.7845(6) 0.5360(4) 0.4716(4)
N3_2 N 0.7264(7) 0.6013(5) 0.5224(5)
N4_2 N 0.6942(8) 0.5451(5) 0.5314(5)
N5_2 N 0.7704(10) 0.1006(10) 0.6003(6)
N6_2 N 0.4853(15) 0.0088(7) 0.6651(8)
N7_2 N 0.1717(8) 0.4412(7) 0.8191(4)
N8_2 N 0.1071(9) 0.4821(7) 0.8122(5)
N9_2 N 0.0979(7) 0.4890(6) 0.7664(4)
N10_2 N 0.1549(7) 0.4568(5) 0.7415(4)
C1_2 C 0.7075(15) 0.0391(12) 0.6135(8)
H6_2 H 0.734294 0.014284 0.637954
H7_2 H 0.699086 0.014430 0.585148
H8_2 H 0.653460 0.053810 0.625062
C2_2 C 0.8584(12) 0.0883(12) 0.5932(7)
H9_2 H 0.890240 0.126090 0.597582
H10_2 H 0.867295 0.072840 0.561230
H11_2 H 0.877145 0.057838 0.616170
C3_2 C 0.7244(11) 0.1443(11) 0.6019(6)
C4_2 C 0.7817(13) 0.2019(12) 0.5917(7)
H12_2 H 0.820573 0.192467 0.566023
H13_2 H 0.813300 0.212303 0.620169
H14_2 H 0.746599 0.236601 0.582592
C5_2 C 0.4819(17) 0.0624(9) 0.6701(9)
C6_2 C 0.5010(17) 0.0708(12) 0.7284(8)
H15_2 H 0.544729 0.042116 0.738068
H16_2 H 0.449877 0.062475 0.746233
H17_2 H 0.519531 0.112611 0.734642
H22_2 H 0.505705 0.022377 0.588831
H23_2 H 0.408757 0.013193 0.600480
C9_2 C 0.8261(6) 0.2915(5) 0.4582(4)
C10_3 C 0.7304(7) 0.5058(5) 0.5000(4)
C11_2 C 0.5412(7) 0.3266(5) 0.5362(4)
C12_2 C 0.7605(7) 0.3342(5) 0.4791(4)
C13_2 C 0.7743(7) 0.3986(5) 0.4795(4)
H24_2 H 0.824395 0.414567 0.466611
C14_2 C 0.7148(7) 0.4385(5) 0.4988(4)
C15_2 C 0.6389(7) 0.4155(5) 0.5175(4)
H25_2 H 0.598149 0.442418 0.530109
C16_2 C 0.6252(7) 0.3511(5) 0.5171(4)
C17_2 C 0.6862(7) 0.3117(5) 0.4994(4)
H26_2 H 0.677418 0.268964 0.500961
C18_2 C 0.3756(7) 0.3102(6) 0.6569(4)
C19_2 C 0.3513(7) 0.3240(6) 0.7079(4)
C20_2 C 0.2901(7) 0.3689(6) 0.7173(4)
H27_2 H 0.264808 0.390259 0.691945
C21_2 C 0.2657(8) 0.3826(6) 0.7651(4)
C22_2 C 0.3091(8) 0.3516(6) 0.8024(5)
H28_2 H 0.296754 0.361366 0.834238
C23_2 C 0.3692(7) 0.3073(6) 0.7925(4)
C24_2 C 0.3907(7) 0.2910(6) 0.7451(4)
H29_2 H 0.429613 0.259442 0.738661
C25_2 C 0.4106(7) 0.2728(6) 0.8333(4)
C26_2 C 0.1999(8) 0.4264(6) 0.7739(5)
C29_2 C 0.0151(17) 0.5369(12) 0.6344(8)
C30_2 C 0.0639(17) 0.4670(12) 0.6256(8)
H36_2 H 0.119631 0.467883 0.639873
H37_2 H 0.068955 0.459070 0.591724
H38_2 H 0.030684 0.434642 0.640305
C52_2 C 0.0202(15) 0.4509(9) 0.9945(8)
H53_2 H 0.072701 0.450392 0.976765
Tb5 Tb 0.48779(3) 0.20829(2) 0.90938(2)
O25_2 O 0.3810(4) 0.1854(3) 0.5685(3)
O26_2 O 0.3178(5) 0.2651(3) 0.5304(3)
O29 O 0.6033(6) 0.2832(4) 0.6398(3)
O30 O 0.5685(5) 0.2107(4) 0.6908(3)
N23_2 N 0.2859(6) 0.4016(4) 0.5312(3)
Tb2_2 Tb 0.98779(3) 0.29171(2) 0.09062(2)
H5_2 H 0.852(7) 0.324(5) 0.049(2)
O19_2 O 0.9898(5) 0.2157(3) 0.0320(3)
O21_2 O 0.8393(5) 0.3035(4) 0.0785(3)
O22_2 O 0.9991(7) 0.3917(4) 0.1204(4)
O23_2 O 0.9618(7) 0.3487(6) 0.0183(4)
N16_2 N 0.9859(10) 0.4916(5) 0.1396(4)
C44_2 C 0.8764(7) 0.0729(5) 0.0048(4)
H43_2 H 0.917946 0.044070 0.013364
C45_2 C 0.8917(7) 0.1363(5) 0.0093(4)
H44_2 H 0.838072 0.221828 0.003806
C48_2 C 0.9765(7) 0.1590(5) 0.0250(4)
C53_2 C 0.8640(10) 0.4261(8) 0.1511(6)
H54_2 H 0.858149 0.384317 0.162926
H55_2 H 0.826517 0.432172 0.124245
H56_2 H 0.849591 0.454974 0.176238
C54_2 C 0.9537(11) 0.4368(6) 0.1356(6)
C55_2 C 0.9400(13) 0.5466(7) 0.1557(7)
H57_2 H 0.963789 0.582940 0.140725
H58_2 H 0.944990 0.550307 0.190068
H59_2 H 0.880997 0.542925 0.147113
H63_2 H 0.804(10) 0.333(5) 0.095(4)
O27_2 O 0.9172(5) 0.2006(4) 0.1267(3)
O28_2 O 0.9385(5) 0.2818(4) 0.1734(3)
H3_2 H 0.995(6) 0.5782(10) 0.776(2)
H4_2 H 0.979(5) 0.643(2) 0.795(2)
O15_2 O 0.5955(5) 0.2626(4) 0.8679(3)
O16_2 O 0.6665(6) 0.3473(4) 0.8871(3)
O17_2 O 0.6196(5) 0.1849(4) 0.9451(3)
O18_2 O 0.6968(5) 0.2620(3) 0.9775(3)
N11_2 N 0.9708(13) 0.5435(10) 0.6028(7)
N17_2 N 0.9362(14) 0.3784(10) 0.9411(7)
C27_2 C 0.9245(18) 0.6122(13) 0.6114(9)
H30_2 H 0.900280 0.626444 0.581604
H31_2 H 0.966145 0.641664 0.622369
H32_2 H 0.880302 0.608107 0.635042
C28_2 C 0.9409(16) 0.5086(12) 0.5615(7)
H33_2 H 0.908229 0.473436 0.572259
H34_2 H 0.988788 0.494336 0.543054
H35_2 H 0.905722 0.534867 0.541816
N18_2 N 0.8943(7) 0.4979(6) 0.7334(5)
N19_2 N 0.8470(9) 0.5075(8) 0.6950(7)
N20_2 N 0.7836(9) 0.4690(7) 0.6955(6)
C31_2 C 0.7939(9) 0.4334(7) 0.7349(5)
N21_2 N 0.8624(7) 0.4512(6) 0.7585(5)
C32_2 C 0.7377(8) 0.3832(6) 0.7469(4)
C33_2 C 0.6970(8) 0.3474(6) 0.7105(5)
H39_2 H 0.706160 0.357285 0.678368
C34_2 C 0.6444(7) 0.2985(6) 0.7219(4)
C35_2 C 0.6264(7) 0.2845(6) 0.7695(4)
H40_2 H 0.588891 0.252438 0.776933
C36_2 C 0.6642(7) 0.3183(6) 0.8057(4)
C37_2 C 0.7199(7) 0.3667(6) 0.7941(4)
H41_2 H 0.745962 0.388732 0.818884
C38_2 C 0.6023(7) 0.2611(6) 0.6818(4)
C39_2 C 0.6404(7) 0.3083(6) 0.8570(4)
C40_2 C 0.6831(6) 0.2062(5) 0.9665(4)
C41_2 C 0.7514(7) 0.1590(5) 0.9802(4)
C42_2 C 0.7359(7) 0.0961(5) 0.9750(4)
H42_2 H 0.683579 0.082743 0.963188
C43_2 C 0.7972(7) 0.0528(5) 0.9871(4)
C46_2 C 0.8287(7) 0.1796(5) 0.9986(4)
C49_2 C 0.8931(17) 0.3181(12) 0.9314(9)
H45_2 H 0.889506 0.311520 0.897322
H46_2 H 0.836725 0.318876 0.944892
H47_2 H 0.925131 0.284893 0.945854
C50_2 C 0.9336(19) 0.4280(13) 0.9020(9)
H48_2 H 0.949895 0.409818 0.871769
H49_2 H 0.972332 0.460938 0.910001
H50_2 H 0.876829 0.444374 0.899474
C51_2 C 0.9699(16) 0.3865(10) 0.9858(7)
H52_2 H 0.985662 0.485103 0.983665
O33_2 O 0.5368(5) 0.3797(4) 0.9718(3)
N12_2 N 0.7050(6) 0.9639(4) 0.9673(4)
N13_2 N 0.7141(6) 0.9016(4) 0.9688(3)
N14_2 N 0.7913(7) 0.8872(5) 0.9845(4)
N15_2 N 0.8327(6) 0.9395(4) 0.9935(4)
C47_2 C 0.7787(7) 0.9859(5) 0.9827(4)
H1_3 H 0.042(5) 0.330(2) 0.449(3)
H2_3 H 0.079(3) 0.386(4) 0.473(4)
O3_3 O 0.1486(6) 0.3487(5) 0.3934(4)
O4_3 O 0.0275(6) 0.3679(4) 0.4636(3)
O6_3 O 0.0342(5) 0.2295(3) 0.4538(3)
N5_3 N 0.2704(10) 0.3994(10) 0.3997(6)
C1_3 C 0.2075(15) 0.4609(12) 0.3865(8)
H6_3 H 0.234294 0.485716 0.362046
H7_3 H 0.199086 0.485570 0.414852
H8_3 H 0.153460 0.446190 0.374938
C2_3 C 0.3584(12) 0.4117(12) 0.4068(7)
H9_3 H 0.390240 0.373910 0.402418
H10_3 H 0.367295 0.427160 0.438770
H11_3 H 0.377145 0.442162 0.383830
C3_3 C 0.2244(11) 0.3557(11) 0.3981(6)
C4_3 C 0.2817(13) 0.2981(12) 0.4083(7)
H12_3 H 0.320573 0.307533 0.433977
H13_3 H 0.313300 0.287697 0.379831
H14_3 H 0.246599 0.263399 0.417408
C6_3 C 0.0010(17) 0.4292(12) 0.2716(8)
H15_3 H 0.044729 0.457884 0.261932
H17_3 H 0.019531 0.387389 0.265358
H18 H 0.002950 0.581469 0.327064
H20 H 0.041103 0.541832 0.284866
H22_3 H 0.005705 0.477623 0.411169
C9_3 C 0.3261(6) 0.2085(5) 0.5418(4)
C11_3 C 0.0412(7) 0.1734(5) 0.4638(4)
C12_3 C 0.2605(7) 0.1658(5) 0.5209(4)
C13_3 C 0.2743(7) 0.1014(5) 0.5205(4)
H24_3 H 0.324395 0.085433 0.533389
C14_3 C 0.2148(7) 0.0615(5) 0.5012(4)
C15_3 C 0.1389(7) 0.0845(5) 0.4825(4)
H25_3 H 0.098149 0.057582 0.469891
C16_3 C 0.1252(7) 0.1489(5) 0.4829(4)
C17_3 C 0.1862(7) 0.1883(5) 0.5006(4)
H26_3 H 0.177418 0.231036 0.499039
O29_2 O 0.1033(6) 0.2168(4) 0.3602(3)
O30_2 O 0.0685(5) 0.2893(4) 0.3092(3)
N1_3 N 0.2845(6) 0.9640(4) 0.5284(4)
N2_2 N 0.2794(6) 0.9047(4) 0.5153(4)
N3_3 N 0.2264(7) 0.8987(5) 0.4776(5)
N4_3 N 0.1942(8) 0.9549(5) 0.4686(5)
C10_4 C 0.2304(7) 0.9942(5) 0.5000(4)
O5_3 O 0.9722(7) 0.3929(4) 0.3558(3)
O7_3 O 0.9812(5) 0.1353(4) 0.4611(3)
O8_3 O 0.9198(6) 0.2368(4) 0.3527(3)
O9_3 O 0.8476(6) 0.1521(4) 0.3742(3)
O16_3 O 0.1665(6) 0.1527(4) 0.1129(3)
O18_3 O 0.1968(5) 0.2380(3) 0.0225(3)
N6_3 N 0.9853(15) 0.4912(7) 0.3349(8)
N7_3 N 0.6717(8) 0.0588(7) 0.1809(4)
N8_3 N 0.6071(9) 0.0179(7) 0.1878(5)
N9_3 N 0.5979(7) 0.0110(6) 0.2336(4)
N10_3 N 0.6549(7) 0.0432(5) 0.2585(4)
N12_3 N 0.2050(6) 0.5361(4) 0.0327(4)
N14_3 N 0.2913(7) 0.6128(5) 0.0155(4)
N15_3 N 0.3327(6) 0.5605(4) 0.0065(4)
N17_3 N 0.4362(14) 0.1216(10) 0.0589(7)
C5_3 C 0.9819(17) 0.4376(9) 0.3299(9)
H16_3 H 0.949877 0.437525 0.253767
C7_2 C 0.9936(18) 0.5463(9) 0.3064(10)
H19_2 H 0.942447 0.552574 0.288111
C8_2 C 0.9654(18) 0.5010(11) 0.3925(10)
H21_2 H 0.970127 0.544396 0.400407
H23_3 H 0.908757 0.486807 0.399520
C18_3 C 0.8756(7) 0.1898(6) 0.3431(4)
C19_3 C 0.8513(7) 0.1760(6) 0.2921(4)
C20_3 C 0.7901(7) 0.1311(6) 0.2827(4)
H27_3 H 0.764808 0.109741 0.308055
C21_3 C 0.7657(8) 0.1174(6) 0.2349(4)
C22_3 C 0.8091(8) 0.1484(6) 0.1976(5)
H28_3 H 0.796754 0.138634 0.165762
C23_3 C 0.8692(7) 0.1927(6) 0.2075(4)
C24_3 C 0.8907(7) 0.2090(6) 0.2549(4)
H29_3 H 0.929613 0.240558 0.261339
C25_3 C 0.9106(7) 0.2272(6) 0.1667(4)
C26_3 C 0.6999(8) 0.0736(6) 0.2261(5)
H33_3 H 0.408229 0.026564 0.427741
H34_3 H 0.488788 0.005664 0.456946
C30_3 C 0.5639(17) 0.0330(12) 0.3744(8)
H36_3 H 0.619631 0.032117 0.360127
H37_3 H 0.568955 0.040930 0.408276
H38_3 H 0.530684 0.065358 0.359695
N18_3 N 0.3943(7) 0.0021(6) 0.2666(5)
N20_3 N 0.2836(9) 0.0310(7) 0.3045(6)
C31_3 C 0.2939(9) 0.0666(7) 0.2651(5)
N21_3 N 0.3624(7) 0.0488(6) 0.2415(5)
C32_3 C 0.2377(8) 0.1168(6) 0.2531(4)
C33_3 C 0.1970(8) 0.1526(6) 0.2895(5)
H39_3 H 0.206160 0.142715 0.321632
C34_3 C 0.1444(7) 0.2015(6) 0.2781(4)
C35_3 C 0.1264(7) 0.2155(6) 0.2305(4)
H40_3 H 0.088891 0.247562 0.223067
C36_3 C 0.1642(7) 0.1817(6) 0.1943(4)
C37_3 C 0.2199(7) 0.1333(6) 0.2059(4)
H41_3 H 0.245962 0.111268 0.181116
C38_3 C 0.1023(7) 0.2389(6) 0.3182(4)
C39_3 C 0.1404(7) 0.1917(6) 0.1430(4)
C40_3 C 0.1831(6) 0.2938(5) 0.0335(4)
C41_3 C 0.2514(7) 0.3410(5) 0.0198(4)
C42_3 C 0.2359(7) 0.4039(5) 0.0250(4)
H42_3 H 0.183579 0.417257 0.036812
C43_3 C 0.2972(7) 0.4472(5) 0.0129(4)
C46_3 C 0.3287(7) 0.3204(5) 0.0014(4)
C47_3 C 0.2787(7) 0.5141(5) 0.0173(4)
C49_3 C 0.3931(17) 0.1819(12) 0.0686(9)
H45_3 H 0.389506 0.188480 0.102678
H46_3 H 0.336725 0.181124 0.055108
H47_3 H 0.425131 0.215107 0.054146
C50_3 C 0.4336(19) 0.0720(13) 0.0980(9)
H48_3 H 0.449895 0.090182 0.128231
H49_3 H 0.472332 0.039062 0.089999
H50_3 H 0.376829 0.055626 0.100526
C51_3 C 0.4699(16) 0.1135(10) 0.0142(7)
C52_3 C 0.5202(15) 0.0491(9) 0.0055(8)
H52_3 H 0.485662 0.014897 0.016335
H53_3 H 0.572701 0.049608 0.023235
N22_2 N 0.2206(6) 0.0953(4) 0.0153(4)
H5_3 H 0.352(7) 0.176(5) 0.951(2)
O19_3 O 0.4898(5) 0.2843(3) 0.9680(3)
O21_3 O 0.3393(5) 0.1965(4) 0.9215(3)
O22_3 O 0.4991(7) 0.1083(4) 0.8796(4)
O23_3 O 0.4618(7) 0.1513(6) 0.9817(4)
N16_3 N 0.4859(10) 0.0084(5) 0.8604(4)
C44_3 C 0.3764(7) 0.4271(5) 0.9952(4)
H43_3 H 0.417946 0.455930 0.986636
C45_3 C 0.3917(7) 0.3637(5) 0.9907(4)
H44_3 H 0.338072 0.278172 0.996194
C48_3 C 0.4765(7) 0.3410(5) 0.9750(4)
H51_3 H 0.532116 0.044275 0.971840
C53_3 C 0.3640(10) 0.0739(8) 0.8489(6)
H54_3 H 0.358149 0.115683 0.837074
H55_3 H 0.326517 0.067828 0.875755
H56_3 H 0.349591 0.045026 0.823762
C54_3 C 0.4537(11) 0.0632(6) 0.8644(6)
H60_3 H 0.600676 0.039494 0.880137
H63_3 H 0.304(10) 0.167(5) 0.905(4)
H5_4 H 0.148(7) 0.824(5) 0.451(2)
O13_2 O 0.3967(6) 0.7832(4) 0.8602(3)
O14_2 O 0.4315(5) 0.7107(4) 0.8092(3)
O16_4 O 0.3335(6) 0.8473(4) 0.6129(3)
O18_4 O 0.3032(5) 0.7620(3) 0.5225(3)
O19_4 O 0.0102(5) 0.7157(3) 0.4680(3)
O21_4 O 0.1607(5) 0.8035(4) 0.4215(3)
O22_4 O 0.0009(7) 0.8917(4) 0.3796(4)
O23_4 O 0.0382(7) 0.8487(6) 0.4817(4)
N12_4 N 0.2950(6) 0.4639(4) 0.5327(4)
N14_4 N 0.2087(7) 0.3872(5) 0.5155(4)
N15_4 N 0.1673(6) 0.4395(4) 0.5065(4)
N16_4 N 0.0141(10) 0.9916(5) 0.3604(4)
N17_4 N 0.0638(14) 0.8784(10) 0.5589(7)
H33_4 H 0.091771 0.973436 0.927741
H34_4 H 0.011212 0.994336 0.956946
N18_4 N 0.1057(7) 0.9979(6) 0.7666(5)
N20_4 N 0.2164(9) 0.9690(7) 0.8045(6)
C31_4 C 0.2061(9) 0.9334(7) 0.7651(5)
N21_4 N 0.1376(7) 0.9512(6) 0.7415(5)
C32_4 C 0.2623(8) 0.8832(6) 0.7531(4)
C33_4 C 0.3030(8) 0.8474(6) 0.7895(5)
H39_4 H 0.293840 0.857285 0.821632
C34_4 C 0.3556(7) 0.7985(6) 0.7781(4)
C35_4 C 0.3736(7) 0.7845(6) 0.7305(4)
H40_4 H 0.411109 0.752438 0.723067
C36_4 C 0.3358(7) 0.8183(6) 0.6943(4)
C37_4 C 0.2801(7) 0.8667(6) 0.7059(4)
H41_4 H 0.254038 0.888732 0.681116
C38_4 C 0.3977(7) 0.7611(6) 0.8182(4)
C39_4 C 0.3596(7) 0.8083(6) 0.6430(4)
C40_4 C 0.3169(6) 0.7062(5) 0.5335(4)
C41_4 C 0.2486(7) 0.6590(5) 0.5198(4)
C42_4 C 0.2641(7) 0.5961(5) 0.5250(4)
H42_4 H 0.316421 0.582743 0.536812
C43_4 C 0.2028(7) 0.5528(5) 0.5129(4)
C44_4 C 0.1236(7) 0.5729(5) 0.4952(4)
H43_4 H 0.082054 0.544070 0.486636
C45_4 C 0.1083(7) 0.6363(5) 0.4907(4)
C46_4 C 0.1713(7) 0.6796(5) 0.5014(4)
H44_4 H 0.161928 0.721828 0.496194
C47_4 C 0.2213(7) 0.4859(5) 0.5173(4)
C48_4 C 0.0235(7) 0.6590(5) 0.4750(4)
C49_4 C 0.1069(17) 0.8181(12) 0.5686(9)
H45_4 H 0.110494 0.811520 0.602678
H46_4 H 0.163275 0.818876 0.555108
H47_4 H 0.074869 0.784893 0.554146
C50_4 C 0.0664(19) 0.9280(13) 0.5980(9)
H48_4 H 0.050105 0.909818 0.628231
H49_4 H 0.027668 0.960938 0.589999
H50_4 H 0.123171 0.944374 0.600526
C51_4 C 0.0301(16) 0.8865(10) 0.5142(7)
H52_4 H 0.014338 0.985103 0.516335
C53_4 C 0.1360(10) 0.9261(8) 0.3489(6)
H54_4 H 0.141851 0.884317 0.337074
H55_4 H 0.173483 0.932172 0.375755
H56_4 H 0.150409 0.954974 0.323762
C54_4 C 0.0463(11) 0.9368(6) 0.3644(6)
H63_4 H 0.196(10) 0.833(5) 0.405(4)
N1_4 N 0.2155(6) 0.0360(4) 0.0284(4)
C10_5 C 0.2696(7) 0.0058(5) 0.0000(4)
C9_4 C 0.1739(6) 0.7915(5) 0.0418(4)
C12_4 C 0.2395(7) 0.8342(5) 0.0209(4)
C13_4 C 0.2257(7) 0.8986(5) 0.0205(4)
H24_4 H 0.175605 0.914567 0.033389
C14_4 C 0.2852(7) 0.9385(5) 0.0012(4)
C17_4 C 0.3138(7) 0.8117(5) 0.0006(4)
H1_4 H 0.458(5) 0.670(2) 0.949(3)
H2_4 H 0.421(3) 0.614(4) 0.973(4)
O3_4 O 0.3514(6) 0.6513(5) 0.8934(4)
O4_4 O 0.4725(6) 0.6321(4) 0.9636(3)
O5_4 O 0.5278(7) 0.6071(4) 0.8558(3)
O6_4 O 0.4658(5) 0.7705(3) 0.9538(3)
O7_4 O 0.5188(5) 0.8647(4) 0.9611(3)
O8_4 O 0.5802(6) 0.7632(4) 0.8527(3)
O9_4 O 0.6524(6) 0.8479(4) 0.8742(3)
N5_4 N 0.2296(10) 0.6006(10) 0.8997(6)
N6_4 N 0.5147(15) 0.5088(7) 0.8349(8)
N7_4 N 0.8283(8) 0.9412(7) 0.6809(4)
N8_4 N 0.8929(9) 0.9821(7) 0.6878(5)
N9_4 N 0.9021(7) 0.9890(6) 0.7336(4)
N10_4 N 0.8451(7) 0.9568(5) 0.7585(4)
C1_4 C 0.2925(15) 0.5391(12) 0.8865(8)
H6_4 H 0.265706 0.514284 0.862046
H7_4 H 0.300914 0.514430 0.914852
H8_4 H 0.346540 0.553810 0.874938
C2_4 C 0.1416(12) 0.5883(12) 0.9068(7)
H9_4 H 0.109760 0.626090 0.902418
H10_4 H 0.132705 0.572840 0.938770
H11_4 H 0.122855 0.557838 0.883830
C3_4 C 0.2756(11) 0.6443(11) 0.8981(6)
C4_4 C 0.2183(13) 0.7019(12) 0.9083(7)
H12_4 H 0.179427 0.692467 0.933977
H13_4 H 0.186700 0.712303 0.879831
H14_4 H 0.253401 0.736601 0.917408
C5_4 C 0.5181(17) 0.5624(9) 0.8299(9)
C6_4 C 0.4990(17) 0.5708(12) 0.7716(8)
H15_4 H 0.455271 0.542116 0.761932
H16_4 H 0.550123 0.562475 0.753767
H17_4 H 0.480469 0.612611 0.765358
C7_3 C 0.5064(18) 0.4537(9) 0.8064(10)
H18_2 H 0.497050 0.418531 0.827064
H19_3 H 0.557553 0.447426 0.788111
H20_2 H 0.458897 0.458168 0.784866
C8_3 C 0.5346(18) 0.4990(11) 0.8925(10)
H21_3 H 0.529873 0.455604 0.900407
H22_4 H 0.494295 0.522377 0.911169
H23_4 H 0.591243 0.513193 0.899520
C11_4 C 0.4588(7) 0.8266(5) 0.9638(4)
C15_4 C 0.3611(7) 0.9155(5) 0.9825(4)
H25_4 H 0.401851 0.942418 0.969891
C16_4 C 0.3748(7) 0.8511(5) 0.9829(4)
H26_4 H 0.322582 0.768964 0.999039
C18_4 C 0.6244(7) 0.8102(6) 0.8431(4)
C19_4 C 0.6487(7) 0.8240(6) 0.7921(4)
C20_4 C 0.7099(7) 0.8689(6) 0.7827(4)
H27_4 H 0.735192 0.890259 0.808055
C21_4 C 0.7343(8) 0.8826(6) 0.7349(4)
C22_4 C 0.6909(8) 0.8516(6) 0.6976(5)
H28_4 H 0.703246 0.861366 0.665762
C23_4 C 0.6308(7) 0.8073(6) 0.7075(4)
C24_4 C 0.6093(7) 0.7910(6) 0.7549(4)
H29_4 H 0.570387 0.759442 0.761339
C25_4 C 0.5894(7) 0.7728(6) 0.6667(4)
C26_4 C 0.8001(8) 0.9264(6) 0.7261(5)
C30_4 C 0.9361(17) 0.9670(12) 0.8744(8)
H36_4 H 0.880369 0.967883 0.860127
H37_4 H 0.931045 0.959070 0.908276
H38_4 H 0.969316 0.934642 0.859695
C52_4 C 0.9798(15) 0.9509(9) 0.5055(8)
H51_4 H 0.967884 0.955725 0.471840
H53_4 H 0.927299 0.950392 0.523235
H60_4 H 0.899324 0.960506 0.380137
H18_3 H 0.997050 0.081469 0.172936
H20_3 H 0.958897 0.041832 0.215134
C7_4 C 0.4936(18) 0.9537(9) 0.6936(10)
H18_4 H 0.502950 0.918531 0.672936
H19_4 H 0.442447 0.947426 0.711889
H20_4 H 0.541103 0.958168 0.715134
C8_4 C 0.4654(18) 0.9990(11) 0.6075(10)
H21_4 H 0.470127 0.955604 0.599593
H3_3 H 0.495(6) 0.9218(10) 0.224(2)
H4_3 H 0.479(5) 0.857(2) 0.205(2)
Zn3_3 Zn 0.50559(9) 0.95904(7) 0.26179(6)
O12_3 O 0.5321(8) 0.9326(5) 0.3271(4)
O24_3 O 0.5092(7) 0.8788(5) 0.2297(5)
N11_3 N 0.4708(13) 0.9565(10) 0.3972(7)
C27_3 C 0.4245(18) 0.8878(13) 0.3886(9)
H30_3 H 0.400280 0.873556 0.418396
H31_3 H 0.466145 0.858336 0.377631
H32_3 H 0.380302 0.891893 0.364958
C28_3 C 0.4409(16) 0.9914(12) 0.4385(7)
H35_3 H 0.405722 0.965133 0.458184
C29_3 C 0.5151(17) 0.9631(12) 0.3656(8)
N19_3 N 0.3470(9) 0.9925(8) 0.3050(7)
C55_3 C 0.4400(13) 0.9534(7) 0.8443(7)
H57_3 H 0.463789 0.917060 0.859275
H58_3 H 0.444990 0.949693 0.809932
H59_3 H 0.380997 0.957075 0.852887
C56_3 C 0.5740(13) 0.9996(9) 0.8760(7)
H61_3 H 0.604435 0.976163 0.852163
H62_3 H 0.574742 0.977469 0.906030
H3_4 H 0.005(6) 0.0782(10) 0.724(2)
H4_4 H 0.021(5) 0.143(2) 0.705(2)
N11_4 N 0.0292(13) 0.0435(10) 0.8972(7)
C27_4 C 0.0755(18) 0.1122(13) 0.8886(9)
H30_4 H 0.099720 0.126444 0.918396
H31_4 H 0.033855 0.141664 0.877631
H32_4 H 0.119698 0.108107 0.864958
C28_4 C 0.0591(16) 0.0086(12) 0.9385(7)
H35_4 H 0.094278 0.034867 0.958184
N19_4 N 0.1530(9) 0.0075(8) 0.8050(7)
C55_4 C 0.0600(13) 0.0466(7) 0.3443(7)
H57_4 H 0.036211 0.082940 0.359275
H58_4 H 0.055010 0.050307 0.309932
H59_4 H 0.119003 0.042925 0.352887
Zn3_4 Zn 0.99441(9) 0.04096(7) 0.76179(6)
O12_4 O 0.9679(8) 0.0674(5) 0.8271(4)
O24_4 O 0.9908(7) 0.1212(5) 0.7297(5)
N3_4 N 0.2736(7) 0.1013(5) 0.9776(5)
N4_4 N 0.3058(8) 0.0451(5) 0.9686(5)
C10_6 C 0.2696(7) 0.0058(5) 1.0000(4)
C29_4 C 0.9849(17) 0.0369(12) 0.8656(8)
C56_4 C 0.9260(13) 0.0004(9) 0.3760(7)
H61_4 H 0.895565 0.023837 0.352163
H62_4 H 0.925258 0.022531 0.406030
loop_
_geom_bond_atom_site_label_1
_geom_bond_atom_site_label_2
_geom_bond_site_symmetry_1
_geom_bond_site_symmetry_2
N12 N13 1_555 1_555
N13 N14 1_555 1_555
N14 N15 1_555 1_555
N15 C47 1_555 1_555
H19 C7 1_555 1_555
H21 C8 1_555 1_555
C47 N12 1_555 1_555
Zn4 N13 1_555 1_555
Tb2 O19 1_555 1_555
Zn1 O7 1_555 1_555
H3 O24 1_555 1_555
Zn2 O16 1_555 1_555
H4 O24 1_555 1_555
Zn3 O12 1_555 1_555
H5 O21 1_555 1_555
O9 Zn1 1_555 1_555
O10 C25 1_555 1_555
O11 C25 1_555 1_555
O12 C29 1_555 1_555
O13 C38 1_555 1_555
O14 C38 1_555 1_555
O15 C39 1_555 1_555
O16 C39 1_555 1_555
O17 C40 1_555 1_555
O18 Zn2 1_555 1_555
O19 C48 1_555 1_555
O20 C48 1_555 1_555
O21 Tb2 1_555 1_555
O22 Tb2 1_555 1_555
O23 Tb2 1_555 1_555
O24 Zn3 1_555 1_555
N6 C5 1_555 1_555
N7 N8 1_555 1_555
N8 N9 1_555 1_555
N9 Zn3 1_555 1_555
N10 N9 1_555 1_555
N11 C27 1_555 1_555
N16 C54 1_555 1_555
N17 C49 1_555 1_555
C5 O5 1_555 1_555
C18 O8 1_555 1_555
C19 C18 1_555 1_555
C20 C19 1_555 1_555
H27 C20 1_555 1_555
C21 C20 1_555 1_555
C22 C21 1_555 1_555
H28 C22 1_555 1_555
C23 C22 1_555 1_555
C24 C19 1_555 1_555
H29 C24 1_555 1_555
C25 C23 1_555 1_555
C26 N7 1_555 1_555
C27 H30 1_555 1_555
H31 C27 1_555 1_555
H32 C27 1_555 1_555
C28 N11 1_555 1_555
H33 C28 1_555 1_555
H34 C28 1_555 1_555
H35 C28 1_555 1_555
C29 N11 1_555 1_555
C30 C29 1_555 1_555
H36 C30 1_555 1_555
H37 C30 1_555 1_555
H38 C30 1_555 1_555
N18 Zn3 1_555 1_555
N19 N18 1_555 1_555
N20 N19 1_555 1_555
C31 N20 1_555 1_555
N21 N18 1_555 1_555
C32 C31 1_555 1_555
C33 C32 1_555 1_555
H39 C33 1_555 1_555
C34 C33 1_555 1_555
C35 C34 1_555 1_555
H40 C35 1_555 1_555
C36 C35 1_555 1_555
C37 C32 1_555 1_555
H41 C37 1_555 1_555
C38 C34 1_555 1_555
C39 C36 1_555 1_555
C40 O18 1_555 1_555
C41 C40 1_555 1_555
C42 C41 1_555 1_555
H42 C42 1_555 1_555
C43 C42 1_555 1_555
C44 C43 1_555 1_555
H43 C44 1_555 1_555
C45 C44 1_555 1_555
C46 C41 1_555 1_555
H44 C46 1_555 1_555
C48 C45 1_555 1_555
C49 H45 1_555 1_555
H46 C49 1_555 1_555
H47 C49 1_555 1_555
C50 N17 1_555 1_555
H48 C50 1_555 1_555
H49 C50 1_555 1_555
H50 C50 1_555 1_555
C51 O23 1_555 1_555
C52 C51 1_555 1_555
H51 C52 1_555 1_555
H52 C52 1_555 1_555
H53 C52 1_555 1_555
C53 H54 1_555 1_555
H55 C53 1_555 1_555
H56 C53 1_555 1_555
C54 O22 1_555 1_555
C55 N16 1_555 1_555
H57 C55 1_555 1_555
H58 C55 1_555 1_555
H59 C55 1_555 1_555
C56 N16 1_555 1_555
H60 C56 1_555 1_555
H61 C56 1_555 1_555
H62 C56 1_555 1_555
H63 O21 1_555 1_555
Tb3 O13 1_555 1_555
Tb6 O10 1_555 1_555
Zn7 O20 1_555 1_555
O26 Zn1 1_555 1_555
O27 Tb2 1_555 1_555
O28 Tb2 1_555 1_555
O31 Tb2 1_555 1_555
O32 Tb2 1_555 1_555
O33 Zn2 1_555 1_555
N22 Zn2 1_555 1_555
N23 Zn1 1_555 1_555
O9 C18 1_555 1_555
O11 Tb6 1_555 1_555
O14 Tb3 1_555 1_555
N10 C26 1_555 1_555
N17 C51 1_555 1_555
C21 C26 1_555 1_555
C23 C24 1_555 1_555
C31 N21 1_555 1_555
C36 C37 1_555 1_555
C45 C46 1_555 1_555
C53 C54 1_555 1_555
Tb3 O3 1_555 1_555
H1 O4 1_555 1_555
H2 O4 1_555 1_555
O3 C3 1_555 1_555
O4 Tb3 1_555 1_555
O6 Tb3 1_555 1_555
N3 N4 1_555 1_555
N4 C10 1_555 1_555
N5 C1 1_555 1_555
C1 H6 1_555 1_555
H7 C1 1_555 1_555
H8 C1 1_555 1_555
C2 N5 1_555 1_555
H9 C2 1_555 1_555
H10 C2 1_555 1_555
H11 C2 1_555 1_555
C3 N5 1_555 1_555
C4 C3 1_555 1_555
H12 C4 1_555 1_555
H13 C4 1_555 1_555
H14 C4 1_555 1_555
H15 C6 1_555 1_555
H17 C6 1_555 1_555
C11 O6 1_555 1_555
H25 C15 1_555 1_555
C16 C11 1_555 1_555
C15 C16 1_555 1_555
O1 C9 1_555 1_555
O2 C9 1_555 1_555
N1 N2 1_555 1_555
C9 C12 1_555 1_555
C10_2 N1 1_555 1_555
C12 C13 1_555 1_555
C13 H24 1_555 1_555
C14 C10_2 1_555 1_555
C17 C12 1_555 1_555
Tb4 O1 1_555 1_555
Zn5 O2 1_555 1_555
Zn6 N2 1_555 1_555
C13 C14 1_555 1_555
H60_2 C56_2 1_555 1_555
H61_2 C56_2 1_555 1_555
H62_2 C56_2 1_555 1_555
Zn7_2 O20_2 1_555 1_555
Tb1 O3_2 1_555 1_555
H1_2 O4_2 1_555 1_555
H2_2 O4_2 1_555 1_555
Zn1_2 O7_2 1_555 1_555
Zn3_2 O12_2 1_555 1_555
O1_2 C9_2 1_555 1_555
O2_2 C9_2 1_555 1_555
O3_2 C3_2 1_555 1_555
O4_2 Tb1 1_555 1_555
O5_2 Tb1 1_555 1_555
O6_2 Tb1 1_555 1_555
O7_2 C11_2 1_555 1_555
O8_2 Tb1 1_555 1_555
O9_2 Zn1_2 1_555 1_555
O10_2 C25_2 1_555 1_555
O11_2 C25_2 1_555 1_555
O12_2 C29_2 1_555 1_555
O24_2 Zn3_2 1_555 1_555
N1_2 N22 1_555 1_555
N22 N3_2 1_555 1_555
N3_2 N4_2 1_555 1_555
N4_2 C10_3 1_555 1_555
N5_2 C1_2 1_555 1_555
N6_2 C5_2 1_555 1_555
N7_2 N8_2 1_555 1_555
N8_2 N9_2 1_555 1_555
N9_2 Zn3_2 1_555 1_555
N10_2 N9_2 1_555 1_555
C1_2 H6_2 1_555 1_555
H7_2 C1_2 1_555 1_555
H8_2 C1_2 1_555 1_555
C2_2 N5_2 1_555 1_555
H9_2 C2_2 1_555 1_555
H10_2 C2_2 1_555 1_555
H11_2 C2_2 1_555 1_555
C3_2 N5_2 1_555 1_555
C4_2 C3_2 1_555 1_555
H12_2 C4_2 1_555 1_555
H13_2 C4_2 1_555 1_555
H14_2 C4_2 1_555 1_555
C5_2 O5_2 1_555 1_555
C6_2 C5_2 1_555 1_555
H15_2 C6_2 1_555 1_555
H16_2 C6_2 1_555 1_555
H17_2 C6_2 1_555 1_555
C9_2 C12_2 1_555 1_555
C10_3 N1_2 1_555 1_555
C11_2 O6_2 1_555 1_555
C12_2 C13_2 1_555 1_555
C13_2 H24_2 1_555 1_555
C14_2 C10_3 1_555 1_555
C15_2 C14_2 1_555 1_555
H25_2 C15_2 1_555 1_555
C16_2 C11_2 1_555 1_555
C17_2 C12_2 1_555 1_555
H26_2 C17_2 1_555 1_555
C18_2 O8_2 1_555 1_555
C19_2 C18_2 1_555 1_555
C20_2 C19_2 1_555 1_555
H27_2 C20_2 1_555 1_555
C21_2 C20_2 1_555 1_555
C22_2 C21_2 1_555 1_555
H28_2 C22_2 1_555 1_555
C23_2 C22_2 1_555 1_555
C24_2 C19_2 1_555 1_555
H29_2 C24_2 1_555 1_555
C25_2 C23_2 1_555 1_555
C26_2 N7_2 1_555 1_555
C30_2 C29_2 1_555 1_555
H36_2 C30_2 1_555 1_555
H37_2 C30_2 1_555 1_555
H38_2 C30_2 1_555 1_555
H53_2 C52_2 1_555 1_555
Tb5 O10_2 1_555 1_555
Zn4 O2_2 1_555 1_555
O25_2 Tb1 1_555 1_555
O26_2 Zn1_2 1_555 1_555
O29 Tb1 1_555 1_555
O30 Tb1 1_555 1_555
N23_2 Zn1_2 1_555 1_555
O9_2 C18_2 1_555 1_555
O11_2 Tb5 1_555 1_555
N10_2 C26_2 1_555 1_555
C13_2 C14_2 1_555 1_555
C15_2 C16_2 1_555 1_555
C16_2 C17_2 1_555 1_555
C21_2 C26_2 1_555 1_555
C23_2 C24_2 1_555 1_555
Tb2_2 O19_2 1_555 1_555
H5_2 O21_2 1_555 1_555
O19_2 C48_2 1_555 1_555
O21_2 Tb2_2 1_555 1_555
O22_2 Tb2_2 1_555 1_555
O23_2 Tb2_2 1_555 1_555
N16_2 C54_2 1_555 1_555
H43_2 C44_2 1_555 1_555
C45_2 C44_2 1_555 1_555
C48_2 C45_2 1_555 1_555
C53_2 H54_2 1_555 1_555
H55_2 C53_2 1_555 1_555
H56_2 C53_2 1_555 1_555
C54_2 O22_2 1_555 1_555
C55_2 N16_2 1_555 1_555
H57_2 C55_2 1_555 1_555
H58_2 C55_2 1_555 1_555
H59_2 C55_2 1_555 1_555
H63_2 O21_2 1_555 1_555
O27_2 Tb2_2 1_555 1_555
O28_2 Tb2_2 1_555 1_555
C53_2 C54_2 1_555 1_555
Zn6 O16_2 1_555 1_555
O29 C38_2 1_555 1_555
O30 C38_2 1_555 1_555
O15_2 C39_2 1_555 1_555
O16_2 C39_2 1_555 1_555
O17_2 C40_2 1_555 1_555
O18_2 Zn6 1_555 1_555
N11_2 C27_2 1_555 1_555
N17_2 C49_2 1_555 1_555
C27_2 H30_2 1_555 1_555
H31_2 C27_2 1_555 1_555
H32_2 C27_2 1_555 1_555
C28_2 N11_2 1_555 1_555
H33_2 C28_2 1_555 1_555
H34_2 C28_2 1_555 1_555
H35_2 C28_2 1_555 1_555
N19_2 N18_2 1_555 1_555
N20_2 N19_2 1_555 1_555
C31_2 N20_2 1_555 1_555
N21_2 N18_2 1_555 1_555
C32_2 C31_2 1_555 1_555
C33_2 C32_2 1_555 1_555
H39_2 C33_2 1_555 1_555
C34_2 C33_2 1_555 1_555
C35_2 C34_2 1_555 1_555
H40_2 C35_2 1_555 1_555
C36_2 C35_2 1_555 1_555
C37_2 C32_2 1_555 1_555
H41_2 C37_2 1_555 1_555
C38_2 C34_2 1_555 1_555
C39_2 C36_2 1_555 1_555
C40_2 O18_2 1_555 1_555
C41_2 C40_2 1_555 1_555
C42_2 C41_2 1_555 1_555
H42_2 C42_2 1_555 1_555
C43_2 C42_2 1_555 1_555
C46_2 C41_2 1_555 1_555
C49_2 H45_2 1_555 1_555
H46_2 C49_2 1_555 1_555
H47_2 C49_2 1_555 1_555
C50_2 N17_2 1_555 1_555
H48_2 C50_2 1_555 1_555
H49_2 C50_2 1_555 1_555
H50_2 C50_2 1_555 1_555
Tb5 O15_2 1_555 1_555
O33_2 Zn6 1_555 1_555
O17_2 Tb5 1_555 1_555
N17_2 C51_2 1_555 1_555
C31_2 N21_2 1_555 1_555
C36_2 C37_2 1_555 1_555
N12_2 N13_2 1_555 1_555
N13_2 N14_2 1_555 1_555
N14_2 N15_2 1_555 1_555
N15_2 C47_2 1_555 1_555
C47_2 N12_2 1_555 1_555
Zn5 N13_2 1_555 1_555
Tb4_2 O3_3 1_555 1_555
H1_3 O4_3 1_555 1_555
H2_3 O4_3 1_555 1_555
O25_2 C9_3 1_555 1_555
O26_2 C9_3 1_555 1_555
O3_3 C3_3 1_555 1_555
O4_3 Tb4_2 1_555 1_555
O6_3 Tb4_2 1_555 1_555
N5_3 C1_3 1_555 1_555
C1_3 H6_3 1_555 1_555
H7_3 C1_3 1_555 1_555
H8_3 C1_3 1_555 1_555
C2_3 N5_3 1_555 1_555
H9_3 C2_3 1_555 1_555
H10_3 C2_3 1_555 1_555
H11_3 C2_3 1_555 1_555
C3_3 N5_3 1_555 1_555
C4_3 C3_3 1_555 1_555
H12_3 C4_3 1_555 1_555
H13_3 C4_3 1_555 1_555
H14_3 C4_3 1_555 1_555
H15_3 C6_3 1_555 1_555
H17_3 C6_3 1_555 1_555
C9_3 C12_3 1_555 1_555
C11_3 O6_3 1_555 1_555
C12_3 C13_3 1_555 1_555
C13_3 H24_3 1_555 1_555
C15_3 C14_3 1_555 1_555
H25_3 C15_3 1_555 1_555
C16_3 C11_3 1_555 1_555
C17_3 C12_3 1_555 1_555
H26_3 C17_3 1_555 1_555
O29_2 Tb4_2 1_555 1_555
O30_2 Tb4_2 1_555 1_555
C13_3 C14_3 1_555 1_555
C15_3 C16_3 1_555 1_555
C16_3 C17_3 1_555 1_555
N1_3 N2_2 1_555 1_555
N2_2 N3_3 1_555 1_555
N3_3 N4_3 1_555 1_555
N4_3 C10_4 1_555 1_555
C10_4 N1_3 1_555 1_555
Zn7 N2_2 1_555 1_555
Zn4 O7_3 1_555 1_555
Zn7_2 O16_3 1_555 1_555
O9_3 Zn4 1_555 1_555
O27_2 C25_3 1_555 1_555
O28_2 C25_3 1_555 1_555
O29_2 C38_3 1_555 1_555
O30_2 C38_3 1_555 1_555
O31_2 C39_3 1_555 1_555
O16_3 C39_3 1_555 1_555
O32_2 C40_3 1_555 1_555
O18_3 Zn7_2 1_555 1_555
N6_3 C5_3 1_555 1_555
N7_3 N8_3 1_555 1_555
N8_3 N9_3 1_555 1_555
N10_3 N9_3 1_555 1_555
N12_3 N23 1_555 1_555
N23 N14_3 1_555 1_555
N14_3 N15_3 1_555 1_555
N15_3 C47_3 1_555 1_555
N17_3 C49_3 1_555 1_555
C5_3 O5_3 1_555 1_555
C7_2 N6_3 1_555 1_555
H19_2 C7_2 1_555 1_555
C8_2 N6_3 1_555 1_555
H21_2 C8_2 1_555 1_555
H23_3 C8_2 1_555 1_555
C18_3 O8_3 1_555 1_555
C19_3 C18_3 1_555 1_555
C20_3 C19_3 1_555 1_555
H27_3 C20_3 1_555 1_555
C21_3 C20_3 1_555 1_555
C22_3 C21_3 1_555 1_555
H28_3 C22_3 1_555 1_555
C23_3 C22_3 1_555 1_555
C24_3 C19_3 1_555 1_555
H29_3 C24_3 1_555 1_555
C25_3 C23_3 1_555 1_555
C26_3 N7_3 1_555 1_555
H36_3 C30_3 1_555 1_555
H37_3 C30_3 1_555 1_555
H38_3 C30_3 1_555 1_555
C31_3 N20_3 1_555 1_555
N21_3 N18_3 1_555 1_555
C32_3 C31_3 1_555 1_555
C33_3 C32_3 1_555 1_555
H39_3 C33_3 1_555 1_555
C34_3 C33_3 1_555 1_555
C35_3 C34_3 1_555 1_555
H40_3 C35_3 1_555 1_555
C36_3 C35_3 1_555 1_555
C37_3 C32_3 1_555 1_555
H41_3 C37_3 1_555 1_555
C38_3 C34_3 1_555 1_555
C39_3 C36_3 1_555 1_555
C40_3 O18_3 1_555 1_555
C41_3 C40_3 1_555 1_555
C42_3 C41_3 1_555 1_555
H42_3 C42_3 1_555 1_555
C43_3 C42_3 1_555 1_555
C46_3 C41_3 1_555 1_555
C47_3 N12_3 1_555 1_555
C49_3 H45_3 1_555 1_555
H46_3 C49_3 1_555 1_555
H47_3 C49_3 1_555 1_555
C50_3 N17_3 1_555 1_555
H48_3 C50_3 1_555 1_555
H49_3 C50_3 1_555 1_555
H50_3 C50_3 1_555 1_555
C52_3 C51_3 1_555 1_555
H52_3 C52_3 1_555 1_555
H53_3 C52_3 1_555 1_555
N22_2 Zn7_2 1_555 1_555
O9_3 C18_3 1_555 1_555
N10_3 C26_3 1_555 1_555
N17_3 C51_3 1_555 1_555
C21_3 C26_3 1_555 1_555
C23_3 C24_3 1_555 1_555
C31_3 N21_3 1_555 1_555
C36_3 C37_3 1_555 1_555
C43_3 C47_3 1_555 1_555
Tb5 O19_3 1_555 1_555
H5_3 O21_3 1_555 1_555
O19_3 C48_3 1_555 1_555
O33_2 C48_3 1_555 1_555
O21_3 Tb5 1_555 1_555
O22_3 Tb5 1_555 1_555
O23_3 Tb5 1_555 1_555
N16_3 C54_3 1_555 1_555
H43_3 C44_3 1_555 1_555
C45_3 C44_3 1_555 1_555
C48_3 C45_3 1_555 1_555
C53_3 H54_3 1_555 1_555
H55_3 C53_3 1_555 1_555
H56_3 C53_3 1_555 1_555
C54_3 O22_3 1_555 1_555
H63_3 O21_3 1_555 1_555
C53_3 C54_3 1_555 1_555
Tb6 O19_4 1_555 1_555
Zn7 O16_4 1_555 1_555
H5_4 O21_4 1_555 1_555
O13_2 C38_4 1_555 1_555
O14_2 C38_4 1_555 1_555
O31 C39_4 1_555 1_555
O16_4 C39_4 1_555 1_555
O32 C40_4 1_555 1_555
O18_4 Zn7 1_555 1_555
O19_4 C48_4 1_555 1_555
O21_4 Tb6 1_555 1_555
O22_4 Tb6 1_555 1_555
O23_4 Tb6 1_555 1_555
N12_4 N23_2 1_555 1_555
N23_2 N14_4 1_555 1_555
N14_4 N15_4 1_555 1_555
N15_4 C47_4 1_555 1_555
N16_4 C54_4 1_555 1_555
N17_4 C49_4 1_555 1_555
C31_4 N20_4 1_555 1_555
N21_4 N18_4 1_555 1_555
C32_4 C31_4 1_555 1_555
C33_4 C32_4 1_555 1_555
H39_4 C33_4 1_555 1_555
C34_4 C33_4 1_555 1_555
C35_4 C34_4 1_555 1_555
H40_4 C35_4 1_555 1_555
C36_4 C35_4 1_555 1_555
C37_4 C32_4 1_555 1_555
H41_4 C37_4 1_555 1_555
C38_4 C34_4 1_555 1_555
C39_4 C36_4 1_555 1_555
C40_4 O18_4 1_555 1_555
C41_4 C40_4 1_555 1_555
C42_4 C41_4 1_555 1_555
H42_4 C42_4 1_555 1_555
C43_4 C42_4 1_555 1_555
C44_4 C43_4 1_555 1_555
H43_4 C44_4 1_555 1_555
C45_4 C44_4 1_555 1_555
C46_4 C41_4 1_555 1_555
H44_4 C46_4 1_555 1_555
C47_4 N12_4 1_555 1_555
C48_4 C45_4 1_555 1_555
C49_4 H45_4 1_555 1_555
H46_4 C49_4 1_555 1_555
H47_4 C49_4 1_555 1_555
C50_4 N17_4 1_555 1_555
H48_4 C50_4 1_555 1_555
H49_4 C50_4 1_555 1_555
H50_4 C50_4 1_555 1_555
C51_4 O23_4 1_555 1_555
C53_4 H54_4 1_555 1_555
H55_4 C53_4 1_555 1_555
H56_4 C53_4 1_555 1_555
C54_4 O22_4 1_555 1_555
H63_4 O21_4 1_555 1_555
Tb4 O13_2 1_555 1_555
O14_2 Tb4 1_555 1_555
N17_4 C51_4 1_555 1_555
C31_4 N21_4 1_555 1_555
C36_4 C37_4 1_555 1_555
C43_4 C47_4 1_555 1_555
C45_4 C46_4 1_555 1_555
C53_4 C54_4 1_555 1_555
N1_4 N22_2 1_555 1_555
C10_5 N1_4 1_555 1_555
O25 C9_4 1_555 1_555
O26 C9_4 1_555 1_555
C9_4 C12_4 1_555 1_555
C12_4 C13_4 1_555 1_555
C13_4 H24_4 1_555 1_555
C17_4 C12_4 1_555 1_555
C13_4 C14_4 1_555 1_555
Tb4 O3_4 1_555 1_555
H1_4 O4_4 1_555 1_555
H2_4 O4_4 1_555 1_555
Zn5 O7_4 1_555 1_555
O3_4 C3_4 1_555 1_555
O4_4 Tb4 1_555 1_555
O5_4 Tb4 1_555 1_555
O6_4 Tb4 1_555 1_555
O7_4 C11_4 1_555 1_555
O8_4 Tb4 1_555 1_555
O9_4 Zn5 1_555 1_555
O27 C25_4 1_555 1_555
O28 C25_4 1_555 1_555
N5_4 C1_4 1_555 1_555
N6_4 C5_4 1_555 1_555
N7_4 N8_4 1_555 1_555
N8_4 N9_4 1_555 1_555
N10_4 N9_4 1_555 1_555
C1_4 H6_4 1_555 1_555
H7_4 C1_4 1_555 1_555
H8_4 C1_4 1_555 1_555
C2_4 N5_4 1_555 1_555
H9_4 C2_4 1_555 1_555
H10_4 C2_4 1_555 1_555
H11_4 C2_4 1_555 1_555
C3_4 N5_4 1_555 1_555
C4_4 C3_4 1_555 1_555
H12_4 C4_4 1_555 1_555
H13_4 C4_4 1_555 1_555
H14_4 C4_4 1_555 1_555
C5_4 O5_4 1_555 1_555
C6_4 C5_4 1_555 1_555
H15_4 C6_4 1_555 1_555
H16_4 C6_4 1_555 1_555
H17_4 C6_4 1_555 1_555
C7_3 N6_4 1_555 1_555
H18_2 C7_3 1_555 1_555
H19_3 C7_3 1_555 1_555
H20_2 C7_3 1_555 1_555
C8_3 N6_4 1_555 1_555
H21_3 C8_3 1_555 1_555
H22_4 C8_3 1_555 1_555
H23_4 C8_3 1_555 1_555
C11_4 O6_4 1_555 1_555
H25_4 C15_4 1_555 1_555
C16_4 C11_4 1_555 1_555
C18_4 O8_4 1_555 1_555
C19_4 C18_4 1_555 1_555
C20_4 C19_4 1_555 1_555
H27_4 C20_4 1_555 1_555
C21_4 C20_4 1_555 1_555
C22_4 C21_4 1_555 1_555
H28_4 C22_4 1_555 1_555
C23_4 C22_4 1_555 1_555
C24_4 C19_4 1_555 1_555
H29_4 C24_4 1_555 1_555
C25_4 C23_4 1_555 1_555
C26_4 N7_4 1_555 1_555
H36_4 C30_4 1_555 1_555
H37_4 C30_4 1_555 1_555
H38_4 C30_4 1_555 1_555
H51_4 C52_4 1_555 1_555
H53_4 C52_4 1_555 1_555
O9_4 C18_4 1_555 1_555
N10_4 C26_4 1_555 1_555
C15_4 C16_4 1_555 1_555
C21_4 C26_4 1_555 1_555
C23_4 C24_4 1_555 1_555
H18_4 C7_4 1_555 1_555
H19_4 C7_4 1_555 1_555
H20_4 C7_4 1_555 1_555
H21_4 C8_4 1_555 1_555
H3_3 O24_3 1_555 1_555
H4_3 O24_3 1_555 1_555
Zn3_3 O12_3 1_555 1_555
O12_3 C29_3 1_555 1_555
O24_3 Zn3_3 1_555 1_555
N11_3 C27_3 1_555 1_555
C27_3 H30_3 1_555 1_555
H31_3 C27_3 1_555 1_555
H32_3 C27_3 1_555 1_555
C28_3 N11_3 1_555 1_555
H35_3 C28_3 1_555 1_555
C29_3 N11_3 1_555 1_555
H57_3 C55_3 1_555 1_555
H58_3 C55_3 1_555 1_555
H59_3 C55_3 1_555 1_555
H61_3 C56_3 1_555 1_555
H62_3 C56_3 1_555 1_555
N11_4 C27_4 1_555 1_555
C27_4 H30_4 1_555 1_555
H31_4 C27_4 1_555 1_555
H32_4 C27_4 1_555 1_555
C28_4 N11_4 1_555 1_555
H35_4 C28_4 1_555 1_555
H57_4 C55_4 1_555 1_555
H58_4 C55_4 1_555 1_555
H59_4 C55_4 1_555 1_555
Zn3_4 O12_4 1_555 1_555
O12_4 C29_4 1_555 1_555
O24_4 Zn3_4 1_555 1_555
N3_4 N4_4 1_555 1_555
N4_4 C10_6 1_555 1_555
H61_4 C56_4 1_555 1_555
H62_4 C56_4 1_555 1_555

#END
