
###############################################################################
#
# This file contains modified crystal structure data generated from the
# MOF subset of the Cambridge Structural Database (CSD) v543 
# hosted by the Cambridge Crystallographic Data Centre (CCDC).
#
# This work is licensed under the Creative Commons
# Attribution-NonCommercial-ShareAlike 4.0 International License.
# To view a copy of this license, visit
# http://creativecommons.org/licenses/by-nc-sa/4.0/
# or send a letter to
# Creative Commons, PO Box 1866, Mountain View, CA 94042, USA.
#
# CIF created using the CSD Python API on 29 September 2022
# The structure has been converted into the P1 space group
# The structure has a 3D framework
# The original CSD entry IZUZIP is in the orthorhombic crystal system
# The original CSD entry IZUZIP is in a Sohncke space group
# The framework has been calculated to contain at least 10.0% void space
# The void calculation uses a probe of radius 1.32A, grid spacing 0.4
#
###############################################################################

data_IZUZIP
_chemical_formula_moiety         '(C224 H252 Eu8 N84 O92 Zn12)n'
_symmetry_cell_setting           triclinic
_symmetry_space_group_name_H-M   'P 1'
_symmetry_Int_Tables_number      1
_space_group_name_Hall           'P 1'
loop_
_symmetry_equiv_pos_site_id
_symmetry_equiv_pos_as_xyz
1 x,y,z
_cell_length_a                   15.701(2)
_cell_length_b                   21.472(3)
_cell_length_c                   27.809(4)
_cell_angle_alpha                90
_cell_angle_beta                 90
_cell_angle_gamma                90
_cell_volume                     9375.3
loop_
_atom_site_label
_atom_site_type_symbol
_atom_site_fract_x
_atom_site_fract_y
_atom_site_fract_z
Eu1 Eu 0.01580(3) 0.19808(2) 0.39234(2)
N2 N 0.2720(10) 0.1001(9) 0.4003(6)
O3 O 0.1496(6) 0.1491(5) 0.3928(4)
O5 O 0.0268(6) 0.1310(4) 0.4633(3)
H1 H 0.005(7) 0.156(5) 0.488(3)
H2 H 0.077(5) 0.114(5) 0.477(3)
C1 C 0.3607(11) 0.0866(10) 0.4083(7)
H7 H 0.3940 0.1230 0.4016
H8 H 0.3781 0.0533 0.3875
H9 H 0.3690 0.0744 0.4412
C2 C 0.2075(14) 0.0391(11) 0.3851(8)
H10 H 0.1528 0.0547 0.3756
H11 H 0.2010 0.0120 0.4123
H12 H 0.2326 0.0164 0.3590
C3 C 0.2248(11) 0.1418(10) 0.3990(6)
C4 C 0.2852(12) 0.1981(10) 0.4097(7)
H13 H 0.2529 0.2360 0.4093
H14 H 0.3289 0.1999 0.3857
H15 H 0.3108 0.1928 0.4408
H16 H 0.0452 0.0450 0.2607
H17 H 0.0137 0.1142 0.2638
H20 H 0.0084 0.0162 0.4085
O25 O 0.1047(5) 0.2828(4) 0.3598(3)
O26 O 0.0697(5) 0.2111(4) 0.3086(3)
O31 O 0.0344(5) 0.2705(3) 0.4543(3)
Zn1 Zn 0.50563(8) 0.54151(7) 0.26194(6)
Zn2 Zn 0.86698(7) 0.33876(5) 0.44263(4)
Zn3 Zn 0.14589(7) 0.33904(5) 0.04476(5)
N1 N 0.9868(12) 0.0082(7) 0.3342(6)
N7 N 0.2838(8) 0.4679(6) 0.3053(5)
N8 N 0.3479(8) 0.5078(7) 0.3051(5)
N9 N 0.3955(8) 0.4985(6) 0.2668(5)
N10 N 0.3631(7) 0.4519(6) 0.2407(4)
N11 N 0.4704(11) 0.5475(8) 0.3981(6)
N12 N 0.6556(7) 0.4576(6) 0.2588(4)
N13 N 0.5969(7) 0.4903(6) 0.2337(4)
N14 N 0.6061(8) 0.4829(6) 0.1886(4)
N15 N 0.6704(7) 0.4408(6) 0.1819(4)
O4 O 0.9721(6) 0.1059(4) 0.3551(4)
O6 O 0.1673(5) 0.3478(4) 0.1131(3)
O7 O 0.0955(5) 0.2632(4) 0.1324(3)
O8 O 0.1986(5) 0.2620(4) 0.0228(3)
O9 O 0.1211(5) 0.1852(4) 0.0547(3)
O12 O 0.5094(8) 0.6215(6) 0.2293(5)
H3 H 0.478(9) 0.633(5) 0.257(3)
H4 H 0.491(11) 0.580(3) 0.224(6)
O13 O 0.5322(7) 0.5671(5) 0.3276(4)
O14 O 0.9369(5) 0.2180(4) 0.1740(3)
O15 O 0.9154(5) 0.2987(4) 0.1270(3)
O19 O 0.9205(5) 0.2643(4) 0.3530(3)
O20 O 0.8468(5) 0.3489(4) 0.3741(3)
O21 O 0.8168(5) 0.2651(4) 0.4686(3)
O22 O 0.8801(5) 0.1854(3) 0.4313(3)
O23 O 0.5344(5) 0.2295(3) 0.5457(3)
O24 O 0.4803(5) 0.1348(3) 0.5387(3)
C5 C 0.9992(14) 0.0716(11) 0.2705(7)
H18 H 0.9486 0.0605 0.2532
C6 C 0.9826(13) 0.0632(8) 0.3285(7)
H19 H 0.9111 0.0105 0.3965
C9 C 0.1027(7) 0.2612(6) 0.3182(4)
C10 C 0.1446(7) 0.2987(6) 0.2780(4)
C11 C 0.1979(8) 0.3467(6) 0.2898(5)
H25 H 0.2077 0.3562 0.3219
C12 C 0.2382(8) 0.3822(7) 0.2532(5)
C13 C 0.2198(7) 0.3681(6) 0.2062(5)
H26 H 0.2450 0.3913 0.1818
C14 C 0.1269(7) 0.2845(6) 0.2304(4)
H27 H 0.0905 0.2518 0.2228
C15 C 0.1644(7) 0.3199(6) 0.1941(4)
C16 C 0.1415(7) 0.3091(6) 0.1434(4)
C17 C 0.1842(6) 0.2060(5) 0.0335(4)
C18 C 0.2527(6) 0.1597(5) 0.0202(4)
C19 C 0.2387(7) 0.0962(5) 0.0259(4)
H28 H 0.1871 0.0829 0.0388
C20 C 0.2980(7) 0.0528(5) 0.0132(4)
C23 C 0.3302(6) 0.1794(5) 0.0009(4)
C26 C 0.2950(9) 0.4338(7) 0.2654(5)
C27 C 0.5157(13) 0.5339(9) 0.3674(7)
C28 C 0.5611(14) 0.4683(10) 0.3755(8)
H31 H 0.5201 0.4355 0.3716
H32 H 0.5845 0.4666 0.4074
H33 H 0.6060 0.4632 0.3524
C29 C 0.4240(15) 0.6125(10) 0.3897(9)
H34 H 0.4658 0.6451 0.3884
H35 H 0.3853 0.6203 0.4157
H36 H 0.3931 0.6112 0.3600
C30 C 0.4405(13) 0.5091(10) 0.4396(7)
H37 H 0.3951 0.4823 0.4293
H38 H 0.4203 0.5361 0.4647
H39 H 0.4869 0.4844 0.4516
C31 C 0.6994(8) 0.4268(6) 0.2255(5)
C32 C 0.7656(8) 0.3835(6) 0.2351(5)
C33 C 0.8086(7) 0.3518(6) 0.1979(4)
H40 H 0.7953 0.3611 0.1661
C34 C 0.8698(7) 0.3074(6) 0.2074(4)
C35 C 0.8905(7) 0.2914(6) 0.2551(4)
H41 H 0.9295 0.2599 0.2617
C36 C 0.7903(7) 0.3697(6) 0.2828(5)
H42 H 0.7654 0.3915 0.3081
C37 C 0.8504(7) 0.3245(5) 0.2928(4)
C38 C 0.8750(7) 0.3109(5) 0.3434(4)
C39 C 0.9112(7) 0.2726(5) 0.1670(4)
H44 H 0.0361 0.0461 0.0269
H60 H 0.0879 0.0306 0.1022
C48 C 0.8254(6) 0.2077(5) 0.4579(4)
C49 C 0.7587(7) 0.1661(5) 0.4786(4)
C50 C 0.6850(7) 0.1892(5) 0.4993(4)
H61 H 0.6765 0.2320 0.5016
C51 C 0.6248(7) 0.1488(5) 0.5164(4)
C52 C 0.6387(7) 0.0848(5) 0.5168(4)
H62 H 0.5976 0.0580 0.5291
C53 C 0.7137(7) 0.0619(5) 0.4988(5)
C54 C 0.7730(7) 0.1015(5) 0.4789(4)
H63 H 0.8228 0.0854 0.4657
C56 C 0.5407(6) 0.1735(5) 0.5361(4)
Eu4 Eu 0.51580(3) 0.30192(2) 0.60766(2)
Eu5 Eu 0.98779(3) 0.20759(2) 0.09116(2)
Zn5 Zn 0.36698(7) 0.16124(5) 0.55737(4)
N22 N 0.7856(6) 0.4019(4) 0.4688(4)
N23 N 0.2207(6) 0.4051(4) 0.0157(4)
O28 O 0.0368(5) 0.3801(4) 0.0286(3)
O32 O 0.9803(5) 0.3652(3) 0.4613(3)
O10 O 0.4900(5) 0.2159(3) 0.9681(3)
O11 O 0.5368(5) 0.1199(4) 0.9714(3)
C21 C 0.3768(7) 0.0731(5) 0.9952(4)
H29 H 0.4184 0.0445 0.9863
C22 C 0.3916(7) 0.1365(5) 0.9909(4)
H30 H 0.3398 0.2214 0.9949
C25 C 0.4779(7) 0.1593(5) 0.9750(4)
C41 C 0.0212(13) 0.0491(8) 0.9935(7)
H45 H 0.0722 0.0495 0.9744
Eu6 Eu 0.48779(3) 0.29241(2) 0.90884(2)
Zn7 Zn 0.64589(7) 0.16096(5) 0.95524(5)
N3 N 0.2055(6) 0.9638(4) 0.0327(4)
N4 N 0.2144(6) 0.9019(4) 0.0312(4)
N5 N 0.2912(6) 0.8877(4) 0.0157(4)
N6 N 0.3327(6) 0.9396(4) 0.0065(4)
N18 N 0.7838(6) 0.9644(4) 0.4713(4)
N19 N 0.7793(6) 0.9051(4) 0.4843(4)
N20 N 0.7281(6) 0.8993(5) 0.5213(4)
N21 N 0.6946(7) 0.9552(4) 0.5308(4)
C7 C 0.9670(14) 0.9953(9) 0.3889(8)
H21 H 0.9695 0.9513 0.3949
C8 C 0.9951(16) 0.9524(8) 0.3074(8)
H22 H 0.9457 0.9467 0.2876
C24 C 0.2800(7) 0.9864(5) 0.0170(4)
C47 C 0.0711(12) 0.9974(8) 0.1233(7)
H58 H 0.0741 0.9585 0.1063
H59 H 0.1086 0.9962 0.1505
C55 C 0.7298(7) 0.9944(5) 0.4999(4)
Zn4 Zn 0.13302(7) 0.83876(5) 0.05737(4)
Zn6 Zn 0.85411(7) 0.83904(5) 0.45524(5)
N17 N 0.9829(10) 0.0080(5) 0.1398(5)
O16 O 0.8382(5) 0.1958(4) 0.0781(3)
H5 H 0.794(6) 0.168(4) 0.087(4)
H6 H 0.851(7) 0.184(5) 0.0460(17)
O17 O 0.9623(7) 0.1497(5) 0.0181(4)
O18 O 0.9998(7) 0.1070(4) 0.1222(3)
C44 C 0.8644(10) 0.0709(8) 0.1519(6)
H52 H 0.8576 0.1133 0.1622
H53 H 0.8504 0.0434 0.1779
H54 H 0.8272 0.0629 0.1252
C45 C 0.9537(10) 0.0604(6) 0.1371(6)
O27 O 0.9900(5) 0.2841(3) 0.0319(3)
N3_2 N 0.2945(6) 0.0362(4) 0.5327(4)
N4_2 N 0.2856(6) 0.0981(4) 0.5312(4)
N5_2 N 0.2088(6) 0.1123(4) 0.5157(4)
N6_2 N 0.1673(6) 0.0604(4) 0.5065(4)
C24_2 C 0.2200(7) 0.0136(5) 0.5170(4)
C46 C 0.5607(13) 0.0475(8) 0.6553(8)
H55 H 0.6199 0.0445 0.6470
H56 H 0.5551 0.0518 0.6895
H57 H 0.5361 0.0831 0.6397
C47_2 C 0.4289(12) 0.0026(8) 0.6233(7)
H58_2 H 0.4259 0.0415 0.6063
H59_2 H 0.3914 0.0038 0.6505
O24_2 O 0.0197(5) 0.8652(3) 0.0387(3)
Eu2 Eu 0.51221(3) 0.79241(2) 0.59116(2)
Zn3_2 Zn 0.35411(7) 0.66096(5) 0.54476(5)
N7_2 N 0.2162(8) 0.5321(6) 0.8053(5)
N8_2 N 0.1521(8) 0.4922(7) 0.8051(5)
N9_2 N 0.1045(8) 0.5015(6) 0.7668(5)
N10_2 N 0.1369(7) 0.5481(6) 0.7407(4)
N11_2 N 0.0296(11) 0.4525(8) 0.8981(6)
N16 N 0.5637(11) 0.8806(9) 0.4412(6)
N17_2 N 0.5171(10) 0.9920(5) 0.6398(5)
O1 O 0.3953(5) 0.7172(4) 0.8598(3)
O2 O 0.4303(5) 0.7889(4) 0.8086(3)
O6_2 O 0.3327(5) 0.6522(4) 0.6131(3)
O7_2 O 0.4045(5) 0.7368(4) 0.6324(3)
O8_2 O 0.3014(5) 0.7380(4) 0.5228(3)
O9_2 O 0.3789(5) 0.8148(4) 0.5547(3)
O10_2 O 0.0100(5) 0.7841(3) 0.4681(3)
H3_2 H 0.022(9) 0.367(5) 0.757(3)
H4_2 H 0.009(11) 0.420(3) 0.724(6)
O16_2 O 0.6618(5) 0.8042(4) 0.5781(3)
H5_2 H 0.706(6) 0.832(4) 0.587(4)
H6_2 H 0.649(7) 0.816(5) 0.5460(17)
O17_2 O 0.5377(7) 0.8503(5) 0.5181(4)
O18_2 O 0.5002(7) 0.8930(4) 0.6222(3)
C9_2 C 0.3973(7) 0.7388(6) 0.8182(4)
C10_2 C 0.3554(7) 0.7013(6) 0.7780(4)
C11_2 C 0.3021(8) 0.6533(6) 0.7898(5)
H25_2 H 0.2923 0.6438 0.8219
C12_2 C 0.2618(8) 0.6178(7) 0.7532(5)
C13_2 C 0.2802(7) 0.6319(6) 0.7062(5)
H26_2 H 0.2550 0.6087 0.6818
C14_2 C 0.3731(7) 0.7155(6) 0.7304(4)
H27_2 H 0.4095 0.7482 0.7228
C15_2 C 0.3356(7) 0.6801(6) 0.6941(4)
C16_2 C 0.3585(7) 0.6909(6) 0.6434(4)
C17_2 C 0.3158(6) 0.7940(5) 0.5335(4)
C18_2 C 0.2473(6) 0.8403(5) 0.5202(4)
C19_2 C 0.2613(7) 0.9038(5) 0.5259(4)
H28_2 H 0.3129 0.9171 0.5388
C20_2 C 0.2020(7) 0.9472(5) 0.5132(4)
C21_2 C 0.1232(7) 0.9269(5) 0.4952(4)
H29_2 H 0.0816 0.9555 0.4863
C22_2 C 0.1084(7) 0.8635(5) 0.4909(4)
C23_2 C 0.1698(6) 0.8206(5) 0.5009(4)
H30_2 H 0.1602 0.7786 0.4949
C25_2 C 0.0221(7) 0.8407(5) 0.4750(4)
C26_2 C 0.2050(9) 0.5662(7) 0.7654(5)
C29_2 C 0.0760(15) 0.3875(10) 0.8897(9)
H34_2 H 0.0342 0.3549 0.8884
H35_2 H 0.1147 0.3797 0.9157
H36_2 H 0.1069 0.3888 0.8600
C30_2 C 0.0595(13) 0.4909(10) 0.9396(7)
H37_2 H 0.1049 0.5177 0.9293
H38_2 H 0.0797 0.4639 0.9647
H39_2 H 0.0131 0.5156 0.9516
C40 C 0.5321(12) 0.8869(9) 0.4843(7)
C41_2 C 0.4788(13) 0.9509(8) 0.4935(7)
H43 H 0.5132 0.9860 0.4846
H44_2 H 0.4639 0.9539 0.5269
H45_2 H 0.4278 0.9505 0.4744
C42 C 0.6083(16) 0.8192(12) 0.4319(9)
H46 H 0.6295 0.8186 0.3995
H47 H 0.5688 0.7856 0.4364
H48 H 0.6550 0.8146 0.4540
C43 C 0.5660(15) 0.9310(11) 0.4063(8)
H49 H 0.5118 0.9341 0.3906
H50 H 0.6095 0.9227 0.3829
H51 H 0.5784 0.9694 0.4225
C44_2 C 0.6356(10) 0.9291(8) 0.6519(6)
H52_2 H 0.6424 0.8867 0.6622
H53_2 H 0.6496 0.9566 0.6779
H54_2 H 0.6728 0.9371 0.6252
C45_2 C 0.5463(10) 0.9396(6) 0.6371(6)
H60_2 H 0.4121 0.9694 0.6022
Eu3 Eu 0.48420(3) 0.80192(2) 0.89234(2)
Eu6_2 Eu 0.01221(3) 0.70759(2) 0.40884(2)
N23_2 N 0.2793(6) 0.5949(4) 0.5157(4)
O27_2 O 0.5100(5) 0.7159(3) 0.5319(3)
O28_2 O 0.4632(5) 0.6199(4) 0.5286(3)
O29 O 0.5631(5) 0.7820(4) 0.6740(3)
O30 O 0.5846(5) 0.7013(4) 0.6270(3)
N18_2 N 0.7162(6) 0.0356(4) 0.9713(4)
N19_2 N 0.7207(6) 0.0949(4) 0.9843(4)
C7_2 C 0.5330(14) 0.0047(9) 0.8889(8)
H21_2 H 0.5305 0.0487 0.8949
C8_2 C 0.5049(16) 0.0476(8) 0.8074(8)
H22_2 H 0.5543 0.0533 0.7876
H23 H 0.4995 0.0823 0.8291
H24 H 0.4551 0.0452 0.7875
C55_2 C 0.7702(7) 0.0056(5) 0.9999(4)
O23_2 O 0.9656(5) 0.7705(3) 0.0457(3)
H61_2 H 0.8235 0.7680 0.0016
C51_2 C 0.8752(7) 0.8512(5) 0.0164(4)
C52_2 C 0.8613(7) 0.9152(5) 0.0168(4)
H62_2 H 0.9024 0.9420 0.0291
C56_2 C 0.9593(6) 0.8265(5) 0.0361(4)
Eu4_2 Eu 0.98420(3) 0.69808(2) 0.10766(2)
Zn1_2 Zn 0.99437(8) 0.45849(7) 0.76194(6)
Zn2_2 Zn 0.63302(7) 0.66124(5) 0.94263(4)
N1_2 N 0.5132(12) 0.9918(7) 0.8342(6)
N2_2 N 0.2280(10) 0.8999(9) 0.9003(6)
N12_2 N 0.8444(7) 0.5424(6) 0.7588(4)
N13_2 N 0.9031(7) 0.5097(6) 0.7337(4)
N14_2 N 0.8939(8) 0.5171(6) 0.6886(4)
N15_2 N 0.8296(7) 0.5592(6) 0.6819(4)
O3_2 O 0.3504(6) 0.8509(5) 0.8928(4)
O4_2 O 0.5279(6) 0.8941(4) 0.8551(4)
O5_2 O 0.4732(6) 0.8690(4) 0.9633(3)
H1_2 H 0.495(7) 0.844(5) 0.988(3)
H2_2 H 0.423(5) 0.886(5) 0.977(3)
O11_2 O 0.9632(5) 0.8801(4) 0.4714(3)
O12_2 O 0.9906(8) 0.3785(6) 0.7293(5)
O13_2 O 0.9678(7) 0.4329(5) 0.8276(4)
O19_2 O 0.5795(5) 0.7357(4) 0.8530(3)
O20_2 O 0.6532(5) 0.6511(4) 0.8741(3)
O21_2 O 0.6832(5) 0.7349(4) 0.9686(3)
O22_2 O 0.6199(5) 0.8146(3) 0.9313(3)
C1_2 C 0.1393(11) 0.9134(10) 0.9083(7)
H7_2 H 0.1060 0.8770 0.9016
H8_2 H 0.1219 0.9467 0.8875
H9_2 H 0.1310 0.9256 0.9412
C2_2 C 0.2925(14) 0.9609(11) 0.8851(8)
H10_2 H 0.3472 0.9453 0.8756
H11_2 H 0.2990 0.9880 0.9123
H12_2 H 0.2674 0.9836 0.8590
C3_2 C 0.2752(11) 0.8582(10) 0.8990(6)
C4_2 C 0.2148(12) 0.8019(10) 0.9097(7)
H13_2 H 0.2471 0.7640 0.9093
H14_2 H 0.1711 0.8001 0.8857
H15_2 H 0.1892 0.8072 0.9408
C5_2 C 0.5008(14) 0.9284(11) 0.7705(7)
H16_2 H 0.4548 0.9550 0.7607
H17_2 H 0.4863 0.8858 0.7638
H18_2 H 0.5514 0.9395 0.7532
C6_2 C 0.5174(13) 0.9368(8) 0.8285(7)
H19_2 H 0.5889 0.9895 0.8965
H20_2 H 0.4916 0.9838 0.9085
C27_2 C 0.9843(13) 0.4661(9) 0.8674(7)
C28_2 C 0.9389(14) 0.5317(10) 0.8755(8)
H31_2 H 0.9799 0.5645 0.8716
H32_2 H 0.9155 0.5334 0.9074
H33_2 H 0.8940 0.5368 0.8524
C31_2 C 0.8006(8) 0.5732(6) 0.7255(5)
C32_2 C 0.7344(8) 0.6165(6) 0.7351(5)
C33_2 C 0.6914(7) 0.6482(6) 0.6979(4)
H40_2 H 0.7047 0.6389 0.6661
C34_2 C 0.6302(7) 0.6926(6) 0.7074(4)
C35_2 C 0.6095(7) 0.7086(6) 0.7551(4)
H41_2 H 0.5705 0.7401 0.7617
C36_2 C 0.7097(7) 0.6303(6) 0.7828(5)
H42_2 H 0.7346 0.6085 0.8081
C37_2 C 0.6496(7) 0.6755(5) 0.7928(4)
C38_2 C 0.6250(7) 0.6891(5) 0.8434(4)
C39_2 C 0.5888(7) 0.7274(5) 0.6670(4)
C48_2 C 0.6746(6) 0.7923(5) 0.9579(4)
C49_2 C 0.7413(7) 0.8339(5) 0.9786(4)
C50_2 C 0.8150(7) 0.8108(5) 0.9993(4)
C53_2 C 0.7863(7) 0.9381(5) 0.9988(5)
C54_2 C 0.7270(7) 0.8985(5) 0.9789(4)
H63_2 H 0.6772 0.9146 0.9657
N22_2 N 0.7144(6) 0.5981(4) 0.9688(4)
O31_2 O 0.4656(5) 0.7295(3) 0.9543(3)
O32_2 O 0.5197(5) 0.6348(3) 0.9613(3)
N16_2 N 0.0637(11) 0.6194(9) 0.5588(6)
N17_3 N 0.0171(10) 0.5080(5) 0.3602(5)
O16_3 O 0.1618(5) 0.6958(4) 0.4219(3)
H5_3 H 0.206(6) 0.668(4) 0.413(4)
H6_3 H 0.149(7) 0.684(5) 0.4540(17)
O17_3 O 0.0377(7) 0.6497(5) 0.4819(4)
O18_3 O 0.0002(7) 0.6070(4) 0.3778(3)
C40_2 C 0.0321(12) 0.6131(9) 0.5157(7)
H43_2 H 0.0132 0.5140 0.5154
C42_2 C 0.1083(16) 0.6808(12) 0.5681(9)
H46_2 H 0.1295 0.6814 0.6005
H47_2 H 0.0688 0.7144 0.5636
H48_2 H 0.1550 0.6854 0.5460
C43_2 C 0.0660(15) 0.5690(11) 0.5937(8)
H49_2 H 0.0118 0.5659 0.6094
H50_2 H 0.1095 0.5773 0.6171
H51_2 H 0.0784 0.5306 0.5775
C44_3 C 0.1356(10) 0.5709(8) 0.3481(6)
H52_3 H 0.1424 0.6133 0.3378
H53_3 H 0.1496 0.5434 0.3221
H54_3 H 0.1728 0.5629 0.3748
C45_3 C 0.0463(10) 0.5604(6) 0.3629(6)
C46_2 C 0.0607(13) 0.4525(8) 0.3447(8)
H55_2 H 0.1199 0.4555 0.3530
H56_2 H 0.0551 0.4482 0.3105
H57_2 H 0.0361 0.4169 0.3603
O29_2 O 0.0631(5) 0.7180(4) 0.3260(3)
O30_2 O 0.0846(5) 0.7987(4) 0.3730(3)
N1_3 N 0.0132(12) 0.5082(7) 0.1658(6)
N3_3 N 0.7945(6) 0.4638(4) 0.4673(4)
N5_3 N 0.7088(6) 0.3877(4) 0.4843(4)
N6_3 N 0.6673(6) 0.4396(4) 0.4935(4)
N7_3 N 0.7162(8) 0.9679(6) 0.1947(5)
N9_3 N 0.6045(8) 0.9985(6) 0.2332(5)
N10_3 N 0.6369(7) 0.9519(6) 0.2593(4)
N12_3 N 0.3444(7) 0.9576(6) 0.2412(4)
N13_3 N 0.4031(7) 0.9903(6) 0.2663(4)
N14_3 N 0.3939(8) 0.9829(6) 0.3114(4)
N15_3 N 0.3296(7) 0.9408(6) 0.3181(4)
N18_3 N 0.2162(6) 0.4644(4) 0.0287(4)
O1_2 O 0.8953(5) 0.7828(4) 0.1402(3)
O2_2 O 0.9303(5) 0.7111(4) 0.1914(3)
O4_3 O 0.0279(6) 0.6059(4) 0.1449(4)
O6_3 O 0.8327(5) 0.8478(4) 0.3869(3)
O7_3 O 0.9045(5) 0.7632(4) 0.3676(3)
O8_3 O 0.8014(5) 0.7620(4) 0.4772(3)
O9_3 O 0.8789(5) 0.6852(4) 0.4453(3)
O19_3 O 0.0795(5) 0.7643(4) 0.1470(3)
O20_3 O 0.1532(5) 0.8489(4) 0.1259(3)
O21_3 O 0.1832(5) 0.7651(4) 0.0314(3)
O22_3 O 0.1199(5) 0.6854(3) 0.0687(3)
C5_3 C 0.0008(14) 0.5716(11) 0.2295(7)
H18_3 H 0.0514 0.5605 0.2468
C6_3 C 0.0174(13) 0.5632(8) 0.1715(7)
C7_3 C 0.0330(14) 0.4953(9) 0.1111(8)
H19_3 H 0.0889 0.5105 0.1035
H21_3 H 0.0305 0.4513 0.1051
C8_3 C 0.0049(16) 0.4524(8) 0.1926(8)
H22_3 H 0.0543 0.4467 0.2124
C9_3 C 0.8973(7) 0.7612(6) 0.1818(4)
C10_3 C 0.8554(7) 0.7987(6) 0.2220(4)
C11_3 C 0.8021(8) 0.8467(6) 0.2102(5)
H25_3 H 0.7923 0.8562 0.1781
C12_3 C 0.7618(8) 0.8822(7) 0.2468(5)
C13_3 C 0.7802(7) 0.8681(6) 0.2938(5)
H26_3 H 0.7550 0.8913 0.3182
C14_3 C 0.8731(7) 0.7845(6) 0.2696(4)
H27_3 H 0.9095 0.7518 0.2772
C15_3 C 0.8356(7) 0.8199(6) 0.3059(4)
C16_3 C 0.8585(7) 0.8091(6) 0.3566(4)
C17_3 C 0.8158(6) 0.7060(5) 0.4665(4)
C18_3 C 0.7473(6) 0.6597(5) 0.4798(4)
C19_3 C 0.7613(7) 0.5962(5) 0.4741(4)
H28_3 H 0.8129 0.5829 0.4612
C20_3 C 0.7020(7) 0.5528(5) 0.4868(4)
C21_3 C 0.6232(7) 0.5731(5) 0.5048(4)
H29_3 H 0.5816 0.5445 0.5137
C22_3 C 0.6084(7) 0.6365(5) 0.5091(4)
C23_3 C 0.6698(6) 0.6794(5) 0.4991(4)
H30_3 H 0.6602 0.7214 0.5051
C24_3 C 0.7200(7) 0.4864(5) 0.4830(4)
C25_3 C 0.5221(7) 0.6593(5) 0.5250(4)
C26_3 C 0.7050(9) 0.9338(7) 0.2346(5)
C28_3 C 0.4389(14) 0.9683(10) 0.1245(8)
H31_3 H 0.4799 0.9355 0.1284
H32_3 H 0.4155 0.9666 0.0926
H33_3 H 0.3940 0.9632 0.1476
H37_3 H 0.6049 0.9823 0.0707
H39_3 H 0.5131 0.9844 0.0484
C31_3 C 0.3006(8) 0.9268(6) 0.2745(5)
C32_3 C 0.2344(8) 0.8835(6) 0.2649(5)
C33_3 C 0.1914(7) 0.8518(6) 0.3021(4)
H40_3 H 0.2047 0.8611 0.3339
C34_3 C 0.1302(7) 0.8074(6) 0.2926(4)
C35_3 C 0.1095(7) 0.7914(6) 0.2449(4)
H41_3 H 0.0705 0.7599 0.2383
C36_3 C 0.2097(7) 0.8697(6) 0.2172(5)
H42_3 H 0.2346 0.8915 0.1919
C37_3 C 0.1496(7) 0.8245(5) 0.2072(4)
C38_3 C 0.1250(7) 0.8109(5) 0.1566(4)
C39_3 C 0.0888(7) 0.7726(5) 0.3330(4)
C41_3 C 0.9788(13) 0.5491(8) 0.5065(7)
H44_3 H 0.9639 0.5461 0.4731
H45_3 H 0.9278 0.5495 0.5256
C47_3 C 0.9289(12) 0.4974(8) 0.3767(7)
H58_3 H 0.9259 0.4585 0.3937
H59_3 H 0.8914 0.4962 0.3495
H60_3 H 0.9121 0.5306 0.3978
C48_3 C 0.1746(6) 0.7077(5) 0.0421(4)
C49_3 C 0.2413(7) 0.6661(5) 0.0214(4)
C50_3 C 0.3150(7) 0.6892(5) 0.0007(4)
C53_3 C 0.2863(7) 0.5619(5) 0.0012(5)
C54_3 C 0.2270(7) 0.6015(5) 0.0211(4)
H63_3 H 0.1772 0.5854 0.0343
C55_3 C 0.2702(7) 0.4944(5) 0.0001(4)
N20_2 N 0.2719(6) 0.3993(5) 0.9787(4)
N21_2 N 0.3054(7) 0.4552(4) 0.9692(4)
H61_3 H 0.3235 0.7320 0.9984
C51_3 C 0.3752(7) 0.6488(5) 0.9836(4)
C52_3 C 0.3613(7) 0.5848(5) 0.9832(4)
H62_3 H 0.4024 0.5580 0.9709
C56_3 C 0.4593(6) 0.6735(5) 0.9639(4)
N2_3 N 0.7280(10) 0.6001(9) 0.0997(6)
O3_3 O 0.8504(6) 0.6491(5) 0.1072(4)
O5_3 O 0.9732(6) 0.6310(4) 0.0367(3)
H1_3 H 0.995(7) 0.656(5) 0.012(3)
H2_3 H 0.923(5) 0.614(5) 0.023(3)
C1_3 C 0.6393(11) 0.5866(10) 0.0917(7)
H7_3 H 0.6060 0.6230 0.0984
H8_3 H 0.6219 0.5533 0.1125
H9_3 H 0.6310 0.5744 0.0588
C2_3 C 0.7925(14) 0.5391(11) 0.1149(8)
H10_3 H 0.8472 0.5547 0.1244
H11_3 H 0.7990 0.5120 0.0877
H12_3 H 0.7674 0.5164 0.1410
C3_3 C 0.7752(11) 0.6418(10) 0.1010(6)
C4_3 C 0.7148(12) 0.6981(10) 0.0903(7)
H13_3 H 0.7471 0.7360 0.0907
H14_3 H 0.6711 0.6999 0.1143
H15_3 H 0.6892 0.6928 0.0592
H16_3 H 0.9548 0.5450 0.2393
H17_3 H 0.9863 0.6142 0.2362
H20_3 H 0.9916 0.5162 0.0915
H23_2 H 0.9995 0.4177 0.1709
H24_2 H 0.9551 0.4548 0.2125
N1_4 N 0.4868(12) 0.4918(7) 0.6658(6)
N2_4 N 0.7720(10) 0.3999(9) 0.5997(6)
N12_4 N 0.1556(7) 0.0424(6) 0.7412(4)
N13_4 N 0.0969(7) 0.0097(6) 0.7663(4)
N14_4 N 0.1061(8) 0.0171(6) 0.8114(4)
N15_4 N 0.1704(7) 0.0592(6) 0.8181(4)
N18_4 N 0.2838(6) 0.5356(4) 0.5287(4)
N20_3 N 0.2281(6) 0.6007(5) 0.4787(4)
N21_3 N 0.1946(7) 0.5448(4) 0.4692(4)
O3_4 O 0.6496(6) 0.3509(5) 0.6072(4)
O4_4 O 0.4721(6) 0.3941(4) 0.6449(4)
O5_4 O 0.5268(6) 0.3690(4) 0.5367(3)
H1_4 H 0.505(7) 0.344(5) 0.512(3)
H2_4 H 0.577(5) 0.386(5) 0.523(3)
O14_2 O 0.4369(5) 0.2820(4) 0.8260(3)
O15_2 O 0.4154(5) 0.2013(4) 0.8730(3)
O19_4 O 0.4205(5) 0.2357(4) 0.6470(3)
O20_4 O 0.3468(5) 0.1511(4) 0.6259(3)
O21_4 O 0.3168(5) 0.2349(4) 0.5314(3)
O22_4 O 0.3801(5) 0.3146(3) 0.5687(3)
C1_4 C 0.8607(11) 0.4134(10) 0.5917(7)
H7_4 H 0.8940 0.3770 0.5984
H8_4 H 0.8781 0.4467 0.6125
H9_4 H 0.8690 0.4256 0.5588
C2_4 C 0.7075(14) 0.4609(11) 0.6149(8)
H10_4 H 0.6528 0.4453 0.6244
H11_4 H 0.7010 0.4880 0.5877
H12_4 H 0.7326 0.4836 0.6410
C3_4 C 0.7248(11) 0.3582(10) 0.6010(6)
C4_4 C 0.7852(12) 0.3019(10) 0.5903(7)
H13_4 H 0.7529 0.2640 0.5907
H14_4 H 0.8289 0.3001 0.6143
H15_4 H 0.8108 0.3072 0.5592
C5_4 C 0.4992(14) 0.4284(11) 0.7295(7)
H16_4 H 0.5452 0.4550 0.7393
H17_4 H 0.5137 0.3858 0.7362
H18_4 H 0.4486 0.4395 0.7468
C6_4 C 0.4826(13) 0.4368(8) 0.6715(7)
C7_4 C 0.4670(14) 0.5047(9) 0.6111(8)
H19_4 H 0.4111 0.4895 0.6035
H20_4 H 0.5084 0.4838 0.5915
H21_4 H 0.4695 0.5487 0.6051
C8_4 C 0.4951(16) 0.5476(8) 0.6926(8)
H22_4 H 0.4457 0.5533 0.7124
H23_3 H 0.5005 0.5823 0.6709
H24_3 H 0.5449 0.5452 0.7125
C28_4 C 0.0611(14) 0.0317(10) 0.6245(8)
H31_4 H 0.0201 0.0645 0.6284
H32_4 H 0.0845 0.0334 0.5926
H33_4 H 0.1060 0.0368 0.6476
C31_4 C 0.1994(8) 0.0732(6) 0.7745(5)
C32_4 C 0.2656(8) 0.1165(6) 0.7649(5)
C33_4 C 0.3086(7) 0.1482(6) 0.8021(4)
H40_4 H 0.2953 0.1389 0.8339
C34_4 C 0.3698(7) 0.1926(6) 0.7926(4)
C35_4 C 0.3905(7) 0.2086(6) 0.7449(4)
H41_4 H 0.4295 0.2401 0.7383
C36_4 C 0.2903(7) 0.1303(6) 0.7172(5)
H42_4 H 0.2654 0.1085 0.6919
C37_4 C 0.3504(7) 0.1755(5) 0.7072(4)
C38_4 C 0.3750(7) 0.1891(5) 0.6566(4)
C39_4 C 0.4112(7) 0.2274(5) 0.8330(4)
C48_4 C 0.3254(6) 0.2923(5) 0.5421(4)
C49_4 C 0.2587(7) 0.3339(5) 0.5214(4)
C50_4 C 0.1850(7) 0.3108(5) 0.5007(4)
H61_4 H 0.1765 0.2680 0.4984
C51_4 C 0.1248(7) 0.3512(5) 0.4836(4)
C52_4 C 0.1387(7) 0.4152(5) 0.4832(4)
H62_4 H 0.0976 0.4420 0.4709
C53_4 C 0.2137(7) 0.4381(5) 0.5012(5)
C54_4 C 0.2730(7) 0.3985(5) 0.5211(4)
H63_4 H 0.3228 0.4146 0.5343
C55_4 C 0.2298(7) 0.5056(5) 0.5001(4)
C56_4 C 0.0407(6) 0.3265(5) 0.4639(4)
O25_2 O 0.6047(5) 0.2172(4) 0.6402(3)
O26_2 O 0.5697(5) 0.2889(4) 0.6914(3)
N16_3 N 0.4363(11) 0.3806(9) 0.0588(6)
C21_4 C 0.8768(7) 0.4269(5) 0.0048(4)
H29_4 H 0.9184 0.4555 0.0137
C22_4 C 0.8916(7) 0.3635(5) 0.0091(4)
H30_4 H 0.8398 0.2786 0.0051
C25_4 C 0.9779(7) 0.3407(5) 0.0250(4)
C40_3 C 0.4679(12) 0.3869(9) 0.0157(7)
C41_4 C 0.5212(13) 0.4509(8) 0.0065(7)
H43_3 H 0.4868 0.4860 0.0154
H45_4 H 0.5722 0.4505 0.0256
C42_3 C 0.3917(16) 0.3192(12) 0.0681(9)
H46_3 H 0.3705 0.3186 0.1005
H47_3 H 0.4312 0.2856 0.0636
H48_3 H 0.3450 0.3146 0.0460
C43_3 C 0.4340(15) 0.4310(11) 0.0937(8)
H49_3 H 0.4882 0.4341 0.1094
H50_3 H 0.3905 0.4227 0.1171
H51_3 H 0.4216 0.4694 0.0775
N3_4 N 0.7055(6) 0.5362(4) 0.9673(4)
N5_4 N 0.7912(6) 0.6123(4) 0.9843(4)
N6_4 N 0.8327(6) 0.5604(4) 0.9935(4)
N7_4 N 0.7838(8) 0.0321(6) 0.6947(5)
N9_4 N 0.8955(8) 0.0015(6) 0.7332(5)
N10_4 N 0.8631(7) 0.0481(6) 0.7593(4)
N17_4 N 0.4829(10) 0.4920(5) 0.8602(5)
O6_4 O 0.6673(5) 0.1522(4) 0.8869(3)
O7_4 O 0.5955(5) 0.2368(4) 0.8676(3)
O8_4 O 0.6986(5) 0.2380(4) 0.9772(3)
O9_4 O 0.6211(5) 0.3148(4) 0.9453(3)
O16_4 O 0.3382(5) 0.3042(4) 0.9219(3)
H5_4 H 0.294(6) 0.332(4) 0.913(4)
H6_4 H 0.351(7) 0.316(5) 0.9540(17)
O17_4 O 0.4623(7) 0.3503(5) 0.9819(4)
O18_4 O 0.4998(7) 0.3930(4) 0.8778(3)
C9_4 C 0.6027(7) 0.2388(6) 0.6818(4)
C10_4 C 0.6446(7) 0.2013(6) 0.7220(4)
C11_4 C 0.6979(8) 0.1533(6) 0.7102(5)
H25_4 H 0.7077 0.1438 0.6781
C12_4 C 0.7382(8) 0.1178(7) 0.7468(5)
C13_4 C 0.7198(7) 0.1319(6) 0.7938(5)
H26_4 H 0.7450 0.1087 0.8182
C14_4 C 0.6269(7) 0.2155(6) 0.7696(4)
H27_4 H 0.5905 0.2482 0.7772
C15_4 C 0.6644(7) 0.1801(6) 0.8059(4)
C16_4 C 0.6415(7) 0.1909(6) 0.8566(4)
C17_4 C 0.6842(6) 0.2940(5) 0.9665(4)
C18_4 C 0.7527(6) 0.3403(5) 0.9798(4)
C19_4 C 0.7387(7) 0.4038(5) 0.9741(4)
H28_4 H 0.6871 0.4171 0.9612
C20_4 C 0.7980(7) 0.4472(5) 0.9868(4)
C23_4 C 0.8302(6) 0.3206(5) 0.9991(4)
C24_4 C 0.7800(7) 0.5136(5) 0.9830(4)
C26_4 C 0.7950(9) 0.0662(7) 0.7346(5)
H37_4 H 0.8951 0.0177 0.5707
H39_4 H 0.9869 0.0156 0.5484
H44_4 H 0.5361 0.4539 0.9731
C44_4 C 0.3644(10) 0.4291(8) 0.8481(6)
H52_4 H 0.3576 0.3867 0.8378
H53_4 H 0.3504 0.4566 0.8221
H54_4 H 0.3272 0.4371 0.8748
C45_4 C 0.4537(10) 0.4396(6) 0.8629(6)
C46_3 C 0.4393(13) 0.5475(8) 0.8447(8)
H55_3 H 0.3801 0.5445 0.8530
H56_3 H 0.4449 0.5518 0.8105
H57_3 H 0.4639 0.5831 0.8603
C47_4 C 0.5711(12) 0.5026(8) 0.8767(7)
H58_4 H 0.5741 0.5415 0.8937
H59_4 H 0.6086 0.5038 0.8495
H60_4 H 0.5879 0.4694 0.8978
H23_4 H 0.0005 0.9177 0.3291
H24_4 H 0.0449 0.9548 0.2875
N16_4 N 0.9363(11) 0.1194(9) 0.9412(6)
C40_4 C 0.9679(12) 0.1131(9) 0.9843(7)
H43_4 H 0.9868 0.0140 0.9846
C42_4 C 0.8917(16) 0.1808(12) 0.9319(9)
H46_4 H 0.8705 0.1814 0.8995
H47_4 H 0.9312 0.2144 0.9364
H48_4 H 0.8450 0.1854 0.9540
C43_4 C 0.9340(15) 0.0690(11) 0.9063(8)
H49_4 H 0.9882 0.0659 0.8906
H50_4 H 0.8905 0.0773 0.8829
H51_4 H 0.9216 0.0306 0.9225
C46_4 C 0.9393(13) 0.9525(8) 0.1553(8)
H55_4 H 0.8801 0.9555 0.1470
H56_4 H 0.9449 0.9482 0.1895
H57_4 H 0.9639 0.9169 0.1397
N20_4 N 0.7719(6) 0.1007(5) 0.0213(4)
N21_4 N 0.8054(7) 0.0448(4) 0.0308(4)
Zn1_3 Zn 0.49437(8) 0.04151(7) 0.23806(6)
N8_3 N 0.6521(8) 0.0078(7) 0.1949(5)
N11_3 N 0.5296(11) 0.0475(8) 0.1019(6)
O12_3 O 0.4906(8) 0.1215(6) 0.2707(5)
H3_3 H 0.522(9) 0.133(5) 0.243(3)
H4_3 H 0.509(11) 0.080(3) 0.276(6)
O13_3 O 0.4678(7) 0.0671(5) 0.1724(4)
C27_3 C 0.4843(13) 0.0339(9) 0.1326(7)
C29_3 C 0.5760(15) 0.1125(10) 0.1103(9)
H34_3 H 0.5342 0.1451 0.1116
H35_3 H 0.6147 0.1203 0.0843
H36_3 H 0.6069 0.1112 0.1400
C30_3 C 0.5595(13) 0.0091(10) 0.0604(7)
H38_3 H 0.5797 0.0361 0.0353
Zn1_4 Zn 0.00563(8) 0.95849(7) 0.73806(6)
O12_4 O 0.0094(8) 0.8785(6) 0.7707(5)
O13_4 O 0.0322(7) 0.9329(5) 0.6724(4)
C27_4 C 0.0157(13) 0.9661(9) 0.6326(7)
N8_4 N 0.8479(8) 0.9922(7) 0.6949(5)
N11_4 N 0.9704(11) 0.9525(8) 0.6019(6)
H3_4 H 0.978(9) 0.867(5) 0.743(3)
H4_4 H 0.991(11) 0.920(3) 0.776(6)
C29_4 C 0.9240(15) 0.8875(10) 0.6103(9)
H34_4 H 0.9658 0.8549 0.6116
H35_4 H 0.8853 0.8797 0.5843
H36_4 H 0.8931 0.8888 0.6400
C30_4 C 0.9405(13) 0.9909(10) 0.5604(7)
H38_4 H 0.9203 0.9639 0.5353
loop_
_geom_bond_atom_site_label_1
_geom_bond_atom_site_label_2
_geom_bond_site_symmetry_1
_geom_bond_site_symmetry_2
Eu1 O3 1_555 1_555
N2 C1 1_555 1_555
O3 C3 1_555 1_555
O5 Eu1 1_555 1_555
H1 O5 1_555 1_555
H2 O5 1_555 1_555
C1 H7 1_555 1_555
H8 C1 1_555 1_555
H9 C1 1_555 1_555
C2 N2 1_555 1_555
H10 C2 1_555 1_555
H11 C2 1_555 1_555
H12 C2 1_555 1_555
C3 N2 1_555 1_555
C4 C3 1_555 1_555
H13 C4 1_555 1_555
H14 C4 1_555 1_555
H15 C4 1_555 1_555
O25 Eu1 1_555 1_555
O26 Eu1 1_555 1_555
O31 Eu1 1_555 1_555
Zn1 N9 1_555 1_555
Zn2 O20 1_555 1_555
Zn3 O6 1_555 1_555
N1 C6 1_555 1_555
N7 N8 1_555 1_555
N8 N9 1_555 1_555
N9 N10 1_555 1_555
N10 C26 1_555 1_555
N11 C27 1_555 1_555
N12 N13 1_555 1_555
N13 Zn1 1_555 1_555
N14 N13 1_555 1_555
N15 N14 1_555 1_555
O25 C9 1_555 1_555
O26 C9 1_555 1_555
O6 C16 1_555 1_555
O7 C16 1_555 1_555
O8 Zn3 1_555 1_555
O12 Zn1 1_555 1_555
H3 O12 1_555 1_555
H4 O12 1_555 1_555
O13 Zn1 1_555 1_555
O14 C39 1_555 1_555
O15 C39 1_555 1_555
O20 C38 1_555 1_555
O21 Zn2 1_555 1_555
O23 C56 1_555 1_555
O24 C56 1_555 1_555
H18 C5 1_555 1_555
C6 O4 1_555 1_555
C9 C10 1_555 1_555
C10 C11 1_555 1_555
C11 H25 1_555 1_555
C12 C11 1_555 1_555
C13 C12 1_555 1_555
H26 C13 1_555 1_555
C14 C10 1_555 1_555
H27 C14 1_555 1_555
C15 C13 1_555 1_555
C16 C15 1_555 1_555
C17 O8 1_555 1_555
C18 C17 1_555 1_555
C19 C18 1_555 1_555
H28 C19 1_555 1_555
C20 C19 1_555 1_555
C23 C18 1_555 1_555
C26 N7 1_555 1_555
C27 O13 1_555 1_555
C28 C27 1_555 1_555
H31 C28 1_555 1_555
H32 C28 1_555 1_555
H33 C28 1_555 1_555
C29 N11 1_555 1_555
H34 C29 1_555 1_555
H35 C29 1_555 1_555
H36 C29 1_555 1_555
C30 N11 1_555 1_555
H37 C30 1_555 1_555
H38 C30 1_555 1_555
H39 C30 1_555 1_555
C31 N12 1_555 1_555
C32 C31 1_555 1_555
C33 C32 1_555 1_555
H40 C33 1_555 1_555
C34 C33 1_555 1_555
C35 C34 1_555 1_555
H41 C35 1_555 1_555
C36 C32 1_555 1_555
H42 C36 1_555 1_555
C37 C35 1_555 1_555
C38 O19 1_555 1_555
C39 C34 1_555 1_555
C48 O21 1_555 1_555
C49 C48 1_555 1_555
C50 C49 1_555 1_555
H61 C50 1_555 1_555
C51 C50 1_555 1_555
C52 C51 1_555 1_555
H62 C52 1_555 1_555
C53 C52 1_555 1_555
C54 C49 1_555 1_555
H63 C54 1_555 1_555
C56 C51 1_555 1_555
Eu4 O23 1_555 1_555
Eu5 O14 1_555 1_555
Zn5 O24 1_555 1_555
N22 Zn2 1_555 1_555
N23 Zn3 1_555 1_555
O28 Zn3 1_555 1_555
O32 Zn2 1_555 1_555
N15 C31 1_555 1_555
O9 C17 1_555 1_555
O15 Eu5 1_555 1_555
O22 C48 1_555 1_555
C5 C6 1_555 1_555
C12 C26 1_555 1_555
C14 C15 1_555 1_555
C36 C37 1_555 1_555
C37 C38 1_555 1_555
C53 C54 1_555 1_555
O10 C25 1_555 1_555
O11 C25 1_555 1_555
H29 C21 1_555 1_555
C22 C21 1_555 1_555
C25 C22 1_555 1_555
H45 C41 1_555 1_555
Eu6 O10 1_555 1_555
Zn7 O11 1_555 1_555
N3 N4 1_555 1_555
N4 N5 1_555 1_555
N5 N6 1_555 1_555
N6 C24 1_555 1_555
N18 N19 1_555 1_555
N19 N20 1_555 1_555
N20 N21 1_555 1_555
N21 C55 1_555 1_555
H21 C7 1_555 1_555
H22 C8 1_555 1_555
C24 N3 1_555 1_555
H58 C47 1_555 1_555
H59 C47 1_555 1_555
C55 N18 1_555 1_555
Zn4 N4 1_555 1_555
Zn6 N19 1_555 1_555
N17 C45 1_555 1_555
O16 Eu5 1_555 1_555
H5 O16 1_555 1_555
H6 O16 1_555 1_555
O17 Eu5 1_555 1_555
O18 Eu5 1_555 1_555
C44 H52 1_555 1_555
H53 C44 1_555 1_555
H54 C44 1_555 1_555
C45 O18 1_555 1_555
O27 Eu5 1_555 1_555
C44 C45 1_555 1_555
N3_2 N4_2 1_555 1_555
N4_2 N5_2 1_555 1_555
N5_2 N6_2 1_555 1_555
N6_2 C24_2 1_555 1_555
C24_2 N3_2 1_555 1_555
H55 C46 1_555 1_555
H56 C46 1_555 1_555
H57 C46 1_555 1_555
H58_2 C47_2 1_555 1_555
H59_2 C47_2 1_555 1_555
Zn5 N4_2 1_555 1_555
Zn4 O24_2 1_555 1_555
Eu2 O7_2 1_555 1_555
Zn3_2 O6_2 1_555 1_555
N7_2 N8_2 1_555 1_555
N8_2 N9_2 1_555 1_555
N9_2 N10_2 1_555 1_555
N10_2 C26_2 1_555 1_555
N16 C40 1_555 1_555
N17_2 C45_2 1_555 1_555
O1 C9_2 1_555 1_555
O2 C9_2 1_555 1_555
O6_2 C16_2 1_555 1_555
O7_2 C16_2 1_555 1_555
O8_2 Zn3_2 1_555 1_555
O9_2 Eu2 1_555 1_555
O10_2 C25_2 1_555 1_555
O16_2 Eu2 1_555 1_555
H5_2 O16_2 1_555 1_555
H6_2 O16_2 1_555 1_555
O17_2 Eu2 1_555 1_555
O18_2 Eu2 1_555 1_555
C9_2 C10_2 1_555 1_555
C10_2 C11_2 1_555 1_555
C11_2 H25_2 1_555 1_555
C12_2 C11_2 1_555 1_555
C13_2 C12_2 1_555 1_555
H26_2 C13_2 1_555 1_555
C14_2 C10_2 1_555 1_555
H27_2 C14_2 1_555 1_555
C15_2 C13_2 1_555 1_555
C16_2 C15_2 1_555 1_555
C17_2 O8_2 1_555 1_555
C18_2 C17_2 1_555 1_555
C19_2 C18_2 1_555 1_555
H28_2 C19_2 1_555 1_555
C20_2 C19_2 1_555 1_555
C21_2 C20_2 1_555 1_555
H29_2 C21_2 1_555 1_555
C22_2 C21_2 1_555 1_555
C23_2 C18_2 1_555 1_555
H30_2 C23_2 1_555 1_555
C25_2 C22_2 1_555 1_555
C26_2 N7_2 1_555 1_555
C29_2 N11_2 1_555 1_555
H34_2 C29_2 1_555 1_555
H35_2 C29_2 1_555 1_555
H36_2 C29_2 1_555 1_555
C30_2 N11_2 1_555 1_555
H37_2 C30_2 1_555 1_555
H38_2 C30_2 1_555 1_555
H39_2 C30_2 1_555 1_555
C40 O17_2 1_555 1_555
C41_2 C40 1_555 1_555
H43 C41_2 1_555 1_555
H44_2 C41_2 1_555 1_555
H45_2 C41_2 1_555 1_555
C42 N16 1_555 1_555
H46 C42 1_555 1_555
H47 C42 1_555 1_555
H48 C42 1_555 1_555
C43 N16 1_555 1_555
H49 C43 1_555 1_555
H50 C43 1_555 1_555
H51 C43 1_555 1_555
C44_2 H52_2 1_555 1_555
H53_2 C44_2 1_555 1_555
H54_2 C44_2 1_555 1_555
C45_2 O18_2 1_555 1_555
Eu3 O1 1_555 1_555
Eu6_2 O10_2 1_555 1_555
N23_2 Zn3_2 1_555 1_555
O27_2 Eu2 1_555 1_555
O28_2 Zn3_2 1_555 1_555
O29 Eu2 1_555 1_555
O30 Eu2 1_555 1_555
O2 Eu3 1_555 1_555
O9_2 C17_2 1_555 1_555
C12_2 C26_2 1_555 1_555
C14_2 C15_2 1_555 1_555
C22_2 C23_2 1_555 1_555
C44_2 C45_2 1_555 1_555
N18_2 N19_2 1_555 1_555
H21_2 C7_2 1_555 1_555
H22_2 C8_2 1_555 1_555
H23 C8_2 1_555 1_555
H24 C8_2 1_555 1_555
C55_2 N18_2 1_555 1_555
Zn7 N19_2 1_555 1_555
O23_2 C56_2 1_555 1_555
C52_2 C51_2 1_555 1_555
H62_2 C52_2 1_555 1_555
C56_2 C51_2 1_555 1_555
Eu4_2 O23_2 1_555 1_555
Eu3 O3_2 1_555 1_555
Zn2_2 O20_2 1_555 1_555
N1_2 C6_2 1_555 1_555
N2_2 C1_2 1_555 1_555
N12_2 N13_2 1_555 1_555
N13_2 Zn1_2 1_555 1_555
N14_2 N13_2 1_555 1_555
N15_2 N14_2 1_555 1_555
O3_2 C3_2 1_555 1_555
O4_2 Eu3 1_555 1_555
O5_2 Eu3 1_555 1_555
H1_2 O5_2 1_555 1_555
H2_2 O5_2 1_555 1_555
O12_2 Zn1_2 1_555 1_555
O13_2 Zn1_2 1_555 1_555
O29 C39_2 1_555 1_555
O30 C39_2 1_555 1_555
O19_2 Eu3 1_555 1_555
O20_2 C38_2 1_555 1_555
O21_2 Zn2_2 1_555 1_555
O22_2 Eu3 1_555 1_555
C1_2 H7_2 1_555 1_555
H8_2 C1_2 1_555 1_555
H9_2 C1_2 1_555 1_555
C2_2 N2_2 1_555 1_555
H10_2 C2_2 1_555 1_555
H11_2 C2_2 1_555 1_555
H12_2 C2_2 1_555 1_555
C3_2 N2_2 1_555 1_555
C4_2 C3_2 1_555 1_555
H13_2 C4_2 1_555 1_555
H14_2 C4_2 1_555 1_555
H15_2 C4_2 1_555 1_555
C5_2 H16_2 1_555 1_555
H17_2 C5_2 1_555 1_555
H18_2 C5_2 1_555 1_555
C6_2 O4_2 1_555 1_555
C27_2 O13_2 1_555 1_555
C28_2 C27_2 1_555 1_555
H31_2 C28_2 1_555 1_555
H32_2 C28_2 1_555 1_555
H33_2 C28_2 1_555 1_555
C31_2 N12_2 1_555 1_555
C32_2 C31_2 1_555 1_555
C33_2 C32_2 1_555 1_555
H40_2 C33_2 1_555 1_555
C34_2 C33_2 1_555 1_555
C35_2 C34_2 1_555 1_555
H41_2 C35_2 1_555 1_555
C36_2 C32_2 1_555 1_555
H42_2 C36_2 1_555 1_555
C37_2 C35_2 1_555 1_555
C38_2 O19_2 1_555 1_555
C39_2 C34_2 1_555 1_555
C48_2 O21_2 1_555 1_555
C49_2 C48_2 1_555 1_555
C50_2 C49_2 1_555 1_555
C54_2 C49_2 1_555 1_555
H63_2 C54_2 1_555 1_555
Zn6 O11_2 1_555 1_555
N22_2 Zn2_2 1_555 1_555
O31_2 Eu3 1_555 1_555
O32_2 Zn2_2 1_555 1_555
N15_2 C31_2 1_555 1_555
O22_2 C48_2 1_555 1_555
C5_2 C6_2 1_555 1_555
C36_2 C37_2 1_555 1_555
C37_2 C38_2 1_555 1_555
C53_2 C54_2 1_555 1_555
N16_2 C40_2 1_555 1_555
N17_3 C45_3 1_555 1_555
O16_3 Eu6_2 1_555 1_555
H5_3 O16_3 1_555 1_555
H6_3 O16_3 1_555 1_555
O17_3 Eu6_2 1_555 1_555
O18_3 Eu6_2 1_555 1_555
C40_2 O17_3 1_555 1_555
C42_2 N16_2 1_555 1_555
H46_2 C42_2 1_555 1_555
H47_2 C42_2 1_555 1_555
H48_2 C42_2 1_555 1_555
C43_2 N16_2 1_555 1_555
H49_2 C43_2 1_555 1_555
H50_2 C43_2 1_555 1_555
H51_2 C43_2 1_555 1_555
C44_3 H52_3 1_555 1_555
H53_3 C44_3 1_555 1_555
H54_3 C44_3 1_555 1_555
C45_3 O18_3 1_555 1_555
C46_2 N17_3 1_555 1_555
H55_2 C46_2 1_555 1_555
H56_2 C46_2 1_555 1_555
H57_2 C46_2 1_555 1_555
O29_2 Eu6_2 1_555 1_555
O30_2 Eu6_2 1_555 1_555
C44_3 C45_3 1_555 1_555
Zn4 O20_3 1_555 1_555
Zn6 O6_3 1_555 1_555
N1_3 C6_3 1_555 1_555
N3_3 N22 1_555 1_555
N22 N5_3 1_555 1_555
N5_3 N6_3 1_555 1_555
N6_3 C24_3 1_555 1_555
N9_3 N10_3 1_555 1_555
N10_3 C26_3 1_555 1_555
N12_3 N13_3 1_555 1_555
N14_3 N13_3 1_555 1_555
N15_3 N14_3 1_555 1_555
N18_3 N23 1_555 1_555
O1_2 C9_3 1_555 1_555
O2_2 C9_3 1_555 1_555
O6_3 C16_3 1_555 1_555
O7_3 C16_3 1_555 1_555
O8_3 Zn6 1_555 1_555
O27_2 C25_3 1_555 1_555
O28_2 C25_3 1_555 1_555
O29_2 C39_3 1_555 1_555
O30_2 C39_3 1_555 1_555
O20_3 C38_3 1_555 1_555
O21_3 Zn4 1_555 1_555
H18_3 C5_3 1_555 1_555
C6_3 O4_3 1_555 1_555
C7_3 N1_3 1_555 1_555
H19_3 C7_3 1_555 1_555
H21_3 C7_3 1_555 1_555
C8_3 N1_3 1_555 1_555
H22_3 C8_3 1_555 1_555
C9_3 C10_3 1_555 1_555
C10_3 C11_3 1_555 1_555
C11_3 H25_3 1_555 1_555
C12_3 C11_3 1_555 1_555
C13_3 C12_3 1_555 1_555
H26_3 C13_3 1_555 1_555
C14_3 C10_3 1_555 1_555
H27_3 C14_3 1_555 1_555
C15_3 C13_3 1_555 1_555
C16_3 C15_3 1_555 1_555
C17_3 O8_3 1_555 1_555
C18_3 C17_3 1_555 1_555
C19_3 C18_3 1_555 1_555
H28_3 C19_3 1_555 1_555
C20_3 C19_3 1_555 1_555
C21_3 C20_3 1_555 1_555
H29_3 C21_3 1_555 1_555
C22_3 C21_3 1_555 1_555
C23_3 C18_3 1_555 1_555
H30_3 C23_3 1_555 1_555
C24_3 N3_3 1_555 1_555
C25_3 C22_3 1_555 1_555
C26_3 N7_3 1_555 1_555
H31_3 C28_3 1_555 1_555
H32_3 C28_3 1_555 1_555
H33_3 C28_3 1_555 1_555
C31_3 N12_3 1_555 1_555
C32_3 C31_3 1_555 1_555
C33_3 C32_3 1_555 1_555
H40_3 C33_3 1_555 1_555
C34_3 C33_3 1_555 1_555
C35_3 C34_3 1_555 1_555
H41_3 C35_3 1_555 1_555
C36_3 C32_3 1_555 1_555
H42_3 C36_3 1_555 1_555
C37_3 C35_3 1_555 1_555
C38_3 O19_3 1_555 1_555
C39_3 C34_3 1_555 1_555
H44_3 C41_3 1_555 1_555
H45_3 C41_3 1_555 1_555
H58_3 C47_3 1_555 1_555
H59_3 C47_3 1_555 1_555
H60_3 C47_3 1_555 1_555
C48_3 O21_3 1_555 1_555
C49_3 C48_3 1_555 1_555
C50_3 C49_3 1_555 1_555
C54_3 C49_3 1_555 1_555
H63_3 C54_3 1_555 1_555
C55_3 N18_3 1_555 1_555
Eu4_2 O1_2 1_555 1_555
N15_3 C31_3 1_555 1_555
O2_2 Eu4_2 1_555 1_555
O9_3 C17_3 1_555 1_555
O22_3 C48_3 1_555 1_555
C5_3 C6_3 1_555 1_555
C12_3 C26_3 1_555 1_555
C14_3 C15_3 1_555 1_555
C20_3 C24_3 1_555 1_555
C22_3 C23_3 1_555 1_555
C36_3 C37_3 1_555 1_555
C37_3 C38_3 1_555 1_555
C53_3 C54_3 1_555 1_555
C53_3 C55_3 1_555 1_555
N20_2 N21_2 1_555 1_555
O31_2 C56_3 1_555 1_555
O32_2 C56_3 1_555 1_555
C52_3 C51_3 1_555 1_555
H62_3 C52_3 1_555 1_555
C56_3 C51_3 1_555 1_555
Eu4_2 O3_3 1_555 1_555
N2_3 C1_3 1_555 1_555
O3_3 C3_3 1_555 1_555
O5_3 Eu4_2 1_555 1_555
H1_3 O5_3 1_555 1_555
H2_3 O5_3 1_555 1_555
C1_3 H7_3 1_555 1_555
H8_3 C1_3 1_555 1_555
H9_3 C1_3 1_555 1_555
C2_3 N2_3 1_555 1_555
H10_3 C2_3 1_555 1_555
H11_3 C2_3 1_555 1_555
H12_3 C2_3 1_555 1_555
C3_3 N2_3 1_555 1_555
C4_3 C3_3 1_555 1_555
H13_3 C4_3 1_555 1_555
H14_3 C4_3 1_555 1_555
H15_3 C4_3 1_555 1_555
Eu4 O3_4 1_555 1_555
Zn5 O20_4 1_555 1_555
N1_4 C6_4 1_555 1_555
N2_4 C1_4 1_555 1_555
N12_4 N13_4 1_555 1_555
N14_4 N13_4 1_555 1_555
N15_4 N14_4 1_555 1_555
N18_4 N23_2 1_555 1_555
N23_2 N20_3 1_555 1_555
N20_3 N21_3 1_555 1_555
N21_3 C55_4 1_555 1_555
O3_4 C3_4 1_555 1_555
O4_4 Eu4 1_555 1_555
O5_4 Eu4 1_555 1_555
H1_4 O5_4 1_555 1_555
H2_4 O5_4 1_555 1_555
O14_2 C39_4 1_555 1_555
O15_2 C39_4 1_555 1_555
O19_4 Eu4 1_555 1_555
O20_4 C38_4 1_555 1_555
O21_4 Zn5 1_555 1_555
O22_4 Eu4 1_555 1_555
O31 C56_4 1_555 1_555
C1_4 H7_4 1_555 1_555
H8_4 C1_4 1_555 1_555
H9_4 C1_4 1_555 1_555
C2_4 N2_4 1_555 1_555
H10_4 C2_4 1_555 1_555
H11_4 C2_4 1_555 1_555
H12_4 C2_4 1_555 1_555
C3_4 N2_4 1_555 1_555
C4_4 C3_4 1_555 1_555
H13_4 C4_4 1_555 1_555
H14_4 C4_4 1_555 1_555
H15_4 C4_4 1_555 1_555
C5_4 H16_4 1_555 1_555
H17_4 C5_4 1_555 1_555
H18_4 C5_4 1_555 1_555
C6_4 O4_4 1_555 1_555
C7_4 N1_4 1_555 1_555
H19_4 C7_4 1_555 1_555
H20_4 C7_4 1_555 1_555
H21_4 C7_4 1_555 1_555
C8_4 N1_4 1_555 1_555
H22_4 C8_4 1_555 1_555
H23_3 C8_4 1_555 1_555
H24_3 C8_4 1_555 1_555
H31_4 C28_4 1_555 1_555
H32_4 C28_4 1_555 1_555
H33_4 C28_4 1_555 1_555
C31_4 N12_4 1_555 1_555
C32_4 C31_4 1_555 1_555
C33_4 C32_4 1_555 1_555
H40_4 C33_4 1_555 1_555
C34_4 C33_4 1_555 1_555
C35_4 C34_4 1_555 1_555
H41_4 C35_4 1_555 1_555
C36_4 C32_4 1_555 1_555
H42_4 C36_4 1_555 1_555
C37_4 C35_4 1_555 1_555
C38_4 O19_4 1_555 1_555
C39_4 C34_4 1_555 1_555
C48_4 O21_4 1_555 1_555
C49_4 C48_4 1_555 1_555
C50_4 C49_4 1_555 1_555
H61_4 C50_4 1_555 1_555
C51_4 C50_4 1_555 1_555
C52_4 C51_4 1_555 1_555
H62_4 C52_4 1_555 1_555
C53_4 C52_4 1_555 1_555
C54_4 C49_4 1_555 1_555
H63_4 C54_4 1_555 1_555
C55_4 N18_4 1_555 1_555
C56_4 C51_4 1_555 1_555
Eu6 O14_2 1_555 1_555
O25_2 Eu4 1_555 1_555
O26_2 Eu4 1_555 1_555
N15_4 C31_4 1_555 1_555
O15_2 Eu6 1_555 1_555
O22_4 C48_4 1_555 1_555
C5_4 C6_4 1_555 1_555
C36_4 C37_4 1_555 1_555
C37_4 C38_4 1_555 1_555
C53_4 C54_4 1_555 1_555
C53_4 C55_4 1_555 1_555
N16_3 C40_3 1_555 1_555
O27 C25_4 1_555 1_555
H29_4 C21_4 1_555 1_555
C22_4 C21_4 1_555 1_555
C25_4 C22_4 1_555 1_555
C41_4 C40_3 1_555 1_555
H43_3 C41_4 1_555 1_555
H45_4 C41_4 1_555 1_555
C42_3 N16_3 1_555 1_555
H46_3 C42_3 1_555 1_555
H47_3 C42_3 1_555 1_555
H48_3 C42_3 1_555 1_555
C43_3 N16_3 1_555 1_555
H49_3 C43_3 1_555 1_555
H50_3 C43_3 1_555 1_555
H51_3 C43_3 1_555 1_555
Eu6 O7_4 1_555 1_555
Zn7 O6_4 1_555 1_555
N3_4 N22_2 1_555 1_555
N22_2 N5_4 1_555 1_555
N5_4 N6_4 1_555 1_555
N6_4 C24_4 1_555 1_555
N9_4 N10_4 1_555 1_555
N10_4 C26_4 1_555 1_555
N17_4 C45_4 1_555 1_555
O25_2 C9_4 1_555 1_555
O26_2 C9_4 1_555 1_555
O6_4 C16_4 1_555 1_555
O7_4 C16_4 1_555 1_555
O8_4 Zn7 1_555 1_555
O9_4 Eu6 1_555 1_555
O16_4 Eu6 1_555 1_555
H5_4 O16_4 1_555 1_555
H6_4 O16_4 1_555 1_555
O17_4 Eu6 1_555 1_555
O18_4 Eu6 1_555 1_555
C9_4 C10_4 1_555 1_555
C10_4 C11_4 1_555 1_555
C11_4 H25_4 1_555 1_555
C12_4 C11_4 1_555 1_555
C13_4 C12_4 1_555 1_555
H26_4 C13_4 1_555 1_555
C14_4 C10_4 1_555 1_555
H27_4 C14_4 1_555 1_555
C15_4 C13_4 1_555 1_555
C16_4 C15_4 1_555 1_555
C17_4 O8_4 1_555 1_555
C18_4 C17_4 1_555 1_555
C19_4 C18_4 1_555 1_555
H28_4 C19_4 1_555 1_555
C20_4 C19_4 1_555 1_555
C23_4 C18_4 1_555 1_555
C24_4 N3_4 1_555 1_555
C26_4 N7_4 1_555 1_555
C44_4 H52_4 1_555 1_555
H53_4 C44_4 1_555 1_555
H54_4 C44_4 1_555 1_555
C45_4 O18_4 1_555 1_555
C46_3 N17_4 1_555 1_555
H55_3 C46_3 1_555 1_555
H56_3 C46_3 1_555 1_555
H57_3 C46_3 1_555 1_555
C47_4 N17_4 1_555 1_555
H58_4 C47_4 1_555 1_555
H59_4 C47_4 1_555 1_555
H60_4 C47_4 1_555 1_555
O9_4 C17_4 1_555 1_555
C12_4 C26_4 1_555 1_555
C14_4 C15_4 1_555 1_555
C20_4 C24_4 1_555 1_555
C44_4 C45_4 1_555 1_555
N16_4 C40_4 1_555 1_555
C42_4 N16_4 1_555 1_555
H46_4 C42_4 1_555 1_555
H47_4 C42_4 1_555 1_555
H48_4 C42_4 1_555 1_555
C43_4 N16_4 1_555 1_555
H49_4 C43_4 1_555 1_555
H50_4 C43_4 1_555 1_555
H51_4 C43_4 1_555 1_555
H55_4 C46_4 1_555 1_555
H56_4 C46_4 1_555 1_555
H57_4 C46_4 1_555 1_555
N20_4 N21_4 1_555 1_555
N11_3 C27_3 1_555 1_555
O12_3 Zn1_3 1_555 1_555
H3_3 O12_3 1_555 1_555
H4_3 O12_3 1_555 1_555
O13_3 Zn1_3 1_555 1_555
C27_3 O13_3 1_555 1_555
C29_3 N11_3 1_555 1_555
H34_3 C29_3 1_555 1_555
H35_3 C29_3 1_555 1_555
H36_3 C29_3 1_555 1_555
C30_3 N11_3 1_555 1_555
H38_3 C30_3 1_555 1_555
O12_4 Zn1_4 1_555 1_555
O13_4 Zn1_4 1_555 1_555
C27_4 O13_4 1_555 1_555
C29_4 N11_4 1_555 1_555
H34_4 C29_4 1_555 1_555
H35_4 C29_4 1_555 1_555
H36_4 C29_4 1_555 1_555
C30_4 N11_4 1_555 1_555
H38_4 C30_4 1_555 1_555

#END
