
###############################################################################
#
# This file contains modified crystal structure data generated from the
# MOF subset of the Cambridge Structural Database (CSD) v543 
# hosted by the Cambridge Crystallographic Data Centre (CCDC).
#
# This work is licensed under the Creative Commons
# Attribution-NonCommercial-ShareAlike 4.0 International License.
# To view a copy of this license, visit
# http://creativecommons.org/licenses/by-nc-sa/4.0/
# or send a letter to
# Creative Commons, PO Box 1866, Mountain View, CA 94042, USA.
#
# CIF created using the CSD Python API on 29 September 2022
# The structure has been converted into the P1 space group
# The structure has a 3D framework
# The original CSD entry JABGUR01 is in the rhombohedral crystal system
# The original CSD entry JABGUR01 is in a Sohncke space group
# The framework has been calculated to contain at least 10.0% void space
# The void calculation uses a probe of radius 1.32A, grid spacing 0.4
#
###############################################################################

data_JABGUR01
_chemical_formula_moiety         '(C135 H162 N126 O9 Zn18)n'
_symmetry_cell_setting           triclinic
_symmetry_space_group_name_H-M   'P 1'
_symmetry_Int_Tables_number      1
_space_group_name_Hall           'P 1'
loop_
_symmetry_equiv_pos_site_id
_symmetry_equiv_pos_as_xyz
1 x,y,z
_cell_length_a                   25.4125(7)
_cell_length_b                   25.4125(7)
_cell_length_c                   12.9771(15)
_cell_angle_alpha                90
_cell_angle_beta                 90
_cell_angle_gamma                120
_cell_volume                     7257.77
loop_
_atom_site_label
_atom_site_type_symbol
_atom_site_fract_x
_atom_site_fract_y
_atom_site_fract_z
Zn4 Zn 0.00836(3) 0.77052(2) 0.82978(4)
Zn1 Zn 0.89615(2) 0.57118(2) 0.16311(4)
Zn2 Zn 0.66469(2) 0.56845(2) 0.18533(4)
O1 O 0.80275(19) 0.5188(2) 0.0532(3)
C1 C 0.9530(2) 0.6789(2) 0.0158(3)
C2 C 0.7766(2) 0.55941(19) 0.1961(3)
N1 N 0.5958(2) 0.4495(2) 0.2684(4)
N4 N 0.68511(16) 0.61423(16) 0.0517(3)
C3 C 0.7813(2) 0.6228(2) 0.3112(3)
C4 C 0.8378(2) 0.6265(2) 0.3037(3)
C5 C 0.5468(3) 0.4469(2) 0.1330(5)
N5 N 0.74225(15) 0.57941(16) 0.2415(3)
N6 N 0.83387(15) 0.58582(16) 0.2297(3)
C6 C 0.7299(2) 0.6698(2) 0.0294(4)
N7 N 0.5443(2) 0.3975(2) 0.2665(4)
C7 C 0.7518(2) 0.5105(2) 0.1139(4)
H2 H 0.7227 0.5149 0.0703
N8 N 0.93086(17) 0.62039(17) 0.0345(3)
N10 N 0.51402(15) 0.39609(16) 0.1800(3)
N11 N 0.59790(16) 0.48171(16) 0.1838(3)
C8 C 0.7726(2) 0.6610(3) 0.3775(4)
H3 H 0.7353 0.6594 0.3814
C9 C 0.8874(2) 0.6685(2) 0.3626(4)
H4 H 0.9253 0.6714 0.3574
C10 C 0.7216(3) 0.4482(3) 0.1614(6)
H5 H 0.7065 0.4180 0.1079
H6 H 0.6885 0.4429 0.2042
H7 H 0.7506 0.4438 0.2025
C11 C 0.9571(3) 0.7232(2) 0.0943(4)
H8 H 0.9741 0.7627 0.0636
H9 H 0.9825 0.7245 0.1501
H10 H 0.9172 0.7110 0.1201
C12 C 0.8213(3) 0.7014(3) 0.4373(5)
H11 H 0.8163 0.7264 0.4840
C13 C 0.8776(2) 0.7051(3) 0.4280(4)
H12 H 0.9098 0.7335 0.4677
C14 C 0.7793(4) 0.7112(4) 0.1006(6)
H13 H 0.8059 0.7485 0.0655
H14 H 0.8019 0.6922 0.1225
H15 H 0.7619 0.7197 0.1596
C15 C 0.5294(5) 0.4654(5) 0.0356(8)
H16 H 0.4908 0.4331 0.0123
H18 H 0.5266 0.5012 0.0477
Zn3 Zn 0.42882(2) 0.32497(3) 0.16311(4)
N15 N 0.97456(16) 0.61317(23) 0.2545(3)
N16 N 0.63112(23) 0.61205(17) 0.2701(3)
N17 N 0.88207(22) 0.48598(15) 0.1800(3)
H1 H 0.8036 0.5357 0.9988
N2 N 0.97195(17) 0.69211(16) 0.9212(3)
N3 N 0.72128(17) 0.68573(16) 0.9368(3)
N9 N 0.9370(2) 0.59618(19) 0.9453(3)
N12 N 0.9612(2) 0.63876(18) 0.8774(3)
N13 N 0.6700(2) 0.6383(2) 0.9018(4)
N14 N 0.6487(3) 0.5963(2) 0.9695(4)
H17 H 0.5597 0.4739 0.9839
Zn5 Zn 0.76488(2) 0.76291(3) 0.85200(4)
Zn2_2 Zn 0.43155(2) 0.09624(3) 0.18533(4)
O1_2 O 0.4812(2) 0.28395(28) 0.0532(3)
C1_2 C 0.3211(2) 0.2741(3) 0.0158(3)
C2_2 C 0.44059(19) 0.21719(28) 0.1961(3)
N1_2 N 0.5505(2) 0.1463(3) 0.2684(4)
N4_2 N 0.38577(16) 0.07088(23) 0.0517(3)
C3_2 C 0.3772(2) 0.1585(3) 0.3112(3)
C4_2 C 0.3735(2) 0.2113(3) 0.3037(3)
C5_2 C 0.5531(2) 0.0999(4) 0.1330(5)
N5_2 N 0.42059(16) 0.16284(22) 0.2415(3)
N6_2 N 0.41418(16) 0.24805(22) 0.2297(3)
C6_2 C 0.3302(2) 0.0601(3) 0.0294(4)
N7_2 N 0.6025(2) 0.1468(3) 0.2665(4)
C7_2 C 0.4895(2) 0.2413(3) 0.1139(4)
H2_2 H 0.4851 0.2078 0.0703
N8_2 N 0.37961(17) 0.31047(24) 0.0345(3)
N10_2 N 0.60391(16) 0.11793(22) 0.1800(3)
N11_2 N 0.51829(16) 0.11619(23) 0.1838(3)
C8_2 C 0.3390(3) 0.1116(4) 0.3775(4)
H3_2 H 0.3406 0.0759 0.3814
C9_2 C 0.3315(2) 0.2189(3) 0.3626(4)
H4_2 H 0.3286 0.2539 0.3574
C10_2 C 0.5518(3) 0.2734(4) 0.1614(6)
H5_2 H 0.5820 0.2885 0.1079
H6_2 H 0.5571 0.2456 0.2042
H7_2 H 0.5562 0.3068 0.2025
C11_2 C 0.2768(2) 0.2339(4) 0.0943(4)
H8_2 H 0.2373 0.2114 0.0636
H9_2 H 0.2755 0.2580 0.1501
H10_2 H 0.2890 0.2062 0.1201
C12_2 C 0.2986(3) 0.1199(4) 0.4373(5)
H11_2 H 0.2736 0.0899 0.4840
C13_2 C 0.2949(3) 0.1725(4) 0.4280(4)
H12_2 H 0.2665 0.1763 0.4677
C14_2 C 0.2888(4) 0.0681(6) 0.1006(6)
H13_2 H 0.2515 0.0574 0.0655
H14_2 H 0.3078 0.1097 0.1225
H15_2 H 0.2803 0.0422 0.1596
C15_2 C 0.5346(5) 0.0640(7) 0.0356(8)
H16_2 H 0.5669 0.0577 0.0123
H18_2 H 0.4988 0.0254 0.0477
Zn3_2 Zn 0.67503(3) 0.10385(4) 0.16311(4)
N15_2 N 0.38683(23) 0.36138(28) 0.2545(3)
N16_2 N 0.38795(17) 0.01906(29) 0.2701(3)
H1_2 H 0.4643 0.2679 0.9988
N2_2 N 0.30789(16) 0.27984(23) 0.9212(3)
N3_2 N 0.31427(16) 0.03555(23) 0.9368(3)
N9_2 N 0.40382(19) 0.34082(28) 0.9453(3)
N12_2 N 0.36124(18) 0.32244(27) 0.8774(3)
N13_2 N 0.3617(2) 0.0317(3) 0.9018(4)
N14_2 N 0.4037(2) 0.0524(4) 0.9695(4)
H17_2 H 0.5261 0.0858 0.9839
Zn4_2 Zn 0.22948(2) 0.23785(4) 0.82978(4)
Zn5_2 Zn 0.23709(3) 0.00198(4) 0.85200(4)
Zn2_3 Zn 0.90376(3) 0.33531(2) 0.18533(4)
O1_3 O 0.71605(28) 0.19725(19) 0.0532(3)
C1_3 C 0.7259(3) 0.0470(2) 0.0158(3)
C2_3 C 0.78281(28) 0.2234(2) 0.1961(3)
N1_3 N 0.8537(3) 0.4042(2) 0.2684(4)
N4_3 N 0.92912(23) 0.31489(16) 0.0517(3)
C3_3 C 0.8415(3) 0.2187(2) 0.3112(3)
C4_3 C 0.7887(3) 0.1622(2) 0.3037(3)
C5_3 C 0.9001(4) 0.4532(3) 0.1330(5)
N5_3 N 0.83716(22) 0.25775(15) 0.2415(3)
N6_3 N 0.75195(22) 0.16613(15) 0.2297(3)
C6_3 C 0.9399(3) 0.2701(2) 0.0294(4)
N7_3 N 0.8532(3) 0.4557(2) 0.2665(4)
C7_3 C 0.7587(3) 0.2482(2) 0.1139(4)
H2_3 H 0.7922 0.2773 0.0703
N8_3 N 0.68953(24) 0.06914(17) 0.0345(3)
N11_3 N 0.88381(23) 0.40210(16) 0.1838(3)
C8_3 C 0.8884(4) 0.2274(2) 0.3775(4)
H3_3 H 0.9241 0.2647 0.3814
C9_3 C 0.7811(3) 0.1126(2) 0.3626(4)
H4_3 H 0.7461 0.0747 0.3574
C10_3 C 0.7266(4) 0.2784(3) 0.1614(6)
H5_3 H 0.7115 0.2935 0.1079
H6_3 H 0.7544 0.3115 0.2042
H7_3 H 0.6932 0.2494 0.2025
C11_3 C 0.7661(4) 0.0429(3) 0.0943(4)
H8_3 H 0.7886 0.0259 0.0636
H9_3 H 0.7420 0.0175 0.1501
H10_3 H 0.7938 0.0828 0.1201
C12_3 C 0.8801(4) 0.1787(3) 0.4373(5)
H11_3 H 0.9101 0.1837 0.4840
C13_3 C 0.8275(4) 0.1224(2) 0.4280(4)
H12_3 H 0.8237 0.0902 0.4677
C14_3 C 0.9319(6) 0.2207(4) 0.1006(6)
H13_3 H 0.9426 0.1941 0.0655
H14_3 H 0.8903 0.1981 0.1225
H15_3 H 0.9578 0.2381 0.1596
C15_3 C 0.9360(7) 0.4706(5) 0.0356(8)
H16_3 H 0.9423 0.5092 0.0123
H18_3 H 0.9746 0.4734 0.0477
N15_3 N 0.63862(28) 0.02544(16) 0.2545(3)
N16_3 N 0.98094(29) 0.36888(23) 0.2701(3)
Zn4_3 Zn 0.76215(4) 0.99164(3) 0.82978(4)
C1_4 C 0.6197(2) 0.0122(2) 0.3491(3)
C6_4 C 0.3966(2) 0.0031(2) 0.3627(4)
C9_4 C 0.5541(2) 0.0018(2) 0.6959(4)
H4_4 H 0.5920 0.0047 0.6907
C11_4 C 0.6238(3) 0.0565(2) 0.4276(4)
H8_4 H 0.6408 0.0960 0.3969
H9_4 H 0.6492 0.0578 0.4834
H10_4 H 0.5839 0.0443 0.4534
C12_4 C 0.4880(3) 0.0347(3) 0.7706(5)
H11_4 H 0.4830 0.0597 0.8173
C13_4 C 0.5443(2) 0.0384(3) 0.7613(4)
H12_4 H 0.5765 0.0668 0.8010
C14_4 C 0.4460(4) 0.0445(4) 0.4339(6)
H13_4 H 0.4726 0.0818 0.3988
H14_4 H 0.4686 0.0255 0.4558
H15_4 H 0.4286 0.0530 0.4929
Zn1_2 Zn 0.56282(2) 0.90451(2) 0.49644(4)
Zn2_4 Zn 0.33136(2) 0.90178(2) 0.51866(4)
O1_4 O 0.46942(19) 0.8521(2) 0.3865(3)
H1_3 H 0.4703 0.8690 0.3321
C2_4 C 0.4433(2) 0.89274(19) 0.5294(3)
N1_4 N 0.2625(2) 0.7828(2) 0.6017(4)
N4_4 N 0.35178(16) 0.94756(16) 0.3850(3)
C3_4 C 0.4480(2) 0.9561(2) 0.6445(3)
C4_4 C 0.5045(2) 0.9598(2) 0.6370(3)
C5_4 C 0.2135(3) 0.7802(2) 0.4663(5)
N5_4 N 0.40892(15) 0.91274(16) 0.5748(3)
N6_4 N 0.50054(15) 0.91915(16) 0.5630(3)
N7_4 N 0.2110(2) 0.7308(2) 0.5998(4)
C7_4 C 0.4185(2) 0.8438(2) 0.4472(4)
H2_4 H 0.3894 0.8482 0.4036
N8_4 N 0.59753(17) 0.95372(17) 0.3678(3)
N9_3 N 0.6037(2) 0.92951(19) 0.2786(3)
N10_3 N 0.18069(15) 0.72942(16) 0.5133(3)
N11_4 N 0.26457(16) 0.81504(16) 0.5171(3)
N12_3 N 0.6279(2) 0.97209(18) 0.2107(3)
C8_4 C 0.4393(2) 0.9943(3) 0.7108(4)
H3_4 H 0.4020 0.9927 0.7147
C10_4 C 0.3883(3) 0.7815(3) 0.4947(6)
H5_4 H 0.3732 0.7513 0.4412
H6_4 H 0.3552 0.7762 0.5375
H7_4 H 0.4173 0.7771 0.5358
N13_3 N 0.3367(2) 0.9716(2) 0.2351(4)
N14_3 N 0.3154(3) 0.9296(2) 0.3028(4)
C15_4 C 0.1961(5) 0.7987(5) 0.3689(8)
H16_4 H 0.1575 0.7664 0.3456
H17_3 H 0.2264 0.8072 0.3172
H18_4 H 0.1933 0.8345 0.3810
Zn3_3 Zn 0.09549(2) 0.65830(3) 0.49644(4)
N15_4 N 0.64122(16) 0.94651(23) 0.5879(3)
N16_4 N 0.29778(23) 0.94539(17) 0.6035(3)
N17_2 N 0.54874(22) 0.81931(15) 0.5133(3)
Zn2_5 Zn 0.09822(2) 0.42957(3) 0.51866(4)
O1_5 O 0.1479(2) 0.61728(28) 0.3865(3)
H1_4 H 0.1310 0.6012 0.3321
C2_5 C 0.10726(19) 0.55052(28) 0.5294(3)
N1_5 N 0.2172(2) 0.4796(3) 0.6017(4)
N4_5 N 0.05244(16) 0.40421(23) 0.3850(3)
C3_5 C 0.0439(2) 0.4918(3) 0.6445(3)
C4_5 C 0.0402(2) 0.5446(3) 0.6370(3)
C5_5 C 0.2198(2) 0.4332(4) 0.4663(5)
N5_5 N 0.08726(16) 0.49617(22) 0.5748(3)
N6_5 N 0.08085(16) 0.58138(22) 0.5630(3)
N7_5 N 0.2692(2) 0.4801(3) 0.5998(4)
C7_5 C 0.1562(2) 0.5746(3) 0.4472(4)
H2_5 H 0.1518 0.5411 0.4036
N8_5 N 0.04628(17) 0.64380(24) 0.3678(3)
N9_4 N 0.07049(19) 0.67415(28) 0.2786(3)
N10_4 N 0.27058(16) 0.45126(22) 0.5133(3)
N11_5 N 0.18496(16) 0.44952(23) 0.5171(3)
N12_4 N 0.02791(18) 0.65577(27) 0.2107(3)
C8_5 C 0.0057(3) 0.4449(4) 0.7108(4)
H3_5 H 0.0073 0.4092 0.7147
C10_5 C 0.2185(3) 0.6067(4) 0.4947(6)
H5_5 H 0.2487 0.6218 0.4412
H6_5 H 0.2238 0.5789 0.5375
H7_5 H 0.2229 0.6401 0.5358
N13_4 N 0.0284(2) 0.3650(3) 0.2351(4)
N14_4 N 0.0704(2) 0.3857(4) 0.3028(4)
C15_5 C 0.2013(5) 0.3973(7) 0.3689(8)
H16_5 H 0.2336 0.3910 0.3456
H17_4 H 0.1928 0.4191 0.3172
H18_5 H 0.1655 0.3587 0.3810
Zn3_4 Zn 0.34170(3) 0.43718(4) 0.49644(4)
N15_5 N 0.05349(23) 0.69472(28) 0.5879(3)
N16_5 N 0.05461(17) 0.35240(29) 0.6035(3)
C1_5 C 0.9878(2) 0.6074(3) 0.3491(3)
C6_5 C 0.9969(2) 0.3934(3) 0.3627(4)
C9_5 C 0.9982(2) 0.5522(3) 0.6959(4)
H4_5 H 0.9953 0.5872 0.6907
C11_5 C 0.9435(2) 0.5672(4) 0.4276(4)
H8_5 H 0.9040 0.5447 0.3969
H9_5 H 0.9422 0.5913 0.4834
H10_5 H 0.9557 0.5395 0.4534
C12_5 C 0.9653(3) 0.4532(4) 0.7706(5)
H11_5 H 0.9403 0.4232 0.8173
C13_5 C 0.9616(3) 0.5058(4) 0.7613(4)
H12_5 H 0.9332 0.5096 0.8010
C14_5 C 0.9555(4) 0.4014(6) 0.4339(6)
H13_5 H 0.9182 0.3907 0.3988
H14_5 H 0.9745 0.4430 0.4558
H15_5 H 0.9470 0.3755 0.4929
Zn2_6 Zn 0.57043(3) 0.66864(2) 0.51866(4)
O1_6 O 0.38272(28) 0.53058(19) 0.3865(3)
H1_5 H 0.3988 0.5297 0.3321
C1_6 C 0.3926(3) 0.3803(2) 0.3491(3)
C2_6 C 0.44948(28) 0.5567(2) 0.5294(3)
N1_6 N 0.5204(3) 0.7375(2) 0.6017(4)
N4_6 N 0.59579(23) 0.64822(16) 0.3850(3)
C3_6 C 0.5082(3) 0.5520(2) 0.6445(3)
C4_6 C 0.4554(3) 0.4955(2) 0.6370(3)
C5_6 C 0.5668(4) 0.7865(3) 0.4663(5)
N5_6 N 0.50383(22) 0.59108(15) 0.5748(3)
N6_6 N 0.41862(22) 0.49946(15) 0.5630(3)
C6_6 C 0.6066(3) 0.6034(2) 0.3627(4)
N7_6 N 0.5199(3) 0.7890(2) 0.5998(4)
C7_6 C 0.4254(3) 0.5815(2) 0.4472(4)
H2_6 H 0.4589 0.6106 0.4036
N8_6 N 0.35620(24) 0.40247(17) 0.3678(3)
N9_5 N 0.32585(28) 0.3963(2) 0.2786(3)
N11_6 N 0.55048(23) 0.73543(16) 0.5171(3)
N12_5 N 0.34423(27) 0.3721(2) 0.2107(3)
C8_6 C 0.5551(4) 0.5607(2) 0.7108(4)
H3_6 H 0.5908 0.5980 0.7147
C9_6 C 0.4478(3) 0.4459(2) 0.6959(4)
H4_6 H 0.4128 0.4080 0.6907
C10_6 C 0.3933(4) 0.6117(3) 0.4947(6)
H5_6 H 0.3782 0.6268 0.4412
H6_6 H 0.4211 0.6448 0.5375
H7_6 H 0.3599 0.5827 0.5358
C11_6 C 0.4328(4) 0.3762(3) 0.4276(4)
H8_6 H 0.4553 0.3592 0.3969
H9_6 H 0.4087 0.3508 0.4834
H10_6 H 0.4605 0.4161 0.4534
N13_5 N 0.6350(3) 0.6633(2) 0.2351(4)
C12_6 C 0.5468(4) 0.5120(3) 0.7706(5)
H11_6 H 0.5768 0.5170 0.8173
C13_6 C 0.4942(4) 0.4557(2) 0.7613(4)
H12_6 H 0.4904 0.4235 0.8010
N14_5 N 0.6143(4) 0.6846(3) 0.3028(4)
C14_6 C 0.5986(6) 0.5540(4) 0.4339(6)
H13_6 H 0.6093 0.5274 0.3988
H14_6 H 0.5570 0.5314 0.4558
H15_6 H 0.6245 0.5714 0.4929
C15_6 C 0.6027(7) 0.8039(5) 0.3689(8)
H16_6 H 0.6090 0.8425 0.3456
H17_5 H 0.5809 0.7736 0.3172
H18_6 H 0.6413 0.8067 0.3810
N15_6 N 0.30528(28) 0.35878(16) 0.5879(3)
N16_6 N 0.64760(29) 0.70222(23) 0.6035(3)
O1_7 O 0.13608(19) 0.1855(2) 0.7199(3)
H1_6 H 0.1369 0.2024 0.6655
C1_7 C 0.2863(2) 0.3456(2) 0.6825(3)
C2_7 C 0.1099(2) 0.22608(19) 0.8628(3)
N4_7 N 0.01844(16) 0.28090(16) 0.7184(3)
C3_7 C 0.1146(2) 0.2895(2) 0.9779(3)
C4_7 C 0.1711(2) 0.2932(2) 0.9704(3)
N5_7 N 0.07558(15) 0.24608(16) 0.9082(3)
N6_7 N 0.16720(15) 0.25249(16) 0.8964(3)
C6_7 C 0.0632(2) 0.3365(2) 0.6961(4)
C7_7 C 0.0851(2) 0.1772(2) 0.7806(4)
H2_7 H 0.0560 0.1816 0.7370
N8_7 N 0.26419(17) 0.28706(17) 0.7012(3)
N9_6 N 0.2703(2) 0.26285(19) 0.6120(3)
N12_6 N 0.2945(2) 0.30543(18) 0.5441(3)
C10_7 C 0.0549(3) 0.1149(3) 0.8281(6)
H5_7 H 0.0398 0.0847 0.7746
H6_7 H 0.0218 0.1096 0.8709
H7_7 H 0.0839 0.1105 0.8692
C11_7 C 0.2904(3) 0.3899(2) 0.7610(4)
H8_7 H 0.3074 0.4294 0.7303
H9_7 H 0.3158 0.3912 0.8168
H10_7 H 0.2505 0.3777 0.7868
N13_6 N 0.0033(2) 0.3050(2) 0.5685(4)
C14_7 C 0.1126(4) 0.3779(4) 0.7673(6)
H13_7 H 0.1392 0.4152 0.7322
H14_7 H 0.1352 0.3589 0.7892
H15_7 H 0.0952 0.3864 0.8263
N17_3 N 0.21540(22) 0.15265(15) 0.8467(3)
O1_8 O 0.8145(2) 0.95062(28) 0.7199(3)
H1_7 H 0.7976 0.9346 0.6655
C1_8 C 0.6544(2) 0.9408(3) 0.6825(3)
C2_8 C 0.77392(19) 0.88386(28) 0.8628(3)
N1_7 N 0.8838(2) 0.8130(3) 0.9351(4)
N4_8 N 0.71910(16) 0.73755(23) 0.7184(3)
C3_8 C 0.7105(2) 0.8252(3) 0.9779(3)
C4_8 C 0.7068(2) 0.8780(3) 0.9704(3)
C5_7 C 0.8864(2) 0.7666(4) 0.7997(5)
N5_8 N 0.75392(16) 0.82951(22) 0.9082(3)
N6_8 N 0.74751(16) 0.91472(22) 0.8964(3)
C6_8 C 0.6635(2) 0.7268(3) 0.6961(4)
N7_7 N 0.9358(2) 0.8135(3) 0.9332(4)
C7_8 C 0.8228(2) 0.9080(3) 0.7806(4)
H2_8 H 0.8184 0.8745 0.7370
N8_8 N 0.71294(17) 0.97714(24) 0.7012(3)
N10_5 N 0.93724(16) 0.78460(22) 0.8467(3)
N11_7 N 0.85162(16) 0.78286(23) 0.8505(3)
N12_7 N 0.69457(18) 0.98911(27) 0.5441(3)
C10_8 C 0.8851(3) 0.9401(4) 0.8281(6)
H5_8 H 0.9153 0.9552 0.7746
H6_8 H 0.8904 0.9123 0.8709
H7_8 H 0.8895 0.9735 0.8692
C11_8 C 0.6101(2) 0.9006(4) 0.7610(4)
H8_8 H 0.5706 0.8781 0.7303
H9_8 H 0.6088 0.9247 0.8168
H10_8 H 0.6223 0.8729 0.7868
N13_7 N 0.6950(2) 0.6984(3) 0.5685(4)
N14_6 N 0.7370(2) 0.7191(4) 0.6362(4)
C14_8 C 0.6221(4) 0.7348(6) 0.7673(6)
H13_8 H 0.5848 0.7241 0.7322
H14_8 H 0.6411 0.7764 0.7892
H15_8 H 0.6136 0.7089 0.8263
C15_7 C 0.8679(5) 0.7307(7) 0.7023(8)
H16_7 H 0.9002 0.7244 0.6790
H17_6 H 0.8594 0.7525 0.6506
H18_7 H 0.8321 0.6921 0.7144
N1_8 N 0.1870(3) 0.0709(2) 0.9351(4)
C5_8 C 0.2334(4) 0.1199(3) 0.7997(5)
N7_8 N 0.1865(3) 0.1224(2) 0.9332(4)
N11_8 N 0.21714(23) 0.06877(16) 0.8505(3)
N14_7 N 0.2809(4) 0.0180(3) 0.6362(4)
C15_8 C 0.2693(7) 0.1373(5) 0.7023(8)
H16_8 H 0.2756 0.1759 0.6790
H17_7 H 0.2475 0.1070 0.6506
H18_8 H 0.3079 0.1401 0.7144
O1_9 O 0.04938(28) 0.86392(19) 0.7199(3)
H1_8 H 0.0654 0.8631 0.6655
C1_9 C 0.0592(3) 0.7137(2) 0.6825(3)
C2_9 C 0.11614(28) 0.8901(2) 0.8628(3)
N4_9 N 0.26245(23) 0.98156(16) 0.7184(3)
C3_9 C 0.1748(3) 0.8854(2) 0.9779(3)
C4_9 C 0.1220(3) 0.8289(2) 0.9704(3)
N5_9 N 0.17049(22) 0.92442(15) 0.9082(3)
N6_9 N 0.08528(22) 0.83280(15) 0.8964(3)
C6_9 C 0.2732(3) 0.9368(2) 0.6961(4)
C7_9 C 0.0920(3) 0.9149(2) 0.7806(4)
H2_9 H 0.1255 0.9440 0.7370
N8_9 N 0.02286(24) 0.73581(17) 0.7012(3)
N12_8 N 0.01089(27) 0.7055(2) 0.5441(3)
C10_9 C 0.0599(4) 0.9451(3) 0.8281(6)
H5_9 H 0.0448 0.9602 0.7746
H6_9 H 0.0877 0.9782 0.8709
H7_9 H 0.0265 0.9161 0.8692
C11_9 C 0.0994(4) 0.7096(3) 0.7610(4)
H8_9 H 0.1219 0.6926 0.7303
H9_9 H 0.0753 0.6842 0.8168
H10_9 H 0.1271 0.7495 0.7868
N13_8 N 0.3016(3) 0.9967(2) 0.5685(4)
C14_9 C 0.2652(6) 0.8874(4) 0.7673(6)
H13_9 H 0.2759 0.8608 0.7322
H14_9 H 0.2236 0.8648 0.7892
H15_9 H 0.2911 0.9048 0.8263
N9_7 N 0.99251(28) 0.7297(2) 0.6120(3)
H1_9 H 0.7321 0.1964 0.9988
N2_3 N 0.72016(23) 0.02805(17) 0.9212(3)
N3_3 N 0.96445(23) 0.27872(17) 0.9368(3)
N9_8 N 0.65918(28) 0.0630(2) 0.9453(3)
N12_9 N 0.67756(27) 0.0388(2) 0.8774(3)
N13_9 N 0.9683(3) 0.3300(2) 0.9018(4)
N14_8 N 0.9476(4) 0.3513(3) 0.9695(4)
H17_8 H 0.9142 0.4403 0.9839
Zn5_3 Zn 0.99802(4) 0.23512(2) 0.85200(4)
N1_9 N 0.9291(2) 0.1162(2) 0.9351(4)
C5_9 C 0.8801(3) 0.1136(2) 0.7997(5)
N7_9 N 0.8776(2) 0.0642(2) 0.9332(4)
N10_6 N 0.84735(15) 0.06276(16) 0.8467(3)
N11_9 N 0.93123(16) 0.14838(16) 0.8505(3)
N14_9 N 0.9820(3) 0.2630(2) 0.6362(4)
C15_9 C 0.8627(5) 0.1321(5) 0.7023(8)
H16_9 H 0.8241 0.0998 0.6790
H17_9 H 0.8930 0.1406 0.6506
H18_9 H 0.8599 0.1679 0.7144
N9_9 N 0.73715(19) 0.00749(28) 0.6120(3)
C8_7 C 0.1059(2) 0.3277(3) 0.0442(4)
H3_7 H 0.0686 0.3261 0.0481
C9_7 C 0.2207(2) 0.3352(2) 0.0293(4)
H4_7 H 0.2586 0.3381 0.0241
C12_7 C 0.1546(3) 0.3681(3) 0.1040(5)
H11_7 H 0.1496 0.3931 0.1507
C13_7 C 0.2109(2) 0.3718(3) 0.0947(4)
H12_7 H 0.2431 0.4002 0.1344
C8_8 C 0.6723(3) 0.7783(4) 0.0442(4)
H3_8 H 0.6739 0.7426 0.0481
C9_8 C 0.6648(2) 0.8856(3) 0.0293(4)
H4_8 H 0.6619 0.9206 0.0241
C12_8 C 0.6319(3) 0.7866(4) 0.1040(5)
H11_8 H 0.6069 0.7566 0.1507
C13_8 C 0.6282(3) 0.8392(4) 0.0947(4)
H12_8 H 0.5998 0.8430 0.1344
C8_9 C 0.2217(4) 0.8941(2) 0.0442(4)
H3_9 H 0.2574 0.9314 0.0481
C9_9 C 0.1144(3) 0.7793(2) 0.0293(4)
H4_9 H 0.0794 0.7414 0.0241
C12_9 C 0.2134(4) 0.8454(3) 0.1040(5)
H11_9 H 0.2434 0.8504 0.1507
C13_9 C 0.1608(4) 0.7891(2) 0.0947(4)
H12_9 H 0.1570 0.7569 0.1344
loop_
_geom_bond_atom_site_label_1
_geom_bond_atom_site_label_2
_geom_bond_site_symmetry_1
_geom_bond_site_symmetry_2
Zn1 O1 1_555 1_555
Zn2 N4 1_555 1_555
C2 N5 1_555 1_555
N1 N7 1_555 1_555
N4 C6 1_555 1_555
C3 C4 1_555 1_555
C4 N6 1_555 1_555
C5 N10 1_555 1_555
N5 Zn2 1_555 1_555
N6 Zn1 1_555 1_555
C6 C14 1_555 1_555
N7 N10 1_555 1_555
C7 O1 1_555 1_555
H2 C7 1_555 1_555
N8 Zn1 1_555 1_555
N10 Zn3 1_555 1_555
N11 Zn2 1_555 1_555
C8 C3 1_555 1_555
H3 C8 1_555 1_555
C9 C4 1_555 1_555
H4 C9 1_555 1_555
C10 C7 1_555 1_555
H5 C10 1_555 1_555
H6 C10 1_555 1_555
H7 C10 1_555 1_555
C11 C1 1_555 1_555
H8 C11 1_555 1_555
H9 C11 1_555 1_555
H10 C11 1_555 1_555
C12 C8 1_555 1_555
H11 C12 1_555 1_555
C13 C9 1_555 1_555
H12 C13 1_555 1_555
C14 H13 1_555 1_555
H14 C14 1_555 1_555
H15 C14 1_555 1_555
C15 C5 1_555 1_555
H16 C15 1_555 1_555
H18 C15 1_555 1_555
N15 Zn1 1_555 1_555
N16 Zn2 1_555 1_555
N17 Zn1 1_555 1_555
C1 N8 1_555 1_555
C2 N6 1_555 1_555
C2 C7 1_555 1_555
N1 N11 1_555 1_555
C3 N5 1_555 1_555
C5 N11 1_555 1_555
C12 C13 1_555 1_555
N2 N12 1_555 1_555
N12 N9 1_555 1_555
N13 N3 1_555 1_555
Zn5 N3 1_555 1_555
N13 N14 1_555 1_555
Zn3 O1_2 1_555 1_555
Zn2_2 N4_2 1_555 1_555
C2_2 N5_2 1_555 1_555
N1_2 N7_2 1_555 1_555
N4_2 C6_2 1_555 1_555
C3_2 C4_2 1_555 1_555
C4_2 N6_2 1_555 1_555
C5_2 N10_2 1_555 1_555
N5_2 Zn2_2 1_555 1_555
N6_2 Zn3 1_555 1_555
C6_2 C14_2 1_555 1_555
N7_2 N10_2 1_555 1_555
C7_2 O1_2 1_555 1_555
H2_2 C7_2 1_555 1_555
N8_2 Zn3 1_555 1_555
N10_2 Zn3_2 1_555 1_555
N11_2 Zn2_2 1_555 1_555
C8_2 C3_2 1_555 1_555
H3_2 C8_2 1_555 1_555
C9_2 C4_2 1_555 1_555
H4_2 C9_2 1_555 1_555
C10_2 C7_2 1_555 1_555
H5_2 C10_2 1_555 1_555
H6_2 C10_2 1_555 1_555
H7_2 C10_2 1_555 1_555
C11_2 C1_2 1_555 1_555
H8_2 C11_2 1_555 1_555
H9_2 C11_2 1_555 1_555
H10_2 C11_2 1_555 1_555
C12_2 C8_2 1_555 1_555
H11_2 C12_2 1_555 1_555
C13_2 C9_2 1_555 1_555
H12_2 C13_2 1_555 1_555
C14_2 H13_2 1_555 1_555
H14_2 C14_2 1_555 1_555
H15_2 C14_2 1_555 1_555
C15_2 C5_2 1_555 1_555
H16_2 C15_2 1_555 1_555
H18_2 C15_2 1_555 1_555
N15_2 Zn3 1_555 1_555
N16_2 Zn2_2 1_555 1_555
C1_2 N8_2 1_555 1_555
C2_2 N6_2 1_555 1_555
C2_2 C7_2 1_555 1_555
N1_2 N11_2 1_555 1_555
C3_2 N5_2 1_555 1_555
C5_2 N11_2 1_555 1_555
C12_2 C13_2 1_555 1_555
N2_2 N12_2 1_555 1_555
N12_2 N9_2 1_555 1_555
N13_2 N3_2 1_555 1_555
Zn4_2 N2_2 1_555 1_555
Zn5_2 N3_2 1_555 1_555
N13_2 N14_2 1_555 1_555
Zn3_2 O1_3 1_555 1_555
Zn2_3 N4_3 1_555 1_555
C2_3 N5_3 1_555 1_555
N1_3 N7_3 1_555 1_555
N4_3 C6_3 1_555 1_555
C3_3 C4_3 1_555 1_555
C4_3 N6_3 1_555 1_555
C5_3 N17 1_555 1_555
N5_3 Zn2_3 1_555 1_555
N6_3 Zn3_2 1_555 1_555
C6_3 C14_3 1_555 1_555
N7_3 N17 1_555 1_555
C7_3 O1_3 1_555 1_555
H2_3 C7_3 1_555 1_555
N8_3 Zn3_2 1_555 1_555
N11_3 Zn2_3 1_555 1_555
C8_3 C3_3 1_555 1_555
H3_3 C8_3 1_555 1_555
C9_3 C4_3 1_555 1_555
H4_3 C9_3 1_555 1_555
C10_3 C7_3 1_555 1_555
H5_3 C10_3 1_555 1_555
H6_3 C10_3 1_555 1_555
H7_3 C10_3 1_555 1_555
C11_3 C1_3 1_555 1_555
H8_3 C11_3 1_555 1_555
H9_3 C11_3 1_555 1_555
H10_3 C11_3 1_555 1_555
C12_3 C8_3 1_555 1_555
H11_3 C12_3 1_555 1_555
C13_3 C9_3 1_555 1_555
H12_3 C13_3 1_555 1_555
C14_3 H13_3 1_555 1_555
H14_3 C14_3 1_555 1_555
H15_3 C14_3 1_555 1_555
C15_3 C5_3 1_555 1_555
H16_3 C15_3 1_555 1_555
H18_3 C15_3 1_555 1_555
N15_3 Zn3_2 1_555 1_555
N16_3 Zn2_3 1_555 1_555
C1_3 N8_3 1_555 1_555
C2_3 N6_3 1_555 1_555
C2_3 C7_3 1_555 1_555
N1_3 N11_3 1_555 1_555
C3_3 N5_3 1_555 1_555
C5_3 N11_3 1_555 1_555
C12_3 C13_3 1_555 1_555
C1_4 N15_3 1_555 1_555
N16_2 C6_4 1_555 1_555
C6_4 C14_4 1_555 1_555
H4_4 C9_4 1_555 1_555
C11_4 C1_4 1_555 1_555
H8_4 C11_4 1_555 1_555
H9_4 C11_4 1_555 1_555
H10_4 C11_4 1_555 1_555
H11_4 C12_4 1_555 1_555
C13_4 C9_4 1_555 1_555
H12_4 C13_4 1_555 1_555
C14_4 H13_4 1_555 1_555
H14_4 C14_4 1_555 1_555
H15_4 C14_4 1_555 1_555
C12_4 C13_4 1_555 1_555
Zn1_2 O1_4 1_555 1_555
Zn2_4 N4_4 1_555 1_555
O1_4 H1_3 1_555 1_555
C2_4 N5_4 1_555 1_555
N1_4 N7_4 1_555 1_555
C3_4 C4_4 1_555 1_555
C4_4 N6_4 1_555 1_555
C5_4 N10_3 1_555 1_555
N5_4 Zn2_4 1_555 1_555
N6_4 Zn1_2 1_555 1_555
N7_4 N10_3 1_555 1_555
C7_4 O1_4 1_555 1_555
H2_4 C7_4 1_555 1_555
N8_4 Zn1_2 1_555 1_555
N9_3 N8_4 1_555 1_555
N10_3 Zn3_3 1_555 1_555
N11_4 Zn2_4 1_555 1_555
N12_3 N9_3 1_555 1_555
C8_4 C3_4 1_555 1_555
H3_4 C8_4 1_555 1_555
C10_4 C7_4 1_555 1_555
H5_4 C10_4 1_555 1_555
H6_4 C10_4 1_555 1_555
H7_4 C10_4 1_555 1_555
N14_3 N4_4 1_555 1_555
C15_4 C5_4 1_555 1_555
H16_4 C15_4 1_555 1_555
H17_3 C15_4 1_555 1_555
H18_4 C15_4 1_555 1_555
N15_4 Zn1_2 1_555 1_555
N16_4 Zn2_4 1_555 1_555
N17_2 Zn1_2 1_555 1_555
C2_4 N6_4 1_555 1_555
C2_4 C7_4 1_555 1_555
N1_4 N11_4 1_555 1_555
C3_4 N5_4 1_555 1_555
C5_4 N11_4 1_555 1_555
N13_3 N14_3 1_555 1_555
Zn3_3 O1_5 1_555 1_555
Zn2_5 N4_5 1_555 1_555
O1_5 H1_4 1_555 1_555
C2_5 N5_5 1_555 1_555
N1_5 N7_5 1_555 1_555
C3_5 C4_5 1_555 1_555
C4_5 N6_5 1_555 1_555
C5_5 N10_4 1_555 1_555
N5_5 Zn2_5 1_555 1_555
N6_5 Zn3_3 1_555 1_555
N7_5 N10_4 1_555 1_555
C7_5 O1_5 1_555 1_555
H2_5 C7_5 1_555 1_555
N8_5 Zn3_3 1_555 1_555
N9_4 N8_5 1_555 1_555
N10_4 Zn3_4 1_555 1_555
N11_5 Zn2_5 1_555 1_555
N12_4 N9_4 1_555 1_555
C8_5 C3_5 1_555 1_555
H3_5 C8_5 1_555 1_555
C10_5 C7_5 1_555 1_555
H5_5 C10_5 1_555 1_555
H6_5 C10_5 1_555 1_555
H7_5 C10_5 1_555 1_555
N14_4 N4_5 1_555 1_555
C15_5 C5_5 1_555 1_555
H16_5 C15_5 1_555 1_555
H17_4 C15_5 1_555 1_555
H18_5 C15_5 1_555 1_555
N15_5 Zn3_3 1_555 1_555
N16_5 Zn2_5 1_555 1_555
C2_5 N6_5 1_555 1_555
C2_5 C7_5 1_555 1_555
N1_5 N11_5 1_555 1_555
C3_5 N5_5 1_555 1_555
C5_5 N11_5 1_555 1_555
N13_4 N14_4 1_555 1_555
C1_5 N15 1_555 1_555
N16_3 C6_5 1_555 1_555
C6_5 C14_5 1_555 1_555
H4_5 C9_5 1_555 1_555
C11_5 C1_5 1_555 1_555
H8_5 C11_5 1_555 1_555
H9_5 C11_5 1_555 1_555
H10_5 C11_5 1_555 1_555
H11_5 C12_5 1_555 1_555
C13_5 C9_5 1_555 1_555
H12_5 C13_5 1_555 1_555
C14_5 H13_5 1_555 1_555
H14_5 C14_5 1_555 1_555
H15_5 C14_5 1_555 1_555
C12_5 C13_5 1_555 1_555
Zn3_4 O1_6 1_555 1_555
Zn2_6 N4_6 1_555 1_555
O1_6 H1_5 1_555 1_555
C1_6 N15_2 1_555 1_555
C2_6 N5_6 1_555 1_555
N1_6 N7_6 1_555 1_555
N15_2 N12_5 1_555 1_555
N16 C6_6 1_555 1_555
N4_6 C6_6 1_555 1_555
C3_6 C4_6 1_555 1_555
C4_6 N6_6 1_555 1_555
C5_6 N17_2 1_555 1_555
N5_6 Zn2_6 1_555 1_555
N6_6 Zn3_4 1_555 1_555
C6_6 C14_6 1_555 1_555
N7_6 N17_2 1_555 1_555
C7_6 O1_6 1_555 1_555
H2_6 C7_6 1_555 1_555
N8_6 Zn3_4 1_555 1_555
N9_5 N8_6 1_555 1_555
N11_6 Zn2_6 1_555 1_555
N12_5 N9_5 1_555 1_555
C8_6 C3_6 1_555 1_555
H3_6 C8_6 1_555 1_555
C9_6 C4_6 1_555 1_555
H4_6 C9_6 1_555 1_555
C10_6 C7_6 1_555 1_555
H5_6 C10_6 1_555 1_555
H6_6 C10_6 1_555 1_555
H7_6 C10_6 1_555 1_555
C11_6 C1_6 1_555 1_555
H8_6 C11_6 1_555 1_555
H9_6 C11_6 1_555 1_555
H10_6 C11_6 1_555 1_555
N13_5 N16 1_555 1_555
C12_6 C8_6 1_555 1_555
H11_6 C12_6 1_555 1_555
C13_6 C9_6 1_555 1_555
H12_6 C13_6 1_555 1_555
N14_5 N4_6 1_555 1_555
C14_6 H13_6 1_555 1_555
H14_6 C14_6 1_555 1_555
H15_6 C14_6 1_555 1_555
C15_6 C5_6 1_555 1_555
H16_6 C15_6 1_555 1_555
H17_5 C15_6 1_555 1_555
H18_6 C15_6 1_555 1_555
N15_6 Zn3_4 1_555 1_555
N16_6 Zn2_6 1_555 1_555
C1_6 N8_6 1_555 1_555
C2_6 N6_6 1_555 1_555
C2_6 C7_6 1_555 1_555
N1_6 N11_6 1_555 1_555
C3_6 N5_6 1_555 1_555
C5_6 N11_6 1_555 1_555
N13_5 N14_5 1_555 1_555
C12_6 C13_6 1_555 1_555
Zn4_2 O1_7 1_555 1_555
O1_7 H1_6 1_555 1_555
C1_7 N15_6 1_555 1_555
C2_7 N5_7 1_555 1_555
N15_6 N12_6 1_555 1_555
N16_5 C6_7 1_555 1_555
N4_7 C6_7 1_555 1_555
C3_7 C4_7 1_555 1_555
C4_7 N6_7 1_555 1_555
N6_7 Zn4_2 1_555 1_555
C6_7 C14_7 1_555 1_555
C7_7 O1_7 1_555 1_555
H2_7 C7_7 1_555 1_555
N8_7 Zn4_2 1_555 1_555
N9_6 N8_7 1_555 1_555
N12_6 N9_6 1_555 1_555
C10_7 C7_7 1_555 1_555
H5_7 C10_7 1_555 1_555
H6_7 C10_7 1_555 1_555
H7_7 C10_7 1_555 1_555
C11_7 C1_7 1_555 1_555
H8_7 C11_7 1_555 1_555
H9_7 C11_7 1_555 1_555
H10_7 C11_7 1_555 1_555
N13_6 N16_5 1_555 1_555
C14_7 H13_7 1_555 1_555
H14_7 C14_7 1_555 1_555
H15_7 C14_7 1_555 1_555
N17_3 Zn4_2 1_555 1_555
C1_7 N8_7 1_555 1_555
C2_7 N6_7 1_555 1_555
C2_7 C7_7 1_555 1_555
C3_7 N5_7 1_555 1_555
Zn4_3 O1_8 1_555 1_555
Zn5 N4_8 1_555 1_555
O1_8 H1_7 1_555 1_555
C1_8 N15_4 1_555 1_555
C2_8 N5_8 1_555 1_555
N1_7 N7_7 1_555 1_555
N15_4 N12_7 1_555 1_555
N16_6 C6_8 1_555 1_555
N4_8 C6_8 1_555 1_555
C3_8 C4_8 1_555 1_555
C4_8 N6_8 1_555 1_555
C5_7 N10_5 1_555 1_555
N5_8 Zn5 1_555 1_555
N6_8 Zn4_3 1_555 1_555
C6_8 C14_8 1_555 1_555
N7_7 N10_5 1_555 1_555
C7_8 O1_8 1_555 1_555
H2_8 C7_8 1_555 1_555
N8_8 Zn4_3 1_555 1_555
N11_7 Zn5 1_555 1_555
C10_8 C7_8 1_555 1_555
H5_8 C10_8 1_555 1_555
H6_8 C10_8 1_555 1_555
H7_8 C10_8 1_555 1_555
C11_8 C1_8 1_555 1_555
H8_8 C11_8 1_555 1_555
H9_8 C11_8 1_555 1_555
H10_8 C11_8 1_555 1_555
N13_7 N16_6 1_555 1_555
N14_6 N4_8 1_555 1_555
C14_8 H13_8 1_555 1_555
H14_8 C14_8 1_555 1_555
H15_8 C14_8 1_555 1_555
C15_7 C5_7 1_555 1_555
H16_7 C15_7 1_555 1_555
H17_6 C15_7 1_555 1_555
H18_7 C15_7 1_555 1_555
C1_8 N8_8 1_555 1_555
C2_8 N6_8 1_555 1_555
C2_8 C7_8 1_555 1_555
N1_7 N11_7 1_555 1_555
C3_8 N5_8 1_555 1_555
C5_7 N11_7 1_555 1_555
N13_7 N14_6 1_555 1_555
N1_8 N7_8 1_555 1_555
C5_8 N17_3 1_555 1_555
N7_8 N17_3 1_555 1_555
N11_8 Zn5_2 1_555 1_555
C15_8 C5_8 1_555 1_555
H16_8 C15_8 1_555 1_555
H17_7 C15_8 1_555 1_555
H18_8 C15_8 1_555 1_555
N1_8 N11_8 1_555 1_555
C5_8 N11_8 1_555 1_555
Zn4 O1_9 1_555 1_555
O1_9 H1_8 1_555 1_555
C1_9 N15_5 1_555 1_555
C2_9 N5_9 1_555 1_555
N15_5 N12_8 1_555 1_555
N16_4 C6_9 1_555 1_555
N4_9 C6_9 1_555 1_555
C3_9 C4_9 1_555 1_555
C4_9 N6_9 1_555 1_555
N6_9 Zn4 1_555 1_555
C6_9 C14_9 1_555 1_555
C7_9 O1_9 1_555 1_555
H2_9 C7_9 1_555 1_555
N8_9 Zn4 1_555 1_555
C10_9 C7_9 1_555 1_555
H5_9 C10_9 1_555 1_555
H6_9 C10_9 1_555 1_555
H7_9 C10_9 1_555 1_555
C11_9 C1_9 1_555 1_555
H8_9 C11_9 1_555 1_555
H9_9 C11_9 1_555 1_555
H10_9 C11_9 1_555 1_555
N13_8 N16_4 1_555 1_555
C14_9 H13_9 1_555 1_555
H14_9 C14_9 1_555 1_555
H15_9 C14_9 1_555 1_555
C1_9 N8_9 1_555 1_555
C2_9 N6_9 1_555 1_555
C2_9 C7_9 1_555 1_555
C3_9 N5_9 1_555 1_555
N2_3 N12_9 1_555 1_555
N12_9 N9_8 1_555 1_555
N13_9 N3_3 1_555 1_555
Zn5_3 N3_3 1_555 1_555
N13_9 N14_8 1_555 1_555
N1_9 N7_9 1_555 1_555
C5_9 N10_6 1_555 1_555
N7_9 N10_6 1_555 1_555
N11_9 Zn5_3 1_555 1_555
C15_9 C5_9 1_555 1_555
H16_9 C15_9 1_555 1_555
H17_9 C15_9 1_555 1_555
H18_9 C15_9 1_555 1_555
N1_9 N11_9 1_555 1_555
C5_9 N11_9 1_555 1_555
H3_7 C8_7 1_555 1_555
H4_7 C9_7 1_555 1_555
C12_7 C8_7 1_555 1_555
H11_7 C12_7 1_555 1_555
C13_7 C9_7 1_555 1_555
H12_7 C13_7 1_555 1_555
C12_7 C13_7 1_555 1_555
H3_8 C8_8 1_555 1_555
H4_8 C9_8 1_555 1_555
C12_8 C8_8 1_555 1_555
H11_8 C12_8 1_555 1_555
C13_8 C9_8 1_555 1_555
H12_8 C13_8 1_555 1_555
C12_8 C13_8 1_555 1_555
H3_9 C8_9 1_555 1_555
H4_9 C9_9 1_555 1_555
C12_9 C8_9 1_555 1_555
H11_9 C12_9 1_555 1_555
C13_9 C9_9 1_555 1_555
H12_9 C13_9 1_555 1_555
C12_9 C13_9 1_555 1_555

#END
