
###############################################################################
#
# This file contains modified crystal structure data generated from the
# MOF subset of the Cambridge Structural Database (CSD) v543 
# hosted by the Cambridge Crystallographic Data Centre (CCDC).
#
# This work is licensed under the Creative Commons
# Attribution-NonCommercial-ShareAlike 4.0 International License.
# To view a copy of this license, visit
# http://creativecommons.org/licenses/by-nc-sa/4.0/
# or send a letter to
# Creative Commons, PO Box 1866, Mountain View, CA 94042, USA.
#
# CIF created using the CSD Python API on 29 September 2022
# The structure has been converted into the P1 space group
# The structure has a 3D framework
# The original CSD entry JABGUR is in the rhombohedral crystal system
# The original CSD entry JABGUR is in a Sohncke space group
# The framework has been calculated to contain at least 10.0% void space
# The void calculation uses a probe of radius 1.32A, grid spacing 0.4
#
###############################################################################

data_JABGUR
_chemical_formula_moiety         '(C135 H162 N123 O9 Zn18)n'
_symmetry_cell_setting           triclinic
_symmetry_space_group_name_H-M   'P 1'
_symmetry_Int_Tables_number      1
_space_group_name_Hall           'P 1'
loop_
_symmetry_equiv_pos_site_id
_symmetry_equiv_pos_as_xyz
1 x,y,z
_cell_length_a                   25.3735(9)
_cell_length_b                   25.3735(9)
_cell_length_c                   12.8546(6)
_cell_angle_alpha                90
_cell_angle_beta                 90
_cell_angle_gamma                120
_cell_volume                     7167.21
loop_
_atom_site_label
_atom_site_type_symbol
_atom_site_fract_x
_atom_site_fract_y
_atom_site_fract_z
Zn1 Zn 0.09523(3) 0.43840(3) 0.44647(4)
Zn2 Zn 0.32959(3) 0.42956(3) 0.47392(4)
C2 C 0.1088(2) 0.5585(2) 0.4822(4)
C3 C 0.2116(3) 0.4318(3) 0.4250(5)
O1 O 0.1466(2) 0.53074(19) 0.3357(3)
H1 H 0.1252 0.5272 0.2853
N2 N 0.29775(18) 0.35239(19) 0.5592(3)
N3 N 0.08143(17) 0.50049(17) 0.5137(3)
N4 N 0.09052(18) 0.59367(17) 0.5308(3)
C4 C 0.0406(2) 0.4962(2) 0.5918(4)
N5 N 0.02905(18) 0.3744(2) 0.1569(3)
N6 N 0.04697(18) 0.40453(18) 0.3158(3)
C5 C 0.2676(3) 0.3327(3) 0.6461(4)
N7 N 0.2118(2) 0.4852(2) 0.5514(4)
N8 N 0.17945(17) 0.45316(18) 0.4682(3)
N9 N 0.07083(19) 0.3998(2) 0.2241(3)
N10 N 0.26273(18) 0.27965(18) 0.6725(3)
C6 C 0.0469(2) 0.5552(2) 0.6033(4)
N11 N 0.26273(18) 0.44893(19) 0.4736(3)
C8 C 0.1563(2) 0.5823(2) 0.3968(5)
H3 H 0.1512 0.6111 0.3530
N12 N 0.2628(2) 0.4828(3) 0.5556(4)
C9 C 0.0115(3) 0.5643(2) 0.6735(4)
H4 H 0.0158 0.6026 0.6821
N13 N 0.3122(4) 0.3104(3) 0.5305(5)
C13 C 0.2203(2) 0.6133(3) 0.4425(6)
H10 H 0.2496 0.6274 0.3871
H11 H 0.2251 0.5848 0.4848
H12 H 0.2266 0.6473 0.4843
N14 N 0.2936(4) 0.2683(3) 0.6002(5)
C14 C 0.2423(6) 0.3645(5) 0.7050(8)
H13 H 0.2517 0.4016 0.6698
H14 H 0.2597 0.3738 0.7735
H15 H 0.1989 0.3390 0.7101
C15 C 0.1881(5) 0.3875(6) 0.3359(9)
H16 H 0.2180 0.3767 0.3169
H17 H 0.1800 0.4060 0.2775
H18 H 0.1512 0.3517 0.3565
Zn4 Zn 0.09997(4) 0.67041(3) 0.47392(4)
Zn5 Zn 0.23711(3) 0.23336(4) 0.80725(4)
N15 N 0.05293(25) 0.35956(18) 0.5345(3)
N16 N 0.40633(17) 0.49685(25) 0.5308(3)
N17 N 0.35025(25) 0.40394(18) 0.3392(3)
C1 C 0.9876(2) 0.3804(2) 0.2995(4)
N1 N 0.97377(18) 0.36003(17) 0.2012(3)
C7 C 0.9987(2) 0.4474(2) 0.6515(4)
H2 H 0.9946 0.4091 0.6452
C10 C 0.9425(2) 0.3740(2) 0.3789(4)
H5 H 0.9630 0.3919 0.4431
H6 H 0.9138 0.3316 0.3898
H7 H 0.9213 0.3943 0.3554
C11 C 0.9690(3) 0.5149(3) 0.7318(5)
H8 H 0.9440 0.5199 0.7789
C12 C 0.9640(3) 0.4582(2) 0.7194(4)
H9 H 0.9355 0.4259 0.7594
Zn3 Zn 0.89493(3) 0.32350(4) 0.11314(4)
Zn1_2 Zn 0.56160(3) 0.65683(4) 0.44647(4)
Zn2_2 Zn 0.57044(3) 0.90003(4) 0.47392(4)
C1_2 C 0.6196(2) 0.6072(3) 0.2995(4)
C2_2 C 0.4415(2) 0.5503(3) 0.4822(4)
C3_2 C 0.5682(3) 0.7798(4) 0.4250(5)
O1_2 O 0.46926(19) 0.61586(28) 0.3357(3)
H1_2 H 0.4728 0.5980 0.2853
N1_2 N 0.63997(17) 0.61374(25) 0.2012(3)
N2_2 N 0.64761(19) 0.94536(26) 0.5592(3)
N3_2 N 0.49951(17) 0.58094(24) 0.5137(3)
C4_2 C 0.5038(2) 0.5444(3) 0.5918(4)
N5_2 N 0.6256(2) 0.65465(27) 0.1569(3)
N6_2 N 0.59547(18) 0.64244(25) 0.3158(3)
C5_2 C 0.6673(3) 0.9349(4) 0.6461(4)
N7_2 N 0.5148(2) 0.7266(3) 0.5514(4)
N8_2 N 0.54684(18) 0.72629(25) 0.4682(3)
N9_2 N 0.6002(2) 0.67103(28) 0.2241(3)
N10_2 N 0.72035(18) 0.98308(25) 0.6725(3)
C6_2 C 0.4448(2) 0.4917(3) 0.6033(4)
N11_2 N 0.55107(19) 0.81380(26) 0.4736(3)
C7_2 C 0.5526(2) 0.5513(3) 0.6515(4)
H2_2 H 0.5909 0.5855 0.6452
C8_2 C 0.4177(2) 0.5740(3) 0.3968(5)
H3_2 H 0.3889 0.5401 0.3530
N12_2 N 0.5172(3) 0.7800(4) 0.5556(4)
C9_2 C 0.4357(2) 0.4472(4) 0.6735(4)
H4_2 H 0.3974 0.4132 0.6821
C10_2 C 0.6260(2) 0.5685(3) 0.3789(4)
H5_2 H 0.6081 0.5711 0.4431
H6_2 H 0.6684 0.5822 0.3898
H7_2 H 0.6057 0.5270 0.3554
C11_2 C 0.4851(3) 0.4541(4) 0.7318(5)
H8_2 H 0.4801 0.4241 0.7789
C12_2 C 0.5418(2) 0.5058(4) 0.7194(4)
H9_2 H 0.5741 0.5096 0.7594
C13_2 C 0.3867(3) 0.6070(4) 0.4425(6)
H10_2 H 0.3726 0.6222 0.3871
H11_2 H 0.4152 0.6403 0.4848
H12_2 H 0.3527 0.5793 0.4843
C14_2 C 0.6355(5) 0.8778(8) 0.7050(8)
H13_2 H 0.5984 0.8501 0.6698
H14_2 H 0.6262 0.8859 0.7735
H15_2 H 0.6610 0.8599 0.7101
C15_2 C 0.6125(6) 0.8006(8) 0.3359(9)
H16_2 H 0.6233 0.8413 0.3169
H17_2 H 0.5940 0.7740 0.2775
H18_2 H 0.6483 0.7995 0.3565
Zn3_2 Zn 0.67650(4) 0.57144(5) 0.11314(4)
N15_2 N 0.64044(18) 0.69336(31) 0.5345(3)
N16_2 N 0.50315(25) 0.90948(30) 0.5308(3)
N17_2 N 0.59606(18) 0.94632(31) 0.3392(3)
C1_3 C 0.3928(3) 0.0124(2) 0.2995(4)
N1_3 N 0.38626(25) 0.02623(18) 0.2012(3)
C7_3 C 0.4487(3) 0.0013(2) 0.6515(4)
H2_3 H 0.4145 0.0054 0.6452
C10_3 C 0.4315(3) 0.0575(2) 0.3789(4)
H5_3 H 0.4289 0.0370 0.4431
H6_3 H 0.4178 0.0862 0.3898
H7_3 H 0.4730 0.0787 0.3554
C11_3 C 0.5459(4) 0.0310(3) 0.7318(5)
H8_3 H 0.5759 0.0560 0.7789
C12_3 C 0.4942(4) 0.0360(3) 0.7194(4)
H9_3 H 0.4904 0.0645 0.7594
Zn3_3 Zn 0.42856(5) 0.10507(3) 0.11314(4)
Zn1_3 Zn 0.34317(4) 0.90477(3) 0.44647(4)
C2_3 C 0.4497(3) 0.8912(2) 0.4822(4)
C3_3 C 0.2202(4) 0.7884(3) 0.4250(5)
O1_3 O 0.38414(28) 0.8534(2) 0.3357(3)
H1_3 H 0.4020 0.8748 0.2853
N2_3 N 0.05464(26) 0.70225(18) 0.5592(3)
N3_3 N 0.41906(24) 0.91857(17) 0.5137(3)
C4_3 C 0.4556(3) 0.9594(2) 0.5918(4)
N5_3 N 0.34535(27) 0.97095(18) 0.1569(3)
N6_3 N 0.35756(25) 0.95303(18) 0.3158(3)
C5_3 C 0.0651(4) 0.7324(3) 0.6461(4)
N7_3 N 0.2734(3) 0.7882(2) 0.5514(4)
N8_3 N 0.27371(25) 0.82055(17) 0.4682(3)
N9_3 N 0.32897(28) 0.92917(19) 0.2241(3)
N10_3 N 0.01692(25) 0.73727(18) 0.6725(3)
C6_3 C 0.5083(3) 0.9531(2) 0.6033(4)
N11_3 N 0.18620(26) 0.73727(18) 0.4736(3)
C8_3 C 0.4260(3) 0.8437(2) 0.3968(5)
H3_3 H 0.4599 0.8488 0.3530
N12_3 N 0.2200(4) 0.7372(2) 0.5556(4)
C9_3 C 0.5528(4) 0.9885(3) 0.6735(4)
H4_3 H 0.5868 0.9842 0.6821
C13_3 C 0.3930(4) 0.7797(2) 0.4425(6)
H10_3 H 0.3778 0.7504 0.3871
H11_3 H 0.3597 0.7749 0.4848
H12_3 H 0.4207 0.7734 0.4843
C14_3 C 0.1222(8) 0.7577(6) 0.7050(8)
H13_3 H 0.1499 0.7483 0.6698
H14_3 H 0.1141 0.7403 0.7735
H15_3 H 0.1401 0.8011 0.7101
C15_3 C 0.1994(8) 0.8119(5) 0.3359(9)
H16_3 H 0.1587 0.7820 0.3169
H17_3 H 0.2260 0.8200 0.2775
H18_3 H 0.2005 0.8488 0.3565
N15_3 N 0.30664(31) 0.94707(25) 0.5345(3)
N17_3 N 0.05368(31) 0.64975(25) 0.3392(3)
N13_2 N 0.9982(5) 0.6878(4) 0.5305(5)
N14_2 N 0.9747(5) 0.7064(4) 0.6002(5)
Zn5_2 Zn 0.99626(5) 0.76289(3) 0.80725(4)
N16_3 N 0.07300(17) 0.83018(25) 0.8641(3)
N10_4 N 0.92940(18) 0.61298(18) 0.0058(3)
C9_4 C 0.6782(3) 0.8976(2) 0.0068(4)
H4_4 H 0.6825 0.9359 0.0154
C11_4 C 0.6357(3) 0.8482(3) 0.0651(5)
H8_4 H 0.6107 0.8532 0.1122
C12_4 C 0.6307(3) 0.7915(2) 0.0527(4)
H9_4 H 0.6022 0.7592 0.0927
C14_4 C 0.9090(6) 0.6978(5) 0.0383(8)
H13_4 H 0.9184 0.7349 0.0031
H14_4 H 0.9264 0.7071 0.1068
H15_4 H 0.8656 0.6723 0.0434
Zn5_3 Zn 0.90377(3) 0.56670(4) 0.14059(4)
Zn1_4 Zn 0.76190(3) 0.77173(3) 0.77980(4)
C1_4 C 0.6543(2) 0.7137(2) 0.6328(4)
C2_4 C 0.7755(2) 0.8918(2) 0.8155(4)
C3_4 C 0.8783(3) 0.7651(3) 0.7583(5)
O1_4 O 0.8133(2) 0.86407(19) 0.6690(3)
H1_4 H 0.7919 0.8605 0.6186
N2_4 N 0.96442(18) 0.68572(19) 0.8925(3)
N3_4 N 0.74810(17) 0.83382(17) 0.8470(3)
N4_2 N 0.75719(18) 0.92700(17) 0.8641(3)
C4_4 C 0.7073(2) 0.8295(2) 0.9251(4)
N5_4 N 0.69572(18) 0.7077(2) 0.4902(3)
N6_4 N 0.71364(18) 0.73786(18) 0.6491(3)
C5_4 C 0.9343(3) 0.6660(3) 0.9794(4)
N7_4 N 0.8785(2) 0.8185(2) 0.8847(4)
N8_4 N 0.84612(17) 0.78649(18) 0.8015(3)
N9_4 N 0.73750(19) 0.7331(2) 0.5574(3)
C6_4 C 0.7136(2) 0.8885(2) 0.9366(4)
N11_4 N 0.92940(18) 0.78226(19) 0.8069(3)
C7_4 C 0.6654(2) 0.7807(2) 0.9848(4)
H2_4 H 0.6613 0.7424 0.9785
C8_4 C 0.8230(2) 0.9156(2) 0.7301(5)
H3_4 H 0.8179 0.9444 0.6863
N12_4 N 0.9295(2) 0.8161(3) 0.8889(4)
C10_4 C 0.6092(2) 0.7073(2) 0.7122(4)
H5_4 H 0.6297 0.7252 0.7764
H6_4 H 0.5805 0.6649 0.7231
H7_4 H 0.5880 0.7276 0.6887
N13_3 N 0.9789(4) 0.6437(3) 0.8638(5)
C13_4 C 0.8870(2) 0.9466(3) 0.7758(6)
H10_4 H 0.9163 0.9607 0.7204
H11_4 H 0.8918 0.9181 0.8181
H12_4 H 0.8933 0.9806 0.8176
N14_3 N 0.9603(4) 0.6016(3) 0.9335(5)
C15_4 C 0.8548(5) 0.7208(6) 0.6692(9)
H16_4 H 0.8847 0.7100 0.6502
H17_4 H 0.8467 0.7393 0.6108
H18_4 H 0.8179 0.6850 0.6898
N15_4 N 0.71959(25) 0.69290(18) 0.8679(3)
N10_5 N 0.38702(18) 0.31641(25) 0.0058(3)
C14_5 C 0.3022(5) 0.2111(8) 0.0383(8)
H13_5 H 0.2651 0.1834 0.0031
H14_5 H 0.2929 0.2192 0.1068
H15_5 H 0.3277 0.1932 0.0434
Zn5_4 Zn 0.43330(4) 0.33708(5) 0.14059(4)
C3_5 C 0.2349(3) 0.1131(4) 0.7583(5)
N2_5 N 0.31428(19) 0.27869(26) 0.8925(3)
C5_5 C 0.3340(3) 0.2682(4) 0.9794(4)
N7_5 N 0.1815(2) 0.0599(3) 0.8847(4)
N8_5 N 0.21351(18) 0.05962(25) 0.8015(3)
N9_5 N 0.2669(2) 0.00436(28) 0.5574(3)
N11_5 N 0.21774(19) 0.14713(26) 0.8069(3)
N12_5 N 0.1839(3) 0.1133(4) 0.8889(4)
N13_4 N 0.3563(3) 0.3351(5) 0.8638(5)
N14_4 N 0.3984(3) 0.3586(5) 0.9335(5)
C15_5 C 0.2792(6) 0.1339(8) 0.6692(9)
H16_5 H 0.2900 0.1746 0.6502
H17_5 H 0.2607 0.1073 0.6108
H18_5 H 0.3150 0.1328 0.6898
N15_5 N 0.30710(18) 0.02670(31) 0.8679(3)
N16_4 N 0.16982(25) 0.24281(30) 0.8641(3)
Zn1_5 Zn 0.22827(3) 0.99016(4) 0.77980(4)
C1_5 C 0.2863(2) 0.9405(3) 0.6328(4)
C2_5 C 0.1082(2) 0.8836(3) 0.8155(4)
O1_5 O 0.13593(19) 0.94919(28) 0.6690(3)
H1_5 H 0.1395 0.9313 0.6186
N3_5 N 0.16618(17) 0.91427(24) 0.8470(3)
C4_5 C 0.1705(2) 0.8777(3) 0.9251(4)
N5_5 N 0.2923(2) 0.98798(27) 0.4902(3)
N6_5 N 0.26214(18) 0.97577(25) 0.6491(3)
C6_5 C 0.1115(2) 0.8250(3) 0.9366(4)
C7_5 C 0.2193(2) 0.8846(3) 0.9848(4)
H2_5 H 0.2576 0.9188 0.9785
C8_5 C 0.0844(2) 0.9073(3) 0.7301(5)
H3_5 H 0.0556 0.8734 0.6863
C10_5 C 0.2927(2) 0.9018(3) 0.7122(4)
H5_5 H 0.2748 0.9044 0.7764
H6_5 H 0.3351 0.9155 0.7231
H7_5 H 0.2724 0.8603 0.6887
C13_5 C 0.0534(3) 0.9403(4) 0.7758(6)
H10_5 H 0.0393 0.9555 0.7204
H11_5 H 0.0819 0.9736 0.8181
H12_5 H 0.0194 0.9126 0.8176
Zn1_6 Zn 0.00984(4) 0.23810(3) 0.77980(4)
C1_6 C 0.0595(3) 0.3457(2) 0.6328(4)
C2_6 C 0.1164(3) 0.2245(2) 0.8155(4)
O1_6 O 0.05081(28) 0.1867(2) 0.6690(3)
H1_6 H 0.0687 0.2081 0.6186
N3_6 N 0.08573(24) 0.25190(17) 0.8470(3)
C4_6 C 0.1223(3) 0.2927(2) 0.9251(4)
N5_6 N 0.01202(27) 0.30428(18) 0.4902(3)
N6_6 N 0.02423(25) 0.28636(18) 0.6491(3)
C6_6 C 0.1750(3) 0.2864(2) 0.9366(4)
C7_6 C 0.1154(3) 0.3346(2) 0.9848(4)
H2_6 H 0.0812 0.3387 0.9785
C8_6 C 0.0927(3) 0.1770(2) 0.7301(5)
H3_6 H 0.1266 0.1821 0.6863
C10_6 C 0.0982(3) 0.3908(2) 0.7122(4)
H5_6 H 0.0956 0.3703 0.7764
H6_6 H 0.0845 0.4195 0.7231
H7_6 H 0.1397 0.4120 0.6887
C13_6 C 0.0597(4) 0.1130(2) 0.7758(6)
H10_6 H 0.0445 0.0837 0.7204
H11_6 H 0.0264 0.1082 0.8181
H12_6 H 0.0874 0.1067 0.8176
N10_6 N 0.68359(25) 0.07060(18) 0.0058(3)
C14_6 C 0.7889(8) 0.0910(6) 0.0383(8)
H13_6 H 0.8166 0.0816 0.0031
H14_6 H 0.7808 0.0736 0.1068
H15_6 H 0.8068 0.1344 0.0434
Zn5_5 Zn 0.66292(5) 0.09623(3) 0.14059(4)
C2_7 C 0.4421(2) 0.2252(2) 0.1489(4)
C3_6 C 0.5449(3) 0.0985(3) 0.0917(5)
O1_7 O 0.4799(2) 0.19741(19) 0.0024(3)
N2_6 N 0.63108(18) 0.01906(19) 0.2259(3)
N3_7 N 0.41476(17) 0.16716(17) 0.1804(3)
N4_3 N 0.42385(18) 0.26034(17) 0.1975(3)
C4_7 C 0.3739(2) 0.1629(2) 0.2585(4)
N7_6 N 0.5451(2) 0.1519(2) 0.2181(4)
N8_6 N 0.51278(17) 0.11983(18) 0.1349(3)
C6_7 C 0.3802(2) 0.2219(2) 0.2700(4)
N11_6 N 0.59606(18) 0.11560(19) 0.1403(3)
C7_7 C 0.3320(2) 0.1141(2) 0.3182(4)
H2_7 H 0.3279 0.0758 0.3119
C8_7 C 0.4896(2) 0.2490(2) 0.0635(5)
H3_7 H 0.4845 0.2778 0.0197
N12_6 N 0.5961(2) 0.1495(3) 0.2223(4)
C9_5 C 0.3448(3) 0.2310(2) 0.3402(4)
H4_5 H 0.3491 0.2693 0.3488
C10_7 C 0.2758(2) 0.0407(2) 0.0456(4)
H5_7 H 0.2963 0.0586 0.1098
H7_7 H 0.2546 0.0610 0.0221
C11_5 C 0.3023(3) 0.1816(3) 0.3985(5)
H8_5 H 0.2773 0.1866 0.4456
C12_5 C 0.2973(3) 0.1249(2) 0.3861(4)
H9_5 H 0.2688 0.0926 0.4261
C13_7 C 0.5536(2) 0.2800(3) 0.1092(6)
H10_7 H 0.5829 0.2941 0.0538
H11_7 H 0.5584 0.2515 0.1515
H12_7 H 0.5599 0.3140 0.1510
C14_7 C 0.5756(6) 0.0312(5) 0.3717(8)
H13_7 H 0.5850 0.0683 0.3365
H14_7 H 0.5930 0.0405 0.4402
H15_7 H 0.5322 0.0057 0.3768
C15_6 C 0.5214(5) 0.0542(6) 0.0026(9)
H18_6 H 0.4845 0.0184 0.0232
N16_5 N 0.73966(17) 0.16352(25) 0.1975(3)
C1_7 C 0.3209(2) 0.0471(2) 0.9662(4)
H1_7 H 0.4585 0.1939 0.9520
N5_7 N 0.36238(18) 0.0411(2) 0.8236(3)
N6_7 N 0.38030(18) 0.07120(18) 0.9825(3)
N9_6 N 0.40416(19) 0.0665(2) 0.8908(3)
H16_6 H 0.5513 0.0434 0.9836
H17_6 H 0.5133 0.0727 0.9442
C5_6 C 0.6009(3) 0.9994(3) 0.3128(4)
H6_7 H 0.2471 0.9983 0.0565
N13_5 N 0.6455(4) 0.9771(3) 0.1972(5)
N14_5 N 0.6269(4) 0.9350(3) 0.2669(5)
C5_7 C 0.0006(3) 0.6016(4) 0.3128(4)
H6_8 H 0.0017 0.2489 0.0565
N13_6 N 0.0229(3) 0.6685(5) 0.1972(5)
N14_6 N 0.0650(3) 0.6920(5) 0.2669(5)
C2_8 C 0.7748(2) 0.2170(3) 0.1489(4)
C3_7 C 0.9015(3) 0.4465(4) 0.0917(5)
O1_8 O 0.80259(19) 0.28253(28) 0.0024(3)
N2_7 N 0.98094(19) 0.61203(26) 0.2259(3)
N3_8 N 0.83284(17) 0.24761(24) 0.1804(3)
C4_8 C 0.8371(2) 0.2111(3) 0.2585(4)
N7_7 N 0.8481(2) 0.3933(3) 0.2181(4)
N8_7 N 0.88017(18) 0.39296(25) 0.1349(3)
C6_8 C 0.7781(2) 0.1584(3) 0.2700(4)
N11_7 N 0.88440(19) 0.48047(26) 0.1403(3)
C7_8 C 0.8859(2) 0.2180(3) 0.3182(4)
H2_8 H 0.9242 0.2522 0.3119
C8_8 C 0.7510(2) 0.2407(3) 0.0635(5)
H3_8 H 0.7222 0.2068 0.0197
N12_7 N 0.8505(3) 0.4467(4) 0.2223(4)
C9_6 C 0.7690(2) 0.1139(4) 0.3402(4)
H4_6 H 0.7307 0.0799 0.3488
C10_8 C 0.9593(2) 0.2352(3) 0.0456(4)
H5_8 H 0.9414 0.2378 0.1098
H7_8 H 0.9390 0.1937 0.0221
C11_6 C 0.8184(3) 0.1208(4) 0.3985(5)
H8_6 H 0.8134 0.0908 0.4456
C12_6 C 0.8751(2) 0.1725(4) 0.3861(4)
H9_6 H 0.9074 0.1763 0.4261
C13_8 C 0.7200(3) 0.2737(4) 0.1092(6)
H10_8 H 0.7059 0.2889 0.0538
H11_8 H 0.7485 0.3070 0.1515
H12_8 H 0.6860 0.2460 0.1510
C14_8 C 0.9688(5) 0.5445(8) 0.3717(8)
H13_8 H 0.9317 0.5168 0.3365
H14_8 H 0.9595 0.5526 0.4402
H15_8 H 0.9943 0.5266 0.3768
C15_7 C 0.9458(6) 0.4673(8) 0.0026(9)
H18_7 H 0.9816 0.4662 0.0232
N16_6 N 0.83648(25) 0.57615(30) 0.1975(3)
C2_9 C 0.7830(3) 0.5579(2) 0.1489(4)
C3_8 C 0.5535(4) 0.4551(3) 0.0917(5)
O1_9 O 0.71747(28) 0.5201(2) 0.0024(3)
N2_8 N 0.38797(26) 0.36892(18) 0.2259(3)
N3_9 N 0.75239(24) 0.58524(17) 0.1804(3)
C4_9 C 0.7889(3) 0.6261(2) 0.2585(4)
C5_8 C 0.3984(4) 0.3991(3) 0.3128(4)
N7_8 N 0.6067(3) 0.4549(2) 0.2181(4)
N8_8 N 0.60704(25) 0.48722(17) 0.1349(3)
C6_9 C 0.8416(3) 0.6198(2) 0.2700(4)
N11_8 N 0.51953(26) 0.40394(18) 0.1403(3)
C7_9 C 0.7820(3) 0.6680(2) 0.3182(4)
H2_9 H 0.7478 0.6721 0.3119
C8_9 C 0.7593(3) 0.5104(2) 0.0635(5)
H3_9 H 0.7932 0.5155 0.0197
N12_8 N 0.5533(4) 0.4039(2) 0.2223(4)
C9_7 C 0.8861(4) 0.6552(3) 0.3402(4)
H4_7 H 0.9201 0.6509 0.3488
C10_9 C 0.7648(3) 0.7242(2) 0.0456(4)
H5_9 H 0.7622 0.7037 0.1098
H6_9 H 0.7511 0.7529 0.0565
H7_9 H 0.8063 0.7454 0.0221
C11_7 C 0.8792(4) 0.6977(3) 0.3985(5)
H8_7 H 0.9092 0.7227 0.4456
C12_7 C 0.8275(4) 0.7027(3) 0.3861(4)
H9_7 H 0.8237 0.7312 0.4261
N13_7 N 0.3315(5) 0.3545(4) 0.1972(5)
C13_9 C 0.7263(4) 0.4464(2) 0.1092(6)
H10_9 H 0.7111 0.4171 0.0538
H11_9 H 0.6930 0.4416 0.1515
H12_9 H 0.7540 0.4401 0.1510
N14_7 N 0.3080(5) 0.3731(4) 0.2669(5)
C14_9 C 0.4555(8) 0.4244(6) 0.3717(8)
H13_9 H 0.4832 0.4150 0.3365
H14_9 H 0.4474 0.4070 0.4402
H15_9 H 0.4734 0.4678 0.3768
C15_8 C 0.5327(8) 0.4786(5) 0.0026(9)
H18_8 H 0.5338 0.5155 0.0232
C1_8 C 0.7261(3) 0.6791(2) 0.9662(4)
H1_8 H 0.7353 0.5415 0.9520
N5_8 N 0.67868(27) 0.63762(18) 0.8236(3)
N6_8 N 0.69089(25) 0.61970(18) 0.9825(3)
N9_7 N 0.66230(28) 0.59584(19) 0.8908(3)
H16_7 H 0.4920 0.4487 0.9836
H17_7 H 0.5593 0.4867 0.9442
N13_8 N 0.6896(3) 0.0018(5) 0.5305(5)
N14_8 N 0.7317(3) 0.0253(5) 0.6002(5)
Zn5_6 Zn 0.76664(4) 0.00374(5) 0.80725(4)
C3_9 C 0.8869(4) 0.1217(3) 0.7583(5)
N2_9 N 0.72131(26) 0.03558(18) 0.8925(3)
C5_9 C 0.7318(4) 0.0657(3) 0.9794(4)
N7_9 N 0.9401(3) 0.1215(2) 0.8847(4)
N8_9 N 0.94038(25) 0.15388(17) 0.8015(3)
N9_8 N 0.99564(28) 0.26250(19) 0.5574(3)
N11_9 N 0.85287(26) 0.07060(18) 0.8069(3)
N12_9 N 0.8867(4) 0.0705(2) 0.8889(4)
N13_9 N 0.6649(5) 0.0211(4) 0.8638(5)
N14_9 N 0.6414(5) 0.0397(4) 0.9335(5)
C15_9 C 0.8661(8) 0.1452(5) 0.6692(9)
H16_8 H 0.8254 0.1153 0.6502
H17_8 H 0.8927 0.1533 0.6108
H18_9 H 0.8672 0.1821 0.6898
N15_6 N 0.97330(31) 0.28041(25) 0.8679(3)
C1_9 C 0.9529(2) 0.2739(3) 0.9662(4)
H1_9 H 0.8061 0.2647 0.9520
N5_9 N 0.9589(2) 0.32132(27) 0.8236(3)
N6_9 N 0.92880(18) 0.30911(25) 0.9825(3)
N9_9 N 0.9335(2) 0.33770(28) 0.8908(3)
H16_9 H 0.9566 0.5080 0.9836
H17_9 H 0.9273 0.4407 0.9442
C9_8 C 0.1024(2) 0.7805(4) 0.0068(4)
H4_8 H 0.0641 0.7465 0.0154
C11_8 C 0.1518(3) 0.7874(4) 0.0651(5)
H8_8 H 0.1468 0.7574 0.1122
C12_8 C 0.2085(2) 0.8391(4) 0.0527(4)
H9_8 H 0.2408 0.8429 0.0927
C9_9 C 0.2195(4) 0.3218(3) 0.0068(4)
H4_9 H 0.2535 0.3175 0.0154
C11_9 C 0.2126(4) 0.3643(3) 0.0651(5)
H8_9 H 0.2426 0.3893 0.1122
C12_9 C 0.1609(4) 0.3693(3) 0.0527(4)
H9_9 H 0.1571 0.3978 0.0927
loop_
_geom_bond_atom_site_label_1
_geom_bond_atom_site_label_2
_geom_bond_site_symmetry_1
_geom_bond_site_symmetry_2
Zn1 O1 1_555 1_555
Zn2 N2 1_555 1_555
C2 N3 1_555 1_555
C3 N8 1_555 1_555
O1 H1 1_555 1_555
N2 C5 1_555 1_555
N3 Zn1 1_555 1_555
N4 C2 1_555 1_555
C4 N3 1_555 1_555
N5 N9 1_555 1_555
N6 Zn1 1_555 1_555
C5 N10 1_555 1_555
N7 N8 1_555 1_555
N8 Zn1 1_555 1_555
N9 N6 1_555 1_555
N10 N14 1_555 1_555
C6 N4 1_555 1_555
N11 Zn2 1_555 1_555
C8 C2 1_555 1_555
H3 C8 1_555 1_555
N12 N7 1_555 1_555
C9 C6 1_555 1_555
H4 C9 1_555 1_555
N13 N2 1_555 1_555
C13 C8 1_555 1_555
H10 C13 1_555 1_555
H11 C13 1_555 1_555
H12 C13 1_555 1_555
N14 N13 1_555 1_555
C14 C5 1_555 1_555
H13 C14 1_555 1_555
H14 C14 1_555 1_555
H15 C14 1_555 1_555
C15 C3 1_555 1_555
H16 C15 1_555 1_555
H17 C15 1_555 1_555
H18 C15 1_555 1_555
Zn4 N4 1_555 1_555
Zn5 N10 1_555 1_555
N15 Zn1 1_555 1_555
N16 Zn2 1_555 1_555
N17 Zn2 1_555 1_555
C3 N11 1_555 1_555
O1 C8 1_555 1_555
C4 C6 1_555 1_555
N11 N12 1_555 1_555
C1 N1 1_555 1_555
H2 C7 1_555 1_555
C10 C1 1_555 1_555
H5 C10 1_555 1_555
H6 C10 1_555 1_555
H7 C10 1_555 1_555
H8 C11 1_555 1_555
C12 C7 1_555 1_555
H9 C12 1_555 1_555
Zn3 N1 1_555 1_555
C11 C12 1_555 1_555
Zn1_2 O1_2 1_555 1_555
Zn2_2 N2_2 1_555 1_555
C1_2 N1_2 1_555 1_555
C2_2 N3_2 1_555 1_555
C3_2 N8_2 1_555 1_555
O1_2 H1_2 1_555 1_555
N1_2 N5_2 1_555 1_555
N2_2 C5_2 1_555 1_555
N3_2 Zn1_2 1_555 1_555
N16 C2_2 1_555 1_555
C4_2 N3_2 1_555 1_555
N5_2 N9_2 1_555 1_555
N6_2 Zn1_2 1_555 1_555
C5_2 N10_2 1_555 1_555
N7_2 N8_2 1_555 1_555
N8_2 Zn1_2 1_555 1_555
N9_2 N6_2 1_555 1_555
C6_2 N16 1_555 1_555
N11_2 Zn2_2 1_555 1_555
C7_2 C4_2 1_555 1_555
H2_2 C7_2 1_555 1_555
C8_2 C2_2 1_555 1_555
H3_2 C8_2 1_555 1_555
N12_2 N7_2 1_555 1_555
C9_2 C6_2 1_555 1_555
H4_2 C9_2 1_555 1_555
C10_2 C1_2 1_555 1_555
H5_2 C10_2 1_555 1_555
H6_2 C10_2 1_555 1_555
H7_2 C10_2 1_555 1_555
C11_2 C9_2 1_555 1_555
H8_2 C11_2 1_555 1_555
C12_2 C7_2 1_555 1_555
H9_2 C12_2 1_555 1_555
C13_2 C8_2 1_555 1_555
H10_2 C13_2 1_555 1_555
H11_2 C13_2 1_555 1_555
H12_2 C13_2 1_555 1_555
C14_2 C5_2 1_555 1_555
H13_2 C14_2 1_555 1_555
H14_2 C14_2 1_555 1_555
H15_2 C14_2 1_555 1_555
C15_2 C3_2 1_555 1_555
H16_2 C15_2 1_555 1_555
H17_2 C15_2 1_555 1_555
H18_2 C15_2 1_555 1_555
Zn3_2 N1_2 1_555 1_555
N15_2 Zn1_2 1_555 1_555
N16_2 Zn2_2 1_555 1_555
N17_2 Zn2_2 1_555 1_555
C1_2 N6_2 1_555 1_555
C3_2 N11_2 1_555 1_555
O1_2 C8_2 1_555 1_555
C4_2 C6_2 1_555 1_555
N11_2 N12_2 1_555 1_555
C11_2 C12_2 1_555 1_555
C1_3 N1_3 1_555 1_555
H2_3 C7_3 1_555 1_555
C10_3 C1_3 1_555 1_555
H5_3 C10_3 1_555 1_555
H6_3 C10_3 1_555 1_555
H7_3 C10_3 1_555 1_555
H8_3 C11_3 1_555 1_555
C12_3 C7_3 1_555 1_555
H9_3 C12_3 1_555 1_555
Zn3_3 N1_3 1_555 1_555
C11_3 C12_3 1_555 1_555
Zn1_3 O1_3 1_555 1_555
Zn4 N2_3 1_555 1_555
C2_3 N3_3 1_555 1_555
C3_3 N8_3 1_555 1_555
O1_3 H1_3 1_555 1_555
N2_3 C5_3 1_555 1_555
N3_3 Zn1_3 1_555 1_555
N16_2 C2_3 1_555 1_555
C4_3 N3_3 1_555 1_555
N5_3 N9_3 1_555 1_555
N6_3 Zn1_3 1_555 1_555
C5_3 N10_3 1_555 1_555
N7_3 N8_3 1_555 1_555
N8_3 Zn1_3 1_555 1_555
N9_3 N6_3 1_555 1_555
C6_3 N16_2 1_555 1_555
N11_3 Zn4 1_555 1_555
C8_3 C2_3 1_555 1_555
H3_3 C8_3 1_555 1_555
N12_3 N7_3 1_555 1_555
C9_3 C6_3 1_555 1_555
H4_3 C9_3 1_555 1_555
C13_3 C8_3 1_555 1_555
H10_3 C13_3 1_555 1_555
H11_3 C13_3 1_555 1_555
H12_3 C13_3 1_555 1_555
C14_3 C5_3 1_555 1_555
H13_3 C14_3 1_555 1_555
H14_3 C14_3 1_555 1_555
H15_3 C14_3 1_555 1_555
C15_3 C3_3 1_555 1_555
H16_3 C15_3 1_555 1_555
H17_3 C15_3 1_555 1_555
H18_3 C15_3 1_555 1_555
N15_3 Zn1_3 1_555 1_555
N17_3 Zn4 1_555 1_555
C3_3 N11_3 1_555 1_555
O1_3 C8_3 1_555 1_555
C4_3 C6_3 1_555 1_555
N11_3 N12_3 1_555 1_555
N14_2 N13_2 1_555 1_555
H4_4 C9_4 1_555 1_555
C11_4 C9_4 1_555 1_555
H8_4 C11_4 1_555 1_555
H9_4 C12_4 1_555 1_555
H13_4 C14_4 1_555 1_555
H14_4 C14_4 1_555 1_555
H15_4 C14_4 1_555 1_555
Zn5_3 N10_4 1_555 1_555
C11_4 C12_4 1_555 1_555
Zn1_4 O1_4 1_555 1_555
Zn5_2 N2_4 1_555 1_555
C1_4 N15_2 1_555 1_555
C2_4 N3_4 1_555 1_555
C3_4 N8_4 1_555 1_555
O1_4 H1_4 1_555 1_555
N15_2 N5_4 1_555 1_555
N2_4 C5_4 1_555 1_555
N3_4 Zn1_4 1_555 1_555
N4_2 C2_4 1_555 1_555
C4_4 N3_4 1_555 1_555
N5_4 N9_4 1_555 1_555
N6_4 Zn1_4 1_555 1_555
N7_4 N8_4 1_555 1_555
N8_4 Zn1_4 1_555 1_555
N9_4 N6_4 1_555 1_555
C6_4 N4_2 1_555 1_555
N11_4 Zn5_2 1_555 1_555
C7_4 C4_4 1_555 1_555
H2_4 C7_4 1_555 1_555
C8_4 C2_4 1_555 1_555
H3_4 C8_4 1_555 1_555
N12_4 N7_4 1_555 1_555
C10_4 C1_4 1_555 1_555
H5_4 C10_4 1_555 1_555
H6_4 C10_4 1_555 1_555
H7_4 C10_4 1_555 1_555
N13_3 N2_4 1_555 1_555
C13_4 C8_4 1_555 1_555
H10_4 C13_4 1_555 1_555
H11_4 C13_4 1_555 1_555
H12_4 C13_4 1_555 1_555
N14_3 N13_3 1_555 1_555
C15_4 C3_4 1_555 1_555
H16_4 C15_4 1_555 1_555
H17_4 C15_4 1_555 1_555
H18_4 C15_4 1_555 1_555
N15_4 Zn1_4 1_555 1_555
C1_4 N6_4 1_555 1_555
C3_4 N11_4 1_555 1_555
O1_4 C8_4 1_555 1_555
C4_4 C6_4 1_555 1_555
N11_4 N12_4 1_555 1_555
H13_5 C14_5 1_555 1_555
H14_5 C14_5 1_555 1_555
H15_5 C14_5 1_555 1_555
Zn5_4 N10_5 1_555 1_555
Zn5 N2_5 1_555 1_555
C3_5 N8_5 1_555 1_555
N2_5 C5_5 1_555 1_555
N7_5 N8_5 1_555 1_555
N11_5 Zn5 1_555 1_555
N12_5 N7_5 1_555 1_555
N13_4 N2_5 1_555 1_555
N14_4 N13_4 1_555 1_555
C15_5 C3_5 1_555 1_555
H16_5 C15_5 1_555 1_555
H17_5 C15_5 1_555 1_555
H18_5 C15_5 1_555 1_555
N16_4 Zn5 1_555 1_555
C3_5 N11_5 1_555 1_555
N11_5 N12_5 1_555 1_555
Zn1_5 O1_5 1_555 1_555
C1_5 N15_3 1_555 1_555
C2_5 N3_5 1_555 1_555
O1_5 H1_5 1_555 1_555
N15_3 N5_5 1_555 1_555
N3_5 Zn1_5 1_555 1_555
N16_3 C2_5 1_555 1_555
C4_5 N3_5 1_555 1_555
N6_5 Zn1_5 1_555 1_555
C6_5 N16_3 1_555 1_555
C7_5 C4_5 1_555 1_555
H2_5 C7_5 1_555 1_555
C8_5 C2_5 1_555 1_555
H3_5 C8_5 1_555 1_555
C10_5 C1_5 1_555 1_555
H5_5 C10_5 1_555 1_555
H6_5 C10_5 1_555 1_555
H7_5 C10_5 1_555 1_555
C13_5 C8_5 1_555 1_555
H10_5 C13_5 1_555 1_555
H11_5 C13_5 1_555 1_555
H12_5 C13_5 1_555 1_555
C1_5 N6_5 1_555 1_555
O1_5 C8_5 1_555 1_555
C4_5 C6_5 1_555 1_555
Zn1_6 O1_6 1_555 1_555
C1_6 N15 1_555 1_555
C2_6 N3_6 1_555 1_555
O1_6 H1_6 1_555 1_555
N15 N5_6 1_555 1_555
N3_6 Zn1_6 1_555 1_555
N16_4 C2_6 1_555 1_555
C4_6 N3_6 1_555 1_555
N6_6 Zn1_6 1_555 1_555
C6_6 N16_4 1_555 1_555
C7_6 C4_6 1_555 1_555
H2_6 C7_6 1_555 1_555
C8_6 C2_6 1_555 1_555
H3_6 C8_6 1_555 1_555
C10_6 C1_6 1_555 1_555
H5_6 C10_6 1_555 1_555
H6_6 C10_6 1_555 1_555
H7_6 C10_6 1_555 1_555
C13_6 C8_6 1_555 1_555
H10_6 C13_6 1_555 1_555
H11_6 C13_6 1_555 1_555
H12_6 C13_6 1_555 1_555
C1_6 N6_6 1_555 1_555
O1_6 C8_6 1_555 1_555
C4_6 C6_6 1_555 1_555
H13_6 C14_6 1_555 1_555
H14_6 C14_6 1_555 1_555
H15_6 C14_6 1_555 1_555
Zn5_5 N10_6 1_555 1_555
Zn3_3 O1_7 1_555 1_555
Zn5_5 N2_6 1_555 1_555
C2_7 N3_7 1_555 1_555
C3_6 N8_6 1_555 1_555
N3_7 Zn3_3 1_555 1_555
N4_3 C2_7 1_555 1_555
C4_7 N3_7 1_555 1_555
N7_6 N8_6 1_555 1_555
N8_6 Zn3_3 1_555 1_555
C6_7 N4_3 1_555 1_555
N11_6 Zn5_5 1_555 1_555
C7_7 C4_7 1_555 1_555
H2_7 C7_7 1_555 1_555
C8_7 C2_7 1_555 1_555
H3_7 C8_7 1_555 1_555
N12_6 N7_6 1_555 1_555
C9_5 C6_7 1_555 1_555
H4_5 C9_5 1_555 1_555
H5_7 C10_7 1_555 1_555
H7_7 C10_7 1_555 1_555
C11_5 C9_5 1_555 1_555
H8_5 C11_5 1_555 1_555
C12_5 C7_7 1_555 1_555
H9_5 C12_5 1_555 1_555
C13_7 C8_7 1_555 1_555
H10_7 C13_7 1_555 1_555
H11_7 C13_7 1_555 1_555
H12_7 C13_7 1_555 1_555
H13_7 C14_7 1_555 1_555
H14_7 C14_7 1_555 1_555
H15_7 C14_7 1_555 1_555
C15_6 C3_6 1_555 1_555
H18_6 C15_6 1_555 1_555
Zn5_4 N4_3 1_555 1_555
N16_5 Zn5_5 1_555 1_555
C3_6 N11_6 1_555 1_555
O1_7 C8_7 1_555 1_555
C4_7 C6_7 1_555 1_555
N11_6 N12_6 1_555 1_555
C11_5 C12_5 1_555 1_555
C1_7 N15_5 1_555 1_555
N15_5 N5_7 1_555 1_555
N5_7 N9_6 1_555 1_555
N9_6 N6_7 1_555 1_555
C1_7 N6_7 1_555 1_555
C5_6 N17_2 1_555 1_555
N17_2 N14_5 1_555 1_555
N14_5 N13_5 1_555 1_555
C5_7 N17_3 1_555 1_555
N17_3 N14_6 1_555 1_555
N14_6 N13_6 1_555 1_555
Zn3 O1_8 1_555 1_555
Zn5_3 N2_7 1_555 1_555
C2_8 N3_8 1_555 1_555
C3_7 N8_7 1_555 1_555
N3_8 Zn3 1_555 1_555
N16_5 C2_8 1_555 1_555
C4_8 N3_8 1_555 1_555
N7_7 N8_7 1_555 1_555
N8_7 Zn3 1_555 1_555
C6_8 N16_5 1_555 1_555
N11_7 Zn5_3 1_555 1_555
C7_8 C4_8 1_555 1_555
H2_8 C7_8 1_555 1_555
C8_8 C2_8 1_555 1_555
H3_8 C8_8 1_555 1_555
N12_7 N7_7 1_555 1_555
C9_6 C6_8 1_555 1_555
H4_6 C9_6 1_555 1_555
H5_8 C10_8 1_555 1_555
H7_8 C10_8 1_555 1_555
C11_6 C9_6 1_555 1_555
H8_6 C11_6 1_555 1_555
C12_6 C7_8 1_555 1_555
H9_6 C12_6 1_555 1_555
C13_8 C8_8 1_555 1_555
H10_8 C13_8 1_555 1_555
H11_8 C13_8 1_555 1_555
H12_8 C13_8 1_555 1_555
H13_8 C14_8 1_555 1_555
H14_8 C14_8 1_555 1_555
H15_8 C14_8 1_555 1_555
C15_7 C3_7 1_555 1_555
H18_7 C15_7 1_555 1_555
N16_6 Zn5_3 1_555 1_555
C3_7 N11_7 1_555 1_555
O1_8 C8_8 1_555 1_555
C4_8 C6_8 1_555 1_555
N11_7 N12_7 1_555 1_555
C11_6 C12_6 1_555 1_555
Zn3_2 O1_9 1_555 1_555
Zn5_4 N2_8 1_555 1_555
C2_9 N3_9 1_555 1_555
C3_8 N8_8 1_555 1_555
N2_8 C5_8 1_555 1_555
N3_9 Zn3_2 1_555 1_555
N16_6 C2_9 1_555 1_555
C4_9 N3_9 1_555 1_555
C5_8 N17 1_555 1_555
N7_8 N8_8 1_555 1_555
N8_8 Zn3_2 1_555 1_555
N17 N14_7 1_555 1_555
C6_9 N16_6 1_555 1_555
N11_8 Zn5_4 1_555 1_555
C7_9 C4_9 1_555 1_555
H2_9 C7_9 1_555 1_555
C8_9 C2_9 1_555 1_555
H3_9 C8_9 1_555 1_555
N12_8 N7_8 1_555 1_555
C9_7 C6_9 1_555 1_555
H4_7 C9_7 1_555 1_555
H5_9 C10_9 1_555 1_555
H6_9 C10_9 1_555 1_555
H7_9 C10_9 1_555 1_555
C11_7 C9_7 1_555 1_555
H8_7 C11_7 1_555 1_555
C12_7 C7_9 1_555 1_555
H9_7 C12_7 1_555 1_555
N13_7 N2_8 1_555 1_555
C13_9 C8_9 1_555 1_555
H10_9 C13_9 1_555 1_555
H11_9 C13_9 1_555 1_555
H12_9 C13_9 1_555 1_555
N14_7 N13_7 1_555 1_555
C14_9 C5_8 1_555 1_555
H13_9 C14_9 1_555 1_555
H14_9 C14_9 1_555 1_555
H15_9 C14_9 1_555 1_555
C15_8 C3_8 1_555 1_555
H18_8 C15_8 1_555 1_555
C3_8 N11_8 1_555 1_555
O1_9 C8_9 1_555 1_555
C4_9 C6_9 1_555 1_555
N11_8 N12_8 1_555 1_555
C11_7 C12_7 1_555 1_555
C1_8 N15_4 1_555 1_555
N15_4 N5_8 1_555 1_555
N5_8 N9_7 1_555 1_555
N9_7 N6_8 1_555 1_555
C1_8 N6_8 1_555 1_555
N14_8 N13_8 1_555 1_555
Zn5_6 N2_9 1_555 1_555
C3_9 N8_9 1_555 1_555
N2_9 C5_9 1_555 1_555
N7_9 N8_9 1_555 1_555
N11_9 Zn5_6 1_555 1_555
N12_9 N7_9 1_555 1_555
N13_9 N2_9 1_555 1_555
N14_9 N13_9 1_555 1_555
C15_9 C3_9 1_555 1_555
H16_8 C15_9 1_555 1_555
H17_8 C15_9 1_555 1_555
H18_9 C15_9 1_555 1_555
C3_9 N11_9 1_555 1_555
N11_9 N12_9 1_555 1_555
C1_9 N15_6 1_555 1_555
N15_6 N5_9 1_555 1_555
N5_9 N9_9 1_555 1_555
N9_9 N6_9 1_555 1_555
C1_9 N6_9 1_555 1_555
H4_8 C9_8 1_555 1_555
C11_8 C9_8 1_555 1_555
H8_8 C11_8 1_555 1_555
H9_8 C12_8 1_555 1_555
C11_8 C12_8 1_555 1_555
H4_9 C9_9 1_555 1_555
C11_9 C9_9 1_555 1_555
H8_9 C11_9 1_555 1_555
H9_9 C12_9 1_555 1_555
C11_9 C12_9 1_555 1_555

#END
