
###############################################################################
#
# This file contains modified crystal structure data generated from the
# MOF subset of the Cambridge Structural Database (CSD) v543 
# hosted by the Cambridge Crystallographic Data Centre (CCDC).
#
# This work is licensed under the Creative Commons
# Attribution-NonCommercial-ShareAlike 4.0 International License.
# To view a copy of this license, visit
# http://creativecommons.org/licenses/by-nc-sa/4.0/
# or send a letter to
# Creative Commons, PO Box 1866, Mountain View, CA 94042, USA.
#
# CIF created using the CSD Python API on 29 September 2022
# The structure has been converted into the P1 space group
# The structure has a 3D framework
# The original CSD entry JACDUQ is in the orthorhombic crystal system
# The original CSD entry JACDUQ is in a Sohncke space group
# The framework has been calculated to contain at least 10.0% void space
# The void calculation uses a probe of radius 1.32A, grid spacing 0.4
#
###############################################################################

data_JACDUQ
_chemical_formula_moiety         '(C192 H168 Cu16 Dy6 I12 N36 O64)n'
_symmetry_cell_setting           triclinic
_symmetry_space_group_name_H-M   'P 1'
_symmetry_Int_Tables_number      1
_space_group_name_Hall           'P 1'
loop_
_symmetry_equiv_pos_site_id
_symmetry_equiv_pos_as_xyz
1 x,y,z
_cell_length_a                   9.2269(2)
_cell_length_b                   22.3621(6)
_cell_length_c                   30.5808(7)
_cell_angle_alpha                90
_cell_angle_beta                 90
_cell_angle_gamma                90
_cell_volume                     6309.82
loop_
_atom_site_label
_atom_site_type_symbol
_atom_site_fract_x
_atom_site_fract_y
_atom_site_fract_z
Dy3 Dy 0.00933(6) 0.45883(2) 0.51802(2)
H42 H 0.418351 0.018395 0.709597
Dy6 Dy 0.50933(6) 0.04117(2) 0.48198(2)
Dy9 Dy 0.04248(6) 0.06854(2) 0.48798(2)
Dy4 Dy 0.49067(6) 0.54117(2) 0.01802(2)
Dy8 Dy 0.95752(6) 0.56854(2) 0.01202(2)
Dy2 Dy 0.54248(6) 0.43146(2) 0.51202(2)
I1 I 0.21428(9) 0.60091(4) 0.74823(3)
I2 I 0.51505(9) 0.75595(3) 0.72242(2)
I3 I 0.01479(9) 0.76303(4) 0.71377(2)
Cu1 Cu 0.49197(18) 0.64035(6) 0.74475(4)
Cu2 Cu 0.27479(18) 0.76202(7) 0.67725(5)
Cu4 Cu 0.25776(17) 0.71538(7) 0.75543(5)
O1 O 0.1782(9) 0.5332(4) 0.5279(3)
O2 O 0.3777(8) 0.9626(4) 0.5056(3)
O3 O 0.1505(8) 0.9881(4) 0.5250(3)
O6 O 0.0729(9) 0.8724(4) 0.9456(3)
O8 O 0.6314(9) 0.5868(3) 0.9655(3)
O9 O 0.3082(8) 0.8551(3) 0.9602(2)
C1 C 0.5306(13) 0.6050(6) 0.8809(4)
H1 H 0.466147 0.590246 0.901617
N1 N 0.2939(11) 0.6894(5) 0.6356(3)
N2 N 0.5730(10) 0.6368(4) 0.8071(3)
N3 N 0.2768(13) 0.8301(5) 0.6332(3)
C3 C 0.2997(12) 0.5459(5) 0.5433(4)
O11 O 0.1474(11) 0.9264(5) 0.7316(3)
N5 N 0.5933(12) 0.5903(5) 0.6974(3)
C4 C 0.4861(14) 0.6146(6) 0.8384(4)
H2 H 0.390946 0.605256 0.831082
C5 C 0.3429(15) 0.8095(7) 0.8753(4)
H3 H 0.424938 0.825729 0.888330
N7 N 0.3908(12) 0.9372(5) 0.7361(4)
N8 N 0.2405(11) 0.7536(4) 0.8161(3)
C6 C 0.2626(14) 0.9563(6) 0.5277(4)
C8 C 0.7916(14) 0.4982(6) 0.5893(4)
C11 C 0.7597(14) 0.6417(6) 0.8607(4)
H5 H 0.854601 0.652570 0.867167
N9 N 0.2049(11) 0.2921(4) 0.4884(4)
C13 C 0.1971(13) 0.8506(5) 0.9368(4)
O12 O 0.9269(9) 0.5028(4) 0.5845(3)
O13 O 0.4218(9) 0.3373(4) 0.5009(3)
O14 O 0.4179(9) 0.5189(4) 0.5368(3)
O15 O 0.8574(9) 0.6092(4) 0.9458(2)
C14 C 0.7231(13) 0.6037(5) 0.9384(4)
C16 C 0.1117(14) 0.7610(6) 0.8348(4)
H7 H 0.030916 0.744791 0.821004
C17 C 0.3024(13) 0.5972(6) 0.5748(4)
O16 O 0.7100(9) 0.4712(4) 0.5633(2)
C18 C 0.1496(15) 0.9025(6) 0.5914(5)
H8 H 0.065398 0.924728 0.587378
C19 C 0.3144(13) 0.3258(5) 0.4771(4)
H9 H 0.312541 0.342626 0.449266
C20 C 0.6739(13) 0.6178(6) 0.8923(4)
C21 C 0.3538(15) 0.7784(6) 0.8357(4)
H10 H 0.444357 0.774981 0.822506
C22 C 0.7350(15) 0.5994(7) 0.6871(4)
H11 H 0.788663 0.626969 0.703186
C23 C 0.2653(14) 0.9106(5) 0.5636(4)
C25 C 0.2657(16) 0.9147(7) 0.7481(5)
H13 H 0.266392 0.887435 0.770999
C26 C 0.5255(19) 0.9203(8) 0.7566(7)
H14 H 0.505822 0.900812 0.783883
H15 H 0.583050 0.955388 0.761695
H16 H 0.577344 0.893488 0.737693
C27 C 0.8007(14) 0.5688(7) 0.6536(4)
H17 H 0.898893 0.574786 0.648250
C28 C 0.4147(13) 0.6770(6) 0.6138(4)
H18 H 0.496491 0.700225 0.618988
C29 C 0.5188(14) 0.5503(5) 0.6741(4)
H19 H 0.422435 0.543054 0.681271
C30 C 0.7248(14) 0.5296(6) 0.6277(4)
C32 C 0.3890(14) 0.8761(6) 0.5708(4)
H21 H 0.468584 0.879072 0.552296
C33 C 0.4237(13) 0.6309(6) 0.5838(4)
H22 H 0.510903 0.622696 0.569794
C34 C 0.1941(16) 0.2655(6) 0.5327(4)
H23 H 0.285316 0.269614 0.547505
H24 H 0.169783 0.223916 0.530296
H25 H 0.120121 0.285867 0.549035
C35 C 0.2094(14) 0.8156(5) 0.8946(4)
C37 C 0.5808(13) 0.5189(6) 0.6391(4)
H27 H 0.526311 0.491041 0.623611
C38 C 0.3908(15) 0.8372(7) 0.6061(5)
H28 H 0.474278 0.815013 0.611361
C39 C 0.7060(14) 0.6499(6) 0.8194(4)
H29 H 0.768123 0.665839 0.798463
C40 C 0.0773(14) 0.2847(6) 0.4607(5)
H31 H 0.053388 0.242968 0.458678
H32 H 0.097466 0.300011 0.432011
C41 C 0.0911(14) 0.7919(7) 0.8740(4)
C42 C 0.1577(17) 0.8620(7) 0.6247(5)
H34 H 0.076672 0.856461 0.642370
C44 C 0.1748(14) 0.6105(6) 0.5974(4)
H36 H 0.090084 0.589218 0.592042
C45 C 0.1773(15) 0.6560(6) 0.6279(4)
H37 H 0.093566 0.663751 0.643882
C48 C 0.395(2) 0.9790(9) 0.6991(7)
H40 H 0.302459 0.979744 0.684971
H41 H 0.467922 0.966346 0.678684
Dy11 Dy 0.45752(6) 0.93146(2) 0.98798(2)
O18 O 0.6505(8) 0.5119(4) 0.4750(3)
O19 O 0.1383(9) 0.4683(4) 0.4521(3)
O20 O 0.4283(8) 0.4035(4) 0.5793(2)
O22 O 0.3748(9) 0.4490(4) 0.4587(3)
O24 O 0.6918(8) 0.3551(3) 0.5398(2)
O25 O 0.2059(9) 0.4162(4) 0.5523(2)
O27 O 0.6426(9) 0.3908(4) 0.4458(2)
O4 O 0.6383(9) 0.0317(4) 0.5479(3)
O7 O 0.8748(9) 0.0510(4) 0.5413(3)
C2 C 0.7686(14) 0.0276(6) 0.5600(4)
C47 C 0.8972(15) 0.0135(6) 0.6313(4)
H39 H 0.941037 0.050553 0.627275
Cu3 Cu 0.94134(18) 0.87591(7) 0.72526(5)
O5 O 0.5717(8) 0.9035(4) 0.9207(2)
O10 O 0.7941(9) 0.9162(4) 0.9477(2)
N4 N 0.8698(11) 0.9247(5) 0.6748(3)
N6 N 0.8717(11) 0.8822(5) 0.7867(3)
C7 C 0.7999(13) 0.9919(6) 0.6010(4)
C9 C 0.9014(14) 0.9318(7) 0.8105(4)
H4 H 0.957801 0.961569 0.797797
C10 C 0.7062(13) 0.9050(5) 0.9165(4)
C12 C 0.7353(13) 0.8464(6) 0.8477(4)
H6 H 0.677516 0.816485 0.859536
C15 C 0.7672(13) 0.8968(6) 0.8721(4)
C24 C 0.8524(13) 0.9404(6) 0.8526(4)
H12 H 0.876179 0.975123 0.867767
C31 C 0.7726(15) 0.9056(7) 0.6460(4)
H20 H 0.728450 0.868780 0.650515
C36 C 0.7902(14) 0.8404(6) 0.8050(4)
H26 H 0.768503 0.806018 0.789139
H30 H 0.997247 0.306099 0.473167
H33 H 0.998864 0.796235 0.885928
C43 C 0.9286(17) 0.9796(7) 0.6676(4)
H35 H 0.993011 0.994903 0.688181
C46 C 0.7341(15) 0.9390(7) 0.6089(5)
H38 H 0.663483 0.924803 0.589904
Dy7 Dy 0.99067(6) 0.95883(2) 0.98198(2)
O17 O 0.8777(8) 0.5374(4) 0.4944(3)
O21 O 0.9271(9) 0.3724(4) 0.5544(3)
O23 O 0.8686(9) 0.4132(3) 0.4655(3)
I1_2 I 0.28572(9) 0.39909(4) 0.24823(3)
I3_2 I 0.48521(9) 0.23697(4) 0.21377(2)
Cu1_2 Cu 0.00803(18) 0.35965(6) 0.24475(4)
Cu2_2 Cu 0.22521(18) 0.23798(7) 0.17725(5)
Cu3_2 Cu 0.55866(18) 0.12409(7) 0.22526(5)
Cu4_2 Cu 0.24224(17) 0.28462(7) 0.25543(5)
O1_2 O 0.3218(9) 0.4668(4) 0.0279(3)
O2_2 O 0.1223(8) 0.0374(4) 0.0056(3)
O3_2 O 0.3495(8) 0.0119(4) 0.0250(3)
O5_2 O 0.9283(8) 0.0965(4) 0.4207(2)
O6_2 O 0.4271(9) 0.1276(4) 0.4456(3)
O9_2 O 0.1918(8) 0.1449(3) 0.4602(2)
H1_2 H 0.033853 0.409754 0.401617
O10_2 O 0.7059(9) 0.0838(4) 0.4477(2)
N1_2 N 0.2061(11) 0.3106(5) 0.1356(3)
N3_2 N 0.2232(13) 0.1699(5) 0.1332(3)
N4_2 N 0.6302(11) 0.0753(5) 0.1748(3)
C3_2 C 0.2003(12) 0.4541(5) 0.0433(4)
O11_2 O 0.3526(11) 0.0736(5) 0.2316(3)
C4_2 C 0.0139(14) 0.3854(6) 0.3384(4)
H2_2 H 0.109054 0.394744 0.331082
N6_2 N 0.6283(11) 0.1178(5) 0.2867(3)
C5_2 C 0.1571(15) 0.1905(7) 0.3753(4)
H3_2 H 0.075062 0.174271 0.388330
N7_2 N 0.1092(12) 0.0628(5) 0.2361(4)
N8_2 N 0.2595(11) 0.2464(4) 0.3161(3)
C6_2 C 0.2374(14) 0.0437(6) 0.0277(4)
C7_2 C 0.7001(13) 0.0081(6) 0.1010(4)
C9_2 C 0.5986(14) 0.0682(7) 0.3105(4)
H4_2 H 0.542199 0.038431 0.297797
C10_2 C 0.7938(13) 0.0950(5) 0.4165(4)
C12_2 C 0.7647(13) 0.1536(6) 0.3477(4)
H6_2 H 0.822484 0.183515 0.359536
C13_2 C 0.3029(13) 0.1494(5) 0.4368(4)
O13_2 O 0.0782(9) 0.6627(4) 0.0009(3)
O14_2 O 0.0821(9) 0.4811(4) 0.0368(3)
C15_2 C 0.7328(13) 0.1032(6) 0.3721(4)
C16_2 C 0.3883(14) 0.2390(6) 0.3348(4)
H7_2 H 0.469084 0.255209 0.321004
C17_2 C 0.1976(13) 0.4028(6) 0.0748(4)
C18_2 C 0.3504(15) 0.0975(6) 0.0914(5)
H8_2 H 0.434602 0.075272 0.087378
C21_2 C 0.1462(15) 0.2216(6) 0.3357(4)
H10_2 H 0.055643 0.225019 0.322506
C23_2 C 0.2347(14) 0.0894(5) 0.0636(4)
C24_2 C 0.6476(13) 0.0596(6) 0.3526(4)
H12_2 H 0.623821 0.024877 0.367767
C25_2 C 0.2343(16) 0.0853(7) 0.2481(5)
H13_2 H 0.233608 0.112565 0.270999
C28_2 C 0.0853(13) 0.3230(6) 0.1138(4)
H18_2 H 0.003509 0.299775 0.118988
H19_2 H 0.077565 0.456946 0.181271
C31_2 C 0.7274(15) 0.0944(7) 0.1460(4)
H20_2 H 0.771550 0.131220 0.150515
C32_2 C 0.1110(14) 0.1239(6) 0.0708(4)
H21_2 H 0.031416 0.120928 0.052296
C33_2 C 0.0763(13) 0.3691(6) 0.0838(4)
C34_2 C 0.3059(16) 0.7345(6) 0.0327(4)
H23_2 H 0.214684 0.730386 0.047505
H24_2 H 0.330217 0.776084 0.030296
H25_2 H 0.379879 0.714133 0.049035
C35_2 C 0.2906(14) 0.1844(5) 0.3946(4)
C36_2 C 0.7098(14) 0.1596(6) 0.3050(4)
H26_2 H 0.731497 0.193982 0.289139
C38_2 C 0.1092(15) 0.1628(7) 0.1061(5)
H28_2 H 0.025722 0.184987 0.111361
C41_2 C 0.4089(14) 0.2081(7) 0.3740(4)
H33_2 H 0.501136 0.203765 0.385928
C42_2 C 0.3423(17) 0.1380(7) 0.1247(5)
H34_2 H 0.423328 0.143539 0.142370
C43_2 C 0.5714(17) 0.0204(7) 0.1676(4)
H35_2 H 0.506989 0.005097 0.188181
C44_2 C 0.3252(14) 0.3895(6) 0.0974(4)
H36_2 H 0.409916 0.410782 0.092042
C45_2 C 0.3227(15) 0.3440(6) 0.1279(4)
H37_2 H 0.406434 0.336249 0.143882
C46_2 C 0.7659(15) 0.0610(7) 0.1089(5)
H38_2 H 0.836517 0.075197 0.089904
C48_2 C 0.105(2) 0.0210(9) 0.1991(7)
H40_2 H 0.197541 0.020256 0.184971
H41_2 H 0.032078 0.033654 0.178684
O20_2 O 0.0717(8) 0.5965(4) 0.0793(2)
O21_2 O 0.5729(9) 0.6276(4) 0.0544(3)
O25_2 O 0.2941(9) 0.5838(4) 0.0523(2)
O26 O 0.5731(9) 0.4972(4) 0.0845(3)
N9_2 N 0.2951(11) 0.7079(4) 0.9884(4)
C19_2 C 0.1856(13) 0.6742(5) 0.9771(4)
H9_2 H 0.187459 0.657374 0.949266
C40_2 C 0.4227(14) 0.7153(6) 0.9607(5)
H30_2 H 0.502753 0.693901 0.973167
H31_2 H 0.446612 0.757032 0.958678
H32_2 H 0.402534 0.699989 0.932011
O17_2 O 0.6223(8) 0.4626(4) 0.9944(3)
O19_2 O 0.3617(9) 0.5317(4) 0.9521(3)
O22_2 O 0.1252(9) 0.5510(4) 0.9587(3)
O4_2 O 0.8617(9) 0.9683(4) 0.0479(3)
O7_2 O 0.6252(9) 0.9490(4) 0.0413(3)
C2_2 C 0.7314(14) 0.9724(6) 0.0600(4)
C47_2 C 0.6028(15) 0.9865(6) 0.1313(4)
H39_2 H 0.558963 0.949447 0.127275
H42_2 H 0.081649 0.981605 0.209597
I2_2 I 0.98495(9) 0.24405(3) 0.22242(2)
C1_2 C 0.9694(13) 0.3950(6) 0.3809(4)
N2_2 N 0.9270(10) 0.3632(4) 0.3071(3)
N5_2 N 0.9067(12) 0.4097(5) 0.1974(3)
C8_2 C 0.7084(14) 0.5018(6) 0.0893(4)
C11_2 C 0.7403(14) 0.3583(6) 0.3607(4)
H5_2 H 0.645399 0.347430 0.367167
C14_2 C 0.7769(13) 0.3963(5) 0.4384(4)
O16_2 O 0.7900(9) 0.5288(4) 0.0633(2)
C20_2 C 0.8261(13) 0.3822(6) 0.3923(4)
C22_2 C 0.7650(15) 0.4006(7) 0.1871(4)
H11_2 H 0.711337 0.373031 0.203186
C26_2 C 0.9745(19) 0.0797(8) 0.2566(7)
H14_2 H 0.994178 0.099188 0.283883
H15_2 H 0.916950 0.044612 0.261695
H16_2 H 0.922656 0.106512 0.237693
C27_2 C 0.6993(14) 0.4312(7) 0.1536(4)
H17_2 H 0.601107 0.425214 0.148250
C29_2 C 0.9812(14) 0.4497(5) 0.1741(4)
C30_2 C 0.7752(14) 0.4704(6) 0.1277(4)
H22_2 H 0.989097 0.377304 0.069794
C37_2 C 0.9192(13) 0.4811(6) 0.1391(4)
H27_2 H 0.973689 0.508959 0.123611
C39_2 C 0.7940(14) 0.3501(6) 0.3194(4)
H29_2 H 0.731877 0.334161 0.298463
O24_2 O 0.8082(8) 0.6449(3) 0.0398(2)
O18_2 O 0.8495(8) 0.4881(4) 0.9750(3)
C8_3 C 0.2916(14) 0.0018(6) 0.4107(4)
O16_3 O 0.2100(9) 0.0288(4) 0.4367(2)
H27_3 H 0.026311 0.008959 0.376389
O27_2 O 0.1426(9) 0.1092(4) 0.5542(2)
I2_3 I 0.01505(9) 0.74405(3) 0.27758(2)
O8_2 O 0.1314(9) 0.9132(3) 0.0345(3)
C1_3 C 0.0306(13) 0.8950(6) 0.1191(4)
N2_3 N 0.0730(10) 0.8632(4) 0.1929(3)
N5_3 N 0.0933(12) 0.9097(5) 0.3026(3)
C11_3 C 0.2597(14) 0.8583(6) 0.1393(4)
H5_3 H 0.354601 0.847430 0.132833
O12_2 O 0.4269(9) 0.9972(4) 0.4155(3)
O15_2 O 0.3574(9) 0.8908(4) 0.0542(2)
C14_3 C 0.2231(13) 0.8963(5) 0.0616(4)
C20_3 C 0.1739(13) 0.8822(6) 0.1077(4)
C22_3 C 0.2350(15) 0.9006(7) 0.3129(4)
H11_3 H 0.288663 0.873031 0.296814
C26_3 C 0.0255(19) 0.5797(8) 0.2434(7)
H14_3 H 0.005822 0.599188 0.216117
H15_3 H 0.083050 0.544612 0.238305
H16_3 H 0.077344 0.606512 0.262307
C27_3 C 0.3007(14) 0.9312(7) 0.3464(4)
H17_3 H 0.398893 0.925214 0.351750
C29_3 C 0.0188(14) 0.9497(5) 0.3259(4)
C30_3 C 0.2248(14) 0.9704(6) 0.3723(4)
H22_3 H 0.010903 0.877304 0.430206
C37_3 C 0.0808(13) 0.9811(6) 0.3609(4)
C39_3 C 0.2060(14) 0.8501(6) 0.1806(4)
H29_3 H 0.268123 0.834161 0.201537
N9_3 N 0.7049(11) 0.2079(4) 0.5116(4)
O13_3 O 0.9218(9) 0.1627(4) 0.4991(3)
C19_3 C 0.8144(13) 0.1742(5) 0.5229(4)
H9_3 H 0.812541 0.157374 0.550734
C34_3 C 0.6941(16) 0.2345(6) 0.4673(4)
H23_3 H 0.785316 0.230386 0.452495
H24_3 H 0.669783 0.276084 0.469704
H25_3 H 0.620121 0.214133 0.450965
C40_3 C 0.5773(14) 0.2153(6) 0.5393(5)
H30_3 H 0.497247 0.193901 0.526833
H31_3 H 0.553388 0.257032 0.541322
H32_3 H 0.597466 0.199989 0.567989
O23_2 O 0.3686(9) 0.0868(3) 0.5345(3)
I1_3 I 0.71428(9) 0.89909(4) 0.25177(3)
I3_3 I 0.51479(9) 0.73697(4) 0.28623(2)
Cu1_3 Cu 0.99197(18) 0.85965(6) 0.25525(4)
Cu2_3 Cu 0.77479(18) 0.73798(7) 0.32275(5)
Cu3_3 Cu 0.44134(18) 0.62409(7) 0.27474(5)
Cu4_3 Cu 0.75776(17) 0.78462(7) 0.24457(5)
O1_3 O 0.6782(9) 0.9668(4) 0.4721(3)
H1_3 H 0.966147 0.909754 0.098383
N1_3 N 0.7939(11) 0.8106(5) 0.3644(3)
N3_3 N 0.7768(13) 0.6699(5) 0.3668(3)
C2_3 C 0.2686(14) 0.4724(6) 0.4400(4)
N4_3 N 0.3698(11) 0.5753(5) 0.3252(3)
C3_3 C 0.7997(12) 0.9541(5) 0.4567(4)
O11_3 O 0.6474(11) 0.5736(5) 0.2684(3)
C4_3 C 0.9861(14) 0.8854(6) 0.1616(4)
H2_3 H 0.890946 0.894744 0.168918
N6_3 N 0.3717(11) 0.6178(5) 0.2133(3)
C5_3 C 0.8429(15) 0.6905(7) 0.1247(4)
H3_3 H 0.924938 0.674271 0.111670
N7_3 N 0.8908(12) 0.5628(5) 0.2639(4)
N8_3 N 0.7405(11) 0.7464(4) 0.1839(3)
C6_3 C 0.7626(14) 0.5437(6) 0.4723(4)
C7_3 C 0.2999(13) 0.5081(6) 0.3990(4)
C9_3 C 0.4014(14) 0.5682(7) 0.1895(4)
H4_3 H 0.457801 0.538431 0.202203
C10_3 C 0.2062(13) 0.5950(5) 0.0835(4)
C12_3 C 0.2353(13) 0.6536(6) 0.1523(4)
H6_3 H 0.177516 0.683515 0.140464
C13_3 C 0.6971(13) 0.6494(5) 0.0632(4)
O14_3 O 0.9179(9) 0.9811(4) 0.4632(3)
C15_3 C 0.2672(13) 0.6032(6) 0.1279(4)
C16_3 C 0.6117(14) 0.7390(6) 0.1652(4)
H7_3 H 0.530916 0.755209 0.178996
C17_3 C 0.8024(13) 0.9028(6) 0.4252(4)
C18_3 C 0.6496(15) 0.5975(6) 0.4086(5)
H8_3 H 0.565398 0.575272 0.412622
C21_3 C 0.8538(15) 0.7216(6) 0.1643(4)
H10_3 H 0.944357 0.725019 0.177494
C23_3 C 0.7653(14) 0.5894(5) 0.4364(4)
C24_3 C 0.3524(13) 0.5596(6) 0.1474(4)
H12_3 H 0.376179 0.524877 0.132233
C25_3 C 0.7657(16) 0.5853(7) 0.2519(5)
H13_3 H 0.766392 0.612565 0.229001
C28_3 C 0.9147(13) 0.8230(6) 0.3862(4)
H18_3 H 0.996491 0.799775 0.381012
H19_3 H 0.922435 0.956946 0.318729
C31_3 C 0.2726(15) 0.5944(7) 0.3540(4)
H20_3 H 0.228450 0.631220 0.349485
C32_3 C 0.8890(14) 0.6239(6) 0.4292(4)
H21_3 H 0.968584 0.620928 0.447704
C33_3 C 0.9237(13) 0.8691(6) 0.4162(4)
C35_3 C 0.7094(14) 0.6844(5) 0.1054(4)
C36_3 C 0.2902(14) 0.6596(6) 0.1950(4)
H26_3 H 0.268503 0.693982 0.210861
C38_3 C 0.8908(15) 0.6628(7) 0.3939(5)
H28_3 H 0.974278 0.684987 0.388639
C41_3 C 0.5911(14) 0.7081(7) 0.1260(4)
H33_3 H 0.498864 0.703765 0.114072
C42_3 C 0.6577(17) 0.6380(7) 0.3753(5)
H34_3 H 0.576672 0.643539 0.357630
C43_3 C 0.4286(17) 0.5204(7) 0.3324(4)
H35_3 H 0.493011 0.505097 0.311819
C44_3 C 0.6748(14) 0.8895(6) 0.4026(4)
H36_3 H 0.590084 0.910782 0.407958
C45_3 C 0.6773(15) 0.8440(6) 0.3721(4)
H37_3 H 0.593566 0.836249 0.356118
C46_3 C 0.2341(15) 0.5610(7) 0.3911(5)
H38_3 H 0.163483 0.575197 0.410096
C47_3 C 0.3972(15) 0.4865(6) 0.3687(4)
H39_3 H 0.441037 0.449447 0.372725
C48_3 C 0.895(2) 0.5210(9) 0.3009(7)
H40_3 H 0.802459 0.520256 0.315029
H41_3 H 0.967922 0.533654 0.321316
H42_3 H 0.918351 0.481605 0.290403
Cu3_4 Cu 0.05866(18) 0.37591(7) 0.77474(5)
C2_4 C 0.2314(14) 0.5276(6) 0.9400(4)
N4_4 N 0.1302(11) 0.4247(5) 0.8252(3)
N6_4 N 0.1283(11) 0.3822(5) 0.7133(3)
C7_4 C 0.2001(13) 0.4919(6) 0.8990(4)
C9_4 C 0.0986(14) 0.4318(7) 0.6895(4)
H4_4 H 0.042199 0.461569 0.702203
C10_4 C 0.2938(13) 0.4050(5) 0.5835(4)
C12_4 C 0.2647(13) 0.3464(6) 0.6523(4)
H6_4 H 0.322484 0.316485 0.640464
C15_4 C 0.2328(13) 0.3968(6) 0.6279(4)
C24_4 C 0.1476(13) 0.4404(6) 0.6474(4)
H12_4 H 0.123821 0.475123 0.632233
C31_4 C 0.2274(15) 0.4056(7) 0.8540(4)
H20_4 H 0.271550 0.368780 0.849485
C36_4 C 0.2098(14) 0.3404(6) 0.6950(4)
H26_4 H 0.231497 0.306018 0.710861
H33_4 H 0.001136 0.296235 0.614072
C43_4 C 0.0714(17) 0.4796(7) 0.8324(4)
H35_4 H 0.006989 0.494903 0.811819
C46_4 C 0.2659(15) 0.4390(7) 0.8911(5)
H38_4 H 0.336517 0.424803 0.910096
C47_4 C 0.1028(15) 0.5135(6) 0.8687(4)
H39_4 H 0.058963 0.550553 0.872725
O26_2 O 0.0731(9) 0.0028(4) 0.9155(3)
H30_4 H 0.002753 0.806099 0.026833
I1_4 I 0.78572(9) 0.10091(4) 0.75177(3)
I2_4 I 0.48495(9) 0.25595(3) 0.77758(2)
I3_4 I 0.98521(9) 0.26303(4) 0.78623(2)
Cu1_4 Cu 0.50803(18) 0.14035(6) 0.75525(4)
Cu2_4 Cu 0.72521(18) 0.26202(7) 0.82275(5)
Cu4_4 Cu 0.74224(17) 0.21538(7) 0.74457(5)
O1_4 O 0.8218(9) 0.0332(4) 0.9721(3)
C1_4 C 0.4694(13) 0.1050(6) 0.6191(4)
H1_4 H 0.533853 0.090246 0.598383
N1_4 N 0.7061(11) 0.1894(5) 0.8644(3)
N2_4 N 0.4270(10) 0.1368(4) 0.6929(3)
N3_4 N 0.7232(13) 0.3301(5) 0.8668(3)
C3_4 C 0.7003(12) 0.0459(5) 0.9567(4)
O11_4 O 0.8526(11) 0.4264(5) 0.7684(3)
N5_4 N 0.4067(12) 0.0903(5) 0.8026(3)
C4_4 C 0.5139(14) 0.1146(6) 0.6616(4)
H2_4 H 0.609054 0.105256 0.668918
C5_4 C 0.6571(15) 0.3095(7) 0.6247(4)
H3_4 H 0.575062 0.325729 0.611670
N7_4 N 0.6092(12) 0.4372(5) 0.7639(4)
N8_4 N 0.7595(11) 0.2536(4) 0.6839(3)
C6_4 C 0.7374(14) 0.4563(6) 0.9723(4)
C11_4 C 0.2403(14) 0.1417(6) 0.6393(4)
H5_4 H 0.145399 0.152570 0.632833
C13_4 C 0.8029(13) 0.3506(5) 0.5632(4)
O14_4 O 0.5821(9) 0.0189(4) 0.9632(3)
C14_4 C 0.2769(13) 0.1037(5) 0.5616(4)
C16_4 C 0.8883(14) 0.2610(6) 0.6652(4)
H7_4 H 0.969084 0.244791 0.678996
C17_4 C 0.6976(13) 0.0972(6) 0.9252(4)
C18_4 C 0.8504(15) 0.4025(6) 0.9086(5)
H8_4 H 0.934602 0.424728 0.912622
C20_4 C 0.3261(13) 0.1178(6) 0.6077(4)
C21_4 C 0.6462(15) 0.2784(6) 0.6643(4)
H10_4 H 0.555643 0.274981 0.677494
C22_4 C 0.2650(15) 0.0994(7) 0.8129(4)
H11_4 H 0.211337 0.126969 0.796814
C23_4 C 0.7347(14) 0.4106(5) 0.9364(4)
C25_4 C 0.7343(16) 0.4147(7) 0.7519(5)
H13_4 H 0.733608 0.387435 0.729001
C26_4 C 0.4745(19) 0.4203(8) 0.7434(7)
H14_4 H 0.494178 0.400812 0.716117
H15_4 H 0.416950 0.455388 0.738305
H16_4 H 0.422656 0.393488 0.762307
C27_4 C 0.1993(14) 0.0688(7) 0.8464(4)
H17_4 H 0.101107 0.074786 0.851750
C28_4 C 0.5853(13) 0.1770(6) 0.8862(4)
H18_4 H 0.503509 0.200225 0.881012
C29_4 C 0.4812(14) 0.0503(5) 0.8259(4)
H19_4 H 0.577565 0.043054 0.818729
C30_4 C 0.2752(14) 0.0296(6) 0.8723(4)
C32_4 C 0.6110(14) 0.3761(6) 0.9292(4)
H21_4 H 0.531416 0.379072 0.947704
C33_4 C 0.5763(13) 0.1309(6) 0.9162(4)
H22_4 H 0.489097 0.122696 0.930206
C35_4 C 0.7906(14) 0.3156(5) 0.6054(4)
C37_4 C 0.4192(13) 0.0189(6) 0.8609(4)
C38_4 C 0.6092(15) 0.3372(7) 0.8939(5)
H28_4 H 0.525722 0.315013 0.888639
C39_4 C 0.2940(14) 0.1499(6) 0.6806(4)
H29_4 H 0.231877 0.165839 0.701537
C41_4 C 0.9089(14) 0.2919(7) 0.6260(4)
C42_4 C 0.8423(17) 0.3620(7) 0.8753(5)
H34_4 H 0.923328 0.356461 0.857630
C44_4 C 0.8252(14) 0.1105(6) 0.9026(4)
H36_4 H 0.909916 0.089218 0.907958
C45_4 C 0.8227(15) 0.1560(6) 0.8721(4)
H37_4 H 0.906434 0.163751 0.856118
C48_4 C 0.605(2) 0.4790(9) 0.8009(7)
H40_4 H 0.697541 0.479744 0.815029
H41_4 H 0.532078 0.466346 0.821316
H42_4 H 0.581649 0.518395 0.790403
N9_4 N 0.7951(11) 0.7921(4) 0.0116(4)
C19_4 C 0.6856(13) 0.8258(5) 0.0229(4)
H9_4 H 0.687459 0.842626 0.050734
C40_4 C 0.9227(14) 0.7847(6) 0.0393(5)
H31_4 H 0.946612 0.742968 0.041322
H32_4 H 0.902534 0.800011 0.067989
C8_4 C 0.2084(14) 0.9982(6) 0.9107(4)
O13_4 O 0.5782(9) 0.8373(4) 0.9991(3)
O16_4 O 0.2900(9) 0.9712(4) 0.9367(2)
C34_4 C 0.8059(16) 0.7655(6) 0.9673(4)
H23_4 H 0.714684 0.769614 0.952495
H24_4 H 0.830217 0.723916 0.969704
H25_4 H 0.879879 0.785867 0.950965
H27_4 H 0.473689 0.991041 0.876389
loop_
_geom_bond_atom_site_label_1
_geom_bond_atom_site_label_2
_geom_bond_site_symmetry_1
_geom_bond_site_symmetry_2
Dy3 O1 1_555 1_555
Dy2 O13 1_555 1_555
I1 Cu1 1_555 1_555
I2 Cu1 1_555 1_555
I3 Cu2 1_555 1_555
Cu1 Cu4 1_555 1_555
Cu2 I2 1_555 1_555
Cu4 I1 1_555 1_555
O1 C3 1_555 1_555
O2 C6 1_555 1_555
O3 C6 1_555 1_555
O6 C13 1_555 1_555
O8 C14 1_555 1_555
O9 C13 1_555 1_555
C1 H1 1_555 1_555
N1 Cu2 1_555 1_555
N2 Cu1 1_555 1_555
N3 Cu2 1_555 1_555
C3 O14 1_555 1_555
N5 Cu1 1_555 1_555
C4 C1 1_555 1_555
H2 C4 1_555 1_555
C5 H3 1_555 1_555
N7 C25 1_555 1_555
N8 Cu4 1_555 1_555
C6 C23 1_555 1_555
C8 O12 1_555 1_555
C11 H5 1_555 1_555
N9 C19 1_555 1_555
C13 C35 1_555 1_555
O13 C19 1_555 1_555
O14 Dy2 1_555 1_555
O15 C14 1_555 1_555
C14 C20 1_555 1_555
C16 N8 1_555 1_555
H7 C16 1_555 1_555
C17 C3 1_555 1_555
O16 Dy2 1_555 1_555
C18 H8 1_555 1_555
C19 H9 1_555 1_555
C20 C1 1_555 1_555
C21 C5 1_555 1_555
H10 C21 1_555 1_555
C22 N5 1_555 1_555
H11 C22 1_555 1_555
C23 C18 1_555 1_555
C25 O11 1_555 1_555
H13 C25 1_555 1_555
C26 N7 1_555 1_555
H14 C26 1_555 1_555
H15 C26 1_555 1_555
H16 C26 1_555 1_555
C27 C22 1_555 1_555
H17 C27 1_555 1_555
C28 N1 1_555 1_555
H18 C28 1_555 1_555
C29 N5 1_555 1_555
H19 C29 1_555 1_555
C30 C8 1_555 1_555
C32 C23 1_555 1_555
H21 C32 1_555 1_555
C33 C17 1_555 1_555
H22 C33 1_555 1_555
C34 N9 1_555 1_555
H23 C34 1_555 1_555
H24 C34 1_555 1_555
H25 C34 1_555 1_555
C35 C5 1_555 1_555
C37 C29 1_555 1_555
H27 C37 1_555 1_555
C38 N3 1_555 1_555
H28 C38 1_555 1_555
C39 N2 1_555 1_555
H29 C39 1_555 1_555
C40 N9 1_555 1_555
H31 C40 1_555 1_555
H32 C40 1_555 1_555
C41 C16 1_555 1_555
C42 N3 1_555 1_555
H34 C42 1_555 1_555
C44 C17 1_555 1_555
H36 C44 1_555 1_555
C45 N1 1_555 1_555
H37 C45 1_555 1_555
C48 N7 1_555 1_555
H40 C48 1_555 1_555
H41 C48 1_555 1_555
Dy11 O9 1_555 1_555
O18 Dy2 1_555 1_555
O19 Dy3 1_555 1_555
O20 Dy2 1_555 1_555
O22 Dy2 1_555 1_555
O24 Dy2 1_555 1_555
O25 Dy3 1_555 1_555
O27 Dy2 1_555 1_555
I2 Cu4 1_555 1_555
I3 Cu4 1_555 1_555
Cu2 Cu4 1_555 1_555
N2 C4 1_555 1_555
N8 C21 1_555 1_555
C8 O16 1_555 1_555
C11 C20 1_555 1_555
C11 C39 1_555 1_555
C18 C42 1_555 1_555
C27 C30 1_555 1_555
C28 C33 1_555 1_555
C30 C37 1_555 1_555
C32 C38 1_555 1_555
C35 C41 1_555 1_555
C44 C45 1_555 1_555
O4 C2 1_555 1_555
O7 C2 1_555 1_555
H39 C47 1_555 1_555
Dy6 O4 1_555 1_555
O5 C10 1_555 1_555
O10 C10 1_555 1_555
N4 Cu3 1_555 1_555
N6 Cu3 1_555 1_555
C7 C46 1_555 1_555
C9 N6 1_555 1_555
H4 C9 1_555 1_555
C10 C15 1_555 1_555
C12 H6 1_555 1_555
C15 C12 1_555 1_555
C24 C9 1_555 1_555
H12 C24 1_555 1_555
C31 N4 1_555 1_555
H20 C31 1_555 1_555
C36 N6 1_555 1_555
H26 C36 1_555 1_555
C43 N4 1_555 1_555
H35 C43 1_555 1_555
C46 C31 1_555 1_555
H38 C46 1_555 1_555
Dy11 O5 1_555 1_555
O10 Dy7 1_555 1_555
C12 C36 1_555 1_555
C15 C24 1_555 1_555
Dy4 O1_2 1_555 1_555
I1_2 Cu1_2 1_555 1_555
I3_2 Cu2_2 1_555 1_555
Cu1_2 Cu4_2 1_555 1_555
Cu3_2 I3_2 1_555 1_555
Cu4_2 I1_2 1_555 1_555
O1_2 C3_2 1_555 1_555
O2_2 C6_2 1_555 1_555
O3_2 C6_2 1_555 1_555
O5_2 C10_2 1_555 1_555
O6_2 C13_2 1_555 1_555
O9_2 C13_2 1_555 1_555
O10_2 C10_2 1_555 1_555
N1_2 Cu2_2 1_555 1_555
N3_2 Cu2_2 1_555 1_555
N4_2 Cu3_2 1_555 1_555
C3_2 O14_2 1_555 1_555
O11_2 Cu3_2 1_555 1_555
H2_2 C4_2 1_555 1_555
N6_2 Cu3_2 1_555 1_555
C5_2 H3_2 1_555 1_555
N7_2 C25_2 1_555 1_555
N8_2 Cu4_2 1_555 1_555
C6_2 C23_2 1_555 1_555
C7_2 C46_2 1_555 1_555
C9_2 N6_2 1_555 1_555
H4_2 C9_2 1_555 1_555
C10_2 C15_2 1_555 1_555
C12_2 H6_2 1_555 1_555
C13_2 C35_2 1_555 1_555
C15_2 C12_2 1_555 1_555
C16_2 N8_2 1_555 1_555
H7_2 C16_2 1_555 1_555
C17_2 C3_2 1_555 1_555
C18_2 H8_2 1_555 1_555
C21_2 C5_2 1_555 1_555
H10_2 C21_2 1_555 1_555
C23_2 C18_2 1_555 1_555
C24_2 C9_2 1_555 1_555
H12_2 C24_2 1_555 1_555
C25_2 O11_2 1_555 1_555
H13_2 C25_2 1_555 1_555
C28_2 N1_2 1_555 1_555
H18_2 C28_2 1_555 1_555
C31_2 N4_2 1_555 1_555
H20_2 C31_2 1_555 1_555
C32_2 C23_2 1_555 1_555
H21_2 C32_2 1_555 1_555
C33_2 C17_2 1_555 1_555
H23_2 C34_2 1_555 1_555
H24_2 C34_2 1_555 1_555
H25_2 C34_2 1_555 1_555
C35_2 C5_2 1_555 1_555
C36_2 N6_2 1_555 1_555
H26_2 C36_2 1_555 1_555
C38_2 N3_2 1_555 1_555
H28_2 C38_2 1_555 1_555
C41_2 C16_2 1_555 1_555
H33_2 C41_2 1_555 1_555
C42_2 N3_2 1_555 1_555
H34_2 C42_2 1_555 1_555
C43_2 N4_2 1_555 1_555
H35_2 C43_2 1_555 1_555
C44_2 C17_2 1_555 1_555
H36_2 C44_2 1_555 1_555
C45_2 N1_2 1_555 1_555
H37_2 C45_2 1_555 1_555
C46_2 C31_2 1_555 1_555
H38_2 C46_2 1_555 1_555
C48_2 N7_2 1_555 1_555
H40_2 C48_2 1_555 1_555
H41_2 C48_2 1_555 1_555
Dy6 O6_2 1_555 1_555
Dy9 O9_2 1_555 1_555
O21_2 Dy4 1_555 1_555
O25_2 Dy4 1_555 1_555
O26 Dy4 1_555 1_555
I3_2 Cu4_2 1_555 1_555
Cu2_2 Cu4_2 1_555 1_555
O10_2 Dy6 1_555 1_555
N8_2 C21_2 1_555 1_555
C12_2 C36_2 1_555 1_555
C15_2 C24_2 1_555 1_555
C18_2 C42_2 1_555 1_555
C28_2 C33_2 1_555 1_555
C32_2 C38_2 1_555 1_555
C35_2 C41_2 1_555 1_555
C44_2 C45_2 1_555 1_555
N9_2 C19_2 1_555 1_555
C19_2 H9_2 1_555 1_555
C40_2 N9_2 1_555 1_555
H30_2 C40_2 1_555 1_555
H31_2 C40_2 1_555 1_555
H32_2 C40_2 1_555 1_555
O4_2 C2_2 1_555 1_555
O7_2 C2_2 1_555 1_555
H39_2 C47_2 1_555 1_555
O23 C14_2 1_555 1_555
C8_2 O26 1_555 1_555
C11_2 H5_2 1_555 1_555
O27 C14_2 1_555 1_555
C14_2 C20_2 1_555 1_555
O16_2 Dy8 1_555 1_555
C20_2 C1_2 1_555 1_555
C22_2 N5_2 1_555 1_555
H11_2 C22_2 1_555 1_555
H14_2 C26_2 1_555 1_555
H15_2 C26_2 1_555 1_555
H16_2 C26_2 1_555 1_555
C27_2 C22_2 1_555 1_555
H17_2 C27_2 1_555 1_555
C29_2 N5_2 1_555 1_555
C30_2 C8_2 1_555 1_555
C37_2 C29_2 1_555 1_555
H27_2 C37_2 1_555 1_555
C39_2 N2_2 1_555 1_555
H29_2 C39_2 1_555 1_555
O24_2 Dy8 1_555 1_555
C8_2 O16_2 1_555 1_555
C11_2 C20_2 1_555 1_555
C11_2 C39_2 1_555 1_555
C27_2 C30_2 1_555 1_555
C30_2 C37_2 1_555 1_555
O16_3 Dy9 1_555 1_555
O27_2 Dy9 1_555 1_555
C8_3 O16_3 1_555 1_555
O8_2 C14_3 1_555 1_555
C11_3 H5_3 1_555 1_555
O15_2 C14_3 1_555 1_555
C14_3 C20_3 1_555 1_555
C20_3 C1_3 1_555 1_555
C22_3 N5_3 1_555 1_555
H11_3 C22_3 1_555 1_555
H14_3 C26_3 1_555 1_555
H15_3 C26_3 1_555 1_555
H16_3 C26_3 1_555 1_555
C27_3 C22_3 1_555 1_555
H17_3 C27_3 1_555 1_555
C29_3 N5_3 1_555 1_555
C37_3 C29_3 1_555 1_555
C39_3 N2_3 1_555 1_555
H29_3 C39_3 1_555 1_555
C11_3 C20_3 1_555 1_555
C11_3 C39_3 1_555 1_555
C27_3 C30_3 1_555 1_555
C30_3 C37_3 1_555 1_555
N9_3 C19_3 1_555 1_555
O13_3 C19_3 1_555 1_555
C19_3 H9_3 1_555 1_555
C34_3 N9_3 1_555 1_555
H23_3 C34_3 1_555 1_555
H24_3 C34_3 1_555 1_555
H25_3 C34_3 1_555 1_555
C40_3 N9_3 1_555 1_555
H30_3 C40_3 1_555 1_555
H31_3 C40_3 1_555 1_555
H32_3 C40_3 1_555 1_555
O23_2 Dy6 1_555 1_555
I1_3 Cu1_3 1_555 1_555
I3_3 Cu2_3 1_555 1_555
Cu1_3 Cu4_3 1_555 1_555
Cu3_3 I3_3 1_555 1_555
Cu4_3 I1_3 1_555 1_555
O1_3 C3_3 1_555 1_555
O17 C6_3 1_555 1_555
O18 C6_3 1_555 1_555
O19 C2_3 1_555 1_555
O20_2 C10_3 1_555 1_555
O21_2 C13_3 1_555 1_555
O22 C2_3 1_555 1_555
O24_2 C13_3 1_555 1_555
O25_2 C10_3 1_555 1_555
N1_3 Cu2_3 1_555 1_555
N3_3 Cu2_3 1_555 1_555
C2_3 C7_3 1_555 1_555
N4_3 Cu3_3 1_555 1_555
C3_3 O14_3 1_555 1_555
O11_3 Cu3_3 1_555 1_555
H2_3 C4_3 1_555 1_555
N6_3 Cu3_3 1_555 1_555
C5_3 H3_3 1_555 1_555
N7_3 C25_3 1_555 1_555
N8_3 Cu4_3 1_555 1_555
C6_3 C23_3 1_555 1_555
C7_3 C46_3 1_555 1_555
C9_3 N6_3 1_555 1_555
H4_3 C9_3 1_555 1_555
C10_3 C15_3 1_555 1_555
C12_3 H6_3 1_555 1_555
C13_3 C35_3 1_555 1_555
C15_3 C12_3 1_555 1_555
C16_3 N8_3 1_555 1_555
H7_3 C16_3 1_555 1_555
C17_3 C3_3 1_555 1_555
C18_3 H8_3 1_555 1_555
C21_3 C5_3 1_555 1_555
H10_3 C21_3 1_555 1_555
C23_3 C18_3 1_555 1_555
C24_3 C9_3 1_555 1_555
H12_3 C24_3 1_555 1_555
C25_3 O11_3 1_555 1_555
H13_3 C25_3 1_555 1_555
C28_3 N1_3 1_555 1_555
H18_3 C28_3 1_555 1_555
C31_3 N4_3 1_555 1_555
H20_3 C31_3 1_555 1_555
C32_3 C23_3 1_555 1_555
H21_3 C32_3 1_555 1_555
C33_3 C17_3 1_555 1_555
C35_3 C5_3 1_555 1_555
C36_3 N6_3 1_555 1_555
H26_3 C36_3 1_555 1_555
C38_3 N3_3 1_555 1_555
H28_3 C38_3 1_555 1_555
C41_3 C16_3 1_555 1_555
H33_3 C41_3 1_555 1_555
C42_3 N3_3 1_555 1_555
H34_3 C42_3 1_555 1_555
C43_3 N4_3 1_555 1_555
H35_3 C43_3 1_555 1_555
C44_3 C17_3 1_555 1_555
H36_3 C44_3 1_555 1_555
C45_3 N1_3 1_555 1_555
H37_3 C45_3 1_555 1_555
C46_3 C31_3 1_555 1_555
H38_3 C46_3 1_555 1_555
C47_3 C7_3 1_555 1_555
H39_3 C47_3 1_555 1_555
C48_3 N7_3 1_555 1_555
H40_3 C48_3 1_555 1_555
H41_3 C48_3 1_555 1_555
H42_3 C48_3 1_555 1_555
I3_3 Cu4_3 1_555 1_555
Cu2_3 Cu4_3 1_555 1_555
N8_3 C21_3 1_555 1_555
C12_3 C36_3 1_555 1_555
C15_3 C24_3 1_555 1_555
C18_3 C42_3 1_555 1_555
C28_3 C33_3 1_555 1_555
C32_3 C38_3 1_555 1_555
C35_3 C41_3 1_555 1_555
C43_3 C47_3 1_555 1_555
C44_3 C45_3 1_555 1_555
O19_2 C2_4 1_555 1_555
O20 C10_4 1_555 1_555
O22_2 C2_4 1_555 1_555
O25 C10_4 1_555 1_555
C2_4 C7_4 1_555 1_555
N4_4 Cu3_4 1_555 1_555
N6_4 Cu3_4 1_555 1_555
C7_4 C46_4 1_555 1_555
C9_4 N6_4 1_555 1_555
H4_4 C9_4 1_555 1_555
C10_4 C15_4 1_555 1_555
C12_4 H6_4 1_555 1_555
C15_4 C12_4 1_555 1_555
C24_4 C9_4 1_555 1_555
H12_4 C24_4 1_555 1_555
C31_4 N4_4 1_555 1_555
H20_4 C31_4 1_555 1_555
C36_4 N6_4 1_555 1_555
H26_4 C36_4 1_555 1_555
C43_4 N4_4 1_555 1_555
H35_4 C43_4 1_555 1_555
C46_4 C31_4 1_555 1_555
H38_4 C46_4 1_555 1_555
C47_4 C7_4 1_555 1_555
H39_4 C47_4 1_555 1_555
C12_4 C36_4 1_555 1_555
C15_4 C24_4 1_555 1_555
C43_4 C47_4 1_555 1_555
I1_4 Cu1_4 1_555 1_555
I2_4 Cu1_4 1_555 1_555
I3_4 Cu2_4 1_555 1_555
Cu1_4 Cu4_4 1_555 1_555
Cu2_4 I2_4 1_555 1_555
Cu4_4 I1_4 1_555 1_555
O1_4 C3_4 1_555 1_555
O17_2 C6_4 1_555 1_555
O18_2 C6_4 1_555 1_555
O21 C13_4 1_555 1_555
O23_2 C14_4 1_555 1_555
O24 C13_4 1_555 1_555
C1_4 H1_4 1_555 1_555
N1_4 Cu2_4 1_555 1_555
N2_4 Cu1_4 1_555 1_555
N3_4 Cu2_4 1_555 1_555
C3_4 O14_4 1_555 1_555
N5_4 Cu1_4 1_555 1_555
C4_4 C1_4 1_555 1_555
H2_4 C4_4 1_555 1_555
C5_4 H3_4 1_555 1_555
N7_4 C25_4 1_555 1_555
N8_4 Cu4_4 1_555 1_555
C6_4 C23_4 1_555 1_555
C11_4 H5_4 1_555 1_555
C13_4 C35_4 1_555 1_555
O27_2 C14_4 1_555 1_555
C14_4 C20_4 1_555 1_555
C16_4 N8_4 1_555 1_555
H7_4 C16_4 1_555 1_555
C17_4 C3_4 1_555 1_555
C18_4 H8_4 1_555 1_555
C20_4 C1_4 1_555 1_555
C21_4 C5_4 1_555 1_555
H10_4 C21_4 1_555 1_555
C22_4 N5_4 1_555 1_555
H11_4 C22_4 1_555 1_555
C23_4 C18_4 1_555 1_555
C25_4 O11_4 1_555 1_555
H13_4 C25_4 1_555 1_555
C26_4 N7_4 1_555 1_555
H14_4 C26_4 1_555 1_555
H15_4 C26_4 1_555 1_555
H16_4 C26_4 1_555 1_555
C27_4 C22_4 1_555 1_555
H17_4 C27_4 1_555 1_555
C28_4 N1_4 1_555 1_555
H18_4 C28_4 1_555 1_555
C29_4 N5_4 1_555 1_555
H19_4 C29_4 1_555 1_555
C32_4 C23_4 1_555 1_555
H21_4 C32_4 1_555 1_555
C33_4 C17_4 1_555 1_555
H22_4 C33_4 1_555 1_555
C35_4 C5_4 1_555 1_555
C37_4 C29_4 1_555 1_555
C38_4 N3_4 1_555 1_555
H28_4 C38_4 1_555 1_555
C39_4 N2_4 1_555 1_555
H29_4 C39_4 1_555 1_555
C41_4 C16_4 1_555 1_555
C42_4 N3_4 1_555 1_555
H34_4 C42_4 1_555 1_555
C44_4 C17_4 1_555 1_555
H36_4 C44_4 1_555 1_555
C45_4 N1_4 1_555 1_555
H37_4 C45_4 1_555 1_555
C48_4 N7_4 1_555 1_555
H40_4 C48_4 1_555 1_555
H41_4 C48_4 1_555 1_555
H42_4 C48_4 1_555 1_555
I2_4 Cu4_4 1_555 1_555
I3_4 Cu4_4 1_555 1_555
Cu2_4 Cu4_4 1_555 1_555
N2_4 C4_4 1_555 1_555
N8_4 C21_4 1_555 1_555
C11_4 C20_4 1_555 1_555
C11_4 C39_4 1_555 1_555
C18_4 C42_4 1_555 1_555
C27_4 C30_4 1_555 1_555
C28_4 C33_4 1_555 1_555
C30_4 C37_4 1_555 1_555
C32_4 C38_4 1_555 1_555
C35_4 C41_4 1_555 1_555
C44_4 C45_4 1_555 1_555
N9_4 C19_4 1_555 1_555
C19_4 H9_4 1_555 1_555
C40_4 N9_4 1_555 1_555
H31_4 C40_4 1_555 1_555
H32_4 C40_4 1_555 1_555
Dy11 O13_4 1_555 1_555
O16_4 Dy11 1_555 1_555
H23_4 C34_4 1_555 1_555
H24_4 C34_4 1_555 1_555
H25_4 C34_4 1_555 1_555
C8_4 O16_4 1_555 1_555

#END
