
###############################################################################
#
# This file contains modified crystal structure data generated from the
# MOF subset of the Cambridge Structural Database (CSD) v543 
# hosted by the Cambridge Crystallographic Data Centre (CCDC).
#
# This work is licensed under the Creative Commons
# Attribution-NonCommercial-ShareAlike 4.0 International License.
# To view a copy of this license, visit
# http://creativecommons.org/licenses/by-nc-sa/4.0/
# or send a letter to
# Creative Commons, PO Box 1866, Mountain View, CA 94042, USA.
#
# CIF created using the CSD Python API on 29 September 2022
# The structure has been converted into the P1 space group
# The structure has a 3D framework
# The original CSD entry JACHUU is in the monoclinic crystal system
# The framework has been calculated to contain at least 10.0% void space
# The void calculation uses a probe of radius 1.32A, grid spacing 0.4
# The framework is charged, counterions have been retained in the structure
#
###############################################################################

data_JACHUU
_chemical_formula_moiety         '(C106 H84 N6 O70 U18 2+)n'
_symmetry_cell_setting           triclinic
_symmetry_space_group_name_H-M   'P 1'
_symmetry_Int_Tables_number      1
_space_group_name_Hall           'P 1'
loop_
_symmetry_equiv_pos_site_id
_symmetry_equiv_pos_as_xyz
1 x,y,z
_cell_length_a                   21.4579(15)
_cell_length_b                   15.3818(13)
_cell_length_c                   11.6804(9)
_cell_angle_alpha                90
_cell_angle_beta                 118.501(3)
_cell_angle_gamma                90
_cell_volume                     3388.02
loop_
_atom_site_label
_atom_site_type_symbol
_atom_site_fract_x
_atom_site_fract_y
_atom_site_fract_z
U9 U 0.02714(2) 0.26319(2) 0.30136(2)
U11 U 0.02714(2) 0.73681(2) 0.30136(2)
U1 U 0.500 0.500 0.0
O4 O 0.4386(2) 0.5987(3) 0.0591(5)
O5 O 0.4238(3) 0.7368(4) 0.0985(5)
H3 H 0.28631 0.634925 0.041064
C7 C 0.4032(3) 0.6679(5) 0.0321(6)
U3 U 0.52714(2) 0.76319(2) 0.30136(2)
O10 O 0.5701(4) 0.500 0.1620(7)
O11 O 0.5176(3) 0.6591(4) 0.3540(5)
O12 O 0.5368(3) 0.8682(4) 0.2509(5)
O15 O 0.5691(2) 0.7074(4) 0.1548(4)
O16 O 0.6499(2) 0.7274(4) 0.3577(5)
O17 O 0.9033(3) 0.6938(5) 0.4831(5)
O18 O 0.9363(3) 0.6820(5) 0.3341(5)
C10 C 0.6719(3) 0.6680(5) 0.0769(6)
C11 C 0.6897(3) 0.6891(5) 0.2055(6)
C12 C 0.7603(3) 0.6926(5) 0.2993(6)
H4 H 0.772334 0.705475 0.386994
C13 C 0.8138(3) 0.6775(5) 0.2671(6)
C14 C 0.7960(3) 0.6555(6) 0.1396(7)
H5 H 0.832279 0.64399 0.117021
C15 C 0.7255(4) 0.6505(6) 0.0457(7)
C17 C 0.6334(3) 0.7085(5) 0.2418(7)
C18 C 0.8896(3) 0.6860(5) 0.3687(6)
U4 U 0.52714(2) 0.23681(2) 0.30136(2)
O19 O 0.5176(3) 0.3409(4) 0.3540(5)
O20 O 0.5368(3) 0.1318(4) 0.2509(5)
O23 O 0.5691(2) 0.2926(4) 0.1548(4)
O24 O 0.6499(2) 0.2726(4) 0.3577(5)
O25 O 0.9033(3) 0.3062(5) 0.4831(5)
O26 O 0.9363(3) 0.3180(5) 0.3341(5)
C19 C 0.6719(3) 0.3320(5) 0.0769(6)
C20 C 0.6897(3) 0.3109(5) 0.2055(6)
C21 C 0.7603(3) 0.3074(5) 0.2993(6)
H7 H 0.772334 0.294525 0.386994
C22 C 0.8138(3) 0.3225(5) 0.2671(6)
C23 C 0.7960(3) 0.3445(6) 0.1396(7)
H8 H 0.832279 0.35601 0.117021
C24 C 0.7255(4) 0.3495(6) 0.0457(7)
C26 C 0.6334(3) 0.2915(5) 0.2418(7)
C27 C 0.8896(3) 0.3140(5) 0.3687(6)
O29 O 0.4386(2) 0.4013(3) 0.0591(5)
O30 O 0.4238(3) 0.2632(4) 0.0985(5)
H12 H 0.28631 0.365075 0.041064
C34 C 0.4032(3) 0.3321(5) 0.0321(6)
U7 U 0.97286(2) 0.26319(2) 0.69864(2)
U13 U 0.97286(2) 0.73681(2) 0.69864(2)
O35 O 0.5967(3) 0.1938(5) 0.5169(5)
O38 O 0.5967(3) 0.8062(5) 0.5169(5)
O40 O 0.4363(3) 0.1820(5) 0.3341(5)
O41 O 0.4363(3) 0.8180(5) 0.3341(5)
U1_2 U 0.500 0.500 1.0
U2 U 0.47286(2) 0.76319(2) 0.69864(2)
O1 O 0.4299(4) 0.500 0.8380(7)
O2 O 0.4824(3) 0.6591(4) 0.6460(5)
O3 O 0.4632(3) 0.8682(4) 0.7491(5)
O6 O 0.4309(2) 0.7074(4) 0.8452(4)
O7 O 0.3501(2) 0.7274(4) 0.6423(5)
O8 O 0.0967(3) 0.6938(5) 0.5169(5)
O9 O 0.0637(3) 0.6820(5) 0.6659(5)
C1 C 0.3281(3) 0.6680(5) 0.9231(6)
C2 C 0.3103(3) 0.6891(5) 0.7945(6)
C3 C 0.2397(3) 0.6926(5) 0.7007(6)
H1 H 0.227666 0.705475 0.613006
C4 C 0.1862(3) 0.6775(5) 0.7329(6)
C5 C 0.2040(3) 0.6555(6) 0.8604(7)
H2 H 0.167721 0.64399 0.882979
C6 C 0.2745(4) 0.6505(6) 0.9543(7)
C8 C 0.3666(3) 0.7085(5) 0.7582(7)
C9 C 0.1104(3) 0.6860(5) 0.6313(6)
O13 O 0.5614(2) 0.5987(3) 0.9409(5)
O14 O 0.5762(3) 0.7368(4) 0.9015(5)
H6 H 0.71369 0.634925 0.958936
C16 C 0.5968(3) 0.6679(5) 0.9679(6)
O21 O 0.5614(2) 0.4013(3) 0.9409(5)
O22 O 0.5762(3) 0.2632(4) 0.9015(5)
H9 H 0.71369 0.365075 0.958936
C25 C 0.5968(3) 0.3321(5) 0.9679(6)
U5 U 0.47286(2) 0.23681(2) 0.69864(2)
O27 O 0.4824(3) 0.3409(4) 0.6460(5)
O28 O 0.4632(3) 0.1318(4) 0.7491(5)
O31 O 0.4309(2) 0.2926(4) 0.8452(4)
O32 O 0.3501(2) 0.2726(4) 0.6423(5)
O33 O 0.0967(3) 0.3062(5) 0.5169(5)
O34 O 0.0637(3) 0.3180(5) 0.6659(5)
C28 C 0.3281(3) 0.3320(5) 0.9231(6)
C29 C 0.3103(3) 0.3109(5) 0.7945(6)
C30 C 0.2397(3) 0.3074(5) 0.7007(6)
H10 H 0.227666 0.294525 0.613006
C31 C 0.1862(3) 0.3225(5) 0.7329(6)
C32 C 0.2040(3) 0.3445(6) 0.8604(7)
H11 H 0.167721 0.35601 0.882979
C33 C 0.2745(4) 0.3495(6) 0.9543(7)
C35 C 0.3666(3) 0.2915(5) 0.7582(7)
C36 C 0.1104(3) 0.3140(5) 0.6313(6)
O36 O 0.4033(3) 0.1938(5) 0.4831(5)
O37 O 0.4033(3) 0.8062(5) 0.4831(5)
O39 O 0.5637(3) 0.1820(5) 0.6659(5)
O42 O 0.5637(3) 0.8180(5) 0.6659(5)
U1_3 U -0.000 -0.000 0.0
O10_2 O 0.0701(4) -0.000 0.1620(7)
O11_2 O 0.0176(3) 0.1591(4) 0.3540(5)
O12_2 O 0.0368(3) 0.3682(4) 0.2509(5)
O15_2 O 0.0691(2) 0.2074(4) 0.1548(4)
O16_2 O 0.1499(2) 0.2274(4) 0.3577(5)
C10_2 C 0.1719(3) 0.1680(5) 0.0769(6)
C11_2 C 0.1897(3) 0.1891(5) 0.2055(6)
C12_2 C 0.2603(3) 0.1926(5) 0.2993(6)
H4_2 H 0.272334 0.205475 0.386994
C13_2 C 0.3138(3) 0.1775(5) 0.2671(6)
C14_2 C 0.2960(3) 0.1555(6) 0.1396(7)
H5_2 H 0.332279 0.14399 0.117021
C15_2 C 0.2255(4) 0.1505(6) 0.0457(7)
C17_2 C 0.1334(3) 0.2085(5) 0.2418(7)
C18_2 C 0.3896(3) 0.1860(5) 0.3687(6)
U1_4 U 0.000 -0.000 1.0
O13_2 O 0.0614(2) 0.0987(3) 0.9409(5)
O14_2 O 0.0762(3) 0.2368(4) 0.9015(5)
H6_2 H 0.21369 0.134925 0.958936
C16_2 C 0.0968(3) 0.1679(5) 0.9679(6)
U1_5 U -0.000 1.000 0.0
O10_3 O 0.0701(4) 1.000 0.1620(7)
O19_2 O 0.0176(3) 0.8409(4) 0.3540(5)
O20_2 O 0.0368(3) 0.6318(4) 0.2509(5)
O23_2 O 0.0691(2) 0.7926(4) 0.1548(4)
O24_2 O 0.1499(2) 0.7726(4) 0.3577(5)
C19_2 C 0.1719(3) 0.8320(5) 0.0769(6)
C20_2 C 0.1897(3) 0.8109(5) 0.2055(6)
C21_2 C 0.2603(3) 0.8074(5) 0.2993(6)
H7_2 H 0.272334 0.794525 0.386994
C22_2 C 0.3138(3) 0.8225(5) 0.2671(6)
C23_2 C 0.2960(3) 0.8445(6) 0.1396(7)
H8_2 H 0.332279 0.85601 0.117021
C24_2 C 0.2255(4) 0.8495(6) 0.0457(7)
C26_2 C 0.1334(3) 0.7915(5) 0.2418(7)
C27_2 C 0.3896(3) 0.8140(5) 0.3687(6)
U1_6 U 0.000 1.000 1.0
O21_2 O 0.0614(2) 0.9013(3) 0.9409(5)
O22_2 O 0.0762(3) 0.7632(4) 0.9015(5)
H9_2 H 0.21369 0.865075 0.958936
C25_2 C 0.0968(3) 0.8321(5) 0.9679(6)
U1_7 U 1.000 -0.000 0.0
O4_2 O 0.9386(2) 0.0987(3) 0.0591(5)
O5_2 O 0.9238(3) 0.2368(4) 0.0985(5)
H3_2 H 0.78631 0.134925 0.041064
C7_2 C 0.9032(3) 0.1679(5) 0.0321(6)
U1_8 U 1.000 -0.000 1.0
O1_2 O 0.9299(4) -0.000 0.8380(7)
O2_2 O 0.9824(3) 0.1591(4) 0.6460(5)
O3_2 O 0.9632(3) 0.3682(4) 0.7491(5)
O6_2 O 0.9309(2) 0.2074(4) 0.8452(4)
O7_2 O 0.8501(2) 0.2274(4) 0.6423(5)
C1_2 C 0.8281(3) 0.1680(5) 0.9231(6)
C2_2 C 0.8103(3) 0.1891(5) 0.7945(6)
C3_2 C 0.7397(3) 0.1926(5) 0.7007(6)
H1_2 H 0.727666 0.205475 0.613006
C4_2 C 0.6862(3) 0.1775(5) 0.7329(6)
C5_2 C 0.7040(3) 0.1555(6) 0.8604(7)
H2_2 H 0.667721 0.14399 0.882979
C6_2 C 0.7745(4) 0.1505(6) 0.9543(7)
C8_2 C 0.8666(3) 0.2085(5) 0.7582(7)
C9_2 C 0.6104(3) 0.1860(5) 0.6313(6)
U1_9 U 1.000 1.000 0.0
O29_2 O 0.9386(2) 0.9013(3) 0.0591(5)
O30_2 O 0.9238(3) 0.7632(4) 0.0985(5)
H12_2 H 0.78631 0.865075 0.041064
C34_2 C 0.9032(3) 0.8321(5) 0.0321(6)
U1_10 U 1.000 1.000 1.0
O1_3 O 0.9299(4) 1.000 0.8380(7)
O27_2 O 0.9824(3) 0.8409(4) 0.6460(5)
O28_2 O 0.9632(3) 0.6318(4) 0.7491(5)
O31_2 O 0.9309(2) 0.7926(4) 0.8452(4)
O32_2 O 0.8501(2) 0.7726(4) 0.6423(5)
C28_2 C 0.8281(3) 0.8320(5) 0.9231(6)
C29_2 C 0.8103(3) 0.8109(5) 0.7945(6)
C30_2 C 0.7397(3) 0.8074(5) 0.7007(6)
H10_2 H 0.727666 0.794525 0.613006
C31_2 C 0.6862(3) 0.8225(5) 0.7329(6)
C32_2 C 0.7040(3) 0.8445(6) 0.8604(7)
H11_2 H 0.667721 0.85601 0.882979
C33_2 C 0.7745(4) 0.8495(6) 0.9543(7)
C35_2 C 0.8666(3) 0.7915(5) 0.7582(7)
C36_2 C 0.6104(3) 0.8140(5) 0.6313(6)
N1 N 0.1652(12) -0.0 0.593(2)
H13 H 0.120866 -0.0 0.601502
C37 C 0.1488(12) -0.0 0.464(2)
H14 H 0.119487 0.05187 0.421138
C38 C 0.2122(11) -0.0 0.440(2)
C39 C 0.2715(14) -0.0 0.569(2)
H16 H 0.315183 0.000002 0.55871
H22 H 0.211879 0.05249 0.390928
C42 C 0.2739(9) 0.0798(9) 0.6418(16)
H23 H 0.272561 0.131744 0.590652
H24 H 0.318534 0.081233 0.725498
C43 C 0.2125(9) 0.0805(11) 0.6665(19)
H25 H 0.228707 0.076378 0.761098
H26 H 0.185197 0.135033 0.633297
N1_2 N 0.1652(12) 1.0 0.593(2)
H13_2 H 0.120866 1.0 0.601502
C37_2 C 0.1488(12) 1.0 0.464(2)
C38_2 C 0.2122(11) 1.0 0.440(2)
H15 H 0.211879 0.94751 0.390928
C39_2 C 0.2715(14) 1.0 0.569(2)
H16_2 H 0.315183 1.000002 0.55871
C40 C 0.2739(9) 0.9202(9) 0.6418(16)
H17 H 0.272561 0.868256 0.590652
H18 H 0.318534 0.918767 0.725498
C41 C 0.2125(9) 0.9195(11) 0.6665(19)
H19 H 0.228707 0.923622 0.761098
H20 H 0.185197 0.864967 0.633297
H21 H 0.119487 0.94813 0.421138
N1_3 N 0.8348(12) -0.0 0.407(2)
H13_3 H 0.879134 -0.0 0.398498
C37_3 C 0.8512(12) -0.0 0.536(2)
H14_2 H 0.880513 0.05187 0.578862
C38_3 C 0.7878(11) -0.0 0.560(2)
C39_3 C 0.7285(14) -0.0 0.431(2)
H16_3 H 0.684817 0.000002 0.44129
H22_2 H 0.788121 0.05249 0.609072
C42_2 C 0.7261(9) 0.0798(9) 0.3582(16)
H23_2 H 0.727439 0.131744 0.409348
H24_2 H 0.681466 0.081233 0.274502
C43_2 C 0.7875(9) 0.0805(11) 0.3335(19)
H25_2 H 0.771293 0.076378 0.238902
H26_2 H 0.814803 0.135033 0.366703
N1_4 N 0.8348(12) 1.0 0.407(2)
H13_4 H 0.879134 1.0 0.398498
C37_4 C 0.8512(12) 1.0 0.536(2)
C38_4 C 0.7878(11) 1.0 0.560(2)
H15_2 H 0.788121 0.94751 0.609072
C39_4 C 0.7285(14) 1.0 0.431(2)
H16_4 H 0.684817 1.000002 0.44129
C40_2 C 0.7261(9) 0.9202(9) 0.3582(16)
H17_2 H 0.727439 0.868256 0.409348
H18_2 H 0.681466 0.918767 0.274502
C41_2 C 0.7875(9) 0.9195(11) 0.3335(19)
H19_2 H 0.771293 0.923622 0.238902
H20_2 H 0.814803 0.864967 0.366703
H21_2 H 0.880513 0.94813 0.578862
N1_5 N 0.6652(12) 0.5 0.593(2)
H13_5 H 0.620866 0.5 0.601502
C37_5 C 0.6488(12) 0.5 0.464(2)
H14_3 H 0.619487 0.55187 0.421138
C38_5 C 0.7122(11) 0.5 0.440(2)
H15_3 H 0.711879 0.44751 0.390928
C39_5 C 0.7715(14) 0.5 0.569(2)
H16_5 H 0.815183 0.500002 0.55871
C40_3 C 0.7739(9) 0.4202(9) 0.6418(16)
H17_3 H 0.772561 0.368256 0.590652
H18_3 H 0.818534 0.418767 0.725498
C41_3 C 0.7125(9) 0.4195(11) 0.6665(19)
H19_3 H 0.728707 0.423622 0.761098
H20_3 H 0.685197 0.364967 0.633297
H21_3 H 0.619487 0.44813 0.421138
H22_3 H 0.711879 0.55249 0.390928
C42_3 C 0.7739(9) 0.5798(9) 0.6418(16)
H23_3 H 0.772561 0.631744 0.590652
H24_3 H 0.818534 0.581233 0.725498
C43_3 C 0.7125(9) 0.5805(11) 0.6665(19)
H25_3 H 0.728707 0.576378 0.761098
H26_3 H 0.685197 0.635033 0.633297
N1_6 N 0.3348(12) 0.5 0.407(2)
H13_6 H 0.379134 0.5 0.398498
C37_6 C 0.3512(12) 0.5 0.536(2)
H14_4 H 0.380513 0.55187 0.578862
C38_6 C 0.2878(11) 0.5 0.560(2)
H15_4 H 0.288121 0.44751 0.609072
C39_6 C 0.2285(14) 0.5 0.431(2)
H16_6 H 0.184817 0.500002 0.44129
C40_4 C 0.2261(9) 0.4202(9) 0.3582(16)
H17_4 H 0.227439 0.368256 0.409348
H18_4 H 0.181466 0.418767 0.274502
C41_4 C 0.2875(9) 0.4195(11) 0.3335(19)
H19_4 H 0.271293 0.423622 0.238902
H20_4 H 0.314803 0.364967 0.366703
H21_4 H 0.380513 0.44813 0.578862
H22_4 H 0.288121 0.55249 0.609072
C42_4 C 0.2261(9) 0.5798(9) 0.3582(16)
H23_4 H 0.227439 0.631744 0.409348
H24_4 H 0.181466 0.581233 0.274502
C43_4 C 0.2875(9) 0.5805(11) 0.3335(19)
H25_4 H 0.271293 0.576378 0.238902
H26_4 H 0.314803 0.635033 0.366703
loop_
_geom_bond_atom_site_label_1
_geom_bond_atom_site_label_2
_geom_bond_site_symmetry_1
_geom_bond_site_symmetry_2
O4 U1 1_555 1_555
O5 C7 1_555 1_555
C7 O4 1_555 1_555
U3 O5 1_555 1_555
O10 U1 1_555 1_555
O11 U3 1_555 1_555
O12 U3 1_555 1_555
O15 U3 1_555 1_555
O16 U3 1_555 1_555
O17 C18 1_555 1_555
O18 C18 1_555 1_555
C10 C11 1_555 1_555
C11 C12 1_555 1_555
C12 H4 1_555 1_555
C13 C12 1_555 1_555
C14 C13 1_555 1_555
H5 C14 1_555 1_555
C15 C10 1_555 1_555
C17 O15 1_555 1_555
C18 C13 1_555 1_555
U4 O19 1_555 1_555
O20 U4 1_555 1_555
O23 U4 1_555 1_555
O24 U4 1_555 1_555
O25 C27 1_555 1_555
O26 C27 1_555 1_555
C19 C20 1_555 1_555
C20 C21 1_555 1_555
C21 H7 1_555 1_555
C22 C21 1_555 1_555
C23 C22 1_555 1_555
H8 C23 1_555 1_555
C24 C19 1_555 1_555
C26 O23 1_555 1_555
C27 C22 1_555 1_555
O29 U1 1_555 1_555
O30 U4 1_555 1_555
C34 O29 1_555 1_555
U7 O25 1_555 1_555
U13 O17 1_555 1_555
O35 U4 1_555 1_555
O38 U3 1_555 1_555
O40 U4 1_555 1_555
O41 U3 1_555 1_555
O16 C17 1_555 1_555
C11 C17 1_555 1_555
C14 C15 1_555 1_555
O24 C26 1_555 1_555
C20 C26 1_555 1_555
C23 C24 1_555 1_555
O30 C34 1_555 1_555
U1_2 O1 1_555 1_555
U2 O2 1_555 1_555
O3 U2 1_555 1_555
O6 U2 1_555 1_555
O7 U2 1_555 1_555
O8 C9 1_555 1_555
O9 C9 1_555 1_555
C1 C2 1_555 1_555
C2 C3 1_555 1_555
C3 H1 1_555 1_555
C4 C3 1_555 1_555
C5 C4 1_555 1_555
H2 C5 1_555 1_555
C6 C1 1_555 1_555
C8 O6 1_555 1_555
C9 C4 1_555 1_555
O13 U1_2 1_555 1_555
O14 U2 1_555 1_555
C16 O13 1_555 1_555
O21 U1_2 1_555 1_555
O22 C25 1_555 1_555
C25 O21 1_555 1_555
U5 O22 1_555 1_555
O27 U5 1_555 1_555
O28 U5 1_555 1_555
O31 U5 1_555 1_555
O32 U5 1_555 1_555
O33 C36 1_555 1_555
O34 C36 1_555 1_555
C28 C29 1_555 1_555
C29 C30 1_555 1_555
C30 H10 1_555 1_555
C31 C30 1_555 1_555
C32 C31 1_555 1_555
H11 C32 1_555 1_555
C33 C28 1_555 1_555
C35 O31 1_555 1_555
C36 C31 1_555 1_555
U9 O33 1_555 1_555
U11 O8 1_555 1_555
O36 U5 1_555 1_555
O37 U2 1_555 1_555
O39 U5 1_555 1_555
O42 U2 1_555 1_555
O7 C8 1_555 1_555
C2 C8 1_555 1_555
C5 C6 1_555 1_555
O14 C16 1_555 1_555
O32 C35 1_555 1_555
C29 C35 1_555 1_555
C32 C33 1_555 1_555
O10_2 U1_3 1_555 1_555
O11_2 U9 1_555 1_555
O12_2 U9 1_555 1_555
O15_2 U9 1_555 1_555
O16_2 U9 1_555 1_555
O36 C18_2 1_555 1_555
O40 C18_2 1_555 1_555
C10_2 C11_2 1_555 1_555
C11_2 C12_2 1_555 1_555
C12_2 H4_2 1_555 1_555
C13_2 C12_2 1_555 1_555
C14_2 C13_2 1_555 1_555
H5_2 C14_2 1_555 1_555
C15_2 C10_2 1_555 1_555
C17_2 O15_2 1_555 1_555
C18_2 C13_2 1_555 1_555
O16_2 C17_2 1_555 1_555
C11_2 C17_2 1_555 1_555
C14_2 C15_2 1_555 1_555
O13_2 U1_4 1_555 1_555
C16_2 O13_2 1_555 1_555
O14_2 C16_2 1_555 1_555
O10_3 U1_5 1_555 1_555
U11 O19_2 1_555 1_555
O20_2 U11 1_555 1_555
O23_2 U11 1_555 1_555
O24_2 U11 1_555 1_555
O37 C27_2 1_555 1_555
O41 C27_2 1_555 1_555
C19_2 C20_2 1_555 1_555
C20_2 C21_2 1_555 1_555
C21_2 H7_2 1_555 1_555
C22_2 C21_2 1_555 1_555
C23_2 C22_2 1_555 1_555
H8_2 C23_2 1_555 1_555
C24_2 C19_2 1_555 1_555
C26_2 O23_2 1_555 1_555
C27_2 C22_2 1_555 1_555
O24_2 C26_2 1_555 1_555
C20_2 C26_2 1_555 1_555
C23_2 C24_2 1_555 1_555
O21_2 U1_6 1_555 1_555
O22_2 C25_2 1_555 1_555
C25_2 O21_2 1_555 1_555
O4_2 U1_7 1_555 1_555
O5_2 C7_2 1_555 1_555
C7_2 O4_2 1_555 1_555
U1_8 O1_2 1_555 1_555
U7 O2_2 1_555 1_555
O3_2 U7 1_555 1_555
O6_2 U7 1_555 1_555
O7_2 U7 1_555 1_555
O35 C9_2 1_555 1_555
O39 C9_2 1_555 1_555
C1_2 C2_2 1_555 1_555
C2_2 C3_2 1_555 1_555
C3_2 H1_2 1_555 1_555
C4_2 C3_2 1_555 1_555
C5_2 C4_2 1_555 1_555
H2_2 C5_2 1_555 1_555
C6_2 C1_2 1_555 1_555
C8_2 O6_2 1_555 1_555
C9_2 C4_2 1_555 1_555
O7_2 C8_2 1_555 1_555
C2_2 C8_2 1_555 1_555
C5_2 C6_2 1_555 1_555
O29_2 U1_9 1_555 1_555
C34_2 O29_2 1_555 1_555
O30_2 C34_2 1_555 1_555
U1_10 O1_3 1_555 1_555
O27_2 U13 1_555 1_555
O28_2 U13 1_555 1_555
O31_2 U13 1_555 1_555
O32_2 U13 1_555 1_555
O38 C36_2 1_555 1_555
O42 C36_2 1_555 1_555
C28_2 C29_2 1_555 1_555
C29_2 C30_2 1_555 1_555
C30_2 H10_2 1_555 1_555
C31_2 C30_2 1_555 1_555
C32_2 C31_2 1_555 1_555
H11_2 C32_2 1_555 1_555
C33_2 C28_2 1_555 1_555
C35_2 O31_2 1_555 1_555
C36_2 C31_2 1_555 1_555
O32_2 C35_2 1_555 1_555
C29_2 C35_2 1_555 1_555
C32_2 C33_2 1_555 1_555
N1 H13 1_555 1_555
C37 N1 1_555 1_555
H14 C37 1_555 1_555
C38 C37 1_555 1_555
C39 C38 1_555 1_555
H16 C39 1_555 1_555
H22 C38 1_555 1_555
C42 C39 1_555 1_555
H23 C42 1_555 1_555
H24 C42 1_555 1_555
C43 N1 1_555 1_555
H25 C43 1_555 1_555
H26 C43 1_555 1_555
C42 C43 1_555 1_555
N1_2 H13_2 1_555 1_555
C37_2 N1_2 1_555 1_555
C38_2 C37_2 1_555 1_555
H15 C38_2 1_555 1_555
C39_2 C38_2 1_555 1_555
H16_2 C39_2 1_555 1_555
C40 C39_2 1_555 1_555
H17 C40 1_555 1_555
H18 C40 1_555 1_555
C41 N1_2 1_555 1_555
H19 C41 1_555 1_555
H20 C41 1_555 1_555
H21 C37_2 1_555 1_555
C40 C41 1_555 1_555
N1_3 H13_3 1_555 1_555
C37_3 N1_3 1_555 1_555
H14_2 C37_3 1_555 1_555
C38_3 C37_3 1_555 1_555
C39_3 C38_3 1_555 1_555
H16_3 C39_3 1_555 1_555
H22_2 C38_3 1_555 1_555
C42_2 C39_3 1_555 1_555
H23_2 C42_2 1_555 1_555
H24_2 C42_2 1_555 1_555
C43_2 N1_3 1_555 1_555
H25_2 C43_2 1_555 1_555
H26_2 C43_2 1_555 1_555
C42_2 C43_2 1_555 1_555
N1_4 H13_4 1_555 1_555
C37_4 N1_4 1_555 1_555
C38_4 C37_4 1_555 1_555
H15_2 C38_4 1_555 1_555
C39_4 C38_4 1_555 1_555
H16_4 C39_4 1_555 1_555
C40_2 C39_4 1_555 1_555
H17_2 C40_2 1_555 1_555
H18_2 C40_2 1_555 1_555
C41_2 N1_4 1_555 1_555
H19_2 C41_2 1_555 1_555
H20_2 C41_2 1_555 1_555
H21_2 C37_4 1_555 1_555
C40_2 C41_2 1_555 1_555
N1_5 H13_5 1_555 1_555
C37_5 N1_5 1_555 1_555
H14_3 C37_5 1_555 1_555
C38_5 C37_5 1_555 1_555
H15_3 C38_5 1_555 1_555
C39_5 C38_5 1_555 1_555
H16_5 C39_5 1_555 1_555
C40_3 C39_5 1_555 1_555
H17_3 C40_3 1_555 1_555
H18_3 C40_3 1_555 1_555
C41_3 N1_5 1_555 1_555
H19_3 C41_3 1_555 1_555
H20_3 C41_3 1_555 1_555
H21_3 C37_5 1_555 1_555
H22_3 C38_5 1_555 1_555
C42_3 C39_5 1_555 1_555
H23_3 C42_3 1_555 1_555
H24_3 C42_3 1_555 1_555
C43_3 N1_5 1_555 1_555
H25_3 C43_3 1_555 1_555
H26_3 C43_3 1_555 1_555
C40_3 C41_3 1_555 1_555
C42_3 C43_3 1_555 1_555
N1_6 H13_6 1_555 1_555
C37_6 N1_6 1_555 1_555
H14_4 C37_6 1_555 1_555
C38_6 C37_6 1_555 1_555
H15_4 C38_6 1_555 1_555
C39_6 C38_6 1_555 1_555
H16_6 C39_6 1_555 1_555
C40_4 C39_6 1_555 1_555
H17_4 C40_4 1_555 1_555
H18_4 C40_4 1_555 1_555
C41_4 N1_6 1_555 1_555
H19_4 C41_4 1_555 1_555
H20_4 C41_4 1_555 1_555
H21_4 C37_6 1_555 1_555
H22_4 C38_6 1_555 1_555
C42_4 C39_6 1_555 1_555
H23_4 C42_4 1_555 1_555
H24_4 C42_4 1_555 1_555
C43_4 N1_6 1_555 1_555
H25_4 C43_4 1_555 1_555
H26_4 C43_4 1_555 1_555
C40_4 C41_4 1_555 1_555
C42_4 C43_4 1_555 1_555

#END
