
###############################################################################
#
# This file contains modified crystal structure data generated from the
# MOF subset of the Cambridge Structural Database (CSD) v543 
# hosted by the Cambridge Crystallographic Data Centre (CCDC).
#
# This work is licensed under the Creative Commons
# Attribution-NonCommercial-ShareAlike 4.0 International License.
# To view a copy of this license, visit
# http://creativecommons.org/licenses/by-nc-sa/4.0/
# or send a letter to
# Creative Commons, PO Box 1866, Mountain View, CA 94042, USA.
#
# CIF created using the CSD Python API on 29 September 2022
# The structure has been converted into the P1 space group
# The structure has a 3D framework
# The original CSD entry JADBIC is in the triclinic crystal system
# The framework has been calculated to contain at least 10.0% void space
# The void calculation uses a probe of radius 1.32A, grid spacing 0.4
#
###############################################################################

data_JADBIC
_chemical_formula_moiety         '(C42 H40 Ce2 N8 O16)n'
_symmetry_cell_setting           triclinic
_symmetry_space_group_name_H-M   'P 1'
_symmetry_Int_Tables_number      1
_space_group_name_Hall           'P 1'
loop_
_symmetry_equiv_pos_site_id
_symmetry_equiv_pos_as_xyz
1 x,y,z
_cell_length_a                   10.0610(10)
_cell_length_b                   11.7219(11)
_cell_length_c                   13.6891(14)
_cell_angle_alpha                66.9340(10)
_cell_angle_beta                 87.182(2)
_cell_angle_gamma                76.2570(10)
_cell_volume                     1441.08
loop_
_atom_site_label
_atom_site_type_symbol
_atom_site_fract_x
_atom_site_fract_y
_atom_site_fract_z
_atom_site_U_iso_or_equiv
_atom_site_thermal_displace_type
N1 N 0.4581(14) 0.1774(13) 0.0146(10) 0.0459 Uani
N2 N 0.8045(14) 0.0038(14) 0.0202(10) 0.0490 Uani
C8 C 0.6804(15) 0.0321(14) 0.0542(11) 0.0332 Uani
Ce1 Ce 0.23519(6) 0.52848(6) 0.50339(5) 0.0169 Uani
N3 N 0.1508(16) 0.5578(17) 0.0051(11) 0.0546 Uani
N4 N 0.298(2) 0.799(2) 0.6620(16) 0.0779 Uani
O1 O 0.4352(11) 0.4425(10) 0.6244(8) 0.0361 Uani
O2 O 0.6583(10) 0.3452(10) 0.6577(7) 0.0330 Uani
O5 O 0.0806(10) 0.5109(10) 0.3838(8) 0.0356 Uani
O7 O 0.2914(12) 0.6988(11) 0.5543(9) 0.0434 Uani
O8 O 0.0401(10) 0.7262(9) 0.4400(8) 0.0349 Uani
H2 H 0.0167 0.7626 0.4832 0.0420 Uiso
O9 O 0.3967(10) 0.3662(10) 0.4408(7) 0.0334 Uani
H3 H 0.4165 0.2941 0.4926 0.0400 Uiso
H4 H 0.4707 0.3901 0.4219 0.0400 Uiso
C1 C 0.5362(13) 0.3626(13) 0.6862(10) 0.0282 Uani
C2 C 0.5784(15) 0.1425(15) 0.9755(11) 0.0338 Uani
C3 C 0.6086(14) 0.2001(14) 0.8698(10) 0.0307 Uani
H5 H 0.6942 0.1734 0.8465 0.0370 Uiso
C4 C 0.5106(14) 0.2964(13) 0.8005(10) 0.0280 Uani
C5 C 0.3821(16) 0.3348(15) 0.8406(12) 0.0386 Uani
H6 H 0.3129 0.4004 0.7964 0.0470 Uiso
C6 C 0.3638(17) 0.2723(16) 0.9457(12) 0.0460 Uani
H7 H 0.2795 0.2975 0.9716 0.0550 Uiso
C13 C 0.0092(14) 0.4983(14) 0.3191(10) 0.0280 Uani
C14 C 0.0362(16) 0.5123(17) 0.0396(11) 0.0395 Uani
C16 C 0.0618(15) 0.5163(16) 0.2113(11) 0.0358 Uani
C17 C 0.1785(17) 0.5612(18) 0.1770(13) 0.0466 Uani
H12 H 0.2295 0.5792 0.2217 0.0560 Uiso
C18 C 0.2173(19) 0.579(2) 0.0747(13) 0.0533 Uani
H13 H 0.2967 0.6072 0.0533 0.0640 Uiso
C19 C 0.267(2) 0.7182(19) 0.6316(17) 0.0581 Uani
H14 H 0.2152 0.6661 0.6788 0.0690 Uiso
C20 C 0.373(4) 0.894(3) 0.586(3) 0.1066 Uani
H15 H 0.3593 0.9003 0.5151 0.1610 Uiso
H16 H 0.4691 0.8648 0.6061 0.1610 Uiso
H17 H 0.3382 0.9756 0.5895 0.1610 Uiso
C21 C 0.278(4) 0.804(3) 0.769(3) 0.1143 Uani
H18 H 0.1847 0.8460 0.7727 0.1730 Uiso
H19 H 0.3382 0.8510 0.7796 0.1730 Uiso
H20 H 0.2983 0.7191 0.8224 0.1730 Uiso
Ce8 Ce 0.76481(6) 0.47152(6) 0.49661(5) 0.0169 Uani
O20 O 0.3417(10) 0.6548(10) 0.3423(7) 0.0330 Uani
O22 O 0.2082(10) 0.3093(9) 0.6074(7) 0.0318 Uani
O24 O 0.1039(10) 0.5280(10) 0.6631(7) 0.0330 Uani
C24 C 0.0102(15) 0.5061(16) 0.8621(11) 0.0352 Uani
H21 H 0.0906 0.5338 0.8430 0.0420 Uiso
H24 H 0.0310 0.2884 0.5793 0.0420 Uiso
O3 O 0.7918(10) 0.6907(9) 0.3926(7) 0.0318 Uani
O4 O 0.5976(12) 0.8370(11) 0.3728(9) 0.0499 Uani
C7 C 0.7075(14) 0.7947(13) 0.3376(11) 0.0299 Uani
C9 C 0.6461(15) 0.9665(14) 0.1564(11) 0.0339 Uani
H8 H 0.5576 0.9886 0.1772 0.0410 Uiso
C10 C 0.7422(15) 0.8684(15) 0.2276(11) 0.0338 Uani
C11 C 0.8749(16) 0.8368(17) 0.1927(13) 0.0456 Uani
H9 H 0.9439 0.7725 0.2383 0.0550 Uiso
C12 C 0.8980(17) 0.9055(18) 0.0878(13) 0.0529 Uani
H10 H 0.9834 0.8822 0.0626 0.0640 Uiso
O15 O 0.4024(12) 0.1630(11) 0.6272(9) 0.0499 Uani
C34 C 0.2925(14) 0.2053(13) 0.6624(11) 0.0299 Uani
C36 C 0.3539(15) 0.0335(14) 0.8436(11) 0.0339 Uani
H31 H 0.4424 0.0114 0.8228 0.0410 Uiso
C37 C 0.2578(15) 0.1316(15) 0.7724(11) 0.0338 Uani
C38 C 0.1251(16) 0.1632(17) 0.8073(13) 0.0456 Uani
H32 H 0.0561 0.2275 0.7617 0.0550 Uiso
C39 C 0.1020(17) 0.0945(18) 0.9122(13) 0.0529 Uani
H33 H 0.0166 0.1178 0.9374 0.0640 Uiso
O6 O 0.8961(10) 0.4720(10) 0.3369(7) 0.0330 Uani
H1 H 0.9690 0.7116 0.4207 0.0420 Uiso
C15 C 0.9898(15) 0.4939(16) 0.1379(11) 0.0352 Uani
H11 H 0.9094 0.4662 0.1570 0.0420 Uiso
N5 N 0.8492(16) 0.4422(17) 0.9949(11) 0.0546 Uani
O10 O 0.9194(10) 0.4891(10) 0.6162(8) 0.0356 Uani
C22 C 0.9908(14) 0.5017(14) 0.6809(10) 0.0280 Uani
C23 C 0.9638(16) 0.4877(17) 0.9604(11) 0.0395 Uani
C25 C 0.9382(15) 0.4837(16) 0.7887(11) 0.0358 Uani
C26 C 0.8215(17) 0.4388(18) 0.8230(13) 0.0466 Uani
H22 H 0.7705 0.4208 0.7783 0.0560 Uiso
C27 C 0.7827(19) 0.421(2) 0.9253(13) 0.0533 Uani
H23 H 0.7033 0.3928 0.9467 0.0640 Uiso
N8 N 0.702(2) 0.201(2) 0.3380(16) 0.0779 Uani
O12 O 0.5648(11) 0.5575(10) 0.3756(8) 0.0361 Uani
O16 O 0.7086(12) 0.3012(11) 0.4457(9) 0.0434 Uani
O17 O 0.9599(10) 0.2738(9) 0.5600(8) 0.0349 Uani
H25 H 0.9833 0.2374 0.5168 0.0420 Uiso
O18 O 0.6033(10) 0.6338(10) 0.5592(7) 0.0334 Uani
H26 H 0.5835 0.7059 0.5074 0.0400 Uiso
H27 H 0.5293 0.6099 0.5781 0.0400 Uiso
C28 C 0.4638(13) 0.6374(13) 0.3138(10) 0.0282 Uani
C29 C 0.4216(15) 0.8575(15) 0.0245(11) 0.0338 Uani
C30 C 0.3914(14) 0.7999(14) 0.1302(10) 0.0307 Uani
H28 H 0.3058 0.8266 0.1535 0.0370 Uiso
C31 C 0.4894(14) 0.7036(13) 0.1995(10) 0.0280 Uani
C32 C 0.6179(16) 0.6652(15) 0.1594(12) 0.0386 Uani
H29 H 0.6871 0.5996 0.2036 0.0470 Uiso
C33 C 0.6362(17) 0.7277(16) 0.0543(12) 0.0460 Uani
H30 H 0.7205 0.7025 0.0284 0.0550 Uiso
C40 C 0.733(2) 0.2818(19) 0.3684(17) 0.0581 Uani
H34 H 0.7848 0.3339 0.3212 0.0690 Uiso
C41 C 0.627(4) 0.106(3) 0.414(3) 0.1066 Uani
H35 H 0.6407 0.0997 0.4849 0.1610 Uiso
H36 H 0.5309 0.1352 0.3939 0.1610 Uiso
H37 H 0.6618 0.0244 0.4105 0.1610 Uiso
C42 C 0.722(4) 0.196(3) 0.231(3) 0.1143 Uani
H38 H 0.8153 0.1540 0.2273 0.1730 Uiso
H39 H 0.6618 0.1490 0.2204 0.1730 Uiso
H40 H 0.7017 0.2809 0.1776 0.1730 Uiso
N6 N 0.5419(14) 0.8226(13) 0.9854(10) 0.0459 Uani
N7 N 0.1955(14) 0.9962(14) 0.9798(10) 0.0490 Uani
C35 C 0.3196(15) 0.9679(14) 0.9458(11) 0.0332 Uani
loop_
_atom_site_aniso_label
_atom_site_aniso_U_11
_atom_site_aniso_U_22
_atom_site_aniso_U_33
_atom_site_aniso_U_23
_atom_site_aniso_U_13
_atom_site_aniso_U_12
N1 0.039 0.045 0.03 0.003 0.008 0.001
N2 0.034 0.053 0.032 0.005 0.008 0.002
C8 0.034 0.035 0.026 -0.008 0.004 -0.007
Ce1 0.0192 0.021 0.0083 -0.0028 -0.0017 -0.0053
N3 0.053 0.086 0.036 -0.027 0.009 -0.033
N4 0.096 0.076 0.086 -0.054 0.009 -0.027
O1 0.036 0.037 0.029 -0.005 -0.004 -0.01
O2 0.031 0.039 0.023 -0.005 0.003 -0.01
O5 0.036 0.05 0.03 -0.024 -0.006 -0.011
O7 0.056 0.047 0.044 -0.03 0 -0.021
O8 0.035 0.033 0.042 -0.021 -0.006 -0.005
O9 0.03 0.037 0.027 -0.005 0.007 -0.011
C1 0.025 0.032 0.021 -0.003 -0.003 -0.007
C2 0.032 0.037 0.026 -0.007 0.003 -0.006
C3 0.029 0.032 0.025 -0.006 0.005 -0.006
C4 0.028 0.03 0.024 -0.008 0.002 -0.008
C5 0.034 0.038 0.03 -0.004 -0.001 0.001
C6 0.039 0.047 0.03 -0.002 0.008 0.006
C13 0.028 0.042 0.023 -0.018 0.004 -0.016
C14 0.04 0.062 0.028 -0.023 0.008 -0.025
C16 0.036 0.058 0.025 -0.023 0.004 -0.021
C17 0.043 0.07 0.036 -0.023 0 -0.026
C18 0.049 0.084 0.038 -0.024 0.007 -0.037
C19 0.068 0.054 0.065 -0.031 0.001 -0.024
C20 0.13 0.081 0.12 -0.047 0.02 -0.035
C21 0.15 0.11 0.1 -0.06 0.01 -0.03
Ce8 0.0192 0.021 0.0083 -0.0028 -0.0017 -0.0053
O20 0.031 0.039 0.023 -0.005 0.003 -0.01
O22 0.036 0.025 0.029 -0.001 -0.005 -0.013
O24 0.034 0.051 0.024 -0.022 0.003 -0.016
C24 0.034 0.055 0.027 -0.023 0.003 -0.018
O3 0.036 0.025 0.029 -0.001 -0.005 -0.013
O4 0.054 0.037 0.036 -0.002 0.008 0.008
C7 0.026 0.027 0.029 -0.001 -0.001 -0.009
C9 0.03 0.032 0.03 -0.004 0.003 -0.004
C10 0.031 0.038 0.025 -0.005 0 -0.007
C11 0.034 0.044 0.035 0.004 0.002 0
C12 0.034 0.052 0.042 0.006 0.008 0.002
O15 0.054 0.037 0.036 -0.002 0.008 0.008
C34 0.026 0.027 0.029 -0.001 -0.001 -0.009
C36 0.03 0.032 0.03 -0.004 0.003 -0.004
C37 0.031 0.038 0.025 -0.005 0 -0.007
C38 0.034 0.044 0.035 0.004 0.002 0
C39 0.034 0.052 0.042 0.006 0.008 0.002
O6 0.034 0.051 0.024 -0.022 0.003 -0.016
C15 0.034 0.055 0.027 -0.023 0.003 -0.018
N5 0.053 0.086 0.036 -0.027 0.009 -0.033
O10 0.036 0.05 0.03 -0.024 -0.006 -0.011
C22 0.028 0.042 0.023 -0.018 0.004 -0.016
C23 0.04 0.062 0.028 -0.023 0.008 -0.025
C25 0.036 0.058 0.025 -0.023 0.004 -0.021
C26 0.043 0.07 0.036 -0.023 0 -0.026
C27 0.049 0.084 0.038 -0.024 0.007 -0.037
N8 0.096 0.076 0.086 -0.054 0.009 -0.027
O12 0.036 0.037 0.029 -0.005 -0.004 -0.01
O16 0.056 0.047 0.044 -0.03 0 -0.021
O17 0.035 0.033 0.042 -0.021 -0.006 -0.005
O18 0.03 0.037 0.027 -0.005 0.007 -0.011
C28 0.025 0.032 0.021 -0.003 -0.003 -0.007
C29 0.032 0.037 0.026 -0.007 0.003 -0.006
C30 0.029 0.032 0.025 -0.006 0.005 -0.006
C31 0.028 0.03 0.024 -0.008 0.002 -0.008
C32 0.034 0.038 0.03 -0.004 -0.001 0.001
C33 0.039 0.047 0.03 -0.002 0.008 0.006
C40 0.068 0.054 0.065 -0.031 0.001 -0.024
C41 0.13 0.081 0.12 -0.047 0.02 -0.035
C42 0.15 0.11 0.1 -0.06 0.01 -0.03
N6 0.039 0.045 0.03 0.003 0.008 0.001
N7 0.034 0.053 0.032 0.005 0.008 0.002
C35 0.034 0.035 0.026 -0.008 0.004 -0.007
loop_
_geom_bond_atom_site_label_1
_geom_bond_atom_site_label_2
_geom_bond_site_symmetry_1
_geom_bond_site_symmetry_2
N2 C8 1_555 1_555
Ce1 O1 1_555 1_555
N3 C14 1_555 1_555
N4 C19 1_555 1_555
O1 C1 1_555 1_555
O2 C1 1_555 1_555
O5 Ce1 1_555 1_555
O7 Ce1 1_555 1_555
O8 Ce1 1_555 1_555
H2 O8 1_555 1_555
O9 Ce1 1_555 1_555
H3 O9 1_555 1_555
H4 O9 1_555 1_555
C1 C4 1_555 1_555
C2 C3 1_555 1_555
C3 H5 1_555 1_555
C4 C3 1_555 1_555
C5 C4 1_555 1_555
H6 C5 1_555 1_555
H7 C6 1_555 1_555
C13 O5 1_555 1_555
C16 C13 1_555 1_555
C17 C16 1_555 1_555
H12 C17 1_555 1_555
C18 N3 1_555 1_555
H13 C18 1_555 1_555
C19 O7 1_555 1_555
H14 C19 1_555 1_555
C20 N4 1_555 1_555
H15 C20 1_555 1_555
H16 C20 1_555 1_555
H17 C20 1_555 1_555
C21 N4 1_555 1_555
H18 C21 1_555 1_555
H19 C21 1_555 1_555
H20 C21 1_555 1_555
Ce8 O2 1_555 1_555
O20 Ce1 1_555 1_555
O22 Ce1 1_555 1_555
O24 Ce1 1_555 1_555
C5 C6 1_555 1_555
C17 C18 1_555 1_555
H21 C24 1_555 1_555
O3 C7 1_555 1_555
O4 C7 1_555 1_555
C7 C10 1_555 1_555
H8 C9 1_555 1_555
C10 C9 1_555 1_555
C11 C10 1_555 1_555
H9 C11 1_555 1_555
H10 C12 1_555 1_555
Ce8 O3 1_555 1_555
C11 C12 1_555 1_555
O22 C34 1_555 1_555
O15 C34 1_555 1_555
C34 C37 1_555 1_555
H31 C36 1_555 1_555
C37 C36 1_555 1_555
C38 C37 1_555 1_555
H32 C38 1_555 1_555
H33 C39 1_555 1_555
C38 C39 1_555 1_555
C15 H11 1_555 1_555
Ce8 O6 1_555 1_555
N5 C23 1_555 1_555
O10 C22 1_555 1_555
C22 C25 1_555 1_555
C26 C25 1_555 1_555
H22 C26 1_555 1_555
C27 N5 1_555 1_555
H23 C27 1_555 1_555
Ce8 O10 1_555 1_555
N8 C40 1_555 1_555
O12 Ce8 1_555 1_555
O20 C28 1_555 1_555
O16 Ce8 1_555 1_555
O17 Ce8 1_555 1_555
H25 O17 1_555 1_555
O18 Ce8 1_555 1_555
H26 O18 1_555 1_555
H27 O18 1_555 1_555
C28 O12 1_555 1_555
C29 C30 1_555 1_555
C30 H28 1_555 1_555
C31 C28 1_555 1_555
C32 C31 1_555 1_555
H29 C32 1_555 1_555
H30 C33 1_555 1_555
C40 O16 1_555 1_555
H34 C40 1_555 1_555
C41 N8 1_555 1_555
H35 C41 1_555 1_555
H36 C41 1_555 1_555
H37 C41 1_555 1_555
C42 N8 1_555 1_555
H38 C42 1_555 1_555
H39 C42 1_555 1_555
H40 C42 1_555 1_555
C26 C27 1_555 1_555
C30 C31 1_555 1_555
C32 C33 1_555 1_555
N7 C35 1_555 1_555

#END
