
###############################################################################
#
# This file contains modified crystal structure data generated from the
# MOF subset of the Cambridge Structural Database (CSD) v543 
# hosted by the Cambridge Crystallographic Data Centre (CCDC).
#
# This work is licensed under the Creative Commons
# Attribution-NonCommercial-ShareAlike 4.0 International License.
# To view a copy of this license, visit
# http://creativecommons.org/licenses/by-nc-sa/4.0/
# or send a letter to
# Creative Commons, PO Box 1866, Mountain View, CA 94042, USA.
#
# CIF created using the CSD Python API on 29 September 2022
# The structure has been converted into the P1 space group
# The structure has a 3D framework
# The original CSD entry JADJOQ is in the orthorhombic crystal system
# The original CSD entry JADJOQ is in a Sohncke space group
# The framework has been calculated to contain at least 10.0% void space
# The void calculation uses a probe of radius 1.32A, grid spacing 0.4
#
###############################################################################

data_JADJOQ
_chemical_formula_moiety         '(C56 H60 N4 O32 Zn8)n'
_symmetry_cell_setting           triclinic
_symmetry_space_group_name_H-M   'P 1'
_symmetry_Int_Tables_number      1
_space_group_name_Hall           'P 1'
loop_
_symmetry_equiv_pos_site_id
_symmetry_equiv_pos_as_xyz
1 x,y,z
_cell_length_a                   10.32871(18)
_cell_length_b                   11.7366(2)
_cell_length_c                   20.3354(3)
_cell_angle_alpha                90
_cell_angle_beta                 90
_cell_angle_gamma                90
_cell_volume                     2465.14
loop_
_atom_site_label
_atom_site_type_symbol
_atom_site_fract_x
_atom_site_fract_y
_atom_site_fract_z
O8 O 0.0465(3) 0.5844(2) 0.50214(18)
C12 C 0.0198(6) 0.6619(4) 0.4655(3)
N1 N 0.0774(6) 0.7640(4) 0.4615(3)
C13 C 0.1831(8) 0.7894(7) 0.5091(5)
H10 H 0.2169 0.8661 0.5008
H11 H 0.2529 0.7335 0.5037
H12 H 0.1492 0.7851 0.5540
C14 C 0.0444(12) 0.8465(7) 0.4114(5)
H13 H 0.0977 0.9149 0.4170
H15 H 0.0605 0.8136 0.3678
Zn6 Zn 0.14691(3) 0.17499(3) 0.48982(2)
O10 O 0.1247(2) 0.3393(2) 0.50688(14)
Zn1 Zn 0.96092(3) 0.42088(3) 0.50681(2)
Zn2 Zn 0.64691(3) 0.32501(3) 0.51018(2)
O1 O 0.8448(2) 0.2708(2) 0.50718(14)
O2 O 0.9627(3) 0.1231(2) 0.47352(16)
O3 O 0.6247(2) 0.1607(2) 0.49312(14)
C1 C 0.8581(3) 0.1712(3) 0.48392(18)
C2 C 0.7346(4) 0.1072(3) 0.4652(2)
H1 H 0.7404 0.0277 0.4826
C3 C 0.7249(4) 0.1019(5) 0.3900(2)
H2 H 0.6464 0.0603 0.3775
H3 H 0.8010 0.0625 0.3723
H4 H 0.7212 0.1794 0.3722
O4 O 0.8765(3) 0.4578(3) 0.42154(14)
O5 O 0.6649(3) 0.4154(3) 0.42778(13)
C4 C 0.7653(4) 0.4472(3) 0.39811(19)
C5 C 0.7499(4) 0.4761(4) 0.3263(2)
C6 C 0.8568(5) 0.5109(6) 0.2900(2)
H5 H 0.9388 0.5183 0.3107
C7 C 0.8437(5) 0.5352(6) 0.2232(3)
H6 H 0.9174 0.5571 0.1983
C8 C 0.7250(4) 0.5276(5) 0.1931(2)
C9 C 0.6173(5) 0.4925(5) 0.2290(2)
H7 H 0.5350 0.4868 0.2083
C10 C 0.6308(4) 0.4657(5) 0.2954(2)
H8 H 0.5578 0.4401 0.3196
C11 C 0.7119(4) 0.5555(4) 0.1211(2)
O6 O 0.6053(3) 0.5357(3) 0.09471(14)
O7 O 0.8110(3) 0.5962(4) 0.09416(16)
H9 H 0.9498 0.6490 0.4361
H14 H 0.9527 0.8669 0.4153
Zn3 Zn 0.53908(3) 0.57912(3) 0.00681(2)
Zn4 Zn 0.46092(3) 0.07912(3) 0.49319(2)
Zn5 Zn 0.85309(3) 0.67499(3) 0.01018(2)
O9 O 0.4627(3) 0.3769(2) 0.52648(16)
O11 O 0.8947(3) 0.4643(3) 0.59471(14)
O12 O 0.6890(3) 0.4038(4) 0.59416(16)
O9_2 O 0.0373(3) 0.6231(2) 0.02648(16)
Zn4_2 Zn 0.03908(3) 0.92088(3) 0.99319(2)
O1_2 O 0.6552(2) 0.7292(2) 0.00718(14)
O8_2 O 0.4535(3) 0.4156(2) 0.00214(18)
C13_2 C 0.3169(8) 0.2106(7) 0.0091(5)
H10_2 H 0.2831 0.1339 0.0008
H11_2 H 0.2471 0.2665 0.0037
H12_2 H 0.3508 0.2149 0.0540
O10_2 O 0.3753(2) 0.6607(2) 0.00688(14)
O2_2 O 0.5373(3) 0.8769(2) 0.97352(16)
O3_2 O 0.8753(2) 0.8393(2) 0.99312(14)
C1_2 C 0.6419(3) 0.8288(3) 0.98392(18)
C2_2 C 0.7654(4) 0.8928(3) 0.9652(2)
H1_2 H 0.7596 0.9723 0.9826
C3_2 C 0.7751(4) 0.8981(5) 0.8900(2)
H2_2 H 0.8536 0.9397 0.8775
H3_2 H 0.6990 0.9375 0.8723
H4_2 H 0.7788 0.8206 0.8722
O4_2 O 0.6235(3) 0.5422(3) 0.92154(14)
O5_2 O 0.8351(3) 0.5846(3) 0.92778(13)
C4_2 C 0.7347(4) 0.5528(3) 0.89811(19)
C5_2 C 0.7501(4) 0.5239(4) 0.8263(2)
C6_2 C 0.6432(5) 0.4891(6) 0.7900(2)
H5_2 H 0.5612 0.4817 0.8107
C7_2 C 0.6563(5) 0.4648(6) 0.7232(3)
H6_2 H 0.5826 0.4429 0.6983
C8_2 C 0.7750(4) 0.4724(5) 0.6931(2)
C9_2 C 0.8827(5) 0.5075(5) 0.7290(2)
H7_2 H 0.9650 0.5132 0.7083
C10_2 C 0.8692(4) 0.5343(5) 0.7954(2)
H8_2 H 0.9422 0.5599 0.8196
C11_2 C 0.7881(4) 0.4445(4) 0.6211(2)
C12_2 C 0.4802(6) 0.3381(4) 0.9655(3)
H9_2 H 0.5502 0.3510 0.9361
N1_2 N 0.4226(6) 0.2360(4) 0.9615(3)
C14_2 C 0.4556(12) 0.1535(7) 0.9114(5)
H13_2 H 0.4023 0.0851 0.9170
H14_2 H 0.5473 0.1331 0.9153
H15_2 H 0.4395 0.1864 0.8678
Zn6_2 Zn 0.35309(3) 0.82501(3) 0.98982(2)
O1_3 O 0.3448(2) 0.2292(2) 0.49282(14)
C1_3 C 0.3581(3) 0.3288(3) 0.51608(18)
C2_3 C 0.2346(4) 0.3928(3) 0.5348(2)
H1_3 H 0.2404 0.4723 0.5174
C3_3 C 0.2249(4) 0.3981(5) 0.6100(2)
H2_3 H 0.1464 0.4397 0.6225
H3_3 H 0.3010 0.4375 0.6277
H4_3 H 0.2212 0.3206 0.6278
O4_3 O 0.3765(3) 0.0422(3) 0.57846(14)
O5_3 O 0.1649(3) 0.0846(3) 0.57222(13)
C4_3 C 0.2653(4) 0.0528(3) 0.60189(19)
C5_3 C 0.2499(4) 0.0239(4) 0.6737(2)
C9_3 C 0.1173(5) 0.0075(5) 0.7710(2)
H7_3 H 0.0350 0.0132 0.7917
C10_3 C 0.1308(4) 0.0343(5) 0.7046(2)
H8_3 H 0.0578 0.0599 0.6804
O11_2 O 0.3947(3) 0.0357(3) 0.40529(14)
O12_2 O 0.1890(3) 0.0962(4) 0.40584(16)
C6_3 C 0.3568(5) 0.9891(6) 0.7100(2)
H5_3 H 0.4388 0.9817 0.6893
C7_3 C 0.3437(5) 0.9648(6) 0.7768(3)
H6_3 H 0.4174 0.9429 0.8017
C8_3 C 0.2250(4) 0.9724(5) 0.8069(2)
C11_3 C 0.2119(4) 0.9445(4) 0.8789(2)
O6_2 O 0.1053(3) 0.9643(3) 0.90529(14)
O7_2 O 0.3110(3) 0.9038(4) 0.90584(16)
O8_3 O 0.5465(3) 0.9156(2) 0.49786(18)
C12_3 C 0.5198(6) 0.8381(4) 0.5345(3)
H9_3 H 0.4498 0.8510 0.5639
N1_3 N 0.5774(6) 0.7360(4) 0.5385(3)
C13_3 C 0.6831(8) 0.7106(7) 0.4909(5)
H10_3 H 0.7169 0.6339 0.4992
H11_3 H 0.7529 0.7665 0.4963
H12_3 H 0.6492 0.7149 0.4460
C14_3 C 0.5444(12) 0.6535(7) 0.5886(5)
H13_3 H 0.5977 0.5851 0.5830
H14_3 H 0.4527 0.6331 0.5847
H15_3 H 0.5605 0.6864 0.6322
C6_4 C 0.1432(5) 0.0109(6) 0.2100(2)
H5_4 H 0.0612 0.0183 0.1893
C7_4 C 0.1563(5) 0.0352(6) 0.2768(3)
H6_4 H 0.0826 0.0571 0.3017
C8_4 C 0.2750(4) 0.0276(5) 0.3069(2)
C11_4 C 0.2881(4) 0.0555(4) 0.3789(2)
H9_4 H 0.0502 0.1490 0.0639
H14_4 H 0.0473 0.3669 0.0847
C1_4 C 0.1419(3) 0.6712(3) 0.01608(18)
C2_4 C 0.2654(4) 0.6072(3) 0.0348(2)
H1_4 H 0.2596 0.5277 0.0174
C3_4 C 0.2751(4) 0.6019(5) 0.1100(2)
H2_4 H 0.3536 0.5603 0.1225
H3_4 H 0.1990 0.5625 0.1277
H4_4 H 0.2788 0.6794 0.1278
O4_4 O 0.1235(3) 0.9578(3) 0.07846(14)
O5_4 O 0.3351(3) 0.9154(3) 0.07222(13)
C4_4 C 0.2347(4) 0.9472(3) 0.10189(19)
C5_4 C 0.2501(4) 0.9761(4) 0.1737(2)
C9_4 C 0.3827(5) 0.9925(5) 0.2710(2)
H7_4 H 0.4650 0.9868 0.2917
C10_4 C 0.3692(4) 0.9657(5) 0.2046(2)
H8_4 H 0.4422 0.9401 0.1804
O1_4 O 0.1552(2) 0.7708(2) 0.99282(14)
C12_4 C 0.9802(6) 0.1619(4) 0.0345(3)
N1_4 N 0.9226(6) 0.2640(4) 0.0385(3)
C14_4 C 0.9556(12) 0.3465(7) 0.0886(5)
H13_4 H 0.9023 0.4149 0.0830
H15_4 H 0.9395 0.3136 0.1322
O8_4 O 0.9535(3) 0.0844(2) 0.99786(18)
C13_4 C 0.8169(8) 0.2894(7) 0.9909(5)
H10_4 H 0.7831 0.3661 0.9992
H11_4 H 0.7471 0.2335 0.9963
H12_4 H 0.8508 0.2851 0.9460
loop_
_geom_bond_atom_site_label_1
_geom_bond_atom_site_label_2
_geom_bond_site_symmetry_1
_geom_bond_site_symmetry_2
C12 O8 1_555 1_555
N1 C12 1_555 1_555
C13 N1 1_555 1_555
H10 C13 1_555 1_555
H11 C13 1_555 1_555
H12 C13 1_555 1_555
C14 N1 1_555 1_555
H13 C14 1_555 1_555
H15 C14 1_555 1_555
Zn6 O10 1_555 1_555
Zn1 O1 1_555 1_555
Zn2 O1 1_555 1_555
O1 C1 1_555 1_555
O2 C1 1_555 1_555
O3 Zn2 1_555 1_555
C1 C2 1_555 1_555
C2 O3 1_555 1_555
H1 C2 1_555 1_555
C3 C2 1_555 1_555
H2 C3 1_555 1_555
H3 C3 1_555 1_555
H4 C3 1_555 1_555
O4 Zn1 1_555 1_555
O5 Zn2 1_555 1_555
C4 O4 1_555 1_555
C5 C4 1_555 1_555
C6 C5 1_555 1_555
H5 C6 1_555 1_555
C7 C6 1_555 1_555
H6 C7 1_555 1_555
C8 C7 1_555 1_555
C9 C8 1_555 1_555
H7 C9 1_555 1_555
C10 C5 1_555 1_555
H8 C10 1_555 1_555
C11 C8 1_555 1_555
O6 C11 1_555 1_555
O7 C11 1_555 1_555
Zn3 O6 1_555 1_555
Zn4 O3 1_555 1_555
Zn5 O7 1_555 1_555
O9 Zn2 1_555 1_555
O11 Zn1 1_555 1_555
O12 Zn2 1_555 1_555
O5 C4 1_555 1_555
C9 C10 1_555 1_555
Zn3 O1_2 1_555 1_555
Zn5 O1_2 1_555 1_555
O8_2 Zn3 1_555 1_555
H10_2 C13_2 1_555 1_555
H11_2 C13_2 1_555 1_555
H12_2 C13_2 1_555 1_555
O10_2 Zn3 1_555 1_555
O2_2 C1_2 1_555 1_555
C1_2 C2_2 1_555 1_555
C2_2 O3_2 1_555 1_555
H1_2 C2_2 1_555 1_555
C3_2 C2_2 1_555 1_555
H2_2 C3_2 1_555 1_555
H3_2 C3_2 1_555 1_555
H4_2 C3_2 1_555 1_555
C4_2 O4_2 1_555 1_555
C5_2 C4_2 1_555 1_555
C6_2 C5_2 1_555 1_555
H5_2 C6_2 1_555 1_555
C7_2 C6_2 1_555 1_555
H6_2 C7_2 1_555 1_555
C8_2 C7_2 1_555 1_555
C9_2 C8_2 1_555 1_555
H7_2 C9_2 1_555 1_555
C10_2 C5_2 1_555 1_555
H8_2 C10_2 1_555 1_555
C11_2 C8_2 1_555 1_555
O11 C11_2 1_555 1_555
O12 C11_2 1_555 1_555
H9_2 C12_2 1_555 1_555
N1_2 C12_2 1_555 1_555
C14_2 N1_2 1_555 1_555
H13_2 C14_2 1_555 1_555
H14_2 C14_2 1_555 1_555
H15_2 C14_2 1_555 1_555
Zn6_2 O2_2 1_555 1_555
O5_2 C4_2 1_555 1_555
C9_2 C10_2 1_555 1_555
Zn4 O1_3 1_555 1_555
Zn6 O1_3 1_555 1_555
O1_3 C1_3 1_555 1_555
O9 C1_3 1_555 1_555
C1_3 C2_3 1_555 1_555
C2_3 O10 1_555 1_555
H1_3 C2_3 1_555 1_555
C3_3 C2_3 1_555 1_555
H2_3 C3_3 1_555 1_555
H3_3 C3_3 1_555 1_555
H4_3 C3_3 1_555 1_555
O4_3 Zn4 1_555 1_555
O5_3 Zn6 1_555 1_555
C4_3 O4_3 1_555 1_555
C5_3 C4_3 1_555 1_555
H7_3 C9_3 1_555 1_555
C10_3 C5_3 1_555 1_555
H8_3 C10_3 1_555 1_555
O11_2 Zn4 1_555 1_555
O12_2 Zn6 1_555 1_555
O5_3 C4_3 1_555 1_555
C9_3 C10_3 1_555 1_555
H5_3 C6_3 1_555 1_555
C7_3 C6_3 1_555 1_555
H6_3 C7_3 1_555 1_555
C8_3 C7_3 1_555 1_555
C11_3 C8_3 1_555 1_555
O6_2 C11_3 1_555 1_555
O7_2 C11_3 1_555 1_555
C12_3 O8_3 1_555 1_555
H9_3 C12_3 1_555 1_555
N1_3 C12_3 1_555 1_555
C13_3 N1_3 1_555 1_555
H10_3 C13_3 1_555 1_555
H11_3 C13_3 1_555 1_555
H12_3 C13_3 1_555 1_555
C14_3 N1_3 1_555 1_555
H13_3 C14_3 1_555 1_555
H14_3 C14_3 1_555 1_555
H15_3 C14_3 1_555 1_555
Zn4_2 O6_2 1_555 1_555
Zn6_2 O7_2 1_555 1_555
H5_4 C6_4 1_555 1_555
C7_4 C6_4 1_555 1_555
H6_4 C7_4 1_555 1_555
C8_4 C7_4 1_555 1_555
C11_4 C8_4 1_555 1_555
O11_2 C11_4 1_555 1_555
O12_2 C11_4 1_555 1_555
O9_2 C1_4 1_555 1_555
C1_4 C2_4 1_555 1_555
C2_4 O10_2 1_555 1_555
H1_4 C2_4 1_555 1_555
C3_4 C2_4 1_555 1_555
H2_4 C3_4 1_555 1_555
H3_4 C3_4 1_555 1_555
H4_4 C3_4 1_555 1_555
C4_4 O4_4 1_555 1_555
C5_4 C4_4 1_555 1_555
H7_4 C9_4 1_555 1_555
C10_4 C5_4 1_555 1_555
H8_4 C10_4 1_555 1_555
O5_4 C4_4 1_555 1_555
C9_4 C10_4 1_555 1_555
Zn4_2 O1_4 1_555 1_555
Zn6_2 O1_4 1_555 1_555
N1_4 C12_4 1_555 1_555
C14_4 N1_4 1_555 1_555
H13_4 C14_4 1_555 1_555
H15_4 C14_4 1_555 1_555
H10_4 C13_4 1_555 1_555
H11_4 C13_4 1_555 1_555
H12_4 C13_4 1_555 1_555

#END
