
###############################################################################
#
# This file contains modified crystal structure data generated from the
# MOF subset of the Cambridge Structural Database (CSD) v543 
# hosted by the Cambridge Crystallographic Data Centre (CCDC).
#
# This work is licensed under the Creative Commons
# Attribution-NonCommercial-ShareAlike 4.0 International License.
# To view a copy of this license, visit
# http://creativecommons.org/licenses/by-nc-sa/4.0/
# or send a letter to
# Creative Commons, PO Box 1866, Mountain View, CA 94042, USA.
#
# CIF created using the CSD Python API on 29 September 2022
# The structure has been converted into the P1 space group
# The structure has a 3D framework
# The original CSD entry JADMAF is in the monoclinic crystal system
# The framework has been calculated to contain at least 10.0% void space
# The void calculation uses a probe of radius 1.32A, grid spacing 0.4
# H atom positions have been added when not included in the experimental data
#
###############################################################################

data_JADMAF
_chemical_formula_moiety         '(C424 H352 Co16 N32 O128)n'
_symmetry_cell_setting           triclinic
_symmetry_space_group_name_H-M   'P 1'
_symmetry_Int_Tables_number      1
_space_group_name_Hall           'P 1'
loop_
_symmetry_equiv_pos_site_id
_symmetry_equiv_pos_as_xyz
1 x,y,z
_cell_length_a                   47.02(6)
_cell_length_b                   10.770(7)
_cell_length_c                   23.78(3)
_cell_angle_alpha                90
_cell_angle_beta                 94.87(6)
_cell_angle_gamma                90
_cell_volume                     11998.8
loop_
_atom_site_label
_atom_site_type_symbol
_atom_site_fract_x
_atom_site_fract_y
_atom_site_fract_z
Co5 Co 0.00838(3) 0.33456(9) 0.56975(5)
O2 O 0.98184(11) 0.1849(4) 0.5431(2)
O15 O 0.97147(12) 0.3601(4) 0.5002(2)
C4 C 0.91191(19) 0.0020(7) 0.4593(4)
C8 C 0.89752(18) 0.0590(7) 0.4133(3)
C10 C 0.90351(19) 0.1794(8) 0.3991(4)
H6 H 0.8935 0.2175 0.3684
C21 C 0.96548(17) 0.2474(7) 0.5087(3)
C30 C 0.93354(19) 0.0659(7) 0.4904(4)
H22 H 0.9433 0.0275 0.5214
C36 C 0.92478(17) 0.2431(7) 0.4314(3)
H26 H 0.9283 0.3257 0.4229
C37 C 0.94099(17) 0.1868(6) 0.4761(3)
Co1 Co 0.21547(3) 0.34792(9) 0.07485(5)
Co2 Co 0.50838(3) 0.16544(9) 0.06975(5)
O1 O 0.24810(11) 0.2021(5) 0.0811(2)
O3 O 0.47738(13) 0.1274(5) 0.1231(3)
O4 O 0.23775(11) 0.4313(5) 0.0101(2)
O9 O 0.12259(14) 0.9972(6) 0.1227(2)
O10 O 0.25332(13) 0.3664(5) 0.1355(2)
O13 O 0.19166(11) 0.5058(4) 0.0818(2)
O14 O 0.36174(12) 0.0569(6) 0.2394(2)
C1 C 0.33818(18) 0.1068(8) 0.2075(4)
O16 O 0.2006(2) 0.6096(7) 0.0038(3)
H3 H 0.0928 0.9216 0.0307
C5 C 0.3239(2) 0.0437(8) 0.1638(4)
C7 C 0.47145(17) 0.0322(7) 0.1527(3)
N4 N 0.18542(13) 0.2584(5) 0.0157(2)
C9 C 0.3279(2) 0.2217(9) 0.2231(4)
H5 H 0.3375 0.2655 0.2526
C16 C 0.2991(2) 0.0949(8) 0.1348(4)
H11 H 0.2897 0.0520 0.1048
C17 C 0.44157(16) 0.0354(6) 0.1743(3)
C22 C 0.26235(17) 0.2629(7) 0.1202(3)
C23 C 0.15763(17) 0.2877(7) 0.0093(4)
H15 H 0.1512 0.3495 0.0324
C25 C 0.13720(19) 0.8970(8) 0.1014(4)
C27 C 0.1699(2) 0.8165(8) 0.0395(4)
H19 H 0.1808 0.8283 0.0091
C29 C 0.1536(2) 0.9131(8) 0.0580(4)
H21 H 0.1541 0.9901 0.0404
C33 C 0.39312(17) 0.1121(8) 0.1655(4)
H24 H 0.3788 0.1576 0.1457
C34 C 0.42003(19) 0.1061(8) 0.1473(4)
H25 H 0.4239 0.1515 0.1156
C35 C 0.1699(2) 0.7006(7) 0.0667(4)
C41 C 0.38788(16) 0.0479(7) 0.2148(3)
C44 C 0.1364(2) 0.7846(8) 0.1277(4)
H34 H 0.1248 0.7735 0.1571
C47 C 0.28890(17) 0.2076(7) 0.1509(4)
C48 C 0.15269(19) 0.6878(7) 0.1107(4)
H37 H 0.1521 0.6119 0.1292
C50 C 0.30364(19) 0.2714(8) 0.1953(4)
H38 H 0.2970 0.3483 0.2062
C51 C 0.1891(2) 0.5985(8) 0.0490(4)
O17 O 0.48184(11) 0.3151(4) 0.0431(2)
N5 N 0.19394(14) 0.2669(5) 0.1417(3)
N6 N 0.53741(14) 0.1889(5) 0.0049(3)
O18 O 0.47147(12) 0.1399(4) 0.0002(2)
N7 N 0.53403(14) 0.2715(5) 0.1289(2)
O5 O 0.08130(12) 0.0004(4) 0.7428(2)
O12 O 0.12621(11) 0.0856(4) 0.9002(2)
C2 C 0.13767(16) 0.2328(7) 0.9707(3)
H1 H 0.1188 0.2595 0.9675
C3 C 0.17503(15) 0.1041(6) 0.9432(3)
H2 H 0.1817 0.0404 0.9215
N3 N 0.03403(14) 0.2285(5) 0.6289(2)
C13 C 0.10059(16) 0.0524(7) 0.7873(3)
H9 H 0.0905 0.1097 0.8100
H10 H 0.1160 0.0968 0.7714
C14 C 0.14662(14) 0.1359(6) 0.9367(3)
C15 C 0.06639(17) 0.0799(7) 0.7069(3)
C20 C 0.06741(19) 0.2074(7) 0.7117(4)
H14 H 0.0786 0.2462 0.7406
H17 H 0.1527 0.0133 0.8472
C26 C 0.05094(18) 0.2755(7) 0.6713(3)
H18 H 0.0518 0.3616 0.6742
C40 C 0.19402(17) 0.1663(6) 0.9822(3)
H30 H 0.2132 0.1436 0.9852
C43 C 0.0490(2) 0.0280(7) 0.6643(4)
C53 C 0.0336(2) 0.1043(7) 0.6260(4)
H40 H 0.0223 0.0673 0.5966
H43 H 0.238604 0.372041 0.978297
H44 H 0.227588 0.507781 0.996434
O6 O 0.52788(11) 0.9966(4) 0.0928(2)
O7 O 0.48789(13) 0.9439(5) 0.1640(3)
N2 N 0.03741(14) 0.6889(5) 0.0049(3)
H4 H 0.3305 0.9665 0.1532
C18 C 0.06480(19) 0.6538(7) 0.0102(4)
H12 H 0.0708 0.6061 0.0416
C19 C 0.40900(17) 0.9770(7) 0.2423(3)
H13 H 0.4053 0.9340 0.2748
C32 C 0.43603(17) 0.9687(7) 0.2221(3)
H23 H 0.4501 0.9191 0.2405
Co4 Co 0.00838(3) 0.66544(9) 0.06975(5)
H41 H 0.514386 0.927488 0.0829691
H42 H 0.545256 0.985902 0.0722999
O8 O 0.09639(12) 0.7945(5) 0.8919(2)
O11 O 0.14676(12) 0.9094(4) 0.7576(2)
N1 N 0.19394(14) 0.7331(5) 0.6417(3)
C6 C 0.11257(15) 0.9425(6) 0.8237(3)
C11 C 0.0851(2) 0.6828(7) 0.9727(4)
H7 H 0.1038 0.6537 0.9780
C12 C 0.1765(2) 0.6678(7) 0.6737(3)
H8 H 0.1752 0.5824 0.6682
C24 C 0.13661(17) 0.9850(7) 0.8666(3)
H16 H 0.1429 0.9163 0.8910
C28 C 0.16075(19) 0.7191(7) 0.7132(3)
H20 H 0.1493 0.6698 0.7341
C31 C 0.07581(19) 0.7586(7) 0.9262(3)
C38 C 0.1954(2) 0.8541(7) 0.6520(3)
H27 H 0.2074 0.9016 0.6314
C39 C 0.12559(16) 0.8457(6) 0.7878(3)
H28 H 0.1345 0.7805 0.8113
H29 H 0.1111 0.8089 0.7615
C42 C 0.08680(18) 0.8898(7) 0.8511(3)
H31 H 0.0772 0.9558 0.8698
H32 H 0.0733 0.8543 0.8223
H33 H 0.0476 0.9421 0.6610
C45 C 0.04703(18) 0.7919(8) 0.9183(3)
H35 H 0.0401 0.8374 0.8869
C46 C 0.18040(19) 0.9138(6) 0.6912(4)
H36 H 0.1826 0.9987 0.6971
C49 C 0.16206(17) 0.8456(6) 0.7215(3)
C52 C 0.0295(2) 0.7556(9) 0.9581(4)
H39 H 0.0104 0.7788 0.9525
Co3 Co 0.21547(3) 0.65208(9) 0.57485(5)
O2_2 O 0.48184(11) 0.6849(4) 0.5431(2)
O9_2 O 0.37741(14) 0.4972(6) 0.3773(2)
O13_2 O 0.30834(11) 0.0058(4) 0.4182(2)
O15_2 O 0.47147(12) 0.8601(4) 0.5002(2)
O16_2 O 0.2994(2) 0.1096(7) 0.4962(3)
C4_2 C 0.41191(19) 0.5020(7) 0.4593(4)
H3_2 H 0.4072 0.4216 0.4693
C8_2 C 0.39752(18) 0.5590(7) 0.4133(3)
C10_2 C 0.40351(19) 0.6794(8) 0.3991(4)
H6_2 H 0.3935 0.7175 0.3684
C21_2 C 0.46548(17) 0.7474(7) 0.5087(3)
C25_2 C 0.36280(19) 0.3970(8) 0.3986(4)
C27_2 C 0.3301(2) 0.3165(8) 0.4605(4)
H19_2 H 0.3192 0.3283 0.4909
C29_2 C 0.3464(2) 0.4131(8) 0.4420(4)
H21_2 H 0.3459 0.4901 0.4596
C30_2 C 0.43354(19) 0.5659(7) 0.4904(4)
H22_2 H 0.4433 0.5275 0.5214
C35_2 C 0.3301(2) 0.2006(7) 0.4333(4)
C36_2 C 0.42478(17) 0.7431(7) 0.4314(3)
H26_2 H 0.4283 0.8257 0.4229
C37_2 C 0.44099(17) 0.6868(6) 0.4761(3)
C44_2 C 0.3636(2) 0.2846(8) 0.3723(4)
H34_2 H 0.3752 0.2735 0.3429
C48_2 C 0.34731(19) 0.1878(7) 0.3893(4)
H37_2 H 0.3479 0.1119 0.3708
C51_2 C 0.3109(2) 0.0985(8) 0.4510(4)
Co5_2 Co 0.50838(3) 0.83456(9) 0.56975(5)
H44_2 H 0.272412 0.00778058 0.503566
O6_2 O 0.02788(11) 0.4966(4) 0.0928(2)
N7_2 N 0.03403(14) 0.7715(5) 0.1289(2)
H41_2 H 0.0143864 0.427488 0.0829691
H42_2 H 0.0452557 0.485902 0.0722999
Co1_2 Co 0.71547(3) 0.84792(9) 0.07485(5)
O1_2 O 0.74810(11) 0.7021(5) 0.0811(2)
O3_2 O 0.97738(13) 0.6274(5) 0.1231(3)
O4_2 O 0.73775(11) 0.9313(5) 0.0101(2)
O7_2 O 0.98789(13) 0.4439(5) 0.1640(3)
O10_2 O 0.75332(13) 0.8664(5) 0.1355(2)
O14_2 O 0.86174(12) 0.5569(6) 0.2394(2)
C1_2 C 0.83818(18) 0.6068(8) 0.2075(4)
C5_2 C 0.8239(2) 0.5437(8) 0.1638(4)
H4_2 H 0.8305 0.4665 0.1532
C7_2 C 0.97145(17) 0.5322(7) 0.1527(3)
N4_2 N 0.68542(13) 0.7584(5) 0.0157(2)
C9_2 C 0.8279(2) 0.7217(9) 0.2231(4)
H5_2 H 0.8375 0.7655 0.2526
C16_2 C 0.7991(2) 0.5949(8) 0.1348(4)
H11_2 H 0.7897 0.5520 0.1048
C17_2 C 0.94157(16) 0.5354(6) 0.1743(3)
C18_2 C 0.56480(19) 0.1538(7) 0.0102(4)
H12_2 H 0.5708 0.1061 0.0416
C19_2 C 0.90900(17) 0.4770(7) 0.2423(3)
H13_2 H 0.9053 0.4340 0.2748
C22_2 C 0.76235(17) 0.7629(7) 0.1202(3)
C23_2 C 0.65763(17) 0.7877(7) 0.0093(4)
H15_2 H 0.6512 0.8495 0.0324
C32_2 C 0.93603(17) 0.4687(7) 0.2221(3)
H23_2 H 0.9501 0.4191 0.2405
C33_2 C 0.89312(17) 0.6121(8) 0.1655(4)
H24_2 H 0.8788 0.6576 0.1457
C34_2 C 0.92003(19) 0.6061(8) 0.1473(4)
H25_2 H 0.9239 0.6515 0.1156
C41_2 C 0.88788(16) 0.5479(7) 0.2148(3)
C47_2 C 0.78890(17) 0.7076(7) 0.1509(4)
C50_2 C 0.80364(19) 0.7714(8) 0.1953(4)
H38_2 H 0.7970 0.8483 0.2062
O17_2 O 0.98184(11) 0.8151(4) 0.0431(2)
N5_2 N 0.69394(14) 0.7669(5) 0.1417(3)
O18_2 O 0.97147(12) 0.6399(4) 0.0002(2)
O5_2 O 0.58130(12) 0.5004(4) 0.7428(2)
O8_2 O 0.59639(12) 0.2945(5) 0.8919(2)
O11_2 O 0.64676(12) 0.4094(4) 0.7576(2)
N1_2 N 0.69394(14) 0.2331(5) 0.6417(3)
O12_2 O 0.62621(11) 0.5856(4) 0.9002(2)
C2_2 C 0.63767(16) 0.7328(7) 0.9707(3)
H1_2 H 0.6188 0.7595 0.9675
C3_2 C 0.67503(15) 0.6041(6) 0.9432(3)
H2_2 H 0.6817 0.5404 0.9215
N3_2 N 0.53403(14) 0.7285(5) 0.6289(2)
C6_2 C 0.61257(15) 0.4425(6) 0.8237(3)
C11_2 C 0.5851(2) 0.1828(7) 0.9727(4)
H7_2 H 0.6038 0.1537 0.9780
C12_2 C 0.6765(2) 0.1678(7) 0.6737(3)
H8_2 H 0.6752 0.0824 0.6682
C13_2 C 0.60059(16) 0.5524(7) 0.7873(3)
H9_2 H 0.5905 0.6097 0.8100
H10_2 H 0.6160 0.5968 0.7714
C14_2 C 0.64662(14) 0.6359(6) 0.9367(3)
C15_2 C 0.56639(17) 0.5799(7) 0.7069(3)
C20_2 C 0.56741(19) 0.7074(7) 0.7117(4)
H14_2 H 0.5786 0.7462 0.7406
C24_2 C 0.63661(17) 0.4850(7) 0.8666(3)
H16_2 H 0.6429 0.4163 0.8910
H17_2 H 0.6527 0.5133 0.8472
C26_2 C 0.55094(18) 0.7755(7) 0.6713(3)
H18_2 H 0.5518 0.8616 0.6742
C28_2 C 0.66075(19) 0.2191(7) 0.7132(3)
H20_2 H 0.6493 0.1698 0.7341
C31_2 C 0.57581(19) 0.2586(7) 0.9262(3)
C38_2 C 0.6954(2) 0.3541(7) 0.6520(3)
H27_2 H 0.7074 0.4016 0.6314
C39_2 C 0.62559(16) 0.3457(6) 0.7878(3)
H28_2 H 0.6345 0.2805 0.8113
H29_2 H 0.6111 0.3089 0.7615
C40_2 C 0.69402(17) 0.6663(6) 0.9822(3)
H30_2 H 0.7132 0.6436 0.9852
C42_2 C 0.58680(18) 0.3898(7) 0.8511(3)
H31_2 H 0.5772 0.4558 0.8698
H32_2 H 0.5733 0.3543 0.8223
C43_2 C 0.5490(2) 0.5280(7) 0.6643(4)
H33_2 H 0.5476 0.4421 0.6610
C45_2 C 0.54703(18) 0.2919(8) 0.9183(3)
H35_2 H 0.5401 0.3374 0.8869
C46_2 C 0.68040(19) 0.4138(6) 0.6912(4)
H36_2 H 0.6826 0.4987 0.6971
C49_2 C 0.66206(17) 0.3456(6) 0.7215(3)
C52_2 C 0.5295(2) 0.2556(9) 0.9581(4)
H39_2 H 0.5104 0.2788 0.9525
C53_2 C 0.5336(2) 0.6043(7) 0.6260(4)
H40_2 H 0.5223 0.5673 0.5966
Co3_2 Co 0.71547(3) 0.15208(9) 0.57485(5)
H43_2 H 0.738604 0.872041 0.978297
O6_3 O 0.52788(11) 0.0034(4) 0.5928(2)
O7_3 O 0.48789(13) 0.0561(5) 0.6640(3)
O8_3 O 0.09639(12) 0.2055(5) 0.3919(2)
O11_3 O 0.14676(12) 0.0906(4) 0.2576(2)
N2_2 N 0.03741(14) 0.3111(5) 0.5049(3)
H4_3 H 0.3305 0.0335 0.6532
C6_3 C 0.11257(15) 0.0575(6) 0.3237(3)
C11_3 C 0.0851(2) 0.3172(7) 0.4727(4)
H7_3 H 0.1038 0.3463 0.4780
C12_3 C 0.1765(2) 0.3322(7) 0.1737(3)
H8_3 H 0.1752 0.4176 0.1682
C18_3 C 0.06480(19) 0.3462(7) 0.5102(4)
H12_3 H 0.0708 0.3939 0.5416
C19_3 C 0.40900(17) 0.0230(7) 0.7423(3)
H13_3 H 0.4053 0.0660 0.7748
C24_3 C 0.13661(17) 0.0150(7) 0.3666(3)
H16_3 H 0.1429 0.0837 0.3910
C28_3 C 0.16075(19) 0.2809(7) 0.2132(3)
H20_3 H 0.1493 0.3302 0.2341
C31_3 C 0.07581(19) 0.2414(7) 0.4262(3)
C32_3 C 0.43603(17) 0.0313(7) 0.7221(3)
H23_3 H 0.4501 0.0809 0.7405
C38_3 C 0.1954(2) 0.1459(7) 0.1520(3)
H27_3 H 0.2074 0.0984 0.1314
C39_3 C 0.12559(16) 0.1543(6) 0.2878(3)
H28_3 H 0.1345 0.2195 0.3113
H29_3 H 0.1111 0.1911 0.2615
C42_3 C 0.08680(18) 0.1102(7) 0.3511(3)
H31_3 H 0.0772 0.0442 0.3698
H32_3 H 0.0733 0.1457 0.3223
H33_3 H 0.0476 0.0579 0.1610
C45_3 C 0.04703(18) 0.2081(8) 0.4183(3)
H35_3 H 0.0401 0.1626 0.3869
C46_3 C 0.18040(19) 0.0862(6) 0.1912(4)
H36_3 H 0.1826 0.0013 0.1971
C49_3 C 0.16206(17) 0.1544(6) 0.2215(3)
C52_3 C 0.0295(2) 0.2444(9) 0.4581(4)
H39_3 H 0.0104 0.2212 0.4525
H41_3 H 0.514386 0.0725115 0.582969
H42_3 H 0.545256 0.0140981 0.5723
O1_3 O 0.24810(11) 0.7979(5) 0.5811(2)
O3_3 O 0.47738(13) 0.8726(5) 0.6231(3)
O4_3 O 0.23775(11) 0.5687(5) 0.5101(2)
O5_3 O 0.08130(12) 0.9996(4) 0.2428(2)
O9_3 O 0.12259(14) 0.0028(6) 0.6227(2)
O10_3 O 0.25332(13) 0.6336(5) 0.6355(2)
O12_3 O 0.12621(11) 0.9144(4) 0.4002(2)
O13_3 O 0.19166(11) 0.4942(4) 0.5818(2)
O14_3 O 0.36174(12) 0.9431(6) 0.7394(2)
C1_3 C 0.33818(18) 0.8932(8) 0.7075(4)
C2_3 C 0.13767(16) 0.7672(7) 0.4707(3)
H1_3 H 0.1188 0.7405 0.4675
O16_3 O 0.2006(2) 0.3904(7) 0.5038(3)
C3_3 C 0.17503(15) 0.8959(6) 0.4432(3)
H2_3 H 0.1817 0.9596 0.4215
H3_3 H 0.0928 0.0784 0.5307
C5_3 C 0.3239(2) 0.9563(8) 0.6638(4)
C7_3 C 0.47145(17) 0.9678(7) 0.6527(3)
N4_3 N 0.18542(13) 0.7416(5) 0.5157(2)
C9_3 C 0.3279(2) 0.7783(9) 0.7231(4)
H5_3 H 0.3375 0.7345 0.7526
C13_3 C 0.10059(16) 0.9476(7) 0.2873(3)
H9_3 H 0.0905 0.8903 0.3100
H10_3 H 0.1160 0.9032 0.2714
C14_3 C 0.14662(14) 0.8641(6) 0.4367(3)
C15_3 C 0.06639(17) 0.9201(7) 0.2069(3)
C16_3 C 0.2991(2) 0.9051(8) 0.6348(4)
H11_3 H 0.2897 0.9480 0.6048
C17_3 C 0.44157(16) 0.9646(6) 0.6743(3)
C20_3 C 0.06741(19) 0.7926(7) 0.2117(4)
H14_3 H 0.0786 0.7538 0.2406
C22_3 C 0.26235(17) 0.7371(7) 0.6202(3)
C23_3 C 0.15763(17) 0.7123(7) 0.5093(4)
H15_3 H 0.1512 0.6505 0.5324
H17_3 H 0.1527 0.9867 0.3472
C25_3 C 0.13720(19) 0.1030(8) 0.6014(4)
C26_3 C 0.05094(18) 0.7245(7) 0.1713(3)
H18_3 H 0.0518 0.6384 0.1742
C27_3 C 0.1699(2) 0.1835(8) 0.5395(4)
H19_3 H 0.1808 0.1717 0.5091
C29_3 C 0.1536(2) 0.0869(8) 0.5580(4)
H21_3 H 0.1541 0.0099 0.5404
C33_3 C 0.39312(17) 0.8879(8) 0.6655(4)
H24_3 H 0.3788 0.8424 0.6457
C34_3 C 0.42003(19) 0.8939(8) 0.6473(4)
H25_3 H 0.4239 0.8485 0.6156
C35_3 C 0.1699(2) 0.2994(7) 0.5667(4)
C40_3 C 0.19402(17) 0.8337(6) 0.4822(3)
H30_3 H 0.2132 0.8564 0.4852
C41_3 C 0.38788(16) 0.9521(7) 0.7148(3)
C43_3 C 0.0490(2) 0.9720(7) 0.1643(4)
C44_3 C 0.1364(2) 0.2154(8) 0.6277(4)
H34_3 H 0.1248 0.2265 0.6571
C47_3 C 0.28890(17) 0.7924(7) 0.6509(4)
C48_3 C 0.15269(19) 0.3122(7) 0.6107(4)
H37_3 H 0.1521 0.3881 0.6292
C50_3 C 0.30364(19) 0.7286(8) 0.6953(4)
H38_3 H 0.2970 0.6517 0.7062
C51_3 C 0.1891(2) 0.4015(8) 0.5490(4)
C53_3 C 0.0336(2) 0.8957(7) 0.1260(4)
H40_3 H 0.0223 0.9327 0.0966
N6_2 N 0.53741(14) 0.8111(5) 0.5049(3)
H43_3 H 0.238604 0.627959 0.478297
H44_3 H 0.227588 0.492219 0.496434
C21_3 C 0.96548(17) 0.7526(7) 0.0087(3)
H22_3 H 0.9433 0.9725 0.0214
O6_4 O 0.02788(11) 0.5034(4) 0.5928(2)
H41_4 H 0.0143864 0.572512 0.582969
H42_4 H 0.0452557 0.514098 0.5723
O1_4 O 0.74810(11) 0.2979(5) 0.5811(2)
O3_4 O 0.97738(13) 0.3726(5) 0.6231(3)
O4_4 O 0.73775(11) 0.0687(5) 0.5101(2)
O5_4 O 0.58130(12) 0.4996(4) 0.2428(2)
O7_4 O 0.98789(13) 0.5561(5) 0.6640(3)
O8_4 O 0.59639(12) 0.7055(5) 0.3919(2)
O10_4 O 0.75332(13) 0.1336(5) 0.6355(2)
O11_4 O 0.64676(12) 0.5906(4) 0.2576(2)
O12_4 O 0.62621(11) 0.4144(4) 0.4002(2)
O14_4 O 0.86174(12) 0.4431(6) 0.7394(2)
C1_4 C 0.83818(18) 0.3932(8) 0.7075(4)
C2_4 C 0.63767(16) 0.2672(7) 0.4707(3)
H1_4 H 0.6188 0.2405 0.4675
C3_4 C 0.67503(15) 0.3959(6) 0.4432(3)
H2_4 H 0.6817 0.4596 0.4215
C5_4 C 0.8239(2) 0.4563(8) 0.6638(4)
H4_4 H 0.8305 0.5335 0.6532
C6_4 C 0.61257(15) 0.5575(6) 0.3237(3)
C7_4 C 0.97145(17) 0.4678(7) 0.6527(3)
N4_4 N 0.68542(13) 0.2416(5) 0.5157(2)
C9_4 C 0.8279(2) 0.2783(9) 0.7231(4)
H5_4 H 0.8375 0.2345 0.7526
C11_4 C 0.5851(2) 0.8172(7) 0.4727(4)
H7_4 H 0.6038 0.8463 0.4780
C12_4 C 0.6765(2) 0.8322(7) 0.1737(3)
H8_4 H 0.6752 0.9176 0.1682
C13_4 C 0.60059(16) 0.4476(7) 0.2873(3)
H9_4 H 0.5905 0.3903 0.3100
H10_4 H 0.6160 0.4032 0.2714
C14_4 C 0.64662(14) 0.3641(6) 0.4367(3)
C15_4 C 0.56639(17) 0.4201(7) 0.2069(3)
C16_4 C 0.7991(2) 0.4051(8) 0.6348(4)
H11_4 H 0.7897 0.4480 0.6048
C17_4 C 0.94157(16) 0.4646(6) 0.6743(3)
C18_4 C 0.56480(19) 0.8462(7) 0.5102(4)
H12_4 H 0.5708 0.8939 0.5416
C19_4 C 0.90900(17) 0.5230(7) 0.7423(3)
H13_4 H 0.9053 0.5660 0.7748
C20_4 C 0.56741(19) 0.2926(7) 0.2117(4)
H14_4 H 0.5786 0.2538 0.2406
C22_4 C 0.76235(17) 0.2371(7) 0.6202(3)
C23_4 C 0.65763(17) 0.2123(7) 0.5093(4)
H15_4 H 0.6512 0.1505 0.5324
C24_4 C 0.63661(17) 0.5150(7) 0.3666(3)
H16_4 H 0.6429 0.5837 0.3910
H17_4 H 0.6527 0.4867 0.3472
C26_4 C 0.55094(18) 0.2245(7) 0.1713(3)
H18_4 H 0.5518 0.1384 0.1742
C28_4 C 0.66075(19) 0.7809(7) 0.2132(3)
H20_4 H 0.6493 0.8302 0.2341
C31_4 C 0.57581(19) 0.7414(7) 0.4262(3)
C32_4 C 0.93603(17) 0.5313(7) 0.7221(3)
H23_4 H 0.9501 0.5809 0.7405
C33_4 C 0.89312(17) 0.3879(8) 0.6655(4)
H24_4 H 0.8788 0.3424 0.6457
C34_4 C 0.92003(19) 0.3939(8) 0.6473(4)
H25_4 H 0.9239 0.3485 0.6156
C38_4 C 0.6954(2) 0.6459(7) 0.1520(3)
H27_4 H 0.7074 0.5984 0.1314
C39_4 C 0.62559(16) 0.6543(6) 0.2878(3)
H28_4 H 0.6345 0.7195 0.3113
H29_4 H 0.6111 0.6911 0.2615
C40_4 C 0.69402(17) 0.3337(6) 0.4822(3)
H30_4 H 0.7132 0.3564 0.4852
C41_4 C 0.88788(16) 0.4521(7) 0.7148(3)
C42_4 C 0.58680(18) 0.6102(7) 0.3511(3)
H31_4 H 0.5772 0.5442 0.3698
H32_4 H 0.5733 0.6457 0.3223
C43_4 C 0.5490(2) 0.4720(7) 0.1643(4)
H33_4 H 0.5476 0.5579 0.1610
C45_4 C 0.54703(18) 0.7081(8) 0.4183(3)
H35_4 H 0.5401 0.6626 0.3869
C46_4 C 0.68040(19) 0.5862(6) 0.1912(4)
H36_4 H 0.6826 0.5013 0.1971
C47_4 C 0.78890(17) 0.2924(7) 0.6509(4)
C49_4 C 0.66206(17) 0.6544(6) 0.2215(3)
C50_4 C 0.80364(19) 0.2286(8) 0.6953(4)
H38_4 H 0.7970 0.1517 0.7062
C52_4 C 0.5295(2) 0.7444(9) 0.4581(4)
H39_4 H 0.5104 0.7212 0.4525
C53_4 C 0.5336(2) 0.3957(7) 0.1260(4)
H40_4 H 0.5223 0.4327 0.0966
H43_4 H 0.738604 0.127959 0.478297
C21_4 C 0.46548(17) 0.2526(7) 0.0087(3)
H22_4 H 0.4433 0.4725 0.0214
H44_4 H 0.272412 0.992219 0.00356634
Co1_3 Co 0.78453(3) 0.34792(9) 0.42515(5)
Co2_2 Co 0.49162(3) 0.16544(9) 0.43025(5)
O1_5 O 0.75190(11) 0.2021(5) 0.4189(2)
O3_5 O 0.52262(13) 0.1274(5) 0.3769(3)
O4_5 O 0.76225(11) 0.4313(5) 0.4899(2)
O5_5 O 0.91870(12) 0.0004(4) 0.7572(2)
O9_4 O 0.87741(14) 0.9972(6) 0.3773(2)
O10_5 O 0.74668(13) 0.3664(5) 0.3645(2)
O12_5 O 0.87379(11) 0.0856(4) 0.5998(2)
O13_4 O 0.80834(11) 0.5058(4) 0.4182(2)
O14_5 O 0.63826(12) 0.0569(6) 0.2606(2)
C1_5 C 0.66182(18) 0.1068(8) 0.2925(4)
C2_5 C 0.86233(16) 0.2328(7) 0.5293(3)
H1_5 H 0.8812 0.2595 0.5325
O16_4 O 0.7994(2) 0.6096(7) 0.4962(3)
C3_5 C 0.82497(15) 0.1041(6) 0.5568(3)
H2_5 H 0.8183 0.0404 0.5785
H3_4 H 0.9072 0.9216 0.4693
C5_5 C 0.6761(2) 0.0437(8) 0.3362(4)
N3_3 N 0.96597(14) 0.2285(5) 0.8711(2)
C7_5 C 0.52855(17) 0.0322(7) 0.3473(3)
N4_5 N 0.81458(13) 0.2584(5) 0.4843(2)
C9_5 C 0.6721(2) 0.2217(9) 0.2769(4)
H5_5 H 0.6625 0.2655 0.2474
C13_5 C 0.89941(16) 0.0524(7) 0.7127(3)
H9_5 H 0.9095 0.1097 0.6900
H10_5 H 0.8840 0.0968 0.7286
C14_5 C 0.85338(14) 0.1359(6) 0.5633(3)
C15_5 C 0.93361(17) 0.0799(7) 0.7931(3)
C16_5 C 0.7009(2) 0.0949(8) 0.3652(4)
H11_5 H 0.7103 0.0520 0.3952
C17_5 C 0.55843(16) 0.0354(6) 0.3257(3)
C20_5 C 0.93259(19) 0.2074(7) 0.7883(4)
H14_5 H 0.9214 0.2462 0.7594
C22_5 C 0.73765(17) 0.2629(7) 0.3798(3)
C23_5 C 0.84237(17) 0.2877(7) 0.4907(4)
H15_5 H 0.8488 0.3495 0.4676
H17_5 H 0.8473 0.0133 0.6528
C25_4 C 0.86280(19) 0.8970(8) 0.3986(4)
C26_5 C 0.94906(18) 0.2755(7) 0.8287(3)
H18_5 H 0.9482 0.3616 0.8258
C27_4 C 0.8301(2) 0.8165(8) 0.4605(4)
H19_4 H 0.8192 0.8283 0.4909
C29_4 C 0.8464(2) 0.9131(8) 0.4420(4)
H21_4 H 0.8459 0.9901 0.4596
C33_5 C 0.60688(17) 0.1121(8) 0.3345(4)
H24_5 H 0.6212 0.1576 0.3543
C34_5 C 0.57997(19) 0.1061(8) 0.3527(4)
H25_5 H 0.5761 0.1515 0.3844
C35_4 C 0.8301(2) 0.7006(7) 0.4333(4)
C40_5 C 0.80598(17) 0.1663(6) 0.5178(3)
H30_5 H 0.7868 0.1436 0.5148
C41_5 C 0.61212(16) 0.0479(7) 0.2852(3)
C43_5 C 0.9510(2) 0.0280(7) 0.8357(4)
C44_4 C 0.8636(2) 0.7846(8) 0.3723(4)
H34_4 H 0.8752 0.7735 0.3429
C47_5 C 0.71110(17) 0.2076(7) 0.3491(4)
C48_4 C 0.84731(19) 0.6878(7) 0.3893(4)
H37_4 H 0.8479 0.6119 0.3708
C50_5 C 0.69636(19) 0.2714(8) 0.3047(4)
H38_5 H 0.7030 0.3483 0.2938
C51_4 C 0.8109(2) 0.5985(8) 0.4510(4)
C53_5 C 0.9664(2) 0.1043(7) 0.8740(4)
H40_5 H 0.9777 0.0673 0.9034
Co6 Co 0.99162(3) 0.33456(9) 0.93025(5)
O17_3 O 0.51816(11) 0.3151(4) 0.4569(2)
N5_3 N 0.80606(14) 0.2669(5) 0.3583(3)
N6_3 N 0.46259(14) 0.1889(5) 0.4951(3)
O18_3 O 0.52853(12) 0.1399(4) 0.4998(2)
N7_3 N 0.46597(14) 0.2715(5) 0.3711(2)
H43_5 H 0.761396 0.372041 0.521703
H44_5 H 0.772412 0.507781 0.503566
O6_5 O 0.47212(11) 0.9966(4) 0.4072(2)
O7_5 O 0.51211(13) 0.9439(5) 0.3360(3)
O8_5 O 0.90361(12) 0.7945(5) 0.6081(2)
O11_5 O 0.85324(12) 0.9094(4) 0.7424(2)
N1_3 N 0.80606(14) 0.7331(5) 0.8583(3)
N2_3 N 0.96259(14) 0.6889(5) 0.4951(3)
H4_5 H 0.6695 0.9665 0.3468
C6_5 C 0.88743(15) 0.9425(6) 0.6763(3)
C11_5 C 0.9149(2) 0.6828(7) 0.5273(4)
H7_5 H 0.8962 0.6537 0.5220
C12_5 C 0.8235(2) 0.6678(7) 0.8263(3)
H8_5 H 0.8248 0.5824 0.8318
C18_5 C 0.93520(19) 0.6538(7) 0.4898(4)
H12_5 H 0.9292 0.6061 0.4584
C19_5 C 0.59100(17) 0.9770(7) 0.2577(3)
H13_5 H 0.5947 0.9340 0.2252
C24_5 C 0.86339(17) 0.9850(7) 0.6334(3)
H16_5 H 0.8571 0.9163 0.6090
C28_5 C 0.83925(19) 0.7191(7) 0.7868(3)
H20_5 H 0.8507 0.6698 0.7659
C31_5 C 0.92419(19) 0.7586(7) 0.5738(3)
C32_5 C 0.56397(17) 0.9687(7) 0.2779(3)
H23_5 H 0.5499 0.9191 0.2595
C38_5 C 0.8046(2) 0.8541(7) 0.8480(3)
H27_5 H 0.7926 0.9016 0.8686
C39_5 C 0.87441(16) 0.8457(6) 0.7122(3)
H28_5 H 0.8655 0.7805 0.6887
H29_5 H 0.8889 0.8089 0.7385
C42_5 C 0.91320(18) 0.8898(7) 0.6489(3)
H31_5 H 0.9228 0.9558 0.6302
H32_5 H 0.9267 0.8543 0.6777
H33_5 H 0.9524 0.9421 0.8390
C45_5 C 0.95297(18) 0.7919(8) 0.5817(3)
H35_5 H 0.9599 0.8374 0.6131
C46_5 C 0.81960(19) 0.9138(6) 0.8088(4)
H36_5 H 0.8174 0.9987 0.8029
C49_5 C 0.83794(17) 0.8456(6) 0.7785(3)
C52_5 C 0.9705(2) 0.7556(9) 0.5419(4)
H39_5 H 0.9896 0.7788 0.5475
Co3_3 Co 0.78453(3) 0.65208(9) 0.92515(5)
Co4_2 Co 0.99162(3) 0.66544(9) 0.43025(5)
H41_5 H 0.485614 0.927488 0.417031
H42_5 H 0.454744 0.985902 0.4277
O2_3 O 0.01816(11) 0.1849(4) 0.9569(2)
O15_3 O 0.02853(12) 0.3601(4) 0.9998(2)
C21_5 C 0.03452(17) 0.2474(7) 0.9913(3)
H22_5 H 0.0567 0.0275 0.9786
Co1_4 Co 0.28453(3) 0.84792(9) 0.42515(5)
O1_6 O 0.25190(11) 0.7021(5) 0.4189(2)
O3_6 O 0.02262(13) 0.6274(5) 0.3769(3)
O4_6 O 0.26225(11) 0.9313(5) 0.4899(2)
O5_6 O 0.41870(12) 0.5004(4) 0.7572(2)
O7_6 O 0.01211(13) 0.4439(5) 0.3360(3)
O8_6 O 0.40361(12) 0.2945(5) 0.6081(2)
O10_6 O 0.24668(13) 0.8664(5) 0.3645(2)
O11_6 O 0.35324(12) 0.4094(4) 0.7424(2)
N1_4 N 0.30606(14) 0.2331(5) 0.8583(3)
O12_6 O 0.37379(11) 0.5856(4) 0.5998(2)
O14_6 O 0.13826(12) 0.5569(6) 0.2606(2)
C1_6 C 0.16182(18) 0.6068(8) 0.2925(4)
C2_6 C 0.36233(16) 0.7328(7) 0.5293(3)
H1_6 H 0.3812 0.7595 0.5325
C3_6 C 0.32497(15) 0.6041(6) 0.5568(3)
H2_6 H 0.3183 0.5404 0.5785
C5_6 C 0.1761(2) 0.5437(8) 0.3362(4)
H4_6 H 0.1695 0.4665 0.3468
N3_4 N 0.46597(14) 0.7285(5) 0.8711(2)
C6_6 C 0.38743(15) 0.4425(6) 0.6763(3)
C7_6 C 0.02855(17) 0.5322(7) 0.3473(3)
N4_6 N 0.31458(13) 0.7584(5) 0.4843(2)
C9_6 C 0.1721(2) 0.7217(9) 0.2769(4)
H5_6 H 0.1625 0.7655 0.2474
C11_6 C 0.4149(2) 0.1828(7) 0.5273(4)
H7_6 H 0.3962 0.1537 0.5220
C12_6 C 0.3235(2) 0.1678(7) 0.8263(3)
H8_6 H 0.3248 0.0824 0.8318
C13_6 C 0.39941(16) 0.5524(7) 0.7127(3)
H9_6 H 0.4095 0.6097 0.6900
H10_6 H 0.3840 0.5968 0.7286
C14_6 C 0.35338(14) 0.6359(6) 0.5633(3)
C15_6 C 0.43361(17) 0.5799(7) 0.7931(3)
C16_6 C 0.2009(2) 0.5949(8) 0.3652(4)
H11_6 H 0.2103 0.5520 0.3952
C17_6 C 0.05843(16) 0.5354(6) 0.3257(3)
C18_6 C 0.43520(19) 0.1538(7) 0.4898(4)
H12_6 H 0.4292 0.1061 0.4584
C19_6 C 0.09100(17) 0.4770(7) 0.2577(3)
H13_6 H 0.0947 0.4340 0.2252
C20_6 C 0.43259(19) 0.7074(7) 0.7883(4)
H14_6 H 0.4214 0.7462 0.7594
C22_6 C 0.23765(17) 0.7629(7) 0.3798(3)
C23_6 C 0.34237(17) 0.7877(7) 0.4907(4)
H15_6 H 0.3488 0.8495 0.4676
C24_6 C 0.36339(17) 0.4850(7) 0.6334(3)
H16_6 H 0.3571 0.4163 0.6090
H17_6 H 0.3473 0.5133 0.6528
C26_6 C 0.44906(18) 0.7755(7) 0.8287(3)
H18_6 H 0.4482 0.8616 0.8258
C28_6 C 0.33925(19) 0.2191(7) 0.7868(3)
H20_6 H 0.3507 0.1698 0.7659
C31_6 C 0.42419(19) 0.2586(7) 0.5738(3)
C32_6 C 0.06397(17) 0.4687(7) 0.2779(3)
H23_6 H 0.0499 0.4191 0.2595
C33_6 C 0.10688(17) 0.6121(8) 0.3345(4)
H24_6 H 0.1212 0.6576 0.3543
C34_6 C 0.07997(19) 0.6061(8) 0.3527(4)
H25_6 H 0.0761 0.6515 0.3844
C38_6 C 0.3046(2) 0.3541(7) 0.8480(3)
H27_6 H 0.2926 0.4016 0.8686
C39_6 C 0.37441(16) 0.3457(6) 0.7122(3)
H28_6 H 0.3655 0.2805 0.6887
H29_6 H 0.3889 0.3089 0.7385
C40_6 C 0.30598(17) 0.6663(6) 0.5178(3)
H30_6 H 0.2868 0.6436 0.5148
C41_6 C 0.11212(16) 0.5479(7) 0.2852(3)
C42_6 C 0.41320(18) 0.3898(7) 0.6489(3)
H31_6 H 0.4228 0.4558 0.6302
H32_6 H 0.4267 0.3543 0.6777
C43_6 C 0.4510(2) 0.5280(7) 0.8357(4)
H33_6 H 0.4524 0.4421 0.8390
C45_6 C 0.45297(18) 0.2919(8) 0.5817(3)
H35_6 H 0.4599 0.3374 0.6131
C46_6 C 0.31960(19) 0.4138(6) 0.8088(4)
H36_6 H 0.3174 0.4987 0.8029
C47_6 C 0.21110(17) 0.7076(7) 0.3491(4)
C49_6 C 0.33794(17) 0.3456(6) 0.7785(3)
C50_6 C 0.19636(19) 0.7714(8) 0.3047(4)
H38_6 H 0.2030 0.8483 0.2938
C52_6 C 0.4705(2) 0.2556(9) 0.5419(4)
H39_6 H 0.4896 0.2788 0.5475
C53_6 C 0.4664(2) 0.6043(7) 0.8740(4)
H40_6 H 0.4777 0.5673 0.9034
Co3_4 Co 0.28453(3) 0.15208(9) 0.92515(5)
Co6_2 Co 0.49162(3) 0.83456(9) 0.93025(5)
O17_4 O 0.01816(11) 0.8151(4) 0.4569(2)
N5_4 N 0.30606(14) 0.7669(5) 0.3583(3)
O18_4 O 0.02853(12) 0.6399(4) 0.4998(2)
H43_6 H 0.261396 0.872041 0.521703
O6_6 O 0.97212(11) 0.4966(4) 0.4072(2)
N7_4 N 0.96597(14) 0.7715(5) 0.3711(2)
H41_6 H 0.985614 0.427488 0.417031
H42_6 H 0.954744 0.485902 0.4277
O2_4 O 0.51816(11) 0.6849(4) 0.9569(2)
O15_4 O 0.52853(12) 0.8601(4) 0.9998(2)
C21_6 C 0.53452(17) 0.7474(7) 0.9913(3)
H22_6 H 0.5567 0.5275 0.9786
H44_6 H 0.727588 0.00778058 0.996434
C4_3 C 0.08809(19) 0.9980(7) 0.5407(4)
C8_3 C 0.10248(18) 0.9410(7) 0.5867(3)
C10_3 C 0.09649(19) 0.8206(8) 0.6009(4)
H6_3 H 0.1065 0.7825 0.6316
C21_7 C 0.03452(17) 0.7526(7) 0.4913(3)
C30_3 C 0.06646(19) 0.9341(7) 0.5096(4)
H22_7 H 0.0567 0.9725 0.4786
C36_3 C 0.07522(17) 0.7569(7) 0.5686(3)
H26_3 H 0.0717 0.6743 0.5771
C37_3 C 0.05901(17) 0.8132(6) 0.5239(3)
O8_7 O 0.90361(12) 0.2055(5) 0.1081(2)
O11_7 O 0.85324(12) 0.0906(4) 0.2424(2)
C6_7 C 0.88743(15) 0.0575(6) 0.1763(3)
C11_7 C 0.9149(2) 0.3172(7) 0.0273(4)
H7_7 H 0.8962 0.3463 0.0220
C12_7 C 0.8235(2) 0.3322(7) 0.3263(3)
H8_7 H 0.8248 0.4176 0.3318
C24_7 C 0.86339(17) 0.0150(7) 0.1334(3)
H16_7 H 0.8571 0.0837 0.1090
C28_7 C 0.83925(19) 0.2809(7) 0.2868(3)
H20_7 H 0.8507 0.3302 0.2659
C31_7 C 0.92419(19) 0.2414(7) 0.0738(3)
C38_7 C 0.8046(2) 0.1459(7) 0.3480(3)
H27_7 H 0.7926 0.0984 0.3686
C39_7 C 0.87441(16) 0.1543(6) 0.2122(3)
H28_7 H 0.8655 0.2195 0.1887
H29_7 H 0.8889 0.1911 0.2385
C42_7 C 0.91320(18) 0.1102(7) 0.1489(3)
H31_7 H 0.9228 0.0442 0.1302
H32_7 H 0.9267 0.1457 0.1777
H33_7 H 0.9524 0.0579 0.3390
C45_7 C 0.95297(18) 0.2081(8) 0.0817(3)
H35_7 H 0.9599 0.1626 0.1131
C46_7 C 0.81960(19) 0.0862(6) 0.3088(4)
H36_7 H 0.8174 0.0013 0.3029
C49_7 C 0.83794(17) 0.1544(6) 0.2785(3)
C52_7 C 0.9705(2) 0.2444(9) 0.0419(4)
H39_7 H 0.9896 0.2212 0.0475
O6_7 O 0.47212(11) 0.0034(4) 0.9072(2)
O7_7 O 0.51211(13) 0.0561(5) 0.8360(3)
N2_4 N 0.96259(14) 0.3111(5) 0.9951(3)
H4_7 H 0.6695 0.0335 0.8468
C18_7 C 0.93520(19) 0.3462(7) 0.9898(4)
H12_7 H 0.9292 0.3939 0.9584
C19_7 C 0.59100(17) 0.0230(7) 0.7577(3)
H13_7 H 0.5947 0.0660 0.7252
C32_7 C 0.56397(17) 0.0313(7) 0.7779(3)
H23_7 H 0.5499 0.0809 0.7595
H41_7 H 0.485614 0.0725115 0.917031
H42_7 H 0.454744 0.0140981 0.9277
O5_7 O 0.91870(12) 0.9996(4) 0.2572(2)
O12_7 O 0.87379(11) 0.9144(4) 0.0998(2)
C2_7 C 0.86233(16) 0.7672(7) 0.0293(3)
H1_7 H 0.8812 0.7405 0.0325
C3_7 C 0.82497(15) 0.8959(6) 0.0568(3)
H2_7 H 0.8183 0.9596 0.0785
C13_7 C 0.89941(16) 0.9476(7) 0.2127(3)
H9_7 H 0.9095 0.8903 0.1900
H10_7 H 0.8840 0.9032 0.2286
C14_7 C 0.85338(14) 0.8641(6) 0.0633(3)
C15_7 C 0.93361(17) 0.9201(7) 0.2931(3)
C20_7 C 0.93259(19) 0.7926(7) 0.2883(4)
H14_7 H 0.9214 0.7538 0.2594
H17_7 H 0.8473 0.9867 0.1528
C26_7 C 0.94906(18) 0.7245(7) 0.3287(3)
H18_7 H 0.9482 0.6384 0.3258
C40_7 C 0.80598(17) 0.8337(6) 0.0178(3)
H30_7 H 0.7868 0.8564 0.0148
C43_7 C 0.9510(2) 0.9720(7) 0.3357(4)
C53_7 C 0.9664(2) 0.8957(7) 0.3740(4)
H40_7 H 0.9777 0.9327 0.4034
H43_7 H 0.761396 0.627959 0.021703
H44_7 H 0.772412 0.492219 0.00356634
O1_7 O 0.75190(11) 0.7979(5) 0.9189(2)
O3_7 O 0.52262(13) 0.8726(5) 0.8769(3)
O4_7 O 0.76225(11) 0.5687(5) 0.9899(2)
O9_5 O 0.87741(14) 0.0028(6) 0.8773(2)
O10_7 O 0.74668(13) 0.6336(5) 0.8645(2)
O13_5 O 0.80834(11) 0.4942(4) 0.9182(2)
O14_7 O 0.63826(12) 0.9431(6) 0.7606(2)
C1_7 C 0.66182(18) 0.8932(8) 0.7925(4)
O16_5 O 0.7994(2) 0.3904(7) 0.9962(3)
H3_5 H 0.9072 0.0784 0.9693
C5_7 C 0.6761(2) 0.9563(8) 0.8362(4)
C7_7 C 0.52855(17) 0.9678(7) 0.8473(3)
N4_7 N 0.81458(13) 0.7416(5) 0.9843(2)
C9_7 C 0.6721(2) 0.7783(9) 0.7769(4)
H5_7 H 0.6625 0.7345 0.7474
C16_7 C 0.7009(2) 0.9051(8) 0.8652(4)
H11_7 H 0.7103 0.9480 0.8952
C17_7 C 0.55843(16) 0.9646(6) 0.8257(3)
C22_7 C 0.73765(17) 0.7371(7) 0.8798(3)
C23_7 C 0.84237(17) 0.7123(7) 0.9907(4)
H15_7 H 0.8488 0.6505 0.9676
C25_5 C 0.86280(19) 0.1030(8) 0.8986(4)
C27_5 C 0.8301(2) 0.1835(8) 0.9605(4)
H19_5 H 0.8192 0.1717 0.9909
C29_5 C 0.8464(2) 0.0869(8) 0.9420(4)
H21_5 H 0.8459 0.0099 0.9596
C33_7 C 0.60688(17) 0.8879(8) 0.8345(4)
H24_7 H 0.6212 0.8424 0.8543
C34_7 C 0.57997(19) 0.8939(8) 0.8527(4)
H25_7 H 0.5761 0.8485 0.8844
C35_5 C 0.8301(2) 0.2994(7) 0.9333(4)
C41_7 C 0.61212(16) 0.9521(7) 0.7852(3)
C44_5 C 0.8636(2) 0.2154(8) 0.8723(4)
H34_5 H 0.8752 0.2265 0.8429
C47_7 C 0.71110(17) 0.7924(7) 0.8491(4)
C48_5 C 0.84731(19) 0.3122(7) 0.8893(4)
H37_5 H 0.8479 0.3881 0.8708
C50_7 C 0.69636(19) 0.7286(8) 0.8047(4)
H38_7 H 0.7030 0.6517 0.7938
C51_5 C 0.8109(2) 0.4015(8) 0.9510(4)
N6_4 N 0.46259(14) 0.8111(5) 0.9951(3)
O9_6 O 0.62259(14) 0.5028(6) 0.6227(2)
O13_6 O 0.69166(11) 0.9942(4) 0.5818(2)
O16_6 O 0.7006(2) 0.8904(7) 0.5038(3)
C4_4 C 0.58809(19) 0.4980(7) 0.5407(4)
H3_6 H 0.5928 0.5784 0.5307
C8_4 C 0.60248(18) 0.4410(7) 0.5867(3)
C10_4 C 0.59649(19) 0.3206(8) 0.6009(4)
H6_4 H 0.6065 0.2825 0.6316
C21_8 C 0.53452(17) 0.2526(7) 0.4913(3)
C25_6 C 0.63720(19) 0.6030(8) 0.6014(4)
C27_6 C 0.6699(2) 0.6835(8) 0.5395(4)
H19_6 H 0.6808 0.6717 0.5091
C29_6 C 0.6536(2) 0.5869(8) 0.5580(4)
H21_6 H 0.6541 0.5099 0.5404
C30_4 C 0.56646(19) 0.4341(7) 0.5096(4)
H22_8 H 0.5567 0.4725 0.4786
C35_6 C 0.6699(2) 0.7994(7) 0.5667(4)
C36_4 C 0.57522(17) 0.2569(7) 0.5686(3)
H26_4 H 0.5717 0.1743 0.5771
C37_4 C 0.55901(17) 0.3132(6) 0.5239(3)
C44_6 C 0.6364(2) 0.7154(8) 0.6277(4)
H34_6 H 0.6248 0.7265 0.6571
C48_6 C 0.65269(19) 0.8122(7) 0.6107(4)
H37_6 H 0.6521 0.8881 0.6292
C51_6 C 0.6891(2) 0.9015(8) 0.5490(4)
H44_8 H 0.727588 0.992219 0.496434
O5_8 O 0.41870(12) 0.4996(4) 0.2572(2)
O8_8 O 0.40361(12) 0.7055(5) 0.1081(2)
O11_8 O 0.35324(12) 0.5906(4) 0.2424(2)
O12_8 O 0.37379(11) 0.4144(4) 0.0998(2)
C2_8 C 0.36233(16) 0.2672(7) 0.0293(3)
H1_8 H 0.3812 0.2405 0.0325
C3_8 C 0.32497(15) 0.3959(6) 0.0568(3)
H2_8 H 0.3183 0.4596 0.0785
C6_8 C 0.38743(15) 0.5575(6) 0.1763(3)
C11_8 C 0.4149(2) 0.8172(7) 0.0273(4)
H7_8 H 0.3962 0.8463 0.0220
C12_8 C 0.3235(2) 0.8322(7) 0.3263(3)
H8_8 H 0.3248 0.9176 0.3318
C13_8 C 0.39941(16) 0.4476(7) 0.2127(3)
H9_8 H 0.4095 0.3903 0.1900
H10_8 H 0.3840 0.4032 0.2286
C14_8 C 0.35338(14) 0.3641(6) 0.0633(3)
C15_8 C 0.43361(17) 0.4201(7) 0.2931(3)
C20_8 C 0.43259(19) 0.2926(7) 0.2883(4)
H14_8 H 0.4214 0.2538 0.2594
C24_8 C 0.36339(17) 0.5150(7) 0.1334(3)
H16_8 H 0.3571 0.5837 0.1090
H17_8 H 0.3473 0.4867 0.1528
C26_8 C 0.44906(18) 0.2245(7) 0.3287(3)
H18_8 H 0.4482 0.1384 0.3258
C28_8 C 0.33925(19) 0.7809(7) 0.2868(3)
H20_8 H 0.3507 0.8302 0.2659
C31_8 C 0.42419(19) 0.7414(7) 0.0738(3)
C38_8 C 0.3046(2) 0.6459(7) 0.3480(3)
H27_8 H 0.2926 0.5984 0.3686
C39_8 C 0.37441(16) 0.6543(6) 0.2122(3)
H28_8 H 0.3655 0.7195 0.1887
H29_8 H 0.3889 0.6911 0.2385
C40_8 C 0.30598(17) 0.3337(6) 0.0178(3)
H30_8 H 0.2868 0.3564 0.0148
C42_8 C 0.41320(18) 0.6102(7) 0.1489(3)
H31_8 H 0.4228 0.5442 0.1302
H32_8 H 0.4267 0.6457 0.1777
C43_8 C 0.4510(2) 0.4720(7) 0.3357(4)
H33_8 H 0.4524 0.5579 0.3390
C45_8 C 0.45297(18) 0.7081(8) 0.0817(3)
H35_8 H 0.4599 0.6626 0.1131
C46_8 C 0.31960(19) 0.5862(6) 0.3088(4)
H36_8 H 0.3174 0.5013 0.3029
C49_8 C 0.33794(17) 0.6544(6) 0.2785(3)
C52_8 C 0.4705(2) 0.7444(9) 0.0419(4)
H39_8 H 0.4896 0.7212 0.0475
C53_8 C 0.4664(2) 0.3957(7) 0.3740(4)
H40_8 H 0.4777 0.4327 0.4034
H43_8 H 0.261396 0.127959 0.021703
O1_8 O 0.25190(11) 0.2979(5) 0.9189(2)
O3_8 O 0.02262(13) 0.3726(5) 0.8769(3)
O4_8 O 0.26225(11) 0.0687(5) 0.9899(2)
O7_8 O 0.01211(13) 0.5561(5) 0.8360(3)
O10_8 O 0.24668(13) 0.1336(5) 0.8645(2)
O14_8 O 0.13826(12) 0.4431(6) 0.7606(2)
C1_8 C 0.16182(18) 0.3932(8) 0.7925(4)
C5_8 C 0.1761(2) 0.4563(8) 0.8362(4)
H4_8 H 0.1695 0.5335 0.8468
C7_8 C 0.02855(17) 0.4678(7) 0.8473(3)
N4_8 N 0.31458(13) 0.2416(5) 0.9843(2)
C9_8 C 0.1721(2) 0.2783(9) 0.7769(4)
H5_8 H 0.1625 0.2345 0.7474
C16_8 C 0.2009(2) 0.4051(8) 0.8652(4)
H11_8 H 0.2103 0.4480 0.8952
C17_8 C 0.05843(16) 0.4646(6) 0.8257(3)
C18_8 C 0.43520(19) 0.8462(7) 0.9898(4)
H12_8 H 0.4292 0.8939 0.9584
C19_8 C 0.09100(17) 0.5230(7) 0.7577(3)
H13_8 H 0.0947 0.5660 0.7252
C22_8 C 0.23765(17) 0.2371(7) 0.8798(3)
C23_8 C 0.34237(17) 0.2123(7) 0.9907(4)
H15_8 H 0.3488 0.1505 0.9676
C32_8 C 0.06397(17) 0.5313(7) 0.7779(3)
H23_8 H 0.0499 0.5809 0.7595
C33_8 C 0.10688(17) 0.3879(8) 0.8345(4)
H24_8 H 0.1212 0.3424 0.8543
C34_8 C 0.07997(19) 0.3939(8) 0.8527(4)
H25_8 H 0.0761 0.3485 0.8844
C41_8 C 0.11212(16) 0.4521(7) 0.7852(3)
C47_8 C 0.21110(17) 0.2924(7) 0.8491(4)
C50_8 C 0.19636(19) 0.2286(8) 0.8047(4)
H38_8 H 0.2030 0.1517 0.7938
O6_8 O 0.97212(11) 0.5034(4) 0.9072(2)
H41_8 H 0.985614 0.572512 0.917031
H42_8 H 0.954744 0.514098 0.9277
C4_5 C 0.08809(19) 0.0020(7) 0.0407(4)
C8_5 C 0.10248(18) 0.0590(7) 0.0867(3)
C10_5 C 0.09649(19) 0.1794(8) 0.1009(4)
H6_5 H 0.1065 0.2175 0.1316
C30_5 C 0.06646(19) 0.0659(7) 0.0096(4)
C36_5 C 0.07522(17) 0.2431(7) 0.0686(3)
H26_5 H 0.0717 0.3257 0.0771
C37_5 C 0.05901(17) 0.1868(6) 0.0239(3)
O9_7 O 0.62259(14) 0.4972(6) 0.1227(2)
O13_7 O 0.69166(11) 0.0058(4) 0.0818(2)
O16_7 O 0.7006(2) 0.1096(7) 0.0038(3)
C4_6 C 0.58809(19) 0.5020(7) 0.0407(4)
H3_7 H 0.5928 0.4216 0.0307
C8_6 C 0.60248(18) 0.5590(7) 0.0867(3)
C10_6 C 0.59649(19) 0.6794(8) 0.1009(4)
H6_6 H 0.6065 0.7175 0.1316
C25_7 C 0.63720(19) 0.3970(8) 0.1014(4)
C27_7 C 0.6699(2) 0.3165(8) 0.0395(4)
H19_7 H 0.6808 0.3283 0.0091
C29_7 C 0.6536(2) 0.4131(8) 0.0580(4)
H21_7 H 0.6541 0.4901 0.0404
C30_6 C 0.56646(19) 0.5659(7) 0.0096(4)
C35_7 C 0.6699(2) 0.2006(7) 0.0667(4)
C36_6 C 0.57522(17) 0.7431(7) 0.0686(3)
H26_6 H 0.5717 0.8257 0.0771
C37_6 C 0.55901(17) 0.6868(6) 0.0239(3)
C44_7 C 0.6364(2) 0.2846(8) 0.1277(4)
H34_7 H 0.6248 0.2735 0.1571
C48_7 C 0.65269(19) 0.1878(7) 0.1107(4)
H37_7 H 0.6521 0.1119 0.1292
C51_7 C 0.6891(2) 0.0985(8) 0.0490(4)
C4_7 C 0.91191(19) 0.9980(7) 0.9593(4)
C8_7 C 0.89752(18) 0.9410(7) 0.9133(3)
C10_7 C 0.90351(19) 0.8206(8) 0.8991(4)
H6_7 H 0.8935 0.7825 0.8684
C30_7 C 0.93354(19) 0.9341(7) 0.9904(4)
C36_7 C 0.92478(17) 0.7569(7) 0.9314(3)
H26_7 H 0.9283 0.6743 0.9229
C37_7 C 0.94099(17) 0.8132(6) 0.9761(3)
O9_8 O 0.37741(14) 0.5028(6) 0.8773(2)
O13_8 O 0.30834(11) 0.9942(4) 0.9182(2)
O16_8 O 0.2994(2) 0.8904(7) 0.9962(3)
C4_8 C 0.41191(19) 0.4980(7) 0.9593(4)
H3_8 H 0.4072 0.5784 0.9693
C8_8 C 0.39752(18) 0.4410(7) 0.9133(3)
C10_8 C 0.40351(19) 0.3206(8) 0.8991(4)
H6_8 H 0.3935 0.2825 0.8684
C25_8 C 0.36280(19) 0.6030(8) 0.8986(4)
C27_8 C 0.3301(2) 0.6835(8) 0.9605(4)
H19_8 H 0.3192 0.6717 0.9909
C29_8 C 0.3464(2) 0.5869(8) 0.9420(4)
H21_8 H 0.3459 0.5099 0.9596
C30_8 C 0.43354(19) 0.4341(7) 0.9904(4)
C35_8 C 0.3301(2) 0.7994(7) 0.9333(4)
C36_8 C 0.42478(17) 0.2569(7) 0.9314(3)
H26_8 H 0.4283 0.1743 0.9229
C37_8 C 0.44099(17) 0.3132(6) 0.9761(3)
C44_8 C 0.3636(2) 0.7154(8) 0.8723(4)
H34_8 H 0.3752 0.7265 0.8429
C48_8 C 0.34731(19) 0.8122(7) 0.8893(4)
H37_8 H 0.3479 0.8881 0.8708
C51_8 C 0.3109(2) 0.9015(8) 0.9510(4)
loop_
_geom_bond_atom_site_label_1
_geom_bond_atom_site_label_2
_geom_bond_site_symmetry_1
_geom_bond_site_symmetry_2
O2 C21 1_555 1_555
O15 C21 1_555 1_555
C8 C4 1_555 1_555
C10 C8 1_555 1_555
H6 C10 1_555 1_555
C21 C37 1_555 1_555
C30 C4 1_555 1_555
H22 C30 1_555 1_555
C36 C10 1_555 1_555
H26 C36 1_555 1_555
C37 C30 1_555 1_555
C36 C37 1_555 1_555
Co1 O1 1_555 1_555
Co2 O3 1_555 1_555
O1 C22 1_555 1_555
O3 C7 1_555 1_555
O4 Co1 1_555 1_555
O10 Co1 1_555 1_555
O13 Co1 1_555 1_555
O14 C1 1_555 1_555
C1 C5 1_555 1_555
O16 C51 1_555 1_555
C7 C17 1_555 1_555
N4 Co1 1_555 1_555
C9 C1 1_555 1_555
H5 C9 1_555 1_555
C16 C5 1_555 1_555
H11 C16 1_555 1_555
C22 O10 1_555 1_555
H15 C23 1_555 1_555
C25 O9 1_555 1_555
C27 H19 1_555 1_555
C29 C25 1_555 1_555
H21 C29 1_555 1_555
C33 H24 1_555 1_555
C34 C17 1_555 1_555
H25 C34 1_555 1_555
C35 C27 1_555 1_555
C41 O14 1_555 1_555
C44 C25 1_555 1_555
H34 C44 1_555 1_555
C47 C16 1_555 1_555
C48 C35 1_555 1_555
H37 C48 1_555 1_555
C50 C9 1_555 1_555
H38 C50 1_555 1_555
C51 O13 1_555 1_555
O17 Co2 1_555 1_555
N5 Co1 1_555 1_555
N6 Co2 1_555 1_555
O18 Co2 1_555 1_555
N7 Co2 1_555 1_555
N4 C23 1_555 1_555
C22 C47 1_555 1_555
C27 C29 1_555 1_555
C33 C34 1_555 1_555
C33 C41 1_555 1_555
C35 C51 1_555 1_555
C44 C48 1_555 1_555
C47 C50 1_555 1_555
O5 C13 1_555 1_555
O12 C14 1_555 1_555
C2 H1 1_555 1_555
C3 H2 1_555 1_555
N3 C26 1_555 1_555
C13 H9 1_555 1_555
H10 C13 1_555 1_555
C14 C2 1_555 1_555
C15 O5 1_555 1_555
C20 C15 1_555 1_555
H14 C20 1_555 1_555
C26 C20 1_555 1_555
H18 C26 1_555 1_555
C40 C3 1_555 1_555
H30 C40 1_555 1_555
C43 C15 1_555 1_555
C53 N3 1_555 1_555
H40 C53 1_555 1_555
Co5 N3 1_555 1_555
C3 C14 1_555 1_555
C43 C53 1_555 1_555
N2 C18 1_555 1_555
H12 C18 1_555 1_555
C19 H13 1_555 1_555
C32 C19 1_555 1_555
H23 C32 1_555 1_555
Co4 N2 1_555 1_555
O6 H41 1_555 1_555
O6 H42 1_555 1_555
O8 C31 1_555 1_555
O11 C39 1_555 1_555
N1 C12 1_555 1_555
C11 H7 1_555 1_555
C12 H8 1_555 1_555
H16 C24 1_555 1_555
C28 C12 1_555 1_555
H20 C28 1_555 1_555
C31 C11 1_555 1_555
C38 N1 1_555 1_555
H27 C38 1_555 1_555
C39 C6 1_555 1_555
H28 C39 1_555 1_555
H29 C39 1_555 1_555
C42 O8 1_555 1_555
H31 C42 1_555 1_555
H32 C42 1_555 1_555
C45 C31 1_555 1_555
H35 C45 1_555 1_555
C46 C38 1_555 1_555
H36 C46 1_555 1_555
C49 O11 1_555 1_555
H39 C52 1_555 1_555
Co3 N1 1_555 1_555
C6 C24 1_555 1_555
C6 C42 1_555 1_555
C28 C49 1_555 1_555
C45 C52 1_555 1_555
C46 C49 1_555 1_555
O2_2 C21_2 1_555 1_555
O9_2 C8_2 1_555 1_555
O15_2 C21_2 1_555 1_555
O16_2 C51_2 1_555 1_555
C4_2 H3_2 1_555 1_555
C8_2 C4_2 1_555 1_555
C10_2 C8_2 1_555 1_555
H6_2 C10_2 1_555 1_555
C21_2 C37_2 1_555 1_555
C25_2 O9_2 1_555 1_555
C27_2 H19_2 1_555 1_555
C29_2 C25_2 1_555 1_555
H21_2 C29_2 1_555 1_555
C30_2 C4_2 1_555 1_555
H22_2 C30_2 1_555 1_555
C35_2 C27_2 1_555 1_555
C36_2 C10_2 1_555 1_555
H26_2 C36_2 1_555 1_555
C37_2 C30_2 1_555 1_555
C44_2 C25_2 1_555 1_555
H34_2 C44_2 1_555 1_555
C48_2 C35_2 1_555 1_555
H37_2 C48_2 1_555 1_555
C51_2 O13_2 1_555 1_555
Co5_2 O2_2 1_555 1_555
O15_2 Co5_2 1_555 1_555
C27_2 C29_2 1_555 1_555
C35_2 C51_2 1_555 1_555
C36_2 C37_2 1_555 1_555
C44_2 C48_2 1_555 1_555
O6_2 Co4 1_555 1_555
N7_2 Co4 1_555 1_555
O6_2 H41_2 1_555 1_555
O6_2 H42_2 1_555 1_555
Co1_2 O1_2 1_555 1_555
O1_2 C22_2 1_555 1_555
O3_2 C7_2 1_555 1_555
O4_2 Co1_2 1_555 1_555
O7_2 C7_2 1_555 1_555
O10_2 Co1_2 1_555 1_555
O14_2 C1_2 1_555 1_555
N6 C18_2 1_555 1_555
C1_2 C5_2 1_555 1_555
C5_2 H4_2 1_555 1_555
C7_2 C17_2 1_555 1_555
N4_2 Co1_2 1_555 1_555
C9_2 C1_2 1_555 1_555
H5_2 C9_2 1_555 1_555
C16_2 C5_2 1_555 1_555
H11_2 C16_2 1_555 1_555
C17_2 C32_2 1_555 1_555
H12_2 C18_2 1_555 1_555
C19_2 H13_2 1_555 1_555
C22_2 O10_2 1_555 1_555
H15_2 C23_2 1_555 1_555
C32_2 C19_2 1_555 1_555
H23_2 C32_2 1_555 1_555
C33_2 H24_2 1_555 1_555
C34_2 C17_2 1_555 1_555
H25_2 C34_2 1_555 1_555
C41_2 O14_2 1_555 1_555
C47_2 C16_2 1_555 1_555
C50_2 C9_2 1_555 1_555
H38_2 C50_2 1_555 1_555
N5_2 Co1_2 1_555 1_555
N4_2 C23_2 1_555 1_555
C19_2 C41_2 1_555 1_555
C22_2 C47_2 1_555 1_555
C33_2 C34_2 1_555 1_555
C33_2 C41_2 1_555 1_555
C47_2 C50_2 1_555 1_555
O5_2 C13_2 1_555 1_555
O8_2 C31_2 1_555 1_555
O11_2 C39_2 1_555 1_555
N1_2 C12_2 1_555 1_555
O12_2 C14_2 1_555 1_555
C2_2 H1_2 1_555 1_555
C3_2 H2_2 1_555 1_555
N3_2 C26_2 1_555 1_555
C6_2 C13_2 1_555 1_555
C11_2 H7_2 1_555 1_555
C12_2 H8_2 1_555 1_555
C13_2 H9_2 1_555 1_555
H10_2 C13_2 1_555 1_555
C14_2 C2_2 1_555 1_555
C15_2 O5_2 1_555 1_555
C20_2 C15_2 1_555 1_555
H14_2 C20_2 1_555 1_555
C24_2 O12_2 1_555 1_555
H16_2 C24_2 1_555 1_555
H17_2 C24_2 1_555 1_555
C26_2 C20_2 1_555 1_555
H18_2 C26_2 1_555 1_555
C28_2 C12_2 1_555 1_555
H20_2 C28_2 1_555 1_555
C31_2 C11_2 1_555 1_555
C38_2 N1_2 1_555 1_555
H27_2 C38_2 1_555 1_555
C39_2 C6_2 1_555 1_555
H28_2 C39_2 1_555 1_555
H29_2 C39_2 1_555 1_555
C40_2 C3_2 1_555 1_555
H30_2 C40_2 1_555 1_555
C42_2 O8_2 1_555 1_555
H31_2 C42_2 1_555 1_555
H32_2 C42_2 1_555 1_555
C43_2 C15_2 1_555 1_555
H33_2 C43_2 1_555 1_555
C45_2 C31_2 1_555 1_555
H35_2 C45_2 1_555 1_555
C46_2 C38_2 1_555 1_555
H36_2 C46_2 1_555 1_555
C49_2 O11_2 1_555 1_555
H39_2 C52_2 1_555 1_555
C53_2 N3_2 1_555 1_555
H40_2 C53_2 1_555 1_555
Co3_2 N1_2 1_555 1_555
Co5_2 N3_2 1_555 1_555
C3_2 C14_2 1_555 1_555
C6_2 C24_2 1_555 1_555
C6_2 C42_2 1_555 1_555
C28_2 C49_2 1_555 1_555
C43_2 C53_2 1_555 1_555
C45_2 C52_2 1_555 1_555
C46_2 C49_2 1_555 1_555
O8_3 C31_3 1_555 1_555
O11_3 C39_3 1_555 1_555
N5 C12_3 1_555 1_555
N2_2 C18_3 1_555 1_555
C11_3 H7_3 1_555 1_555
C12_3 H8_3 1_555 1_555
C18_3 C11_3 1_555 1_555
H12_3 C18_3 1_555 1_555
C19_3 H13_3 1_555 1_555
H16_3 C24_3 1_555 1_555
C28_3 C12_3 1_555 1_555
H20_3 C28_3 1_555 1_555
C31_3 C11_3 1_555 1_555
C32_3 C19_3 1_555 1_555
H23_3 C32_3 1_555 1_555
C38_3 N5 1_555 1_555
H27_3 C38_3 1_555 1_555
C39_3 C6_3 1_555 1_555
H28_3 C39_3 1_555 1_555
H29_3 C39_3 1_555 1_555
C42_3 O8_3 1_555 1_555
H31_3 C42_3 1_555 1_555
H32_3 C42_3 1_555 1_555
C45_3 C31_3 1_555 1_555
H35_3 C45_3 1_555 1_555
C46_3 C38_3 1_555 1_555
H36_3 C46_3 1_555 1_555
C49_3 O11_3 1_555 1_555
C52_3 N2_2 1_555 1_555
H39_3 C52_3 1_555 1_555
Co5 N2_2 1_555 1_555
C6_3 C24_3 1_555 1_555
C6_3 C42_3 1_555 1_555
C28_3 C49_3 1_555 1_555
C45_3 C52_3 1_555 1_555
C46_3 C49_3 1_555 1_555
O6_3 H41_3 1_555 1_555
O6_3 H42_3 1_555 1_555
Co3 O1_3 1_555 1_555
Co5_2 O3_3 1_555 1_555
O1_3 C22_3 1_555 1_555
O3_3 C7_3 1_555 1_555
O4_3 Co3 1_555 1_555
O5_3 C13_3 1_555 1_555
O10_3 Co3 1_555 1_555
O12_3 C14_3 1_555 1_555
O13_3 Co3 1_555 1_555
O14_3 C1_3 1_555 1_555
C1_3 C5_3 1_555 1_555
C2_3 H1_3 1_555 1_555
O16_3 C51_3 1_555 1_555
C3_3 H2_3 1_555 1_555
N7_2 C26_3 1_555 1_555
C7_3 C17_3 1_555 1_555
N4_3 Co3 1_555 1_555
C9_3 C1_3 1_555 1_555
H5_3 C9_3 1_555 1_555
C13_3 H9_3 1_555 1_555
H10_3 C13_3 1_555 1_555
C14_3 C2_3 1_555 1_555
C15_3 O5_3 1_555 1_555
C16_3 C5_3 1_555 1_555
H11_3 C16_3 1_555 1_555
C20_3 C15_3 1_555 1_555
H14_3 C20_3 1_555 1_555
C22_3 O10_3 1_555 1_555
C23_3 C2_3 1_555 1_555
H15_3 C23_3 1_555 1_555
C25_3 O9_3 1_555 1_555
C26_3 C20_3 1_555 1_555
H18_3 C26_3 1_555 1_555
C27_3 H19_3 1_555 1_555
C29_3 C25_3 1_555 1_555
H21_3 C29_3 1_555 1_555
C33_3 H24_3 1_555 1_555
C34_3 C17_3 1_555 1_555
H25_3 C34_3 1_555 1_555
C35_3 C27_3 1_555 1_555
C40_3 C3_3 1_555 1_555
H30_3 C40_3 1_555 1_555
C41_3 O14_3 1_555 1_555
C43_3 C15_3 1_555 1_555
C44_3 C25_3 1_555 1_555
H34_3 C44_3 1_555 1_555
C47_3 C16_3 1_555 1_555
C48_3 C35_3 1_555 1_555
H37_3 C48_3 1_555 1_555
C50_3 C9_3 1_555 1_555
H38_3 C50_3 1_555 1_555
C51_3 O13_3 1_555 1_555
C53_3 N7_2 1_555 1_555
H40_3 C53_3 1_555 1_555
N6_2 Co5_2 1_555 1_555
C3_3 C14_3 1_555 1_555
N4_3 C23_3 1_555 1_555
N4_3 C40_3 1_555 1_555
C22_3 C47_3 1_555 1_555
C27_3 C29_3 1_555 1_555
C33_3 C34_3 1_555 1_555
C33_3 C41_3 1_555 1_555
C35_3 C51_3 1_555 1_555
C43_3 C53_3 1_555 1_555
C44_3 C48_3 1_555 1_555
C47_3 C50_3 1_555 1_555
O4_3 H43_3 1_555 1_555
O4_3 H44_3 1_555 1_555
O17_2 C21_3 1_555 1_555
O18_2 C21_3 1_555 1_555
O6_4 Co5 1_555 1_555
O6_4 H41_4 1_555 1_555
O6_4 H42_4 1_555 1_555
Co3_2 O1_4 1_555 1_555
O1_4 C22_4 1_555 1_555
O3_4 C7_4 1_555 1_555
O4_4 Co3_2 1_555 1_555
O5_4 C13_4 1_555 1_555
O7_4 C7_4 1_555 1_555
O8_4 C31_4 1_555 1_555
O10_4 Co3_2 1_555 1_555
O11_4 C39_4 1_555 1_555
N5_2 C12_4 1_555 1_555
O12_4 C14_4 1_555 1_555
O14_4 C1_4 1_555 1_555
N6_2 C18_4 1_555 1_555
C1_4 C5_4 1_555 1_555
C2_4 H1_4 1_555 1_555
C3_4 H2_4 1_555 1_555
C5_4 H4_4 1_555 1_555
N7 C26_4 1_555 1_555
C6_4 C13_4 1_555 1_555
C7_4 C17_4 1_555 1_555
N4_4 Co3_2 1_555 1_555
C9_4 C1_4 1_555 1_555
H5_4 C9_4 1_555 1_555
C11_4 H7_4 1_555 1_555
C12_4 H8_4 1_555 1_555
C13_4 H9_4 1_555 1_555
H10_4 C13_4 1_555 1_555
C14_4 C2_4 1_555 1_555
C15_4 O5_4 1_555 1_555
C16_4 C5_4 1_555 1_555
H11_4 C16_4 1_555 1_555
C17_4 C32_4 1_555 1_555
C18_4 C11_4 1_555 1_555
H12_4 C18_4 1_555 1_555
C19_4 H13_4 1_555 1_555
C20_4 C15_4 1_555 1_555
H14_4 C20_4 1_555 1_555
C22_4 O10_4 1_555 1_555
C23_4 C2_4 1_555 1_555
H15_4 C23_4 1_555 1_555
C24_4 O12_4 1_555 1_555
H16_4 C24_4 1_555 1_555
H17_4 C24_4 1_555 1_555
C26_4 C20_4 1_555 1_555
H18_4 C26_4 1_555 1_555
C28_4 C12_4 1_555 1_555
H20_4 C28_4 1_555 1_555
C31_4 C11_4 1_555 1_555
C32_4 C19_4 1_555 1_555
H23_4 C32_4 1_555 1_555
C33_4 H24_4 1_555 1_555
C34_4 C17_4 1_555 1_555
H25_4 C34_4 1_555 1_555
C38_4 N5_2 1_555 1_555
H27_4 C38_4 1_555 1_555
C39_4 C6_4 1_555 1_555
H28_4 C39_4 1_555 1_555
H29_4 C39_4 1_555 1_555
C40_4 C3_4 1_555 1_555
H30_4 C40_4 1_555 1_555
C41_4 O14_4 1_555 1_555
C42_4 O8_4 1_555 1_555
H31_4 C42_4 1_555 1_555
H32_4 C42_4 1_555 1_555
C43_4 C15_4 1_555 1_555
H33_4 C43_4 1_555 1_555
C45_4 C31_4 1_555 1_555
H35_4 C45_4 1_555 1_555
C46_4 C38_4 1_555 1_555
H36_4 C46_4 1_555 1_555
C47_4 C16_4 1_555 1_555
C49_4 O11_4 1_555 1_555
C50_4 C9_4 1_555 1_555
H38_4 C50_4 1_555 1_555
C52_4 N6_2 1_555 1_555
H39_4 C52_4 1_555 1_555
C53_4 N7 1_555 1_555
H40_4 C53_4 1_555 1_555
C3_4 C14_4 1_555 1_555
C6_4 C24_4 1_555 1_555
C6_4 C42_4 1_555 1_555
N4_4 C23_4 1_555 1_555
N4_4 C40_4 1_555 1_555
C19_4 C41_4 1_555 1_555
C22_4 C47_4 1_555 1_555
C28_4 C49_4 1_555 1_555
C33_4 C34_4 1_555 1_555
C33_4 C41_4 1_555 1_555
C43_4 C53_4 1_555 1_555
C45_4 C52_4 1_555 1_555
C46_4 C49_4 1_555 1_555
C47_4 C50_4 1_555 1_555
O4_4 H43_4 1_555 1_555
O17 C21_4 1_555 1_555
O18 C21_4 1_555 1_555
Co1_3 O1_5 1_555 1_555
Co2_2 O3_5 1_555 1_555
O1_5 C22_5 1_555 1_555
O3_5 C7_5 1_555 1_555
O4_5 Co1_3 1_555 1_555
O5_5 C13_5 1_555 1_555
O10_5 Co1_3 1_555 1_555
O12_5 C14_5 1_555 1_555
O13_4 Co1_3 1_555 1_555
O14_5 C1_5 1_555 1_555
C1_5 C5_5 1_555 1_555
C2_5 H1_5 1_555 1_555
O16_4 C51_4 1_555 1_555
C3_5 H2_5 1_555 1_555
N3_3 C26_5 1_555 1_555
C7_5 C17_5 1_555 1_555
N4_5 Co1_3 1_555 1_555
C9_5 C1_5 1_555 1_555
H5_5 C9_5 1_555 1_555
C13_5 H9_5 1_555 1_555
H10_5 C13_5 1_555 1_555
C14_5 C2_5 1_555 1_555
C15_5 O5_5 1_555 1_555
C16_5 C5_5 1_555 1_555
H11_5 C16_5 1_555 1_555
C20_5 C15_5 1_555 1_555
H14_5 C20_5 1_555 1_555
C22_5 O10_5 1_555 1_555
C23_5 C2_5 1_555 1_555
H15_5 C23_5 1_555 1_555
C25_4 O9_4 1_555 1_555
C26_5 C20_5 1_555 1_555
H18_5 C26_5 1_555 1_555
C27_4 H19_4 1_555 1_555
C29_4 C25_4 1_555 1_555
H21_4 C29_4 1_555 1_555
C33_5 H24_5 1_555 1_555
C34_5 C17_5 1_555 1_555
H25_5 C34_5 1_555 1_555
C35_4 C27_4 1_555 1_555
C40_5 C3_5 1_555 1_555
H30_5 C40_5 1_555 1_555
C41_5 O14_5 1_555 1_555
C43_5 C15_5 1_555 1_555
C44_4 C25_4 1_555 1_555
H34_4 C44_4 1_555 1_555
C47_5 C16_5 1_555 1_555
C48_4 C35_4 1_555 1_555
H37_4 C48_4 1_555 1_555
C50_5 C9_5 1_555 1_555
H38_5 C50_5 1_555 1_555
C51_4 O13_4 1_555 1_555
C53_5 N3_3 1_555 1_555
H40_5 C53_5 1_555 1_555
Co6 N3_3 1_555 1_555
O17_3 Co2_2 1_555 1_555
N5_3 Co1_3 1_555 1_555
N6_3 Co2_2 1_555 1_555
O18_3 Co2_2 1_555 1_555
N7_3 Co2_2 1_555 1_555
C3_5 C14_5 1_555 1_555
N4_5 C23_5 1_555 1_555
N4_5 C40_5 1_555 1_555
C22_5 C47_5 1_555 1_555
C27_4 C29_4 1_555 1_555
C33_5 C34_5 1_555 1_555
C33_5 C41_5 1_555 1_555
C35_4 C51_4 1_555 1_555
C43_5 C53_5 1_555 1_555
C44_4 C48_4 1_555 1_555
C47_5 C50_5 1_555 1_555
O4_5 H43_5 1_555 1_555
O4_5 H44_5 1_555 1_555
O8_5 C31_5 1_555 1_555
O11_5 C39_5 1_555 1_555
N1_3 C12_5 1_555 1_555
N2_3 C18_5 1_555 1_555
C11_5 H7_5 1_555 1_555
C12_5 H8_5 1_555 1_555
C18_5 C11_5 1_555 1_555
H12_5 C18_5 1_555 1_555
C19_5 H13_5 1_555 1_555
H16_5 C24_5 1_555 1_555
C28_5 C12_5 1_555 1_555
H20_5 C28_5 1_555 1_555
C31_5 C11_5 1_555 1_555
C32_5 C19_5 1_555 1_555
H23_5 C32_5 1_555 1_555
C38_5 N1_3 1_555 1_555
H27_5 C38_5 1_555 1_555
C39_5 C6_5 1_555 1_555
H28_5 C39_5 1_555 1_555
H29_5 C39_5 1_555 1_555
C42_5 O8_5 1_555 1_555
H31_5 C42_5 1_555 1_555
H32_5 C42_5 1_555 1_555
C45_5 C31_5 1_555 1_555
H35_5 C45_5 1_555 1_555
C46_5 C38_5 1_555 1_555
H36_5 C46_5 1_555 1_555
C49_5 O11_5 1_555 1_555
C52_5 N2_3 1_555 1_555
H39_5 C52_5 1_555 1_555
Co3_3 N1_3 1_555 1_555
Co4_2 N2_3 1_555 1_555
C6_5 C24_5 1_555 1_555
C6_5 C42_5 1_555 1_555
C28_5 C49_5 1_555 1_555
C45_5 C52_5 1_555 1_555
C46_5 C49_5 1_555 1_555
O6_5 H41_5 1_555 1_555
O6_5 H42_5 1_555 1_555
O2_3 C21_5 1_555 1_555
O15_3 C21_5 1_555 1_555
Co1_4 O1_6 1_555 1_555
O1_6 C22_6 1_555 1_555
O3_6 C7_6 1_555 1_555
O4_6 Co1_4 1_555 1_555
O5_6 C13_6 1_555 1_555
O7_6 C7_6 1_555 1_555
O8_6 C31_6 1_555 1_555
O10_6 Co1_4 1_555 1_555
O11_6 C39_6 1_555 1_555
N1_4 C12_6 1_555 1_555
O12_6 C14_6 1_555 1_555
O14_6 C1_6 1_555 1_555
N6_3 C18_6 1_555 1_555
C1_6 C5_6 1_555 1_555
C2_6 H1_6 1_555 1_555
C3_6 H2_6 1_555 1_555
C5_6 H4_6 1_555 1_555
N3_4 C26_6 1_555 1_555
C6_6 C13_6 1_555 1_555
C7_6 C17_6 1_555 1_555
N4_6 Co1_4 1_555 1_555
C9_6 C1_6 1_555 1_555
H5_6 C9_6 1_555 1_555
C11_6 H7_6 1_555 1_555
C12_6 H8_6 1_555 1_555
C13_6 H9_6 1_555 1_555
H10_6 C13_6 1_555 1_555
C14_6 C2_6 1_555 1_555
C15_6 O5_6 1_555 1_555
C16_6 C5_6 1_555 1_555
H11_6 C16_6 1_555 1_555
C17_6 C32_6 1_555 1_555
C18_6 C11_6 1_555 1_555
H12_6 C18_6 1_555 1_555
C19_6 H13_6 1_555 1_555
C20_6 C15_6 1_555 1_555
H14_6 C20_6 1_555 1_555
C22_6 O10_6 1_555 1_555
C23_6 C2_6 1_555 1_555
H15_6 C23_6 1_555 1_555
C24_6 O12_6 1_555 1_555
H16_6 C24_6 1_555 1_555
H17_6 C24_6 1_555 1_555
C26_6 C20_6 1_555 1_555
H18_6 C26_6 1_555 1_555
C28_6 C12_6 1_555 1_555
H20_6 C28_6 1_555 1_555
C31_6 C11_6 1_555 1_555
C32_6 C19_6 1_555 1_555
H23_6 C32_6 1_555 1_555
C33_6 H24_6 1_555 1_555
C34_6 C17_6 1_555 1_555
H25_6 C34_6 1_555 1_555
C38_6 N1_4 1_555 1_555
H27_6 C38_6 1_555 1_555
C39_6 C6_6 1_555 1_555
H28_6 C39_6 1_555 1_555
H29_6 C39_6 1_555 1_555
C40_6 C3_6 1_555 1_555
H30_6 C40_6 1_555 1_555
C41_6 O14_6 1_555 1_555
C42_6 O8_6 1_555 1_555
H31_6 C42_6 1_555 1_555
H32_6 C42_6 1_555 1_555
C43_6 C15_6 1_555 1_555
H33_6 C43_6 1_555 1_555
C45_6 C31_6 1_555 1_555
H35_6 C45_6 1_555 1_555
C46_6 C38_6 1_555 1_555
H36_6 C46_6 1_555 1_555
C47_6 C16_6 1_555 1_555
C49_6 O11_6 1_555 1_555
C50_6 C9_6 1_555 1_555
H38_6 C50_6 1_555 1_555
C52_6 N6_3 1_555 1_555
H39_6 C52_6 1_555 1_555
C53_6 N3_4 1_555 1_555
H40_6 C53_6 1_555 1_555
Co3_4 N1_4 1_555 1_555
Co6_2 N3_4 1_555 1_555
N5_4 Co1_4 1_555 1_555
C3_6 C14_6 1_555 1_555
C6_6 C24_6 1_555 1_555
C6_6 C42_6 1_555 1_555
N4_6 C23_6 1_555 1_555
N4_6 C40_6 1_555 1_555
C19_6 C41_6 1_555 1_555
C22_6 C47_6 1_555 1_555
C28_6 C49_6 1_555 1_555
C33_6 C34_6 1_555 1_555
C33_6 C41_6 1_555 1_555
C43_6 C53_6 1_555 1_555
C45_6 C52_6 1_555 1_555
C46_6 C49_6 1_555 1_555
C47_6 C50_6 1_555 1_555
O4_6 H43_6 1_555 1_555
O6_6 Co4_2 1_555 1_555
N7_4 Co4_2 1_555 1_555
O6_6 H41_6 1_555 1_555
O6_6 H42_6 1_555 1_555
O2_4 C21_6 1_555 1_555
O15_4 C21_6 1_555 1_555
Co6_2 O2_4 1_555 1_555
O15_4 Co6_2 1_555 1_555
O17_4 C21_7 1_555 1_555
O18_4 C21_7 1_555 1_555
C8_3 C4_3 1_555 1_555
C10_3 C8_3 1_555 1_555
H6_3 C10_3 1_555 1_555
C21_7 C37_3 1_555 1_555
C30_3 C4_3 1_555 1_555
H22_7 C30_3 1_555 1_555
C36_3 C10_3 1_555 1_555
H26_3 C36_3 1_555 1_555
C37_3 C30_3 1_555 1_555
C36_3 C37_3 1_555 1_555
O8_7 C31_7 1_555 1_555
O11_7 C39_7 1_555 1_555
N5_3 C12_7 1_555 1_555
C11_7 H7_7 1_555 1_555
C12_7 H8_7 1_555 1_555
H16_7 C24_7 1_555 1_555
C28_7 C12_7 1_555 1_555
H20_7 C28_7 1_555 1_555
C31_7 C11_7 1_555 1_555
C38_7 N5_3 1_555 1_555
H27_7 C38_7 1_555 1_555
C39_7 C6_7 1_555 1_555
H28_7 C39_7 1_555 1_555
H29_7 C39_7 1_555 1_555
C42_7 O8_7 1_555 1_555
H31_7 C42_7 1_555 1_555
H32_7 C42_7 1_555 1_555
C45_7 C31_7 1_555 1_555
H35_7 C45_7 1_555 1_555
C46_7 C38_7 1_555 1_555
H36_7 C46_7 1_555 1_555
C49_7 O11_7 1_555 1_555
H39_7 C52_7 1_555 1_555
C6_7 C24_7 1_555 1_555
C6_7 C42_7 1_555 1_555
C28_7 C49_7 1_555 1_555
C45_7 C52_7 1_555 1_555
C46_7 C49_7 1_555 1_555
N2_4 C18_7 1_555 1_555
H12_7 C18_7 1_555 1_555
C19_7 H13_7 1_555 1_555
C32_7 C19_7 1_555 1_555
H23_7 C32_7 1_555 1_555
Co6 N2_4 1_555 1_555
O6_7 H41_7 1_555 1_555
O6_7 H42_7 1_555 1_555
O5_7 C13_7 1_555 1_555
O12_7 C14_7 1_555 1_555
C2_7 H1_7 1_555 1_555
C3_7 H2_7 1_555 1_555
N7_4 C26_7 1_555 1_555
C13_7 H9_7 1_555 1_555
H10_7 C13_7 1_555 1_555
C14_7 C2_7 1_555 1_555
C15_7 O5_7 1_555 1_555
C20_7 C15_7 1_555 1_555
H14_7 C20_7 1_555 1_555
C26_7 C20_7 1_555 1_555
H18_7 C26_7 1_555 1_555
C40_7 C3_7 1_555 1_555
H30_7 C40_7 1_555 1_555
C43_7 C15_7 1_555 1_555
C53_7 N7_4 1_555 1_555
H40_7 C53_7 1_555 1_555
C3_7 C14_7 1_555 1_555
C43_7 C53_7 1_555 1_555
Co3_3 O1_7 1_555 1_555
Co6_2 O3_7 1_555 1_555
O1_7 C22_7 1_555 1_555
O3_7 C7_7 1_555 1_555
O4_7 Co3_3 1_555 1_555
O10_7 Co3_3 1_555 1_555
O13_5 Co3_3 1_555 1_555
O14_7 C1_7 1_555 1_555
C1_7 C5_7 1_555 1_555
O16_5 C51_5 1_555 1_555
C7_7 C17_7 1_555 1_555
N4_7 Co3_3 1_555 1_555
C9_7 C1_7 1_555 1_555
H5_7 C9_7 1_555 1_555
C16_7 C5_7 1_555 1_555
H11_7 C16_7 1_555 1_555
C22_7 O10_7 1_555 1_555
H15_7 C23_7 1_555 1_555
C25_5 O9_5 1_555 1_555
C27_5 H19_5 1_555 1_555
C29_5 C25_5 1_555 1_555
H21_5 C29_5 1_555 1_555
C33_7 H24_7 1_555 1_555
C34_7 C17_7 1_555 1_555
H25_7 C34_7 1_555 1_555
C35_5 C27_5 1_555 1_555
C41_7 O14_7 1_555 1_555
C44_5 C25_5 1_555 1_555
H34_5 C44_5 1_555 1_555
C47_7 C16_7 1_555 1_555
C48_5 C35_5 1_555 1_555
H37_5 C48_5 1_555 1_555
C50_7 C9_7 1_555 1_555
H38_7 C50_7 1_555 1_555
C51_5 O13_5 1_555 1_555
N6_4 Co6_2 1_555 1_555
N4_7 C23_7 1_555 1_555
C22_7 C47_7 1_555 1_555
C27_5 C29_5 1_555 1_555
C33_7 C34_7 1_555 1_555
C33_7 C41_7 1_555 1_555
C35_5 C51_5 1_555 1_555
C44_5 C48_5 1_555 1_555
C47_7 C50_7 1_555 1_555
O17_3 C21_8 1_555 1_555
O9_6 C8_4 1_555 1_555
O18_3 C21_8 1_555 1_555
O16_6 C51_6 1_555 1_555
C4_4 H3_6 1_555 1_555
C8_4 C4_4 1_555 1_555
C10_4 C8_4 1_555 1_555
H6_4 C10_4 1_555 1_555
C21_8 C37_4 1_555 1_555
C25_6 O9_6 1_555 1_555
C27_6 H19_6 1_555 1_555
C29_6 C25_6 1_555 1_555
H21_6 C29_6 1_555 1_555
C30_4 C4_4 1_555 1_555
H22_8 C30_4 1_555 1_555
C35_6 C27_6 1_555 1_555
C36_4 C10_4 1_555 1_555
H26_4 C36_4 1_555 1_555
C37_4 C30_4 1_555 1_555
C44_6 C25_6 1_555 1_555
H34_6 C44_6 1_555 1_555
C48_6 C35_6 1_555 1_555
H37_6 C48_6 1_555 1_555
C51_6 O13_6 1_555 1_555
C27_6 C29_6 1_555 1_555
C35_6 C51_6 1_555 1_555
C36_4 C37_4 1_555 1_555
C44_6 C48_6 1_555 1_555
O5_8 C13_8 1_555 1_555
O8_8 C31_8 1_555 1_555
O11_8 C39_8 1_555 1_555
N5_4 C12_8 1_555 1_555
O12_8 C14_8 1_555 1_555
C2_8 H1_8 1_555 1_555
C3_8 H2_8 1_555 1_555
N7_3 C26_8 1_555 1_555
C6_8 C13_8 1_555 1_555
C11_8 H7_8 1_555 1_555
C12_8 H8_8 1_555 1_555
C13_8 H9_8 1_555 1_555
H10_8 C13_8 1_555 1_555
C14_8 C2_8 1_555 1_555
C15_8 O5_8 1_555 1_555
C20_8 C15_8 1_555 1_555
H14_8 C20_8 1_555 1_555
C24_8 O12_8 1_555 1_555
H16_8 C24_8 1_555 1_555
H17_8 C24_8 1_555 1_555
C26_8 C20_8 1_555 1_555
H18_8 C26_8 1_555 1_555
C28_8 C12_8 1_555 1_555
H20_8 C28_8 1_555 1_555
C31_8 C11_8 1_555 1_555
C38_8 N5_4 1_555 1_555
H27_8 C38_8 1_555 1_555
C39_8 C6_8 1_555 1_555
H28_8 C39_8 1_555 1_555
H29_8 C39_8 1_555 1_555
C40_8 C3_8 1_555 1_555
H30_8 C40_8 1_555 1_555
C42_8 O8_8 1_555 1_555
H31_8 C42_8 1_555 1_555
H32_8 C42_8 1_555 1_555
C43_8 C15_8 1_555 1_555
H33_8 C43_8 1_555 1_555
C45_8 C31_8 1_555 1_555
H35_8 C45_8 1_555 1_555
C46_8 C38_8 1_555 1_555
H36_8 C46_8 1_555 1_555
C49_8 O11_8 1_555 1_555
H39_8 C52_8 1_555 1_555
C53_8 N7_3 1_555 1_555
H40_8 C53_8 1_555 1_555
C3_8 C14_8 1_555 1_555
C6_8 C24_8 1_555 1_555
C6_8 C42_8 1_555 1_555
C28_8 C49_8 1_555 1_555
C43_8 C53_8 1_555 1_555
C45_8 C52_8 1_555 1_555
C46_8 C49_8 1_555 1_555
Co3_4 O1_8 1_555 1_555
O1_8 C22_8 1_555 1_555
O3_8 C7_8 1_555 1_555
O4_8 Co3_4 1_555 1_555
O7_8 C7_8 1_555 1_555
O10_8 Co3_4 1_555 1_555
O14_8 C1_8 1_555 1_555
N6_4 C18_8 1_555 1_555
C1_8 C5_8 1_555 1_555
C5_8 H4_8 1_555 1_555
C7_8 C17_8 1_555 1_555
N4_8 Co3_4 1_555 1_555
C9_8 C1_8 1_555 1_555
H5_8 C9_8 1_555 1_555
C16_8 C5_8 1_555 1_555
H11_8 C16_8 1_555 1_555
C17_8 C32_8 1_555 1_555
H12_8 C18_8 1_555 1_555
C19_8 H13_8 1_555 1_555
C22_8 O10_8 1_555 1_555
H15_8 C23_8 1_555 1_555
C32_8 C19_8 1_555 1_555
H23_8 C32_8 1_555 1_555
C33_8 H24_8 1_555 1_555
C34_8 C17_8 1_555 1_555
H25_8 C34_8 1_555 1_555
C41_8 O14_8 1_555 1_555
C47_8 C16_8 1_555 1_555
C50_8 C9_8 1_555 1_555
H38_8 C50_8 1_555 1_555
N4_8 C23_8 1_555 1_555
C19_8 C41_8 1_555 1_555
C22_8 C47_8 1_555 1_555
C33_8 C34_8 1_555 1_555
C33_8 C41_8 1_555 1_555
C47_8 C50_8 1_555 1_555
O6_8 Co6 1_555 1_555
O6_8 H41_8 1_555 1_555
O6_8 H42_8 1_555 1_555
C8_5 C4_5 1_555 1_555
C10_5 C8_5 1_555 1_555
H6_5 C10_5 1_555 1_555
C30_5 C4_5 1_555 1_555
C36_5 C10_5 1_555 1_555
H26_5 C36_5 1_555 1_555
C37_5 C30_5 1_555 1_555
C36_5 C37_5 1_555 1_555
O9_7 C8_6 1_555 1_555
O16_7 C51_7 1_555 1_555
C4_6 H3_7 1_555 1_555
C8_6 C4_6 1_555 1_555
C10_6 C8_6 1_555 1_555
H6_6 C10_6 1_555 1_555
C25_7 O9_7 1_555 1_555
C27_7 H19_7 1_555 1_555
C29_7 C25_7 1_555 1_555
H21_7 C29_7 1_555 1_555
C30_6 C4_6 1_555 1_555
C35_7 C27_7 1_555 1_555
C36_6 C10_6 1_555 1_555
H26_6 C36_6 1_555 1_555
C37_6 C30_6 1_555 1_555
C44_7 C25_7 1_555 1_555
H34_7 C44_7 1_555 1_555
C48_7 C35_7 1_555 1_555
H37_7 C48_7 1_555 1_555
C51_7 O13_7 1_555 1_555
C27_7 C29_7 1_555 1_555
C35_7 C51_7 1_555 1_555
C36_6 C37_6 1_555 1_555
C44_7 C48_7 1_555 1_555
C8_7 C4_7 1_555 1_555
C10_7 C8_7 1_555 1_555
H6_7 C10_7 1_555 1_555
C30_7 C4_7 1_555 1_555
C36_7 C10_7 1_555 1_555
H26_7 C36_7 1_555 1_555
C37_7 C30_7 1_555 1_555
C36_7 C37_7 1_555 1_555
O9_8 C8_8 1_555 1_555
O16_8 C51_8 1_555 1_555
C4_8 H3_8 1_555 1_555
C8_8 C4_8 1_555 1_555
C10_8 C8_8 1_555 1_555
H6_8 C10_8 1_555 1_555
C25_8 O9_8 1_555 1_555
C27_8 H19_8 1_555 1_555
C29_8 C25_8 1_555 1_555
H21_8 C29_8 1_555 1_555
C30_8 C4_8 1_555 1_555
C35_8 C27_8 1_555 1_555
C36_8 C10_8 1_555 1_555
H26_8 C36_8 1_555 1_555
C37_8 C30_8 1_555 1_555
C44_8 C25_8 1_555 1_555
H34_8 C44_8 1_555 1_555
C48_8 C35_8 1_555 1_555
H37_8 C48_8 1_555 1_555
C51_8 O13_8 1_555 1_555
C27_8 C29_8 1_555 1_555
C35_8 C51_8 1_555 1_555
C36_8 C37_8 1_555 1_555
C44_8 C48_8 1_555 1_555

#END
