
###############################################################################
#
# This file contains modified crystal structure data generated from the
# MOF subset of the Cambridge Structural Database (CSD) v543 
# hosted by the Cambridge Crystallographic Data Centre (CCDC).
#
# This work is licensed under the Creative Commons
# Attribution-NonCommercial-ShareAlike 4.0 International License.
# To view a copy of this license, visit
# http://creativecommons.org/licenses/by-nc-sa/4.0/
# or send a letter to
# Creative Commons, PO Box 1866, Mountain View, CA 94042, USA.
#
# CIF created using the CSD Python API on 29 September 2022
# The structure has been converted into the P1 space group
# The structure has a 3D framework
# The original CSD entry JADTUH is in the orthorhombic crystal system
# The original CSD entry JADTUH is in a Sohncke space group
# The framework has been calculated to contain at least 10.0% void space
# The void calculation uses a probe of radius 1.32A, grid spacing 0.4
# The framework is charged, counterions have been retained in the structure
# H atom positions have been added when not included in the experimental data
#
###############################################################################

data_JADTUH
_chemical_formula_moiety         '(C80 H236 Br20 Mn8 N32 O53 Pd8 Pt8 S16 4-)n'
_symmetry_cell_setting           triclinic
_symmetry_space_group_name_H-M   'P 1'
_symmetry_Int_Tables_number      1
_space_group_name_Hall           'P 1'
loop_
_symmetry_equiv_pos_site_id
_symmetry_equiv_pos_as_xyz
1 x,y,z
_cell_length_a                   9.3853(3)
_cell_length_b                   22.1671(8)
_cell_length_c                   31.1855(12)
_cell_angle_alpha                90
_cell_angle_beta                 90
_cell_angle_gamma                90
_cell_volume                     6487.98
loop_
_atom_site_label
_atom_site_type_symbol
_atom_site_fract_x
_atom_site_fract_y
_atom_site_fract_z
H58 H 0.00578967 0.996296 0.00825059
H50 H 0.0328424 0.986199 0.924226
O9 O 0.2805(10) 0.0470(4) 0.0254(3)
O14 O 0.6107(9) 0.0187(3) 0.0102(2)
H53 H 0.192946 0.0601699 0.0101694
H54 H 0.253811 0.0268236 0.0526708
C1 C 0.4001(12) 0.3595(5) 0.6472(4)
C2 C 0.4024(13) 0.3406(5) 0.5988(3)
H1 H 0.489225 0.315650 0.593317
C3 C 0.4068(13) 0.3973(5) 0.5692(3)
C4 C 0.2839(15) 0.4057(5) 0.6581(4)
H2 H 0.190806 0.389847 0.649386
H3 H 0.283765 0.413295 0.689047
H4 H 0.302855 0.443467 0.642783
C5 C 0.5459(14) 0.3837(6) 0.6606(4)
H5 H 0.619465 0.353979 0.653587
H6 H 0.565339 0.421448 0.645337
H7 H 0.546249 0.391276 0.691601
C6 C 0.1124(13) 0.1017(5) 0.6420(3)
C7 C 0.0342(13) 0.1322(5) 0.6034(3)
C9 C 0.2553(16) 0.0712(6) 0.6298(4)
H9 H 0.315767 0.100279 0.614618
H10 H 0.303935 0.057580 0.655844
H11 H 0.236562 0.036534 0.611139
C10 C 0.0139(16) 0.0584(6) 0.6658(4)
H14 H 0.060517 0.044655 0.692144
C11 C 0.4084(13) 0.0946(5) 0.8378(3)
C12 C 0.4732(13) 0.1206(5) 0.8798(3)
H15 H 0.563684 0.141951 0.872266
C13 C 0.5095(15) 0.0697(5) 0.9124(4)
C14 C 0.5154(16) 0.0558(6) 0.8138(4)
H16 H 0.604220 0.078372 0.809875
H17 H 0.534627 0.019066 0.830311
H18 H 0.476388 0.044828 0.785692
C15 C 0.2668(16) 0.0609(5) 0.8447(4)
H19 H 0.200092 0.087025 0.860174
H20 H 0.225920 0.050002 0.816811
H21 H 0.284159 0.024240 0.861430
C16 C 0.1218(13) 0.3485(5) 0.8414(4)
C17 C 0.0747(13) 0.3216(5) 0.8849(4)
C18 C 0.0377(14) 0.3692(6) 0.9193(4)
C19 C 0.0060(15) 0.3859(6) 0.8190(4)
H23 H 0.043006 0.401498 0.791809
C20 C 0.2585(18) 0.3883(5) 0.8454(4)
H26 H 0.333830 0.365119 0.859656
H27 H 0.290663 0.400306 0.816772
H28 H 0.236803 0.424364 0.862359
O1 O 0.2897(10) 0.4174(4) 0.5562(3)
O2 O 0.5296(10) 0.4169(4) 0.5606(3)
O3 O 0.0871(9) 0.0807(4) 0.5380(2)
O5 O 0.4141(10) 0.0552(4) 0.9379(3)
O6 O 0.6313(10) 0.0474(4) 0.9093(3)
O8 O 0.1223(13) 0.3771(5) 0.9491(4)
O11 O 0.8418(14) 0.0990(5) 0.9729(4)
O12 O 0.9469(12) 0.0038(6) 0.9105(3)
N1 N 0.2755(12) 0.3049(4) 0.5882(3)
H29 H 0.287550 0.288682 0.561666
H30 H 0.199165 0.330136 0.586942
N2 N 0.1229(13) 0.1821(4) 0.5856(3)
H31 H 0.065787 0.206422 0.569575
H32 H 0.189054 0.165802 0.567695
N3 N 0.3730(12) 0.1656(4) 0.8987(3)
H33 H 0.421873 0.188653 0.917861
H34 H 0.304352 0.145408 0.913489
N4 N 0.1844(12) 0.2802(5) 0.9010(3)
H35 H 0.145361 0.257193 0.922172
H36 H 0.255477 0.302418 0.913044
N5 N 0.0706(10) 0.1454(4) 0.7712(3)
H37 H 0.031803 0.108363 0.766676
H38 H 0.011484 0.174271 0.760476
H39 H 0.082365 0.151429 0.799871
N6 N 0.4588(10) 0.1473(5) 0.7102(3)
H40 H 0.489647 0.108379 0.709036
H41 H 0.523210 0.170030 0.724790
H42 H 0.449099 0.161911 0.683079
N7 N 0.4635(10) 0.3034(4) 0.7712(3)
H43 H 0.484829 0.342373 0.777607
H44 H 0.529540 0.288565 0.752574
H45 H 0.464058 0.280935 0.795618
N8 N 0.0646(10) 0.3055(4) 0.7162(3)
H46 H 0.026260 0.342175 0.722327
H47 H 0.007718 0.275935 0.727078
H48 H 0.071719 0.300999 0.687301
Mn2 Mn 0.7724(2) 0.00757(7) 0.95741(5)
Pt1 Pt 0.26486(4) 0.15057(2) 0.74106(2)
Pt2 Pt 0.26428(4) 0.29930(2) 0.74336(2)
Pd1 Pd 0.22863(9) 0.23546(3) 0.63091(2)
Pd2 Pd 0.27420(9) 0.22252(3) 0.85482(2)
S1 S 0.3717(3) 0.28789(11) 0.67671(8)
S2 S 0.1408(3) 0.16694(12) 0.67819(8)
S3 S 0.3850(3) 0.16373(12) 0.80516(8)
S4 S 0.1521(3) 0.28120(12) 0.80806(8)
Mn3 Mn 0.09962(18) 0.01690(8) 0.48452(5)
Mn4 Mn 0.59962(18) 0.48310(8) 0.51548(5)
Mn5 Mn 0.2276(2) 0.50757(7) 0.54259(5)
H49 H 0.968823 0.0451892 0.900261
H51 H 0.758679 0.123152 0.982564
H52 H 0.914033 0.0974616 0.996141
O13 O 0.9265(10) 0.9675(4) 0.0032(3)
O17 O 0.4129(9) 0.9193(4) 0.0380(2)
H59 H 0.877608 0.958837 0.0307586
O10 O 0.1934(10) 0.9471(6) 0.9662(4)
Mn1 Mn 0.40038(18) 0.98310(8) 0.98452(5)
O15 O 0.7103(10) 0.9174(4) 0.9438(3)
O16 O 0.4704(10) 0.9169(4) 0.9394(3)
H56 H 0.196724 0.933487 0.935881
H57 H 0.169201 0.912403 0.984978
O10_2 O 0.3066(10) 0.0529(6) 0.4662(4)
O16_2 O 0.0296(10) 0.0831(4) 0.4394(3)
H56_2 H 0.303276 0.0665129 0.435881
H57_2 H 0.330799 0.0875968 0.484978
C1_2 C 0.0999(12) 0.6405(5) 0.1472(4)
C2_2 C 0.0976(13) 0.6594(5) 0.0988(3)
H1_2 H 0.010775 0.684350 0.093317
C3_2 C 0.0932(13) 0.6027(5) 0.0692(3)
C4_2 C 0.2161(15) 0.5943(5) 0.1581(4)
H2_2 H 0.309194 0.610153 0.149386
H3_2 H 0.216235 0.586705 0.189047
H4_2 H 0.197145 0.556533 0.142783
C6_2 C 0.3876(13) 0.8983(5) 0.1420(3)
C7_2 C 0.4658(13) 0.8678(5) 0.1034(3)
H8 H 0.556799 0.849978 0.114276
C8 C 0.5031(13) 0.9138(5) 0.0678(3)
C9_2 C 0.2447(16) 0.9288(6) 0.1298(4)
H9_2 H 0.184233 0.899721 0.114618
H10_2 H 0.196065 0.942420 0.155844
H11_2 H 0.263438 0.963466 0.111139
C10_2 C 0.4861(16) 0.9416(6) 0.1658(4)
H12 H 0.575109 0.920859 0.173000
H13 H 0.506856 0.976392 0.147440
H14_2 H 0.439483 0.955345 0.192144
C11_2 C 0.0916(13) 0.9054(5) 0.3378(3)
C12_2 C 0.0268(13) 0.8794(5) 0.3798(3)
H18_2 H 0.023612 0.955172 0.285692
C15_2 C 0.2332(16) 0.9391(5) 0.3447(4)
H19_2 H 0.299908 0.912975 0.360174
H20_2 H 0.274080 0.949998 0.316811
H21_2 H 0.215841 0.975760 0.361430
C16_2 C 0.3782(13) 0.6515(5) 0.3414(4)
C17_2 C 0.4253(13) 0.6784(5) 0.3849(4)
H22 H 0.513269 0.702725 0.379561
C18_2 C 0.4623(14) 0.6308(6) 0.4193(4)
C19_2 C 0.4940(15) 0.6141(6) 0.3190(4)
H23_2 H 0.456994 0.598502 0.291809
H24 H 0.577299 0.639564 0.313502
H25 H 0.521581 0.580271 0.337500
C20_2 C 0.2415(18) 0.6117(5) 0.3454(4)
H26_2 H 0.166170 0.634881 0.359656
H27_2 H 0.209337 0.599694 0.316772
H28_2 H 0.263197 0.575636 0.362359
O1_2 O 0.2103(10) 0.5826(4) 0.0562(3)
O4 O 0.6139(10) 0.9425(4) 0.0716(3)
O5_2 O 0.0859(10) 0.9448(4) 0.4379(3)
O7 O 0.5753(11) 0.6007(6) 0.4139(3)
O8_2 O 0.3777(13) 0.6229(5) 0.4491(4)
O9_2 O 0.2195(10) 0.9530(4) 0.5254(3)
N1_2 N 0.2245(12) 0.6951(4) 0.0882(3)
H29_2 H 0.212450 0.711318 0.061666
H30_2 H 0.300835 0.669864 0.086942
N2_2 N 0.3771(13) 0.8179(4) 0.0856(3)
H31_2 H 0.434213 0.793578 0.069575
H32_2 H 0.310946 0.834198 0.067695
N3_2 N 0.1270(12) 0.8344(4) 0.3987(3)
H33_2 H 0.078127 0.811347 0.417861
H34_2 H 0.195648 0.854592 0.413489
N4_2 N 0.3156(12) 0.7198(5) 0.4010(3)
H35_2 H 0.354639 0.742807 0.422172
H36_2 H 0.244523 0.697582 0.413044
N5_2 N 0.4294(10) 0.8546(4) 0.2712(3)
H37_2 H 0.468197 0.891637 0.266676
H38_2 H 0.488516 0.825729 0.260476
H39_2 H 0.417635 0.848571 0.299871
N6_2 N 0.0412(10) 0.8527(5) 0.2102(3)
H40_2 H 0.010353 0.891621 0.209036
H42_2 H 0.050901 0.838089 0.183079
N7_2 N 0.0365(10) 0.6966(4) 0.2712(3)
H43_2 H 0.015171 0.657627 0.277607
H45_2 H 0.035942 0.719065 0.295618
N8_2 N 0.4354(10) 0.6945(4) 0.2162(3)
H46_2 H 0.473740 0.657825 0.222327
H47_2 H 0.492282 0.724065 0.227078
H48_2 H 0.428281 0.699001 0.187301
Pt1_2 Pt 0.23514(4) 0.84943(2) 0.24106(2)
Pt2_2 Pt 0.23572(4) 0.70070(2) 0.24336(2)
Pd1_2 Pd 0.27137(9) 0.76454(3) 0.13091(2)
Pd2_2 Pd 0.22580(9) 0.77748(3) 0.35482(2)
S1_2 S 0.1283(3) 0.71211(11) 0.17671(8)
S2_2 S 0.3592(3) 0.83306(12) 0.17819(8)
S3_2 S 0.1150(3) 0.83627(12) 0.30516(8)
S4_2 S 0.3479(3) 0.71880(12) 0.30806(8)
Mn5_2 Mn 0.2724(2) 0.49243(7) 0.04259(5)
H53_2 H 0.307054 0.93983 0.510169
H54_2 H 0.246189 0.973176 0.552671
H55 H 0.658199 0.628507 0.413021
O13_2 O 0.5735(10) 0.0325(4) 0.5032(3)
O15_2 O 0.7897(10) 0.0826(4) 0.4438(3)
H50_2 H 0.467158 0.0138009 0.424226
H58_2 H 0.49421 0.00370352 0.508251
H59_2 H 0.622392 0.041163 0.530759
C5_2 C 0.9541(14) 0.6163(6) 0.1606(4)
H5_2 H 0.880535 0.646021 0.153587
H6_2 H 0.934661 0.578552 0.145337
H7_2 H 0.953751 0.608724 0.191601
H15_2 H 0.936316 0.858049 0.372266
C13_2 C 0.9905(15) 0.9303(5) 0.4124(4)
C14_2 C 0.9846(16) 0.9442(6) 0.3138(4)
H16_2 H 0.895780 0.921628 0.309875
H17_2 H 0.965373 0.980934 0.330311
O2_2 O 0.9704(10) 0.5831(4) 0.0606(3)
O6_2 O 0.8687(10) 0.9526(4) 0.4093(3)
O11_2 O 0.6582(14) 0.9010(5) 0.4729(4)
O12_2 O 0.5531(12) 0.9962(6) 0.4105(3)
O14_2 O 0.8893(9) 0.9813(3) 0.5102(2)
H41_2 H 0.976790 0.829970 0.224790
H44_2 H 0.970460 0.711435 0.252574
Mn2_2 Mn 0.7276(2) 0.99243(7) 0.45741(5)
Mn4_2 Mn 0.90038(18) 0.51690(8) 0.01548(5)
H49_2 H 0.531177 0.954811 0.400261
H51_2 H 0.741321 0.876848 0.482564
H52_2 H 0.585967 0.902538 0.496141
C5_3 C 0.0459(14) 0.1163(6) 0.3394(4)
H5_3 H 0.119465 0.146021 0.346413
H6_3 H 0.065339 0.078552 0.354663
H7_3 H 0.046249 0.108724 0.308399
H15_3 H 0.063684 0.358049 0.127734
C13_3 C 0.0095(15) 0.4303(5) 0.0876(4)
C14_3 C 0.0154(16) 0.4442(6) 0.1862(4)
H16_3 H 0.104220 0.421628 0.190125
H17_3 H 0.034627 0.480934 0.169689
O6_3 O 0.1313(10) 0.4526(4) 0.0907(3)
O11_3 O 0.3418(14) 0.4010(5) 0.0271(4)
O12_3 O 0.4469(12) 0.4962(6) 0.0895(3)
H41_3 H 0.023210 0.329970 0.275210
H44_3 H 0.029540 0.211435 0.247426
H49_3 H 0.468823 0.454811 0.0997386
H50_3 H 0.532842 0.513801 0.075774
H51_3 H 0.258679 0.376848 0.0174359
H52_3 H 0.414033 0.402538 0.00385909
C1_3 C 0.9001(12) 0.1405(5) 0.3528(4)
C2_3 C 0.9024(13) 0.1594(5) 0.4012(3)
H1_3 H 0.989225 0.184350 0.406683
C3_3 C 0.9068(13) 0.1027(5) 0.4308(3)
C4_3 C 0.7839(15) 0.0943(5) 0.3419(4)
H2_3 H 0.690806 0.110153 0.350614
H3_3 H 0.783765 0.086705 0.310953
H4_3 H 0.802855 0.056533 0.357217
C6_3 C 0.6124(13) 0.3983(5) 0.3580(3)
C7_3 C 0.5342(13) 0.3678(5) 0.3966(3)
H8_2 H 0.443201 0.349978 0.385724
C8_2 C 0.4969(13) 0.4138(5) 0.4322(3)
C9_3 C 0.7553(16) 0.4288(6) 0.3702(4)
H9_3 H 0.815767 0.399721 0.385382
H10_3 H 0.803935 0.442420 0.344156
H11_3 H 0.736562 0.463466 0.388861
C10_3 C 0.5139(16) 0.4416(6) 0.3342(4)
H12_2 H 0.424891 0.420859 0.327000
H13_2 H 0.493144 0.476392 0.352560
H14_3 H 0.560517 0.455345 0.307856
C11_3 C 0.9084(13) 0.4054(5) 0.1622(3)
C12_3 C 0.9732(13) 0.3794(5) 0.1202(3)
H18_3 H 0.976388 0.455172 0.214308
C15_3 C 0.7668(16) 0.4391(5) 0.1553(4)
H19_3 H 0.700092 0.412975 0.139826
H20_3 H 0.725920 0.449998 0.183189
H21_3 H 0.784159 0.475760 0.138570
C16_3 C 0.6218(13) 0.1515(5) 0.1586(4)
C17_3 C 0.5747(13) 0.1784(5) 0.1151(4)
H22_2 H 0.486731 0.202725 0.120439
C18_3 C 0.5377(14) 0.1308(6) 0.0807(4)
C19_3 C 0.5060(15) 0.1141(6) 0.1810(4)
H23_3 H 0.543006 0.098502 0.208191
H24_2 H 0.422701 0.139564 0.186498
H25_2 H 0.478419 0.080271 0.162500
C20_3 C 0.7585(18) 0.1117(5) 0.1546(4)
H26_3 H 0.833830 0.134881 0.140344
H27_3 H 0.790663 0.099694 0.183228
H28_3 H 0.736803 0.075636 0.137641
O3_2 O 0.5871(9) 0.4193(4) 0.4620(2)
O4_2 O 0.3861(10) 0.4425(4) 0.4284(3)
O5_3 O 0.9141(10) 0.4448(4) 0.0621(3)
O7_2 O 0.4247(11) 0.1007(6) 0.0861(3)
O8_3 O 0.6223(13) 0.1229(5) 0.0509(4)
O10_3 O 0.6934(10) 0.5529(6) 0.0338(4)
N1_3 N 0.7755(12) 0.1951(4) 0.4118(3)
H29_3 H 0.787550 0.211318 0.438334
H30_3 H 0.699165 0.169864 0.413058
N2_3 N 0.6229(13) 0.3179(4) 0.4144(3)
H31_3 H 0.565787 0.293578 0.430425
H32_3 H 0.689054 0.334198 0.432305
N3_3 N 0.8730(12) 0.3344(4) 0.1013(3)
H33_3 H 0.921873 0.311347 0.082139
H34_3 H 0.804352 0.354592 0.086511
N4_3 N 0.6844(12) 0.2198(5) 0.0990(3)
H35_3 H 0.645361 0.242807 0.077828
H36_3 H 0.755477 0.197582 0.086956
N5_3 N 0.5706(10) 0.3546(4) 0.2288(3)
H37_3 H 0.531803 0.391637 0.233324
H38_3 H 0.511484 0.325729 0.239524
H39_3 H 0.582365 0.348571 0.200129
N6_3 N 0.9588(10) 0.3527(5) 0.2898(3)
H40_3 H 0.989647 0.391621 0.290964
H42_3 H 0.949099 0.338089 0.316921
N7_3 N 0.9635(10) 0.1966(4) 0.2288(3)
H43_3 H 0.984829 0.157627 0.222393
H45_3 H 0.964058 0.219065 0.204382
N8_3 N 0.5646(10) 0.1945(4) 0.2838(3)
H46_3 H 0.526260 0.157825 0.277673
H47_3 H 0.507718 0.224065 0.272922
H48_3 H 0.571719 0.199001 0.312699
Pt1_3 Pt 0.76486(4) 0.34943(2) 0.25894(2)
Pt2_3 Pt 0.76428(4) 0.20070(2) 0.25664(2)
Pd1_3 Pd 0.72863(9) 0.26454(3) 0.36909(2)
Pd2_3 Pd 0.77420(9) 0.27748(3) 0.14518(2)
S1_3 S 0.8717(3) 0.21211(11) 0.32329(8)
S2_3 S 0.6408(3) 0.33306(12) 0.32181(8)
S3_3 S 0.8850(3) 0.33627(12) 0.19484(8)
S4_3 S 0.6521(3) 0.21880(12) 0.19194(8)
H55_2 H 0.341801 0.128507 0.086979
H56_3 H 0.696724 0.566513 0.0641194
H57_3 H 0.669201 0.587597 0.0150224
O9_3 O 0.7805(10) 0.4530(4) 0.9746(3)
O17_2 O 0.9129(9) 0.5807(4) 0.9620(2)
H53_3 H 0.692946 0.43983 0.989831
H54_3 H 0.753811 0.473176 0.947329
C1_4 C 0.5999(12) 0.8595(5) 0.8528(4)
C2_4 C 0.5976(13) 0.8406(5) 0.9012(3)
H1_4 H 0.510775 0.815650 0.906683
C3_4 C 0.5932(13) 0.8973(5) 0.9308(3)
C4_4 C 0.7161(15) 0.9057(5) 0.8419(4)
H2_4 H 0.809194 0.889847 0.850614
H3_4 H 0.716235 0.913295 0.810953
H4_4 H 0.697145 0.943467 0.857217
C5_4 C 0.4541(14) 0.8837(6) 0.8394(4)
H5_4 H 0.380535 0.853979 0.846413
H6_4 H 0.434661 0.921448 0.854663
H7_4 H 0.453751 0.891276 0.808399
C6_4 C 0.8876(13) 0.6017(5) 0.8580(3)
C7_4 C 0.9658(13) 0.6322(5) 0.8966(3)
C9_4 C 0.7447(16) 0.5712(6) 0.8702(4)
H9_4 H 0.684233 0.600279 0.885382
H10_4 H 0.696065 0.557580 0.844156
H11_4 H 0.763438 0.536534 0.888861
C10_4 C 0.9861(16) 0.5584(6) 0.8342(4)
H14_4 H 0.939483 0.544655 0.807856
C11_4 C 0.5916(13) 0.5946(5) 0.6622(3)
C12_4 C 0.5268(13) 0.6206(5) 0.6202(3)
H15_4 H 0.436316 0.641951 0.627734
C13_4 C 0.4905(15) 0.5697(5) 0.5876(4)
C14_4 C 0.4846(16) 0.5558(6) 0.6862(4)
H16_4 H 0.395780 0.578372 0.690125
H17_4 H 0.465373 0.519066 0.669689
H18_4 H 0.523612 0.544828 0.714308
C15_4 C 0.7332(16) 0.5609(5) 0.6553(4)
H19_4 H 0.799908 0.587025 0.639826
H20_4 H 0.774080 0.550002 0.683189
H21_4 H 0.715841 0.524240 0.638570
C16_4 C 0.8782(13) 0.8485(5) 0.6586(4)
C17_4 C 0.9253(13) 0.8216(5) 0.6151(4)
C18_4 C 0.9623(14) 0.8692(6) 0.5807(4)
C19_4 C 0.9940(15) 0.8859(6) 0.6810(4)
H23_4 H 0.956994 0.901498 0.708191
C20_4 C 0.7415(18) 0.8883(5) 0.6546(4)
H26_4 H 0.666170 0.865119 0.640344
H27_4 H 0.709337 0.900306 0.683228
H28_4 H 0.763197 0.924364 0.637641
O5_4 O 0.5859(10) 0.5552(4) 0.5621(3)
O6_4 O 0.3687(10) 0.5474(4) 0.5907(3)
O8_4 O 0.8777(13) 0.8771(5) 0.5509(4)
O9_4 O 0.7195(10) 0.5470(4) 0.4746(3)
O10_4 O 0.8066(10) 0.4471(6) 0.5338(4)
O11_4 O 0.1582(14) 0.5990(5) 0.5271(4)
O12_4 O 0.0531(12) 0.5038(6) 0.5895(3)
O13_3 O 0.0735(10) 0.4675(4) 0.4968(3)
O14_3 O 0.3893(9) 0.5187(3) 0.4898(2)
N1_4 N 0.7245(12) 0.8049(4) 0.9118(3)
H29_4 H 0.712450 0.788682 0.938334
H30_4 H 0.800835 0.830136 0.913058
N2_4 N 0.8771(13) 0.6821(4) 0.9144(3)
H31_4 H 0.934213 0.706422 0.930425
H32_4 H 0.810946 0.665802 0.932305
N3_4 N 0.6270(12) 0.6656(4) 0.6013(3)
H33_4 H 0.578127 0.688653 0.582139
H34_4 H 0.695648 0.645408 0.586511
N4_4 N 0.8156(12) 0.7802(5) 0.5990(3)
H35_4 H 0.854639 0.757193 0.577828
H36_4 H 0.744523 0.802418 0.586956
N5_4 N 0.9294(10) 0.6454(4) 0.7288(3)
H37_4 H 0.968197 0.608363 0.733324
H38_4 H 0.988516 0.674271 0.739524
H39_4 H 0.917635 0.651429 0.700129
N6_4 N 0.5412(10) 0.6473(5) 0.7898(3)
H40_4 H 0.510353 0.608379 0.790964
H41_4 H 0.476790 0.670030 0.775210
H42_4 H 0.550901 0.661911 0.816921
N7_4 N 0.5365(10) 0.8034(4) 0.7288(3)
H43_4 H 0.515171 0.842373 0.722393
H44_4 H 0.470460 0.788565 0.747426
H45_4 H 0.535942 0.780935 0.704382
N8_4 N 0.9354(10) 0.8055(4) 0.7838(3)
H46_4 H 0.973740 0.842175 0.777673
H47_4 H 0.992282 0.775935 0.772922
H48_4 H 0.928281 0.800999 0.812699
Pt1_4 Pt 0.73514(4) 0.65057(2) 0.75894(2)
Pt2_4 Pt 0.73572(4) 0.79930(2) 0.75664(2)
Pd1_4 Pd 0.77137(9) 0.73546(3) 0.86909(2)
Pd2_4 Pd 0.72580(9) 0.72252(3) 0.64518(2)
S1_4 S 0.6283(3) 0.78789(11) 0.82329(8)
S2_4 S 0.8592(3) 0.66694(12) 0.82181(8)
S3_4 S 0.6150(3) 0.66373(12) 0.69484(8)
S4_4 S 0.8479(3) 0.78120(12) 0.69194(8)
H49_4 H 0.0311775 0.545189 0.599739
H51_4 H 0.241321 0.623152 0.517436
H52_4 H 0.0859675 0.597462 0.503859
H53_4 H 0.807054 0.56017 0.489831
H54_4 H 0.746189 0.526824 0.447329
H56_4 H 0.803276 0.433487 0.564119
H57_4 H 0.830799 0.412403 0.515022
H59_3 H 0.122392 0.458837 0.469241
H8_3 H 0.943201 0.150022 0.614276
C8_3 C 0.9969(13) 0.0862(5) 0.5678(3)
H12_3 H 0.924891 0.079141 0.673000
H13_3 H 0.993144 0.023608 0.647440
H22_3 H 0.986731 0.297275 0.879561
H24_3 H 0.922701 0.360436 0.813502
H25_3 H 0.978419 0.419729 0.837500
O4_3 O 0.8861(10) 0.0575(4) 0.5716(3)
O7_3 O 0.9247(11) 0.3993(6) 0.9139(3)
H55_3 H 0.841801 0.371493 0.913021
O13_4 O 0.4265(10) 0.5325(4) 0.9968(3)
O14_4 O 0.1107(9) 0.4813(3) 0.9898(2)
H58_3 H 0.50579 0.503704 0.991749
H59_4 H 0.377608 0.541163 0.969241
H8_4 H 0.056799 0.650022 0.885724
C8_4 C 0.0031(13) 0.5862(5) 0.9322(3)
H12_4 H 0.075109 0.579141 0.827000
H13_4 H 0.006856 0.523608 0.852560
H22_4 H 0.013269 0.797275 0.620439
H24_4 H 0.077299 0.860436 0.686498
H25_4 H 0.021581 0.919729 0.662500
O4_4 O 0.1139(10) 0.5575(4) 0.9284(3)
O7_4 O 0.0753(11) 0.8993(6) 0.5861(3)
H55_4 H 0.158199 0.871493 0.586979
H50_4 H 0.967158 0.486199 0.575774
H58_4 H 0.99421 0.496296 0.491749
Br1 Br 0.76500(13) 0.22355(7) 0.74434(5)
Br1_2 Br 0.73500(13) 0.77645(7) 0.24434(5)
Br1_3 Br 0.26500(13) 0.27645(7) 0.25566(5)
Br1_4 Br 0.23500(13) 0.72355(7) 0.75566(5)
Br2 Br 0.63029(16) 0.44404(7) 0.77867(5)
Br2_2 Br 0.86971(16) 0.55596(7) 0.27867(5)
Br2_3 Br 0.13029(16) 0.05596(7) 0.22133(5)
Br2_4 Br 0.36971(16) 0.94404(7) 0.72133(5)
Br3 Br 0.9219(2) 0.36584(10) 0.61421(7)
Br3_2 Br 0.5781(2) 0.63416(10) 0.11421(7)
Br3_3 Br 0.4219(2) 0.13416(10) 0.38579(7)
Br3_4 Br 0.0781(2) 0.86584(10) 0.88579(7)
Br4 Br 0.9154(5) 0.2303(2) 0.50724(12)
Br4_2 Br 0.5846(5) 0.7697(2) 0.00724(12)
Br4_3 Br 0.4154(5) 0.2697(2) 0.49276(12)
Br4_4 Br 0.0846(5) 0.7303(2) 0.99276(12)
Br5 Br 0.1381(4) 0.17326(15) 0.98011(12)
Br5_2 Br 0.3619(4) 0.82674(15) 0.48011(12)
Br5_3 Br 0.6381(4) 0.32674(15) 0.01989(12)
Br5_4 Br 0.8619(4) 0.67326(15) 0.51989(12)
loop_
_geom_bond_atom_site_label_1
_geom_bond_atom_site_label_2
_geom_bond_site_symmetry_1
_geom_bond_site_symmetry_2
O9 H53 1_555 1_555
O9 H54 1_555 1_555
C1 C2 1_555 1_555
C2 H1 1_555 1_555
C3 C2 1_555 1_555
C4 C1 1_555 1_555
H2 C4 1_555 1_555
H3 C4 1_555 1_555
H4 C4 1_555 1_555
C5 C1 1_555 1_555
H5 C5 1_555 1_555
H6 C5 1_555 1_555
H7 C5 1_555 1_555
C6 C7 1_555 1_555
C9 C6 1_555 1_555
H9 C9 1_555 1_555
H10 C9 1_555 1_555
H11 C9 1_555 1_555
C10 C6 1_555 1_555
H14 C10 1_555 1_555
C11 C12 1_555 1_555
C12 H15 1_555 1_555
C13 C12 1_555 1_555
C14 C11 1_555 1_555
H16 C14 1_555 1_555
H17 C14 1_555 1_555
H18 C14 1_555 1_555
C15 C11 1_555 1_555
H19 C15 1_555 1_555
H20 C15 1_555 1_555
H21 C15 1_555 1_555
C16 C17 1_555 1_555
C18 C17 1_555 1_555
C19 C16 1_555 1_555
H23 C19 1_555 1_555
C20 C16 1_555 1_555
H26 C20 1_555 1_555
H27 C20 1_555 1_555
H28 C20 1_555 1_555
O1 C3 1_555 1_555
O2 C3 1_555 1_555
O5 C13 1_555 1_555
O6 C13 1_555 1_555
O8 C18 1_555 1_555
O11 Mn2 1_555 1_555
O12 Mn2 1_555 1_555
N1 C2 1_555 1_555
H29 N1 1_555 1_555
H30 N1 1_555 1_555
N2 C7 1_555 1_555
H31 N2 1_555 1_555
H32 N2 1_555 1_555
N3 C12 1_555 1_555
H33 N3 1_555 1_555
H34 N3 1_555 1_555
N4 C17 1_555 1_555
H35 N4 1_555 1_555
H36 N4 1_555 1_555
N5 H37 1_555 1_555
H38 N5 1_555 1_555
H39 N5 1_555 1_555
N6 H40 1_555 1_555
H41 N6 1_555 1_555
H42 N6 1_555 1_555
N7 H43 1_555 1_555
H44 N7 1_555 1_555
H45 N7 1_555 1_555
N8 H46 1_555 1_555
H47 N8 1_555 1_555
H48 N8 1_555 1_555
Mn2 O6 1_555 1_555
Pt1 N5 1_555 1_555
Pt2 N7 1_555 1_555
Pd1 N1 1_555 1_555
Pd2 N3 1_555 1_555
S1 C1 1_555 1_555
S2 C6 1_555 1_555
S3 C11 1_555 1_555
S4 C16 1_555 1_555
Mn3 O3 1_555 1_555
Mn4 O2 1_555 1_555
Mn5 O1 1_555 1_555
N2 Pd1 1_555 1_555
N4 Pd2 1_555 1_555
N6 Pt1 1_555 1_555
N8 Pt2 1_555 1_555
Pt1 S2 1_555 1_555
Pt1 S3 1_555 1_555
Pt2 S1 1_555 1_555
Pt2 S4 1_555 1_555
Pd1 S1 1_555 1_555
Pd1 S2 1_555 1_555
Pd2 S3 1_555 1_555
Pd2 S4 1_555 1_555
O12 H49 1_555 1_555
O11 H51 1_555 1_555
O11 H52 1_555 1_555
O13 H59 1_555 1_555
O10 Mn1 1_555 1_555
O16 Mn1 1_555 1_555
O10 H56 1_555 1_555
O10 H57 1_555 1_555
O10_2 Mn3 1_555 1_555
O16_2 Mn3 1_555 1_555
O10_2 H56_2 1_555 1_555
O10_2 H57_2 1_555 1_555
C1_2 C2_2 1_555 1_555
C2_2 H1_2 1_555 1_555
C3_2 C2_2 1_555 1_555
C4_2 C1_2 1_555 1_555
H2_2 C4_2 1_555 1_555
H3_2 C4_2 1_555 1_555
H4_2 C4_2 1_555 1_555
C6_2 C7_2 1_555 1_555
C7_2 H8 1_555 1_555
C8 C7_2 1_555 1_555
C9_2 C6_2 1_555 1_555
H9_2 C9_2 1_555 1_555
H10_2 C9_2 1_555 1_555
H11_2 C9_2 1_555 1_555
C10_2 C6_2 1_555 1_555
H12 C10_2 1_555 1_555
H13 C10_2 1_555 1_555
H14_2 C10_2 1_555 1_555
C11_2 C12_2 1_555 1_555
C15_2 C11_2 1_555 1_555
H19_2 C15_2 1_555 1_555
H20_2 C15_2 1_555 1_555
H21_2 C15_2 1_555 1_555
C16_2 C17_2 1_555 1_555
C17_2 H22 1_555 1_555
C18_2 C17_2 1_555 1_555
C19_2 C16_2 1_555 1_555
H23_2 C19_2 1_555 1_555
H24 C19_2 1_555 1_555
H25 C19_2 1_555 1_555
C20_2 C16_2 1_555 1_555
H26_2 C20_2 1_555 1_555
H27_2 C20_2 1_555 1_555
H28_2 C20_2 1_555 1_555
O1_2 C3_2 1_555 1_555
O17 C8 1_555 1_555
O4 C8 1_555 1_555
O7 C18_2 1_555 1_555
O8_2 C18_2 1_555 1_555
N1_2 C2_2 1_555 1_555
H29_2 N1_2 1_555 1_555
H30_2 N1_2 1_555 1_555
N2_2 C7_2 1_555 1_555
H31_2 N2_2 1_555 1_555
H32_2 N2_2 1_555 1_555
N3_2 C12_2 1_555 1_555
H33_2 N3_2 1_555 1_555
H34_2 N3_2 1_555 1_555
N4_2 C17_2 1_555 1_555
H35_2 N4_2 1_555 1_555
H36_2 N4_2 1_555 1_555
N5_2 H37_2 1_555 1_555
H38_2 N5_2 1_555 1_555
H39_2 N5_2 1_555 1_555
N6_2 H40_2 1_555 1_555
H42_2 N6_2 1_555 1_555
N7_2 H43_2 1_555 1_555
H45_2 N7_2 1_555 1_555
N8_2 H46_2 1_555 1_555
H47_2 N8_2 1_555 1_555
H48_2 N8_2 1_555 1_555
Pt1_2 N5_2 1_555 1_555
Pt2_2 N7_2 1_555 1_555
Pd1_2 N1_2 1_555 1_555
Pd2_2 N3_2 1_555 1_555
S1_2 C1_2 1_555 1_555
S2_2 C6_2 1_555 1_555
S3_2 C11_2 1_555 1_555
S4_2 C16_2 1_555 1_555
Mn5_2 O1_2 1_555 1_555
N2_2 Pd1_2 1_555 1_555
N4_2 Pd2_2 1_555 1_555
N6_2 Pt1_2 1_555 1_555
N8_2 Pt2_2 1_555 1_555
Pt1_2 S2_2 1_555 1_555
Pt1_2 S3_2 1_555 1_555
Pt2_2 S1_2 1_555 1_555
Pt2_2 S4_2 1_555 1_555
Pd1_2 S1_2 1_555 1_555
Pd1_2 S2_2 1_555 1_555
Pd2_2 S3_2 1_555 1_555
Pd2_2 S4_2 1_555 1_555
O9_2 H53_2 1_555 1_555
O9_2 H54_2 1_555 1_555
O7 H55 1_555 1_555
O13_2 H58_2 1_555 1_555
O13_2 H59_2 1_555 1_555
H5_2 C5_2 1_555 1_555
H6_2 C5_2 1_555 1_555
H7_2 C5_2 1_555 1_555
H16_2 C14_2 1_555 1_555
H17_2 C14_2 1_555 1_555
O6_2 C13_2 1_555 1_555
O11_2 Mn2_2 1_555 1_555
O12_2 Mn2_2 1_555 1_555
Mn2_2 O6_2 1_555 1_555
Mn4_2 O2_2 1_555 1_555
O14_2 Mn2_2 1_555 1_555
O12_2 H49_2 1_555 1_555
O11_2 H51_2 1_555 1_555
O11_2 H52_2 1_555 1_555
H5_3 C5_3 1_555 1_555
H6_3 C5_3 1_555 1_555
H7_3 C5_3 1_555 1_555
H16_3 C14_3 1_555 1_555
H17_3 C14_3 1_555 1_555
O6_3 C13_3 1_555 1_555
O11_3 Mn5_2 1_555 1_555
O12_3 Mn5_2 1_555 1_555
Mn5_2 O6_3 1_555 1_555
O12_3 H49_3 1_555 1_555
O12_3 H50_3 1_555 1_555
O11_3 H51_3 1_555 1_555
O11_3 H52_3 1_555 1_555
C1_3 C2_3 1_555 1_555
C2_3 H1_3 1_555 1_555
C3_3 C2_3 1_555 1_555
C4_3 C1_3 1_555 1_555
H2_3 C4_3 1_555 1_555
H3_3 C4_3 1_555 1_555
H4_3 C4_3 1_555 1_555
C6_3 C7_3 1_555 1_555
C7_3 H8_2 1_555 1_555
C8_2 C7_3 1_555 1_555
C9_3 C6_3 1_555 1_555
H9_3 C9_3 1_555 1_555
H10_3 C9_3 1_555 1_555
H11_3 C9_3 1_555 1_555
C10_3 C6_3 1_555 1_555
H12_2 C10_3 1_555 1_555
H13_2 C10_3 1_555 1_555
H14_3 C10_3 1_555 1_555
C11_3 C12_3 1_555 1_555
C15_3 C11_3 1_555 1_555
H19_3 C15_3 1_555 1_555
H20_3 C15_3 1_555 1_555
H21_3 C15_3 1_555 1_555
C16_3 C17_3 1_555 1_555
C17_3 H22_2 1_555 1_555
C18_3 C17_3 1_555 1_555
C19_3 C16_3 1_555 1_555
H23_3 C19_3 1_555 1_555
H24_2 C19_3 1_555 1_555
H25_2 C19_3 1_555 1_555
C20_3 C16_3 1_555 1_555
H26_3 C20_3 1_555 1_555
H27_3 C20_3 1_555 1_555
H28_3 C20_3 1_555 1_555
O15_2 C3_3 1_555 1_555
O3_2 C8_2 1_555 1_555
O4_2 C8_2 1_555 1_555
O7_2 C18_3 1_555 1_555
O8_3 C18_3 1_555 1_555
O10_3 Mn4_2 1_555 1_555
N1_3 C2_3 1_555 1_555
H29_3 N1_3 1_555 1_555
H30_3 N1_3 1_555 1_555
N2_3 C7_3 1_555 1_555
H31_3 N2_3 1_555 1_555
H32_3 N2_3 1_555 1_555
N3_3 C12_3 1_555 1_555
H33_3 N3_3 1_555 1_555
H34_3 N3_3 1_555 1_555
N4_3 C17_3 1_555 1_555
H35_3 N4_3 1_555 1_555
H36_3 N4_3 1_555 1_555
N5_3 H37_3 1_555 1_555
H38_3 N5_3 1_555 1_555
H39_3 N5_3 1_555 1_555
N6_3 H40_3 1_555 1_555
H42_3 N6_3 1_555 1_555
N7_3 H43_3 1_555 1_555
H45_3 N7_3 1_555 1_555
N8_3 H46_3 1_555 1_555
H47_3 N8_3 1_555 1_555
H48_3 N8_3 1_555 1_555
Mn4_2 O5_3 1_555 1_555
Pt1_3 N5_3 1_555 1_555
Pt2_3 N7_3 1_555 1_555
Pd1_3 N1_3 1_555 1_555
Pd2_3 N3_3 1_555 1_555
S1_3 C1_3 1_555 1_555
S2_3 C6_3 1_555 1_555
S3_3 C11_3 1_555 1_555
S4_3 C16_3 1_555 1_555
Mn4 O3_2 1_555 1_555
N2_3 Pd1_3 1_555 1_555
N4_3 Pd2_3 1_555 1_555
N6_3 Pt1_3 1_555 1_555
N8_3 Pt2_3 1_555 1_555
Pt1_3 S2_3 1_555 1_555
Pt1_3 S3_3 1_555 1_555
Pt2_3 S1_3 1_555 1_555
Pt2_3 S4_3 1_555 1_555
Pd1_3 S1_3 1_555 1_555
Pd1_3 S2_3 1_555 1_555
Pd2_3 S3_3 1_555 1_555
Pd2_3 S4_3 1_555 1_555
O7_2 H55_2 1_555 1_555
O10_3 H56_3 1_555 1_555
O10_3 H57_3 1_555 1_555
O9_3 H53_3 1_555 1_555
O9_3 H54_3 1_555 1_555
C1_4 C2_4 1_555 1_555
C2_4 H1_4 1_555 1_555
C3_4 C2_4 1_555 1_555
C4_4 C1_4 1_555 1_555
H2_4 C4_4 1_555 1_555
H3_4 C4_4 1_555 1_555
H4_4 C4_4 1_555 1_555
C5_4 C1_4 1_555 1_555
H5_4 C5_4 1_555 1_555
H6_4 C5_4 1_555 1_555
H7_4 C5_4 1_555 1_555
C6_4 C7_4 1_555 1_555
C9_4 C6_4 1_555 1_555
H9_4 C9_4 1_555 1_555
H10_4 C9_4 1_555 1_555
H11_4 C9_4 1_555 1_555
C10_4 C6_4 1_555 1_555
H14_4 C10_4 1_555 1_555
C11_4 C12_4 1_555 1_555
C12_4 H15_4 1_555 1_555
C13_4 C12_4 1_555 1_555
C14_4 C11_4 1_555 1_555
H16_4 C14_4 1_555 1_555
H17_4 C14_4 1_555 1_555
H18_4 C14_4 1_555 1_555
C15_4 C11_4 1_555 1_555
H19_4 C15_4 1_555 1_555
H20_4 C15_4 1_555 1_555
H21_4 C15_4 1_555 1_555
C16_4 C17_4 1_555 1_555
C18_4 C17_4 1_555 1_555
C19_4 C16_4 1_555 1_555
H23_4 C19_4 1_555 1_555
C20_4 C16_4 1_555 1_555
H26_4 C20_4 1_555 1_555
H27_4 C20_4 1_555 1_555
H28_4 C20_4 1_555 1_555
O15 C3_4 1_555 1_555
O16 C3_4 1_555 1_555
O5_4 C13_4 1_555 1_555
O6_4 C13_4 1_555 1_555
O8_4 C18_4 1_555 1_555
O9_4 Mn4 1_555 1_555
O10_4 Mn4 1_555 1_555
O11_4 Mn5 1_555 1_555
O12_4 Mn5 1_555 1_555
O13_3 Mn5 1_555 1_555
O14_3 Mn4 1_555 1_555
N1_4 C2_4 1_555 1_555
H29_4 N1_4 1_555 1_555
H30_4 N1_4 1_555 1_555
N2_4 C7_4 1_555 1_555
H31_4 N2_4 1_555 1_555
H32_4 N2_4 1_555 1_555
N3_4 C12_4 1_555 1_555
H33_4 N3_4 1_555 1_555
H34_4 N3_4 1_555 1_555
N4_4 C17_4 1_555 1_555
H35_4 N4_4 1_555 1_555
H36_4 N4_4 1_555 1_555
N5_4 H37_4 1_555 1_555
H38_4 N5_4 1_555 1_555
H39_4 N5_4 1_555 1_555
N6_4 H40_4 1_555 1_555
H41_4 N6_4 1_555 1_555
H42_4 N6_4 1_555 1_555
N7_4 H43_4 1_555 1_555
H44_4 N7_4 1_555 1_555
H45_4 N7_4 1_555 1_555
N8_4 H46_4 1_555 1_555
H47_4 N8_4 1_555 1_555
H48_4 N8_4 1_555 1_555
Mn4 O5_4 1_555 1_555
Mn5 O6_4 1_555 1_555
Pt1_4 N5_4 1_555 1_555
Pt2_4 N7_4 1_555 1_555
Pd1_4 N1_4 1_555 1_555
Pd2_4 N3_4 1_555 1_555
S1_4 C1_4 1_555 1_555
S2_4 C6_4 1_555 1_555
S3_4 C11_4 1_555 1_555
S4_4 C16_4 1_555 1_555
O14_3 Mn5 1_555 1_555
N2_4 Pd1_4 1_555 1_555
N4_4 Pd2_4 1_555 1_555
N6_4 Pt1_4 1_555 1_555
N8_4 Pt2_4 1_555 1_555
Pt1_4 S2_4 1_555 1_555
Pt1_4 S3_4 1_555 1_555
Pt2_4 S1_4 1_555 1_555
Pt2_4 S4_4 1_555 1_555
Pd1_4 S1_4 1_555 1_555
Pd1_4 S2_4 1_555 1_555
Pd2_4 S3_4 1_555 1_555
Pd2_4 S4_4 1_555 1_555
O12_4 H49_4 1_555 1_555
O11_4 H51_4 1_555 1_555
O11_4 H52_4 1_555 1_555
O9_4 H53_4 1_555 1_555
O9_4 H54_4 1_555 1_555
O10_4 H56_4 1_555 1_555
O10_4 H57_4 1_555 1_555
O13_3 H59_3 1_555 1_555
O4_3 C8_3 1_555 1_555
O7_3 H55_3 1_555 1_555
O13_4 H58_3 1_555 1_555
O13_4 H59_4 1_555 1_555
O4_4 C8_4 1_555 1_555
O7_4 H55_4 1_555 1_555

#END
