
###############################################################################
#
# This file contains modified crystal structure data generated from the
# MOF subset of the Cambridge Structural Database (CSD) v543 
# hosted by the Cambridge Crystallographic Data Centre (CCDC).
#
# This work is licensed under the Creative Commons
# Attribution-NonCommercial-ShareAlike 4.0 International License.
# To view a copy of this license, visit
# http://creativecommons.org/licenses/by-nc-sa/4.0/
# or send a letter to
# Creative Commons, PO Box 1866, Mountain View, CA 94042, USA.
#
# CIF created using the CSD Python API on 29 September 2022
# The structure has been converted into the P1 space group
# The structure has a 3D framework
# The original CSD entry JADXUL is in the monoclinic crystal system
# The framework has been calculated to contain at least 10.0% void space
# The void calculation uses a probe of radius 1.32A, grid spacing 0.4
# The framework is charged, counterions have been retained in the structure
#
###############################################################################

data_JADXUL
_chemical_formula_moiety         '(C128 H64 Fe8 O61 Zn4 4-)n'
_symmetry_cell_setting           triclinic
_symmetry_space_group_name_H-M   'P 1'
_symmetry_Int_Tables_number      1
_space_group_name_Hall           'P 1'
loop_
_symmetry_equiv_pos_site_id
_symmetry_equiv_pos_as_xyz
1 x,y,z
_cell_length_a                   33.219(5)
_cell_length_b                   9.6325(14)
_cell_length_c                   18.346(3)
_cell_angle_alpha                90
_cell_angle_beta                 93.938(2)
_cell_angle_gamma                90
_cell_volume                     5856.53
loop_
_atom_site_label
_atom_site_type_symbol
_atom_site_fract_x
_atom_site_fract_y
_atom_site_fract_z
Zn5 Zn 0.2500 0.7500 0.0000
Zn1 Zn 0.2500 0.2500 0.5000
Fe1 Fe 0.15224(2) 0.20299(6) 0.48315(3)
O1 O 0.21511(9) 0.3883(4) 0.55496(18)
O2 O 0.15284(11) 0.3159(4) 0.5727(2)
O3 O 0.15906(11) 0.6748(4) 0.90045(19)
O4 O 0.22619(10) 0.6888(4) 0.89920(18)
O5 O 0.20178(9) 0.0909(4) 0.50406(18)
O7 O 0.09614(13) 0.1496(6) 0.4642(3)
O8 O 0.10929(17) 0.0116(7) 0.5597(3)
C1 C 0.18672(14) 0.4511(5) 0.6650(3)
C2 C 0.22296(16) 0.5044(6) 0.6944(3)
H1 H 0.2466 0.4976 0.6682
C3 C 0.22448(15) 0.5677(6) 0.7621(3)
H2 H 0.2494 0.6019 0.7833
C4 C 0.19002(14) 0.5814(6) 0.7988(3)
C5 C 0.15503(17) 0.5313(7) 0.7690(3)
H3 H 0.1312 0.5425 0.7942
C6 C 0.15292(18) 0.4638(7) 0.7026(3)
H4 H 0.1280 0.4263 0.6831
C7 C 0.18489(15) 0.3796(5) 0.5917(3)
C8 C 0.19195(14) 0.6561(5) 0.8714(3)
C13 C 0.0414(2) 0.0324(9) 0.5035(5)
C14 C 0.0135(3) 0.1005(12) 0.4581(6)
H8 H 0.0228 0.1763 0.4307
C15 C 0.0847(2) 0.0667(8) 0.5095(5)
Zn5_2 Zn 0.2500 0.7500 1.0000
Fe4 Fe 0.15224(2) 0.79701(6) 0.98315(3)
O17 O 0.28489(9) 0.1117(4) 0.44504(18)
O19 O 0.15906(11) 0.3252(4) 0.40045(19)
O20 O 0.27381(10) 0.1888(4) 0.60080(18)
O21 O 0.22619(10) 0.3112(4) 0.39920(18)
O23 O 0.29822(9) 0.4091(4) 0.49594(18)
O6 O 0.17630(14) 0.9792(5) 0.4055(3)
C9 C 0.24874(16) 0.8600(6) 0.5466(3)
H5 H 0.2480 0.9369 0.5789
C10 C 0.22759(16) 0.7519(6) 0.4337(3)
H6 H 0.2124 0.7530 0.3880
C11 C 0.19935(17) 0.9838(6) 0.4610(3)
C12 C 0.0264(3) 0.9318(11) 0.5511(6)
H7 H 0.0436 0.8885 0.5879
C16 C 0.22601(14) 0.8639(5) 0.4813(3)
O10 O 0.32370(14) 0.5208(5) 0.5945(3)
C17 C 0.25126(16) 0.6400(6) 0.4534(3)
H9 H 0.2520 0.5631 0.4211
C18 C 0.27241(16) 0.7481(6) 0.5663(3)
H10 H 0.2876 0.7470 0.6120
C19 C 0.30065(17) 0.5162(6) 0.5390(3)
C20 C 0.27399(14) 0.6361(5) 0.5187(3)
Fe5 Fe 0.34776(2) 0.29701(6) 0.51685(3)
C21 C 0.9736(3) 0.0682(11) 0.4489(6)
H11 H 0.9564 0.1115 0.4121
O11 O 0.90386(13) 0.8504(6) 0.5358(3)
O12 O 0.89071(17) 0.9884(7) 0.4403(3)
C22 C 0.9586(2) 0.9676(9) 0.4965(5)
C23 C 0.9865(3) 0.8995(12) 0.5419(6)
H12 H 0.9772 0.8237 0.5693
C24 C 0.9153(2) 0.9333(8) 0.4905(5)
Fe2 Fe 0.84776(2) 0.79701(6) 0.51685(3)
O13 O 0.78489(9) 0.6117(4) 0.44504(18)
O14 O 0.84716(11) 0.6841(4) 0.4273(2)
O15 O 0.84094(11) 0.3252(4) 0.09955(19)
O16 O 0.77381(10) 0.3112(4) 0.10080(18)
C25 C 0.81328(14) 0.5489(5) 0.3350(3)
C26 C 0.77704(16) 0.4956(6) 0.3056(3)
H13 H 0.7534 0.5024 0.3318
C27 C 0.77552(15) 0.4323(6) 0.2379(3)
H14 H 0.7506 0.3981 0.2167
C28 C 0.80998(14) 0.4186(6) 0.2012(3)
C29 C 0.84497(17) 0.4687(7) 0.2310(3)
H15 H 0.8688 0.4575 0.2058
C30 C 0.84708(18) 0.5362(7) 0.2974(3)
H16 H 0.8720 0.5737 0.3169
C31 C 0.81511(15) 0.6204(5) 0.4083(3)
C32 C 0.80805(14) 0.3439(5) 0.1286(3)
Zn3 Zn 0.7500 0.2500 0.0000
Zn4 Zn 0.7500 0.7500 0.5000
Fe3 Fe 0.84776(2) 0.20299(6) 0.01685(3)
O18 O 0.84094(11) 0.6748(4) 0.59955(19)
O22 O 0.79822(9) 0.9091(4) 0.49594(18)
Zn3_2 Zn 0.7500 0.2500 1.0000
C21_2 C 0.0264(3) 0.0682(11) 0.0511(6)
H11_2 H 0.0436 0.1115 0.0879
O12_2 O 0.10929(17) 0.9884(7) 0.0597(3)
C22_2 C 0.0414(2) 0.9676(9) 0.0035(5)
C24_2 C 0.0847(2) 0.9333(8) 0.0095(5)
O13_2 O 0.21511(9) 0.6117(4) 0.05496(18)
O14_2 O 0.15284(11) 0.6841(4) 0.0727(2)
C25_2 C 0.18672(14) 0.5489(5) 0.1650(3)
C26_2 C 0.22296(16) 0.4956(6) 0.1944(3)
H13_2 H 0.2466 0.5024 0.1682
C27_2 C 0.22448(15) 0.4323(6) 0.2621(3)
H14_2 H 0.2494 0.3981 0.2833
C28_2 C 0.19002(14) 0.4186(6) 0.2988(3)
C29_2 C 0.15503(17) 0.4687(7) 0.2690(3)
H15_2 H 0.1312 0.4575 0.2942
C30_2 C 0.15292(18) 0.5362(7) 0.2026(3)
H16_2 H 0.1280 0.5737 0.1831
C31_2 C 0.18489(15) 0.6204(5) 0.0917(3)
C32_2 C 0.19195(14) 0.3439(5) 0.3714(3)
O22_2 O 0.20178(9) 0.9091(4) 0.00406(18)
O11_2 O 0.09614(13) 0.8504(6) 0.9642(3)
C23_2 C 0.0135(3) 0.8995(12) 0.9581(6)
H12_2 H 0.0228 0.8237 0.9307
O7_2 O 0.90386(13) 0.1496(6) 0.0358(3)
C14_2 C 0.9865(3) 0.1005(12) 0.0419(6)
H8_2 H 0.9772 0.1763 0.0693
O17_2 O 0.71511(9) 0.1117(4) 0.05496(18)
O23_2 O 0.70178(9) 0.4091(4) 0.00406(18)
O1_2 O 0.78489(9) 0.3883(4) 0.94504(18)
O2_2 O 0.84716(11) 0.3159(4) 0.9273(2)
O4_2 O 0.77381(10) 0.6888(4) 0.60080(18)
O5_2 O 0.79822(9) 0.0909(4) 0.99594(18)
O8_2 O 0.89071(17) 0.0116(7) 0.9403(3)
C1_2 C 0.81328(14) 0.4511(5) 0.8350(3)
C2_2 C 0.77704(16) 0.5044(6) 0.8056(3)
H1_2 H 0.7534 0.4976 0.8318
C3_2 C 0.77552(15) 0.5677(6) 0.7379(3)
H2_2 H 0.7506 0.6019 0.7167
C4_2 C 0.80998(14) 0.5814(6) 0.7012(3)
C5_2 C 0.84497(17) 0.5313(7) 0.7310(3)
H3_2 H 0.8688 0.5425 0.7058
C6_2 C 0.84708(18) 0.4638(7) 0.7974(3)
H4_2 H 0.8720 0.4263 0.8169
C7_2 C 0.81511(15) 0.3796(5) 0.9083(3)
C8_2 C 0.80805(14) 0.6561(5) 0.6286(3)
C13_2 C 0.9586(2) 0.0324(9) 0.9965(5)
C15_2 C 0.9153(2) 0.0667(8) 0.9905(5)
O20_2 O 0.72619(10) 0.1888(4) 0.89920(18)
O6_2 O 0.82370(14) 0.9792(5) 0.0945(3)
C10_2 C 0.77241(16) 0.7519(6) 0.0663(3)
H6_2 H 0.7876 0.7530 0.1120
C11_2 C 0.80065(17) 0.9838(6) 0.0390(3)
C16_2 C 0.77399(14) 0.8639(5) 0.0187(3)
C17_2 C 0.74874(16) 0.6400(6) 0.0466(3)
H9_2 H 0.7480 0.5631 0.0789
C9_2 C 0.75126(16) 0.8600(6) 0.9534(3)
H5_2 H 0.7520 0.9369 0.9211
C12_2 C 0.9736(3) 0.9318(11) 0.9489(6)
H7_2 H 0.9564 0.8885 0.9121
O10_2 O 0.67630(14) 0.5208(5) 0.9055(3)
C18_2 C 0.72759(16) 0.7481(6) 0.9337(3)
H10_2 H 0.7124 0.7470 0.8880
C19_2 C 0.69935(17) 0.5162(6) 0.9610(3)
C20_2 C 0.72601(14) 0.6361(5) 0.9813(3)
Fe5_2 Fe 0.65224(2) 0.29701(6) 0.98315(3)
O3_2 O 0.65906(11) 0.1748(4) 0.90045(19)
C2_3 C 0.72296(16) 0.0044(6) 0.6944(3)
C3_3 C 0.72448(15) 0.0677(6) 0.7621(3)
H2_3 H 0.7494 0.1019 0.7833
C4_3 C 0.69002(14) 0.0814(6) 0.7988(3)
C5_3 C 0.65503(17) 0.0313(7) 0.7690(3)
H3_3 H 0.6312 0.0425 0.7942
C8_3 C 0.69195(14) 0.1561(5) 0.8714(3)
Fe1_2 Fe 0.65224(2) 0.70299(6) 0.48315(3)
O1_3 O 0.71511(9) 0.8883(4) 0.55496(18)
O2_3 O 0.65284(11) 0.8159(4) 0.5727(2)
O5_3 O 0.70178(9) 0.5909(4) 0.50406(18)
O6_3 O 0.67630(14) 0.4792(5) 0.4055(3)
O7_3 O 0.59614(13) 0.6496(6) 0.4642(3)
O8_3 O 0.60929(17) 0.5116(7) 0.5597(3)
C1_3 C 0.68672(14) 0.9511(5) 0.6650(3)
H1_3 H 0.7466 0.9976 0.6682
C6_3 C 0.65292(18) 0.9638(7) 0.7026(3)
H4_3 H 0.6280 0.9263 0.6831
C7_3 C 0.68489(15) 0.8796(5) 0.5917(3)
C9_3 C 0.74874(16) 0.3600(6) 0.5466(3)
H5_3 H 0.7480 0.4369 0.5789
C10_3 C 0.72759(16) 0.2519(6) 0.4337(3)
H6_3 H 0.7124 0.2530 0.3880
C11_3 C 0.69935(17) 0.4838(6) 0.4610(3)
C12_3 C 0.5264(3) 0.4318(11) 0.5511(6)
H7_3 H 0.5436 0.3885 0.5879
C13_3 C 0.5414(2) 0.5324(9) 0.5035(5)
C14_3 C 0.5135(3) 0.6005(12) 0.4581(6)
H8_3 H 0.5228 0.6763 0.4307
C15_3 C 0.5847(2) 0.5667(8) 0.5095(5)
C16_3 C 0.72601(14) 0.3639(5) 0.4813(3)
O10_3 O 0.82370(14) 0.0208(5) 0.5945(3)
C17_3 C 0.75126(16) 0.1400(6) 0.4534(3)
H9_3 H 0.7520 0.0631 0.4211
C18_3 C 0.77241(16) 0.2481(6) 0.5663(3)
H10_3 H 0.7876 0.2470 0.6120
C19_3 C 0.80065(17) 0.0162(6) 0.5390(3)
C20_3 C 0.77399(14) 0.1361(5) 0.5187(3)
O11_3 O 0.40386(13) 0.3504(6) 0.5358(3)
O12_3 O 0.39071(17) 0.4884(7) 0.4403(3)
C21_3 C 0.4736(3) 0.5682(11) 0.4489(6)
H11_3 H 0.4564 0.6115 0.4121
C22_3 C 0.4586(2) 0.4676(9) 0.4965(5)
C23_3 C 0.4865(3) 0.3995(12) 0.5419(6)
H12_3 H 0.4772 0.3237 0.5693
C24_3 C 0.4153(2) 0.4333(8) 0.4905(5)
O14_3 O 0.34716(11) 0.1841(4) 0.4273(2)
C25_3 C 0.31328(14) 0.0489(5) 0.3350(3)
H13_3 H 0.2534 0.0024 0.3318
C30_3 C 0.34708(18) 0.0362(7) 0.2974(3)
H16_3 H 0.3720 0.0737 0.3169
C31_3 C 0.31511(15) 0.1204(5) 0.4083(3)
O18_2 O 0.34094(11) 0.1748(4) 0.59955(19)
O19_2 O 0.65906(11) 0.8252(4) 0.40045(19)
O21_2 O 0.72619(10) 0.8112(4) 0.39920(18)
O15_2 O 0.34094(11) 0.8252(4) 0.09955(19)
O16_2 O 0.27381(10) 0.8112(4) 0.10080(18)
C26_3 C 0.27704(16) 0.9956(6) 0.3056(3)
C27_3 C 0.27552(15) 0.9323(6) 0.2379(3)
H14_3 H 0.2506 0.8981 0.2167
C28_3 C 0.30998(14) 0.9186(6) 0.2012(3)
C29_3 C 0.34497(17) 0.9687(7) 0.2310(3)
H15_3 H 0.3688 0.9575 0.2058
C32_3 C 0.30805(14) 0.8439(5) 0.1286(3)
Fe3_2 Fe 0.34776(2) 0.70299(6) 0.01685(3)
C2_4 C 0.27704(16) 0.0044(6) 0.8056(3)
C3_4 C 0.27552(15) 0.0677(6) 0.7379(3)
H2_4 H 0.2506 0.1019 0.7167
C4_4 C 0.30998(14) 0.0814(6) 0.7012(3)
C5_4 C 0.34497(17) 0.0313(7) 0.7310(3)
H3_4 H 0.3688 0.0425 0.7058
C8_4 C 0.30805(14) 0.1561(5) 0.6286(3)
O6_4 O 0.32370(14) 0.4792(5) 0.0945(3)
O7_4 O 0.40386(13) 0.6496(6) 0.0358(3)
C10_4 C 0.27241(16) 0.2519(6) 0.0663(3)
H6_4 H 0.2876 0.2530 0.1120
C11_4 C 0.30065(17) 0.4838(6) 0.0390(3)
C14_4 C 0.4865(3) 0.6005(12) 0.0419(6)
H8_4 H 0.4772 0.6763 0.0693
C16_4 C 0.27399(14) 0.3639(5) 0.0187(3)
C17_4 C 0.24874(16) 0.1400(6) 0.0466(3)
H9_4 H 0.2480 0.0631 0.0789
O12_4 O 0.60929(17) 0.4884(7) 0.0597(3)
C21_4 C 0.5264(3) 0.5682(11) 0.0511(6)
H11_4 H 0.5436 0.6115 0.0879
C22_4 C 0.5414(2) 0.4676(9) 0.0035(5)
C24_4 C 0.5847(2) 0.4333(8) 0.0095(5)
O14_4 O 0.65284(11) 0.1841(4) 0.0727(2)
C25_4 C 0.68672(14) 0.0489(5) 0.1650(3)
H13_4 H 0.7466 0.0024 0.1682
C30_4 C 0.65292(18) 0.0362(7) 0.2026(3)
H16_4 H 0.6280 0.0737 0.1831
C31_4 C 0.68489(15) 0.1204(5) 0.0917(3)
O1_4 O 0.28489(9) 0.8883(4) 0.94504(18)
O2_4 O 0.34716(11) 0.8159(4) 0.9273(2)
O5_4 O 0.29822(9) 0.5909(4) 0.99594(18)
O8_4 O 0.39071(17) 0.5116(7) 0.9403(3)
C1_4 C 0.31328(14) 0.9511(5) 0.8350(3)
H1_4 H 0.2534 0.9976 0.8318
C6_4 C 0.34708(18) 0.9638(7) 0.7974(3)
H4_4 H 0.3720 0.9263 0.8169
C7_4 C 0.31511(15) 0.8796(5) 0.9083(3)
C9_4 C 0.25126(16) 0.3600(6) 0.9534(3)
H5_4 H 0.2520 0.4369 0.9211
C12_4 C 0.4736(3) 0.4318(11) 0.9489(6)
H7_4 H 0.4564 0.3885 0.9121
C13_4 C 0.4586(2) 0.5324(9) 0.9965(5)
C15_4 C 0.4153(2) 0.5667(8) 0.9905(5)
O10_4 O 0.17630(14) 0.0208(5) 0.9055(3)
C18_4 C 0.22759(16) 0.2481(6) 0.9337(3)
H10_4 H 0.2124 0.2470 0.8880
C19_4 C 0.19935(17) 0.0162(6) 0.9610(3)
C20_4 C 0.22601(14) 0.1361(5) 0.9813(3)
O11_4 O 0.59614(13) 0.3504(6) 0.9642(3)
C23_4 C 0.5135(3) 0.3995(12) 0.9581(6)
H12_4 H 0.5228 0.3237 0.9307
C26_4 C 0.72296(16) 0.9956(6) 0.1944(3)
C27_4 C 0.72448(15) 0.9323(6) 0.2621(3)
H14_4 H 0.7494 0.8981 0.2833
C28_4 C 0.69002(14) 0.9186(6) 0.2988(3)
C29_4 C 0.65503(17) 0.9687(7) 0.2690(3)
H15_4 H 0.6312 0.9575 0.2942
C32_4 C 0.69195(14) 0.8439(5) 0.3714(3)
loop_
_geom_bond_atom_site_label_1
_geom_bond_atom_site_label_2
_geom_bond_site_symmetry_1
_geom_bond_site_symmetry_2
Zn1 O1 1_555 1_555
Fe1 O2 1_555 1_555
O1 C7 1_555 1_555
O2 C7 1_555 1_555
O3 C8 1_555 1_555
O4 C8 1_555 1_555
O5 Zn1 1_555 1_555
O7 Fe1 1_555 1_555
O8 C15 1_555 1_555
C1 C2 1_555 1_555
C2 H1 1_555 1_555
C3 C2 1_555 1_555
H2 C3 1_555 1_555
C4 C3 1_555 1_555
C5 C4 1_555 1_555
H3 C5 1_555 1_555
C6 C1 1_555 1_555
H4 C6 1_555 1_555
C7 C1 1_555 1_555
C8 C4 1_555 1_555
C14 C13 1_555 1_555
H8 C14 1_555 1_555
C15 O7 1_555 1_555
Zn5_2 O4 1_555 1_555
Fe4 O3 1_555 1_555
O17 Zn1 1_555 1_555
O19 Fe1 1_555 1_555
O20 Zn1 1_555 1_555
O21 Zn1 1_555 1_555
O23 Zn1 1_555 1_555
Fe1 O5 1_555 1_555
C5 C6 1_555 1_555
C13 C15 1_555 1_555
O6 C11 1_555 1_555
C9 H5 1_555 1_555
C10 H6 1_555 1_555
C12 H7 1_555 1_555
C16 C9 1_555 1_555
O23 C19 1_555 1_555
O10 C19 1_555 1_555
C17 C10 1_555 1_555
H9 C17 1_555 1_555
C18 C9 1_555 1_555
H10 C18 1_555 1_555
C19 C20 1_555 1_555
C20 C17 1_555 1_555
Fe5 O23 1_555 1_555
C10 C16 1_555 1_555
C11 C16 1_555 1_555
C18 C20 1_555 1_555
H11 C21 1_555 1_555
O11 C24 1_555 1_555
O12 C24 1_555 1_555
H12 C23 1_555 1_555
C24 C22 1_555 1_555
Fe2 O11 1_555 1_555
O13 C31 1_555 1_555
O14 Fe2 1_555 1_555
O15 C32 1_555 1_555
O16 C32 1_555 1_555
C25 C26 1_555 1_555
C26 H13 1_555 1_555
C27 C26 1_555 1_555
H14 C27 1_555 1_555
C28 C27 1_555 1_555
C29 C28 1_555 1_555
H15 C29 1_555 1_555
C30 C25 1_555 1_555
H16 C30 1_555 1_555
C31 O14 1_555 1_555
C32 C28 1_555 1_555
Zn3 O16 1_555 1_555
Zn4 O13 1_555 1_555
Fe3 O15 1_555 1_555
O18 Fe2 1_555 1_555
O22 Fe2 1_555 1_555
C22 C23 1_555 1_555
C25 C31 1_555 1_555
C29 C30 1_555 1_555
Zn4 O22 1_555 1_555
H11_2 C21_2 1_555 1_555
O12_2 C24_2 1_555 1_555
C24_2 C22_2 1_555 1_555
O13_2 C31_2 1_555 1_555
O19 C32_2 1_555 1_555
O21 C32_2 1_555 1_555
C25_2 C26_2 1_555 1_555
C26_2 H13_2 1_555 1_555
C27_2 C26_2 1_555 1_555
H14_2 C27_2 1_555 1_555
C28_2 C27_2 1_555 1_555
C29_2 C28_2 1_555 1_555
H15_2 C29_2 1_555 1_555
C30_2 C25_2 1_555 1_555
H16_2 C30_2 1_555 1_555
C31_2 O14_2 1_555 1_555
C32_2 C28_2 1_555 1_555
Zn5 O13_2 1_555 1_555
C25_2 C31_2 1_555 1_555
C29_2 C30_2 1_555 1_555
Zn5 O22_2 1_555 1_555
H12_2 C23_2 1_555 1_555
Fe4 O11_2 1_555 1_555
O7_2 Fe3 1_555 1_555
H8_2 C14_2 1_555 1_555
O17_2 Zn3 1_555 1_555
O23_2 Zn3 1_555 1_555
Zn3_2 O1_2 1_555 1_555
O1_2 C7_2 1_555 1_555
O2_2 C7_2 1_555 1_555
O18 C8_2 1_555 1_555
O4_2 C8_2 1_555 1_555
O5_2 Zn3_2 1_555 1_555
O8_2 C15_2 1_555 1_555
C1_2 C2_2 1_555 1_555
C2_2 H1_2 1_555 1_555
C3_2 C2_2 1_555 1_555
H2_2 C3_2 1_555 1_555
C4_2 C3_2 1_555 1_555
C5_2 C4_2 1_555 1_555
H3_2 C5_2 1_555 1_555
C6_2 C1_2 1_555 1_555
H4_2 C6_2 1_555 1_555
C7_2 C1_2 1_555 1_555
C8_2 C4_2 1_555 1_555
Zn4 O4_2 1_555 1_555
O20_2 Zn3_2 1_555 1_555
C5_2 C6_2 1_555 1_555
C13_2 C15_2 1_555 1_555
O6_2 C11_2 1_555 1_555
C10_2 H6_2 1_555 1_555
C17_2 C10_2 1_555 1_555
H9_2 C17_2 1_555 1_555
C10_2 C16_2 1_555 1_555
C11_2 C16_2 1_555 1_555
C9_2 H5_2 1_555 1_555
C12_2 H7_2 1_555 1_555
O10_2 C19_2 1_555 1_555
C18_2 C9_2 1_555 1_555
H10_2 C18_2 1_555 1_555
C19_2 C20_2 1_555 1_555
C18_2 C20_2 1_555 1_555
O3_2 C8_3 1_555 1_555
O20_2 C8_3 1_555 1_555
C3_3 C2_3 1_555 1_555
H2_3 C3_3 1_555 1_555
C4_3 C3_3 1_555 1_555
C5_3 C4_3 1_555 1_555
H3_3 C5_3 1_555 1_555
C8_3 C4_3 1_555 1_555
Fe5_2 O3_2 1_555 1_555
Zn4 O1_3 1_555 1_555
Fe1_2 O2_3 1_555 1_555
O1_3 C7_3 1_555 1_555
O2_3 C7_3 1_555 1_555
O5_3 Zn4 1_555 1_555
O6_3 C11_3 1_555 1_555
O7_3 Fe1_2 1_555 1_555
O8_3 C15_3 1_555 1_555
C6_3 C1_3 1_555 1_555
H4_3 C6_3 1_555 1_555
C7_3 C1_3 1_555 1_555
C9_3 H5_3 1_555 1_555
C10_3 H6_3 1_555 1_555
C11_3 O5_3 1_555 1_555
C12_3 H7_3 1_555 1_555
C13_3 C12_3 1_555 1_555
C14_3 C13_3 1_555 1_555
H8_3 C14_3 1_555 1_555
C15_3 O7_3 1_555 1_555
C16_3 C9_3 1_555 1_555
O10_3 C19_3 1_555 1_555
C17_3 C10_3 1_555 1_555
H9_3 C17_3 1_555 1_555
C18_3 C9_3 1_555 1_555
H10_3 C18_3 1_555 1_555
C19_3 C20_3 1_555 1_555
C20_3 C17_3 1_555 1_555
O11_3 C24_3 1_555 1_555
O12_3 C24_3 1_555 1_555
C21_3 C14_3 1_555 1_555
H11_3 C21_3 1_555 1_555
C22_3 C21_3 1_555 1_555
C23_3 C12_3 1_555 1_555
H12_3 C23_3 1_555 1_555
C24_3 C22_3 1_555 1_555
Fe5 O11_3 1_555 1_555
O17 C31_3 1_555 1_555
O14_3 Fe5 1_555 1_555
C30_3 C25_3 1_555 1_555
H16_3 C30_3 1_555 1_555
C31_3 O14_3 1_555 1_555
O18_2 Fe5 1_555 1_555
O19_2 Fe1_2 1_555 1_555
O21_2 Zn4 1_555 1_555
Fe1_2 O5_3 1_555 1_555
C10_3 C16_3 1_555 1_555
C11_3 C16_3 1_555 1_555
C13_3 C15_3 1_555 1_555
C18_3 C20_3 1_555 1_555
C22_3 C23_3 1_555 1_555
C25_3 C31_3 1_555 1_555
O15_2 C32_3 1_555 1_555
O16_2 C32_3 1_555 1_555
C27_3 C26_3 1_555 1_555
H14_3 C27_3 1_555 1_555
C28_3 C27_3 1_555 1_555
C29_3 C28_3 1_555 1_555
H15_3 C29_3 1_555 1_555
C32_3 C28_3 1_555 1_555
Zn5 O16_2 1_555 1_555
Fe3_2 O15_2 1_555 1_555
O18_2 C8_4 1_555 1_555
O20 C8_4 1_555 1_555
C3_4 C2_4 1_555 1_555
H2_4 C3_4 1_555 1_555
C4_4 C3_4 1_555 1_555
C5_4 C4_4 1_555 1_555
H3_4 C5_4 1_555 1_555
C8_4 C4_4 1_555 1_555
O6_4 C11_4 1_555 1_555
O7_4 Fe3_2 1_555 1_555
C10_4 H6_4 1_555 1_555
H8_4 C14_4 1_555 1_555
C17_4 C10_4 1_555 1_555
H9_4 C17_4 1_555 1_555
O12_4 C24_4 1_555 1_555
C21_4 C14_4 1_555 1_555
H11_4 C21_4 1_555 1_555
C22_4 C21_4 1_555 1_555
C24_4 C22_4 1_555 1_555
O17_2 C31_4 1_555 1_555
C30_4 C25_4 1_555 1_555
H16_4 C30_4 1_555 1_555
C31_4 O14_4 1_555 1_555
C10_4 C16_4 1_555 1_555
C11_4 C16_4 1_555 1_555
C25_4 C31_4 1_555 1_555
Zn5_2 O1_4 1_555 1_555
O1_4 C7_4 1_555 1_555
O2_4 C7_4 1_555 1_555
O5_4 Zn5_2 1_555 1_555
O8_4 C15_4 1_555 1_555
C6_4 C1_4 1_555 1_555
H4_4 C6_4 1_555 1_555
C7_4 C1_4 1_555 1_555
C9_4 H5_4 1_555 1_555
C12_4 H7_4 1_555 1_555
C13_4 C12_4 1_555 1_555
O10_4 C19_4 1_555 1_555
C18_4 C9_4 1_555 1_555
H10_4 C18_4 1_555 1_555
C19_4 C20_4 1_555 1_555
C23_4 C12_4 1_555 1_555
H12_4 C23_4 1_555 1_555
Fe5_2 O11_4 1_555 1_555
C13_4 C15_4 1_555 1_555
C18_4 C20_4 1_555 1_555
O19_2 C32_4 1_555 1_555
O21_2 C32_4 1_555 1_555
C27_4 C26_4 1_555 1_555
H14_4 C27_4 1_555 1_555
C28_4 C27_4 1_555 1_555
C29_4 C28_4 1_555 1_555
H15_4 C29_4 1_555 1_555
C32_4 C28_4 1_555 1_555

#END
