
###############################################################################
#
# This file contains modified crystal structure data generated from the
# MOF subset of the Cambridge Structural Database (CSD) v543 
# hosted by the Cambridge Crystallographic Data Centre (CCDC).
#
# This work is licensed under the Creative Commons
# Attribution-NonCommercial-ShareAlike 4.0 International License.
# To view a copy of this license, visit
# http://creativecommons.org/licenses/by-nc-sa/4.0/
# or send a letter to
# Creative Commons, PO Box 1866, Mountain View, CA 94042, USA.
#
# CIF created using the CSD Python API on 29 September 2022
# The structure has been converted into the P1 space group
# The structure has a 3D framework
# The original CSD entry JAFMUC is in the orthorhombic crystal system
# The framework has been calculated to contain at least 10.0% void space
# The void calculation uses a probe of radius 1.32A, grid spacing 0.4
# The framework is charged, counterions have been retained in the structure
#
###############################################################################

data_JAFMUC
_chemical_formula_moiety         '(C200 H160 Cl10 Cu4 N32 O16 4-)n'
_symmetry_cell_setting           triclinic
_symmetry_space_group_name_H-M   'P 1'
_symmetry_Int_Tables_number      1
_space_group_name_Hall           'P 1'
loop_
_symmetry_equiv_pos_site_id
_symmetry_equiv_pos_as_xyz
1 x,y,z
_cell_length_a                   21.741(4)
_cell_length_b                   23.235(5)
_cell_length_c                   10.696(2)
_cell_angle_alpha                90
_cell_angle_beta                 90
_cell_angle_gamma                90
_cell_volume                     5403.11
loop_
_atom_site_label
_atom_site_type_symbol
_atom_site_fract_x
_atom_site_fract_y
_atom_site_fract_z
N2 N 0.66841(16) 0.70576(15) 0.3384(3)
O1 O 0.54188(19) 0.75198(18) 0.0752(4)
N4 N 0.48221(18) 0.67334(19) 0.1058(4)
H2 H 0.477083 0.642753 0.153224
C1 C 0.62592(19) 0.71916(19) 0.2518(4)
H3 H 0.633629 0.750861 0.197987
C6 C 0.5714(2) 0.6890(2) 0.2374(4)
C9 C 0.4388(2) 0.6823(2) 0.0073(4)
C13 C 0.5304(2) 0.7079(2) 0.1322(4)
C15 C 0.6567(2) 0.6621(2) 0.4164(4)
H10 H 0.686137 0.652847 0.478929
C18 C 0.3795(2) 0.6633(3) 0.0256(5)
H13 H 0.368053 0.647121 0.103742
C21 C 0.5604(3) 0.6437(3) 0.3191(5)
H16 H 0.523467 0.621956 0.313230
C22 C 0.6039(3) 0.6306(3) 0.4093(6)
H17 H 0.597074 0.599729 0.465935
Cu3 Cu 0.750000 0.750000 0.34418(6)
N11 N 0.79775(16) 0.67384(14) 0.3413(3)
N12 N 0.70225(16) 0.82616(14) 0.3413(3)
Cl3 Cl 0.750000 0.750000 0.58787(12)
Cl4 Cl 0.750000 0.750000 0.08787(12)
N13 N 0.83159(16) 0.79424(15) 0.3384(3)
Cu5 Cu 0.750000 0.750000 0.84418(6)
O3 O 0.95812(19) 0.74802(18) 0.0752(4)
C26 C 0.87408(19) 0.78084(19) 0.2518(4)
H23 H 0.866371 0.749139 0.197987
C31 C 0.9286(2) 0.8110(2) 0.2374(4)
C38 C 0.9696(2) 0.7921(2) 0.1322(4)
C40 C 0.8433(2) 0.8379(2) 0.4164(4)
H30 H 0.813863 0.847153 0.478929
C46 C 0.9396(3) 0.8563(3) 0.3191(5)
H36 H 0.976533 0.878044 0.313230
C47 C 0.8961(3) 0.8694(3) 0.4093(6)
H37 H 0.902926 0.900271 0.465935
O2 O 0.7413(2) 0.94358(18) 0.0695(4)
C2 C 0.7154(2) 0.86709(18) 0.2555(4)
H4 H 0.747956 0.860337 0.198107
C5 C 0.6835(2) 0.9182(2) 0.2479(4)
C10 C 0.7020(3) 0.9584(2) 0.1440(5)
C11 C 0.6572(2) 0.8360(2) 0.4217(4)
H7 H 0.647822 0.807587 0.482716
C23 C 0.6368(3) 0.9277(3) 0.3328(6)
H18 H 0.613974 0.962516 0.331212
C24 C 0.6238(3) 0.8858(3) 0.4196(6)
H19 H 0.591617 0.891510 0.478306
N7 N 0.8275(2) 0.49085(17) 0.1388(4)
H21 H 0.855038 0.484501 0.197462
O4 O 0.7587(2) 0.55642(18) 0.0695(4)
C27 C 0.7846(2) 0.63291(18) 0.2555(4)
H24 H 0.752044 0.639663 0.198107
C28 C 0.8192(2) 0.4463(2) 0.0495(4)
C30 C 0.8165(2) 0.5818(2) 0.2479(4)
C35 C 0.7980(3) 0.5416(2) 0.1440(5)
C36 C 0.8428(2) 0.6640(2) 0.4217(4)
H27 H 0.852178 0.692413 0.482716
C39 C 0.8452(2) 0.3933(2) 0.0758(5)
H29 H 0.866781 0.387920 0.152098
H34 H 0.857716 0.311644 0.012789
C48 C 0.8632(3) 0.5723(3) 0.3328(6)
H38 H 0.886026 0.537484 0.331212
C49 C 0.8762(3) 0.6142(3) 0.4196(6)
H39 H 0.908383 0.608490 0.478306
N1 N 0.70225(16) 0.67384(14) 0.8413(3)
N3 N 0.6725(2) 0.49085(17) 0.6388(4)
H1 H 0.644962 0.484501 0.697462
O2_2 O 0.7413(2) 0.55642(18) 0.5695(4)
C2_2 C 0.7154(2) 0.63291(18) 0.7555(4)
H4_2 H 0.747956 0.639663 0.698107
C3 C 0.6808(2) 0.4463(2) 0.5495(4)
C4 C 0.6488(2) 0.3090(2) 0.1830(4)
C5_2 C 0.6835(2) 0.5818(2) 0.7479(4)
C7 C 0.6902(2) 0.3548(2) 0.3797(4)
C8 C 0.6957(2) 0.3055(2) 0.2884(5)
H5 H 0.737591 0.305528 0.252111
H6 H 0.690091 0.268786 0.333864
C10_2 C 0.7020(3) 0.5416(2) 0.6440(5)
C11_2 C 0.6572(2) 0.6640(2) 0.9217(4)
H7_2 H 0.647822 0.692413 0.982716
C12 C 0.7115(3) 0.4534(2) 0.4384(5)
H8 H 0.729806 0.489315 0.418340
C14 C 0.6548(2) 0.3933(2) 0.5758(5)
H9 H 0.633219 0.387920 0.652098
C16 C 0.6638(2) 0.3322(3) 0.0698(5)
H11 H 0.704500 0.345644 0.055890
C17 C 0.7156(3) 0.4077(2) 0.3558(5)
H12 H 0.736963 0.413171 0.279257
C19 C 0.6599(3) 0.3479(2) 0.4924(5)
H14 H 0.642284 0.311644 0.512789
C20 C 0.5900(3) 0.2895(3) 0.1992(5)
H15 H 0.578973 0.272702 0.277009
C23_2 C 0.6368(3) 0.5723(3) 0.8328(6)
H18_2 H 0.613974 0.537484 0.831212
C24_2 C 0.6238(3) 0.6142(3) 0.9196(6)
H19_2 H 0.591617 0.608490 0.978306
C25 C 0.5456(3) 0.2933(3) 0.1049(5)
H20 H 0.505099 0.279182 0.118481
N5 N 0.79775(16) 0.82616(14) 0.8413(3)
O4_2 O 0.7587(2) 0.94358(18) 0.5695(4)
C27_2 C 0.7846(2) 0.86709(18) 0.7555(4)
H24_2 H 0.752044 0.860337 0.698107
C30_2 C 0.8165(2) 0.9182(2) 0.7479(4)
C35_2 C 0.7980(3) 0.9584(2) 0.6440(5)
C36_2 C 0.8428(2) 0.8360(2) 0.9217(4)
H27_2 H 0.852178 0.807587 0.982716
C48_2 C 0.8632(3) 0.9277(3) 0.8328(6)
H38_2 H 0.886026 0.962516 0.831212
C49_2 C 0.8762(3) 0.8858(3) 0.9196(6)
H39_2 H 0.908383 0.891510 0.978306
N9 N 0.66841(16) 0.79424(15) 0.8384(3)
N10 N 0.83159(16) 0.70576(15) 0.8384(3)
O1_2 O 0.54188(19) 0.74802(18) 0.5752(4)
N4_2 N 0.48221(18) 0.82666(19) 0.6058(4)
H2_2 H 0.477083 0.857247 0.653224
C1_2 C 0.62592(19) 0.78084(19) 0.7518(4)
H3_2 H 0.633629 0.749139 0.697987
C4_2 C 0.3512(2) 0.8090(2) 0.3170(4)
C6_2 C 0.5714(2) 0.8110(2) 0.7374(4)
C7_2 C 0.3098(2) 0.8548(2) 0.1203(4)
C8_2 C 0.3043(2) 0.8055(2) 0.2116(5)
H5_2 H 0.262409 0.805528 0.247889
H6_2 H 0.309909 0.768786 0.166136
C9_2 C 0.4388(2) 0.8177(2) 0.5073(4)
C12_2 C 0.2885(3) 0.9534(2) 0.0616(5)
H8_2 H 0.270194 0.989315 0.081660
C13_2 C 0.5304(2) 0.7921(2) 0.6322(4)
C15_2 C 0.6567(2) 0.8379(2) 0.9164(4)
H10_2 H 0.686137 0.847153 0.978929
C16_2 C 0.3362(2) 0.8322(3) 0.4302(5)
H11_2 H 0.295500 0.845644 0.444110
C17_2 C 0.2844(3) 0.9077(2) 0.1442(5)
H12_2 H 0.263037 0.913171 0.220743
C18_2 C 0.3795(2) 0.8367(3) 0.5256(5)
H13_2 H 0.368053 0.852879 0.603742
C19_2 C 0.3401(3) 0.8479(2) 0.0076(5)
C20_2 C 0.4100(3) 0.7895(3) 0.3008(5)
H15_2 H 0.421027 0.772702 0.222991
C21_2 C 0.5604(3) 0.8563(3) 0.8191(5)
H16_2 H 0.523467 0.878044 0.813230
C22_2 C 0.6039(3) 0.8694(3) 0.9093(6)
H17_2 H 0.597074 0.900271 0.965935
C25_2 C 0.4544(3) 0.7933(3) 0.3951(5)
H20_2 H 0.494901 0.779182 0.381519
O3_2 O 0.95812(19) 0.75198(18) 0.5752(4)
C26_2 C 0.87408(19) 0.71916(19) 0.7518(4)
H23_2 H 0.866371 0.750861 0.697987
C31_2 C 0.9286(2) 0.6890(2) 0.7374(4)
C38_2 C 0.9696(2) 0.7079(2) 0.6322(4)
C40_2 C 0.8433(2) 0.6621(2) 0.9164(4)
H30_2 H 0.813863 0.652847 0.978929
C46_2 C 0.9396(3) 0.6437(3) 0.8191(5)
H36_2 H 0.976533 0.621956 0.813230
C47_2 C 0.8961(3) 0.6306(3) 0.9093(6)
H37_2 H 0.902926 0.599729 0.965935
Cu1 Cu 0.250000 0.250000 0.15582(6)
N1_2 N 0.29775(16) 0.32616(14) 0.1587(3)
N3_2 N 0.3275(2) 0.50915(17) 0.3612(4)
H1_2 H 0.355038 0.515499 0.302538
O2_3 O 0.2587(2) 0.44358(18) 0.4305(4)
C2_3 C 0.2846(2) 0.36709(18) 0.2445(4)
H4_3 H 0.252044 0.360337 0.301893
C3_2 C 0.3192(2) 0.5537(2) 0.4505(4)
C4_3 C 0.3512(2) 0.6910(2) 0.8170(4)
C5_3 C 0.3165(2) 0.4182(2) 0.2521(4)
C7_3 C 0.3098(2) 0.6452(2) 0.6203(4)
C8_3 C 0.3043(2) 0.6945(2) 0.7116(5)
H5_3 H 0.262409 0.694472 0.747889
H6_3 H 0.309909 0.731214 0.666136
C10_3 C 0.2980(3) 0.4584(2) 0.3560(5)
C11_3 C 0.3428(2) 0.3360(2) 0.0783(4)
H7_3 H 0.352178 0.307587 0.017284
C12_3 C 0.2885(3) 0.5466(2) 0.5616(5)
H8_3 H 0.270194 0.510685 0.581660
C14_2 C 0.3452(2) 0.6067(2) 0.4242(5)
H9_2 H 0.366781 0.612080 0.347902
C16_3 C 0.3362(2) 0.6678(3) 0.9302(5)
H11_3 H 0.295500 0.654356 0.944110
C17_3 C 0.2844(3) 0.5923(2) 0.6442(5)
H12_3 H 0.263037 0.586829 0.720743
C19_3 C 0.3401(3) 0.6521(2) 0.5076(5)
H14_2 H 0.357716 0.688356 0.487211
C20_3 C 0.4100(3) 0.7105(3) 0.8008(5)
H15_3 H 0.421027 0.727298 0.722991
C23_3 C 0.3632(3) 0.4277(3) 0.1672(6)
H18_3 H 0.386026 0.462516 0.168788
C24_3 C 0.3762(3) 0.3858(3) 0.0804(6)
H19_3 H 0.408383 0.391510 0.021694
C25_3 C 0.4544(3) 0.7067(3) 0.8951(5)
H20_3 H 0.494901 0.720818 0.881519
N5_2 N 0.20225(16) 0.17384(14) 0.1587(3)
O4_3 O 0.2413(2) 0.05642(18) 0.4305(4)
C27_3 C 0.2154(2) 0.13291(18) 0.2445(4)
H24_3 H 0.247956 0.139663 0.301893
C30_3 C 0.1835(2) 0.0818(2) 0.2521(4)
C35_3 C 0.2020(3) 0.0416(2) 0.3560(5)
C36_3 C 0.1572(2) 0.1640(2) 0.0783(4)
H27_3 H 0.147822 0.192413 0.017284
C48_3 C 0.1368(3) 0.0723(3) 0.1672(6)
H38_3 H 0.113974 0.037484 0.168788
C49_3 C 0.1238(3) 0.1142(3) 0.0804(6)
H39_3 H 0.091617 0.108490 0.021694
Cl2 Cl 0.250000 0.250000 0.41213(12)
N9_2 N 0.33159(16) 0.20576(15) 0.1616(3)
N10_2 N 0.16841(16) 0.29424(15) 0.1616(3)
Cl1 Cl 0.250000 0.250000 0.91213(12)
Cu4 Cu 0.250000 0.250000 0.65582(6)
O3_3 O 0.04188(19) 0.24802(18) 0.4248(4)
C26_3 C 0.12592(19) 0.28084(19) 0.2482(4)
H23_3 H 0.133629 0.249139 0.302013
C31_3 C 0.0714(2) 0.3110(2) 0.2626(4)
C38_3 C 0.0304(2) 0.2921(2) 0.3678(4)
C40_3 C 0.1567(2) 0.3379(2) 0.0836(4)
H30_3 H 0.186137 0.347153 0.021071
C46_3 C 0.0604(3) 0.3563(3) 0.1809(5)
H36_3 H 0.023467 0.378044 0.186770
C47_3 C 0.1039(3) 0.3694(3) 0.0907(6)
H37_3 H 0.097074 0.400271 0.034065
O1_3 O 0.45812(19) 0.25198(18) 0.4248(4)
N4_3 N 0.51779(18) 0.17334(19) 0.3942(4)
H2_3 H 0.522917 0.142753 0.346776
C1_3 C 0.37408(19) 0.21916(19) 0.2482(4)
H3_3 H 0.366371 0.250861 0.302013
C4_4 C 0.6488(2) 0.1910(2) 0.6830(4)
C6_3 C 0.4286(2) 0.1890(2) 0.2626(4)
C7_4 C 0.6902(2) 0.1452(2) 0.8797(4)
C8_4 C 0.6957(2) 0.1945(2) 0.7884(5)
H5_4 H 0.737591 0.194472 0.752111
H6_4 H 0.690091 0.231214 0.833864
C9_3 C 0.5612(2) 0.1823(2) 0.4927(4)
C12_4 C 0.7115(3) 0.0466(2) 0.9384(5)
H8_4 H 0.729806 0.010685 0.918340
C13_3 C 0.4696(2) 0.2079(2) 0.3678(4)
C15_3 C 0.3433(2) 0.1621(2) 0.0836(4)
H10_3 H 0.313863 0.152847 0.021071
C16_4 C 0.6638(2) 0.1678(3) 0.5698(5)
H11_4 H 0.704500 0.154356 0.555890
C17_4 C 0.7156(3) 0.0923(2) 0.8558(5)
H12_4 H 0.736963 0.086829 0.779257
C18_3 C 0.6205(2) 0.1633(3) 0.4744(5)
H13_3 H 0.631947 0.147121 0.396258
C19_4 C 0.6599(3) 0.1521(2) 0.9924(5)
C20_4 C 0.5900(3) 0.2105(3) 0.6992(5)
H15_4 H 0.578973 0.227298 0.777009
C21_3 C 0.4396(3) 0.1437(3) 0.1809(5)
H16_3 H 0.476533 0.121956 0.186770
C22_3 C 0.3961(3) 0.1306(3) 0.0907(6)
H17_3 H 0.402926 0.099729 0.034065
C25_4 C 0.5456(3) 0.2067(3) 0.6049(5)
H20_4 H 0.505099 0.220818 0.618481
N6 N 0.16841(16) 0.20576(15) 0.6616(3)
O3_4 O 0.04188(19) 0.25198(18) 0.9248(4)
C26_4 C 0.12592(19) 0.21916(19) 0.7482(4)
H23_4 H 0.133629 0.250861 0.802013
C31_4 C 0.0714(2) 0.1890(2) 0.7626(4)
C38_4 C 0.0304(2) 0.2079(2) 0.8678(4)
C40_4 C 0.1567(2) 0.1621(2) 0.5836(4)
H30_4 H 0.186137 0.152847 0.521071
C46_4 C 0.0604(3) 0.1437(3) 0.6809(5)
H36_4 H 0.023467 0.121956 0.686770
C47_4 C 0.1039(3) 0.1306(3) 0.5907(6)
H37_4 H 0.097074 0.099729 0.534065
N2_2 N 0.33159(16) 0.29424(15) 0.6616(3)
O1_4 O 0.45812(19) 0.24802(18) 0.9248(4)
N4_4 N 0.51779(18) 0.32666(19) 0.8942(4)
H2_4 H 0.522917 0.357247 0.846776
C1_4 C 0.37408(19) 0.28084(19) 0.7482(4)
H3_4 H 0.366371 0.249139 0.802013
C6_4 C 0.4286(2) 0.3110(2) 0.7626(4)
C9_4 C 0.5612(2) 0.3177(2) 0.9927(4)
C13_4 C 0.4696(2) 0.2921(2) 0.8678(4)
C15_4 C 0.3433(2) 0.3379(2) 0.5836(4)
H10_4 H 0.313863 0.347153 0.521071
C18_4 C 0.6205(2) 0.3367(3) 0.9744(5)
H13_4 H 0.631947 0.352879 0.896258
C21_4 C 0.4396(3) 0.3563(3) 0.6809(5)
H16_4 H 0.476533 0.378044 0.686770
C22_4 C 0.3961(3) 0.3694(3) 0.5907(6)
H17_4 H 0.402926 0.400271 0.534065
N11_2 N 0.20225(16) 0.32616(14) 0.6587(3)
N12_2 N 0.29775(16) 0.17384(14) 0.6587(3)
O2_4 O 0.2587(2) 0.05642(18) 0.9305(4)
C2_4 C 0.2846(2) 0.13291(18) 0.7445(4)
H4_4 H 0.252044 0.139663 0.801893
C5_4 C 0.3165(2) 0.0818(2) 0.7521(4)
C10_4 C 0.2980(3) 0.0416(2) 0.8560(5)
C11_4 C 0.3428(2) 0.1640(2) 0.5783(4)
H7_4 H 0.352178 0.192413 0.517284
C23_4 C 0.3632(3) 0.0723(3) 0.6672(6)
H18_4 H 0.386026 0.037484 0.668788
C24_4 C 0.3762(3) 0.1142(3) 0.5804(6)
H19_4 H 0.408383 0.108490 0.521694
N7_2 N 0.1725(2) 0.50915(17) 0.8612(4)
H21_2 H 0.144962 0.515499 0.802538
O4_4 O 0.2413(2) 0.44358(18) 0.9305(4)
C27_4 C 0.2154(2) 0.36709(18) 0.7445(4)
H24_4 H 0.247956 0.360337 0.801893
C28_2 C 0.1808(2) 0.5537(2) 0.9505(4)
C30_4 C 0.1835(2) 0.4182(2) 0.7521(4)
C35_4 C 0.2020(3) 0.4584(2) 0.8560(5)
C36_4 C 0.1572(2) 0.3360(2) 0.5783(4)
H27_4 H 0.147822 0.307587 0.517284
C39_2 C 0.1548(2) 0.6067(2) 0.9242(5)
H29_2 H 0.133219 0.612080 0.847902
H34_2 H 0.142284 0.688356 0.987211
C48_4 C 0.1368(3) 0.4277(3) 0.6672(6)
H38_4 H 0.113974 0.462516 0.668788
C49_4 C 0.1238(3) 0.3858(3) 0.5804(6)
H39_4 H 0.091617 0.391510 0.521694
N8 N 0.01779(18) 0.82666(19) 0.1058(4)
H22 H 0.022917 0.857247 0.153224
C34 C 0.0612(2) 0.8177(2) 0.0073(4)
C43 C 0.1205(2) 0.8367(3) 0.0256(5)
H33 H 0.131947 0.852879 0.103742
N7_3 N 0.1725(2) 0.99085(17) 0.3612(4)
H21_3 H 0.144962 0.984501 0.302538
C28_3 C 0.1808(2) 0.9463(2) 0.4505(4)
C29 C 0.1488(2) 0.8090(2) 0.8170(4)
C32 C 0.1902(2) 0.8548(2) 0.6203(4)
C33 C 0.1957(2) 0.8055(2) 0.7116(5)
H25 H 0.237591 0.805528 0.747889
H26 H 0.190091 0.768786 0.666136
C37 C 0.2115(3) 0.9534(2) 0.5616(5)
H28 H 0.229806 0.989315 0.581660
C39_3 C 0.1548(2) 0.8933(2) 0.4242(5)
H29_3 H 0.133219 0.887920 0.347902
C41 C 0.1638(2) 0.8322(3) 0.9302(5)
H31 H 0.204500 0.845644 0.944110
C42 C 0.2156(3) 0.9077(2) 0.6442(5)
H32 H 0.236963 0.913171 0.720743
C44 C 0.1599(3) 0.8479(2) 0.5076(5)
H34_3 H 0.142284 0.811644 0.487211
C45 C 0.0900(3) 0.7895(3) 0.8008(5)
H35 H 0.078973 0.772702 0.722991
C50 C 0.0456(3) 0.7933(3) 0.8951(5)
H40 H 0.005099 0.779182 0.881519
N3_3 N 0.6725(2) 0.00915(17) 0.1388(4)
H1_3 H 0.644962 0.015499 0.197462
C3_3 C 0.6808(2) 0.0537(2) 0.0495(4)
C14_3 C 0.6548(2) 0.1067(2) 0.0758(5)
H9_3 H 0.633219 0.112080 0.152098
H14_3 H 0.642284 0.188356 0.012789
N8_2 N 0.98221(18) 0.32666(19) 0.3942(4)
H22_2 H 0.977083 0.357247 0.346776
C29_2 C 0.8512(2) 0.3090(2) 0.6830(4)
C32_2 C 0.8098(2) 0.3548(2) 0.8797(4)
C33_2 C 0.8043(2) 0.3055(2) 0.7884(5)
H25_2 H 0.762409 0.305528 0.752111
H26_2 H 0.809909 0.268786 0.833864
C34_2 C 0.9388(2) 0.3177(2) 0.4927(4)
C37_2 C 0.7885(3) 0.4534(2) 0.9384(5)
H28_2 H 0.770194 0.489315 0.918340
C41_2 C 0.8362(2) 0.3322(3) 0.5698(5)
H31_2 H 0.795500 0.345644 0.555890
C42_2 C 0.7844(3) 0.4077(2) 0.8558(5)
H32_2 H 0.763037 0.413171 0.779257
C43_2 C 0.8795(2) 0.3367(3) 0.4744(5)
H33_2 H 0.868053 0.352879 0.396258
C44_2 C 0.8401(3) 0.3479(2) 0.9924(5)
C45_2 C 0.9100(3) 0.2895(3) 0.6992(5)
H35_2 H 0.921027 0.272702 0.777009
C50_2 C 0.9544(3) 0.2933(3) 0.6049(5)
H40_2 H 0.994901 0.279182 0.618481
N7_4 N 0.8275(2) 0.00915(17) 0.6388(4)
H21_4 H 0.855038 0.015499 0.697462
C28_4 C 0.8192(2) 0.0537(2) 0.5495(4)
C29_3 C 0.8512(2) 0.1910(2) 0.1830(4)
C32_3 C 0.8098(2) 0.1452(2) 0.3797(4)
C33_3 C 0.8043(2) 0.1945(2) 0.2884(5)
H25_3 H 0.762409 0.194472 0.252111
H26_3 H 0.809909 0.231214 0.333864
C37_3 C 0.7885(3) 0.0466(2) 0.4384(5)
H28_3 H 0.770194 0.010685 0.418340
C39_4 C 0.8452(2) 0.1067(2) 0.5758(5)
H29_4 H 0.866781 0.112080 0.652098
C41_3 C 0.8362(2) 0.1678(3) 0.0698(5)
H31_3 H 0.795500 0.154356 0.055890
C42_3 C 0.7844(3) 0.0923(2) 0.3558(5)
H32_3 H 0.763037 0.086829 0.279257
C44_3 C 0.8401(3) 0.1521(2) 0.4924(5)
H34_4 H 0.857716 0.188356 0.512789
C45_3 C 0.9100(3) 0.2105(3) 0.1992(5)
H35_3 H 0.921027 0.227298 0.277009
C50_3 C 0.9544(3) 0.2067(3) 0.1049(5)
H40_3 H 0.994901 0.220818 0.118481
N8_3 N 0.98221(18) 0.17334(19) 0.8942(4)
H22_3 H 0.977083 0.142753 0.846776
C34_3 C 0.9388(2) 0.1823(2) 0.9927(4)
C43_3 C 0.8795(2) 0.1633(3) 0.9744(5)
H33_3 H 0.868053 0.147121 0.896258
N8_4 N 0.01779(18) 0.67334(19) 0.6058(4)
H22_4 H 0.022917 0.642753 0.653224
C29_4 C 0.1488(2) 0.6910(2) 0.3170(4)
C32_4 C 0.1902(2) 0.6452(2) 0.1203(4)
C33_4 C 0.1957(2) 0.6945(2) 0.2116(5)
H25_4 H 0.237591 0.694472 0.247889
H26_4 H 0.190091 0.731214 0.166136
C34_4 C 0.0612(2) 0.6823(2) 0.5073(4)
C37_4 C 0.2115(3) 0.5466(2) 0.0616(5)
H28_4 H 0.229806 0.510685 0.081660
C41_4 C 0.1638(2) 0.6678(3) 0.4302(5)
H31_4 H 0.204500 0.654356 0.444110
C42_4 C 0.2156(3) 0.5923(2) 0.1442(5)
H32_4 H 0.236963 0.586829 0.220743
C43_4 C 0.1205(2) 0.6633(3) 0.5256(5)
H33_4 H 0.131947 0.647121 0.603742
C44_4 C 0.1599(3) 0.6521(2) 0.0076(5)
C45_4 C 0.0900(3) 0.7105(3) 0.3008(5)
H35_4 H 0.078973 0.727298 0.222991
C50_4 C 0.0456(3) 0.7067(3) 0.3951(5)
H40_4 H 0.005099 0.720818 0.381519
N3_4 N 0.3275(2) 0.99085(17) 0.8612(4)
H1_4 H 0.355038 0.984501 0.802538
C3_4 C 0.3192(2) 0.9463(2) 0.9505(4)
C14_4 C 0.3452(2) 0.8933(2) 0.9242(5)
H9_4 H 0.366781 0.887920 0.847902
H14_4 H 0.357716 0.811644 0.987211
Cl5 Cl 0.45155(12) 0.54887(10) 0.1999(2)
Cl5_2 Cl 0.04845(12) 0.95113(10) 0.1999(2)
Cl5_3 Cl 0.54845(12) 0.04887(10) 0.3001(2)
Cl5_4 Cl 0.95155(12) 0.45113(10) 0.3001(2)
Cl5_5 Cl 0.54845(12) 0.45113(10) 0.8001(2)
Cl5_6 Cl 0.95155(12) 0.04887(10) 0.8001(2)
Cl5_7 Cl 0.45155(12) 0.95113(10) 0.6999(2)
Cl5_8 Cl 0.04845(12) 0.54887(10) 0.6999(2)
loop_
_geom_bond_atom_site_label_1
_geom_bond_atom_site_label_2
_geom_bond_site_symmetry_1
_geom_bond_site_symmetry_2
N2 C1 1_555 1_555
O1 C13 1_555 1_555
N4 H2 1_555 1_555
C1 H3 1_555 1_555
C6 C1 1_555 1_555
C9 N4 1_555 1_555
C13 N4 1_555 1_555
C15 N2 1_555 1_555
H10 C15 1_555 1_555
C18 C9 1_555 1_555
H13 C18 1_555 1_555
C21 C6 1_555 1_555
H16 C21 1_555 1_555
C22 C15 1_555 1_555
H17 C22 1_555 1_555
Cu3 N2 1_555 1_555
N11 Cu3 1_555 1_555
N12 Cu3 1_555 1_555
Cl3 Cu3 1_555 1_555
Cl4 Cu3 1_555 1_555
N13 Cu3 1_555 1_555
Cu5 Cl3 1_555 1_555
C6 C13 1_555 1_555
C21 C22 1_555 1_555
N13 C26 1_555 1_555
O3 C38 1_555 1_555
C26 H23 1_555 1_555
C31 C26 1_555 1_555
C40 N13 1_555 1_555
H30 C40 1_555 1_555
C46 C31 1_555 1_555
H36 C46 1_555 1_555
C47 C40 1_555 1_555
H37 C47 1_555 1_555
C31 C38 1_555 1_555
C46 C47 1_555 1_555
O2 C10 1_555 1_555
C2 N12 1_555 1_555
H4 C2 1_555 1_555
C5 C2 1_555 1_555
C11 N12 1_555 1_555
H7 C11 1_555 1_555
C23 C5 1_555 1_555
H18 C23 1_555 1_555
C24 C11 1_555 1_555
H19 C24 1_555 1_555
N7 H21 1_555 1_555
O4 C35 1_555 1_555
C27 N11 1_555 1_555
H24 C27 1_555 1_555
C28 N7 1_555 1_555
C30 C27 1_555 1_555
C35 N7 1_555 1_555
C36 N11 1_555 1_555
H27 C36 1_555 1_555
C39 C28 1_555 1_555
H29 C39 1_555 1_555
C48 C30 1_555 1_555
H38 C48 1_555 1_555
C49 C36 1_555 1_555
H39 C49 1_555 1_555
C5 C10 1_555 1_555
C23 C24 1_555 1_555
C30 C35 1_555 1_555
C48 C49 1_555 1_555
N1 Cu5 1_555 1_555
N3 H1 1_555 1_555
O2_2 C10_2 1_555 1_555
C2_2 N1 1_555 1_555
H4_2 C2_2 1_555 1_555
C3 N3 1_555 1_555
C4 C8 1_555 1_555
C5_2 C2_2 1_555 1_555
C7 C8 1_555 1_555
C8 H5 1_555 1_555
H6 C8 1_555 1_555
C10_2 N3 1_555 1_555
C11_2 N1 1_555 1_555
H7_2 C11_2 1_555 1_555
C12 C3 1_555 1_555
H8 C12 1_555 1_555
C14 C3 1_555 1_555
H9 C14 1_555 1_555
C16 C4 1_555 1_555
H11 C16 1_555 1_555
C17 C7 1_555 1_555
H12 C17 1_555 1_555
C19 C7 1_555 1_555
H14 C19 1_555 1_555
C20 C4 1_555 1_555
H15 C20 1_555 1_555
C23_2 C5_2 1_555 1_555
H18_2 C23_2 1_555 1_555
C24_2 C11_2 1_555 1_555
H19_2 C24_2 1_555 1_555
H20 C25 1_555 1_555
N5 Cu5 1_555 1_555
O4_2 C35_2 1_555 1_555
C27_2 N5 1_555 1_555
H24_2 C27_2 1_555 1_555
C30_2 C27_2 1_555 1_555
C36_2 N5 1_555 1_555
H27_2 C36_2 1_555 1_555
C48_2 C30_2 1_555 1_555
H38_2 C48_2 1_555 1_555
C49_2 C36_2 1_555 1_555
H39_2 C49_2 1_555 1_555
N9 Cu5 1_555 1_555
N10 Cu5 1_555 1_555
C5_2 C10_2 1_555 1_555
C12 C17 1_555 1_555
C14 C19 1_555 1_555
C20 C25 1_555 1_555
C23_2 C24_2 1_555 1_555
C30_2 C35_2 1_555 1_555
C48_2 C49_2 1_555 1_555
N9 C1_2 1_555 1_555
O1_2 C13_2 1_555 1_555
N4_2 H2_2 1_555 1_555
C1_2 H3_2 1_555 1_555
C4_2 C8_2 1_555 1_555
C6_2 C1_2 1_555 1_555
C7_2 C8_2 1_555 1_555
C8_2 H5_2 1_555 1_555
H6_2 C8_2 1_555 1_555
C9_2 N4_2 1_555 1_555
H8_2 C12_2 1_555 1_555
C13_2 N4_2 1_555 1_555
C15_2 N9 1_555 1_555
H10_2 C15_2 1_555 1_555
C16_2 C4_2 1_555 1_555
H11_2 C16_2 1_555 1_555
C17_2 C7_2 1_555 1_555
H12_2 C17_2 1_555 1_555
C18_2 C9_2 1_555 1_555
H13_2 C18_2 1_555 1_555
C19_2 C7_2 1_555 1_555
C20_2 C4_2 1_555 1_555
H15_2 C20_2 1_555 1_555
C21_2 C6_2 1_555 1_555
H16_2 C21_2 1_555 1_555
C22_2 C15_2 1_555 1_555
H17_2 C22_2 1_555 1_555
C25_2 C9_2 1_555 1_555
H20_2 C25_2 1_555 1_555
C6_2 C13_2 1_555 1_555
C12_2 C17_2 1_555 1_555
C16_2 C18_2 1_555 1_555
C20_2 C25_2 1_555 1_555
C21_2 C22_2 1_555 1_555
N10 C26_2 1_555 1_555
O3_2 C38_2 1_555 1_555
C26_2 H23_2 1_555 1_555
C31_2 C26_2 1_555 1_555
C40_2 N10 1_555 1_555
H30_2 C40_2 1_555 1_555
C46_2 C31_2 1_555 1_555
H36_2 C46_2 1_555 1_555
C47_2 C40_2 1_555 1_555
H37_2 C47_2 1_555 1_555
C31_2 C38_2 1_555 1_555
C46_2 C47_2 1_555 1_555
N1_2 Cu1 1_555 1_555
N3_2 H1_2 1_555 1_555
O2_3 C10_3 1_555 1_555
C2_3 N1_2 1_555 1_555
H4_3 C2_3 1_555 1_555
C3_2 N3_2 1_555 1_555
C4_3 C8_3 1_555 1_555
C5_3 C2_3 1_555 1_555
C7_3 C8_3 1_555 1_555
C8_3 H5_3 1_555 1_555
H6_3 C8_3 1_555 1_555
C10_3 N3_2 1_555 1_555
C11_3 N1_2 1_555 1_555
H7_3 C11_3 1_555 1_555
C12_3 C3_2 1_555 1_555
H8_3 C12_3 1_555 1_555
C14_2 C3_2 1_555 1_555
H9_2 C14_2 1_555 1_555
C16_3 C4_3 1_555 1_555
H11_3 C16_3 1_555 1_555
C17_3 C7_3 1_555 1_555
H12_3 C17_3 1_555 1_555
C19_3 C7_3 1_555 1_555
H14_2 C19_3 1_555 1_555
C20_3 C4_3 1_555 1_555
H15_3 C20_3 1_555 1_555
C23_3 C5_3 1_555 1_555
H18_3 C23_3 1_555 1_555
C24_3 C11_3 1_555 1_555
H19_3 C24_3 1_555 1_555
H20_3 C25_3 1_555 1_555
N5_2 Cu1 1_555 1_555
O4_3 C35_3 1_555 1_555
C27_3 N5_2 1_555 1_555
H24_3 C27_3 1_555 1_555
C30_3 C27_3 1_555 1_555
C36_3 N5_2 1_555 1_555
H27_3 C36_3 1_555 1_555
C48_3 C30_3 1_555 1_555
H38_3 C48_3 1_555 1_555
C49_3 C36_3 1_555 1_555
H39_3 C49_3 1_555 1_555
Cl2 Cu1 1_555 1_555
N9_2 Cu1 1_555 1_555
N10_2 Cu1 1_555 1_555
C5_3 C10_3 1_555 1_555
C12_3 C17_3 1_555 1_555
C14_2 C19_3 1_555 1_555
C20_3 C25_3 1_555 1_555
C23_3 C24_3 1_555 1_555
C30_3 C35_3 1_555 1_555
C48_3 C49_3 1_555 1_555
Cl1 Cu4 1_555 1_555
N10_2 C26_3 1_555 1_555
O3_3 C38_3 1_555 1_555
C26_3 H23_3 1_555 1_555
C31_3 C26_3 1_555 1_555
C40_3 N10_2 1_555 1_555
H30_3 C40_3 1_555 1_555
C46_3 C31_3 1_555 1_555
H36_3 C46_3 1_555 1_555
C47_3 C40_3 1_555 1_555
H37_3 C47_3 1_555 1_555
C31_3 C38_3 1_555 1_555
C46_3 C47_3 1_555 1_555
N9_2 C1_3 1_555 1_555
O1_3 C13_3 1_555 1_555
N4_3 H2_3 1_555 1_555
C1_3 H3_3 1_555 1_555
C4_4 C8_4 1_555 1_555
C6_3 C1_3 1_555 1_555
C7_4 C8_4 1_555 1_555
C8_4 H5_4 1_555 1_555
H6_4 C8_4 1_555 1_555
C9_3 N4_3 1_555 1_555
H8_4 C12_4 1_555 1_555
C13_3 N4_3 1_555 1_555
C15_3 N9_2 1_555 1_555
H10_3 C15_3 1_555 1_555
C16_4 C4_4 1_555 1_555
H11_4 C16_4 1_555 1_555
C17_4 C7_4 1_555 1_555
H12_4 C17_4 1_555 1_555
C18_3 C9_3 1_555 1_555
H13_3 C18_3 1_555 1_555
C19_4 C7_4 1_555 1_555
C20_4 C4_4 1_555 1_555
H15_4 C20_4 1_555 1_555
C21_3 C6_3 1_555 1_555
H16_3 C21_3 1_555 1_555
C22_3 C15_3 1_555 1_555
H17_3 C22_3 1_555 1_555
C25_4 C9_3 1_555 1_555
H20_4 C25_4 1_555 1_555
C6_3 C13_3 1_555 1_555
C12_4 C17_4 1_555 1_555
C16_4 C18_3 1_555 1_555
C20_4 C25_4 1_555 1_555
C21_3 C22_3 1_555 1_555
N6 C26_4 1_555 1_555
O3_4 C38_4 1_555 1_555
C26_4 H23_4 1_555 1_555
C31_4 C26_4 1_555 1_555
C40_4 N6 1_555 1_555
H30_4 C40_4 1_555 1_555
C46_4 C31_4 1_555 1_555
H36_4 C46_4 1_555 1_555
C47_4 C40_4 1_555 1_555
H37_4 C47_4 1_555 1_555
Cu4 N6 1_555 1_555
C31_4 C38_4 1_555 1_555
C46_4 C47_4 1_555 1_555
N2_2 C1_4 1_555 1_555
O1_4 C13_4 1_555 1_555
N4_4 H2_4 1_555 1_555
C1_4 H3_4 1_555 1_555
C6_4 C1_4 1_555 1_555
C9_4 N4_4 1_555 1_555
C13_4 N4_4 1_555 1_555
C15_4 N2_2 1_555 1_555
H10_4 C15_4 1_555 1_555
C18_4 C9_4 1_555 1_555
H13_4 C18_4 1_555 1_555
C21_4 C6_4 1_555 1_555
H16_4 C21_4 1_555 1_555
C22_4 C15_4 1_555 1_555
H17_4 C22_4 1_555 1_555
Cu4 N2_2 1_555 1_555
N11_2 Cu4 1_555 1_555
N12_2 Cu4 1_555 1_555
Cl2 Cu4 1_555 1_555
C6_4 C13_4 1_555 1_555
C21_4 C22_4 1_555 1_555
O2_4 C10_4 1_555 1_555
C2_4 N12_2 1_555 1_555
H4_4 C2_4 1_555 1_555
C5_4 C2_4 1_555 1_555
C11_4 N12_2 1_555 1_555
H7_4 C11_4 1_555 1_555
C23_4 C5_4 1_555 1_555
H18_4 C23_4 1_555 1_555
C24_4 C11_4 1_555 1_555
H19_4 C24_4 1_555 1_555
N7_2 H21_2 1_555 1_555
O4_4 C35_4 1_555 1_555
C27_4 N11_2 1_555 1_555
H24_4 C27_4 1_555 1_555
C28_2 N7_2 1_555 1_555
C30_4 C27_4 1_555 1_555
C35_4 N7_2 1_555 1_555
C36_4 N11_2 1_555 1_555
H27_4 C36_4 1_555 1_555
C39_2 C28_2 1_555 1_555
H29_2 C39_2 1_555 1_555
C48_4 C30_4 1_555 1_555
H38_4 C48_4 1_555 1_555
C49_4 C36_4 1_555 1_555
H39_4 C49_4 1_555 1_555
C5_4 C10_4 1_555 1_555
C23_4 C24_4 1_555 1_555
C30_4 C35_4 1_555 1_555
C48_4 C49_4 1_555 1_555
N8 H22 1_555 1_555
C34 N8 1_555 1_555
C43 C34 1_555 1_555
H33 C43 1_555 1_555
N7_3 H21_3 1_555 1_555
C28_3 N7_3 1_555 1_555
C29 C33 1_555 1_555
C32 C33 1_555 1_555
C33 H25 1_555 1_555
H26 C33 1_555 1_555
C37 C28_3 1_555 1_555
H28 C37 1_555 1_555
C39_3 C28_3 1_555 1_555
H29_3 C39_3 1_555 1_555
C41 C29 1_555 1_555
H31 C41 1_555 1_555
C42 C32 1_555 1_555
H32 C42 1_555 1_555
C44 C32 1_555 1_555
H34_3 C44 1_555 1_555
C45 C29 1_555 1_555
H35 C45 1_555 1_555
H40 C50 1_555 1_555
C37 C42 1_555 1_555
C39_3 C44 1_555 1_555
C45 C50 1_555 1_555
N3_3 H1_3 1_555 1_555
C3_3 N3_3 1_555 1_555
C14_3 C3_3 1_555 1_555
H9_3 C14_3 1_555 1_555
N8_2 H22_2 1_555 1_555
C29_2 C33_2 1_555 1_555
C32_2 C33_2 1_555 1_555
C33_2 H25_2 1_555 1_555
H26_2 C33_2 1_555 1_555
C34_2 N8_2 1_555 1_555
H28_2 C37_2 1_555 1_555
C41_2 C29_2 1_555 1_555
H31_2 C41_2 1_555 1_555
C42_2 C32_2 1_555 1_555
H32_2 C42_2 1_555 1_555
C43_2 C34_2 1_555 1_555
H33_2 C43_2 1_555 1_555
C44_2 C32_2 1_555 1_555
C45_2 C29_2 1_555 1_555
H35_2 C45_2 1_555 1_555
C50_2 C34_2 1_555 1_555
H40_2 C50_2 1_555 1_555
C37_2 C42_2 1_555 1_555
C41_2 C43_2 1_555 1_555
C45_2 C50_2 1_555 1_555
N7_4 H21_4 1_555 1_555
C28_4 N7_4 1_555 1_555
C29_3 C33_3 1_555 1_555
C32_3 C33_3 1_555 1_555
C33_3 H25_3 1_555 1_555
H26_3 C33_3 1_555 1_555
C37_3 C28_4 1_555 1_555
H28_3 C37_3 1_555 1_555
C39_4 C28_4 1_555 1_555
H29_4 C39_4 1_555 1_555
C41_3 C29_3 1_555 1_555
H31_3 C41_3 1_555 1_555
C42_3 C32_3 1_555 1_555
H32_3 C42_3 1_555 1_555
C44_3 C32_3 1_555 1_555
H34_4 C44_3 1_555 1_555
C45_3 C29_3 1_555 1_555
H35_3 C45_3 1_555 1_555
H40_3 C50_3 1_555 1_555
C37_3 C42_3 1_555 1_555
C39_4 C44_3 1_555 1_555
C45_3 C50_3 1_555 1_555
N8_3 H22_3 1_555 1_555
C34_3 N8_3 1_555 1_555
C43_3 C34_3 1_555 1_555
H33_3 C43_3 1_555 1_555
N8_4 H22_4 1_555 1_555
C29_4 C33_4 1_555 1_555
C32_4 C33_4 1_555 1_555
C33_4 H25_4 1_555 1_555
H26_4 C33_4 1_555 1_555
C34_4 N8_4 1_555 1_555
H28_4 C37_4 1_555 1_555
C41_4 C29_4 1_555 1_555
H31_4 C41_4 1_555 1_555
C42_4 C32_4 1_555 1_555
H32_4 C42_4 1_555 1_555
C43_4 C34_4 1_555 1_555
H33_4 C43_4 1_555 1_555
C44_4 C32_4 1_555 1_555
C45_4 C29_4 1_555 1_555
H35_4 C45_4 1_555 1_555
C50_4 C34_4 1_555 1_555
H40_4 C50_4 1_555 1_555
C37_4 C42_4 1_555 1_555
C41_4 C43_4 1_555 1_555
C45_4 C50_4 1_555 1_555
N3_4 H1_4 1_555 1_555
C3_4 N3_4 1_555 1_555
C14_4 C3_4 1_555 1_555
H9_4 C14_4 1_555 1_555

#END
