
###############################################################################
#
# This file contains modified crystal structure data generated from the
# MOF subset of the Cambridge Structural Database (CSD) v543 
# hosted by the Cambridge Crystallographic Data Centre (CCDC).
#
# This work is licensed under the Creative Commons
# Attribution-NonCommercial-ShareAlike 4.0 International License.
# To view a copy of this license, visit
# http://creativecommons.org/licenses/by-nc-sa/4.0/
# or send a letter to
# Creative Commons, PO Box 1866, Mountain View, CA 94042, USA.
#
# CIF created using the CSD Python API on 29 September 2022
# The structure has been converted into the P1 space group
# The structure has a 3D framework
# The original CSD entry JAHHEJ is in the orthorhombic crystal system
# The framework has been calculated to contain at least 10.0% void space
# The void calculation uses a probe of radius 1.32A, grid spacing 0.4
#
###############################################################################

data_JAHHEJ
_chemical_formula_moiety         '(C192 H112 Co8 N16 O32 S32)n'
_symmetry_cell_setting           triclinic
_symmetry_space_group_name_H-M   'P 1'
_symmetry_Int_Tables_number      1
_space_group_name_Hall           'P 1'
loop_
_symmetry_equiv_pos_site_id
_symmetry_equiv_pos_as_xyz
1 x,y,z
_cell_length_a                   17.8922(9)
_cell_length_b                   19.0086(9)
_cell_length_c                   17.4639(9)
_cell_angle_alpha                90
_cell_angle_beta                 90
_cell_angle_gamma                90
_cell_volume                     5939.57
loop_
_atom_site_label
_atom_site_type_symbol
_atom_site_fract_x
_atom_site_fract_y
_atom_site_fract_z
S1 S 0.1538(2) 0.27068(18) 0.1941(2)
S2 S 0.2471(3) 0.3384(2) 0.0757(2)
S3 S 0.1014(2) 0.42232(19) 0.2554(2)
S4 S 0.1951(2) 0.49173(19) 0.1370(2)
S5 S 0.2296(2) 0.2954(2) 0.4128(3)
S6 S 0.3321(2) 0.22767(19) 0.3023(2)
S7 S 0.2849(2) 0.44887(19) 0.3529(2)
S8 S 0.3851(2) 0.3801(2) 0.2407(2)
N2 N 0.1699(6) 0.7667(5) 0.1731(6)
N4 N 0.3270(6) 0.7290(7) 0.3283(7)
C1 C 0.2094(8) 0.2179(6) 0.1351(8)
C2 C 0.2510(8) 0.2480(9) 0.0809(9)
H1 H 0.281078 0.221053 0.046965
C3 C 0.1873(10) 0.3482(7) 0.1536(9)
C4 C 0.1644(8) 0.4131(7) 0.1774(9)
C5 C 0.1476(7) 0.5483(7) 0.2030(7)
C6 C 0.1052(7) 0.5132(6) 0.2562(7)
H2 H 0.077950 0.538904 0.293588
C7 C 0.2356(7) 0.0233(6) 0.1125(7)
C8 C 0.2449(7) 0.0945(7) 0.1026(8)
H4 H 0.278969 0.111525 0.065244
C9 C 0.2052(8) 0.1407(7) 0.1466(8)
C10 C 0.1562(9) 0.1114(7) 0.2010(8)
H5 H 0.128310 0.141426 0.233815
C11 C 0.1483(9) 0.0384(7) 0.2072(8)
H6 H 0.113542 0.019870 0.243033
C12 C 0.1121(7) 0.7401(7) 0.2173(7)
H7 H 0.077843 0.771688 0.240717
C13 C 0.1038(8) 0.6706(7) 0.2277(7)
H8 H 0.064129 0.652733 0.258207
C14 C 0.1546(7) 0.6251(7) 0.1927(7)
C15 C 0.2129(8) 0.6522(7) 0.1491(8)
H9 H 0.248374 0.622524 0.124745
C16 C 0.2166(8) 0.7262(7) 0.1431(8)
H10 H 0.256682 0.746307 0.114832
C17 C 0.2808(7) 0.1727(7) 0.3636(8)
C18 C 0.2349(7) 0.2047(6) 0.4114(7)
H11 H 0.204638 0.177749 0.445148
C19 C 0.2979(7) 0.3057(7) 0.3371(9)
C20 C 0.3195(9) 0.3680(7) 0.3119(9)
C21 C 0.3411(7) 0.5007(7) 0.2988(7)
C22 C 0.3877(10) 0.4708(10) 0.2467(11)
H12 H 0.419901 0.498181 0.215322
C24 C 0.3370(7) 0.0647(8) 0.3026(8)
H14 H 0.363946 0.093910 0.268182
C25 C 0.2906(7) 0.0963(7) 0.3563(6)
C26 C 0.2554(7) 0.0487(7) 0.4076(7)
H15 H 0.223603 0.066164 0.446835
C28 C 0.2759(8) 0.6798(8) 0.3583(9)
H17 H 0.235063 0.697772 0.387104
C29 C 0.2800(8) 0.6091(8) 0.3495(9)
H18 H 0.243505 0.579708 0.372683
C30 C 0.3382(9) 0.5787(8) 0.3059(8)
C31 C 0.3889(8) 0.6238(7) 0.2780(9)
H19 H 0.430544 0.605910 0.250479
C32 C 0.3820(8) 0.6967(7) 0.2883(8)
H20 H 0.418979 0.725718 0.265347
Co3 Co 0.17768(9) 0.88135(9) 0.16711(9)
Co5 Co 0.32032(9) 0.83779(9) 0.33714(9)
O1 O 0.1453(6) 0.8936(5) 0.2762(5)
O2 O 0.2114(5) 0.8281(4) 0.3589(5)
O5 O 0.2843(6) 0.8724(6) 0.1358(7)
O6 O 0.3591(6) 0.8430(6) 0.2301(6)
N1 N 0.1896(6) 0.9924(6) 0.1628(7)
N3 N 0.3104(5) 0.9522(5) 0.3444(6)
H3 H 0.264393 0.993273 0.080616
C23 C 0.3457(8) 0.9911(8) 0.2968(8)
H13 H 0.377006 0.970963 0.258664
C27 C 0.2669(8) 0.9773(7) 0.4010(7)
H16 H 0.244200 0.945807 0.436239
C33 C 0.0919(7) 0.8678(6) 0.3969(7)
C34 C 0.0229(7) 0.8935(7) 0.3750(8)
H21 H 0.014523 0.907050 0.323323
C37 C 0.0505(8) 0.8547(8) 0.5247(8)
H23 H 0.061093 0.840743 0.575743
C38 C 0.1051(8) 0.8502(9) 0.4695(9)
H24 H 0.153411 0.834008 0.483521
C39 C 0.1525(6) 0.8620(5) 0.3417(7)
C41 C 0.4093(8) 0.8483(8) 0.1089(8)
C42 C 0.4824(8) 0.8365(9) 0.1307(8)
H25 H 0.494296 0.832589 0.183518
C43 C 0.5386(8) 0.8304(10) 0.0765(8)
H26 H 0.587854 0.817894 0.091492
C44 C 0.5221(8) 0.8426(10) 0.0006(8)
C46 C 0.3957(9) 0.8599(10) 0.0293(8)
H28 H 0.346277 0.868834 0.012152
C47 C 0.3484(7) 0.8566(6) 0.1583(7)
O9 O 0.1486(5) 0.8806(5) 0.0446(5)
O10 O 0.0633(6) 0.8835(5) 0.1340(5)
O11 O 0.4350(5) 0.8402(6) 0.3716(6)
O12 O 0.3494(6) 0.8342(5) 0.4604(6)
O7 O 0.5650(5) 0.8402(6) 0.8716(6)
O8 O 0.6506(6) 0.8342(5) 0.9604(6)
C45 C 0.4523(9) 0.8584(12) 0.9782(10)
H27 H 0.442658 0.868517 0.925888
C48 C 0.5850(7) 0.8389(7) 0.9404(8)
Co6 Co 0.67968(9) 0.83779(9) 0.83714(9)
O3 O 0.8514(5) 0.8806(5) 0.5446(5)
O4 O 0.9367(6) 0.8835(5) 0.6340(5)
C35 C 0.9663(8) 0.8994(7) 0.4281(7)
H22 H 0.918577 0.916468 0.413087
C36 C 0.9799(7) 0.8797(7) 0.5059(8)
C40 C 0.9207(9) 0.8810(8) 0.5636(7)
Co4 Co 0.82232(9) 0.88135(9) 0.66711(9)
C36_2 C 0.0201(7) 0.8797(7) 0.0059(8)
C40_2 C 0.0793(9) 0.8810(8) 0.0636(7)
S1_2 S 0.8462(2) 0.27068(18) 0.6941(2)
S2_2 S 0.7529(3) 0.3384(2) 0.5757(2)
S3_2 S 0.8986(2) 0.42232(19) 0.7554(2)
S4_2 S 0.8049(2) 0.49173(19) 0.6370(2)
S5_2 S 0.7704(2) 0.2954(2) 0.9128(3)
S6_2 S 0.6679(2) 0.22767(19) 0.8023(2)
S7_2 S 0.7151(2) 0.44887(19) 0.8529(2)
S8_2 S 0.6149(2) 0.3801(2) 0.7407(2)
N2_2 N 0.8301(6) 0.7667(5) 0.6731(6)
N4_2 N 0.6730(6) 0.7290(7) 0.8283(7)
C1_2 C 0.7906(8) 0.2179(6) 0.6351(8)
C2_2 C 0.7490(8) 0.2480(9) 0.5809(9)
H1_2 H 0.718922 0.221053 0.546965
C3_2 C 0.8127(10) 0.3482(7) 0.6536(9)
C4_2 C 0.8356(8) 0.4131(7) 0.6774(9)
C5_2 C 0.8524(7) 0.5483(7) 0.7030(7)
C6_2 C 0.8948(7) 0.5132(6) 0.7562(7)
H2_2 H 0.922050 0.538904 0.793588
C7_2 C 0.7644(7) 0.0233(6) 0.6125(7)
C8_2 C 0.7551(7) 0.0945(7) 0.6026(8)
H4_2 H 0.721031 0.111525 0.565244
C9_2 C 0.7948(8) 0.1407(7) 0.6466(8)
C10_2 C 0.8438(9) 0.1114(7) 0.7010(8)
H5_2 H 0.871690 0.141426 0.733815
C11_2 C 0.8517(9) 0.0384(7) 0.7072(8)
H6_2 H 0.886458 0.019870 0.743033
C12_2 C 0.8879(7) 0.7401(7) 0.7173(7)
H7_2 H 0.922157 0.771688 0.740717
C13_2 C 0.8962(8) 0.6706(7) 0.7277(7)
H8_2 H 0.935871 0.652733 0.758207
C14_2 C 0.8454(7) 0.6251(7) 0.6927(7)
C15_2 C 0.7871(8) 0.6522(7) 0.6491(8)
H9_2 H 0.751626 0.622524 0.624745
C16_2 C 0.7834(8) 0.7262(7) 0.6431(8)
H10_2 H 0.743318 0.746307 0.614832
C17_2 C 0.7192(7) 0.1727(7) 0.8636(8)
C18_2 C 0.7651(7) 0.2047(6) 0.9114(7)
H11_2 H 0.795362 0.177749 0.945148
C19_2 C 0.7021(7) 0.3057(7) 0.8371(9)
C20_2 C 0.6805(9) 0.3680(7) 0.8119(9)
C21_2 C 0.6589(7) 0.5007(7) 0.7988(7)
C22_2 C 0.6123(10) 0.4708(10) 0.7467(11)
H12_2 H 0.580099 0.498181 0.715322
C24_2 C 0.6630(7) 0.0647(8) 0.8026(8)
H14_2 H 0.636054 0.093910 0.768182
C25_2 C 0.7094(7) 0.0963(7) 0.8563(6)
C26_2 C 0.7446(7) 0.0487(7) 0.9076(7)
H15_2 H 0.776397 0.066164 0.946835
C28_2 C 0.7241(8) 0.6798(8) 0.8583(9)
H17_2 H 0.764937 0.697772 0.887104
C29_2 C 0.7200(8) 0.6091(8) 0.8495(9)
H18_2 H 0.756495 0.579708 0.872683
C30_2 C 0.6618(9) 0.5787(8) 0.8059(8)
C31_2 C 0.6111(8) 0.6238(7) 0.7780(9)
H19_2 H 0.569456 0.605910 0.750479
C32_2 C 0.6180(8) 0.6967(7) 0.7883(8)
H20_2 H 0.581021 0.725718 0.765347
O1_2 O 0.8547(6) 0.8936(5) 0.7762(5)
O2_2 O 0.7886(5) 0.8281(4) 0.8589(5)
O5_2 O 0.7157(6) 0.8724(6) 0.6358(7)
O6_2 O 0.6409(6) 0.8430(6) 0.7301(6)
N1_2 N 0.8104(6) 0.9924(6) 0.6628(7)
N3_2 N 0.6896(5) 0.9522(5) 0.8444(6)
H3_2 H 0.735607 0.993273 0.580616
C23_2 C 0.6543(8) 0.9911(8) 0.7968(8)
H13_2 H 0.622994 0.970963 0.758664
C27_2 C 0.7331(8) 0.9773(7) 0.9010(7)
H16_2 H 0.755800 0.945807 0.936239
C33_2 C 0.9081(7) 0.8678(6) 0.8969(7)
C34_2 C 0.9771(7) 0.8935(7) 0.8750(8)
H21_2 H 0.985477 0.907050 0.823323
C38_2 C 0.8949(8) 0.8502(9) 0.9695(9)
H24_2 H 0.846589 0.834008 0.983521
C39_2 C 0.8475(6) 0.8620(5) 0.8417(7)
C41_2 C 0.5907(8) 0.8483(8) 0.6089(8)
C42_2 C 0.5176(8) 0.8365(9) 0.6307(8)
H25_2 H 0.505704 0.832589 0.683518
C43_2 C 0.4614(8) 0.8304(10) 0.5765(8)
H26_2 H 0.412146 0.817894 0.591492
C44_2 C 0.4779(8) 0.8426(10) 0.5006(8)
C45_2 C 0.5477(9) 0.8584(12) 0.4782(10)
H27_2 H 0.557342 0.868517 0.425888
C46_2 C 0.6043(9) 0.8599(10) 0.5293(8)
H28_2 H 0.653723 0.868834 0.512152
C47_2 C 0.6516(7) 0.8566(6) 0.6583(7)
C48_2 C 0.4150(7) 0.8389(7) 0.4404(8)
O3_2 O 0.1486(5) 0.1194(5) 0.5446(5)
O4_2 O 0.0633(6) 0.1165(5) 0.6340(5)
C35_2 C 0.0337(8) 0.1006(7) 0.4281(7)
H22_2 H 0.081423 0.083532 0.413087
C36_3 C 0.0201(7) 0.1203(7) 0.5059(8)
C40_3 C 0.0793(9) 0.1190(8) 0.5636(7)
Co4_2 Co 0.17768(9) 0.11865(9) 0.66711(9)
Co1 Co 0.82232(9) 0.11865(9) 0.16711(9)
Co2 Co 0.67968(9) 0.16221(9) 0.33714(9)
O1_3 O 0.8547(6) 0.1064(5) 0.2762(5)
O2_3 O 0.7886(5) 0.1719(4) 0.3589(5)
O5_3 O 0.7157(6) 0.1276(6) 0.1358(7)
O6_3 O 0.6409(6) 0.1570(6) 0.2301(6)
N1_3 N 0.8104(6) 0.0076(6) 0.1628(7)
N3_3 N 0.6896(5) 0.0478(5) 0.3444(6)
H3_3 H 0.735607 0.006727 0.080616
C23_3 C 0.6543(8) 0.0089(8) 0.2968(8)
H13_3 H 0.622994 0.029037 0.258664
C27_3 C 0.7331(8) 0.0227(7) 0.4010(7)
H16_3 H 0.755800 0.054193 0.436239
C33_3 C 0.9081(7) 0.1322(6) 0.3969(7)
C34_3 C 0.9771(7) 0.1065(7) 0.3750(8)
H21_3 H 0.985477 0.092950 0.323323
C37_2 C 0.9495(8) 0.1453(8) 0.5247(8)
H23_2 H 0.938907 0.159257 0.575743
C38_3 C 0.8949(8) 0.1498(9) 0.4695(9)
H24_3 H 0.846589 0.165992 0.483521
C39_3 C 0.8475(6) 0.1380(5) 0.3417(7)
C41_3 C 0.5907(8) 0.1517(8) 0.1089(8)
C42_3 C 0.5176(8) 0.1635(9) 0.1307(8)
H25_3 H 0.505704 0.167411 0.183518
C43_3 C 0.4614(8) 0.1696(10) 0.0765(8)
H26_3 H 0.412146 0.182106 0.091492
C44_3 C 0.4779(8) 0.1574(10) 0.0006(8)
C46_3 C 0.6043(9) 0.1401(10) 0.0293(8)
H28_3 H 0.653723 0.131166 0.012152
C47_3 C 0.6516(7) 0.1434(6) 0.1583(7)
O9_2 O 0.8514(5) 0.1194(5) 0.0446(5)
O10_2 O 0.9367(6) 0.1165(5) 0.1340(5)
O11_2 O 0.5650(5) 0.1598(6) 0.3716(6)
O12_2 O 0.6506(6) 0.1658(5) 0.4604(6)
N5 N 0.8301(6) 0.2333(5) 0.1731(6)
N6 N 0.6730(6) 0.2710(7) 0.3283(7)
O7_2 O 0.4350(5) 0.1598(6) 0.8716(6)
O8_2 O 0.3494(6) 0.1658(5) 0.9604(6)
C45_3 C 0.5477(9) 0.1416(12) 0.9782(10)
H27_3 H 0.557342 0.131483 0.925888
C48_3 C 0.4150(7) 0.1611(7) 0.9404(8)
Co6_2 Co 0.32032(9) 0.16221(9) 0.83714(9)
S1_3 S 0.8462(2) 0.72932(18) 0.1941(2)
S2_3 S 0.7529(3) 0.6616(2) 0.0757(2)
S3_3 S 0.8986(2) 0.57768(19) 0.2554(2)
S4_3 S 0.8049(2) 0.50827(19) 0.1370(2)
S5_3 S 0.7704(2) 0.7046(2) 0.4128(3)
S6_3 S 0.6679(2) 0.77233(19) 0.3023(2)
S7_3 S 0.7151(2) 0.55113(19) 0.3529(2)
S8_3 S 0.6149(2) 0.6199(2) 0.2407(2)
C1_3 C 0.7906(8) 0.7821(6) 0.1351(8)
C2_3 C 0.7490(8) 0.7520(9) 0.0809(9)
H1_3 H 0.718922 0.778947 0.046965
C3_3 C 0.8127(10) 0.6518(7) 0.1536(9)
C4_3 C 0.8356(8) 0.5869(7) 0.1774(9)
C5_3 C 0.8524(7) 0.4517(7) 0.2030(7)
C6_3 C 0.8948(7) 0.4868(6) 0.2562(7)
H2_3 H 0.922050 0.461096 0.293588
C7_3 C 0.7644(7) 0.9767(6) 0.1125(7)
C8_3 C 0.7551(7) 0.9055(7) 0.1026(8)
H4_3 H 0.721031 0.888475 0.065244
C9_3 C 0.7948(8) 0.8593(7) 0.1466(8)
C10_3 C 0.8438(9) 0.8886(7) 0.2010(8)
H5_3 H 0.871690 0.858574 0.233815
C11_3 C 0.8517(9) 0.9616(7) 0.2072(8)
H6_3 H 0.886458 0.980130 0.243033
C12_3 C 0.8879(7) 0.2599(7) 0.2173(7)
H7_3 H 0.922157 0.228312 0.240717
C13_3 C 0.8962(8) 0.3294(7) 0.2277(7)
H8_3 H 0.935871 0.347267 0.258207
C14_3 C 0.8454(7) 0.3749(7) 0.1927(7)
C15_3 C 0.7871(8) 0.3478(7) 0.1491(8)
H9_3 H 0.751626 0.377476 0.124745
C16_3 C 0.7834(8) 0.2738(7) 0.1431(8)
H10_3 H 0.743318 0.253693 0.114832
C17_3 C 0.7192(7) 0.8273(7) 0.3636(8)
C18_3 C 0.7651(7) 0.7953(6) 0.4114(7)
H11_3 H 0.795362 0.822251 0.445148
C19_3 C 0.7021(7) 0.6943(7) 0.3371(9)
C20_3 C 0.6805(9) 0.6320(7) 0.3119(9)
C21_3 C 0.6589(7) 0.4993(7) 0.2988(7)
C22_3 C 0.6123(10) 0.5292(10) 0.2467(11)
H12_3 H 0.580099 0.501819 0.215322
C24_3 C 0.6630(7) 0.9353(8) 0.3026(8)
H14_3 H 0.636054 0.906090 0.268182
C25_3 C 0.7094(7) 0.9037(7) 0.3563(6)
C26_3 C 0.7446(7) 0.9513(7) 0.4076(7)
H15_3 H 0.776397 0.933836 0.446835
C28_3 C 0.7241(8) 0.3202(8) 0.3583(9)
H17_3 H 0.764937 0.302228 0.387104
C29_3 C 0.7200(8) 0.3909(8) 0.3495(9)
H18_3 H 0.756495 0.420292 0.372683
C30_3 C 0.6618(9) 0.4213(8) 0.3059(8)
C31_3 C 0.6111(8) 0.3762(7) 0.2780(9)
H19_3 H 0.569456 0.394090 0.250479
C32_3 C 0.6180(8) 0.3033(7) 0.2883(8)
H20_3 H 0.581021 0.274282 0.265347
O1_4 O 0.1453(6) 0.1064(5) 0.7762(5)
O2_4 O 0.2114(5) 0.1719(4) 0.8589(5)
O5_4 O 0.2843(6) 0.1276(6) 0.6358(7)
O6_4 O 0.3591(6) 0.1570(6) 0.7301(6)
N1_4 N 0.1896(6) 0.0076(6) 0.6628(7)
N3_4 N 0.3104(5) 0.0478(5) 0.8444(6)
H3_4 H 0.264393 0.006727 0.580616
C23_4 C 0.3457(8) 0.0089(8) 0.7968(8)
H13_4 H 0.377006 0.029037 0.758664
C27_4 C 0.2669(8) 0.0227(7) 0.9010(7)
H16_4 H 0.244200 0.054193 0.936239
C33_4 C 0.0919(7) 0.1322(6) 0.8969(7)
C34_4 C 0.0229(7) 0.1065(7) 0.8750(8)
H21_4 H 0.014523 0.092950 0.823323
C38_4 C 0.1051(8) 0.1498(9) 0.9695(9)
H24_4 H 0.153411 0.165992 0.983521
C39_4 C 0.1525(6) 0.1380(5) 0.8417(7)
C41_4 C 0.4093(8) 0.1517(8) 0.6089(8)
C42_4 C 0.4824(8) 0.1635(9) 0.6307(8)
H25_4 H 0.494296 0.167411 0.683518
C43_4 C 0.5386(8) 0.1696(10) 0.5765(8)
H26_4 H 0.587854 0.182106 0.591492
C44_4 C 0.5221(8) 0.1574(10) 0.5006(8)
C45_4 C 0.4523(9) 0.1416(12) 0.4782(10)
H27_4 H 0.442658 0.131483 0.425888
C46_4 C 0.3957(9) 0.1401(10) 0.5293(8)
H28_4 H 0.346277 0.131166 0.512152
C47_4 C 0.3484(7) 0.1434(6) 0.6583(7)
C48_4 C 0.5850(7) 0.1611(7) 0.4404(8)
N5_2 N 0.1699(6) 0.2333(5) 0.6731(6)
N6_2 N 0.3270(6) 0.2710(7) 0.8283(7)
S1_4 S 0.1538(2) 0.72932(18) 0.6941(2)
S2_4 S 0.2471(3) 0.6616(2) 0.5757(2)
S3_4 S 0.1014(2) 0.57768(19) 0.7554(2)
S4_4 S 0.1951(2) 0.50827(19) 0.6370(2)
S5_4 S 0.2296(2) 0.7046(2) 0.9128(3)
S6_4 S 0.3321(2) 0.77233(19) 0.8023(2)
S7_4 S 0.2849(2) 0.55113(19) 0.8529(2)
S8_4 S 0.3851(2) 0.6199(2) 0.7407(2)
C1_4 C 0.2094(8) 0.7821(6) 0.6351(8)
C2_4 C 0.2510(8) 0.7520(9) 0.5809(9)
H1_4 H 0.281078 0.778947 0.546965
C3_4 C 0.1873(10) 0.6518(7) 0.6536(9)
C4_4 C 0.1644(8) 0.5869(7) 0.6774(9)
C5_4 C 0.1476(7) 0.4517(7) 0.7030(7)
C6_4 C 0.1052(7) 0.4868(6) 0.7562(7)
H2_4 H 0.077950 0.461096 0.793588
C7_4 C 0.2356(7) 0.9767(6) 0.6125(7)
C8_4 C 0.2449(7) 0.9055(7) 0.6026(8)
H4_4 H 0.278969 0.888475 0.565244
C9_4 C 0.2052(8) 0.8593(7) 0.6466(8)
C10_4 C 0.1562(9) 0.8886(7) 0.7010(8)
H5_4 H 0.128310 0.858574 0.733815
C11_4 C 0.1483(9) 0.9616(7) 0.7072(8)
H6_4 H 0.113542 0.980130 0.743033
C12_4 C 0.1121(7) 0.2599(7) 0.7173(7)
H7_4 H 0.077843 0.228312 0.740717
C13_4 C 0.1038(8) 0.3294(7) 0.7277(7)
H8_4 H 0.064129 0.347267 0.758207
C14_4 C 0.1546(7) 0.3749(7) 0.6927(7)
C15_4 C 0.2129(8) 0.3478(7) 0.6491(8)
H9_4 H 0.248374 0.377476 0.624745
C16_4 C 0.2166(8) 0.2738(7) 0.6431(8)
H10_4 H 0.256682 0.253693 0.614832
C17_4 C 0.2808(7) 0.8273(7) 0.8636(8)
C18_4 C 0.2349(7) 0.7953(6) 0.9114(7)
H11_4 H 0.204638 0.822251 0.945148
C19_4 C 0.2979(7) 0.6943(7) 0.8371(9)
C20_4 C 0.3195(9) 0.6320(7) 0.8119(9)
C21_4 C 0.3411(7) 0.4993(7) 0.7988(7)
C22_4 C 0.3877(10) 0.5292(10) 0.7467(11)
H12_4 H 0.419901 0.501819 0.715322
C24_4 C 0.3370(7) 0.9353(8) 0.8026(8)
H14_4 H 0.363946 0.906090 0.768182
C25_4 C 0.2906(7) 0.9037(7) 0.8563(6)
C26_4 C 0.2554(7) 0.9513(7) 0.9076(7)
H15_4 H 0.223603 0.933836 0.946835
C28_4 C 0.2759(8) 0.3202(8) 0.8583(9)
H17_4 H 0.235063 0.302228 0.887104
C29_4 C 0.2800(8) 0.3909(8) 0.8495(9)
H18_4 H 0.243505 0.420292 0.872683
C30_4 C 0.3382(9) 0.4213(8) 0.8059(8)
C31_4 C 0.3889(8) 0.3762(7) 0.7780(9)
H19_4 H 0.430544 0.394090 0.750479
C32_4 C 0.3820(8) 0.3033(7) 0.7883(8)
H20_4 H 0.418979 0.274282 0.765347
C36_4 C 0.9799(7) 0.1203(7) 0.0059(8)
C40_4 C 0.9207(9) 0.1190(8) 0.0636(7)
C35_3 C 0.0337(8) 0.8994(7) 0.9281(7)
H22_3 H 0.081423 0.916468 0.913087
C37_3 C 0.9495(8) 0.8547(8) 0.0247(8)
H23_3 H 0.938907 0.840743 0.075743
C37_4 C 0.0505(8) 0.1453(8) 0.0247(8)
H23_4 H 0.061093 0.159257 0.075743
C35_4 C 0.9663(8) 0.1006(7) 0.9281(7)
H22_4 H 0.918577 0.083532 0.913087
loop_
_geom_bond_atom_site_label_1
_geom_bond_atom_site_label_2
_geom_bond_site_symmetry_1
_geom_bond_site_symmetry_2
S1 C1 1_555 1_555
S2 C2 1_555 1_555
S3 C4 1_555 1_555
S4 C4 1_555 1_555
S5 C18 1_555 1_555
S6 C17 1_555 1_555
S7 C20 1_555 1_555
S8 C20 1_555 1_555
N2 C12 1_555 1_555
N4 C28 1_555 1_555
C1 C2 1_555 1_555
C2 H1 1_555 1_555
C3 S1 1_555 1_555
C4 C3 1_555 1_555
C5 S4 1_555 1_555
C6 S3 1_555 1_555
H2 C6 1_555 1_555
C8 C7 1_555 1_555
H4 C8 1_555 1_555
C9 C1 1_555 1_555
C10 C9 1_555 1_555
H5 C10 1_555 1_555
H6 C11 1_555 1_555
C12 H7 1_555 1_555
C13 C12 1_555 1_555
H8 C13 1_555 1_555
C14 C5 1_555 1_555
C15 C14 1_555 1_555
H9 C15 1_555 1_555
C16 N2 1_555 1_555
H10 C16 1_555 1_555
C17 C18 1_555 1_555
C18 H11 1_555 1_555
C19 S5 1_555 1_555
C20 C19 1_555 1_555
C21 S7 1_555 1_555
C22 S8 1_555 1_555
H12 C22 1_555 1_555
H14 C24 1_555 1_555
C25 C17 1_555 1_555
C26 C25 1_555 1_555
H15 C26 1_555 1_555
C28 H17 1_555 1_555
C29 C28 1_555 1_555
H18 C29 1_555 1_555
C30 C21 1_555 1_555
C31 C30 1_555 1_555
H19 C31 1_555 1_555
C32 N4 1_555 1_555
H20 C32 1_555 1_555
Co3 N2 1_555 1_555
Co5 N4 1_555 1_555
S2 C3 1_555 1_555
S6 C19 1_555 1_555
C5 C6 1_555 1_555
C8 C9 1_555 1_555
C10 C11 1_555 1_555
C13 C14 1_555 1_555
C15 C16 1_555 1_555
C21 C22 1_555 1_555
C24 C25 1_555 1_555
C29 C30 1_555 1_555
C31 C32 1_555 1_555
Co3 O1 1_555 1_555
Co5 O2 1_555 1_555
O1 C39 1_555 1_555
O2 C39 1_555 1_555
O5 Co3 1_555 1_555
O6 Co5 1_555 1_555
N1 Co3 1_555 1_555
N3 Co5 1_555 1_555
C23 N3 1_555 1_555
H13 C23 1_555 1_555
C27 N3 1_555 1_555
H16 C27 1_555 1_555
C33 C34 1_555 1_555
C34 H21 1_555 1_555
H23 C37 1_555 1_555
C38 C33 1_555 1_555
H24 C38 1_555 1_555
C39 C33 1_555 1_555
C41 C42 1_555 1_555
C42 H25 1_555 1_555
C43 C42 1_555 1_555
H26 C43 1_555 1_555
C44 C43 1_555 1_555
C46 C41 1_555 1_555
H28 C46 1_555 1_555
C47 O5 1_555 1_555
O9 Co3 1_555 1_555
O10 Co3 1_555 1_555
O11 Co5 1_555 1_555
O12 Co5 1_555 1_555
O6 C47 1_555 1_555
C37 C38 1_555 1_555
C41 C47 1_555 1_555
O7 C48 1_555 1_555
O8 C48 1_555 1_555
H27 C45 1_555 1_555
Co6 O7 1_555 1_555
O8 Co6 1_555 1_555
O3 C40 1_555 1_555
O4 C40 1_555 1_555
H22 C35 1_555 1_555
C36 C35 1_555 1_555
C40 C36 1_555 1_555
Co4 O3 1_555 1_555
O4 Co4 1_555 1_555
O9 C40_2 1_555 1_555
O10 C40_2 1_555 1_555
C40_2 C36_2 1_555 1_555
S1_2 C1_2 1_555 1_555
S2_2 C2_2 1_555 1_555
S3_2 C4_2 1_555 1_555
S4_2 C4_2 1_555 1_555
S5_2 C18_2 1_555 1_555
S6_2 C17_2 1_555 1_555
S7_2 C20_2 1_555 1_555
S8_2 C20_2 1_555 1_555
N2_2 C12_2 1_555 1_555
N4_2 C28_2 1_555 1_555
C1_2 C2_2 1_555 1_555
C2_2 H1_2 1_555 1_555
C3_2 S1_2 1_555 1_555
C4_2 C3_2 1_555 1_555
C5_2 S4_2 1_555 1_555
C6_2 S3_2 1_555 1_555
H2_2 C6_2 1_555 1_555
C8_2 C7_2 1_555 1_555
H4_2 C8_2 1_555 1_555
C9_2 C1_2 1_555 1_555
C10_2 C9_2 1_555 1_555
H5_2 C10_2 1_555 1_555
H6_2 C11_2 1_555 1_555
C12_2 H7_2 1_555 1_555
C13_2 C12_2 1_555 1_555
H8_2 C13_2 1_555 1_555
C14_2 C5_2 1_555 1_555
C15_2 C14_2 1_555 1_555
H9_2 C15_2 1_555 1_555
C16_2 N2_2 1_555 1_555
H10_2 C16_2 1_555 1_555
C17_2 C18_2 1_555 1_555
C18_2 H11_2 1_555 1_555
C19_2 S5_2 1_555 1_555
C20_2 C19_2 1_555 1_555
C21_2 S7_2 1_555 1_555
C22_2 S8_2 1_555 1_555
H12_2 C22_2 1_555 1_555
H14_2 C24_2 1_555 1_555
C25_2 C17_2 1_555 1_555
C26_2 C25_2 1_555 1_555
H15_2 C26_2 1_555 1_555
C28_2 H17_2 1_555 1_555
C29_2 C28_2 1_555 1_555
H18_2 C29_2 1_555 1_555
C30_2 C21_2 1_555 1_555
C31_2 C30_2 1_555 1_555
H19_2 C31_2 1_555 1_555
C32_2 N4_2 1_555 1_555
H20_2 C32_2 1_555 1_555
Co4 N2_2 1_555 1_555
Co6 N4_2 1_555 1_555
S2_2 C3_2 1_555 1_555
S6_2 C19_2 1_555 1_555
C5_2 C6_2 1_555 1_555
C8_2 C9_2 1_555 1_555
C10_2 C11_2 1_555 1_555
C13_2 C14_2 1_555 1_555
C15_2 C16_2 1_555 1_555
C21_2 C22_2 1_555 1_555
C24_2 C25_2 1_555 1_555
C29_2 C30_2 1_555 1_555
C31_2 C32_2 1_555 1_555
Co4 O1_2 1_555 1_555
Co6 O2_2 1_555 1_555
O1_2 C39_2 1_555 1_555
O2_2 C39_2 1_555 1_555
O5_2 Co4 1_555 1_555
O6_2 Co6 1_555 1_555
O11 C48_2 1_555 1_555
O12 C48_2 1_555 1_555
N1_2 Co4 1_555 1_555
N3_2 Co6 1_555 1_555
C23_2 N3_2 1_555 1_555
H13_2 C23_2 1_555 1_555
C27_2 N3_2 1_555 1_555
H16_2 C27_2 1_555 1_555
C33_2 C34_2 1_555 1_555
C34_2 H21_2 1_555 1_555
C38_2 C33_2 1_555 1_555
H24_2 C38_2 1_555 1_555
C39_2 C33_2 1_555 1_555
C41_2 C42_2 1_555 1_555
C42_2 H25_2 1_555 1_555
C43_2 C42_2 1_555 1_555
H26_2 C43_2 1_555 1_555
C44_2 C43_2 1_555 1_555
C45_2 C44_2 1_555 1_555
H27_2 C45_2 1_555 1_555
C46_2 C41_2 1_555 1_555
H28_2 C46_2 1_555 1_555
C47_2 O5_2 1_555 1_555
C48_2 C44_2 1_555 1_555
O6_2 C47_2 1_555 1_555
C41_2 C47_2 1_555 1_555
C45_2 C46_2 1_555 1_555
O3_2 C40_3 1_555 1_555
O4_2 C40_3 1_555 1_555
H22_2 C35_2 1_555 1_555
C36_3 C35_2 1_555 1_555
C40_3 C36_3 1_555 1_555
Co4_2 O3_2 1_555 1_555
O4_2 Co4_2 1_555 1_555
Co1 O1_3 1_555 1_555
Co2 O2_3 1_555 1_555
O1_3 C39_3 1_555 1_555
O2_3 C39_3 1_555 1_555
O5_3 Co1 1_555 1_555
O6_3 Co2 1_555 1_555
N1_3 Co1 1_555 1_555
N3_3 Co2 1_555 1_555
C23_3 N3_3 1_555 1_555
H13_3 C23_3 1_555 1_555
C27_3 N3_3 1_555 1_555
H16_3 C27_3 1_555 1_555
C33_3 C34_3 1_555 1_555
C34_3 H21_3 1_555 1_555
H23_2 C37_2 1_555 1_555
C38_3 C33_3 1_555 1_555
H24_3 C38_3 1_555 1_555
C39_3 C33_3 1_555 1_555
C41_3 C42_3 1_555 1_555
C42_3 H25_3 1_555 1_555
C43_3 C42_3 1_555 1_555
H26_3 C43_3 1_555 1_555
C44_3 C43_3 1_555 1_555
C46_3 C41_3 1_555 1_555
H28_3 C46_3 1_555 1_555
C47_3 O5_3 1_555 1_555
O9_2 Co1 1_555 1_555
O10_2 Co1 1_555 1_555
O11_2 Co2 1_555 1_555
O12_2 Co2 1_555 1_555
N5 Co1 1_555 1_555
N6 Co2 1_555 1_555
O6_3 C47_3 1_555 1_555
C37_2 C38_3 1_555 1_555
C41_3 C47_3 1_555 1_555
O7_2 C48_3 1_555 1_555
O8_2 C48_3 1_555 1_555
H27_3 C45_3 1_555 1_555
Co6_2 O7_2 1_555 1_555
O8_2 Co6_2 1_555 1_555
S1_3 C1_3 1_555 1_555
S2_3 C2_3 1_555 1_555
S3_3 C4_3 1_555 1_555
S4_3 C4_3 1_555 1_555
S5_3 C18_3 1_555 1_555
S6_3 C17_3 1_555 1_555
S7_3 C20_3 1_555 1_555
S8_3 C20_3 1_555 1_555
N5 C12_3 1_555 1_555
N6 C28_3 1_555 1_555
C1_3 C2_3 1_555 1_555
C2_3 H1_3 1_555 1_555
C3_3 S1_3 1_555 1_555
C4_3 C3_3 1_555 1_555
C5_3 S4_3 1_555 1_555
C6_3 S3_3 1_555 1_555
H2_3 C6_3 1_555 1_555
C8_3 C7_3 1_555 1_555
H4_3 C8_3 1_555 1_555
C9_3 C1_3 1_555 1_555
C10_3 C9_3 1_555 1_555
H5_3 C10_3 1_555 1_555
H6_3 C11_3 1_555 1_555
C12_3 H7_3 1_555 1_555
C13_3 C12_3 1_555 1_555
H8_3 C13_3 1_555 1_555
C14_3 C5_3 1_555 1_555
C15_3 C14_3 1_555 1_555
H9_3 C15_3 1_555 1_555
C16_3 N5 1_555 1_555
H10_3 C16_3 1_555 1_555
C17_3 C18_3 1_555 1_555
C18_3 H11_3 1_555 1_555
C19_3 S5_3 1_555 1_555
C20_3 C19_3 1_555 1_555
C21_3 S7_3 1_555 1_555
C22_3 S8_3 1_555 1_555
H12_3 C22_3 1_555 1_555
H14_3 C24_3 1_555 1_555
C25_3 C17_3 1_555 1_555
C26_3 C25_3 1_555 1_555
H15_3 C26_3 1_555 1_555
C28_3 H17_3 1_555 1_555
C29_3 C28_3 1_555 1_555
H18_3 C29_3 1_555 1_555
C30_3 C21_3 1_555 1_555
C31_3 C30_3 1_555 1_555
H19_3 C31_3 1_555 1_555
C32_3 N6 1_555 1_555
H20_3 C32_3 1_555 1_555
S2_3 C3_3 1_555 1_555
S6_3 C19_3 1_555 1_555
C5_3 C6_3 1_555 1_555
C8_3 C9_3 1_555 1_555
C10_3 C11_3 1_555 1_555
C13_3 C14_3 1_555 1_555
C15_3 C16_3 1_555 1_555
C21_3 C22_3 1_555 1_555
C24_3 C25_3 1_555 1_555
C29_3 C30_3 1_555 1_555
C31_3 C32_3 1_555 1_555
Co4_2 O1_4 1_555 1_555
Co6_2 O2_4 1_555 1_555
O1_4 C39_4 1_555 1_555
O2_4 C39_4 1_555 1_555
O5_4 Co4_2 1_555 1_555
O6_4 Co6_2 1_555 1_555
O11_2 C48_4 1_555 1_555
O12_2 C48_4 1_555 1_555
N1_4 Co4_2 1_555 1_555
N3_4 Co6_2 1_555 1_555
C23_4 N3_4 1_555 1_555
H13_4 C23_4 1_555 1_555
C27_4 N3_4 1_555 1_555
H16_4 C27_4 1_555 1_555
C33_4 C34_4 1_555 1_555
C34_4 H21_4 1_555 1_555
C38_4 C33_4 1_555 1_555
H24_4 C38_4 1_555 1_555
C39_4 C33_4 1_555 1_555
C41_4 C42_4 1_555 1_555
C42_4 H25_4 1_555 1_555
C43_4 C42_4 1_555 1_555
H26_4 C43_4 1_555 1_555
C44_4 C43_4 1_555 1_555
C45_4 C44_4 1_555 1_555
H27_4 C45_4 1_555 1_555
C46_4 C41_4 1_555 1_555
H28_4 C46_4 1_555 1_555
C47_4 O5_4 1_555 1_555
C48_4 C44_4 1_555 1_555
N5_2 Co4_2 1_555 1_555
N6_2 Co6_2 1_555 1_555
O6_4 C47_4 1_555 1_555
C41_4 C47_4 1_555 1_555
C45_4 C46_4 1_555 1_555
S1_4 C1_4 1_555 1_555
S2_4 C2_4 1_555 1_555
S3_4 C4_4 1_555 1_555
S4_4 C4_4 1_555 1_555
S5_4 C18_4 1_555 1_555
S6_4 C17_4 1_555 1_555
S7_4 C20_4 1_555 1_555
S8_4 C20_4 1_555 1_555
N5_2 C12_4 1_555 1_555
N6_2 C28_4 1_555 1_555
C1_4 C2_4 1_555 1_555
C2_4 H1_4 1_555 1_555
C3_4 S1_4 1_555 1_555
C4_4 C3_4 1_555 1_555
C5_4 S4_4 1_555 1_555
C6_4 S3_4 1_555 1_555
H2_4 C6_4 1_555 1_555
C8_4 C7_4 1_555 1_555
H4_4 C8_4 1_555 1_555
C9_4 C1_4 1_555 1_555
C10_4 C9_4 1_555 1_555
H5_4 C10_4 1_555 1_555
H6_4 C11_4 1_555 1_555
C12_4 H7_4 1_555 1_555
C13_4 C12_4 1_555 1_555
H8_4 C13_4 1_555 1_555
C14_4 C5_4 1_555 1_555
C15_4 C14_4 1_555 1_555
H9_4 C15_4 1_555 1_555
C16_4 N5_2 1_555 1_555
H10_4 C16_4 1_555 1_555
C17_4 C18_4 1_555 1_555
C18_4 H11_4 1_555 1_555
C19_4 S5_4 1_555 1_555
C20_4 C19_4 1_555 1_555
C21_4 S7_4 1_555 1_555
C22_4 S8_4 1_555 1_555
H12_4 C22_4 1_555 1_555
H14_4 C24_4 1_555 1_555
C25_4 C17_4 1_555 1_555
C26_4 C25_4 1_555 1_555
H15_4 C26_4 1_555 1_555
C28_4 H17_4 1_555 1_555
C29_4 C28_4 1_555 1_555
H18_4 C29_4 1_555 1_555
C30_4 C21_4 1_555 1_555
C31_4 C30_4 1_555 1_555
H19_4 C31_4 1_555 1_555
C32_4 N6_2 1_555 1_555
H20_4 C32_4 1_555 1_555
S2_4 C3_4 1_555 1_555
S6_4 C19_4 1_555 1_555
C5_4 C6_4 1_555 1_555
C8_4 C9_4 1_555 1_555
C10_4 C11_4 1_555 1_555
C13_4 C14_4 1_555 1_555
C15_4 C16_4 1_555 1_555
C21_4 C22_4 1_555 1_555
C24_4 C25_4 1_555 1_555
C29_4 C30_4 1_555 1_555
C31_4 C32_4 1_555 1_555
O9_2 C40_4 1_555 1_555
O10_2 C40_4 1_555 1_555
C40_4 C36_4 1_555 1_555
H22_3 C35_3 1_555 1_555
H23_3 C37_3 1_555 1_555
H23_4 C37_4 1_555 1_555
H22_4 C35_4 1_555 1_555

#END
