
###############################################################################
#
# This file contains modified crystal structure data generated from the
# MOF subset of the Cambridge Structural Database (CSD) v543 
# hosted by the Cambridge Crystallographic Data Centre (CCDC).
#
# This work is licensed under the Creative Commons
# Attribution-NonCommercial-ShareAlike 4.0 International License.
# To view a copy of this license, visit
# http://creativecommons.org/licenses/by-nc-sa/4.0/
# or send a letter to
# Creative Commons, PO Box 1866, Mountain View, CA 94042, USA.
#
# CIF created using the CSD Python API on 29 September 2022
# The structure has been converted into the P1 space group
# The structure has a 3D framework
# The original CSD entry JAHMAK is in the monoclinic crystal system
# The framework has been calculated to contain at least 10.0% void space
# The void calculation uses a probe of radius 1.32A, grid spacing 0.4
#
###############################################################################

data_JAHMAK
_chemical_formula_moiety         '(C242 H144 Co8 N16 O32 S32)n'
_symmetry_cell_setting           triclinic
_symmetry_space_group_name_H-M   'P 1'
_symmetry_Int_Tables_number      1
_space_group_name_Hall           'P 1'
loop_
_symmetry_equiv_pos_site_id
_symmetry_equiv_pos_as_xyz
1 x,y,z
_cell_length_a                   18.7807(13)
_cell_length_b                   18.9387(11)
_cell_length_c                   26.9923(18)
_cell_angle_alpha                90
_cell_angle_beta                 107.462(2)
_cell_angle_gamma                90
_cell_volume                     9158.24
loop_
_atom_site_label
_atom_site_type_symbol
_atom_site_fract_x
_atom_site_fract_y
_atom_site_fract_z
N2 N 0.16094(16) 0.23893(14) 0.57980(11)
N4 N 0.29810(18) 0.18308(15) 0.49694(12)
H2 H 0.261333 0.009471 0.673902
C6 C 0.1880(2) 0.01615(18) 0.60325(15)
C12 C 0.1185(2) 0.19279(18) 0.54684(14)
H7 H 0.081485 0.210392 0.517165
C13 C 0.1255(2) 0.12109(19) 0.55342(15)
H8 H 0.093595 0.090653 0.528462
C14 C 0.1782(2) 0.09261(18) 0.59581(14)
C15 C 0.2225(2) 0.14095(18) 0.63114(15)
H9 H 0.259881 0.124817 0.661205
C16 C 0.2112(2) 0.21186(18) 0.62169(14)
H10 H 0.241059 0.243836 0.646456
C28 C 0.2549(3) 0.1412(2) 0.46120(18)
H17 H 0.221766 0.162170 0.431069
C29 C 0.2553(3) 0.0686(2) 0.46539(18)
H18 H 0.223316 0.041181 0.438274
C30 C 0.3016(2) 0.03553(18) 0.50847(15)
C31 C 0.3447(3) 0.0799(2) 0.54663(16)
H19 H 0.376621 0.060470 0.577893
C32 C 0.3416(2) 0.1514(2) 0.53948(16)
H20 H 0.372045 0.180194 0.566339
Co3 Co 0.15332(2) 0.35120(2) 0.56530(2)
Co6 Co 0.30006(3) 0.29615(2) 0.48454(2)
Co5 Co 0.65332(2) 0.14880(2) 0.06530(2)
S1 S 0.19037(5) 0.73889(4) 0.58704(4)
S2 S 0.08826(6) 0.81280(5) 0.49730(4)
S3 S 0.23580(7) 0.89182(5) 0.64536(4)
S4 S 0.13729(6) 0.96197(5) 0.55209(4)
S5 S 0.30239(6) 0.68342(5) 0.50006(4)
S6 S 0.20653(7) 0.75196(5) 0.40516(4)
S7 S 0.34739(6) 0.83251(5) 0.55436(4)
S8 S 0.25401(6) 0.90649(5) 0.46146(4)
O1 O 0.26637(12) 0.36005(12) 0.58796(9)
O2 O 0.35408(13) 0.30733(12) 0.56095(9)
O3 O 0.58815(13) 0.16441(11) 0.98936(9)
O4 O 0.69048(14) 0.20327(15) 0.97490(9)
O5 O 0.40230(15) 0.28236(16) 0.46188(10)
O6 O 0.29140(14) 0.27775(14) 0.40480(9)
O7 O 0.65644(13) 0.13152(13) 0.14682(9)
O8 O 0.55000(14) 0.15241(13) 0.08755(9)
N1 N 0.14973(15) 0.46240(14) 0.55209(11)
N3 N 0.29402(17) 0.40705(15) 0.47027(12)
C1 C 0.13472(19) 0.68689(17) 0.53575(13)
C2 C 0.0888(2) 0.72190(18) 0.49597(14)
H1 H 0.056870 0.697010 0.467299
C3 C 0.1538(2) 0.81997(18) 0.55915(14)
C4 C 0.1736(2) 0.88221(19) 0.58256(15)
C5 C 0.2322(2) 0.98316(18) 0.64491(15)
C7 C 0.1967(2) 0.50544(19) 0.58598(15)
H3 H 0.233619 0.484998 0.614488
C8 C 0.1941(2) 0.57770(18) 0.58147(15)
H4 H 0.229266 0.605739 0.606317
C9 C 0.14064(19) 0.61002(17) 0.54102(13)
C10 C 0.0926(2) 0.56515(18) 0.50558(15)
H5 H 0.055236 0.584064 0.476613
C11 C 0.0994(2) 0.49323(18) 0.51266(14)
H6 H 0.065963 0.463785 0.487782
C17 C 0.2584(2) 0.62900(19) 0.44711(15)
C18 C 0.2155(3) 0.6617(2) 0.40457(17)
H11 H 0.190399 0.635265 0.374474
C19 C 0.2667(2) 0.7628(2) 0.46848(16)
C20 C 0.2861(2) 0.82515(19) 0.49113(16)
C21 C 0.3471(2) 0.9234(2) 0.55545(16)
H12 H 0.375718 0.948199 0.585435
C22 C 0.3063(2) 0.95884(19) 0.51377(15)
C23 C 0.3295(2) 0.4540(2) 0.50575(16)
H13 H 0.363658 0.436832 0.536968
C24 C 0.3198(3) 0.5254(2) 0.50000(17)
H14 H 0.346075 0.556463 0.526936
C25 C 0.2707(2) 0.55246(19) 0.45411(15)
C26 C 0.2342(3) 0.5040(2) 0.41790(18)
H15 H 0.199777 0.519421 0.386235
C27 C 0.2471(3) 0.4334(2) 0.42697(16)
H16 H 0.220911 0.401230 0.400830
C33 C 0.37311(19) 0.31536(18) 0.65117(13)
C34 C 0.4381(2) 0.2755(2) 0.66125(14)
H21 H 0.455188 0.260526 0.633216
C35 C 0.4782(2) 0.2573(2) 0.71170(14)
H22 H 0.522399 0.229861 0.718119
C36 C 0.4532(2) 0.2794(2) 0.75304(14)
C37 C 0.3895(2) 0.3201(2) 0.74249(14)
H23 H 0.372722 0.336291 0.770381
C38 C 0.3494(2) 0.3377(2) 0.69201(13)
H24 H 0.305424 0.365444 0.685609
C39 C 0.57720(19) 0.21405(18) 0.90695(13)
C40 C 0.5008(2) 0.2192(2) 0.89285(14)
H25 H 0.475463 0.207762 0.917434
C41 C 0.4601(2) 0.2406(2) 0.84355(15)
H26 H 0.407258 0.243867 0.834617
C42 C 0.4961(2) 0.2575(2) 0.80687(14)
C43 C 0.5729(2) 0.2521(2) 0.82128(14)
H27 H 0.598244 0.262980 0.796627
C44 C 0.6137(2) 0.2313(2) 0.87061(14)
H28 H 0.666577 0.228757 0.879796
C45 C 0.32708(19) 0.32885(16) 0.59592(13)
C46 C 0.6220(2) 0.19153(17) 0.96035(13)
C47 C 0.3937(2) 0.2518(3) 0.37395(15)
C48 C 0.3484(3) 0.2382(4) 0.32510(19)
H29 H 0.295855 0.242500 0.317527
C49 C 0.3792(3) 0.2178(4) 0.2860(2)
H30 H 0.347018 0.208731 0.252072
C50 C 0.4545(3) 0.2106(3) 0.29586(17)
C51 C 0.5007(3) 0.2266(4) 0.34514(17)
H31 H 0.553357 0.223727 0.352394
C52 C 0.4704(3) 0.2469(3) 0.38385(17)
H32 H 0.502523 0.257495 0.417548
C53 C 0.5522(2) 0.1587(2) 0.17597(14)
C54 C 0.5849(3) 0.1371(3) 0.22613(17)
H33 H 0.630096 0.110984 0.234596
C55 C 0.5525(3) 0.1531(3) 0.26457(18)
H34 H 0.575917 0.137310 0.299032
C56 C 0.4879(3) 0.1910(3) 0.25422(16)
C57 C 0.4553(3) 0.2130(3) 0.20384(17)
H35 H 0.410492 0.239835 0.195578
C58 C 0.4871(3) 0.1964(3) 0.16495(16)
H36 H 0.463379 0.211474 0.130336
C59 C 0.3610(2) 0.2725(2) 0.41583(14)
C60 C 0.5882(2) 0.14607(18) 0.13481(13)
Co7 Co 0.80006(3) 0.20385(2) 0.98454(2)
O9 O 0.08815(13) 0.33559(11) 0.48936(9)
O10 O 0.19048(14) 0.29673(15) 0.47490(9)
O11 O 0.15644(13) 0.36848(13) 0.64682(9)
O12 O 0.05000(14) 0.34759(13) 0.58755(9)
H22_2 H 0.022399 0.270139 0.218119
C39_2 C 0.07720(19) 0.28595(18) 0.40695(13)
C40_2 C 0.0008(2) 0.2808(2) 0.39285(14)
C43_2 C 0.0729(2) 0.2479(2) 0.32128(14)
H27_2 H 0.098244 0.237020 0.296627
C44_2 C 0.1137(2) 0.2687(2) 0.37061(14)
H28_2 H 0.166577 0.271243 0.379796
C46_2 C 0.1220(2) 0.30847(17) 0.46035(13)
C51_2 C 0.0007(3) 0.2734(4) 0.84514(17)
H31_2 H 0.053357 0.276273 0.852394
H32_2 H 0.002523 0.242505 0.917548
C53_2 C 0.0522(2) 0.3413(2) 0.67597(14)
C54_2 C 0.0849(3) 0.3629(3) 0.72613(17)
H33_2 H 0.130096 0.389016 0.734596
C55_2 C 0.0525(3) 0.3469(3) 0.76457(18)
H34_2 H 0.075917 0.362690 0.799032
C60_2 C 0.0882(2) 0.35393(18) 0.63481(13)
O1_2 O 0.76637(12) 0.13995(12) 0.08796(9)
O2_2 O 0.85408(13) 0.19267(12) 0.06095(9)
N1_2 N 0.64973(15) 0.03760(14) 0.05209(11)
H3_2 H 0.733619 0.015002 0.114488
C11_2 C 0.5994(2) 0.00677(18) 0.01266(14)
C23_2 C 0.8295(2) 0.0460(2) 0.00575(16)
H13_2 H 0.863658 0.063168 0.036968
C33_2 C 0.87311(19) 0.18464(18) 0.15117(13)
C34_2 C 0.9381(2) 0.2245(2) 0.16125(14)
H21_2 H 0.955188 0.239474 0.133216
C35_2 C 0.9782(2) 0.2427(2) 0.21170(14)
C36_2 C 0.9532(2) 0.2206(2) 0.25304(14)
C37_2 C 0.8895(2) 0.1799(2) 0.24249(14)
H23_2 H 0.872722 0.163709 0.270381
C38_2 C 0.8494(2) 0.1623(2) 0.19201(13)
H24_2 H 0.805424 0.134556 0.185609
H25_2 H 0.975463 0.292238 0.417434
C41_2 C 0.9601(2) 0.2594(2) 0.34355(15)
H26_2 H 0.907258 0.256133 0.334617
C42_2 C 0.9961(2) 0.2425(2) 0.30687(14)
C45_2 C 0.82708(19) 0.17115(16) 0.09592(13)
N5 N 0.66094(16) 0.26107(14) 0.07980(11)
O5_2 O 0.90230(15) 0.21764(16) 0.96188(10)
O6_2 O 0.79140(14) 0.22225(14) 0.90480(9)
N3_2 N 0.79402(17) 0.09295(15) 0.97027(12)
H6_2 H 0.565963 0.036215 0.987782
C27_2 C 0.7471(3) 0.0666(2) 0.92697(16)
H16_2 H 0.720911 0.098770 0.900830
C47_2 C 0.8937(2) 0.2482(3) 0.87395(15)
C48_2 C 0.8484(3) 0.2618(4) 0.82510(19)
H29_2 H 0.795855 0.257500 0.817527
C49_2 C 0.8792(3) 0.2822(4) 0.7860(2)
H30_2 H 0.847018 0.291269 0.752072
C50_2 C 0.9545(3) 0.2894(3) 0.79586(17)
C52_2 C 0.9704(3) 0.2531(3) 0.88385(17)
C56_2 C 0.9879(3) 0.3090(3) 0.75422(16)
C57_2 C 0.9553(3) 0.2870(3) 0.70384(17)
H35_2 H 0.910492 0.260165 0.695578
C58_2 C 0.9871(3) 0.3036(3) 0.66495(16)
H36_2 H 0.963379 0.288526 0.630336
C59_2 C 0.8610(2) 0.2275(2) 0.91583(14)
N6 N 0.79810(18) 0.31692(15) 0.99694(12)
S1_2 S 0.69037(5) 0.76111(4) 0.08704(4)
S3_2 S 0.73580(7) 0.60818(5) 0.14536(4)
S4_2 S 0.63729(6) 0.53803(5) 0.05209(4)
S5_2 S 0.80239(6) 0.81658(5) 0.00006(4)
S7_2 S 0.84739(6) 0.66749(5) 0.05436(4)
C1_2 C 0.63472(19) 0.81311(17) 0.03575(13)
C3_2 C 0.6538(2) 0.68003(18) 0.05915(14)
C4_2 C 0.6736(2) 0.61779(19) 0.08256(15)
C5_2 C 0.7322(2) 0.51684(18) 0.14491(15)
H2_2 H 0.761333 0.490529 0.173902
C6_2 C 0.6880(2) 0.48385(18) 0.10325(15)
C7_2 C 0.6967(2) 0.99456(19) 0.08598(15)
C8_2 C 0.6941(2) 0.92230(18) 0.08147(15)
H4_2 H 0.729266 0.894261 0.106317
C9_2 C 0.64064(19) 0.88998(17) 0.04102(13)
C10_2 C 0.5926(2) 0.93485(18) 0.00558(15)
C12_2 C 0.6185(2) 0.30721(18) 0.04684(14)
H7_2 H 0.581485 0.289608 0.017165
C13_2 C 0.6255(2) 0.37891(19) 0.05342(15)
H8_2 H 0.593595 0.409347 0.028462
C14_2 C 0.6782(2) 0.40739(18) 0.09581(14)
C15_2 C 0.7225(2) 0.35905(18) 0.13114(15)
H9_2 H 0.759881 0.375183 0.161205
C16_2 C 0.7112(2) 0.28814(18) 0.12169(14)
H10_2 H 0.741059 0.256164 0.146456
C21_2 C 0.8471(2) 0.5766(2) 0.05545(16)
H12_2 H 0.875718 0.551801 0.085435
C22_2 C 0.8063(2) 0.54116(19) 0.01377(15)
C24_2 C 0.8198(3) 0.9746(2) -0.00000(17)
H14_2 H 0.846075 0.943537 0.026936
C30_2 C 0.8016(2) 0.46447(18) 0.00847(15)
C31_2 C 0.8447(3) 0.4201(2) 0.04663(16)
H19_2 H 0.876621 0.439530 0.077893
C32_2 C 0.8416(2) 0.3486(2) 0.03948(16)
H20_2 H 0.872045 0.319806 0.066339
S2_2 S 0.58826(6) 0.68720(5) 0.99730(4)
S6_2 S 0.70653(7) 0.74804(5) 0.90516(4)
S8_2 S 0.75401(6) 0.59351(5) 0.96146(4)
C2_2 C 0.5888(2) 0.77810(18) 0.99597(14)
H1_2 H 0.556870 0.802990 0.967299
H5_2 H 0.555236 0.915936 0.976613
C17_2 C 0.7584(2) 0.87100(19) 0.94711(15)
C18_2 C 0.7155(3) 0.8383(2) 0.90457(17)
H11_2 H 0.690399 0.864735 0.874474
C19_2 C 0.7667(2) 0.7372(2) 0.96848(16)
C20_2 C 0.7861(2) 0.67485(19) 0.99113(16)
C24_3 C 0.8198(3) 0.9746(2) 1.00000(17)
C25_2 C 0.7707(2) 0.94754(19) 0.95411(15)
C26_2 C 0.7342(3) 0.9960(2) 0.91790(18)
H15_2 H 0.699777 0.980579 0.886235
C28_2 C 0.7549(3) 0.3588(2) 0.96120(18)
H17_2 H 0.721766 0.337830 0.931069
C29_2 C 0.7553(3) 0.4314(2) 0.96539(18)
H18_2 H 0.723316 0.458819 0.938274
S2_3 S 0.41174(6) 0.31280(5) 0.00270(4)
S6_3 S 0.29347(7) 0.25196(5) 0.09484(4)
S8_3 S 0.24599(6) 0.40649(5) 0.03854(4)
N4_2 N 0.20190(18) 0.68308(15) 0.00306(12)
C2_3 C 0.4112(2) 0.22190(18) 0.00403(14)
H1_3 H 0.443130 0.197010 0.032701
H5_3 H 0.444764 0.084064 0.023387
C17_3 C 0.2416(2) 0.12900(19) 0.05289(15)
C18_3 C 0.2845(3) 0.1617(2) 0.09543(17)
H11_3 H 0.309601 0.135265 0.125526
C19_3 C 0.2333(2) 0.2628(2) 0.03152(16)
C20_3 C 0.2139(2) 0.32515(19) 0.00887(16)
C24_4 C 0.1802(3) 0.0254(2) 0.00000(17)
C25_3 C 0.2293(2) 0.05246(19) 0.04589(15)
C26_3 C 0.2658(3) 0.0040(2) 0.08210(18)
H15_3 H 0.300223 0.019421 0.113765
C28_3 C 0.2451(3) 0.6412(2) 0.03880(18)
H17_3 H 0.278234 0.662170 0.068931
C29_3 C 0.2447(3) 0.5686(2) 0.03461(18)
H18_3 H 0.276684 0.541181 0.061726
Co6_2 Co 0.19994(3) 0.79615(2) 0.01546(2)
S1_3 S 0.30963(5) 0.23889(4) 0.91296(4)
S3_3 S 0.26420(7) 0.39182(5) 0.85464(4)
S4_3 S 0.36271(6) 0.46197(5) 0.94791(4)
S5_3 S 0.19761(6) 0.18342(5) 0.99994(4)
S7_3 S 0.15261(6) 0.33251(5) 0.94564(4)
N2_2 N 0.33906(16) 0.73893(14) 0.92020(11)
C1_3 C 0.36528(19) 0.18689(17) 0.96425(13)
C3_3 C 0.3462(2) 0.31997(18) 0.94085(14)
C4_3 C 0.3264(2) 0.38221(19) 0.91744(15)
C5_3 C 0.2678(2) 0.48316(18) 0.85509(15)
H2_3 H 0.238667 0.509471 0.826098
C6_3 C 0.3120(2) 0.51615(18) 0.89675(15)
C7_3 C 0.3033(2) 0.00544(19) 0.91402(15)
C8_3 C 0.3059(2) 0.07770(18) 0.91853(15)
H4_3 H 0.270734 0.105739 0.893683
C9_3 C 0.35936(19) 0.11002(17) 0.95898(13)
C10_3 C 0.4074(2) 0.06515(18) 0.99442(15)
C12_3 C 0.3815(2) 0.69279(18) 0.95316(14)
H7_3 H 0.418515 0.710392 0.982835
C13_3 C 0.3745(2) 0.62109(19) 0.94658(15)
H8_3 H 0.406405 0.590653 0.971538
C14_3 C 0.3218(2) 0.59261(18) 0.90419(14)
C15_3 C 0.2775(2) 0.64095(18) 0.86886(15)
H9_3 H 0.240119 0.624817 0.838795
C16_3 C 0.2888(2) 0.71186(18) 0.87831(14)
H10_3 H 0.258941 0.743836 0.853544
C21_3 C 0.1529(2) 0.4234(2) 0.94455(16)
H12_3 H 0.124282 0.448199 0.914565
C22_3 C 0.1937(2) 0.45884(19) 0.98623(15)
C24_5 C 0.1802(3) 0.0254(2) 1.00000(17)
H14_3 H 0.153925 0.056463 0.973064
C30_3 C 0.1984(2) 0.53553(18) 0.99153(15)
C31_3 C 0.1553(3) 0.5799(2) 0.95337(16)
H19_3 H 0.123379 0.560470 0.922107
C32_3 C 0.1584(2) 0.6514(2) 0.96052(16)
H20_3 H 0.127955 0.680194 0.933661
Co3_2 Co 0.34668(2) 0.85120(2) 0.93470(2)
O5_3 O 0.09770(15) 0.78236(16) 0.03812(10)
O6_3 O 0.20860(14) 0.77775(14) 0.09520(9)
N3_3 N 0.20598(17) 0.90705(15) 0.02973(12)
H6_3 H 0.434037 0.963785 0.012218
C27_3 C 0.2529(3) 0.9334(2) 0.07303(16)
H16_3 H 0.279089 0.901230 0.099170
C47_3 C 0.1063(2) 0.7518(3) 0.12605(15)
C48_3 C 0.1516(3) 0.7382(4) 0.17490(19)
H29_3 H 0.204145 0.742500 0.182473
C49_3 C 0.1208(3) 0.7178(4) 0.2140(2)
H30_3 H 0.152982 0.708731 0.247928
C50_3 C 0.0455(3) 0.7106(3) 0.20414(17)
C52_3 C 0.0296(3) 0.7469(3) 0.11615(17)
C56_3 C 0.0121(3) 0.6910(3) 0.24578(16)
C57_3 C 0.0447(3) 0.7130(3) 0.29616(17)
H35_3 H 0.089508 0.739835 0.304422
C58_3 C 0.0129(3) 0.6964(3) 0.33505(16)
H36_3 H 0.036621 0.711474 0.369664
C59_3 C 0.1390(2) 0.7725(2) 0.08417(14)
O9_2 O 0.41185(13) 0.83559(11) 0.01064(9)
O10_2 O 0.30952(14) 0.79673(15) 0.02510(9)
O1_3 O 0.23363(12) 0.86005(12) 0.91204(9)
O2_3 O 0.14592(13) 0.80733(12) 0.93905(9)
N1_3 N 0.35027(15) 0.96240(14) 0.94791(11)
H3_3 H 0.266381 0.984998 0.885512
C11_3 C 0.4006(2) 0.99323(18) 0.98734(14)
C23_3 C 0.1705(2) 0.9540(2) 0.99425(16)
H13_3 H 0.136342 0.936832 0.963032
C33_3 C 0.12689(19) 0.81536(18) 0.84883(13)
C34_3 C 0.0619(2) 0.7755(2) 0.83875(14)
H21_3 H 0.044812 0.760526 0.866784
C35_3 C 0.0218(2) 0.7573(2) 0.78830(14)
C36_3 C 0.0468(2) 0.7794(2) 0.74696(14)
C37_3 C 0.1105(2) 0.8201(2) 0.75751(14)
H23_3 H 0.127278 0.836291 0.729619
C38_3 C 0.1506(2) 0.8377(2) 0.80799(13)
H24_3 H 0.194576 0.865444 0.814391
H25_3 H 0.024537 0.707762 0.582566
C41_3 C 0.0399(2) 0.7406(2) 0.65645(15)
H26_3 H 0.092742 0.743867 0.665383
C42_3 C 0.0039(2) 0.7575(2) 0.69313(14)
C45_3 C 0.17292(19) 0.82885(16) 0.90408(13)
O11_2 O 0.34356(13) 0.86848(13) 0.85318(9)
O12_2 O 0.45000(14) 0.84759(13) 0.91245(9)
O7_2 O 0.84356(13) 0.63152(13) 0.35318(9)
O8_2 O 0.95000(14) 0.65241(13) 0.41245(9)
C51_3 C 0.9993(3) 0.7266(4) 0.15486(17)
H31_3 H 0.946643 0.723727 0.147606
H32_3 H 0.997477 0.757495 0.082452
C53_3 C 0.9478(2) 0.6587(2) 0.32403(14)
C54_3 C 0.9151(3) 0.6371(3) 0.27387(17)
H33_3 H 0.869904 0.610984 0.265404
C55_3 C 0.9475(3) 0.6531(3) 0.23543(18)
H34_3 H 0.924083 0.637310 0.200968
C60_3 C 0.9118(2) 0.64607(18) 0.36519(13)
Co4 Co 0.84668(2) 0.64880(2) 0.43470(2)
O3_2 O 0.91185(13) 0.66441(11) 0.51064(9)
O4_2 O 0.80952(14) 0.70327(15) 0.52510(9)
H22_3 H 0.977601 0.729861 0.781881
C39_3 C 0.92280(19) 0.71405(18) 0.59305(13)
C40_3 C 0.9992(2) 0.7192(2) 0.60715(14)
C43_3 C 0.9271(2) 0.7521(2) 0.67872(14)
H27_3 H 0.901756 0.762980 0.703373
C44_3 C 0.8863(2) 0.7313(2) 0.62939(14)
H28_3 H 0.833423 0.728757 0.620204
C46_3 C 0.8780(2) 0.69153(17) 0.53965(13)
Co7_2 Co 0.69994(3) 0.70385(2) 0.51546(2)
S1_4 S 0.80963(5) 0.26111(4) 0.41296(4)
S2_4 S 0.91174(6) 0.18720(5) 0.50270(4)
S3_4 S 0.76420(7) 0.10818(5) 0.35464(4)
S4_4 S 0.86271(6) 0.03803(5) 0.44791(4)
S5_4 S 0.69761(6) 0.31658(5) 0.49994(4)
S6_4 S 0.79347(7) 0.24804(5) 0.59484(4)
S7_4 S 0.65261(6) 0.16749(5) 0.44564(4)
S8_4 S 0.74599(6) 0.09351(5) 0.53854(4)
O1_4 O 0.73363(12) 0.63995(12) 0.41204(9)
O2_4 O 0.64592(13) 0.69267(12) 0.43905(9)
O5_4 O 0.59770(15) 0.71764(16) 0.53812(10)
O6_4 O 0.70860(14) 0.72225(14) 0.59520(9)
N1_4 N 0.85027(15) 0.53760(14) 0.44791(11)
N3_4 N 0.70598(17) 0.59295(15) 0.52973(12)
C1_4 C 0.86528(19) 0.31311(17) 0.46425(13)
C2_4 C 0.9112(2) 0.27810(18) 0.50403(14)
H1_4 H 0.943130 0.302990 0.532701
C3_4 C 0.8462(2) 0.18003(18) 0.44085(14)
C4_4 C 0.8264(2) 0.11779(19) 0.41744(15)
C5_4 C 0.7678(2) 0.01684(18) 0.35509(15)
C7_4 C 0.8033(2) 0.49456(19) 0.41402(15)
H3_4 H 0.766381 0.515002 0.385512
C8_4 C 0.8059(2) 0.42230(18) 0.41853(15)
H4_4 H 0.770734 0.394261 0.393683
C9_4 C 0.85936(19) 0.38998(17) 0.45898(13)
C10_4 C 0.9074(2) 0.43485(18) 0.49442(15)
H5_4 H 0.944764 0.415936 0.523387
C11_4 C 0.9006(2) 0.50677(18) 0.48734(14)
H6_4 H 0.934037 0.536215 0.512218
C17_4 C 0.7416(2) 0.37100(19) 0.55289(15)
C18_4 C 0.7845(3) 0.3383(2) 0.59543(17)
H11_4 H 0.809601 0.364735 0.625526
C19_4 C 0.7333(2) 0.2372(2) 0.53152(16)
C20_4 C 0.7139(2) 0.17485(19) 0.50887(16)
C21_4 C 0.6529(2) 0.0766(2) 0.44455(16)
H12_4 H 0.624282 0.051801 0.414565
C22_4 C 0.6937(2) 0.04116(19) 0.48623(15)
C23_4 C 0.6705(2) 0.5460(2) 0.49425(16)
H13_4 H 0.636342 0.563168 0.463032
C24_6 C 0.6802(3) 0.4746(2) 0.50000(17)
H14_4 H 0.653925 0.443537 0.473064
C25_4 C 0.7293(2) 0.44754(19) 0.54589(15)
C26_4 C 0.7658(3) 0.4960(2) 0.58210(18)
H15_4 H 0.800223 0.480579 0.613765
C27_4 C 0.7529(3) 0.5666(2) 0.57303(16)
H16_4 H 0.779089 0.598770 0.599170
C33_4 C 0.62689(19) 0.68464(18) 0.34883(13)
C34_4 C 0.5619(2) 0.7245(2) 0.33875(14)
H21_4 H 0.544812 0.739474 0.366784
C35_4 C 0.5218(2) 0.7427(2) 0.28830(14)
H22_4 H 0.477601 0.770139 0.281881
C36_4 C 0.5468(2) 0.7206(2) 0.24696(14)
C37_4 C 0.6105(2) 0.6799(2) 0.25751(14)
H23_4 H 0.627278 0.663709 0.229619
C38_4 C 0.6506(2) 0.6623(2) 0.30799(13)
H24_4 H 0.694576 0.634556 0.314391
C39_4 C 0.42280(19) 0.78595(18) 0.09305(13)
C40_4 C 0.4992(2) 0.7808(2) 0.10715(14)
H25_4 H 0.524537 0.792238 0.082566
C41_4 C 0.5399(2) 0.7594(2) 0.15645(15)
H26_4 H 0.592742 0.756133 0.165383
C42_4 C 0.5039(2) 0.7425(2) 0.19313(14)
C43_4 C 0.4271(2) 0.7479(2) 0.17872(14)
H27_4 H 0.401756 0.737020 0.203373
C44_4 C 0.3863(2) 0.7687(2) 0.12939(14)
H28_4 H 0.333423 0.771243 0.120204
C45_4 C 0.67292(19) 0.67115(16) 0.40408(13)
C46_4 C 0.3780(2) 0.80847(17) 0.03965(13)
C47_4 C 0.6063(2) 0.7482(3) 0.62605(15)
C48_4 C 0.6516(3) 0.7618(4) 0.67490(19)
H29_4 H 0.704145 0.757500 0.682473
C49_4 C 0.6208(3) 0.7822(4) 0.7140(2)
H30_4 H 0.652982 0.791269 0.747928
C50_4 C 0.5455(3) 0.7894(3) 0.70414(17)
C51_4 C 0.4993(3) 0.7734(4) 0.65486(17)
H31_4 H 0.446643 0.776273 0.647606
C52_4 C 0.5296(3) 0.7531(3) 0.61615(17)
H32_4 H 0.497477 0.742505 0.582452
C53_4 C 0.4478(2) 0.8413(2) 0.82403(14)
C54_4 C 0.4151(3) 0.8629(3) 0.77387(17)
H33_4 H 0.369904 0.889016 0.765404
C55_4 C 0.4475(3) 0.8469(3) 0.73543(18)
H34_4 H 0.424083 0.862690 0.700968
C56_4 C 0.5121(3) 0.8090(3) 0.74578(16)
C57_4 C 0.5447(3) 0.7870(3) 0.79616(17)
H35_4 H 0.589508 0.760165 0.804422
C58_4 C 0.5129(3) 0.8036(3) 0.83505(16)
H36_4 H 0.536621 0.788526 0.869664
C59_4 C 0.6390(2) 0.7275(2) 0.58417(14)
C60_4 C 0.4118(2) 0.85393(18) 0.86519(13)
N5_2 N 0.83906(16) 0.76107(14) 0.42020(11)
N6_2 N 0.70190(18) 0.81692(15) 0.50306(12)
H2_4 H 0.738667 0.990529 0.326098
C6_4 C 0.8120(2) 0.98385(18) 0.39675(15)
C12_4 C 0.8815(2) 0.80721(18) 0.45316(14)
H7_4 H 0.918515 0.789608 0.482835
C13_4 C 0.8745(2) 0.87891(19) 0.44658(15)
H8_4 H 0.906405 0.909347 0.471538
C14_4 C 0.8218(2) 0.90739(18) 0.40419(14)
C15_4 C 0.7775(2) 0.85905(18) 0.36886(15)
H9_4 H 0.740119 0.875183 0.338795
C16_4 C 0.7888(2) 0.78814(18) 0.37831(14)
H10_4 H 0.758941 0.756164 0.353544
C28_4 C 0.7451(3) 0.8588(2) 0.53880(18)
H17_4 H 0.778234 0.837830 0.568931
C29_4 C 0.7447(3) 0.9314(2) 0.53461(18)
H18_4 H 0.776684 0.958819 0.561726
C30_4 C 0.6984(2) 0.96447(18) 0.49153(15)
C31_4 C 0.6553(3) 0.9201(2) 0.45337(16)
H19_4 H 0.623379 0.939530 0.422107
C32_4 C 0.6584(2) 0.8486(2) 0.46052(16)
H20_4 H 0.627955 0.819806 0.433661
loop_
_geom_bond_atom_site_label_1
_geom_bond_atom_site_label_2
_geom_bond_site_symmetry_1
_geom_bond_site_symmetry_2
N2 C12 1_555 1_555
N4 C28 1_555 1_555
C12 H7 1_555 1_555
C13 C12 1_555 1_555
H8 C13 1_555 1_555
C14 C6 1_555 1_555
C15 C14 1_555 1_555
H9 C15 1_555 1_555
C16 N2 1_555 1_555
H10 C16 1_555 1_555
C28 H17 1_555 1_555
C29 C28 1_555 1_555
H18 C29 1_555 1_555
C31 C30 1_555 1_555
H19 C31 1_555 1_555
C32 N4 1_555 1_555
H20 C32 1_555 1_555
Co3 N2 1_555 1_555
Co6 N4 1_555 1_555
C13 C14 1_555 1_555
C15 C16 1_555 1_555
C29 C30 1_555 1_555
C31 C32 1_555 1_555
Co3 O1 1_555 1_555
Co6 O2 1_555 1_555
S1 C1 1_555 1_555
S2 C2 1_555 1_555
S3 C4 1_555 1_555
S4 C4 1_555 1_555
S5 C17 1_555 1_555
S6 C18 1_555 1_555
S7 C20 1_555 1_555
S8 C20 1_555 1_555
O1 C45 1_555 1_555
O2 C45 1_555 1_555
O3 C46 1_555 1_555
O4 C46 1_555 1_555
O5 Co6 1_555 1_555
O6 Co6 1_555 1_555
O7 C60 1_555 1_555
O8 C60 1_555 1_555
N1 Co3 1_555 1_555
N3 Co6 1_555 1_555
C1 C2 1_555 1_555
C2 H1 1_555 1_555
C3 S1 1_555 1_555
C4 C3 1_555 1_555
C5 S3 1_555 1_555
C7 N1 1_555 1_555
H3 C7 1_555 1_555
C8 C7 1_555 1_555
H4 C8 1_555 1_555
C9 C1 1_555 1_555
C10 C9 1_555 1_555
H5 C10 1_555 1_555
C11 N1 1_555 1_555
H6 C11 1_555 1_555
C17 C18 1_555 1_555
C18 H11 1_555 1_555
C19 S5 1_555 1_555
C20 C19 1_555 1_555
C21 S7 1_555 1_555
H12 C21 1_555 1_555
C22 S8 1_555 1_555
C23 N3 1_555 1_555
H13 C23 1_555 1_555
C24 C23 1_555 1_555
H14 C24 1_555 1_555
C25 C17 1_555 1_555
C26 C25 1_555 1_555
H15 C26 1_555 1_555
C27 N3 1_555 1_555
H16 C27 1_555 1_555
C33 C34 1_555 1_555
C34 H21 1_555 1_555
C35 C34 1_555 1_555
H22 C35 1_555 1_555
C36 C35 1_555 1_555
C37 C36 1_555 1_555
H23 C37 1_555 1_555
C38 C33 1_555 1_555
H24 C38 1_555 1_555
C39 C40 1_555 1_555
C40 H25 1_555 1_555
C41 C40 1_555 1_555
H26 C41 1_555 1_555
C42 C36 1_555 1_555
C43 C42 1_555 1_555
H27 C43 1_555 1_555
C44 C39 1_555 1_555
H28 C44 1_555 1_555
C45 C33 1_555 1_555
C46 C39 1_555 1_555
C47 C48 1_555 1_555
C48 H29 1_555 1_555
C49 C48 1_555 1_555
H30 C49 1_555 1_555
C50 C49 1_555 1_555
C51 C50 1_555 1_555
H31 C51 1_555 1_555
C52 C47 1_555 1_555
H32 C52 1_555 1_555
C53 C54 1_555 1_555
C54 H33 1_555 1_555
C55 C54 1_555 1_555
H34 C55 1_555 1_555
C56 C50 1_555 1_555
C57 C56 1_555 1_555
H35 C57 1_555 1_555
C58 C53 1_555 1_555
H36 C58 1_555 1_555
C59 O5 1_555 1_555
C60 C53 1_555 1_555
Co5 O7 1_555 1_555
Co7 O4 1_555 1_555
O9 Co3 1_555 1_555
O10 Co6 1_555 1_555
O11 Co3 1_555 1_555
O12 Co3 1_555 1_555
S2 C3 1_555 1_555
S6 C19 1_555 1_555
O6 C59 1_555 1_555
O8 Co5 1_555 1_555
C8 C9 1_555 1_555
C10 C11 1_555 1_555
C21 C22 1_555 1_555
C24 C25 1_555 1_555
C26 C27 1_555 1_555
C37 C38 1_555 1_555
C41 C42 1_555 1_555
C43 C44 1_555 1_555
C47 C59 1_555 1_555
C51 C52 1_555 1_555
C55 C56 1_555 1_555
C57 C58 1_555 1_555
O9 C46_2 1_555 1_555
O10 C46_2 1_555 1_555
C39_2 C40_2 1_555 1_555
H27_2 C43_2 1_555 1_555
C44_2 C39_2 1_555 1_555
H28_2 C44_2 1_555 1_555
C46_2 C39_2 1_555 1_555
C43_2 C44_2 1_555 1_555
O11 C60_2 1_555 1_555
O12 C60_2 1_555 1_555
H31_2 C51_2 1_555 1_555
C53_2 C54_2 1_555 1_555
C54_2 H33_2 1_555 1_555
C55_2 C54_2 1_555 1_555
H34_2 C55_2 1_555 1_555
C60_2 C53_2 1_555 1_555
Co5 O1_2 1_555 1_555
O1_2 C45_2 1_555 1_555
O2_2 C45_2 1_555 1_555
N1_2 Co5 1_555 1_555
C11_2 N1_2 1_555 1_555
H13_2 C23_2 1_555 1_555
C33_2 C34_2 1_555 1_555
C34_2 H21_2 1_555 1_555
C35_2 C34_2 1_555 1_555
C36_2 C35_2 1_555 1_555
C37_2 C36_2 1_555 1_555
H23_2 C37_2 1_555 1_555
C38_2 C33_2 1_555 1_555
H24_2 C38_2 1_555 1_555
H26_2 C41_2 1_555 1_555
C42_2 C36_2 1_555 1_555
C45_2 C33_2 1_555 1_555
N5 Co5 1_555 1_555
C37_2 C38_2 1_555 1_555
C41_2 C42_2 1_555 1_555
O5_2 Co7 1_555 1_555
O6_2 Co7 1_555 1_555
N3_2 Co7 1_555 1_555
C27_2 N3_2 1_555 1_555
H16_2 C27_2 1_555 1_555
C47_2 C48_2 1_555 1_555
C48_2 H29_2 1_555 1_555
C49_2 C48_2 1_555 1_555
H30_2 C49_2 1_555 1_555
C50_2 C49_2 1_555 1_555
C52_2 C47_2 1_555 1_555
C56_2 C50_2 1_555 1_555
C57_2 C56_2 1_555 1_555
H35_2 C57_2 1_555 1_555
H36_2 C58_2 1_555 1_555
C59_2 O5_2 1_555 1_555
N6 Co7 1_555 1_555
O6_2 C59_2 1_555 1_555
C47_2 C59_2 1_555 1_555
C57_2 C58_2 1_555 1_555
S1_2 C1_2 1_555 1_555
S3_2 C4_2 1_555 1_555
S4_2 C4_2 1_555 1_555
N5 C12_2 1_555 1_555
C3_2 S1_2 1_555 1_555
C4_2 C3_2 1_555 1_555
C5_2 S3_2 1_555 1_555
H2_2 C5_2 1_555 1_555
C6_2 S4_2 1_555 1_555
C8_2 C7_2 1_555 1_555
H4_2 C8_2 1_555 1_555
C9_2 C1_2 1_555 1_555
C10_2 C9_2 1_555 1_555
C12_2 H7_2 1_555 1_555
C13_2 C12_2 1_555 1_555
H8_2 C13_2 1_555 1_555
C14_2 C6_2 1_555 1_555
C15_2 C14_2 1_555 1_555
H9_2 C15_2 1_555 1_555
C16_2 N5 1_555 1_555
H10_2 C16_2 1_555 1_555
C21_2 S7_2 1_555 1_555
H12_2 C21_2 1_555 1_555
H14_2 C24_2 1_555 1_555
C30_2 C22_2 1_555 1_555
C31_2 C30_2 1_555 1_555
H19_2 C31_2 1_555 1_555
H20_2 C32_2 1_555 1_555
C5_2 C6_2 1_555 1_555
C8_2 C9_2 1_555 1_555
C13_2 C14_2 1_555 1_555
C15_2 C16_2 1_555 1_555
C21_2 C22_2 1_555 1_555
C31_2 C32_2 1_555 1_555
S2_2 C2_2 1_555 1_555
S6_2 C18_2 1_555 1_555
S8_2 C20_2 1_555 1_555
N6 C28_2 1_555 1_555
C2_2 H1_2 1_555 1_555
C17_2 C18_2 1_555 1_555
C18_2 H11_2 1_555 1_555
C20_2 C19_2 1_555 1_555
C25_2 C17_2 1_555 1_555
C26_2 C25_2 1_555 1_555
H15_2 C26_2 1_555 1_555
C28_2 H17_2 1_555 1_555
C29_2 C28_2 1_555 1_555
H18_2 C29_2 1_555 1_555
S6_2 C19_2 1_555 1_555
C24_3 C25_2 1_555 1_555
S2_3 C2_3 1_555 1_555
S6_3 C18_3 1_555 1_555
S8_3 C20_3 1_555 1_555
N4_2 C28_3 1_555 1_555
C2_3 H1_3 1_555 1_555
C17_3 C18_3 1_555 1_555
C18_3 H11_3 1_555 1_555
C20_3 C19_3 1_555 1_555
C25_3 C17_3 1_555 1_555
C26_3 C25_3 1_555 1_555
H15_3 C26_3 1_555 1_555
C28_3 H17_3 1_555 1_555
C29_3 C28_3 1_555 1_555
H18_3 C29_3 1_555 1_555
Co6_2 N4_2 1_555 1_555
S6_3 C19_3 1_555 1_555
C24_4 C25_3 1_555 1_555
S1_3 C1_3 1_555 1_555
S3_3 C4_3 1_555 1_555
S4_3 C4_3 1_555 1_555
N2_2 C12_3 1_555 1_555
C3_3 S1_3 1_555 1_555
C4_3 C3_3 1_555 1_555
C5_3 S3_3 1_555 1_555
H2_3 C5_3 1_555 1_555
C6_3 S4_3 1_555 1_555
C8_3 C7_3 1_555 1_555
H4_3 C8_3 1_555 1_555
C9_3 C1_3 1_555 1_555
C10_3 C9_3 1_555 1_555
C12_3 H7_3 1_555 1_555
C13_3 C12_3 1_555 1_555
H8_3 C13_3 1_555 1_555
C14_3 C6_3 1_555 1_555
C15_3 C14_3 1_555 1_555
H9_3 C15_3 1_555 1_555
C16_3 N2_2 1_555 1_555
H10_3 C16_3 1_555 1_555
C21_3 S7_3 1_555 1_555
H12_3 C21_3 1_555 1_555
H14_3 C24_5 1_555 1_555
C30_3 C22_3 1_555 1_555
C31_3 C30_3 1_555 1_555
H19_3 C31_3 1_555 1_555
H20_3 C32_3 1_555 1_555
Co3_2 N2_2 1_555 1_555
C5_3 C6_3 1_555 1_555
C8_3 C9_3 1_555 1_555
C13_3 C14_3 1_555 1_555
C15_3 C16_3 1_555 1_555
C21_3 C22_3 1_555 1_555
C31_3 C32_3 1_555 1_555
O5_3 Co6_2 1_555 1_555
O6_3 Co6_2 1_555 1_555
N3_3 Co6_2 1_555 1_555
C27_3 N3_3 1_555 1_555
H16_3 C27_3 1_555 1_555
C47_3 C48_3 1_555 1_555
C48_3 H29_3 1_555 1_555
C49_3 C48_3 1_555 1_555
H30_3 C49_3 1_555 1_555
C50_3 C49_3 1_555 1_555
C52_3 C47_3 1_555 1_555
C56_3 C50_3 1_555 1_555
C57_3 C56_3 1_555 1_555
H35_3 C57_3 1_555 1_555
H36_3 C58_3 1_555 1_555
C59_3 O5_3 1_555 1_555
O10_2 Co6_2 1_555 1_555
O6_3 C59_3 1_555 1_555
C47_3 C59_3 1_555 1_555
C57_3 C58_3 1_555 1_555
Co3_2 O1_3 1_555 1_555
O1_3 C45_3 1_555 1_555
O2_3 C45_3 1_555 1_555
N1_3 Co3_2 1_555 1_555
C11_3 N1_3 1_555 1_555
H13_3 C23_3 1_555 1_555
C33_3 C34_3 1_555 1_555
C34_3 H21_3 1_555 1_555
C35_3 C34_3 1_555 1_555
C36_3 C35_3 1_555 1_555
C37_3 C36_3 1_555 1_555
H23_3 C37_3 1_555 1_555
C38_3 C33_3 1_555 1_555
H24_3 C38_3 1_555 1_555
H26_3 C41_3 1_555 1_555
C42_3 C36_3 1_555 1_555
C45_3 C33_3 1_555 1_555
O11_2 Co3_2 1_555 1_555
O12_2 Co3_2 1_555 1_555
C37_3 C38_3 1_555 1_555
C41_3 C42_3 1_555 1_555
O7_2 C60_3 1_555 1_555
O8_2 C60_3 1_555 1_555
H31_3 C51_3 1_555 1_555
C53_3 C54_3 1_555 1_555
C54_3 H33_3 1_555 1_555
C55_3 C54_3 1_555 1_555
H34_3 C55_3 1_555 1_555
C60_3 C53_3 1_555 1_555
Co4 O7_2 1_555 1_555
O8_2 Co4 1_555 1_555
O3_2 C46_3 1_555 1_555
O4_2 C46_3 1_555 1_555
C39_3 C40_3 1_555 1_555
H27_3 C43_3 1_555 1_555
C44_3 C39_3 1_555 1_555
H28_3 C44_3 1_555 1_555
C46_3 C39_3 1_555 1_555
Co4 O3_2 1_555 1_555
Co7_2 O4_2 1_555 1_555
C43_3 C44_3 1_555 1_555
Co4 O1_4 1_555 1_555
Co7_2 O2_4 1_555 1_555
S1_4 C1_4 1_555 1_555
S2_4 C2_4 1_555 1_555
S3_4 C4_4 1_555 1_555
S4_4 C4_4 1_555 1_555
S5_4 C17_4 1_555 1_555
S6_4 C18_4 1_555 1_555
S7_4 C20_4 1_555 1_555
S8_4 C20_4 1_555 1_555
O1_4 C45_4 1_555 1_555
O2_4 C45_4 1_555 1_555
O9_2 C46_4 1_555 1_555
O10_2 C46_4 1_555 1_555
O5_4 Co7_2 1_555 1_555
O6_4 Co7_2 1_555 1_555
O11_2 C60_4 1_555 1_555
O12_2 C60_4 1_555 1_555
N1_4 Co4 1_555 1_555
N3_4 Co7_2 1_555 1_555
C1_4 C2_4 1_555 1_555
C2_4 H1_4 1_555 1_555
C3_4 S1_4 1_555 1_555
C4_4 C3_4 1_555 1_555
C5_4 S3_4 1_555 1_555
C7_4 N1_4 1_555 1_555
H3_4 C7_4 1_555 1_555
C8_4 C7_4 1_555 1_555
H4_4 C8_4 1_555 1_555
C9_4 C1_4 1_555 1_555
C10_4 C9_4 1_555 1_555
H5_4 C10_4 1_555 1_555
C11_4 N1_4 1_555 1_555
H6_4 C11_4 1_555 1_555
C17_4 C18_4 1_555 1_555
C18_4 H11_4 1_555 1_555
C19_4 S5_4 1_555 1_555
C20_4 C19_4 1_555 1_555
C21_4 S7_4 1_555 1_555
H12_4 C21_4 1_555 1_555
C22_4 S8_4 1_555 1_555
C23_4 N3_4 1_555 1_555
H13_4 C23_4 1_555 1_555
C24_6 C23_4 1_555 1_555
H14_4 C24_6 1_555 1_555
C25_4 C17_4 1_555 1_555
C26_4 C25_4 1_555 1_555
H15_4 C26_4 1_555 1_555
C27_4 N3_4 1_555 1_555
H16_4 C27_4 1_555 1_555
C33_4 C34_4 1_555 1_555
C34_4 H21_4 1_555 1_555
C35_4 C34_4 1_555 1_555
H22_4 C35_4 1_555 1_555
C36_4 C35_4 1_555 1_555
C37_4 C36_4 1_555 1_555
H23_4 C37_4 1_555 1_555
C38_4 C33_4 1_555 1_555
H24_4 C38_4 1_555 1_555
C39_4 C40_4 1_555 1_555
C40_4 H25_4 1_555 1_555
C41_4 C40_4 1_555 1_555
H26_4 C41_4 1_555 1_555
C42_4 C36_4 1_555 1_555
C43_4 C42_4 1_555 1_555
H27_4 C43_4 1_555 1_555
C44_4 C39_4 1_555 1_555
H28_4 C44_4 1_555 1_555
C45_4 C33_4 1_555 1_555
C46_4 C39_4 1_555 1_555
C47_4 C48_4 1_555 1_555
C48_4 H29_4 1_555 1_555
C49_4 C48_4 1_555 1_555
H30_4 C49_4 1_555 1_555
C50_4 C49_4 1_555 1_555
C51_4 C50_4 1_555 1_555
H31_4 C51_4 1_555 1_555
C52_4 C47_4 1_555 1_555
H32_4 C52_4 1_555 1_555
C53_4 C54_4 1_555 1_555
C54_4 H33_4 1_555 1_555
C55_4 C54_4 1_555 1_555
H34_4 C55_4 1_555 1_555
C56_4 C50_4 1_555 1_555
C57_4 C56_4 1_555 1_555
H35_4 C57_4 1_555 1_555
C58_4 C53_4 1_555 1_555
H36_4 C58_4 1_555 1_555
C59_4 O5_4 1_555 1_555
C60_4 C53_4 1_555 1_555
N5_2 Co4 1_555 1_555
N6_2 Co7_2 1_555 1_555
S2_4 C3_4 1_555 1_555
S6_4 C19_4 1_555 1_555
O6_4 C59_4 1_555 1_555
C8_4 C9_4 1_555 1_555
C10_4 C11_4 1_555 1_555
C21_4 C22_4 1_555 1_555
C24_6 C25_4 1_555 1_555
C26_4 C27_4 1_555 1_555
C37_4 C38_4 1_555 1_555
C41_4 C42_4 1_555 1_555
C43_4 C44_4 1_555 1_555
C47_4 C59_4 1_555 1_555
C51_4 C52_4 1_555 1_555
C55_4 C56_4 1_555 1_555
C57_4 C58_4 1_555 1_555
N5_2 C12_4 1_555 1_555
N6_2 C28_4 1_555 1_555
C12_4 H7_4 1_555 1_555
C13_4 C12_4 1_555 1_555
H8_4 C13_4 1_555 1_555
C14_4 C6_4 1_555 1_555
C15_4 C14_4 1_555 1_555
H9_4 C15_4 1_555 1_555
C16_4 N5_2 1_555 1_555
H10_4 C16_4 1_555 1_555
C28_4 H17_4 1_555 1_555
C29_4 C28_4 1_555 1_555
H18_4 C29_4 1_555 1_555
C31_4 C30_4 1_555 1_555
H19_4 C31_4 1_555 1_555
C32_4 N6_2 1_555 1_555
H20_4 C32_4 1_555 1_555
C13_4 C14_4 1_555 1_555
C15_4 C16_4 1_555 1_555
C29_4 C30_4 1_555 1_555
C31_4 C32_4 1_555 1_555

#END
