
###############################################################################
#
# This file contains modified crystal structure data generated from the
# MOF subset of the Cambridge Structural Database (CSD) v543 
# hosted by the Cambridge Crystallographic Data Centre (CCDC).
#
# This work is licensed under the Creative Commons
# Attribution-NonCommercial-ShareAlike 4.0 International License.
# To view a copy of this license, visit
# http://creativecommons.org/licenses/by-nc-sa/4.0/
# or send a letter to
# Creative Commons, PO Box 1866, Mountain View, CA 94042, USA.
#
# CIF created using the CSD Python API on 29 September 2022
# The structure has been converted into the P1 space group
# The structure has a 3D framework
# The original CSD entry JAHROD is in the orthorhombic crystal system
# The framework has been calculated to contain at least 10.0% void space
# The void calculation uses a probe of radius 1.32A, grid spacing 0.4
# H atom positions have been added when not included in the experimental data
#
###############################################################################

data_JAHROD
_chemical_formula_moiety         '(C432 H288 Al24 O124)n'
_symmetry_cell_setting           triclinic
_symmetry_space_group_name_H-M   'P 1'
_symmetry_Int_Tables_number      1
_space_group_name_Hall           'P 1'
loop_
_symmetry_equiv_pos_site_id
_symmetry_equiv_pos_as_xyz
1 x,y,z
_cell_length_a                   34.5751(3)
_cell_length_b                   18.3942(2)
_cell_length_c                   45.8595(4)
_cell_angle_alpha                90
_cell_angle_beta                 90
_cell_angle_gamma                90
_cell_volume                     29165.8
loop_
_atom_site_label
_atom_site_type_symbol
_atom_site_fract_x
_atom_site_fract_y
_atom_site_fract_z
Al8 Al 0.01225(2) 0.53980(2) 0.46333(2)
Al9 Al 0.68864(2) 0.03169(2) 0.67987(2)
Al1 Al 0.51225(2) 0.46020(2) 0.46333(2)
Al3 Al 0.46047(2) 0.57129(2) 0.42735(2)
Al4 Al 0.71459(2) 0.08213(2) 0.74368(2)
Al5 Al 0.43643(2) 0.52394(2) 0.49191(2)
O1 O 0.39159(3) 0.50412(6) 0.46910(3)
O2 O 0.46946(3) 0.51831(5) 0.46063(2)
O3 O 0.70378(3) 0.17090(5) 0.72356(2)
O4 O 0.04648(3) 0.46138(6) 0.45667(2)
O5 O 0.65227(3) 0.03524(5) 0.64799(3)
H1 H 0.643674 0.080810 0.640715
O6 O 0.51562(3) 0.43354(6) 0.42351(2)
O9 O 0.92898(3) 0.37491(5) 0.48953(2)
O10 O 0.46708(3) 0.49284(6) 0.40059(3)
O11 O 0.95032(3) 0.33868(5) 0.44620(2)
O12 O 0.68703(3) 0.13342(5) 0.67905(2)
O13 O 0.01339(3) 0.40039(6) 0.42264(2)
O14 O 0.47446(3) 0.54324(5) 0.52106(2)
O15 O 0.72605(3) 0.03822(6) 0.64913(2)
O16 O 0.73233(3) 0.10989(6) 0.24654(2)
O17 O 0.72178(3) 0.02586(5) 0.71098(2)
O18 O 0.23217(3) 0.05616(6) 0.24870(3)
O19 O 0.40702(3) 0.54639(6) 0.42512(3)
O20 O 0.73215(3) 0.88044(6) 0.70400(3)
O22 O 0.45151(3) 0.62564(6) 0.39268(2)
H4 H 0.445270 0.675850 0.393853
H5 H 0.453276 0.602546 0.374194
O23 O 0.70084(3) 0.04308(6) 0.21291(3)
O25 O 0.68697(4) 0.92932(6) 0.67538(3)
O27 O 0.52042(3) 0.47108(6) 0.50334(3)
O29 O 0.40093(3) 0.52709(6) 0.52368(2)
H6 H 0.389952 0.572131 0.529541
H7 H 0.394210 0.483628 0.533659
O30 O 0.70712(3) 0.14117(6) 0.77738(2)
H8 H 0.682354 0.143829 0.786293
H9 H 0.728163 0.167935 0.785268
O31 O 0.55777(4) 0.40026(6) 0.46580(3)
H10 H 0.553029 0.363613 0.476129
C1 C 0.75693(5) 0.00087(7) 0.64740(4)
C4 C 0.49256(5) 0.44364(10) 0.40244(4)
C5 C 0.68138(5) 0.25705(7) 0.68969(4)
C6 C 0.04401(5) 0.41512(8) 0.43618(3)
C7 C 0.68440(6) 0.80387(8) 0.68461(4)
C8 C 0.70239(5) 0.09003(9) 0.23324(4)
C9 C 0.70216(5) 0.87596(8) 0.68834(4)
C10 C 0.35362(5) 0.46793(10) 0.43026(4)
C11 C 0.66462(5) 0.12361(10) 0.24158(4)
C12 C 0.25408(5) 0.04511(9) 0.27023(4)
C13 C 0.93591(4) 0.32734(8) 0.47075(4)
C14 C 0.08051(5) 0.37901(10) 0.42769(4)
C15 C 0.24903(5) 0.09265(10) 0.29606(4)
C18 C 0.92576(5) 0.25204(8) 0.47952(4)
C22 C 0.63728(6) 0.59661(8) 0.66175(4)
C23 C 0.39506(6) 0.03359(12) 0.27176(5)
H12 H 0.376113 0.015142 0.284810
C24 C 0.49660(5) 0.39219(10) 0.37742(4)
C25 C 0.92380(6) 0.19554(8) 0.45907(4)
H13 H 0.931068 0.204058 0.439384
C26 C 0.70566(6) 0.74151(9) 0.68863(4)
H14 H 0.731151 0.744959 0.696247
C27 C 0.67340(6) 0.27159(9) 0.65978(4)
H15 H 0.677022 0.234757 0.645523
C28 C 0.11235(5) 0.38539(11) 0.44605(4)
H16 H 0.109679 0.408138 0.464538
C29 C 0.51881(6) 0.56586(9) 0.57243(4)
H17 H 0.496589 0.595879 0.570596
C30 C 0.29319(5) 0.38170(12) 0.40876(5)
C31 C 0.39318(5) 0.01747(10) 0.24188(4)
C32 C 0.32626(5) 0.43791(11) 0.44951(4)
H18 H 0.328581 0.445486 0.469931
C33 C 0.29610(6) 0.39745(12) 0.43852(5)
H19 H 0.276796 0.379804 0.451452
C34 C 0.65627(6) 0.39460(8) 0.67151(4)
C35 C 0.14852(5) 0.35810(12) 0.43720(5)
H20 H 0.169908 0.358885 0.450207
C36 C 0.64655(6) 0.79901(8) 0.67527(4)
H21 H 0.631430 0.841772 0.673036
C37 C 0.61105(6) 0.59487(8) 0.63938(4)
H22 H 0.601314 0.639337 0.631828
C38 C 0.65293(6) 0.66817(8) 0.67177(4)
C39 C 0.76634(6) 0.03558(9) 0.59414(4)
H23 H 0.744184 0.066120 0.594511
C40 C 0.66059(7) 0.33833(9) 0.65181(4)
H24 H 0.654350 0.346753 0.631922
C41 C 0.08459(5) 0.34242(12) 0.40154(4)
H25 H 0.062384 0.333088 0.389925
C43 C 0.67868(6) 0.31314(8) 0.70930(4)
H27 H 0.686109 0.305492 0.729008
C44 C 0.21697(5) 0.13984(12) 0.29643(5)
H28 H 0.198471 0.137730 0.281139
C45 C 0.69070(6) 0.67373(8) 0.68181(5)
H29 H 0.706168 0.631382 0.683977
C46 C 0.52831(6) 0.51707(9) 0.55087(4)
C47 C 0.57328(6) 0.52588(9) 0.60133(5)
C49 C 0.23445(5) 0.24380(13) 0.36605(5)
C51 C 0.27568(5) 0.09628(12) 0.31794(5)
H31 H 0.297707 0.065440 0.317320
C52 C 0.50509(5) 0.29460(12) 0.33130(5)
C53 C 0.59818(7) 0.52888(8) 0.62731(5)
C55 C 0.91123(6) 0.12727(9) 0.46759(4)
H33 H 0.910607 0.088861 0.453750
C56 C 0.41979(5) 0.04646(12) 0.22270(5)
H34 H 0.417958 0.036776 0.202404
C57 C 0.59192(5) 0.16904(13) 0.26008(5)
C59 C 0.63917(7) 0.46508(8) 0.66230(4)
C60 C 0.48463(5) 0.15057(14) 0.27375(6)
C61 C 0.47330(5) 0.33965(13) 0.33279(5)
H35 H 0.454135 0.336964 0.317987
C63 C 0.66530(6) 0.38052(8) 0.70075(4)
H37 H 0.662178 0.417848 0.714875
C64 C 0.50597(6) 0.51040(9) 0.52321(4)
C65 C 0.52148(6) 0.14335(14) 0.26194(6)
H38 H 0.525126 0.111685 0.245806
C66 C 0.63303(5) 0.11492(12) 0.22359(5)
H39 H 0.635641 0.092594 0.205012
C68 C 0.63055(6) 0.73102(9) 0.66911(5)
H41 H 0.604323 0.727503 0.663087
C69 C 0.46867(6) 0.38921(12) 0.35563(5)
H42 H 0.446780 0.420383 0.356263
C70 C 0.45167(6) 0.10636(14) 0.26274(5)
C71 C 0.42458(6) 0.07626(14) 0.28181(5)
H43 H 0.426690 0.085572 0.302122
C72 C 0.53284(5) 0.29914(13) 0.35322(5)
H44 H 0.554938 0.268520 0.352422
C74 C 0.19763(6) 0.25917(14) 0.37598(6)
H46 H 0.176002 0.234786 0.367756
C75 C 0.56087(6) 0.47129(9) 0.55424(5)
H47 H 0.567905 0.438361 0.539191
C76 C 0.26587(6) 0.28404(13) 0.37624(5)
H48 H 0.290883 0.275202 0.368444
C77 C 0.26116(5) 0.33677(13) 0.39757(5)
C78 C 0.52887(5) 0.34664(11) 0.37577(5)
H49 H 0.548162 0.348848 0.390490
C79 C 0.11985(6) 0.31958(14) 0.39217(5)
H50 H 0.122014 0.296235 0.373764
C80 C 0.24016(5) 0.18988(11) 0.34187(5)
C81 C 0.55258(5) 0.18026(14) 0.27276(5)
C82 C 0.89957(6) 0.11418(9) 0.49598(4)
C83 C 0.54253(7) 0.57053(9) 0.59721(4)
H51 H 0.536850 0.606169 0.611582
C84 C 0.88378(7) 0.04363(9) 0.50644(5)
C85 C 0.65063(6) 0.53128(8) 0.67337(5)
H52 H 0.668108 0.532416 0.689346
C86 C 0.15266(5) 0.32975(12) 0.40899(5)
C87 C 0.61273(7) 0.46423(9) 0.63884(5)
H53 H 0.604735 0.419065 0.630798
C88 C 0.91547(7) 0.23787(9) 0.50805(4)
H54 H 0.917130 0.275492 0.522187
C89 C 0.78801(6) 0.02966(9) 0.56960(4)
H55 H 0.781930 0.059823 0.553417
C90 C 0.90283(7) 0.17000(10) 0.51628(5)
H56 H 0.896259 0.161141 0.536075
C91 C 0.85653(7) 0.04310(10) 0.52795(5)
H57 H 0.846189 0.088119 0.534458
C92 C 0.66114(5) 0.16057(12) 0.26681(5)
H58 H 0.683688 0.173560 0.277441
C93 C 0.27127(6) 0.14407(13) 0.34106(5)
H59 H 0.289834 0.144993 0.356326
C94 C 0.19207(5) 0.31052(13) 0.39810(5)
C95 C 0.35148(5) 0.45240(12) 0.40104(4)
H60 H 0.370485 0.471628 0.388219
C96 C 0.22342(5) 0.34976(12) 0.40860(5)
H61 H 0.219595 0.385537 0.423262
C97 C 0.47918(5) 0.20146(15) 0.29637(5)
H62 H 0.454227 0.207676 0.304674
C98 C 0.21218(6) 0.18915(13) 0.31883(5)
H63 H 0.190883 0.221774 0.318968
C99 C 0.44974(6) 0.09069(13) 0.23370(5)
H64 H 0.468710 0.109702 0.220801
C100 C 0.58209(7) 0.47480(10) 0.57927(5)
H65 H 0.603161 0.442338 0.581933
C101 C 0.62459(6) 0.18008(15) 0.27755(6)
H66 H 0.622049 0.200560 0.296474
C102 C 0.54632(6) 0.23342(14) 0.29440(5)
H67 H 0.567241 0.263134 0.300588
C103 C 0.51028(5) 0.24292(13) 0.30672(5)
C104 C 0.32192(6) 0.40888(12) 0.38976(5)
H68 H 0.321156 0.397695 0.369544
C106 C 0.59732(6) 0.13953(14) 0.23324(5)
H70 H 0.575727 0.135578 0.220528
C107 C 0.38633(5) 0.50866(9) 0.44264(4)
C108 C 0.69197(4) 0.18162(8) 0.69763(4)
Al12 Al 0.96047(2) 0.42871(2) 0.42735(2)
Al14 Al 0.78541(2) 0.08213(2) 0.24368(2)
Al16 Al 0.93643(2) 0.47606(2) 0.49191(2)
Al17 Al 0.76344(2) 0.96495(2) 0.70895(2)
Al18 Al 0.23656(2) 0.03505(2) 0.20895(2)
O33 O 0.54648(3) 0.53862(6) 0.45667(2)
O34 O 0.48298(3) 0.37387(5) 0.46959(3)
O35 O 0.42898(3) 0.62509(5) 0.48953(2)
O36 O 0.45032(3) 0.66132(5) 0.44620(2)
O37 O 0.51339(3) 0.59961(6) 0.42264(2)
O38 O 0.76767(3) 0.10989(6) 0.74654(2)
O41 O 0.79916(3) 0.04308(6) 0.71291(3)
O42 O 0.72179(4) 0.00540(6) 0.77149(3)
O44 O 0.66124(3) 0.05831(6) 0.74714(3)
O45 O 0.43811(3) 0.42120(5) 0.49937(3)
O46 O 0.64354(3) 0.02375(7) 0.70256(3)
H72 H 0.579171 0.42855 0.474731
H2 H 0.642966 0.991411 0.639572
O7 O 0.98298(3) 0.62613(5) 0.46959(3)
O8 O 0.77195(4) 0.96857(6) 0.66823(3)
O21 O 0.80857(4) 0.90125(7) 0.70604(3)
H3 H 0.804831 0.863640 0.716044
O24 O 0.27821(4) 0.99460(6) 0.27149(3)
O26 O 0.33876(3) 0.94169(6) 0.24714(3)
O28 O 0.93811(3) 0.57880(5) 0.49937(3)
O32 O 0.35646(3) 0.97625(7) 0.20256(3)
C2 C 0.77744(5) 0.99477(8) 0.61969(4)
C3 C 0.95398(5) 0.63100(8) 0.48605(4)
C16 C 0.93571(5) 0.70360(8) 0.49016(4)
C17 C 0.88543(6) 0.91154(8) 0.50799(4)
C19 C 0.90209(6) 0.84028(8) 0.49977(4)
C20 C 0.84344(6) 0.97979(9) 0.54060(5)
C21 C 0.89815(6) 0.97727(9) 0.49584(5)
H11 H 0.916499 0.976929 0.480428
C42 C 0.85877(6) 0.91452(9) 0.53071(5)
H26 H 0.850812 0.870497 0.539732
C48 C 0.80731(6) 0.94537(10) 0.61712(4)
H30 H 0.813974 0.915354 0.633210
C50 C 0.81821(6) 0.98219(9) 0.56716(4)
C54 C 0.95728(6) 0.76675(8) 0.48532(4)
H32 H 0.983392 0.763890 0.478984
C58 C 0.36054(5) 0.97521(9) 0.22986(5)
C62 C 0.88080(6) 0.77588(9) 0.50369(5)
H36 H 0.854375 0.778688 0.509264
C67 C 0.89771(6) 0.70856(9) 0.49958(4)
H40 H 0.883251 0.665588 0.503210
C73 C 0.93982(6) 0.83366(8) 0.48994(4)
H45 H 0.954285 0.876582 0.486217
C105 C 0.82757(6) 0.93939(10) 0.59122(5)
H69 H 0.848236 0.905527 0.589818
Al10 Al 0.31136(2) 0.96831(2) 0.17987(2)
Al13 Al 0.28541(2) 0.91787(2) 0.24368(2)
Al19 Al 0.73656(2) 0.96495(2) 0.20895(2)
O39 O 0.76783(3) 0.94384(6) 0.74870(3)
H71 H 0.83177 0.927184 0.713437
Al11 Al 0.03953(2) 0.57129(2) 0.92735(2)
H2_2 H 0.357034 0.008589 0.139572
O8_2 O 0.22805(4) 0.03143(6) 0.16823(3)
O21_2 O 0.19143(4) 0.09875(7) 0.20604(3)
H3_2 H 0.195169 0.136360 0.216044
C2_2 C 0.22256(5) 0.00523(8) 0.11969(4)
C17_2 C 0.11457(6) 0.08846(8) 0.00799(4)
C20_2 C 0.15656(6) 0.02021(9) 0.04060(5)
C42_2 C 0.14123(6) 0.08548(9) 0.03071(5)
H26_2 H 0.149188 0.129503 0.039732
C48_2 C 0.19269(6) 0.05463(10) 0.11712(4)
H30_2 H 0.186026 0.084646 0.133210
C50_2 C 0.18179(6) 0.01781(9) 0.06716(4)
C62_2 C 0.11920(6) 0.22412(9) 0.00369(5)
H36_2 H 0.145625 0.221312 0.009264
H40_2 H 0.116749 0.334412 0.003210
C105_2 C 0.17243(6) 0.06061(10) 0.09122(5)
H69_2 H 0.151764 0.094473 0.089818
O40 O 0.26785(3) 0.11956(6) 0.20400(3)
O43 O 0.31303(4) 0.07068(6) 0.17538(3)
H71_2 H 0.16823 0.0728161 0.213437
O7_2 O 0.01702(3) 0.37387(5) 0.96959(3)
O28_2 O 0.06189(3) 0.42120(5) 0.99937(3)
C3_2 C 0.04602(5) 0.36900(8) 0.98605(4)
C16_2 C 0.06429(5) 0.29640(8) 0.99016(4)
C19_2 C 0.09791(6) 0.15972(8) 0.99977(4)
C21_2 C 0.10185(6) 0.02273(9) 0.99584(5)
H11_2 H 0.083501 0.023071 0.980428
C54_2 C 0.04272(6) 0.23325(8) 0.98532(4)
H32_2 H 0.016608 0.236110 0.978984
C58_2 C 0.63946(5) 0.02479(9) 0.72986(5)
C67_2 C 0.10229(6) 0.29144(9) 0.99958(4)
C73_2 C 0.06018(6) 0.16634(8) 0.98994(4)
H45_2 H 0.045715 0.123418 0.986217
Al15 Al 0.06357(2) 0.52394(2) 0.99191(2)
Al19_2 Al 0.26344(2) 0.03505(2) 0.70895(2)
O3_2 O 0.29622(3) 0.82910(5) 0.22356(2)
O5_2 O 0.34773(3) 0.96476(5) 0.14799(3)
H1_2 H 0.356326 0.919190 0.140715
O12_2 O 0.31297(3) 0.86658(5) 0.17905(2)
O14_2 O 0.52554(3) 0.45676(5) 0.02106(2)
O15_2 O 0.27395(3) 0.96178(6) 0.14913(2)
O17_2 O 0.27822(3) 0.97414(5) 0.21098(2)
O27_2 O 0.47958(3) 0.52892(6) 0.00334(3)
O29_2 O 0.59907(3) 0.47291(6) 0.02368(2)
H6_2 H 0.610048 0.427869 0.029541
H7_2 H 0.605790 0.516372 0.033659
O30_2 O 0.29288(3) 0.85883(6) 0.27738(2)
H8_2 H 0.317646 0.856171 0.286293
H9_2 H 0.271837 0.832065 0.285268
C1_2 C 0.24307(5) 0.99913(7) 0.14740(4)
C5_2 C 0.31862(5) 0.74295(7) 0.18969(4)
C7_2 C 0.31560(6) 0.19613(8) 0.18461(4)
C9_2 C 0.29784(5) 0.12404(8) 0.18834(4)
C22_2 C 0.36272(6) 0.40339(8) 0.16175(4)
C26_2 C 0.29434(6) 0.25849(9) 0.18863(4)
H14_2 H 0.268849 0.255041 0.196247
C27_2 C 0.32660(6) 0.72841(9) 0.15978(4)
H15_2 H 0.322978 0.765243 0.145523
C29_2 C 0.48119(6) 0.43414(9) 0.07243(4)
H17_2 H 0.503411 0.404121 0.070596
C34_2 C 0.34373(6) 0.60540(8) 0.17151(4)
C36_2 C 0.35345(6) 0.20099(8) 0.17527(4)
H21_2 H 0.368570 0.158228 0.173036
C37_2 C 0.38895(6) 0.40513(8) 0.13938(4)
H22_2 H 0.398686 0.360663 0.131828
C38_2 C 0.34707(6) 0.33183(8) 0.17177(4)
C39_2 C 0.23366(6) 0.96442(9) 0.09414(4)
H23_2 H 0.255816 0.933880 0.094511
C40_2 C 0.33941(7) 0.66167(9) 0.15181(4)
H24_2 H 0.345650 0.653247 0.131922
C43_2 C 0.32132(6) 0.68686(8) 0.20930(4)
H27_2 H 0.313891 0.694508 0.229008
C45_2 C 0.30930(6) 0.32627(8) 0.18181(5)
H29_2 H 0.293832 0.368618 0.183977
C46_2 C 0.47169(6) 0.48293(9) 0.05087(4)
C47_2 C 0.42672(6) 0.47412(9) 0.10133(5)
C53_2 C 0.40182(7) 0.47112(8) 0.12731(5)
C59_2 C 0.36083(7) 0.53492(8) 0.16230(4)
C63_2 C 0.33470(6) 0.61948(8) 0.20075(4)
H37_2 H 0.337822 0.582152 0.214875
C64_2 C 0.49403(6) 0.48960(9) 0.02321(4)
C68_2 C 0.36945(6) 0.26898(9) 0.16911(5)
H41_2 H 0.395677 0.272497 0.163087
C75_2 C 0.43913(6) 0.52871(9) 0.05424(5)
H47_2 H 0.432095 0.561639 0.039191
C83_2 C 0.45747(7) 0.42947(9) 0.09721(4)
H51_2 H 0.463150 0.393831 0.111582
C84_2 C 0.11622(7) 0.95637(9) 0.00644(5)
C85_2 C 0.34937(6) 0.46872(8) 0.17337(5)
H52_2 H 0.331892 0.467584 0.189346
C87_2 C 0.38727(7) 0.53577(9) 0.13884(5)
H53_2 H 0.395265 0.580935 0.130798
C88_2 C 0.08453(7) 0.76213(9) 0.00805(4)
H54_2 H 0.082870 0.724508 0.022187
C89_2 C 0.21199(6) 0.97034(9) 0.06960(4)
H55_2 H 0.218070 0.940177 0.053417
C90_2 C 0.09717(7) 0.83000(10) 0.01628(5)
H56_2 H 0.103741 0.838859 0.036075
C91_2 C 0.14347(7) 0.95690(10) 0.02795(5)
H57_2 H 0.153811 0.911881 0.034458
C100_2 C 0.41791(7) 0.52520(10) 0.07927(5)
H65_2 H 0.396839 0.557662 0.081933
C108_2 C 0.30803(4) 0.81838(8) 0.19763(4)
O38_2 O 0.23233(3) 0.89011(6) 0.24654(2)
O41_2 O 0.20084(3) 0.95692(6) 0.21291(3)
Al1_2 Al 0.48775(2) 0.53980(2) 0.96333(2)
Al3_2 Al 0.53953(2) 0.42871(2) 0.92735(2)
Al5_2 Al 0.56357(2) 0.47606(2) 0.99191(2)
O1_2 O 0.60841(3) 0.49588(6) 0.96910(3)
O2_2 O 0.53054(3) 0.48169(5) 0.96063(2)
O4_2 O 0.95352(3) 0.53862(6) 0.95667(2)
O6_2 O 0.48438(3) 0.56646(6) 0.92351(2)
O9_2 O 0.07102(3) 0.62509(5) 0.98953(2)
O10_2 O 0.53292(3) 0.50716(6) 0.90059(3)
O11_2 O 0.04968(3) 0.66132(5) 0.94620(2)
O13_2 O 0.98661(3) 0.59961(6) 0.92264(2)
O16_2 O 0.26767(3) 0.89011(6) 0.74654(2)
O19_2 O 0.59298(3) 0.45361(6) 0.92512(3)
O22_2 O 0.54849(3) 0.37436(6) 0.89268(2)
H4_2 H 0.554730 0.324150 0.893853
H5_2 H 0.546724 0.397454 0.874194
O23_2 O 0.29916(3) 0.95692(6) 0.71291(3)
O31_2 O 0.44223(4) 0.59974(6) 0.96580(3)
H10_2 H 0.446971 0.636387 0.976129
C4_2 C 0.50744(5) 0.55636(10) 0.90244(4)
C6_2 C 0.95599(5) 0.58488(8) 0.93618(3)
C8_2 C 0.29761(5) 0.90997(9) 0.73324(4)
C10_2 C 0.64638(5) 0.53207(10) 0.93026(4)
C11_2 C 0.33538(5) 0.87639(10) 0.74158(4)
C12_2 C 0.74592(5) 0.95489(9) 0.77023(4)
C13_2 C 0.06409(4) 0.67266(8) 0.97075(4)
C14_2 C 0.91949(5) 0.62099(10) 0.92769(4)
C15_2 C 0.75097(5) 0.90735(10) 0.79606(4)
C18_2 C 0.07424(5) 0.74796(8) 0.97952(4)
C23_2 C 0.60494(6) 0.96641(12) 0.77176(5)
H12_2 H 0.623887 0.984858 0.784810
C24_2 C 0.50340(5) 0.60781(10) 0.87742(4)
C25_2 C 0.07620(6) 0.80446(8) 0.95907(4)
H13_2 H 0.068932 0.795942 0.939384
C28_2 C 0.88765(5) 0.61461(11) 0.94605(4)
H16_2 H 0.890321 0.591862 0.964538
C30_2 C 0.70681(5) 0.61830(12) 0.90876(5)
C31_2 C 0.60682(5) 0.98253(10) 0.74188(4)
C32_2 C 0.67374(5) 0.56209(11) 0.94951(4)
H18_2 H 0.671419 0.554514 0.969931
C33_2 C 0.70390(6) 0.60255(12) 0.93852(5)
H19_2 H 0.723204 0.620196 0.951452
C35_2 C 0.85148(5) 0.64190(12) 0.93720(5)
H20_2 H 0.830092 0.641115 0.950207
C41_2 C 0.91541(5) 0.65758(12) 0.90154(4)
H25_2 H 0.937616 0.666912 0.889925
C44_2 C 0.78303(5) 0.86016(12) 0.79643(5)
H28_2 H 0.801529 0.862270 0.781139
C49_2 C 0.76555(5) 0.75620(13) 0.86605(5)
C51_2 C 0.72432(5) 0.90372(12) 0.81794(5)
H31_2 H 0.702293 0.934560 0.817320
C52_2 C 0.49491(5) 0.70540(12) 0.83130(5)
C55_2 C 0.08877(6) 0.87273(9) 0.96759(4)
H33_2 H 0.089393 0.911139 0.953750
C56_2 C 0.58021(5) 0.95354(12) 0.72270(5)
H34_2 H 0.582042 0.963224 0.702404
C57_2 C 0.40808(5) 0.83096(13) 0.76008(5)
C60_2 C 0.51537(5) 0.84943(14) 0.77375(6)
C61_2 C 0.52670(5) 0.66035(13) 0.83279(5)
H35_2 H 0.545865 0.663036 0.817987
C65_2 C 0.47852(6) 0.85665(14) 0.76194(6)
H38_2 H 0.474874 0.888315 0.745806
C66_2 C 0.36697(5) 0.88508(12) 0.72359(5)
H39_2 H 0.364359 0.907406 0.705012
C69_2 C 0.53133(6) 0.61079(12) 0.85563(5)
H42_2 H 0.553220 0.579617 0.856263
C70_2 C 0.54833(6) 0.89364(14) 0.76274(5)
C71_2 C 0.57542(6) 0.92374(14) 0.78181(5)
H43_2 H 0.573310 0.914428 0.802122
C72_2 C 0.46716(5) 0.70086(13) 0.85322(5)
H44_2 H 0.445062 0.731480 0.852422
C74_2 C 0.80237(6) 0.74083(14) 0.87598(6)
H46_2 H 0.823998 0.765214 0.867756
C76_2 C 0.73413(6) 0.71596(13) 0.87624(5)
H48_2 H 0.709117 0.724798 0.868444
C77_2 C 0.73884(5) 0.66323(13) 0.89757(5)
C78_2 C 0.47113(5) 0.65336(11) 0.87577(5)
H49_2 H 0.451838 0.651152 0.890490
C79_2 C 0.88015(6) 0.68042(14) 0.89217(5)
H50_2 H 0.877986 0.703765 0.873764
C80_2 C 0.75984(5) 0.81012(11) 0.84187(5)
C81_2 C 0.44742(5) 0.81974(14) 0.77276(5)
C82_2 C 0.10043(6) 0.88582(9) 0.99598(4)
C86_2 C 0.84734(5) 0.67025(12) 0.90899(5)
C92_2 C 0.33886(5) 0.83943(12) 0.76681(5)
H58_2 H 0.316312 0.826440 0.777441
C93_2 C 0.72873(6) 0.85593(13) 0.84106(5)
H59_2 H 0.710166 0.855007 0.856326
C94_2 C 0.80793(5) 0.68948(13) 0.89810(5)
C95_2 C 0.64852(5) 0.54760(12) 0.90104(4)
H60_2 H 0.629515 0.528372 0.888219
C96_2 C 0.77658(5) 0.65024(12) 0.90860(5)
H61_2 H 0.780405 0.614463 0.923262
C97_2 C 0.52082(5) 0.79854(15) 0.79637(5)
H62_2 H 0.545773 0.792324 0.804674
C98_2 C 0.78782(6) 0.81085(13) 0.81883(5)
H63_2 H 0.809117 0.778226 0.818968
C99_2 C 0.55026(6) 0.90931(13) 0.73370(5)
H64_2 H 0.531290 0.890298 0.720801
C101_2 C 0.37541(6) 0.81992(15) 0.77755(6)
H66_2 H 0.377951 0.799440 0.796474
C102_2 C 0.45368(6) 0.76658(14) 0.79440(5)
H67_2 H 0.432759 0.736866 0.800588
C103_2 C 0.48972(5) 0.75708(13) 0.80672(5)
C104_2 C 0.67808(6) 0.59112(12) 0.88976(5)
H68_2 H 0.678844 0.602305 0.869544
C106_2 C 0.40268(6) 0.86047(14) 0.73324(5)
H70_2 H 0.424273 0.864422 0.720528
C107_2 C 0.61367(5) 0.49134(9) 0.94264(4)
Al7 Al 0.98775(2) 0.46020(2) 0.96333(2)
Al14_2 Al 0.21459(2) 0.91787(2) 0.74368(2)
O33_2 O 0.45352(3) 0.46138(6) 0.95667(2)
O34_2 O 0.51702(3) 0.62613(5) 0.96959(3)
O35_2 O 0.57102(3) 0.37491(5) 0.98953(2)
O36_2 O 0.54968(3) 0.33868(5) 0.94620(2)
O37_2 O 0.48661(3) 0.40039(6) 0.92264(2)
O45_2 O 0.56189(3) 0.57880(5) 0.99937(3)
H72_2 H 0.420829 0.57145 0.974731
H2_3 H 0.142966 0.008589 0.639572
O8_3 O 0.27195(4) 0.03143(6) 0.66823(3)
O21_3 O 0.30857(4) 0.09875(7) 0.70604(3)
H3_3 H 0.304831 0.136360 0.716044
C2_3 C 0.27744(5) 0.00523(8) 0.61969(4)
C3_3 C 0.45398(5) 0.36900(8) 0.48605(4)
C16_3 C 0.43571(5) 0.29640(8) 0.49016(4)
C17_3 C 0.38543(6) 0.08846(8) 0.50799(4)
C19_3 C 0.40209(6) 0.15972(8) 0.49977(4)
C20_3 C 0.34344(6) 0.02021(9) 0.54060(5)
C21_3 C 0.39815(6) 0.02273(9) 0.49584(5)
H11_3 H 0.416499 0.023071 0.480428
C42_3 C 0.35877(6) 0.08548(9) 0.53071(5)
H26_3 H 0.350812 0.129503 0.539732
C48_3 C 0.30731(6) 0.05463(10) 0.61712(4)
H30_3 H 0.313974 0.084646 0.633210
C50_3 C 0.31821(6) 0.01781(9) 0.56716(4)
C54_3 C 0.45728(6) 0.23325(8) 0.48532(4)
H32_3 H 0.483392 0.236110 0.478984
C62_3 C 0.38080(6) 0.22412(9) 0.50369(5)
H36_3 H 0.354375 0.221312 0.509264
C67_3 C 0.39771(6) 0.29144(9) 0.49958(4)
H40_3 H 0.383251 0.334412 0.503210
C73_3 C 0.43982(6) 0.16634(8) 0.48994(4)
H45_3 H 0.454285 0.123418 0.486217
C105_3 C 0.32757(6) 0.06061(10) 0.59122(5)
H69_3 H 0.348236 0.094473 0.589818
O39_2 O 0.26783(3) 0.05616(6) 0.74870(3)
O40_2 O 0.23215(3) 0.11956(6) 0.70400(3)
O43_2 O 0.18697(4) 0.07068(6) 0.67538(3)
H71_3 H 0.33177 0.0728161 0.713437
Al2 Al 0.18864(2) 0.96831(2) 0.67987(2)
O3_3 O 0.20378(3) 0.82910(5) 0.72356(2)
O5_3 O 0.15227(3) 0.96476(5) 0.64799(3)
H1_3 H 0.143674 0.919190 0.640715
O6_3 O 0.01562(3) 0.56646(6) 0.42351(2)
O12_3 O 0.18703(3) 0.86658(5) 0.67905(2)
O15_3 O 0.22605(3) 0.96178(6) 0.64913(2)
O17_3 O 0.22178(3) 0.97414(5) 0.71098(2)
O27_3 O 0.02042(3) 0.52892(6) 0.50334(3)
O30_3 O 0.20712(3) 0.85883(6) 0.77738(2)
H8_3 H 0.182354 0.856171 0.786293
H9_3 H 0.228163 0.832065 0.785268
O31_3 O 0.05777(4) 0.59974(6) 0.46580(3)
H10_3 H 0.053029 0.636387 0.476129
C1_3 C 0.25693(5) 0.99913(7) 0.64740(4)
C5_3 C 0.18138(5) 0.74295(7) 0.68969(4)
C7_3 C 0.18440(6) 0.19613(8) 0.68461(4)
C8_3 C 0.20239(5) 0.90997(9) 0.23324(4)
C9_3 C 0.20216(5) 0.12404(8) 0.68834(4)
C11_3 C 0.16462(5) 0.87639(10) 0.24158(4)
C13_3 C 0.43591(4) 0.67266(8) 0.47075(4)
C18_3 C 0.42576(5) 0.74796(8) 0.47952(4)
C22_3 C 0.13728(6) 0.40339(8) 0.66175(4)
C25_3 C 0.42380(6) 0.80446(8) 0.45907(4)
H13_3 H 0.431068 0.795942 0.439384
C26_3 C 0.20566(6) 0.25849(9) 0.68863(4)
H14_3 H 0.231151 0.255041 0.696247
C27_3 C 0.17340(6) 0.72841(9) 0.65978(4)
H15_3 H 0.177022 0.765243 0.645523
C29_3 C 0.01881(6) 0.43414(9) 0.57243(4)
C34_3 C 0.15627(6) 0.60540(8) 0.67151(4)
C36_3 C 0.14655(6) 0.20099(8) 0.67527(4)
H21_3 H 0.131430 0.158228 0.673036
C37_3 C 0.11105(6) 0.40513(8) 0.63938(4)
H22_3 H 0.101314 0.360663 0.631828
C38_3 C 0.15293(6) 0.33183(8) 0.67177(4)
C39_3 C 0.26634(6) 0.96442(9) 0.59414(4)
H23_3 H 0.244184 0.933880 0.594511
C40_3 C 0.16059(7) 0.66167(9) 0.65181(4)
H24_3 H 0.154350 0.653247 0.631922
C43_3 C 0.17868(6) 0.68686(8) 0.70930(4)
H27_3 H 0.186109 0.694508 0.729008
C45_3 C 0.19070(6) 0.32627(8) 0.68181(5)
H29_3 H 0.206168 0.368618 0.683977
C46_3 C 0.02831(6) 0.48293(9) 0.55087(4)
C47_3 C 0.07328(6) 0.47412(9) 0.60133(5)
C52_3 C 0.00509(5) 0.70540(12) 0.33130(5)
C53_3 C 0.09818(7) 0.47112(8) 0.62731(5)
C55_3 C 0.41123(6) 0.87273(9) 0.46759(4)
H33_3 H 0.410607 0.911139 0.453750
C57_3 C 0.09192(5) 0.83096(13) 0.26008(5)
C59_3 C 0.13917(7) 0.53492(8) 0.66230(4)
C63_3 C 0.16530(6) 0.61948(8) 0.70075(4)
H37_3 H 0.162178 0.582152 0.714875
C64_3 C 0.00597(6) 0.48960(9) 0.52321(4)
C65_3 C 0.02148(6) 0.85665(14) 0.26194(6)
H38_3 H 0.025126 0.888315 0.245806
C66_3 C 0.13303(5) 0.88508(12) 0.22359(5)
H39_3 H 0.135641 0.907406 0.205012
C68_3 C 0.13055(6) 0.26898(9) 0.66911(5)
H41_3 H 0.104323 0.272497 0.663087
C72_3 C 0.03284(5) 0.70086(13) 0.35322(5)
H44_3 H 0.054938 0.731480 0.352422
C75_3 C 0.06087(6) 0.52871(9) 0.55424(5)
H47_3 H 0.067905 0.561639 0.539191
C78_3 C 0.02887(5) 0.65336(11) 0.37577(5)
H49_3 H 0.048162 0.651152 0.390490
C81_3 C 0.05258(5) 0.81974(14) 0.27276(5)
C82_3 C 0.39957(6) 0.88582(9) 0.49598(4)
C83_3 C 0.04253(7) 0.42947(9) 0.59721(4)
H51_3 H 0.036850 0.393831 0.611582
C84_3 C 0.38378(7) 0.95637(9) 0.50644(5)
C85_3 C 0.15063(6) 0.46872(8) 0.67337(5)
H52_3 H 0.168108 0.467584 0.689346
C87_3 C 0.11273(7) 0.53577(9) 0.63884(5)
H53_3 H 0.104735 0.580935 0.630798
C88_3 C 0.41547(7) 0.76213(9) 0.50805(4)
H54_3 H 0.417130 0.724508 0.522187
C89_3 C 0.28801(6) 0.97034(9) 0.56960(4)
H55_3 H 0.281930 0.940177 0.553417
C90_3 C 0.40283(7) 0.83000(10) 0.51628(5)
H56_3 H 0.396259 0.838859 0.536075
C91_3 C 0.35653(7) 0.95690(10) 0.52795(5)
H57_3 H 0.346189 0.911881 0.534458
C92_3 C 0.16114(5) 0.83943(12) 0.26681(5)
H58_3 H 0.183688 0.826440 0.277441
C100_3 C 0.08209(7) 0.52520(10) 0.57927(5)
H65_3 H 0.103161 0.557662 0.581933
C101_3 C 0.12459(6) 0.81992(15) 0.27755(6)
H66_3 H 0.122049 0.799440 0.296474
C102_3 C 0.04632(6) 0.76658(14) 0.29440(5)
H67_3 H 0.067241 0.736866 0.300588
C103_3 C 0.01028(5) 0.75708(13) 0.30672(5)
C106_3 C 0.09732(6) 0.86047(14) 0.23324(5)
H70_3 H 0.075727 0.864422 0.220528
C108_3 C 0.19197(4) 0.81838(8) 0.69763(4)
O42_2 O 0.22179(4) 0.99460(6) 0.77149(3)
O44_2 O 0.16124(3) 0.94169(6) 0.74714(3)
O46_2 O 0.14354(3) 0.97625(7) 0.70256(3)
H72_3 H 0.0791707 0.57145 0.474731
O24_2 O 0.77821(4) 0.00540(6) 0.27149(3)
O26_2 O 0.83876(3) 0.05831(6) 0.24714(3)
O32_2 O 0.85646(3) 0.02375(7) 0.20256(3)
C58_3 C 0.86054(5) 0.02479(9) 0.22986(5)
Al10_2 Al 0.81136(2) 0.03169(2) 0.17987(2)
O1_3 O 0.89159(3) 0.49588(6) 0.46910(3)
O2_3 O 0.96946(3) 0.48169(5) 0.46063(2)
O10_3 O 0.96708(3) 0.50716(6) 0.40059(3)
O14_3 O 0.97446(3) 0.45676(5) 0.52106(2)
O18_2 O 0.73217(3) 0.94384(6) 0.24870(3)
O19_3 O 0.90702(3) 0.45361(6) 0.42512(3)
O22_3 O 0.95151(3) 0.37436(6) 0.39268(2)
H4_3 H 0.945270 0.324150 0.393853
H5_3 H 0.953276 0.397454 0.374194
O29_3 O 0.90093(3) 0.47291(6) 0.52368(2)
H6_3 H 0.889952 0.427869 0.529541
H7_3 H 0.894210 0.516372 0.533659
C4_3 C 0.99256(5) 0.55636(10) 0.40244(4)
C6_3 C 0.54401(5) 0.58488(8) 0.43618(3)
C10_3 C 0.85362(5) 0.53207(10) 0.43026(4)
C12_3 C 0.75408(5) 0.95489(9) 0.27023(4)
C14_3 C 0.58051(5) 0.62099(10) 0.42769(4)
C15_3 C 0.74903(5) 0.90735(10) 0.29606(4)
C23_3 C 0.89506(6) 0.96641(12) 0.27176(5)
H12_3 H 0.876113 0.984858 0.284810
C24_3 C 0.99660(5) 0.60781(10) 0.37742(4)
C28_3 C 0.61235(5) 0.61461(11) 0.44605(4)
H16_3 H 0.609679 0.591862 0.464538
H17_3 H 0.996589 0.404121 0.570596
C30_3 C 0.79319(5) 0.61830(12) 0.40876(5)
C31_3 C 0.89318(5) 0.98253(10) 0.24188(4)
C32_3 C 0.82626(5) 0.56209(11) 0.44951(4)
H18_3 H 0.828581 0.554514 0.469931
C33_3 C 0.79610(6) 0.60255(12) 0.43852(5)
H19_3 H 0.776796 0.620196 0.451452
C35_3 C 0.64852(5) 0.64190(12) 0.43720(5)
H20_3 H 0.669908 0.641115 0.450207
C41_3 C 0.58459(5) 0.65758(12) 0.40154(4)
H25_3 H 0.562384 0.666912 0.389925
C44_3 C 0.71697(5) 0.86016(12) 0.29643(5)
H28_3 H 0.698471 0.862270 0.281139
C49_3 C 0.73445(5) 0.75620(13) 0.36605(5)
C51_3 C 0.77568(5) 0.90372(12) 0.31794(5)
H31_3 H 0.797707 0.934560 0.317320
C56_3 C 0.91979(5) 0.95354(12) 0.22270(5)
H34_3 H 0.917958 0.963224 0.202404
C60_3 C 0.98463(5) 0.84943(14) 0.27375(6)
C61_3 C 0.97330(5) 0.66035(13) 0.33279(5)
H35_3 H 0.954135 0.663036 0.317987
C69_3 C 0.96867(6) 0.61079(12) 0.35563(5)
H42_3 H 0.946780 0.579617 0.356263
C70_3 C 0.95167(6) 0.89364(14) 0.26274(5)
C71_3 C 0.92458(6) 0.92374(14) 0.28181(5)
H43_3 H 0.926690 0.914428 0.302122
C74_3 C 0.69763(6) 0.74083(14) 0.37598(6)
H46_3 H 0.676002 0.765214 0.367756
C76_3 C 0.76587(6) 0.71596(13) 0.37624(5)
H48_3 H 0.790883 0.724798 0.368444
C77_3 C 0.76116(5) 0.66323(13) 0.39757(5)
C79_3 C 0.61985(6) 0.68042(14) 0.39217(5)
H50_3 H 0.622014 0.703765 0.373764
C80_3 C 0.74016(5) 0.81012(11) 0.34187(5)
C86_3 C 0.65266(5) 0.67025(12) 0.40899(5)
C93_3 C 0.77127(6) 0.85593(13) 0.34106(5)
H59_3 H 0.789834 0.855007 0.356326
C94_3 C 0.69207(5) 0.68948(13) 0.39810(5)
C95_3 C 0.85148(5) 0.54760(12) 0.40104(4)
H60_3 H 0.870485 0.528372 0.388219
C96_3 C 0.72342(5) 0.65024(12) 0.40860(5)
H61_3 H 0.719595 0.614463 0.423262
C97_3 C 0.97918(5) 0.79854(15) 0.29637(5)
H62_3 H 0.954227 0.792324 0.304674
C98_3 C 0.71218(6) 0.81085(13) 0.31883(5)
H63_3 H 0.690883 0.778226 0.318968
C99_3 C 0.94974(6) 0.90931(13) 0.23370(5)
H64_3 H 0.968710 0.890298 0.220801
C104_3 C 0.82192(6) 0.59112(12) 0.38976(5)
H68_3 H 0.821156 0.602305 0.369544
C107_3 C 0.88633(5) 0.49134(9) 0.44264(4)
O1_4 O 0.10841(3) 0.50412(6) 0.96910(3)
O2_4 O 0.03054(3) 0.51831(5) 0.96063(2)
O10_4 O 0.03292(3) 0.49284(6) 0.90059(3)
O19_4 O 0.09298(3) 0.54639(6) 0.92512(3)
O22_4 O 0.04849(3) 0.62564(6) 0.89268(2)
H4_4 H 0.054730 0.675850 0.893853
H5_4 H 0.046724 0.602546 0.874194
C4_4 C 0.00744(5) 0.44364(10) 0.90244(4)
C6_4 C 0.45599(5) 0.41512(8) 0.93618(3)
C10_4 C 0.14638(5) 0.46793(10) 0.93026(4)
C12_4 C 0.24592(5) 0.04511(9) 0.77023(4)
C14_4 C 0.41949(5) 0.37901(10) 0.92769(4)
C15_4 C 0.25097(5) 0.09265(10) 0.79606(4)
C23_4 C 0.10494(6) 0.03359(12) 0.77176(5)
H12_4 H 0.123887 0.015142 0.784810
C24_4 C 0.00340(5) 0.39219(10) 0.87742(4)
C28_4 C 0.38765(5) 0.38539(11) 0.94605(4)
H16_4 H 0.390321 0.408138 0.964538
C30_4 C 0.20681(5) 0.38170(12) 0.90876(5)
C31_4 C 0.10682(5) 0.01747(10) 0.74188(4)
C32_4 C 0.17374(5) 0.43791(11) 0.94951(4)
H18_4 H 0.171419 0.445486 0.969931
C33_4 C 0.20390(6) 0.39745(12) 0.93852(5)
H19_4 H 0.223204 0.379804 0.951452
C35_4 C 0.35148(5) 0.35810(12) 0.93720(5)
H20_4 H 0.330092 0.358885 0.950207
C41_4 C 0.41541(5) 0.34242(12) 0.90154(4)
H25_4 H 0.437616 0.333088 0.889925
C44_4 C 0.28303(5) 0.13984(12) 0.79643(5)
H28_4 H 0.301529 0.137730 0.781139
C49_4 C 0.26555(5) 0.24380(13) 0.86605(5)
C51_4 C 0.22432(5) 0.09628(12) 0.81794(5)
H31_4 H 0.202293 0.065440 0.817320
C56_4 C 0.08021(5) 0.04646(12) 0.72270(5)
H34_4 H 0.082042 0.036776 0.702404
C60_4 C 0.01537(5) 0.15057(14) 0.77375(6)
C61_4 C 0.02670(5) 0.33965(13) 0.83279(5)
H35_4 H 0.045865 0.336964 0.817987
C69_4 C 0.03133(6) 0.38921(12) 0.85563(5)
H42_4 H 0.053220 0.420383 0.856263
C70_4 C 0.04833(6) 0.10636(14) 0.76274(5)
C71_4 C 0.07542(6) 0.07626(14) 0.78181(5)
H43_4 H 0.073310 0.085572 0.802122
C74_4 C 0.30237(6) 0.25917(14) 0.87598(6)
H46_4 H 0.323998 0.234786 0.867756
C76_4 C 0.23413(6) 0.28404(13) 0.87624(5)
H48_4 H 0.209117 0.275202 0.868444
C77_4 C 0.23884(5) 0.33677(13) 0.89757(5)
C79_4 C 0.38015(6) 0.31958(14) 0.89217(5)
H50_4 H 0.377986 0.296235 0.873764
C80_4 C 0.25984(5) 0.18988(11) 0.84187(5)
C86_4 C 0.34734(5) 0.32975(12) 0.90899(5)
C93_4 C 0.22873(6) 0.14407(13) 0.84106(5)
H59_4 H 0.210166 0.144993 0.856326
C94_4 C 0.30793(5) 0.31052(13) 0.89810(5)
C95_4 C 0.14852(5) 0.45240(12) 0.90104(4)
H60_4 H 0.129515 0.471628 0.888219
C96_4 C 0.27658(5) 0.34976(12) 0.90860(5)
H61_4 H 0.280405 0.385537 0.923262
C97_4 C 0.02082(5) 0.20146(15) 0.79637(5)
H62_4 H 0.045773 0.207676 0.804674
C98_4 C 0.28782(6) 0.18915(13) 0.81883(5)
H63_4 H 0.309117 0.221774 0.818968
C99_4 C 0.05026(6) 0.09069(13) 0.73370(5)
H64_4 H 0.031290 0.109702 0.720801
C104_4 C 0.17808(6) 0.40888(12) 0.88976(5)
H68_4 H 0.178844 0.397695 0.869544
C107_4 C 0.11367(5) 0.50866(9) 0.94264(4)
C58_4 C 0.13946(5) 0.97521(9) 0.72986(5)
O3_4 O 0.79622(3) 0.17090(5) 0.22356(2)
O5_4 O 0.84773(3) 0.03524(5) 0.14799(3)
H1_4 H 0.856326 0.080810 0.140715
O12_4 O 0.81297(3) 0.13342(5) 0.17905(2)
O15_4 O 0.77395(3) 0.03822(6) 0.14913(2)
O17_4 O 0.77822(3) 0.02586(5) 0.21098(2)
O20_2 O 0.76785(3) 0.88044(6) 0.20400(3)
O25_2 O 0.81303(4) 0.92932(6) 0.17538(3)
O27_4 O 0.97958(3) 0.47108(6) 0.00334(3)
O30_4 O 0.79288(3) 0.14117(6) 0.27738(2)
H8_4 H 0.817646 0.143829 0.286293
H9_4 H 0.771837 0.167935 0.285268
C1_4 C 0.74307(5) 0.00087(7) 0.14740(4)
C5_4 C 0.81862(5) 0.25705(7) 0.18969(4)
C7_4 C 0.81560(6) 0.80387(8) 0.18461(4)
C9_4 C 0.79784(5) 0.87596(8) 0.18834(4)
C22_4 C 0.86272(6) 0.59661(8) 0.16175(4)
C26_4 C 0.79434(6) 0.74151(9) 0.18863(4)
H14_4 H 0.768849 0.744959 0.196247
C27_4 C 0.82660(6) 0.27159(9) 0.15978(4)
H15_4 H 0.822978 0.234757 0.145523
C29_4 C 0.98119(6) 0.56586(9) 0.07243(4)
C34_4 C 0.84373(6) 0.39460(8) 0.17151(4)
C36_4 C 0.85345(6) 0.79901(8) 0.17527(4)
H21_4 H 0.868570 0.841772 0.173036
C37_4 C 0.88895(6) 0.59487(8) 0.13938(4)
H22_4 H 0.898686 0.639337 0.131828
C38_4 C 0.84707(6) 0.66817(8) 0.17177(4)
C39_4 C 0.73366(6) 0.03558(9) 0.09414(4)
H23_4 H 0.755816 0.066120 0.094511
C40_4 C 0.83941(7) 0.33833(9) 0.15181(4)
H24_4 H 0.845650 0.346753 0.131922
C43_4 C 0.82132(6) 0.31314(8) 0.20930(4)
H27_4 H 0.813891 0.305492 0.229008
C45_4 C 0.80930(6) 0.67373(8) 0.18181(5)
H29_4 H 0.793832 0.631382 0.183977
C46_4 C 0.97169(6) 0.51707(9) 0.05087(4)
C47_4 C 0.92672(6) 0.52588(9) 0.10133(5)
C53_4 C 0.90182(7) 0.52888(8) 0.12731(5)
C59_4 C 0.86083(7) 0.46508(8) 0.16230(4)
C63_4 C 0.83470(6) 0.38052(8) 0.20075(4)
H37_4 H 0.837822 0.417848 0.214875
C64_4 C 0.99403(6) 0.51040(9) 0.02321(4)
C68_4 C 0.86945(6) 0.73102(9) 0.16911(5)
H41_4 H 0.895677 0.727503 0.163087
C75_4 C 0.93913(6) 0.47129(9) 0.05424(5)
H47_4 H 0.932095 0.438361 0.039191
C83_4 C 0.95747(7) 0.57053(9) 0.09721(4)
H51_4 H 0.963150 0.606169 0.111582
C84_4 C 0.61622(7) 0.04363(9) 0.00644(5)
C85_4 C 0.84937(6) 0.53128(8) 0.17337(5)
H52_4 H 0.831892 0.532416 0.189346
C87_4 C 0.88727(7) 0.46423(9) 0.13884(5)
H53_4 H 0.895265 0.419065 0.130798
C88_4 C 0.58453(7) 0.23787(9) 0.00805(4)
H54_4 H 0.582870 0.275492 0.022187
C89_4 C 0.71199(6) 0.02966(9) 0.06960(4)
H55_4 H 0.718070 0.059823 0.053417
C90_4 C 0.59717(7) 0.17000(10) 0.01628(5)
H56_4 H 0.603741 0.161141 0.036075
C91_4 C 0.64347(7) 0.04310(10) 0.02795(5)
H57_4 H 0.653811 0.088119 0.034458
C100_4 C 0.91791(7) 0.47480(10) 0.07927(5)
H65_4 H 0.896839 0.442338 0.081933
C108_4 C 0.80803(4) 0.18162(8) 0.19763(4)
O6_4 O 0.98438(3) 0.43354(6) 0.92351(2)
O31_4 O 0.94223(4) 0.40026(6) 0.96580(3)
H10_4 H 0.946971 0.363613 0.976129
C8_4 C 0.79761(5) 0.09003(9) 0.73324(4)
C11_4 C 0.83538(5) 0.12361(10) 0.74158(4)
C13_4 C 0.56409(4) 0.32734(8) 0.97075(4)
C18_4 C 0.57424(5) 0.25204(8) 0.97952(4)
C25_4 C 0.57620(6) 0.19554(8) 0.95907(4)
H13_4 H 0.568932 0.204058 0.939384
C52_4 C 0.99491(5) 0.29460(12) 0.83130(5)
C55_4 C 0.58877(6) 0.12727(9) 0.96759(4)
H33_4 H 0.589393 0.088861 0.953750
C57_4 C 0.90808(5) 0.16904(13) 0.76008(5)
C65_4 C 0.97852(6) 0.14335(14) 0.76194(6)
H38_4 H 0.974874 0.111685 0.745806
C66_4 C 0.86697(5) 0.11492(12) 0.72359(5)
H39_4 H 0.864359 0.092594 0.705012
C72_4 C 0.96716(5) 0.29914(13) 0.85322(5)
H44_4 H 0.945062 0.268520 0.852422
C78_4 C 0.97113(5) 0.34664(11) 0.87577(5)
H49_4 H 0.951838 0.348848 0.890490
C81_4 C 0.94742(5) 0.18026(14) 0.77276(5)
C82_4 C 0.60043(6) 0.11418(9) 0.99598(4)
C92_4 C 0.83886(5) 0.16057(12) 0.76681(5)
H58_4 H 0.816312 0.173560 0.777441
C101_4 C 0.87541(6) 0.18008(15) 0.77755(6)
H66_4 H 0.877951 0.200560 0.796474
C102_4 C 0.95368(6) 0.23342(14) 0.79440(5)
H67_4 H 0.932759 0.263134 0.800588
C103_4 C 0.98972(5) 0.24292(13) 0.80672(5)
C106_4 C 0.90268(6) 0.13953(14) 0.73324(5)
H70_4 H 0.924273 0.135578 0.720528
H72_4 H 0.920829 0.42855 0.974731
H2_4 H 0.857034 0.991411 0.139572
O8_4 O 0.72805(4) 0.96857(6) 0.16823(3)
O21_4 O 0.69143(4) 0.90125(7) 0.20604(3)
H3_4 H 0.695169 0.863640 0.216044
C2_4 C 0.72256(5) 0.99477(8) 0.11969(4)
C17_4 C 0.61457(6) 0.91154(8) 0.00799(4)
C20_4 C 0.65656(6) 0.97979(9) 0.04060(5)
C42_4 C 0.64123(6) 0.91452(9) 0.03071(5)
H26_4 H 0.649188 0.870497 0.039732
C48_4 C 0.69269(6) 0.94537(10) 0.11712(4)
H30_4 H 0.686026 0.915354 0.133210
C50_4 C 0.68179(6) 0.98219(9) 0.06716(4)
C62_4 C 0.61920(6) 0.77588(9) 0.00369(5)
H36_4 H 0.645625 0.778688 0.009264
H40_4 H 0.616749 0.665588 0.003210
C105_4 C 0.67243(6) 0.93939(10) 0.09122(5)
H69_4 H 0.651764 0.905527 0.089818
H71_4 H 0.66823 0.927184 0.213437
C3_4 C 0.54602(5) 0.63100(8) 0.98605(4)
C16_4 C 0.56429(5) 0.70360(8) 0.99016(4)
C19_4 C 0.59791(6) 0.84028(8) 0.99977(4)
C21_4 C 0.60185(6) 0.97727(9) 0.99584(5)
H11_4 H 0.583501 0.976929 0.980428
C54_4 C 0.54272(6) 0.76675(8) 0.98532(4)
H32_4 H 0.516608 0.763890 0.978984
C67_4 C 0.60229(6) 0.70856(9) 0.99958(4)
C73_4 C 0.56018(6) 0.83366(8) 0.98994(4)
H45_4 H 0.545715 0.876582 0.986217
O14_4 O 0.02554(3) 0.54324(5) 0.02106(2)
O29_4 O 0.09907(3) 0.52709(6) 0.02368(2)
H6_4 H 0.110048 0.572131 0.029541
H7_4 H 0.105790 0.483628 0.033659
H17_4 H 0.003411 0.595879 0.070596
loop_
_geom_bond_atom_site_label_1
_geom_bond_atom_site_label_2
_geom_bond_site_symmetry_1
_geom_bond_site_symmetry_2
Al1 O2 1_555 1_555
Al9 O5 1_555 1_555
Al3 O2 1_555 1_555
Al4 O3 1_555 1_555
Al5 O1 1_555 1_555
O1 C107 1_555 1_555
O2 Al5 1_555 1_555
O3 C108 1_555 1_555
O4 C6 1_555 1_555
O5 H1 1_555 1_555
O6 Al1 1_555 1_555
O9 C13 1_555 1_555
O10 Al3 1_555 1_555
O11 C13 1_555 1_555
O12 Al9 1_555 1_555
O13 C6 1_555 1_555
O14 Al5 1_555 1_555
O15 Al9 1_555 1_555
O16 C8 1_555 1_555
O17 Al9 1_555 1_555
O18 C12 1_555 1_555
O19 Al3 1_555 1_555
O20 C9 1_555 1_555
O22 Al3 1_555 1_555
H4 O22 1_555 1_555
H5 O22 1_555 1_555
O23 C8 1_555 1_555
O25 C9 1_555 1_555
O27 Al1 1_555 1_555
O29 Al5 1_555 1_555
H6 O29 1_555 1_555
H7 O29 1_555 1_555
O30 Al4 1_555 1_555
H8 O30 1_555 1_555
H9 O30 1_555 1_555
O31 Al1 1_555 1_555
H10 O31 1_555 1_555
C1 O15 1_555 1_555
C4 O6 1_555 1_555
C5 C27 1_555 1_555
C6 C14 1_555 1_555
C7 C9 1_555 1_555
C8 C11 1_555 1_555
C10 C32 1_555 1_555
C11 C66 1_555 1_555
C12 C15 1_555 1_555
C13 C18 1_555 1_555
C14 C28 1_555 1_555
C15 C44 1_555 1_555
C18 C25 1_555 1_555
C22 C37 1_555 1_555
C23 H12 1_555 1_555
C24 C4 1_555 1_555
C25 H13 1_555 1_555
C26 C7 1_555 1_555
H14 C26 1_555 1_555
C27 H15 1_555 1_555
C28 H16 1_555 1_555
C29 H17 1_555 1_555
C30 C33 1_555 1_555
C31 C23 1_555 1_555
C32 H18 1_555 1_555
C33 C32 1_555 1_555
H19 C33 1_555 1_555
C34 C40 1_555 1_555
C35 C28 1_555 1_555
H20 C35 1_555 1_555
C36 C7 1_555 1_555
H21 C36 1_555 1_555
C37 H22 1_555 1_555
C38 C22 1_555 1_555
H23 C39 1_555 1_555
C40 C27 1_555 1_555
H24 C40 1_555 1_555
C41 C14 1_555 1_555
H25 C41 1_555 1_555
C43 C5 1_555 1_555
H27 C43 1_555 1_555
C44 H28 1_555 1_555
C45 C26 1_555 1_555
H29 C45 1_555 1_555
C46 C29 1_555 1_555
C47 C53 1_555 1_555
C49 C74 1_555 1_555
C51 C15 1_555 1_555
H31 C51 1_555 1_555
C52 C61 1_555 1_555
C53 C37 1_555 1_555
C55 C25 1_555 1_555
H33 C55 1_555 1_555
C56 C31 1_555 1_555
H34 C56 1_555 1_555
C57 C81 1_555 1_555
C59 C34 1_555 1_555
C60 C65 1_555 1_555
C61 H35 1_555 1_555
C63 C34 1_555 1_555
H37 C63 1_555 1_555
C64 O14 1_555 1_555
C65 H38 1_555 1_555
C66 H39 1_555 1_555
C68 C36 1_555 1_555
H41 C68 1_555 1_555
C69 C24 1_555 1_555
H42 C69 1_555 1_555
C70 C60 1_555 1_555
C71 C23 1_555 1_555
H43 C71 1_555 1_555
C72 C52 1_555 1_555
H44 C72 1_555 1_555
C74 H46 1_555 1_555
C75 C46 1_555 1_555
H47 C75 1_555 1_555
C76 C49 1_555 1_555
H48 C76 1_555 1_555
C77 C30 1_555 1_555
C78 C24 1_555 1_555
H49 C78 1_555 1_555
C79 C41 1_555 1_555
H50 C79 1_555 1_555
C80 C49 1_555 1_555
C81 C65 1_555 1_555
C82 C55 1_555 1_555
C83 C29 1_555 1_555
H51 C83 1_555 1_555
C85 C22 1_555 1_555
H52 C85 1_555 1_555
C86 C35 1_555 1_555
C87 C53 1_555 1_555
H53 C87 1_555 1_555
C88 C18 1_555 1_555
H54 C88 1_555 1_555
C89 C39 1_555 1_555
H55 C89 1_555 1_555
C90 C82 1_555 1_555
H56 C90 1_555 1_555
H57 C91 1_555 1_555
C92 C11 1_555 1_555
H58 C92 1_555 1_555
C93 C51 1_555 1_555
H59 C93 1_555 1_555
C94 C74 1_555 1_555
C95 C10 1_555 1_555
H60 C95 1_555 1_555
C96 C77 1_555 1_555
H61 C96 1_555 1_555
C97 C60 1_555 1_555
H62 C97 1_555 1_555
C98 C44 1_555 1_555
H63 C98 1_555 1_555
C99 C56 1_555 1_555
H64 C99 1_555 1_555
C100 C47 1_555 1_555
H65 C100 1_555 1_555
C101 C57 1_555 1_555
H66 C101 1_555 1_555
C102 C81 1_555 1_555
H67 C102 1_555 1_555
C103 C52 1_555 1_555
C104 C30 1_555 1_555
H68 C104 1_555 1_555
C106 C57 1_555 1_555
H70 C106 1_555 1_555
C107 O19 1_555 1_555
C108 O12 1_555 1_555
Al8 O4 1_555 1_555
Al12 O11 1_555 1_555
Al14 O16 1_555 1_555
Al16 O9 1_555 1_555
Al17 O20 1_555 1_555
Al18 O18 1_555 1_555
O33 Al1 1_555 1_555
O34 Al1 1_555 1_555
O35 Al5 1_555 1_555
O36 Al3 1_555 1_555
O37 Al3 1_555 1_555
O38 Al4 1_555 1_555
O42 Al4 1_555 1_555
O44 Al4 1_555 1_555
O45 Al5 1_555 1_555
O46 Al9 1_555 1_555
Al4 O17 1_555 1_555
O10 C4 1_555 1_555
O27 C64 1_555 1_555
C5 C108 1_555 1_555
C10 C107 1_555 1_555
C38 C45 1_555 1_555
C38 C68 1_555 1_555
C43 C63 1_555 1_555
C46 C64 1_555 1_555
C47 C83 1_555 1_555
C59 C85 1_555 1_555
C59 C87 1_555 1_555
C61 C69 1_555 1_555
C66 C106 1_555 1_555
C70 C71 1_555 1_555
C70 C99 1_555 1_555
C72 C78 1_555 1_555
C75 C100 1_555 1_555
C76 C77 1_555 1_555
C79 C86 1_555 1_555
C80 C93 1_555 1_555
C80 C98 1_555 1_555
C82 C84 1_555 1_555
C84 C91 1_555 1_555
C86 C94 1_555 1_555
C88 C90 1_555 1_555
C92 C101 1_555 1_555
C94 C96 1_555 1_555
C95 C104 1_555 1_555
C97 C103 1_555 1_555
C102 C103 1_555 1_555
O31 H72 1_555 1_555
Al17 O8 1_555 1_555
O7 C3 1_555 1_555
O21 Al17 1_555 1_555
H3 O21 1_555 1_555
O26 C58 1_555 1_555
O28 C3 1_555 1_555
O32 C58 1_555 1_555
C3 C16 1_555 1_555
C16 C54 1_555 1_555
C17 C19 1_555 1_555
C19 C62 1_555 1_555
C20 C42 1_555 1_555
C21 C17 1_555 1_555
H11 C21 1_555 1_555
C42 C17 1_555 1_555
H26 C42 1_555 1_555
C48 C2 1_555 1_555
H30 C48 1_555 1_555
C50 C20 1_555 1_555
C54 H32 1_555 1_555
C62 H36 1_555 1_555
C67 C16 1_555 1_555
H40 C67 1_555 1_555
C73 C19 1_555 1_555
H45 C73 1_555 1_555
C105 C48 1_555 1_555
H69 C105 1_555 1_555
Al10 O32 1_555 1_555
Al13 O24 1_555 1_555
Al16 O28 1_555 1_555
O39 Al17 1_555 1_555
O26 Al13 1_555 1_555
C50 C105 1_555 1_555
C54 C73 1_555 1_555
C62 C67 1_555 1_555
O21 H71 1_555 1_555
Al18 O8_2 1_555 1_555
O21_2 Al18 1_555 1_555
H3_2 O21_2 1_555 1_555
C20_2 C42_2 1_555 1_555
C42_2 C17_2 1_555 1_555
H26_2 C42_2 1_555 1_555
C48_2 C2_2 1_555 1_555
H30_2 C48_2 1_555 1_555
C50_2 C20_2 1_555 1_555
C62_2 H36_2 1_555 1_555
C105_2 C48_2 1_555 1_555
H69_2 C105_2 1_555 1_555
O40 Al18 1_555 1_555
C50_2 C105_2 1_555 1_555
O21_2 H71_2 1_555 1_555
O7_2 C3_2 1_555 1_555
O44 C58_2 1_555 1_555
O28_2 C3_2 1_555 1_555
O46 C58_2 1_555 1_555
C3_2 C16_2 1_555 1_555
C16_2 C54_2 1_555 1_555
H11_2 C21_2 1_555 1_555
C54_2 H32_2 1_555 1_555
C67_2 C16_2 1_555 1_555
C73_2 C19_2 1_555 1_555
H45_2 C73_2 1_555 1_555
Al15 O28_2 1_555 1_555
C54_2 C73_2 1_555 1_555
Al10 O5_2 1_555 1_555
Al13 O3_2 1_555 1_555
O3_2 C108_2 1_555 1_555
O5_2 H1_2 1_555 1_555
O12_2 Al10 1_555 1_555
O15_2 Al10 1_555 1_555
O17_2 Al10 1_555 1_555
O40 C9_2 1_555 1_555
O43 C9_2 1_555 1_555
H6_2 O29_2 1_555 1_555
H7_2 O29_2 1_555 1_555
O30_2 Al13 1_555 1_555
H8_2 O30_2 1_555 1_555
H9_2 O30_2 1_555 1_555
C1_2 O15_2 1_555 1_555
C5_2 C27_2 1_555 1_555
C7_2 C9_2 1_555 1_555
C22_2 C37_2 1_555 1_555
C26_2 C7_2 1_555 1_555
H14_2 C26_2 1_555 1_555
C27_2 H15_2 1_555 1_555
C29_2 H17_2 1_555 1_555
C34_2 C40_2 1_555 1_555
C36_2 C7_2 1_555 1_555
H21_2 C36_2 1_555 1_555
C37_2 H22_2 1_555 1_555
C38_2 C22_2 1_555 1_555
H23_2 C39_2 1_555 1_555
C40_2 C27_2 1_555 1_555
H24_2 C40_2 1_555 1_555
C43_2 C5_2 1_555 1_555
H27_2 C43_2 1_555 1_555
C45_2 C26_2 1_555 1_555
H29_2 C45_2 1_555 1_555
C46_2 C29_2 1_555 1_555
C47_2 C53_2 1_555 1_555
C53_2 C37_2 1_555 1_555
C59_2 C34_2 1_555 1_555
C63_2 C34_2 1_555 1_555
H37_2 C63_2 1_555 1_555
C64_2 O14_2 1_555 1_555
C68_2 C36_2 1_555 1_555
H41_2 C68_2 1_555 1_555
C75_2 C46_2 1_555 1_555
H47_2 C75_2 1_555 1_555
C83_2 C29_2 1_555 1_555
H51_2 C83_2 1_555 1_555
C85_2 C22_2 1_555 1_555
H52_2 C85_2 1_555 1_555
C87_2 C53_2 1_555 1_555
H53_2 C87_2 1_555 1_555
H54_2 C88_2 1_555 1_555
C89_2 C39_2 1_555 1_555
H55_2 C89_2 1_555 1_555
H56_2 C90_2 1_555 1_555
H57_2 C91_2 1_555 1_555
C100_2 C47_2 1_555 1_555
H65_2 C100_2 1_555 1_555
C108_2 O12_2 1_555 1_555
O38_2 Al13 1_555 1_555
Al13 O17_2 1_555 1_555
O27_2 C64_2 1_555 1_555
C5_2 C108_2 1_555 1_555
C38_2 C45_2 1_555 1_555
C38_2 C68_2 1_555 1_555
C43_2 C63_2 1_555 1_555
C46_2 C64_2 1_555 1_555
C47_2 C83_2 1_555 1_555
C59_2 C85_2 1_555 1_555
C59_2 C87_2 1_555 1_555
C75_2 C100_2 1_555 1_555
C84_2 C91_2 1_555 1_555
C88_2 C90_2 1_555 1_555
Al1_2 O2_2 1_555 1_555
Al3_2 O2_2 1_555 1_555
Al5_2 O1_2 1_555 1_555
O1_2 C107_2 1_555 1_555
O2_2 Al5_2 1_555 1_555
O4_2 C6_2 1_555 1_555
O6_2 Al1_2 1_555 1_555
O9_2 C13_2 1_555 1_555
O10_2 Al3_2 1_555 1_555
O11_2 C13_2 1_555 1_555
O13_2 C6_2 1_555 1_555
O16_2 C8_2 1_555 1_555
O39 C12_2 1_555 1_555
O19_2 Al3_2 1_555 1_555
O22_2 Al3_2 1_555 1_555
H4_2 O22_2 1_555 1_555
H5_2 O22_2 1_555 1_555
O23_2 C8_2 1_555 1_555
O31_2 Al1_2 1_555 1_555
H10_2 O31_2 1_555 1_555
C4_2 O6_2 1_555 1_555
C6_2 C14_2 1_555 1_555
C8_2 C11_2 1_555 1_555
C10_2 C32_2 1_555 1_555
C11_2 C66_2 1_555 1_555
C12_2 C15_2 1_555 1_555
C13_2 C18_2 1_555 1_555
C14_2 C28_2 1_555 1_555
C15_2 C44_2 1_555 1_555
C18_2 C25_2 1_555 1_555
C23_2 H12_2 1_555 1_555
C24_2 C4_2 1_555 1_555
C25_2 H13_2 1_555 1_555
C28_2 H16_2 1_555 1_555
C30_2 C33_2 1_555 1_555
C31_2 C23_2 1_555 1_555
C32_2 H18_2 1_555 1_555
C33_2 C32_2 1_555 1_555
H19_2 C33_2 1_555 1_555
C35_2 C28_2 1_555 1_555
H20_2 C35_2 1_555 1_555
C41_2 C14_2 1_555 1_555
H25_2 C41_2 1_555 1_555
C44_2 H28_2 1_555 1_555
C49_2 C74_2 1_555 1_555
C51_2 C15_2 1_555 1_555
H31_2 C51_2 1_555 1_555
C52_2 C61_2 1_555 1_555
C55_2 C25_2 1_555 1_555
H33_2 C55_2 1_555 1_555
C56_2 C31_2 1_555 1_555
H34_2 C56_2 1_555 1_555
C57_2 C81_2 1_555 1_555
C60_2 C65_2 1_555 1_555
C61_2 H35_2 1_555 1_555
C65_2 H38_2 1_555 1_555
C66_2 H39_2 1_555 1_555
C69_2 C24_2 1_555 1_555
H42_2 C69_2 1_555 1_555
C70_2 C60_2 1_555 1_555
C71_2 C23_2 1_555 1_555
H43_2 C71_2 1_555 1_555
C72_2 C52_2 1_555 1_555
H44_2 C72_2 1_555 1_555
C74_2 H46_2 1_555 1_555
C76_2 C49_2 1_555 1_555
H48_2 C76_2 1_555 1_555
C77_2 C30_2 1_555 1_555
C78_2 C24_2 1_555 1_555
H49_2 C78_2 1_555 1_555
C79_2 C41_2 1_555 1_555
H50_2 C79_2 1_555 1_555
C80_2 C49_2 1_555 1_555
C81_2 C65_2 1_555 1_555
C82_2 C55_2 1_555 1_555
C86_2 C35_2 1_555 1_555
C92_2 C11_2 1_555 1_555
H58_2 C92_2 1_555 1_555
C93_2 C51_2 1_555 1_555
H59_2 C93_2 1_555 1_555
C94_2 C74_2 1_555 1_555
C95_2 C10_2 1_555 1_555
H60_2 C95_2 1_555 1_555
C96_2 C77_2 1_555 1_555
H61_2 C96_2 1_555 1_555
C97_2 C60_2 1_555 1_555
H62_2 C97_2 1_555 1_555
C98_2 C44_2 1_555 1_555
H63_2 C98_2 1_555 1_555
C99_2 C56_2 1_555 1_555
H64_2 C99_2 1_555 1_555
C101_2 C57_2 1_555 1_555
H66_2 C101_2 1_555 1_555
C102_2 C81_2 1_555 1_555
H67_2 C102_2 1_555 1_555
C103_2 C52_2 1_555 1_555
C104_2 C30_2 1_555 1_555
H68_2 C104_2 1_555 1_555
C106_2 C57_2 1_555 1_555
H70_2 C106_2 1_555 1_555
C107_2 O19_2 1_555 1_555
Al7 O4_2 1_555 1_555
Al11 O11_2 1_555 1_555
Al14_2 O16_2 1_555 1_555
Al15 O9_2 1_555 1_555
O33_2 Al1_2 1_555 1_555
O34_2 Al1_2 1_555 1_555
O35_2 Al5_2 1_555 1_555
O36_2 Al3_2 1_555 1_555
O37_2 Al3_2 1_555 1_555
O45_2 Al5_2 1_555 1_555
O10_2 C4_2 1_555 1_555
C10_2 C107_2 1_555 1_555
C61_2 C69_2 1_555 1_555
C66_2 C106_2 1_555 1_555
C70_2 C71_2 1_555 1_555
C70_2 C99_2 1_555 1_555
C72_2 C78_2 1_555 1_555
C76_2 C77_2 1_555 1_555
C79_2 C86_2 1_555 1_555
C80_2 C93_2 1_555 1_555
C80_2 C98_2 1_555 1_555
C86_2 C94_2 1_555 1_555
C92_2 C101_2 1_555 1_555
C94_2 C96_2 1_555 1_555
C95_2 C104_2 1_555 1_555
C97_2 C103_2 1_555 1_555
C102_2 C103_2 1_555 1_555
O31_2 H72_2 1_555 1_555
Al19_2 O8_3 1_555 1_555
O34 C3_3 1_555 1_555
O21_3 Al19_2 1_555 1_555
H3_3 O21_3 1_555 1_555
O45 C3_3 1_555 1_555
C3_3 C16_3 1_555 1_555
C16_3 C54_3 1_555 1_555
C17_3 C19_3 1_555 1_555
C19_3 C62_3 1_555 1_555
C20_3 C42_3 1_555 1_555
C21_3 C17_3 1_555 1_555
H11_3 C21_3 1_555 1_555
C42_3 C17_3 1_555 1_555
H26_3 C42_3 1_555 1_555
C48_3 C2_3 1_555 1_555
H30_3 C48_3 1_555 1_555
C50_3 C20_3 1_555 1_555
C54_3 H32_3 1_555 1_555
C62_3 H36_3 1_555 1_555
C67_3 C16_3 1_555 1_555
H40_3 C67_3 1_555 1_555
C73_3 C19_3 1_555 1_555
H45_3 C73_3 1_555 1_555
C105_3 C48_3 1_555 1_555
H69_3 C105_3 1_555 1_555
O39_2 Al19_2 1_555 1_555
O40_2 Al19_2 1_555 1_555
C50_3 C105_3 1_555 1_555
C54_3 C73_3 1_555 1_555
C62_3 C67_3 1_555 1_555
O21_3 H71_3 1_555 1_555
Al2 O5_3 1_555 1_555
Al14_2 O3_3 1_555 1_555
O3_3 C108_3 1_555 1_555
O5_3 H1_3 1_555 1_555
O6_3 Al8 1_555 1_555
O35 C13_3 1_555 1_555
O36 C13_3 1_555 1_555
O12_3 Al2 1_555 1_555
O15_3 Al2 1_555 1_555
O38_2 C8_3 1_555 1_555
O17_3 Al2 1_555 1_555
O40_2 C9_3 1_555 1_555
O41_2 C8_3 1_555 1_555
O43_2 C9_3 1_555 1_555
O27_3 Al8 1_555 1_555
O30_3 Al14_2 1_555 1_555
H8_3 O30_3 1_555 1_555
H9_3 O30_3 1_555 1_555
O31_3 Al8 1_555 1_555
H10_3 O31_3 1_555 1_555
C1_3 O15_3 1_555 1_555
C5_3 C27_3 1_555 1_555
C7_3 C9_3 1_555 1_555
C8_3 C11_3 1_555 1_555
C11_3 C66_3 1_555 1_555
C13_3 C18_3 1_555 1_555
C18_3 C25_3 1_555 1_555
C22_3 C37_3 1_555 1_555
C25_3 H13_3 1_555 1_555
C26_3 C7_3 1_555 1_555
H14_3 C26_3 1_555 1_555
C27_3 H15_3 1_555 1_555
C34_3 C40_3 1_555 1_555
C36_3 C7_3 1_555 1_555
H21_3 C36_3 1_555 1_555
C37_3 H22_3 1_555 1_555
C38_3 C22_3 1_555 1_555
H23_3 C39_3 1_555 1_555
C40_3 C27_3 1_555 1_555
H24_3 C40_3 1_555 1_555
C43_3 C5_3 1_555 1_555
H27_3 C43_3 1_555 1_555
C45_3 C26_3 1_555 1_555
H29_3 C45_3 1_555 1_555
C46_3 C29_3 1_555 1_555
C47_3 C53_3 1_555 1_555
C53_3 C37_3 1_555 1_555
C55_3 C25_3 1_555 1_555
H33_3 C55_3 1_555 1_555
C57_3 C81_3 1_555 1_555
C59_3 C34_3 1_555 1_555
C63_3 C34_3 1_555 1_555
H37_3 C63_3 1_555 1_555
C65_3 H38_3 1_555 1_555
C66_3 H39_3 1_555 1_555
C68_3 C36_3 1_555 1_555
H41_3 C68_3 1_555 1_555
C72_3 C52_3 1_555 1_555
H44_3 C72_3 1_555 1_555
C75_3 C46_3 1_555 1_555
H47_3 C75_3 1_555 1_555
H49_3 C78_3 1_555 1_555
C81_3 C65_3 1_555 1_555
C82_3 C55_3 1_555 1_555
C83_3 C29_3 1_555 1_555
H51_3 C83_3 1_555 1_555
C85_3 C22_3 1_555 1_555
H52_3 C85_3 1_555 1_555
C87_3 C53_3 1_555 1_555
H53_3 C87_3 1_555 1_555
C88_3 C18_3 1_555 1_555
H54_3 C88_3 1_555 1_555
C89_3 C39_3 1_555 1_555
H55_3 C89_3 1_555 1_555
C90_3 C82_3 1_555 1_555
H56_3 C90_3 1_555 1_555
H57_3 C91_3 1_555 1_555
C92_3 C11_3 1_555 1_555
H58_3 C92_3 1_555 1_555
C100_3 C47_3 1_555 1_555
H65_3 C100_3 1_555 1_555
C101_3 C57_3 1_555 1_555
H66_3 C101_3 1_555 1_555
C102_3 C81_3 1_555 1_555
H67_3 C102_3 1_555 1_555
C103_3 C52_3 1_555 1_555
C106_3 C57_3 1_555 1_555
H70_3 C106_3 1_555 1_555
C108_3 O12_3 1_555 1_555
O42_2 Al14_2 1_555 1_555
O44_2 Al14_2 1_555 1_555
O46_2 Al2 1_555 1_555
Al14_2 O17_3 1_555 1_555
O27_3 C64_3 1_555 1_555
C5_3 C108_3 1_555 1_555
C38_3 C45_3 1_555 1_555
C38_3 C68_3 1_555 1_555
C43_3 C63_3 1_555 1_555
C46_3 C64_3 1_555 1_555
C47_3 C83_3 1_555 1_555
C59_3 C85_3 1_555 1_555
C59_3 C87_3 1_555 1_555
C66_3 C106_3 1_555 1_555
C72_3 C78_3 1_555 1_555
C75_3 C100_3 1_555 1_555
C82_3 C84_3 1_555 1_555
C84_3 C91_3 1_555 1_555
C88_3 C90_3 1_555 1_555
C92_3 C101_3 1_555 1_555
C102_3 C103_3 1_555 1_555
O31_3 H72_3 1_555 1_555
O26_2 C58_3 1_555 1_555
O32_2 C58_3 1_555 1_555
Al10_2 O32_2 1_555 1_555
Al14 O24_2 1_555 1_555
O26_2 Al14 1_555 1_555
Al12 O2_3 1_555 1_555
Al16 O1_3 1_555 1_555
O1_3 C107_3 1_555 1_555
O2_3 Al16 1_555 1_555
O33 C6_3 1_555 1_555
O10_3 Al12 1_555 1_555
O37 C6_3 1_555 1_555
O14_3 Al16 1_555 1_555
O18_2 C12_3 1_555 1_555
O19_3 Al12 1_555 1_555
O22_3 Al12 1_555 1_555
H4_3 O22_3 1_555 1_555
H5_3 O22_3 1_555 1_555
O29_3 Al16 1_555 1_555
H6_3 O29_3 1_555 1_555
H7_3 O29_3 1_555 1_555
C6_3 C14_3 1_555 1_555
C10_3 C32_3 1_555 1_555
C12_3 C15_3 1_555 1_555
C14_3 C28_3 1_555 1_555
C15_3 C44_3 1_555 1_555
C23_3 H12_3 1_555 1_555
C24_3 C4_3 1_555 1_555
C28_3 H16_3 1_555 1_555
C30_3 C33_3 1_555 1_555
C31_3 C23_3 1_555 1_555
C32_3 H18_3 1_555 1_555
C33_3 C32_3 1_555 1_555
H19_3 C33_3 1_555 1_555
C35_3 C28_3 1_555 1_555
H20_3 C35_3 1_555 1_555
C41_3 C14_3 1_555 1_555
H25_3 C41_3 1_555 1_555
C44_3 H28_3 1_555 1_555
C49_3 C74_3 1_555 1_555
C51_3 C15_3 1_555 1_555
H31_3 C51_3 1_555 1_555
C56_3 C31_3 1_555 1_555
H34_3 C56_3 1_555 1_555
C61_3 H35_3 1_555 1_555
C69_3 C24_3 1_555 1_555
H42_3 C69_3 1_555 1_555
C70_3 C60_3 1_555 1_555
C71_3 C23_3 1_555 1_555
H43_3 C71_3 1_555 1_555
C74_3 H46_3 1_555 1_555
C76_3 C49_3 1_555 1_555
H48_3 C76_3 1_555 1_555
C77_3 C30_3 1_555 1_555
C79_3 C41_3 1_555 1_555
H50_3 C79_3 1_555 1_555
C80_3 C49_3 1_555 1_555
C86_3 C35_3 1_555 1_555
C93_3 C51_3 1_555 1_555
H59_3 C93_3 1_555 1_555
C94_3 C74_3 1_555 1_555
C95_3 C10_3 1_555 1_555
H60_3 C95_3 1_555 1_555
C96_3 C77_3 1_555 1_555
H61_3 C96_3 1_555 1_555
C97_3 C60_3 1_555 1_555
H62_3 C97_3 1_555 1_555
C98_3 C44_3 1_555 1_555
H63_3 C98_3 1_555 1_555
C99_3 C56_3 1_555 1_555
H64_3 C99_3 1_555 1_555
C104_3 C30_3 1_555 1_555
H68_3 C104_3 1_555 1_555
C107_3 O19_3 1_555 1_555
Al19 O18_2 1_555 1_555
O10_3 C4_3 1_555 1_555
C10_3 C107_3 1_555 1_555
C61_3 C69_3 1_555 1_555
C70_3 C71_3 1_555 1_555
C70_3 C99_3 1_555 1_555
C76_3 C77_3 1_555 1_555
C79_3 C86_3 1_555 1_555
C80_3 C93_3 1_555 1_555
C80_3 C98_3 1_555 1_555
C86_3 C94_3 1_555 1_555
C94_3 C96_3 1_555 1_555
C95_3 C104_3 1_555 1_555
Al11 O2_4 1_555 1_555
Al15 O1_4 1_555 1_555
O1_4 C107_4 1_555 1_555
O2_4 Al15 1_555 1_555
O33_2 C6_4 1_555 1_555
O10_4 Al11 1_555 1_555
O37_2 C6_4 1_555 1_555
O39_2 C12_4 1_555 1_555
O19_4 Al11 1_555 1_555
O22_4 Al11 1_555 1_555
H4_4 O22_4 1_555 1_555
H5_4 O22_4 1_555 1_555
C6_4 C14_4 1_555 1_555
C10_4 C32_4 1_555 1_555
C12_4 C15_4 1_555 1_555
C14_4 C28_4 1_555 1_555
C15_4 C44_4 1_555 1_555
C23_4 H12_4 1_555 1_555
C24_4 C4_4 1_555 1_555
C28_4 H16_4 1_555 1_555
C30_4 C33_4 1_555 1_555
C31_4 C23_4 1_555 1_555
C32_4 H18_4 1_555 1_555
C33_4 C32_4 1_555 1_555
H19_4 C33_4 1_555 1_555
C35_4 C28_4 1_555 1_555
H20_4 C35_4 1_555 1_555
C41_4 C14_4 1_555 1_555
H25_4 C41_4 1_555 1_555
C44_4 H28_4 1_555 1_555
C49_4 C74_4 1_555 1_555
C51_4 C15_4 1_555 1_555
H31_4 C51_4 1_555 1_555
C56_4 C31_4 1_555 1_555
H34_4 C56_4 1_555 1_555
C61_4 H35_4 1_555 1_555
C69_4 C24_4 1_555 1_555
H42_4 C69_4 1_555 1_555
C70_4 C60_4 1_555 1_555
C71_4 C23_4 1_555 1_555
H43_4 C71_4 1_555 1_555
C74_4 H46_4 1_555 1_555
C76_4 C49_4 1_555 1_555
H48_4 C76_4 1_555 1_555
C77_4 C30_4 1_555 1_555
C79_4 C41_4 1_555 1_555
H50_4 C79_4 1_555 1_555
C80_4 C49_4 1_555 1_555
C86_4 C35_4 1_555 1_555
C93_4 C51_4 1_555 1_555
H59_4 C93_4 1_555 1_555
C94_4 C74_4 1_555 1_555
C95_4 C10_4 1_555 1_555
H60_4 C95_4 1_555 1_555
C96_4 C77_4 1_555 1_555
H61_4 C96_4 1_555 1_555
C97_4 C60_4 1_555 1_555
H62_4 C97_4 1_555 1_555
C98_4 C44_4 1_555 1_555
H63_4 C98_4 1_555 1_555
C99_4 C56_4 1_555 1_555
H64_4 C99_4 1_555 1_555
C104_4 C30_4 1_555 1_555
H68_4 C104_4 1_555 1_555
C107_4 O19_4 1_555 1_555
O10_4 C4_4 1_555 1_555
C10_4 C107_4 1_555 1_555
C61_4 C69_4 1_555 1_555
C70_4 C71_4 1_555 1_555
C70_4 C99_4 1_555 1_555
C76_4 C77_4 1_555 1_555
C79_4 C86_4 1_555 1_555
C80_4 C93_4 1_555 1_555
C80_4 C98_4 1_555 1_555
C86_4 C94_4 1_555 1_555
C94_4 C96_4 1_555 1_555
C95_4 C104_4 1_555 1_555
O44_2 C58_4 1_555 1_555
O46_2 C58_4 1_555 1_555
Al10_2 O5_4 1_555 1_555
Al14 O3_4 1_555 1_555
O3_4 C108_4 1_555 1_555
O5_4 H1_4 1_555 1_555
O12_4 Al10_2 1_555 1_555
O15_4 Al10_2 1_555 1_555
O17_4 Al10_2 1_555 1_555
O20_2 C9_4 1_555 1_555
O25_2 C9_4 1_555 1_555
O30_4 Al14 1_555 1_555
H8_4 O30_4 1_555 1_555
H9_4 O30_4 1_555 1_555
C1_4 O15_4 1_555 1_555
C5_4 C27_4 1_555 1_555
C7_4 C9_4 1_555 1_555
C22_4 C37_4 1_555 1_555
C26_4 C7_4 1_555 1_555
H14_4 C26_4 1_555 1_555
C27_4 H15_4 1_555 1_555
C34_4 C40_4 1_555 1_555
C36_4 C7_4 1_555 1_555
H21_4 C36_4 1_555 1_555
C37_4 H22_4 1_555 1_555
C38_4 C22_4 1_555 1_555
H23_4 C39_4 1_555 1_555
C40_4 C27_4 1_555 1_555
H24_4 C40_4 1_555 1_555
C43_4 C5_4 1_555 1_555
H27_4 C43_4 1_555 1_555
C45_4 C26_4 1_555 1_555
H29_4 C45_4 1_555 1_555
C46_4 C29_4 1_555 1_555
C47_4 C53_4 1_555 1_555
C53_4 C37_4 1_555 1_555
C59_4 C34_4 1_555 1_555
C63_4 C34_4 1_555 1_555
H37_4 C63_4 1_555 1_555
C68_4 C36_4 1_555 1_555
H41_4 C68_4 1_555 1_555
C75_4 C46_4 1_555 1_555
H47_4 C75_4 1_555 1_555
C83_4 C29_4 1_555 1_555
H51_4 C83_4 1_555 1_555
C85_4 C22_4 1_555 1_555
H52_4 C85_4 1_555 1_555
C87_4 C53_4 1_555 1_555
H53_4 C87_4 1_555 1_555
H54_4 C88_4 1_555 1_555
C89_4 C39_4 1_555 1_555
H55_4 C89_4 1_555 1_555
H56_4 C90_4 1_555 1_555
H57_4 C91_4 1_555 1_555
C100_4 C47_4 1_555 1_555
H65_4 C100_4 1_555 1_555
C108_4 O12_4 1_555 1_555
Al19 O20_2 1_555 1_555
Al14 O17_4 1_555 1_555
O27_4 C64_4 1_555 1_555
C5_4 C108_4 1_555 1_555
C38_4 C45_4 1_555 1_555
C38_4 C68_4 1_555 1_555
C43_4 C63_4 1_555 1_555
C46_4 C64_4 1_555 1_555
C47_4 C83_4 1_555 1_555
C59_4 C85_4 1_555 1_555
C59_4 C87_4 1_555 1_555
C75_4 C100_4 1_555 1_555
C84_4 C91_4 1_555 1_555
C88_4 C90_4 1_555 1_555
O6_4 Al7 1_555 1_555
O35_2 C13_4 1_555 1_555
O36_2 C13_4 1_555 1_555
O38 C8_4 1_555 1_555
O41 C8_4 1_555 1_555
O31_4 Al7 1_555 1_555
H10_4 O31_4 1_555 1_555
C8_4 C11_4 1_555 1_555
C11_4 C66_4 1_555 1_555
C13_4 C18_4 1_555 1_555
C18_4 C25_4 1_555 1_555
C25_4 H13_4 1_555 1_555
C55_4 C25_4 1_555 1_555
H33_4 C55_4 1_555 1_555
C57_4 C81_4 1_555 1_555
C65_4 H38_4 1_555 1_555
C66_4 H39_4 1_555 1_555
C72_4 C52_4 1_555 1_555
H44_4 C72_4 1_555 1_555
H49_4 C78_4 1_555 1_555
C81_4 C65_4 1_555 1_555
C82_4 C55_4 1_555 1_555
C92_4 C11_4 1_555 1_555
H58_4 C92_4 1_555 1_555
C101_4 C57_4 1_555 1_555
H66_4 C101_4 1_555 1_555
C102_4 C81_4 1_555 1_555
H67_4 C102_4 1_555 1_555
C103_4 C52_4 1_555 1_555
C106_4 C57_4 1_555 1_555
H70_4 C106_4 1_555 1_555
C66_4 C106_4 1_555 1_555
C72_4 C78_4 1_555 1_555
C92_4 C101_4 1_555 1_555
C102_4 C103_4 1_555 1_555
O31_4 H72_4 1_555 1_555
Al19 O8_4 1_555 1_555
O21_4 Al19 1_555 1_555
H3_4 O21_4 1_555 1_555
C20_4 C42_4 1_555 1_555
C42_4 C17_4 1_555 1_555
H26_4 C42_4 1_555 1_555
C48_4 C2_4 1_555 1_555
H30_4 C48_4 1_555 1_555
C50_4 C20_4 1_555 1_555
C62_4 H36_4 1_555 1_555
C105_4 C48_4 1_555 1_555
H69_4 C105_4 1_555 1_555
C50_4 C105_4 1_555 1_555
O21_4 H71_4 1_555 1_555
O34_2 C3_4 1_555 1_555
O45_2 C3_4 1_555 1_555
C3_4 C16_4 1_555 1_555
C16_4 C54_4 1_555 1_555
H11_4 C21_4 1_555 1_555
C54_4 H32_4 1_555 1_555
C67_4 C16_4 1_555 1_555
C73_4 C19_4 1_555 1_555
H45_4 C73_4 1_555 1_555
C54_4 C73_4 1_555 1_555
H6_4 O29_4 1_555 1_555
H7_4 O29_4 1_555 1_555

#END
