
###############################################################################
#
# This file contains modified crystal structure data generated from the
# MOF subset of the Cambridge Structural Database (CSD) v543 
# hosted by the Cambridge Crystallographic Data Centre (CCDC).
#
# This work is licensed under the Creative Commons
# Attribution-NonCommercial-ShareAlike 4.0 International License.
# To view a copy of this license, visit
# http://creativecommons.org/licenses/by-nc-sa/4.0/
# or send a letter to
# Creative Commons, PO Box 1866, Mountain View, CA 94042, USA.
#
# CIF created using the CSD Python API on 29 September 2022
# The structure has been converted into the P1 space group
# The structure has a 3D framework
# The original CSD entry JAHXUM is in the monoclinic crystal system
# The framework has been calculated to contain at least 10.0% void space
# The void calculation uses a probe of radius 1.32A, grid spacing 0.4
# H atom positions have been added when not included in the experimental data
# Generated hydrogen atom positions removed from atoms on special positions
#
###############################################################################

data_JAHXUM
_chemical_formula_moiety         '(C228 H148 Gd16 O116)n'
_symmetry_cell_setting           triclinic
_symmetry_space_group_name_H-M   'P 1'
_symmetry_Int_Tables_number      1
_space_group_name_Hall           'P 1'
loop_
_symmetry_equiv_pos_site_id
_symmetry_equiv_pos_as_xyz
1 x,y,z
_cell_length_a                   26.359(2)
_cell_length_b                   14.3982(8)
_cell_length_c                   25.3106(19)
_cell_angle_alpha                90
_cell_angle_beta                 113.016(2)
_cell_angle_gamma                90
_cell_volume                     8841.26
loop_
_atom_site_label
_atom_site_type_symbol
_atom_site_fract_x
_atom_site_fract_y
_atom_site_fract_z
C4 C 0.0794(3) 0.0266(4) 0.2597(3)
H2 H 0.0474 0.0288 0.2667
C5 C 0.0964(2) 0.1048(4) 0.2395(3)
H3 H 0.0763 0.1597 0.2339
C6 C 0.1436(2) 0.1014(4) 0.2276(2)
C7 C 0.1735(2) 0.0194(4) 0.2380(2)
H4 H 0.2050 0.0166 0.2301
C8 C 0.1643(2) 0.1849(4) 0.2059(2)
O3 O 0.19650(15) 0.1706(3) 0.18110(17)
O4 O 0.14786(16) 0.2639(3) 0.21401(18)
O23 O 0.23605(17) 0.0207(3) 0.11843(18)
C52 C 0.4446(3) 0.0152(5) 0.5662(3)
H26 H 0.4707 0.0602 0.5851
H27 H 0.4527 0.0242 0.4903
O31 O 0.31478(19) 0.0421(3) 0.35301(19)
O32 O 0.36966(15) 0.0660(3) 0.26548(17)
Gd5 Gd 0.286569(11) 0.137151(19) 0.189876(12)
Gd6 Gd 0.165580(11) 0.416870(19) 0.198650(12)
Gd1 Gd 0.213431(11) 0.637151(19) 0.310124(12)
Gd2 Gd 0.334420(11) 0.916870(19) 0.301350(12)
C1 C 0.1946(2) 0.8574(4) 0.2753(2)
C2 C 0.1579(2) 0.9420(4) 0.2598(3)
C3 C 0.1095(3) 0.9452(4) 0.2694(3)
H1 H 0.0974 0.8926 0.2825
C9 C 0.2500(2) 0.4489(4) 0.3520(3)
C10 C 0.2727(2) 0.3574(4) 0.3786(2)
C11 C 0.2958(3) 0.3489(4) 0.4380(3)
H5 H 0.2949 0.3985 0.4612
C12 C 0.3202(3) 0.2658(5) 0.4624(3)
H6 H 0.3357 0.2600 0.5022
C13 C 0.3217(3) 0.1915(4) 0.4287(3)
H7 H 0.3384 0.1362 0.4458
C14 C 0.2987(2) 0.1993(4) 0.3698(2)
C15 C 0.2743(2) 0.2822(4) 0.3451(2)
H8 H 0.2587 0.2875 0.3053
C16 C 0.2991(2) 0.1201(4) 0.3313(3)
C17 C 0.1527(3) 0.6519(5) 0.4029(3)
C18 C 0.1211(2) 0.6004(4) 0.4323(3)
C19 C 0.0845(3) 0.5297(5) 0.4053(3)
H9 H 0.0792 0.5120 0.3682
C20 C 0.0554(3) 0.4848(5) 0.4338(3)
H10 H 0.0293 0.4398 0.4149
C21 C 0.0656(3) 0.5072(5) 0.4903(3)
H11 H 0.0473 0.4758 0.5097
C22 C 0.1030(2) 0.5762(4) 0.5178(3)
C23 C 0.1297(2) 0.6239(4) 0.4883(2)
H12 H 0.1537 0.6721 0.5064
C24 C 0.1171(2) 0.5971(4) 0.5802(2)
C25 C 0.0889(2) 0.5199(4) 0.2351(2)
C26 C 0.0436(2) 0.5717(4) 0.2443(2)
C27 C 0.0435(2) 0.6682(4) 0.2452(3)
H13 H 0.0727 0.7011 0.2424
C28 C 0.0000 0.7152(6) 0.2500
H14 H 0.0000 0.7797 0.2500
C29 C 0.0000 0.5234(5) 0.2500
H15 H 0.0000 0.4588 0.2500
O1 O 0.17303(16) 0.7815(3) 0.27929(19)
O2 O 0.24420(15) 0.8682(3) 0.28299(17)
O5 O 0.21750(16) 0.4532(3) 0.29911(17)
O6 O 0.26395(17) 0.5207(3) 0.38157(18)
O8 O 0.28215(16) 0.1367(3) 0.27893(17)
O9 O 0.15487(16) 0.6166(3) 0.35826(18)
O10 O 0.1749(2) 0.7264(3) 0.4248(2)
O11 O 0.16036(16) 0.6438(3) 0.60732(16)
O12 O 0.08799(16) 0.5659(3) 0.60532(17)
O13 O 0.13034(15) 0.5660(3) 0.23452(17)
O14 O 0.08526(16) 0.4341(3) 0.22617(18)
O15 O 0.25883(17) 0.7295(3) 0.39486(17)
C33 C 0.3054(2) 0.3574(4) 0.2247(2)
C34 C 0.3421(2) 0.4420(4) 0.2402(3)
C35 C 0.3905(3) 0.4452(4) 0.2306(3)
H17 H 0.4026 0.3926 0.2175
C36 C 0.4206(3) 0.5266(4) 0.2403(3)
H18 H 0.4526 0.5288 0.2333
C37 C 0.4036(2) 0.6048(4) 0.2605(3)
H19 H 0.4237 0.6597 0.2661
C38 C 0.3564(2) 0.6014(4) 0.2724(2)
C39 C 0.3265(2) 0.5194(4) 0.2620(2)
H20 H 0.2950 0.5166 0.2699
C40 C 0.3357(2) 0.6849(4) 0.2941(2)
O18 O 0.32697(16) 0.2815(3) 0.22071(19)
O19 O 0.25580(15) 0.3682(3) 0.21701(17)
O20 O 0.30350(15) 0.6706(3) 0.31890(17)
O21 O 0.35214(16) 0.7639(3) 0.28599(18)
C41 C 0.2500(2) 0.9489(4) 0.1480(3)
C42 C 0.2273(2) 0.8574(4) 0.1214(2)
C43 C 0.2042(3) 0.8489(4) 0.0620(3)
H21 H 0.2051 0.8985 0.0388
C44 C 0.1798(3) 0.7658(5) 0.0376(3)
C45 C 0.1783(3) 0.6915(4) 0.0713(3)
H23 H 0.1616 0.6362 0.0542
C46 C 0.2013(2) 0.6993(4) 0.1302(2)
C47 C 0.2257(2) 0.7822(4) 0.1549(2)
H24 H 0.2413 0.7875 0.1947
C48 C 0.2009(2) 0.6201(4) 0.1687(3)
O22 O 0.28250(16) 0.9532(3) 0.20089(17)
O24 O 0.18522(19) 0.5421(3) 0.14699(19)
O25 O 0.21785(16) 0.6367(3) 0.22107(17)
C49 C 0.3473(3) 0.8481(5) 0.5971(3)
C50 C 0.3789(2) 0.8996(4) 0.5677(3)
C51 C 0.4155(3) 0.9703(5) 0.5947(3)
H25 H 0.4208 0.9880 0.6318
C53 C 0.4344(3) 0.9928(5) 0.5097(3)
C54 C 0.3970(2) 0.9238(4) 0.4822(3)
C55 C 0.3703(2) 0.8761(4) 0.5117(2)
H28 H 0.3463 0.8279 0.4936
C56 C 0.3829(2) 0.9029(4) 0.4198(2)
O26 O 0.34513(16) 0.8834(3) 0.64174(18)
O27 O 0.3251(2) 0.7736(3) 0.5752(2)
O28 O 0.33964(16) 0.8562(3) 0.39268(16)
O29 O 0.41201(16) 0.9341(3) 0.39468(17)
O30 O 0.24117(17) 0.2295(3) 0.10514(17)
O33 O 0.41474(16) 0.9341(3) 0.27383(18)
Gd8 Gd 0.165580(11) 0.583130(19) 0.698650(12)
O37 O 0.34513(16) 0.1166(3) 0.14174(18)
O40 O 0.16036(16) 0.3562(3) 0.10732(16)
O41 O 0.08799(16) 0.4341(3) 0.10532(17)
Gd11 Gd 0.286569(11) 0.862849(19) 0.689876(12)
H22 H 0.1643 0.7600 0.9978
C28_2 C 1.0000 0.7152(6) 0.2500
H14_2 H 1.0000 0.7797 0.2500
C29_2 C 1.0000 0.5234(5) 0.2500
H15_2 H 1.0000 0.4588 0.2500
C30 C 0.9565(2) 0.6682(4) 0.2548(3)
C31 C 0.9564(2) 0.5717(4) 0.2557(2)
C32 C 0.9111(2) 0.5199(4) 0.2649(2)
O16 O 0.86966(15) 0.5660(3) 0.26548(17)
O17 O 0.91474(16) 0.4341(3) 0.27383(18)
H16 H 0.9273 0.7011 0.2576
Gd9 Gd 0.786569(11) 0.637151(19) 0.189876(12)
Gd10 Gd 0.834420(11) 0.416870(19) 0.301350(12)
Gd1_2 Gd 0.713431(11) 0.137151(19) 0.310124(12)
C1_2 C 0.6946(2) 0.3574(4) 0.2753(2)
C2_2 C 0.6579(2) 0.4420(4) 0.2598(3)
C3_2 C 0.6095(3) 0.4452(4) 0.2694(3)
H1_2 H 0.5974 0.3926 0.2825
C4_2 C 0.5794(3) 0.5266(4) 0.2597(3)
H2_2 H 0.5474 0.5288 0.2667
C5_2 C 0.5964(2) 0.6048(4) 0.2395(3)
H3_2 H 0.5763 0.6597 0.2339
C6_2 C 0.6436(2) 0.6014(4) 0.2276(2)
C7_2 C 0.6735(2) 0.5194(4) 0.2380(2)
H4_2 H 0.7050 0.5166 0.2301
C8_2 C 0.6643(2) 0.6849(4) 0.2059(2)
C17_2 C 0.6527(3) 0.1519(5) 0.4029(3)
C18_2 C 0.6211(2) 0.1004(4) 0.4323(3)
C19_2 C 0.5845(3) 0.0297(5) 0.4053(3)
H9_2 H 0.5792 0.0120 0.3682
C21_2 C 0.5656(3) 0.0072(5) 0.4903(3)
C22_2 C 0.6030(2) 0.0762(4) 0.5178(3)
C23_2 C 0.6297(2) 0.1239(4) 0.4883(2)
H12_2 H 0.6537 0.1721 0.5064
C24_2 C 0.6171(2) 0.0971(4) 0.5802(2)
C25_2 C 0.5889(2) 0.0199(4) 0.2351(2)
C26_2 C 0.5436(2) 0.0717(4) 0.2443(2)
C27_2 C 0.5435(2) 0.1682(4) 0.2452(3)
H13_2 H 0.5727 0.2011 0.2424
C28_3 C 0.5000 0.2152(6) 0.2500
H14_3 H 0.5000 0.2797 0.2500
C29_3 C 0.5000 0.0234(5) 0.2500
O1_2 O 0.67303(16) 0.2815(3) 0.27929(19)
O2_2 O 0.74420(15) 0.3682(3) 0.28299(17)
O3_2 O 0.69650(15) 0.6706(3) 0.18110(17)
O4_2 O 0.64786(16) 0.7639(3) 0.21401(18)
O6_2 O 0.76395(17) 0.0207(3) 0.38157(18)
O9_2 O 0.65487(16) 0.1166(3) 0.35826(18)
O10_2 O 0.6749(2) 0.2264(3) 0.4248(2)
O11_2 O 0.66036(16) 0.1438(3) 0.60732(16)
O12_2 O 0.58799(16) 0.0659(3) 0.60532(17)
O13_2 O 0.63034(15) 0.0660(3) 0.23452(17)
O15_2 O 0.75883(17) 0.2295(3) 0.39486(17)
C30_2 C 0.4565(2) 0.1682(4) 0.2548(3)
C31_2 C 0.4564(2) 0.0717(4) 0.2557(2)
C32_2 C 0.4111(2) 0.0199(4) 0.2649(2)
H16_2 H 0.4273 0.2011 0.2576
C36_2 C 0.9206(3) 0.0266(4) 0.2403(3)
H18_2 H 0.9526 0.0288 0.2333
C37_2 C 0.9036(2) 0.1048(4) 0.2605(3)
H19_2 H 0.9237 0.1597 0.2661
C38_2 C 0.8564(2) 0.1014(4) 0.2724(2)
C39_2 C 0.8265(2) 0.0194(4) 0.2620(2)
H20_2 H 0.7950 0.0166 0.2699
C40_2 C 0.8357(2) 0.1849(4) 0.2941(2)
O20_2 O 0.80350(15) 0.1706(3) 0.31890(17)
O21_2 O 0.85214(16) 0.2639(3) 0.28599(18)
C41_2 C 0.7500(2) 0.4489(4) 0.1480(3)
C42_2 C 0.7273(2) 0.3574(4) 0.1214(2)
C43_2 C 0.7042(3) 0.3489(4) 0.0620(3)
H21_2 H 0.7051 0.3985 0.0388
C44_2 C 0.6798(3) 0.2658(5) 0.0376(3)
C45_2 C 0.6783(3) 0.1915(4) 0.0713(3)
H23_2 H 0.6616 0.1362 0.0542
C46_2 C 0.7013(2) 0.1993(4) 0.1302(2)
C47_2 C 0.7257(2) 0.2822(4) 0.1549(2)
H24_2 H 0.7413 0.2875 0.1947
C48_2 C 0.7009(2) 0.1201(4) 0.1687(3)
O22_2 O 0.78250(16) 0.4532(3) 0.20089(17)
O23_2 O 0.73605(17) 0.5207(3) 0.11843(18)
O24_2 O 0.68522(19) 0.0421(3) 0.14699(19)
O25_2 O 0.71785(16) 0.1367(3) 0.22107(17)
C49_2 C 0.8473(3) 0.3481(5) 0.5971(3)
C50_2 C 0.8789(2) 0.3996(4) 0.5677(3)
C51_2 C 0.9155(3) 0.4703(5) 0.5947(3)
H25_2 H 0.9208 0.4880 0.6318
C52_2 C 0.9446(3) 0.5152(5) 0.5662(3)
H26_2 H 0.9707 0.5602 0.5851
C53_2 C 0.9344(3) 0.4928(5) 0.5097(3)
H27_2 H 0.9527 0.5242 0.4903
C54_2 C 0.8970(2) 0.4238(4) 0.4822(3)
C55_2 C 0.8703(2) 0.3761(4) 0.5117(2)
H28_2 H 0.8463 0.3279 0.4936
C56_2 C 0.8829(2) 0.4029(4) 0.4198(2)
O26_2 O 0.84513(16) 0.3834(3) 0.64174(18)
O27_2 O 0.8251(2) 0.2736(3) 0.5752(2)
O28_2 O 0.83964(16) 0.3562(3) 0.39268(16)
O29_2 O 0.91201(16) 0.4341(3) 0.39468(17)
O31_2 O 0.81478(19) 0.5421(3) 0.35301(19)
Gd6_2 Gd 0.665580(11) 0.916870(19) 0.198650(12)
Gd8_2 Gd 0.665580(11) 0.083130(19) 0.698650(12)
Gd11_2 Gd 0.786569(11) 0.362849(19) 0.689876(12)
H22_2 H 0.6643 0.2600 0.9978
C9_2 C 0.7500(2) 0.9489(4) 0.3520(3)
C10_2 C 0.7727(2) 0.8574(4) 0.3786(2)
C11_2 C 0.7958(3) 0.8489(4) 0.4380(3)
H5_2 H 0.7949 0.8985 0.4612
C12_2 C 0.8202(3) 0.7658(5) 0.4624(3)
H6_2 H 0.8357 0.7600 0.5022
C13_2 C 0.8217(3) 0.6915(4) 0.4287(3)
H7_2 H 0.8384 0.6362 0.4458
C14_2 C 0.7987(2) 0.6993(4) 0.3698(2)
C15_2 C 0.7743(2) 0.7822(4) 0.3451(2)
H8_2 H 0.7587 0.7875 0.3053
C16_2 C 0.7991(2) 0.6201(4) 0.3313(3)
C20_2 C 0.5554(3) 0.9848(5) 0.4338(3)
H10_2 H 0.5293 0.9398 0.4149
H11_2 H 0.5473 0.9758 0.5097
H15_3 H 0.5000 0.9588 0.2500
O5_2 O 0.71750(16) 0.9532(3) 0.29911(17)
O8_2 O 0.78215(16) 0.6367(3) 0.27893(17)
O14_2 O 0.58526(16) 0.9341(3) 0.22617(18)
C33_2 C 0.8054(2) 0.8574(4) 0.2247(2)
C34_2 C 0.8421(2) 0.9420(4) 0.2402(3)
C35_2 C 0.8905(3) 0.9452(4) 0.2306(3)
H17_2 H 0.9026 0.8926 0.2175
O18_2 O 0.82697(16) 0.7815(3) 0.22071(19)
O19_2 O 0.75580(15) 0.8682(3) 0.21701(17)
O30_2 O 0.74117(17) 0.7295(3) 0.10514(17)
O37_2 O 0.84513(16) 0.6166(3) 0.14174(18)
O40_2 O 0.66036(16) 0.8562(3) 0.10732(16)
O41_2 O 0.58799(16) 0.9341(3) 0.10532(17)
Gd7 Gd 0.334420(11) 0.083130(19) 0.801350(12)
O35 O 0.28250(16) 0.0468(3) 0.70089(17)
H6_3 H 0.3357 0.7400 0.0022
H11_3 H 0.0473 0.5242 0.0097
C22_3 C 0.1030(2) 0.4238(4) 0.0178(3)
H12_3 H 0.1537 0.3279 0.0064
C24_3 C 0.1171(2) 0.4029(4) 0.0802(2)
C49_3 C 0.3473(3) 0.1519(5) 0.0971(3)
C50_3 C 0.3789(2) 0.1004(4) 0.0677(3)
C51_3 C 0.4155(3) 0.0297(5) 0.0947(3)
H25_3 H 0.4208 0.0120 0.1318
C53_3 C 0.4344(3) 0.0072(5) 0.0097(3)
C55_3 C 0.3703(2) 0.1239(4) 0.0117(2)
O27_3 O 0.3251(2) 0.2264(3) 0.0752(2)
Gd1_3 Gd 0.213431(11) 0.362849(19) 0.810124(12)
C1_3 C 0.1946(2) 0.1426(4) 0.7753(2)
C2_3 C 0.1579(2) 0.0580(4) 0.7598(3)
C3_3 C 0.1095(3) 0.0548(4) 0.7694(3)
H1_3 H 0.0974 0.1074 0.7825
C9_3 C 0.2500(2) 0.5511(4) 0.8520(3)
C10_3 C 0.2727(2) 0.6426(4) 0.8786(2)
C11_3 C 0.2958(3) 0.6511(4) 0.9380(3)
H5_3 H 0.2949 0.6015 0.9612
C12_3 C 0.3202(3) 0.7342(5) 0.9624(3)
C13_3 C 0.3217(3) 0.8085(4) 0.9287(3)
H7_3 H 0.3384 0.8638 0.9458
C14_3 C 0.2987(2) 0.8007(4) 0.8698(2)
C15_3 C 0.2743(2) 0.7178(4) 0.8451(2)
H8_3 H 0.2587 0.7125 0.8053
C16_3 C 0.2991(2) 0.8799(4) 0.8313(3)
C17_3 C 0.1527(3) 0.3481(5) 0.9029(3)
C18_3 C 0.1211(2) 0.3996(4) 0.9323(3)
C19_3 C 0.0845(3) 0.4703(5) 0.9053(3)
H9_3 H 0.0792 0.4880 0.8682
C20_3 C 0.0554(3) 0.5152(5) 0.9338(3)
H10_3 H 0.0293 0.5602 0.9149
C21_3 C 0.0656(3) 0.4928(5) 0.9903(3)
C23_3 C 0.1297(2) 0.3761(4) 0.9883(2)
C25_3 C 0.0889(2) 0.4801(4) 0.7351(2)
C26_3 C 0.0436(2) 0.4283(4) 0.7443(2)
C27_3 C 0.0435(2) 0.3318(4) 0.7452(3)
H13_3 H 0.0727 0.2989 0.7424
C28_4 C 0.0000 0.2848(6) 0.7500
H14_4 H 0.0000 0.2203 0.7500
C29_4 C 0.0000 0.4766(5) 0.7500
H15_4 H 0.0000 0.5412 0.7500
O1_3 O 0.17303(16) 0.2185(3) 0.77929(19)
O2_3 O 0.24420(15) 0.1318(3) 0.78299(17)
O5_3 O 0.21750(16) 0.5468(3) 0.79911(17)
O6_3 O 0.26395(17) 0.4793(3) 0.88157(18)
O7 O 0.31478(19) 0.9579(3) 0.85301(19)
O8_3 O 0.28215(16) 0.8633(3) 0.77893(17)
O9_3 O 0.15487(16) 0.3834(3) 0.85826(18)
O10_3 O 0.1749(2) 0.2736(3) 0.9248(2)
O13_3 O 0.13034(15) 0.4340(3) 0.73452(17)
O14_3 O 0.08526(16) 0.5659(3) 0.72617(18)
O15_3 O 0.25883(17) 0.2705(3) 0.89486(17)
C33_3 C 0.3054(2) 0.6426(4) 0.7247(2)
C34_3 C 0.3421(2) 0.5580(4) 0.7402(3)
C35_3 C 0.3905(3) 0.5548(4) 0.7306(3)
H17_3 H 0.4026 0.6074 0.7175
C36_3 C 0.4206(3) 0.4734(4) 0.7403(3)
H18_3 H 0.4526 0.4712 0.7333
C37_3 C 0.4036(2) 0.3952(4) 0.7605(3)
H19_3 H 0.4237 0.3403 0.7661
C38_3 C 0.3564(2) 0.3986(4) 0.7724(2)
C39_3 C 0.3265(2) 0.4806(4) 0.7620(2)
H20_3 H 0.2950 0.4834 0.7699
C40_3 C 0.3357(2) 0.3151(4) 0.7941(2)
O18_3 O 0.32697(16) 0.7185(3) 0.72071(19)
O19_3 O 0.25580(15) 0.6318(3) 0.71701(17)
O20_3 O 0.30350(15) 0.3294(3) 0.81890(17)
O21_3 O 0.35214(16) 0.2361(3) 0.78599(18)
C41_3 C 0.2500(2) 0.0511(4) 0.6480(3)
C42_3 C 0.2273(2) 0.1426(4) 0.6214(2)
C43_3 C 0.2042(3) 0.1511(4) 0.5620(3)
H21_3 H 0.2051 0.1015 0.5388
C44_3 C 0.1798(3) 0.2342(5) 0.5376(3)
H22_3 H 0.1643 0.2400 0.4978
C45_3 C 0.1783(3) 0.3085(4) 0.5713(3)
H23_3 H 0.1616 0.3638 0.5542
C46_3 C 0.2013(2) 0.3007(4) 0.6302(2)
C47_3 C 0.2257(2) 0.2178(4) 0.6549(2)
H24_3 H 0.2413 0.2125 0.6947
C48_3 C 0.2009(2) 0.3799(4) 0.6687(3)
O24_3 O 0.18522(19) 0.4579(3) 0.64699(19)
O25_3 O 0.21785(16) 0.3633(3) 0.72107(17)
C54_3 C 0.3970(2) 0.0762(4) 0.9822(3)
H28_3 H 0.3463 0.1721 0.9936
C56_3 C 0.3829(2) 0.0971(4) 0.9198(2)
O28_3 O 0.33964(16) 0.1438(3) 0.89268(16)
O29_3 O 0.41201(16) 0.0659(3) 0.89468(17)
O30_3 O 0.24117(17) 0.7705(3) 0.60514(17)
O33_2 O 0.41474(16) 0.0659(3) 0.77383(18)
O34 O 0.19650(15) 0.8294(3) 0.68110(17)
O36 O 0.23605(17) 0.9793(3) 0.61843(18)
O38 O 0.36966(15) 0.9340(3) 0.76548(17)
O39 O 0.14786(16) 0.7361(3) 0.71401(18)
C52_3 C 0.4446(3) 0.9848(5) 0.0662(3)
H26_3 H 0.4707 0.9398 0.0851
C4_3 C 0.0794(3) 0.9734(4) 0.7597(3)
H2_3 H 0.0474 0.9712 0.7667
C5_3 C 0.0964(2) 0.8952(4) 0.7395(3)
H3_3 H 0.0763 0.8403 0.7339
C6_3 C 0.1436(2) 0.8986(4) 0.7276(2)
C7_3 C 0.1735(2) 0.9806(4) 0.7380(2)
H4_3 H 0.2050 0.9834 0.7301
C8_3 C 0.1643(2) 0.8151(4) 0.7059(2)
H27_3 H 0.4527 0.9758 0.9903
C28_5 C 1.0000 0.2848(6) 0.7500
H14_5 H 1.0000 0.2203 0.7500
C29_5 C 1.0000 0.4766(5) 0.7500
H15_5 H 1.0000 0.5412 0.7500
C30_3 C 0.9565(2) 0.3318(4) 0.7548(3)
C31_3 C 0.9564(2) 0.4283(4) 0.7557(2)
C32_3 C 0.9111(2) 0.4801(4) 0.7649(2)
O16_2 O 0.86966(15) 0.4340(3) 0.76548(17)
O17_2 O 0.91474(16) 0.5659(3) 0.77383(18)
H16_3 H 0.9273 0.2989 0.7576
Gd10_2 Gd 0.834420(11) 0.583130(19) 0.801350(12)
H6_4 H 0.8357 0.2400 0.0022
H11_4 H 0.5473 0.0242 0.0097
C9_4 C 0.7500(2) 0.0511(4) 0.8520(3)
C10_4 C 0.7727(2) 0.1426(4) 0.8786(2)
C11_4 C 0.7958(3) 0.1511(4) 0.9380(3)
H5_4 H 0.7949 0.1015 0.9612
C12_4 C 0.8202(3) 0.2342(5) 0.9624(3)
C13_4 C 0.8217(3) 0.3085(4) 0.9287(3)
H7_4 H 0.8384 0.3638 0.9458
C14_4 C 0.7987(2) 0.3007(4) 0.8698(2)
C15_4 C 0.7743(2) 0.2178(4) 0.8451(2)
H8_4 H 0.7587 0.2125 0.8053
C16_4 C 0.7991(2) 0.3799(4) 0.8313(3)
C20_4 C 0.5554(3) 0.0152(5) 0.9338(3)
H10_4 H 0.5293 0.0602 0.9149
H15_6 H 0.5000 0.0412 0.7500
O5_4 O 0.71750(16) 0.0468(3) 0.79911(17)
O7_2 O 0.81478(19) 0.4579(3) 0.85301(19)
O8_4 O 0.78215(16) 0.3633(3) 0.77893(17)
O14_4 O 0.58526(16) 0.0659(3) 0.72617(18)
C33_4 C 0.8054(2) 0.1426(4) 0.7247(2)
C34_4 C 0.8421(2) 0.0580(4) 0.7402(3)
C35_4 C 0.8905(3) 0.0548(4) 0.7306(3)
H17_4 H 0.9026 0.1074 0.7175
O18_4 O 0.82697(16) 0.2185(3) 0.72071(19)
O19_4 O 0.75580(15) 0.1318(3) 0.71701(17)
O30_4 O 0.74117(17) 0.2705(3) 0.60514(17)
O34_2 O 0.69650(15) 0.3294(3) 0.68110(17)
O35_2 O 0.78250(16) 0.5468(3) 0.70089(17)
O36_2 O 0.73605(17) 0.4793(3) 0.61843(18)
O39_2 O 0.64786(16) 0.2361(3) 0.71401(18)
C22_4 C 0.6030(2) 0.9238(4) 0.0178(3)
H12_4 H 0.6537 0.8279 0.0064
C24_4 C 0.6171(2) 0.9029(4) 0.0802(2)
C49_4 C 0.8473(3) 0.6519(5) 0.0971(3)
C50_4 C 0.8789(2) 0.6004(4) 0.0677(3)
C51_4 C 0.9155(3) 0.5297(5) 0.0947(3)
H25_4 H 0.9208 0.5120 0.1318
C52_4 C 0.9446(3) 0.4848(5) 0.0662(3)
H26_4 H 0.9707 0.4398 0.0851
C53_4 C 0.9344(3) 0.5072(5) 0.0097(3)
C55_4 C 0.8703(2) 0.6239(4) 0.0117(2)
O27_4 O 0.8251(2) 0.7264(3) 0.0752(2)
Gd1_4 Gd 0.713431(11) 0.862849(19) 0.810124(12)
C1_4 C 0.6946(2) 0.6426(4) 0.7753(2)
C2_4 C 0.6579(2) 0.5580(4) 0.7598(3)
C3_4 C 0.6095(3) 0.5548(4) 0.7694(3)
H1_4 H 0.5974 0.6074 0.7825
C4_4 C 0.5794(3) 0.4734(4) 0.7597(3)
H2_4 H 0.5474 0.4712 0.7667
C5_4 C 0.5964(2) 0.3952(4) 0.7395(3)
H3_4 H 0.5763 0.3403 0.7339
C6_4 C 0.6436(2) 0.3986(4) 0.7276(2)
C7_4 C 0.6735(2) 0.4806(4) 0.7380(2)
H4_4 H 0.7050 0.4834 0.7301
C8_4 C 0.6643(2) 0.3151(4) 0.7059(2)
C17_4 C 0.6527(3) 0.8481(5) 0.9029(3)
C18_4 C 0.6211(2) 0.8996(4) 0.9323(3)
C19_4 C 0.5845(3) 0.9703(5) 0.9053(3)
H9_4 H 0.5792 0.9880 0.8682
C21_4 C 0.5656(3) 0.9928(5) 0.9903(3)
C23_4 C 0.6297(2) 0.8761(4) 0.9883(2)
C25_4 C 0.5889(2) 0.9801(4) 0.7351(2)
C26_4 C 0.5436(2) 0.9283(4) 0.7443(2)
C27_4 C 0.5435(2) 0.8318(4) 0.7452(3)
H13_4 H 0.5727 0.7989 0.7424
C28_6 C 0.5000 0.7848(6) 0.7500
H14_6 H 0.5000 0.7203 0.7500
C29_6 C 0.5000 0.9766(5) 0.7500
O1_4 O 0.67303(16) 0.7185(3) 0.77929(19)
O2_4 O 0.74420(15) 0.6318(3) 0.78299(17)
O6_4 O 0.76395(17) 0.9793(3) 0.88157(18)
O9_4 O 0.65487(16) 0.8834(3) 0.85826(18)
O10_4 O 0.6749(2) 0.7736(3) 0.9248(2)
O13_4 O 0.63034(15) 0.9340(3) 0.73452(17)
O15_4 O 0.75883(17) 0.7705(3) 0.89486(17)
C30_4 C 0.4565(2) 0.8318(4) 0.7548(3)
C31_4 C 0.4564(2) 0.9283(4) 0.7557(2)
C32_4 C 0.4111(2) 0.9801(4) 0.7649(2)
H16_4 H 0.4273 0.7989 0.7576
C36_4 C 0.9206(3) 0.9734(4) 0.7403(3)
H18_4 H 0.9526 0.9712 0.7333
C37_4 C 0.9036(2) 0.8952(4) 0.7605(3)
H19_4 H 0.9237 0.8403 0.7661
C38_4 C 0.8564(2) 0.8986(4) 0.7724(2)
C39_4 C 0.8265(2) 0.9806(4) 0.7620(2)
H20_4 H 0.7950 0.9834 0.7699
C40_4 C 0.8357(2) 0.8151(4) 0.7941(2)
O20_4 O 0.80350(15) 0.8294(3) 0.81890(17)
O21_4 O 0.85214(16) 0.7361(3) 0.78599(18)
C41_4 C 0.7500(2) 0.5511(4) 0.6480(3)
C42_4 C 0.7273(2) 0.6426(4) 0.6214(2)
C43_4 C 0.7042(3) 0.6511(4) 0.5620(3)
H21_4 H 0.7051 0.6015 0.5388
C44_4 C 0.6798(3) 0.7342(5) 0.5376(3)
H22_4 H 0.6643 0.7400 0.4978
C45_4 C 0.6783(3) 0.8085(4) 0.5713(3)
H23_4 H 0.6616 0.8638 0.5542
C46_4 C 0.7013(2) 0.8007(4) 0.6302(2)
C47_4 C 0.7257(2) 0.7178(4) 0.6549(2)
H24_4 H 0.7413 0.7125 0.6947
C48_4 C 0.7009(2) 0.8799(4) 0.6687(3)
O24_4 O 0.68522(19) 0.9579(3) 0.64699(19)
O25_4 O 0.71785(16) 0.8633(3) 0.72107(17)
H27_4 H 0.9527 0.4758 0.9903
C54_4 C 0.8970(2) 0.5762(4) 0.9822(3)
H28_4 H 0.8463 0.6721 0.9936
C56_4 C 0.8829(2) 0.5971(4) 0.9198(2)
O28_4 O 0.83964(16) 0.6438(3) 0.89268(16)
O29_4 O 0.91201(16) 0.5659(3) 0.89468(17)
loop_
_geom_bond_atom_site_label_1
_geom_bond_atom_site_label_2
_geom_bond_site_symmetry_1
_geom_bond_site_symmetry_2
H2 C4 1_555 1_555
C5 C4 1_555 1_555
H3 C5 1_555 1_555
C6 C5 1_555 1_555
H4 C7 1_555 1_555
C8 C6 1_555 1_555
O3 C8 1_555 1_555
O4 C8 1_555 1_555
H26 C52 1_555 1_555
Gd5 O3 1_555 1_555
Gd6 O4 1_555 1_555
C6 C7 1_555 1_555
O23 Gd5 1_555 1_555
O32 Gd5 1_555 1_555
Gd1 O1 1_555 1_555
Gd2 O2 1_555 1_555
C1 C2 1_555 1_555
C2 C3 1_555 1_555
C3 H1 1_555 1_555
C9 C10 1_555 1_555
C10 C11 1_555 1_555
C11 H5 1_555 1_555
C12 C11 1_555 1_555
H6 C12 1_555 1_555
C13 C12 1_555 1_555
H7 C13 1_555 1_555
C14 C13 1_555 1_555
C15 C10 1_555 1_555
H8 C15 1_555 1_555
C16 C14 1_555 1_555
C17 C18 1_555 1_555
C18 C19 1_555 1_555
C19 H9 1_555 1_555
C20 C19 1_555 1_555
H10 C20 1_555 1_555
C21 C20 1_555 1_555
H11 C21 1_555 1_555
C22 C21 1_555 1_555
C23 C18 1_555 1_555
H12 C23 1_555 1_555
C24 C22 1_555 1_555
C25 C26 1_555 1_555
C26 C27 1_555 1_555
C27 H13 1_555 1_555
C28 C27 1_555 1_555
H14 C28 1_555 1_555
C29 C26 1_555 1_555
H15 C29 1_555 1_555
O1 C1 1_555 1_555
O2 C1 1_555 1_555
O5 Gd1 1_555 1_555
O6 Gd1 1_555 1_555
O31 C16 1_555 1_555
O8 C16 1_555 1_555
O9 Gd1 1_555 1_555
O10 C17 1_555 1_555
O11 C24 1_555 1_555
O12 C24 1_555 1_555
O13 Gd1 1_555 1_555
O14 C25 1_555 1_555
O15 Gd1 1_555 1_555
C33 C34 1_555 1_555
C34 C35 1_555 1_555
C35 H17 1_555 1_555
C36 C35 1_555 1_555
H18 C36 1_555 1_555
C37 C36 1_555 1_555
H19 C37 1_555 1_555
C38 C37 1_555 1_555
C39 C34 1_555 1_555
H20 C39 1_555 1_555
C40 C38 1_555 1_555
O18 C33 1_555 1_555
O19 C33 1_555 1_555
O20 Gd1 1_555 1_555
O21 Gd2 1_555 1_555
C41 C42 1_555 1_555
C42 C43 1_555 1_555
C43 H21 1_555 1_555
C44 C43 1_555 1_555
C45 C44 1_555 1_555
H23 C45 1_555 1_555
C46 C45 1_555 1_555
C47 C42 1_555 1_555
H24 C47 1_555 1_555
C48 C46 1_555 1_555
O22 Gd2 1_555 1_555
O24 C48 1_555 1_555
O25 Gd1 1_555 1_555
Gd5 O8 1_555 1_555
Gd6 O5 1_555 1_555
C49 C50 1_555 1_555
C50 C51 1_555 1_555
C51 H25 1_555 1_555
C54 C53 1_555 1_555
C55 C50 1_555 1_555
H28 C55 1_555 1_555
C56 C54 1_555 1_555
O26 C49 1_555 1_555
O27 C49 1_555 1_555
O28 Gd2 1_555 1_555
O29 Gd2 1_555 1_555
O30 Gd5 1_555 1_555
O33 Gd2 1_555 1_555
Gd8 O11 1_555 1_555
O37 Gd5 1_555 1_555
O40 Gd6 1_555 1_555
O41 Gd6 1_555 1_555
Gd11 O26 1_555 1_555
C9 O5 1_555 1_555
C9 O6 1_555 1_555
C14 C15 1_555 1_555
C17 O9 1_555 1_555
C22 C23 1_555 1_555
C25 O13 1_555 1_555
O12 Gd8 1_555 1_555
O13 Gd6 1_555 1_555
O14 Gd6 1_555 1_555
C38 C39 1_555 1_555
C40 O20 1_555 1_555
C40 O21 1_555 1_555
O18 Gd5 1_555 1_555
O19 Gd6 1_555 1_555
C41 O22 1_555 1_555
C46 C47 1_555 1_555
C48 O25 1_555 1_555
O24 Gd6 1_555 1_555
C54 C55 1_555 1_555
C56 O28 1_555 1_555
C56 O29 1_555 1_555
H14_2 C28_2 1_555 1_555
H15_2 C29_2 1_555 1_555
C30 C28_2 1_555 1_555
C31 C29_2 1_555 1_555
C32 C31 1_555 1_555
O16 C32 1_555 1_555
O17 C32 1_555 1_555
H16 C30 1_555 1_555
Gd9 O16 1_555 1_555
Gd10 O16 1_555 1_555
C30 C31 1_555 1_555
O17 Gd10 1_555 1_555
Gd1_2 O1_2 1_555 1_555
Gd10 O2_2 1_555 1_555
C1_2 C2_2 1_555 1_555
C2_2 C3_2 1_555 1_555
C3_2 H1_2 1_555 1_555
C4_2 C3_2 1_555 1_555
H2_2 C4_2 1_555 1_555
C5_2 C4_2 1_555 1_555
H3_2 C5_2 1_555 1_555
C6_2 C5_2 1_555 1_555
C7_2 C2_2 1_555 1_555
H4_2 C7_2 1_555 1_555
C8_2 C6_2 1_555 1_555
C17_2 C18_2 1_555 1_555
C18_2 C19_2 1_555 1_555
C19_2 H9_2 1_555 1_555
C22_2 C21_2 1_555 1_555
C23_2 C18_2 1_555 1_555
H12_2 C23_2 1_555 1_555
C24_2 C22_2 1_555 1_555
C25_2 C26_2 1_555 1_555
C26_2 C27_2 1_555 1_555
C27_2 H13_2 1_555 1_555
C28_3 C27_2 1_555 1_555
H14_3 C28_3 1_555 1_555
C29_3 C26_2 1_555 1_555
O1_2 C1_2 1_555 1_555
O2_2 C1_2 1_555 1_555
O3_2 C8_2 1_555 1_555
O4_2 C8_2 1_555 1_555
O6_2 Gd1_2 1_555 1_555
O9_2 Gd1_2 1_555 1_555
O10_2 C17_2 1_555 1_555
O11_2 C24_2 1_555 1_555
O12_2 C24_2 1_555 1_555
O13_2 Gd1_2 1_555 1_555
O15_2 Gd1_2 1_555 1_555
C30_2 C28_3 1_555 1_555
C31_2 C29_3 1_555 1_555
C32_2 C31_2 1_555 1_555
O32 C32_2 1_555 1_555
H16_2 C30_2 1_555 1_555
H18_2 C36_2 1_555 1_555
C37_2 C36_2 1_555 1_555
H19_2 C37_2 1_555 1_555
C38_2 C37_2 1_555 1_555
H20_2 C39_2 1_555 1_555
C40_2 C38_2 1_555 1_555
O20_2 Gd1_2 1_555 1_555
O21_2 Gd10 1_555 1_555
C41_2 C42_2 1_555 1_555
C42_2 C43_2 1_555 1_555
C43_2 H21_2 1_555 1_555
C44_2 C43_2 1_555 1_555
C45_2 C44_2 1_555 1_555
H23_2 C45_2 1_555 1_555
C46_2 C45_2 1_555 1_555
C47_2 C42_2 1_555 1_555
H24_2 C47_2 1_555 1_555
C48_2 C46_2 1_555 1_555
O22_2 Gd10 1_555 1_555
O23_2 C41_2 1_555 1_555
O24_2 C48_2 1_555 1_555
O25_2 Gd1_2 1_555 1_555
C49_2 C50_2 1_555 1_555
C50_2 C51_2 1_555 1_555
C51_2 H25_2 1_555 1_555
C52_2 C51_2 1_555 1_555
H26_2 C52_2 1_555 1_555
C53_2 C52_2 1_555 1_555
H27_2 C53_2 1_555 1_555
C54_2 C53_2 1_555 1_555
C55_2 C50_2 1_555 1_555
H28_2 C55_2 1_555 1_555
C56_2 C54_2 1_555 1_555
O26_2 C49_2 1_555 1_555
O27_2 C49_2 1_555 1_555
O28_2 Gd10 1_555 1_555
O29_2 Gd10 1_555 1_555
O31_2 Gd10 1_555 1_555
Gd9 O3_2 1_555 1_555
Gd6_2 O4_2 1_555 1_555
Gd8_2 O11_2 1_555 1_555
Gd11_2 O26_2 1_555 1_555
C6_2 C7_2 1_555 1_555
C17_2 O9_2 1_555 1_555
C22_2 C23_2 1_555 1_555
C25_2 O13_2 1_555 1_555
O12_2 Gd8_2 1_555 1_555
C30_2 C31_2 1_555 1_555
C38_2 C39_2 1_555 1_555
C40_2 O20_2 1_555 1_555
C40_2 O21_2 1_555 1_555
C41_2 O22_2 1_555 1_555
C46_2 C47_2 1_555 1_555
C48_2 O25_2 1_555 1_555
O22_2 Gd9 1_555 1_555
O23_2 Gd9 1_555 1_555
C54_2 C55_2 1_555 1_555
C56_2 O28_2 1_555 1_555
C56_2 O29_2 1_555 1_555
C9_2 C10_2 1_555 1_555
C10_2 C11_2 1_555 1_555
C11_2 H5_2 1_555 1_555
C12_2 C11_2 1_555 1_555
H6_2 C12_2 1_555 1_555
C13_2 C12_2 1_555 1_555
H7_2 C13_2 1_555 1_555
C14_2 C13_2 1_555 1_555
C15_2 C10_2 1_555 1_555
H8_2 C15_2 1_555 1_555
C16_2 C14_2 1_555 1_555
H10_2 C20_2 1_555 1_555
O31_2 C16_2 1_555 1_555
O8_2 C16_2 1_555 1_555
C33_2 C34_2 1_555 1_555
C34_2 C35_2 1_555 1_555
C35_2 H17_2 1_555 1_555
O18_2 C33_2 1_555 1_555
O19_2 C33_2 1_555 1_555
Gd9 O8_2 1_555 1_555
Gd6_2 O5_2 1_555 1_555
O30_2 Gd9 1_555 1_555
O37_2 Gd9 1_555 1_555
O40_2 Gd6_2 1_555 1_555
O41_2 Gd6_2 1_555 1_555
C9_2 O5_2 1_555 1_555
C14_2 C15_2 1_555 1_555
O14_2 Gd6_2 1_555 1_555
O18_2 Gd9 1_555 1_555
O19_2 Gd6_2 1_555 1_555
Gd7 O35 1_555 1_555
C24_3 C22_3 1_555 1_555
O40 C24_3 1_555 1_555
O41 C24_3 1_555 1_555
C49_3 C50_3 1_555 1_555
C50_3 C51_3 1_555 1_555
C51_3 H25_3 1_555 1_555
C55_3 C50_3 1_555 1_555
O37 C49_3 1_555 1_555
O27_3 C49_3 1_555 1_555
Gd1_3 O1_3 1_555 1_555
Gd7 O2_3 1_555 1_555
C1_3 C2_3 1_555 1_555
C2_3 C3_3 1_555 1_555
C3_3 H1_3 1_555 1_555
C9_3 C10_3 1_555 1_555
C10_3 C11_3 1_555 1_555
C11_3 H5_3 1_555 1_555
C12_3 C11_3 1_555 1_555
C13_3 C12_3 1_555 1_555
H7_3 C13_3 1_555 1_555
C14_3 C13_3 1_555 1_555
C15_3 C10_3 1_555 1_555
H8_3 C15_3 1_555 1_555
C16_3 C14_3 1_555 1_555
C17_3 C18_3 1_555 1_555
C18_3 C19_3 1_555 1_555
C19_3 H9_3 1_555 1_555
C20_3 C19_3 1_555 1_555
H10_3 C20_3 1_555 1_555
C21_3 C20_3 1_555 1_555
C23_3 C18_3 1_555 1_555
C25_3 C26_3 1_555 1_555
C26_3 C27_3 1_555 1_555
C27_3 H13_3 1_555 1_555
C28_4 C27_3 1_555 1_555
H14_4 C28_4 1_555 1_555
C29_4 C26_3 1_555 1_555
H15_4 C29_4 1_555 1_555
O1_3 C1_3 1_555 1_555
O2_3 C1_3 1_555 1_555
O5_3 Gd1_3 1_555 1_555
O6_3 Gd1_3 1_555 1_555
O7 C16_3 1_555 1_555
O8_3 C16_3 1_555 1_555
O9_3 Gd1_3 1_555 1_555
O10_3 C17_3 1_555 1_555
O13_3 Gd1_3 1_555 1_555
O14_3 C25_3 1_555 1_555
O15_3 Gd1_3 1_555 1_555
C33_3 C34_3 1_555 1_555
C34_3 C35_3 1_555 1_555
C35_3 H17_3 1_555 1_555
C36_3 C35_3 1_555 1_555
H18_3 C36_3 1_555 1_555
C37_3 C36_3 1_555 1_555
H19_3 C37_3 1_555 1_555
C38_3 C37_3 1_555 1_555
C39_3 C34_3 1_555 1_555
H20_3 C39_3 1_555 1_555
C40_3 C38_3 1_555 1_555
O18_3 C33_3 1_555 1_555
O19_3 C33_3 1_555 1_555
O20_3 Gd1_3 1_555 1_555
O21_3 Gd7 1_555 1_555
C41_3 C42_3 1_555 1_555
C42_3 C43_3 1_555 1_555
C43_3 H21_3 1_555 1_555
C44_3 C43_3 1_555 1_555
H22_3 C44_3 1_555 1_555
C45_3 C44_3 1_555 1_555
H23_3 C45_3 1_555 1_555
C46_3 C45_3 1_555 1_555
C47_3 C42_3 1_555 1_555
H24_3 C47_3 1_555 1_555
C48_3 C46_3 1_555 1_555
O24_3 C48_3 1_555 1_555
O25_3 Gd1_3 1_555 1_555
Gd11 O8_3 1_555 1_555
Gd8 O5_3 1_555 1_555
C56_3 C54_3 1_555 1_555
O28_3 Gd7 1_555 1_555
O29_3 Gd7 1_555 1_555
O30_3 Gd11 1_555 1_555
O33_2 Gd7 1_555 1_555
O34 Gd11 1_555 1_555
O36 Gd11 1_555 1_555
O38 Gd11 1_555 1_555
O39 Gd8 1_555 1_555
C9_3 O5_3 1_555 1_555
C9_3 O6_3 1_555 1_555
C14_3 C15_3 1_555 1_555
C17_3 O9_3 1_555 1_555
C25_3 O13_3 1_555 1_555
O13_3 Gd8 1_555 1_555
O14_3 Gd8 1_555 1_555
C38_3 C39_3 1_555 1_555
C40_3 O20_3 1_555 1_555
C40_3 O21_3 1_555 1_555
O18_3 Gd11 1_555 1_555
O19_3 Gd8 1_555 1_555
C41_3 O35 1_555 1_555
C46_3 C47_3 1_555 1_555
C48_3 O25_3 1_555 1_555
O24_3 Gd8 1_555 1_555
C56_3 O28_3 1_555 1_555
C56_3 O29_3 1_555 1_555
H26_3 C52_3 1_555 1_555
H2_3 C4_3 1_555 1_555
C5_3 C4_3 1_555 1_555
H3_3 C5_3 1_555 1_555
C6_3 C5_3 1_555 1_555
H4_3 C7_3 1_555 1_555
C8_3 C6_3 1_555 1_555
O34 C8_3 1_555 1_555
O39 C8_3 1_555 1_555
C6_3 C7_3 1_555 1_555
H14_5 C28_5 1_555 1_555
H15_5 C29_5 1_555 1_555
C30_3 C28_5 1_555 1_555
C31_3 C29_5 1_555 1_555
C32_3 C31_3 1_555 1_555
O16_2 C32_3 1_555 1_555
O17_2 C32_3 1_555 1_555
H16_3 C30_3 1_555 1_555
Gd11_2 O16_2 1_555 1_555
Gd10_2 O16_2 1_555 1_555
C30_3 C31_3 1_555 1_555
O17_2 Gd10_2 1_555 1_555
C9_4 C10_4 1_555 1_555
C10_4 C11_4 1_555 1_555
C11_4 H5_4 1_555 1_555
C12_4 C11_4 1_555 1_555
C13_4 C12_4 1_555 1_555
H7_4 C13_4 1_555 1_555
C14_4 C13_4 1_555 1_555
C15_4 C10_4 1_555 1_555
H8_4 C15_4 1_555 1_555
C16_4 C14_4 1_555 1_555
H10_4 C20_4 1_555 1_555
O7_2 C16_4 1_555 1_555
O8_4 C16_4 1_555 1_555
C33_4 C34_4 1_555 1_555
C34_4 C35_4 1_555 1_555
C35_4 H17_4 1_555 1_555
O18_4 C33_4 1_555 1_555
O19_4 C33_4 1_555 1_555
Gd11_2 O8_4 1_555 1_555
Gd8_2 O5_4 1_555 1_555
O30_4 Gd11_2 1_555 1_555
Gd10_2 O7_2 1_555 1_555
O34_2 Gd11_2 1_555 1_555
O35_2 Gd11_2 1_555 1_555
O36_2 Gd11_2 1_555 1_555
O39_2 Gd8_2 1_555 1_555
C9_4 O5_4 1_555 1_555
C14_4 C15_4 1_555 1_555
O14_4 Gd8_2 1_555 1_555
O18_4 Gd11_2 1_555 1_555
O19_4 Gd8_2 1_555 1_555
Gd10_2 O35_2 1_555 1_555
C24_4 C22_4 1_555 1_555
O40_2 C24_4 1_555 1_555
O41_2 C24_4 1_555 1_555
C49_4 C50_4 1_555 1_555
C50_4 C51_4 1_555 1_555
C51_4 H25_4 1_555 1_555
C52_4 C51_4 1_555 1_555
H26_4 C52_4 1_555 1_555
C53_4 C52_4 1_555 1_555
C55_4 C50_4 1_555 1_555
O37_2 C49_4 1_555 1_555
O27_4 C49_4 1_555 1_555
Gd1_4 O1_4 1_555 1_555
Gd10_2 O2_4 1_555 1_555
C1_4 C2_4 1_555 1_555
C2_4 C3_4 1_555 1_555
C3_4 H1_4 1_555 1_555
C4_4 C3_4 1_555 1_555
H2_4 C4_4 1_555 1_555
C5_4 C4_4 1_555 1_555
H3_4 C5_4 1_555 1_555
C6_4 C5_4 1_555 1_555
C7_4 C2_4 1_555 1_555
H4_4 C7_4 1_555 1_555
C8_4 C6_4 1_555 1_555
C17_4 C18_4 1_555 1_555
C18_4 C19_4 1_555 1_555
C19_4 H9_4 1_555 1_555
C23_4 C18_4 1_555 1_555
C25_4 C26_4 1_555 1_555
C26_4 C27_4 1_555 1_555
C27_4 H13_4 1_555 1_555
C28_6 C27_4 1_555 1_555
H14_6 C28_6 1_555 1_555
C29_6 C26_4 1_555 1_555
O1_4 C1_4 1_555 1_555
O2_4 C1_4 1_555 1_555
O34_2 C8_4 1_555 1_555
O39_2 C8_4 1_555 1_555
O6_4 Gd1_4 1_555 1_555
O9_4 Gd1_4 1_555 1_555
O10_4 C17_4 1_555 1_555
O13_4 Gd1_4 1_555 1_555
O15_4 Gd1_4 1_555 1_555
C30_4 C28_6 1_555 1_555
C31_4 C29_6 1_555 1_555
C32_4 C31_4 1_555 1_555
O38 C32_4 1_555 1_555
H16_4 C30_4 1_555 1_555
H18_4 C36_4 1_555 1_555
C37_4 C36_4 1_555 1_555
H19_4 C37_4 1_555 1_555
C38_4 C37_4 1_555 1_555
H20_4 C39_4 1_555 1_555
C40_4 C38_4 1_555 1_555
O20_4 Gd1_4 1_555 1_555
O21_4 Gd10_2 1_555 1_555
C41_4 C42_4 1_555 1_555
C42_4 C43_4 1_555 1_555
C43_4 H21_4 1_555 1_555
C44_4 C43_4 1_555 1_555
H22_4 C44_4 1_555 1_555
C45_4 C44_4 1_555 1_555
H23_4 C45_4 1_555 1_555
C46_4 C45_4 1_555 1_555
C47_4 C42_4 1_555 1_555
H24_4 C47_4 1_555 1_555
C48_4 C46_4 1_555 1_555
O36_2 C41_4 1_555 1_555
O24_4 C48_4 1_555 1_555
O25_4 Gd1_4 1_555 1_555
C56_4 C54_4 1_555 1_555
O28_4 Gd10_2 1_555 1_555
O29_4 Gd10_2 1_555 1_555
C6_4 C7_4 1_555 1_555
C17_4 O9_4 1_555 1_555
C25_4 O13_4 1_555 1_555
C30_4 C31_4 1_555 1_555
C38_4 C39_4 1_555 1_555
C40_4 O20_4 1_555 1_555
C40_4 O21_4 1_555 1_555
C41_4 O35_2 1_555 1_555
C46_4 C47_4 1_555 1_555
C48_4 O25_4 1_555 1_555
C56_4 O28_4 1_555 1_555
C56_4 O29_4 1_555 1_555

#END
