
###############################################################################
#
# This file contains modified crystal structure data generated from the
# MOF subset of the Cambridge Structural Database (CSD) v543 
# hosted by the Cambridge Crystallographic Data Centre (CCDC).
#
# This work is licensed under the Creative Commons
# Attribution-NonCommercial-ShareAlike 4.0 International License.
# To view a copy of this license, visit
# http://creativecommons.org/licenses/by-nc-sa/4.0/
# or send a letter to
# Creative Commons, PO Box 1866, Mountain View, CA 94042, USA.
#
# CIF created using the CSD Python API on 29 September 2022
# The structure has been converted into the P1 space group
# The structure has a 3D framework
# The original CSD entry JAKQIZ is in the monoclinic crystal system
# The framework has been calculated to contain at least 10.0% void space
# The void calculation uses a probe of radius 1.32A, grid spacing 0.4
# The framework is charged, counterions have been retained in the structure
#
###############################################################################

data_JAKQIZ
_chemical_formula_moiety         '(C188 H136 Mn12 N16 O82 P12 4-)n'
_symmetry_cell_setting           triclinic
_symmetry_space_group_name_H-M   'P 1'
_symmetry_Int_Tables_number      1
_space_group_name_Hall           'P 1'
loop_
_symmetry_equiv_pos_site_id
_symmetry_equiv_pos_as_xyz
1 x,y,z
_cell_length_a                   17.740(2)
_cell_length_b                   15.829(2)
_cell_length_c                   24.136(3)
_cell_angle_alpha                90
_cell_angle_beta                 90.285(2)
_cell_angle_gamma                90
_cell_volume                     6777.46
loop_
_atom_site_label
_atom_site_type_symbol
_atom_site_fract_x
_atom_site_fract_y
_atom_site_fract_z
Mn3 Mn 0.20585(3) 0.60470(4) 0.84252(2)
O20 O 0.0950(2) 0.5713(3) 0.81400(18)
O21 O 0.1067(2) 0.6532(4) 0.7412(2)
C34 C 0.0715(3) 0.6021(4) 0.7703(2)
Mn7 Mn 0.19649(4) 0.73826(4) 0.72250(3)
O23 O 0.16328(19) 0.72109(19) 0.87320(13)
O26 O 0.33063(17) 0.6402(2) 0.84776(13)
O27 O 0.27328(15) 0.65428(18) 0.76791(12)
O29 O 0.23198(18) 0.47253(18) 0.82119(12)
O30 O 0.2072(2) 0.5517(2) 0.92351(12)
O18 O 0.77212(17) 0.04232(19) 0.47222(13)
Mn4 Mn 0.76629(3) 0.11112(4) 0.39218(2)
Mn2 Mn 0.80351(4) 0.26174(4) 0.27750(3)
P1 P 0.63163(6) 0.55594(7) 0.59876(4)
P2 P 0.70755(6) 0.52483(7) 0.69459(4)
P3 P 0.66218(6) 0.68707(7) 0.66906(4)
O1 O 0.56125(15) 0.51973(19) 0.56703(11)
O2 O 0.3252(2) 0.3026(2) 0.70161(14)
O3 O 0.33672(19) 0.22109(19) 0.62680(13)
O4 O 0.69625(15) 0.4669(2) 0.74794(12)
O5 O 0.38142(19) 0.4257(3) 0.87282(17)
O6 O 0.3852(3) 0.3133(4) 0.81933(17)
O7 O 0.61080(16) 0.75360(18) 0.70035(12)
O10 O 0.69013(15) 0.56493(17) 0.54923(11)
O11 O 0.79096(19) 0.23127(19) 0.42469(13)
O12 O 0.76914(19) 0.3173(2) 0.35274(13)
O13 O 0.6475(2) 0.1402(2) 0.41370(15)
O14 O 0.73198(18) 0.02747(18) 0.32119(12)
O15 O 0.7261(2) 0.1583(2) 0.29744(15)
O16 O 0.72846(15) 0.74822(19) 0.65029(11)
O17 O 0.7072(2) 0.9483(2) 0.42351(12)
O19 O 0.79166(15) 0.5002(2) 0.68004(13)
N1 N 0.61652(17) 0.6499(2) 0.61860(13)
N2 N 0.65907(18) 0.4910(2) 0.64397(14)
N3 N 0.69897(19) 0.6209(2) 0.71137(14)
N4 N 0.5255(3) 0.1137(4) 0.4291(2)
C1 C 0.5092(2) 0.4623(3) 0.59035(17)
C2 C 0.4957(2) 0.3886(3) 0.56147(17)
H1 H 0.520727 0.377357 0.528531
C3 C 0.4716(2) 0.4825(3) 0.63813(17)
H2 H 0.480348 0.533404 0.656279
C4 C 0.4446(2) 0.3323(3) 0.58235(17)
H3 H 0.435647 0.281906 0.563600
C5 C 0.4201(2) 0.4243(3) 0.65844(17)
H4 H 0.394711 0.436191 0.691133
C6 C 0.4058(2) 0.3490(3) 0.63108(17)
C7 C 0.3516(2) 0.2864(3) 0.65519(18)
C8 C 0.6238(2) 0.4494(3) 0.76845(17)
C9 C 0.5857(3) 0.3809(4) 0.7497(2)
H5 H 0.605643 0.347587 0.721593
C10 C 0.5947(3) 0.4988(4) 0.8081(2)
H6 H 0.620771 0.546369 0.820192
C11 C 0.5172(3) 0.3614(4) 0.7726(2)
H7 H 0.491152 0.314392 0.759571
C12 C 0.5252(3) 0.4783(4) 0.8310(3)
H8 H 0.504538 0.512062 0.858564
C13 C 0.4870(3) 0.4070(3) 0.81243(19)
C14 C 0.4112(3) 0.3816(4) 0.8369(2)
C15 C 0.5408(2) 0.7298(3) 0.72340(17)
C16 C 0.4780(2) 0.7236(3) 0.69160(17)
H9 H 0.480254 0.735354 0.653889
C17 C 0.5378(3) 0.7145(4) 0.78049(19)
H10 H 0.580931 0.719135 0.802337
C18 C 0.4101(2) 0.6996(3) 0.71562(18)
H11 H 0.367333 0.693270 0.693545
C19 C 0.4703(3) 0.6925(4) 0.8036(2)
H12 H 0.467576 0.682186 0.841428
C20 C 0.4057(2) 0.6854(3) 0.77110(18)
C21 C 0.3326(2) 0.6594(3) 0.79760(18)
C22 C 0.7256(2) 0.8042(3) 0.60429(17)
C23 C 0.7151(3) 0.7745(3) 0.55167(17)
H13 H 0.706424 0.717292 0.545781
C24 C 0.7413(3) 0.8885(3) 0.61439(17)
H14 H 0.748452 0.907940 0.650404
C25 C 0.7175(3) 0.8299(3) 0.50677(17)
H15 H 0.707929 0.810633 0.471015
C26 C 0.7461(3) 0.9422(3) 0.57080(18)
H16 H 0.757505 0.998736 0.577304
C27 C 0.7382(2) 0.9725(3) 0.46737(17)
C28 C 0.8570(2) 0.5288(3) 0.7083(2)
C29 C 0.8946(3) 0.4766(4) 0.7411(2)
H17 H 0.874782 0.424059 0.750151
C30 C 0.8869(4) 0.6018(5) 0.6909(4)
H18 H 0.861358 0.636786 0.666191
C31 C 0.9639(3) 0.5016(5) 0.7615(3)
H19 H 0.989503 0.464893 0.785089
C32 C 0.9582(4) 0.6228(5) 0.7115(4)
H20 H 0.981096 0.671866 0.698741
C33 C 0.9958(2) 0.5743(3) 0.7496(2)
C35 C 0.7106(2) 0.4976(2) 0.51466(17)
C36 C 0.6900(3) 0.5009(4) 0.4615(2)
H21 H 0.660507 0.545650 0.448990
C37 C 0.7559(3) 0.4336(3) 0.5343(2)
H22 H 0.773945 0.433993 0.570521
C38 C 0.7123(3) 0.4381(4) 0.4244(2)
H23 H 0.699564 0.442099 0.387100
C39 C 0.7739(3) 0.3676(3) 0.4976(2)
H24 H 0.800535 0.320989 0.510602
C40 C 0.7528(2) 0.3711(3) 0.44324(17)
C41 C 0.7721(2) 0.3001(3) 0.4028(2)
C42 C 0.7208(3) 0.0817(3) 0.28503(19)
C43 C 0.6981(4) 0.0565(5) 0.2263(2)
H26 H 0.728430 0.086887 0.200214
H27 H 0.645937 0.069763 0.220322
C44 C 0.5922(3) 0.0985(4) 0.4066(2)
H28 H 0.596161 0.051722 0.383503
C45 C 0.5132(4) 0.1863(6) 0.4636(3)
H29 H 0.494851 0.168433 0.499037
H30 H 0.476837 0.222783 0.446313
H31 H 0.559871 0.216260 0.468434
C46 C 0.4624(4) 0.0584(8) 0.4178(5)
H32 H 0.417451 0.091468 0.413299
H33 H 0.456128 0.019887 0.448179
H34 H 0.471798 0.027106 0.384490
C47 C 0.7345(2) 0.9151(3) 0.51656(16)
Mn5 Mn 0.26629(3) 0.38888(4) 0.89218(2)
Mn8 Mn 0.30351(4) 0.23826(4) 0.77750(3)
Mn10 Mn 0.29415(3) 0.10470(4) 0.65748(2)
Mn12 Mn 0.70585(3) 0.89530(4) 0.34252(2)
O22 O 0.8252(2) 0.1974(2) 0.20161(14)
O24 O 0.88142(19) 0.0743(3) 0.37282(17)
O25 O 0.8852(3) 0.1867(4) 0.31933(17)
O28 O 0.72672(15) 0.34572(18) 0.23209(12)
O32 O 0.8933(2) 0.3468(4) 0.2588(2)
H25 H 0.705767 0.996892 0.221525
O8 O 0.16937(17) 0.1402(2) 0.65224(13)
O9 O 0.22672(15) 0.15428(18) 0.73209(12)
H2_2 H 0.019652 0.033404 0.843721
C16_2 C 0.0220(2) 0.2236(3) 0.80840(17)
H9_2 H 0.019746 0.235354 0.846111
C18_2 C 0.0899(2) 0.1996(3) 0.78438(18)
H11_2 H 0.132667 0.193270 0.806455
C19_2 C 0.0297(3) 0.1925(4) 0.6964(2)
H12_2 H 0.032424 0.182186 0.658572
C20_2 C 0.0943(2) 0.1854(3) 0.72890(18)
C21_2 C 0.1674(2) 0.1594(3) 0.70240(18)
O2_2 O 0.1748(2) 0.8026(2) 0.79839(14)
O5_2 O 0.11858(19) 0.9257(3) 0.62718(17)
O6_2 O 0.1148(3) 0.8133(4) 0.68067(17)
C2_2 C 0.0043(2) 0.8886(3) 0.93853(17)
C3_2 C 0.0284(2) 0.9825(3) 0.86187(17)
C4_2 C 0.0554(2) 0.8323(3) 0.91765(17)
H3_2 H 0.064353 0.781906 0.936400
C5_2 C 0.0799(2) 0.9243(3) 0.84156(17)
H4_2 H 0.105289 0.936191 0.808867
C6_2 C 0.0942(2) 0.8490(3) 0.86892(17)
C7_2 C 0.1484(2) 0.7864(3) 0.84481(18)
H7_2 H 0.008848 0.814392 0.740429
C13_2 C 0.0130(3) 0.9070(3) 0.68757(19)
C14_2 C 0.0888(3) 0.8816(4) 0.6631(2)
Mn5_2 Mn 0.23371(3) 0.88888(4) 0.60782(2)
O17_2 O 0.7928(2) 0.4483(2) 0.07649(12)
O18_2 O 0.72788(17) 0.54232(19) 0.02778(13)
H15_2 H 0.792071 0.310633 0.028985
C27_2 C 0.7618(2) 0.4725(3) 0.03263(17)
C36_2 C 0.8100(3) 0.0009(4) 0.0385(2)
H21_2 H 0.839493 0.045650 0.051010
Mn4_2 Mn 0.73371(3) 0.61112(4) 0.10782(2)
Mn12_2 Mn 0.79415(3) 0.39530(4) 0.15748(2)
P1_2 P 0.86837(6) 0.05594(7) 0.90124(4)
P2_2 P 0.79245(6) 0.02483(7) 0.80541(4)
P3_2 P 0.83782(6) 0.18707(7) 0.83094(4)
O1_2 O 0.93875(15) 0.01973(19) 0.93297(11)
O7_2 O 0.88920(16) 0.25360(18) 0.79965(12)
O10_2 O 0.80987(15) 0.06493(17) 0.95077(11)
O16_2 O 0.77154(15) 0.24822(19) 0.84971(11)
O19_2 O 0.70834(15) 0.0002(2) 0.81996(13)
O20_2 O 0.4050(2) 0.0713(3) 0.68600(18)
O21_2 O 0.3933(2) 0.1532(4) 0.7588(2)
N1_2 N 0.88348(17) 0.1499(2) 0.88140(13)
N3_2 N 0.80103(19) 0.1209(2) 0.78863(14)
H6_2 H 0.879229 0.046369 0.679808
H8_2 H 0.995462 0.012062 0.641436
C15_2 C 0.9592(2) 0.2298(3) 0.77660(17)
C17_2 C 0.9622(3) 0.2145(4) 0.71951(19)
H10_2 H 0.919069 0.219135 0.697663
C22_2 C 0.7744(2) 0.3042(3) 0.89571(17)
C23_2 C 0.7849(3) 0.2745(3) 0.94833(17)
H13_2 H 0.793576 0.217292 0.954219
C24_2 C 0.7587(3) 0.3885(3) 0.88561(17)
H14_2 H 0.751548 0.407940 0.849596
C25_2 C 0.7825(3) 0.3299(3) 0.99323(17)
C26_2 C 0.7539(3) 0.4422(3) 0.92920(18)
H16_2 H 0.742495 0.498736 0.922696
C28_2 C 0.6430(2) 0.0288(3) 0.7917(2)
C30_2 C 0.6131(4) 0.1018(5) 0.8091(4)
H18_2 H 0.638642 0.136786 0.833809
C31_2 C 0.5361(3) 0.0016(5) 0.7385(3)
C32_2 C 0.5418(4) 0.1228(5) 0.7885(4)
H20_2 H 0.518904 0.171866 0.801259
C33_2 C 0.5042(2) 0.0743(3) 0.7504(2)
C34_2 C 0.4285(3) 0.1021(4) 0.7297(2)
C47_2 C 0.7655(2) 0.4151(3) 0.98344(16)
O30_2 O 0.2928(2) 0.0517(2) 0.57649(12)
Mn2_2 Mn 0.69649(4) 0.76174(4) 0.22250(3)
O11_2 O 0.70904(19) 0.73127(19) 0.07531(13)
O12_2 O 0.73086(19) 0.8173(2) 0.14726(13)
O13_2 O 0.8525(2) 0.6402(2) 0.08630(15)
O14_2 O 0.76802(18) 0.52747(18) 0.17881(12)
O15_2 O 0.7739(2) 0.6583(2) 0.20256(15)
N4_2 N 0.9745(3) 0.6137(4) 0.0709(2)
C38_2 C 0.7877(3) 0.9381(4) 0.0756(2)
H23_2 H 0.800436 0.942099 0.112900
C39_2 C 0.7261(3) 0.8676(3) 0.0024(2)
C40_2 C 0.7472(2) 0.8711(3) 0.05676(17)
C41_2 C 0.7279(2) 0.8001(3) 0.0972(2)
C42_2 C 0.7792(3) 0.5817(3) 0.21497(19)
C43_2 C 0.8019(4) 0.5565(5) 0.2737(2)
H25_2 H 0.794233 0.496892 0.278475
H26_2 H 0.771570 0.586887 0.299786
H27_2 H 0.854063 0.569763 0.279678
C44_2 C 0.9078(3) 0.5985(4) 0.0934(2)
H28_2 H 0.903839 0.551722 0.116497
C45_2 C 0.9868(4) 0.6863(6) 0.0364(3)
H31_2 H 0.940129 0.716260 0.031566
O22_2 O 0.6748(2) 0.6974(2) 0.29839(14)
O24_2 O 0.61858(19) 0.5743(3) 0.12718(17)
O25_2 O 0.6148(3) 0.6867(4) 0.18067(17)
O28_2 O 0.77328(15) 0.84572(18) 0.26791(12)
O32_2 O 0.6067(2) 0.8468(4) 0.2412(2)
O4_2 O 0.80375(15) 0.9669(2) 0.75206(12)
N2_2 N 0.84093(18) 0.9910(2) 0.85603(14)
C1_2 C 0.9908(2) 0.9623(3) 0.90965(17)
H1_2 H 0.979273 0.877357 0.971469
C8_2 C 0.8762(2) 0.9494(3) 0.73155(17)
C9_2 C 0.9143(3) 0.8809(4) 0.7503(2)
H5_2 H 0.894357 0.847587 0.778407
C10_2 C 0.9053(3) 0.9988(4) 0.6919(2)
C11_2 C 0.9828(3) 0.8614(4) 0.7274(2)
C12_2 C 0.9748(3) 0.9783(4) 0.6690(3)
C29_2 C 0.6054(3) 0.9766(4) 0.7589(2)
H17_2 H 0.625218 0.924059 0.749849
H19_2 H 0.510497 0.964893 0.714911
C35_2 C 0.7894(2) 0.9976(2) 0.98534(17)
C37_2 C 0.7441(3) 0.9336(3) 0.9657(2)
H22_2 H 0.726055 0.933993 0.929479
H24_2 H 0.699465 0.820989 0.989398
O29_2 O 0.26802(18) 0.97253(18) 0.67881(12)
H25_3 H 0.294233 0.003108 0.778475
P1_3 P 0.36837(6) 0.44406(7) 0.40124(4)
P2_3 P 0.29245(6) 0.47517(7) 0.30541(4)
P3_3 P 0.33782(6) 0.31293(7) 0.33094(4)
O1_3 O 0.43875(15) 0.48027(19) 0.43297(11)
O3_2 O 0.66328(19) 0.77891(19) 0.37320(13)
O4_3 O 0.30375(15) 0.5331(2) 0.25206(12)
O7_3 O 0.38920(16) 0.24640(18) 0.29965(12)
O8_2 O 0.66937(17) 0.3598(2) 0.15224(13)
O10_3 O 0.30987(15) 0.43507(17) 0.45077(11)
O11_3 O 0.20904(19) 0.76873(19) 0.57531(13)
O12_3 O 0.23086(19) 0.6827(2) 0.64726(13)
O13_3 O 0.3525(2) 0.8598(2) 0.58630(15)
O15_3 O 0.2739(2) 0.8417(2) 0.70256(15)
O16_3 O 0.27154(15) 0.25178(19) 0.34971(11)
O19_3 O 0.20834(15) 0.4998(2) 0.31996(13)
N1_3 N 0.38348(17) 0.3501(2) 0.38140(13)
N2_3 N 0.34093(18) 0.5090(2) 0.35603(14)
N3_3 N 0.30103(19) 0.3791(2) 0.28863(14)
N4_3 N 0.4745(3) 0.8863(4) 0.5709(2)
C1_3 C 0.4908(2) 0.5377(3) 0.40965(17)
C2_3 C 0.5043(2) 0.6114(3) 0.43853(17)
H1_3 H 0.479273 0.622643 0.471469
C3_3 C 0.5284(2) 0.5175(3) 0.36187(17)
H2_3 H 0.519652 0.466596 0.343721
C4_3 C 0.5554(2) 0.6677(3) 0.41765(17)
H3_3 H 0.564353 0.718094 0.436400
C5_3 C 0.5799(2) 0.5757(3) 0.34156(17)
H4_3 H 0.605289 0.563809 0.308867
C6_3 C 0.5942(2) 0.6510(3) 0.36892(17)
C7_3 C 0.6484(2) 0.7136(3) 0.34481(18)
C8_3 C 0.3762(2) 0.5506(3) 0.23155(17)
C9_3 C 0.4143(3) 0.6191(4) 0.2503(2)
H5_3 H 0.394357 0.652413 0.278407
C10_3 C 0.4053(3) 0.5012(4) 0.1919(2)
H6_3 H 0.379229 0.453631 0.179808
C11_3 C 0.4828(3) 0.6386(4) 0.2274(2)
H7_3 H 0.508848 0.685608 0.240429
C12_3 C 0.4748(3) 0.5217(4) 0.1690(3)
H8_3 H 0.495462 0.487938 0.141436
C13_3 C 0.5130(3) 0.5930(3) 0.18757(19)
C14_3 C 0.5888(3) 0.6184(4) 0.1631(2)
C15_3 C 0.4592(2) 0.2702(3) 0.27660(17)
C16_3 C 0.5220(2) 0.2764(3) 0.30840(17)
H9_3 H 0.519746 0.264646 0.346111
C17_3 C 0.4622(3) 0.2855(4) 0.21951(19)
H10_3 H 0.419069 0.280865 0.197663
C18_3 C 0.5899(2) 0.3004(3) 0.28438(18)
H11_3 H 0.632667 0.306730 0.306455
C19_3 C 0.5297(3) 0.3075(4) 0.1964(2)
H12_3 H 0.532424 0.317814 0.158572
C20_3 C 0.5943(2) 0.3146(3) 0.22890(18)
C21_3 C 0.6674(2) 0.3406(3) 0.20240(18)
C22_3 C 0.2744(2) 0.1958(3) 0.39571(17)
C23_3 C 0.2849(3) 0.2255(3) 0.44833(17)
H13_3 H 0.293576 0.282708 0.454219
C24_3 C 0.2587(3) 0.1115(3) 0.38561(17)
H14_3 H 0.251548 0.092060 0.349596
C25_3 C 0.2825(3) 0.1701(3) 0.49323(17)
H15_3 H 0.292071 0.189367 0.528985
C26_3 C 0.2539(3) 0.0578(3) 0.42920(18)
H16_3 H 0.242495 0.001264 0.422696
C27_3 C 0.2618(2) 0.0275(3) 0.53263(17)
C28_3 C 0.1430(2) 0.4712(3) 0.2917(2)
C29_3 C 0.1054(3) 0.5234(4) 0.2589(2)
H17_3 H 0.125218 0.575941 0.249849
C30_3 C 0.1131(4) 0.3982(5) 0.3091(4)
H18_3 H 0.138642 0.363214 0.333809
C31_3 C 0.0361(3) 0.4984(5) 0.2385(3)
H19_3 H 0.010497 0.535107 0.214911
C32_3 C 0.0418(4) 0.3772(5) 0.2885(4)
H20_3 H 0.018904 0.328134 0.301259
C33_3 C 0.0042(2) 0.4257(3) 0.2504(2)
C35_3 C 0.2894(2) 0.5024(2) 0.48534(17)
C36_3 C 0.3100(3) 0.4991(4) 0.5385(2)
H21_3 H 0.339493 0.454350 0.551010
C37_3 C 0.2441(3) 0.5664(3) 0.4657(2)
H22_3 H 0.226055 0.566007 0.429479
C38_3 C 0.2877(3) 0.5619(4) 0.5756(2)
H23_3 H 0.300436 0.557901 0.612900
C39_3 C 0.2261(3) 0.6324(3) 0.5024(2)
H24_3 H 0.199465 0.679011 0.489398
C40_3 C 0.2472(2) 0.6289(3) 0.55676(17)
C41_3 C 0.2279(2) 0.6999(3) 0.5972(2)
C42_3 C 0.2792(3) 0.9183(3) 0.71497(19)
C43_3 C 0.3019(4) 0.9435(5) 0.7737(2)
H26_3 H 0.271570 0.913113 0.799786
H27_3 H 0.354063 0.930237 0.779678
C44_3 C 0.4078(3) 0.9015(4) 0.5934(2)
H28_3 H 0.403839 0.948278 0.616497
C45_3 C 0.4868(4) 0.8137(6) 0.5364(3)
H29_2 H 0.505149 0.831567 0.500963
H30_2 H 0.523163 0.777217 0.553687
H31_3 H 0.440129 0.783740 0.531566
C46_2 C 0.5376(4) 0.9416(8) 0.5822(5)
H32_2 H 0.582549 0.908532 0.586701
H33_2 H 0.543872 0.980113 0.551821
H34_2 H 0.528202 0.972894 0.615510
C47_3 C 0.2655(2) 0.0849(3) 0.48344(16)
O31 O 0.22788(17) 0.95768(19) 0.52778(13)
O20_3 O 0.9050(2) 0.4287(3) 0.18600(18)
C34_3 C 0.9285(3) 0.3979(4) 0.2297(2)
O23_2 O 0.83672(19) 0.27891(19) 0.12680(13)
O4_4 O 0.19625(15) 0.0331(2) 0.24794(12)
N2_4 N 0.15907(18) 0.0090(2) 0.14397(14)
C1_4 C 0.0092(2) 0.0377(3) 0.09035(17)
H1_4 H 0.020727 0.122643 0.028531
C8_4 C 0.1238(2) 0.0506(3) 0.26845(17)
C9_4 C 0.0857(3) 0.1191(4) 0.2497(2)
H5_4 H 0.105643 0.152413 0.221593
C10_4 C 0.0947(3) 0.0012(4) 0.3081(2)
C11_4 C 0.0172(3) 0.1386(4) 0.2726(2)
C12_4 C 0.0252(3) 0.0217(4) 0.3310(3)
C29_4 C 0.3946(3) 0.0234(4) 0.2411(2)
H17_4 H 0.374782 0.075941 0.250151
H19_4 H 0.489503 0.035107 0.285089
C35_4 C 0.2106(2) 0.0024(2) 0.01466(17)
C37_4 C 0.2559(3) 0.0664(3) 0.0343(2)
H22_4 H 0.273945 0.066007 0.070521
H24_4 H 0.300535 0.179011 0.010602
O11_4 O 0.29096(19) 0.26873(19) 0.92469(13)
O12_4 O 0.26914(19) 0.1827(2) 0.85274(13)
O13_4 O 0.1475(2) 0.3598(2) 0.91370(15)
O15_4 O 0.2261(2) 0.3417(2) 0.79744(15)
N4_4 N 0.0255(3) 0.3863(4) 0.9291(2)
C38_4 C 0.2123(3) 0.0619(4) 0.9244(2)
H23_4 H 0.199564 0.057901 0.887100
C39_4 C 0.2739(3) 0.1324(3) 0.9976(2)
C40_4 C 0.2528(2) 0.1289(3) 0.94324(17)
C41_4 C 0.2721(2) 0.1999(3) 0.9028(2)
C42_4 C 0.2208(3) 0.4183(3) 0.78503(19)
C43_4 C 0.1981(4) 0.4435(5) 0.7263(2)
H25_4 H 0.205767 0.503108 0.721525
H26_4 H 0.228430 0.413113 0.700214
H27_4 H 0.145937 0.430237 0.720322
C44_4 C 0.0922(3) 0.4015(4) 0.9066(2)
H28_4 H 0.096161 0.448278 0.883503
C45_4 C 0.0132(4) 0.3137(6) 0.9636(3)
H31_4 H 0.059871 0.283740 0.968434
O31_2 O 0.27212(17) 0.45768(19) 0.97222(13)
P1_4 P 0.13163(6) 0.94406(7) 0.09876(4)
P2_4 P 0.20755(6) 0.97517(7) 0.19459(4)
P3_4 P 0.16218(6) 0.81293(7) 0.16906(4)
O1_4 O 0.06125(15) 0.98027(19) 0.06703(11)
O7_4 O 0.11080(16) 0.74640(18) 0.20035(12)
O10_4 O 0.19013(15) 0.93507(17) 0.04923(11)
O16_4 O 0.22846(15) 0.75178(19) 0.15029(11)
O19_4 O 0.29166(15) 0.9998(2) 0.18004(13)
O20_4 O 0.5950(2) 0.9287(3) 0.31400(18)
N1_4 N 0.11652(17) 0.8501(2) 0.11860(13)
N3_4 N 0.19897(19) 0.8791(2) 0.21137(14)
H6_4 H 0.120771 0.953631 0.320192
H8_4 H 0.004538 0.987938 0.358564
C15_4 C 0.0408(2) 0.7702(3) 0.22340(17)
C17_4 C 0.0378(3) 0.7855(4) 0.28049(19)
H10_4 H 0.080931 0.780865 0.302337
C22_4 C 0.2256(2) 0.6958(3) 0.10429(17)
C23_4 C 0.2151(3) 0.7255(3) 0.05167(17)
H13_4 H 0.206424 0.782708 0.045781
C24_4 C 0.2413(3) 0.6115(3) 0.11439(17)
H14_4 H 0.248452 0.592060 0.150404
C25_4 C 0.2175(3) 0.6701(3) 0.00677(17)
C26_4 C 0.2461(3) 0.5578(3) 0.07080(18)
H16_4 H 0.257505 0.501264 0.077304
C28_4 C 0.3570(2) 0.9712(3) 0.2083(2)
C30_4 C 0.3869(4) 0.8982(5) 0.1909(4)
H18_4 H 0.361358 0.863214 0.166191
C31_4 C 0.4639(3) 0.9984(5) 0.2615(3)
C32_4 C 0.4582(4) 0.8772(5) 0.2115(4)
H20_4 H 0.481096 0.828134 0.198741
C33_4 C 0.4958(2) 0.9257(3) 0.2496(2)
C34_4 C 0.5715(3) 0.8979(4) 0.2703(2)
C47_4 C 0.2345(2) 0.5849(3) 0.01656(16)
O26_2 O 0.83063(17) 0.8598(2) 0.34776(13)
H15_4 H 0.207929 0.689367 0.971015
C27_4 C 0.2382(2) 0.5275(3) 0.96737(17)
C36_4 C 0.1900(3) 0.9991(4) 0.9615(2)
H21_4 H 0.160507 0.954350 0.948990
C2_4 C 0.9957(2) 0.1114(3) 0.06147(17)
C3_4 C 0.9716(2) 0.0175(3) 0.13813(17)
C4_4 C 0.9446(2) 0.1677(3) 0.08235(17)
H3_4 H 0.935647 0.218094 0.063600
C5_4 C 0.9201(2) 0.0757(3) 0.15844(17)
H4_4 H 0.894711 0.063809 0.191133
C6_4 C 0.9058(2) 0.1510(3) 0.13108(17)
C7_4 C 0.8516(2) 0.2136(3) 0.15519(18)
H7_4 H 0.991152 0.185608 0.259571
C13_4 C 0.9870(3) 0.0930(3) 0.31243(19)
C14_4 C 0.9112(3) 0.1184(4) 0.3369(2)
H2_4 H 0.980348 0.966596 0.156279
C16_4 C 0.9780(2) 0.7764(3) 0.19160(17)
H9_4 H 0.980254 0.764646 0.153889
C18_4 C 0.9101(2) 0.8004(3) 0.21562(18)
H11_4 H 0.867333 0.806730 0.193545
C19_4 C 0.9703(3) 0.8075(4) 0.3036(2)
H12_4 H 0.967576 0.817814 0.341428
C20_4 C 0.9057(2) 0.8146(3) 0.27110(18)
C21_4 C 0.8326(2) 0.8406(3) 0.29760(18)
H29_3 H 0.005149 0.668433 0.000963
H30_3 H 0.023163 0.722783 0.053687
C46_3 C 0.0376(4) 0.5584(8) 0.0822(5)
H32_3 H 0.082549 0.591468 0.086701
H33_3 H 0.043872 0.519887 0.051821
H34_3 H 0.028202 0.527106 0.115510
H29_4 H 0.994851 0.331567 0.999037
H30_4 H 0.976837 0.277217 0.946313
C46_4 C 0.9624(4) 0.4416(8) 0.9178(5)
H32_4 H 0.917451 0.408532 0.913299
H33_4 H 0.956128 0.480113 0.948179
H34_4 H 0.971798 0.472894 0.884490
loop_
_geom_bond_atom_site_label_1
_geom_bond_atom_site_label_2
_geom_bond_site_symmetry_1
_geom_bond_site_symmetry_2
Mn3 O20 1_555 1_555
O20 C34 1_555 1_555
O21 C34 1_555 1_555
Mn7 O21 1_555 1_555
O23 Mn3 1_555 1_555
O26 Mn3 1_555 1_555
O27 Mn3 1_555 1_555
O29 Mn3 1_555 1_555
O30 Mn3 1_555 1_555
Mn7 O27 1_555 1_555
Mn4 O18 1_555 1_555
Mn4 O11 1_555 1_555
Mn2 O12 1_555 1_555
P1 O1 1_555 1_555
P2 O4 1_555 1_555
P3 O7 1_555 1_555
O1 C1 1_555 1_555
O2 C7 1_555 1_555
O3 C7 1_555 1_555
O4 C8 1_555 1_555
O5 C14 1_555 1_555
O6 C14 1_555 1_555
O7 C15 1_555 1_555
O26 C21 1_555 1_555
O27 C21 1_555 1_555
O10 P1 1_555 1_555
O11 C41 1_555 1_555
O12 C41 1_555 1_555
O13 Mn4 1_555 1_555
O14 Mn4 1_555 1_555
O15 Mn2 1_555 1_555
O16 P3 1_555 1_555
O17 C27 1_555 1_555
O19 P2 1_555 1_555
N1 P1 1_555 1_555
N2 P1 1_555 1_555
N3 P2 1_555 1_555
N4 C44 1_555 1_555
C1 C2 1_555 1_555
C2 H1 1_555 1_555
C3 C1 1_555 1_555
H2 C3 1_555 1_555
C4 C2 1_555 1_555
H3 C4 1_555 1_555
C5 C3 1_555 1_555
H4 C5 1_555 1_555
C6 C4 1_555 1_555
C7 C6 1_555 1_555
C8 C9 1_555 1_555
C9 H5 1_555 1_555
C10 C8 1_555 1_555
H6 C10 1_555 1_555
C11 C9 1_555 1_555
H7 C11 1_555 1_555
C12 C10 1_555 1_555
H8 C12 1_555 1_555
C13 C11 1_555 1_555
C14 C13 1_555 1_555
C15 C16 1_555 1_555
C16 H9 1_555 1_555
C17 C15 1_555 1_555
H10 C17 1_555 1_555
C18 C16 1_555 1_555
H11 C18 1_555 1_555
C19 C17 1_555 1_555
H12 C19 1_555 1_555
C20 C18 1_555 1_555
C21 C20 1_555 1_555
C22 O16 1_555 1_555
C23 C22 1_555 1_555
H13 C23 1_555 1_555
C24 C22 1_555 1_555
H14 C24 1_555 1_555
C25 C23 1_555 1_555
H15 C25 1_555 1_555
C26 C24 1_555 1_555
H16 C26 1_555 1_555
C27 C47 1_555 1_555
C28 O19 1_555 1_555
C29 C28 1_555 1_555
H17 C29 1_555 1_555
C30 C28 1_555 1_555
H18 C30 1_555 1_555
C31 C29 1_555 1_555
H19 C31 1_555 1_555
C32 C30 1_555 1_555
H20 C32 1_555 1_555
C33 C31 1_555 1_555
C35 O10 1_555 1_555
C36 C35 1_555 1_555
H21 C36 1_555 1_555
C37 C35 1_555 1_555
H22 C37 1_555 1_555
C38 C36 1_555 1_555
H23 C38 1_555 1_555
C39 C37 1_555 1_555
H24 C39 1_555 1_555
C40 C38 1_555 1_555
C41 C40 1_555 1_555
C42 O14 1_555 1_555
C43 C42 1_555 1_555
H26 C43 1_555 1_555
H27 C43 1_555 1_555
C44 O13 1_555 1_555
H28 C44 1_555 1_555
C45 N4 1_555 1_555
H29 C45 1_555 1_555
H30 C45 1_555 1_555
H31 C45 1_555 1_555
C46 N4 1_555 1_555
H32 C46 1_555 1_555
H33 C46 1_555 1_555
H34 C46 1_555 1_555
C47 C25 1_555 1_555
Mn5 O5 1_555 1_555
Mn8 O2 1_555 1_555
Mn10 O3 1_555 1_555
Mn12 O17 1_555 1_555
O22 Mn2 1_555 1_555
O24 Mn4 1_555 1_555
O25 Mn2 1_555 1_555
O28 Mn2 1_555 1_555
O32 Mn2 1_555 1_555
P2 N2 1_555 1_555
P3 N1 1_555 1_555
P3 N3 1_555 1_555
O6 Mn8 1_555 1_555
O15 C42 1_555 1_555
C5 C6 1_555 1_555
C12 C13 1_555 1_555
C19 C20 1_555 1_555
C26 C47 1_555 1_555
C32 C33 1_555 1_555
C39 C40 1_555 1_555
O8 C21_2 1_555 1_555
O9 C21_2 1_555 1_555
C16_2 H9_2 1_555 1_555
C18_2 C16_2 1_555 1_555
H11_2 C18_2 1_555 1_555
H12_2 C19_2 1_555 1_555
C20_2 C18_2 1_555 1_555
C21_2 C20_2 1_555 1_555
Mn8 O9 1_555 1_555
Mn10 O8 1_555 1_555
O9 Mn10 1_555 1_555
C19_2 C20_2 1_555 1_555
O2_2 C7_2 1_555 1_555
O23 C7_2 1_555 1_555
O5_2 C14_2 1_555 1_555
O6_2 C14_2 1_555 1_555
C4_2 C2_2 1_555 1_555
H3_2 C4_2 1_555 1_555
C5_2 C3_2 1_555 1_555
H4_2 C5_2 1_555 1_555
C6_2 C4_2 1_555 1_555
C7_2 C6_2 1_555 1_555
C14_2 C13_2 1_555 1_555
Mn5_2 O5_2 1_555 1_555
Mn7 O2_2 1_555 1_555
O6_2 Mn7 1_555 1_555
C5_2 C6_2 1_555 1_555
O17_2 C27_2 1_555 1_555
O18_2 C27_2 1_555 1_555
H21_2 C36_2 1_555 1_555
Mn4_2 O18_2 1_555 1_555
Mn12_2 O17_2 1_555 1_555
Mn10 O20_2 1_555 1_555
P1_2 O1_2 1_555 1_555
P3_2 O7_2 1_555 1_555
O7_2 C15_2 1_555 1_555
O10_2 P1_2 1_555 1_555
O16_2 P3_2 1_555 1_555
O19_2 P2_2 1_555 1_555
O20_2 C34_2 1_555 1_555
O21_2 C34_2 1_555 1_555
N1_2 P1_2 1_555 1_555
N3_2 P2_2 1_555 1_555
C17_2 C15_2 1_555 1_555
H10_2 C17_2 1_555 1_555
C22_2 O16_2 1_555 1_555
C23_2 C22_2 1_555 1_555
H13_2 C23_2 1_555 1_555
C24_2 C22_2 1_555 1_555
H14_2 C24_2 1_555 1_555
C25_2 C23_2 1_555 1_555
C26_2 C24_2 1_555 1_555
H16_2 C26_2 1_555 1_555
C28_2 O19_2 1_555 1_555
C30_2 C28_2 1_555 1_555
H18_2 C30_2 1_555 1_555
C32_2 C30_2 1_555 1_555
H20_2 C32_2 1_555 1_555
C33_2 C31_2 1_555 1_555
C34_2 C33_2 1_555 1_555
C47_2 C25_2 1_555 1_555
Mn8 O21_2 1_555 1_555
O30_2 Mn10 1_555 1_555
P3_2 N1_2 1_555 1_555
P3_2 N3_2 1_555 1_555
C26_2 C47_2 1_555 1_555
C32_2 C33_2 1_555 1_555
Mn4_2 O11_2 1_555 1_555
Mn2_2 O12_2 1_555 1_555
O11_2 C41_2 1_555 1_555
O12_2 C41_2 1_555 1_555
O13_2 Mn4_2 1_555 1_555
O14_2 Mn4_2 1_555 1_555
O15_2 Mn2_2 1_555 1_555
N4_2 C44_2 1_555 1_555
H23_2 C38_2 1_555 1_555
C40_2 C38_2 1_555 1_555
C41_2 C40_2 1_555 1_555
C42_2 O14_2 1_555 1_555
C43_2 C42_2 1_555 1_555
H25_2 C43_2 1_555 1_555
H26_2 C43_2 1_555 1_555
H27_2 C43_2 1_555 1_555
C44_2 O13_2 1_555 1_555
H28_2 C44_2 1_555 1_555
C45_2 N4_2 1_555 1_555
H31_2 C45_2 1_555 1_555
Mn12_2 O14_2 1_555 1_555
O22_2 Mn2_2 1_555 1_555
O24_2 Mn4_2 1_555 1_555
O25_2 Mn2_2 1_555 1_555
O28_2 Mn2_2 1_555 1_555
O32_2 Mn2_2 1_555 1_555
O15_2 C42_2 1_555 1_555
C39_2 C40_2 1_555 1_555
O4_2 C8_2 1_555 1_555
C8_2 C9_2 1_555 1_555
C9_2 H5_2 1_555 1_555
C10_2 C8_2 1_555 1_555
C11_2 C9_2 1_555 1_555
C12_2 C10_2 1_555 1_555
H17_2 C29_2 1_555 1_555
C37_2 C35_2 1_555 1_555
H22_2 C37_2 1_555 1_555
Mn5_2 O11_3 1_555 1_555
Mn7 O12_3 1_555 1_555
P1_3 O1_3 1_555 1_555
P2_3 O4_3 1_555 1_555
P3_3 O7_3 1_555 1_555
O1_3 C1_3 1_555 1_555
O22_2 C7_3 1_555 1_555
O3_2 C7_3 1_555 1_555
O4_3 C8_3 1_555 1_555
O24_2 C14_3 1_555 1_555
O25_2 C14_3 1_555 1_555
O7_3 C15_3 1_555 1_555
O8_2 C21_3 1_555 1_555
O28 C21_3 1_555 1_555
O10_3 P1_3 1_555 1_555
O11_3 C41_3 1_555 1_555
O12_3 C41_3 1_555 1_555
O13_3 Mn5_2 1_555 1_555
O29_2 Mn5_2 1_555 1_555
O15_3 Mn7 1_555 1_555
O16_3 P3_3 1_555 1_555
O30_2 C27_3 1_555 1_555
O19_3 P2_3 1_555 1_555
N1_3 P1_3 1_555 1_555
N2_3 P1_3 1_555 1_555
N3_3 P2_3 1_555 1_555
N4_3 C44_3 1_555 1_555
C1_3 C2_3 1_555 1_555
C2_3 H1_3 1_555 1_555
C3_3 C1_3 1_555 1_555
H2_3 C3_3 1_555 1_555
C4_3 C2_3 1_555 1_555
H3_3 C4_3 1_555 1_555
C5_3 C3_3 1_555 1_555
H4_3 C5_3 1_555 1_555
C6_3 C4_3 1_555 1_555
C7_3 C6_3 1_555 1_555
C8_3 C9_3 1_555 1_555
C9_3 H5_3 1_555 1_555
C10_3 C8_3 1_555 1_555
H6_3 C10_3 1_555 1_555
C11_3 C9_3 1_555 1_555
H7_3 C11_3 1_555 1_555
C12_3 C10_3 1_555 1_555
H8_3 C12_3 1_555 1_555
C13_3 C11_3 1_555 1_555
C14_3 C13_3 1_555 1_555
C15_3 C16_3 1_555 1_555
C16_3 H9_3 1_555 1_555
C17_3 C15_3 1_555 1_555
H10_3 C17_3 1_555 1_555
C18_3 C16_3 1_555 1_555
H11_3 C18_3 1_555 1_555
C19_3 C17_3 1_555 1_555
H12_3 C19_3 1_555 1_555
C20_3 C18_3 1_555 1_555
C21_3 C20_3 1_555 1_555
C22_3 O16_3 1_555 1_555
C23_3 C22_3 1_555 1_555
H13_3 C23_3 1_555 1_555
C24_3 C22_3 1_555 1_555
H14_3 C24_3 1_555 1_555
C25_3 C23_3 1_555 1_555
H15_3 C25_3 1_555 1_555
C26_3 C24_3 1_555 1_555
H16_3 C26_3 1_555 1_555
C27_3 C47_3 1_555 1_555
C28_3 O19_3 1_555 1_555
C29_3 C28_3 1_555 1_555
H17_3 C29_3 1_555 1_555
C30_3 C28_3 1_555 1_555
H18_3 C30_3 1_555 1_555
C31_3 C29_3 1_555 1_555
H19_3 C31_3 1_555 1_555
C32_3 C30_3 1_555 1_555
H20_3 C32_3 1_555 1_555
C33_3 C31_3 1_555 1_555
C35_3 O10_3 1_555 1_555
C36_3 C35_3 1_555 1_555
H21_3 C36_3 1_555 1_555
C37_3 C35_3 1_555 1_555
H22_3 C37_3 1_555 1_555
C38_3 C36_3 1_555 1_555
H23_3 C38_3 1_555 1_555
C39_3 C37_3 1_555 1_555
H24_3 C39_3 1_555 1_555
C40_3 C38_3 1_555 1_555
C41_3 C40_3 1_555 1_555
C42_3 O29_2 1_555 1_555
C43_3 C42_3 1_555 1_555
H26_3 C43_3 1_555 1_555
H27_3 C43_3 1_555 1_555
C44_3 O13_3 1_555 1_555
H28_3 C44_3 1_555 1_555
C45_3 N4_3 1_555 1_555
H29_2 C45_3 1_555 1_555
H30_2 C45_3 1_555 1_555
H31_3 C45_3 1_555 1_555
C46_2 N4_3 1_555 1_555
H32_2 C46_2 1_555 1_555
H33_2 C46_2 1_555 1_555
H34_2 C46_2 1_555 1_555
C47_3 C25_3 1_555 1_555
Mn12_2 O8_2 1_555 1_555
Mn12 O3_2 1_555 1_555
O31 Mn5_2 1_555 1_555
P2_3 N2_3 1_555 1_555
P3_3 N1_3 1_555 1_555
P3_3 N3_3 1_555 1_555
O28 Mn12_2 1_555 1_555
O15_3 C42_3 1_555 1_555
C5_3 C6_3 1_555 1_555
C12_3 C13_3 1_555 1_555
C19_3 C20_3 1_555 1_555
C26_3 C47_3 1_555 1_555
C32_3 C33_3 1_555 1_555
C39_3 C40_3 1_555 1_555
Mn12_2 O20_3 1_555 1_555
O20_3 C34_3 1_555 1_555
O32 C34_3 1_555 1_555
O23_2 Mn12_2 1_555 1_555
O4_4 C8_4 1_555 1_555
C8_4 C9_4 1_555 1_555
C9_4 H5_4 1_555 1_555
C10_4 C8_4 1_555 1_555
C11_4 C9_4 1_555 1_555
C12_4 C10_4 1_555 1_555
H17_4 C29_4 1_555 1_555
C37_4 C35_4 1_555 1_555
H22_4 C37_4 1_555 1_555
Mn5 O11_4 1_555 1_555
Mn8 O12_4 1_555 1_555
O11_4 C41_4 1_555 1_555
O12_4 C41_4 1_555 1_555
O13_4 Mn5 1_555 1_555
O29 Mn5 1_555 1_555
O15_4 Mn8 1_555 1_555
N4_4 C44_4 1_555 1_555
H23_4 C38_4 1_555 1_555
C40_4 C38_4 1_555 1_555
C41_4 C40_4 1_555 1_555
C42_4 O29 1_555 1_555
C43_4 C42_4 1_555 1_555
H25_4 C43_4 1_555 1_555
H26_4 C43_4 1_555 1_555
H27_4 C43_4 1_555 1_555
C44_4 O13_4 1_555 1_555
H28_4 C44_4 1_555 1_555
C45_4 N4_4 1_555 1_555
H31_4 C45_4 1_555 1_555
O31_2 Mn5 1_555 1_555
O15_4 C42_4 1_555 1_555
C39_4 C40_4 1_555 1_555
Mn12 O20_4 1_555 1_555
P1_4 O1_4 1_555 1_555
P3_4 O7_4 1_555 1_555
O7_4 C15_4 1_555 1_555
O10_4 P1_4 1_555 1_555
O16_4 P3_4 1_555 1_555
O19_4 P2_4 1_555 1_555
O20_4 C34_4 1_555 1_555
O32_2 C34_4 1_555 1_555
N1_4 P1_4 1_555 1_555
N3_4 P2_4 1_555 1_555
C17_4 C15_4 1_555 1_555
H10_4 C17_4 1_555 1_555
C22_4 O16_4 1_555 1_555
C23_4 C22_4 1_555 1_555
H13_4 C23_4 1_555 1_555
C24_4 C22_4 1_555 1_555
H14_4 C24_4 1_555 1_555
C25_4 C23_4 1_555 1_555
C26_4 C24_4 1_555 1_555
H16_4 C26_4 1_555 1_555
C28_4 O19_4 1_555 1_555
C30_4 C28_4 1_555 1_555
H18_4 C30_4 1_555 1_555
C32_4 C30_4 1_555 1_555
H20_4 C32_4 1_555 1_555
C33_4 C31_4 1_555 1_555
C34_4 C33_4 1_555 1_555
C47_4 C25_4 1_555 1_555
O26_2 Mn12 1_555 1_555
O28_2 Mn12 1_555 1_555
P3_4 N1_4 1_555 1_555
P3_4 N3_4 1_555 1_555
C26_4 C47_4 1_555 1_555
C32_4 C33_4 1_555 1_555
O30 C27_4 1_555 1_555
O31_2 C27_4 1_555 1_555
H21_4 C36_4 1_555 1_555
O22 C7_4 1_555 1_555
O23_2 C7_4 1_555 1_555
O24 C14_4 1_555 1_555
O25 C14_4 1_555 1_555
C4_4 C2_4 1_555 1_555
H3_4 C4_4 1_555 1_555
C5_4 C3_4 1_555 1_555
H4_4 C5_4 1_555 1_555
C6_4 C4_4 1_555 1_555
C7_4 C6_4 1_555 1_555
C14_4 C13_4 1_555 1_555
C5_4 C6_4 1_555 1_555
O26_2 C21_4 1_555 1_555
O28_2 C21_4 1_555 1_555
C16_4 H9_4 1_555 1_555
C18_4 C16_4 1_555 1_555
H11_4 C18_4 1_555 1_555
H12_4 C19_4 1_555 1_555
C20_4 C18_4 1_555 1_555
C21_4 C20_4 1_555 1_555
C19_4 C20_4 1_555 1_555
H32_3 C46_3 1_555 1_555
H33_3 C46_3 1_555 1_555
H34_3 C46_3 1_555 1_555
H32_4 C46_4 1_555 1_555
H33_4 C46_4 1_555 1_555
H34_4 C46_4 1_555 1_555

#END
