
###############################################################################
#
# This file contains modified crystal structure data generated from the
# MOF subset of the Cambridge Structural Database (CSD) v543 
# hosted by the Cambridge Crystallographic Data Centre (CCDC).
#
# This work is licensed under the Creative Commons
# Attribution-NonCommercial-ShareAlike 4.0 International License.
# To view a copy of this license, visit
# http://creativecommons.org/licenses/by-nc-sa/4.0/
# or send a letter to
# Creative Commons, PO Box 1866, Mountain View, CA 94042, USA.
#
# CIF created using the CSD Python API on 29 September 2022
# The structure has been converted into the P1 space group
# The structure has a 3D framework
# The original CSD entry JALLOA is in the cubic crystal system
# The framework has been calculated to contain at least 10.0% void space
# The void calculation uses a probe of radius 1.32A, grid spacing 0.4
# H atom positions have been added when not included in the experimental data
# Generated hydrogen atom positions removed from atoms on special positions
#
###############################################################################

data_JALLOA
_chemical_formula_moiety         '(C288 H2208 Ce96 O441)n'
_symmetry_cell_setting           triclinic
_symmetry_space_group_name_H-M   'P 1'
_symmetry_Int_Tables_number      1
_space_group_name_Hall           'P 1'
loop_
_symmetry_equiv_pos_site_id
_symmetry_equiv_pos_as_xyz
1 x,y,z
_cell_length_a                   36.4514(18)
_cell_length_b                   36.4514(18)
_cell_length_c                   36.4514(18)
_cell_angle_alpha                90
_cell_angle_beta                 90
_cell_angle_gamma                90
_cell_volume                     48433.1
loop_
_atom_site_label
_atom_site_type_symbol
_atom_site_fract_x
_atom_site_fract_y
_atom_site_fract_z
_atom_site_U_iso_or_equiv
_atom_site_thermal_displace_type
Ce1 Ce 0.79970(10) 0.22670(15) 0.45030(10) 0.0423 Uiso
O1 O 0.76430(45) 0.1809(12) 0.48570(45) 0.1046 Uiso
O2 O 0.78865(87) 0.28865(87) 0.46135(87) 0.1046 Uiso
C1 C 0.78307(47) 0.28307(47) 0.37678(63) 0.1046 Uiso
C2 C 0.80313(44) 0.30313(44) 0.34938(74) 0.1046 Uiso
C3 C 0.78782(67) 0.33345(51) 0.33345(51) 0.1046 Uiso
O3 O 0.79959(36) 0.25634(30) 0.39018(42) 0.1046 Uiso
O4 O 0.78140(42) 0.17500(48) 0.41160(69) 0.1046 Uiso
C4 C 0.78307(47) 0.37678(63) 0.28307(47) 0.1046 Uiso
C5 C 0.80313(44) 0.34938(74) 0.30313(44) 0.1046 Uiso
O5 O 0.79959(36) 0.39018(42) 0.25634(30) 0.1046 Uiso
C6 C 0.83345(51) 0.33345(51) 0.28782(67) 0.1046 Uiso
O6 O 0.75634(30) 0.39018(42) 0.29959(36) 0.1046 Uiso
C7 C 0.87678(63) 0.28307(47) 0.28307(47) 0.1046 Uiso
C8 C 0.84938(74) 0.30313(44) 0.30313(44) 0.1046 Uiso
O7 O 0.89018(42) 0.25634(30) 0.29959(36) 0.1046 Uiso
C9 C 0.83345(51) 0.28782(67) 0.33345(51) 0.1046 Uiso
O8 O 0.89018(42) 0.29959(36) 0.25634(30) 0.1046 Uiso
O9 O 0.75634(30) 0.29959(36) 0.39018(42) 0.1046 Uiso
Ce2 Ce 0.79970(10) 0.45030(10) 0.22670(15) 0.0423 Uiso
O10 O 0.76430(45) 0.48570(45) 0.1809(12) 0.1046 Uiso
O11 O 0.83840(69) 0.46860(42) 0.17500(48) 0.1046 Uiso
O12 O 0.78140(42) 0.41160(69) 0.17500(48) 0.1046 Uiso
O13 O 0.83840(69) 0.17500(48) 0.46860(42) 0.1046 Uiso
Ce3 Ce 0.70030(10) 0.20030(10) 0.47670(15) 0.0423 Uiso
O14 O 0.73570(45) 0.23570(45) 0.4309(12) 0.1046 Uiso
O15 O 0.71860(42) 0.16160(69) 0.42500(48) 0.1046 Uiso
O16 O 0.66160(69) 0.21860(42) 0.42500(48) 0.1046 Uiso
Ce4 Ce 0.70030(10) 0.47670(15) 0.20030(10) 0.0423 Uiso
Ce5 Ce 0.77330(15) 0.20030(10) 0.54970(10) 0.0423 Uiso
Ce6 Ce 0.77330(15) 0.54970(10) 0.20030(10) 0.0423 Uiso
Ce7 Ce 0.79970(10) 0.29970(10) 0.52330(15) 0.0423 Uiso
Ce8 Ce 0.95030(10) 0.22670(15) 0.29970(10) 0.0423 Uiso
Ce9 Ce 0.72670(15) 0.45030(10) 0.29970(10) 0.0423 Uiso
Ce10 Ce 0.95030(10) 0.29970(10) 0.22670(15) 0.0423 Uiso
Ce11 Ce 0.72670(15) 0.29970(10) 0.45030(10) 0.0423 Uiso
O17 O 0.73570(45) 0.4309(12) 0.23570(45) 0.1046 Uiso
O18 O 0.8191(12) 0.23570(45) 0.51430(45) 0.1046 Uiso
O19 O 0.8191(12) 0.51430(45) 0.23570(45) 0.1046 Uiso
O20 O 0.6809(12) 0.26430(45) 0.48570(45) 0.1046 Uiso
O21 O 0.78865(87) 0.46135(87) 0.28865(87) 0.1046 Uiso
O22 O 0.71135(87) 0.21135(87) 0.53865(87) 0.1046 Uiso
O23 O 0.85982(42) 0.45041(36) 0.25634(30) 0.1046 Uiso
O24 O 0.64018(42) 0.20041(36) 0.50634(30) 0.1046 Uiso
O25 O 0.85982(42) 0.25634(30) 0.45041(36) 0.1046 Uiso
O26 O 0.70041(36) 0.14018(42) 0.50634(30) 0.1046 Uiso
H1 H 0.762939 0.345143 0.345143 . .
H4 H 0.845143 0.345143 0.262939 . .
H5 H 0.845143 0.262939 0.345143 . .
Ce1_2 Ce 0.77330(15) 0.04970(10) 0.70030(10) 0.0423 Uiso
O1_2 O 0.8191(12) 0.01430(45) 0.73570(45) 0.1046 Uiso
O2_2 O 0.71135(87) 0.03865(87) 0.71135(87) 0.1046 Uiso
C1_2 C 0.71693(47) 0.03307(47) 0.62678(63) 0.1046 Uiso
C2_2 C 0.69687(44) 0.05313(44) 0.59938(74) 0.1046 Uiso
C3_2 C 0.66655(51) 0.03782(67) 0.58345(51) 0.1046 Uiso
O3_2 O 0.74366(30) 0.04959(36) 0.64018(42) 0.1046 Uiso
O4_2 O 0.82500(48) 0.03140(42) 0.66160(69) 0.1046 Uiso
C4_2 C 0.62322(63) 0.03307(47) 0.53307(47) 0.1046 Uiso
C5_2 C 0.65062(74) 0.05313(44) 0.55313(44) 0.1046 Uiso
O5_2 O 0.60982(42) 0.04959(36) 0.50634(30) 0.1046 Uiso
C6_2 C 0.66655(51) 0.08345(51) 0.53782(67) 0.1046 Uiso
O6_2 O 0.60982(42) 0.00634(30) 0.54959(36) 0.1046 Uiso
C7_2 C 0.71693(47) 0.12678(63) 0.53307(47) 0.1046 Uiso
C8_2 C 0.69687(44) 0.09938(74) 0.55313(44) 0.1046 Uiso
O7_2 O 0.74366(30) 0.14018(42) 0.54959(36) 0.1046 Uiso
C9_2 C 0.71218(67) 0.08345(51) 0.58345(51) 0.1046 Uiso
O9_2 O 0.70041(36) 0.00634(30) 0.64018(42) 0.1046 Uiso
Ce2_2 Ce 0.54970(10) 0.04970(10) 0.47670(15) 0.0423 Uiso
O10_2 O 0.51430(45) 0.01430(45) 0.4309(12) 0.1046 Uiso
O11_2 O 0.53140(42) 0.08840(69) 0.42500(48) 0.1046 Uiso
O12_2 O 0.58840(69) 0.03140(42) 0.42500(48) 0.1046 Uiso
O13_2 O 0.82500(48) 0.08840(69) 0.71860(42) 0.1046 Uiso
Ce5_2 Ce 0.79970(10) 0.02330(15) 0.79970(10) 0.0423 Uiso
Ce6_2 Ce 0.45030(10) 0.02330(15) 0.45030(10) 0.0423 Uiso
Ce7_2 Ce 0.70030(10) 0.04970(10) 0.77330(15) 0.0423 Uiso
O18_2 O 0.76430(45) 0.0691(12) 0.76430(45) 0.1046 Uiso
O19_2 O 0.48570(45) 0.0691(12) 0.48570(45) 0.1046 Uiso
O21_2 O 0.53865(87) 0.03865(87) 0.53865(87) 0.1046 Uiso
O23_2 O 0.54959(36) 0.10982(42) 0.50634(30) 0.1046 Uiso
O25_2 O 0.74366(30) 0.10982(42) 0.70041(36) 0.1046 Uiso
H1_2 H 0.654857 0.0129386 0.595143 . .
H4_2 H 0.654857 0.0951431 0.512939 . .
H5_2 H 0.737061 0.0951431 0.595143 . .
Ce3_2 Ce 0.79970(10) 0.95030(10) 0.72670(15) 0.0423 Uiso
O14_2 O 0.76430(45) 0.98570(45) 0.6809(12) 0.1046 Uiso
O15_2 O 0.83840(69) 0.96860(42) 0.67500(48) 0.1046 Uiso
O16_2 O 0.78140(42) 0.91160(69) 0.67500(48) 0.1046 Uiso
Ce4_2 Ce 0.52330(15) 0.95030(10) 0.45030(10) 0.0423 Uiso
Ce9_2 Ce 0.54970(10) 0.97670(15) 0.54970(10) 0.0423 Uiso
Ce11_2 Ce 0.70030(10) 0.97670(15) 0.70030(10) 0.0423 Uiso
O17_2 O 0.5691(12) 0.98570(45) 0.48570(45) 0.1046 Uiso
O20_2 O 0.73570(45) 0.9309(12) 0.73570(45) 0.1046 Uiso
O22_2 O 0.78865(87) 0.96135(87) 0.78865(87) 0.1046 Uiso
O24_2 O 0.79959(36) 0.89018(42) 0.75634(30) 0.1046 Uiso
O26_2 O 0.85982(42) 0.95041(36) 0.75634(30) 0.1046 Uiso
O4_3 O 0.46860(42) 0.07500(48) 0.41160(69) 0.1046 Uiso
O13_3 O 0.41160(69) 0.07500(48) 0.46860(42) 0.1046 Uiso
Ce5_3 Ce 0.47670(15) 0.04970(10) 0.54970(10) 0.0423 Uiso
Ce8_2 Ce 0.29970(10) 0.02330(15) 0.29970(10) 0.0423 Uiso
O18_3 O 0.4309(12) 0.01430(45) 0.51430(45) 0.1046 Uiso
O2_3 O 0.46135(87) 0.96135(87) 0.46135(87) 0.1046 Uiso
C1_3 C 0.46693(47) 0.96693(47) 0.37678(63) 0.1046 Uiso
C2_3 C 0.44687(44) 0.94687(44) 0.34938(74) 0.1046 Uiso
C3_3 C 0.46218(67) 0.91655(51) 0.33345(51) 0.1046 Uiso
O3_3 O 0.45041(36) 0.99366(30) 0.39018(42) 0.1046 Uiso
C4_3 C 0.46693(47) 0.87322(63) 0.28307(47) 0.1046 Uiso
C5_3 C 0.44687(44) 0.90062(74) 0.30313(44) 0.1046 Uiso
O5_3 O 0.45041(36) 0.85982(42) 0.25634(30) 0.1046 Uiso
C6_3 C 0.41655(51) 0.91655(51) 0.28782(67) 0.1046 Uiso
O6_3 O 0.49366(30) 0.85982(42) 0.29959(36) 0.1046 Uiso
C7_3 C 0.37322(63) 0.96693(47) 0.28307(47) 0.1046 Uiso
C8_3 C 0.40062(74) 0.94687(44) 0.30313(44) 0.1046 Uiso
O7_3 O 0.35982(42) 0.99366(30) 0.29959(36) 0.1046 Uiso
C9_3 C 0.41655(51) 0.96218(67) 0.33345(51) 0.1046 Uiso
O8_2 O 0.35982(42) 0.95041(36) 0.25634(30) 0.1046 Uiso
O9_3 O 0.49366(30) 0.95041(36) 0.39018(42) 0.1046 Uiso
Ce2_3 Ce 0.45030(10) 0.79970(10) 0.22670(15) 0.0423 Uiso
O10_3 O 0.48570(45) 0.76430(45) 0.1809(12) 0.1046 Uiso
O11_3 O 0.41160(69) 0.78140(42) 0.17500(48) 0.1046 Uiso
O12_3 O 0.46860(42) 0.83840(69) 0.17500(48) 0.1046 Uiso
Ce4_3 Ce 0.54970(10) 0.77330(15) 0.20030(10) 0.0423 Uiso
Ce6_3 Ce 0.47670(15) 0.70030(10) 0.20030(10) 0.0423 Uiso
Ce7_3 Ce 0.45030(10) 0.95030(10) 0.52330(15) 0.0423 Uiso
Ce9_3 Ce 0.52330(15) 0.79970(10) 0.29970(10) 0.0423 Uiso
Ce10_2 Ce 0.29970(10) 0.95030(10) 0.22670(15) 0.0423 Uiso
O17_3 O 0.51430(45) 0.8191(12) 0.23570(45) 0.1046 Uiso
O19_3 O 0.4309(12) 0.73570(45) 0.23570(45) 0.1046 Uiso
O21_3 O 0.46135(87) 0.78865(87) 0.28865(87) 0.1046 Uiso
O23_3 O 0.39018(42) 0.79959(36) 0.25634(30) 0.1046 Uiso
O25_3 O 0.39018(42) 0.99366(30) 0.45041(36) 0.1046 Uiso
H1_3 H 0.487061 0.904857 0.345143 . .
H4_3 H 0.404857 0.904857 0.262939 . .
H5_3 H 0.404857 0.987061 0.345143 . .
Ce1_3 Ce 0.47670(15) 0.20030(10) 0.70030(10) 0.0423 Uiso
O1_3 O 0.4309(12) 0.23570(45) 0.73570(45) 0.1046 Uiso
O2_4 O 0.53865(87) 0.21135(87) 0.71135(87) 0.1046 Uiso
C1_4 C 0.53307(47) 0.21693(47) 0.62678(63) 0.1046 Uiso
C2_4 C 0.55313(44) 0.19687(44) 0.59938(74) 0.1046 Uiso
C3_4 C 0.58345(51) 0.21218(67) 0.58345(51) 0.1046 Uiso
O3_4 O 0.50634(30) 0.20041(36) 0.64018(42) 0.1046 Uiso
O4_4 O 0.42500(48) 0.21860(42) 0.66160(69) 0.1046 Uiso
C4_4 C 0.62678(63) 0.21693(47) 0.53307(47) 0.1046 Uiso
C5_4 C 0.59938(74) 0.19687(44) 0.55313(44) 0.1046 Uiso
C6_4 C 0.58345(51) 0.16655(51) 0.53782(67) 0.1046 Uiso
O6_4 O 0.64018(42) 0.24366(30) 0.54959(36) 0.1046 Uiso
C7_4 C 0.53307(47) 0.12322(63) 0.53307(47) 0.1046 Uiso
C8_4 C 0.55313(44) 0.15062(74) 0.55313(44) 0.1046 Uiso
O7_4 O 0.50634(30) 0.10982(42) 0.54959(36) 0.1046 Uiso
C9_4 C 0.53782(67) 0.16655(51) 0.58345(51) 0.1046 Uiso
O9_4 O 0.54959(36) 0.24366(30) 0.64018(42) 0.1046 Uiso
O13_4 O 0.42500(48) 0.16160(69) 0.71860(42) 0.1046 Uiso
Ce3_3 Ce 0.45030(10) 0.29970(10) 0.72670(15) 0.0423 Uiso
O14_3 O 0.48570(45) 0.26430(45) 0.6809(12) 0.1046 Uiso
O15_3 O 0.41160(69) 0.28140(42) 0.67500(48) 0.1046 Uiso
O16_3 O 0.46860(42) 0.33840(69) 0.67500(48) 0.1046 Uiso
Ce5_4 Ce 0.45030(10) 0.22670(15) 0.79970(10) 0.0423 Uiso
Ce7_4 Ce 0.54970(10) 0.20030(10) 0.77330(15) 0.0423 Uiso
Ce9_4 Ce 0.70030(10) 0.27330(15) 0.54970(10) 0.0423 Uiso
Ce11_3 Ce 0.54970(10) 0.27330(15) 0.70030(10) 0.0423 Uiso
O18_4 O 0.48570(45) 0.1809(12) 0.76430(45) 0.1046 Uiso
O20_3 O 0.51430(45) 0.3191(12) 0.73570(45) 0.1046 Uiso
O22_3 O 0.46135(87) 0.28865(87) 0.78865(87) 0.1046 Uiso
O24_3 O 0.45041(36) 0.35982(42) 0.75634(30) 0.1046 Uiso
O25_4 O 0.50634(30) 0.14018(42) 0.70041(36) 0.1046 Uiso
O26_3 O 0.39018(42) 0.29959(36) 0.75634(30) 0.1046 Uiso
H1_4 H 0.595143 0.237061 0.595143 . .
H4_4 H 0.595143 0.154857 0.512939 . .
H5_4 H 0.512939 0.154857 0.595143 . .
Ce1_4 Ce 0.04970(10) 0.54970(10) 0.47670(15) 0.0423 Uiso
O1_4 O 0.01430(45) 0.51430(45) 0.4309(12) 0.1046 Uiso
O2_5 O 0.03865(87) 0.53865(87) 0.53865(87) 0.1046 Uiso
C1_5 C 0.03307(47) 0.62322(63) 0.53307(47) 0.1046 Uiso
C2_5 C 0.05313(44) 0.65062(74) 0.55313(44) 0.1046 Uiso
C3_5 C 0.03782(67) 0.66655(51) 0.58345(51) 0.1046 Uiso
O3_5 O 0.04959(36) 0.60982(42) 0.50634(30) 0.1046 Uiso
O4_5 O 0.03140(42) 0.58840(69) 0.42500(48) 0.1046 Uiso
C4_5 C 0.03307(47) 0.71693(47) 0.62678(63) 0.1046 Uiso
C5_5 C 0.05313(44) 0.69687(44) 0.59938(74) 0.1046 Uiso
O5_4 O 0.04959(36) 0.74366(30) 0.64018(42) 0.1046 Uiso
C6_5 C 0.08345(51) 0.71218(67) 0.58345(51) 0.1046 Uiso
O6_5 O 0.00634(30) 0.70041(36) 0.64018(42) 0.1046 Uiso
C7_5 C 0.12678(63) 0.71693(47) 0.53307(47) 0.1046 Uiso
C8_5 C 0.09938(74) 0.69687(44) 0.55313(44) 0.1046 Uiso
O7_5 O 0.14018(42) 0.70041(36) 0.50634(30) 0.1046 Uiso
C9_5 C 0.08345(51) 0.66655(51) 0.53782(67) 0.1046 Uiso
O8_3 O 0.14018(42) 0.74366(30) 0.54959(36) 0.1046 Uiso
O9_5 O 0.00634(30) 0.60982(42) 0.54959(36) 0.1046 Uiso
Ce2_4 Ce 0.04970(10) 0.77330(15) 0.70030(10) 0.0423 Uiso
O10_4 O 0.01430(45) 0.8191(12) 0.73570(45) 0.1046 Uiso
O11_4 O 0.08840(69) 0.82500(48) 0.71860(42) 0.1046 Uiso
O12_4 O 0.03140(42) 0.82500(48) 0.66160(69) 0.1046 Uiso
O13_5 O 0.08840(69) 0.53140(42) 0.42500(48) 0.1046 Uiso
Ce5_5 Ce 0.02330(15) 0.45030(10) 0.45030(10) 0.0423 Uiso
Ce6_4 Ce 0.02330(15) 0.79970(10) 0.79970(10) 0.0423 Uiso
Ce7_5 Ce 0.04970(10) 0.47670(15) 0.54970(10) 0.0423 Uiso
Ce8_3 Ce 0.20030(10) 0.70030(10) 0.47670(15) 0.0423 Uiso
Ce10_3 Ce 0.20030(10) 0.77330(15) 0.54970(10) 0.0423 Uiso
O18_5 O 0.0691(12) 0.48570(45) 0.48570(45) 0.1046 Uiso
O19_4 O 0.0691(12) 0.76430(45) 0.76430(45) 0.1046 Uiso
O21_4 O 0.03865(87) 0.71135(87) 0.71135(87) 0.1046 Uiso
O23_4 O 0.10982(42) 0.74366(30) 0.70041(36) 0.1046 Uiso
O25_5 O 0.10982(42) 0.54959(36) 0.50634(30) 0.1046 Uiso
H1_5 H 0.0129386 0.654857 0.595143 . .
H4_5 H 0.0951431 0.737061 0.595143 . .
H5_5 H 0.0951431 0.654857 0.512939 . .
Ce3_4 Ce 0.95030(10) 0.52330(15) 0.45030(10) 0.0423 Uiso
O14_4 O 0.98570(45) 0.5691(12) 0.48570(45) 0.1046 Uiso
O15_4 O 0.96860(42) 0.57500(48) 0.41160(69) 0.1046 Uiso
O16_4 O 0.91160(69) 0.57500(48) 0.46860(42) 0.1046 Uiso
Ce4_4 Ce 0.95030(10) 0.79970(10) 0.72670(15) 0.0423 Uiso
Ce9_5 Ce 0.97670(15) 0.70030(10) 0.70030(10) 0.0423 Uiso
Ce11_4 Ce 0.97670(15) 0.54970(10) 0.54970(10) 0.0423 Uiso
O17_4 O 0.98570(45) 0.76430(45) 0.6809(12) 0.1046 Uiso
O20_4 O 0.9309(12) 0.51430(45) 0.51430(45) 0.1046 Uiso
O22_4 O 0.96135(87) 0.46135(87) 0.46135(87) 0.1046 Uiso
O24_4 O 0.89018(42) 0.49366(30) 0.45041(36) 0.1046 Uiso
O26_4 O 0.95041(36) 0.49366(30) 0.39018(42) 0.1046 Uiso
O4_6 O 0.78140(42) 0.07500(48) 0.83840(69) 0.1046 Uiso
O13_6 O 0.83840(69) 0.07500(48) 0.78140(42) 0.1046 Uiso
O14_5 O 0.73570(45) 0.01430(45) 0.8191(12) 0.1046 Uiso
O15_5 O 0.71860(42) 0.08840(69) 0.82500(48) 0.1046 Uiso
O16_5 O 0.66160(69) 0.03140(42) 0.82500(48) 0.1046 Uiso
Ce8_4 Ce 0.95030(10) 0.02330(15) 0.95030(10) 0.0423 Uiso
O24_5 O 0.64018(42) 0.04959(36) 0.74366(30) 0.1046 Uiso
O26_5 O 0.70041(36) 0.10982(42) 0.74366(30) 0.1046 Uiso
Ce2_5 Ce 0.79970(10) 0.79970(10) 0.02330(15) 0.0423 Uiso
O10_5 O 0.76430(45) 0.76430(45) 0.0691(12) 0.1046 Uiso
O11_5 O 0.83840(69) 0.78140(42) 0.07500(48) 0.1046 Uiso
O12_5 O 0.78140(42) 0.83840(69) 0.07500(48) 0.1046 Uiso
Ce4_5 Ce 0.70030(10) 0.77330(15) 0.04970(10) 0.0423 Uiso
Ce6_5 Ce 0.77330(15) 0.70030(10) 0.04970(10) 0.0423 Uiso
Ce10_4 Ce 0.95030(10) 0.95030(10) 0.02330(15) 0.0423 Uiso
O17_5 O 0.73570(45) 0.8191(12) 0.01430(45) 0.1046 Uiso
O19_5 O 0.8191(12) 0.73570(45) 0.01430(45) 0.1046 Uiso
C1_6 C 0.78307(47) 0.96693(47) 0.87322(63) 0.1046 Uiso
C2_6 C 0.80313(44) 0.94687(44) 0.90062(74) 0.1046 Uiso
C3_6 C 0.78782(67) 0.91655(51) 0.91655(51) 0.1046 Uiso
O3_6 O 0.79959(36) 0.99366(30) 0.85982(42) 0.1046 Uiso
C4_6 C 0.78307(47) 0.87322(63) 0.96693(47) 0.1046 Uiso
C5_6 C 0.80313(44) 0.90062(74) 0.94687(44) 0.1046 Uiso
O5_5 O 0.79959(36) 0.85982(42) 0.99366(30) 0.1046 Uiso
C6_6 C 0.83345(51) 0.91655(51) 0.96218(67) 0.1046 Uiso
O6_6 O 0.75634(30) 0.85982(42) 0.95041(36) 0.1046 Uiso
C7_6 C 0.87678(63) 0.96693(47) 0.96693(47) 0.1046 Uiso
C8_6 C 0.84938(74) 0.94687(44) 0.94687(44) 0.1046 Uiso
O7_6 O 0.89018(42) 0.99366(30) 0.95041(36) 0.1046 Uiso
C9_6 C 0.83345(51) 0.96218(67) 0.91655(51) 0.1046 Uiso
O8_4 O 0.89018(42) 0.95041(36) 0.99366(30) 0.1046 Uiso
O9_6 O 0.75634(30) 0.95041(36) 0.85982(42) 0.1046 Uiso
Ce9_6 Ce 0.72670(15) 0.79970(10) 0.95030(10) 0.0423 Uiso
Ce11_5 Ce 0.72670(15) 0.95030(10) 0.79970(10) 0.0423 Uiso
O20_5 O 0.6809(12) 0.98570(45) 0.76430(45) 0.1046 Uiso
O21_5 O 0.78865(87) 0.78865(87) 0.96135(87) 0.1046 Uiso
O23_5 O 0.85982(42) 0.79959(36) 0.99366(30) 0.1046 Uiso
O25_6 O 0.85982(42) 0.99366(30) 0.79959(36) 0.1046 Uiso
H1_6 H 0.762939 0.904857 0.904857 . .
H4_6 H 0.845143 0.904857 0.987061 . .
H5_6 H 0.845143 0.987061 0.904857 . .
Ce1_5 Ce 0.04970(10) 0.70030(10) 0.77330(15) 0.0423 Uiso
O1_5 O 0.01430(45) 0.73570(45) 0.8191(12) 0.1046 Uiso
C1_7 C 0.03307(47) 0.62678(63) 0.71693(47) 0.1046 Uiso
C2_7 C 0.05313(44) 0.59938(74) 0.69687(44) 0.1046 Uiso
C3_7 C 0.03782(67) 0.58345(51) 0.66655(51) 0.1046 Uiso
O3_7 O 0.04959(36) 0.64018(42) 0.74366(30) 0.1046 Uiso
O4_7 O 0.03140(42) 0.66160(69) 0.82500(48) 0.1046 Uiso
C4_7 C 0.03307(47) 0.53307(47) 0.62322(63) 0.1046 Uiso
C5_7 C 0.05313(44) 0.55313(44) 0.65062(74) 0.1046 Uiso
O5_6 O 0.04959(36) 0.50634(30) 0.60982(42) 0.1046 Uiso
C6_7 C 0.08345(51) 0.53782(67) 0.66655(51) 0.1046 Uiso
O6_7 O 0.00634(30) 0.54959(36) 0.60982(42) 0.1046 Uiso
C7_7 C 0.12678(63) 0.53307(47) 0.71693(47) 0.1046 Uiso
C8_7 C 0.09938(74) 0.55313(44) 0.69687(44) 0.1046 Uiso
O7_7 O 0.14018(42) 0.54959(36) 0.74366(30) 0.1046 Uiso
C9_7 C 0.08345(51) 0.58345(51) 0.71218(67) 0.1046 Uiso
O8_5 O 0.14018(42) 0.50634(30) 0.70041(36) 0.1046 Uiso
O9_7 O 0.00634(30) 0.64018(42) 0.70041(36) 0.1046 Uiso
O10_6 O 0.01430(45) 0.4309(12) 0.51430(45) 0.1046 Uiso
O11_6 O 0.08840(69) 0.42500(48) 0.53140(42) 0.1046 Uiso
O12_6 O 0.03140(42) 0.42500(48) 0.58840(69) 0.1046 Uiso
O13_7 O 0.08840(69) 0.71860(42) 0.82500(48) 0.1046 Uiso
Ce8_5 Ce 0.20030(10) 0.54970(10) 0.77330(15) 0.0423 Uiso
Ce10_5 Ce 0.20030(10) 0.47670(15) 0.70030(10) 0.0423 Uiso
O23_6 O 0.10982(42) 0.50634(30) 0.54959(36) 0.1046 Uiso
O25_7 O 0.10982(42) 0.70041(36) 0.74366(30) 0.1046 Uiso
H1_7 H 0.0129386 0.595143 0.654857 . .
H4_7 H 0.0951431 0.512939 0.654857 . .
H5_7 H 0.0951431 0.595143 0.737061 . .
Ce3_5 Ce 0.95030(10) 0.72670(15) 0.79970(10) 0.0423 Uiso
O14_6 O 0.98570(45) 0.6809(12) 0.76430(45) 0.1046 Uiso
O15_6 O 0.96860(42) 0.67500(48) 0.83840(69) 0.1046 Uiso
O16_6 O 0.91160(69) 0.67500(48) 0.78140(42) 0.1046 Uiso
Ce4_6 Ce 0.95030(10) 0.45030(10) 0.52330(15) 0.0423 Uiso
O17_6 O 0.98570(45) 0.48570(45) 0.5691(12) 0.1046 Uiso
O20_6 O 0.9309(12) 0.73570(45) 0.73570(45) 0.1046 Uiso
O22_5 O 0.96135(87) 0.78865(87) 0.78865(87) 0.1046 Uiso
O24_6 O 0.89018(42) 0.75634(30) 0.79959(36) 0.1046 Uiso
O26_6 O 0.95041(36) 0.75634(30) 0.85982(42) 0.1046 Uiso
O2_6 O 0.71135(87) 0.53865(87) 0.21135(87) 0.1046 Uiso
C1_8 C 0.62678(63) 0.53307(47) 0.21693(47) 0.1046 Uiso
C2_8 C 0.59938(74) 0.55313(44) 0.19687(44) 0.1046 Uiso
C3_8 C 0.58345(51) 0.58345(51) 0.21218(67) 0.1046 Uiso
O3_8 O 0.64018(42) 0.50634(30) 0.20041(36) 0.1046 Uiso
O4_8 O 0.66160(69) 0.42500(48) 0.21860(42) 0.1046 Uiso
C4_8 C 0.53307(47) 0.62678(63) 0.21693(47) 0.1046 Uiso
C5_8 C 0.55313(44) 0.59938(74) 0.19687(44) 0.1046 Uiso
O5_7 O 0.50634(30) 0.64018(42) 0.20041(36) 0.1046 Uiso
C6_8 C 0.53782(67) 0.58345(51) 0.16655(51) 0.1046 Uiso
O6_8 O 0.54959(36) 0.64018(42) 0.24366(30) 0.1046 Uiso
C7_8 C 0.53307(47) 0.53307(47) 0.12322(63) 0.1046 Uiso
C8_8 C 0.55313(44) 0.55313(44) 0.15062(74) 0.1046 Uiso
O7_8 O 0.54959(36) 0.50634(30) 0.10982(42) 0.1046 Uiso
C9_8 C 0.58345(51) 0.53782(67) 0.16655(51) 0.1046 Uiso
O8_6 O 0.50634(30) 0.54959(36) 0.10982(42) 0.1046 Uiso
O9_8 O 0.64018(42) 0.54959(36) 0.24366(30) 0.1046 Uiso
O11_7 O 0.42500(48) 0.71860(42) 0.16160(69) 0.1046 Uiso
O12_7 O 0.42500(48) 0.66160(69) 0.21860(42) 0.1046 Uiso
O13_8 O 0.71860(42) 0.42500(48) 0.16160(69) 0.1046 Uiso
O14_7 O 0.6809(12) 0.48570(45) 0.26430(45) 0.1046 Uiso
O15_7 O 0.67500(48) 0.41160(69) 0.28140(42) 0.1046 Uiso
O16_7 O 0.67500(48) 0.46860(42) 0.33840(69) 0.1046 Uiso
Ce4_7 Ce 0.45030(10) 0.72670(15) 0.29970(10) 0.0423 Uiso
Ce8_6 Ce 0.54970(10) 0.47670(15) 0.04970(10) 0.0423 Uiso
Ce9_7 Ce 0.54970(10) 0.70030(10) 0.27330(15) 0.0423 Uiso
Ce10_6 Ce 0.47670(15) 0.54970(10) 0.04970(10) 0.0423 Uiso
Ce11_6 Ce 0.70030(10) 0.54970(10) 0.27330(15) 0.0423 Uiso
O17_7 O 0.48570(45) 0.6809(12) 0.26430(45) 0.1046 Uiso
O20_7 O 0.73570(45) 0.51430(45) 0.3191(12) 0.1046 Uiso
O21_6 O 0.53865(87) 0.71135(87) 0.21135(87) 0.1046 Uiso
O23_7 O 0.50634(30) 0.70041(36) 0.14018(42) 0.1046 Uiso
O24_7 O 0.75634(30) 0.45041(36) 0.35982(42) 0.1046 Uiso
O25_8 O 0.70041(36) 0.50634(30) 0.14018(42) 0.1046 Uiso
H1_8 H 0.595143 0.595143 0.237061 . .
H4_8 H 0.512939 0.595143 0.154857 . .
H5_8 H 0.595143 0.512939 0.154857 . .
Ce2_6 Ce 0.45030(10) 0.45030(10) 0.02330(15) 0.0423 Uiso
O10_7 O 0.48570(45) 0.48570(45) 0.0691(12) 0.1046 Uiso
O11_8 O 0.41160(69) 0.46860(42) 0.07500(48) 0.1046 Uiso
O12_8 O 0.46860(42) 0.41160(69) 0.07500(48) 0.1046 Uiso
Ce10_7 Ce 0.29970(10) 0.29970(10) 0.02330(15) 0.0423 Uiso
O17_8 O 0.51430(45) 0.4309(12) 0.01430(45) 0.1046 Uiso
O19_6 O 0.4309(12) 0.51430(45) 0.01430(45) 0.1046 Uiso
C1_9 C 0.46693(47) 0.28307(47) 0.87322(63) 0.1046 Uiso
C2_9 C 0.44687(44) 0.30313(44) 0.90062(74) 0.1046 Uiso
C3_9 C 0.46218(67) 0.33345(51) 0.91655(51) 0.1046 Uiso
O3_9 O 0.45041(36) 0.25634(30) 0.85982(42) 0.1046 Uiso
O4_9 O 0.46860(42) 0.17500(48) 0.83840(69) 0.1046 Uiso
C4_9 C 0.46693(47) 0.37678(63) 0.96693(47) 0.1046 Uiso
C5_9 C 0.44687(44) 0.34938(74) 0.94687(44) 0.1046 Uiso
O5_8 O 0.45041(36) 0.39018(42) 0.99366(30) 0.1046 Uiso
C6_9 C 0.41655(51) 0.33345(51) 0.96218(67) 0.1046 Uiso
O6_9 O 0.49366(30) 0.39018(42) 0.95041(36) 0.1046 Uiso
C7_9 C 0.37322(63) 0.28307(47) 0.96693(47) 0.1046 Uiso
C8_9 C 0.40062(74) 0.30313(44) 0.94687(44) 0.1046 Uiso
O7_9 O 0.35982(42) 0.25634(30) 0.95041(36) 0.1046 Uiso
C9_9 C 0.41655(51) 0.28782(67) 0.91655(51) 0.1046 Uiso
O8_7 O 0.35982(42) 0.29959(36) 0.99366(30) 0.1046 Uiso
O9_9 O 0.49366(30) 0.29959(36) 0.85982(42) 0.1046 Uiso
O13_9 O 0.41160(69) 0.17500(48) 0.78140(42) 0.1046 Uiso
O14_8 O 0.51430(45) 0.23570(45) 0.8191(12) 0.1046 Uiso
O15_8 O 0.53140(42) 0.16160(69) 0.82500(48) 0.1046 Uiso
O16_8 O 0.58840(69) 0.21860(42) 0.82500(48) 0.1046 Uiso
Ce8_7 Ce 0.29970(10) 0.22670(15) 0.95030(10) 0.0423 Uiso
Ce9_8 Ce 0.52330(15) 0.45030(10) 0.95030(10) 0.0423 Uiso
Ce11_7 Ce 0.52330(15) 0.29970(10) 0.79970(10) 0.0423 Uiso
O20_8 O 0.5691(12) 0.26430(45) 0.76430(45) 0.1046 Uiso
O21_7 O 0.46135(87) 0.46135(87) 0.96135(87) 0.1046 Uiso
O23_8 O 0.39018(42) 0.45041(36) 0.99366(30) 0.1046 Uiso
O24_8 O 0.60982(42) 0.20041(36) 0.74366(30) 0.1046 Uiso
O25_9 O 0.39018(42) 0.25634(30) 0.79959(36) 0.1046 Uiso
O26_7 O 0.54959(36) 0.14018(42) 0.74366(30) 0.1046 Uiso
H1_9 H 0.487061 0.345143 0.904857 . .
H4_9 H 0.404857 0.345143 0.987061 . .
H5_9 H 0.404857 0.262939 0.904857 . .
O2_7 O 0.53865(87) 0.53865(87) 0.03865(87) 0.1046 Uiso
C1_10 C 0.62322(63) 0.53307(47) 0.03307(47) 0.1046 Uiso
C2_10 C 0.65062(74) 0.55313(44) 0.05313(44) 0.1046 Uiso
C3_10 C 0.66655(51) 0.58345(51) 0.03782(67) 0.1046 Uiso
O3_10 O 0.60982(42) 0.50634(30) 0.04959(36) 0.1046 Uiso
O4_10 O 0.58840(69) 0.42500(48) 0.03140(42) 0.1046 Uiso
C4_10 C 0.71693(47) 0.62678(63) 0.03307(47) 0.1046 Uiso
C5_10 C 0.69687(44) 0.59938(74) 0.05313(44) 0.1046 Uiso
O5_9 O 0.74366(30) 0.64018(42) 0.04959(36) 0.1046 Uiso
C6_10 C 0.71218(67) 0.58345(51) 0.08345(51) 0.1046 Uiso
O6_10 O 0.70041(36) 0.64018(42) 0.00634(30) 0.1046 Uiso
C7_10 C 0.71693(47) 0.53307(47) 0.12678(63) 0.1046 Uiso
C8_10 C 0.69687(44) 0.55313(44) 0.09938(74) 0.1046 Uiso
C9_10 C 0.66655(51) 0.53782(67) 0.08345(51) 0.1046 Uiso
O8_8 O 0.74366(30) 0.54959(36) 0.14018(42) 0.1046 Uiso
O9_10 O 0.60982(42) 0.54959(36) 0.00634(30) 0.1046 Uiso
O11_9 O 0.82500(48) 0.71860(42) 0.08840(69) 0.1046 Uiso
O12_9 O 0.82500(48) 0.66160(69) 0.03140(42) 0.1046 Uiso
O13_10 O 0.53140(42) 0.42500(48) 0.08840(69) 0.1046 Uiso
O21_8 O 0.71135(87) 0.71135(87) 0.03865(87) 0.1046 Uiso
O23_9 O 0.74366(30) 0.70041(36) 0.10982(42) 0.1046 Uiso
H1_10 H 0.654857 0.595143 0.0129386 . .
H4_10 H 0.737061 0.595143 0.0951431 . .
H5_10 H 0.654857 0.512939 0.0951431 . .
O14_9 O 0.5691(12) 0.48570(45) 0.98570(45) 0.1046 Uiso
O15_9 O 0.57500(48) 0.41160(69) 0.96860(42) 0.1046 Uiso
O16_9 O 0.57500(48) 0.46860(42) 0.91160(69) 0.1046 Uiso
Ce4_8 Ce 0.79970(10) 0.72670(15) 0.95030(10) 0.0423 Uiso
Ce9_9 Ce 0.70030(10) 0.70030(10) 0.97670(15) 0.0423 Uiso
Ce11_8 Ce 0.54970(10) 0.54970(10) 0.97670(15) 0.0423 Uiso
O17_9 O 0.76430(45) 0.6809(12) 0.98570(45) 0.1046 Uiso
O20_9 O 0.51430(45) 0.51430(45) 0.9309(12) 0.1046 Uiso
O24_9 O 0.49366(30) 0.45041(36) 0.89018(42) 0.1046 Uiso
C1_11 C 0.37678(63) 0.78307(47) 0.28307(47) 0.1046 Uiso
C2_11 C 0.34938(74) 0.80313(44) 0.30313(44) 0.1046 Uiso
C3_11 C 0.33345(51) 0.78782(67) 0.33345(51) 0.1046 Uiso
C4_11 C 0.28307(47) 0.78307(47) 0.37678(63) 0.1046 Uiso
C5_11 C 0.30313(44) 0.80313(44) 0.34938(74) 0.1046 Uiso
O5_10 O 0.25634(30) 0.79959(36) 0.39018(42) 0.1046 Uiso
C6_11 C 0.28782(67) 0.83345(51) 0.33345(51) 0.1046 Uiso
O6_11 O 0.29959(36) 0.75634(30) 0.39018(42) 0.1046 Uiso
C7_11 C 0.28307(47) 0.87678(63) 0.28307(47) 0.1046 Uiso
C8_11 C 0.30313(44) 0.84938(74) 0.30313(44) 0.1046 Uiso
O7_10 O 0.29959(36) 0.89018(42) 0.25634(30) 0.1046 Uiso
C9_11 C 0.33345(51) 0.83345(51) 0.28782(67) 0.1046 Uiso
O8_9 O 0.25634(30) 0.89018(42) 0.29959(36) 0.1046 Uiso
O9_11 O 0.39018(42) 0.75634(30) 0.29959(36) 0.1046 Uiso
Ce2_7 Ce 0.22670(15) 0.79970(10) 0.45030(10) 0.0423 Uiso
O10_8 O 0.1809(12) 0.76430(45) 0.48570(45) 0.1046 Uiso
O11_10 O 0.17500(48) 0.83840(69) 0.46860(42) 0.1046 Uiso
O12_10 O 0.17500(48) 0.78140(42) 0.41160(69) 0.1046 Uiso
Ce9_10 Ce 0.29970(10) 0.72670(15) 0.45030(10) 0.0423 Uiso
Ce10_8 Ce 0.22670(15) 0.95030(10) 0.29970(10) 0.0423 Uiso
O17_10 O 0.23570(45) 0.73570(45) 0.4309(12) 0.1046 Uiso
O19_7 O 0.23570(45) 0.8191(12) 0.51430(45) 0.1046 Uiso
O21_9 O 0.28865(87) 0.78865(87) 0.46135(87) 0.1046 Uiso
O23_10 O 0.25634(30) 0.85982(42) 0.45041(36) 0.1046 Uiso
H1_11 H 0.345143 0.762939 0.345143 . .
H4_11 H 0.262939 0.845143 0.345143 . .
H5_11 H 0.345143 0.845143 0.262939 . .
Ce1_6 Ce 0.22670(15) 0.45030(10) 0.79970(10) 0.0423 Uiso
O1_6 O 0.1809(12) 0.48570(45) 0.76430(45) 0.1046 Uiso
O2_8 O 0.28865(87) 0.46135(87) 0.78865(87) 0.1046 Uiso
C1_12 C 0.28307(47) 0.37678(63) 0.78307(47) 0.1046 Uiso
C2_12 C 0.30313(44) 0.34938(74) 0.80313(44) 0.1046 Uiso
C3_12 C 0.33345(51) 0.33345(51) 0.78782(67) 0.1046 Uiso
O3_11 O 0.25634(30) 0.39018(42) 0.79959(36) 0.1046 Uiso
O4_11 O 0.17500(48) 0.41160(69) 0.78140(42) 0.1046 Uiso
C4_12 C 0.37678(63) 0.28307(47) 0.78307(47) 0.1046 Uiso
C5_12 C 0.34938(74) 0.30313(44) 0.80313(44) 0.1046 Uiso
C6_12 C 0.33345(51) 0.28782(67) 0.83345(51) 0.1046 Uiso
C7_12 C 0.28307(47) 0.28307(47) 0.87678(63) 0.1046 Uiso
C8_12 C 0.30313(44) 0.30313(44) 0.84938(74) 0.1046 Uiso
O7_11 O 0.25634(30) 0.29959(36) 0.89018(42) 0.1046 Uiso
C9_12 C 0.28782(67) 0.33345(51) 0.83345(51) 0.1046 Uiso
O8_10 O 0.29959(36) 0.25634(30) 0.89018(42) 0.1046 Uiso
O9_12 O 0.29959(36) 0.39018(42) 0.75634(30) 0.1046 Uiso
O13_11 O 0.17500(48) 0.46860(42) 0.83840(69) 0.1046 Uiso
O14_10 O 0.23570(45) 0.4309(12) 0.73570(45) 0.1046 Uiso
O15_10 O 0.16160(69) 0.42500(48) 0.71860(42) 0.1046 Uiso
O16_10 O 0.21860(42) 0.42500(48) 0.66160(69) 0.1046 Uiso
Ce7_6 Ce 0.29970(10) 0.52330(15) 0.79970(10) 0.0423 Uiso
Ce8_8 Ce 0.22670(15) 0.29970(10) 0.95030(10) 0.0423 Uiso
Ce11_9 Ce 0.29970(10) 0.45030(10) 0.72670(15) 0.0423 Uiso
O18_6 O 0.23570(45) 0.51430(45) 0.8191(12) 0.1046 Uiso
O20_10 O 0.26430(45) 0.48570(45) 0.6809(12) 0.1046 Uiso
O22_6 O 0.21135(87) 0.53865(87) 0.71135(87) 0.1046 Uiso
O24_10 O 0.20041(36) 0.50634(30) 0.64018(42) 0.1046 Uiso
O25_10 O 0.25634(30) 0.45041(36) 0.85982(42) 0.1046 Uiso
H1_12 H 0.345143 0.345143 0.762939 . .
H4_12 H 0.345143 0.262939 0.845143 . .
H5_12 H 0.262939 0.345143 0.845143 . .
O4_12 O 0.07500(48) 0.83840(69) 0.78140(42) 0.1046 Uiso
O13_12 O 0.07500(48) 0.78140(42) 0.83840(69) 0.1046 Uiso
Ce8_9 Ce 0.02330(15) 0.95030(10) 0.95030(10) 0.0423 Uiso
C1_13 C 0.96693(47) 0.87322(63) 0.78307(47) 0.1046 Uiso
C2_13 C 0.94687(44) 0.90062(74) 0.80313(44) 0.1046 Uiso
C3_13 C 0.91655(51) 0.91655(51) 0.78782(67) 0.1046 Uiso
O3_12 O 0.99366(30) 0.85982(42) 0.79959(36) 0.1046 Uiso
C4_13 C 0.87322(63) 0.96693(47) 0.78307(47) 0.1046 Uiso
C5_13 C 0.90062(74) 0.94687(44) 0.80313(44) 0.1046 Uiso
C6_13 C 0.91655(51) 0.96218(67) 0.83345(51) 0.1046 Uiso
C7_13 C 0.96693(47) 0.96693(47) 0.87678(63) 0.1046 Uiso
C8_13 C 0.94687(44) 0.94687(44) 0.84938(74) 0.1046 Uiso
O7_12 O 0.99366(30) 0.95041(36) 0.89018(42) 0.1046 Uiso
C9_13 C 0.96218(67) 0.91655(51) 0.83345(51) 0.1046 Uiso
O8_11 O 0.95041(36) 0.99366(30) 0.89018(42) 0.1046 Uiso
O9_13 O 0.95041(36) 0.85982(42) 0.75634(30) 0.1046 Uiso
O25_11 O 0.99366(30) 0.79959(36) 0.85982(42) 0.1046 Uiso
H1_13 H 0.904857 0.904857 0.762939 . .
H4_13 H 0.904857 0.987061 0.845143 . .
H5_13 H 0.987061 0.904857 0.845143 . .
O15_11 O 0.42500(48) 0.53140(42) 0.08840(69) 0.1046 Uiso
O16_11 O 0.42500(48) 0.58840(69) 0.03140(42) 0.1046 Uiso
O24_11 O 0.50634(30) 0.60982(42) 0.04959(36) 0.1046 Uiso
C1_14 C 0.37678(63) 0.46693(47) 0.96693(47) 0.1046 Uiso
C2_14 C 0.34938(74) 0.44687(44) 0.94687(44) 0.1046 Uiso
C3_14 C 0.33345(51) 0.46218(67) 0.91655(51) 0.1046 Uiso
C4_14 C 0.28307(47) 0.46693(47) 0.87322(63) 0.1046 Uiso
C5_14 C 0.30313(44) 0.44687(44) 0.90062(74) 0.1046 Uiso
C6_14 C 0.28782(67) 0.41655(51) 0.91655(51) 0.1046 Uiso
O6_12 O 0.29959(36) 0.49366(30) 0.85982(42) 0.1046 Uiso
C7_14 C 0.28307(47) 0.37322(63) 0.96693(47) 0.1046 Uiso
C8_14 C 0.30313(44) 0.40062(74) 0.94687(44) 0.1046 Uiso
O7_13 O 0.29959(36) 0.35982(42) 0.99366(30) 0.1046 Uiso
C9_14 C 0.33345(51) 0.41655(51) 0.96218(67) 0.1046 Uiso
O8_12 O 0.25634(30) 0.35982(42) 0.95041(36) 0.1046 Uiso
O9_14 O 0.39018(42) 0.49366(30) 0.95041(36) 0.1046 Uiso
Ce11_10 Ce 0.45030(10) 0.52330(15) 0.95030(10) 0.0423 Uiso
O20_11 O 0.48570(45) 0.5691(12) 0.98570(45) 0.1046 Uiso
H1_14 H 0.345143 0.487061 0.904857 . .
H4_14 H 0.262939 0.404857 0.904857 . .
H5_14 H 0.345143 0.404857 0.987061 . .
O4_13 O 0.07500(48) 0.41160(69) 0.46860(42) 0.1046 Uiso
O13_13 O 0.07500(48) 0.46860(42) 0.41160(69) 0.1046 Uiso
Ce8_10 Ce 0.02330(15) 0.29970(10) 0.29970(10) 0.0423 Uiso
C1_15 C 0.96693(47) 0.37678(63) 0.46693(47) 0.1046 Uiso
C2_15 C 0.94687(44) 0.34938(74) 0.44687(44) 0.1046 Uiso
C3_15 C 0.91655(51) 0.33345(51) 0.46218(67) 0.1046 Uiso
O3_13 O 0.99366(30) 0.39018(42) 0.45041(36) 0.1046 Uiso
C4_15 C 0.87322(63) 0.28307(47) 0.46693(47) 0.1046 Uiso
C5_15 C 0.90062(74) 0.30313(44) 0.44687(44) 0.1046 Uiso
C6_15 C 0.91655(51) 0.28782(67) 0.41655(51) 0.1046 Uiso
O6_13 O 0.85982(42) 0.29959(36) 0.49366(30) 0.1046 Uiso
C7_15 C 0.96693(47) 0.28307(47) 0.37322(63) 0.1046 Uiso
C8_15 C 0.94687(44) 0.30313(44) 0.40062(74) 0.1046 Uiso
O7_14 O 0.99366(30) 0.29959(36) 0.35982(42) 0.1046 Uiso
C9_15 C 0.96218(67) 0.33345(51) 0.41655(51) 0.1046 Uiso
O8_13 O 0.95041(36) 0.25634(30) 0.35982(42) 0.1046 Uiso
O9_15 O 0.95041(36) 0.39018(42) 0.49366(30) 0.1046 Uiso
O25_12 O 0.99366(30) 0.45041(36) 0.39018(42) 0.1046 Uiso
H1_15 H 0.904857 0.345143 0.487061 . .
H4_15 H 0.904857 0.262939 0.404857 . .
H5_15 H 0.987061 0.345143 0.404857 . .
C1_16 C 0.87322(63) 0.46693(47) 0.28307(47) 0.1046 Uiso
C2_16 C 0.90062(74) 0.44687(44) 0.30313(44) 0.1046 Uiso
C3_16 C 0.91655(51) 0.46218(67) 0.33345(51) 0.1046 Uiso
C4_16 C 0.96693(47) 0.46693(47) 0.37678(63) 0.1046 Uiso
C5_16 C 0.94687(44) 0.44687(44) 0.34938(74) 0.1046 Uiso
C6_16 C 0.96218(67) 0.41655(51) 0.33345(51) 0.1046 Uiso
C7_16 C 0.96693(47) 0.37322(63) 0.28307(47) 0.1046 Uiso
C8_16 C 0.94687(44) 0.40062(74) 0.30313(44) 0.1046 Uiso
O7_15 O 0.95041(36) 0.35982(42) 0.25634(30) 0.1046 Uiso
C9_16 C 0.91655(51) 0.41655(51) 0.28782(67) 0.1046 Uiso
O8_14 O 0.99366(30) 0.35982(42) 0.29959(36) 0.1046 Uiso
O9_16 O 0.85982(42) 0.49366(30) 0.29959(36) 0.1046 Uiso
O15_12 O 0.82500(48) 0.53140(42) 0.16160(69) 0.1046 Uiso
O16_12 O 0.82500(48) 0.58840(69) 0.21860(42) 0.1046 Uiso
Ce11_11 Ce 0.79970(10) 0.52330(15) 0.29970(10) 0.0423 Uiso
O20_12 O 0.76430(45) 0.5691(12) 0.26430(45) 0.1046 Uiso
O24_12 O 0.74366(30) 0.60982(42) 0.20041(36) 0.1046 Uiso
H1_16 H 0.904857 0.487061 0.345143 . .
H4_16 H 0.987061 0.404857 0.345143 . .
H5_16 H 0.904857 0.404857 0.262939 . .
C1_17 C 0.87322(63) 0.78307(47) 0.96693(47) 0.1046 Uiso
C2_17 C 0.90062(74) 0.80313(44) 0.94687(44) 0.1046 Uiso
C3_17 C 0.91655(51) 0.78782(67) 0.91655(51) 0.1046 Uiso
C4_17 C 0.96693(47) 0.78307(47) 0.87322(63) 0.1046 Uiso
C5_17 C 0.94687(44) 0.80313(44) 0.90062(74) 0.1046 Uiso
C6_17 C 0.96218(67) 0.83345(51) 0.91655(51) 0.1046 Uiso
C7_17 C 0.96693(47) 0.87678(63) 0.96693(47) 0.1046 Uiso
C8_17 C 0.94687(44) 0.84938(74) 0.94687(44) 0.1046 Uiso
O7_16 O 0.95041(36) 0.89018(42) 0.99366(30) 0.1046 Uiso
C9_17 C 0.91655(51) 0.83345(51) 0.96218(67) 0.1046 Uiso
O8_15 O 0.99366(30) 0.89018(42) 0.95041(36) 0.1046 Uiso
O9_17 O 0.85982(42) 0.75634(30) 0.95041(36) 0.1046 Uiso
H1_17 H 0.904857 0.762939 0.904857 . .
H4_17 H 0.987061 0.845143 0.904857 . .
H5_17 H 0.904857 0.845143 0.987061 . .
C1_18 C 0.28307(47) 0.87322(63) 0.46693(47) 0.1046 Uiso
C2_18 C 0.30313(44) 0.90062(74) 0.44687(44) 0.1046 Uiso
C3_18 C 0.33345(51) 0.91655(51) 0.46218(67) 0.1046 Uiso
C4_18 C 0.37678(63) 0.96693(47) 0.46693(47) 0.1046 Uiso
C5_18 C 0.34938(74) 0.94687(44) 0.44687(44) 0.1046 Uiso
C6_18 C 0.33345(51) 0.96218(67) 0.41655(51) 0.1046 Uiso
O6_14 O 0.39018(42) 0.95041(36) 0.49366(30) 0.1046 Uiso
C7_18 C 0.28307(47) 0.96693(47) 0.37322(63) 0.1046 Uiso
C8_18 C 0.30313(44) 0.94687(44) 0.40062(74) 0.1046 Uiso
O7_17 O 0.25634(30) 0.95041(36) 0.35982(42) 0.1046 Uiso
C9_18 C 0.28782(67) 0.91655(51) 0.41655(51) 0.1046 Uiso
O8_16 O 0.29959(36) 0.99366(30) 0.35982(42) 0.1046 Uiso
O9_18 O 0.29959(36) 0.85982(42) 0.49366(30) 0.1046 Uiso
O15_13 O 0.16160(69) 0.82500(48) 0.53140(42) 0.1046 Uiso
O16_13 O 0.21860(42) 0.82500(48) 0.58840(69) 0.1046 Uiso
Ce11_12 Ce 0.29970(10) 0.79970(10) 0.52330(15) 0.0423 Uiso
O20_13 O 0.26430(45) 0.76430(45) 0.5691(12) 0.1046 Uiso
O22_7 O 0.21135(87) 0.71135(87) 0.53865(87) 0.1046 Uiso
O24_13 O 0.20041(36) 0.74366(30) 0.60982(42) 0.1046 Uiso
H1_18 H 0.345143 0.904857 0.487061 . .
H4_18 H 0.345143 0.987061 0.404857 . .
H5_18 H 0.262939 0.904857 0.404857 . .
C1_19 C 0.53307(47) 0.03307(47) 0.62322(63) 0.1046 Uiso
C2_19 C 0.55313(44) 0.05313(44) 0.65062(74) 0.1046 Uiso
C3_19 C 0.58345(51) 0.03782(67) 0.66655(51) 0.1046 Uiso
O3_14 O 0.50634(30) 0.04959(36) 0.60982(42) 0.1046 Uiso
O4_14 O 0.42500(48) 0.03140(42) 0.58840(69) 0.1046 Uiso
C4_19 C 0.62678(63) 0.03307(47) 0.71693(47) 0.1046 Uiso
C5_19 C 0.59938(74) 0.05313(44) 0.69687(44) 0.1046 Uiso
C6_19 C 0.58345(51) 0.08345(51) 0.71218(67) 0.1046 Uiso
O6_15 O 0.64018(42) 0.00634(30) 0.70041(36) 0.1046 Uiso
C7_19 C 0.53307(47) 0.12678(63) 0.71693(47) 0.1046 Uiso
C8_19 C 0.55313(44) 0.09938(74) 0.69687(44) 0.1046 Uiso
C9_19 C 0.53782(67) 0.08345(51) 0.66655(51) 0.1046 Uiso
O9_19 O 0.54959(36) 0.00634(30) 0.60982(42) 0.1046 Uiso
O13_14 O 0.42500(48) 0.08840(69) 0.53140(42) 0.1046 Uiso
H1_19 H 0.595143 0.0129386 0.654857 . .
H4_19 H 0.595143 0.0951431 0.737061 . .
H5_19 H 0.512939 0.0951431 0.654857 . .
O14_11 O 0.48570(45) 0.98570(45) 0.5691(12) 0.1046 Uiso
O15_14 O 0.41160(69) 0.96860(42) 0.57500(48) 0.1046 Uiso
O16_14 O 0.46860(42) 0.91160(69) 0.57500(48) 0.1046 Uiso
O20_14 O 0.51430(45) 0.9309(12) 0.51430(45) 0.1046 Uiso
O24_14 O 0.45041(36) 0.89018(42) 0.49366(30) 0.1046 Uiso
C1_20 C 0.71693(47) 0.21693(47) 0.62322(63) 0.1046 Uiso
C2_20 C 0.69687(44) 0.19687(44) 0.65062(74) 0.1046 Uiso
C3_20 C 0.66655(51) 0.21218(67) 0.66655(51) 0.1046 Uiso
O3_15 O 0.74366(30) 0.20041(36) 0.60982(42) 0.1046 Uiso
O4_15 O 0.82500(48) 0.21860(42) 0.58840(69) 0.1046 Uiso
C4_20 C 0.62322(63) 0.21693(47) 0.71693(47) 0.1046 Uiso
C5_20 C 0.65062(74) 0.19687(44) 0.69687(44) 0.1046 Uiso
C6_20 C 0.66655(51) 0.16655(51) 0.71218(67) 0.1046 Uiso
O6_16 O 0.60982(42) 0.24366(30) 0.70041(36) 0.1046 Uiso
C7_20 C 0.71693(47) 0.12322(63) 0.71693(47) 0.1046 Uiso
C8_20 C 0.69687(44) 0.15062(74) 0.69687(44) 0.1046 Uiso
C9_20 C 0.71218(67) 0.16655(51) 0.66655(51) 0.1046 Uiso
O9_20 O 0.70041(36) 0.24366(30) 0.60982(42) 0.1046 Uiso
O13_15 O 0.82500(48) 0.16160(69) 0.53140(42) 0.1046 Uiso
O14_12 O 0.76430(45) 0.26430(45) 0.5691(12) 0.1046 Uiso
O15_15 O 0.83840(69) 0.28140(42) 0.57500(48) 0.1046 Uiso
O16_15 O 0.78140(42) 0.33840(69) 0.57500(48) 0.1046 Uiso
O20_15 O 0.73570(45) 0.3191(12) 0.51430(45) 0.1046 Uiso
O24_15 O 0.79959(36) 0.35982(42) 0.49366(30) 0.1046 Uiso
H1_20 H 0.654857 0.237061 0.654857 . .
H4_20 H 0.654857 0.154857 0.737061 . .
H5_20 H 0.737061 0.154857 0.654857 . .
C1_21 C 0.21693(47) 0.62678(63) 0.53307(47) 0.1046 Uiso
C2_21 C 0.19687(44) 0.59938(74) 0.55313(44) 0.1046 Uiso
C3_21 C 0.21218(67) 0.58345(51) 0.58345(51) 0.1046 Uiso
O3_16 O 0.20041(36) 0.64018(42) 0.50634(30) 0.1046 Uiso
O4_16 O 0.21860(42) 0.66160(69) 0.42500(48) 0.1046 Uiso
C4_21 C 0.21693(47) 0.53307(47) 0.62678(63) 0.1046 Uiso
C5_21 C 0.19687(44) 0.55313(44) 0.59938(74) 0.1046 Uiso
C6_21 C 0.16655(51) 0.53782(67) 0.58345(51) 0.1046 Uiso
O6_17 O 0.24366(30) 0.54959(36) 0.64018(42) 0.1046 Uiso
C7_21 C 0.12322(63) 0.53307(47) 0.53307(47) 0.1046 Uiso
C8_21 C 0.15062(74) 0.55313(44) 0.55313(44) 0.1046 Uiso
C9_21 C 0.16655(51) 0.58345(51) 0.53782(67) 0.1046 Uiso
O9_21 O 0.24366(30) 0.64018(42) 0.54959(36) 0.1046 Uiso
O13_16 O 0.16160(69) 0.71860(42) 0.42500(48) 0.1046 Uiso
O14_13 O 0.26430(45) 0.6809(12) 0.48570(45) 0.1046 Uiso
O15_16 O 0.28140(42) 0.67500(48) 0.41160(69) 0.1046 Uiso
O16_16 O 0.33840(69) 0.67500(48) 0.46860(42) 0.1046 Uiso
Ce9_11 Ce 0.27330(15) 0.54970(10) 0.70030(10) 0.0423 Uiso
Ce11_13 Ce 0.27330(15) 0.70030(10) 0.54970(10) 0.0423 Uiso
O20_16 O 0.3191(12) 0.73570(45) 0.51430(45) 0.1046 Uiso
O24_16 O 0.35982(42) 0.75634(30) 0.45041(36) 0.1046 Uiso
H1_21 H 0.237061 0.595143 0.595143 . .
H4_21 H 0.154857 0.512939 0.595143 . .
H5_21 H 0.154857 0.595143 0.512939 . .
C1_22 C 0.21693(47) 0.62322(63) 0.71693(47) 0.1046 Uiso
C2_22 C 0.19687(44) 0.65062(74) 0.69687(44) 0.1046 Uiso
C3_22 C 0.21218(67) 0.66655(51) 0.66655(51) 0.1046 Uiso
O3_17 O 0.20041(36) 0.60982(42) 0.74366(30) 0.1046 Uiso
O4_17 O 0.21860(42) 0.58840(69) 0.82500(48) 0.1046 Uiso
C4_22 C 0.21693(47) 0.71693(47) 0.62322(63) 0.1046 Uiso
C5_22 C 0.19687(44) 0.69687(44) 0.65062(74) 0.1046 Uiso
C6_22 C 0.16655(51) 0.71218(67) 0.66655(51) 0.1046 Uiso
O6_18 O 0.24366(30) 0.70041(36) 0.60982(42) 0.1046 Uiso
C7_22 C 0.12322(63) 0.71693(47) 0.71693(47) 0.1046 Uiso
C8_22 C 0.15062(74) 0.69687(44) 0.69687(44) 0.1046 Uiso
C9_22 C 0.16655(51) 0.66655(51) 0.71218(67) 0.1046 Uiso
O9_22 O 0.24366(30) 0.60982(42) 0.70041(36) 0.1046 Uiso
O13_17 O 0.16160(69) 0.53140(42) 0.82500(48) 0.1046 Uiso
O14_14 O 0.26430(45) 0.5691(12) 0.76430(45) 0.1046 Uiso
O15_17 O 0.28140(42) 0.57500(48) 0.83840(69) 0.1046 Uiso
O16_17 O 0.33840(69) 0.57500(48) 0.78140(42) 0.1046 Uiso
O20_17 O 0.3191(12) 0.51430(45) 0.73570(45) 0.1046 Uiso
O24_17 O 0.35982(42) 0.49366(30) 0.79959(36) 0.1046 Uiso
H1_22 H 0.237061 0.654857 0.654857 . .
H4_22 H 0.154857 0.737061 0.654857 . .
H5_22 H 0.154857 0.654857 0.737061 . .
C1_23 C 0.62678(63) 0.71693(47) 0.03307(47) 0.1046 Uiso
C2_23 C 0.59938(74) 0.69687(44) 0.05313(44) 0.1046 Uiso
C3_23 C 0.58345(51) 0.66655(51) 0.03782(67) 0.1046 Uiso
O3_18 O 0.64018(42) 0.74366(30) 0.04959(36) 0.1046 Uiso
O4_18 O 0.66160(69) 0.82500(48) 0.03140(42) 0.1046 Uiso
C4_23 C 0.53307(47) 0.62322(63) 0.03307(47) 0.1046 Uiso
C5_23 C 0.55313(44) 0.65062(74) 0.05313(44) 0.1046 Uiso
C6_23 C 0.53782(67) 0.66655(51) 0.08345(51) 0.1046 Uiso
O6_19 O 0.54959(36) 0.60982(42) 0.00634(30) 0.1046 Uiso
C7_23 C 0.53307(47) 0.71693(47) 0.12678(63) 0.1046 Uiso
C8_23 C 0.55313(44) 0.69687(44) 0.09938(74) 0.1046 Uiso
O7_18 O 0.54959(36) 0.74366(30) 0.14018(42) 0.1046 Uiso
C9_23 C 0.58345(51) 0.71218(67) 0.08345(51) 0.1046 Uiso
O9_23 O 0.64018(42) 0.70041(36) 0.00634(30) 0.1046 Uiso
O13_18 O 0.71860(42) 0.82500(48) 0.08840(69) 0.1046 Uiso
O25_13 O 0.70041(36) 0.74366(30) 0.10982(42) 0.1046 Uiso
H1_23 H 0.595143 0.654857 0.0129386 . .
H4_23 H 0.512939 0.654857 0.0951431 . .
H5_23 H 0.595143 0.737061 0.0951431 . .
O14_15 O 0.6809(12) 0.76430(45) 0.98570(45) 0.1046 Uiso
O15_18 O 0.67500(48) 0.83840(69) 0.96860(42) 0.1046 Uiso
O16_18 O 0.67500(48) 0.78140(42) 0.91160(69) 0.1046 Uiso
O20_18 O 0.73570(45) 0.73570(45) 0.9309(12) 0.1046 Uiso
O24_18 O 0.75634(30) 0.79959(36) 0.89018(42) 0.1046 Uiso
C1_24 C 0.62322(63) 0.71693(47) 0.21693(47) 0.1046 Uiso
C2_24 C 0.65062(74) 0.69687(44) 0.19687(44) 0.1046 Uiso
C3_24 C 0.66655(51) 0.66655(51) 0.21218(67) 0.1046 Uiso
O3_19 O 0.60982(42) 0.74366(30) 0.20041(36) 0.1046 Uiso
O4_19 O 0.58840(69) 0.82500(48) 0.21860(42) 0.1046 Uiso
C4_24 C 0.71693(47) 0.62322(63) 0.21693(47) 0.1046 Uiso
C5_24 C 0.69687(44) 0.65062(74) 0.19687(44) 0.1046 Uiso
C6_24 C 0.71218(67) 0.66655(51) 0.16655(51) 0.1046 Uiso
O6_20 O 0.70041(36) 0.60982(42) 0.24366(30) 0.1046 Uiso
C7_24 C 0.71693(47) 0.71693(47) 0.12322(63) 0.1046 Uiso
C8_24 C 0.69687(44) 0.69687(44) 0.15062(74) 0.1046 Uiso
C9_24 C 0.66655(51) 0.71218(67) 0.16655(51) 0.1046 Uiso
O9_24 O 0.60982(42) 0.70041(36) 0.24366(30) 0.1046 Uiso
O13_19 O 0.53140(42) 0.82500(48) 0.16160(69) 0.1046 Uiso
O14_16 O 0.5691(12) 0.76430(45) 0.26430(45) 0.1046 Uiso
O15_19 O 0.57500(48) 0.83840(69) 0.28140(42) 0.1046 Uiso
O16_19 O 0.57500(48) 0.78140(42) 0.33840(69) 0.1046 Uiso
O20_19 O 0.51430(45) 0.73570(45) 0.3191(12) 0.1046 Uiso
O24_19 O 0.49366(30) 0.79959(36) 0.35982(42) 0.1046 Uiso
H1_24 H 0.654857 0.654857 0.237061 . .
H4_24 H 0.737061 0.654857 0.154857 . .
H5_24 H 0.654857 0.737061 0.154857 . .
C1_25 C 0.78307(47) 0.78307(47) 0.87678(63) 0.1046 Uiso
C2_25 C 0.80313(44) 0.80313(44) 0.84938(74) 0.1046 Uiso
C3_25 C 0.78782(67) 0.83345(51) 0.83345(51) 0.1046 Uiso
O3_20 O 0.79959(36) 0.75634(30) 0.89018(42) 0.1046 Uiso
O4_20 O 0.78140(42) 0.67500(48) 0.91160(69) 0.1046 Uiso
C4_25 C 0.78307(47) 0.87678(63) 0.78307(47) 0.1046 Uiso
C5_25 C 0.80313(44) 0.84938(74) 0.80313(44) 0.1046 Uiso
C6_25 C 0.83345(51) 0.83345(51) 0.78782(67) 0.1046 Uiso
O6_21 O 0.75634(30) 0.89018(42) 0.79959(36) 0.1046 Uiso
C7_25 C 0.87678(63) 0.78307(47) 0.78307(47) 0.1046 Uiso
C8_25 C 0.84938(74) 0.80313(44) 0.80313(44) 0.1046 Uiso
C9_25 C 0.83345(51) 0.78782(67) 0.83345(51) 0.1046 Uiso
O8_17 O 0.89018(42) 0.79959(36) 0.75634(30) 0.1046 Uiso
O13_20 O 0.83840(69) 0.67500(48) 0.96860(42) 0.1046 Uiso
O15_20 O 0.71860(42) 0.66160(69) 0.92500(48) 0.1046 Uiso
O16_20 O 0.66160(69) 0.71860(42) 0.92500(48) 0.1046 Uiso
H1_25 H 0.762939 0.845143 0.845143 . .
H4_25 H 0.845143 0.845143 0.762939 . .
H5_25 H 0.845143 0.762939 0.845143 . .
O11_11 O 0.53140(42) 0.58840(69) 0.92500(48) 0.1046 Uiso
O12_11 O 0.58840(69) 0.53140(42) 0.92500(48) 0.1046 Uiso
C1_26 C 0.46693(47) 0.46693(47) 0.87678(63) 0.1046 Uiso
C2_26 C 0.44687(44) 0.44687(44) 0.84938(74) 0.1046 Uiso
C3_26 C 0.46218(67) 0.41655(51) 0.83345(51) 0.1046 Uiso
O3_21 O 0.45041(36) 0.49366(30) 0.89018(42) 0.1046 Uiso
O4_21 O 0.46860(42) 0.57500(48) 0.91160(69) 0.1046 Uiso
C4_26 C 0.46693(47) 0.37322(63) 0.78307(47) 0.1046 Uiso
C5_26 C 0.44687(44) 0.40062(74) 0.80313(44) 0.1046 Uiso
C6_26 C 0.41655(51) 0.41655(51) 0.78782(67) 0.1046 Uiso
O6_22 O 0.49366(30) 0.35982(42) 0.79959(36) 0.1046 Uiso
C7_26 C 0.37322(63) 0.46693(47) 0.78307(47) 0.1046 Uiso
C8_26 C 0.40062(74) 0.44687(44) 0.80313(44) 0.1046 Uiso
C9_26 C 0.41655(51) 0.46218(67) 0.83345(51) 0.1046 Uiso
O8_18 O 0.35982(42) 0.45041(36) 0.75634(30) 0.1046 Uiso
O13_21 O 0.41160(69) 0.57500(48) 0.96860(42) 0.1046 Uiso
H1_26 H 0.487061 0.404857 0.845143 . .
H4_26 H 0.404857 0.404857 0.762939 . .
H5_26 H 0.404857 0.487061 0.845143 . .
O2_9 O 0.03865(87) 0.03865(87) 0.03865(87) 0.1046 Uiso
C1_27 C 0.03307(47) 0.12322(63) 0.03307(47) 0.1046 Uiso
C2_27 C 0.05313(44) 0.15062(74) 0.05313(44) 0.1046 Uiso
C3_27 C 0.03782(67) 0.16655(51) 0.08345(51) 0.1046 Uiso
O3_22 O 0.04959(36) 0.10982(42) 0.00634(30) 0.1046 Uiso
C4_27 C 0.03307(47) 0.21693(47) 0.12678(63) 0.1046 Uiso
C5_27 C 0.05313(44) 0.19687(44) 0.09938(74) 0.1046 Uiso
O5_11 O 0.04959(36) 0.24366(30) 0.14018(42) 0.1046 Uiso
C6_27 C 0.08345(51) 0.21218(67) 0.08345(51) 0.1046 Uiso
O6_23 O 0.00634(30) 0.20041(36) 0.14018(42) 0.1046 Uiso
C7_27 C 0.12678(63) 0.21693(47) 0.03307(47) 0.1046 Uiso
C8_27 C 0.09938(74) 0.19687(44) 0.05313(44) 0.1046 Uiso
O7_19 O 0.14018(42) 0.20041(36) 0.00634(30) 0.1046 Uiso
C9_27 C 0.08345(51) 0.16655(51) 0.03782(67) 0.1046 Uiso
O8_19 O 0.14018(42) 0.24366(30) 0.04959(36) 0.1046 Uiso
O9_25 O 0.00634(30) 0.10982(42) 0.04959(36) 0.1046 Uiso
Ce2_8 Ce 0.04970(10) 0.27330(15) 0.20030(10) 0.0423 Uiso
O10_9 O 0.01430(45) 0.3191(12) 0.23570(45) 0.1046 Uiso
O11_12 O 0.08840(69) 0.32500(48) 0.21860(42) 0.1046 Uiso
O12_12 O 0.03140(42) 0.32500(48) 0.16160(69) 0.1046 Uiso
Ce10_9 Ce 0.20030(10) 0.27330(15) 0.04970(10) 0.0423 Uiso
O19_8 O 0.0691(12) 0.26430(45) 0.26430(45) 0.1046 Uiso
O21_10 O 0.03865(87) 0.21135(87) 0.21135(87) 0.1046 Uiso
O23_11 O 0.10982(42) 0.24366(30) 0.20041(36) 0.1046 Uiso
O25_14 O 0.10982(42) 0.04959(36) 0.00634(30) 0.1046 Uiso
H1_27 H 0.0129386 0.154857 0.0951431 . .
H4_27 H 0.0951431 0.237061 0.0951431 . .
H5_27 H 0.0951431 0.154857 0.0129386 . .
Ce1_7 Ce 0.04970(10) 0.04970(10) 0.97670(15) 0.0423 Uiso
O1_7 O 0.01430(45) 0.01430(45) 0.9309(12) 0.1046 Uiso
O4_22 O 0.03140(42) 0.08840(69) 0.92500(48) 0.1046 Uiso
O13_22 O 0.08840(69) 0.03140(42) 0.92500(48) 0.1046 Uiso
Ce8_11 Ce 0.20030(10) 0.20030(10) 0.97670(15) 0.0423 Uiso
Ce7_7 Ce 0.04970(10) 0.97670(15) 0.04970(10) 0.0423 Uiso
O18_7 O 0.0691(12) 0.98570(45) 0.98570(45) 0.1046 Uiso
Ce9_12 Ce 0.97670(15) 0.20030(10) 0.20030(10) 0.0423 Uiso
Ce11_14 Ce 0.97670(15) 0.04970(10) 0.04970(10) 0.0423 Uiso
O17_11 O 0.98570(45) 0.26430(45) 0.1809(12) 0.1046 Uiso
O20_20 O 0.9309(12) 0.01430(45) 0.01430(45) 0.1046 Uiso
O14_17 O 0.98570(45) 0.0691(12) 0.98570(45) 0.1046 Uiso
O15_21 O 0.96860(42) 0.07500(48) 0.91160(69) 0.1046 Uiso
O16_21 O 0.91160(69) 0.07500(48) 0.96860(42) 0.1046 Uiso
O22_8 O 0.96135(87) 0.96135(87) 0.96135(87) 0.1046 Uiso
C1_28 C 0.78307(47) 0.46693(47) 0.37322(63) 0.1046 Uiso
C2_28 C 0.80313(44) 0.44687(44) 0.40062(74) 0.1046 Uiso
C3_28 C 0.78782(67) 0.41655(51) 0.41655(51) 0.1046 Uiso
O3_23 O 0.79959(36) 0.49366(30) 0.35982(42) 0.1046 Uiso
O4_23 O 0.78140(42) 0.57500(48) 0.33840(69) 0.1046 Uiso
C4_28 C 0.78307(47) 0.37322(63) 0.46693(47) 0.1046 Uiso
C5_28 C 0.80313(44) 0.40062(74) 0.44687(44) 0.1046 Uiso
C6_28 C 0.83345(51) 0.41655(51) 0.46218(67) 0.1046 Uiso
O6_24 O 0.75634(30) 0.35982(42) 0.45041(36) 0.1046 Uiso
C7_28 C 0.87678(63) 0.46693(47) 0.46693(47) 0.1046 Uiso
C8_28 C 0.84938(74) 0.44687(44) 0.44687(44) 0.1046 Uiso
C9_28 C 0.83345(51) 0.46218(67) 0.41655(51) 0.1046 Uiso
O8_20 O 0.89018(42) 0.45041(36) 0.49366(30) 0.1046 Uiso
O13_23 O 0.83840(69) 0.57500(48) 0.28140(42) 0.1046 Uiso
O15_22 O 0.71860(42) 0.58840(69) 0.32500(48) 0.1046 Uiso
O16_22 O 0.66160(69) 0.53140(42) 0.32500(48) 0.1046 Uiso
H1_28 H 0.762939 0.404857 0.404857 . .
H4_28 H 0.845143 0.404857 0.487061 . .
H5_28 H 0.845143 0.487061 0.404857 . .
Ce1_8 Ce 0.04970(10) 0.20030(10) 0.27330(15) 0.0423 Uiso
O1_8 O 0.01430(45) 0.23570(45) 0.3191(12) 0.1046 Uiso
C1_29 C 0.03307(47) 0.12678(63) 0.21693(47) 0.1046 Uiso
C2_29 C 0.05313(44) 0.09938(74) 0.19687(44) 0.1046 Uiso
C3_29 C 0.03782(67) 0.08345(51) 0.16655(51) 0.1046 Uiso
O3_24 O 0.04959(36) 0.14018(42) 0.24366(30) 0.1046 Uiso
O4_24 O 0.03140(42) 0.16160(69) 0.32500(48) 0.1046 Uiso
C4_29 C 0.03307(47) 0.03307(47) 0.12322(63) 0.1046 Uiso
C5_29 C 0.05313(44) 0.05313(44) 0.15062(74) 0.1046 Uiso
O5_12 O 0.04959(36) 0.00634(30) 0.10982(42) 0.1046 Uiso
C6_29 C 0.08345(51) 0.03782(67) 0.16655(51) 0.1046 Uiso
O6_25 O 0.00634(30) 0.04959(36) 0.10982(42) 0.1046 Uiso
C7_29 C 0.12678(63) 0.03307(47) 0.21693(47) 0.1046 Uiso
C8_29 C 0.09938(74) 0.05313(44) 0.19687(44) 0.1046 Uiso
O7_20 O 0.14018(42) 0.04959(36) 0.24366(30) 0.1046 Uiso
C9_29 C 0.08345(51) 0.08345(51) 0.21218(67) 0.1046 Uiso
O8_21 O 0.14018(42) 0.00634(30) 0.20041(36) 0.1046 Uiso
O9_26 O 0.00634(30) 0.14018(42) 0.20041(36) 0.1046 Uiso
O13_24 O 0.08840(69) 0.21860(42) 0.32500(48) 0.1046 Uiso
Ce8_12 Ce 0.20030(10) 0.04970(10) 0.27330(15) 0.0423 Uiso
O23_12 O 0.10982(42) 0.00634(30) 0.04959(36) 0.1046 Uiso
O25_15 O 0.10982(42) 0.20041(36) 0.24366(30) 0.1046 Uiso
H1_29 H 0.0129386 0.0951431 0.154857 . .
H4_29 H 0.0951431 0.0129386 0.154857 . .
H5_29 H 0.0951431 0.0951431 0.237061 . .
O10_10 O 0.01430(45) 0.9309(12) 0.01430(45) 0.1046 Uiso
O11_13 O 0.08840(69) 0.92500(48) 0.03140(42) 0.1046 Uiso
O12_13 O 0.03140(42) 0.92500(48) 0.08840(69) 0.1046 Uiso
Ce10_10 Ce 0.20030(10) 0.97670(15) 0.20030(10) 0.0423 Uiso
O14_18 O 0.98570(45) 0.1809(12) 0.26430(45) 0.1046 Uiso
O15_23 O 0.96860(42) 0.17500(48) 0.33840(69) 0.1046 Uiso
O16_23 O 0.91160(69) 0.17500(48) 0.28140(42) 0.1046 Uiso
O20_21 O 0.9309(12) 0.23570(45) 0.23570(45) 0.1046 Uiso
O22_9 O 0.96135(87) 0.28865(87) 0.28865(87) 0.1046 Uiso
O17_12 O 0.98570(45) 0.98570(45) 0.0691(12) 0.1046 Uiso
O4_25 O 0.66160(69) 0.92500(48) 0.71860(42) 0.1046 Uiso
O13_25 O 0.71860(42) 0.92500(48) 0.66160(69) 0.1046 Uiso
O15_24 O 0.67500(48) 0.91160(69) 0.78140(42) 0.1046 Uiso
O16_24 O 0.67500(48) 0.96860(42) 0.83840(69) 0.1046 Uiso
C1_30 C 0.46693(47) 0.78307(47) 0.37322(63) 0.1046 Uiso
C2_30 C 0.44687(44) 0.80313(44) 0.40062(74) 0.1046 Uiso
C3_30 C 0.46218(67) 0.83345(51) 0.41655(51) 0.1046 Uiso
O3_25 O 0.45041(36) 0.75634(30) 0.35982(42) 0.1046 Uiso
O4_26 O 0.46860(42) 0.67500(48) 0.33840(69) 0.1046 Uiso
C4_30 C 0.46693(47) 0.87678(63) 0.46693(47) 0.1046 Uiso
C5_30 C 0.44687(44) 0.84938(74) 0.44687(44) 0.1046 Uiso
C6_30 C 0.41655(51) 0.83345(51) 0.46218(67) 0.1046 Uiso
O6_26 O 0.49366(30) 0.89018(42) 0.45041(36) 0.1046 Uiso
C7_30 C 0.37322(63) 0.78307(47) 0.46693(47) 0.1046 Uiso
C8_30 C 0.40062(74) 0.80313(44) 0.44687(44) 0.1046 Uiso
C9_30 C 0.41655(51) 0.78782(67) 0.41655(51) 0.1046 Uiso
O8_22 O 0.35982(42) 0.79959(36) 0.49366(30) 0.1046 Uiso
O13_26 O 0.41160(69) 0.67500(48) 0.28140(42) 0.1046 Uiso
O15_25 O 0.53140(42) 0.66160(69) 0.32500(48) 0.1046 Uiso
O16_25 O 0.58840(69) 0.71860(42) 0.32500(48) 0.1046 Uiso
H1_30 H 0.487061 0.845143 0.404857 . .
H4_30 H 0.404857 0.845143 0.487061 . .
H5_30 H 0.404857 0.762939 0.404857 . .
O4_27 O 0.58840(69) 0.92500(48) 0.53140(42) 0.1046 Uiso
O13_27 O 0.53140(42) 0.92500(48) 0.58840(69) 0.1046 Uiso
O15_26 O 0.57500(48) 0.91160(69) 0.46860(42) 0.1046 Uiso
O16_26 O 0.57500(48) 0.96860(42) 0.41160(69) 0.1046 Uiso
O19_9 O 0.23570(45) 0.3191(12) 0.01430(45) 0.1046 Uiso
O10_11 O 0.1809(12) 0.26430(45) 0.98570(45) 0.1046 Uiso
O11_14 O 0.17500(48) 0.33840(69) 0.96860(42) 0.1046 Uiso
O12_14 O 0.17500(48) 0.28140(42) 0.91160(69) 0.1046 Uiso
O17_13 O 0.23570(45) 0.23570(45) 0.9309(12) 0.1046 Uiso
O21_11 O 0.28865(87) 0.28865(87) 0.96135(87) 0.1046 Uiso
O18_8 O 0.23570(45) 0.01430(45) 0.3191(12) 0.1046 Uiso
O22_10 O 0.21135(87) 0.03865(87) 0.21135(87) 0.1046 Uiso
O24_20 O 0.20041(36) 0.00634(30) 0.14018(42) 0.1046 Uiso
O1_9 O 0.1809(12) 0.98570(45) 0.26430(45) 0.1046 Uiso
O2_10 O 0.28865(87) 0.96135(87) 0.28865(87) 0.1046 Uiso
O4_28 O 0.17500(48) 0.91160(69) 0.28140(42) 0.1046 Uiso
O13_28 O 0.17500(48) 0.96860(42) 0.33840(69) 0.1046 Uiso
O14_19 O 0.23570(45) 0.9309(12) 0.23570(45) 0.1046 Uiso
O15_27 O 0.16160(69) 0.92500(48) 0.21860(42) 0.1046 Uiso
O16_27 O 0.21860(42) 0.92500(48) 0.16160(69) 0.1046 Uiso
O20_22 O 0.26430(45) 0.98570(45) 0.1809(12) 0.1046 Uiso
O4_29 O 0.07500(48) 0.33840(69) 0.28140(42) 0.1046 Uiso
O13_29 O 0.07500(48) 0.28140(42) 0.33840(69) 0.1046 Uiso
O4_30 O 0.07500(48) 0.91160(69) 0.96860(42) 0.1046 Uiso
O13_30 O 0.07500(48) 0.96860(42) 0.91160(69) 0.1046 Uiso
O15_28 O 0.16160(69) 0.32500(48) 0.03140(42) 0.1046 Uiso
O16_28 O 0.21860(42) 0.32500(48) 0.08840(69) 0.1046 Uiso
O20_23 O 0.26430(45) 0.26430(45) 0.0691(12) 0.1046 Uiso
O22_11 O 0.21135(87) 0.21135(87) 0.03865(87) 0.1046 Uiso
O24_21 O 0.20041(36) 0.24366(30) 0.10982(42) 0.1046 Uiso
C1_31 C 0.21693(47) 0.12678(63) 0.03307(47) 0.1046 Uiso
C2_31 C 0.19687(44) 0.09938(74) 0.05313(44) 0.1046 Uiso
C3_31 C 0.21218(67) 0.08345(51) 0.08345(51) 0.1046 Uiso
O3_26 O 0.20041(36) 0.14018(42) 0.00634(30) 0.1046 Uiso
C4_31 C 0.21693(47) 0.03307(47) 0.12678(63) 0.1046 Uiso
C5_31 C 0.19687(44) 0.05313(44) 0.09938(74) 0.1046 Uiso
C6_31 C 0.16655(51) 0.03782(67) 0.08345(51) 0.1046 Uiso
O6_27 O 0.24366(30) 0.04959(36) 0.14018(42) 0.1046 Uiso
C7_31 C 0.12322(63) 0.03307(47) 0.03307(47) 0.1046 Uiso
C8_31 C 0.15062(74) 0.05313(44) 0.05313(44) 0.1046 Uiso
C9_31 C 0.16655(51) 0.08345(51) 0.03782(67) 0.1046 Uiso
O9_27 O 0.24366(30) 0.14018(42) 0.04959(36) 0.1046 Uiso
Ce9_13 Ce 0.27330(15) 0.04970(10) 0.20030(10) 0.0423 Uiso
Ce11_15 Ce 0.27330(15) 0.20030(10) 0.04970(10) 0.0423 Uiso
O20_24 O 0.3191(12) 0.23570(45) 0.01430(45) 0.1046 Uiso
H1_31 H 0.237061 0.0951431 0.0951431 . .
H4_31 H 0.154857 0.0129386 0.0951431 . .
H5_31 H 0.154857 0.0951431 0.0129386 . .
O4_31 O 0.21860(42) 0.16160(69) 0.92500(48) 0.1046 Uiso
O13_31 O 0.16160(69) 0.21860(42) 0.92500(48) 0.1046 Uiso
O14_20 O 0.26430(45) 0.1809(12) 0.98570(45) 0.1046 Uiso
O15_29 O 0.28140(42) 0.17500(48) 0.91160(69) 0.1046 Uiso
O16_29 O 0.33840(69) 0.17500(48) 0.96860(42) 0.1046 Uiso
C1_32 C 0.21693(47) 0.12322(63) 0.21693(47) 0.1046 Uiso
C2_32 C 0.19687(44) 0.15062(74) 0.19687(44) 0.1046 Uiso
C3_32 C 0.21218(67) 0.16655(51) 0.16655(51) 0.1046 Uiso
O3_27 O 0.20041(36) 0.10982(42) 0.24366(30) 0.1046 Uiso
O4_32 O 0.21860(42) 0.08840(69) 0.32500(48) 0.1046 Uiso
C4_32 C 0.21693(47) 0.21693(47) 0.12322(63) 0.1046 Uiso
C5_32 C 0.19687(44) 0.19687(44) 0.15062(74) 0.1046 Uiso
C6_32 C 0.16655(51) 0.21218(67) 0.16655(51) 0.1046 Uiso
O6_28 O 0.24366(30) 0.20041(36) 0.10982(42) 0.1046 Uiso
C7_32 C 0.12322(63) 0.21693(47) 0.21693(47) 0.1046 Uiso
C8_32 C 0.15062(74) 0.19687(44) 0.19687(44) 0.1046 Uiso
C9_32 C 0.16655(51) 0.16655(51) 0.21218(67) 0.1046 Uiso
O9_28 O 0.24366(30) 0.10982(42) 0.20041(36) 0.1046 Uiso
O13_32 O 0.16160(69) 0.03140(42) 0.32500(48) 0.1046 Uiso
O14_21 O 0.26430(45) 0.0691(12) 0.26430(45) 0.1046 Uiso
O15_30 O 0.28140(42) 0.07500(48) 0.33840(69) 0.1046 Uiso
O16_30 O 0.33840(69) 0.07500(48) 0.28140(42) 0.1046 Uiso
O20_25 O 0.3191(12) 0.01430(45) 0.23570(45) 0.1046 Uiso
H1_32 H 0.237061 0.154857 0.154857 . .
H4_32 H 0.154857 0.237061 0.154857 . .
H5_32 H 0.154857 0.154857 0.237061 . .
O4_33 O 0.66160(69) 0.32500(48) 0.53140(42) 0.1046 Uiso
O13_33 O 0.71860(42) 0.32500(48) 0.58840(69) 0.1046 Uiso
O15_31 O 0.67500(48) 0.33840(69) 0.46860(42) 0.1046 Uiso
O16_31 O 0.67500(48) 0.28140(42) 0.41160(69) 0.1046 Uiso
O4_34 O 0.58840(69) 0.32500(48) 0.71860(42) 0.1046 Uiso
O13_34 O 0.53140(42) 0.32500(48) 0.66160(69) 0.1046 Uiso
O15_32 O 0.57500(48) 0.33840(69) 0.78140(42) 0.1046 Uiso
O16_32 O 0.57500(48) 0.28140(42) 0.83840(69) 0.1046 Uiso
O11_15 O 0.33840(69) 0.46860(42) 0.67500(48) 0.1046 Uiso
O12_15 O 0.28140(42) 0.41160(69) 0.67500(48) 0.1046 Uiso
O4_35 O 0.32500(48) 0.03140(42) 0.16160(69) 0.1046 Uiso
O13_35 O 0.32500(48) 0.08840(69) 0.21860(42) 0.1046 Uiso
O15_33 O 0.33840(69) 0.96860(42) 0.17500(48) 0.1046 Uiso
O16_33 O 0.28140(42) 0.91160(69) 0.17500(48) 0.1046 Uiso
O11_16 O 0.91160(69) 0.78140(42) 0.67500(48) 0.1046 Uiso
O12_16 O 0.96860(42) 0.83840(69) 0.67500(48) 0.1046 Uiso
O4_36 O 0.92500(48) 0.21860(42) 0.16160(69) 0.1046 Uiso
O13_36 O 0.92500(48) 0.16160(69) 0.21860(42) 0.1046 Uiso
O15_34 O 0.91160(69) 0.28140(42) 0.17500(48) 0.1046 Uiso
O16_34 O 0.96860(42) 0.33840(69) 0.17500(48) 0.1046 Uiso
O11_17 O 0.33840(69) 0.78140(42) 0.57500(48) 0.1046 Uiso
O12_17 O 0.28140(42) 0.83840(69) 0.57500(48) 0.1046 Uiso
O11_18 O 0.92500(48) 0.71860(42) 0.66160(69) 0.1046 Uiso
O12_18 O 0.92500(48) 0.66160(69) 0.71860(42) 0.1046 Uiso
O11_19 O 0.91160(69) 0.46860(42) 0.57500(48) 0.1046 Uiso
O12_19 O 0.96860(42) 0.41160(69) 0.57500(48) 0.1046 Uiso
O11_20 O 0.32500(48) 0.71860(42) 0.58840(69) 0.1046 Uiso
O12_20 O 0.32500(48) 0.66160(69) 0.53140(42) 0.1046 Uiso
O15_35 O 0.92500(48) 0.53140(42) 0.58840(69) 0.1046 Uiso
O16_35 O 0.92500(48) 0.58840(69) 0.53140(42) 0.1046 Uiso
O15_36 O 0.32500(48) 0.53140(42) 0.66160(69) 0.1046 Uiso
O16_36 O 0.32500(48) 0.58840(69) 0.71860(42) 0.1046 Uiso
O4_37 O 0.92500(48) 0.03140(42) 0.08840(69) 0.1046 Uiso
O13_37 O 0.92500(48) 0.08840(69) 0.03140(42) 0.1046 Uiso
O15_37 O 0.91160(69) 0.96860(42) 0.07500(48) 0.1046 Uiso
O16_37 O 0.96860(42) 0.91160(69) 0.07500(48) 0.1046 Uiso
O4_38 O 0.32500(48) 0.21860(42) 0.08840(69) 0.1046 Uiso
O13_38 O 0.32500(48) 0.16160(69) 0.03140(42) 0.1046 Uiso
O15_38 O 0.33840(69) 0.28140(42) 0.07500(48) 0.1046 Uiso
O16_38 O 0.28140(42) 0.33840(69) 0.07500(48) 0.1046 Uiso
loop_
_geom_bond_atom_site_label_1
_geom_bond_atom_site_label_2
_geom_bond_site_symmetry_1
_geom_bond_site_symmetry_2
Ce1 O1 1_555 1_555
O1 Ce3 1_555 1_555
O2 Ce1 1_555 1_555
C1 C2 1_555 1_555
C2 C3 1_555 1_555
C3 C5 1_555 1_555
O3 Ce1 1_555 1_555
O4 Ce1 1_555 1_555
C4 C5 1_555 1_555
C5 C6 1_555 1_555
O5 C4 1_555 1_555
C6 C8 1_555 1_555
O6 C4 1_555 1_555
C7 C8 1_555 1_555
C8 C9 1_555 1_555
O7 C7 1_555 1_555
C9 C2 1_555 1_555
O8 C7 1_555 1_555
O9 C1 1_555 1_555
Ce2 O5 1_555 1_555
O10 Ce2 1_555 1_555
O11 Ce2 1_555 1_555
O12 Ce2 1_555 1_555
O13 Ce1 1_555 1_555
Ce3 O14 1_555 1_555
O14 Ce1 1_555 1_555
O15 Ce3 1_555 1_555
O16 Ce3 1_555 1_555
Ce4 O10 1_555 1_555
Ce5 O1 1_555 1_555
Ce6 O10 1_555 1_555
Ce7 O2 1_555 1_555
Ce8 O7 1_555 1_555
Ce9 O6 1_555 1_555
Ce10 O8 1_555 1_555
Ce11 O2 1_555 1_555
O17 Ce2 1_555 1_555
O18 Ce1 1_555 1_555
O19 Ce2 1_555 1_555
O20 Ce3 1_555 1_555
O21 Ce2 1_555 1_555
O22 Ce3 1_555 1_555
O23 Ce2 1_555 1_555
O24 Ce3 1_555 1_555
O25 Ce1 1_555 1_555
O26 Ce3 1_555 1_555
C1 O3 1_555 1_555
O9 Ce11 1_555 1_555
O14 Ce11 1_555 1_555
Ce4 O17 1_555 1_555
Ce5 O18 1_555 1_555
Ce5 O22 1_555 1_555
Ce6 O19 1_555 1_555
Ce7 O18 1_555 1_555
Ce9 O17 1_555 1_555
Ce9 O21 1_555 1_555
Ce11 O20 1_555 1_555
C3 H1 1_555 1_555
C6 H4 1_555 1_555
C9 H5 1_555 1_555
Ce1_2 O1_2 1_555 1_555
O2_2 Ce1_2 1_555 1_555
C1_2 C2_2 1_555 1_555
C2_2 C3_2 1_555 1_555
C3_2 C5_2 1_555 1_555
O3_2 Ce1_2 1_555 1_555
O4_2 Ce1_2 1_555 1_555
C4_2 C5_2 1_555 1_555
C5_2 C6_2 1_555 1_555
O5_2 C4_2 1_555 1_555
C6_2 C8_2 1_555 1_555
O6_2 C4_2 1_555 1_555
C7_2 C8_2 1_555 1_555
C8_2 C9_2 1_555 1_555
O7_2 C7_2 1_555 1_555
C9_2 C2_2 1_555 1_555
O26 C7_2 1_555 1_555
O9_2 C1_2 1_555 1_555
Ce2_2 O5_2 1_555 1_555
O10_2 Ce2_2 1_555 1_555
O11_2 Ce2_2 1_555 1_555
O12_2 Ce2_2 1_555 1_555
O13_2 Ce1_2 1_555 1_555
Ce5_2 O1_2 1_555 1_555
Ce6_2 O10_2 1_555 1_555
Ce7_2 O2_2 1_555 1_555
Ce5 O7_2 1_555 1_555
O18_2 Ce1_2 1_555 1_555
O19_2 Ce2_2 1_555 1_555
O21_2 Ce2_2 1_555 1_555
O23_2 Ce2_2 1_555 1_555
O25_2 Ce1_2 1_555 1_555
C1_2 O3_2 1_555 1_555
Ce5_2 O18_2 1_555 1_555
Ce6_2 O19_2 1_555 1_555
Ce7_2 O18_2 1_555 1_555
C3_2 H1_2 1_555 1_555
C6_2 H4_2 1_555 1_555
C9_2 H5_2 1_555 1_555
Ce3_2 O14_2 1_555 1_555
O15_2 Ce3_2 1_555 1_555
O16_2 Ce3_2 1_555 1_555
O20_2 Ce3_2 1_555 1_555
O22_2 Ce3_2 1_555 1_555
O24_2 Ce3_2 1_555 1_555
O26_2 Ce3_2 1_555 1_555
O14_2 Ce11_2 1_555 1_555
Ce4_2 O17_2 1_555 1_555
Ce9_2 O17_2 1_555 1_555
Ce11_2 O20_2 1_555 1_555
O4_3 Ce6_2 1_555 1_555
O13_3 Ce6_2 1_555 1_555
Ce5_3 O19_2 1_555 1_555
O18_3 Ce6_2 1_555 1_555
Ce5_3 O18_3 1_555 1_555
Ce5_3 O21_2 1_555 1_555
C1_3 C2_3 1_555 1_555
C2_3 C3_3 1_555 1_555
C3_3 C5_3 1_555 1_555
C4_3 C5_3 1_555 1_555
C5_3 C6_3 1_555 1_555
O5_3 C4_3 1_555 1_555
C6_3 C8_3 1_555 1_555
O6_3 C4_3 1_555 1_555
C7_3 C8_3 1_555 1_555
C8_3 C9_3 1_555 1_555
O7_3 C7_3 1_555 1_555
C9_3 C2_3 1_555 1_555
O8_2 C7_3 1_555 1_555
O9_3 C1_3 1_555 1_555
Ce2_3 O5_3 1_555 1_555
O10_3 Ce2_3 1_555 1_555
O11_3 Ce2_3 1_555 1_555
O12_3 Ce2_3 1_555 1_555
Ce4_3 O10_3 1_555 1_555
Ce6_3 O10_3 1_555 1_555
Ce7_3 O2_3 1_555 1_555
Ce9_3 O6_3 1_555 1_555
Ce10_2 O8_2 1_555 1_555
Ce4_2 O2_3 1_555 1_555
O17_3 Ce2_3 1_555 1_555
O19_3 Ce2_3 1_555 1_555
O21_3 Ce2_3 1_555 1_555
O23_3 Ce2_3 1_555 1_555
C1_3 O3_3 1_555 1_555
O9_3 Ce4_2 1_555 1_555
Ce4_3 O17_3 1_555 1_555
Ce6_3 O19_3 1_555 1_555
Ce9_3 O17_3 1_555 1_555
Ce9_3 O21_3 1_555 1_555
C3_3 H1_3 1_555 1_555
C6_3 H4_3 1_555 1_555
C9_3 H5_3 1_555 1_555
Ce1_3 O1_3 1_555 1_555
O1_3 Ce3_3 1_555 1_555
O2_4 Ce1_3 1_555 1_555
C1_4 C2_4 1_555 1_555
C2_4 C3_4 1_555 1_555
C3_4 C5_4 1_555 1_555
O3_4 Ce1_3 1_555 1_555
O4_4 Ce1_3 1_555 1_555
C4_4 C5_4 1_555 1_555
C5_4 C6_4 1_555 1_555
O24 C4_4 1_555 1_555
C6_4 C8_4 1_555 1_555
O6_4 C4_4 1_555 1_555
C7_4 C8_4 1_555 1_555
C8_4 C9_4 1_555 1_555
O7_4 C7_4 1_555 1_555
C9_4 C2_4 1_555 1_555
O23_2 C7_4 1_555 1_555
O9_4 C1_4 1_555 1_555
O13_4 Ce1_3 1_555 1_555
Ce3_3 O14_3 1_555 1_555
O14_3 Ce1_3 1_555 1_555
O15_3 Ce3_3 1_555 1_555
O16_3 Ce3_3 1_555 1_555
Ce5_4 O1_3 1_555 1_555
Ce7_4 O2_4 1_555 1_555
Ce5_3 O7_4 1_555 1_555
Ce9_4 O6_4 1_555 1_555
Ce11_3 O2_4 1_555 1_555
O18_4 Ce1_3 1_555 1_555
O20_3 Ce3_3 1_555 1_555
O22_3 Ce3_3 1_555 1_555
O24_3 Ce3_3 1_555 1_555
O25_4 Ce1_3 1_555 1_555
O26_3 Ce3_3 1_555 1_555
C1_4 O3_4 1_555 1_555
O9_4 Ce11_3 1_555 1_555
O14_3 Ce11_3 1_555 1_555
Ce5_4 O18_4 1_555 1_555
Ce5_4 O22_3 1_555 1_555
Ce7_4 O18_4 1_555 1_555
Ce9_4 O20 1_555 1_555
Ce9_4 O22 1_555 1_555
Ce11_3 O20_3 1_555 1_555
C3_4 H1_4 1_555 1_555
C6_4 H4_4 1_555 1_555
C9_4 H5_4 1_555 1_555
Ce1_4 O1_4 1_555 1_555
O2_5 Ce1_4 1_555 1_555
C1_5 C2_5 1_555 1_555
C2_5 C3_5 1_555 1_555
C3_5 C5_5 1_555 1_555
O3_5 Ce1_4 1_555 1_555
O4_5 Ce1_4 1_555 1_555
C4_5 C5_5 1_555 1_555
C5_5 C6_5 1_555 1_555
O5_4 C4_5 1_555 1_555
C6_5 C8_5 1_555 1_555
O6_5 C4_5 1_555 1_555
C7_5 C8_5 1_555 1_555
C8_5 C9_5 1_555 1_555
O7_5 C7_5 1_555 1_555
C9_5 C2_5 1_555 1_555
O8_3 C7_5 1_555 1_555
O9_5 C1_5 1_555 1_555
Ce2_4 O5_4 1_555 1_555
O10_4 Ce2_4 1_555 1_555
O11_4 Ce2_4 1_555 1_555
O12_4 Ce2_4 1_555 1_555
O13_5 Ce1_4 1_555 1_555
Ce5_5 O1_4 1_555 1_555
Ce6_4 O10_4 1_555 1_555
Ce7_5 O2_5 1_555 1_555
Ce8_3 O7_5 1_555 1_555
Ce10_3 O8_3 1_555 1_555
O18_5 Ce1_4 1_555 1_555
O19_4 Ce2_4 1_555 1_555
O21_4 Ce2_4 1_555 1_555
O23_4 Ce2_4 1_555 1_555
O25_5 Ce1_4 1_555 1_555
C1_5 O3_5 1_555 1_555
Ce5_5 O18_5 1_555 1_555
Ce6_4 O19_4 1_555 1_555
Ce7_5 O18_5 1_555 1_555
C3_5 H1_5 1_555 1_555
C6_5 H4_5 1_555 1_555
C9_5 H5_5 1_555 1_555
Ce3_4 O14_4 1_555 1_555
O15_4 Ce3_4 1_555 1_555
O16_4 Ce3_4 1_555 1_555
O20_4 Ce3_4 1_555 1_555
O22_4 Ce3_4 1_555 1_555
O24_4 Ce3_4 1_555 1_555
O26_4 Ce3_4 1_555 1_555
O14_4 Ce11_4 1_555 1_555
Ce4_4 O17_4 1_555 1_555
Ce9_5 O17_4 1_555 1_555
Ce11_4 O20_4 1_555 1_555
O4_6 Ce5_2 1_555 1_555
O13_6 Ce5_2 1_555 1_555
Ce7_2 O14_5 1_555 1_555
O14_5 Ce5_2 1_555 1_555
O15_5 Ce7_2 1_555 1_555
O16_5 Ce7_2 1_555 1_555
O24_5 Ce7_2 1_555 1_555
O26_5 Ce7_2 1_555 1_555
O10_5 Ce2_5 1_555 1_555
O11_5 Ce2_5 1_555 1_555
O12_5 Ce2_5 1_555 1_555
Ce4_5 O10_5 1_555 1_555
Ce6_5 O10_5 1_555 1_555
O17_5 Ce2_5 1_555 1_555
O19_5 Ce2_5 1_555 1_555
Ce4_5 O17_5 1_555 1_555
Ce6_5 O19_5 1_555 1_555
C1_6 C2_6 1_555 1_555
C2_6 C3_6 1_555 1_555
C3_6 C5_6 1_555 1_555
C4_6 C5_6 1_555 1_555
C5_6 C6_6 1_555 1_555
O5_5 C4_6 1_555 1_555
C6_6 C8_6 1_555 1_555
O6_6 C4_6 1_555 1_555
C7_6 C8_6 1_555 1_555
C8_6 C9_6 1_555 1_555
O7_6 C7_6 1_555 1_555
C9_6 C2_6 1_555 1_555
O8_4 C7_6 1_555 1_555
O9_6 C1_6 1_555 1_555
Ce9_6 O6_6 1_555 1_555
Ce11_5 O22_2 1_555 1_555
C1_6 O3_6 1_555 1_555
O9_6 Ce11_5 1_555 1_555
Ce9_6 O21_5 1_555 1_555
Ce11_5 O20_5 1_555 1_555
C3_6 H1_6 1_555 1_555
C6_6 H4_6 1_555 1_555
C9_6 H5_6 1_555 1_555
Ce1_5 O1_5 1_555 1_555
O21_4 Ce1_5 1_555 1_555
C1_7 C2_7 1_555 1_555
C2_7 C3_7 1_555 1_555
C3_7 C5_7 1_555 1_555
O3_7 Ce1_5 1_555 1_555
O4_7 Ce1_5 1_555 1_555
C4_7 C5_7 1_555 1_555
C5_7 C6_7 1_555 1_555
O5_6 C4_7 1_555 1_555
C6_7 C8_7 1_555 1_555
O6_7 C4_7 1_555 1_555
C7_7 C8_7 1_555 1_555
C8_7 C9_7 1_555 1_555
O7_7 C7_7 1_555 1_555
C9_7 C2_7 1_555 1_555
O8_5 C7_7 1_555 1_555
O9_7 C1_7 1_555 1_555
Ce7_5 O5_6 1_555 1_555
O10_6 Ce7_5 1_555 1_555
O11_6 Ce7_5 1_555 1_555
O12_6 Ce7_5 1_555 1_555
O13_7 Ce1_5 1_555 1_555
Ce6_4 O1_5 1_555 1_555
Ce5_5 O10_6 1_555 1_555
Ce8_5 O7_7 1_555 1_555
Ce10_5 O8_5 1_555 1_555
O19_4 Ce1_5 1_555 1_555
O23_6 Ce7_5 1_555 1_555
O25_7 Ce1_5 1_555 1_555
C1_7 O3_7 1_555 1_555
C3_7 H1_7 1_555 1_555
C6_7 H4_7 1_555 1_555
C9_7 H5_7 1_555 1_555
Ce3_5 O14_6 1_555 1_555
O15_6 Ce3_5 1_555 1_555
O16_6 Ce3_5 1_555 1_555
O20_6 Ce3_5 1_555 1_555
O22_5 Ce3_5 1_555 1_555
O24_6 Ce3_5 1_555 1_555
O26_6 Ce3_5 1_555 1_555
O14_6 Ce9_5 1_555 1_555
Ce4_6 O17_6 1_555 1_555
Ce11_4 O17_6 1_555 1_555
Ce9_5 O20_6 1_555 1_555
O2_6 Ce4 1_555 1_555
C1_8 C2_8 1_555 1_555
C2_8 C3_8 1_555 1_555
C3_8 C5_8 1_555 1_555
O3_8 Ce4 1_555 1_555
O4_8 Ce4 1_555 1_555
C4_8 C5_8 1_555 1_555
C5_8 C6_8 1_555 1_555
O5_7 C4_8 1_555 1_555
C6_8 C8_8 1_555 1_555
O6_8 C4_8 1_555 1_555
C7_8 C8_8 1_555 1_555
C8_8 C9_8 1_555 1_555
O7_8 C7_8 1_555 1_555
C9_8 C2_8 1_555 1_555
O8_6 C7_8 1_555 1_555
O9_8 C1_8 1_555 1_555
Ce6_3 O5_7 1_555 1_555
O11_7 Ce6_3 1_555 1_555
O12_7 Ce6_3 1_555 1_555
O13_8 Ce4 1_555 1_555
Ce9 O14_7 1_555 1_555
O14_7 Ce4 1_555 1_555
O15_7 Ce9 1_555 1_555
O16_7 Ce9 1_555 1_555
Ce4_7 O19_3 1_555 1_555
Ce6 O2_6 1_555 1_555
Ce8_6 O7_8 1_555 1_555
Ce9_7 O6_8 1_555 1_555
Ce10_6 O8_6 1_555 1_555
Ce11_6 O2_6 1_555 1_555
O17_7 Ce6_3 1_555 1_555
O20_7 Ce9 1_555 1_555
O21_6 Ce6_3 1_555 1_555
O23_7 Ce6_3 1_555 1_555
O24_7 Ce9 1_555 1_555
O25_8 Ce4 1_555 1_555
C1_8 O3_8 1_555 1_555
O9_8 Ce11_6 1_555 1_555
O14_7 Ce11_6 1_555 1_555
Ce4_7 O17_7 1_555 1_555
Ce9_7 O17_7 1_555 1_555
Ce9_7 O21_6 1_555 1_555
Ce11_6 O20_7 1_555 1_555
C3_8 H1_8 1_555 1_555
C6_8 H4_8 1_555 1_555
C9_8 H5_8 1_555 1_555
O10_7 Ce2_6 1_555 1_555
O11_8 Ce2_6 1_555 1_555
O12_8 Ce2_6 1_555 1_555
Ce8_6 O10_7 1_555 1_555
Ce10_6 O10_7 1_555 1_555
O17_8 Ce2_6 1_555 1_555
O19_6 Ce2_6 1_555 1_555
Ce8_6 O17_8 1_555 1_555
Ce10_6 O19_6 1_555 1_555
C1_9 C2_9 1_555 1_555
C2_9 C3_9 1_555 1_555
C3_9 C5_9 1_555 1_555
O3_9 Ce5_4 1_555 1_555
O4_9 Ce5_4 1_555 1_555
C4_9 C5_9 1_555 1_555
C5_9 C6_9 1_555 1_555
O5_8 C4_9 1_555 1_555
C6_9 C8_9 1_555 1_555
O6_9 C4_9 1_555 1_555
C7_9 C8_9 1_555 1_555
C8_9 C9_9 1_555 1_555
O7_9 C7_9 1_555 1_555
C9_9 C2_9 1_555 1_555
O8_7 C7_9 1_555 1_555
O9_9 C1_9 1_555 1_555
O13_9 Ce5_4 1_555 1_555
Ce7_4 O14_8 1_555 1_555
O14_8 Ce5_4 1_555 1_555
O15_8 Ce7_4 1_555 1_555
O16_8 Ce7_4 1_555 1_555
Ce8_7 O7_9 1_555 1_555
Ce9_8 O6_9 1_555 1_555
Ce11_7 O22_3 1_555 1_555
O20_8 Ce7_4 1_555 1_555
O24_8 Ce7_4 1_555 1_555
O25_9 Ce5_4 1_555 1_555
O26_7 Ce7_4 1_555 1_555
C1_9 O3_9 1_555 1_555
O9_9 Ce11_7 1_555 1_555
O14_8 Ce11_7 1_555 1_555
Ce9_8 O21_7 1_555 1_555
Ce11_7 O20_8 1_555 1_555
C3_9 H1_9 1_555 1_555
C6_9 H4_9 1_555 1_555
C9_9 H5_9 1_555 1_555
O2_7 Ce8_6 1_555 1_555
C1_10 C2_10 1_555 1_555
C2_10 C3_10 1_555 1_555
C3_10 C5_10 1_555 1_555
O3_10 Ce8_6 1_555 1_555
O4_10 Ce8_6 1_555 1_555
C4_10 C5_10 1_555 1_555
C5_10 C6_10 1_555 1_555
O5_9 C4_10 1_555 1_555
C6_10 C8_10 1_555 1_555
O6_10 C4_10 1_555 1_555
C7_10 C8_10 1_555 1_555
C8_10 C9_10 1_555 1_555
O25_8 C7_10 1_555 1_555
C9_10 C2_10 1_555 1_555
O8_8 C7_10 1_555 1_555
O9_10 C1_10 1_555 1_555
Ce6_5 O5_9 1_555 1_555
O11_9 Ce6_5 1_555 1_555
O12_9 Ce6_5 1_555 1_555
O13_10 Ce8_6 1_555 1_555
Ce10_6 O2_7 1_555 1_555
Ce6 O8_8 1_555 1_555
O21_8 Ce6_5 1_555 1_555
O23_9 Ce6_5 1_555 1_555
C1_10 O3_10 1_555 1_555
C3_10 H1_10 1_555 1_555
C6_10 H4_10 1_555 1_555
C9_10 H5_10 1_555 1_555
Ce9_8 O14_9 1_555 1_555
O15_9 Ce9_8 1_555 1_555
O16_9 Ce9_8 1_555 1_555
O20_9 Ce9_8 1_555 1_555
O24_9 Ce9_8 1_555 1_555
O14_9 Ce11_8 1_555 1_555
Ce4_8 O17_9 1_555 1_555
Ce9_9 O17_9 1_555 1_555
Ce11_8 O20_9 1_555 1_555
C1_11 C2_11 1_555 1_555
C2_11 C3_11 1_555 1_555
C3_11 C5_11 1_555 1_555
C4_11 C5_11 1_555 1_555
C5_11 C6_11 1_555 1_555
O5_10 C4_11 1_555 1_555
C6_11 C8_11 1_555 1_555
O6_11 C4_11 1_555 1_555
C7_11 C8_11 1_555 1_555
C8_11 C9_11 1_555 1_555
O7_10 C7_11 1_555 1_555
C9_11 C2_11 1_555 1_555
O8_9 C7_11 1_555 1_555
O9_11 C1_11 1_555 1_555
Ce2_7 O5_10 1_555 1_555
O10_8 Ce2_7 1_555 1_555
O11_10 Ce2_7 1_555 1_555
O12_10 Ce2_7 1_555 1_555
Ce8_3 O10_8 1_555 1_555
Ce10_3 O10_8 1_555 1_555
Ce10_2 O7_10 1_555 1_555
Ce9_10 O6_11 1_555 1_555
Ce10_8 O8_9 1_555 1_555
Ce4_7 O21_3 1_555 1_555
O17_10 Ce2_7 1_555 1_555
O19_7 Ce2_7 1_555 1_555
O21_9 Ce2_7 1_555 1_555
O23_10 Ce2_7 1_555 1_555
C1_11 O23_3 1_555 1_555
O9_11 Ce4_7 1_555 1_555
Ce8_3 O17_10 1_555 1_555
Ce4_3 O21_6 1_555 1_555
Ce10_3 O19_7 1_555 1_555
Ce9_10 O17_10 1_555 1_555
Ce9_10 O21_9 1_555 1_555
C3_11 H1_11 1_555 1_555
C6_11 H4_11 1_555 1_555
C9_11 H5_11 1_555 1_555
Ce1_6 O1_6 1_555 1_555
O1_6 Ce10_5 1_555 1_555
O2_8 Ce1_6 1_555 1_555
C1_12 C2_12 1_555 1_555
C2_12 C3_12 1_555 1_555
C3_12 C5_12 1_555 1_555
O3_11 Ce1_6 1_555 1_555
O4_11 Ce1_6 1_555 1_555
C4_12 C5_12 1_555 1_555
C5_12 C6_12 1_555 1_555
O25_9 C4_12 1_555 1_555
C6_12 C8_12 1_555 1_555
O26_3 C4_12 1_555 1_555
C7_12 C8_12 1_555 1_555
C8_12 C9_12 1_555 1_555
O7_11 C7_12 1_555 1_555
C9_12 C2_12 1_555 1_555
O8_10 C7_12 1_555 1_555
O9_12 C1_12 1_555 1_555
O13_11 Ce1_6 1_555 1_555
Ce10_5 O14_10 1_555 1_555
O14_10 Ce1_6 1_555 1_555
O15_10 Ce10_5 1_555 1_555
O16_10 Ce10_5 1_555 1_555
Ce8_5 O1_6 1_555 1_555
Ce7_6 O2_8 1_555 1_555
Ce8_8 O7_11 1_555 1_555
Ce8_7 O8_10 1_555 1_555
Ce11_9 O2_8 1_555 1_555
O18_6 Ce1_6 1_555 1_555
O20_10 Ce10_5 1_555 1_555
O22_6 Ce10_5 1_555 1_555
O24_10 Ce10_5 1_555 1_555
O25_10 Ce1_6 1_555 1_555
C1_12 O3_11 1_555 1_555
O9_12 Ce11_9 1_555 1_555
O14_10 Ce11_9 1_555 1_555
Ce8_5 O18_6 1_555 1_555
Ce8_5 O22_6 1_555 1_555
Ce7_6 O18_6 1_555 1_555
Ce11_9 O20_10 1_555 1_555
C3_12 H1_12 1_555 1_555
C6_12 H4_12 1_555 1_555
C9_12 H5_12 1_555 1_555
O4_12 Ce6_4 1_555 1_555
O13_12 Ce6_4 1_555 1_555
C1_13 C2_13 1_555 1_555
C2_13 C3_13 1_555 1_555
C3_13 C5_13 1_555 1_555
C4_13 C5_13 1_555 1_555
C5_13 C6_13 1_555 1_555
O25_6 C4_13 1_555 1_555
C6_13 C8_13 1_555 1_555
O26_2 C4_13 1_555 1_555
C7_13 C8_13 1_555 1_555
C8_13 C9_13 1_555 1_555
O7_12 C7_13 1_555 1_555
C9_13 C2_13 1_555 1_555
O8_11 C7_13 1_555 1_555
O9_13 C1_13 1_555 1_555
Ce4_4 O22_5 1_555 1_555
C1_13 O3_12 1_555 1_555
O9_13 Ce4_4 1_555 1_555
C3_13 H1_13 1_555 1_555
C6_13 H4_13 1_555 1_555
C9_13 H5_13 1_555 1_555
O15_11 Ce10_6 1_555 1_555
O16_11 Ce10_6 1_555 1_555
O24_11 Ce10_6 1_555 1_555
C1_14 C2_14 1_555 1_555
C2_14 C3_14 1_555 1_555
C3_14 C5_14 1_555 1_555
C4_14 C5_14 1_555 1_555
C5_14 C6_14 1_555 1_555
O25_10 C4_14 1_555 1_555
C6_14 C8_14 1_555 1_555
O6_12 C4_14 1_555 1_555
C7_14 C8_14 1_555 1_555
C8_14 C9_14 1_555 1_555
O7_13 C7_14 1_555 1_555
C9_14 C2_14 1_555 1_555
O8_12 C7_14 1_555 1_555
O9_14 C1_14 1_555 1_555
Ce7_6 O6_12 1_555 1_555
Ce8_8 O8_12 1_555 1_555
Ce11_10 O21_7 1_555 1_555
C1_14 O23_8 1_555 1_555
O9_14 Ce11_10 1_555 1_555
Ce11_10 O20_11 1_555 1_555
C3_14 H1_14 1_555 1_555
C6_14 H4_14 1_555 1_555
C9_14 H5_14 1_555 1_555
O4_13 Ce5_5 1_555 1_555
O13_13 Ce5_5 1_555 1_555
C1_15 C2_15 1_555 1_555
C2_15 C3_15 1_555 1_555
C3_15 C5_15 1_555 1_555
C4_15 C5_15 1_555 1_555
C5_15 C6_15 1_555 1_555
O25 C4_15 1_555 1_555
C6_15 C8_15 1_555 1_555
O6_13 C4_15 1_555 1_555
C7_15 C8_15 1_555 1_555
C8_15 C9_15 1_555 1_555
O7_14 C7_15 1_555 1_555
C9_15 C2_15 1_555 1_555
O8_13 C7_15 1_555 1_555
O9_15 C1_15 1_555 1_555
Ce7 O6_13 1_555 1_555
Ce8 O8_13 1_555 1_555
Ce4_6 O22_4 1_555 1_555
C1_15 O3_13 1_555 1_555
O9_15 Ce4_6 1_555 1_555
C3_15 H1_15 1_555 1_555
C6_15 H4_15 1_555 1_555
C9_15 H5_15 1_555 1_555
C1_16 C2_16 1_555 1_555
C2_16 C3_16 1_555 1_555
C3_16 C5_16 1_555 1_555
C4_16 C5_16 1_555 1_555
C5_16 C6_16 1_555 1_555
O25_12 C4_16 1_555 1_555
C6_16 C8_16 1_555 1_555
O26_4 C4_16 1_555 1_555
C7_16 C8_16 1_555 1_555
C8_16 C9_16 1_555 1_555
O7_15 C7_16 1_555 1_555
C9_16 C2_16 1_555 1_555
O8_14 C7_16 1_555 1_555
O9_16 C1_16 1_555 1_555
O15_12 Ce6 1_555 1_555
O16_12 Ce6 1_555 1_555
Ce10 O7_15 1_555 1_555
Ce11_11 O21 1_555 1_555
O20_12 Ce6 1_555 1_555
O24_12 Ce6 1_555 1_555
C1_16 O23 1_555 1_555
O9_16 Ce11_11 1_555 1_555
O19 Ce11_11 1_555 1_555
Ce11_11 O20_12 1_555 1_555
C3_16 H1_16 1_555 1_555
C6_16 H4_16 1_555 1_555
C9_16 H5_16 1_555 1_555
Ce4_5 O21_8 1_555 1_555
C1_17 C2_17 1_555 1_555
C2_17 C3_17 1_555 1_555
C3_17 C5_17 1_555 1_555
C4_17 C5_17 1_555 1_555
C5_17 C6_17 1_555 1_555
O25_11 C4_17 1_555 1_555
C6_17 C8_17 1_555 1_555
O26_6 C4_17 1_555 1_555
C7_17 C8_17 1_555 1_555
C8_17 C9_17 1_555 1_555
O7_16 C7_17 1_555 1_555
C9_17 C2_17 1_555 1_555
O8_15 C7_17 1_555 1_555
O9_17 C1_17 1_555 1_555
Ce4_8 O21_5 1_555 1_555
C1_17 O23_5 1_555 1_555
O9_17 Ce4_8 1_555 1_555
C3_17 H1_17 1_555 1_555
C6_17 H4_17 1_555 1_555
C9_17 H5_17 1_555 1_555
C1_18 C2_18 1_555 1_555
C2_18 C3_18 1_555 1_555
C3_18 C5_18 1_555 1_555
C4_18 C5_18 1_555 1_555
C5_18 C6_18 1_555 1_555
O25_3 C4_18 1_555 1_555
C6_18 C8_18 1_555 1_555
O6_14 C4_18 1_555 1_555
C7_18 C8_18 1_555 1_555
C8_18 C9_18 1_555 1_555
O7_17 C7_18 1_555 1_555
C9_18 C2_18 1_555 1_555
O8_16 C7_18 1_555 1_555
O9_18 C1_18 1_555 1_555
O15_13 Ce10_3 1_555 1_555
O16_13 Ce10_3 1_555 1_555
Ce10_8 O7_17 1_555 1_555
Ce7_3 O6_14 1_555 1_555
Ce11_12 O21_9 1_555 1_555
O20_13 Ce10_3 1_555 1_555
O22_7 Ce10_3 1_555 1_555
O24_13 Ce10_3 1_555 1_555
C1_18 O23_10 1_555 1_555
O9_18 Ce11_12 1_555 1_555
O19_7 Ce11_12 1_555 1_555
Ce8_3 O22_7 1_555 1_555
Ce11_12 O20_13 1_555 1_555
C3_18 H1_18 1_555 1_555
C6_18 H4_18 1_555 1_555
C9_18 H5_18 1_555 1_555
C1_19 C2_19 1_555 1_555
C2_19 C3_19 1_555 1_555
C3_19 C5_19 1_555 1_555
O3_14 Ce5_3 1_555 1_555
O4_14 Ce5_3 1_555 1_555
C4_19 C5_19 1_555 1_555
C5_19 C6_19 1_555 1_555
O24_5 C4_19 1_555 1_555
C6_19 C8_19 1_555 1_555
O6_15 C4_19 1_555 1_555
C7_19 C8_19 1_555 1_555
C8_19 C9_19 1_555 1_555
O25_4 C7_19 1_555 1_555
C9_19 C2_19 1_555 1_555
O26_7 C7_19 1_555 1_555
O9_19 C1_19 1_555 1_555
O13_14 Ce5_3 1_555 1_555
C1_19 O3_14 1_555 1_555
C3_19 H1_19 1_555 1_555
C6_19 H4_19 1_555 1_555
C9_19 H5_19 1_555 1_555
Ce7_3 O14_11 1_555 1_555
O15_14 Ce7_3 1_555 1_555
O16_14 Ce7_3 1_555 1_555
O20_14 Ce7_3 1_555 1_555
O24_14 Ce7_3 1_555 1_555
O14_11 Ce9_2 1_555 1_555
Ce11_2 O20_5 1_555 1_555
Ce9_2 O20_14 1_555 1_555
C1_20 C2_20 1_555 1_555
C2_20 C3_20 1_555 1_555
C3_20 C5_20 1_555 1_555
O3_15 Ce5 1_555 1_555
O4_15 Ce5 1_555 1_555
C4_20 C5_20 1_555 1_555
C5_20 C6_20 1_555 1_555
O24_8 C4_20 1_555 1_555
C6_20 C8_20 1_555 1_555
O6_16 C4_20 1_555 1_555
C7_20 C8_20 1_555 1_555
C8_20 C9_20 1_555 1_555
O25_2 C7_20 1_555 1_555
C9_20 C2_20 1_555 1_555
O26_5 C7_20 1_555 1_555
O9_20 C1_20 1_555 1_555
O13_15 Ce5 1_555 1_555
Ce7 O14_12 1_555 1_555
O14_12 Ce5 1_555 1_555
O15_15 Ce7 1_555 1_555
O16_15 Ce7 1_555 1_555
Ce11_3 O6_16 1_555 1_555
O20_15 Ce7 1_555 1_555
O24_15 Ce7 1_555 1_555
C1_20 O3_15 1_555 1_555
O9_20 Ce9_4 1_555 1_555
O14_12 Ce9_4 1_555 1_555
Ce11_3 O20_8 1_555 1_555
Ce9_4 O20_15 1_555 1_555
C3_20 H1_20 1_555 1_555
C6_20 H4_20 1_555 1_555
C9_20 H5_20 1_555 1_555
C1_21 C2_21 1_555 1_555
C2_21 C3_21 1_555 1_555
C3_21 C5_21 1_555 1_555
O3_16 Ce8_3 1_555 1_555
O4_16 Ce8_3 1_555 1_555
C4_21 C5_21 1_555 1_555
C5_21 C6_21 1_555 1_555
O24_10 C4_21 1_555 1_555
C6_21 C8_21 1_555 1_555
O6_17 C4_21 1_555 1_555
C7_21 C8_21 1_555 1_555
C8_21 C9_21 1_555 1_555
O25_5 C7_21 1_555 1_555
C9_21 C2_21 1_555 1_555
O23_6 C7_21 1_555 1_555
O9_21 C1_21 1_555 1_555
O13_16 Ce8_3 1_555 1_555
Ce9_10 O14_13 1_555 1_555
O14_13 Ce8_3 1_555 1_555
O15_16 Ce9_10 1_555 1_555
O16_16 Ce9_10 1_555 1_555
Ce9_11 O6_17 1_555 1_555
Ce11_13 O22_7 1_555 1_555
O20_16 Ce9_10 1_555 1_555
O24_16 Ce9_10 1_555 1_555
C1_21 O3_16 1_555 1_555
O9_21 Ce11_13 1_555 1_555
O14_13 Ce11_13 1_555 1_555
Ce9_11 O20_10 1_555 1_555
Ce9_11 O22_6 1_555 1_555
Ce11_13 O20_16 1_555 1_555
C3_21 H1_21 1_555 1_555
C6_21 H4_21 1_555 1_555
C9_21 H5_21 1_555 1_555
C1_22 C2_22 1_555 1_555
C2_22 C3_22 1_555 1_555
C3_22 C5_22 1_555 1_555
O3_17 Ce8_5 1_555 1_555
O4_17 Ce8_5 1_555 1_555
C4_22 C5_22 1_555 1_555
C5_22 C6_22 1_555 1_555
O24_13 C4_22 1_555 1_555
C6_22 C8_22 1_555 1_555
O6_18 C4_22 1_555 1_555
C7_22 C8_22 1_555 1_555
C8_22 C9_22 1_555 1_555
O25_7 C7_22 1_555 1_555
C9_22 C2_22 1_555 1_555
O23_4 C7_22 1_555 1_555
O9_22 C1_22 1_555 1_555
O13_17 Ce8_5 1_555 1_555
Ce7_6 O14_14 1_555 1_555
O14_14 Ce8_5 1_555 1_555
O15_17 Ce7_6 1_555 1_555
O16_17 Ce7_6 1_555 1_555
Ce11_13 O6_18 1_555 1_555
O20_17 Ce7_6 1_555 1_555
O24_17 Ce7_6 1_555 1_555
C1_22 O3_17 1_555 1_555
O9_22 Ce9_11 1_555 1_555
O14_14 Ce9_11 1_555 1_555
Ce11_13 O20_13 1_555 1_555
Ce9_11 O20_17 1_555 1_555
C3_22 H1_22 1_555 1_555
C6_22 H4_22 1_555 1_555
C9_22 H5_22 1_555 1_555
C1_23 C2_23 1_555 1_555
C2_23 C3_23 1_555 1_555
C3_23 C5_23 1_555 1_555
O3_18 Ce4_5 1_555 1_555
O4_18 Ce4_5 1_555 1_555
C4_23 C5_23 1_555 1_555
C5_23 C6_23 1_555 1_555
O24_11 C4_23 1_555 1_555
C6_23 C8_23 1_555 1_555
O6_19 C4_23 1_555 1_555
C7_23 C8_23 1_555 1_555
C8_23 C9_23 1_555 1_555
O7_18 C7_23 1_555 1_555
C9_23 C2_23 1_555 1_555
O23_7 C7_23 1_555 1_555
O9_23 C1_23 1_555 1_555
O13_18 Ce4_5 1_555 1_555
Ce4_3 O7_18 1_555 1_555
O25_13 Ce4_5 1_555 1_555
C1_23 O3_18 1_555 1_555
C3_23 H1_23 1_555 1_555
C6_23 H4_23 1_555 1_555
C9_23 H5_23 1_555 1_555
Ce9_6 O14_15 1_555 1_555
O15_18 Ce9_6 1_555 1_555
O16_18 Ce9_6 1_555 1_555
O20_18 Ce9_6 1_555 1_555
O24_18 Ce9_6 1_555 1_555
O14_15 Ce9_9 1_555 1_555
Ce11_8 O20_11 1_555 1_555
Ce9_9 O20_18 1_555 1_555
C1_24 C2_24 1_555 1_555
C2_24 C3_24 1_555 1_555
C3_24 C5_24 1_555 1_555
O3_19 Ce4_3 1_555 1_555
O4_19 Ce4_3 1_555 1_555
C4_24 C5_24 1_555 1_555
C5_24 C6_24 1_555 1_555
O24_12 C4_24 1_555 1_555
C6_24 C8_24 1_555 1_555
O6_20 C4_24 1_555 1_555
C7_24 C8_24 1_555 1_555
C8_24 C9_24 1_555 1_555
O25_13 C7_24 1_555 1_555
C9_24 C2_24 1_555 1_555
O23_9 C7_24 1_555 1_555
O9_24 C1_24 1_555 1_555
O13_19 Ce4_3 1_555 1_555
Ce9_3 O14_16 1_555 1_555
O14_16 Ce4_3 1_555 1_555
O15_19 Ce9_3 1_555 1_555
O16_19 Ce9_3 1_555 1_555
Ce11_6 O6_20 1_555 1_555
O20_19 Ce9_3 1_555 1_555
O24_19 Ce9_3 1_555 1_555
C1_24 O3_19 1_555 1_555
O9_24 Ce9_7 1_555 1_555
O14_16 Ce9_7 1_555 1_555
Ce11_6 O20_12 1_555 1_555
Ce9_7 O20_19 1_555 1_555
C3_24 H1_24 1_555 1_555
C6_24 H4_24 1_555 1_555
C9_24 H5_24 1_555 1_555
C1_25 C2_25 1_555 1_555
C2_25 C3_25 1_555 1_555
C3_25 C5_25 1_555 1_555
O3_20 Ce4_8 1_555 1_555
O4_20 Ce4_8 1_555 1_555
C4_25 C5_25 1_555 1_555
C5_25 C6_25 1_555 1_555
O24_2 C4_25 1_555 1_555
C6_25 C8_25 1_555 1_555
O6_21 C4_25 1_555 1_555
C7_25 C8_25 1_555 1_555
C8_25 C9_25 1_555 1_555
O24_6 C7_25 1_555 1_555
C9_25 C2_25 1_555 1_555
O8_17 C7_25 1_555 1_555
O24_18 C1_25 1_555 1_555
O13_20 Ce4_8 1_555 1_555
O20_18 Ce4_8 1_555 1_555
O15_20 Ce9_9 1_555 1_555
O16_20 Ce9_9 1_555 1_555
Ce11_5 O6_21 1_555 1_555
Ce4_4 O8_17 1_555 1_555
C1_25 O3_20 1_555 1_555
Ce11_5 O20_2 1_555 1_555
C3_25 H1_25 1_555 1_555
C6_25 H4_25 1_555 1_555
C9_25 H5_25 1_555 1_555
O11_11 Ce11_8 1_555 1_555
O12_11 Ce11_8 1_555 1_555
Ce11_10 O20_9 1_555 1_555
C1_26 C2_26 1_555 1_555
C2_26 C3_26 1_555 1_555
C3_26 C5_26 1_555 1_555
O3_21 Ce11_10 1_555 1_555
O4_21 Ce11_10 1_555 1_555
C4_26 C5_26 1_555 1_555
C5_26 C6_26 1_555 1_555
O24_3 C4_26 1_555 1_555
C6_26 C8_26 1_555 1_555
O6_22 C4_26 1_555 1_555
C7_26 C8_26 1_555 1_555
C8_26 C9_26 1_555 1_555
O24_17 C7_26 1_555 1_555
C9_26 C2_26 1_555 1_555
O8_18 C7_26 1_555 1_555
O24_9 C1_26 1_555 1_555
O13_21 Ce11_10 1_555 1_555
Ce11_7 O6_22 1_555 1_555
Ce11_9 O8_18 1_555 1_555
C1_26 O3_21 1_555 1_555
Ce11_7 O20_3 1_555 1_555
C3_26 H1_26 1_555 1_555
C6_26 H4_26 1_555 1_555
C9_26 H5_26 1_555 1_555
C1_27 C2_27 1_555 1_555
C2_27 C3_27 1_555 1_555
C3_27 C5_27 1_555 1_555
C4_27 C5_27 1_555 1_555
C5_27 C6_27 1_555 1_555
O5_11 C4_27 1_555 1_555
C6_27 C8_27 1_555 1_555
O6_23 C4_27 1_555 1_555
C7_27 C8_27 1_555 1_555
C8_27 C9_27 1_555 1_555
O7_19 C7_27 1_555 1_555
C9_27 C2_27 1_555 1_555
O8_19 C7_27 1_555 1_555
O9_25 C1_27 1_555 1_555
Ce2_8 O5_11 1_555 1_555
O10_9 Ce2_8 1_555 1_555
O11_12 Ce2_8 1_555 1_555
O12_12 Ce2_8 1_555 1_555
Ce8_10 O10_9 1_555 1_555
Ce10_9 O8_19 1_555 1_555
O19_8 Ce2_8 1_555 1_555
O21_10 Ce2_8 1_555 1_555
O23_11 Ce2_8 1_555 1_555
C1_27 O3_22 1_555 1_555
Ce8_10 O19_8 1_555 1_555
C3_27 H1_27 1_555 1_555
C6_27 H4_27 1_555 1_555
C9_27 H5_27 1_555 1_555
Ce1_7 O1_7 1_555 1_555
O4_22 Ce1_7 1_555 1_555
O13_22 Ce1_7 1_555 1_555
Ce8_9 O18_7 1_555 1_555
Ce10 O17_11 1_555 1_555
Ce9_12 O17_11 1_555 1_555
Ce11_14 O20_20 1_555 1_555
Ce8_4 O14_17 1_555 1_555
O15_21 Ce8_4 1_555 1_555
O16_21 Ce8_4 1_555 1_555
C1_28 C2_28 1_555 1_555
C2_28 C3_28 1_555 1_555
C3_28 C5_28 1_555 1_555
O3_23 Ce11_11 1_555 1_555
O4_23 Ce11_11 1_555 1_555
C4_28 C5_28 1_555 1_555
C5_28 C6_28 1_555 1_555
O24_15 C4_28 1_555 1_555
C6_28 C8_28 1_555 1_555
O6_24 C4_28 1_555 1_555
C7_28 C8_28 1_555 1_555
C8_28 C9_28 1_555 1_555
O24_4 C7_28 1_555 1_555
C9_28 C2_28 1_555 1_555
O8_20 C7_28 1_555 1_555
O24_7 C1_28 1_555 1_555
O13_23 Ce11_11 1_555 1_555
O20_7 Ce11_11 1_555 1_555
O15_22 Ce11_6 1_555 1_555
O16_22 Ce11_6 1_555 1_555
Ce11 O6_24 1_555 1_555
Ce4_6 O8_20 1_555 1_555
C1_28 O3_23 1_555 1_555
Ce11 O20_15 1_555 1_555
C3_28 H1_28 1_555 1_555
C6_28 H4_28 1_555 1_555
C9_28 H5_28 1_555 1_555
Ce1_8 O1_8 1_555 1_555
O21_10 Ce1_8 1_555 1_555
C1_29 C2_29 1_555 1_555
C2_29 C3_29 1_555 1_555
C3_29 C5_29 1_555 1_555
O3_24 Ce1_8 1_555 1_555
O4_24 Ce1_8 1_555 1_555
C4_29 C5_29 1_555 1_555
C5_29 C6_29 1_555 1_555
O5_12 C4_29 1_555 1_555
C6_29 C8_29 1_555 1_555
O6_25 C4_29 1_555 1_555
C7_29 C8_29 1_555 1_555
C8_29 C9_29 1_555 1_555
O7_20 C7_29 1_555 1_555
C9_29 C2_29 1_555 1_555
O8_21 C7_29 1_555 1_555
O9_26 C1_29 1_555 1_555
O13_24 Ce1_8 1_555 1_555
Ce8_10 O1_8 1_555 1_555
Ce8_12 O7_20 1_555 1_555
O19_8 Ce1_8 1_555 1_555
O25_15 Ce1_8 1_555 1_555
C1_29 O3_24 1_555 1_555
C3_29 H1_29 1_555 1_555
C6_29 H4_29 1_555 1_555
C9_29 H5_29 1_555 1_555
O10_10 Ce7_7 1_555 1_555
O11_13 Ce7_7 1_555 1_555
O12_13 Ce7_7 1_555 1_555
Ce8 O14_18 1_555 1_555
O15_23 Ce8 1_555 1_555
O16_23 Ce8 1_555 1_555
O20_21 Ce8 1_555 1_555
O22_9 Ce8 1_555 1_555
O14_18 Ce9_12 1_555 1_555
Ce9_12 O20_21 1_555 1_555
Ce10_4 O17_12 1_555 1_555
O4_25 Ce11_2 1_555 1_555
O13_25 Ce11_2 1_555 1_555
O15_24 Ce11_5 1_555 1_555
O16_24 Ce11_5 1_555 1_555
C1_30 C2_30 1_555 1_555
C2_30 C3_30 1_555 1_555
C3_30 C5_30 1_555 1_555
O3_25 Ce4_7 1_555 1_555
O4_26 Ce4_7 1_555 1_555
C4_30 C5_30 1_555 1_555
C5_30 C6_30 1_555 1_555
O24_14 C4_30 1_555 1_555
C6_30 C8_30 1_555 1_555
O6_26 C4_30 1_555 1_555
C7_30 C8_30 1_555 1_555
C8_30 C9_30 1_555 1_555
O24_16 C7_30 1_555 1_555
C9_30 C2_30 1_555 1_555
O8_22 C7_30 1_555 1_555
O24_19 C1_30 1_555 1_555
O13_26 Ce4_7 1_555 1_555
O20_19 Ce4_7 1_555 1_555
O15_25 Ce9_7 1_555 1_555
O16_25 Ce9_7 1_555 1_555
Ce4_2 O6_26 1_555 1_555
Ce11_12 O8_22 1_555 1_555
C1_30 O3_25 1_555 1_555
Ce4_2 O20_14 1_555 1_555
C3_30 H1_30 1_555 1_555
C6_30 H4_30 1_555 1_555
C9_30 H5_30 1_555 1_555
O4_27 Ce9_2 1_555 1_555
O13_27 Ce9_2 1_555 1_555
O15_26 Ce4_2 1_555 1_555
O16_26 Ce4_2 1_555 1_555
Ce10_9 O19_9 1_555 1_555
O10_11 Ce8_8 1_555 1_555
O11_14 Ce8_8 1_555 1_555
O12_14 Ce8_8 1_555 1_555
Ce8_11 O10_11 1_555 1_555
O17_13 Ce8_8 1_555 1_555
O21_11 Ce8_8 1_555 1_555
Ce8_11 O17_13 1_555 1_555
Ce8_7 O17_13 1_555 1_555
Ce8_7 O21_11 1_555 1_555
Ce8_12 O18_8 1_555 1_555
Ce8_12 O22_10 1_555 1_555
Ce8_2 O18_8 1_555 1_555
Ce10_8 O1_9 1_555 1_555
O1_9 Ce10_10 1_555 1_555
O2_10 Ce10_8 1_555 1_555
O4_28 Ce10_8 1_555 1_555
O13_28 Ce10_8 1_555 1_555
Ce10_10 O14_19 1_555 1_555
O14_19 Ce10_8 1_555 1_555
O15_27 Ce10_10 1_555 1_555
O16_27 Ce10_10 1_555 1_555
Ce10_2 O2_10 1_555 1_555
O20_22 Ce10_10 1_555 1_555
O14_19 Ce10_2 1_555 1_555
Ce10_2 O20_22 1_555 1_555
O4_29 Ce8_10 1_555 1_555
O13_29 Ce8_10 1_555 1_555
Ce10 O22_9 1_555 1_555
O4_30 Ce8_9 1_555 1_555
O13_30 Ce8_9 1_555 1_555
O15_28 Ce10_9 1_555 1_555
O16_28 Ce10_9 1_555 1_555
O20_23 Ce10_9 1_555 1_555
O22_11 Ce10_9 1_555 1_555
O24_21 Ce10_9 1_555 1_555
O19_9 Ce10_7 1_555 1_555
Ce10_7 O20_23 1_555 1_555
C1_31 C2_31 1_555 1_555
C2_31 C3_31 1_555 1_555
C3_31 C5_31 1_555 1_555
C4_31 C5_31 1_555 1_555
C5_31 C6_31 1_555 1_555
O24_20 C4_31 1_555 1_555
C6_31 C8_31 1_555 1_555
O6_27 C4_31 1_555 1_555
C7_31 C8_31 1_555 1_555
C8_31 C9_31 1_555 1_555
O25_14 C7_31 1_555 1_555
C9_31 C2_31 1_555 1_555
O23_12 C7_31 1_555 1_555
O9_27 C1_31 1_555 1_555
Ce9_13 O6_27 1_555 1_555
Ce11_15 O22_11 1_555 1_555
C1_31 O3_26 1_555 1_555
O9_27 Ce11_15 1_555 1_555
Ce9_13 O22_10 1_555 1_555
Ce11_15 O20_24 1_555 1_555
C3_31 H1_31 1_555 1_555
C6_31 H4_31 1_555 1_555
C9_31 H5_31 1_555 1_555
O4_31 Ce8_11 1_555 1_555
O13_31 Ce8_11 1_555 1_555
Ce8_7 O14_20 1_555 1_555
O14_20 Ce8_11 1_555 1_555
O15_29 Ce8_7 1_555 1_555
O16_29 Ce8_7 1_555 1_555
C1_32 C2_32 1_555 1_555
C2_32 C3_32 1_555 1_555
C3_32 C5_32 1_555 1_555
O3_27 Ce8_12 1_555 1_555
O4_32 Ce8_12 1_555 1_555
C4_32 C5_32 1_555 1_555
C5_32 C6_32 1_555 1_555
O24_21 C4_32 1_555 1_555
C6_32 C8_32 1_555 1_555
O6_28 C4_32 1_555 1_555
C7_32 C8_32 1_555 1_555
C8_32 C9_32 1_555 1_555
O25_15 C7_32 1_555 1_555
C9_32 C2_32 1_555 1_555
O23_11 C7_32 1_555 1_555
O9_28 C1_32 1_555 1_555
O13_32 Ce8_12 1_555 1_555
Ce8_2 O14_21 1_555 1_555
O14_21 Ce8_12 1_555 1_555
O15_30 Ce8_2 1_555 1_555
O16_30 Ce8_2 1_555 1_555
Ce11_15 O6_28 1_555 1_555
O20_25 Ce8_2 1_555 1_555
C1_32 O3_27 1_555 1_555
O9_28 Ce9_13 1_555 1_555
O14_21 Ce9_13 1_555 1_555
Ce11_15 O20_23 1_555 1_555
Ce9_13 O20_25 1_555 1_555
C3_32 H1_32 1_555 1_555
C6_32 H4_32 1_555 1_555
C9_32 H5_32 1_555 1_555
O4_33 Ce9_4 1_555 1_555
O13_33 Ce9_4 1_555 1_555
O15_31 Ce11 1_555 1_555
O16_31 Ce11 1_555 1_555
O4_34 Ce11_3 1_555 1_555
O13_34 Ce11_3 1_555 1_555
O15_32 Ce11_7 1_555 1_555
O16_32 Ce11_7 1_555 1_555
Ce10_7 O20_24 1_555 1_555
O11_15 Ce11_9 1_555 1_555
O12_15 Ce11_9 1_555 1_555
O20_17 Ce11_9 1_555 1_555
O4_35 Ce9_13 1_555 1_555
O13_35 Ce9_13 1_555 1_555
O15_33 Ce10_2 1_555 1_555
O16_33 Ce10_2 1_555 1_555
O11_16 Ce4_4 1_555 1_555
O12_16 Ce4_4 1_555 1_555
O20_6 Ce4_4 1_555 1_555
O20_21 Ce10 1_555 1_555
O4_36 Ce9_12 1_555 1_555
O13_36 Ce9_12 1_555 1_555
O15_34 Ce10 1_555 1_555
O16_34 Ce10 1_555 1_555
O11_17 Ce11_12 1_555 1_555
O12_17 Ce11_12 1_555 1_555
O20_16 Ce11_12 1_555 1_555
O11_18 Ce9_5 1_555 1_555
O12_18 Ce9_5 1_555 1_555
O11_19 Ce4_6 1_555 1_555
O12_19 Ce4_6 1_555 1_555
O20_4 Ce4_6 1_555 1_555
O11_20 Ce11_13 1_555 1_555
O12_20 Ce11_13 1_555 1_555
O15_35 Ce11_4 1_555 1_555
O16_35 Ce11_4 1_555 1_555
O15_36 Ce9_11 1_555 1_555
O16_36 Ce9_11 1_555 1_555
O4_37 Ce11_14 1_555 1_555
O13_37 Ce11_14 1_555 1_555
O15_37 Ce10_4 1_555 1_555
O16_37 Ce10_4 1_555 1_555
O4_38 Ce11_15 1_555 1_555
O13_38 Ce11_15 1_555 1_555
O15_38 Ce10_7 1_555 1_555
O16_38 Ce10_7 1_555 1_555

#END
