
###############################################################################
#
# This file contains modified crystal structure data generated from the
# MOF subset of the Cambridge Structural Database (CSD) v543 
# hosted by the Cambridge Crystallographic Data Centre (CCDC).
#
# This work is licensed under the Creative Commons
# Attribution-NonCommercial-ShareAlike 4.0 International License.
# To view a copy of this license, visit
# http://creativecommons.org/licenses/by-nc-sa/4.0/
# or send a letter to
# Creative Commons, PO Box 1866, Mountain View, CA 94042, USA.
#
# CIF created using the CSD Python API on 29 September 2022
# The structure has been converted into the P1 space group
# The structure has a 3D framework
# The original CSD entry JALPAQ is in the orthorhombic crystal system
# The framework has been calculated to contain at least 10.0% void space
# The void calculation uses a probe of radius 1.32A, grid spacing 0.4
#
###############################################################################

data_JALPAQ
_chemical_formula_moiety         '(C104 H56 Cu6 N8 O32)n'
_symmetry_cell_setting           triclinic
_symmetry_space_group_name_H-M   'P 1'
_symmetry_Int_Tables_number      1
_space_group_name_Hall           'P 1'
loop_
_symmetry_equiv_pos_site_id
_symmetry_equiv_pos_as_xyz
1 x,y,z
_cell_length_a                   20.124(2)
_cell_length_b                   7.0312(7)
_cell_length_c                   17.2274(19)
_cell_angle_alpha                90
_cell_angle_beta                 90
_cell_angle_gamma                90
_cell_volume                     2437.61
loop_
_atom_site_label
_atom_site_type_symbol
_atom_site_fract_x
_atom_site_fract_y
_atom_site_fract_z
O6 O 0.40764(8) 0.0573(3) 0.66102(8)
Cu1 Cu 0.508559(12) 0.84551(4) 0.594785(14)
O1 O 0.42778(7) 0.7045(2) 0.55876(8)
O2 O 0.50707(7) 0.7799(3) 0.48281(8)
O3 O 0.48812(7) 0.6301(3) 0.20139(8)
O4 O 0.40764(8) 0.4427(3) 0.16102(8)
N1 N 0.10176(8) 0.4129(2) 0.39683(9)
C1 C 0.45157(11) 0.7069(4) 0.49152(11)
C2 C 0.43531(10) 0.5355(3) 0.21189(11)
C3 C 0.41301(10) 0.6270(3) 0.42602(10)
C4 C 0.44345(10) 0.6113(3) 0.35367(11)
H1 H 0.4879 0.6440 0.3470
C5 C 0.40589(9) 0.5457(3) 0.29220(10)
C6 C 0.34023(9) 0.5024(3) 0.30228(10)
H2 H 0.3159 0.4577 0.2602
C7 C 0.30879(9) 0.5231(3) 0.37373(10)
C8 C 0.34796(9) 0.5849(3) 0.43535(11)
H3 H 0.3289 0.5975 0.4842
C9 C 0.23753(9) 0.4890(3) 0.38229(10)
C10 C 0.19454(9) 0.4954(3) 0.31957(11)
H4 H 0.2113 0.5245 0.2707
C11 C 0.12903(10) 0.4604(3) 0.32773(11)
H5 H 0.1017 0.4692 0.2844
C12 C 0.14247(10) 0.4076(3) 0.45853(11)
H6 H 0.1248 0.3771 0.5068
C13 C 0.20864(9) 0.4451(3) 0.45313(10)
H7 H 0.2348 0.4413 0.4976
Cu2 Cu 0.008559(12) 0.34551(4) 0.405215(14)
Cu3 Cu 0.508559(12) 0.65449(4) 0.094785(14)
O5 O 0.48812(7) 0.8699(3) 0.70139(8)
N2 N 0.60176(8) 0.9129(2) 0.60317(9)
O2_2 O 0.00707(7) 0.2201(3) 0.01719(8)
Cu1_2 Cu 0.008559(12) 0.15449(4) 0.905215(14)
N2_2 N 0.10176(8) 0.0871(2) 0.89683(9)
O3_2 O 0.98812(7) 0.3699(3) 0.29861(8)
O4_2 O 0.90764(8) 0.5573(3) 0.33898(8)
N1_2 N 0.60176(8) 0.5871(2) 0.10317(9)
C1_2 C 0.95157(11) 0.2931(4) 0.00848(11)
C2_2 C 0.93531(10) 0.4645(3) 0.28811(11)
C3_2 C 0.91301(10) 0.3730(3) 0.07398(10)
C4_2 C 0.94345(10) 0.3887(3) 0.14633(11)
H1_2 H 0.9879 0.3560 0.1530
C5_2 C 0.90589(9) 0.4543(3) 0.20780(10)
C6_2 C 0.84023(9) 0.4976(3) 0.19772(10)
H2_2 H 0.8159 0.5423 0.2398
C7_2 C 0.80879(9) 0.4769(3) 0.12627(10)
C8_2 C 0.84796(9) 0.4151(3) 0.06465(11)
H3_2 H 0.8289 0.4025 0.0158
C9_2 C 0.73753(9) 0.5110(3) 0.11771(10)
C10_2 C 0.69454(9) 0.5046(3) 0.18043(11)
H4_2 H 0.7113 0.4755 0.2293
C11_2 C 0.62903(10) 0.5396(3) 0.17227(11)
H5_2 H 0.6017 0.5308 0.2156
C12_2 C 0.64247(10) 0.5924(3) 0.04147(11)
C13_2 C 0.70864(9) 0.5549(3) 0.04687(10)
H7_2 H 0.7348 0.5587 0.0024
O1_2 O 0.92778(7) 0.2955(2) 0.94124(8)
H6_2 H 0.6248 0.6229 0.9932
O5_2 O 0.98812(7) 0.1301(3) 0.79861(8)
O6_2 O 0.90764(8) 0.9427(3) 0.83898(8)
O2_3 O 0.00707(7) 0.2799(3) 0.51719(8)
O1_3 O 0.92778(7) 0.2045(2) 0.44124(8)
C1_3 C 0.95157(11) 0.2069(4) 0.50848(11)
C2_3 C 0.93531(10) 0.0355(3) 0.78811(11)
C3_3 C 0.91301(10) 0.1270(3) 0.57398(10)
C4_3 C 0.94345(10) 0.1113(3) 0.64633(11)
H1_3 H 0.9879 0.1440 0.6530
C5_3 C 0.90589(9) 0.0457(3) 0.70780(10)
C6_3 C 0.84023(9) 0.0024(3) 0.69772(10)
C7_3 C 0.80879(9) 0.0231(3) 0.62627(10)
C8_3 C 0.84796(9) 0.0849(3) 0.56465(11)
H3_3 H 0.8289 0.0975 0.5158
H4_3 H 0.7113 0.0245 0.7293
H2_3 H 0.8159 0.9577 0.7398
C9_3 C 0.73753(9) 0.9890(3) 0.61771(10)
C10_3 C 0.69454(9) 0.9954(3) 0.68043(11)
C11_3 C 0.62903(10) 0.9604(3) 0.67227(11)
H5_3 H 0.6017 0.9692 0.7156
C12_3 C 0.64247(10) 0.9076(3) 0.54147(11)
H6_3 H 0.6248 0.8771 0.4932
C13_3 C 0.70864(9) 0.9451(3) 0.54687(10)
H7_3 H 0.7348 0.9413 0.5024
H2_4 H 0.3159 0.0423 0.7602
C9_4 C 0.23753(9) 0.0110(3) 0.88229(10)
C10_4 C 0.19454(9) 0.0046(3) 0.81957(11)
C11_4 C 0.12903(10) 0.0396(3) 0.82773(11)
H5_4 H 0.1017 0.0308 0.7844
C12_4 C 0.14247(10) 0.0924(3) 0.95853(11)
C13_4 C 0.20864(9) 0.0549(3) 0.95313(10)
H7_4 H 0.2348 0.0587 0.9976
O1_4 O 0.42778(7) 0.7955(2) 0.05876(8)
O2_4 O 0.50707(7) 0.7201(3) 0.98281(8)
C1_4 C 0.45157(11) 0.7931(4) 0.99152(11)
C2_4 C 0.43531(10) 0.9645(3) 0.71189(11)
C3_4 C 0.41301(10) 0.8730(3) 0.92602(10)
C4_4 C 0.44345(10) 0.8887(3) 0.85367(11)
H1_4 H 0.4879 0.8560 0.8470
C5_4 C 0.40589(9) 0.9543(3) 0.79220(10)
C6_4 C 0.34023(9) 0.9976(3) 0.80228(10)
C7_4 C 0.30879(9) 0.9769(3) 0.87373(10)
C8_4 C 0.34796(9) 0.9151(3) 0.93535(11)
H3_4 H 0.3289 0.9025 0.9842
H4_4 H 0.2113 0.9755 0.7707
O4_3 O 0.09236(8) 0.0573(3) 0.16102(8)
N1_3 N 0.39824(8) 0.0871(2) 0.39683(9)
H2_5 H 0.1841 0.0423 0.2602
C9_5 C 0.26247(9) 0.0110(3) 0.38229(10)
C10_5 C 0.30546(9) 0.0046(3) 0.31957(11)
C11_5 C 0.37097(10) 0.0396(3) 0.32773(11)
H5_5 H 0.3983 0.0308 0.2844
C12_5 C 0.35753(10) 0.0924(3) 0.45853(11)
H6_4 H 0.3752 0.1229 0.5068
C13_5 C 0.29136(9) 0.0549(3) 0.45313(10)
H7_5 H 0.2652 0.0587 0.4976
Cu2_2 Cu 0.491441(12) 0.15449(4) 0.405215(14)
O1_5 O 0.07222(7) 0.7955(2) 0.55876(8)
O3_3 O 0.01188(7) 0.8699(3) 0.20139(8)
C1_5 C 0.04843(11) 0.7931(4) 0.49152(11)
C2_5 C 0.06469(10) 0.9645(3) 0.21189(11)
C3_5 C 0.08699(10) 0.8730(3) 0.42602(10)
C4_5 C 0.05655(10) 0.8887(3) 0.35367(11)
H1_5 H 0.0121 0.8560 0.3470
C5_5 C 0.09411(9) 0.9543(3) 0.29220(10)
C6_5 C 0.15977(9) 0.9976(3) 0.30228(10)
C7_5 C 0.19121(9) 0.9769(3) 0.37373(10)
C8_5 C 0.15204(9) 0.9151(3) 0.43535(11)
H3_5 H 0.1711 0.9025 0.4842
H4_5 H 0.2887 0.9755 0.2707
O5_3 O 0.01188(7) 0.6301(3) 0.70139(8)
O6_3 O 0.09236(8) 0.4427(3) 0.66102(8)
Cu1_3 Cu 0.991441(12) 0.65449(4) 0.594785(14)
O2_5 O 0.99293(7) 0.7201(3) 0.48281(8)
Cu3_2 Cu 0.991441(12) 0.84551(4) 0.094785(14)
N2_3 N 0.89824(8) 0.5871(2) 0.60317(9)
O2_6 O 0.49293(7) 0.2799(3) 0.01719(8)
O3_4 O 0.51188(7) 0.1301(3) 0.29861(8)
C1_6 C 0.54843(11) 0.2069(4) 0.00848(11)
C2_6 C 0.56469(10) 0.0355(3) 0.28811(11)
C3_6 C 0.58699(10) 0.1270(3) 0.07398(10)
C4_6 C 0.55655(10) 0.1113(3) 0.14633(11)
H1_6 H 0.5121 0.1440 0.1530
C5_6 C 0.59411(9) 0.0457(3) 0.20780(10)
C6_6 C 0.65977(9) 0.0024(3) 0.19772(10)
C7_6 C 0.69121(9) 0.0231(3) 0.12627(10)
C8_6 C 0.65204(9) 0.0849(3) 0.06465(11)
H3_6 H 0.6711 0.0975 0.0158
H4_6 H 0.7887 0.0245 0.2293
Cu1_4 Cu 0.491441(12) 0.34551(4) 0.905215(14)
O1_6 O 0.57222(7) 0.2045(2) 0.94124(8)
O5_4 O 0.51188(7) 0.3699(3) 0.79861(8)
O6_4 O 0.59236(8) 0.5573(3) 0.83898(8)
N2_4 N 0.39824(8) 0.4129(2) 0.89683(9)
O4_4 O 0.59236(8) 0.9427(3) 0.33898(8)
N1_4 N 0.89824(8) 0.9129(2) 0.10317(9)
H2_6 H 0.6841 0.9577 0.2398
C9_6 C 0.76247(9) 0.9890(3) 0.11771(10)
C10_6 C 0.80546(9) 0.9954(3) 0.18043(11)
C11_6 C 0.87097(10) 0.9604(3) 0.17227(11)
H5_6 H 0.8983 0.9692 0.2156
C12_6 C 0.85753(10) 0.9076(3) 0.04147(11)
C13_6 C 0.79136(9) 0.9451(3) 0.04687(10)
H7_6 H 0.7652 0.9413 0.0024
O1_7 O 0.57222(7) 0.2955(2) 0.44124(8)
O2_7 O 0.49293(7) 0.2201(3) 0.51719(8)
C1_7 C 0.54843(11) 0.2931(4) 0.50848(11)
C2_7 C 0.56469(10) 0.4645(3) 0.78811(11)
C3_7 C 0.58699(10) 0.3730(3) 0.57398(10)
C4_7 C 0.55655(10) 0.3887(3) 0.64633(11)
H1_7 H 0.5121 0.3560 0.6530
C5_7 C 0.59411(9) 0.4543(3) 0.70780(10)
C6_7 C 0.65977(9) 0.4976(3) 0.69772(10)
H2_7 H 0.6841 0.5423 0.7398
C7_7 C 0.69121(9) 0.4769(3) 0.62627(10)
C8_7 C 0.65204(9) 0.4151(3) 0.56465(11)
H3_7 H 0.6711 0.4025 0.5158
C9_7 C 0.76247(9) 0.5110(3) 0.61771(10)
C10_7 C 0.80546(9) 0.5046(3) 0.68043(11)
H4_7 H 0.7887 0.4755 0.7293
C11_7 C 0.87097(10) 0.5396(3) 0.67227(11)
H5_7 H 0.8983 0.5308 0.7156
C12_7 C 0.85753(10) 0.5924(3) 0.54147(11)
H6_5 H 0.8752 0.6229 0.4932
C13_7 C 0.79136(9) 0.5549(3) 0.54687(10)
H7_7 H 0.7652 0.5587 0.5024
O1_8 O 0.07222(7) 0.7045(2) 0.05876(8)
H6_6 H 0.3752 0.3771 0.0068
C1_8 C 0.04843(11) 0.7069(4) 0.99152(11)
C2_8 C 0.06469(10) 0.5355(3) 0.71189(11)
C3_8 C 0.08699(10) 0.6270(3) 0.92602(10)
C4_8 C 0.05655(10) 0.6113(3) 0.85367(11)
H1_8 H 0.0121 0.6440 0.8470
C5_8 C 0.09411(9) 0.5457(3) 0.79220(10)
C6_8 C 0.15977(9) 0.5024(3) 0.80228(10)
H2_8 H 0.1841 0.4577 0.7602
C7_8 C 0.19121(9) 0.5231(3) 0.87373(10)
C8_8 C 0.15204(9) 0.5849(3) 0.93535(11)
H3_8 H 0.1711 0.5975 0.9842
C9_8 C 0.26247(9) 0.4890(3) 0.88229(10)
C10_8 C 0.30546(9) 0.4954(3) 0.81957(11)
H4_8 H 0.2887 0.5245 0.7707
C11_8 C 0.37097(10) 0.4604(3) 0.82773(11)
H5_8 H 0.3983 0.4692 0.7844
C12_8 C 0.35753(10) 0.4076(3) 0.95853(11)
C13_8 C 0.29136(9) 0.4451(3) 0.95313(10)
H7_8 H 0.2652 0.4413 0.9976
O2_8 O 0.99293(7) 0.7799(3) 0.98281(8)
H6_7 H 0.8752 0.8771 0.9932
H6_8 H 0.1248 0.1229 0.0068
loop_
_geom_bond_atom_site_label_1
_geom_bond_atom_site_label_2
_geom_bond_site_symmetry_1
_geom_bond_site_symmetry_2
Cu1 O1 1_555 1_555
O1 C1 1_555 1_555
O2 Cu1 1_555 1_555
O3 C2 1_555 1_555
O4 C2 1_555 1_555
N1 C11 1_555 1_555
C1 O2 1_555 1_555
C2 C5 1_555 1_555
C3 C1 1_555 1_555
C4 C3 1_555 1_555
H1 C4 1_555 1_555
C5 C4 1_555 1_555
C6 C5 1_555 1_555
H2 C6 1_555 1_555
C7 C6 1_555 1_555
C8 C3 1_555 1_555
H3 C8 1_555 1_555
C9 C7 1_555 1_555
C10 C9 1_555 1_555
H4 C10 1_555 1_555
C11 C10 1_555 1_555
H5 C11 1_555 1_555
C12 N1 1_555 1_555
H6 C12 1_555 1_555
C13 C9 1_555 1_555
H7 C13 1_555 1_555
Cu2 N1 1_555 1_555
Cu3 O3 1_555 1_555
O5 Cu1 1_555 1_555
N2 Cu1 1_555 1_555
O4 Cu3 1_555 1_555
C7 C8 1_555 1_555
C12 C13 1_555 1_555
N2_2 Cu1_2 1_555 1_555
O3_2 C2_2 1_555 1_555
O4_2 C2_2 1_555 1_555
N1_2 C11_2 1_555 1_555
C2_2 C5_2 1_555 1_555
C3_2 C1_2 1_555 1_555
C4_2 C3_2 1_555 1_555
H1_2 C4_2 1_555 1_555
C5_2 C4_2 1_555 1_555
C6_2 C5_2 1_555 1_555
H2_2 C6_2 1_555 1_555
C7_2 C6_2 1_555 1_555
C8_2 C3_2 1_555 1_555
H3_2 C8_2 1_555 1_555
C9_2 C7_2 1_555 1_555
C10_2 C9_2 1_555 1_555
H4_2 C10_2 1_555 1_555
C11_2 C10_2 1_555 1_555
H5_2 C11_2 1_555 1_555
C12_2 N1_2 1_555 1_555
C13_2 C9_2 1_555 1_555
H7_2 C13_2 1_555 1_555
Cu3 N1_2 1_555 1_555
C7_2 C8_2 1_555 1_555
C12_2 C13_2 1_555 1_555
O2_3 Cu2 1_555 1_555
O1_3 C1_3 1_555 1_555
O5_2 C2_3 1_555 1_555
C2_3 C5_3 1_555 1_555
C3_3 C1_3 1_555 1_555
C4_3 C3_3 1_555 1_555
H1_3 C4_3 1_555 1_555
C5_3 C4_3 1_555 1_555
C6_3 C5_3 1_555 1_555
C7_3 C6_3 1_555 1_555
C8_3 C3_3 1_555 1_555
H3_3 C8_3 1_555 1_555
C7_3 C8_3 1_555 1_555
N2 C11_3 1_555 1_555
C10_3 C9_3 1_555 1_555
C11_3 C10_3 1_555 1_555
H5_3 C11_3 1_555 1_555
C12_3 N2 1_555 1_555
H6_3 C12_3 1_555 1_555
C13_3 C9_3 1_555 1_555
H7_3 C13_3 1_555 1_555
C12_3 C13_3 1_555 1_555
N2_2 C11_4 1_555 1_555
C10_4 C9_4 1_555 1_555
C11_4 C10_4 1_555 1_555
H5_4 C11_4 1_555 1_555
C12_4 N2_2 1_555 1_555
C13_4 C9_4 1_555 1_555
H7_4 C13_4 1_555 1_555
C12_4 C13_4 1_555 1_555
Cu3 O1_4 1_555 1_555
O5 C2_4 1_555 1_555
C1_4 O2_4 1_555 1_555
C2_4 C5_4 1_555 1_555
C3_4 C1_4 1_555 1_555
C4_4 C3_4 1_555 1_555
H1_4 C4_4 1_555 1_555
C5_4 C4_4 1_555 1_555
C6_4 C5_4 1_555 1_555
C7_4 C6_4 1_555 1_555
C8_4 C3_4 1_555 1_555
H3_4 C8_4 1_555 1_555
C7_4 C8_4 1_555 1_555
N1_3 C11_5 1_555 1_555
C10_5 C9_5 1_555 1_555
C11_5 C10_5 1_555 1_555
H5_5 C11_5 1_555 1_555
C12_5 N1_3 1_555 1_555
H6_4 C12_5 1_555 1_555
C13_5 C9_5 1_555 1_555
H7_5 C13_5 1_555 1_555
Cu2_2 N1_3 1_555 1_555
C12_5 C13_5 1_555 1_555
O1_5 C1_5 1_555 1_555
O3_3 C2_5 1_555 1_555
C2_5 C5_5 1_555 1_555
C3_5 C1_5 1_555 1_555
C4_5 C3_5 1_555 1_555
H1_5 C4_5 1_555 1_555
C5_5 C4_5 1_555 1_555
C6_5 C5_5 1_555 1_555
C7_5 C6_5 1_555 1_555
C8_5 C3_5 1_555 1_555
H3_5 C8_5 1_555 1_555
C7_5 C8_5 1_555 1_555
O2_5 Cu1_3 1_555 1_555
N2_3 Cu1_3 1_555 1_555
O3_4 C2_6 1_555 1_555
C1_6 O2_6 1_555 1_555
C2_6 C5_6 1_555 1_555
C3_6 C1_6 1_555 1_555
C4_6 C3_6 1_555 1_555
H1_6 C4_6 1_555 1_555
C5_6 C4_6 1_555 1_555
C6_6 C5_6 1_555 1_555
C7_6 C6_6 1_555 1_555
C8_6 C3_6 1_555 1_555
H3_6 C8_6 1_555 1_555
Cu2_2 O3_4 1_555 1_555
C7_6 C8_6 1_555 1_555
Cu1_4 O1_6 1_555 1_555
O5_4 Cu1_4 1_555 1_555
O6_4 Cu1_4 1_555 1_555
N2_4 Cu1_4 1_555 1_555
N1_4 C11_6 1_555 1_555
C10_6 C9_6 1_555 1_555
C11_6 C10_6 1_555 1_555
H5_6 C11_6 1_555 1_555
C12_6 N1_4 1_555 1_555
C13_6 C9_6 1_555 1_555
H7_6 C13_6 1_555 1_555
Cu3_2 N1_4 1_555 1_555
C12_6 C13_6 1_555 1_555
Cu2_2 O1_7 1_555 1_555
O1_7 C1_7 1_555 1_555
O2_7 Cu2_2 1_555 1_555
O5_4 C2_7 1_555 1_555
O6_4 C2_7 1_555 1_555
N2_3 C11_7 1_555 1_555
C1_7 O2_7 1_555 1_555
C2_7 C5_7 1_555 1_555
C3_7 C1_7 1_555 1_555
C4_7 C3_7 1_555 1_555
H1_7 C4_7 1_555 1_555
C5_7 C4_7 1_555 1_555
C6_7 C5_7 1_555 1_555
H2_7 C6_7 1_555 1_555
C7_7 C6_7 1_555 1_555
C8_7 C3_7 1_555 1_555
H3_7 C8_7 1_555 1_555
C9_7 C7_7 1_555 1_555
C10_7 C9_7 1_555 1_555
H4_7 C10_7 1_555 1_555
C11_7 C10_7 1_555 1_555
H5_7 C11_7 1_555 1_555
C12_7 N2_3 1_555 1_555
H6_5 C12_7 1_555 1_555
C13_7 C9_7 1_555 1_555
H7_7 C13_7 1_555 1_555
C7_7 C8_7 1_555 1_555
C12_7 C13_7 1_555 1_555
O5_3 C2_8 1_555 1_555
O6_3 C2_8 1_555 1_555
N2_4 C11_8 1_555 1_555
C2_8 C5_8 1_555 1_555
C3_8 C1_8 1_555 1_555
C4_8 C3_8 1_555 1_555
H1_8 C4_8 1_555 1_555
C5_8 C4_8 1_555 1_555
C6_8 C5_8 1_555 1_555
H2_8 C6_8 1_555 1_555
C7_8 C6_8 1_555 1_555
C8_8 C3_8 1_555 1_555
H3_8 C8_8 1_555 1_555
C9_8 C7_8 1_555 1_555
C10_8 C9_8 1_555 1_555
H4_8 C10_8 1_555 1_555
C11_8 C10_8 1_555 1_555
H5_8 C11_8 1_555 1_555
C12_8 N2_4 1_555 1_555
C13_8 C9_8 1_555 1_555
H7_8 C13_8 1_555 1_555
C7_8 C8_8 1_555 1_555
C12_8 C13_8 1_555 1_555

#END
