
###############################################################################
#
# This file contains modified crystal structure data generated from the
# MOF subset of the Cambridge Structural Database (CSD) v543 
# hosted by the Cambridge Crystallographic Data Centre (CCDC).
#
# This work is licensed under the Creative Commons
# Attribution-NonCommercial-ShareAlike 4.0 International License.
# To view a copy of this license, visit
# http://creativecommons.org/licenses/by-nc-sa/4.0/
# or send a letter to
# Creative Commons, PO Box 1866, Mountain View, CA 94042, USA.
#
# CIF created using the CSD Python API on 29 September 2022
# The structure has been converted into the P1 space group
# The structure has a 3D framework
# The original CSD entry JAMDAG is in the cubic crystal system
# The original CSD entry JAMDAG is in a Sohncke space group
# The framework has been calculated to contain at least 10.0% void space
# The void calculation uses a probe of radius 1.32A, grid spacing 0.4
# The framework is charged, counterions have been retained in the structure
#
###############################################################################

data_JAMDAG
_chemical_formula_moiety         '(C456 H220 N48 O148 Sm24 4-)n'
_symmetry_cell_setting           triclinic
_symmetry_space_group_name_H-M   'P 1'
_symmetry_Int_Tables_number      1
_space_group_name_Hall           'P 1'
loop_
_symmetry_equiv_pos_site_id
_symmetry_equiv_pos_as_xyz
1 x,y,z
_cell_length_a                   26.4717(3)
_cell_length_b                   26.4717(3)
_cell_length_c                   26.4717(3)
_cell_angle_alpha                90
_cell_angle_beta                 90
_cell_angle_gamma                90
_cell_volume                     18550.1
loop_
_atom_site_label
_atom_site_type_symbol
_atom_site_fract_x
_atom_site_fract_y
_atom_site_fract_z
Sm1 Sm 0.69250(2) 0.17254(2) 0.42505(2)
O1 O 0.67493(13) 0.25770(10) 0.40916(14)
O2 O 0.60426(11) 0.26578(9) 0.36809(12)
O3 O 0.42179(8) 0.40090(7) 0.33150(8)
O4 O 0.39938(8) 0.47894(8) 0.31269(10)
O5 O 0.50576(9) 0.67192(8) 0.20244(9)
O6 O 0.55558(10) 0.73584(9) 0.22315(9)
O7 O 0.66565(8) 0.16565(8) 0.33435(8)
H1 H 0.6842 0.1842 0.3158
N1 N 0.67744(15) 0.40793(11) 0.44779(15)
N2 N 0.60367(16) 0.66483(12) 0.35213(14)
C1 C 0.63916(13) 0.33779(12) 0.40640(14)
C2 C 0.67516(15) 0.35813(13) 0.43775(15)
H2 H 0.6993 0.3363 0.4529
C3 C 0.64290(15) 0.43753(13) 0.42726(18)
H3 H 0.6442 0.4726 0.4349
C4 C 0.60480(13) 0.42072(12) 0.39519(13)
C5 C 0.60315(13) 0.36874(12) 0.38570(13)
H4 H 0.5772 0.3550 0.3650
C6 C 0.63845(14) 0.28213(13) 0.39423(15)
C7 C 0.56710(12) 0.45460(11) 0.37260(13)
C8 C 0.57836(14) 0.50493(12) 0.36167(13)
H5 H 0.6107 0.5179 0.3701
C9 C 0.54299(13) 0.53659(12) 0.33862(13)
C10 C 0.49556(12) 0.51762(11) 0.32694(13)
H6 H 0.4711 0.5389 0.3115
C11 C 0.48367(11) 0.46753(11) 0.33785(12)
C12 C 0.51942(12) 0.43652(11) 0.36051(12)
H7 H 0.5111 0.4024 0.3679
C13 C 0.43230(11) 0.44770(11) 0.32686(12)
C14 C 0.55540(13) 0.66441(11) 0.27566(12)
C15 C 0.58753(15) 0.68703(13) 0.30981(15)
H8 H 0.5989 0.7204 0.3028
C16 C 0.58739(18) 0.61635(14) 0.35970(16)
H9 H 0.5980 0.5997 0.3897
C17 C 0.55697(13) 0.59026(12) 0.32722(14)
C18 C 0.53989(12) 0.61509(11) 0.28455(12)
H10 H 0.5178 0.5986 0.2616
C19 C 0.53755(13) 0.69290(13) 0.22996(12)
Sm2 Sm 0.42505(2) 0.69250(2) 0.17254(2)
O8 O 0.40916(14) 0.67493(13) 0.25770(10)
O9 O 0.36809(12) 0.60426(11) 0.26578(9)
O10 O 0.33150(8) 0.42179(8) 0.40090(7)
O11 O 0.31269(10) 0.39938(8) 0.47894(8)
O12 O 0.20244(9) 0.50576(9) 0.67192(8)
O13 O 0.22315(9) 0.55558(10) 0.73584(9)
N3 N 0.44779(15) 0.67744(15) 0.40793(11)
N4 N 0.35213(14) 0.60367(16) 0.66483(12)
C20 C 0.40640(14) 0.63916(13) 0.33779(12)
C21 C 0.43775(15) 0.67516(15) 0.35813(13)
H11 H 0.4529 0.6993 0.3363
C22 C 0.42726(18) 0.64290(15) 0.43753(13)
H12 H 0.4349 0.6442 0.4726
C23 C 0.39519(13) 0.60480(13) 0.42072(12)
C24 C 0.38570(13) 0.60315(13) 0.36874(12)
H13 H 0.3650 0.5772 0.3550
C25 C 0.39423(15) 0.63845(14) 0.28213(13)
C26 C 0.37260(13) 0.56710(12) 0.45460(11)
C27 C 0.36167(13) 0.57836(14) 0.50493(12)
H14 H 0.3701 0.6107 0.5179
C28 C 0.33862(13) 0.54299(13) 0.53659(12)
C29 C 0.32694(13) 0.49556(12) 0.51762(11)
H15 H 0.3115 0.4711 0.5389
C30 C 0.33785(12) 0.48367(11) 0.46753(11)
C31 C 0.36051(12) 0.51942(12) 0.43652(11)
H16 H 0.3679 0.5111 0.4024
C32 C 0.32686(12) 0.43230(11) 0.44770(11)
C33 C 0.27566(12) 0.55540(13) 0.66441(11)
C34 C 0.30981(15) 0.58753(15) 0.68703(13)
H17 H 0.3028 0.5989 0.7204
C35 C 0.35970(16) 0.58739(18) 0.61635(14)
H18 H 0.3897 0.5980 0.5997
C36 C 0.32722(14) 0.55697(13) 0.59026(12)
C37 C 0.28455(12) 0.53989(12) 0.61509(11)
H19 H 0.2616 0.5178 0.5986
C38 C 0.22996(12) 0.53755(13) 0.69290(13)
Sm3 Sm 0.17254(2) 0.42505(2) 0.69250(2)
O14 O 0.25770(10) 0.40916(14) 0.67493(13)
O15 O 0.26578(9) 0.36809(12) 0.60426(11)
O16 O 0.40090(7) 0.33150(8) 0.42179(8)
O17 O 0.47894(8) 0.31269(10) 0.39938(8)
O18 O 0.67192(8) 0.20244(9) 0.50576(9)
O19 O 0.73584(9) 0.22315(9) 0.55558(10)
N5 N 0.40793(11) 0.44779(15) 0.67744(15)
N6 N 0.66483(12) 0.35213(14) 0.60367(16)
C39 C 0.33779(12) 0.40640(14) 0.63916(13)
C40 C 0.35813(13) 0.43775(15) 0.67516(15)
H20 H 0.3363 0.4529 0.6993
C41 C 0.43753(13) 0.42726(18) 0.64290(15)
H21 H 0.4726 0.4349 0.6442
C42 C 0.42072(12) 0.39519(13) 0.60480(13)
C43 C 0.36874(12) 0.38570(13) 0.60315(13)
H22 H 0.3550 0.3650 0.5772
C44 C 0.28213(13) 0.39423(15) 0.63845(14)
C45 C 0.45460(11) 0.37260(13) 0.56710(12)
C46 C 0.50493(12) 0.36167(13) 0.57836(14)
H23 H 0.5179 0.3701 0.6107
C47 C 0.53659(12) 0.33862(13) 0.54299(13)
C48 C 0.51762(11) 0.32694(13) 0.49556(12)
H24 H 0.5389 0.3115 0.4711
C49 C 0.46753(11) 0.33785(12) 0.48367(11)
C50 C 0.43652(11) 0.36051(12) 0.51942(12)
H25 H 0.4024 0.3679 0.5111
C51 C 0.44770(11) 0.32686(12) 0.43230(11)
C52 C 0.66441(11) 0.27566(12) 0.55540(13)
C53 C 0.68703(13) 0.30981(15) 0.58753(15)
H26 H 0.7204 0.3028 0.5989
C54 C 0.61635(14) 0.35970(16) 0.58739(18)
H27 H 0.5997 0.3897 0.5980
C55 C 0.59026(12) 0.32722(14) 0.55697(13)
C56 C 0.61509(11) 0.28455(12) 0.53989(12)
H28 H 0.5986 0.2616 0.5178
C57 C 0.69290(13) 0.22996(12) 0.53755(13)
Sm4 Sm 0.19250(2) 0.32746(2) 0.57495(2)
Sm5 Sm 0.57495(2) 0.19250(2) 0.32746(2)
Sm6 Sm 0.67254(2) 0.07495(2) 0.30750(2)
Sm7 Sm 0.32746(2) 0.57495(2) 0.19250(2)
Sm8 Sm 0.30750(2) 0.32746(2) 0.42505(2)
Sm9 Sm 0.80750(2) 0.17254(2) 0.57495(2)
Sm10 Sm 0.42505(2) 0.30750(2) 0.32746(2)
Sm11 Sm 0.57495(2) 0.80750(2) 0.17254(2)
Sm12 Sm 0.32746(2) 0.42505(2) 0.30750(2)
Sm13 Sm 0.17254(2) 0.57495(2) 0.80750(2)
O20 O 0.39574(11) 0.76578(9) 0.13191(12)
O21 O 0.13191(12) 0.39574(11) 0.76578(9)
O22 O 0.76578(9) 0.13191(12) 0.39574(11)
O23 O 0.07821(8) 0.40090(7) 0.66850(8)
O24 O 0.42179(8) 0.59910(7) 0.16850(8)
O25 O 0.66850(8) 0.07821(8) 0.40090(7)
O26 O 0.16850(8) 0.42179(8) 0.59910(7)
O27 O 0.40090(7) 0.66850(8) 0.07821(8)
O28 O 0.59910(7) 0.16850(8) 0.42179(8)
O29 O 0.10062(8) 0.47894(8) 0.68731(10)
O30 O 0.68731(10) 0.10062(8) 0.47894(8)
O31 O 0.47894(8) 0.68731(10) 0.10062(8)
O32 O 0.44442(10) 0.76416(9) 0.22315(9)
O33 O 0.22315(9) 0.44442(10) 0.76416(9)
O34 O 0.76416(9) 0.22315(9) 0.44442(10)
O35 O 0.33435(8) 0.66565(8) 0.16565(8)
O36 O 0.16565(8) 0.33435(8) 0.66565(8)
O12_2 O 0.29756(9) 0.49424(9) 0.17192(8)
O13_2 O 0.27685(9) 0.44442(10) 0.23584(9)
N4_2 N 0.14787(14) 0.39633(16) 0.16483(12)
C27_2 C 0.13833(13) 0.42164(14) 0.00493(12)
H14_2 H 0.1299 0.3893 0.0179
C28_2 C 0.16138(13) 0.45701(13) 0.03659(12)
C29_2 C 0.17306(13) 0.50444(12) 0.01762(11)
H15_2 H 0.1885 0.5289 0.0389
C33_2 C 0.22434(12) 0.44460(13) 0.16441(11)
C34_2 C 0.19019(15) 0.41247(15) 0.18703(13)
H17_2 H 0.1972 0.4011 0.2204
C35_2 C 0.14030(16) 0.41261(18) 0.11635(14)
H18_2 H 0.1103 0.4020 0.0997
C36_2 C 0.17278(14) 0.44303(13) 0.09026(12)
C37_2 C 0.21545(12) 0.46011(12) 0.11509(11)
H19_2 H 0.2384 0.4822 0.0986
C38_2 C 0.27004(12) 0.46245(13) 0.19290(13)
O14_2 O 0.24230(10) 0.59084(14) 0.17493(13)
O15_2 O 0.23422(9) 0.63191(12) 0.10426(11)
N5_2 N 0.09207(11) 0.55221(15) 0.17744(15)
C39_2 C 0.16221(12) 0.59360(14) 0.13916(13)
C40_2 C 0.14187(13) 0.56225(15) 0.17516(15)
H20_2 H 0.1637 0.5471 0.1993
C41_2 C 0.06247(13) 0.57274(18) 0.14290(15)
H21_2 H 0.0274 0.5651 0.1442
C42_2 C 0.07928(12) 0.60481(13) 0.10480(13)
C43_2 C 0.13126(12) 0.61430(13) 0.10315(13)
H22_2 H 0.1450 0.6350 0.0772
C44_2 C 0.21787(13) 0.60577(15) 0.13845(14)
C45_2 C 0.04540(11) 0.62740(13) 0.06710(12)
C50_2 C 0.06348(11) 0.63949(12) 0.01942(12)
H25_2 H 0.0976 0.6321 0.0111
Sm4_2 Sm 0.30750(2) 0.67254(2) 0.07495(2)
O26_2 O 0.33150(8) 0.57821(8) 0.09910(7)
O29_2 O 0.39938(8) 0.52106(8) 0.18731(10)
O33_2 O 0.27685(9) 0.55558(10) 0.26416(9)
O3_2 O 0.07821(8) 0.59910(7) 0.83150(8)
O4_2 O 0.10062(8) 0.52106(8) 0.81269(10)
C10_2 C 0.00444(12) 0.48238(11) 0.82694(13)
H6_2 H 0.0289 0.4611 0.8115
C11_2 C 0.01633(11) 0.53247(11) 0.83785(12)
C13_2 C 0.06770(11) 0.55230(11) 0.82686(12)
Sm2_2 Sm 0.07495(2) 0.30750(2) 0.67254(2)
O8_2 O 0.09084(14) 0.32507(13) 0.75770(10)
O10_2 O 0.16850(8) 0.57821(8) 0.90090(7)
O11_2 O 0.18731(10) 0.60062(8) 0.97894(8)
N3_2 N 0.05221(15) 0.32256(15) 0.90793(11)
C20_2 C 0.09360(14) 0.36084(13) 0.83779(12)
C21_2 C 0.06225(15) 0.32484(15) 0.85813(13)
H11_2 H 0.0471 0.3007 0.8363
C22_2 C 0.07274(18) 0.35710(15) 0.93753(13)
H12_2 H 0.0651 0.3558 0.9726
C23_2 C 0.10481(13) 0.39520(13) 0.92072(12)
C24_2 C 0.11430(13) 0.39685(13) 0.86874(12)
H13_2 H 0.1350 0.4228 0.8550
C25_2 C 0.10577(15) 0.36155(14) 0.78213(13)
C26_2 C 0.12740(13) 0.43290(12) 0.95460(11)
C30_2 C 0.16215(12) 0.51633(11) 0.96753(11)
C31_2 C 0.13949(12) 0.48058(12) 0.93652(11)
H16_2 H 0.1321 0.4889 0.9024
C32_2 C 0.17314(12) 0.56770(11) 0.94770(11)
O16_2 O 0.09910(7) 0.66850(8) 0.92179(8)
O17_2 O 0.02106(8) 0.68731(10) 0.89938(8)
C49_2 C 0.03247(11) 0.66215(12) 0.98367(11)
C51_2 C 0.05230(11) 0.67314(12) 0.93230(11)
Sm8_2 Sm 0.19250(2) 0.67254(2) 0.92505(2)
Sm10_2 Sm 0.07495(2) 0.69250(2) 0.82746(2)
O20_2 O 0.10426(11) 0.23422(9) 0.63191(12)
O27_2 O 0.09910(7) 0.33150(8) 0.57821(8)
O31_2 O 0.02106(8) 0.31269(10) 0.60062(8)
O32_2 O 0.05558(10) 0.23584(9) 0.72315(9)
O18_2 O 0.82808(8) 0.79756(9) 0.00576(9)
O19_2 O 0.76416(9) 0.77685(9) 0.05558(10)
N6_2 N 0.83517(12) 0.64787(14) 0.10367(16)
C46_2 C 0.99507(12) 0.63833(13) 0.07836(14)
H23_2 H 0.9821 0.6299 0.1107
C47_2 C 0.96341(12) 0.66138(13) 0.04299(13)
C52_2 C 0.83559(11) 0.72434(12) 0.05540(13)
C53_2 C 0.81297(13) 0.69019(15) 0.08753(15)
H26_2 H 0.7796 0.6972 0.0989
C54_2 C 0.88365(14) 0.64030(16) 0.08739(18)
H27_2 H 0.9003 0.6103 0.0980
C55_2 C 0.90974(12) 0.67278(14) 0.05697(13)
C56_2 C 0.88491(11) 0.71545(12) 0.03989(12)
H28_2 H 0.9014 0.7384 0.0178
C57_2 C 0.80710(13) 0.77004(12) 0.03755(13)
Sm9_2 Sm 0.69250(2) 0.82746(2) 0.07495(2)
Sm1_2 Sm 0.80750(2) 0.82746(2) 0.92505(2)
O1_2 O 0.82507(13) 0.74230(10) 0.90916(14)
O2_2 O 0.89574(11) 0.73422(9) 0.86809(12)
O5_2 O 0.99424(9) 0.32808(8) 0.70244(9)
O6_2 O 0.94442(10) 0.26416(9) 0.72315(9)
O7_2 O 0.83435(8) 0.83435(8) 0.83435(8)
H1_2 H 0.8158 0.8158 0.8158
N1_2 N 0.82256(15) 0.59207(11) 0.94779(15)
N2_2 N 0.89633(16) 0.33517(12) 0.85213(14)
C1_2 C 0.86084(13) 0.66221(12) 0.90640(14)
C2_2 C 0.82484(15) 0.64187(13) 0.93775(15)
H2_2 H 0.8007 0.6637 0.9529
C3_2 C 0.85710(15) 0.56247(13) 0.92726(18)
H3_2 H 0.8558 0.5274 0.9349
C4_2 C 0.89520(13) 0.57928(12) 0.89519(13)
C5_2 C 0.89685(13) 0.63126(12) 0.88570(13)
H4_2 H 0.9228 0.6450 0.8650
C6_2 C 0.86155(14) 0.71787(13) 0.89423(15)
C7_2 C 0.93290(12) 0.54540(11) 0.87260(13)
C8_2 C 0.92164(14) 0.49507(12) 0.86167(13)
H5_2 H 0.8893 0.4821 0.8701
C9_2 C 0.95701(13) 0.46341(12) 0.83862(13)
C12_2 C 0.98058(12) 0.56348(11) 0.86051(12)
H7_2 H 0.9889 0.5976 0.8679
C14_2 C 0.94460(13) 0.33559(11) 0.77566(12)
C15_2 C 0.91247(15) 0.31297(13) 0.80981(15)
H8_2 H 0.9011 0.2796 0.8028
C16_2 C 0.91261(18) 0.38365(14) 0.85970(16)
H9_2 H 0.9020 0.4003 0.8897
C17_2 C 0.94303(13) 0.40974(12) 0.82722(14)
C18_2 C 0.96011(12) 0.38491(11) 0.78455(12)
H10_2 H 0.9822 0.4014 0.7616
C19_2 C 0.96245(13) 0.30710(13) 0.72996(12)
C48_2 C 0.98238(11) 0.67306(13) 0.99556(12)
H24_2 H 0.9611 0.6885 0.9711
Sm5_2 Sm 0.92505(2) 0.80750(2) 0.82746(2)
Sm6_2 Sm 0.82746(2) 0.92505(2) 0.80750(2)
Sm11_2 Sm 0.92505(2) 0.19250(2) 0.67254(2)
O22_2 O 0.73422(9) 0.86809(12) 0.89574(11)
O25_2 O 0.83150(8) 0.92179(8) 0.90090(7)
O28_2 O 0.90090(7) 0.83150(8) 0.92179(8)
O30_2 O 0.81269(10) 0.89938(8) 0.97894(8)
O34_2 O 0.73584(9) 0.77685(9) 0.94442(10)
O5_3 O 0.49424(9) 0.17192(8) 0.29756(9)
O6_3 O 0.44442(10) 0.23584(9) 0.27685(9)
N2_3 N 0.39633(16) 0.16483(12) 0.14787(14)
C8_3 C 0.42164(14) 0.00493(12) 0.13833(13)
H5_3 H 0.3893 0.0179 0.1299
C9_3 C 0.45701(13) 0.03659(12) 0.16138(13)
C10_3 C 0.50444(12) 0.01762(11) 0.17306(13)
H6_3 H 0.5289 0.0389 0.1885
C14_3 C 0.44460(13) 0.16441(11) 0.22434(12)
C15_3 C 0.41247(15) 0.18703(13) 0.19019(15)
H8_3 H 0.4011 0.2204 0.1972
C16_3 C 0.41261(18) 0.11635(14) 0.14030(16)
H9_3 H 0.4020 0.0997 0.1103
C17_3 C 0.44303(13) 0.09026(12) 0.17278(14)
C18_3 C 0.46011(12) 0.11509(11) 0.21545(12)
H10_3 H 0.4822 0.0986 0.2384
C19_3 C 0.46245(13) 0.19290(13) 0.27004(12)
O8_3 O 0.59084(14) 0.17493(13) 0.24230(10)
O9_2 O 0.63191(12) 0.10426(11) 0.23422(9)
N3_3 N 0.55221(15) 0.17744(15) 0.09207(11)
C20_3 C 0.59360(14) 0.13916(13) 0.16221(12)
C21_3 C 0.56225(15) 0.17516(15) 0.14187(13)
H11_3 H 0.5471 0.1993 0.1637
C22_3 C 0.57274(18) 0.14290(15) 0.06247(13)
H12_3 H 0.5651 0.1442 0.0274
C23_3 C 0.60481(13) 0.10480(13) 0.07928(12)
C24_3 C 0.61430(13) 0.10315(13) 0.13126(12)
H13_3 H 0.6350 0.0772 0.1450
C25_3 C 0.60577(15) 0.13845(14) 0.21787(13)
C26_3 C 0.62740(13) 0.06710(12) 0.04540(11)
C31_3 C 0.63949(12) 0.01942(12) 0.06348(11)
H16_3 H 0.6321 0.0111 0.0976
O24_2 O 0.57821(8) 0.09910(7) 0.33150(8)
O31_3 O 0.52106(8) 0.18731(10) 0.39938(8)
O32_3 O 0.55558(10) 0.26416(9) 0.27685(9)
O12_3 O 0.79756(9) 0.00576(9) 0.82808(8)
O13_3 O 0.77685(9) 0.05558(10) 0.76416(9)
N4_3 N 0.64787(14) 0.10367(16) 0.83517(12)
C27_3 C 0.63833(13) 0.07836(14) 0.99507(12)
H14_3 H 0.6299 0.1107 0.9821
C28_3 C 0.66138(13) 0.04299(13) 0.96341(12)
C33_3 C 0.72434(12) 0.05540(13) 0.83559(11)
C34_3 C 0.69019(15) 0.08753(15) 0.81297(13)
H17_3 H 0.6972 0.0989 0.7796
C35_3 C 0.64030(16) 0.08739(18) 0.88365(14)
H18_3 H 0.6103 0.0980 0.9003
C36_3 C 0.67278(14) 0.05697(13) 0.90974(12)
C37_3 C 0.71545(12) 0.03989(12) 0.88491(11)
H19_3 H 0.7384 0.0178 0.9014
C38_3 C 0.77004(12) 0.03755(13) 0.80710(13)
Sm13_2 Sm 0.82746(2) 0.07495(2) 0.69250(2)
O1_3 O 0.32507(13) 0.75770(10) 0.09084(14)
O3_3 O 0.57821(8) 0.90090(7) 0.16850(8)
O4_3 O 0.60062(8) 0.97894(8) 0.18731(10)
H1_3 H 0.3158 0.6842 0.1842
N1_3 N 0.32256(15) 0.90793(11) 0.05221(15)
C1_3 C 0.36084(13) 0.83779(12) 0.09360(14)
C2_3 C 0.32484(15) 0.85813(13) 0.06225(15)
H2_3 H 0.3007 0.8363 0.0471
C3_3 C 0.35710(15) 0.93753(13) 0.07274(18)
H3_3 H 0.3558 0.9726 0.0651
C4_3 C 0.39520(13) 0.92072(12) 0.10481(13)
C5_3 C 0.39685(13) 0.86874(12) 0.11430(13)
H4_3 H 0.4228 0.8550 0.1350
C6_3 C 0.36155(14) 0.78213(13) 0.10577(15)
C7_3 C 0.43290(12) 0.95460(11) 0.12740(13)
C11_3 C 0.51633(11) 0.96753(11) 0.16215(12)
C12_3 C 0.48058(12) 0.93652(11) 0.13949(12)
H7_3 H 0.4889 0.9024 0.1321
C13_3 C 0.56770(11) 0.94770(11) 0.17314(12)
O10_3 O 0.66850(8) 0.92179(8) 0.09910(7)
O11_3 O 0.68731(10) 0.89938(8) 0.02106(8)
C30_3 C 0.66215(12) 0.98367(11) 0.03247(11)
C32_3 C 0.67314(12) 0.93230(11) 0.05230(11)
O16_3 O 0.59910(7) 0.83150(8) 0.07821(8)
O17_3 O 0.52106(8) 0.81269(10) 0.10062(8)
C48_3 C 0.48238(11) 0.82694(13) 0.00444(12)
H24_3 H 0.4611 0.8115 0.0289
C49_3 C 0.53247(11) 0.83785(12) 0.01633(11)
C51_3 C 0.55230(11) 0.82686(12) 0.06770(11)
Sm12_2 Sm 0.67254(2) 0.92505(2) 0.19250(2)
O30_3 O 0.31269(10) 0.60062(8) 0.02106(8)
O34_3 O 0.23584(9) 0.72315(9) 0.05558(10)
C29_3 C 0.67306(13) 0.99556(12) 0.98238(11)
H15_3 H 0.6885 0.9711 0.9611
O14_3 O 0.74230(10) 0.90916(14) 0.82507(13)
O18_3 O 0.32808(8) 0.70244(9) 0.99424(9)
O19_3 O 0.26416(9) 0.72315(9) 0.94442(10)
N5_3 N 0.59207(11) 0.94779(15) 0.82256(15)
N6_3 N 0.33517(12) 0.85213(14) 0.89633(16)
C39_3 C 0.66221(12) 0.90640(14) 0.86084(13)
C40_3 C 0.64187(13) 0.93775(15) 0.82484(15)
H20_3 H 0.6637 0.9529 0.8007
C41_3 C 0.56247(13) 0.92726(18) 0.85710(15)
H21_3 H 0.5274 0.9349 0.8558
C42_3 C 0.57928(12) 0.89519(13) 0.89520(13)
C43_3 C 0.63126(12) 0.88570(13) 0.89685(13)
H22_3 H 0.6450 0.8650 0.9228
C44_3 C 0.71787(13) 0.89423(15) 0.86155(14)
C45_3 C 0.54540(11) 0.87260(13) 0.93290(12)
C46_3 C 0.49507(12) 0.86167(13) 0.92164(14)
H23_3 H 0.4821 0.8701 0.8893
C47_3 C 0.46341(12) 0.83862(13) 0.95701(13)
C50_3 C 0.56348(11) 0.86051(12) 0.98058(12)
H25_3 H 0.5976 0.8679 0.9889
C52_3 C 0.33559(11) 0.77566(12) 0.94460(13)
C53_3 C 0.31297(13) 0.80981(15) 0.91247(15)
H26_3 H 0.2796 0.8028 0.9011
C54_3 C 0.38365(14) 0.85970(16) 0.91261(18)
H27_3 H 0.4003 0.8897 0.9020
C55_3 C 0.40974(12) 0.82722(14) 0.94303(13)
C56_3 C 0.38491(11) 0.78455(12) 0.96011(12)
H28_3 H 0.4014 0.7616 0.9822
C57_3 C 0.30710(13) 0.72996(12) 0.96245(13)
O21_2 O 0.86809(12) 0.89574(11) 0.73422(9)
O23_2 O 0.92179(8) 0.90090(7) 0.83150(8)
O29_3 O 0.89938(8) 0.97894(8) 0.81269(10)
O33_3 O 0.77685(9) 0.94442(10) 0.73584(9)
O1_4 O 0.17493(13) 0.24230(10) 0.59084(14)
H1_4 H 0.1842 0.3158 0.6842
N1_4 N 0.17744(15) 0.09207(11) 0.55221(15)
C1_4 C 0.13916(13) 0.16221(12) 0.59360(14)
C2_4 C 0.17516(15) 0.14187(13) 0.56225(15)
H2_4 H 0.1993 0.1637 0.5471
C3_4 C 0.14290(15) 0.06247(13) 0.57274(18)
H3_4 H 0.1442 0.0274 0.5651
C4_4 C 0.10480(13) 0.07928(12) 0.60481(13)
C5_4 C 0.10315(13) 0.13126(12) 0.61430(13)
H4_4 H 0.0772 0.1450 0.6350
C6_4 C 0.13845(14) 0.21787(13) 0.60577(15)
C7_4 C 0.06710(12) 0.04540(11) 0.62740(13)
C12_4 C 0.01942(12) 0.06348(11) 0.63949(12)
H7_4 H 0.0111 0.0976 0.6321
O18_4 O 0.17192(8) 0.29756(9) 0.49424(9)
O19_4 O 0.23584(9) 0.27685(9) 0.44442(10)
N6_4 N 0.16483(12) 0.14787(14) 0.39633(16)
C46_4 C 0.00493(12) 0.13833(13) 0.42164(14)
H23_4 H 0.0179 0.1299 0.3893
C47_4 C 0.03659(12) 0.16138(13) 0.45701(13)
C48_4 C 0.01762(11) 0.17306(13) 0.50444(12)
H24_4 H 0.0389 0.1885 0.5289
C52_4 C 0.16441(11) 0.22434(12) 0.44460(13)
C53_4 C 0.18703(13) 0.19019(15) 0.41247(15)
H26_4 H 0.2204 0.1972 0.4011
C54_4 C 0.11635(14) 0.14030(16) 0.41261(18)
H27_4 H 0.0997 0.1103 0.4020
C55_4 C 0.09026(12) 0.17278(14) 0.44303(13)
C56_4 C 0.11509(11) 0.21545(12) 0.46011(12)
H28_4 H 0.0986 0.2384 0.4822
C57_4 C 0.19290(13) 0.27004(12) 0.46245(13)
O30_4 O 0.18731(10) 0.39938(8) 0.52106(8)
O34_4 O 0.26416(9) 0.27685(9) 0.55558(10)
O5_4 O 0.00576(9) 0.82808(8) 0.79756(9)
O6_4 O 0.05558(10) 0.76416(9) 0.77685(9)
N2_4 N 0.10367(16) 0.83517(12) 0.64787(14)
C8_4 C 0.07836(14) 0.99507(12) 0.63833(13)
H5_4 H 0.1107 0.9821 0.6299
C9_4 C 0.04299(13) 0.96341(12) 0.66138(13)
C14_4 C 0.05540(13) 0.83559(11) 0.72434(12)
C15_4 C 0.08753(15) 0.81297(13) 0.69019(15)
H8_4 H 0.0989 0.7796 0.6972
C16_4 C 0.08739(18) 0.88365(14) 0.64030(16)
H9_4 H 0.0980 0.9003 0.6103
C17_4 C 0.05697(13) 0.90974(12) 0.67278(14)
C18_4 C 0.03989(12) 0.88491(11) 0.71545(12)
H10_4 H 0.0178 0.9014 0.7384
C19_4 C 0.03755(13) 0.80710(13) 0.77004(12)
O3_4 O 0.92179(8) 0.09910(7) 0.66850(8)
O4_4 O 0.89938(8) 0.02106(8) 0.68731(10)
C11_4 C 0.98367(11) 0.03247(11) 0.66215(12)
C13_4 C 0.93230(11) 0.05230(11) 0.67314(12)
O10_4 O 0.83150(8) 0.07821(8) 0.59910(7)
O11_4 O 0.81269(10) 0.10062(8) 0.52106(8)
C29_4 C 0.82694(13) 0.00444(12) 0.48238(11)
H15_4 H 0.8115 0.0289 0.4611
C30_4 C 0.83785(12) 0.01633(11) 0.53247(11)
C32_4 C 0.82686(12) 0.06770(11) 0.55230(11)
O14_4 O 0.75770(10) 0.09084(14) 0.32507(13)
O16_4 O 0.90090(7) 0.16850(8) 0.57821(8)
O17_4 O 0.97894(8) 0.18731(10) 0.60062(8)
N5_4 N 0.90793(11) 0.05221(15) 0.32256(15)
C39_4 C 0.83779(12) 0.09360(14) 0.36084(13)
C40_4 C 0.85813(13) 0.06225(15) 0.32484(15)
H20_4 H 0.8363 0.0471 0.3007
C41_4 C 0.93753(13) 0.07274(18) 0.35710(15)
H21_4 H 0.9726 0.0651 0.3558
C42_4 C 0.92072(12) 0.10481(13) 0.39520(13)
C43_4 C 0.86874(12) 0.11430(13) 0.39685(13)
H22_4 H 0.8550 0.1350 0.4228
C44_4 C 0.78213(13) 0.10577(15) 0.36155(14)
C45_4 C 0.95460(11) 0.12740(13) 0.43290(12)
C49_4 C 0.96753(11) 0.16215(12) 0.51633(11)
C50_4 C 0.93652(11) 0.13949(12) 0.48058(12)
H25_4 H 0.9024 0.1321 0.4889
C51_4 C 0.94770(11) 0.17314(12) 0.56770(11)
O29_4 O 0.60062(8) 0.02106(8) 0.31269(10)
O33_4 O 0.72315(9) 0.05558(10) 0.23584(9)
C10_4 C 0.99556(12) 0.98238(11) 0.67306(13)
H6_4 H 0.9711 0.9611 0.6885
O8_4 O 0.90916(14) 0.82507(13) 0.74230(10)
O12_4 O 0.70244(9) 0.99424(9) 0.32808(8)
O13_4 O 0.72315(9) 0.94442(10) 0.26416(9)
N3_4 N 0.94779(15) 0.82256(15) 0.59207(11)
N4_4 N 0.85213(14) 0.89633(16) 0.33517(12)
C20_4 C 0.90640(14) 0.86084(13) 0.66221(12)
C21_4 C 0.93775(15) 0.82484(15) 0.64187(13)
H11_4 H 0.9529 0.8007 0.6637
C22_4 C 0.92726(18) 0.85710(15) 0.56247(13)
H12_4 H 0.9349 0.8558 0.5274
C23_4 C 0.89519(13) 0.89520(13) 0.57928(12)
C24_4 C 0.88570(13) 0.89685(13) 0.63126(12)
H13_4 H 0.8650 0.9228 0.6450
C25_4 C 0.89423(15) 0.86155(14) 0.71787(13)
C26_4 C 0.87260(13) 0.93290(12) 0.54540(11)
C27_4 C 0.86167(13) 0.92164(14) 0.49507(12)
H14_4 H 0.8701 0.8893 0.4821
C28_4 C 0.83862(13) 0.95701(13) 0.46341(12)
C31_4 C 0.86051(12) 0.98058(12) 0.56348(11)
H16_4 H 0.8679 0.9889 0.5976
C33_4 C 0.77566(12) 0.94460(13) 0.33559(11)
C34_4 C 0.80981(15) 0.91247(15) 0.31297(13)
H17_4 H 0.8028 0.9011 0.2796
C35_4 C 0.85970(16) 0.91261(18) 0.38365(14)
H18_4 H 0.8897 0.9020 0.4003
C36_4 C 0.82722(14) 0.94303(13) 0.40974(12)
C37_4 C 0.78455(12) 0.96011(12) 0.38491(11)
H19_4 H 0.7616 0.9822 0.4014
C38_4 C 0.72996(12) 0.96245(13) 0.30710(13)
O31_4 O 0.97894(8) 0.81269(10) 0.89938(8)
O32_4 O 0.94442(10) 0.73584(9) 0.77685(9)
O5_5 O 0.00576(9) 0.17192(8) 0.70244(9)
N2_5 N 0.10367(16) 0.16483(12) 0.85213(14)
C8_5 C 0.07836(14) 0.00493(12) 0.86167(13)
H5_5 H 0.1107 0.0179 0.8701
C9_5 C 0.04299(13) 0.03659(12) 0.83862(13)
C14_5 C 0.05540(13) 0.16441(11) 0.77566(12)
C15_5 C 0.08753(15) 0.18703(13) 0.80981(15)
H8_5 H 0.0989 0.2204 0.8028
C16_5 C 0.08739(18) 0.11635(14) 0.85970(16)
H9_5 H 0.0980 0.0997 0.8897
C17_5 C 0.05697(13) 0.09026(12) 0.82722(14)
C18_5 C 0.03989(12) 0.11509(11) 0.78455(12)
H10_5 H 0.0178 0.0986 0.7616
C19_5 C 0.03755(13) 0.19290(13) 0.72996(12)
O18_5 O 0.17192(8) 0.70244(9) 0.00576(9)
N6_5 N 0.16483(12) 0.85213(14) 0.10367(16)
C46_5 C 0.00493(12) 0.86167(13) 0.07836(14)
H23_5 H 0.0179 0.8701 0.1107
C47_5 C 0.03659(12) 0.83862(13) 0.04299(13)
C52_5 C 0.16441(11) 0.77566(12) 0.05540(13)
C53_5 C 0.18703(13) 0.80981(15) 0.08753(15)
H26_5 H 0.2204 0.8028 0.0989
C54_5 C 0.11635(14) 0.85970(16) 0.08739(18)
H27_5 H 0.0997 0.8897 0.0980
C55_5 C 0.09026(12) 0.82722(14) 0.05697(13)
C56_5 C 0.11509(11) 0.78455(12) 0.03989(12)
H28_5 H 0.0986 0.7616 0.0178
C57_5 C 0.19290(13) 0.72996(12) 0.03755(13)
O1_5 O 0.17493(13) 0.75770(10) 0.90916(14)
O2_3 O 0.10426(11) 0.76578(9) 0.86809(12)
O7_3 O 0.16565(8) 0.66565(8) 0.83435(8)
H1_5 H 0.1842 0.6842 0.8158
N1_5 N 0.17744(15) 0.90793(11) 0.94779(15)
C1_5 C 0.13916(13) 0.83779(12) 0.90640(14)
C2_5 C 0.17516(15) 0.85813(13) 0.93775(15)
H2_5 H 0.1993 0.8363 0.9529
C3_5 C 0.14290(15) 0.93753(13) 0.92726(18)
H3_5 H 0.1442 0.9726 0.9349
C4_5 C 0.10480(13) 0.92072(12) 0.89519(13)
C5_5 C 0.10315(13) 0.86874(12) 0.88570(13)
H4_5 H 0.0772 0.8550 0.8650
C6_5 C 0.13845(14) 0.78213(13) 0.89423(15)
C7_5 C 0.06710(12) 0.95460(11) 0.87260(13)
C12_5 C 0.01942(12) 0.93652(11) 0.86051(12)
H7_5 H 0.0111 0.9024 0.8679
C48_5 C 0.01762(11) 0.82694(13) 0.99556(12)
H24_5 H 0.0389 0.8115 0.9711
O22_3 O 0.26578(9) 0.63191(12) 0.89574(11)
O12_5 O 0.70244(9) 0.00576(9) 0.17192(8)
N4_5 N 0.85213(14) 0.10367(16) 0.16483(12)
C27_5 C 0.86167(13) 0.07836(14) 0.00493(12)
H14_5 H 0.8701 0.1107 0.0179
C28_5 C 0.83862(13) 0.04299(13) 0.03659(12)
C33_5 C 0.77566(12) 0.05540(13) 0.16441(11)
C34_5 C 0.80981(15) 0.08753(15) 0.18703(13)
H17_5 H 0.8028 0.0989 0.2204
C35_5 C 0.85970(16) 0.08739(18) 0.11635(14)
H18_5 H 0.8897 0.0980 0.0997
C36_5 C 0.82722(14) 0.05697(13) 0.09026(12)
C37_5 C 0.78455(12) 0.03989(12) 0.11509(11)
H19_5 H 0.7616 0.0178 0.0986
C38_5 C 0.72996(12) 0.03755(13) 0.19290(13)
C10_5 C 0.99556(12) 0.01762(11) 0.82694(13)
H6_5 H 0.9711 0.0389 0.8115
O8_5 O 0.90916(14) 0.17493(13) 0.75770(10)
O9_3 O 0.86809(12) 0.10426(11) 0.76578(9)
N3_5 N 0.94779(15) 0.17744(15) 0.90793(11)
C20_5 C 0.90640(14) 0.13916(13) 0.83779(12)
C21_5 C 0.93775(15) 0.17516(15) 0.85813(13)
H11_5 H 0.9529 0.1993 0.8363
C22_5 C 0.92726(18) 0.14290(15) 0.93753(13)
H12_5 H 0.9349 0.1442 0.9726
C23_5 C 0.89519(13) 0.10480(13) 0.92072(12)
C24_5 C 0.88570(13) 0.10315(13) 0.86874(12)
H13_5 H 0.8650 0.0772 0.8550
C25_5 C 0.89423(15) 0.13845(14) 0.78213(13)
C26_5 C 0.87260(13) 0.06710(12) 0.95460(11)
C31_5 C 0.86051(12) 0.01942(12) 0.93652(11)
H16_5 H 0.8679 0.0111 0.9024
O20_3 O 0.89574(11) 0.26578(9) 0.63191(12)
O35_2 O 0.83435(8) 0.16565(8) 0.66565(8)
C29_5 C 0.82694(13) 0.99556(12) 0.01762(11)
H15_5 H 0.8115 0.9711 0.0389
O14_5 O 0.75770(10) 0.90916(14) 0.17493(13)
O15_3 O 0.76578(9) 0.86809(12) 0.10426(11)
N5_5 N 0.90793(11) 0.94779(15) 0.17744(15)
C39_5 C 0.83779(12) 0.90640(14) 0.13916(13)
C40_5 C 0.85813(13) 0.93775(15) 0.17516(15)
H20_5 H 0.8363 0.9529 0.1993
C41_5 C 0.93753(13) 0.92726(18) 0.14290(15)
H21_5 H 0.9726 0.9349 0.1442
C42_5 C 0.92072(12) 0.89519(13) 0.10480(13)
C43_5 C 0.86874(12) 0.88570(13) 0.10315(13)
H22_5 H 0.8550 0.8650 0.0772
C44_5 C 0.78213(13) 0.89423(15) 0.13845(14)
C45_5 C 0.95460(11) 0.87260(13) 0.06710(12)
C50_5 C 0.93652(11) 0.86051(12) 0.01942(12)
H25_5 H 0.9024 0.8679 0.0111
O21_3 O 0.63191(12) 0.89574(11) 0.26578(9)
O36_2 O 0.66565(8) 0.83435(8) 0.16565(8)
C11_5 C 0.98367(11) 0.96753(11) 0.83785(12)
C13_5 C 0.93230(11) 0.94770(11) 0.82686(12)
C30_5 C 0.83785(12) 0.98367(11) 0.96753(11)
C32_5 C 0.82686(12) 0.93230(11) 0.94770(11)
C49_5 C 0.96753(11) 0.83785(12) 0.98367(11)
C51_5 C 0.94770(11) 0.82686(12) 0.93230(11)
O1_6 O 0.32507(13) 0.24230(10) 0.40916(14)
O2_4 O 0.39574(11) 0.23422(9) 0.36809(12)
O7_4 O 0.33435(8) 0.33435(8) 0.33435(8)
H1_6 H 0.3158 0.3158 0.3158
N1_6 N 0.32256(15) 0.09207(11) 0.44779(15)
C1_6 C 0.36084(13) 0.16221(12) 0.40640(14)
C2_6 C 0.32484(15) 0.14187(13) 0.43775(15)
H2_6 H 0.3007 0.1637 0.4529
C3_6 C 0.35710(15) 0.06247(13) 0.42726(18)
H3_6 H 0.3558 0.0274 0.4349
C4_6 C 0.39520(13) 0.07928(12) 0.39519(13)
C5_6 C 0.39685(13) 0.13126(12) 0.38570(13)
H4_6 H 0.4228 0.1450 0.3650
C6_6 C 0.36155(14) 0.21787(13) 0.39423(15)
C7_6 C 0.43290(12) 0.04540(11) 0.37260(13)
C11_6 C 0.51633(11) 0.03247(11) 0.33785(12)
C12_6 C 0.48058(12) 0.06348(11) 0.36051(12)
H7_6 H 0.4889 0.0976 0.3679
C13_6 C 0.56770(11) 0.05230(11) 0.32686(12)
C29_6 C 0.67306(13) 0.00444(12) 0.51762(11)
H15_6 H 0.6885 0.0289 0.5389
C30_6 C 0.66215(12) 0.01633(11) 0.46753(11)
C32_6 C 0.67314(12) 0.06770(11) 0.44770(11)
O14_6 O 0.74230(10) 0.09084(14) 0.67493(13)
O15_4 O 0.73422(9) 0.13191(12) 0.60426(11)
O18_6 O 0.32808(8) 0.29756(9) 0.50576(9)
N5_6 N 0.59207(11) 0.05221(15) 0.67744(15)
N6_6 N 0.33517(12) 0.14787(14) 0.60367(16)
C39_6 C 0.66221(12) 0.09360(14) 0.63916(13)
C40_6 C 0.64187(13) 0.06225(15) 0.67516(15)
H20_6 H 0.6637 0.0471 0.6993
C41_6 C 0.56247(13) 0.07274(18) 0.64290(15)
H21_6 H 0.5274 0.0651 0.6442
C42_6 C 0.57928(12) 0.10481(13) 0.60480(13)
C43_6 C 0.63126(12) 0.11430(13) 0.60315(13)
H22_6 H 0.6450 0.1350 0.5772
C44_6 C 0.71787(13) 0.10577(15) 0.63845(14)
C45_6 C 0.54540(11) 0.12740(13) 0.56710(12)
C46_6 C 0.49507(12) 0.13833(13) 0.57836(14)
H23_6 H 0.4821 0.1299 0.6107
C47_6 C 0.46341(12) 0.16138(13) 0.54299(13)
C48_6 C 0.48238(11) 0.17306(13) 0.49556(12)
H24_6 H 0.4611 0.1885 0.4711
C49_6 C 0.53247(11) 0.16215(12) 0.48367(11)
C50_6 C 0.56348(11) 0.13949(12) 0.51942(12)
H25_6 H 0.5976 0.1321 0.5111
C51_6 C 0.55230(11) 0.17314(12) 0.43230(11)
C52_6 C 0.33559(11) 0.22434(12) 0.55540(13)
C53_6 C 0.31297(13) 0.19019(15) 0.58753(15)
H26_6 H 0.2796 0.1972 0.5989
C54_6 C 0.38365(14) 0.14030(16) 0.58739(18)
H27_6 H 0.4003 0.1103 0.5980
C55_6 C 0.40974(12) 0.17278(14) 0.55697(13)
C56_6 C 0.38491(11) 0.21545(12) 0.53989(12)
H28_6 H 0.4014 0.2384 0.5178
C57_6 C 0.30710(13) 0.27004(12) 0.53755(13)
O22_4 O 0.23422(9) 0.36809(12) 0.39574(11)
O5_6 O 0.49424(9) 0.82808(8) 0.20244(9)
N2_6 N 0.39633(16) 0.83517(12) 0.35213(14)
C8_6 C 0.42164(14) 0.99507(12) 0.36167(13)
H5_6 H 0.3893 0.9821 0.3701
C9_6 C 0.45701(13) 0.96341(12) 0.33862(13)
C10_6 C 0.50444(12) 0.98238(11) 0.32694(13)
H6_6 H 0.5289 0.9611 0.3115
C14_6 C 0.44460(13) 0.83559(11) 0.27566(12)
C15_6 C 0.41247(15) 0.81297(13) 0.30981(15)
H8_6 H 0.4011 0.7796 0.3028
C16_6 C 0.41261(18) 0.88365(14) 0.35970(16)
H9_6 H 0.4020 0.9003 0.3897
C17_6 C 0.44303(13) 0.90974(12) 0.32722(14)
C18_6 C 0.46011(12) 0.88491(11) 0.28455(12)
H10_6 H 0.4822 0.9014 0.2616
C19_6 C 0.46245(13) 0.80710(13) 0.22996(12)
O8_6 O 0.59084(14) 0.82507(13) 0.25770(10)
O12_6 O 0.79756(9) 0.99424(9) 0.67192(8)
N3_6 N 0.55221(15) 0.82256(15) 0.40793(11)
N4_6 N 0.64787(14) 0.89633(16) 0.66483(12)
C20_6 C 0.59360(14) 0.86084(13) 0.33779(12)
C21_6 C 0.56225(15) 0.82484(15) 0.35813(13)
H11_6 H 0.5471 0.8007 0.3363
C22_6 C 0.57274(18) 0.85710(15) 0.43753(13)
H12_6 H 0.5651 0.8558 0.4726
C23_6 C 0.60481(13) 0.89520(13) 0.42072(12)
C24_6 C 0.61430(13) 0.89685(13) 0.36874(12)
H13_6 H 0.6350 0.9228 0.3550
C25_6 C 0.60577(15) 0.86155(14) 0.28213(13)
C26_6 C 0.62740(13) 0.93290(12) 0.45460(11)
C27_6 C 0.63833(13) 0.92164(14) 0.50493(12)
H14_6 H 0.6299 0.8893 0.5179
C28_6 C 0.66138(13) 0.95701(13) 0.53659(12)
C31_6 C 0.63949(12) 0.98058(12) 0.43652(11)
H16_6 H 0.6321 0.9889 0.4024
C33_6 C 0.72434(12) 0.94460(13) 0.66441(11)
C34_6 C 0.69019(15) 0.91247(15) 0.68703(13)
H17_6 H 0.6972 0.9011 0.7204
C35_6 C 0.64030(16) 0.91261(18) 0.61635(14)
H18_6 H 0.6103 0.9020 0.5997
C36_6 C 0.67278(14) 0.94303(13) 0.59026(12)
C37_6 C 0.71545(12) 0.96011(12) 0.61509(11)
H19_6 H 0.7384 0.9822 0.5986
C38_6 C 0.77004(12) 0.96245(13) 0.69290(13)
O20_4 O 0.60426(11) 0.73422(9) 0.13191(12)
C10_7 C 0.00444(12) 0.51762(11) 0.67306(13)
H6_7 H 0.0289 0.5389 0.6885
C11_7 C 0.01633(11) 0.46753(11) 0.66215(12)
C13_7 C 0.06770(11) 0.44770(11) 0.67314(12)
O8_7 O 0.09084(14) 0.67493(13) 0.74230(10)
O9_4 O 0.13191(12) 0.60426(11) 0.73422(9)
O12_7 O 0.29756(9) 0.50576(9) 0.32808(8)
N3_7 N 0.05221(15) 0.67744(15) 0.59207(11)
N4_7 N 0.14787(14) 0.60367(16) 0.33517(12)
C20_7 C 0.09360(14) 0.63916(13) 0.66221(12)
C21_7 C 0.06225(15) 0.67516(15) 0.64187(13)
H11_7 H 0.0471 0.6993 0.6637
C22_7 C 0.07274(18) 0.64290(15) 0.56247(13)
H12_7 H 0.0651 0.6442 0.5274
C23_7 C 0.10481(13) 0.60480(13) 0.57928(12)
C24_7 C 0.11430(13) 0.60315(13) 0.63126(12)
H13_7 H 0.1350 0.5772 0.6450
C25_7 C 0.10577(15) 0.63845(14) 0.71787(13)
C26_7 C 0.12740(13) 0.56710(12) 0.54540(11)
C27_7 C 0.13833(13) 0.57836(14) 0.49507(12)
H14_7 H 0.1299 0.6107 0.4821
C28_7 C 0.16138(13) 0.54299(13) 0.46341(12)
C29_7 C 0.17306(13) 0.49556(12) 0.48238(11)
H15_7 H 0.1885 0.4711 0.4611
C30_7 C 0.16215(12) 0.48367(11) 0.53247(11)
C31_7 C 0.13949(12) 0.51942(12) 0.56348(11)
H16_7 H 0.1321 0.5111 0.5976
C32_7 C 0.17314(12) 0.43230(11) 0.55230(11)
C33_7 C 0.22434(12) 0.55540(13) 0.33559(11)
C34_7 C 0.19019(15) 0.58753(15) 0.31297(13)
H17_7 H 0.1972 0.5989 0.2796
C35_7 C 0.14030(16) 0.58739(18) 0.38365(14)
H18_7 H 0.1103 0.5980 0.4003
C36_7 C 0.17278(14) 0.55697(13) 0.40974(12)
C37_7 C 0.21545(12) 0.53989(12) 0.38491(11)
H19_7 H 0.2384 0.5178 0.4014
C38_7 C 0.27004(12) 0.53755(13) 0.30710(13)
O14_7 O 0.24230(10) 0.40916(14) 0.32507(13)
N5_7 N 0.09207(11) 0.44779(15) 0.32256(15)
C39_7 C 0.16221(12) 0.40640(14) 0.36084(13)
C40_7 C 0.14187(13) 0.43775(15) 0.32484(15)
H20_7 H 0.1637 0.4529 0.3007
C41_7 C 0.06247(13) 0.42726(18) 0.35710(15)
H21_7 H 0.0274 0.4349 0.3558
C42_7 C 0.07928(12) 0.39519(13) 0.39520(13)
C43_7 C 0.13126(12) 0.38570(13) 0.39685(13)
H22_7 H 0.1450 0.3650 0.4228
C44_7 C 0.21787(13) 0.39423(15) 0.36155(14)
C45_7 C 0.04540(11) 0.37260(13) 0.43290(12)
C49_7 C 0.03247(11) 0.33785(12) 0.51633(11)
C50_7 C 0.06348(11) 0.36051(12) 0.48058(12)
H25_7 H 0.0976 0.3679 0.4889
C51_7 C 0.05230(11) 0.32686(12) 0.56770(11)
O21_4 O 0.36809(12) 0.39574(11) 0.23422(9)
O1_7 O 0.82507(13) 0.25770(10) 0.59084(14)
O5_7 O 0.99424(9) 0.67192(8) 0.79756(9)
H1_7 H 0.8158 0.1842 0.6842
N1_7 N 0.82256(15) 0.40793(11) 0.55221(15)
N2_7 N 0.89633(16) 0.66483(12) 0.64787(14)
C1_7 C 0.86084(13) 0.33779(12) 0.59360(14)
C2_7 C 0.82484(15) 0.35813(13) 0.56225(15)
H2_7 H 0.8007 0.3363 0.5471
C3_7 C 0.85710(15) 0.43753(13) 0.57274(18)
H3_7 H 0.8558 0.4726 0.5651
C4_7 C 0.89520(13) 0.42072(12) 0.60481(13)
C5_7 C 0.89685(13) 0.36874(12) 0.61430(13)
H4_7 H 0.9228 0.3550 0.6350
C6_7 C 0.86155(14) 0.28213(13) 0.60577(15)
C7_7 C 0.93290(12) 0.45460(11) 0.62740(13)
C8_7 C 0.92164(14) 0.50493(12) 0.63833(13)
H5_7 H 0.8893 0.5179 0.6299
C9_7 C 0.95701(13) 0.53659(12) 0.66138(13)
C12_7 C 0.98058(12) 0.43652(11) 0.63949(12)
H7_7 H 0.9889 0.4024 0.6321
C14_7 C 0.94460(13) 0.66441(11) 0.72434(12)
C15_7 C 0.91247(15) 0.68703(13) 0.69019(15)
H8_7 H 0.9011 0.7204 0.6972
C16_7 C 0.91261(18) 0.61635(14) 0.64030(16)
H9_7 H 0.9020 0.5997 0.6103
C17_7 C 0.94303(13) 0.59026(12) 0.67278(14)
C18_7 C 0.96011(12) 0.61509(11) 0.71545(12)
H10_7 H 0.9822 0.5986 0.7384
C19_7 C 0.96245(13) 0.69290(13) 0.77004(12)
O18_7 O 0.82808(8) 0.20244(9) 0.49424(9)
N6_7 N 0.83517(12) 0.35213(14) 0.39633(16)
C46_7 C 0.99507(12) 0.36167(13) 0.42164(14)
H23_7 H 0.9821 0.3701 0.3893
C47_7 C 0.96341(12) 0.33862(13) 0.45701(13)
C48_7 C 0.98238(11) 0.32694(13) 0.50444(12)
H24_7 H 0.9611 0.3115 0.5289
C52_7 C 0.83559(11) 0.27566(12) 0.44460(13)
C53_7 C 0.81297(13) 0.30981(15) 0.41247(15)
H26_7 H 0.7796 0.3028 0.4011
C54_7 C 0.88365(14) 0.35970(16) 0.41261(18)
H27_7 H 0.9003 0.3897 0.4020
C55_7 C 0.90974(12) 0.32722(14) 0.44303(13)
C56_7 C 0.88491(11) 0.28455(12) 0.46011(12)
H28_7 H 0.9014 0.2616 0.4822
C57_7 C 0.80710(13) 0.22996(12) 0.46245(13)
O1_8 O 0.67493(13) 0.74230(10) 0.09084(14)
O5_8 O 0.50576(9) 0.32808(8) 0.29756(9)
H1_8 H 0.6842 0.8158 0.1842
N1_8 N 0.67744(15) 0.59207(11) 0.05221(15)
N2_8 N 0.60367(16) 0.33517(12) 0.14787(14)
C1_8 C 0.63916(13) 0.66221(12) 0.09360(14)
C2_8 C 0.67516(15) 0.64187(13) 0.06225(15)
H2_8 H 0.6993 0.6637 0.0471
C3_8 C 0.64290(15) 0.56247(13) 0.07274(18)
H3_8 H 0.6442 0.5274 0.0651
C4_8 C 0.60480(13) 0.57928(12) 0.10481(13)
C5_8 C 0.60315(13) 0.63126(12) 0.11430(13)
H4_8 H 0.5772 0.6450 0.1350
C6_8 C 0.63845(14) 0.71787(13) 0.10577(15)
C7_8 C 0.56710(12) 0.54540(11) 0.12740(13)
C8_8 C 0.57836(14) 0.49507(12) 0.13833(13)
H5_8 H 0.6107 0.4821 0.1299
C9_8 C 0.54299(13) 0.46341(12) 0.16138(13)
C10_8 C 0.49556(12) 0.48238(11) 0.17306(13)
H6_8 H 0.4711 0.4611 0.1885
C11_8 C 0.48367(11) 0.53247(11) 0.16215(12)
C12_8 C 0.51942(12) 0.56348(11) 0.13949(12)
H7_8 H 0.5111 0.5976 0.1321
C13_8 C 0.43230(11) 0.55230(11) 0.17314(12)
C14_8 C 0.55540(13) 0.33559(11) 0.22434(12)
C15_8 C 0.58753(15) 0.31297(13) 0.19019(15)
H8_8 H 0.5989 0.2796 0.1972
C16_8 C 0.58739(18) 0.38365(14) 0.14030(16)
H9_8 H 0.5980 0.4003 0.1103
C17_8 C 0.55697(13) 0.40974(12) 0.17278(14)
C18_8 C 0.53989(12) 0.38491(11) 0.21545(12)
H10_8 H 0.5178 0.4014 0.2384
C19_8 C 0.53755(13) 0.30710(13) 0.27004(12)
O8_8 O 0.40916(14) 0.32507(13) 0.24230(10)
N3_8 N 0.44779(15) 0.32256(15) 0.09207(11)
C20_8 C 0.40640(14) 0.36084(13) 0.16221(12)
C21_8 C 0.43775(15) 0.32484(15) 0.14187(13)
H11_8 H 0.4529 0.3007 0.1637
C22_8 C 0.42726(18) 0.35710(15) 0.06247(13)
H12_8 H 0.4349 0.3558 0.0274
C23_8 C 0.39519(13) 0.39520(13) 0.07928(12)
C24_8 C 0.38570(13) 0.39685(13) 0.13126(12)
H13_8 H 0.3650 0.4228 0.1450
C25_8 C 0.39423(15) 0.36155(14) 0.21787(13)
C26_8 C 0.37260(13) 0.43290(12) 0.04540(11)
C30_8 C 0.33785(12) 0.51633(11) 0.03247(11)
C31_8 C 0.36051(12) 0.48058(12) 0.06348(11)
H16_8 H 0.3679 0.4889 0.0976
C32_8 C 0.32686(12) 0.56770(11) 0.05230(11)
C48_8 C 0.51762(11) 0.67306(13) 0.00444(12)
H24_8 H 0.5389 0.6885 0.0289
C49_8 C 0.46753(11) 0.66215(12) 0.01633(11)
C51_8 C 0.44770(11) 0.67314(12) 0.06770(11)
O12_8 O 0.20244(9) 0.49424(9) 0.82808(8)
N4_8 N 0.35213(14) 0.39633(16) 0.83517(12)
C27_8 C 0.36167(13) 0.42164(14) 0.99507(12)
H14_8 H 0.3701 0.3893 0.9821
C28_8 C 0.33862(13) 0.45701(13) 0.96341(12)
C29_8 C 0.32694(13) 0.50444(12) 0.98238(11)
H15_8 H 0.3115 0.5289 0.9611
C33_8 C 0.27566(12) 0.44460(13) 0.83559(11)
C34_8 C 0.30981(15) 0.41247(15) 0.81297(13)
H17_8 H 0.3028 0.4011 0.7796
C35_8 C 0.35970(16) 0.41261(18) 0.88365(14)
H18_8 H 0.3897 0.4020 0.9003
C36_8 C 0.32722(14) 0.44303(13) 0.90974(12)
C37_8 C 0.28455(12) 0.46011(12) 0.88491(11)
H19_8 H 0.2616 0.4822 0.9014
C38_8 C 0.22996(12) 0.46245(13) 0.80710(13)
O14_8 O 0.25770(10) 0.59084(14) 0.82507(13)
O18_8 O 0.67192(8) 0.79756(9) 0.99424(9)
N5_8 N 0.40793(11) 0.55221(15) 0.82256(15)
N6_8 N 0.66483(12) 0.64787(14) 0.89633(16)
C39_8 C 0.33779(12) 0.59360(14) 0.86084(13)
C40_8 C 0.35813(13) 0.56225(15) 0.82484(15)
H20_8 H 0.3363 0.5471 0.8007
C41_8 C 0.43753(13) 0.57274(18) 0.85710(15)
H21_8 H 0.4726 0.5651 0.8558
C42_8 C 0.42072(12) 0.60481(13) 0.89520(13)
C43_8 C 0.36874(12) 0.61430(13) 0.89685(13)
H22_8 H 0.3550 0.6350 0.9228
C44_8 C 0.28213(13) 0.60577(15) 0.86155(14)
C45_8 C 0.45460(11) 0.62740(13) 0.93290(12)
C46_8 C 0.50493(12) 0.63833(13) 0.92164(14)
H23_8 H 0.5179 0.6299 0.8893
C47_8 C 0.53659(12) 0.66138(13) 0.95701(13)
C50_8 C 0.43652(11) 0.63949(12) 0.98058(12)
H25_8 H 0.4024 0.6321 0.9889
C52_8 C 0.66441(11) 0.72434(12) 0.94460(13)
C53_8 C 0.68703(13) 0.69019(15) 0.91247(15)
H26_8 H 0.7204 0.6972 0.9011
C54_8 C 0.61635(14) 0.64030(16) 0.91261(18)
H27_8 H 0.5997 0.6103 0.9020
C55_8 C 0.59026(12) 0.67278(14) 0.94303(13)
C56_8 C 0.61509(11) 0.71545(12) 0.96011(12)
H28_8 H 0.5986 0.7384 0.9822
C57_8 C 0.69290(13) 0.77004(12) 0.96245(13)
loop_
_geom_bond_atom_site_label_1
_geom_bond_atom_site_label_2
_geom_bond_site_symmetry_1
_geom_bond_site_symmetry_2
Sm1 O1 1_555 1_555
O1 C6 1_555 1_555
O2 C6 1_555 1_555
O3 C13 1_555 1_555
O4 C13 1_555 1_555
O5 C19 1_555 1_555
O6 C19 1_555 1_555
O7 Sm1 1_555 1_555
H1 O7 1_555 1_555
N1 C2 1_555 1_555
N2 C15 1_555 1_555
C1 C2 1_555 1_555
C2 H2 1_555 1_555
C3 N1 1_555 1_555
H3 C3 1_555 1_555
C4 C3 1_555 1_555
C5 C1 1_555 1_555
H4 C5 1_555 1_555
C6 C1 1_555 1_555
C7 C4 1_555 1_555
C8 C7 1_555 1_555
H5 C8 1_555 1_555
C9 C8 1_555 1_555
C10 C9 1_555 1_555
H6 C10 1_555 1_555
C11 C10 1_555 1_555
C12 C7 1_555 1_555
H7 C12 1_555 1_555
C13 C11 1_555 1_555
C14 C15 1_555 1_555
C15 H8 1_555 1_555
C16 N2 1_555 1_555
H9 C16 1_555 1_555
C17 C9 1_555 1_555
C18 C14 1_555 1_555
H10 C18 1_555 1_555
C19 C14 1_555 1_555
Sm2 O5 1_555 1_555
O8 Sm2 1_555 1_555
O9 C25 1_555 1_555
O10 C32 1_555 1_555
O11 C32 1_555 1_555
O12 C38 1_555 1_555
O13 C38 1_555 1_555
N3 C21 1_555 1_555
N4 C34 1_555 1_555
C20 C21 1_555 1_555
C21 H11 1_555 1_555
C22 N3 1_555 1_555
H12 C22 1_555 1_555
C23 C22 1_555 1_555
C24 C20 1_555 1_555
H13 C24 1_555 1_555
C25 O8 1_555 1_555
C26 C23 1_555 1_555
C27 C26 1_555 1_555
H14 C27 1_555 1_555
C28 C27 1_555 1_555
C29 C28 1_555 1_555
H15 C29 1_555 1_555
C30 C29 1_555 1_555
C31 C26 1_555 1_555
H16 C31 1_555 1_555
C32 C30 1_555 1_555
C33 C34 1_555 1_555
C34 H17 1_555 1_555
C35 N4 1_555 1_555
H18 C35 1_555 1_555
C36 C28 1_555 1_555
C37 C33 1_555 1_555
H19 C37 1_555 1_555
C38 C33 1_555 1_555
Sm3 O12 1_555 1_555
O14 Sm3 1_555 1_555
O15 C44 1_555 1_555
O16 C51 1_555 1_555
O17 C51 1_555 1_555
O18 Sm1 1_555 1_555
O19 C57 1_555 1_555
N5 C40 1_555 1_555
N6 C53 1_555 1_555
C39 C40 1_555 1_555
C40 H20 1_555 1_555
C41 N5 1_555 1_555
H21 C41 1_555 1_555
C42 C41 1_555 1_555
C43 C39 1_555 1_555
H22 C43 1_555 1_555
C44 O14 1_555 1_555
C45 C42 1_555 1_555
C46 C45 1_555 1_555
H23 C46 1_555 1_555
C47 C46 1_555 1_555
C48 C47 1_555 1_555
H24 C48 1_555 1_555
C49 C48 1_555 1_555
C50 C45 1_555 1_555
H25 C50 1_555 1_555
C51 C49 1_555 1_555
C52 C53 1_555 1_555
C53 H26 1_555 1_555
C54 N6 1_555 1_555
H27 C54 1_555 1_555
C55 C47 1_555 1_555
C56 C52 1_555 1_555
H28 C56 1_555 1_555
C57 O18 1_555 1_555
Sm4 O15 1_555 1_555
Sm5 O2 1_555 1_555
Sm6 O7 1_555 1_555
Sm7 O9 1_555 1_555
Sm8 O10 1_555 1_555
Sm9 O19 1_555 1_555
Sm10 O3 1_555 1_555
Sm11 O6 1_555 1_555
Sm12 O3 1_555 1_555
Sm13 O13 1_555 1_555
O20 Sm2 1_555 1_555
O21 Sm3 1_555 1_555
O22 Sm1 1_555 1_555
O23 Sm3 1_555 1_555
O24 Sm2 1_555 1_555
O25 Sm1 1_555 1_555
O26 Sm3 1_555 1_555
O27 Sm2 1_555 1_555
O28 Sm1 1_555 1_555
O29 Sm3 1_555 1_555
O30 Sm1 1_555 1_555
O31 Sm2 1_555 1_555
O32 Sm2 1_555 1_555
O33 Sm3 1_555 1_555
O34 Sm1 1_555 1_555
O35 Sm2 1_555 1_555
O36 Sm3 1_555 1_555
O4 Sm12 1_555 1_555
O7 Sm5 1_555 1_555
C4 C5 1_555 1_555
C11 C12 1_555 1_555
C16 C17 1_555 1_555
C17 C18 1_555 1_555
O10 Sm12 1_555 1_555
O11 Sm8 1_555 1_555
C20 C25 1_555 1_555
C23 C24 1_555 1_555
C30 C31 1_555 1_555
C35 C36 1_555 1_555
C36 C37 1_555 1_555
O16 Sm8 1_555 1_555
O16 Sm10 1_555 1_555
O17 Sm10 1_555 1_555
C39 C44 1_555 1_555
C42 C43 1_555 1_555
C49 C50 1_555 1_555
C52 C57 1_555 1_555
C54 C55 1_555 1_555
C55 C56 1_555 1_555
Sm4 O26 1_555 1_555
Sm4 O36 1_555 1_555
Sm5 O28 1_555 1_555
Sm6 O25 1_555 1_555
Sm7 O24 1_555 1_555
Sm7 O35 1_555 1_555
O12_2 C38_2 1_555 1_555
O13_2 C38_2 1_555 1_555
N4_2 C34_2 1_555 1_555
H14_2 C27_2 1_555 1_555
C28_2 C27_2 1_555 1_555
C29_2 C28_2 1_555 1_555
H15_2 C29_2 1_555 1_555
C33_2 C34_2 1_555 1_555
C34_2 H17_2 1_555 1_555
C35_2 N4_2 1_555 1_555
H18_2 C35_2 1_555 1_555
C36_2 C28_2 1_555 1_555
C37_2 C33_2 1_555 1_555
H19_2 C37_2 1_555 1_555
C38_2 C33_2 1_555 1_555
Sm7 O12_2 1_555 1_555
O14_2 Sm7 1_555 1_555
O15_2 C44_2 1_555 1_555
N5_2 C40_2 1_555 1_555
C39_2 C40_2 1_555 1_555
C40_2 H20_2 1_555 1_555
C41_2 N5_2 1_555 1_555
H21_2 C41_2 1_555 1_555
C42_2 C41_2 1_555 1_555
C43_2 C39_2 1_555 1_555
H22_2 C43_2 1_555 1_555
C44_2 O14_2 1_555 1_555
C45_2 C42_2 1_555 1_555
C50_2 C45_2 1_555 1_555
H25_2 C50_2 1_555 1_555
Sm4_2 O15_2 1_555 1_555
Sm12 O13_2 1_555 1_555
O26_2 Sm7 1_555 1_555
O29_2 Sm7 1_555 1_555
O33_2 Sm7 1_555 1_555
C35_2 C36_2 1_555 1_555
C36_2 C37_2 1_555 1_555
C39_2 C44_2 1_555 1_555
C42_2 C43_2 1_555 1_555
Sm4_2 O26_2 1_555 1_555
Sm4_2 O35 1_555 1_555
O3_2 C13_2 1_555 1_555
O4_2 C13_2 1_555 1_555
H6_2 C10_2 1_555 1_555
C11_2 C10_2 1_555 1_555
C13_2 C11_2 1_555 1_555
O8_2 Sm2_2 1_555 1_555
O21 C25_2 1_555 1_555
O10_2 C32_2 1_555 1_555
O11_2 C32_2 1_555 1_555
N3_2 C21_2 1_555 1_555
C20_2 C21_2 1_555 1_555
C21_2 H11_2 1_555 1_555
C22_2 N3_2 1_555 1_555
H12_2 C22_2 1_555 1_555
C23_2 C22_2 1_555 1_555
C24_2 C20_2 1_555 1_555
H13_2 C24_2 1_555 1_555
C25_2 O8_2 1_555 1_555
C26_2 C23_2 1_555 1_555
C31_2 C26_2 1_555 1_555
H16_2 C31_2 1_555 1_555
C32_2 C30_2 1_555 1_555
O16_2 C51_2 1_555 1_555
O17_2 C51_2 1_555 1_555
C51_2 C49_2 1_555 1_555
Sm8_2 O10_2 1_555 1_555
Sm10_2 O3_2 1_555 1_555
Sm13 O3_2 1_555 1_555
O20_2 Sm2_2 1_555 1_555
O23 Sm2_2 1_555 1_555
O27_2 Sm2_2 1_555 1_555
O31_2 Sm2_2 1_555 1_555
O32_2 Sm2_2 1_555 1_555
O36 Sm2_2 1_555 1_555
O4_2 Sm13 1_555 1_555
O10_2 Sm13 1_555 1_555
O11_2 Sm8_2 1_555 1_555
C20_2 C25_2 1_555 1_555
C23_2 C24_2 1_555 1_555
C30_2 C31_2 1_555 1_555
O16_2 Sm8_2 1_555 1_555
O16_2 Sm10_2 1_555 1_555
O17_2 Sm10_2 1_555 1_555
O19_2 C57_2 1_555 1_555
N6_2 C53_2 1_555 1_555
H23_2 C46_2 1_555 1_555
C47_2 C46_2 1_555 1_555
C52_2 C53_2 1_555 1_555
C53_2 H26_2 1_555 1_555
C54_2 N6_2 1_555 1_555
H27_2 C54_2 1_555 1_555
C55_2 C47_2 1_555 1_555
C56_2 C52_2 1_555 1_555
H28_2 C56_2 1_555 1_555
C57_2 O18_2 1_555 1_555
Sm9_2 O19_2 1_555 1_555
C52_2 C57_2 1_555 1_555
C54_2 C55_2 1_555 1_555
C55_2 C56_2 1_555 1_555
Sm1_2 O1_2 1_555 1_555
O1_2 C6_2 1_555 1_555
O2_2 C6_2 1_555 1_555
O5_2 C19_2 1_555 1_555
O6_2 C19_2 1_555 1_555
O7_2 Sm1_2 1_555 1_555
H1_2 O7_2 1_555 1_555
N1_2 C2_2 1_555 1_555
N2_2 C15_2 1_555 1_555
C1_2 C2_2 1_555 1_555
C2_2 H2_2 1_555 1_555
C3_2 N1_2 1_555 1_555
H3_2 C3_2 1_555 1_555
C4_2 C3_2 1_555 1_555
C5_2 C1_2 1_555 1_555
H4_2 C5_2 1_555 1_555
C6_2 C1_2 1_555 1_555
C7_2 C4_2 1_555 1_555
C8_2 C7_2 1_555 1_555
H5_2 C8_2 1_555 1_555
C9_2 C8_2 1_555 1_555
C12_2 C7_2 1_555 1_555
H7_2 C12_2 1_555 1_555
C14_2 C15_2 1_555 1_555
C15_2 H8_2 1_555 1_555
C16_2 N2_2 1_555 1_555
H9_2 C16_2 1_555 1_555
C17_2 C9_2 1_555 1_555
C18_2 C14_2 1_555 1_555
H10_2 C18_2 1_555 1_555
C19_2 C14_2 1_555 1_555
H24_2 C48_2 1_555 1_555
Sm5_2 O2_2 1_555 1_555
Sm6_2 O7_2 1_555 1_555
Sm11_2 O6_2 1_555 1_555
O22_2 Sm1_2 1_555 1_555
O25_2 Sm1_2 1_555 1_555
O28_2 Sm1_2 1_555 1_555
O30_2 Sm1_2 1_555 1_555
O34_2 Sm1_2 1_555 1_555
O7_2 Sm5_2 1_555 1_555
C4_2 C5_2 1_555 1_555
C16_2 C17_2 1_555 1_555
C17_2 C18_2 1_555 1_555
Sm5_2 O28_2 1_555 1_555
Sm6_2 O25_2 1_555 1_555
O5_3 C19_3 1_555 1_555
O6_3 C19_3 1_555 1_555
N2_3 C15_3 1_555 1_555
H5_3 C8_3 1_555 1_555
C9_3 C8_3 1_555 1_555
C10_3 C9_3 1_555 1_555
H6_3 C10_3 1_555 1_555
C14_3 C15_3 1_555 1_555
C15_3 H8_3 1_555 1_555
C16_3 N2_3 1_555 1_555
H9_3 C16_3 1_555 1_555
C17_3 C9_3 1_555 1_555
C18_3 C14_3 1_555 1_555
H10_3 C18_3 1_555 1_555
C19_3 C14_3 1_555 1_555
Sm5 O5_3 1_555 1_555
O8_3 Sm5 1_555 1_555
O9_2 C25_3 1_555 1_555
N3_3 C21_3 1_555 1_555
C20_3 C21_3 1_555 1_555
C21_3 H11_3 1_555 1_555
C22_3 N3_3 1_555 1_555
H12_3 C22_3 1_555 1_555
C23_3 C22_3 1_555 1_555
C24_3 C20_3 1_555 1_555
H13_3 C24_3 1_555 1_555
C25_3 O8_3 1_555 1_555
C26_3 C23_3 1_555 1_555
C31_3 C26_3 1_555 1_555
H16_3 C31_3 1_555 1_555
Sm6 O9_2 1_555 1_555
Sm10 O6_3 1_555 1_555
O24_2 Sm5 1_555 1_555
O31_3 Sm5 1_555 1_555
O32_3 Sm5 1_555 1_555
C16_3 C17_3 1_555 1_555
C17_3 C18_3 1_555 1_555
C20_3 C25_3 1_555 1_555
C23_3 C24_3 1_555 1_555
Sm6 O24_2 1_555 1_555
O12_3 C38_3 1_555 1_555
O13_3 C38_3 1_555 1_555
N4_3 C34_3 1_555 1_555
H14_3 C27_3 1_555 1_555
C28_3 C27_3 1_555 1_555
C33_3 C34_3 1_555 1_555
C34_3 H17_3 1_555 1_555
C35_3 N4_3 1_555 1_555
H18_3 C35_3 1_555 1_555
C36_3 C28_3 1_555 1_555
C37_3 C33_3 1_555 1_555
H19_3 C37_3 1_555 1_555
C38_3 C33_3 1_555 1_555
Sm13_2 O13_3 1_555 1_555
C35_3 C36_3 1_555 1_555
C36_3 C37_3 1_555 1_555
Sm4_2 O1_3 1_555 1_555
O1_3 C6_3 1_555 1_555
O20 C6_3 1_555 1_555
O3_3 C13_3 1_555 1_555
O4_3 C13_3 1_555 1_555
H1_3 O35 1_555 1_555
N1_3 C2_3 1_555 1_555
C1_3 C2_3 1_555 1_555
C2_3 H2_3 1_555 1_555
C3_3 N1_3 1_555 1_555
H3_3 C3_3 1_555 1_555
C4_3 C3_3 1_555 1_555
C5_3 C1_3 1_555 1_555
H4_3 C5_3 1_555 1_555
C6_3 C1_3 1_555 1_555
C7_3 C4_3 1_555 1_555
C12_3 C7_3 1_555 1_555
H7_3 C12_3 1_555 1_555
C13_3 C11_3 1_555 1_555
O10_3 C32_3 1_555 1_555
O11_3 C32_3 1_555 1_555
C32_3 C30_3 1_555 1_555
O16_3 C51_3 1_555 1_555
O17_3 C51_3 1_555 1_555
H24_3 C48_3 1_555 1_555
C49_3 C48_3 1_555 1_555
C51_3 C49_3 1_555 1_555
Sm9_2 O10_3 1_555 1_555
Sm11 O3_3 1_555 1_555
Sm12_2 O3_3 1_555 1_555
O27 Sm4_2 1_555 1_555
O30_3 Sm4_2 1_555 1_555
O34_3 Sm4_2 1_555 1_555
O4_3 Sm12_2 1_555 1_555
C4_3 C5_3 1_555 1_555
C11_3 C12_3 1_555 1_555
O10_3 Sm12_2 1_555 1_555
O11_3 Sm9_2 1_555 1_555
O16_3 Sm9_2 1_555 1_555
O16_3 Sm11 1_555 1_555
O17_3 Sm11 1_555 1_555
H15_3 C29_3 1_555 1_555
O14_3 Sm6_2 1_555 1_555
O22_2 C44_3 1_555 1_555
O19_3 C57_3 1_555 1_555
N5_3 C40_3 1_555 1_555
N6_3 C53_3 1_555 1_555
C39_3 C40_3 1_555 1_555
C40_3 H20_3 1_555 1_555
C41_3 N5_3 1_555 1_555
H21_3 C41_3 1_555 1_555
C42_3 C41_3 1_555 1_555
C43_3 C39_3 1_555 1_555
H22_3 C43_3 1_555 1_555
C44_3 O14_3 1_555 1_555
C45_3 C42_3 1_555 1_555
C46_3 C45_3 1_555 1_555
H23_3 C46_3 1_555 1_555
C47_3 C46_3 1_555 1_555
C50_3 C45_3 1_555 1_555
H25_3 C50_3 1_555 1_555
C52_3 C53_3 1_555 1_555
C53_3 H26_3 1_555 1_555
C54_3 N6_3 1_555 1_555
H27_3 C54_3 1_555 1_555
C55_3 C47_3 1_555 1_555
C56_3 C52_3 1_555 1_555
H28_3 C56_3 1_555 1_555
C57_3 O18_3 1_555 1_555
Sm8_2 O19_3 1_555 1_555
O21_2 Sm6_2 1_555 1_555
O23_2 Sm6_2 1_555 1_555
O29_3 Sm6_2 1_555 1_555
O33_3 Sm6_2 1_555 1_555
C39_3 C44_3 1_555 1_555
C42_3 C43_3 1_555 1_555
C52_3 C57_3 1_555 1_555
C54_3 C55_3 1_555 1_555
C55_3 C56_3 1_555 1_555
Sm4 O1_4 1_555 1_555
O1_4 C6_4 1_555 1_555
O20_2 C6_4 1_555 1_555
H1_4 O36 1_555 1_555
N1_4 C2_4 1_555 1_555
C1_4 C2_4 1_555 1_555
C2_4 H2_4 1_555 1_555
C3_4 N1_4 1_555 1_555
H3_4 C3_4 1_555 1_555
C4_4 C3_4 1_555 1_555
C5_4 C1_4 1_555 1_555
H4_4 C5_4 1_555 1_555
C6_4 C1_4 1_555 1_555
C7_4 C4_4 1_555 1_555
C12_4 C7_4 1_555 1_555
H7_4 C12_4 1_555 1_555
O18_4 Sm4 1_555 1_555
O19_4 C57_4 1_555 1_555
N6_4 C53_4 1_555 1_555
H23_4 C46_4 1_555 1_555
C47_4 C46_4 1_555 1_555
C48_4 C47_4 1_555 1_555
H24_4 C48_4 1_555 1_555
C52_4 C53_4 1_555 1_555
C53_4 H26_4 1_555 1_555
C54_4 N6_4 1_555 1_555
H27_4 C54_4 1_555 1_555
C55_4 C47_4 1_555 1_555
C56_4 C52_4 1_555 1_555
H28_4 C56_4 1_555 1_555
C57_4 O18_4 1_555 1_555
Sm8 O19_4 1_555 1_555
O27_2 Sm4 1_555 1_555
O30_4 Sm4 1_555 1_555
O34_4 Sm4 1_555 1_555
C4_4 C5_4 1_555 1_555
C52_4 C57_4 1_555 1_555
C54_4 C55_4 1_555 1_555
C55_4 C56_4 1_555 1_555
O5_4 C19_4 1_555 1_555
O6_4 C19_4 1_555 1_555
N2_4 C15_4 1_555 1_555
H5_4 C8_4 1_555 1_555
C9_4 C8_4 1_555 1_555
C14_4 C15_4 1_555 1_555
C15_4 H8_4 1_555 1_555
C16_4 N2_4 1_555 1_555
H9_4 C16_4 1_555 1_555
C17_4 C9_4 1_555 1_555
C18_4 C14_4 1_555 1_555
H10_4 C18_4 1_555 1_555
C19_4 C14_4 1_555 1_555
Sm10_2 O6_4 1_555 1_555
C16_4 C17_4 1_555 1_555
C17_4 C18_4 1_555 1_555
O3_4 C13_4 1_555 1_555
O4_4 C13_4 1_555 1_555
C13_4 C11_4 1_555 1_555
O10_4 C32_4 1_555 1_555
O11_4 C32_4 1_555 1_555
H15_4 C29_4 1_555 1_555
C30_4 C29_4 1_555 1_555
C32_4 C30_4 1_555 1_555
O14_4 Sm6 1_555 1_555
O22 C44_4 1_555 1_555
O16_4 C51_4 1_555 1_555
O17_4 C51_4 1_555 1_555
N5_4 C40_4 1_555 1_555
C39_4 C40_4 1_555 1_555
C40_4 H20_4 1_555 1_555
C41_4 N5_4 1_555 1_555
H21_4 C41_4 1_555 1_555
C42_4 C41_4 1_555 1_555
C43_4 C39_4 1_555 1_555
H22_4 C43_4 1_555 1_555
C44_4 O14_4 1_555 1_555
C45_4 C42_4 1_555 1_555
C50_4 C45_4 1_555 1_555
H25_4 C50_4 1_555 1_555
C51_4 C49_4 1_555 1_555
Sm9 O10_4 1_555 1_555
Sm11_2 O3_4 1_555 1_555
Sm13_2 O3_4 1_555 1_555
O29_4 Sm6 1_555 1_555
O33_4 Sm6 1_555 1_555
O4_4 Sm13_2 1_555 1_555
O10_4 Sm13_2 1_555 1_555
O11_4 Sm9 1_555 1_555
O16_4 Sm9 1_555 1_555
O16_4 Sm11_2 1_555 1_555
O17_4 Sm11_2 1_555 1_555
C39_4 C44_4 1_555 1_555
C42_4 C43_4 1_555 1_555
C49_4 C50_4 1_555 1_555
H6_4 C10_4 1_555 1_555
O8_4 Sm5_2 1_555 1_555
O21_2 C25_4 1_555 1_555
O12_4 C38_4 1_555 1_555
O13_4 C38_4 1_555 1_555
N3_4 C21_4 1_555 1_555
N4_4 C34_4 1_555 1_555
C20_4 C21_4 1_555 1_555
C21_4 H11_4 1_555 1_555
C22_4 N3_4 1_555 1_555
H12_4 C22_4 1_555 1_555
C23_4 C22_4 1_555 1_555
C24_4 C20_4 1_555 1_555
H13_4 C24_4 1_555 1_555
C25_4 O8_4 1_555 1_555
C26_4 C23_4 1_555 1_555
C27_4 C26_4 1_555 1_555
H14_4 C27_4 1_555 1_555
C28_4 C27_4 1_555 1_555
C31_4 C26_4 1_555 1_555
H16_4 C31_4 1_555 1_555
C33_4 C34_4 1_555 1_555
C34_4 H17_4 1_555 1_555
C35_4 N4_4 1_555 1_555
H18_4 C35_4 1_555 1_555
C36_4 C28_4 1_555 1_555
C37_4 C33_4 1_555 1_555
H19_4 C37_4 1_555 1_555
C38_4 C33_4 1_555 1_555
Sm12_2 O13_4 1_555 1_555
O23_2 Sm5_2 1_555 1_555
O31_4 Sm5_2 1_555 1_555
O32_4 Sm5_2 1_555 1_555
C20_4 C25_4 1_555 1_555
C23_4 C24_4 1_555 1_555
C35_4 C36_4 1_555 1_555
C36_4 C37_4 1_555 1_555
O5_5 C19_5 1_555 1_555
O32_2 C19_5 1_555 1_555
N2_5 C15_5 1_555 1_555
H5_5 C8_5 1_555 1_555
C9_5 C8_5 1_555 1_555
C14_5 C15_5 1_555 1_555
C15_5 H8_5 1_555 1_555
C16_5 N2_5 1_555 1_555
H9_5 C16_5 1_555 1_555
C17_5 C9_5 1_555 1_555
C18_5 C14_5 1_555 1_555
H10_5 C18_5 1_555 1_555
C19_5 C14_5 1_555 1_555
C16_5 C17_5 1_555 1_555
C17_5 C18_5 1_555 1_555
O34_3 C57_5 1_555 1_555
N6_5 C53_5 1_555 1_555
H23_5 C46_5 1_555 1_555
C47_5 C46_5 1_555 1_555
C52_5 C53_5 1_555 1_555
C53_5 H26_5 1_555 1_555
C54_5 N6_5 1_555 1_555
H27_5 C54_5 1_555 1_555
C55_5 C47_5 1_555 1_555
C56_5 C52_5 1_555 1_555
H28_5 C56_5 1_555 1_555
C57_5 O18_5 1_555 1_555
C52_5 C57_5 1_555 1_555
C54_5 C55_5 1_555 1_555
C55_5 C56_5 1_555 1_555
Sm8_2 O1_5 1_555 1_555
O1_5 C6_5 1_555 1_555
O2_3 C6_5 1_555 1_555
O7_3 Sm8_2 1_555 1_555
H1_5 O7_3 1_555 1_555
N1_5 C2_5 1_555 1_555
C1_5 C2_5 1_555 1_555
C2_5 H2_5 1_555 1_555
C3_5 N1_5 1_555 1_555
H3_5 C3_5 1_555 1_555
C4_5 C3_5 1_555 1_555
C5_5 C1_5 1_555 1_555
H4_5 C5_5 1_555 1_555
C6_5 C1_5 1_555 1_555
C7_5 C4_5 1_555 1_555
C12_5 C7_5 1_555 1_555
H7_5 C12_5 1_555 1_555
H24_5 C48_5 1_555 1_555
Sm10_2 O2_3 1_555 1_555
Sm13 O7_3 1_555 1_555
O22_3 Sm8_2 1_555 1_555
O7_3 Sm10_2 1_555 1_555
C4_5 C5_5 1_555 1_555
O12_5 C38_5 1_555 1_555
O33_4 C38_5 1_555 1_555
N4_5 C34_5 1_555 1_555
H14_5 C27_5 1_555 1_555
C28_5 C27_5 1_555 1_555
C33_5 C34_5 1_555 1_555
C34_5 H17_5 1_555 1_555
C35_5 N4_5 1_555 1_555
H18_5 C35_5 1_555 1_555
C36_5 C28_5 1_555 1_555
C37_5 C33_5 1_555 1_555
H19_5 C37_5 1_555 1_555
C38_5 C33_5 1_555 1_555
C35_5 C36_5 1_555 1_555
C36_5 C37_5 1_555 1_555
H6_5 C10_5 1_555 1_555
O8_5 Sm11_2 1_555 1_555
O9_3 C25_5 1_555 1_555
N3_5 C21_5 1_555 1_555
C20_5 C21_5 1_555 1_555
C21_5 H11_5 1_555 1_555
C22_5 N3_5 1_555 1_555
H12_5 C22_5 1_555 1_555
C23_5 C22_5 1_555 1_555
C24_5 C20_5 1_555 1_555
H13_5 C24_5 1_555 1_555
C25_5 O8_5 1_555 1_555
C26_5 C23_5 1_555 1_555
C31_5 C26_5 1_555 1_555
H16_5 C31_5 1_555 1_555
Sm13_2 O9_3 1_555 1_555
O20_3 Sm11_2 1_555 1_555
O35_2 Sm11_2 1_555 1_555
C20_5 C25_5 1_555 1_555
C23_5 C24_5 1_555 1_555
Sm13_2 O35_2 1_555 1_555
H15_5 C29_5 1_555 1_555
O14_5 Sm12_2 1_555 1_555
O15_3 C44_5 1_555 1_555
N5_5 C40_5 1_555 1_555
C39_5 C40_5 1_555 1_555
C40_5 H20_5 1_555 1_555
C41_5 N5_5 1_555 1_555
H21_5 C41_5 1_555 1_555
C42_5 C41_5 1_555 1_555
C43_5 C39_5 1_555 1_555
H22_5 C43_5 1_555 1_555
C44_5 O14_5 1_555 1_555
C45_5 C42_5 1_555 1_555
C50_5 C45_5 1_555 1_555
H25_5 C50_5 1_555 1_555
Sm9_2 O15_3 1_555 1_555
O21_3 Sm12_2 1_555 1_555
O36_2 Sm12_2 1_555 1_555
C39_5 C44_5 1_555 1_555
C42_5 C43_5 1_555 1_555
Sm9_2 O36_2 1_555 1_555
O23_2 C13_5 1_555 1_555
O29_3 C13_5 1_555 1_555
C13_5 C11_5 1_555 1_555
O25_2 C32_5 1_555 1_555
O30_2 C32_5 1_555 1_555
C32_5 C30_5 1_555 1_555
O28_2 C51_5 1_555 1_555
O31_4 C51_5 1_555 1_555
C51_5 C49_5 1_555 1_555
Sm8 O1_6 1_555 1_555
O1_6 C6_6 1_555 1_555
O2_4 C6_6 1_555 1_555
O24_2 C13_6 1_555 1_555
O29_4 C13_6 1_555 1_555
O7_4 Sm8 1_555 1_555
H1_6 O7_4 1_555 1_555
N1_6 C2_6 1_555 1_555
C1_6 C2_6 1_555 1_555
C2_6 H2_6 1_555 1_555
C3_6 N1_6 1_555 1_555
H3_6 C3_6 1_555 1_555
C4_6 C3_6 1_555 1_555
C5_6 C1_6 1_555 1_555
H4_6 C5_6 1_555 1_555
C6_6 C1_6 1_555 1_555
C7_6 C4_6 1_555 1_555
C12_6 C7_6 1_555 1_555
H7_6 C12_6 1_555 1_555
C13_6 C11_6 1_555 1_555
O25 C32_6 1_555 1_555
O30 C32_6 1_555 1_555
H15_6 C29_6 1_555 1_555
C30_6 C29_6 1_555 1_555
C32_6 C30_6 1_555 1_555
O14_6 Sm13_2 1_555 1_555
O15_4 C44_6 1_555 1_555
O28 C51_6 1_555 1_555
O31_3 C51_6 1_555 1_555
O18_6 Sm8 1_555 1_555
O34_4 C57_6 1_555 1_555
N5_6 C40_6 1_555 1_555
N6_6 C53_6 1_555 1_555
C39_6 C40_6 1_555 1_555
C40_6 H20_6 1_555 1_555
C41_6 N5_6 1_555 1_555
H21_6 C41_6 1_555 1_555
C42_6 C41_6 1_555 1_555
C43_6 C39_6 1_555 1_555
H22_6 C43_6 1_555 1_555
C44_6 O14_6 1_555 1_555
C45_6 C42_6 1_555 1_555
C46_6 C45_6 1_555 1_555
H23_6 C46_6 1_555 1_555
C47_6 C46_6 1_555 1_555
C48_6 C47_6 1_555 1_555
H24_6 C48_6 1_555 1_555
C49_6 C48_6 1_555 1_555
C50_6 C45_6 1_555 1_555
H25_6 C50_6 1_555 1_555
C51_6 C49_6 1_555 1_555
C52_6 C53_6 1_555 1_555
C53_6 H26_6 1_555 1_555
C54_6 N6_6 1_555 1_555
H27_6 C54_6 1_555 1_555
C55_6 C47_6 1_555 1_555
C56_6 C52_6 1_555 1_555
H28_6 C56_6 1_555 1_555
C57_6 O18_6 1_555 1_555
Sm9 O15_4 1_555 1_555
Sm10 O2_4 1_555 1_555
Sm12 O7_4 1_555 1_555
O22_4 Sm8 1_555 1_555
O7_4 Sm10 1_555 1_555
C4_6 C5_6 1_555 1_555
C11_6 C12_6 1_555 1_555
C39_6 C44_6 1_555 1_555
C42_6 C43_6 1_555 1_555
C49_6 C50_6 1_555 1_555
C52_6 C57_6 1_555 1_555
C54_6 C55_6 1_555 1_555
C55_6 C56_6 1_555 1_555
Sm9 O35_2 1_555 1_555
O5_6 C19_6 1_555 1_555
O32 C19_6 1_555 1_555
N2_6 C15_6 1_555 1_555
H5_6 C8_6 1_555 1_555
C9_6 C8_6 1_555 1_555
C10_6 C9_6 1_555 1_555
H6_6 C10_6 1_555 1_555
C14_6 C15_6 1_555 1_555
C15_6 H8_6 1_555 1_555
C16_6 N2_6 1_555 1_555
H9_6 C16_6 1_555 1_555
C17_6 C9_6 1_555 1_555
C18_6 C14_6 1_555 1_555
H10_6 C18_6 1_555 1_555
C19_6 C14_6 1_555 1_555
Sm11 O5_6 1_555 1_555
O8_6 Sm11 1_555 1_555
O21_3 C25_6 1_555 1_555
O12_6 C38_6 1_555 1_555
O33_3 C38_6 1_555 1_555
N3_6 C21_6 1_555 1_555
N4_6 C34_6 1_555 1_555
C20_6 C21_6 1_555 1_555
C21_6 H11_6 1_555 1_555
C22_6 N3_6 1_555 1_555
H12_6 C22_6 1_555 1_555
C23_6 C22_6 1_555 1_555
C24_6 C20_6 1_555 1_555
H13_6 C24_6 1_555 1_555
C25_6 O8_6 1_555 1_555
C26_6 C23_6 1_555 1_555
C27_6 C26_6 1_555 1_555
H14_6 C27_6 1_555 1_555
C28_6 C27_6 1_555 1_555
C31_6 C26_6 1_555 1_555
H16_6 C31_6 1_555 1_555
C33_6 C34_6 1_555 1_555
C34_6 H17_6 1_555 1_555
C35_6 N4_6 1_555 1_555
H18_6 C35_6 1_555 1_555
C36_6 C28_6 1_555 1_555
C37_6 C33_6 1_555 1_555
H19_6 C37_6 1_555 1_555
C38_6 C33_6 1_555 1_555
O20_4 Sm11 1_555 1_555
O36_2 Sm11 1_555 1_555
C16_6 C17_6 1_555 1_555
C17_6 C18_6 1_555 1_555
C20_6 C25_6 1_555 1_555
C23_6 C24_6 1_555 1_555
C35_6 C36_6 1_555 1_555
C36_6 C37_6 1_555 1_555
O23 C13_7 1_555 1_555
O29 C13_7 1_555 1_555
H6_7 C10_7 1_555 1_555
C11_7 C10_7 1_555 1_555
C13_7 C11_7 1_555 1_555
O8_7 Sm10_2 1_555 1_555
O9_4 C25_7 1_555 1_555
O26 C32_7 1_555 1_555
O30_4 C32_7 1_555 1_555
O12_7 C38_7 1_555 1_555
O33_2 C38_7 1_555 1_555
N3_7 C21_7 1_555 1_555
N4_7 C34_7 1_555 1_555
C20_7 C21_7 1_555 1_555
C21_7 H11_7 1_555 1_555
C22_7 N3_7 1_555 1_555
H12_7 C22_7 1_555 1_555
C23_7 C22_7 1_555 1_555
C24_7 C20_7 1_555 1_555
H13_7 C24_7 1_555 1_555
C25_7 O8_7 1_555 1_555
C26_7 C23_7 1_555 1_555
C27_7 C26_7 1_555 1_555
H14_7 C27_7 1_555 1_555
C28_7 C27_7 1_555 1_555
C29_7 C28_7 1_555 1_555
H15_7 C29_7 1_555 1_555
C30_7 C29_7 1_555 1_555
C31_7 C26_7 1_555 1_555
H16_7 C31_7 1_555 1_555
C32_7 C30_7 1_555 1_555
C33_7 C34_7 1_555 1_555
C34_7 H17_7 1_555 1_555
C35_7 N4_7 1_555 1_555
H18_7 C35_7 1_555 1_555
C36_7 C28_7 1_555 1_555
C37_7 C33_7 1_555 1_555
H19_7 C37_7 1_555 1_555
C38_7 C33_7 1_555 1_555
Sm12 O12_7 1_555 1_555
O14_7 Sm12 1_555 1_555
O22_4 C44_7 1_555 1_555
O27_2 C51_7 1_555 1_555
O31_2 C51_7 1_555 1_555
N5_7 C40_7 1_555 1_555
C39_7 C40_7 1_555 1_555
C40_7 H20_7 1_555 1_555
C41_7 N5_7 1_555 1_555
H21_7 C41_7 1_555 1_555
C42_7 C41_7 1_555 1_555
C43_7 C39_7 1_555 1_555
H22_7 C43_7 1_555 1_555
C44_7 O14_7 1_555 1_555
C45_7 C42_7 1_555 1_555
C50_7 C45_7 1_555 1_555
H25_7 C50_7 1_555 1_555
C51_7 C49_7 1_555 1_555
Sm13 O9_4 1_555 1_555
O21_4 Sm12 1_555 1_555
C20_7 C25_7 1_555 1_555
C23_7 C24_7 1_555 1_555
C30_7 C31_7 1_555 1_555
C35_7 C36_7 1_555 1_555
C36_7 C37_7 1_555 1_555
C39_7 C44_7 1_555 1_555
C42_7 C43_7 1_555 1_555
C49_7 C50_7 1_555 1_555
Sm9 O1_7 1_555 1_555
O1_7 C6_7 1_555 1_555
O20_3 C6_7 1_555 1_555
O5_7 C19_7 1_555 1_555
O32_4 C19_7 1_555 1_555
H1_7 O35_2 1_555 1_555
N1_7 C2_7 1_555 1_555
N2_7 C15_7 1_555 1_555
C1_7 C2_7 1_555 1_555
C2_7 H2_7 1_555 1_555
C3_7 N1_7 1_555 1_555
H3_7 C3_7 1_555 1_555
C4_7 C3_7 1_555 1_555
C5_7 C1_7 1_555 1_555
H4_7 C5_7 1_555 1_555
C6_7 C1_7 1_555 1_555
C7_7 C4_7 1_555 1_555
C8_7 C7_7 1_555 1_555
H5_7 C8_7 1_555 1_555
C9_7 C8_7 1_555 1_555
C12_7 C7_7 1_555 1_555
H7_7 C12_7 1_555 1_555
C14_7 C15_7 1_555 1_555
C15_7 H8_7 1_555 1_555
C16_7 N2_7 1_555 1_555
H9_7 C16_7 1_555 1_555
C17_7 C9_7 1_555 1_555
C18_7 C14_7 1_555 1_555
H10_7 C18_7 1_555 1_555
C19_7 C14_7 1_555 1_555
O18_7 Sm9 1_555 1_555
O34 C57_7 1_555 1_555
N6_7 C53_7 1_555 1_555
H23_7 C46_7 1_555 1_555
C47_7 C46_7 1_555 1_555
C48_7 C47_7 1_555 1_555
H24_7 C48_7 1_555 1_555
C52_7 C53_7 1_555 1_555
C53_7 H26_7 1_555 1_555
C54_7 N6_7 1_555 1_555
H27_7 C54_7 1_555 1_555
C55_7 C47_7 1_555 1_555
C56_7 C52_7 1_555 1_555
H28_7 C56_7 1_555 1_555
C57_7 O18_7 1_555 1_555
C4_7 C5_7 1_555 1_555
C16_7 C17_7 1_555 1_555
C17_7 C18_7 1_555 1_555
C52_7 C57_7 1_555 1_555
C54_7 C55_7 1_555 1_555
C55_7 C56_7 1_555 1_555
Sm9_2 O1_8 1_555 1_555
O1_8 C6_8 1_555 1_555
O20_4 C6_8 1_555 1_555
O24 C13_8 1_555 1_555
O29_2 C13_8 1_555 1_555
O5_8 C19_8 1_555 1_555
O32_3 C19_8 1_555 1_555
H1_8 O36_2 1_555 1_555
N1_8 C2_8 1_555 1_555
N2_8 C15_8 1_555 1_555
C1_8 C2_8 1_555 1_555
C2_8 H2_8 1_555 1_555
C3_8 N1_8 1_555 1_555
H3_8 C3_8 1_555 1_555
C4_8 C3_8 1_555 1_555
C5_8 C1_8 1_555 1_555
H4_8 C5_8 1_555 1_555
C6_8 C1_8 1_555 1_555
C7_8 C4_8 1_555 1_555
C8_8 C7_8 1_555 1_555
H5_8 C8_8 1_555 1_555
C9_8 C8_8 1_555 1_555
C10_8 C9_8 1_555 1_555
H6_8 C10_8 1_555 1_555
C11_8 C10_8 1_555 1_555
C12_8 C7_8 1_555 1_555
H7_8 C12_8 1_555 1_555
C13_8 C11_8 1_555 1_555
C14_8 C15_8 1_555 1_555
C15_8 H8_8 1_555 1_555
C16_8 N2_8 1_555 1_555
H9_8 C16_8 1_555 1_555
C17_8 C9_8 1_555 1_555
C18_8 C14_8 1_555 1_555
H10_8 C18_8 1_555 1_555
C19_8 C14_8 1_555 1_555
Sm10 O5_8 1_555 1_555
O8_8 Sm10 1_555 1_555
O21_4 C25_8 1_555 1_555
O26_2 C32_8 1_555 1_555
O30_3 C32_8 1_555 1_555
N3_8 C21_8 1_555 1_555
C20_8 C21_8 1_555 1_555
C21_8 H11_8 1_555 1_555
C22_8 N3_8 1_555 1_555
H12_8 C22_8 1_555 1_555
C23_8 C22_8 1_555 1_555
C24_8 C20_8 1_555 1_555
H13_8 C24_8 1_555 1_555
C25_8 O8_8 1_555 1_555
C26_8 C23_8 1_555 1_555
C31_8 C26_8 1_555 1_555
H16_8 C31_8 1_555 1_555
C32_8 C30_8 1_555 1_555
O27 C51_8 1_555 1_555
O31 C51_8 1_555 1_555
H24_8 C48_8 1_555 1_555
C49_8 C48_8 1_555 1_555
C51_8 C49_8 1_555 1_555
C4_8 C5_8 1_555 1_555
C11_8 C12_8 1_555 1_555
C16_8 C17_8 1_555 1_555
C17_8 C18_8 1_555 1_555
C20_8 C25_8 1_555 1_555
C23_8 C24_8 1_555 1_555
C30_8 C31_8 1_555 1_555
O12_8 C38_8 1_555 1_555
O33 C38_8 1_555 1_555
N4_8 C34_8 1_555 1_555
H14_8 C27_8 1_555 1_555
C28_8 C27_8 1_555 1_555
C29_8 C28_8 1_555 1_555
H15_8 C29_8 1_555 1_555
C33_8 C34_8 1_555 1_555
C34_8 H17_8 1_555 1_555
C35_8 N4_8 1_555 1_555
H18_8 C35_8 1_555 1_555
C36_8 C28_8 1_555 1_555
C37_8 C33_8 1_555 1_555
H19_8 C37_8 1_555 1_555
C38_8 C33_8 1_555 1_555
Sm13 O12_8 1_555 1_555
O14_8 Sm13 1_555 1_555
O22_3 C44_8 1_555 1_555
O34_2 C57_8 1_555 1_555
N5_8 C40_8 1_555 1_555
N6_8 C53_8 1_555 1_555
C39_8 C40_8 1_555 1_555
C40_8 H20_8 1_555 1_555
C41_8 N5_8 1_555 1_555
H21_8 C41_8 1_555 1_555
C42_8 C41_8 1_555 1_555
C43_8 C39_8 1_555 1_555
H22_8 C43_8 1_555 1_555
C44_8 O14_8 1_555 1_555
C45_8 C42_8 1_555 1_555
C46_8 C45_8 1_555 1_555
H23_8 C46_8 1_555 1_555
C47_8 C46_8 1_555 1_555
C50_8 C45_8 1_555 1_555
H25_8 C50_8 1_555 1_555
C52_8 C53_8 1_555 1_555
C53_8 H26_8 1_555 1_555
C54_8 N6_8 1_555 1_555
H27_8 C54_8 1_555 1_555
C55_8 C47_8 1_555 1_555
C56_8 C52_8 1_555 1_555
H28_8 C56_8 1_555 1_555
C57_8 O18_8 1_555 1_555
C35_8 C36_8 1_555 1_555
C36_8 C37_8 1_555 1_555
C39_8 C44_8 1_555 1_555
C42_8 C43_8 1_555 1_555
C52_8 C57_8 1_555 1_555
C54_8 C55_8 1_555 1_555
C55_8 C56_8 1_555 1_555

#END
