
###############################################################################
#
# This file contains modified crystal structure data generated from the
# MOF subset of the Cambridge Structural Database (CSD) v543 
# hosted by the Cambridge Crystallographic Data Centre (CCDC).
#
# This work is licensed under the Creative Commons
# Attribution-NonCommercial-ShareAlike 4.0 International License.
# To view a copy of this license, visit
# http://creativecommons.org/licenses/by-nc-sa/4.0/
# or send a letter to
# Creative Commons, PO Box 1866, Mountain View, CA 94042, USA.
#
# CIF created using the CSD Python API on 29 September 2022
# The structure has been converted into the P1 space group
# The structure has a 3D framework
# The original CSD entry JAMDEK is in the cubic crystal system
# The original CSD entry JAMDEK is in a Sohncke space group
# The framework has been calculated to contain at least 10.0% void space
# The void calculation uses a probe of radius 1.32A, grid spacing 0.4
# The framework is charged, counterions have been retained in the structure
#
###############################################################################

data_JAMDEK
_chemical_formula_moiety         '(C456 H220 Eu24 N48 O148 4-)n'
_symmetry_cell_setting           triclinic
_symmetry_space_group_name_H-M   'P 1'
_symmetry_Int_Tables_number      1
_space_group_name_Hall           'P 1'
loop_
_symmetry_equiv_pos_site_id
_symmetry_equiv_pos_as_xyz
1 x,y,z
_cell_length_a                   26.4715(3)
_cell_length_b                   26.4715(3)
_cell_length_c                   26.4715(3)
_cell_angle_alpha                90
_cell_angle_beta                 90
_cell_angle_gamma                90
_cell_volume                     18549.6
loop_
_atom_site_label
_atom_site_type_symbol
_atom_site_fract_x
_atom_site_fract_y
_atom_site_fract_z
Eu1 Eu 0.57536(2) 0.19258(2) 0.32719(2)
O1 O 0.55568(12) 0.26411(11) 0.27710(11)
O2 O 0.50519(11) 0.32736(10) 0.29784(10)
O3 O 0.39903(9) 0.52188(9) 0.18770(11)
O4 O 0.42156(9) 0.59995(9) 0.16845(9)
O5 O 0.60470(13) 0.73433(11) 0.13238(13)
O6 O 0.67465(15) 0.74232(12) 0.09055(17)
O7 O 0.66605(9) 0.16605(9) 0.33395(9)
H1 H 0.6846 0.1845 0.3155
N1 N 0.6020(2) 0.33520(15) 0.14790(18)
N2 N 0.67752(17) 0.59193(14) 0.05367(17)
C1 C 0.55480(15) 0.33539(14) 0.22478(15)
C2 C 0.58637(19) 0.31278(16) 0.18978(18)
H2 H 0.5974 0.2792 0.1962
C3 C 0.5864(2) 0.38381(17) 0.14098(19)
H3 H 0.5974 0.4007 0.1113
C4 C 0.55636(16) 0.40999(14) 0.17334(16)
C5 C 0.53937(14) 0.38508(14) 0.21612(14)
H4 H 0.5175 0.4016 0.2393
C6 C 0.53731(15) 0.30666(15) 0.27045(14)
C7 C 0.54236(16) 0.46384(14) 0.16246(15)
C8 C 0.57781(18) 0.49528(14) 0.13962(15)
H5 H 0.6101 0.4820 0.1312
C9 C 0.56717(15) 0.54574(13) 0.12883(15)
C10 C 0.51901(14) 0.56381(13) 0.14000(14)
H6 H 0.5105 0.5977 0.1319
C11 C 0.48339(14) 0.53307(13) 0.16280(14)
C12 C 0.49492(14) 0.48311(13) 0.17359(16)
H7 H 0.4702 0.4620 0.1887
C13 C 0.43182(13) 0.55307(13) 0.17352(15)
C14 C 0.63942(15) 0.66229(14) 0.09421(16)
C15 C 0.67526(17) 0.64174(16) 0.06319(18)
H8 H 0.6994 0.6634 0.0479
C16 C 0.64304(17) 0.56219(16) 0.0742(2)
H9 H 0.6444 0.5271 0.0667
C17 C 0.60476(15) 0.57941(15) 0.10626(15)
C18 C 0.60333(15) 0.63130(14) 0.11500(15)
H10 H 0.5773 0.6453 0.1354
C19 C 0.63869(17) 0.71808(15) 0.10595(17)
Eu2 Eu 0.32719(2) 0.57536(2) 0.19258(2)
O8 O 0.27710(11) 0.55568(12) 0.26411(11)
O9 O 0.29784(10) 0.50519(11) 0.32736(10)
O10 O 0.18770(11) 0.39903(9) 0.52188(9)
O11 O 0.16845(9) 0.42156(9) 0.59995(9)
O12 O 0.13238(13) 0.60470(13) 0.73433(11)
O13 O 0.09055(17) 0.67465(15) 0.74232(12)
N3 N 0.14790(18) 0.6020(2) 0.33520(15)
N4 N 0.05367(17) 0.67752(17) 0.59193(14)
C20 C 0.22478(15) 0.55480(15) 0.33539(14)
C21 C 0.18978(18) 0.58637(19) 0.31278(16)
H11 H 0.1962 0.5974 0.2792
C22 C 0.14098(19) 0.5864(2) 0.38381(17)
H12 H 0.1113 0.5974 0.4007
C23 C 0.17334(16) 0.55636(16) 0.40999(14)
C24 C 0.21612(14) 0.53937(14) 0.38508(14)
H13 H 0.2393 0.5175 0.4016
C25 C 0.27045(14) 0.53731(15) 0.30666(15)
C26 C 0.16246(15) 0.54236(16) 0.46384(14)
C27 C 0.13962(15) 0.57781(18) 0.49528(14)
H14 H 0.1312 0.6101 0.4820
C28 C 0.12883(15) 0.56717(15) 0.54574(13)
C29 C 0.14000(14) 0.51901(14) 0.56381(13)
H15 H 0.1319 0.5105 0.5977
C30 C 0.16280(14) 0.48339(14) 0.53307(13)
C31 C 0.17359(16) 0.49492(14) 0.48311(13)
H16 H 0.1887 0.4702 0.4620
C32 C 0.17352(15) 0.43182(13) 0.55307(13)
C33 C 0.09421(16) 0.63942(15) 0.66229(14)
C34 C 0.06319(18) 0.67526(17) 0.64174(16)
H17 H 0.0479 0.6994 0.6634
C35 C 0.0742(2) 0.64304(17) 0.56219(16)
H18 H 0.0667 0.6444 0.5271
C36 C 0.10626(15) 0.60476(15) 0.57941(15)
C37 C 0.11500(15) 0.60333(15) 0.63130(14)
H19 H 0.1354 0.5773 0.6453
C38 C 0.10595(17) 0.63869(17) 0.71808(15)
Eu3 Eu 0.19258(2) 0.32719(2) 0.57536(2)
O14 O 0.26411(11) 0.27710(11) 0.55568(12)
O15 O 0.32736(10) 0.29784(10) 0.50519(11)
O16 O 0.52188(9) 0.18770(11) 0.39903(9)
O17 O 0.59995(9) 0.16845(9) 0.42156(9)
O18 O 0.73433(11) 0.13238(13) 0.60470(13)
O19 O 0.74232(12) 0.09055(17) 0.67465(15)
N5 N 0.33520(15) 0.14790(18) 0.6020(2)
N6 N 0.59193(14) 0.05367(17) 0.67752(17)
C39 C 0.33539(14) 0.22478(15) 0.55480(15)
C40 C 0.31278(16) 0.18978(18) 0.58637(19)
H20 H 0.2792 0.1962 0.5974
C41 C 0.38381(17) 0.14098(19) 0.5864(2)
H21 H 0.4007 0.1113 0.5974
C42 C 0.40999(14) 0.17334(16) 0.55636(16)
C43 C 0.38508(14) 0.21612(14) 0.53937(14)
H22 H 0.4016 0.2393 0.5175
C44 C 0.30666(15) 0.27045(14) 0.53731(15)
C45 C 0.46384(14) 0.16246(15) 0.54236(16)
C46 C 0.49528(14) 0.13962(15) 0.57781(18)
H23 H 0.4820 0.1312 0.6101
C47 C 0.54574(13) 0.12883(15) 0.56717(15)
C48 C 0.56381(13) 0.14000(14) 0.51901(14)
H24 H 0.5977 0.1319 0.5105
C49 C 0.53307(13) 0.16280(14) 0.48339(14)
C50 C 0.48311(13) 0.17359(16) 0.49492(14)
H25 H 0.4620 0.1887 0.4702
C51 C 0.55307(13) 0.17352(15) 0.43182(13)
C52 C 0.66229(14) 0.09421(16) 0.63942(15)
C53 C 0.64174(16) 0.06319(18) 0.67526(17)
H26 H 0.6634 0.0479 0.6994
C54 C 0.56219(16) 0.0742(2) 0.64304(17)
H27 H 0.5271 0.0667 0.6444
C55 C 0.57941(15) 0.10626(15) 0.60476(15)
C56 C 0.63130(14) 0.11500(15) 0.60333(15)
H28 H 0.6453 0.1354 0.5773
C57 C 0.71808(15) 0.10595(17) 0.63869(17)
Eu4 Eu 0.42464(2) 0.69258(2) 0.17281(2)
Eu5 Eu 0.17281(2) 0.42464(2) 0.69258(2)
Eu6 Eu 0.67281(2) 0.07536(2) 0.30742(2)
Eu7 Eu 0.69258(2) 0.17281(2) 0.42464(2)
Eu8 Eu 0.07536(2) 0.69258(2) 0.82719(2)
Eu9 Eu 0.42464(2) 0.30742(2) 0.32719(2)
Eu10 Eu 0.57536(2) 0.80742(2) 0.17281(2)
Eu11 Eu 0.82719(2) 0.07536(2) 0.69258(2)
Eu12 Eu 0.32719(2) 0.42464(2) 0.30742(2)
Eu13 Eu 0.17281(2) 0.57536(2) 0.80742(2)
Eu14 Eu 0.69258(2) 0.82719(2) 0.07536(2)
Eu15 Eu 0.30742(2) 0.32719(2) 0.42464(2)
Eu16 Eu 0.80742(2) 0.17281(2) 0.57536(2)
O20 O 0.49481(11) 0.17264(10) 0.29784(10)
O21 O 0.29784(10) 0.49481(11) 0.17264(10)
O22 O 0.17264(10) 0.29784(10) 0.49481(11)
O23 O 0.57844(9) 0.09995(9) 0.33155(9)
O24 O 0.33155(9) 0.57844(9) 0.09995(9)
O25 O 0.09995(9) 0.33155(9) 0.57844(9)
O26 O 0.60470(13) 0.26567(11) 0.36762(13)
O27 O 0.36762(13) 0.60470(13) 0.26567(11)
O28 O 0.26567(11) 0.36762(13) 0.60470(13)
O29 O 0.17465(15) 0.24232(12) 0.59055(17)
O30 O 0.59055(17) 0.17465(15) 0.24232(12)
O31 O 0.24232(12) 0.59055(17) 0.17465(15)
O32 O 0.33395(9) 0.66605(9) 0.16605(9)
O33 O 0.16605(9) 0.33395(9) 0.66605(9)
O10_2 O 0.31230(11) 0.60097(9) 0.02188(9)
O12_2 O 0.36762(13) 0.39530(13) 0.23433(11)
O13_2 O 0.40945(17) 0.32535(15) 0.24232(12)
N4_2 N 0.44633(17) 0.32248(17) 0.09193(14)
C28_2 C 0.37117(15) 0.43283(15) 0.04574(13)
C29_2 C 0.36000(14) 0.48099(14) 0.06381(13)
H15_2 H 0.3681 0.4895 0.0977
C30_2 C 0.33720(14) 0.51661(14) 0.03307(13)
C32_2 C 0.32648(15) 0.56818(13) 0.05307(13)
C33_2 C 0.40579(16) 0.36058(15) 0.16229(14)
C34_2 C 0.43681(18) 0.32474(17) 0.14174(16)
H17_2 H 0.4521 0.3006 0.1634
C35_2 C 0.4258(2) 0.35696(17) 0.06219(16)
H18_2 H 0.4333 0.3556 0.0271
C36_2 C 0.39374(15) 0.39524(15) 0.07941(15)
C37_2 C 0.38500(15) 0.39667(15) 0.13130(14)
H19_2 H 0.3646 0.4227 0.1453
C38_2 C 0.39405(17) 0.36131(17) 0.21808(15)
Eu3_2 Eu 0.30742(2) 0.67281(2) 0.07536(2)
O14_2 O 0.23589(11) 0.72290(11) 0.05568(12)
O15_2 O 0.17264(10) 0.70216(10) 0.00519(11)
N5_2 N 0.16480(15) 0.85210(18) 0.1020(2)
C39_2 C 0.16461(14) 0.77522(15) 0.05480(15)
C40_2 C 0.18722(16) 0.81022(18) 0.08637(19)
H20_2 H 0.2208 0.8038 0.0974
C41_2 C 0.11619(17) 0.85902(19) 0.0864(2)
H21_2 H 0.0993 0.8887 0.0974
C42_2 C 0.09001(14) 0.82666(16) 0.05636(16)
C43_2 C 0.11492(14) 0.78388(14) 0.03937(14)
H22_2 H 0.0984 0.7607 0.0175
C44_2 C 0.19334(15) 0.72955(14) 0.03731(15)
C45_2 C 0.03616(14) 0.83754(15) 0.04236(16)
C46_2 C 0.00472(14) 0.86038(15) 0.07781(18)
H23_2 H 0.0180 0.8688 0.1101
O25_2 O 0.40005(9) 0.66845(9) 0.07844(9)
O28_2 O 0.23433(11) 0.63238(13) 0.10470(13)
O29_2 O 0.32535(15) 0.75768(12) 0.09055(17)
O3_2 O 0.10097(9) 0.47812(9) 0.68770(11)
O4_2 O 0.07844(9) 0.40005(9) 0.66845(9)
C11_2 C 0.01661(14) 0.46693(13) 0.66280(14)
C12_2 C 0.00508(14) 0.51689(13) 0.67359(16)
H7_2 H 0.0298 0.5380 0.6887
C13_2 C 0.06818(13) 0.44693(13) 0.67352(15)
O8_2 O 0.22290(11) 0.44432(12) 0.76411(11)
O9_2 O 0.20216(10) 0.49481(11) 0.82736(10)
N3_2 N 0.35210(18) 0.3980(2) 0.83520(15)
C20_2 C 0.27522(15) 0.44520(15) 0.83539(14)
C21_2 C 0.31022(18) 0.41363(19) 0.81278(16)
H11_2 H 0.3038 0.4026 0.7792
C22_2 C 0.35902(19) 0.4136(2) 0.88381(17)
H12_2 H 0.3887 0.4026 0.9007
C23_2 C 0.32666(16) 0.44364(16) 0.90999(14)
C24_2 C 0.28388(14) 0.46063(14) 0.88508(14)
H13_2 H 0.2607 0.4825 0.9016
C25_2 C 0.22955(14) 0.46269(15) 0.80666(15)
C26_2 C 0.33754(15) 0.45764(16) 0.96384(14)
C27_2 C 0.36038(15) 0.42219(18) 0.99528(14)
H14_2 H 0.3688 0.3899 0.9820
C31_2 C 0.32641(16) 0.50508(14) 0.98311(13)
H16_2 H 0.3113 0.5298 0.9620
C50_2 C 0.01689(13) 0.82641(16) 0.99492(14)
H25_2 H 0.0380 0.8113 0.9702
Eu4_2 Eu 0.07536(2) 0.30742(2) 0.67281(2)
Eu15_2 Eu 0.19258(2) 0.67281(2) 0.92464(2)
O20_2 O 0.00519(11) 0.82736(10) 0.79784(10)
O21_2 O 0.20216(10) 0.50519(11) 0.67264(10)
O22_2 O 0.32736(10) 0.70216(10) 0.99481(11)
O27_2 O 0.13238(13) 0.39530(13) 0.76567(11)
O31_2 O 0.25768(12) 0.40945(17) 0.67465(15)
O18_2 O 0.76567(11) 0.86762(13) 0.10470(13)
O19_2 O 0.75768(12) 0.90945(17) 0.17465(15)
N6_2 N 0.90807(14) 0.94633(17) 0.17752(17)
C47_2 C 0.95426(13) 0.87117(15) 0.06717(15)
C48_2 C 0.93619(13) 0.86000(14) 0.01901(14)
H24_2 H 0.9023 0.8681 0.0105
C52_2 C 0.83771(14) 0.90579(16) 0.13942(15)
C53_2 C 0.85826(16) 0.93681(18) 0.17526(17)
H26_2 H 0.8366 0.9521 0.1994
C54_2 C 0.93781(16) 0.9258(2) 0.14304(17)
H27_2 H 0.9729 0.9333 0.1444
C55_2 C 0.92059(15) 0.89374(15) 0.10476(15)
C56_2 C 0.86870(14) 0.88500(15) 0.10333(15)
H28_2 H 0.8547 0.8646 0.0773
C57_2 C 0.78192(15) 0.89405(17) 0.13869(17)
Eu11_2 Eu 0.67281(2) 0.92464(2) 0.19258(2)
Eu1_2 Eu 0.92464(2) 0.80742(2) 0.82719(2)
O1_2 O 0.94432(12) 0.73589(11) 0.77710(11)
O2_2 O 0.99481(11) 0.67264(10) 0.79784(10)
O5_2 O 0.89530(13) 0.26567(11) 0.63238(13)
O6_2 O 0.82535(15) 0.25768(12) 0.59055(17)
O7_2 O 0.83395(9) 0.83395(9) 0.83395(9)
H1_2 H 0.8154 0.8155 0.8155
N1_2 N 0.8980(2) 0.66480(15) 0.64790(18)
N2_2 N 0.82248(17) 0.40807(14) 0.55367(17)
C1_2 C 0.94520(15) 0.66461(14) 0.72478(15)
C2_2 C 0.91363(19) 0.68722(16) 0.68978(18)
H2_2 H 0.9026 0.7208 0.6962
C3_2 C 0.9136(2) 0.61619(17) 0.64098(19)
H3_2 H 0.9026 0.5993 0.6113
C4_2 C 0.94364(16) 0.59001(14) 0.67334(16)
C5_2 C 0.96063(14) 0.61492(14) 0.71612(14)
H4_2 H 0.9825 0.5984 0.7393
C6_2 C 0.96269(15) 0.69334(15) 0.77045(14)
C7_2 C 0.95764(16) 0.53616(14) 0.66246(15)
C8_2 C 0.92219(18) 0.50472(14) 0.63962(15)
H5_2 H 0.8899 0.5180 0.6312
C9_2 C 0.93283(15) 0.45426(13) 0.62883(15)
C10_2 C 0.98099(14) 0.43619(13) 0.64000(14)
H6_2 H 0.9895 0.4023 0.6319
C14_2 C 0.86058(15) 0.33771(14) 0.59421(16)
C15_2 C 0.82474(17) 0.35826(16) 0.56319(18)
H8_2 H 0.8006 0.3366 0.5479
C16_2 C 0.85696(17) 0.43781(16) 0.5742(2)
H9_2 H 0.8556 0.4729 0.5667
C17_2 C 0.89524(15) 0.42059(15) 0.60626(15)
C18_2 C 0.89667(15) 0.36870(14) 0.61500(15)
H10_2 H 0.9227 0.3547 0.6354
C19_2 C 0.86131(17) 0.28192(15) 0.60595(17)
O16_2 O 0.97812(9) 0.81230(11) 0.89903(9)
O17_2 O 0.90005(9) 0.83155(9) 0.92156(9)
C49_2 C 0.96693(13) 0.83720(14) 0.98339(14)
C51_2 C 0.94693(13) 0.82648(15) 0.93182(13)
Eu6_2 Eu 0.82719(2) 0.92464(2) 0.80742(2)
Eu7_2 Eu 0.80742(2) 0.82719(2) 0.92464(2)
Eu10_2 Eu 0.92464(2) 0.19258(2) 0.67281(2)
O23_2 O 0.92156(9) 0.90005(9) 0.83155(9)
O26_2 O 0.89530(13) 0.73433(11) 0.86762(13)
O30_2 O 0.90945(17) 0.82535(15) 0.74232(12)
O3_3 O 0.60097(9) 0.02188(9) 0.31230(11)
O5_3 O 0.39530(13) 0.23433(11) 0.36762(13)
O6_3 O 0.32535(15) 0.24232(12) 0.40945(17)
N2_3 N 0.32248(17) 0.09193(14) 0.44633(17)
C9_3 C 0.43283(15) 0.04574(13) 0.37117(15)
C10_3 C 0.48099(14) 0.06381(13) 0.36000(14)
H6_3 H 0.4895 0.0977 0.3681
C11_3 C 0.51661(14) 0.03307(13) 0.33720(14)
C13_3 C 0.56818(13) 0.05307(13) 0.32648(15)
C14_3 C 0.36058(15) 0.16229(14) 0.40579(16)
C15_3 C 0.32474(17) 0.14174(16) 0.43681(18)
H8_3 H 0.3006 0.1634 0.4521
C16_3 C 0.35696(17) 0.06219(16) 0.4258(2)
H9_3 H 0.3556 0.0271 0.4333
C17_3 C 0.39524(15) 0.07941(15) 0.39374(15)
C18_3 C 0.39667(15) 0.13130(14) 0.38500(15)
H10_3 H 0.4227 0.1453 0.3646
C19_3 C 0.36131(17) 0.21808(15) 0.39405(17)
O8_3 O 0.72290(11) 0.05568(12) 0.23589(11)
O9_3 O 0.70216(10) 0.00519(11) 0.17264(10)
N3_3 N 0.85210(18) 0.1020(2) 0.16480(15)
C20_3 C 0.77522(15) 0.05480(15) 0.16461(14)
C21_3 C 0.81022(18) 0.08637(19) 0.18722(16)
H11_3 H 0.8038 0.0974 0.2208
C22_3 C 0.85902(19) 0.0864(2) 0.11619(17)
H12_3 H 0.8887 0.0974 0.0993
C23_3 C 0.82666(16) 0.05636(16) 0.09001(14)
C24_3 C 0.78388(14) 0.03937(14) 0.11492(14)
H13_3 H 0.7607 0.0175 0.0984
C25_3 C 0.72955(14) 0.03731(15) 0.19334(15)
C26_3 C 0.83754(15) 0.04236(16) 0.03616(14)
C27_3 C 0.86038(15) 0.07781(18) 0.00472(14)
H14_3 H 0.8688 0.1101 0.0180
O24_2 O 0.66845(9) 0.07844(9) 0.40005(9)
O27_3 O 0.63238(13) 0.10470(13) 0.23433(11)
O31_3 O 0.75768(12) 0.09055(17) 0.32535(15)
O12_3 O 0.86762(13) 0.10470(13) 0.76567(11)
O13_3 O 0.90945(17) 0.17465(15) 0.75768(12)
N4_3 N 0.94633(17) 0.17752(17) 0.90807(14)
C28_3 C 0.87117(15) 0.06717(15) 0.95426(13)
C29_3 C 0.86000(14) 0.01901(14) 0.93619(13)
H15_3 H 0.8681 0.0105 0.9023
C33_3 C 0.90579(16) 0.13942(15) 0.83771(14)
C34_3 C 0.93681(18) 0.17526(17) 0.85826(16)
H17_3 H 0.9521 0.1994 0.8366
C35_3 C 0.9258(2) 0.14304(17) 0.93781(16)
H18_3 H 0.9333 0.1444 0.9729
C36_3 C 0.89374(15) 0.10476(15) 0.92059(15)
C37_3 C 0.88500(15) 0.10333(15) 0.86870(14)
H19_3 H 0.8646 0.0773 0.8547
C38_3 C 0.89405(17) 0.13869(17) 0.78192(15)
O1_3 O 0.44432(12) 0.76411(11) 0.22290(11)
O2_3 O 0.49481(11) 0.82736(10) 0.20216(10)
H1_3 H 0.3154 0.6845 0.1845
N1_3 N 0.3980(2) 0.83520(15) 0.35210(18)
C1_3 C 0.44520(15) 0.83539(14) 0.27522(15)
C2_3 C 0.41363(19) 0.81278(16) 0.31022(18)
H2_3 H 0.4026 0.7792 0.3038
C3_3 C 0.4136(2) 0.88381(17) 0.35902(19)
H3_3 H 0.4026 0.9007 0.3887
C4_3 C 0.44364(16) 0.90999(14) 0.32666(16)
C5_3 C 0.46063(14) 0.88508(14) 0.28388(14)
H4_3 H 0.4825 0.9016 0.2607
C6_3 C 0.46269(15) 0.80666(15) 0.22955(14)
C7_3 C 0.45764(16) 0.96384(14) 0.33754(15)
C8_3 C 0.42219(18) 0.99528(14) 0.36038(15)
H5_3 H 0.3899 0.9820 0.3688
C12_3 C 0.50508(14) 0.98311(13) 0.32641(16)
H7_3 H 0.5298 0.9620 0.3113
C31_3 C 0.82641(16) 0.99492(14) 0.01689(13)
H16_3 H 0.8113 0.9702 0.0380
O16_3 O 0.47812(9) 0.68770(11) 0.10097(9)
C49_3 C 0.46693(13) 0.66280(14) 0.01661(14)
C50_3 C 0.51689(13) 0.67359(16) 0.00508(14)
H25_3 H 0.5380 0.6887 0.0298
C51_3 C 0.44693(13) 0.67352(15) 0.06818(13)
O20_3 O 0.50519(11) 0.67264(10) 0.20216(10)
O21_3 O 0.70216(10) 0.99481(11) 0.32736(10)
O22_3 O 0.82736(10) 0.79784(10) 0.00519(11)
O26_3 O 0.39530(13) 0.76567(11) 0.13238(13)
O30_3 O 0.40945(17) 0.67465(15) 0.25768(12)
O10_3 O 0.81230(11) 0.89903(9) 0.97812(9)
O11_2 O 0.83155(9) 0.92156(9) 0.90005(9)
C30_3 C 0.83720(14) 0.98339(14) 0.96693(13)
C32_3 C 0.82648(15) 0.93182(13) 0.94693(13)
O14_3 O 0.73589(11) 0.77710(11) 0.94432(12)
O15_3 O 0.67264(10) 0.79784(10) 0.99481(11)
O18_3 O 0.26567(11) 0.63238(13) 0.89530(13)
O19_3 O 0.25768(12) 0.59055(17) 0.82535(15)
N5_3 N 0.66480(15) 0.64790(18) 0.8980(2)
N6_3 N 0.40807(14) 0.55367(17) 0.82248(17)
C39_3 C 0.66461(14) 0.72478(15) 0.94520(15)
C40_3 C 0.68722(16) 0.68978(18) 0.91363(19)
H20_3 H 0.7208 0.6962 0.9026
C41_3 C 0.61619(17) 0.64098(19) 0.9136(2)
H21_3 H 0.5993 0.6113 0.9026
C42_3 C 0.59001(14) 0.67334(16) 0.94364(16)
C43_3 C 0.61492(14) 0.71612(14) 0.96063(14)
H22_3 H 0.5984 0.7393 0.9825
C44_3 C 0.69334(15) 0.77045(14) 0.96269(15)
C45_3 C 0.53616(14) 0.66246(15) 0.95764(16)
C46_3 C 0.50472(14) 0.63962(15) 0.92219(18)
H23_3 H 0.5180 0.6312 0.8899
C47_3 C 0.45426(13) 0.62883(15) 0.93283(15)
C48_3 C 0.43619(13) 0.64000(14) 0.98099(14)
H24_3 H 0.4023 0.6319 0.9895
C52_3 C 0.33771(14) 0.59421(16) 0.86058(15)
C53_3 C 0.35826(16) 0.56319(18) 0.82474(17)
H26_3 H 0.3366 0.5479 0.8006
C54_3 C 0.43781(16) 0.5742(2) 0.85696(17)
H27_3 H 0.4729 0.5667 0.8556
C55_3 C 0.42059(15) 0.60626(15) 0.89524(15)
C56_3 C 0.36870(14) 0.61500(15) 0.89667(15)
H28_3 H 0.3547 0.6354 0.9227
C57_3 C 0.28192(15) 0.60595(17) 0.86131(17)
O28_3 O 0.73433(11) 0.86762(13) 0.89530(13)
O29_3 O 0.82535(15) 0.74232(12) 0.90945(17)
O1_4 O 0.05568(12) 0.23589(11) 0.72290(11)
O2_4 O 0.00519(11) 0.17264(10) 0.70216(10)
H1_4 H 0.1846 0.3155 0.6845
N1_4 N 0.1020(2) 0.16480(15) 0.85210(18)
C1_4 C 0.05480(15) 0.16461(14) 0.77522(15)
C2_4 C 0.08637(19) 0.18722(16) 0.81022(18)
H2_4 H 0.0974 0.2208 0.8038
C3_4 C 0.0864(2) 0.11619(17) 0.85902(19)
H3_4 H 0.0974 0.0993 0.8887
C4_4 C 0.05636(16) 0.09001(14) 0.82666(16)
C5_4 C 0.03937(14) 0.11492(14) 0.78388(14)
H4_4 H 0.0175 0.0984 0.7607
C6_4 C 0.03731(15) 0.19334(15) 0.72955(14)
C7_4 C 0.04236(16) 0.03616(14) 0.83754(15)
C8_4 C 0.07781(18) 0.00472(14) 0.86038(15)
H5_4 H 0.1101 0.0180 0.8688
O16_4 O 0.02188(9) 0.31230(11) 0.60097(9)
O18_4 O 0.23433(11) 0.36762(13) 0.39530(13)
O19_4 O 0.24232(12) 0.40945(17) 0.32535(15)
N6_4 N 0.09193(14) 0.44633(17) 0.32248(17)
C47_4 C 0.04574(13) 0.37117(15) 0.43283(15)
C48_4 C 0.06381(13) 0.36000(14) 0.48099(14)
H24_4 H 0.0977 0.3681 0.4895
C49_4 C 0.03307(13) 0.33720(14) 0.51661(14)
C51_4 C 0.05307(13) 0.32648(15) 0.56818(13)
C52_4 C 0.16229(14) 0.40579(16) 0.36058(15)
C53_4 C 0.14174(16) 0.43681(18) 0.32474(17)
H26_4 H 0.1634 0.4521 0.3006
C54_4 C 0.06219(16) 0.4258(2) 0.35696(17)
H27_4 H 0.0271 0.4333 0.3556
C55_4 C 0.07941(15) 0.39374(15) 0.39524(15)
C56_4 C 0.13130(14) 0.38500(15) 0.39667(15)
H28_4 H 0.1453 0.3646 0.4227
C57_4 C 0.21808(15) 0.39405(17) 0.36131(17)
O26_4 O 0.10470(13) 0.23433(11) 0.63238(13)
O30_4 O 0.09055(17) 0.32535(15) 0.75768(12)
O5_4 O 0.10470(13) 0.76567(11) 0.86762(13)
O6_4 O 0.17465(15) 0.75768(12) 0.90945(17)
N2_4 N 0.17752(17) 0.90807(14) 0.94633(17)
C9_4 C 0.06717(15) 0.95426(13) 0.87117(15)
C10_4 C 0.01901(14) 0.93619(13) 0.86000(14)
H6_4 H 0.0105 0.9023 0.8681
C14_4 C 0.13942(15) 0.83771(14) 0.90579(16)
C15_4 C 0.17526(17) 0.85826(16) 0.93681(18)
H8_4 H 0.1994 0.8366 0.9521
C16_4 C 0.14304(17) 0.93781(16) 0.9258(2)
H9_4 H 0.1444 0.9729 0.9333
C17_4 C 0.10476(15) 0.92059(15) 0.89374(15)
C18_4 C 0.10333(15) 0.86870(14) 0.88500(15)
H10_4 H 0.0773 0.8547 0.8646
C19_4 C 0.13869(17) 0.78192(15) 0.89405(17)
C12_4 C 0.99492(14) 0.01689(13) 0.82641(16)
H7_4 H 0.9702 0.0380 0.8113
O10_4 O 0.68770(11) 0.10097(9) 0.47812(9)
C30_4 C 0.66280(14) 0.01661(14) 0.46693(13)
C31_4 C 0.67359(16) 0.00508(14) 0.51689(13)
H16_4 H 0.6887 0.0298 0.5380
C32_4 C 0.67352(15) 0.06818(13) 0.44693(13)
O14_4 O 0.76411(11) 0.22290(11) 0.44432(12)
O15_4 O 0.82736(10) 0.20216(10) 0.49481(11)
N5_4 N 0.83520(15) 0.35210(18) 0.3980(2)
C39_4 C 0.83539(14) 0.27522(15) 0.44520(15)
C40_4 C 0.81278(16) 0.31022(18) 0.41363(19)
H20_4 H 0.7792 0.3038 0.4026
C41_4 C 0.88381(17) 0.35902(19) 0.4136(2)
H21_4 H 0.9007 0.3887 0.4026
C42_4 C 0.90999(14) 0.32666(16) 0.44364(16)
C43_4 C 0.88508(14) 0.28388(14) 0.46063(14)
H22_4 H 0.9016 0.2607 0.4825
C44_4 C 0.80666(15) 0.22955(14) 0.46269(15)
C45_4 C 0.96384(14) 0.33754(15) 0.45764(16)
C46_4 C 0.99528(14) 0.36038(15) 0.42219(18)
H23_4 H 0.9820 0.3688 0.3899
C50_4 C 0.98311(13) 0.32641(16) 0.50508(14)
H25_4 H 0.9620 0.3113 0.5298
O20_4 O 0.99481(11) 0.32736(10) 0.70216(10)
O21_4 O 0.79784(10) 0.00519(11) 0.82736(10)
O22_4 O 0.67264(10) 0.20216(10) 0.50519(11)
O28_4 O 0.76567(11) 0.13238(13) 0.39530(13)
O29_4 O 0.67465(15) 0.25768(12) 0.40945(17)
O3_4 O 0.89903(9) 0.97812(9) 0.81230(11)
C11_4 C 0.98339(14) 0.96693(13) 0.83720(14)
C13_4 C 0.93182(13) 0.94693(13) 0.82648(15)
O8_4 O 0.77710(11) 0.94432(12) 0.73589(11)
O9_4 O 0.79784(10) 0.99481(11) 0.67264(10)
O12_4 O 0.63238(13) 0.89530(13) 0.26567(11)
O13_4 O 0.59055(17) 0.82535(15) 0.25768(12)
N3_4 N 0.64790(18) 0.8980(2) 0.66480(15)
N4_4 N 0.55367(17) 0.82248(17) 0.40807(14)
C20_4 C 0.72478(15) 0.94520(15) 0.66461(14)
C21_4 C 0.68978(18) 0.91363(19) 0.68722(16)
H11_4 H 0.6962 0.9026 0.7208
C22_4 C 0.64098(19) 0.9136(2) 0.61619(17)
H12_4 H 0.6113 0.9026 0.5993
C23_4 C 0.67334(16) 0.94364(16) 0.59001(14)
C24_4 C 0.71612(14) 0.96063(14) 0.61492(14)
H13_4 H 0.7393 0.9825 0.5984
C25_4 C 0.77045(14) 0.96269(15) 0.69334(15)
C26_4 C 0.66246(15) 0.95764(16) 0.53616(14)
C27_4 C 0.63962(15) 0.92219(18) 0.50472(14)
H14_4 H 0.6312 0.8899 0.5180
C28_4 C 0.62883(15) 0.93283(15) 0.45426(13)
C29_4 C 0.64000(14) 0.98099(14) 0.43619(13)
H15_4 H 0.6319 0.9895 0.4023
C33_4 C 0.59421(16) 0.86058(15) 0.33771(14)
C34_4 C 0.56319(18) 0.82474(17) 0.35826(16)
H17_4 H 0.5479 0.8006 0.3366
C35_4 C 0.5742(2) 0.85696(17) 0.43781(16)
H18_4 H 0.5667 0.8556 0.4729
C36_4 C 0.60626(15) 0.89524(15) 0.42059(15)
C37_4 C 0.61500(15) 0.89667(15) 0.36870(14)
H19_4 H 0.6354 0.9227 0.3547
C38_4 C 0.60595(17) 0.86131(17) 0.28192(15)
O27_4 O 0.86762(13) 0.89530(13) 0.73433(11)
O31_4 O 0.74232(12) 0.90945(17) 0.82535(15)
N2_5 N 0.17752(17) 0.09193(14) 0.55367(17)
C9_5 C 0.06717(15) 0.04574(13) 0.62883(15)
C10_5 C 0.01901(14) 0.06381(13) 0.64000(14)
H6_5 H 0.0105 0.0977 0.6319
C14_5 C 0.13942(15) 0.16229(14) 0.59421(16)
C15_5 C 0.17526(17) 0.14174(16) 0.56319(18)
H8_5 H 0.1994 0.1634 0.5479
C16_5 C 0.14304(17) 0.06219(16) 0.5742(2)
H9_5 H 0.1444 0.0271 0.5667
C17_5 C 0.10476(15) 0.07941(15) 0.60626(15)
C18_5 C 0.10333(15) 0.13130(14) 0.61500(15)
H10_5 H 0.0773 0.1453 0.6354
C19_5 C 0.13869(17) 0.21808(15) 0.60595(17)
N6_5 N 0.09193(14) 0.55367(17) 0.17752(17)
C47_5 C 0.04574(13) 0.62883(15) 0.06717(15)
C48_5 C 0.06381(13) 0.64000(14) 0.01901(14)
H24_5 H 0.0977 0.6319 0.0105
C52_5 C 0.16229(14) 0.59421(16) 0.13942(15)
C53_5 C 0.14174(16) 0.56319(18) 0.17526(17)
H26_5 H 0.1634 0.5479 0.1994
C54_5 C 0.06219(16) 0.5742(2) 0.14304(17)
H27_5 H 0.0271 0.5667 0.1444
C55_5 C 0.07941(15) 0.60626(15) 0.10476(15)
C56_5 C 0.13130(14) 0.61500(15) 0.10333(15)
H28_5 H 0.1453 0.6354 0.0773
C57_5 C 0.21808(15) 0.60595(17) 0.13869(17)
O1_5 O 0.05568(12) 0.76411(11) 0.77710(11)
O7_3 O 0.16605(9) 0.66605(9) 0.83395(9)
H1_5 H 0.1846 0.6845 0.8155
N1_5 N 0.1020(2) 0.83520(15) 0.64790(18)
C1_5 C 0.05480(15) 0.83539(14) 0.72478(15)
C2_5 C 0.08637(19) 0.81278(16) 0.68978(18)
H2_5 H 0.0974 0.7792 0.6962
C3_5 C 0.0864(2) 0.88381(17) 0.64098(19)
H3_5 H 0.0974 0.9007 0.6113
C4_5 C 0.05636(16) 0.90999(14) 0.67334(16)
C5_5 C 0.03937(14) 0.88508(14) 0.71612(14)
H4_5 H 0.0175 0.9016 0.7393
C6_5 C 0.03731(15) 0.80666(15) 0.77045(14)
C7_5 C 0.04236(16) 0.96384(14) 0.66246(15)
C8_5 C 0.07781(18) 0.99528(14) 0.63962(15)
H5_5 H 0.1101 0.9820 0.6312
O16_5 O 0.02188(9) 0.68770(11) 0.89903(9)
O17_3 O 0.09995(9) 0.66845(9) 0.92156(9)
C49_5 C 0.03307(13) 0.66280(14) 0.98339(14)
C51_5 C 0.05307(13) 0.67352(15) 0.93182(13)
O23_3 O 0.07844(9) 0.59995(9) 0.83155(9)
N4_5 N 0.55367(17) 0.17752(17) 0.09193(14)
C28_5 C 0.62883(15) 0.06717(15) 0.04574(13)
C29_5 C 0.64000(14) 0.01901(14) 0.06381(13)
H15_5 H 0.6319 0.0105 0.0977
C33_5 C 0.59421(16) 0.13942(15) 0.16229(14)
C34_5 C 0.56319(18) 0.17526(17) 0.14174(16)
H17_5 H 0.5479 0.1994 0.1634
C35_5 C 0.5742(2) 0.14304(17) 0.06219(16)
H18_5 H 0.5667 0.1444 0.0271
C36_5 C 0.60626(15) 0.10476(15) 0.07941(15)
C37_5 C 0.61500(15) 0.10333(15) 0.13130(14)
H19_5 H 0.6354 0.0773 0.1453
C38_5 C 0.60595(17) 0.13869(17) 0.21808(15)
O3_5 O 0.89903(9) 0.02188(9) 0.68770(11)
O4_3 O 0.92156(9) 0.09995(9) 0.66845(9)
C11_5 C 0.98339(14) 0.03307(13) 0.66280(14)
C13_5 C 0.93182(13) 0.05307(13) 0.67352(15)
O8_5 O 0.77710(11) 0.05568(12) 0.76411(11)
N3_5 N 0.64790(18) 0.1020(2) 0.83520(15)
C20_5 C 0.72478(15) 0.05480(15) 0.83539(14)
C21_5 C 0.68978(18) 0.08637(19) 0.81278(16)
H11_5 H 0.6962 0.0974 0.7792
C22_5 C 0.64098(19) 0.0864(2) 0.88381(17)
H12_5 H 0.6113 0.0974 0.9007
C23_5 C 0.67334(16) 0.05636(16) 0.90999(14)
C24_5 C 0.71612(14) 0.03937(14) 0.88508(14)
H13_5 H 0.7393 0.0175 0.9016
C25_5 C 0.77045(14) 0.03731(15) 0.80666(15)
C26_5 C 0.66246(15) 0.04236(16) 0.96384(14)
C27_5 C 0.63962(15) 0.07781(18) 0.99528(14)
H14_5 H 0.6312 0.1101 0.9820
O24_3 O 0.83155(9) 0.07844(9) 0.59995(9)
O32_2 O 0.83395(9) 0.16605(9) 0.66605(9)
O10_5 O 0.68770(11) 0.89903(9) 0.02188(9)
O11_3 O 0.66845(9) 0.92156(9) 0.09995(9)
C30_5 C 0.66280(14) 0.98339(14) 0.03307(13)
C32_5 C 0.67352(15) 0.93182(13) 0.05307(13)
O14_5 O 0.76411(11) 0.77710(11) 0.05568(12)
N5_5 N 0.83520(15) 0.64790(18) 0.1020(2)
C39_5 C 0.83539(14) 0.72478(15) 0.05480(15)
C40_5 C 0.81278(16) 0.68978(18) 0.08637(19)
H20_5 H 0.7792 0.6962 0.0974
C41_5 C 0.88381(17) 0.64098(19) 0.0864(2)
H21_5 H 0.9007 0.6113 0.0974
C42_5 C 0.90999(14) 0.67334(16) 0.05636(16)
C43_5 C 0.88508(14) 0.71612(14) 0.03937(14)
H22_5 H 0.9016 0.7393 0.0175
C44_5 C 0.80666(15) 0.77045(14) 0.03731(15)
C45_5 C 0.96384(14) 0.66246(15) 0.04236(16)
C46_5 C 0.99528(14) 0.63962(15) 0.07781(18)
H23_5 H 0.9820 0.6312 0.1101
O25_3 O 0.59995(9) 0.83155(9) 0.07844(9)
O33_2 O 0.66605(9) 0.83395(9) 0.16605(9)
C12_5 C 0.99492(14) 0.98311(13) 0.67359(16)
H7_5 H 0.9702 0.9620 0.6887
C31_5 C 0.67359(16) 0.99492(14) 0.98311(13)
H16_5 H 0.6887 0.9702 0.9620
C50_5 C 0.98311(13) 0.67359(16) 0.99492(14)
H25_5 H 0.9620 0.6887 0.9702
O1_6 O 0.44432(12) 0.23589(11) 0.27710(11)
O7_4 O 0.33395(9) 0.33395(9) 0.33395(9)
H1_6 H 0.3154 0.3155 0.3155
N1_6 N 0.3980(2) 0.16480(15) 0.14790(18)
C1_6 C 0.44520(15) 0.16461(14) 0.22478(15)
C2_6 C 0.41363(19) 0.18722(16) 0.18978(18)
H2_6 H 0.4026 0.2208 0.1962
C3_6 C 0.4136(2) 0.11619(17) 0.14098(19)
H3_6 H 0.4026 0.0993 0.1113
C4_6 C 0.44364(16) 0.09001(14) 0.17334(16)
C5_6 C 0.46063(14) 0.11492(14) 0.21612(14)
H4_6 H 0.4825 0.0984 0.2393
C6_6 C 0.46269(15) 0.19334(15) 0.27045(14)
C7_6 C 0.45764(16) 0.03616(14) 0.16246(15)
C8_6 C 0.42219(18) 0.00472(14) 0.13962(15)
H5_6 H 0.3899 0.0180 0.1312
C12_6 C 0.50508(14) 0.01689(13) 0.17359(16)
H7_6 H 0.5298 0.0380 0.1887
O10_6 O 0.81230(11) 0.10097(9) 0.52188(9)
C30_6 C 0.83720(14) 0.01661(14) 0.53307(13)
C31_6 C 0.82641(16) 0.00508(14) 0.48311(13)
H16_6 H 0.8113 0.0298 0.4620
C32_6 C 0.82648(15) 0.06818(13) 0.55307(13)
O14_6 O 0.73589(11) 0.22290(11) 0.55568(12)
O16_6 O 0.47812(9) 0.31230(11) 0.39903(9)
O17_4 O 0.40005(9) 0.33155(9) 0.42156(9)
N5_6 N 0.66480(15) 0.35210(18) 0.6020(2)
N6_6 N 0.40807(14) 0.44633(17) 0.67752(17)
C39_6 C 0.66461(14) 0.27522(15) 0.55480(15)
C40_6 C 0.68722(16) 0.31022(18) 0.58637(19)
H20_6 H 0.7208 0.3038 0.5974
C41_6 C 0.61619(17) 0.35902(19) 0.5864(2)
H21_6 H 0.5993 0.3887 0.5974
C42_6 C 0.59001(14) 0.32666(16) 0.55636(16)
C43_6 C 0.61492(14) 0.28388(14) 0.53937(14)
H22_6 H 0.5984 0.2607 0.5175
C44_6 C 0.69334(15) 0.22955(14) 0.53731(15)
C45_6 C 0.53616(14) 0.33754(15) 0.54236(16)
C46_6 C 0.50472(14) 0.36038(15) 0.57781(18)
H23_6 H 0.5180 0.3688 0.6101
C47_6 C 0.45426(13) 0.37117(15) 0.56717(15)
C48_6 C 0.43619(13) 0.36000(14) 0.51901(14)
H24_6 H 0.4023 0.3681 0.5105
C49_6 C 0.46693(13) 0.33720(14) 0.48339(14)
C50_6 C 0.51689(13) 0.32641(16) 0.49492(14)
H25_6 H 0.5380 0.3113 0.4702
C51_6 C 0.44693(13) 0.32648(15) 0.43182(13)
C52_6 C 0.33771(14) 0.40579(16) 0.63942(15)
C53_6 C 0.35826(16) 0.43681(18) 0.67526(17)
H26_6 H 0.3366 0.4521 0.6994
C54_6 C 0.43781(16) 0.4258(2) 0.64304(17)
H27_6 H 0.4729 0.4333 0.6444
C55_6 C 0.42059(15) 0.39374(15) 0.60476(15)
C56_6 C 0.36870(14) 0.38500(15) 0.60333(15)
H28_6 H 0.3547 0.3646 0.5773
C57_6 C 0.28192(15) 0.39405(17) 0.63869(17)
O23_4 O 0.42156(9) 0.40005(9) 0.33155(9)
O25_4 O 0.90005(9) 0.16845(9) 0.57844(9)
O3_6 O 0.60097(9) 0.97812(9) 0.18770(11)
O4_4 O 0.57844(9) 0.90005(9) 0.16845(9)
N2_6 N 0.32248(17) 0.90807(14) 0.05367(17)
C9_6 C 0.43283(15) 0.95426(13) 0.12883(15)
C10_6 C 0.48099(14) 0.93619(13) 0.14000(14)
H6_6 H 0.4895 0.9023 0.1319
C11_6 C 0.51661(14) 0.96693(13) 0.16280(14)
C13_6 C 0.56818(13) 0.94693(13) 0.17352(15)
C14_6 C 0.36058(15) 0.83771(14) 0.09421(16)
C15_6 C 0.32474(17) 0.85826(16) 0.06319(18)
H8_6 H 0.3006 0.8366 0.0479
C16_6 C 0.35696(17) 0.93781(16) 0.0742(2)
H9_6 H 0.3556 0.9729 0.0667
C17_6 C 0.39524(15) 0.92059(15) 0.10626(15)
C18_6 C 0.39667(15) 0.86870(14) 0.11500(15)
H10_6 H 0.4227 0.8547 0.1354
C19_6 C 0.36131(17) 0.78192(15) 0.10595(17)
O8_6 O 0.72290(11) 0.94432(12) 0.26411(11)
N3_6 N 0.85210(18) 0.8980(2) 0.33520(15)
N4_6 N 0.94633(17) 0.82248(17) 0.59193(14)
C20_6 C 0.77522(15) 0.94520(15) 0.33539(14)
C21_6 C 0.81022(18) 0.91363(19) 0.31278(16)
H11_6 H 0.8038 0.9026 0.2792
C22_6 C 0.85902(19) 0.9136(2) 0.38381(17)
H12_6 H 0.8887 0.9026 0.4007
C23_6 C 0.82666(16) 0.94364(16) 0.40999(14)
C24_6 C 0.78388(14) 0.96063(14) 0.38508(14)
H13_6 H 0.7607 0.9825 0.4016
C25_6 C 0.72955(14) 0.96269(15) 0.30666(15)
C26_6 C 0.83754(15) 0.95764(16) 0.46384(14)
C27_6 C 0.86038(15) 0.92219(18) 0.49528(14)
H14_6 H 0.8688 0.8899 0.4820
C28_6 C 0.87117(15) 0.93283(15) 0.54574(13)
C29_6 C 0.86000(14) 0.98099(14) 0.56381(13)
H15_6 H 0.8681 0.9895 0.5977
C33_6 C 0.90579(16) 0.86058(15) 0.66229(14)
C34_6 C 0.93681(18) 0.82474(17) 0.64174(16)
H17_6 H 0.9521 0.8006 0.6634
C35_6 C 0.9258(2) 0.85696(17) 0.56219(16)
H18_6 H 0.9333 0.8556 0.5271
C36_6 C 0.89374(15) 0.89524(15) 0.57941(15)
C37_6 C 0.88500(15) 0.89667(15) 0.63130(14)
H19_6 H 0.8646 0.9227 0.6453
C38_6 C 0.89405(17) 0.86131(17) 0.71808(15)
O3_7 O 0.10097(9) 0.52188(9) 0.81230(11)
C11_7 C 0.01661(14) 0.53307(13) 0.83720(14)
C12_7 C 0.00508(14) 0.48311(13) 0.82641(16)
H7_7 H 0.0298 0.4620 0.8113
C13_7 C 0.06818(13) 0.55307(13) 0.82648(15)
O8_7 O 0.22290(11) 0.55568(12) 0.73589(11)
O10_7 O 0.31230(11) 0.39903(9) 0.47812(9)
O11_4 O 0.33155(9) 0.42156(9) 0.40005(9)
N3_7 N 0.35210(18) 0.6020(2) 0.66480(15)
N4_7 N 0.44633(17) 0.67752(17) 0.40807(14)
C20_7 C 0.27522(15) 0.55480(15) 0.66461(14)
C21_7 C 0.31022(18) 0.58637(19) 0.68722(16)
H11_7 H 0.3038 0.5974 0.7208
C22_7 C 0.35902(19) 0.5864(2) 0.61619(17)
H12_7 H 0.3887 0.5974 0.5993
C23_7 C 0.32666(16) 0.55636(16) 0.59001(14)
C24_7 C 0.28388(14) 0.53937(14) 0.61492(14)
H13_7 H 0.2607 0.5175 0.5984
C25_7 C 0.22955(14) 0.53731(15) 0.69334(15)
C26_7 C 0.33754(15) 0.54236(16) 0.53616(14)
C27_7 C 0.36038(15) 0.57781(18) 0.50472(14)
H14_7 H 0.3688 0.6101 0.5180
C28_7 C 0.37117(15) 0.56717(15) 0.45426(13)
C29_7 C 0.36000(14) 0.51901(14) 0.43619(13)
H15_7 H 0.3681 0.5105 0.4023
C30_7 C 0.33720(14) 0.48339(14) 0.46693(13)
C31_7 C 0.32641(16) 0.49492(14) 0.51689(13)
H16_7 H 0.3113 0.4702 0.5380
C32_7 C 0.32648(15) 0.43182(13) 0.44693(13)
C33_7 C 0.40579(16) 0.63942(15) 0.33771(14)
C34_7 C 0.43681(18) 0.67526(17) 0.35826(16)
H17_7 H 0.4521 0.6994 0.3366
C35_7 C 0.4258(2) 0.64304(17) 0.43781(16)
H18_7 H 0.4333 0.6444 0.4729
C36_7 C 0.39374(15) 0.60476(15) 0.42059(15)
C37_7 C 0.38500(15) 0.60333(15) 0.36870(14)
H19_7 H 0.3646 0.5773 0.3547
C38_7 C 0.39405(17) 0.63869(17) 0.28192(15)
O14_7 O 0.23589(11) 0.27710(11) 0.44432(12)
N5_7 N 0.16480(15) 0.14790(18) 0.3980(2)
C39_7 C 0.16461(14) 0.22478(15) 0.44520(15)
C40_7 C 0.18722(16) 0.18978(18) 0.41363(19)
H20_7 H 0.2208 0.1962 0.4026
C41_7 C 0.11619(17) 0.14098(19) 0.4136(2)
H21_7 H 0.0993 0.1113 0.4026
C42_7 C 0.09001(14) 0.17334(16) 0.44364(16)
C43_7 C 0.11492(14) 0.21612(14) 0.46063(14)
H22_7 H 0.0984 0.2393 0.4825
C44_7 C 0.19334(15) 0.27045(14) 0.46269(15)
C45_7 C 0.03616(14) 0.16246(15) 0.45764(16)
C46_7 C 0.00472(14) 0.13962(15) 0.42219(18)
H23_7 H 0.0180 0.1312 0.3899
C50_7 C 0.01689(13) 0.17359(16) 0.50508(14)
H25_7 H 0.0380 0.1887 0.5298
O24_4 O 0.16845(9) 0.57844(9) 0.90005(9)
O1_7 O 0.94432(12) 0.26411(11) 0.72290(11)
H1_7 H 0.8154 0.1845 0.6845
N1_7 N 0.8980(2) 0.33520(15) 0.85210(18)
N2_7 N 0.82248(17) 0.59193(14) 0.94633(17)
C1_7 C 0.94520(15) 0.33539(14) 0.77522(15)
C2_7 C 0.91363(19) 0.31278(16) 0.81022(18)
H2_7 H 0.9026 0.2792 0.8038
C3_7 C 0.9136(2) 0.38381(17) 0.85902(19)
H3_7 H 0.9026 0.4007 0.8887
C4_7 C 0.94364(16) 0.40999(14) 0.82666(16)
C5_7 C 0.96063(14) 0.38508(14) 0.78388(14)
H4_7 H 0.9825 0.4016 0.7607
C6_7 C 0.96269(15) 0.30666(15) 0.72955(14)
C7_7 C 0.95764(16) 0.46384(14) 0.83754(15)
C8_7 C 0.92219(18) 0.49528(14) 0.86038(15)
H5_7 H 0.8899 0.4820 0.8688
C9_7 C 0.93283(15) 0.54574(13) 0.87117(15)
C10_7 C 0.98099(14) 0.56381(13) 0.86000(14)
H6_7 H 0.9895 0.5977 0.8681
C14_7 C 0.86058(15) 0.66229(14) 0.90579(16)
C15_7 C 0.82474(17) 0.64174(16) 0.93681(18)
H8_7 H 0.8006 0.6634 0.9521
C16_7 C 0.85696(17) 0.56219(16) 0.9258(2)
H9_7 H 0.8556 0.5271 0.9333
C17_7 C 0.89524(15) 0.57941(15) 0.89374(15)
C18_7 C 0.89667(15) 0.63130(14) 0.88500(15)
H10_7 H 0.9227 0.6453 0.8646
C19_7 C 0.86131(17) 0.71808(15) 0.89405(17)
O16_7 O 0.97812(9) 0.18770(11) 0.60097(9)
N6_7 N 0.90807(14) 0.05367(17) 0.32248(17)
C47_7 C 0.95426(13) 0.12883(15) 0.43283(15)
C48_7 C 0.93619(13) 0.14000(14) 0.48099(14)
H24_7 H 0.9023 0.1319 0.4895
C49_7 C 0.96693(13) 0.16280(14) 0.51661(14)
C51_7 C 0.94693(13) 0.17352(15) 0.56818(13)
C52_7 C 0.83771(14) 0.09421(16) 0.36058(15)
C53_7 C 0.85826(16) 0.06319(18) 0.32474(17)
H26_7 H 0.8366 0.0479 0.3006
C54_7 C 0.93781(16) 0.0742(2) 0.35696(17)
H27_7 H 0.9729 0.0667 0.3556
C55_7 C 0.92059(15) 0.10626(15) 0.39524(15)
C56_7 C 0.86870(14) 0.11500(15) 0.39667(15)
H28_7 H 0.8547 0.1354 0.4227
C57_7 C 0.78192(15) 0.10595(17) 0.36131(17)
O1_8 O 0.55568(12) 0.73589(11) 0.22290(11)
O3_8 O 0.39903(9) 0.47812(9) 0.31230(11)
H1_8 H 0.6846 0.8155 0.1845
N1_8 N 0.6020(2) 0.66480(15) 0.35210(18)
N2_8 N 0.67752(17) 0.40807(14) 0.44633(17)
C1_8 C 0.55480(15) 0.66461(14) 0.27522(15)
C2_8 C 0.58637(19) 0.68722(16) 0.31022(18)
H2_8 H 0.5974 0.7208 0.3038
C3_8 C 0.5864(2) 0.61619(17) 0.35902(19)
H3_8 H 0.5974 0.5993 0.3887
C4_8 C 0.55636(16) 0.59001(14) 0.32666(16)
C5_8 C 0.53937(14) 0.61492(14) 0.28388(14)
H4_8 H 0.5175 0.5984 0.2607
C6_8 C 0.53731(15) 0.69334(15) 0.22955(14)
C7_8 C 0.54236(16) 0.53616(14) 0.33754(15)
C8_8 C 0.57781(18) 0.50472(14) 0.36038(15)
H5_8 H 0.6101 0.5180 0.3688
C9_8 C 0.56717(15) 0.45426(13) 0.37117(15)
C10_8 C 0.51901(14) 0.43619(13) 0.36000(14)
H6_8 H 0.5105 0.4023 0.3681
C11_8 C 0.48339(14) 0.46693(13) 0.33720(14)
C12_8 C 0.49492(14) 0.51689(13) 0.32641(16)
H7_8 H 0.4702 0.5380 0.3113
C13_8 C 0.43182(13) 0.44693(13) 0.32648(15)
C14_8 C 0.63942(15) 0.33771(14) 0.40579(16)
C15_8 C 0.67526(17) 0.35826(16) 0.43681(18)
H8_8 H 0.6994 0.3366 0.4521
C16_8 C 0.64304(17) 0.43781(16) 0.4258(2)
H9_8 H 0.6444 0.4729 0.4333
C17_8 C 0.60476(15) 0.42059(15) 0.39374(15)
C18_8 C 0.60333(15) 0.36870(14) 0.38500(15)
H10_8 H 0.5773 0.3547 0.3646
C19_8 C 0.63869(17) 0.28192(15) 0.39405(17)
O8_8 O 0.27710(11) 0.44432(12) 0.23589(11)
N3_8 N 0.14790(18) 0.3980(2) 0.16480(15)
C20_8 C 0.22478(15) 0.44520(15) 0.16461(14)
C21_8 C 0.18978(18) 0.41363(19) 0.18722(16)
H11_8 H 0.1962 0.4026 0.2208
C22_8 C 0.14098(19) 0.4136(2) 0.11619(17)
H12_8 H 0.1113 0.4026 0.0993
C23_8 C 0.17334(16) 0.44364(16) 0.09001(14)
C24_8 C 0.21612(14) 0.46063(14) 0.11492(14)
H13_8 H 0.2393 0.4825 0.0984
C25_8 C 0.27045(14) 0.46269(15) 0.19334(15)
C26_8 C 0.16246(15) 0.45764(16) 0.03616(14)
C27_8 C 0.13962(15) 0.42219(18) 0.00472(14)
H14_8 H 0.1312 0.3899 0.0180
C31_8 C 0.17359(16) 0.50508(14) 0.01689(13)
H16_8 H 0.1887 0.5298 0.0380
O16_8 O 0.52188(9) 0.81230(11) 0.10097(9)
C49_8 C 0.53307(13) 0.83720(14) 0.01661(14)
C50_8 C 0.48311(13) 0.82641(16) 0.00508(14)
H25_8 H 0.4620 0.8113 0.0298
C51_8 C 0.55307(13) 0.82648(15) 0.06818(13)
O10_8 O 0.18770(11) 0.60097(9) 0.97812(9)
N4_8 N 0.05367(17) 0.32248(17) 0.90807(14)
C28_8 C 0.12883(15) 0.43283(15) 0.95426(13)
C29_8 C 0.14000(14) 0.48099(14) 0.93619(13)
H15_8 H 0.1319 0.4895 0.9023
C30_8 C 0.16280(14) 0.51661(14) 0.96693(13)
C32_8 C 0.17352(15) 0.56818(13) 0.94693(13)
C33_8 C 0.09421(16) 0.36058(15) 0.83771(14)
C34_8 C 0.06319(18) 0.32474(17) 0.85826(16)
H17_8 H 0.0479 0.3006 0.8366
C35_8 C 0.0742(2) 0.35696(17) 0.93781(16)
H18_8 H 0.0667 0.3556 0.9729
C36_8 C 0.10626(15) 0.39524(15) 0.92059(15)
C37_8 C 0.11500(15) 0.39667(15) 0.86870(14)
H19_8 H 0.1354 0.4227 0.8547
C38_8 C 0.10595(17) 0.36131(17) 0.78192(15)
O14_8 O 0.26411(11) 0.72290(11) 0.94432(12)
N5_8 N 0.33520(15) 0.85210(18) 0.8980(2)
N6_8 N 0.59193(14) 0.94633(17) 0.82248(17)
C39_8 C 0.33539(14) 0.77522(15) 0.94520(15)
C40_8 C 0.31278(16) 0.81022(18) 0.91363(19)
H20_8 H 0.2792 0.8038 0.9026
C41_8 C 0.38381(17) 0.85902(19) 0.9136(2)
H21_8 H 0.4007 0.8887 0.9026
C42_8 C 0.40999(14) 0.82666(16) 0.94364(16)
C43_8 C 0.38508(14) 0.78388(14) 0.96063(14)
H22_8 H 0.4016 0.7607 0.9825
C44_8 C 0.30666(15) 0.72955(14) 0.96269(15)
C45_8 C 0.46384(14) 0.83754(15) 0.95764(16)
C46_8 C 0.49528(14) 0.86038(15) 0.92219(18)
H23_8 H 0.4820 0.8688 0.8899
C47_8 C 0.54574(13) 0.87117(15) 0.93283(15)
C48_8 C 0.56381(13) 0.86000(14) 0.98099(14)
H24_8 H 0.5977 0.8681 0.9895
C52_8 C 0.66229(14) 0.90579(16) 0.86058(15)
C53_8 C 0.64174(16) 0.93681(18) 0.82474(17)
H26_8 H 0.6634 0.9521 0.8006
C54_8 C 0.56219(16) 0.9258(2) 0.85696(17)
H27_8 H 0.5271 0.9333 0.8556
C55_8 C 0.57941(15) 0.89374(15) 0.89524(15)
C56_8 C 0.63130(14) 0.88500(15) 0.89667(15)
H28_8 H 0.6453 0.8646 0.9227
C57_8 C 0.71808(15) 0.89405(17) 0.86131(17)
loop_
_geom_bond_atom_site_label_1
_geom_bond_atom_site_label_2
_geom_bond_site_symmetry_1
_geom_bond_site_symmetry_2
Eu1 O1 1_555 1_555
O1 C6 1_555 1_555
O2 C6 1_555 1_555
O3 C13 1_555 1_555
O4 C13 1_555 1_555
O5 C19 1_555 1_555
O6 C19 1_555 1_555
O7 Eu1 1_555 1_555
H1 O7 1_555 1_555
N1 C2 1_555 1_555
N2 C15 1_555 1_555
C1 C2 1_555 1_555
C2 H2 1_555 1_555
C3 N1 1_555 1_555
H3 C3 1_555 1_555
C4 C3 1_555 1_555
C5 C1 1_555 1_555
H4 C5 1_555 1_555
C6 C1 1_555 1_555
C7 C4 1_555 1_555
C8 C7 1_555 1_555
H5 C8 1_555 1_555
C9 C8 1_555 1_555
C10 C9 1_555 1_555
H6 C10 1_555 1_555
C11 C10 1_555 1_555
C12 C7 1_555 1_555
H7 C12 1_555 1_555
C13 C11 1_555 1_555
C14 C15 1_555 1_555
C15 H8 1_555 1_555
C16 N2 1_555 1_555
H9 C16 1_555 1_555
C17 C9 1_555 1_555
C18 C14 1_555 1_555
H10 C18 1_555 1_555
C19 C14 1_555 1_555
Eu2 O3 1_555 1_555
O8 Eu2 1_555 1_555
O9 C25 1_555 1_555
O10 C32 1_555 1_555
O11 C32 1_555 1_555
O12 C38 1_555 1_555
O13 C38 1_555 1_555
N3 C21 1_555 1_555
N4 C34 1_555 1_555
C20 C21 1_555 1_555
C21 H11 1_555 1_555
C22 N3 1_555 1_555
H12 C22 1_555 1_555
C23 C22 1_555 1_555
C24 C20 1_555 1_555
H13 C24 1_555 1_555
C25 O8 1_555 1_555
C26 C23 1_555 1_555
C27 C26 1_555 1_555
H14 C27 1_555 1_555
C28 C27 1_555 1_555
C29 C28 1_555 1_555
H15 C29 1_555 1_555
C30 C29 1_555 1_555
C31 C26 1_555 1_555
H16 C31 1_555 1_555
C32 C30 1_555 1_555
C33 C34 1_555 1_555
C34 H17 1_555 1_555
C35 N4 1_555 1_555
H18 C35 1_555 1_555
C36 C28 1_555 1_555
C37 C33 1_555 1_555
H19 C37 1_555 1_555
C38 C33 1_555 1_555
Eu3 O10 1_555 1_555
O14 Eu3 1_555 1_555
O15 C44 1_555 1_555
O16 Eu1 1_555 1_555
O17 Eu1 1_555 1_555
O18 C57 1_555 1_555
O19 C57 1_555 1_555
N5 C40 1_555 1_555
N6 C53 1_555 1_555
C39 C40 1_555 1_555
C40 H20 1_555 1_555
C41 N5 1_555 1_555
H21 C41 1_555 1_555
C42 C41 1_555 1_555
C43 C39 1_555 1_555
H22 C43 1_555 1_555
C44 O14 1_555 1_555
C45 C42 1_555 1_555
C46 C45 1_555 1_555
H23 C46 1_555 1_555
C47 C46 1_555 1_555
C48 C47 1_555 1_555
H24 C48 1_555 1_555
C49 C48 1_555 1_555
C50 C45 1_555 1_555
H25 C50 1_555 1_555
C51 O16 1_555 1_555
C52 C53 1_555 1_555
C53 H26 1_555 1_555
C54 N6 1_555 1_555
H27 C54 1_555 1_555
C55 C47 1_555 1_555
C56 C52 1_555 1_555
H28 C56 1_555 1_555
C57 C52 1_555 1_555
Eu4 O4 1_555 1_555
Eu5 O11 1_555 1_555
Eu6 O7 1_555 1_555
Eu7 O7 1_555 1_555
Eu8 O13 1_555 1_555
Eu9 O2 1_555 1_555
Eu10 O5 1_555 1_555
Eu11 O19 1_555 1_555
Eu12 O9 1_555 1_555
Eu13 O12 1_555 1_555
Eu14 O6 1_555 1_555
Eu15 O15 1_555 1_555
Eu16 O18 1_555 1_555
O20 Eu1 1_555 1_555
O21 Eu2 1_555 1_555
O22 Eu3 1_555 1_555
O23 Eu1 1_555 1_555
O24 Eu2 1_555 1_555
O25 Eu3 1_555 1_555
O26 Eu1 1_555 1_555
O27 Eu2 1_555 1_555
O28 Eu3 1_555 1_555
O29 Eu3 1_555 1_555
O30 Eu1 1_555 1_555
O31 Eu2 1_555 1_555
O32 Eu2 1_555 1_555
O33 Eu3 1_555 1_555
O4 Eu2 1_555 1_555
C4 C5 1_555 1_555
C11 C12 1_555 1_555
C16 C17 1_555 1_555
C17 C18 1_555 1_555
O11 Eu3 1_555 1_555
C20 C25 1_555 1_555
C23 C24 1_555 1_555
C30 C31 1_555 1_555
C35 C36 1_555 1_555
C36 C37 1_555 1_555
O17 C51 1_555 1_555
O17 Eu7 1_555 1_555
C39 C44 1_555 1_555
C42 C43 1_555 1_555
C49 C50 1_555 1_555
C49 C51 1_555 1_555
C54 C55 1_555 1_555
C55 C56 1_555 1_555
Eu4 O32 1_555 1_555
Eu5 O33 1_555 1_555
Eu6 O23 1_555 1_555
O10_2 C32_2 1_555 1_555
O24 C32_2 1_555 1_555
O12_2 C38_2 1_555 1_555
O13_2 C38_2 1_555 1_555
N4_2 C34_2 1_555 1_555
C29_2 C28_2 1_555 1_555
H15_2 C29_2 1_555 1_555
C30_2 C29_2 1_555 1_555
C32_2 C30_2 1_555 1_555
C33_2 C34_2 1_555 1_555
C34_2 H17_2 1_555 1_555
C35_2 N4_2 1_555 1_555
H18_2 C35_2 1_555 1_555
C36_2 C28_2 1_555 1_555
C37_2 C33_2 1_555 1_555
H19_2 C37_2 1_555 1_555
C38_2 C33_2 1_555 1_555
Eu3_2 O10_2 1_555 1_555
O14_2 Eu3_2 1_555 1_555
O15_2 C44_2 1_555 1_555
N5_2 C40_2 1_555 1_555
C39_2 C40_2 1_555 1_555
C40_2 H20_2 1_555 1_555
C41_2 N5_2 1_555 1_555
H21_2 C41_2 1_555 1_555
C42_2 C41_2 1_555 1_555
C43_2 C39_2 1_555 1_555
H22_2 C43_2 1_555 1_555
C44_2 O14_2 1_555 1_555
C45_2 C42_2 1_555 1_555
C46_2 C45_2 1_555 1_555
H23_2 C46_2 1_555 1_555
Eu9 O13_2 1_555 1_555
Eu12 O12_2 1_555 1_555
O25_2 Eu3_2 1_555 1_555
O28_2 Eu3_2 1_555 1_555
O29_2 Eu3_2 1_555 1_555
O32 Eu3_2 1_555 1_555
O24 Eu3_2 1_555 1_555
C35_2 C36_2 1_555 1_555
C36_2 C37_2 1_555 1_555
C39_2 C44_2 1_555 1_555
C42_2 C43_2 1_555 1_555
O3_2 C13_2 1_555 1_555
O4_2 C13_2 1_555 1_555
H7_2 C12_2 1_555 1_555
C13_2 C11_2 1_555 1_555
Eu5 O3_2 1_555 1_555
O8_2 Eu5 1_555 1_555
O9_2 C25_2 1_555 1_555
N3_2 C21_2 1_555 1_555
C20_2 C21_2 1_555 1_555
C21_2 H11_2 1_555 1_555
C22_2 N3_2 1_555 1_555
H12_2 C22_2 1_555 1_555
C23_2 C22_2 1_555 1_555
C24_2 C20_2 1_555 1_555
H13_2 C24_2 1_555 1_555
C25_2 O8_2 1_555 1_555
C26_2 C23_2 1_555 1_555
C27_2 C26_2 1_555 1_555
H14_2 C27_2 1_555 1_555
C31_2 C26_2 1_555 1_555
H16_2 C31_2 1_555 1_555
H25_2 C50_2 1_555 1_555
Eu4_2 O4_2 1_555 1_555
Eu13 O9_2 1_555 1_555
O21_2 Eu5 1_555 1_555
O27_2 Eu5 1_555 1_555
O31_2 Eu5 1_555 1_555
O4_2 Eu5 1_555 1_555
C11_2 C12_2 1_555 1_555
C20_2 C25_2 1_555 1_555
C23_2 C24_2 1_555 1_555
Eu4_2 O33 1_555 1_555
O18_2 C57_2 1_555 1_555
O19_2 C57_2 1_555 1_555
N6_2 C53_2 1_555 1_555
C48_2 C47_2 1_555 1_555
H24_2 C48_2 1_555 1_555
C52_2 C53_2 1_555 1_555
C53_2 H26_2 1_555 1_555
C54_2 N6_2 1_555 1_555
H27_2 C54_2 1_555 1_555
C55_2 C47_2 1_555 1_555
C56_2 C52_2 1_555 1_555
H28_2 C56_2 1_555 1_555
C57_2 C52_2 1_555 1_555
Eu11_2 O19_2 1_555 1_555
Eu14 O18_2 1_555 1_555
C54_2 C55_2 1_555 1_555
C55_2 C56_2 1_555 1_555
Eu1_2 O1_2 1_555 1_555
O1_2 C6_2 1_555 1_555
O2_2 C6_2 1_555 1_555
O5_2 C19_2 1_555 1_555
O6_2 C19_2 1_555 1_555
O7_2 Eu1_2 1_555 1_555
H1_2 O7_2 1_555 1_555
N1_2 C2_2 1_555 1_555
N2_2 C15_2 1_555 1_555
C1_2 C2_2 1_555 1_555
C2_2 H2_2 1_555 1_555
C3_2 N1_2 1_555 1_555
H3_2 C3_2 1_555 1_555
C4_2 C3_2 1_555 1_555
C5_2 C1_2 1_555 1_555
H4_2 C5_2 1_555 1_555
C6_2 C1_2 1_555 1_555
C7_2 C4_2 1_555 1_555
C8_2 C7_2 1_555 1_555
H5_2 C8_2 1_555 1_555
C9_2 C8_2 1_555 1_555
C10_2 C9_2 1_555 1_555
H6_2 C10_2 1_555 1_555
C14_2 C15_2 1_555 1_555
C15_2 H8_2 1_555 1_555
C16_2 N2_2 1_555 1_555
H9_2 C16_2 1_555 1_555
C17_2 C9_2 1_555 1_555
C18_2 C14_2 1_555 1_555
H10_2 C18_2 1_555 1_555
C19_2 C14_2 1_555 1_555
O16_2 Eu1_2 1_555 1_555
O17_2 Eu1_2 1_555 1_555
C51_2 O16_2 1_555 1_555
Eu6_2 O7_2 1_555 1_555
Eu7_2 O7_2 1_555 1_555
Eu10_2 O5_2 1_555 1_555
Eu16 O6_2 1_555 1_555
O23_2 Eu1_2 1_555 1_555
O26_2 Eu1_2 1_555 1_555
O30_2 Eu1_2 1_555 1_555
C4_2 C5_2 1_555 1_555
C16_2 C17_2 1_555 1_555
C17_2 C18_2 1_555 1_555
O17_2 C51_2 1_555 1_555
O17_2 Eu7_2 1_555 1_555
C49_2 C51_2 1_555 1_555
Eu6_2 O23_2 1_555 1_555
O3_3 C13_3 1_555 1_555
O23 C13_3 1_555 1_555
O5_3 C19_3 1_555 1_555
O6_3 C19_3 1_555 1_555
N2_3 C15_3 1_555 1_555
C10_3 C9_3 1_555 1_555
H6_3 C10_3 1_555 1_555
C11_3 C10_3 1_555 1_555
C13_3 C11_3 1_555 1_555
C14_3 C15_3 1_555 1_555
C15_3 H8_3 1_555 1_555
C16_3 N2_3 1_555 1_555
H9_3 C16_3 1_555 1_555
C17_3 C9_3 1_555 1_555
C18_3 C14_3 1_555 1_555
H10_3 C18_3 1_555 1_555
C19_3 C14_3 1_555 1_555
Eu6 O3_3 1_555 1_555
O8_3 Eu6 1_555 1_555
O9_3 C25_3 1_555 1_555
N3_3 C21_3 1_555 1_555
C20_3 C21_3 1_555 1_555
C21_3 H11_3 1_555 1_555
C22_3 N3_3 1_555 1_555
H12_3 C22_3 1_555 1_555
C23_3 C22_3 1_555 1_555
C24_3 C20_3 1_555 1_555
H13_3 C24_3 1_555 1_555
C25_3 O8_3 1_555 1_555
C26_3 C23_3 1_555 1_555
C27_3 C26_3 1_555 1_555
H14_3 C27_3 1_555 1_555
Eu9 O5_3 1_555 1_555
Eu15 O6_3 1_555 1_555
O24_2 Eu6 1_555 1_555
O27_3 Eu6 1_555 1_555
O31_3 Eu6 1_555 1_555
C16_3 C17_3 1_555 1_555
C17_3 C18_3 1_555 1_555
C20_3 C25_3 1_555 1_555
C23_3 C24_3 1_555 1_555
O12_3 C38_3 1_555 1_555
O13_3 C38_3 1_555 1_555
N4_3 C34_3 1_555 1_555
C29_3 C28_3 1_555 1_555
H15_3 C29_3 1_555 1_555
C33_3 C34_3 1_555 1_555
C34_3 H17_3 1_555 1_555
C35_3 N4_3 1_555 1_555
H18_3 C35_3 1_555 1_555
C36_3 C28_3 1_555 1_555
C37_3 C33_3 1_555 1_555
H19_3 C37_3 1_555 1_555
C38_3 C33_3 1_555 1_555
Eu10_2 O13_3 1_555 1_555
Eu11 O12_3 1_555 1_555
C35_3 C36_3 1_555 1_555
C36_3 C37_3 1_555 1_555
Eu4 O1_3 1_555 1_555
O1_3 C6_3 1_555 1_555
O2_3 C6_3 1_555 1_555
H1_3 O32 1_555 1_555
N1_3 C2_3 1_555 1_555
C1_3 C2_3 1_555 1_555
C2_3 H2_3 1_555 1_555
C3_3 N1_3 1_555 1_555
H3_3 C3_3 1_555 1_555
C4_3 C3_3 1_555 1_555
C5_3 C1_3 1_555 1_555
H4_3 C5_3 1_555 1_555
C6_3 C1_3 1_555 1_555
C7_3 C4_3 1_555 1_555
C8_3 C7_3 1_555 1_555
H5_3 C8_3 1_555 1_555
C12_3 C7_3 1_555 1_555
H7_3 C12_3 1_555 1_555
H16_3 C31_3 1_555 1_555
O16_3 Eu4 1_555 1_555
O25_2 Eu4 1_555 1_555
H25_3 C50_3 1_555 1_555
C51_3 O16_3 1_555 1_555
Eu10 O2_3 1_555 1_555
O20_3 Eu4 1_555 1_555
O26_3 Eu4 1_555 1_555
O30_3 Eu4 1_555 1_555
C4_3 C5_3 1_555 1_555
O25_2 C51_3 1_555 1_555
C49_3 C50_3 1_555 1_555
C49_3 C51_3 1_555 1_555
O10_3 C32_3 1_555 1_555
O11_2 C32_3 1_555 1_555
C32_3 C30_3 1_555 1_555
Eu7_2 O10_3 1_555 1_555
O14_3 Eu7_2 1_555 1_555
O15_3 C44_3 1_555 1_555
O18_3 C57_3 1_555 1_555
O19_3 C57_3 1_555 1_555
N5_3 C40_3 1_555 1_555
N6_3 C53_3 1_555 1_555
C39_3 C40_3 1_555 1_555
C40_3 H20_3 1_555 1_555
C41_3 N5_3 1_555 1_555
H21_3 C41_3 1_555 1_555
C42_3 C41_3 1_555 1_555
C43_3 C39_3 1_555 1_555
H22_3 C43_3 1_555 1_555
C44_3 O14_3 1_555 1_555
C45_3 C42_3 1_555 1_555
C46_3 C45_3 1_555 1_555
H23_3 C46_3 1_555 1_555
C47_3 C46_3 1_555 1_555
C48_3 C47_3 1_555 1_555
H24_3 C48_3 1_555 1_555
C52_3 C53_3 1_555 1_555
C53_3 H26_3 1_555 1_555
C54_3 N6_3 1_555 1_555
H27_3 C54_3 1_555 1_555
C55_3 C47_3 1_555 1_555
C56_3 C52_3 1_555 1_555
H28_3 C56_3 1_555 1_555
C57_3 C52_3 1_555 1_555
Eu6_2 O11_2 1_555 1_555
Eu13 O19_3 1_555 1_555
Eu15_2 O18_3 1_555 1_555
O28_3 Eu7_2 1_555 1_555
O29_3 Eu7_2 1_555 1_555
O11_2 Eu7_2 1_555 1_555
C39_3 C44_3 1_555 1_555
C42_3 C43_3 1_555 1_555
C54_3 C55_3 1_555 1_555
C55_3 C56_3 1_555 1_555
Eu4_2 O1_4 1_555 1_555
O1_4 C6_4 1_555 1_555
O2_4 C6_4 1_555 1_555
H1_4 O33 1_555 1_555
N1_4 C2_4 1_555 1_555
C1_4 C2_4 1_555 1_555
C2_4 H2_4 1_555 1_555
C3_4 N1_4 1_555 1_555
H3_4 C3_4 1_555 1_555
C4_4 C3_4 1_555 1_555
C5_4 C1_4 1_555 1_555
H4_4 C5_4 1_555 1_555
C6_4 C1_4 1_555 1_555
C7_4 C4_4 1_555 1_555
C8_4 C7_4 1_555 1_555
H5_4 C8_4 1_555 1_555
O16_4 Eu4_2 1_555 1_555
O25 Eu4_2 1_555 1_555
O18_4 C57_4 1_555 1_555
O19_4 C57_4 1_555 1_555
N6_4 C53_4 1_555 1_555
C48_4 C47_4 1_555 1_555
H24_4 C48_4 1_555 1_555
C49_4 C48_4 1_555 1_555
C51_4 O16_4 1_555 1_555
C52_4 C53_4 1_555 1_555
C53_4 H26_4 1_555 1_555
C54_4 N6_4 1_555 1_555
H27_4 C54_4 1_555 1_555
C55_4 C47_4 1_555 1_555
C56_4 C52_4 1_555 1_555
H28_4 C56_4 1_555 1_555
C57_4 C52_4 1_555 1_555
Eu12 O19_4 1_555 1_555
Eu15 O18_4 1_555 1_555
O26_4 Eu4_2 1_555 1_555
O30_4 Eu4_2 1_555 1_555
C4_4 C5_4 1_555 1_555
O25 C51_4 1_555 1_555
C49_4 C51_4 1_555 1_555
C54_4 C55_4 1_555 1_555
C55_4 C56_4 1_555 1_555
O5_4 C19_4 1_555 1_555
O6_4 C19_4 1_555 1_555
N2_4 C15_4 1_555 1_555
C10_4 C9_4 1_555 1_555
H6_4 C10_4 1_555 1_555
C14_4 C15_4 1_555 1_555
C15_4 H8_4 1_555 1_555
C16_4 N2_4 1_555 1_555
H9_4 C16_4 1_555 1_555
C17_4 C9_4 1_555 1_555
C18_4 C14_4 1_555 1_555
H10_4 C18_4 1_555 1_555
C19_4 C14_4 1_555 1_555
Eu8 O5_4 1_555 1_555
Eu15_2 O6_4 1_555 1_555
C16_4 C17_4 1_555 1_555
C17_4 C18_4 1_555 1_555
H7_4 C12_4 1_555 1_555
O10_4 C32_4 1_555 1_555
O24_2 C32_4 1_555 1_555
H16_4 C31_4 1_555 1_555
C32_4 C30_4 1_555 1_555
Eu7 O10_4 1_555 1_555
O14_4 Eu7 1_555 1_555
O15_4 C44_4 1_555 1_555
N5_4 C40_4 1_555 1_555
C39_4 C40_4 1_555 1_555
C40_4 H20_4 1_555 1_555
C41_4 N5_4 1_555 1_555
H21_4 C41_4 1_555 1_555
C42_4 C41_4 1_555 1_555
C43_4 C39_4 1_555 1_555
H22_4 C43_4 1_555 1_555
C44_4 O14_4 1_555 1_555
C45_4 C42_4 1_555 1_555
C46_4 C45_4 1_555 1_555
H23_4 C46_4 1_555 1_555
C50_4 C45_4 1_555 1_555
H25_4 C50_4 1_555 1_555
Eu16 O15_4 1_555 1_555
O22_4 Eu7 1_555 1_555
O28_4 Eu7 1_555 1_555
O29_4 Eu7 1_555 1_555
O24_2 Eu7 1_555 1_555
C30_4 C31_4 1_555 1_555
C39_4 C44_4 1_555 1_555
C42_4 C43_4 1_555 1_555
O3_4 C13_4 1_555 1_555
O23_2 C13_4 1_555 1_555
C13_4 C11_4 1_555 1_555
Eu6_2 O3_4 1_555 1_555
O8_4 Eu6_2 1_555 1_555
O9_4 C25_4 1_555 1_555
O12_4 C38_4 1_555 1_555
O13_4 C38_4 1_555 1_555
N3_4 C21_4 1_555 1_555
N4_4 C34_4 1_555 1_555
C20_4 C21_4 1_555 1_555
C21_4 H11_4 1_555 1_555
C22_4 N3_4 1_555 1_555
H12_4 C22_4 1_555 1_555
C23_4 C22_4 1_555 1_555
C24_4 C20_4 1_555 1_555
H13_4 C24_4 1_555 1_555
C25_4 O8_4 1_555 1_555
C26_4 C23_4 1_555 1_555
C27_4 C26_4 1_555 1_555
H14_4 C27_4 1_555 1_555
C28_4 C27_4 1_555 1_555
C29_4 C28_4 1_555 1_555
H15_4 C29_4 1_555 1_555
C33_4 C34_4 1_555 1_555
C34_4 H17_4 1_555 1_555
C35_4 N4_4 1_555 1_555
H18_4 C35_4 1_555 1_555
C36_4 C28_4 1_555 1_555
C37_4 C33_4 1_555 1_555
H19_4 C37_4 1_555 1_555
C38_4 C33_4 1_555 1_555
Eu10 O13_4 1_555 1_555
Eu11_2 O12_4 1_555 1_555
O27_4 Eu6_2 1_555 1_555
O31_4 Eu6_2 1_555 1_555
C20_4 C25_4 1_555 1_555
C23_4 C24_4 1_555 1_555
C35_4 C36_4 1_555 1_555
C36_4 C37_4 1_555 1_555
O26_4 C19_5 1_555 1_555
O29 C19_5 1_555 1_555
N2_5 C15_5 1_555 1_555
C10_5 C9_5 1_555 1_555
H6_5 C10_5 1_555 1_555
C14_5 C15_5 1_555 1_555
C15_5 H8_5 1_555 1_555
C16_5 N2_5 1_555 1_555
H9_5 C16_5 1_555 1_555
C17_5 C9_5 1_555 1_555
C18_5 C14_5 1_555 1_555
H10_5 C18_5 1_555 1_555
C19_5 C14_5 1_555 1_555
C16_5 C17_5 1_555 1_555
C17_5 C18_5 1_555 1_555
O28_2 C57_5 1_555 1_555
O31 C57_5 1_555 1_555
N6_5 C53_5 1_555 1_555
C48_5 C47_5 1_555 1_555
H24_5 C48_5 1_555 1_555
C52_5 C53_5 1_555 1_555
C53_5 H26_5 1_555 1_555
C54_5 N6_5 1_555 1_555
H27_5 C54_5 1_555 1_555
C55_5 C47_5 1_555 1_555
C56_5 C52_5 1_555 1_555
H28_5 C56_5 1_555 1_555
C57_5 C52_5 1_555 1_555
C54_5 C55_5 1_555 1_555
C55_5 C56_5 1_555 1_555
Eu8 O1_5 1_555 1_555
O1_5 C6_5 1_555 1_555
O20_2 C6_5 1_555 1_555
O7_3 Eu8 1_555 1_555
H1_5 O7_3 1_555 1_555
N1_5 C2_5 1_555 1_555
C1_5 C2_5 1_555 1_555
C2_5 H2_5 1_555 1_555
C3_5 N1_5 1_555 1_555
H3_5 C3_5 1_555 1_555
C4_5 C3_5 1_555 1_555
C5_5 C1_5 1_555 1_555
H4_5 C5_5 1_555 1_555
C6_5 C1_5 1_555 1_555
C7_5 C4_5 1_555 1_555
C8_5 C7_5 1_555 1_555
H5_5 C8_5 1_555 1_555
O16_5 Eu8 1_555 1_555
O17_3 Eu8 1_555 1_555
C51_5 O16_5 1_555 1_555
Eu13 O7_3 1_555 1_555
Eu15_2 O7_3 1_555 1_555
O23_3 Eu8 1_555 1_555
C4_5 C5_5 1_555 1_555
O17_3 C51_5 1_555 1_555
O17_3 Eu15_2 1_555 1_555
C49_5 C51_5 1_555 1_555
Eu13 O23_3 1_555 1_555
O27_3 C38_5 1_555 1_555
O30 C38_5 1_555 1_555
N4_5 C34_5 1_555 1_555
C29_5 C28_5 1_555 1_555
H15_5 C29_5 1_555 1_555
C33_5 C34_5 1_555 1_555
C34_5 H17_5 1_555 1_555
C35_5 N4_5 1_555 1_555
H18_5 C35_5 1_555 1_555
C36_5 C28_5 1_555 1_555
C37_5 C33_5 1_555 1_555
H19_5 C37_5 1_555 1_555
C38_5 C33_5 1_555 1_555
C35_5 C36_5 1_555 1_555
C36_5 C37_5 1_555 1_555
O3_5 C13_5 1_555 1_555
O4_3 C13_5 1_555 1_555
C13_5 C11_5 1_555 1_555
Eu11 O3_5 1_555 1_555
O8_5 Eu11 1_555 1_555
O21_4 C25_5 1_555 1_555
N3_5 C21_5 1_555 1_555
C20_5 C21_5 1_555 1_555
C21_5 H11_5 1_555 1_555
C22_5 N3_5 1_555 1_555
H12_5 C22_5 1_555 1_555
C23_5 C22_5 1_555 1_555
C24_5 C20_5 1_555 1_555
H13_5 C24_5 1_555 1_555
C25_5 O8_5 1_555 1_555
C26_5 C23_5 1_555 1_555
C27_5 C26_5 1_555 1_555
H14_5 C27_5 1_555 1_555
Eu10_2 O4_3 1_555 1_555
O24_3 Eu11 1_555 1_555
O32_2 Eu11 1_555 1_555
O4_3 Eu11 1_555 1_555
C20_5 C25_5 1_555 1_555
C23_5 C24_5 1_555 1_555
Eu10_2 O32_2 1_555 1_555
O10_5 C32_5 1_555 1_555
O11_3 C32_5 1_555 1_555
C32_5 C30_5 1_555 1_555
Eu14 O10_5 1_555 1_555
O14_5 Eu14 1_555 1_555
O22_3 C44_5 1_555 1_555
N5_5 C40_5 1_555 1_555
C39_5 C40_5 1_555 1_555
C40_5 H20_5 1_555 1_555
C41_5 N5_5 1_555 1_555
H21_5 C41_5 1_555 1_555
C42_5 C41_5 1_555 1_555
C43_5 C39_5 1_555 1_555
H22_5 C43_5 1_555 1_555
C44_5 O14_5 1_555 1_555
C45_5 C42_5 1_555 1_555
C46_5 C45_5 1_555 1_555
H23_5 C46_5 1_555 1_555
Eu11_2 O11_3 1_555 1_555
O25_3 Eu14 1_555 1_555
O33_2 Eu14 1_555 1_555
O11_3 Eu14 1_555 1_555
C39_5 C44_5 1_555 1_555
C42_5 C43_5 1_555 1_555
Eu11_2 O33_2 1_555 1_555
H7_5 C12_5 1_555 1_555
H16_5 C31_5 1_555 1_555
H25_5 C50_5 1_555 1_555
Eu9 O1_6 1_555 1_555
O1_6 C6_6 1_555 1_555
O20 C6_6 1_555 1_555
O7_4 Eu9 1_555 1_555
H1_6 O7_4 1_555 1_555
N1_6 C2_6 1_555 1_555
C1_6 C2_6 1_555 1_555
C2_6 H2_6 1_555 1_555
C3_6 N1_6 1_555 1_555
H3_6 C3_6 1_555 1_555
C4_6 C3_6 1_555 1_555
C5_6 C1_6 1_555 1_555
H4_6 C5_6 1_555 1_555
C6_6 C1_6 1_555 1_555
C7_6 C4_6 1_555 1_555
C8_6 C7_6 1_555 1_555
H5_6 C8_6 1_555 1_555
C12_6 C7_6 1_555 1_555
H7_6 C12_6 1_555 1_555
O10_6 C32_6 1_555 1_555
O24_3 C32_6 1_555 1_555
H16_6 C31_6 1_555 1_555
C32_6 C30_6 1_555 1_555
Eu16 O10_6 1_555 1_555
O14_6 Eu16 1_555 1_555
O22_4 C44_6 1_555 1_555
O16_6 Eu9 1_555 1_555
O17_4 Eu9 1_555 1_555
O28 C57_6 1_555 1_555
O31_2 C57_6 1_555 1_555
N5_6 C40_6 1_555 1_555
N6_6 C53_6 1_555 1_555
C39_6 C40_6 1_555 1_555
C40_6 H20_6 1_555 1_555
C41_6 N5_6 1_555 1_555
H21_6 C41_6 1_555 1_555
C42_6 C41_6 1_555 1_555
C43_6 C39_6 1_555 1_555
H22_6 C43_6 1_555 1_555
C44_6 O14_6 1_555 1_555
C45_6 C42_6 1_555 1_555
C46_6 C45_6 1_555 1_555
H23_6 C46_6 1_555 1_555
C47_6 C46_6 1_555 1_555
C48_6 C47_6 1_555 1_555
H24_6 C48_6 1_555 1_555
C49_6 C48_6 1_555 1_555
C50_6 C45_6 1_555 1_555
H25_6 C50_6 1_555 1_555
C51_6 O16_6 1_555 1_555
C52_6 C53_6 1_555 1_555
C53_6 H26_6 1_555 1_555
C54_6 N6_6 1_555 1_555
H27_6 C54_6 1_555 1_555
C55_6 C47_6 1_555 1_555
C56_6 C52_6 1_555 1_555
H28_6 C56_6 1_555 1_555
C57_6 C52_6 1_555 1_555
Eu12 O7_4 1_555 1_555
Eu15 O7_4 1_555 1_555
O23_4 Eu9 1_555 1_555
O25_4 Eu16 1_555 1_555
O32_2 Eu16 1_555 1_555
C4_6 C5_6 1_555 1_555
O24_3 Eu16 1_555 1_555
C30_6 C31_6 1_555 1_555
O17_4 C51_6 1_555 1_555
O17_4 Eu15 1_555 1_555
C39_6 C44_6 1_555 1_555
C42_6 C43_6 1_555 1_555
C49_6 C50_6 1_555 1_555
C49_6 C51_6 1_555 1_555
C54_6 C55_6 1_555 1_555
C55_6 C56_6 1_555 1_555
Eu12 O23_4 1_555 1_555
O3_6 C13_6 1_555 1_555
O4_4 C13_6 1_555 1_555
O26_3 C19_6 1_555 1_555
O29_2 C19_6 1_555 1_555
N2_6 C15_6 1_555 1_555
C10_6 C9_6 1_555 1_555
H6_6 C10_6 1_555 1_555
C11_6 C10_6 1_555 1_555
C13_6 C11_6 1_555 1_555
C14_6 C15_6 1_555 1_555
C15_6 H8_6 1_555 1_555
C16_6 N2_6 1_555 1_555
H9_6 C16_6 1_555 1_555
C17_6 C9_6 1_555 1_555
C18_6 C14_6 1_555 1_555
H10_6 C18_6 1_555 1_555
C19_6 C14_6 1_555 1_555
Eu11_2 O3_6 1_555 1_555
O8_6 Eu11_2 1_555 1_555
O21_3 C25_6 1_555 1_555
O27_4 C38_6 1_555 1_555
O30_2 C38_6 1_555 1_555
N3_6 C21_6 1_555 1_555
N4_6 C34_6 1_555 1_555
C20_6 C21_6 1_555 1_555
C21_6 H11_6 1_555 1_555
C22_6 N3_6 1_555 1_555
H12_6 C22_6 1_555 1_555
C23_6 C22_6 1_555 1_555
C24_6 C20_6 1_555 1_555
H13_6 C24_6 1_555 1_555
C25_6 O8_6 1_555 1_555
C26_6 C23_6 1_555 1_555
C27_6 C26_6 1_555 1_555
H14_6 C27_6 1_555 1_555
C28_6 C27_6 1_555 1_555
C29_6 C28_6 1_555 1_555
H15_6 C29_6 1_555 1_555
C33_6 C34_6 1_555 1_555
C34_6 H17_6 1_555 1_555
C35_6 N4_6 1_555 1_555
H18_6 C35_6 1_555 1_555
C36_6 C28_6 1_555 1_555
C37_6 C33_6 1_555 1_555
H19_6 C37_6 1_555 1_555
C38_6 C33_6 1_555 1_555
Eu10 O4_4 1_555 1_555
O4_4 Eu11_2 1_555 1_555
C16_6 C17_6 1_555 1_555
C17_6 C18_6 1_555 1_555
C20_6 C25_6 1_555 1_555
C23_6 C24_6 1_555 1_555
C35_6 C36_6 1_555 1_555
C36_6 C37_6 1_555 1_555
Eu10 O33_2 1_555 1_555
O3_7 C13_7 1_555 1_555
O23_3 C13_7 1_555 1_555
H7_7 C12_7 1_555 1_555
C13_7 C11_7 1_555 1_555
Eu13 O3_7 1_555 1_555
O8_7 Eu13 1_555 1_555
O21_2 C25_7 1_555 1_555
O10_7 C32_7 1_555 1_555
O11_4 C32_7 1_555 1_555
O27 C38_7 1_555 1_555
O30_3 C38_7 1_555 1_555
N3_7 C21_7 1_555 1_555
N4_7 C34_7 1_555 1_555
C20_7 C21_7 1_555 1_555
C21_7 H11_7 1_555 1_555
C22_7 N3_7 1_555 1_555
H12_7 C22_7 1_555 1_555
C23_7 C22_7 1_555 1_555
C24_7 C20_7 1_555 1_555
H13_7 C24_7 1_555 1_555
C25_7 O8_7 1_555 1_555
C26_7 C23_7 1_555 1_555
C27_7 C26_7 1_555 1_555
H14_7 C27_7 1_555 1_555
C28_7 C27_7 1_555 1_555
C29_7 C28_7 1_555 1_555
H15_7 C29_7 1_555 1_555
C30_7 C29_7 1_555 1_555
C31_7 C26_7 1_555 1_555
H16_7 C31_7 1_555 1_555
C32_7 C30_7 1_555 1_555
C33_7 C34_7 1_555 1_555
C34_7 H17_7 1_555 1_555
C35_7 N4_7 1_555 1_555
H18_7 C35_7 1_555 1_555
C36_7 C28_7 1_555 1_555
C37_7 C33_7 1_555 1_555
H19_7 C37_7 1_555 1_555
C38_7 C33_7 1_555 1_555
Eu15 O10_7 1_555 1_555
O14_7 Eu15 1_555 1_555
O22 C44_7 1_555 1_555
N5_7 C40_7 1_555 1_555
C39_7 C40_7 1_555 1_555
C40_7 H20_7 1_555 1_555
C41_7 N5_7 1_555 1_555
H21_7 C41_7 1_555 1_555
C42_7 C41_7 1_555 1_555
C43_7 C39_7 1_555 1_555
H22_7 C43_7 1_555 1_555
C44_7 O14_7 1_555 1_555
C45_7 C42_7 1_555 1_555
C46_7 C45_7 1_555 1_555
H23_7 C46_7 1_555 1_555
C50_7 C45_7 1_555 1_555
H25_7 C50_7 1_555 1_555
Eu12 O11_4 1_555 1_555
O24_4 Eu13 1_555 1_555
C11_7 C12_7 1_555 1_555
O11_4 Eu15 1_555 1_555
C20_7 C25_7 1_555 1_555
C23_7 C24_7 1_555 1_555
C30_7 C31_7 1_555 1_555
C35_7 C36_7 1_555 1_555
C36_7 C37_7 1_555 1_555
C39_7 C44_7 1_555 1_555
C42_7 C43_7 1_555 1_555
Eu10_2 O1_7 1_555 1_555
O1_7 C6_7 1_555 1_555
O20_4 C6_7 1_555 1_555
O26_2 C19_7 1_555 1_555
O29_3 C19_7 1_555 1_555
H1_7 O32_2 1_555 1_555
N1_7 C2_7 1_555 1_555
N2_7 C15_7 1_555 1_555
C1_7 C2_7 1_555 1_555
C2_7 H2_7 1_555 1_555
C3_7 N1_7 1_555 1_555
H3_7 C3_7 1_555 1_555
C4_7 C3_7 1_555 1_555
C5_7 C1_7 1_555 1_555
H4_7 C5_7 1_555 1_555
C6_7 C1_7 1_555 1_555
C7_7 C4_7 1_555 1_555
C8_7 C7_7 1_555 1_555
H5_7 C8_7 1_555 1_555
C9_7 C8_7 1_555 1_555
C10_7 C9_7 1_555 1_555
H6_7 C10_7 1_555 1_555
C14_7 C15_7 1_555 1_555
C15_7 H8_7 1_555 1_555
C16_7 N2_7 1_555 1_555
H9_7 C16_7 1_555 1_555
C17_7 C9_7 1_555 1_555
C18_7 C14_7 1_555 1_555
H10_7 C18_7 1_555 1_555
C19_7 C14_7 1_555 1_555
O16_7 Eu10_2 1_555 1_555
O25_4 Eu10_2 1_555 1_555
O28_4 C57_7 1_555 1_555
O31_3 C57_7 1_555 1_555
N6_7 C53_7 1_555 1_555
C48_7 C47_7 1_555 1_555
H24_7 C48_7 1_555 1_555
C49_7 C48_7 1_555 1_555
C51_7 O16_7 1_555 1_555
C52_7 C53_7 1_555 1_555
C53_7 H26_7 1_555 1_555
C54_7 N6_7 1_555 1_555
H27_7 C54_7 1_555 1_555
C55_7 C47_7 1_555 1_555
C56_7 C52_7 1_555 1_555
H28_7 C56_7 1_555 1_555
C57_7 C52_7 1_555 1_555
C4_7 C5_7 1_555 1_555
C16_7 C17_7 1_555 1_555
C17_7 C18_7 1_555 1_555
O25_4 C51_7 1_555 1_555
C49_7 C51_7 1_555 1_555
C54_7 C55_7 1_555 1_555
C55_7 C56_7 1_555 1_555
Eu10 O1_8 1_555 1_555
O1_8 C6_8 1_555 1_555
O20_3 C6_8 1_555 1_555
O3_8 C13_8 1_555 1_555
O23_4 C13_8 1_555 1_555
O26 C19_8 1_555 1_555
O29_4 C19_8 1_555 1_555
H1_8 O33_2 1_555 1_555
N1_8 C2_8 1_555 1_555
N2_8 C15_8 1_555 1_555
C1_8 C2_8 1_555 1_555
C2_8 H2_8 1_555 1_555
C3_8 N1_8 1_555 1_555
H3_8 C3_8 1_555 1_555
C4_8 C3_8 1_555 1_555
C5_8 C1_8 1_555 1_555
H4_8 C5_8 1_555 1_555
C6_8 C1_8 1_555 1_555
C7_8 C4_8 1_555 1_555
C8_8 C7_8 1_555 1_555
H5_8 C8_8 1_555 1_555
C9_8 C8_8 1_555 1_555
C10_8 C9_8 1_555 1_555
H6_8 C10_8 1_555 1_555
C11_8 C10_8 1_555 1_555
C12_8 C7_8 1_555 1_555
H7_8 C12_8 1_555 1_555
C13_8 C11_8 1_555 1_555
C14_8 C15_8 1_555 1_555
C15_8 H8_8 1_555 1_555
C16_8 N2_8 1_555 1_555
H9_8 C16_8 1_555 1_555
C17_8 C9_8 1_555 1_555
C18_8 C14_8 1_555 1_555
H10_8 C18_8 1_555 1_555
C19_8 C14_8 1_555 1_555
Eu12 O3_8 1_555 1_555
O8_8 Eu12 1_555 1_555
O21 C25_8 1_555 1_555
N3_8 C21_8 1_555 1_555
C20_8 C21_8 1_555 1_555
C21_8 H11_8 1_555 1_555
C22_8 N3_8 1_555 1_555
H12_8 C22_8 1_555 1_555
C23_8 C22_8 1_555 1_555
C24_8 C20_8 1_555 1_555
H13_8 C24_8 1_555 1_555
C25_8 O8_8 1_555 1_555
C26_8 C23_8 1_555 1_555
C27_8 C26_8 1_555 1_555
H14_8 C27_8 1_555 1_555
C31_8 C26_8 1_555 1_555
H16_8 C31_8 1_555 1_555
O16_8 Eu10 1_555 1_555
O25_3 Eu10 1_555 1_555
H25_8 C50_8 1_555 1_555
C51_8 O16_8 1_555 1_555
C4_8 C5_8 1_555 1_555
C11_8 C12_8 1_555 1_555
C16_8 C17_8 1_555 1_555
C17_8 C18_8 1_555 1_555
C20_8 C25_8 1_555 1_555
C23_8 C24_8 1_555 1_555
O25_3 C51_8 1_555 1_555
C49_8 C50_8 1_555 1_555
C49_8 C51_8 1_555 1_555
O10_8 C32_8 1_555 1_555
O24_4 C32_8 1_555 1_555
O27_2 C38_8 1_555 1_555
O30_4 C38_8 1_555 1_555
N4_8 C34_8 1_555 1_555
C29_8 C28_8 1_555 1_555
H15_8 C29_8 1_555 1_555
C30_8 C29_8 1_555 1_555
C32_8 C30_8 1_555 1_555
C33_8 C34_8 1_555 1_555
C34_8 H17_8 1_555 1_555
C35_8 N4_8 1_555 1_555
H18_8 C35_8 1_555 1_555
C36_8 C28_8 1_555 1_555
C37_8 C33_8 1_555 1_555
H19_8 C37_8 1_555 1_555
C38_8 C33_8 1_555 1_555
Eu15_2 O10_8 1_555 1_555
O14_8 Eu15_2 1_555 1_555
O22_2 C44_8 1_555 1_555
O28_3 C57_8 1_555 1_555
O31_4 C57_8 1_555 1_555
N5_8 C40_8 1_555 1_555
N6_8 C53_8 1_555 1_555
C39_8 C40_8 1_555 1_555
C40_8 H20_8 1_555 1_555
C41_8 N5_8 1_555 1_555
H21_8 C41_8 1_555 1_555
C42_8 C41_8 1_555 1_555
C43_8 C39_8 1_555 1_555
H22_8 C43_8 1_555 1_555
C44_8 O14_8 1_555 1_555
C45_8 C42_8 1_555 1_555
C46_8 C45_8 1_555 1_555
H23_8 C46_8 1_555 1_555
C47_8 C46_8 1_555 1_555
C48_8 C47_8 1_555 1_555
H24_8 C48_8 1_555 1_555
C52_8 C53_8 1_555 1_555
C53_8 H26_8 1_555 1_555
C54_8 N6_8 1_555 1_555
H27_8 C54_8 1_555 1_555
C55_8 C47_8 1_555 1_555
C56_8 C52_8 1_555 1_555
H28_8 C56_8 1_555 1_555
C57_8 C52_8 1_555 1_555
O24_4 Eu15_2 1_555 1_555
C35_8 C36_8 1_555 1_555
C36_8 C37_8 1_555 1_555
C39_8 C44_8 1_555 1_555
C42_8 C43_8 1_555 1_555
C54_8 C55_8 1_555 1_555
C55_8 C56_8 1_555 1_555

#END
