
###############################################################################
#
# This file contains modified crystal structure data generated from the
# MOF subset of the Cambridge Structural Database (CSD) v543 
# hosted by the Cambridge Crystallographic Data Centre (CCDC).
#
# This work is licensed under the Creative Commons
# Attribution-NonCommercial-ShareAlike 4.0 International License.
# To view a copy of this license, visit
# http://creativecommons.org/licenses/by-nc-sa/4.0/
# or send a letter to
# Creative Commons, PO Box 1866, Mountain View, CA 94042, USA.
#
# CIF created using the CSD Python API on 29 September 2022
# The structure has been converted into the P1 space group
# The structure has a 3D framework
# The original CSD entry JAMLIT is in the triclinic crystal system
# The framework has been calculated to contain at least 10.0% void space
# The void calculation uses a probe of radius 1.32A, grid spacing 0.4
# The framework is charged, counterions have been retained in the structure
# H atom positions have been added when not included in the experimental data
#
###############################################################################

data_JAMLIT
_chemical_formula_moiety         '(C6 H8 Fe4 O20 P2 1-)n'
_symmetry_cell_setting           triclinic
_symmetry_space_group_name_H-M   'P 1'
_symmetry_Int_Tables_number      1
_space_group_name_Hall           'P 1'
loop_
_symmetry_equiv_pos_site_id
_symmetry_equiv_pos_as_xyz
1 x,y,z
_cell_length_a                   7.6329(2)
_cell_length_b                   7.9591(3)
_cell_length_c                   9.7361(3)
_cell_angle_alpha                75.7420(10)
_cell_angle_beta                 79.865(2)
_cell_angle_gamma                85.829(2)
_cell_volume                     564.045
loop_
_atom_site_label
_atom_site_type_symbol
_atom_site_fract_x
_atom_site_fract_y
_atom_site_fract_z
_atom_site_U_iso_or_equiv
_atom_site_thermal_displace_type
O28 O 0.0585(3) 0.0326(2) 0.1469(2) 0.0191 Uani
P2 P 0.07523(9) 0.22706(8) 0.09534(7) 0.0138 Uani
O17 O 0.2800(3) 0.2653(3) 0.0807(2) 0.0238 Uani
H2 H 0.289(5) 0.366(5) 0.100(4) 0.0470 Uiso
Fe8 Fe 0.17793(5) 0.80667(5) 0.13090(4) 0.0151 Uani
Fe1 Fe 0.14824(5) 0.46827(5) 0.75200(4) 0.0147 Uani
O1 O 0.3350(3) 0.2611(3) 0.7209(2) 0.0237 Uani
O2 O 0.3986(3) 0.5494(3) 0.7937(3) 0.0267 Uani
O5 O 0.0301(3) 0.6840(3) 0.7940(2) 0.0250 Uani
O7 O 0.5888(3) 0.1399(3) 0.7882(2) 0.0222 Uani
O8 O 0.6577(3) 0.4335(3) 0.8550(2) 0.0241 Uani
C1 C 0.4761(4) 0.2632(3) 0.7690(3) 0.0174 Uani
C2 C 0.5152(4) 0.4301(3) 0.8095(3) 0.0169 Uani
C4 C 0.0683(3) 0.5709(3) 0.4585(3) 0.0151 Uani
O12 O 0.0370(3) 0.6497(2) 0.3337(2) 0.0186 Uani
O13 O 0.1912(3) 0.5971(3) 0.5167(2) 0.0229 Uani
O16 O 0.0229(3) 0.2962(2) 0.9459(2) 0.0191 Uani
Fe6 Fe 0.82207(5) 0.19333(5) 0.86910(4) 0.0151 Uani
O29 O 0.4112(3) 0.8601(3) 0.2118(2) 0.0222 Uani
O30 O 0.3423(3) 0.5665(3) 0.1450(2) 0.0241 Uani
O22 O 0.3252(4) 0.8794(5) 0.9155(3) 0.0641 Uani
H5 H 0.255972 0.851244 0.847192 . .
O9 O 0.6748(4) 0.1206(5) 0.0845(3) 0.0641 Uani
O10 O 0.9771(3) 0.7038(2) 0.0541(2) 0.0191 Uani
O14 O 0.9699(3) 0.3160(3) 0.2060(2) 0.0250 Uani
Fe7 Fe 0.85176(5) 0.53173(5) 0.24800(4) 0.0147 Uani
H3 H 0.558608 0.185475 0.0893082 . .
P1 P 0.92477(9) 0.77294(8) 0.90466(7) 0.0138 Uani
O3 O 0.9630(3) 0.3503(2) 0.6663(2) 0.0186 Uani
O4 O 0.8088(3) 0.4029(3) 0.4833(2) 0.0229 Uani
O6 O 0.9415(3) 0.9674(2) 0.8531(2) 0.0191 Uani
O11 O 0.7200(3) 0.7347(3) 0.9193(2) 0.0238 Uani
H1 H 0.711(5) 0.634(5) 0.900(4) 0.0470 Uiso
C3 C 0.9317(3) 0.4291(3) 0.5415(3) 0.0151 Uani
O24 O 0.6650(3) 0.7389(3) 0.2791(2) 0.0237 Uani
O25 O 0.6014(3) 0.4506(3) 0.2063(3) 0.0267 Uani
C5 C 0.5239(4) 0.7368(3) 0.2310(3) 0.0174 Uani
C6 C 0.4848(4) 0.5699(3) 0.1905(3) 0.0169 Uani
H3_2 H 0.441392 0.814525 0.910692 . .
H5_2 H 0.744028 0.148756 0.152808 . .
H6 H 0.345953 0.00587374 0.889572 . .
H4 H 0.654047 0.994126 0.110428 . .
loop_
_atom_site_aniso_label
_atom_site_aniso_U_11
_atom_site_aniso_U_22
_atom_site_aniso_U_33
_atom_site_aniso_U_23
_atom_site_aniso_U_13
_atom_site_aniso_U_12
O28 0.0231 0.0116 0.0217 -0.0033 -0.0025 0.001
P2 0.0158 0.012 0.0139 -0.0034 -0.0032 0.0006
O17 0.0202 0.0251 0.028 -0.0079 -0.0046 -0.0064
Fe8 0.0158 0.01263 0.0171 -0.00293 -0.00428 0.00028
Fe1 0.01558 0.01376 0.0154 -0.00432 -0.00354 0.00055
O1 0.0206 0.0255 0.0308 -0.0139 -0.012 0.0054
O2 0.0188 0.0147 0.0468 -0.0078 -0.0061 0.0015
O5 0.033 0.0214 0.021 -0.0084 -0.0052 0.0101
O7 0.0187 0.0184 0.034 -0.0112 -0.0112 0.0049
O8 0.0187 0.0204 0.0379 -0.0142 -0.0071 0.0002
C1 0.0174 0.0176 0.0177 -0.0054 -0.0032 0.002
C2 0.0164 0.0161 0.0168 -0.0028 0 -0.0023
C4 0.0155 0.0159 0.0135 -0.0035 -0.0018 0.0002
O12 0.0201 0.0196 0.0145 0.0009 -0.0041 -0.0047
O13 0.0235 0.0279 0.0175 -0.0013 -0.0065 -0.0081
O16 0.0232 0.0192 0.0146 0.0004 -0.0069 -0.0048
Fe6 0.0158 0.01263 0.0171 -0.00293 -0.00428 0.00028
O29 0.0187 0.0184 0.034 -0.0112 -0.0112 0.0049
O30 0.0187 0.0204 0.0379 -0.0142 -0.0071 0.0002
O22 0.071 0.104 0.0188 -0.0081 0.0055 -0.0669
O9 0.071 0.104 0.0188 -0.0081 0.0055 -0.0669
O10 0.0232 0.0192 0.0146 0.0004 -0.0069 -0.0048
O14 0.033 0.0214 0.021 -0.0084 -0.0052 0.0101
Fe7 0.01558 0.01376 0.0154 -0.00432 -0.00354 0.00055
P1 0.0158 0.012 0.0139 -0.0034 -0.0032 0.0006
O3 0.0201 0.0196 0.0145 0.0009 -0.0041 -0.0047
O4 0.0235 0.0279 0.0175 -0.0013 -0.0065 -0.0081
O6 0.0231 0.0116 0.0217 -0.0033 -0.0025 0.001
O11 0.0202 0.0251 0.028 -0.0079 -0.0046 -0.0064
C3 0.0155 0.0159 0.0135 -0.0035 -0.0018 0.0002
O24 0.0206 0.0255 0.0308 -0.0139 -0.012 0.0054
O25 0.0188 0.0147 0.0468 -0.0078 -0.0061 0.0015
C5 0.0174 0.0176 0.0177 -0.0054 -0.0032 0.002
C6 0.0164 0.0161 0.0168 -0.0028 0 -0.0023
loop_
_geom_bond_atom_site_label_1
_geom_bond_atom_site_label_2
_geom_bond_site_symmetry_1
_geom_bond_site_symmetry_2
O28 P2 1_555 1_555
O17 P2 1_555 1_555
H2 O17 1_555 1_555
Fe1 O1 1_555 1_555
O1 C1 1_555 1_555
O2 Fe1 1_555 1_555
O5 Fe1 1_555 1_555
O7 C1 1_555 1_555
O8 C2 1_555 1_555
C1 C2 1_555 1_555
C2 O2 1_555 1_555
O12 C4 1_555 1_555
O13 Fe1 1_555 1_555
O16 Fe1 1_555 1_555
Fe8 O12 1_555 1_555
Fe6 O7 1_555 1_555
O29 Fe8 1_555 1_555
O30 Fe8 1_555 1_555
O8 Fe6 1_555 1_555
C4 O13 1_555 1_555
O22 H5 1_555 1_555
O14 Fe7 1_555 1_555
Fe7 O10 1_555 1_555
O9 H3 1_555 1_555
Fe6 O3 1_555 1_555
O4 C3 1_555 1_555
O6 P1 1_555 1_555
O11 P1 1_555 1_555
H1 O11 1_555 1_555
C3 O3 1_555 1_555
Fe7 O4 1_555 1_555
O24 Fe7 1_555 1_555
O25 Fe7 1_555 1_555
O24 C5 1_555 1_555
O25 C6 1_555 1_555
C5 O29 1_555 1_555
C6 O30 1_555 1_555
C5 C6 1_555 1_555
O22 H3_2 1_555 1_555
O9 H5_2 1_555 1_555

#END
