
###############################################################################
#
# This file contains modified crystal structure data generated from the
# MOF subset of the Cambridge Structural Database (CSD) v543 
# hosted by the Cambridge Crystallographic Data Centre (CCDC).
#
# This work is licensed under the Creative Commons
# Attribution-NonCommercial-ShareAlike 4.0 International License.
# To view a copy of this license, visit
# http://creativecommons.org/licenses/by-nc-sa/4.0/
# or send a letter to
# Creative Commons, PO Box 1866, Mountain View, CA 94042, USA.
#
# CIF created using the CSD Python API on 29 September 2022
# The structure has been converted into the P1 space group
# The structure has a 3D framework
# The original CSD entry JANQOI is in the monoclinic crystal system
# The framework has been calculated to contain at least 10.0% void space
# The void calculation uses a probe of radius 1.32A, grid spacing 0.4
# H atom positions have been added when not included in the experimental data
#
###############################################################################

data_JANQOI
_chemical_formula_moiety         '(C160 H144 N8 O92 Zn16)n'
_symmetry_cell_setting           triclinic
_symmetry_space_group_name_H-M   'P 1'
_symmetry_Int_Tables_number      1
_space_group_name_Hall           'P 1'
loop_
_symmetry_equiv_pos_site_id
_symmetry_equiv_pos_as_xyz
1 x,y,z
_cell_length_a                   18.4806(7)
_cell_length_b                   14.6239(6)
_cell_length_c                   25.2382(10)
_cell_angle_alpha                90
_cell_angle_beta                 90.6950(10)
_cell_angle_gamma                90
_cell_volume                     6820.33
loop_
_atom_site_label
_atom_site_type_symbol
_atom_site_fract_x
_atom_site_fract_y
_atom_site_fract_z
Zn8 Zn 0.09509(2) 0.28497(3) 0.176762(15)
Zn10 Zn 0.01044(2) 0.24789(3) 0.053115(16)
Zn12 Zn 0.01044(2) 0.25211(3) 0.553115(16)
Zn1 Zn 0.59827(2) 0.18122(3) 0.048067(15)
Zn2 Zn 0.51717(2) 0.20547(3) 0.168822(16)
O2 O 0.49226(13) 0.1987(2) 0.03806(10)
O3 O 0.44252(14) 0.2306(2) 0.11596(10)
O4 O 0.17836(14) 0.2823(2) 0.12535(11)
O5 O 0.11459(15) 0.2838(3) 0.05057(11)
O10 O 0.77153(13) 0.3597(2) 0.30289(9)
O11 O 0.98989(14) 0.2993(2) 0.18623(12)
O12 O 0.93903(14) 0.2836(2) 0.10526(11)
O13 O 0.68059(14) 0.2217(2) 0.09307(10)
O14 O 0.60834(13) 0.2724(2) 0.15639(11)
O15 O 0.96916(14) 0.31638(19) 0.49044(10)
O16 O 0.88887(17) 0.2144(2) 0.46237(13)
O17 O 0.9651(2) 0.6236(2) 0.41357(13)
O18 O 0.91582(16) 0.64744(19) 0.33534(11)
O19 O 0.61264(18) 0.2977(3) 0.00434(15)
O22 O 0.14193(16) 0.2628(2) 0.24788(10)
H3 H 0.1696 0.2191 0.2459
O23 O 0.10617(18) 0.4240(2) 0.19095(13)
N2 N 0.0568(2) 0.5612(3) 0.2033(2)
C3 C 0.36788(19) 0.2320(3) 0.04043(13)
C4 C 0.44036(18) 0.2197(3) 0.06647(14)
C5 C 0.30638(18) 0.2485(3) 0.07017(13)
H5 H 0.3098 0.2523 0.1069
C6 C 0.23979(18) 0.2593(3) 0.04485(13)
C7 C 0.1712(2) 0.2755(3) 0.07561(15)
C17 C 0.78630(18) 0.3359(2) 0.25138(13)
C18 C 0.85430(18) 0.3310(3) 0.23053(13)
H10 H 0.8948 0.3458 0.2510
C19 C 0.86161(18) 0.3035(3) 0.17789(14)
C20 C 0.9363(2) 0.2944(3) 0.15435(15)
C21 C 0.80279(18) 0.2823(2) 0.14772(13)
H11 H 0.8086 0.2648 0.1126
C22 C 0.73501(18) 0.2865(3) 0.16874(13)
C23 C 0.66945(19) 0.2570(3) 0.13728(14)
C24 C 0.72577(18) 0.3153(2) 0.22074(13)
H12 H 0.6796 0.3206 0.2347
C25 C 0.82823(19) 0.3861(3) 0.33743(14)
C26 C 0.8476(2) 0.3271(3) 0.37688(14)
H13 H 0.8280 0.2686 0.3779
C27 C 0.89705(19) 0.3553(2) 0.41563(13)
C28 C 0.9190(2) 0.2900(3) 0.45981(15)
C29 C 0.92368(19) 0.4439(3) 0.41443(13)
H14 H 0.9543 0.4637 0.4416
C30 C 0.90561(19) 0.5035(3) 0.37365(13)
C31 C 0.9314(2) 0.6003(3) 0.37483(15)
C32 C 0.85630(19) 0.4737(3) 0.33445(13)
H15 H 0.8427 0.5123 0.3068
C37 C 0.0828(3) 0.4969(3) 0.1730(2)
C38 C 0.0860(4) 0.5194(5) 0.1131(2)
H25 H 0.1186 0.4779 0.0961
H26 H 0.1028 0.5810 0.1086
H27 H 0.0385 0.5133 0.0976
C39 C 0.0381(5) 0.6543(4) 0.1879(3)
H28 H 0.0626 0.6698 0.1558
H29 H 0.0526 0.6958 0.2155
C40 C 0.0493(5) 0.5407(7) 0.2615(3)
H32 H 0.0691 0.5903 0.2819
H33 H 0.0749 0.4854 0.2699
Zn9 Zn 0.90491(2) 0.78497(3) 0.323238(15)
Zn11 Zn 0.98956(2) 0.74789(3) 0.446885(16)
O24 O 0.48860(15) 0.2772(2) 0.22927(10)
O25 O 0.5844(2) 0.0689(2) 0.09718(12)
O26 O 0.54482(17) 0.0784(2) 0.17946(12)
O30 O 0.0349(2) 0.1236(2) 0.08643(13)
O31 O 0.08418(16) 0.14744(19) 0.16466(11)
H36 H 0.104052 0.249491 0.274365
O1 O 0.28409(14) 0.2354(2) 0.90660(9)
O6 O 0.48860(15) 0.2228(2) 0.72927(10)
O7 O 0.39889(17) 0.3182(2) 0.73373(12)
H1 H 0.5889 0.2941 0.9768
O20 O 0.63934(15) 0.0943(2) 0.99647(11)
N1 N 0.6653(2) 0.0209(3) 0.92263(13)
C1 C 0.29542(19) 0.2373(3) 0.96113(13)
C2 C 0.36170(18) 0.2269(3) 0.98497(13)
H4 H 0.4025 0.2166 0.9646
C8 C 0.23433(18) 0.2533(3) 0.99082(14)
H6 H 0.1895 0.2599 0.9741
C9 C 0.33435(19) 0.1914(3) 0.87514(13)
C10 C 0.3569(2) 0.2386(3) 0.83144(13)
H7 H 0.3404 0.2977 0.8251
C11 C 0.40463(19) 0.1977(3) 0.79681(13)
C12 C 0.4319(2) 0.2516(3) 0.74924(14)
C13 C 0.4287(2) 0.1096(3) 0.80489(14)
H8 H 0.4614 0.0829 0.7819
C14 C 0.40264(19) 0.0610(3) 0.84879(14)
C16 C 0.35528(19) 0.1031(3) 0.88419(13)
H9 H 0.3383 0.0713 0.9135
C33 C 0.6210(2) 0.0710(4) 0.95083(19)
C34 C 0.5507(4) 0.1035(6) 0.9284(3)
H16 H 0.5131 0.0614 0.9376
H17 H 0.5539 0.1075 0.8905
H18 H 0.5398 0.1628 0.9426
H21 H 0.6246 0.0383 0.8493
H22 H 0.7574 0.0466 0.9594
Zn7 Zn 0.51717(2) 0.29453(3) 0.668822(16)
H34 H 0.0375134 0.397298 0.997195
H35 H 0.664676 0.30466 0.995851
O8 O 0.4156(2) 0.9311(2) 0.90282(12)
O9 O 0.45518(17) 0.9216(2) 0.82054(12)
C15 C 0.4247(2) 0.9623(3) 0.85824(16)
C35 C 0.6502(3) 0.9909(4) 0.86801(18)
H19 H 0.6211 0.9365 0.8686
H20 H 0.6949 0.9782 0.8505
C36 C 0.7322(3) 0.9936(4) 0.9463(2)
H23 H 0.7613 0.9634 0.9203
H24 H 0.7231 0.9525 0.9751
Zn5 Zn 0.40173(2) 0.81878(3) 0.951933(15)
Zn6 Zn 0.48283(2) 0.79453(3) 0.831178(16)
O21 O 0.99215(17) 0.3768(2) 0.01422(12)
H30 H 0.9867 0.6587 0.1822
H31 H 0.9990 0.5334 0.2696
H2 H 0.9603 0.3709 0.9916
O29 O 0.96916(14) 0.18362(19) 0.99044(10)
O21_2 O 0.00785(17) 0.8768(2) 0.48578(12)
H2_2 H 0.0397 0.8709 0.5084
O27 O 0.01011(14) 0.7993(2) 0.31377(12)
O28 O 0.06097(14) 0.7836(2) 0.39474(11)
O29_2 O 0.03084(14) 0.68362(19) 0.50956(10)
N2_2 N 0.9432(2) 0.0612(3) 0.2967(2)
C30_2 C 0.09439(19) 0.0035(3) 0.12635(13)
C31_2 C 0.0686(2) 0.1003(3) 0.12517(15)
H15_2 H 0.1573 0.0123 0.1932
C38_2 C 0.9140(4) 0.0194(5) 0.3869(2)
H26_2 H 0.8972 0.0810 0.3914
H27_2 H 0.9615 0.0133 0.4024
C39_2 C 0.9619(5) 0.1543(4) 0.3121(3)
H28_2 H 0.9374 0.1698 0.3442
H29_2 H 0.9474 0.1958 0.2845
C40_2 C 0.9507(5) 0.0407(7) 0.2385(3)
H32_2 H 0.9309 0.0903 0.2181
Zn1_2 Zn 0.40173(2) 0.68122(3) 0.451933(15)
Zn2_2 Zn 0.48283(2) 0.70547(3) 0.331178(16)
O1_2 O 0.71591(14) 0.7354(2) 0.59340(9)
O2_2 O 0.50774(13) 0.6987(2) 0.46194(10)
O3_2 O 0.55748(14) 0.7306(2) 0.38404(10)
O4_2 O 0.82164(14) 0.7823(2) 0.37465(11)
O5_2 O 0.88541(15) 0.7838(3) 0.44943(11)
O6_2 O 0.51140(15) 0.7228(2) 0.77073(10)
O7_2 O 0.60111(17) 0.8182(2) 0.76627(12)
O8_2 O 0.5844(2) 0.4311(2) 0.59718(12)
O9_2 O 0.54482(17) 0.4216(2) 0.67946(12)
O10_2 O 0.22847(13) 0.8597(2) 0.19711(9)
O13_2 O 0.31941(14) 0.7217(2) 0.40693(10)
O14_2 O 0.39166(13) 0.7724(2) 0.34361(11)
O15_2 O 0.03084(14) 0.81638(19) 0.00956(10)
O16_2 O 0.11113(17) 0.7144(2) 0.03763(13)
O19_2 O 0.38736(18) 0.7977(3) 0.49566(15)
H1_2 H 0.4111 0.7941 0.5232
O20_2 O 0.36066(15) 0.5943(2) 0.50353(11)
O22_2 O 0.85807(16) 0.7628(2) 0.25212(10)
H3_2 H 0.8304 0.7191 0.2541
O23_2 O 0.89383(18) 0.9240(2) 0.30905(13)
N1_2 N 0.3347(2) 0.5209(3) 0.57737(13)
C1_2 C 0.70458(19) 0.7373(3) 0.53887(13)
C2_2 C 0.63830(18) 0.7269(3) 0.51503(13)
H4_2 H 0.5975 0.7166 0.5354
C3_2 C 0.63212(19) 0.7320(3) 0.45957(13)
C4_2 C 0.55964(18) 0.7197(3) 0.43353(14)
C5_2 C 0.69362(18) 0.7485(3) 0.42983(13)
H5_2 H 0.6902 0.7523 0.3931
C6_2 C 0.76021(18) 0.7593(3) 0.45515(13)
C7_2 C 0.8288(2) 0.7755(3) 0.42439(15)
C8_2 C 0.76567(18) 0.7533(3) 0.50918(14)
H6_2 H 0.8105 0.7599 0.5259
C9_2 C 0.66565(19) 0.6914(3) 0.62486(13)
C10_2 C 0.6431(2) 0.7386(3) 0.66856(13)
H7_2 H 0.6596 0.7977 0.6749
C11_2 C 0.59537(19) 0.6977(3) 0.70319(13)
C12_2 C 0.5681(2) 0.7516(3) 0.75076(14)
C13_2 C 0.5713(2) 0.6096(3) 0.69511(14)
H8_2 H 0.5386 0.5829 0.7181
C14_2 C 0.59736(19) 0.5610(3) 0.65121(14)
C15_2 C 0.5753(2) 0.4623(3) 0.64176(16)
C16_2 C 0.64472(19) 0.6031(3) 0.61581(13)
H9_2 H 0.6617 0.5713 0.5865
C17_2 C 0.21370(18) 0.8359(2) 0.24862(13)
C18_2 C 0.14570(18) 0.8310(3) 0.26947(13)
H10_2 H 0.1052 0.8458 0.2490
C19_2 C 0.13839(18) 0.8035(3) 0.32211(14)
C20_2 C 0.0637(2) 0.7944(3) 0.34565(15)
C21_2 C 0.19721(18) 0.7823(2) 0.35228(13)
H11_2 H 0.1914 0.7648 0.3874
C22_2 C 0.26499(18) 0.7865(3) 0.33126(13)
C23_2 C 0.33055(19) 0.7570(3) 0.36272(14)
C24_2 C 0.27423(18) 0.8153(2) 0.27926(13)
H12_2 H 0.3204 0.8206 0.2653
C25_2 C 0.17177(19) 0.8861(3) 0.16257(14)
C26_2 C 0.1524(2) 0.8271(3) 0.12312(14)
H13_2 H 0.1720 0.7686 0.1221
C27_2 C 0.10295(19) 0.8553(2) 0.08437(13)
C28_2 C 0.0810(2) 0.7900(3) 0.04019(15)
C29_2 C 0.07632(19) 0.9439(3) 0.08557(13)
H14_2 H 0.0457 0.9637 0.0584
C32_2 C 0.14370(19) 0.9737(3) 0.16555(13)
C33_2 C 0.3790(2) 0.5710(4) 0.54917(19)
C34_2 C 0.4493(4) 0.6035(6) 0.5716(3)
H16_2 H 0.4869 0.5614 0.5624
H17_2 H 0.4461 0.6075 0.6095
H18_2 H 0.4602 0.6628 0.5574
C35_2 C 0.3498(3) 0.4909(4) 0.63199(18)
H19_2 H 0.3789 0.4365 0.6314
H20_2 H 0.3051 0.4782 0.6495
H21_2 H 0.3754 0.5383 0.6507
C36_2 C 0.2678(3) 0.4936(4) 0.5537(2)
H22_2 H 0.2426 0.5466 0.5406
H23_2 H 0.2387 0.4634 0.5797
H24_2 H 0.2769 0.4525 0.5249
C37_2 C 0.9172(3) 0.9969(3) 0.3270(2)
H25_2 H 0.8814 0.9779 0.4039
H33_2 H 0.9251 0.9854 0.2301
Zn5_2 Zn 0.59827(2) 0.31878(3) 0.548067(15)
O24_2 O 0.51140(15) 0.7772(2) 0.27073(10)
O25_2 O 0.4156(2) 0.5689(2) 0.40282(12)
O26_2 O 0.45518(17) 0.5784(2) 0.32054(12)
H34_2 H 0.962487 0.897298 0.502805
H35_2 H 0.335324 0.80466 0.504149
H36_2 H 0.895948 0.749491 0.225635
Zn12_2 Zn 0.98956(2) 0.75211(3) 0.946885(16)
H2_3 H 0.0397 0.6291 0.0084
O21_3 O 0.00785(17) 0.6232(2) 0.98578(12)
H30_2 H 0.0133 0.3413 0.8178
H31_2 H 0.0010 0.4666 0.7304
O27_2 O 0.01011(14) 0.7007(2) 0.81377(12)
O28_2 O 0.06097(14) 0.7164(2) 0.89474(11)
C15_3 C 0.5753(2) 0.0377(3) 0.14176(16)
C35_3 C 0.3498(3) 0.0091(4) 0.13199(18)
H19_3 H 0.3789 0.0635 0.1314
H20_3 H 0.3051 0.0218 0.1495
C36_3 C 0.2678(3) 0.0064(4) 0.0537(2)
H23_3 H 0.2387 0.0366 0.0797
H24_3 H 0.2769 0.0475 0.0249
O1_3 O 0.71591(14) 0.7646(2) 0.09340(9)
O7_3 O 0.60111(17) 0.6818(2) 0.26627(12)
H1_3 H 0.4111 0.7059 0.0232
O20_3 O 0.36066(15) 0.9057(2) 0.00353(11)
N1_3 N 0.3347(2) 0.9791(3) 0.07737(13)
C1_3 C 0.70458(19) 0.7627(3) 0.03887(13)
C2_3 C 0.63830(18) 0.7731(3) 0.01503(13)
H4_3 H 0.5975 0.7834 0.0354
C8_3 C 0.76567(18) 0.7467(3) 0.00918(14)
H6_3 H 0.8105 0.7401 0.0259
C9_3 C 0.66565(19) 0.8086(3) 0.12486(13)
C10_3 C 0.6431(2) 0.7614(3) 0.16856(13)
H7_3 H 0.6596 0.7023 0.1749
C11_3 C 0.59537(19) 0.8023(3) 0.20319(13)
C12_3 C 0.5681(2) 0.7484(3) 0.25076(14)
C13_3 C 0.5713(2) 0.8904(3) 0.19511(14)
H8_3 H 0.5386 0.9171 0.2181
C14_3 C 0.59736(19) 0.9390(3) 0.15121(14)
C16_3 C 0.64472(19) 0.8969(3) 0.11581(13)
H9_3 H 0.6617 0.9287 0.0865
C33_3 C 0.3790(2) 0.9290(4) 0.04917(19)
C34_3 C 0.4493(4) 0.8965(6) 0.0716(3)
H16_3 H 0.4869 0.9386 0.0624
H17_3 H 0.4461 0.8925 0.1095
H18_3 H 0.4602 0.8372 0.0574
H21_3 H 0.3754 0.9617 0.1507
H22_3 H 0.2426 0.9534 0.0406
H34_3 H 0.962487 0.602702 0.00280525
H35_3 H 0.335324 0.69534 0.00414878
Zn3 Zn 0.90491(2) 0.71503(3) 0.823238(15)
O2_3 O 0.50774(13) 0.8013(2) 0.96194(10)
O3_3 O 0.55748(14) 0.7694(2) 0.88404(10)
O4_3 O 0.82164(14) 0.7177(2) 0.87465(11)
O5_3 O 0.88541(15) 0.7162(3) 0.94943(11)
O10_3 O 0.22847(13) 0.6403(2) 0.69711(9)
O13_3 O 0.31941(14) 0.7783(2) 0.90693(10)
O14_3 O 0.39166(13) 0.7276(2) 0.84361(11)
O16_3 O 0.11113(17) 0.7856(2) 0.53763(13)
O17_2 O 0.0349(2) 0.3764(2) 0.58643(13)
O18_2 O 0.08418(16) 0.35256(19) 0.66466(11)
O19_3 O 0.38736(18) 0.7023(3) 0.99566(15)
O22_3 O 0.85807(16) 0.7372(2) 0.75212(10)
H3_3 H 0.8304 0.7809 0.7541
O23_3 O 0.89383(18) 0.5760(2) 0.80905(13)
N2_3 N 0.9432(2) 0.4388(3) 0.7967(2)
C3_3 C 0.63212(19) 0.7680(3) 0.95957(13)
C4_3 C 0.55964(18) 0.7803(3) 0.93353(14)
C5_3 C 0.69362(18) 0.7515(3) 0.92983(13)
H5_3 H 0.6902 0.7477 0.8931
C6_3 C 0.76021(18) 0.7407(3) 0.95515(13)
C7_3 C 0.8288(2) 0.7245(3) 0.92439(15)
C17_3 C 0.21370(18) 0.6641(2) 0.74862(13)
C18_3 C 0.14570(18) 0.6690(3) 0.76947(13)
H10_3 H 0.1052 0.6542 0.7490
C19_3 C 0.13839(18) 0.6965(3) 0.82211(14)
C20_3 C 0.0637(2) 0.7056(3) 0.84565(15)
C21_3 C 0.19721(18) 0.7177(2) 0.85228(13)
H11_3 H 0.1914 0.7352 0.8874
C22_3 C 0.26499(18) 0.7135(3) 0.83126(13)
C23_3 C 0.33055(19) 0.7430(3) 0.86272(14)
C24_3 C 0.27423(18) 0.6847(2) 0.77926(13)
H12_3 H 0.3204 0.6794 0.7653
C25_3 C 0.17177(19) 0.6139(3) 0.66257(14)
C26_3 C 0.1524(2) 0.6729(3) 0.62312(14)
H13_3 H 0.1720 0.7314 0.6221
C27_3 C 0.10295(19) 0.6447(2) 0.58437(13)
C28_3 C 0.0810(2) 0.7100(3) 0.54019(15)
C29_3 C 0.07632(19) 0.5561(3) 0.58557(13)
H14_3 H 0.0457 0.5363 0.5584
C30_3 C 0.09439(19) 0.4965(3) 0.62635(13)
C31_3 C 0.0686(2) 0.3997(3) 0.62517(15)
C32_3 C 0.14370(19) 0.5263(3) 0.66555(13)
H15_3 H 0.1573 0.4877 0.6932
C37_3 C 0.9172(3) 0.5031(3) 0.8270(2)
C38_3 C 0.9140(4) 0.4806(5) 0.8869(2)
H25_3 H 0.8814 0.5221 0.9039
H26_3 H 0.8972 0.4190 0.8914
H27_3 H 0.9615 0.4867 0.9024
C39_3 C 0.9619(5) 0.3457(4) 0.8121(3)
H28_3 H 0.9374 0.3302 0.8442
H29_3 H 0.9474 0.3042 0.7845
C40_3 C 0.9507(5) 0.4593(7) 0.7385(3)
H32_3 H 0.9309 0.4097 0.7181
H33_3 H 0.9251 0.5146 0.7301
Zn9_2 Zn 0.09509(2) 0.21503(3) 0.676762(15)
O30_2 O 0.9651(2) 0.8764(2) 0.91357(13)
O31_2 O 0.91582(16) 0.85256(19) 0.83534(11)
H36_3 H 0.895948 0.750509 0.725635
O1_4 O 0.28409(14) 0.2646(2) 0.40660(9)
O2_4 O 0.49226(13) 0.3013(2) 0.53806(10)
O3_4 O 0.44252(14) 0.2694(2) 0.61596(10)
O4_4 O 0.17836(14) 0.2177(2) 0.62535(11)
O5_4 O 0.11459(15) 0.2162(3) 0.55057(11)
O7_4 O 0.39889(17) 0.1818(2) 0.23373(12)
O10_4 O 0.77153(13) 0.1403(2) 0.80289(9)
O11_2 O 0.98989(14) 0.2007(2) 0.68623(12)
O12_2 O 0.93903(14) 0.2164(2) 0.60526(11)
O13_4 O 0.68059(14) 0.2783(2) 0.59307(10)
O14_4 O 0.60834(13) 0.2276(2) 0.65639(11)
O16_4 O 0.88887(17) 0.2856(2) 0.96237(13)
O19_4 O 0.61264(18) 0.2023(3) 0.50434(15)
H1_4 H 0.5889 0.2059 0.4768
O20_4 O 0.63934(15) 0.4057(2) 0.49647(11)
O22_4 O 0.14193(16) 0.2372(2) 0.74788(10)
H3_4 H 0.1696 0.2809 0.7459
O23_4 O 0.10617(18) 0.0760(2) 0.69095(13)
N1_4 N 0.6653(2) 0.4791(3) 0.42263(13)
C1_4 C 0.29542(19) 0.2627(3) 0.46113(13)
C2_4 C 0.36170(18) 0.2731(3) 0.48497(13)
H4_4 H 0.4025 0.2834 0.4646
C3_4 C 0.36788(19) 0.2680(3) 0.54043(13)
C4_4 C 0.44036(18) 0.2803(3) 0.56647(14)
C5_4 C 0.30638(18) 0.2515(3) 0.57017(13)
H5_4 H 0.3098 0.2477 0.6069
C6_4 C 0.23979(18) 0.2407(3) 0.54485(13)
C7_4 C 0.1712(2) 0.2245(3) 0.57561(15)
C8_4 C 0.23433(18) 0.2467(3) 0.49082(14)
H6_4 H 0.1895 0.2401 0.4741
C9_4 C 0.33435(19) 0.3086(3) 0.37514(13)
C10_4 C 0.3569(2) 0.2614(3) 0.33144(13)
H7_4 H 0.3404 0.2023 0.3251
C11_4 C 0.40463(19) 0.3023(3) 0.29681(13)
C12_4 C 0.4319(2) 0.2484(3) 0.24924(14)
C13_4 C 0.4287(2) 0.3904(3) 0.30489(14)
H8_4 H 0.4614 0.4171 0.2819
C14_4 C 0.40264(19) 0.4390(3) 0.34879(14)
C15_4 C 0.4247(2) 0.5377(3) 0.35824(16)
C16_4 C 0.35528(19) 0.3969(3) 0.38419(13)
H9_4 H 0.3383 0.4287 0.4135
C17_4 C 0.78630(18) 0.1641(2) 0.75138(13)
C18_4 C 0.85430(18) 0.1690(3) 0.73053(13)
H10_4 H 0.8948 0.1542 0.7510
C19_4 C 0.86161(18) 0.1965(3) 0.67789(14)
C20_4 C 0.9363(2) 0.2056(3) 0.65435(15)
C21_4 C 0.80279(18) 0.2177(2) 0.64772(13)
H11_4 H 0.8086 0.2352 0.6126
C22_4 C 0.73501(18) 0.2135(3) 0.66874(13)
C23_4 C 0.66945(19) 0.2430(3) 0.63728(14)
C24_4 C 0.72577(18) 0.1847(2) 0.72074(13)
H12_4 H 0.6796 0.1794 0.7347
C25_4 C 0.82823(19) 0.1139(3) 0.83743(14)
C26_4 C 0.8476(2) 0.1729(3) 0.87688(14)
H13_4 H 0.8280 0.2314 0.8779
C27_4 C 0.89705(19) 0.1447(2) 0.91563(13)
C28_4 C 0.9190(2) 0.2100(3) 0.95981(15)
C29_4 C 0.92368(19) 0.0561(3) 0.91443(13)
H14_4 H 0.9543 0.0363 0.9416
C32_4 C 0.85630(19) 0.0263(3) 0.83445(13)
C33_4 C 0.6210(2) 0.4290(4) 0.45083(19)
C34_4 C 0.5507(4) 0.3965(6) 0.4284(3)
H16_4 H 0.5131 0.4386 0.4376
H17_4 H 0.5539 0.3925 0.3905
H18_4 H 0.5398 0.3372 0.4426
C35_4 C 0.6502(3) 0.5091(4) 0.36801(18)
H19_4 H 0.6211 0.5635 0.3686
H20_4 H 0.6949 0.5218 0.3505
H21_4 H 0.6246 0.4617 0.3493
C36_4 C 0.7322(3) 0.5064(4) 0.4463(2)
H22_4 H 0.7574 0.4534 0.4594
H23_4 H 0.7613 0.5366 0.4203
H24_4 H 0.7231 0.5475 0.4751
C37_4 C 0.0828(3) 0.0031(3) 0.6730(2)
H25_4 H 0.1186 0.0221 0.5961
H33_4 H 0.0749 0.0146 0.7699
H34_4 H 0.0375134 0.102702 0.497195
H35_4 H 0.664676 0.19534 0.495851
H36_4 H 0.104052 0.250509 0.774365
N2_4 N 0.0568(2) 0.9388(3) 0.7033(2)
C30_4 C 0.90561(19) 0.9965(3) 0.87365(13)
C31_4 C 0.9314(2) 0.8997(3) 0.87483(15)
H15_4 H 0.8427 0.9877 0.8068
C38_4 C 0.0860(4) 0.9806(5) 0.6131(2)
H26_4 H 0.1028 0.9190 0.6086
H27_4 H 0.0385 0.9867 0.5976
C39_4 C 0.0381(5) 0.8457(4) 0.6879(3)
H28_4 H 0.0626 0.8302 0.6558
H29_4 H 0.0526 0.8042 0.7155
C40_4 C 0.0493(5) 0.9593(7) 0.7615(3)
H32_4 H 0.0691 0.9097 0.7819
O21_4 O 0.99215(17) 0.1232(2) 0.51422(12)
H2_4 H 0.9603 0.1291 0.4916
H30_3 H 0.0133 0.1587 0.3178
H31_3 H 0.0010 0.0334 0.2304
H30_4 H 0.9867 0.8413 0.6822
H31_4 H 0.9990 0.9666 0.7696
loop_
_geom_bond_atom_site_label_1
_geom_bond_atom_site_label_2
_geom_bond_site_symmetry_1
_geom_bond_site_symmetry_2
Zn1 O2 1_555 1_555
Zn2 O3 1_555 1_555
Zn8 O4 1_555 1_555
Zn10 O5 1_555 1_555
O2 C4 1_555 1_555
O3 C4 1_555 1_555
O4 C7 1_555 1_555
O5 C7 1_555 1_555
O10 C17 1_555 1_555
O11 C20 1_555 1_555
O12 C20 1_555 1_555
O13 Zn1 1_555 1_555
O14 Zn2 1_555 1_555
O15 C28 1_555 1_555
O16 C28 1_555 1_555
O17 C31 1_555 1_555
O18 C31 1_555 1_555
O19 Zn1 1_555 1_555
O22 Zn8 1_555 1_555
H3 O22 1_555 1_555
O23 Zn8 1_555 1_555
N2 C37 1_555 1_555
C4 C3 1_555 1_555
C5 C3 1_555 1_555
H5 C5 1_555 1_555
C6 C5 1_555 1_555
C7 C6 1_555 1_555
C17 C18 1_555 1_555
C18 H10 1_555 1_555
C19 C18 1_555 1_555
C20 C19 1_555 1_555
C21 C19 1_555 1_555
H11 C21 1_555 1_555
C22 C21 1_555 1_555
C23 O13 1_555 1_555
C24 C17 1_555 1_555
H12 C24 1_555 1_555
C25 O10 1_555 1_555
C26 C25 1_555 1_555
H13 C26 1_555 1_555
C27 C26 1_555 1_555
C28 C27 1_555 1_555
C29 C27 1_555 1_555
H14 C29 1_555 1_555
C30 C29 1_555 1_555
C31 C30 1_555 1_555
C32 C25 1_555 1_555
H15 C32 1_555 1_555
C37 O23 1_555 1_555
C38 C37 1_555 1_555
H25 C38 1_555 1_555
H26 C38 1_555 1_555
H27 C38 1_555 1_555
C39 N2 1_555 1_555
H28 C39 1_555 1_555
H29 C39 1_555 1_555
C40 N2 1_555 1_555
H32 C40 1_555 1_555
H33 C40 1_555 1_555
Zn9 O18 1_555 1_555
Zn11 O17 1_555 1_555
O24 Zn2 1_555 1_555
O25 Zn1 1_555 1_555
O26 Zn2 1_555 1_555
O30 Zn10 1_555 1_555
O31 Zn8 1_555 1_555
O14 C23 1_555 1_555
C22 C23 1_555 1_555
C22 C24 1_555 1_555
C30 C32 1_555 1_555
O22 H36 1_555 1_555
O1 C1 1_555 1_555
O6 C12 1_555 1_555
O7 C12 1_555 1_555
N1 C33 1_555 1_555
C1 C2 1_555 1_555
C2 H4 1_555 1_555
C8 C1 1_555 1_555
H6 C8 1_555 1_555
C9 O1 1_555 1_555
C10 C9 1_555 1_555
H7 C10 1_555 1_555
C11 C10 1_555 1_555
C12 C11 1_555 1_555
C13 C11 1_555 1_555
H8 C13 1_555 1_555
C14 C13 1_555 1_555
C16 C9 1_555 1_555
H9 C16 1_555 1_555
C33 O20 1_555 1_555
C34 C33 1_555 1_555
H16 C34 1_555 1_555
H17 C34 1_555 1_555
H18 C34 1_555 1_555
Zn7 O6 1_555 1_555
C14 C16 1_555 1_555
O8 C15 1_555 1_555
O9 C15 1_555 1_555
H19 C35 1_555 1_555
H20 C35 1_555 1_555
H23 C36 1_555 1_555
H24 C36 1_555 1_555
Zn5 O8 1_555 1_555
Zn6 O9 1_555 1_555
H2_2 O21_2 1_555 1_555
O30 C31_2 1_555 1_555
O31 C31_2 1_555 1_555
C31_2 C30_2 1_555 1_555
H26_2 C38_2 1_555 1_555
H27_2 C38_2 1_555 1_555
C39_2 N2_2 1_555 1_555
H28_2 C39_2 1_555 1_555
H29_2 C39_2 1_555 1_555
C40_2 N2_2 1_555 1_555
H32_2 C40_2 1_555 1_555
Zn1_2 O2_2 1_555 1_555
Zn2_2 O3_2 1_555 1_555
Zn9 O4_2 1_555 1_555
Zn11 O5_2 1_555 1_555
O1_2 C1_2 1_555 1_555
O2_2 C4_2 1_555 1_555
O3_2 C4_2 1_555 1_555
O4_2 C7_2 1_555 1_555
O5_2 C7_2 1_555 1_555
O6_2 C12_2 1_555 1_555
O7_2 C12_2 1_555 1_555
O8_2 C15_2 1_555 1_555
O9_2 C15_2 1_555 1_555
O10_2 C17_2 1_555 1_555
O27 C20_2 1_555 1_555
O28 C20_2 1_555 1_555
O13_2 Zn1_2 1_555 1_555
O14_2 Zn2_2 1_555 1_555
O15_2 C28_2 1_555 1_555
O16_2 C28_2 1_555 1_555
O19_2 Zn1_2 1_555 1_555
H1_2 O19_2 1_555 1_555
O20_2 Zn1_2 1_555 1_555
O22_2 Zn9 1_555 1_555
H3_2 O22_2 1_555 1_555
O23_2 Zn9 1_555 1_555
N1_2 C33_2 1_555 1_555
C1_2 C2_2 1_555 1_555
C2_2 H4_2 1_555 1_555
C3_2 C2_2 1_555 1_555
C4_2 C3_2 1_555 1_555
C5_2 C3_2 1_555 1_555
H5_2 C5_2 1_555 1_555
C6_2 C5_2 1_555 1_555
C7_2 C6_2 1_555 1_555
C8_2 C1_2 1_555 1_555
H6_2 C8_2 1_555 1_555
C9_2 O1_2 1_555 1_555
C10_2 C9_2 1_555 1_555
H7_2 C10_2 1_555 1_555
C11_2 C10_2 1_555 1_555
C12_2 C11_2 1_555 1_555
C13_2 C11_2 1_555 1_555
H8_2 C13_2 1_555 1_555
C14_2 C13_2 1_555 1_555
C15_2 C14_2 1_555 1_555
C16_2 C9_2 1_555 1_555
H9_2 C16_2 1_555 1_555
C17_2 C18_2 1_555 1_555
C18_2 H10_2 1_555 1_555
C19_2 C18_2 1_555 1_555
C20_2 C19_2 1_555 1_555
C21_2 C19_2 1_555 1_555
H11_2 C21_2 1_555 1_555
C22_2 C21_2 1_555 1_555
C23_2 O13_2 1_555 1_555
C24_2 C17_2 1_555 1_555
H12_2 C24_2 1_555 1_555
C25_2 O10_2 1_555 1_555
C26_2 C25_2 1_555 1_555
H13_2 C26_2 1_555 1_555
C27_2 C26_2 1_555 1_555
C28_2 C27_2 1_555 1_555
C29_2 C27_2 1_555 1_555
H14_2 C29_2 1_555 1_555
C32_2 C25_2 1_555 1_555
C33_2 O20_2 1_555 1_555
C34_2 C33_2 1_555 1_555
H16_2 C34_2 1_555 1_555
H17_2 C34_2 1_555 1_555
H18_2 C34_2 1_555 1_555
C35_2 N1_2 1_555 1_555
H19_2 C35_2 1_555 1_555
H20_2 C35_2 1_555 1_555
H21_2 C35_2 1_555 1_555
C36_2 N1_2 1_555 1_555
H22_2 C36_2 1_555 1_555
H23_2 C36_2 1_555 1_555
H24_2 C36_2 1_555 1_555
C37_2 O23_2 1_555 1_555
Zn5_2 O8_2 1_555 1_555
Zn7 O9_2 1_555 1_555
Zn6 O6_2 1_555 1_555
O24_2 Zn2_2 1_555 1_555
O25_2 Zn1_2 1_555 1_555
O26_2 Zn2_2 1_555 1_555
O14_2 C23_2 1_555 1_555
C6_2 C8_2 1_555 1_555
C14_2 C16_2 1_555 1_555
C22_2 C23_2 1_555 1_555
C22_2 C24_2 1_555 1_555
O19_2 H35_2 1_555 1_555
O22_2 H36_2 1_555 1_555
O25 C15_3 1_555 1_555
O26 C15_3 1_555 1_555
H19_3 C35_3 1_555 1_555
H20_3 C35_3 1_555 1_555
H23_3 C36_3 1_555 1_555
H24_3 C36_3 1_555 1_555
O1_3 C1_3 1_555 1_555
O24_2 C12_3 1_555 1_555
O7_3 C12_3 1_555 1_555
N1_3 C33_3 1_555 1_555
C1_3 C2_3 1_555 1_555
C2_3 H4_3 1_555 1_555
C8_3 C1_3 1_555 1_555
H6_3 C8_3 1_555 1_555
C9_3 O1_3 1_555 1_555
C10_3 C9_3 1_555 1_555
H7_3 C10_3 1_555 1_555
C11_3 C10_3 1_555 1_555
C12_3 C11_3 1_555 1_555
C13_3 C11_3 1_555 1_555
H8_3 C13_3 1_555 1_555
C14_3 C13_3 1_555 1_555
C16_3 C9_3 1_555 1_555
H9_3 C16_3 1_555 1_555
C33_3 O20_3 1_555 1_555
C34_3 C33_3 1_555 1_555
H16_3 C34_3 1_555 1_555
H17_3 C34_3 1_555 1_555
H18_3 C34_3 1_555 1_555
C14_3 C16_3 1_555 1_555
Zn5 O2_3 1_555 1_555
Zn6 O3_3 1_555 1_555
Zn3 O4_3 1_555 1_555
Zn12_2 O5_3 1_555 1_555
O2_3 C4_3 1_555 1_555
O3_3 C4_3 1_555 1_555
O4_3 C7_3 1_555 1_555
O5_3 C7_3 1_555 1_555
O10_3 C17_3 1_555 1_555
O27_2 C20_3 1_555 1_555
O28_2 C20_3 1_555 1_555
O13_3 Zn5 1_555 1_555
O14_3 Zn6 1_555 1_555
O29_2 C28_3 1_555 1_555
O16_3 C28_3 1_555 1_555
O17_2 C31_3 1_555 1_555
O18_2 C31_3 1_555 1_555
O19_3 Zn5 1_555 1_555
O22_3 Zn3 1_555 1_555
H3_3 O22_3 1_555 1_555
O23_3 Zn3 1_555 1_555
N2_3 C37_3 1_555 1_555
C4_3 C3_3 1_555 1_555
C5_3 C3_3 1_555 1_555
H5_3 C5_3 1_555 1_555
C6_3 C5_3 1_555 1_555
C7_3 C6_3 1_555 1_555
C17_3 C18_3 1_555 1_555
C18_3 H10_3 1_555 1_555
C19_3 C18_3 1_555 1_555
C20_3 C19_3 1_555 1_555
C21_3 C19_3 1_555 1_555
H11_3 C21_3 1_555 1_555
C22_3 C21_3 1_555 1_555
C23_3 O13_3 1_555 1_555
C24_3 C17_3 1_555 1_555
H12_3 C24_3 1_555 1_555
C25_3 O10_3 1_555 1_555
C26_3 C25_3 1_555 1_555
H13_3 C26_3 1_555 1_555
C27_3 C26_3 1_555 1_555
C28_3 C27_3 1_555 1_555
C29_3 C27_3 1_555 1_555
H14_3 C29_3 1_555 1_555
C30_3 C29_3 1_555 1_555
C31_3 C30_3 1_555 1_555
C32_3 C25_3 1_555 1_555
H15_3 C32_3 1_555 1_555
C37_3 O23_3 1_555 1_555
C38_3 C37_3 1_555 1_555
H25_3 C38_3 1_555 1_555
H26_3 C38_3 1_555 1_555
H27_3 C38_3 1_555 1_555
C39_3 N2_3 1_555 1_555
H28_3 C39_3 1_555 1_555
H29_3 C39_3 1_555 1_555
C40_3 N2_3 1_555 1_555
H32_3 C40_3 1_555 1_555
H33_3 C40_3 1_555 1_555
Zn9_2 O18_2 1_555 1_555
Zn12 O17_2 1_555 1_555
O30_2 Zn12_2 1_555 1_555
O31_2 Zn3 1_555 1_555
O14_3 C23_3 1_555 1_555
C22_3 C23_3 1_555 1_555
C22_3 C24_3 1_555 1_555
C30_3 C32_3 1_555 1_555
O22_3 H36_3 1_555 1_555
Zn5_2 O2_4 1_555 1_555
Zn7 O3_4 1_555 1_555
Zn9_2 O4_4 1_555 1_555
Zn12 O5_4 1_555 1_555
O1_4 C1_4 1_555 1_555
O2_4 C4_4 1_555 1_555
O3_4 C4_4 1_555 1_555
O4_4 C7_4 1_555 1_555
O5_4 C7_4 1_555 1_555
O24 C12_4 1_555 1_555
O7_4 C12_4 1_555 1_555
O25_2 C15_4 1_555 1_555
O26_2 C15_4 1_555 1_555
O10_4 C17_4 1_555 1_555
O11_2 C20_4 1_555 1_555
O12_2 C20_4 1_555 1_555
O13_4 Zn5_2 1_555 1_555
O14_4 Zn7 1_555 1_555
O29 C28_4 1_555 1_555
O16_4 C28_4 1_555 1_555
O19_4 Zn5_2 1_555 1_555
H1_4 O19_4 1_555 1_555
O20_4 Zn5_2 1_555 1_555
O22_4 Zn9_2 1_555 1_555
H3_4 O22_4 1_555 1_555
O23_4 Zn9_2 1_555 1_555
N1_4 C33_4 1_555 1_555
C1_4 C2_4 1_555 1_555
C2_4 H4_4 1_555 1_555
C3_4 C2_4 1_555 1_555
C4_4 C3_4 1_555 1_555
C5_4 C3_4 1_555 1_555
H5_4 C5_4 1_555 1_555
C6_4 C5_4 1_555 1_555
C7_4 C6_4 1_555 1_555
C8_4 C1_4 1_555 1_555
H6_4 C8_4 1_555 1_555
C9_4 O1_4 1_555 1_555
C10_4 C9_4 1_555 1_555
H7_4 C10_4 1_555 1_555
C11_4 C10_4 1_555 1_555
C12_4 C11_4 1_555 1_555
C13_4 C11_4 1_555 1_555
H8_4 C13_4 1_555 1_555
C14_4 C13_4 1_555 1_555
C15_4 C14_4 1_555 1_555
C16_4 C9_4 1_555 1_555
H9_4 C16_4 1_555 1_555
C17_4 C18_4 1_555 1_555
C18_4 H10_4 1_555 1_555
C19_4 C18_4 1_555 1_555
C20_4 C19_4 1_555 1_555
C21_4 C19_4 1_555 1_555
H11_4 C21_4 1_555 1_555
C22_4 C21_4 1_555 1_555
C23_4 O13_4 1_555 1_555
C24_4 C17_4 1_555 1_555
H12_4 C24_4 1_555 1_555
C25_4 O10_4 1_555 1_555
C26_4 C25_4 1_555 1_555
H13_4 C26_4 1_555 1_555
C27_4 C26_4 1_555 1_555
C28_4 C27_4 1_555 1_555
C29_4 C27_4 1_555 1_555
H14_4 C29_4 1_555 1_555
C32_4 C25_4 1_555 1_555
C33_4 O20_4 1_555 1_555
C34_4 C33_4 1_555 1_555
H16_4 C34_4 1_555 1_555
H17_4 C34_4 1_555 1_555
H18_4 C34_4 1_555 1_555
C35_4 N1_4 1_555 1_555
H19_4 C35_4 1_555 1_555
H20_4 C35_4 1_555 1_555
H21_4 C35_4 1_555 1_555
C36_4 N1_4 1_555 1_555
H22_4 C36_4 1_555 1_555
H23_4 C36_4 1_555 1_555
H24_4 C36_4 1_555 1_555
C37_4 O23_4 1_555 1_555
O14_4 C23_4 1_555 1_555
C6_4 C8_4 1_555 1_555
C14_4 C16_4 1_555 1_555
C22_4 C23_4 1_555 1_555
C22_4 C24_4 1_555 1_555
O19_4 H35_4 1_555 1_555
O22_4 H36_4 1_555 1_555
O30_2 C31_4 1_555 1_555
O31_2 C31_4 1_555 1_555
C31_4 C30_4 1_555 1_555
H26_4 C38_4 1_555 1_555
H27_4 C38_4 1_555 1_555
C39_4 N2_4 1_555 1_555
H28_4 C39_4 1_555 1_555
H29_4 C39_4 1_555 1_555
C40_4 N2_4 1_555 1_555
H32_4 C40_4 1_555 1_555
H2_4 O21_4 1_555 1_555

#END
