
###############################################################################
#
# This file contains modified crystal structure data generated from the
# MOF subset of the Cambridge Structural Database (CSD) v543 
# hosted by the Cambridge Crystallographic Data Centre (CCDC).
#
# This work is licensed under the Creative Commons
# Attribution-NonCommercial-ShareAlike 4.0 International License.
# To view a copy of this license, visit
# http://creativecommons.org/licenses/by-nc-sa/4.0/
# or send a letter to
# Creative Commons, PO Box 1866, Mountain View, CA 94042, USA.
#
# CIF created using the CSD Python API on 29 September 2022
# The structure has been converted into the P1 space group
# The structure has a 3D framework
# The original CSD entry JARMEU10 is in the tetragonal crystal system
# The framework has been calculated to contain at least 10.0% void space
# The void calculation uses a probe of radius 1.32A, grid spacing 0.4
# The framework is charged, counterions have been retained in the structure
# H atom positions have been added when not included in the experimental data
#
###############################################################################

data_JARMEU10
_chemical_formula_moiety         '(C72 H32 Cu3 N12 3+)n'
_symmetry_cell_setting           triclinic
_symmetry_space_group_name_H-M   'P 1'
_symmetry_Int_Tables_number      1
_space_group_name_Hall           'P 1'
loop_
_symmetry_equiv_pos_site_id
_symmetry_equiv_pos_as_xyz
1 x,y,z
_cell_length_a                   13.620(2)
_cell_length_b                   13.620(2)
_cell_length_c                   22.642(2)
_cell_angle_alpha                90
_cell_angle_beta                 90
_cell_angle_gamma                90
_cell_volume                     4200.19
loop_
_atom_site_label
_atom_site_type_symbol
_atom_site_fract_x
_atom_site_fract_y
_atom_site_fract_z
Cu2 Cu 0.000 0.0000 0.0000
Cu2_2 Cu 0.000 0.0000 1.0000
N1 N 0.000 0.119(3) 0.054(2)
C1 C 0.000 0.176(4) 0.084(2)
C2 C -0.000 0.258(4) 0.124(3)
C3 C 0.095(3) 0.297(3) 0.144(2)
C4 C 0.093(3) 0.380(3) 0.188(2)
C5 C -0.000 0.413(3) 0.210(2)
C6 C 0.000 0.5000 0.2500
N2 N 0.381(3) 0.500 0.446(2)
C7 C 0.324(4) 0.500 0.416(2)
C8 C 0.242(4) 0.500 0.376(3)
C9 C 0.203(3) 0.595(3) 0.356(2)
C10 C 0.120(3) 0.593(3) 0.312(2)
C11 C 0.087(3) 0.500 0.290(2)
N3 N 0.000 0.881(3) 0.054(2)
C12 C 0.000 0.824(4) 0.084(2)
C13 C 0.000 0.742(4) 0.124(3)
C16 C -0.000 0.587(3) 0.210(2)
C26 C 0.095(3) 0.703(3) 0.144(2)
C27 C 0.093(3) 0.620(3) 0.188(2)
C28 C 0.203(3) 0.405(3) 0.356(2)
C29 C 0.120(3) 0.407(3) 0.312(2)
Cu2_3 Cu 0.000 1.0000 0.0000
Cu4 Cu 0.500 0.5000 0.5000
H1 H 0.160927 0.414257 0.2028
H3 H 0.160927 0.585743 0.2028
H5 H 0.164023 0.267121 0.12768
H7 H 0.085743 0.660927 0.2972
H8 H 0.232879 0.664023 0.37232
H10 H 0.085743 0.339073 0.2972
H11 H 0.232879 0.335977 0.37232
H16 H 0.164023 0.732879 0.12768
Cu2_4 Cu 0.000 1.0000 1.0000
N7 N 0.119(3) 0.000 0.946(2)
N7_2 N 0.119(3) 1.000 0.946(2)
Cu2_5 Cu 1.000 0.0000 0.0000
Cu2_6 Cu 1.000 0.0000 1.0000
N1_2 N 1.000 0.119(3) 0.054(2)
C1_2 C 1.000 0.176(4) 0.084(2)
C2_2 C 1.000 0.258(4) 0.124(3)
C5_2 C 1.000 0.413(3) 0.210(2)
C6_2 C 1.000 0.5000 0.2500
N3_2 N 1.000 0.881(3) 0.054(2)
C12_2 C 1.000 0.824(4) 0.084(2)
C13_2 C 1.000 0.742(4) 0.124(3)
C14 C 0.905(3) 0.703(3) 0.144(2)
C15 C 0.907(3) 0.620(3) 0.188(2)
C16_2 C 1.000 0.587(3) 0.210(2)
N4 N 0.619(3) 0.500 0.446(2)
C17 C 0.676(4) 0.500 0.416(2)
C18 C 0.758(4) 0.500 0.376(3)
C19 C 0.797(3) 0.405(3) 0.356(2)
C20 C 0.880(3) 0.407(3) 0.312(2)
C21 C 0.913(3) 0.500 0.290(2)
C22 C 0.905(3) 0.297(3) 0.144(2)
C23 C 0.907(3) 0.380(3) 0.188(2)
C24 C 0.797(3) 0.595(3) 0.356(2)
C25 C 0.880(3) 0.593(3) 0.312(2)
Cu2_7 Cu 1.000 1.0000 0.0000
H2 H 0.914257 0.660927 0.2972
H4 H 0.767121 0.335977 0.37232
H6 H 0.835977 0.267121 0.12768
H9 H 0.839073 0.414257 0.2028
H12 H 0.839073 0.585743 0.2028
H13 H 0.914257 0.339073 0.2972
H14 H 0.835977 0.732879 0.12768
H15 H 0.767121 0.664023 0.37232
Cu2_8 Cu 1.000 1.0000 1.0000
N5 N 0.881(3) 0.000 0.946(2)
N5_2 N 0.881(3) 1.000 0.946(2)
C6_3 C 0.500 0.0000 0.7500
C7_2 C 0.824(4) 0.000 0.916(2)
C8_2 C 0.742(4) 0.000 0.876(3)
C9_2 C 0.703(3) 0.095(3) 0.856(2)
C10_2 C 0.620(3) 0.093(3) 0.812(2)
C11_2 C 0.587(3) -0.000 0.790(2)
N3_3 N 0.500 0.381(3) 0.554(2)
C12_3 C 0.500 0.324(4) 0.584(2)
C13_3 C 0.500 0.242(4) 0.624(3)
C14_2 C 0.405(3) 0.203(3) 0.644(2)
C15_2 C 0.407(3) 0.120(3) 0.688(2)
C16_3 C 0.500 0.087(3) 0.710(2)
C17_2 C 0.176(4) 0.000 0.916(2)
C18_2 C 0.258(4) 0.000 0.876(3)
C21_2 C 0.413(3) -0.000 0.790(2)
C24_2 C 0.297(3) 0.095(3) 0.856(2)
C25_2 C 0.380(3) 0.093(3) 0.812(2)
C26_2 C 0.595(3) 0.203(3) 0.644(2)
C27_2 C 0.593(3) 0.120(3) 0.688(2)
H2_2 H 0.414257 0.160927 0.7972
H3_2 H 0.660927 0.085743 0.7028
H7_2 H 0.585743 0.160927 0.7972
H8_2 H 0.732879 0.164023 0.87232
H12_2 H 0.339073 0.085743 0.7028
H14_2 H 0.335977 0.232879 0.62768
H15_2 H 0.267121 0.164023 0.87232
H16_2 H 0.664023 0.232879 0.62768
N1_3 N 0.500 0.619(3) 0.554(2)
C1_3 C 0.500 0.676(4) 0.584(2)
C2_3 C 0.500 0.758(4) 0.624(3)
C3_2 C 0.595(3) 0.797(3) 0.644(2)
C4_2 C 0.593(3) 0.880(3) 0.688(2)
C5_3 C 0.500 0.913(3) 0.710(2)
C6_4 C 0.500 1.0000 0.7500
C7_3 C 0.824(4) 1.000 0.916(2)
C8_3 C 0.742(4) 1.000 0.876(3)
C11_3 C 0.587(3) 1.000 0.790(2)
C17_3 C 0.176(4) 1.000 0.916(2)
C18_3 C 0.258(4) 1.000 0.876(3)
C19_2 C 0.297(3) 0.905(3) 0.856(2)
C20_2 C 0.380(3) 0.907(3) 0.812(2)
C21_3 C 0.413(3) 1.000 0.790(2)
C22_2 C 0.405(3) 0.797(3) 0.644(2)
C23_2 C 0.407(3) 0.880(3) 0.688(2)
C28_2 C 0.703(3) 0.905(3) 0.856(2)
C29_2 C 0.620(3) 0.907(3) 0.812(2)
H1_2 H 0.660927 0.914257 0.7028
H4_2 H 0.267121 0.835977 0.87232
H5_2 H 0.664023 0.767121 0.62768
H6_2 H 0.335977 0.767121 0.62768
H9_2 H 0.339073 0.914257 0.7028
H10_2 H 0.585743 0.839073 0.7972
H11_2 H 0.732879 0.835977 0.87232
H13_2 H 0.414257 0.839073 0.7972
loop_
_geom_bond_atom_site_label_1
_geom_bond_atom_site_label_2
_geom_bond_site_symmetry_1
_geom_bond_site_symmetry_2
Cu2 N1 1_555 1_555
N1 C1 1_555 1_555
C1 C2 1_555 1_555
C2 C3 1_555 1_555
C3 C4 1_555 1_555
C4 C5 1_555 1_555
C5 C6 1_555 1_555
C6 C11 1_555 1_555
N2 C7 1_555 1_555
C7 C8 1_555 1_555
C8 C9 1_555 1_555
C9 C10 1_555 1_555
C10 C11 1_555 1_555
C11 C29 1_555 1_555
N3 C12 1_555 1_555
C12 C13 1_555 1_555
C16 C6 1_555 1_555
C26 C13 1_555 1_555
C27 C16 1_555 1_555
C28 C8 1_555 1_555
C29 C28 1_555 1_555
Cu2_3 N3 1_555 1_555
Cu4 N2 1_555 1_555
C26 C27 1_555 1_555
C4 H1 1_555 1_555
C27 H3 1_555 1_555
C3 H5 1_555 1_555
C10 H7 1_555 1_555
C9 H8 1_555 1_555
C29 H10 1_555 1_555
C28 H11 1_555 1_555
C26 H16 1_555 1_555
N7 Cu2_2 1_555 1_555
N7_2 Cu2_4 1_555 1_555
Cu2_5 N1_2 1_555 1_555
N1_2 C1_2 1_555 1_555
C1_2 C2_2 1_555 1_555
C5_2 C6_2 1_555 1_555
N3_2 C12_2 1_555 1_555
C12_2 C13_2 1_555 1_555
C13_2 C14 1_555 1_555
C14 C15 1_555 1_555
C15 C16_2 1_555 1_555
C16_2 C6_2 1_555 1_555
N4 C17 1_555 1_555
C17 C18 1_555 1_555
C18 C19 1_555 1_555
C19 C20 1_555 1_555
C20 C21 1_555 1_555
C21 C6_2 1_555 1_555
C22 C2_2 1_555 1_555
C23 C5_2 1_555 1_555
C24 C18 1_555 1_555
C25 C21 1_555 1_555
Cu2_7 N3_2 1_555 1_555
Cu4 N4 1_555 1_555
C22 C23 1_555 1_555
C24 C25 1_555 1_555
C25 H2 1_555 1_555
C19 H4 1_555 1_555
C22 H6 1_555 1_555
C23 H9 1_555 1_555
C15 H12 1_555 1_555
C20 H13 1_555 1_555
C14 H14 1_555 1_555
C24 H15 1_555 1_555
N5 Cu2_6 1_555 1_555
N5_2 Cu2_8 1_555 1_555
C6_3 C11_2 1_555 1_555
N5 C7_2 1_555 1_555
C7_2 C8_2 1_555 1_555
C8_2 C9_2 1_555 1_555
C9_2 C10_2 1_555 1_555
C10_2 C11_2 1_555 1_555
N3_3 C12_3 1_555 1_555
C12_3 C13_3 1_555 1_555
C13_3 C14_2 1_555 1_555
C14_2 C15_2 1_555 1_555
C15_2 C16_3 1_555 1_555
C16_3 C6_3 1_555 1_555
N7 C17_2 1_555 1_555
C17_2 C18_2 1_555 1_555
C21_2 C6_3 1_555 1_555
C24_2 C18_2 1_555 1_555
C25_2 C21_2 1_555 1_555
C26_2 C13_3 1_555 1_555
C27_2 C16_3 1_555 1_555
Cu4 N3_3 1_555 1_555
C24_2 C25_2 1_555 1_555
C26_2 C27_2 1_555 1_555
C25_2 H2_2 1_555 1_555
C27_2 H3_2 1_555 1_555
C10_2 H7_2 1_555 1_555
C9_2 H8_2 1_555 1_555
C15_2 H12_2 1_555 1_555
C14_2 H14_2 1_555 1_555
C24_2 H15_2 1_555 1_555
C26_2 H16_2 1_555 1_555
Cu4 N1_3 1_555 1_555
N1_3 C1_3 1_555 1_555
C1_3 C2_3 1_555 1_555
C2_3 C3_2 1_555 1_555
C3_2 C4_2 1_555 1_555
C4_2 C5_3 1_555 1_555
C5_3 C6_4 1_555 1_555
C6_4 C11_3 1_555 1_555
N5_2 C7_3 1_555 1_555
C7_3 C8_3 1_555 1_555
C11_3 C29_2 1_555 1_555
N7_2 C17_3 1_555 1_555
C17_3 C18_3 1_555 1_555
C18_3 C19_2 1_555 1_555
C19_2 C20_2 1_555 1_555
C20_2 C21_3 1_555 1_555
C21_3 C6_4 1_555 1_555
C22_2 C2_3 1_555 1_555
C23_2 C5_3 1_555 1_555
C28_2 C8_3 1_555 1_555
C29_2 C28_2 1_555 1_555
C22_2 C23_2 1_555 1_555
C4_2 H1_2 1_555 1_555
C19_2 H4_2 1_555 1_555
C3_2 H5_2 1_555 1_555
C22_2 H6_2 1_555 1_555
C23_2 H9_2 1_555 1_555
C29_2 H10_2 1_555 1_555
C28_2 H11_2 1_555 1_555
C20_2 H13_2 1_555 1_555

#END
