
###############################################################################
#
# This file contains modified crystal structure data generated from the
# MOF subset of the Cambridge Structural Database (CSD) v543 
# hosted by the Cambridge Crystallographic Data Centre (CCDC).
#
# This work is licensed under the Creative Commons
# Attribution-NonCommercial-ShareAlike 4.0 International License.
# To view a copy of this license, visit
# http://creativecommons.org/licenses/by-nc-sa/4.0/
# or send a letter to
# Creative Commons, PO Box 1866, Mountain View, CA 94042, USA.
#
# CIF created using the CSD Python API on 29 September 2022
# The structure has been converted into the P1 space group
# The structure has a 3D framework
# The original CSD entry JASNEX01 is in the triclinic crystal system
# The framework has been calculated to contain at least 10.0% void space
# The void calculation uses a probe of radius 1.32A, grid spacing 0.4
# H atom positions have been added when not included in the experimental data
#
###############################################################################

data_JASNEX01
_chemical_formula_moiety         '(C68 H40 N4 O14 Zn4)n'
_symmetry_cell_setting           triclinic
_symmetry_space_group_name_H-M   'P 1'
_symmetry_Int_Tables_number      1
_space_group_name_Hall           'P 1'
loop_
_symmetry_equiv_pos_site_id
_symmetry_equiv_pos_as_xyz
1 x,y,z
_cell_length_a                   12.9634(18)
_cell_length_b                   13.1087(18)
_cell_length_c                   13.8909(18)
_cell_angle_alpha                85.137(5)
_cell_angle_beta                 68.466(5)
_cell_angle_gamma                84.926(4)
_cell_volume                     2183.67
loop_
_atom_site_label
_atom_site_type_symbol
_atom_site_fract_x
_atom_site_fract_y
_atom_site_fract_z
O4 O 0.0343 0.3311 0.2292
Zn4 Zn 0.2076 0.3213 0.1611
Zn7 Zn 0.1331 0.3278 0.3898
O1 O 0.3673 0.3098 0.1495
O3 O 0.2019 0.1680 0.2008
N1 N 0.2017 0.3215 0.0162
O6 O 0.3025 0.3137 0.3257
O7 O 0.9703 0.3363 0.4035
O8 O 0.1352 0.1741 0.3727
C10 C 0.9565 0.3281 0.3183
C12 C 0.1668 0.1268 0.2911
C13 C 0.1676 0.0127 0.3003
C24 C 0.3824 0.3112 0.2337
C25 C 0.4970 0.3061 0.2347
C26 C 0.5886 0.2914 0.1393
H11 H 0.5766 0.2815 0.0789
C27 C 0.6960 0.2922 0.1390
H12 H 0.7562 0.2816 0.0779
C28 C 0.7149 0.3089 0.2302
C29 C 0.6232 0.3224 0.3269
C30 C 0.6427 0.3419 0.4138
H13 H 0.5822 0.3552 0.4741
C31 C 0.5120 0.3219 0.3240
H14 H 0.4505 0.3326 0.3841
C32 C 0.8383 0.3277 0.3200
C33 C 0.7473 0.3426 0.4159
H15 H 0.7589 0.3524 0.4766
C34 C 0.8237 0.3107 0.2308
H16 H 0.8850 0.3004 0.1704
O9 O 0.2019 0.4742 0.1739
O11 O 0.1402 0.4794 0.3495
N3 N 0.1316 0.3241 0.5372
C1 C 0.1531 0.3227 0.7300
C2 C 0.1715 0.3205 0.8275
C3 C 0.1946 0.4091 0.9625
C4 C 0.2212 0.2471 0.9580
H1 H 0.2575 0.1894 0.9777
C5 C 0.1990 0.2382 0.8761
C6 C 0.1430 0.2347 0.6873
C7 C 0.1534 0.2407 0.5849
H2 H 0.1774 0.1818 0.5480
C8 C 0.1270 0.4089 0.6823
H3 H 0.1080 0.4694 0.7169
C9 C 0.1593 0.4108 0.8785
C11 C 0.1280 0.4090 0.5889
H4 H 0.1261 0.4725 0.5539
H17 H 0.21639 0.479882 0.984054
H18 H 0.122962 0.48121 0.853281
H19 H 0.127212 0.162389 0.733418
H20 H 0.20298 0.162746 0.847148
C14 C 0.1335 0.9609 0.4005
H5 H 0.1154 0.9988 0.4588
C15 C 0.1270 0.8582 0.4126
H6 H 0.1043 0.8262 0.4788
C16 C 0.1556 0.7970 0.3223
C17 C 0.1893 0.8478 0.2239
C18 C 0.2154 0.7920 0.1356
H7 H 0.2378 0.8244 0.0696
C19 C 0.2067 0.6860 0.1502
H8 H 0.2211 0.6481 0.0925
C20 C 0.1781 0.6356 0.2456
C21 C 0.1507 0.6906 0.3348
H9 H 0.1299 0.6572 0.4003
C22 C 0.1713 0.5186 0.2601
C23 C 0.1925 0.9582 0.2151
H10 H 0.2119 0.9923 0.1500
O12 O 0.0297 0.6637 0.5965
O2 O 0.7981 0.5258 0.8261
O5 O 0.8598 0.5206 0.6505
C14_2 C 0.8665 0.0391 0.5995
H5_2 H 0.8846 0.0012 0.5412
C15_2 C 0.8730 0.1418 0.5874
H6_2 H 0.8957 0.1738 0.5212
C16_2 C 0.8444 0.2030 0.6777
C17_2 C 0.8107 0.1522 0.7761
C18_2 C 0.7846 0.2080 0.8644
H7_2 H 0.7622 0.1756 0.9304
C19_2 C 0.7933 0.3140 0.8498
H8_2 H 0.7789 0.3519 0.9075
C20_2 C 0.8219 0.3644 0.7544
C21_2 C 0.8493 0.3094 0.6652
H9_2 H 0.8701 0.3428 0.5997
C22_2 C 0.8287 0.4814 0.7399
C23_2 C 0.8075 0.0418 0.7849
H10_2 H 0.7881 0.0077 0.8500
Zn3 Zn 0.7924 0.6787 0.8389
Zn5 Zn 0.8669 0.6722 0.6102
N2 N 0.8684 0.6759 0.4628
C1_2 C 0.8469 0.6773 0.2700
C2_2 C 0.8285 0.6795 0.1725
C3_2 C 0.8054 0.5909 0.0375
C4_2 C 0.7788 0.7529 0.0420
H1_2 H 0.7425 0.8106 0.0223
C5_2 C 0.8010 0.7618 0.1239
C6_2 C 0.8570 0.7653 0.3127
C7_2 C 0.8466 0.7593 0.4151
H2_2 H 0.8226 0.8182 0.4520
C8_2 C 0.8730 0.5911 0.3177
H3_2 H 0.8920 0.5306 0.2831
C9_2 C 0.8407 0.5892 0.1215
C11_2 C 0.8720 0.5910 0.4111
H4_2 H 0.8739 0.5275 0.4461
H17_2 H 0.78361 0.520118 0.015946
H18_2 H 0.877038 0.51879 0.146719
H19_2 H 0.872788 0.837611 0.266582
H20_2 H 0.79702 0.837254 0.152852
O1_2 O 0.6327 0.6902 0.8505
O3_2 O 0.7981 0.8320 0.7992
N1_2 N 0.7983 0.6785 0.9838
O6_2 O 0.6975 0.6863 0.6743
O8_2 O 0.8648 0.8259 0.6273
C10_2 C 0.0435 0.6719 0.6817
C12_2 C 0.8332 0.8732 0.7089
C13_2 C 0.8324 0.9873 0.6997
C24_2 C 0.6176 0.6888 0.7663
C25_2 C 0.5030 0.6939 0.7653
C26_2 C 0.4114 0.7086 0.8607
H11_2 H 0.4234 0.7185 0.9211
C27_2 C 0.3040 0.7078 0.8610
H12_2 H 0.2438 0.7184 0.9221
C28_2 C 0.2851 0.6911 0.7698
C29_2 C 0.3768 0.6776 0.6731
C30_2 C 0.3573 0.6581 0.5862
H13_2 H 0.4178 0.6448 0.5259
C31_2 C 0.4880 0.6781 0.6760
H14_2 H 0.5495 0.6674 0.6159
C32_2 C 0.1617 0.6723 0.6800
C33_2 C 0.2527 0.6574 0.5841
H15_2 H 0.2411 0.6476 0.5234
C34_2 C 0.1763 0.6893 0.7692
H16_2 H 0.1150 0.6996 0.8296
O10 O 0.9657 0.6689 0.7708
loop_
_geom_bond_atom_site_label_1
_geom_bond_atom_site_label_2
_geom_bond_site_symmetry_1
_geom_bond_site_symmetry_2
Zn4 O4 1_555 1_555
Zn4 O1 1_555 1_555
Zn7 O6 1_555 1_555
O1 C24 1_555 1_555
O3 Zn4 1_555 1_555
N1 Zn4 1_555 1_555
O6 C24 1_555 1_555
O7 C10 1_555 1_555
O8 Zn7 1_555 1_555
C10 C32 1_555 1_555
C12 O3 1_555 1_555
C13 C12 1_555 1_555
C24 C25 1_555 1_555
C25 C26 1_555 1_555
C26 H11 1_555 1_555
C27 C26 1_555 1_555
H12 C27 1_555 1_555
C28 C27 1_555 1_555
C29 C28 1_555 1_555
C30 C29 1_555 1_555
H13 C30 1_555 1_555
C31 C25 1_555 1_555
H14 C31 1_555 1_555
C32 C33 1_555 1_555
C33 C30 1_555 1_555
H15 C33 1_555 1_555
C34 C28 1_555 1_555
H16 C34 1_555 1_555
O9 Zn4 1_555 1_555
O11 Zn7 1_555 1_555
N3 Zn7 1_555 1_555
O8 C12 1_555 1_555
C29 C31 1_555 1_555
C32 C34 1_555 1_555
N3 C7 1_555 1_555
C1 C2 1_555 1_555
C2 C5 1_555 1_555
H1 C4 1_555 1_555
C5 C4 1_555 1_555
C6 C1 1_555 1_555
C7 C6 1_555 1_555
H2 C7 1_555 1_555
C8 C1 1_555 1_555
H3 C8 1_555 1_555
C9 C2 1_555 1_555
C11 N3 1_555 1_555
H4 C11 1_555 1_555
C3 C9 1_555 1_555
C8 C11 1_555 1_555
C3 H17 1_555 1_555
C9 H18 1_555 1_555
C6 H19 1_555 1_555
C5 H20 1_555 1_555
O9 C22 1_555 1_555
O11 C22 1_555 1_555
H5 C14 1_555 1_555
C15 C14 1_555 1_555
H6 C15 1_555 1_555
C16 C15 1_555 1_555
C17 C16 1_555 1_555
C18 C17 1_555 1_555
H7 C18 1_555 1_555
C19 C18 1_555 1_555
H8 C19 1_555 1_555
C20 C19 1_555 1_555
C21 C16 1_555 1_555
H9 C21 1_555 1_555
C22 C20 1_555 1_555
H10 C23 1_555 1_555
C17 C23 1_555 1_555
C20 C21 1_555 1_555
O2 C22_2 1_555 1_555
O5 C22_2 1_555 1_555
H5_2 C14_2 1_555 1_555
C15_2 C14_2 1_555 1_555
H6_2 C15_2 1_555 1_555
C16_2 C15_2 1_555 1_555
C17_2 C16_2 1_555 1_555
C18_2 C17_2 1_555 1_555
H7_2 C18_2 1_555 1_555
C19_2 C18_2 1_555 1_555
H8_2 C19_2 1_555 1_555
C20_2 C19_2 1_555 1_555
C21_2 C16_2 1_555 1_555
H9_2 C21_2 1_555 1_555
C22_2 C20_2 1_555 1_555
H10_2 C23_2 1_555 1_555
Zn3 O2 1_555 1_555
Zn5 O5 1_555 1_555
C17_2 C23_2 1_555 1_555
C20_2 C21_2 1_555 1_555
N2 C7_2 1_555 1_555
C1_2 C2_2 1_555 1_555
C2_2 C5_2 1_555 1_555
H1_2 C4_2 1_555 1_555
C5_2 C4_2 1_555 1_555
C6_2 C1_2 1_555 1_555
C7_2 C6_2 1_555 1_555
H2_2 C7_2 1_555 1_555
C8_2 C1_2 1_555 1_555
H3_2 C8_2 1_555 1_555
C9_2 C2_2 1_555 1_555
C11_2 N2 1_555 1_555
H4_2 C11_2 1_555 1_555
Zn5 N2 1_555 1_555
C3_2 C9_2 1_555 1_555
C8_2 C11_2 1_555 1_555
C3_2 H17_2 1_555 1_555
C9_2 H18_2 1_555 1_555
C6_2 H19_2 1_555 1_555
C5_2 H20_2 1_555 1_555
Zn3 O1_2 1_555 1_555
Zn5 O6_2 1_555 1_555
O1_2 C24_2 1_555 1_555
O3_2 Zn3 1_555 1_555
N1_2 Zn3 1_555 1_555
O6_2 C24_2 1_555 1_555
O12 C10_2 1_555 1_555
O8_2 Zn5 1_555 1_555
C10_2 C32_2 1_555 1_555
C12_2 O3_2 1_555 1_555
C13_2 C12_2 1_555 1_555
C24_2 C25_2 1_555 1_555
C25_2 C26_2 1_555 1_555
C26_2 H11_2 1_555 1_555
C27_2 C26_2 1_555 1_555
H12_2 C27_2 1_555 1_555
C28_2 C27_2 1_555 1_555
C29_2 C28_2 1_555 1_555
C30_2 C29_2 1_555 1_555
H13_2 C30_2 1_555 1_555
C31_2 C25_2 1_555 1_555
H14_2 C31_2 1_555 1_555
C32_2 C33_2 1_555 1_555
C33_2 C30_2 1_555 1_555
H15_2 C33_2 1_555 1_555
C34_2 C28_2 1_555 1_555
H16_2 C34_2 1_555 1_555
O10 Zn3 1_555 1_555
O8_2 C12_2 1_555 1_555
C29_2 C31_2 1_555 1_555
C32_2 C34_2 1_555 1_555

#END
