
###############################################################################
#
# This file contains modified crystal structure data generated from the
# MOF subset of the Cambridge Structural Database (CSD) v543 
# hosted by the Cambridge Crystallographic Data Centre (CCDC).
#
# This work is licensed under the Creative Commons
# Attribution-NonCommercial-ShareAlike 4.0 International License.
# To view a copy of this license, visit
# http://creativecommons.org/licenses/by-nc-sa/4.0/
# or send a letter to
# Creative Commons, PO Box 1866, Mountain View, CA 94042, USA.
#
# CIF created using the CSD Python API on 29 September 2022
# The structure has been converted into the P1 space group
# The structure has a 3D framework
# The original CSD entry JASNAT is in the triclinic crystal system
# The framework has been calculated to contain at least 10.0% void space
# The void calculation uses a probe of radius 1.32A, grid spacing 0.4
#
###############################################################################

data_JASNAT
_chemical_formula_moiety         '(C52 H32 N4 O16 Zn4)n'
_symmetry_cell_setting           triclinic
_symmetry_space_group_name_H-M   'P 1'
_symmetry_Int_Tables_number      1
_space_group_name_Hall           'P 1'
loop_
_symmetry_equiv_pos_site_id
_symmetry_equiv_pos_as_xyz
1 x,y,z
_cell_length_a                   10.8830(13)
_cell_length_b                   10.9258(13)
_cell_length_c                   14.0658(17)
_cell_angle_alpha                92.417(2)
_cell_angle_beta                 90.099(2)
_cell_angle_gamma                101.723(2)
_cell_volume                     1636.07
loop_
_atom_site_label
_atom_site_type_symbol
_atom_site_fract_x
_atom_site_fract_y
_atom_site_fract_z
Zn1 Zn 0.73496(6) 0.65562(6) 0.10922(4)
Zn2 Zn 0.73791(6) 0.66844(6) 0.31814(4)
O1 O 0.5503(4) 0.6428(5) 0.1331(3)
O2 O 0.5532(4) 0.6550(5) 0.2921(3)
O3 O 0.7161(5) 0.4683(4) 0.1323(4)
O4 O 0.7142(5) 0.4789(5) 0.2894(4)
C1 C 0.5003(5) 0.6505(6) 0.2124(4)
C2 C 0.3637(5) 0.6571(6) 0.2121(4)
C3 C 0.2974(6) 0.6508(6) 0.1275(4)
H1 H 0.3382 0.6432 0.0694
C4 C 0.1709(6) 0.6554(7) 0.1280(4)
H2 H 0.1263 0.6508 0.0702
C5 C 0.3015(6) 0.6687(6) 0.2982(4)
H3 H 0.3460 0.6735 0.3561
C6 C 0.7207(6) 0.4226(6) 0.2124(5)
C7 C 0.7334(6) 0.2884(5) 0.2140(5)
C8 C 0.7444(8) 0.2347(7) 0.2992(5)
H4 H 0.7448 0.2826 0.3563
C9 C 0.7382(10) 0.2185(7) 0.1317(5)
H5 H 0.7348 0.2556 0.0729
C11 C 0.7549(6) 0.0388(6) 0.2180(4)
C12 C 0.7479(10) 0.0937(7) 0.1333(5)
H6 H 0.7497 0.0470 0.0758
C13 C 0.7551(8) 0.1088(7) 0.3021(5)
H7 H 0.7622 0.0726 0.3607
C15 C 0.1105(5) 0.6669(6) 0.2128(4)
C16 C 0.1757(6) 0.6732(7) 0.2987(4)
H8 H 0.1343 0.6805 0.3567
N3 N 0.7362(4) 0.6647(5) 0.4630(3)
O9 O 0.7561(5) 0.8428(4) 0.1423(4)
O10 O 0.7604(5) 0.8550(4) 0.3012(4)
O11 O 0.9195(4) 0.6688(5) 0.1341(3)
O12 O 0.9213(4) 0.6762(5) 0.2926(3)
N2 N 0.7349(5) 0.6598(5) 0.9652(3)
C17 C 0.8393(8) 0.6741(12) 0.5118(5)
H9 H 0.9151 0.6805 0.4787
C18 C 0.8431(8) 0.6754(13) 0.6098(5)
H10 H 0.9209 0.6852 0.6414
C19 C 0.7366(6) 0.6628(6) 0.6612(4)
C20 C 0.6297(8) 0.6488(13) 0.6094(5)
H11 H 0.5521 0.6377 0.6405
C21 C 0.6329(8) 0.6507(12) 0.5110(5)
H12 H 0.5566 0.6415 0.4774
C22 C 0.7371(6) 0.6624(6) 0.7656(4)
C23 C 0.8477(6) 0.6702(8) 0.8188(4)
H13 H 0.9250 0.6758 0.7878
C24 C 0.6260(6) 0.6531(7) 0.8175(4)
H14 H 0.5488 0.6467 0.7856
C25 C 0.8426(6) 0.6695(7) 0.9161(4)
H15 H 0.9181 0.6761 0.9504
C26 C 0.6301(6) 0.6534(7) 0.9152(4)
H16 H 0.5545 0.6488 0.9484
C10 C 0.7576(6) 0.9015(6) 0.2218(5)
C14 C 0.9721(5) 0.6717(6) 0.2128(4)
O7 O 0.0805(4) 0.3312(5) 0.8659(3)
O8 O 0.0787(4) 0.3238(5) 0.7074(3)
C14_2 C 0.0279(5) 0.3283(6) 0.7872(4)
Zn4 Zn 0.26504(6) 0.34438(6) 0.89078(4)
Zn7 Zn 0.26209(6) 0.33156(6) 0.68186(4)
O5 O 0.2439(5) 0.1572(4) 0.8577(4)
O6 O 0.2396(5) 0.1450(4) 0.6988(4)
C10_2 C 0.2424(6) 0.0985(6) 0.7782(5)
N1 N 0.2638(4) 0.3353(5) 0.5370(3)
N2_2 N 0.2651(5) 0.3402(5) 0.0348(3)
C17_2 C 0.1607(8) 0.3259(12) 0.4882(5)
H9_2 H 0.0849 0.3195 0.5213
C18_2 C 0.1569(8) 0.3246(13) 0.3902(5)
H10_2 H 0.0791 0.3148 0.3586
C19_2 C 0.2634(6) 0.3372(6) 0.3388(4)
C20_2 C 0.3703(8) 0.3512(13) 0.3906(5)
H11_2 H 0.4479 0.3623 0.3595
C21_2 C 0.3671(8) 0.3493(12) 0.4890(5)
H12_2 H 0.4434 0.3585 0.5226
C22_2 C 0.2629(6) 0.3376(6) 0.2344(4)
C23_2 C 0.1523(6) 0.3298(8) 0.1812(4)
H13_2 H 0.0750 0.3242 0.2122
C24_2 C 0.3740(6) 0.3469(7) 0.1825(4)
H14_2 H 0.4512 0.3533 0.2144
C25_2 C 0.1574(6) 0.3305(7) 0.0839(4)
H15_2 H 0.0819 0.3239 0.0496
C26_2 C 0.3699(6) 0.3466(7) 0.0848(4)
H16_2 H 0.4455 0.3512 0.0516
O1_2 O 0.4497(4) 0.3572(5) 0.8669(3)
O2_2 O 0.4468(4) 0.3450(5) 0.7079(3)
O3_2 O 0.2839(5) 0.5317(4) 0.8677(4)
O4_2 O 0.2858(5) 0.5211(5) 0.7106(4)
C1_2 C 0.4997(5) 0.3495(6) 0.7876(4)
C2_2 C 0.6363(5) 0.3429(6) 0.7879(4)
C3_2 C 0.7026(6) 0.3492(6) 0.8725(4)
H1_2 H 0.6618 0.3568 0.9306
C4_2 C 0.8291(6) 0.3446(7) 0.8720(4)
H2_2 H 0.8737 0.3492 0.9298
C5_2 C 0.6985(6) 0.3313(6) 0.7018(4)
H3_2 H 0.6540 0.3265 0.6439
C6_2 C 0.2793(6) 0.5774(6) 0.7876(5)
C7_2 C 0.2666(6) 0.7116(5) 0.7860(5)
C8_2 C 0.2556(8) 0.7653(7) 0.7008(5)
H4_2 H 0.2552 0.7174 0.6437
C9_2 C 0.2618(10) 0.7815(7) 0.8683(5)
H5_2 H 0.2652 0.7444 0.9271
C11_2 C 0.2451(6) 0.9612(6) 0.7820(4)
C12_2 C 0.2521(10) 0.9063(7) 0.8667(5)
H6_2 H 0.2503 0.9530 0.9242
C13_2 C 0.2449(8) 0.8912(7) 0.6979(5)
H7_2 H 0.2378 0.9274 0.6393
C15_2 C 0.8895(5) 0.3331(6) 0.7872(4)
C16_2 C 0.8243(6) 0.3268(7) 0.7013(4)
H8_2 H 0.8657 0.3195 0.6433
loop_
_geom_bond_atom_site_label_1
_geom_bond_atom_site_label_2
_geom_bond_site_symmetry_1
_geom_bond_site_symmetry_2
Zn2 O2 1_555 1_555
O1 Zn1 1_555 1_555
O2 C1 1_555 1_555
O3 Zn1 1_555 1_555
O4 Zn2 1_555 1_555
C1 O1 1_555 1_555
C2 C1 1_555 1_555
C3 C2 1_555 1_555
H1 C3 1_555 1_555
C4 C3 1_555 1_555
H2 C4 1_555 1_555
C5 C2 1_555 1_555
H3 C5 1_555 1_555
C6 O3 1_555 1_555
C7 C6 1_555 1_555
C8 C7 1_555 1_555
H4 C8 1_555 1_555
C9 C7 1_555 1_555
H5 C9 1_555 1_555
C11 C12 1_555 1_555
C12 C9 1_555 1_555
H6 C12 1_555 1_555
C13 C8 1_555 1_555
H7 C13 1_555 1_555
C15 C4 1_555 1_555
C16 C5 1_555 1_555
H8 C16 1_555 1_555
N3 Zn2 1_555 1_555
O9 Zn1 1_555 1_555
O10 Zn2 1_555 1_555
O11 Zn1 1_555 1_555
O12 Zn2 1_555 1_555
O4 C6 1_555 1_555
C11 C13 1_555 1_555
C15 C16 1_555 1_555
N3 C17 1_555 1_555
N2 C25 1_555 1_555
C17 H9 1_555 1_555
C18 C17 1_555 1_555
H10 C18 1_555 1_555
C19 C18 1_555 1_555
C20 C19 1_555 1_555
H11 C20 1_555 1_555
C21 N3 1_555 1_555
H12 C21 1_555 1_555
C22 C19 1_555 1_555
C23 C22 1_555 1_555
H13 C23 1_555 1_555
C24 C22 1_555 1_555
H14 C24 1_555 1_555
C25 C23 1_555 1_555
H15 C25 1_555 1_555
C26 N2 1_555 1_555
H16 C26 1_555 1_555
C20 C21 1_555 1_555
C24 C26 1_555 1_555
O9 C10 1_555 1_555
O10 C10 1_555 1_555
O11 C14 1_555 1_555
O12 C14 1_555 1_555
O7 C14_2 1_555 1_555
O8 C14_2 1_555 1_555
Zn4 O7 1_555 1_555
Zn7 O8 1_555 1_555
O5 C10_2 1_555 1_555
O6 C10_2 1_555 1_555
Zn4 O5 1_555 1_555
Zn7 O6 1_555 1_555
N1 C17_2 1_555 1_555
N2_2 C25_2 1_555 1_555
C17_2 H9_2 1_555 1_555
C18_2 C17_2 1_555 1_555
H10_2 C18_2 1_555 1_555
C19_2 C18_2 1_555 1_555
C20_2 C19_2 1_555 1_555
H11_2 C20_2 1_555 1_555
C21_2 N1 1_555 1_555
H12_2 C21_2 1_555 1_555
C22_2 C19_2 1_555 1_555
C23_2 C22_2 1_555 1_555
H13_2 C23_2 1_555 1_555
C24_2 C22_2 1_555 1_555
H14_2 C24_2 1_555 1_555
C25_2 C23_2 1_555 1_555
H15_2 C25_2 1_555 1_555
C26_2 N2_2 1_555 1_555
H16_2 C26_2 1_555 1_555
Zn7 N1 1_555 1_555
C20_2 C21_2 1_555 1_555
C24_2 C26_2 1_555 1_555
Zn7 O2_2 1_555 1_555
O1_2 Zn4 1_555 1_555
O2_2 C1_2 1_555 1_555
O3_2 Zn4 1_555 1_555
O4_2 Zn7 1_555 1_555
C1_2 O1_2 1_555 1_555
C2_2 C1_2 1_555 1_555
C3_2 C2_2 1_555 1_555
H1_2 C3_2 1_555 1_555
C4_2 C3_2 1_555 1_555
H2_2 C4_2 1_555 1_555
C5_2 C2_2 1_555 1_555
H3_2 C5_2 1_555 1_555
C6_2 O3_2 1_555 1_555
C7_2 C6_2 1_555 1_555
C8_2 C7_2 1_555 1_555
H4_2 C8_2 1_555 1_555
C9_2 C7_2 1_555 1_555
H5_2 C9_2 1_555 1_555
C11_2 C12_2 1_555 1_555
C12_2 C9_2 1_555 1_555
H6_2 C12_2 1_555 1_555
C13_2 C8_2 1_555 1_555
H7_2 C13_2 1_555 1_555
C15_2 C4_2 1_555 1_555
C16_2 C5_2 1_555 1_555
H8_2 C16_2 1_555 1_555
O4_2 C6_2 1_555 1_555
C11_2 C13_2 1_555 1_555
C15_2 C16_2 1_555 1_555

#END
