
###############################################################################
#
# This file contains modified crystal structure data generated from the
# MOF subset of the Cambridge Structural Database (CSD) v543 
# hosted by the Cambridge Crystallographic Data Centre (CCDC).
#
# This work is licensed under the Creative Commons
# Attribution-NonCommercial-ShareAlike 4.0 International License.
# To view a copy of this license, visit
# http://creativecommons.org/licenses/by-nc-sa/4.0/
# or send a letter to
# Creative Commons, PO Box 1866, Mountain View, CA 94042, USA.
#
# CIF created using the CSD Python API on 29 September 2022
# The structure has been converted into the P1 space group
# The structure has a 3D framework
# The original CSD entry JATPAZ is in the monoclinic crystal system
# The framework has been calculated to contain at least 10.0% void space
# The void calculation uses a probe of radius 1.32A, grid spacing 0.4
# H atom positions have been added when not included in the experimental data
#
###############################################################################

data_JATPAZ
_chemical_formula_moiety         '(C288 H192 I48 N96 Zn24)n'
_symmetry_cell_setting           triclinic
_symmetry_space_group_name_H-M   'P 1'
_symmetry_Int_Tables_number      1
_space_group_name_Hall           'P 1'
loop_
_symmetry_equiv_pos_site_id
_symmetry_equiv_pos_as_xyz
1 x,y,z
_cell_length_a                   35.743(6)
_cell_length_b                   14.653(2)
_cell_length_c                   31.194(5)
_cell_angle_alpha                90
_cell_angle_beta                 101.303(4)
_cell_angle_gamma                90
_cell_volume                     16020.7
loop_
_atom_site_label
_atom_site_type_symbol
_atom_site_fract_x
_atom_site_fract_y
_atom_site_fract_z
C19 C 0.1823(5) 0.0778(12) 0.6465(6)
H12 H 0.174015 0.134777 0.653853
C20 C 0.2126(5) 0.0357(12) 0.6740(6)
H13 H 0.225141 0.066589 0.698746
C35 C 0.3440(5) 0.1017(13) 0.8322(6)
H22 H 0.339424 0.162822 0.837422
C36 C 0.3197(5) 0.0575(13) 0.7984(6)
H23 H 0.298580 0.087054 0.782002
N7 N 0.1647(4) 0.0372(10) 0.6092(5)
N12 N 0.3743(4) 0.0597(10) 0.8582(5)
Zn4 Zn 0.12184(6) 0.09996(15) 0.56693(8)
Zn5 Zn 0.41373(7) 0.12662(15) 0.90399(7)
H9 H 0.082293 0.006380 0.623926
N6 N 0.0788(5) 0.0066(11) 0.5618(7)
I3 I 0.10075(6) 0.23731(11) 0.60594(6)
I4 I 0.14025(5) 0.11018(13) 0.49296(6)
H6 H 0.380453 0.028172 0.969307
N5 N 0.4270(6) 0.0201(11) 0.9473(6)
I5 I 0.38081(5) 0.24454(10) 0.94282(5)
I6 I 0.46974(4) 0.15465(10) 0.86684(5)
C1 C 0.3514(6) 0.2787(14) 0.6460(7)
H1 H 0.327921 0.249393 0.642622
C2 C 0.3732(6) 0.2619(14) 0.6166(7)
H2 H 0.364483 0.224501 0.592630
C3 C 0.4092(6) 0.3018(14) 0.6229(7)
C4 C 0.4207(6) 0.3568(14) 0.6577(6)
H3 H 0.445108 0.381604 0.663499
C5 C 0.3952(6) 0.3752(14) 0.6844(7)
H4 H 0.401938 0.417687 0.706758
C6 C 0.4353(7) 0.2874(16) 0.5904(6)
C7 C 0.4498(7) 0.2112(15) 0.5341(6)
C8 C 0.4842(7) 0.3319(14) 0.5600(8)
C9 C 0.4408(7) 0.1276(14) 0.5030(7)
C10 C 0.4080(7) 0.0778(19) 0.4979(8)
H5 H 0.389128 0.094134 0.513228
C11 C 0.4027(7) 0.0056(17) 0.4711(9)
C12 C 0.4597(7) 0.0284(15) 0.4512(7)
H7 H 0.477316 0.010602 0.434518
C13 C 0.4686(6) 0.1040(15) 0.4790(7)
C14 C 0.5178(6) 0.3906(13) 0.5600(8)
C15 C 0.5360(7) 0.4267(17) 0.5993(7)
H8 H 0.527882 0.414559 0.625315
C16 C 0.5682(7) 0.4841(17) 0.5977(10)
H9_2 H 0.582293 0.506380 0.623926
C17 C 0.5611(7) 0.4640(15) 0.5261(8)
H10 H 0.570744 0.472723 0.500822
C18 C 0.5308(6) 0.4096(15) 0.5231(7)
H11 H 0.518907 0.385290 0.496362
C21 C 0.2240(5) 0.9527(12) 0.6659(6)
C22 C 0.2061(5) 0.9107(12) 0.6293(6)
H14 H 0.212880 0.851577 0.623197
C23 C 0.1775(5) 0.9560(12) 0.6006(6)
H15 H 0.166822 0.927945 0.574310
C24 C 0.2557(6) 0.9080(13) 0.6953(6)
C25 C 0.3048(6) 0.9171(13) 0.7522(6)
C26 C 0.2912(6) 0.7869(13) 0.7160(6)
C27 C 0.3022(6) 0.6860(13) 0.7142(7)
C28 C 0.2765(6) 0.6265(14) 0.6885(6)
H16 H 0.254266 0.647376 0.670472
C29 C 0.2862(7) 0.5323(14) 0.6914(7)
H17 H 0.270016 0.491614 0.673876
C30 C 0.3411(6) 0.5584(16) 0.7400(8)
H18 H 0.363468 0.536341 0.757127
C31 C 0.3343(6) 0.6500(17) 0.7389(7)
H19 H 0.352133 0.688688 0.755511
C32 C 0.3280(6) 0.9676(13) 0.7899(6)
C33 C 0.3580(7) 0.9253(15) 0.8156(7)
H20 H 0.363120 0.864309 0.810794
C34 C 0.3813(6) 0.9741(13) 0.8496(8)
H21 H 0.402266 0.945045 0.866443
N1 N 0.3613(4) 0.3347(10) 0.6796(5)
N2 N 0.4273(5) 0.2157(11) 0.5647(7)
N3 N 0.4777(5) 0.2646(13) 0.5296(5)
N4 N 0.4636(5) 0.3454(11) 0.5913(6)
N6_2 N 0.5788(5) 0.5066(11) 0.5618(7)
N8 N 0.2740(4) 0.9589(10) 0.7287(5)
N9 N 0.2633(4) 0.8198(10) 0.6878(5)
N10 N 0.3143(4) 0.8301(10) 0.7492(5)
N11 N 0.3164(5) 0.4992(11) 0.7171(5)
Zn1 Zn 0.32720(7) 0.36066(15) 0.72454(8)
Zn2 Zn 0.62184(6) 0.59996(15) 0.56693(8)
I1 I 0.26681(4) 0.26728(9) 0.70209(5)
I2 I 0.36858(4) 0.34362(10) 0.80049(5)
I3_2 I 0.60075(6) 0.73731(11) 0.60594(6)
I4_2 I 0.64025(5) 0.61018(13) 0.49296(6)
N13 N 0.6647(4) 0.5372(10) 0.6092(5)
H24 H 0.495241 0.141594 0.481693
C19_2 C 0.6823(5) 0.5778(12) 0.6465(6)
H12_2 H 0.674015 0.634777 0.653853
C20_2 C 0.7126(5) 0.5357(12) 0.6740(6)
H13_2 H 0.725141 0.566589 0.698746
C21_2 C 0.7240(5) 0.4527(12) 0.6659(6)
C22_2 C 0.7061(5) 0.4107(12) 0.6293(6)
H14_2 H 0.712880 0.351577 0.623197
C23_2 C 0.6775(5) 0.4560(12) 0.6006(6)
H15_2 H 0.666822 0.427945 0.574310
C24_2 C 0.7557(6) 0.4080(13) 0.6953(6)
C25_2 C 0.8048(6) 0.4171(13) 0.7522(6)
C26_2 C 0.7912(6) 0.2869(13) 0.7160(6)
C27_2 C 0.8022(6) 0.1860(13) 0.7142(7)
C28_2 C 0.7765(6) 0.1265(14) 0.6885(6)
H16_2 H 0.754266 0.147376 0.670472
C29_2 C 0.7862(7) 0.0323(14) 0.6914(7)
C30_2 C 0.8411(6) 0.0584(16) 0.7400(8)
H18_2 H 0.863468 0.036341 0.757127
C31_2 C 0.8343(6) 0.1500(17) 0.7389(7)
H19_2 H 0.852133 0.188688 0.755511
C32_2 C 0.8280(6) 0.4676(13) 0.7899(6)
C33_2 C 0.8580(7) 0.4253(15) 0.8156(7)
H20_2 H 0.863120 0.364309 0.810794
C34_2 C 0.8813(6) 0.4741(13) 0.8496(8)
H21_2 H 0.902266 0.445045 0.866443
C35_2 C 0.8440(5) 0.6017(13) 0.8322(6)
H22_2 H 0.839424 0.662822 0.837422
C36_2 C 0.8197(5) 0.5575(13) 0.7984(6)
H23_2 H 0.798580 0.587054 0.782002
N8_2 N 0.7740(4) 0.4589(10) 0.7287(5)
N9_2 N 0.7633(4) 0.3198(10) 0.6878(5)
N10_2 N 0.8143(4) 0.3301(10) 0.7492(5)
N12_2 N 0.8743(4) 0.5597(10) 0.8582(5)
Zn5_2 Zn 0.91373(7) 0.62662(15) 0.90399(7)
C10_2 C 0.9080(7) 0.4222(19) 0.9979(8)
C11_2 C 0.9027(7) 0.4944(17) 0.9711(9)
H6_2 H 0.880453 0.528172 0.969307
C12_2 C 0.9597(7) 0.4716(15) 0.9512(7)
H7_2 H 0.977316 0.489398 0.934518
C13_2 C 0.9686(6) 0.3960(15) 0.9790(7)
N5_2 N 0.9270(6) 0.5201(11) 0.9473(6)
I5_2 I 0.88081(5) 0.74454(10) 0.94282(5)
I6_2 I 0.96974(4) 0.65465(10) 0.86684(5)
H24_2 H 0.995241 0.358406 0.981693
H6_3 H 0.380453 0.971828 0.469307
N5_3 N 0.4270(6) 0.9799(11) 0.4473(6)
Zn3 Zn 0.41373(7) 0.87338(15) 0.40399(7)
I5_3 I 0.38081(5) 0.75546(10) 0.44282(5)
I6_3 I 0.46974(4) 0.84535(10) 0.36684(5)
N14 N 0.3743(4) 0.9403(10) 0.3582(5)
C19_3 C 0.1823(5) 0.9222(12) 0.1465(6)
H12_3 H 0.174015 0.865223 0.153853
C20_3 C 0.2126(5) 0.9643(12) 0.1740(6)
H13_3 H 0.225141 0.933411 0.198746
C35_3 C 0.3440(5) 0.8983(13) 0.3322(6)
H22_3 H 0.339424 0.837178 0.337422
C36_3 C 0.3197(5) 0.9425(13) 0.2984(6)
H23_3 H 0.298580 0.912946 0.282002
N7_2 N 0.1647(4) 0.9628(10) 0.1092(5)
Zn4_2 Zn 0.12184(6) 0.90004(15) 0.06693(8)
H9_3 H 0.082293 0.993620 0.123926
N6_3 N 0.0788(5) 0.9934(11) 0.0618(7)
I3_3 I 0.10075(6) 0.76269(11) 0.10594(6)
C19_4 C 0.8177(5) 0.0778(12) 0.8535(6)
H12_4 H 0.825985 0.134777 0.846147
C20_4 C 0.7874(5) 0.0357(12) 0.8260(6)
H13_4 H 0.774859 0.066589 0.801254
C35_4 C 0.6560(5) 0.1017(13) 0.6678(6)
H22_4 H 0.660576 0.162822 0.662578
C36_4 C 0.6803(5) 0.0575(13) 0.7016(6)
H23_4 H 0.701420 0.087054 0.717998
N7_3 N 0.8353(4) 0.0372(10) 0.8908(5)
N12_3 N 0.6257(4) 0.0597(10) 0.6418(5)
Zn4_3 Zn 0.87816(6) 0.09996(15) 0.93307(8)
Zn5_3 Zn 0.58627(7) 0.12662(15) 0.59601(7)
H9_4 H 0.917707 0.006380 0.876074
N6_4 N 0.9212(5) 0.0066(11) 0.9382(7)
I3_4 I 0.89925(6) 0.23731(11) 0.89406(6)
H6_4 H 0.619547 0.028172 0.530693
N5_4 N 0.5730(6) 0.0201(11) 0.5527(6)
I5_4 I 0.61919(5) 0.24454(10) 0.55718(5)
I6_4 I 0.53026(4) 0.15465(10) 0.63316(5)
C10_3 C 0.5920(7) 0.0778(19) 0.0021(8)
C11_3 C 0.5973(7) 0.0056(17) 0.0289(9)
C12_3 C 0.5403(7) 0.0284(15) 0.0488(7)
H7_3 H 0.522684 0.010602 0.065482
C13_3 C 0.5314(6) 0.1040(15) 0.0210(7)
H11_2 H 0.481093 0.385290 0.003638
I4_3 I 0.35975(5) 0.61018(13) 0.00704(6)
H24_3 H 0.504759 0.141594 0.018307
C1_2 C 0.6486(6) 0.2787(14) 0.8540(7)
H1_2 H 0.672079 0.249393 0.857378
C2_2 C 0.6268(6) 0.2619(14) 0.8834(7)
H2_2 H 0.635517 0.224501 0.907370
C3_2 C 0.5908(6) 0.3018(14) 0.8771(7)
C4_2 C 0.5793(6) 0.3568(14) 0.8423(6)
H3_2 H 0.554892 0.381604 0.836501
C5_2 C 0.6048(6) 0.3752(14) 0.8156(7)
H4_2 H 0.598062 0.417687 0.793242
C6_2 C 0.5647(7) 0.2874(16) 0.9096(6)
C7_2 C 0.5502(7) 0.2112(15) 0.9659(6)
C8_2 C 0.5158(7) 0.3319(14) 0.9400(8)
C9_2 C 0.5592(7) 0.1276(14) 0.9970(7)
H5_2 H 0.610872 0.094134 0.986772
C14_2 C 0.4822(6) 0.3906(13) 0.9400(8)
C15_2 C 0.4640(7) 0.4267(17) 0.9007(7)
H8_2 H 0.472118 0.414559 0.874685
C16_2 C 0.4318(7) 0.4841(17) 0.9023(10)
H9_5 H 0.417707 0.506380 0.876074
C17_2 C 0.4389(7) 0.4640(15) 0.9739(8)
H10_2 H 0.429256 0.472723 0.999178
C18_2 C 0.4692(6) 0.4096(15) 0.9769(7)
C21_3 C 0.7760(5) 0.9527(12) 0.8341(6)
C22_3 C 0.7939(5) 0.9107(12) 0.8707(6)
H14_3 H 0.787120 0.851577 0.876803
C23_3 C 0.8225(5) 0.9560(12) 0.8994(6)
H15_3 H 0.833178 0.927945 0.925690
C24_3 C 0.7443(6) 0.9080(13) 0.8047(6)
C25_3 C 0.6952(6) 0.9171(13) 0.7478(6)
C26_3 C 0.7088(6) 0.7869(13) 0.7840(6)
C27_3 C 0.6978(6) 0.6860(13) 0.7858(7)
C28_3 C 0.7235(6) 0.6265(14) 0.8115(6)
H16_3 H 0.745734 0.647376 0.829528
C29_3 C 0.7138(7) 0.5323(14) 0.8086(7)
H17_2 H 0.729984 0.491614 0.826124
C30_3 C 0.6589(6) 0.5584(16) 0.7600(8)
H18_3 H 0.636532 0.536341 0.742873
C31_3 C 0.6657(6) 0.6500(17) 0.7611(7)
H19_3 H 0.647867 0.688688 0.744489
C32_3 C 0.6720(6) 0.9676(13) 0.7101(6)
C33_3 C 0.6420(7) 0.9253(15) 0.6844(7)
H20_3 H 0.636880 0.864309 0.689206
C34_3 C 0.6187(6) 0.9741(13) 0.6504(8)
H21_3 H 0.597734 0.945045 0.633557
N1_2 N 0.6387(4) 0.3347(10) 0.8204(5)
N2_2 N 0.5727(5) 0.2157(11) 0.9353(7)
N3_2 N 0.5223(5) 0.2646(13) 0.9704(5)
N4_2 N 0.5364(5) 0.3454(11) 0.9087(6)
N6_5 N 0.4212(5) 0.5066(11) 0.9382(7)
N8_3 N 0.7260(4) 0.9589(10) 0.7713(5)
N9_3 N 0.7367(4) 0.8198(10) 0.8122(5)
N10_3 N 0.6857(4) 0.8301(10) 0.7508(5)
N11_2 N 0.6836(5) 0.4992(11) 0.7829(5)
Zn1_2 Zn 0.67280(7) 0.36066(15) 0.77546(8)
Zn2_2 Zn 0.37816(6) 0.59996(15) 0.93307(8)
I1_2 I 0.73319(4) 0.26728(9) 0.79791(5)
I2_2 I 0.63142(4) 0.34362(10) 0.69951(5)
I3_5 I 0.39925(6) 0.73731(11) 0.89406(6)
N13_2 N 0.3353(4) 0.5372(10) 0.8908(5)
C19_5 C 0.3177(5) 0.5778(12) 0.8535(6)
H12_5 H 0.325985 0.634777 0.846147
C20_5 C 0.2874(5) 0.5357(12) 0.8260(6)
H13_5 H 0.274859 0.566589 0.801254
C21_4 C 0.2760(5) 0.4527(12) 0.8341(6)
C22_4 C 0.2939(5) 0.4107(12) 0.8707(6)
H14_4 H 0.287120 0.351577 0.876803
C23_4 C 0.3225(5) 0.4560(12) 0.8994(6)
H15_4 H 0.333178 0.427945 0.925690
C24_4 C 0.2443(6) 0.4080(13) 0.8047(6)
C25_4 C 0.1952(6) 0.4171(13) 0.7478(6)
C26_4 C 0.2088(6) 0.2869(13) 0.7840(6)
C27_4 C 0.1978(6) 0.1860(13) 0.7858(7)
C28_4 C 0.2235(6) 0.1265(14) 0.8115(6)
H16_4 H 0.245734 0.147376 0.829528
C29_4 C 0.2138(7) 0.0323(14) 0.8086(7)
C30_4 C 0.1589(6) 0.0584(16) 0.7600(8)
H18_4 H 0.136532 0.036341 0.742873
C31_4 C 0.1657(6) 0.1500(17) 0.7611(7)
H19_4 H 0.147867 0.188688 0.744489
C32_4 C 0.1720(6) 0.4676(13) 0.7101(6)
C33_4 C 0.1420(7) 0.4253(15) 0.6844(7)
H20_4 H 0.136880 0.364309 0.689206
C34_4 C 0.1187(6) 0.4741(13) 0.6504(8)
H21_4 H 0.097734 0.445045 0.633557
C35_5 C 0.1560(5) 0.6017(13) 0.6678(6)
H22_5 H 0.160576 0.662822 0.662578
C36_5 C 0.1803(5) 0.5575(13) 0.7016(6)
H23_5 H 0.201420 0.587054 0.717998
N8_4 N 0.2260(4) 0.4589(10) 0.7713(5)
N9_4 N 0.2367(4) 0.3198(10) 0.8122(5)
N10_4 N 0.1857(4) 0.3301(10) 0.7508(5)
N12_4 N 0.1257(4) 0.5597(10) 0.6418(5)
Zn5_4 Zn 0.08627(7) 0.62662(15) 0.59601(7)
C1_3 C 0.1486(6) 0.2213(14) 0.3540(7)
H1_3 H 0.172079 0.250607 0.357378
C2_3 C 0.1268(6) 0.2381(14) 0.3834(7)
H2_3 H 0.135517 0.275499 0.407370
C3_3 C 0.0908(6) 0.1982(14) 0.3771(7)
C4_3 C 0.0793(6) 0.1432(14) 0.3423(6)
H3_3 H 0.054892 0.118396 0.336501
C5_3 C 0.1048(6) 0.1248(14) 0.3156(7)
H4_3 H 0.098062 0.082313 0.293242
C6_3 C 0.0647(7) 0.2126(16) 0.4096(6)
C7_3 C 0.0502(7) 0.2888(15) 0.4659(6)
C8_3 C 0.0158(7) 0.1681(14) 0.4400(8)
C9_3 C 0.0592(7) 0.3724(14) 0.4970(7)
C10_4 C 0.0920(7) 0.4222(19) 0.5021(8)
H5_3 H 0.110872 0.405866 0.486772
C11_4 C 0.0973(7) 0.4944(17) 0.5289(9)
H6_5 H 0.119547 0.528172 0.530693
C12_4 C 0.0403(7) 0.4716(15) 0.5488(7)
H7_4 H 0.022684 0.489398 0.565482
C13_4 C 0.0314(6) 0.3960(15) 0.5210(7)
H17_3 H 0.229984 0.008386 0.326124
N1_3 N 0.1387(4) 0.1653(10) 0.3204(5)
N2_3 N 0.0727(5) 0.2843(11) 0.4353(7)
N3_3 N 0.0223(5) 0.2354(13) 0.4704(5)
N4_3 N 0.0364(5) 0.1546(11) 0.4087(6)
N5_5 N 0.0730(6) 0.5201(11) 0.5527(6)
N11_3 N 0.1836(5) 0.0008(11) 0.2829(5)
Zn1_3 Zn 0.17280(7) 0.13934(15) 0.27546(8)
I1_3 I 0.23319(4) 0.23272(9) 0.29791(5)
I2_3 I 0.13142(4) 0.15638(10) 0.19951(5)
I5_5 I 0.11919(5) 0.74454(10) 0.55718(5)
I6_5 I 0.03026(4) 0.65465(10) 0.63316(5)
H24_4 H 0.0047587 0.358406 0.518307
H6_6 H 0.619547 0.971828 0.030693
N5_6 N 0.5730(6) 0.9799(11) 0.0527(6)
Zn3_2 Zn 0.58627(7) 0.87338(15) 0.09601(7)
I5_6 I 0.61919(5) 0.75546(10) 0.05718(5)
I6_6 I 0.53026(4) 0.84535(10) 0.13316(5)
N14_2 N 0.6257(4) 0.9403(10) 0.1418(5)
C19_6 C 0.8177(5) 0.9222(12) 0.3535(6)
H12_6 H 0.825985 0.865223 0.346147
C20_6 C 0.7874(5) 0.9643(12) 0.3260(6)
H13_6 H 0.774859 0.933411 0.301254
C35_6 C 0.6560(5) 0.8983(13) 0.1678(6)
H22_6 H 0.660576 0.837178 0.162578
C36_6 C 0.6803(5) 0.9425(13) 0.2016(6)
H23_6 H 0.701420 0.912946 0.217998
N7_4 N 0.8353(4) 0.9628(10) 0.3908(5)
Zn4_4 Zn 0.87816(6) 0.90004(15) 0.43307(8)
H9_6 H 0.917707 0.993620 0.376074
N6_6 N 0.9212(5) 0.9934(11) 0.4382(7)
I3_6 I 0.89925(6) 0.76269(11) 0.39406(6)
I4_4 I 0.85975(5) 0.88982(13) 0.50704(6)
C14_3 C 0.0178(6) 0.8906(13) 0.5600(8)
C15_3 C 0.0360(7) 0.9267(17) 0.5993(7)
H8_3 H 0.027882 0.914559 0.625315
C16_3 C 0.0682(7) 0.9841(17) 0.5977(10)
C17_3 C 0.0611(7) 0.9640(15) 0.5261(8)
H10_3 H 0.070744 0.972723 0.500822
C18_3 C 0.0308(6) 0.9096(15) 0.5231(7)
H11_3 H 0.018907 0.885290 0.496362
C1_4 C 0.8514(6) 0.7787(14) 0.6460(7)
H1_4 H 0.827921 0.749393 0.642622
C2_4 C 0.8732(6) 0.7619(14) 0.6166(7)
H2_4 H 0.864483 0.724501 0.592630
C3_4 C 0.9092(6) 0.8018(14) 0.6229(7)
C4_4 C 0.9207(6) 0.8568(14) 0.6577(6)
H3_4 H 0.945108 0.881604 0.663499
C5_4 C 0.8952(6) 0.8752(14) 0.6844(7)
H4_4 H 0.901938 0.917687 0.706758
C6_4 C 0.9353(7) 0.7874(16) 0.5904(6)
C7_4 C 0.9498(7) 0.7112(15) 0.5341(6)
C8_4 C 0.9842(7) 0.8319(14) 0.5600(8)
C9_4 C 0.9408(7) 0.6276(14) 0.5030(7)
C10_5 C 0.9080(7) 0.5778(19) 0.4979(8)
H5_4 H 0.889128 0.594134 0.513228
C11_5 C 0.9027(7) 0.5056(17) 0.4711(9)
H6_7 H 0.880453 0.471828 0.469307
C12_5 C 0.9597(7) 0.5284(15) 0.4512(7)
H7_5 H 0.977316 0.510602 0.434518
C13_5 C 0.9686(6) 0.6040(15) 0.4790(7)
H17_4 H 0.770016 0.991614 0.673876
N1_4 N 0.8613(4) 0.8347(10) 0.6796(5)
N2_4 N 0.9273(5) 0.7157(11) 0.5647(7)
N3_4 N 0.9777(5) 0.7646(13) 0.5296(5)
N4_4 N 0.9636(5) 0.8454(11) 0.5913(6)
N5_7 N 0.9270(6) 0.4799(11) 0.4473(6)
N11_4 N 0.8164(5) 0.9992(11) 0.7171(5)
Zn1_4 Zn 0.82720(7) 0.86066(15) 0.72454(8)
Zn3_3 Zn 0.91373(7) 0.37338(15) 0.40399(7)
I1_4 I 0.76681(4) 0.76728(9) 0.70209(5)
I2_4 I 0.86858(4) 0.84362(10) 0.80049(5)
I5_7 I 0.88081(5) 0.25546(10) 0.44282(5)
I6_7 I 0.96974(4) 0.34535(10) 0.36684(5)
N14_3 N 0.8743(4) 0.4403(10) 0.3582(5)
H24_5 H 0.995241 0.641594 0.481693
C1_5 C 0.3514(6) 0.7213(14) 0.1460(7)
H1_5 H 0.327921 0.750607 0.142622
C2_5 C 0.3732(6) 0.7381(14) 0.1166(7)
H2_5 H 0.364483 0.775499 0.092630
C3_5 C 0.4092(6) 0.6982(14) 0.1229(7)
C4_5 C 0.4207(6) 0.6432(14) 0.1577(6)
H3_5 H 0.445108 0.618396 0.163499
C5_5 C 0.3952(6) 0.6248(14) 0.1844(7)
H4_5 H 0.401938 0.582313 0.206758
C6_5 C 0.4353(7) 0.7126(16) 0.0904(6)
C7_5 C 0.4498(7) 0.7888(15) 0.0341(6)
C8_5 C 0.4842(7) 0.6681(14) 0.0600(8)
C9_5 C 0.4408(7) 0.8724(14) 0.0030(7)
H5_5 H 0.389128 0.905866 0.013228
C14_4 C 0.5178(6) 0.6094(13) 0.0600(8)
C15_4 C 0.5360(7) 0.5733(17) 0.0993(7)
H8_4 H 0.527882 0.585441 0.125315
C16_4 C 0.5682(7) 0.5159(17) 0.0977(10)
H9_7 H 0.582293 0.493620 0.123926
C17_4 C 0.5611(7) 0.5360(15) 0.0261(8)
H10_4 H 0.570744 0.527277 0.000822
C18_4 C 0.5308(6) 0.5904(15) 0.0231(7)
C21_5 C 0.2240(5) 0.0473(12) 0.1659(6)
C22_5 C 0.2061(5) 0.0893(12) 0.1293(6)
H14_5 H 0.212880 0.148423 0.123197
C23_5 C 0.1775(5) 0.0440(12) 0.1006(6)
H15_5 H 0.166822 0.072055 0.074310
C24_5 C 0.2557(6) 0.0920(13) 0.1953(6)
C25_5 C 0.3048(6) 0.0829(13) 0.2522(6)
C26_5 C 0.2912(6) 0.2131(13) 0.2160(6)
C27_5 C 0.3022(6) 0.3140(13) 0.2142(7)
C28_5 C 0.2765(6) 0.3735(14) 0.1885(6)
H16_5 H 0.254266 0.352624 0.170472
C29_5 C 0.2862(7) 0.4677(14) 0.1914(7)
H17_5 H 0.270016 0.508386 0.173876
C30_5 C 0.3411(6) 0.4416(16) 0.2400(8)
H18_5 H 0.363468 0.463659 0.257127
C31_5 C 0.3343(6) 0.3500(17) 0.2389(7)
H19_5 H 0.352133 0.311312 0.255511
C32_5 C 0.3280(6) 0.0324(13) 0.2899(6)
C33_5 C 0.3580(7) 0.0747(15) 0.3156(7)
H20_5 H 0.363120 0.135691 0.310794
C34_5 C 0.3813(6) 0.0259(13) 0.3496(8)
H21_5 H 0.402266 0.054955 0.366443
N1_5 N 0.3613(4) 0.6653(10) 0.1796(5)
N2_5 N 0.4273(5) 0.7843(11) 0.0647(7)
N3_5 N 0.4777(5) 0.7354(13) 0.0296(5)
N4_5 N 0.4636(5) 0.6546(11) 0.0913(6)
N6_7 N 0.5788(5) 0.4934(11) 0.0618(7)
N8_5 N 0.2740(4) 0.0411(10) 0.2287(5)
N9_5 N 0.2633(4) 0.1802(10) 0.1878(5)
N10_5 N 0.3143(4) 0.1699(10) 0.2492(5)
N11_5 N 0.3164(5) 0.5008(11) 0.2171(5)
Zn1_5 Zn 0.32720(7) 0.63934(15) 0.22454(8)
Zn2_3 Zn 0.62184(6) 0.40004(15) 0.06693(8)
I1_5 I 0.26681(4) 0.73272(9) 0.20209(5)
I2_5 I 0.36858(4) 0.65638(10) 0.30049(5)
I3_7 I 0.60075(6) 0.26269(11) 0.10594(6)
N13_3 N 0.6647(4) 0.4628(10) 0.1092(5)
C19_7 C 0.6823(5) 0.4222(12) 0.1465(6)
H12_7 H 0.674015 0.365223 0.153853
C20_7 C 0.7126(5) 0.4643(12) 0.1740(6)
H13_7 H 0.725141 0.433411 0.198746
C21_6 C 0.7240(5) 0.5473(12) 0.1659(6)
C22_6 C 0.7061(5) 0.5893(12) 0.1293(6)
H14_6 H 0.712880 0.648423 0.123197
C23_6 C 0.6775(5) 0.5440(12) 0.1006(6)
H15_6 H 0.666822 0.572055 0.074310
C24_6 C 0.7557(6) 0.5920(13) 0.1953(6)
C25_6 C 0.8048(6) 0.5829(13) 0.2522(6)
C26_6 C 0.7912(6) 0.7131(13) 0.2160(6)
C27_6 C 0.8022(6) 0.8140(13) 0.2142(7)
C28_6 C 0.7765(6) 0.8735(14) 0.1885(6)
H16_6 H 0.754266 0.852624 0.170472
C29_6 C 0.7862(7) 0.9677(14) 0.1914(7)
C30_6 C 0.8411(6) 0.9416(16) 0.2400(8)
H18_6 H 0.863468 0.963659 0.257127
C31_6 C 0.8343(6) 0.8500(17) 0.2389(7)
H19_6 H 0.852133 0.811312 0.255511
C32_6 C 0.8280(6) 0.5324(13) 0.2899(6)
C33_6 C 0.8580(7) 0.5747(15) 0.3156(7)
H20_6 H 0.863120 0.635691 0.310794
C34_6 C 0.8813(6) 0.5259(13) 0.3496(8)
H21_6 H 0.902266 0.554955 0.366443
C35_7 C 0.8440(5) 0.3983(13) 0.3322(6)
H22_7 H 0.839424 0.337178 0.337422
C36_7 C 0.8197(5) 0.4425(13) 0.2984(6)
H23_7 H 0.798580 0.412946 0.282002
N8_6 N 0.7740(4) 0.5411(10) 0.2287(5)
N9_6 N 0.7633(4) 0.6802(10) 0.1878(5)
N10_6 N 0.8143(4) 0.6699(10) 0.2492(5)
C10_6 C 0.0920(7) 0.5778(19) 0.0021(8)
C11_6 C 0.0973(7) 0.5056(17) 0.0289(9)
H6_8 H 0.119547 0.471828 0.030693
C12_6 C 0.0403(7) 0.5284(15) 0.0488(7)
H7_6 H 0.022684 0.510602 0.065482
C13_6 C 0.0314(6) 0.6040(15) 0.0210(7)
N5_8 N 0.0730(6) 0.4799(11) 0.0527(6)
Zn3_4 Zn 0.08627(7) 0.37338(15) 0.09601(7)
I5_8 I 0.11919(5) 0.25546(10) 0.05718(5)
I6_8 I 0.03026(4) 0.34535(10) 0.13316(5)
N14_4 N 0.1257(4) 0.4403(10) 0.1418(5)
H24_6 H 0.0047587 0.641594 0.018307
C1_6 C 0.6486(6) 0.7213(14) 0.3540(7)
H1_6 H 0.672079 0.750607 0.357378
C2_6 C 0.6268(6) 0.7381(14) 0.3834(7)
H2_6 H 0.635517 0.775499 0.407370
C3_6 C 0.5908(6) 0.6982(14) 0.3771(7)
C4_6 C 0.5793(6) 0.6432(14) 0.3423(6)
H3_6 H 0.554892 0.618396 0.336501
C5_6 C 0.6048(6) 0.6248(14) 0.3156(7)
H4_6 H 0.598062 0.582313 0.293242
C6_6 C 0.5647(7) 0.7126(16) 0.4096(6)
C7_6 C 0.5502(7) 0.7888(15) 0.4659(6)
C8_6 C 0.5158(7) 0.6681(14) 0.4400(8)
C9_6 C 0.5592(7) 0.8724(14) 0.4970(7)
C10_7 C 0.5920(7) 0.9222(19) 0.5021(8)
H5_6 H 0.610872 0.905866 0.486772
C11_7 C 0.5973(7) 0.9944(17) 0.5289(9)
C12_7 C 0.5403(7) 0.9716(15) 0.5488(7)
H7_7 H 0.522684 0.989398 0.565482
C13_7 C 0.5314(6) 0.8960(15) 0.5210(7)
C14_5 C 0.4822(6) 0.6094(13) 0.4400(8)
C15_5 C 0.4640(7) 0.5733(17) 0.4007(7)
H8_5 H 0.472118 0.585441 0.374685
C16_5 C 0.4318(7) 0.5159(17) 0.4023(10)
H9_8 H 0.417707 0.493620 0.376074
C17_5 C 0.4389(7) 0.5360(15) 0.4739(8)
H10_5 H 0.429256 0.527277 0.499178
C18_5 C 0.4692(6) 0.5904(15) 0.4769(7)
H11_4 H 0.481093 0.614710 0.503638
C21_7 C 0.7760(5) 0.0473(12) 0.3341(6)
C22_7 C 0.7939(5) 0.0893(12) 0.3707(6)
H14_7 H 0.787120 0.148423 0.376803
C23_7 C 0.8225(5) 0.0440(12) 0.3994(6)
H15_7 H 0.833178 0.072055 0.425690
C24_7 C 0.7443(6) 0.0920(13) 0.3047(6)
C25_7 C 0.6952(6) 0.0829(13) 0.2478(6)
C26_7 C 0.7088(6) 0.2131(13) 0.2840(6)
C27_7 C 0.6978(6) 0.3140(13) 0.2858(7)
C28_7 C 0.7235(6) 0.3735(14) 0.3115(6)
H16_7 H 0.745734 0.352624 0.329528
C29_7 C 0.7138(7) 0.4677(14) 0.3086(7)
H17_6 H 0.729984 0.508386 0.326124
C30_7 C 0.6589(6) 0.4416(16) 0.2600(8)
H18_7 H 0.636532 0.463659 0.242873
C31_7 C 0.6657(6) 0.3500(17) 0.2611(7)
H19_7 H 0.647867 0.311312 0.244489
C32_7 C 0.6720(6) 0.0324(13) 0.2101(6)
C33_7 C 0.6420(7) 0.0747(15) 0.1844(7)
H20_7 H 0.636880 0.135691 0.189206
C34_7 C 0.6187(6) 0.0259(13) 0.1504(8)
H21_7 H 0.597734 0.054955 0.133557
N1_6 N 0.6387(4) 0.6653(10) 0.3204(5)
N2_6 N 0.5727(5) 0.7843(11) 0.4353(7)
N3_6 N 0.5223(5) 0.7354(13) 0.4704(5)
N4_6 N 0.5364(5) 0.6546(11) 0.4087(6)
N6_8 N 0.4212(5) 0.4934(11) 0.4382(7)
N8_7 N 0.7260(4) 0.0411(10) 0.2713(5)
N9_7 N 0.7367(4) 0.1802(10) 0.3122(5)
N10_7 N 0.6857(4) 0.1699(10) 0.2508(5)
N11_6 N 0.6836(5) 0.5008(11) 0.2829(5)
Zn1_6 Zn 0.67280(7) 0.63934(15) 0.27546(8)
Zn2_4 Zn 0.37816(6) 0.40004(15) 0.43307(8)
I1_6 I 0.73319(4) 0.73272(9) 0.29791(5)
I2_6 I 0.63142(4) 0.65638(10) 0.19951(5)
I3_8 I 0.39925(6) 0.26269(11) 0.39406(6)
I4_5 I 0.35975(5) 0.38982(13) 0.50704(6)
N13_4 N 0.3353(4) 0.4628(10) 0.3908(5)
H24_7 H 0.504759 0.858406 0.518307
C19_8 C 0.3177(5) 0.4222(12) 0.3535(6)
H12_8 H 0.325985 0.365223 0.346147
C20_8 C 0.2874(5) 0.4643(12) 0.3260(6)
H13_8 H 0.274859 0.433411 0.301254
C21_8 C 0.2760(5) 0.5473(12) 0.3341(6)
C22_8 C 0.2939(5) 0.5893(12) 0.3707(6)
H14_8 H 0.287120 0.648423 0.376803
C23_8 C 0.3225(5) 0.5440(12) 0.3994(6)
H15_8 H 0.333178 0.572055 0.425690
C24_8 C 0.2443(6) 0.5920(13) 0.3047(6)
C25_8 C 0.1952(6) 0.5829(13) 0.2478(6)
C26_8 C 0.2088(6) 0.7131(13) 0.2840(6)
C27_8 C 0.1978(6) 0.8140(13) 0.2858(7)
C28_8 C 0.2235(6) 0.8735(14) 0.3115(6)
H16_8 H 0.245734 0.852624 0.329528
C29_8 C 0.2138(7) 0.9677(14) 0.3086(7)
C30_8 C 0.1589(6) 0.9416(16) 0.2600(8)
H18_8 H 0.136532 0.963659 0.242873
C31_8 C 0.1657(6) 0.8500(17) 0.2611(7)
H19_8 H 0.147867 0.811312 0.244489
C32_8 C 0.1720(6) 0.5324(13) 0.2101(6)
C33_8 C 0.1420(7) 0.5747(15) 0.1844(7)
H20_8 H 0.136880 0.635691 0.189206
C34_8 C 0.1187(6) 0.5259(13) 0.1504(8)
H21_8 H 0.097734 0.554955 0.133557
C35_8 C 0.1560(5) 0.3983(13) 0.1678(6)
H22_8 H 0.160576 0.337178 0.162578
C36_8 C 0.1803(5) 0.4425(13) 0.2016(6)
H23_8 H 0.201420 0.412946 0.217998
N8_8 N 0.2260(4) 0.5411(10) 0.2713(5)
N9_8 N 0.2367(4) 0.6802(10) 0.3122(5)
N10_8 N 0.1857(4) 0.6699(10) 0.2508(5)
C1_7 C 0.1486(6) 0.7787(14) 0.8540(7)
H1_7 H 0.172079 0.749393 0.857378
C2_7 C 0.1268(6) 0.7619(14) 0.8834(7)
H2_7 H 0.135517 0.724501 0.907370
C3_7 C 0.0908(6) 0.8018(14) 0.8771(7)
C4_7 C 0.0793(6) 0.8568(14) 0.8423(6)
H3_7 H 0.054892 0.881604 0.836501
C5_7 C 0.1048(6) 0.8752(14) 0.8156(7)
H4_7 H 0.098062 0.917687 0.793242
C6_7 C 0.0647(7) 0.7874(16) 0.9096(6)
C7_7 C 0.0502(7) 0.7112(15) 0.9659(6)
C8_7 C 0.0158(7) 0.8319(14) 0.9400(8)
C9_7 C 0.0592(7) 0.6276(14) 0.9970(7)
H5_7 H 0.110872 0.594134 0.986772
H17_7 H 0.229984 0.991614 0.826124
N1_7 N 0.1387(4) 0.8347(10) 0.8204(5)
N2_7 N 0.0727(5) 0.7157(11) 0.9353(7)
N3_7 N 0.0223(5) 0.7646(13) 0.9704(5)
N4_7 N 0.0364(5) 0.8454(11) 0.9087(6)
N11_7 N 0.1836(5) 0.9992(11) 0.7829(5)
Zn1_7 Zn 0.17280(7) 0.86066(15) 0.77546(8)
I1_7 I 0.23319(4) 0.76728(9) 0.79791(5)
I2_7 I 0.13142(4) 0.84362(10) 0.69951(5)
I4_6 I 0.85975(5) 0.11018(13) 0.00704(6)
H11_5 H 0.981093 0.885290 0.003638
C14_6 C 0.9822(6) 0.8906(13) 0.9400(8)
C15_6 C 0.9640(7) 0.9267(17) 0.9007(7)
H8_6 H 0.972118 0.914559 0.874685
C16_6 C 0.9318(7) 0.9841(17) 0.9023(10)
C17_6 C 0.9389(7) 0.9640(15) 0.9739(8)
H10_6 H 0.929256 0.972723 0.999178
C18_6 C 0.9692(6) 0.9096(15) 0.9769(7)
C10_8 C 0.4080(7) 0.9222(19) 0.9979(8)
C11_8 C 0.4027(7) 0.9944(17) 0.9711(9)
C12_8 C 0.4597(7) 0.9716(15) 0.9512(7)
H7_8 H 0.477316 0.989398 0.934518
C13_8 C 0.4686(6) 0.8960(15) 0.9790(7)
H11_6 H 0.518907 0.614710 0.996362
I4_7 I 0.64025(5) 0.38982(13) 0.99296(6)
H24_8 H 0.495241 0.858406 0.981693
C14_7 C 0.9822(6) 0.1094(13) 0.4400(8)
C15_7 C 0.9640(7) 0.0733(17) 0.4007(7)
H8_7 H 0.972118 0.085441 0.374685
C16_7 C 0.9318(7) 0.0159(17) 0.4023(10)
C17_7 C 0.9389(7) 0.0360(15) 0.4739(8)
H10_7 H 0.929256 0.027277 0.499178
C18_7 C 0.9692(6) 0.0904(15) 0.4769(7)
H11_7 H 0.981093 0.114710 0.503638
C14_8 C 0.0178(6) 0.1094(13) 0.0600(8)
C15_8 C 0.0360(7) 0.0733(17) 0.0993(7)
H8_8 H 0.027882 0.085441 0.125315
C16_8 C 0.0682(7) 0.0159(17) 0.0977(10)
C17_8 C 0.0611(7) 0.0360(15) 0.0261(8)
H10_8 H 0.070744 0.027277 0.000822
C18_8 C 0.0308(6) 0.0904(15) 0.0231(7)
H11_8 H 0.018907 0.114710 0.996362
I4_8 I 0.14025(5) 0.88982(13) 0.99296(6)
C1_8 C 0.8514(6) 0.2213(14) 0.1460(7)
H1_8 H 0.827921 0.250607 0.142622
C2_8 C 0.8732(6) 0.2381(14) 0.1166(7)
H2_8 H 0.864483 0.275499 0.092630
C3_8 C 0.9092(6) 0.1982(14) 0.1229(7)
C4_8 C 0.9207(6) 0.1432(14) 0.1577(6)
H3_8 H 0.945108 0.118396 0.163499
C5_8 C 0.8952(6) 0.1248(14) 0.1844(7)
H4_8 H 0.901938 0.082313 0.206758
C6_8 C 0.9353(7) 0.2126(16) 0.0904(6)
C7_8 C 0.9498(7) 0.2888(15) 0.0341(6)
C8_8 C 0.9842(7) 0.1681(14) 0.0600(8)
C9_8 C 0.9408(7) 0.3724(14) 0.0030(7)
H5_8 H 0.889128 0.405866 0.013228
H17_8 H 0.770016 0.008386 0.173876
N1_8 N 0.8613(4) 0.1653(10) 0.1796(5)
N2_8 N 0.9273(5) 0.2843(11) 0.0647(7)
N3_8 N 0.9777(5) 0.2354(13) 0.0296(5)
N4_8 N 0.9636(5) 0.1546(11) 0.0913(6)
N11_8 N 0.8164(5) 0.0008(11) 0.2171(5)
Zn1_8 Zn 0.82720(7) 0.13934(15) 0.22454(8)
I1_8 I 0.76681(4) 0.23272(9) 0.20209(5)
I2_8 I 0.86858(4) 0.15638(10) 0.30049(5)
loop_
_geom_bond_atom_site_label_1
_geom_bond_atom_site_label_2
_geom_bond_site_symmetry_1
_geom_bond_site_symmetry_2
C19 H12 1_555 1_555
C20 C19 1_555 1_555
H13 C20 1_555 1_555
C35 H22 1_555 1_555
H23 C36 1_555 1_555
N7 C19 1_555 1_555
Zn4 N7 1_555 1_555
Zn5 N12 1_555 1_555
C35 C36 1_555 1_555
C35 N12 1_555 1_555
Zn4 N6 1_555 1_555
I3 Zn4 1_555 1_555
I4 Zn4 1_555 1_555
Zn5 N5 1_555 1_555
I5 Zn5 1_555 1_555
I6 Zn5 1_555 1_555
C1 H1 1_555 1_555
C2 C1 1_555 1_555
H2 C2 1_555 1_555
C3 C2 1_555 1_555
C4 C3 1_555 1_555
H3 C4 1_555 1_555
C5 C4 1_555 1_555
H4 C5 1_555 1_555
C6 C3 1_555 1_555
C7 C9 1_555 1_555
C8 C14 1_555 1_555
C9 C10 1_555 1_555
C10 H5 1_555 1_555
C11 C10 1_555 1_555
C12 H7 1_555 1_555
C13 C9 1_555 1_555
C14 C15 1_555 1_555
C15 H8 1_555 1_555
C16 C15 1_555 1_555
H9_2 C16 1_555 1_555
C17 H10 1_555 1_555
C18 C14 1_555 1_555
H11 C18 1_555 1_555
C22 C21 1_555 1_555
H14 C22 1_555 1_555
C23 C22 1_555 1_555
H15 C23 1_555 1_555
C24 C21 1_555 1_555
C25 C32 1_555 1_555
C26 C27 1_555 1_555
C27 C28 1_555 1_555
C28 H16 1_555 1_555
C29 C28 1_555 1_555
H17 C29 1_555 1_555
C30 H18 1_555 1_555
C31 C27 1_555 1_555
H19 C31 1_555 1_555
C32 C33 1_555 1_555
C33 H20 1_555 1_555
C34 C33 1_555 1_555
H21 C34 1_555 1_555
N1 C1 1_555 1_555
N2 C6 1_555 1_555
N3 C7 1_555 1_555
N4 C6 1_555 1_555
N6_2 C16 1_555 1_555
N8 C24 1_555 1_555
N9 C24 1_555 1_555
N10 C25 1_555 1_555
N11 C29 1_555 1_555
Zn1 N1 1_555 1_555
Zn2 N6_2 1_555 1_555
I1 Zn1 1_555 1_555
I2 Zn1 1_555 1_555
I3_2 Zn2 1_555 1_555
I4_2 Zn2 1_555 1_555
N13 Zn2 1_555 1_555
C5 N1 1_555 1_555
C7 N2 1_555 1_555
C8 N3 1_555 1_555
C8 N4 1_555 1_555
C12 C13 1_555 1_555
C17 C18 1_555 1_555
C17 N6_2 1_555 1_555
C25 N8 1_555 1_555
C26 N9 1_555 1_555
C26 N10 1_555 1_555
C30 C31 1_555 1_555
C30 N11 1_555 1_555
N11 Zn1 1_555 1_555
C13 H24 1_555 1_555
C19_2 H12_2 1_555 1_555
C20_2 C19_2 1_555 1_555
H13_2 C20_2 1_555 1_555
C21_2 C20_2 1_555 1_555
C22_2 C21_2 1_555 1_555
H14_2 C22_2 1_555 1_555
C23_2 C22_2 1_555 1_555
H15_2 C23_2 1_555 1_555
C24_2 C21_2 1_555 1_555
C25_2 C32_2 1_555 1_555
C26_2 C27_2 1_555 1_555
C27_2 C28_2 1_555 1_555
C28_2 H16_2 1_555 1_555
C29_2 C28_2 1_555 1_555
C30_2 H18_2 1_555 1_555
C31_2 C27_2 1_555 1_555
H19_2 C31_2 1_555 1_555
C32_2 C33_2 1_555 1_555
C33_2 H20_2 1_555 1_555
C34_2 C33_2 1_555 1_555
H21_2 C34_2 1_555 1_555
C35_2 H22_2 1_555 1_555
C36_2 C32_2 1_555 1_555
H23_2 C36_2 1_555 1_555
N13 C19_2 1_555 1_555
N8_2 C24_2 1_555 1_555
N9_2 C24_2 1_555 1_555
N10_2 C25_2 1_555 1_555
N12_2 C34_2 1_555 1_555
Zn5_2 N12_2 1_555 1_555
C23_2 N13 1_555 1_555
C25_2 N8_2 1_555 1_555
C26_2 N9_2 1_555 1_555
C26_2 N10_2 1_555 1_555
C30_2 C31_2 1_555 1_555
C35_2 C36_2 1_555 1_555
C35_2 N12_2 1_555 1_555
C11_2 C10_2 1_555 1_555
H6_2 C11_2 1_555 1_555
C12_2 H7_2 1_555 1_555
N5_2 C11_2 1_555 1_555
Zn5_2 N5_2 1_555 1_555
I5_2 Zn5_2 1_555 1_555
I6_2 Zn5_2 1_555 1_555
C12_2 C13_2 1_555 1_555
C12_2 N5_2 1_555 1_555
C13_2 H24_2 1_555 1_555
Zn3 N5_3 1_555 1_555
I5_3 Zn3 1_555 1_555
I6_3 Zn3 1_555 1_555
N14 Zn3 1_555 1_555
C19_3 H12_3 1_555 1_555
C20_3 C19_3 1_555 1_555
H13_3 C20_3 1_555 1_555
C35_3 H22_3 1_555 1_555
H23_3 C36_3 1_555 1_555
N7_2 C19_3 1_555 1_555
Zn4_2 N7_2 1_555 1_555
C35_3 C36_3 1_555 1_555
C35_3 N14 1_555 1_555
Zn4_2 N6_3 1_555 1_555
I3_3 Zn4_2 1_555 1_555
C19_4 H12_4 1_555 1_555
C20_4 C19_4 1_555 1_555
H13_4 C20_4 1_555 1_555
C35_4 H22_4 1_555 1_555
H23_4 C36_4 1_555 1_555
N7_3 C19_4 1_555 1_555
Zn4_3 N7_3 1_555 1_555
Zn5_3 N12_3 1_555 1_555
C35_4 C36_4 1_555 1_555
C35_4 N12_3 1_555 1_555
Zn4_3 N6_4 1_555 1_555
I3_4 Zn4_3 1_555 1_555
Zn5_3 N5_4 1_555 1_555
I5_4 Zn5_3 1_555 1_555
I6_4 Zn5_3 1_555 1_555
C11_3 C10_3 1_555 1_555
C12_3 H7_3 1_555 1_555
C12_3 C13_3 1_555 1_555
C13_3 H24_3 1_555 1_555
C1_2 H1_2 1_555 1_555
C2_2 C1_2 1_555 1_555
H2_2 C2_2 1_555 1_555
C3_2 C2_2 1_555 1_555
C4_2 C3_2 1_555 1_555
H3_2 C4_2 1_555 1_555
C5_2 C4_2 1_555 1_555
H4_2 C5_2 1_555 1_555
C6_2 C3_2 1_555 1_555
C7_2 C9_2 1_555 1_555
C8_2 C14_2 1_555 1_555
C14_2 C15_2 1_555 1_555
C15_2 H8_2 1_555 1_555
C16_2 C15_2 1_555 1_555
H9_5 C16_2 1_555 1_555
C17_2 H10_2 1_555 1_555
C18_2 C14_2 1_555 1_555
C22_3 C21_3 1_555 1_555
H14_3 C22_3 1_555 1_555
C23_3 C22_3 1_555 1_555
H15_3 C23_3 1_555 1_555
C24_3 C21_3 1_555 1_555
C25_3 C32_3 1_555 1_555
C26_3 C27_3 1_555 1_555
C27_3 C28_3 1_555 1_555
C28_3 H16_3 1_555 1_555
C29_3 C28_3 1_555 1_555
H17_2 C29_3 1_555 1_555
C30_3 H18_3 1_555 1_555
C31_3 C27_3 1_555 1_555
H19_3 C31_3 1_555 1_555
C32_3 C33_3 1_555 1_555
C33_3 H20_3 1_555 1_555
C34_3 C33_3 1_555 1_555
H21_3 C34_3 1_555 1_555
N1_2 C1_2 1_555 1_555
N2_2 C6_2 1_555 1_555
N3_2 C7_2 1_555 1_555
N4_2 C6_2 1_555 1_555
N6_5 C16_2 1_555 1_555
N8_3 C24_3 1_555 1_555
N9_3 C24_3 1_555 1_555
N10_3 C25_3 1_555 1_555
N11_2 C29_3 1_555 1_555
Zn1_2 N1_2 1_555 1_555
Zn2_2 N6_5 1_555 1_555
I1_2 Zn1_2 1_555 1_555
I2_2 Zn1_2 1_555 1_555
I3_5 Zn2_2 1_555 1_555
N13_2 Zn2_2 1_555 1_555
C5_2 N1_2 1_555 1_555
C7_2 N2_2 1_555 1_555
C8_2 N3_2 1_555 1_555
C8_2 N4_2 1_555 1_555
C17_2 C18_2 1_555 1_555
C17_2 N6_5 1_555 1_555
C25_3 N8_3 1_555 1_555
C26_3 N9_3 1_555 1_555
C26_3 N10_3 1_555 1_555
C30_3 C31_3 1_555 1_555
C30_3 N11_2 1_555 1_555
N11_2 Zn1_2 1_555 1_555
C19_5 H12_5 1_555 1_555
C20_5 C19_5 1_555 1_555
H13_5 C20_5 1_555 1_555
C21_4 C20_5 1_555 1_555
C22_4 C21_4 1_555 1_555
H14_4 C22_4 1_555 1_555
C23_4 C22_4 1_555 1_555
H15_4 C23_4 1_555 1_555
C24_4 C21_4 1_555 1_555
C25_4 C32_4 1_555 1_555
C26_4 C27_4 1_555 1_555
C27_4 C28_4 1_555 1_555
C28_4 H16_4 1_555 1_555
C29_4 C28_4 1_555 1_555
C30_4 H18_4 1_555 1_555
C31_4 C27_4 1_555 1_555
H19_4 C31_4 1_555 1_555
C32_4 C33_4 1_555 1_555
C33_4 H20_4 1_555 1_555
C34_4 C33_4 1_555 1_555
H21_4 C34_4 1_555 1_555
C35_5 H22_5 1_555 1_555
C36_5 C32_4 1_555 1_555
H23_5 C36_5 1_555 1_555
N13_2 C19_5 1_555 1_555
N8_4 C24_4 1_555 1_555
N9_4 C24_4 1_555 1_555
N10_4 C25_4 1_555 1_555
N12_4 C34_4 1_555 1_555
Zn5_4 N12_4 1_555 1_555
C23_4 N13_2 1_555 1_555
C25_4 N8_4 1_555 1_555
C26_4 N9_4 1_555 1_555
C26_4 N10_4 1_555 1_555
C30_4 C31_4 1_555 1_555
C35_5 C36_5 1_555 1_555
C35_5 N12_4 1_555 1_555
C1_3 H1_3 1_555 1_555
C2_3 C1_3 1_555 1_555
H2_3 C2_3 1_555 1_555
C3_3 C2_3 1_555 1_555
C4_3 C3_3 1_555 1_555
H3_3 C4_3 1_555 1_555
C5_3 C4_3 1_555 1_555
H4_3 C5_3 1_555 1_555
C6_3 C3_3 1_555 1_555
C7_3 C9_3 1_555 1_555
C9_3 C10_4 1_555 1_555
C10_4 H5_3 1_555 1_555
C11_4 C10_4 1_555 1_555
H6_5 C11_4 1_555 1_555
C12_4 H7_4 1_555 1_555
C13_4 C9_3 1_555 1_555
N1_3 C1_3 1_555 1_555
N2_3 C6_3 1_555 1_555
N3_3 C7_3 1_555 1_555
N4_3 C6_3 1_555 1_555
N5_5 C11_4 1_555 1_555
Zn1_3 N1_3 1_555 1_555
Zn5_4 N5_5 1_555 1_555
I1_3 Zn1_3 1_555 1_555
I2_3 Zn1_3 1_555 1_555
I5_5 Zn5_4 1_555 1_555
I6_5 Zn5_4 1_555 1_555
C5_3 N1_3 1_555 1_555
C7_3 N2_3 1_555 1_555
C8_3 N3_3 1_555 1_555
C8_3 N4_3 1_555 1_555
C12_4 C13_4 1_555 1_555
C12_4 N5_5 1_555 1_555
N11_3 Zn1_3 1_555 1_555
C13_4 H24_4 1_555 1_555
Zn3_2 N5_6 1_555 1_555
I5_6 Zn3_2 1_555 1_555
I6_6 Zn3_2 1_555 1_555
N14_2 Zn3_2 1_555 1_555
C19_6 H12_6 1_555 1_555
C20_6 C19_6 1_555 1_555
H13_6 C20_6 1_555 1_555
C35_6 H22_6 1_555 1_555
H23_6 C36_6 1_555 1_555
N7_4 C19_6 1_555 1_555
Zn4_4 N7_4 1_555 1_555
C35_6 C36_6 1_555 1_555
C35_6 N14_2 1_555 1_555
Zn4_4 N6_6 1_555 1_555
I3_6 Zn4_4 1_555 1_555
I4_4 Zn4_4 1_555 1_555
C14_3 C15_3 1_555 1_555
C15_3 H8_3 1_555 1_555
C16_3 C15_3 1_555 1_555
C17_3 H10_3 1_555 1_555
C18_3 C14_3 1_555 1_555
H11_3 C18_3 1_555 1_555
C17_3 C18_3 1_555 1_555
C1_4 H1_4 1_555 1_555
C2_4 C1_4 1_555 1_555
H2_4 C2_4 1_555 1_555
C3_4 C2_4 1_555 1_555
C4_4 C3_4 1_555 1_555
H3_4 C4_4 1_555 1_555
C5_4 C4_4 1_555 1_555
H4_4 C5_4 1_555 1_555
C6_4 C3_4 1_555 1_555
C7_4 C9_4 1_555 1_555
C9_4 C10_5 1_555 1_555
C10_5 H5_4 1_555 1_555
C11_5 C10_5 1_555 1_555
H6_7 C11_5 1_555 1_555
C12_5 H7_5 1_555 1_555
C13_5 C9_4 1_555 1_555
N1_4 C1_4 1_555 1_555
N2_4 C6_4 1_555 1_555
N3_4 C7_4 1_555 1_555
N4_4 C6_4 1_555 1_555
N5_7 C11_5 1_555 1_555
Zn1_4 N1_4 1_555 1_555
Zn3_3 N5_7 1_555 1_555
I1_4 Zn1_4 1_555 1_555
I2_4 Zn1_4 1_555 1_555
I5_7 Zn3_3 1_555 1_555
I6_7 Zn3_3 1_555 1_555
N14_3 Zn3_3 1_555 1_555
C5_4 N1_4 1_555 1_555
C7_4 N2_4 1_555 1_555
C8_4 N3_4 1_555 1_555
C8_4 N4_4 1_555 1_555
C12_5 C13_5 1_555 1_555
C12_5 N5_7 1_555 1_555
N11_4 Zn1_4 1_555 1_555
C13_5 H24_5 1_555 1_555
C1_5 H1_5 1_555 1_555
C2_5 C1_5 1_555 1_555
H2_5 C2_5 1_555 1_555
C3_5 C2_5 1_555 1_555
C4_5 C3_5 1_555 1_555
H3_5 C4_5 1_555 1_555
C5_5 C4_5 1_555 1_555
H4_5 C5_5 1_555 1_555
C6_5 C3_5 1_555 1_555
C7_5 C9_5 1_555 1_555
C8_5 C14_4 1_555 1_555
C14_4 C15_4 1_555 1_555
C15_4 H8_4 1_555 1_555
C16_4 C15_4 1_555 1_555
H9_7 C16_4 1_555 1_555
C17_4 H10_4 1_555 1_555
C18_4 C14_4 1_555 1_555
C22_5 C21_5 1_555 1_555
H14_5 C22_5 1_555 1_555
C23_5 C22_5 1_555 1_555
H15_5 C23_5 1_555 1_555
C24_5 C21_5 1_555 1_555
C25_5 C32_5 1_555 1_555
C26_5 C27_5 1_555 1_555
C27_5 C28_5 1_555 1_555
C28_5 H16_5 1_555 1_555
C29_5 C28_5 1_555 1_555
H17_5 C29_5 1_555 1_555
C30_5 H18_5 1_555 1_555
C31_5 C27_5 1_555 1_555
H19_5 C31_5 1_555 1_555
C32_5 C33_5 1_555 1_555
C33_5 H20_5 1_555 1_555
C34_5 C33_5 1_555 1_555
H21_5 C34_5 1_555 1_555
N1_5 C1_5 1_555 1_555
N2_5 C6_5 1_555 1_555
N3_5 C7_5 1_555 1_555
N4_5 C6_5 1_555 1_555
N6_7 C16_4 1_555 1_555
N8_5 C24_5 1_555 1_555
N9_5 C24_5 1_555 1_555
N10_5 C25_5 1_555 1_555
N11_5 C29_5 1_555 1_555
Zn1_5 N1_5 1_555 1_555
Zn2_3 N6_7 1_555 1_555
I1_5 Zn1_5 1_555 1_555
I2_5 Zn1_5 1_555 1_555
I3_7 Zn2_3 1_555 1_555
N13_3 Zn2_3 1_555 1_555
C5_5 N1_5 1_555 1_555
C7_5 N2_5 1_555 1_555
C8_5 N3_5 1_555 1_555
C8_5 N4_5 1_555 1_555
C17_4 C18_4 1_555 1_555
C17_4 N6_7 1_555 1_555
C25_5 N8_5 1_555 1_555
C26_5 N9_5 1_555 1_555
C26_5 N10_5 1_555 1_555
C30_5 C31_5 1_555 1_555
C30_5 N11_5 1_555 1_555
N11_5 Zn1_5 1_555 1_555
C19_7 H12_7 1_555 1_555
C20_7 C19_7 1_555 1_555
H13_7 C20_7 1_555 1_555
C21_6 C20_7 1_555 1_555
C22_6 C21_6 1_555 1_555
H14_6 C22_6 1_555 1_555
C23_6 C22_6 1_555 1_555
H15_6 C23_6 1_555 1_555
C24_6 C21_6 1_555 1_555
C25_6 C32_6 1_555 1_555
C26_6 C27_6 1_555 1_555
C27_6 C28_6 1_555 1_555
C28_6 H16_6 1_555 1_555
C29_6 C28_6 1_555 1_555
C30_6 H18_6 1_555 1_555
C31_6 C27_6 1_555 1_555
H19_6 C31_6 1_555 1_555
C32_6 C33_6 1_555 1_555
C33_6 H20_6 1_555 1_555
C34_6 C33_6 1_555 1_555
H21_6 C34_6 1_555 1_555
C35_7 H22_7 1_555 1_555
C36_7 C32_6 1_555 1_555
H23_7 C36_7 1_555 1_555
N13_3 C19_7 1_555 1_555
N8_6 C24_6 1_555 1_555
N9_6 C24_6 1_555 1_555
N10_6 C25_6 1_555 1_555
N14_3 C34_6 1_555 1_555
C23_6 N13_3 1_555 1_555
C25_6 N8_6 1_555 1_555
C26_6 N9_6 1_555 1_555
C26_6 N10_6 1_555 1_555
C30_6 C31_6 1_555 1_555
C35_7 C36_7 1_555 1_555
C35_7 N14_3 1_555 1_555
C11_6 C10_6 1_555 1_555
H6_8 C11_6 1_555 1_555
C12_6 H7_6 1_555 1_555
N5_8 C11_6 1_555 1_555
Zn3_4 N5_8 1_555 1_555
I5_8 Zn3_4 1_555 1_555
I6_8 Zn3_4 1_555 1_555
N14_4 Zn3_4 1_555 1_555
C12_6 C13_6 1_555 1_555
C12_6 N5_8 1_555 1_555
C13_6 H24_6 1_555 1_555
C1_6 H1_6 1_555 1_555
C2_6 C1_6 1_555 1_555
H2_6 C2_6 1_555 1_555
C3_6 C2_6 1_555 1_555
C4_6 C3_6 1_555 1_555
H3_6 C4_6 1_555 1_555
C5_6 C4_6 1_555 1_555
H4_6 C5_6 1_555 1_555
C6_6 C3_6 1_555 1_555
C7_6 C9_6 1_555 1_555
C8_6 C14_5 1_555 1_555
C9_6 C10_7 1_555 1_555
C10_7 H5_6 1_555 1_555
C11_7 C10_7 1_555 1_555
C12_7 H7_7 1_555 1_555
C13_7 C9_6 1_555 1_555
C14_5 C15_5 1_555 1_555
C15_5 H8_5 1_555 1_555
C16_5 C15_5 1_555 1_555
H9_8 C16_5 1_555 1_555
C17_5 H10_5 1_555 1_555
C18_5 C14_5 1_555 1_555
H11_4 C18_5 1_555 1_555
C22_7 C21_7 1_555 1_555
H14_7 C22_7 1_555 1_555
C23_7 C22_7 1_555 1_555
H15_7 C23_7 1_555 1_555
C24_7 C21_7 1_555 1_555
C25_7 C32_7 1_555 1_555
C26_7 C27_7 1_555 1_555
C27_7 C28_7 1_555 1_555
C28_7 H16_7 1_555 1_555
C29_7 C28_7 1_555 1_555
H17_6 C29_7 1_555 1_555
C30_7 H18_7 1_555 1_555
C31_7 C27_7 1_555 1_555
H19_7 C31_7 1_555 1_555
C32_7 C33_7 1_555 1_555
C33_7 H20_7 1_555 1_555
C34_7 C33_7 1_555 1_555
H21_7 C34_7 1_555 1_555
N1_6 C1_6 1_555 1_555
N2_6 C6_6 1_555 1_555
N3_6 C7_6 1_555 1_555
N4_6 C6_6 1_555 1_555
N6_8 C16_5 1_555 1_555
N8_7 C24_7 1_555 1_555
N9_7 C24_7 1_555 1_555
N10_7 C25_7 1_555 1_555
N11_6 C29_7 1_555 1_555
Zn1_6 N1_6 1_555 1_555
Zn2_4 N6_8 1_555 1_555
I1_6 Zn1_6 1_555 1_555
I2_6 Zn1_6 1_555 1_555
I3_8 Zn2_4 1_555 1_555
I4_5 Zn2_4 1_555 1_555
N13_4 Zn2_4 1_555 1_555
C5_6 N1_6 1_555 1_555
C7_6 N2_6 1_555 1_555
C8_6 N3_6 1_555 1_555
C8_6 N4_6 1_555 1_555
C12_7 C13_7 1_555 1_555
C17_5 C18_5 1_555 1_555
C17_5 N6_8 1_555 1_555
C25_7 N8_7 1_555 1_555
C26_7 N9_7 1_555 1_555
C26_7 N10_7 1_555 1_555
C30_7 C31_7 1_555 1_555
C30_7 N11_6 1_555 1_555
N11_6 Zn1_6 1_555 1_555
C13_7 H24_7 1_555 1_555
C19_8 H12_8 1_555 1_555
C20_8 C19_8 1_555 1_555
H13_8 C20_8 1_555 1_555
C21_8 C20_8 1_555 1_555
C22_8 C21_8 1_555 1_555
H14_8 C22_8 1_555 1_555
C23_8 C22_8 1_555 1_555
H15_8 C23_8 1_555 1_555
C24_8 C21_8 1_555 1_555
C25_8 C32_8 1_555 1_555
C26_8 C27_8 1_555 1_555
C27_8 C28_8 1_555 1_555
C28_8 H16_8 1_555 1_555
C29_8 C28_8 1_555 1_555
C30_8 H18_8 1_555 1_555
C31_8 C27_8 1_555 1_555
H19_8 C31_8 1_555 1_555
C32_8 C33_8 1_555 1_555
C33_8 H20_8 1_555 1_555
C34_8 C33_8 1_555 1_555
H21_8 C34_8 1_555 1_555
C35_8 H22_8 1_555 1_555
C36_8 C32_8 1_555 1_555
H23_8 C36_8 1_555 1_555
N13_4 C19_8 1_555 1_555
N8_8 C24_8 1_555 1_555
N9_8 C24_8 1_555 1_555
N10_8 C25_8 1_555 1_555
N14_4 C34_8 1_555 1_555
C23_8 N13_4 1_555 1_555
C25_8 N8_8 1_555 1_555
C26_8 N9_8 1_555 1_555
C26_8 N10_8 1_555 1_555
C30_8 C31_8 1_555 1_555
C35_8 C36_8 1_555 1_555
C35_8 N14_4 1_555 1_555
C1_7 H1_7 1_555 1_555
C2_7 C1_7 1_555 1_555
H2_7 C2_7 1_555 1_555
C3_7 C2_7 1_555 1_555
C4_7 C3_7 1_555 1_555
H3_7 C4_7 1_555 1_555
C5_7 C4_7 1_555 1_555
H4_7 C5_7 1_555 1_555
C6_7 C3_7 1_555 1_555
C7_7 C9_7 1_555 1_555
N1_7 C1_7 1_555 1_555
N2_7 C6_7 1_555 1_555
N3_7 C7_7 1_555 1_555
N4_7 C6_7 1_555 1_555
Zn1_7 N1_7 1_555 1_555
I1_7 Zn1_7 1_555 1_555
I2_7 Zn1_7 1_555 1_555
C5_7 N1_7 1_555 1_555
C7_7 N2_7 1_555 1_555
C8_7 N3_7 1_555 1_555
C8_7 N4_7 1_555 1_555
N11_7 Zn1_7 1_555 1_555
C14_6 C15_6 1_555 1_555
C15_6 H8_6 1_555 1_555
C16_6 C15_6 1_555 1_555
C17_6 H10_6 1_555 1_555
C18_6 C14_6 1_555 1_555
C17_6 C18_6 1_555 1_555
C11_8 C10_8 1_555 1_555
C12_8 H7_8 1_555 1_555
C12_8 C13_8 1_555 1_555
C13_8 H24_8 1_555 1_555
C14_7 C15_7 1_555 1_555
C15_7 H8_7 1_555 1_555
C16_7 C15_7 1_555 1_555
C17_7 H10_7 1_555 1_555
C18_7 C14_7 1_555 1_555
H11_7 C18_7 1_555 1_555
C17_7 C18_7 1_555 1_555
C14_8 C15_8 1_555 1_555
C15_8 H8_8 1_555 1_555
C16_8 C15_8 1_555 1_555
C17_8 H10_8 1_555 1_555
C18_8 C14_8 1_555 1_555
C17_8 C18_8 1_555 1_555
C1_8 H1_8 1_555 1_555
C2_8 C1_8 1_555 1_555
H2_8 C2_8 1_555 1_555
C3_8 C2_8 1_555 1_555
C4_8 C3_8 1_555 1_555
H3_8 C4_8 1_555 1_555
C5_8 C4_8 1_555 1_555
H4_8 C5_8 1_555 1_555
C6_8 C3_8 1_555 1_555
C7_8 C9_8 1_555 1_555
N1_8 C1_8 1_555 1_555
N2_8 C6_8 1_555 1_555
N3_8 C7_8 1_555 1_555
N4_8 C6_8 1_555 1_555
Zn1_8 N1_8 1_555 1_555
I1_8 Zn1_8 1_555 1_555
I2_8 Zn1_8 1_555 1_555
C5_8 N1_8 1_555 1_555
C7_8 N2_8 1_555 1_555
C8_8 N3_8 1_555 1_555
C8_8 N4_8 1_555 1_555
N11_8 Zn1_8 1_555 1_555

#END
