
###############################################################################
#
# This file contains modified crystal structure data generated from the
# MOF subset of the Cambridge Structural Database (CSD) v543 
# hosted by the Cambridge Crystallographic Data Centre (CCDC).
#
# This work is licensed under the Creative Commons
# Attribution-NonCommercial-ShareAlike 4.0 International License.
# To view a copy of this license, visit
# http://creativecommons.org/licenses/by-nc-sa/4.0/
# or send a letter to
# Creative Commons, PO Box 1866, Mountain View, CA 94042, USA.
#
# CIF created using the CSD Python API on 29 September 2022
# The structure has been converted into the P1 space group
# The structure has a 3D framework
# The original CSD entry JATYOW is in the orthorhombic crystal system
# The framework has been calculated to contain at least 10.0% void space
# The void calculation uses a probe of radius 1.32A, grid spacing 0.4
#
###############################################################################

data_JATYOW
_chemical_formula_moiety         '(C464 H288 N32 O96 Zn24)n'
_symmetry_cell_setting           triclinic
_symmetry_space_group_name_H-M   'P 1'
_symmetry_Int_Tables_number      1
_space_group_name_Hall           'P 1'
loop_
_symmetry_equiv_pos_site_id
_symmetry_equiv_pos_as_xyz
1 x,y,z
_cell_length_a                   42.797(11)
_cell_length_b                   27.103(7)
_cell_length_c                   23.411(6)
_cell_angle_alpha                90
_cell_angle_beta                 90
_cell_angle_gamma                90
_cell_volume                     27155.1
loop_
_atom_site_label
_atom_site_type_symbol
_atom_site_fract_x
_atom_site_fract_y
_atom_site_fract_z
Zn1 Zn 0.250000 0.13137(3) 0.250000
Zn2 Zn 0.31976(2) 0.61504(2) 0.29570(3)
O1 O 0.20133(7) 0.37158(10) 0.72163(13)
O2 O 0.30533(8) 0.56059(11) 0.34274(13)
O3 O 0.17473(9) 0.43973(12) 0.70087(13)
O4 O 0.23734(8) 0.18567(11) 0.30425(14)
O5 O 0.25781(8) 0.57317(11) 0.30579(15)
O6 O 0.18853(8) 0.17732(11) 0.33666(14)
N1 N 0.36671(9) 0.61393(13) 0.29885(17)
N2 N 0.22621(12) 0.38228(12) 0.45173(16)
C1 C 0.26402(11) 0.50543(14) 0.36681(18)
C2 C 0.27653(12) 0.54951(14) 0.33650(17)
C3 C 0.21706(13) 0.38709(15) 0.50992(18)
C4 C 0.21678(11) 0.24746(15) 0.36339(18)
C5 C 0.19981(11) 0.39807(15) 0.62433(18)
C6 C 0.21393(11) 0.20006(15) 0.33256(18)
C7 C 0.21311(12) 0.35394(15) 0.60461(19)
H1 H 0.216165 0.327345 0.630445
C8 C 0.22283(13) 0.33688(15) 0.42182(19)
C9 C 0.19063(11) 0.40503(16) 0.68445(19)
C10 C 0.23856(12) 0.48090(16) 0.3442(2)
H2 H 0.229180 0.492300 0.309823
C11 C 0.24310(12) 0.27721(16) 0.3567(2)
H3 H 0.259283 0.266736 0.331758
C12 C 0.27693(13) 0.48892(16) 0.41716(19)
H4 H 0.294756 0.505143 0.432381
C13 C 0.23915(14) 0.42381(15) 0.42294(19)
C14 C 0.20320(14) 0.43033(16) 0.52893(19)
H5 H 0.199723 0.456513 0.502720
C15 C 0.22173(13) 0.34870(15) 0.54887(19)
H6 H 0.230978 0.318710 0.536396
C16 C 0.24634(14) 0.32115(17) 0.3852(2)
H7 H 0.264543 0.340686 0.379909
C17 C 0.19446(13) 0.43595(15) 0.58473(19)
H8 H 0.184701 0.465679 0.596726
C18 C 0.22666(14) 0.43935(17) 0.3719(2)
H9 H 0.209783 0.421640 0.355287
C19 C 0.19353(13) 0.26404(17) 0.3990(2)
H10 H 0.174983 0.245192 0.403546
C20 C 0.19697(14) 0.30806(17) 0.4284(2)
H11 H 0.180925 0.318411 0.453787
C21 C 0.26429(15) 0.44895(16) 0.4459(2)
H12 H 0.272894 0.438825 0.481454
C22 C 0.46745(15) 0.6123(3) 0.3061(4)
C23 C 0.43265(15) 0.6123(2) 0.3035(3)
C24 C 0.38349(14) 0.5757(2) 0.2814(3)
H13 H 0.372755 0.547835 0.266433
C25 C 0.38307(15) 0.6505(2) 0.3204(4)
H14 H 0.371929 0.678329 0.334405
C26 C 0.41582(14) 0.5741(2) 0.2837(4)
H15 H 0.426360 0.545293 0.270868
C27 C 0.41519(16) 0.6515(3) 0.3241(4)
H16 H 0.425383 0.679138 0.340794
C28 C 0.4834(2) 0.5700(4) 0.3048(5)
H17 H 0.472417 0.539577 0.303806
C29 C 0.48336(19) 0.6518(4) 0.3146(5)
H18 H 0.472602 0.681908 0.321183
N3 N 0.63329(9) 0.61393(13) 0.29885(17)
C30 C 0.53255(15) 0.6123(3) 0.3061(4)
C31 C 0.56735(15) 0.6123(2) 0.3035(3)
C32 C 0.61651(14) 0.5757(2) 0.2814(3)
H19 H 0.627245 0.547835 0.266433
C33 C 0.61693(15) 0.6505(2) 0.3204(4)
H20 H 0.628071 0.678329 0.334405
C34 C 0.58418(14) 0.5741(2) 0.2837(4)
H21 H 0.573640 0.545293 0.270868
C35 C 0.58481(16) 0.6515(3) 0.3241(4)
H22 H 0.574617 0.679138 0.340794
C36 C 0.5166(2) 0.5700(4) 0.3048(5)
H23 H 0.527583 0.539577 0.303806
C37 C 0.51664(19) 0.6518(4) 0.3146(5)
H24 H 0.527398 0.681908 0.321183
Zn3 Zn 0.18024(2) 0.61504(2) 0.20430(3)
O8 O 0.19467(8) 0.56059(11) 0.15726(13)
O10 O 0.26266(8) 0.18567(11) 0.19575(14)
O11 O 0.24219(8) 0.57317(11) 0.19421(15)
O12 O 0.31147(8) 0.17732(11) 0.16334(14)
N4 N 0.27379(12) 0.38228(12) 0.04827(16)
C38 C 0.23598(11) 0.50543(14) 0.13319(18)
C39 C 0.22347(12) 0.54951(14) 0.16350(17)
C41 C 0.28322(11) 0.24746(15) 0.13661(18)
C43 C 0.28607(11) 0.20006(15) 0.16744(18)
C45 C 0.27717(13) 0.33688(15) 0.07818(19)
C47 C 0.26144(12) 0.48090(16) 0.1558(2)
H26 H 0.270820 0.492300 0.190177
C48 C 0.25690(12) 0.27721(16) 0.1433(2)
H27 H 0.240717 0.266736 0.168242
C49 C 0.22307(13) 0.48892(16) 0.08284(19)
H28 H 0.205244 0.505143 0.067619
C50 C 0.26085(14) 0.42381(15) 0.07706(19)
C53 C 0.25366(14) 0.32115(17) 0.1148(2)
H31 H 0.235457 0.340686 0.120091
C55 C 0.27334(14) 0.43935(17) 0.1281(2)
H33 H 0.290217 0.421640 0.144713
C56 C 0.30647(13) 0.26404(17) 0.1010(2)
H34 H 0.325017 0.245192 0.096454
C57 C 0.30303(14) 0.30806(17) 0.0716(2)
H35 H 0.319075 0.318411 0.046213
C58 C 0.23571(15) 0.44895(16) 0.0541(2)
H36 H 0.227106 0.438825 0.018546
Zn4 Zn 0.250000 0.63137(3) 0.250000
Zn6 Zn 0.250000 0.36863(3) 0.750000
Zn8 Zn 0.18024(2) 0.38496(2) 0.79570(3)
Zn9 Zn 0.31976(2) 0.11504(2) 0.20430(3)
Zn10 Zn 0.68024(2) 0.61504(2) 0.29570(3)
Zn11 Zn 0.18024(2) 0.11504(2) 0.29570(3)
O13 O 0.20133(7) 0.62842(10) 0.27837(13)
O14 O 0.29867(7) 0.62842(10) 0.22163(13)
O15 O 0.20133(7) 0.12842(10) 0.22163(13)
O16 O 0.29867(7) 0.12842(10) 0.27837(13)
O17 O 0.25781(8) 0.07317(11) 0.19421(15)
O18 O 0.24219(8) 0.07317(11) 0.30579(15)
O19 O 0.18853(8) 0.67732(11) 0.16334(14)
O20 O 0.31147(8) 0.67732(11) 0.33666(14)
N5 N 0.13329(9) 0.61393(13) 0.20115(17)
O7 O 0.29867(7) 0.37158(10) 0.77837(13)
O9 O 0.32527(9) 0.43973(12) 0.79913(13)
C40 C 0.28294(13) 0.38709(15) 0.99008(18)
C42 C 0.30019(11) 0.39807(15) 0.87567(18)
C44 C 0.28689(12) 0.35394(15) 0.89539(19)
H25 H 0.283835 0.327345 0.869555
C46 C 0.30937(11) 0.40503(16) 0.81555(19)
C51 C 0.29680(14) 0.43033(16) 0.97107(19)
H29 H 0.300277 0.456513 0.997280
C52 C 0.27827(13) 0.34870(15) 0.95113(19)
H30 H 0.269022 0.318710 0.963604
C54 C 0.30554(13) 0.43595(15) 0.91527(19)
H32 H 0.315299 0.465679 0.903274
Zn7 Zn 0.31976(2) 0.38496(2) 0.70430(3)
O1_2 O 0.79867(7) 0.12842(10) 0.22163(13)
O3_2 O 0.82527(9) 0.06027(12) 0.20087(13)
C3_2 C 0.78294(13) 0.11291(15) 0.00992(18)
C5_2 C 0.80019(11) 0.10193(15) 0.12433(18)
C7_2 C 0.78689(12) 0.14606(15) 0.10461(19)
H1_2 H 0.783835 0.172655 0.130445
C9_2 C 0.80937(11) 0.09497(16) 0.18445(19)
C14_2 C 0.79680(14) 0.06967(16) 0.02893(19)
H5_2 H 0.800277 0.043487 0.002720
C15_2 C 0.77827(13) 0.15130(15) 0.04887(19)
H6_2 H 0.769022 0.181290 0.036396
C17_2 C 0.80554(13) 0.06405(15) 0.08473(19)
H8_2 H 0.815299 0.034321 0.096726
Zn6_2 Zn 0.750000 0.13137(3) 0.250000
Zn8_2 Zn 0.81976(2) 0.11504(2) 0.29570(3)
Zn1_2 Zn 0.750000 0.36863(3) 0.750000
O4_2 O 0.76266(8) 0.31433(11) 0.80425(14)
O6_2 O 0.81147(8) 0.32268(11) 0.83666(14)
N2_2 N 0.77379(12) 0.11772(12) 0.95173(16)
C4_2 C 0.78322(11) 0.25254(15) 0.86339(18)
C6_2 C 0.78607(11) 0.29994(15) 0.83256(18)
C8_2 C 0.77717(13) 0.16312(15) 0.92182(19)
C10_2 C 0.76144(12) 0.01910(16) 0.8442(2)
H2_2 H 0.770820 0.007700 0.809823
C11_2 C 0.75690(12) 0.22279(16) 0.8567(2)
H3_2 H 0.740717 0.233264 0.831758
C12_2 C 0.72307(13) 0.01108(16) 0.91716(19)
C13_2 C 0.76085(14) 0.07619(15) 0.92294(19)
C16_2 C 0.75366(14) 0.17885(17) 0.8852(2)
H7_2 H 0.735457 0.159314 0.879909
C18_2 C 0.77334(14) 0.06065(17) 0.8719(2)
H9_2 H 0.790217 0.078360 0.855287
C19_2 C 0.80647(13) 0.23596(17) 0.8990(2)
H10_2 H 0.825017 0.254808 0.903546
C20_2 C 0.80303(14) 0.19194(17) 0.9284(2)
H11_2 H 0.819075 0.181589 0.953787
C21_2 C 0.73571(15) 0.05105(16) 0.9459(2)
H12_2 H 0.727106 0.061175 0.981454
O7_2 O 0.70133(7) 0.12842(10) 0.27837(13)
O9_2 O 0.67473(9) 0.06027(12) 0.29913(13)
O10_2 O 0.73734(8) 0.31433(11) 0.69575(14)
O12_2 O 0.68853(8) 0.32268(11) 0.66334(14)
N4_2 N 0.72621(12) 0.11772(12) 0.54827(16)
C40_2 C 0.71706(13) 0.11291(15) 0.49008(18)
C41_2 C 0.71678(11) 0.25254(15) 0.63661(18)
C42_2 C 0.69981(11) 0.10193(15) 0.37567(18)
C43_2 C 0.71393(11) 0.29994(15) 0.66744(18)
C44_2 C 0.71311(12) 0.14606(15) 0.39539(19)
H25_2 H 0.716165 0.172655 0.369555
C45_2 C 0.72283(13) 0.16312(15) 0.57818(19)
C46_2 C 0.69063(11) 0.09497(16) 0.31555(19)
C47_2 C 0.73856(12) 0.01910(16) 0.6558(2)
H26_2 H 0.729180 0.007700 0.690177
C48_2 C 0.74310(12) 0.22279(16) 0.6433(2)
H27_2 H 0.759283 0.233264 0.668242
C49_2 C 0.77693(13) 0.01108(16) 0.58284(19)
C50_2 C 0.73915(14) 0.07619(15) 0.57706(19)
C51_2 C 0.70320(14) 0.06967(16) 0.47107(19)
H29_2 H 0.699723 0.043487 0.497280
C52_2 C 0.72173(13) 0.15130(15) 0.45113(19)
H30_2 H 0.730978 0.181290 0.463604
C53_2 C 0.74634(14) 0.17885(17) 0.6148(2)
H31_2 H 0.764543 0.159314 0.620091
C54_2 C 0.69446(13) 0.06405(15) 0.41527(19)
H32_2 H 0.684701 0.034321 0.403274
C55_2 C 0.72666(14) 0.06065(17) 0.6281(2)
H33_2 H 0.709783 0.078360 0.644713
C56_2 C 0.69353(13) 0.23596(17) 0.6010(2)
H34_2 H 0.674983 0.254808 0.596454
C57_2 C 0.69697(14) 0.19194(17) 0.5716(2)
H35_2 H 0.680925 0.181589 0.546213
C58_2 C 0.76429(15) 0.05105(16) 0.5541(2)
H36_2 H 0.772894 0.061175 0.518546
Zn7_2 Zn 0.68024(2) 0.11504(2) 0.20430(3)
Zn9_2 Zn 0.68024(2) 0.38496(2) 0.70430(3)
Zn11_2 Zn 0.81976(2) 0.38496(2) 0.79570(3)
O15_2 O 0.79867(7) 0.37158(10) 0.72163(13)
O16_2 O 0.70133(7) 0.37158(10) 0.77837(13)
O17_2 O 0.74219(8) 0.42683(11) 0.69421(15)
O18_2 O 0.75781(8) 0.42683(11) 0.80579(15)
Zn2_2 Zn 0.68024(2) 0.88496(2) 0.79570(3)
O2_2 O 0.69467(8) 0.93941(11) 0.84274(13)
O5_2 O 0.74219(8) 0.92683(11) 0.80579(15)
N1_2 N 0.63329(9) 0.88607(13) 0.79885(17)
C1_2 C 0.73598(11) 0.99457(14) 0.86681(18)
C2_2 C 0.72347(12) 0.95049(14) 0.83650(17)
H4_2 H 0.705244 0.994857 0.932381
C22_2 C 0.53255(15) 0.8877(3) 0.8061(4)
C23_2 C 0.56735(15) 0.8877(2) 0.8035(3)
C24_2 C 0.61651(14) 0.9243(2) 0.7814(3)
H13_2 H 0.627245 0.952165 0.766433
C25_2 C 0.61693(15) 0.8495(2) 0.8204(4)
H14_2 H 0.628071 0.821671 0.834405
C26_2 C 0.58418(14) 0.9259(2) 0.7837(4)
H15_2 H 0.573640 0.954707 0.770868
C27_2 C 0.58481(16) 0.8485(3) 0.8241(4)
H16_2 H 0.574617 0.820862 0.840794
C28_2 C 0.5166(2) 0.9300(4) 0.8048(5)
H17_2 H 0.527583 0.960423 0.803806
C29_2 C 0.51664(19) 0.8482(4) 0.8146(5)
H18_2 H 0.527398 0.818092 0.821183
N3_2 N 0.36671(9) 0.88607(13) 0.79885(17)
C30_2 C 0.46745(15) 0.8877(3) 0.8061(4)
C31_2 C 0.43265(15) 0.8877(2) 0.8035(3)
C32_2 C 0.38349(14) 0.9243(2) 0.7814(3)
H19_2 H 0.372755 0.952165 0.766433
C33_2 C 0.38307(15) 0.8495(2) 0.8204(4)
H20_2 H 0.371929 0.821671 0.834405
C34_2 C 0.41582(14) 0.9259(2) 0.7837(4)
H21_2 H 0.426360 0.954707 0.770868
C35_2 C 0.41519(16) 0.8485(3) 0.8241(4)
H22_2 H 0.425383 0.820862 0.840794
C36_2 C 0.4834(2) 0.9300(4) 0.8048(5)
H23_2 H 0.472417 0.960423 0.803806
C37_2 C 0.48336(19) 0.8482(4) 0.8146(5)
H24_2 H 0.472602 0.818092 0.821183
Zn3_2 Zn 0.81976(2) 0.88496(2) 0.70430(3)
O8_2 O 0.80533(8) 0.93941(11) 0.65726(13)
O11_2 O 0.75781(8) 0.92683(11) 0.69421(15)
C38_2 C 0.76402(11) 0.99457(14) 0.63319(18)
C39_2 C 0.77653(12) 0.95049(14) 0.66350(17)
H28_2 H 0.794756 0.994857 0.567619
Zn4_2 Zn 0.750000 0.86863(3) 0.750000
Zn10_2 Zn 0.31976(2) 0.88496(2) 0.79570(3)
O13_2 O 0.79867(7) 0.87158(10) 0.77837(13)
O14_2 O 0.70133(7) 0.87158(10) 0.72163(13)
O19_2 O 0.81147(8) 0.82268(11) 0.66334(14)
O20_2 O 0.68853(8) 0.82268(11) 0.83666(14)
N5_2 N 0.86671(9) 0.88607(13) 0.70115(17)
O2_3 O 0.69467(8) 0.06059(11) 0.15726(13)
O5_3 O 0.74219(8) 0.07317(11) 0.19421(15)
N1_3 N 0.63329(9) 0.11393(13) 0.20115(17)
C1_3 C 0.73598(11) 0.00543(14) 0.13319(18)
C2_3 C 0.72347(12) 0.04951(14) 0.16350(17)
H4_3 H 0.705244 0.005143 0.067619
C22_3 C 0.53255(15) 0.1123(3) 0.1939(4)
C23_3 C 0.56735(15) 0.1123(2) 0.1965(3)
C24_3 C 0.61651(14) 0.0757(2) 0.2186(3)
H13_3 H 0.627245 0.047835 0.233567
C25_3 C 0.61693(15) 0.1505(2) 0.1796(4)
H14_3 H 0.628071 0.178329 0.165595
C26_3 C 0.58418(14) 0.0741(2) 0.2163(4)
H15_3 H 0.573640 0.045293 0.229132
C27_3 C 0.58481(16) 0.1515(3) 0.1759(4)
H16_3 H 0.574617 0.179138 0.159206
C28_3 C 0.5166(2) 0.0700(4) 0.1952(5)
H17_3 H 0.527583 0.039577 0.196194
C29_3 C 0.51664(19) 0.1518(4) 0.1854(5)
H18_3 H 0.527398 0.181908 0.178817
N3_3 N 0.36671(9) 0.11393(13) 0.20115(17)
C30_3 C 0.46745(15) 0.1123(3) 0.1939(4)
C31_3 C 0.43265(15) 0.1123(2) 0.1965(3)
C32_3 C 0.38349(14) 0.0757(2) 0.2186(3)
H19_3 H 0.372755 0.047835 0.233567
C33_3 C 0.38307(15) 0.1505(2) 0.1796(4)
H20_3 H 0.371929 0.178329 0.165595
C34_3 C 0.41582(14) 0.0741(2) 0.2163(4)
H21_3 H 0.426360 0.045293 0.229132
C35_3 C 0.41519(16) 0.1515(3) 0.1759(4)
H22_3 H 0.425383 0.179138 0.159206
C36_3 C 0.4834(2) 0.0700(4) 0.1952(5)
H23_3 H 0.472417 0.039577 0.196194
C37_3 C 0.48336(19) 0.1518(4) 0.1854(5)
H24_3 H 0.472602 0.181908 0.178817
O8_3 O 0.80533(8) 0.06059(11) 0.34274(13)
O11_3 O 0.75781(8) 0.07317(11) 0.30579(15)
C38_3 C 0.76402(11) 0.00543(14) 0.36681(18)
C39_3 C 0.77653(12) 0.04951(14) 0.33650(17)
H28_3 H 0.794756 0.005143 0.432381
O19_3 O 0.81147(8) 0.17732(11) 0.33666(14)
O20_3 O 0.68853(8) 0.17732(11) 0.16334(14)
N5_3 N 0.86671(9) 0.11393(13) 0.29885(17)
Zn1_3 Zn 0.750000 0.63137(3) 0.250000
O4_3 O 0.76266(8) 0.68567(11) 0.19575(14)
O6_3 O 0.81147(8) 0.67732(11) 0.16334(14)
N2_3 N 0.77379(12) 0.88228(12) 0.04827(16)
C4_3 C 0.78322(11) 0.74746(15) 0.13661(18)
C6_3 C 0.78607(11) 0.70006(15) 0.16744(18)
C8_3 C 0.77717(13) 0.83688(15) 0.07818(19)
C10_3 C 0.76144(12) 0.98090(16) 0.1558(2)
H2_3 H 0.770820 0.992300 0.190177
C11_3 C 0.75690(12) 0.77721(16) 0.1433(2)
H3_3 H 0.740717 0.766736 0.168242
C12_3 C 0.72307(13) 0.98892(16) 0.08284(19)
C13_3 C 0.76085(14) 0.92381(15) 0.07706(19)
C16_3 C 0.75366(14) 0.82115(17) 0.1148(2)
H7_3 H 0.735457 0.840686 0.120091
C18_3 C 0.77334(14) 0.93935(17) 0.1281(2)
H9_3 H 0.790217 0.921640 0.144713
C19_3 C 0.80647(13) 0.76404(17) 0.1010(2)
H10_3 H 0.825017 0.745192 0.096454
C20_3 C 0.80303(14) 0.80806(17) 0.0716(2)
H11_3 H 0.819075 0.818411 0.046213
C21_3 C 0.73571(15) 0.94895(16) 0.0541(2)
H12_3 H 0.727106 0.938825 0.018546
O9_3 O 0.67473(9) 0.93973(12) 0.70087(13)
O10_3 O 0.73734(8) 0.68567(11) 0.30425(14)
O12_3 O 0.68853(8) 0.67732(11) 0.33666(14)
N4_3 N 0.72621(12) 0.88228(12) 0.45173(16)
C40_3 C 0.71706(13) 0.88709(15) 0.50992(18)
C41_3 C 0.71678(11) 0.74746(15) 0.36339(18)
C42_3 C 0.69981(11) 0.89807(15) 0.62433(18)
C43_3 C 0.71393(11) 0.70006(15) 0.33256(18)
C44_3 C 0.71311(12) 0.85394(15) 0.60461(19)
H25_3 H 0.716165 0.827345 0.630445
C45_3 C 0.72283(13) 0.83688(15) 0.42182(19)
C46_3 C 0.69063(11) 0.90503(16) 0.68445(19)
C47_3 C 0.73856(12) 0.98090(16) 0.3442(2)
H26_3 H 0.729180 0.992300 0.309823
C48_3 C 0.74310(12) 0.77721(16) 0.3567(2)
H27_3 H 0.759283 0.766736 0.331758
C49_3 C 0.77693(13) 0.98892(16) 0.41716(19)
C50_3 C 0.73915(14) 0.92381(15) 0.42294(19)
C51_3 C 0.70320(14) 0.93033(16) 0.52893(19)
H29_3 H 0.699723 0.956513 0.502720
C52_3 C 0.72173(13) 0.84870(15) 0.54887(19)
H30_3 H 0.730978 0.818710 0.536396
C53_3 C 0.74634(14) 0.82115(17) 0.3852(2)
H31_3 H 0.764543 0.840686 0.379909
C54_3 C 0.69446(13) 0.93595(15) 0.58473(19)
H32_3 H 0.684701 0.965679 0.596726
C55_3 C 0.72666(14) 0.93935(17) 0.3719(2)
H33_3 H 0.709783 0.921640 0.355287
C56_3 C 0.69353(13) 0.76404(17) 0.3990(2)
H34_3 H 0.674983 0.745192 0.403546
C57_3 C 0.69697(14) 0.80806(17) 0.4284(2)
H35_3 H 0.680925 0.818411 0.453787
C58_3 C 0.76429(15) 0.94895(16) 0.4459(2)
H36_3 H 0.772894 0.938825 0.481454
Zn11_3 Zn 0.81976(2) 0.61504(2) 0.20430(3)
O15_3 O 0.79867(7) 0.62842(10) 0.27837(13)
O16_3 O 0.70133(7) 0.62842(10) 0.22163(13)
O17_3 O 0.74219(8) 0.57317(11) 0.30579(15)
O18_3 O 0.75781(8) 0.57317(11) 0.19421(15)
O3_3 O 0.82527(9) 0.93973(12) 0.79913(13)
C3_3 C 0.78294(13) 0.88709(15) 0.99008(18)
C5_3 C 0.80019(11) 0.89807(15) 0.87567(18)
C7_3 C 0.78689(12) 0.85394(15) 0.89539(19)
H1_3 H 0.783835 0.827345 0.869555
C9_3 C 0.80937(11) 0.90503(16) 0.81555(19)
C14_3 C 0.79680(14) 0.93033(16) 0.97107(19)
H5_3 H 0.800277 0.956513 0.997280
C15_3 C 0.77827(13) 0.84870(15) 0.95113(19)
H6_3 H 0.769022 0.818710 0.963604
C17_3 C 0.80554(13) 0.93595(15) 0.91527(19)
H8_3 H 0.815299 0.965679 0.903274
O9_4 O 0.32527(9) 0.56027(12) 0.20087(13)
C40_4 C 0.28294(13) 0.61291(15) 0.00992(18)
C42_4 C 0.30019(11) 0.60193(15) 0.12433(18)
C44_4 C 0.28689(12) 0.64606(15) 0.10461(19)
H25_4 H 0.283835 0.672655 0.130445
C46_4 C 0.30937(11) 0.59497(16) 0.18445(19)
C51_4 C 0.29680(14) 0.56967(16) 0.02893(19)
H29_4 H 0.300277 0.543487 0.002720
C52_4 C 0.27827(13) 0.65130(15) 0.04887(19)
H30_4 H 0.269022 0.681290 0.036396
C54_4 C 0.30554(13) 0.56405(15) 0.08473(19)
H32_4 H 0.315299 0.534321 0.096726
Zn1_4 Zn 0.250000 0.86863(3) 0.750000
O2_4 O 0.30533(8) 0.43941(11) 0.65726(13)
O3_4 O 0.17473(9) 0.56027(12) 0.29913(13)
O4_4 O 0.23734(8) 0.81433(11) 0.69575(14)
O5_4 O 0.25781(8) 0.42683(11) 0.69421(15)
O6_4 O 0.18853(8) 0.82268(11) 0.66334(14)
N1_4 N 0.36671(9) 0.38607(13) 0.70115(17)
N2_4 N 0.22621(12) 0.61772(12) 0.54827(16)
C1_4 C 0.26402(11) 0.49457(14) 0.63319(18)
C2_4 C 0.27653(12) 0.45049(14) 0.66350(17)
C3_4 C 0.21706(13) 0.61291(15) 0.49008(18)
C4_4 C 0.21678(11) 0.75254(15) 0.63661(18)
C5_4 C 0.19981(11) 0.60193(15) 0.37567(18)
C6_4 C 0.21393(11) 0.79994(15) 0.66744(18)
C7_4 C 0.21311(12) 0.64606(15) 0.39539(19)
H1_4 H 0.216165 0.672655 0.369555
C8_4 C 0.22283(13) 0.66312(15) 0.57818(19)
C9_4 C 0.19063(11) 0.59497(16) 0.31555(19)
C10_4 C 0.23856(12) 0.51910(16) 0.6558(2)
H2_4 H 0.229180 0.507700 0.690177
C11_4 C 0.24310(12) 0.72279(16) 0.6433(2)
H3_4 H 0.259283 0.733264 0.668242
C12_4 C 0.27693(13) 0.51108(16) 0.58284(19)
H4_4 H 0.294756 0.494857 0.567619
C13_4 C 0.23915(14) 0.57619(15) 0.57706(19)
C14_4 C 0.20320(14) 0.56967(16) 0.47107(19)
H5_4 H 0.199723 0.543487 0.497280
C15_4 C 0.22173(13) 0.65130(15) 0.45113(19)
H6_4 H 0.230978 0.681290 0.463604
C16_4 C 0.24634(14) 0.67885(17) 0.6148(2)
H7_4 H 0.264543 0.659314 0.620091
C17_4 C 0.19446(13) 0.56405(15) 0.41527(19)
H8_4 H 0.184701 0.534321 0.403274
C18_4 C 0.22666(14) 0.56065(17) 0.6281(2)
H9_4 H 0.209783 0.578360 0.644713
C19_4 C 0.19353(13) 0.73596(17) 0.6010(2)
H10_4 H 0.174983 0.754808 0.596454
C20_4 C 0.19697(14) 0.69194(17) 0.5716(2)
H11_4 H 0.180925 0.681589 0.546213
C21_4 C 0.26429(15) 0.55105(16) 0.5541(2)
H12_4 H 0.272894 0.561175 0.518546
C22_4 C 0.46745(15) 0.3877(3) 0.6939(4)
C23_4 C 0.43265(15) 0.3877(2) 0.6965(3)
C24_4 C 0.38349(14) 0.4243(2) 0.7186(3)
H13_4 H 0.372755 0.452165 0.733567
C25_4 C 0.38307(15) 0.3495(2) 0.6796(4)
H14_4 H 0.371929 0.321671 0.665595
C26_4 C 0.41582(14) 0.4259(2) 0.7163(4)
H15_4 H 0.426360 0.454707 0.729132
C27_4 C 0.41519(16) 0.3485(3) 0.6759(4)
H16_4 H 0.425383 0.320862 0.659206
C28_4 C 0.4834(2) 0.4300(4) 0.6952(5)
H17_4 H 0.472417 0.460423 0.696194
C29_4 C 0.48336(19) 0.3482(4) 0.6854(5)
H18_4 H 0.472602 0.318092 0.678817
N3_4 N 0.63329(9) 0.38607(13) 0.70115(17)
C30_4 C 0.53255(15) 0.3877(3) 0.6939(4)
C31_4 C 0.56735(15) 0.3877(2) 0.6965(3)
C32_4 C 0.61651(14) 0.4243(2) 0.7186(3)
H19_4 H 0.627245 0.452165 0.733567
C33_4 C 0.61693(15) 0.3495(2) 0.6796(4)
H20_4 H 0.628071 0.321671 0.665595
C34_4 C 0.58418(14) 0.4259(2) 0.7163(4)
H21_4 H 0.573640 0.454707 0.729132
C35_4 C 0.58481(16) 0.3485(3) 0.6759(4)
H22_4 H 0.574617 0.320862 0.659206
C36_4 C 0.5166(2) 0.4300(4) 0.6952(5)
H23_4 H 0.527583 0.460423 0.696194
C37_4 C 0.51664(19) 0.3482(4) 0.6854(5)
H24_4 H 0.527398 0.318092 0.678817
O8_4 O 0.19467(8) 0.43941(11) 0.84274(13)
O10_4 O 0.26266(8) 0.81433(11) 0.80425(14)
O11_4 O 0.24219(8) 0.42683(11) 0.80579(15)
O12_4 O 0.31147(8) 0.82268(11) 0.83666(14)
N4_4 N 0.27379(12) 0.61772(12) 0.95173(16)
C38_4 C 0.23598(11) 0.49457(14) 0.86681(18)
C39_4 C 0.22347(12) 0.45049(14) 0.83650(17)
C41_4 C 0.28322(11) 0.75254(15) 0.86339(18)
C43_4 C 0.28607(11) 0.79994(15) 0.83256(18)
C45_4 C 0.27717(13) 0.66312(15) 0.92182(19)
C47_4 C 0.26144(12) 0.51910(16) 0.8442(2)
H26_4 H 0.270820 0.507700 0.809823
C48_4 C 0.25690(12) 0.72279(16) 0.8567(2)
H27_4 H 0.240717 0.733264 0.831758
C49_4 C 0.22307(13) 0.51108(16) 0.91716(19)
H28_4 H 0.205244 0.494857 0.932381
C50_4 C 0.26085(14) 0.57619(15) 0.92294(19)
C53_4 C 0.25366(14) 0.67885(17) 0.8852(2)
H31_4 H 0.235457 0.659314 0.879909
C55_4 C 0.27334(14) 0.56065(17) 0.8719(2)
H33_4 H 0.290217 0.578360 0.855287
C56_4 C 0.30647(13) 0.73596(17) 0.8990(2)
H34_4 H 0.325017 0.754808 0.903546
C57_4 C 0.30303(14) 0.69194(17) 0.9284(2)
H35_4 H 0.319075 0.681589 0.953787
C58_4 C 0.23571(15) 0.55105(16) 0.9459(2)
H36_4 H 0.227106 0.561175 0.981454
Zn11_4 Zn 0.18024(2) 0.88496(2) 0.70430(3)
O15_4 O 0.20133(7) 0.87158(10) 0.77837(13)
O16_4 O 0.29867(7) 0.87158(10) 0.72163(13)
O17_4 O 0.25781(8) 0.92683(11) 0.80579(15)
O18_4 O 0.24219(8) 0.92683(11) 0.69421(15)
O19_4 O 0.18853(8) 0.32268(11) 0.83666(14)
O20_4 O 0.31147(8) 0.32268(11) 0.66334(14)
N5_4 N 0.13329(9) 0.38607(13) 0.79885(17)
N3_5 N 0.13329(9) 0.11393(13) 0.29885(17)
C30_5 C 0.03255(15) 0.1123(3) 0.3061(4)
C31_5 C 0.06735(15) 0.1123(2) 0.3035(3)
C32_5 C 0.11651(14) 0.0757(2) 0.2814(3)
H19_5 H 0.127245 0.047835 0.266433
C33_5 C 0.11693(15) 0.1505(2) 0.3204(4)
H20_5 H 0.128071 0.178329 0.334405
C34_5 C 0.08418(14) 0.0741(2) 0.2837(4)
H21_5 H 0.073640 0.045293 0.270868
C35_5 C 0.08481(16) 0.1515(3) 0.3241(4)
H22_5 H 0.074617 0.179138 0.340794
C36_5 C 0.0166(2) 0.0700(4) 0.3048(5)
H23_5 H 0.027583 0.039577 0.303806
C37_5 C 0.01664(19) 0.1518(4) 0.3146(5)
H24_5 H 0.027398 0.181908 0.321183
C22_5 C 0.96745(15) 0.1123(3) 0.3061(4)
C23_5 C 0.93265(15) 0.1123(2) 0.3035(3)
C24_5 C 0.88349(14) 0.0757(2) 0.2814(3)
H13_5 H 0.872755 0.047835 0.266433
C25_5 C 0.88307(15) 0.1505(2) 0.3204(4)
H14_5 H 0.871929 0.178329 0.334405
C26_5 C 0.91582(14) 0.0741(2) 0.2837(4)
H15_5 H 0.926360 0.045293 0.270868
C27_5 C 0.91519(16) 0.1515(3) 0.3241(4)
H16_5 H 0.925383 0.179138 0.340794
C28_5 C 0.9834(2) 0.0700(4) 0.3048(5)
H17_5 H 0.972417 0.039577 0.303806
C29_5 C 0.98336(19) 0.1518(4) 0.3146(5)
H18_5 H 0.972602 0.181908 0.321183
C22_6 C 0.03255(15) 0.3877(3) 0.8061(4)
C23_6 C 0.06735(15) 0.3877(2) 0.8035(3)
C24_6 C 0.11651(14) 0.4243(2) 0.7814(3)
H13_6 H 0.127245 0.452165 0.766433
C25_6 C 0.11693(15) 0.3495(2) 0.8204(4)
H14_6 H 0.128071 0.321671 0.834405
C26_6 C 0.08418(14) 0.4259(2) 0.7837(4)
H15_6 H 0.073640 0.454707 0.770868
C27_6 C 0.08481(16) 0.3485(3) 0.8241(4)
H16_6 H 0.074617 0.320862 0.840794
C28_6 C 0.0166(2) 0.4300(4) 0.8048(5)
H17_6 H 0.027583 0.460423 0.803806
C29_6 C 0.01664(19) 0.3482(4) 0.8146(5)
H18_6 H 0.027398 0.318092 0.821183
N3_6 N 0.86671(9) 0.38607(13) 0.79885(17)
C30_6 C 0.96745(15) 0.3877(3) 0.8061(4)
C31_6 C 0.93265(15) 0.3877(2) 0.8035(3)
C32_6 C 0.88349(14) 0.4243(2) 0.7814(3)
H19_6 H 0.872755 0.452165 0.766433
C33_6 C 0.88307(15) 0.3495(2) 0.8204(4)
H20_6 H 0.871929 0.321671 0.834405
C34_6 C 0.91582(14) 0.4259(2) 0.7837(4)
H21_6 H 0.926360 0.454707 0.770868
C35_6 C 0.91519(16) 0.3485(3) 0.8241(4)
H22_6 H 0.925383 0.320862 0.840794
C36_6 C 0.9834(2) 0.4300(4) 0.8048(5)
H23_6 H 0.972417 0.460423 0.803806
C37_6 C 0.98336(19) 0.3482(4) 0.8146(5)
H24_6 H 0.972602 0.318092 0.821183
C22_7 C 0.03255(15) 0.6123(3) 0.1939(4)
C23_7 C 0.06735(15) 0.6123(2) 0.1965(3)
C24_7 C 0.11651(14) 0.5757(2) 0.2186(3)
H13_7 H 0.127245 0.547835 0.233567
C25_7 C 0.11693(15) 0.6505(2) 0.1796(4)
H14_7 H 0.128071 0.678329 0.165595
C26_7 C 0.08418(14) 0.5741(2) 0.2163(4)
H15_7 H 0.073640 0.545293 0.229132
C27_7 C 0.08481(16) 0.6515(3) 0.1759(4)
H16_7 H 0.074617 0.679138 0.159206
C28_7 C 0.0166(2) 0.5700(4) 0.1952(5)
H17_7 H 0.027583 0.539577 0.196194
C29_7 C 0.01664(19) 0.6518(4) 0.1854(5)
H18_7 H 0.027398 0.681908 0.178817
N3_7 N 0.86671(9) 0.61393(13) 0.20115(17)
C30_7 C 0.96745(15) 0.6123(3) 0.1939(4)
C31_7 C 0.93265(15) 0.6123(2) 0.1965(3)
C32_7 C 0.88349(14) 0.5757(2) 0.2186(3)
H19_7 H 0.872755 0.547835 0.233567
C33_7 C 0.88307(15) 0.6505(2) 0.1796(4)
H20_7 H 0.871929 0.678329 0.165595
C34_7 C 0.91582(14) 0.5741(2) 0.2163(4)
H21_7 H 0.926360 0.545293 0.229132
C35_7 C 0.91519(16) 0.6515(3) 0.1759(4)
H22_7 H 0.925383 0.679138 0.159206
C36_7 C 0.9834(2) 0.5700(4) 0.1952(5)
H23_7 H 0.972417 0.539577 0.196194
C37_7 C 0.98336(19) 0.6518(4) 0.1854(5)
H24_7 H 0.972602 0.681908 0.178817
N3_8 N 0.13329(9) 0.88607(13) 0.70115(17)
C30_8 C 0.03255(15) 0.8877(3) 0.6939(4)
C31_8 C 0.06735(15) 0.8877(2) 0.6965(3)
C32_8 C 0.11651(14) 0.9243(2) 0.7186(3)
H19_8 H 0.127245 0.952165 0.733567
C33_8 C 0.11693(15) 0.8495(2) 0.6796(4)
H20_8 H 0.128071 0.821671 0.665595
C34_8 C 0.08418(14) 0.9259(2) 0.7163(4)
H21_8 H 0.073640 0.954707 0.729132
C35_8 C 0.08481(16) 0.8485(3) 0.6759(4)
H22_8 H 0.074617 0.820862 0.659206
C36_8 C 0.0166(2) 0.9300(4) 0.6952(5)
H23_8 H 0.027583 0.960423 0.696194
C37_8 C 0.01664(19) 0.8482(4) 0.6854(5)
H24_8 H 0.027398 0.818092 0.678817
C22_8 C 0.96745(15) 0.8877(3) 0.6939(4)
C23_8 C 0.93265(15) 0.8877(2) 0.6965(3)
C24_8 C 0.88349(14) 0.9243(2) 0.7186(3)
H13_8 H 0.872755 0.952165 0.733567
C25_8 C 0.88307(15) 0.8495(2) 0.6796(4)
H14_8 H 0.871929 0.821671 0.665595
C26_8 C 0.91582(14) 0.9259(2) 0.7163(4)
H15_8 H 0.926360 0.954707 0.729132
C27_8 C 0.91519(16) 0.8485(3) 0.6759(4)
H16_8 H 0.925383 0.820862 0.659206
C28_8 C 0.9834(2) 0.9300(4) 0.6952(5)
H17_8 H 0.972417 0.960423 0.696194
C29_8 C 0.98336(19) 0.8482(4) 0.6854(5)
H18_8 H 0.972602 0.818092 0.678817
O9_5 O 0.67473(9) 0.56027(12) 0.20087(13)
C40_5 C 0.71706(13) 0.61291(15) 0.00992(18)
C42_5 C 0.69981(11) 0.60193(15) 0.12433(18)
C44_5 C 0.71311(12) 0.64606(15) 0.10461(19)
H25_5 H 0.716165 0.672655 0.130445
C46_5 C 0.69063(11) 0.59497(16) 0.18445(19)
C51_5 C 0.70320(14) 0.56967(16) 0.02893(19)
H29_5 H 0.699723 0.543487 0.002720
C52_5 C 0.72173(13) 0.65130(15) 0.04887(19)
H30_5 H 0.730978 0.681290 0.036396
C54_5 C 0.69446(13) 0.56405(15) 0.08473(19)
H32_5 H 0.684701 0.534321 0.096726
O2_5 O 0.69467(8) 0.43941(11) 0.65726(13)
O3_5 O 0.82527(9) 0.56027(12) 0.29913(13)
O4_5 O 0.76266(8) 0.81433(11) 0.69575(14)
N2_5 N 0.77379(12) 0.61772(12) 0.54827(16)
C1_5 C 0.73598(11) 0.49457(14) 0.63319(18)
C2_5 C 0.72347(12) 0.45049(14) 0.66350(17)
C3_5 C 0.78294(13) 0.61291(15) 0.49008(18)
C4_5 C 0.78322(11) 0.75254(15) 0.63661(18)
C5_5 C 0.80019(11) 0.60193(15) 0.37567(18)
C6_5 C 0.78607(11) 0.79994(15) 0.66744(18)
C7_5 C 0.78689(12) 0.64606(15) 0.39539(19)
H1_5 H 0.783835 0.672655 0.369555
C8_5 C 0.77717(13) 0.66312(15) 0.57818(19)
C9_5 C 0.80937(11) 0.59497(16) 0.31555(19)
C10_5 C 0.76144(12) 0.51910(16) 0.6558(2)
H2_5 H 0.770820 0.507700 0.690177
C11_5 C 0.75690(12) 0.72279(16) 0.6433(2)
H3_5 H 0.740717 0.733264 0.668242
C12_5 C 0.72307(13) 0.51108(16) 0.58284(19)
H4_5 H 0.705244 0.494857 0.567619
C13_5 C 0.76085(14) 0.57619(15) 0.57706(19)
C14_5 C 0.79680(14) 0.56967(16) 0.47107(19)
H5_5 H 0.800277 0.543487 0.497280
C15_5 C 0.77827(13) 0.65130(15) 0.45113(19)
H6_5 H 0.769022 0.681290 0.463604
C16_5 C 0.75366(14) 0.67885(17) 0.6148(2)
H7_5 H 0.735457 0.659314 0.620091
C17_5 C 0.80554(13) 0.56405(15) 0.41527(19)
H8_5 H 0.815299 0.534321 0.403274
C18_5 C 0.77334(14) 0.56065(17) 0.6281(2)
H9_5 H 0.790217 0.578360 0.644713
C19_5 C 0.80647(13) 0.73596(17) 0.6010(2)
H10_5 H 0.825017 0.754808 0.596454
C20_5 C 0.80303(14) 0.69194(17) 0.5716(2)
H11_5 H 0.819075 0.681589 0.546213
C21_5 C 0.73571(15) 0.55105(16) 0.5541(2)
H12_5 H 0.727106 0.561175 0.518546
O8_5 O 0.80533(8) 0.43941(11) 0.84274(13)
O10_5 O 0.73734(8) 0.81433(11) 0.80425(14)
N4_5 N 0.72621(12) 0.61772(12) 0.95173(16)
C38_5 C 0.76402(11) 0.49457(14) 0.86681(18)
C39_5 C 0.77653(12) 0.45049(14) 0.83650(17)
C41_5 C 0.71678(11) 0.75254(15) 0.86339(18)
C43_5 C 0.71393(11) 0.79994(15) 0.83256(18)
C45_5 C 0.72283(13) 0.66312(15) 0.92182(19)
C47_5 C 0.73856(12) 0.51910(16) 0.8442(2)
H26_5 H 0.729180 0.507700 0.809823
C48_5 C 0.74310(12) 0.72279(16) 0.8567(2)
H27_5 H 0.759283 0.733264 0.831758
C49_5 C 0.77693(13) 0.51108(16) 0.91716(19)
H28_5 H 0.794756 0.494857 0.932381
C50_5 C 0.73915(14) 0.57619(15) 0.92294(19)
C53_5 C 0.74634(14) 0.67885(17) 0.8852(2)
H31_5 H 0.764543 0.659314 0.879909
C55_5 C 0.72666(14) 0.56065(17) 0.8719(2)
H33_5 H 0.709783 0.578360 0.855287
C56_5 C 0.69353(13) 0.73596(17) 0.8990(2)
H34_5 H 0.674983 0.754808 0.903546
C57_5 C 0.69697(14) 0.69194(17) 0.9284(2)
H35_5 H 0.680925 0.681589 0.953787
C58_5 C 0.76429(15) 0.55105(16) 0.9459(2)
H36_5 H 0.772894 0.561175 0.981454
O2_6 O 0.30533(8) 0.06059(11) 0.15726(13)
C1_6 C 0.26402(11) 0.00543(14) 0.13319(18)
C2_6 C 0.27653(12) 0.04951(14) 0.16350(17)
H4_6 H 0.294756 0.005143 0.067619
O8_6 O 0.19467(8) 0.06059(11) 0.34274(13)
C38_6 C 0.23598(11) 0.00543(14) 0.36681(18)
C39_6 C 0.22347(12) 0.04951(14) 0.33650(17)
H28_6 H 0.205244 0.005143 0.432381
O4_6 O 0.23734(8) 0.68567(11) 0.19575(14)
N2_6 N 0.22621(12) 0.88228(12) 0.04827(16)
C4_6 C 0.21678(11) 0.74746(15) 0.13661(18)
C6_6 C 0.21393(11) 0.70006(15) 0.16744(18)
C8_6 C 0.22283(13) 0.83688(15) 0.07818(19)
C10_6 C 0.23856(12) 0.98090(16) 0.1558(2)
H2_6 H 0.229180 0.992300 0.190177
C11_6 C 0.24310(12) 0.77721(16) 0.1433(2)
H3_6 H 0.259283 0.766736 0.168242
C12_6 C 0.27693(13) 0.98892(16) 0.08284(19)
C13_6 C 0.23915(14) 0.92381(15) 0.07706(19)
C16_6 C 0.24634(14) 0.82115(17) 0.1148(2)
H7_6 H 0.264543 0.840686 0.120091
C18_6 C 0.22666(14) 0.93935(17) 0.1281(2)
H9_6 H 0.209783 0.921640 0.144713
C19_6 C 0.19353(13) 0.76404(17) 0.1010(2)
H10_6 H 0.174983 0.745192 0.096454
C20_6 C 0.19697(14) 0.80806(17) 0.0716(2)
H11_6 H 0.180925 0.818411 0.046213
C21_6 C 0.26429(15) 0.94895(16) 0.0541(2)
H12_6 H 0.272894 0.938825 0.018546
O9_6 O 0.32527(9) 0.93973(12) 0.70087(13)
O10_6 O 0.26266(8) 0.68567(11) 0.30425(14)
N4_6 N 0.27379(12) 0.88228(12) 0.45173(16)
C40_6 C 0.28294(13) 0.88709(15) 0.50992(18)
C41_6 C 0.28322(11) 0.74746(15) 0.36339(18)
C42_6 C 0.30019(11) 0.89807(15) 0.62433(18)
C43_6 C 0.28607(11) 0.70006(15) 0.33256(18)
C44_6 C 0.28689(12) 0.85394(15) 0.60461(19)
H25_6 H 0.283835 0.827345 0.630445
C45_6 C 0.27717(13) 0.83688(15) 0.42182(19)
C46_6 C 0.30937(11) 0.90503(16) 0.68445(19)
C47_6 C 0.26144(12) 0.98090(16) 0.3442(2)
H26_6 H 0.270820 0.992300 0.309823
C48_6 C 0.25690(12) 0.77721(16) 0.3567(2)
H27_6 H 0.240717 0.766736 0.331758
C49_6 C 0.22307(13) 0.98892(16) 0.41716(19)
C50_6 C 0.26085(14) 0.92381(15) 0.42294(19)
C51_6 C 0.29680(14) 0.93033(16) 0.52893(19)
H29_6 H 0.300277 0.956513 0.502720
C52_6 C 0.27827(13) 0.84870(15) 0.54887(19)
H30_6 H 0.269022 0.818710 0.536396
C53_6 C 0.25366(14) 0.82115(17) 0.3852(2)
H31_6 H 0.235457 0.840686 0.379909
C54_6 C 0.30554(13) 0.93595(15) 0.58473(19)
H32_6 H 0.315299 0.965679 0.596726
C55_6 C 0.27334(14) 0.93935(17) 0.3719(2)
H33_6 H 0.290217 0.921640 0.355287
C56_6 C 0.30647(13) 0.76404(17) 0.3990(2)
H34_6 H 0.325017 0.745192 0.403546
C57_6 C 0.30303(14) 0.80806(17) 0.4284(2)
H35_6 H 0.319075 0.818411 0.453787
C58_6 C 0.23571(15) 0.94895(16) 0.4459(2)
H36_6 H 0.227106 0.938825 0.481454
O3_6 O 0.17473(9) 0.93973(12) 0.79913(13)
C3_6 C 0.21706(13) 0.88709(15) 0.99008(18)
C5_6 C 0.19981(11) 0.89807(15) 0.87567(18)
C7_6 C 0.21311(12) 0.85394(15) 0.89539(19)
H1_6 H 0.216165 0.827345 0.869555
C9_6 C 0.19063(11) 0.90503(16) 0.81555(19)
C14_6 C 0.20320(14) 0.93033(16) 0.97107(19)
H5_6 H 0.199723 0.956513 0.997280
C15_6 C 0.22173(13) 0.84870(15) 0.95113(19)
H6_6 H 0.230978 0.818710 0.963604
C17_6 C 0.19446(13) 0.93595(15) 0.91527(19)
H8_6 H 0.184701 0.965679 0.903274
O3_7 O 0.17473(9) 0.06027(12) 0.20087(13)
C3_7 C 0.21706(13) 0.11291(15) 0.00992(18)
C5_7 C 0.19981(11) 0.10193(15) 0.12433(18)
C7_7 C 0.21311(12) 0.14606(15) 0.10461(19)
H1_7 H 0.216165 0.172655 0.130445
C9_7 C 0.19063(11) 0.09497(16) 0.18445(19)
C14_7 C 0.20320(14) 0.06967(16) 0.02893(19)
H5_7 H 0.199723 0.043487 0.002720
C15_7 C 0.22173(13) 0.15130(15) 0.04887(19)
H6_7 H 0.230978 0.181290 0.036396
C17_7 C 0.19446(13) 0.06405(15) 0.08473(19)
H8_7 H 0.184701 0.034321 0.096726
O4_7 O 0.23734(8) 0.31433(11) 0.80425(14)
N2_7 N 0.22621(12) 0.11772(12) 0.95173(16)
C4_7 C 0.21678(11) 0.25254(15) 0.86339(18)
C6_7 C 0.21393(11) 0.29994(15) 0.83256(18)
C8_7 C 0.22283(13) 0.16312(15) 0.92182(19)
C10_7 C 0.23856(12) 0.01910(16) 0.8442(2)
H2_7 H 0.229180 0.007700 0.809823
C11_7 C 0.24310(12) 0.22279(16) 0.8567(2)
H3_7 H 0.259283 0.233264 0.831758
C12_7 C 0.27693(13) 0.01108(16) 0.91716(19)
C13_7 C 0.23915(14) 0.07619(15) 0.92294(19)
C16_7 C 0.24634(14) 0.17885(17) 0.8852(2)
H7_7 H 0.264543 0.159314 0.879909
C18_7 C 0.22666(14) 0.06065(17) 0.8719(2)
H9_7 H 0.209783 0.078360 0.855287
C19_7 C 0.19353(13) 0.23596(17) 0.8990(2)
H10_7 H 0.174983 0.254808 0.903546
C20_7 C 0.19697(14) 0.19194(17) 0.9284(2)
H11_7 H 0.180925 0.181589 0.953787
C21_7 C 0.26429(15) 0.05105(16) 0.9459(2)
H12_7 H 0.272894 0.061175 0.981454
O9_7 O 0.32527(9) 0.06027(12) 0.29913(13)
O10_7 O 0.26266(8) 0.31433(11) 0.69575(14)
N4_7 N 0.27379(12) 0.11772(12) 0.54827(16)
C40_7 C 0.28294(13) 0.11291(15) 0.49008(18)
C41_7 C 0.28322(11) 0.25254(15) 0.63661(18)
C42_7 C 0.30019(11) 0.10193(15) 0.37567(18)
C43_7 C 0.28607(11) 0.29994(15) 0.66744(18)
C44_7 C 0.28689(12) 0.14606(15) 0.39539(19)
H25_7 H 0.283835 0.172655 0.369555
C45_7 C 0.27717(13) 0.16312(15) 0.57818(19)
C46_7 C 0.30937(11) 0.09497(16) 0.31555(19)
C47_7 C 0.26144(12) 0.01910(16) 0.6558(2)
H26_7 H 0.270820 0.007700 0.690177
C48_7 C 0.25690(12) 0.22279(16) 0.6433(2)
H27_7 H 0.240717 0.233264 0.668242
C49_7 C 0.22307(13) 0.01108(16) 0.58284(19)
C50_7 C 0.26085(14) 0.07619(15) 0.57706(19)
C51_7 C 0.29680(14) 0.06967(16) 0.47107(19)
H29_7 H 0.300277 0.043487 0.497280
C52_7 C 0.27827(13) 0.15130(15) 0.45113(19)
H30_7 H 0.269022 0.181290 0.463604
C53_7 C 0.25366(14) 0.17885(17) 0.6148(2)
H31_7 H 0.235457 0.159314 0.620091
C54_7 C 0.30554(13) 0.06405(15) 0.41527(19)
H32_7 H 0.315299 0.034321 0.403274
C55_7 C 0.27334(14) 0.06065(17) 0.6281(2)
H33_7 H 0.290217 0.078360 0.644713
C56_7 C 0.30647(13) 0.23596(17) 0.6010(2)
H34_7 H 0.325017 0.254808 0.596454
C57_7 C 0.30303(14) 0.19194(17) 0.5716(2)
H35_7 H 0.319075 0.181589 0.546213
C58_7 C 0.23571(15) 0.05105(16) 0.5541(2)
H36_7 H 0.227106 0.061175 0.518546
O2_7 O 0.30533(8) 0.93941(11) 0.84274(13)
C1_7 C 0.26402(11) 0.99457(14) 0.86681(18)
C2_7 C 0.27653(12) 0.95049(14) 0.83650(17)
H4_7 H 0.294756 0.994857 0.932381
O8_7 O 0.19467(8) 0.93941(11) 0.65726(13)
C38_7 C 0.23598(11) 0.99457(14) 0.63319(18)
C39_7 C 0.22347(12) 0.95049(14) 0.66350(17)
H28_7 H 0.205244 0.994857 0.567619
O2_8 O 0.69467(8) 0.56059(11) 0.34274(13)
O3_8 O 0.82527(9) 0.43973(12) 0.70087(13)
O4_8 O 0.76266(8) 0.18567(11) 0.30425(14)
N2_8 N 0.77379(12) 0.38228(12) 0.45173(16)
C1_8 C 0.73598(11) 0.50543(14) 0.36681(18)
C2_8 C 0.72347(12) 0.54951(14) 0.33650(17)
C3_8 C 0.78294(13) 0.38709(15) 0.50992(18)
C4_8 C 0.78322(11) 0.24746(15) 0.36339(18)
C5_8 C 0.80019(11) 0.39807(15) 0.62433(18)
C6_8 C 0.78607(11) 0.20006(15) 0.33256(18)
C7_8 C 0.78689(12) 0.35394(15) 0.60461(19)
H1_8 H 0.783835 0.327345 0.630445
C8_8 C 0.77717(13) 0.33688(15) 0.42182(19)
C9_8 C 0.80937(11) 0.40503(16) 0.68445(19)
C10_8 C 0.76144(12) 0.48090(16) 0.3442(2)
H2_8 H 0.770820 0.492300 0.309823
C11_8 C 0.75690(12) 0.27721(16) 0.3567(2)
H3_8 H 0.740717 0.266736 0.331758
C12_8 C 0.72307(13) 0.48892(16) 0.41716(19)
H4_8 H 0.705244 0.505143 0.432381
C13_8 C 0.76085(14) 0.42381(15) 0.42294(19)
C14_8 C 0.79680(14) 0.43033(16) 0.52893(19)
H5_8 H 0.800277 0.456513 0.502720
C15_8 C 0.77827(13) 0.34870(15) 0.54887(19)
H6_8 H 0.769022 0.318710 0.536396
C16_8 C 0.75366(14) 0.32115(17) 0.3852(2)
H7_8 H 0.735457 0.340686 0.379909
C17_8 C 0.80554(13) 0.43595(15) 0.58473(19)
H8_8 H 0.815299 0.465679 0.596726
C18_8 C 0.77334(14) 0.43935(17) 0.3719(2)
H9_8 H 0.790217 0.421640 0.355287
C19_8 C 0.80647(13) 0.26404(17) 0.3990(2)
H10_8 H 0.825017 0.245192 0.403546
C20_8 C 0.80303(14) 0.30806(17) 0.4284(2)
H11_8 H 0.819075 0.318411 0.453787
C21_8 C 0.73571(15) 0.44895(16) 0.4459(2)
H12_8 H 0.727106 0.438825 0.481454
O8_8 O 0.80533(8) 0.56059(11) 0.15726(13)
O10_8 O 0.73734(8) 0.18567(11) 0.19575(14)
N4_8 N 0.72621(12) 0.38228(12) 0.04827(16)
C38_8 C 0.76402(11) 0.50543(14) 0.13319(18)
C39_8 C 0.77653(12) 0.54951(14) 0.16350(17)
C41_8 C 0.71678(11) 0.24746(15) 0.13661(18)
C43_8 C 0.71393(11) 0.20006(15) 0.16744(18)
C45_8 C 0.72283(13) 0.33688(15) 0.07818(19)
C47_8 C 0.73856(12) 0.48090(16) 0.1558(2)
H26_8 H 0.729180 0.492300 0.190177
C48_8 C 0.74310(12) 0.27721(16) 0.1433(2)
H27_8 H 0.759283 0.266736 0.168242
C49_8 C 0.77693(13) 0.48892(16) 0.08284(19)
H28_8 H 0.794756 0.505143 0.067619
C50_8 C 0.73915(14) 0.42381(15) 0.07706(19)
C53_8 C 0.74634(14) 0.32115(17) 0.1148(2)
H31_8 H 0.764543 0.340686 0.120091
C55_8 C 0.72666(14) 0.43935(17) 0.1281(2)
H33_8 H 0.709783 0.421640 0.144713
C56_8 C 0.69353(13) 0.26404(17) 0.1010(2)
H34_8 H 0.674983 0.245192 0.096454
C57_8 C 0.69697(14) 0.30806(17) 0.0716(2)
H35_8 H 0.680925 0.318411 0.046213
C58_8 C 0.76429(15) 0.44895(16) 0.0541(2)
H36_8 H 0.772894 0.438825 0.018546
O9_8 O 0.67473(9) 0.43973(12) 0.79913(13)
C40_8 C 0.71706(13) 0.38709(15) 0.99008(18)
C42_8 C 0.69981(11) 0.39807(15) 0.87567(18)
C44_8 C 0.71311(12) 0.35394(15) 0.89539(19)
H25_8 H 0.716165 0.327345 0.869555
C46_8 C 0.69063(11) 0.40503(16) 0.81555(19)
C51_8 C 0.70320(14) 0.43033(16) 0.97107(19)
H29_8 H 0.699723 0.456513 0.997280
C52_8 C 0.72173(13) 0.34870(15) 0.95113(19)
H30_8 H 0.730978 0.318710 0.963604
C54_8 C 0.69446(13) 0.43595(15) 0.91527(19)
H32_8 H 0.684701 0.465679 0.903274
loop_
_geom_bond_atom_site_label_1
_geom_bond_atom_site_label_2
_geom_bond_site_symmetry_1
_geom_bond_site_symmetry_2
Zn1 O4 1_555 1_555
Zn2 O2 1_555 1_555
O1 C9 1_555 1_555
O2 C2 1_555 1_555
O3 C9 1_555 1_555
O4 C6 1_555 1_555
O5 C2 1_555 1_555
O6 C6 1_555 1_555
N1 Zn2 1_555 1_555
N2 C3 1_555 1_555
C1 C2 1_555 1_555
C3 C14 1_555 1_555
C4 C6 1_555 1_555
C5 C7 1_555 1_555
C7 H1 1_555 1_555
C8 N2 1_555 1_555
C9 C5 1_555 1_555
C10 C1 1_555 1_555
H2 C10 1_555 1_555
C11 C4 1_555 1_555
H3 C11 1_555 1_555
C12 C1 1_555 1_555
H4 C12 1_555 1_555
C13 N2 1_555 1_555
C14 H5 1_555 1_555
C15 C3 1_555 1_555
H6 C15 1_555 1_555
C16 C8 1_555 1_555
H7 C16 1_555 1_555
C17 C5 1_555 1_555
H8 C17 1_555 1_555
C18 C10 1_555 1_555
H9 C18 1_555 1_555
C19 C4 1_555 1_555
H10 C19 1_555 1_555
C20 C8 1_555 1_555
H11 C20 1_555 1_555
C21 C12 1_555 1_555
H12 C21 1_555 1_555
C22 C23 1_555 1_555
C23 C26 1_555 1_555
C24 N1 1_555 1_555
H13 C24 1_555 1_555
C25 N1 1_555 1_555
H14 C25 1_555 1_555
C26 C24 1_555 1_555
H15 C26 1_555 1_555
C27 C23 1_555 1_555
H16 C27 1_555 1_555
C28 C22 1_555 1_555
H17 C28 1_555 1_555
C29 C22 1_555 1_555
H18 C29 1_555 1_555
N3 C32 1_555 1_555
C30 C31 1_555 1_555
C31 C34 1_555 1_555
C32 H19 1_555 1_555
C33 N3 1_555 1_555
H20 C33 1_555 1_555
C34 C32 1_555 1_555
H21 C34 1_555 1_555
C35 C31 1_555 1_555
H22 C35 1_555 1_555
C36 C28 1_555 1_555
H23 C36 1_555 1_555
C37 C29 1_555 1_555
H24 C37 1_555 1_555
Zn3 O8 1_555 1_555
O8 C39 1_555 1_555
O10 Zn1 1_555 1_555
O11 C39 1_555 1_555
O12 C43 1_555 1_555
C38 C39 1_555 1_555
C41 C43 1_555 1_555
C43 O10 1_555 1_555
C45 N4 1_555 1_555
C47 C38 1_555 1_555
H26 C47 1_555 1_555
C48 C41 1_555 1_555
H27 C48 1_555 1_555
C49 C38 1_555 1_555
H28 C49 1_555 1_555
C50 N4 1_555 1_555
C53 C45 1_555 1_555
H31 C53 1_555 1_555
C55 C47 1_555 1_555
H33 C55 1_555 1_555
C56 C41 1_555 1_555
H34 C56 1_555 1_555
C57 C45 1_555 1_555
H35 C57 1_555 1_555
C58 C49 1_555 1_555
H36 C58 1_555 1_555
Zn4 O5 1_555 1_555
Zn6 O1 1_555 1_555
Zn8 O1 1_555 1_555
Zn9 O12 1_555 1_555
Zn10 N3 1_555 1_555
Zn11 O6 1_555 1_555
O13 Zn3 1_555 1_555
O14 Zn2 1_555 1_555
O15 Zn1 1_555 1_555
O16 Zn1 1_555 1_555
O17 Zn1 1_555 1_555
O18 Zn1 1_555 1_555
O19 Zn3 1_555 1_555
O20 Zn2 1_555 1_555
N5 Zn3 1_555 1_555
C7 C15 1_555 1_555
C11 C16 1_555 1_555
C13 C18 1_555 1_555
C13 C21 1_555 1_555
C14 C17 1_555 1_555
C19 C20 1_555 1_555
C25 C27 1_555 1_555
C30 C36 1_555 1_555
C30 C37 1_555 1_555
C33 C35 1_555 1_555
O11 Zn4 1_555 1_555
C48 C53 1_555 1_555
C50 C55 1_555 1_555
C50 C58 1_555 1_555
C56 C57 1_555 1_555
Zn4 O13 1_555 1_555
Zn4 O14 1_555 1_555
Zn9 O16 1_555 1_555
Zn11 O15 1_555 1_555
O7 C46 1_555 1_555
O9 C46 1_555 1_555
C40 C51 1_555 1_555
C42 C44 1_555 1_555
C44 H25 1_555 1_555
C46 C42 1_555 1_555
C51 H29 1_555 1_555
C52 C40 1_555 1_555
H30 C52 1_555 1_555
C54 C42 1_555 1_555
H32 C54 1_555 1_555
Zn6 O7 1_555 1_555
Zn7 O7 1_555 1_555
C44 C52 1_555 1_555
C51 C54 1_555 1_555
O1_2 C9_2 1_555 1_555
O3_2 C9_2 1_555 1_555
C3_2 C14_2 1_555 1_555
C5_2 C7_2 1_555 1_555
C7_2 H1_2 1_555 1_555
C9_2 C5_2 1_555 1_555
C14_2 H5_2 1_555 1_555
C15_2 C3_2 1_555 1_555
H6_2 C15_2 1_555 1_555
C17_2 C5_2 1_555 1_555
H8_2 C17_2 1_555 1_555
Zn6_2 O1_2 1_555 1_555
Zn8_2 O1_2 1_555 1_555
C7_2 C15_2 1_555 1_555
C14_2 C17_2 1_555 1_555
Zn1_2 O4_2 1_555 1_555
O4_2 C6_2 1_555 1_555
O6_2 C6_2 1_555 1_555
C4_2 C6_2 1_555 1_555
C8_2 N2_2 1_555 1_555
H2_2 C10_2 1_555 1_555
C11_2 C4_2 1_555 1_555
H3_2 C11_2 1_555 1_555
C13_2 N2_2 1_555 1_555
C16_2 C8_2 1_555 1_555
H7_2 C16_2 1_555 1_555
C18_2 C10_2 1_555 1_555
H9_2 C18_2 1_555 1_555
C19_2 C4_2 1_555 1_555
H10_2 C19_2 1_555 1_555
C20_2 C8_2 1_555 1_555
H11_2 C20_2 1_555 1_555
C21_2 C12_2 1_555 1_555
H12_2 C21_2 1_555 1_555
O7_2 C46_2 1_555 1_555
O9_2 C46_2 1_555 1_555
O10_2 Zn1_2 1_555 1_555
O12_2 C43_2 1_555 1_555
N4_2 C40_2 1_555 1_555
C40_2 C51_2 1_555 1_555
C41_2 C43_2 1_555 1_555
C42_2 C44_2 1_555 1_555
C43_2 O10_2 1_555 1_555
C44_2 H25_2 1_555 1_555
C45_2 N4_2 1_555 1_555
C46_2 C42_2 1_555 1_555
H26_2 C47_2 1_555 1_555
C48_2 C41_2 1_555 1_555
H27_2 C48_2 1_555 1_555
C50_2 N4_2 1_555 1_555
C51_2 H29_2 1_555 1_555
C52_2 C40_2 1_555 1_555
H30_2 C52_2 1_555 1_555
C53_2 C45_2 1_555 1_555
H31_2 C53_2 1_555 1_555
C54_2 C42_2 1_555 1_555
H32_2 C54_2 1_555 1_555
C55_2 C47_2 1_555 1_555
H33_2 C55_2 1_555 1_555
C56_2 C41_2 1_555 1_555
H34_2 C56_2 1_555 1_555
C57_2 C45_2 1_555 1_555
H35_2 C57_2 1_555 1_555
C58_2 C49_2 1_555 1_555
H36_2 C58_2 1_555 1_555
Zn6_2 O7_2 1_555 1_555
Zn7_2 O7_2 1_555 1_555
Zn9_2 O12_2 1_555 1_555
Zn11_2 O6_2 1_555 1_555
O15_2 Zn1_2 1_555 1_555
O16_2 Zn1_2 1_555 1_555
O17_2 Zn1_2 1_555 1_555
O18_2 Zn1_2 1_555 1_555
C11_2 C16_2 1_555 1_555
C13_2 C18_2 1_555 1_555
C13_2 C21_2 1_555 1_555
C19_2 C20_2 1_555 1_555
C44_2 C52_2 1_555 1_555
C48_2 C53_2 1_555 1_555
C50_2 C55_2 1_555 1_555
C50_2 C58_2 1_555 1_555
C51_2 C54_2 1_555 1_555
C56_2 C57_2 1_555 1_555
Zn9_2 O16_2 1_555 1_555
Zn11_2 O15_2 1_555 1_555
Zn2_2 O2_2 1_555 1_555
O2_2 C2_2 1_555 1_555
O5_2 C2_2 1_555 1_555
N1_2 Zn2_2 1_555 1_555
C1_2 C2_2 1_555 1_555
C22_2 C23_2 1_555 1_555
C23_2 C26_2 1_555 1_555
C24_2 N1_2 1_555 1_555
H13_2 C24_2 1_555 1_555
C25_2 N1_2 1_555 1_555
H14_2 C25_2 1_555 1_555
C26_2 C24_2 1_555 1_555
H15_2 C26_2 1_555 1_555
C27_2 C23_2 1_555 1_555
H16_2 C27_2 1_555 1_555
C28_2 C22_2 1_555 1_555
H17_2 C28_2 1_555 1_555
C29_2 C22_2 1_555 1_555
H18_2 C29_2 1_555 1_555
N3_2 C32_2 1_555 1_555
C30_2 C31_2 1_555 1_555
C31_2 C34_2 1_555 1_555
C32_2 H19_2 1_555 1_555
C33_2 N3_2 1_555 1_555
H20_2 C33_2 1_555 1_555
C34_2 C32_2 1_555 1_555
H21_2 C34_2 1_555 1_555
C35_2 C31_2 1_555 1_555
H22_2 C35_2 1_555 1_555
C36_2 C28_2 1_555 1_555
H23_2 C36_2 1_555 1_555
C37_2 C29_2 1_555 1_555
H24_2 C37_2 1_555 1_555
Zn3_2 O8_2 1_555 1_555
O8_2 C39_2 1_555 1_555
O11_2 C39_2 1_555 1_555
C38_2 C39_2 1_555 1_555
Zn4_2 O5_2 1_555 1_555
Zn10_2 N3_2 1_555 1_555
O13_2 Zn3_2 1_555 1_555
O14_2 Zn2_2 1_555 1_555
O19_2 Zn3_2 1_555 1_555
O20_2 Zn2_2 1_555 1_555
N5_2 Zn3_2 1_555 1_555
C25_2 C27_2 1_555 1_555
C30_2 C36_2 1_555 1_555
C30_2 C37_2 1_555 1_555
C33_2 C35_2 1_555 1_555
O11_2 Zn4_2 1_555 1_555
Zn4_2 O13_2 1_555 1_555
Zn4_2 O14_2 1_555 1_555
Zn7_2 O2_3 1_555 1_555
O2_3 C2_3 1_555 1_555
O5_3 C2_3 1_555 1_555
N1_3 Zn7_2 1_555 1_555
C1_3 C2_3 1_555 1_555
C22_3 C23_3 1_555 1_555
C23_3 C26_3 1_555 1_555
C24_3 N1_3 1_555 1_555
H13_3 C24_3 1_555 1_555
C25_3 N1_3 1_555 1_555
H14_3 C25_3 1_555 1_555
C26_3 C24_3 1_555 1_555
H15_3 C26_3 1_555 1_555
C27_3 C23_3 1_555 1_555
H16_3 C27_3 1_555 1_555
C28_3 C22_3 1_555 1_555
H17_3 C28_3 1_555 1_555
C29_3 C22_3 1_555 1_555
H18_3 C29_3 1_555 1_555
N3_3 C32_3 1_555 1_555
C30_3 C31_3 1_555 1_555
C31_3 C34_3 1_555 1_555
C32_3 H19_3 1_555 1_555
C33_3 N3_3 1_555 1_555
H20_3 C33_3 1_555 1_555
C34_3 C32_3 1_555 1_555
H21_3 C34_3 1_555 1_555
C35_3 C31_3 1_555 1_555
H22_3 C35_3 1_555 1_555
C36_3 C28_3 1_555 1_555
H23_3 C36_3 1_555 1_555
C37_3 C29_3 1_555 1_555
H24_3 C37_3 1_555 1_555
Zn8_2 O8_3 1_555 1_555
O8_3 C39_3 1_555 1_555
O11_3 C39_3 1_555 1_555
C38_3 C39_3 1_555 1_555
Zn6_2 O5_3 1_555 1_555
Zn9 N3_3 1_555 1_555
O19_3 Zn8_2 1_555 1_555
O20_3 Zn7_2 1_555 1_555
N5_3 Zn8_2 1_555 1_555
C25_3 C27_3 1_555 1_555
C30_3 C36_3 1_555 1_555
C30_3 C37_3 1_555 1_555
C33_3 C35_3 1_555 1_555
O11_3 Zn6_2 1_555 1_555
Zn1_3 O4_3 1_555 1_555
O4_3 C6_3 1_555 1_555
O6_3 C6_3 1_555 1_555
C4_3 C6_3 1_555 1_555
C8_3 N2_3 1_555 1_555
H2_3 C10_3 1_555 1_555
C11_3 C4_3 1_555 1_555
H3_3 C11_3 1_555 1_555
C13_3 N2_3 1_555 1_555
C16_3 C8_3 1_555 1_555
H7_3 C16_3 1_555 1_555
C18_3 C10_3 1_555 1_555
H9_3 C18_3 1_555 1_555
C19_3 C4_3 1_555 1_555
H10_3 C19_3 1_555 1_555
C20_3 C8_3 1_555 1_555
H11_3 C20_3 1_555 1_555
C21_3 C12_3 1_555 1_555
H12_3 C21_3 1_555 1_555
O14_2 C46_3 1_555 1_555
O9_3 C46_3 1_555 1_555
O10_3 Zn1_3 1_555 1_555
O12_3 C43_3 1_555 1_555
N4_3 C40_3 1_555 1_555
C40_3 C51_3 1_555 1_555
C41_3 C43_3 1_555 1_555
C42_3 C44_3 1_555 1_555
C43_3 O10_3 1_555 1_555
C44_3 H25_3 1_555 1_555
C45_3 N4_3 1_555 1_555
C46_3 C42_3 1_555 1_555
H26_3 C47_3 1_555 1_555
C48_3 C41_3 1_555 1_555
H27_3 C48_3 1_555 1_555
C50_3 N4_3 1_555 1_555
C51_3 H29_3 1_555 1_555
C52_3 C40_3 1_555 1_555
H30_3 C52_3 1_555 1_555
C53_3 C45_3 1_555 1_555
H31_3 C53_3 1_555 1_555
C54_3 C42_3 1_555 1_555
H32_3 C54_3 1_555 1_555
C55_3 C47_3 1_555 1_555
H33_3 C55_3 1_555 1_555
C56_3 C41_3 1_555 1_555
H34_3 C56_3 1_555 1_555
C57_3 C45_3 1_555 1_555
H35_3 C57_3 1_555 1_555
C58_3 C49_3 1_555 1_555
H36_3 C58_3 1_555 1_555
Zn10 O12_3 1_555 1_555
Zn11_3 O6_3 1_555 1_555
O15_3 Zn1_3 1_555 1_555
O16_3 Zn1_3 1_555 1_555
O17_3 Zn1_3 1_555 1_555
O18_3 Zn1_3 1_555 1_555
C11_3 C16_3 1_555 1_555
C13_3 C18_3 1_555 1_555
C13_3 C21_3 1_555 1_555
C19_3 C20_3 1_555 1_555
C44_3 C52_3 1_555 1_555
C48_3 C53_3 1_555 1_555
C50_3 C55_3 1_555 1_555
C50_3 C58_3 1_555 1_555
C51_3 C54_3 1_555 1_555
C56_3 C57_3 1_555 1_555
Zn10 O16_3 1_555 1_555
Zn11_3 O15_3 1_555 1_555
O13_2 C9_3 1_555 1_555
O3_3 C9_3 1_555 1_555
C3_3 C14_3 1_555 1_555
C5_3 C7_3 1_555 1_555
C7_3 H1_3 1_555 1_555
C9_3 C5_3 1_555 1_555
C14_3 H5_3 1_555 1_555
C15_3 C3_3 1_555 1_555
H6_3 C15_3 1_555 1_555
C17_3 C5_3 1_555 1_555
H8_3 C17_3 1_555 1_555
C7_3 C15_3 1_555 1_555
C14_3 C17_3 1_555 1_555
O14 C46_4 1_555 1_555
O9_4 C46_4 1_555 1_555
C40_4 C51_4 1_555 1_555
C42_4 C44_4 1_555 1_555
C44_4 H25_4 1_555 1_555
C46_4 C42_4 1_555 1_555
C51_4 H29_4 1_555 1_555
C52_4 C40_4 1_555 1_555
H30_4 C52_4 1_555 1_555
C54_4 C42_4 1_555 1_555
H32_4 C54_4 1_555 1_555
C44_4 C52_4 1_555 1_555
C51_4 C54_4 1_555 1_555
Zn1_4 O4_4 1_555 1_555
Zn7 O2_4 1_555 1_555
O13 C9_4 1_555 1_555
O2_4 C2_4 1_555 1_555
O3_4 C9_4 1_555 1_555
O4_4 C6_4 1_555 1_555
O5_4 C2_4 1_555 1_555
O6_4 C6_4 1_555 1_555
N1_4 Zn7 1_555 1_555
N2_4 C3_4 1_555 1_555
C1_4 C2_4 1_555 1_555
C3_4 C14_4 1_555 1_555
C4_4 C6_4 1_555 1_555
C5_4 C7_4 1_555 1_555
C7_4 H1_4 1_555 1_555
C8_4 N2_4 1_555 1_555
C9_4 C5_4 1_555 1_555
C10_4 C1_4 1_555 1_555
H2_4 C10_4 1_555 1_555
C11_4 C4_4 1_555 1_555
H3_4 C11_4 1_555 1_555
C12_4 C1_4 1_555 1_555
H4_4 C12_4 1_555 1_555
C13_4 N2_4 1_555 1_555
C14_4 H5_4 1_555 1_555
C15_4 C3_4 1_555 1_555
H6_4 C15_4 1_555 1_555
C16_4 C8_4 1_555 1_555
H7_4 C16_4 1_555 1_555
C17_4 C5_4 1_555 1_555
H8_4 C17_4 1_555 1_555
C18_4 C10_4 1_555 1_555
H9_4 C18_4 1_555 1_555
C19_4 C4_4 1_555 1_555
H10_4 C19_4 1_555 1_555
C20_4 C8_4 1_555 1_555
H11_4 C20_4 1_555 1_555
C21_4 C12_4 1_555 1_555
H12_4 C21_4 1_555 1_555
C22_4 C23_4 1_555 1_555
C23_4 C26_4 1_555 1_555
C24_4 N1_4 1_555 1_555
H13_4 C24_4 1_555 1_555
C25_4 N1_4 1_555 1_555
H14_4 C25_4 1_555 1_555
C26_4 C24_4 1_555 1_555
H15_4 C26_4 1_555 1_555
C27_4 C23_4 1_555 1_555
H16_4 C27_4 1_555 1_555
C28_4 C22_4 1_555 1_555
H17_4 C28_4 1_555 1_555
C29_4 C22_4 1_555 1_555
H18_4 C29_4 1_555 1_555
N3_4 C32_4 1_555 1_555
C30_4 C31_4 1_555 1_555
C31_4 C34_4 1_555 1_555
C32_4 H19_4 1_555 1_555
C33_4 N3_4 1_555 1_555
H20_4 C33_4 1_555 1_555
C34_4 C32_4 1_555 1_555
H21_4 C34_4 1_555 1_555
C35_4 C31_4 1_555 1_555
H22_4 C35_4 1_555 1_555
C36_4 C28_4 1_555 1_555
H23_4 C36_4 1_555 1_555
C37_4 C29_4 1_555 1_555
H24_4 C37_4 1_555 1_555
Zn8 O8_4 1_555 1_555
O8_4 C39_4 1_555 1_555
O10_4 Zn1_4 1_555 1_555
O11_4 C39_4 1_555 1_555
O12_4 C43_4 1_555 1_555
C38_4 C39_4 1_555 1_555
C41_4 C43_4 1_555 1_555
C43_4 O10_4 1_555 1_555
C45_4 N4_4 1_555 1_555
C47_4 C38_4 1_555 1_555
H26_4 C47_4 1_555 1_555
C48_4 C41_4 1_555 1_555
H27_4 C48_4 1_555 1_555
C49_4 C38_4 1_555 1_555
H28_4 C49_4 1_555 1_555
C50_4 N4_4 1_555 1_555
C53_4 C45_4 1_555 1_555
H31_4 C53_4 1_555 1_555
C55_4 C47_4 1_555 1_555
H33_4 C55_4 1_555 1_555
C56_4 C41_4 1_555 1_555
H34_4 C56_4 1_555 1_555
C57_4 C45_4 1_555 1_555
H35_4 C57_4 1_555 1_555
C58_4 C49_4 1_555 1_555
H36_4 C58_4 1_555 1_555
Zn6 O5_4 1_555 1_555
Zn10_2 O12_4 1_555 1_555
Zn9_2 N3_4 1_555 1_555
Zn11_4 O6_4 1_555 1_555
O15_4 Zn1_4 1_555 1_555
O16_4 Zn1_4 1_555 1_555
O17_4 Zn1_4 1_555 1_555
O18_4 Zn1_4 1_555 1_555
O19_4 Zn8 1_555 1_555
O20_4 Zn7 1_555 1_555
N5_4 Zn8 1_555 1_555
C7_4 C15_4 1_555 1_555
C11_4 C16_4 1_555 1_555
C13_4 C18_4 1_555 1_555
C13_4 C21_4 1_555 1_555
C14_4 C17_4 1_555 1_555
C19_4 C20_4 1_555 1_555
C25_4 C27_4 1_555 1_555
C30_4 C36_4 1_555 1_555
C30_4 C37_4 1_555 1_555
C33_4 C35_4 1_555 1_555
O11_4 Zn6 1_555 1_555
C48_4 C53_4 1_555 1_555
C50_4 C55_4 1_555 1_555
C50_4 C58_4 1_555 1_555
C56_4 C57_4 1_555 1_555
Zn10_2 O16_4 1_555 1_555
Zn11_4 O15_4 1_555 1_555
N3_5 C32_5 1_555 1_555
C30_5 C31_5 1_555 1_555
C31_5 C34_5 1_555 1_555
C32_5 H19_5 1_555 1_555
C33_5 N3_5 1_555 1_555
H20_5 C33_5 1_555 1_555
C34_5 C32_5 1_555 1_555
H21_5 C34_5 1_555 1_555
C35_5 C31_5 1_555 1_555
H22_5 C35_5 1_555 1_555
H23_5 C36_5 1_555 1_555
H24_5 C37_5 1_555 1_555
Zn11 N3_5 1_555 1_555
C30_5 C36_5 1_555 1_555
C30_5 C37_5 1_555 1_555
C33_5 C35_5 1_555 1_555
C22_5 C23_5 1_555 1_555
C23_5 C26_5 1_555 1_555
C24_5 N5_3 1_555 1_555
H13_5 C24_5 1_555 1_555
C25_5 N5_3 1_555 1_555
H14_5 C25_5 1_555 1_555
C26_5 C24_5 1_555 1_555
H15_5 C26_5 1_555 1_555
C27_5 C23_5 1_555 1_555
H16_5 C27_5 1_555 1_555
C28_5 C22_5 1_555 1_555
H17_5 C28_5 1_555 1_555
C29_5 C22_5 1_555 1_555
H18_5 C29_5 1_555 1_555
C25_5 C27_5 1_555 1_555
C22_6 C23_6 1_555 1_555
C23_6 C26_6 1_555 1_555
C24_6 N5_4 1_555 1_555
H13_6 C24_6 1_555 1_555
C25_6 N5_4 1_555 1_555
H14_6 C25_6 1_555 1_555
C26_6 C24_6 1_555 1_555
H15_6 C26_6 1_555 1_555
C27_6 C23_6 1_555 1_555
H16_6 C27_6 1_555 1_555
C28_6 C22_6 1_555 1_555
H17_6 C28_6 1_555 1_555
C29_6 C22_6 1_555 1_555
H18_6 C29_6 1_555 1_555
C25_6 C27_6 1_555 1_555
N3_6 C32_6 1_555 1_555
C30_6 C31_6 1_555 1_555
C31_6 C34_6 1_555 1_555
C32_6 H19_6 1_555 1_555
C33_6 N3_6 1_555 1_555
H20_6 C33_6 1_555 1_555
C34_6 C32_6 1_555 1_555
H21_6 C34_6 1_555 1_555
C35_6 C31_6 1_555 1_555
H22_6 C35_6 1_555 1_555
H23_6 C36_6 1_555 1_555
H24_6 C37_6 1_555 1_555
Zn11_2 N3_6 1_555 1_555
C30_6 C36_6 1_555 1_555
C30_6 C37_6 1_555 1_555
C33_6 C35_6 1_555 1_555
C22_7 C23_7 1_555 1_555
C23_7 C26_7 1_555 1_555
C24_7 N5 1_555 1_555
H13_7 C24_7 1_555 1_555
C25_7 N5 1_555 1_555
H14_7 C25_7 1_555 1_555
C26_7 C24_7 1_555 1_555
H15_7 C26_7 1_555 1_555
C27_7 C23_7 1_555 1_555
H16_7 C27_7 1_555 1_555
C28_7 C22_7 1_555 1_555
H17_7 C28_7 1_555 1_555
C29_7 C22_7 1_555 1_555
H18_7 C29_7 1_555 1_555
C25_7 C27_7 1_555 1_555
N3_7 C32_7 1_555 1_555
C30_7 C31_7 1_555 1_555
C31_7 C34_7 1_555 1_555
C32_7 H19_7 1_555 1_555
C33_7 N3_7 1_555 1_555
H20_7 C33_7 1_555 1_555
C34_7 C32_7 1_555 1_555
H21_7 C34_7 1_555 1_555
C35_7 C31_7 1_555 1_555
H22_7 C35_7 1_555 1_555
H23_7 C36_7 1_555 1_555
H24_7 C37_7 1_555 1_555
Zn11_3 N3_7 1_555 1_555
C30_7 C36_7 1_555 1_555
C30_7 C37_7 1_555 1_555
C33_7 C35_7 1_555 1_555
N3_8 C32_8 1_555 1_555
C30_8 C31_8 1_555 1_555
C31_8 C34_8 1_555 1_555
C32_8 H19_8 1_555 1_555
C33_8 N3_8 1_555 1_555
H20_8 C33_8 1_555 1_555
C34_8 C32_8 1_555 1_555
H21_8 C34_8 1_555 1_555
C35_8 C31_8 1_555 1_555
H22_8 C35_8 1_555 1_555
H23_8 C36_8 1_555 1_555
H24_8 C37_8 1_555 1_555
Zn11_4 N3_8 1_555 1_555
C30_8 C36_8 1_555 1_555
C30_8 C37_8 1_555 1_555
C33_8 C35_8 1_555 1_555
C22_8 C23_8 1_555 1_555
C23_8 C26_8 1_555 1_555
C24_8 N5_2 1_555 1_555
H13_8 C24_8 1_555 1_555
C25_8 N5_2 1_555 1_555
H14_8 C25_8 1_555 1_555
C26_8 C24_8 1_555 1_555
H15_8 C26_8 1_555 1_555
C27_8 C23_8 1_555 1_555
H16_8 C27_8 1_555 1_555
C28_8 C22_8 1_555 1_555
H17_8 C28_8 1_555 1_555
C29_8 C22_8 1_555 1_555
H18_8 C29_8 1_555 1_555
C25_8 C27_8 1_555 1_555
O16_3 C46_5 1_555 1_555
O9_5 C46_5 1_555 1_555
C40_5 C51_5 1_555 1_555
C42_5 C44_5 1_555 1_555
C44_5 H25_5 1_555 1_555
C46_5 C42_5 1_555 1_555
C51_5 H29_5 1_555 1_555
C52_5 C40_5 1_555 1_555
H30_5 C52_5 1_555 1_555
C54_5 C42_5 1_555 1_555
H32_5 C54_5 1_555 1_555
C44_5 C52_5 1_555 1_555
C51_5 C54_5 1_555 1_555
Zn4_2 O4_5 1_555 1_555
Zn9_2 O2_5 1_555 1_555
O15_3 C9_5 1_555 1_555
O2_5 C2_5 1_555 1_555
O3_5 C9_5 1_555 1_555
O4_5 C6_5 1_555 1_555
O17_2 C2_5 1_555 1_555
O19_2 C6_5 1_555 1_555
N2_5 C3_5 1_555 1_555
C1_5 C2_5 1_555 1_555
C3_5 C14_5 1_555 1_555
C4_5 C6_5 1_555 1_555
C5_5 C7_5 1_555 1_555
C7_5 H1_5 1_555 1_555
C8_5 N2_5 1_555 1_555
C9_5 C5_5 1_555 1_555
C10_5 C1_5 1_555 1_555
H2_5 C10_5 1_555 1_555
C11_5 C4_5 1_555 1_555
H3_5 C11_5 1_555 1_555
C12_5 C1_5 1_555 1_555
H4_5 C12_5 1_555 1_555
C13_5 N2_5 1_555 1_555
C14_5 H5_5 1_555 1_555
C15_5 C3_5 1_555 1_555
H6_5 C15_5 1_555 1_555
C16_5 C8_5 1_555 1_555
H7_5 C16_5 1_555 1_555
C17_5 C5_5 1_555 1_555
H8_5 C17_5 1_555 1_555
C18_5 C10_5 1_555 1_555
H9_5 C18_5 1_555 1_555
C19_5 C4_5 1_555 1_555
H10_5 C19_5 1_555 1_555
C20_5 C8_5 1_555 1_555
H11_5 C20_5 1_555 1_555
C21_5 C12_5 1_555 1_555
H12_5 C21_5 1_555 1_555
Zn11_2 O8_5 1_555 1_555
O8_5 C39_5 1_555 1_555
O10_5 Zn4_2 1_555 1_555
O18_2 C39_5 1_555 1_555
O20_2 C43_5 1_555 1_555
C38_5 C39_5 1_555 1_555
C41_5 C43_5 1_555 1_555
C43_5 O10_5 1_555 1_555
C45_5 N4_5 1_555 1_555
C47_5 C38_5 1_555 1_555
H26_5 C47_5 1_555 1_555
C48_5 C41_5 1_555 1_555
H27_5 C48_5 1_555 1_555
C49_5 C38_5 1_555 1_555
H28_5 C49_5 1_555 1_555
C50_5 N4_5 1_555 1_555
C53_5 C45_5 1_555 1_555
H31_5 C53_5 1_555 1_555
C55_5 C47_5 1_555 1_555
H33_5 C55_5 1_555 1_555
C56_5 C41_5 1_555 1_555
H34_5 C56_5 1_555 1_555
C57_5 C45_5 1_555 1_555
H35_5 C57_5 1_555 1_555
C58_5 C49_5 1_555 1_555
H36_5 C58_5 1_555 1_555
C7_5 C15_5 1_555 1_555
C11_5 C16_5 1_555 1_555
C13_5 C18_5 1_555 1_555
C13_5 C21_5 1_555 1_555
C14_5 C17_5 1_555 1_555
C19_5 C20_5 1_555 1_555
C48_5 C53_5 1_555 1_555
C50_5 C55_5 1_555 1_555
C50_5 C58_5 1_555 1_555
C56_5 C57_5 1_555 1_555
Zn9 O2_6 1_555 1_555
O2_6 C2_6 1_555 1_555
O17 C2_6 1_555 1_555
C1_6 C2_6 1_555 1_555
Zn11 O8_6 1_555 1_555
O8_6 C39_6 1_555 1_555
O18 C39_6 1_555 1_555
C38_6 C39_6 1_555 1_555
Zn4 O4_6 1_555 1_555
O4_6 C6_6 1_555 1_555
O19 C6_6 1_555 1_555
C4_6 C6_6 1_555 1_555
C8_6 N2_6 1_555 1_555
H2_6 C10_6 1_555 1_555
C11_6 C4_6 1_555 1_555
H3_6 C11_6 1_555 1_555
C13_6 N2_6 1_555 1_555
C16_6 C8_6 1_555 1_555
H7_6 C16_6 1_555 1_555
C18_6 C10_6 1_555 1_555
H9_6 C18_6 1_555 1_555
C19_6 C4_6 1_555 1_555
H10_6 C19_6 1_555 1_555
C20_6 C8_6 1_555 1_555
H11_6 C20_6 1_555 1_555
C21_6 C12_6 1_555 1_555
H12_6 C21_6 1_555 1_555
O16_4 C46_6 1_555 1_555
O9_6 C46_6 1_555 1_555
O10_6 Zn4 1_555 1_555
O20 C43_6 1_555 1_555
N4_6 C40_6 1_555 1_555
C40_6 C51_6 1_555 1_555
C41_6 C43_6 1_555 1_555
C42_6 C44_6 1_555 1_555
C43_6 O10_6 1_555 1_555
C44_6 H25_6 1_555 1_555
C45_6 N4_6 1_555 1_555
C46_6 C42_6 1_555 1_555
H26_6 C47_6 1_555 1_555
C48_6 C41_6 1_555 1_555
H27_6 C48_6 1_555 1_555
C50_6 N4_6 1_555 1_555
C51_6 H29_6 1_555 1_555
C52_6 C40_6 1_555 1_555
H30_6 C52_6 1_555 1_555
C53_6 C45_6 1_555 1_555
H31_6 C53_6 1_555 1_555
C54_6 C42_6 1_555 1_555
H32_6 C54_6 1_555 1_555
C55_6 C47_6 1_555 1_555
H33_6 C55_6 1_555 1_555
C56_6 C41_6 1_555 1_555
H34_6 C56_6 1_555 1_555
C57_6 C45_6 1_555 1_555
H35_6 C57_6 1_555 1_555
C58_6 C49_6 1_555 1_555
H36_6 C58_6 1_555 1_555
C11_6 C16_6 1_555 1_555
C13_6 C18_6 1_555 1_555
C13_6 C21_6 1_555 1_555
C19_6 C20_6 1_555 1_555
C44_6 C52_6 1_555 1_555
C48_6 C53_6 1_555 1_555
C50_6 C55_6 1_555 1_555
C50_6 C58_6 1_555 1_555
C51_6 C54_6 1_555 1_555
C56_6 C57_6 1_555 1_555
O15_4 C9_6 1_555 1_555
O3_6 C9_6 1_555 1_555
C3_6 C14_6 1_555 1_555
C5_6 C7_6 1_555 1_555
C7_6 H1_6 1_555 1_555
C9_6 C5_6 1_555 1_555
C14_6 H5_6 1_555 1_555
C15_6 C3_6 1_555 1_555
H6_6 C15_6 1_555 1_555
C17_6 C5_6 1_555 1_555
H8_6 C17_6 1_555 1_555
C7_6 C15_6 1_555 1_555
C14_6 C17_6 1_555 1_555
O15 C9_7 1_555 1_555
O3_7 C9_7 1_555 1_555
C3_7 C14_7 1_555 1_555
C5_7 C7_7 1_555 1_555
C7_7 H1_7 1_555 1_555
C9_7 C5_7 1_555 1_555
C14_7 H5_7 1_555 1_555
C15_7 C3_7 1_555 1_555
H6_7 C15_7 1_555 1_555
C17_7 C5_7 1_555 1_555
H8_7 C17_7 1_555 1_555
C7_7 C15_7 1_555 1_555
C14_7 C17_7 1_555 1_555
Zn6 O4_7 1_555 1_555
O4_7 C6_7 1_555 1_555
O19_4 C6_7 1_555 1_555
C4_7 C6_7 1_555 1_555
C8_7 N2_7 1_555 1_555
H2_7 C10_7 1_555 1_555
C11_7 C4_7 1_555 1_555
H3_7 C11_7 1_555 1_555
C13_7 N2_7 1_555 1_555
C16_7 C8_7 1_555 1_555
H7_7 C16_7 1_555 1_555
C18_7 C10_7 1_555 1_555
H9_7 C18_7 1_555 1_555
C19_7 C4_7 1_555 1_555
H10_7 C19_7 1_555 1_555
C20_7 C8_7 1_555 1_555
H11_7 C20_7 1_555 1_555
C21_7 C12_7 1_555 1_555
H12_7 C21_7 1_555 1_555
O16 C46_7 1_555 1_555
O9_7 C46_7 1_555 1_555
O10_7 Zn6 1_555 1_555
O20_4 C43_7 1_555 1_555
N4_7 C40_7 1_555 1_555
C40_7 C51_7 1_555 1_555
C41_7 C43_7 1_555 1_555
C42_7 C44_7 1_555 1_555
C43_7 O10_7 1_555 1_555
C44_7 H25_7 1_555 1_555
C45_7 N4_7 1_555 1_555
C46_7 C42_7 1_555 1_555
H26_7 C47_7 1_555 1_555
C48_7 C41_7 1_555 1_555
H27_7 C48_7 1_555 1_555
C50_7 N4_7 1_555 1_555
C51_7 H29_7 1_555 1_555
C52_7 C40_7 1_555 1_555
H30_7 C52_7 1_555 1_555
C53_7 C45_7 1_555 1_555
H31_7 C53_7 1_555 1_555
C54_7 C42_7 1_555 1_555
H32_7 C54_7 1_555 1_555
C55_7 C47_7 1_555 1_555
H33_7 C55_7 1_555 1_555
C56_7 C41_7 1_555 1_555
H34_7 C56_7 1_555 1_555
C57_7 C45_7 1_555 1_555
H35_7 C57_7 1_555 1_555
C58_7 C49_7 1_555 1_555
H36_7 C58_7 1_555 1_555
C11_7 C16_7 1_555 1_555
C13_7 C18_7 1_555 1_555
C13_7 C21_7 1_555 1_555
C19_7 C20_7 1_555 1_555
C44_7 C52_7 1_555 1_555
C48_7 C53_7 1_555 1_555
C50_7 C55_7 1_555 1_555
C50_7 C58_7 1_555 1_555
C51_7 C54_7 1_555 1_555
C56_7 C57_7 1_555 1_555
Zn10_2 O2_7 1_555 1_555
O2_7 C2_7 1_555 1_555
O17_4 C2_7 1_555 1_555
C1_7 C2_7 1_555 1_555
Zn11_4 O8_7 1_555 1_555
O8_7 C39_7 1_555 1_555
O18_4 C39_7 1_555 1_555
C38_7 C39_7 1_555 1_555
Zn6_2 O4_8 1_555 1_555
Zn10 O2_8 1_555 1_555
O15_2 C9_8 1_555 1_555
O2_8 C2_8 1_555 1_555
O3_8 C9_8 1_555 1_555
O4_8 C6_8 1_555 1_555
O17_3 C2_8 1_555 1_555
O19_3 C6_8 1_555 1_555
N2_8 C3_8 1_555 1_555
C1_8 C2_8 1_555 1_555
C3_8 C14_8 1_555 1_555
C4_8 C6_8 1_555 1_555
C5_8 C7_8 1_555 1_555
C7_8 H1_8 1_555 1_555
C8_8 N2_8 1_555 1_555
C9_8 C5_8 1_555 1_555
C10_8 C1_8 1_555 1_555
H2_8 C10_8 1_555 1_555
C11_8 C4_8 1_555 1_555
H3_8 C11_8 1_555 1_555
C12_8 C1_8 1_555 1_555
H4_8 C12_8 1_555 1_555
C13_8 N2_8 1_555 1_555
C14_8 H5_8 1_555 1_555
C15_8 C3_8 1_555 1_555
H6_8 C15_8 1_555 1_555
C16_8 C8_8 1_555 1_555
H7_8 C16_8 1_555 1_555
C17_8 C5_8 1_555 1_555
H8_8 C17_8 1_555 1_555
C18_8 C10_8 1_555 1_555
H9_8 C18_8 1_555 1_555
C19_8 C4_8 1_555 1_555
H10_8 C19_8 1_555 1_555
C20_8 C8_8 1_555 1_555
H11_8 C20_8 1_555 1_555
C21_8 C12_8 1_555 1_555
H12_8 C21_8 1_555 1_555
Zn11_3 O8_8 1_555 1_555
O8_8 C39_8 1_555 1_555
O10_8 Zn6_2 1_555 1_555
O18_3 C39_8 1_555 1_555
O20_3 C43_8 1_555 1_555
C38_8 C39_8 1_555 1_555
C41_8 C43_8 1_555 1_555
C43_8 O10_8 1_555 1_555
C45_8 N4_8 1_555 1_555
C47_8 C38_8 1_555 1_555
H26_8 C47_8 1_555 1_555
C48_8 C41_8 1_555 1_555
H27_8 C48_8 1_555 1_555
C49_8 C38_8 1_555 1_555
H28_8 C49_8 1_555 1_555
C50_8 N4_8 1_555 1_555
C53_8 C45_8 1_555 1_555
H31_8 C53_8 1_555 1_555
C55_8 C47_8 1_555 1_555
H33_8 C55_8 1_555 1_555
C56_8 C41_8 1_555 1_555
H34_8 C56_8 1_555 1_555
C57_8 C45_8 1_555 1_555
H35_8 C57_8 1_555 1_555
C58_8 C49_8 1_555 1_555
H36_8 C58_8 1_555 1_555
C7_8 C15_8 1_555 1_555
C11_8 C16_8 1_555 1_555
C13_8 C18_8 1_555 1_555
C13_8 C21_8 1_555 1_555
C14_8 C17_8 1_555 1_555
C19_8 C20_8 1_555 1_555
C48_8 C53_8 1_555 1_555
C50_8 C55_8 1_555 1_555
C50_8 C58_8 1_555 1_555
C56_8 C57_8 1_555 1_555
O16_2 C46_8 1_555 1_555
O9_8 C46_8 1_555 1_555
C40_8 C51_8 1_555 1_555
C42_8 C44_8 1_555 1_555
C44_8 H25_8 1_555 1_555
C46_8 C42_8 1_555 1_555
C51_8 H29_8 1_555 1_555
C52_8 C40_8 1_555 1_555
H30_8 C52_8 1_555 1_555
C54_8 C42_8 1_555 1_555
H32_8 C54_8 1_555 1_555
C44_8 C52_8 1_555 1_555
C51_8 C54_8 1_555 1_555

#END
