
###############################################################################
#
# This file contains modified crystal structure data generated from the
# MOF subset of the Cambridge Structural Database (CSD) v543 
# hosted by the Cambridge Crystallographic Data Centre (CCDC).
#
# This work is licensed under the Creative Commons
# Attribution-NonCommercial-ShareAlike 4.0 International License.
# To view a copy of this license, visit
# http://creativecommons.org/licenses/by-nc-sa/4.0/
# or send a letter to
# Creative Commons, PO Box 1866, Mountain View, CA 94042, USA.
#
# CIF created using the CSD Python API on 29 September 2022
# The structure has been converted into the P1 space group
# The structure has a 3D framework
# The original CSD entry JAVNIE is in the orthorhombic crystal system
# The framework has been calculated to contain at least 10.0% void space
# The void calculation uses a probe of radius 1.32A, grid spacing 0.4
# H atom positions have been added when not included in the experimental data
# Generated hydrogen atom positions removed from atoms on special positions
#
###############################################################################

data_JAVNIE
_chemical_formula_moiety         '(C48 H46 Cl6 Cu15 N40 O6)n'
_symmetry_cell_setting           triclinic
_symmetry_space_group_name_H-M   'P 1'
_symmetry_Int_Tables_number      1
_space_group_name_Hall           'P 1'
loop_
_symmetry_equiv_pos_site_id
_symmetry_equiv_pos_as_xyz
1 x,y,z
_cell_length_a                   12.3305(2)
_cell_length_b                   15.5069(3)
_cell_length_c                   15.6412(3)
_cell_angle_alpha                90
_cell_angle_beta                 90
_cell_angle_gamma                90
_cell_volume                     2990.72
loop_
_atom_site_label
_atom_site_type_symbol
_atom_site_fract_x
_atom_site_fract_y
_atom_site_fract_z
Cu1 Cu 0.00000 0.00000 -0.00000
Cu3 Cu 0.15251(4) 0.00000 0.19216(4)
Cl2 Cl 0.21617(9) 0.00000 0.03771(8)
N9 N 0.0400(2) 0.09064(16) 0.16389(18)
N12 N 0.0087(2) 0.15513(18) 0.2132(2)
N24 N 0.2497(2) 0.09244(17) 0.24049(19)
O2 O 0.0329(7) 0.00000 0.3544(6)
H20 H 0.0850558 -7.39365e-18 0.402773
Cu1_2 Cu 0.00000 0.00000 1.00000
C1 C 0.0665(3) 0.1946(2) 0.8331(2)
C2 C 0.1284(3) 0.2701(2) 0.8014(2)
C3 C 0.2098(5) 0.3057(4) 0.8489(3)
H1 H 0.2263 0.2838 0.9027
C4 C 0.2676(5) 0.3750(4) 0.8161(3)
H2 H 0.3214 0.3995 0.8499
C5 C 0.1723(5) 0.3732(4) 0.6952(4)
H3 H 0.1576 0.3961 0.6415
C6 C 0.1106(5) 0.3041(4) 0.7236(4)
H4 H 0.0567 0.2812 0.6888
N1 N 0.0148(2) 0.09184(16) 0.90895(17)
N4 N 0.0836(2) 0.15791(18) 0.90859(17)
N5 N 0.2503(2) 0.40756(17) 0.74049(19)
Cu4 Cu 0.34749(4) 0.50000 0.69216(4)
Cu1_3 Cu 0.00000 1.00000 -0.00000
Cu3_2 Cu 0.15251(4) 1.00000 0.19216(4)
Cl2_2 Cl 0.21617(9) 1.00000 0.03771(8)
N10 N 0.0400(2) 0.90936(16) 0.16389(18)
N13 N 0.0087(2) 0.84487(18) 0.2132(2)
N23 N 0.2497(2) 0.90756(17) 0.24049(19)
O2_2 O 0.0329(7) 1.00000 0.3544(6)
H20_2 H 0.0850558 1 0.402773
Cu1_4 Cu 0.00000 1.00000 1.00000
C9 C 0.0665(3) 0.8054(2) 0.8331(2)
C12 C 0.1284(3) 0.7299(2) 0.8014(2)
C15 C 0.2098(5) 0.6943(4) 0.8489(3)
H7 H 0.2263 0.7162 0.9027
C18 C 0.2676(5) 0.6250(4) 0.8161(3)
H10 H 0.3214 0.6005 0.8499
C21 C 0.1723(5) 0.6268(4) 0.6952(4)
H13 H 0.1576 0.6039 0.6415
C24 C 0.1106(5) 0.6959(4) 0.7236(4)
H16 H 0.0567 0.7188 0.6888
N8 N 0.0148(2) 0.90816(16) 0.90895(17)
N17 N 0.0836(2) 0.84209(18) 0.90859(17)
N20 N 0.2503(2) 0.59244(17) 0.74049(19)
H17 H 0.0134111 0.947715 0.642342
Cu1_5 Cu 1.00000 0.00000 -0.00000
Cu5 Cu 0.65251(4) 0.50000 0.30784(4)
C7 C 0.9335(3) 0.1946(2) 0.1669(2)
C10 C 0.8716(3) 0.2701(2) 0.1986(2)
C13 C 0.7902(5) 0.3057(4) 0.1511(3)
H5 H 0.7737 0.2838 0.0973
C16 C 0.7324(5) 0.3750(4) 0.1839(3)
H8 H 0.6786 0.3995 0.1501
C19 C 0.8277(5) 0.3732(4) 0.3048(4)
H11 H 0.8424 0.3961 0.3585
C22 C 0.8894(5) 0.3041(4) 0.2764(4)
H14 H 0.9433 0.2812 0.3112
N6 N 0.9852(2) 0.09184(16) 0.09105(17)
N15 N 0.9164(2) 0.15791(18) 0.09141(17)
N18 N 0.7497(2) 0.40756(17) 0.25951(19)
Cu1_6 Cu 1.00000 0.00000 1.00000
Cu2 Cu 0.84749(4) 0.00000 0.80784(4)
Cl1 Cl 0.78383(9) 0.00000 0.96229(8)
N2 N 0.9600(2) 0.09064(16) 0.83611(18)
N3 N 0.9913(2) 0.15513(18) 0.7868(2)
O1 O 0.9671(7) 0.00000 0.6456(6)
N22 N 0.7503(2) 0.09244(17) 0.75951(19)
H18 H 0.914944 -7.39365e-18 0.597227
Cu1_7 Cu 1.00000 1.00000 -0.00000
C8 C 0.9335(3) 0.8054(2) 0.1669(2)
C11 C 0.8716(3) 0.7299(2) 0.1986(2)
C14 C 0.7902(5) 0.6943(4) 0.1511(3)
H6 H 0.7737 0.7162 0.0973
C17 C 0.7324(5) 0.6250(4) 0.1839(3)
H9 H 0.6786 0.6005 0.1501
C20 C 0.8277(5) 0.6268(4) 0.3048(4)
H12 H 0.8424 0.6039 0.3585
C23 C 0.8894(5) 0.6959(4) 0.2764(4)
H15 H 0.9433 0.7188 0.3112
N7 N 0.9852(2) 0.90816(16) 0.09105(17)
N16 N 0.9164(2) 0.84209(18) 0.09141(17)
N19 N 0.7497(2) 0.59244(17) 0.25951(19)
H19 H 0.986589 0.947715 0.357658
Cu1_8 Cu 1.00000 1.00000 1.00000
Cu2_2 Cu 0.84749(4) 1.00000 0.80784(4)
Cl1_2 Cl 0.78383(9) 1.00000 0.96229(8)
O1_2 O 0.9671(7) 1.00000 0.6456(6)
N11 N 0.9600(2) 0.90936(16) 0.83611(18)
N14 N 0.9913(2) 0.84487(18) 0.7868(2)
N21 N 0.7503(2) 0.90756(17) 0.75951(19)
H18_2 H 0.914944 1 0.597227
Cu1_9 Cu 0.50000 0.50000 0.50000
C1_2 C 0.4335(3) 0.3054(2) 0.3331(2)
C2_2 C 0.3716(3) 0.2299(2) 0.3014(2)
C3_2 C 0.2902(5) 0.1943(4) 0.3489(3)
H1_2 H 0.2737 0.2162 0.4027
C4_2 C 0.2324(5) 0.1250(4) 0.3161(3)
H2_2 H 0.1786 0.1005 0.3499
C5_2 C 0.3277(5) 0.1268(4) 0.1952(4)
H3_2 H 0.3424 0.1039 0.1415
C6_2 C 0.3894(5) 0.1959(4) 0.2236(4)
H4_2 H 0.4433 0.2188 0.1888
Cl1_3 Cl 0.71617(9) 0.50000 0.46229(8)
N1_2 N 0.4852(2) 0.40816(16) 0.40895(17)
N2_2 N 0.5400(2) 0.40936(16) 0.33611(18)
N3_2 N 0.5087(2) 0.34487(18) 0.2868(2)
N4_2 N 0.4164(2) 0.34209(18) 0.40859(17)
O1_3 O 0.5329(7) 0.50000 0.1456(6)
C7_2 C 0.5665(3) 0.3054(2) 0.6669(2)
C8_2 C 0.5665(3) 0.6946(2) 0.6669(2)
C9_2 C 0.4335(3) 0.6946(2) 0.3331(2)
C10_2 C 0.6284(3) 0.2299(2) 0.6986(2)
C11_2 C 0.6284(3) 0.7701(2) 0.6986(2)
C12_2 C 0.3716(3) 0.7701(2) 0.3014(2)
C13_2 C 0.7098(5) 0.1943(4) 0.6511(3)
C14_2 C 0.7098(5) 0.8057(4) 0.6511(3)
C15_2 C 0.2902(5) 0.8057(4) 0.3489(3)
H5_2 H 0.7263 0.2162 0.5973
H6_2 H 0.7263 0.7838 0.5973
H7_2 H 0.2737 0.7838 0.4027
C16_2 C 0.7676(5) 0.1250(4) 0.6839(3)
C17_2 C 0.7676(5) 0.8750(4) 0.6839(3)
C18_2 C 0.2324(5) 0.8750(4) 0.3161(3)
H8_2 H 0.8214 0.1005 0.6501
H9_2 H 0.8214 0.8995 0.6501
H10_2 H 0.1786 0.8995 0.3499
C19_2 C 0.6723(5) 0.1268(4) 0.8048(4)
C20_2 C 0.6723(5) 0.8732(4) 0.8048(4)
C21_2 C 0.3277(5) 0.8732(4) 0.1952(4)
H11_2 H 0.6576 0.1039 0.8585
H12_2 H 0.6576 0.8961 0.8585
H13_2 H 0.3424 0.8961 0.1415
C22_2 C 0.6106(5) 0.1959(4) 0.7764(4)
C23_2 C 0.6106(5) 0.8041(4) 0.7764(4)
C24_2 C 0.3894(5) 0.8041(4) 0.2236(4)
H14_2 H 0.5567 0.2188 0.8112
H15_2 H 0.5567 0.7812 0.8112
H16_2 H 0.4433 0.7812 0.1888
Cl2_3 Cl 0.28383(9) 0.50000 0.53771(8)
N6_2 N 0.5148(2) 0.40816(16) 0.59105(17)
N7_2 N 0.5148(2) 0.59184(16) 0.59105(17)
N8_2 N 0.4852(2) 0.59184(16) 0.40895(17)
N9_2 N 0.4600(2) 0.40936(16) 0.66389(18)
N10_2 N 0.4600(2) 0.59064(16) 0.66389(18)
N11_2 N 0.5400(2) 0.59064(16) 0.33611(18)
N12_2 N 0.4913(2) 0.34487(18) 0.7132(2)
N13_2 N 0.4913(2) 0.65513(18) 0.7132(2)
N14_2 N 0.5087(2) 0.65513(18) 0.2868(2)
N15_2 N 0.5836(2) 0.34209(18) 0.59141(17)
N16_2 N 0.5836(2) 0.65791(18) 0.59141(17)
N17_2 N 0.4164(2) 0.65791(18) 0.40859(17)
O2_3 O 0.4671(7) 0.50000 0.8544(6)
H19_2 H 0.0134111 0.0522852 0.642342
H17_2 H 0.986589 0.0522852 0.357658
loop_
_geom_bond_atom_site_label_1
_geom_bond_atom_site_label_2
_geom_bond_site_symmetry_1
_geom_bond_site_symmetry_2
Cu3 Cl2 1_555 1_555
Cl2 Cu1 1_555 1_555
N9 Cu3 1_555 1_555
N24 Cu3 1_555 1_555
O2 Cu3 1_555 1_555
N9 N12 1_555 1_555
O2 H20 1_555 1_555
C1 C2 1_555 1_555
C2 C3 1_555 1_555
C3 H1 1_555 1_555
C4 C3 1_555 1_555
H2 C4 1_555 1_555
C5 H3 1_555 1_555
C6 C2 1_555 1_555
H4 C6 1_555 1_555
N1 Cu1_2 1_555 1_555
N4 C1 1_555 1_555
N5 C4 1_555 1_555
Cu4 N5 1_555 1_555
C5 C6 1_555 1_555
C5 N5 1_555 1_555
N1 N4 1_555 1_555
Cu3_2 Cl2_2 1_555 1_555
Cl2_2 Cu1_3 1_555 1_555
N10 Cu3_2 1_555 1_555
N23 Cu3_2 1_555 1_555
O2_2 Cu3_2 1_555 1_555
N10 N13 1_555 1_555
O2_2 H20_2 1_555 1_555
Cu4 N20 1_555 1_555
C9 C12 1_555 1_555
C12 C15 1_555 1_555
C15 H7 1_555 1_555
C18 C15 1_555 1_555
H10 C18 1_555 1_555
C21 H13 1_555 1_555
C24 C12 1_555 1_555
H16 C24 1_555 1_555
N8 Cu1_4 1_555 1_555
N17 C9 1_555 1_555
N20 C18 1_555 1_555
C21 C24 1_555 1_555
C21 N20 1_555 1_555
N8 N17 1_555 1_555
Cu5 N18 1_555 1_555
C7 C10 1_555 1_555
C10 C13 1_555 1_555
C13 H5 1_555 1_555
C16 C13 1_555 1_555
H8 C16 1_555 1_555
C19 H11 1_555 1_555
C22 C10 1_555 1_555
H14 C22 1_555 1_555
N6 Cu1_5 1_555 1_555
N15 C7 1_555 1_555
N18 C16 1_555 1_555
C19 C22 1_555 1_555
C19 N18 1_555 1_555
N6 N15 1_555 1_555
Cu1_6 Cl1 1_555 1_555
Cu2 Cl1 1_555 1_555
N2 Cu2 1_555 1_555
O1 Cu2 1_555 1_555
N22 Cu2 1_555 1_555
N2 N3 1_555 1_555
O1 H18 1_555 1_555
Cu5 N19 1_555 1_555
C8 C11 1_555 1_555
C11 C14 1_555 1_555
C14 H6 1_555 1_555
C17 C14 1_555 1_555
H9 C17 1_555 1_555
C20 H12 1_555 1_555
C23 C11 1_555 1_555
H15 C23 1_555 1_555
N7 Cu1_7 1_555 1_555
N16 C8 1_555 1_555
N19 C17 1_555 1_555
C20 C23 1_555 1_555
C20 N19 1_555 1_555
N7 N16 1_555 1_555
Cu1_8 Cl1_2 1_555 1_555
Cu2_2 Cl1_2 1_555 1_555
O1_2 Cu2_2 1_555 1_555
N11 Cu2_2 1_555 1_555
N21 Cu2_2 1_555 1_555
N11 N14 1_555 1_555
O1_2 H18_2 1_555 1_555
Cu1_9 Cl1_3 1_555 1_555
Cu5 Cl1_3 1_555 1_555
C1_2 C2_2 1_555 1_555
C2_2 C3_2 1_555 1_555
C3_2 H1_2 1_555 1_555
C4_2 C3_2 1_555 1_555
H2_2 C4_2 1_555 1_555
C5_2 H3_2 1_555 1_555
C6_2 C2_2 1_555 1_555
H4_2 C6_2 1_555 1_555
N1_2 Cu1_9 1_555 1_555
N2_2 Cu5 1_555 1_555
N3_2 C1_2 1_555 1_555
N4_2 C1_2 1_555 1_555
N24 C4_2 1_555 1_555
O1_3 Cu5 1_555 1_555
Cu4 Cl2_3 1_555 1_555
C7_2 C10_2 1_555 1_555
C8_2 C11_2 1_555 1_555
C9_2 C12_2 1_555 1_555
C10_2 C13_2 1_555 1_555
C11_2 C14_2 1_555 1_555
C12_2 C15_2 1_555 1_555
C13_2 H5_2 1_555 1_555
C14_2 H6_2 1_555 1_555
C15_2 H7_2 1_555 1_555
C16_2 C13_2 1_555 1_555
C17_2 C14_2 1_555 1_555
C18_2 C15_2 1_555 1_555
H8_2 C16_2 1_555 1_555
H9_2 C17_2 1_555 1_555
H10_2 C18_2 1_555 1_555
C19_2 H11_2 1_555 1_555
C20_2 H12_2 1_555 1_555
C21_2 H13_2 1_555 1_555
C22_2 C10_2 1_555 1_555
C23_2 C11_2 1_555 1_555
C24_2 C12_2 1_555 1_555
H14_2 C22_2 1_555 1_555
H15_2 C23_2 1_555 1_555
H16_2 C24_2 1_555 1_555
Cl2_3 Cu1_9 1_555 1_555
N6_2 Cu1_9 1_555 1_555
N7_2 Cu1_9 1_555 1_555
N8_2 Cu1_9 1_555 1_555
N9_2 Cu4 1_555 1_555
N10_2 Cu4 1_555 1_555
N11_2 Cu5 1_555 1_555
N12_2 C7_2 1_555 1_555
N13_2 C8_2 1_555 1_555
N14_2 C9_2 1_555 1_555
N15_2 C7_2 1_555 1_555
N16_2 C8_2 1_555 1_555
N17_2 C9_2 1_555 1_555
N22 C16_2 1_555 1_555
N21 C17_2 1_555 1_555
N23 C18_2 1_555 1_555
O2_3 Cu4 1_555 1_555
C5_2 C6_2 1_555 1_555
C5_2 N24 1_555 1_555
N1_2 N2_2 1_555 1_555
N1_2 N4_2 1_555 1_555
N2_2 N3_2 1_555 1_555
C19_2 C22_2 1_555 1_555
C19_2 N22 1_555 1_555
C20_2 C23_2 1_555 1_555
C20_2 N21 1_555 1_555
C21_2 C24_2 1_555 1_555
C21_2 N23 1_555 1_555
N6_2 N9_2 1_555 1_555
N6_2 N15_2 1_555 1_555
N7_2 N10_2 1_555 1_555
N7_2 N16_2 1_555 1_555
N8_2 N11_2 1_555 1_555
N8_2 N17_2 1_555 1_555
N9_2 N12_2 1_555 1_555
N10_2 N13_2 1_555 1_555
N11_2 N14_2 1_555 1_555

#END
