
###############################################################################
#
# This file contains modified crystal structure data generated from the
# MOF subset of the Cambridge Structural Database (CSD) v543 
# hosted by the Cambridge Crystallographic Data Centre (CCDC).
#
# This work is licensed under the Creative Commons
# Attribution-NonCommercial-ShareAlike 4.0 International License.
# To view a copy of this license, visit
# http://creativecommons.org/licenses/by-nc-sa/4.0/
# or send a letter to
# Creative Commons, PO Box 1866, Mountain View, CA 94042, USA.
#
# CIF created using the CSD Python API on 29 September 2022
# The structure has been converted into the P1 space group
# The structure has a 3D framework
# The original CSD entry JAWVIQ is in the tetragonal crystal system
# The framework has been calculated to contain at least 10.0% void space
# The void calculation uses a probe of radius 1.32A, grid spacing 0.4
#
###############################################################################

data_JAWVIQ
_chemical_formula_moiety         '(C212 H244 Cl20 Co4 N96 4-)n'
_symmetry_cell_setting           triclinic
_symmetry_space_group_name_H-M   'P 1'
_symmetry_Int_Tables_number      1
_space_group_name_Hall           'P 1'
loop_
_symmetry_equiv_pos_site_id
_symmetry_equiv_pos_as_xyz
1 x,y,z
_cell_length_a                   23.354(3)
_cell_length_b                   23.354(3)
_cell_length_c                   13.117(3)
_cell_angle_alpha                90
_cell_angle_beta                 90
_cell_angle_gamma                90
_cell_volume                     7154.13
loop_
_atom_site_label
_atom_site_type_symbol
_atom_site_fract_x
_atom_site_fract_y
_atom_site_fract_z
Co1 Co 0.26891(2) 0.51891(2) 0.375000
N1 N 0.17702(15) 0.53518(17) 0.2353(3)
N2 N 0.19222(15) 0.54388(16) 0.3317(3)
N3 N 0.04616(16) 0.5878(2) 0.3366(3)
C1 C 0.10235(18) 0.5684(2) 0.3172(4)
C2 C 0.14688(19) 0.5656(2) 0.3837(3)
C3 C 0.12147(18) 0.5489(2) 0.2240(4)
C4 C 0.1481(2) 0.5818(3) 0.4934(4)
H1 H 0.169118 0.553519 0.531076
H2 H 0.109603 0.583811 0.518960
H3 H 0.166227 0.618401 0.500864
C5 C 0.000000 0.5545(4) 0.3200(6)
H4 H 0.000001 0.516181 0.300851
C6 C 0.0292(2) 0.6413(3) 0.3666(4)
H5 H 0.052910 0.671824 0.383723
C7 C 0.0895(2) 0.5412(4) 0.1262(4)
H6 H 0.068998 0.575622 0.110371
H7 H 0.063021 0.509988 0.133062
H8 H 0.116132 0.532859 0.072368
Co2 Co 0.23109(2) 0.51891(2) 0.125000
N7 N 0.32298(15) 0.53518(17) 0.2647(3)
N8 N 0.28518(17) 0.57298(15) 0.4853(3)
N9 N 0.29388(16) 0.44222(15) 0.4183(3)
C5_2 C 1.000000 0.5545(4) 0.3200(6)
H4_2 H 1.000001 0.516181 0.300851
N4 N 0.82298(15) 0.53518(17) 0.2353(3)
N5 N 0.80778(15) 0.54388(16) 0.3317(3)
N6 N 0.95384(16) 0.5878(2) 0.3366(3)
C8 C 0.89765(18) 0.5684(2) 0.3172(4)
C9 C 0.85312(19) 0.5656(2) 0.3837(3)
C10 C 0.87853(18) 0.5489(2) 0.2240(4)
C11 C 0.8519(2) 0.5818(3) 0.4934(4)
H9 H 0.830882 0.553519 0.531076
H10 H 0.890397 0.583811 0.518960
H11 H 0.833773 0.618401 0.500864
C12 C 0.9708(2) 0.6413(3) 0.3666(4)
H12 H 0.947090 0.671824 0.383723
C13 C 0.9105(2) 0.5412(4) 0.1262(4)
H13 H 0.931002 0.575622 0.110371
H14 H 0.936979 0.509988 0.133062
H15 H 0.883868 0.532859 0.072368
Co3 Co 0.76891(2) 0.51891(2) 0.125000
Co4 Co 0.73109(2) 0.51891(2) 0.375000
Co1_2 Co 0.23109(2) 0.48109(2) 0.875000
N1_2 N 0.32298(15) 0.46482(17) 0.7353(3)
N2_2 N 0.30778(15) 0.45612(16) 0.8317(3)
N3_2 N 0.45384(16) 0.4122(2) 0.8366(3)
C1_2 C 0.39765(18) 0.4316(2) 0.8172(4)
C2_2 C 0.35312(19) 0.4344(2) 0.8837(3)
C3_2 C 0.37853(18) 0.4511(2) 0.7240(4)
C4_2 C 0.3519(2) 0.4182(3) 0.9934(4)
C5_3 C 0.500000 0.4455(4) 0.8200(6)
H4_3 H 0.499999 0.483819 0.800851
C6_2 C 0.4708(2) 0.3587(3) 0.8666(4)
H5_2 H 0.447090 0.328176 0.883723
C7_2 C 0.4105(2) 0.4588(4) 0.6262(4)
H6_2 H 0.431002 0.424378 0.610371
H7_2 H 0.436979 0.490012 0.633062
H8_2 H 0.383868 0.467141 0.572368
N4_2 N 0.67702(15) 0.46482(17) 0.7353(3)
N5_2 N 0.69222(15) 0.45612(16) 0.8317(3)
N6_2 N 0.54616(16) 0.4122(2) 0.8366(3)
C8_2 C 0.60235(18) 0.4316(2) 0.8172(4)
C9_2 C 0.64688(19) 0.4344(2) 0.8837(3)
C10_2 C 0.62147(18) 0.4511(2) 0.7240(4)
C11_2 C 0.6481(2) 0.4182(3) 0.9934(4)
C12_2 C 0.5292(2) 0.3587(3) 0.8666(4)
H12_2 H 0.552910 0.328176 0.883723
C13_2 C 0.5895(2) 0.4588(4) 0.6262(4)
H13_2 H 0.568998 0.424378 0.610371
H14_2 H 0.563021 0.490012 0.633062
H15_2 H 0.616132 0.467141 0.572368
Co2_2 Co 0.26891(2) 0.48109(2) 0.625000
Co3_2 Co 0.73109(2) 0.48109(2) 0.625000
Co4_2 Co 0.76891(2) 0.48109(2) 0.875000
N7_2 N 0.17702(15) 0.46482(17) 0.7647(3)
N8_2 N 0.21482(17) 0.42702(15) 0.9853(3)
N9_2 N 0.20612(16) 0.55778(15) 0.9183(3)
Co1_3 Co 0.73109(2) 0.01891(2) 0.625000
N7_3 N 0.71482(17) 0.07298(15) 0.5147(3)
N8_3 N 0.67702(15) 0.03518(17) 0.7353(3)
N9_3 N 0.80778(15) 0.04388(16) 0.6683(3)
N1_3 N 0.71482(17) 0.92702(15) 0.4853(3)
N2_3 N 0.70612(16) 0.94222(15) 0.5817(3)
N3_3 N 0.6622(2) 0.79616(16) 0.5866(3)
C1_3 C 0.6816(2) 0.85235(18) 0.5672(4)
C2_3 C 0.6844(2) 0.89688(19) 0.6337(3)
C3_3 C 0.7011(2) 0.87147(18) 0.4740(4)
C4_3 C 0.6682(3) 0.8981(2) 0.7434(4)
H1_2 H 0.696481 0.919118 0.781076
H2_2 H 0.666189 0.859603 0.768960
H3_2 H 0.631599 0.916227 0.750864
C5_4 C 0.6955(4) 0.750000 0.5700(6)
H4_4 H 0.733819 0.750001 0.550851
C6_3 C 0.6087(3) 0.7792(2) 0.6166(4)
H5_3 H 0.578176 0.802910 0.633723
C7_3 C 0.7088(4) 0.8395(2) 0.3762(4)
H6_3 H 0.674378 0.818998 0.360371
H7_3 H 0.740012 0.813021 0.383062
H8_3 H 0.717141 0.866132 0.322368
N4_3 N 0.71482(17) 0.57298(15) 0.4853(3)
N5_3 N 0.70612(16) 0.55778(15) 0.5817(3)
N6_3 N 0.6622(2) 0.70384(16) 0.5866(3)
C8_3 C 0.6816(2) 0.64765(18) 0.5672(4)
C9_3 C 0.6844(2) 0.60312(19) 0.6337(3)
C10_3 C 0.7011(2) 0.62853(18) 0.4740(4)
C11_3 C 0.6682(3) 0.6019(2) 0.7434(4)
H9_2 H 0.696481 0.580882 0.781076
H10_2 H 0.666189 0.640397 0.768960
H11_2 H 0.631599 0.583773 0.750864
C12_3 C 0.6087(3) 0.7208(2) 0.6166(4)
H12_3 H 0.578176 0.697090 0.633723
C13_3 C 0.7088(4) 0.6605(2) 0.3762(4)
H13_3 H 0.674378 0.681002 0.360371
H14_3 H 0.740012 0.686979 0.383062
H15_3 H 0.717141 0.633868 0.322368
Co2_3 Co 0.73109(2) 0.98109(2) 0.375000
N2_4 N 0.79388(16) 0.05778(15) 0.0817(3)
N3_4 N 0.8378(2) 0.20384(16) 0.0866(3)
C1_4 C 0.8184(2) 0.14765(18) 0.0672(4)
C2_4 C 0.8156(2) 0.10312(19) 0.1337(3)
C4_4 C 0.8318(3) 0.1019(2) 0.2434(4)
H1_3 H 0.803519 0.080882 0.281076
H2_3 H 0.833811 0.140397 0.268960
H3_3 H 0.868401 0.083773 0.250864
C5_5 C 0.8045(4) 0.250000 0.0700(6)
H4_5 H 0.766181 0.249999 0.050851
C6_4 C 0.8913(3) 0.2208(2) 0.1166(4)
H5_4 H 0.921824 0.197090 0.133723
N5_4 N 0.79388(16) 0.44222(15) 0.0817(3)
N6_4 N 0.8378(2) 0.29616(16) 0.0866(3)
C8_4 C 0.8184(2) 0.35235(18) 0.0672(4)
C9_4 C 0.8156(2) 0.39688(19) 0.1337(3)
C11_4 C 0.8318(3) 0.3981(2) 0.2434(4)
H9_3 H 0.803519 0.419118 0.281076
H10_3 H 0.833811 0.359603 0.268960
H11_3 H 0.868401 0.416227 0.250864
C12_4 C 0.8913(3) 0.2792(2) 0.1166(4)
H12_4 H 0.921824 0.302910 0.133723
N1_4 N 0.78518(17) 0.07298(15) 0.9853(3)
C3_4 C 0.7989(2) 0.12853(18) 0.9740(4)
C7_4 C 0.7912(4) 0.1605(2) 0.8762(4)
H6_4 H 0.825622 0.181002 0.860371
H7_4 H 0.759988 0.186979 0.883062
H8_4 H 0.782859 0.133868 0.822368
N4_4 N 0.78518(17) 0.42702(15) 0.9853(3)
C10_4 C 0.7989(2) 0.37147(18) 0.9740(4)
C13_4 C 0.7912(4) 0.3395(2) 0.8762(4)
H13_4 H 0.825622 0.318998 0.860371
H14_4 H 0.759988 0.313021 0.883062
H15_4 H 0.782859 0.366132 0.822368
Co2_4 Co 0.76891(2) 0.01891(2) 0.875000
Co1_4 Co 0.76891(2) 0.98109(2) 0.125000
N7_4 N 0.78518(17) 0.92702(15) 0.0147(3)
N8_4 N 0.82298(15) 0.96482(17) 0.2353(3)
N9_4 N 0.69222(15) 0.95612(16) 0.1683(3)
N2_5 N 0.30778(15) 0.54388(16) 0.1683(3)
N3_5 N 0.45384(16) 0.5878(2) 0.1634(3)
C1_5 C 0.39765(18) 0.5684(2) 0.1828(4)
C2_5 C 0.35312(19) 0.5656(2) 0.1163(3)
C3_5 C 0.37853(18) 0.5489(2) 0.2760(4)
C4_5 C 0.3519(2) 0.5818(3) 0.0066(4)
C5_6 C 0.500000 0.5545(4) 0.1800(6)
H4_6 H 0.499999 0.516181 0.199149
C6_5 C 0.4708(2) 0.6413(3) 0.1334(4)
H5_5 H 0.447090 0.671824 0.116277
C7_5 C 0.4105(2) 0.5412(4) 0.3738(4)
H6_5 H 0.431002 0.575622 0.389629
H7_5 H 0.436979 0.509988 0.366938
H8_5 H 0.383868 0.532859 0.427632
N4_5 N 0.67702(15) 0.53518(17) 0.2647(3)
N5_5 N 0.69222(15) 0.54388(16) 0.1683(3)
N6_5 N 0.54616(16) 0.5878(2) 0.1634(3)
C8_5 C 0.60235(18) 0.5684(2) 0.1828(4)
C9_5 C 0.64688(19) 0.5656(2) 0.1163(3)
C10_5 C 0.62147(18) 0.5489(2) 0.2760(4)
C11_5 C 0.6481(2) 0.5818(3) 0.0066(4)
C12_5 C 0.5292(2) 0.6413(3) 0.1334(4)
H12_5 H 0.552910 0.671824 0.116277
C13_5 C 0.5895(2) 0.5412(4) 0.3738(4)
H13_5 H 0.568998 0.575622 0.389629
H14_5 H 0.563021 0.509988 0.366938
H15_5 H 0.616132 0.532859 0.427632
N8_5 N 0.21482(17) 0.57298(15) 0.0147(3)
N9_5 N 0.20612(16) 0.44222(15) 0.0817(3)
N2_6 N 0.19222(15) 0.45612(16) 0.6683(3)
N3_6 N 0.04616(16) 0.4122(2) 0.6634(3)
C1_6 C 0.10235(18) 0.4316(2) 0.6828(4)
C2_6 C 0.14688(19) 0.4344(2) 0.6163(3)
C3_6 C 0.12147(18) 0.4511(2) 0.7760(4)
C4_6 C 0.1481(2) 0.4182(3) 0.5066(4)
H1_4 H 0.169118 0.446481 0.468924
H2_4 H 0.109603 0.416189 0.481040
H3_4 H 0.166227 0.381599 0.499136
C5_7 C 0.000000 0.4455(4) 0.6800(6)
H4_7 H 0.000001 0.483819 0.699149
C6_6 C 0.0292(2) 0.3587(3) 0.6334(4)
H5_6 H 0.052910 0.328176 0.616277
C7_6 C 0.0895(2) 0.4588(4) 0.8738(4)
H6_6 H 0.068998 0.424378 0.889629
H7_6 H 0.063021 0.490012 0.866938
H8_6 H 0.116132 0.467141 0.927632
N8_6 N 0.28518(17) 0.42702(15) 0.5147(3)
N9_6 N 0.29388(16) 0.55778(15) 0.5817(3)
C5_8 C 1.000000 0.4455(4) 0.6800(6)
H4_8 H 1.000001 0.483819 0.699149
N4_6 N 0.82298(15) 0.46482(17) 0.7647(3)
N5_6 N 0.80778(15) 0.45612(16) 0.6683(3)
N6_6 N 0.95384(16) 0.4122(2) 0.6634(3)
C8_6 C 0.89765(18) 0.4316(2) 0.6828(4)
C9_6 C 0.85312(19) 0.4344(2) 0.6163(3)
C10_6 C 0.87853(18) 0.4511(2) 0.7760(4)
C11_6 C 0.8519(2) 0.4182(3) 0.5066(4)
H9_4 H 0.830882 0.446481 0.468924
H10_4 H 0.890397 0.416189 0.481040
H11_4 H 0.833773 0.381599 0.499136
C12_6 C 0.9708(2) 0.3587(3) 0.6334(4)
H12_6 H 0.947090 0.328176 0.616277
C13_6 C 0.9105(2) 0.4588(4) 0.8738(4)
H13_6 H 0.931002 0.424378 0.889629
H14_6 H 0.936979 0.490012 0.866938
H15_6 H 0.883868 0.467141 0.927632
N8_7 N 0.82298(15) 0.03518(17) 0.7647(3)
N9_7 N 0.69222(15) 0.04388(16) 0.8317(3)
C3_7 C 0.7989(2) 0.87147(18) 0.0260(4)
C7_7 C 0.7912(4) 0.8395(2) 0.1238(4)
H6_7 H 0.825622 0.818998 0.139629
H7_7 H 0.759988 0.813021 0.116938
H8_7 H 0.782859 0.866132 0.177632
N4_7 N 0.78518(17) 0.57298(15) 0.0147(3)
C10_7 C 0.7989(2) 0.62853(18) 0.0260(4)
C13_7 C 0.7912(4) 0.6605(2) 0.1238(4)
H13_7 H 0.825622 0.681002 0.139629
H14_7 H 0.759988 0.686979 0.116938
H15_7 H 0.782859 0.633868 0.177632
N2_7 N 0.79388(16) 0.94222(15) 0.9183(3)
N3_7 N 0.8378(2) 0.79616(16) 0.9134(3)
C1_7 C 0.8184(2) 0.85235(18) 0.9328(4)
C2_7 C 0.8156(2) 0.89688(19) 0.8663(3)
C4_7 C 0.8318(3) 0.8981(2) 0.7566(4)
H1_5 H 0.803519 0.919118 0.718924
H2_5 H 0.833811 0.859603 0.731040
H3_5 H 0.868401 0.916227 0.749136
C5_9 C 0.8045(4) 0.750000 0.9300(6)
H4_9 H 0.766181 0.750001 0.949149
C6_7 C 0.8913(3) 0.7792(2) 0.8834(4)
H5_7 H 0.921824 0.802910 0.866277
N5_7 N 0.79388(16) 0.55778(15) 0.9183(3)
N6_7 N 0.8378(2) 0.70384(16) 0.9134(3)
C8_7 C 0.8184(2) 0.64765(18) 0.9328(4)
C9_7 C 0.8156(2) 0.60312(19) 0.8663(3)
C11_7 C 0.8318(3) 0.6019(2) 0.7566(4)
H9_5 H 0.803519 0.580882 0.718924
H10_5 H 0.833811 0.640397 0.731040
H11_5 H 0.868401 0.583773 0.749136
C12_7 C 0.8913(3) 0.7208(2) 0.8834(4)
H12_7 H 0.921824 0.697090 0.866277
N2_8 N 0.70612(16) 0.05778(15) 0.4183(3)
N3_8 N 0.6622(2) 0.20384(16) 0.4134(3)
C1_8 C 0.6816(2) 0.14765(18) 0.4328(4)
C2_8 C 0.6844(2) 0.10312(19) 0.3663(3)
C3_8 C 0.7011(2) 0.12853(18) 0.5260(4)
C4_8 C 0.6682(3) 0.1019(2) 0.2566(4)
H1_6 H 0.696481 0.080882 0.218924
H2_6 H 0.666189 0.140397 0.231040
H3_6 H 0.631599 0.083773 0.249136
C5_10 C 0.6955(4) 0.250000 0.4300(6)
H4_10 H 0.733819 0.249999 0.449149
C6_8 C 0.6087(3) 0.2208(2) 0.3834(4)
H5_8 H 0.578176 0.197090 0.366277
C7_8 C 0.7088(4) 0.1605(2) 0.6238(4)
H6_8 H 0.674378 0.181002 0.639629
H7_8 H 0.740012 0.186979 0.616938
H8_8 H 0.717141 0.133868 0.677632
N4_8 N 0.71482(17) 0.42702(15) 0.5147(3)
N5_8 N 0.70612(16) 0.44222(15) 0.4183(3)
N6_8 N 0.6622(2) 0.29616(16) 0.4134(3)
C8_8 C 0.6816(2) 0.35235(18) 0.4328(4)
C9_8 C 0.6844(2) 0.39688(19) 0.3663(3)
C10_8 C 0.7011(2) 0.37147(18) 0.5260(4)
C11_8 C 0.6682(3) 0.3981(2) 0.2566(4)
H9_6 H 0.696481 0.419118 0.218924
H10_6 H 0.666189 0.359603 0.231040
H11_6 H 0.631599 0.416227 0.249136
C12_8 C 0.6087(3) 0.2792(2) 0.3834(4)
H12_8 H 0.578176 0.302910 0.366277
C13_8 C 0.7088(4) 0.3395(2) 0.6238(4)
H13_8 H 0.674378 0.318998 0.639629
H14_8 H 0.740012 0.313021 0.616938
H15_8 H 0.717141 0.366132 0.677632
N8_8 N 0.67702(15) 0.96482(17) 0.2647(3)
N9_8 N 0.80778(15) 0.95612(16) 0.3317(3)
N3_9 N 0.54616(16) 0.0878(2) 0.8366(3)
C1_9 C 0.60235(18) 0.0684(2) 0.8172(4)
C2_9 C 0.64688(19) 0.0656(2) 0.8837(3)
C3_9 C 0.62147(18) 0.0489(2) 0.7240(4)
C4_9 C 0.6481(2) 0.0818(3) 0.9934(4)
C5_11 C 0.500000 0.0545(4) 0.8200(6)
H4_11 H 0.500001 0.016181 0.800851
C6_9 C 0.5292(2) 0.1413(3) 0.8666(4)
H5_9 H 0.552910 0.171824 0.883723
C7_9 C 0.5895(2) 0.0412(4) 0.6262(4)
H6_9 H 0.568998 0.075622 0.610371
H7_9 H 0.563021 0.009988 0.633062
H8_9 H 0.616132 0.032859 0.572368
N4_9 N 0.32298(15) 0.03518(17) 0.7353(3)
N5_9 N 0.30778(15) 0.04388(16) 0.8317(3)
N6_9 N 0.45384(16) 0.0878(2) 0.8366(3)
C8_9 C 0.39765(18) 0.0684(2) 0.8172(4)
C9_9 C 0.35312(19) 0.0656(2) 0.8837(3)
C10_9 C 0.37853(18) 0.0489(2) 0.7240(4)
C11_9 C 0.3519(2) 0.0818(3) 0.9934(4)
C12_9 C 0.4708(2) 0.1413(3) 0.8666(4)
H12_9 H 0.447090 0.171824 0.883723
C13_9 C 0.4105(2) 0.0412(4) 0.6262(4)
H13_9 H 0.431002 0.075622 0.610371
H14_9 H 0.436979 0.009988 0.633062
H15_9 H 0.383868 0.032859 0.572368
Co3_3 Co 0.26891(2) 0.01891(2) 0.625000
Co4_3 Co 0.23109(2) 0.01891(2) 0.875000
C5_12 C 0.000000 0.9455(4) 0.3200(6)
H4_12 H -0.000001 0.983819 0.300851
N4_10 N 0.17702(15) 0.96482(17) 0.2353(3)
N5_10 N 0.19222(15) 0.95612(16) 0.3317(3)
N6_10 N 0.04616(16) 0.9122(2) 0.3366(3)
C8_10 C 0.10235(18) 0.9316(2) 0.3172(4)
C9_10 C 0.14688(19) 0.9344(2) 0.3837(3)
C10_10 C 0.12147(18) 0.9511(2) 0.2240(4)
C11_10 C 0.1481(2) 0.9182(3) 0.4934(4)
H9_7 H 0.169118 0.946481 0.531076
H10_7 H 0.109603 0.916189 0.518960
H11_7 H 0.166227 0.881599 0.500864
C12_10 C 0.0292(2) 0.8587(3) 0.3666(4)
H12_10 H 0.052910 0.828176 0.383723
C13_10 C 0.0895(2) 0.9588(4) 0.1262(4)
H13_10 H 0.068998 0.924378 0.110371
H14_10 H 0.063021 0.990012 0.133062
H15_10 H 0.116132 0.967141 0.072368
Co3_4 Co 0.23109(2) 0.98109(2) 0.125000
Co4_4 Co 0.26891(2) 0.98109(2) 0.375000
N3_10 N 0.95384(16) 0.9122(2) 0.3366(3)
C1_10 C 0.89765(18) 0.9316(2) 0.3172(4)
C2_10 C 0.85312(19) 0.9344(2) 0.3837(3)
C3_10 C 0.87853(18) 0.9511(2) 0.2240(4)
C4_10 C 0.8519(2) 0.9182(3) 0.4934(4)
H1_7 H 0.830882 0.946481 0.531076
H2_7 H 0.890397 0.916189 0.518960
H3_7 H 0.833773 0.881599 0.500864
C5_13 C 1.000000 0.9455(4) 0.3200(6)
H4_13 H 0.999999 0.983819 0.300851
C6_10 C 0.9708(2) 0.8587(3) 0.3666(4)
H5_10 H 0.947090 0.828176 0.383723
C7_10 C 0.9105(2) 0.9588(4) 0.1262(4)
H6_10 H 0.931002 0.924378 0.110371
H7_10 H 0.936979 0.990012 0.133062
H8_10 H 0.883868 0.967141 0.072368
N3_11 N 0.1622(2) 0.29616(16) 0.0866(3)
C1_11 C 0.1816(2) 0.35235(18) 0.0672(4)
C2_11 C 0.1844(2) 0.39688(19) 0.1337(3)
C4_11 C 0.1682(3) 0.3981(2) 0.2434(4)
H1_8 H 0.196481 0.419118 0.281076
H2_8 H 0.166189 0.359603 0.268960
H3_8 H 0.131599 0.416227 0.250864
C5_14 C 0.1955(4) 0.250000 0.0700(6)
H4_14 H 0.233819 0.250001 0.050851
C6_11 C 0.1087(3) 0.2792(2) 0.1166(4)
H5_11 H 0.078176 0.302910 0.133723
N5_11 N 0.20612(16) 0.05778(15) 0.0817(3)
N6_11 N 0.1622(2) 0.20384(16) 0.0866(3)
C8_11 C 0.1816(2) 0.14765(18) 0.0672(4)
C9_11 C 0.1844(2) 0.10312(19) 0.1337(3)
C11_11 C 0.1682(3) 0.1019(2) 0.2434(4)
H9_8 H 0.196481 0.080882 0.281076
H10_8 H 0.166189 0.140397 0.268960
H11_8 H 0.131599 0.083773 0.250864
C12_11 C 0.1087(3) 0.2208(2) 0.1166(4)
H12_11 H 0.078176 0.197090 0.133723
C3_11 C 0.2011(2) 0.37147(18) 0.9740(4)
C7_11 C 0.2088(4) 0.3395(2) 0.8762(4)
H6_11 H 0.174378 0.318998 0.860371
H7_11 H 0.240012 0.313021 0.883062
H8_11 H 0.217141 0.366132 0.822368
N4_11 N 0.21482(17) 0.07298(15) 0.9853(3)
C10_11 C 0.2011(2) 0.12853(18) 0.9740(4)
C13_11 C 0.2088(4) 0.1605(2) 0.8762(4)
H13_11 H 0.174378 0.181002 0.860371
H14_11 H 0.240012 0.186979 0.883062
H15_11 H 0.217141 0.133868 0.822368
N3_12 N 0.3378(2) 0.70384(16) 0.5866(3)
C1_12 C 0.3184(2) 0.64765(18) 0.5672(4)
C2_12 C 0.3156(2) 0.60312(19) 0.6337(3)
C3_12 C 0.2989(2) 0.62853(18) 0.4740(4)
C4_12 C 0.3318(3) 0.6019(2) 0.7434(4)
H1_9 H 0.303519 0.580882 0.781076
H2_9 H 0.333811 0.640397 0.768960
H3_9 H 0.368401 0.583773 0.750864
C5_15 C 0.3045(4) 0.750000 0.5700(6)
H4_15 H 0.266181 0.749999 0.550851
C6_12 C 0.3913(3) 0.7208(2) 0.6166(4)
H5_12 H 0.421824 0.697090 0.633723
C7_12 C 0.2912(4) 0.6605(2) 0.3762(4)
H6_12 H 0.325622 0.681002 0.360371
H7_12 H 0.259988 0.686979 0.383062
H8_12 H 0.282859 0.633868 0.322368
N4_12 N 0.28518(17) 0.92702(15) 0.4853(3)
N5_12 N 0.29388(16) 0.94222(15) 0.5817(3)
N6_12 N 0.3378(2) 0.79616(16) 0.5866(3)
C8_12 C 0.3184(2) 0.85235(18) 0.5672(4)
C9_12 C 0.3156(2) 0.89688(19) 0.6337(3)
C10_12 C 0.2989(2) 0.87147(18) 0.4740(4)
C11_12 C 0.3318(3) 0.8981(2) 0.7434(4)
H9_9 H 0.303519 0.919118 0.781076
H10_9 H 0.333811 0.859603 0.768960
H11_9 H 0.368401 0.916227 0.750864
C12_12 C 0.3913(3) 0.7792(2) 0.6166(4)
H12_12 H 0.421824 0.802910 0.633723
C13_12 C 0.2912(4) 0.8395(2) 0.3762(4)
H13_12 H 0.325622 0.818998 0.360371
H14_12 H 0.259988 0.813021 0.383062
H15_12 H 0.282859 0.866132 0.322368
C5_16 C -0.000000 0.0545(4) 0.6800(6)
H4_16 H -0.000001 0.016181 0.699149
N4_13 N 0.17702(15) 0.03518(17) 0.7647(3)
N5_13 N 0.19222(15) 0.04388(16) 0.6683(3)
N6_13 N 0.04616(16) 0.0878(2) 0.6634(3)
C8_13 C 0.10235(18) 0.0684(2) 0.6828(4)
C9_13 C 0.14688(19) 0.0656(2) 0.6163(3)
C10_13 C 0.12147(18) 0.0489(2) 0.7760(4)
C11_13 C 0.1481(2) 0.0818(3) 0.5066(4)
H9_10 H 0.169118 0.053519 0.468924
H10_10 H 0.109603 0.083811 0.481040
H11_10 H 0.166227 0.118401 0.499136
C12_13 C 0.0292(2) 0.1413(3) 0.6334(4)
H12_13 H 0.052910 0.171824 0.616277
C13_13 C 0.0895(2) 0.0412(4) 0.8738(4)
H13_13 H 0.068998 0.075622 0.889629
H14_13 H 0.063021 0.009988 0.866938
H15_13 H 0.116132 0.032859 0.927632
N3_13 N 0.95384(16) 0.0878(2) 0.6634(3)
C1_13 C 0.89765(18) 0.0684(2) 0.6828(4)
C2_13 C 0.85312(19) 0.0656(2) 0.6163(3)
C3_13 C 0.87853(18) 0.0489(2) 0.7760(4)
C4_13 C 0.8519(2) 0.0818(3) 0.5066(4)
H1_10 H 0.830882 0.053519 0.468924
H2_10 H 0.890397 0.083811 0.481040
H3_10 H 0.833773 0.118401 0.499136
C5_17 C 1.000000 0.0545(4) 0.6800(6)
H4_17 H 0.999999 0.016181 0.699149
C6_13 C 0.9708(2) 0.1413(3) 0.6334(4)
H5_13 H 0.947090 0.171824 0.616277
C7_13 C 0.9105(2) 0.0412(4) 0.8738(4)
H6_13 H 0.931002 0.075622 0.889629
H7_13 H 0.936979 0.009988 0.866938
H8_13 H 0.883868 0.032859 0.927632
N3_14 N 0.54616(16) 0.9122(2) 0.1634(3)
C1_14 C 0.60235(18) 0.9316(2) 0.1828(4)
C2_14 C 0.64688(19) 0.9344(2) 0.1163(3)
C3_14 C 0.62147(18) 0.9511(2) 0.2760(4)
C4_14 C 0.6481(2) 0.9182(3) 0.0066(4)
C5_18 C 0.500000 0.9455(4) 0.1800(6)
H4_18 H 0.500001 0.983819 0.199149
C6_14 C 0.5292(2) 0.8587(3) 0.1334(4)
H5_14 H 0.552910 0.828176 0.116277
C7_14 C 0.5895(2) 0.9588(4) 0.3738(4)
H6_14 H 0.568998 0.924378 0.389629
H7_14 H 0.563021 0.990012 0.366938
H8_14 H 0.616132 0.967141 0.427632
N4_14 N 0.32298(15) 0.96482(17) 0.2647(3)
N5_14 N 0.30778(15) 0.95612(16) 0.1683(3)
N6_14 N 0.45384(16) 0.9122(2) 0.1634(3)
C8_14 C 0.39765(18) 0.9316(2) 0.1828(4)
C9_14 C 0.35312(19) 0.9344(2) 0.1163(3)
C10_14 C 0.37853(18) 0.9511(2) 0.2760(4)
C11_14 C 0.3519(2) 0.9182(3) 0.0066(4)
C12_14 C 0.4708(2) 0.8587(3) 0.1334(4)
H12_14 H 0.447090 0.828176 0.116277
C13_14 C 0.4105(2) 0.9588(4) 0.3738(4)
H13_14 H 0.431002 0.924378 0.389629
H14_14 H 0.436979 0.990012 0.366938
H15_14 H 0.383868 0.967141 0.427632
N3_15 N 0.3378(2) 0.29616(16) 0.4134(3)
C1_15 C 0.3184(2) 0.35235(18) 0.4328(4)
C2_15 C 0.3156(2) 0.39688(19) 0.3663(3)
C3_15 C 0.2989(2) 0.37147(18) 0.5260(4)
C4_15 C 0.3318(3) 0.3981(2) 0.2566(4)
H1_11 H 0.303519 0.419118 0.218924
H2_11 H 0.333811 0.359603 0.231040
H3_11 H 0.368401 0.416227 0.249136
C5_19 C 0.3045(4) 0.250000 0.4300(6)
H4_19 H 0.266181 0.250001 0.449149
C6_15 C 0.3913(3) 0.2792(2) 0.3834(4)
H5_15 H 0.421824 0.302910 0.366277
C7_15 C 0.2912(4) 0.3395(2) 0.6238(4)
H6_15 H 0.325622 0.318998 0.639629
H7_15 H 0.259988 0.313021 0.616938
H8_15 H 0.282859 0.366132 0.677632
N4_15 N 0.28518(17) 0.07298(15) 0.5147(3)
N5_15 N 0.29388(16) 0.05778(15) 0.4183(3)
N6_15 N 0.3378(2) 0.20384(16) 0.4134(3)
C8_15 C 0.3184(2) 0.14765(18) 0.4328(4)
C9_15 C 0.3156(2) 0.10312(19) 0.3663(3)
C10_15 C 0.2989(2) 0.12853(18) 0.5260(4)
C11_15 C 0.3318(3) 0.1019(2) 0.2566(4)
H9_11 H 0.303519 0.080882 0.218924
H10_11 H 0.333811 0.140397 0.231040
H11_11 H 0.368401 0.083773 0.249136
C12_15 C 0.3913(3) 0.2208(2) 0.3834(4)
H12_15 H 0.421824 0.197090 0.366277
C13_15 C 0.2912(4) 0.1605(2) 0.6238(4)
H13_15 H 0.325622 0.181002 0.639629
H14_15 H 0.259988 0.186979 0.616938
H15_15 H 0.282859 0.133868 0.677632
C3_16 C 0.2011(2) 0.62853(18) 0.0260(4)
C7_16 C 0.2088(4) 0.6605(2) 0.1238(4)
H6_16 H 0.174378 0.681002 0.139629
H7_16 H 0.240012 0.686979 0.116938
H8_16 H 0.217141 0.633868 0.177632
N4_16 N 0.21482(17) 0.92702(15) 0.0147(3)
C10_16 C 0.2011(2) 0.87147(18) 0.0260(4)
C13_16 C 0.2088(4) 0.8395(2) 0.1238(4)
H13_16 H 0.174378 0.818998 0.139629
H14_16 H 0.240012 0.813021 0.116938
H15_16 H 0.217141 0.866132 0.177632
N3_16 N 0.1622(2) 0.70384(16) 0.9134(3)
C1_16 C 0.1816(2) 0.64765(18) 0.9328(4)
C2_16 C 0.1844(2) 0.60312(19) 0.8663(3)
C4_16 C 0.1682(3) 0.6019(2) 0.7566(4)
H1_12 H 0.196481 0.580882 0.718924
H2_12 H 0.166189 0.640397 0.731040
H3_12 H 0.131599 0.583773 0.749136
C5_20 C 0.1955(4) 0.750000 0.9300(6)
H4_20 H 0.233819 0.749999 0.949149
C6_16 C 0.1087(3) 0.7208(2) 0.8834(4)
H5_16 H 0.078176 0.697090 0.866277
N5_16 N 0.20612(16) 0.94222(15) 0.9183(3)
N6_16 N 0.1622(2) 0.79616(16) 0.9134(3)
C8_16 C 0.1816(2) 0.85235(18) 0.9328(4)
C9_16 C 0.1844(2) 0.89688(19) 0.8663(3)
C11_16 C 0.1682(3) 0.8981(2) 0.7566(4)
H9_12 H 0.196481 0.919118 0.718924
H10_12 H 0.166189 0.859603 0.731040
H11_12 H 0.131599 0.916227 0.749136
C12_16 C 0.1087(3) 0.7792(2) 0.8834(4)
H12_16 H 0.078176 0.802910 0.866277
H1_13 H 0.330882 0.446481 0.031076
H2_13 H 0.390397 0.416189 0.018960
H3_13 H 0.333773 0.381599 0.000864
H9_13 H 0.669118 0.446481 0.031076
H10_13 H 0.609603 0.416189 0.018960
H11_13 H 0.666227 0.381599 0.000864
H1_14 H 0.330882 0.553519 0.968924
H2_14 H 0.390397 0.583811 0.981040
H3_14 H 0.333773 0.618401 0.999136
H9_14 H 0.669118 0.553519 0.968924
H10_14 H 0.609603 0.583811 0.981040
H11_14 H 0.666227 0.618401 0.999136
H1_15 H 0.669118 0.053519 0.031076
H2_15 H 0.609603 0.083811 0.018960
H3_15 H 0.666227 0.118401 0.000864
H9_15 H 0.330882 0.053519 0.031076
H10_15 H 0.390397 0.083811 0.018960
H11_15 H 0.333773 0.118401 0.000864
H1_16 H 0.669118 0.946481 0.968924
H2_16 H 0.609603 0.916189 0.981040
H3_16 H 0.666227 0.881599 0.999136
H9_16 H 0.330882 0.946481 0.968924
H10_16 H 0.390397 0.916189 0.981040
H11_16 H 0.333773 0.881599 0.999136
Cl1 Cl 0.1381(5) 0.750000 0.3849(10)
Cl1_2 Cl 0.3619(5) 0.250000 0.8849(10)
Cl1_3 Cl 0.500000 0.8881(5) 0.6349(10)
Cl1_4 Cl 0.000000 0.1119(5) 0.1349(10)
Cl1_5 Cl 1.000000 0.1119(5) 0.1349(10)
Cl1_6 Cl 0.3619(5) 0.750000 0.1151(10)
Cl1_7 Cl 0.1381(5) 0.250000 0.6151(10)
Cl1_8 Cl 0.000000 0.8881(5) 0.8651(10)
Cl1_9 Cl 1.000000 0.8881(5) 0.8651(10)
Cl1_10 Cl 0.500000 0.1119(5) 0.3651(10)
Cl1_11 Cl 0.6381(5) 0.250000 0.8849(10)
Cl1_12 Cl 0.8619(5) 0.750000 0.3849(10)
Cl1_13 Cl 0.000000 0.3881(5) 0.1349(10)
Cl1_14 Cl 1.000000 0.3881(5) 0.1349(10)
Cl1_15 Cl 0.500000 0.6119(5) 0.6349(10)
Cl1_16 Cl 0.8619(5) 0.250000 0.6151(10)
Cl1_17 Cl 0.6381(5) 0.750000 0.1151(10)
Cl1_18 Cl 0.500000 0.3881(5) 0.3651(10)
Cl1_19 Cl 0.000000 0.6119(5) 0.8651(10)
Cl1_20 Cl 1.000000 0.6119(5) 0.8651(10)
loop_
_geom_bond_atom_site_label_1
_geom_bond_atom_site_label_2
_geom_bond_site_symmetry_1
_geom_bond_site_symmetry_2
Co1 N2 1_555 1_555
N1 N2 1_555 1_555
N2 C2 1_555 1_555
N3 C1 1_555 1_555
C1 C2 1_555 1_555
C2 C4 1_555 1_555
C3 N1 1_555 1_555
C4 H1 1_555 1_555
H2 C4 1_555 1_555
H3 C4 1_555 1_555
C5 N3 1_555 1_555
H4 C5 1_555 1_555
C6 N3 1_555 1_555
H5 C6 1_555 1_555
C7 C3 1_555 1_555
H6 C7 1_555 1_555
H7 C7 1_555 1_555
H8 C7 1_555 1_555
Co2 N1 1_555 1_555
N7 Co1 1_555 1_555
N8 Co1 1_555 1_555
N9 Co1 1_555 1_555
C1 C3 1_555 1_555
H4_2 C5_2 1_555 1_555
N4 N5 1_555 1_555
N5 C9 1_555 1_555
N6 C5_2 1_555 1_555
C8 N6 1_555 1_555
C9 C8 1_555 1_555
C10 N4 1_555 1_555
C11 C9 1_555 1_555
H9 C11 1_555 1_555
H10 C11 1_555 1_555
H11 C11 1_555 1_555
H12 C12 1_555 1_555
C13 C10 1_555 1_555
H13 C13 1_555 1_555
H14 C13 1_555 1_555
H15 C13 1_555 1_555
Co3 N4 1_555 1_555
Co4 N5 1_555 1_555
N6 C12 1_555 1_555
C8 C10 1_555 1_555
Co1_2 N2_2 1_555 1_555
N1_2 N2_2 1_555 1_555
N2_2 C2_2 1_555 1_555
N3_2 C1_2 1_555 1_555
C1_2 C2_2 1_555 1_555
C2_2 C4_2 1_555 1_555
C3_2 N1_2 1_555 1_555
C5_3 N3_2 1_555 1_555
H4_3 C5_3 1_555 1_555
C6_2 N3_2 1_555 1_555
H5_2 C6_2 1_555 1_555
C7_2 C3_2 1_555 1_555
H6_2 C7_2 1_555 1_555
H7_2 C7_2 1_555 1_555
H8_2 C7_2 1_555 1_555
N4_2 N5_2 1_555 1_555
N5_2 C9_2 1_555 1_555
N6_2 C5_3 1_555 1_555
C8_2 N6_2 1_555 1_555
C9_2 C8_2 1_555 1_555
C10_2 N4_2 1_555 1_555
C11_2 C9_2 1_555 1_555
C12_2 C6_2 1_555 1_555
H12_2 C12_2 1_555 1_555
C13_2 C10_2 1_555 1_555
H13_2 C13_2 1_555 1_555
H14_2 C13_2 1_555 1_555
H15_2 C13_2 1_555 1_555
Co2_2 N1_2 1_555 1_555
Co3_2 N4_2 1_555 1_555
Co4_2 N5_2 1_555 1_555
N7_2 Co1_2 1_555 1_555
N8_2 Co1_2 1_555 1_555
N9_2 Co1_2 1_555 1_555
C1_2 C3_2 1_555 1_555
N6_2 C12_2 1_555 1_555
C8_2 C10_2 1_555 1_555
N7_3 Co1_3 1_555 1_555
N8_3 Co1_3 1_555 1_555
N9_3 Co1_3 1_555 1_555
N1_3 N2_3 1_555 1_555
N2_3 C2_3 1_555 1_555
N3_3 C1_3 1_555 1_555
C1_3 C2_3 1_555 1_555
C2_3 C4_3 1_555 1_555
C3_3 N1_3 1_555 1_555
C4_3 H1_2 1_555 1_555
H2_2 C4_3 1_555 1_555
H3_2 C4_3 1_555 1_555
C5_4 N3_3 1_555 1_555
H4_4 C5_4 1_555 1_555
C6_3 N3_3 1_555 1_555
H5_3 C6_3 1_555 1_555
C7_3 C3_3 1_555 1_555
H6_3 C7_3 1_555 1_555
H7_3 C7_3 1_555 1_555
H8_3 C7_3 1_555 1_555
N4_3 N5_3 1_555 1_555
N5_3 C9_3 1_555 1_555
N6_3 C5_4 1_555 1_555
C8_3 N6_3 1_555 1_555
C9_3 C8_3 1_555 1_555
C10_3 N4_3 1_555 1_555
C11_3 C9_3 1_555 1_555
H9_2 C11_3 1_555 1_555
H10_2 C11_3 1_555 1_555
H11_2 C11_3 1_555 1_555
C12_3 C6_3 1_555 1_555
H12_3 C12_3 1_555 1_555
C13_3 C10_3 1_555 1_555
H13_3 C13_3 1_555 1_555
H14_3 C13_3 1_555 1_555
H15_3 C13_3 1_555 1_555
Co2_3 N1_3 1_555 1_555
Co4 N4_3 1_555 1_555
Co3_2 N5_3 1_555 1_555
C1_3 C3_3 1_555 1_555
N6_3 C12_3 1_555 1_555
C8_3 C10_3 1_555 1_555
N2_4 C2_4 1_555 1_555
N3_4 C1_4 1_555 1_555
C1_4 C2_4 1_555 1_555
C2_4 C4_4 1_555 1_555
C4_4 H1_3 1_555 1_555
H2_3 C4_4 1_555 1_555
H3_3 C4_4 1_555 1_555
C5_5 N3_4 1_555 1_555
H4_5 C5_5 1_555 1_555
C6_4 N3_4 1_555 1_555
H5_4 C6_4 1_555 1_555
N5_4 C9_4 1_555 1_555
N6_4 C5_5 1_555 1_555
C8_4 N6_4 1_555 1_555
C9_4 C8_4 1_555 1_555
C11_4 C9_4 1_555 1_555
H9_3 C11_4 1_555 1_555
H10_3 C11_4 1_555 1_555
H11_3 C11_4 1_555 1_555
C12_4 C6_4 1_555 1_555
H12_4 C12_4 1_555 1_555
Co3 N5_4 1_555 1_555
N6_4 C12_4 1_555 1_555
C3_4 N1_4 1_555 1_555
C7_4 C3_4 1_555 1_555
H6_4 C7_4 1_555 1_555
H7_4 C7_4 1_555 1_555
H8_4 C7_4 1_555 1_555
C10_4 N4_4 1_555 1_555
C13_4 C10_4 1_555 1_555
H13_4 C13_4 1_555 1_555
H14_4 C13_4 1_555 1_555
H15_4 C13_4 1_555 1_555
Co2_4 N1_4 1_555 1_555
Co4_2 N4_4 1_555 1_555
N7_4 Co1_4 1_555 1_555
N8_4 Co1_4 1_555 1_555
N9_4 Co1_4 1_555 1_555
Co2 N2_5 1_555 1_555
N7 N2_5 1_555 1_555
N2_5 C2_5 1_555 1_555
N3_5 C1_5 1_555 1_555
C1_5 C2_5 1_555 1_555
C2_5 C4_5 1_555 1_555
C3_5 N7 1_555 1_555
C5_6 N3_5 1_555 1_555
H4_6 C5_6 1_555 1_555
C6_5 N3_5 1_555 1_555
H5_5 C6_5 1_555 1_555
C7_5 C3_5 1_555 1_555
H6_5 C7_5 1_555 1_555
H7_5 C7_5 1_555 1_555
H8_5 C7_5 1_555 1_555
N4_5 N5_5 1_555 1_555
N5_5 C9_5 1_555 1_555
N6_5 C5_6 1_555 1_555
C8_5 N6_5 1_555 1_555
C9_5 C8_5 1_555 1_555
C10_5 N4_5 1_555 1_555
C11_5 C9_5 1_555 1_555
C12_5 C6_5 1_555 1_555
H12_5 C12_5 1_555 1_555
C13_5 C10_5 1_555 1_555
H13_5 C13_5 1_555 1_555
H14_5 C13_5 1_555 1_555
H15_5 C13_5 1_555 1_555
Co4 N4_5 1_555 1_555
Co3 N5_5 1_555 1_555
N8_5 Co2 1_555 1_555
N9_5 Co2 1_555 1_555
C1_5 C3_5 1_555 1_555
N6_5 C12_5 1_555 1_555
C8_5 C10_5 1_555 1_555
Co2_2 N2_6 1_555 1_555
N7_2 N2_6 1_555 1_555
N2_6 C2_6 1_555 1_555
N3_6 C1_6 1_555 1_555
C1_6 C2_6 1_555 1_555
C2_6 C4_6 1_555 1_555
C3_6 N7_2 1_555 1_555
C4_6 H1_4 1_555 1_555
H2_4 C4_6 1_555 1_555
H3_4 C4_6 1_555 1_555
C5_7 N3_6 1_555 1_555
H4_7 C5_7 1_555 1_555
C6_6 N3_6 1_555 1_555
H5_6 C6_6 1_555 1_555
C7_6 C3_6 1_555 1_555
H6_6 C7_6 1_555 1_555
H7_6 C7_6 1_555 1_555
H8_6 C7_6 1_555 1_555
N8_6 Co2_2 1_555 1_555
N9_6 Co2_2 1_555 1_555
C1_6 C3_6 1_555 1_555
H4_8 C5_8 1_555 1_555
N4_6 N5_6 1_555 1_555
N5_6 C9_6 1_555 1_555
N6_6 C5_8 1_555 1_555
C8_6 N6_6 1_555 1_555
C9_6 C8_6 1_555 1_555
C10_6 N4_6 1_555 1_555
C11_6 C9_6 1_555 1_555
H9_4 C11_6 1_555 1_555
H10_4 C11_6 1_555 1_555
H11_4 C11_6 1_555 1_555
H12_6 C12_6 1_555 1_555
C13_6 C10_6 1_555 1_555
H13_6 C13_6 1_555 1_555
H14_6 C13_6 1_555 1_555
H15_6 C13_6 1_555 1_555
Co4_2 N4_6 1_555 1_555
Co3_2 N5_6 1_555 1_555
N6_6 C12_6 1_555 1_555
C8_6 C10_6 1_555 1_555
N8_7 Co2_4 1_555 1_555
N9_7 Co2_4 1_555 1_555
C3_7 N7_4 1_555 1_555
C7_7 C3_7 1_555 1_555
H6_7 C7_7 1_555 1_555
H7_7 C7_7 1_555 1_555
H8_7 C7_7 1_555 1_555
C10_7 N4_7 1_555 1_555
C13_7 C10_7 1_555 1_555
H13_7 C13_7 1_555 1_555
H14_7 C13_7 1_555 1_555
H15_7 C13_7 1_555 1_555
Co3 N4_7 1_555 1_555
N2_7 C2_7 1_555 1_555
N3_7 C1_7 1_555 1_555
C1_7 C2_7 1_555 1_555
C2_7 C4_7 1_555 1_555
C4_7 H1_5 1_555 1_555
H2_5 C4_7 1_555 1_555
H3_5 C4_7 1_555 1_555
C5_9 N3_7 1_555 1_555
H4_9 C5_9 1_555 1_555
C6_7 N3_7 1_555 1_555
H5_7 C6_7 1_555 1_555
N5_7 C9_7 1_555 1_555
N6_7 C5_9 1_555 1_555
C8_7 N6_7 1_555 1_555
C9_7 C8_7 1_555 1_555
C11_7 C9_7 1_555 1_555
H9_5 C11_7 1_555 1_555
H10_5 C11_7 1_555 1_555
H11_5 C11_7 1_555 1_555
C12_7 C6_7 1_555 1_555
H12_7 C12_7 1_555 1_555
Co4_2 N5_7 1_555 1_555
N6_7 C12_7 1_555 1_555
N7_3 N2_8 1_555 1_555
N2_8 C2_8 1_555 1_555
N3_8 C1_8 1_555 1_555
C1_8 C2_8 1_555 1_555
C2_8 C4_8 1_555 1_555
C3_8 N7_3 1_555 1_555
C4_8 H1_6 1_555 1_555
H2_6 C4_8 1_555 1_555
H3_6 C4_8 1_555 1_555
C5_10 N3_8 1_555 1_555
H4_10 C5_10 1_555 1_555
C6_8 N3_8 1_555 1_555
H5_8 C6_8 1_555 1_555
C7_8 C3_8 1_555 1_555
H6_8 C7_8 1_555 1_555
H7_8 C7_8 1_555 1_555
H8_8 C7_8 1_555 1_555
N4_8 N5_8 1_555 1_555
N5_8 C9_8 1_555 1_555
N6_8 C5_10 1_555 1_555
C8_8 N6_8 1_555 1_555
C9_8 C8_8 1_555 1_555
C10_8 N4_8 1_555 1_555
C11_8 C9_8 1_555 1_555
H9_6 C11_8 1_555 1_555
H10_6 C11_8 1_555 1_555
H11_6 C11_8 1_555 1_555
C12_8 C6_8 1_555 1_555
H12_8 C12_8 1_555 1_555
C13_8 C10_8 1_555 1_555
H13_8 C13_8 1_555 1_555
H14_8 C13_8 1_555 1_555
H15_8 C13_8 1_555 1_555
Co3_2 N4_8 1_555 1_555
Co4 N5_8 1_555 1_555
C1_8 C3_8 1_555 1_555
N6_8 C12_8 1_555 1_555
C8_8 C10_8 1_555 1_555
N8_8 Co2_3 1_555 1_555
N9_8 Co2_3 1_555 1_555
N8_3 N9_7 1_555 1_555
N9_7 C2_9 1_555 1_555
N3_9 C1_9 1_555 1_555
C1_9 C2_9 1_555 1_555
C2_9 C4_9 1_555 1_555
C3_9 N8_3 1_555 1_555
C5_11 N3_9 1_555 1_555
H4_11 C5_11 1_555 1_555
C6_9 N3_9 1_555 1_555
H5_9 C6_9 1_555 1_555
C7_9 C3_9 1_555 1_555
H6_9 C7_9 1_555 1_555
H7_9 C7_9 1_555 1_555
H8_9 C7_9 1_555 1_555
N4_9 N5_9 1_555 1_555
N5_9 C9_9 1_555 1_555
N6_9 C5_11 1_555 1_555
C8_9 N6_9 1_555 1_555
C9_9 C8_9 1_555 1_555
C10_9 N4_9 1_555 1_555
C11_9 C9_9 1_555 1_555
C12_9 C6_9 1_555 1_555
H12_9 C12_9 1_555 1_555
C13_9 C10_9 1_555 1_555
H13_9 C13_9 1_555 1_555
H14_9 C13_9 1_555 1_555
H15_9 C13_9 1_555 1_555
Co3_3 N4_9 1_555 1_555
Co4_3 N5_9 1_555 1_555
C1_9 C3_9 1_555 1_555
N6_9 C12_9 1_555 1_555
C8_9 C10_9 1_555 1_555
H4_12 C5_12 1_555 1_555
N4_10 N5_10 1_555 1_555
N5_10 C9_10 1_555 1_555
N6_10 C5_12 1_555 1_555
C8_10 N6_10 1_555 1_555
C9_10 C8_10 1_555 1_555
C10_10 N4_10 1_555 1_555
C11_10 C9_10 1_555 1_555
H9_7 C11_10 1_555 1_555
H10_7 C11_10 1_555 1_555
H11_7 C11_10 1_555 1_555
H12_10 C12_10 1_555 1_555
C13_10 C10_10 1_555 1_555
H13_10 C13_10 1_555 1_555
H14_10 C13_10 1_555 1_555
H15_10 C13_10 1_555 1_555
Co3_4 N4_10 1_555 1_555
Co4_4 N5_10 1_555 1_555
N6_10 C12_10 1_555 1_555
C8_10 C10_10 1_555 1_555
N8_4 N9_8 1_555 1_555
N9_8 C2_10 1_555 1_555
N3_10 C1_10 1_555 1_555
C1_10 C2_10 1_555 1_555
C2_10 C4_10 1_555 1_555
C3_10 N8_4 1_555 1_555
C4_10 H1_7 1_555 1_555
H2_7 C4_10 1_555 1_555
H3_7 C4_10 1_555 1_555
C5_13 N3_10 1_555 1_555
H4_13 C5_13 1_555 1_555
C6_10 N3_10 1_555 1_555
H5_10 C6_10 1_555 1_555
C7_10 C3_10 1_555 1_555
H6_10 C7_10 1_555 1_555
H7_10 C7_10 1_555 1_555
H8_10 C7_10 1_555 1_555
C1_10 C3_10 1_555 1_555
N9_5 C2_11 1_555 1_555
N3_11 C1_11 1_555 1_555
C1_11 C2_11 1_555 1_555
C2_11 C4_11 1_555 1_555
C4_11 H1_8 1_555 1_555
H2_8 C4_11 1_555 1_555
H3_8 C4_11 1_555 1_555
C5_14 N3_11 1_555 1_555
H4_14 C5_14 1_555 1_555
C6_11 N3_11 1_555 1_555
H5_11 C6_11 1_555 1_555
N5_11 C9_11 1_555 1_555
N6_11 C5_14 1_555 1_555
C8_11 N6_11 1_555 1_555
C9_11 C8_11 1_555 1_555
C11_11 C9_11 1_555 1_555
H9_8 C11_11 1_555 1_555
H10_8 C11_11 1_555 1_555
H11_8 C11_11 1_555 1_555
C12_11 C6_11 1_555 1_555
H12_11 C12_11 1_555 1_555
N6_11 C12_11 1_555 1_555
C3_11 N8_2 1_555 1_555
C7_11 C3_11 1_555 1_555
H6_11 C7_11 1_555 1_555
H7_11 C7_11 1_555 1_555
H8_11 C7_11 1_555 1_555
C10_11 N4_11 1_555 1_555
C13_11 C10_11 1_555 1_555
H13_11 C13_11 1_555 1_555
H14_11 C13_11 1_555 1_555
H15_11 C13_11 1_555 1_555
Co4_3 N4_11 1_555 1_555
N8 N9_6 1_555 1_555
N9_6 C2_12 1_555 1_555
N3_12 C1_12 1_555 1_555
C1_12 C2_12 1_555 1_555
C2_12 C4_12 1_555 1_555
C3_12 N8 1_555 1_555
C4_12 H1_9 1_555 1_555
H2_9 C4_12 1_555 1_555
H3_9 C4_12 1_555 1_555
C5_15 N3_12 1_555 1_555
H4_15 C5_15 1_555 1_555
C6_12 N3_12 1_555 1_555
H5_12 C6_12 1_555 1_555
C7_12 C3_12 1_555 1_555
H6_12 C7_12 1_555 1_555
H7_12 C7_12 1_555 1_555
H8_12 C7_12 1_555 1_555
N4_12 N5_12 1_555 1_555
N5_12 C9_12 1_555 1_555
N6_12 C5_15 1_555 1_555
C8_12 N6_12 1_555 1_555
C9_12 C8_12 1_555 1_555
C10_12 N4_12 1_555 1_555
C11_12 C9_12 1_555 1_555
H9_9 C11_12 1_555 1_555
H10_9 C11_12 1_555 1_555
H11_9 C11_12 1_555 1_555
C12_12 C6_12 1_555 1_555
H12_12 C12_12 1_555 1_555
C13_12 C10_12 1_555 1_555
H13_12 C13_12 1_555 1_555
H14_12 C13_12 1_555 1_555
H15_12 C13_12 1_555 1_555
Co4_4 N4_12 1_555 1_555
C1_12 C3_12 1_555 1_555
N6_12 C12_12 1_555 1_555
C8_12 C10_12 1_555 1_555
H4_16 C5_16 1_555 1_555
N4_13 N5_13 1_555 1_555
N5_13 C9_13 1_555 1_555
N6_13 C5_16 1_555 1_555
C8_13 N6_13 1_555 1_555
C9_13 C8_13 1_555 1_555
C10_13 N4_13 1_555 1_555
C11_13 C9_13 1_555 1_555
H9_10 C11_13 1_555 1_555
H10_10 C11_13 1_555 1_555
H11_10 C11_13 1_555 1_555
H12_13 C12_13 1_555 1_555
C13_13 C10_13 1_555 1_555
H13_13 C13_13 1_555 1_555
H14_13 C13_13 1_555 1_555
H15_13 C13_13 1_555 1_555
Co4_3 N4_13 1_555 1_555
Co3_3 N5_13 1_555 1_555
N6_13 C12_13 1_555 1_555
C8_13 C10_13 1_555 1_555
N8_7 N9_3 1_555 1_555
N9_3 C2_13 1_555 1_555
N3_13 C1_13 1_555 1_555
C1_13 C2_13 1_555 1_555
C2_13 C4_13 1_555 1_555
C3_13 N8_7 1_555 1_555
C4_13 H1_10 1_555 1_555
H2_10 C4_13 1_555 1_555
H3_10 C4_13 1_555 1_555
C5_17 N3_13 1_555 1_555
H4_17 C5_17 1_555 1_555
C6_13 N3_13 1_555 1_555
H5_13 C6_13 1_555 1_555
C7_13 C3_13 1_555 1_555
H6_13 C7_13 1_555 1_555
H7_13 C7_13 1_555 1_555
H8_13 C7_13 1_555 1_555
C1_13 C3_13 1_555 1_555
N8_8 N9_4 1_555 1_555
N9_4 C2_14 1_555 1_555
N3_14 C1_14 1_555 1_555
C1_14 C2_14 1_555 1_555
C2_14 C4_14 1_555 1_555
C3_14 N8_8 1_555 1_555
C5_18 N3_14 1_555 1_555
H4_18 C5_18 1_555 1_555
C6_14 N3_14 1_555 1_555
H5_14 C6_14 1_555 1_555
C7_14 C3_14 1_555 1_555
H6_14 C7_14 1_555 1_555
H7_14 C7_14 1_555 1_555
H8_14 C7_14 1_555 1_555
N4_14 N5_14 1_555 1_555
N5_14 C9_14 1_555 1_555
N6_14 C5_18 1_555 1_555
C8_14 N6_14 1_555 1_555
C9_14 C8_14 1_555 1_555
C10_14 N4_14 1_555 1_555
C11_14 C9_14 1_555 1_555
C12_14 C6_14 1_555 1_555
H12_14 C12_14 1_555 1_555
C13_14 C10_14 1_555 1_555
H13_14 C13_14 1_555 1_555
H14_14 C13_14 1_555 1_555
H15_14 C13_14 1_555 1_555
Co4_4 N4_14 1_555 1_555
Co3_4 N5_14 1_555 1_555
C1_14 C3_14 1_555 1_555
N6_14 C12_14 1_555 1_555
C8_14 C10_14 1_555 1_555
N8_6 N9 1_555 1_555
N9 C2_15 1_555 1_555
N3_15 C1_15 1_555 1_555
C1_15 C2_15 1_555 1_555
C2_15 C4_15 1_555 1_555
C3_15 N8_6 1_555 1_555
C4_15 H1_11 1_555 1_555
H2_11 C4_15 1_555 1_555
H3_11 C4_15 1_555 1_555
C5_19 N3_15 1_555 1_555
H4_19 C5_19 1_555 1_555
C6_15 N3_15 1_555 1_555
H5_15 C6_15 1_555 1_555
C7_15 C3_15 1_555 1_555
H6_15 C7_15 1_555 1_555
H7_15 C7_15 1_555 1_555
H8_15 C7_15 1_555 1_555
N4_15 N5_15 1_555 1_555
N5_15 C9_15 1_555 1_555
N6_15 C5_19 1_555 1_555
C8_15 N6_15 1_555 1_555
C9_15 C8_15 1_555 1_555
C10_15 N4_15 1_555 1_555
C11_15 C9_15 1_555 1_555
H9_11 C11_15 1_555 1_555
H10_11 C11_15 1_555 1_555
H11_11 C11_15 1_555 1_555
C12_15 C6_15 1_555 1_555
H12_15 C12_15 1_555 1_555
C13_15 C10_15 1_555 1_555
H13_15 C13_15 1_555 1_555
H14_15 C13_15 1_555 1_555
H15_15 C13_15 1_555 1_555
Co3_3 N4_15 1_555 1_555
C1_15 C3_15 1_555 1_555
N6_15 C12_15 1_555 1_555
C8_15 C10_15 1_555 1_555
C3_16 N8_5 1_555 1_555
C7_16 C3_16 1_555 1_555
H6_16 C7_16 1_555 1_555
H7_16 C7_16 1_555 1_555
H8_16 C7_16 1_555 1_555
C10_16 N4_16 1_555 1_555
C13_16 C10_16 1_555 1_555
H13_16 C13_16 1_555 1_555
H14_16 C13_16 1_555 1_555
H15_16 C13_16 1_555 1_555
Co3_4 N4_16 1_555 1_555
N9_2 C2_16 1_555 1_555
N3_16 C1_16 1_555 1_555
C1_16 C2_16 1_555 1_555
C2_16 C4_16 1_555 1_555
C4_16 H1_12 1_555 1_555
H2_12 C4_16 1_555 1_555
H3_12 C4_16 1_555 1_555
C5_20 N3_16 1_555 1_555
H4_20 C5_20 1_555 1_555
C6_16 N3_16 1_555 1_555
H5_16 C6_16 1_555 1_555
N5_16 C9_16 1_555 1_555
N6_16 C5_20 1_555 1_555
C8_16 N6_16 1_555 1_555
C9_16 C8_16 1_555 1_555
C11_16 C9_16 1_555 1_555
H9_12 C11_16 1_555 1_555
H10_12 C11_16 1_555 1_555
H11_12 C11_16 1_555 1_555
C12_16 C6_16 1_555 1_555
H12_16 C12_16 1_555 1_555
N6_16 C12_16 1_555 1_555

#END
