
###############################################################################
#
# This file contains modified crystal structure data generated from the
# MOF subset of the Cambridge Structural Database (CSD) v543 
# hosted by the Cambridge Crystallographic Data Centre (CCDC).
#
# This work is licensed under the Creative Commons
# Attribution-NonCommercial-ShareAlike 4.0 International License.
# To view a copy of this license, visit
# http://creativecommons.org/licenses/by-nc-sa/4.0/
# or send a letter to
# Creative Commons, PO Box 1866, Mountain View, CA 94042, USA.
#
# CIF created using the CSD Python API on 29 September 2022
# The structure has been converted into the P1 space group
# The structure has a 3D framework
# The original CSD entry JAYXAL is in the orthorhombic crystal system
# The original CSD entry JAYXAL is in a Sohncke space group
# The framework has been calculated to contain at least 10.0% void space
# The void calculation uses a probe of radius 1.32A, grid spacing 0.4
# The framework is charged, counterions have been retained in the structure
# H atom positions have been added when not included in the experimental data
#
###############################################################################

data_JAYXAL
_chemical_formula_moiety         '(C92 H44 O44 Zn8 4-)n'
_symmetry_cell_setting           triclinic
_symmetry_space_group_name_H-M   'P 1'
_symmetry_Int_Tables_number      1
_space_group_name_Hall           'P 1'
loop_
_symmetry_equiv_pos_site_id
_symmetry_equiv_pos_as_xyz
1 x,y,z
_cell_length_a                   9.0940(6)
_cell_length_b                   12.7134(5)
_cell_length_c                   33.9463(14)
_cell_angle_alpha                90
_cell_angle_beta                 90
_cell_angle_gamma                90
_cell_volume                     3924.72
loop_
_atom_site_label
_atom_site_type_symbol
_atom_site_fract_x
_atom_site_fract_y
_atom_site_fract_z
Zn2 Zn 0.23690(17) 0.23644(9) 0.40901(3)
O8 O 0.0386(12) 0.2857(10) 0.4134(3)
Zn5 Zn 0.09824(19) 0.31472(9) 0.32035(3)
O12 O 0.2793(11) 0.1223(5) 0.3726(2)
O13 O 0.3491(12) 0.3648(6) 0.3993(3)
O14 O 0.2736(11) 0.1945(6) 0.4626(2)
O6 O 0.1174(19) 0.1627(7) 0.3265(4)
H1 H 0.095765 0.019929 0.277927
C13 C 0.2007(15) 0.1004(8) 0.3431(3)
O3 O 0.7736(11) 0.3055(6) 0.5374(2)
O4 O 0.9323(14) 0.3425(9) 0.3579(2)
C1 C 0.3632(12) 0.7258(7) 0.3594(3)
O5 O 0.6010(16) 0.4280(9) 0.5458(3)
C2 C 0.1473(15) 0.8619(9) 0.2792(3)
O7 O 0.102(2) 0.7468(8) 0.2257(3)
O9 O 0.2394(19) 0.4164(6) 0.3443(3)
C3 C 0.1425(16) 0.9663(8) 0.2928(3)
C4 C 0.8027(15) 0.3515(8) 0.4587(3)
H2 H 0.871981 0.306404 0.471057
C5 C 0.3164(16) 0.6208(8) 0.3562(3)
H3 H 0.236906 0.604182 0.339098
C6 C 0.2868(13) 0.8097(7) 0.3362(3)
C7 C 0.8118(14) 0.3716(9) 0.4183(3)
C8 C 0.2196(15) 0.7869(7) 0.3002(3)
H4 H 0.224423 0.717292 0.290183
C9 C 0.3847(15) 0.5402(7) 0.3775(3)
C10 C 0.2822(15) 0.9136(8) 0.3497(3)
H5 H 0.330265 0.932873 0.373461
C11 C 0.7080(13) 0.4379(9) 0.4006(3)
H6 H 0.712579 0.449901 0.373026
C12 C 0.2069(14) 0.9879(8) 0.3280(3)
C14 C 0.5939(15) 0.4676(9) 0.4630(3)
H7 H 0.523191 0.502792 0.478815
C15 C 0.6912(15) 0.3981(9) 0.4806(3)
C16 C 0.3206(16) 0.4326(8) 0.3736(3)
C17 C 0.9368(16) 0.3279(10) 0.3947(3)
C18 C 0.5975(15) 0.4868(8) 0.4228(3)
C19 C 0.4997(13) 0.5647(8) 0.4026(3)
C20 C 0.4737(16) 0.7473(8) 0.3856(4)
H8 H 0.502154 0.818372 0.389757
C21 C 0.6860(16) 0.3778(10) 0.5243(4)
C22 C 0.0751(18) 0.8308(10) 0.2408(3)
C23 C 0.5447(17) 0.6688(9) 0.4062(4)
H9 H 0.625005 0.685915 0.422925
Zn8 Zn 0.73690(17) 0.26356(9) 0.59099(3)
O15 O 0.0677(14) 0.8425(9) 0.1421(2)
Zn1 Zn 0.90176(19) 0.81472(9) 0.17965(3)
O10 O 0.9844(17) 0.8913(10) 0.2257(3)
O11 O 0.719(2) 0.779(2) 0.2175(6)
O16 O 0.8826(19) 0.6627(7) 0.1735(4)
O17 O 0.7606(19) 0.9164(6) 0.1557(3)
H10 H 0.729813 0.81788 0.242704
H11 H 0.626018 0.800382 0.20442
Zn1_2 Zn 0.59824(19) 0.18528(9) 0.67965(3)
O2 O 0.1509(12) 0.6352(6) 0.8993(3)
C1_2 C 0.1368(12) 0.2742(7) 0.8594(3)
C2_2 C 0.3527(15) 0.1381(9) 0.7792(3)
O7_2 O 0.398(2) 0.2532(8) 0.7257(3)
O9_2 O 0.2606(19) 0.5836(6) 0.8443(3)
C3_2 C 0.3575(16) 0.0337(8) 0.7928(3)
C5_2 C 0.1836(16) 0.3792(8) 0.8562(3)
H3_2 H 0.263094 0.395818 0.839098
C6_2 C 0.2132(13) 0.1903(7) 0.8362(3)
C8_2 C 0.2804(15) 0.2131(7) 0.8002(3)
H4_2 H 0.275577 0.282708 0.790183
O10_2 O 0.5156(17) 0.1087(10) 0.7257(3)
C9_2 C 0.1153(15) 0.4598(7) 0.8775(3)
C10_2 C 0.2178(15) 0.0864(8) 0.8497(3)
H5_2 H 0.169735 0.067127 0.873461
C12_2 C 0.2931(14) 0.0121(8) 0.8280(3)
C16_2 C 0.1794(16) 0.5674(8) 0.8736(3)
C19_2 C 0.0003(13) 0.4353(8) 0.9026(3)
C20_2 C 0.0263(16) 0.2527(8) 0.8856(4)
C22_2 C 0.4249(18) 0.1692(10) 0.7408(3)
O11_2 O 0.781(2) 0.221(2) 0.7175(6)
Zn3 Zn 0.40176(19) 0.68528(9) 0.82035(3)
Zn6 Zn 0.26310(17) 0.76356(9) 0.90901(3)
O15_2 O 0.4323(14) 0.1575(9) 0.6421(2)
O16_2 O 0.6174(19) 0.3373(7) 0.6735(4)
O17_2 O 0.7394(19) 0.0836(6) 0.6557(3)
H10_2 H 0.770187 0.18212 0.742704
H11_2 H 0.873982 0.199618 0.70442
O1 O 0.2207(11) 0.8777(5) 0.8726(2)
O6_2 O 0.3826(19) 0.8373(7) 0.8265(4)
H1_2 H 0.404235 0.980071 0.777927
C13_2 C 0.2993(15) 0.8996(8) 0.8431(3)
O3_2 O 0.7264(11) 0.6945(6) 0.0374(2)
O5_2 O 0.8990(16) 0.5720(9) 0.0458(3)
C21_2 C 0.8140(16) 0.6222(10) 0.0243(4)
Zn8_2 Zn 0.76310(17) 0.73644(9) 0.09099(3)
O4_2 O 0.5677(14) 0.6575(9) 0.8579(2)
O8_2 O 0.4614(12) 0.7143(10) 0.9134(3)
C4_2 C 0.6973(15) 0.6485(8) 0.9587(3)
H2_2 H 0.628019 0.693596 0.971057
C7_2 C 0.6882(14) 0.6284(9) 0.9183(3)
C11_2 C 0.7920(13) 0.5621(9) 0.9006(3)
H6_2 H 0.787421 0.550099 0.873026
C14_2 C 0.9061(15) 0.5324(9) 0.9630(3)
H7_2 H 0.976809 0.497208 0.978815
C15_2 C 0.8088(15) 0.6019(9) 0.9806(3)
C17_2 C 0.5632(16) 0.6721(10) 0.8947(3)
C18_2 C 0.9025(15) 0.5132(8) 0.9228(3)
H8_2 H 0.997846 0.181628 0.889757
C23_2 C 0.9553(17) 0.3312(9) 0.9062(4)
H9_2 H 0.874995 0.314085 0.922925
O14_2 O 0.2264(11) 0.8055(6) 0.9626(2)
O5_3 O 0.1010(16) 0.0720(9) 0.4542(3)
O8_3 O 0.5386(12) 0.2143(10) 0.5866(3)
C4_3 C 0.3027(15) 0.1485(8) 0.5413(3)
H2_3 H 0.371981 0.193596 0.528943
C7_3 C 0.3118(14) 0.1284(9) 0.5817(3)
C11_3 C 0.2080(13) 0.0621(9) 0.5994(3)
H6_3 H 0.212579 0.050099 0.626974
C14_3 C 0.0939(15) 0.0324(9) 0.5370(3)
C15_3 C 0.1912(15) 0.1019(9) 0.5194(3)
C17_3 C 0.4368(16) 0.1721(10) 0.6053(3)
C18_3 C 0.0975(15) 0.0132(8) 0.5772(3)
C21_3 C 0.1860(16) 0.1222(10) 0.4757(4)
O12_2 O 0.7793(11) 0.3777(5) 0.6274(2)
O13_2 O 0.8491(12) 0.1352(6) 0.6007(3)
C16_3 C 0.8206(16) 0.0674(8) 0.6264(3)
C1_3 C 0.8632(12) 0.7742(7) 0.6406(3)
C2_3 C 0.6473(15) 0.6381(9) 0.7208(3)
O7_3 O 0.602(2) 0.7532(8) 0.7743(3)
C3_3 C 0.6425(16) 0.5337(8) 0.7072(3)
H1_3 H 0.595765 0.480071 0.722073
C5_3 C 0.8164(16) 0.8792(8) 0.6438(3)
H3_3 H 0.736906 0.895818 0.660902
C6_3 C 0.7868(13) 0.6903(7) 0.6638(3)
C8_3 C 0.7196(15) 0.7131(7) 0.6998(3)
H4_3 H 0.724423 0.782708 0.709817
O10_3 O 0.4844(17) 0.6087(10) 0.7743(3)
C9_3 C 0.8847(15) 0.9598(7) 0.6225(3)
C10_3 C 0.7822(15) 0.5864(8) 0.6503(3)
H5_3 H 0.830265 0.567127 0.626539
C12_3 C 0.7069(14) 0.5121(8) 0.6720(3)
C13_3 C 0.7007(15) 0.3996(8) 0.6569(3)
C19_3 C 0.9997(13) 0.9353(8) 0.5974(3)
C20_3 C 0.9737(16) 0.7527(8) 0.6144(4)
C22_3 C 0.5751(18) 0.6692(10) 0.7592(3)
O11_3 O 0.219(2) 0.721(2) 0.7825(6)
H10_3 H 0.229813 0.68212 0.757296
H11_3 H 0.126018 0.699618 0.79558
O10_4 O 0.0156(17) 0.3913(10) 0.2743(3)
O11_4 O 0.281(2) 0.279(2) 0.2825(6)
H10_4 H 0.270187 0.31788 0.257296
H11_4 H 0.373982 0.300382 0.29558
O1_2 O 0.7207(11) 0.6223(5) 0.1274(2)
C1_4 C 0.6368(12) 0.2258(7) 0.1406(3)
C2_4 C 0.8527(15) 0.3619(9) 0.2208(3)
O7_4 O 0.898(2) 0.2468(8) 0.2743(3)
C3_4 C 0.8575(16) 0.4663(8) 0.2072(3)
H1_4 H 0.904235 0.519929 0.222073
C5_4 C 0.6836(16) 0.1208(8) 0.1438(3)
H3_4 H 0.763094 0.104182 0.160902
C6_4 C 0.7132(13) 0.3097(7) 0.1638(3)
C8_4 C 0.7804(15) 0.2869(7) 0.1998(3)
H4_4 H 0.775577 0.217292 0.209817
C9_4 C 0.6153(15) 0.0402(7) 0.1225(3)
C10_4 C 0.7178(15) 0.4136(8) 0.1503(3)
H5_4 H 0.669735 0.432873 0.126539
C12_4 C 0.7931(14) 0.4879(8) 0.1720(3)
C13_4 C 0.7993(15) 0.6004(8) 0.1569(3)
H7_3 H 0.476809 0.002792 0.021185
C19_4 C 0.5003(13) 0.0647(8) 0.0974(3)
C20_4 C 0.5263(16) 0.2473(8) 0.1144(4)
H8_3 H 0.497846 0.318372 0.110243
C22_4 C 0.9249(18) 0.3308(10) 0.2592(3)
C23_3 C 0.4553(17) 0.1688(9) 0.0938(4)
H9_3 H 0.374995 0.185915 0.077075
O2_2 O 0.6509(12) 0.8648(6) 0.1007(3)
C4_4 C 0.1973(15) 0.8515(8) 0.0413(3)
H2_4 H 0.128019 0.806404 0.028943
C7_4 C 0.1882(14) 0.8716(9) 0.0817(3)
C11_4 C 0.2920(13) 0.9379(9) 0.0994(3)
H6_4 H 0.287421 0.949901 0.126974
C14_4 C 0.4061(15) 0.9676(9) 0.0370(3)
C15_4 C 0.3088(15) 0.8981(9) 0.0194(3)
C16_4 C 0.6794(16) 0.9326(8) 0.1264(3)
C17_4 C 0.0632(16) 0.8279(10) 0.1053(3)
C18_4 C 0.4025(15) 0.9868(8) 0.0772(3)
O5_4 O 0.3990(16) 0.9280(9) 0.9542(3)
C21_4 C 0.3140(16) 0.8778(10) 0.9757(4)
O8_4 O 0.9614(12) 0.7857(10) 0.0866(3)
H7_4 H 0.023191 0.997208 0.521185
H8_4 H 0.002154 0.681628 0.610243
C23_4 C 0.0447(17) 0.8312(9) 0.5938(4)
H9_4 H 0.125005 0.814085 0.577075
loop_
_geom_bond_atom_site_label_1
_geom_bond_atom_site_label_2
_geom_bond_site_symmetry_1
_geom_bond_site_symmetry_2
Zn2 O8 1_555 1_555
O12 Zn2 1_555 1_555
O13 Zn2 1_555 1_555
O14 Zn2 1_555 1_555
O12 C13 1_555 1_555
O6 C13 1_555 1_555
Zn5 O6 1_555 1_555
O13 C16 1_555 1_555
O3 C21 1_555 1_555
O4 C17 1_555 1_555
C1 C5 1_555 1_555
O5 C21 1_555 1_555
C2 C3 1_555 1_555
O7 C22 1_555 1_555
O9 C16 1_555 1_555
C4 H2 1_555 1_555
C5 H3 1_555 1_555
C6 C1 1_555 1_555
C7 C4 1_555 1_555
C8 C2 1_555 1_555
H4 C8 1_555 1_555
C9 C5 1_555 1_555
C10 C6 1_555 1_555
H5 C10 1_555 1_555
C11 C7 1_555 1_555
H6 C11 1_555 1_555
C12 C3 1_555 1_555
C14 H7 1_555 1_555
C15 C4 1_555 1_555
C16 C9 1_555 1_555
C17 C7 1_555 1_555
C18 C11 1_555 1_555
C19 C9 1_555 1_555
C20 C1 1_555 1_555
H8 C20 1_555 1_555
C21 C15 1_555 1_555
C22 C2 1_555 1_555
C23 C19 1_555 1_555
H9 C23 1_555 1_555
Zn5 O9 1_555 1_555
Zn8 O3 1_555 1_555
C6 C8 1_555 1_555
C10 C12 1_555 1_555
C14 C15 1_555 1_555
C14 C18 1_555 1_555
C18 C19 1_555 1_555
C20 C23 1_555 1_555
O10 Zn1 1_555 1_555
O11 Zn1 1_555 1_555
O16 Zn1 1_555 1_555
O17 Zn1 1_555 1_555
O11 H10 1_555 1_555
O11 H11 1_555 1_555
Zn1_2 O7_2 1_555 1_555
O2 C16_2 1_555 1_555
C1_2 C5_2 1_555 1_555
C2_2 C3_2 1_555 1_555
O7_2 C22_2 1_555 1_555
O9_2 C16_2 1_555 1_555
C5_2 H3_2 1_555 1_555
C6_2 C1_2 1_555 1_555
C8_2 C2_2 1_555 1_555
H4_2 C8_2 1_555 1_555
O10_2 Zn1_2 1_555 1_555
C9_2 C5_2 1_555 1_555
C10_2 C6_2 1_555 1_555
H5_2 C10_2 1_555 1_555
C12_2 C3_2 1_555 1_555
C16_2 C9_2 1_555 1_555
C19_2 C9_2 1_555 1_555
C20_2 C1_2 1_555 1_555
C22_2 C2_2 1_555 1_555
O11_2 Zn1_2 1_555 1_555
Zn3 O9_2 1_555 1_555
Zn6 O2 1_555 1_555
O15_2 Zn1_2 1_555 1_555
O16_2 Zn1_2 1_555 1_555
O17_2 Zn1_2 1_555 1_555
C6_2 C8_2 1_555 1_555
O10_2 C22_2 1_555 1_555
C10_2 C12_2 1_555 1_555
O11_2 H10_2 1_555 1_555
O11_2 H11_2 1_555 1_555
O1 C13_2 1_555 1_555
O6_2 C13_2 1_555 1_555
Zn3 O6_2 1_555 1_555
Zn6 O1 1_555 1_555
O3_2 C21_2 1_555 1_555
O5_2 C21_2 1_555 1_555
Zn8_2 O3_2 1_555 1_555
Zn6 O8_2 1_555 1_555
O4_2 C17_2 1_555 1_555
O8_2 C17_2 1_555 1_555
C4_2 H2_2 1_555 1_555
C7_2 C4_2 1_555 1_555
C11_2 C7_2 1_555 1_555
H6_2 C11_2 1_555 1_555
C14_2 H7_2 1_555 1_555
C15_2 C4_2 1_555 1_555
C17_2 C7_2 1_555 1_555
C18_2 C11_2 1_555 1_555
H9_2 C23_2 1_555 1_555
Zn3 O4_2 1_555 1_555
O14_2 Zn6 1_555 1_555
C14_2 C15_2 1_555 1_555
C14_2 C18_2 1_555 1_555
Zn8 O8_3 1_555 1_555
O14 C21_3 1_555 1_555
O15_2 C17_3 1_555 1_555
O5_3 C21_3 1_555 1_555
O8_3 C17_3 1_555 1_555
C4_3 H2_3 1_555 1_555
C7_3 C4_3 1_555 1_555
C11_3 C7_3 1_555 1_555
H6_3 C11_3 1_555 1_555
C15_3 C4_3 1_555 1_555
C17_3 C7_3 1_555 1_555
C18_3 C11_3 1_555 1_555
C21_3 C15_3 1_555 1_555
O12_2 Zn8 1_555 1_555
O13_2 Zn8 1_555 1_555
C14_3 C15_3 1_555 1_555
C14_3 C18_3 1_555 1_555
O13_2 C16_3 1_555 1_555
O17_2 C16_3 1_555 1_555
Zn3 O7_3 1_555 1_555
O12_2 C13_3 1_555 1_555
C1_3 C5_3 1_555 1_555
C2_3 C3_3 1_555 1_555
O16_2 C13_3 1_555 1_555
O7_3 C22_3 1_555 1_555
C3_3 H1_3 1_555 1_555
C5_3 H3_3 1_555 1_555
C6_3 C1_3 1_555 1_555
C8_3 C2_3 1_555 1_555
H4_3 C8_3 1_555 1_555
O10_3 Zn3 1_555 1_555
C9_3 C5_3 1_555 1_555
C10_3 C6_3 1_555 1_555
H5_3 C10_3 1_555 1_555
C12_3 C3_3 1_555 1_555
C13_3 C12_3 1_555 1_555
C19_3 C9_3 1_555 1_555
C20_3 C1_3 1_555 1_555
C22_3 C2_3 1_555 1_555
O11_3 Zn3 1_555 1_555
C6_3 C8_3 1_555 1_555
O10_3 C22_3 1_555 1_555
C10_3 C12_3 1_555 1_555
O11_3 H10_3 1_555 1_555
O11_3 H11_3 1_555 1_555
O10_4 Zn5 1_555 1_555
O11_4 Zn5 1_555 1_555
O11_4 H10_4 1_555 1_555
O11_4 H11_4 1_555 1_555
O1_2 C13_4 1_555 1_555
C1_4 C5_4 1_555 1_555
C2_4 C3_4 1_555 1_555
O16 C13_4 1_555 1_555
O7_4 C22_4 1_555 1_555
C3_4 H1_4 1_555 1_555
C5_4 H3_4 1_555 1_555
C6_4 C1_4 1_555 1_555
C8_4 C2_4 1_555 1_555
H4_4 C8_4 1_555 1_555
C9_4 C5_4 1_555 1_555
C10_4 C6_4 1_555 1_555
H5_4 C10_4 1_555 1_555
C12_4 C3_4 1_555 1_555
C13_4 C12_4 1_555 1_555
C19_4 C9_4 1_555 1_555
C20_4 C1_4 1_555 1_555
H8_3 C20_4 1_555 1_555
C22_4 C2_4 1_555 1_555
C23_3 C19_4 1_555 1_555
H9_3 C23_3 1_555 1_555
Zn8_2 O1_2 1_555 1_555
C6_4 C8_4 1_555 1_555
C10_4 C12_4 1_555 1_555
C20_4 C23_3 1_555 1_555
O2_2 C16_4 1_555 1_555
O15 C17_4 1_555 1_555
O17 C16_4 1_555 1_555
C4_4 H2_4 1_555 1_555
C7_4 C4_4 1_555 1_555
C11_4 C7_4 1_555 1_555
H6_4 C11_4 1_555 1_555
C15_4 C4_4 1_555 1_555
C17_4 C7_4 1_555 1_555
C18_4 C11_4 1_555 1_555
Zn8_2 O2_2 1_555 1_555
C14_4 C15_4 1_555 1_555
C14_4 C18_4 1_555 1_555
O14_2 C21_4 1_555 1_555
O5_4 C21_4 1_555 1_555
Zn8_2 O8_4 1_555 1_555
H9_4 C23_4 1_555 1_555

#END
