
###############################################################################
#
# This file contains modified crystal structure data generated from the
# MOF subset of the Cambridge Structural Database (CSD) v543 
# hosted by the Cambridge Crystallographic Data Centre (CCDC).
#
# This work is licensed under the Creative Commons
# Attribution-NonCommercial-ShareAlike 4.0 International License.
# To view a copy of this license, visit
# http://creativecommons.org/licenses/by-nc-sa/4.0/
# or send a letter to
# Creative Commons, PO Box 1866, Mountain View, CA 94042, USA.
#
# CIF created using the CSD Python API on 29 September 2022
# The structure has been converted into the P1 space group
# The structure has a 3D framework
# The original CSD entry JAZFOJ is in the monoclinic crystal system
# The framework has been calculated to contain at least 10.0% void space
# The void calculation uses a probe of radius 1.32A, grid spacing 0.4
#
###############################################################################

data_JAZFOJ
_chemical_formula_moiety         '(C288 H192 Cl48 N96 Zn24)n'
_symmetry_cell_setting           triclinic
_symmetry_space_group_name_H-M   'P 1'
_symmetry_Int_Tables_number      1
_space_group_name_Hall           'P 1'
loop_
_symmetry_equiv_pos_site_id
_symmetry_equiv_pos_as_xyz
1 x,y,z
_cell_length_a                   33.3060(13)
_cell_length_b                   14.4880(4)
_cell_length_c                   31.8026(11)
_cell_angle_alpha                90
_cell_angle_beta                 102.247(4)
_cell_angle_gamma                90
_cell_volume                     14996.7
loop_
_atom_site_label
_atom_site_type_symbol
_atom_site_fract_x
_atom_site_fract_y
_atom_site_fract_z
N1 N 0.06653(11) 0.0395(2) 0.55187(12)
C35 C 0.03950(14) 0.0508(3) 0.57740(15)
H23 H 0.041641 0.104369 0.594999
Zn4 Zn 0.11664(2) 0.12577(4) 0.55785(2)
Cl1 Cl 0.13738(4) 0.11383(8) 0.49653(4)
Cl2 Cl 0.10302(4) 0.25466(8) 0.58960(4)
N2 N 0.15920(11) 0.0569(2) 0.60344(12)
C2 C 0.18628(15) 0.1047(3) 0.63264(18)
C4 C 0.21757(16) 0.0632(3) 0.66210(18)
H2 H 0.183837 0.169999 0.633103
H4 H 0.236434 0.099059 0.682186
C11 C 0.32866(13) 0.0664(3) 0.79229(13)
H5 H 0.311291 0.101733 0.770622
C15 C 0.35322(14) 0.1093(3) 0.82709(13)
N6 N 0.37846(10) 0.0625(2) 0.85870(11)
H9 H 0.352348 0.174736 0.828916
Zn2 Zn 0.41821(2) 0.13324(4) 0.90607(2)
Cl3 Cl 0.38188(5) 0.24266(8) 0.92905(4)
Cl4 Cl 0.47627(4) 0.15633(9) 0.88476(4)
N14 N 0.42973(13) 0.0311(2) 0.95235(11)
C34 C 0.4031(2) 0.0143(4) 0.97689(16)
H22 H 0.380986 0.056296 0.976002
C28 C 0.00612(13) 0.9095(3) 0.55363(13)
C31 C 0.00908(14) 0.9886(3) 0.57911(15)
C32 C 0.03351(14) 0.8981(3) 0.52697(14)
C36 C 0.06326(14) 0.9645(3) 0.52663(14)
H20 H 0.031925 0.845213 0.509042
H24 H 0.081887 0.956786 0.508040
Zn1 Zn 0.61664(2) 0.62577(4) 0.55785(2)
Cl1_2 Cl 0.63738(4) 0.61383(8) 0.49653(4)
Cl2_2 Cl 0.60302(4) 0.75466(8) 0.58960(4)
N2_2 N 0.65920(11) 0.5569(2) 0.60344(12)
C1 C 0.66287(13) 0.4649(3) 0.60311(15)
C2_2 C 0.68628(15) 0.6047(3) 0.63264(18)
C3 C 0.69284(13) 0.4182(3) 0.63143(13)
H1 H 0.643952 0.430552 0.582408
C4_2 C 0.71757(16) 0.5632(3) 0.66210(18)
H2_2 H 0.683837 0.669999 0.633103
C5 C 0.72071(14) 0.4668(3) 0.66153(15)
H3 H 0.694344 0.352771 0.630281
H4_2 H 0.736434 0.599059 0.682186
C6 C 0.75349(13) 0.4198(3) 0.69280(14)
N3 N 0.77575(11) 0.4686(2) 0.72505(12)
N4 N 0.75783(11) 0.3287(2) 0.68698(12)
C7 C 0.80442(13) 0.4214(3) 0.75222(14)
C8 C 0.78677(13) 0.2884(3) 0.71619(13)
N5 N 0.81156(11) 0.3307(2) 0.74917(12)
C9 C 0.82959(13) 0.4703(3) 0.78924(13)
C10 C 0.79065(13) 0.1865(3) 0.71383(13)
C11_2 C 0.82866(13) 0.5664(3) 0.79229(13)
C12 C 0.85503(14) 0.4220(3) 0.82246(15)
C13 C 0.81734(18) 0.1384(3) 0.74516(16)
C14 C 0.76640(14) 0.1367(3) 0.68077(15)
H5_2 H 0.811291 0.601733 0.770622
C15_2 C 0.85322(14) 0.6093(3) 0.82709(13)
C16 C 0.87871(14) 0.4693(3) 0.85600(14)
H6 H 0.855927 0.356483 0.821805
C17 C 0.81918(18) 0.0439(3) 0.74263(17)
H7 H 0.834365 0.170300 0.768373
C18 C 0.77025(14) 0.0414(3) 0.68011(16)
H8 H 0.747322 0.167454 0.658794
N6_2 N 0.87846(10) 0.5625(2) 0.85870(11)
H9_2 H 0.852348 0.674736 0.828916
H10 H 0.896014 0.435321 0.878272
H11 H 0.837494 0.011526 0.764669
H12 H 0.753739 0.007696 0.657190
Zn2_2 Zn 0.91821(2) 0.63324(4) 0.90607(2)
Cl3_2 Cl 0.88188(5) 0.74266(8) 0.92905(4)
Cl4_2 Cl 0.97627(4) 0.65633(9) 0.88476(4)
N13 N 0.56653(11) 0.5395(2) 0.55187(12)
N14_2 N 0.92973(13) 0.5311(2) 0.95235(11)
C1_2 C 0.16287(13) 0.9649(3) 0.60311(15)
C3_2 C 0.19284(13) 0.9182(3) 0.63143(13)
H1_2 H 0.143952 0.930552 0.582408
C5_2 C 0.22071(14) 0.9668(3) 0.66153(15)
H3_2 H 0.194344 0.852771 0.630281
C6_2 C 0.25349(13) 0.9198(3) 0.69280(14)
N3_2 N 0.27575(11) 0.9686(2) 0.72505(12)
N4_2 N 0.25783(11) 0.8287(2) 0.68698(12)
C7_2 C 0.30442(13) 0.9214(3) 0.75222(14)
C8_2 C 0.28677(13) 0.7884(3) 0.71619(13)
N5_2 N 0.31156(11) 0.8307(2) 0.74917(12)
C9_2 C 0.32959(13) 0.9703(3) 0.78924(13)
C10_2 C 0.29065(13) 0.6865(3) 0.71383(13)
C12_2 C 0.35503(14) 0.9220(3) 0.82246(15)
C13_2 C 0.31734(18) 0.6384(3) 0.74516(16)
C14_2 C 0.26640(14) 0.6367(3) 0.68077(15)
C16_2 C 0.37871(14) 0.9693(3) 0.85600(14)
H6_2 H 0.355927 0.856483 0.821805
C17_2 C 0.31918(18) 0.5439(3) 0.74263(17)
H7_2 H 0.334365 0.670300 0.768373
C18_2 C 0.27025(14) 0.5414(3) 0.68011(16)
H8_2 H 0.247322 0.667454 0.658794
H10_2 H 0.396014 0.935321 0.878272
N7 N 0.29632(12) 0.4957(2) 0.71052(12)
H11_2 H 0.337494 0.511526 0.764669
H12_2 H 0.253739 0.507696 0.657190
Zn3 Zn 0.30107(4) 0.35466(8) 0.70934(6)
N9 N 0.34029(12) 0.3319(2) 0.66815(12)
Cl5 Cl 0.33339(8) 0.31738(12) 0.77509(7)
Cl6 Cl 0.24113(6) 0.29845(12) 0.67624(9)
C19 C 0.3784(2) 0.3623(5) 0.6785(2)
C20 C 0.32938(16) 0.2863(4) 0.63201(19)
C21 C 0.40625(19) 0.3504(5) 0.65233(19)
H13 H 0.387136 0.393759 0.705047
C22 C 0.35549(16) 0.2688(4) 0.60457(18)
H14 H 0.301970 0.264031 0.624231
C23 C 0.39495(14) 0.3013(3) 0.61505(14)
H15 H 0.433014 0.376230 0.660211
H16 H 0.346238 0.234662 0.578824
C24 C 0.42293(13) 0.2868(3) 0.58573(14)
N10 N 0.41736(11) 0.2121(2) 0.56091(11)
N11 N 0.45219(11) 0.3509(2) 0.58593(11)
C25 C 0.44227(13) 0.2058(3) 0.53312(13)
C26 C 0.47433(13) 0.3388(3) 0.55613(13)
C27 C 0.43834(15) 0.1231(3) 0.50544(13)
N12 N 0.47035(11) 0.2688(2) 0.52794(11)
C28_2 C 0.50612(13) 0.4095(3) 0.55363(13)
C29 C 0.46616(14) 0.1043(3) 0.47998(14)
C30 C 0.4058(2) 0.0615(3) 0.50374(17)
C31_2 C 0.50908(14) 0.4886(3) 0.57911(15)
C32_2 C 0.53351(14) 0.3981(3) 0.52697(14)
C33 C 0.46122(15) 0.0271(3) 0.45407(15)
H17 H 0.488730 0.144550 0.480324
H18 H 0.385968 0.071405 0.520743
C35_2 C 0.53950(14) 0.5508(3) 0.57740(15)
H19 H 0.490296 0.498932 0.597312
C36_2 C 0.56326(14) 0.4645(3) 0.52663(14)
H20_2 H 0.531925 0.345213 0.509042
H21 H 0.480755 0.014806 0.436936
H23_2 H 0.541641 0.604369 0.594999
H24_2 H 0.581887 0.456786 0.508040
C29_2 C 0.96616(14) 0.3957(3) 0.97998(14)
C33_2 C 0.96122(15) 0.4729(3) 0.95407(15)
H17_2 H 0.988730 0.355450 0.980324
C34_2 C 0.9031(2) 0.5143(4) 0.97689(16)
H21_2 H 0.980755 0.485194 0.936936
H22_2 H 0.880986 0.556296 0.976002
N7_2 N 0.79632(12) 0.9957(2) 0.71052(12)
Zn3_2 Zn 0.80107(4) 0.85466(8) 0.70934(6)
N8 N 0.92973(13) 0.4689(2) 0.45235(11)
N9_2 N 0.84029(12) 0.8319(2) 0.66815(12)
Cl5_2 Cl 0.83339(8) 0.81738(12) 0.77509(7)
Cl6_2 Cl 0.74113(6) 0.79845(12) 0.67624(9)
C19_2 C 0.8784(2) 0.8623(5) 0.6785(2)
C20_2 C 0.82938(16) 0.7863(4) 0.63201(19)
C21_2 C 0.90625(19) 0.8504(5) 0.65233(19)
H13_2 H 0.887136 0.893759 0.705047
C22_2 C 0.85549(16) 0.7688(4) 0.60457(18)
H14_2 H 0.801970 0.764031 0.624231
C23_2 C 0.89495(14) 0.8013(3) 0.61505(14)
H15_2 H 0.933014 0.876230 0.660211
H16_2 H 0.846238 0.734662 0.578824
C24_2 C 0.92293(13) 0.7868(3) 0.58573(14)
N10_2 N 0.91736(11) 0.7121(2) 0.56091(11)
N11_2 N 0.95219(11) 0.8509(2) 0.58593(11)
C25_2 C 0.94227(13) 0.7058(3) 0.53312(13)
C26_2 C 0.97433(13) 0.8388(3) 0.55613(13)
C27_2 C 0.93834(15) 0.6231(3) 0.50544(13)
N12_2 N 0.97035(11) 0.7688(2) 0.52794(11)
C29_3 C 0.96616(14) 0.6043(3) 0.47998(14)
C30_2 C 0.9058(2) 0.5615(3) 0.50374(17)
C33_3 C 0.96122(15) 0.5271(3) 0.45407(15)
H17_3 H 0.988730 0.644550 0.480324
C34_3 C 0.9031(2) 0.4857(4) 0.47689(16)
H18_2 H 0.885968 0.571405 0.520743
H19_2 H 0.990296 0.998932 0.597312
H21_3 H 0.980755 0.514806 0.436936
H22_3 H 0.880986 0.443704 0.476002
Zn5 Zn 0.91821(2) 0.36676(4) 0.40607(2)
Zn1_2 Zn 0.61664(2) 0.37423(4) 0.05785(2)
Cl2_3 Cl 0.60302(4) 0.24534(8) 0.08960(4)
N2_3 N 0.65920(11) 0.4431(2) 0.10344(12)
C1_3 C 0.66287(13) 0.5351(3) 0.10311(15)
C2_3 C 0.68628(15) 0.3953(3) 0.13264(18)
C3_3 C 0.69284(13) 0.5818(3) 0.13143(13)
H1_3 H 0.643952 0.569448 0.082408
C4_3 C 0.71757(16) 0.4368(3) 0.16210(18)
H2_3 H 0.683837 0.330001 0.133103
C5_3 C 0.72071(14) 0.5332(3) 0.16153(15)
H3_3 H 0.694344 0.647229 0.130281
H4_3 H 0.736434 0.400941 0.182186
C6_3 C 0.75349(13) 0.5802(3) 0.19280(14)
N3_3 N 0.77575(11) 0.5314(2) 0.22505(12)
N4_3 N 0.75783(11) 0.6713(2) 0.18698(12)
C7_3 C 0.80442(13) 0.5786(3) 0.25222(14)
C8_3 C 0.78677(13) 0.7116(3) 0.21619(13)
N5_3 N 0.81156(11) 0.6693(2) 0.24917(12)
C9_3 C 0.82959(13) 0.5297(3) 0.28924(13)
C10_3 C 0.79065(13) 0.8135(3) 0.21383(13)
C11_3 C 0.82866(13) 0.4336(3) 0.29229(13)
C12_3 C 0.85503(14) 0.5780(3) 0.32246(15)
C13_3 C 0.81734(18) 0.8616(3) 0.24516(16)
C14_3 C 0.76640(14) 0.8633(3) 0.18077(15)
H5_3 H 0.811291 0.398267 0.270622
C15_3 C 0.85322(14) 0.3907(3) 0.32709(13)
C16_3 C 0.87871(14) 0.5307(3) 0.35600(14)
H6_3 H 0.855927 0.643517 0.321805
C17_3 C 0.81918(18) 0.9561(3) 0.24263(17)
H7_3 H 0.834365 0.829700 0.268373
C18_3 C 0.77025(14) 0.9586(3) 0.18011(16)
H8_3 H 0.747322 0.832546 0.158794
N6_3 N 0.87846(10) 0.4375(2) 0.35870(11)
H9_3 H 0.852348 0.325264 0.328916
H10_3 H 0.896014 0.564679 0.378272
H11_3 H 0.837494 0.988474 0.264669
H12_3 H 0.753739 0.992304 0.157190
Cl3_3 Cl 0.88188(5) 0.25734(8) 0.42905(4)
Cl4_3 Cl 0.97627(4) 0.34367(9) 0.38476(4)
N13_2 N 0.56653(11) 0.4605(2) 0.05187(12)
C1_4 C 0.16287(13) 0.0351(3) 0.10311(15)
C3_4 C 0.19284(13) 0.0818(3) 0.13143(13)
H1_4 H 0.143952 0.069448 0.082408
C5_4 C 0.22071(14) 0.0332(3) 0.16153(15)
H3_4 H 0.194344 0.147229 0.130281
C6_4 C 0.25349(13) 0.0802(3) 0.19280(14)
N3_4 N 0.27575(11) 0.0314(2) 0.22505(12)
N4_4 N 0.25783(11) 0.1713(2) 0.18698(12)
C7_4 C 0.30442(13) 0.0786(3) 0.25222(14)
C8_4 C 0.28677(13) 0.2116(3) 0.21619(13)
N5_4 N 0.31156(11) 0.1693(2) 0.24917(12)
C9_4 C 0.32959(13) 0.0297(3) 0.28924(13)
C10_4 C 0.29065(13) 0.3135(3) 0.21383(13)
C12_4 C 0.35503(14) 0.0780(3) 0.32246(15)
C13_4 C 0.31734(18) 0.3616(3) 0.24516(16)
C14_4 C 0.26640(14) 0.3633(3) 0.18077(15)
C16_4 C 0.37871(14) 0.0307(3) 0.35600(14)
H6_4 H 0.355927 0.143517 0.321805
C17_4 C 0.31918(18) 0.4561(3) 0.24263(17)
H7_4 H 0.334365 0.329700 0.268373
C18_4 C 0.27025(14) 0.4586(3) 0.18011(16)
H8_4 H 0.247322 0.332546 0.158794
H10_4 H 0.396014 0.064679 0.378272
N7_3 N 0.29632(12) 0.5043(2) 0.21052(12)
H11_4 H 0.337494 0.488474 0.264669
H12_4 H 0.253739 0.492304 0.157190
Zn3_3 Zn 0.30107(4) 0.64534(8) 0.20934(6)
N9_3 N 0.34029(12) 0.6681(2) 0.16815(12)
Cl5_3 Cl 0.33339(8) 0.68262(12) 0.27509(7)
Cl6_3 Cl 0.24113(6) 0.70155(12) 0.17624(9)
C19_3 C 0.3784(2) 0.6377(5) 0.1785(2)
C20_3 C 0.32938(16) 0.7137(4) 0.13201(19)
C21_3 C 0.40625(19) 0.6496(5) 0.15233(19)
H13_3 H 0.387136 0.606241 0.205047
C22_3 C 0.35549(16) 0.7312(4) 0.10457(18)
H14_3 H 0.301970 0.735969 0.124231
C23_3 C 0.39495(14) 0.6987(3) 0.11505(14)
H15_3 H 0.433014 0.623770 0.160211
H16_3 H 0.346238 0.765338 0.078824
C24_3 C 0.42293(13) 0.7132(3) 0.08573(14)
N10_3 N 0.41736(11) 0.7879(2) 0.06091(11)
N11_3 N 0.45219(11) 0.6491(2) 0.08593(11)
C25_3 C 0.44227(13) 0.7942(3) 0.03312(13)
C26_3 C 0.47433(13) 0.6612(3) 0.05613(13)
C27_3 C 0.43834(15) 0.8769(3) 0.00544(13)
N12_3 N 0.47035(11) 0.7312(2) 0.02794(11)
C28_3 C 0.50612(13) 0.5905(3) 0.05363(13)
C30_3 C 0.4058(2) 0.9385(3) 0.00374(17)
C31_3 C 0.50908(14) 0.5114(3) 0.07911(15)
C32_3 C 0.53351(14) 0.6019(3) 0.02697(14)
H18_3 H 0.385968 0.928595 0.020743
C35_3 C 0.53950(14) 0.4492(3) 0.07740(15)
H19_3 H 0.490296 0.501068 0.097312
C36_3 C 0.56326(14) 0.5355(3) 0.02663(14)
H20_3 H 0.531925 0.654787 0.009042
H23_3 H 0.541641 0.395631 0.094999
H24_3 H 0.581887 0.543214 0.008040
Cl1_3 Cl 0.36262(4) 0.61383(8) 0.00347(4)
Zn1_3 Zn 0.38336(2) 0.62577(4) 0.94215(2)
Cl2_4 Cl 0.39698(4) 0.75466(8) 0.91040(4)
N2_4 N 0.34080(11) 0.5569(2) 0.89656(12)
C1_5 C 0.33713(13) 0.4649(3) 0.89689(15)
C2_4 C 0.31372(15) 0.6047(3) 0.86736(18)
C3_5 C 0.30716(13) 0.4182(3) 0.86857(13)
H1_5 H 0.356048 0.430552 0.917592
C4_4 C 0.28243(16) 0.5632(3) 0.83790(18)
H2_4 H 0.316163 0.669999 0.866897
C5_5 C 0.27929(14) 0.4668(3) 0.83847(15)
H3_5 H 0.305656 0.352771 0.869719
H4_4 H 0.263566 0.599059 0.817814
C6_5 C 0.24651(13) 0.4198(3) 0.80720(14)
N3_5 N 0.22425(11) 0.4686(2) 0.77495(12)
N4_5 N 0.24217(11) 0.3287(2) 0.81302(12)
C7_5 C 0.19558(13) 0.4214(3) 0.74778(14)
C8_5 C 0.21323(13) 0.2884(3) 0.78381(13)
N5_5 N 0.18844(11) 0.3307(2) 0.75083(12)
C9_5 C 0.17041(13) 0.4703(3) 0.71076(13)
C10_5 C 0.20935(13) 0.1865(3) 0.78617(13)
C11_4 C 0.17134(13) 0.5664(3) 0.70771(13)
C12_5 C 0.14497(14) 0.4220(3) 0.67754(15)
C13_5 C 0.18266(18) 0.1384(3) 0.75484(16)
C14_5 C 0.23360(14) 0.1367(3) 0.81923(15)
H5_4 H 0.188709 0.601733 0.729378
C15_4 C 0.14678(14) 0.6093(3) 0.67291(13)
C16_5 C 0.12129(14) 0.4693(3) 0.64400(14)
H6_5 H 0.144073 0.356483 0.678195
C17_5 C 0.18082(18) 0.0439(3) 0.75737(17)
H7_5 H 0.165635 0.170300 0.731627
C18_5 C 0.22975(14) 0.0414(3) 0.81989(16)
H8_5 H 0.252678 0.167454 0.841206
N6_4 N 0.12154(10) 0.5625(2) 0.64130(11)
H9_4 H 0.147652 0.674736 0.671084
H10_5 H 0.103986 0.435321 0.621728
H11_5 H 0.162506 0.011526 0.735331
H12_5 H 0.246261 0.007696 0.842810
Zn2_3 Zn 0.08179(2) 0.63324(4) 0.59393(2)
Cl3_4 Cl 0.11812(5) 0.74266(8) 0.57095(4)
Cl4_4 Cl 0.02373(4) 0.65633(9) 0.61524(4)
N13_3 N 0.43347(11) 0.5395(2) 0.94813(12)
N14_3 N 0.07027(13) 0.5311(2) 0.54765(11)
C1_6 C 0.83713(13) 0.9649(3) 0.89689(15)
C3_6 C 0.80716(13) 0.9182(3) 0.86857(13)
H1_6 H 0.856048 0.930552 0.917592
C5_6 C 0.77929(14) 0.9668(3) 0.83847(15)
H3_6 H 0.805656 0.852771 0.869719
C6_6 C 0.74651(13) 0.9198(3) 0.80720(14)
N3_6 N 0.72425(11) 0.9686(2) 0.77495(12)
N4_6 N 0.74217(11) 0.8287(2) 0.81302(12)
C7_6 C 0.69558(13) 0.9214(3) 0.74778(14)
C8_6 C 0.71323(13) 0.7884(3) 0.78381(13)
N5_6 N 0.68844(11) 0.8307(2) 0.75083(12)
C9_6 C 0.67041(13) 0.9703(3) 0.71076(13)
C10_6 C 0.70935(13) 0.6865(3) 0.78617(13)
C12_6 C 0.64497(14) 0.9220(3) 0.67754(15)
C13_6 C 0.68266(18) 0.6384(3) 0.75484(16)
C14_6 C 0.73360(14) 0.6367(3) 0.81923(15)
C16_6 C 0.62129(14) 0.9693(3) 0.64400(14)
H6_6 H 0.644073 0.856483 0.678195
C17_6 C 0.68082(18) 0.5439(3) 0.75737(17)
H7_6 H 0.665635 0.670300 0.731627
C18_6 C 0.72975(14) 0.5414(3) 0.81989(16)
H8_6 H 0.752678 0.667454 0.841206
H10_6 H 0.603986 0.935321 0.621728
N7_4 N 0.70368(12) 0.4957(2) 0.78948(12)
H11_6 H 0.662506 0.511526 0.735331
H12_6 H 0.746261 0.507696 0.842810
Zn3_4 Zn 0.69893(4) 0.35466(8) 0.79066(6)
N9_4 N 0.65971(12) 0.3319(2) 0.83185(12)
Cl5_4 Cl 0.66661(8) 0.31738(12) 0.72491(7)
Cl6_4 Cl 0.75887(6) 0.29845(12) 0.82376(9)
C19_4 C 0.6216(2) 0.3623(5) 0.8215(2)
C20_4 C 0.67062(16) 0.2863(4) 0.86799(19)
C21_4 C 0.59375(19) 0.3504(5) 0.84767(19)
H13_4 H 0.612864 0.393759 0.794953
C22_4 C 0.64451(16) 0.2688(4) 0.89543(18)
H14_4 H 0.698030 0.264031 0.875769
C23_4 C 0.60505(14) 0.3013(3) 0.88495(14)
H15_4 H 0.566986 0.376230 0.839789
H16_4 H 0.653762 0.234662 0.921176
C24_4 C 0.57707(13) 0.2868(3) 0.91427(14)
N10_4 N 0.58264(11) 0.2121(2) 0.93909(11)
N11_4 N 0.54781(11) 0.3509(2) 0.91407(11)
C25_4 C 0.55773(13) 0.2058(3) 0.96688(13)
C26_4 C 0.52567(13) 0.3388(3) 0.94387(13)
C27_4 C 0.56166(15) 0.1231(3) 0.99456(13)
N12_4 N 0.52965(11) 0.2688(2) 0.97206(11)
C28_4 C 0.49388(13) 0.4095(3) 0.94637(13)
C30_4 C 0.5942(2) 0.0615(3) 0.99626(17)
C31_4 C 0.49092(14) 0.4886(3) 0.92089(15)
C32_4 C 0.46649(14) 0.3981(3) 0.97303(14)
H18_4 H 0.614032 0.071405 0.979257
C35_4 C 0.46050(14) 0.5508(3) 0.92260(15)
H19_4 H 0.509704 0.498932 0.902688
C36_4 C 0.43674(14) 0.4645(3) 0.97337(14)
H20_4 H 0.468075 0.345213 0.990958
H23_4 H 0.458359 0.604369 0.905001
H24_4 H 0.418113 0.456786 0.991960
N7_5 N 0.20368(12) 0.0043(2) 0.28948(12)
Zn3_5 Zn 0.19893(4) 0.14534(8) 0.29066(6)
N9_5 N 0.15971(12) 0.1681(2) 0.33185(12)
Cl5_5 Cl 0.16661(8) 0.18262(12) 0.22491(7)
Cl6_5 Cl 0.25887(6) 0.20155(12) 0.32376(9)
C19_5 C 0.1216(2) 0.1377(5) 0.3215(2)
C20_5 C 0.17062(16) 0.2137(4) 0.36799(19)
C21_5 C 0.09375(19) 0.1496(5) 0.34767(19)
H13_5 H 0.112864 0.106241 0.294953
C22_5 C 0.14451(16) 0.2312(4) 0.39543(18)
H14_5 H 0.198030 0.235969 0.375769
C23_5 C 0.10505(14) 0.1987(3) 0.38495(14)
H15_5 H 0.066986 0.123770 0.339789
H16_5 H 0.153762 0.265338 0.421176
C24_5 C 0.07707(13) 0.2132(3) 0.41427(14)
N10_5 N 0.08264(11) 0.2879(2) 0.43909(11)
N11_5 N 0.04781(11) 0.1491(2) 0.41407(11)
C25_5 C 0.05773(13) 0.2942(3) 0.46688(13)
C26_5 C 0.02567(13) 0.1612(3) 0.44387(13)
C27_5 C 0.06166(15) 0.3769(3) 0.49456(13)
N12_5 N 0.02965(11) 0.2312(2) 0.47206(11)
C29_4 C 0.03384(14) 0.3957(3) 0.52002(14)
C30_5 C 0.0942(2) 0.4385(3) 0.49626(17)
C33_4 C 0.03878(15) 0.4729(3) 0.54593(15)
H17_4 H 0.011270 0.355450 0.519676
C34_4 C 0.0969(2) 0.5143(4) 0.52311(16)
H18_5 H 0.114032 0.428595 0.479257
H19_5 H 0.009704 0.001068 0.402688
H21_4 H 0.019245 0.485194 0.563064
H22_4 H 0.119014 0.556296 0.523998
N8_2 N 0.07027(13) 0.4689(2) 0.04765(11)
C29_5 C 0.03384(14) 0.6043(3) 0.02002(14)
C33_5 C 0.03878(15) 0.5271(3) 0.04593(15)
H17_5 H 0.011270 0.644550 0.019676
C34_5 C 0.0969(2) 0.4857(4) 0.02311(16)
H21_5 H 0.019245 0.514806 0.063064
H22_5 H 0.119014 0.443704 0.023998
Zn5_2 Zn 0.08179(2) 0.36676(4) 0.09393(2)
Zn1_4 Zn 0.38336(2) 0.37423(4) 0.44215(2)
Cl1_4 Cl 0.36262(4) 0.38617(8) 0.50347(4)
Cl2_5 Cl 0.39698(4) 0.24534(8) 0.41040(4)
N2_5 N 0.34080(11) 0.4431(2) 0.39656(12)
C1_7 C 0.33713(13) 0.5351(3) 0.39689(15)
C2_5 C 0.31372(15) 0.3953(3) 0.36736(18)
C3_7 C 0.30716(13) 0.5818(3) 0.36857(13)
H1_7 H 0.356048 0.569448 0.417592
C4_5 C 0.28243(16) 0.4368(3) 0.33790(18)
H2_5 H 0.316163 0.330001 0.366897
C5_7 C 0.27929(14) 0.5332(3) 0.33847(15)
H3_7 H 0.305656 0.647229 0.369719
H4_5 H 0.263566 0.400941 0.317814
C6_7 C 0.24651(13) 0.5802(3) 0.30720(14)
N3_7 N 0.22425(11) 0.5314(2) 0.27495(12)
N4_7 N 0.24217(11) 0.6713(2) 0.31302(12)
C7_7 C 0.19558(13) 0.5786(3) 0.24778(14)
C8_7 C 0.21323(13) 0.7116(3) 0.28381(13)
N5_7 N 0.18844(11) 0.6693(2) 0.25083(12)
C9_7 C 0.17041(13) 0.5297(3) 0.21076(13)
C10_7 C 0.20935(13) 0.8135(3) 0.28617(13)
C11_5 C 0.17134(13) 0.4336(3) 0.20771(13)
C12_7 C 0.14497(14) 0.5780(3) 0.17754(15)
C13_7 C 0.18266(18) 0.8616(3) 0.25484(16)
C14_7 C 0.23360(14) 0.8633(3) 0.31923(15)
H5_5 H 0.188709 0.398267 0.229378
C15_5 C 0.14678(14) 0.3907(3) 0.17291(13)
C16_7 C 0.12129(14) 0.5307(3) 0.14400(14)
H6_7 H 0.144073 0.643517 0.178195
C17_7 C 0.18082(18) 0.9561(3) 0.25737(17)
H7_7 H 0.165635 0.829700 0.231627
C18_7 C 0.22975(14) 0.9586(3) 0.31989(16)
H8_7 H 0.252678 0.832546 0.341206
N6_5 N 0.12154(10) 0.4375(2) 0.14130(11)
H9_5 H 0.147652 0.325264 0.171084
H10_7 H 0.103986 0.564679 0.121728
H11_7 H 0.162506 0.988474 0.235331
H12_7 H 0.246261 0.992304 0.342810
Cl3_5 Cl 0.11812(5) 0.25734(8) 0.07095(4)
Cl4_5 Cl 0.02373(4) 0.34367(9) 0.11524(4)
N13_4 N 0.43347(11) 0.4605(2) 0.44813(12)
C1_8 C 0.83713(13) 0.0351(3) 0.39689(15)
C3_8 C 0.80716(13) 0.0818(3) 0.36857(13)
H1_8 H 0.856048 0.069448 0.417592
C5_8 C 0.77929(14) 0.0332(3) 0.33847(15)
H3_8 H 0.805656 0.147229 0.369719
C6_8 C 0.74651(13) 0.0802(3) 0.30720(14)
N3_8 N 0.72425(11) 0.0314(2) 0.27495(12)
N4_8 N 0.74217(11) 0.1713(2) 0.31302(12)
C7_8 C 0.69558(13) 0.0786(3) 0.24778(14)
C8_8 C 0.71323(13) 0.2116(3) 0.28381(13)
N5_8 N 0.68844(11) 0.1693(2) 0.25083(12)
C9_8 C 0.67041(13) 0.0297(3) 0.21076(13)
C10_8 C 0.70935(13) 0.3135(3) 0.28617(13)
C12_8 C 0.64497(14) 0.0780(3) 0.17754(15)
C13_8 C 0.68266(18) 0.3616(3) 0.25484(16)
C14_8 C 0.73360(14) 0.3633(3) 0.31923(15)
C16_8 C 0.62129(14) 0.0307(3) 0.14400(14)
H6_8 H 0.644073 0.143517 0.178195
C17_8 C 0.68082(18) 0.4561(3) 0.25737(17)
H7_8 H 0.665635 0.329700 0.231627
C18_8 C 0.72975(14) 0.4586(3) 0.31989(16)
H8_8 H 0.752678 0.332546 0.341206
H10_8 H 0.603986 0.064679 0.121728
N7_6 N 0.70368(12) 0.5043(2) 0.28948(12)
H11_8 H 0.662506 0.488474 0.235331
H12_8 H 0.746261 0.492304 0.342810
Zn3_6 Zn 0.69893(4) 0.64534(8) 0.29066(6)
N9_6 N 0.65971(12) 0.6681(2) 0.33185(12)
Cl5_6 Cl 0.66661(8) 0.68262(12) 0.22491(7)
Cl6_6 Cl 0.75887(6) 0.70155(12) 0.32376(9)
C19_6 C 0.6216(2) 0.6377(5) 0.3215(2)
C20_6 C 0.67062(16) 0.7137(4) 0.36799(19)
C21_6 C 0.59375(19) 0.6496(5) 0.34767(19)
H13_6 H 0.612864 0.606241 0.294953
C22_6 C 0.64451(16) 0.7312(4) 0.39543(18)
H14_6 H 0.698030 0.735969 0.375769
C23_6 C 0.60505(14) 0.6987(3) 0.38495(14)
H15_6 H 0.566986 0.623770 0.339789
H16_6 H 0.653762 0.765338 0.421176
C24_6 C 0.57707(13) 0.7132(3) 0.41427(14)
N10_6 N 0.58264(11) 0.7879(2) 0.43909(11)
N11_6 N 0.54781(11) 0.6491(2) 0.41407(11)
C25_6 C 0.55773(13) 0.7942(3) 0.46688(13)
C26_6 C 0.52567(13) 0.6612(3) 0.44387(13)
C27_6 C 0.56166(15) 0.8769(3) 0.49456(13)
N12_6 N 0.52965(11) 0.7312(2) 0.47206(11)
C28_5 C 0.49388(13) 0.5905(3) 0.44637(13)
C29_6 C 0.53384(14) 0.8957(3) 0.52002(14)
C30_6 C 0.5942(2) 0.9385(3) 0.49626(17)
C31_5 C 0.49092(14) 0.5114(3) 0.42089(15)
C32_5 C 0.46649(14) 0.6019(3) 0.47303(14)
C33_6 C 0.53878(15) 0.9729(3) 0.54593(15)
H17_6 H 0.511270 0.855450 0.519676
H18_6 H 0.614032 0.928595 0.479257
C35_5 C 0.46050(14) 0.4492(3) 0.42260(15)
H19_6 H 0.509704 0.501068 0.402688
C36_5 C 0.43674(14) 0.5355(3) 0.47337(14)
H20_5 H 0.468075 0.654787 0.490958
H21_6 H 0.519245 0.985194 0.563064
H23_5 H 0.458359 0.395631 0.405001
H24_5 H 0.418113 0.543214 0.491960
N7_7 N 0.20368(12) 0.9957(2) 0.78948(12)
Zn3_7 Zn 0.19893(4) 0.85466(8) 0.79066(6)
N9_7 N 0.15971(12) 0.8319(2) 0.83185(12)
Cl5_7 Cl 0.16661(8) 0.81738(12) 0.72491(7)
Cl6_7 Cl 0.25887(6) 0.79845(12) 0.82376(9)
C19_7 C 0.1216(2) 0.8623(5) 0.8215(2)
C20_7 C 0.17062(16) 0.7863(4) 0.86799(19)
C21_7 C 0.09375(19) 0.8504(5) 0.84767(19)
H13_7 H 0.112864 0.893759 0.794953
C22_7 C 0.14451(16) 0.7688(4) 0.89543(18)
H14_7 H 0.198030 0.764031 0.875769
C23_7 C 0.10505(14) 0.8013(3) 0.88495(14)
H15_7 H 0.066986 0.876230 0.839789
H16_7 H 0.153762 0.734662 0.921176
C24_7 C 0.07707(13) 0.7868(3) 0.91427(14)
N10_7 N 0.08264(11) 0.7121(2) 0.93909(11)
N11_7 N 0.04781(11) 0.8509(2) 0.91407(11)
C25_7 C 0.05773(13) 0.7058(3) 0.96688(13)
C26_7 C 0.02567(13) 0.8388(3) 0.94387(13)
C27_7 C 0.06166(15) 0.6231(3) 0.99456(13)
N12_7 N 0.02965(11) 0.7688(2) 0.97206(11)
C30_7 C 0.0942(2) 0.5615(3) 0.99626(17)
H18_7 H 0.114032 0.571405 0.979257
H19_7 H 0.009704 0.998932 0.902688
N1_2 N 0.93347(11) 0.0395(2) 0.94813(12)
C35_6 C 0.96050(14) 0.0508(3) 0.92260(15)
H23_6 H 0.958359 0.104369 0.905001
Zn4_2 Zn 0.88336(2) 0.12577(4) 0.94215(2)
Cl2_6 Cl 0.89698(4) 0.25466(8) 0.91040(4)
N2_6 N 0.84080(11) 0.0569(2) 0.89656(12)
C2_6 C 0.81372(15) 0.1047(3) 0.86736(18)
C4_6 C 0.78243(16) 0.0632(3) 0.83790(18)
H2_6 H 0.816163 0.169999 0.866897
H4_6 H 0.763566 0.099059 0.817814
C11_6 C 0.67134(13) 0.0664(3) 0.70771(13)
H5_6 H 0.688709 0.101733 0.729378
C15_6 C 0.64678(14) 0.1093(3) 0.67291(13)
N6_6 N 0.62154(10) 0.0625(2) 0.64130(11)
H9_6 H 0.647652 0.174736 0.671084
Zn2_4 Zn 0.58179(2) 0.13324(4) 0.59393(2)
Cl3_6 Cl 0.61812(5) 0.24266(8) 0.57095(4)
Cl4_6 Cl 0.52373(4) 0.15633(9) 0.61524(4)
N14_4 N 0.57027(13) 0.0311(2) 0.54765(11)
C34_6 C 0.5969(2) 0.0143(4) 0.52311(16)
H22_6 H 0.619014 0.056296 0.523998
C28_6 C 0.99388(13) 0.9095(3) 0.94637(13)
C31_6 C 0.99092(14) 0.9886(3) 0.92089(15)
C32_6 C 0.96649(14) 0.8981(3) 0.97303(14)
C36_6 C 0.93674(14) 0.9645(3) 0.97337(14)
H20_6 H 0.968075 0.845213 0.990958
H24_6 H 0.918113 0.956786 0.991960
N8_3 N 0.42973(13) 0.9689(2) 0.45235(11)
C34_7 C 0.4031(2) 0.9857(4) 0.47689(16)
H22_7 H 0.380986 0.943704 0.476002
Zn5_3 Zn 0.41821(2) 0.86676(4) 0.40607(2)
N1_3 N 0.06653(11) 0.9605(2) 0.05187(12)
C35_7 C 0.03950(14) 0.9492(3) 0.07740(15)
H23_7 H 0.041641 0.895631 0.094999
Zn4_3 Zn 0.11664(2) 0.87423(4) 0.05785(2)
Cl2_7 Cl 0.10302(4) 0.74534(8) 0.08960(4)
N2_7 N 0.15920(11) 0.9431(2) 0.10344(12)
C2_7 C 0.18628(15) 0.8953(3) 0.13264(18)
C4_7 C 0.21757(16) 0.9368(3) 0.16210(18)
H2_7 H 0.183837 0.830001 0.133103
H4_7 H 0.236434 0.900941 0.182186
C11_7 C 0.32866(13) 0.9336(3) 0.29229(13)
H5_7 H 0.311291 0.898267 0.270622
C15_7 C 0.35322(14) 0.8907(3) 0.32709(13)
N6_7 N 0.37846(10) 0.9375(2) 0.35870(11)
H9_7 H 0.352348 0.825264 0.328916
Cl3_7 Cl 0.38188(5) 0.75734(8) 0.42905(4)
Cl4_7 Cl 0.47627(4) 0.84367(9) 0.38476(4)
Cl1_5 Cl 0.86262(4) 0.11383(8) 0.00347(4)
C29_7 C 0.53384(14) 0.1043(3) 0.02002(14)
C33_7 C 0.53878(15) 0.0271(3) 0.04593(15)
H17_7 H 0.511270 0.144550 0.019676
H21_7 H 0.519245 0.014806 0.063064
N8_4 N 0.57027(13) 0.9689(2) 0.04765(11)
C34_8 C 0.5969(2) 0.9857(4) 0.02311(16)
H22_8 H 0.619014 0.943704 0.023998
Zn5_4 Zn 0.58179(2) 0.86676(4) 0.09393(2)
N1_4 N 0.93347(11) 0.9605(2) 0.44813(12)
C35_8 C 0.96050(14) 0.9492(3) 0.42260(15)
H23_8 H 0.958359 0.895631 0.405001
Zn4_4 Zn 0.88336(2) 0.87423(4) 0.44215(2)
Cl1_6 Cl 0.86262(4) 0.88617(8) 0.50347(4)
Cl2_8 Cl 0.89698(4) 0.74534(8) 0.41040(4)
N2_8 N 0.84080(11) 0.9431(2) 0.39656(12)
C2_8 C 0.81372(15) 0.8953(3) 0.36736(18)
C4_8 C 0.78243(16) 0.9368(3) 0.33790(18)
H2_8 H 0.816163 0.830001 0.366897
H4_8 H 0.763566 0.900941 0.317814
C11_8 C 0.67134(13) 0.9336(3) 0.20771(13)
H5_8 H 0.688709 0.898267 0.229378
C15_8 C 0.64678(14) 0.8907(3) 0.17291(13)
N6_8 N 0.62154(10) 0.9375(2) 0.14130(11)
H9_8 H 0.647652 0.825264 0.171084
Cl3_8 Cl 0.61812(5) 0.75734(8) 0.07095(4)
Cl4_8 Cl 0.52373(4) 0.84367(9) 0.11524(4)
C28_7 C 0.99388(13) 0.0905(3) 0.44637(13)
C31_7 C 0.99092(14) 0.0114(3) 0.42089(15)
C32_7 C 0.96649(14) 0.1019(3) 0.47303(14)
C36_7 C 0.93674(14) 0.0355(3) 0.47337(14)
H20_7 H 0.968075 0.154787 0.490958
H24_7 H 0.918113 0.043214 0.491960
C28_8 C 0.00612(13) 0.0905(3) 0.05363(13)
C31_8 C 0.00908(14) 0.0114(3) 0.07911(15)
C32_8 C 0.03351(14) 0.1019(3) 0.02697(14)
C36_8 C 0.06326(14) 0.0355(3) 0.02663(14)
H20_8 H 0.031925 0.154787 0.009042
H24_8 H 0.081887 0.043214 0.008040
N7_8 N 0.79632(12) 0.0043(2) 0.21052(12)
Zn3_8 Zn 0.80107(4) 0.14534(8) 0.20934(6)
N9_8 N 0.84029(12) 0.1681(2) 0.16815(12)
Cl5_8 Cl 0.83339(8) 0.18262(12) 0.27509(7)
Cl6_8 Cl 0.74113(6) 0.20155(12) 0.17624(9)
C19_8 C 0.8784(2) 0.1377(5) 0.1785(2)
C20_8 C 0.82938(16) 0.2137(4) 0.13201(19)
C21_8 C 0.90625(19) 0.1496(5) 0.15233(19)
H13_8 H 0.887136 0.106241 0.205047
C22_8 C 0.85549(16) 0.2312(4) 0.10457(18)
H14_8 H 0.801970 0.235969 0.124231
C23_8 C 0.89495(14) 0.1987(3) 0.11505(14)
H15_8 H 0.933014 0.123770 0.160211
H16_8 H 0.846238 0.265338 0.078824
C24_8 C 0.92293(13) 0.2132(3) 0.08573(14)
N10_8 N 0.91736(11) 0.2879(2) 0.06091(11)
N11_8 N 0.95219(11) 0.1491(2) 0.08593(11)
C25_8 C 0.94227(13) 0.2942(3) 0.03312(13)
C26_8 C 0.97433(13) 0.1612(3) 0.05613(13)
C27_8 C 0.93834(15) 0.3769(3) 0.00544(13)
N12_8 N 0.97035(11) 0.2312(2) 0.02794(11)
C30_8 C 0.9058(2) 0.4385(3) 0.00374(17)
H18_8 H 0.885968 0.428595 0.020743
H19_8 H 0.990296 0.001068 0.097312
Cl1_7 Cl 0.63738(4) 0.38617(8) 0.99653(4)
C29_8 C 0.46616(14) 0.8957(3) 0.97998(14)
C33_8 C 0.46122(15) 0.9729(3) 0.95407(15)
H17_8 H 0.488730 0.855450 0.980324
H21_8 H 0.480755 0.985194 0.936936
Cl1_8 Cl 0.13738(4) 0.88617(8) 0.99653(4)
loop_
_geom_bond_atom_site_label_1
_geom_bond_atom_site_label_2
_geom_bond_site_symmetry_1
_geom_bond_site_symmetry_2
N1 C35 1_555 1_555
H23 C35 1_555 1_555
Zn4 N1 1_555 1_555
Zn4 Cl1 1_555 1_555
Cl2 Zn4 1_555 1_555
N2 Zn4 1_555 1_555
C2 N2 1_555 1_555
C4 C2 1_555 1_555
H2 C2 1_555 1_555
H4 C4 1_555 1_555
H5 C11 1_555 1_555
C15 C11 1_555 1_555
N6 C15 1_555 1_555
H9 C15 1_555 1_555
Zn2 N6 1_555 1_555
Cl3 Zn2 1_555 1_555
Cl4 Zn2 1_555 1_555
N14 Zn2 1_555 1_555
C34 N14 1_555 1_555
H22 C34 1_555 1_555
C31 C28 1_555 1_555
C32 C28 1_555 1_555
H20 C32 1_555 1_555
H24 C36 1_555 1_555
C32 C36 1_555 1_555
Zn1 Cl1_2 1_555 1_555
Cl2_2 Zn1 1_555 1_555
N2_2 Zn1 1_555 1_555
C1 N2_2 1_555 1_555
C2_2 N2_2 1_555 1_555
C3 C1 1_555 1_555
H1 C1 1_555 1_555
C4_2 C2_2 1_555 1_555
H2_2 C2_2 1_555 1_555
C5 C3 1_555 1_555
H3 C3 1_555 1_555
H4_2 C4_2 1_555 1_555
C6 C5 1_555 1_555
N3 C6 1_555 1_555
N4 C6 1_555 1_555
C7 N3 1_555 1_555
C8 N4 1_555 1_555
N5 C7 1_555 1_555
C9 C7 1_555 1_555
C10 C8 1_555 1_555
C11_2 C9 1_555 1_555
C12 C9 1_555 1_555
C13 C10 1_555 1_555
C14 C10 1_555 1_555
H5_2 C11_2 1_555 1_555
C15_2 C11_2 1_555 1_555
C16 C12 1_555 1_555
H6 C12 1_555 1_555
C17 C13 1_555 1_555
H7 C13 1_555 1_555
C18 C14 1_555 1_555
H8 C14 1_555 1_555
N6_2 C15_2 1_555 1_555
H9_2 C15_2 1_555 1_555
H10 C16 1_555 1_555
H11 C17 1_555 1_555
H12 C18 1_555 1_555
Zn2_2 N6_2 1_555 1_555
Cl3_2 Zn2_2 1_555 1_555
Cl4_2 Zn2_2 1_555 1_555
N13 Zn1 1_555 1_555
N14_2 Zn2_2 1_555 1_555
C4_2 C5 1_555 1_555
C8 N5 1_555 1_555
C16 N6_2 1_555 1_555
N13 C35_2 1_555 1_555
C3_2 C1_2 1_555 1_555
H1_2 C1_2 1_555 1_555
C5_2 C3_2 1_555 1_555
H3_2 C3_2 1_555 1_555
C6_2 C5_2 1_555 1_555
N3_2 C6_2 1_555 1_555
N4_2 C6_2 1_555 1_555
C7_2 N3_2 1_555 1_555
C8_2 N4_2 1_555 1_555
N5_2 C7_2 1_555 1_555
C9_2 C7_2 1_555 1_555
C10_2 C8_2 1_555 1_555
C12_2 C9_2 1_555 1_555
C13_2 C10_2 1_555 1_555
C14_2 C10_2 1_555 1_555
C16_2 C12_2 1_555 1_555
H6_2 C12_2 1_555 1_555
C17_2 C13_2 1_555 1_555
H7_2 C13_2 1_555 1_555
C18_2 C14_2 1_555 1_555
H8_2 C14_2 1_555 1_555
H10_2 C16_2 1_555 1_555
N7 C17_2 1_555 1_555
H11_2 C17_2 1_555 1_555
H12_2 C18_2 1_555 1_555
Zn3 N7 1_555 1_555
N9 Zn3 1_555 1_555
Cl5 Zn3 1_555 1_555
Cl6 Zn3 1_555 1_555
C19 N9 1_555 1_555
C20 N9 1_555 1_555
C21 C19 1_555 1_555
H13 C19 1_555 1_555
C22 C20 1_555 1_555
H14 C20 1_555 1_555
C23 C21 1_555 1_555
H15 C21 1_555 1_555
H16 C22 1_555 1_555
C24 C23 1_555 1_555
N10 C24 1_555 1_555
N11 C24 1_555 1_555
C25 N10 1_555 1_555
C26 N11 1_555 1_555
C27 C25 1_555 1_555
N12 C25 1_555 1_555
C28_2 C26 1_555 1_555
C29 C27 1_555 1_555
C30 C27 1_555 1_555
C31_2 C28_2 1_555 1_555
C32_2 C28_2 1_555 1_555
C33 C29 1_555 1_555
H17 C29 1_555 1_555
H18 C30 1_555 1_555
C35_2 C31_2 1_555 1_555
H19 C31_2 1_555 1_555
C36_2 N13 1_555 1_555
H20_2 C32_2 1_555 1_555
H21 C33 1_555 1_555
H23_2 C35_2 1_555 1_555
H24_2 C36_2 1_555 1_555
C8_2 N5_2 1_555 1_555
C18_2 N7 1_555 1_555
C22 C23 1_555 1_555
C26 N12 1_555 1_555
C32_2 C36_2 1_555 1_555
N14_2 C33_2 1_555 1_555
C33_2 C29_2 1_555 1_555
H17_2 C29_2 1_555 1_555
C34_2 N14_2 1_555 1_555
H21_2 C33_2 1_555 1_555
H22_2 C34_2 1_555 1_555
Zn3_2 N7_2 1_555 1_555
N8 C33_3 1_555 1_555
N9_2 Zn3_2 1_555 1_555
Cl5_2 Zn3_2 1_555 1_555
Cl6_2 Zn3_2 1_555 1_555
C19_2 N9_2 1_555 1_555
C20_2 N9_2 1_555 1_555
C21_2 C19_2 1_555 1_555
H13_2 C19_2 1_555 1_555
C22_2 C20_2 1_555 1_555
H14_2 C20_2 1_555 1_555
C23_2 C21_2 1_555 1_555
H15_2 C21_2 1_555 1_555
H16_2 C22_2 1_555 1_555
C24_2 C23_2 1_555 1_555
N10_2 C24_2 1_555 1_555
N11_2 C24_2 1_555 1_555
C25_2 N10_2 1_555 1_555
C26_2 N11_2 1_555 1_555
C27_2 C25_2 1_555 1_555
N12_2 C25_2 1_555 1_555
C29_3 C27_2 1_555 1_555
C30_2 C27_2 1_555 1_555
C33_3 C29_3 1_555 1_555
H17_3 C29_3 1_555 1_555
C34_3 N8 1_555 1_555
H18_2 C30_2 1_555 1_555
H21_3 C33_3 1_555 1_555
H22_3 C34_3 1_555 1_555
Zn5 N8 1_555 1_555
C22_2 C23_2 1_555 1_555
C26_2 N12_2 1_555 1_555
C30_2 C34_3 1_555 1_555
Cl2_3 Zn1_2 1_555 1_555
N2_3 Zn1_2 1_555 1_555
C1_3 N2_3 1_555 1_555
C2_3 N2_3 1_555 1_555
C3_3 C1_3 1_555 1_555
H1_3 C1_3 1_555 1_555
C4_3 C2_3 1_555 1_555
H2_3 C2_3 1_555 1_555
C5_3 C3_3 1_555 1_555
H3_3 C3_3 1_555 1_555
H4_3 C4_3 1_555 1_555
C6_3 C5_3 1_555 1_555
N3_3 C6_3 1_555 1_555
N4_3 C6_3 1_555 1_555
C7_3 N3_3 1_555 1_555
C8_3 N4_3 1_555 1_555
N5_3 C7_3 1_555 1_555
C9_3 C7_3 1_555 1_555
C10_3 C8_3 1_555 1_555
C11_3 C9_3 1_555 1_555
C12_3 C9_3 1_555 1_555
C13_3 C10_3 1_555 1_555
C14_3 C10_3 1_555 1_555
H5_3 C11_3 1_555 1_555
C15_3 C11_3 1_555 1_555
C16_3 C12_3 1_555 1_555
H6_3 C12_3 1_555 1_555
C17_3 C13_3 1_555 1_555
H7_3 C13_3 1_555 1_555
C18_3 C14_3 1_555 1_555
H8_3 C14_3 1_555 1_555
N6_3 C15_3 1_555 1_555
H9_3 C15_3 1_555 1_555
H10_3 C16_3 1_555 1_555
H11_3 C17_3 1_555 1_555
H12_3 C18_3 1_555 1_555
Zn5 N6_3 1_555 1_555
Cl3_3 Zn5 1_555 1_555
Cl4_3 Zn5 1_555 1_555
N13_2 Zn1_2 1_555 1_555
C4_3 C5_3 1_555 1_555
C8_3 N5_3 1_555 1_555
C16_3 N6_3 1_555 1_555
N13_2 C35_3 1_555 1_555
C3_4 C1_4 1_555 1_555
H1_4 C1_4 1_555 1_555
C5_4 C3_4 1_555 1_555
H3_4 C3_4 1_555 1_555
C6_4 C5_4 1_555 1_555
N3_4 C6_4 1_555 1_555
N4_4 C6_4 1_555 1_555
C7_4 N3_4 1_555 1_555
C8_4 N4_4 1_555 1_555
N5_4 C7_4 1_555 1_555
C9_4 C7_4 1_555 1_555
C10_4 C8_4 1_555 1_555
C12_4 C9_4 1_555 1_555
C13_4 C10_4 1_555 1_555
C14_4 C10_4 1_555 1_555
C16_4 C12_4 1_555 1_555
H6_4 C12_4 1_555 1_555
C17_4 C13_4 1_555 1_555
H7_4 C13_4 1_555 1_555
C18_4 C14_4 1_555 1_555
H8_4 C14_4 1_555 1_555
H10_4 C16_4 1_555 1_555
N7_3 C17_4 1_555 1_555
H11_4 C17_4 1_555 1_555
H12_4 C18_4 1_555 1_555
Zn3_3 N7_3 1_555 1_555
N9_3 Zn3_3 1_555 1_555
Cl5_3 Zn3_3 1_555 1_555
Cl6_3 Zn3_3 1_555 1_555
C19_3 N9_3 1_555 1_555
C20_3 N9_3 1_555 1_555
C21_3 C19_3 1_555 1_555
H13_3 C19_3 1_555 1_555
C22_3 C20_3 1_555 1_555
H14_3 C20_3 1_555 1_555
C23_3 C21_3 1_555 1_555
H15_3 C21_3 1_555 1_555
H16_3 C22_3 1_555 1_555
C24_3 C23_3 1_555 1_555
N10_3 C24_3 1_555 1_555
N11_3 C24_3 1_555 1_555
C25_3 N10_3 1_555 1_555
C26_3 N11_3 1_555 1_555
C27_3 C25_3 1_555 1_555
N12_3 C25_3 1_555 1_555
C28_3 C26_3 1_555 1_555
C30_3 C27_3 1_555 1_555
C31_3 C28_3 1_555 1_555
C32_3 C28_3 1_555 1_555
H18_3 C30_3 1_555 1_555
C35_3 C31_3 1_555 1_555
H19_3 C31_3 1_555 1_555
C36_3 N13_2 1_555 1_555
H20_3 C32_3 1_555 1_555
H23_3 C35_3 1_555 1_555
H24_3 C36_3 1_555 1_555
C8_4 N5_4 1_555 1_555
C18_4 N7_3 1_555 1_555
C22_3 C23_3 1_555 1_555
C26_3 N12_3 1_555 1_555
C32_3 C36_3 1_555 1_555
Cl2_4 Zn1_3 1_555 1_555
N2_4 Zn1_3 1_555 1_555
C1_5 N2_4 1_555 1_555
C2_4 N2_4 1_555 1_555
C3_5 C1_5 1_555 1_555
H1_5 C1_5 1_555 1_555
C4_4 C2_4 1_555 1_555
H2_4 C2_4 1_555 1_555
C5_5 C3_5 1_555 1_555
H3_5 C3_5 1_555 1_555
H4_4 C4_4 1_555 1_555
C6_5 C5_5 1_555 1_555
N3_5 C6_5 1_555 1_555
N4_5 C6_5 1_555 1_555
C7_5 N3_5 1_555 1_555
C8_5 N4_5 1_555 1_555
N5_5 C7_5 1_555 1_555
C9_5 C7_5 1_555 1_555
C10_5 C8_5 1_555 1_555
C11_4 C9_5 1_555 1_555
C12_5 C9_5 1_555 1_555
C13_5 C10_5 1_555 1_555
C14_5 C10_5 1_555 1_555
H5_4 C11_4 1_555 1_555
C15_4 C11_4 1_555 1_555
C16_5 C12_5 1_555 1_555
H6_5 C12_5 1_555 1_555
C17_5 C13_5 1_555 1_555
H7_5 C13_5 1_555 1_555
C18_5 C14_5 1_555 1_555
H8_5 C14_5 1_555 1_555
N6_4 C15_4 1_555 1_555
H9_4 C15_4 1_555 1_555
H10_5 C16_5 1_555 1_555
H11_5 C17_5 1_555 1_555
H12_5 C18_5 1_555 1_555
Zn2_3 N6_4 1_555 1_555
Cl3_4 Zn2_3 1_555 1_555
Cl4_4 Zn2_3 1_555 1_555
N13_3 Zn1_3 1_555 1_555
N14_3 Zn2_3 1_555 1_555
C4_4 C5_5 1_555 1_555
C8_5 N5_5 1_555 1_555
C16_5 N6_4 1_555 1_555
N13_3 C35_4 1_555 1_555
C3_6 C1_6 1_555 1_555
H1_6 C1_6 1_555 1_555
C5_6 C3_6 1_555 1_555
H3_6 C3_6 1_555 1_555
C6_6 C5_6 1_555 1_555
N3_6 C6_6 1_555 1_555
N4_6 C6_6 1_555 1_555
C7_6 N3_6 1_555 1_555
C8_6 N4_6 1_555 1_555
N5_6 C7_6 1_555 1_555
C9_6 C7_6 1_555 1_555
C10_6 C8_6 1_555 1_555
C12_6 C9_6 1_555 1_555
C13_6 C10_6 1_555 1_555
C14_6 C10_6 1_555 1_555
C16_6 C12_6 1_555 1_555
H6_6 C12_6 1_555 1_555
C17_6 C13_6 1_555 1_555
H7_6 C13_6 1_555 1_555
C18_6 C14_6 1_555 1_555
H8_6 C14_6 1_555 1_555
H10_6 C16_6 1_555 1_555
N7_4 C17_6 1_555 1_555
H11_6 C17_6 1_555 1_555
H12_6 C18_6 1_555 1_555
Zn3_4 N7_4 1_555 1_555
N9_4 Zn3_4 1_555 1_555
Cl5_4 Zn3_4 1_555 1_555
Cl6_4 Zn3_4 1_555 1_555
C19_4 N9_4 1_555 1_555
C20_4 N9_4 1_555 1_555
C21_4 C19_4 1_555 1_555
H13_4 C19_4 1_555 1_555
C22_4 C20_4 1_555 1_555
H14_4 C20_4 1_555 1_555
C23_4 C21_4 1_555 1_555
H15_4 C21_4 1_555 1_555
H16_4 C22_4 1_555 1_555
C24_4 C23_4 1_555 1_555
N10_4 C24_4 1_555 1_555
N11_4 C24_4 1_555 1_555
C25_4 N10_4 1_555 1_555
C26_4 N11_4 1_555 1_555
C27_4 C25_4 1_555 1_555
N12_4 C25_4 1_555 1_555
C28_4 C26_4 1_555 1_555
C30_4 C27_4 1_555 1_555
C31_4 C28_4 1_555 1_555
C32_4 C28_4 1_555 1_555
H18_4 C30_4 1_555 1_555
C35_4 C31_4 1_555 1_555
H19_4 C31_4 1_555 1_555
C36_4 N13_3 1_555 1_555
H20_4 C32_4 1_555 1_555
H23_4 C35_4 1_555 1_555
H24_4 C36_4 1_555 1_555
C8_6 N5_6 1_555 1_555
C18_6 N7_4 1_555 1_555
C22_4 C23_4 1_555 1_555
C26_4 N12_4 1_555 1_555
C32_4 C36_4 1_555 1_555
Zn3_5 N7_5 1_555 1_555
N14_3 C33_4 1_555 1_555
N9_5 Zn3_5 1_555 1_555
Cl5_5 Zn3_5 1_555 1_555
Cl6_5 Zn3_5 1_555 1_555
C19_5 N9_5 1_555 1_555
C20_5 N9_5 1_555 1_555
C21_5 C19_5 1_555 1_555
H13_5 C19_5 1_555 1_555
C22_5 C20_5 1_555 1_555
H14_5 C20_5 1_555 1_555
C23_5 C21_5 1_555 1_555
H15_5 C21_5 1_555 1_555
H16_5 C22_5 1_555 1_555
C24_5 C23_5 1_555 1_555
N10_5 C24_5 1_555 1_555
N11_5 C24_5 1_555 1_555
C25_5 N10_5 1_555 1_555
C26_5 N11_5 1_555 1_555
C27_5 C25_5 1_555 1_555
N12_5 C25_5 1_555 1_555
C29_4 C27_5 1_555 1_555
C30_5 C27_5 1_555 1_555
C33_4 C29_4 1_555 1_555
H17_4 C29_4 1_555 1_555
C34_4 N14_3 1_555 1_555
H18_5 C30_5 1_555 1_555
H21_4 C33_4 1_555 1_555
H22_4 C34_4 1_555 1_555
C22_5 C23_5 1_555 1_555
C26_5 N12_5 1_555 1_555
C30_5 C34_4 1_555 1_555
N8_2 C33_5 1_555 1_555
C33_5 C29_5 1_555 1_555
H17_5 C29_5 1_555 1_555
C34_5 N8_2 1_555 1_555
H21_5 C33_5 1_555 1_555
H22_5 C34_5 1_555 1_555
Zn5_2 N8_2 1_555 1_555
Zn1_4 Cl1_4 1_555 1_555
Cl2_5 Zn1_4 1_555 1_555
N2_5 Zn1_4 1_555 1_555
C1_7 N2_5 1_555 1_555
C2_5 N2_5 1_555 1_555
C3_7 C1_7 1_555 1_555
H1_7 C1_7 1_555 1_555
C4_5 C2_5 1_555 1_555
H2_5 C2_5 1_555 1_555
C5_7 C3_7 1_555 1_555
H3_7 C3_7 1_555 1_555
H4_5 C4_5 1_555 1_555
C6_7 C5_7 1_555 1_555
N3_7 C6_7 1_555 1_555
N4_7 C6_7 1_555 1_555
C7_7 N3_7 1_555 1_555
C8_7 N4_7 1_555 1_555
N5_7 C7_7 1_555 1_555
C9_7 C7_7 1_555 1_555
C10_7 C8_7 1_555 1_555
C11_5 C9_7 1_555 1_555
C12_7 C9_7 1_555 1_555
C13_7 C10_7 1_555 1_555
C14_7 C10_7 1_555 1_555
H5_5 C11_5 1_555 1_555
C15_5 C11_5 1_555 1_555
C16_7 C12_7 1_555 1_555
H6_7 C12_7 1_555 1_555
C17_7 C13_7 1_555 1_555
H7_7 C13_7 1_555 1_555
C18_7 C14_7 1_555 1_555
H8_7 C14_7 1_555 1_555
N6_5 C15_5 1_555 1_555
H9_5 C15_5 1_555 1_555
H10_7 C16_7 1_555 1_555
H11_7 C17_7 1_555 1_555
H12_7 C18_7 1_555 1_555
Zn5_2 N6_5 1_555 1_555
Cl3_5 Zn5_2 1_555 1_555
Cl4_5 Zn5_2 1_555 1_555
N13_4 Zn1_4 1_555 1_555
C4_5 C5_7 1_555 1_555
C8_7 N5_7 1_555 1_555
C16_7 N6_5 1_555 1_555
N13_4 C35_5 1_555 1_555
C3_8 C1_8 1_555 1_555
H1_8 C1_8 1_555 1_555
C5_8 C3_8 1_555 1_555
H3_8 C3_8 1_555 1_555
C6_8 C5_8 1_555 1_555
N3_8 C6_8 1_555 1_555
N4_8 C6_8 1_555 1_555
C7_8 N3_8 1_555 1_555
C8_8 N4_8 1_555 1_555
N5_8 C7_8 1_555 1_555
C9_8 C7_8 1_555 1_555
C10_8 C8_8 1_555 1_555
C12_8 C9_8 1_555 1_555
C13_8 C10_8 1_555 1_555
C14_8 C10_8 1_555 1_555
C16_8 C12_8 1_555 1_555
H6_8 C12_8 1_555 1_555
C17_8 C13_8 1_555 1_555
H7_8 C13_8 1_555 1_555
C18_8 C14_8 1_555 1_555
H8_8 C14_8 1_555 1_555
H10_8 C16_8 1_555 1_555
N7_6 C17_8 1_555 1_555
H11_8 C17_8 1_555 1_555
H12_8 C18_8 1_555 1_555
Zn3_6 N7_6 1_555 1_555
N9_6 Zn3_6 1_555 1_555
Cl5_6 Zn3_6 1_555 1_555
Cl6_6 Zn3_6 1_555 1_555
C19_6 N9_6 1_555 1_555
C20_6 N9_6 1_555 1_555
C21_6 C19_6 1_555 1_555
H13_6 C19_6 1_555 1_555
C22_6 C20_6 1_555 1_555
H14_6 C20_6 1_555 1_555
C23_6 C21_6 1_555 1_555
H15_6 C21_6 1_555 1_555
H16_6 C22_6 1_555 1_555
C24_6 C23_6 1_555 1_555
N10_6 C24_6 1_555 1_555
N11_6 C24_6 1_555 1_555
C25_6 N10_6 1_555 1_555
C26_6 N11_6 1_555 1_555
C27_6 C25_6 1_555 1_555
N12_6 C25_6 1_555 1_555
C28_5 C26_6 1_555 1_555
C29_6 C27_6 1_555 1_555
C30_6 C27_6 1_555 1_555
C31_5 C28_5 1_555 1_555
C32_5 C28_5 1_555 1_555
C33_6 C29_6 1_555 1_555
H17_6 C29_6 1_555 1_555
H18_6 C30_6 1_555 1_555
C35_5 C31_5 1_555 1_555
H19_6 C31_5 1_555 1_555
C36_5 N13_4 1_555 1_555
H20_5 C32_5 1_555 1_555
H21_6 C33_6 1_555 1_555
H23_5 C35_5 1_555 1_555
H24_5 C36_5 1_555 1_555
C8_8 N5_8 1_555 1_555
C18_8 N7_6 1_555 1_555
C22_6 C23_6 1_555 1_555
C26_6 N12_6 1_555 1_555
C32_5 C36_5 1_555 1_555
Zn3_7 N7_7 1_555 1_555
N9_7 Zn3_7 1_555 1_555
Cl5_7 Zn3_7 1_555 1_555
Cl6_7 Zn3_7 1_555 1_555
C19_7 N9_7 1_555 1_555
C20_7 N9_7 1_555 1_555
C21_7 C19_7 1_555 1_555
H13_7 C19_7 1_555 1_555
C22_7 C20_7 1_555 1_555
H14_7 C20_7 1_555 1_555
C23_7 C21_7 1_555 1_555
H15_7 C21_7 1_555 1_555
H16_7 C22_7 1_555 1_555
C24_7 C23_7 1_555 1_555
N10_7 C24_7 1_555 1_555
N11_7 C24_7 1_555 1_555
C25_7 N10_7 1_555 1_555
C26_7 N11_7 1_555 1_555
C27_7 C25_7 1_555 1_555
N12_7 C25_7 1_555 1_555
C30_7 C27_7 1_555 1_555
H18_7 C30_7 1_555 1_555
C22_7 C23_7 1_555 1_555
C26_7 N12_7 1_555 1_555
N1_2 C35_6 1_555 1_555
H23_6 C35_6 1_555 1_555
Zn4_2 N1_2 1_555 1_555
Cl2_6 Zn4_2 1_555 1_555
N2_6 Zn4_2 1_555 1_555
C2_6 N2_6 1_555 1_555
C4_6 C2_6 1_555 1_555
H2_6 C2_6 1_555 1_555
H4_6 C4_6 1_555 1_555
H5_6 C11_6 1_555 1_555
C15_6 C11_6 1_555 1_555
N6_6 C15_6 1_555 1_555
H9_6 C15_6 1_555 1_555
Zn2_4 N6_6 1_555 1_555
Cl3_6 Zn2_4 1_555 1_555
Cl4_6 Zn2_4 1_555 1_555
N14_4 Zn2_4 1_555 1_555
C34_6 N14_4 1_555 1_555
H22_6 C34_6 1_555 1_555
C31_6 C28_6 1_555 1_555
C32_6 C28_6 1_555 1_555
H20_6 C32_6 1_555 1_555
H24_6 C36_6 1_555 1_555
C32_6 C36_6 1_555 1_555
C34_7 N8_3 1_555 1_555
H22_7 C34_7 1_555 1_555
Zn5_3 N8_3 1_555 1_555
N1_3 C35_7 1_555 1_555
H23_7 C35_7 1_555 1_555
Zn4_3 N1_3 1_555 1_555
Cl2_7 Zn4_3 1_555 1_555
N2_7 Zn4_3 1_555 1_555
C2_7 N2_7 1_555 1_555
C4_7 C2_7 1_555 1_555
H2_7 C2_7 1_555 1_555
H4_7 C4_7 1_555 1_555
H5_7 C11_7 1_555 1_555
C15_7 C11_7 1_555 1_555
N6_7 C15_7 1_555 1_555
H9_7 C15_7 1_555 1_555
Zn5_3 N6_7 1_555 1_555
Cl3_7 Zn5_3 1_555 1_555
Cl4_7 Zn5_3 1_555 1_555
C33_7 C29_7 1_555 1_555
H17_7 C29_7 1_555 1_555
H21_7 C33_7 1_555 1_555
C34_8 N8_4 1_555 1_555
H22_8 C34_8 1_555 1_555
Zn5_4 N8_4 1_555 1_555
N1_4 C35_8 1_555 1_555
H23_8 C35_8 1_555 1_555
Zn4_4 N1_4 1_555 1_555
Zn4_4 Cl1_6 1_555 1_555
Cl2_8 Zn4_4 1_555 1_555
N2_8 Zn4_4 1_555 1_555
C2_8 N2_8 1_555 1_555
C4_8 C2_8 1_555 1_555
H2_8 C2_8 1_555 1_555
H4_8 C4_8 1_555 1_555
H5_8 C11_8 1_555 1_555
C15_8 C11_8 1_555 1_555
N6_8 C15_8 1_555 1_555
H9_8 C15_8 1_555 1_555
Zn5_4 N6_8 1_555 1_555
Cl3_8 Zn5_4 1_555 1_555
Cl4_8 Zn5_4 1_555 1_555
C31_7 C28_7 1_555 1_555
C32_7 C28_7 1_555 1_555
H20_7 C32_7 1_555 1_555
H24_7 C36_7 1_555 1_555
C32_7 C36_7 1_555 1_555
C31_8 C28_8 1_555 1_555
C32_8 C28_8 1_555 1_555
H20_8 C32_8 1_555 1_555
H24_8 C36_8 1_555 1_555
C32_8 C36_8 1_555 1_555
Zn3_8 N7_8 1_555 1_555
N9_8 Zn3_8 1_555 1_555
Cl5_8 Zn3_8 1_555 1_555
Cl6_8 Zn3_8 1_555 1_555
C19_8 N9_8 1_555 1_555
C20_8 N9_8 1_555 1_555
C21_8 C19_8 1_555 1_555
H13_8 C19_8 1_555 1_555
C22_8 C20_8 1_555 1_555
H14_8 C20_8 1_555 1_555
C23_8 C21_8 1_555 1_555
H15_8 C21_8 1_555 1_555
H16_8 C22_8 1_555 1_555
C24_8 C23_8 1_555 1_555
N10_8 C24_8 1_555 1_555
N11_8 C24_8 1_555 1_555
C25_8 N10_8 1_555 1_555
C26_8 N11_8 1_555 1_555
C27_8 C25_8 1_555 1_555
N12_8 C25_8 1_555 1_555
C30_8 C27_8 1_555 1_555
H18_8 C30_8 1_555 1_555
C22_8 C23_8 1_555 1_555
C26_8 N12_8 1_555 1_555
C33_8 C29_8 1_555 1_555
H17_8 C29_8 1_555 1_555
H21_8 C33_8 1_555 1_555

#END
