
###############################################################################
#
# This file contains modified crystal structure data generated from the
# MOF subset of the Cambridge Structural Database (CSD) v543 
# hosted by the Cambridge Crystallographic Data Centre (CCDC).
#
# This work is licensed under the Creative Commons
# Attribution-NonCommercial-ShareAlike 4.0 International License.
# To view a copy of this license, visit
# http://creativecommons.org/licenses/by-nc-sa/4.0/
# or send a letter to
# Creative Commons, PO Box 1866, Mountain View, CA 94042, USA.
#
# CIF created using the CSD Python API on 29 September 2022
# The structure has been converted into the P1 space group
# The structure has a 3D framework
# The original CSD entry JAZGAW is in the monoclinic crystal system
# The framework has been calculated to contain at least 10.0% void space
# The void calculation uses a probe of radius 1.32A, grid spacing 0.4
#
###############################################################################

data_JAZGAW
_chemical_formula_moiety         '(C288 H192 I48 N88 Zn24)n'
_symmetry_cell_setting           triclinic
_symmetry_space_group_name_H-M   'P 1'
_symmetry_Int_Tables_number      1
_space_group_name_Hall           'P 1'
loop_
_symmetry_equiv_pos_site_id
_symmetry_equiv_pos_as_xyz
1 x,y,z
_cell_length_a                   34.4862(8)
_cell_length_b                   15.0052(4)
_cell_length_c                   31.1250(7)
_cell_angle_alpha                90
_cell_angle_beta                 101.958(2)
_cell_angle_gamma                90
_cell_volume                     15756.8
loop_
_atom_site_label
_atom_site_type_symbol
_atom_site_fract_x
_atom_site_fract_y
_atom_site_fract_z
I1 I 0.35246(4) 0.59942(10) 0.50664(4)
Zn1 Zn 0.37802(6) 0.59981(17) 0.43657(7)
I2 I 0.40114(5) 0.73259(10) 0.39979(5)
N1 N 0.4231(4) 0.5104(12) 0.4425(5)
N2 N 0.3354(4) 0.5358(10) 0.3914(4)
C1 C 0.3282(5) 0.4496(12) 0.3965(6)
C2 C 0.3128(5) 0.5778(11) 0.3570(6)
C3 C 0.2988(5) 0.4014(12) 0.3701(5)
H1 H 0.344773 0.419206 0.420129
C4 C 0.2819(6) 0.5381(12) 0.3289(6)
H2 H 0.318624 0.638291 0.351923
C5 C 0.2740(5) 0.4441(10) 0.3358(4)
H3 H 0.295611 0.339776 0.375389
H4 H 0.266043 0.570683 0.305572
C6 C 0.2431(6) 0.4006(10) 0.3059(6)
N3 N 0.2371(4) 0.3143(9) 0.3114(4)
N4 N 0.2190(4) 0.4522(9) 0.2739(4)
C7 C 0.2068(5) 0.2793(11) 0.2811(6)
C8 C 0.1891(5) 0.4097(12) 0.2488(6)
N5 N 0.1815(5) 0.3251(10) 0.2513(5)
C9 C 0.1993(6) 0.1801(11) 0.2817(6)
C10 C 0.1646(5) 0.4588(11) 0.2123(6)
C11 C 0.2291(6) 0.1227(12) 0.3086(7)
C12 C 0.1686(7) 0.1403(14) 0.2553(8)
C13 C 0.1714(6) 0.5503(11) 0.2053(5)
C14 C 0.1366(7) 0.4180(13) 0.1805(7)
C15 C 0.2209(6) 0.0317(12) 0.3054(6)
H5 H 0.252362 0.145846 0.326936
C16 C 0.1628(8) 0.0523(14) 0.2554(8)
H6 H 0.150186 0.176131 0.235704
C17 C 0.1475(7) 0.5948(13) 0.1709(6)
H7 H 0.192275 0.580917 0.224222
C18 C 0.1148(7) 0.4676(16) 0.1474(8)
H8 H 0.132439 0.355580 0.181564
H10 H 0.139333 0.027845 0.237966
N7 N 0.1187(5) 0.5524(10) 0.1421(4)
H11 H 0.151443 0.656790 0.167387
H12 H 0.095238 0.437423 0.126508
Zn3 Zn 0.07937(9) 0.62357(18) 0.09506(8)
I3 I 0.11470(5) 0.74156(10) 0.06298(6)
N8 N 0.0681(5) 0.5213(11) 0.0487(4)
I4 I 0.02022(7) 0.64393(15) 0.12958(5)
C19 C 0.0933(6) 0.5044(12) 0.0238(6)
C20 C 0.0360(5) 0.4680(13) 0.0471(6)
H13 H 0.114501 0.544861 0.023700
C22 C 0.0313(5) 0.3871(14) 0.0205(6)
H14 H 0.016574 0.483511 0.063452
H16 H 0.010149 0.346531 0.020458
N6 N 0.1894(6) 0.9983(9) 0.2795(6)
H9 H 0.238986 0.991989 0.322969
Zn2 Zn 0.17732(11) 0.86122(19) 0.27477(11)
C1_2 C 0.8282(5) 0.9496(12) 0.3965(6)
C3_2 C 0.7988(5) 0.9014(12) 0.3701(5)
H1_2 H 0.844773 0.919206 0.420129
C5_2 C 0.7740(5) 0.9441(10) 0.3358(4)
H3_2 H 0.795611 0.839776 0.375389
C6_2 C 0.7431(6) 0.9006(10) 0.3059(6)
N3_2 N 0.7371(4) 0.8143(9) 0.3114(4)
N4_2 N 0.7190(4) 0.9522(9) 0.2739(4)
C7_2 C 0.7068(5) 0.7793(11) 0.2811(6)
C8_2 C 0.6891(5) 0.9097(12) 0.2488(6)
N5_2 N 0.6815(5) 0.8251(10) 0.2513(5)
C9_2 C 0.6993(6) 0.6801(11) 0.2817(6)
C10_2 C 0.6646(5) 0.9588(11) 0.2123(6)
C11_2 C 0.7291(6) 0.6227(12) 0.3086(7)
C12_2 C 0.6686(7) 0.6403(14) 0.2553(8)
C14_2 C 0.6366(7) 0.9180(13) 0.1805(7)
C15_2 C 0.7209(6) 0.5317(12) 0.3054(6)
H5_2 H 0.752362 0.645846 0.326936
C16_2 C 0.6628(8) 0.5523(14) 0.2554(8)
H6_2 H 0.650186 0.676131 0.235704
C18_2 C 0.6148(7) 0.9676(16) 0.1474(8)
H8_2 H 0.632439 0.855580 0.181564
N6_2 N 0.6894(6) 0.4983(9) 0.2795(6)
H9_2 H 0.738986 0.491989 0.322969
H10_2 H 0.639333 0.527845 0.237966
H12_2 H 0.595238 0.937423 0.126508
Zn2_2 Zn 0.67732(11) 0.36122(19) 0.27477(11)
C20_2 C 0.5360(5) 0.9680(13) 0.0471(6)
C22_2 C 0.5313(5) 0.8871(14) 0.0205(6)
H14_2 H 0.516574 0.983511 0.063452
H16_2 H 0.510149 0.846531 0.020458
H17 H 0.479743 0.626857 0.005524
H21 H 0.426063 0.533024 0.001967
C21 C 0.5900(6) 0.9284(16) 0.9974(6)
C23 C 0.5592(4) 0.8732(11) 0.9956(5)
H15 H 0.609580 0.915922 0.980797
C24 C 0.5554(5) 0.7901(11) 0.9679(4)
N9 N 0.5256(5) 0.7324(11) 0.9736(4)
N10 N 0.5789(4) 0.7812(10) 0.9414(4)
C25 C 0.5204(6) 0.6650(12) 0.9442(6)
C26 C 0.5710(5) 0.7084(12) 0.9146(5)
N11 N 0.5429(5) 0.6506(11) 0.9135(5)
C27 C 0.4885(5) 0.6071(14) 0.9439(5)
C28 C 0.5981(5) 0.6903(14) 0.8846(5)
C29 C 0.4701(6) 0.5950(14) 0.9791(6)
C30 C 0.4712(8) 0.5643(19) 0.9031(8)
C31 C 0.5892(10) 0.629(2) 0.8524(10)
C32 C 0.6315(6) 0.7419(14) 0.8844(7)
C33 C 0.4378(5) 0.5374(12) 0.9770(6)
C34 C 0.4377(8) 0.507(2) 0.9044(9)
H18 H 0.481111 0.573111 0.877058
C35 C 0.6168(9) 0.607(2) 0.8275(10)
H19 H 0.564004 0.600740 0.846818
C36 C 0.6564(6) 0.7221(14) 0.8535(7)
H20 H 0.637972 0.789983 0.904492
H22 H 0.424806 0.478994 0.877897
N12 N 0.6475(5) 0.6565(11) 0.8259(5)
H23 H 0.613192 0.553162 0.810951
H24 H 0.679392 0.757037 0.853408
I5 I 0.62812(6) 0.66149(11) 0.70189(6)
I6 I 0.73877(7) 0.72895(13) 0.79769(8)
N13 N 0.4231(4) 0.4896(12) 0.9425(5)
Zn4 Zn 0.37802(6) 0.40019(17) 0.93657(7)
Zn5 Zn 0.67732(11) 0.63878(19) 0.77477(11)
N14 N 0.6894(6) 0.5017(9) 0.7795(6)
I2_2 I 0.40114(5) 0.26741(10) 0.89979(5)
N2_2 N 0.3354(4) 0.4642(10) 0.8914(4)
C1_3 C 0.3282(5) 0.5504(12) 0.8965(6)
C2_2 C 0.3128(5) 0.4222(11) 0.8570(6)
C3_3 C 0.2988(5) 0.5986(12) 0.8701(5)
H1_3 H 0.344773 0.580794 0.920129
C4_2 C 0.2819(6) 0.4619(12) 0.8289(6)
H2_2 H 0.318624 0.361709 0.851923
C5_3 C 0.2740(5) 0.5559(10) 0.8358(4)
H3_3 H 0.295611 0.660224 0.875389
H4_2 H 0.266043 0.429317 0.805572
C6_3 C 0.2431(6) 0.5994(10) 0.8059(6)
N3_3 N 0.2371(4) 0.6857(9) 0.8114(4)
N4_3 N 0.2190(4) 0.5478(9) 0.7739(4)
C7_3 C 0.2068(5) 0.7207(11) 0.7811(6)
C8_3 C 0.1891(5) 0.5903(12) 0.7488(6)
N5_3 N 0.1815(5) 0.6749(10) 0.7513(5)
C9_3 C 0.1993(6) 0.8199(11) 0.7817(6)
C10_3 C 0.1646(5) 0.5412(11) 0.7123(6)
C11_3 C 0.2291(6) 0.8773(12) 0.8086(7)
C12_3 C 0.1686(7) 0.8597(14) 0.7553(8)
C13_2 C 0.1714(6) 0.4497(11) 0.7053(5)
C14_3 C 0.1366(7) 0.5820(13) 0.6805(7)
C15_3 C 0.2209(6) 0.9683(12) 0.8054(6)
H5_3 H 0.252362 0.854154 0.826936
C16_3 C 0.1628(8) 0.9477(14) 0.7554(8)
H6_3 H 0.150186 0.823869 0.735704
C17_2 C 0.1475(7) 0.4052(13) 0.6709(6)
H7_2 H 0.192275 0.419083 0.724222
C18_3 C 0.1148(7) 0.5324(16) 0.6474(8)
H8_3 H 0.132439 0.644420 0.681564
H10_3 H 0.139333 0.972155 0.737966
N7_2 N 0.1187(5) 0.4476(10) 0.6421(4)
H11_2 H 0.151443 0.343210 0.667387
H12_3 H 0.095238 0.562577 0.626508
Zn3_2 Zn 0.07937(9) 0.37643(18) 0.59506(8)
I3_2 I 0.11470(5) 0.25844(10) 0.56298(6)
N8_2 N 0.0681(5) 0.4787(11) 0.5487(4)
I4_2 I 0.02022(7) 0.35607(15) 0.62958(5)
C19_2 C 0.0933(6) 0.4956(12) 0.5238(6)
C20_3 C 0.0360(5) 0.5320(13) 0.5471(6)
C21_2 C 0.0900(6) 0.5716(16) 0.4974(6)
H13_2 H 0.114501 0.455139 0.523700
C22_3 C 0.0313(5) 0.6129(14) 0.5205(6)
H14_3 H 0.016574 0.516489 0.563452
C23_2 C 0.0592(4) 0.6268(11) 0.4956(5)
H15_2 H 0.109580 0.584078 0.480797
H16_3 H 0.010149 0.653469 0.520458
C24_2 C 0.0554(5) 0.7099(11) 0.4679(4)
N9_2 N 0.0256(5) 0.7676(11) 0.4736(4)
N10_2 N 0.0789(4) 0.7188(10) 0.4414(4)
C25_2 C 0.0204(6) 0.8350(12) 0.4442(6)
C26_2 C 0.0710(5) 0.7916(12) 0.4146(5)
N11_2 N 0.0429(5) 0.8494(11) 0.4135(5)
C28_2 C 0.0981(5) 0.8097(14) 0.3846(5)
C31_2 C 0.0892(10) 0.871(2) 0.3524(10)
C32_2 C 0.1315(6) 0.7581(14) 0.3844(7)
C35_2 C 0.1168(9) 0.893(2) 0.3275(10)
H19_2 H 0.064004 0.899260 0.346818
C36_2 C 0.1564(6) 0.7779(14) 0.3535(7)
H20_2 H 0.137972 0.710017 0.404492
N12_2 N 0.1475(5) 0.8435(11) 0.3259(5)
H23_2 H 0.113192 0.946838 0.310951
H24_2 H 0.179392 0.742963 0.353408
I5_2 I 0.12812(6) 0.83851(11) 0.20189(6)
I6_2 I 0.23877(7) 0.77105(13) 0.29769(8)
C1_4 C 0.8282(5) 0.0504(12) 0.8965(6)
C3_4 C 0.7988(5) 0.0986(12) 0.8701(5)
H1_4 H 0.844773 0.080794 0.920129
C5_4 C 0.7740(5) 0.0559(10) 0.8358(4)
H3_4 H 0.795611 0.160224 0.875389
C6_4 C 0.7431(6) 0.0994(10) 0.8059(6)
N3_4 N 0.7371(4) 0.1857(9) 0.8114(4)
N4_4 N 0.7190(4) 0.0478(9) 0.7739(4)
C7_4 C 0.7068(5) 0.2207(11) 0.7811(6)
C8_4 C 0.6891(5) 0.0903(12) 0.7488(6)
N5_4 N 0.6815(5) 0.1749(10) 0.7513(5)
C9_4 C 0.6993(6) 0.3199(11) 0.7817(6)
C10_4 C 0.6646(5) 0.0412(11) 0.7123(6)
C11_4 C 0.7291(6) 0.3773(12) 0.8086(7)
C12_4 C 0.6686(7) 0.3597(14) 0.7553(8)
C14_4 C 0.6366(7) 0.0820(13) 0.6805(7)
C15_4 C 0.7209(6) 0.4683(12) 0.8054(6)
H5_4 H 0.752362 0.354154 0.826936
C16_4 C 0.6628(8) 0.4477(14) 0.7554(8)
H6_4 H 0.650186 0.323869 0.735704
C18_4 C 0.6148(7) 0.0324(16) 0.6474(8)
H8_4 H 0.632439 0.144420 0.681564
H9_3 H 0.738986 0.508011 0.822969
H10_4 H 0.639333 0.472155 0.737966
H12_4 H 0.595238 0.062577 0.626508
C20_4 C 0.5360(5) 0.0320(13) 0.5471(6)
C21_3 C 0.5900(6) 0.0716(16) 0.4974(6)
C22_4 C 0.5313(5) 0.1129(14) 0.5205(6)
H14_4 H 0.516574 0.016489 0.563452
C23_3 C 0.5592(4) 0.1268(11) 0.4956(5)
H15_3 H 0.609580 0.084078 0.480797
H16_4 H 0.510149 0.153469 0.520458
C24_3 C 0.5554(5) 0.2099(11) 0.4679(4)
N9_3 N 0.5256(5) 0.2676(11) 0.4736(4)
N10_3 N 0.5789(4) 0.2188(10) 0.4414(4)
C25_3 C 0.5204(6) 0.3350(12) 0.4442(6)
C26_3 C 0.5710(5) 0.2916(12) 0.4146(5)
N11_3 N 0.5429(5) 0.3494(11) 0.4135(5)
C27_2 C 0.4885(5) 0.3929(14) 0.4439(5)
C28_3 C 0.5981(5) 0.3097(14) 0.3846(5)
C29_2 C 0.4701(6) 0.4050(14) 0.4791(6)
C30_2 C 0.4712(8) 0.4357(19) 0.4031(8)
C31_3 C 0.5892(10) 0.371(2) 0.3524(10)
C32_3 C 0.6315(6) 0.2581(14) 0.3844(7)
C33_2 C 0.4378(5) 0.4626(12) 0.4770(6)
H17_2 H 0.479743 0.373143 0.505524
C34_2 C 0.4377(8) 0.493(2) 0.4044(9)
H18_2 H 0.481111 0.426889 0.377058
C35_3 C 0.6168(9) 0.393(2) 0.3275(10)
H19_3 H 0.564004 0.399260 0.346818
C36_3 C 0.6564(6) 0.2779(14) 0.3535(7)
H20_3 H 0.637972 0.210017 0.404492
H21_2 H 0.426063 0.466976 0.501967
H22_2 H 0.424806 0.521006 0.377897
N12_3 N 0.6475(5) 0.3435(11) 0.3259(5)
H23_3 H 0.613192 0.446838 0.310951
H24_3 H 0.679392 0.242963 0.353408
I5_3 I 0.62812(6) 0.33851(11) 0.20189(6)
I6_3 I 0.73877(7) 0.27105(13) 0.29769(8)
C21_4 C 0.0900(6) 0.4284(16) 0.9974(6)
C23_4 C 0.0592(4) 0.3732(11) 0.9956(5)
H15_4 H 0.109580 0.415922 0.980797
C24_4 C 0.0554(5) 0.2901(11) 0.9679(4)
N9_4 N 0.0256(5) 0.2324(11) 0.9736(4)
N10_4 N 0.0789(4) 0.2812(10) 0.9414(4)
C25_4 C 0.0204(6) 0.1650(12) 0.9442(6)
C26_4 C 0.0710(5) 0.2084(12) 0.9146(5)
N11_4 N 0.0429(5) 0.1506(11) 0.9135(5)
C28_4 C 0.0981(5) 0.1903(14) 0.8846(5)
C31_4 C 0.0892(10) 0.129(2) 0.8524(10)
C32_4 C 0.1315(6) 0.2419(14) 0.8844(7)
C35_4 C 0.1168(9) 0.107(2) 0.8275(10)
H19_4 H 0.064004 0.100740 0.846818
C36_4 C 0.1564(6) 0.2221(14) 0.8535(7)
H20_4 H 0.137972 0.289983 0.904492
N12_4 N 0.1475(5) 0.1565(11) 0.8259(5)
H23_4 H 0.113192 0.053162 0.810951
H24_4 H 0.179392 0.257037 0.853408
I5_4 I 0.12812(6) 0.16149(11) 0.70189(6)
I6_4 I 0.23877(7) 0.22895(13) 0.79769(8)
Zn5_2 Zn 0.17732(11) 0.13878(19) 0.77477(11)
N14_2 N 0.1894(6) 0.0017(9) 0.7795(6)
H9_4 H 0.238986 0.008011 0.822969
H17_3 H 0.979743 0.126857 0.005524
H21_3 H 0.926063 0.033024 0.001967
C27_3 C 0.9885(5) 0.1071(14) 0.9439(5)
C29_3 C 0.9701(6) 0.0950(14) 0.9791(6)
C30_3 C 0.9712(8) 0.0643(19) 0.9031(8)
C33_3 C 0.9378(5) 0.0374(12) 0.9770(6)
C34_3 C 0.9377(8) 0.007(2) 0.9044(9)
H18_3 H 0.981111 0.073111 0.877058
H22_3 H 0.924806 0.978994 0.877897
N13_2 N 0.9231(4) 0.9896(12) 0.9425(5)
Zn4_2 Zn 0.87802(6) 0.90019(17) 0.93657(7)
I2_3 I 0.90114(5) 0.76741(10) 0.89979(5)
N2_3 N 0.8354(4) 0.9642(10) 0.8914(4)
C2_3 C 0.8128(5) 0.9222(11) 0.8570(6)
C4_3 C 0.7819(6) 0.9619(12) 0.8289(6)
H2_3 H 0.818624 0.861709 0.851923
H4_3 H 0.766043 0.929317 0.805572
C13_3 C 0.6714(6) 0.9497(11) 0.7053(5)
C17_3 C 0.6475(7) 0.9052(13) 0.6709(6)
H7_3 H 0.692275 0.919083 0.724222
N7_3 N 0.6187(5) 0.9476(10) 0.6421(4)
H11_3 H 0.651443 0.843210 0.667387
Zn3_3 Zn 0.57937(9) 0.87643(18) 0.59506(8)
I3_3 I 0.61470(5) 0.75844(10) 0.56298(6)
N8_3 N 0.5681(5) 0.9787(11) 0.5487(4)
I4_3 I 0.52022(7) 0.85607(15) 0.62958(5)
C19_3 C 0.5933(6) 0.9956(12) 0.5238(6)
H13_3 H 0.614501 0.955139 0.523700
C27_4 C 0.0115(5) 0.1071(14) 0.5561(5)
C29_4 C 0.0299(6) 0.0950(14) 0.5209(6)
C30_4 C 0.0288(8) 0.0643(19) 0.5969(8)
C33_4 C 0.0622(5) 0.0374(12) 0.5230(6)
H17_4 H 0.020257 0.126857 0.494476
C34_4 C 0.0623(8) 0.007(2) 0.5956(9)
H18_4 H 0.018889 0.073111 0.622942
H21_4 H 0.073937 0.033024 0.498033
H22_4 H 0.075194 0.978994 0.622103
N13_3 N 0.0769(4) 0.9896(12) 0.5575(5)
Zn4_3 Zn 0.12198(6) 0.90019(17) 0.56343(7)
I1_2 I 0.14754(4) 0.90058(10) 0.49336(4)
I2_4 I 0.09886(5) 0.76741(10) 0.60021(5)
N2_4 N 0.1646(4) 0.9642(10) 0.6086(4)
C2_4 C 0.1872(5) 0.9222(11) 0.6430(6)
C4_4 C 0.2181(6) 0.9619(12) 0.6711(6)
H2_4 H 0.181376 0.861709 0.648077
H4_4 H 0.233957 0.929317 0.694428
C13_4 C 0.3286(6) 0.9497(11) 0.7947(5)
C17_4 C 0.3525(7) 0.9052(13) 0.8291(6)
H7_4 H 0.307725 0.919083 0.775778
N7_4 N 0.3813(5) 0.9476(10) 0.8579(4)
H11_4 H 0.348557 0.843210 0.832613
Zn3_4 Zn 0.42063(9) 0.87643(18) 0.90494(8)
I3_4 I 0.38530(5) 0.75844(10) 0.93702(6)
N8_4 N 0.4319(5) 0.9787(11) 0.9513(4)
I4_4 I 0.47978(7) 0.85607(15) 0.87042(5)
C19_4 C 0.4067(6) 0.9956(12) 0.9762(6)
H13_4 H 0.385499 0.955139 0.976300
Zn1_2 Zn 0.62198(6) 0.59981(17) 0.06343(7)
I2_5 I 0.59886(5) 0.73259(10) 0.10021(5)
N1_2 N 0.5769(4) 0.5104(12) 0.0575(5)
N2_5 N 0.6646(4) 0.5358(10) 0.1086(4)
C1_5 C 0.6718(5) 0.4496(12) 0.1035(6)
C2_5 C 0.6872(5) 0.5778(11) 0.1430(6)
C3_5 C 0.7012(5) 0.4014(12) 0.1299(5)
H1_5 H 0.655227 0.419206 0.079871
C4_5 C 0.7181(6) 0.5381(12) 0.1711(6)
H2_5 H 0.681376 0.638291 0.148077
C5_5 C 0.7260(5) 0.4441(10) 0.1642(4)
H3_5 H 0.704389 0.339776 0.124611
H4_5 H 0.733957 0.570683 0.194428
C6_5 C 0.7569(6) 0.4006(10) 0.1941(6)
N3_5 N 0.7629(4) 0.3143(9) 0.1886(4)
N4_5 N 0.7810(4) 0.4522(9) 0.2261(4)
C7_5 C 0.7932(5) 0.2793(11) 0.2189(6)
C8_5 C 0.8109(5) 0.4097(12) 0.2512(6)
N5_5 N 0.8185(5) 0.3251(10) 0.2487(5)
C9_5 C 0.8007(6) 0.1801(11) 0.2183(6)
C10_5 C 0.8354(5) 0.4588(11) 0.2877(6)
C11_5 C 0.7709(6) 0.1227(12) 0.1914(7)
C12_5 C 0.8314(7) 0.1403(14) 0.2447(8)
C13_5 C 0.8286(6) 0.5503(11) 0.2947(5)
C14_5 C 0.8634(7) 0.4180(13) 0.3195(7)
C15_5 C 0.7791(6) 0.0317(12) 0.1946(6)
H5_5 H 0.747638 0.145846 0.173064
C16_5 C 0.8372(8) 0.0523(14) 0.2446(8)
H6_5 H 0.849814 0.176131 0.264296
C17_5 C 0.8525(7) 0.5948(13) 0.3291(6)
H7_5 H 0.807725 0.580917 0.275778
C18_5 C 0.8852(7) 0.4676(16) 0.3526(8)
H8_5 H 0.867561 0.355580 0.318436
H10_5 H 0.860667 0.027845 0.262034
N7_5 N 0.8813(5) 0.5524(10) 0.3579(4)
H11_5 H 0.848557 0.656790 0.332613
H12_5 H 0.904762 0.437423 0.373492
Zn3_5 Zn 0.92063(9) 0.62357(18) 0.40494(8)
I3_5 I 0.88530(5) 0.74156(10) 0.43702(6)
N8_5 N 0.9319(5) 0.5213(11) 0.4513(4)
I4_5 I 0.97978(7) 0.64393(15) 0.37042(5)
C19_5 C 0.9067(6) 0.5044(12) 0.4762(6)
C20_5 C 0.9640(5) 0.4680(13) 0.4529(6)
C21_5 C 0.9100(6) 0.4284(16) 0.5026(6)
H13_5 H 0.885499 0.544861 0.476300
C22_5 C 0.9687(5) 0.3871(14) 0.4795(6)
H14_5 H 0.983426 0.483511 0.436548
C23_5 C 0.9408(4) 0.3732(11) 0.5044(5)
H15_5 H 0.890420 0.415922 0.519203
H16_5 H 0.989851 0.346531 0.479542
C24_5 C 0.9446(5) 0.2901(11) 0.5321(4)
N9_5 N 0.9744(5) 0.2324(11) 0.5264(4)
N10_5 N 0.9211(4) 0.2812(10) 0.5586(4)
C25_5 C 0.9796(6) 0.1650(12) 0.5558(6)
C26_5 C 0.9290(5) 0.2084(12) 0.5854(5)
N11_5 N 0.9571(5) 0.1506(11) 0.5865(5)
C28_5 C 0.9019(5) 0.1903(14) 0.6154(5)
C31_5 C 0.9108(10) 0.129(2) 0.6476(10)
C32_5 C 0.8685(6) 0.2419(14) 0.6156(7)
C35_5 C 0.8832(9) 0.107(2) 0.6725(10)
H19_5 H 0.935996 0.100740 0.653182
C36_5 C 0.8436(6) 0.2221(14) 0.6465(7)
H20_5 H 0.862028 0.289983 0.595508
N12_5 N 0.8525(5) 0.1565(11) 0.6741(5)
H23_5 H 0.886808 0.053162 0.689049
H24_5 H 0.820608 0.257037 0.646592
I5_5 I 0.87188(6) 0.16149(11) 0.79811(6)
I6_5 I 0.76123(7) 0.22895(13) 0.70231(8)
Zn5_3 Zn 0.82268(11) 0.13878(19) 0.72523(11)
N14_3 N 0.8106(6) 0.0017(9) 0.7205(6)
C1_6 C 0.1718(5) 0.9496(12) 0.1035(6)
C3_6 C 0.2012(5) 0.9014(12) 0.1299(5)
H1_6 H 0.155227 0.919206 0.079871
C5_6 C 0.2260(5) 0.9441(10) 0.1642(4)
H3_6 H 0.204389 0.839776 0.124611
C6_6 C 0.2569(6) 0.9006(10) 0.1941(6)
N3_6 N 0.2629(4) 0.8143(9) 0.1886(4)
N4_6 N 0.2810(4) 0.9522(9) 0.2261(4)
C7_6 C 0.2932(5) 0.7793(11) 0.2189(6)
C8_6 C 0.3109(5) 0.9097(12) 0.2512(6)
N5_6 N 0.3185(5) 0.8251(10) 0.2487(5)
C9_6 C 0.3007(6) 0.6801(11) 0.2183(6)
C10_6 C 0.3354(5) 0.9588(11) 0.2877(6)
C11_6 C 0.2709(6) 0.6227(12) 0.1914(7)
C12_6 C 0.3314(7) 0.6403(14) 0.2447(8)
C14_6 C 0.3634(7) 0.9180(13) 0.3195(7)
C15_6 C 0.2791(6) 0.5317(12) 0.1946(6)
H5_6 H 0.247638 0.645846 0.173064
C16_6 C 0.3372(8) 0.5523(14) 0.2446(8)
H6_6 H 0.349814 0.676131 0.264296
C18_6 C 0.3852(7) 0.9676(16) 0.3526(8)
H8_6 H 0.367561 0.855580 0.318436
N6_3 N 0.3106(6) 0.4983(9) 0.2205(6)
H9_5 H 0.261014 0.491989 0.177031
H10_6 H 0.360667 0.527845 0.262034
H12_6 H 0.404762 0.937423 0.373492
Zn2_3 Zn 0.32268(11) 0.36122(19) 0.22523(11)
C20_6 C 0.4640(5) 0.9680(13) 0.4529(6)
C21_6 C 0.4100(6) 0.9284(16) 0.5026(6)
C22_6 C 0.4687(5) 0.8871(14) 0.4795(6)
H14_6 H 0.483426 0.983511 0.436548
C23_6 C 0.4408(4) 0.8732(11) 0.5044(5)
H15_6 H 0.390420 0.915922 0.519203
H16_6 H 0.489851 0.846531 0.479542
C24_6 C 0.4446(5) 0.7901(11) 0.5321(4)
N9_6 N 0.4744(5) 0.7324(11) 0.5264(4)
N10_6 N 0.4211(4) 0.7812(10) 0.5586(4)
C25_6 C 0.4796(6) 0.6650(12) 0.5558(6)
C26_6 C 0.4290(5) 0.7084(12) 0.5854(5)
N11_6 N 0.4571(5) 0.6506(11) 0.5865(5)
C27_5 C 0.5115(5) 0.6071(14) 0.5561(5)
C28_6 C 0.4019(5) 0.6903(14) 0.6154(5)
C29_5 C 0.5299(6) 0.5950(14) 0.5209(6)
C30_5 C 0.5288(8) 0.5643(19) 0.5969(8)
C31_6 C 0.4108(10) 0.629(2) 0.6476(10)
C32_6 C 0.3685(6) 0.7419(14) 0.6156(7)
C33_5 C 0.5622(5) 0.5374(12) 0.5230(6)
H17_5 H 0.520257 0.626857 0.494476
C34_5 C 0.5623(8) 0.507(2) 0.5956(9)
H18_5 H 0.518889 0.573111 0.622942
C35_6 C 0.3832(9) 0.607(2) 0.6725(10)
H19_6 H 0.435996 0.600740 0.653182
C36_6 C 0.3436(6) 0.7221(14) 0.6465(7)
H20_6 H 0.362028 0.789983 0.595508
H21_5 H 0.573937 0.533024 0.498033
H22_5 H 0.575194 0.478994 0.622103
N12_6 N 0.3525(5) 0.6565(11) 0.6741(5)
H23_6 H 0.386808 0.553162 0.689049
H24_6 H 0.320608 0.757037 0.646592
I5_6 I 0.37188(6) 0.66149(11) 0.79811(6)
I6_6 I 0.26123(7) 0.72895(13) 0.70231(8)
N13_4 N 0.5769(4) 0.4896(12) 0.5575(5)
Zn4_4 Zn 0.62198(6) 0.40019(17) 0.56343(7)
Zn5_4 Zn 0.32268(11) 0.63878(19) 0.72523(11)
N14_4 N 0.3106(6) 0.5017(9) 0.7205(6)
H9_6 H 0.761014 0.008011 0.677031
I1_3 I 0.64754(4) 0.40058(10) 0.49336(4)
I2_6 I 0.59886(5) 0.26741(10) 0.60021(5)
N2_6 N 0.6646(4) 0.4642(10) 0.6086(4)
C1_7 C 0.6718(5) 0.5504(12) 0.6035(6)
C2_6 C 0.6872(5) 0.4222(11) 0.6430(6)
C3_7 C 0.7012(5) 0.5986(12) 0.6299(5)
H1_7 H 0.655227 0.580794 0.579871
C4_6 C 0.7181(6) 0.4619(12) 0.6711(6)
H2_6 H 0.681376 0.361709 0.648077
C5_7 C 0.7260(5) 0.5559(10) 0.6642(4)
H3_7 H 0.704389 0.660224 0.624611
H4_6 H 0.733957 0.429317 0.694428
C6_7 C 0.7569(6) 0.5994(10) 0.6941(6)
N3_7 N 0.7629(4) 0.6857(9) 0.6886(4)
N4_7 N 0.7810(4) 0.5478(9) 0.7261(4)
C7_7 C 0.7932(5) 0.7207(11) 0.7189(6)
C8_7 C 0.8109(5) 0.5903(12) 0.7512(6)
N5_7 N 0.8185(5) 0.6749(10) 0.7487(5)
C9_7 C 0.8007(6) 0.8199(11) 0.7183(6)
C10_7 C 0.8354(5) 0.5412(11) 0.7877(6)
C11_7 C 0.7709(6) 0.8773(12) 0.6914(7)
C12_7 C 0.8314(7) 0.8597(14) 0.7447(8)
C13_6 C 0.8286(6) 0.4497(11) 0.7947(5)
C14_7 C 0.8634(7) 0.5820(13) 0.8195(7)
C15_7 C 0.7791(6) 0.9683(12) 0.6946(6)
H5_7 H 0.747638 0.854154 0.673064
C16_7 C 0.8372(8) 0.9477(14) 0.7446(8)
H6_7 H 0.849814 0.823869 0.764296
C17_6 C 0.8525(7) 0.4052(13) 0.8291(6)
H7_6 H 0.807725 0.419083 0.775778
C18_7 C 0.8852(7) 0.5324(16) 0.8526(8)
H8_7 H 0.867561 0.644420 0.818436
H10_7 H 0.860667 0.972155 0.762034
N7_6 N 0.8813(5) 0.4476(10) 0.8579(4)
H11_6 H 0.848557 0.343210 0.832613
H12_7 H 0.904762 0.562577 0.873492
Zn3_6 Zn 0.92063(9) 0.37643(18) 0.90494(8)
I3_6 I 0.88530(5) 0.25844(10) 0.93702(6)
N8_6 N 0.9319(5) 0.4787(11) 0.9513(4)
I4_6 I 0.97978(7) 0.35607(15) 0.87042(5)
C19_6 C 0.9067(6) 0.4956(12) 0.9762(6)
C20_7 C 0.9640(5) 0.5320(13) 0.9529(6)
H13_6 H 0.885499 0.455139 0.976300
C22_7 C 0.9687(5) 0.6129(14) 0.9795(6)
H14_7 H 0.983426 0.516489 0.936548
H16_7 H 0.989851 0.653469 0.979542
C21_7 C 0.4100(6) 0.0716(16) 0.0026(6)
C23_7 C 0.4408(4) 0.1268(11) 0.0044(5)
H15_7 H 0.390420 0.084078 0.019203
C24_7 C 0.4446(5) 0.2099(11) 0.0321(4)
N9_7 N 0.4744(5) 0.2676(11) 0.0264(4)
N10_7 N 0.4211(4) 0.2188(10) 0.0586(4)
C25_7 C 0.4796(6) 0.3350(12) 0.0558(6)
C26_7 C 0.4290(5) 0.2916(12) 0.0854(5)
N11_7 N 0.4571(5) 0.3494(11) 0.0865(5)
C27_6 C 0.5115(5) 0.3929(14) 0.0561(5)
C28_7 C 0.4019(5) 0.3097(14) 0.1154(5)
C29_6 C 0.5299(6) 0.4050(14) 0.0209(6)
C30_6 C 0.5288(8) 0.4357(19) 0.0969(8)
C31_7 C 0.4108(10) 0.371(2) 0.1476(10)
C32_7 C 0.3685(6) 0.2581(14) 0.1156(7)
C33_6 C 0.5622(5) 0.4626(12) 0.0230(6)
C34_6 C 0.5623(8) 0.493(2) 0.0956(9)
H18_6 H 0.518889 0.426889 0.122942
C35_7 C 0.3832(9) 0.393(2) 0.1725(10)
H19_7 H 0.435996 0.399260 0.153182
C36_7 C 0.3436(6) 0.2779(14) 0.1465(7)
H20_7 H 0.362028 0.210017 0.095508
H22_6 H 0.575194 0.521006 0.122103
N12_7 N 0.3525(5) 0.3435(11) 0.1741(5)
H23_7 H 0.386808 0.446838 0.189049
H24_7 H 0.320608 0.242963 0.146592
I5_7 I 0.37188(6) 0.33851(11) 0.29811(6)
I6_7 I 0.26123(7) 0.27105(13) 0.20231(8)
C1_8 C 0.1718(5) 0.0504(12) 0.6035(6)
C3_8 C 0.2012(5) 0.0986(12) 0.6299(5)
H1_8 H 0.155227 0.080794 0.579871
C5_8 C 0.2260(5) 0.0559(10) 0.6642(4)
H3_8 H 0.204389 0.160224 0.624611
C6_8 C 0.2569(6) 0.0994(10) 0.6941(6)
N3_8 N 0.2629(4) 0.1857(9) 0.6886(4)
N4_8 N 0.2810(4) 0.0478(9) 0.7261(4)
C7_8 C 0.2932(5) 0.2207(11) 0.7189(6)
C8_8 C 0.3109(5) 0.0903(12) 0.7512(6)
N5_8 N 0.3185(5) 0.1749(10) 0.7487(5)
C9_8 C 0.3007(6) 0.3199(11) 0.7183(6)
C10_8 C 0.3354(5) 0.0412(11) 0.7877(6)
C11_8 C 0.2709(6) 0.3773(12) 0.6914(7)
C12_8 C 0.3314(7) 0.3597(14) 0.7447(8)
C14_8 C 0.3634(7) 0.0820(13) 0.8195(7)
C15_8 C 0.2791(6) 0.4683(12) 0.6946(6)
H5_8 H 0.247638 0.354154 0.673064
C16_8 C 0.3372(8) 0.4477(14) 0.7446(8)
H6_8 H 0.349814 0.323869 0.764296
C18_8 C 0.3852(7) 0.0324(16) 0.8526(8)
H8_8 H 0.367561 0.144420 0.818436
H9_7 H 0.261014 0.508011 0.677031
H10_8 H 0.360667 0.472155 0.762034
H12_8 H 0.404762 0.062577 0.873492
C20_8 C 0.4640(5) 0.0320(13) 0.9529(6)
C22_8 C 0.4687(5) 0.1129(14) 0.9795(6)
H14_8 H 0.483426 0.016489 0.936548
H16_8 H 0.489851 0.153469 0.979542
H17_6 H 0.520257 0.373143 0.994476
H21_6 H 0.573937 0.466976 0.998033
I1_4 I 0.64754(4) 0.59942(10) 0.99336(4)
N6_4 N 0.8106(6) 0.9983(9) 0.2205(6)
H9_8 H 0.761014 0.991989 0.177031
Zn2_4 Zn 0.82268(11) 0.86122(19) 0.22523(11)
C21_8 C 0.9100(6) 0.5716(16) 0.0026(6)
C23_8 C 0.9408(4) 0.6268(11) 0.0044(5)
H15_8 H 0.890420 0.584078 0.019203
C24_8 C 0.9446(5) 0.7099(11) 0.0321(4)
N9_8 N 0.9744(5) 0.7676(11) 0.0264(4)
N10_8 N 0.9211(4) 0.7188(10) 0.0586(4)
C25_8 C 0.9796(6) 0.8350(12) 0.0558(6)
C26_8 C 0.9290(5) 0.7916(12) 0.0854(5)
N11_8 N 0.9571(5) 0.8494(11) 0.0865(5)
C28_8 C 0.9019(5) 0.8097(14) 0.1154(5)
C31_8 C 0.9108(10) 0.871(2) 0.1476(10)
C32_8 C 0.8685(6) 0.7581(14) 0.1156(7)
C35_8 C 0.8832(9) 0.893(2) 0.1725(10)
H19_8 H 0.935996 0.899260 0.153182
C36_8 C 0.8436(6) 0.7779(14) 0.1465(7)
H20_8 H 0.862028 0.710017 0.095508
N12_8 N 0.8525(5) 0.8435(11) 0.1741(5)
H23_8 H 0.886808 0.946838 0.189049
H24_8 H 0.820608 0.742963 0.146592
I5_8 I 0.87188(6) 0.83851(11) 0.29811(6)
I6_8 I 0.76123(7) 0.77105(13) 0.20231(8)
I1_5 I 0.85246(4) 0.09942(10) 0.50664(4)
Zn1_3 Zn 0.87802(6) 0.09981(17) 0.43657(7)
I2_7 I 0.90114(5) 0.23259(10) 0.39979(5)
N1_3 N 0.9231(4) 0.0104(12) 0.4425(5)
N2_7 N 0.8354(4) 0.0358(10) 0.3914(4)
C2_7 C 0.8128(5) 0.0778(11) 0.3570(6)
C4_7 C 0.7819(6) 0.0381(12) 0.3289(6)
H2_7 H 0.818624 0.138291 0.351923
H4_7 H 0.766043 0.070683 0.305572
C13_7 C 0.6714(6) 0.0503(11) 0.2053(5)
C17_7 C 0.6475(7) 0.0948(13) 0.1709(6)
H7_7 H 0.692275 0.080917 0.224222
N7_7 N 0.6187(5) 0.0524(10) 0.1421(4)
H11_7 H 0.651443 0.156790 0.167387
Zn3_7 Zn 0.57937(9) 0.12357(18) 0.09506(8)
I3_7 I 0.61470(5) 0.24156(10) 0.06298(6)
N8_7 N 0.5681(5) 0.0213(11) 0.0487(4)
I4_7 I 0.52022(7) 0.14393(15) 0.12958(5)
C19_7 C 0.5933(6) 0.0044(12) 0.0238(6)
H13_7 H 0.614501 0.044861 0.023700
H22_7 H 0.924806 0.021006 0.377897
Zn1_4 Zn 0.12198(6) 0.09981(17) 0.06343(7)
I2_8 I 0.09886(5) 0.23259(10) 0.10021(5)
N1_4 N 0.0769(4) 0.0104(12) 0.0575(5)
N2_8 N 0.1646(4) 0.0358(10) 0.1086(4)
C2_8 C 0.1872(5) 0.0778(11) 0.1430(6)
C4_8 C 0.2181(6) 0.0381(12) 0.1711(6)
H2_8 H 0.181376 0.138291 0.148077
H4_8 H 0.233957 0.070683 0.194428
C13_8 C 0.3286(6) 0.0503(11) 0.2947(5)
C17_8 C 0.3525(7) 0.0948(13) 0.3291(6)
H7_8 H 0.307725 0.080917 0.275778
N7_8 N 0.3813(5) 0.0524(10) 0.3579(4)
H11_8 H 0.348557 0.156790 0.332613
Zn3_8 Zn 0.42063(9) 0.12357(18) 0.40494(8)
I3_8 I 0.38530(5) 0.24156(10) 0.43702(6)
N8_8 N 0.4319(5) 0.0213(11) 0.4513(4)
I4_8 I 0.47978(7) 0.14393(15) 0.37042(5)
C19_8 C 0.4067(6) 0.0044(12) 0.4762(6)
H13_8 H 0.385499 0.044861 0.476300
H22_8 H 0.075194 0.021006 0.122103
I1_6 I 0.14754(4) 0.09942(10) 0.99336(4)
C27_7 C 0.0115(5) 0.8929(14) 0.0561(5)
C29_7 C 0.0299(6) 0.9050(14) 0.0209(6)
C30_7 C 0.0288(8) 0.9357(19) 0.0969(8)
C33_7 C 0.0622(5) 0.9626(12) 0.0230(6)
C34_7 C 0.0623(8) 0.993(2) 0.0956(9)
H18_7 H 0.018889 0.926889 0.122942
H17_7 H 0.020257 0.873143 0.994476
H21_7 H 0.073937 0.966976 0.998033
I1_7 I 0.35246(4) 0.40058(10) 0.00664(4)
C27_8 C 0.9885(5) 0.8929(14) 0.4439(5)
C29_8 C 0.9701(6) 0.9050(14) 0.4791(6)
C30_8 C 0.9712(8) 0.9357(19) 0.4031(8)
C33_8 C 0.9378(5) 0.9626(12) 0.4770(6)
H17_8 H 0.979743 0.873143 0.505524
C34_8 C 0.9377(8) 0.993(2) 0.4044(9)
H18_8 H 0.981111 0.926889 0.377058
H21_8 H 0.926063 0.966976 0.501967
I1_8 I 0.85246(4) 0.90058(10) 0.00664(4)
loop_
_geom_bond_atom_site_label_1
_geom_bond_atom_site_label_2
_geom_bond_site_symmetry_1
_geom_bond_site_symmetry_2
I1 Zn1 1_555 1_555
Zn1 I2 1_555 1_555
N1 Zn1 1_555 1_555
N2 Zn1 1_555 1_555
C1 N2 1_555 1_555
C2 N2 1_555 1_555
C3 C1 1_555 1_555
H1 C1 1_555 1_555
C4 C2 1_555 1_555
H2 C2 1_555 1_555
C5 C3 1_555 1_555
H3 C3 1_555 1_555
H4 C4 1_555 1_555
C6 C5 1_555 1_555
N3 C6 1_555 1_555
N4 C6 1_555 1_555
C7 N3 1_555 1_555
C8 N4 1_555 1_555
N5 C7 1_555 1_555
C9 C7 1_555 1_555
C10 C8 1_555 1_555
C11 C9 1_555 1_555
C12 C9 1_555 1_555
C13 C10 1_555 1_555
C14 C10 1_555 1_555
C15 C11 1_555 1_555
H5 C11 1_555 1_555
C16 C12 1_555 1_555
H6 C12 1_555 1_555
C17 C13 1_555 1_555
H7 C13 1_555 1_555
C18 C14 1_555 1_555
H8 C14 1_555 1_555
H10 C16 1_555 1_555
N7 C17 1_555 1_555
H11 C17 1_555 1_555
H12 C18 1_555 1_555
Zn3 N7 1_555 1_555
I3 Zn3 1_555 1_555
N8 Zn3 1_555 1_555
I4 Zn3 1_555 1_555
C19 N8 1_555 1_555
C20 N8 1_555 1_555
H13 C19 1_555 1_555
C22 C20 1_555 1_555
H14 C20 1_555 1_555
H16 C22 1_555 1_555
C4 C5 1_555 1_555
C8 N5 1_555 1_555
C18 N7 1_555 1_555
Zn2 N6 1_555 1_555
C3_2 C1_2 1_555 1_555
H1_2 C1_2 1_555 1_555
C5_2 C3_2 1_555 1_555
H3_2 C3_2 1_555 1_555
C6_2 C5_2 1_555 1_555
N3_2 C6_2 1_555 1_555
N4_2 C6_2 1_555 1_555
C7_2 N3_2 1_555 1_555
C8_2 N4_2 1_555 1_555
N5_2 C7_2 1_555 1_555
C9_2 C7_2 1_555 1_555
C10_2 C8_2 1_555 1_555
C11_2 C9_2 1_555 1_555
C12_2 C9_2 1_555 1_555
C14_2 C10_2 1_555 1_555
C15_2 C11_2 1_555 1_555
H5_2 C11_2 1_555 1_555
C16_2 C12_2 1_555 1_555
H6_2 C12_2 1_555 1_555
C18_2 C14_2 1_555 1_555
H8_2 C14_2 1_555 1_555
N6_2 C15_2 1_555 1_555
H9_2 C15_2 1_555 1_555
H10_2 C16_2 1_555 1_555
H12_2 C18_2 1_555 1_555
Zn2_2 N6_2 1_555 1_555
C22_2 C20_2 1_555 1_555
H14_2 C20_2 1_555 1_555
H16_2 C22_2 1_555 1_555
C8_2 N5_2 1_555 1_555
C16_2 N6_2 1_555 1_555
C23 C21 1_555 1_555
H15 C21 1_555 1_555
C24 C23 1_555 1_555
N9 C24 1_555 1_555
N10 C24 1_555 1_555
C25 N9 1_555 1_555
C26 N10 1_555 1_555
N11 C25 1_555 1_555
C27 C25 1_555 1_555
C28 C26 1_555 1_555
C29 C27 1_555 1_555
C30 C27 1_555 1_555
C31 C28 1_555 1_555
C32 C28 1_555 1_555
C33 C29 1_555 1_555
C34 C30 1_555 1_555
H18 C30 1_555 1_555
C35 C31 1_555 1_555
H19 C31 1_555 1_555
C36 C32 1_555 1_555
H20 C32 1_555 1_555
H22 C34 1_555 1_555
N12 C35 1_555 1_555
H23 C35 1_555 1_555
H24 C36 1_555 1_555
I5 Zn5 1_555 1_555
I6 Zn5 1_555 1_555
N13 C33 1_555 1_555
Zn4 N13 1_555 1_555
Zn5 N12 1_555 1_555
N14 Zn5 1_555 1_555
C26 N11 1_555 1_555
C34 N13 1_555 1_555
C36 N12 1_555 1_555
Zn4 I2_2 1_555 1_555
N2_2 Zn4 1_555 1_555
C1_3 N2_2 1_555 1_555
C2_2 N2_2 1_555 1_555
C3_3 C1_3 1_555 1_555
H1_3 C1_3 1_555 1_555
C4_2 C2_2 1_555 1_555
H2_2 C2_2 1_555 1_555
C5_3 C3_3 1_555 1_555
H3_3 C3_3 1_555 1_555
H4_2 C4_2 1_555 1_555
C6_3 C5_3 1_555 1_555
N3_3 C6_3 1_555 1_555
N4_3 C6_3 1_555 1_555
C7_3 N3_3 1_555 1_555
C8_3 N4_3 1_555 1_555
N5_3 C7_3 1_555 1_555
C9_3 C7_3 1_555 1_555
C10_3 C8_3 1_555 1_555
C11_3 C9_3 1_555 1_555
C12_3 C9_3 1_555 1_555
C13_2 C10_3 1_555 1_555
C14_3 C10_3 1_555 1_555
C15_3 C11_3 1_555 1_555
H5_3 C11_3 1_555 1_555
C16_3 C12_3 1_555 1_555
H6_3 C12_3 1_555 1_555
C17_2 C13_2 1_555 1_555
H7_2 C13_2 1_555 1_555
C18_3 C14_3 1_555 1_555
H8_3 C14_3 1_555 1_555
H10_3 C16_3 1_555 1_555
N7_2 C17_2 1_555 1_555
H11_2 C17_2 1_555 1_555
H12_3 C18_3 1_555 1_555
Zn3_2 N7_2 1_555 1_555
I3_2 Zn3_2 1_555 1_555
N8_2 Zn3_2 1_555 1_555
I4_2 Zn3_2 1_555 1_555
C19_2 N8_2 1_555 1_555
C20_3 N8_2 1_555 1_555
C21_2 C19_2 1_555 1_555
H13_2 C19_2 1_555 1_555
C22_3 C20_3 1_555 1_555
H14_3 C20_3 1_555 1_555
C23_2 C21_2 1_555 1_555
H15_2 C21_2 1_555 1_555
H16_3 C22_3 1_555 1_555
C24_2 C23_2 1_555 1_555
N9_2 C24_2 1_555 1_555
N10_2 C24_2 1_555 1_555
C25_2 N9_2 1_555 1_555
C26_2 N10_2 1_555 1_555
N11_2 C25_2 1_555 1_555
C28_2 C26_2 1_555 1_555
C31_2 C28_2 1_555 1_555
C32_2 C28_2 1_555 1_555
C35_2 C31_2 1_555 1_555
H19_2 C31_2 1_555 1_555
C36_2 C32_2 1_555 1_555
H20_2 C32_2 1_555 1_555
N12_2 C35_2 1_555 1_555
H23_2 C35_2 1_555 1_555
H24_2 C36_2 1_555 1_555
I5_2 Zn2 1_555 1_555
I6_2 Zn2 1_555 1_555
Zn2 N12_2 1_555 1_555
C4_2 C5_3 1_555 1_555
C8_3 N5_3 1_555 1_555
C18_3 N7_2 1_555 1_555
C22_3 C23_2 1_555 1_555
C26_2 N11_2 1_555 1_555
C36_2 N12_2 1_555 1_555
C3_4 C1_4 1_555 1_555
H1_4 C1_4 1_555 1_555
C5_4 C3_4 1_555 1_555
H3_4 C3_4 1_555 1_555
C6_4 C5_4 1_555 1_555
N3_4 C6_4 1_555 1_555
N4_4 C6_4 1_555 1_555
C7_4 N3_4 1_555 1_555
C8_4 N4_4 1_555 1_555
N5_4 C7_4 1_555 1_555
C9_4 C7_4 1_555 1_555
C10_4 C8_4 1_555 1_555
C11_4 C9_4 1_555 1_555
C12_4 C9_4 1_555 1_555
C14_4 C10_4 1_555 1_555
C15_4 C11_4 1_555 1_555
H5_4 C11_4 1_555 1_555
C16_4 C12_4 1_555 1_555
H6_4 C12_4 1_555 1_555
C18_4 C14_4 1_555 1_555
H8_4 C14_4 1_555 1_555
N14 C15_4 1_555 1_555
H9_3 C15_4 1_555 1_555
H10_4 C16_4 1_555 1_555
H12_4 C18_4 1_555 1_555
C22_4 C20_4 1_555 1_555
H14_4 C20_4 1_555 1_555
C23_3 C21_3 1_555 1_555
H15_3 C21_3 1_555 1_555
H16_4 C22_4 1_555 1_555
C24_3 C23_3 1_555 1_555
N9_3 C24_3 1_555 1_555
N10_3 C24_3 1_555 1_555
C25_3 N9_3 1_555 1_555
C26_3 N10_3 1_555 1_555
N11_3 C25_3 1_555 1_555
C27_2 C25_3 1_555 1_555
C28_3 C26_3 1_555 1_555
C29_2 C27_2 1_555 1_555
C30_2 C27_2 1_555 1_555
C31_3 C28_3 1_555 1_555
C32_3 C28_3 1_555 1_555
C33_2 C29_2 1_555 1_555
H17_2 C29_2 1_555 1_555
C34_2 C30_2 1_555 1_555
H18_2 C30_2 1_555 1_555
C35_3 C31_3 1_555 1_555
H19_3 C31_3 1_555 1_555
C36_3 C32_3 1_555 1_555
H20_3 C32_3 1_555 1_555
H21_2 C33_2 1_555 1_555
H22_2 C34_2 1_555 1_555
N12_3 C35_3 1_555 1_555
H23_3 C35_3 1_555 1_555
H24_3 C36_3 1_555 1_555
I5_3 Zn2_2 1_555 1_555
I6_3 Zn2_2 1_555 1_555
N1 C33_2 1_555 1_555
Zn2_2 N12_3 1_555 1_555
C8_4 N5_4 1_555 1_555
C16_4 N14 1_555 1_555
C22_4 C23_3 1_555 1_555
C26_3 N11_3 1_555 1_555
C34_2 N1 1_555 1_555
C36_3 N12_3 1_555 1_555
C23_4 C21_4 1_555 1_555
H15_4 C21_4 1_555 1_555
C24_4 C23_4 1_555 1_555
N9_4 C24_4 1_555 1_555
N10_4 C24_4 1_555 1_555
C25_4 N9_4 1_555 1_555
C26_4 N10_4 1_555 1_555
N11_4 C25_4 1_555 1_555
C28_4 C26_4 1_555 1_555
C31_4 C28_4 1_555 1_555
C32_4 C28_4 1_555 1_555
C35_4 C31_4 1_555 1_555
H19_4 C31_4 1_555 1_555
C36_4 C32_4 1_555 1_555
H20_4 C32_4 1_555 1_555
N12_4 C35_4 1_555 1_555
H23_4 C35_4 1_555 1_555
H24_4 C36_4 1_555 1_555
I5_4 Zn5_2 1_555 1_555
I6_4 Zn5_2 1_555 1_555
Zn5_2 N12_4 1_555 1_555
N14_2 Zn5_2 1_555 1_555
C26_4 N11_4 1_555 1_555
C36_4 N12_4 1_555 1_555
C29_3 C27_3 1_555 1_555
C30_3 C27_3 1_555 1_555
C33_3 C29_3 1_555 1_555
C34_3 C30_3 1_555 1_555
H18_3 C30_3 1_555 1_555
Zn4_2 N13_2 1_555 1_555
Zn4_2 I2_3 1_555 1_555
N2_3 Zn4_2 1_555 1_555
C2_3 N2_3 1_555 1_555
C4_3 C2_3 1_555 1_555
H2_3 C2_3 1_555 1_555
H4_3 C4_3 1_555 1_555
C17_3 C13_3 1_555 1_555
H7_3 C13_3 1_555 1_555
N7_3 C17_3 1_555 1_555
H11_3 C17_3 1_555 1_555
Zn3_3 N7_3 1_555 1_555
I3_3 Zn3_3 1_555 1_555
N8_3 Zn3_3 1_555 1_555
I4_3 Zn3_3 1_555 1_555
C19_3 N8_3 1_555 1_555
H13_3 C19_3 1_555 1_555
C29_4 C27_4 1_555 1_555
C30_4 C27_4 1_555 1_555
C33_4 C29_4 1_555 1_555
H17_4 C29_4 1_555 1_555
C34_4 C30_4 1_555 1_555
H18_4 C30_4 1_555 1_555
H21_4 C33_4 1_555 1_555
Zn4_3 N13_3 1_555 1_555
I1_2 Zn4_3 1_555 1_555
Zn4_3 I2_4 1_555 1_555
N2_4 Zn4_3 1_555 1_555
C2_4 N2_4 1_555 1_555
C4_4 C2_4 1_555 1_555
H2_4 C2_4 1_555 1_555
H4_4 C4_4 1_555 1_555
C17_4 C13_4 1_555 1_555
H7_4 C13_4 1_555 1_555
N7_4 C17_4 1_555 1_555
H11_4 C17_4 1_555 1_555
Zn3_4 N7_4 1_555 1_555
I3_4 Zn3_4 1_555 1_555
N8_4 Zn3_4 1_555 1_555
I4_4 Zn3_4 1_555 1_555
C19_4 N8_4 1_555 1_555
H13_4 C19_4 1_555 1_555
Zn1_2 I2_5 1_555 1_555
N1_2 Zn1_2 1_555 1_555
N2_5 Zn1_2 1_555 1_555
C1_5 N2_5 1_555 1_555
C2_5 N2_5 1_555 1_555
C3_5 C1_5 1_555 1_555
H1_5 C1_5 1_555 1_555
C4_5 C2_5 1_555 1_555
H2_5 C2_5 1_555 1_555
C5_5 C3_5 1_555 1_555
H3_5 C3_5 1_555 1_555
H4_5 C4_5 1_555 1_555
C6_5 C5_5 1_555 1_555
N3_5 C6_5 1_555 1_555
N4_5 C6_5 1_555 1_555
C7_5 N3_5 1_555 1_555
C8_5 N4_5 1_555 1_555
N5_5 C7_5 1_555 1_555
C9_5 C7_5 1_555 1_555
C10_5 C8_5 1_555 1_555
C11_5 C9_5 1_555 1_555
C12_5 C9_5 1_555 1_555
C13_5 C10_5 1_555 1_555
C14_5 C10_5 1_555 1_555
C15_5 C11_5 1_555 1_555
H5_5 C11_5 1_555 1_555
C16_5 C12_5 1_555 1_555
H6_5 C12_5 1_555 1_555
C17_5 C13_5 1_555 1_555
H7_5 C13_5 1_555 1_555
C18_5 C14_5 1_555 1_555
H8_5 C14_5 1_555 1_555
H10_5 C16_5 1_555 1_555
N7_5 C17_5 1_555 1_555
H11_5 C17_5 1_555 1_555
H12_5 C18_5 1_555 1_555
Zn3_5 N7_5 1_555 1_555
I3_5 Zn3_5 1_555 1_555
N8_5 Zn3_5 1_555 1_555
I4_5 Zn3_5 1_555 1_555
C19_5 N8_5 1_555 1_555
C20_5 N8_5 1_555 1_555
C21_5 C19_5 1_555 1_555
H13_5 C19_5 1_555 1_555
C22_5 C20_5 1_555 1_555
H14_5 C20_5 1_555 1_555
C23_5 C21_5 1_555 1_555
H15_5 C21_5 1_555 1_555
H16_5 C22_5 1_555 1_555
C24_5 C23_5 1_555 1_555
N9_5 C24_5 1_555 1_555
N10_5 C24_5 1_555 1_555
C25_5 N9_5 1_555 1_555
C26_5 N10_5 1_555 1_555
N11_5 C25_5 1_555 1_555
C28_5 C26_5 1_555 1_555
C31_5 C28_5 1_555 1_555
C32_5 C28_5 1_555 1_555
C35_5 C31_5 1_555 1_555
H19_5 C31_5 1_555 1_555
C36_5 C32_5 1_555 1_555
H20_5 C32_5 1_555 1_555
N12_5 C35_5 1_555 1_555
H23_5 C35_5 1_555 1_555
H24_5 C36_5 1_555 1_555
I5_5 Zn5_3 1_555 1_555
I6_5 Zn5_3 1_555 1_555
Zn5_3 N12_5 1_555 1_555
N14_3 Zn5_3 1_555 1_555
C4_5 C5_5 1_555 1_555
C8_5 N5_5 1_555 1_555
C18_5 N7_5 1_555 1_555
C22_5 C23_5 1_555 1_555
C26_5 N11_5 1_555 1_555
C36_5 N12_5 1_555 1_555
C3_6 C1_6 1_555 1_555
H1_6 C1_6 1_555 1_555
C5_6 C3_6 1_555 1_555
H3_6 C3_6 1_555 1_555
C6_6 C5_6 1_555 1_555
N3_6 C6_6 1_555 1_555
N4_6 C6_6 1_555 1_555
C7_6 N3_6 1_555 1_555
C8_6 N4_6 1_555 1_555
N5_6 C7_6 1_555 1_555
C9_6 C7_6 1_555 1_555
C10_6 C8_6 1_555 1_555
C11_6 C9_6 1_555 1_555
C12_6 C9_6 1_555 1_555
C14_6 C10_6 1_555 1_555
C15_6 C11_6 1_555 1_555
H5_6 C11_6 1_555 1_555
C16_6 C12_6 1_555 1_555
H6_6 C12_6 1_555 1_555
C18_6 C14_6 1_555 1_555
H8_6 C14_6 1_555 1_555
N6_3 C15_6 1_555 1_555
H9_5 C15_6 1_555 1_555
H10_6 C16_6 1_555 1_555
H12_6 C18_6 1_555 1_555
Zn2_3 N6_3 1_555 1_555
C22_6 C20_6 1_555 1_555
H14_6 C20_6 1_555 1_555
C23_6 C21_6 1_555 1_555
H15_6 C21_6 1_555 1_555
H16_6 C22_6 1_555 1_555
C24_6 C23_6 1_555 1_555
N9_6 C24_6 1_555 1_555
N10_6 C24_6 1_555 1_555
C25_6 N9_6 1_555 1_555
C26_6 N10_6 1_555 1_555
N11_6 C25_6 1_555 1_555
C27_5 C25_6 1_555 1_555
C28_6 C26_6 1_555 1_555
C29_5 C27_5 1_555 1_555
C30_5 C27_5 1_555 1_555
C31_6 C28_6 1_555 1_555
C32_6 C28_6 1_555 1_555
C33_5 C29_5 1_555 1_555
H17_5 C29_5 1_555 1_555
C34_5 C30_5 1_555 1_555
H18_5 C30_5 1_555 1_555
C35_6 C31_6 1_555 1_555
H19_6 C31_6 1_555 1_555
C36_6 C32_6 1_555 1_555
H20_6 C32_6 1_555 1_555
H21_5 C33_5 1_555 1_555
H22_5 C34_5 1_555 1_555
N12_6 C35_6 1_555 1_555
H23_6 C35_6 1_555 1_555
H24_6 C36_6 1_555 1_555
I5_6 Zn5_4 1_555 1_555
I6_6 Zn5_4 1_555 1_555
N13_4 C33_5 1_555 1_555
Zn4_4 N13_4 1_555 1_555
Zn5_4 N12_6 1_555 1_555
N14_4 Zn5_4 1_555 1_555
C8_6 N5_6 1_555 1_555
C16_6 N6_3 1_555 1_555
C22_6 C23_6 1_555 1_555
C26_6 N11_6 1_555 1_555
C34_5 N13_4 1_555 1_555
C36_6 N12_6 1_555 1_555
I1_3 Zn4_4 1_555 1_555
Zn4_4 I2_6 1_555 1_555
N2_6 Zn4_4 1_555 1_555
C1_7 N2_6 1_555 1_555
C2_6 N2_6 1_555 1_555
C3_7 C1_7 1_555 1_555
H1_7 C1_7 1_555 1_555
C4_6 C2_6 1_555 1_555
H2_6 C2_6 1_555 1_555
C5_7 C3_7 1_555 1_555
H3_7 C3_7 1_555 1_555
H4_6 C4_6 1_555 1_555
C6_7 C5_7 1_555 1_555
N3_7 C6_7 1_555 1_555
N4_7 C6_7 1_555 1_555
C7_7 N3_7 1_555 1_555
C8_7 N4_7 1_555 1_555
N5_7 C7_7 1_555 1_555
C9_7 C7_7 1_555 1_555
C10_7 C8_7 1_555 1_555
C11_7 C9_7 1_555 1_555
C12_7 C9_7 1_555 1_555
C13_6 C10_7 1_555 1_555
C14_7 C10_7 1_555 1_555
C15_7 C11_7 1_555 1_555
H5_7 C11_7 1_555 1_555
C16_7 C12_7 1_555 1_555
H6_7 C12_7 1_555 1_555
C17_6 C13_6 1_555 1_555
H7_6 C13_6 1_555 1_555
C18_7 C14_7 1_555 1_555
H8_7 C14_7 1_555 1_555
H10_7 C16_7 1_555 1_555
N7_6 C17_6 1_555 1_555
H11_6 C17_6 1_555 1_555
H12_7 C18_7 1_555 1_555
Zn3_6 N7_6 1_555 1_555
I3_6 Zn3_6 1_555 1_555
N8_6 Zn3_6 1_555 1_555
I4_6 Zn3_6 1_555 1_555
C19_6 N8_6 1_555 1_555
C20_7 N8_6 1_555 1_555
H13_6 C19_6 1_555 1_555
C22_7 C20_7 1_555 1_555
H14_7 C20_7 1_555 1_555
H16_7 C22_7 1_555 1_555
C4_6 C5_7 1_555 1_555
C8_7 N5_7 1_555 1_555
C18_7 N7_6 1_555 1_555
C23_7 C21_7 1_555 1_555
H15_7 C21_7 1_555 1_555
C24_7 C23_7 1_555 1_555
N9_7 C24_7 1_555 1_555
N10_7 C24_7 1_555 1_555
C25_7 N9_7 1_555 1_555
C26_7 N10_7 1_555 1_555
N11_7 C25_7 1_555 1_555
C27_6 C25_7 1_555 1_555
C28_7 C26_7 1_555 1_555
C29_6 C27_6 1_555 1_555
C30_6 C27_6 1_555 1_555
C31_7 C28_7 1_555 1_555
C32_7 C28_7 1_555 1_555
C33_6 C29_6 1_555 1_555
C34_6 C30_6 1_555 1_555
H18_6 C30_6 1_555 1_555
C35_7 C31_7 1_555 1_555
H19_7 C31_7 1_555 1_555
C36_7 C32_7 1_555 1_555
H20_7 C32_7 1_555 1_555
H22_6 C34_6 1_555 1_555
N12_7 C35_7 1_555 1_555
H23_7 C35_7 1_555 1_555
H24_7 C36_7 1_555 1_555
I5_7 Zn2_3 1_555 1_555
I6_7 Zn2_3 1_555 1_555
N1_2 C33_6 1_555 1_555
Zn2_3 N12_7 1_555 1_555
C26_7 N11_7 1_555 1_555
C34_6 N1_2 1_555 1_555
C36_7 N12_7 1_555 1_555
C3_8 C1_8 1_555 1_555
H1_8 C1_8 1_555 1_555
C5_8 C3_8 1_555 1_555
H3_8 C3_8 1_555 1_555
C6_8 C5_8 1_555 1_555
N3_8 C6_8 1_555 1_555
N4_8 C6_8 1_555 1_555
C7_8 N3_8 1_555 1_555
C8_8 N4_8 1_555 1_555
N5_8 C7_8 1_555 1_555
C9_8 C7_8 1_555 1_555
C10_8 C8_8 1_555 1_555
C11_8 C9_8 1_555 1_555
C12_8 C9_8 1_555 1_555
C14_8 C10_8 1_555 1_555
C15_8 C11_8 1_555 1_555
H5_8 C11_8 1_555 1_555
C16_8 C12_8 1_555 1_555
H6_8 C12_8 1_555 1_555
C18_8 C14_8 1_555 1_555
H8_8 C14_8 1_555 1_555
N14_4 C15_8 1_555 1_555
H9_7 C15_8 1_555 1_555
H10_8 C16_8 1_555 1_555
H12_8 C18_8 1_555 1_555
C22_8 C20_8 1_555 1_555
H14_8 C20_8 1_555 1_555
H16_8 C22_8 1_555 1_555
C8_8 N5_8 1_555 1_555
C16_8 N14_4 1_555 1_555
Zn2_4 N6_4 1_555 1_555
C23_8 C21_8 1_555 1_555
H15_8 C21_8 1_555 1_555
C24_8 C23_8 1_555 1_555
N9_8 C24_8 1_555 1_555
N10_8 C24_8 1_555 1_555
C25_8 N9_8 1_555 1_555
C26_8 N10_8 1_555 1_555
N11_8 C25_8 1_555 1_555
C28_8 C26_8 1_555 1_555
C31_8 C28_8 1_555 1_555
C32_8 C28_8 1_555 1_555
C35_8 C31_8 1_555 1_555
H19_8 C31_8 1_555 1_555
C36_8 C32_8 1_555 1_555
H20_8 C32_8 1_555 1_555
N12_8 C35_8 1_555 1_555
H23_8 C35_8 1_555 1_555
H24_8 C36_8 1_555 1_555
I5_8 Zn2_4 1_555 1_555
I6_8 Zn2_4 1_555 1_555
Zn2_4 N12_8 1_555 1_555
C26_8 N11_8 1_555 1_555
C36_8 N12_8 1_555 1_555
I1_5 Zn1_3 1_555 1_555
Zn1_3 I2_7 1_555 1_555
N1_3 Zn1_3 1_555 1_555
N2_7 Zn1_3 1_555 1_555
C2_7 N2_7 1_555 1_555
C4_7 C2_7 1_555 1_555
H2_7 C2_7 1_555 1_555
H4_7 C4_7 1_555 1_555
C17_7 C13_7 1_555 1_555
H7_7 C13_7 1_555 1_555
N7_7 C17_7 1_555 1_555
H11_7 C17_7 1_555 1_555
Zn3_7 N7_7 1_555 1_555
I3_7 Zn3_7 1_555 1_555
N8_7 Zn3_7 1_555 1_555
I4_7 Zn3_7 1_555 1_555
C19_7 N8_7 1_555 1_555
H13_7 C19_7 1_555 1_555
Zn1_4 I2_8 1_555 1_555
N1_4 Zn1_4 1_555 1_555
N2_8 Zn1_4 1_555 1_555
C2_8 N2_8 1_555 1_555
C4_8 C2_8 1_555 1_555
H2_8 C2_8 1_555 1_555
H4_8 C4_8 1_555 1_555
C17_8 C13_8 1_555 1_555
H7_8 C13_8 1_555 1_555
N7_8 C17_8 1_555 1_555
H11_8 C17_8 1_555 1_555
Zn3_8 N7_8 1_555 1_555
I3_8 Zn3_8 1_555 1_555
N8_8 Zn3_8 1_555 1_555
I4_8 Zn3_8 1_555 1_555
C19_8 N8_8 1_555 1_555
H13_8 C19_8 1_555 1_555
C29_7 C27_7 1_555 1_555
C30_7 C27_7 1_555 1_555
C33_7 C29_7 1_555 1_555
C34_7 C30_7 1_555 1_555
H18_7 C30_7 1_555 1_555
C29_8 C27_8 1_555 1_555
C30_8 C27_8 1_555 1_555
C33_8 C29_8 1_555 1_555
H17_8 C29_8 1_555 1_555
C34_8 C30_8 1_555 1_555
H18_8 C30_8 1_555 1_555
H21_8 C33_8 1_555 1_555

#END
