
###############################################################################
#
# This file contains modified crystal structure data generated from the
# MOF subset of the Cambridge Structural Database (CSD) v543 
# hosted by the Cambridge Crystallographic Data Centre (CCDC).
#
# This work is licensed under the Creative Commons
# Attribution-NonCommercial-ShareAlike 4.0 International License.
# To view a copy of this license, visit
# http://creativecommons.org/licenses/by-nc-sa/4.0/
# or send a letter to
# Creative Commons, PO Box 1866, Mountain View, CA 94042, USA.
#
# CIF created using the CSD Python API on 29 September 2022
# The structure has been converted into the P1 space group
# The structure has a 3D framework
# The original CSD entry JEBCOJ is in the trigonal crystal system
# The framework has been calculated to contain at least 10.0% void space
# The void calculation uses a probe of radius 1.32A, grid spacing 0.4
# H atom positions have been added when not included in the experimental data
#
###############################################################################

data_JEBCOJ
_chemical_formula_moiety         '(C48 H84 Cu9 N12 O48 Sm4)n'
_symmetry_cell_setting           triclinic
_symmetry_space_group_name_H-M   'P 1'
_symmetry_Int_Tables_number      1
_space_group_name_Hall           'P 1'
loop_
_symmetry_equiv_pos_site_id
_symmetry_equiv_pos_as_xyz
1 x,y,z
_cell_length_a                   13.3770(10)
_cell_length_b                   13.3770(10)
_cell_length_c                   14.462(2)
_cell_angle_alpha                90
_cell_angle_beta                 90
_cell_angle_gamma                120
_cell_volume                     2241.18
loop_
_atom_site_label
_atom_site_type_symbol
_atom_site_fract_x
_atom_site_fract_y
_atom_site_fract_z
Cu6 Cu 0.5000 0.0000 0.0000
Cu4 Cu 0.5000 0.0000 0.5000
Cu6_2 Cu 0.5000 0.0000 1.0000
N8 N 0.3893(3) 0.0419(4) 0.5587(2)
H27 H 0.3498 0.0238 0.9213
H28 H 0.6740 0.0238 0.4213
O10 O 0.5488(3) 0.1879(4) 0.4417(2)
O21 O 0.5977(3) 0.0737(4) 0.6077(2)
H36 H 0.365189 0.0819941 0.51152
H37 H 0.428095 0.0954818 0.613108
H1 H 0.0392 0.2937 0.0500
Sm2 Sm 0.3333 0.6667 0.16757(2)
Cu2 Cu 0.5000 0.5000 0.0000
Cu5 Cu 0.0000 0.5000 0.0000
Cu6_3 Cu 0.5000 1.0000 0.0000
C7 C 0.5463(4) 0.7301(4) 0.0686(3)
C8 C 0.2699(4) 0.8162(6) 0.0686(3)
C9 C 0.1838(6) 0.4537(4) 0.0686(3)
C12 C 0.6477(4) 0.7456(4) 0.0101(3)
C13 C 0.2544(4) 0.9021(6) 0.0101(3)
C14 C 0.0979(6) 0.3523(4) 0.0101(3)
H6 H 0.2545 0.9608 0.0500
H7 H 0.7063 0.7455 0.0500
O7 O 0.1879(4) 0.5488(3) 0.0583(2)
O8 O 0.4512(3) 0.6391(3) 0.0583(2)
O9 O 0.3609(3) 0.8121(4) 0.0583(2)
O15 O 0.5595(5) 0.8050(4) 0.1270(2)
O16 O 0.1950(4) 0.7545(3) 0.1270(2)
O17 O 0.2455(3) 0.4405(5) 0.1270(2)
O26 O 0.4358(4) 0.6187(3) 0.2716(2)
O29 O 0.1829(3) 0.5642(4) 0.2716(2)
O30 O 0.3813(3) 0.8171(3) 0.2716(2)
Sm1 Sm 0.3334 0.6667 0.66757(2)
Cu1 Cu 0.5000 0.5000 0.5000
C1 C 0.2699(4) 0.4537(4) 0.5686(3)
C2 C 0.2544(4) 0.3523(4) 0.5101(3)
C3 C 0.1243(4) 0.5621(4) 0.8401(3)
H2 H 0.1376 0.3185 0.9789
C4 C 0.1168(5) 0.4488(5) 0.8602(3)
H3 H 0.1935 0.4607 0.8717
H4 H 0.0857 0.3993 0.8065
N1 N 0.3474(3) 0.3893(3) 0.4413(2)
O1 O 0.3609(3) 0.5488(3) 0.5583(2)
O2 O 0.2455(3) 0.8050(4) 0.6270(2)
O3 O 0.4023(3) 0.4760(3) 0.8923(2)
O4 O 0.1829(3) 0.6187(3) 0.7716(2)
Cu2_2 Cu 0.5000 0.5000 1.0000
Cu3 Cu -0.0000 0.5000 0.5000
Cu4_2 Cu 0.5000 1.0000 0.5000
Cu5_2 Cu 0.0000 0.5000 1.0000
Cu6_4 Cu 0.5000 1.0000 1.0000
C5 C 0.1838(6) 0.7301(4) 0.5686(3)
C6 C 0.5463(4) 0.8162(6) 0.5686(3)
C10 C 0.0979(6) 0.7456(4) 0.5101(3)
C11 C 0.6477(4) 0.9021(6) 0.5101(3)
C15 C 0.4379(4) 0.5622(6) 0.8401(3)
C16 C 0.4378(6) 0.8757(4) 0.8401(3)
C17 C 0.4379(4) 0.8757(4) 0.3401(3)
C18 C 0.1243(4) 0.5622(6) 0.3401(3)
C19 C 0.4378(6) 0.5621(4) 0.3401(3)
H8 H 0.7063 0.9608 0.5500
H9 H 0.0392 0.7455 0.5500
H10 H 0.2545 0.2937 0.5500
H11 H 0.1809 0.8624 0.9789
H12 H 0.6815 0.8191 0.9789
H13 H 0.6815 0.8624 0.4789
H14 H 0.1376 0.8191 0.4789
H15 H 0.1809 0.3185 0.4789
C20 C 0.5512(5) 0.6680(7) 0.8602(3)
C21 C 0.3320(7) 0.8832(5) 0.8602(3)
C22 C 0.5512(5) 0.8832(5) 0.3602(3)
C23 C 0.1168(5) 0.6680(7) 0.3602(3)
C24 C 0.3320(7) 0.4488(5) 0.3602(3)
H16 H 0.5393 0.7328 0.8717
H17 H 0.2672 0.8065 0.8717
H18 H 0.5393 0.8065 0.3717
H19 H 0.1935 0.7328 0.3717
H20 H 0.2672 0.4607 0.3717
H21 H 0.6007 0.6864 0.8065
H22 H 0.3136 0.9143 0.8065
H23 H 0.6007 0.9143 0.3065
H24 H 0.0857 0.6864 0.3065
H25 H 0.3136 0.3993 0.3065
N2 N 0.6526(3) 0.6107(3) 0.5587(2)
N3 N 0.0419(4) 0.6526(3) 0.4413(2)
N4 N 0.6107(3) 0.9581(4) 0.4413(2)
N5 N 0.0419(4) 0.3893(3) 0.9413(2)
N6 N 0.6107(3) 0.6526(3) 0.9413(2)
N7 N 0.3474(3) 0.9581(4) 0.9413(2)
H26 H 0.6740 0.6502 0.9213
H30 H 0.3498 0.3260 0.4213
H31 H 0.6502 0.6740 0.5787
H32 H 0.3260 0.9762 0.5787
H33 H 0.0238 0.3498 0.5787
O5 O 0.1879(4) 0.6391(3) 0.5583(2)
O6 O 0.4512(3) 0.8121(4) 0.5583(2)
O11 O 0.6391(3) 0.4512(3) 0.4417(2)
O13 O 0.5595(5) 0.7545(3) 0.6270(2)
O14 O 0.1950(4) 0.4405(5) 0.6270(2)
O18 O 0.5240(3) 0.9263(4) 0.8923(2)
O19 O 0.0737(4) 0.5977(3) 0.8923(2)
O20 O 0.4023(3) 0.9263(4) 0.3923(2)
O22 O 0.0737(4) 0.4760(3) 0.3923(2)
O24 O 0.4760(3) 0.4023(3) 0.6077(2)
O25 O 0.5240(3) 0.5977(3) 0.3923(2)
O27 O 0.3813(3) 0.5642(4) 0.7716(2)
O28 O 0.4358(4) 0.8171(3) 0.7716(2)
H34 H 0.716805 0.634811 0.51152
H35 H 0.667387 0.571905 0.613108
Cu5_3 Cu 1.0000 0.5000 0.0000
H5 H 0.9762 0.3260 0.9213
Cu3_2 Cu 1.0000 0.5000 0.5000
Cu5_4 Cu 1.0000 0.5000 1.0000
N9 N 0.9581(4) 0.3474(3) 0.5587(2)
H29 H 0.9762 0.6502 0.4213
O12 O 0.8121(4) 0.3609(3) 0.4417(2)
O23 O 0.9263(4) 0.5240(3) 0.6077(2)
H38 H 0.918006 0.283195 0.51152
H39 H 0.904518 0.332613 0.613108
H28_2 H 0.0238 0.6740 0.0787
H36_2 H 0.0819941 0.365189 0.98848
H37_2 H 0.0954818 0.428095 0.886892
N1_2 N 0.3893(3) 0.3474(3) 0.0587(2)
Sm3 Sm 0.6667 0.3333 0.33243(2)
C17_2 C 0.8757(4) 0.4379(4) 0.1599(3)
C18_2 C 0.5622(6) 0.1243(4) 0.1599(3)
C19_2 C 0.5621(4) 0.4378(6) 0.1599(3)
H13_2 H 0.8624 0.6815 0.0211
H14_2 H 0.8191 0.1376 0.0211
H15_2 H 0.3185 0.1809 0.0211
C22_2 C 0.8832(5) 0.5512(5) 0.1398(3)
C23_2 C 0.6680(7) 0.1168(5) 0.1398(3)
C24_2 C 0.4488(5) 0.3320(7) 0.1398(3)
H18_2 H 0.8065 0.5393 0.1283
H19_2 H 0.7328 0.1935 0.1283
H20_2 H 0.4607 0.2672 0.1283
H23_2 H 0.9143 0.6007 0.1935
H24_2 H 0.6864 0.0857 0.1935
H25_2 H 0.3993 0.3136 0.1935
N3_2 N 0.6526(3) 0.0419(4) 0.0587(2)
N4_2 N 0.9581(4) 0.6107(3) 0.0587(2)
H30_2 H 0.3260 0.3498 0.0787
O20_2 O 0.9263(4) 0.4023(3) 0.1077(2)
O22_2 O 0.4760(3) 0.0737(4) 0.1077(2)
O25_2 O 0.5977(3) 0.5240(3) 0.1077(2)
O31 O 0.8171(3) 0.3813(3) 0.2284(2)
O32 O 0.5642(4) 0.1829(3) 0.2284(2)
O33 O 0.6187(3) 0.4358(4) 0.2284(2)
Sm1_2 Sm 0.6667 0.3334 0.83243(2)
C1_2 C 0.4537(4) 0.2699(4) 0.9314(3)
C2_2 C 0.3523(4) 0.2544(4) 0.9899(3)
C3_2 C 0.5621(4) 0.1243(4) 0.6599(3)
H1_2 H 0.2937 0.0392 0.4500
H2_2 H 0.3185 0.1376 0.5211
C4_2 C 0.4488(5) 0.1168(5) 0.6398(3)
H3_2 H 0.4607 0.1935 0.6283
H4_2 H 0.3993 0.0857 0.6935
O1_2 O 0.5488(3) 0.3609(3) 0.9417(2)
O2_2 O 0.8050(4) 0.2455(3) 0.8730(2)
O4_2 O 0.6187(3) 0.1829(3) 0.7284(2)
C5_2 C 0.7301(4) 0.1838(6) 0.9314(3)
C6_2 C 0.8162(6) 0.5463(4) 0.9314(3)
C7_2 C 0.7301(4) 0.5463(4) 0.4314(3)
C8_2 C 0.8162(6) 0.2699(4) 0.4314(3)
C9_2 C 0.4537(4) 0.1838(6) 0.4314(3)
C10_2 C 0.7456(4) 0.0979(6) 0.9899(3)
C11_2 C 0.9021(6) 0.6477(4) 0.9899(3)
C12_2 C 0.7456(4) 0.6477(4) 0.4899(3)
C13_2 C 0.9021(6) 0.2544(4) 0.4899(3)
C14_2 C 0.3523(4) 0.0979(6) 0.4899(3)
C15_2 C 0.5622(6) 0.4379(4) 0.6599(3)
C16_2 C 0.8757(4) 0.4378(6) 0.6599(3)
H6_2 H 0.9608 0.2545 0.4500
H7_2 H 0.7455 0.7063 0.4500
H8_2 H 0.9608 0.7063 0.9500
H9_2 H 0.7455 0.0392 0.9500
H10_2 H 0.2937 0.2545 0.9500
H11_2 H 0.8624 0.1809 0.5211
H12_2 H 0.8191 0.6815 0.5211
C20_2 C 0.6680(7) 0.5512(5) 0.6398(3)
C21_2 C 0.8832(5) 0.3320(7) 0.6398(3)
H16_2 H 0.7328 0.5393 0.6283
H17_2 H 0.8065 0.2672 0.6283
H21_2 H 0.6864 0.6007 0.6935
H22_2 H 0.9143 0.3136 0.6935
O5_2 O 0.6391(3) 0.1879(4) 0.9417(2)
O6_2 O 0.8121(4) 0.4512(3) 0.9417(2)
O13_2 O 0.7545(3) 0.5595(5) 0.8730(2)
O14_2 O 0.4405(5) 0.1950(4) 0.8730(2)
O15_2 O 0.8050(4) 0.5595(5) 0.3730(2)
O16_2 O 0.7545(3) 0.1950(4) 0.3730(2)
O17_2 O 0.4405(5) 0.2455(3) 0.3730(2)
O27_2 O 0.5642(4) 0.3813(3) 0.7284(2)
O28_2 O 0.8171(3) 0.4358(4) 0.7284(2)
H34_2 H 0.634811 0.716805 0.98848
H35_2 H 0.571905 0.667387 0.886892
H29_2 H 0.6502 0.9762 0.0787
H38_2 H 0.283195 0.918006 0.98848
H39_2 H 0.332613 0.904518 0.886892
H38_3 H 0.0819941 0.716805 0.48848
H39_3 H 0.0954818 0.667387 0.386892
H34_3 H 0.283195 0.365189 0.48848
H35_3 H 0.332613 0.428095 0.386892
H36_3 H 0.634811 0.918006 0.48848
H37_3 H 0.571905 0.904518 0.386892
H38_4 H 0.716805 0.0819941 0.01152
H39_4 H 0.667387 0.0954818 0.113108
H34_4 H 0.365189 0.283195 0.01152
H35_4 H 0.428095 0.332613 0.113108
H36_4 H 0.918006 0.634811 0.01152
H37_4 H 0.904518 0.571905 0.113108
loop_
_geom_bond_atom_site_label_1
_geom_bond_atom_site_label_2
_geom_bond_site_symmetry_1
_geom_bond_site_symmetry_2
N8 Cu4 1_555 1_555
O10 Cu4 1_555 1_555
O21 Cu4 1_555 1_555
N8 H36 1_555 1_555
N8 H37 1_555 1_555
H1 C14 1_555 1_555
Sm2 O7 1_555 1_555
C7 C12 1_555 1_555
C8 C13 1_555 1_555
C9 C14 1_555 1_555
C12 H7 1_555 1_555
C13 H6 1_555 1_555
O7 Cu5 1_555 1_555
O8 Sm2 1_555 1_555
O9 Sm2 1_555 1_555
O15 Sm2 1_555 1_555
O16 Sm2 1_555 1_555
O17 Sm2 1_555 1_555
O26 Sm2 1_555 1_555
O29 Sm2 1_555 1_555
O30 Sm2 1_555 1_555
Cu2 O8 1_555 1_555
Cu6_3 O9 1_555 1_555
C7 O8 1_555 1_555
C7 O15 1_555 1_555
C8 O9 1_555 1_555
C8 O16 1_555 1_555
C9 O7 1_555 1_555
C9 O17 1_555 1_555
Sm1 O1 1_555 1_555
Cu1 N1 1_555 1_555
C1 C2 1_555 1_555
C2 N1 1_555 1_555
C3 C4 1_555 1_555
C4 H3 1_555 1_555
H4 C4 1_555 1_555
N1 C24 1_555 1_555
O1 Cu1 1_555 1_555
O2 Sm1 1_555 1_555
O3 Cu2_2 1_555 1_555
O4 Sm1 1_555 1_555
Cu2_2 N6 1_555 1_555
Cu3 N3 1_555 1_555
Cu4_2 N4 1_555 1_555
Cu5_2 N5 1_555 1_555
Cu6_4 N7 1_555 1_555
C5 O2 1_555 1_555
C6 C11 1_555 1_555
C10 C5 1_555 1_555
C11 H8 1_555 1_555
C15 O3 1_555 1_555
C16 C21 1_555 1_555
C17 C22 1_555 1_555
C18 C23 1_555 1_555
C19 C24 1_555 1_555
H9 C10 1_555 1_555
H10 C2 1_555 1_555
H13 C11 1_555 1_555
H14 C10 1_555 1_555
H15 C2 1_555 1_555
C20 C15 1_555 1_555
C21 H17 1_555 1_555
C22 H18 1_555 1_555
C23 H19 1_555 1_555
C24 H20 1_555 1_555
H16 C20 1_555 1_555
H21 C20 1_555 1_555
H22 C21 1_555 1_555
H23 C22 1_555 1_555
H24 C23 1_555 1_555
H25 C24 1_555 1_555
N2 Cu1 1_555 1_555
N3 C10 1_555 1_555
N4 C11 1_555 1_555
N5 C4 1_555 1_555
H26 N6 1_555 1_555
H30 N1 1_555 1_555
H31 N2 1_555 1_555
O5 Sm1 1_555 1_555
O6 Sm1 1_555 1_555
O11 Cu1 1_555 1_555
O13 Sm1 1_555 1_555
O14 Sm1 1_555 1_555
O18 Cu6_4 1_555 1_555
O19 C3 1_555 1_555
O20 Cu4_2 1_555 1_555
O22 Cu3 1_555 1_555
O24 Cu1 1_555 1_555
O25 Cu1 1_555 1_555
O27 Sm1 1_555 1_555
O28 Sm1 1_555 1_555
O30 C17 1_555 1_555
C1 O1 1_555 1_555
C1 O14 1_555 1_555
C3 O4 1_555 1_555
Cu3 O5 1_555 1_555
Cu4_2 O6 1_555 1_555
Cu5_2 O19 1_555 1_555
C5 O5 1_555 1_555
C6 O6 1_555 1_555
C6 O13 1_555 1_555
C15 O27 1_555 1_555
C16 O18 1_555 1_555
C16 O28 1_555 1_555
C17 O20 1_555 1_555
C18 O22 1_555 1_555
C18 O29 1_555 1_555
C19 O25 1_555 1_555
C19 O26 1_555 1_555
C20 N6 1_555 1_555
C21 N7 1_555 1_555
C22 N4 1_555 1_555
C23 N3 1_555 1_555
N2 H34 1_555 1_555
N2 H35 1_555 1_555
N9 Cu3_2 1_555 1_555
O12 Cu3_2 1_555 1_555
O23 Cu3_2 1_555 1_555
N9 H38 1_555 1_555
N9 H39 1_555 1_555
N5 H36_2 1_555 1_555
N5 H37_2 1_555 1_555
Cu2 N1_2 1_555 1_555
N1_2 C24_2 1_555 1_555
Sm3 O31 1_555 1_555
Cu6 N3_2 1_555 1_555
Cu5_3 N4_2 1_555 1_555
C17_2 C22_2 1_555 1_555
C18_2 C23_2 1_555 1_555
C19_2 C24_2 1_555 1_555
C22_2 H18_2 1_555 1_555
C23_2 H19_2 1_555 1_555
C24_2 H20_2 1_555 1_555
H23_2 C22_2 1_555 1_555
H24_2 C23_2 1_555 1_555
H25_2 C24_2 1_555 1_555
H30_2 N1_2 1_555 1_555
O20_2 Cu5_3 1_555 1_555
O22_2 Cu6 1_555 1_555
O25_2 Cu2 1_555 1_555
O31 C17_2 1_555 1_555
O32 Sm3 1_555 1_555
O33 Sm3 1_555 1_555
C17_2 O20_2 1_555 1_555
C18_2 O22_2 1_555 1_555
C18_2 O32 1_555 1_555
C19_2 O25_2 1_555 1_555
C19_2 O33 1_555 1_555
C22_2 N4_2 1_555 1_555
C23_2 N3_2 1_555 1_555
Sm1_2 O1_2 1_555 1_555
C1_2 C2_2 1_555 1_555
C3_2 C4_2 1_555 1_555
H1_2 C14_2 1_555 1_555
H2_2 C14_2 1_555 1_555
C4_2 H3_2 1_555 1_555
H4_2 C4_2 1_555 1_555
O1_2 Cu2_2 1_555 1_555
O2_2 Sm1_2 1_555 1_555
O4_2 Sm1_2 1_555 1_555
Sm3 O10 1_555 1_555
C5_2 O2_2 1_555 1_555
C6_2 C11_2 1_555 1_555
C7_2 C12_2 1_555 1_555
C8_2 C13_2 1_555 1_555
C9_2 C14_2 1_555 1_555
C10_2 C5_2 1_555 1_555
C11_2 H8_2 1_555 1_555
C12_2 H7_2 1_555 1_555
C13_2 H6_2 1_555 1_555
C14_2 N8 1_555 1_555
C15_2 O24 1_555 1_555
C16_2 C21_2 1_555 1_555
H9_2 C10_2 1_555 1_555
H10_2 C2_2 1_555 1_555
H11_2 C13_2 1_555 1_555
H12_2 C12_2 1_555 1_555
C20_2 C15_2 1_555 1_555
C21_2 H17_2 1_555 1_555
H16_2 C20_2 1_555 1_555
H21_2 C20_2 1_555 1_555
H22_2 C21_2 1_555 1_555
N8 C4_2 1_555 1_555
N2 C12_2 1_555 1_555
N9 C13_2 1_555 1_555
O5_2 Sm1_2 1_555 1_555
O6_2 Sm1_2 1_555 1_555
O11 Sm3 1_555 1_555
O12 Sm3 1_555 1_555
O13_2 Sm1_2 1_555 1_555
O14_2 Sm1_2 1_555 1_555
O15_2 Sm3 1_555 1_555
O16_2 Sm3 1_555 1_555
O17_2 Sm3 1_555 1_555
O21 C3_2 1_555 1_555
O27_2 Sm1_2 1_555 1_555
O28_2 Sm1_2 1_555 1_555
C1_2 O1_2 1_555 1_555
C1_2 O14_2 1_555 1_555
C3_2 O4_2 1_555 1_555
Cu6_2 O5_2 1_555 1_555
Cu5_4 O6_2 1_555 1_555
C5_2 O5_2 1_555 1_555
C6_2 O6_2 1_555 1_555
C6_2 O13_2 1_555 1_555
C7_2 O11 1_555 1_555
C7_2 O15_2 1_555 1_555
C8_2 O12 1_555 1_555
C8_2 O16_2 1_555 1_555
C9_2 O10 1_555 1_555
C9_2 O17_2 1_555 1_555
C15_2 O27_2 1_555 1_555
C16_2 O23 1_555 1_555
C16_2 O28_2 1_555 1_555
C20_2 N2 1_555 1_555
C21_2 N9 1_555 1_555
N6 H34_2 1_555 1_555
N6 H35_2 1_555 1_555
N7 H38_2 1_555 1_555
N7 H39_2 1_555 1_555
N3 H38_3 1_555 1_555
N3 H39_3 1_555 1_555
N1 H34_3 1_555 1_555
N1 H35_3 1_555 1_555
N4 H36_3 1_555 1_555
N4 H37_3 1_555 1_555
N3_2 H38_4 1_555 1_555
N3_2 H39_4 1_555 1_555
N1_2 H34_4 1_555 1_555
N1_2 H35_4 1_555 1_555
N4_2 H36_4 1_555 1_555
N4_2 H37_4 1_555 1_555

#END
