
###############################################################################
#
# This file contains modified crystal structure data generated from the
# MOF subset of the Cambridge Structural Database (CSD) v543 
# hosted by the Cambridge Crystallographic Data Centre (CCDC).
#
# This work is licensed under the Creative Commons
# Attribution-NonCommercial-ShareAlike 4.0 International License.
# To view a copy of this license, visit
# http://creativecommons.org/licenses/by-nc-sa/4.0/
# or send a letter to
# Creative Commons, PO Box 1866, Mountain View, CA 94042, USA.
#
# CIF created using the CSD Python API on 29 September 2022
# The structure has been converted into the P1 space group
# The structure has a 3D framework
# The original CSD entry JEBWEV is in the tetragonal crystal system
# The framework has been calculated to contain at least 10.0% void space
# The void calculation uses a probe of radius 1.32A, grid spacing 0.4
# The framework is charged, counterions have been retained in the structure
# H atom positions have been added when not included in the experimental data
# Generated hydrogen atom positions removed from atoms on special positions
#
###############################################################################

data_JEBWEV
_chemical_formula_moiety         '(C360 H456 Cu32 N48 Na24 Ni16 O192 Pd32 32+)n'
_symmetry_cell_setting           triclinic
_symmetry_space_group_name_H-M   'P 1'
_symmetry_Int_Tables_number      1
_space_group_name_Hall           'P 1'
loop_
_symmetry_equiv_pos_site_id
_symmetry_equiv_pos_as_xyz
1 x,y,z
_cell_length_a                   35.794(13)
_cell_length_b                   35.794(13)
_cell_length_c                   15.063(5)
_cell_angle_alpha                90
_cell_angle_beta                 90
_cell_angle_gamma                90
_cell_volume                     19298.9
loop_
_atom_site_label
_atom_site_type_symbol
_atom_site_fract_x
_atom_site_fract_y
_atom_site_fract_z
Pd1 Pd 0.8142(5) 0.6157(5) 0.5000
Pd2 Pd 0.8515(11) 0.5358(4) 0.5000
Pd3 Pd 0.8142(5) 0.3843(5) 0.5000
Pd4 Pd 0.8515(11) 0.4642(4) 0.5000
Pd1_2 Pd 0.1858(5) 0.3843(5) 0.5000
Pd2_2 Pd 0.1485(11) 0.4642(4) 0.5000
Pd3_2 Pd 0.1858(5) 0.6157(5) 0.5000
Pd4_2 Pd 0.1485(11) 0.5358(4) 0.5000
Pd1_3 Pd 0.3843(5) 0.8142(5) 0.5000
Pd2_3 Pd 0.4642(4) 0.8515(11) 0.5000
Pd3_3 Pd 0.6157(5) 0.8142(5) 0.5000
Pd4_3 Pd 0.5358(4) 0.8515(11) 0.5000
Pd1_4 Pd 0.6157(5) 0.1858(5) 0.5000
Pd2_4 Pd 0.5358(4) 0.1485(11) 0.5000
Pd3_4 Pd 0.3843(5) 0.1858(5) 0.5000
Pd4_4 Pd 0.4642(4) 0.1485(11) 0.5000
Cu3 Cu -0.0000 0.65339(9) 0.23295(15)
O11 O -0.0000 0.6022(5) 0.3526(9)
O13 O 0.0000 0.7268(6) 0.1893(12)
O27 O 0.0407(3) 0.6738(3) 0.3107(6)
N9 N 0.0429(3) 0.6361(4) 0.1628(7)
H31 H 0.0192028 0.583154 0.337925
H34 H 0.00545483 0.74198 0.242934
H35 H 0.0194258 0.731519 0.143592
Cu6 Cu 0.0000 0.65339(9) 0.76705(15)
Cu1 Cu 0.83328(8) 0.5000 0.22759(16)
Cu2 Cu 0.73932(5) 0.73932(5) 0.26654(13)
Cu3_2 Cu 1.0000 0.65339(9) 0.23295(15)
Ni1 Ni 0.85242(5) 0.64622(6) 0.25326(11)
O1 O 0.8182(3) 0.6092(3) 0.1808(6)
O2 O 0.8650(3) 0.5974(3) 0.3191(6)
O3 O 0.8603(3) 0.5351(4) 0.3035(7)
O4 O 0.8112(3) 0.6601(3) 0.3372(5)
O5 O 0.8342(3) 0.6924(3) 0.1882(6)
O6 O 0.7841(2) 0.7305(2) 0.1929(5)
O7 O 0.8954(3) 0.6740(3) 0.3209(6)
O8 O 0.8937(3) 0.6377(3) 0.1652(6)
O9 O 0.9593(3) 0.6738(3) 0.3107(6)
N1 N 0.8168(3) 0.5450(4) 0.1614(7)
N2 N 0.7601(3) 0.6974(3) 0.3390(6)
N3 N 0.9571(3) 0.6361(4) 0.1628(7)
C1 C 0.8519(5) 0.5668(7) 0.2823(11)
C2 C 0.8255(4) 0.5781(6) 0.2004(9)
C3 C 0.8030(4) 0.7045(4) 0.2212(9)
C4 C 0.7897(5) 0.6863(4) 0.3074(10)
C5 C 0.9243(5) 0.6457(5) 0.1984(10)
C6 C 0.9271(5) 0.6665(5) 0.2823(10)
C7 C 0.7959(4) 0.5479(4) 0.0788(9)
C8 C 0.8178(6) 0.5484(6) 0.0000
C9 C 0.7575(4) 0.5491(4) 0.0821(7)
C10 C 0.7409(6) 0.5494(5) 0.0000
H1 H 0.7144 0.5499 0.0000
C11 C 0.7351(4) 0.5505(5) 0.1669(9)
H2 H 0.7194 0.5282 0.1712
H3 H 0.7193 0.5728 0.1668
H4 H 0.7521 0.5514 0.2178
C12 C 0.8586(6) 0.5469(8) 0.0000
C13 C 0.7473(3) 0.6831(3) 0.4217(7)
C14 C 0.7614(6) 0.6955(6) 0.5000
C15 C 0.7195(4) 0.6539(4) 0.4196(8)
C16 C 0.7085(6) 0.6402(6) 0.5000
H5 H 0.6919 0.6195 0.5000
C17 C 0.7083(5) 0.6342(4) 0.3305(8)
H6 H 0.6901 0.6144 0.3427
H7 H 0.7306 0.6232 0.3031
H8 H 0.6973 0.6526 0.2900
C18 C 0.7920(6) 0.7266(6) 0.5000
C19 C 0.9545(4) 0.6156(5) 0.0766(8)
C20 C 0.9524(4) 0.5768(4) 0.0832(9)
C21 C 0.9513(5) 0.5602(7) 0.0000
H9 H 0.9497 0.5337 0.0000
C22 C 0.9553(6) 0.6369(8) 0.0000
C23 C 0.9546(6) 0.6799(7) 0.0000
C24 C 0.9495(4) 0.5574(5) 0.1682(10)
H10 H 0.9258 0.5640 0.1967
H11 H 0.9703 0.5650 0.2066
H12 H 0.9505 0.5304 0.1584
O10 O 0.7054(3) 0.7054(3) 0.1503(9)
O11_2 O 1.0000 0.6022(5) 0.3526(9)
O12 O 0.7856(5) 0.5000 0.3511(10)
O13_2 O 1.0000 0.7268(6) 0.1893(12)
O17 O 0.8112(3) 0.6601(3) 0.6628(5)
O18 O 0.8342(3) 0.6924(3) 0.8118(6)
O19 O 0.7841(2) 0.7305(2) 0.8071(5)
N5 N 0.7601(3) 0.6974(3) 0.6610(6)
C30 C 0.8030(4) 0.7045(4) 0.7788(9)
C31 C 0.7897(5) 0.6863(4) 0.6926(10)
C32 C 0.7473(3) 0.6831(3) 0.5783(7)
C33 C 0.7195(4) 0.6539(4) 0.5804(8)
C34 C 0.7083(5) 0.6342(4) 0.6695(8)
H16 H 0.6901 0.6144 0.6573
H17 H 0.7306 0.6232 0.6969
H18 H 0.6973 0.6526 0.7100
Cu5 Cu 0.73932(5) 0.73932(5) 0.73346(13)
Ni3 Ni 0.85242(5) 0.64622(6) 0.74674(11)
O23 O 0.8603(3) 0.4649(4) 0.3035(7)
O26 O 0.7305(2) 0.7841(2) 0.1929(5)
N7 N 0.8168(3) 0.4550(4) 0.1614(7)
N8 N 0.6974(3) 0.7601(3) 0.3390(6)
H22 H 0.781001 0.75165 0.468371
H23 H 0.799952 0.733003 0.568104
H24 H 0.816385 0.716834 0.463525
H27 H 0.867802 0.521159 0.0317346
H29 H 0.869626 0.570769 0.0363744
H30 H 0.975019 0.590172 0.354879
H36 H 0.978747 0.690436 0.0361576
H38 H 0.929103 0.689628 0.031961
C8_2 C 0.8178(6) 0.5484(6) 1.0000
C10_2 C 0.7409(6) 0.5494(5) 1.0000
H1_2 H 0.7144 0.5499 1.0000
C12_2 C 0.8586(6) 0.5469(8) 1.0000
C21_2 C 0.9513(5) 0.5602(7) 1.0000
H9_2 H 0.9497 0.5337 1.0000
C22_2 C 0.9553(6) 0.6369(8) 1.0000
C23_2 C 0.9546(6) 0.6799(7) 1.0000
O14 O 0.8182(3) 0.6092(3) 0.8192(6)
O15 O 0.8650(3) 0.5974(3) 0.6809(6)
O16 O 0.8603(3) 0.5351(4) 0.6965(7)
N4 N 0.8168(3) 0.5450(4) 0.8386(7)
C25 C 0.8519(5) 0.5668(7) 0.7177(11)
C26 C 0.8255(4) 0.5781(6) 0.7996(9)
C27 C 0.7959(4) 0.5479(4) 0.9212(9)
C28 C 0.7575(4) 0.5491(4) 0.9179(7)
C29 C 0.7351(4) 0.5505(5) 0.8331(9)
H13 H 0.7194 0.5282 0.8288
H14 H 0.7193 0.5728 0.8332
H15 H 0.7521 0.5514 0.7822
O20 O 0.8954(3) 0.6740(3) 0.6791(6)
O21 O 0.8937(3) 0.6377(3) 0.8348(6)
O22 O 0.9593(3) 0.6738(3) 0.6893(6)
N6 N 0.9571(3) 0.6361(4) 0.8372(7)
C35 C 0.9243(5) 0.6457(5) 0.8016(10)
C36 C 0.9271(5) 0.6665(5) 0.7177(10)
C37 C 0.9545(4) 0.6156(5) 0.9234(8)
C38 C 0.9524(4) 0.5768(4) 0.9168(9)
C39 C 0.9495(4) 0.5574(5) 0.8318(10)
H19 H 0.9258 0.5640 0.8033
H20 H 0.9703 0.5650 0.7934
H21 H 0.9505 0.5304 0.8416
Cu4 Cu 0.83328(8) 0.5000 0.77241(16)
Cu6_2 Cu 1.0000 0.65339(9) 0.76705(15)
H28 H 0.868776 0.547654 0.931891
H37 H 0.955454 0.690057 0.931881
Cu1_2 Cu 0.16672(8) 0.5000 0.22759(16)
Cu2_2 Cu 0.26068(5) 0.26068(5) 0.26654(13)
Cu3_3 Cu 0.0000 0.34661(9) 0.23295(15)
Ni1_2 Ni 0.14758(5) 0.35378(6) 0.25326(11)
O1_2 O 0.1818(3) 0.3908(3) 0.1808(6)
O2_2 O 0.1350(3) 0.4026(3) 0.3191(6)
O3_2 O 0.1397(3) 0.4649(4) 0.3035(7)
O4_2 O 0.1888(3) 0.3399(3) 0.3372(5)
O5_2 O 0.1658(3) 0.3076(3) 0.1882(6)
O6_2 O 0.2159(2) 0.2695(2) 0.1929(5)
O7_2 O 0.1046(3) 0.3260(3) 0.3209(6)
O8_2 O 0.1063(3) 0.3623(3) 0.1652(6)
O9_2 O 0.0407(3) 0.3262(3) 0.3107(6)
N1_2 N 0.1832(3) 0.4550(4) 0.1614(7)
N2_2 N 0.2399(3) 0.3026(3) 0.3390(6)
N3_2 N 0.0429(3) 0.3639(4) 0.1628(7)
C1_2 C 0.1481(5) 0.4332(7) 0.2823(11)
C2_2 C 0.1745(4) 0.4219(6) 0.2004(9)
C3_2 C 0.1970(4) 0.2955(4) 0.2212(9)
C4_2 C 0.2103(5) 0.3137(4) 0.3074(10)
C5_2 C 0.0757(5) 0.3543(5) 0.1984(10)
C6_2 C 0.0729(5) 0.3335(5) 0.2823(10)
C7_2 C 0.2041(4) 0.4521(4) 0.0788(9)
C8_3 C 0.1822(6) 0.4516(6) 0.0000
C9_2 C 0.2425(4) 0.4509(4) 0.0821(7)
C10_3 C 0.2591(6) 0.4506(5) 0.0000
H1_3 H 0.2856 0.4501 0.0000
C11_2 C 0.2649(4) 0.4495(5) 0.1669(9)
H2_2 H 0.2806 0.4718 0.1712
H3_2 H 0.2807 0.4272 0.1668
H4_2 H 0.2479 0.4486 0.2178
C12_3 C 0.1414(6) 0.4531(8) 0.0000
C13_2 C 0.2527(3) 0.3169(3) 0.4217(7)
C14_2 C 0.2386(6) 0.3045(6) 0.5000
C15_2 C 0.2805(4) 0.3461(4) 0.4196(8)
C16_2 C 0.2915(6) 0.3598(6) 0.5000
H5_2 H 0.3081 0.3805 0.5000
C17_2 C 0.2917(5) 0.3658(4) 0.3305(8)
H6_2 H 0.3099 0.3856 0.3427
H7_2 H 0.2694 0.3768 0.3031
H8_2 H 0.3027 0.3474 0.2900
C18_2 C 0.2080(6) 0.2734(6) 0.5000
C19_2 C 0.0455(4) 0.3844(5) 0.0766(8)
C20_2 C 0.0476(4) 0.4232(4) 0.0832(9)
C21_3 C 0.0487(5) 0.4398(7) 0.0000
H9_3 H 0.0503 0.4663 0.0000
C22_3 C 0.0447(6) 0.3631(8) 0.0000
C23_3 C 0.0454(6) 0.3201(7) 0.0000
C24_2 C 0.0505(4) 0.4426(5) 0.1682(10)
H10_2 H 0.0742 0.4360 0.1967
H11_2 H 0.0297 0.4350 0.2066
H12_2 H 0.0495 0.4696 0.1584
O10_2 O 0.2946(3) 0.2946(3) 0.1503(9)
O11_3 O -0.0000 0.3978(5) 0.3526(9)
O12_2 O 0.2144(5) 0.5000 0.3511(10)
O13_3 O -0.0000 0.2732(6) 0.1893(12)
O17_2 O 0.1888(3) 0.3399(3) 0.6628(5)
O18_2 O 0.1658(3) 0.3076(3) 0.8118(6)
O19_2 O 0.2159(2) 0.2695(2) 0.8071(5)
N5_2 N 0.2399(3) 0.3026(3) 0.6610(6)
C30_2 C 0.1970(4) 0.2955(4) 0.7788(9)
C31_2 C 0.2103(5) 0.3137(4) 0.6926(10)
C32_2 C 0.2527(3) 0.3169(3) 0.5783(7)
C33_2 C 0.2805(4) 0.3461(4) 0.5804(8)
C34_2 C 0.2917(5) 0.3658(4) 0.6695(8)
H16_2 H 0.3099 0.3856 0.6573
H17_2 H 0.2694 0.3768 0.6969
H18_2 H 0.3027 0.3474 0.7100
Cu5_2 Cu 0.26068(5) 0.26068(5) 0.73346(13)
Ni3_2 Ni 0.14758(5) 0.35378(6) 0.74674(11)
O23_2 O 0.1397(3) 0.5351(4) 0.3035(7)
O26_2 O 0.2695(2) 0.2159(2) 0.1929(5)
N7_2 N 0.1832(3) 0.5450(4) 0.1614(7)
N8_2 N 0.3026(3) 0.2399(3) 0.3390(6)
H22_2 H 0.218999 0.24835 0.468371
H23_2 H 0.200048 0.266997 0.568104
H24_2 H 0.183615 0.283166 0.463525
H27_2 H 0.132198 0.478841 0.0317346
H29_2 H 0.130374 0.429231 0.0363744
H30_2 H 0.0249806 0.409828 0.354879
H36_2 H 0.0212526 0.309564 0.0361576
H38_2 H 0.070897 0.310372 0.031961
C8_4 C 0.1822(6) 0.4516(6) 1.0000
C10_4 C 0.2591(6) 0.4506(5) 1.0000
H1_4 H 0.2856 0.4501 1.0000
C12_4 C 0.1414(6) 0.4531(8) 1.0000
C21_4 C 0.0487(5) 0.4398(7) 1.0000
H9_4 H 0.0503 0.4663 1.0000
C22_4 C 0.0447(6) 0.3631(8) 1.0000
C23_4 C 0.0454(6) 0.3201(7) 1.0000
O14_2 O 0.1818(3) 0.3908(3) 0.8192(6)
O15_2 O 0.1350(3) 0.4026(3) 0.6809(6)
O16_2 O 0.1397(3) 0.4649(4) 0.6965(7)
N4_2 N 0.1832(3) 0.4550(4) 0.8386(7)
C25_2 C 0.1481(5) 0.4332(7) 0.7177(11)
C26_2 C 0.1745(4) 0.4219(6) 0.7996(9)
C27_2 C 0.2041(4) 0.4521(4) 0.9212(9)
C28_2 C 0.2425(4) 0.4509(4) 0.9179(7)
C29_2 C 0.2649(4) 0.4495(5) 0.8331(9)
H13_2 H 0.2806 0.4718 0.8288
H14_2 H 0.2807 0.4272 0.8332
H15_2 H 0.2479 0.4486 0.7822
O20_2 O 0.1046(3) 0.3260(3) 0.6791(6)
O21_2 O 0.1063(3) 0.3623(3) 0.8348(6)
O22_2 O 0.0407(3) 0.3262(3) 0.6893(6)
N6_2 N 0.0429(3) 0.3639(4) 0.8372(7)
C35_2 C 0.0757(5) 0.3543(5) 0.8016(10)
C36_2 C 0.0729(5) 0.3335(5) 0.7177(10)
C37_2 C 0.0455(4) 0.3844(5) 0.9234(8)
C38_2 C 0.0476(4) 0.4232(4) 0.9168(9)
C39_2 C 0.0505(4) 0.4426(5) 0.8318(10)
H19_2 H 0.0742 0.4360 0.8033
H20_2 H 0.0297 0.4350 0.7934
H21_2 H 0.0495 0.4696 0.8416
Cu4_2 Cu 0.16672(8) 0.5000 0.77241(16)
Cu6_3 Cu 0.0000 0.34661(9) 0.76705(15)
H28_2 H 0.131224 0.452346 0.931891
H37_2 H 0.0445456 0.309943 0.931881
Cu3_4 Cu 1.0000 0.34661(9) 0.23295(15)
O11_4 O 1.0000 0.3978(5) 0.3526(9)
O13_4 O 1.0000 0.2732(6) 0.1893(12)
O27_2 O 0.9593(3) 0.3262(3) 0.3107(6)
N9_2 N 0.9571(3) 0.3639(4) 0.1628(7)
H31_2 H 0.980797 0.416846 0.337925
H34_2 H 0.994545 0.25802 0.242934
H35_2 H 0.980574 0.268481 0.143592
Cu6_4 Cu 1.0000 0.34661(9) 0.76705(15)
Cu3_5 Cu 0.34661(9) -0.0000 0.23295(15)
O11_5 O 0.3978(5) 0.0000 0.3526(9)
O13_5 O 0.2732(6) 0.0000 0.1893(12)
O27_3 O 0.3262(3) 0.0407(3) 0.3107(6)
N9_3 N 0.3639(4) 0.0429(3) 0.1628(7)
H31_3 H 0.416846 0.0192028 0.337925
H34_3 H 0.25802 0.00545483 0.242934
H35_3 H 0.268481 0.0194258 0.143592
Cu6_5 Cu 0.34661(9) -0.0000 0.76705(15)
Cu1_3 Cu 0.5000 0.83328(8) 0.22759(16)
Cu2_3 Cu 0.26068(5) 0.73932(5) 0.26654(13)
Cu3_6 Cu 0.34661(9) 1.0000 0.23295(15)
Ni1_3 Ni 0.35378(6) 0.85242(5) 0.25326(11)
O1_3 O 0.3908(3) 0.8182(3) 0.1808(6)
O2_3 O 0.4026(3) 0.8650(3) 0.3191(6)
O3_3 O 0.4649(4) 0.8603(3) 0.3035(7)
O4_3 O 0.3399(3) 0.8112(3) 0.3372(5)
O5_3 O 0.3076(3) 0.8342(3) 0.1882(6)
O6_3 O 0.2695(2) 0.7841(2) 0.1929(5)
O7_3 O 0.3260(3) 0.8954(3) 0.3209(6)
O8_3 O 0.3623(3) 0.8937(3) 0.1652(6)
O9_3 O 0.3262(3) 0.9593(3) 0.3107(6)
N1_3 N 0.4550(4) 0.8168(3) 0.1614(7)
N2_3 N 0.3026(3) 0.7601(3) 0.3390(6)
N3_3 N 0.3639(4) 0.9571(3) 0.1628(7)
C1_3 C 0.4332(7) 0.8519(5) 0.2823(11)
C2_3 C 0.4219(6) 0.8255(4) 0.2004(9)
C3_3 C 0.2955(4) 0.8030(4) 0.2212(9)
C4_3 C 0.3137(4) 0.7897(5) 0.3074(10)
C5_3 C 0.3543(5) 0.9243(5) 0.1984(10)
C6_3 C 0.3335(5) 0.9271(5) 0.2823(10)
C7_3 C 0.4521(4) 0.7959(4) 0.0788(9)
C8_5 C 0.4516(6) 0.8178(6) 0.0000
C9_3 C 0.4509(4) 0.7575(4) 0.0821(7)
C10_5 C 0.4506(5) 0.7409(6) 0.0000
H1_5 H 0.4501 0.7144 0.0000
C11_3 C 0.4495(5) 0.7351(4) 0.1669(9)
H2_3 H 0.4718 0.7194 0.1712
H3_3 H 0.4272 0.7193 0.1668
H4_3 H 0.4486 0.7521 0.2178
C12_5 C 0.4531(8) 0.8586(6) 0.0000
C13_3 C 0.3169(3) 0.7473(3) 0.4217(7)
C14_3 C 0.3045(6) 0.7614(6) 0.5000
C15_3 C 0.3461(4) 0.7195(4) 0.4196(8)
C16_3 C 0.3598(6) 0.7085(6) 0.5000
H5_3 H 0.3805 0.6919 0.5000
C17_3 C 0.3658(4) 0.7083(5) 0.3305(8)
H6_3 H 0.3856 0.6901 0.3427
H7_3 H 0.3768 0.7306 0.3031
H8_3 H 0.3474 0.6973 0.2900
C18_3 C 0.2734(6) 0.7920(6) 0.5000
C19_3 C 0.3844(5) 0.9545(4) 0.0766(8)
C20_3 C 0.4232(4) 0.9524(4) 0.0832(9)
C21_5 C 0.4398(7) 0.9513(5) 0.0000
H9_5 H 0.4663 0.9497 0.0000
C22_5 C 0.3631(8) 0.9553(6) 0.0000
C23_5 C 0.3201(7) 0.9546(6) 0.0000
C24_3 C 0.4426(5) 0.9495(4) 0.1682(10)
H10_3 H 0.4360 0.9258 0.1967
H11_3 H 0.4350 0.9703 0.2066
H12_3 H 0.4696 0.9505 0.1584
O10_3 O 0.2946(3) 0.7054(3) 0.1503(9)
O11_6 O 0.3978(5) 1.0000 0.3526(9)
O12_3 O 0.5000 0.7856(5) 0.3511(10)
O13_6 O 0.2732(6) 1.0000 0.1893(12)
O17_3 O 0.3399(3) 0.8112(3) 0.6628(5)
O18_3 O 0.3076(3) 0.8342(3) 0.8118(6)
O19_3 O 0.2695(2) 0.7841(2) 0.8071(5)
N5_3 N 0.3026(3) 0.7601(3) 0.6610(6)
C30_3 C 0.2955(4) 0.8030(4) 0.7788(9)
C31_3 C 0.3137(4) 0.7897(5) 0.6926(10)
C32_3 C 0.3169(3) 0.7473(3) 0.5783(7)
C33_3 C 0.3461(4) 0.7195(4) 0.5804(8)
C34_3 C 0.3658(4) 0.7083(5) 0.6695(8)
H16_3 H 0.3856 0.6901 0.6573
H17_3 H 0.3768 0.7306 0.6969
H18_3 H 0.3474 0.6973 0.7100
Cu5_3 Cu 0.26068(5) 0.73932(5) 0.73346(13)
Ni3_3 Ni 0.35378(6) 0.85242(5) 0.74674(11)
O23_3 O 0.5351(4) 0.8603(3) 0.3035(7)
O26_3 O 0.2159(2) 0.7305(2) 0.1929(5)
N7_3 N 0.5450(4) 0.8168(3) 0.1614(7)
N8_3 N 0.2399(3) 0.6974(3) 0.3390(6)
H22_3 H 0.24835 0.781001 0.468371
H23_3 H 0.266997 0.799952 0.568104
H24_3 H 0.283166 0.816385 0.463525
H27_3 H 0.478841 0.867802 0.0317346
H29_3 H 0.429231 0.869626 0.0363744
H30_3 H 0.409828 0.975019 0.354879
H36_3 H 0.309564 0.978747 0.0361576
H38_3 H 0.310372 0.929103 0.031961
C8_6 C 0.4516(6) 0.8178(6) 1.0000
C10_6 C 0.4506(5) 0.7409(6) 1.0000
H1_6 H 0.4501 0.7144 1.0000
C12_6 C 0.4531(8) 0.8586(6) 1.0000
C21_6 C 0.4398(7) 0.9513(5) 1.0000
H9_6 H 0.4663 0.9497 1.0000
C22_6 C 0.3631(8) 0.9553(6) 1.0000
C23_6 C 0.3201(7) 0.9546(6) 1.0000
O14_3 O 0.3908(3) 0.8182(3) 0.8192(6)
O15_3 O 0.4026(3) 0.8650(3) 0.6809(6)
O16_3 O 0.4649(4) 0.8603(3) 0.6965(7)
N4_3 N 0.4550(4) 0.8168(3) 0.8386(7)
C25_3 C 0.4332(7) 0.8519(5) 0.7177(11)
C26_3 C 0.4219(6) 0.8255(4) 0.7996(9)
C27_3 C 0.4521(4) 0.7959(4) 0.9212(9)
C28_3 C 0.4509(4) 0.7575(4) 0.9179(7)
C29_3 C 0.4495(5) 0.7351(4) 0.8331(9)
H13_3 H 0.4718 0.7194 0.8288
H14_3 H 0.4272 0.7193 0.8332
H15_3 H 0.4486 0.7521 0.7822
O20_3 O 0.3260(3) 0.8954(3) 0.6791(6)
O21_3 O 0.3623(3) 0.8937(3) 0.8348(6)
O22_3 O 0.3262(3) 0.9593(3) 0.6893(6)
N6_3 N 0.3639(4) 0.9571(3) 0.8372(7)
C35_3 C 0.3543(5) 0.9243(5) 0.8016(10)
C36_3 C 0.3335(5) 0.9271(5) 0.7177(10)
C37_3 C 0.3844(5) 0.9545(4) 0.9234(8)
C38_3 C 0.4232(4) 0.9524(4) 0.9168(9)
C39_3 C 0.4426(5) 0.9495(4) 0.8318(10)
H19_3 H 0.4360 0.9258 0.8033
H20_3 H 0.4350 0.9703 0.7934
H21_3 H 0.4696 0.9505 0.8416
Cu4_3 Cu 0.5000 0.83328(8) 0.77241(16)
Cu6_6 Cu 0.34661(9) 1.0000 0.76705(15)
H28_3 H 0.452346 0.868776 0.931891
H37_3 H 0.309943 0.955454 0.931881
Cu1_4 Cu 0.5000 0.16672(8) 0.22759(16)
Cu2_4 Cu 0.73932(5) 0.26068(5) 0.26654(13)
Cu3_7 Cu 0.65339(9) 0.0000 0.23295(15)
Ni1_4 Ni 0.64622(6) 0.14758(5) 0.25326(11)
O1_4 O 0.6092(3) 0.1818(3) 0.1808(6)
O2_4 O 0.5974(3) 0.1350(3) 0.3191(6)
O3_4 O 0.5351(4) 0.1397(3) 0.3035(7)
O4_4 O 0.6601(3) 0.1888(3) 0.3372(5)
O5_4 O 0.6924(3) 0.1658(3) 0.1882(6)
O6_4 O 0.7305(2) 0.2159(2) 0.1929(5)
O7_4 O 0.6740(3) 0.1046(3) 0.3209(6)
O8_4 O 0.6377(3) 0.1063(3) 0.1652(6)
O9_4 O 0.6738(3) 0.0407(3) 0.3107(6)
N1_4 N 0.5450(4) 0.1832(3) 0.1614(7)
N2_4 N 0.6974(3) 0.2399(3) 0.3390(6)
N3_4 N 0.6361(4) 0.0429(3) 0.1628(7)
C1_4 C 0.5668(7) 0.1481(5) 0.2823(11)
C2_4 C 0.5781(6) 0.1745(4) 0.2004(9)
C3_4 C 0.7045(4) 0.1970(4) 0.2212(9)
C4_4 C 0.6863(4) 0.2103(5) 0.3074(10)
C5_4 C 0.6457(5) 0.0757(5) 0.1984(10)
C6_4 C 0.6665(5) 0.0729(5) 0.2823(10)
C7_4 C 0.5479(4) 0.2041(4) 0.0788(9)
C8_7 C 0.5484(6) 0.1822(6) 0.0000
C9_4 C 0.5491(4) 0.2425(4) 0.0821(7)
C10_7 C 0.5494(5) 0.2591(6) 0.0000
H1_7 H 0.5499 0.2856 0.0000
C11_4 C 0.5505(5) 0.2649(4) 0.1669(9)
H2_4 H 0.5282 0.2806 0.1712
H3_4 H 0.5728 0.2807 0.1668
H4_4 H 0.5514 0.2479 0.2178
C12_7 C 0.5469(8) 0.1414(6) 0.0000
C13_4 C 0.6831(3) 0.2527(3) 0.4217(7)
C14_4 C 0.6955(6) 0.2386(6) 0.5000
C15_4 C 0.6539(4) 0.2805(4) 0.4196(8)
C16_4 C 0.6402(6) 0.2915(6) 0.5000
H5_4 H 0.6195 0.3081 0.5000
C17_4 C 0.6342(4) 0.2917(5) 0.3305(8)
H6_4 H 0.6144 0.3099 0.3427
H7_4 H 0.6232 0.2694 0.3031
H8_4 H 0.6526 0.3027 0.2900
C18_4 C 0.7266(6) 0.2080(6) 0.5000
C19_4 C 0.6156(5) 0.0455(4) 0.0766(8)
C20_4 C 0.5768(4) 0.0476(4) 0.0832(9)
C21_7 C 0.5602(7) 0.0487(5) 0.0000
H9_7 H 0.5337 0.0503 0.0000
C22_7 C 0.6369(8) 0.0447(6) 0.0000
C23_7 C 0.6799(7) 0.0454(6) 0.0000
C24_4 C 0.5574(5) 0.0505(4) 0.1682(10)
H10_4 H 0.5640 0.0742 0.1967
H11_4 H 0.5650 0.0297 0.2066
H12_4 H 0.5304 0.0495 0.1584
O10_4 O 0.7054(3) 0.2946(3) 0.1503(9)
O11_7 O 0.6022(5) -0.0000 0.3526(9)
O12_4 O 0.5000 0.2144(5) 0.3511(10)
O13_7 O 0.7268(6) -0.0000 0.1893(12)
O17_4 O 0.6601(3) 0.1888(3) 0.6628(5)
O18_4 O 0.6924(3) 0.1658(3) 0.8118(6)
O19_4 O 0.7305(2) 0.2159(2) 0.8071(5)
N5_4 N 0.6974(3) 0.2399(3) 0.6610(6)
C30_4 C 0.7045(4) 0.1970(4) 0.7788(9)
C31_4 C 0.6863(4) 0.2103(5) 0.6926(10)
C32_4 C 0.6831(3) 0.2527(3) 0.5783(7)
C33_4 C 0.6539(4) 0.2805(4) 0.5804(8)
C34_4 C 0.6342(4) 0.2917(5) 0.6695(8)
H16_4 H 0.6144 0.3099 0.6573
H17_4 H 0.6232 0.2694 0.6969
H18_4 H 0.6526 0.3027 0.7100
Cu5_4 Cu 0.73932(5) 0.26068(5) 0.73346(13)
Ni3_4 Ni 0.64622(6) 0.14758(5) 0.74674(11)
O23_4 O 0.4649(4) 0.1397(3) 0.3035(7)
O26_4 O 0.7841(2) 0.2695(2) 0.1929(5)
N7_4 N 0.4550(4) 0.1832(3) 0.1614(7)
N8_4 N 0.7601(3) 0.3026(3) 0.3390(6)
H22_4 H 0.75165 0.218999 0.468371
H23_4 H 0.733003 0.200048 0.568104
H24_4 H 0.716834 0.183615 0.463525
H27_4 H 0.521159 0.132198 0.0317346
H29_4 H 0.570769 0.130374 0.0363744
H30_4 H 0.590172 0.0249806 0.354879
H36_4 H 0.690436 0.0212526 0.0361576
H38_4 H 0.689628 0.070897 0.031961
C8_8 C 0.5484(6) 0.1822(6) 1.0000
C10_8 C 0.5494(5) 0.2591(6) 1.0000
H1_8 H 0.5499 0.2856 1.0000
C12_8 C 0.5469(8) 0.1414(6) 1.0000
C21_8 C 0.5602(7) 0.0487(5) 1.0000
H9_8 H 0.5337 0.0503 1.0000
C22_8 C 0.6369(8) 0.0447(6) 1.0000
C23_8 C 0.6799(7) 0.0454(6) 1.0000
O14_4 O 0.6092(3) 0.1818(3) 0.8192(6)
O15_4 O 0.5974(3) 0.1350(3) 0.6809(6)
O16_4 O 0.5351(4) 0.1397(3) 0.6965(7)
N4_4 N 0.5450(4) 0.1832(3) 0.8386(7)
C25_4 C 0.5668(7) 0.1481(5) 0.7177(11)
C26_4 C 0.5781(6) 0.1745(4) 0.7996(9)
C27_4 C 0.5479(4) 0.2041(4) 0.9212(9)
C28_4 C 0.5491(4) 0.2425(4) 0.9179(7)
C29_4 C 0.5505(5) 0.2649(4) 0.8331(9)
H13_4 H 0.5282 0.2806 0.8288
H14_4 H 0.5728 0.2807 0.8332
H15_4 H 0.5514 0.2479 0.7822
O20_4 O 0.6740(3) 0.1046(3) 0.6791(6)
O21_4 O 0.6377(3) 0.1063(3) 0.8348(6)
O22_4 O 0.6738(3) 0.0407(3) 0.6893(6)
N6_4 N 0.6361(4) 0.0429(3) 0.8372(7)
C35_4 C 0.6457(5) 0.0757(5) 0.8016(10)
C36_4 C 0.6665(5) 0.0729(5) 0.7177(10)
C37_4 C 0.6156(5) 0.0455(4) 0.9234(8)
C38_4 C 0.5768(4) 0.0476(4) 0.9168(9)
C39_4 C 0.5574(5) 0.0505(4) 0.8318(10)
H19_4 H 0.5640 0.0742 0.8033
H20_4 H 0.5650 0.0297 0.7934
H21_4 H 0.5304 0.0495 0.8416
Cu4_4 Cu 0.5000 0.16672(8) 0.77241(16)
Cu6_7 Cu 0.65339(9) 0.0000 0.76705(15)
H28_4 H 0.547654 0.131224 0.931891
H37_4 H 0.690057 0.0445456 0.931881
Cu3_8 Cu 0.65339(9) 1.0000 0.23295(15)
O11_8 O 0.6022(5) 1.0000 0.3526(9)
O13_8 O 0.7268(6) 1.0000 0.1893(12)
O27_4 O 0.6738(3) 0.9593(3) 0.3107(6)
N9_4 N 0.6361(4) 0.9571(3) 0.1628(7)
H31_4 H 0.583154 0.980797 0.337925
H34_4 H 0.74198 0.994545 0.242934
H35_4 H 0.731519 0.980574 0.143592
Cu6_8 Cu 0.65339(9) 1.0000 0.76705(15)
C8_9 C 0.1822(6) 0.5484(6) 0.0000
C10_9 C 0.2591(6) 0.5494(5) 0.0000
H1_9 H 0.2856 0.5499 0.0000
C12_9 C 0.1414(6) 0.5469(8) 0.0000
C21_9 C 0.0487(5) 0.5602(7) 0.0000
H9_9 H 0.0503 0.5337 0.0000
C22_9 C 0.0447(6) 0.6369(8) 0.0000
C23_9 C 0.0454(6) 0.6799(7) 0.0000
O14_5 O 0.1818(3) 0.6092(3) 0.1808(6)
O15_5 O 0.1350(3) 0.5974(3) 0.3191(6)
C25_5 C 0.1481(5) 0.5668(7) 0.2823(11)
C26_5 C 0.1745(4) 0.5781(6) 0.2004(9)
C27_5 C 0.2041(4) 0.5479(4) 0.0788(9)
C28_5 C 0.2425(4) 0.5491(4) 0.0821(7)
C29_5 C 0.2649(4) 0.5505(5) 0.1669(9)
H13_5 H 0.2806 0.5282 0.1712
H14_5 H 0.2807 0.5728 0.1668
H15_5 H 0.2479 0.5514 0.2178
O20_5 O 0.1046(3) 0.6740(3) 0.3209(6)
O21_5 O 0.1063(3) 0.6377(3) 0.1652(6)
C35_5 C 0.0757(5) 0.6457(5) 0.1984(10)
C36_5 C 0.0729(5) 0.6665(5) 0.2823(10)
C37_5 C 0.0455(4) 0.6156(5) 0.0766(8)
C38_5 C 0.0476(4) 0.5768(4) 0.0832(9)
C39_5 C 0.0505(4) 0.5574(5) 0.1682(10)
H19_5 H 0.0742 0.5640 0.1967
H20_5 H 0.0297 0.5650 0.2066
H21_5 H 0.0495 0.5304 0.1584
Ni2 Ni 0.14758(5) 0.64622(6) 0.25326(11)
O24 O 0.1888(3) 0.6601(3) 0.3372(5)
O25 O 0.1658(3) 0.6924(3) 0.1882(6)
H28_5 H 0.131224 0.547654 0.068109
H37_5 H 0.0445456 0.690057 0.0681186
Ni1_5 Ni 0.14758(5) 0.64622(6) 0.74674(11)
O1_5 O 0.1818(3) 0.6092(3) 0.8192(6)
O2_5 O 0.1350(3) 0.5974(3) 0.6809(6)
O3_5 O 0.1397(3) 0.5351(4) 0.6965(7)
O4_5 O 0.1888(3) 0.6601(3) 0.6628(5)
O5_5 O 0.1658(3) 0.6924(3) 0.8118(6)
O6_5 O 0.2159(2) 0.7305(2) 0.8071(5)
O7_5 O 0.1046(3) 0.6740(3) 0.6791(6)
O8_5 O 0.1063(3) 0.6377(3) 0.8348(6)
O9_5 O 0.0407(3) 0.6738(3) 0.6893(6)
N1_5 N 0.1832(3) 0.5450(4) 0.8386(7)
N2_5 N 0.2399(3) 0.6974(3) 0.6610(6)
N3_5 N 0.0429(3) 0.6361(4) 0.8372(7)
C1_5 C 0.1481(5) 0.5668(7) 0.7177(11)
C2_5 C 0.1745(4) 0.5781(6) 0.7996(9)
C3_5 C 0.1970(4) 0.7045(4) 0.7788(9)
C4_5 C 0.2103(5) 0.6863(4) 0.6926(10)
C5_5 C 0.0757(5) 0.6457(5) 0.8016(10)
C6_5 C 0.0729(5) 0.6665(5) 0.7177(10)
C7_5 C 0.2041(4) 0.5479(4) 0.9212(9)
C8_10 C 0.1822(6) 0.5484(6) 1.0000
C9_5 C 0.2425(4) 0.5491(4) 0.9179(7)
C10_10 C 0.2591(6) 0.5494(5) 1.0000
H1_10 H 0.2856 0.5499 1.0000
C11_5 C 0.2649(4) 0.5505(5) 0.8331(9)
H2_5 H 0.2806 0.5282 0.8288
H3_5 H 0.2807 0.5728 0.8332
H4_5 H 0.2479 0.5514 0.7822
C12_10 C 0.1414(6) 0.5469(8) 1.0000
C13_5 C 0.2527(3) 0.6831(3) 0.5783(7)
C14_5 C 0.2386(6) 0.6955(6) 0.5000
C15_5 C 0.2805(4) 0.6539(4) 0.5804(8)
C16_5 C 0.2915(6) 0.6402(6) 0.5000
H5_5 H 0.3081 0.6195 0.5000
C17_5 C 0.2917(5) 0.6342(4) 0.6695(8)
H6_5 H 0.3099 0.6144 0.6573
H7_5 H 0.2694 0.6232 0.6969
H8_5 H 0.3027 0.6526 0.7100
C18_5 C 0.2080(6) 0.7266(6) 0.5000
C19_5 C 0.0455(4) 0.6156(5) 0.9234(8)
C20_5 C 0.0476(4) 0.5768(4) 0.9168(9)
C21_10 C 0.0487(5) 0.5602(7) 1.0000
H9_10 H 0.0503 0.5337 1.0000
C22_10 C 0.0447(6) 0.6369(8) 1.0000
C23_10 C 0.0454(6) 0.6799(7) 1.0000
C24_5 C 0.0505(4) 0.5574(5) 0.8318(10)
H10_5 H 0.0742 0.5640 0.8033
H11_5 H 0.0297 0.5650 0.7934
H12_5 H 0.0495 0.5304 0.8416
O10_5 O 0.2946(3) 0.7054(3) 0.8497(9)
O11_9 O 0.0000 0.6022(5) 0.6474(9)
O12_5 O 0.2144(5) 0.5000 0.6489(10)
O13_9 O -0.0000 0.7268(6) 0.8107(12)
C30_5 C 0.1970(4) 0.7045(4) 0.2212(9)
C31_5 C 0.2103(5) 0.6863(4) 0.3074(10)
C32_5 C 0.2527(3) 0.6831(3) 0.4217(7)
C33_5 C 0.2805(4) 0.6539(4) 0.4196(8)
C34_5 C 0.2917(5) 0.6342(4) 0.3305(8)
H16_5 H 0.3099 0.6144 0.3427
H17_5 H 0.2694 0.6232 0.3031
H18_5 H 0.3027 0.6526 0.2900
H22_5 H 0.218999 0.75165 0.531629
H23_5 H 0.200048 0.733003 0.431896
H24_5 H 0.183615 0.716834 0.536475
H27_5 H 0.132198 0.521159 0.968265
H29_5 H 0.130374 0.570769 0.963626
H30_5 H 0.0249806 0.590172 0.645121
H36_5 H 0.0212526 0.690436 0.963842
H38_5 H 0.070897 0.689628 0.968039
O11_10 O 1.0000 0.6022(5) 0.6474(9)
O13_10 O 1.0000 0.7268(6) 0.8107(12)
H31_5 H 0.980797 0.583154 0.662075
H34_5 H 0.994545 0.74198 0.757066
H35_5 H 0.980574 0.731519 0.856408
O11_11 O 0.0000 0.3978(5) 0.6474(9)
O13_11 O 0.0000 0.2732(6) 0.8107(12)
H31_6 H 0.0192028 0.416846 0.662075
H34_6 H 0.00545483 0.25802 0.757066
H35_6 H 0.0194258 0.268481 0.856408
C8_11 C 0.8178(6) 0.4516(6) 0.0000
C10_11 C 0.7409(6) 0.4506(5) 0.0000
H1_11 H 0.7144 0.4501 0.0000
C12_11 C 0.8586(6) 0.4531(8) 0.0000
C21_11 C 0.9513(5) 0.4398(7) 0.0000
H9_11 H 0.9497 0.4663 0.0000
C22_11 C 0.9553(6) 0.3631(8) 0.0000
C23_11 C 0.9546(6) 0.3201(7) 0.0000
O14_6 O 0.8182(3) 0.3908(3) 0.1808(6)
O15_6 O 0.8650(3) 0.4026(3) 0.3191(6)
C25_6 C 0.8519(5) 0.4332(7) 0.2823(11)
C26_6 C 0.8255(4) 0.4219(6) 0.2004(9)
C27_6 C 0.7959(4) 0.4521(4) 0.0788(9)
C28_6 C 0.7575(4) 0.4509(4) 0.0821(7)
C29_6 C 0.7351(4) 0.4495(5) 0.1669(9)
H13_6 H 0.7194 0.4718 0.1712
H14_6 H 0.7193 0.4272 0.1668
H15_6 H 0.7521 0.4486 0.2178
O20_6 O 0.8954(3) 0.3260(3) 0.3209(6)
O21_6 O 0.8937(3) 0.3623(3) 0.1652(6)
C35_6 C 0.9243(5) 0.3543(5) 0.1984(10)
C36_6 C 0.9271(5) 0.3335(5) 0.2823(10)
C37_6 C 0.9545(4) 0.3844(5) 0.0766(8)
C38_6 C 0.9524(4) 0.4232(4) 0.0832(9)
C39_6 C 0.9495(4) 0.4426(5) 0.1682(10)
H19_6 H 0.9258 0.4360 0.1967
H20_6 H 0.9703 0.4350 0.2066
H21_6 H 0.9505 0.4696 0.1584
Ni2_2 Ni 0.85242(5) 0.35378(6) 0.25326(11)
O24_2 O 0.8112(3) 0.3399(3) 0.3372(5)
O25_2 O 0.8342(3) 0.3076(3) 0.1882(6)
H28_6 H 0.868776 0.452346 0.068109
H37_6 H 0.955454 0.309943 0.0681186
Ni1_6 Ni 0.85242(5) 0.35378(6) 0.74674(11)
O1_6 O 0.8182(3) 0.3908(3) 0.8192(6)
O2_6 O 0.8650(3) 0.4026(3) 0.6809(6)
O3_6 O 0.8603(3) 0.4649(4) 0.6965(7)
O4_6 O 0.8112(3) 0.3399(3) 0.6628(5)
O5_6 O 0.8342(3) 0.3076(3) 0.8118(6)
O6_6 O 0.7841(2) 0.2695(2) 0.8071(5)
O7_6 O 0.8954(3) 0.3260(3) 0.6791(6)
O8_6 O 0.8937(3) 0.3623(3) 0.8348(6)
O9_6 O 0.9593(3) 0.3262(3) 0.6893(6)
N1_6 N 0.8168(3) 0.4550(4) 0.8386(7)
N2_6 N 0.7601(3) 0.3026(3) 0.6610(6)
N3_6 N 0.9571(3) 0.3639(4) 0.8372(7)
C1_6 C 0.8519(5) 0.4332(7) 0.7177(11)
C2_6 C 0.8255(4) 0.4219(6) 0.7996(9)
C3_6 C 0.8030(4) 0.2955(4) 0.7788(9)
C4_6 C 0.7897(5) 0.3137(4) 0.6926(10)
C5_6 C 0.9243(5) 0.3543(5) 0.8016(10)
C6_6 C 0.9271(5) 0.3335(5) 0.7177(10)
C7_6 C 0.7959(4) 0.4521(4) 0.9212(9)
C8_12 C 0.8178(6) 0.4516(6) 1.0000
C9_6 C 0.7575(4) 0.4509(4) 0.9179(7)
C10_12 C 0.7409(6) 0.4506(5) 1.0000
H1_12 H 0.7144 0.4501 1.0000
C11_6 C 0.7351(4) 0.4495(5) 0.8331(9)
H2_6 H 0.7194 0.4718 0.8288
H3_6 H 0.7193 0.4272 0.8332
H4_6 H 0.7521 0.4486 0.7822
C12_12 C 0.8586(6) 0.4531(8) 1.0000
C13_6 C 0.7473(3) 0.3169(3) 0.5783(7)
C14_6 C 0.7614(6) 0.3045(6) 0.5000
C15_6 C 0.7195(4) 0.3461(4) 0.5804(8)
C16_6 C 0.7085(6) 0.3598(6) 0.5000
H5_6 H 0.6919 0.3805 0.5000
C17_6 C 0.7083(5) 0.3658(4) 0.6695(8)
H6_6 H 0.6901 0.3856 0.6573
H7_6 H 0.7306 0.3768 0.6969
H8_6 H 0.6973 0.3474 0.7100
C18_6 C 0.7920(6) 0.2734(6) 0.5000
C19_6 C 0.9545(4) 0.3844(5) 0.9234(8)
C20_6 C 0.9524(4) 0.4232(4) 0.9168(9)
C21_12 C 0.9513(5) 0.4398(7) 1.0000
H9_12 H 0.9497 0.4663 1.0000
C22_12 C 0.9553(6) 0.3631(8) 1.0000
C23_12 C 0.9546(6) 0.3201(7) 1.0000
C24_6 C 0.9495(4) 0.4426(5) 0.8318(10)
H10_6 H 0.9258 0.4360 0.8033
H11_6 H 0.9703 0.4350 0.7934
H12_6 H 0.9505 0.4696 0.8416
O10_6 O 0.7054(3) 0.2946(3) 0.8497(9)
O11_12 O 1.0000 0.3978(5) 0.6474(9)
O12_6 O 0.7856(5) 0.5000 0.6489(10)
O13_12 O 1.0000 0.2732(6) 0.8107(12)
C30_6 C 0.8030(4) 0.2955(4) 0.2212(9)
C31_6 C 0.7897(5) 0.3137(4) 0.3074(10)
C32_6 C 0.7473(3) 0.3169(3) 0.4217(7)
C33_6 C 0.7195(4) 0.3461(4) 0.4196(8)
C34_6 C 0.7083(5) 0.3658(4) 0.3305(8)
H16_6 H 0.6901 0.3856 0.3427
H17_6 H 0.7306 0.3768 0.3031
H18_6 H 0.6973 0.3474 0.2900
H22_6 H 0.781001 0.24835 0.531629
H23_6 H 0.799952 0.266997 0.431896
H24_6 H 0.816385 0.283166 0.536475
H27_6 H 0.867802 0.478841 0.968265
H29_6 H 0.869626 0.429231 0.963626
H30_6 H 0.975019 0.409828 0.645121
H36_6 H 0.978747 0.309564 0.963842
H38_6 H 0.929103 0.310372 0.968039
O11_13 O 0.6022(5) 0.0000 0.6474(9)
O13_13 O 0.7268(6) 0.0000 0.8107(12)
H31_7 H 0.583154 0.0192028 0.662075
H34_7 H 0.74198 0.00545483 0.757066
H35_7 H 0.731519 0.0194258 0.856408
C8_13 C 0.5484(6) 0.8178(6) 0.0000
C10_13 C 0.5494(5) 0.7409(6) 0.0000
H1_13 H 0.5499 0.7144 0.0000
C12_13 C 0.5469(8) 0.8586(6) 0.0000
C21_13 C 0.5602(7) 0.9513(5) 0.0000
H9_13 H 0.5337 0.9497 0.0000
C22_13 C 0.6369(8) 0.9553(6) 0.0000
C23_13 C 0.6799(7) 0.9546(6) 0.0000
O14_7 O 0.6092(3) 0.8182(3) 0.1808(6)
O15_7 O 0.5974(3) 0.8650(3) 0.3191(6)
C25_7 C 0.5668(7) 0.8519(5) 0.2823(11)
C26_7 C 0.5781(6) 0.8255(4) 0.2004(9)
C27_7 C 0.5479(4) 0.7959(4) 0.0788(9)
C28_7 C 0.5491(4) 0.7575(4) 0.0821(7)
C29_7 C 0.5505(5) 0.7351(4) 0.1669(9)
H13_7 H 0.5282 0.7194 0.1712
H14_7 H 0.5728 0.7193 0.1668
H15_7 H 0.5514 0.7521 0.2178
O20_7 O 0.6740(3) 0.8954(3) 0.3209(6)
O21_7 O 0.6377(3) 0.8937(3) 0.1652(6)
C35_7 C 0.6457(5) 0.9243(5) 0.1984(10)
C36_7 C 0.6665(5) 0.9271(5) 0.2823(10)
C37_7 C 0.6156(5) 0.9545(4) 0.0766(8)
C38_7 C 0.5768(4) 0.9524(4) 0.0832(9)
C39_7 C 0.5574(5) 0.9495(4) 0.1682(10)
H19_7 H 0.5640 0.9258 0.1967
H20_7 H 0.5650 0.9703 0.2066
H21_7 H 0.5304 0.9505 0.1584
Ni2_3 Ni 0.64622(6) 0.85242(5) 0.25326(11)
O24_3 O 0.6601(3) 0.8112(3) 0.3372(5)
O25_3 O 0.6924(3) 0.8342(3) 0.1882(6)
H28_7 H 0.547654 0.868776 0.068109
H37_7 H 0.690057 0.955454 0.0681186
Ni1_7 Ni 0.64622(6) 0.85242(5) 0.74674(11)
O1_7 O 0.6092(3) 0.8182(3) 0.8192(6)
O2_7 O 0.5974(3) 0.8650(3) 0.6809(6)
O3_7 O 0.5351(4) 0.8603(3) 0.6965(7)
O4_7 O 0.6601(3) 0.8112(3) 0.6628(5)
O5_7 O 0.6924(3) 0.8342(3) 0.8118(6)
O6_7 O 0.7305(2) 0.7841(2) 0.8071(5)
O7_7 O 0.6740(3) 0.8954(3) 0.6791(6)
O8_7 O 0.6377(3) 0.8937(3) 0.8348(6)
O9_7 O 0.6738(3) 0.9593(3) 0.6893(6)
N1_7 N 0.5450(4) 0.8168(3) 0.8386(7)
N2_7 N 0.6974(3) 0.7601(3) 0.6610(6)
N3_7 N 0.6361(4) 0.9571(3) 0.8372(7)
C1_7 C 0.5668(7) 0.8519(5) 0.7177(11)
C2_7 C 0.5781(6) 0.8255(4) 0.7996(9)
C3_7 C 0.7045(4) 0.8030(4) 0.7788(9)
C4_7 C 0.6863(4) 0.7897(5) 0.6926(10)
C5_7 C 0.6457(5) 0.9243(5) 0.8016(10)
C6_7 C 0.6665(5) 0.9271(5) 0.7177(10)
C7_7 C 0.5479(4) 0.7959(4) 0.9212(9)
C8_14 C 0.5484(6) 0.8178(6) 1.0000
C9_7 C 0.5491(4) 0.7575(4) 0.9179(7)
C10_14 C 0.5494(5) 0.7409(6) 1.0000
H1_14 H 0.5499 0.7144 1.0000
C11_7 C 0.5505(5) 0.7351(4) 0.8331(9)
H2_7 H 0.5282 0.7194 0.8288
H3_7 H 0.5728 0.7193 0.8332
H4_7 H 0.5514 0.7521 0.7822
C12_14 C 0.5469(8) 0.8586(6) 1.0000
C13_7 C 0.6831(3) 0.7473(3) 0.5783(7)
C14_7 C 0.6955(6) 0.7614(6) 0.5000
C15_7 C 0.6539(4) 0.7195(4) 0.5804(8)
C16_7 C 0.6402(6) 0.7085(6) 0.5000
H5_7 H 0.6195 0.6919 0.5000
C17_7 C 0.6342(4) 0.7083(5) 0.6695(8)
H6_7 H 0.6144 0.6901 0.6573
H7_7 H 0.6232 0.7306 0.6969
H8_7 H 0.6526 0.6973 0.7100
C18_7 C 0.7266(6) 0.7920(6) 0.5000
C19_7 C 0.6156(5) 0.9545(4) 0.9234(8)
C20_7 C 0.5768(4) 0.9524(4) 0.9168(9)
C21_14 C 0.5602(7) 0.9513(5) 1.0000
H9_14 H 0.5337 0.9497 1.0000
C22_14 C 0.6369(8) 0.9553(6) 1.0000
C23_14 C 0.6799(7) 0.9546(6) 1.0000
C24_7 C 0.5574(5) 0.9495(4) 0.8318(10)
H10_7 H 0.5640 0.9258 0.8033
H11_7 H 0.5650 0.9703 0.7934
H12_7 H 0.5304 0.9505 0.8416
O10_7 O 0.7054(3) 0.7054(3) 0.8497(9)
O11_14 O 0.6022(5) 1.0000 0.6474(9)
O12_7 O 0.5000 0.7856(5) 0.6489(10)
O13_14 O 0.7268(6) 1.0000 0.8107(12)
C30_7 C 0.7045(4) 0.8030(4) 0.2212(9)
C31_7 C 0.6863(4) 0.7897(5) 0.3074(10)
C32_7 C 0.6831(3) 0.7473(3) 0.4217(7)
C33_7 C 0.6539(4) 0.7195(4) 0.4196(8)
C34_7 C 0.6342(4) 0.7083(5) 0.3305(8)
H16_7 H 0.6144 0.6901 0.3427
H17_7 H 0.6232 0.7306 0.3031
H18_7 H 0.6526 0.6973 0.2900
H22_7 H 0.75165 0.781001 0.531629
H23_7 H 0.733003 0.799952 0.431896
H24_7 H 0.716834 0.816385 0.536475
H27_7 H 0.521159 0.867802 0.968265
H29_7 H 0.570769 0.869626 0.963626
H30_7 H 0.590172 0.975019 0.645121
H36_7 H 0.690436 0.978747 0.963842
H38_7 H 0.689628 0.929103 0.968039
C8_15 C 0.4516(6) 0.1822(6) 0.0000
C10_15 C 0.4506(5) 0.2591(6) 0.0000
H1_15 H 0.4501 0.2856 0.0000
C12_15 C 0.4531(8) 0.1414(6) 0.0000
C21_15 C 0.4398(7) 0.0487(5) 0.0000
H9_15 H 0.4663 0.0503 0.0000
C22_15 C 0.3631(8) 0.0447(6) 0.0000
C23_15 C 0.3201(7) 0.0454(6) 0.0000
O14_8 O 0.3908(3) 0.1818(3) 0.1808(6)
O15_8 O 0.4026(3) 0.1350(3) 0.3191(6)
C25_8 C 0.4332(7) 0.1481(5) 0.2823(11)
C26_8 C 0.4219(6) 0.1745(4) 0.2004(9)
C27_8 C 0.4521(4) 0.2041(4) 0.0788(9)
C28_8 C 0.4509(4) 0.2425(4) 0.0821(7)
C29_8 C 0.4495(5) 0.2649(4) 0.1669(9)
H13_8 H 0.4718 0.2806 0.1712
H14_8 H 0.4272 0.2807 0.1668
H15_8 H 0.4486 0.2479 0.2178
O20_8 O 0.3260(3) 0.1046(3) 0.3209(6)
O21_8 O 0.3623(3) 0.1063(3) 0.1652(6)
C35_8 C 0.3543(5) 0.0757(5) 0.1984(10)
C36_8 C 0.3335(5) 0.0729(5) 0.2823(10)
C37_8 C 0.3844(5) 0.0455(4) 0.0766(8)
C38_8 C 0.4232(4) 0.0476(4) 0.0832(9)
C39_8 C 0.4426(5) 0.0505(4) 0.1682(10)
H19_8 H 0.4360 0.0742 0.1967
H20_8 H 0.4350 0.0297 0.2066
H21_8 H 0.4696 0.0495 0.1584
Ni2_4 Ni 0.35378(6) 0.14758(5) 0.25326(11)
O24_4 O 0.3399(3) 0.1888(3) 0.3372(5)
O25_4 O 0.3076(3) 0.1658(3) 0.1882(6)
H28_8 H 0.452346 0.131224 0.068109
H37_8 H 0.309943 0.0445456 0.0681186
Ni1_8 Ni 0.35378(6) 0.14758(5) 0.74674(11)
O1_8 O 0.3908(3) 0.1818(3) 0.8192(6)
O2_8 O 0.4026(3) 0.1350(3) 0.6809(6)
O3_8 O 0.4649(4) 0.1397(3) 0.6965(7)
O4_8 O 0.3399(3) 0.1888(3) 0.6628(5)
O5_8 O 0.3076(3) 0.1658(3) 0.8118(6)
O6_8 O 0.2695(2) 0.2159(2) 0.8071(5)
O7_8 O 0.3260(3) 0.1046(3) 0.6791(6)
O8_8 O 0.3623(3) 0.1063(3) 0.8348(6)
O9_8 O 0.3262(3) 0.0407(3) 0.6893(6)
N1_8 N 0.4550(4) 0.1832(3) 0.8386(7)
N2_8 N 0.3026(3) 0.2399(3) 0.6610(6)
N3_8 N 0.3639(4) 0.0429(3) 0.8372(7)
C1_8 C 0.4332(7) 0.1481(5) 0.7177(11)
C2_8 C 0.4219(6) 0.1745(4) 0.7996(9)
C3_8 C 0.2955(4) 0.1970(4) 0.7788(9)
C4_8 C 0.3137(4) 0.2103(5) 0.6926(10)
C5_8 C 0.3543(5) 0.0757(5) 0.8016(10)
C6_8 C 0.3335(5) 0.0729(5) 0.7177(10)
C7_8 C 0.4521(4) 0.2041(4) 0.9212(9)
C8_16 C 0.4516(6) 0.1822(6) 1.0000
C9_8 C 0.4509(4) 0.2425(4) 0.9179(7)
C10_16 C 0.4506(5) 0.2591(6) 1.0000
H1_16 H 0.4501 0.2856 1.0000
C11_8 C 0.4495(5) 0.2649(4) 0.8331(9)
H2_8 H 0.4718 0.2806 0.8288
H3_8 H 0.4272 0.2807 0.8332
H4_8 H 0.4486 0.2479 0.7822
C12_16 C 0.4531(8) 0.1414(6) 1.0000
C13_8 C 0.3169(3) 0.2527(3) 0.5783(7)
C14_8 C 0.3045(6) 0.2386(6) 0.5000
C15_8 C 0.3461(4) 0.2805(4) 0.5804(8)
C16_8 C 0.3598(6) 0.2915(6) 0.5000
H5_8 H 0.3805 0.3081 0.5000
C17_8 C 0.3658(4) 0.2917(5) 0.6695(8)
H6_8 H 0.3856 0.3099 0.6573
H7_8 H 0.3768 0.2694 0.6969
H8_8 H 0.3474 0.3027 0.7100
C18_8 C 0.2734(6) 0.2080(6) 0.5000
C19_8 C 0.3844(5) 0.0455(4) 0.9234(8)
C20_8 C 0.4232(4) 0.0476(4) 0.9168(9)
C21_16 C 0.4398(7) 0.0487(5) 1.0000
H9_16 H 0.4663 0.0503 1.0000
C22_16 C 0.3631(8) 0.0447(6) 1.0000
C23_16 C 0.3201(7) 0.0454(6) 1.0000
C24_8 C 0.4426(5) 0.0505(4) 0.8318(10)
H10_8 H 0.4360 0.0742 0.8033
H11_8 H 0.4350 0.0297 0.7934
H12_8 H 0.4696 0.0495 0.8416
O10_8 O 0.2946(3) 0.2946(3) 0.8497(9)
O11_15 O 0.3978(5) 0.0000 0.6474(9)
O12_8 O 0.5000 0.2144(5) 0.6489(10)
O13_15 O 0.2732(6) -0.0000 0.8107(12)
C30_8 C 0.2955(4) 0.1970(4) 0.2212(9)
C31_8 C 0.3137(4) 0.2103(5) 0.3074(10)
C32_8 C 0.3169(3) 0.2527(3) 0.4217(7)
C33_8 C 0.3461(4) 0.2805(4) 0.4196(8)
C34_8 C 0.3658(4) 0.2917(5) 0.3305(8)
H16_8 H 0.3856 0.3099 0.3427
H17_8 H 0.3768 0.2694 0.3031
H18_8 H 0.3474 0.3027 0.2900
H22_8 H 0.24835 0.218999 0.531629
H23_8 H 0.266997 0.200048 0.431896
H24_8 H 0.283166 0.183615 0.536475
H27_8 H 0.478841 0.132198 0.968265
H29_8 H 0.429231 0.130374 0.963626
H30_8 H 0.409828 0.0249806 0.645121
H36_8 H 0.309564 0.0212526 0.963842
H38_8 H 0.310372 0.070897 0.968039
O11_16 O 0.3978(5) 1.0000 0.6474(9)
O13_16 O 0.2732(6) 1.0000 0.8107(12)
H31_8 H 0.416846 0.980797 0.662075
H34_8 H 0.25802 0.994545 0.757066
H35_8 H 0.268481 0.980574 0.856408
H28_9 H 0.131224 0.452346 0.068109
H37_9 H 0.0445456 0.309943 0.0681186
H22_9 H 0.218999 0.24835 0.531629
H23_9 H 0.200048 0.266997 0.431896
H24_9 H 0.183615 0.283166 0.536475
H27_9 H 0.132198 0.478841 0.968265
H29_9 H 0.130374 0.429231 0.963626
H30_9 H 0.0249806 0.409828 0.645121
H36_9 H 0.0212526 0.309564 0.963842
H38_9 H 0.070897 0.310372 0.968039
H31_9 H 0.980797 0.416846 0.662075
H34_9 H 0.994545 0.25802 0.757066
H35_9 H 0.980574 0.268481 0.856408
H31_10 H 0.0192028 0.583154 0.662075
H34_10 H 0.00545483 0.74198 0.757066
H35_10 H 0.0194258 0.731519 0.856408
H28_10 H 0.868776 0.547654 0.068109
H37_10 H 0.955454 0.690057 0.0681186
H22_10 H 0.781001 0.75165 0.531629
H23_10 H 0.799952 0.733003 0.431896
H24_10 H 0.816385 0.716834 0.536475
H27_10 H 0.867802 0.521159 0.968265
H29_10 H 0.869626 0.570769 0.963626
H30_10 H 0.975019 0.590172 0.645121
H36_10 H 0.978747 0.690436 0.963842
H38_10 H 0.929103 0.689628 0.968039
H28_11 H 0.547654 0.131224 0.068109
H37_11 H 0.690057 0.0445456 0.0681186
H22_11 H 0.75165 0.218999 0.531629
H23_11 H 0.733003 0.200048 0.431896
H24_11 H 0.716834 0.183615 0.536475
H27_11 H 0.521159 0.132198 0.968265
H29_11 H 0.570769 0.130374 0.963626
H30_11 H 0.590172 0.0249806 0.645121
H36_11 H 0.690436 0.0212526 0.963842
H38_11 H 0.689628 0.070897 0.968039
H31_11 H 0.583154 0.980797 0.662075
H34_11 H 0.74198 0.994545 0.757066
H35_11 H 0.731519 0.980574 0.856408
H31_12 H 0.416846 0.0192028 0.662075
H34_12 H 0.25802 0.00545483 0.757066
H35_12 H 0.268481 0.0194258 0.856408
H28_12 H 0.452346 0.868776 0.068109
H37_12 H 0.309943 0.955454 0.0681186
H22_12 H 0.24835 0.781001 0.531629
H23_12 H 0.266997 0.799952 0.431896
H24_12 H 0.283166 0.816385 0.536475
H27_12 H 0.478841 0.867802 0.968265
H29_12 H 0.429231 0.869626 0.963626
H30_12 H 0.409828 0.975019 0.645121
H36_12 H 0.309564 0.978747 0.963842
H38_12 H 0.310372 0.929103 0.968039
H31_13 H 0.0192028 0.416846 0.337925
H34_13 H 0.00545483 0.25802 0.242934
H35_13 H 0.0194258 0.268481 0.143592
H22_13 H 0.781001 0.24835 0.468371
H23_13 H 0.799952 0.266997 0.568104
H24_13 H 0.816385 0.283166 0.463525
H27_13 H 0.867802 0.478841 0.0317346
H29_13 H 0.869626 0.429231 0.0363744
H30_13 H 0.975019 0.409828 0.354879
H36_13 H 0.978747 0.309564 0.0361576
H38_13 H 0.929103 0.310372 0.031961
H28_13 H 0.868776 0.452346 0.931891
H37_13 H 0.955454 0.309943 0.931881
H22_14 H 0.218999 0.75165 0.468371
H23_14 H 0.200048 0.733003 0.568104
H24_14 H 0.183615 0.716834 0.463525
H27_14 H 0.132198 0.521159 0.0317346
H29_14 H 0.130374 0.570769 0.0363744
H30_14 H 0.0249806 0.590172 0.354879
H36_14 H 0.0212526 0.690436 0.0361576
H38_14 H 0.070897 0.689628 0.031961
H28_14 H 0.131224 0.547654 0.931891
H37_14 H 0.0445456 0.690057 0.931881
H31_14 H 0.980797 0.583154 0.337925
H34_14 H 0.994545 0.74198 0.242934
H35_14 H 0.980574 0.731519 0.143592
H22_15 H 0.24835 0.218999 0.468371
H23_15 H 0.266997 0.200048 0.568104
H24_15 H 0.283166 0.183615 0.463525
H27_15 H 0.478841 0.132198 0.0317346
H29_15 H 0.429231 0.130374 0.0363744
H30_15 H 0.409828 0.0249806 0.354879
H36_15 H 0.309564 0.0212526 0.0361576
H38_15 H 0.310372 0.070897 0.031961
H28_15 H 0.452346 0.131224 0.931891
H37_15 H 0.309943 0.0445456 0.931881
H31_15 H 0.416846 0.980797 0.337925
H34_15 H 0.25802 0.994545 0.242934
H35_15 H 0.268481 0.980574 0.143592
H31_16 H 0.583154 0.0192028 0.337925
H34_16 H 0.74198 0.00545483 0.242934
H35_16 H 0.731519 0.0194258 0.143592
H22_16 H 0.75165 0.781001 0.468371
H23_16 H 0.733003 0.799952 0.568104
H24_16 H 0.716834 0.816385 0.463525
H27_16 H 0.521159 0.867802 0.0317346
H29_16 H 0.570769 0.869626 0.0363744
H30_16 H 0.590172 0.975019 0.354879
H36_16 H 0.690436 0.978747 0.0361576
H38_16 H 0.689628 0.929103 0.031961
H28_16 H 0.547654 0.868776 0.931891
H37_16 H 0.690057 0.955454 0.931881
Na1 Na 0.7741(4) 0.7741(4) 0.0700(8)
Na1_2 Na 0.2259(4) 0.2259(4) 0.0700(8)
Na1_3 Na 0.2259(4) 0.7741(4) 0.0700(8)
Na1_4 Na 0.7741(4) 0.2259(4) 0.0700(8)
Na1_5 Na 0.2259(4) 0.7741(4) 0.9300(8)
Na1_6 Na 0.7741(4) 0.2259(4) 0.9300(8)
Na1_7 Na 0.7741(4) 0.7741(4) 0.9300(8)
Na1_8 Na 0.2259(4) 0.2259(4) 0.9300(8)
Na2 Na 0.8603(4) 0.6578(4) 0.0000
Na2_2 Na 0.8603(4) 0.6578(4) 1.0000
Na2_3 Na 0.1397(4) 0.3422(4) 0.0000
Na2_4 Na 0.1397(4) 0.3422(4) 1.0000
Na2_5 Na 0.3422(4) 0.8603(4) 0.0000
Na2_6 Na 0.3422(4) 0.8603(4) 1.0000
Na2_7 Na 0.6578(4) 0.1397(4) 0.0000
Na2_8 Na 0.6578(4) 0.1397(4) 1.0000
Na2_9 Na 0.1397(4) 0.6578(4) 0.0000
Na2_10 Na 0.1397(4) 0.6578(4) 1.0000
Na2_11 Na 0.8603(4) 0.3422(4) 0.0000
Na2_12 Na 0.8603(4) 0.3422(4) 1.0000
Na2_13 Na 0.6578(4) 0.8603(4) 0.0000
Na2_14 Na 0.6578(4) 0.8603(4) 1.0000
Na2_15 Na 0.3422(4) 0.1397(4) 0.0000
Na2_16 Na 0.3422(4) 0.1397(4) 1.0000
Pd7 Pd 0.1138(10) 0.6751(18) 0.5000
Pd8 Pd 0.0341(4) 0.6911(13) 0.5000
Pd5 Pd 0.8862(10) 0.6751(18) 0.5000
Pd6 Pd 0.9659(4) 0.6911(13) 0.5000
Pd5_2 Pd 0.1138(10) 0.3249(18) 0.5000
Pd6_2 Pd 0.0341(4) 0.3089(13) 0.5000
Pd7_2 Pd 0.8862(10) 0.3249(18) 0.5000
Pd8_2 Pd 0.9659(4) 0.3089(13) 0.5000
Pd7_3 Pd 0.3249(18) 0.1138(10) 0.5000
Pd8_3 Pd 0.3089(13) 0.0341(4) 0.5000
Pd5_3 Pd 0.3249(18) 0.8862(10) 0.5000
Pd6_3 Pd 0.3089(13) 0.9659(4) 0.5000
Pd5_4 Pd 0.6751(18) 0.1138(10) 0.5000
Pd6_4 Pd 0.6911(13) 0.0341(4) 0.5000
Pd7_4 Pd 0.6751(18) 0.8862(10) 0.5000
Pd8_4 Pd 0.6911(13) 0.9659(4) 0.5000
loop_
_geom_bond_atom_site_label_1
_geom_bond_atom_site_label_2
_geom_bond_site_symmetry_1
_geom_bond_site_symmetry_2
Pd1 Pd2 1_555 1_555
Pd2 Pd4 1_555 1_555
Pd3 Pd4 1_555 1_555
Pd1_2 Pd2_2 1_555 1_555
Pd2_2 Pd4_2 1_555 1_555
Pd3_2 Pd4_2 1_555 1_555
Pd1_3 Pd2_3 1_555 1_555
Pd2_3 Pd4_3 1_555 1_555
Pd3_3 Pd4_3 1_555 1_555
Pd1_4 Pd2_4 1_555 1_555
Pd2_4 Pd4_4 1_555 1_555
Pd3_4 Pd4_4 1_555 1_555
O11 Cu3 1_555 1_555
O13 Cu3 1_555 1_555
O27 Cu3 1_555 1_555
N9 Cu3 1_555 1_555
O11 H31 1_555 1_555
O13 H34 1_555 1_555
O13 H35 1_555 1_555
Cu1 O3 1_555 1_555
Cu2 O6 1_555 1_555
Cu3_2 O9 1_555 1_555
Ni1 O1 1_555 1_555
O1 C2 1_555 1_555
O2 Ni1 1_555 1_555
O3 C1 1_555 1_555
O4 Ni1 1_555 1_555
O5 Ni1 1_555 1_555
O6 C3 1_555 1_555
O7 Ni1 1_555 1_555
O8 Ni1 1_555 1_555
O9 C6 1_555 1_555
N1 Cu1 1_555 1_555
N2 Cu2 1_555 1_555
N3 Cu3_2 1_555 1_555
C1 O2 1_555 1_555
C2 N1 1_555 1_555
C3 O5 1_555 1_555
C4 O4 1_555 1_555
C5 O8 1_555 1_555
C6 O7 1_555 1_555
C7 N1 1_555 1_555
C8 C7 1_555 1_555
C9 C7 1_555 1_555
C10 C9 1_555 1_555
H1 C10 1_555 1_555
C11 C9 1_555 1_555
H2 C11 1_555 1_555
H3 C11 1_555 1_555
H4 C11 1_555 1_555
C12 C8 1_555 1_555
C13 N2 1_555 1_555
C14 C13 1_555 1_555
C15 C13 1_555 1_555
C16 C15 1_555 1_555
H5 C16 1_555 1_555
C17 C15 1_555 1_555
H6 C17 1_555 1_555
H7 C17 1_555 1_555
H8 C17 1_555 1_555
C18 C14 1_555 1_555
C19 N3 1_555 1_555
C20 C19 1_555 1_555
C21 C20 1_555 1_555
H9 C21 1_555 1_555
C22 C19 1_555 1_555
C23 C22 1_555 1_555
C24 C20 1_555 1_555
H10 C24 1_555 1_555
H11 C24 1_555 1_555
H12 C24 1_555 1_555
O10 Cu2 1_555 1_555
O11_2 Cu3_2 1_555 1_555
O12 Cu1 1_555 1_555
O13_2 Cu3_2 1_555 1_555
O17 C31 1_555 1_555
O18 C30 1_555 1_555
O19 C30 1_555 1_555
N5 C31 1_555 1_555
C30 C31 1_555 1_555
C32 C14 1_555 1_555
C33 C16 1_555 1_555
C34 C33 1_555 1_555
H16 C34 1_555 1_555
H17 C34 1_555 1_555
H18 C34 1_555 1_555
Cu5 O19 1_555 1_555
Ni3 O17 1_555 1_555
O23 Cu1 1_555 1_555
O26 Cu2 1_555 1_555
N7 Cu1 1_555 1_555
N8 Cu2 1_555 1_555
N2 C4 1_555 1_555
N3 C5 1_555 1_555
C1 C2 1_555 1_555
C3 C4 1_555 1_555
C5 C6 1_555 1_555
O18 Ni3 1_555 1_555
N5 C32 1_555 1_555
N5 Cu5 1_555 1_555
C32 C33 1_555 1_555
C18 H22 1_555 1_555
C18 H23 1_555 1_555
C18 H24 1_555 1_555
C12 H27 1_555 1_555
C12 H29 1_555 1_555
O11_2 H30 1_555 1_555
C23 H36 1_555 1_555
C23 H38 1_555 1_555
H1_2 C10_2 1_555 1_555
C12_2 C8_2 1_555 1_555
H9_2 C21_2 1_555 1_555
C23_2 C22_2 1_555 1_555
O14 C26 1_555 1_555
O15 C25 1_555 1_555
O16 C25 1_555 1_555
N4 C26 1_555 1_555
C25 C26 1_555 1_555
C27 C8_2 1_555 1_555
C28 C10_2 1_555 1_555
C29 C28 1_555 1_555
H13 C29 1_555 1_555
H14 C29 1_555 1_555
H15 C29 1_555 1_555
O20 C36 1_555 1_555
O21 C35 1_555 1_555
O22 C36 1_555 1_555
N6 C35 1_555 1_555
C35 C36 1_555 1_555
C37 C22_2 1_555 1_555
C38 C21_2 1_555 1_555
C39 C38 1_555 1_555
H19 C39 1_555 1_555
H20 C39 1_555 1_555
H21 C39 1_555 1_555
Ni3 O14 1_555 1_555
Cu4 O16 1_555 1_555
Cu6_2 O22 1_555 1_555
O15 Ni3 1_555 1_555
N4 C27 1_555 1_555
N4 Cu4 1_555 1_555
C27 C28 1_555 1_555
O20 Ni3 1_555 1_555
O21 Ni3 1_555 1_555
N6 C37 1_555 1_555
N6 Cu6_2 1_555 1_555
C37 C38 1_555 1_555
C12_2 H28 1_555 1_555
C23_2 H37 1_555 1_555
Cu1_2 O3_2 1_555 1_555
Cu2_2 O6_2 1_555 1_555
Cu3_3 O9_2 1_555 1_555
Ni1_2 O1_2 1_555 1_555
O1_2 C2_2 1_555 1_555
O2_2 Ni1_2 1_555 1_555
O3_2 C1_2 1_555 1_555
O4_2 Ni1_2 1_555 1_555
O5_2 Ni1_2 1_555 1_555
O6_2 C3_2 1_555 1_555
O7_2 Ni1_2 1_555 1_555
O8_2 Ni1_2 1_555 1_555
O9_2 C6_2 1_555 1_555
N1_2 Cu1_2 1_555 1_555
N2_2 Cu2_2 1_555 1_555
N3_2 Cu3_3 1_555 1_555
C1_2 O2_2 1_555 1_555
C2_2 N1_2 1_555 1_555
C3_2 O5_2 1_555 1_555
C4_2 O4_2 1_555 1_555
C5_2 O8_2 1_555 1_555
C6_2 O7_2 1_555 1_555
C7_2 N1_2 1_555 1_555
C8_3 C7_2 1_555 1_555
C9_2 C7_2 1_555 1_555
C10_3 C9_2 1_555 1_555
H1_3 C10_3 1_555 1_555
C11_2 C9_2 1_555 1_555
H2_2 C11_2 1_555 1_555
H3_2 C11_2 1_555 1_555
H4_2 C11_2 1_555 1_555
C12_3 C8_3 1_555 1_555
C13_2 N2_2 1_555 1_555
C14_2 C13_2 1_555 1_555
C15_2 C13_2 1_555 1_555
C16_2 C15_2 1_555 1_555
H5_2 C16_2 1_555 1_555
C17_2 C15_2 1_555 1_555
H6_2 C17_2 1_555 1_555
H7_2 C17_2 1_555 1_555
H8_2 C17_2 1_555 1_555
C18_2 C14_2 1_555 1_555
C19_2 N3_2 1_555 1_555
C20_2 C19_2 1_555 1_555
C21_3 C20_2 1_555 1_555
H9_3 C21_3 1_555 1_555
C22_3 C19_2 1_555 1_555
C23_3 C22_3 1_555 1_555
C24_2 C20_2 1_555 1_555
H10_2 C24_2 1_555 1_555
H11_2 C24_2 1_555 1_555
H12_2 C24_2 1_555 1_555
O10_2 Cu2_2 1_555 1_555
O11_3 Cu3_3 1_555 1_555
O12_2 Cu1_2 1_555 1_555
O13_3 Cu3_3 1_555 1_555
O17_2 C31_2 1_555 1_555
O18_2 C30_2 1_555 1_555
O19_2 C30_2 1_555 1_555
N5_2 C31_2 1_555 1_555
C30_2 C31_2 1_555 1_555
C32_2 C14_2 1_555 1_555
C33_2 C16_2 1_555 1_555
C34_2 C33_2 1_555 1_555
H16_2 C34_2 1_555 1_555
H17_2 C34_2 1_555 1_555
H18_2 C34_2 1_555 1_555
Cu5_2 O19_2 1_555 1_555
Ni3_2 O17_2 1_555 1_555
O23_2 Cu1_2 1_555 1_555
O26_2 Cu2_2 1_555 1_555
N7_2 Cu1_2 1_555 1_555
N8_2 Cu2_2 1_555 1_555
N2_2 C4_2 1_555 1_555
N3_2 C5_2 1_555 1_555
C1_2 C2_2 1_555 1_555
C3_2 C4_2 1_555 1_555
C5_2 C6_2 1_555 1_555
O18_2 Ni3_2 1_555 1_555
N5_2 C32_2 1_555 1_555
N5_2 Cu5_2 1_555 1_555
C32_2 C33_2 1_555 1_555
C18_2 H22_2 1_555 1_555
C18_2 H23_2 1_555 1_555
C18_2 H24_2 1_555 1_555
C12_3 H27_2 1_555 1_555
C12_3 H29_2 1_555 1_555
O11_3 H30_2 1_555 1_555
C23_3 H36_2 1_555 1_555
C23_3 H38_2 1_555 1_555
H1_4 C10_4 1_555 1_555
C12_4 C8_4 1_555 1_555
H9_4 C21_4 1_555 1_555
C23_4 C22_4 1_555 1_555
O14_2 C26_2 1_555 1_555
O15_2 C25_2 1_555 1_555
O16_2 C25_2 1_555 1_555
N4_2 C26_2 1_555 1_555
C25_2 C26_2 1_555 1_555
C27_2 C8_4 1_555 1_555
C28_2 C10_4 1_555 1_555
C29_2 C28_2 1_555 1_555
H13_2 C29_2 1_555 1_555
H14_2 C29_2 1_555 1_555
H15_2 C29_2 1_555 1_555
O20_2 C36_2 1_555 1_555
O21_2 C35_2 1_555 1_555
O22_2 C36_2 1_555 1_555
N6_2 C35_2 1_555 1_555
C35_2 C36_2 1_555 1_555
C37_2 C22_4 1_555 1_555
C38_2 C21_4 1_555 1_555
C39_2 C38_2 1_555 1_555
H19_2 C39_2 1_555 1_555
H20_2 C39_2 1_555 1_555
H21_2 C39_2 1_555 1_555
Ni3_2 O14_2 1_555 1_555
Cu4_2 O16_2 1_555 1_555
Cu6_3 O22_2 1_555 1_555
O15_2 Ni3_2 1_555 1_555
N4_2 C27_2 1_555 1_555
N4_2 Cu4_2 1_555 1_555
C27_2 C28_2 1_555 1_555
O20_2 Ni3_2 1_555 1_555
O21_2 Ni3_2 1_555 1_555
N6_2 C37_2 1_555 1_555
N6_2 Cu6_3 1_555 1_555
C37_2 C38_2 1_555 1_555
C12_4 H28_2 1_555 1_555
C23_4 H37_2 1_555 1_555
O11_4 Cu3_4 1_555 1_555
O13_4 Cu3_4 1_555 1_555
O27_2 Cu3_4 1_555 1_555
N9_2 Cu3_4 1_555 1_555
O11_4 H31_2 1_555 1_555
O13_4 H34_2 1_555 1_555
O13_4 H35_2 1_555 1_555
O11_5 Cu3_5 1_555 1_555
O13_5 Cu3_5 1_555 1_555
O27_3 Cu3_5 1_555 1_555
N9_3 Cu3_5 1_555 1_555
O11_5 H31_3 1_555 1_555
O13_5 H34_3 1_555 1_555
O13_5 H35_3 1_555 1_555
Cu1_3 O3_3 1_555 1_555
Cu2_3 O6_3 1_555 1_555
Cu3_6 O9_3 1_555 1_555
Ni1_3 O1_3 1_555 1_555
O1_3 C2_3 1_555 1_555
O2_3 Ni1_3 1_555 1_555
O3_3 C1_3 1_555 1_555
O4_3 Ni1_3 1_555 1_555
O5_3 Ni1_3 1_555 1_555
O6_3 C3_3 1_555 1_555
O7_3 Ni1_3 1_555 1_555
O8_3 Ni1_3 1_555 1_555
O9_3 C6_3 1_555 1_555
N1_3 Cu1_3 1_555 1_555
N2_3 Cu2_3 1_555 1_555
N3_3 Cu3_6 1_555 1_555
C1_3 O2_3 1_555 1_555
C2_3 N1_3 1_555 1_555
C3_3 O5_3 1_555 1_555
C4_3 O4_3 1_555 1_555
C5_3 O8_3 1_555 1_555
C6_3 O7_3 1_555 1_555
C7_3 N1_3 1_555 1_555
C8_5 C7_3 1_555 1_555
C9_3 C7_3 1_555 1_555
C10_5 C9_3 1_555 1_555
H1_5 C10_5 1_555 1_555
C11_3 C9_3 1_555 1_555
H2_3 C11_3 1_555 1_555
H3_3 C11_3 1_555 1_555
H4_3 C11_3 1_555 1_555
C12_5 C8_5 1_555 1_555
C13_3 N2_3 1_555 1_555
C14_3 C13_3 1_555 1_555
C15_3 C13_3 1_555 1_555
C16_3 C15_3 1_555 1_555
H5_3 C16_3 1_555 1_555
C17_3 C15_3 1_555 1_555
H6_3 C17_3 1_555 1_555
H7_3 C17_3 1_555 1_555
H8_3 C17_3 1_555 1_555
C18_3 C14_3 1_555 1_555
C19_3 N3_3 1_555 1_555
C20_3 C19_3 1_555 1_555
C21_5 C20_3 1_555 1_555
H9_5 C21_5 1_555 1_555
C22_5 C19_3 1_555 1_555
C23_5 C22_5 1_555 1_555
C24_3 C20_3 1_555 1_555
H10_3 C24_3 1_555 1_555
H11_3 C24_3 1_555 1_555
H12_3 C24_3 1_555 1_555
O10_3 Cu2_3 1_555 1_555
O11_6 Cu3_6 1_555 1_555
O12_3 Cu1_3 1_555 1_555
O13_6 Cu3_6 1_555 1_555
O17_3 C31_3 1_555 1_555
O18_3 C30_3 1_555 1_555
O19_3 C30_3 1_555 1_555
N5_3 C31_3 1_555 1_555
C30_3 C31_3 1_555 1_555
C32_3 C14_3 1_555 1_555
C33_3 C16_3 1_555 1_555
C34_3 C33_3 1_555 1_555
H16_3 C34_3 1_555 1_555
H17_3 C34_3 1_555 1_555
H18_3 C34_3 1_555 1_555
Cu5_3 O19_3 1_555 1_555
Ni3_3 O17_3 1_555 1_555
O23_3 Cu1_3 1_555 1_555
O26_3 Cu2_3 1_555 1_555
N7_3 Cu1_3 1_555 1_555
N8_3 Cu2_3 1_555 1_555
N2_3 C4_3 1_555 1_555
N3_3 C5_3 1_555 1_555
C1_3 C2_3 1_555 1_555
C3_3 C4_3 1_555 1_555
C5_3 C6_3 1_555 1_555
O18_3 Ni3_3 1_555 1_555
N5_3 C32_3 1_555 1_555
N5_3 Cu5_3 1_555 1_555
C32_3 C33_3 1_555 1_555
C18_3 H22_3 1_555 1_555
C18_3 H23_3 1_555 1_555
C18_3 H24_3 1_555 1_555
C12_5 H27_3 1_555 1_555
C12_5 H29_3 1_555 1_555
O11_6 H30_3 1_555 1_555
C23_5 H36_3 1_555 1_555
C23_5 H38_3 1_555 1_555
H1_6 C10_6 1_555 1_555
C12_6 C8_6 1_555 1_555
H9_6 C21_6 1_555 1_555
C23_6 C22_6 1_555 1_555
O14_3 C26_3 1_555 1_555
O15_3 C25_3 1_555 1_555
O16_3 C25_3 1_555 1_555
N4_3 C26_3 1_555 1_555
C25_3 C26_3 1_555 1_555
C27_3 C8_6 1_555 1_555
C28_3 C10_6 1_555 1_555
C29_3 C28_3 1_555 1_555
H13_3 C29_3 1_555 1_555
H14_3 C29_3 1_555 1_555
H15_3 C29_3 1_555 1_555
O20_3 C36_3 1_555 1_555
O21_3 C35_3 1_555 1_555
O22_3 C36_3 1_555 1_555
N6_3 C35_3 1_555 1_555
C35_3 C36_3 1_555 1_555
C37_3 C22_6 1_555 1_555
C38_3 C21_6 1_555 1_555
C39_3 C38_3 1_555 1_555
H19_3 C39_3 1_555 1_555
H20_3 C39_3 1_555 1_555
H21_3 C39_3 1_555 1_555
Ni3_3 O14_3 1_555 1_555
Cu4_3 O16_3 1_555 1_555
Cu6_6 O22_3 1_555 1_555
O15_3 Ni3_3 1_555 1_555
N4_3 C27_3 1_555 1_555
N4_3 Cu4_3 1_555 1_555
C27_3 C28_3 1_555 1_555
O20_3 Ni3_3 1_555 1_555
O21_3 Ni3_3 1_555 1_555
N6_3 C37_3 1_555 1_555
N6_3 Cu6_6 1_555 1_555
C37_3 C38_3 1_555 1_555
C12_6 H28_3 1_555 1_555
C23_6 H37_3 1_555 1_555
Cu1_4 O3_4 1_555 1_555
Cu2_4 O6_4 1_555 1_555
Cu3_7 O9_4 1_555 1_555
Ni1_4 O1_4 1_555 1_555
O1_4 C2_4 1_555 1_555
O2_4 Ni1_4 1_555 1_555
O3_4 C1_4 1_555 1_555
O4_4 Ni1_4 1_555 1_555
O5_4 Ni1_4 1_555 1_555
O6_4 C3_4 1_555 1_555
O7_4 Ni1_4 1_555 1_555
O8_4 Ni1_4 1_555 1_555
O9_4 C6_4 1_555 1_555
N1_4 Cu1_4 1_555 1_555
N2_4 Cu2_4 1_555 1_555
N3_4 Cu3_7 1_555 1_555
C1_4 O2_4 1_555 1_555
C2_4 N1_4 1_555 1_555
C3_4 O5_4 1_555 1_555
C4_4 O4_4 1_555 1_555
C5_4 O8_4 1_555 1_555
C6_4 O7_4 1_555 1_555
C7_4 N1_4 1_555 1_555
C8_7 C7_4 1_555 1_555
C9_4 C7_4 1_555 1_555
C10_7 C9_4 1_555 1_555
H1_7 C10_7 1_555 1_555
C11_4 C9_4 1_555 1_555
H2_4 C11_4 1_555 1_555
H3_4 C11_4 1_555 1_555
H4_4 C11_4 1_555 1_555
C12_7 C8_7 1_555 1_555
C13_4 N2_4 1_555 1_555
C14_4 C13_4 1_555 1_555
C15_4 C13_4 1_555 1_555
C16_4 C15_4 1_555 1_555
H5_4 C16_4 1_555 1_555
C17_4 C15_4 1_555 1_555
H6_4 C17_4 1_555 1_555
H7_4 C17_4 1_555 1_555
H8_4 C17_4 1_555 1_555
C18_4 C14_4 1_555 1_555
C19_4 N3_4 1_555 1_555
C20_4 C19_4 1_555 1_555
C21_7 C20_4 1_555 1_555
H9_7 C21_7 1_555 1_555
C22_7 C19_4 1_555 1_555
C23_7 C22_7 1_555 1_555
C24_4 C20_4 1_555 1_555
H10_4 C24_4 1_555 1_555
H11_4 C24_4 1_555 1_555
H12_4 C24_4 1_555 1_555
O10_4 Cu2_4 1_555 1_555
O11_7 Cu3_7 1_555 1_555
O12_4 Cu1_4 1_555 1_555
O13_7 Cu3_7 1_555 1_555
O17_4 C31_4 1_555 1_555
O18_4 C30_4 1_555 1_555
O19_4 C30_4 1_555 1_555
N5_4 C31_4 1_555 1_555
C30_4 C31_4 1_555 1_555
C32_4 C14_4 1_555 1_555
C33_4 C16_4 1_555 1_555
C34_4 C33_4 1_555 1_555
H16_4 C34_4 1_555 1_555
H17_4 C34_4 1_555 1_555
H18_4 C34_4 1_555 1_555
Cu5_4 O19_4 1_555 1_555
Ni3_4 O17_4 1_555 1_555
O23_4 Cu1_4 1_555 1_555
O26_4 Cu2_4 1_555 1_555
N7_4 Cu1_4 1_555 1_555
N8_4 Cu2_4 1_555 1_555
N2_4 C4_4 1_555 1_555
N3_4 C5_4 1_555 1_555
C1_4 C2_4 1_555 1_555
C3_4 C4_4 1_555 1_555
C5_4 C6_4 1_555 1_555
O18_4 Ni3_4 1_555 1_555
N5_4 C32_4 1_555 1_555
N5_4 Cu5_4 1_555 1_555
C32_4 C33_4 1_555 1_555
C18_4 H22_4 1_555 1_555
C18_4 H23_4 1_555 1_555
C18_4 H24_4 1_555 1_555
C12_7 H27_4 1_555 1_555
C12_7 H29_4 1_555 1_555
O11_7 H30_4 1_555 1_555
C23_7 H36_4 1_555 1_555
C23_7 H38_4 1_555 1_555
H1_8 C10_8 1_555 1_555
C12_8 C8_8 1_555 1_555
H9_8 C21_8 1_555 1_555
C23_8 C22_8 1_555 1_555
O14_4 C26_4 1_555 1_555
O15_4 C25_4 1_555 1_555
O16_4 C25_4 1_555 1_555
N4_4 C26_4 1_555 1_555
C25_4 C26_4 1_555 1_555
C27_4 C8_8 1_555 1_555
C28_4 C10_8 1_555 1_555
C29_4 C28_4 1_555 1_555
H13_4 C29_4 1_555 1_555
H14_4 C29_4 1_555 1_555
H15_4 C29_4 1_555 1_555
O20_4 C36_4 1_555 1_555
O21_4 C35_4 1_555 1_555
O22_4 C36_4 1_555 1_555
N6_4 C35_4 1_555 1_555
C35_4 C36_4 1_555 1_555
C37_4 C22_8 1_555 1_555
C38_4 C21_8 1_555 1_555
C39_4 C38_4 1_555 1_555
H19_4 C39_4 1_555 1_555
H20_4 C39_4 1_555 1_555
H21_4 C39_4 1_555 1_555
Ni3_4 O14_4 1_555 1_555
Cu4_4 O16_4 1_555 1_555
Cu6_7 O22_4 1_555 1_555
O15_4 Ni3_4 1_555 1_555
N4_4 C27_4 1_555 1_555
N4_4 Cu4_4 1_555 1_555
C27_4 C28_4 1_555 1_555
O20_4 Ni3_4 1_555 1_555
O21_4 Ni3_4 1_555 1_555
N6_4 C37_4 1_555 1_555
N6_4 Cu6_7 1_555 1_555
C37_4 C38_4 1_555 1_555
C12_8 H28_4 1_555 1_555
C23_8 H37_4 1_555 1_555
O11_8 Cu3_8 1_555 1_555
O13_8 Cu3_8 1_555 1_555
O27_4 Cu3_8 1_555 1_555
N9_4 Cu3_8 1_555 1_555
O11_8 H31_4 1_555 1_555
O13_8 H34_4 1_555 1_555
O13_8 H35_4 1_555 1_555
H1_9 C10_9 1_555 1_555
C12_9 C8_9 1_555 1_555
H9_9 C21_9 1_555 1_555
C23_9 C22_9 1_555 1_555
O14_5 C26_5 1_555 1_555
O15_5 C25_5 1_555 1_555
O23_2 C25_5 1_555 1_555
N7_2 C26_5 1_555 1_555
C25_5 C26_5 1_555 1_555
C27_5 C8_9 1_555 1_555
C28_5 C10_9 1_555 1_555
C29_5 C28_5 1_555 1_555
H13_5 C29_5 1_555 1_555
H14_5 C29_5 1_555 1_555
H15_5 C29_5 1_555 1_555
O20_5 C36_5 1_555 1_555
O21_5 C35_5 1_555 1_555
O27 C36_5 1_555 1_555
N9 C35_5 1_555 1_555
C35_5 C36_5 1_555 1_555
C37_5 C22_9 1_555 1_555
C38_5 C21_9 1_555 1_555
C39_5 C38_5 1_555 1_555
H19_5 C39_5 1_555 1_555
H20_5 C39_5 1_555 1_555
H21_5 C39_5 1_555 1_555
Ni2 O14_5 1_555 1_555
O24 Ni2 1_555 1_555
O25 Ni2 1_555 1_555
O15_5 Ni2 1_555 1_555
N7_2 C27_5 1_555 1_555
C27_5 C28_5 1_555 1_555
O20_5 Ni2 1_555 1_555
O21_5 Ni2 1_555 1_555
N9 C37_5 1_555 1_555
C37_5 C38_5 1_555 1_555
C12_9 H28_5 1_555 1_555
C23_9 H37_5 1_555 1_555
Cu4_2 O3_5 1_555 1_555
Cu5_3 O6_5 1_555 1_555
Cu6 O9_5 1_555 1_555
Ni1_5 O1_5 1_555 1_555
O1_5 C2_5 1_555 1_555
O2_5 Ni1_5 1_555 1_555
O3_5 C1_5 1_555 1_555
O4_5 Ni1_5 1_555 1_555
O5_5 Ni1_5 1_555 1_555
O6_5 C3_5 1_555 1_555
O7_5 Ni1_5 1_555 1_555
O8_5 Ni1_5 1_555 1_555
O9_5 C6_5 1_555 1_555
N1_5 Cu4_2 1_555 1_555
N2_5 Cu5_3 1_555 1_555
N3_5 Cu6 1_555 1_555
C1_5 O2_5 1_555 1_555
C2_5 N1_5 1_555 1_555
C3_5 O5_5 1_555 1_555
C4_5 O4_5 1_555 1_555
C5_5 O8_5 1_555 1_555
C6_5 O7_5 1_555 1_555
C7_5 N1_5 1_555 1_555
C8_10 C7_5 1_555 1_555
C9_5 C7_5 1_555 1_555
C10_10 C9_5 1_555 1_555
H1_10 C10_10 1_555 1_555
C11_5 C9_5 1_555 1_555
H2_5 C11_5 1_555 1_555
H3_5 C11_5 1_555 1_555
H4_5 C11_5 1_555 1_555
C12_10 C8_10 1_555 1_555
C13_5 N2_5 1_555 1_555
C14_5 C13_5 1_555 1_555
C15_5 C13_5 1_555 1_555
C16_5 C15_5 1_555 1_555
H5_5 C16_5 1_555 1_555
C17_5 C15_5 1_555 1_555
H6_5 C17_5 1_555 1_555
H7_5 C17_5 1_555 1_555
H8_5 C17_5 1_555 1_555
C18_5 C14_5 1_555 1_555
C19_5 N3_5 1_555 1_555
C20_5 C19_5 1_555 1_555
C21_10 C20_5 1_555 1_555
H9_10 C21_10 1_555 1_555
C22_10 C19_5 1_555 1_555
C23_10 C22_10 1_555 1_555
C24_5 C20_5 1_555 1_555
H10_5 C24_5 1_555 1_555
H11_5 C24_5 1_555 1_555
H12_5 C24_5 1_555 1_555
O10_5 Cu5_3 1_555 1_555
O11_9 Cu6 1_555 1_555
O12_5 Cu4_2 1_555 1_555
O13_9 Cu6 1_555 1_555
O24 C31_5 1_555 1_555
O25 C30_5 1_555 1_555
O26_3 C30_5 1_555 1_555
N8_3 C31_5 1_555 1_555
C30_5 C31_5 1_555 1_555
C32_5 C14_5 1_555 1_555
C33_5 C16_5 1_555 1_555
C34_5 C33_5 1_555 1_555
H16_5 C34_5 1_555 1_555
H17_5 C34_5 1_555 1_555
H18_5 C34_5 1_555 1_555
N2_5 C4_5 1_555 1_555
N3_5 C5_5 1_555 1_555
C1_5 C2_5 1_555 1_555
C3_5 C4_5 1_555 1_555
C5_5 C6_5 1_555 1_555
N8_3 C32_5 1_555 1_555
C32_5 C33_5 1_555 1_555
C18_5 H22_5 1_555 1_555
C18_5 H23_5 1_555 1_555
C18_5 H24_5 1_555 1_555
C12_10 H27_5 1_555 1_555
C12_10 H29_5 1_555 1_555
O11_9 H30_5 1_555 1_555
C23_10 H36_5 1_555 1_555
C23_10 H38_5 1_555 1_555
O11_10 Cu6_2 1_555 1_555
O13_10 Cu6_2 1_555 1_555
O11_10 H31_5 1_555 1_555
O13_10 H34_5 1_555 1_555
O13_10 H35_5 1_555 1_555
O11_11 Cu6_3 1_555 1_555
O13_11 Cu6_3 1_555 1_555
O11_11 H31_6 1_555 1_555
O13_11 H34_6 1_555 1_555
O13_11 H35_6 1_555 1_555
H1_11 C10_11 1_555 1_555
C12_11 C8_11 1_555 1_555
H9_11 C21_11 1_555 1_555
C23_11 C22_11 1_555 1_555
O14_6 C26_6 1_555 1_555
O15_6 C25_6 1_555 1_555
O23 C25_6 1_555 1_555
N7 C26_6 1_555 1_555
C25_6 C26_6 1_555 1_555
C27_6 C8_11 1_555 1_555
C28_6 C10_11 1_555 1_555
C29_6 C28_6 1_555 1_555
H13_6 C29_6 1_555 1_555
H14_6 C29_6 1_555 1_555
H15_6 C29_6 1_555 1_555
O20_6 C36_6 1_555 1_555
O21_6 C35_6 1_555 1_555
O27_2 C36_6 1_555 1_555
N9_2 C35_6 1_555 1_555
C35_6 C36_6 1_555 1_555
C37_6 C22_11 1_555 1_555
C38_6 C21_11 1_555 1_555
C39_6 C38_6 1_555 1_555
H19_6 C39_6 1_555 1_555
H20_6 C39_6 1_555 1_555
H21_6 C39_6 1_555 1_555
Ni2_2 O14_6 1_555 1_555
O24_2 Ni2_2 1_555 1_555
O25_2 Ni2_2 1_555 1_555
O15_6 Ni2_2 1_555 1_555
N7 C27_6 1_555 1_555
C27_6 C28_6 1_555 1_555
O20_6 Ni2_2 1_555 1_555
O21_6 Ni2_2 1_555 1_555
N9_2 C37_6 1_555 1_555
C37_6 C38_6 1_555 1_555
C12_11 H28_6 1_555 1_555
C23_11 H37_6 1_555 1_555
Cu4 O3_6 1_555 1_555
Cu5_4 O6_6 1_555 1_555
Cu6_4 O9_6 1_555 1_555
Ni1_6 O1_6 1_555 1_555
O1_6 C2_6 1_555 1_555
O2_6 Ni1_6 1_555 1_555
O3_6 C1_6 1_555 1_555
O4_6 Ni1_6 1_555 1_555
O5_6 Ni1_6 1_555 1_555
O6_6 C3_6 1_555 1_555
O7_6 Ni1_6 1_555 1_555
O8_6 Ni1_6 1_555 1_555
O9_6 C6_6 1_555 1_555
N1_6 Cu4 1_555 1_555
N2_6 Cu5_4 1_555 1_555
N3_6 Cu6_4 1_555 1_555
C1_6 O2_6 1_555 1_555
C2_6 N1_6 1_555 1_555
C3_6 O5_6 1_555 1_555
C4_6 O4_6 1_555 1_555
C5_6 O8_6 1_555 1_555
C6_6 O7_6 1_555 1_555
C7_6 N1_6 1_555 1_555
C8_12 C7_6 1_555 1_555
C9_6 C7_6 1_555 1_555
C10_12 C9_6 1_555 1_555
H1_12 C10_12 1_555 1_555
C11_6 C9_6 1_555 1_555
H2_6 C11_6 1_555 1_555
H3_6 C11_6 1_555 1_555
H4_6 C11_6 1_555 1_555
C12_12 C8_12 1_555 1_555
C13_6 N2_6 1_555 1_555
C14_6 C13_6 1_555 1_555
C15_6 C13_6 1_555 1_555
C16_6 C15_6 1_555 1_555
H5_6 C16_6 1_555 1_555
C17_6 C15_6 1_555 1_555
H6_6 C17_6 1_555 1_555
H7_6 C17_6 1_555 1_555
H8_6 C17_6 1_555 1_555
C18_6 C14_6 1_555 1_555
C19_6 N3_6 1_555 1_555
C20_6 C19_6 1_555 1_555
C21_12 C20_6 1_555 1_555
H9_12 C21_12 1_555 1_555
C22_12 C19_6 1_555 1_555
C23_12 C22_12 1_555 1_555
C24_6 C20_6 1_555 1_555
H10_6 C24_6 1_555 1_555
H11_6 C24_6 1_555 1_555
H12_6 C24_6 1_555 1_555
O10_6 Cu5_4 1_555 1_555
O11_12 Cu6_4 1_555 1_555
O12_6 Cu4 1_555 1_555
O13_12 Cu6_4 1_555 1_555
O24_2 C31_6 1_555 1_555
O25_2 C30_6 1_555 1_555
O26_4 C30_6 1_555 1_555
N8_4 C31_6 1_555 1_555
C30_6 C31_6 1_555 1_555
C32_6 C14_6 1_555 1_555
C33_6 C16_6 1_555 1_555
C34_6 C33_6 1_555 1_555
H16_6 C34_6 1_555 1_555
H17_6 C34_6 1_555 1_555
H18_6 C34_6 1_555 1_555
N2_6 C4_6 1_555 1_555
N3_6 C5_6 1_555 1_555
C1_6 C2_6 1_555 1_555
C3_6 C4_6 1_555 1_555
C5_6 C6_6 1_555 1_555
N8_4 C32_6 1_555 1_555
C32_6 C33_6 1_555 1_555
C18_6 H22_6 1_555 1_555
C18_6 H23_6 1_555 1_555
C18_6 H24_6 1_555 1_555
C12_12 H27_6 1_555 1_555
C12_12 H29_6 1_555 1_555
O11_12 H30_6 1_555 1_555
C23_12 H36_6 1_555 1_555
C23_12 H38_6 1_555 1_555
O11_13 Cu6_7 1_555 1_555
O13_13 Cu6_7 1_555 1_555
O11_13 H31_7 1_555 1_555
O13_13 H34_7 1_555 1_555
O13_13 H35_7 1_555 1_555
H1_13 C10_13 1_555 1_555
C12_13 C8_13 1_555 1_555
H9_13 C21_13 1_555 1_555
C23_13 C22_13 1_555 1_555
O14_7 C26_7 1_555 1_555
O15_7 C25_7 1_555 1_555
O23_3 C25_7 1_555 1_555
N7_3 C26_7 1_555 1_555
C25_7 C26_7 1_555 1_555
C27_7 C8_13 1_555 1_555
C28_7 C10_13 1_555 1_555
C29_7 C28_7 1_555 1_555
H13_7 C29_7 1_555 1_555
H14_7 C29_7 1_555 1_555
H15_7 C29_7 1_555 1_555
O20_7 C36_7 1_555 1_555
O21_7 C35_7 1_555 1_555
O27_4 C36_7 1_555 1_555
N9_4 C35_7 1_555 1_555
C35_7 C36_7 1_555 1_555
C37_7 C22_13 1_555 1_555
C38_7 C21_13 1_555 1_555
C39_7 C38_7 1_555 1_555
H19_7 C39_7 1_555 1_555
H20_7 C39_7 1_555 1_555
H21_7 C39_7 1_555 1_555
Ni2_3 O14_7 1_555 1_555
O24_3 Ni2_3 1_555 1_555
O25_3 Ni2_3 1_555 1_555
O15_7 Ni2_3 1_555 1_555
N7_3 C27_7 1_555 1_555
C27_7 C28_7 1_555 1_555
O20_7 Ni2_3 1_555 1_555
O21_7 Ni2_3 1_555 1_555
N9_4 C37_7 1_555 1_555
C37_7 C38_7 1_555 1_555
C12_13 H28_7 1_555 1_555
C23_13 H37_7 1_555 1_555
Cu4_3 O3_7 1_555 1_555
Cu5 O6_7 1_555 1_555
Cu6_8 O9_7 1_555 1_555
Ni1_7 O1_7 1_555 1_555
O1_7 C2_7 1_555 1_555
O2_7 Ni1_7 1_555 1_555
O3_7 C1_7 1_555 1_555
O4_7 Ni1_7 1_555 1_555
O5_7 Ni1_7 1_555 1_555
O6_7 C3_7 1_555 1_555
O7_7 Ni1_7 1_555 1_555
O8_7 Ni1_7 1_555 1_555
O9_7 C6_7 1_555 1_555
N1_7 Cu4_3 1_555 1_555
N2_7 Cu5 1_555 1_555
N3_7 Cu6_8 1_555 1_555
C1_7 O2_7 1_555 1_555
C2_7 N1_7 1_555 1_555
C3_7 O5_7 1_555 1_555
C4_7 O4_7 1_555 1_555
C5_7 O8_7 1_555 1_555
C6_7 O7_7 1_555 1_555
C7_7 N1_7 1_555 1_555
C8_14 C7_7 1_555 1_555
C9_7 C7_7 1_555 1_555
C10_14 C9_7 1_555 1_555
H1_14 C10_14 1_555 1_555
C11_7 C9_7 1_555 1_555
H2_7 C11_7 1_555 1_555
H3_7 C11_7 1_555 1_555
H4_7 C11_7 1_555 1_555
C12_14 C8_14 1_555 1_555
C13_7 N2_7 1_555 1_555
C14_7 C13_7 1_555 1_555
C15_7 C13_7 1_555 1_555
C16_7 C15_7 1_555 1_555
H5_7 C16_7 1_555 1_555
C17_7 C15_7 1_555 1_555
H6_7 C17_7 1_555 1_555
H7_7 C17_7 1_555 1_555
H8_7 C17_7 1_555 1_555
C18_7 C14_7 1_555 1_555
C19_7 N3_7 1_555 1_555
C20_7 C19_7 1_555 1_555
C21_14 C20_7 1_555 1_555
H9_14 C21_14 1_555 1_555
C22_14 C19_7 1_555 1_555
C23_14 C22_14 1_555 1_555
C24_7 C20_7 1_555 1_555
H10_7 C24_7 1_555 1_555
H11_7 C24_7 1_555 1_555
H12_7 C24_7 1_555 1_555
O10_7 Cu5 1_555 1_555
O11_14 Cu6_8 1_555 1_555
O12_7 Cu4_3 1_555 1_555
O13_14 Cu6_8 1_555 1_555
O24_3 C31_7 1_555 1_555
O25_3 C30_7 1_555 1_555
O26 C30_7 1_555 1_555
N8 C31_7 1_555 1_555
C30_7 C31_7 1_555 1_555
C32_7 C14_7 1_555 1_555
C33_7 C16_7 1_555 1_555
C34_7 C33_7 1_555 1_555
H16_7 C34_7 1_555 1_555
H17_7 C34_7 1_555 1_555
H18_7 C34_7 1_555 1_555
N2_7 C4_7 1_555 1_555
N3_7 C5_7 1_555 1_555
C1_7 C2_7 1_555 1_555
C3_7 C4_7 1_555 1_555
C5_7 C6_7 1_555 1_555
N8 C32_7 1_555 1_555
C32_7 C33_7 1_555 1_555
C18_7 H22_7 1_555 1_555
C18_7 H23_7 1_555 1_555
C18_7 H24_7 1_555 1_555
C12_14 H27_7 1_555 1_555
C12_14 H29_7 1_555 1_555
O11_14 H30_7 1_555 1_555
C23_14 H36_7 1_555 1_555
C23_14 H38_7 1_555 1_555
H1_15 C10_15 1_555 1_555
C12_15 C8_15 1_555 1_555
H9_15 C21_15 1_555 1_555
C23_15 C22_15 1_555 1_555
O14_8 C26_8 1_555 1_555
O15_8 C25_8 1_555 1_555
O23_4 C25_8 1_555 1_555
N7_4 C26_8 1_555 1_555
C25_8 C26_8 1_555 1_555
C27_8 C8_15 1_555 1_555
C28_8 C10_15 1_555 1_555
C29_8 C28_8 1_555 1_555
H13_8 C29_8 1_555 1_555
H14_8 C29_8 1_555 1_555
H15_8 C29_8 1_555 1_555
O20_8 C36_8 1_555 1_555
O21_8 C35_8 1_555 1_555
O27_3 C36_8 1_555 1_555
N9_3 C35_8 1_555 1_555
C35_8 C36_8 1_555 1_555
C37_8 C22_15 1_555 1_555
C38_8 C21_15 1_555 1_555
C39_8 C38_8 1_555 1_555
H19_8 C39_8 1_555 1_555
H20_8 C39_8 1_555 1_555
H21_8 C39_8 1_555 1_555
Ni2_4 O14_8 1_555 1_555
O24_4 Ni2_4 1_555 1_555
O25_4 Ni2_4 1_555 1_555
O15_8 Ni2_4 1_555 1_555
N7_4 C27_8 1_555 1_555
C27_8 C28_8 1_555 1_555
O20_8 Ni2_4 1_555 1_555
O21_8 Ni2_4 1_555 1_555
N9_3 C37_8 1_555 1_555
C37_8 C38_8 1_555 1_555
C12_15 H28_8 1_555 1_555
C23_15 H37_8 1_555 1_555
Cu4_4 O3_8 1_555 1_555
Cu5_2 O6_8 1_555 1_555
Cu6_5 O9_8 1_555 1_555
Ni1_8 O1_8 1_555 1_555
O1_8 C2_8 1_555 1_555
O2_8 Ni1_8 1_555 1_555
O3_8 C1_8 1_555 1_555
O4_8 Ni1_8 1_555 1_555
O5_8 Ni1_8 1_555 1_555
O6_8 C3_8 1_555 1_555
O7_8 Ni1_8 1_555 1_555
O8_8 Ni1_8 1_555 1_555
O9_8 C6_8 1_555 1_555
N1_8 Cu4_4 1_555 1_555
N2_8 Cu5_2 1_555 1_555
N3_8 Cu6_5 1_555 1_555
C1_8 O2_8 1_555 1_555
C2_8 N1_8 1_555 1_555
C3_8 O5_8 1_555 1_555
C4_8 O4_8 1_555 1_555
C5_8 O8_8 1_555 1_555
C6_8 O7_8 1_555 1_555
C7_8 N1_8 1_555 1_555
C8_16 C7_8 1_555 1_555
C9_8 C7_8 1_555 1_555
C10_16 C9_8 1_555 1_555
H1_16 C10_16 1_555 1_555
C11_8 C9_8 1_555 1_555
H2_8 C11_8 1_555 1_555
H3_8 C11_8 1_555 1_555
H4_8 C11_8 1_555 1_555
C12_16 C8_16 1_555 1_555
C13_8 N2_8 1_555 1_555
C14_8 C13_8 1_555 1_555
C15_8 C13_8 1_555 1_555
C16_8 C15_8 1_555 1_555
H5_8 C16_8 1_555 1_555
C17_8 C15_8 1_555 1_555
H6_8 C17_8 1_555 1_555
H7_8 C17_8 1_555 1_555
H8_8 C17_8 1_555 1_555
C18_8 C14_8 1_555 1_555
C19_8 N3_8 1_555 1_555
C20_8 C19_8 1_555 1_555
C21_16 C20_8 1_555 1_555
H9_16 C21_16 1_555 1_555
C22_16 C19_8 1_555 1_555
C23_16 C22_16 1_555 1_555
C24_8 C20_8 1_555 1_555
H10_8 C24_8 1_555 1_555
H11_8 C24_8 1_555 1_555
H12_8 C24_8 1_555 1_555
O10_8 Cu5_2 1_555 1_555
O11_15 Cu6_5 1_555 1_555
O12_8 Cu4_4 1_555 1_555
O13_15 Cu6_5 1_555 1_555
O24_4 C31_8 1_555 1_555
O25_4 C30_8 1_555 1_555
O26_2 C30_8 1_555 1_555
N8_2 C31_8 1_555 1_555
C30_8 C31_8 1_555 1_555
C32_8 C14_8 1_555 1_555
C33_8 C16_8 1_555 1_555
C34_8 C33_8 1_555 1_555
H16_8 C34_8 1_555 1_555
H17_8 C34_8 1_555 1_555
H18_8 C34_8 1_555 1_555
N2_8 C4_8 1_555 1_555
N3_8 C5_8 1_555 1_555
C1_8 C2_8 1_555 1_555
C3_8 C4_8 1_555 1_555
C5_8 C6_8 1_555 1_555
N8_2 C32_8 1_555 1_555
C32_8 C33_8 1_555 1_555
C18_8 H22_8 1_555 1_555
C18_8 H23_8 1_555 1_555
C18_8 H24_8 1_555 1_555
C12_16 H27_8 1_555 1_555
C12_16 H29_8 1_555 1_555
O11_15 H30_8 1_555 1_555
C23_16 H36_8 1_555 1_555
C23_16 H38_8 1_555 1_555
O11_16 Cu6_6 1_555 1_555
O13_16 Cu6_6 1_555 1_555
O11_16 H31_8 1_555 1_555
O13_16 H34_8 1_555 1_555
O13_16 H35_8 1_555 1_555
C12_3 H28_9 1_555 1_555
C23_3 H37_9 1_555 1_555
C18_2 H22_9 1_555 1_555
C18_2 H23_9 1_555 1_555
C18_2 H24_9 1_555 1_555
C12_4 H27_9 1_555 1_555
C12_4 H29_9 1_555 1_555
O11_11 H30_9 1_555 1_555
C23_4 H36_9 1_555 1_555
C23_4 H38_9 1_555 1_555
O11_12 H31_9 1_555 1_555
O13_12 H34_9 1_555 1_555
O13_12 H35_9 1_555 1_555
O11_9 H31_10 1_555 1_555
O13_9 H34_10 1_555 1_555
O13_9 H35_10 1_555 1_555
C12 H28_10 1_555 1_555
C23 H37_10 1_555 1_555
C18 H22_10 1_555 1_555
C18 H23_10 1_555 1_555
C18 H24_10 1_555 1_555
C12_2 H27_10 1_555 1_555
C12_2 H29_10 1_555 1_555
O11_10 H30_10 1_555 1_555
C23_2 H36_10 1_555 1_555
C23_2 H38_10 1_555 1_555
C12_7 H28_11 1_555 1_555
C23_7 H37_11 1_555 1_555
C18_4 H22_11 1_555 1_555
C18_4 H23_11 1_555 1_555
C18_4 H24_11 1_555 1_555
C12_8 H27_11 1_555 1_555
C12_8 H29_11 1_555 1_555
O11_13 H30_11 1_555 1_555
C23_8 H36_11 1_555 1_555
C23_8 H38_11 1_555 1_555
O11_14 H31_11 1_555 1_555
O13_14 H34_11 1_555 1_555
O13_14 H35_11 1_555 1_555
O11_15 H31_12 1_555 1_555
O13_15 H34_12 1_555 1_555
O13_15 H35_12 1_555 1_555
C12_5 H28_12 1_555 1_555
C23_5 H37_12 1_555 1_555
C18_3 H22_12 1_555 1_555
C18_3 H23_12 1_555 1_555
C18_3 H24_12 1_555 1_555
C12_6 H27_12 1_555 1_555
C12_6 H29_12 1_555 1_555
O11_16 H30_12 1_555 1_555
C23_6 H36_12 1_555 1_555
C23_6 H38_12 1_555 1_555
O11_3 H31_13 1_555 1_555
O13_3 H34_13 1_555 1_555
O13_3 H35_13 1_555 1_555
C18_6 H22_13 1_555 1_555
C18_6 H23_13 1_555 1_555
C18_6 H24_13 1_555 1_555
C12_11 H27_13 1_555 1_555
C12_11 H29_13 1_555 1_555
O11_4 H30_13 1_555 1_555
C23_11 H36_13 1_555 1_555
C23_11 H38_13 1_555 1_555
C12_12 H28_13 1_555 1_555
C23_12 H37_13 1_555 1_555
C18_5 H22_14 1_555 1_555
C18_5 H23_14 1_555 1_555
C18_5 H24_14 1_555 1_555
C12_9 H27_14 1_555 1_555
C12_9 H29_14 1_555 1_555
O11 H30_14 1_555 1_555
C23_9 H36_14 1_555 1_555
C23_9 H38_14 1_555 1_555
C12_10 H28_14 1_555 1_555
C23_10 H37_14 1_555 1_555
O11_2 H31_14 1_555 1_555
O13_2 H34_14 1_555 1_555
O13_2 H35_14 1_555 1_555
C18_8 H22_15 1_555 1_555
C18_8 H23_15 1_555 1_555
C18_8 H24_15 1_555 1_555
C12_15 H27_15 1_555 1_555
C12_15 H29_15 1_555 1_555
O11_5 H30_15 1_555 1_555
C23_15 H36_15 1_555 1_555
C23_15 H38_15 1_555 1_555
C12_16 H28_15 1_555 1_555
C23_16 H37_15 1_555 1_555
O11_6 H31_15 1_555 1_555
O13_6 H34_15 1_555 1_555
O13_6 H35_15 1_555 1_555
O11_7 H31_16 1_555 1_555
O13_7 H34_16 1_555 1_555
O13_7 H35_16 1_555 1_555
C18_7 H22_16 1_555 1_555
C18_7 H23_16 1_555 1_555
C18_7 H24_16 1_555 1_555
C12_13 H27_16 1_555 1_555
C12_13 H29_16 1_555 1_555
O11_8 H30_16 1_555 1_555
C23_13 H36_16 1_555 1_555
C23_13 H38_16 1_555 1_555
C12_14 H28_16 1_555 1_555
C23_14 H37_16 1_555 1_555
Pd7 Pd8 1_555 1_555
Pd5 Pd6 1_555 1_555
Pd5_2 Pd6_2 1_555 1_555
Pd7_2 Pd8_2 1_555 1_555
Pd7_3 Pd8_3 1_555 1_555
Pd5_3 Pd6_3 1_555 1_555
Pd5_4 Pd6_4 1_555 1_555
Pd7_4 Pd8_4 1_555 1_555

#END
