
###############################################################################
#
# This file contains modified crystal structure data generated from the
# MOF subset of the Cambridge Structural Database (CSD) v543 
# hosted by the Cambridge Crystallographic Data Centre (CCDC).
#
# This work is licensed under the Creative Commons
# Attribution-NonCommercial-ShareAlike 4.0 International License.
# To view a copy of this license, visit
# http://creativecommons.org/licenses/by-nc-sa/4.0/
# or send a letter to
# Creative Commons, PO Box 1866, Mountain View, CA 94042, USA.
#
# CIF created using the CSD Python API on 29 September 2022
# The structure has been converted into the P1 space group
# The structure has a 3D framework
# The original CSD entry JEDCIF is in the hexagonal crystal system
# The framework has been calculated to contain at least 10.0% void space
# The void calculation uses a probe of radius 1.32A, grid spacing 0.4
# The framework is charged, counterions have been retained in the structure
#
###############################################################################

data_JEDCIF
_chemical_formula_moiety         '(C69 H21 Cd20 K15 N24 O48 9+)n'
_symmetry_cell_setting           triclinic
_symmetry_space_group_name_H-M   'P 1'
_symmetry_Int_Tables_number      1
_space_group_name_Hall           'P 1'
loop_
_symmetry_equiv_pos_site_id
_symmetry_equiv_pos_as_xyz
1 x,y,z
_cell_length_a                   14.3027(10)
_cell_length_b                   14.3027(10)
_cell_length_c                   21.493(3)
_cell_angle_alpha                90
_cell_angle_beta                 90
_cell_angle_gamma                120
_cell_volume                     3807.71
loop_
_atom_site_label
_atom_site_type_symbol
_atom_site_fract_x
_atom_site_fract_y
_atom_site_fract_z
K1 K 0.22345(11) 0.22345(11) 0.5000
K1_2 K 0.77655(11) 0.00000(16) 0.5000
K1_3 K 0.77655(11) 1.00000(16) 0.5000
K1_4 K -0.00000(16) 0.77655(11) 0.5000
K1_5 K 1.00000(16) 0.77655(11) 0.5000
K1_6 K 0.22345(11) 0.22345(11) 0.0000
K1_7 K 0.22345(11) 0.22345(11) 1.0000
K1_8 K 0.77655(11) 0.00000(16) 0.0000
K1_9 K 0.77655(11) 0.00000(16) 1.0000
K1_10 K 0.77655(11) 1.00000(16) 0.0000
K1_11 K 0.77655(11) 1.00000(16) 1.0000
K1_12 K -0.00000(16) 0.77655(11) 0.0000
K1_13 K -0.00000(16) 0.77655(11) 1.0000
K1_14 K 1.00000(16) 0.77655(11) 0.0000
K1_15 K 1.00000(16) 0.77655(11) 1.0000
C1 C 0.1269(3) 0.2331(3) 0.33106(16)
C2 C 0.1553(3) 0.3182(3) 0.28254(15)
C3 C 0.2036(7) 0.4766(5) 0.2500
H1 H 0.2243 0.5494 0.2500
C4 C 0.1131(2) 0.5966(3) 0.4521(2)
C5 C 0.0443(3) 0.4890(3) 0.48092(18)
C6 C -0.0000 0.3239(4) 0.5000
H2 H 0.0000 0.2589 0.5000
Cd1 Cd 0.206030(18) 0.452444(19) 0.402436(9)
Cd2 Cd 0.0000 -0.0000 0.2500
N1 N 0.1874(3) 0.4196(2) 0.30212(14)
N2 N 0.0723(2) 0.4117(2) 0.46792(14)
O1 O 0.1403(3) 0.2662(2) 0.38588(12)
O2 O 0.0968(3) 0.1377(2) 0.31750(13)
O3 O 0.1830(2) 0.6051(2) 0.41179(12)
O4 O 0.1067(2) 0.6768(2) 0.47010(17)
C7 C 0.1269(3) 0.2331(3) 0.16894(16)
C12 C 0.1553(3) 0.3182(3) 0.21746(15)
C20 C 0.4034(3) 0.5165(4) 0.4521(2)
C21 C 0.5165(4) 0.4034(3) 0.5479(2)
C22 C 0.1131(2) 0.5966(3) 0.0479(2)
C25 C 0.5110(3) 0.5553(4) 0.48092(18)
C26 C 0.5553(4) 0.5110(3) 0.51908(18)
C27 C 0.0443(3) 0.4890(3) 0.01908(18)
C29 C 0.6761(4) 0.6761(4) 0.5000
C30 C 0.0000 0.3239(4) 0.0000
H5 H 0.7411 0.7411 0.5000
H6 H 0.0000 0.2589 0.0000
Cd3 Cd 0.206030(18) 0.452444(19) 0.097564(9)
Cd8 Cd 0.246414(26) 0.793970(18) 0.402436(9)
Cd11 Cd 0.547556(19) 0.753586(26) 0.402436(9)
Cd12 Cd 0.452444(19) 0.206030(18) 0.597564(9)
Cd13 Cd 0.753586(26) 0.547556(19) 0.597564(9)
Cd14 Cd 0.246414(26) 0.793970(18) 0.097564(9)
N3 N 0.1874(3) 0.4196(2) 0.19788(14)
N9 N 0.5883(2) 0.6606(3) 0.46792(14)
N10 N 0.6606(3) 0.5883(2) 0.53208(14)
N11 N 0.0723(2) 0.4117(2) 0.03208(14)
O5 O 0.1403(3) 0.2662(2) 0.11412(12)
O10 O 0.0968(3) 0.1377(2) 0.18250(13)
O16 O 0.3949(2) 0.5779(3) 0.41179(12)
O17 O 0.5779(3) 0.3949(2) 0.58821(12)
O18 O 0.1830(2) 0.6051(2) 0.08821(12)
O20 O 0.3949(2) 0.5779(3) 0.08821(12)
O30 O 0.3232(2) 0.4299(3) 0.47010(17)
O31 O 0.4299(3) 0.3232(2) 0.52990(17)
O32 O 0.1067(2) 0.6768(2) 0.02990(17)
O34 O 0.3232(2) 0.4299(3) 0.02990(17)
C30_2 C 0.0000 0.3239(4) 1.0000
H6_2 H -0.0000 0.2589 1.0000
Cd2_2 Cd -0.0000 1.0000 0.2500
C10 C 0.1062(4) 0.8731(3) 0.33106(16)
C11 C 0.1062(4) 0.8731(3) 0.16894(16)
C15 C 0.1629(4) 0.8447(3) 0.28254(15)
C16 C 0.1629(4) 0.8447(3) 0.21746(15)
C18 C 0.2730(9) 0.7964(7) 0.2500
H4 H 0.3251 0.7757 0.2500
N6 N 0.2322(4) 0.8126(3) 0.30212(14)
N7 N 0.2322(4) 0.8126(3) 0.19788(14)
N15 N 0.3394(3) 0.9277(2) 0.46792(14)
N16 N 0.3394(3) 0.9277(2) 0.03208(14)
O8 O 0.1259(4) 0.8597(3) 0.38588(12)
O9 O 0.1259(4) 0.8597(3) 0.11412(12)
O13 O 0.0409(4) 0.9032(3) 0.31750(13)
O14 O 0.0409(4) 0.9032(3) 0.18250(13)
O26 O 0.4221(3) 0.8170(2) 0.41179(12)
O28 O 0.4221(3) 0.8170(2) 0.08821(12)
C6_2 C 1.0000 0.3239(4) 0.5000
H2_2 H 1.0000 0.2589 0.5000
Cd2_3 Cd 1.0000 -0.0000 0.2500
C19 C 0.8869(2) 0.4835(4) 0.5479(2)
C24 C 0.9557(3) 0.4447(4) 0.51908(18)
C30_3 C 1.0000 0.3239(4) 0.0000
H6_3 H 1.0000 0.2589 0.0000
Cd10 Cd 0.793970(18) 0.246414(26) 0.597564(9)
N8 N 0.9277(2) 0.3394(3) 0.53208(14)
O15 O 0.8170(2) 0.4221(3) 0.58821(12)
O29 O 0.8933(2) 0.5701(3) 0.52990(17)
C23 C 0.8869(2) 0.4835(4) 0.9521(2)
C28 C 0.9557(3) 0.4447(4) 0.98092(18)
C30_4 C 1.0000 0.3239(4) 1.0000
H6_4 H 1.0000 0.2589 1.0000
Cd15 Cd 0.753586(26) 0.547556(19) 0.902436(9)
Cd16 Cd 0.793970(18) 0.246414(26) 0.902436(9)
N12 N 0.9277(2) 0.3394(3) 0.96792(14)
O19 O 0.8170(2) 0.4221(3) 0.91179(12)
O33 O 0.8933(2) 0.5701(3) 0.97010(17)
Cd2_4 Cd 1.0000 1.0000 0.2500
C8 C 0.7669(3) 0.8938(4) 0.33106(16)
C9 C 0.7669(3) 0.8938(4) 0.16894(16)
C13 C 0.6818(3) 0.8371(4) 0.28254(15)
C14 C 0.6818(3) 0.8371(4) 0.21746(15)
C17 C 0.5234(5) 0.7270(9) 0.2500
H3 H 0.4506 0.6749 0.2500
Cd5 Cd 0.547556(19) 0.753586(26) 0.097564(9)
N4 N 0.5804(2) 0.7678(4) 0.30212(14)
N5 N 0.5804(2) 0.7678(4) 0.19788(14)
N14 N 0.5883(2) 0.6606(3) 0.03208(14)
O6 O 0.7338(2) 0.8741(4) 0.38588(12)
O7 O 0.7338(2) 0.8741(4) 0.11412(12)
O11 O 0.8623(2) 0.9591(4) 0.31750(13)
O12 O 0.8623(2) 0.9591(4) 0.18250(13)
O35 O 0.5701(3) 0.8933(2) 0.47010(17)
O36 O 0.5701(3) 0.8933(2) 0.02990(17)
C21_2 C 0.5966(3) 0.1131(5) 0.5479(2)
C26_2 C 0.4890(3) 0.0443(5) 0.51908(18)
C29_2 C 0.3239(4) 0.0000(6) 0.5000
H5_2 H 0.2589 -0.0000 0.5000
N10_2 N 0.4117(2) 0.0723(4) 0.53208(14)
O17_2 O 0.6051(2) 0.1830(4) 0.58821(12)
O31_2 O 0.6768(2) 0.1067(4) 0.52990(17)
C20_2 C 0.4835(4) 0.8869(5) 0.4521(2)
C22_2 C 0.4034(3) 0.5165(4) 0.0479(2)
C25_2 C 0.4447(4) 0.9557(5) 0.48092(18)
C27_2 C 0.5110(3) 0.5553(4) 0.01908(18)
C29_3 C 0.3239(4) 1.0000(6) 0.5000
C30_5 C 0.6761(4) 0.6761(4) 0.0000
H5_3 H 0.2589 1.0000 0.5000
H6_5 H 0.7411 0.7411 0.0000
C23_2 C 0.5165(4) 0.4034(4) 0.9521(2)
C28_2 C 0.5553(4) 0.5110(5) 0.98092(18)
C30_6 C 0.6761(4) 0.6761(4) 1.0000
H6_6 H 0.7411 0.7411 1.0000
Cd15_2 Cd 0.452444(19) 0.206030(32) 0.902436(9)
N12_2 N 0.6606(3) 0.5883(4) 0.96792(14)
O19_2 O 0.5779(3) 0.3949(4) 0.91179(12)
O33_2 O 0.4299(3) 0.3232(4) 0.97010(17)
C30_7 C 0.3239(4) 0.0000 0.0000
H6_7 H 0.2589 0.0000 0.0000
C23_3 C 0.5966(4) 0.1131(2) 0.9521(2)
C28_3 C 0.4890(5) 0.0443(3) 0.98092(18)
C30_8 C 0.3239(4) -0.0000 1.0000
H6_8 H 0.2589 -0.0000 1.0000
N12_3 N 0.4117(4) 0.0723(2) 0.96792(14)
O19_3 O 0.6051(4) 0.1830(2) 0.91179(12)
O33_3 O 0.6768(4) 0.1067(2) 0.97010(17)
C22_3 C 0.4835(4) 0.8869(2) 0.0479(2)
C27_3 C 0.4447(4) 0.9557(3) 0.01908(18)
C30_9 C 0.3239(4) 1.0000 0.0000
H6_9 H 0.2589 1.0000 0.0000
C30_10 C 0.3239(4) 1.0000 1.0000
H6_10 H 0.2589 1.0000 1.0000
C1_2 C 0.2331(3) 0.1269(3) 0.66894(16)
C2_2 C 0.3182(3) 0.1553(3) 0.71746(15)
C3_2 C 0.4766(5) 0.2036(7) 0.7500
H1_2 H 0.5494 0.2243 0.7500
Cd2_5 Cd 0.0000 0.0000 0.7500
N1_2 N 0.4196(2) 0.1874(3) 0.69788(14)
O1_2 O 0.2662(2) 0.1403(3) 0.61412(12)
O2_2 O 0.1377(2) 0.0968(3) 0.68250(13)
C7_2 C 0.2331(3) 0.1269(3) 0.83106(16)
C12_2 C 0.3182(3) 0.1553(3) 0.78254(15)
N3_2 N 0.4196(2) 0.1874(3) 0.80212(14)
O5_2 O 0.2662(2) 0.1403(3) 0.88588(12)
O10_2 O 0.1377(2) 0.0968(3) 0.81750(13)
Cd2_6 Cd 0.0000 1.0000 0.7500
Cd2_7 Cd 1.0000 0.0000 0.7500
C10_2 C 0.8731(3) 0.1062(4) 0.66894(16)
C11_2 C 0.8731(3) 0.1062(4) 0.83106(16)
C15_2 C 0.8447(3) 0.1629(4) 0.71746(15)
C16_2 C 0.8447(3) 0.1629(4) 0.78254(15)
C18_2 C 0.7964(7) 0.2730(9) 0.7500
H4_2 H 0.7757 0.3251 0.7500
N6_2 N 0.8126(3) 0.2322(4) 0.69788(14)
N7_2 N 0.8126(3) 0.2322(4) 0.80212(14)
O8_2 O 0.8597(3) 0.1259(4) 0.61412(12)
O9_2 O 0.8597(3) 0.1259(4) 0.88588(12)
O13_2 O 0.9032(3) 0.0409(4) 0.68250(13)
O14_2 O 0.9032(3) 0.0409(4) 0.81750(13)
Cd2_8 Cd 1.0000 1.0000 0.7500
C8_2 C 0.8938(4) 0.7669(3) 0.66894(16)
C9_2 C 0.8938(4) 0.7669(3) 0.83106(16)
C13_2 C 0.8371(4) 0.6818(3) 0.71746(15)
C14_2 C 0.8371(4) 0.6818(3) 0.78254(15)
C17_2 C 0.7270(9) 0.5234(5) 0.7500
H3_2 H 0.6749 0.4506 0.7500
N4_2 N 0.7678(4) 0.5804(2) 0.69788(14)
N5_2 N 0.7678(4) 0.5804(2) 0.80212(14)
O6_2 O 0.8741(4) 0.7338(2) 0.61412(12)
O7_2 O 0.8741(4) 0.7338(2) 0.88588(12)
O11_2 O 0.9591(4) 0.8623(2) 0.68250(13)
O12_2 O 0.9591(4) 0.8623(2) 0.81750(13)
loop_
_geom_bond_atom_site_label_1
_geom_bond_atom_site_label_2
_geom_bond_site_symmetry_1
_geom_bond_site_symmetry_2
C1 C2 1_555 1_555
C2 N1 1_555 1_555
C3 H1 1_555 1_555
C4 C5 1_555 1_555
C5 N2 1_555 1_555
C6 H2 1_555 1_555
Cd1 N1 1_555 1_555
Cd2 O2 1_555 1_555
N1 C3 1_555 1_555
N2 C6 1_555 1_555
O1 C1 1_555 1_555
O2 C1 1_555 1_555
O3 C4 1_555 1_555
O4 C4 1_555 1_555
C7 C12 1_555 1_555
C12 C2 1_555 1_555
C20 C25 1_555 1_555
C21 C26 1_555 1_555
C22 C27 1_555 1_555
C25 C26 1_555 1_555
C26 N10 1_555 1_555
C29 H5 1_555 1_555
C30 H6 1_555 1_555
Cd3 N3 1_555 1_555
Cd8 O3 1_555 1_555
Cd11 N9 1_555 1_555
Cd12 O17 1_555 1_555
Cd13 N10 1_555 1_555
Cd14 O18 1_555 1_555
N3 C3 1_555 1_555
N9 C25 1_555 1_555
N10 C29 1_555 1_555
N11 C27 1_555 1_555
O5 C7 1_555 1_555
O10 Cd2 1_555 1_555
O16 Cd1 1_555 1_555
O17 C21 1_555 1_555
O18 C22 1_555 1_555
O20 Cd3 1_555 1_555
O30 Cd1 1_555 1_555
O31 C21 1_555 1_555
O32 C22 1_555 1_555
O34 Cd3 1_555 1_555
Cd1 N2 1_555 1_555
Cd1 O1 1_555 1_555
Cd1 O3 1_555 1_555
O4 Cd8 1_555 1_555
C7 O10 1_555 1_555
C12 N3 1_555 1_555
C20 O16 1_555 1_555
C20 O30 1_555 1_555
C29 N9 1_555 1_555
C30 N11 1_555 1_555
Cd3 N11 1_555 1_555
Cd3 O5 1_555 1_555
Cd3 O18 1_555 1_555
Cd11 O16 1_555 1_555
Cd12 O31 1_555 1_555
Cd13 O17 1_555 1_555
Cd14 O32 1_555 1_555
C30_2 H6_2 1_555 1_555
C10 C15 1_555 1_555
C11 C16 1_555 1_555
C15 C16 1_555 1_555
C16 N7 1_555 1_555
C18 H4 1_555 1_555
Cd8 N6 1_555 1_555
Cd14 N7 1_555 1_555
N6 C15 1_555 1_555
N7 C18 1_555 1_555
N15 Cd8 1_555 1_555
N16 Cd14 1_555 1_555
O8 C10 1_555 1_555
O9 C11 1_555 1_555
O13 Cd2_2 1_555 1_555
O14 Cd2_2 1_555 1_555
O26 Cd8 1_555 1_555
O28 Cd14 1_555 1_555
C10 O13 1_555 1_555
C11 O14 1_555 1_555
C18 N6 1_555 1_555
Cd8 O8 1_555 1_555
Cd14 O9 1_555 1_555
C6_2 H2_2 1_555 1_555
C19 C24 1_555 1_555
C30_3 H6_3 1_555 1_555
Cd13 O15 1_555 1_555
Cd10 N8 1_555 1_555
N8 C6_2 1_555 1_555
O15 C19 1_555 1_555
O29 C19 1_555 1_555
C24 N8 1_555 1_555
Cd13 O29 1_555 1_555
Cd10 O15 1_555 1_555
C23 C28 1_555 1_555
C28 N12 1_555 1_555
C30_4 H6_4 1_555 1_555
Cd15 O19 1_555 1_555
Cd16 N12 1_555 1_555
N12 C30_4 1_555 1_555
O19 C23 1_555 1_555
O33 C23 1_555 1_555
Cd15 O33 1_555 1_555
Cd16 O19 1_555 1_555
C8 C13 1_555 1_555
C9 C14 1_555 1_555
C13 C14 1_555 1_555
C14 N5 1_555 1_555
C17 H3 1_555 1_555
Cd11 N4 1_555 1_555
Cd5 N5 1_555 1_555
N4 C13 1_555 1_555
N5 C17 1_555 1_555
N14 Cd5 1_555 1_555
O6 C8 1_555 1_555
O7 C9 1_555 1_555
O11 Cd2_4 1_555 1_555
O12 Cd2_4 1_555 1_555
O26 Cd11 1_555 1_555
O20 Cd5 1_555 1_555
O28 Cd5 1_555 1_555
O35 Cd11 1_555 1_555
O36 Cd5 1_555 1_555
C8 O11 1_555 1_555
C9 O12 1_555 1_555
C17 N4 1_555 1_555
Cd11 O6 1_555 1_555
Cd5 O7 1_555 1_555
C21_2 C26_2 1_555 1_555
C26_2 N10_2 1_555 1_555
C29_2 H5_2 1_555 1_555
Cd10 O17_2 1_555 1_555
Cd12 N10_2 1_555 1_555
N10_2 C29_2 1_555 1_555
O17_2 C21_2 1_555 1_555
O31_2 C21_2 1_555 1_555
Cd10 O31_2 1_555 1_555
Cd12 O17_2 1_555 1_555
C20_2 C25_2 1_555 1_555
C22_2 C27_2 1_555 1_555
C29_3 H5_3 1_555 1_555
C30_5 H6_5 1_555 1_555
N15 C25_2 1_555 1_555
N14 C27_2 1_555 1_555
O20 C22_2 1_555 1_555
O34 C22_2 1_555 1_555
C20_2 O26 1_555 1_555
C20_2 O35 1_555 1_555
C29_3 N15 1_555 1_555
C30_5 N14 1_555 1_555
C23_2 C28_2 1_555 1_555
C28_2 N12_2 1_555 1_555
C30_6 H6_6 1_555 1_555
Cd15_2 O19_2 1_555 1_555
Cd15 N12_2 1_555 1_555
N12_2 C30_6 1_555 1_555
O19_2 C23_2 1_555 1_555
O33_2 C23_2 1_555 1_555
Cd15_2 O33_2 1_555 1_555
Cd15 O19_2 1_555 1_555
C30_7 H6_7 1_555 1_555
C23_3 C28_3 1_555 1_555
C28_3 N12_3 1_555 1_555
C30_8 H6_8 1_555 1_555
Cd16 O19_3 1_555 1_555
Cd15_2 N12_3 1_555 1_555
N12_3 C30_8 1_555 1_555
O19_3 C23_3 1_555 1_555
O33_3 C23_3 1_555 1_555
Cd16 O33_3 1_555 1_555
Cd15_2 O19_3 1_555 1_555
C22_3 C27_3 1_555 1_555
C30_9 H6_9 1_555 1_555
N16 C27_3 1_555 1_555
O28 C22_3 1_555 1_555
O36 C22_3 1_555 1_555
C30_9 N16 1_555 1_555
C30_10 H6_10 1_555 1_555
C1_2 C2_2 1_555 1_555
C2_2 N1_2 1_555 1_555
C3_2 H1_2 1_555 1_555
Cd12 N1_2 1_555 1_555
Cd2_5 O2_2 1_555 1_555
N1_2 C3_2 1_555 1_555
O1_2 C1_2 1_555 1_555
O2_2 C1_2 1_555 1_555
C7_2 C12_2 1_555 1_555
C12_2 C2_2 1_555 1_555
Cd15_2 N3_2 1_555 1_555
N3_2 C3_2 1_555 1_555
O5_2 C7_2 1_555 1_555
O10_2 Cd2_5 1_555 1_555
Cd12 O1_2 1_555 1_555
C7_2 O10_2 1_555 1_555
C12_2 N3_2 1_555 1_555
Cd15_2 O5_2 1_555 1_555
C10_2 C15_2 1_555 1_555
C11_2 C16_2 1_555 1_555
C15_2 C16_2 1_555 1_555
C16_2 N7_2 1_555 1_555
C18_2 H4_2 1_555 1_555
Cd10 N6_2 1_555 1_555
Cd16 N7_2 1_555 1_555
N6_2 C15_2 1_555 1_555
N7_2 C18_2 1_555 1_555
O8_2 C10_2 1_555 1_555
O9_2 C11_2 1_555 1_555
O13_2 Cd2_7 1_555 1_555
O14_2 Cd2_7 1_555 1_555
C10_2 O13_2 1_555 1_555
C11_2 O14_2 1_555 1_555
C18_2 N6_2 1_555 1_555
Cd10 O8_2 1_555 1_555
Cd16 O9_2 1_555 1_555
C8_2 C13_2 1_555 1_555
C9_2 C14_2 1_555 1_555
C13_2 C14_2 1_555 1_555
C14_2 N5_2 1_555 1_555
C17_2 H3_2 1_555 1_555
Cd13 N4_2 1_555 1_555
Cd15 N5_2 1_555 1_555
N4_2 C13_2 1_555 1_555
N5_2 C17_2 1_555 1_555
O6_2 C8_2 1_555 1_555
O7_2 C9_2 1_555 1_555
O11_2 Cd2_8 1_555 1_555
O12_2 Cd2_8 1_555 1_555
C8_2 O11_2 1_555 1_555
C9_2 O12_2 1_555 1_555
C17_2 N4_2 1_555 1_555
Cd13 O6_2 1_555 1_555
Cd15 O7_2 1_555 1_555

#END
