
###############################################################################
#
# This file contains modified crystal structure data generated from the
# MOF subset of the Cambridge Structural Database (CSD) v543 
# hosted by the Cambridge Crystallographic Data Centre (CCDC).
#
# This work is licensed under the Creative Commons
# Attribution-NonCommercial-ShareAlike 4.0 International License.
# To view a copy of this license, visit
# http://creativecommons.org/licenses/by-nc-sa/4.0/
# or send a letter to
# Creative Commons, PO Box 1866, Mountain View, CA 94042, USA.
#
# CIF created using the CSD Python API on 29 September 2022
# The structure has been converted into the P1 space group
# The structure has a 3D framework
# The original CSD entry JEDCEB is in the hexagonal crystal system
# The framework has been calculated to contain at least 10.0% void space
# The void calculation uses a probe of radius 1.32A, grid spacing 0.4
# The framework is charged, counterions have been retained in the structure
#
###############################################################################

data_JEDCEB
_chemical_formula_moiety         '(C69 H21 Cd20 N24 Na16 O48 10+)n'
_symmetry_cell_setting           triclinic
_symmetry_space_group_name_H-M   'P 1'
_symmetry_Int_Tables_number      1
_space_group_name_Hall           'P 1'
loop_
_symmetry_equiv_pos_site_id
_symmetry_equiv_pos_as_xyz
1 x,y,z
_cell_length_a                   14.2165(8)
_cell_length_b                   14.2165(8)
_cell_length_c                   21.748(2)
_cell_angle_alpha                90
_cell_angle_beta                 90
_cell_angle_gamma                120
_cell_volume                     3806.58
loop_
_atom_site_label
_atom_site_type_symbol
_atom_site_fract_x
_atom_site_fract_y
_atom_site_fract_z
Na1 Na 0.0000 0.0000 0.8912(4)
Na1_2 Na -0.0000 1.0000 0.8912(4)
Na1_3 Na 1.0000 0.0000 0.8912(4)
Na1_4 Na 1.0000 1.0000 0.8912(4)
Na1_5 Na 0.0000 0.0000 0.6088(4)
Na1_6 Na -0.0000 1.0000 0.6088(4)
Na1_7 Na 1.0000 0.0000 0.6088(4)
Na1_8 Na 1.0000 1.0000 0.6088(4)
Na1_9 Na 0.0000 0.0000 0.3912(4)
Na1_10 Na 0.0000 1.0000 0.3912(4)
Na1_11 Na 1.0000 0.0000 0.3912(4)
Na1_12 Na 1.0000 1.0000 0.3912(4)
Na1_13 Na 0.0000 0.0000 0.1088(4)
Na1_14 Na -0.0000 1.0000 0.1088(4)
Na1_15 Na 1.0000 0.0000 0.1088(4)
Na1_16 Na 1.0000 1.0000 0.1088(4)
C3 C 0.3342 -0.0000(9) -0.0000
H1 H 0.2688 -0.0000 -0.0000
Cd9 Cd 0.45608(7) 0.19898(5) 0.09987(2)
Cd10 Cd 0.80102(5) 0.25710(5) 0.09987(2)
N3 N 0.4194(8) 0.0695(6) 0.0325(3)
C7 C 0.6069(11) 0.1142(7) 0.0473(4)
C12 C 0.4986(10) 0.0430(7) 0.0199(4)
O5 O 0.6135(8) 0.1827(5) 0.0876(3)
O19 O 0.6878(8) 0.1077(6) 0.0305(4)
Cd2 Cd 0.0000 0.0000 0.7500
C3_2 C 0.3342 0.0000(9) 1.0000
H1_2 H 0.2688 0.0000 1.0000
Cd6 Cd 0.19898(5) 0.45608(7) 0.90013(2)
Cd7 Cd 0.19898(5) 0.45608(7) 0.59987(2)
Cd15 Cd 0.45608(7) 0.19898(5) 0.40013(2)
Cd16 Cd 0.80102(5) 0.25710(5) 0.40013(2)
N7 N 0.4194(8) 0.0695(6) 0.4675(3)
N10 N 0.0695(6) 0.4194(8) 0.9675(3)
N11 N 0.0695(6) 0.4194(8) 0.5325(3)
N15 N 0.1735(7) 0.4235(9) 0.8015(4)
N16 N 0.1735(7) 0.4235(9) 0.6985(4)
C11 C 0.6069(11) 0.1142(7) 0.4527(4)
C16 C 0.4986(10) 0.0430(7) 0.4801(4)
C18 C 0.3342 0.0000(9) 0.5000
H4 H 0.2688 0.0000 0.5000
C22 C 0.1076(9) 0.2330(13) 0.8303(4)
C23 C 0.1076(9) 0.2330(13) 0.6697(4)
C27 C 0.1374(8) 0.3209(11) 0.7806(4)
C28 C 0.1374(8) 0.3209(11) 0.7194(4)
C30 C 0.1975(11) 0.4821(16) 0.7500
H6 H 0.2282 0.5571 0.7500
O9 O 0.6135(8) 0.1827(5) 0.4124(3)
O15 O 0.1827(5) 0.6135(8) 0.9124(3)
O16 O 0.3865(8) 0.5692(6) 0.9124(3)
O17 O 0.3865(8) 0.5692(6) 0.5876(3)
O18 O 0.1827(5) 0.6135(8) 0.5876(3)
O23 O 0.6878(8) 0.1077(6) 0.4695(4)
O27 O 0.3122(8) 0.4199(6) 0.9695(4)
O28 O 0.3122(8) 0.4199(6) 0.5305(4)
O32 O 0.0691(13) 0.1371(18) 0.8170(4)
O33 O 0.0691(13) 0.1371(18) 0.6830(4)
O37 O 0.1274(9) 0.2691(12) 0.8838(3)
O38 O 0.1274(9) 0.2691(12) 0.6162(3)
C3_3 C 0.3342 1.0000(9) -0.0000
H1_3 H 0.2688 1.0000 -0.0000
C17 C 0.0000(9) 0.3342(9) -0.0000
H3 H 0.0000 0.2688 -0.0000
Cd1 Cd 0.25710(5) 0.80102(5) 0.90013(2)
Cd2_2 Cd -0.0000 1.0000 0.7500
N1 N 0.3499(6) 0.9305(6) 0.9675(3)
N2 N 0.2500(6) 0.8265(7) 0.8015(4)
C1 C 0.4927(8) 0.8858(7) 0.9527(4)
C2 C 0.4556(7) 0.9570(7) 0.9801(4)
C3_4 C 0.3342 1.0000(9) 1.0000
H1_4 H 0.2688 1.0000 1.0000
C4 C 0.1254(9) 0.8924(9) 0.8303(4)
C5 C 0.1835(8) 0.8626(8) 0.7806(4)
C6 C 0.2846(11) 0.8025(11) 0.7500
H2 H 0.3289 0.7718 0.7500
O1 O 0.4308(6) 0.8173(5) 0.9124(3)
O2 O 0.5801(6) 0.8923(6) 0.9695(4)
O3 O 0.0680(12) 0.9309(13) 0.8170(4)
O4 O 0.1417(8) 0.8726(9) 0.8838(3)
Cd3 Cd 0.25710(5) 0.80102(5) 0.59987(2)
Cd8 Cd 0.54392(7) 0.74290(5) 0.90013(2)
Cd14 Cd 0.54392(7) 0.74290(5) 0.59987(2)
N6 N 0.3499(6) 0.9305(6) 0.5325(3)
N12 N 0.2500(6) 0.8265(7) 0.6985(4)
C8 C 0.1142(7) 0.6069(11) 0.9527(4)
C10 C 0.4927(8) 0.8858(7) 0.5473(4)
C13 C 0.0430(7) 0.4986(10) 0.9801(4)
C15 C 0.4556(7) 0.9570(7) 0.5199(4)
C17_2 C 0.0000(9) 0.3342(9) 1.0000
C18_2 C 0.3342 1.0000(9) 0.5000
H3_2 H 0.0000 0.2688 1.0000
H4_2 H 0.2688 1.0000 0.5000
C19 C 0.1254(9) 0.8924(9) 0.6697(4)
C24 C 0.1835(8) 0.8626(8) 0.7194(4)
O8 O 0.4308(6) 0.8173(5) 0.5876(3)
O20 O 0.1077(6) 0.6878(8) 0.9695(4)
O22 O 0.5801(6) 0.8923(6) 0.5305(4)
O24 O 0.1077(6) 0.6878(8) 0.5305(4)
O29 O 0.0680(12) 0.9309(13) 0.6830(4)
O34 O 0.1417(8) 0.8726(9) 0.6162(3)
Cd2_3 Cd 1.0000 0.0000 0.7500
Cd13 Cd 0.74290(5) 0.54392(7) 0.09987(2)
N5 N 0.9305(6) 0.3499(6) 0.0325(3)
C9 C 0.8858(7) 0.4927(8) 0.0473(4)
C14 C 0.9570(7) 0.4556(7) 0.0199(4)
C17_3 C 1.0000(9) 0.3342(9) -0.0000
H3_3 H 1.0000 0.2688 -0.0000
O7 O 0.8173(5) 0.4308(6) 0.0876(3)
O21 O 0.8923(6) 0.5801(6) 0.0305(4)
Cd2_4 Cd 1.0000 1.0000 0.7500
N8 N 0.5806(8) 0.6501(6) 0.5325(3)
N9 N 0.5806(8) 0.6501(6) 0.9675(3)
N13 N 0.5765(9) 0.7500(6) 0.6985(4)
N14 N 0.5765(9) 0.7500(6) 0.8015(4)
C17_4 C 1.0000(9) 0.3342(9) 1.0000
H3_4 H 1.0000 0.2688 1.0000
C20 C 0.7670(13) 0.8746(9) 0.6697(4)
C21 C 0.7670(13) 0.8746(9) 0.8303(4)
C25 C 0.6791(11) 0.8165(8) 0.7194(4)
C26 C 0.6791(11) 0.8165(8) 0.7806(4)
C29 C 0.5179(16) 0.7154(11) 0.7500
H5 H 0.4429 0.6711 0.7500
O30 O 0.8629(18) 0.9320(12) 0.6830(4)
O31 O 0.8629(18) 0.9320(12) 0.8170(4)
O35 O 0.7309(12) 0.8583(8) 0.6162(3)
O36 O 0.7309(12) 0.8583(8) 0.8838(3)
N7_2 N 0.6501(10) 0.5806(8) 0.0325(3)
C11_2 C 0.5073(13) 0.3931(11) 0.0473(4)
C16_2 C 0.5444(12) 0.5014(10) 0.0199(4)
C18_3 C 0.6658(9) 0.6658 0.0000
H4_3 H 0.7312 0.7312 0.0000
O9_2 O 0.5692(9) 0.3865(8) 0.0876(3)
O23_2 O 0.4199(10) 0.3122(8) 0.0305(4)
C1_2 C 0.3931(11) 0.5073(8) 0.5473(4)
C2_2 C 0.5014(10) 0.5444(7) 0.5199(4)
C3_5 C 0.6658(9) 0.6658 0.5000
H1_5 H 0.7312 0.7312 0.5000
Cd9_2 Cd 0.74290(9) 0.54392(7) 0.40013(2)
N3_2 N 0.6501(10) 0.5806(8) 0.4675(3)
C7_2 C 0.5073(13) 0.3931(11) 0.4527(4)
C10_2 C 0.3931(11) 0.5073(8) 0.9527(4)
C12_2 C 0.5444(12) 0.5014(10) 0.4801(4)
C15_2 C 0.5014(10) 0.5444(7) 0.9801(4)
C18_4 C 0.6658(9) 0.6658 1.0000
H4_4 H 0.7312 0.7312 1.0000
O5_2 O 0.5692(9) 0.3865(8) 0.4124(3)
O19_2 O 0.4199(10) 0.3122(8) 0.4695(4)
Cd2_5 Cd 0.0000 0.0000 0.2500
C3_6 C -0.0000(9) 0.3342 0.5000
H1_6 H 0.0000 0.2688 0.5000
N15_2 N 0.4235(9) 0.1735(7) 0.3015(4)
N16_2 N 0.4235(9) 0.1735(7) 0.1985(4)
C7_3 C 0.1142(7) 0.6069(11) 0.5473(4)
C12_3 C 0.0430(7) 0.4986(10) 0.5199(4)
C22_2 C 0.2330(13) 0.1076(9) 0.3303(4)
C23_2 C 0.2330(13) 0.1076(9) 0.1697(4)
C27_2 C 0.3209(11) 0.1374(8) 0.2806(4)
C28_2 C 0.3209(11) 0.1374(8) 0.2194(4)
C30_2 C 0.4821(16) 0.1975(11) 0.2500
H6_2 H 0.5571 0.2282 0.2500
O32_2 O 0.1371(18) 0.0691(13) 0.3170(4)
O33_2 O 0.1371(18) 0.0691(13) 0.1830(4)
O37_2 O 0.2691(12) 0.1274(9) 0.3838(3)
O38_2 O 0.2691(12) 0.1274(9) 0.1162(3)
Cd2_6 Cd -0.0000 1.0000 0.2500
Cd2_7 Cd 1.0000 0.0000 0.2500
N1_2 N 0.9305(6) 0.3499(6) 0.4675(3)
N2_2 N 0.8265(7) 0.2500(6) 0.3015(4)
C1_3 C 0.8858(7) 0.4927(8) 0.4527(4)
C2_3 C 0.9570(7) 0.4556(7) 0.4801(4)
C3_7 C 1.0000(9) 0.3342 0.5000
H1_7 H 1.0000 0.2688 0.5000
C4_2 C 0.8924(9) 0.1254(9) 0.3303(4)
C5_2 C 0.8626(8) 0.1835(8) 0.2806(4)
C6_2 C 0.8025(11) 0.2846(11) 0.2500
H2_2 H 0.7718 0.3289 0.2500
O1_2 O 0.8173(5) 0.4308(6) 0.4124(3)
O2_2 O 0.8923(6) 0.5801(6) 0.4695(4)
O3_2 O 0.9309(13) 0.0680(12) 0.3170(4)
O4_2 O 0.8726(9) 0.1417(8) 0.3838(3)
N12_2 N 0.8265(7) 0.2500(6) 0.1985(4)
C19_2 C 0.8924(9) 0.1254(9) 0.1697(4)
C24_2 C 0.8626(8) 0.1835(8) 0.2194(4)
O29_2 O 0.9309(13) 0.0680(12) 0.1830(4)
O34_2 O 0.8726(9) 0.1417(8) 0.1162(3)
Cd2_8 Cd 1.0000 1.0000 0.2500
N13_2 N 0.7500(6) 0.5765(9) 0.1985(4)
N14_2 N 0.7500(6) 0.5765(9) 0.3015(4)
C20_2 C 0.8746(9) 0.7670(13) 0.1697(4)
C21_2 C 0.8746(9) 0.7670(13) 0.3303(4)
C25_2 C 0.8165(8) 0.6791(11) 0.2194(4)
C26_2 C 0.8165(8) 0.6791(11) 0.2806(4)
C29_2 C 0.7154(11) 0.5179(16) 0.2500
H5_2 H 0.6711 0.4429 0.2500
O30_2 O 0.9320(12) 0.8629(18) 0.1830(4)
O31_2 O 0.9320(12) 0.8629(18) 0.3170(4)
O35_2 O 0.8583(8) 0.7309(12) 0.1162(3)
O36_2 O 0.8583(8) 0.7309(12) 0.3838(3)
loop_
_geom_bond_atom_site_label_1
_geom_bond_atom_site_label_2
_geom_bond_site_symmetry_1
_geom_bond_site_symmetry_2
H1 C3 1_555 1_555
Cd9 N3 1_555 1_555
Cd10 O5 1_555 1_555
N3 C3 1_555 1_555
C7 C12 1_555 1_555
C12 N3 1_555 1_555
O5 Cd9 1_555 1_555
O19 Cd10 1_555 1_555
C7 O5 1_555 1_555
C7 O19 1_555 1_555
H1_2 C3_2 1_555 1_555
Cd6 N10 1_555 1_555
Cd7 N11 1_555 1_555
Cd15 N7 1_555 1_555
Cd16 O9 1_555 1_555
N7 C16 1_555 1_555
N15 Cd6 1_555 1_555
N16 Cd7 1_555 1_555
C11 C16 1_555 1_555
H4 C18 1_555 1_555
C22 C27 1_555 1_555
C23 C28 1_555 1_555
C27 N15 1_555 1_555
C28 N16 1_555 1_555
C30 N15 1_555 1_555
H6 C30 1_555 1_555
O9 Cd15 1_555 1_555
O15 Cd6 1_555 1_555
O16 Cd6 1_555 1_555
O17 Cd7 1_555 1_555
O18 Cd7 1_555 1_555
O23 Cd16 1_555 1_555
O27 Cd6 1_555 1_555
O28 Cd7 1_555 1_555
O32 Cd2 1_555 1_555
O33 Cd2 1_555 1_555
O37 Cd6 1_555 1_555
O38 Cd7 1_555 1_555
N7 C18 1_555 1_555
N16 C30 1_555 1_555
C11 O9 1_555 1_555
C11 O23 1_555 1_555
C22 O32 1_555 1_555
C22 O37 1_555 1_555
C23 O33 1_555 1_555
C23 O38 1_555 1_555
C27 C28 1_555 1_555
H1_3 C3_3 1_555 1_555
H3 C17 1_555 1_555
Cd1 N1 1_555 1_555
Cd2_2 O3 1_555 1_555
N1 C2 1_555 1_555
N2 Cd1 1_555 1_555
C1 C2 1_555 1_555
C3_4 N1 1_555 1_555
H1_4 C3_4 1_555 1_555
C4 C5 1_555 1_555
C5 N2 1_555 1_555
C6 N2 1_555 1_555
H2 C6 1_555 1_555
O1 Cd1 1_555 1_555
O2 C1 1_555 1_555
O3 C4 1_555 1_555
O4 Cd1 1_555 1_555
Cd3 N6 1_555 1_555
Cd8 O1 1_555 1_555
Cd14 O8 1_555 1_555
N10 C13 1_555 1_555
N6 C15 1_555 1_555
N12 C6 1_555 1_555
C8 C13 1_555 1_555
C10 C15 1_555 1_555
C17_2 N10 1_555 1_555
C18_2 N6 1_555 1_555
H3_2 C17_2 1_555 1_555
H4_2 C18_2 1_555 1_555
C19 C24 1_555 1_555
C24 C5 1_555 1_555
O15 Cd1 1_555 1_555
O8 Cd3 1_555 1_555
O18 Cd3 1_555 1_555
O20 Cd1 1_555 1_555
O22 Cd14 1_555 1_555
O24 Cd3 1_555 1_555
O29 Cd2_2 1_555 1_555
O34 Cd3 1_555 1_555
C1 O1 1_555 1_555
C4 O4 1_555 1_555
O2 Cd8 1_555 1_555
Cd3 N12 1_555 1_555
N12 C24 1_555 1_555
C8 O15 1_555 1_555
C8 O20 1_555 1_555
C10 O8 1_555 1_555
C10 O22 1_555 1_555
C19 O29 1_555 1_555
C19 O34 1_555 1_555
Cd10 N5 1_555 1_555
Cd13 O7 1_555 1_555
N5 C14 1_555 1_555
C9 C14 1_555 1_555
H3_3 C17_3 1_555 1_555
O7 Cd10 1_555 1_555
O21 Cd13 1_555 1_555
N5 C17_3 1_555 1_555
C9 O7 1_555 1_555
C9 O21 1_555 1_555
Cd14 N8 1_555 1_555
Cd8 N9 1_555 1_555
N13 Cd14 1_555 1_555
N14 Cd8 1_555 1_555
H3_4 C17_4 1_555 1_555
C20 C25 1_555 1_555
C21 C26 1_555 1_555
C25 N13 1_555 1_555
C26 N14 1_555 1_555
C29 N13 1_555 1_555
H5 C29 1_555 1_555
O17 Cd14 1_555 1_555
O16 Cd8 1_555 1_555
O30 Cd2_4 1_555 1_555
O31 Cd2_4 1_555 1_555
O35 Cd14 1_555 1_555
O36 Cd8 1_555 1_555
N14 C29 1_555 1_555
C20 O30 1_555 1_555
C20 O35 1_555 1_555
C21 O31 1_555 1_555
C21 O36 1_555 1_555
C25 C26 1_555 1_555
Cd13 N7_2 1_555 1_555
Cd9 O9_2 1_555 1_555
N7_2 C16_2 1_555 1_555
C11_2 C16_2 1_555 1_555
H4_3 C18_3 1_555 1_555
O9_2 Cd13 1_555 1_555
O23_2 Cd9 1_555 1_555
N7_2 C18_3 1_555 1_555
C11_2 O9_2 1_555 1_555
C11_2 O23_2 1_555 1_555
N8 C2_2 1_555 1_555
C1_2 C2_2 1_555 1_555
C2_2 C12_2 1_555 1_555
C3_5 N8 1_555 1_555
H1_5 C3_5 1_555 1_555
O28 C1_2 1_555 1_555
Cd9_2 N3_2 1_555 1_555
Cd15 O5_2 1_555 1_555
N3_2 C3_5 1_555 1_555
N9 C15_2 1_555 1_555
C7_2 C12_2 1_555 1_555
C10_2 C15_2 1_555 1_555
C12_2 N3_2 1_555 1_555
C18_4 N9 1_555 1_555
H4_4 C18_4 1_555 1_555
O5_2 Cd9_2 1_555 1_555
O19_2 Cd15 1_555 1_555
C1_2 O17 1_555 1_555
C7_2 O5_2 1_555 1_555
C7_2 O19_2 1_555 1_555
C10_2 O16 1_555 1_555
C10_2 O27 1_555 1_555
H1_6 C3_6 1_555 1_555
N11 C3_6 1_555 1_555
N15_2 Cd15 1_555 1_555
N16_2 Cd9 1_555 1_555
C7_3 C12_3 1_555 1_555
C12_3 N11 1_555 1_555
C22_2 C27_2 1_555 1_555
C23_2 C28_2 1_555 1_555
C27_2 N15_2 1_555 1_555
C28_2 N16_2 1_555 1_555
C30_2 N15_2 1_555 1_555
H6_2 C30_2 1_555 1_555
O32_2 Cd2_5 1_555 1_555
O33_2 Cd2_5 1_555 1_555
O37_2 Cd15 1_555 1_555
O38_2 Cd9 1_555 1_555
N16_2 C30_2 1_555 1_555
C7_3 O18 1_555 1_555
C7_3 O24 1_555 1_555
C22_2 O32_2 1_555 1_555
C22_2 O37_2 1_555 1_555
C23_2 O33_2 1_555 1_555
C23_2 O38_2 1_555 1_555
C27_2 C28_2 1_555 1_555
Cd16 N1_2 1_555 1_555
Cd2_7 O3_2 1_555 1_555
N1_2 C2_3 1_555 1_555
N2_2 Cd16 1_555 1_555
C1_3 C2_3 1_555 1_555
C3_7 N1_2 1_555 1_555
H1_7 C3_7 1_555 1_555
C4_2 C5_2 1_555 1_555
C5_2 N2_2 1_555 1_555
C6_2 N2_2 1_555 1_555
H2_2 C6_2 1_555 1_555
O1_2 Cd16 1_555 1_555
O2_2 C1_3 1_555 1_555
O3_2 C4_2 1_555 1_555
O4_2 Cd16 1_555 1_555
Cd9_2 O1_2 1_555 1_555
N12_2 C6_2 1_555 1_555
C19_2 C24_2 1_555 1_555
C24_2 C5_2 1_555 1_555
O29_2 Cd2_7 1_555 1_555
O34_2 Cd10 1_555 1_555
C1_3 O1_2 1_555 1_555
C4_2 O4_2 1_555 1_555
O2_2 Cd9_2 1_555 1_555
Cd10 N12_2 1_555 1_555
N12_2 C24_2 1_555 1_555
C19_2 O29_2 1_555 1_555
C19_2 O34_2 1_555 1_555
N13_2 Cd13 1_555 1_555
N14_2 Cd9_2 1_555 1_555
C20_2 C25_2 1_555 1_555
C21_2 C26_2 1_555 1_555
C25_2 N13_2 1_555 1_555
C26_2 N14_2 1_555 1_555
C29_2 N13_2 1_555 1_555
H5_2 C29_2 1_555 1_555
O30_2 Cd2_8 1_555 1_555
O31_2 Cd2_8 1_555 1_555
O35_2 Cd13 1_555 1_555
O36_2 Cd9_2 1_555 1_555
N14_2 C29_2 1_555 1_555
C20_2 O30_2 1_555 1_555
C20_2 O35_2 1_555 1_555
C21_2 O31_2 1_555 1_555
C21_2 O36_2 1_555 1_555
C25_2 C26_2 1_555 1_555

#END
