
###############################################################################
#
# This file contains modified crystal structure data generated from the
# MOF subset of the Cambridge Structural Database (CSD) v543 
# hosted by the Cambridge Crystallographic Data Centre (CCDC).
#
# This work is licensed under the Creative Commons
# Attribution-NonCommercial-ShareAlike 4.0 International License.
# To view a copy of this license, visit
# http://creativecommons.org/licenses/by-nc-sa/4.0/
# or send a letter to
# Creative Commons, PO Box 1866, Mountain View, CA 94042, USA.
#
# CIF created using the CSD Python API on 29 September 2022
# The structure has been converted into the P1 space group
# The structure has a 3D framework
# The original CSD entry JEDDII is in the orthorhombic crystal system
# The original CSD entry JEDDII is in a Sohncke space group
# The framework has been calculated to contain at least 10.0% void space
# The void calculation uses a probe of radius 1.32A, grid spacing 0.4
#
###############################################################################

data_JEDDII
_chemical_formula_moiety         '(C168 H120 O72 P8 Zn16)n'
_symmetry_cell_setting           triclinic
_symmetry_space_group_name_H-M   'P 1'
_symmetry_Int_Tables_number      1
_space_group_name_Hall           'P 1'
loop_
_symmetry_equiv_pos_site_id
_symmetry_equiv_pos_as_xyz
1 x,y,z
_cell_length_a                   21.664(3)
_cell_length_b                   23.651(4)
_cell_length_c                   12.2611(19)
_cell_angle_alpha                90
_cell_angle_beta                 90
_cell_angle_gamma                90
_cell_volume                     6282.28
loop_
_atom_site_label
_atom_site_type_symbol
_atom_site_fract_x
_atom_site_fract_y
_atom_site_fract_z
C24 C 0.3242(6) 0.0180(5) 0.0033(11)
H19 H 0.3189 0.0096 0.0768
H22 H 0.3162 0.1039 0.0185
Zn10 Zn 0.69528(9) 0.29648(8) 0.05552(15)
C26 C 0.3405(9) 0.0419(8) 0.7824(15)
H21 H 0.3516 0.0504 0.7111
C27 C 0.3217(7) 0.0746(6) 0.9688(12)
C28 C 0.3276(7) 0.0853(6) 0.8584(12)
P2 P 0.3279(2) 0.15909(19) 0.8196(3)
C29 C 0.3111(7) 0.1646(7) 0.6785(12)
C30 C 0.4016(8) 0.1903(6) 0.8412(11)
C31 C 0.4494(7) 0.1576(7) 0.8896(14)
H23 H 0.4440 0.1197 0.9081
C32 C 0.4105(8) 0.2468(7) 0.8069(14)
H24 H 0.3791 0.2674 0.7736
C33 C 0.2480(10) 0.1647(11) 0.6469(16)
H25 H 0.2174 0.1668 0.7000
C34 C 0.3531(8) 0.1564(7) 0.5969(12)
H26 H 0.3945 0.1516 0.6146
C35 C 0.3352(10) 0.1552(8) 0.4879(13)
H27 H 0.3649 0.1519 0.4335
C36 C 0.5065(8) 0.1869(7) 0.9079(15)
H28 H 0.5386 0.1664 0.9391
C37 C 0.4672(8) 0.2697(9) 0.8249(16)
H29 H 0.4750 0.3059 0.7985
C38 C 0.2316(9) 0.1616(9) 0.5402(16)
H30 H 0.1899 0.1614 0.5221
C39 C 0.5173(6) 0.2401(6) 0.8846(12)
C40 C 0.2736(8) 0.1590(7) 0.4603(13)
C41 C 0.2535(9) 0.1506(8) 0.3401(15)
C42 C 0.5774(6) 0.2679(5) 0.8995(10)
O14 O 0.1973(7) 0.1586(7) 0.3274(10)
O15 O 0.2918(9) 0.1421(8) 0.2689(12)
O16 O 0.5857(4) 0.3175(4) 0.8493(9)
O17 O 0.6143(6) 0.2471(5) 0.9583(9)
O18 O 0.2812(5) 0.1908(4) 0.8842(10)
Zn5 Zn 0.66652(8) 0.35110(7) 0.81893(13)
Zn6 Zn 0.16652(8) 0.14890(7) 0.18107(13)
Zn7 Zn 0.70560(8) 0.20711(8) 0.88686(14)
Zn11 Zn 0.19528(9) 0.20352(8) 0.94448(15)
Zn3 Zn 0.30472(9) 0.70352(8) 0.05552(15)
Zn4 Zn 0.32212(10) 0.83670(7) 0.14697(14)
P1 P 0.3380(2) 0.34530(17) 0.2146(3)
O2 O 0.2782(5) 0.7877(4) 0.0512(9)
H2 H 0.2338 0.7907 0.0653
O3 O 0.2949(6) 0.3089(5) 0.1562(9)
C1 C 0.3186(7) 0.3513(7) 0.3558(14)
C3 C 0.3309(7) 0.5244(6) 0.0625(11)
C4 C 0.2649(8) 0.3772(6) 0.3903(14)
H4 H 0.2404 0.3951 0.3385
C5 C 0.3390(7) 0.5167(6) 0.1694(12)
H5 H 0.3440 0.5491 0.2117
C6 C 0.3575(8) 0.3250(7) 0.4290(14)
H6 H 0.3933 0.3061 0.4080
C7 C 0.3369(7) 0.4173(6) 0.1577(12)
C8 C 0.4664(7) 0.3516(8) 0.2084(16)
H7 H 0.4613 0.3904 0.2182
C9 C 0.3407(8) 0.4673(7) 0.2213(12)
H8 H 0.3442 0.4656 0.2968
C10 C 0.2460(8) 0.3778(6) 0.4955(13)
H9 H 0.2080 0.3934 0.5142
C11 C 0.3323(10) 0.4208(8) 0.0451(17)
H10 H 0.3304 0.3886 0.0016
C12 C 0.4161(8) 0.3198(6) 0.2054(12)
C13 C 0.2852(7) 0.3541(6) 0.5773(11)
C14 C 0.2643(8) 0.3500(8) 0.6919(15)
C15 C 0.3381(9) 0.3293(9) 0.5387(15)
H15 H 0.3642 0.3134 0.5907
O7 O 0.2995(8) 0.3398(7) 0.7655(11)
C16 C 0.5259(9) 0.3313(9) 0.1981(19)
H16 H 0.5602 0.3547 0.1923
C17 C 0.4190(11) 0.2616(11) 0.198(2)
H17 H 0.3837 0.2393 0.1991
C18 C 0.4821(8) 0.2363(8) 0.1877(15)
H18 H 0.4874 0.1978 0.1753
C19 C 0.5300(8) 0.2705(6) 0.1971(13)
C20 C 0.5928(7) 0.2460(7) 0.1883(12)
O8 O 0.5980(6) 0.1930(5) 0.1793(10)
O9 O 0.6404(5) 0.2797(5) 0.1843(10)
O10 O 0.2061(6) 0.3548(7) 0.7077(10)
O11 O 0.3313(6) 0.6216(5) 0.0686(10)
C21 C 0.3292(7) 0.5810(7) 0.0075(12)
O13 O 0.3401(6) 0.9069(4) 0.0638(9)
Zn8 Zn 0.20560(8) 0.29289(8) 0.11314(14)
Zn12 Zn 0.67788(10) 0.16330(7) 0.14697(14)
Zn13 Zn 0.17788(10) 0.33670(7) 0.85303(14)
O20 O 0.4020(6) 0.8070(5) 0.1793(10)
O21 O 0.3596(5) 0.7203(5) 0.1843(10)
O22 O 0.2939(6) 0.8548(7) 0.2923(10)
O26 O 0.2188(5) 0.6908(4) 0.1158(10)
Zn1 Zn 0.33348(8) 0.64890(7) 0.81893(13)
Zn2 Zn 0.29440(8) 0.79289(8) 0.88686(14)
O1 O 0.2800(5) 0.7046(4) 0.8933(9)
H1 H 0.2362 0.6952 0.8840
O4 O 0.3209(5) 0.5828(5) 0.9064(9)
C2 C 0.3308(7) 0.4756(6) 0.9997(12)
H3 H 0.3295 0.4791 0.9241
O5 O 0.3988(9) 0.5913(8) 0.7223(14)
H11 H 0.4230 0.6056 0.6751
H12 H 0.3991 0.5559 0.7340
O6 O 0.3337(7) 0.7879(4) 0.7357(9)
H13 H 0.3548 0.7590 0.7184
H14 H 0.3292 0.8148 0.6904
O12 O 0.3249(6) 0.8767(4) 0.8928(8)
C22 C 0.3300(8) 0.9146(6) 0.9592(12)
C23 C 0.3347(7) 0.9739(7) 0.9282(13)
C25 C 0.3362(8) 0.9869(7) 0.8166(13)
H20 H 0.3342 0.9579 0.7654
O19 O 0.2051(6) 0.8089(5) 0.8438(9)
O23 O 0.3027(7) 0.6586(7) 0.6726(10)
O24 O 0.4143(4) 0.6825(4) 0.8493(9)
O25 O 0.3857(6) 0.7529(5) 0.9583(9)
P1_2 P 0.6620(2) 0.65470(17) 0.2146(3)
O2_2 O 0.7218(5) 0.2123(4) 0.0512(9)
H2_2 H 0.7662 0.2093 0.0653
O3_2 O 0.7051(6) 0.6911(5) 0.1562(9)
C1_2 C 0.6814(7) 0.6487(7) 0.3558(14)
C3_2 C 0.6691(7) 0.4756(6) 0.0625(11)
C4_2 C 0.7351(8) 0.6228(6) 0.3903(14)
H4_2 H 0.7596 0.6049 0.3385
C5_2 C 0.6610(7) 0.4833(6) 0.1694(12)
H5_2 H 0.6560 0.4509 0.2117
C6_2 C 0.6425(8) 0.6750(7) 0.4290(14)
H6_2 H 0.6067 0.6939 0.4080
C7_2 C 0.6631(7) 0.5827(6) 0.1577(12)
C8_2 C 0.5336(7) 0.6484(8) 0.2084(16)
H7_2 H 0.5387 0.6096 0.2182
C9_2 C 0.6593(8) 0.5327(7) 0.2213(12)
H8_2 H 0.6558 0.5344 0.2968
C10_2 C 0.7540(8) 0.6222(6) 0.4955(13)
H9_2 H 0.7920 0.6066 0.5142
C11_2 C 0.6677(10) 0.5792(8) 0.0451(17)
H10_2 H 0.6696 0.6114 0.0016
C12_2 C 0.5839(8) 0.6802(6) 0.2054(12)
C13_2 C 0.7148(7) 0.6459(6) 0.5773(11)
C14_2 C 0.7357(8) 0.6500(8) 0.6919(15)
C15_2 C 0.6619(9) 0.6707(9) 0.5387(15)
H15_2 H 0.6358 0.6866 0.5907
O7_2 O 0.7005(8) 0.6602(7) 0.7655(11)
C16_2 C 0.4741(9) 0.6687(9) 0.1981(19)
H16_2 H 0.4398 0.6453 0.1923
C17_2 C 0.5810(11) 0.7384(11) 0.198(2)
H17_2 H 0.6163 0.7607 0.1991
C18_2 C 0.5179(8) 0.7637(8) 0.1877(15)
H18_2 H 0.5126 0.8022 0.1753
C19_2 C 0.4700(8) 0.7295(6) 0.1971(13)
C20_2 C 0.4072(7) 0.7540(7) 0.1883(12)
O10_2 O 0.7939(6) 0.6452(7) 0.7077(10)
O11_2 O 0.6687(6) 0.3784(5) 0.0686(10)
C21_2 C 0.6708(7) 0.4190(7) 0.0075(12)
O13_2 O 0.6599(6) 0.0931(4) 0.0638(9)
Zn8_2 Zn 0.79440(8) 0.70711(8) 0.11314(14)
Zn13_2 Zn 0.82212(10) 0.66330(7) 0.85303(14)
O22_2 O 0.7061(6) 0.1452(7) 0.2923(10)
O26_2 O 0.7812(5) 0.3092(4) 0.1158(10)
O1_2 O 0.7200(5) 0.2954(4) 0.8933(9)
H1_2 H 0.7638 0.3048 0.8840
O4_2 O 0.6791(5) 0.4172(5) 0.9064(9)
C2_2 C 0.6692(7) 0.5244(6) 0.9997(12)
H3_2 H 0.6705 0.5209 0.9241
O5_2 O 0.6012(9) 0.4087(8) 0.7223(14)
H11_2 H 0.5770 0.3944 0.6751
H12_2 H 0.6009 0.4441 0.7340
O6_2 O 0.6663(7) 0.2121(4) 0.7357(9)
H13_2 H 0.6452 0.2410 0.7184
H14_2 H 0.6708 0.1852 0.6904
O12_2 O 0.6751(6) 0.1233(4) 0.8928(8)
C22_2 C 0.6700(8) 0.0854(6) 0.9592(12)
C23_2 C 0.6653(7) 0.0261(7) 0.9282(13)
C25_2 C 0.6638(8) 0.0131(7) 0.8166(13)
H20_2 H 0.6658 0.0421 0.7654
O19_2 O 0.7949(6) 0.1911(5) 0.8438(9)
O23_2 O 0.6973(7) 0.3414(7) 0.6726(10)
C24_2 C 0.6758(6) 0.9820(5) 0.0033(11)
H19_2 H 0.6811 0.9904 0.0768
H22_2 H 0.6838 0.8961 0.0185
C26_2 C 0.6595(9) 0.9581(8) 0.7824(15)
H21_2 H 0.6484 0.9496 0.7111
C27_2 C 0.6783(7) 0.9254(6) 0.9688(12)
C28_2 C 0.6724(7) 0.9147(6) 0.8584(12)
P2_2 P 0.6721(2) 0.84091(19) 0.8196(3)
C29_2 C 0.6889(7) 0.8354(7) 0.6785(12)
C30_2 C 0.5984(8) 0.8097(6) 0.8412(11)
C31_2 C 0.5506(7) 0.8424(7) 0.8896(14)
H23_2 H 0.5560 0.8803 0.9081
C32_2 C 0.5895(8) 0.7532(7) 0.8069(14)
H24_2 H 0.6209 0.7326 0.7736
C33_2 C 0.7520(10) 0.8353(11) 0.6469(16)
H25_2 H 0.7826 0.8332 0.7000
C34_2 C 0.6469(8) 0.8436(7) 0.5969(12)
H26_2 H 0.6055 0.8484 0.6146
C35_2 C 0.6648(10) 0.8448(8) 0.4879(13)
H27_2 H 0.6351 0.8481 0.4335
C36_2 C 0.4935(8) 0.8131(7) 0.9079(15)
H28_2 H 0.4614 0.8336 0.9391
C37_2 C 0.5328(8) 0.7303(9) 0.8249(16)
H29_2 H 0.5250 0.6941 0.7985
C38_2 C 0.7684(9) 0.8384(9) 0.5402(16)
H30_2 H 0.8101 0.8386 0.5221
C39_2 C 0.4827(6) 0.7599(6) 0.8846(12)
C40_2 C 0.7264(8) 0.8410(7) 0.4603(13)
C41_2 C 0.7465(9) 0.8494(8) 0.3401(15)
C42_2 C 0.4226(6) 0.7321(5) 0.8995(10)
O14_2 O 0.8027(7) 0.8414(7) 0.3274(10)
O15_2 O 0.7082(9) 0.8579(8) 0.2689(12)
O18_2 O 0.7188(5) 0.8092(4) 0.8842(10)
Zn6_2 Zn 0.83348(8) 0.85110(7) 0.18107(13)
Zn11_2 Zn 0.80472(9) 0.79648(8) 0.94448(15)
O1_3 O 0.2200(5) 0.2046(4) 0.1067(9)
H1_3 H 0.2638 0.1952 0.1160
O4_3 O 0.1791(5) 0.0828(5) 0.0936(9)
O5_3 O 0.1012(9) 0.0913(8) 0.2777(14)
H11_3 H 0.0770 0.1056 0.3249
H12_3 H 0.1009 0.0559 0.2660
O6_3 O 0.1663(7) 0.2879(4) 0.2643(9)
H13_3 H 0.1452 0.2590 0.2816
H14_3 H 0.1708 0.3148 0.3096
O12_3 O 0.1751(6) 0.3767(4) 0.1072(8)
C22_3 C 0.1700(8) 0.4146(6) 0.0408(12)
C23_3 C 0.1653(7) 0.4739(7) 0.0718(13)
C25_3 C 0.1638(8) 0.4869(7) 0.1834(13)
H20_3 H 0.1658 0.4579 0.2346
C26_3 C 0.1595(9) 0.5419(8) 0.2176(15)
H21_3 H 0.1484 0.5504 0.2889
C27_3 C 0.1783(7) 0.5746(6) 0.0312(12)
C28_3 C 0.1724(7) 0.5853(6) 0.1416(12)
P2_3 P 0.1721(2) 0.65909(19) 0.1804(3)
C29_3 C 0.1889(7) 0.6646(7) 0.3215(12)
C30_3 C 0.0984(8) 0.6903(6) 0.1588(11)
C31_3 C 0.0506(7) 0.6576(7) 0.1104(14)
H23_3 H 0.0560 0.6197 0.0919
C32_3 C 0.0895(8) 0.7468(7) 0.1931(14)
H24_3 H 0.1209 0.7674 0.2264
C33_3 C 0.2520(10) 0.6647(11) 0.3531(16)
H25_3 H 0.2826 0.6668 0.3000
C34_3 C 0.1469(8) 0.6564(7) 0.4031(12)
H26_3 H 0.1055 0.6516 0.3854
C35_3 C 0.1648(10) 0.6552(8) 0.5121(13)
H27_3 H 0.1351 0.6519 0.5665
C37_3 C 0.0328(8) 0.7697(9) 0.1751(16)
H29_3 H 0.0250 0.8059 0.2015
C38_3 C 0.2684(9) 0.6616(9) 0.4598(16)
H30_3 H 0.3101 0.6614 0.4779
C40_3 C 0.2264(8) 0.6590(7) 0.5397(13)
C41_3 C 0.2465(9) 0.6506(8) 0.6599(15)
O15_3 O 0.2082(9) 0.6421(8) 0.7311(12)
O24_2 O 0.0857(4) 0.1825(4) 0.1507(9)
O25_2 O 0.1143(6) 0.2529(5) 0.0417(9)
O2_3 O 0.2218(5) 0.2877(4) 0.9488(9)
H2_3 H 0.2662 0.2907 0.9347
C3_3 C 0.1691(7) 0.0244(6) 0.9375(11)
C5_3 C 0.1610(7) 0.0167(6) 0.8306(12)
H5_3 H 0.1560 0.0491 0.7883
O11_3 O 0.1687(6) 0.1216(5) 0.9314(10)
C21_3 C 0.1708(7) 0.0810(7) 0.9925(12)
O13_3 O 0.1599(6) 0.4069(4) 0.9362(9)
C24_3 C 0.1758(6) 0.5180(5) 0.9967(11)
H19_3 H 0.1811 0.5096 0.9232
H22_3 H 0.1838 0.6039 0.9815
O20_2 O 0.0980(6) 0.3070(5) 0.8207(10)
O21_2 O 0.1404(5) 0.2203(5) 0.8157(10)
P1_3 P 0.1620(2) 0.84530(17) 0.7854(3)
C1_3 C 0.1814(7) 0.8513(7) 0.6442(14)
C4_3 C 0.2351(8) 0.8772(6) 0.6097(14)
H4_3 H 0.2596 0.8951 0.6615
C6_3 C 0.1425(8) 0.8250(7) 0.5710(14)
H6_3 H 0.1067 0.8061 0.5920
C7_3 C 0.1631(7) 0.9173(6) 0.8423(12)
C8_3 C 0.0336(7) 0.8516(8) 0.7916(16)
H7_3 H 0.0387 0.8904 0.7818
C9_3 C 0.1593(8) 0.9673(7) 0.7787(12)
H8_3 H 0.1558 0.9656 0.7032
C10_3 C 0.2540(8) 0.8778(6) 0.5045(13)
H9_3 H 0.2920 0.8934 0.4858
C11_3 C 0.1677(10) 0.9208(8) 0.9549(17)
H10_3 H 0.1696 0.8886 0.9984
C12_3 C 0.0839(8) 0.8198(6) 0.7946(12)
C13_3 C 0.2148(7) 0.8541(6) 0.4227(11)
C14_3 C 0.2357(8) 0.8500(8) 0.3081(15)
C15_3 C 0.1619(9) 0.8293(9) 0.4613(15)
H15_3 H 0.1358 0.8134 0.4093
O7_3 O 0.2005(8) 0.8398(7) 0.2345(11)
C17_3 C 0.0810(11) 0.7616(11) 0.802(2)
H17_3 H 0.1163 0.7393 0.8009
C18_3 C 0.0179(8) 0.7363(8) 0.8123(15)
H18_3 H 0.0126 0.6978 0.8247
C36_3 C 0.9935(8) 0.6869(7) 0.0921(15)
H28_3 H 0.9614 0.6664 0.0609
C39_3 C 0.9827(6) 0.7401(6) 0.1154(12)
C42_3 C 0.9226(6) 0.7679(5) 0.1005(10)
O16_2 O 0.9143(4) 0.8175(4) 0.1507(9)
O17_2 O 0.8857(6) 0.7471(5) 0.0417(9)
C16_3 C 0.9741(9) 0.8313(9) 0.8019(19)
H16_3 H 0.9398 0.8547 0.8077
C19_3 C 0.9700(8) 0.7705(6) 0.8029(13)
C20_3 C 0.9072(7) 0.7460(7) 0.8117(12)
O8_2 O 0.9020(6) 0.6930(5) 0.8207(10)
O9_2 O 0.8596(5) 0.7797(5) 0.8157(10)
C16_4 C 0.0259(9) 0.1687(9) 0.8019(19)
H16_4 H 0.0602 0.1453 0.8077
C19_4 C 0.0300(8) 0.2295(6) 0.8029(13)
C20_4 C 0.0928(7) 0.2540(7) 0.8117(12)
C36_4 C 0.0065(8) 0.3131(7) 0.0921(15)
H28_4 H 0.0386 0.3336 0.0609
C39_4 C 0.0173(6) 0.2599(6) 0.1154(12)
C42_4 C 0.0774(6) 0.2321(5) 0.1005(10)
P1_4 P 0.8380(2) 0.15470(17) 0.7854(3)
C1_4 C 0.8186(7) 0.1487(7) 0.6442(14)
C4_4 C 0.7649(8) 0.1228(6) 0.6097(14)
H4_4 H 0.7404 0.1049 0.6615
C6_4 C 0.8575(8) 0.1750(7) 0.5710(14)
H6_4 H 0.8933 0.1939 0.5920
C7_4 C 0.8369(7) 0.0827(6) 0.8423(12)
C8_4 C 0.9664(7) 0.1484(8) 0.7916(16)
H7_4 H 0.9613 0.1096 0.7818
C9_4 C 0.8407(8) 0.0327(7) 0.7787(12)
H8_4 H 0.8442 0.0344 0.7032
C10_4 C 0.7460(8) 0.1222(6) 0.5045(13)
H9_4 H 0.7080 0.1066 0.4858
C11_4 C 0.8323(10) 0.0792(8) 0.9549(17)
H10_4 H 0.8304 0.1114 0.9984
C12_4 C 0.9161(8) 0.1802(6) 0.7946(12)
C13_4 C 0.7852(7) 0.1459(6) 0.4227(11)
C14_4 C 0.7643(8) 0.1500(8) 0.3081(15)
C15_4 C 0.8381(9) 0.1707(9) 0.4613(15)
H15_4 H 0.8642 0.1866 0.4093
O7_4 O 0.7995(8) 0.1602(7) 0.2345(11)
C17_4 C 0.9190(11) 0.2384(11) 0.802(2)
H17_4 H 0.8837 0.2607 0.8009
C18_4 C 0.9821(8) 0.2637(8) 0.8123(15)
H18_4 H 0.9874 0.3022 0.8247
O1_4 O 0.7800(5) 0.7954(4) 0.1067(9)
H1_4 H 0.7362 0.8048 0.1160
O4_4 O 0.8209(5) 0.9172(5) 0.0936(9)
O5_4 O 0.8988(9) 0.9087(8) 0.2777(14)
H11_4 H 0.9230 0.8944 0.3249
H12_4 H 0.8991 0.9441 0.2660
O6_4 O 0.8337(7) 0.7121(4) 0.2643(9)
H13_4 H 0.8548 0.7410 0.2816
H14_4 H 0.8292 0.6852 0.3096
O12_4 O 0.8249(6) 0.6233(4) 0.1072(8)
C22_4 C 0.8300(8) 0.5854(6) 0.0408(12)
C23_4 C 0.8347(7) 0.5261(7) 0.0718(13)
C25_4 C 0.8362(8) 0.5131(7) 0.1834(13)
H20_4 H 0.8342 0.5421 0.2346
C26_4 C 0.8405(9) 0.4581(8) 0.2176(15)
H21_4 H 0.8516 0.4496 0.2889
C27_4 C 0.8217(7) 0.4254(6) 0.0312(12)
C28_4 C 0.8276(7) 0.4147(6) 0.1416(12)
P2_4 P 0.8279(2) 0.34091(19) 0.1804(3)
C29_4 C 0.8111(7) 0.3354(7) 0.3215(12)
C30_4 C 0.9016(8) 0.3097(6) 0.1588(11)
C31_4 C 0.9494(7) 0.3424(7) 0.1104(14)
H23_4 H 0.9440 0.3803 0.0919
C32_4 C 0.9105(8) 0.2532(7) 0.1931(14)
H24_4 H 0.8791 0.2326 0.2264
C33_4 C 0.7480(10) 0.3353(11) 0.3531(16)
H25_4 H 0.7174 0.3332 0.3000
C34_4 C 0.8531(8) 0.3436(7) 0.4031(12)
H26_4 H 0.8945 0.3484 0.3854
C35_4 C 0.8352(10) 0.3448(8) 0.5121(13)
H27_4 H 0.8649 0.3481 0.5665
C37_4 C 0.9672(8) 0.2303(9) 0.1751(16)
H29_4 H 0.9750 0.1941 0.2015
C38_4 C 0.7316(9) 0.3384(9) 0.4598(16)
H30_4 H 0.6899 0.3386 0.4779
C40_4 C 0.7736(8) 0.3410(7) 0.5397(13)
C41_4 C 0.7535(9) 0.3494(8) 0.6599(15)
O15_4 O 0.7918(9) 0.3579(8) 0.7311(12)
O2_4 O 0.7782(5) 0.7123(4) 0.9488(9)
H2_4 H 0.7338 0.7093 0.9347
C3_4 C 0.8309(7) 0.9756(6) 0.9375(11)
C5_4 C 0.8390(7) 0.9833(6) 0.8306(12)
H5_4 H 0.8440 0.9509 0.7883
O11_4 O 0.8313(6) 0.8784(5) 0.9314(10)
C21_4 C 0.8292(7) 0.9190(7) 0.9925(12)
O13_4 O 0.8401(6) 0.5931(4) 0.9362(9)
C24_4 C 0.8242(6) 0.4820(5) 0.9967(11)
H19_4 H 0.8189 0.4904 0.9232
H22_4 H 0.8162 0.3961 0.9815
C2_3 C 0.1692(7) 0.9756(6) 0.0003(12)
H3_3 H 0.1705 0.9791 0.0759
C2_4 C 0.8308(7) 0.0244(6) 0.0003(12)
H3_4 H 0.8295 0.0209 0.0759
loop_
_geom_bond_atom_site_label_1
_geom_bond_atom_site_label_2
_geom_bond_site_symmetry_1
_geom_bond_site_symmetry_2
H19 C24 1_555 1_555
H21 C26 1_555 1_555
C28 C26 1_555 1_555
P2 C28 1_555 1_555
C29 P2 1_555 1_555
C30 P2 1_555 1_555
C31 C30 1_555 1_555
H23 C31 1_555 1_555
C32 C30 1_555 1_555
H24 C32 1_555 1_555
C33 C29 1_555 1_555
H25 C33 1_555 1_555
C34 C29 1_555 1_555
H26 C34 1_555 1_555
C35 C34 1_555 1_555
H27 C35 1_555 1_555
C36 C31 1_555 1_555
H28 C36 1_555 1_555
C37 C32 1_555 1_555
H29 C37 1_555 1_555
C38 C33 1_555 1_555
H30 C38 1_555 1_555
C39 C36 1_555 1_555
C40 C35 1_555 1_555
C41 C40 1_555 1_555
C42 C39 1_555 1_555
O14 C41 1_555 1_555
O15 C41 1_555 1_555
O16 C42 1_555 1_555
O17 C42 1_555 1_555
O18 P2 1_555 1_555
Zn5 O16 1_555 1_555
Zn6 O14 1_555 1_555
Zn7 O17 1_555 1_555
Zn11 O18 1_555 1_555
C27 C28 1_555 1_555
C37 C39 1_555 1_555
C38 C40 1_555 1_555
Zn4 O2 1_555 1_555
P1 O3 1_555 1_555
H2 O2 1_555 1_555
O3 Zn8 1_555 1_555
C1 P1 1_555 1_555
C4 C1 1_555 1_555
H4 C4 1_555 1_555
C5 C3 1_555 1_555
H5 C5 1_555 1_555
C6 C1 1_555 1_555
H6 C6 1_555 1_555
C7 P1 1_555 1_555
C8 H7 1_555 1_555
C9 C5 1_555 1_555
H8 C9 1_555 1_555
C10 C4 1_555 1_555
H9 C10 1_555 1_555
H10 C11 1_555 1_555
C12 P1 1_555 1_555
C13 C10 1_555 1_555
C14 C13 1_555 1_555
C15 C6 1_555 1_555
H15 C15 1_555 1_555
O7 C14 1_555 1_555
C16 C8 1_555 1_555
H16 C16 1_555 1_555
C17 C12 1_555 1_555
H17 C17 1_555 1_555
C18 C17 1_555 1_555
H18 C18 1_555 1_555
C19 C16 1_555 1_555
C20 C19 1_555 1_555
O8 C20 1_555 1_555
O9 C20 1_555 1_555
O10 C14 1_555 1_555
O11 Zn3 1_555 1_555
O13 Zn4 1_555 1_555
Zn10 O9 1_555 1_555
Zn12 O8 1_555 1_555
Zn13 O10 1_555 1_555
O20 Zn4 1_555 1_555
O21 Zn3 1_555 1_555
O22 Zn4 1_555 1_555
O26 Zn3 1_555 1_555
Zn3 O2 1_555 1_555
C3 C21 1_555 1_555
C7 C9 1_555 1_555
C7 C11 1_555 1_555
C8 C12 1_555 1_555
C13 C15 1_555 1_555
C18 C19 1_555 1_555
O11 C21 1_555 1_555
Zn1 O1 1_555 1_555
Zn2 O1 1_555 1_555
O1 H1 1_555 1_555
O4 Zn1 1_555 1_555
C2 H3 1_555 1_555
O5 Zn1 1_555 1_555
H11 O5 1_555 1_555
H12 O5 1_555 1_555
O6 Zn2 1_555 1_555
H13 O6 1_555 1_555
H14 O6 1_555 1_555
O12 Zn2 1_555 1_555
C22 O12 1_555 1_555
C23 C22 1_555 1_555
C25 C23 1_555 1_555
H20 C25 1_555 1_555
O19 Zn2 1_555 1_555
O23 Zn1 1_555 1_555
O24 Zn1 1_555 1_555
O25 Zn2 1_555 1_555
Zn12 O2_2 1_555 1_555
P1_2 O3_2 1_555 1_555
H2_2 O2_2 1_555 1_555
O3_2 Zn8_2 1_555 1_555
C1_2 P1_2 1_555 1_555
C4_2 C1_2 1_555 1_555
H4_2 C4_2 1_555 1_555
C5_2 C3_2 1_555 1_555
H5_2 C5_2 1_555 1_555
C6_2 C1_2 1_555 1_555
H6_2 C6_2 1_555 1_555
C7_2 P1_2 1_555 1_555
C8_2 H7_2 1_555 1_555
C9_2 C5_2 1_555 1_555
H8_2 C9_2 1_555 1_555
C10_2 C4_2 1_555 1_555
H9_2 C10_2 1_555 1_555
H10_2 C11_2 1_555 1_555
C12_2 P1_2 1_555 1_555
C13_2 C10_2 1_555 1_555
C14_2 C13_2 1_555 1_555
C15_2 C6_2 1_555 1_555
H15_2 C15_2 1_555 1_555
O7_2 C14_2 1_555 1_555
C16_2 C8_2 1_555 1_555
H16_2 C16_2 1_555 1_555
C17_2 C12_2 1_555 1_555
H17_2 C17_2 1_555 1_555
C18_2 C17_2 1_555 1_555
H18_2 C18_2 1_555 1_555
C19_2 C16_2 1_555 1_555
C20_2 C19_2 1_555 1_555
O20 C20_2 1_555 1_555
O21 C20_2 1_555 1_555
O10_2 C14_2 1_555 1_555
O11_2 Zn10 1_555 1_555
O13_2 Zn12 1_555 1_555
Zn13_2 O10_2 1_555 1_555
O22_2 Zn12 1_555 1_555
O26_2 Zn10 1_555 1_555
Zn10 O2_2 1_555 1_555
C3_2 C21_2 1_555 1_555
C7_2 C9_2 1_555 1_555
C7_2 C11_2 1_555 1_555
C8_2 C12_2 1_555 1_555
C13_2 C15_2 1_555 1_555
C18_2 C19_2 1_555 1_555
O11_2 C21_2 1_555 1_555
Zn5 O1_2 1_555 1_555
Zn7 O1_2 1_555 1_555
O1_2 H1_2 1_555 1_555
O4_2 Zn5 1_555 1_555
C2_2 H3_2 1_555 1_555
O5_2 Zn5 1_555 1_555
H11_2 O5_2 1_555 1_555
H12_2 O5_2 1_555 1_555
O6_2 Zn7 1_555 1_555
H13_2 O6_2 1_555 1_555
H14_2 O6_2 1_555 1_555
O12_2 Zn7 1_555 1_555
C22_2 O12_2 1_555 1_555
C23_2 C22_2 1_555 1_555
C25_2 C23_2 1_555 1_555
H20_2 C25_2 1_555 1_555
O19_2 Zn7 1_555 1_555
O23_2 Zn5 1_555 1_555
H19_2 C24_2 1_555 1_555
H21_2 C26_2 1_555 1_555
C28_2 C26_2 1_555 1_555
P2_2 C28_2 1_555 1_555
C29_2 P2_2 1_555 1_555
C30_2 P2_2 1_555 1_555
C31_2 C30_2 1_555 1_555
H23_2 C31_2 1_555 1_555
C32_2 C30_2 1_555 1_555
H24_2 C32_2 1_555 1_555
C33_2 C29_2 1_555 1_555
H25_2 C33_2 1_555 1_555
C34_2 C29_2 1_555 1_555
H26_2 C34_2 1_555 1_555
C35_2 C34_2 1_555 1_555
H27_2 C35_2 1_555 1_555
C36_2 C31_2 1_555 1_555
H28_2 C36_2 1_555 1_555
C37_2 C32_2 1_555 1_555
H29_2 C37_2 1_555 1_555
C38_2 C33_2 1_555 1_555
H30_2 C38_2 1_555 1_555
C39_2 C36_2 1_555 1_555
C40_2 C35_2 1_555 1_555
C41_2 C40_2 1_555 1_555
C42_2 C39_2 1_555 1_555
O14_2 C41_2 1_555 1_555
O15_2 C41_2 1_555 1_555
O24 C42_2 1_555 1_555
O25 C42_2 1_555 1_555
O18_2 P2_2 1_555 1_555
Zn6_2 O14_2 1_555 1_555
Zn11_2 O18_2 1_555 1_555
C27_2 C28_2 1_555 1_555
C37_2 C39_2 1_555 1_555
C38_2 C40_2 1_555 1_555
Zn6 O1_3 1_555 1_555
Zn8 O1_3 1_555 1_555
O1_3 H1_3 1_555 1_555
O4_3 Zn6 1_555 1_555
O5_3 Zn6 1_555 1_555
H11_3 O5_3 1_555 1_555
H12_3 O5_3 1_555 1_555
O6_3 Zn8 1_555 1_555
H13_3 O6_3 1_555 1_555
H14_3 O6_3 1_555 1_555
O12_3 Zn8 1_555 1_555
C22_3 O12_3 1_555 1_555
C23_3 C22_3 1_555 1_555
C25_3 C23_3 1_555 1_555
H20_3 C25_3 1_555 1_555
C26_3 C25_3 1_555 1_555
H21_3 C26_3 1_555 1_555
C28_3 C26_3 1_555 1_555
P2_3 C28_3 1_555 1_555
C29_3 P2_3 1_555 1_555
C30_3 P2_3 1_555 1_555
C31_3 C30_3 1_555 1_555
H23_3 C31_3 1_555 1_555
C32_3 C30_3 1_555 1_555
H24_3 C32_3 1_555 1_555
C33_3 C29_3 1_555 1_555
H25_3 C33_3 1_555 1_555
C34_3 C29_3 1_555 1_555
H26_3 C34_3 1_555 1_555
C35_3 C34_3 1_555 1_555
H27_3 C35_3 1_555 1_555
C37_3 C32_3 1_555 1_555
H29_3 C37_3 1_555 1_555
C38_3 C33_3 1_555 1_555
H30_3 C38_3 1_555 1_555
C40_3 C35_3 1_555 1_555
C41_3 C40_3 1_555 1_555
O23 C41_3 1_555 1_555
O15_3 C41_3 1_555 1_555
O26 P2_3 1_555 1_555
O24_2 Zn6 1_555 1_555
O25_2 Zn8 1_555 1_555
C27_3 C28_3 1_555 1_555
C38_3 C40_3 1_555 1_555
Zn13 O2_3 1_555 1_555
H2_3 O2_3 1_555 1_555
C5_3 C3_3 1_555 1_555
H5_3 C5_3 1_555 1_555
O11_3 Zn11 1_555 1_555
O13_3 Zn13 1_555 1_555
H19_3 C24_3 1_555 1_555
O20_2 Zn13 1_555 1_555
O21_2 Zn11 1_555 1_555
Zn11 O2_3 1_555 1_555
C3_3 C21_3 1_555 1_555
O11_3 C21_3 1_555 1_555
P1_3 O19 1_555 1_555
C1_3 P1_3 1_555 1_555
C4_3 C1_3 1_555 1_555
H4_3 C4_3 1_555 1_555
C6_3 C1_3 1_555 1_555
H6_3 C6_3 1_555 1_555
C7_3 P1_3 1_555 1_555
C8_3 H7_3 1_555 1_555
H8_3 C9_3 1_555 1_555
C10_3 C4_3 1_555 1_555
H9_3 C10_3 1_555 1_555
H10_3 C11_3 1_555 1_555
C12_3 P1_3 1_555 1_555
C13_3 C10_3 1_555 1_555
C14_3 C13_3 1_555 1_555
C15_3 C6_3 1_555 1_555
H15_3 C15_3 1_555 1_555
O7_3 C14_3 1_555 1_555
C17_3 C12_3 1_555 1_555
H17_3 C17_3 1_555 1_555
C18_3 C17_3 1_555 1_555
H18_3 C18_3 1_555 1_555
O22 C14_3 1_555 1_555
C7_3 C9_3 1_555 1_555
C7_3 C11_3 1_555 1_555
C8_3 C12_3 1_555 1_555
C13_3 C15_3 1_555 1_555
H28_3 C36_3 1_555 1_555
C39_3 C36_3 1_555 1_555
C42_3 C39_3 1_555 1_555
O16_2 C42_3 1_555 1_555
O17_2 C42_3 1_555 1_555
Zn6_2 O16_2 1_555 1_555
Zn8_2 O17_2 1_555 1_555
H16_3 C16_3 1_555 1_555
C19_3 C16_3 1_555 1_555
C20_3 C19_3 1_555 1_555
O8_2 C20_3 1_555 1_555
O9_2 C20_3 1_555 1_555
Zn11_2 O9_2 1_555 1_555
Zn13_2 O8_2 1_555 1_555
H16_4 C16_4 1_555 1_555
C19_4 C16_4 1_555 1_555
C20_4 C19_4 1_555 1_555
O20_2 C20_4 1_555 1_555
O21_2 C20_4 1_555 1_555
H28_4 C36_4 1_555 1_555
C39_4 C36_4 1_555 1_555
C42_4 C39_4 1_555 1_555
O24_2 C42_4 1_555 1_555
O25_2 C42_4 1_555 1_555
P1_4 O19_2 1_555 1_555
C1_4 P1_4 1_555 1_555
C4_4 C1_4 1_555 1_555
H4_4 C4_4 1_555 1_555
C6_4 C1_4 1_555 1_555
H6_4 C6_4 1_555 1_555
C7_4 P1_4 1_555 1_555
C8_4 H7_4 1_555 1_555
H8_4 C9_4 1_555 1_555
C10_4 C4_4 1_555 1_555
H9_4 C10_4 1_555 1_555
H10_4 C11_4 1_555 1_555
C12_4 P1_4 1_555 1_555
C13_4 C10_4 1_555 1_555
C14_4 C13_4 1_555 1_555
C15_4 C6_4 1_555 1_555
H15_4 C15_4 1_555 1_555
O7_4 C14_4 1_555 1_555
C17_4 C12_4 1_555 1_555
H17_4 C17_4 1_555 1_555
C18_4 C17_4 1_555 1_555
H18_4 C18_4 1_555 1_555
O22_2 C14_4 1_555 1_555
C7_4 C9_4 1_555 1_555
C7_4 C11_4 1_555 1_555
C8_4 C12_4 1_555 1_555
C13_4 C15_4 1_555 1_555
Zn6_2 O1_4 1_555 1_555
Zn8_2 O1_4 1_555 1_555
O1_4 H1_4 1_555 1_555
O4_4 Zn6_2 1_555 1_555
O5_4 Zn6_2 1_555 1_555
H11_4 O5_4 1_555 1_555
H12_4 O5_4 1_555 1_555
O6_4 Zn8_2 1_555 1_555
H13_4 O6_4 1_555 1_555
H14_4 O6_4 1_555 1_555
O12_4 Zn8_2 1_555 1_555
C22_4 O12_4 1_555 1_555
C23_4 C22_4 1_555 1_555
C25_4 C23_4 1_555 1_555
H20_4 C25_4 1_555 1_555
C26_4 C25_4 1_555 1_555
H21_4 C26_4 1_555 1_555
C28_4 C26_4 1_555 1_555
P2_4 C28_4 1_555 1_555
C29_4 P2_4 1_555 1_555
C30_4 P2_4 1_555 1_555
C31_4 C30_4 1_555 1_555
H23_4 C31_4 1_555 1_555
C32_4 C30_4 1_555 1_555
H24_4 C32_4 1_555 1_555
C33_4 C29_4 1_555 1_555
H25_4 C33_4 1_555 1_555
C34_4 C29_4 1_555 1_555
H26_4 C34_4 1_555 1_555
C35_4 C34_4 1_555 1_555
H27_4 C35_4 1_555 1_555
C37_4 C32_4 1_555 1_555
H29_4 C37_4 1_555 1_555
C38_4 C33_4 1_555 1_555
H30_4 C38_4 1_555 1_555
C40_4 C35_4 1_555 1_555
C41_4 C40_4 1_555 1_555
O23_2 C41_4 1_555 1_555
O15_4 C41_4 1_555 1_555
O26_2 P2_4 1_555 1_555
C27_4 C28_4 1_555 1_555
C38_4 C40_4 1_555 1_555
Zn13_2 O2_4 1_555 1_555
H2_4 O2_4 1_555 1_555
C5_4 C3_4 1_555 1_555
H5_4 C5_4 1_555 1_555
O11_4 Zn11_2 1_555 1_555
O13_4 Zn13_2 1_555 1_555
H19_4 C24_4 1_555 1_555
Zn11_2 O2_4 1_555 1_555
C3_4 C21_4 1_555 1_555
O11_4 C21_4 1_555 1_555
C2_3 H3_3 1_555 1_555
C2_4 H3_4 1_555 1_555

#END
