
###############################################################################
#
# This file contains modified crystal structure data generated from the
# MOF subset of the Cambridge Structural Database (CSD) v543 
# hosted by the Cambridge Crystallographic Data Centre (CCDC).
#
# This work is licensed under the Creative Commons
# Attribution-NonCommercial-ShareAlike 4.0 International License.
# To view a copy of this license, visit
# http://creativecommons.org/licenses/by-nc-sa/4.0/
# or send a letter to
# Creative Commons, PO Box 1866, Mountain View, CA 94042, USA.
#
# CIF created using the CSD Python API on 29 September 2022
# The structure has been converted into the P1 space group
# The structure has a 3D framework
# The original CSD entry JEDJUY is in the triclinic crystal system
# The framework has been calculated to contain at least 10.0% void space
# The void calculation uses a probe of radius 1.32A, grid spacing 0.4
# H atom positions have been added when not included in the experimental data
# Generated hydrogen atom positions removed from atoms on special positions
#
###############################################################################

data_JEDJUY
_chemical_formula_moiety         '(C20 H18 Gd2 K2 O20)n'
_symmetry_cell_setting           triclinic
_symmetry_space_group_name_H-M   'P 1'
_symmetry_Int_Tables_number      1
_space_group_name_Hall           'P 1'
loop_
_symmetry_equiv_pos_site_id
_symmetry_equiv_pos_as_xyz
1 x,y,z
_cell_length_a                   7.1190(10)
_cell_length_b                   8.783(2)
_cell_length_c                   15.067(3)
_cell_angle_alpha                79.61(3)
_cell_angle_beta                 87.52(3)
_cell_angle_gamma                83.21(3)
_cell_volume                     919.903
loop_
_atom_site_label
_atom_site_type_symbol
_atom_site_fract_x
_atom_site_fract_y
_atom_site_fract_z
_atom_site_U_iso_or_equiv
_atom_site_thermal_displace_type
K3 K 0.01373(12) 0.55182(12) 0.12751(6) 0.0277 Uani
O23 O 0.1932(4) 0.3544(4) 0.01776(18) 0.0289 Uani
Gd2 Gd 0.52396(2) 0.39018(2) 0.225094(10) 0.0126 Uani
Gd5 Gd 0.47604(2) 0.60982(2) 0.774906(10) 0.0126 Uani
C11 C 0.1936(5) 0.4945(5) 0.4919(2) 0.0236 Uani
H3 H 0.3246 0.4912 0.4861 0.0280 Uiso
C12 C 0.0921(5) 0.4663(5) 0.4215(2) 0.0198 Uani
C13 C 0.1044(5) 0.5276(5) 0.5709(2) 0.0203 Uani
C14 C 0.2078(5) 0.4292(5) 0.3400(2) 0.0195 Uani
C15 C 0.2220(5) 0.5586(5) 0.6446(2) 0.0193 Uani
O12 O 0.2877(4) 0.2936(3) 0.34228(17) 0.0236 Uani
O13 O 0.2391(4) 0.5378(3) 0.27620(17) 0.0218 Uani
O14 O 0.1459(4) 0.5918(3) 0.71631(16) 0.0212 Uani
O16 O 0.8541(4) 0.4082(3) 0.28369(16) 0.0212 Uani
O17 O 0.3980(4) 0.5528(4) 0.63079(19) 0.0344 Uani
O19 O 0.6020(4) 0.4472(4) 0.36921(19) 0.0344 Uani
O21 O 0.3200(4) 0.2701(3) 0.15227(16) 0.0195 Uani
O28 O 0.4156(4) 0.5956(3) 0.08583(17) 0.0207 Uani
O31 O 0.3938(4) 0.3426(3) 0.81896(18) 0.0251 Uani
O32 O 0.6062(4) 0.6574(3) 0.18104(18) 0.0251 Uani
O34 O 0.6704(5) 0.1350(4) 0.2775(2) 0.0387 Uani
O35 O 0.2692(4) 0.6562(3) 0.90260(17) 0.0235 Uani
O36 O 0.7308(4) 0.3438(3) 0.09740(17) 0.0235 Uani
O38 O 0.0089(17) 0.8204(9) 0.2303(6) 0.1820 Uani
H7 H 0.0295057 0.214472 0.705804 . .
H8 H 0.0826105 0.0915357 0.797536 . .
H11 H 0.0852996 0.785837 0.285389 . .
H12 H 0.0633018 0.908857 0.191271 . .
C17 C 0.2986(5) 0.2621(4) 0.0703(2) 0.0169 Uani
C18 C 0.4103(5) 0.1273(4) 0.0351(2) 0.0161 Uani
K8 K 0.98627(12) 0.44818(12) 0.87249(6) 0.0277 Uani
C16 C 0.4880(5) 0.1493(4) 0.9468(2) 0.0145 Uani
C19 C 0.5762(5) 0.0209(4) 0.9127(2) 0.0180 Uani
H4 H 0.6266 0.0346 0.8542 0.0220 Uiso
C20 C 0.4877(5) 0.3080(4) 0.8910(2) 0.0164 Uani
O26 O 0.5844(4) 0.4044(3) 0.91417(17) 0.0207 Uani
C6 C 0.5120(5) 0.8507(4) 0.0532(2) 0.0145 Uani
C9 C 0.4238(5) 0.9791(4) 0.0873(2) 0.0180 Uani
H2 H 0.3734 0.9654 0.1458 0.0220 Uiso
C10 C 0.5123(5) 0.6920(4) 0.1090(2) 0.0164 Uani
C1 C 0.8064(5) 0.5055(5) 0.5081(2) 0.0236 Uani
H1 H 0.6754 0.5088 0.5139 0.0280 Uiso
C2 C 0.9079(5) 0.5337(5) 0.5785(2) 0.0198 Uani
C3 C 0.8956(5) 0.4724(5) 0.4291(2) 0.0203 Uani
C4 C 0.7922(5) 0.5708(5) 0.6600(2) 0.0195 Uani
C5 C 0.7780(5) 0.4414(5) 0.3554(2) 0.0193 Uani
C7 C 0.7014(5) 0.7379(4) 0.9297(2) 0.0169 Uani
C8 C 0.5897(5) 0.8727(4) 0.9649(2) 0.0161 Uani
O1 O 0.7123(4) 0.7064(3) 0.65772(17) 0.0236 Uani
O2 O 0.7609(4) 0.4622(3) 0.72380(17) 0.0218 Uani
O5 O 0.6800(4) 0.7299(3) 0.84773(16) 0.0195 Uani
O6 O 0.8068(4) 0.6456(4) 0.98224(18) 0.0289 Uani
O9 O 0.3296(5) 0.8650(4) 0.7225(2) 0.0387 Uani
O11 O 0.9911(17) 0.1796(9) 0.7697(6) 0.1820 Uani
H7_2 H 0.970494 0.785528 0.294196 . .
H8_2 H 0.917389 0.908464 0.202464 . .
H11_2 H 0.9147 0.214163 0.714611 . .
H12_2 H 0.936698 0.0911431 0.808729 . .
loop_
_atom_site_aniso_label
_atom_site_aniso_U_11
_atom_site_aniso_U_22
_atom_site_aniso_U_33
_atom_site_aniso_U_23
_atom_site_aniso_U_13
_atom_site_aniso_U_12
K3 0.0219 0.0422 0.0187 -0.0057 -0.0026 -0.0014
O23 0.0362 0.0276 0.0214 -0.0075 -0.0085 0.0102
Gd2 0.01292 0.01652 0.00919 -0.00434 -0.00052 -0.00123
Gd5 0.01292 0.01652 0.00919 -0.00434 -0.00052 -0.00123
C11 0.011 0.045 0.0175 -0.0121 -0.0005 -0.004
C12 0.0148 0.034 0.012 -0.0089 0.0015 -0.0016
C13 0.0143 0.037 0.0121 -0.0097 -0.0016 -0.0048
C14 0.01 0.04 0.0119 -0.0121 -0.0021 -0.0045
C15 0.0144 0.033 0.0123 -0.0076 -0.0021 -0.0035
O12 0.0245 0.0284 0.0188 -0.0082 0.0053 -0.0025
O13 0.0178 0.032 0.0159 -0.0075 0.0022 -0.0003
O14 0.0176 0.0364 0.0119 -0.0102 0.0003 -0.0039
O16 0.0176 0.0364 0.0119 -0.0102 0.0003 -0.0039
O17 0.013 0.074 0.0218 -0.0222 -0.0003 -0.0073
O19 0.013 0.074 0.0218 -0.0222 -0.0003 -0.0073
O21 0.024 0.022 0.0151 -0.0091 0.0007 -0.0047
O28 0.0257 0.0178 0.0201 -0.003 -0.0033 -0.0082
O31 0.0349 0.0221 0.0189 -0.0005 -0.0093 -0.0071
O32 0.0349 0.0221 0.0189 -0.0005 -0.0093 -0.0071
O34 0.0424 0.0254 0.0434 0.0004 -0.0067 0.0089
O35 0.0262 0.0276 0.0168 -0.0072 0.0043 -0.0007
O36 0.0262 0.0276 0.0168 -0.0072 0.0043 -0.0007
O38 0.274 0.071 0.169 0.005 0.081 0.04
C17 0.0182 0.0158 0.0184 -0.0053 -0.0008 -0.0055
C18 0.018 0.017 0.0153 -0.0076 -0.0027 -0.0022
K8 0.0219 0.0422 0.0187 -0.0057 -0.0026 -0.0014
C16 0.0171 0.0141 0.0133 -0.0044 -0.0012 -0.0031
C19 0.0223 0.0193 0.0132 -0.0058 0.0026 -0.0024
C20 0.0203 0.0166 0.0133 -0.0046 0.0021 -0.0035
O26 0.0257 0.0178 0.0201 -0.003 -0.0033 -0.0082
C6 0.0171 0.0141 0.0133 -0.0044 -0.0012 -0.0031
C9 0.0223 0.0193 0.0132 -0.0058 0.0026 -0.0024
C10 0.0203 0.0166 0.0133 -0.0046 0.0021 -0.0035
C1 0.011 0.045 0.0175 -0.0121 -0.0005 -0.004
C2 0.0148 0.034 0.012 -0.0089 0.0015 -0.0016
C3 0.0143 0.037 0.0121 -0.0097 -0.0016 -0.0048
C4 0.01 0.04 0.0119 -0.0121 -0.0021 -0.0045
C5 0.0144 0.033 0.0123 -0.0076 -0.0021 -0.0035
C7 0.0182 0.0158 0.0184 -0.0053 -0.0008 -0.0055
C8 0.018 0.017 0.0153 -0.0076 -0.0027 -0.0022
O1 0.0245 0.0284 0.0188 -0.0082 0.0053 -0.0025
O2 0.0178 0.032 0.0159 -0.0075 0.0022 -0.0003
O5 0.024 0.022 0.0151 -0.0091 0.0007 -0.0047
O6 0.0362 0.0276 0.0214 -0.0075 -0.0085 0.0102
O9 0.0424 0.0254 0.0434 0.0004 -0.0067 0.0089
O11 0.274 0.071 0.169 0.005 0.081 0.04
loop_
_geom_bond_atom_site_label_1
_geom_bond_atom_site_label_2
_geom_bond_site_symmetry_1
_geom_bond_site_symmetry_2
K3 O23 1_555 1_555
Gd2 O12 1_555 1_555
Gd5 O14 1_555 1_555
C11 H3 1_555 1_555
C14 C12 1_555 1_555
C15 C13 1_555 1_555
O12 C14 1_555 1_555
O13 Gd2 1_555 1_555
O16 Gd2 1_555 1_555
O17 Gd5 1_555 1_555
O19 Gd2 1_555 1_555
O21 Gd2 1_555 1_555
O28 Gd2 1_555 1_555
O32 Gd2 1_555 1_555
O34 Gd2 1_555 1_555
O36 Gd2 1_555 1_555
O38 K3 1_555 1_555
Gd5 O31 1_555 1_555
Gd5 O35 1_555 1_555
K3 O13 1_555 1_555
K3 O21 1_555 1_555
K3 O28 1_555 1_555
C11 C12 1_555 1_555
C11 C13 1_555 1_555
C14 O13 1_555 1_555
C15 O14 1_555 1_555
C15 O17 1_555 1_555
O38 H11 1_555 1_555
O38 H12 1_555 1_555
C17 C18 1_555 1_555
O21 C17 1_555 1_555
C17 O23 1_555 1_555
Gd5 O26 1_555 1_555
K8 O26 1_555 1_555
C19 C16 1_555 1_555
H4 C19 1_555 1_555
C20 C16 1_555 1_555
O26 C20 1_555 1_555
C20 O31 1_555 1_555
C9 C6 1_555 1_555
H2 C9 1_555 1_555
C10 C6 1_555 1_555
O28 C10 1_555 1_555
O32 C10 1_555 1_555
Gd5 O1 1_555 1_555
K8 O2 1_555 1_555
C1 H1 1_555 1_555
C2 C1 1_555 1_555
C3 C1 1_555 1_555
C4 C2 1_555 1_555
C5 C3 1_555 1_555
C7 C8 1_555 1_555
O1 C4 1_555 1_555
O2 Gd5 1_555 1_555
O16 C5 1_555 1_555
O19 C5 1_555 1_555
O5 Gd5 1_555 1_555
O6 K8 1_555 1_555
O9 Gd5 1_555 1_555
O11 K8 1_555 1_555
K8 O5 1_555 1_555
C4 O2 1_555 1_555
C7 O5 1_555 1_555
C7 O6 1_555 1_555
O11 H11_2 1_555 1_555
O11 H12_2 1_555 1_555

#END
