
###############################################################################
#
# This file contains modified crystal structure data generated from the
# MOF subset of the Cambridge Structural Database (CSD) v543 
# hosted by the Cambridge Crystallographic Data Centre (CCDC).
#
# This work is licensed under the Creative Commons
# Attribution-NonCommercial-ShareAlike 4.0 International License.
# To view a copy of this license, visit
# http://creativecommons.org/licenses/by-nc-sa/4.0/
# or send a letter to
# Creative Commons, PO Box 1866, Mountain View, CA 94042, USA.
#
# CIF created using the CSD Python API on 29 September 2022
# The structure has been converted into the P1 space group
# The structure has a 3D framework
# The original CSD entry JEDKEJ is in the monoclinic crystal system
# The framework has been calculated to contain at least 10.0% void space
# The void calculation uses a probe of radius 1.32A, grid spacing 0.4
#
###############################################################################

data_JEDKEJ
_chemical_formula_moiety         '(C192 H156 Cr18 Cu12 N84)n'
_symmetry_cell_setting           triclinic
_symmetry_space_group_name_H-M   'P 1'
_symmetry_Int_Tables_number      1
_space_group_name_Hall           'P 1'
loop_
_symmetry_equiv_pos_site_id
_symmetry_equiv_pos_as_xyz
1 x,y,z
_cell_length_a                   18.005(4)
_cell_length_b                   23.732(5)
_cell_length_c                   23.235(5)
_cell_angle_alpha                90
_cell_angle_beta                 90.46(3)
_cell_angle_gamma                90
_cell_volume                     9927.87
loop_
_atom_site_label
_atom_site_type_symbol
_atom_site_fract_x
_atom_site_fract_y
_atom_site_fract_z
Cr4 Cr 0.0000 0.5000 0.5000
Cr1 Cr 0.5000 0.5000 0.5000
Cr3 Cr 0.00741(8) 0.65201(5) 0.85275(6)
Cu1 Cu 0.25687(6) 0.55641(5) 0.40108(5)
Cu2 Cu 0.12266(6) 0.51431(4) 0.70649(4)
Cu3 Cu 0.08781(7) 0.28731(4) 0.49072(4)
C1 C 0.2977(8) 0.4525(6) 0.3341(6)
H1 H 0.3401 0.4525 0.3573
C2 C 0.2913(14) 0.4098(15) 0.2937(12)
H2 H 0.3287 0.3838 0.2862
C3 C 0.2351(17) 0.4101(12) 0.2705(15)
H3 H 0.2257 0.3779 0.2489
C4 C 0.1791(11) 0.4488(9) 0.2686(6)
H4 H 0.1399 0.4457 0.2424
C5 C 0.1839(10) 0.4972(8) 0.3117(5)
C6 C 0.1350(7) 0.5513(8) 0.3270(6)
H5 H 0.1110 0.5657 0.2924
H6 H 0.0966 0.5410 0.3541
C7 C 0.1375(6) 0.6306(7) 0.3816(6)
H7 H 0.1006 0.6110 0.4043
H8 H 0.1123 0.6565 0.3558
C8 C 0.1886(9) 0.6600(7) 0.4181(7)
C9 C 0.1760(11) 0.7157(11) 0.4378(8)
H9 H 0.1344 0.7357 0.4256
C10 C 0.2221(14) 0.7376(8) 0.4720(9)
H10 H 0.2121 0.7741 0.4843
C11 C 0.2858(12) 0.7130(7) 0.4931(6)
H11 H 0.3176 0.7300 0.5195
C12 C 0.2975(9) 0.6560(5) 0.4686(6)
H12 H 0.3409 0.6367 0.4780
C13 C 0.2143(6) 0.6212(5) 0.6958(5)
H13 H 0.1864 0.6346 0.7264
C14 C 0.2669(9) 0.6563(6) 0.6741(8)
H14 H 0.2726 0.6930 0.6875
C15 C 0.3110(9) 0.6349(7) 0.6316(9)
H15 H 0.3487 0.6571 0.6166
C16 C 0.3005(7) 0.5809(8) 0.6106(6)
H16 H 0.3305 0.5671 0.5813
C17 C 0.2426(6) 0.5463(5) 0.6345(5)
C18 C 0.2238(6) 0.4890(5) 0.6158(4)
H17 H 0.1895 0.4904 0.5834
H18 H 0.2682 0.4693 0.6039
C19 C 0.1456(6) 0.4118(4) 0.6495(5)
H19 H 0.1777 0.3796 0.6429
H20 H 0.1179 0.4193 0.6144
C20 C 0.0923(7) 0.3986(4) 0.6978(5)
C21 C 0.0650(9) 0.3459(7) 0.7023(7)
H21 H 0.0788 0.3165 0.6783
C22 C 0.0152(11) 0.3402(5) 0.7456(9)
C24 C 0.0242(6) 0.4356(4) 0.7736(5)
H24 H 0.0112 0.4667 0.7957
C25 C 0.2190(7) 0.2847(5) 0.5691(6)
H25 H 0.1897 0.2588 0.5886
C26 C 0.2865(15) 0.2957(9) 0.5922(14)
H26 H 0.3066 0.2784 0.6247
C27 C 0.3176(14) 0.3331(12) 0.5629(13)
H27 H 0.3624 0.3453 0.5787
C28 C 0.2987(10) 0.3607(6) 0.5103(11)
H28 H 0.3297 0.3864 0.4920
C29 C 0.2263(8) 0.3447(5) 0.4883(7)
C30 C 0.1842(8) 0.3636(5) 0.4357(7)
H29 H 0.1585 0.3986 0.4438
H30 H 0.2186 0.3704 0.4045
C31 C 0.0711(9) 0.3422(5) 0.3831(5)
H31 H 0.0872 0.3459 0.3436
H32 H 0.0549 0.3790 0.3964
C32 C 0.0074(8) 0.3005(5) 0.3866(5)
C37 C 0.3996(5) 0.5172(4) 0.4624(4)
C38 C 0.4471(6) 0.4709(5) 0.5745(5)
C39 C 0.5006(6) 0.5821(5) 0.5341(5)
C40 C 0.1104(5) 0.5115(3) 0.4759(3)
C41 C 0.0271(4) 0.5175(3) 0.5846(4)
C42 C 0.0216(4) 0.4161(3) 0.5136(3)
C43 C 0.0487(5) 0.5950(3) 0.7947(4)
C46 C 0.0828(6) 0.7093(4) 0.8197(4)
C47 C 0.0819(7) 0.6285(4) 0.9150(5)
C48 C 0.0331(5) 0.2075(3) 0.5897(4)
N1 N 0.2497(6) 0.4924(4) 0.3426(3)
N2 N 0.1802(5) 0.5925(5) 0.3508(4)
H37 H 0.2276 0.5942 0.3470
N3 N 0.2515(5) 0.6329(4) 0.4358(4)
N4 N 0.1988(4) 0.5685(3) 0.6769(3)
N5 N 0.1897(4) 0.4598(3) 0.6641(3)
H38 H 0.1957 0.4707 0.6991
N6 N 0.0740(4) 0.4429(3) 0.7304(3)
N7 N 0.1900(5) 0.3069(3) 0.5214(4)
N8 N 0.1326(6) 0.3221(3) 0.4192(4)
H39 H 0.1369 0.2874 0.4295
N9 N 0.0039(5) 0.2691(3) 0.4355(3)
N10 N 0.3461(4) 0.5297(3) 0.4415(4)
N11 N 0.4185(6) 0.4538(5) 0.6146(5)
N12 N 0.4992(7) 0.6252(5) 0.5513(6)
N13 N 0.1693(4) 0.5193(3) 0.4609(3)
N14 N 0.0453(4) 0.5255(3) 0.6315(3)
N15 N 0.0355(4) 0.3700(3) 0.5205(3)
N16 N 0.0753(4) 0.5638(3) 0.7614(3)
N19 N 0.1251(5) 0.7386(4) 0.7995(4)
N20 N 0.1233(7) 0.6177(5) 0.9511(5)
N21 N 0.0543(4) 0.2374(3) 0.5535(3)
Cr4_2 Cr 1.0000 0.5000 0.5000
Cr7 Cr 0.00741(8) 0.84799(5) 0.35275(6)
Cu4 Cu 0.74313(6) 0.44359(5) 0.59892(5)
C49 C 0.7023(8) 0.5475(6) 0.6659(6)
H40 H 0.6599 0.5475 0.6427
C50 C 0.7087(14) 0.5902(15) 0.7063(12)
H41 H 0.6713 0.6162 0.7138
C51 C 0.7649(17) 0.5899(12) 0.7295(15)
H42 H 0.7743 0.6221 0.7511
C52 C 0.8209(11) 0.5512(9) 0.7314(6)
H43 H 0.8601 0.5543 0.7576
C53 C 0.8161(10) 0.5028(8) 0.6883(5)
C54 C 0.8650(7) 0.4487(8) 0.6730(6)
H44 H 0.8890 0.4343 0.7076
H45 H 0.9034 0.4590 0.6459
C55 C 0.8625(6) 0.3694(7) 0.6184(6)
H46 H 0.8994 0.3890 0.5957
H47 H 0.8877 0.3435 0.6442
C56 C 0.8114(9) 0.3400(7) 0.5819(7)
C57 C 0.8240(11) 0.2843(11) 0.5622(8)
H48 H 0.8656 0.2643 0.5744
C58 C 0.7779(14) 0.2624(8) 0.5280(9)
H49 H 0.7879 0.2259 0.5157
C59 C 0.7142(12) 0.2870(7) 0.5069(6)
H50 H 0.6824 0.2700 0.4805
C60 C 0.7025(9) 0.3440(5) 0.5314(6)
H51 H 0.6591 0.3633 0.5220
H61 H 0.0062 0.6952 0.2505
C71 C 0.0089(7) 0.6173(6) 0.2134(6)
H62 H 0.0412 0.6239 0.1831
C81 C 0.0452(11) 0.7061(8) 0.6562(6)
H72 H 0.0423 0.6862 0.6906
C82 C 0.1037(10) 0.7442(9) 0.6459(8)
H73 H 0.1424 0.7472 0.6724
C83 C 0.1043(9) 0.7768(6) 0.5973(7)
H74 H 0.1406 0.8041 0.5916
C84 C 0.0492(7) 0.7677(5) 0.5573(5)
H75 H 0.0497 0.7887 0.5235
C85 C 0.6004(5) 0.4828(4) 0.5376(4)
C86 C 0.5529(6) 0.5291(5) 0.4255(5)
C87 C 0.4994(6) 0.4179(5) 0.4659(5)
C88 C 0.8896(5) 0.4885(3) 0.5241(3)
C93 C 0.0646(7) 0.4077(5) 0.1226(4)
C94 C 0.0685(6) 0.3169(4) 0.2055(4)
C99 C 0.0331(5) 0.2925(3) 0.0897(4)
N22 N 0.7503(6) 0.5076(4) 0.6574(3)
N23 N 0.8198(5) 0.4075(5) 0.6492(4)
H76 H 0.7724 0.4058 0.6530
N24 N 0.7485(5) 0.3671(4) 0.5642(4)
N31 N 0.6539(4) 0.4703(3) 0.5585(4)
N32 N 0.5815(6) 0.5462(5) 0.3854(5)
N33 N 0.5008(7) 0.3748(5) 0.4487(6)
N34 N 0.8307(4) 0.4807(3) 0.5391(3)
N38 N 0.1023(8) 0.4447(5) 0.1119(5)
N39 N 0.1092(6) 0.2979(4) 0.2353(4)
H22 H 0.9938 0.3048 0.7495
C23 C 0.9911(7) 0.3827(6) 0.7866(6)
H23 H 0.9588 0.3761 0.8169
C33 C 0.9548(11) 0.2939(8) 0.3438(6)
H33 H 0.9577 0.3138 0.3094
C34 C 0.8963(10) 0.2558(9) 0.3541(8)
H34 H 0.8576 0.2528 0.3276
C35 C 0.8957(9) 0.2232(6) 0.4027(7)
H35 H 0.8594 0.1959 0.4084
C36 C 0.9508(7) 0.2323(5) 0.4427(5)
H36 H 0.9503 0.2113 0.4765
C44 C 0.9354(7) 0.5923(5) 0.8774(4)
C45 C 0.9315(6) 0.6831(4) 0.7945(4)
N17 N 0.8977(8) 0.5553(5) 0.8881(5)
N18 N 0.8908(6) 0.7021(4) 0.7647(4)
Cr5 Cr 0.99259(8) 0.34799(5) 0.14725(6)
Cr6 Cr 0.99259(8) 0.15201(5) 0.64725(6)
Cu5 Cu 0.87734(6) 0.48569(4) 0.29351(4)
Cu6 Cu 0.91219(7) 0.71269(4) 0.50928(4)
C61 C 0.7857(6) 0.3788(5) 0.3042(5)
H52 H 0.8136 0.3654 0.2736
C62 C 0.7331(9) 0.3437(6) 0.3259(8)
H53 H 0.7274 0.3070 0.3125
C63 C 0.6890(9) 0.3651(7) 0.3684(9)
H54 H 0.6513 0.3429 0.3834
C64 C 0.6995(7) 0.4191(8) 0.3894(6)
H55 H 0.6695 0.4329 0.4187
C65 C 0.7574(6) 0.4537(5) 0.3655(5)
C66 C 0.7762(6) 0.5110(5) 0.3842(4)
H56 H 0.8105 0.5096 0.4166
H57 H 0.7318 0.5307 0.3961
C67 C 0.8544(6) 0.5882(4) 0.3505(5)
H58 H 0.8223 0.6204 0.3571
H59 H 0.8821 0.5807 0.3856
C68 C 0.9077(7) 0.6014(4) 0.3022(5)
C69 C 0.9350(9) 0.6541(7) 0.2977(7)
H60 H 0.9212 0.6835 0.3217
C70 C 0.9848(11) 0.6598(5) 0.2544(9)
C72 C 0.9758(6) 0.5644(4) 0.2264(5)
H63 H 0.9888 0.5333 0.2043
C73 C 0.7810(7) 0.7153(5) 0.4309(6)
H64 H 0.8103 0.7412 0.4114
C74 C 0.7135(15) 0.7043(9) 0.4078(14)
H65 H 0.6934 0.7216 0.3753
C75 C 0.6824(14) 0.6669(12) 0.4371(13)
H66 H 0.6376 0.6547 0.4213
C76 C 0.7013(10) 0.6393(6) 0.4897(11)
H67 H 0.6703 0.6136 0.5080
C77 C 0.7737(8) 0.6553(5) 0.5117(7)
C78 C 0.8158(8) 0.6364(5) 0.5643(7)
H68 H 0.8415 0.6014 0.5562
H69 H 0.7814 0.6296 0.5955
C79 C 0.9289(9) 0.6578(5) 0.6169(5)
H70 H 0.9128 0.6541 0.6564
H71 H 0.9451 0.6210 0.6036
C80 C 0.9926(8) 0.6995(5) 0.6134(5)
C90 C 0.9729(4) 0.4825(3) 0.4154(4)
C91 C 0.9784(4) 0.5839(3) 0.4864(3)
C92 C 0.9513(5) 0.4050(3) 0.2053(4)
C95 C 0.9172(6) 0.2907(4) 0.1803(4)
C96 C 0.9181(7) 0.3715(4) 0.0850(5)
C97 C 0.9669(5) 0.7925(3) 0.4103(4)
C98 C 0.9669(5) 0.7075(3) 0.9103(4)
N25 N 0.8012(4) 0.4315(3) 0.3231(3)
N26 N 0.8103(4) 0.5402(3) 0.3359(3)
H77 H 0.8043 0.5293 0.3009
N27 N 0.9260(4) 0.5571(3) 0.2696(3)
N28 N 0.8100(5) 0.6931(3) 0.4786(4)
N29 N 0.8674(6) 0.6779(3) 0.5808(4)
H78 H 0.8631 0.7126 0.5705
N30 N 0.9961(5) 0.7309(3) 0.5645(3)
N35 N 0.9547(4) 0.4745(3) 0.3685(3)
N36 N 0.9645(4) 0.6300(3) 0.4795(3)
N37 N 0.9247(4) 0.4362(3) 0.2386(3)
N40 N 0.8749(5) 0.2614(4) 0.2005(4)
N41 N 0.8767(7) 0.3823(5) 0.0489(5)
N42 N 0.9457(4) 0.7626(3) 0.4465(3)
Cr2 Cr -0.0000 0.0000 0.0000
C66_2 C 0.2238(6) 0.0110(5) 0.1158(4)
H56_2 H 0.1895 0.0096 0.0834
H57_2 H 0.2682 0.0307 0.1039
C67_2 C 0.1456(6) 0.0882(4) 0.1495(5)
H58_2 H 0.1777 0.1204 0.1429
H59_2 H 0.1179 0.0807 0.1144
C68_2 C 0.0923(7) 0.1014(4) 0.1978(5)
C69_2 C 0.0650(9) 0.1541(7) 0.2023(7)
H60_2 H 0.0788 0.1835 0.1783
C70_2 C 0.0152(11) 0.1598(5) 0.2456(9)
C72_2 C 0.0242(6) 0.0644(4) 0.2736(5)
H63_2 H 0.0112 0.0333 0.2957
C73_2 C 0.2190(7) 0.2153(5) 0.0691(6)
H64_2 H 0.1897 0.2412 0.0886
C74_2 C 0.2865(15) 0.2043(9) 0.0922(14)
H65_2 H 0.3066 0.2216 0.1247
C75_2 C 0.3176(14) 0.1669(12) 0.0629(13)
H66_2 H 0.3624 0.1547 0.0787
C76_2 C 0.2987(10) 0.1393(6) 0.0103(11)
C91_2 C 0.0216(4) 0.0839(3) 0.0136(3)
N26_2 N 0.1897(4) 0.0402(3) 0.1641(3)
H77_2 H 0.1957 0.0293 0.1991
N27_2 N 0.0740(4) 0.0571(3) 0.2304(3)
N28_2 N 0.1900(5) 0.1931(3) 0.0214(4)
N36_2 N 0.0355(4) 0.1300(3) 0.0205(3)
N42_2 N 0.0543(4) 0.2626(3) 0.0535(3)
Cr2_2 Cr 0.0000 0.0000 1.0000
C44_2 C 0.0646(7) 0.0923(5) 0.6226(4)
C45_2 C 0.0685(6) 0.1831(4) 0.7055(4)
N17_2 N 0.1023(8) 0.0553(5) 0.6119(5)
N18_2 N 0.1092(6) 0.2021(4) 0.7353(4)
Cu6_2 Cu 0.08781(7) 0.21269(4) 0.99072(4)
H67_2 H 0.3297 0.1136 0.9920
C77_2 C 0.2263(8) 0.1553(5) 0.9883(7)
C78_2 C 0.1842(8) 0.1364(5) 0.9357(7)
H68_2 H 0.1585 0.1014 0.9438
H69_2 H 0.2186 0.1296 0.9045
C79_2 C 0.0711(9) 0.1578(5) 0.8831(5)
H70_2 H 0.0872 0.1541 0.8436
H71_2 H 0.0549 0.1210 0.8964
C80_2 C 0.0074(8) 0.1995(5) 0.8866(5)
N29_2 N 0.1326(6) 0.1779(3) 0.9192(4)
H78_2 H 0.1369 0.2126 0.9295
N30_2 N 0.0039(5) 0.2309(3) 0.9355(3)
Cr2_3 Cr -0.0000 1.0000 0.0000
C33_2 C 0.0452(11) 0.7939(8) 0.1562(6)
H33_2 H 0.0423 0.8138 0.1906
C34_2 C 0.1037(10) 0.7558(9) 0.1459(8)
H34_2 H 0.1424 0.7528 0.1724
C35_2 C 0.1043(9) 0.7232(6) 0.0973(7)
H35_2 H 0.1406 0.6959 0.0916
C36_2 C 0.0492(7) 0.7323(5) 0.0573(5)
H36_2 H 0.0497 0.7113 0.0235
Cu5_2 Cu 0.12266(6) 0.98569(4) 0.20649(4)
C61_2 C 0.2143(6) 0.8788(5) 0.1958(5)
H52_2 H 0.1864 0.8654 0.2264
C62_2 C 0.2669(9) 0.8437(6) 0.1741(8)
H53_2 H 0.2726 0.8070 0.1875
C63_2 C 0.3110(9) 0.8651(7) 0.1316(9)
H54_2 H 0.3487 0.8429 0.1166
C64_2 C 0.3005(7) 0.9191(8) 0.1106(6)
H55_2 H 0.3305 0.9329 0.0813
C65_2 C 0.2426(6) 0.9537(5) 0.1345(5)
C90_2 C 0.0271(4) 0.9825(3) 0.0846(4)
C92_2 C 0.0487(5) 0.9050(3) 0.2947(4)
C95_2 C 0.0828(6) 0.7907(4) 0.3197(4)
C96_2 C 0.0819(7) 0.8715(4) 0.4150(5)
N25_2 N 0.1988(4) 0.9315(3) 0.1769(3)
N35_2 N 0.0453(4) 0.9745(3) 0.1315(3)
N37_2 N 0.0753(4) 0.9362(3) 0.2614(3)
N40_2 N 0.1251(5) 0.7614(4) 0.2995(4)
N41_2 N 0.1233(7) 0.8823(5) 0.4511(5)
Cr2_4 Cr 0.0000 1.0000 1.0000
H22_2 H 0.0062 0.8048 0.7505
C23_2 C 0.0089(7) 0.8827(6) 0.7134(6)
H23_2 H 0.0412 0.8761 0.6831
C89 C 0.1104(5) 0.9885(3) 0.9759(3)
Cr1_2 Cr 0.5000 0.0000 0.0000
Cr2_5 Cr 1.0000 0.0000 0.0000
Cu1_2 Cu 0.74313(6) 0.05641(5) 0.09892(5)
C6_2 C 0.8650(7) 0.0513(8) 0.1730(6)
H5_2 H 0.8890 0.0657 0.2076
H6_2 H 0.9034 0.0410 0.1459
C7_2 C 0.8625(6) 0.1306(7) 0.1184(6)
H7_2 H 0.8994 0.1110 0.0957
H8_2 H 0.8877 0.1565 0.1442
C8_2 C 0.8114(9) 0.1600(7) 0.0819(7)
C9_2 C 0.8240(11) 0.2157(11) 0.0622(8)
H9_2 H 0.8656 0.2357 0.0744
C10_2 C 0.7779(14) 0.2376(8) 0.0280(9)
H10_2 H 0.7879 0.2741 0.0157
C11_2 C 0.7142(12) 0.2130(7) 0.0069(6)
C12_2 C 0.7025(9) 0.1560(5) 0.0314(6)
H12_2 H 0.6591 0.1367 0.0220
C37_2 C 0.6004(5) 0.0172(4) 0.0376(4)
C40_2 C 0.8896(5) 0.0115(3) 0.0241(3)
N2_2 N 0.8198(5) 0.0925(5) 0.1492(4)
H37_2 H 0.7724 0.0942 0.1530
N3_2 N 0.7485(5) 0.1329(4) 0.0642(4)
N10_2 N 0.6539(4) 0.0297(3) 0.0585(4)
N13_2 N 0.8307(4) 0.0193(3) 0.0391(3)
H61_2 H 0.9938 0.1952 0.2495
C71_2 C 0.9911(7) 0.1173(6) 0.2866(6)
H62_2 H 0.9588 0.1239 0.3169
C86_2 C 0.4471(6) 0.0291(5) 0.0745(5)
N32_2 N 0.4185(6) 0.0462(5) 0.1146(5)
Cr1_3 Cr 0.5000 0.0000 1.0000
Cr2_6 Cr 1.0000 0.0000 1.0000
Cu2_2 Cu 0.87734(6) 0.01431(4) 0.79351(4)
H11_2 H 0.6824 0.2300 0.9805
C13_2 C 0.7857(6) 0.1212(5) 0.8042(5)
H13_2 H 0.8136 0.1346 0.7736
C14_2 C 0.7331(9) 0.1563(6) 0.8259(8)
H14_2 H 0.7274 0.1930 0.8125
C15_2 C 0.6890(9) 0.1349(7) 0.8684(9)
H15_2 H 0.6513 0.1571 0.8834
C16_2 C 0.6995(7) 0.0809(8) 0.8894(6)
H16_2 H 0.6695 0.0671 0.9187
C17_2 C 0.7574(6) 0.0463(5) 0.8655(5)
C39_2 C 0.4994(6) 0.0821(5) 0.9659(5)
C41_2 C 0.9729(4) 0.0175(3) 0.9154(4)
C43_2 C 0.9513(5) 0.0950(3) 0.7053(4)
C46_2 C 0.9172(6) 0.2093(4) 0.6803(4)
C47_2 C 0.9181(7) 0.1285(4) 0.5850(5)
N4_2 N 0.8012(4) 0.0685(3) 0.8231(3)
N12_2 N 0.5008(7) 0.1252(5) 0.9487(6)
N14_2 N 0.9547(4) 0.0255(3) 0.8685(3)
N16_2 N 0.9247(4) 0.0638(3) 0.7386(3)
N19_2 N 0.8749(5) 0.2386(4) 0.7005(4)
N20_2 N 0.8767(7) 0.1177(5) 0.5489(5)
C49_2 C 0.2977(8) 0.0475(6) 0.8341(6)
H40_2 H 0.3401 0.0475 0.8573
C50_2 C 0.2913(14) 0.0902(15) 0.7937(12)
H41_2 H 0.3287 0.1162 0.7862
C51_2 C 0.2351(17) 0.0899(12) 0.7705(15)
H42_2 H 0.2257 0.1221 0.7489
C52_2 C 0.1791(11) 0.0512(9) 0.7686(6)
H43_2 H 0.1399 0.0543 0.7424
C53_2 C 0.1839(10) 0.0028(8) 0.8117(5)
C81_2 C 0.9548(11) 0.2061(8) 0.8438(6)
H72_2 H 0.9577 0.1862 0.8094
C82_2 C 0.8963(10) 0.2442(9) 0.8541(8)
H73_2 H 0.8576 0.2472 0.8276
C83_2 C 0.8957(9) 0.2768(6) 0.9027(7)
H74_2 H 0.8594 0.3041 0.9084
C84_2 C 0.9508(7) 0.2677(5) 0.9427(5)
H75_2 H 0.9503 0.2887 0.9765
N22_2 N 0.2497(6) 0.0076(4) 0.8426(3)
Cr1_4 Cr 0.5000 1.0000 0.0000
Cr2_7 Cr 1.0000 1.0000 0.0000
Cu3_2 Cu 0.91219(7) 0.78731(4) 0.00928(4)
C1_2 C 0.7023(8) 0.9525(6) 0.1659(6)
H1_2 H 0.6599 0.9525 0.1427
C2_2 C 0.7087(14) 0.9098(15) 0.2063(12)
H2_2 H 0.6713 0.8838 0.2138
C3_2 C 0.7649(17) 0.9101(12) 0.2295(15)
H3_2 H 0.7743 0.8779 0.2511
C4_2 C 0.8209(11) 0.9488(9) 0.2314(6)
H4_2 H 0.8601 0.9457 0.2576
C5_2 C 0.8161(10) 0.9972(8) 0.1883(5)
H28_2 H 0.6703 0.8864 0.0080
C29_2 C 0.7737(8) 0.8447(5) 0.0117(7)
C30_2 C 0.8158(8) 0.8636(5) 0.0643(7)
H29_2 H 0.8415 0.8986 0.0562
H30_2 H 0.7814 0.8704 0.0955
C31_2 C 0.9289(9) 0.8422(5) 0.1169(5)
H31_2 H 0.9128 0.8459 0.1564
H32_2 H 0.9451 0.8790 0.1036
C32_2 C 0.9926(8) 0.8005(5) 0.1134(5)
N1_2 N 0.7503(6) 0.9924(4) 0.1574(3)
N8_2 N 0.8674(6) 0.8221(3) 0.0808(4)
H39_2 H 0.8631 0.7874 0.0705
N9_2 N 0.9961(5) 0.7691(3) 0.0645(3)
H50_2 H 0.3176 0.7700 0.0195
C87_2 C 0.5006(6) 0.9179(5) 0.0341(5)
C93_2 C 0.9354(7) 0.9077(5) 0.3774(4)
C94_2 C 0.9315(6) 0.8169(4) 0.2945(4)
N33_2 N 0.4992(7) 0.8748(5) 0.0513(6)
N38_2 N 0.8977(8) 0.9447(5) 0.3881(5)
N39_2 N 0.8908(6) 0.7979(4) 0.2647(4)
Cr1_5 Cr 0.5000 1.0000 1.0000
Cr2_8 Cr 1.0000 1.0000 1.0000
C18_2 C 0.7762(6) 0.9890(5) 0.8842(4)
H17_2 H 0.8105 0.9904 0.9166
H18_2 H 0.7318 0.9693 0.8961
C19_2 C 0.8544(6) 0.9118(4) 0.8505(5)
H19_2 H 0.8223 0.8796 0.8571
H20_2 H 0.8821 0.9193 0.8856
C20_2 C 0.9077(7) 0.8986(4) 0.8022(5)
C21_2 C 0.9350(9) 0.8459(7) 0.7977(7)
H21_2 H 0.9212 0.8165 0.8217
C22_2 C 0.9848(11) 0.8402(5) 0.7544(9)
C24_2 C 0.9758(6) 0.9356(4) 0.7264(5)
H24_2 H 0.9888 0.9667 0.7043
C25_2 C 0.7810(7) 0.7847(5) 0.9309(6)
H25_2 H 0.8103 0.7588 0.9114
C26_2 C 0.7135(15) 0.7957(9) 0.9078(14)
H26_2 H 0.6934 0.7784 0.8753
C27_2 C 0.6824(14) 0.8331(12) 0.9371(13)
H27_2 H 0.6376 0.8453 0.9213
C28_2 C 0.7013(10) 0.8607(6) 0.9897(11)
C38_2 C 0.5529(6) 0.9709(5) 0.9255(5)
C42_2 C 0.9784(4) 0.9161(3) 0.9864(3)
N5_2 N 0.8103(4) 0.9598(3) 0.8359(3)
H38_2 H 0.8043 0.9707 0.8009
N6_2 N 0.9260(4) 0.9429(3) 0.7696(3)
N7_2 N 0.8100(5) 0.8069(3) 0.9786(4)
N11_2 N 0.5815(6) 0.9538(5) 0.8854(5)
N15_2 N 0.9645(4) 0.8700(3) 0.9795(3)
N21_2 N 0.9457(4) 0.7374(3) 0.9465(3)
Cu4_2 Cu 0.25687(6) 0.94359(5) 0.90108(5)
C54_2 C 0.1350(7) 0.9487(8) 0.8270(6)
H44_2 H 0.1110 0.9343 0.7924
H45_2 H 0.0966 0.9590 0.8541
C55_2 C 0.1375(6) 0.8694(7) 0.8816(6)
H46_2 H 0.1006 0.8890 0.9043
H47_2 H 0.1123 0.8435 0.8558
C56_2 C 0.1886(9) 0.8400(7) 0.9181(7)
C57_2 C 0.1760(11) 0.7843(11) 0.9378(8)
H48_2 H 0.1344 0.7643 0.9256
C58_2 C 0.2221(14) 0.7624(8) 0.9720(9)
H49_2 H 0.2121 0.7259 0.9843
C59_2 C 0.2858(12) 0.7870(7) 0.9931(6)
C60_2 C 0.2975(9) 0.8440(5) 0.9686(6)
H51_2 H 0.3409 0.8633 0.9780
C85_2 C 0.3996(5) 0.9828(4) 0.9624(4)
N23_2 N 0.1802(5) 0.9075(5) 0.8508(4)
H76_2 H 0.2276 0.9058 0.8470
N24_2 N 0.2515(5) 0.8671(4) 0.9358(4)
N31_2 N 0.3461(4) 0.9703(3) 0.9415(4)
N34_2 N 0.1693(4) 0.9807(3) 0.9609(3)
loop_
_geom_bond_atom_site_label_1
_geom_bond_atom_site_label_2
_geom_bond_site_symmetry_1
_geom_bond_site_symmetry_2
Cr1 C37 1_555 1_555
Cr4 C40 1_555 1_555
Cr3 C43 1_555 1_555
Cu1 N1 1_555 1_555
Cu2 N4 1_555 1_555
Cu3 N7 1_555 1_555
C1 H1 1_555 1_555
C2 C1 1_555 1_555
H2 C2 1_555 1_555
C3 C2 1_555 1_555
H3 C3 1_555 1_555
C4 C3 1_555 1_555
H4 C4 1_555 1_555
C5 C4 1_555 1_555
C6 C5 1_555 1_555
H5 C6 1_555 1_555
H6 C6 1_555 1_555
C7 H7 1_555 1_555
H8 C7 1_555 1_555
C8 C7 1_555 1_555
C9 C8 1_555 1_555
H9 C9 1_555 1_555
C10 C9 1_555 1_555
H10 C10 1_555 1_555
C11 C10 1_555 1_555
H11 C11 1_555 1_555
C12 C11 1_555 1_555
H12 C12 1_555 1_555
C13 H13 1_555 1_555
C14 C13 1_555 1_555
H14 C14 1_555 1_555
C15 C14 1_555 1_555
H15 C15 1_555 1_555
C16 C15 1_555 1_555
H16 C16 1_555 1_555
C17 C16 1_555 1_555
C18 C17 1_555 1_555
H17 C18 1_555 1_555
H18 C18 1_555 1_555
C19 H19 1_555 1_555
H20 C19 1_555 1_555
C20 C19 1_555 1_555
C21 C20 1_555 1_555
H21 C21 1_555 1_555
C22 C21 1_555 1_555
H24 C24 1_555 1_555
C25 H25 1_555 1_555
C26 C25 1_555 1_555
H26 C26 1_555 1_555
C27 C26 1_555 1_555
H27 C27 1_555 1_555
C28 C27 1_555 1_555
H28 C28 1_555 1_555
C29 C28 1_555 1_555
C30 C29 1_555 1_555
H29 C30 1_555 1_555
H30 C30 1_555 1_555
C31 H31 1_555 1_555
H32 C31 1_555 1_555
C32 C31 1_555 1_555
C37 N10 1_555 1_555
C38 Cr1 1_555 1_555
C39 Cr1 1_555 1_555
C40 N13 1_555 1_555
C41 Cr4 1_555 1_555
C42 Cr4 1_555 1_555
C43 N16 1_555 1_555
C46 Cr3 1_555 1_555
C47 Cr3 1_555 1_555
C48 N21 1_555 1_555
N1 C1 1_555 1_555
N2 Cu1 1_555 1_555
H37 N2 1_555 1_555
N3 Cu1 1_555 1_555
N4 C13 1_555 1_555
N5 Cu2 1_555 1_555
H38 N5 1_555 1_555
N6 Cu2 1_555 1_555
N7 C25 1_555 1_555
N8 Cu3 1_555 1_555
H39 N8 1_555 1_555
N9 Cu3 1_555 1_555
N10 Cu1 1_555 1_555
N11 C38 1_555 1_555
N12 C39 1_555 1_555
N13 Cu1 1_555 1_555
N14 Cu2 1_555 1_555
N15 Cu3 1_555 1_555
N16 Cu2 1_555 1_555
N19 C46 1_555 1_555
N20 C47 1_555 1_555
N21 Cu3 1_555 1_555
Cr4_2 C88 1_555 1_555
Cu4 N22 1_555 1_555
C49 H40 1_555 1_555
C50 C49 1_555 1_555
H41 C50 1_555 1_555
C51 C50 1_555 1_555
H42 C51 1_555 1_555
C52 C51 1_555 1_555
H43 C52 1_555 1_555
C53 C52 1_555 1_555
C54 C53 1_555 1_555
H44 C54 1_555 1_555
H45 C54 1_555 1_555
C55 H46 1_555 1_555
H47 C55 1_555 1_555
C56 C55 1_555 1_555
C57 C56 1_555 1_555
H48 C57 1_555 1_555
C58 C57 1_555 1_555
H49 C58 1_555 1_555
C59 C58 1_555 1_555
H50 C59 1_555 1_555
C60 C59 1_555 1_555
H51 C60 1_555 1_555
H62 C71 1_555 1_555
H72 C81 1_555 1_555
C82 C81 1_555 1_555
H73 C82 1_555 1_555
C83 C82 1_555 1_555
H74 C83 1_555 1_555
C84 C83 1_555 1_555
H75 C84 1_555 1_555
C85 Cr1 1_555 1_555
C86 Cr1 1_555 1_555
C87 Cr1 1_555 1_555
C88 N34 1_555 1_555
N22 C49 1_555 1_555
N23 Cu4 1_555 1_555
H76 N23 1_555 1_555
N24 Cu4 1_555 1_555
N31 Cu4 1_555 1_555
N32 C86 1_555 1_555
N33 C87 1_555 1_555
N34 Cu4 1_555 1_555
N38 C93 1_555 1_555
N39 C94 1_555 1_555
C5 N1 1_555 1_555
C6 N2 1_555 1_555
C7 N2 1_555 1_555
C8 N3 1_555 1_555
C12 N3 1_555 1_555
C17 N4 1_555 1_555
C18 N5 1_555 1_555
C19 N5 1_555 1_555
C20 N6 1_555 1_555
C24 N6 1_555 1_555
C29 N7 1_555 1_555
C30 N8 1_555 1_555
C31 N8 1_555 1_555
C32 N9 1_555 1_555
C41 N14 1_555 1_555
C42 N15 1_555 1_555
C53 N22 1_555 1_555
C54 N23 1_555 1_555
C55 N23 1_555 1_555
C56 N24 1_555 1_555
C60 N24 1_555 1_555
C85 N31 1_555 1_555
H23 C23 1_555 1_555
H33 C33 1_555 1_555
C34 C33 1_555 1_555
H34 C34 1_555 1_555
C35 C34 1_555 1_555
H35 C35 1_555 1_555
C36 C35 1_555 1_555
H36 C36 1_555 1_555
N17 C44 1_555 1_555
N18 C45 1_555 1_555
Cr5 C92 1_555 1_555
Cu5 N25 1_555 1_555
Cu6 N28 1_555 1_555
C61 H52 1_555 1_555
C62 C61 1_555 1_555
H53 C62 1_555 1_555
C63 C62 1_555 1_555
H54 C63 1_555 1_555
C64 C63 1_555 1_555
H55 C64 1_555 1_555
C65 C64 1_555 1_555
C66 C65 1_555 1_555
H56 C66 1_555 1_555
H57 C66 1_555 1_555
C67 H58 1_555 1_555
H59 C67 1_555 1_555
C68 C67 1_555 1_555
C69 C68 1_555 1_555
H60 C69 1_555 1_555
C70 C69 1_555 1_555
H63 C72 1_555 1_555
C73 H64 1_555 1_555
C74 C73 1_555 1_555
H65 C74 1_555 1_555
C75 C74 1_555 1_555
H66 C75 1_555 1_555
C76 C75 1_555 1_555
H67 C76 1_555 1_555
C77 C76 1_555 1_555
C78 C77 1_555 1_555
H68 C78 1_555 1_555
H69 C78 1_555 1_555
C79 H70 1_555 1_555
H71 C79 1_555 1_555
C80 C79 1_555 1_555
C90 Cr4_2 1_555 1_555
C91 Cr4_2 1_555 1_555
C92 N37 1_555 1_555
C95 Cr5 1_555 1_555
C96 Cr5 1_555 1_555
C97 N42 1_555 1_555
N25 C61 1_555 1_555
N26 Cu5 1_555 1_555
H77 N26 1_555 1_555
N27 Cu5 1_555 1_555
N28 C73 1_555 1_555
N29 Cu6 1_555 1_555
H78 N29 1_555 1_555
N30 Cu6 1_555 1_555
N35 Cu5 1_555 1_555
N36 Cu6 1_555 1_555
N37 Cu5 1_555 1_555
N40 C95 1_555 1_555
N41 C96 1_555 1_555
N42 Cu6 1_555 1_555
C65 N25 1_555 1_555
C66 N26 1_555 1_555
C67 N26 1_555 1_555
C68 N27 1_555 1_555
C72 N27 1_555 1_555
C77 N28 1_555 1_555
C78 N29 1_555 1_555
C79 N29 1_555 1_555
C80 N30 1_555 1_555
C90 N35 1_555 1_555
C91 N36 1_555 1_555
H56_2 C66_2 1_555 1_555
H57_2 C66_2 1_555 1_555
C67_2 H58_2 1_555 1_555
H59_2 C67_2 1_555 1_555
C68_2 C67_2 1_555 1_555
C69_2 C68_2 1_555 1_555
H60_2 C69_2 1_555 1_555
C70_2 C69_2 1_555 1_555
H63_2 C72_2 1_555 1_555
C73_2 H64_2 1_555 1_555
C74_2 C73_2 1_555 1_555
H65_2 C74_2 1_555 1_555
C75_2 C74_2 1_555 1_555
H66_2 C75_2 1_555 1_555
C76_2 C75_2 1_555 1_555
C91_2 Cr2 1_555 1_555
C99 N42_2 1_555 1_555
H77_2 N26_2 1_555 1_555
N28_2 C73_2 1_555 1_555
C66_2 N26_2 1_555 1_555
C67_2 N26_2 1_555 1_555
C68_2 N27_2 1_555 1_555
C72_2 N27_2 1_555 1_555
C91_2 N36_2 1_555 1_555
N17_2 C44_2 1_555 1_555
N18_2 C45_2 1_555 1_555
C78_2 C77_2 1_555 1_555
H68_2 C78_2 1_555 1_555
H69_2 C78_2 1_555 1_555
C79_2 H70_2 1_555 1_555
H71_2 C79_2 1_555 1_555
C80_2 C79_2 1_555 1_555
N29_2 Cu6_2 1_555 1_555
H78_2 N29_2 1_555 1_555
N30_2 Cu6_2 1_555 1_555
C78_2 N29_2 1_555 1_555
C79_2 N29_2 1_555 1_555
C80_2 N30_2 1_555 1_555
H33_2 C33_2 1_555 1_555
C34_2 C33_2 1_555 1_555
H34_2 C34_2 1_555 1_555
C35_2 C34_2 1_555 1_555
H35_2 C35_2 1_555 1_555
C36_2 C35_2 1_555 1_555
H36_2 C36_2 1_555 1_555
Cr7 C92_2 1_555 1_555
Cu5_2 N25_2 1_555 1_555
C61_2 H52_2 1_555 1_555
C62_2 C61_2 1_555 1_555
H53_2 C62_2 1_555 1_555
C63_2 C62_2 1_555 1_555
H54_2 C63_2 1_555 1_555
C64_2 C63_2 1_555 1_555
H55_2 C64_2 1_555 1_555
C65_2 C64_2 1_555 1_555
C90_2 Cr2_3 1_555 1_555
C92_2 N37_2 1_555 1_555
C95_2 Cr7 1_555 1_555
C96_2 Cr7 1_555 1_555
N25_2 C61_2 1_555 1_555
N35_2 Cu5_2 1_555 1_555
N37_2 Cu5_2 1_555 1_555
N40_2 C95_2 1_555 1_555
N41_2 C96_2 1_555 1_555
C65_2 N25_2 1_555 1_555
C90_2 N35_2 1_555 1_555
H23_2 C23_2 1_555 1_555
C89 Cr2_4 1_555 1_555
Cr1_2 C37_2 1_555 1_555
Cr2_5 C40_2 1_555 1_555
H5_2 C6_2 1_555 1_555
H6_2 C6_2 1_555 1_555
C7_2 H7_2 1_555 1_555
H8_2 C7_2 1_555 1_555
C8_2 C7_2 1_555 1_555
C9_2 C8_2 1_555 1_555
H9_2 C9_2 1_555 1_555
C10_2 C9_2 1_555 1_555
H10_2 C10_2 1_555 1_555
C11_2 C10_2 1_555 1_555
C12_2 C11_2 1_555 1_555
H12_2 C12_2 1_555 1_555
C37_2 N10_2 1_555 1_555
C40_2 N13_2 1_555 1_555
N2_2 Cu1_2 1_555 1_555
H37_2 N2_2 1_555 1_555
N3_2 Cu1_2 1_555 1_555
N10_2 Cu1_2 1_555 1_555
N13_2 Cu1_2 1_555 1_555
H62_2 C71_2 1_555 1_555
C86_2 Cr1_2 1_555 1_555
N32_2 C86_2 1_555 1_555
C6_2 N2_2 1_555 1_555
C7_2 N2_2 1_555 1_555
C8_2 N3_2 1_555 1_555
C12_2 N3_2 1_555 1_555
Cr6 C43_2 1_555 1_555
Cu2_2 N4_2 1_555 1_555
C13_2 H13_2 1_555 1_555
C14_2 C13_2 1_555 1_555
H14_2 C14_2 1_555 1_555
C15_2 C14_2 1_555 1_555
H15_2 C15_2 1_555 1_555
C16_2 C15_2 1_555 1_555
H16_2 C16_2 1_555 1_555
C17_2 C16_2 1_555 1_555
C39_2 Cr1_3 1_555 1_555
C41_2 Cr2_6 1_555 1_555
C43_2 N16_2 1_555 1_555
C46_2 Cr6 1_555 1_555
C47_2 Cr6 1_555 1_555
N4_2 C13_2 1_555 1_555
N12_2 C39_2 1_555 1_555
N14_2 Cu2_2 1_555 1_555
N16_2 Cu2_2 1_555 1_555
N19_2 C46_2 1_555 1_555
N20_2 C47_2 1_555 1_555
C49_2 H40_2 1_555 1_555
C50_2 C49_2 1_555 1_555
H41_2 C50_2 1_555 1_555
C51_2 C50_2 1_555 1_555
H42_2 C51_2 1_555 1_555
C52_2 C51_2 1_555 1_555
H43_2 C52_2 1_555 1_555
C53_2 C52_2 1_555 1_555
H72_2 C81_2 1_555 1_555
C82_2 C81_2 1_555 1_555
H73_2 C82_2 1_555 1_555
C83_2 C82_2 1_555 1_555
H74_2 C83_2 1_555 1_555
C84_2 C83_2 1_555 1_555
H75_2 C84_2 1_555 1_555
N22_2 C49_2 1_555 1_555
C17_2 N4_2 1_555 1_555
C41_2 N14_2 1_555 1_555
C53_2 N22_2 1_555 1_555
C1_2 H1_2 1_555 1_555
C2_2 C1_2 1_555 1_555
H2_2 C2_2 1_555 1_555
C3_2 C2_2 1_555 1_555
H3_2 C3_2 1_555 1_555
C4_2 C3_2 1_555 1_555
H4_2 C4_2 1_555 1_555
C5_2 C4_2 1_555 1_555
C30_2 C29_2 1_555 1_555
H29_2 C30_2 1_555 1_555
H30_2 C30_2 1_555 1_555
C31_2 H31_2 1_555 1_555
H32_2 C31_2 1_555 1_555
C32_2 C31_2 1_555 1_555
N1_2 C1_2 1_555 1_555
N8_2 Cu3_2 1_555 1_555
H39_2 N8_2 1_555 1_555
N9_2 Cu3_2 1_555 1_555
C87_2 Cr1_4 1_555 1_555
N33_2 C87_2 1_555 1_555
N38_2 C93_2 1_555 1_555
N39_2 C94_2 1_555 1_555
C5_2 N1_2 1_555 1_555
C30_2 N8_2 1_555 1_555
C31_2 N8_2 1_555 1_555
C32_2 N9_2 1_555 1_555
H17_2 C18_2 1_555 1_555
H18_2 C18_2 1_555 1_555
C19_2 H19_2 1_555 1_555
H20_2 C19_2 1_555 1_555
C20_2 C19_2 1_555 1_555
C21_2 C20_2 1_555 1_555
H21_2 C21_2 1_555 1_555
C22_2 C21_2 1_555 1_555
H24_2 C24_2 1_555 1_555
C25_2 H25_2 1_555 1_555
C26_2 C25_2 1_555 1_555
H26_2 C26_2 1_555 1_555
C27_2 C26_2 1_555 1_555
H27_2 C27_2 1_555 1_555
C28_2 C27_2 1_555 1_555
C38_2 Cr1_5 1_555 1_555
C42_2 Cr2_8 1_555 1_555
C98 N21_2 1_555 1_555
H38_2 N5_2 1_555 1_555
N7_2 C25_2 1_555 1_555
N11_2 C38_2 1_555 1_555
H44_2 C54_2 1_555 1_555
H45_2 C54_2 1_555 1_555
C55_2 H46_2 1_555 1_555
H47_2 C55_2 1_555 1_555
C56_2 C55_2 1_555 1_555
C57_2 C56_2 1_555 1_555
H48_2 C57_2 1_555 1_555
C58_2 C57_2 1_555 1_555
H49_2 C58_2 1_555 1_555
C59_2 C58_2 1_555 1_555
C60_2 C59_2 1_555 1_555
H51_2 C60_2 1_555 1_555
C85_2 Cr1_5 1_555 1_555
C89 N34_2 1_555 1_555
N23_2 Cu4_2 1_555 1_555
H76_2 N23_2 1_555 1_555
N24_2 Cu4_2 1_555 1_555
N31_2 Cu4_2 1_555 1_555
N34_2 Cu4_2 1_555 1_555
C18_2 N5_2 1_555 1_555
C19_2 N5_2 1_555 1_555
C20_2 N6_2 1_555 1_555
C24_2 N6_2 1_555 1_555
C42_2 N15_2 1_555 1_555
C54_2 N23_2 1_555 1_555
C55_2 N23_2 1_555 1_555
C56_2 N24_2 1_555 1_555
C60_2 N24_2 1_555 1_555
C85_2 N31_2 1_555 1_555

#END
