
###############################################################################
#
# This file contains modified crystal structure data generated from the
# MOF subset of the Cambridge Structural Database (CSD) v543 
# hosted by the Cambridge Crystallographic Data Centre (CCDC).
#
# This work is licensed under the Creative Commons
# Attribution-NonCommercial-ShareAlike 4.0 International License.
# To view a copy of this license, visit
# http://creativecommons.org/licenses/by-nc-sa/4.0/
# or send a letter to
# Creative Commons, PO Box 1866, Mountain View, CA 94042, USA.
#
# CIF created using the CSD Python API on 29 September 2022
# The structure has been converted into the P1 space group
# The structure has a 3D framework
# The original CSD entry JEDVOG is in the rhombohedral crystal system
# The framework has been calculated to contain at least 10.0% void space
# The void calculation uses a probe of radius 1.32A, grid spacing 0.4
#
###############################################################################

data_JEDVOG
_chemical_formula_moiety         '(C216 H180 Cd21 Li36 O198)n'
_symmetry_cell_setting           triclinic
_symmetry_space_group_name_H-M   'P 1'
_symmetry_Int_Tables_number      1
_space_group_name_Hall           'P 1'
loop_
_symmetry_equiv_pos_site_id
_symmetry_equiv_pos_as_xyz
1 x,y,z
_cell_length_a                   31.0217(6)
_cell_length_b                   31.0217(6)
_cell_length_c                   16.2941(7)
_cell_angle_alpha                90
_cell_angle_beta                 90
_cell_angle_gamma                120
_cell_volume                     13579.8
loop_
_atom_site_label
_atom_site_type_symbol
_atom_site_fract_x
_atom_site_fract_y
_atom_site_fract_z
Cd1 Cd 0.196539(13) 0.158528(14) 0.66664(3)
Li1 Li 0.2970(4) 0.2543(4) 0.6449(7)
Li2 Li 0.0983(5) 0.1754(5) 0.6892(11)
C1 C 0.1687(3) 0.3902(3) 0.7228(4)
C2 C 0.1900(2) 0.3672(2) 0.6671(4)
C3 C 0.2624(2) 0.3981(2) 0.4663(4)
C4 C 0.1841(2) 0.3218(2) 0.6842(4)
H1 H 0.1650 0.3039 0.7291
C5 C 0.2361(2) 0.3721(2) 0.5457(4)
C6 C 0.2168(2) 0.3924(2) 0.5971(4)
H2 H 0.2214 0.4239 0.5855
C7 C 0.1022(2) 0.0803(2) 0.6628(5)
C8 C 0.2001(2) 0.2515(2) 0.6562(4)
C10 C 0.2063(2) 0.3018(2) 0.6353(4)
C11 C 0.2321(2) 0.3264(2) 0.5668(4)
H4 H 0.2470 0.3129 0.5341
C12 C 0.0490(2) 0.0386(2) 0.6625(5)
O1 O 0.0573(4) 0.1547(4) 0.7851(8)
H5 H 0.0346 0.1622 0.7791
H6 H 0.0442 0.1235 0.7916
O2 O 0.0711(5) 0.1921(5) 0.6062(9)
H7 H 0.0464 0.1946 0.6228
H8 H 0.0935 0.2201 0.5879
O3 O 0.3450(3) 0.3213(2) 0.6221(5)
H9 H 0.3739 0.3255 0.6307
H10 H 0.3425 0.3276 0.5721
O4 O 0.1297(2) 0.3628(2) 0.7592(4)
O5 O 0.22642(18) 0.23820(17) 0.6177(3)
O6 O 0.19312(18) 0.43648(18) 0.7297(3)
O7 O 0.28095(19) 0.3786(2) 0.4248(3)
O8 O 0.11105(18) 0.12374(17) 0.6581(4)
O9 O 0.26340(19) 0.43769(18) 0.4503(3)
O10 O 0.13542(18) 0.0705(2) 0.6716(5)
O11 O 0.17024(17) 0.22556(16) 0.7082(3)
C14 C 0.0097(2) 0.0481(3) 0.6642(5)
H11 H 0.0165 0.0809 0.6666
Cd6 Cd 0.295322(19) 0.470128(13) 0.33331(3)
Cd7 Cd 0.174805(14) 0.470128(13) 0.83331(3)
Li9 Li 0.2906(6) 0.3697(4) 0.3116(7)
Li10 Li 0.0790(4) 0.3697(4) 0.8116(7)
O34 O 0.3039(2) 0.2036(2) 0.5925(4)
O37 O 0.23019(18) 0.14021(18) 0.5630(3)
O41 O 0.2881(2) 0.23568(28) 0.7581(3)
O44 O 0.22898(18) 0.15904(26) 0.7836(3)
C9 C 0.0384(2) 0.9903(2) 0.6642(5)
H3 H 0.0644 0.9835 0.6666
O14 O 0.01269(25) 0.88895(18) 0.6581(4)
Li6 Li 0.0771(7) 0.9017(5) 0.6892(11)
C28 C 0.2215(4) 0.8313(3) 0.7228(4)
C29 C 0.1772(3) 0.8100(2) 0.6671(4)
C30 C 0.1357(3) 0.7376(2) 0.4663(4)
C31 C 0.1377(3) 0.8159(2) 0.6842(4)
H22 H 0.1389 0.8350 0.7291
C32 C 0.1360(3) 0.7639(2) 0.5457(4)
C33 C 0.1756(3) 0.7832(2) 0.5971(4)
H23 H 0.2025 0.7786 0.5855
C34 C 0.0514(3) 0.7999(2) 0.6562(4)
C35 C 0.0955(3) 0.7937(2) 0.6353(4)
C36 C 0.0943(3) 0.7679(2) 0.5668(4)
H24 H 0.0659 0.7530 0.5341
O25 O 0.0974(6) 0.9427(4) 0.7851(8)
H25 H 0.1276 0.9654 0.7791
H26 H 0.0793 0.9558 0.7916
O26 O 0.1210(7) 0.9289(5) 0.6062(9)
H27 H 0.1482 0.9536 0.6228
H28 H 0.1266 0.9065 0.5879
O28 O 0.2331(3) 0.8703(2) 0.7592(4)
O29 O 0.01178(25) 0.77358(18) 0.6177(3)
O30 O 0.24336(25) 0.80688(18) 0.7297(3)
O31 O 0.09765(28) 0.71905(19) 0.4248(3)
O32 O 0.17429(26) 0.73660(19) 0.4503(3)
O33 O 0.05532(23) 0.82976(17) 0.7082(3)
Cd5 Cd 0.174805(14) 0.704678(19) 0.33331(3)
Cd8 Cd 0.295322(19) 0.825195(14) 0.83331(3)
Li8 Li 0.0790(4) 0.7094(6) 0.3116(7)
Li11 Li 0.2906(6) 0.9210(4) 0.8116(7)
C13 C 0.9197(2) 0.0219(3) 0.6628(5)
C15 C 0.9614(2) 0.0104(3) 0.6625(5)
O13 O 0.9295(2) 0.06492(27) 0.6716(5)
Cd2 Cd 0.841472(14) 0.038011(19) 0.66664(3)
Li3 Li 0.7457(4) 0.0427(6) 0.6449(7)
O18 O 0.6787(2) 0.0237(4) 0.6221(5)
H20 H 0.6745 0.0484 0.6307
H21 H 0.6724 0.0149 0.5721
O36 O 0.7964(2) 0.1002(3) 0.5925(4)
O39 O 0.85979(18) 0.08997(25) 0.5630(3)
O42 O 0.76432(28) 0.05238(19) 0.7581(3)
O45 O 0.84096(26) 0.06993(19) 0.7836(3)
O12 O 0.87626(17) 0.98731(25) 0.6581(4)
C16 C 0.9781(3) 0.8978(2) 0.6628(5)
C17 C 0.9519(3) 0.9616(2) 0.6642(5)
H12 H 0.9191 0.9356 0.6666
C18 C 0.9896(3) 0.9510(2) 0.6625(5)
O15 O 0.93508(27) 0.86458(18) 0.6716(5)
Li4 Li 0.8246(5) 0.9229(7) 0.6892(11)
C19 C 0.6098(3) 0.7785(4) 0.7228(4)
C20 C 0.6328(2) 0.8228(3) 0.6671(4)
C21 C 0.6019(2) 0.8643(3) 0.4663(4)
C22 C 0.6782(2) 0.8623(3) 0.6842(4)
H13 H 0.6961 0.8611 0.7291
C23 C 0.6279(2) 0.8640(3) 0.5457(4)
C24 C 0.6076(2) 0.8244(3) 0.5971(4)
H14 H 0.5761 0.7975 0.5855
C25 C 0.7485(2) 0.9486(3) 0.6562(4)
C26 C 0.6982(2) 0.9045(3) 0.6353(4)
C27 C 0.6736(2) 0.9057(3) 0.5668(4)
H15 H 0.6871 0.9341 0.5341
O16 O 0.8453(4) 0.9026(6) 0.7851(8)
H16 H 0.8378 0.8724 0.7791
H17 H 0.8765 0.9207 0.7916
O17 O 0.8079(5) 0.8790(7) 0.6062(9)
H18 H 0.8054 0.8518 0.6228
H19 H 0.7799 0.8734 0.5879
O19 O 0.6372(2) 0.7669(3) 0.7592(4)
O20 O 0.76180(17) 0.98822(25) 0.6177(3)
O21 O 0.56352(18) 0.75664(25) 0.7297(3)
O22 O 0.6214(2) 0.90235(28) 0.4248(3)
O23 O 0.56231(18) 0.82571(26) 0.4503(3)
O24 O 0.77444(16) 0.94468(23) 0.7082(3)
Cd3 Cd 0.961989(19) 0.803461(13) 0.66664(3)
Li5 Li 0.9573(6) 0.7030(4) 0.6449(7)
O27 O 0.9763(4) 0.6550(3) 0.6221(5)
H29 H 0.9516 0.6261 0.6307
H30 H 0.9851 0.6575 0.5721
Cd4 Cd 0.529872(13) 0.825195(14) 0.33331(3)
Cd9 Cd 0.529872(13) 0.704678(19) 0.83331(3)
Li7 Li 0.6303(4) 0.9210(4) 0.3116(7)
Li12 Li 0.6303(4) 0.7094(6) 0.8116(7)
O35 O 0.8998(3) 0.6961(2) 0.5925(4)
O38 O 0.91003(25) 0.76981(18) 0.5630(3)
O40 O 0.94762(19) 0.7119(2) 0.7581(3)
O43 O 0.93007(19) 0.77102(18) 0.7836(3)
O12_2 O 0.01269(25) 0.12374(17) 0.1581(4)
C16_2 C 0.1022(2) 0.0219(3) 0.1628(5)
C17_2 C 0.0384(2) 0.0481(3) 0.1642(5)
H12_2 H 0.0644 0.0809 0.1666
C18_2 C 0.0490(2) 0.0104(3) 0.1625(5)
O15_2 O 0.13542(18) 0.06492(27) 0.1716(5)
Li4_2 Li 0.0771(7) 0.1754(5) 0.1892(11)
C19_2 C 0.2215(4) 0.3902(3) 0.2228(4)
C20_2 C 0.1772(3) 0.3672(2) 0.1671(4)
C22_2 C 0.1377(3) 0.3218(2) 0.1842(4)
H13_2 H 0.1389 0.3039 0.2291
C23_2 C 0.1360(3) 0.3721(2) 0.0457(4)
C24_2 C 0.1756(3) 0.3924(2) 0.0971(4)
H14_2 H 0.2025 0.4239 0.0855
C25_2 C 0.0514(3) 0.2515(2) 0.1562(4)
C26_2 C 0.0955(3) 0.3018(2) 0.1353(4)
C27_2 C 0.0943(3) 0.3264(2) 0.0668(4)
H15_2 H 0.0659 0.3129 0.0341
O16_2 O 0.0974(6) 0.1547(4) 0.2851(8)
H16_2 H 0.1276 0.1622 0.2791
H17_2 H 0.0793 0.1235 0.2916
O17_2 O 0.1210(7) 0.1921(5) 0.1062(9)
H18_2 H 0.1482 0.1946 0.1228
H19_2 H 0.1266 0.2201 0.0879
O19_2 O 0.2331(3) 0.3628(2) 0.2592(4)
O20_2 O 0.01178(25) 0.23820(17) 0.1177(3)
O21_2 O 0.24336(25) 0.43648(18) 0.2297(3)
O24_2 O 0.05532(23) 0.22556(16) 0.2082(3)
Cd3_2 Cd 0.196539(13) 0.038011(19) 0.16664(3)
Li5_2 Li 0.2970(4) 0.0427(6) 0.1449(7)
O27_2 O 0.3450(3) 0.0237(4) 0.1221(5)
H29_2 H 0.3739 0.0484 0.1307
H30_2 H 0.3425 0.0149 0.0721
O35_2 O 0.3039(2) 0.1002(3) 0.0925(4)
O38_2 O 0.23019(18) 0.08997(25) 0.0630(3)
O40_2 O 0.2881(2) 0.05238(19) 0.2581(3)
O43_2 O 0.22898(18) 0.06993(19) 0.2836(3)
C21_2 C 0.1357(3) 0.3981(2) 0.9663(4)
O22_2 O 0.09765(28) 0.3786(2) 0.9248(3)
O23_2 O 0.17429(26) 0.43769(18) 0.9503(3)
C9_2 C 0.0097(2) 0.9616(2) 0.1642(5)
H3_2 H 0.0165 0.9356 0.1666
O14_2 O 0.11105(18) 0.98731(25) 0.1581(4)
Li6_2 Li 0.0983(5) 0.9229(7) 0.1892(11)
C28_2 C 0.1687(3) 0.7785(4) 0.2228(4)
C29_2 C 0.1900(2) 0.8228(3) 0.1671(4)
C31_2 C 0.1841(2) 0.8623(3) 0.1842(4)
H22_2 H 0.1650 0.8611 0.2291
C32_2 C 0.2361(2) 0.8640(3) 0.0457(4)
C33_2 C 0.2168(2) 0.8244(3) 0.0971(4)
H23_2 H 0.2214 0.7975 0.0855
C34_2 C 0.2001(2) 0.9486(3) 0.1562(4)
C35_2 C 0.2063(2) 0.9045(3) 0.1353(4)
C36_2 C 0.2321(2) 0.9057(3) 0.0668(4)
H24_2 H 0.2470 0.9341 0.0341
O25_2 O 0.0573(4) 0.9026(6) 0.2851(8)
H25_2 H 0.0346 0.8724 0.2791
H26_2 H 0.0442 0.9207 0.2916
O26_2 O 0.0711(5) 0.8790(7) 0.1062(9)
H27_2 H 0.0464 0.8518 0.1228
H28_2 H 0.0935 0.8734 0.0879
O28_2 O 0.1297(2) 0.7669(3) 0.2592(4)
O29_2 O 0.22642(18) 0.98822(25) 0.1177(3)
O30_2 O 0.19312(18) 0.75664(25) 0.2297(3)
O33_2 O 0.17024(17) 0.94468(23) 0.2082(3)
C30_2 C 0.2624(2) 0.8643(3) 0.9663(4)
O31_2 O 0.28095(19) 0.90235(28) 0.9248(3)
O32_2 O 0.26340(19) 0.82571(26) 0.9503(3)
C13_2 C 0.9781(3) 0.0803(2) 0.1628(5)
C15_2 C 0.9896(3) 0.0386(2) 0.1625(5)
O13_2 O 0.93508(27) 0.0705(2) 0.1716(5)
Cd2_2 Cd 0.961989(19) 0.158528(14) 0.16664(3)
Li3_2 Li 0.9573(6) 0.2543(4) 0.1449(7)
O18_2 O 0.9763(4) 0.3213(2) 0.1221(5)
H20_2 H 0.9516 0.3255 0.1307
H21_2 H 0.9851 0.3276 0.0721
O36_2 O 0.8998(3) 0.2036(2) 0.0925(4)
O39_2 O 0.91003(25) 0.14021(18) 0.0630(3)
O42_2 O 0.94762(19) 0.23568(28) 0.2581(3)
O45_2 O 0.93007(19) 0.15904(26) 0.2836(3)
Cd1_2 Cd 0.841472(14) 0.803461(13) 0.16664(3)
Li1_2 Li 0.7457(4) 0.7030(4) 0.1449(7)
Li2_2 Li 0.8246(5) 0.9017(5) 0.1892(11)
C1_2 C 0.6098(3) 0.8313(3) 0.2228(4)
C2_2 C 0.6328(2) 0.8100(2) 0.1671(4)
C4_2 C 0.6782(2) 0.8159(2) 0.1842(4)
H1_2 H 0.6961 0.8350 0.2291
C5_2 C 0.6279(2) 0.7639(2) 0.0457(4)
C6_2 C 0.6076(2) 0.7832(2) 0.0971(4)
H2_2 H 0.5761 0.7786 0.0855
C7_2 C 0.9197(2) 0.8978(2) 0.1628(5)
C8_2 C 0.7485(2) 0.7999(2) 0.1562(4)
C10_2 C 0.6982(2) 0.7937(2) 0.1353(4)
C11_2 C 0.6736(2) 0.7679(2) 0.0668(4)
H4_2 H 0.6871 0.7530 0.0341
C12_2 C 0.9614(2) 0.9510(2) 0.1625(5)
O1_2 O 0.8453(4) 0.9427(4) 0.2851(8)
H5_2 H 0.8378 0.9654 0.2791
H6_2 H 0.8765 0.9558 0.2916
O2_2 O 0.8079(5) 0.9289(5) 0.1062(9)
H7_2 H 0.8054 0.9536 0.1228
H8_2 H 0.7799 0.9065 0.0879
O3_2 O 0.6787(2) 0.6550(3) 0.1221(5)
H9_2 H 0.6745 0.6261 0.1307
H10_2 H 0.6724 0.6575 0.0721
O4_2 O 0.6372(2) 0.8703(2) 0.2592(4)
O5_2 O 0.76180(17) 0.77358(18) 0.1177(3)
O6_2 O 0.56352(18) 0.80688(18) 0.2297(3)
O8_2 O 0.87626(17) 0.88895(18) 0.1581(4)
O10_2 O 0.9295(2) 0.86458(18) 0.1716(5)
O11_2 O 0.77444(16) 0.82976(17) 0.2082(3)
C14_2 C 0.9519(3) 0.9903(2) 0.1642(5)
H11_2 H 0.9191 0.9835 0.1666
O34_2 O 0.7964(2) 0.6961(2) 0.0925(4)
O37_2 O 0.85979(18) 0.76981(18) 0.0630(3)
O41_2 O 0.76432(28) 0.7119(2) 0.2581(3)
O44_2 O 0.84096(26) 0.77102(18) 0.2836(3)
C3_2 C 0.6019(2) 0.7376(2) 0.9663(4)
O7_2 O 0.6214(2) 0.71905(19) 0.9248(3)
O9_2 O 0.56231(18) 0.73660(19) 0.9503(3)
Cd1_3 Cd 0.863206(13) 0.491861(14) -0.00003(3)
Li2_3 Li 0.7650(5) 0.5087(5) 0.0225(11)
C1_3 C 0.8354(3) 0.7235(3) 0.0561(4)
C2_3 C 0.8567(2) 0.7005(2) 0.0004(4)
C4_3 C 0.8508(2) 0.6551(2) 0.0175(4)
H1_3 H 0.8317 0.6372 0.0624
O1_3 O 0.7240(4) 0.4880(4) 0.1184(8)
H5_3 H 0.7013 0.4955 0.1124
H6_3 H 0.7109 0.4568 0.1249
O10_3 O 0.80209(18) 0.4038(2) 0.0049(5)
O11_3 O 0.83691(17) 0.55889(16) 0.0415(3)
O13_3 O 0.5962(2) 0.39825(27) 0.0049(5)
O15_3 O 0.60175(27) 0.19791(18) 0.0049(5)
Cd2_3 Cd 0.508139(14) 0.371344(19) -0.00003(3)
Li4_3 Li 0.4913(5) 0.2562(7) 0.0225(11)
C19_3 C 0.2765(3) 0.1118(4) 0.0561(4)
C20_3 C 0.2995(2) 0.1561(3) 0.0004(4)
C22_3 C 0.3449(2) 0.1956(3) 0.0175(4)
H13_3 H 0.3628 0.1944 0.0624
O16_3 O 0.5120(4) 0.2359(6) 0.1184(8)
H16_3 H 0.5045 0.2057 0.1124
H17_3 H 0.5432 0.2540 0.1249
O24_3 O 0.44111(16) 0.27801(23) 0.0415(3)
Cd3_3 Cd 0.628656(19) 0.136794(13) -0.00003(3)
Li6_3 Li 0.7438(7) 0.2350(5) 0.0225(11)
C28_3 C 0.8882(4) 0.1646(3) 0.0561(4)
C29_3 C 0.8439(3) 0.1433(2) 0.0004(4)
C31_3 C 0.8044(3) 0.1492(2) 0.0175(4)
H22_3 H 0.8056 0.1683 0.0624
O25_3 O 0.7641(6) 0.2760(4) 0.1184(8)
H25_3 H 0.7943 0.2987 0.1124
H26_3 H 0.7460 0.2891 0.1249
O33_3 O 0.72199(23) 0.16309(17) 0.0415(3)
O40_3 O 0.61428(19) 0.0453(2) 0.0915(3)
O41_3 O 0.9547(2) 0.56902(28) 0.0915(3)
O42_3 O 0.43098(28) 0.38572(19) 0.0915(3)
O43_3 O 0.59673(19) 0.10436(18) 0.1170(3)
O44_3 O 0.89564(18) 0.49238(26) 0.1170(3)
O45_3 O 0.50762(26) 0.40327(19) 0.1170(3)
Cd1_4 Cd 0.863206(13) 0.491861(14) 0.99997(3)
Li1_3 Li 0.9637(4) 0.5876(4) 0.9782(7)
C3_3 C 0.9291(2) 0.7314(2) 0.7996(4)
C5_3 C 0.9028(2) 0.7054(2) 0.8790(4)
C6_3 C 0.8835(2) 0.7257(2) 0.9304(4)
H2_3 H 0.8881 0.7572 0.9188
C7_3 C 0.7689(2) 0.4136(2) 0.9961(5)
C8_3 C 0.8668(2) 0.5848(2) 0.9895(4)
C9_3 C 0.7051(2) 0.3236(2) 0.9975(5)
H3_3 H 0.7311 0.3168 0.9999
C10_3 C 0.8730(2) 0.6351(2) 0.9686(4)
C11_3 C 0.8988(2) 0.6597(2) 0.9001(4)
H4_3 H 0.9137 0.6462 0.8674
C12_3 C 0.7157(2) 0.3719(2) 0.9958(5)
O2_3 O 0.7378(5) 0.5254(5) 0.9395(9)
H7_3 H 0.7131 0.5279 0.9561
H8_3 H 0.7602 0.5534 0.9212
O5_3 O 0.89309(18) 0.57153(17) 0.9510(3)
O8_3 O 0.77772(18) 0.45707(17) 0.9914(4)
C13_3 C 0.5864(2) 0.3552(3) 0.9961(5)
C14_3 C 0.6764(2) 0.3814(3) 0.9975(5)
H11_3 H 0.6832 0.4142 0.9999
C15_3 C 0.6281(2) 0.3437(3) 0.9958(5)
O12_3 O 0.54293(17) 0.32064(25) 0.9914(4)
C16_3 C 0.6448(3) 0.2311(2) 0.9961(5)
C17_3 C 0.6186(3) 0.2949(2) 0.9975(5)
H12_3 H 0.5858 0.2689 0.9999
C18_3 C 0.6563(3) 0.2843(2) 0.9958(5)
O14_3 O 0.67936(25) 0.22228(18) 0.9914(4)
Cd2_4 Cd 0.508139(14) 0.371344(19) 0.99997(3)
Li3_3 Li 0.4124(4) 0.3760(6) 0.9782(7)
C21_3 C 0.2686(2) 0.1976(3) 0.7996(4)
C23_3 C 0.2946(2) 0.1973(3) 0.8790(4)
C24_3 C 0.2743(2) 0.1577(3) 0.9304(4)
H14_3 H 0.2428 0.1308 0.9188
C25_3 C 0.4152(2) 0.2819(3) 0.9895(4)
C26_3 C 0.3649(2) 0.2378(3) 0.9686(4)
C27_3 C 0.3403(2) 0.2390(3) 0.9001(4)
H15_3 H 0.3538 0.2674 0.8674
O17_3 O 0.4746(5) 0.2123(7) 0.9395(9)
H18_3 H 0.4721 0.1851 0.9561
H19_3 H 0.4466 0.2067 0.9212
O18_3 O 0.3454(2) 0.3570(4) 0.9554(5)
H20_3 H 0.3412 0.3817 0.9640
H21_3 H 0.3391 0.3482 0.9054
O20_3 O 0.42847(17) 0.32155(25) 0.9510(3)
Cd3_4 Cd 0.628656(19) 0.136794(13) 0.99997(3)
Li5_3 Li 0.6240(6) 0.0363(4) 0.9782(7)
C30_3 C 0.8024(3) 0.0709(2) 0.7996(4)
C32_3 C 0.8027(3) 0.0972(2) 0.8790(4)
C33_3 C 0.8423(3) 0.1165(2) 0.9304(4)
H23_3 H 0.8692 0.1119 0.9188
C34_3 C 0.7181(3) 0.1332(2) 0.9895(4)
C35_3 C 0.7622(3) 0.1270(2) 0.9686(4)
C36_3 C 0.7610(3) 0.1012(2) 0.9001(4)
H24_3 H 0.7326 0.0863 0.8674
O26_3 O 0.7877(7) 0.2622(5) 0.9395(9)
H27_3 H 0.8149 0.2869 0.9561
H28_3 H 0.7933 0.2398 0.9212
O29_3 O 0.67845(25) 0.10691(18) 0.9510(3)
O34_3 O 0.9705(2) 0.5370(2) 0.9259(4)
O35_3 O 0.5664(3) 0.0295(2) 0.9259(4)
O36_3 O 0.4630(2) 0.4336(3) 0.9259(4)
O37_3 O 0.89685(18) 0.47355(18) 0.8964(3)
O38_3 O 0.57669(25) 0.10315(18) 0.8964(3)
O39_3 O 0.52645(18) 0.42331(25) 0.8964(3)
Cd1_5 Cd 0.508139(14) 0.136794(13) 0.49997(3)
Li1_4 Li 0.4124(4) 0.0363(4) 0.4782(7)
Li2_4 Li 0.4913(5) 0.2350(5) 0.5225(11)
C1_4 C 0.2765(3) 0.1646(3) 0.5561(4)
C2_4 C 0.2995(2) 0.1433(2) 0.5004(4)
C3_4 C 0.2686(2) 0.0709(2) 0.2996(4)
C4_4 C 0.3449(2) 0.1492(2) 0.5175(4)
H1_4 H 0.3628 0.1683 0.5624
C5_4 C 0.2946(2) 0.0972(2) 0.3790(4)
C6_4 C 0.2743(2) 0.1165(2) 0.4304(4)
H2_4 H 0.2428 0.1119 0.4188
C7_4 C 0.5864(2) 0.2311(2) 0.4961(5)
C8_4 C 0.4152(2) 0.1332(2) 0.4895(4)
C9_4 C 0.6764(2) 0.2949(2) 0.4975(5)
H3_4 H 0.6832 0.2689 0.4999
C10_4 C 0.3649(2) 0.1270(2) 0.4686(4)
C11_4 C 0.3403(2) 0.1012(2) 0.4001(4)
H4_4 H 0.3538 0.0863 0.3674
C12_4 C 0.6281(2) 0.2843(2) 0.4958(5)
O1_4 O 0.5120(4) 0.2760(4) 0.6184(8)
H5_4 H 0.5045 0.2987 0.6124
H6_4 H 0.5432 0.2891 0.6249
O2_4 O 0.4746(5) 0.2622(5) 0.4395(9)
H7_4 H 0.4721 0.2869 0.4561
H8_4 H 0.4466 0.2398 0.4212
O5_4 O 0.42847(17) 0.10691(18) 0.4510(3)
O8_4 O 0.54293(17) 0.22228(18) 0.4914(4)
O10_4 O 0.5962(2) 0.19791(18) 0.5049(5)
O11_4 O 0.44111(16) 0.16309(17) 0.5415(3)
C13_4 C 0.6448(3) 0.4136(2) 0.4961(5)
C14_4 C 0.6186(3) 0.3236(2) 0.4975(5)
H11_4 H 0.5858 0.3168 0.4999
C15_4 C 0.6563(3) 0.3719(2) 0.4958(5)
O12_4 O 0.67936(25) 0.45707(17) 0.4914(4)
O13_4 O 0.60175(27) 0.4038(2) 0.5049(5)
C16_4 C 0.7689(2) 0.3552(3) 0.4961(5)
C17_4 C 0.7051(2) 0.3814(3) 0.4975(5)
H12_4 H 0.7311 0.4142 0.4999
C18_4 C 0.7157(2) 0.3437(3) 0.4958(5)
O14_4 O 0.77772(18) 0.32064(25) 0.4914(4)
O15_4 O 0.80209(18) 0.39825(27) 0.5049(5)
Cd2_5 Cd 0.628656(19) 0.491861(14) 0.49997(3)
Li3_4 Li 0.6240(6) 0.5876(4) 0.4782(7)
Li4_4 Li 0.7438(7) 0.5087(5) 0.5225(11)
C19_4 C 0.8882(4) 0.7235(3) 0.5561(4)
C20_4 C 0.8439(3) 0.7005(2) 0.5004(4)
C21_4 C 0.8024(3) 0.7314(2) 0.2996(4)
C22_4 C 0.8044(3) 0.6551(2) 0.5175(4)
H13_4 H 0.8056 0.6372 0.5624
C23_4 C 0.8027(3) 0.7054(2) 0.3790(4)
C24_4 C 0.8423(3) 0.7257(2) 0.4304(4)
H14_4 H 0.8692 0.7572 0.4188
C25_4 C 0.7181(3) 0.5848(2) 0.4895(4)
C26_4 C 0.7622(3) 0.6351(2) 0.4686(4)
C27_4 C 0.7610(3) 0.6597(2) 0.4001(4)
H15_4 H 0.7326 0.6462 0.3674
O16_4 O 0.7641(6) 0.4880(4) 0.6184(8)
H16_4 H 0.7943 0.4955 0.6124
H17_4 H 0.7460 0.4568 0.6249
O17_4 O 0.7877(7) 0.5254(5) 0.4395(9)
H18_4 H 0.8149 0.5279 0.4561
H19_4 H 0.7933 0.5534 0.4212
O18_4 O 0.6430(4) 0.6546(2) 0.4554(5)
H20_4 H 0.6183 0.6588 0.4640
H21_4 H 0.6518 0.6609 0.4054
O20_4 O 0.67845(25) 0.57153(17) 0.4510(3)
O24_4 O 0.72199(23) 0.55889(16) 0.5415(3)
Cd3_5 Cd 0.863206(13) 0.371344(19) 0.49997(3)
Li5_4 Li 0.9637(4) 0.3760(6) 0.4782(7)
Li6_4 Li 0.7650(5) 0.2562(7) 0.5225(11)
C28_4 C 0.8354(3) 0.1118(4) 0.5561(4)
C29_4 C 0.8567(2) 0.1561(3) 0.5004(4)
C30_4 C 0.9291(2) 0.1976(3) 0.2996(4)
C31_4 C 0.8508(2) 0.1956(3) 0.5175(4)
H22_4 H 0.8317 0.1944 0.5624
C32_4 C 0.9028(2) 0.1973(3) 0.3790(4)
C33_4 C 0.8835(2) 0.1577(3) 0.4304(4)
H23_4 H 0.8881 0.1308 0.4188
C34_4 C 0.8668(2) 0.2819(3) 0.4895(4)
C35_4 C 0.8730(2) 0.2378(3) 0.4686(4)
C36_4 C 0.8988(2) 0.2390(3) 0.4001(4)
H24_4 H 0.9137 0.2674 0.3674
O25_4 O 0.7240(4) 0.2359(6) 0.6184(8)
H25_4 H 0.7013 0.2057 0.6124
H26_4 H 0.7109 0.2540 0.6249
O26_4 O 0.7378(5) 0.2123(7) 0.4395(9)
H27_4 H 0.7131 0.1851 0.4561
H28_4 H 0.7602 0.2067 0.4212
O29_4 O 0.89309(18) 0.32155(25) 0.4510(3)
O33_4 O 0.83691(17) 0.27801(23) 0.5415(3)
O34_4 O 0.4630(2) 0.0295(2) 0.4259(4)
O35_4 O 0.9705(2) 0.4336(3) 0.4259(4)
O36_4 O 0.5664(3) 0.5370(2) 0.4259(4)
O37_4 O 0.52645(18) 0.10315(18) 0.3964(3)
O38_4 O 0.89685(18) 0.42331(25) 0.3964(3)
O39_4 O 0.57669(25) 0.47355(18) 0.3964(3)
O40_4 O 0.9547(2) 0.38572(19) 0.5915(3)
O41_4 O 0.43098(28) 0.0453(2) 0.5915(3)
O42_4 O 0.61428(19) 0.56902(28) 0.5915(3)
O43_4 O 0.89564(18) 0.40327(19) 0.6170(3)
O44_4 O 0.50762(26) 0.10436(18) 0.6170(3)
O45_4 O 0.59673(19) 0.49238(26) 0.6170(3)
C1_5 C 0.5020(3) 0.0569(3) 0.3895(4)
C2_5 C 0.5233(2) 0.0339(2) 0.3338(4)
C3_5 C 0.5957(2) 0.0648(2) 0.1330(4)
C5_5 C 0.5694(2) 0.0388(2) 0.2124(4)
C6_5 C 0.5501(2) 0.0591(2) 0.2638(4)
H2_5 H 0.5547 0.0906 0.2522
Li2_5 Li 0.4316(5) 0.8421(5) 0.3559(11)
C4_5 C 0.5174(2) 0.9885(2) 0.3509(4)
H1_5 H 0.4983 0.9706 0.3958
C7_5 C 0.4355(2) 0.7470(2) 0.3295(5)
C8_5 C 0.5334(2) 0.9182(2) 0.3229(4)
C9_5 C 0.3717(2) 0.6570(2) 0.3309(5)
H3_5 H 0.3977 0.6502 0.3333
C10_5 C 0.5396(2) 0.9685(2) 0.3020(4)
C11_5 C 0.5654(2) 0.9931(2) 0.2335(4)
H4_5 H 0.5803 0.9796 0.2008
C12_5 C 0.3823(2) 0.7053(2) 0.3292(5)
O1_5 O 0.3906(4) 0.8214(4) 0.4518(8)
H5_5 H 0.3679 0.8289 0.4458
H6_5 H 0.3775 0.7902 0.4583
O2_5 O 0.4044(5) 0.8588(5) 0.2729(9)
H7_5 H 0.3797 0.8613 0.2895
H8_5 H 0.4268 0.8868 0.2546
O3_3 O 0.6783(3) 0.9880(2) 0.2888(5)
H9_3 H 0.7072 0.9922 0.2974
H10_3 H 0.6758 0.9943 0.2388
O5_5 O 0.55975(18) 0.90487(17) 0.2844(3)
O8_5 O 0.44438(18) 0.79041(17) 0.3248(4)
O10_5 O 0.46875(18) 0.7372(2) 0.3383(5)
O11_5 O 0.50357(17) 0.89223(16) 0.3749(3)
C13_5 C 0.2530(2) 0.6886(3) 0.3295(5)
C14_5 C 0.3430(2) 0.7148(3) 0.3309(5)
H11_5 H 0.3498 0.7476 0.3333
C15_5 C 0.2947(2) 0.6771(3) 0.3292(5)
O12_5 O 0.20959(17) 0.65398(25) 0.3248(4)
O13_5 O 0.2628(2) 0.73159(27) 0.3383(5)
C16_5 C 0.3114(3) 0.5645(2) 0.3295(5)
C17_5 C 0.2852(3) 0.6283(2) 0.3309(5)
H12_5 H 0.2524 0.6023 0.3333
C18_5 C 0.3229(3) 0.6177(2) 0.3292(5)
O14_5 O 0.34602(25) 0.55562(18) 0.3248(4)
O15_5 O 0.26841(27) 0.53125(18) 0.3383(5)
Li4_5 Li 0.1579(5) 0.5896(7) 0.3559(11)
C22_5 C 0.0115(2) 0.5290(3) 0.3509(4)
H13_5 H 0.0294 0.5278 0.3958
C25_5 C 0.0818(2) 0.6153(3) 0.3229(4)
C26_5 C 0.0315(2) 0.5712(3) 0.3020(4)
C27_5 C 0.0069(2) 0.5724(3) 0.2335(4)
H15_5 H 0.0204 0.6008 0.2008
O16_5 O 0.1786(4) 0.5693(6) 0.4518(8)
H16_5 H 0.1711 0.5391 0.4458
H17_5 H 0.2098 0.5874 0.4583
O17_5 O 0.1412(5) 0.5457(7) 0.2729(9)
H18_5 H 0.1387 0.5185 0.2895
H19_5 H 0.1132 0.5401 0.2546
O18_5 O 0.0120(2) 0.6904(4) 0.2888(5)
H20_5 H 0.0078 0.7151 0.2974
H21_5 H 0.0057 0.6816 0.2388
O20_5 O 0.09513(17) 0.65489(25) 0.2844(3)
O24_5 O 0.10777(16) 0.61135(23) 0.3749(3)
Li6_5 Li 0.4104(7) 0.5684(5) 0.3559(11)
C28_5 C 0.5548(4) 0.4980(3) 0.3895(4)
C29_5 C 0.5105(3) 0.4767(2) 0.3338(4)
C30_5 C 0.4690(3) 0.4043(2) 0.1330(4)
C31_5 C 0.4710(3) 0.4826(2) 0.3509(4)
H22_5 H 0.4722 0.5017 0.3958
C32_5 C 0.4693(3) 0.4306(2) 0.2124(4)
C33_5 C 0.5089(3) 0.4499(2) 0.2638(4)
H23_5 H 0.5358 0.4453 0.2522
C34_5 C 0.3847(3) 0.4666(2) 0.3229(4)
C35_5 C 0.4288(3) 0.4604(2) 0.3020(4)
C36_5 C 0.4276(3) 0.4346(2) 0.2335(4)
H24_5 H 0.3992 0.4197 0.2008
O25_5 O 0.4307(6) 0.6094(4) 0.4518(8)
H25_5 H 0.4609 0.6321 0.4458
H26_5 H 0.4126 0.6225 0.4583
O26_5 O 0.4543(7) 0.5956(5) 0.2729(9)
H27_5 H 0.4815 0.6203 0.2895
H28_5 H 0.4599 0.5732 0.2546
O27_3 O 0.3096(4) 0.3217(3) 0.2888(5)
H29_3 H 0.2849 0.2928 0.2974
H30_3 H 0.3184 0.3242 0.2388
O29_5 O 0.34511(25) 0.44025(18) 0.2844(3)
O33_5 O 0.38865(23) 0.49643(17) 0.3749(3)
C19_5 C 0.9431(3) 0.4452(4) 0.3895(4)
C20_5 C 0.9661(2) 0.4895(3) 0.3338(4)
C21_5 C 0.9352(2) 0.5310(3) 0.1330(4)
C23_5 C 0.9612(2) 0.5307(3) 0.2124(4)
C24_5 C 0.9409(2) 0.4911(3) 0.2638(4)
H14_5 H 0.9094 0.4642 0.2522
C19_6 C 0.5548(4) 0.0569(3) 0.8895(4)
C20_6 C 0.5105(3) 0.0339(2) 0.8338(4)
C21_6 C 0.4690(3) 0.0648(2) 0.6330(4)
C23_6 C 0.4693(3) 0.0388(2) 0.7124(4)
C24_6 C 0.5089(3) 0.0591(2) 0.7638(4)
H14_6 H 0.5358 0.0906 0.7522
Li2_6 Li 0.1579(5) 0.5684(5) 0.8559(11)
C4_6 C 0.0115(2) 0.4826(2) 0.8509(4)
H1_6 H 0.0294 0.5017 0.8958
C7_6 C 0.2530(2) 0.5645(2) 0.8295(5)
C8_6 C 0.0818(2) 0.4666(2) 0.8229(4)
C9_6 C 0.3430(2) 0.6283(2) 0.8309(5)
H3_6 H 0.3498 0.6023 0.8333
C10_6 C 0.0315(2) 0.4604(2) 0.8020(4)
C11_6 C 0.0069(2) 0.4346(2) 0.7335(4)
H4_6 H 0.0204 0.4197 0.7008
C12_6 C 0.2947(2) 0.6177(2) 0.8292(5)
O1_6 O 0.1786(4) 0.6094(4) 0.9518(8)
H5_6 H 0.1711 0.6321 0.9458
H6_6 H 0.2098 0.6225 0.9583
O2_6 O 0.1412(5) 0.5956(5) 0.7729(9)
H7_6 H 0.1387 0.6203 0.7895
H8_6 H 0.1132 0.5732 0.7546
O3_4 O 0.0120(2) 0.3217(3) 0.7888(5)
H9_4 H 0.0078 0.2928 0.7974
H10_4 H 0.0057 0.3242 0.7388
O5_6 O 0.09513(17) 0.44025(18) 0.7844(3)
O8_6 O 0.20959(17) 0.55562(18) 0.8248(4)
O10_6 O 0.2628(2) 0.53125(18) 0.8383(5)
O11_6 O 0.10777(16) 0.49643(17) 0.8749(3)
C13_6 C 0.3114(3) 0.7470(2) 0.8295(5)
C14_6 C 0.2852(3) 0.6570(2) 0.8309(5)
H11_6 H 0.2524 0.6502 0.8333
C15_6 C 0.3229(3) 0.7053(2) 0.8292(5)
O12_6 O 0.34602(25) 0.79041(17) 0.8248(4)
O13_6 O 0.26841(27) 0.7372(2) 0.8383(5)
C16_6 C 0.4355(2) 0.6886(3) 0.8295(5)
C17_6 C 0.3717(2) 0.7148(3) 0.8309(5)
H12_6 H 0.3977 0.7476 0.8333
C18_6 C 0.3823(2) 0.6771(3) 0.8292(5)
O14_6 O 0.44438(18) 0.65398(25) 0.8248(4)
O15_6 O 0.46875(18) 0.73159(27) 0.8383(5)
Li4_6 Li 0.4104(7) 0.8421(5) 0.8559(11)
C22_6 C 0.4710(3) 0.9885(2) 0.8509(4)
H13_6 H 0.4722 0.9706 0.8958
C25_6 C 0.3847(3) 0.9182(2) 0.8229(4)
C26_6 C 0.4288(3) 0.9685(2) 0.8020(4)
C27_6 C 0.4276(3) 0.9931(2) 0.7335(4)
H15_6 H 0.3992 0.9796 0.7008
O16_6 O 0.4307(6) 0.8214(4) 0.9518(8)
H16_6 H 0.4609 0.8289 0.9458
H17_6 H 0.4126 0.7902 0.9583
O17_6 O 0.4543(7) 0.8588(5) 0.7729(9)
H18_6 H 0.4815 0.8613 0.7895
H19_6 H 0.4599 0.8868 0.7546
O18_6 O 0.3096(4) 0.9880(2) 0.7888(5)
H20_6 H 0.2849 0.9922 0.7974
H21_6 H 0.3184 0.9943 0.7388
O20_6 O 0.34511(25) 0.90487(17) 0.7844(3)
O24_6 O 0.38865(23) 0.89223(16) 0.8749(3)
Li6_6 Li 0.4316(5) 0.5896(7) 0.8559(11)
C28_6 C 0.5020(3) 0.4452(4) 0.8895(4)
C29_6 C 0.5233(2) 0.4895(3) 0.8338(4)
C30_6 C 0.5957(2) 0.5310(3) 0.6330(4)
C31_6 C 0.5174(2) 0.5290(3) 0.8509(4)
H22_6 H 0.4983 0.5278 0.8958
C32_6 C 0.5694(2) 0.5307(3) 0.7124(4)
C33_6 C 0.5501(2) 0.4911(3) 0.7638(4)
H23_6 H 0.5547 0.4642 0.7522
C34_6 C 0.5334(2) 0.6153(3) 0.8229(4)
C35_6 C 0.5396(2) 0.5712(3) 0.8020(4)
C36_6 C 0.5654(2) 0.5724(3) 0.7335(4)
H24_6 H 0.5803 0.6008 0.7008
O25_6 O 0.3906(4) 0.5693(6) 0.9518(8)
H25_6 H 0.3679 0.5391 0.9458
H26_6 H 0.3775 0.5874 0.9583
O26_6 O 0.4044(5) 0.5457(7) 0.7729(9)
H27_6 H 0.3797 0.5185 0.7895
H28_6 H 0.4268 0.5401 0.7546
O27_4 O 0.6783(3) 0.6904(4) 0.7888(5)
H29_4 H 0.7072 0.7151 0.7974
H30_4 H 0.6758 0.6816 0.7388
O29_6 O 0.55975(18) 0.65489(25) 0.7844(3)
O33_6 O 0.50357(17) 0.61135(23) 0.8749(3)
C1_6 C 0.9431(3) 0.4980(3) 0.8895(4)
C2_6 C 0.9661(2) 0.4767(2) 0.8338(4)
C3_6 C 0.9352(2) 0.4043(2) 0.6330(4)
C5_6 C 0.9612(2) 0.4306(2) 0.7124(4)
C6_6 C 0.9409(2) 0.4499(2) 0.7638(4)
H2_6 H 0.9094 0.4453 0.7522
O3_5 O 0.0117(3) 0.6546(2) 0.9554(5)
H9_5 H 0.0406 0.6588 0.9640
H10_5 H 0.0092 0.6609 0.9054
O27_5 O 0.6430(4) 0.9883(3) 0.9554(5)
H29_5 H 0.6183 0.9594 0.9640
H30_5 H 0.6518 0.9908 0.9054
O27_6 O 0.0117(3) 0.3570(4) 0.4554(5)
H29_6 H 0.0406 0.3817 0.4640
H30_6 H 0.0092 0.3482 0.4054
O3_6 O 0.3454(2) 0.9883(3) 0.4554(5)
H9_6 H 0.3412 0.9594 0.4640
H10_6 H 0.3391 0.9908 0.4054
loop_
_geom_bond_atom_site_label_1
_geom_bond_atom_site_label_2
_geom_bond_site_symmetry_1
_geom_bond_site_symmetry_2
Cd1 O5 1_555 1_555
Li1 O3 1_555 1_555
Li2 O1 1_555 1_555
C1 C2 1_555 1_555
C2 C4 1_555 1_555
C3 C5 1_555 1_555
C4 H1 1_555 1_555
C5 C6 1_555 1_555
C6 C2 1_555 1_555
H2 C6 1_555 1_555
C7 C12 1_555 1_555
C8 C10 1_555 1_555
C10 C4 1_555 1_555
C11 C5 1_555 1_555
H4 C11 1_555 1_555
O1 H5 1_555 1_555
H6 O1 1_555 1_555
O2 Li2 1_555 1_555
H7 O2 1_555 1_555
H8 O2 1_555 1_555
O3 H9 1_555 1_555
H10 O3 1_555 1_555
O4 C1 1_555 1_555
O5 Li1 1_555 1_555
O6 C1 1_555 1_555
O7 C3 1_555 1_555
O8 Cd1 1_555 1_555
O9 C3 1_555 1_555
O10 Cd1 1_555 1_555
O11 Cd1 1_555 1_555
C14 C12 1_555 1_555
H11 C14 1_555 1_555
Cd6 O9 1_555 1_555
Cd7 O6 1_555 1_555
Li9 O7 1_555 1_555
Li10 O4 1_555 1_555
O34 Li1 1_555 1_555
O37 Cd1 1_555 1_555
O41 Li1 1_555 1_555
O44 Cd1 1_555 1_555
Li2 O8 1_555 1_555
Li2 O11 1_555 1_555
C7 O8 1_555 1_555
C7 O10 1_555 1_555
C8 O5 1_555 1_555
C8 O11 1_555 1_555
C10 C11 1_555 1_555
C9 H3 1_555 1_555
Li6 O14 1_555 1_555
C28 C29 1_555 1_555
C29 C31 1_555 1_555
C30 C32 1_555 1_555
C31 H22 1_555 1_555
C32 C33 1_555 1_555
C33 C29 1_555 1_555
H23 C33 1_555 1_555
C34 C35 1_555 1_555
C35 C31 1_555 1_555
C36 C32 1_555 1_555
H24 C36 1_555 1_555
O25 Li6 1_555 1_555
H25 O25 1_555 1_555
H26 O25 1_555 1_555
O26 Li6 1_555 1_555
H27 O26 1_555 1_555
H28 O26 1_555 1_555
O28 C28 1_555 1_555
O30 C28 1_555 1_555
O31 C30 1_555 1_555
O32 C30 1_555 1_555
Cd5 O32 1_555 1_555
Cd8 O30 1_555 1_555
Li8 O31 1_555 1_555
Li11 O28 1_555 1_555
Li6 O33 1_555 1_555
C34 O29 1_555 1_555
C34 O33 1_555 1_555
C35 C36 1_555 1_555
C13 C15 1_555 1_555
O13 C13 1_555 1_555
Li3 O18 1_555 1_555
O18 H20 1_555 1_555
H21 O18 1_555 1_555
O36 Li3 1_555 1_555
O39 Cd2 1_555 1_555
O42 Li3 1_555 1_555
O45 Cd2 1_555 1_555
O13 Cd2 1_555 1_555
C16 C18 1_555 1_555
H12 C17 1_555 1_555
O15 C16 1_555 1_555
Li4 O12 1_555 1_555
C19 C20 1_555 1_555
C20 C22 1_555 1_555
C21 C23 1_555 1_555
C22 H13 1_555 1_555
C23 C24 1_555 1_555
C24 C20 1_555 1_555
H14 C24 1_555 1_555
C25 C26 1_555 1_555
C26 C22 1_555 1_555
C27 C23 1_555 1_555
H15 C27 1_555 1_555
O16 Li4 1_555 1_555
H16 O16 1_555 1_555
H17 O16 1_555 1_555
O17 Li4 1_555 1_555
H18 O17 1_555 1_555
H19 O17 1_555 1_555
O19 C19 1_555 1_555
O21 C19 1_555 1_555
O22 C21 1_555 1_555
O23 C21 1_555 1_555
Li5 O27 1_555 1_555
O27 H29 1_555 1_555
H30 O27 1_555 1_555
Cd4 O23 1_555 1_555
Cd9 O21 1_555 1_555
Li7 O22 1_555 1_555
Li12 O19 1_555 1_555
O35 Li5 1_555 1_555
O38 Cd3 1_555 1_555
O40 Li5 1_555 1_555
O43 Cd3 1_555 1_555
C17 C18 1_555 1_555
O15 Cd3 1_555 1_555
Li4 O24 1_555 1_555
C25 O20 1_555 1_555
C25 O24 1_555 1_555
C26 C27 1_555 1_555
C16_2 C18_2 1_555 1_555
H12_2 C17_2 1_555 1_555
O15_2 C16_2 1_555 1_555
Li4_2 O12_2 1_555 1_555
C19_2 C20_2 1_555 1_555
C20_2 C22_2 1_555 1_555
C22_2 H13_2 1_555 1_555
C23_2 C24_2 1_555 1_555
C24_2 C20_2 1_555 1_555
H14_2 C24_2 1_555 1_555
C25_2 C26_2 1_555 1_555
C26_2 C22_2 1_555 1_555
C27_2 C23_2 1_555 1_555
H15_2 C27_2 1_555 1_555
O16_2 Li4_2 1_555 1_555
H16_2 O16_2 1_555 1_555
H17_2 O16_2 1_555 1_555
O17_2 Li4_2 1_555 1_555
H18_2 O17_2 1_555 1_555
H19_2 O17_2 1_555 1_555
O19_2 C19_2 1_555 1_555
O21_2 C19_2 1_555 1_555
Li5_2 O27_2 1_555 1_555
O27_2 H29_2 1_555 1_555
H30_2 O27_2 1_555 1_555
Cd6 O21_2 1_555 1_555
Li9 O19_2 1_555 1_555
O35_2 Li5_2 1_555 1_555
O38_2 Cd3_2 1_555 1_555
O40_2 Li5_2 1_555 1_555
O43_2 Cd3_2 1_555 1_555
C17_2 C18_2 1_555 1_555
O15_2 Cd3_2 1_555 1_555
Li4_2 O24_2 1_555 1_555
C25_2 O20_2 1_555 1_555
C25_2 O24_2 1_555 1_555
C26_2 C27_2 1_555 1_555
O22_2 C21_2 1_555 1_555
O23_2 C21_2 1_555 1_555
Cd7 O23_2 1_555 1_555
Li10 O22_2 1_555 1_555
C9_2 H3_2 1_555 1_555
Li6_2 O14_2 1_555 1_555
C28_2 C29_2 1_555 1_555
C29_2 C31_2 1_555 1_555
C31_2 H22_2 1_555 1_555
C32_2 C33_2 1_555 1_555
C33_2 C29_2 1_555 1_555
H23_2 C33_2 1_555 1_555
C34_2 C35_2 1_555 1_555
C35_2 C31_2 1_555 1_555
C36_2 C32_2 1_555 1_555
H24_2 C36_2 1_555 1_555
O25_2 Li6_2 1_555 1_555
H25_2 O25_2 1_555 1_555
H26_2 O25_2 1_555 1_555
O26_2 Li6_2 1_555 1_555
H27_2 O26_2 1_555 1_555
H28_2 O26_2 1_555 1_555
O28_2 C28_2 1_555 1_555
O30_2 C28_2 1_555 1_555
Cd5 O30_2 1_555 1_555
Li8 O28_2 1_555 1_555
Li6_2 O33_2 1_555 1_555
C34_2 O29_2 1_555 1_555
C34_2 O33_2 1_555 1_555
C35_2 C36_2 1_555 1_555
O31_2 C30_2 1_555 1_555
O32_2 C30_2 1_555 1_555
Cd8 O32_2 1_555 1_555
Li11 O31_2 1_555 1_555
C13_2 C15_2 1_555 1_555
O13_2 C13_2 1_555 1_555
Li3_2 O18_2 1_555 1_555
O18_2 H20_2 1_555 1_555
H21_2 O18_2 1_555 1_555
O36_2 Li3_2 1_555 1_555
O39_2 Cd2_2 1_555 1_555
O42_2 Li3_2 1_555 1_555
O45_2 Cd2_2 1_555 1_555
O13_2 Cd2_2 1_555 1_555
Cd1_2 O5_2 1_555 1_555
Li1_2 O3_2 1_555 1_555
Li2_2 O1_2 1_555 1_555
C1_2 C2_2 1_555 1_555
C2_2 C4_2 1_555 1_555
C4_2 H1_2 1_555 1_555
C5_2 C6_2 1_555 1_555
C6_2 C2_2 1_555 1_555
H2_2 C6_2 1_555 1_555
C7_2 C12_2 1_555 1_555
C8_2 C10_2 1_555 1_555
C10_2 C4_2 1_555 1_555
C11_2 C5_2 1_555 1_555
H4_2 C11_2 1_555 1_555
O1_2 H5_2 1_555 1_555
H6_2 O1_2 1_555 1_555
O2_2 Li2_2 1_555 1_555
H7_2 O2_2 1_555 1_555
H8_2 O2_2 1_555 1_555
O3_2 H9_2 1_555 1_555
H10_2 O3_2 1_555 1_555
O4_2 C1_2 1_555 1_555
O5_2 Li1_2 1_555 1_555
O6_2 C1_2 1_555 1_555
O8_2 Cd1_2 1_555 1_555
O10_2 Cd1_2 1_555 1_555
O11_2 Cd1_2 1_555 1_555
C14_2 C12_2 1_555 1_555
H11_2 C14_2 1_555 1_555
Cd4 O6_2 1_555 1_555
Li7 O4_2 1_555 1_555
O34_2 Li1_2 1_555 1_555
O37_2 Cd1_2 1_555 1_555
O41_2 Li1_2 1_555 1_555
O44_2 Cd1_2 1_555 1_555
Li2_2 O8_2 1_555 1_555
Li2_2 O11_2 1_555 1_555
C7_2 O8_2 1_555 1_555
C7_2 O10_2 1_555 1_555
C8_2 O5_2 1_555 1_555
C8_2 O11_2 1_555 1_555
C10_2 C11_2 1_555 1_555
O7_2 C3_2 1_555 1_555
O9_2 C3_2 1_555 1_555
Cd9 O9_2 1_555 1_555
Li12 O7_2 1_555 1_555
Li2_3 O1_3 1_555 1_555
C1_3 C2_3 1_555 1_555
C2_3 C4_3 1_555 1_555
C4_3 H1_3 1_555 1_555
O1_3 H5_3 1_555 1_555
H6_3 O1_3 1_555 1_555
O34_2 C1_3 1_555 1_555
O37_2 C1_3 1_555 1_555
O10_3 Cd1_3 1_555 1_555
O11_3 Cd1_3 1_555 1_555
C19_3 C20_3 1_555 1_555
C20_3 C22_3 1_555 1_555
C22_3 H13_3 1_555 1_555
O16_3 Li4_3 1_555 1_555
H16_3 O16_3 1_555 1_555
H17_3 O16_3 1_555 1_555
O35_2 C19_3 1_555 1_555
O38_2 C19_3 1_555 1_555
O24_3 Cd2_3 1_555 1_555
C28_3 C29_3 1_555 1_555
C29_3 C31_3 1_555 1_555
C31_3 H22_3 1_555 1_555
O25_3 Li6_3 1_555 1_555
H25_3 O25_3 1_555 1_555
H26_3 O25_3 1_555 1_555
O36_2 C28_3 1_555 1_555
O39_2 C28_3 1_555 1_555
O33_3 Cd3_3 1_555 1_555
O43_3 Cd3_3 1_555 1_555
O44_3 Cd1_3 1_555 1_555
O45_3 Cd2_3 1_555 1_555
Li2_3 O11_3 1_555 1_555
O13_3 Cd2_3 1_555 1_555
O15_3 Cd3_3 1_555 1_555
Li4_3 O24_3 1_555 1_555
Li6_3 O33_3 1_555 1_555
Cd1_4 O5_3 1_555 1_555
C3_3 C5_3 1_555 1_555
C5_3 C6_3 1_555 1_555
H2_3 C6_3 1_555 1_555
C7_3 C12_3 1_555 1_555
C8_3 C10_3 1_555 1_555
C9_3 H3_3 1_555 1_555
C11_3 C5_3 1_555 1_555
H4_3 C11_3 1_555 1_555
C12_3 C9_3 1_555 1_555
H7_3 O2_3 1_555 1_555
H8_3 O2_3 1_555 1_555
O5_3 Li1_3 1_555 1_555
O40 C3_3 1_555 1_555
O8_3 Cd1_4 1_555 1_555
O43 C3_3 1_555 1_555
C13_3 C15_3 1_555 1_555
C14_3 C12_3 1_555 1_555
H11_3 C14_3 1_555 1_555
C15_3 C14_3 1_555 1_555
O12_3 C13_3 1_555 1_555
C16_3 C18_3 1_555 1_555
C17_3 C15_3 1_555 1_555
H12_3 C17_3 1_555 1_555
C18_3 C9_3 1_555 1_555
O14_3 C16_3 1_555 1_555
Cd2_4 O12_3 1_555 1_555
Li3_3 O18_3 1_555 1_555
C21_3 C23_3 1_555 1_555
C23_3 C24_3 1_555 1_555
H14_3 C24_3 1_555 1_555
C25_3 C26_3 1_555 1_555
C27_3 C23_3 1_555 1_555
H15_3 C27_3 1_555 1_555
H18_3 O17_3 1_555 1_555
H19_3 O17_3 1_555 1_555
O18_3 H20_3 1_555 1_555
H21_3 O18_3 1_555 1_555
O20_3 Cd2_4 1_555 1_555
O41 C21_3 1_555 1_555
O44 C21_3 1_555 1_555
Cd3_4 O14_3 1_555 1_555
C30_3 C32_3 1_555 1_555
C32_3 C33_3 1_555 1_555
H23_3 C33_3 1_555 1_555
C34_3 C35_3 1_555 1_555
C36_3 C32_3 1_555 1_555
H24_3 C36_3 1_555 1_555
H27_3 O26_3 1_555 1_555
H28_3 O26_3 1_555 1_555
O29_3 Cd3_4 1_555 1_555
O42 C30_3 1_555 1_555
O45 C30_3 1_555 1_555
O34_3 Li1_3 1_555 1_555
O35_3 Li5_3 1_555 1_555
O36_3 Li3_3 1_555 1_555
O37_3 Cd1_4 1_555 1_555
O38_3 Cd3_4 1_555 1_555
O39_3 Cd2_4 1_555 1_555
C7_3 O8_3 1_555 1_555
C8_3 O5_3 1_555 1_555
C10_3 C11_3 1_555 1_555
C17_3 C18_3 1_555 1_555
Li3_3 O20_3 1_555 1_555
C25_3 O20_3 1_555 1_555
C26_3 C27_3 1_555 1_555
Li5_3 O29_3 1_555 1_555
C34_3 O29_3 1_555 1_555
C35_3 C36_3 1_555 1_555
Cd1_5 O5_4 1_555 1_555
Li2_4 O1_4 1_555 1_555
C1_4 C2_4 1_555 1_555
C2_4 C4_4 1_555 1_555
C3_4 C5_4 1_555 1_555
C4_4 H1_4 1_555 1_555
C5_4 C6_4 1_555 1_555
C6_4 C2_4 1_555 1_555
H2_4 C6_4 1_555 1_555
C7_4 C12_4 1_555 1_555
C8_4 C10_4 1_555 1_555
C9_4 H3_4 1_555 1_555
C10_4 C4_4 1_555 1_555
C11_4 C5_4 1_555 1_555
H4_4 C11_4 1_555 1_555
C12_4 C9_4 1_555 1_555
O1_4 H5_4 1_555 1_555
H6_4 O1_4 1_555 1_555
O2_4 Li2_4 1_555 1_555
H7_4 O2_4 1_555 1_555
H8_4 O2_4 1_555 1_555
O34 C1_4 1_555 1_555
O5_4 Li1_4 1_555 1_555
O37 C1_4 1_555 1_555
O40_2 C3_4 1_555 1_555
O8_4 Cd1_5 1_555 1_555
O43_2 C3_4 1_555 1_555
O10_4 Cd1_5 1_555 1_555
O11_4 Cd1_5 1_555 1_555
C13_4 C15_4 1_555 1_555
C14_4 C12_4 1_555 1_555
H11_4 C14_4 1_555 1_555
C15_4 C14_4 1_555 1_555
O12_4 C13_4 1_555 1_555
O13_4 C13_4 1_555 1_555
C16_4 C18_4 1_555 1_555
C17_4 C15_4 1_555 1_555
H12_4 C17_4 1_555 1_555
C18_4 C9_4 1_555 1_555
O14_4 C16_4 1_555 1_555
O15_4 C16_4 1_555 1_555
Cd2_5 O12_4 1_555 1_555
Li3_4 O18_4 1_555 1_555
Li4_4 O12_4 1_555 1_555
C19_4 C20_4 1_555 1_555
C20_4 C22_4 1_555 1_555
C21_4 C23_4 1_555 1_555
C22_4 H13_4 1_555 1_555
C23_4 C24_4 1_555 1_555
C24_4 C20_4 1_555 1_555
H14_4 C24_4 1_555 1_555
C25_4 C26_4 1_555 1_555
C26_4 C22_4 1_555 1_555
C27_4 C23_4 1_555 1_555
H15_4 C27_4 1_555 1_555
O16_4 Li4_4 1_555 1_555
H16_4 O16_4 1_555 1_555
H17_4 O16_4 1_555 1_555
O17_4 Li4_4 1_555 1_555
H18_4 O17_4 1_555 1_555
H19_4 O17_4 1_555 1_555
O18_4 H20_4 1_555 1_555
H21_4 O18_4 1_555 1_555
O35 C19_4 1_555 1_555
O20_4 Cd2_5 1_555 1_555
O38 C19_4 1_555 1_555
O41_2 C21_4 1_555 1_555
O44_2 C21_4 1_555 1_555
O24_4 Cd2_5 1_555 1_555
Cd3_5 O14_4 1_555 1_555
Li6_4 O14_4 1_555 1_555
C28_4 C29_4 1_555 1_555
C29_4 C31_4 1_555 1_555
C30_4 C32_4 1_555 1_555
C31_4 H22_4 1_555 1_555
C32_4 C33_4 1_555 1_555
C33_4 C29_4 1_555 1_555
H23_4 C33_4 1_555 1_555
C34_4 C35_4 1_555 1_555
C35_4 C31_4 1_555 1_555
C36_4 C32_4 1_555 1_555
H24_4 C36_4 1_555 1_555
O25_4 Li6_4 1_555 1_555
H25_4 O25_4 1_555 1_555
H26_4 O25_4 1_555 1_555
O26_4 Li6_4 1_555 1_555
H27_4 O26_4 1_555 1_555
H28_4 O26_4 1_555 1_555
O36 C28_4 1_555 1_555
O29_4 Cd3_5 1_555 1_555
O39 C28_4 1_555 1_555
O42_2 C30_4 1_555 1_555
O45_2 C30_4 1_555 1_555
O33_4 Cd3_5 1_555 1_555
O34_4 Li1_4 1_555 1_555
O35_4 Li5_4 1_555 1_555
O36_4 Li3_4 1_555 1_555
O37_4 Cd1_5 1_555 1_555
O38_4 Cd3_5 1_555 1_555
O39_4 Cd2_5 1_555 1_555
O40_4 Li5_4 1_555 1_555
O41_4 Li1_4 1_555 1_555
O42_4 Li3_4 1_555 1_555
O43_4 Cd3_5 1_555 1_555
O44_4 Cd1_5 1_555 1_555
O45_4 Cd2_5 1_555 1_555
Li2_4 O8_4 1_555 1_555
Li2_4 O11_4 1_555 1_555
C7_4 O8_4 1_555 1_555
C7_4 O10_4 1_555 1_555
C8_4 O5_4 1_555 1_555
C8_4 O11_4 1_555 1_555
C10_4 C11_4 1_555 1_555
O13_4 Cd2_5 1_555 1_555
C17_4 C18_4 1_555 1_555
O15_4 Cd3_5 1_555 1_555
Li3_4 O20_4 1_555 1_555
Li4_4 O24_4 1_555 1_555
C25_4 O20_4 1_555 1_555
C25_4 O24_4 1_555 1_555
C26_4 C27_4 1_555 1_555
Li5_4 O29_4 1_555 1_555
Li6_4 O33_4 1_555 1_555
C34_4 O29_4 1_555 1_555
C34_4 O33_4 1_555 1_555
C35_4 C36_4 1_555 1_555
C1_5 C2_5 1_555 1_555
C3_5 C5_5 1_555 1_555
C5_5 C6_5 1_555 1_555
C6_5 C2_5 1_555 1_555
H2_5 C6_5 1_555 1_555
O34_4 C1_5 1_555 1_555
O37_4 C1_5 1_555 1_555
O40_3 C3_5 1_555 1_555
O43_3 C3_5 1_555 1_555
Cd4 O5_5 1_555 1_555
Li7 O3_3 1_555 1_555
Li2_5 O1_5 1_555 1_555
C4_5 H1_5 1_555 1_555
C7_5 C12_5 1_555 1_555
C8_5 C10_5 1_555 1_555
C9_5 H3_5 1_555 1_555
C10_5 C4_5 1_555 1_555
H4_5 C11_5 1_555 1_555
C12_5 C9_5 1_555 1_555
O1_5 H5_5 1_555 1_555
H6_5 O1_5 1_555 1_555
O2_5 Li2_5 1_555 1_555
H7_5 O2_5 1_555 1_555
H8_5 O2_5 1_555 1_555
O3_3 H9_3 1_555 1_555
H10_3 O3_3 1_555 1_555
O5_5 Li7 1_555 1_555
O8_5 Cd4 1_555 1_555
O10_5 Cd4 1_555 1_555
O11_5 Cd4 1_555 1_555
C13_5 C15_5 1_555 1_555
C14_5 C12_5 1_555 1_555
H11_5 C14_5 1_555 1_555
C15_5 C14_5 1_555 1_555
O12_5 C13_5 1_555 1_555
O13_5 C13_5 1_555 1_555
C16_5 C18_5 1_555 1_555
C17_5 C15_5 1_555 1_555
H12_5 C17_5 1_555 1_555
C18_5 C9_5 1_555 1_555
O14_5 C16_5 1_555 1_555
O15_5 C16_5 1_555 1_555
Cd5 O12_5 1_555 1_555
Li8 O18_5 1_555 1_555
Li4_5 O12_5 1_555 1_555
C22_5 H13_5 1_555 1_555
C25_5 C26_5 1_555 1_555
C26_5 C22_5 1_555 1_555
H15_5 C27_5 1_555 1_555
O16_5 Li4_5 1_555 1_555
H16_5 O16_5 1_555 1_555
H17_5 O16_5 1_555 1_555
O17_5 Li4_5 1_555 1_555
H18_5 O17_5 1_555 1_555
H19_5 O17_5 1_555 1_555
O18_5 H20_5 1_555 1_555
H21_5 O18_5 1_555 1_555
O20_5 Cd5 1_555 1_555
O24_5 Cd5 1_555 1_555
Cd6 O14_5 1_555 1_555
Li9 O27_3 1_555 1_555
Li6_5 O14_5 1_555 1_555
C28_5 C29_5 1_555 1_555
C29_5 C31_5 1_555 1_555
C30_5 C32_5 1_555 1_555
C31_5 H22_5 1_555 1_555
C32_5 C33_5 1_555 1_555
C33_5 C29_5 1_555 1_555
H23_5 C33_5 1_555 1_555
C34_5 C35_5 1_555 1_555
C35_5 C31_5 1_555 1_555
C36_5 C32_5 1_555 1_555
H24_5 C36_5 1_555 1_555
O25_5 Li6_5 1_555 1_555
H25_5 O25_5 1_555 1_555
H26_5 O25_5 1_555 1_555
O26_5 Li6_5 1_555 1_555
H27_5 O26_5 1_555 1_555
H28_5 O26_5 1_555 1_555
O27_3 H29_3 1_555 1_555
H30_3 O27_3 1_555 1_555
O36_4 C28_5 1_555 1_555
O29_5 Cd6 1_555 1_555
O39_4 C28_5 1_555 1_555
O42_3 C30_5 1_555 1_555
O45_3 C30_5 1_555 1_555
O33_5 Cd6 1_555 1_555
Li2_5 O8_5 1_555 1_555
Li2_5 O11_5 1_555 1_555
C7_5 O8_5 1_555 1_555
C7_5 O10_5 1_555 1_555
C8_5 O5_5 1_555 1_555
C8_5 O11_5 1_555 1_555
C10_5 C11_5 1_555 1_555
O13_5 Cd5 1_555 1_555
C17_5 C18_5 1_555 1_555
O15_5 Cd6 1_555 1_555
Li8 O20_5 1_555 1_555
Li4_5 O24_5 1_555 1_555
C25_5 O20_5 1_555 1_555
C25_5 O24_5 1_555 1_555
C26_5 C27_5 1_555 1_555
Li9 O29_5 1_555 1_555
Li6_5 O33_5 1_555 1_555
C34_5 O29_5 1_555 1_555
C34_5 O33_5 1_555 1_555
C35_5 C36_5 1_555 1_555
C19_5 C20_5 1_555 1_555
C21_5 C23_5 1_555 1_555
C23_5 C24_5 1_555 1_555
C24_5 C20_5 1_555 1_555
H14_5 C24_5 1_555 1_555
O35_4 C19_5 1_555 1_555
O38_4 C19_5 1_555 1_555
O41_3 C21_5 1_555 1_555
O44_3 C21_5 1_555 1_555
C19_6 C20_6 1_555 1_555
C21_6 C23_6 1_555 1_555
C23_6 C24_6 1_555 1_555
C24_6 C20_6 1_555 1_555
H14_6 C24_6 1_555 1_555
O35_3 C19_6 1_555 1_555
O38_3 C19_6 1_555 1_555
O41_4 C21_6 1_555 1_555
O44_4 C21_6 1_555 1_555
Cd7 O5_6 1_555 1_555
Li10 O3_4 1_555 1_555
Li2_6 O1_6 1_555 1_555
C4_6 H1_6 1_555 1_555
C7_6 C12_6 1_555 1_555
C8_6 C10_6 1_555 1_555
C9_6 H3_6 1_555 1_555
C10_6 C4_6 1_555 1_555
H4_6 C11_6 1_555 1_555
C12_6 C9_6 1_555 1_555
O1_6 H5_6 1_555 1_555
H6_6 O1_6 1_555 1_555
O2_6 Li2_6 1_555 1_555
H7_6 O2_6 1_555 1_555
H8_6 O2_6 1_555 1_555
O3_4 H9_4 1_555 1_555
H10_4 O3_4 1_555 1_555
O5_6 Li10 1_555 1_555
O8_6 Cd7 1_555 1_555
O10_6 Cd7 1_555 1_555
O11_6 Cd7 1_555 1_555
C13_6 C15_6 1_555 1_555
C14_6 C12_6 1_555 1_555
H11_6 C14_6 1_555 1_555
C15_6 C14_6 1_555 1_555
O12_6 C13_6 1_555 1_555
O13_6 C13_6 1_555 1_555
C16_6 C18_6 1_555 1_555
C17_6 C15_6 1_555 1_555
H12_6 C17_6 1_555 1_555
C18_6 C9_6 1_555 1_555
O14_6 C16_6 1_555 1_555
O15_6 C16_6 1_555 1_555
Cd8 O12_6 1_555 1_555
Li11 O18_6 1_555 1_555
Li4_6 O12_6 1_555 1_555
C22_6 H13_6 1_555 1_555
C25_6 C26_6 1_555 1_555
C26_6 C22_6 1_555 1_555
H15_6 C27_6 1_555 1_555
O16_6 Li4_6 1_555 1_555
H16_6 O16_6 1_555 1_555
H17_6 O16_6 1_555 1_555
O17_6 Li4_6 1_555 1_555
H18_6 O17_6 1_555 1_555
H19_6 O17_6 1_555 1_555
O18_6 H20_6 1_555 1_555
H21_6 O18_6 1_555 1_555
O20_6 Cd8 1_555 1_555
O24_6 Cd8 1_555 1_555
Cd9 O14_6 1_555 1_555
Li12 O27_4 1_555 1_555
Li6_6 O14_6 1_555 1_555
C28_6 C29_6 1_555 1_555
C29_6 C31_6 1_555 1_555
C30_6 C32_6 1_555 1_555
C31_6 H22_6 1_555 1_555
C32_6 C33_6 1_555 1_555
C33_6 C29_6 1_555 1_555
H23_6 C33_6 1_555 1_555
C34_6 C35_6 1_555 1_555
C35_6 C31_6 1_555 1_555
C36_6 C32_6 1_555 1_555
H24_6 C36_6 1_555 1_555
O25_6 Li6_6 1_555 1_555
H25_6 O25_6 1_555 1_555
H26_6 O25_6 1_555 1_555
O26_6 Li6_6 1_555 1_555
H27_6 O26_6 1_555 1_555
H28_6 O26_6 1_555 1_555
O27_4 H29_4 1_555 1_555
H30_4 O27_4 1_555 1_555
O36_3 C28_6 1_555 1_555
O29_6 Cd9 1_555 1_555
O39_3 C28_6 1_555 1_555
O42_4 C30_6 1_555 1_555
O45_4 C30_6 1_555 1_555
O33_6 Cd9 1_555 1_555
Li2_6 O8_6 1_555 1_555
Li2_6 O11_6 1_555 1_555
C7_6 O8_6 1_555 1_555
C7_6 O10_6 1_555 1_555
C8_6 O5_6 1_555 1_555
C8_6 O11_6 1_555 1_555
C10_6 C11_6 1_555 1_555
O13_6 Cd8 1_555 1_555
C17_6 C18_6 1_555 1_555
O15_6 Cd9 1_555 1_555
Li11 O20_6 1_555 1_555
Li4_6 O24_6 1_555 1_555
C25_6 O20_6 1_555 1_555
C25_6 O24_6 1_555 1_555
C26_6 C27_6 1_555 1_555
Li12 O29_6 1_555 1_555
Li6_6 O33_6 1_555 1_555
C34_6 O29_6 1_555 1_555
C34_6 O33_6 1_555 1_555
C35_6 C36_6 1_555 1_555
C1_6 C2_6 1_555 1_555
C3_6 C5_6 1_555 1_555
C5_6 C6_6 1_555 1_555
C6_6 C2_6 1_555 1_555
H2_6 C6_6 1_555 1_555
O34_3 C1_6 1_555 1_555
O37_3 C1_6 1_555 1_555
O40_4 C3_6 1_555 1_555
O43_4 C3_6 1_555 1_555
O3_5 H9_5 1_555 1_555
H10_5 O3_5 1_555 1_555
O27_5 H29_5 1_555 1_555
H30_5 O27_5 1_555 1_555
O27_6 H29_6 1_555 1_555
H30_6 O27_6 1_555 1_555
O3_6 H9_6 1_555 1_555
H10_6 O3_6 1_555 1_555

#END
