
###############################################################################
#
# This file contains modified crystal structure data generated from the
# MOF subset of the Cambridge Structural Database (CSD) v543 
# hosted by the Cambridge Crystallographic Data Centre (CCDC).
#
# This work is licensed under the Creative Commons
# Attribution-NonCommercial-ShareAlike 4.0 International License.
# To view a copy of this license, visit
# http://creativecommons.org/licenses/by-nc-sa/4.0/
# or send a letter to
# Creative Commons, PO Box 1866, Mountain View, CA 94042, USA.
#
# CIF created using the CSD Python API on 29 September 2022
# The structure has been converted into the P1 space group
# The structure has a 3D framework
# The original CSD entry JEDVIA is in the hexagonal crystal system
# The original CSD entry JEDVIA is in a Sohncke space group
# The framework has been calculated to contain at least 10.0% void space
# The void calculation uses a probe of radius 1.32A, grid spacing 0.4
#
###############################################################################

data_JEDVIA
_chemical_formula_moiety         '(C54 H36 O42 Zn6)n'
_symmetry_cell_setting           triclinic
_symmetry_space_group_name_H-M   'P 1'
_symmetry_Int_Tables_number      1
_space_group_name_Hall           'P 1'
loop_
_symmetry_equiv_pos_site_id
_symmetry_equiv_pos_as_xyz
1 x,y,z
_cell_length_a                   21.436(8)
_cell_length_b                   21.436(8)
_cell_length_c                   13.767(8)
_cell_angle_alpha                90
_cell_angle_beta                 90
_cell_angle_gamma                120
_cell_volume                     5478.45
loop_
_atom_site_label
_atom_site_type_symbol
_atom_site_fract_x
_atom_site_fract_y
_atom_site_fract_z
O3 O 0.23469(17) 0.41274(25) 0.7617(3)
O4 O 0.2901(2) 0.4882(2) 0.6377(3)
O5 O 0.08585(18) 0.60981(18) 0.5402(3)
O6 O 0.16234(19) 0.59123(18) 0.4518(3)
C2 C 0.2383(4) 0.4554(4) 0.6973(6)
C3 C 0.1218(4) 0.5803(3) 0.5254(5)
C4 C 0.0620(3) 0.4506(3) 0.7359(5)
C5 C 0.1177(3) 0.4360(3) 0.7443(4)
H4 H 0.1150 0.4029 0.7902
C6 C 0.1763(3) 0.4697(3) 0.6860(5)
C7 C 0.1757(3) 0.5132(3) 0.6176(5)
H5 H 0.2148 0.5339 0.5755
C8 C 0.1220(3) 0.5306(3) 0.6031(5)
C9 C 0.0663(3) 0.4993(3) 0.6656(4)
H6 H 0.0297 0.5105 0.6617
Zn2 Zn 0.08492(3) 0.68006(3) 0.45451(5)
Zn3 Zn 0.31994(3) 0.40486(4) 0.78784(5)
O7 O 0.9553(2) 0.2689(2) 0.0351(3)
H2 H 0.9560 0.2728 0.0966
H3 H 0.9183 0.2271 0.0316
O9 O 0.91415(18) 0.39019(18) 0.0402(3)
Zn1 Zn 0.91508(3) 0.31994(3) 0.95451(5)
O1 O 0.99275(18) 0.3641(2) 0.8578(3)
O2 O 0.94695(16) 0.42897(16) 0.7961(3)
H1 H 0.9601 0.4614 0.7560
C1 C 0.9950(3) 0.4106(3) 0.8045(5)
O8 O 0.82195(30) 0.23469(17) 0.9284(3)
Zn1_2 Zn 0.68006(3) 0.59514(4) 0.28784(5)
O1_2 O 0.6359(2) 0.62865(27) 0.1911(3)
O2_2 O 0.57103(16) 0.51798(23) 0.1294(3)
H1_2 H 0.5386 0.4987 0.0893
O3_2 O 0.58726(25) 0.82195(30) 0.0950(3)
O7_2 O 0.7311(2) 0.6864(3) 0.3684(3)
H2_2 H 0.7272 0.6832 0.4299
H3_2 H 0.7729 0.6912 0.3649
C1_2 C 0.5894(3) 0.5844(4) 0.1378(5)
C2_2 C 0.5446(4) 0.7829(6) 0.0306(6)
C4_2 C 0.5494(3) 0.6114(4) 0.0692(5)
C5_2 C 0.5640(3) 0.6817(4) 0.0776(4)
H4_2 H 0.5971 0.7121 0.1235
C6_2 C 0.5303(3) 0.7066(4) 0.0193(5)
Zn3_2 Zn 0.59514(4) 0.91508(5) 0.12118(5)
O8_2 O 0.76531(17) 0.58726(34) 0.2617(3)
O9_2 O 0.60981(18) 0.52396(25) 0.3735(3)
O4_2 O 0.5118(2) 0.8019(3) 0.9710(3)
O5_2 O 0.39019(18) 0.47604(25) 0.8735(3)
O6_2 O 0.40877(18) 0.57111(26) 0.7851(3)
C3_2 C 0.4197(3) 0.5415(5) 0.8587(5)
C7_2 C 0.4868(3) 0.6625(4) 0.9509(5)
H5_2 H 0.4661 0.6809 0.9088
C8_2 C 0.4694(3) 0.5914(4) 0.9364(5)
C9_2 C 0.5007(3) 0.5670(4) 0.9989(4)
H6_2 H 0.4895 0.5192 0.9950
Zn1_3 Zn 0.40486(4) 0.08492(3) 0.62118(5)
O1_3 O 0.37135(27) 0.00725(18) 0.5245(3)
O2_3 O 0.48202(23) 0.05305(16) 0.4628(3)
H1_3 H 0.5013 0.0399 0.4227
O7_3 O 0.3136(3) 0.0447(2) 0.7018(3)
H2_3 H 0.3168 0.0440 0.7633
H3_3 H 0.3088 0.0817 0.6983
C1_3 C 0.4156(4) 0.0050(3) 0.4712(5)
O8_3 O 0.41274(34) 0.17805(30) 0.5950(3)
O9_3 O 0.47604(25) 0.08585(18) 0.7069(3)
O3_3 O 0.17805(30) 0.76531(17) 0.4284(3)
O4_3 O 0.1981(3) 0.7099(2) 0.3044(3)
O5_3 O 0.52396(25) 0.91415(18) 0.2069(3)
O6_3 O 0.42889(26) 0.83766(19) 0.1185(3)
C2_3 C 0.2171(6) 0.7617(4) 0.3640(6)
C3_3 C 0.4585(5) 0.8782(4) 0.1921(5)
C4_3 C 0.3886(4) 0.9380(3) 0.4026(5)
C5_3 C 0.3183(4) 0.8823(3) 0.4110(4)
H4_3 H 0.2879 0.8850 0.4569
C6_3 C 0.2934(4) 0.8237(3) 0.3527(5)
C7_3 C 0.3375(4) 0.8243(3) 0.2843(5)
H5_3 H 0.3191 0.7852 0.2422
C8_3 C 0.4086(4) 0.8780(3) 0.2698(5)
C9_3 C 0.4330(4) 0.9337(3) 0.3323(4)
H6_3 H 0.4808 0.9703 0.3284
O1_4 O 0.00725(18) 0.6359(2) 0.3578(3)
O2_4 O 0.05305(16) 0.57103(16) 0.2961(3)
H1_4 H 0.0399 0.5386 0.2560
O7_4 O 0.0447(2) 0.7311(2) 0.5351(3)
H2_4 H 0.0440 0.7272 0.5966
H3_4 H 0.0817 0.7729 0.5316
C1_4 C 0.0050(3) 0.5894(3) 0.3045(5)
O4_4 O 0.7099(2) 0.5118(2) 0.1377(3)
C2_4 C 0.7617(4) 0.5446(4) 0.1973(6)
C3_4 C 0.8782(4) 0.4197(3) 0.0254(5)
C4_4 C 0.9380(3) 0.5494(3) 0.2359(5)
C5_4 C 0.8823(3) 0.5640(3) 0.2443(4)
H4_4 H 0.8850 0.5971 0.2902
C6_4 C 0.8237(3) 0.5303(3) 0.1860(5)
C7_4 C 0.8243(3) 0.4868(3) 0.1176(5)
H5_4 H 0.7852 0.4661 0.0755
C8_4 C 0.8780(3) 0.4694(3) 0.1031(5)
C9_4 C 0.9337(3) 0.5007(3) 0.1656(4)
H6_4 H 0.9703 0.4895 0.1617
O6_4 O 0.83766(19) 0.40877(18) 0.9518(3)
O1_5 O 0.3641(2) 0.37135(27) 0.6911(3)
O2_5 O 0.42897(16) 0.48202(23) 0.6294(3)
H1_5 H 0.4614 0.5013 0.5893
O4_5 O 0.4882(2) 0.1981(3) 0.4710(3)
O6_5 O 0.59123(18) 0.42889(26) 0.2851(3)
O7_5 O 0.2689(2) 0.3136(3) 0.8684(3)
H2_5 H 0.2728 0.3168 0.9299
H3_5 H 0.2271 0.3088 0.8649
C1_5 C 0.4106(3) 0.4156(4) 0.6378(5)
C2_5 C 0.4554(4) 0.2171(6) 0.5306(6)
C3_5 C 0.5803(3) 0.4585(5) 0.3587(5)
C4_5 C 0.4506(3) 0.3886(4) 0.5692(5)
C5_5 C 0.4360(3) 0.3183(4) 0.5776(4)
H4_5 H 0.4029 0.2879 0.6235
C6_5 C 0.4697(3) 0.2934(4) 0.5193(5)
C7_5 C 0.5132(3) 0.3375(4) 0.4509(5)
H5_5 H 0.5339 0.3191 0.4088
C8_5 C 0.5306(3) 0.4086(4) 0.4364(5)
C9_5 C 0.4993(3) 0.4330(4) 0.4989(4)
H6_5 H 0.5105 0.4808 0.4950
O4_6 O 0.8019(3) 0.2901(2) 0.8044(3)
O6_6 O 0.57111(26) 0.16234(19) 0.6185(3)
C2_6 C 0.7829(6) 0.2383(4) 0.8640(6)
C3_6 C 0.5415(5) 0.1218(4) 0.6921(5)
C4_6 C 0.6114(4) 0.0620(3) 0.9026(5)
C5_6 C 0.6817(4) 0.1177(3) 0.9110(4)
H4_6 H 0.7121 0.1150 0.9569
C6_6 C 0.7066(4) 0.1763(3) 0.8527(5)
C7_6 C 0.6625(4) 0.1757(3) 0.7843(5)
H5_6 H 0.6809 0.2148 0.7422
C8_6 C 0.5914(4) 0.1220(3) 0.7698(5)
C9_6 C 0.5670(4) 0.0663(3) 0.8323(4)
H6_6 H 0.5192 0.0297 0.8284
O1_6 O 0.62865(27) 0.99275(18) 0.0245(3)
O7_6 O 0.6864(3) 0.9553(2) 0.2018(3)
H2_6 H 0.6832 0.9560 0.2633
H3_6 H 0.6912 0.9183 0.1983
O2_6 O 0.51798(23) 0.94695(16) 0.9628(3)
H1_6 H 0.4987 0.9601 0.9227
C1_6 C 0.5844(4) 0.9950(3) 0.9712(5)
loop_
_geom_bond_atom_site_label_1
_geom_bond_atom_site_label_2
_geom_bond_site_symmetry_1
_geom_bond_site_symmetry_2
O3 C2 1_555 1_555
O4 C2 1_555 1_555
O5 C3 1_555 1_555
O6 C3 1_555 1_555
C2 C6 1_555 1_555
C3 C8 1_555 1_555
C5 C4 1_555 1_555
H4 C5 1_555 1_555
C6 C5 1_555 1_555
C7 C6 1_555 1_555
H5 C7 1_555 1_555
C8 C7 1_555 1_555
C9 C4 1_555 1_555
H6 C9 1_555 1_555
Zn2 O5 1_555 1_555
Zn3 O3 1_555 1_555
C8 C9 1_555 1_555
H2 O7 1_555 1_555
H3 O7 1_555 1_555
Zn1 O1 1_555 1_555
O1 C1 1_555 1_555
O2 H1 1_555 1_555
C1 O2 1_555 1_555
O8 Zn1 1_555 1_555
Zn1_2 O1_2 1_555 1_555
O1_2 C1_2 1_555 1_555
O2_2 H1_2 1_555 1_555
O3_2 C2_2 1_555 1_555
O7_2 Zn1_2 1_555 1_555
H2_2 O7_2 1_555 1_555
H3_2 O7_2 1_555 1_555
C1_2 O2_2 1_555 1_555
C2_2 C6_2 1_555 1_555
C4_2 C1_2 1_555 1_555
C5_2 C4_2 1_555 1_555
H4_2 C5_2 1_555 1_555
C6_2 C5_2 1_555 1_555
Zn3_2 O3_2 1_555 1_555
O8_2 Zn1_2 1_555 1_555
O9_2 Zn1_2 1_555 1_555
O5_2 C3_2 1_555 1_555
O6_2 C3_2 1_555 1_555
C3_2 C8_2 1_555 1_555
H5_2 C7_2 1_555 1_555
C8_2 C7_2 1_555 1_555
H6_2 C9_2 1_555 1_555
Zn3 O5_2 1_555 1_555
C8_2 C9_2 1_555 1_555
Zn1_3 O1_3 1_555 1_555
O1_3 C1_3 1_555 1_555
O2_3 H1_3 1_555 1_555
O7_3 Zn1_3 1_555 1_555
H2_3 O7_3 1_555 1_555
H3_3 O7_3 1_555 1_555
C1_3 O2_3 1_555 1_555
O8_3 Zn1_3 1_555 1_555
O9_3 Zn1_3 1_555 1_555
O3_3 C2_3 1_555 1_555
O4_3 C2_3 1_555 1_555
O5_3 C3_3 1_555 1_555
O6_3 C3_3 1_555 1_555
C2_3 C6_3 1_555 1_555
C3_3 C8_3 1_555 1_555
C5_3 C4_3 1_555 1_555
H4_3 C5_3 1_555 1_555
C6_3 C5_3 1_555 1_555
C7_3 C6_3 1_555 1_555
H5_3 C7_3 1_555 1_555
C8_3 C7_3 1_555 1_555
C9_3 C4_3 1_555 1_555
H6_3 C9_3 1_555 1_555
Zn3_2 O5_3 1_555 1_555
Zn2 O3_3 1_555 1_555
C8_3 C9_3 1_555 1_555
Zn2 O1_4 1_555 1_555
O1_4 C1_4 1_555 1_555
O2_4 H1_4 1_555 1_555
O7_4 Zn2 1_555 1_555
H2_4 O7_4 1_555 1_555
H3_4 O7_4 1_555 1_555
C1_4 O2_4 1_555 1_555
O8_2 C2_4 1_555 1_555
O4_4 C2_4 1_555 1_555
O9 C3_4 1_555 1_555
C2_4 C6_4 1_555 1_555
C3_4 C8_4 1_555 1_555
C5_4 C4_4 1_555 1_555
H4_4 C5_4 1_555 1_555
C6_4 C5_4 1_555 1_555
C7_4 C6_4 1_555 1_555
H5_4 C7_4 1_555 1_555
C8_4 C7_4 1_555 1_555
C9_4 C4_4 1_555 1_555
H6_4 C9_4 1_555 1_555
C8_4 C9_4 1_555 1_555
Zn3 O1_5 1_555 1_555
O1_5 C1_5 1_555 1_555
O2_5 H1_5 1_555 1_555
O8_3 C2_5 1_555 1_555
O4_5 C2_5 1_555 1_555
O9_2 C3_5 1_555 1_555
O6_5 C3_5 1_555 1_555
O7_5 Zn3 1_555 1_555
H2_5 O7_5 1_555 1_555
H3_5 O7_5 1_555 1_555
C1_5 O2_5 1_555 1_555
C2_5 C6_5 1_555 1_555
C3_5 C8_5 1_555 1_555
C4_5 C1_5 1_555 1_555
C5_5 C4_5 1_555 1_555
H4_5 C5_5 1_555 1_555
C6_5 C5_5 1_555 1_555
C7_5 C6_5 1_555 1_555
H5_5 C7_5 1_555 1_555
C8_5 C7_5 1_555 1_555
C9_5 C4_5 1_555 1_555
H6_5 C9_5 1_555 1_555
C8_5 C9_5 1_555 1_555
O8 C2_6 1_555 1_555
O4_6 C2_6 1_555 1_555
O9_3 C3_6 1_555 1_555
O6_6 C3_6 1_555 1_555
C2_6 C6_6 1_555 1_555
C3_6 C8_6 1_555 1_555
C5_6 C4_6 1_555 1_555
H4_6 C5_6 1_555 1_555
C6_6 C5_6 1_555 1_555
C7_6 C6_6 1_555 1_555
H5_6 C7_6 1_555 1_555
C8_6 C7_6 1_555 1_555
C9_6 C4_6 1_555 1_555
H6_6 C9_6 1_555 1_555
C8_6 C9_6 1_555 1_555
Zn3_2 O1_6 1_555 1_555
O7_6 Zn3_2 1_555 1_555
H2_6 O7_6 1_555 1_555
H3_6 O7_6 1_555 1_555
O2_6 H1_6 1_555 1_555
C1_6 O2_6 1_555 1_555

#END
