
###############################################################################
#
# This file contains modified crystal structure data generated from the
# MOF subset of the Cambridge Structural Database (CSD) v543 
# hosted by the Cambridge Crystallographic Data Centre (CCDC).
#
# This work is licensed under the Creative Commons
# Attribution-NonCommercial-ShareAlike 4.0 International License.
# To view a copy of this license, visit
# http://creativecommons.org/licenses/by-nc-sa/4.0/
# or send a letter to
# Creative Commons, PO Box 1866, Mountain View, CA 94042, USA.
#
# CIF created using the CSD Python API on 29 September 2022
# The structure has been converted into the P1 space group
# The structure has a 3D framework
# The original CSD entry JEFSUJ is in the monoclinic crystal system
# The framework has been calculated to contain at least 10.0% void space
# The void calculation uses a probe of radius 1.32A, grid spacing 0.4
# H atom positions have been added when not included in the experimental data
#
###############################################################################

data_JEFSUJ
_chemical_formula_moiety         '(C24 H48 Cu2 Fe9 N20)n'
_symmetry_cell_setting           triclinic
_symmetry_space_group_name_H-M   'P 1'
_symmetry_Int_Tables_number      1
_space_group_name_Hall           'P 1'
loop_
_symmetry_equiv_pos_site_id
_symmetry_equiv_pos_as_xyz
1 x,y,z
_cell_length_a                   7.5721(11)
_cell_length_b                   10.7215(14)
_cell_length_c                   12.9266(18)
_cell_angle_alpha                90
_cell_angle_beta                 90.013(12)
_cell_angle_gamma                90
_cell_volume                     1049.44
loop_
_atom_site_label
_atom_site_type_symbol
_atom_site_fract_x
_atom_site_fract_y
_atom_site_fract_z
H13 H 0.0174 0.1189 0.4615
N2 N 0.0359(5) 0.4234(3) 0.2367(3)
H3 H 0.046 0.4887 0.2801
H4 H 0.1392 0.415 0.203
Fe1 Fe 0.00000 -0.00000 0.00000
Cu8 Cu 0.98994(9) 0.26890(4) 0.31922(4)
N6 N 0.9387(5) 0.1176(3) 0.4094(3)
H11 H 0.9635 0.0497 0.3711
N14 N 0.0298(6) 0.1614(3) 0.1962(3)
C7 C 0.7605(7) 0.0960(5) 0.4572(4)
H19 H 0.7298 0.1676 0.4994
H20 H 0.7668 0.0238 0.5022
C8 C 0.6165(8) 0.0753(5) 0.3777(5)
H21 H 0.5035 0.0968 0.4082
H22 H 0.6363 0.1307 0.3196
C12 C 0.0229(7) 0.1022(3) 0.1217(3)
Fe1_2 Fe -0.00000 -0.00000 1.00000
Cu6 Cu 0.48994(9) 0.23110(4) 0.81922(4)
N11 N 0.3037(5) 0.1359(4) 0.8955(3)
C11 C 0.1875(6) 0.0851(4) 0.9352(4)
Fe1_3 Fe 0.00000 1.00000 0.00000
Cu1 Cu 0.51006(9) 0.76890(4) 0.18078(4)
N1 N 0.5613(5) 0.6176(3) 0.0906(3)
H1 H 0.5365 0.5497 0.1289
H2 H 0.4826 0.6189 0.0385
N3 N 0.2698(5) 0.8120(4) 0.0879(3)
C1 C 0.7395(7) 0.5960(5) 0.0428(4)
H5 H 0.7702 0.6676 0.0006
C2 C 0.8835(8) 0.5753(5) 0.1223(5)
H7 H 0.9965 0.5968 0.0918
H8 H 0.8637 0.6307 0.1804
C3 C 0.8909(8) 0.4503(5) 0.1589(4)
H9 H 0.9066 0.3953 0.1
H10 H 0.7782 0.43 0.1904
C4 C 0.1657(6) 0.8810(5) 0.0561(4)
N8 N 0.4641(5) 0.9234(3) 0.2633(3)
H15 H 0.454 0.9887 0.2199
H17 H 0.3608 0.915 0.297
N12 N 0.6963(5) 0.8641(4) 0.1045(3)
N15 N 0.4702(6) 0.6614(3) 0.3038(3)
C9 C 0.6091(8) 0.9503(5) 0.3411(4)
H23 H 0.5934 0.8953 0.4
H24 H 0.7218 0.93 0.3096
Fe1_4 Fe -0.00000 1.00000 1.00000
H6 H 0.7332 0.5238 0.9978
Cu5 Cu 0.01006(9) 0.73110(4) 0.68078(4)
Fe1_5 Fe 1.00000 -0.00000 0.00000
Fe1_6 Fe 1.00000 -0.00000 1.00000
N7 N 0.4387(5) 0.3824(3) 0.9094(3)
H12 H 0.4635 0.4503 0.8711
H14 H 0.5174 0.3811 0.9615
N9 N 0.5359(5) 0.0766(3) 0.7367(3)
H16 H 0.546 0.0113 0.7801
H18 H 0.6392 0.085 0.703
N10 N 0.7302(5) 0.1880(4) 0.9121(3)
N16 N 0.5298(6) 0.3386(3) 0.6962(3)
C10 C 0.8343(6) 0.1190(5) 0.9439(4)
H25 H 0.312322 0.382948 0.935553
H26 H 0.436253 0.0618059 0.685621
Fe1_7 Fe 1.00000 1.00000 0.00000
C5 C 0.8125(6) 0.9149(4) 0.0648(4)
Fe1_8 Fe 1.00000 1.00000 1.00000
N5 N 0.9702(6) 0.8386(3) 0.8038(3)
C6 C 0.9771(7) 0.8978(3) 0.8783(3)
N7_2 N 0.0613(5) 0.8824(3) 0.5906(3)
H12_2 H 0.0365 0.9503 0.6289
N13 N 0.1963(5) 0.6359(4) 0.6045(3)
H25_2 H 0.187678 0.882948 0.564447
H26_2 H 0.0637472 0.561806 0.814379
Fe1_9 Fe 0.50000 0.50000 0.50000
N3_2 N 0.2302(5) 0.3120(4) 0.4121(3)
N4 N 0.8037(5) 0.3641(4) 0.3955(3)
C4_2 C 0.3343(6) 0.3810(5) 0.4439(4)
C5_2 C 0.6875(6) 0.4149(4) 0.4352(4)
C6_2 C 0.5229(7) 0.3978(3) 0.6217(3)
H14_2 H 0.9826 0.8811 0.5385
N9_2 N 0.9641(5) 0.5766(3) 0.7633(3)
H16_2 H 0.954 0.5113 0.7199
H18_2 H 0.8608 0.585 0.797
N10_2 N 0.7698(5) 0.6880(4) 0.5879(3)
C10_2 C 0.6657(6) 0.6190(5) 0.5561(4)
C11_2 C 0.3125(6) 0.5851(4) 0.5648(4)
C12_2 C 0.4771(7) 0.6022(3) 0.3783(3)
H25_3 H 0.687678 0.617052 0.064447
H26_3 H 0.563747 0.938194 0.314379
H6_2 H 0.2668 0.4762 0.0022
C1_2 C 0.2605(7) 0.4040(5) 0.9572(4)
H5_2 H 0.2298 0.3324 0.9994
C2_2 C 0.1165(8) 0.4247(5) 0.8777(5)
H7_2 H 0.0035 0.4032 0.9082
H8_2 H 0.1363 0.3693 0.8196
C3_2 C 0.1091(8) 0.5497(5) 0.8411(4)
H9_2 H 0.0934 0.6047 0.9
H10_2 H 0.2218 0.57 0.8096
C9_2 C 0.3909(8) 0.0497(5) 0.6589(4)
H23_2 H 0.4066 0.1047 0.6
H24_2 H 0.2782 0.07 0.6904
C7_2 C 0.2395(7) 0.9040(5) 0.5428(4)
H19_2 H 0.2702 0.8324 0.5006
H20_2 H 0.2332 0.9762 0.4978
C8_2 C 0.3835(8) 0.9247(5) 0.6223(5)
H21_2 H 0.4965 0.9032 0.5918
H22_2 H 0.3637 0.8693 0.6804
H25_4 H 0.812322 0.117052 0.435553
H26_4 H 0.936253 0.438194 0.185621
loop_
_geom_bond_atom_site_label_1
_geom_bond_atom_site_label_2
_geom_bond_site_symmetry_1
_geom_bond_site_symmetry_2
N2 H3 1_555 1_555
H4 N2 1_555 1_555
Cu8 N6 1_555 1_555
N6 H11 1_555 1_555
N14 C12 1_555 1_555
C7 N6 1_555 1_555
H19 C7 1_555 1_555
H20 C7 1_555 1_555
C8 C7 1_555 1_555
H21 C8 1_555 1_555
H22 C8 1_555 1_555
C12 Fe1 1_555 1_555
Cu6 N11 1_555 1_555
N11 C11 1_555 1_555
C11 Fe1_2 1_555 1_555
Fe1_3 C4 1_555 1_555
Cu1 N1 1_555 1_555
N1 H1 1_555 1_555
H2 N1 1_555 1_555
N3 Cu1 1_555 1_555
C1 N1 1_555 1_555
H5 C1 1_555 1_555
C2 C1 1_555 1_555
H7 C2 1_555 1_555
H8 C2 1_555 1_555
H9 C3 1_555 1_555
H10 C3 1_555 1_555
C4 N3 1_555 1_555
N8 Cu1 1_555 1_555
H15 N8 1_555 1_555
H17 N8 1_555 1_555
N12 Cu1 1_555 1_555
N15 Cu1 1_555 1_555
C9 N8 1_555 1_555
H23 C9 1_555 1_555
H24 C9 1_555 1_555
C2 C3 1_555 1_555
Cu6 N7 1_555 1_555
N7 H12 1_555 1_555
H14 N7 1_555 1_555
N9 Cu6 1_555 1_555
H16 N9 1_555 1_555
H18 N9 1_555 1_555
N10 Cu6 1_555 1_555
N16 Cu6 1_555 1_555
C10 Fe1_6 1_555 1_555
N10 C10 1_555 1_555
N7 H25 1_555 1_555
N9 H26 1_555 1_555
N12 C5 1_555 1_555
C5 Fe1_7 1_555 1_555
N5 C6 1_555 1_555
C6 Fe1_8 1_555 1_555
Cu5 N7_2 1_555 1_555
N7_2 H12_2 1_555 1_555
N13 Cu5 1_555 1_555
N7_2 H25_2 1_555 1_555
Fe1_9 C4_2 1_555 1_555
N4 C5_2 1_555 1_555
N16 C6_2 1_555 1_555
C4_2 N3_2 1_555 1_555
C5_2 Fe1_9 1_555 1_555
C6_2 Fe1_9 1_555 1_555
Cu8 N4 1_555 1_555
H16_2 N9_2 1_555 1_555
H18_2 N9_2 1_555 1_555
N13 C11_2 1_555 1_555
N15 C12_2 1_555 1_555
C10_2 Fe1_9 1_555 1_555
C11_2 Fe1_9 1_555 1_555
C12_2 Fe1_9 1_555 1_555
N10_2 C10_2 1_555 1_555
N1 H25_3 1_555 1_555
N8 H26_3 1_555 1_555
C1_2 N7 1_555 1_555
H5_2 C1_2 1_555 1_555
C2_2 C1_2 1_555 1_555
H7_2 C2_2 1_555 1_555
H8_2 C2_2 1_555 1_555
H9_2 C3_2 1_555 1_555
H10_2 C3_2 1_555 1_555
C9_2 N9 1_555 1_555
H23_2 C9_2 1_555 1_555
H24_2 C9_2 1_555 1_555
C2_2 C3_2 1_555 1_555
C7_2 N7_2 1_555 1_555
H19_2 C7_2 1_555 1_555
H20_2 C7_2 1_555 1_555
C8_2 C7_2 1_555 1_555
H21_2 C8_2 1_555 1_555
H22_2 C8_2 1_555 1_555
N6 H25_4 1_555 1_555

#END
