
###############################################################################
#
# This file contains modified crystal structure data generated from the
# MOF subset of the Cambridge Structural Database (CSD) v543 
# hosted by the Cambridge Crystallographic Data Centre (CCDC).
#
# This work is licensed under the Creative Commons
# Attribution-NonCommercial-ShareAlike 4.0 International License.
# To view a copy of this license, visit
# http://creativecommons.org/licenses/by-nc-sa/4.0/
# or send a letter to
# Creative Commons, PO Box 1866, Mountain View, CA 94042, USA.
#
# CIF created using the CSD Python API on 29 September 2022
# The structure has been converted into the P1 space group
# The structure has a 3D framework
# The original CSD entry JEFWUQ is in the orthorhombic crystal system
# The framework has been calculated to contain at least 10.0% void space
# The void calculation uses a probe of radius 1.32A, grid spacing 0.4
# H atom positions have been added when not included in the experimental data
#
###############################################################################

data_JEFWUQ
_chemical_formula_moiety         '(C180 H156 Co8 N36 O172 Si4 W48)n'
_symmetry_cell_setting           triclinic
_symmetry_space_group_name_H-M   'P 1'
_symmetry_Int_Tables_number      1
_space_group_name_Hall           'P 1'
loop_
_symmetry_equiv_pos_site_id
_symmetry_equiv_pos_as_xyz
1 x,y,z
_cell_length_a                   27.565(2)
_cell_length_b                   14.4114(11)
_cell_length_c                   19.8811(15)
_cell_angle_alpha                90
_cell_angle_beta                 90
_cell_angle_gamma                90
_cell_volume                     7897.77
loop_
_atom_site_label
_atom_site_type_symbol
_atom_site_fract_x
_atom_site_fract_y
_atom_site_fract_z
O2 O 0.0141(7) 0.8419(15) 0.4399(10)
N3 N 0.0739(6) 0.6623(13) 0.2923(9)
N5 N 0.2920(9) 0.213(2) 0.3967(15)
C8 C 0.0772(9) 0.606(2) 0.2376(15)
H4 H 0.1064 0.6047 0.2141
C9 C 0.0301(9) 0.663(2) 0.3232(14)
H5 H 0.0267 0.7001 0.3613
C11 C 0.2744(16) 0.310(3) 0.497(2)
H6 H 0.2824 0.3613 0.5225
C21 C 0.0436(13) 0.276(3) 0.566(2)
H9 H 0.0597 0.2916 0.5262
C27 C 0.0674(17) 0.264(3) 0.628(2)
H17 H 0.0097 0.2392 0.4401
C32 C 0.1450(14) 0.330(3) 0.6768(19)
H18 H 0.1258 0.3487 0.7130
C33 C 0.1211(15) 0.286(4) 0.624(2)
C34 C 0.3015(18) 0.284(4) 0.438(2)
H19 H 0.3284 0.3201 0.4282
N8 N 0.1921(15) 0.349(3) 0.6812(17)
C35 C 0.2357(16) 0.253(4) 0.513(2)
C36 C 0.2214(19) 0.331(3) 0.629(3)
H20 H 0.2538 0.3494 0.6304
N9 N 0.0039(16) 0.205(4) 0.6823(18)
C37 C 0.0497(19) 0.223(6) 0.674(3)
H21 H 0.0707 0.2016 0.7077
C38 C 0.228(2) 0.175(4) 0.480(4)
H22 H 0.2044 0.1334 0.4932
C40 C 0.203(2) 0.285(4) 0.569(2)
C42 C 0.1527(13) 0.258(4) 0.570(3)
H24 H 0.1404 0.2209 0.5360
C43 C 0.0397(9) 0.552(2) 0.2154(15)
H25 H 0.0440 0.5127 0.1785
C45 C 0.263(2) 0.156(5) 0.417(4)
H26 H 0.2611 0.0989 0.3947
Co3 Co 0.13433(11) 0.7280(2) 0.33722(16)
Co6 Co 0.34402(14) 0.1724(3) 0.32575(19)
O42 O 0.8824(9) 0.0636(15) 0.4514(16)
C18 C 0.8122(15) 0.037(2) 0.2712(18)
C19 C 0.8129(14) 0.141(4) 0.2958(17)
H8 H 0.7865 0.1677 0.3179
N7 N 0.8509(8) 0.1877(16) 0.2841(11)
C28 C 0.8909(15) 0.151(3) 0.252(2)
H14 H 0.9191 0.1857 0.2546
C44 C 0.895(2) 0.059(4) 0.214(3)
Co5 Co 0.84402(14) 0.3276(3) 0.32575(19)
H38 H 0.753147 0.0523705 0.380326
H39 H 0.923627 0.0399074 0.17888
W1 W 0.96391(4) 0.79362(8) 0.47824(6)
W2 W 0.94538(4) 0.57415(9) 0.52441(6)
W3 W 0.83929(4) 0.56068(9) 0.41419(6)
W4 W 0.86530(5) 0.96502(10) 0.48928(9)
W5 W 0.83300(4) 0.67525(10) 0.70882(6)
W6 W 0.85930(5) 0.77845(12) 0.36449(7)
W7 W 0.82669(4) 0.50623(9) 0.59372(6)
W8 W 0.95258(4) 0.74098(9) 0.64202(7)
W9 W 0.73717(4) 0.66222(10) 0.60537(6)
W10 W 0.75746(5) 0.90377(11) 0.55361(8)
W11 W 0.85469(5) 0.91512(10) 0.65413(8)
W12 W 0.75104(4) 0.71881(9) 0.42652(6)
O1 O 0.8355(6) 0.8427(12) 0.5528(11)
Si1 Si 0.8489(2) 0.7336(4) 0.5380(3)
Co1 Co 0.63433(11) 0.7720(2) 0.33722(16)
O3 O 0.9026(6) 0.5608(13) 0.4508(8)
O4 O 0.8995(6) 0.6851(15) 0.6885(9)
O5 O 0.6954(7) 0.7143(15) 0.3867(10)
O6 O 0.9205(6) 0.7687(15) 0.4034(11)
O7 O 0.8518(7) 0.8878(17) 0.4145(11)
O8 O 0.8597(6) 0.6468(13) 0.3472(9)
O9 O 0.9250(6) 0.9005(13) 0.4929(10)
O10 O 0.7357(6) 0.6620(13) 0.5102(9)
O11 O 0.8203(6) 0.6661(13) 0.5929(8)
O12 O 0.9719(7) 0.6258(12) 0.6067(9)
O13 O 0.7590(6) 0.5369(13) 0.6029(9)
O14 O 0.7987(6) 0.9888(16) 0.5005(12)
O15 O 0.8352(7) 0.5497(17) 0.6845(10)
O16 O 0.8380(7) 0.4609(16) 0.3649(10)
O17 O 0.9935(7) 0.7560(16) 0.7045(11)
O18 O 0.6778(6) 0.6434(16) 0.6252(11)
O19 O 0.7898(6) 0.7696(15) 0.3563(10)
O20 O 0.8181(6) 0.5145(12) 0.4987(9)
O21 O 0.8297(6) 0.7043(13) 0.4628(8)
O22 O 0.7501(7) 0.8294(16) 0.4739(10)
N2 N 0.6876(8) 0.8756(17) 0.3085(11)
O23 O 0.9076(6) 0.7159(13) 0.5423(9)
O24 O 0.8924(6) 0.5274(13) 0.5776(9)
O25 O 0.5941(6) 0.6487(14) 0.3619(10)
O26 O 0.8244(7) 0.3898(17) 0.6047(11)
O27 O 0.7402(6) 0.7930(15) 0.5975(10)
O28 O 0.9815(6) 0.4830(13) 0.5168(10)
O29 O 0.7058(8) 0.9682(17) 0.5564(15)
O30 O 0.7632(6) 0.6762(15) 0.6930(10)
O31 O 0.9157(7) 0.8549(14) 0.6466(12)
O32 O 0.6532(11) 0.6844(18) 0.2508(13)
C1 C 0.6999(12) 0.937(2) 0.3536(19)
C2 C 0.9553(8) 0.4948(19) 0.2237(12)
O33 O 0.8744(9) 0.816(2) 0.2850(12)
C3 C 0.9472(8) 0.4766(18) 0.1569(13)
H1 H 0.9658 0.5069 0.1246
O34 O 0.8340(8) 0.669(2) 0.7951(11)
N4 N 0.8901(8) 0.3880(16) 0.2550(11)
C4 C 0.9265(9) 0.448(2) 0.2713(13)
H2 H 0.9328 0.4581 0.3167
O35 O 0.7846(9) 0.354(2) 0.2609(11)
C5 C 0.8907(10) 0.2946(19) 0.0538(14)
H3 H 0.8875 0.2519 0.0885
N6 N 0.8993(10) 0.309(2) 0.3977(14)
O36 O 0.9825(6) 0.6663(13) 0.4762(10)
O37 O 0.7742(6) 0.6017(14) 0.3977(9)
O38 O 0.9873(7) 0.8014(14) 0.5713(11)
O39 O 0.8302(7) 0.8066(16) 0.6955(11)
O40 O 0.8643(10) 0.9902(19) 0.7193(15)
C6 C 0.9958(9) 0.5550(19) 0.2480(11)
C7 C 0.9896(9) 0.6128(18) 0.3019(13)
O41 O 0.7886(7) 0.9483(15) 0.6323(12)
C10 C 0.7535(10) 0.917(2) 0.2397(17)
C12 C 0.7688(10) 0.9816(19) 0.2839(18)
C13 C 0.7428(11) 0.999(2) 0.3443(15)
C14 C 0.7134(11) 0.864(2) 0.2555(15)
C15 C 0.8836(9) 0.3702(19) 0.1876(12)
H7 H 0.8597 0.3278 0.1754
C17 C 0.9109(8) 0.4124(17) 0.1360(12)
C20 C 0.9631(17) 0.275(3) 0.5069(19)
C22 C 0.9145(16) 0.313(3) 0.520(2)
H10 H 0.9049 0.3320 0.5626
C23 C 0.882(3) 0.320(5) 0.462(2)
H11 H 0.8490 0.3324 0.4683
C24 C 0.9032(9) 0.382(2) 0.0666(13)
C25 C 0.9094(9) 0.4421(19) 0.0120(12)
H12 H 0.9189 0.5034 0.0182
C29 C 0.9771(16) 0.223(3) 0.625(2)
H15 H 0.9445 0.2059 0.6242
C30 C 0.8520(14) 0.999(3) 0.234(2)
H16 H 0.8516 0.9369 0.2222
C31 C 0.9780(14) 0.260(4) 0.446(2)
O43 O 0.8756(7) 0.9963(15) 0.5816(13)
C39 C 0.945(2) 0.274(4) 0.384(3)
H23 H 0.9554 0.2601 0.3403
C41 C 0.9974(18) 0.264(5) 0.569(3)
N10 N 0.6135(6) 0.8260(14) 0.4353(9)
N11 N 0.5739(6) 0.8377(13) 0.2923(9)
N12 N 0.7920(9) 0.287(2) 0.3967(15)
H27 H 0.592934 0.641188 0.411523
H28 H 0.560572 0.654119 0.344059
H29 H 0.652439 0.618154 0.264498
H30 H 0.629446 0.694813 0.214017
H31 H 0.678311 0.943217 0.399252
H32 H 0.792472 0.407144 0.231041
H33 H 0.778033 0.298105 0.233148
H34 H 0.954669 0.619355 0.327044
H35 H 0.703031 0.808954 0.220837
H37 H 0.772496 0.906793 0.192246
N1 N 0.8865(6) 0.3260(14) 0.9353(9)
C16 C 0.8824(10) 0.268(2) 0.9855(14)
C26 C 0.9007(9) 0.406(2) 0.9473(13)
H13 H 0.9062 0.4445 0.9108
Co4 Co 0.86567(11) 0.2720(2) 0.83722(16)
H36 H 0.872243 0.196464 0.974864
W1_2 W 0.03609(4) 0.20638(8) 0.97824(6)
W3_2 W 0.16071(4) 0.43932(9) 0.91419(6)
W4_2 W 0.13470(5) 0.03498(10) 0.98928(9)
W6_2 W 0.14070(5) 0.22155(12) 0.86449(7)
W12_2 W 0.24896(4) 0.28119(9) 0.92652(6)
Co1_2 Co 0.36567(11) 0.2280(2) 0.83722(16)
N1_2 N 0.1135(6) 0.6740(14) 0.4353(9)
O3_2 O 0.0974(6) 0.4392(13) 0.9508(8)
O5_2 O 0.3046(7) 0.2857(15) 0.8867(10)
O6_2 O 0.0795(6) 0.2313(15) 0.9034(11)
O7_2 O 0.1482(7) 0.1122(17) 0.9145(11)
O8_2 O 0.1403(6) 0.3532(13) 0.8472(9)
O9_2 O 0.0750(6) 0.0995(13) 0.9929(10)
O16_2 O 0.1620(7) 0.5391(16) 0.8649(10)
O19_2 O 0.2102(6) 0.2304(15) 0.8563(10)
O20_2 O 0.1819(6) 0.4855(12) 0.9987(9)
O21_2 O 0.1703(6) 0.2957(13) 0.9628(8)
O22_2 O 0.2499(7) 0.1706(16) 0.9739(10)
N2_2 N 0.3124(8) 0.1244(17) 0.8085(11)
O25_2 O 0.4059(6) 0.3513(14) 0.8619(10)
O32_2 O 0.3468(11) 0.3156(18) 0.7508(13)
C1_2 C 0.3001(12) 0.063(2) 0.8536(19)
Co2 Co 0.15598(14) 0.6724(3) 0.82575(19)
C2_2 C 0.0447(8) 0.5052(19) 0.7237(12)
O33_2 O 0.1256(9) 0.184(2) 0.7850(12)
C3_2 C 0.0528(8) 0.5234(18) 0.6569(13)
H1_2 H 0.0342 0.4931 0.6246
N4_2 N 0.1099(8) 0.6120(16) 0.7550(11)
C4_2 C 0.0735(9) 0.552(2) 0.7713(13)
H2_2 H 0.0672 0.5419 0.8167
O35_2 O 0.2154(9) 0.646(2) 0.7609(11)
C5_2 C 0.1093(10) 0.7054(19) 0.5538(14)
H3_2 H 0.1125 0.7481 0.5885
N6_2 N 0.1007(10) 0.691(2) 0.8977(14)
O36_2 O 0.0175(6) 0.3337(13) 0.9762(10)
O37_2 O 0.2258(6) 0.3983(14) 0.8977(9)
C6_2 C 0.0042(9) 0.4450(19) 0.7480(11)
C7_2 C 0.0104(9) 0.3872(18) 0.8019(13)
C10_2 C 0.2465(10) 0.083(2) 0.7397(17)
C12_2 C 0.2312(10) 0.0184(19) 0.7839(18)
C13_2 C 0.2572(11) 0.001(2) 0.8443(15)
C14_2 C 0.2866(11) 0.136(2) 0.7555(15)
C15_2 C 0.1164(9) 0.6298(19) 0.6876(12)
H7_2 H 0.1403 0.6722 0.6754
C16_2 C 0.1176(10) 0.732(2) 0.4855(14)
C17_2 C 0.0891(8) 0.5876(17) 0.6360(12)
C23_2 C 0.118(3) 0.680(5) 0.962(2)
H11_2 H 0.1510 0.6676 0.9683
C24_2 C 0.0968(9) 0.618(2) 0.5666(13)
C25_2 C 0.0906(9) 0.5579(19) 0.5120(12)
H12_2 H 0.0811 0.4966 0.5182
C26_2 C 0.0993(9) 0.594(2) 0.4473(13)
H13_2 H 0.0938 0.5555 0.4108
C30_2 C 0.1480(14) 0.001(3) 0.734(2)
H16_2 H 0.1484 0.0631 0.7222
C31_2 C 0.0220(14) 0.740(4) 0.946(2)
C39_2 C 0.055(2) 0.726(4) 0.884(3)
H23_2 H 0.0446 0.7399 0.8403
N10_2 N 0.3865(6) 0.1740(14) 0.9353(9)
N11_2 N 0.4261(6) 0.1623(13) 0.7923(9)
N12_2 N 0.2080(9) 0.713(2) 0.8967(15)
N13 N 0.1491(8) 0.8123(16) 0.7841(11)
H27_2 H 0.407066 0.358812 0.911523
H28_2 H 0.439428 0.345881 0.844059
H29_2 H 0.347561 0.381846 0.764498
H30_2 H 0.370554 0.305187 0.714017
H31_2 H 0.321689 0.056783 0.899252
H32_2 H 0.207528 0.592856 0.731041
H33_2 H 0.221967 0.701895 0.733148
H34_2 H 0.0453308 0.380645 0.827044
H35_2 H 0.296969 0.191046 0.720837
H36_2 H 0.127757 0.803536 0.474864
H37_2 H 0.227504 0.0932069 0.692246
O42_2 O 0.1176(9) 0.9364(15) 0.9514(16)
C18_2 C 0.1878(15) 0.963(2) 0.7712(18)
C19_2 C 0.1871(14) 0.859(4) 0.7958(17)
H8_2 H 0.2135 0.8323 0.8179
C28_2 C 0.1091(15) 0.849(3) 0.752(2)
H14_2 H 0.0809 0.8143 0.7546
C44_2 C 0.105(2) 0.941(4) 0.714(3)
H38_2 H 0.246853 0.947629 0.880326
H39_2 H 0.0763729 0.960093 0.67888
O2_2 O 0.9859(7) 0.1581(15) 0.9399(10)
N3_2 N 0.9261(6) 0.3377(13) 0.7923(9)
N5_2 N 0.7080(9) 0.787(2) 0.8967(15)
C8_2 C 0.9228(9) 0.394(2) 0.7376(15)
H4_2 H 0.8936 0.3953 0.7141
C9_2 C 0.9699(9) 0.337(2) 0.8232(14)
H5_2 H 0.9733 0.2999 0.8613
C11_2 C 0.7256(16) 0.690(3) 0.997(2)
H17_2 H 0.9903 0.7608 0.9401
C34_2 C 0.6985(18) 0.716(4) 0.938(2)
H19_2 H 0.6716 0.6799 0.9282
C38_2 C 0.772(2) 0.825(4) 0.980(4)
H22_2 H 0.7956 0.8666 0.9932
C43_2 C 0.9603(9) 0.448(2) 0.7154(15)
H25_2 H 0.9560 0.4873 0.6785
C45_2 C 0.737(2) 0.844(5) 0.917(4)
H26_2 H 0.7389 0.9011 0.8947
Co6_2 Co 0.65598(14) 0.8276(3) 0.82575(19)
O16_3 O 0.3380(7) 0.0391(16) 0.3649(10)
O26_2 O 0.3244(7) 0.1102(17) 0.6047(11)
O28_2 O 0.4815(6) 0.0170(13) 0.5168(10)
C2_3 C 0.4553(8) 0.0052(19) 0.2237(12)
C3_3 C 0.4472(8) 0.0234(18) 0.1569(13)
N4_3 N 0.3901(8) 0.1120(16) 0.2550(11)
C4_3 C 0.4265(9) 0.052(2) 0.2713(13)
H2_3 H 0.4328 0.0419 0.3167
O35_3 O 0.2846(9) 0.146(2) 0.2609(11)
C5_3 C 0.3907(10) 0.2054(19) 0.0538(14)
H3_3 H 0.3875 0.2481 0.0885
N6_3 N 0.3993(10) 0.191(2) 0.3977(14)
C11_3 C 0.7744(16) 0.190(3) 0.497(2)
H6_2 H 0.7824 0.1387 0.5225
C15_3 C 0.3836(9) 0.1298(19) 0.1876(12)
H7_3 H 0.3597 0.1722 0.1754
C17_3 C 0.4109(8) 0.0876(17) 0.1360(12)
C20_2 C 0.4631(17) 0.225(3) 0.5069(19)
C21_2 C 0.5436(13) 0.224(3) 0.566(2)
H9_2 H 0.5597 0.2084 0.5262
C22_2 C 0.4145(16) 0.187(3) 0.520(2)
H10_2 H 0.4049 0.1680 0.5626
C23_3 C 0.382(3) 0.180(5) 0.462(2)
H11_3 H 0.3490 0.1676 0.4683
C24_3 C 0.4032(9) 0.118(2) 0.0666(13)
C25_3 C 0.4094(9) 0.0579(19) 0.0120(12)
C27_2 C 0.5674(17) 0.236(3) 0.628(2)
C29_2 C 0.4771(16) 0.277(3) 0.625(2)
H15_2 H 0.4445 0.2941 0.6242
C31_3 C 0.4780(14) 0.240(4) 0.446(2)
H17_3 H 0.5097 0.2608 0.4401
C32_2 C 0.6450(14) 0.170(3) 0.6768(19)
H18_2 H 0.6258 0.1513 0.7130
C33_2 C 0.6211(15) 0.214(4) 0.624(2)
C34_3 C 0.8015(18) 0.216(4) 0.438(2)
H19_3 H 0.8284 0.1799 0.4282
N8_2 N 0.6921(15) 0.151(3) 0.6812(17)
C35_2 C 0.7357(16) 0.247(4) 0.513(2)
C36_2 C 0.7214(19) 0.169(3) 0.629(3)
H20_2 H 0.7538 0.1506 0.6304
N9_2 N 0.5039(16) 0.295(4) 0.6823(18)
C37_2 C 0.5497(19) 0.277(6) 0.674(3)
H21_2 H 0.5707 0.2984 0.7077
C38_3 C 0.728(2) 0.325(4) 0.480(4)
H22_3 H 0.7044 0.3666 0.4932
C39_3 C 0.445(2) 0.226(4) 0.384(3)
H23_3 H 0.4554 0.2399 0.3403
C40_2 C 0.703(2) 0.215(4) 0.569(2)
C41_2 C 0.4974(18) 0.236(5) 0.569(3)
C42_2 C 0.6527(13) 0.242(4) 0.570(3)
H24_2 H 0.6404 0.2791 0.5360
C45_3 C 0.763(2) 0.344(5) 0.417(4)
H26_3 H 0.7611 0.4011 0.3947
N13_2 N 0.3509(8) 0.3123(16) 0.2841(11)
H32_3 H 0.292472 0.092856 0.231041
H33_3 H 0.278033 0.201895 0.233148
C16_3 C 0.3824(10) 0.232(2) 0.9855(14)
C26_3 C 0.4007(9) 0.094(2) 0.9473(13)
H13_3 H 0.4062 0.0555 0.9108
H36_3 H 0.372243 0.303536 0.974864
W1_3 W 0.46391(4) 0.70638(8) 0.47824(6)
W2_2 W 0.44538(4) 0.92585(9) 0.52441(6)
W3_3 W 0.33929(4) 0.93932(9) 0.41419(6)
W4_3 W 0.36530(5) 0.53498(10) 0.48928(9)
W5_2 W 0.33300(4) 0.82475(10) 0.70882(6)
W6_3 W 0.35930(5) 0.72155(12) 0.36449(7)
W7_2 W 0.32669(4) 0.99377(9) 0.59372(6)
W8_2 W 0.45258(4) 0.75902(9) 0.64202(7)
W9_2 W 0.23717(4) 0.83778(10) 0.60537(6)
W10_2 W 0.25746(5) 0.59623(11) 0.55361(8)
W11_2 W 0.35469(5) 0.58488(10) 0.65413(8)
W12_3 W 0.25104(4) 0.78119(9) 0.42652(6)
O1_2 O 0.3355(6) 0.6573(12) 0.5528(11)
O2_3 O 0.5141(7) 0.6581(15) 0.4399(10)
Si1_2 Si 0.3489(2) 0.7664(4) 0.5380(3)
O3_3 O 0.4026(6) 0.9392(13) 0.4508(8)
O4_2 O 0.3995(6) 0.8149(15) 0.6885(9)
O5_3 O 0.1954(7) 0.7857(15) 0.3867(10)
O6_3 O 0.4205(6) 0.7313(15) 0.4034(11)
O7_3 O 0.3518(7) 0.6122(17) 0.4145(11)
O8_3 O 0.3597(6) 0.8532(13) 0.3472(9)
O9_3 O 0.4250(6) 0.5995(13) 0.4929(10)
O10_2 O 0.2357(6) 0.8380(13) 0.5102(9)
O11_2 O 0.3203(6) 0.8339(13) 0.5929(8)
O12_2 O 0.4719(7) 0.8742(12) 0.6067(9)
O13_2 O 0.2590(6) 0.9631(13) 0.6029(9)
O14_2 O 0.2987(6) 0.5112(16) 0.5005(12)
O15_2 O 0.3352(7) 0.9503(17) 0.6845(10)
O17_2 O 0.4935(7) 0.7440(16) 0.7045(11)
O18_2 O 0.1778(6) 0.8566(16) 0.6252(11)
O19_3 O 0.2898(6) 0.7304(15) 0.3563(10)
O20_3 O 0.3181(6) 0.9855(12) 0.4987(9)
O21_3 O 0.3297(6) 0.7957(13) 0.4628(8)
O22_3 O 0.2501(7) 0.6706(16) 0.4739(10)
N2_3 N 0.1876(8) 0.6244(17) 0.3085(11)
O23_2 O 0.4076(6) 0.7841(13) 0.5423(9)
O24_2 O 0.3924(6) 0.9726(13) 0.5776(9)
O25_3 O 0.0941(6) 0.8513(14) 0.3619(10)
O27_2 O 0.2402(6) 0.7070(15) 0.5975(10)
O29_2 O 0.2058(8) 0.5318(17) 0.5564(15)
O30_2 O 0.2632(6) 0.8238(15) 0.6930(10)
O31_2 O 0.4157(7) 0.6451(14) 0.6466(12)
O32_3 O 0.1532(11) 0.8156(18) 0.2508(13)
C1_3 C 0.1999(12) 0.563(2) 0.3536(19)
O33_3 O 0.3744(9) 0.684(2) 0.2850(12)
H1_3 H 0.4658 0.9931 0.1246
O34_2 O 0.3340(8) 0.831(2) 0.7951(11)
O36_3 O 0.4825(6) 0.8337(13) 0.4762(10)
O37_3 O 0.2742(6) 0.8983(14) 0.3977(9)
O38_2 O 0.4873(7) 0.6986(14) 0.5713(11)
O39_2 O 0.3302(7) 0.6934(16) 0.6955(11)
O40_2 O 0.3643(10) 0.5098(19) 0.7193(15)
C6_3 C 0.4958(9) 0.9450(19) 0.2480(11)
C7_3 C 0.4896(9) 0.8872(18) 0.3019(13)
O41_2 O 0.2886(7) 0.5517(15) 0.6323(12)
O42_3 O 0.3824(9) 0.4364(15) 0.4514(16)
C8_3 C 0.5772(9) 0.894(2) 0.2376(15)
H4_3 H 0.6064 0.8953 0.2141
C9_3 C 0.5301(9) 0.837(2) 0.3232(14)
H5_3 H 0.5267 0.7999 0.3613
C10_3 C 0.2535(10) 0.583(2) 0.2397(17)
C12_3 C 0.2688(10) 0.5184(19) 0.2839(18)
C13_3 C 0.2428(11) 0.501(2) 0.3443(15)
C14_3 C 0.2134(11) 0.636(2) 0.2555(15)
C18_3 C 0.3122(15) 0.463(2) 0.2712(18)
C19_3 C 0.3129(14) 0.359(4) 0.2958(17)
H8_3 H 0.2865 0.3323 0.3179
H12_3 H 0.4189 0.9966 0.0182
C28_3 C 0.3909(15) 0.349(3) 0.252(2)
H14_3 H 0.4191 0.3143 0.2546
C30_3 C 0.3520(14) 0.501(3) 0.234(2)
H16_3 H 0.3516 0.5631 0.2222
O43_2 O 0.3756(7) 0.5037(15) 0.5816(13)
C43_3 C 0.5397(9) 0.948(2) 0.2154(15)
H25_3 H 0.5440 0.9873 0.1785
C44_3 C 0.395(2) 0.441(4) 0.214(3)
H27_3 H 0.0929339 0.858812 0.411523
H28_3 H 0.0605722 0.845881 0.344059
H29_3 H 0.152439 0.881846 0.264498
H30_3 H 0.129446 0.805187 0.214017
H31_3 H 0.178311 0.556783 0.399252
H34_3 H 0.454669 0.880645 0.327044
H35_3 H 0.203031 0.691046 0.220837
H37_3 H 0.272496 0.593207 0.192246
H38_3 H 0.253147 0.447629 0.380326
H39_3 H 0.423627 0.460093 0.17888
W1_4 W 0.53609(4) 0.29362(8) 0.97824(6)
W3_4 W 0.66071(4) 0.06068(9) 0.91419(6)
W4_4 W 0.63470(5) 0.46502(10) 0.98928(9)
W6_4 W 0.64070(5) 0.27845(12) 0.86449(7)
W12_4 W 0.74896(4) 0.21881(9) 0.92652(6)
O2_4 O 0.4859(7) 0.3419(15) 0.9399(10)
O3_4 O 0.5974(6) 0.0608(13) 0.9508(8)
O5_4 O 0.8046(7) 0.2143(15) 0.8867(10)
O6_4 O 0.5795(6) 0.2687(15) 0.9034(11)
O7_4 O 0.6482(7) 0.3878(17) 0.9145(11)
O8_4 O 0.6403(6) 0.1468(13) 0.8472(9)
O9_4 O 0.5750(6) 0.4005(13) 0.9929(10)
O19_4 O 0.7102(6) 0.2696(15) 0.8563(10)
O20_4 O 0.6819(6) 0.0145(12) 0.9987(9)
O21_4 O 0.6703(6) 0.2043(13) 0.9628(8)
O22_4 O 0.7499(7) 0.3294(16) 0.9739(10)
N2_4 N 0.8124(8) 0.3756(17) 0.8085(11)
O25_4 O 0.9059(6) 0.1487(14) 0.8619(10)
O32_4 O 0.8468(11) 0.1844(18) 0.7508(13)
C1_4 C 0.8001(12) 0.437(2) 0.8536(19)
O33_4 O 0.6256(9) 0.316(2) 0.7850(12)
H1_4 H 0.5342 0.0069 0.6246
O36_4 O 0.5175(6) 0.1663(13) 0.9762(10)
O37_4 O 0.7258(6) 0.1017(14) 0.8977(9)
C6_4 C 0.5042(9) 0.0550(19) 0.7480(11)
C7_4 C 0.5104(9) 0.1128(18) 0.8019(13)
O42_4 O 0.6176(9) 0.5636(15) 0.9514(16)
C8_4 C 0.4228(9) 0.106(2) 0.7376(15)
H4_4 H 0.3936 0.1047 0.7141
C9_4 C 0.4699(9) 0.163(2) 0.8232(14)
H5_4 H 0.4733 0.2001 0.8613
C10_4 C 0.7465(10) 0.417(2) 0.7397(17)
C12_4 C 0.7312(10) 0.4816(19) 0.7839(18)
C13_4 C 0.7572(11) 0.499(2) 0.8443(15)
C14_4 C 0.7866(11) 0.364(2) 0.7555(15)
C18_4 C 0.6878(15) 0.537(2) 0.7712(18)
C19_4 C 0.6871(14) 0.641(4) 0.7958(17)
H8_4 H 0.7135 0.6677 0.8179
N7_2 N 0.6491(8) 0.6877(16) 0.7841(11)
H12_4 H 0.5811 0.0034 0.5182
C28_4 C 0.6091(15) 0.651(3) 0.752(2)
H14_4 H 0.5809 0.6857 0.7546
C30_4 C 0.6480(14) 0.499(3) 0.734(2)
H16_4 H 0.6484 0.4369 0.7222
C43_4 C 0.4603(9) 0.052(2) 0.7154(15)
H25_4 H 0.4560 0.0127 0.6785
C44_4 C 0.605(2) 0.559(4) 0.714(3)
H27_4 H 0.907066 0.141188 0.911523
H28_4 H 0.939428 0.154119 0.844059
H29_4 H 0.847561 0.118154 0.764498
H30_4 H 0.870554 0.194813 0.714017
H31_4 H 0.821689 0.443217 0.899252
H34_4 H 0.545331 0.119355 0.827044
H35_4 H 0.796969 0.308954 0.720837
H37_4 H 0.727504 0.406793 0.692246
H38_4 H 0.746853 0.552371 0.880326
H39_4 H 0.576373 0.539907 0.67888
O16_4 O 0.6620(7) 0.9609(16) 0.8649(10)
C2_4 C 0.5447(8) 0.9948(19) 0.7237(12)
C3_4 C 0.5528(8) 0.9766(18) 0.6569(13)
N4_4 N 0.6099(8) 0.8880(16) 0.7550(11)
C4_4 C 0.5735(9) 0.948(2) 0.7713(13)
H2_4 H 0.5672 0.9581 0.8167
O35_4 O 0.7154(9) 0.854(2) 0.7609(11)
C5_4 C 0.6093(10) 0.7946(19) 0.5538(14)
H3_4 H 0.6125 0.7519 0.5885
N6_4 N 0.6007(10) 0.809(2) 0.8977(14)
C11_4 C 0.2256(16) 0.810(3) 0.997(2)
C15_4 C 0.6164(9) 0.8702(19) 0.6876(12)
H7_4 H 0.6403 0.8278 0.6754
C16_4 C 0.6176(10) 0.768(2) 0.4855(14)
C17_4 C 0.5891(8) 0.9124(17) 0.6360(12)
C23_4 C 0.618(3) 0.820(5) 0.962(2)
H11_4 H 0.6510 0.8324 0.9683
C24_4 C 0.5968(9) 0.882(2) 0.5666(13)
C25_4 C 0.5906(9) 0.9421(19) 0.5120(12)
C26_4 C 0.5993(9) 0.906(2) 0.4473(13)
H13_4 H 0.5938 0.9445 0.4108
C31_4 C 0.5220(14) 0.760(4) 0.946(2)
H17_4 H 0.4903 0.7392 0.9401
C34_4 C 0.1985(18) 0.784(4) 0.938(2)
H19_4 H 0.1716 0.8201 0.9282
C38_4 C 0.272(2) 0.675(4) 0.980(4)
H22_4 H 0.2956 0.6334 0.9932
C39_4 C 0.555(2) 0.774(4) 0.884(3)
H23_4 H 0.5446 0.7601 0.8403
C45_4 C 0.237(2) 0.656(5) 0.917(4)
H26_4 H 0.2389 0.5989 0.8947
H32_4 H 0.707528 0.907144 0.731041
H33_4 H 0.721967 0.798105 0.733148
H36_4 H 0.627757 0.696464 0.474864
W2_3 W 0.05462(4) 0.42585(9) 0.02441(6)
W5_3 W 0.16700(4) 0.32475(10) 0.20882(6)
W7_3 W 0.17331(4) 0.49377(9) 0.09372(6)
W8_3 W 0.04742(4) 0.25902(9) 0.14202(7)
W9_3 W 0.26283(4) 0.33778(10) 0.10537(6)
W10_3 W 0.24254(5) 0.09623(11) 0.05361(8)
W11_3 W 0.14531(5) 0.08488(10) 0.15413(8)
O1_3 O 0.1645(6) 0.1573(12) 0.0528(11)
Si1_3 Si 0.1511(2) 0.2664(4) 0.0380(3)
O4_3 O 0.1005(6) 0.3149(15) 0.1885(9)
O10_3 O 0.2643(6) 0.3380(13) 0.0102(9)
O11_3 O 0.1797(6) 0.3339(13) 0.0929(8)
O12_3 O 0.0281(7) 0.3742(12) 0.1067(9)
O13_3 O 0.2410(6) 0.4631(13) 0.1029(9)
O14_3 O 0.2013(6) 0.0112(16) 0.0005(12)
O15_3 O 0.1648(7) 0.4503(17) 0.1845(10)
O17_3 O 0.0065(7) 0.2440(16) 0.2045(11)
O18_3 O 0.3222(6) 0.3566(16) 0.1252(11)
O23_3 O 0.0924(6) 0.2841(13) 0.0423(9)
O24_3 O 0.1076(6) 0.4726(13) 0.0776(9)
O26_3 O 0.1756(7) 0.6102(17) 0.1047(11)
O27_3 O 0.2598(6) 0.2070(15) 0.0975(10)
O28_3 O 0.0185(6) 0.5170(13) 0.0168(10)
O29_3 O 0.2942(8) 0.0318(17) 0.0564(15)
O30_3 O 0.2368(6) 0.3238(15) 0.1930(10)
O31_3 O 0.0843(7) 0.1451(14) 0.1466(12)
O34_3 O 0.1660(8) 0.331(2) 0.2951(11)
O38_3 O 0.0127(7) 0.1986(14) 0.0713(11)
O39_3 O 0.1698(7) 0.1934(16) 0.1955(11)
O40_3 O 0.1357(10) 0.0098(19) 0.2193(15)
O41_3 O 0.2114(7) 0.0517(15) 0.1323(12)
C20_3 C 0.0369(17) 0.725(3) 0.0069(19)
C22_3 C 0.0855(16) 0.687(3) 0.020(2)
H10_3 H 0.0951 0.6680 0.0626
C29_3 C 0.0229(16) 0.777(3) 0.125(2)
H15_3 H 0.0555 0.7941 0.1242
O43_3 O 0.1244(7) 0.0037(15) 0.0816(13)
C41_3 C 0.0026(18) 0.736(5) 0.069(3)
H6_3 H 0.7176 0.6387 0.0225
C21_3 C 0.9564(13) 0.724(3) 0.066(2)
H9_3 H 0.9403 0.7084 0.0262
C27_3 C 0.9326(17) 0.736(3) 0.128(2)
C32_3 C 0.8550(14) 0.670(3) 0.1768(19)
H18_3 H 0.8742 0.6513 0.2130
C33_3 C 0.8789(15) 0.714(4) 0.124(2)
N8_3 N 0.8079(15) 0.651(3) 0.1812(17)
C35_3 C 0.7643(16) 0.747(4) 0.013(2)
C36_3 C 0.7786(19) 0.669(3) 0.129(3)
H20_3 H 0.7462 0.6506 0.1304
N9_3 N 0.9961(16) 0.795(4) 0.1823(18)
C37_3 C 0.9503(19) 0.777(6) 0.174(3)
H21_3 H 0.9293 0.7984 0.2077
C40_3 C 0.797(2) 0.715(4) 0.069(2)
C42_3 C 0.8473(13) 0.742(4) 0.070(3)
H24_3 H 0.8596 0.7791 0.0360
W2_4 W 0.55462(4) 0.07415(9) 0.02441(6)
W5_4 W 0.66700(4) 0.17525(10) 0.20882(6)
W7_4 W 0.67331(4) 0.00623(9) 0.09372(6)
W8_4 W 0.54742(4) 0.24098(9) 0.14202(7)
W9_4 W 0.76283(4) 0.16222(10) 0.10537(6)
W10_4 W 0.74254(5) 0.40377(11) 0.05361(8)
W11_4 W 0.64531(5) 0.41512(10) 0.15413(8)
O1_4 O 0.6645(6) 0.3427(12) 0.0528(11)
Si1_4 Si 0.6511(2) 0.2336(4) 0.0380(3)
O4_4 O 0.6005(6) 0.1851(15) 0.1885(9)
O10_4 O 0.7643(6) 0.1620(13) 0.0102(9)
O11_4 O 0.6797(6) 0.1661(13) 0.0929(8)
O12_4 O 0.5281(7) 0.1258(12) 0.1067(9)
O13_4 O 0.7410(6) 0.0369(13) 0.1029(9)
O14_4 O 0.7013(6) 0.4888(16) 0.0005(12)
O15_4 O 0.6648(7) 0.0497(17) 0.1845(10)
O17_4 O 0.5065(7) 0.2560(16) 0.2045(11)
O18_4 O 0.8222(6) 0.1434(16) 0.1252(11)
O23_4 O 0.5924(6) 0.2159(13) 0.0423(9)
O24_4 O 0.6076(6) 0.0274(13) 0.0776(9)
O27_4 O 0.7598(6) 0.2930(15) 0.0975(10)
O29_4 O 0.7942(8) 0.4682(17) 0.0564(15)
O30_4 O 0.7368(6) 0.1762(15) 0.1930(10)
O31_4 O 0.5843(7) 0.3549(14) 0.1466(12)
O34_4 O 0.6660(8) 0.169(2) 0.2951(11)
O38_4 O 0.5127(7) 0.3014(14) 0.0713(11)
O39_4 O 0.6698(7) 0.3066(16) 0.1955(11)
O40_4 O 0.6357(10) 0.4902(19) 0.2193(15)
O41_4 O 0.7114(7) 0.4483(15) 0.1323(12)
O43_4 O 0.6244(7) 0.4963(15) 0.0816(13)
O26_4 O 0.6756(7) 0.8898(17) 0.1047(11)
O28_4 O 0.5185(6) 0.9830(13) 0.0168(10)
H6_4 H 0.2176 0.8613 0.0225
C20_4 C 0.5369(17) 0.775(3) 0.0069(19)
C21_4 C 0.4564(13) 0.776(3) 0.066(2)
H9_4 H 0.4403 0.7916 0.0262
C22_4 C 0.5855(16) 0.813(3) 0.020(2)
H10_4 H 0.5951 0.8320 0.0626
C27_4 C 0.4326(17) 0.764(3) 0.128(2)
C29_4 C 0.5229(16) 0.723(3) 0.125(2)
H15_4 H 0.5555 0.7059 0.1242
C32_4 C 0.3550(14) 0.830(3) 0.1768(19)
H18_4 H 0.3742 0.8487 0.2130
C33_4 C 0.3789(15) 0.786(4) 0.124(2)
N8_4 N 0.3079(15) 0.849(3) 0.1812(17)
C35_4 C 0.2643(16) 0.753(4) 0.013(2)
C36_4 C 0.2786(19) 0.831(3) 0.129(3)
H20_4 H 0.2462 0.8494 0.1304
N9_4 N 0.4961(16) 0.705(4) 0.1823(18)
C37_4 C 0.4503(19) 0.723(6) 0.174(3)
H21_4 H 0.4293 0.7016 0.2077
C40_4 C 0.297(2) 0.785(4) 0.069(2)
C41_4 C 0.5026(18) 0.764(5) 0.069(3)
C42_4 C 0.3473(13) 0.758(4) 0.070(3)
H24_4 H 0.3596 0.7209 0.0360
loop_
_geom_bond_atom_site_label_1
_geom_bond_atom_site_label_2
_geom_bond_site_symmetry_1
_geom_bond_site_symmetry_2
N3 C8 1_555 1_555
N5 C34 1_555 1_555
C8 H4 1_555 1_555
C9 N3 1_555 1_555
H5 C9 1_555 1_555
C11 H6 1_555 1_555
C21 H9 1_555 1_555
C27 C21 1_555 1_555
C32 H18 1_555 1_555
C33 C27 1_555 1_555
C34 C11 1_555 1_555
H19 C34 1_555 1_555
N8 C32 1_555 1_555
C35 C11 1_555 1_555
C36 N8 1_555 1_555
H20 C36 1_555 1_555
C37 C27 1_555 1_555
H21 C37 1_555 1_555
C38 C35 1_555 1_555
H22 C38 1_555 1_555
C40 C35 1_555 1_555
C42 C33 1_555 1_555
H24 C42 1_555 1_555
H25 C43 1_555 1_555
C45 N5 1_555 1_555
H26 C45 1_555 1_555
Co3 N3 1_555 1_555
Co6 N5 1_555 1_555
C8 C43 1_555 1_555
C32 C33 1_555 1_555
C36 C40 1_555 1_555
N9 C37 1_555 1_555
C38 C45 1_555 1_555
C40 C42 1_555 1_555
C19 C18 1_555 1_555
H8 C19 1_555 1_555
N7 C19 1_555 1_555
C28 N7 1_555 1_555
H14 C28 1_555 1_555
C44 C28 1_555 1_555
Co5 N7 1_555 1_555
C44 H39 1_555 1_555
W2 O3 1_555 1_555
W3 O3 1_555 1_555
W4 O1 1_555 1_555
W5 O4 1_555 1_555
W6 O6 1_555 1_555
W7 O11 1_555 1_555
W8 O4 1_555 1_555
W9 O10 1_555 1_555
W10 O1 1_555 1_555
W11 O1 1_555 1_555
W12 O5 1_555 1_555
O1 Si1 1_555 1_555
Si1 O11 1_555 1_555
Co1 O5 1_555 1_555
O6 W1 1_555 1_555
O7 W4 1_555 1_555
O8 W3 1_555 1_555
O9 W1 1_555 1_555
O10 W12 1_555 1_555
O11 W5 1_555 1_555
O12 W2 1_555 1_555
O13 W7 1_555 1_555
O14 W4 1_555 1_555
O15 W5 1_555 1_555
O16 W3 1_555 1_555
O17 W8 1_555 1_555
O18 W9 1_555 1_555
O19 W6 1_555 1_555
O20 W3 1_555 1_555
O21 W3 1_555 1_555
O22 W10 1_555 1_555
N2 Co1 1_555 1_555
O23 W1 1_555 1_555
O24 W2 1_555 1_555
O25 Co1 1_555 1_555
O26 W7 1_555 1_555
O27 W9 1_555 1_555
O28 W2 1_555 1_555
O29 W10 1_555 1_555
O30 W5 1_555 1_555
O31 W8 1_555 1_555
O32 Co1 1_555 1_555
C1 N2 1_555 1_555
Co5 O16 1_555 1_555
C2 C3 1_555 1_555
O33 W6 1_555 1_555
C3 H1 1_555 1_555
O34 W5 1_555 1_555
N4 Co5 1_555 1_555
C4 C2 1_555 1_555
H2 C4 1_555 1_555
O35 Co5 1_555 1_555
C5 H3 1_555 1_555
N6 Co5 1_555 1_555
O36 W1 1_555 1_555
O37 W3 1_555 1_555
O38 W1 1_555 1_555
O39 W5 1_555 1_555
O40 W11 1_555 1_555
C6 C2 1_555 1_555
C7 C6 1_555 1_555
O41 W10 1_555 1_555
C10 C12 1_555 1_555
C12 C13 1_555 1_555
C13 C1 1_555 1_555
C14 N2 1_555 1_555
C15 N4 1_555 1_555
H7 C15 1_555 1_555
C17 C3 1_555 1_555
C20 C22 1_555 1_555
C22 H10 1_555 1_555
C23 N6 1_555 1_555
H11 C23 1_555 1_555
C24 C5 1_555 1_555
C25 C24 1_555 1_555
H12 C25 1_555 1_555
C29 H15 1_555 1_555
H16 C30 1_555 1_555
C31 C20 1_555 1_555
O43 W4 1_555 1_555
C39 N6 1_555 1_555
H23 C39 1_555 1_555
C41 C20 1_555 1_555
N10 Co1 1_555 1_555
N11 Co1 1_555 1_555
N12 Co5 1_555 1_555
W2 O23 1_555 1_555
W2 O36 1_555 1_555
W4 O9 1_555 1_555
W6 O7 1_555 1_555
W6 O8 1_555 1_555
W6 O21 1_555 1_555
W7 O15 1_555 1_555
W7 O20 1_555 1_555
W7 O24 1_555 1_555
W8 O12 1_555 1_555
W8 O23 1_555 1_555
W8 O38 1_555 1_555
W9 O11 1_555 1_555
W9 O13 1_555 1_555
W9 O30 1_555 1_555
W10 O14 1_555 1_555
W10 O27 1_555 1_555
W11 O31 1_555 1_555
W11 O39 1_555 1_555
W11 O41 1_555 1_555
W11 O43 1_555 1_555
W12 O19 1_555 1_555
W12 O21 1_555 1_555
W12 O22 1_555 1_555
W12 O37 1_555 1_555
Si1 O21 1_555 1_555
Si1 O23 1_555 1_555
N4 C4 1_555 1_555
C10 C14 1_555 1_555
C15 C17 1_555 1_555
C17 C24 1_555 1_555
C22 C23 1_555 1_555
C29 C41 1_555 1_555
C31 C39 1_555 1_555
O25 H27 1_555 1_555
O25 H28 1_555 1_555
O32 H29 1_555 1_555
O32 H30 1_555 1_555
C1 H31 1_555 1_555
O35 H32 1_555 1_555
O35 H33 1_555 1_555
C7 H34 1_555 1_555
C14 H35 1_555 1_555
C10 H37 1_555 1_555
N1 C16 1_555 1_555
C26 N1 1_555 1_555
H13 C26 1_555 1_555
Co4 N1 1_555 1_555
C16 H36 1_555 1_555
W3_2 O3_2 1_555 1_555
W6_2 O6_2 1_555 1_555
W12_2 O5_2 1_555 1_555
Co1_2 O5_2 1_555 1_555
N1_2 C16_2 1_555 1_555
O6_2 W1_2 1_555 1_555
O7_2 W4_2 1_555 1_555
O8_2 W3_2 1_555 1_555
O9_2 W1_2 1_555 1_555
O16_2 W3_2 1_555 1_555
O19_2 W6_2 1_555 1_555
O20_2 W3_2 1_555 1_555
O21_2 W3_2 1_555 1_555
N2_2 Co1_2 1_555 1_555
O25_2 Co1_2 1_555 1_555
O32_2 Co1_2 1_555 1_555
C1_2 N2_2 1_555 1_555
Co2 O16_2 1_555 1_555
C2_2 C3_2 1_555 1_555
O33_2 W6_2 1_555 1_555
C3_2 H1_2 1_555 1_555
N4_2 Co2 1_555 1_555
C4_2 C2_2 1_555 1_555
H2_2 C4_2 1_555 1_555
O35_2 Co2 1_555 1_555
C5_2 H3_2 1_555 1_555
N6_2 Co2 1_555 1_555
O36_2 W1_2 1_555 1_555
O37_2 W3_2 1_555 1_555
C6_2 C2_2 1_555 1_555
C7_2 C6_2 1_555 1_555
C10_2 C12_2 1_555 1_555
C12_2 C13_2 1_555 1_555
C13_2 C1_2 1_555 1_555
C14_2 N2_2 1_555 1_555
C15_2 N4_2 1_555 1_555
H7_2 C15_2 1_555 1_555
C16_2 C5_2 1_555 1_555
C17_2 C3_2 1_555 1_555
C23_2 N6_2 1_555 1_555
H11_2 C23_2 1_555 1_555
C24_2 C5_2 1_555 1_555
C25_2 C24_2 1_555 1_555
H12_2 C25_2 1_555 1_555
C26_2 N1_2 1_555 1_555
H13_2 C26_2 1_555 1_555
H16_2 C30_2 1_555 1_555
C39_2 N6_2 1_555 1_555
H23_2 C39_2 1_555 1_555
Co3 N1_2 1_555 1_555
N10_2 Co1_2 1_555 1_555
N11_2 Co1_2 1_555 1_555
N12_2 Co2 1_555 1_555
N13 Co2 1_555 1_555
W4_2 O9_2 1_555 1_555
W6_2 O7_2 1_555 1_555
W6_2 O8_2 1_555 1_555
W6_2 O21_2 1_555 1_555
W12_2 O19_2 1_555 1_555
W12_2 O21_2 1_555 1_555
W12_2 O22_2 1_555 1_555
W12_2 O37_2 1_555 1_555
N4_2 C4_2 1_555 1_555
C10_2 C14_2 1_555 1_555
C15_2 C17_2 1_555 1_555
C17_2 C24_2 1_555 1_555
C25_2 C26_2 1_555 1_555
C31_2 C39_2 1_555 1_555
O25_2 H27_2 1_555 1_555
O25_2 H28_2 1_555 1_555
O32_2 H29_2 1_555 1_555
O32_2 H30_2 1_555 1_555
C1_2 H31_2 1_555 1_555
O35_2 H32_2 1_555 1_555
O35_2 H33_2 1_555 1_555
C7_2 H34_2 1_555 1_555
C14_2 H35_2 1_555 1_555
C16_2 H36_2 1_555 1_555
C10_2 H37_2 1_555 1_555
C19_2 C18_2 1_555 1_555
H8_2 C19_2 1_555 1_555
N13 C19_2 1_555 1_555
C28_2 N13 1_555 1_555
H14_2 C28_2 1_555 1_555
C44_2 C28_2 1_555 1_555
C44_2 H39_2 1_555 1_555
N3_2 C8_2 1_555 1_555
N5_2 C34_2 1_555 1_555
C8_2 H4_2 1_555 1_555
C9_2 N3_2 1_555 1_555
H5_2 C9_2 1_555 1_555
C34_2 C11_2 1_555 1_555
H19_2 C34_2 1_555 1_555
H22_2 C38_2 1_555 1_555
H25_2 C43_2 1_555 1_555
C45_2 N5_2 1_555 1_555
H26_2 C45_2 1_555 1_555
Co4 N3_2 1_555 1_555
Co6_2 N5_2 1_555 1_555
C8_2 C43_2 1_555 1_555
C38_2 C45_2 1_555 1_555
Co6 O16_3 1_555 1_555
C2_3 C3_3 1_555 1_555
N4_3 Co6 1_555 1_555
C4_3 C2_3 1_555 1_555
H2_3 C4_3 1_555 1_555
O35_3 Co6 1_555 1_555
N12 C34_3 1_555 1_555
C5_3 H3_3 1_555 1_555
N6_3 Co6 1_555 1_555
C11_3 H6_2 1_555 1_555
C15_3 N4_3 1_555 1_555
H7_3 C15_3 1_555 1_555
C17_3 C3_3 1_555 1_555
C20_2 C22_2 1_555 1_555
C21_2 H9_2 1_555 1_555
C22_2 H10_2 1_555 1_555
C23_3 N6_3 1_555 1_555
H11_3 C23_3 1_555 1_555
C24_3 C5_3 1_555 1_555
C25_3 C24_3 1_555 1_555
C27_2 C21_2 1_555 1_555
C29_2 H15_2 1_555 1_555
C31_3 C20_2 1_555 1_555
H17_3 C31_3 1_555 1_555
C32_2 H18_2 1_555 1_555
C33_2 C27_2 1_555 1_555
C34_3 C11_3 1_555 1_555
H19_3 C34_3 1_555 1_555
N8_2 C32_2 1_555 1_555
C35_2 C11_3 1_555 1_555
C36_2 N8_2 1_555 1_555
H20_2 C36_2 1_555 1_555
N9_2 C29_2 1_555 1_555
C37_2 C27_2 1_555 1_555
H21_2 C37_2 1_555 1_555
C38_3 C35_2 1_555 1_555
H22_3 C38_3 1_555 1_555
C39_3 N6_3 1_555 1_555
H23_3 C39_3 1_555 1_555
C40_2 C35_2 1_555 1_555
C41_2 C20_2 1_555 1_555
C42_2 C33_2 1_555 1_555
H24_2 C42_2 1_555 1_555
C45_3 N12 1_555 1_555
H26_3 C45_3 1_555 1_555
N13_2 Co6 1_555 1_555
N4_3 C4_3 1_555 1_555
C15_3 C17_3 1_555 1_555
C17_3 C24_3 1_555 1_555
C21_2 C41_2 1_555 1_555
C22_2 C23_3 1_555 1_555
C29_2 C41_2 1_555 1_555
C31_3 C39_3 1_555 1_555
C32_2 C33_2 1_555 1_555
C36_2 C40_2 1_555 1_555
N9_2 C37_2 1_555 1_555
C38_3 C45_3 1_555 1_555
C40_2 C42_2 1_555 1_555
O35_3 H32_3 1_555 1_555
O35_3 H33_3 1_555 1_555
N10_2 C16_3 1_555 1_555
C26_3 N10_2 1_555 1_555
H13_3 C26_3 1_555 1_555
C16_3 H36_3 1_555 1_555
W1_3 O2_3 1_555 1_555
W2_2 O3_3 1_555 1_555
W3_3 O3_3 1_555 1_555
W4_3 O1_2 1_555 1_555
W5_2 O4_2 1_555 1_555
W6_3 O6_3 1_555 1_555
W7_2 O11_2 1_555 1_555
W8_2 O4_2 1_555 1_555
W9_2 O10_2 1_555 1_555
W10_2 O1_2 1_555 1_555
W11_2 O1_2 1_555 1_555
W12_3 O5_3 1_555 1_555
O1_2 Si1_2 1_555 1_555
Si1_2 O11_2 1_555 1_555
Co3 O5_3 1_555 1_555
O6_3 W1_3 1_555 1_555
O7_3 W4_3 1_555 1_555
O8_3 W3_3 1_555 1_555
O9_3 W1_3 1_555 1_555
O10_2 W12_3 1_555 1_555
O11_2 W5_2 1_555 1_555
O12_2 W2_2 1_555 1_555
O13_2 W7_2 1_555 1_555
O14_2 W4_3 1_555 1_555
O15_2 W5_2 1_555 1_555
O17_2 W8_2 1_555 1_555
O18_2 W9_2 1_555 1_555
O19_3 W6_3 1_555 1_555
O20_3 W3_3 1_555 1_555
O21_3 W3_3 1_555 1_555
O22_3 W10_2 1_555 1_555
N2_3 Co3 1_555 1_555
O23_2 W1_3 1_555 1_555
O24_2 W2_2 1_555 1_555
O25_3 Co3 1_555 1_555
O27_2 W9_2 1_555 1_555
O29_2 W10_2 1_555 1_555
O30_2 W5_2 1_555 1_555
N11 C8_3 1_555 1_555
O31_2 W8_2 1_555 1_555
O32_3 Co3 1_555 1_555
C1_3 N2_3 1_555 1_555
O33_3 W6_3 1_555 1_555
O34_2 W5_2 1_555 1_555
O36_3 W1_3 1_555 1_555
O37_3 W3_3 1_555 1_555
O38_2 W1_3 1_555 1_555
O39_2 W5_2 1_555 1_555
O40_2 W11_2 1_555 1_555
C7_3 C6_3 1_555 1_555
O41_2 W10_2 1_555 1_555
O42_3 W4_3 1_555 1_555
C8_3 H4_3 1_555 1_555
C9_3 N11 1_555 1_555
H5_3 C9_3 1_555 1_555
C10_3 C12_3 1_555 1_555
C12_3 C13_3 1_555 1_555
C13_3 C1_3 1_555 1_555
C14_3 N2_3 1_555 1_555
C18_3 C12_3 1_555 1_555
C19_3 C18_3 1_555 1_555
H8_3 C19_3 1_555 1_555
N13_2 C19_3 1_555 1_555
C28_3 N13_2 1_555 1_555
H14_3 C28_3 1_555 1_555
C30_3 C18_3 1_555 1_555
H16_3 C30_3 1_555 1_555
O43_2 W4_3 1_555 1_555
C43_3 C6_3 1_555 1_555
H25_3 C43_3 1_555 1_555
C44_3 C28_3 1_555 1_555
W2_2 O23_2 1_555 1_555
W2_2 O36_3 1_555 1_555
W4_3 O9_3 1_555 1_555
W6_3 O7_3 1_555 1_555
W6_3 O8_3 1_555 1_555
W6_3 O21_3 1_555 1_555
W7_2 O15_2 1_555 1_555
W7_2 O20_3 1_555 1_555
W7_2 O24_2 1_555 1_555
W8_2 O12_2 1_555 1_555
W8_2 O23_2 1_555 1_555
W8_2 O38_2 1_555 1_555
W9_2 O11_2 1_555 1_555
W9_2 O13_2 1_555 1_555
W9_2 O30_2 1_555 1_555
W10_2 O14_2 1_555 1_555
W10_2 O27_2 1_555 1_555
W11_2 O31_2 1_555 1_555
W11_2 O39_2 1_555 1_555
W11_2 O41_2 1_555 1_555
W11_2 O43_2 1_555 1_555
W12_3 O19_3 1_555 1_555
W12_3 O21_3 1_555 1_555
W12_3 O22_3 1_555 1_555
W12_3 O37_3 1_555 1_555
Si1_2 O21_3 1_555 1_555
Si1_2 O23_2 1_555 1_555
C7_3 C9_3 1_555 1_555
C8_3 C43_3 1_555 1_555
C10_3 C14_3 1_555 1_555
C30_3 C44_3 1_555 1_555
O25_3 H27_3 1_555 1_555
O25_3 H28_3 1_555 1_555
O32_3 H29_3 1_555 1_555
O32_3 H30_3 1_555 1_555
C1_3 H31_3 1_555 1_555
C7_3 H34_3 1_555 1_555
C14_3 H35_3 1_555 1_555
C10_3 H37_3 1_555 1_555
C13_3 H38_3 1_555 1_555
C44_3 H39_3 1_555 1_555
W1_4 O2_4 1_555 1_555
W3_4 O3_4 1_555 1_555
W6_4 O6_4 1_555 1_555
W12_4 O5_4 1_555 1_555
Co4 O5_4 1_555 1_555
O6_4 W1_4 1_555 1_555
O7_4 W4_4 1_555 1_555
O8_4 W3_4 1_555 1_555
O9_4 W1_4 1_555 1_555
O19_4 W6_4 1_555 1_555
O20_4 W3_4 1_555 1_555
O21_4 W3_4 1_555 1_555
N2_4 Co4 1_555 1_555
O25_4 Co4 1_555 1_555
N11_2 C8_4 1_555 1_555
O32_4 Co4 1_555 1_555
C1_4 N2_4 1_555 1_555
O33_4 W6_4 1_555 1_555
O36_4 W1_4 1_555 1_555
O37_4 W3_4 1_555 1_555
C7_4 C6_4 1_555 1_555
O42_4 W4_4 1_555 1_555
C8_4 H4_4 1_555 1_555
C9_4 N11_2 1_555 1_555
H5_4 C9_4 1_555 1_555
C10_4 C12_4 1_555 1_555
C12_4 C13_4 1_555 1_555
C13_4 C1_4 1_555 1_555
C14_4 N2_4 1_555 1_555
C18_4 C12_4 1_555 1_555
C19_4 C18_4 1_555 1_555
H8_4 C19_4 1_555 1_555
N7_2 C19_4 1_555 1_555
C28_4 N7_2 1_555 1_555
H14_4 C28_4 1_555 1_555
C30_4 C18_4 1_555 1_555
H16_4 C30_4 1_555 1_555
C43_4 C6_4 1_555 1_555
H25_4 C43_4 1_555 1_555
C44_4 C28_4 1_555 1_555
Co6_2 N7_2 1_555 1_555
W4_4 O9_4 1_555 1_555
W6_4 O7_4 1_555 1_555
W6_4 O8_4 1_555 1_555
W6_4 O21_4 1_555 1_555
W12_4 O19_4 1_555 1_555
W12_4 O21_4 1_555 1_555
W12_4 O22_4 1_555 1_555
W12_4 O37_4 1_555 1_555
C7_4 C9_4 1_555 1_555
C8_4 C43_4 1_555 1_555
C10_4 C14_4 1_555 1_555
C30_4 C44_4 1_555 1_555
O25_4 H27_4 1_555 1_555
O25_4 H28_4 1_555 1_555
O32_4 H29_4 1_555 1_555
O32_4 H30_4 1_555 1_555
C1_4 H31_4 1_555 1_555
C7_4 H34_4 1_555 1_555
C14_4 H35_4 1_555 1_555
C10_4 H37_4 1_555 1_555
C13_4 H38_4 1_555 1_555
C44_4 H39_4 1_555 1_555
N10 C16_4 1_555 1_555
Co6_2 O16_4 1_555 1_555
C2_4 C3_4 1_555 1_555
N4_4 Co6_2 1_555 1_555
C4_4 C2_4 1_555 1_555
H2_4 C4_4 1_555 1_555
O35_4 Co6_2 1_555 1_555
N12_2 C34_4 1_555 1_555
C5_4 H3_4 1_555 1_555
N6_4 Co6_2 1_555 1_555
C15_4 N4_4 1_555 1_555
H7_4 C15_4 1_555 1_555
C16_4 C5_4 1_555 1_555
C17_4 C3_4 1_555 1_555
C23_4 N6_4 1_555 1_555
H11_4 C23_4 1_555 1_555
C24_4 C5_4 1_555 1_555
C25_4 C24_4 1_555 1_555
C26_4 N10 1_555 1_555
H13_4 C26_4 1_555 1_555
H17_4 C31_4 1_555 1_555
C34_4 C11_4 1_555 1_555
H19_4 C34_4 1_555 1_555
H22_4 C38_4 1_555 1_555
C39_4 N6_4 1_555 1_555
H23_4 C39_4 1_555 1_555
C45_4 N12_2 1_555 1_555
H26_4 C45_4 1_555 1_555
N4_4 C4_4 1_555 1_555
C15_4 C17_4 1_555 1_555
C17_4 C24_4 1_555 1_555
C25_4 C26_4 1_555 1_555
C31_4 C39_4 1_555 1_555
C38_4 C45_4 1_555 1_555
O35_4 H32_4 1_555 1_555
O35_4 H33_4 1_555 1_555
C16_4 H36_4 1_555 1_555
W5_3 O4_3 1_555 1_555
W7_3 O11_3 1_555 1_555
W8_3 O4_3 1_555 1_555
W9_3 O10_3 1_555 1_555
W10_3 O1_3 1_555 1_555
W11_3 O1_3 1_555 1_555
O1_3 Si1_3 1_555 1_555
Si1_3 O11_3 1_555 1_555
O11_3 W5_3 1_555 1_555
O12_3 W2_3 1_555 1_555
O13_3 W7_3 1_555 1_555
O15_3 W5_3 1_555 1_555
O17_3 W8_3 1_555 1_555
O18_3 W9_3 1_555 1_555
O24_3 W2_3 1_555 1_555
O26_3 W7_3 1_555 1_555
O27_3 W9_3 1_555 1_555
O28_3 W2_3 1_555 1_555
O29_3 W10_3 1_555 1_555
O30_3 W5_3 1_555 1_555
O31_3 W8_3 1_555 1_555
O34_3 W5_3 1_555 1_555
O39_3 W5_3 1_555 1_555
O40_3 W11_3 1_555 1_555
O41_3 W10_3 1_555 1_555
C20_3 C22_3 1_555 1_555
C22_3 H10_3 1_555 1_555
C29_3 H15_3 1_555 1_555
C41_3 C20_3 1_555 1_555
W2_3 O23_3 1_555 1_555
W7_3 O15_3 1_555 1_555
W7_3 O24_3 1_555 1_555
W8_3 O12_3 1_555 1_555
W8_3 O23_3 1_555 1_555
W8_3 O38_3 1_555 1_555
W9_3 O11_3 1_555 1_555
W9_3 O13_3 1_555 1_555
W9_3 O30_3 1_555 1_555
W10_3 O14_3 1_555 1_555
W10_3 O27_3 1_555 1_555
W11_3 O31_3 1_555 1_555
W11_3 O39_3 1_555 1_555
W11_3 O41_3 1_555 1_555
W11_3 O43_3 1_555 1_555
Si1_3 O23_3 1_555 1_555
C29_3 C41_3 1_555 1_555
C21_3 H9_3 1_555 1_555
C27_3 C21_3 1_555 1_555
C32_3 H18_3 1_555 1_555
C33_3 C27_3 1_555 1_555
N8_3 C32_3 1_555 1_555
C36_3 N8_3 1_555 1_555
H20_3 C36_3 1_555 1_555
C37_3 C27_3 1_555 1_555
H21_3 C37_3 1_555 1_555
C40_3 C35_3 1_555 1_555
C42_3 C33_3 1_555 1_555
H24_3 C42_3 1_555 1_555
C32_3 C33_3 1_555 1_555
C36_3 C40_3 1_555 1_555
N9_3 C37_3 1_555 1_555
C40_3 C42_3 1_555 1_555
W5_4 O4_4 1_555 1_555
W7_4 O11_4 1_555 1_555
W8_4 O4_4 1_555 1_555
W9_4 O10_4 1_555 1_555
W10_4 O1_4 1_555 1_555
W11_4 O1_4 1_555 1_555
O1_4 Si1_4 1_555 1_555
Si1_4 O11_4 1_555 1_555
O11_4 W5_4 1_555 1_555
O12_4 W2_4 1_555 1_555
O13_4 W7_4 1_555 1_555
O15_4 W5_4 1_555 1_555
O17_4 W8_4 1_555 1_555
O18_4 W9_4 1_555 1_555
O24_4 W2_4 1_555 1_555
O27_4 W9_4 1_555 1_555
O29_4 W10_4 1_555 1_555
O30_4 W5_4 1_555 1_555
O31_4 W8_4 1_555 1_555
O34_4 W5_4 1_555 1_555
O39_4 W5_4 1_555 1_555
O40_4 W11_4 1_555 1_555
O41_4 W10_4 1_555 1_555
W2_4 O23_4 1_555 1_555
W7_4 O15_4 1_555 1_555
W7_4 O24_4 1_555 1_555
W8_4 O12_4 1_555 1_555
W8_4 O23_4 1_555 1_555
W8_4 O38_4 1_555 1_555
W9_4 O11_4 1_555 1_555
W9_4 O13_4 1_555 1_555
W9_4 O30_4 1_555 1_555
W10_4 O14_4 1_555 1_555
W10_4 O27_4 1_555 1_555
W11_4 O31_4 1_555 1_555
W11_4 O39_4 1_555 1_555
W11_4 O41_4 1_555 1_555
W11_4 O43_4 1_555 1_555
Si1_4 O23_4 1_555 1_555
C20_4 C22_4 1_555 1_555
C21_4 H9_4 1_555 1_555
C22_4 H10_4 1_555 1_555
C27_4 C21_4 1_555 1_555
C29_4 H15_4 1_555 1_555
C32_4 H18_4 1_555 1_555
C33_4 C27_4 1_555 1_555
N8_4 C32_4 1_555 1_555
C36_4 N8_4 1_555 1_555
H20_4 C36_4 1_555 1_555
N9_4 C29_4 1_555 1_555
C37_4 C27_4 1_555 1_555
H21_4 C37_4 1_555 1_555
C40_4 C35_4 1_555 1_555
C41_4 C20_4 1_555 1_555
C42_4 C33_4 1_555 1_555
H24_4 C42_4 1_555 1_555
C21_4 C41_4 1_555 1_555
C29_4 C41_4 1_555 1_555
C32_4 C33_4 1_555 1_555
C36_4 C40_4 1_555 1_555
N9_4 C37_4 1_555 1_555
C40_4 C42_4 1_555 1_555

#END
