
###############################################################################
#
# This file contains modified crystal structure data generated from the
# MOF subset of the Cambridge Structural Database (CSD) v543 
# hosted by the Cambridge Crystallographic Data Centre (CCDC).
#
# This work is licensed under the Creative Commons
# Attribution-NonCommercial-ShareAlike 4.0 International License.
# To view a copy of this license, visit
# http://creativecommons.org/licenses/by-nc-sa/4.0/
# or send a letter to
# Creative Commons, PO Box 1866, Mountain View, CA 94042, USA.
#
# CIF created using the CSD Python API on 29 September 2022
# The structure has been converted into the P1 space group
# The structure has a 3D framework
# The original CSD entry JEGCAA01 is in the rhombohedral crystal system
# The framework has been calculated to contain at least 10.0% void space
# The void calculation uses a probe of radius 1.32A, grid spacing 0.4
#
###############################################################################

data_JEGCAA01
_chemical_formula_moiety         '(C432 H432 O138 Zn28)n'
_symmetry_cell_setting           triclinic
_symmetry_space_group_name_H-M   'P 1'
_symmetry_Int_Tables_number      1
_space_group_name_Hall           'P 1'
loop_
_symmetry_equiv_pos_site_id
_symmetry_equiv_pos_as_xyz
1 x,y,z
_cell_length_a                   28.8574(11)
_cell_length_b                   28.8574(11)
_cell_length_c                   15.8751(6)
_cell_angle_alpha                90
_cell_angle_beta                 90
_cell_angle_gamma                120
_cell_volume                     11448.8
loop_
_atom_site_label
_atom_site_type_symbol
_atom_site_fract_x
_atom_site_fract_y
_atom_site_fract_z
O5 O 0.61596(6) 0.68325(4) 0.03606(7)
O6 O 0.59202(4) 0.57128(4) 0.08877(7)
Zn3 Zn 0.374482(8) 0.375764(8) 0.000234(10)
C1 C 0.45151(6) 0.55002(6) 0.67967(10)
C2 C 0.50010(6) 0.58463(6) 0.71839(9)
H1 H 0.5241 0.6176 0.6920
C3 C 0.51417(6) 0.57153(6) 0.79578(9)
C4 C 0.47929(6) 0.52359(6) 0.83565(10)
H2 H 0.4885 0.5149 0.8885
C5 C 0.43064(6) 0.48835(6) 0.79733(9)
C6 C 0.41726(6) 0.50154(6) 0.71998(9)
H3 H 0.3842 0.4771 0.6941
C7 C 0.43456(6) 0.56305(6) 0.59476(10)
C8 C 0.48053(7) 0.61139(7) 0.55134(10)
H4 H 0.5106 0.6051 0.5436
H5 H 0.4919 0.6433 0.5862
H6 H 0.4686 0.6168 0.4963
C9 C 0.38856(7) 0.57431(8) 0.61067(11)
H7 H 0.4003 0.6039 0.6507
H8 H 0.3578 0.5422 0.6340
H9 H 0.3783 0.5839 0.5575
C10 C 0.41482(8) 0.51507(7) 0.53525(10)
H10 H 0.4065 0.5244 0.4801
H11 H 0.3826 0.4846 0.5587
H12 H 0.4428 0.5055 0.5288
C11 C 0.56740(6) 0.60762(6) 0.83583(9)
C12 C 0.39430(6) 0.43586(6) 0.83916(9)
O1 O 0.57685(4) 0.59256(5) 0.90489(7)
O2 O 0.59937(4) 0.65008(4) 0.79727(7)
O3 O 0.40798(4) 0.42872(4) 0.91123(7)
O4 O 0.35315(4) 0.40260(4) 0.79942(7)
Zn1 Zn 0.625518(8) 0.624236(8) 0.999766(10)
O7 O 0.68648(4) 0.61722(6) 0.96609(7)
Zn2 Zn 0.667949(11) 0.709097(8) 0.833567(10)
Zn4 Zn 0.292185(8) 0.334615(11) 0.833099(10)
O6_2 O 0.42872(4) 0.02074(6) 0.08877(7)
Zn1_2 Zn 0.375764(8) 0.001282(11) 0.999766(10)
O7_2 O 0.38278(6) 0.06927(7) 0.96609(7)
O5_2 O 0.31675(4) 0.93270(7) 0.03606(7)
Zn3_2 Zn 0.624236(8) 0.998718(11) 0.000234(10)
C1_2 C 0.44998(6) 0.90149(8) 0.67967(10)
C2_2 C 0.41537(6) 0.91547(8) 0.71839(9)
H1_2 H 0.3824 0.9065 0.6920
C3_2 C 0.42847(6) 0.94264(8) 0.79578(9)
C4_2 C 0.47641(6) 0.95570(8) 0.83565(10)
H2_2 H 0.4851 0.9736 0.8885
C5_2 C 0.51165(6) 0.94229(8) 0.79733(9)
C6_2 C 0.49846(6) 0.91572(8) 0.71998(9)
H3_2 H 0.5229 0.9071 0.6941
C7_2 C 0.43695(6) 0.87151(8) 0.59476(10)
C8_2 C 0.38861(7) 0.86914(10) 0.55134(10)
H4_2 H 0.3949 0.9055 0.5436
H5_2 H 0.3567 0.8486 0.5862
H6_2 H 0.3832 0.8518 0.4963
C9_2 C 0.42569(8) 0.81425(11) 0.61067(11)
H7_2 H 0.3961 0.7964 0.6507
H8_2 H 0.4578 0.8156 0.6340
H9_2 H 0.4161 0.7944 0.5575
C10_2 C 0.48493(7) 0.89975(11) 0.53525(10)
H10_2 H 0.4756 0.8821 0.4801
H11_2 H 0.5154 0.8980 0.5587
H12_2 H 0.4945 0.9373 0.5288
C11_2 C 0.39238(6) 0.95978(8) 0.83583(9)
C12_2 C 0.56414(6) 0.95844(8) 0.83916(9)
O1_2 O 0.40744(5) 0.98429(6) 0.90489(7)
O2_2 O 0.34992(4) 0.94929(6) 0.79727(7)
O3_2 O 0.57128(4) 0.97926(6) 0.91123(7)
O4_2 O 0.59740(4) 0.95055(6) 0.79942(7)
Zn2_2 Zn 0.290903(8) 0.958851(14) 0.833567(10)
Zn4_2 Zn 0.665385(11) 0.957569(14) 0.833099(10)
O5_3 O 0.06730(7) 0.38404(6) 0.03606(7)
Zn3_3 Zn 0.001282(11) 0.625518(8) 0.000234(10)
C1_3 C 0.09851(8) 0.54849(6) 0.67967(10)
C2_3 C 0.08453(8) 0.49990(6) 0.71839(9)
H1_3 H 0.0935 0.4759 0.6920
C3_3 C 0.05736(8) 0.48583(6) 0.79578(9)
C4_3 C 0.04430(8) 0.52071(6) 0.83565(10)
H2_3 H 0.0264 0.5115 0.8885
C5_3 C 0.05771(8) 0.56936(6) 0.79733(9)
C6_3 C 0.08428(8) 0.58274(6) 0.71998(9)
H3_3 H 0.0929 0.6158 0.6941
C7_3 C 0.12849(8) 0.56544(6) 0.59476(10)
C8_3 C 0.13086(10) 0.51947(7) 0.55134(10)
H4_3 H 0.0945 0.4894 0.5436
H5_3 H 0.1514 0.5081 0.5862
H6_3 H 0.1482 0.5314 0.4963
C9_3 C 0.18575(11) 0.61144(7) 0.61067(11)
H7_3 H 0.2036 0.5997 0.6507
H8_3 H 0.1844 0.6422 0.6340
H9_3 H 0.2056 0.6217 0.5575
C10_3 C 0.10025(11) 0.58518(8) 0.53525(10)
H10_3 H 0.1179 0.5935 0.4801
H11_3 H 0.1020 0.6174 0.5587
H12_3 H 0.0627 0.5572 0.5288
C11_3 C 0.04022(8) 0.43260(6) 0.83583(9)
C12_3 C 0.04156(8) 0.60570(6) 0.83916(9)
O1_3 O 0.01571(6) 0.42315(4) 0.90489(7)
O2_3 O 0.05071(6) 0.40063(4) 0.79727(7)
O3_3 O 0.02074(6) 0.59202(4) 0.91123(7)
O4_3 O 0.04945(6) 0.64685(4) 0.79942(7)
Zn2_3 Zn 0.041149(14) 0.332051(11) 0.833567(10)
Zn4_3 Zn 0.042431(14) 0.707815(8) 0.833099(10)
O6_3 O 0.97926(6) 0.40798(4) 0.08877(7)
Zn1_3 Zn 0.998718(11) 0.374482(8) 0.999766(10)
O7_3 O 0.93073(7) 0.31352(4) 0.96609(7)
Zn1_4 Zn 0.001282(11) 0.375764(8) 0.500234(10)
O6_4 O 0.02074(6) 0.42872(4) 0.41123(7)
O7_4 O 0.06927(7) 0.38278(6) 0.53391(7)
C1_4 C 0.90149(8) 0.44998(6) 0.82033(10)
C2_4 C 0.91547(8) 0.41537(6) 0.78161(9)
H1_4 H 0.9065 0.3824 0.8080
C3_4 C 0.94264(8) 0.42847(6) 0.70422(9)
C4_4 C 0.95570(8) 0.47641(6) 0.66435(10)
H2_4 H 0.9736 0.4851 0.6115
C5_4 C 0.94229(8) 0.51165(6) 0.70267(9)
C6_4 C 0.91572(8) 0.49846(6) 0.78002(9)
H3_4 H 0.9071 0.5229 0.8059
C7_4 C 0.87151(8) 0.43695(6) 0.90524(10)
C8_4 C 0.86914(10) 0.38861(7) 0.94866(10)
H4_4 H 0.9055 0.3949 0.9564
H5_4 H 0.8486 0.3567 0.9138
C9_4 C 0.81425(11) 0.42569(8) 0.88933(11)
H7_4 H 0.7964 0.3961 0.8493
H8_4 H 0.8156 0.4578 0.8660
H9_4 H 0.7944 0.4161 0.9425
C10_4 C 0.89975(11) 0.48493(7) 0.96475(10)
H11_4 H 0.8980 0.5154 0.9413
H12_4 H 0.9373 0.4945 0.9712
C11_4 C 0.95978(8) 0.39238(6) 0.66417(9)
C12_4 C 0.95844(8) 0.56414(6) 0.66084(9)
O1_4 O 0.98429(6) 0.40744(5) 0.59511(7)
O2_4 O 0.94929(6) 0.34992(4) 0.70273(7)
O3_4 O 0.97926(6) 0.57128(4) 0.58877(7)
O4_4 O 0.95055(6) 0.59740(4) 0.70058(7)
O5_4 O 0.93270(7) 0.31675(4) 0.46394(7)
Zn2_4 Zn 0.958851(14) 0.290903(8) 0.666433(10)
Zn3_4 Zn 0.998718(11) 0.624236(8) 0.499766(10)
Zn4_4 Zn 0.957569(14) 0.665385(11) 0.666901(10)
C1_5 C 0.54849(6) 0.09851(8) 0.82033(10)
C2_5 C 0.49990(6) 0.08453(8) 0.78161(9)
H1_5 H 0.4759 0.0935 0.8080
C3_5 C 0.48583(6) 0.05736(8) 0.70422(9)
C4_5 C 0.52071(6) 0.04430(8) 0.66435(10)
H2_5 H 0.5115 0.0264 0.6115
C5_5 C 0.56936(6) 0.05771(8) 0.70267(9)
C6_5 C 0.58274(6) 0.08428(8) 0.78002(9)
H3_5 H 0.6158 0.0929 0.8059
C7_5 C 0.56544(6) 0.12849(8) 0.90524(10)
C8_5 C 0.51947(7) 0.13086(10) 0.94866(10)
H4_5 H 0.4894 0.0945 0.9564
H5_5 H 0.5081 0.1514 0.9138
C9_5 C 0.61144(7) 0.18575(11) 0.88933(11)
H7_5 H 0.5997 0.2036 0.8493
H8_5 H 0.6422 0.1844 0.8660
H9_5 H 0.6217 0.2056 0.9425
C10_5 C 0.58518(8) 0.10025(11) 0.96475(10)
H11_5 H 0.6174 0.1020 0.9413
H12_5 H 0.5572 0.0627 0.9712
C11_5 C 0.43260(6) 0.04022(8) 0.66417(9)
C12_5 C 0.60570(6) 0.04156(8) 0.66084(9)
O1_5 O 0.42315(4) 0.01571(6) 0.59511(7)
O2_5 O 0.40063(4) 0.05071(6) 0.70273(7)
O3_5 O 0.59202(4) 0.02074(6) 0.58877(7)
O4_5 O 0.64685(4) 0.04945(6) 0.70058(7)
O5_5 O 0.38404(6) 0.06730(7) 0.46394(7)
Zn2_5 Zn 0.332051(11) 0.041149(14) 0.666433(10)
Zn3_5 Zn 0.625518(8) 0.001282(11) 0.499766(10)
Zn4_5 Zn 0.707815(8) 0.042431(14) 0.666901(10)
Zn1_5 Zn 0.374482(8) 0.998718(11) 0.500234(10)
O6_5 O 0.40798(4) 0.97926(6) 0.41123(7)
O7_5 O 0.31352(4) 0.93073(7) 0.53391(7)
C1_6 C 0.55002(6) 0.45151(6) 0.82033(10)
C2_6 C 0.58463(6) 0.50010(6) 0.78161(9)
H1_6 H 0.6176 0.5241 0.8080
C3_6 C 0.57153(6) 0.51417(6) 0.70422(9)
C4_6 C 0.52359(6) 0.47929(6) 0.66435(10)
H2_6 H 0.5149 0.4885 0.6115
C5_6 C 0.48835(6) 0.43064(6) 0.70267(9)
C6_6 C 0.50154(6) 0.41726(6) 0.78002(9)
H3_6 H 0.4771 0.3842 0.8059
C7_6 C 0.56305(6) 0.43456(6) 0.90524(10)
C8_6 C 0.61139(7) 0.48053(7) 0.94866(10)
H4_6 H 0.6051 0.5106 0.9564
H5_6 H 0.6433 0.4919 0.9138
C9_6 C 0.57431(8) 0.38856(7) 0.88933(11)
H7_6 H 0.6039 0.4003 0.8493
H8_6 H 0.5422 0.3578 0.8660
H9_6 H 0.5839 0.3783 0.9425
C10_6 C 0.51507(7) 0.41482(8) 0.96475(10)
H11_6 H 0.4846 0.3826 0.9413
H12_6 H 0.5055 0.4428 0.9712
C11_6 C 0.60762(6) 0.56740(6) 0.66417(9)
C12_6 C 0.43586(6) 0.39430(6) 0.66084(9)
O1_6 O 0.59256(5) 0.57685(4) 0.59511(7)
O2_6 O 0.65008(4) 0.59937(4) 0.70273(7)
O3_6 O 0.42872(4) 0.40798(4) 0.58877(7)
O4_6 O 0.40260(4) 0.35315(4) 0.70058(7)
Zn1_6 Zn 0.624236(8) 0.625518(8) 0.500234(10)
O5_6 O 0.68325(4) 0.61596(6) 0.46394(7)
O6_6 O 0.57128(4) 0.59202(4) 0.41123(7)
O7_6 O 0.61722(6) 0.68648(4) 0.53391(7)
Zn2_6 Zn 0.709097(8) 0.667949(11) 0.666433(10)
Zn3_6 Zn 0.375764(8) 0.374482(8) 0.499766(10)
Zn4_6 Zn 0.334615(11) 0.292185(8) 0.666901(10)
O5_7 O 0.28262(6) 0.01659(4) 0.36940(7)
Zn2_7 Zn 0.334615(11) 0.042431(8) 0.166901(10)
C1_7 C 0.11818(6) 0.88335(6) 0.01300(10)
C2_7 C 0.16677(6) 0.91796(6) 0.05172(9)
H1_7 H 0.1908 0.9509 0.0253
C3_7 C 0.18084(6) 0.90486(6) 0.12911(9)
C4_7 C 0.14596(6) 0.85692(6) 0.16898(10)
H2_7 H 0.1552 0.8482 0.2218
C5_7 C 0.09731(6) 0.82168(6) 0.13066(9)
C6_7 C 0.08393(6) 0.83487(6) 0.05331(9)
H3_7 H 0.0509 0.8104 0.0274
C11_7 C 0.23407(6) 0.94095(6) 0.16916(9)
C12_7 C 0.06097(6) 0.76919(6) 0.17249(9)
O1_7 O 0.24352(4) 0.92589(5) 0.23822(7)
O2_7 O 0.26604(4) 0.98341(4) 0.13060(7)
O3_7 O 0.07465(4) 0.76205(4) 0.24456(7)
O4_7 O 0.01982(4) 0.73593(4) 0.13275(7)
Zn1_7 Zn 0.292185(8) 0.957569(8) 0.333099(10)
O6_7 O 0.25869(4) 0.90461(4) 0.42210(7)
O7_7 O 0.35315(4) 0.95055(6) 0.29942(7)
Zn3_7 Zn 0.041149(8) 0.709097(8) 0.333567(10)
Zn4_7 Zn 0.958851(8) 0.667949(11) 0.166433(10)
C1_8 C 0.11665(6) 0.23482(8) 0.01300(10)
C2_8 C 0.08204(6) 0.24880(8) 0.05172(9)
H1_8 H 0.0491 0.2398 0.0253
C3_8 C 0.09514(6) 0.27597(8) 0.12911(9)
C4_8 C 0.14308(6) 0.28903(8) 0.16898(10)
H2_8 H 0.1518 0.3069 0.2218
C5_8 C 0.17832(6) 0.27562(8) 0.13066(9)
C6_8 C 0.16513(6) 0.24905(8) 0.05331(9)
H3_8 H 0.1896 0.2404 0.0274
C11_8 C 0.05905(6) 0.29311(8) 0.16916(9)
C12_8 C 0.23081(6) 0.29177(8) 0.17249(9)
O1_8 O 0.07411(5) 0.31762(6) 0.23822(7)
O2_8 O 0.01659(4) 0.28262(6) 0.13060(7)
O3_8 O 0.23795(4) 0.31259(6) 0.24456(7)
O4_8 O 0.26407(4) 0.28388(6) 0.13275(7)
Zn1_8 Zn 0.042431(8) 0.334615(11) 0.333099(10)
O6_8 O 0.09539(4) 0.35407(6) 0.42210(7)
O7_8 O 0.04945(6) 0.40260(7) 0.29942(7)
Zn3_8 Zn 0.290903(8) 0.332051(11) 0.333567(10)
Zn4_8 Zn 0.332051(11) 0.290903(14) 0.166433(10)
O5_8 O 0.98341(4) 0.26604(7) 0.36940(7)
Zn2_8 Zn 0.957569(8) 0.292185(14) 0.166901(10)
Zn4_9 Zn 0.709097(14) 0.041149(8) 0.166433(10)
C1_9 C 0.76518(8) 0.88182(6) 0.01300(10)
C2_9 C 0.75120(8) 0.83323(6) 0.05172(9)
H1_9 H 0.7602 0.8092 0.0253
C3_9 C 0.72403(8) 0.81916(6) 0.12911(9)
C4_9 C 0.71097(8) 0.85404(6) 0.16898(10)
H2_9 H 0.6931 0.8448 0.2218
C5_9 C 0.72438(8) 0.90269(6) 0.13066(9)
C6_9 C 0.75095(8) 0.91607(6) 0.05331(9)
H3_9 H 0.7596 0.9491 0.0274
C11_9 C 0.70689(8) 0.76593(6) 0.16916(9)
C12_9 C 0.70823(8) 0.93903(6) 0.17249(9)
O1_9 O 0.68238(6) 0.75648(4) 0.23822(7)
O2_9 O 0.71738(6) 0.73396(4) 0.13060(7)
O3_9 O 0.68741(6) 0.92535(4) 0.24456(7)
O4_9 O 0.71612(6) 0.98018(4) 0.13275(7)
Zn1_9 Zn 0.665385(11) 0.707815(8) 0.333099(10)
O5_9 O 0.73396(7) 0.71738(6) 0.36940(7)
O6_9 O 0.64593(6) 0.74131(4) 0.42210(7)
O7_9 O 0.59740(7) 0.64685(4) 0.29942(7)
Zn2_9 Zn 0.707815(14) 0.665385(11) 0.166901(10)
Zn3_9 Zn 0.667949(11) 0.958851(8) 0.333567(10)
C1_10 C 0.56816(8) 0.78331(6) 0.15366(10)
C2_10 C 0.58214(8) 0.74870(6) 0.11494(9)
H1_10 H 0.5732 0.7157 0.1413
C3_10 C 0.60931(8) 0.76180(6) 0.03755(9)
C5_10 C 0.60896(8) 0.84498(6) 0.03600(9)
C6_10 C 0.58239(8) 0.83179(6) 0.11335(9)
H3_10 H 0.5738 0.8562 0.1392
C7_7 C 0.53818(8) 0.77028(6) 0.23857(10)
C8_7 C 0.53581(10) 0.72194(7) 0.28199(10)
H4_7 H 0.5722 0.7282 0.2897
H5_7 H 0.5153 0.6900 0.2471
H6_4 H 0.5185 0.7165 0.3370
C9_7 C 0.48092(11) 0.75902(8) 0.22266(11)
H7_7 H 0.4631 0.7294 0.1826
H8_7 H 0.4823 0.7911 0.1993
H9_7 H 0.4611 0.7494 0.2758
C10_7 C 0.56642(11) 0.81826(7) 0.29808(10)
H10_4 H 0.5488 0.8089 0.3532
H11_7 H 0.5647 0.8487 0.2746
H12_7 H 0.6040 0.8278 0.3045
O4_10 O 0.61722(6) 0.93073(4) 0.03391(7)
C4_10 C 0.62237(8) 0.80974(6) 0.99768(10)
H2_10 H 0.6403 0.8184 0.9448
C11_10 C 0.62645(8) 0.72571(6) 0.99750(9)
C12_10 C 0.62511(8) 0.89747(6) 0.99417(9)
O1_10 O 0.65096(6) 0.74077(5) 0.92844(7)
O3_10 O 0.64593(6) 0.90461(4) 0.92210(7)
O6_10 O 0.68741(6) 0.76205(4) 0.74456(7)
O7_10 O 0.73593(7) 0.71612(6) 0.86725(7)
C1_11 C 0.21516(6) 0.43184(8) 0.15366(10)
C2_11 C 0.16657(6) 0.41786(8) 0.11494(9)
H1_11 H 0.1426 0.4268 0.1413
C3_11 C 0.15250(6) 0.39069(8) 0.03755(9)
C5_11 C 0.23603(6) 0.39104(8) 0.03600(9)
C6_11 C 0.24941(6) 0.41761(8) 0.11335(9)
H3_11 H 0.2825 0.4262 0.1392
C7_8 C 0.23211(6) 0.46182(8) 0.23857(10)
C8_8 C 0.18614(7) 0.46419(10) 0.28199(10)
H4_8 H 0.1561 0.4278 0.2897
H5_8 H 0.1748 0.4847 0.2471
H6_5 H 0.1981 0.4815 0.3370
C9_8 C 0.27811(7) 0.51908(11) 0.22266(11)
H7_8 H 0.2664 0.5369 0.1826
H8_8 H 0.3089 0.5177 0.1993
H9_8 H 0.2884 0.5389 0.2758
C10_8 C 0.25185(8) 0.43358(11) 0.29808(10)
H10_5 H 0.2602 0.4512 0.3532
H11_8 H 0.2841 0.4353 0.2746
H12_8 H 0.2239 0.3960 0.3045
O4_11 O 0.31352(4) 0.38278(6) 0.03391(7)
C4_11 C 0.18738(6) 0.37763(8) 0.99768(10)
H2_11 H 0.1782 0.3597 0.9448
C11_11 C 0.09927(6) 0.37355(8) 0.99750(9)
C12_11 C 0.27237(6) 0.37489(8) 0.99417(9)
O1_11 O 0.08982(4) 0.34904(6) 0.92844(7)
O3_11 O 0.25869(4) 0.35407(6) 0.92210(7)
O6_11 O 0.07465(4) 0.31259(6) 0.74456(7)
O7_11 O 0.98018(4) 0.26407(7) 0.86725(7)
O7_12 O 0.28388(6) 0.01982(4) 0.86725(7)
C1_12 C 0.21669(6) 0.78484(6) 0.15366(10)
C2_12 C 0.25130(6) 0.83343(6) 0.11494(9)
H1_12 H 0.2843 0.8574 0.1413
C3_12 C 0.23820(6) 0.84750(6) 0.03755(9)
C5_12 C 0.15502(6) 0.76397(6) 0.03600(9)
C6_12 C 0.16821(6) 0.75059(6) 0.11335(9)
H3_12 H 0.1438 0.7175 0.1392
C7_9 C 0.22972(6) 0.76789(6) 0.23857(10)
C8_9 C 0.27806(7) 0.81386(7) 0.28199(10)
H4_9 H 0.2718 0.8439 0.2897
H5_9 H 0.3100 0.8252 0.2471
H6_6 H 0.2835 0.8019 0.3370
C9_9 C 0.24098(8) 0.72189(7) 0.22266(11)
H7_9 H 0.2706 0.7336 0.1826
H8_9 H 0.2089 0.6911 0.1993
H9_9 H 0.2506 0.7116 0.2758
C10_9 C 0.18174(7) 0.74815(8) 0.29808(10)
H10_6 H 0.1911 0.7398 0.3532
H11_9 H 0.1513 0.7159 0.2746
H12_9 H 0.1722 0.7761 0.3045
O4_12 O 0.06927(4) 0.68648(4) 0.03391(7)
C4_12 C 0.19026(6) 0.81262(6) 0.99768(10)
H2_12 H 0.1816 0.8218 0.9448
C11_12 C 0.27429(6) 0.90073(6) 0.99750(9)
C12_12 C 0.10253(6) 0.72763(6) 0.99417(9)
O1_12 O 0.25923(5) 0.91018(4) 0.92844(7)
O3_12 O 0.09539(4) 0.74131(4) 0.92210(7)
O6_12 O 0.23795(4) 0.92535(4) 0.74456(7)
O7_13 O 0.01982(4) 0.28388(6) 0.63275(7)
C1_13 C 0.78484(6) 0.21669(6) 0.34634(10)
C2_13 C 0.83343(6) 0.25130(6) 0.38506(9)
H1_13 H 0.8574 0.2843 0.3587
C3_13 C 0.84750(6) 0.23820(6) 0.46245(9)
C4_13 C 0.81262(6) 0.19026(6) 0.50232(10)
H2_13 H 0.8218 0.1816 0.5552
C5_13 C 0.76397(6) 0.15502(6) 0.46400(9)
C6_13 C 0.75059(6) 0.16821(6) 0.38665(9)
H3_13 H 0.7175 0.1438 0.3608
C7_10 C 0.76789(6) 0.22972(6) 0.26143(10)
C8_10 C 0.81386(7) 0.27806(7) 0.21801(10)
H4_10 H 0.8439 0.2718 0.2103
H5_10 H 0.8252 0.3100 0.2529
H6_7 H 0.8019 0.2835 0.1630
C9_10 C 0.72189(7) 0.24098(8) 0.27734(11)
H7_10 H 0.7336 0.2706 0.3174
H8_10 H 0.6911 0.2089 0.3007
H9_10 H 0.7116 0.2506 0.2242
C10_10 C 0.74815(8) 0.18174(7) 0.20192(10)
H10_7 H 0.7398 0.1911 0.1468
H11_10 H 0.7159 0.1513 0.2254
H12_10 H 0.7761 0.1722 0.1955
C11_13 C 0.90073(6) 0.27429(6) 0.50250(9)
C12_13 C 0.72763(6) 0.10253(6) 0.50583(9)
O1_13 O 0.91018(4) 0.25923(5) 0.57156(7)
O3_13 O 0.74131(4) 0.09539(4) 0.57790(7)
O4_13 O 0.68648(4) 0.06927(4) 0.46609(7)
O6_13 O 0.92535(4) 0.23795(4) 0.75544(7)
C1_14 C 0.78331(6) 0.56816(8) 0.34634(10)
C2_14 C 0.74870(6) 0.58214(8) 0.38506(9)
H1_14 H 0.7157 0.5732 0.3587
C3_14 C 0.76180(6) 0.60931(8) 0.46245(9)
C4_14 C 0.80974(6) 0.62237(8) 0.50232(10)
H2_14 H 0.8184 0.6403 0.5552
C5_14 C 0.84498(6) 0.60896(8) 0.46400(9)
C6_14 C 0.83179(6) 0.58239(8) 0.38665(9)
H3_14 H 0.8562 0.5738 0.3608
C7_11 C 0.77028(6) 0.53818(8) 0.26143(10)
C8_11 C 0.72194(7) 0.53581(10) 0.21801(10)
H4_11 H 0.7282 0.5722 0.2103
H5_11 H 0.6900 0.5153 0.2529
H6_8 H 0.7165 0.5185 0.1630
C9_11 C 0.75902(8) 0.48092(11) 0.27734(11)
H7_11 H 0.7294 0.4631 0.3174
H8_11 H 0.7911 0.4823 0.3007
H9_11 H 0.7494 0.4611 0.2242
C10_11 C 0.81826(7) 0.56642(11) 0.20192(10)
H10_8 H 0.8089 0.5488 0.1468
H11_11 H 0.8487 0.5647 0.2254
H12_11 H 0.8278 0.6040 0.1955
C11_14 C 0.72571(6) 0.62645(8) 0.50250(9)
C12_14 C 0.89747(6) 0.62511(8) 0.50583(9)
O1_14 O 0.74077(5) 0.65096(6) 0.57156(7)
O3_14 O 0.90461(4) 0.64593(6) 0.57790(7)
O4_14 O 0.93073(4) 0.61722(6) 0.46609(7)
O6_14 O 0.76205(4) 0.68741(6) 0.75544(7)
O7_14 O 0.71612(6) 0.73593(7) 0.63275(7)
C1_15 C 0.43184(8) 0.21516(6) 0.34634(10)
C2_15 C 0.41786(8) 0.16657(6) 0.38506(9)
H1_15 H 0.4268 0.1426 0.3587
C3_15 C 0.39069(8) 0.15250(6) 0.46245(9)
C4_15 C 0.37763(8) 0.18738(6) 0.50232(10)
H2_15 H 0.3597 0.1782 0.5552
C5_15 C 0.39104(8) 0.23603(6) 0.46400(9)
C6_15 C 0.41761(8) 0.24941(6) 0.38665(9)
H3_15 H 0.4262 0.2825 0.3608
C7_12 C 0.46182(8) 0.23211(6) 0.26143(10)
C8_12 C 0.46419(10) 0.18614(7) 0.21801(10)
H4_12 H 0.4278 0.1561 0.2103
H5_12 H 0.4847 0.1748 0.2529
H6_9 H 0.4815 0.1981 0.1630
C9_12 C 0.51908(11) 0.27811(7) 0.27734(11)
H7_12 H 0.5369 0.2664 0.3174
H8_12 H 0.5177 0.3089 0.3007
H9_12 H 0.5389 0.2884 0.2242
C10_12 C 0.43358(11) 0.25185(8) 0.20192(10)
H10_9 H 0.4512 0.2602 0.1468
H11_12 H 0.4353 0.2841 0.2254
H12_12 H 0.3960 0.2239 0.1955
C11_15 C 0.37355(8) 0.09927(6) 0.50250(9)
C12_15 C 0.37489(8) 0.27237(6) 0.50583(9)
O1_15 O 0.34904(6) 0.08982(4) 0.57156(7)
O3_15 O 0.35407(6) 0.25869(4) 0.57790(7)
O4_15 O 0.38278(6) 0.31352(4) 0.46609(7)
O6_15 O 0.31259(6) 0.07465(4) 0.75544(7)
O7_15 O 0.26407(7) 0.98018(4) 0.63275(7)
C1_16 C 0.23482(8) 0.11665(6) 0.48700(10)
C2_16 C 0.24880(8) 0.08204(6) 0.44828(9)
H1_16 H 0.2398 0.0491 0.4747
C3_16 C 0.27597(8) 0.09514(6) 0.37089(9)
C4_16 C 0.28903(8) 0.14308(6) 0.33102(10)
H2_16 H 0.3069 0.1518 0.2782
C5_16 C 0.27562(8) 0.17832(6) 0.36934(9)
C6_16 C 0.24905(8) 0.16513(6) 0.44669(9)
H3_16 H 0.2404 0.1896 0.4726
C7_13 C 0.20484(8) 0.10362(6) 0.57191(10)
C8_13 C 0.20247(10) 0.05528(7) 0.61533(10)
H4_13 H 0.2388 0.0616 0.6231
H5_13 H 0.1819 0.0234 0.5805
H6_10 H 0.1851 0.0499 0.6704
C9_13 C 0.14758(11) 0.09236(8) 0.55600(11)
H7_13 H 0.1297 0.0628 0.5160
H8_13 H 0.1489 0.1245 0.5327
H9_13 H 0.1277 0.0828 0.6092
C10_13 C 0.23308(11) 0.15160(7) 0.63142(10)
H10_10 H 0.2154 0.1423 0.6866
H11_13 H 0.2313 0.1821 0.6080
H12_13 H 0.2706 0.1612 0.6379
C11_16 C 0.29311(8) 0.05905(6) 0.33084(9)
C12_16 C 0.29177(8) 0.23081(6) 0.32751(9)
O1_16 O 0.31762(6) 0.07411(5) 0.26178(7)
O3_16 O 0.31259(6) 0.23795(4) 0.25544(7)
O4_16 O 0.28388(6) 0.26407(4) 0.36725(7)
O6_16 O 0.35407(6) 0.09539(4) 0.07790(7)
O7_16 O 0.40260(7) 0.04945(6) 0.20058(7)
C1_17 C 0.88182(6) 0.76518(8) 0.48700(10)
C2_17 C 0.83323(6) 0.75120(8) 0.44828(9)
H1_17 H 0.8092 0.7602 0.4747
C3_17 C 0.81916(6) 0.72403(8) 0.37089(9)
C4_17 C 0.85404(6) 0.71097(8) 0.33102(10)
H2_17 H 0.8448 0.6931 0.2782
C5_17 C 0.90269(6) 0.72438(8) 0.36934(9)
C6_17 C 0.91607(6) 0.75095(8) 0.44669(9)
H3_17 H 0.9491 0.7596 0.4726
C7_14 C 0.89877(6) 0.79516(8) 0.57191(10)
C8_14 C 0.85280(7) 0.79753(10) 0.61533(10)
H4_14 H 0.8227 0.7612 0.6231
H5_14 H 0.8414 0.8181 0.5805
H6_11 H 0.8647 0.8149 0.6704
C9_14 C 0.94477(7) 0.85242(11) 0.55600(11)
H7_14 H 0.9330 0.8703 0.5160
H8_14 H 0.9755 0.8511 0.5327
H9_14 H 0.9550 0.8723 0.6092
C10_14 C 0.91851(8) 0.76692(11) 0.63142(10)
H10_11 H 0.9268 0.7846 0.6866
H11_14 H 0.9507 0.7687 0.6080
H12_14 H 0.8905 0.7294 0.6379
C11_17 C 0.76593(6) 0.70689(8) 0.33084(9)
C12_17 C 0.93903(6) 0.70823(8) 0.32751(9)
O1_17 O 0.75648(4) 0.68238(6) 0.26178(7)
O3_17 O 0.92535(4) 0.68741(6) 0.25544(7)
O4_17 O 0.98018(4) 0.71612(6) 0.36725(7)
O6_17 O 0.74131(4) 0.64593(6) 0.07790(7)
O7_17 O 0.64685(4) 0.59740(7) 0.20058(7)
C1_18 C 0.88335(6) 0.11818(6) 0.48700(10)
C2_18 C 0.91796(6) 0.16677(6) 0.44828(9)
H1_18 H 0.9509 0.1908 0.4747
C3_18 C 0.90486(6) 0.18084(6) 0.37089(9)
C4_18 C 0.85692(6) 0.14596(6) 0.33102(10)
H2_18 H 0.8482 0.1552 0.2782
C5_18 C 0.82168(6) 0.09731(6) 0.36934(9)
C6_18 C 0.83487(6) 0.08393(6) 0.44669(9)
H3_18 H 0.8104 0.0509 0.4726
C7_15 C 0.89638(6) 0.10123(6) 0.57191(10)
C8_15 C 0.94472(7) 0.14720(7) 0.61533(10)
H4_15 H 0.9384 0.1773 0.6231
H5_15 H 0.9766 0.1586 0.5805
H6_12 H 0.9501 0.1353 0.6704
C9_15 C 0.90764(8) 0.05523(7) 0.55600(11)
H7_15 H 0.9372 0.0670 0.5160
H8_15 H 0.8755 0.0245 0.5327
H9_15 H 0.9172 0.0450 0.6092
C10_15 C 0.84840(7) 0.08149(8) 0.63142(10)
H10_12 H 0.8577 0.0732 0.6866
H11_15 H 0.8179 0.0493 0.6080
H12_15 H 0.8388 0.1095 0.6379
C11_18 C 0.94095(6) 0.23407(6) 0.33084(9)
C12_18 C 0.76919(6) 0.06097(6) 0.32751(9)
O1_18 O 0.92589(5) 0.24352(4) 0.26178(7)
O3_18 O 0.76205(4) 0.07465(4) 0.25544(7)
O4_18 O 0.73593(4) 0.01982(4) 0.36725(7)
O6_18 O 0.90461(4) 0.25869(4) 0.07790(7)
O7_18 O 0.95055(6) 0.35315(4) 0.20058(7)
C1_19 C 0.54849(6) 0.44998(6) 0.32033(10)
C2_19 C 0.49990(6) 0.41537(6) 0.28161(9)
H1_19 H 0.4759 0.3824 0.3080
C3_19 C 0.48583(6) 0.42847(6) 0.20422(9)
C4_19 C 0.52071(6) 0.47641(6) 0.16435(10)
H2_19 H 0.5115 0.4851 0.1115
C5_19 C 0.56936(6) 0.51165(6) 0.20267(9)
C6_19 C 0.58274(6) 0.49846(6) 0.28002(9)
H3_19 H 0.6158 0.5229 0.3059
C7_16 C 0.56544(6) 0.43695(6) 0.40524(10)
C8_16 C 0.51947(7) 0.38861(7) 0.44866(10)
H4_16 H 0.4894 0.3949 0.4564
H5_16 H 0.5081 0.3567 0.4138
H6_13 H 0.5314 0.3832 0.5037
C9_16 C 0.61144(7) 0.42569(8) 0.38933(11)
H7_16 H 0.5997 0.3961 0.3493
H8_16 H 0.6422 0.4578 0.3660
H9_16 H 0.6217 0.4161 0.4425
C10_16 C 0.58518(8) 0.48493(7) 0.46475(10)
H10_13 H 0.5935 0.4756 0.5199
H11_16 H 0.6174 0.5154 0.4413
H12_16 H 0.5572 0.4945 0.4712
C11_19 C 0.43260(6) 0.39238(6) 0.16417(9)
C12_19 C 0.60570(6) 0.56414(6) 0.16084(9)
O1_19 O 0.42315(4) 0.40744(5) 0.09511(7)
O2_10 O 0.40063(4) 0.34992(4) 0.20273(7)
O5_10 O 0.38404(6) 0.31675(4) 0.96394(7)
C1_20 C 0.55002(6) 0.09851(8) 0.32033(10)
C2_20 C 0.58463(6) 0.08453(8) 0.28161(9)
H1_20 H 0.6176 0.0935 0.3080
C3_20 C 0.57153(6) 0.05736(8) 0.20422(9)
C4_20 C 0.52359(6) 0.04430(8) 0.16435(10)
H2_20 H 0.5149 0.0264 0.1115
C5_20 C 0.48835(6) 0.05771(8) 0.20267(9)
C6_20 C 0.50154(6) 0.08428(8) 0.28002(9)
H3_20 H 0.4771 0.0929 0.3059
C7_17 C 0.56305(6) 0.12849(8) 0.40524(10)
C8_17 C 0.61139(7) 0.13086(10) 0.44866(10)
H4_17 H 0.6051 0.0945 0.4564
H5_17 H 0.6433 0.1514 0.4138
H6_14 H 0.6168 0.1482 0.5037
C9_17 C 0.57431(8) 0.18575(11) 0.38933(11)
H7_17 H 0.6039 0.2036 0.3493
H8_17 H 0.5422 0.1844 0.3660
H9_17 H 0.5839 0.2056 0.4425
C10_17 C 0.51507(7) 0.10025(11) 0.46475(10)
H10_14 H 0.5244 0.1179 0.5199
H11_17 H 0.4846 0.1020 0.4413
H12_17 H 0.5055 0.0627 0.4712
C11_20 C 0.60762(6) 0.04022(8) 0.16417(9)
C12_20 C 0.43586(6) 0.04156(8) 0.16084(9)
O1_20 O 0.59256(5) 0.01571(6) 0.09511(7)
O2_11 O 0.65008(4) 0.05071(6) 0.20273(7)
O5_11 O 0.68325(4) 0.06730(7) 0.96394(7)
C1_21 C 0.90149(8) 0.45151(6) 0.32033(10)
C2_21 C 0.91547(8) 0.50010(6) 0.28161(9)
H1_21 H 0.9065 0.5241 0.3080
C3_21 C 0.94264(8) 0.51417(6) 0.20422(9)
C4_21 C 0.95570(8) 0.47929(6) 0.16435(10)
H2_21 H 0.9736 0.4885 0.1115
C5_21 C 0.94229(8) 0.43064(6) 0.20267(9)
C6_21 C 0.91572(8) 0.41726(6) 0.28002(9)
H3_21 H 0.9071 0.3842 0.3059
C7_18 C 0.87151(8) 0.43456(6) 0.40524(10)
C8_18 C 0.86914(10) 0.48053(7) 0.44866(10)
H4_18 H 0.9055 0.5106 0.4564
H5_18 H 0.8486 0.4919 0.4138
H6_15 H 0.8518 0.4686 0.5037
C9_18 C 0.81425(11) 0.38856(7) 0.38933(11)
H7_18 H 0.7964 0.4003 0.3493
H8_18 H 0.8156 0.3578 0.3660
H9_18 H 0.7944 0.3783 0.4425
C10_18 C 0.89975(11) 0.41482(8) 0.46475(10)
H10_15 H 0.8821 0.4065 0.5199
H11_18 H 0.8980 0.3826 0.4413
H12_18 H 0.9373 0.4428 0.4712
C11_21 C 0.95978(8) 0.56740(6) 0.16417(9)
C12_21 C 0.95844(8) 0.39430(6) 0.16084(9)
O1_21 O 0.98429(6) 0.57685(4) 0.09511(7)
O2_12 O 0.94929(6) 0.59937(4) 0.20273(7)
O5_12 O 0.93270(7) 0.61596(6) 0.96394(7)
C1_22 C 0.09851(8) 0.55002(6) 0.17967(10)
C2_22 C 0.08453(8) 0.58463(6) 0.21839(9)
H1_22 H 0.0935 0.6176 0.1920
C3_22 C 0.05736(8) 0.57153(6) 0.29578(9)
C4_22 C 0.04430(8) 0.52359(6) 0.33565(10)
H2_22 H 0.0264 0.5149 0.3885
C5_22 C 0.05771(8) 0.48835(6) 0.29733(9)
C6_22 C 0.08428(8) 0.50154(6) 0.21998(9)
H3_22 H 0.0929 0.4771 0.1941
C7_19 C 0.12849(8) 0.56305(6) 0.09476(10)
C8_19 C 0.13086(10) 0.61139(7) 0.05134(10)
H4_19 H 0.0945 0.6051 0.0436
H5_19 H 0.1514 0.6433 0.0862
C9_19 C 0.18575(11) 0.57431(8) 0.11067(11)
H7_19 H 0.2036 0.6039 0.1507
H8_19 H 0.1844 0.5422 0.1340
H9_19 H 0.2056 0.5839 0.0575
C10_19 C 0.10025(11) 0.51507(7) 0.03525(10)
H11_19 H 0.1020 0.4846 0.0587
H12_19 H 0.0627 0.5055 0.0288
C11_22 C 0.04022(8) 0.60762(6) 0.33583(9)
C12_22 C 0.04156(8) 0.43586(6) 0.33916(9)
O1_22 O 0.01571(6) 0.59256(5) 0.40489(7)
O2_13 O 0.05071(6) 0.65008(4) 0.29727(7)
O5_13 O 0.06730(7) 0.68325(4) 0.53606(7)
C1_23 C 0.45151(6) 0.90149(8) 0.17967(10)
C2_23 C 0.50010(6) 0.91547(8) 0.21839(9)
H1_23 H 0.5241 0.9065 0.1920
C3_23 C 0.51417(6) 0.94264(8) 0.29578(9)
C4_23 C 0.47929(6) 0.95570(8) 0.33565(10)
H2_23 H 0.4885 0.9736 0.3885
C5_23 C 0.43064(6) 0.94229(8) 0.29733(9)
C6_23 C 0.41726(6) 0.91572(8) 0.21998(9)
H3_23 H 0.3842 0.9071 0.1941
C7_20 C 0.43456(6) 0.87151(8) 0.09476(10)
C8_20 C 0.48053(7) 0.86914(10) 0.05134(10)
H4_20 H 0.5106 0.9055 0.0436
H5_20 H 0.4919 0.8486 0.0862
C9_20 C 0.38856(7) 0.81425(11) 0.11067(11)
H7_20 H 0.4003 0.7964 0.1507
H8_20 H 0.3578 0.8156 0.1340
H9_20 H 0.3783 0.7944 0.0575
C10_20 C 0.41482(8) 0.89975(11) 0.03525(10)
H11_20 H 0.3826 0.8980 0.0587
H12_20 H 0.4428 0.9373 0.0288
C11_23 C 0.56740(6) 0.95978(8) 0.33583(9)
C12_23 C 0.39430(6) 0.95844(8) 0.33916(9)
O1_23 O 0.57685(4) 0.98429(6) 0.40489(7)
O2_14 O 0.59937(4) 0.94929(6) 0.29727(7)
O5_14 O 0.61596(6) 0.93270(7) 0.53606(7)
C1_24 C 0.44998(6) 0.54849(6) 0.17967(10)
C2_24 C 0.41537(6) 0.49990(6) 0.21839(9)
H1_24 H 0.3824 0.4759 0.1920
C3_24 C 0.42847(6) 0.48583(6) 0.29578(9)
C4_24 C 0.47641(6) 0.52071(6) 0.33565(10)
H2_24 H 0.4851 0.5115 0.3885
C5_24 C 0.51165(6) 0.56936(6) 0.29733(9)
C6_24 C 0.49846(6) 0.58274(6) 0.21998(9)
H3_24 H 0.5229 0.6158 0.1941
C7_21 C 0.43695(6) 0.56544(6) 0.09476(10)
C8_21 C 0.38861(7) 0.51947(7) 0.05134(10)
H4_21 H 0.3949 0.4894 0.0436
H5_21 H 0.3567 0.5081 0.0862
C9_21 C 0.42569(8) 0.61144(7) 0.11067(11)
H7_21 H 0.3961 0.5997 0.1507
H8_21 H 0.4578 0.6422 0.1340
H9_21 H 0.4161 0.6217 0.0575
C10_21 C 0.48493(7) 0.58518(8) 0.03525(10)
H11_21 H 0.5154 0.6174 0.0587
H12_21 H 0.4945 0.5572 0.0288
C11_24 C 0.39238(6) 0.43260(6) 0.33583(9)
C12_24 C 0.56414(6) 0.60570(6) 0.33916(9)
O1_24 O 0.40744(5) 0.42315(4) 0.40489(7)
O2_15 O 0.34992(4) 0.40063(4) 0.29727(7)
O5_15 O 0.31675(4) 0.38404(6) 0.53606(7)
C1_25 C 0.88182(6) 0.11665(6) 0.98700(10)
C2_25 C 0.83323(6) 0.08204(6) 0.94828(9)
H1_25 H 0.8092 0.0491 0.9747
C3_25 C 0.81916(6) 0.09514(6) 0.87089(9)
C4_25 C 0.85404(6) 0.14308(6) 0.83102(10)
H2_25 H 0.8448 0.1518 0.7782
C5_25 C 0.90269(6) 0.17832(6) 0.86934(9)
C6_25 C 0.91607(6) 0.16513(6) 0.94669(9)
H3_25 H 0.9491 0.1896 0.9726
C11_25 C 0.76593(6) 0.05905(6) 0.83084(9)
C12_25 C 0.93903(6) 0.23081(6) 0.82751(9)
O1_25 O 0.75648(4) 0.07411(5) 0.76178(7)
O2_16 O 0.73396(4) 0.01659(4) 0.86940(7)
O5_16 O 0.71738(6) 0.98341(4) 0.63060(7)
O5_17 O 0.01659(4) 0.73396(7) 0.63060(7)
C1_26 C 0.88335(6) 0.76518(8) 0.98700(10)
C2_26 C 0.91796(6) 0.75120(8) 0.94828(9)
H1_26 H 0.9509 0.7602 0.9747
C3_26 C 0.90486(6) 0.72403(8) 0.87089(9)
C4_26 C 0.85692(6) 0.71097(8) 0.83102(10)
H2_26 H 0.8482 0.6931 0.7782
C5_26 C 0.82168(6) 0.72438(8) 0.86934(9)
C6_26 C 0.83487(6) 0.75095(8) 0.94669(9)
H3_26 H 0.8104 0.7596 0.9726
C11_26 C 0.94095(6) 0.70689(8) 0.83084(9)
C12_26 C 0.76919(6) 0.70823(8) 0.82751(9)
O1_26 O 0.92589(5) 0.68238(6) 0.76178(7)
O2_17 O 0.98341(4) 0.71738(6) 0.86940(7)
C1_27 C 0.23482(8) 0.11818(6) 0.98700(10)
C2_27 C 0.24880(8) 0.16677(6) 0.94828(9)
H1_27 H 0.2398 0.1908 0.9747
C3_27 C 0.27597(8) 0.18084(6) 0.87089(9)
C4_27 C 0.28903(8) 0.14596(6) 0.83102(10)
H2_27 H 0.3069 0.1552 0.7782
C5_27 C 0.27562(8) 0.09731(6) 0.86934(9)
C6_27 C 0.24905(8) 0.08393(6) 0.94669(9)
H3_27 H 0.2404 0.0509 0.9726
C11_27 C 0.29311(8) 0.23407(6) 0.83084(9)
C12_27 C 0.29177(8) 0.06097(6) 0.82751(9)
O1_27 O 0.31762(6) 0.24352(4) 0.76178(7)
O2_18 O 0.28262(6) 0.26604(4) 0.86940(7)
O5_18 O 0.26604(7) 0.28262(6) 0.63060(7)
C4_28 C 0.37763(8) 0.19026(6) 0.00232(10)
H2_28 H 0.3597 0.1816 0.0552
C11_28 C 0.37355(8) 0.27429(6) 0.00250(9)
C12_28 C 0.37489(8) 0.10253(6) 0.00583(9)
O1_28 O 0.34904(6) 0.25923(5) 0.07156(7)
C1_28 C 0.43184(8) 0.21669(6) 0.84634(10)
C2_28 C 0.41786(8) 0.25130(6) 0.88506(9)
H1_28 H 0.4268 0.2843 0.8587
C3_28 C 0.39069(8) 0.23820(6) 0.96245(9)
C5_28 C 0.39104(8) 0.15502(6) 0.96400(9)
C6_28 C 0.41761(8) 0.16821(6) 0.88665(9)
H3_28 H 0.4262 0.1438 0.8608
C7_22 C 0.46182(8) 0.22972(6) 0.76143(10)
C8_22 C 0.46419(10) 0.27806(7) 0.71801(10)
H4_22 H 0.4278 0.2718 0.7103
H5_22 H 0.4847 0.3100 0.7529
H6_16 H 0.4815 0.2835 0.6630
C9_22 C 0.51908(11) 0.24098(8) 0.77734(11)
H7_22 H 0.5369 0.2706 0.8174
H8_22 H 0.5177 0.2089 0.8007
H9_22 H 0.5389 0.2506 0.7242
C10_22 C 0.43358(11) 0.18174(7) 0.70192(10)
H10_16 H 0.4512 0.1911 0.6468
H11_22 H 0.4353 0.1513 0.7254
H12_22 H 0.3960 0.1722 0.6955
C4_29 C 0.81262(6) 0.62237(8) 0.00232(10)
H2_29 H 0.8218 0.6403 0.0552
C11_29 C 0.90073(6) 0.62645(8) 0.00250(9)
C12_29 C 0.72763(6) 0.62511(8) 0.00583(9)
O1_29 O 0.91018(4) 0.65096(6) 0.07156(7)
C1_29 C 0.78484(6) 0.56816(8) 0.84634(10)
C2_29 C 0.83343(6) 0.58214(8) 0.88506(9)
H1_29 H 0.8574 0.5732 0.8587
C3_29 C 0.84750(6) 0.60931(8) 0.96245(9)
C5_29 C 0.76397(6) 0.60896(8) 0.96400(9)
C6_29 C 0.75059(6) 0.58239(8) 0.88665(9)
H3_29 H 0.7175 0.5738 0.8608
C7_23 C 0.76789(6) 0.53818(8) 0.76143(10)
C8_23 C 0.81386(7) 0.53581(10) 0.71801(10)
H4_23 H 0.8439 0.5722 0.7103
H5_23 H 0.8252 0.5153 0.7529
H6_17 H 0.8019 0.5185 0.6630
C9_23 C 0.72189(7) 0.48092(11) 0.77734(11)
H7_23 H 0.7336 0.4631 0.8174
H8_23 H 0.6911 0.4823 0.8007
H9_23 H 0.7116 0.4611 0.7242
C10_23 C 0.74815(8) 0.56642(11) 0.70192(10)
H10_17 H 0.7398 0.5488 0.6468
H11_23 H 0.7159 0.5647 0.7254
H12_23 H 0.7761 0.6040 0.6955
C4_30 C 0.80974(6) 0.18738(6) 0.00232(10)
H2_30 H 0.8184 0.1782 0.0552
C11_30 C 0.72571(6) 0.09927(6) 0.00250(9)
C12_30 C 0.89747(6) 0.27237(6) 0.00583(9)
O1_30 O 0.74077(5) 0.08982(4) 0.07156(7)
C1_30 C 0.78331(6) 0.21516(6) 0.84634(10)
C2_30 C 0.74870(6) 0.16657(6) 0.88506(9)
H1_30 H 0.7157 0.1426 0.8587
C3_30 C 0.76180(6) 0.15250(6) 0.96245(9)
C5_30 C 0.84498(6) 0.23603(6) 0.96400(9)
C6_30 C 0.83179(6) 0.24941(6) 0.88665(9)
H3_30 H 0.8562 0.2825 0.8608
C7_24 C 0.77028(6) 0.23211(6) 0.76143(10)
C8_24 C 0.72194(7) 0.18614(7) 0.71801(10)
H4_24 H 0.7282 0.1561 0.7103
H5_24 H 0.6900 0.1748 0.7529
H6_18 H 0.7165 0.1981 0.6630
C9_24 C 0.75902(8) 0.27811(7) 0.77734(11)
H7_24 H 0.7294 0.2664 0.8174
H8_24 H 0.7911 0.3089 0.8007
H9_24 H 0.7494 0.2884 0.7242
C10_24 C 0.81826(7) 0.25185(8) 0.70192(10)
H10_18 H 0.8089 0.2602 0.6468
H11_24 H 0.8487 0.2841 0.7254
H12_24 H 0.8278 0.2239 0.6955
C1_31 C 0.21516(6) 0.78331(6) 0.65366(10)
C2_31 C 0.16657(6) 0.74870(6) 0.61494(9)
H1_31 H 0.1426 0.7157 0.6413
C3_31 C 0.15250(6) 0.76180(6) 0.53755(9)
C4_31 C 0.18738(6) 0.80974(6) 0.49768(10)
H2_31 H 0.1782 0.8184 0.4448
C5_31 C 0.23603(6) 0.84498(6) 0.53600(9)
C6_31 C 0.24941(6) 0.83179(6) 0.61335(9)
H3_31 H 0.2825 0.8562 0.6392
C7_25 C 0.23211(6) 0.77028(6) 0.73857(10)
C8_25 C 0.18614(7) 0.72194(7) 0.78199(10)
H4_25 H 0.1561 0.7282 0.7897
H5_25 H 0.1748 0.6900 0.7471
H6_19 H 0.1981 0.7165 0.8370
C9_25 C 0.27811(7) 0.75902(8) 0.72266(11)
H7_25 H 0.2664 0.7294 0.6826
H8_25 H 0.3089 0.7911 0.6993
H9_25 H 0.2884 0.7494 0.7758
C10_25 C 0.25185(8) 0.81826(7) 0.79808(10)
H10_19 H 0.2602 0.8089 0.8532
H11_25 H 0.2841 0.8487 0.7746
H12_25 H 0.2239 0.8278 0.8045
C11_31 C 0.09927(6) 0.72571(6) 0.49750(9)
C12_31 C 0.27237(6) 0.89747(6) 0.49417(9)
O1_31 O 0.08982(4) 0.74077(5) 0.42844(7)
C1_32 C 0.21669(6) 0.43184(8) 0.65366(10)
C2_32 C 0.25130(6) 0.41786(8) 0.61494(9)
H1_32 H 0.2843 0.4268 0.6413
C3_32 C 0.23820(6) 0.39069(8) 0.53755(9)
C4_32 C 0.19026(6) 0.37763(8) 0.49768(10)
H2_32 H 0.1816 0.3597 0.4448
C5_32 C 0.15502(6) 0.39104(8) 0.53600(9)
C6_32 C 0.16821(6) 0.41761(8) 0.61335(9)
H3_32 H 0.1438 0.4262 0.6392
C7_26 C 0.22972(6) 0.46182(8) 0.73857(10)
C8_26 C 0.27806(7) 0.46419(10) 0.78199(10)
H4_26 H 0.2718 0.4278 0.7897
H5_26 H 0.3100 0.4847 0.7471
H6_20 H 0.2835 0.4815 0.8370
C9_26 C 0.24098(8) 0.51908(11) 0.72266(11)
H7_26 H 0.2706 0.5369 0.6826
H8_26 H 0.2089 0.5177 0.6993
H9_26 H 0.2506 0.5389 0.7758
C10_26 C 0.18174(7) 0.43358(11) 0.79808(10)
H10_20 H 0.1911 0.4512 0.8532
H11_26 H 0.1513 0.4353 0.7746
H12_26 H 0.1722 0.3960 0.8045
C11_32 C 0.27429(6) 0.37355(8) 0.49750(9)
C12_32 C 0.10253(6) 0.37489(8) 0.49417(9)
O1_32 O 0.25923(5) 0.34904(6) 0.42844(7)
C1_33 C 0.56816(8) 0.78484(6) 0.65366(10)
C2_33 C 0.58214(8) 0.83343(6) 0.61494(9)
H1_33 H 0.5732 0.8574 0.6413
C3_33 C 0.60931(8) 0.84750(6) 0.53755(9)
C4_33 C 0.62237(8) 0.81262(6) 0.49768(10)
H2_33 H 0.6403 0.8218 0.4448
C5_33 C 0.60896(8) 0.76397(6) 0.53600(9)
C6_33 C 0.58239(8) 0.75059(6) 0.61335(9)
H3_33 H 0.5738 0.7175 0.6392
C7_27 C 0.53818(8) 0.76789(6) 0.73857(10)
C8_27 C 0.53581(10) 0.81386(7) 0.78199(10)
H4_27 H 0.5722 0.8439 0.7897
H5_27 H 0.5153 0.8252 0.7471
H6_21 H 0.5185 0.8019 0.8370
C9_27 C 0.48092(11) 0.72189(7) 0.72266(11)
H7_27 H 0.4631 0.7336 0.6826
H8_27 H 0.4823 0.6911 0.6993
H9_27 H 0.4611 0.7116 0.7758
C10_27 C 0.56642(11) 0.74815(8) 0.79808(10)
H10_21 H 0.5488 0.7398 0.8532
H11_27 H 0.5647 0.7159 0.7746
H12_27 H 0.6040 0.7761 0.8045
C11_33 C 0.62645(8) 0.90073(6) 0.49750(9)
C12_33 C 0.62511(8) 0.72763(6) 0.49417(9)
O1_33 O 0.65096(6) 0.91018(4) 0.42844(7)
C1_34 C 0.76518(8) 0.88335(6) 0.51300(10)
C2_34 C 0.75120(8) 0.91796(6) 0.55172(9)
H1_34 H 0.7602 0.9509 0.5253
C3_34 C 0.72403(8) 0.90486(6) 0.62911(9)
C4_34 C 0.71097(8) 0.85692(6) 0.66898(10)
H2_34 H 0.6931 0.8482 0.7218
C5_34 C 0.72438(8) 0.82168(6) 0.63066(9)
C6_34 C 0.75095(8) 0.83487(6) 0.55331(9)
H3_34 H 0.7596 0.8104 0.5274
C7_28 C 0.79516(8) 0.89638(6) 0.42809(10)
C8_28 C 0.79753(10) 0.94472(7) 0.38467(10)
H4_28 H 0.7612 0.9384 0.3769
H5_28 H 0.8181 0.9766 0.4195
H6_22 H 0.8149 0.9501 0.3296
C9_28 C 0.85242(11) 0.90764(8) 0.44400(11)
H7_28 H 0.8703 0.9372 0.4840
H8_28 H 0.8511 0.8755 0.4673
H9_28 H 0.8723 0.9172 0.3908
C10_28 C 0.76692(11) 0.84840(7) 0.36858(10)
H10_22 H 0.7846 0.8577 0.3134
H11_28 H 0.7687 0.8179 0.3920
H12_28 H 0.7294 0.8388 0.3621
C11_34 C 0.70689(8) 0.94095(6) 0.66916(9)
C12_34 C 0.70823(8) 0.76919(6) 0.67249(9)
O1_34 O 0.68238(6) 0.92589(5) 0.73822(7)
C1_35 C 0.11818(6) 0.23482(8) 0.51300(10)
C2_35 C 0.16677(6) 0.24880(8) 0.55172(9)
H1_35 H 0.1908 0.2398 0.5253
C3_35 C 0.18084(6) 0.27597(8) 0.62911(9)
C4_35 C 0.14596(6) 0.28903(8) 0.66898(10)
H2_35 H 0.1552 0.3069 0.7218
C5_35 C 0.09731(6) 0.27562(8) 0.63066(9)
C6_35 C 0.08393(6) 0.24905(8) 0.55331(9)
H3_35 H 0.0509 0.2404 0.5274
C7_29 C 0.10123(6) 0.20484(8) 0.42809(10)
C8_29 C 0.14720(7) 0.20247(10) 0.38467(10)
H4_29 H 0.1773 0.2388 0.3769
H5_29 H 0.1586 0.1819 0.4195
H6_23 H 0.1353 0.1851 0.3296
C9_29 C 0.05523(7) 0.14758(11) 0.44400(11)
H7_29 H 0.0670 0.1297 0.4840
H8_29 H 0.0245 0.1489 0.4673
H9_29 H 0.0450 0.1277 0.3908
C10_29 C 0.08149(8) 0.23308(11) 0.36858(10)
H10_23 H 0.0732 0.2154 0.3134
H11_29 H 0.0493 0.2313 0.3920
H12_29 H 0.1095 0.2706 0.3621
C11_35 C 0.23407(6) 0.29311(8) 0.66916(9)
C12_35 C 0.06097(6) 0.29177(8) 0.67249(9)
O1_35 O 0.24352(4) 0.31762(6) 0.73822(7)
C1_36 C 0.11665(6) 0.88182(6) 0.51300(10)
C2_36 C 0.08204(6) 0.83323(6) 0.55172(9)
H1_36 H 0.0491 0.8092 0.5253
C3_36 C 0.09514(6) 0.81916(6) 0.62911(9)
C4_36 C 0.14308(6) 0.85404(6) 0.66898(10)
H2_36 H 0.1518 0.8448 0.7218
C5_36 C 0.17832(6) 0.90269(6) 0.63066(9)
C6_36 C 0.16513(6) 0.91607(6) 0.55331(9)
H3_36 H 0.1896 0.9491 0.5274
C7_30 C 0.10362(6) 0.89877(6) 0.42809(10)
C8_30 C 0.05528(7) 0.85280(7) 0.38467(10)
H4_30 H 0.0616 0.8227 0.3769
H5_30 H 0.0234 0.8414 0.4195
H6_24 H 0.0499 0.8647 0.3296
C9_30 C 0.09236(8) 0.94477(7) 0.44400(11)
H7_30 H 0.0628 0.9330 0.4840
H8_30 H 0.1245 0.9755 0.4673
H9_30 H 0.0828 0.9550 0.3908
C10_30 C 0.15160(7) 0.91851(8) 0.36858(10)
H10_24 H 0.1423 0.9268 0.3134
H11_30 H 0.1821 0.9507 0.3920
H12_30 H 0.1612 0.8905 0.3621
C11_36 C 0.05905(6) 0.76593(6) 0.66916(9)
C12_36 C 0.23081(6) 0.93903(6) 0.67249(9)
O1_36 O 0.07411(5) 0.75648(4) 0.73822(7)
H6_25 H 0.8518 0.3832 0.0037
H10_25 H 0.8821 0.4756 0.0199
H6_26 H 0.5314 0.1482 0.0037
H10_26 H 0.5935 0.1179 0.0199
H6_27 H 0.6168 0.4686 0.0037
H10_27 H 0.5244 0.4065 0.0199
C7_31 C 0.10123(6) 0.89638(6) 0.92809(10)
C8_31 C 0.14720(7) 0.94472(7) 0.88467(10)
H4_31 H 0.1773 0.9384 0.8769
H5_31 H 0.1586 0.9766 0.9195
H6_28 H 0.1353 0.9501 0.8296
C9_31 C 0.05523(7) 0.90764(8) 0.94400(11)
H7_31 H 0.0670 0.9372 0.9840
H8_31 H 0.0245 0.8755 0.9673
H9_31 H 0.0450 0.9172 0.8908
C10_31 C 0.08149(8) 0.84840(7) 0.86858(10)
H10_28 H 0.0732 0.8577 0.8134
H11_31 H 0.0493 0.8179 0.8920
H12_31 H 0.1095 0.8388 0.8621
C7_32 C 0.10362(6) 0.20484(8) 0.92809(10)
C8_32 C 0.05528(7) 0.20247(10) 0.88467(10)
H4_32 H 0.0616 0.2388 0.8769
H5_32 H 0.0234 0.1819 0.9195
H6_29 H 0.0499 0.1851 0.8296
C9_32 C 0.09236(8) 0.14758(11) 0.94400(11)
H7_32 H 0.0628 0.1297 0.9840
H8_32 H 0.1245 0.1489 0.9673
H9_32 H 0.0828 0.1277 0.8908
C10_32 C 0.15160(7) 0.23308(11) 0.86858(10)
H10_29 H 0.1423 0.2154 0.8134
H11_32 H 0.1821 0.2313 0.8920
H12_32 H 0.1612 0.2706 0.8621
C7_33 C 0.79516(8) 0.89877(6) 0.92809(10)
C8_33 C 0.79753(10) 0.85280(7) 0.88467(10)
H4_33 H 0.7612 0.8227 0.8769
H5_33 H 0.8181 0.8414 0.9195
H6_30 H 0.8149 0.8647 0.8296
C9_33 C 0.85242(11) 0.94477(7) 0.94400(11)
H7_33 H 0.8703 0.9330 0.9840
H8_33 H 0.8511 0.9755 0.9673
H9_33 H 0.8723 0.9550 0.8908
C10_33 C 0.76692(11) 0.91851(8) 0.86858(10)
H10_30 H 0.7846 0.9268 0.8134
H11_33 H 0.7687 0.9507 0.8920
H12_33 H 0.7294 0.8905 0.8621
H6_31 H 0.1482 0.6168 0.9963
H10_31 H 0.1179 0.5244 0.9801
H6_32 H 0.4686 0.8518 0.9963
H10_32 H 0.4065 0.8821 0.9801
H6_33 H 0.3832 0.5314 0.9963
H10_33 H 0.4756 0.5935 0.9801
C7_34 C 0.89877(6) 0.10362(6) 0.07191(10)
C8_34 C 0.85280(7) 0.05528(7) 0.11533(10)
H4_34 H 0.8227 0.0616 0.1231
H5_34 H 0.8414 0.0234 0.0805
H6_34 H 0.8647 0.0499 0.1704
C9_34 C 0.94477(7) 0.09236(8) 0.05600(11)
H7_34 H 0.9330 0.0628 0.0160
H8_34 H 0.9755 0.1245 0.0327
H9_34 H 0.9550 0.0828 0.1092
C10_34 C 0.91851(8) 0.15160(7) 0.13142(10)
H10_34 H 0.9268 0.1423 0.1866
H11_34 H 0.9507 0.1821 0.1080
H12_34 H 0.8905 0.1612 0.1379
C7_35 C 0.89638(6) 0.79516(8) 0.07191(10)
C8_35 C 0.94472(7) 0.79753(10) 0.11533(10)
H4_35 H 0.9384 0.7612 0.1231
H5_35 H 0.9766 0.8181 0.0805
H6_35 H 0.9501 0.8149 0.1704
C9_35 C 0.90764(8) 0.85242(11) 0.05600(11)
H7_35 H 0.9372 0.8703 0.0160
H8_35 H 0.8755 0.8511 0.0327
H9_35 H 0.9172 0.8723 0.1092
C10_35 C 0.84840(7) 0.76692(11) 0.13142(10)
H10_35 H 0.8577 0.7846 0.1866
H11_35 H 0.8179 0.7687 0.1080
H12_35 H 0.8388 0.7294 0.1379
C7_36 C 0.20484(8) 0.10123(6) 0.07191(10)
C8_36 C 0.20247(10) 0.14720(7) 0.11533(10)
H4_36 H 0.2388 0.1773 0.1231
H5_36 H 0.1819 0.1586 0.0805
H6_36 H 0.1851 0.1353 0.1704
C9_36 C 0.14758(11) 0.05523(7) 0.05600(11)
H7_36 H 0.1297 0.0670 0.0160
H8_36 H 0.1489 0.0245 0.0327
H9_36 H 0.1277 0.0450 0.1092
C10_36 C 0.23308(11) 0.08149(8) 0.13142(10)
H10_36 H 0.2154 0.0732 0.1866
H11_36 H 0.2313 0.0493 0.1080
H12_36 H 0.2706 0.1095 0.1379
loop_
_geom_bond_atom_site_label_1
_geom_bond_atom_site_label_2
_geom_bond_site_symmetry_1
_geom_bond_site_symmetry_2
C1 C2 1_555 1_555
C2 H1 1_555 1_555
C3 C2 1_555 1_555
C4 C3 1_555 1_555
H2 C4 1_555 1_555
C5 C4 1_555 1_555
C6 C1 1_555 1_555
H3 C6 1_555 1_555
C7 C1 1_555 1_555
C8 C7 1_555 1_555
H4 C8 1_555 1_555
H5 C8 1_555 1_555
H6 C8 1_555 1_555
C9 C7 1_555 1_555
H7 C9 1_555 1_555
H8 C9 1_555 1_555
H9 C9 1_555 1_555
C10 C7 1_555 1_555
H10 C10 1_555 1_555
H11 C10 1_555 1_555
H12 C10 1_555 1_555
C11 C3 1_555 1_555
C12 C5 1_555 1_555
O1 C11 1_555 1_555
O2 C11 1_555 1_555
O3 C12 1_555 1_555
O4 C12 1_555 1_555
Zn1 O1 1_555 1_555
O7 Zn1 1_555 1_555
Zn2 O2 1_555 1_555
Zn4 O4 1_555 1_555
C5 C6 1_555 1_555
O7_2 Zn1_2 1_555 1_555
C1_2 C2_2 1_555 1_555
C2_2 H1_2 1_555 1_555
C3_2 C2_2 1_555 1_555
C4_2 C3_2 1_555 1_555
H2_2 C4_2 1_555 1_555
C5_2 C4_2 1_555 1_555
C6_2 C1_2 1_555 1_555
H3_2 C6_2 1_555 1_555
C7_2 C1_2 1_555 1_555
C8_2 C7_2 1_555 1_555
H4_2 C8_2 1_555 1_555
H5_2 C8_2 1_555 1_555
H6_2 C8_2 1_555 1_555
C9_2 C7_2 1_555 1_555
H7_2 C9_2 1_555 1_555
H8_2 C9_2 1_555 1_555
H9_2 C9_2 1_555 1_555
C10_2 C7_2 1_555 1_555
H10_2 C10_2 1_555 1_555
H11_2 C10_2 1_555 1_555
H12_2 C10_2 1_555 1_555
C11_2 C3_2 1_555 1_555
C12_2 C5_2 1_555 1_555
O1_2 C11_2 1_555 1_555
O2_2 C11_2 1_555 1_555
O3_2 C12_2 1_555 1_555
O4_2 C12_2 1_555 1_555
Zn2_2 O2_2 1_555 1_555
Zn4_2 O4_2 1_555 1_555
C5_2 C6_2 1_555 1_555
C1_3 C2_3 1_555 1_555
C2_3 H1_3 1_555 1_555
C3_3 C2_3 1_555 1_555
C4_3 C3_3 1_555 1_555
H2_3 C4_3 1_555 1_555
C5_3 C4_3 1_555 1_555
C6_3 C1_3 1_555 1_555
H3_3 C6_3 1_555 1_555
C7_3 C1_3 1_555 1_555
C8_3 C7_3 1_555 1_555
H4_3 C8_3 1_555 1_555
H5_3 C8_3 1_555 1_555
H6_3 C8_3 1_555 1_555
C9_3 C7_3 1_555 1_555
H7_3 C9_3 1_555 1_555
H8_3 C9_3 1_555 1_555
H9_3 C9_3 1_555 1_555
C10_3 C7_3 1_555 1_555
H10_3 C10_3 1_555 1_555
H11_3 C10_3 1_555 1_555
H12_3 C10_3 1_555 1_555
C11_3 C3_3 1_555 1_555
C12_3 C5_3 1_555 1_555
O1_3 C11_3 1_555 1_555
O2_3 C11_3 1_555 1_555
O3_3 C12_3 1_555 1_555
O4_3 C12_3 1_555 1_555
Zn2_3 O2_3 1_555 1_555
Zn4_3 O4_3 1_555 1_555
C5_3 C6_3 1_555 1_555
O7_3 Zn1_3 1_555 1_555
O6_4 Zn1_4 1_555 1_555
O7_4 Zn1_4 1_555 1_555
C1_4 C2_4 1_555 1_555
C2_4 H1_4 1_555 1_555
C3_4 C2_4 1_555 1_555
C4_4 C3_4 1_555 1_555
H2_4 C4_4 1_555 1_555
C5_4 C4_4 1_555 1_555
C6_4 C1_4 1_555 1_555
H3_4 C6_4 1_555 1_555
C7_4 C1_4 1_555 1_555
C8_4 C7_4 1_555 1_555
H4_4 C8_4 1_555 1_555
H5_4 C8_4 1_555 1_555
C9_4 C7_4 1_555 1_555
H7_4 C9_4 1_555 1_555
H8_4 C9_4 1_555 1_555
H9_4 C9_4 1_555 1_555
C10_4 C7_4 1_555 1_555
H11_4 C10_4 1_555 1_555
H12_4 C10_4 1_555 1_555
C11_4 C3_4 1_555 1_555
C12_4 C5_4 1_555 1_555
O1_4 C11_4 1_555 1_555
O2_4 C11_4 1_555 1_555
O3_4 C12_4 1_555 1_555
O4_4 C12_4 1_555 1_555
Zn2_4 O2_4 1_555 1_555
Zn3_4 O3_4 1_555 1_555
Zn4_4 O4_4 1_555 1_555
C5_4 C6_4 1_555 1_555
C1_5 C2_5 1_555 1_555
C2_5 H1_5 1_555 1_555
C3_5 C2_5 1_555 1_555
C4_5 C3_5 1_555 1_555
H2_5 C4_5 1_555 1_555
C5_5 C4_5 1_555 1_555
C6_5 C1_5 1_555 1_555
H3_5 C6_5 1_555 1_555
C7_5 C1_5 1_555 1_555
C8_5 C7_5 1_555 1_555
H4_5 C8_5 1_555 1_555
H5_5 C8_5 1_555 1_555
C9_5 C7_5 1_555 1_555
H7_5 C9_5 1_555 1_555
H8_5 C9_5 1_555 1_555
H9_5 C9_5 1_555 1_555
C10_5 C7_5 1_555 1_555
H11_5 C10_5 1_555 1_555
H12_5 C10_5 1_555 1_555
C11_5 C3_5 1_555 1_555
C12_5 C5_5 1_555 1_555
O1_5 C11_5 1_555 1_555
O2_5 C11_5 1_555 1_555
O3_5 C12_5 1_555 1_555
O4_5 C12_5 1_555 1_555
Zn2_5 O2_5 1_555 1_555
Zn3_5 O3_5 1_555 1_555
Zn4_5 O4_5 1_555 1_555
C5_5 C6_5 1_555 1_555
O6_5 Zn1_5 1_555 1_555
O7_5 Zn1_5 1_555 1_555
C1_6 C2_6 1_555 1_555
C2_6 H1_6 1_555 1_555
C3_6 C2_6 1_555 1_555
C4_6 C3_6 1_555 1_555
H2_6 C4_6 1_555 1_555
C5_6 C4_6 1_555 1_555
C6_6 C1_6 1_555 1_555
H3_6 C6_6 1_555 1_555
C7_6 C1_6 1_555 1_555
C8_6 C7_6 1_555 1_555
H4_6 C8_6 1_555 1_555
H5_6 C8_6 1_555 1_555
C9_6 C7_6 1_555 1_555
H7_6 C9_6 1_555 1_555
H8_6 C9_6 1_555 1_555
H9_6 C9_6 1_555 1_555
C10_6 C7_6 1_555 1_555
H11_6 C10_6 1_555 1_555
H12_6 C10_6 1_555 1_555
C11_6 C3_6 1_555 1_555
C12_6 C5_6 1_555 1_555
O1_6 C11_6 1_555 1_555
O2_6 C11_6 1_555 1_555
O3_6 C12_6 1_555 1_555
O4_6 C12_6 1_555 1_555
Zn1_6 O1_6 1_555 1_555
O5_6 Zn1_6 1_555 1_555
O6_6 Zn1_6 1_555 1_555
O7_6 Zn1_6 1_555 1_555
Zn2_6 O2_6 1_555 1_555
Zn3_6 O3_6 1_555 1_555
Zn4_6 O4_6 1_555 1_555
C5_6 C6_6 1_555 1_555
C1_7 C2_7 1_555 1_555
C2_7 H1_7 1_555 1_555
C3_7 C2_7 1_555 1_555
C4_7 C3_7 1_555 1_555
H2_7 C4_7 1_555 1_555
C5_7 C4_7 1_555 1_555
C6_7 C1_7 1_555 1_555
H3_7 C6_7 1_555 1_555
C11_7 C3_7 1_555 1_555
C12_7 C5_7 1_555 1_555
O1_7 C11_7 1_555 1_555
O2_7 C11_7 1_555 1_555
O3_7 C12_7 1_555 1_555
O4_7 C12_7 1_555 1_555
Zn1_7 O1_7 1_555 1_555
O6_7 Zn1_7 1_555 1_555
O7_7 Zn1_7 1_555 1_555
Zn3_7 O3_7 1_555 1_555
C5_7 C6_7 1_555 1_555
C1_8 C2_8 1_555 1_555
C2_8 H1_8 1_555 1_555
C3_8 C2_8 1_555 1_555
C4_8 C3_8 1_555 1_555
H2_8 C4_8 1_555 1_555
C5_8 C4_8 1_555 1_555
C6_8 C1_8 1_555 1_555
H3_8 C6_8 1_555 1_555
C11_8 C3_8 1_555 1_555
C12_8 C5_8 1_555 1_555
O1_8 C11_8 1_555 1_555
O2_8 C11_8 1_555 1_555
O3_8 C12_8 1_555 1_555
O4_8 C12_8 1_555 1_555
Zn1_8 O1_8 1_555 1_555
O6_8 Zn1_8 1_555 1_555
O7_8 Zn1_8 1_555 1_555
Zn3_8 O3_8 1_555 1_555
Zn4_8 O4_8 1_555 1_555
C5_8 C6_8 1_555 1_555
C1_9 C2_9 1_555 1_555
C2_9 H1_9 1_555 1_555
C3_9 C2_9 1_555 1_555
C4_9 C3_9 1_555 1_555
H2_9 C4_9 1_555 1_555
C5_9 C4_9 1_555 1_555
C6_9 C1_9 1_555 1_555
H3_9 C6_9 1_555 1_555
C11_9 C3_9 1_555 1_555
C12_9 C5_9 1_555 1_555
O1_9 C11_9 1_555 1_555
O2_9 C11_9 1_555 1_555
O3_9 C12_9 1_555 1_555
O4_9 C12_9 1_555 1_555
Zn1_9 O1_9 1_555 1_555
O5_9 Zn1_9 1_555 1_555
O6_9 Zn1_9 1_555 1_555
O7_9 Zn1_9 1_555 1_555
Zn2_9 O2_9 1_555 1_555
Zn3_9 O3_9 1_555 1_555
C5_9 C6_9 1_555 1_555
C1_10 C2_10 1_555 1_555
C2_10 H1_10 1_555 1_555
C3_10 C2_10 1_555 1_555
C6_10 C1_10 1_555 1_555
H3_10 C6_10 1_555 1_555
C7_7 C1_10 1_555 1_555
C8_7 C7_7 1_555 1_555
H4_7 C8_7 1_555 1_555
H5_7 C8_7 1_555 1_555
H6_4 C8_7 1_555 1_555
C9_7 C7_7 1_555 1_555
H7_7 C9_7 1_555 1_555
H8_7 C9_7 1_555 1_555
H9_7 C9_7 1_555 1_555
C10_7 C7_7 1_555 1_555
H10_4 C10_7 1_555 1_555
H11_7 C10_7 1_555 1_555
H12_7 C10_7 1_555 1_555
Zn3_2 O4_10 1_555 1_555
C5_10 C6_10 1_555 1_555
H2_10 C4_10 1_555 1_555
O1_10 C11_10 1_555 1_555
O3_10 C12_10 1_555 1_555
Zn2 O1_10 1_555 1_555
O6_10 Zn2 1_555 1_555
O7_10 Zn2 1_555 1_555
Zn4_2 O3_10 1_555 1_555
C1_11 C2_11 1_555 1_555
C2_11 H1_11 1_555 1_555
C3_11 C2_11 1_555 1_555
C6_11 C1_11 1_555 1_555
H3_11 C6_11 1_555 1_555
C7_8 C1_11 1_555 1_555
C8_8 C7_8 1_555 1_555
H4_8 C8_8 1_555 1_555
H5_8 C8_8 1_555 1_555
H6_5 C8_8 1_555 1_555
C9_8 C7_8 1_555 1_555
H7_8 C9_8 1_555 1_555
H8_8 C9_8 1_555 1_555
H9_8 C9_8 1_555 1_555
C10_8 C7_8 1_555 1_555
H10_5 C10_8 1_555 1_555
H11_8 C10_8 1_555 1_555
H12_8 C10_8 1_555 1_555
Zn3 O4_11 1_555 1_555
C5_11 C6_11 1_555 1_555
H2_11 C4_11 1_555 1_555
O1_11 C11_11 1_555 1_555
O3_11 C12_11 1_555 1_555
Zn2_3 O1_11 1_555 1_555
O6_11 Zn2_3 1_555 1_555
Zn4 O3_11 1_555 1_555
C1_12 C2_12 1_555 1_555
C2_12 H1_12 1_555 1_555
C3_12 C2_12 1_555 1_555
C6_12 C1_12 1_555 1_555
H3_12 C6_12 1_555 1_555
C7_9 C1_12 1_555 1_555
C8_9 C7_9 1_555 1_555
H4_9 C8_9 1_555 1_555
H5_9 C8_9 1_555 1_555
H6_6 C8_9 1_555 1_555
C9_9 C7_9 1_555 1_555
H7_9 C9_9 1_555 1_555
H8_9 C9_9 1_555 1_555
H9_9 C9_9 1_555 1_555
C10_9 C7_9 1_555 1_555
H10_6 C10_9 1_555 1_555
H11_9 C10_9 1_555 1_555
H12_9 C10_9 1_555 1_555
Zn3_3 O4_12 1_555 1_555
C5_12 C6_12 1_555 1_555
H2_12 C4_12 1_555 1_555
O1_12 C11_12 1_555 1_555
O3_12 C12_12 1_555 1_555
Zn2_2 O1_12 1_555 1_555
O6_12 Zn2_2 1_555 1_555
Zn4_3 O3_12 1_555 1_555
C1_13 C2_13 1_555 1_555
C2_13 H1_13 1_555 1_555
C3_13 C2_13 1_555 1_555
C4_13 C3_13 1_555 1_555
H2_13 C4_13 1_555 1_555
C5_13 C4_13 1_555 1_555
C6_13 C1_13 1_555 1_555
H3_13 C6_13 1_555 1_555
C7_10 C1_13 1_555 1_555
C8_10 C7_10 1_555 1_555
H4_10 C8_10 1_555 1_555
H5_10 C8_10 1_555 1_555
H6_7 C8_10 1_555 1_555
C9_10 C7_10 1_555 1_555
H7_10 C9_10 1_555 1_555
H8_10 C9_10 1_555 1_555
H9_10 C9_10 1_555 1_555
C10_10 C7_10 1_555 1_555
H10_7 C10_10 1_555 1_555
H11_10 C10_10 1_555 1_555
H12_10 C10_10 1_555 1_555
C11_13 C3_13 1_555 1_555
C12_13 C5_13 1_555 1_555
O1_13 C11_13 1_555 1_555
O5_4 C11_13 1_555 1_555
O3_13 C12_13 1_555 1_555
O4_13 C12_13 1_555 1_555
Zn2_4 O1_13 1_555 1_555
O6_13 Zn2_4 1_555 1_555
Zn4_5 O3_13 1_555 1_555
Zn3_5 O4_13 1_555 1_555
C5_13 C6_13 1_555 1_555
C1_14 C2_14 1_555 1_555
C2_14 H1_14 1_555 1_555
C3_14 C2_14 1_555 1_555
C4_14 C3_14 1_555 1_555
H2_14 C4_14 1_555 1_555
C5_14 C4_14 1_555 1_555
C6_14 C1_14 1_555 1_555
H3_14 C6_14 1_555 1_555
C7_11 C1_14 1_555 1_555
C8_11 C7_11 1_555 1_555
H4_11 C8_11 1_555 1_555
H5_11 C8_11 1_555 1_555
H6_8 C8_11 1_555 1_555
C9_11 C7_11 1_555 1_555
H7_11 C9_11 1_555 1_555
H8_11 C9_11 1_555 1_555
H9_11 C9_11 1_555 1_555
C10_11 C7_11 1_555 1_555
H10_8 C10_11 1_555 1_555
H11_11 C10_11 1_555 1_555
H12_11 C10_11 1_555 1_555
C11_14 C3_14 1_555 1_555
C12_14 C5_14 1_555 1_555
O1_14 C11_14 1_555 1_555
O5_6 C11_14 1_555 1_555
O3_14 C12_14 1_555 1_555
O4_14 C12_14 1_555 1_555
Zn2_6 O1_14 1_555 1_555
O6_14 Zn2_6 1_555 1_555
O7_14 Zn2_6 1_555 1_555
Zn4_4 O3_14 1_555 1_555
Zn3_4 O4_14 1_555 1_555
C5_14 C6_14 1_555 1_555
C1_15 C2_15 1_555 1_555
C2_15 H1_15 1_555 1_555
C3_15 C2_15 1_555 1_555
C4_15 C3_15 1_555 1_555
H2_15 C4_15 1_555 1_555
C5_15 C4_15 1_555 1_555
C6_15 C1_15 1_555 1_555
H3_15 C6_15 1_555 1_555
C7_12 C1_15 1_555 1_555
C8_12 C7_12 1_555 1_555
H4_12 C8_12 1_555 1_555
H5_12 C8_12 1_555 1_555
H6_9 C8_12 1_555 1_555
C9_12 C7_12 1_555 1_555
H7_12 C9_12 1_555 1_555
H8_12 C9_12 1_555 1_555
H9_12 C9_12 1_555 1_555
C10_12 C7_12 1_555 1_555
H10_9 C10_12 1_555 1_555
H11_12 C10_12 1_555 1_555
H12_12 C10_12 1_555 1_555
C11_15 C3_15 1_555 1_555
C12_15 C5_15 1_555 1_555
O1_15 C11_15 1_555 1_555
O5_5 C11_15 1_555 1_555
O3_15 C12_15 1_555 1_555
O4_15 C12_15 1_555 1_555
Zn2_5 O1_15 1_555 1_555
O6_15 Zn2_5 1_555 1_555
Zn4_6 O3_15 1_555 1_555
Zn3_6 O4_15 1_555 1_555
C5_15 C6_15 1_555 1_555
C1_16 C2_16 1_555 1_555
C2_16 H1_16 1_555 1_555
C3_16 C2_16 1_555 1_555
C4_16 C3_16 1_555 1_555
H2_16 C4_16 1_555 1_555
C5_16 C4_16 1_555 1_555
C6_16 C1_16 1_555 1_555
H3_16 C6_16 1_555 1_555
C7_13 C1_16 1_555 1_555
C8_13 C7_13 1_555 1_555
H4_13 C8_13 1_555 1_555
H5_13 C8_13 1_555 1_555
H6_10 C8_13 1_555 1_555
C9_13 C7_13 1_555 1_555
H7_13 C9_13 1_555 1_555
H8_13 C9_13 1_555 1_555
H9_13 C9_13 1_555 1_555
C10_13 C7_13 1_555 1_555
H10_10 C10_13 1_555 1_555
H11_13 C10_13 1_555 1_555
H12_13 C10_13 1_555 1_555
C11_16 C3_16 1_555 1_555
C12_16 C5_16 1_555 1_555
O1_16 C11_16 1_555 1_555
O5_7 C11_16 1_555 1_555
O3_16 C12_16 1_555 1_555
O4_16 C12_16 1_555 1_555
Zn2_7 O1_16 1_555 1_555
O6_16 Zn2_7 1_555 1_555
O7_16 Zn2_7 1_555 1_555
Zn4_8 O3_16 1_555 1_555
Zn3_8 O4_16 1_555 1_555
C5_16 C6_16 1_555 1_555
C1_17 C2_17 1_555 1_555
C2_17 H1_17 1_555 1_555
C3_17 C2_17 1_555 1_555
C4_17 C3_17 1_555 1_555
H2_17 C4_17 1_555 1_555
C5_17 C4_17 1_555 1_555
C6_17 C1_17 1_555 1_555
H3_17 C6_17 1_555 1_555
C7_14 C1_17 1_555 1_555
C8_14 C7_14 1_555 1_555
H4_14 C8_14 1_555 1_555
H5_14 C8_14 1_555 1_555
H6_11 C8_14 1_555 1_555
C9_14 C7_14 1_555 1_555
H7_14 C9_14 1_555 1_555
H8_14 C9_14 1_555 1_555
H9_14 C9_14 1_555 1_555
C10_14 C7_14 1_555 1_555
H10_11 C10_14 1_555 1_555
H11_14 C10_14 1_555 1_555
H12_14 C10_14 1_555 1_555
C11_17 C3_17 1_555 1_555
C12_17 C5_17 1_555 1_555
O1_17 C11_17 1_555 1_555
O5_9 C11_17 1_555 1_555
O3_17 C12_17 1_555 1_555
O4_17 C12_17 1_555 1_555
Zn2_9 O1_17 1_555 1_555
O6_17 Zn2_9 1_555 1_555
O7_17 Zn2_9 1_555 1_555
Zn4_7 O3_17 1_555 1_555
C5_17 C6_17 1_555 1_555
C1_18 C2_18 1_555 1_555
C2_18 H1_18 1_555 1_555
C3_18 C2_18 1_555 1_555
C4_18 C3_18 1_555 1_555
H2_18 C4_18 1_555 1_555
C5_18 C4_18 1_555 1_555
C6_18 C1_18 1_555 1_555
H3_18 C6_18 1_555 1_555
C7_15 C1_18 1_555 1_555
C8_15 C7_15 1_555 1_555
H4_15 C8_15 1_555 1_555
H5_15 C8_15 1_555 1_555
H6_12 C8_15 1_555 1_555
C9_15 C7_15 1_555 1_555
H7_15 C9_15 1_555 1_555
H8_15 C9_15 1_555 1_555
H9_15 C9_15 1_555 1_555
C10_15 C7_15 1_555 1_555
H10_12 C10_15 1_555 1_555
H11_15 C10_15 1_555 1_555
H12_15 C10_15 1_555 1_555
C11_18 C3_18 1_555 1_555
C12_18 C5_18 1_555 1_555
O1_18 C11_18 1_555 1_555
O5_8 C11_18 1_555 1_555
O3_18 C12_18 1_555 1_555
O4_18 C12_18 1_555 1_555
Zn2_8 O1_18 1_555 1_555
O6_18 Zn2_8 1_555 1_555
O7_18 Zn2_8 1_555 1_555
Zn4_9 O3_18 1_555 1_555
C5_18 C6_18 1_555 1_555
C1_19 C2_19 1_555 1_555
C2_19 H1_19 1_555 1_555
C3_19 C2_19 1_555 1_555
C4_19 C3_19 1_555 1_555
H2_19 C4_19 1_555 1_555
C5_19 C4_19 1_555 1_555
C6_19 C1_19 1_555 1_555
H3_19 C6_19 1_555 1_555
C7_16 C1_19 1_555 1_555
C8_16 C7_16 1_555 1_555
H4_16 C8_16 1_555 1_555
H5_16 C8_16 1_555 1_555
H6_13 C8_16 1_555 1_555
C9_16 C7_16 1_555 1_555
H7_16 C9_16 1_555 1_555
H8_16 C9_16 1_555 1_555
H9_16 C9_16 1_555 1_555
C10_16 C7_16 1_555 1_555
H10_13 C10_16 1_555 1_555
H11_16 C10_16 1_555 1_555
H12_16 C10_16 1_555 1_555
C11_19 C3_19 1_555 1_555
C12_19 C5_19 1_555 1_555
O1_19 C11_19 1_555 1_555
O2_10 C11_19 1_555 1_555
O6 C12_19 1_555 1_555
O7_17 C12_19 1_555 1_555
Zn3 O1_19 1_555 1_555
Zn4_8 O2_10 1_555 1_555
C5_19 C6_19 1_555 1_555
C1_20 C2_20 1_555 1_555
C2_20 H1_20 1_555 1_555
C3_20 C2_20 1_555 1_555
C4_20 C3_20 1_555 1_555
H2_20 C4_20 1_555 1_555
C5_20 C4_20 1_555 1_555
C6_20 C1_20 1_555 1_555
H3_20 C6_20 1_555 1_555
C7_17 C1_20 1_555 1_555
C8_17 C7_17 1_555 1_555
H4_17 C8_17 1_555 1_555
H5_17 C8_17 1_555 1_555
H6_14 C8_17 1_555 1_555
C9_17 C7_17 1_555 1_555
H7_17 C9_17 1_555 1_555
H8_17 C9_17 1_555 1_555
H9_17 C9_17 1_555 1_555
C10_17 C7_17 1_555 1_555
H10_14 C10_17 1_555 1_555
H11_17 C10_17 1_555 1_555
H12_17 C10_17 1_555 1_555
C11_20 C3_20 1_555 1_555
C12_20 C5_20 1_555 1_555
O1_20 C11_20 1_555 1_555
O2_11 C11_20 1_555 1_555
O6_2 C12_20 1_555 1_555
O7_16 C12_20 1_555 1_555
Zn4_9 O2_11 1_555 1_555
C5_20 C6_20 1_555 1_555
C1_21 C2_21 1_555 1_555
C2_21 H1_21 1_555 1_555
C3_21 C2_21 1_555 1_555
C4_21 C3_21 1_555 1_555
H2_21 C4_21 1_555 1_555
C5_21 C4_21 1_555 1_555
C6_21 C1_21 1_555 1_555
H3_21 C6_21 1_555 1_555
C7_18 C1_21 1_555 1_555
C8_18 C7_18 1_555 1_555
H4_18 C8_18 1_555 1_555
H5_18 C8_18 1_555 1_555
H6_15 C8_18 1_555 1_555
C9_18 C7_18 1_555 1_555
H7_18 C9_18 1_555 1_555
H8_18 C9_18 1_555 1_555
H9_18 C9_18 1_555 1_555
C10_18 C7_18 1_555 1_555
H10_15 C10_18 1_555 1_555
H11_18 C10_18 1_555 1_555
H12_18 C10_18 1_555 1_555
C11_21 C3_21 1_555 1_555
C12_21 C5_21 1_555 1_555
O1_21 C11_21 1_555 1_555
O2_12 C11_21 1_555 1_555
O6_3 C12_21 1_555 1_555
O7_18 C12_21 1_555 1_555
Zn4_7 O2_12 1_555 1_555
C5_21 C6_21 1_555 1_555
C1_22 C2_22 1_555 1_555
C2_22 H1_22 1_555 1_555
C3_22 C2_22 1_555 1_555
C4_22 C3_22 1_555 1_555
H2_22 C4_22 1_555 1_555
C5_22 C4_22 1_555 1_555
C6_22 C1_22 1_555 1_555
H3_22 C6_22 1_555 1_555
C7_19 C1_22 1_555 1_555
C8_19 C7_19 1_555 1_555
H4_19 C8_19 1_555 1_555
H5_19 C8_19 1_555 1_555
C9_19 C7_19 1_555 1_555
H7_19 C9_19 1_555 1_555
H8_19 C9_19 1_555 1_555
H9_19 C9_19 1_555 1_555
C10_19 C7_19 1_555 1_555
H11_19 C10_19 1_555 1_555
H12_19 C10_19 1_555 1_555
C11_22 C3_22 1_555 1_555
C12_22 C5_22 1_555 1_555
O1_22 C11_22 1_555 1_555
O2_13 C11_22 1_555 1_555
O6_4 C12_22 1_555 1_555
O7_8 C12_22 1_555 1_555
Zn3_7 O2_13 1_555 1_555
C5_22 C6_22 1_555 1_555
C1_23 C2_23 1_555 1_555
C2_23 H1_23 1_555 1_555
C3_23 C2_23 1_555 1_555
C4_23 C3_23 1_555 1_555
H2_23 C4_23 1_555 1_555
C5_23 C4_23 1_555 1_555
C6_23 C1_23 1_555 1_555
H3_23 C6_23 1_555 1_555
C7_20 C1_23 1_555 1_555
C8_20 C7_20 1_555 1_555
H4_20 C8_20 1_555 1_555
H5_20 C8_20 1_555 1_555
C9_20 C7_20 1_555 1_555
H7_20 C9_20 1_555 1_555
H8_20 C9_20 1_555 1_555
H9_20 C9_20 1_555 1_555
C10_20 C7_20 1_555 1_555
H11_20 C10_20 1_555 1_555
H12_20 C10_20 1_555 1_555
C11_23 C3_23 1_555 1_555
C12_23 C5_23 1_555 1_555
O1_23 C11_23 1_555 1_555
O2_14 C11_23 1_555 1_555
O6_5 C12_23 1_555 1_555
O7_7 C12_23 1_555 1_555
Zn3_9 O2_14 1_555 1_555
C5_23 C6_23 1_555 1_555
C1_24 C2_24 1_555 1_555
C2_24 H1_24 1_555 1_555
C3_24 C2_24 1_555 1_555
C4_24 C3_24 1_555 1_555
H2_24 C4_24 1_555 1_555
C5_24 C4_24 1_555 1_555
C6_24 C1_24 1_555 1_555
H3_24 C6_24 1_555 1_555
C7_21 C1_24 1_555 1_555
C8_21 C7_21 1_555 1_555
H4_21 C8_21 1_555 1_555
H5_21 C8_21 1_555 1_555
C9_21 C7_21 1_555 1_555
H7_21 C9_21 1_555 1_555
H8_21 C9_21 1_555 1_555
H9_21 C9_21 1_555 1_555
C10_21 C7_21 1_555 1_555
H11_21 C10_21 1_555 1_555
H12_21 C10_21 1_555 1_555
C11_24 C3_24 1_555 1_555
C12_24 C5_24 1_555 1_555
O1_24 C11_24 1_555 1_555
O2_15 C11_24 1_555 1_555
O6_6 C12_24 1_555 1_555
O7_9 C12_24 1_555 1_555
Zn3_6 O1_24 1_555 1_555
O5_15 Zn3_6 1_555 1_555
Zn3_8 O2_15 1_555 1_555
C5_24 C6_24 1_555 1_555
C1_25 C2_25 1_555 1_555
C2_25 H1_25 1_555 1_555
C3_25 C2_25 1_555 1_555
C4_25 C3_25 1_555 1_555
H2_25 C4_25 1_555 1_555
C5_25 C4_25 1_555 1_555
C6_25 C1_25 1_555 1_555
H3_25 C6_25 1_555 1_555
C11_25 C3_25 1_555 1_555
C12_25 C5_25 1_555 1_555
O1_25 C11_25 1_555 1_555
O2_16 C11_25 1_555 1_555
O6_13 C12_25 1_555 1_555
O7_11 C12_25 1_555 1_555
Zn4_5 O1_25 1_555 1_555
C5_25 C6_25 1_555 1_555
C1_26 C2_26 1_555 1_555
C2_26 H1_26 1_555 1_555
C3_26 C2_26 1_555 1_555
C4_26 C3_26 1_555 1_555
H2_26 C4_26 1_555 1_555
C5_26 C4_26 1_555 1_555
C6_26 C1_26 1_555 1_555
H3_26 C6_26 1_555 1_555
C11_26 C3_26 1_555 1_555
C12_26 C5_26 1_555 1_555
O1_26 C11_26 1_555 1_555
O2_17 C11_26 1_555 1_555
O6_14 C12_26 1_555 1_555
O7_10 C12_26 1_555 1_555
Zn4_4 O1_26 1_555 1_555
C5_26 C6_26 1_555 1_555
C1_27 C2_27 1_555 1_555
C2_27 H1_27 1_555 1_555
C3_27 C2_27 1_555 1_555
C4_27 C3_27 1_555 1_555
H2_27 C4_27 1_555 1_555
C5_27 C4_27 1_555 1_555
C6_27 C1_27 1_555 1_555
H3_27 C6_27 1_555 1_555
C11_27 C3_27 1_555 1_555
C12_27 C5_27 1_555 1_555
O1_27 C11_27 1_555 1_555
O2_18 C11_27 1_555 1_555
O6_15 C12_27 1_555 1_555
O7_12 C12_27 1_555 1_555
Zn4_6 O1_27 1_555 1_555
O5_18 Zn4_6 1_555 1_555
Zn4 O2_18 1_555 1_555
C5_27 C6_27 1_555 1_555
H2_28 C4_28 1_555 1_555
O1_28 C11_28 1_555 1_555
O6_16 C12_28 1_555 1_555
Zn4_8 O1_28 1_555 1_555
C1_28 C2_28 1_555 1_555
C2_28 H1_28 1_555 1_555
C3_28 C2_28 1_555 1_555
C6_28 C1_28 1_555 1_555
H3_28 C6_28 1_555 1_555
C7_22 C1_28 1_555 1_555
C8_22 C7_22 1_555 1_555
H4_22 C8_22 1_555 1_555
H5_22 C8_22 1_555 1_555
H6_16 C8_22 1_555 1_555
C9_22 C7_22 1_555 1_555
H7_22 C9_22 1_555 1_555
H8_22 C9_22 1_555 1_555
H9_22 C9_22 1_555 1_555
C10_22 C7_22 1_555 1_555
H10_16 C10_22 1_555 1_555
H11_22 C10_22 1_555 1_555
H12_22 C10_22 1_555 1_555
C5_28 C6_28 1_555 1_555
H2_29 C4_29 1_555 1_555
O1_29 C11_29 1_555 1_555
O6_17 C12_29 1_555 1_555
Zn4_7 O1_29 1_555 1_555
C1_29 C2_29 1_555 1_555
C2_29 H1_29 1_555 1_555
C3_29 C2_29 1_555 1_555
C6_29 C1_29 1_555 1_555
H3_29 C6_29 1_555 1_555
C7_23 C1_29 1_555 1_555
C8_23 C7_23 1_555 1_555
H4_23 C8_23 1_555 1_555
H5_23 C8_23 1_555 1_555
H6_17 C8_23 1_555 1_555
C9_23 C7_23 1_555 1_555
H7_23 C9_23 1_555 1_555
H8_23 C9_23 1_555 1_555
H9_23 C9_23 1_555 1_555
C10_23 C7_23 1_555 1_555
H10_17 C10_23 1_555 1_555
H11_23 C10_23 1_555 1_555
H12_23 C10_23 1_555 1_555
C5_29 C6_29 1_555 1_555
H2_30 C4_30 1_555 1_555
O1_30 C11_30 1_555 1_555
O6_18 C12_30 1_555 1_555
Zn4_9 O1_30 1_555 1_555
C1_30 C2_30 1_555 1_555
C2_30 H1_30 1_555 1_555
C3_30 C2_30 1_555 1_555
C6_30 C1_30 1_555 1_555
H3_30 C6_30 1_555 1_555
C7_24 C1_30 1_555 1_555
C8_24 C7_24 1_555 1_555
H4_24 C8_24 1_555 1_555
H5_24 C8_24 1_555 1_555
H6_18 C8_24 1_555 1_555
C9_24 C7_24 1_555 1_555
H7_24 C9_24 1_555 1_555
H8_24 C9_24 1_555 1_555
H9_24 C9_24 1_555 1_555
C10_24 C7_24 1_555 1_555
H10_18 C10_24 1_555 1_555
H11_24 C10_24 1_555 1_555
H12_24 C10_24 1_555 1_555
C5_30 C6_30 1_555 1_555
C1_31 C2_31 1_555 1_555
C2_31 H1_31 1_555 1_555
C3_31 C2_31 1_555 1_555
C4_31 C3_31 1_555 1_555
H2_31 C4_31 1_555 1_555
C5_31 C4_31 1_555 1_555
C6_31 C1_31 1_555 1_555
H3_31 C6_31 1_555 1_555
C7_25 C1_31 1_555 1_555
C8_25 C7_25 1_555 1_555
H4_25 C8_25 1_555 1_555
H5_25 C8_25 1_555 1_555
H6_19 C8_25 1_555 1_555
C9_25 C7_25 1_555 1_555
H7_25 C9_25 1_555 1_555
H8_25 C9_25 1_555 1_555
H9_25 C9_25 1_555 1_555
C10_25 C7_25 1_555 1_555
H10_19 C10_25 1_555 1_555
H11_25 C10_25 1_555 1_555
H12_25 C10_25 1_555 1_555
C11_31 C3_31 1_555 1_555
C12_31 C5_31 1_555 1_555
O1_31 C11_31 1_555 1_555
O5_13 C11_31 1_555 1_555
O6_7 C12_31 1_555 1_555
O7_5 C12_31 1_555 1_555
Zn3_7 O1_31 1_555 1_555
C5_31 C6_31 1_555 1_555
C1_32 C2_32 1_555 1_555
C2_32 H1_32 1_555 1_555
C3_32 C2_32 1_555 1_555
C4_32 C3_32 1_555 1_555
H2_32 C4_32 1_555 1_555
C5_32 C4_32 1_555 1_555
C6_32 C1_32 1_555 1_555
H3_32 C6_32 1_555 1_555
C7_26 C1_32 1_555 1_555
C8_26 C7_26 1_555 1_555
H4_26 C8_26 1_555 1_555
H5_26 C8_26 1_555 1_555
H6_20 C8_26 1_555 1_555
C9_26 C7_26 1_555 1_555
H7_26 C9_26 1_555 1_555
H8_26 C9_26 1_555 1_555
H9_26 C9_26 1_555 1_555
C10_26 C7_26 1_555 1_555
H10_20 C10_26 1_555 1_555
H11_26 C10_26 1_555 1_555
H12_26 C10_26 1_555 1_555
C11_32 C3_32 1_555 1_555
C12_32 C5_32 1_555 1_555
O1_32 C11_32 1_555 1_555
O5_15 C11_32 1_555 1_555
O6_8 C12_32 1_555 1_555
O7_4 C12_32 1_555 1_555
Zn3_8 O1_32 1_555 1_555
C5_32 C6_32 1_555 1_555
C1_33 C2_33 1_555 1_555
C2_33 H1_33 1_555 1_555
C3_33 C2_33 1_555 1_555
C4_33 C3_33 1_555 1_555
H2_33 C4_33 1_555 1_555
C5_33 C4_33 1_555 1_555
C6_33 C1_33 1_555 1_555
H3_33 C6_33 1_555 1_555
C7_27 C1_33 1_555 1_555
C8_27 C7_27 1_555 1_555
H4_27 C8_27 1_555 1_555
H5_27 C8_27 1_555 1_555
H6_21 C8_27 1_555 1_555
C9_27 C7_27 1_555 1_555
H7_27 C9_27 1_555 1_555
H8_27 C9_27 1_555 1_555
H9_27 C9_27 1_555 1_555
C10_27 C7_27 1_555 1_555
H10_21 C10_27 1_555 1_555
H11_27 C10_27 1_555 1_555
H12_27 C10_27 1_555 1_555
C11_33 C3_33 1_555 1_555
C12_33 C5_33 1_555 1_555
O1_33 C11_33 1_555 1_555
O5_14 C11_33 1_555 1_555
O6_9 C12_33 1_555 1_555
O7_6 C12_33 1_555 1_555
Zn3_9 O1_33 1_555 1_555
C5_33 C6_33 1_555 1_555
C1_34 C2_34 1_555 1_555
C2_34 H1_34 1_555 1_555
C3_34 C2_34 1_555 1_555
C4_34 C3_34 1_555 1_555
H2_34 C4_34 1_555 1_555
C5_34 C4_34 1_555 1_555
C6_34 C1_34 1_555 1_555
H3_34 C6_34 1_555 1_555
C7_28 C1_34 1_555 1_555
C8_28 C7_28 1_555 1_555
H4_28 C8_28 1_555 1_555
H5_28 C8_28 1_555 1_555
H6_22 C8_28 1_555 1_555
C9_28 C7_28 1_555 1_555
H7_28 C9_28 1_555 1_555
H8_28 C9_28 1_555 1_555
H9_28 C9_28 1_555 1_555
C10_28 C7_28 1_555 1_555
H10_22 C10_28 1_555 1_555
H11_28 C10_28 1_555 1_555
H12_28 C10_28 1_555 1_555
C11_34 C3_34 1_555 1_555
C12_34 C5_34 1_555 1_555
O1_34 C11_34 1_555 1_555
O5_16 C11_34 1_555 1_555
O6_10 C12_34 1_555 1_555
O7_14 C12_34 1_555 1_555
Zn4_2 O1_34 1_555 1_555
C5_34 C6_34 1_555 1_555
C1_35 C2_35 1_555 1_555
C2_35 H1_35 1_555 1_555
C3_35 C2_35 1_555 1_555
C4_35 C3_35 1_555 1_555
H2_35 C4_35 1_555 1_555
C5_35 C4_35 1_555 1_555
C6_35 C1_35 1_555 1_555
H3_35 C6_35 1_555 1_555
C7_29 C1_35 1_555 1_555
C8_29 C7_29 1_555 1_555
H4_29 C8_29 1_555 1_555
H5_29 C8_29 1_555 1_555
H6_23 C8_29 1_555 1_555
C9_29 C7_29 1_555 1_555
H7_29 C9_29 1_555 1_555
H8_29 C9_29 1_555 1_555
H9_29 C9_29 1_555 1_555
C10_29 C7_29 1_555 1_555
H10_23 C10_29 1_555 1_555
H11_29 C10_29 1_555 1_555
H12_29 C10_29 1_555 1_555
C11_35 C3_35 1_555 1_555
C12_35 C5_35 1_555 1_555
O1_35 C11_35 1_555 1_555
O5_18 C11_35 1_555 1_555
O6_11 C12_35 1_555 1_555
O7_13 C12_35 1_555 1_555
Zn4 O1_35 1_555 1_555
C5_35 C6_35 1_555 1_555
C1_36 C2_36 1_555 1_555
C2_36 H1_36 1_555 1_555
C3_36 C2_36 1_555 1_555
C4_36 C3_36 1_555 1_555
H2_36 C4_36 1_555 1_555
C5_36 C4_36 1_555 1_555
C6_36 C1_36 1_555 1_555
H3_36 C6_36 1_555 1_555
C7_30 C1_36 1_555 1_555
C8_30 C7_30 1_555 1_555
H4_30 C8_30 1_555 1_555
H5_30 C8_30 1_555 1_555
H6_24 C8_30 1_555 1_555
C9_30 C7_30 1_555 1_555
H7_30 C9_30 1_555 1_555
H8_30 C9_30 1_555 1_555
H9_30 C9_30 1_555 1_555
C10_30 C7_30 1_555 1_555
H10_24 C10_30 1_555 1_555
H11_30 C10_30 1_555 1_555
H12_30 C10_30 1_555 1_555
C11_36 C3_36 1_555 1_555
C12_36 C5_36 1_555 1_555
O1_36 C11_36 1_555 1_555
O5_17 C11_36 1_555 1_555
O6_12 C12_36 1_555 1_555
O7_15 C12_36 1_555 1_555
Zn4_3 O1_36 1_555 1_555
C5_36 C6_36 1_555 1_555
C8_31 C7_31 1_555 1_555
H4_31 C8_31 1_555 1_555
H5_31 C8_31 1_555 1_555
H6_28 C8_31 1_555 1_555
C9_31 C7_31 1_555 1_555
H7_31 C9_31 1_555 1_555
H8_31 C9_31 1_555 1_555
H9_31 C9_31 1_555 1_555
C10_31 C7_31 1_555 1_555
H10_28 C10_31 1_555 1_555
H11_31 C10_31 1_555 1_555
H12_31 C10_31 1_555 1_555
C8_32 C7_32 1_555 1_555
H4_32 C8_32 1_555 1_555
H5_32 C8_32 1_555 1_555
H6_29 C8_32 1_555 1_555
C9_32 C7_32 1_555 1_555
H7_32 C9_32 1_555 1_555
H8_32 C9_32 1_555 1_555
H9_32 C9_32 1_555 1_555
C10_32 C7_32 1_555 1_555
H10_29 C10_32 1_555 1_555
H11_32 C10_32 1_555 1_555
H12_32 C10_32 1_555 1_555
C8_33 C7_33 1_555 1_555
H4_33 C8_33 1_555 1_555
H5_33 C8_33 1_555 1_555
H6_30 C8_33 1_555 1_555
C9_33 C7_33 1_555 1_555
H7_33 C9_33 1_555 1_555
H8_33 C9_33 1_555 1_555
H9_33 C9_33 1_555 1_555
C10_33 C7_33 1_555 1_555
H10_30 C10_33 1_555 1_555
H11_33 C10_33 1_555 1_555
H12_33 C10_33 1_555 1_555
C8_34 C7_34 1_555 1_555
H4_34 C8_34 1_555 1_555
H5_34 C8_34 1_555 1_555
H6_34 C8_34 1_555 1_555
C9_34 C7_34 1_555 1_555
H7_34 C9_34 1_555 1_555
H8_34 C9_34 1_555 1_555
H9_34 C9_34 1_555 1_555
C10_34 C7_34 1_555 1_555
H10_34 C10_34 1_555 1_555
H11_34 C10_34 1_555 1_555
H12_34 C10_34 1_555 1_555
C8_35 C7_35 1_555 1_555
H4_35 C8_35 1_555 1_555
H5_35 C8_35 1_555 1_555
H6_35 C8_35 1_555 1_555
C9_35 C7_35 1_555 1_555
H7_35 C9_35 1_555 1_555
H8_35 C9_35 1_555 1_555
H9_35 C9_35 1_555 1_555
C10_35 C7_35 1_555 1_555
H10_35 C10_35 1_555 1_555
H11_35 C10_35 1_555 1_555
H12_35 C10_35 1_555 1_555
C8_36 C7_36 1_555 1_555
H4_36 C8_36 1_555 1_555
H5_36 C8_36 1_555 1_555
H6_36 C8_36 1_555 1_555
C9_36 C7_36 1_555 1_555
H7_36 C9_36 1_555 1_555
H8_36 C9_36 1_555 1_555
H9_36 C9_36 1_555 1_555
C10_36 C7_36 1_555 1_555
H10_36 C10_36 1_555 1_555
H11_36 C10_36 1_555 1_555
H12_36 C10_36 1_555 1_555

#END
