
###############################################################################
#
# This file contains modified crystal structure data generated from the
# MOF subset of the Cambridge Structural Database (CSD) v543 
# hosted by the Cambridge Crystallographic Data Centre (CCDC).
#
# This work is licensed under the Creative Commons
# Attribution-NonCommercial-ShareAlike 4.0 International License.
# To view a copy of this license, visit
# http://creativecommons.org/licenses/by-nc-sa/4.0/
# or send a letter to
# Creative Commons, PO Box 1866, Mountain View, CA 94042, USA.
#
# CIF created using the CSD Python API on 29 September 2022
# The structure has been converted into the P1 space group
# The structure has a 3D framework
# The original CSD entry JEGSIB is in the rhombohedral crystal system
# The original CSD entry JEGSIB is in a Sohncke space group
# The framework has been calculated to contain at least 10.0% void space
# The void calculation uses a probe of radius 1.32A, grid spacing 0.4
# H atom positions have been added when not included in the experimental data
# Generated hydrogen atom positions removed from atoms on special positions
#
###############################################################################

data_JEGSIB
_chemical_formula_moiety         '(C144 H409 N9 O102 Zr18)n'
_symmetry_cell_setting           triclinic
_symmetry_space_group_name_H-M   'P 1'
_symmetry_Int_Tables_number      1
_space_group_name_Hall           'P 1'
loop_
_symmetry_equiv_pos_site_id
_symmetry_equiv_pos_as_xyz
1 x,y,z
_cell_length_a                   14.63(6)
_cell_length_b                   14.63(6)
_cell_length_c                   35.93(14)
_cell_angle_alpha                90
_cell_angle_beta                 90
_cell_angle_gamma                120
_cell_volume                     6660.03
loop_
_atom_site_label
_atom_site_type_symbol
_atom_site_fract_x
_atom_site_fract_y
_atom_site_fract_z
Zr1 Zr 0.08090 0.16160 0.04010
O1 O 0.18110 0.16970 0.09020
O2 O 0.05280 0.29790 0.02610
O3 O 0.23350 0.28640 0.02610
O4 O 0.16150 0.08080 0.02000
O6 O 0.00000 0.00000 0.06030
C1 C 0.20670 0.10330 0.10360
C2 C 0.27630 0.13820 0.13810
C3 C 0.30550 0.23740 0.15190
C4 C 0.30550 0.06800 0.15190
N1 N 0.27330 0.30540 0.13530
C5 C 0.36660 0.26800 0.18430
C6 C 0.36660 0.09860 0.18430
H1 H 0.28530 0.00430 0.14010
C7 C 0.27360 0.33830 0.09710
C8 C 0.39580 0.19780 0.19800
H2 H 0.38680 0.33170 0.19610
H3 H 0.38680 0.05510 0.19610
C9 C 0.17520 0.35020 0.09720
H4 H 0.33720 0.40500 0.09160
H5 H 0.26690 0.28510 0.07900
C10 C 0.46540 0.23270 0.23260
C11 C 0.14710 0.43100 0.11200
H6 H 0.15870 0.34690 0.07030
H7 H 0.12290 0.28550 0.10960
C12 C 0.08530 0.46650 0.08740
H8 H 0.21340 0.49420 0.11830
H9 H 0.10590 0.40140 0.13500
H10 H 0.06910 0.43090 0.06290
H11 H 0.12520 0.54260 0.08350
H15 H 0.01620 0.58000 0.09160
O14 O 0.18110 0.01140 0.09020
O33 O 0.49100 0.32459 0.24590
O34 O 0.49101 0.16640 0.24590
Zr7 Zr 0.58577 0.41412 0.29323
Zr8 Zr 0.58588 0.17164 0.29323
C43 C 0.45110 0.01590 0.10950
C45 C 0.56380 0.03410 0.10970
H47 H 0.42540 0.00870 0.13540
H48 H 0.45020 0.07520 0.09730
C47 C 0.66210 0.14050 0.10040
H51 H 0.57520 0.01600 0.13520
C48 C 0.75790 0.14890 0.07920
H56 H 0.63740 0.17950 0.08530
H57 H 0.68880 0.17620 0.12460
H58 H 0.78760 0.11420 0.09370
H59 H 0.81020 0.22210 0.07590
H60 H 0.73590 0.11560 0.05480
H67 H 0.244493 0.337056 0.153823
H73 H 0.298534 0.0066971 0.0412862
O5 O 0.08080 0.16150 0.98000
Zr2 Zr 0.16169 0.08090 0.95990
O8 O -0.00000 -0.00000 0.93970
O9 O 0.16693 0.17567 0.91257
O10 O 0.29789 0.05280 0.97390
O11 O 0.28639 0.23350 0.97390
O24 O 0.00873 0.17566 0.91257
H71 H 0.00670345 0.298526 0.958717
O8_2 O -0.00000 1.00000 0.93970
O12 O 0.16693 0.99127 0.91257
O19 O 0.08070 0.91920 0.98000
O31 O 0.00874 0.83307 0.91257
H63 H 0.270875 0.986829 0.988621
H79 H 4.3842e-05 0.736811 0.994238
O6_2 O 1.00000 0.00000 0.06030
O7 O 0.98860 0.16970 0.09020
C13 C 0.98410 0.43520 0.10950
C14 C 0.96590 0.52970 0.10970
H12 H 0.99130 0.41670 0.13540
H13 H 0.92480 0.37500 0.09730
C15 C 0.85950 0.52160 0.10040
H14 H 0.98400 0.55920 0.13520
C16 C 0.85110 0.60900 0.07920
H16 H 0.82050 0.45790 0.08530
H17 H 0.82380 0.51260 0.12460
H18 H 0.88580 0.67340 0.09370
H19 H 0.77790 0.58810 0.07590
H20 H 0.88440 0.62030 0.05480
O13 O 0.91920 0.08070 0.02000
C17 C 0.89670 0.10340 0.10360
O25 O 0.83030 0.01140 0.09020
C18 C 0.86180 0.13810 0.13810
C20 C 0.76260 0.06810 0.15190
C21 C 0.93200 0.23750 0.15190
C23 C 0.73200 0.09860 0.18430
C24 C 0.90140 0.26800 0.18430
H21 H 0.99570 0.28100 0.14010
C28 C 0.80220 0.19800 0.19800
H22 H 0.66830 0.05510 0.19610
H23 H 0.94490 0.33170 0.19610
C32 C 0.76730 0.23270 0.23260
O35 O 0.67541 0.16640 0.24590
O36 O 0.83360 0.32460 0.24590
Zr10 Zr 0.82836 0.41423 0.29323
H83 H 0.736776 5.4187e-05 0.00576987
O8_3 O 1.00000 -0.00000 0.93970
Zr4 Zr 0.91910 0.08079 0.95990
O22 O 0.94720 0.24509 0.97390
O23 O 0.76650 0.05289 0.97390
O6_3 O 1.00000 1.00000 0.06030
Zr5 Zr 0.83840 0.91930 0.04010
O15 O 0.98860 0.81890 0.09020
O18 O 0.91930 0.83850 0.02000
O26 O 0.70210 0.75490 0.02610
O27 O 0.71360 0.94710 0.02610
O28 O 0.83030 0.81890 0.09020
C19 C 0.89660 0.79330 0.10360
C22 C 0.86190 0.72370 0.13810
N2 N 0.69460 0.96790 0.13530
C25 C 0.93190 0.69450 0.15190
C26 C 0.76250 0.69450 0.15190
C27 C 0.66170 0.93530 0.09710
C29 C 0.90140 0.63340 0.18430
C30 C 0.73200 0.63340 0.18430
H24 H 0.71900 0.71470 0.14010
C31 C 0.64980 0.82500 0.09720
H25 H 0.59500 0.93220 0.09160
H26 H 0.71490 0.98180 0.07900
C34 C 0.80200 0.60420 0.19800
H27 H 0.94490 0.61320 0.19610
H28 H 0.66830 0.61320 0.19610
C35 C 0.56900 0.71610 0.11200
H29 H 0.65310 0.81180 0.07030
H30 H 0.71450 0.83740 0.10960
C37 C 0.76730 0.53460 0.23260
C38 C 0.53350 0.61880 0.08740
H33 H 0.50580 0.71920 0.11830
H34 H 0.59860 0.70450 0.13500
O37 O 0.83360 0.50900 0.24590
O38 O 0.67540 0.50899 0.24590
C40 C 0.56480 0.54890 0.10950
H37 H 0.56910 0.63820 0.06290
H38 H 0.45740 0.58260 0.08350
C42 C 0.47030 0.43620 0.10970
H41 H 0.58330 0.57460 0.13540
H42 H 0.62500 0.54980 0.09730
C44 C 0.47840 0.33790 0.10040
H45 H 0.44080 0.42480 0.13520
H46 H 0.42000 0.43620 0.09160
C46 C 0.39100 0.24210 0.07920
H49 H 0.54210 0.36260 0.08530
H50 H 0.48740 0.31120 0.12460
H53 H 0.32660 0.21240 0.09370
H54 H 0.41190 0.18980 0.07590
H55 H 0.37970 0.26410 0.05480
H70 H 0.662944 0.907437 0.153823
O8_4 O 1.00000 1.00000 0.93970
O20 O 0.83850 0.91930 0.98000
O21 O 0.82433 0.99126 0.91257
Zr6 Zr 0.91921 0.83831 0.95990
O29 O 0.75491 0.70211 0.97390
O30 O 0.94711 0.71361 0.97390
O32 O 0.82434 0.83307 0.91257
H63_2 H 0.0131709 0.284046 0.988621
H65 H 0.740722 0.0243024 0.0251911
H73_2 H 0.993303 0.291837 0.0412862
H83_2 H 0.999946 0.736722 0.00576987
H71_2 H 0.291822 0.993297 0.958717
H65_2 H 0.975698 0.71642 0.0251911
H79_2 H 0.736767 0.999956 0.994238
C7_2 C 0.60693 0.00497 0.76377
C9_2 C 0.50853 0.01687 0.76387
H4_2 H 0.67053 0.07167 0.75827
C11_2 C 0.48043 0.09767 0.77867
H6_2 H 0.49203 0.01357 0.73697
C12_2 C 0.41863 0.13317 0.75407
H8_2 H 0.54673 0.16087 0.78497
H9_2 H 0.43923 0.06807 0.80167
C13_2 C 0.31743 0.10187 0.77617
H10_2 H 0.40243 0.09757 0.72957
H11_2 H 0.45853 0.20927 0.75017
C14_2 C 0.29923 0.19637 0.77637
H12_2 H 0.32463 0.08337 0.80207
H13_2 H 0.25813 0.04167 0.76397
C15_2 C 0.19283 0.18827 0.76707
H14_2 H 0.31733 0.22587 0.80187
H15_2 H 0.34953 0.24667 0.75827
C16_2 C 0.18443 0.27567 0.74587
H16_2 H 0.15383 0.12457 0.75197
H17_2 H 0.15713 0.17927 0.79127
H18_2 H 0.21913 0.34007 0.76037
H19_2 H 0.11123 0.25477 0.74257
H20_2 H 0.21773 0.28697 0.72147
H67_2 H 0.577826 0.00372263 0.82049
H68 H 0.454858 0.029375 0.687989
Zr1_2 Zr 0.41423 0.82827 0.70677
O1_2 O 0.51443 0.83637 0.75687
O2_2 O 0.38613 0.96457 0.69277
O3_2 O 0.56683 0.95307 0.69277
O4_2 O 0.49483 0.74747 0.68667
O5_2 O 0.41413 0.82817 0.64667
O6_4 O 0.33333 0.66667 0.72697
O7_2 O 0.32193 0.83637 0.75687
C1_2 C 0.54003 0.76997 0.77027
Zr2_2 Zr 0.49502 0.74757 0.62657
C2_2 C 0.60963 0.80487 0.80477
O8_5 O 0.33333 0.66667 0.60637
O9_2 O 0.50026 0.84234 0.57924
O10_2 O 0.63122 0.71947 0.64057
O11_2 O 0.61972 0.90017 0.64057
O12_2 O 0.50026 0.65794 0.57924
C3_2 C 0.63883 0.90407 0.81857
C4_2 C 0.63883 0.73467 0.81857
N1_2 N 0.60663 0.97207 0.80197
C5_2 C 0.69993 0.93467 0.85097
C6_2 C 0.69993 0.76527 0.85097
H1_2 H 0.61863 0.67097 0.80677
C8_2 C 0.72913 0.86447 0.86467
H2_2 H 0.72013 0.99837 0.86277
H3_2 H 0.72013 0.72177 0.86277
H5_2 H 0.60023 0.95177 0.74567
C10_2 C 0.79873 0.89937 0.89927
H7_2 H 0.45623 0.95217 0.77627
O13_2 O 0.25253 0.74737 0.68667
Zr3 Zr 0.41403 0.58577 0.70677
Zr4_2 Zr 0.25243 0.74746 0.62657
Zr5_2 Zr 0.17173 0.58597 0.70677
C17_2 C 0.23003 0.77007 0.77027
O14_2 O 0.51443 0.67807 0.75687
O15_2 O 0.32193 0.48557 0.75687
O16 O 0.57843 0.61387 0.69277
O17 O 0.38623 0.43317 0.69277
O18_2 O 0.25263 0.50517 0.68667
O19_2 O 0.41403 0.58587 0.64667
O20_2 O 0.17183 0.58597 0.64667
O21_2 O 0.15766 0.65793 0.57924
O22_2 O 0.28053 0.91176 0.64057
O23_2 O 0.09983 0.71956 0.64057
O24_2 O 0.34206 0.84233 0.57924
O25_2 O 0.16363 0.67807 0.75687
O26_2 O 0.03543 0.42157 0.69277
O27_2 O 0.04693 0.61377 0.69277
O28_2 O 0.16363 0.48557 0.75687
C18_2 C 0.19513 0.80477 0.80477
C19_2 C 0.22993 0.45997 0.77027
Zr6_2 Zr 0.25254 0.50498 0.62657
C20_2 C 0.09593 0.73477 0.81857
C21_2 C 0.26533 0.90417 0.81857
C22_2 C 0.19523 0.39037 0.80477
O29_2 O 0.08824 0.36878 0.64057
O30_2 O 0.28044 0.38028 0.64057
O31_2 O 0.34207 0.49974 0.57924
O32_2 O 0.15767 0.49974 0.57924
N2_2 N 0.02793 0.63457 0.80197
C23_2 C 0.06533 0.76527 0.85097
C24_2 C 0.23473 0.93467 0.85097
H21_2 H 0.32903 0.94767 0.80677
C25_2 C 0.26523 0.36117 0.81857
C26_2 C 0.09583 0.36117 0.81857
C28_2 C 0.13553 0.86467 0.86467
H22_2 H 0.00163 0.72177 0.86277
H23_2 H 0.27823 0.99837 0.86277
N3 N 0.36543 0.39337 0.80197
C29_2 C 0.23473 0.30007 0.85097
C30_2 C 0.06533 0.30007 0.85097
H24_2 H 0.05233 0.38137 0.80677
H26_2 H 0.04823 0.64847 0.74567
C32_2 C 0.10063 0.89937 0.89927
C33 C 0.39803 0.39307 0.76377
C34_2 C 0.13533 0.27087 0.86467
H27_2 H 0.27823 0.27987 0.86277
H28_2 H 0.00163 0.27987 0.86277
H30_2 H 0.04783 0.50407 0.77627
C36 C 0.50833 0.49147 0.76387
H31 H 0.40113 0.32947 0.75827
H32 H 0.35153 0.39977 0.74567
C37_2 C 0.10063 0.20127 0.89927
C39 C 0.61723 0.51957 0.77867
H35 H 0.52153 0.50797 0.73697
H36 H 0.49593 0.54377 0.77627
C41 C 0.71453 0.58137 0.75407
H39 H 0.61413 0.45327 0.78497
H40 H 0.62883 0.56077 0.80167
C43_2 C 0.78443 0.68257 0.77617
H43 H 0.69513 0.59757 0.72957
H44 H 0.75073 0.54147 0.75017
C45_2 C 0.89713 0.70077 0.77637
H47_2 H 0.75873 0.67537 0.80207
H48_2 H 0.78353 0.74187 0.76397
C47_2 C 0.99543 0.80717 0.76707
H51_2 H 0.90853 0.68267 0.80187
H52 H 0.89713 0.65047 0.75827
H56_2 H 0.97073 0.84617 0.75197
H87 H 0.425896 0.422174 0.82049
C27_2 C 0.99503 0.60197 0.76377
C31_2 C 0.98313 0.49167 0.76387
H25_2 H 0.92833 0.59887 0.75827
C35_2 C 0.90233 0.38277 0.77867
H29_2 H 0.98643 0.47847 0.73697
C38_2 C 0.86683 0.28547 0.75407
H33_2 H 0.83913 0.38587 0.78497
H34_2 H 0.93193 0.37117 0.80167
C40_2 C 0.89813 0.21557 0.77617
H37_2 H 0.90243 0.30487 0.72957
H38_2 H 0.79073 0.24927 0.75017
C42_2 C 0.80363 0.10287 0.77637
H41_2 H 0.91663 0.24127 0.80207
H42_2 H 0.95833 0.21647 0.76397
C44_2 C 0.81173 0.00457 0.76707
H45_2 H 0.77413 0.09147 0.80187
H46_2 H 0.75333 0.10287 0.75827
H49_2 H 0.87543 0.02927 0.75197
H70_2 H 0.996277 0.574104 0.82049
H76 H 0.974049 0.4271 0.683953
H84 H 0.984855 0.546795 0.684368
H74 H 0.450903 0.0326481 0.698325
H81 H 0.565593 0.020199 0.691173
H68_2 H 0.970625 0.425483 0.687989
H76_2 H 0.453051 0.0259513 0.683953
H84_2 H 0.56194 0.0151453 0.684368
H74_2 H 0.967352 0.418255 0.698325
H81_2 H 0.979801 0.545394 0.691173
C5_3 C 0.03327 0.60133 0.51763
C6_3 C 0.03327 0.43193 0.51763
C8_3 C 0.06247 0.53113 0.53133
H2_3 H 0.05347 0.66503 0.52943
H3_3 H 0.05347 0.38843 0.52943
H4_3 H 0.00387 0.73833 0.42493
C10_3 C 0.13207 0.56603 0.56593
C41_2 C 0.04787 0.24803 0.42073
C43_3 C 0.11777 0.34923 0.44283
H43_2 H 0.02847 0.26423 0.39623
H44_2 H 0.08407 0.20813 0.41683
C45_3 C 0.23047 0.36743 0.44303
H47_3 H 0.09207 0.34203 0.46873
H48_3 H 0.11687 0.40853 0.43063
C47_3 C 0.32877 0.47383 0.43373
H51_3 H 0.24187 0.34933 0.46853
H52_2 H 0.23047 0.31713 0.42493
C48_2 C 0.42457 0.48223 0.41253
H56_3 H 0.30407 0.51283 0.41863
H57_2 H 0.35547 0.50953 0.45793
H58_2 H 0.45427 0.44753 0.42703
H59_2 H 0.47687 0.55543 0.40923
H60_2 H 0.40257 0.44893 0.38813
H61 H 0.00681268 0.560423 0.322091
Zr1_3 Zr 0.74757 0.49493 0.37343
O1_3 O 0.84777 0.50303 0.42353
O2_3 O 0.71947 0.63123 0.35943
O3_3 O 0.90017 0.61973 0.35943
O4_3 O 0.82817 0.41413 0.35333
O5_3 O 0.74747 0.49483 0.31333
O6_5 O 0.66667 0.33333 0.39363
O7_3 O 0.65527 0.50303 0.42353
C1_3 C 0.87337 0.43663 0.43693
C2_3 C 0.94297 0.47153 0.47143
O8_6 O 0.66667 0.33333 0.27303
O10_3 O 0.96456 0.38613 0.30723
O11_3 O 0.95306 0.56683 0.30723
C3_3 C 0.97217 0.57073 0.48523
C4_3 C 0.97217 0.40133 0.48523
N1_3 N 0.93997 0.63873 0.46863
H1_3 H 0.95197 0.33763 0.47343
C7_3 C 0.94027 0.67163 0.43043
C9_3 C 0.84187 0.68353 0.43053
H5_3 H 0.93357 0.61843 0.41233
C11_3 C 0.81377 0.76433 0.44533
H6_3 H 0.82537 0.68023 0.40363
H7_3 H 0.78957 0.61883 0.44293
C12_3 C 0.75197 0.79983 0.42073
H8_3 H 0.88007 0.82753 0.45163
H9_3 H 0.77257 0.73473 0.46833
C13_3 C 0.65077 0.76853 0.44283
H10_3 H 0.73577 0.76423 0.39623
H11_3 H 0.79187 0.87593 0.41683
C14_3 C 0.63257 0.86303 0.44303
H12_3 H 0.65797 0.75003 0.46873
H13_3 H 0.59147 0.70833 0.43063
C15_3 C 0.52617 0.85493 0.43373
H14_3 H 0.65067 0.89253 0.46853
H15_3 H 0.68287 0.91333 0.42493
C16_3 C 0.51777 0.94233 0.41253
H16_3 H 0.48717 0.79123 0.41863
H17_3 H 0.49047 0.84593 0.45793
H19_3 H 0.44457 0.92143 0.40923
H20_3 H 0.55107 0.95363 0.38813
O13_3 O 0.58587 0.41403 0.35333
Zr3_2 Zr 0.74737 0.25243 0.37343
Zr5_3 Zr 0.50507 0.25263 0.37343
C17_3 C 0.56337 0.43673 0.43693
O14_3 O 0.84777 0.34473 0.42353
O15_3 O 0.65527 0.15223 0.42353
O16_2 O 0.91177 0.28053 0.35943
O17_2 O 0.71957 0.09983 0.35943
O18_3 O 0.58597 0.17183 0.35333
O19_3 O 0.74737 0.25253 0.31333
O20_3 O 0.50517 0.25263 0.31333
O22_3 O 0.61387 0.57842 0.30723
O23_3 O 0.43317 0.38622 0.30723
O25_3 O 0.49697 0.34473 0.42353
O26_3 O 0.36877 0.08823 0.35943
O27_3 O 0.38027 0.28043 0.35943
O28_3 O 0.49697 0.15223 0.42353
C18_3 C 0.52847 0.47143 0.47143
C19_3 C 0.56327 0.12663 0.43693
C20_3 C 0.42927 0.40143 0.48523
C21_3 C 0.59867 0.57083 0.48523
C22_3 C 0.52857 0.05703 0.47143
O29_3 O 0.42158 0.03544 0.30723
O30_3 O 0.61378 0.04694 0.30723
N2_3 N 0.36127 0.30123 0.46863
C23_3 C 0.39867 0.43193 0.51763
C24_3 C 0.56807 0.60133 0.51763
H21_3 H 0.66237 0.61433 0.47343
C25_3 C 0.59857 0.02783 0.48523
C26_3 C 0.42917 0.02783 0.48523
C27_3 C 0.32837 0.26863 0.43043
C28_3 C 0.46887 0.53133 0.53133
H22_3 H 0.33497 0.38843 0.52943
H23_3 H 0.61157 0.66503 0.52943
N3_2 N 0.69877 0.06003 0.46863
H24_3 H 0.38567 0.04803 0.47343
C31_3 C 0.31647 0.15833 0.43053
H25_3 H 0.26167 0.26553 0.42493
H26_3 H 0.38157 0.31513 0.41233
C32_3 C 0.43397 0.56603 0.56593
C33_2 C 0.73137 0.05973 0.43043
C35_3 C 0.23567 0.04943 0.44533
H29_3 H 0.31977 0.14513 0.40363
H30_3 H 0.38117 0.17073 0.44293
C36_2 C 0.84167 0.15813 0.43053
H32_2 H 0.68487 0.06643 0.41233
H33_3 H 0.17247 0.05253 0.45163
H34_3 H 0.26527 0.03783 0.46833
C39_2 C 0.95057 0.18623 0.44533
H35_2 H 0.85487 0.17463 0.40363
H36_2 H 0.82927 0.21043 0.44293
H39_2 H 0.94747 0.11993 0.45163
H40_2 H 0.96217 0.22743 0.46833
H67_3 H 0.91116 0.670389 0.487156
H70_3 H 0.329611 0.24077 0.487156
H87_2 H 0.75923 0.0888404 0.487156
C29_3 C 0.56807 0.96673 0.51763
C30_3 C 0.39867 0.96673 0.51763
C34_3 C 0.46867 0.93753 0.53133
H27_3 H 0.61157 0.94653 0.52943
H28_3 H 0.33497 0.94653 0.52943
H31_2 H 0.73447 0.99613 0.42493
C37_3 C 0.43397 0.86793 0.56593
C38_3 C 0.20017 0.95213 0.42073
C40_3 C 0.23147 0.88223 0.44283
H37_3 H 0.23577 0.97153 0.39623
H38_3 H 0.12407 0.91593 0.41683
C42_3 C 0.13697 0.76953 0.44303
H41_3 H 0.24997 0.90793 0.46873
H42_3 H 0.29167 0.88313 0.43063
C44_3 C 0.14507 0.67123 0.43373
H45_3 H 0.10747 0.75813 0.46853
H46_3 H 0.08667 0.76953 0.42493
C46_2 C 0.05767 0.57543 0.41253
H49_3 H 0.20877 0.69593 0.41863
H50_2 H 0.15407 0.64453 0.45793
H54_2 H 0.07857 0.52313 0.40923
H55_2 H 0.04637 0.59743 0.38813
H78 H 0.427102 0.974046 0.316038
H80 H 0.54682 0.984828 0.315622
H78_2 H 0.0259535 0.453056 0.316038
H80_2 H 0.0151721 0.561992 0.315622
H72 H 0.418254 0.967357 0.301675
H85 H 0.545421 0.979806 0.308871
H72_2 H 0.0326434 0.450897 0.301675
H85_2 H 0.0201944 0.565615 0.308871
H61_2 H 0.55361 0.993187 0.322091
O6_6 O -0.00000 1.00000 0.06030
Zr3_3 Zr 0.08070 0.91910 0.04010
O16_3 O 0.24510 0.94720 0.02610
O17_3 O 0.05290 0.76650 0.02610
N3_3 N 0.03210 0.72670 0.13530
C33_3 C 0.06470 0.72640 0.09710
C36_3 C 0.17500 0.82480 0.09720
H31_3 H 0.06780 0.66280 0.09160
H32_3 H 0.01820 0.73310 0.07900
C39_3 C 0.28390 0.85290 0.11200
H35_3 H 0.18820 0.84130 0.07030
H36_3 H 0.16260 0.87710 0.10960
C41_3 C 0.38120 0.91470 0.08740
H39_3 H 0.28080 0.78660 0.11830
H40_3 H 0.29550 0.89410 0.13500
H43_3 H 0.36180 0.93090 0.06290
H44_3 H 0.41740 0.87480 0.08350
H52_3 H 0.56380 0.98380 0.09160
H87_3 H 0.0925631 0.755507 0.153823
C48_3 C 0.09123 0.81557 0.74587
H57_3 H 0.02213 0.84287 0.79127
H58_3 H 0.12093 0.78087 0.76037
H59_3 H 0.14353 0.88877 0.74257
H60_3 H 0.06923 0.78227 0.72147
C46_3 C 0.72433 0.90877 0.74587
H50_3 H 0.82073 0.97787 0.79127
H53_2 H 0.65993 0.87907 0.76037
H54_3 H 0.74523 0.85647 0.74257
H55_3 H 0.71303 0.93077 0.72147
H18_3 H 0.55247 0.00673 0.42703
H53_3 H 0.99327 0.54573 0.42703
loop_
_geom_bond_atom_site_label_1
_geom_bond_atom_site_label_2
_geom_bond_site_symmetry_1
_geom_bond_site_symmetry_2
Zr1 O1 1_555 1_555
O1 C1 1_555 1_555
O2 Zr1 1_555 1_555
O3 Zr1 1_555 1_555
O4 Zr1 1_555 1_555
O6 Zr1 1_555 1_555
C1 C2 1_555 1_555
C2 C3 1_555 1_555
C3 N1 1_555 1_555
C4 C2 1_555 1_555
N1 C7 1_555 1_555
C5 C3 1_555 1_555
C6 C4 1_555 1_555
H1 C4 1_555 1_555
C7 C9 1_555 1_555
C8 C5 1_555 1_555
H2 C5 1_555 1_555
H3 C6 1_555 1_555
C9 C11 1_555 1_555
H4 C7 1_555 1_555
H5 C7 1_555 1_555
C10 C8 1_555 1_555
C11 C12 1_555 1_555
H6 C9 1_555 1_555
H7 C9 1_555 1_555
H8 C11 1_555 1_555
H9 C11 1_555 1_555
H10 C12 1_555 1_555
H11 C12 1_555 1_555
O14 C1 1_555 1_555
O33 C10 1_555 1_555
O34 C10 1_555 1_555
Zr7 O33 1_555 1_555
Zr8 O34 1_555 1_555
C45 C43 1_555 1_555
H47 C43 1_555 1_555
H48 C43 1_555 1_555
C47 C45 1_555 1_555
H51 C45 1_555 1_555
C48 C47 1_555 1_555
H56 C47 1_555 1_555
H57 C47 1_555 1_555
H58 C48 1_555 1_555
H59 C48 1_555 1_555
H60 C48 1_555 1_555
C6 C8 1_555 1_555
N1 H67 1_555 1_555
O8 Zr2 1_555 1_555
O9 Zr2 1_555 1_555
O10 Zr2 1_555 1_555
O11 Zr2 1_555 1_555
O5 Zr2 1_555 1_555
C13 C14 1_555 1_555
C14 C15 1_555 1_555
H12 C13 1_555 1_555
H13 C13 1_555 1_555
C15 C16 1_555 1_555
H14 C14 1_555 1_555
C16 H18 1_555 1_555
H16 C15 1_555 1_555
H17 C15 1_555 1_555
H19 C16 1_555 1_555
H20 C16 1_555 1_555
C17 O7 1_555 1_555
C18 C17 1_555 1_555
C20 C18 1_555 1_555
C21 C18 1_555 1_555
C23 C20 1_555 1_555
C24 C21 1_555 1_555
H21 C21 1_555 1_555
C28 C23 1_555 1_555
H22 C23 1_555 1_555
H23 C24 1_555 1_555
C32 C28 1_555 1_555
O35 C32 1_555 1_555
O36 C32 1_555 1_555
Zr8 O35 1_555 1_555
Zr10 O36 1_555 1_555
C17 O25 1_555 1_555
C24 C28 1_555 1_555
O22 Zr4 1_555 1_555
O23 Zr4 1_555 1_555
O8_3 Zr4 1_555 1_555
Zr5 O6_3 1_555 1_555
O26 Zr5 1_555 1_555
O27 Zr5 1_555 1_555
O28 Zr5 1_555 1_555
C19 O15 1_555 1_555
C22 C19 1_555 1_555
C25 C22 1_555 1_555
C26 C22 1_555 1_555
C27 N2 1_555 1_555
C29 C25 1_555 1_555
C30 C26 1_555 1_555
H24 C26 1_555 1_555
C31 C27 1_555 1_555
H25 C27 1_555 1_555
H26 C27 1_555 1_555
C34 C29 1_555 1_555
H27 C29 1_555 1_555
H28 C30 1_555 1_555
C35 C31 1_555 1_555
H29 C31 1_555 1_555
H30 C31 1_555 1_555
C37 C34 1_555 1_555
C38 C35 1_555 1_555
H33 C35 1_555 1_555
H34 C35 1_555 1_555
O37 C37 1_555 1_555
O38 C37 1_555 1_555
C40 C38 1_555 1_555
H37 C38 1_555 1_555
H38 C38 1_555 1_555
Zr10 O37 1_555 1_555
Zr7 O38 1_555 1_555
C42 C40 1_555 1_555
H41 C40 1_555 1_555
H42 C40 1_555 1_555
C44 C42 1_555 1_555
H45 C42 1_555 1_555
H46 C42 1_555 1_555
C46 C44 1_555 1_555
H49 C44 1_555 1_555
H50 C44 1_555 1_555
H53 C46 1_555 1_555
H54 C46 1_555 1_555
H55 C46 1_555 1_555
Zr5 O18 1_555 1_555
O28 C19 1_555 1_555
C30 C34 1_555 1_555
N2 H70 1_555 1_555
Zr6 O8_4 1_555 1_555
O29 Zr6 1_555 1_555
O30 Zr6 1_555 1_555
O32 Zr6 1_555 1_555
O20 Zr6 1_555 1_555
C7_2 C9_2 1_555 1_555
C9_2 C11_2 1_555 1_555
H4_2 C7_2 1_555 1_555
C11_2 C12_2 1_555 1_555
H6_2 C9_2 1_555 1_555
C12_2 C13_2 1_555 1_555
H8_2 C11_2 1_555 1_555
H9_2 C11_2 1_555 1_555
C13_2 C14_2 1_555 1_555
H10_2 C12_2 1_555 1_555
H11_2 C12_2 1_555 1_555
C14_2 C15_2 1_555 1_555
H12_2 C13_2 1_555 1_555
H13_2 C13_2 1_555 1_555
C15_2 C16_2 1_555 1_555
H14_2 C14_2 1_555 1_555
H15_2 C14_2 1_555 1_555
C16_2 H18_2 1_555 1_555
H16_2 C15_2 1_555 1_555
H17_2 C15_2 1_555 1_555
H19_2 C16_2 1_555 1_555
H20_2 C16_2 1_555 1_555
Zr1_2 O1_2 1_555 1_555
O1_2 C1_2 1_555 1_555
O2_2 Zr1_2 1_555 1_555
O3_2 Zr1_2 1_555 1_555
O4_2 Zr1_2 1_555 1_555
O5_2 Zr1_2 1_555 1_555
O6_4 Zr1_2 1_555 1_555
O7_2 Zr1_2 1_555 1_555
C1_2 C2_2 1_555 1_555
Zr2_2 O4_2 1_555 1_555
C2_2 C3_2 1_555 1_555
O8_5 Zr2_2 1_555 1_555
O9_2 Zr2_2 1_555 1_555
O10_2 Zr2_2 1_555 1_555
O11_2 Zr2_2 1_555 1_555
O12_2 Zr2_2 1_555 1_555
C3_2 N1_2 1_555 1_555
C4_2 C2_2 1_555 1_555
C5_2 C3_2 1_555 1_555
C6_2 C4_2 1_555 1_555
H1_2 C4_2 1_555 1_555
C8_2 C5_2 1_555 1_555
H2_2 C5_2 1_555 1_555
H3_2 C6_2 1_555 1_555
C10_2 C8_2 1_555 1_555
O13_2 Zr1_2 1_555 1_555
Zr3 O4_2 1_555 1_555
Zr4_2 O5_2 1_555 1_555
Zr5_2 O6_4 1_555 1_555
C17_2 O7_2 1_555 1_555
O14_2 C1_2 1_555 1_555
O15_2 Zr3 1_555 1_555
O16 Zr3 1_555 1_555
O17 Zr3 1_555 1_555
O18_2 Zr3 1_555 1_555
O19_2 Zr2_2 1_555 1_555
O20_2 Zr4_2 1_555 1_555
O21_2 Zr4_2 1_555 1_555
O22_2 Zr4_2 1_555 1_555
O23_2 Zr4_2 1_555 1_555
O24_2 Zr4_2 1_555 1_555
O25_2 Zr5_2 1_555 1_555
O26_2 Zr5_2 1_555 1_555
O27_2 Zr5_2 1_555 1_555
O28_2 Zr5_2 1_555 1_555
C18_2 C17_2 1_555 1_555
C19_2 O15_2 1_555 1_555
Zr6_2 O8_5 1_555 1_555
C20_2 C18_2 1_555 1_555
C21_2 C18_2 1_555 1_555
C22_2 C19_2 1_555 1_555
O29_2 Zr6_2 1_555 1_555
O30_2 Zr6_2 1_555 1_555
O31_2 Zr6_2 1_555 1_555
O32_2 Zr6_2 1_555 1_555
N2_2 C20_2 1_555 1_555
C23_2 C20_2 1_555 1_555
C24_2 C21_2 1_555 1_555
H21_2 C21_2 1_555 1_555
C25_2 C22_2 1_555 1_555
C26_2 C22_2 1_555 1_555
C28_2 C23_2 1_555 1_555
H22_2 C23_2 1_555 1_555
H23_2 C24_2 1_555 1_555
N3 C25_2 1_555 1_555
C29_2 C25_2 1_555 1_555
C30_2 C26_2 1_555 1_555
H24_2 C26_2 1_555 1_555
C32_2 C28_2 1_555 1_555
O21 C10_2 1_555 1_555
O32 C10_2 1_555 1_555
C33 N3 1_555 1_555
C34_2 C29_2 1_555 1_555
H27_2 C29_2 1_555 1_555
H28_2 C30_2 1_555 1_555
O31 C32_2 1_555 1_555
O12 C32_2 1_555 1_555
C36 C33 1_555 1_555
H31 C33 1_555 1_555
H32 C33 1_555 1_555
C37_2 C34_2 1_555 1_555
C39 C36 1_555 1_555
H35 C36 1_555 1_555
H36 C36 1_555 1_555
O9 C37_2 1_555 1_555
O24 C37_2 1_555 1_555
C41 C39 1_555 1_555
H39 C39 1_555 1_555
H40 C39 1_555 1_555
C43_2 C41 1_555 1_555
H43 C41 1_555 1_555
H44 C41 1_555 1_555
C45_2 C43_2 1_555 1_555
H47_2 C43_2 1_555 1_555
H48_2 C43_2 1_555 1_555
C47_2 C45_2 1_555 1_555
H51_2 C45_2 1_555 1_555
H52 C45_2 1_555 1_555
H56_2 C47_2 1_555 1_555
O5_2 Zr2_2 1_555 1_555
O6_4 Zr3 1_555 1_555
O8_5 Zr4_2 1_555 1_555
C6_2 C8_2 1_555 1_555
O13_2 Zr4_2 1_555 1_555
O13_2 Zr5_2 1_555 1_555
Zr3 O14_2 1_555 1_555
Zr3 O19_2 1_555 1_555
Zr5_2 O18_2 1_555 1_555
Zr5_2 O20_2 1_555 1_555
C17_2 O25_2 1_555 1_555
O18_2 Zr6_2 1_555 1_555
O19_2 Zr6_2 1_555 1_555
O20_2 Zr6_2 1_555 1_555
O28_2 C19_2 1_555 1_555
C24_2 C28_2 1_555 1_555
C30_2 C34_2 1_555 1_555
N3 H87 1_555 1_555
C31_2 C27_2 1_555 1_555
H25_2 C27_2 1_555 1_555
C35_2 C31_2 1_555 1_555
H29_2 C31_2 1_555 1_555
C38_2 C35_2 1_555 1_555
H33_2 C35_2 1_555 1_555
H34_2 C35_2 1_555 1_555
C40_2 C38_2 1_555 1_555
H37_2 C38_2 1_555 1_555
H38_2 C38_2 1_555 1_555
C42_2 C40_2 1_555 1_555
H41_2 C40_2 1_555 1_555
H42_2 C40_2 1_555 1_555
C44_2 C42_2 1_555 1_555
H45_2 C42_2 1_555 1_555
H46_2 C42_2 1_555 1_555
H49_2 C44_2 1_555 1_555
C8_3 C5_3 1_555 1_555
H2_3 C5_3 1_555 1_555
H3_3 C6_3 1_555 1_555
C10_3 C8_3 1_555 1_555
O21_2 C10_3 1_555 1_555
O32_2 C10_3 1_555 1_555
C43_3 C41_2 1_555 1_555
H43_2 C41_2 1_555 1_555
H44_2 C41_2 1_555 1_555
C45_3 C43_3 1_555 1_555
H47_3 C43_3 1_555 1_555
H48_3 C43_3 1_555 1_555
C47_3 C45_3 1_555 1_555
H51_3 C45_3 1_555 1_555
H52_2 C45_3 1_555 1_555
C48_2 C47_3 1_555 1_555
H56_3 C47_3 1_555 1_555
H57_2 C47_3 1_555 1_555
H58_2 C48_2 1_555 1_555
H59_2 C48_2 1_555 1_555
H60_2 C48_2 1_555 1_555
C6_3 C8_3 1_555 1_555
Zr1_3 O1_3 1_555 1_555
O1_3 C1_3 1_555 1_555
O2_3 Zr1_3 1_555 1_555
O3_3 Zr1_3 1_555 1_555
O4_3 Zr1_3 1_555 1_555
O5_3 Zr1_3 1_555 1_555
O6_5 Zr1_3 1_555 1_555
O7_3 Zr1_3 1_555 1_555
C1_3 C2_3 1_555 1_555
Zr10 O4_3 1_555 1_555
C2_3 C3_3 1_555 1_555
O8_6 Zr10 1_555 1_555
O10_3 Zr10 1_555 1_555
O11_3 Zr10 1_555 1_555
C3_3 N1_3 1_555 1_555
C4_3 C2_3 1_555 1_555
N1_3 C7_3 1_555 1_555
H1_3 C4_3 1_555 1_555
C7_3 C9_3 1_555 1_555
C9_3 C11_3 1_555 1_555
H5_3 C7_3 1_555 1_555
C11_3 C12_3 1_555 1_555
H6_3 C9_3 1_555 1_555
H7_3 C9_3 1_555 1_555
C12_3 C13_3 1_555 1_555
H8_3 C11_3 1_555 1_555
H9_3 C11_3 1_555 1_555
C13_3 C14_3 1_555 1_555
H10_3 C12_3 1_555 1_555
H11_3 C12_3 1_555 1_555
C14_3 C15_3 1_555 1_555
H12_3 C13_3 1_555 1_555
H13_3 C13_3 1_555 1_555
C15_3 C16_3 1_555 1_555
H14_3 C14_3 1_555 1_555
H15_3 C14_3 1_555 1_555
H16_3 C15_3 1_555 1_555
H17_3 C15_3 1_555 1_555
H19_3 C16_3 1_555 1_555
H20_3 C16_3 1_555 1_555
O13_3 Zr1_3 1_555 1_555
Zr3_2 O4_3 1_555 1_555
Zr7 O5_3 1_555 1_555
Zr5_3 O6_5 1_555 1_555
C17_3 O7_3 1_555 1_555
O14_3 C1_3 1_555 1_555
O15_3 Zr3_2 1_555 1_555
O16_2 Zr3_2 1_555 1_555
O17_2 Zr3_2 1_555 1_555
O18_3 Zr3_2 1_555 1_555
O19_3 Zr10 1_555 1_555
O20_3 Zr7 1_555 1_555
O22_3 Zr7 1_555 1_555
O23_3 Zr7 1_555 1_555
O25_3 Zr5_3 1_555 1_555
O26_3 Zr5_3 1_555 1_555
O27_3 Zr5_3 1_555 1_555
O28_3 Zr5_3 1_555 1_555
C18_3 C17_3 1_555 1_555
C19_3 O15_3 1_555 1_555
Zr8 O8_6 1_555 1_555
C20_3 C18_3 1_555 1_555
C21_3 C18_3 1_555 1_555
C22_3 C19_3 1_555 1_555
O29_3 Zr8 1_555 1_555
O30_3 Zr8 1_555 1_555
N2_3 C20_3 1_555 1_555
C23_3 C20_3 1_555 1_555
C24_3 C21_3 1_555 1_555
H21_3 C21_3 1_555 1_555
C25_3 C22_3 1_555 1_555
C26_3 C22_3 1_555 1_555
C27_3 N2_3 1_555 1_555
C28_3 C23_3 1_555 1_555
H22_3 C23_3 1_555 1_555
H23_3 C24_3 1_555 1_555
N3_2 C25_3 1_555 1_555
H24_3 C26_3 1_555 1_555
C31_3 C27_3 1_555 1_555
H25_3 C27_3 1_555 1_555
H26_3 C27_3 1_555 1_555
C32_3 C28_3 1_555 1_555
C33_2 N3_2 1_555 1_555
C35_3 C31_3 1_555 1_555
H29_3 C31_3 1_555 1_555
H30_3 C31_3 1_555 1_555
O31_2 C32_3 1_555 1_555
O12_2 C32_3 1_555 1_555
C36_2 C33_2 1_555 1_555
H32_2 C33_2 1_555 1_555
H33_3 C35_3 1_555 1_555
H34_3 C35_3 1_555 1_555
C39_2 C36_2 1_555 1_555
H35_2 C36_2 1_555 1_555
H36_2 C36_2 1_555 1_555
H39_2 C39_2 1_555 1_555
H40_2 C39_2 1_555 1_555
O5_3 Zr10 1_555 1_555
O6_5 Zr3_2 1_555 1_555
O8_6 Zr7 1_555 1_555
O13_3 Zr7 1_555 1_555
O13_3 Zr5_3 1_555 1_555
Zr3_2 O14_3 1_555 1_555
Zr3_2 O19_3 1_555 1_555
Zr5_3 O18_3 1_555 1_555
Zr5_3 O20_3 1_555 1_555
C17_3 O25_3 1_555 1_555
O18_3 Zr8 1_555 1_555
O19_3 Zr8 1_555 1_555
O20_3 Zr8 1_555 1_555
O28_3 C19_3 1_555 1_555
C24_3 C28_3 1_555 1_555
N1_3 H67_3 1_555 1_555
N2_3 H70_3 1_555 1_555
N3_2 H87_2 1_555 1_555
C34_3 C29_3 1_555 1_555
H27_3 C29_3 1_555 1_555
H28_3 C30_3 1_555 1_555
C37_3 C34_3 1_555 1_555
O9_2 C37_3 1_555 1_555
O24_2 C37_3 1_555 1_555
C40_3 C38_3 1_555 1_555
H37_3 C38_3 1_555 1_555
H38_3 C38_3 1_555 1_555
C42_3 C40_3 1_555 1_555
H41_3 C40_3 1_555 1_555
H42_3 C40_3 1_555 1_555
C44_3 C42_3 1_555 1_555
H45_3 C42_3 1_555 1_555
H46_3 C42_3 1_555 1_555
C46_2 C44_3 1_555 1_555
H49_3 C44_3 1_555 1_555
H50_2 C44_3 1_555 1_555
H54_2 C46_2 1_555 1_555
H55_2 C46_2 1_555 1_555
C30_3 C34_3 1_555 1_555
O16_3 Zr3_3 1_555 1_555
O17_3 Zr3_3 1_555 1_555
C33_3 N3_3 1_555 1_555
C36_3 C33_3 1_555 1_555
H31_3 C33_3 1_555 1_555
H32_3 C33_3 1_555 1_555
C39_3 C36_3 1_555 1_555
H35_3 C36_3 1_555 1_555
H36_3 C36_3 1_555 1_555
C41_3 C39_3 1_555 1_555
H39_3 C39_3 1_555 1_555
H40_3 C39_3 1_555 1_555
H43_3 C41_3 1_555 1_555
H44_3 C41_3 1_555 1_555
O6_6 Zr3_3 1_555 1_555
N3_3 H87_3 1_555 1_555
H58_3 C48_3 1_555 1_555
H59_3 C48_3 1_555 1_555
H60_3 C48_3 1_555 1_555
H53_2 C46_3 1_555 1_555
H54_3 C46_3 1_555 1_555
H55_3 C46_3 1_555 1_555

#END
