
###############################################################################
#
# This file contains modified crystal structure data generated from the
# MOF subset of the Cambridge Structural Database (CSD) v543 
# hosted by the Cambridge Crystallographic Data Centre (CCDC).
#
# This work is licensed under the Creative Commons
# Attribution-NonCommercial-ShareAlike 4.0 International License.
# To view a copy of this license, visit
# http://creativecommons.org/licenses/by-nc-sa/4.0/
# or send a letter to
# Creative Commons, PO Box 1866, Mountain View, CA 94042, USA.
#
# CIF created using the CSD Python API on 29 September 2022
# The structure has been converted into the P1 space group
# The structure has a 3D framework
# The original CSD entry JEGSUN is in the rhombohedral crystal system
# The original CSD entry JEGSUN is in a Sohncke space group
# The framework has been calculated to contain at least 10.0% void space
# The void calculation uses a probe of radius 1.32A, grid spacing 0.4
# H atom positions have been added when not included in the experimental data
# Generated hydrogen atom positions removed from atoms on special positions
#
###############################################################################

data_JEGSUN
_chemical_formula_moiety         '(C126 H270 As9 N9 O120 Zr18)n'
_symmetry_cell_setting           triclinic
_symmetry_space_group_name_H-M   'P 1'
_symmetry_Int_Tables_number      1
_space_group_name_Hall           'P 1'
loop_
_symmetry_equiv_pos_site_id
_symmetry_equiv_pos_as_xyz
1 x,y,z
_cell_length_a                   14.62(6)
_cell_length_b                   14.62(6)
_cell_length_c                   35.67(15)
_cell_angle_alpha                90
_cell_angle_beta                 90
_cell_angle_gamma                120
_cell_volume                     6602.81
loop_
_atom_site_label
_atom_site_type_symbol
_atom_site_fract_x
_atom_site_fract_y
_atom_site_fract_z
Zr1 Zr 0.08090 0.16160 0.04010
O1 O 0.18110 0.16970 0.09020
O2 O 0.05280 0.29790 0.02610
O3 O 0.49100 0.32460 0.24590
O5 O 0.49100 0.16640 0.24590
O6 O 0.18110 0.01140 0.09020
O7 O 0.16150 0.08080 0.02000
O11 O 0.22822 0.31235 0.03043
O13 O -0.00000 -0.00000 0.06030
N1 N 0.27330 0.30540 0.13530
C1 C 0.30550 0.23740 0.15190
C2 C 0.36660 0.26800 0.18430
C3 C 0.36660 0.09860 0.18430
C4 C 0.30550 0.06800 0.15190
C5 C 0.20670 0.10330 0.10360
C6 C 0.27630 0.13820 0.13810
C7 C 0.46540 0.23270 0.23260
C8 C 0.39580 0.19780 0.19800
C9 C 0.27360 0.33830 0.09710
C11 C 0.11620 0.57860 0.11030
C12 C 0.14750 0.51310 0.08550
C13 C 0.14710 0.43100 0.11200
C14 C 0.17520 0.35020 0.09720
H1 H 0.38980 0.34730 0.19800
H2 H 0.38980 0.04250 0.19800
H4 H 0.26390 0.27410 0.07660
H5 H 0.35030 0.41560 0.09150
H9 H 0.13930 0.57540 0.14060
H10 H 0.15740 0.66430 0.10030
H11 H 0.23010 0.56530 0.07340
H12 H 0.08720 0.47490 0.06200
H13 H 0.06500 0.38550 0.12510
H14 H 0.20650 0.47290 0.13550
H15 H 0.14890 0.33860 0.06670
H16 H 0.12140 0.27000 0.11080
H20 H 0.01140 0.29360 0.13820
C38 C 0.53470 0.00370 0.10750
H40 H 0.48770 0.04470 0.11450
H41 H 0.56720 0.02560 0.07780
H42 H 0.60310 0.03030 0.12810
Zr10 Zr 0.58580 0.41409 0.29320
Zr12 Zr 0.58591 0.17170 0.29320
H60 H 0.244458 0.336957 0.154002
Zr2 Zr 0.16163 0.08087 0.95987
As1 As 0.24292 0.32725 0.98353
O4 O 0.29783 0.05277 0.97387
O8 O 0.08080 0.16150 0.98000
O9 O 0.35592 0.44945 0.98003
O10 O 0.28142 0.24975 0.96183
O12 O 0.14832 0.34145 0.96163
O14 O 0.00000 0.00000 0.93967
H17 H 0.41782 0.45315 0.99913
O41 O 0.16693 0.17567 0.91257
O44 O 0.00873 0.17567 0.91257
H58 H 0.00670264 0.298467 0.958533
O14_2 O -0.00000 1.00000 0.93967
As3 As 0.08433 0.75708 0.98353
O34 O 0.08070 0.91920 0.98000
O35 O 0.09353 0.64408 0.98003
O38 O 0.19313 0.85168 0.96163
H51 H 0.03533 0.58218 0.99913
O40 O 0.00873 0.83307 0.91257
O43 O 0.16693 0.99127 0.91257
H52 H 0.270845 0.986753 0.988695
O13_2 O 1.00000 -0.00000 0.06030
C10 C 0.99630 0.53100 0.10750
H6 H 0.95530 0.44300 0.11450
H7 H 0.97440 0.54160 0.07780
H8 H 0.96970 0.57280 0.12810
O15 O 0.83030 0.01140 0.09020
O17 O 0.67540 0.16640 0.24590
O19 O 0.83360 0.32460 0.24590
O20 O 0.98860 0.16970 0.09020
O21 O 0.91920 0.08070 0.02000
C15 C 0.76260 0.06810 0.15190
C16 C 0.73200 0.09860 0.18430
C17 C 0.90140 0.26800 0.18430
C18 C 0.93200 0.23750 0.15190
C19 C 0.89670 0.10340 0.10360
C20 C 0.86180 0.13810 0.13810
C21 C 0.76730 0.23270 0.23260
C22 C 0.80220 0.19800 0.19800
H18 H 0.65270 0.04250 0.19800
H19 H 0.95750 0.34730 0.19800
Zr8 Zr 0.82830 0.41420 0.29320
O14_3 O 1.00000 0.00000 0.93967
Zr4 Zr 0.91913 0.08076 0.95987
O18 O 0.94723 0.24506 0.97387
O24 O 0.75025 0.03167 0.96183
O13_3 O 1.00000 1.00000 0.06030
Zr3 Zr 0.83840 0.91930 0.04010
O16 O 0.70210 0.75490 0.02610
O25 O 0.68765 0.91587 0.03043
N2 N 0.69460 0.96790 0.13530
C23 C 0.66170 0.93530 0.09710
C24 C 0.46900 0.46530 0.10750
C25 C 0.42140 0.53760 0.11030
C26 C 0.48690 0.63440 0.08550
C27 C 0.56900 0.71610 0.11200
C28 C 0.64980 0.82500 0.09720
H21 H 0.72590 0.98980 0.07660
H22 H 0.58440 0.93470 0.09150
H23 H 0.55700 0.51230 0.11450
H24 H 0.45840 0.43280 0.07780
H25 H 0.42720 0.39690 0.12810
H26 H 0.42460 0.56390 0.14060
H27 H 0.33570 0.49310 0.10030
H28 H 0.43470 0.66480 0.07340
H29 H 0.52510 0.61230 0.06200
H30 H 0.61450 0.67950 0.12510
H31 H 0.52710 0.73360 0.13550
H32 H 0.66140 0.81030 0.06670
H33 H 0.73000 0.85140 0.11080
O27 O 0.98860 0.81890 0.09020
O29 O 0.83360 0.50900 0.24590
O31 O 0.67540 0.50900 0.24590
O32 O 0.83030 0.81890 0.09020
O33 O 0.91930 0.83850 0.02000
C29 C 0.93190 0.69450 0.15190
C30 C 0.90140 0.63340 0.18430
C31 C 0.73200 0.63340 0.18430
C32 C 0.76250 0.69450 0.15190
C33 C 0.89660 0.79330 0.10360
C34 C 0.86190 0.72370 0.13810
C35 C 0.76730 0.53460 0.23260
C36 C 0.80200 0.60420 0.19800
H35 H 0.95750 0.61020 0.19800
H36 H 0.65270 0.61020 0.19800
H37 H 0.70640 0.71780 0.13820
H61 H 0.663043 0.907501 0.154002
O14_4 O 1.00000 1.00000 0.93967
As2 As 0.67275 0.91567 0.98353
O22 O 0.83850 0.91930 0.98000
O23 O 0.55055 0.90647 0.98003
O26 O 0.65855 0.80687 0.96163
H34 H 0.54685 0.96467 0.99913
Zr6 Zr 0.91924 0.83837 0.95987
O30 O 0.75494 0.70217 0.97387
O36 O 0.96833 0.71858 0.96183
O39 O 0.82433 0.99127 0.91257
O42 O 0.82433 0.83307 0.91257
H52_2 H 0.0132467 0.284091 0.988695
H58_2 H 0.291764 0.993297 0.958533
O9_2 O 0.68925 0.11612 0.64670
O12_2 O 0.48165 0.00812 0.62830
C9_2 C 0.60693 0.00497 0.76377
C10_2 C 0.32963 0.19767 0.77417
C11_2 C 0.44953 0.24527 0.77697
C12_2 C 0.48083 0.17977 0.75217
C13_2 C 0.48043 0.09767 0.77867
C14_2 C 0.50853 0.01687 0.76387
H1_2 H 0.72313 0.01397 0.86467
H5_2 H 0.68363 0.08227 0.75817
H6_2 H 0.28863 0.10967 0.78117
H7_2 H 0.30773 0.20827 0.74447
H8_2 H 0.30303 0.23947 0.79477
H9_2 H 0.47263 0.24207 0.80727
H10_2 H 0.49073 0.33097 0.76697
H11_2 H 0.56343 0.23197 0.74007
H12_2 H 0.42053 0.14157 0.72867
H13_2 H 0.39833 0.05217 0.79177
H14_2 H 0.53983 0.13957 0.80217
H15_2 H 0.48223 0.00527 0.73337
H17_2 H 0.75115 0.11982 0.66580
H19_2 H 0.29083 0.01397 0.86467
H54 H 0.454885 0.0293816 0.68789
H60_2 H 0.577792 0.00362388 0.820669
Zr1_2 Zr 0.41423 0.82827 0.70677
Zr2_2 Zr 0.49496 0.74754 0.62654
As1_2 As 0.57625 0.99392 0.65020
O1_2 O 0.51443 0.83637 0.75687
O2_2 O 0.38613 0.96457 0.69277
O4_2 O 0.63116 0.71944 0.64054
O6_2 O 0.51443 0.67807 0.75687
O7_2 O 0.49483 0.74747 0.68667
O8_2 O 0.41413 0.82817 0.64667
O10_2 O 0.61475 0.91642 0.62850
O11_2 O 0.56155 0.97902 0.69710
O13_4 O 0.33333 0.66667 0.72697
O14_5 O 0.33333 0.66667 0.60634
N1_2 N 0.60663 0.97207 0.80197
C1_2 C 0.63883 0.90407 0.81857
C2_2 C 0.69993 0.93467 0.85097
C3_2 C 0.69993 0.76527 0.85097
C4_2 C 0.63883 0.73467 0.81857
C5_2 C 0.54003 0.76997 0.77027
C6_2 C 0.60963 0.80487 0.80477
C7_2 C 0.79873 0.89937 0.89927
C8_2 C 0.72913 0.86447 0.86467
H2_2 H 0.72313 0.70917 0.86467
H3 H 0.61553 0.65527 0.80487
H4_2 H 0.59723 0.94077 0.74327
H16_2 H 0.45473 0.93667 0.77747
Zr3_2 Zr 0.17173 0.58597 0.70677
Zr4_2 Zr 0.25246 0.74743 0.62654
As2_2 As 0.00608 0.58234 0.65020
O15_2 O 0.16363 0.67807 0.75687
O16_2 O 0.03543 0.42157 0.69277
O18_2 O 0.28056 0.91173 0.64054
O20_2 O 0.32193 0.83637 0.75687
O21_2 O 0.25253 0.74737 0.68667
O22_2 O 0.17183 0.58597 0.64667
O24_2 O 0.08358 0.69834 0.62850
O25_2 O 0.02098 0.58254 0.69710
N2_2 N 0.02793 0.63457 0.80197
C15_2 C 0.09593 0.73477 0.81857
C16_2 C 0.06533 0.76527 0.85097
C17_2 C 0.23473 0.93467 0.85097
C18_2 C 0.26533 0.90417 0.81857
C19_2 C 0.23003 0.77007 0.77027
C20_2 C 0.19513 0.80477 0.80477
C21_2 C 0.10063 0.89937 0.89927
C22_2 C 0.13553 0.86467 0.86467
H20_2 H 0.34473 0.96027 0.80487
H21_2 H 0.05923 0.65647 0.74327
H33_2 H 0.06333 0.51807 0.77747
Zr5 Zr 0.41403 0.58577 0.70677
Zr6_2 Zr 0.25257 0.50504 0.62654
As3_2 As 0.41766 0.42375 0.65020
O27_2 O 0.32193 0.48557 0.75687
O28 O 0.57843 0.61387 0.69277
O30_2 O 0.08827 0.36884 0.64054
O32_2 O 0.16363 0.48557 0.75687
O33_2 O 0.25263 0.50517 0.68667
O34_2 O 0.41403 0.58587 0.64667
O35_2 O 0.42686 0.31075 0.64670
O36_2 O 0.30166 0.38525 0.62850
O37 O 0.41746 0.43845 0.69710
O38_2 O 0.52646 0.51835 0.62830
N3 N 0.36543 0.39337 0.80197
C29_2 C 0.26523 0.36117 0.81857
C30_2 C 0.23473 0.30007 0.85097
C31_2 C 0.06533 0.30007 0.85097
C32_2 C 0.09583 0.36117 0.81857
C33_2 C 0.22993 0.45997 0.77027
C34_2 C 0.19523 0.39037 0.80477
C35_2 C 0.10063 0.20127 0.89927
C36_2 C 0.13533 0.27087 0.86467
C37 C 0.39803 0.39307 0.76377
C38_2 C 0.86803 0.67037 0.77417
C39 C 0.79573 0.55047 0.77697
C40 C 0.69893 0.51917 0.75217
C41 C 0.61723 0.51957 0.77867
C42 C 0.50833 0.49147 0.76387
H35_2 H 0.29083 0.27687 0.86467
H37_2 H 0.03973 0.38447 0.80487
H38 H 0.34353 0.40277 0.74327
H39 H 0.39863 0.31637 0.75817
H40_2 H 0.82103 0.71137 0.78117
H41_2 H 0.90053 0.69227 0.74447
H42_2 H 0.93643 0.69697 0.79477
H43 H 0.76943 0.52737 0.80727
H44 H 0.84023 0.50927 0.76697
H45 H 0.66853 0.43657 0.74007
H46 H 0.72103 0.57947 0.72867
H47 H 0.65383 0.60167 0.79177
H48 H 0.59973 0.46017 0.80217
H49 H 0.52303 0.51777 0.73337
H50 H 0.48193 0.54527 0.77747
H51_2 H 0.36866 0.24885 0.66580
O39_2 O 0.15767 0.65793 0.57923
O40_2 O 0.34207 0.49973 0.57923
O41_2 O 0.50027 0.84233 0.57923
O42_2 O 0.15767 0.49973 0.57923
O43_2 O 0.50027 0.65793 0.57923
O44_2 O 0.34207 0.84233 0.57923
H62 H 0.425832 0.422208 0.820669
O23_2 O 0.88388 0.57314 0.64670
O26_2 O 0.99188 0.47354 0.62830
C23_2 C 0.99503 0.60197 0.76377
C24_2 C 0.80233 0.13197 0.77417
C25_2 C 0.75473 0.20427 0.77697
C26_2 C 0.82023 0.30107 0.75217
C27_2 C 0.90233 0.38277 0.77867
C28_2 C 0.98313 0.49167 0.76387
H18_2 H 0.98603 0.70917 0.86467
H22_2 H 0.91773 0.60137 0.75817
H23_2 H 0.89033 0.17897 0.78117
H24_2 H 0.79173 0.09947 0.74447
H25_2 H 0.76053 0.06357 0.79477
H26_2 H 0.75793 0.23057 0.80727
H27_2 H 0.66903 0.15977 0.76697
H28_2 H 0.76803 0.33147 0.74007
H29_2 H 0.85843 0.27897 0.72867
H30_2 H 0.94783 0.34617 0.79177
H31_2 H 0.86043 0.40027 0.80217
H32_2 H 0.99473 0.47697 0.73337
H34_2 H 0.88018 0.63134 0.66580
H36_2 H 0.98603 0.27687 0.86467
H57 H 0.97394 0.427058 0.683939
H61_2 H 0.996376 0.574168 0.820669
H63 H 0.418876 0.0199055 0.712383
H54_2 H 0.970618 0.425504 0.68789
H57_2 H 0.453118 0.02606 0.683939
H63_2 H 0.980094 0.39897 0.712383
O9_3 O 0.02259 0.78278 0.31336
C2_3 C 0.03327 0.60133 0.51763
C3_3 C 0.03327 0.43193 0.51763
C7_3 C 0.13207 0.56603 0.56593
C8_3 C 0.06247 0.53113 0.53133
H1_3 H 0.05647 0.68063 0.53133
H2_3 H 0.05647 0.37583 0.53133
H5_3 H 0.01697 0.74893 0.42483
H17_3 H 0.08449 0.78648 0.33246
C38_3 C 0.20137 0.33703 0.44083
C39_2 C 0.12907 0.21713 0.44363
C40_2 C 0.03227 0.18583 0.41883
H40_3 H 0.15437 0.37803 0.44783
H41_3 H 0.23387 0.35893 0.41113
H42_3 H 0.26977 0.36363 0.46143
H43_2 H 0.10277 0.19403 0.47393
H44_2 H 0.17357 0.17593 0.43363
H45_2 H 0.00187 0.10323 0.40673
H46_2 H 0.05437 0.24613 0.39533
Zr1_3 Zr 0.74757 0.49493 0.37343
As1_3 As 0.90959 0.66058 0.31686
O1_3 O 0.84777 0.50303 0.42353
O2_3 O 0.71947 0.63123 0.35943
O4_3 O 0.96450 0.38610 0.30720
O6_3 O 0.84777 0.34473 0.42353
O7_3 O 0.82817 0.41413 0.35333
O8_3 O 0.74747 0.49483 0.31333
O10_3 O 0.94809 0.58308 0.29516
O11_3 O 0.89489 0.64568 0.36376
O12_3 O 0.81499 0.67478 0.29496
O13_5 O 0.66667 0.33333 0.39363
O14_6 O 0.66667 0.33333 0.27300
N1_3 N 0.93997 0.63873 0.46863
C1_3 C 0.97217 0.57073 0.48523
C4_3 C 0.97217 0.40133 0.48523
C5_3 C 0.87337 0.43663 0.43693
C6_3 C 0.94297 0.47153 0.47143
C9_3 C 0.94027 0.67163 0.43043
C10_3 C 0.66297 0.86433 0.44083
C11_3 C 0.78287 0.91193 0.44363
C12_3 C 0.81417 0.84643 0.41883
C13_3 C 0.81377 0.76433 0.44533
C14_3 C 0.84187 0.68353 0.43053
H3_2 H 0.94887 0.32193 0.47153
H4_3 H 0.93057 0.60743 0.40993
H6_3 H 0.62197 0.77633 0.44783
H7_3 H 0.64107 0.87493 0.41113
H8_3 H 0.63637 0.90613 0.46143
H9_3 H 0.80597 0.90873 0.47393
H10_3 H 0.82407 0.99763 0.43363
H11_3 H 0.89677 0.89863 0.40673
H12_3 H 0.75387 0.80823 0.39533
H13_3 H 0.73167 0.71883 0.45843
H14_3 H 0.87317 0.80623 0.46883
H15_3 H 0.81557 0.67193 0.40003
H16_3 H 0.78807 0.60333 0.44413
Zr3_3 Zr 0.50507 0.25263 0.37343
As2_3 As 0.33942 0.24900 0.31686
O15_3 O 0.49697 0.34473 0.42353
O16_3 O 0.36877 0.08823 0.35943
O18_3 O 0.61390 0.57839 0.30720
O20_3 O 0.65527 0.50303 0.42353
O21_3 O 0.58587 0.41403 0.35333
O22_3 O 0.50517 0.25263 0.31333
O23_3 O 0.21722 0.23980 0.31336
O24_3 O 0.41692 0.36500 0.29516
O25_3 O 0.35432 0.24920 0.36376
O26_3 O 0.32522 0.14020 0.29496
N2_3 N 0.36127 0.30123 0.46863
C15_3 C 0.42927 0.40143 0.48523
C16_3 C 0.39867 0.43193 0.51763
C17_3 C 0.56807 0.60133 0.51763
C18_3 C 0.59867 0.57083 0.48523
C19_3 C 0.56337 0.43673 0.43693
C20_3 C 0.52847 0.47143 0.47143
C21_3 C 0.43397 0.56603 0.56593
C22_3 C 0.46887 0.53133 0.53133
C23_3 C 0.32837 0.26863 0.43043
C27_3 C 0.23567 0.04943 0.44533
C28_3 C 0.31647 0.15833 0.43053
H18_3 H 0.31937 0.37583 0.53133
H19_3 H 0.62417 0.68063 0.53133
H20_3 H 0.67807 0.62693 0.47153
H21_3 H 0.39257 0.32313 0.40993
H22_3 H 0.25107 0.26803 0.42483
H30_3 H 0.28117 0.01283 0.45843
H31_3 H 0.19377 0.06693 0.46883
H32_3 H 0.32807 0.14363 0.40003
H33_3 H 0.39667 0.18473 0.44413
H34_3 H 0.21352 0.29800 0.33246
Zr5_2 Zr 0.74737 0.25243 0.37343
As3_3 As 0.75100 0.09041 0.31686
O27_3 O 0.65527 0.15223 0.42353
O28_2 O 0.91177 0.28053 0.35943
O30_3 O 0.42161 0.03550 0.30720
O32_3 O 0.49697 0.15223 0.42353
O33_3 O 0.58597 0.17183 0.35333
O34_3 O 0.74737 0.25253 0.31333
O36_3 O 0.63500 0.05191 0.29516
O37_2 O 0.75080 0.10511 0.36376
O38_3 O 0.85980 0.18501 0.29496
N3_2 N 0.69877 0.06003 0.46863
C29_3 C 0.59857 0.02783 0.48523
C32_3 C 0.42917 0.02783 0.48523
C33_3 C 0.56327 0.12663 0.43693
C34_3 C 0.52857 0.05703 0.47143
C37_2 C 0.73137 0.05973 0.43043
C41_2 C 0.95057 0.18623 0.44533
C42_2 C 0.84167 0.15813 0.43053
H37_3 H 0.37307 0.05113 0.47153
H38_2 H 0.67687 0.06943 0.40993
H47_2 H 0.98717 0.26833 0.45843
H48_2 H 0.93307 0.12683 0.46883
H49_2 H 0.85637 0.18443 0.40003
H50_2 H 0.81527 0.21193 0.44413
H60_3 H 0.911125 0.670291 0.487335
H61_3 H 0.329709 0.240834 0.487335
H62_2 H 0.759166 0.0888751 0.487335
C24_3 C 0.13567 0.79863 0.44083
C25_3 C 0.08807 0.87093 0.44363
C26_3 C 0.15357 0.96773 0.41883
H23_3 H 0.22367 0.84563 0.44783
H24_3 H 0.12507 0.76613 0.41113
H25_3 H 0.09387 0.73023 0.46143
H26_3 H 0.09127 0.89723 0.47393
H27_3 H 0.00237 0.82643 0.43363
H28_3 H 0.10137 0.99813 0.40673
H29_3 H 0.19177 0.94563 0.39533
O35_3 O 0.76020 0.97741 0.31336
C30_3 C 0.56807 0.96673 0.51763
C31_3 C 0.39867 0.96673 0.51763
C35_3 C 0.43397 0.86793 0.56593
C36_3 C 0.46867 0.93753 0.53133
H35_3 H 0.62417 0.94353 0.53133
H36_3 H 0.31937 0.94353 0.53133
H39_2 H 0.73197 0.98303 0.42483
H51_3 H 0.70200 0.91551 0.33246
H66 H 0.427092 0.974002 0.316027
H66_2 H 0.0259975 0.45309 0.316027
H59 H 0.418331 0.967385 0.301622
H59_2 H 0.0326152 0.450946 0.301622
O13_6 O 0.00000 1.00000 0.06030
H3_3 H 0.28220 0.98860 0.13820
Zr5_3 Zr 0.08070 0.91910 0.04010
O28_3 O 0.24510 0.94720 0.02610
O37_3 O 0.08413 0.77178 0.03043
N3_3 N 0.03210 0.72670 0.13530
C37_3 C 0.06470 0.72640 0.09710
C39_3 C 0.46240 0.88380 0.11030
C40_3 C 0.36560 0.85250 0.08550
C41_3 C 0.28390 0.85290 0.11200
C42_3 C 0.17500 0.82480 0.09720
H38_3 H 0.01020 0.73610 0.07660
H39_3 H 0.06530 0.64970 0.09150
H43_3 H 0.43610 0.86070 0.14060
H44_3 H 0.50690 0.84260 0.10030
H45_3 H 0.33520 0.76990 0.07340
H46_3 H 0.38770 0.91280 0.06200
H47_3 H 0.32050 0.93500 0.12510
H48_3 H 0.26640 0.79350 0.13550
H49_3 H 0.18970 0.85110 0.06670
H50_3 H 0.14860 0.87860 0.11080
H62_3 H 0.092499 0.755542 0.154002
loop_
_geom_bond_atom_site_label_1
_geom_bond_atom_site_label_2
_geom_bond_site_symmetry_1
_geom_bond_site_symmetry_2
Zr1 O1 1_555 1_555
O1 C5 1_555 1_555
O2 Zr1 1_555 1_555
O3 C7 1_555 1_555
O5 C7 1_555 1_555
O6 C5 1_555 1_555
O7 Zr1 1_555 1_555
O11 Zr1 1_555 1_555
O13 Zr1 1_555 1_555
N1 C1 1_555 1_555
C1 C2 1_555 1_555
C2 C8 1_555 1_555
C3 C4 1_555 1_555
C4 C6 1_555 1_555
C5 C6 1_555 1_555
C6 C1 1_555 1_555
C7 C8 1_555 1_555
C8 C3 1_555 1_555
C9 N1 1_555 1_555
C11 C12 1_555 1_555
C12 C13 1_555 1_555
C13 C14 1_555 1_555
C14 C9 1_555 1_555
H1 C2 1_555 1_555
H2 C3 1_555 1_555
H4 C9 1_555 1_555
H5 C9 1_555 1_555
H9 C11 1_555 1_555
H10 C11 1_555 1_555
H11 C12 1_555 1_555
H12 C12 1_555 1_555
H13 C13 1_555 1_555
H14 C13 1_555 1_555
H15 C14 1_555 1_555
H16 C14 1_555 1_555
H40 C38 1_555 1_555
H41 C38 1_555 1_555
H42 C38 1_555 1_555
Zr10 O3 1_555 1_555
Zr12 O5 1_555 1_555
N1 H60 1_555 1_555
Zr2 O4 1_555 1_555
As1 O9 1_555 1_555
O9 H17 1_555 1_555
O10 Zr2 1_555 1_555
O12 As1 1_555 1_555
O14 Zr2 1_555 1_555
O41 Zr2 1_555 1_555
Zr2 O8 1_555 1_555
As1 O10 1_555 1_555
As3 O35 1_555 1_555
O35 H51 1_555 1_555
O38 As3 1_555 1_555
H6 C10 1_555 1_555
H7 C10 1_555 1_555
H8 C10 1_555 1_555
O17 C21 1_555 1_555
O19 C21 1_555 1_555
C15 C16 1_555 1_555
C16 C22 1_555 1_555
C17 C18 1_555 1_555
C18 C20 1_555 1_555
C19 O15 1_555 1_555
C20 C15 1_555 1_555
C21 C22 1_555 1_555
C22 C17 1_555 1_555
H18 C16 1_555 1_555
H19 C17 1_555 1_555
Zr8 O19 1_555 1_555
Zr12 O17 1_555 1_555
O20 C19 1_555 1_555
C19 C20 1_555 1_555
O18 Zr4 1_555 1_555
O24 Zr4 1_555 1_555
O14_3 Zr4 1_555 1_555
Zr3 O13_3 1_555 1_555
O16 Zr3 1_555 1_555
O25 Zr3 1_555 1_555
C23 N2 1_555 1_555
C24 C25 1_555 1_555
C25 C26 1_555 1_555
C26 C27 1_555 1_555
C27 C28 1_555 1_555
C28 C23 1_555 1_555
H21 C23 1_555 1_555
H22 C23 1_555 1_555
H23 C24 1_555 1_555
H24 C24 1_555 1_555
H25 C24 1_555 1_555
H26 C25 1_555 1_555
H27 C25 1_555 1_555
H28 C26 1_555 1_555
H29 C26 1_555 1_555
H30 C27 1_555 1_555
H31 C27 1_555 1_555
H32 C28 1_555 1_555
H33 C28 1_555 1_555
O29 C35 1_555 1_555
O31 C35 1_555 1_555
O32 Zr3 1_555 1_555
O33 Zr3 1_555 1_555
C29 C30 1_555 1_555
C30 C36 1_555 1_555
C31 C32 1_555 1_555
C32 C34 1_555 1_555
C33 O27 1_555 1_555
C34 C29 1_555 1_555
C35 C36 1_555 1_555
C36 C31 1_555 1_555
H35 C30 1_555 1_555
H36 C31 1_555 1_555
H37 C32 1_555 1_555
Zr8 O29 1_555 1_555
Zr10 O31 1_555 1_555
O32 C33 1_555 1_555
C33 C34 1_555 1_555
N2 H61 1_555 1_555
As2 O23 1_555 1_555
O23 H34 1_555 1_555
O26 As2 1_555 1_555
Zr6 O14_4 1_555 1_555
O30 Zr6 1_555 1_555
O36 Zr6 1_555 1_555
O42 Zr6 1_555 1_555
O22 Zr6 1_555 1_555
O9_2 H17_2 1_555 1_555
C10_2 C11_2 1_555 1_555
C11_2 C12_2 1_555 1_555
C12_2 C13_2 1_555 1_555
C13_2 C14_2 1_555 1_555
C14_2 C9_2 1_555 1_555
H5_2 C9_2 1_555 1_555
H6_2 C10_2 1_555 1_555
H7_2 C10_2 1_555 1_555
H8_2 C10_2 1_555 1_555
H9_2 C11_2 1_555 1_555
H10_2 C11_2 1_555 1_555
H11_2 C12_2 1_555 1_555
H12_2 C12_2 1_555 1_555
H13_2 C13_2 1_555 1_555
H14_2 C13_2 1_555 1_555
H15_2 C14_2 1_555 1_555
Zr1_2 O1_2 1_555 1_555
Zr2_2 O4_2 1_555 1_555
O1_2 C5_2 1_555 1_555
O2_2 Zr1_2 1_555 1_555
O39 C7_2 1_555 1_555
O42 C7_2 1_555 1_555
O6_2 C5_2 1_555 1_555
O7_2 Zr1_2 1_555 1_555
O8_2 Zr1_2 1_555 1_555
O10_2 Zr2_2 1_555 1_555
O11_2 Zr1_2 1_555 1_555
O13_4 Zr1_2 1_555 1_555
O14_5 Zr2_2 1_555 1_555
N1_2 C1_2 1_555 1_555
C1_2 C2_2 1_555 1_555
C2_2 C8_2 1_555 1_555
C3_2 C4_2 1_555 1_555
C4_2 C6_2 1_555 1_555
C5_2 C6_2 1_555 1_555
C6_2 C1_2 1_555 1_555
C7_2 C8_2 1_555 1_555
C8_2 C3_2 1_555 1_555
H2_2 C3_2 1_555 1_555
H3 C4_2 1_555 1_555
Zr3_2 O13_4 1_555 1_555
Zr4_2 O8_2 1_555 1_555
O15_2 Zr3_2 1_555 1_555
O16_2 Zr3_2 1_555 1_555
O40 C21_2 1_555 1_555
O18_2 Zr4_2 1_555 1_555
O43 C21_2 1_555 1_555
O20_2 Zr1_2 1_555 1_555
O21_2 Zr1_2 1_555 1_555
O22_2 Zr3_2 1_555 1_555
O24_2 Zr4_2 1_555 1_555
O25_2 Zr3_2 1_555 1_555
N2_2 C15_2 1_555 1_555
C15_2 C16_2 1_555 1_555
C16_2 C22_2 1_555 1_555
C17_2 C18_2 1_555 1_555
C18_2 C20_2 1_555 1_555
C19_2 O15_2 1_555 1_555
C20_2 C15_2 1_555 1_555
C21_2 C22_2 1_555 1_555
C22_2 C17_2 1_555 1_555
H20_2 C18_2 1_555 1_555
Zr5 O6_2 1_555 1_555
Zr6_2 O14_5 1_555 1_555
As3_2 O35_2 1_555 1_555
O27_2 Zr5 1_555 1_555
O28 Zr5 1_555 1_555
O41 C35_2 1_555 1_555
O30_2 Zr6_2 1_555 1_555
O44 C35_2 1_555 1_555
O32_2 Zr3_2 1_555 1_555
O33_2 Zr3_2 1_555 1_555
O34_2 Zr2_2 1_555 1_555
O35_2 H51_2 1_555 1_555
O36_2 Zr6_2 1_555 1_555
O37 Zr5 1_555 1_555
O38_2 As3_2 1_555 1_555
N3 C29_2 1_555 1_555
C29_2 C30_2 1_555 1_555
C30_2 C36_2 1_555 1_555
C31_2 C32_2 1_555 1_555
C32_2 C34_2 1_555 1_555
C33_2 O27_2 1_555 1_555
C34_2 C29_2 1_555 1_555
C35_2 C36_2 1_555 1_555
C36_2 C31_2 1_555 1_555
C37 N3 1_555 1_555
C38_2 C39 1_555 1_555
C39 C40 1_555 1_555
C40 C41 1_555 1_555
C41 C42 1_555 1_555
C42 C37 1_555 1_555
H35_2 C30_2 1_555 1_555
H37_2 C32_2 1_555 1_555
H38 C37 1_555 1_555
H39 C37 1_555 1_555
H40_2 C38_2 1_555 1_555
H41_2 C38_2 1_555 1_555
H42_2 C38_2 1_555 1_555
H43 C39 1_555 1_555
H44 C39 1_555 1_555
H45 C40 1_555 1_555
H46 C40 1_555 1_555
H47 C41 1_555 1_555
H48 C41 1_555 1_555
H49 C42 1_555 1_555
H50 C42 1_555 1_555
O39_2 Zr4_2 1_555 1_555
O40_2 Zr6_2 1_555 1_555
O41_2 Zr2_2 1_555 1_555
O42_2 Zr6_2 1_555 1_555
O43_2 Zr2_2 1_555 1_555
O44_2 Zr4_2 1_555 1_555
Zr2_2 O7_2 1_555 1_555
Zr2_2 O8_2 1_555 1_555
As1_2 O10_2 1_555 1_555
As1_2 O11_2 1_555 1_555
O7_2 Zr5 1_555 1_555
O13_4 Zr5 1_555 1_555
O14_5 Zr4_2 1_555 1_555
Zr3_2 O21_2 1_555 1_555
Zr4_2 O21_2 1_555 1_555
Zr4_2 O22_2 1_555 1_555
As2_2 O24_2 1_555 1_555
As2_2 O25_2 1_555 1_555
O20_2 C19_2 1_555 1_555
O22_2 Zr6_2 1_555 1_555
C19_2 C20_2 1_555 1_555
Zr5 O33_2 1_555 1_555
Zr5 O34_2 1_555 1_555
Zr6_2 O33_2 1_555 1_555
Zr6_2 O34_2 1_555 1_555
As3_2 O36_2 1_555 1_555
As3_2 O37 1_555 1_555
O32_2 C33_2 1_555 1_555
C33_2 C34_2 1_555 1_555
N3 H62 1_555 1_555
O23_2 H34_2 1_555 1_555
C24_2 C25_2 1_555 1_555
C25_2 C26_2 1_555 1_555
C26_2 C27_2 1_555 1_555
C27_2 C28_2 1_555 1_555
C28_2 C23_2 1_555 1_555
H22_2 C23_2 1_555 1_555
H23_2 C24_2 1_555 1_555
H24_2 C24_2 1_555 1_555
H25_2 C24_2 1_555 1_555
H26_2 C25_2 1_555 1_555
H27_2 C25_2 1_555 1_555
H28_2 C26_2 1_555 1_555
H29_2 C26_2 1_555 1_555
H30_2 C27_2 1_555 1_555
H31_2 C27_2 1_555 1_555
H32_2 C28_2 1_555 1_555
O39_2 C7_3 1_555 1_555
O42_2 C7_3 1_555 1_555
O9_3 H17_3 1_555 1_555
C2_3 C8_3 1_555 1_555
C7_3 C8_3 1_555 1_555
C8_3 C3_3 1_555 1_555
H1_3 C2_3 1_555 1_555
H2_3 C3_3 1_555 1_555
C38_3 C39_2 1_555 1_555
C39_2 C40_2 1_555 1_555
H40_3 C38_3 1_555 1_555
H41_3 C38_3 1_555 1_555
H42_3 C38_3 1_555 1_555
H43_2 C39_2 1_555 1_555
H44_2 C39_2 1_555 1_555
H45_2 C40_2 1_555 1_555
H46_2 C40_2 1_555 1_555
Zr1_3 O1_3 1_555 1_555
Zr8 O4_3 1_555 1_555
O1_3 C5_3 1_555 1_555
O2_3 Zr1_3 1_555 1_555
O6_3 C5_3 1_555 1_555
O7_3 Zr1_3 1_555 1_555
O8_3 Zr1_3 1_555 1_555
O10_3 Zr8 1_555 1_555
O11_3 Zr1_3 1_555 1_555
O12_3 As1_3 1_555 1_555
O13_5 Zr1_3 1_555 1_555
O14_6 Zr8 1_555 1_555
N1_3 C1_3 1_555 1_555
C4_3 C6_3 1_555 1_555
C5_3 C6_3 1_555 1_555
C6_3 C1_3 1_555 1_555
C9_3 N1_3 1_555 1_555
C10_3 C11_3 1_555 1_555
C11_3 C12_3 1_555 1_555
C12_3 C13_3 1_555 1_555
C13_3 C14_3 1_555 1_555
C14_3 C9_3 1_555 1_555
H3_2 C4_3 1_555 1_555
H4_3 C9_3 1_555 1_555
H6_3 C10_3 1_555 1_555
H7_3 C10_3 1_555 1_555
H8_3 C10_3 1_555 1_555
H9_3 C11_3 1_555 1_555
H10_3 C11_3 1_555 1_555
H11_3 C12_3 1_555 1_555
H12_3 C12_3 1_555 1_555
H13_3 C13_3 1_555 1_555
H14_3 C13_3 1_555 1_555
H15_3 C14_3 1_555 1_555
H16_3 C14_3 1_555 1_555
Zr3_3 O13_5 1_555 1_555
Zr10 O8_3 1_555 1_555
As2_3 O23_3 1_555 1_555
O15_3 Zr3_3 1_555 1_555
O16_3 Zr3_3 1_555 1_555
O40_2 C21_3 1_555 1_555
O18_3 Zr10 1_555 1_555
O43_2 C21_3 1_555 1_555
O20_3 Zr1_3 1_555 1_555
O21_3 Zr1_3 1_555 1_555
O22_3 Zr3_3 1_555 1_555
O23_3 H34_3 1_555 1_555
O24_3 Zr10 1_555 1_555
O25_3 Zr3_3 1_555 1_555
O26_3 As2_3 1_555 1_555
N2_3 C15_3 1_555 1_555
C15_3 C16_3 1_555 1_555
C16_3 C22_3 1_555 1_555
C17_3 C18_3 1_555 1_555
C18_3 C20_3 1_555 1_555
C19_3 O15_3 1_555 1_555
C20_3 C15_3 1_555 1_555
C21_3 C22_3 1_555 1_555
C22_3 C17_3 1_555 1_555
C23_3 N2_3 1_555 1_555
C27_3 C28_3 1_555 1_555
C28_3 C23_3 1_555 1_555
H18_3 C16_3 1_555 1_555
H19_3 C17_3 1_555 1_555
H20_3 C18_3 1_555 1_555
H21_3 C23_3 1_555 1_555
H22_3 C23_3 1_555 1_555
H30_3 C27_3 1_555 1_555
H31_3 C27_3 1_555 1_555
H32_3 C28_3 1_555 1_555
H33_3 C28_3 1_555 1_555
Zr5_2 O6_3 1_555 1_555
Zr12 O14_6 1_555 1_555
O27_3 Zr5_2 1_555 1_555
O28_2 Zr5_2 1_555 1_555
O30_3 Zr12 1_555 1_555
O32_3 Zr3_3 1_555 1_555
O33_3 Zr3_3 1_555 1_555
O34_3 Zr8 1_555 1_555
O36_3 Zr12 1_555 1_555
O37_2 Zr5_2 1_555 1_555
O38_3 As3_3 1_555 1_555
N3_2 C29_3 1_555 1_555
C32_3 C34_3 1_555 1_555
C33_3 O27_3 1_555 1_555
C34_3 C29_3 1_555 1_555
C37_2 N3_2 1_555 1_555
C41_2 C42_2 1_555 1_555
C42_2 C37_2 1_555 1_555
H37_3 C32_3 1_555 1_555
H38_2 C37_2 1_555 1_555
H47_2 C41_2 1_555 1_555
H48_2 C41_2 1_555 1_555
H49_2 C42_2 1_555 1_555
H50_2 C42_2 1_555 1_555
Zr8 O7_3 1_555 1_555
Zr8 O8_3 1_555 1_555
As1_3 O10_3 1_555 1_555
As1_3 O11_3 1_555 1_555
O7_3 Zr5_2 1_555 1_555
O13_5 Zr5_2 1_555 1_555
O14_6 Zr10 1_555 1_555
Zr3_3 O21_3 1_555 1_555
Zr10 O21_3 1_555 1_555
Zr10 O22_3 1_555 1_555
As2_3 O24_3 1_555 1_555
As2_3 O25_3 1_555 1_555
O20_3 C19_3 1_555 1_555
O22_3 Zr12 1_555 1_555
C19_3 C20_3 1_555 1_555
Zr5_2 O33_3 1_555 1_555
Zr5_2 O34_3 1_555 1_555
Zr12 O33_3 1_555 1_555
Zr12 O34_3 1_555 1_555
As3_3 O36_3 1_555 1_555
As3_3 O37_2 1_555 1_555
O32_3 C33_3 1_555 1_555
C33_3 C34_3 1_555 1_555
N1_3 H60_3 1_555 1_555
N2_3 H61_3 1_555 1_555
N3_2 H62_2 1_555 1_555
C24_3 C25_3 1_555 1_555
C25_3 C26_3 1_555 1_555
H23_3 C24_3 1_555 1_555
H24_3 C24_3 1_555 1_555
H25_3 C24_3 1_555 1_555
H26_3 C25_3 1_555 1_555
H27_3 C25_3 1_555 1_555
H28_3 C26_3 1_555 1_555
H29_3 C26_3 1_555 1_555
O41_2 C35_3 1_555 1_555
O44_2 C35_3 1_555 1_555
O35_3 H51_3 1_555 1_555
C30_3 C36_3 1_555 1_555
C35_3 C36_3 1_555 1_555
C36_3 C31_3 1_555 1_555
H35_3 C30_3 1_555 1_555
H36_3 C31_3 1_555 1_555
O28_3 Zr5_3 1_555 1_555
O37_3 Zr5_3 1_555 1_555
C37_3 N3_3 1_555 1_555
C39_3 C40_3 1_555 1_555
C40_3 C41_3 1_555 1_555
C41_3 C42_3 1_555 1_555
C42_3 C37_3 1_555 1_555
H38_3 C37_3 1_555 1_555
H39_3 C37_3 1_555 1_555
H43_3 C39_3 1_555 1_555
H44_3 C39_3 1_555 1_555
H45_3 C40_3 1_555 1_555
H46_3 C40_3 1_555 1_555
H47_3 C41_3 1_555 1_555
H48_3 C41_3 1_555 1_555
H49_3 C42_3 1_555 1_555
H50_3 C42_3 1_555 1_555
O13_6 Zr5_3 1_555 1_555
N3_3 H62_3 1_555 1_555

#END
