
###############################################################################
#
# This file contains modified crystal structure data generated from the
# MOF subset of the Cambridge Structural Database (CSD) v543 
# hosted by the Cambridge Crystallographic Data Centre (CCDC).
#
# This work is licensed under the Creative Commons
# Attribution-NonCommercial-ShareAlike 4.0 International License.
# To view a copy of this license, visit
# http://creativecommons.org/licenses/by-nc-sa/4.0/
# or send a letter to
# Creative Commons, PO Box 1866, Mountain View, CA 94042, USA.
#
# CIF created using the CSD Python API on 29 September 2022
# The structure has been converted into the P1 space group
# The structure has a 3D framework
# The original CSD entry JEGSAT is in the rhombohedral crystal system
# The original CSD entry JEGSAT is in a Sohncke space group
# The framework has been calculated to contain at least 10.0% void space
# The void calculation uses a probe of radius 1.32A, grid spacing 0.4
# H atom positions have been added when not included in the experimental data
# Generated hydrogen atom positions removed from atoms on special positions
#
###############################################################################

data_JEGSAT
_chemical_formula_moiety         '(C126 H360 N9 O102 Zr18)n'
_symmetry_cell_setting           triclinic
_symmetry_space_group_name_H-M   'P 1'
_symmetry_Int_Tables_number      1
_space_group_name_Hall           'P 1'
loop_
_symmetry_equiv_pos_site_id
_symmetry_equiv_pos_as_xyz
1 x,y,z
_cell_length_a                   14.653(7)
_cell_length_b                   14.653(7)
_cell_length_c                   35.912(17)
_cell_angle_alpha                90
_cell_angle_beta                 90
_cell_angle_gamma                120
_cell_volume                     6677.64
loop_
_atom_site_label
_atom_site_type_symbol
_atom_site_fract_x
_atom_site_fract_y
_atom_site_fract_z
Zr1 Zr 0.08090 0.16160 0.04010
O1 O 0.18110 0.16970 0.09020
O2 O 0.05280 0.29790 0.02610
O3 O 0.16150 0.08080 0.02000
O5 O 0.23341 0.31198 0.02371
O6 O 0.00000 0.00000 0.06030
C1 C 0.20670 0.10330 0.10360
C2 C 0.27630 0.13820 0.13810
C3 C 0.30550 0.23740 0.15190
C4 C 0.30550 0.06800 0.15190
N1 N 0.27330 0.30540 0.13530
C5 C 0.36660 0.26800 0.18430
C6 C 0.36660 0.09860 0.18430
C7 C 0.27360 0.33830 0.09710
C8 C 0.39580 0.19780 0.19800
H2 H 0.38963 0.34689 0.19793
H3 H 0.38967 0.04280 0.19795
C9 C 0.17520 0.35020 0.09720
H4 H 0.26390 0.27442 0.07671
H5 H 0.34989 0.41518 0.09149
C10 C 0.46540 0.23270 0.23260
C11 C 0.14710 0.43100 0.11200
H6 H 0.14905 0.33870 0.06685
H7 H 0.12168 0.27036 0.11066
C12 C 0.14750 0.51310 0.08550
H8 H 0.06539 0.38573 0.12507
H9 H 0.20620 0.47271 0.13538
C13 C 0.11620 0.57860 0.11030
H10 H 0.22973 0.56508 0.07350
H11 H 0.08745 0.47511 0.06212
H12 H 0.13913 0.57536 0.14039
H13 H 0.15719 0.66393 0.10038
O14 O 0.18110 0.01140 0.09020
H17 H 0.01095 0.29332 0.13830
O33 O 0.49100 0.32459 0.24590
O34 O 0.49101 0.16640 0.24590
Zr7 Zr 0.58577 0.41411 0.29323
Zr8 Zr 0.58589 0.17165 0.29323
C42 C 0.53470 0.00370 0.10750
H46 H 0.48789 0.04446 0.11449
H47 H 0.56704 0.02545 0.07798
H48 H 0.60285 0.03021 0.12795
H57 H 0.244533 0.336968 0.153846
H58 H 0.298428 0.00657403 0.0413101
O4 O 0.08080 0.16150 0.98000
Zr2 Zr 0.16168 0.08090 0.95990
O8 O 0.00000 0.00000 0.93970
O9 O 0.16693 0.17567 0.91257
O10 O 0.29032 0.24707 0.95623
O11 O 0.30525 0.07727 0.98361
O24 O 0.00873 0.17566 0.91257
H54 H 0.222751 0.338958 0.999697
O8_2 O -0.00000 1.00000 0.93970
O12 O 0.16693 0.99127 0.91257
O18 O 0.08070 0.91920 0.98000
O31 O 0.00874 0.83307 0.91257
H74 H 0.0255116 0.732182 0.968506
O6_2 O 1.00000 0.00000 0.06030
O7 O 0.98860 0.16970 0.09020
C14 C 0.99630 0.53100 0.10750
H14 H 0.95554 0.44343 0.11449
H15 H 0.97455 0.54159 0.07798
H16 H 0.96979 0.57264 0.12795
O13 O 0.91920 0.08070 0.02000
C15 C 0.89670 0.10340 0.10360
O25 O 0.83030 0.01140 0.09020
C16 C 0.86180 0.13810 0.13810
C18 C 0.76260 0.06810 0.15190
C19 C 0.93200 0.23750 0.15190
C21 C 0.73200 0.09860 0.18430
C22 C 0.90140 0.26800 0.18430
C26 C 0.80220 0.19800 0.19800
H18 H 0.65311 0.04274 0.19793
H19 H 0.95720 0.34687 0.19795
C30 C 0.76730 0.23270 0.23260
O35 O 0.67541 0.16640 0.24590
O36 O 0.83360 0.32460 0.24590
Zr10 Zr 0.82835 0.41423 0.29323
O8_3 O 1.00000 0.00000 0.93970
Zr4 Zr 0.91910 0.08078 0.95990
O22 O 0.75293 0.04325 0.95623
O23 O 0.92273 0.22798 0.98361
O6_3 O 1.00000 1.00000 0.06030
Zr5 Zr 0.83840 0.91930 0.04010
O15 O 0.98860 0.81890 0.09020
O17 O 0.91930 0.83850 0.02000
O26 O 0.70210 0.75490 0.02610
O27 O 0.68802 0.92143 0.02371
O28 O 0.83030 0.81890 0.09020
C17 C 0.89660 0.79330 0.10360
C20 C 0.86190 0.72370 0.13810
N2 N 0.69460 0.96790 0.13530
C23 C 0.93190 0.69450 0.15190
C24 C 0.76250 0.69450 0.15190
C25 C 0.66170 0.93530 0.09710
C27 C 0.90140 0.63340 0.18430
C28 C 0.73200 0.63340 0.18430
H20 H 0.70668 0.71763 0.13830
C29 C 0.64980 0.82500 0.09720
H21 H 0.72558 0.98948 0.07671
H22 H 0.58482 0.93471 0.09149
C32 C 0.80200 0.60420 0.19800
H23 H 0.95726 0.61037 0.19793
H24 H 0.65313 0.61033 0.19795
C33 C 0.56900 0.71610 0.11200
H25 H 0.66130 0.81035 0.06685
H26 H 0.72964 0.85132 0.11066
C35 C 0.76730 0.53460 0.23260
C36 C 0.48690 0.63440 0.08550
H29 H 0.61427 0.67966 0.12507
H30 H 0.52729 0.73349 0.13538
O37 O 0.83360 0.50900 0.24590
O38 O 0.67540 0.50899 0.24590
C38 C 0.42140 0.53760 0.11030
H33 H 0.43492 0.66465 0.07350
H34 H 0.52489 0.61234 0.06212
C40 C 0.46900 0.46530 0.10750
H37 H 0.42464 0.56377 0.14039
H38 H 0.33607 0.49326 0.10038
H41 H 0.55657 0.51211 0.11449
H42 H 0.45841 0.43296 0.07798
H43 H 0.42736 0.39715 0.12795
H70 H 0.663032 0.907565 0.153846
O8_4 O 1.00000 1.00000 0.93970
O20 O 0.83850 0.91930 0.98000
O21 O 0.82433 0.99126 0.91257
Zr6 Zr 0.91922 0.83832 0.95990
O29 O 0.95675 0.70968 0.95623
O30 O 0.77202 0.69475 0.98361
O32 O 0.82434 0.83307 0.91257
H72 H 0.715118 0.986809 0.937482
H72_2 H 0.0131912 0.728309 0.937482
H58_2 H 0.993426 0.291854 0.0413101
H54_2 H 0.661042 0.883793 0.999697
H54_3 H 0.116207 0.777249 0.999697
H74_2 H 0.706671 0.974488 0.968506
C7_2 C 0.60693 0.00497 0.76377
H2_2 H 0.72296 0.01356 0.86460
C9_2 C 0.50853 0.01687 0.76387
H5_2 H 0.68322 0.08185 0.75816
C11_2 C 0.48043 0.09767 0.77867
H6_2 H 0.48238 0.00537 0.73352
C12_2 C 0.48083 0.17977 0.75217
H8_2 H 0.39872 0.05240 0.79174
H9_2 H 0.53953 0.13938 0.80205
C13_2 C 0.44953 0.24527 0.77697
H10_2 H 0.56306 0.23175 0.74017
H11_2 H 0.42078 0.14178 0.72879
C14_2 C 0.32963 0.19767 0.77417
H12_2 H 0.47246 0.24203 0.80706
H13_2 H 0.49052 0.33060 0.76705
H14_2 H 0.28887 0.11010 0.78116
H15_2 H 0.30788 0.20826 0.74465
H16_2 H 0.30312 0.23931 0.79462
H19_2 H 0.29053 0.01354 0.86462
H51 H 0.454744 0.0292614 0.687967
H54_4 H 0.556084 0.00562478 0.666364
H57_2 H 0.577867 0.00363516 0.820513
Zr1_2 Zr 0.41423 0.82827 0.70677
O1_2 O 0.51443 0.83637 0.75687
O2_2 O 0.38613 0.96457 0.69277
O3_2 O 0.49483 0.74747 0.68667
O4_2 O 0.41413 0.82817 0.64667
O5_2 O 0.56674 0.97865 0.69038
O6_4 O 0.33333 0.66667 0.72697
O7_2 O 0.32193 0.83637 0.75687
C1_2 C 0.54003 0.76997 0.77027
Zr2_2 Zr 0.49501 0.74757 0.62657
C2_2 C 0.60963 0.80487 0.80477
O8_5 O 0.33333 0.66667 0.60637
O9_2 O 0.50026 0.84234 0.57924
O10_2 O 0.62365 0.91374 0.62290
O11_2 O 0.63858 0.74394 0.65028
O12_2 O 0.50026 0.65794 0.57924
C3_2 C 0.63883 0.90407 0.81857
C4_2 C 0.63883 0.73467 0.81857
N1_2 N 0.60663 0.97207 0.80197
C5_2 C 0.69993 0.93467 0.85097
C6_2 C 0.69993 0.76527 0.85097
H1 H 0.61570 0.65572 0.80497
C8_2 C 0.72913 0.86447 0.86467
H3_2 H 0.72300 0.70947 0.86462
H4_2 H 0.59723 0.94109 0.74338
C10_2 C 0.79873 0.89937 0.89927
H7_2 H 0.45501 0.93703 0.77733
O13_2 O 0.25253 0.74737 0.68667
Zr3 Zr 0.41403 0.58577 0.70677
Zr4_2 Zr 0.25243 0.74745 0.62657
Zr5_2 Zr 0.17173 0.58597 0.70677
C15_2 C 0.23003 0.77007 0.77027
O14_2 O 0.51443 0.67807 0.75687
O15_2 O 0.32193 0.48557 0.75687
O16 O 0.57843 0.61387 0.69277
O17_2 O 0.25263 0.50517 0.68667
O18_2 O 0.41403 0.58587 0.64667
O19 O 0.41190 0.43326 0.69038
O20_2 O 0.17183 0.58597 0.64667
O21_2 O 0.15766 0.65793 0.57924
O22_2 O 0.08626 0.70992 0.62290
O23_2 O 0.25606 0.89465 0.65028
O24_2 O 0.34206 0.84233 0.57924
O25_2 O 0.16363 0.67807 0.75687
O26_2 O 0.03543 0.42157 0.69277
O27_2 O 0.02135 0.58810 0.69038
O28_2 O 0.16363 0.48557 0.75687
C16_2 C 0.19513 0.80477 0.80477
C17_2 C 0.22993 0.45997 0.77027
Zr6_2 Zr 0.25255 0.50499 0.62657
C18_2 C 0.09593 0.73477 0.81857
C19_2 C 0.26533 0.90417 0.81857
C20_2 C 0.19523 0.39037 0.80477
O29_2 O 0.29008 0.37635 0.62290
O30_2 O 0.10535 0.36142 0.65028
O31_2 O 0.34207 0.49974 0.57924
O32_2 O 0.15767 0.49974 0.57924
N2_2 N 0.02793 0.63457 0.80197
C21_2 C 0.06533 0.76527 0.85097
C22_2 C 0.23473 0.93467 0.85097
H17_2 H 0.34428 0.95999 0.80497
C23_2 C 0.26523 0.36117 0.81857
C24_2 C 0.09583 0.36117 0.81857
C26_2 C 0.13553 0.86467 0.86467
N3 N 0.36543 0.39337 0.80197
C27_2 C 0.23473 0.30007 0.85097
C28_2 C 0.06533 0.30007 0.85097
H20_2 H 0.04001 0.38430 0.80497
H21_2 H 0.05891 0.65615 0.74338
C30_2 C 0.10063 0.89937 0.89927
C31 C 0.39803 0.39307 0.76377
C32_2 C 0.13533 0.27087 0.86467
H23_2 H 0.29059 0.27704 0.86460
H26_2 H 0.06297 0.51799 0.77733
C34 C 0.50833 0.49147 0.76387
H27 H 0.34385 0.40277 0.74338
H28 H 0.39862 0.31678 0.75816
C35_2 C 0.10063 0.20127 0.89927
C37 C 0.61723 0.51957 0.77867
H31 H 0.52298 0.51762 0.73352
H32 H 0.48201 0.54499 0.77733
C39 C 0.69893 0.51917 0.75217
H35 H 0.65367 0.60128 0.79174
H36 H 0.59984 0.46047 0.80205
C41 C 0.79573 0.55047 0.77697
H39 H 0.66868 0.43694 0.74017
H40 H 0.72099 0.57922 0.72879
C42_2 C 0.86803 0.67037 0.77417
H44 H 0.76956 0.52754 0.80706
H45 H 0.84007 0.50948 0.76705
H46_2 H 0.82122 0.71113 0.78116
H47_2 H 0.90037 0.69212 0.74465
H48_2 H 0.93618 0.69688 0.79462
H73 H 0.425768 0.422133 0.820513
C25_2 C 0.99503 0.60197 0.76377
H18_2 H 0.98644 0.70941 0.86460
C29_2 C 0.98313 0.49167 0.76387
H22_2 H 0.91815 0.60138 0.75816
H24_2 H 0.98646 0.27700 0.86462
C33_2 C 0.90233 0.38277 0.77867
H25_2 H 0.99463 0.47702 0.73352
C36_2 C 0.82023 0.30107 0.75217
H29_2 H 0.94760 0.34633 0.79174
H30_2 H 0.86062 0.40016 0.80205
C38_2 C 0.75473 0.20427 0.77697
H33_2 H 0.76825 0.33132 0.74017
H34_2 H 0.85822 0.27901 0.72879
C40_2 C 0.80233 0.13197 0.77417
H37_2 H 0.75797 0.23044 0.80706
H38_2 H 0.66940 0.15993 0.76705
H41_2 H 0.88990 0.17878 0.78116
H42_2 H 0.79174 0.09963 0.74465
H43_2 H 0.76069 0.06382 0.79462
H63 H 0.966801 0.516586 0.682178
H69 H 0.974124 0.427077 0.683964
H70_2 H 0.996365 0.574232 0.820513
H59 H 0.450816 0.0325368 0.698319
H64 H 0.556413 0.0403929 0.692801
H51_2 H 0.970739 0.425482 0.687967
H54_5 H 0.994375 0.550459 0.666364
H63_2 H 0.549784 0.0331986 0.682178
H69_2 H 0.452953 0.025876 0.683964
H59_2 H 0.967463 0.418279 0.698319
H64_2 H 0.959607 0.51602 0.692801
C5_3 C 0.03327 0.60133 0.51763
C6_3 C 0.03327 0.43193 0.51763
C8_3 C 0.06247 0.53113 0.53133
H2_3 H 0.05630 0.68022 0.53126
H3_3 H 0.05634 0.37613 0.53128
H5_3 H 0.01656 0.74851 0.42482
C10_3 C 0.13207 0.56603 0.56593
C39_2 C 0.03227 0.18583 0.41883
C41_2 C 0.12907 0.21713 0.44363
H39_2 H 0.00202 0.10360 0.40683
H40_2 H 0.05433 0.24588 0.39545
C42_3 C 0.20137 0.33703 0.44083
H44_2 H 0.10290 0.19420 0.47372
H45_2 H 0.17341 0.17614 0.43371
H46_3 H 0.15456 0.37779 0.44782
H47_3 H 0.23371 0.35878 0.41131
H48_3 H 0.26952 0.36354 0.46128
H50 H 0.0160583 0.409536 0.296155
H55 H 0.0209193 0.588046 0.302042
Zr1_3 Zr 0.74757 0.49493 0.37343
O1_3 O 0.84777 0.50303 0.42353
O2_3 O 0.71947 0.63123 0.35943
O3_3 O 0.82817 0.41413 0.35333
O4_3 O 0.74747 0.49483 0.31333
O5_3 O 0.90008 0.64531 0.35704
O6_5 O 0.66667 0.33333 0.39363
O7_3 O 0.65527 0.50303 0.42353
C1_3 C 0.87337 0.43663 0.43693
C2_3 C 0.94297 0.47153 0.47143
O8_6 O 0.66667 0.33333 0.27303
O10_3 O 0.95699 0.58040 0.28956
O11_3 O 0.97192 0.41060 0.31694
C3_3 C 0.97217 0.57073 0.48523
C4_3 C 0.97217 0.40133 0.48523
N1_3 N 0.93997 0.63873 0.46863
H1_2 H 0.94904 0.32238 0.47163
C7_3 C 0.94027 0.67163 0.43043
C9_3 C 0.84187 0.68353 0.43053
H4_3 H 0.93057 0.60775 0.41004
C11_3 C 0.81377 0.76433 0.44533
H6_3 H 0.81572 0.67203 0.40018
H7_3 H 0.78835 0.60369 0.44399
C12_3 C 0.81417 0.84643 0.41883
H8_3 H 0.73206 0.71906 0.45840
H9_3 H 0.87287 0.80604 0.46871
C13_3 C 0.78287 0.91193 0.44363
H10_3 H 0.89640 0.89841 0.40683
H11_3 H 0.75412 0.80844 0.39545
C14_3 C 0.66297 0.86433 0.44083
H12_3 H 0.80580 0.90869 0.47372
H13_3 H 0.82386 0.99726 0.43371
H14_3 H 0.62221 0.77676 0.44782
H15_3 H 0.64122 0.87492 0.41131
H16_3 H 0.63646 0.90597 0.46128
O13_3 O 0.58587 0.41403 0.35333
Zr3_2 Zr 0.74737 0.25243 0.37343
Zr5_3 Zr 0.50507 0.25263 0.37343
C15_3 C 0.56337 0.43673 0.43693
O14_3 O 0.84777 0.34473 0.42353
O15_3 O 0.65527 0.15223 0.42353
O16_2 O 0.91177 0.28053 0.35943
O17_3 O 0.58597 0.17183 0.35333
O18_3 O 0.74737 0.25253 0.31333
O19_2 O 0.74524 0.09992 0.35704
O20_3 O 0.50517 0.25263 0.31333
O22_3 O 0.41960 0.37658 0.28956
O23_3 O 0.58940 0.56131 0.31694
O25_3 O 0.49697 0.34473 0.42353
O26_3 O 0.36877 0.08823 0.35943
O27_3 O 0.35469 0.25476 0.35704
O28_3 O 0.49697 0.15223 0.42353
C16_3 C 0.52847 0.47143 0.47143
C17_3 C 0.56327 0.12663 0.43693
C18_3 C 0.42927 0.40143 0.48523
C19_3 C 0.59867 0.57083 0.48523
C20_3 C 0.52857 0.05703 0.47143
O29_3 O 0.62342 0.04301 0.28956
O30_3 O 0.43869 0.02808 0.31694
N2_3 N 0.36127 0.30123 0.46863
C21_3 C 0.39867 0.43193 0.51763
C22_3 C 0.56807 0.60133 0.51763
H17_3 H 0.67762 0.62665 0.47163
C23_3 C 0.59857 0.02783 0.48523
C24_3 C 0.42917 0.02783 0.48523
C25_3 C 0.32837 0.26863 0.43043
C26_3 C 0.46887 0.53133 0.53133
H18_3 H 0.31978 0.37607 0.53126
H19_3 H 0.62387 0.68020 0.53128
N3_2 N 0.69877 0.06003 0.46863
H20_3 H 0.37335 0.05096 0.47163
C29_3 C 0.31647 0.15833 0.43053
H21_3 H 0.39225 0.32281 0.41004
H22_3 H 0.25149 0.26804 0.42482
C30_3 C 0.43397 0.56603 0.56593
C31_2 C 0.73137 0.05973 0.43043
C33_3 C 0.23567 0.04943 0.44533
H25_3 H 0.32797 0.14368 0.40018
H26_3 H 0.39631 0.18465 0.44399
C34_2 C 0.84167 0.15813 0.43053
H27_2 H 0.67719 0.06943 0.41004
H29_3 H 0.28094 0.01299 0.45840
H30_3 H 0.19396 0.06682 0.46871
C37_2 C 0.95057 0.18623 0.44533
H31_2 H 0.85632 0.18428 0.40018
H32_2 H 0.81535 0.21165 0.44399
H35_2 H 0.98701 0.26794 0.45840
H36_2 H 0.93318 0.12713 0.46871
H57_3 H 0.9112 0.670302 0.487179
H70_3 H 0.329698 0.240898 0.487179
H73_2 H 0.759102 0.0887999 0.487179
C27_3 C 0.56807 0.96673 0.51763
C28_3 C 0.39867 0.96673 0.51763
C32_3 C 0.46867 0.93753 0.53133
H23_3 H 0.62393 0.94370 0.53126
H24_3 H 0.31980 0.94366 0.53128
H28_2 H 0.73196 0.98344 0.42482
C35_3 C 0.43397 0.86793 0.56593
C36_3 C 0.15357 0.96773 0.41883
C38_3 C 0.08807 0.87093 0.44363
H33_3 H 0.10159 0.99798 0.40683
H34_3 H 0.19156 0.94567 0.39545
C40_3 C 0.13567 0.79863 0.44083
H37_3 H 0.09131 0.89710 0.47372
H38_3 H 0.00274 0.82659 0.43371
H41_3 H 0.22324 0.84544 0.44782
H42_3 H 0.12508 0.76629 0.41131
H43_3 H 0.09403 0.73048 0.46128
H67 H 0.453458 0.969624 0.320883
H75 H 0.567409 0.97925 0.302213
H67_2 H 0.0303759 0.483834 0.320883
H61 H 0.443977 0.963808 0.313005
H71 H 0.559385 0.976728 0.282006
H61_2 H 0.0361915 0.480169 0.313005
H71_2 H 0.0232722 0.582657 0.282006
H50_2 H 0.393478 0.983942 0.296155
O6_6 O -0.00000 1.00000 0.06030
H1_3 H 0.28237 0.98905 0.13830
Zr3_3 Zr 0.08070 0.91910 0.04010
O16_3 O 0.24510 0.94720 0.02610
O19_3 O 0.07857 0.76659 0.02371
N3_3 N 0.03210 0.72670 0.13530
C31_3 C 0.06470 0.72640 0.09710
C34_3 C 0.17500 0.82480 0.09720
H27_3 H 0.01052 0.73610 0.07671
H28_3 H 0.06529 0.65011 0.09149
C37_3 C 0.28390 0.85290 0.11200
H31_3 H 0.18965 0.85095 0.06685
H32_3 H 0.14868 0.87832 0.11066
C39_3 C 0.36560 0.85250 0.08550
H35_3 H 0.32034 0.93461 0.12507
H36_3 H 0.26651 0.79380 0.13538
C41_3 C 0.46240 0.88380 0.11030
H39_3 H 0.33535 0.77027 0.07350
H40_3 H 0.38766 0.91255 0.06212
H44_3 H 0.43623 0.86087 0.14039
H45_3 H 0.50674 0.84281 0.10038
H73_3 H 0.092435 0.755467 0.153846
loop_
_geom_bond_atom_site_label_1
_geom_bond_atom_site_label_2
_geom_bond_site_symmetry_1
_geom_bond_site_symmetry_2
Zr1 O1 1_555 1_555
O1 C1 1_555 1_555
O2 Zr1 1_555 1_555
O3 Zr1 1_555 1_555
O5 Zr1 1_555 1_555
O6 Zr1 1_555 1_555
C1 C2 1_555 1_555
C2 C3 1_555 1_555
C3 N1 1_555 1_555
C4 C2 1_555 1_555
N1 C7 1_555 1_555
C5 C3 1_555 1_555
C6 C4 1_555 1_555
C7 C9 1_555 1_555
C8 C5 1_555 1_555
H2 C5 1_555 1_555
H3 C6 1_555 1_555
C9 C11 1_555 1_555
H4 C7 1_555 1_555
H5 C7 1_555 1_555
C10 C8 1_555 1_555
C11 C12 1_555 1_555
H6 C9 1_555 1_555
H7 C9 1_555 1_555
C12 C13 1_555 1_555
H8 C11 1_555 1_555
H9 C11 1_555 1_555
H10 C12 1_555 1_555
H11 C12 1_555 1_555
H12 C13 1_555 1_555
H13 C13 1_555 1_555
O14 C1 1_555 1_555
O33 C10 1_555 1_555
O34 C10 1_555 1_555
Zr7 O33 1_555 1_555
Zr8 O34 1_555 1_555
H46 C42 1_555 1_555
H47 C42 1_555 1_555
H48 C42 1_555 1_555
C6 C8 1_555 1_555
N1 H57 1_555 1_555
O8 Zr2 1_555 1_555
O9 Zr2 1_555 1_555
O10 Zr2 1_555 1_555
O11 Zr2 1_555 1_555
O4 Zr2 1_555 1_555
C14 H14 1_555 1_555
H15 C14 1_555 1_555
H16 C14 1_555 1_555
C15 O7 1_555 1_555
C16 C15 1_555 1_555
C18 C16 1_555 1_555
C19 C16 1_555 1_555
C21 C18 1_555 1_555
C22 C19 1_555 1_555
C26 C21 1_555 1_555
H18 C21 1_555 1_555
H19 C22 1_555 1_555
C30 C26 1_555 1_555
O35 C30 1_555 1_555
O36 C30 1_555 1_555
Zr8 O35 1_555 1_555
Zr10 O36 1_555 1_555
C15 O25 1_555 1_555
C22 C26 1_555 1_555
O22 Zr4 1_555 1_555
O23 Zr4 1_555 1_555
O8_3 Zr4 1_555 1_555
Zr5 O6_3 1_555 1_555
O26 Zr5 1_555 1_555
O27 Zr5 1_555 1_555
O28 Zr5 1_555 1_555
C17 O15 1_555 1_555
C20 C17 1_555 1_555
C23 C20 1_555 1_555
C24 C20 1_555 1_555
C25 N2 1_555 1_555
C27 C23 1_555 1_555
C28 C24 1_555 1_555
H20 C24 1_555 1_555
C29 C25 1_555 1_555
H21 C25 1_555 1_555
H22 C25 1_555 1_555
C32 C27 1_555 1_555
H23 C27 1_555 1_555
H24 C28 1_555 1_555
C33 C29 1_555 1_555
H25 C29 1_555 1_555
H26 C29 1_555 1_555
C35 C32 1_555 1_555
C36 C33 1_555 1_555
H29 C33 1_555 1_555
H30 C33 1_555 1_555
O37 C35 1_555 1_555
O38 C35 1_555 1_555
C38 C36 1_555 1_555
H33 C36 1_555 1_555
H34 C36 1_555 1_555
Zr10 O37 1_555 1_555
Zr7 O38 1_555 1_555
C40 C38 1_555 1_555
H37 C38 1_555 1_555
H38 C38 1_555 1_555
H41 C40 1_555 1_555
H42 C40 1_555 1_555
H43 C40 1_555 1_555
Zr5 O17 1_555 1_555
O28 C17 1_555 1_555
C28 C32 1_555 1_555
N2 H70 1_555 1_555
Zr6 O8_4 1_555 1_555
O29 Zr6 1_555 1_555
O30 Zr6 1_555 1_555
O32 Zr6 1_555 1_555
O20 Zr6 1_555 1_555
C7_2 C9_2 1_555 1_555
C9_2 C11_2 1_555 1_555
H5_2 C7_2 1_555 1_555
C11_2 C12_2 1_555 1_555
H6_2 C9_2 1_555 1_555
C12_2 C13_2 1_555 1_555
H8_2 C11_2 1_555 1_555
H9_2 C11_2 1_555 1_555
C13_2 C14_2 1_555 1_555
H10_2 C12_2 1_555 1_555
H11_2 C12_2 1_555 1_555
C14_2 H14_2 1_555 1_555
H12_2 C13_2 1_555 1_555
H13_2 C13_2 1_555 1_555
H15_2 C14_2 1_555 1_555
H16_2 C14_2 1_555 1_555
Zr1_2 O1_2 1_555 1_555
O1_2 C1_2 1_555 1_555
O2_2 Zr1_2 1_555 1_555
O3_2 Zr1_2 1_555 1_555
O4_2 Zr1_2 1_555 1_555
O5_2 Zr1_2 1_555 1_555
O6_4 Zr1_2 1_555 1_555
O7_2 Zr1_2 1_555 1_555
C1_2 C2_2 1_555 1_555
Zr2_2 O3_2 1_555 1_555
C2_2 C3_2 1_555 1_555
O8_5 Zr2_2 1_555 1_555
O9_2 Zr2_2 1_555 1_555
O10_2 Zr2_2 1_555 1_555
O11_2 Zr2_2 1_555 1_555
O12_2 Zr2_2 1_555 1_555
C3_2 N1_2 1_555 1_555
C4_2 C2_2 1_555 1_555
C5_2 C3_2 1_555 1_555
C6_2 C4_2 1_555 1_555
H1 C4_2 1_555 1_555
C8_2 C5_2 1_555 1_555
H3_2 C6_2 1_555 1_555
C10_2 C8_2 1_555 1_555
O13_2 Zr1_2 1_555 1_555
Zr3 O3_2 1_555 1_555
Zr4_2 O4_2 1_555 1_555
Zr5_2 O6_4 1_555 1_555
C15_2 O7_2 1_555 1_555
O14_2 C1_2 1_555 1_555
O15_2 Zr3 1_555 1_555
O16 Zr3 1_555 1_555
O17_2 Zr3 1_555 1_555
O18_2 Zr2_2 1_555 1_555
O19 Zr3 1_555 1_555
O20_2 Zr4_2 1_555 1_555
O21_2 Zr4_2 1_555 1_555
O22_2 Zr4_2 1_555 1_555
O23_2 Zr4_2 1_555 1_555
O24_2 Zr4_2 1_555 1_555
O25_2 Zr5_2 1_555 1_555
O26_2 Zr5_2 1_555 1_555
O27_2 Zr5_2 1_555 1_555
O28_2 Zr5_2 1_555 1_555
C16_2 C15_2 1_555 1_555
C17_2 O15_2 1_555 1_555
Zr6_2 O8_5 1_555 1_555
C18_2 C16_2 1_555 1_555
C19_2 C16_2 1_555 1_555
C20_2 C17_2 1_555 1_555
O29_2 Zr6_2 1_555 1_555
O30_2 Zr6_2 1_555 1_555
O31_2 Zr6_2 1_555 1_555
O32_2 Zr6_2 1_555 1_555
N2_2 C18_2 1_555 1_555
C21_2 C18_2 1_555 1_555
C22_2 C19_2 1_555 1_555
H17_2 C19_2 1_555 1_555
C23_2 C20_2 1_555 1_555
C24_2 C20_2 1_555 1_555
C26_2 C21_2 1_555 1_555
N3 C23_2 1_555 1_555
C27_2 C23_2 1_555 1_555
C28_2 C24_2 1_555 1_555
H20_2 C24_2 1_555 1_555
C30_2 C26_2 1_555 1_555
O21 C10_2 1_555 1_555
O32 C10_2 1_555 1_555
C31 N3 1_555 1_555
C32_2 C27_2 1_555 1_555
H23_2 C27_2 1_555 1_555
O31 C30_2 1_555 1_555
O12 C30_2 1_555 1_555
C34 C31 1_555 1_555
H27 C31 1_555 1_555
H28 C31 1_555 1_555
C35_2 C32_2 1_555 1_555
C37 C34 1_555 1_555
H31 C34 1_555 1_555
H32 C34 1_555 1_555
O9 C35_2 1_555 1_555
O24 C35_2 1_555 1_555
C39 C37 1_555 1_555
H35 C37 1_555 1_555
H36 C37 1_555 1_555
C41 C39 1_555 1_555
H39 C39 1_555 1_555
H40 C39 1_555 1_555
C42_2 C41 1_555 1_555
H44 C41 1_555 1_555
H45 C41 1_555 1_555
H46_2 C42_2 1_555 1_555
H47_2 C42_2 1_555 1_555
H48_2 C42_2 1_555 1_555
O4_2 Zr2_2 1_555 1_555
O6_4 Zr3 1_555 1_555
O8_5 Zr4_2 1_555 1_555
C6_2 C8_2 1_555 1_555
O13_2 Zr4_2 1_555 1_555
O13_2 Zr5_2 1_555 1_555
Zr3 O14_2 1_555 1_555
Zr3 O18_2 1_555 1_555
Zr5_2 O17_2 1_555 1_555
Zr5_2 O20_2 1_555 1_555
C15_2 O25_2 1_555 1_555
O17_2 Zr6_2 1_555 1_555
O18_2 Zr6_2 1_555 1_555
O20_2 Zr6_2 1_555 1_555
O28_2 C17_2 1_555 1_555
C22_2 C26_2 1_555 1_555
C28_2 C32_2 1_555 1_555
N3 H73 1_555 1_555
C29_2 C25_2 1_555 1_555
H22_2 C25_2 1_555 1_555
C33_2 C29_2 1_555 1_555
H25_2 C29_2 1_555 1_555
C36_2 C33_2 1_555 1_555
H29_2 C33_2 1_555 1_555
H30_2 C33_2 1_555 1_555
C38_2 C36_2 1_555 1_555
H33_2 C36_2 1_555 1_555
H34_2 C36_2 1_555 1_555
C40_2 C38_2 1_555 1_555
H37_2 C38_2 1_555 1_555
H38_2 C38_2 1_555 1_555
H41_2 C40_2 1_555 1_555
H42_2 C40_2 1_555 1_555
H43_2 C40_2 1_555 1_555
C8_3 C5_3 1_555 1_555
H2_3 C5_3 1_555 1_555
H3_3 C6_3 1_555 1_555
C10_3 C8_3 1_555 1_555
O21_2 C10_3 1_555 1_555
O32_2 C10_3 1_555 1_555
C41_2 C39_2 1_555 1_555
H39_2 C39_2 1_555 1_555
H40_2 C39_2 1_555 1_555
C42_3 C41_2 1_555 1_555
H44_2 C41_2 1_555 1_555
H45_2 C41_2 1_555 1_555
H46_3 C42_3 1_555 1_555
H47_3 C42_3 1_555 1_555
H48_3 C42_3 1_555 1_555
C6_3 C8_3 1_555 1_555
Zr1_3 O1_3 1_555 1_555
O1_3 C1_3 1_555 1_555
O2_3 Zr1_3 1_555 1_555
O3_3 Zr1_3 1_555 1_555
O4_3 Zr1_3 1_555 1_555
O5_3 Zr1_3 1_555 1_555
O6_5 Zr1_3 1_555 1_555
O7_3 Zr1_3 1_555 1_555
C1_3 C2_3 1_555 1_555
Zr10 O3_3 1_555 1_555
C2_3 C3_3 1_555 1_555
O8_6 Zr10 1_555 1_555
O10_3 Zr10 1_555 1_555
O11_3 Zr10 1_555 1_555
C3_3 N1_3 1_555 1_555
C4_3 C2_3 1_555 1_555
N1_3 C7_3 1_555 1_555
H1_2 C4_3 1_555 1_555
C7_3 C9_3 1_555 1_555
C9_3 C11_3 1_555 1_555
H4_3 C7_3 1_555 1_555
C11_3 C12_3 1_555 1_555
H6_3 C9_3 1_555 1_555
H7_3 C9_3 1_555 1_555
C12_3 C13_3 1_555 1_555
H8_3 C11_3 1_555 1_555
H9_3 C11_3 1_555 1_555
C13_3 C14_3 1_555 1_555
H10_3 C12_3 1_555 1_555
H11_3 C12_3 1_555 1_555
C14_3 H14_3 1_555 1_555
H12_3 C13_3 1_555 1_555
H13_3 C13_3 1_555 1_555
H15_3 C14_3 1_555 1_555
H16_3 C14_3 1_555 1_555
O13_3 Zr1_3 1_555 1_555
Zr3_2 O3_3 1_555 1_555
Zr7 O4_3 1_555 1_555
Zr5_3 O6_5 1_555 1_555
C15_3 O7_3 1_555 1_555
O14_3 C1_3 1_555 1_555
O15_3 Zr3_2 1_555 1_555
O16_2 Zr3_2 1_555 1_555
O17_3 Zr3_2 1_555 1_555
O18_3 Zr10 1_555 1_555
O19_2 Zr3_2 1_555 1_555
O20_3 Zr7 1_555 1_555
O22_3 Zr7 1_555 1_555
O23_3 Zr7 1_555 1_555
O25_3 Zr5_3 1_555 1_555
O26_3 Zr5_3 1_555 1_555
O27_3 Zr5_3 1_555 1_555
O28_3 Zr5_3 1_555 1_555
C16_3 C15_3 1_555 1_555
C17_3 O15_3 1_555 1_555
Zr8 O8_6 1_555 1_555
C18_3 C16_3 1_555 1_555
C19_3 C16_3 1_555 1_555
C20_3 C17_3 1_555 1_555
O29_3 Zr8 1_555 1_555
O30_3 Zr8 1_555 1_555
N2_3 C18_3 1_555 1_555
C21_3 C18_3 1_555 1_555
C22_3 C19_3 1_555 1_555
H17_3 C19_3 1_555 1_555
C23_3 C20_3 1_555 1_555
C24_3 C20_3 1_555 1_555
C25_3 N2_3 1_555 1_555
C26_3 C21_3 1_555 1_555
H18_3 C21_3 1_555 1_555
H19_3 C22_3 1_555 1_555
N3_2 C23_3 1_555 1_555
H20_3 C24_3 1_555 1_555
C29_3 C25_3 1_555 1_555
H21_3 C25_3 1_555 1_555
H22_3 C25_3 1_555 1_555
C30_3 C26_3 1_555 1_555
C31_2 N3_2 1_555 1_555
C33_3 C29_3 1_555 1_555
H25_3 C29_3 1_555 1_555
H26_3 C29_3 1_555 1_555
O31_2 C30_3 1_555 1_555
O12_2 C30_3 1_555 1_555
C34_2 C31_2 1_555 1_555
H27_2 C31_2 1_555 1_555
H29_3 C33_3 1_555 1_555
H30_3 C33_3 1_555 1_555
C37_2 C34_2 1_555 1_555
H31_2 C34_2 1_555 1_555
H32_2 C34_2 1_555 1_555
H35_2 C37_2 1_555 1_555
H36_2 C37_2 1_555 1_555
O4_3 Zr10 1_555 1_555
O6_5 Zr3_2 1_555 1_555
O8_6 Zr7 1_555 1_555
O13_3 Zr7 1_555 1_555
O13_3 Zr5_3 1_555 1_555
Zr3_2 O14_3 1_555 1_555
Zr3_2 O18_3 1_555 1_555
Zr5_3 O17_3 1_555 1_555
Zr5_3 O20_3 1_555 1_555
C15_3 O25_3 1_555 1_555
O17_3 Zr8 1_555 1_555
O18_3 Zr8 1_555 1_555
O20_3 Zr8 1_555 1_555
O28_3 C17_3 1_555 1_555
C22_3 C26_3 1_555 1_555
N1_3 H57_3 1_555 1_555
N2_3 H70_3 1_555 1_555
N3_2 H73_2 1_555 1_555
C32_3 C27_3 1_555 1_555
H23_3 C27_3 1_555 1_555
H24_3 C28_3 1_555 1_555
C35_3 C32_3 1_555 1_555
O9_2 C35_3 1_555 1_555
O24_2 C35_3 1_555 1_555
C38_3 C36_3 1_555 1_555
H33_3 C36_3 1_555 1_555
H34_3 C36_3 1_555 1_555
C40_3 C38_3 1_555 1_555
H37_3 C38_3 1_555 1_555
H38_3 C38_3 1_555 1_555
H41_3 C40_3 1_555 1_555
H42_3 C40_3 1_555 1_555
H43_3 C40_3 1_555 1_555
C28_3 C32_3 1_555 1_555
O16_3 Zr3_3 1_555 1_555
O19_3 Zr3_3 1_555 1_555
C31_3 N3_3 1_555 1_555
C34_3 C31_3 1_555 1_555
H27_3 C31_3 1_555 1_555
H28_3 C31_3 1_555 1_555
C37_3 C34_3 1_555 1_555
H31_3 C34_3 1_555 1_555
H32_3 C34_3 1_555 1_555
C39_3 C37_3 1_555 1_555
H35_3 C37_3 1_555 1_555
H36_3 C37_3 1_555 1_555
C41_3 C39_3 1_555 1_555
H39_3 C39_3 1_555 1_555
H40_3 C39_3 1_555 1_555
H44_3 C41_3 1_555 1_555
H45_3 C41_3 1_555 1_555
O6_6 Zr3_3 1_555 1_555
N3_3 H73_3 1_555 1_555

#END
