
###############################################################################
#
# This file contains modified crystal structure data generated from the
# MOF subset of the Cambridge Structural Database (CSD) v543 
# hosted by the Cambridge Crystallographic Data Centre (CCDC).
#
# This work is licensed under the Creative Commons
# Attribution-NonCommercial-ShareAlike 4.0 International License.
# To view a copy of this license, visit
# http://creativecommons.org/licenses/by-nc-sa/4.0/
# or send a letter to
# Creative Commons, PO Box 1866, Mountain View, CA 94042, USA.
#
# CIF created using the CSD Python API on 29 September 2022
# The structure has been converted into the P1 space group
# The structure has a 3D framework
# The original CSD entry JEGTEY is in the rhombohedral crystal system
# The original CSD entry JEGTEY is in a Sohncke space group
# The framework has been calculated to contain at least 10.0% void space
# The void calculation uses a probe of radius 1.32A, grid spacing 0.4
# H atom positions have been added when not included in the experimental data
# Generated hydrogen atom positions removed from atoms on special positions
#
###############################################################################

data_JEGTEY
_chemical_formula_moiety         '(C126 H333 As9 N9 O120 Zr18)n'
_symmetry_cell_setting           triclinic
_symmetry_space_group_name_H-M   'P 1'
_symmetry_Int_Tables_number      1
_space_group_name_Hall           'P 1'
loop_
_symmetry_equiv_pos_site_id
_symmetry_equiv_pos_as_xyz
1 x,y,z
_cell_length_a                   14.62(4)
_cell_length_b                   14.62(4)
_cell_length_c                   35.74(10)
_cell_angle_alpha                90
_cell_angle_beta                 90
_cell_angle_gamma                120
_cell_volume                     6615.76
loop_
_atom_site_label
_atom_site_type_symbol
_atom_site_fract_x
_atom_site_fract_y
_atom_site_fract_z
_atom_site_U_iso_or_equiv
_atom_site_thermal_displace_type
Zr1 Zr 0.08090 0.16160 0.04010 0.0500 Uiso
O1 O 0.18110 0.16970 0.09020 0.0500 Uiso
O2 O 0.05280 0.29790 0.02610 0.0500 Uiso
O3 O 0.16150 0.08080 0.02000 0.0500 Uiso
O5 O 0.23341 0.31198 0.02371 0.0500 Uiso
O6 O 0.00000 0.00000 0.06030 0.0500 Uiso
C1 C 0.20670 0.10330 0.10360 0.0500 Uiso
H1 H 0.25511 0.25114 0.03073 0.0500 Uiso
C2 C 0.27630 0.13820 0.13810 0.0500 Uiso
O13 O 0.44956 0.43923 0.00996 0.0500 Uiso
C3 C 0.30550 0.23740 0.15190 0.0500 Uiso
C4 C 0.30550 0.06800 0.15190 0.0500 Uiso
H2 H 0.41965 0.39429 0.03651 0.0500 Uiso
H3 H 0.26197 0.49134 0.02400 0.0500 Uiso
N1 N 0.27330 0.30540 0.13530 0.0500 Uiso
C5 C 0.36660 0.26800 0.18430 0.0500 Uiso
C6 C 0.36660 0.09860 0.18430 0.0500 Uiso
C7 C 0.27360 0.33830 0.09710 0.0500 Uiso
C8 C 0.39580 0.19780 0.19800 0.0500 Uiso
H5 H 0.38977 0.34729 0.19801 0.0600 Uiso
H6 H 0.38981 0.04254 0.19803 0.0600 Uiso
C9 C 0.17520 0.35020 0.09720 0.0500 Uiso
H7 H 0.26387 0.27413 0.07657 0.0500 Uiso
H8 H 0.35026 0.41557 0.09147 0.0500 Uiso
C10 C 0.46540 0.23270 0.23260 0.0500 Uiso
C11 C 0.14710 0.43100 0.11200 0.0500 Uiso
H9 H 0.14889 0.33859 0.06666 0.0500 Uiso
H10 H 0.12144 0.27000 0.11076 0.0500 Uiso
C12 C 0.14750 0.51310 0.08550 0.0500 Uiso
H11 H 0.06499 0.38550 0.12515 0.0500 Uiso
H12 H 0.20647 0.47288 0.13554 0.0500 Uiso
C13 C 0.11620 0.57860 0.11030 0.0500 Uiso
H13 H 0.23013 0.56533 0.07343 0.0500 Uiso
H14 H 0.08718 0.47491 0.06197 0.0500 Uiso
H15 H 0.13926 0.57541 0.14058 0.0500 Uiso
H16 H 0.15738 0.66432 0.10030 0.0500 Uiso
O16 O 0.18110 0.01140 0.09020 0.0500 Uiso
H22 H 0.01135 0.29358 0.13822 0.0600 Uiso
O39 O 0.49100 0.32459 0.24590 0.0500 Uiso
O40 O 0.49101 0.16640 0.24590 0.0500 Uiso
Zr7 Zr 0.58577 0.41412 0.29323 0.0500 Uiso
Zr8 Zr 0.58588 0.17164 0.29323 0.0500 Uiso
C42 C 0.53470 0.00370 0.10750 0.0500 Uiso
H55 H 0.48766 0.04466 0.11454 0.0500 Uiso
H56 H 0.56720 0.02556 0.07780 0.0500 Uiso
H57 H 0.60318 0.03034 0.12808 0.0500 Uiso
H60 H 0.244463 0.336993 0.153952 . .
H65 H 0.298522 0.00667152 0.0414033 . .
O4 O 0.08080 0.16150 0.98000 0.0500 Uiso
Zr2 Zr 0.16169 0.08090 0.95990 0.0500 Uiso
As1 As 0.32419 0.40554 0.99176 0.0500 Uiso
O8 O 0.29033 0.24707 0.95623 0.0500 Uiso
O9 O 0.30526 0.07727 0.98361 0.0500 Uiso
O10 O 0.00000 0.00000 0.93970 0.0500 Uiso
O11 O 0.16693 0.17567 0.91257 0.0500 Uiso
O14 O 0.31331 0.51939 0.99879 0.0500 Uiso
O26 O 0.00873 0.17566 0.91257 0.0500 Uiso
O10_2 O -0.00000 1.00000 0.93970 0.0500 Uiso
O12 O 0.16693 0.99127 0.91257 0.0500 Uiso
O17 O 0.08070 0.91920 0.98000 0.0500 Uiso
As2 As 0.08135 0.67581 0.99176 0.0500 Uiso
O33 O 0.00874 0.83307 0.91257 0.0500 Uiso
O36 O 0.20608 0.68669 0.99879 0.0500 Uiso
H69 H 0.0256156 0.732195 0.968593 . .
O6_2 O 1.00000 0.00000 0.06030 0.0500 Uiso
O7 O 0.98860 0.16970 0.09020 0.0500 Uiso
C14 C 0.99630 0.53100 0.10750 0.0500 Uiso
H17 H 0.95534 0.44300 0.11454 0.0500 Uiso
H18 H 0.97444 0.54164 0.07780 0.0500 Uiso
H19 H 0.96966 0.57284 0.12808 0.0500 Uiso
O15 O 0.91920 0.08070 0.02000 0.0500 Uiso
C15 C 0.89670 0.10340 0.10360 0.0500 Uiso
O27 O 0.83030 0.01140 0.09020 0.0500 Uiso
C16 C 0.86180 0.13810 0.13810 0.0500 Uiso
H21 H 0.74886 0.00397 0.03073 0.0500 Uiso
C18 C 0.76260 0.06810 0.15190 0.0500 Uiso
C19 C 0.93200 0.23750 0.15190 0.0500 Uiso
O37 O 0.56077 0.01033 0.00996 0.0500 Uiso
C21 C 0.73200 0.09860 0.18430 0.0500 Uiso
C22 C 0.90140 0.26800 0.18430 0.0500 Uiso
H25 H 0.60571 0.02536 0.03651 0.0500 Uiso
C26 C 0.80220 0.19800 0.19800 0.0500 Uiso
H27 H 0.65271 0.04248 0.19801 0.0600 Uiso
H28 H 0.95746 0.34727 0.19803 0.0600 Uiso
C30 C 0.76730 0.23270 0.23260 0.0500 Uiso
O41 O 0.67541 0.16640 0.24590 0.0500 Uiso
O42 O 0.83360 0.32460 0.24590 0.0500 Uiso
Zr10 Zr 0.82836 0.41423 0.29323 0.0500 Uiso
O10_3 O 1.00000 0.00000 0.93970 0.0500 Uiso
Zr4 Zr 0.91910 0.08079 0.95990 0.0500 Uiso
O23 O 0.75293 0.04326 0.95623 0.0500 Uiso
O24 O 0.92273 0.22799 0.98361 0.0500 Uiso
O6_3 O 1.00000 1.00000 0.06030 0.0500 Uiso
Zr5 Zr 0.83840 0.91930 0.04010 0.0500 Uiso
O18 O 0.98860 0.81890 0.09020 0.0500 Uiso
O20 O 0.91930 0.83850 0.02000 0.0500 Uiso
O28 O 0.70210 0.75490 0.02610 0.0500 Uiso
O29 O 0.68802 0.92143 0.02371 0.0500 Uiso
O30 O 0.83030 0.81890 0.09020 0.0500 Uiso
C17 C 0.89660 0.79330 0.10360 0.0500 Uiso
H20 H 0.99603 0.74489 0.03073 0.0500 Uiso
C20 C 0.86190 0.72370 0.13810 0.0500 Uiso
O35 O 0.98967 0.55044 0.00996 0.0500 Uiso
N2 N 0.69460 0.96790 0.13530 0.0500 Uiso
C23 C 0.93190 0.69450 0.15190 0.0500 Uiso
C24 C 0.76250 0.69450 0.15190 0.0500 Uiso
H23 H 0.97464 0.58035 0.03651 0.0500 Uiso
H26 H 0.50866 0.77063 0.02400 0.0500 Uiso
C25 C 0.66170 0.93530 0.09710 0.0500 Uiso
C27 C 0.90140 0.63340 0.18430 0.0500 Uiso
C28 C 0.73200 0.63340 0.18430 0.0500 Uiso
H29 H 0.70642 0.71777 0.13822 0.0600 Uiso
C29 C 0.64980 0.82500 0.09720 0.0500 Uiso
H30 H 0.72587 0.98974 0.07657 0.0500 Uiso
H31 H 0.58443 0.93469 0.09147 0.0500 Uiso
C32 C 0.80200 0.60420 0.19800 0.0500 Uiso
H32 H 0.95752 0.61023 0.19801 0.0600 Uiso
H33 H 0.65273 0.61019 0.19803 0.0600 Uiso
C33 C 0.56900 0.71610 0.11200 0.0500 Uiso
H34 H 0.66141 0.81030 0.06666 0.0500 Uiso
H35 H 0.73000 0.85144 0.11076 0.0500 Uiso
C35 C 0.76730 0.53460 0.23260 0.0500 Uiso
C36 C 0.48690 0.63440 0.08550 0.0500 Uiso
H38 H 0.61450 0.67949 0.12515 0.0500 Uiso
H39 H 0.52712 0.73359 0.13554 0.0500 Uiso
O43 O 0.83360 0.50900 0.24590 0.0500 Uiso
O44 O 0.67540 0.50899 0.24590 0.0500 Uiso
C38 C 0.42140 0.53760 0.11030 0.0500 Uiso
H42 H 0.43467 0.66480 0.07343 0.0500 Uiso
H43 H 0.52509 0.61227 0.06197 0.0500 Uiso
C40 C 0.46900 0.46530 0.10750 0.0500 Uiso
H46 H 0.42459 0.56385 0.14058 0.0500 Uiso
H47 H 0.33568 0.49306 0.10030 0.0500 Uiso
H50 H 0.55700 0.51234 0.11454 0.0500 Uiso
H51 H 0.45836 0.43280 0.07780 0.0500 Uiso
H52 H 0.42716 0.39682 0.12808 0.0500 Uiso
H77 H 0.663007 0.90747 0.153952 . .
O10_4 O 1.00000 1.00000 0.93970 0.0500 Uiso
O22 O 0.83850 0.91930 0.98000 0.0500 Uiso
O25 O 0.82433 0.99126 0.91257 0.0500 Uiso
Zr6 Zr 0.91921 0.83831 0.95990 0.0500 Uiso
As3 As 0.59446 0.91865 0.99176 0.0500 Uiso
O31 O 0.95674 0.70967 0.95623 0.0500 Uiso
O32 O 0.77201 0.69474 0.98361 0.0500 Uiso
O34 O 0.82434 0.83307 0.91257 0.0500 Uiso
O38 O 0.48061 0.79392 0.99879 0.0500 Uiso
H68 H 0.715003 0.98663 0.937415 . .
H68_2 H 0.0133695 0.728373 0.937415 . .
H65_2 H 0.993328 0.29185 0.0414033 . .
H69_2 H 0.70658 0.974384 0.968593 . .
As1_2 As 0.65752 0.07221 0.65843 0.0500 Uiso
O13_2 O 0.78289 0.10590 0.67663 0.0500 Uiso
O14_2 O 0.64664 0.18606 0.66546 0.0500 Uiso
H2_2 H 0.75298 0.06096 0.70318 0.0500 Uiso
H3_2 H 0.59530 0.15801 0.69067 0.0500 Uiso
C7_2 C 0.60693 0.00497 0.76377 0.0500 Uiso
H5_2 H 0.72310 0.01396 0.86468 0.0600 Uiso
C9_2 C 0.50853 0.01687 0.76387 0.0500 Uiso
H8_2 H 0.68359 0.08224 0.75814 0.0500 Uiso
C11_2 C 0.48043 0.09767 0.77867 0.0500 Uiso
H9_2 H 0.48222 0.00526 0.73333 0.0500 Uiso
C12_2 C 0.48083 0.17977 0.75217 0.0500 Uiso
H11_2 H 0.39832 0.05217 0.79182 0.0500 Uiso
H12_2 H 0.53980 0.13955 0.80221 0.0500 Uiso
C13_2 C 0.44953 0.24527 0.77697 0.0500 Uiso
H13_2 H 0.56346 0.23200 0.74010 0.0500 Uiso
H14_2 H 0.42051 0.14158 0.72864 0.0500 Uiso
C14_2 C 0.32963 0.19767 0.77417 0.0500 Uiso
H15_2 H 0.47259 0.24208 0.80725 0.0500 Uiso
H16_2 H 0.49071 0.33099 0.76697 0.0500 Uiso
H17_2 H 0.28867 0.10967 0.78121 0.0500 Uiso
H18_2 H 0.30777 0.20831 0.74447 0.0500 Uiso
H19_2 H 0.30299 0.23951 0.79475 0.0500 Uiso
H28_2 H 0.29079 0.01394 0.86470 0.0600 Uiso
H58 H 0.454891 0.0293928 0.687919 . .
H60_2 H 0.577796 0.00365982 0.820619 . .
Zr1_2 Zr 0.41423 0.82827 0.70677 0.0500 Uiso
O1_2 O 0.51443 0.83637 0.75687 0.0500 Uiso
O2_2 O 0.38613 0.96457 0.69277 0.0500 Uiso
O3_2 O 0.49483 0.74747 0.68667 0.0500 Uiso
O4_2 O 0.41413 0.82817 0.64667 0.0500 Uiso
O5_2 O 0.56674 0.97865 0.69038 0.0500 Uiso
O6_4 O 0.33333 0.66667 0.72697 0.0500 Uiso
O7_2 O 0.32193 0.83637 0.75687 0.0500 Uiso
C1_2 C 0.54003 0.76997 0.77027 0.0500 Uiso
Zr2_2 Zr 0.49502 0.74757 0.62657 0.0500 Uiso
H1_2 H 0.58844 0.91781 0.69740 0.0500 Uiso
C2_2 C 0.60963 0.80487 0.80477 0.0500 Uiso
O8_2 O 0.62366 0.91374 0.62290 0.0500 Uiso
O9_2 O 0.63859 0.74394 0.65028 0.0500 Uiso
O10_5 O 0.33333 0.66667 0.60637 0.0500 Uiso
O11_2 O 0.50026 0.84234 0.57924 0.0500 Uiso
O12_2 O 0.50026 0.65794 0.57924 0.0500 Uiso
C3_2 C 0.63883 0.90407 0.81857 0.0500 Uiso
C4_2 C 0.63883 0.73467 0.81857 0.0500 Uiso
N1_2 N 0.60663 0.97207 0.80197 0.0500 Uiso
C5_2 C 0.69993 0.93467 0.85097 0.0500 Uiso
C6_2 C 0.69993 0.76527 0.85097 0.0500 Uiso
H4 H 0.61556 0.65532 0.80489 0.0600 Uiso
C8_2 C 0.72913 0.86447 0.86467 0.0500 Uiso
H6_2 H 0.72314 0.70921 0.86470 0.0600 Uiso
H7_2 H 0.59720 0.94080 0.74324 0.0500 Uiso
C10_2 C 0.79873 0.89937 0.89927 0.0500 Uiso
H10_2 H 0.45477 0.93667 0.77743 0.0500 Uiso
O15_2 O 0.25253 0.74737 0.68667 0.0500 Uiso
Zr3 Zr 0.41403 0.58577 0.70677 0.0500 Uiso
Zr4_2 Zr 0.25243 0.74746 0.62657 0.0500 Uiso
Zr5_2 Zr 0.17173 0.58597 0.70677 0.0500 Uiso
C15_2 C 0.23003 0.77007 0.77027 0.0500 Uiso
O16_2 O 0.51443 0.67807 0.75687 0.0500 Uiso
O17_2 O 0.41403 0.58587 0.64667 0.0500 Uiso
O18_2 O 0.32193 0.48557 0.75687 0.0500 Uiso
O19 O 0.57843 0.61387 0.69277 0.0500 Uiso
O20_2 O 0.25263 0.50517 0.68667 0.0500 Uiso
O21 O 0.41190 0.43326 0.69038 0.0500 Uiso
O22_2 O 0.17183 0.58597 0.64667 0.0500 Uiso
O23_2 O 0.08626 0.70993 0.62290 0.0500 Uiso
O24_2 O 0.25606 0.89466 0.65028 0.0500 Uiso
O25_2 O 0.15766 0.65793 0.57924 0.0500 Uiso
O26_2 O 0.34206 0.84233 0.57924 0.0500 Uiso
O27_2 O 0.16363 0.67807 0.75687 0.0500 Uiso
O28_2 O 0.03543 0.42157 0.69277 0.0500 Uiso
O29_2 O 0.02135 0.58810 0.69038 0.0500 Uiso
O30_2 O 0.16363 0.48557 0.75687 0.0500 Uiso
C16_2 C 0.19513 0.80477 0.80477 0.0500 Uiso
Zr6_2 Zr 0.25254 0.50498 0.62657 0.0500 Uiso
C17_2 C 0.22993 0.45997 0.77027 0.0500 Uiso
As2_2 As 0.41468 0.34248 0.65843 0.0500 Uiso
H20_2 H 0.32936 0.41156 0.69740 0.0500 Uiso
H21_2 H 0.08219 0.67064 0.69740 0.0500 Uiso
C18_2 C 0.09593 0.73477 0.81857 0.0500 Uiso
C19_2 C 0.26533 0.90417 0.81857 0.0500 Uiso
O31_2 O 0.29007 0.37634 0.62290 0.0500 Uiso
O32_2 O 0.10534 0.36141 0.65028 0.0500 Uiso
O33_2 O 0.34207 0.49974 0.57924 0.0500 Uiso
O34_2 O 0.15767 0.49974 0.57924 0.0500 Uiso
C20_2 C 0.19523 0.39037 0.80477 0.0500 Uiso
O35_2 O 0.32300 0.21711 0.67663 0.0500 Uiso
O36_2 O 0.53941 0.35336 0.66546 0.0500 Uiso
N2_2 N 0.02793 0.63457 0.80197 0.0500 Uiso
C21_2 C 0.06533 0.76527 0.85097 0.0500 Uiso
C22_2 C 0.23473 0.93467 0.85097 0.0500 Uiso
H22_2 H 0.34468 0.96025 0.80489 0.0600 Uiso
C23_2 C 0.26523 0.36117 0.81857 0.0500 Uiso
C24_2 C 0.09583 0.36117 0.81857 0.0500 Uiso
H23_2 H 0.30797 0.24702 0.70318 0.0500 Uiso
H24 H 0.56270 0.40470 0.69067 0.0500 Uiso
C26_2 C 0.13553 0.86467 0.86467 0.0500 Uiso
N3 N 0.36543 0.39337 0.80197 0.0500 Uiso
C27_2 C 0.23473 0.30007 0.85097 0.0500 Uiso
C28_2 C 0.06533 0.30007 0.85097 0.0500 Uiso
H29_2 H 0.03975 0.38444 0.80489 0.0600 Uiso
H30_2 H 0.05920 0.65641 0.74324 0.0500 Uiso
C30_2 C 0.10063 0.89937 0.89927 0.0500 Uiso
C31 C 0.39803 0.39307 0.76377 0.0500 Uiso
C32_2 C 0.13533 0.27087 0.86467 0.0500 Uiso
H32_2 H 0.29085 0.27690 0.86468 0.0600 Uiso
H35_2 H 0.06333 0.51811 0.77743 0.0500 Uiso
C34 C 0.50833 0.49147 0.76387 0.0500 Uiso
H36 H 0.34359 0.40280 0.74324 0.0500 Uiso
H37 H 0.39864 0.31641 0.75814 0.0500 Uiso
C35_2 C 0.10063 0.20127 0.89927 0.0500 Uiso
C37 C 0.61723 0.51957 0.77867 0.0500 Uiso
H40 H 0.52303 0.51778 0.73333 0.0500 Uiso
H41 H 0.48189 0.54523 0.77743 0.0500 Uiso
C39 C 0.69893 0.51917 0.75217 0.0500 Uiso
H44 H 0.65384 0.60168 0.79182 0.0500 Uiso
H45 H 0.59974 0.46020 0.80221 0.0500 Uiso
C41 C 0.79573 0.55047 0.77697 0.0500 Uiso
H48 H 0.66853 0.43654 0.74010 0.0500 Uiso
H49 H 0.72106 0.57949 0.72864 0.0500 Uiso
C42_2 C 0.86803 0.67037 0.77417 0.0500 Uiso
H53 H 0.76948 0.52741 0.80725 0.0500 Uiso
H54 H 0.84027 0.50929 0.76697 0.0500 Uiso
H55_2 H 0.82099 0.71133 0.78121 0.0500 Uiso
H56_2 H 0.90053 0.69223 0.74447 0.0500 Uiso
H57_2 H 0.93651 0.69701 0.79475 0.0500 Uiso
H78 H 0.425864 0.422204 0.820619 . .
As3_2 As 0.92779 0.58532 0.65843 0.0500 Uiso
O37_2 O 0.89410 0.67700 0.67663 0.0500 Uiso
O38_2 O 0.81394 0.46059 0.66546 0.0500 Uiso
H25_2 H 0.93904 0.69203 0.70318 0.0500 Uiso
H26_2 H 0.84199 0.43730 0.69067 0.0500 Uiso
C25_2 C 0.99503 0.60197 0.76377 0.0500 Uiso
H27_2 H 0.98604 0.70915 0.86468 0.0600 Uiso
C29_2 C 0.98313 0.49167 0.76387 0.0500 Uiso
H31_2 H 0.91776 0.60136 0.75814 0.0500 Uiso
H33_2 H 0.98606 0.27686 0.86470 0.0600 Uiso
C33_2 C 0.90233 0.38277 0.77867 0.0500 Uiso
H34_2 H 0.99474 0.47697 0.73333 0.0500 Uiso
C36_2 C 0.82023 0.30107 0.75217 0.0500 Uiso
H38_2 H 0.94783 0.34616 0.79182 0.0500 Uiso
H39_2 H 0.86045 0.40026 0.80221 0.0500 Uiso
C38_2 C 0.75473 0.20427 0.77697 0.0500 Uiso
H42_2 H 0.76800 0.33147 0.74010 0.0500 Uiso
H43_2 H 0.85842 0.27894 0.72864 0.0500 Uiso
C40_2 C 0.80233 0.13197 0.77417 0.0500 Uiso
H46_2 H 0.75792 0.23052 0.80725 0.0500 Uiso
H47_2 H 0.66901 0.15973 0.76697 0.0500 Uiso
H50_2 H 0.89033 0.17901 0.78121 0.0500 Uiso
H51_2 H 0.79169 0.09947 0.74447 0.0500 Uiso
H52_2 H 0.76049 0.06349 0.79475 0.0500 Uiso
H76 H 0.97396 0.427072 0.683941 . .
H77_2 H 0.99634 0.574136 0.820619 . .
H66 H 0.45098 0.0326849 0.698334 . .
H58_2 H 0.970607 0.425498 0.687919 . .
H76_2 H 0.453112 0.0260402 0.683941 . .
H66_2 H 0.967315 0.418295 0.698334 . .
O13_3 O 0.11623 0.77256 0.34329 0.0500 Uiso
H2_3 H 0.08632 0.72762 0.36984 0.0500 Uiso
C5_3 C 0.03327 0.60133 0.51763 0.0500 Uiso
C6_3 C 0.03327 0.43193 0.51763 0.0500 Uiso
C8_3 C 0.06247 0.53113 0.53133 0.0500 Uiso
H5_3 H 0.05644 0.68062 0.53134 0.0600 Uiso
H6_3 H 0.05648 0.37587 0.53136 0.0600 Uiso
H8_3 H 0.01693 0.74890 0.42480 0.0500 Uiso
C10_3 C 0.13207 0.56603 0.56593 0.0500 Uiso
C39_2 C 0.03227 0.18583 0.41883 0.0500 Uiso
C41_2 C 0.12907 0.21713 0.44363 0.0500 Uiso
H48_2 H 0.00187 0.10320 0.40676 0.0500 Uiso
H49_2 H 0.05440 0.24615 0.39530 0.0500 Uiso
C42_3 C 0.20137 0.33703 0.44083 0.0500 Uiso
H53_2 H 0.10282 0.19407 0.47391 0.0500 Uiso
H54_2 H 0.17361 0.17595 0.43363 0.0500 Uiso
H55_3 H 0.15433 0.37799 0.44787 0.0500 Uiso
H56_3 H 0.23387 0.35889 0.41113 0.0500 Uiso
H57_3 H 0.26985 0.36367 0.46141 0.0500 Uiso
H62 H 0.0161239 0.409535 0.296039 . .
H63 H 0.0210682 0.588059 0.302105 . .
Zr1_3 Zr 0.74757 0.49493 0.37343 0.0500 Uiso
O1_3 O 0.84777 0.50303 0.42353 0.0500 Uiso
O2_3 O 0.71947 0.63123 0.35943 0.0500 Uiso
O3_3 O 0.82817 0.41413 0.35333 0.0500 Uiso
O4_3 O 0.74747 0.49483 0.31333 0.0500 Uiso
O5_3 O 0.90008 0.64531 0.35704 0.0500 Uiso
O6_5 O 0.66667 0.33333 0.39363 0.0500 Uiso
O7_3 O 0.65527 0.50303 0.42353 0.0500 Uiso
C1_3 C 0.87337 0.43663 0.43693 0.0500 Uiso
As1_3 As 0.99086 0.73887 0.32509 0.0500 Uiso
H1_3 H 0.92178 0.58447 0.36406 0.0500 Uiso
C2_3 C 0.94297 0.47153 0.47143 0.0500 Uiso
O8_3 O 0.95700 0.58040 0.28956 0.0500 Uiso
O9_3 O 0.97193 0.41060 0.31694 0.0500 Uiso
O10_6 O 0.66667 0.33333 0.27303 0.0500 Uiso
O14_3 O 0.97998 0.85272 0.33212 0.0500 Uiso
C3_3 C 0.97217 0.57073 0.48523 0.0500 Uiso
C4_3 C 0.97217 0.40133 0.48523 0.0500 Uiso
H3_3 H 0.92864 0.82467 0.35733 0.0500 Uiso
N1_3 N 0.93997 0.63873 0.46863 0.0500 Uiso
H4_2 H 0.94890 0.32198 0.47155 0.0600 Uiso
C7_3 C 0.94027 0.67163 0.43043 0.0500 Uiso
C9_3 C 0.84187 0.68353 0.43053 0.0500 Uiso
H7_3 H 0.93054 0.60746 0.40990 0.0500 Uiso
C11_3 C 0.81377 0.76433 0.44533 0.0500 Uiso
H9_3 H 0.81556 0.67192 0.39999 0.0500 Uiso
H10_3 H 0.78811 0.60333 0.44409 0.0500 Uiso
C12_3 C 0.81417 0.84643 0.41883 0.0500 Uiso
H11_3 H 0.73166 0.71883 0.45848 0.0500 Uiso
H12_3 H 0.87314 0.80621 0.46887 0.0500 Uiso
C13_3 C 0.78287 0.91193 0.44363 0.0500 Uiso
H13_3 H 0.89680 0.89866 0.40676 0.0500 Uiso
H14_3 H 0.75385 0.80824 0.39530 0.0500 Uiso
C14_3 C 0.66297 0.86433 0.44083 0.0500 Uiso
H15_3 H 0.80593 0.90874 0.47391 0.0500 Uiso
H16_3 H 0.82405 0.99765 0.43363 0.0500 Uiso
H17_3 H 0.62201 0.77633 0.44787 0.0500 Uiso
H18_3 H 0.64111 0.87497 0.41113 0.0500 Uiso
H19_3 H 0.63633 0.90617 0.46141 0.0500 Uiso
O15_3 O 0.58587 0.41403 0.35333 0.0500 Uiso
Zr3_2 Zr 0.74737 0.25243 0.37343 0.0500 Uiso
Zr5_3 Zr 0.50507 0.25263 0.37343 0.0500 Uiso
C15_3 C 0.56337 0.43673 0.43693 0.0500 Uiso
O16_3 O 0.84777 0.34473 0.42353 0.0500 Uiso
O17_3 O 0.74737 0.25253 0.31333 0.0500 Uiso
O18_3 O 0.65527 0.15223 0.42353 0.0500 Uiso
O19_2 O 0.91177 0.28053 0.35943 0.0500 Uiso
O20_3 O 0.58597 0.17183 0.35333 0.0500 Uiso
O21_2 O 0.74524 0.09992 0.35704 0.0500 Uiso
O22_3 O 0.50517 0.25263 0.31333 0.0500 Uiso
O23_3 O 0.41960 0.37659 0.28956 0.0500 Uiso
O24_3 O 0.58940 0.56132 0.31694 0.0500 Uiso
O27_3 O 0.49697 0.34473 0.42353 0.0500 Uiso
O28_3 O 0.36877 0.08823 0.35943 0.0500 Uiso
O29_3 O 0.35469 0.25476 0.35704 0.0500 Uiso
O30_3 O 0.49697 0.15223 0.42353 0.0500 Uiso
C16_3 C 0.52847 0.47143 0.47143 0.0500 Uiso
C17_3 C 0.56327 0.12663 0.43693 0.0500 Uiso
As2_3 As 0.74802 0.00914 0.32509 0.0500 Uiso
H20_3 H 0.66270 0.07822 0.36406 0.0500 Uiso
As3_3 As 0.26113 0.25198 0.32509 0.0500 Uiso
H21_3 H 0.41553 0.33730 0.36406 0.0500 Uiso
C18_3 C 0.42927 0.40143 0.48523 0.0500 Uiso
C19_3 C 0.59867 0.57083 0.48523 0.0500 Uiso
O31_3 O 0.62341 0.04300 0.28956 0.0500 Uiso
O32_3 O 0.43868 0.02807 0.31694 0.0500 Uiso
C20_3 C 0.52857 0.05703 0.47143 0.0500 Uiso
O36_3 O 0.87275 0.02002 0.33212 0.0500 Uiso
O37_3 O 0.22744 0.34366 0.34329 0.0500 Uiso
O38_3 O 0.14728 0.12725 0.33212 0.0500 Uiso
N2_3 N 0.36127 0.30123 0.46863 0.0500 Uiso
C21_3 C 0.39867 0.43193 0.51763 0.0500 Uiso
C22_3 C 0.56807 0.60133 0.51763 0.0500 Uiso
H22_3 H 0.67802 0.62691 0.47155 0.0600 Uiso
C23_3 C 0.59857 0.02783 0.48523 0.0500 Uiso
C24_3 C 0.42917 0.02783 0.48523 0.0500 Uiso
H24_2 H 0.89604 0.07136 0.35733 0.0500 Uiso
H25_3 H 0.27238 0.35869 0.36984 0.0500 Uiso
H26_3 H 0.17533 0.10396 0.35733 0.0500 Uiso
C25_3 C 0.32837 0.26863 0.43043 0.0500 Uiso
C26_3 C 0.46887 0.53133 0.53133 0.0500 Uiso
H27_3 H 0.31938 0.37581 0.53134 0.0600 Uiso
H28_3 H 0.62413 0.68060 0.53136 0.0600 Uiso
N3_2 N 0.69877 0.06003 0.46863 0.0500 Uiso
H29_3 H 0.37309 0.05110 0.47155 0.0600 Uiso
C29_3 C 0.31647 0.15833 0.43053 0.0500 Uiso
H30_3 H 0.39254 0.32307 0.40990 0.0500 Uiso
H31_3 H 0.25110 0.26802 0.42480 0.0500 Uiso
C30_3 C 0.43397 0.56603 0.56593 0.0500 Uiso
C31_2 C 0.73137 0.05973 0.43043 0.0500 Uiso
C33_3 C 0.23567 0.04943 0.44533 0.0500 Uiso
H34_3 H 0.32808 0.14363 0.39999 0.0500 Uiso
H35_3 H 0.39667 0.18477 0.44409 0.0500 Uiso
C34_2 C 0.84167 0.15813 0.43053 0.0500 Uiso
H36_2 H 0.67693 0.06946 0.40990 0.0500 Uiso
H38_3 H 0.28117 0.01282 0.45848 0.0500 Uiso
H39_3 H 0.19379 0.06692 0.46887 0.0500 Uiso
C37_2 C 0.95057 0.18623 0.44533 0.0500 Uiso
H40_2 H 0.85637 0.18444 0.39999 0.0500 Uiso
H41_2 H 0.81523 0.21189 0.44409 0.0500 Uiso
H44_2 H 0.98718 0.26834 0.45848 0.0500 Uiso
H45_2 H 0.93308 0.12686 0.46887 0.0500 Uiso
H60_3 H 0.911129 0.670326 0.487286 . .
H77_3 H 0.329674 0.240803 0.487286 . .
H78_2 H 0.759197 0.0888706 0.487286 . .
O35_3 O 0.65634 0.88377 0.34329 0.0500 Uiso
H23_3 H 0.64131 0.91368 0.36984 0.0500 Uiso
C27_3 C 0.56807 0.96673 0.51763 0.0500 Uiso
C28_3 C 0.39867 0.96673 0.51763 0.0500 Uiso
C32_3 C 0.46867 0.93753 0.53133 0.0500 Uiso
H32_3 H 0.62419 0.94356 0.53134 0.0600 Uiso
H33_3 H 0.31940 0.94352 0.53136 0.0600 Uiso
H37_2 H 0.73198 0.98307 0.42480 0.0500 Uiso
C35_3 C 0.43397 0.86793 0.56593 0.0500 Uiso
C36_3 C 0.15357 0.96773 0.41883 0.0500 Uiso
C38_3 C 0.08807 0.87093 0.44363 0.0500 Uiso
H42_3 H 0.10134 0.99813 0.40676 0.0500 Uiso
H43_3 H 0.19176 0.94560 0.39530 0.0500 Uiso
C40_3 C 0.13567 0.79863 0.44083 0.0500 Uiso
H46_3 H 0.09126 0.89718 0.47391 0.0500 Uiso
H47_3 H 0.00235 0.82639 0.43363 0.0500 Uiso
H50_3 H 0.22367 0.84567 0.44787 0.0500 Uiso
H51_3 H 0.12503 0.76613 0.41113 0.0500 Uiso
H52_3 H 0.09383 0.73015 0.46141 0.0500 Uiso
H70 H 0.567229 0.979075 0.302249 . .
H72 H 0.453471 0.969471 0.320892 . .
H72_2 H 0.0305286 0.483999 0.320892 . .
H67 H 0.559253 0.976585 0.281942 . .
H74 H 0.444008 0.963668 0.31299 . .
H67_2 H 0.023415 0.582668 0.281942 . .
H74_2 H 0.0363317 0.48034 0.31299 . .
H62_2 H 0.393411 0.983876 0.296039 . .
O6_6 O -0.00000 1.00000 0.06030 0.0500 Uiso
H4_3 H 0.28223 0.98865 0.13822 0.0600 Uiso
Zr3_3 Zr 0.08070 0.91910 0.04010 0.0500 Uiso
O19_3 O 0.24510 0.94720 0.02610 0.0500 Uiso
O21_3 O 0.07857 0.76659 0.02371 0.0500 Uiso
H24_3 H 0.22937 0.73803 0.02400 0.0500 Uiso
N3_3 N 0.03210 0.72670 0.13530 0.0500 Uiso
C31_3 C 0.06470 0.72640 0.09710 0.0500 Uiso
C34_3 C 0.17500 0.82480 0.09720 0.0500 Uiso
H36_3 H 0.01026 0.73613 0.07657 0.0500 Uiso
H37_3 H 0.06531 0.64974 0.09147 0.0500 Uiso
C37_3 C 0.28390 0.85290 0.11200 0.0500 Uiso
H40_3 H 0.18970 0.85111 0.06666 0.0500 Uiso
H41_3 H 0.14856 0.87856 0.11076 0.0500 Uiso
C39_3 C 0.36560 0.85250 0.08550 0.0500 Uiso
H44_3 H 0.32051 0.93501 0.12515 0.0500 Uiso
H45_3 H 0.26641 0.79353 0.13554 0.0500 Uiso
C41_3 C 0.46240 0.88380 0.11030 0.0500 Uiso
H48_3 H 0.33520 0.76987 0.07343 0.0500 Uiso
H49_3 H 0.38773 0.91282 0.06197 0.0500 Uiso
H53_3 H 0.43615 0.86074 0.14058 0.0500 Uiso
H54_3 H 0.50694 0.84262 0.10030 0.0500 Uiso
H78_3 H 0.0925304 0.755537 0.153952 . .
loop_
_geom_bond_atom_site_label_1
_geom_bond_atom_site_label_2
_geom_bond_site_symmetry_1
_geom_bond_site_symmetry_2
Zr1 O1 1_555 1_555
O1 C1 1_555 1_555
O2 Zr1 1_555 1_555
O3 Zr1 1_555 1_555
O5 Zr1 1_555 1_555
O6 Zr1 1_555 1_555
C1 C2 1_555 1_555
H1 O5 1_555 1_555
C2 C3 1_555 1_555
C3 N1 1_555 1_555
C4 C2 1_555 1_555
H2 O13 1_555 1_555
N1 C7 1_555 1_555
C5 C3 1_555 1_555
C6 C4 1_555 1_555
C7 C9 1_555 1_555
C8 C5 1_555 1_555
H5 C5 1_555 1_555
H6 C6 1_555 1_555
C9 C11 1_555 1_555
H7 C7 1_555 1_555
H8 C7 1_555 1_555
C10 C8 1_555 1_555
C11 C12 1_555 1_555
H9 C9 1_555 1_555
H10 C9 1_555 1_555
C12 C13 1_555 1_555
H11 C11 1_555 1_555
H12 C11 1_555 1_555
H13 C12 1_555 1_555
H14 C12 1_555 1_555
H15 C13 1_555 1_555
H16 C13 1_555 1_555
O16 C1 1_555 1_555
O39 C10 1_555 1_555
O40 C10 1_555 1_555
Zr7 O39 1_555 1_555
Zr8 O40 1_555 1_555
H55 C42 1_555 1_555
H56 C42 1_555 1_555
H57 C42 1_555 1_555
C6 C8 1_555 1_555
N1 H60 1_555 1_555
O8 Zr2 1_555 1_555
O9 Zr2 1_555 1_555
O10 Zr2 1_555 1_555
O11 Zr2 1_555 1_555
O14 As1 1_555 1_555
O4 Zr2 1_555 1_555
O36 As2 1_555 1_555
C14 H17 1_555 1_555
H18 C14 1_555 1_555
H19 C14 1_555 1_555
C15 O7 1_555 1_555
C16 C15 1_555 1_555
C18 C16 1_555 1_555
C19 C16 1_555 1_555
C21 C18 1_555 1_555
C22 C19 1_555 1_555
H25 O37 1_555 1_555
C26 C21 1_555 1_555
H27 C21 1_555 1_555
H28 C22 1_555 1_555
C30 C26 1_555 1_555
O41 C30 1_555 1_555
O42 C30 1_555 1_555
Zr8 O41 1_555 1_555
Zr10 O42 1_555 1_555
C15 O27 1_555 1_555
C22 C26 1_555 1_555
O23 Zr4 1_555 1_555
O24 Zr4 1_555 1_555
O10_3 Zr4 1_555 1_555
Zr5 O6_3 1_555 1_555
O28 Zr5 1_555 1_555
O29 Zr5 1_555 1_555
O30 Zr5 1_555 1_555
C17 O18 1_555 1_555
C20 C17 1_555 1_555
C23 C20 1_555 1_555
C24 C20 1_555 1_555
H23 O35 1_555 1_555
C25 N2 1_555 1_555
C27 C23 1_555 1_555
C28 C24 1_555 1_555
H29 C24 1_555 1_555
C29 C25 1_555 1_555
H30 C25 1_555 1_555
H31 C25 1_555 1_555
C32 C27 1_555 1_555
H32 C27 1_555 1_555
H33 C28 1_555 1_555
C33 C29 1_555 1_555
H34 C29 1_555 1_555
H35 C29 1_555 1_555
C35 C32 1_555 1_555
C36 C33 1_555 1_555
H38 C33 1_555 1_555
H39 C33 1_555 1_555
O43 C35 1_555 1_555
O44 C35 1_555 1_555
C38 C36 1_555 1_555
H42 C36 1_555 1_555
H43 C36 1_555 1_555
Zr10 O43 1_555 1_555
Zr7 O44 1_555 1_555
C40 C38 1_555 1_555
H46 C38 1_555 1_555
H47 C38 1_555 1_555
H50 C40 1_555 1_555
H51 C40 1_555 1_555
H52 C40 1_555 1_555
Zr5 O20 1_555 1_555
O30 C17 1_555 1_555
C28 C32 1_555 1_555
N2 H77 1_555 1_555
Zr6 O10_4 1_555 1_555
O31 Zr6 1_555 1_555
O32 Zr6 1_555 1_555
O34 Zr6 1_555 1_555
O38 As3 1_555 1_555
O22 Zr6 1_555 1_555
O13_2 As1_2 1_555 1_555
O14_2 As1_2 1_555 1_555
H2_2 O13_2 1_555 1_555
H3_2 O14_2 1_555 1_555
C7_2 C9_2 1_555 1_555
C9_2 C11_2 1_555 1_555
H8_2 C7_2 1_555 1_555
C11_2 C12_2 1_555 1_555
H9_2 C9_2 1_555 1_555
C12_2 C13_2 1_555 1_555
H11_2 C11_2 1_555 1_555
H12_2 C11_2 1_555 1_555
C13_2 C14_2 1_555 1_555
H13_2 C12_2 1_555 1_555
H14_2 C12_2 1_555 1_555
C14_2 H17_2 1_555 1_555
H15_2 C13_2 1_555 1_555
H16_2 C13_2 1_555 1_555
H18_2 C14_2 1_555 1_555
H19_2 C14_2 1_555 1_555
Zr1_2 O1_2 1_555 1_555
O1_2 C1_2 1_555 1_555
O2_2 Zr1_2 1_555 1_555
O3_2 Zr1_2 1_555 1_555
O4_2 Zr1_2 1_555 1_555
O5_2 Zr1_2 1_555 1_555
O6_4 Zr1_2 1_555 1_555
O7_2 Zr1_2 1_555 1_555
C1_2 C2_2 1_555 1_555
Zr2_2 O3_2 1_555 1_555
H1_2 O5_2 1_555 1_555
C2_2 C3_2 1_555 1_555
O8_2 Zr2_2 1_555 1_555
O9_2 Zr2_2 1_555 1_555
O10_5 Zr2_2 1_555 1_555
O11_2 Zr2_2 1_555 1_555
O12_2 Zr2_2 1_555 1_555
C3_2 N1_2 1_555 1_555
C4_2 C2_2 1_555 1_555
C5_2 C3_2 1_555 1_555
C6_2 C4_2 1_555 1_555
H4 C4_2 1_555 1_555
C8_2 C5_2 1_555 1_555
H6_2 C6_2 1_555 1_555
C10_2 C8_2 1_555 1_555
O15_2 Zr1_2 1_555 1_555
Zr3 O3_2 1_555 1_555
Zr4_2 O4_2 1_555 1_555
Zr5_2 O6_4 1_555 1_555
C15_2 O7_2 1_555 1_555
O16_2 C1_2 1_555 1_555
O17_2 Zr2_2 1_555 1_555
O18_2 Zr3 1_555 1_555
O19 Zr3 1_555 1_555
O20_2 Zr3 1_555 1_555
O21 Zr3 1_555 1_555
O22_2 Zr4_2 1_555 1_555
O23_2 Zr4_2 1_555 1_555
O24_2 Zr4_2 1_555 1_555
O25_2 Zr4_2 1_555 1_555
O26_2 Zr4_2 1_555 1_555
O27_2 Zr5_2 1_555 1_555
O28_2 Zr5_2 1_555 1_555
O29_2 Zr5_2 1_555 1_555
O30_2 Zr5_2 1_555 1_555
C16_2 C15_2 1_555 1_555
Zr6_2 O10_5 1_555 1_555
C17_2 O18_2 1_555 1_555
As2_2 O21 1_555 1_555
H20_2 O21 1_555 1_555
H21_2 O29_2 1_555 1_555
C18_2 C16_2 1_555 1_555
C19_2 C16_2 1_555 1_555
O31_2 Zr6_2 1_555 1_555
O32_2 Zr6_2 1_555 1_555
O33_2 Zr6_2 1_555 1_555
O34_2 Zr6_2 1_555 1_555
C20_2 C17_2 1_555 1_555
O35_2 As2_2 1_555 1_555
O36_2 As2_2 1_555 1_555
N2_2 C18_2 1_555 1_555
C21_2 C18_2 1_555 1_555
C22_2 C19_2 1_555 1_555
H22_2 C19_2 1_555 1_555
C23_2 C20_2 1_555 1_555
C24_2 C20_2 1_555 1_555
H23_2 O35_2 1_555 1_555
H24 O36_2 1_555 1_555
C26_2 C21_2 1_555 1_555
N3 C23_2 1_555 1_555
C27_2 C23_2 1_555 1_555
C28_2 C24_2 1_555 1_555
H29_2 C24_2 1_555 1_555
C30_2 C26_2 1_555 1_555
O25 C10_2 1_555 1_555
O34 C10_2 1_555 1_555
C31 N3 1_555 1_555
C32_2 C27_2 1_555 1_555
H32_2 C27_2 1_555 1_555
O33 C30_2 1_555 1_555
O12 C30_2 1_555 1_555
C34 C31 1_555 1_555
H36 C31 1_555 1_555
H37 C31 1_555 1_555
C35_2 C32_2 1_555 1_555
C37 C34 1_555 1_555
H40 C34 1_555 1_555
H41 C34 1_555 1_555
O11 C35_2 1_555 1_555
O26 C35_2 1_555 1_555
C39 C37 1_555 1_555
H44 C37 1_555 1_555
H45 C37 1_555 1_555
C41 C39 1_555 1_555
H48 C39 1_555 1_555
H49 C39 1_555 1_555
C42_2 C41 1_555 1_555
H53 C41 1_555 1_555
H54 C41 1_555 1_555
H55_2 C42_2 1_555 1_555
H56_2 C42_2 1_555 1_555
H57_2 C42_2 1_555 1_555
O4_2 Zr2_2 1_555 1_555
O6_4 Zr3 1_555 1_555
O10_5 Zr4_2 1_555 1_555
C6_2 C8_2 1_555 1_555
O15_2 Zr4_2 1_555 1_555
O15_2 Zr5_2 1_555 1_555
Zr3 O16_2 1_555 1_555
Zr3 O17_2 1_555 1_555
Zr5_2 O20_2 1_555 1_555
Zr5_2 O22_2 1_555 1_555
C15_2 O27_2 1_555 1_555
O17_2 Zr6_2 1_555 1_555
O20_2 Zr6_2 1_555 1_555
O22_2 Zr6_2 1_555 1_555
O30_2 C17_2 1_555 1_555
C22_2 C26_2 1_555 1_555
C28_2 C32_2 1_555 1_555
N3 H78 1_555 1_555
O37_2 As3_2 1_555 1_555
O38_2 As3_2 1_555 1_555
H25_2 O37_2 1_555 1_555
H26_2 O38_2 1_555 1_555
C29_2 C25_2 1_555 1_555
H31_2 C25_2 1_555 1_555
C33_2 C29_2 1_555 1_555
H34_2 C29_2 1_555 1_555
C36_2 C33_2 1_555 1_555
H38_2 C33_2 1_555 1_555
H39_2 C33_2 1_555 1_555
C38_2 C36_2 1_555 1_555
H42_2 C36_2 1_555 1_555
H43_2 C36_2 1_555 1_555
C40_2 C38_2 1_555 1_555
H46_2 C38_2 1_555 1_555
H47_2 C38_2 1_555 1_555
H50_2 C40_2 1_555 1_555
H51_2 C40_2 1_555 1_555
H52_2 C40_2 1_555 1_555
H2_3 O13_3 1_555 1_555
C8_3 C5_3 1_555 1_555
H5_3 C5_3 1_555 1_555
H6_3 C6_3 1_555 1_555
C10_3 C8_3 1_555 1_555
O25_2 C10_3 1_555 1_555
O34_2 C10_3 1_555 1_555
C41_2 C39_2 1_555 1_555
H48_2 C39_2 1_555 1_555
H49_2 C39_2 1_555 1_555
C42_3 C41_2 1_555 1_555
H53_2 C41_2 1_555 1_555
H54_2 C41_2 1_555 1_555
H55_3 C42_3 1_555 1_555
H56_3 C42_3 1_555 1_555
H57_3 C42_3 1_555 1_555
C6_3 C8_3 1_555 1_555
Zr1_3 O1_3 1_555 1_555
O1_3 C1_3 1_555 1_555
O2_3 Zr1_3 1_555 1_555
O3_3 Zr1_3 1_555 1_555
O4_3 Zr1_3 1_555 1_555
O5_3 Zr1_3 1_555 1_555
O6_5 Zr1_3 1_555 1_555
O7_3 Zr1_3 1_555 1_555
C1_3 C2_3 1_555 1_555
Zr10 O3_3 1_555 1_555
As1_3 O5_3 1_555 1_555
H1_3 O5_3 1_555 1_555
C2_3 C3_3 1_555 1_555
O8_3 Zr10 1_555 1_555
O9_3 Zr10 1_555 1_555
O10_6 Zr10 1_555 1_555
O14_3 As1_3 1_555 1_555
C3_3 N1_3 1_555 1_555
C4_3 C2_3 1_555 1_555
H3_3 O14_3 1_555 1_555
N1_3 C7_3 1_555 1_555
H4_2 C4_3 1_555 1_555
C7_3 C9_3 1_555 1_555
C9_3 C11_3 1_555 1_555
H7_3 C7_3 1_555 1_555
C11_3 C12_3 1_555 1_555
H9_3 C9_3 1_555 1_555
H10_3 C9_3 1_555 1_555
C12_3 C13_3 1_555 1_555
H11_3 C11_3 1_555 1_555
H12_3 C11_3 1_555 1_555
C13_3 C14_3 1_555 1_555
H13_3 C12_3 1_555 1_555
H14_3 C12_3 1_555 1_555
C14_3 H17_3 1_555 1_555
H15_3 C13_3 1_555 1_555
H16_3 C13_3 1_555 1_555
H18_3 C14_3 1_555 1_555
H19_3 C14_3 1_555 1_555
O15_3 Zr1_3 1_555 1_555
Zr3_2 O3_3 1_555 1_555
Zr7 O4_3 1_555 1_555
Zr5_3 O6_5 1_555 1_555
C15_3 O7_3 1_555 1_555
O16_3 C1_3 1_555 1_555
O17_3 Zr10 1_555 1_555
O18_3 Zr3_2 1_555 1_555
O19_2 Zr3_2 1_555 1_555
O20_3 Zr3_2 1_555 1_555
O21_2 Zr3_2 1_555 1_555
O22_3 Zr7 1_555 1_555
O23_3 Zr7 1_555 1_555
O24_3 Zr7 1_555 1_555
O27_3 Zr5_3 1_555 1_555
O28_3 Zr5_3 1_555 1_555
O29_3 Zr5_3 1_555 1_555
O30_3 Zr5_3 1_555 1_555
C16_3 C15_3 1_555 1_555
Zr8 O10_6 1_555 1_555
C17_3 O18_3 1_555 1_555
As2_3 O21_2 1_555 1_555
H20_3 O21_2 1_555 1_555
As3_3 O29_3 1_555 1_555
H21_3 O29_3 1_555 1_555
C18_3 C16_3 1_555 1_555
C19_3 C16_3 1_555 1_555
O31_3 Zr8 1_555 1_555
O32_3 Zr8 1_555 1_555
C20_3 C17_3 1_555 1_555
O36_3 As2_3 1_555 1_555
O37_3 As3_3 1_555 1_555
O38_3 As3_3 1_555 1_555
N2_3 C18_3 1_555 1_555
C21_3 C18_3 1_555 1_555
C22_3 C19_3 1_555 1_555
H22_3 C19_3 1_555 1_555
C23_3 C20_3 1_555 1_555
C24_3 C20_3 1_555 1_555
H24_2 O36_3 1_555 1_555
H25_3 O37_3 1_555 1_555
H26_3 O38_3 1_555 1_555
C25_3 N2_3 1_555 1_555
C26_3 C21_3 1_555 1_555
H27_3 C21_3 1_555 1_555
H28_3 C22_3 1_555 1_555
N3_2 C23_3 1_555 1_555
H29_3 C24_3 1_555 1_555
C29_3 C25_3 1_555 1_555
H30_3 C25_3 1_555 1_555
H31_3 C25_3 1_555 1_555
C30_3 C26_3 1_555 1_555
C31_2 N3_2 1_555 1_555
C33_3 C29_3 1_555 1_555
H34_3 C29_3 1_555 1_555
H35_3 C29_3 1_555 1_555
O33_2 C30_3 1_555 1_555
O12_2 C30_3 1_555 1_555
C34_2 C31_2 1_555 1_555
H36_2 C31_2 1_555 1_555
H38_3 C33_3 1_555 1_555
H39_3 C33_3 1_555 1_555
C37_2 C34_2 1_555 1_555
H40_2 C34_2 1_555 1_555
H41_2 C34_2 1_555 1_555
H44_2 C37_2 1_555 1_555
H45_2 C37_2 1_555 1_555
O4_3 Zr10 1_555 1_555
O6_5 Zr3_2 1_555 1_555
O10_6 Zr7 1_555 1_555
O15_3 Zr7 1_555 1_555
O15_3 Zr5_3 1_555 1_555
Zr3_2 O16_3 1_555 1_555
Zr3_2 O17_3 1_555 1_555
Zr5_3 O20_3 1_555 1_555
Zr5_3 O22_3 1_555 1_555
C15_3 O27_3 1_555 1_555
O17_3 Zr8 1_555 1_555
O20_3 Zr8 1_555 1_555
O22_3 Zr8 1_555 1_555
O30_3 C17_3 1_555 1_555
C22_3 C26_3 1_555 1_555
N1_3 H60_3 1_555 1_555
N2_3 H77_3 1_555 1_555
N3_2 H78_2 1_555 1_555
H23_3 O35_3 1_555 1_555
C32_3 C27_3 1_555 1_555
H32_3 C27_3 1_555 1_555
H33_3 C28_3 1_555 1_555
C35_3 C32_3 1_555 1_555
O11_2 C35_3 1_555 1_555
O26_2 C35_3 1_555 1_555
C38_3 C36_3 1_555 1_555
H42_3 C36_3 1_555 1_555
H43_3 C36_3 1_555 1_555
C40_3 C38_3 1_555 1_555
H46_3 C38_3 1_555 1_555
H47_3 C38_3 1_555 1_555
H50_3 C40_3 1_555 1_555
H51_3 C40_3 1_555 1_555
H52_3 C40_3 1_555 1_555
C28_3 C32_3 1_555 1_555
O19_3 Zr3_3 1_555 1_555
O21_3 Zr3_3 1_555 1_555
C31_3 N3_3 1_555 1_555
C34_3 C31_3 1_555 1_555
H36_3 C31_3 1_555 1_555
H37_3 C31_3 1_555 1_555
C37_3 C34_3 1_555 1_555
H40_3 C34_3 1_555 1_555
H41_3 C34_3 1_555 1_555
C39_3 C37_3 1_555 1_555
H44_3 C37_3 1_555 1_555
H45_3 C37_3 1_555 1_555
C41_3 C39_3 1_555 1_555
H48_3 C39_3 1_555 1_555
H49_3 C39_3 1_555 1_555
H53_3 C41_3 1_555 1_555
H54_3 C41_3 1_555 1_555
O6_6 Zr3_3 1_555 1_555
N3_3 H78_3 1_555 1_555

#END
