
###############################################################################
#
# This file contains modified crystal structure data generated from the
# MOF subset of the Cambridge Structural Database (CSD) v543 
# hosted by the Cambridge Crystallographic Data Centre (CCDC).
#
# This work is licensed under the Creative Commons
# Attribution-NonCommercial-ShareAlike 4.0 International License.
# To view a copy of this license, visit
# http://creativecommons.org/licenses/by-nc-sa/4.0/
# or send a letter to
# Creative Commons, PO Box 1866, Mountain View, CA 94042, USA.
#
# CIF created using the CSD Python API on 29 September 2022
# The structure has been converted into the P1 space group
# The structure has a 3D framework
# The original CSD entry JEGTIC is in the rhombohedral crystal system
# The original CSD entry JEGTIC is in a Sohncke space group
# The framework has been calculated to contain at least 10.0% void space
# The void calculation uses a probe of radius 1.32A, grid spacing 0.4
# H atom positions have been added when not included in the experimental data
# Generated hydrogen atom positions removed from atoms on special positions
#
###############################################################################

data_JEGTIC
_chemical_formula_moiety         '(C153 H423 N9 O102 Zr18)n'
_symmetry_cell_setting           triclinic
_symmetry_space_group_name_H-M   'P 1'
_symmetry_Int_Tables_number      1
_space_group_name_Hall           'P 1'
loop_
_symmetry_equiv_pos_site_id
_symmetry_equiv_pos_as_xyz
1 x,y,z
_cell_length_a                   14.714(5)
_cell_length_b                   14.714(5)
_cell_length_c                   36.044(12)
_cell_angle_alpha                90
_cell_angle_beta                 90
_cell_angle_gamma                120
_cell_volume                     6758.11
loop_
_atom_site_label
_atom_site_type_symbol
_atom_site_fract_x
_atom_site_fract_y
_atom_site_fract_z
Zr1 Zr 0.08090 0.16160 0.04010
O1 O 0.18110 0.16970 0.09020
O2 O 0.05280 0.29790 0.02610
O3 O 0.23350 0.28640 0.02610
O4 O 0.16150 0.08080 0.02000
O6 O -0.00000 0.00000 0.06030
C1 C 0.20670 0.10330 0.10360
C2 C 0.27630 0.13820 0.13810
C3 C 0.30550 0.23740 0.15190
C4 C 0.30550 0.06800 0.15190
N1 N 0.27330 0.30540 0.13530
C5 C 0.36660 0.26800 0.18430
C6 C 0.36660 0.09860 0.18430
C7 C 0.27360 0.33830 0.09710
C8 C 0.39580 0.19780 0.19800
H2 H 0.38955 0.34658 0.19788
H3 H 0.38959 0.04304 0.19791
C9 C 0.17520 0.35020 0.09720
H4 H 0.26395 0.27470 0.07677
H5 H 0.34957 0.41487 0.09152
C10 C 0.46540 0.23270 0.23260
C11 C 0.14710 0.43100 0.11200
H6 H 0.14913 0.33871 0.06694
H7 H 0.12192 0.27071 0.11063
C12 C 0.06075 0.44365 0.09285
H8 H 0.12437 0.41195 0.14243
H9 H 0.22435 0.50863 0.11088
H10 H 0.09709 0.51726 0.07487
H11 H 0.00635 0.37191 0.07553
H12 H 0.00967 0.41836 0.15129
H13 H 0.02619 0.54153 0.13028
O14 O 0.18110 0.01140 0.09020
H23 H 0.01063 0.29307 0.13834
O33 O 0.49100 0.32459 0.24590
O34 O 0.49101 0.16640 0.24590
Zr7 Zr 0.58577 0.41412 0.29323
Zr8 Zr 0.58588 0.17164 0.29323
C44 C 0.45669 0.00161 0.12510
C46 C 0.51618 0.11864 0.11425
C48 C 0.47111 0.16960 0.08809
H53 H 0.59463 0.13567 0.10203
H54 H 0.53448 0.16886 0.14028
C50 C 0.52599 0.29000 0.08167
H57 H 0.38780 0.14301 0.09785
H58 H 0.46499 0.13800 0.05876
C51 C 0.44427 0.32591 0.07781
H62 H 0.57510 0.31090 0.05527
H63 H 0.57937 0.33256 0.10622
H64 H 0.37636 0.27902 0.09772
H65 H 0.41348 0.31225 0.04812
H66 H 0.48257 0.41300 0.08474
H83 H 0.244652 0.336829 0.153781
H84 H 0.298202 0.00632096 0.0412582
O5 O 0.08080 0.16150 0.98000
Zr2 Zr 0.16169 0.08090 0.95990
O8 O 0.00000 0.00000 0.93970
O9 O 0.29789 0.05280 0.97390
O10 O 0.28639 0.23350 0.97390
O11 O 0.16693 0.17567 0.91257
O24 O 0.00873 0.17566 0.91257
H86 H 0.00632728 0.298194 0.958745
O8_2 O 0.00000 1.00000 0.93970
O12 O 0.16693 0.99127 0.91257
O15 O 0.08070 0.91920 0.98000
O31 O 0.00874 0.83307 0.91257
H71 H 0.271046 0.987202 0.988571
O6_2 O 1.00000 0.00000 0.06030
O7 O 0.98860 0.16970 0.09020
C13 C 0.99839 0.45508 0.12510
C14 C 0.88136 0.39754 0.11425
C15 C 0.83040 0.30151 0.08809
H14 H 0.86433 0.45896 0.10203
H15 H 0.83114 0.36562 0.14028
C16 C 0.71000 0.23599 0.08167
H16 H 0.85699 0.24479 0.09785
H17 H 0.86200 0.32699 0.05876
C17 C 0.67409 0.11836 0.07781
H18 H 0.68910 0.26420 0.05527
H19 H 0.66744 0.24681 0.10622
H20 H 0.72098 0.09734 0.09772
H21 H 0.68775 0.10123 0.04812
H22 H 0.58700 0.06957 0.08474
O13 O 0.91920 0.08070 0.02000
C18 C 0.89670 0.10340 0.10360
O25 O 0.83030 0.01140 0.09020
C19 C 0.86180 0.13810 0.13810
C21 C 0.76260 0.06810 0.15190
C22 C 0.93200 0.23750 0.15190
C24 C 0.73200 0.09860 0.18430
C25 C 0.90140 0.26800 0.18430
C29 C 0.80220 0.19800 0.19800
H24 H 0.65342 0.04297 0.19788
H25 H 0.95696 0.34655 0.19791
C33 C 0.76730 0.23270 0.23260
O35 O 0.67541 0.16640 0.24590
O36 O 0.83360 0.32460 0.24590
Zr10 Zr 0.82836 0.41423 0.29323
O8_3 O 1.00000 0.00000 0.93970
Zr4 Zr 0.91910 0.08079 0.95990
O21 O 0.94720 0.24509 0.97390
O22 O 0.76650 0.05289 0.97390
O6_3 O 1.00000 1.00000 0.06030
Zr5 Zr 0.83840 0.91930 0.04010
O16 O 0.98860 0.81890 0.09020
O19 O 0.91930 0.83850 0.02000
O26 O 0.70210 0.75490 0.02610
O27 O 0.71360 0.94710 0.02610
O28 O 0.83030 0.81890 0.09020
C20 C 0.89660 0.79330 0.10360
C23 C 0.86190 0.72370 0.13810
N2 N 0.69460 0.96790 0.13530
C26 C 0.93190 0.69450 0.15190
C27 C 0.76250 0.69450 0.15190
C28 C 0.66170 0.93530 0.09710
C30 C 0.90140 0.63340 0.18430
C31 C 0.73200 0.63340 0.18430
H26 H 0.70693 0.71756 0.13834
C32 C 0.64980 0.82500 0.09720
H27 H 0.72530 0.98925 0.07677
H28 H 0.58513 0.93470 0.09152
C35 C 0.80200 0.60420 0.19800
H29 H 0.95703 0.61045 0.19788
H30 H 0.65345 0.61041 0.19791
C36 C 0.56900 0.71610 0.11200
H31 H 0.66129 0.81042 0.06694
H32 H 0.72929 0.85121 0.11063
C38 C 0.76730 0.53460 0.23260
C39 C 0.55635 0.61710 0.09285
H35 H 0.58805 0.71242 0.14243
H36 H 0.49137 0.71572 0.11088
O37 O 0.83360 0.50900 0.24590
O38 O 0.67540 0.50899 0.24590
C41 C 0.54492 0.54331 0.12510
H39 H 0.48274 0.57983 0.07487
H40 H 0.62809 0.63444 0.07553
C43 C 0.60246 0.48382 0.11425
H43 H 0.58164 0.59131 0.15129
H44 H 0.45847 0.48466 0.13028
C45 C 0.69849 0.52889 0.08809
H47 H 0.54104 0.40537 0.10203
H48 H 0.63438 0.46552 0.14028
C47 C 0.76401 0.47401 0.08167
H51 H 0.75521 0.61220 0.09785
H52 H 0.67301 0.53501 0.05876
C49 C 0.88164 0.55573 0.07781
H55 H 0.73580 0.42490 0.05527
H56 H 0.75319 0.42063 0.10622
H59 H 0.90266 0.62364 0.09772
H60 H 0.89877 0.58652 0.04812
H61 H 0.93043 0.51743 0.08474
H92 H 0.663171 0.907823 0.153781
O8_4 O 1.00000 1.00000 0.93970
O20 O 0.83850 0.91930 0.98000
O23 O 0.82433 0.99126 0.91257
Zr6 Zr 0.91921 0.83831 0.95990
O29 O 0.75491 0.70211 0.97390
O30 O 0.94711 0.71361 0.97390
O32 O 0.82434 0.83307 0.91257
H71_2 H 0.012798 0.283845 0.988571
H67 H 0.740581 0.0238625 0.0251747
H84_2 H 0.993679 0.291881 0.0412582
H86_2 H 0.291867 0.993673 0.958745
H67_2 H 0.976137 0.716719 0.0251747
C7_2 C 0.60693 0.00497 0.76377
H2_2 H 0.72288 0.01325 0.86455
C9_2 C 0.50853 0.01687 0.76387
H5_2 H 0.68290 0.08154 0.75819
C11_2 C 0.48043 0.09767 0.77867
H6_2 H 0.48246 0.00538 0.73361
C12_2 C 0.39408 0.11032 0.75952
H8_2 H 0.45770 0.07862 0.80910
H9_2 H 0.55768 0.17530 0.77755
C13_2 C 0.33172 0.12175 0.79177
H10_2 H 0.43042 0.18393 0.74154
H11_2 H 0.33968 0.03858 0.74220
C14_2 C 0.21469 0.06421 0.78092
H12_2 H 0.34300 0.08503 0.81796
H13_2 H 0.35952 0.20820 0.79695
H14_2 H 0.19766 0.12563 0.76870
H15_2 H 0.16447 0.03229 0.80695
H25_2 H 0.29029 0.01322 0.86458
H66_2 H 0.81590 0.07967 0.75141
H69 H 0.454458 0.0289905 0.68798
H83_2 H 0.577985 0.00349547 0.820448
Zr1_2 Zr 0.41423 0.82827 0.70677
O1_2 O 0.51443 0.83637 0.75687
O2_2 O 0.38613 0.96457 0.69277
O3_2 O 0.56683 0.95307 0.69277
O4_2 O 0.49483 0.74747 0.68667
O5_2 O 0.41413 0.82817 0.64667
O6_4 O 0.33333 0.66667 0.72697
O7_2 O 0.32193 0.83637 0.75687
C1_2 C 0.54003 0.76997 0.77027
Zr2_2 Zr 0.49502 0.74757 0.62657
C2_2 C 0.60963 0.80487 0.80477
O8_5 O 0.33333 0.66667 0.60637
O9_2 O 0.63122 0.71947 0.64057
O10_2 O 0.61972 0.90017 0.64057
O11_2 O 0.50026 0.84234 0.57924
O12_2 O 0.50026 0.65794 0.57924
C3_2 C 0.63883 0.90407 0.81857
C4_2 C 0.63883 0.73467 0.81857
N1_2 N 0.60663 0.97207 0.80197
C5_2 C 0.69993 0.93467 0.85097
C6_2 C 0.69993 0.76527 0.85097
H1 H 0.61577 0.65604 0.80501
C8_2 C 0.72913 0.86447 0.86467
H3_2 H 0.72292 0.70971 0.86458
H4_2 H 0.59728 0.94137 0.74344
C10_2 C 0.79873 0.89937 0.89927
H7_2 H 0.45525 0.93738 0.77730
C15_2 C 0.16373 0.96818 0.75476
C16_2 C 0.04333 0.90266 0.74834
H16_2 H 0.19032 0.91146 0.76452
H17_2 H 0.19533 0.99366 0.72543
C17_2 C 0.00742 0.78503 0.74448
H18_2 H 0.02243 0.93087 0.72194
H19_2 H 0.00077 0.91348 0.77289
H20_2 H 0.05431 0.76401 0.76439
H21_2 H 0.02108 0.76790 0.71479
O13_2 O 0.25253 0.74737 0.68667
Zr3 Zr 0.41403 0.58577 0.70677
Zr4_2 Zr 0.25243 0.74746 0.62657
Zr5_2 Zr 0.17173 0.58597 0.70677
C18_2 C 0.23003 0.77007 0.77027
O14_2 O 0.51443 0.67807 0.75687
O15_2 O 0.41403 0.58587 0.64667
O16_2 O 0.32193 0.48557 0.75687
O17 O 0.57843 0.61387 0.69277
O18 O 0.38623 0.43317 0.69277
O19_2 O 0.25263 0.50517 0.68667
O20_2 O 0.17183 0.58597 0.64667
O21_2 O 0.28053 0.91176 0.64057
O22_2 O 0.09983 0.71956 0.64057
O23_2 O 0.15766 0.65793 0.57924
O24_2 O 0.34206 0.84233 0.57924
O25_2 O 0.16363 0.67807 0.75687
O26_2 O 0.03543 0.42157 0.69277
O27_2 O 0.04693 0.61377 0.69277
O28_2 O 0.16363 0.48557 0.75687
C19_2 C 0.19513 0.80477 0.80477
Zr6_2 Zr 0.25254 0.50498 0.62657
C20_2 C 0.22993 0.45997 0.77027
C21_2 C 0.09593 0.73477 0.81857
C22_2 C 0.26533 0.90417 0.81857
O29_2 O 0.08824 0.36878 0.64057
O30_2 O 0.28044 0.38028 0.64057
O31_2 O 0.34207 0.49974 0.57924
O32_2 O 0.15767 0.49974 0.57924
C23_2 C 0.19523 0.39037 0.80477
N2_2 N 0.02793 0.63457 0.80197
C24_2 C 0.06533 0.76527 0.85097
C25_2 C 0.23473 0.93467 0.85097
H23_2 H 0.34396 0.95974 0.80501
C26_2 C 0.26523 0.36117 0.81857
C27_2 C 0.09583 0.36117 0.81857
C29_2 C 0.13553 0.86467 0.86467
N3 N 0.36543 0.39337 0.80197
C30_2 C 0.23473 0.30007 0.85097
C31_2 C 0.06533 0.30007 0.85097
H26_2 H 0.04026 0.38423 0.80501
H27_2 H 0.05863 0.65592 0.74344
C33_2 C 0.10063 0.89937 0.89927
C34 C 0.39803 0.39307 0.76377
C35_2 C 0.13533 0.27087 0.86467
H29_2 H 0.29036 0.27712 0.86455
H32_2 H 0.06262 0.51788 0.77730
C37 C 0.50833 0.49147 0.76387
H33 H 0.34408 0.40272 0.74344
H34 H 0.39863 0.31710 0.75819
C38_2 C 0.10063 0.20127 0.89927
C40 C 0.61723 0.51957 0.77867
H37 H 0.52291 0.51754 0.73361
H38 H 0.48212 0.54475 0.77730
C42 C 0.71623 0.60592 0.75952
H41 H 0.62091 0.54230 0.80910
H42 H 0.61761 0.44232 0.77755
C44_2 C 0.79002 0.66828 0.79177
H45 H 0.75350 0.56958 0.74154
H46 H 0.69889 0.66032 0.74220
C45_2 C 0.03182 0.19556 0.75476
C46_2 C 0.84951 0.78531 0.78092
H49 H 0.74202 0.65700 0.81796
H50 H 0.84867 0.64048 0.79695
C47_2 C 0.09734 0.14068 0.74834
H51_2 H 0.08854 0.27887 0.76452
H52_2 H 0.00634 0.20168 0.72543
C48_2 C 0.80444 0.83627 0.75476
H53_2 H 0.92796 0.80234 0.76870
H54_2 H 0.86781 0.83553 0.80695
C49_2 C 0.21497 0.22240 0.74448
H55_2 H 0.06913 0.09157 0.72194
H56_2 H 0.08652 0.08730 0.77289
C50_2 C 0.85932 0.95667 0.74834
H57_2 H 0.72113 0.80968 0.76452
H58_2 H 0.79832 0.80467 0.72543
H59_2 H 0.23599 0.29031 0.76439
H60_2 H 0.23210 0.25319 0.71479
H61_2 H 0.26376 0.18410 0.75141
C51_2 C 0.77760 0.99258 0.74448
H62_2 H 0.90843 0.97757 0.72194
H63_2 H 0.91270 0.99923 0.77289
H64_2 H 0.70969 0.94569 0.76439
H65_2 H 0.74681 0.97892 0.71479
H93 H 0.425511 0.422015 0.820448
H22_2 H 0.92033 0.73624 0.75141
C28_2 C 0.99503 0.60197 0.76377
H24_2 H 0.98675 0.70964 0.86455
C32_2 C 0.98313 0.49167 0.76387
H28_2 H 0.91846 0.60137 0.75819
H30_2 H 0.98678 0.27708 0.86458
C36_2 C 0.90233 0.38277 0.77867
H31_2 H 0.99462 0.47709 0.73361
C39_2 C 0.88968 0.28377 0.75952
H35_2 H 0.92138 0.37909 0.80910
H36_2 H 0.82470 0.38239 0.77755
C41_2 C 0.87825 0.20998 0.79177
H39_2 H 0.81607 0.24650 0.74154
H40_2 H 0.96142 0.30111 0.74220
C43_2 C 0.93579 0.15049 0.78092
H43_2 H 0.91497 0.25798 0.81796
H44_2 H 0.79180 0.15133 0.79695
H47_2 H 0.87437 0.07204 0.76870
H48_2 H 0.96771 0.13219 0.80695
H80 H 0.974373 0.427051 0.684
H82 H 0.985184 0.547171 0.684413
H92_2 H 0.996505 0.574489 0.820448
H75 H 0.56562 0.0198309 0.69121
H85 H 0.450551 0.032254 0.698296
H69_2 H 0.97101 0.425468 0.68798
H80_2 H 0.452677 0.0256267 0.684
H82_2 H 0.561986 0.0148157 0.684413
H75_2 H 0.980169 0.545789 0.69121
H85_2 H 0.967746 0.418297 0.698296
C5_3 C 0.03327 0.60133 0.51763
C6_3 C 0.03327 0.43193 0.51763
C8_3 C 0.06247 0.53113 0.53133
H2_3 H 0.05622 0.67991 0.53121
H3_3 H 0.05626 0.37637 0.53124
H5_3 H 0.01624 0.74820 0.42485
C10_3 C 0.13207 0.56603 0.56593
C42_2 C 0.04957 0.27258 0.42618
C44_3 C 0.12336 0.33494 0.45843
H45_2 H 0.08684 0.23624 0.40820
H46_2 H 0.03223 0.32698 0.40886
C46_3 C 0.18285 0.45197 0.44758
H49_2 H 0.07536 0.32366 0.48462
H50_2 H 0.18201 0.30714 0.46361
C48_3 C 0.13778 0.50293 0.42142
H53_3 H 0.26130 0.46900 0.43536
H54_3 H 0.20115 0.50219 0.47361
C50_3 C 0.19266 0.62333 0.41500
H57_3 H 0.05447 0.47634 0.43118
H58_3 H 0.13166 0.47133 0.39209
C51_3 C 0.11094 0.65924 0.41114
H62_3 H 0.24177 0.64423 0.38860
H63_3 H 0.24604 0.66589 0.43955
H64_3 H 0.04303 0.61235 0.43105
H65_3 H 0.08015 0.64558 0.38145
H66_3 H 0.14924 0.74633 0.41807
H73 H 0.00652466 0.560482 0.322041
Zr1_3 Zr 0.74757 0.49493 0.37343
O1_3 O 0.84777 0.50303 0.42353
O2_3 O 0.71947 0.63123 0.35943
O3_3 O 0.90017 0.61973 0.35943
O4_3 O 0.82817 0.41413 0.35333
O5_3 O 0.74747 0.49483 0.31333
O6_5 O 0.66667 0.33333 0.39363
O7_3 O 0.65527 0.50303 0.42353
C1_3 C 0.87337 0.43663 0.43693
C2_3 C 0.94297 0.47153 0.47143
O8_6 O 0.66667 0.33333 0.27303
O9_3 O 0.96456 0.38613 0.30723
O10_3 O 0.95306 0.56683 0.30723
C3_3 C 0.97217 0.57073 0.48523
C4_3 C 0.97217 0.40133 0.48523
N1_3 N 0.93997 0.63873 0.46863
H1_2 H 0.94911 0.32270 0.47167
C7_3 C 0.94027 0.67163 0.43043
C9_3 C 0.84187 0.68353 0.43053
H4_3 H 0.93062 0.60803 0.41010
C11_3 C 0.81377 0.76433 0.44533
H6_3 H 0.81580 0.67204 0.40027
H7_3 H 0.78859 0.60404 0.44396
C12_3 C 0.72742 0.77698 0.42618
H8_3 H 0.79104 0.74528 0.47576
H9_3 H 0.89102 0.84196 0.44421
C13_3 C 0.66506 0.78841 0.45843
H10_3 H 0.76376 0.85059 0.40820
H11_3 H 0.67302 0.70524 0.40886
C14_3 C 0.54803 0.73087 0.44758
H12_3 H 0.67634 0.75169 0.48462
H13_3 H 0.69286 0.87486 0.46361
C15_3 C 0.49707 0.63484 0.42142
H14_3 H 0.53100 0.79229 0.43536
H15_3 H 0.49781 0.69895 0.47361
C16_3 C 0.37667 0.56932 0.41500
H16_3 H 0.52366 0.57812 0.43118
H17_3 H 0.52867 0.66032 0.39209
C17_3 C 0.34076 0.45169 0.41114
H18_3 H 0.35577 0.59753 0.38860
H19_3 H 0.33411 0.58014 0.43955
H20_3 H 0.38765 0.43067 0.43105
H21_3 H 0.35442 0.43456 0.38145
H22_3 H 0.25367 0.40290 0.41807
O13_3 O 0.58587 0.41403 0.35333
Zr3_2 Zr 0.74737 0.25243 0.37343
Zr5_3 Zr 0.50507 0.25263 0.37343
C18_3 C 0.56337 0.43673 0.43693
O14_3 O 0.84777 0.34473 0.42353
O15_3 O 0.74737 0.25253 0.31333
O16_3 O 0.65527 0.15223 0.42353
O17_2 O 0.91177 0.28053 0.35943
O18_2 O 0.71957 0.09983 0.35943
O19_3 O 0.58597 0.17183 0.35333
O20_3 O 0.50517 0.25263 0.31333
O21_3 O 0.61387 0.57842 0.30723
O22_3 O 0.43317 0.38622 0.30723
O25_3 O 0.49697 0.34473 0.42353
O26_3 O 0.36877 0.08823 0.35943
O27_3 O 0.38027 0.28043 0.35943
O28_3 O 0.49697 0.15223 0.42353
C19_3 C 0.52847 0.47143 0.47143
C20_3 C 0.56327 0.12663 0.43693
C21_3 C 0.42927 0.40143 0.48523
C22_3 C 0.59867 0.57083 0.48523
O29_3 O 0.42158 0.03544 0.30723
O30_3 O 0.61378 0.04694 0.30723
C23_3 C 0.52857 0.05703 0.47143
N2_3 N 0.36127 0.30123 0.46863
C24_3 C 0.39867 0.43193 0.51763
C25_3 C 0.56807 0.60133 0.51763
H23_3 H 0.67730 0.62640 0.47167
C26_3 C 0.59857 0.02783 0.48523
C27_3 C 0.42917 0.02783 0.48523
C28_3 C 0.32837 0.26863 0.43043
C29_3 C 0.46887 0.53133 0.53133
H24_3 H 0.32009 0.37630 0.53121
H25_3 H 0.62363 0.67988 0.53124
N3_2 N 0.69877 0.06003 0.46863
H26_3 H 0.37360 0.05089 0.47167
C32_3 C 0.31647 0.15833 0.43053
H27_3 H 0.39197 0.32258 0.41010
H28_3 H 0.25180 0.26803 0.42485
C33_3 C 0.43397 0.56603 0.56593
C34_2 C 0.73137 0.05973 0.43043
C36_3 C 0.23567 0.04943 0.44533
H31_3 H 0.32796 0.14375 0.40027
H32_3 H 0.39596 0.18454 0.44396
C37_2 C 0.84167 0.15813 0.43053
H33_2 H 0.67742 0.06938 0.41010
H35_3 H 0.25472 0.04575 0.47576
H36_3 H 0.15804 0.04905 0.44421
C40_2 C 0.95057 0.18623 0.44533
H37_2 H 0.85625 0.18420 0.40027
H38_2 H 0.81546 0.21141 0.44396
H41_2 H 0.95425 0.20896 0.47576
H42_2 H 0.95095 0.10898 0.44421
H83_3 H 0.911318 0.670162 0.487115
H92_3 H 0.329838 0.241156 0.487115
H93_2 H 0.758844 0.0886817 0.487115
C30_3 C 0.56807 0.96673 0.51763
C31_3 C 0.39867 0.96673 0.51763
C35_3 C 0.46867 0.93753 0.53133
H29_3 H 0.62370 0.94378 0.53121
H30_3 H 0.32012 0.94374 0.53124
H34_2 H 0.73197 0.98376 0.42485
C38_3 C 0.43397 0.86793 0.56593
C39_3 C 0.22302 0.95043 0.42618
C41_3 C 0.21159 0.87664 0.45843
H39_3 H 0.14941 0.91316 0.40820
H40_3 H 0.29476 0.96777 0.40886
C43_3 C 0.26913 0.81715 0.44758
H43_3 H 0.24831 0.92464 0.48462
H44_3 H 0.12514 0.81799 0.46361
C45_3 C 0.36516 0.86222 0.42142
H47_3 H 0.20771 0.73870 0.43536
H48_3 H 0.30105 0.79885 0.47361
C47_3 C 0.43068 0.80734 0.41500
H51_3 H 0.42188 0.94553 0.43118
H52_3 H 0.33968 0.86834 0.39209
C49_3 C 0.54831 0.88906 0.41114
H55_3 H 0.40247 0.75823 0.38860
H56_3 H 0.41986 0.75396 0.43955
H59_3 H 0.56933 0.95697 0.43105
H60_3 H 0.56544 0.91985 0.38145
H61_3 H 0.59710 0.85076 0.41807
H89 H 0.547196 0.985158 0.315577
H91 H 0.427053 0.974371 0.315991
H89_2 H 0.0148422 0.562039 0.315577
H91_2 H 0.0256288 0.452682 0.315991
H77 H 0.545817 0.980174 0.308834
H87 H 0.418296 0.967751 0.301704
H77_2 H 0.0198264 0.565643 0.308834
H87_2 H 0.0322493 0.450545 0.301704
H73_2 H 0.553958 0.993475 0.322041
O6_6 O 0.00000 1.00000 0.06030
H1_3 H 0.28244 0.98937 0.13834
Zr3_3 Zr 0.08070 0.91910 0.04010
O17_3 O 0.24510 0.94720 0.02610
O18_3 O 0.05290 0.76650 0.02610
N3_3 N 0.03210 0.72670 0.13530
C34_3 C 0.06470 0.72640 0.09710
C37_3 C 0.17500 0.82480 0.09720
H33_3 H 0.01075 0.73605 0.07677
H34_3 H 0.06530 0.65043 0.09152
C40_3 C 0.28390 0.85290 0.11200
H37_3 H 0.18958 0.85087 0.06694
H38_3 H 0.14879 0.87808 0.11063
C42_3 C 0.38290 0.93925 0.09285
H41_3 H 0.28758 0.87563 0.14243
H42_3 H 0.28428 0.77565 0.11088
H45_3 H 0.42017 0.90291 0.07487
H46_3 H 0.36556 0.99365 0.07553
H49_3 H 0.40869 0.99033 0.15129
H50_3 H 0.51534 0.97381 0.13028
H93_3 H 0.0921772 0.755348 0.153781
loop_
_geom_bond_atom_site_label_1
_geom_bond_atom_site_label_2
_geom_bond_site_symmetry_1
_geom_bond_site_symmetry_2
Zr1 O1 1_555 1_555
O1 C1 1_555 1_555
O2 Zr1 1_555 1_555
O3 Zr1 1_555 1_555
O4 Zr1 1_555 1_555
O6 Zr1 1_555 1_555
C1 C2 1_555 1_555
C2 C3 1_555 1_555
C3 N1 1_555 1_555
C4 C2 1_555 1_555
N1 C7 1_555 1_555
C5 C3 1_555 1_555
C6 C4 1_555 1_555
C7 C9 1_555 1_555
C8 C5 1_555 1_555
H2 C5 1_555 1_555
H3 C6 1_555 1_555
C9 C11 1_555 1_555
H4 C7 1_555 1_555
H5 C7 1_555 1_555
C10 C8 1_555 1_555
C11 C12 1_555 1_555
H6 C9 1_555 1_555
H7 C9 1_555 1_555
H8 C11 1_555 1_555
H9 C11 1_555 1_555
H10 C12 1_555 1_555
H11 C12 1_555 1_555
O14 C1 1_555 1_555
O33 C10 1_555 1_555
O34 C10 1_555 1_555
Zr7 O33 1_555 1_555
Zr8 O34 1_555 1_555
C46 C44 1_555 1_555
C48 C46 1_555 1_555
H53 C46 1_555 1_555
H54 C46 1_555 1_555
C50 C48 1_555 1_555
H57 C48 1_555 1_555
H58 C48 1_555 1_555
C51 C50 1_555 1_555
H62 C50 1_555 1_555
H63 C50 1_555 1_555
H64 C51 1_555 1_555
H65 C51 1_555 1_555
H66 C51 1_555 1_555
C6 C8 1_555 1_555
N1 H83 1_555 1_555
O8 Zr2 1_555 1_555
O9 Zr2 1_555 1_555
O10 Zr2 1_555 1_555
O11 Zr2 1_555 1_555
O5 Zr2 1_555 1_555
C13 C14 1_555 1_555
C14 C15 1_555 1_555
C15 C16 1_555 1_555
H14 C14 1_555 1_555
H15 C14 1_555 1_555
C16 C17 1_555 1_555
H16 C15 1_555 1_555
H17 C15 1_555 1_555
C17 H20 1_555 1_555
H18 C16 1_555 1_555
H19 C16 1_555 1_555
H21 C17 1_555 1_555
H22 C17 1_555 1_555
C18 O7 1_555 1_555
C19 C18 1_555 1_555
C21 C19 1_555 1_555
C22 C19 1_555 1_555
C24 C21 1_555 1_555
C25 C22 1_555 1_555
C29 C24 1_555 1_555
H24 C24 1_555 1_555
H25 C25 1_555 1_555
C33 C29 1_555 1_555
O35 C33 1_555 1_555
O36 C33 1_555 1_555
Zr8 O35 1_555 1_555
Zr10 O36 1_555 1_555
C18 O25 1_555 1_555
C25 C29 1_555 1_555
O21 Zr4 1_555 1_555
O22 Zr4 1_555 1_555
O8_3 Zr4 1_555 1_555
Zr5 O6_3 1_555 1_555
O26 Zr5 1_555 1_555
O27 Zr5 1_555 1_555
O28 Zr5 1_555 1_555
C20 O16 1_555 1_555
C23 C20 1_555 1_555
C26 C23 1_555 1_555
C27 C23 1_555 1_555
C28 N2 1_555 1_555
C30 C26 1_555 1_555
C31 C27 1_555 1_555
H26 C27 1_555 1_555
C32 C28 1_555 1_555
H27 C28 1_555 1_555
H28 C28 1_555 1_555
C35 C30 1_555 1_555
H29 C30 1_555 1_555
H30 C31 1_555 1_555
C36 C32 1_555 1_555
H31 C32 1_555 1_555
H32 C32 1_555 1_555
C38 C35 1_555 1_555
C39 C36 1_555 1_555
H35 C36 1_555 1_555
H36 C36 1_555 1_555
O37 C38 1_555 1_555
O38 C38 1_555 1_555
C41 C39 1_555 1_555
H39 C39 1_555 1_555
H40 C39 1_555 1_555
Zr10 O37 1_555 1_555
Zr7 O38 1_555 1_555
C43 C41 1_555 1_555
H43 C41 1_555 1_555
H44 C41 1_555 1_555
C45 C43 1_555 1_555
H47 C43 1_555 1_555
H48 C43 1_555 1_555
C47 C45 1_555 1_555
H51 C45 1_555 1_555
H52 C45 1_555 1_555
C49 C47 1_555 1_555
H55 C47 1_555 1_555
H56 C47 1_555 1_555
H59 C49 1_555 1_555
H60 C49 1_555 1_555
H61 C49 1_555 1_555
Zr5 O19 1_555 1_555
O28 C20 1_555 1_555
C31 C35 1_555 1_555
N2 H92 1_555 1_555
Zr6 O8_4 1_555 1_555
O29 Zr6 1_555 1_555
O30 Zr6 1_555 1_555
O32 Zr6 1_555 1_555
O20 Zr6 1_555 1_555
C7_2 C9_2 1_555 1_555
C9_2 C11_2 1_555 1_555
H5_2 C7_2 1_555 1_555
C11_2 C12_2 1_555 1_555
H6_2 C9_2 1_555 1_555
C12_2 C13_2 1_555 1_555
H8_2 C11_2 1_555 1_555
H9_2 C11_2 1_555 1_555
C13_2 C14_2 1_555 1_555
H10_2 C12_2 1_555 1_555
H11_2 C12_2 1_555 1_555
H12_2 C13_2 1_555 1_555
H13_2 C13_2 1_555 1_555
H14_2 C14_2 1_555 1_555
H15_2 C14_2 1_555 1_555
Zr1_2 O1_2 1_555 1_555
O1_2 C1_2 1_555 1_555
O2_2 Zr1_2 1_555 1_555
O3_2 Zr1_2 1_555 1_555
O4_2 Zr1_2 1_555 1_555
O5_2 Zr1_2 1_555 1_555
O6_4 Zr1_2 1_555 1_555
O7_2 Zr1_2 1_555 1_555
C1_2 C2_2 1_555 1_555
Zr2_2 O4_2 1_555 1_555
C2_2 C3_2 1_555 1_555
O8_5 Zr2_2 1_555 1_555
O9_2 Zr2_2 1_555 1_555
O10_2 Zr2_2 1_555 1_555
O11_2 Zr2_2 1_555 1_555
O12_2 Zr2_2 1_555 1_555
C3_2 N1_2 1_555 1_555
C4_2 C2_2 1_555 1_555
C5_2 C3_2 1_555 1_555
C6_2 C4_2 1_555 1_555
H1 C4_2 1_555 1_555
C8_2 C5_2 1_555 1_555
H3_2 C6_2 1_555 1_555
C10_2 C8_2 1_555 1_555
C15_2 C16_2 1_555 1_555
C16_2 C17_2 1_555 1_555
H16_2 C15_2 1_555 1_555
H17_2 C15_2 1_555 1_555
C17_2 H20_2 1_555 1_555
H18_2 C16_2 1_555 1_555
H19_2 C16_2 1_555 1_555
H21_2 C17_2 1_555 1_555
O13_2 Zr1_2 1_555 1_555
Zr3 O4_2 1_555 1_555
Zr4_2 O5_2 1_555 1_555
Zr5_2 O6_4 1_555 1_555
C18_2 O7_2 1_555 1_555
O14_2 C1_2 1_555 1_555
O15_2 Zr2_2 1_555 1_555
O16_2 Zr3 1_555 1_555
O17 Zr3 1_555 1_555
O18 Zr3 1_555 1_555
O19_2 Zr3 1_555 1_555
O20_2 Zr4_2 1_555 1_555
O21_2 Zr4_2 1_555 1_555
O22_2 Zr4_2 1_555 1_555
O23_2 Zr4_2 1_555 1_555
O24_2 Zr4_2 1_555 1_555
O25_2 Zr5_2 1_555 1_555
O26_2 Zr5_2 1_555 1_555
O27_2 Zr5_2 1_555 1_555
O28_2 Zr5_2 1_555 1_555
C19_2 C18_2 1_555 1_555
Zr6_2 O8_5 1_555 1_555
C20_2 O16_2 1_555 1_555
C21_2 C19_2 1_555 1_555
C22_2 C19_2 1_555 1_555
O29_2 Zr6_2 1_555 1_555
O30_2 Zr6_2 1_555 1_555
O31_2 Zr6_2 1_555 1_555
O32_2 Zr6_2 1_555 1_555
C23_2 C20_2 1_555 1_555
N2_2 C21_2 1_555 1_555
C24_2 C21_2 1_555 1_555
C25_2 C22_2 1_555 1_555
H23_2 C22_2 1_555 1_555
C26_2 C23_2 1_555 1_555
C27_2 C23_2 1_555 1_555
C29_2 C24_2 1_555 1_555
N3 C26_2 1_555 1_555
C30_2 C26_2 1_555 1_555
C31_2 C27_2 1_555 1_555
H26_2 C27_2 1_555 1_555
C33_2 C29_2 1_555 1_555
O23 C10_2 1_555 1_555
O32 C10_2 1_555 1_555
C34 N3 1_555 1_555
C35_2 C30_2 1_555 1_555
H29_2 C30_2 1_555 1_555
O31 C33_2 1_555 1_555
O12 C33_2 1_555 1_555
C37 C34 1_555 1_555
H33 C34 1_555 1_555
H34 C34 1_555 1_555
C38_2 C35_2 1_555 1_555
C40 C37 1_555 1_555
H37 C37 1_555 1_555
H38 C37 1_555 1_555
O11 C38_2 1_555 1_555
O24 C38_2 1_555 1_555
C42 C40 1_555 1_555
H41 C40 1_555 1_555
H42 C40 1_555 1_555
C44_2 C42 1_555 1_555
H45 C42 1_555 1_555
H46 C42 1_555 1_555
C46_2 C44_2 1_555 1_555
H49 C44_2 1_555 1_555
H50 C44_2 1_555 1_555
C47_2 C45_2 1_555 1_555
H51_2 C45_2 1_555 1_555
H52_2 C45_2 1_555 1_555
C48_2 C46_2 1_555 1_555
H53_2 C46_2 1_555 1_555
H54_2 C46_2 1_555 1_555
C49_2 C47_2 1_555 1_555
H55_2 C47_2 1_555 1_555
H56_2 C47_2 1_555 1_555
C50_2 C48_2 1_555 1_555
H57_2 C48_2 1_555 1_555
H58_2 C48_2 1_555 1_555
H59_2 C49_2 1_555 1_555
H60_2 C49_2 1_555 1_555
H61_2 C49_2 1_555 1_555
C51_2 C50_2 1_555 1_555
H62_2 C50_2 1_555 1_555
H63_2 C50_2 1_555 1_555
H64_2 C51_2 1_555 1_555
H65_2 C51_2 1_555 1_555
O5_2 Zr2_2 1_555 1_555
O6_4 Zr3 1_555 1_555
O8_5 Zr4_2 1_555 1_555
C6_2 C8_2 1_555 1_555
O13_2 Zr4_2 1_555 1_555
O13_2 Zr5_2 1_555 1_555
Zr3 O14_2 1_555 1_555
Zr3 O15_2 1_555 1_555
Zr5_2 O19_2 1_555 1_555
Zr5_2 O20_2 1_555 1_555
C18_2 O25_2 1_555 1_555
O15_2 Zr6_2 1_555 1_555
O19_2 Zr6_2 1_555 1_555
O20_2 Zr6_2 1_555 1_555
O28_2 C20_2 1_555 1_555
C25_2 C29_2 1_555 1_555
C31_2 C35_2 1_555 1_555
N3 H93 1_555 1_555
C32_2 C28_2 1_555 1_555
H28_2 C28_2 1_555 1_555
C36_2 C32_2 1_555 1_555
H31_2 C32_2 1_555 1_555
C39_2 C36_2 1_555 1_555
H35_2 C36_2 1_555 1_555
H36_2 C36_2 1_555 1_555
C41_2 C39_2 1_555 1_555
H39_2 C39_2 1_555 1_555
H40_2 C39_2 1_555 1_555
C43_2 C41_2 1_555 1_555
H43_2 C41_2 1_555 1_555
H44_2 C41_2 1_555 1_555
H47_2 C43_2 1_555 1_555
H48_2 C43_2 1_555 1_555
C8_3 C5_3 1_555 1_555
H2_3 C5_3 1_555 1_555
H3_3 C6_3 1_555 1_555
C10_3 C8_3 1_555 1_555
O23_2 C10_3 1_555 1_555
O32_2 C10_3 1_555 1_555
C44_3 C42_2 1_555 1_555
H45_2 C42_2 1_555 1_555
H46_2 C42_2 1_555 1_555
C46_3 C44_3 1_555 1_555
H49_2 C44_3 1_555 1_555
H50_2 C44_3 1_555 1_555
C48_3 C46_3 1_555 1_555
H53_3 C46_3 1_555 1_555
H54_3 C46_3 1_555 1_555
C50_3 C48_3 1_555 1_555
H57_3 C48_3 1_555 1_555
H58_3 C48_3 1_555 1_555
C51_3 C50_3 1_555 1_555
H62_3 C50_3 1_555 1_555
H63_3 C50_3 1_555 1_555
H64_3 C51_3 1_555 1_555
H65_3 C51_3 1_555 1_555
H66_3 C51_3 1_555 1_555
C6_3 C8_3 1_555 1_555
Zr1_3 O1_3 1_555 1_555
O1_3 C1_3 1_555 1_555
O2_3 Zr1_3 1_555 1_555
O3_3 Zr1_3 1_555 1_555
O4_3 Zr1_3 1_555 1_555
O5_3 Zr1_3 1_555 1_555
O6_5 Zr1_3 1_555 1_555
O7_3 Zr1_3 1_555 1_555
C1_3 C2_3 1_555 1_555
Zr10 O4_3 1_555 1_555
C2_3 C3_3 1_555 1_555
O8_6 Zr10 1_555 1_555
O9_3 Zr10 1_555 1_555
O10_3 Zr10 1_555 1_555
C3_3 N1_3 1_555 1_555
C4_3 C2_3 1_555 1_555
N1_3 C7_3 1_555 1_555
H1_2 C4_3 1_555 1_555
C7_3 C9_3 1_555 1_555
C9_3 C11_3 1_555 1_555
H4_3 C7_3 1_555 1_555
C11_3 C12_3 1_555 1_555
H6_3 C9_3 1_555 1_555
H7_3 C9_3 1_555 1_555
C12_3 C13_3 1_555 1_555
H8_3 C11_3 1_555 1_555
H9_3 C11_3 1_555 1_555
C13_3 C14_3 1_555 1_555
H10_3 C12_3 1_555 1_555
H11_3 C12_3 1_555 1_555
C14_3 C15_3 1_555 1_555
H12_3 C13_3 1_555 1_555
H13_3 C13_3 1_555 1_555
C15_3 C16_3 1_555 1_555
H14_3 C14_3 1_555 1_555
H15_3 C14_3 1_555 1_555
C16_3 C17_3 1_555 1_555
H16_3 C15_3 1_555 1_555
H17_3 C15_3 1_555 1_555
C17_3 H20_3 1_555 1_555
H18_3 C16_3 1_555 1_555
H19_3 C16_3 1_555 1_555
H21_3 C17_3 1_555 1_555
H22_3 C17_3 1_555 1_555
O13_3 Zr1_3 1_555 1_555
Zr3_2 O4_3 1_555 1_555
Zr7 O5_3 1_555 1_555
Zr5_3 O6_5 1_555 1_555
C18_3 O7_3 1_555 1_555
O14_3 C1_3 1_555 1_555
O15_3 Zr10 1_555 1_555
O16_3 Zr3_2 1_555 1_555
O17_2 Zr3_2 1_555 1_555
O18_2 Zr3_2 1_555 1_555
O19_3 Zr3_2 1_555 1_555
O20_3 Zr7 1_555 1_555
O21_3 Zr7 1_555 1_555
O22_3 Zr7 1_555 1_555
O25_3 Zr5_3 1_555 1_555
O26_3 Zr5_3 1_555 1_555
O27_3 Zr5_3 1_555 1_555
O28_3 Zr5_3 1_555 1_555
C19_3 C18_3 1_555 1_555
Zr8 O8_6 1_555 1_555
C20_3 O16_3 1_555 1_555
C21_3 C19_3 1_555 1_555
C22_3 C19_3 1_555 1_555
O29_3 Zr8 1_555 1_555
O30_3 Zr8 1_555 1_555
C23_3 C20_3 1_555 1_555
N2_3 C21_3 1_555 1_555
C24_3 C21_3 1_555 1_555
C25_3 C22_3 1_555 1_555
H23_3 C22_3 1_555 1_555
C26_3 C23_3 1_555 1_555
C27_3 C23_3 1_555 1_555
C28_3 N2_3 1_555 1_555
C29_3 C24_3 1_555 1_555
H24_3 C24_3 1_555 1_555
H25_3 C25_3 1_555 1_555
N3_2 C26_3 1_555 1_555
H26_3 C27_3 1_555 1_555
C32_3 C28_3 1_555 1_555
H27_3 C28_3 1_555 1_555
H28_3 C28_3 1_555 1_555
C33_3 C29_3 1_555 1_555
C34_2 N3_2 1_555 1_555
C36_3 C32_3 1_555 1_555
H31_3 C32_3 1_555 1_555
H32_3 C32_3 1_555 1_555
O31_2 C33_3 1_555 1_555
O12_2 C33_3 1_555 1_555
C37_2 C34_2 1_555 1_555
H33_2 C34_2 1_555 1_555
H35_3 C36_3 1_555 1_555
H36_3 C36_3 1_555 1_555
C40_2 C37_2 1_555 1_555
H37_2 C37_2 1_555 1_555
H38_2 C37_2 1_555 1_555
H41_2 C40_2 1_555 1_555
H42_2 C40_2 1_555 1_555
O5_3 Zr10 1_555 1_555
O6_5 Zr3_2 1_555 1_555
O8_6 Zr7 1_555 1_555
O13_3 Zr7 1_555 1_555
O13_3 Zr5_3 1_555 1_555
Zr3_2 O14_3 1_555 1_555
Zr3_2 O15_3 1_555 1_555
Zr5_3 O19_3 1_555 1_555
Zr5_3 O20_3 1_555 1_555
C18_3 O25_3 1_555 1_555
O15_3 Zr8 1_555 1_555
O19_3 Zr8 1_555 1_555
O20_3 Zr8 1_555 1_555
O28_3 C20_3 1_555 1_555
C25_3 C29_3 1_555 1_555
N1_3 H83_3 1_555 1_555
N2_3 H92_3 1_555 1_555
N3_2 H93_2 1_555 1_555
C35_3 C30_3 1_555 1_555
H29_3 C30_3 1_555 1_555
H30_3 C31_3 1_555 1_555
C38_3 C35_3 1_555 1_555
O11_2 C38_3 1_555 1_555
O24_2 C38_3 1_555 1_555
C41_3 C39_3 1_555 1_555
H39_3 C39_3 1_555 1_555
H40_3 C39_3 1_555 1_555
C43_3 C41_3 1_555 1_555
H43_3 C41_3 1_555 1_555
H44_3 C41_3 1_555 1_555
C45_3 C43_3 1_555 1_555
H47_3 C43_3 1_555 1_555
H48_3 C43_3 1_555 1_555
C47_3 C45_3 1_555 1_555
H51_3 C45_3 1_555 1_555
H52_3 C45_3 1_555 1_555
C49_3 C47_3 1_555 1_555
H55_3 C47_3 1_555 1_555
H56_3 C47_3 1_555 1_555
H59_3 C49_3 1_555 1_555
H60_3 C49_3 1_555 1_555
H61_3 C49_3 1_555 1_555
C31_3 C35_3 1_555 1_555
O17_3 Zr3_3 1_555 1_555
O18_3 Zr3_3 1_555 1_555
C34_3 N3_3 1_555 1_555
C37_3 C34_3 1_555 1_555
H33_3 C34_3 1_555 1_555
H34_3 C34_3 1_555 1_555
C40_3 C37_3 1_555 1_555
H37_3 C37_3 1_555 1_555
H38_3 C37_3 1_555 1_555
C42_3 C40_3 1_555 1_555
H41_3 C40_3 1_555 1_555
H42_3 C40_3 1_555 1_555
H45_3 C42_3 1_555 1_555
H46_3 C42_3 1_555 1_555
O6_6 Zr3_3 1_555 1_555
N3_3 H93_3 1_555 1_555

#END
