
###############################################################################
#
# This file contains modified crystal structure data generated from the
# MOF subset of the Cambridge Structural Database (CSD) v543 
# hosted by the Cambridge Crystallographic Data Centre (CCDC).
#
# This work is licensed under the Creative Commons
# Attribution-NonCommercial-ShareAlike 4.0 International License.
# To view a copy of this license, visit
# http://creativecommons.org/licenses/by-nc-sa/4.0/
# or send a letter to
# Creative Commons, PO Box 1866, Mountain View, CA 94042, USA.
#
# CIF created using the CSD Python API on 29 September 2022
# The structure has been converted into the P1 space group
# The structure has a 3D framework
# The original CSD entry JEGWUQ is in the rhombohedral crystal system
# The framework has been calculated to contain at least 10.0% void space
# The void calculation uses a probe of radius 1.32A, grid spacing 0.4
# The framework is charged, counterions have been retained in the structure
#
###############################################################################

data_JEGWUQ
_chemical_formula_moiety         '(C360 H648 Cl56 Cu36 N180 O36 54+)n'
_symmetry_cell_setting           triclinic
_symmetry_space_group_name_H-M   'P 1'
_symmetry_Int_Tables_number      1
_space_group_name_Hall           'P 1'
loop_
_symmetry_equiv_pos_site_id
_symmetry_equiv_pos_as_xyz
1 x,y,z
_cell_length_a                   37.171(6)
_cell_length_b                   37.171(6)
_cell_length_c                   15.907(2)
_cell_angle_alpha                90
_cell_angle_beta                 90
_cell_angle_gamma                120
_cell_volume                     19033.9
loop_
_atom_site_label
_atom_site_type_symbol
_atom_site_fract_x
_atom_site_fract_y
_atom_site_fract_z
N1 N 0.3946(13) 0.4918(16) 0.173(3)
H1 H 0.395655 0.516107 0.185567
H2 H 0.400553 0.483098 0.221512
C1 C 0.3505(13) 0.4631(14) 0.162(5)
H3 H 0.335479 0.463383 0.212051
H4 H 0.340372 0.471521 0.112822
H5 H 0.345794 0.434971 0.152622
C2 C 0.4314(12) 0.5048(16) 0.123(3)
H6 H 0.455640 0.525347 0.155149
H7 H 0.434568 0.480771 0.110700
H8 H 0.429146 0.517320 0.070900
N1_2 N 0.5082(16) 0.9028(21) 0.173(3)
H1_2 H 0.483893 0.879548 0.185567
H2_2 H 0.516902 0.917455 0.221512
C1_2 C 0.5369(14) 0.8874(19) 0.162(5)
H3_2 H 0.536617 0.872096 0.212051
H4_2 H 0.528479 0.868851 0.112822
H5_2 H 0.565029 0.910823 0.152622
C2_2 C 0.4952(16) 0.9266(20) 0.123(3)
H6_2 H 0.474653 0.930293 0.155149
H7_2 H 0.519229 0.953797 0.110700
H8_2 H 0.482680 0.911826 0.070900
N1_3 N 0.0972(21) 0.6054(13) 0.173(3)
H1_3 H 0.120452 0.604345 0.185567
H2_3 H 0.082545 0.599447 0.221512
C1_3 C 0.1126(19) 0.6495(13) 0.162(5)
H3_3 H 0.127904 0.664521 0.212051
H4_3 H 0.131149 0.659628 0.112822
H5_3 H 0.089177 0.654206 0.152622
C2_3 C 0.0734(20) 0.5686(12) 0.123(3)
H6_3 H 0.069707 0.544360 0.155149
H7_3 H 0.046203 0.565432 0.110700
H8_3 H 0.088174 0.570854 0.070900
N1_4 N 0.4918(16) 0.3946(13) 0.827(3)
H1_4 H 0.516107 0.395655 0.814433
H2_4 H 0.483098 0.400553 0.778488
C1_4 C 0.4631(14) 0.3505(13) 0.838(5)
H3_4 H 0.463383 0.335479 0.787949
H4_4 H 0.471521 0.340372 0.887178
H5_4 H 0.434971 0.345794 0.847378
C2_4 C 0.5048(16) 0.4314(12) 0.877(3)
H6_4 H 0.525347 0.455640 0.844851
H7_4 H 0.480771 0.434568 0.889300
H8_4 H 0.517320 0.429146 0.929100
N1_5 N 0.9028(21) 0.5082(16) 0.827(3)
H1_5 H 0.879548 0.483893 0.814433
H2_5 H 0.917455 0.516902 0.778488
C1_5 C 0.8874(19) 0.5369(14) 0.838(5)
H3_5 H 0.872096 0.536617 0.787949
H4_5 H 0.868851 0.528479 0.887178
H5_5 H 0.910823 0.565029 0.847378
C2_5 C 0.9266(20) 0.4952(16) 0.877(3)
H6_5 H 0.930293 0.474653 0.844851
H7_5 H 0.953797 0.519229 0.889300
H8_5 H 0.911826 0.482680 0.929100
N1_6 N 0.6054(13) 0.0972(21) 0.827(3)
H1_6 H 0.604345 0.120452 0.814433
H2_6 H 0.599447 0.082545 0.778488
C1_6 C 0.6495(13) 0.1126(19) 0.838(5)
H3_6 H 0.664521 0.127904 0.787949
H4_6 H 0.659628 0.131149 0.887178
H5_6 H 0.654206 0.089177 0.847378
C2_6 C 0.5686(12) 0.0734(20) 0.877(3)
H6_6 H 0.544360 0.069707 0.844851
H7_6 H 0.565432 0.046203 0.889300
H8_6 H 0.570854 0.088174 0.929100
N1_7 N 0.0613(13) 0.8251(16) 0.506(3)
H1_7 H 0.062322 0.849440 0.518900
H2_7 H 0.067220 0.816431 0.554845
C1_7 C 0.0172(13) 0.7964(14) 0.495(5)
H3_7 H 0.002146 0.796716 0.545384
H4_7 H 0.007039 0.804854 0.446155
H5_7 H 0.012461 0.768304 0.485955
C2_7 C 0.0981(12) 0.8381(16) 0.456(3)
H6_7 H 0.122307 0.858680 0.488482
H7_7 H 0.101235 0.814104 0.444033
H8_7 H 0.095813 0.850653 0.404233
N1_8 N 0.1749(16) 0.2361(21) 0.506(3)
H1_8 H 0.150560 0.212881 0.518900
H2_8 H 0.183569 0.250788 0.554845
C1_8 C 0.2036(14) 0.2207(19) 0.495(5)
H3_8 H 0.203284 0.205429 0.545384
H4_8 H 0.195146 0.202184 0.446155
H5_8 H 0.231696 0.244156 0.485955
C2_8 C 0.1619(16) 0.2599(20) 0.456(3)
H6_8 H 0.141320 0.263626 0.488482
H7_8 H 0.185896 0.287130 0.444033
H8_8 H 0.149347 0.245159 0.404233
N1_9 N 0.7639(21) 0.9387(13) 0.506(3)
H1_9 H 0.787119 0.937678 0.518900
H2_9 H 0.749212 0.932780 0.554845
C1_9 C 0.7793(19) 0.9828(13) 0.495(5)
H3_9 H 0.794571 0.997854 0.545384
H4_9 H 0.797816 0.992961 0.446155
H5_9 H 0.755844 0.987539 0.485955
C2_9 C 0.7401(20) 0.9019(12) 0.456(3)
H6_9 H 0.736374 0.877693 0.488482
H7_9 H 0.712870 0.898765 0.444033
H8_9 H 0.754841 0.904187 0.404233
N1_10 N 0.1585(16) 0.7279(13) 0.160(3)
H1_10 H 0.182774 0.728988 0.147766
H2_10 H 0.149765 0.733886 0.111821
C1_10 C 0.1298(14) 0.6838(13) 0.171(5)
H3_10 H 0.130050 0.668812 0.121282
H4_10 H 0.138188 0.673705 0.220511
H5_10 H 0.101638 0.679127 0.180711
C2_10 C 0.1715(16) 0.7647(12) 0.210(3)
H6_10 H 0.192014 0.788973 0.178184
H7_10 H 0.147438 0.767901 0.222633
H8_10 H 0.183987 0.762479 0.262433
N1_11 N 0.5695(21) 0.8415(16) 0.160(3)
H1_11 H 0.546215 0.817226 0.147766
H2_11 H 0.584122 0.850235 0.111821
C1_11 C 0.5541(19) 0.8702(14) 0.171(5)
H3_11 H 0.538763 0.869950 0.121282
H4_11 H 0.535518 0.861812 0.220511
H5_11 H 0.577490 0.898362 0.180711
C2_11 C 0.5933(20) 0.8285(16) 0.210(3)
H6_11 H 0.596960 0.807986 0.178184
H7_11 H 0.620464 0.852562 0.222633
H8_11 H 0.578493 0.816013 0.262433
N1_12 N 0.2721(13) 0.4305(21) 0.160(3)
H1_12 H 0.271012 0.453785 0.147766
H2_12 H 0.266114 0.415878 0.111821
C1_12 C 0.3162(13) 0.4459(19) 0.171(5)
H3_12 H 0.331188 0.461237 0.121282
H4_12 H 0.326295 0.464482 0.220511
H5_12 H 0.320873 0.422510 0.180711
C2_12 C 0.2353(12) 0.4067(20) 0.210(3)
H6_12 H 0.211027 0.403040 0.178184
H7_12 H 0.232099 0.379536 0.222633
H8_12 H 0.237521 0.421507 0.262433
N1_13 N 0.7279(13) 0.1585(16) 0.840(3)
H1_13 H 0.728988 0.182774 0.852234
H2_13 H 0.733886 0.149765 0.888179
C1_13 C 0.6838(13) 0.1298(14) 0.829(5)
H3_13 H 0.668812 0.130050 0.878718
H4_13 H 0.673705 0.138188 0.779489
H5_13 H 0.679127 0.101638 0.819289
C2_13 C 0.7647(12) 0.1715(16) 0.790(3)
H6_13 H 0.788973 0.192014 0.821816
H7_13 H 0.767901 0.147438 0.777367
H8_13 H 0.762479 0.183987 0.737567
N1_14 N 0.8415(16) 0.5695(21) 0.840(3)
H1_14 H 0.817226 0.546215 0.852234
H2_14 H 0.850235 0.584122 0.888179
C1_14 C 0.8702(14) 0.5541(19) 0.829(5)
H3_14 H 0.869950 0.538763 0.878718
H4_14 H 0.861812 0.535518 0.779489
H5_14 H 0.898362 0.577490 0.819289
C2_14 C 0.8285(16) 0.5933(20) 0.790(3)
H6_14 H 0.807986 0.596960 0.821816
H7_14 H 0.852562 0.620464 0.777367
H8_14 H 0.816013 0.578493 0.737567
N1_15 N 0.4305(21) 0.2721(13) 0.840(3)
H1_15 H 0.453785 0.271012 0.852234
H2_15 H 0.415878 0.266114 0.888179
C1_15 C 0.4459(19) 0.3162(13) 0.829(5)
H3_15 H 0.461237 0.331188 0.878718
H4_15 H 0.464482 0.326295 0.779489
H5_15 H 0.422510 0.320873 0.819289
C2_15 C 0.4067(20) 0.2353(12) 0.790(3)
H6_15 H 0.403040 0.211027 0.821816
H7_15 H 0.379536 0.232099 0.777367
H8_15 H 0.421507 0.237521 0.737567
N1_16 N 0.8251(16) 0.0613(13) 0.494(3)
H1_16 H 0.849440 0.062322 0.481100
H2_16 H 0.816431 0.067220 0.445155
C1_16 C 0.7964(14) 0.0172(13) 0.505(5)
H3_16 H 0.796716 0.002146 0.454616
H4_16 H 0.804854 0.007039 0.553845
H5_16 H 0.768304 0.012461 0.514045
C2_16 C 0.8381(16) 0.0981(12) 0.544(3)
H6_16 H 0.858680 0.122307 0.511518
H7_16 H 0.814104 0.101235 0.555967
H8_16 H 0.850653 0.095813 0.595767
N1_17 N 0.2361(21) 0.1749(16) 0.494(3)
H1_17 H 0.212881 0.150560 0.481100
H2_17 H 0.250788 0.183569 0.445155
C1_17 C 0.2207(19) 0.2036(14) 0.505(5)
H3_17 H 0.205429 0.203284 0.454616
H4_17 H 0.202184 0.195146 0.553845
H5_17 H 0.244156 0.231696 0.514045
C2_17 C 0.2599(20) 0.1619(16) 0.544(3)
H6_17 H 0.263626 0.141320 0.511518
H7_17 H 0.287130 0.185896 0.555967
H8_17 H 0.245159 0.149347 0.595767
N1_18 N 0.9387(13) 0.7639(21) 0.494(3)
H1_18 H 0.937678 0.787119 0.481100
H2_18 H 0.932780 0.749212 0.445155
C1_18 C 0.9828(13) 0.7793(19) 0.505(5)
H3_18 H 0.997854 0.794571 0.454616
H4_18 H 0.992961 0.797816 0.553845
H5_18 H 0.987539 0.755844 0.514045
C2_18 C 0.9019(12) 0.7401(20) 0.544(3)
H6_18 H 0.877693 0.736374 0.511518
H7_18 H 0.898765 0.712870 0.555967
H8_18 H 0.904187 0.754841 0.595767
N1_19 N 0.6054(13) 0.5082(16) 0.827(3)
H1_19 H 0.604345 0.483893 0.814433
H2_19 H 0.599447 0.516902 0.778488
C1_19 C 0.6495(13) 0.5369(14) 0.838(5)
H3_19 H 0.664521 0.536617 0.787949
H4_19 H 0.659628 0.528479 0.887178
H5_19 H 0.654206 0.565029 0.847378
C2_19 C 0.5686(12) 0.4952(16) 0.877(3)
H6_19 H 0.544360 0.474653 0.844851
H7_19 H 0.565432 0.519229 0.889300
H8_19 H 0.570854 0.482680 0.929100
N1_20 N 0.4918(16) 0.0972(21) 0.827(3)
H1_20 H 0.516107 0.120452 0.814433
H2_20 H 0.483098 0.082545 0.778488
C1_20 C 0.4631(14) 0.1126(19) 0.838(5)
H3_20 H 0.463383 0.127904 0.787949
H4_20 H 0.471521 0.131149 0.887178
H5_20 H 0.434971 0.089177 0.847378
C2_20 C 0.5048(16) 0.0734(20) 0.877(3)
H6_20 H 0.525347 0.069707 0.844851
H7_20 H 0.480771 0.046203 0.889300
H8_20 H 0.517320 0.088174 0.929100
N1_21 N 0.9028(21) 0.3946(13) 0.827(3)
H1_21 H 0.879548 0.395655 0.814433
H2_21 H 0.917455 0.400553 0.778488
C1_21 C 0.8874(19) 0.3505(13) 0.838(5)
H3_21 H 0.872096 0.335479 0.787949
H4_21 H 0.868851 0.340372 0.887178
H5_21 H 0.910823 0.345794 0.847378
C2_21 C 0.9266(20) 0.4314(12) 0.877(3)
H6_21 H 0.930293 0.455640 0.844851
H7_21 H 0.953797 0.434568 0.889300
H8_21 H 0.911826 0.429146 0.929100
N1_22 N 0.5082(16) 0.6054(13) 0.173(3)
H1_22 H 0.483893 0.604345 0.185567
H2_22 H 0.516902 0.599447 0.221512
C1_22 C 0.5369(14) 0.6495(13) 0.162(5)
H3_22 H 0.536617 0.664521 0.212051
H4_22 H 0.528479 0.659628 0.112822
H5_22 H 0.565029 0.654206 0.152622
C2_22 C 0.4952(16) 0.5686(12) 0.123(3)
H6_22 H 0.474653 0.544360 0.155149
H7_22 H 0.519229 0.565432 0.110700
H8_22 H 0.482680 0.570854 0.070900
N1_23 N 0.0972(21) 0.4918(16) 0.173(3)
H1_23 H 0.120452 0.516107 0.185567
H2_23 H 0.082545 0.483098 0.221512
C1_23 C 0.1126(19) 0.4631(14) 0.162(5)
H3_23 H 0.127904 0.463383 0.212051
H4_23 H 0.131149 0.471521 0.112822
H5_23 H 0.089177 0.434971 0.152622
C2_23 C 0.0734(20) 0.5048(16) 0.123(3)
H6_23 H 0.069707 0.525347 0.155149
H7_23 H 0.046203 0.480771 0.110700
H8_23 H 0.088174 0.517320 0.070900
N1_24 N 0.3946(13) 0.9028(21) 0.173(3)
H1_24 H 0.395655 0.879548 0.185567
H2_24 H 0.400553 0.917455 0.221512
C1_24 C 0.3505(13) 0.8874(19) 0.162(5)
H3_24 H 0.335479 0.872096 0.212051
H4_24 H 0.340372 0.868851 0.112822
H5_24 H 0.345794 0.910823 0.152622
C2_24 C 0.4314(12) 0.9266(20) 0.123(3)
H6_24 H 0.455640 0.930293 0.155149
H7_24 H 0.434568 0.953797 0.110700
H8_24 H 0.429146 0.911826 0.070900
N1_25 N 0.9387(13) 0.1749(16) 0.494(3)
H1_25 H 0.937678 0.150560 0.481100
H2_25 H 0.932780 0.183569 0.445155
C1_25 C 0.9828(13) 0.2036(14) 0.505(5)
H3_25 H 0.997854 0.203284 0.454616
H4_25 H 0.992961 0.195146 0.553845
H5_25 H 0.987539 0.231696 0.514045
C2_25 C 0.9019(12) 0.1619(16) 0.544(3)
H6_25 H 0.877693 0.141320 0.511518
H7_25 H 0.898765 0.185896 0.555967
H8_25 H 0.904187 0.149347 0.595767
N1_26 N 0.8251(16) 0.7639(21) 0.494(3)
H1_26 H 0.849440 0.787119 0.481100
H2_26 H 0.816431 0.749212 0.445155
C1_26 C 0.7964(14) 0.7793(19) 0.505(5)
H3_26 H 0.796716 0.794571 0.454616
H4_26 H 0.804854 0.797816 0.553845
H5_26 H 0.768304 0.755844 0.514045
C2_26 C 0.8381(16) 0.7401(20) 0.544(3)
H6_26 H 0.858680 0.736374 0.511518
H7_26 H 0.814104 0.712870 0.555967
H8_26 H 0.850653 0.754841 0.595767
N1_27 N 0.2361(21) 0.0613(13) 0.494(3)
H1_27 H 0.212881 0.062322 0.481100
H2_27 H 0.250788 0.067220 0.445155
C1_27 C 0.2207(19) 0.0172(13) 0.505(5)
H3_27 H 0.205429 0.002146 0.454616
H4_27 H 0.202184 0.007039 0.553845
H5_27 H 0.244156 0.012461 0.514045
C2_27 C 0.2599(20) 0.0981(12) 0.544(3)
H6_27 H 0.263626 0.122307 0.511518
H7_27 H 0.287130 0.101235 0.555967
H8_27 H 0.245159 0.095813 0.595767
N1_28 N 0.8415(16) 0.2721(13) 0.840(3)
H1_28 H 0.817226 0.271012 0.852234
H2_28 H 0.850235 0.266114 0.888179
C1_28 C 0.8702(14) 0.3162(13) 0.829(5)
H3_28 H 0.869950 0.331188 0.878718
H4_28 H 0.861812 0.326295 0.779489
H5_28 H 0.898362 0.320873 0.819289
C2_28 C 0.8285(16) 0.2353(12) 0.790(3)
H6_28 H 0.807986 0.211027 0.821816
H7_28 H 0.852562 0.232099 0.777367
H8_28 H 0.816013 0.237521 0.737567
N1_29 N 0.4305(21) 0.1585(16) 0.840(3)
H1_29 H 0.453785 0.182774 0.852234
H2_29 H 0.415878 0.149765 0.888179
C1_29 C 0.4459(19) 0.1298(14) 0.829(5)
H3_29 H 0.461237 0.130050 0.878718
H4_29 H 0.464482 0.138188 0.779489
H5_29 H 0.422510 0.101638 0.819289
C2_29 C 0.4067(20) 0.1715(16) 0.790(3)
H6_29 H 0.403040 0.192014 0.821816
H7_29 H 0.379536 0.147438 0.777367
H8_29 H 0.421507 0.183987 0.737567
N1_30 N 0.7279(13) 0.5695(21) 0.840(3)
H1_30 H 0.728988 0.546215 0.852234
H2_30 H 0.733886 0.584122 0.888179
C1_30 C 0.6838(13) 0.5541(19) 0.829(5)
H3_30 H 0.668812 0.538763 0.878718
H4_30 H 0.673705 0.535518 0.779489
H5_30 H 0.679127 0.577490 0.819289
C2_30 C 0.7647(12) 0.5933(20) 0.790(3)
H6_30 H 0.788973 0.596960 0.821816
H7_30 H 0.767901 0.620464 0.777367
H8_30 H 0.762479 0.578493 0.737567
N1_31 N 0.2721(13) 0.8415(16) 0.160(3)
H1_31 H 0.271012 0.817226 0.147766
H2_31 H 0.266114 0.850235 0.111821
C1_31 C 0.3162(13) 0.8702(14) 0.171(5)
H3_31 H 0.331188 0.869950 0.121282
H4_31 H 0.326295 0.861812 0.220511
H5_31 H 0.320873 0.898362 0.180711
C2_31 C 0.2353(12) 0.8285(16) 0.210(3)
H6_31 H 0.211027 0.807986 0.178184
H7_31 H 0.232099 0.852562 0.222633
H8_31 H 0.237521 0.816013 0.262433
N1_32 N 0.1585(16) 0.4305(21) 0.160(3)
H1_32 H 0.182774 0.453785 0.147766
H2_32 H 0.149765 0.415878 0.111821
C1_32 C 0.1298(14) 0.4459(19) 0.171(5)
H3_32 H 0.130050 0.461237 0.121282
H4_32 H 0.138188 0.464482 0.220511
H5_32 H 0.101638 0.422510 0.180711
C2_32 C 0.1715(16) 0.4067(20) 0.210(3)
H6_32 H 0.192014 0.403040 0.178184
H7_32 H 0.147438 0.379536 0.222633
H8_32 H 0.183987 0.421507 0.262433
N1_33 N 0.5695(21) 0.7279(13) 0.160(3)
H1_33 H 0.546215 0.728988 0.147766
H2_33 H 0.584122 0.733886 0.111821
C1_33 C 0.5541(19) 0.6838(13) 0.171(5)
H3_33 H 0.538763 0.668812 0.121282
H4_33 H 0.535518 0.673705 0.220511
H5_33 H 0.577490 0.679127 0.180711
C2_33 C 0.5933(20) 0.7647(12) 0.210(3)
H6_33 H 0.596960 0.788973 0.178184
H7_33 H 0.620464 0.767901 0.222633
H8_33 H 0.578493 0.762479 0.262433
N1_34 N 0.1749(16) 0.9387(13) 0.506(3)
H1_34 H 0.150560 0.937678 0.518900
H2_34 H 0.183569 0.932780 0.554845
C1_34 C 0.2036(14) 0.9828(13) 0.495(5)
H3_34 H 0.203284 0.997854 0.545384
H4_34 H 0.195146 0.992961 0.446155
H5_34 H 0.231696 0.987539 0.485955
C2_34 C 0.1619(16) 0.9019(12) 0.456(3)
H6_34 H 0.141320 0.877693 0.488482
H7_34 H 0.185896 0.898765 0.444033
H8_34 H 0.149347 0.904187 0.404233
N1_35 N 0.7639(21) 0.8251(16) 0.506(3)
H1_35 H 0.787119 0.849440 0.518900
H2_35 H 0.749212 0.816431 0.554845
C1_35 C 0.7793(19) 0.7964(14) 0.495(5)
H3_35 H 0.794571 0.796716 0.545384
H4_35 H 0.797816 0.804854 0.446155
H5_35 H 0.755844 0.768304 0.485955
C2_35 C 0.7401(20) 0.8381(16) 0.456(3)
H6_35 H 0.736374 0.858680 0.488482
H7_35 H 0.712870 0.814104 0.444033
H8_35 H 0.754841 0.850653 0.404233
N1_36 N 0.0613(13) 0.2361(21) 0.506(3)
H1_36 H 0.062322 0.212881 0.518900
H2_36 H 0.067220 0.250788 0.554845
C1_36 C 0.0172(13) 0.2207(19) 0.495(5)
H3_36 H 0.002146 0.205429 0.545384
H4_36 H 0.007039 0.202184 0.446155
H5_36 H 0.012461 0.244156 0.485955
C2_36 C 0.0981(12) 0.2599(20) 0.456(3)
H6_36 H 0.122307 0.263626 0.488482
H7_36 H 0.101235 0.287130 0.444033
H8_36 H 0.095813 0.245159 0.404233
N2 N 0.2721(13) 0.4305(21) 0.160(3)
H9 H 0.271012 0.453785 0.147766
H10 H 0.266114 0.415878 0.111821
C3 C 0.3162(13) 0.4459(19) 0.171(5)
H11 H 0.331188 0.461237 0.121282
H12 H 0.326295 0.464482 0.220511
H13 H 0.320873 0.422510 0.180711
C4 C 0.2353(12) 0.4067(20) 0.210(3)
H14 H 0.211027 0.403040 0.178184
H15 H 0.232099 0.379536 0.222633
H16 H 0.237521 0.421507 0.262433
N2_2 N 0.5695(21) 0.8415(25) 0.160(3)
H9_2 H 0.546215 0.817226 0.147766
H10_2 H 0.584122 0.850235 0.111821
C3_2 C 0.5541(19) 0.8702(23) 0.171(5)
H11_2 H 0.538763 0.869950 0.121282
H12_2 H 0.535518 0.861812 0.220511
H13_2 H 0.577490 0.898362 0.180711
C4_2 C 0.5933(20) 0.8285(23) 0.210(3)
H14_2 H 0.596960 0.807986 0.178184
H15_2 H 0.620464 0.852562 0.222633
H16_2 H 0.578493 0.816013 0.262433
N2_3 N 0.1585(25) 0.7279(13) 0.160(3)
H9_3 H 0.182774 0.728988 0.147766
H10_3 H 0.149765 0.733886 0.111821
C3_3 C 0.1298(23) 0.6838(13) 0.171(5)
H11_3 H 0.130050 0.668812 0.121282
H12_3 H 0.138188 0.673705 0.220511
H13_3 H 0.101638 0.679127 0.180711
C4_3 C 0.1715(23) 0.7647(12) 0.210(3)
H14_3 H 0.192014 0.788973 0.178184
H15_3 H 0.147438 0.767901 0.222633
H16_3 H 0.183987 0.762479 0.262433
N2_4 N 0.4305(21) 0.2721(13) 0.840(3)
H9_4 H 0.453785 0.271012 0.852234
H10_4 H 0.415878 0.266114 0.888179
C3_4 C 0.4459(19) 0.3162(13) 0.829(5)
H11_4 H 0.461237 0.331188 0.878718
H12_4 H 0.464482 0.326295 0.779489
H13_4 H 0.422510 0.320873 0.819289
C4_4 C 0.4067(20) 0.2353(12) 0.790(3)
H14_4 H 0.403040 0.211027 0.821816
H15_4 H 0.379536 0.232099 0.777367
H16_4 H 0.421507 0.237521 0.737567
N2_5 N 0.8415(25) 0.5695(21) 0.840(3)
H9_5 H 0.817226 0.546215 0.852234
H10_5 H 0.850235 0.584122 0.888179
C3_5 C 0.8702(23) 0.5541(19) 0.829(5)
H11_5 H 0.869950 0.538763 0.878718
H12_5 H 0.861812 0.535518 0.779489
H13_5 H 0.898362 0.577490 0.819289
C4_5 C 0.8285(23) 0.5933(20) 0.790(3)
H14_5 H 0.807986 0.596960 0.821816
H15_5 H 0.852562 0.620464 0.777367
H16_5 H 0.816013 0.578493 0.737567
N2_6 N 0.7279(13) 0.1585(25) 0.840(3)
H9_6 H 0.728988 0.182774 0.852234
H10_6 H 0.733886 0.149765 0.888179
C3_6 C 0.6838(13) 0.1298(23) 0.829(5)
H11_6 H 0.668812 0.130050 0.878718
H12_6 H 0.673705 0.138188 0.779489
H13_6 H 0.679127 0.101638 0.819289
C4_6 C 0.7647(12) 0.1715(23) 0.790(3)
H14_6 H 0.788973 0.192014 0.821816
H15_6 H 0.767901 0.147438 0.777367
H16_6 H 0.762479 0.183987 0.737567
N2_7 N 0.9387(13) 0.7639(21) 0.494(3)
H9_7 H 0.937678 0.787119 0.481100
H10_7 H 0.932780 0.749212 0.445155
C3_7 C 0.9828(13) 0.7793(19) 0.505(5)
H11_7 H 0.997854 0.794571 0.454616
H12_7 H 0.992961 0.797816 0.553845
H13_7 H 0.987539 0.755844 0.514045
C4_7 C 0.9019(12) 0.7401(20) 0.544(3)
H14_7 H 0.877693 0.736374 0.511518
H15_7 H 0.898765 0.712870 0.555967
H16_7 H 0.904187 0.754841 0.595767
N2_8 N 0.2361(21) 0.1749(25) 0.494(3)
H9_8 H 0.212881 0.150560 0.481100
H10_8 H 0.250788 0.183569 0.445155
C3_8 C 0.2207(19) 0.2036(23) 0.505(5)
H11_8 H 0.205429 0.203284 0.454616
H12_8 H 0.202184 0.195146 0.553845
H13_8 H 0.244156 0.231696 0.514045
C4_8 C 0.2599(20) 0.1619(23) 0.544(3)
H14_8 H 0.263626 0.141320 0.511518
H15_8 H 0.287130 0.185896 0.555967
H16_8 H 0.245159 0.149347 0.595767
N2_9 N 0.8251(25) 0.0613(13) 0.494(3)
H9_9 H 0.849440 0.062322 0.481100
H10_9 H 0.816431 0.067220 0.445155
C3_9 C 0.7964(23) 0.0172(13) 0.505(5)
H11_9 H 0.796716 0.002146 0.454616
H12_9 H 0.804854 0.007039 0.553845
H13_9 H 0.768304 0.012461 0.514045
C4_9 C 0.8381(23) 0.0981(12) 0.544(3)
H14_9 H 0.858680 0.122307 0.511518
H15_9 H 0.814104 0.101235 0.555967
H16_9 H 0.850653 0.095813 0.595767
N2_10 N 0.0972(21) 0.6054(13) 0.173(3)
H9_10 H 0.120452 0.604345 0.185567
H10_10 H 0.082545 0.599447 0.221512
C3_10 C 0.1126(19) 0.6495(13) 0.162(5)
H11_10 H 0.127904 0.664521 0.212051
H12_10 H 0.131149 0.659628 0.112822
H13_10 H 0.089177 0.654206 0.152622
C4_10 C 0.0734(20) 0.5686(12) 0.123(3)
H14_10 H 0.069707 0.544360 0.155149
H15_10 H 0.046203 0.565432 0.110700
H16_10 H 0.088174 0.570854 0.070900
N2_11 N 0.5082(25) 0.9028(21) 0.173(3)
H9_11 H 0.483893 0.879548 0.185567
H10_11 H 0.516902 0.917455 0.221512
C3_11 C 0.5369(23) 0.8874(19) 0.162(5)
H11_11 H 0.536617 0.872096 0.212051
H12_11 H 0.528479 0.868851 0.112822
H13_11 H 0.565029 0.910823 0.152622
C4_11 C 0.4952(23) 0.9266(20) 0.123(3)
H14_11 H 0.474653 0.930293 0.155149
H15_11 H 0.519229 0.953797 0.110700
H16_11 H 0.482680 0.911826 0.070900
N2_12 N 0.3946(13) 0.4918(25) 0.173(3)
H9_12 H 0.395655 0.516107 0.185567
H10_12 H 0.400553 0.483098 0.221512
C3_12 C 0.3505(13) 0.4631(23) 0.162(5)
H11_12 H 0.335479 0.463383 0.212051
H12_12 H 0.340372 0.471521 0.112822
H13_12 H 0.345794 0.434971 0.152622
C4_12 C 0.4314(12) 0.5048(23) 0.123(3)
H14_12 H 0.455640 0.525347 0.155149
H15_12 H 0.434568 0.480771 0.110700
H16_12 H 0.429146 0.517320 0.070900
N2_13 N 0.6054(13) 0.0972(21) 0.827(3)
H9_13 H 0.604345 0.120452 0.814433
H10_13 H 0.599447 0.082545 0.778488
C3_13 C 0.6495(13) 0.1126(19) 0.838(5)
H11_13 H 0.664521 0.127904 0.787949
H12_13 H 0.659628 0.131149 0.887178
H13_13 H 0.654206 0.089177 0.847378
C4_13 C 0.5686(12) 0.0734(20) 0.877(3)
H14_13 H 0.544360 0.069707 0.844851
H15_13 H 0.565432 0.046203 0.889300
H16_13 H 0.570854 0.088174 0.929100
N2_14 N 0.9028(21) 0.5082(25) 0.827(3)
H9_14 H 0.879548 0.483893 0.814433
H10_14 H 0.917455 0.516902 0.778488
C3_14 C 0.8874(19) 0.5369(23) 0.838(5)
H11_14 H 0.872096 0.536617 0.787949
H12_14 H 0.868851 0.528479 0.887178
H13_14 H 0.910823 0.565029 0.847378
C4_14 C 0.9266(20) 0.4952(23) 0.877(3)
H14_14 H 0.930293 0.474653 0.844851
H15_14 H 0.953797 0.519229 0.889300
H16_14 H 0.911826 0.482680 0.929100
N2_15 N 0.4918(25) 0.3946(13) 0.827(3)
H9_15 H 0.516107 0.395655 0.814433
H10_15 H 0.483098 0.400553 0.778488
C3_15 C 0.4631(23) 0.3505(13) 0.838(5)
H11_15 H 0.463383 0.335479 0.787949
H12_15 H 0.471521 0.340372 0.887178
H13_15 H 0.434971 0.345794 0.847378
C4_15 C 0.5048(23) 0.4314(12) 0.877(3)
H14_15 H 0.525347 0.455640 0.844851
H15_15 H 0.480771 0.434568 0.889300
H16_15 H 0.517320 0.429146 0.929100
N2_16 N 0.7639(21) 0.9387(13) 0.506(3)
H9_16 H 0.787119 0.937678 0.518900
H10_16 H 0.749212 0.932780 0.554845
C3_16 C 0.7793(19) 0.9828(13) 0.495(5)
H11_16 H 0.794571 0.997854 0.545384
H12_16 H 0.797816 0.992961 0.446155
H13_16 H 0.755844 0.987539 0.485955
C4_16 C 0.7401(20) 0.9019(12) 0.456(3)
H14_16 H 0.736374 0.877693 0.488482
H15_16 H 0.712870 0.898765 0.444033
H16_16 H 0.754841 0.904187 0.404233
N2_17 N 0.1749(25) 0.2361(21) 0.506(3)
H9_17 H 0.150560 0.212881 0.518900
H10_17 H 0.183569 0.250788 0.554845
C3_17 C 0.2036(23) 0.2207(19) 0.495(5)
H11_17 H 0.203284 0.205429 0.545384
H12_17 H 0.195146 0.202184 0.446155
H13_17 H 0.231696 0.244156 0.485955
C4_17 C 0.1619(23) 0.2599(20) 0.456(3)
H14_17 H 0.141320 0.263626 0.488482
H15_17 H 0.185896 0.287130 0.444033
H16_17 H 0.149347 0.245159 0.404233
N2_18 N 0.0613(13) 0.8251(25) 0.506(3)
H9_18 H 0.062322 0.849440 0.518900
H10_18 H 0.067220 0.816431 0.554845
C3_18 C 0.0172(13) 0.7964(23) 0.495(5)
H11_18 H 0.002146 0.796716 0.545384
H12_18 H 0.007039 0.804854 0.446155
H13_18 H 0.012461 0.768304 0.485955
C4_18 C 0.0981(12) 0.8381(23) 0.456(3)
H14_18 H 0.122307 0.858680 0.488482
H15_18 H 0.101235 0.814104 0.444033
H16_18 H 0.095813 0.850653 0.404233
N2_19 N 0.7279(13) 0.5695(21) 0.840(3)
H9_19 H 0.728988 0.546215 0.852234
H10_19 H 0.733886 0.584122 0.888179
C3_19 C 0.6838(13) 0.5541(19) 0.829(5)
H11_19 H 0.668812 0.538763 0.878718
H12_19 H 0.673705 0.535518 0.779489
H13_19 H 0.679127 0.577490 0.819289
C4_19 C 0.7647(12) 0.5933(20) 0.790(3)
H14_19 H 0.788973 0.596960 0.821816
H15_19 H 0.767901 0.620464 0.777367
H16_19 H 0.762479 0.578493 0.737567
N2_20 N 0.4305(21) 0.1585(25) 0.840(3)
H9_20 H 0.453785 0.182774 0.852234
H10_20 H 0.415878 0.149765 0.888179
C3_20 C 0.4459(19) 0.1298(23) 0.829(5)
H11_20 H 0.461237 0.130050 0.878718
H12_20 H 0.464482 0.138188 0.779489
H13_20 H 0.422510 0.101638 0.819289
C4_20 C 0.4067(20) 0.1715(23) 0.790(3)
H14_20 H 0.403040 0.192014 0.821816
H15_20 H 0.379536 0.147438 0.777367
H16_20 H 0.421507 0.183987 0.737567
N2_21 N 0.8415(25) 0.2721(13) 0.840(3)
H9_21 H 0.817226 0.271012 0.852234
H10_21 H 0.850235 0.266114 0.888179
C3_21 C 0.8702(23) 0.3162(13) 0.829(5)
H11_21 H 0.869950 0.331188 0.878718
H12_21 H 0.861812 0.326295 0.779489
H13_21 H 0.898362 0.320873 0.819289
C4_21 C 0.8285(23) 0.2353(12) 0.790(3)
H14_21 H 0.807986 0.211027 0.821816
H15_21 H 0.852562 0.232099 0.777367
H16_21 H 0.816013 0.237521 0.737567
N2_22 N 0.5695(21) 0.7279(13) 0.160(3)
H9_22 H 0.546215 0.728988 0.147766
H10_22 H 0.584122 0.733886 0.111821
C3_22 C 0.5541(19) 0.6838(13) 0.171(5)
H11_22 H 0.538763 0.668812 0.121282
H12_22 H 0.535518 0.673705 0.220511
H13_22 H 0.577490 0.679127 0.180711
C4_22 C 0.5933(20) 0.7647(12) 0.210(3)
H14_22 H 0.596960 0.788973 0.178184
H15_22 H 0.620464 0.767901 0.222633
H16_22 H 0.578493 0.762479 0.262433
N2_23 N 0.1585(25) 0.4305(21) 0.160(3)
H9_23 H 0.182774 0.453785 0.147766
H10_23 H 0.149765 0.415878 0.111821
C3_23 C 0.1298(23) 0.4459(19) 0.171(5)
H11_23 H 0.130050 0.461237 0.121282
H12_23 H 0.138188 0.464482 0.220511
H13_23 H 0.101638 0.422510 0.180711
C4_23 C 0.1715(23) 0.4067(20) 0.210(3)
H14_23 H 0.192014 0.403040 0.178184
H15_23 H 0.147438 0.379536 0.222633
H16_23 H 0.183987 0.421507 0.262433
N2_24 N 0.2721(13) 0.8415(25) 0.160(3)
H9_24 H 0.271012 0.817226 0.147766
H10_24 H 0.266114 0.850235 0.111821
C3_24 C 0.3162(13) 0.8702(23) 0.171(5)
H11_24 H 0.331188 0.869950 0.121282
H12_24 H 0.326295 0.861812 0.220511
H13_24 H 0.320873 0.898362 0.180711
C4_24 C 0.2353(12) 0.8285(23) 0.210(3)
H14_24 H 0.211027 0.807986 0.178184
H15_24 H 0.232099 0.852562 0.222633
H16_24 H 0.237521 0.816013 0.262433
N2_25 N 0.0613(13) 0.2361(21) 0.506(3)
H9_25 H 0.062322 0.212881 0.518900
H10_25 H 0.067220 0.250788 0.554845
C3_25 C 0.0172(13) 0.2207(19) 0.495(5)
H11_25 H 0.002146 0.205429 0.545384
H12_25 H 0.007039 0.202184 0.446155
H13_25 H 0.012461 0.244156 0.485955
C4_25 C 0.0981(12) 0.2599(20) 0.456(3)
H14_25 H 0.122307 0.263626 0.488482
H15_25 H 0.101235 0.287130 0.444033
H16_25 H 0.095813 0.245159 0.404233
N2_26 N 0.7639(21) 0.8251(25) 0.506(3)
H9_26 H 0.787119 0.849440 0.518900
H10_26 H 0.749212 0.816431 0.554845
C3_26 C 0.7793(19) 0.7964(23) 0.495(5)
H11_26 H 0.794571 0.796716 0.545384
H12_26 H 0.797816 0.804854 0.446155
H13_26 H 0.755844 0.768304 0.485955
C4_26 C 0.7401(20) 0.8381(23) 0.456(3)
H14_26 H 0.736374 0.858680 0.488482
H15_26 H 0.712870 0.814104 0.444033
H16_26 H 0.754841 0.850653 0.404233
N2_27 N 0.1749(25) 0.9387(13) 0.506(3)
H9_27 H 0.150560 0.937678 0.518900
H10_27 H 0.183569 0.932780 0.554845
C3_27 C 0.2036(23) 0.9828(13) 0.495(5)
H11_27 H 0.203284 0.997854 0.545384
H12_27 H 0.195146 0.992961 0.446155
H13_27 H 0.231696 0.987539 0.485955
C4_27 C 0.1619(23) 0.9019(12) 0.456(3)
H14_27 H 0.141320 0.877693 0.488482
H15_27 H 0.185896 0.898765 0.444033
H16_27 H 0.149347 0.904187 0.404233
N2_28 N 0.9028(21) 0.3946(13) 0.827(3)
H9_28 H 0.879548 0.395655 0.814433
H10_28 H 0.917455 0.400553 0.778488
C3_28 C 0.8874(19) 0.3505(13) 0.838(5)
H11_28 H 0.872096 0.335479 0.787949
H12_28 H 0.868851 0.340372 0.887178
H13_28 H 0.910823 0.345794 0.847378
C4_28 C 0.9266(20) 0.4314(12) 0.877(3)
H14_28 H 0.930293 0.455640 0.844851
H15_28 H 0.953797 0.434568 0.889300
H16_28 H 0.911826 0.429146 0.929100
N2_29 N 0.4918(25) 0.0972(21) 0.827(3)
H9_29 H 0.516107 0.120452 0.814433
H10_29 H 0.483098 0.082545 0.778488
C3_29 C 0.4631(23) 0.1126(19) 0.838(5)
H11_29 H 0.463383 0.127904 0.787949
H12_29 H 0.471521 0.131149 0.887178
H13_29 H 0.434971 0.089177 0.847378
C4_29 C 0.5048(23) 0.0734(20) 0.877(3)
H14_29 H 0.525347 0.069707 0.844851
H15_29 H 0.480771 0.046203 0.889300
H16_29 H 0.517320 0.088174 0.929100
N2_30 N 0.6054(13) 0.5082(25) 0.827(3)
H9_30 H 0.604345 0.483893 0.814433
H10_30 H 0.599447 0.516902 0.778488
C3_30 C 0.6495(13) 0.5369(23) 0.838(5)
H11_30 H 0.664521 0.536617 0.787949
H12_30 H 0.659628 0.528479 0.887178
H13_30 H 0.654206 0.565029 0.847378
C4_30 C 0.5686(12) 0.4952(23) 0.877(3)
H14_30 H 0.544360 0.474653 0.844851
H15_30 H 0.565432 0.519229 0.889300
H16_30 H 0.570854 0.482680 0.929100
N2_31 N 0.3946(13) 0.9028(21) 0.173(3)
H9_31 H 0.395655 0.879548 0.185567
H10_31 H 0.400553 0.917455 0.221512
C3_31 C 0.3505(13) 0.8874(19) 0.162(5)
H11_31 H 0.335479 0.872096 0.212051
H12_31 H 0.340372 0.868851 0.112822
H13_31 H 0.345794 0.910823 0.152622
C4_31 C 0.4314(12) 0.9266(20) 0.123(3)
H14_31 H 0.455640 0.930293 0.155149
H15_31 H 0.434568 0.953797 0.110700
H16_31 H 0.429146 0.911826 0.070900
N2_32 N 0.0972(21) 0.4918(25) 0.173(3)
H9_32 H 0.120452 0.516107 0.185567
H10_32 H 0.082545 0.483098 0.221512
C3_32 C 0.1126(19) 0.4631(23) 0.162(5)
H11_32 H 0.127904 0.463383 0.212051
H12_32 H 0.131149 0.471521 0.112822
H13_32 H 0.089177 0.434971 0.152622
C4_32 C 0.0734(20) 0.5048(23) 0.123(3)
H14_32 H 0.069707 0.525347 0.155149
H15_32 H 0.046203 0.480771 0.110700
H16_32 H 0.088174 0.517320 0.070900
N2_33 N 0.5082(25) 0.6054(13) 0.173(3)
H9_33 H 0.483893 0.604345 0.185567
H10_33 H 0.516902 0.599447 0.221512
C3_33 C 0.5369(23) 0.6495(13) 0.162(5)
H11_33 H 0.536617 0.664521 0.212051
H12_33 H 0.528479 0.659628 0.112822
H13_33 H 0.565029 0.654206 0.152622
C4_33 C 0.4952(23) 0.5686(12) 0.123(3)
H14_33 H 0.474653 0.544360 0.155149
H15_33 H 0.519229 0.565432 0.110700
H16_33 H 0.482680 0.570854 0.070900
N2_34 N 0.2361(21) 0.0613(13) 0.494(3)
H9_34 H 0.212881 0.062322 0.481100
H10_34 H 0.250788 0.067220 0.445155
C3_34 C 0.2207(19) 0.0172(13) 0.505(5)
H11_34 H 0.205429 0.002146 0.454616
H12_34 H 0.202184 0.007039 0.553845
H13_34 H 0.244156 0.012461 0.514045
C4_34 C 0.2599(20) 0.0981(12) 0.544(3)
H14_34 H 0.263626 0.122307 0.511518
H15_34 H 0.287130 0.101235 0.555967
H16_34 H 0.245159 0.095813 0.595767
N2_35 N 0.8251(25) 0.7639(21) 0.494(3)
H9_35 H 0.849440 0.787119 0.481100
H10_35 H 0.816431 0.749212 0.445155
C3_35 C 0.7964(23) 0.7793(19) 0.505(5)
H11_35 H 0.796716 0.794571 0.454616
H12_35 H 0.804854 0.797816 0.553845
H13_35 H 0.768304 0.755844 0.514045
C4_35 C 0.8381(23) 0.7401(20) 0.544(3)
H14_35 H 0.858680 0.736374 0.511518
H15_35 H 0.814104 0.712870 0.555967
H16_35 H 0.850653 0.754841 0.595767
N2_36 N 0.9387(13) 0.1749(25) 0.494(3)
H9_36 H 0.937678 0.150560 0.481100
H10_36 H 0.932780 0.183569 0.445155
C3_36 C 0.9828(13) 0.2036(23) 0.505(5)
H11_36 H 0.997854 0.203284 0.454616
H12_36 H 0.992961 0.195146 0.553845
H13_36 H 0.987539 0.231696 0.514045
C4_36 C 0.9019(12) 0.1619(23) 0.544(3)
H14_36 H 0.877693 0.141320 0.511518
H15_36 H 0.898765 0.185896 0.555967
H16_36 H 0.904187 0.149347 0.595767
Cu1 Cu 0.29668(3) 0.30000(3) 0.25070(5)
Cl1 Cl 0.26414(8) 0.333333 0.333333
Cl2 Cl 0.24923(9) 0.23299(8) 0.22935(15)
N3 N 0.35273(19) 0.35464(19) 0.2496(3)
N4 N 0.3667(2) 0.3798(2) 0.3165(3)
N5 N 0.3820(2) 0.3649(2) 0.1929(3)
O1 O 0.50730(15) 0.49270(15) 0.3643(4)
O2 O 0.52602(14) 0.47398(14) 0.2085(4)
C5 C 0.4756(3) 0.4604(3) 0.3177(5)
C6 C 0.4369(3) 0.4393(3) 0.3506(4)
H17 H 0.430312 0.446449 0.403477
C7 C 0.4077(3) 0.4071(3) 0.3030(4)
C8 C 0.4177(3) 0.3977(3) 0.2235(4)
C9 C 0.4578(2) 0.4204(2) 0.1902(4)
H18 H 0.464531 0.414247 0.136529
C10 C 0.4857(3) 0.4508(3) 0.2372(4)
N6 N 0.64536(19) 0.64727(19) 0.2496(3)
N7 N 0.6202(2) 0.6333(2) 0.3165(3)
N8 N 0.6351(2) 0.6180(2) 0.1929(3)
C11 C 0.5396(3) 0.5244(3) 0.3177(5)
C12 C 0.5607(3) 0.5631(3) 0.3506(4)
H19 H 0.553551 0.569688 0.403477
C13 C 0.5929(3) 0.5923(3) 0.3030(4)
C14 C 0.6023(3) 0.5823(3) 0.2235(4)
C15 C 0.5796(2) 0.5422(2) 0.1902(4)
H20 H 0.585753 0.535469 0.136529
C16 C 0.5492(3) 0.5143(3) 0.2372(4)
Cu2 Cu 0.36999(3) 0.33665(4) 0.08263(5)
Cl3 Cl 0.41744(9) 0.31709(12) 0.10398(15)
Cu3 Cu 0.33001(4) 0.36667(3) 0.41597(5)
Cu4 Cu 0.70000(3) 0.70332(3) 0.25070(5)
Cu5 Cu 0.66335(4) 0.63001(3) 0.08263(5)
Cu6 Cu 0.63333(3) 0.66999(4) 0.41597(5)
Cl4 Cl 0.40253(8) 0.402526(80) 0.000000
N9 N 0.31394(19) 0.33524(27) 0.0837(3)
N11 N 0.3202(3) 0.2869(2) 0.3502(3)
N12 N 0.2847(2) 0.3162(3) 0.1404(3)
Cl4_2 Cl 0.40253(8) 0.402526(80) 1.000000
N10 N 0.3464(3) 0.3000(2) 0.9832(3)
Cl2_2 Cl 0.76701(8) 0.01624(12) 0.22935(15)
N5_2 N 0.6351(2) 0.0171(3) 0.1929(3)
O1_2 O 0.50730(15) 0.01460(21) 0.3643(4)
O2_2 O 0.52602(14) 0.05204(20) 0.2085(4)
C5_2 C 0.5396(3) 0.0152(4) 0.3177(5)
C7_2 C 0.5929(3) 0.0006(4) 0.3030(4)
C8_2 C 0.6023(3) 0.0200(4) 0.2235(4)
C9_2 C 0.5796(2) 0.0374(3) 0.1902(4)
H18_2 H 0.585753 0.050284 0.136529
C10_2 C 0.5492(3) 0.0349(4) 0.2372(4)
N8_2 N 0.3820(2) 0.0171(3) 0.1929(3)
C11_2 C 0.4756(3) 0.0152(4) 0.3177(5)
C13_2 C 0.4077(3) 0.0006(4) 0.3030(4)
C14_2 C 0.4177(3) 0.0200(4) 0.2235(4)
C15_2 C 0.4578(2) 0.0374(3) 0.1902(4)
H20_2 H 0.464531 0.050284 0.136529
C16_2 C 0.4857(3) 0.0349(4) 0.2372(4)
Cu2_2 Cu 0.66335(4) 0.03333(5) 0.08263(5)
Cl3_2 Cl 0.68291(12) 0.10034(15) 0.10398(15)
Cu5_2 Cu 0.36999(3) 0.03333(5) 0.08263(5)
Cl4_3 Cl 0.597474(80) 0.00000(11) 0.000000
N11_2 N 0.7131(2) 0.0334(4) 0.3502(3)
Cl4_4 Cl 0.597474(80) 0.00000(11) 1.000000
N10_2 N 0.7000(2) 0.0465(4) 0.9832(3)
Cu1_2 Cu 0.70000(3) 0.99668(4) 0.25070(5)
Cl1_2 Cl 0.666667 0.930807(80) 0.333333
N3_2 N 0.64536(19) 0.99809(27) 0.2496(3)
N4_2 N 0.6202(2) 0.9869(3) 0.3165(3)
C6_2 C 0.5607(3) 0.9976(4) 0.3506(4)
H17_2 H 0.553551 0.983863 0.403477
N6_2 N 0.35273(19) 0.99809(27) 0.2496(3)
N7_2 N 0.3667(2) 0.9869(3) 0.3165(3)
C12_2 C 0.4369(3) 0.9976(4) 0.3506(4)
H19_2 H 0.430312 0.983863 0.403477
Cu3_2 Cu 0.63333(3) 0.96335(5) 0.41597(5)
Cu4_2 Cu 0.29668(3) 0.99668(4) 0.25070(5)
Cu6_2 Cu 0.33001(4) 0.96335(5) 0.41597(5)
Cl4_5 Cl 0.597474(80) 1.00000(11) 0.000000
N9_2 N 0.66476(27) 0.97869(33) 0.0837(3)
N12_2 N 0.6838(3) 0.9684(4) 0.1404(3)
Cl4_6 Cl 0.597474(80) 1.00000(11) 1.000000
Cu1_3 Cu 0.00332(4) 0.70332(3) 0.25070(5)
Cl1_3 Cl 0.069193(80) 0.73586(8) 0.333333
N3_3 N 0.00191(27) 0.64727(19) 0.2496(3)
N4_3 N 0.0131(3) 0.6333(2) 0.3165(3)
C6_3 C 0.0024(4) 0.5631(3) 0.3506(4)
H17_3 H 0.016137 0.569688 0.403477
N6_3 N 0.00191(27) 0.35464(19) 0.2496(3)
N7_3 N 0.0131(3) 0.3798(2) 0.3165(3)
C12_3 C 0.0024(4) 0.4393(3) 0.3506(4)
H19_3 H 0.016137 0.446449 0.403477
Cu3_3 Cu 0.03665(5) 0.66999(4) 0.41597(5)
Cu4_3 Cu 0.00332(4) 0.30000(3) 0.25070(5)
Cu6_3 Cu 0.03665(5) 0.36667(3) 0.41597(5)
Cl4_7 Cl -0.00000(11) 0.59747(8) 0.000000
N9_3 N 0.02131(33) 0.68606(19) 0.0837(3)
N12_3 N 0.0316(4) 0.7153(2) 0.1404(3)
Cl4_8 Cl -0.00000(11) 0.59747(8) 1.000000
Cl2_3 Cl 0.98376(12) 0.75077(9) 0.22935(15)
N5_3 N 0.9829(3) 0.6180(2) 0.1929(3)
O1_3 O 0.98540(21) 0.49270(15) 0.3643(4)
O2_3 O 0.94796(20) 0.47398(14) 0.2085(4)
C5_3 C 0.9848(4) 0.5244(3) 0.3177(5)
C7_3 C 0.9994(4) 0.5923(3) 0.3030(4)
C8_3 C 0.9800(4) 0.5823(3) 0.2235(4)
C9_3 C 0.9626(3) 0.5422(2) 0.1902(4)
H18_3 H 0.949716 0.535469 0.136529
C10_3 C 0.9651(4) 0.5143(3) 0.2372(4)
N8_3 N 0.9829(3) 0.3649(2) 0.1929(3)
C11_3 C 0.9848(4) 0.4604(3) 0.3177(5)
C13_3 C 0.9994(4) 0.4071(3) 0.3030(4)
C14_3 C 0.9800(4) 0.3977(3) 0.2235(4)
C15_3 C 0.9626(3) 0.4204(2) 0.1902(4)
H20_3 H 0.949716 0.414247 0.136529
C16_3 C 0.9651(4) 0.4508(3) 0.2372(4)
Cu2_3 Cu 0.96667(5) 0.63001(3) 0.08263(5)
Cl3_3 Cl 0.89966(15) 0.58256(9) 0.10398(15)
Cu5_3 Cu 0.96667(5) 0.33665(4) 0.08263(5)
Cl4_9 Cl 1.00000(11) 0.59747(8) 0.000000
N11_3 N 0.9666(4) 0.6798(3) 0.3502(3)
Cl4_10 Cl 1.00000(11) 0.59747(8) 1.000000
N10_3 N 0.9535(4) 0.6536(3) 0.9832(3)
N10_4 N 0.3000(2) 0.3464(3) 0.0168(3)
Cu1_4 Cu 0.30000(3) 0.29668(3) 0.74930(5)
Cl1_4 Cl 0.333333 0.26414(8) 0.666667
Cl2_4 Cl 0.23299(8) 0.24923(9) 0.77065(15)
N3_4 N 0.35464(19) 0.35273(19) 0.7504(3)
N4_4 N 0.3798(2) 0.3667(2) 0.6835(3)
N5_4 N 0.3649(2) 0.3820(2) 0.8071(3)
O1_4 O 0.49270(15) 0.50730(15) 0.6357(4)
O2_4 O 0.47398(14) 0.52602(14) 0.7915(4)
C5_4 C 0.4604(3) 0.4756(3) 0.6823(5)
C6_4 C 0.4393(3) 0.4369(3) 0.6494(4)
H17_4 H 0.446449 0.430312 0.596523
C7_4 C 0.4071(3) 0.4077(3) 0.6970(4)
C8_4 C 0.3977(3) 0.4177(3) 0.7765(4)
C9_4 C 0.4204(2) 0.4578(2) 0.8098(4)
H18_4 H 0.414247 0.464531 0.863471
C10_4 C 0.4508(3) 0.4857(3) 0.7628(4)
N6_4 N 0.64727(19) 0.64536(19) 0.7504(3)
N7_4 N 0.6333(2) 0.6202(2) 0.6835(3)
N8_4 N 0.6180(2) 0.6351(2) 0.8071(3)
C11_4 C 0.5244(3) 0.5396(3) 0.6823(5)
C12_4 C 0.5631(3) 0.5607(3) 0.6494(4)
H19_4 H 0.569688 0.553551 0.596523
C13_4 C 0.5923(3) 0.5929(3) 0.6970(4)
C14_4 C 0.5823(3) 0.6023(3) 0.7765(4)
C15_4 C 0.5422(2) 0.5796(2) 0.8098(4)
H20_4 H 0.535469 0.585753 0.863471
C16_4 C 0.5143(3) 0.5492(3) 0.7628(4)
Cu2_4 Cu 0.33665(4) 0.36999(3) 0.91737(5)
Cl3_4 Cl 0.31709(12) 0.41744(9) 0.89602(15)
Cu3_4 Cu 0.36667(3) 0.33001(4) 0.58403(5)
Cu4_4 Cu 0.70332(3) 0.70000(3) 0.74930(5)
Cu5_4 Cu 0.63001(3) 0.66335(4) 0.91737(5)
Cu6_4 Cu 0.66999(4) 0.63333(3) 0.58403(5)
N9_4 N 0.33524(27) 0.31394(19) 0.9163(3)
N11_4 N 0.2869(2) 0.3202(3) 0.6498(3)
N12_4 N 0.3162(3) 0.2847(2) 0.8596(3)
N10_5 N 0.0465(4) 0.7000(2) 0.0168(3)
Cl2_5 Cl 0.01624(12) 0.76701(8) 0.77065(15)
N5_5 N 0.0171(3) 0.6351(2) 0.8071(3)
O1_5 O 0.01460(21) 0.50730(15) 0.6357(4)
O2_5 O 0.05204(20) 0.52602(14) 0.7915(4)
C5_5 C 0.0152(4) 0.5396(3) 0.6823(5)
C7_5 C 0.0006(4) 0.5929(3) 0.6970(4)
C8_5 C 0.0200(4) 0.6023(3) 0.7765(4)
C9_5 C 0.0374(3) 0.5796(2) 0.8098(4)
H18_5 H 0.050284 0.585753 0.863471
C10_5 C 0.0349(4) 0.5492(3) 0.7628(4)
N8_5 N 0.0171(3) 0.3820(2) 0.8071(3)
C11_5 C 0.0152(4) 0.4756(3) 0.6823(5)
C13_5 C 0.0006(4) 0.4077(3) 0.6970(4)
C14_5 C 0.0200(4) 0.4177(3) 0.7765(4)
C15_5 C 0.0374(3) 0.4578(2) 0.8098(4)
H20_5 H 0.050284 0.464531 0.863471
C16_5 C 0.0349(4) 0.4857(3) 0.7628(4)
Cu2_5 Cu 0.03333(5) 0.66335(4) 0.91737(5)
Cl3_5 Cl 0.10034(15) 0.68291(12) 0.89602(15)
Cu5_5 Cu 0.03333(5) 0.36999(3) 0.91737(5)
N11_5 N 0.0334(4) 0.7131(2) 0.6498(3)
Cu1_5 Cu 0.99668(4) 0.70000(3) 0.74930(5)
Cl1_5 Cl 0.930807(80) 0.666667 0.666667
N3_5 N 0.99809(27) 0.64536(19) 0.7504(3)
N4_5 N 0.9869(3) 0.6202(2) 0.6835(3)
C6_5 C 0.9976(4) 0.5607(3) 0.6494(4)
H17_5 H 0.983863 0.553551 0.596523
N6_5 N 0.99809(27) 0.35273(19) 0.7504(3)
N7_5 N 0.9869(3) 0.3667(2) 0.6835(3)
C12_5 C 0.9976(4) 0.4369(3) 0.6494(4)
H19_5 H 0.983863 0.430312 0.596523
Cu3_5 Cu 0.96335(5) 0.63333(3) 0.58403(5)
Cu4_5 Cu 0.99668(4) 0.29668(3) 0.74930(5)
Cu6_5 Cu 0.96335(5) 0.33001(4) 0.58403(5)
N9_5 N 0.97869(33) 0.66476(27) 0.9163(3)
N12_5 N 0.9684(4) 0.6838(3) 0.8596(3)
Cu1_6 Cu 0.70332(3) 0.00332(4) 0.74930(5)
Cl1_6 Cl 0.73586(8) 0.069193(80) 0.666667
N3_6 N 0.64727(19) 0.00191(27) 0.7504(3)
N4_6 N 0.6333(2) 0.0131(3) 0.6835(3)
C6_6 C 0.5631(3) 0.0024(4) 0.6494(4)
H17_6 H 0.569688 0.016137 0.596523
N6_6 N 0.35464(19) 0.00191(27) 0.7504(3)
N7_6 N 0.3798(2) 0.0131(3) 0.6835(3)
C12_6 C 0.4393(3) 0.0024(4) 0.6494(4)
H19_6 H 0.446449 0.016137 0.596523
Cu3_6 Cu 0.66999(4) 0.03665(5) 0.58403(5)
Cu4_6 Cu 0.30000(3) 0.00332(4) 0.74930(5)
Cu6_6 Cu 0.36667(3) 0.03665(5) 0.58403(5)
N9_6 N 0.68606(19) 0.02131(33) 0.9163(3)
N12_6 N 0.7153(2) 0.0316(4) 0.8596(3)
N10_6 N 0.6536(3) 0.9535(4) 0.0168(3)
Cl2_6 Cl 0.75077(9) 0.98376(12) 0.77065(15)
N5_6 N 0.6180(2) 0.9829(3) 0.8071(3)
O1_6 O 0.49270(15) 0.98540(21) 0.6357(4)
O2_6 O 0.47398(14) 0.94796(20) 0.7915(4)
C5_6 C 0.5244(3) 0.9848(4) 0.6823(5)
C7_6 C 0.5923(3) 0.9994(4) 0.6970(4)
C8_6 C 0.5823(3) 0.9800(4) 0.7765(4)
C9_6 C 0.5422(2) 0.9626(3) 0.8098(4)
H18_6 H 0.535469 0.949716 0.863471
C10_6 C 0.5143(3) 0.9651(4) 0.7628(4)
N8_6 N 0.3649(2) 0.9829(3) 0.8071(3)
C11_6 C 0.4604(3) 0.9848(4) 0.6823(5)
C13_6 C 0.4071(3) 0.9994(4) 0.6970(4)
C14_6 C 0.3977(3) 0.9800(4) 0.7765(4)
C15_6 C 0.4204(2) 0.9626(3) 0.8098(4)
H20_6 H 0.414247 0.949716 0.863471
C16_6 C 0.4508(3) 0.9651(4) 0.7628(4)
Cu2_6 Cu 0.63001(3) 0.96667(5) 0.91737(5)
Cl3_6 Cl 0.58256(9) 0.89966(15) 0.89602(15)
Cu5_6 Cu 0.33665(4) 0.96667(5) 0.91737(5)
N11_6 N 0.6798(3) 0.9666(4) 0.6498(3)
N3_7 N 0.01940(19) 0.68797(19) 0.5829(3)
N5_7 N 0.0487(2) 0.6982(2) 0.5262(3)
O1_7 O 0.17397(15) 0.82603(15) 0.6976(4)
O2_7 O 0.19269(14) 0.80731(14) 0.5418(4)
C5_7 C 0.1423(3) 0.7937(3) 0.6510(5)
C6_7 C 0.1036(3) 0.7726(3) 0.6839(4)
H17_7 H 0.096979 0.779782 0.736810
C7_7 C 0.0744(3) 0.7404(3) 0.6363(4)
C8_7 C 0.0844(3) 0.7310(3) 0.5568(4)
C9_7 C 0.1245(2) 0.7537(2) 0.5235(4)
H18_7 H 0.131198 0.747580 0.469862
C10_7 C 0.1524(3) 0.7841(3) 0.5705(4)
N6_7 N 0.31203(19) 0.98060(19) 0.5829(3)
N7_7 N 0.2869(2) 0.9666(2) 0.6498(3)
N8_7 N 0.3018(2) 0.9513(2) 0.5262(3)
C11_7 C 0.2063(3) 0.8577(3) 0.6510(5)
C12_7 C 0.2274(3) 0.8964(3) 0.6839(4)
H19_7 H 0.220218 0.903021 0.736810
C13_7 C 0.2596(3) 0.9256(3) 0.6363(4)
C14_7 C 0.2690(3) 0.9156(3) 0.5568(4)
C15_7 C 0.2463(2) 0.8755(2) 0.5235(4)
H20_7 H 0.252420 0.868802 0.469862
C16_7 C 0.2159(3) 0.8476(3) 0.5705(4)
Cl3_7 Cl 0.08410(9) 0.65043(12) 0.43732(15)
Cl2_7 Cl 0.91590(9) 0.56632(8) 0.56268(15)
N9_7 N 0.98060(19) 0.66858(27) 0.4171(3)
N12_7 N 0.9513(2) 0.6496(3) 0.4738(3)
Cl2_8 Cl 0.43368(8) 0.34957(12) 0.56268(15)
N3_8 N 0.31203(19) 0.33142(27) 0.5829(3)
N5_8 N 0.3018(2) 0.3504(3) 0.5262(3)
O1_8 O 0.17397(15) 0.34793(21) 0.6976(4)
O2_8 O 0.19269(14) 0.38537(20) 0.5418(4)
C5_8 C 0.2063(3) 0.3485(4) 0.6510(5)
C6_8 C 0.2274(3) 0.3309(4) 0.6839(4)
H17_8 H 0.220218 0.317196 0.736810
C7_8 C 0.2596(3) 0.3339(4) 0.6363(4)
C8_8 C 0.2690(3) 0.3533(4) 0.5568(4)
C9_8 C 0.2463(2) 0.3707(3) 0.5235(4)
H18_8 H 0.252420 0.383617 0.469862
C10_8 C 0.2159(3) 0.3682(4) 0.5705(4)
N6_8 N 0.01940(19) 0.33142(27) 0.5829(3)
N7_8 N 0.0334(2) 0.3202(3) 0.6498(3)
N8_8 N 0.0487(2) 0.3504(3) 0.5262(3)
C11_8 C 0.1423(3) 0.3485(4) 0.6510(5)
C12_8 C 0.1036(3) 0.3309(4) 0.6839(4)
H19_8 H 0.096979 0.317196 0.736810
C13_8 C 0.0744(3) 0.3339(4) 0.6363(4)
C14_8 C 0.0844(3) 0.3533(4) 0.5568(4)
C15_8 C 0.1245(2) 0.3707(3) 0.5235(4)
H20_8 H 0.131198 0.383617 0.469862
C16_8 C 0.1524(3) 0.3682(4) 0.5705(4)
Cl3_8 Cl 0.34957(12) 0.43368(15) 0.43732(15)
N9_8 N 0.33142(27) 0.31203(33) 0.4171(3)
N12_8 N 0.3504(3) 0.3018(4) 0.4738(3)
Cl2_9 Cl 0.65043(12) 0.08410(9) 0.56268(15)
N9_9 N 0.68797(33) 0.01940(19) 0.4171(3)
N12_9 N 0.6982(4) 0.0487(2) 0.4738(3)
N3_9 N 0.66858(27) 0.98060(19) 0.5829(3)
N5_9 N 0.6496(3) 0.9513(2) 0.5262(3)
O1_9 O 0.65207(21) 0.82603(15) 0.6976(4)
O2_9 O 0.61463(20) 0.80731(14) 0.5418(4)
C5_9 C 0.6515(4) 0.8577(3) 0.6510(5)
C6_9 C 0.6691(4) 0.8964(3) 0.6839(4)
H17_9 H 0.682804 0.903021 0.736810
C7_9 C 0.6661(4) 0.9256(3) 0.6363(4)
C8_9 C 0.6467(4) 0.9156(3) 0.5568(4)
C9_9 C 0.6293(3) 0.8755(2) 0.5235(4)
H18_9 H 0.616383 0.868802 0.469862
C10_9 C 0.6318(4) 0.8476(3) 0.5705(4)
N6_9 N 0.66858(27) 0.68797(19) 0.5829(3)
N7_9 N 0.6798(3) 0.7131(2) 0.6498(3)
N8_9 N 0.6496(3) 0.6982(2) 0.5262(3)
C11_9 C 0.6515(4) 0.7937(3) 0.6510(5)
C12_9 C 0.6691(4) 0.7726(3) 0.6839(4)
H19_9 H 0.682804 0.779782 0.736810
C13_9 C 0.6661(4) 0.7404(3) 0.6363(4)
C14_9 C 0.6467(4) 0.7310(3) 0.5568(4)
C15_9 C 0.6293(3) 0.7537(2) 0.5235(4)
H20_9 H 0.616383 0.747580 0.469862
C16_9 C 0.6318(4) 0.7841(3) 0.5705(4)
Cl3_9 Cl 0.56632(15) 0.91590(9) 0.43732(15)
O2_10 O 0.14065(14) 0.85935(14) 0.1248(4)
C5_10 C 0.1271(3) 0.8089(3) 0.0156(5)
C7_10 C 0.0738(3) 0.7410(3) 0.0303(4)
C8_10 C 0.0644(3) 0.7510(3) 0.1098(4)
C9_10 C 0.0871(2) 0.7911(2) 0.1431(4)
H18_10 H 0.080914 0.797864 0.196804
C10_10 C 0.1175(3) 0.8190(3) 0.0961(4)
N6_10 N 0.31394(19) 0.97869(19) 0.0837(3)
N7_10 N 0.3000(2) 0.9535(2) 0.0168(3)
N8_10 N 0.2847(2) 0.9684(2) 0.1404(3)
C11_10 C 0.1911(3) 0.8729(3) 0.0156(5)
C13_10 C 0.2590(3) 0.9262(3) 0.0303(4)
C14_10 C 0.2490(3) 0.9356(3) 0.1098(4)
C15_10 C 0.2089(2) 0.9129(2) 0.1431(4)
H20_10 H 0.202136 0.919086 0.196804
C16_10 C 0.1810(3) 0.8825(3) 0.0961(4)
O1_10 O 0.15937(15) 0.84063(15) 0.9690(4)
C6_10 C 0.1060(3) 0.7702(3) 0.9827(4)
H17_10 H 0.113116 0.763645 0.929856
C12_10 C 0.2298(3) 0.8940(3) 0.9827(4)
H19_10 H 0.236355 0.886884 0.929856
O2_11 O 0.71871(20) 0.85935(14) 0.1248(4)
C5_11 C 0.6819(4) 0.8729(3) 0.0156(5)
C7_11 C 0.6673(4) 0.9262(3) 0.0303(4)
C8_11 C 0.6867(4) 0.9356(3) 0.1098(4)
C9_11 C 0.7041(3) 0.9129(2) 0.1431(4)
H18_11 H 0.716951 0.919086 0.196804
C10_11 C 0.7016(4) 0.8825(3) 0.0961(4)
N6_11 N 0.66476(27) 0.68606(19) 0.0837(3)
N7_11 N 0.6536(3) 0.7000(2) 0.0168(3)
N8_11 N 0.6838(3) 0.7153(2) 0.1404(3)
C11_11 C 0.6819(4) 0.8089(3) 0.0156(5)
C13_11 C 0.6673(4) 0.7410(3) 0.0303(4)
C14_11 C 0.6867(4) 0.7510(3) 0.1098(4)
C15_11 C 0.7041(3) 0.7911(2) 0.1431(4)
H20_11 H 0.716951 0.797864 0.196804
C16_11 C 0.7016(4) 0.8190(3) 0.0961(4)
O1_11 O 0.68127(21) 0.84063(15) 0.9690(4)
C6_11 C 0.6643(4) 0.8940(3) 0.9827(4)
H17_11 H 0.650530 0.886884 0.929856
C12_11 C 0.6643(4) 0.7702(3) 0.9827(4)
H19_11 H 0.650530 0.763645 0.929856
O2_12 O 0.14065(14) 0.28129(20) 0.1248(4)
C5_12 C 0.1911(3) 0.3181(4) 0.0156(5)
C7_12 C 0.2590(3) 0.3327(4) 0.0303(4)
C8_12 C 0.2490(3) 0.3133(4) 0.1098(4)
C9_12 C 0.2089(2) 0.2959(3) 0.1431(4)
H18_12 H 0.202136 0.283049 0.196804
C10_12 C 0.1810(3) 0.2984(4) 0.0961(4)
N6_12 N 0.02131(19) 0.33524(27) 0.0837(3)
N7_12 N 0.0465(2) 0.3464(3) 0.0168(3)
N8_12 N 0.0316(2) 0.3162(3) 0.1404(3)
C11_12 C 0.1271(3) 0.3181(4) 0.0156(5)
C13_12 C 0.0738(3) 0.3327(4) 0.0303(4)
C14_12 C 0.0644(3) 0.3133(4) 0.1098(4)
C15_12 C 0.0871(2) 0.2959(3) 0.1431(4)
H20_12 H 0.080914 0.283049 0.196804
C16_12 C 0.1175(3) 0.2984(4) 0.0961(4)
O1_12 O 0.15937(15) 0.31873(21) 0.9690(4)
C6_12 C 0.2298(3) 0.3357(4) 0.9827(4)
H17_12 H 0.236355 0.349470 0.929856
C12_12 C 0.1060(3) 0.3357(4) 0.9827(4)
H19_12 H 0.113116 0.349470 0.929856
O1_13 O 0.84063(15) 0.15937(15) 0.0310(4)
C6_13 C 0.7702(3) 0.1060(3) 0.0173(4)
H17_13 H 0.763645 0.113116 0.070144
C12_13 C 0.8940(3) 0.2298(3) 0.0173(4)
H19_13 H 0.886884 0.236355 0.070144
O2_13 O 0.85935(14) 0.14065(14) 0.8752(4)
C5_13 C 0.8089(3) 0.1271(3) 0.9844(5)
C7_13 C 0.7410(3) 0.0738(3) 0.9697(4)
C8_13 C 0.7510(3) 0.0644(3) 0.8902(4)
C9_13 C 0.7911(2) 0.0871(2) 0.8569(4)
H18_13 H 0.797864 0.080914 0.803196
C10_13 C 0.8190(3) 0.1175(3) 0.9039(4)
N6_13 N 0.97869(19) 0.31394(19) 0.9163(3)
N7_13 N 0.9535(2) 0.3000(2) 0.9832(3)
N8_13 N 0.9684(2) 0.2847(2) 0.8596(3)
C11_13 C 0.8729(3) 0.1911(3) 0.9844(5)
C13_13 C 0.9262(3) 0.2590(3) 0.9697(4)
C14_13 C 0.9356(3) 0.2490(3) 0.8902(4)
C15_13 C 0.9129(2) 0.2089(2) 0.8569(4)
H20_13 H 0.919086 0.202136 0.803196
C16_13 C 0.8825(3) 0.1810(3) 0.9039(4)
O1_14 O 0.84063(15) 0.68127(21) 0.0310(4)
C6_14 C 0.8940(3) 0.6643(4) 0.0173(4)
H17_14 H 0.886884 0.650530 0.070144
C12_14 C 0.7702(3) 0.6643(4) 0.0173(4)
H19_14 H 0.763645 0.650530 0.070144
O2_14 O 0.85935(14) 0.71871(20) 0.8752(4)
C5_14 C 0.8729(3) 0.6819(4) 0.9844(5)
C7_14 C 0.9262(3) 0.6673(4) 0.9697(4)
C8_14 C 0.9356(3) 0.6867(4) 0.8902(4)
C9_14 C 0.9129(2) 0.7041(3) 0.8569(4)
H18_14 H 0.919086 0.716951 0.803196
C10_14 C 0.8825(3) 0.7016(4) 0.9039(4)
N6_14 N 0.68606(19) 0.66476(27) 0.9163(3)
N7_14 N 0.7000(2) 0.6536(3) 0.9832(3)
N8_14 N 0.7153(2) 0.6838(3) 0.8596(3)
C11_14 C 0.8089(3) 0.6819(4) 0.9844(5)
C13_14 C 0.7410(3) 0.6673(4) 0.9697(4)
C14_14 C 0.7510(3) 0.6867(4) 0.8902(4)
C15_14 C 0.7911(2) 0.7041(3) 0.8569(4)
H20_14 H 0.797864 0.716951 0.803196
C16_14 C 0.8190(3) 0.7016(4) 0.9039(4)
O1_15 O 0.31873(21) 0.15937(15) 0.0310(4)
C6_15 C 0.3357(4) 0.2298(3) 0.0173(4)
H17_15 H 0.349470 0.236355 0.070144
C12_15 C 0.3357(4) 0.1060(3) 0.0173(4)
H19_15 H 0.349470 0.113116 0.070144
O2_15 O 0.28129(20) 0.14065(14) 0.8752(4)
C5_15 C 0.3181(4) 0.1911(3) 0.9844(5)
C7_15 C 0.3327(4) 0.2590(3) 0.9697(4)
C8_15 C 0.3133(4) 0.2490(3) 0.8902(4)
C9_15 C 0.2959(3) 0.2089(2) 0.8569(4)
H18_15 H 0.283049 0.202136 0.803196
C10_15 C 0.2984(4) 0.1810(3) 0.9039(4)
N6_15 N 0.33524(27) 0.02131(19) 0.9163(3)
N7_15 N 0.3464(3) 0.0465(2) 0.9832(3)
N8_15 N 0.3162(3) 0.0316(2) 0.8596(3)
C11_15 C 0.3181(4) 0.1271(3) 0.9844(5)
C13_15 C 0.3327(4) 0.0738(3) 0.9697(4)
C14_15 C 0.3133(4) 0.0644(3) 0.8902(4)
C15_15 C 0.2959(3) 0.0871(2) 0.8569(4)
H20_15 H 0.283049 0.080914 0.803196
C16_15 C 0.2984(4) 0.1175(3) 0.9039(4)
O1_16 O 0.82603(15) 0.17397(15) 0.3024(4)
O2_16 O 0.80731(14) 0.19269(14) 0.4582(4)
C5_16 C 0.7937(3) 0.1423(3) 0.3490(5)
C6_16 C 0.7726(3) 0.1036(3) 0.3161(4)
H17_16 H 0.779782 0.096979 0.263190
C7_16 C 0.7404(3) 0.0744(3) 0.3637(4)
C8_16 C 0.7310(3) 0.0844(3) 0.4432(4)
C9_16 C 0.7537(2) 0.1245(2) 0.4765(4)
H18_16 H 0.747580 0.131198 0.530138
C10_16 C 0.7841(3) 0.1524(3) 0.4295(4)
N6_16 N 0.98060(19) 0.31203(19) 0.4171(3)
N7_16 N 0.9666(2) 0.2869(2) 0.3502(3)
N8_16 N 0.9513(2) 0.3018(2) 0.4738(3)
C11_16 C 0.8577(3) 0.2063(3) 0.3490(5)
C12_16 C 0.8964(3) 0.2274(3) 0.3161(4)
H19_16 H 0.903021 0.220218 0.263190
C13_16 C 0.9256(3) 0.2596(3) 0.3637(4)
C14_16 C 0.9156(3) 0.2690(3) 0.4432(4)
C15_16 C 0.8755(2) 0.2463(2) 0.4765(4)
H20_16 H 0.868802 0.252420 0.530138
C16_16 C 0.8476(3) 0.2159(3) 0.4295(4)
O1_17 O 0.34793(21) 0.17397(15) 0.3024(4)
O2_17 O 0.38537(20) 0.19269(14) 0.4582(4)
C5_17 C 0.3485(4) 0.2063(3) 0.3490(5)
C6_17 C 0.3309(4) 0.2274(3) 0.3161(4)
H17_17 H 0.317196 0.220218 0.263190
C7_17 C 0.3339(4) 0.2596(3) 0.3637(4)
C8_17 C 0.3533(4) 0.2690(3) 0.4432(4)
C9_17 C 0.3707(3) 0.2463(2) 0.4765(4)
H18_17 H 0.383617 0.252420 0.530138
C10_17 C 0.3682(4) 0.2159(3) 0.4295(4)
N6_17 N 0.33142(27) 0.01940(19) 0.4171(3)
N7_17 N 0.3202(3) 0.0334(2) 0.3502(3)
N8_17 N 0.3504(3) 0.0487(2) 0.4738(3)
C11_17 C 0.3485(4) 0.1423(3) 0.3490(5)
C12_17 C 0.3309(4) 0.1036(3) 0.3161(4)
H19_17 H 0.317196 0.096979 0.263190
C13_17 C 0.3339(4) 0.0744(3) 0.3637(4)
C14_17 C 0.3533(4) 0.0844(3) 0.4432(4)
C15_17 C 0.3707(3) 0.1245(2) 0.4765(4)
H20_17 H 0.383617 0.131198 0.530138
C16_17 C 0.3682(4) 0.1524(3) 0.4295(4)
O1_18 O 0.82603(15) 0.65207(21) 0.3024(4)
O2_18 O 0.80731(14) 0.61463(20) 0.4582(4)
C5_18 C 0.8577(3) 0.6515(4) 0.3490(5)
C6_18 C 0.8964(3) 0.6691(4) 0.3161(4)
H17_18 H 0.903021 0.682804 0.263190
C7_18 C 0.9256(3) 0.6661(4) 0.3637(4)
C8_18 C 0.9156(3) 0.6467(4) 0.4432(4)
C9_18 C 0.8755(2) 0.6293(3) 0.4765(4)
H18_18 H 0.868802 0.616383 0.530138
C10_18 C 0.8476(3) 0.6318(4) 0.4295(4)
N6_18 N 0.68797(19) 0.66858(27) 0.4171(3)
N7_18 N 0.7131(2) 0.6798(3) 0.3502(3)
N8_18 N 0.6982(2) 0.6496(3) 0.4738(3)
C11_18 C 0.7937(3) 0.6515(4) 0.3490(5)
C12_18 C 0.7726(3) 0.6691(4) 0.3161(4)
H19_18 H 0.779782 0.682804 0.263190
C13_18 C 0.7404(3) 0.6661(4) 0.3637(4)
C14_18 C 0.7310(3) 0.6467(4) 0.4432(4)
C15_18 C 0.7537(2) 0.6293(3) 0.4765(4)
H20_18 H 0.747580 0.616383 0.530138
C16_18 C 0.7841(3) 0.6318(4) 0.4295(4)
Cl4_11 Cl 0.59747(8) 0.597474(80) -0.000000
Cl1_7 Cl 0.73586(8) 0.666667 0.666667
Cl2_10 Cl 0.75077(9) 0.76701(8) 0.77065(15)
Cl3_10 Cl 0.58256(9) 0.68291(12) 0.89602(15)
Cl4_12 Cl 0.59747(8) 0.597474(80) 1.000000
Cl4_13 Cl 0.402526(80) -0.00000(11) -0.000000
Cl1_8 Cl 0.333333 0.069193(80) 0.666667
Cl4_14 Cl 0.402526(80) -0.00000(11) 1.000000
Cl4_15 Cl 0.402526(80) 1.00000(11) -0.000000
Cl2_11 Cl 0.23299(8) 0.98376(12) 0.77065(15)
Cl3_11 Cl 0.31709(12) 0.89966(15) 0.89602(15)
Cl4_16 Cl 0.402526(80) 1.00000(11) 1.000000
Cl4_17 Cl 0.00000(11) 0.40253(8) -0.000000
Cl2_12 Cl 0.01624(12) 0.24923(9) 0.77065(15)
Cl3_12 Cl 0.10034(15) 0.41744(9) 0.89602(15)
Cl4_18 Cl 0.00000(11) 0.40253(8) 1.000000
Cl4_19 Cl 1.00000(11) 0.40253(8) -0.000000
Cl1_9 Cl 0.930807(80) 0.26414(8) 0.666667
Cl4_20 Cl 1.00000(11) 0.40253(8) 1.000000
Cl1_10 Cl 0.666667 0.73586(8) 0.333333
Cl2_13 Cl 0.76701(8) 0.75077(9) 0.22935(15)
Cl3_13 Cl 0.68291(12) 0.58256(9) 0.10398(15)
Cl1_11 Cl 0.069193(80) 0.333333 0.333333
Cl2_14 Cl 0.98376(12) 0.23299(8) 0.22935(15)
Cl3_14 Cl 0.89966(15) 0.31709(12) 0.10398(15)
Cl2_15 Cl 0.24923(9) 0.01624(12) 0.22935(15)
Cl3_15 Cl 0.41744(9) 0.10034(15) 0.10398(15)
Cl1_12 Cl 0.26414(8) 0.930807(80) 0.333333
Cl2_16 Cl 0.08410(9) 0.43368(8) 0.43732(15)
Cl3_16 Cl 0.91590(9) 0.34957(12) 0.56268(15)
Cl2_17 Cl 0.56632(8) 0.65043(12) 0.43732(15)
Cl3_17 Cl 0.65043(12) 0.56632(15) 0.56268(15)
Cl3_18 Cl 0.43368(15) 0.08410(9) 0.56268(15)
Cl2_18 Cl 0.34957(12) 0.91590(9) 0.43732(15)
loop_
_geom_bond_atom_site_label_1
_geom_bond_atom_site_label_2
_geom_bond_site_symmetry_1
_geom_bond_site_symmetry_2
N1 H1 1_555 1_555
H2 N1 1_555 1_555
C1 N1 1_555 1_555
H3 C1 1_555 1_555
H4 C1 1_555 1_555
H5 C1 1_555 1_555
C2 N1 1_555 1_555
H6 C2 1_555 1_555
H7 C2 1_555 1_555
H8 C2 1_555 1_555
N1_2 H1_2 1_555 1_555
H2_2 N1_2 1_555 1_555
C1_2 N1_2 1_555 1_555
H3_2 C1_2 1_555 1_555
H4_2 C1_2 1_555 1_555
H5_2 C1_2 1_555 1_555
C2_2 N1_2 1_555 1_555
H6_2 C2_2 1_555 1_555
H7_2 C2_2 1_555 1_555
H8_2 C2_2 1_555 1_555
N1_3 H1_3 1_555 1_555
H2_3 N1_3 1_555 1_555
C1_3 N1_3 1_555 1_555
H3_3 C1_3 1_555 1_555
H4_3 C1_3 1_555 1_555
H5_3 C1_3 1_555 1_555
C2_3 N1_3 1_555 1_555
H6_3 C2_3 1_555 1_555
H7_3 C2_3 1_555 1_555
H8_3 C2_3 1_555 1_555
N1_4 H1_4 1_555 1_555
H2_4 N1_4 1_555 1_555
C1_4 N1_4 1_555 1_555
H3_4 C1_4 1_555 1_555
H4_4 C1_4 1_555 1_555
H5_4 C1_4 1_555 1_555
C2_4 N1_4 1_555 1_555
H6_4 C2_4 1_555 1_555
H7_4 C2_4 1_555 1_555
H8_4 C2_4 1_555 1_555
N1_5 H1_5 1_555 1_555
H2_5 N1_5 1_555 1_555
C1_5 N1_5 1_555 1_555
H3_5 C1_5 1_555 1_555
H4_5 C1_5 1_555 1_555
H5_5 C1_5 1_555 1_555
C2_5 N1_5 1_555 1_555
H6_5 C2_5 1_555 1_555
H7_5 C2_5 1_555 1_555
H8_5 C2_5 1_555 1_555
N1_6 H1_6 1_555 1_555
H2_6 N1_6 1_555 1_555
C1_6 N1_6 1_555 1_555
H3_6 C1_6 1_555 1_555
H4_6 C1_6 1_555 1_555
H5_6 C1_6 1_555 1_555
C2_6 N1_6 1_555 1_555
H6_6 C2_6 1_555 1_555
H7_6 C2_6 1_555 1_555
H8_6 C2_6 1_555 1_555
N1_7 H1_7 1_555 1_555
H2_7 N1_7 1_555 1_555
C1_7 N1_7 1_555 1_555
H3_7 C1_7 1_555 1_555
H4_7 C1_7 1_555 1_555
H5_7 C1_7 1_555 1_555
C2_7 N1_7 1_555 1_555
H6_7 C2_7 1_555 1_555
H7_7 C2_7 1_555 1_555
H8_7 C2_7 1_555 1_555
N1_8 H1_8 1_555 1_555
H2_8 N1_8 1_555 1_555
C1_8 N1_8 1_555 1_555
H3_8 C1_8 1_555 1_555
H4_8 C1_8 1_555 1_555
H5_8 C1_8 1_555 1_555
C2_8 N1_8 1_555 1_555
H6_8 C2_8 1_555 1_555
H7_8 C2_8 1_555 1_555
H8_8 C2_8 1_555 1_555
N1_9 H1_9 1_555 1_555
H2_9 N1_9 1_555 1_555
C1_9 N1_9 1_555 1_555
H3_9 C1_9 1_555 1_555
H4_9 C1_9 1_555 1_555
H5_9 C1_9 1_555 1_555
C2_9 N1_9 1_555 1_555
H6_9 C2_9 1_555 1_555
H7_9 C2_9 1_555 1_555
H8_9 C2_9 1_555 1_555
N1_10 H1_10 1_555 1_555
H2_10 N1_10 1_555 1_555
C1_10 N1_10 1_555 1_555
H3_10 C1_10 1_555 1_555
H4_10 C1_10 1_555 1_555
H5_10 C1_10 1_555 1_555
C2_10 N1_10 1_555 1_555
H6_10 C2_10 1_555 1_555
H7_10 C2_10 1_555 1_555
H8_10 C2_10 1_555 1_555
N1_11 H1_11 1_555 1_555
H2_11 N1_11 1_555 1_555
C1_11 N1_11 1_555 1_555
H3_11 C1_11 1_555 1_555
H4_11 C1_11 1_555 1_555
H5_11 C1_11 1_555 1_555
C2_11 N1_11 1_555 1_555
H6_11 C2_11 1_555 1_555
H7_11 C2_11 1_555 1_555
H8_11 C2_11 1_555 1_555
N1_12 H1_12 1_555 1_555
H2_12 N1_12 1_555 1_555
C1_12 N1_12 1_555 1_555
H3_12 C1_12 1_555 1_555
H4_12 C1_12 1_555 1_555
H5_12 C1_12 1_555 1_555
C2_12 N1_12 1_555 1_555
H6_12 C2_12 1_555 1_555
H7_12 C2_12 1_555 1_555
H8_12 C2_12 1_555 1_555
N1_13 H1_13 1_555 1_555
H2_13 N1_13 1_555 1_555
C1_13 N1_13 1_555 1_555
H3_13 C1_13 1_555 1_555
H4_13 C1_13 1_555 1_555
H5_13 C1_13 1_555 1_555
C2_13 N1_13 1_555 1_555
H6_13 C2_13 1_555 1_555
H7_13 C2_13 1_555 1_555
H8_13 C2_13 1_555 1_555
N1_14 H1_14 1_555 1_555
H2_14 N1_14 1_555 1_555
C1_14 N1_14 1_555 1_555
H3_14 C1_14 1_555 1_555
H4_14 C1_14 1_555 1_555
H5_14 C1_14 1_555 1_555
C2_14 N1_14 1_555 1_555
H6_14 C2_14 1_555 1_555
H7_14 C2_14 1_555 1_555
H8_14 C2_14 1_555 1_555
N1_15 H1_15 1_555 1_555
H2_15 N1_15 1_555 1_555
C1_15 N1_15 1_555 1_555
H3_15 C1_15 1_555 1_555
H4_15 C1_15 1_555 1_555
H5_15 C1_15 1_555 1_555
C2_15 N1_15 1_555 1_555
H6_15 C2_15 1_555 1_555
H7_15 C2_15 1_555 1_555
H8_15 C2_15 1_555 1_555
N1_16 H1_16 1_555 1_555
H2_16 N1_16 1_555 1_555
C1_16 N1_16 1_555 1_555
H3_16 C1_16 1_555 1_555
H4_16 C1_16 1_555 1_555
H5_16 C1_16 1_555 1_555
C2_16 N1_16 1_555 1_555
H6_16 C2_16 1_555 1_555
H7_16 C2_16 1_555 1_555
H8_16 C2_16 1_555 1_555
N1_17 H1_17 1_555 1_555
H2_17 N1_17 1_555 1_555
C1_17 N1_17 1_555 1_555
H3_17 C1_17 1_555 1_555
H4_17 C1_17 1_555 1_555
H5_17 C1_17 1_555 1_555
C2_17 N1_17 1_555 1_555
H6_17 C2_17 1_555 1_555
H7_17 C2_17 1_555 1_555
H8_17 C2_17 1_555 1_555
N1_18 H1_18 1_555 1_555
H2_18 N1_18 1_555 1_555
C1_18 N1_18 1_555 1_555
H3_18 C1_18 1_555 1_555
H4_18 C1_18 1_555 1_555
H5_18 C1_18 1_555 1_555
C2_18 N1_18 1_555 1_555
H6_18 C2_18 1_555 1_555
H7_18 C2_18 1_555 1_555
H8_18 C2_18 1_555 1_555
N1_19 H1_19 1_555 1_555
H2_19 N1_19 1_555 1_555
C1_19 N1_19 1_555 1_555
H3_19 C1_19 1_555 1_555
H4_19 C1_19 1_555 1_555
H5_19 C1_19 1_555 1_555
C2_19 N1_19 1_555 1_555
H6_19 C2_19 1_555 1_555
H7_19 C2_19 1_555 1_555
H8_19 C2_19 1_555 1_555
N1_20 H1_20 1_555 1_555
H2_20 N1_20 1_555 1_555
C1_20 N1_20 1_555 1_555
H3_20 C1_20 1_555 1_555
H4_20 C1_20 1_555 1_555
H5_20 C1_20 1_555 1_555
C2_20 N1_20 1_555 1_555
H6_20 C2_20 1_555 1_555
H7_20 C2_20 1_555 1_555
H8_20 C2_20 1_555 1_555
N1_21 H1_21 1_555 1_555
H2_21 N1_21 1_555 1_555
C1_21 N1_21 1_555 1_555
H3_21 C1_21 1_555 1_555
H4_21 C1_21 1_555 1_555
H5_21 C1_21 1_555 1_555
C2_21 N1_21 1_555 1_555
H6_21 C2_21 1_555 1_555
H7_21 C2_21 1_555 1_555
H8_21 C2_21 1_555 1_555
N1_22 H1_22 1_555 1_555
H2_22 N1_22 1_555 1_555
C1_22 N1_22 1_555 1_555
H3_22 C1_22 1_555 1_555
H4_22 C1_22 1_555 1_555
H5_22 C1_22 1_555 1_555
C2_22 N1_22 1_555 1_555
H6_22 C2_22 1_555 1_555
H7_22 C2_22 1_555 1_555
H8_22 C2_22 1_555 1_555
N1_23 H1_23 1_555 1_555
H2_23 N1_23 1_555 1_555
C1_23 N1_23 1_555 1_555
H3_23 C1_23 1_555 1_555
H4_23 C1_23 1_555 1_555
H5_23 C1_23 1_555 1_555
C2_23 N1_23 1_555 1_555
H6_23 C2_23 1_555 1_555
H7_23 C2_23 1_555 1_555
H8_23 C2_23 1_555 1_555
N1_24 H1_24 1_555 1_555
H2_24 N1_24 1_555 1_555
C1_24 N1_24 1_555 1_555
H3_24 C1_24 1_555 1_555
H4_24 C1_24 1_555 1_555
H5_24 C1_24 1_555 1_555
C2_24 N1_24 1_555 1_555
H6_24 C2_24 1_555 1_555
H7_24 C2_24 1_555 1_555
H8_24 C2_24 1_555 1_555
N1_25 H1_25 1_555 1_555
H2_25 N1_25 1_555 1_555
C1_25 N1_25 1_555 1_555
H3_25 C1_25 1_555 1_555
H4_25 C1_25 1_555 1_555
H5_25 C1_25 1_555 1_555
C2_25 N1_25 1_555 1_555
H6_25 C2_25 1_555 1_555
H7_25 C2_25 1_555 1_555
H8_25 C2_25 1_555 1_555
N1_26 H1_26 1_555 1_555
H2_26 N1_26 1_555 1_555
C1_26 N1_26 1_555 1_555
H3_26 C1_26 1_555 1_555
H4_26 C1_26 1_555 1_555
H5_26 C1_26 1_555 1_555
C2_26 N1_26 1_555 1_555
H6_26 C2_26 1_555 1_555
H7_26 C2_26 1_555 1_555
H8_26 C2_26 1_555 1_555
N1_27 H1_27 1_555 1_555
H2_27 N1_27 1_555 1_555
C1_27 N1_27 1_555 1_555
H3_27 C1_27 1_555 1_555
H4_27 C1_27 1_555 1_555
H5_27 C1_27 1_555 1_555
C2_27 N1_27 1_555 1_555
H6_27 C2_27 1_555 1_555
H7_27 C2_27 1_555 1_555
H8_27 C2_27 1_555 1_555
N1_28 H1_28 1_555 1_555
H2_28 N1_28 1_555 1_555
C1_28 N1_28 1_555 1_555
H3_28 C1_28 1_555 1_555
H4_28 C1_28 1_555 1_555
H5_28 C1_28 1_555 1_555
C2_28 N1_28 1_555 1_555
H6_28 C2_28 1_555 1_555
H7_28 C2_28 1_555 1_555
H8_28 C2_28 1_555 1_555
N1_29 H1_29 1_555 1_555
H2_29 N1_29 1_555 1_555
C1_29 N1_29 1_555 1_555
H3_29 C1_29 1_555 1_555
H4_29 C1_29 1_555 1_555
H5_29 C1_29 1_555 1_555
C2_29 N1_29 1_555 1_555
H6_29 C2_29 1_555 1_555
H7_29 C2_29 1_555 1_555
H8_29 C2_29 1_555 1_555
N1_30 H1_30 1_555 1_555
H2_30 N1_30 1_555 1_555
C1_30 N1_30 1_555 1_555
H3_30 C1_30 1_555 1_555
H4_30 C1_30 1_555 1_555
H5_30 C1_30 1_555 1_555
C2_30 N1_30 1_555 1_555
H6_30 C2_30 1_555 1_555
H7_30 C2_30 1_555 1_555
H8_30 C2_30 1_555 1_555
N1_31 H1_31 1_555 1_555
H2_31 N1_31 1_555 1_555
C1_31 N1_31 1_555 1_555
H3_31 C1_31 1_555 1_555
H4_31 C1_31 1_555 1_555
H5_31 C1_31 1_555 1_555
C2_31 N1_31 1_555 1_555
H6_31 C2_31 1_555 1_555
H7_31 C2_31 1_555 1_555
H8_31 C2_31 1_555 1_555
N1_32 H1_32 1_555 1_555
H2_32 N1_32 1_555 1_555
C1_32 N1_32 1_555 1_555
H3_32 C1_32 1_555 1_555
H4_32 C1_32 1_555 1_555
H5_32 C1_32 1_555 1_555
C2_32 N1_32 1_555 1_555
H6_32 C2_32 1_555 1_555
H7_32 C2_32 1_555 1_555
H8_32 C2_32 1_555 1_555
N1_33 H1_33 1_555 1_555
H2_33 N1_33 1_555 1_555
C1_33 N1_33 1_555 1_555
H3_33 C1_33 1_555 1_555
H4_33 C1_33 1_555 1_555
H5_33 C1_33 1_555 1_555
C2_33 N1_33 1_555 1_555
H6_33 C2_33 1_555 1_555
H7_33 C2_33 1_555 1_555
H8_33 C2_33 1_555 1_555
N1_34 H1_34 1_555 1_555
H2_34 N1_34 1_555 1_555
C1_34 N1_34 1_555 1_555
H3_34 C1_34 1_555 1_555
H4_34 C1_34 1_555 1_555
H5_34 C1_34 1_555 1_555
C2_34 N1_34 1_555 1_555
H6_34 C2_34 1_555 1_555
H7_34 C2_34 1_555 1_555
H8_34 C2_34 1_555 1_555
N1_35 H1_35 1_555 1_555
H2_35 N1_35 1_555 1_555
C1_35 N1_35 1_555 1_555
H3_35 C1_35 1_555 1_555
H4_35 C1_35 1_555 1_555
H5_35 C1_35 1_555 1_555
C2_35 N1_35 1_555 1_555
H6_35 C2_35 1_555 1_555
H7_35 C2_35 1_555 1_555
H8_35 C2_35 1_555 1_555
N1_36 H1_36 1_555 1_555
H2_36 N1_36 1_555 1_555
C1_36 N1_36 1_555 1_555
H3_36 C1_36 1_555 1_555
H4_36 C1_36 1_555 1_555
H5_36 C1_36 1_555 1_555
C2_36 N1_36 1_555 1_555
H6_36 C2_36 1_555 1_555
H7_36 C2_36 1_555 1_555
H8_36 C2_36 1_555 1_555
N2 H9 1_555 1_555
H10 N2 1_555 1_555
C3 N2 1_555 1_555
H11 C3 1_555 1_555
H12 C3 1_555 1_555
H13 C3 1_555 1_555
C4 N2 1_555 1_555
H14 C4 1_555 1_555
H15 C4 1_555 1_555
H16 C4 1_555 1_555
N2_2 H9_2 1_555 1_555
H10_2 N2_2 1_555 1_555
C3_2 N2_2 1_555 1_555
H11_2 C3_2 1_555 1_555
H12_2 C3_2 1_555 1_555
H13_2 C3_2 1_555 1_555
C4_2 N2_2 1_555 1_555
H14_2 C4_2 1_555 1_555
H15_2 C4_2 1_555 1_555
H16_2 C4_2 1_555 1_555
N2_3 H9_3 1_555 1_555
H10_3 N2_3 1_555 1_555
C3_3 N2_3 1_555 1_555
H11_3 C3_3 1_555 1_555
H12_3 C3_3 1_555 1_555
H13_3 C3_3 1_555 1_555
C4_3 N2_3 1_555 1_555
H14_3 C4_3 1_555 1_555
H15_3 C4_3 1_555 1_555
H16_3 C4_3 1_555 1_555
N2_4 H9_4 1_555 1_555
H10_4 N2_4 1_555 1_555
C3_4 N2_4 1_555 1_555
H11_4 C3_4 1_555 1_555
H12_4 C3_4 1_555 1_555
H13_4 C3_4 1_555 1_555
C4_4 N2_4 1_555 1_555
H14_4 C4_4 1_555 1_555
H15_4 C4_4 1_555 1_555
H16_4 C4_4 1_555 1_555
N2_5 H9_5 1_555 1_555
H10_5 N2_5 1_555 1_555
C3_5 N2_5 1_555 1_555
H11_5 C3_5 1_555 1_555
H12_5 C3_5 1_555 1_555
H13_5 C3_5 1_555 1_555
C4_5 N2_5 1_555 1_555
H14_5 C4_5 1_555 1_555
H15_5 C4_5 1_555 1_555
H16_5 C4_5 1_555 1_555
N2_6 H9_6 1_555 1_555
H10_6 N2_6 1_555 1_555
C3_6 N2_6 1_555 1_555
H11_6 C3_6 1_555 1_555
H12_6 C3_6 1_555 1_555
H13_6 C3_6 1_555 1_555
C4_6 N2_6 1_555 1_555
H14_6 C4_6 1_555 1_555
H15_6 C4_6 1_555 1_555
H16_6 C4_6 1_555 1_555
N2_7 H9_7 1_555 1_555
H10_7 N2_7 1_555 1_555
C3_7 N2_7 1_555 1_555
H11_7 C3_7 1_555 1_555
H12_7 C3_7 1_555 1_555
H13_7 C3_7 1_555 1_555
C4_7 N2_7 1_555 1_555
H14_7 C4_7 1_555 1_555
H15_7 C4_7 1_555 1_555
H16_7 C4_7 1_555 1_555
N2_8 H9_8 1_555 1_555
H10_8 N2_8 1_555 1_555
C3_8 N2_8 1_555 1_555
H11_8 C3_8 1_555 1_555
H12_8 C3_8 1_555 1_555
H13_8 C3_8 1_555 1_555
C4_8 N2_8 1_555 1_555
H14_8 C4_8 1_555 1_555
H15_8 C4_8 1_555 1_555
H16_8 C4_8 1_555 1_555
N2_9 H9_9 1_555 1_555
H10_9 N2_9 1_555 1_555
C3_9 N2_9 1_555 1_555
H11_9 C3_9 1_555 1_555
H12_9 C3_9 1_555 1_555
H13_9 C3_9 1_555 1_555
C4_9 N2_9 1_555 1_555
H14_9 C4_9 1_555 1_555
H15_9 C4_9 1_555 1_555
H16_9 C4_9 1_555 1_555
N2_10 H9_10 1_555 1_555
H10_10 N2_10 1_555 1_555
C3_10 N2_10 1_555 1_555
H11_10 C3_10 1_555 1_555
H12_10 C3_10 1_555 1_555
H13_10 C3_10 1_555 1_555
C4_10 N2_10 1_555 1_555
H14_10 C4_10 1_555 1_555
H15_10 C4_10 1_555 1_555
H16_10 C4_10 1_555 1_555
N2_11 H9_11 1_555 1_555
H10_11 N2_11 1_555 1_555
C3_11 N2_11 1_555 1_555
H11_11 C3_11 1_555 1_555
H12_11 C3_11 1_555 1_555
H13_11 C3_11 1_555 1_555
C4_11 N2_11 1_555 1_555
H14_11 C4_11 1_555 1_555
H15_11 C4_11 1_555 1_555
H16_11 C4_11 1_555 1_555
N2_12 H9_12 1_555 1_555
H10_12 N2_12 1_555 1_555
C3_12 N2_12 1_555 1_555
H11_12 C3_12 1_555 1_555
H12_12 C3_12 1_555 1_555
H13_12 C3_12 1_555 1_555
C4_12 N2_12 1_555 1_555
H14_12 C4_12 1_555 1_555
H15_12 C4_12 1_555 1_555
H16_12 C4_12 1_555 1_555
N2_13 H9_13 1_555 1_555
H10_13 N2_13 1_555 1_555
C3_13 N2_13 1_555 1_555
H11_13 C3_13 1_555 1_555
H12_13 C3_13 1_555 1_555
H13_13 C3_13 1_555 1_555
C4_13 N2_13 1_555 1_555
H14_13 C4_13 1_555 1_555
H15_13 C4_13 1_555 1_555
H16_13 C4_13 1_555 1_555
N2_14 H9_14 1_555 1_555
H10_14 N2_14 1_555 1_555
C3_14 N2_14 1_555 1_555
H11_14 C3_14 1_555 1_555
H12_14 C3_14 1_555 1_555
H13_14 C3_14 1_555 1_555
C4_14 N2_14 1_555 1_555
H14_14 C4_14 1_555 1_555
H15_14 C4_14 1_555 1_555
H16_14 C4_14 1_555 1_555
N2_15 H9_15 1_555 1_555
H10_15 N2_15 1_555 1_555
C3_15 N2_15 1_555 1_555
H11_15 C3_15 1_555 1_555
H12_15 C3_15 1_555 1_555
H13_15 C3_15 1_555 1_555
C4_15 N2_15 1_555 1_555
H14_15 C4_15 1_555 1_555
H15_15 C4_15 1_555 1_555
H16_15 C4_15 1_555 1_555
N2_16 H9_16 1_555 1_555
H10_16 N2_16 1_555 1_555
C3_16 N2_16 1_555 1_555
H11_16 C3_16 1_555 1_555
H12_16 C3_16 1_555 1_555
H13_16 C3_16 1_555 1_555
C4_16 N2_16 1_555 1_555
H14_16 C4_16 1_555 1_555
H15_16 C4_16 1_555 1_555
H16_16 C4_16 1_555 1_555
N2_17 H9_17 1_555 1_555
H10_17 N2_17 1_555 1_555
C3_17 N2_17 1_555 1_555
H11_17 C3_17 1_555 1_555
H12_17 C3_17 1_555 1_555
H13_17 C3_17 1_555 1_555
C4_17 N2_17 1_555 1_555
H14_17 C4_17 1_555 1_555
H15_17 C4_17 1_555 1_555
H16_17 C4_17 1_555 1_555
N2_18 H9_18 1_555 1_555
H10_18 N2_18 1_555 1_555
C3_18 N2_18 1_555 1_555
H11_18 C3_18 1_555 1_555
H12_18 C3_18 1_555 1_555
H13_18 C3_18 1_555 1_555
C4_18 N2_18 1_555 1_555
H14_18 C4_18 1_555 1_555
H15_18 C4_18 1_555 1_555
H16_18 C4_18 1_555 1_555
N2_19 H9_19 1_555 1_555
H10_19 N2_19 1_555 1_555
C3_19 N2_19 1_555 1_555
H11_19 C3_19 1_555 1_555
H12_19 C3_19 1_555 1_555
H13_19 C3_19 1_555 1_555
C4_19 N2_19 1_555 1_555
H14_19 C4_19 1_555 1_555
H15_19 C4_19 1_555 1_555
H16_19 C4_19 1_555 1_555
N2_20 H9_20 1_555 1_555
H10_20 N2_20 1_555 1_555
C3_20 N2_20 1_555 1_555
H11_20 C3_20 1_555 1_555
H12_20 C3_20 1_555 1_555
H13_20 C3_20 1_555 1_555
C4_20 N2_20 1_555 1_555
H14_20 C4_20 1_555 1_555
H15_20 C4_20 1_555 1_555
H16_20 C4_20 1_555 1_555
N2_21 H9_21 1_555 1_555
H10_21 N2_21 1_555 1_555
C3_21 N2_21 1_555 1_555
H11_21 C3_21 1_555 1_555
H12_21 C3_21 1_555 1_555
H13_21 C3_21 1_555 1_555
C4_21 N2_21 1_555 1_555
H14_21 C4_21 1_555 1_555
H15_21 C4_21 1_555 1_555
H16_21 C4_21 1_555 1_555
N2_22 H9_22 1_555 1_555
H10_22 N2_22 1_555 1_555
C3_22 N2_22 1_555 1_555
H11_22 C3_22 1_555 1_555
H12_22 C3_22 1_555 1_555
H13_22 C3_22 1_555 1_555
C4_22 N2_22 1_555 1_555
H14_22 C4_22 1_555 1_555
H15_22 C4_22 1_555 1_555
H16_22 C4_22 1_555 1_555
N2_23 H9_23 1_555 1_555
H10_23 N2_23 1_555 1_555
C3_23 N2_23 1_555 1_555
H11_23 C3_23 1_555 1_555
H12_23 C3_23 1_555 1_555
H13_23 C3_23 1_555 1_555
C4_23 N2_23 1_555 1_555
H14_23 C4_23 1_555 1_555
H15_23 C4_23 1_555 1_555
H16_23 C4_23 1_555 1_555
N2_24 H9_24 1_555 1_555
H10_24 N2_24 1_555 1_555
C3_24 N2_24 1_555 1_555
H11_24 C3_24 1_555 1_555
H12_24 C3_24 1_555 1_555
H13_24 C3_24 1_555 1_555
C4_24 N2_24 1_555 1_555
H14_24 C4_24 1_555 1_555
H15_24 C4_24 1_555 1_555
H16_24 C4_24 1_555 1_555
N2_25 H9_25 1_555 1_555
H10_25 N2_25 1_555 1_555
C3_25 N2_25 1_555 1_555
H11_25 C3_25 1_555 1_555
H12_25 C3_25 1_555 1_555
H13_25 C3_25 1_555 1_555
C4_25 N2_25 1_555 1_555
H14_25 C4_25 1_555 1_555
H15_25 C4_25 1_555 1_555
H16_25 C4_25 1_555 1_555
N2_26 H9_26 1_555 1_555
H10_26 N2_26 1_555 1_555
C3_26 N2_26 1_555 1_555
H11_26 C3_26 1_555 1_555
H12_26 C3_26 1_555 1_555
H13_26 C3_26 1_555 1_555
C4_26 N2_26 1_555 1_555
H14_26 C4_26 1_555 1_555
H15_26 C4_26 1_555 1_555
H16_26 C4_26 1_555 1_555
N2_27 H9_27 1_555 1_555
H10_27 N2_27 1_555 1_555
C3_27 N2_27 1_555 1_555
H11_27 C3_27 1_555 1_555
H12_27 C3_27 1_555 1_555
H13_27 C3_27 1_555 1_555
C4_27 N2_27 1_555 1_555
H14_27 C4_27 1_555 1_555
H15_27 C4_27 1_555 1_555
H16_27 C4_27 1_555 1_555
N2_28 H9_28 1_555 1_555
H10_28 N2_28 1_555 1_555
C3_28 N2_28 1_555 1_555
H11_28 C3_28 1_555 1_555
H12_28 C3_28 1_555 1_555
H13_28 C3_28 1_555 1_555
C4_28 N2_28 1_555 1_555
H14_28 C4_28 1_555 1_555
H15_28 C4_28 1_555 1_555
H16_28 C4_28 1_555 1_555
N2_29 H9_29 1_555 1_555
H10_29 N2_29 1_555 1_555
C3_29 N2_29 1_555 1_555
H11_29 C3_29 1_555 1_555
H12_29 C3_29 1_555 1_555
H13_29 C3_29 1_555 1_555
C4_29 N2_29 1_555 1_555
H14_29 C4_29 1_555 1_555
H15_29 C4_29 1_555 1_555
H16_29 C4_29 1_555 1_555
N2_30 H9_30 1_555 1_555
H10_30 N2_30 1_555 1_555
C3_30 N2_30 1_555 1_555
H11_30 C3_30 1_555 1_555
H12_30 C3_30 1_555 1_555
H13_30 C3_30 1_555 1_555
C4_30 N2_30 1_555 1_555
H14_30 C4_30 1_555 1_555
H15_30 C4_30 1_555 1_555
H16_30 C4_30 1_555 1_555
N2_31 H9_31 1_555 1_555
H10_31 N2_31 1_555 1_555
C3_31 N2_31 1_555 1_555
H11_31 C3_31 1_555 1_555
H12_31 C3_31 1_555 1_555
H13_31 C3_31 1_555 1_555
C4_31 N2_31 1_555 1_555
H14_31 C4_31 1_555 1_555
H15_31 C4_31 1_555 1_555
H16_31 C4_31 1_555 1_555
N2_32 H9_32 1_555 1_555
H10_32 N2_32 1_555 1_555
C3_32 N2_32 1_555 1_555
H11_32 C3_32 1_555 1_555
H12_32 C3_32 1_555 1_555
H13_32 C3_32 1_555 1_555
C4_32 N2_32 1_555 1_555
H14_32 C4_32 1_555 1_555
H15_32 C4_32 1_555 1_555
H16_32 C4_32 1_555 1_555
N2_33 H9_33 1_555 1_555
H10_33 N2_33 1_555 1_555
C3_33 N2_33 1_555 1_555
H11_33 C3_33 1_555 1_555
H12_33 C3_33 1_555 1_555
H13_33 C3_33 1_555 1_555
C4_33 N2_33 1_555 1_555
H14_33 C4_33 1_555 1_555
H15_33 C4_33 1_555 1_555
H16_33 C4_33 1_555 1_555
N2_34 H9_34 1_555 1_555
H10_34 N2_34 1_555 1_555
C3_34 N2_34 1_555 1_555
H11_34 C3_34 1_555 1_555
H12_34 C3_34 1_555 1_555
H13_34 C3_34 1_555 1_555
C4_34 N2_34 1_555 1_555
H14_34 C4_34 1_555 1_555
H15_34 C4_34 1_555 1_555
H16_34 C4_34 1_555 1_555
N2_35 H9_35 1_555 1_555
H10_35 N2_35 1_555 1_555
C3_35 N2_35 1_555 1_555
H11_35 C3_35 1_555 1_555
H12_35 C3_35 1_555 1_555
H13_35 C3_35 1_555 1_555
C4_35 N2_35 1_555 1_555
H14_35 C4_35 1_555 1_555
H15_35 C4_35 1_555 1_555
H16_35 C4_35 1_555 1_555
N2_36 H9_36 1_555 1_555
H10_36 N2_36 1_555 1_555
C3_36 N2_36 1_555 1_555
H11_36 C3_36 1_555 1_555
H12_36 C3_36 1_555 1_555
H13_36 C3_36 1_555 1_555
C4_36 N2_36 1_555 1_555
H14_36 C4_36 1_555 1_555
H15_36 C4_36 1_555 1_555
H16_36 C4_36 1_555 1_555
Cu1 Cl1 1_555 1_555
Cl1 Cu3 1_555 1_555
Cl2 Cu1 1_555 1_555
N3 Cu1 1_555 1_555
N4 N3 1_555 1_555
N5 N3 1_555 1_555
O1 C5 1_555 1_555
O2 C10 1_555 1_555
C5 C6 1_555 1_555
C6 H17 1_555 1_555
C7 N4 1_555 1_555
C8 N5 1_555 1_555
C9 C8 1_555 1_555
H18 C9 1_555 1_555
C10 C5 1_555 1_555
N6 N7 1_555 1_555
N7 C13 1_555 1_555
N8 N6 1_555 1_555
C11 O1 1_555 1_555
C12 C11 1_555 1_555
H19 C12 1_555 1_555
C13 C12 1_555 1_555
C14 N8 1_555 1_555
C15 C14 1_555 1_555
H20 C15 1_555 1_555
C16 O2 1_555 1_555
Cu2 N5 1_555 1_555
Cl3 Cu2 1_555 1_555
Cu3 N4 1_555 1_555
Cu4 N6 1_555 1_555
Cu5 N8 1_555 1_555
Cu6 N7 1_555 1_555
Cl4 Cu2 1_555 1_555
N9 Cu2 1_555 1_555
N11 Cu1 1_555 1_555
N12 Cu1 1_555 1_555
C6 C7 1_555 1_555
C7 C8 1_555 1_555
C9 C10 1_555 1_555
C11 C16 1_555 1_555
C13 C14 1_555 1_555
C15 C16 1_555 1_555
N9 N12 1_555 1_555
O1_2 C5_2 1_555 1_555
O2_2 C10_2 1_555 1_555
C8_2 N5_2 1_555 1_555
C9_2 C8_2 1_555 1_555
H18_2 C9_2 1_555 1_555
C10_2 C5_2 1_555 1_555
C11_2 O1_2 1_555 1_555
C14_2 N8_2 1_555 1_555
C15_2 C14_2 1_555 1_555
H20_2 C15_2 1_555 1_555
C16_2 O2_2 1_555 1_555
Cu2_2 N5_2 1_555 1_555
Cl3_2 Cu2_2 1_555 1_555
Cu5_2 N8_2 1_555 1_555
Cl4_3 Cu2_2 1_555 1_555
C7_2 C8_2 1_555 1_555
C9_2 C10_2 1_555 1_555
C11_2 C16_2 1_555 1_555
C13_2 C14_2 1_555 1_555
C15_2 C16_2 1_555 1_555
Cu1_2 Cl1_2 1_555 1_555
Cl1_2 Cu3_2 1_555 1_555
N3_2 Cu1_2 1_555 1_555
N4_2 N3_2 1_555 1_555
C6_2 H17_2 1_555 1_555
N6_2 N7_2 1_555 1_555
H19_2 C12_2 1_555 1_555
Cu3_2 N4_2 1_555 1_555
Cu4_2 N6_2 1_555 1_555
Cu6_2 N7_2 1_555 1_555
N12_2 Cu1_2 1_555 1_555
N9_2 N12_2 1_555 1_555
Cu1_3 Cl1_3 1_555 1_555
Cl1_3 Cu3_3 1_555 1_555
N3_3 Cu1_3 1_555 1_555
N4_3 N3_3 1_555 1_555
C6_3 H17_3 1_555 1_555
N6_3 N7_3 1_555 1_555
H19_3 C12_3 1_555 1_555
Cu3_3 N4_3 1_555 1_555
Cu4_3 N6_3 1_555 1_555
Cu6_3 N7_3 1_555 1_555
N12_3 Cu1_3 1_555 1_555
N9_3 N12_3 1_555 1_555
O1_3 C5_3 1_555 1_555
O2_3 C10_3 1_555 1_555
C8_3 N5_3 1_555 1_555
C9_3 C8_3 1_555 1_555
H18_3 C9_3 1_555 1_555
C10_3 C5_3 1_555 1_555
C11_3 O1_3 1_555 1_555
C14_3 N8_3 1_555 1_555
C15_3 C14_3 1_555 1_555
H20_3 C15_3 1_555 1_555
C16_3 O2_3 1_555 1_555
Cu2_3 N5_3 1_555 1_555
Cl3_3 Cu2_3 1_555 1_555
Cu5_3 N8_3 1_555 1_555
Cl4_9 Cu2_3 1_555 1_555
C7_3 C8_3 1_555 1_555
C9_3 C10_3 1_555 1_555
C11_3 C16_3 1_555 1_555
C13_3 C14_3 1_555 1_555
C15_3 C16_3 1_555 1_555
Cu1_4 Cl1_4 1_555 1_555
Cl1_4 Cu3_4 1_555 1_555
Cl2_4 Cu1_4 1_555 1_555
N3_4 Cu1_4 1_555 1_555
N4_4 N3_4 1_555 1_555
N5_4 N3_4 1_555 1_555
O1_4 C5_4 1_555 1_555
O2_4 C10_4 1_555 1_555
C5_4 C6_4 1_555 1_555
C6_4 H17_4 1_555 1_555
C7_4 N4_4 1_555 1_555
C8_4 N5_4 1_555 1_555
C9_4 C8_4 1_555 1_555
H18_4 C9_4 1_555 1_555
C10_4 C5_4 1_555 1_555
N6_4 N7_4 1_555 1_555
N7_4 C13_4 1_555 1_555
N8_4 N6_4 1_555 1_555
C11_4 O1_4 1_555 1_555
C12_4 C11_4 1_555 1_555
H19_4 C12_4 1_555 1_555
C13_4 C12_4 1_555 1_555
C14_4 N8_4 1_555 1_555
C15_4 C14_4 1_555 1_555
H20_4 C15_4 1_555 1_555
C16_4 O2_4 1_555 1_555
Cu2_4 N5_4 1_555 1_555
Cl3_4 Cu2_4 1_555 1_555
Cu3_4 N4_4 1_555 1_555
Cu4_4 N6_4 1_555 1_555
Cu5_4 N8_4 1_555 1_555
Cu6_4 N7_4 1_555 1_555
Cl4_2 Cu2_4 1_555 1_555
N9_4 Cu2_4 1_555 1_555
N11_4 Cu1_4 1_555 1_555
N12_4 Cu1_4 1_555 1_555
C6_4 C7_4 1_555 1_555
C7_4 C8_4 1_555 1_555
C9_4 C10_4 1_555 1_555
C11_4 C16_4 1_555 1_555
C13_4 C14_4 1_555 1_555
C15_4 C16_4 1_555 1_555
N9_4 N12_4 1_555 1_555
O1_5 C5_5 1_555 1_555
O2_5 C10_5 1_555 1_555
C8_5 N5_5 1_555 1_555
C9_5 C8_5 1_555 1_555
H18_5 C9_5 1_555 1_555
C10_5 C5_5 1_555 1_555
C11_5 O1_5 1_555 1_555
C14_5 N8_5 1_555 1_555
C15_5 C14_5 1_555 1_555
H20_5 C15_5 1_555 1_555
C16_5 O2_5 1_555 1_555
Cu2_5 N5_5 1_555 1_555
Cl3_5 Cu2_5 1_555 1_555
Cu5_5 N8_5 1_555 1_555
Cl4_8 Cu2_5 1_555 1_555
C7_5 C8_5 1_555 1_555
C9_5 C10_5 1_555 1_555
C11_5 C16_5 1_555 1_555
C13_5 C14_5 1_555 1_555
C15_5 C16_5 1_555 1_555
Cu1_5 Cl1_5 1_555 1_555
Cl1_5 Cu3_5 1_555 1_555
N3_5 Cu1_5 1_555 1_555
N4_5 N3_5 1_555 1_555
C6_5 H17_5 1_555 1_555
N6_5 N7_5 1_555 1_555
H19_5 C12_5 1_555 1_555
Cu3_5 N4_5 1_555 1_555
Cu4_5 N6_5 1_555 1_555
Cu6_5 N7_5 1_555 1_555
N12_5 Cu1_5 1_555 1_555
N9_5 N12_5 1_555 1_555
Cu1_6 Cl1_6 1_555 1_555
Cl1_6 Cu3_6 1_555 1_555
N3_6 Cu1_6 1_555 1_555
N4_6 N3_6 1_555 1_555
C6_6 H17_6 1_555 1_555
N6_6 N7_6 1_555 1_555
H19_6 C12_6 1_555 1_555
Cu3_6 N4_6 1_555 1_555
Cu4_6 N6_6 1_555 1_555
Cu6_6 N7_6 1_555 1_555
N12_6 Cu1_6 1_555 1_555
N9_6 N12_6 1_555 1_555
O1_6 C5_6 1_555 1_555
O2_6 C10_6 1_555 1_555
C8_6 N5_6 1_555 1_555
C9_6 C8_6 1_555 1_555
H18_6 C9_6 1_555 1_555
C10_6 C5_6 1_555 1_555
C11_6 O1_6 1_555 1_555
C14_6 N8_6 1_555 1_555
C15_6 C14_6 1_555 1_555
H20_6 C15_6 1_555 1_555
C16_6 O2_6 1_555 1_555
Cu2_6 N5_6 1_555 1_555
Cl3_6 Cu2_6 1_555 1_555
Cu5_6 N8_6 1_555 1_555
Cl4_6 Cu2_6 1_555 1_555
C7_6 C8_6 1_555 1_555
C9_6 C10_6 1_555 1_555
C11_6 C16_6 1_555 1_555
C13_6 C14_6 1_555 1_555
C15_6 C16_6 1_555 1_555
N11_5 N3_7 1_555 1_555
N5_7 N3_7 1_555 1_555
O1_7 C5_7 1_555 1_555
O2_7 C10_7 1_555 1_555
C5_7 C6_7 1_555 1_555
C6_7 H17_7 1_555 1_555
C7_7 N11_5 1_555 1_555
C8_7 N5_7 1_555 1_555
C9_7 C8_7 1_555 1_555
H18_7 C9_7 1_555 1_555
C10_7 C5_7 1_555 1_555
N6_7 N7_7 1_555 1_555
N7_7 C13_7 1_555 1_555
N8_7 N6_7 1_555 1_555
C11_7 O1_7 1_555 1_555
C12_7 C11_7 1_555 1_555
H19_7 C12_7 1_555 1_555
C13_7 C12_7 1_555 1_555
C14_7 N8_7 1_555 1_555
C15_7 C14_7 1_555 1_555
H20_7 C15_7 1_555 1_555
C16_7 O2_7 1_555 1_555
Cu3_3 N5_7 1_555 1_555
Cl3_7 Cu3_3 1_555 1_555
Cu6_2 N8_7 1_555 1_555
C6_7 C7_7 1_555 1_555
C7_7 C8_7 1_555 1_555
C9_7 C10_7 1_555 1_555
C11_7 C16_7 1_555 1_555
C13_7 C14_7 1_555 1_555
C15_7 C16_7 1_555 1_555
Cl2_7 Cu3_5 1_555 1_555
N12_7 Cu3_5 1_555 1_555
N9_7 N12_7 1_555 1_555
Cl2_8 Cu3_4 1_555 1_555
N3_8 Cu3_4 1_555 1_555
N11_4 N3_8 1_555 1_555
N5_8 N3_8 1_555 1_555
O1_8 C5_8 1_555 1_555
O2_8 C10_8 1_555 1_555
C5_8 C6_8 1_555 1_555
C6_8 H17_8 1_555 1_555
C7_8 N11_4 1_555 1_555
C8_8 N5_8 1_555 1_555
C9_8 C8_8 1_555 1_555
H18_8 C9_8 1_555 1_555
C10_8 C5_8 1_555 1_555
N6_8 N7_8 1_555 1_555
N7_8 C13_8 1_555 1_555
N8_8 N6_8 1_555 1_555
C11_8 O1_8 1_555 1_555
C12_8 C11_8 1_555 1_555
H19_8 C12_8 1_555 1_555
C13_8 C12_8 1_555 1_555
C14_8 N8_8 1_555 1_555
C15_8 C14_8 1_555 1_555
H20_8 C15_8 1_555 1_555
C16_8 O2_8 1_555 1_555
Cu3 N5_8 1_555 1_555
Cl3_8 Cu3 1_555 1_555
Cu6_3 N8_8 1_555 1_555
N9_8 Cu3 1_555 1_555
N12_8 Cu3_4 1_555 1_555
C6_8 C7_8 1_555 1_555
C7_8 C8_8 1_555 1_555
C9_8 C10_8 1_555 1_555
C11_8 C16_8 1_555 1_555
C13_8 C14_8 1_555 1_555
C15_8 C16_8 1_555 1_555
N9_8 N12_8 1_555 1_555
Cl2_9 Cu3_6 1_555 1_555
N12_9 Cu3_6 1_555 1_555
N9_9 N12_9 1_555 1_555
N11_6 N3_9 1_555 1_555
N5_9 N3_9 1_555 1_555
O1_9 C5_9 1_555 1_555
O2_9 C10_9 1_555 1_555
C5_9 C6_9 1_555 1_555
C6_9 H17_9 1_555 1_555
C7_9 N11_6 1_555 1_555
C8_9 N5_9 1_555 1_555
C9_9 C8_9 1_555 1_555
H18_9 C9_9 1_555 1_555
C10_9 C5_9 1_555 1_555
N6_9 N7_9 1_555 1_555
N7_9 C13_9 1_555 1_555
N8_9 N6_9 1_555 1_555
C11_9 O1_9 1_555 1_555
C12_9 C11_9 1_555 1_555
H19_9 C12_9 1_555 1_555
C13_9 C12_9 1_555 1_555
C14_9 N8_9 1_555 1_555
C15_9 C14_9 1_555 1_555
H20_9 C15_9 1_555 1_555
C16_9 O2_9 1_555 1_555
Cu3_2 N5_9 1_555 1_555
Cl3_9 Cu3_2 1_555 1_555
Cu6_4 N6_9 1_555 1_555
Cu6 N8_9 1_555 1_555
Cu4_4 N7_9 1_555 1_555
C6_9 C7_9 1_555 1_555
C7_9 C8_9 1_555 1_555
C9_9 C10_9 1_555 1_555
C11_9 C16_9 1_555 1_555
C13_9 C14_9 1_555 1_555
C15_9 C16_9 1_555 1_555
N10_5 N9_3 1_555 1_555
O2_10 C10_10 1_555 1_555
C7_10 N10_5 1_555 1_555
C8_10 N12_3 1_555 1_555
C9_10 C8_10 1_555 1_555
H18_10 C9_10 1_555 1_555
C10_10 C5_10 1_555 1_555
N6_10 N7_10 1_555 1_555
N7_10 C13_10 1_555 1_555
N8_10 N6_10 1_555 1_555
C14_10 N8_10 1_555 1_555
C15_10 C14_10 1_555 1_555
H20_10 C15_10 1_555 1_555
C16_10 O2_10 1_555 1_555
Cu4_2 N8_10 1_555 1_555
C7_10 C8_10 1_555 1_555
C9_10 C10_10 1_555 1_555
C11_10 C16_10 1_555 1_555
C13_10 C14_10 1_555 1_555
C15_10 C16_10 1_555 1_555
C6_10 H17_10 1_555 1_555
H19_10 C12_10 1_555 1_555
N10_6 N9_2 1_555 1_555
O2_11 C10_11 1_555 1_555
C7_11 N10_6 1_555 1_555
C8_11 N12_2 1_555 1_555
C9_11 C8_11 1_555 1_555
H18_11 C9_11 1_555 1_555
C10_11 C5_11 1_555 1_555
N6_11 N7_11 1_555 1_555
N7_11 C13_11 1_555 1_555
N8_11 N6_11 1_555 1_555
C14_11 N8_11 1_555 1_555
C15_11 C14_11 1_555 1_555
H20_11 C15_11 1_555 1_555
C16_11 O2_11 1_555 1_555
Cu5 N6_11 1_555 1_555
Cu4 N8_11 1_555 1_555
C7_11 C8_11 1_555 1_555
C9_11 C10_11 1_555 1_555
C11_11 C16_11 1_555 1_555
C13_11 C14_11 1_555 1_555
C15_11 C16_11 1_555 1_555
C6_11 H17_11 1_555 1_555
H19_11 C12_11 1_555 1_555
N10_4 N9 1_555 1_555
O2_12 C10_12 1_555 1_555
C7_12 N10_4 1_555 1_555
C8_12 N12 1_555 1_555
C9_12 C8_12 1_555 1_555
H18_12 C9_12 1_555 1_555
C10_12 C5_12 1_555 1_555
N6_12 N7_12 1_555 1_555
N7_12 C13_12 1_555 1_555
N8_12 N6_12 1_555 1_555
C14_12 N8_12 1_555 1_555
C15_12 C14_12 1_555 1_555
H20_12 C15_12 1_555 1_555
C16_12 O2_12 1_555 1_555
Cu4_3 N8_12 1_555 1_555
C7_12 C8_12 1_555 1_555
C9_12 C10_12 1_555 1_555
C11_12 C16_12 1_555 1_555
C13_12 C14_12 1_555 1_555
C15_12 C16_12 1_555 1_555
C6_12 H17_12 1_555 1_555
H19_12 C12_12 1_555 1_555
C6_13 H17_13 1_555 1_555
H19_13 C12_13 1_555 1_555
N10_2 N9_6 1_555 1_555
O2_13 C10_13 1_555 1_555
C7_13 N10_2 1_555 1_555
C8_13 N12_6 1_555 1_555
C9_13 C8_13 1_555 1_555
H18_13 C9_13 1_555 1_555
C10_13 C5_13 1_555 1_555
N6_13 N7_13 1_555 1_555
N7_13 C13_13 1_555 1_555
N8_13 N6_13 1_555 1_555
C14_13 N8_13 1_555 1_555
C15_13 C14_13 1_555 1_555
H20_13 C15_13 1_555 1_555
C16_13 O2_13 1_555 1_555
Cu4_5 N8_13 1_555 1_555
C7_13 C8_13 1_555 1_555
C9_13 C10_13 1_555 1_555
C11_13 C16_13 1_555 1_555
C13_13 C14_13 1_555 1_555
C15_13 C16_13 1_555 1_555
C6_14 H17_14 1_555 1_555
H19_14 C12_14 1_555 1_555
N10_3 N9_5 1_555 1_555
O2_14 C10_14 1_555 1_555
C7_14 N10_3 1_555 1_555
C8_14 N12_5 1_555 1_555
C9_14 C8_14 1_555 1_555
H18_14 C9_14 1_555 1_555
C10_14 C5_14 1_555 1_555
N6_14 N7_14 1_555 1_555
N7_14 C13_14 1_555 1_555
N8_14 N6_14 1_555 1_555
C14_14 N8_14 1_555 1_555
C15_14 C14_14 1_555 1_555
H20_14 C15_14 1_555 1_555
C16_14 O2_14 1_555 1_555
Cu5_4 N6_14 1_555 1_555
Cu4_4 N8_14 1_555 1_555
C7_14 C8_14 1_555 1_555
C9_14 C10_14 1_555 1_555
C11_14 C16_14 1_555 1_555
C13_14 C14_14 1_555 1_555
C15_14 C16_14 1_555 1_555
C6_15 H17_15 1_555 1_555
H19_15 C12_15 1_555 1_555
N10 N9_4 1_555 1_555
O2_15 C10_15 1_555 1_555
C7_15 N10 1_555 1_555
C8_15 N12_4 1_555 1_555
C9_15 C8_15 1_555 1_555
H18_15 C9_15 1_555 1_555
C10_15 C5_15 1_555 1_555
N6_15 N7_15 1_555 1_555
N7_15 C13_15 1_555 1_555
N8_15 N6_15 1_555 1_555
C14_15 N8_15 1_555 1_555
C15_15 C14_15 1_555 1_555
H20_15 C15_15 1_555 1_555
C16_15 O2_15 1_555 1_555
Cu4_6 N8_15 1_555 1_555
C7_15 C8_15 1_555 1_555
C9_15 C10_15 1_555 1_555
C11_15 C16_15 1_555 1_555
C13_15 C14_15 1_555 1_555
C15_15 C16_15 1_555 1_555
N11_2 N9_9 1_555 1_555
O1_16 C5_16 1_555 1_555
O2_16 C10_16 1_555 1_555
C5_16 C6_16 1_555 1_555
C6_16 H17_16 1_555 1_555
C7_16 N11_2 1_555 1_555
C8_16 N12_9 1_555 1_555
C9_16 C8_16 1_555 1_555
H18_16 C9_16 1_555 1_555
C10_16 C5_16 1_555 1_555
N6_16 N7_16 1_555 1_555
N7_16 C13_16 1_555 1_555
N8_16 N6_16 1_555 1_555
C11_16 O1_16 1_555 1_555
C12_16 C11_16 1_555 1_555
H19_16 C12_16 1_555 1_555
C13_16 C12_16 1_555 1_555
C14_16 N8_16 1_555 1_555
C15_16 C14_16 1_555 1_555
H20_16 C15_16 1_555 1_555
C16_16 O2_16 1_555 1_555
Cu6_5 N8_16 1_555 1_555
C6_16 C7_16 1_555 1_555
C7_16 C8_16 1_555 1_555
C9_16 C10_16 1_555 1_555
C11_16 C16_16 1_555 1_555
C13_16 C14_16 1_555 1_555
C15_16 C16_16 1_555 1_555
N11 N9_8 1_555 1_555
O1_17 C5_17 1_555 1_555
O2_17 C10_17 1_555 1_555
C5_17 C6_17 1_555 1_555
C6_17 H17_17 1_555 1_555
C7_17 N11 1_555 1_555
C8_17 N12_8 1_555 1_555
C9_17 C8_17 1_555 1_555
H18_17 C9_17 1_555 1_555
C10_17 C5_17 1_555 1_555
N6_17 N7_17 1_555 1_555
N7_17 C13_17 1_555 1_555
N8_17 N6_17 1_555 1_555
C11_17 O1_17 1_555 1_555
C12_17 C11_17 1_555 1_555
H19_17 C12_17 1_555 1_555
C13_17 C12_17 1_555 1_555
C14_17 N8_17 1_555 1_555
C15_17 C14_17 1_555 1_555
H20_17 C15_17 1_555 1_555
C16_17 O2_17 1_555 1_555
Cu6_6 N8_17 1_555 1_555
C6_17 C7_17 1_555 1_555
C7_17 C8_17 1_555 1_555
C9_17 C10_17 1_555 1_555
C11_17 C16_17 1_555 1_555
C13_17 C14_17 1_555 1_555
C15_17 C16_17 1_555 1_555
N11_3 N9_7 1_555 1_555
O1_18 C5_18 1_555 1_555
O2_18 C10_18 1_555 1_555
C5_18 C6_18 1_555 1_555
C6_18 H17_18 1_555 1_555
C7_18 N11_3 1_555 1_555
C8_18 N12_7 1_555 1_555
C9_18 C8_18 1_555 1_555
H18_18 C9_18 1_555 1_555
C10_18 C5_18 1_555 1_555
N6_18 N7_18 1_555 1_555
N7_18 C13_18 1_555 1_555
N8_18 N6_18 1_555 1_555
C11_18 O1_18 1_555 1_555
C12_18 C11_18 1_555 1_555
H19_18 C12_18 1_555 1_555
C13_18 C12_18 1_555 1_555
C14_18 N8_18 1_555 1_555
C15_18 C14_18 1_555 1_555
H20_18 C15_18 1_555 1_555
C16_18 O2_18 1_555 1_555
Cu6 N6_18 1_555 1_555
Cu6_4 N8_18 1_555 1_555
Cu4 N7_18 1_555 1_555
C6_18 C7_18 1_555 1_555
C7_18 C8_18 1_555 1_555
C9_18 C10_18 1_555 1_555
C11_18 C16_18 1_555 1_555
C13_18 C14_18 1_555 1_555
C15_18 C16_18 1_555 1_555
Cu4_4 Cl1_7 1_555 1_555
Cl1_7 Cu6_4 1_555 1_555
Cl2_10 Cu4_4 1_555 1_555
Cl3_10 Cu5_4 1_555 1_555
Cl4_12 Cu5_4 1_555 1_555
Cu4_6 Cl1_8 1_555 1_555
Cl1_8 Cu6_6 1_555 1_555
Cl3_11 Cu5_6 1_555 1_555
Cl4_16 Cu5_6 1_555 1_555
Cl3_12 Cu5_5 1_555 1_555
Cl4_18 Cu5_5 1_555 1_555
Cu4_5 Cl1_9 1_555 1_555
Cl1_9 Cu6_5 1_555 1_555
Cu4 Cl1_10 1_555 1_555
Cl1_10 Cu6 1_555 1_555
Cl2_13 Cu4 1_555 1_555
Cl3_13 Cu5 1_555 1_555
Cl4_11 Cu5 1_555 1_555
Cu4_3 Cl1_11 1_555 1_555
Cl1_11 Cu6_3 1_555 1_555
Cl3_14 Cu5_3 1_555 1_555
Cl4_19 Cu5_3 1_555 1_555
Cl3_15 Cu5_2 1_555 1_555
Cl4_13 Cu5_2 1_555 1_555
Cu4_2 Cl1_12 1_555 1_555
Cl1_12 Cu6_2 1_555 1_555
Cl2_16 Cu6_3 1_555 1_555
Cl3_16 Cu6_5 1_555 1_555
Cl2_17 Cu6 1_555 1_555
Cl3_17 Cu6_4 1_555 1_555
Cl3_18 Cu6_6 1_555 1_555
Cl2_18 Cu6_2 1_555 1_555

#END
