
###############################################################################
#
# This file contains modified crystal structure data generated from the
# MOF subset of the Cambridge Structural Database (CSD) v543 
# hosted by the Cambridge Crystallographic Data Centre (CCDC).
#
# This work is licensed under the Creative Commons
# Attribution-NonCommercial-ShareAlike 4.0 International License.
# To view a copy of this license, visit
# http://creativecommons.org/licenses/by-nc-sa/4.0/
# or send a letter to
# Creative Commons, PO Box 1866, Mountain View, CA 94042, USA.
#
# CIF created using the CSD Python API on 29 September 2022
# The structure has been converted into the P1 space group
# The structure has a 3D framework
# The original CSD entry JEHBOQ is in the tetragonal crystal system
# The framework has been calculated to contain at least 10.0% void space
# The void calculation uses a probe of radius 1.32A, grid spacing 0.4
#
###############################################################################

data_JEHBOQ
_chemical_formula_moiety         '(C300 H160 N48 O86 Zn24)n'
_symmetry_cell_setting           triclinic
_symmetry_space_group_name_H-M   'P 1'
_symmetry_Int_Tables_number      1
_space_group_name_Hall           'P 1'
loop_
_symmetry_equiv_pos_site_id
_symmetry_equiv_pos_as_xyz
1 x,y,z
_cell_length_a                   30.926(4)
_cell_length_b                   30.926(4)
_cell_length_c                   35.157(7)
_cell_angle_alpha                90
_cell_angle_beta                 90
_cell_angle_gamma                90
_cell_volume                     33624.8
loop_
_atom_site_label
_atom_site_type_symbol
_atom_site_fract_x
_atom_site_fract_y
_atom_site_fract_z
Zn1 Zn 0.24892(2) 0.44864(3) 0.23861(2)
Zn2 Zn 0.32381(3) 0.48690(3) 0.29445(2)
Zn3 Zn 0.01400(3) 0.05100(3) 0.46741(2)
O1 O 0.0000 0.0000 0.5000
O2 O 0.28551(14) 0.5000 0.2500
O3 O 0.4264(2) 0.2572(2) 0.68769(15)
O4 O 0.18682(16) 0.46393(18) 0.24004(16)
O5 O 0.38472(17) 0.4937(3) 0.28430(15)
O6 O 0.3056(3) 0.43232(18) 0.31834(17)
O7 O 0.0129(2) 0.0352(2) 0.41294(14)
O8 O 0.4696(2) 0.3129(2) 0.66312(14)
O9 O 0.0727(2) 0.0736(2) 0.47690(16)
C1 C -0.0000 0.0000 0.3973(4)
C2 C 0.2674(3) 0.3671(2) 0.33782(18)
C3 C 0.2367(3) 0.3350(3) 0.33170(18)
H1 H 0.2202 0.3351 0.3096
C4 C 0.2308(3) 0.3026(3) 0.3586(3)
H2 H 0.2103 0.2811 0.3545
C5 C 0.2555(3) 0.3024(3) 0.3917(2)
C6 C 0.2861(3) 0.3345(3) 0.39778(19)
H3 H 0.3026 0.3344 0.4199
C7 C 0.2921(2) 0.3669(2) 0.3709(2)
H4 H 0.3126 0.3884 0.3749
O10 O 0.25450(19) 0.40369(19) 0.27956(14)
O11 O 0.0973(2) 0.0308(2) 0.52833(16)
C8 C 0.0257(3) 0.5000 0.2500
C9 C 0.0000 0.0000 0.3520(3)
C10 C 0.1690(5) 0.5000 0.2500
C11 C 0.0951(3) 0.4599(3) 0.2401(4)
H5 H 0.1104 0.4350 0.2339
C12 C 0.0105(5) 0.0395(3) 0.29108(19)
H6 H 0.0152 0.0648 0.2774
N1 N 0.2447(5) 0.2665(4) 0.4174(3)
H7 H 0.2242 0.2498 0.4097
C13 C 0.0000 0.0000 0.2720(2)
C14 C 0.0479(3) 0.4599(3) 0.2400(3)
H8 H 0.0325 0.4351 0.2337
C15 C 0.0135(5) 0.0391(3) 0.3324(2)
H9 H 0.0238 0.0629 0.3458
C16 C 0.4006(4) 0.5000 0.2500
C17 C 0.2624(3) 0.2554(3) 0.4519(2)
N2 N 0.2440(3) 0.2212(3) 0.4719(2)
C18 C 0.2596(3) 0.2102(3) 0.5076(2)
N3 N 0.2937(3) 0.2334(3) 0.52351(19)
C19 C 0.3120(3) 0.2676(3) 0.5036(2)
N4 N 0.2964(3) 0.2786(3) 0.4678(2)
N5 N 0.3440(4) 0.2939(4) 0.5188(3)
H10 H 0.3505 0.3165 0.5058
C20 C 0.3685(3) 0.2876(3) 0.55481(19)
C21 C 0.3581(3) 0.2581(3) 0.5832(2)
H11 H 0.3357 0.2384 0.5795
C22 C 0.3811(3) 0.2580(3) 0.6171(2)
H12 H 0.3742 0.2382 0.6361
C23 C 0.4146(3) 0.2873(3) 0.62270(18)
C24 C 0.4249(2) 0.3168(2) 0.5943(3)
H13 H 0.4473 0.3365 0.5980
C25 C 0.4019(3) 0.3170(3) 0.5604(2)
H14 H 0.4088 0.3367 0.5414
N6 N 0.2429(4) 0.1752(4) 0.5266(3)
H15 H 0.2558 0.1696 0.5477
C26 C 0.1179(4) 0.5000 0.2500
C27 C 0.0942(4) 0.0658(4) 0.5078(3)
C28 C 0.1438(3) 0.1269(3) 0.4849(2)
H16 H 0.1244 0.1314 0.4650
C29 C 0.1798(3) 0.1535(3) 0.4887(2)
H17 H 0.1844 0.1759 0.4715
C30 C 0.2088(3) 0.1467(3) 0.5183(3)
C31 C 0.2019(3) 0.1133(3) 0.5441(3)
H18 H 0.2213 0.1088 0.5639
C32 C 0.1659(3) 0.0867(3) 0.5402(2)
H19 H 0.1613 0.0643 0.5574
C33 C 0.1369(3) 0.0934(3) 0.5106(3)
C34 C 0.2740(5) 0.4064(4) 0.3117(3)
C35 C 0.4362(4) 0.2866(4) 0.6618(3)
C36 C 0.4526(3) 0.5000 0.2500
C37 C 0.47607(17) 0.5001(2) 0.28581(19)
H20 H 0.4610 0.5004 0.3087
O14 O 0.18682(16) 0.53607(18) 0.25996(16)
C45 C 0.0951(3) 0.5401(3) 0.2599(4)
H25 H 0.1104 0.5650 0.2661
C46 C 0.0479(3) 0.5401(3) 0.2600(3)
H26 H 0.0325 0.5649 0.2663
O15 O 0.61528(17) 0.5063(3) 0.28430(15)
C47 C 0.5994(4) 0.5000 0.2500
C48 C 0.5474(3) 0.5000 0.2500
C49 C 0.52393(17) 0.4999(2) 0.28581(19)
H27 H 0.5390 0.4996 0.3087
O16 O 0.61528(17) 0.4937(3) 0.21570(15)
C50 C 0.52393(17) 0.5001(2) 0.21419(19)
H28 H 0.5390 0.5004 0.1913
O17 O 0.38472(17) 0.5063(3) 0.21570(15)
C51 C 0.47607(17) 0.4999(2) 0.21419(19)
H29 H 0.4610 0.4996 0.1913
C54 C 0.0000 0.0000 0.1027(4)
C55 C 0.0000 0.0000 0.1480(3)
C57 C 0.0000 0.0000 0.2280(2)
Zn17 Zn 0.24892(2) 0.55136(3) 0.26139(2)
Zn19 Zn 0.44864(3) 0.24892(2) 0.73861(2)
Zn22 Zn 0.67619(3) 0.51310(3) 0.29445(2)
Zn24 Zn 0.51310(3) 0.32381(3) 0.70555(2)
Zn26 Zn 0.67619(3) 0.48690(3) 0.20555(2)
Zn27 Zn 0.32381(3) 0.51310(3) 0.20555(2)
O45 O 0.2572(2) 0.4264(2) 0.18769(15)
O56 O 0.3129(2) 0.5304(2) 0.33688(14)
O1_2 O 0.0000 1.0000 0.5000
C1_2 C 0.0000 1.0000 0.3973(4)
C9_2 C 0.0000 1.0000 0.3520(3)
C13_2 C 0.0000 1.0000 0.2720(2)
C54_2 C 0.0000 1.0000 0.1027(4)
C55_2 C 0.0000 1.0000 0.1480(3)
C57_2 C 0.0000 1.0000 0.2280(2)
O20 O 0.0129(2) 0.9648(2) 0.08706(14)
C59 C 0.0105(5) 0.9605(3) 0.20892(19)
H34 H 0.0152 0.9352 0.2226
C60 C 0.0135(5) 0.9609(3) 0.1676(2)
H35 H 0.0238 0.9371 0.1542
Zn7 Zn 0.44864(3) 0.75108(2) 0.76139(2)
Zn8 Zn 0.48690(3) 0.67619(3) 0.70555(2)
Zn9 Zn 0.05100(3) 0.98600(3) 0.53259(2)
O28 O 0.2572(2) 0.5736(2) 0.31231(15)
O29 O 0.43232(18) 0.6944(3) 0.68166(17)
O31 O 0.0736(2) 0.9273(2) 0.52310(16)
C85 C 0.3671(2) 0.7326(3) 0.66218(18)
C86 C 0.3350(3) 0.7633(3) 0.66830(18)
H51 H 0.3351 0.7798 0.6904
C87 C 0.3026(3) 0.7692(3) 0.6414(3)
H52 H 0.2811 0.7897 0.6455
C88 C 0.3024(3) 0.7445(3) 0.6083(2)
C89 C 0.3345(3) 0.7139(3) 0.60222(19)
H53 H 0.3344 0.6974 0.5801
C90 C 0.3669(2) 0.7079(2) 0.6291(2)
H54 H 0.3884 0.6874 0.6251
O32 O 0.40369(19) 0.74550(19) 0.72044(14)
O33 O 0.0308(2) 0.9027(2) 0.47167(16)
N13 N 0.2665(4) 0.7553(5) 0.5826(3)
H55 H 0.2498 0.7758 0.5903
C91 C 0.2554(3) 0.7376(3) 0.5481(2)
N14 N 0.2212(3) 0.7560(3) 0.5281(2)
C92 C 0.2102(3) 0.7404(3) 0.4924(2)
N15 N 0.2334(3) 0.7063(3) 0.47649(19)
C93 C 0.2676(3) 0.6880(3) 0.4964(2)
N16 N 0.2786(3) 0.7036(3) 0.5322(2)
N17 N 0.2939(4) 0.6560(4) 0.4812(3)
H56 H 0.3165 0.6495 0.4942
C94 C 0.2876(3) 0.6315(3) 0.44519(19)
C95 C 0.2581(3) 0.6419(3) 0.4168(2)
H57 H 0.2384 0.6643 0.4205
C96 C 0.2580(3) 0.6189(3) 0.3829(2)
H58 H 0.2382 0.6258 0.3639
C97 C 0.2873(3) 0.5854(3) 0.37730(18)
C98 C 0.3168(2) 0.5751(2) 0.4057(3)
H59 H 0.3365 0.5527 0.4020
C99 C 0.3170(3) 0.5981(3) 0.4396(2)
H60 H 0.3367 0.5912 0.4586
N18 N 0.1752(4) 0.7571(4) 0.4734(3)
H61 H 0.1696 0.7442 0.4523
C100 C 0.0658(4) 0.9058(4) 0.4922(3)
C101 C 0.1269(3) 0.8562(3) 0.5151(2)
H62 H 0.1314 0.8756 0.5350
C102 C 0.1535(3) 0.8202(3) 0.5113(2)
H63 H 0.1759 0.8156 0.5285
C103 C 0.1467(3) 0.7912(3) 0.4817(3)
C104 C 0.1133(3) 0.7981(3) 0.4559(3)
H64 H 0.1088 0.7787 0.4361
C105 C 0.0867(3) 0.8341(3) 0.4598(2)
H65 H 0.0643 0.8387 0.4426
C106 C 0.0934(3) 0.8631(3) 0.4894(3)
C107 C 0.4064(4) 0.7260(5) 0.6883(3)
C108 C 0.2866(4) 0.5638(4) 0.3382(3)
Zn29 Zn 0.01400(3) 0.94900(3) 0.03259(2)
O40 O 0.5000 0.71449(14) 0.7500
O43 O 0.4264(2) 0.7428(2) 0.81231(15)
O47 O 0.46393(18) 0.81318(16) 0.75996(16)
O50 O 0.4937(3) 0.61528(17) 0.71570(15)
O52 O 0.0352(2) 0.9871(2) 0.58706(14)
O55 O 0.5304(2) 0.6871(2) 0.66312(14)
O1_3 O 1.0000 0.0000 0.5000
C1_3 C 1.0000 0.0000 0.3973(4)
C9_3 C 1.0000 0.0000 0.3520(3)
C13_3 C 1.0000 0.0000 0.2720(2)
O12 O 0.81318(16) 0.53607(18) 0.24004(16)
C38 C 0.9743(3) 0.5000 0.2500
C39 C 0.8310(5) 0.5000 0.2500
C40 C 0.9049(3) 0.5401(3) 0.2401(4)
H21 H 0.8896 0.5650 0.2339
C41 C 0.9521(3) 0.5401(3) 0.2400(3)
H22 H 0.9675 0.5649 0.2337
C42 C 0.8821(4) 0.5000 0.2500
O13 O 0.81318(16) 0.46393(18) 0.25996(16)
C43 C 0.9049(3) 0.4599(3) 0.2599(4)
H23 H 0.8896 0.4350 0.2661
C44 C 0.9521(3) 0.4599(3) 0.2600(3)
H24 H 0.9675 0.4351 0.2663
O19 O 0.9871(2) 0.0352(2) 0.08706(14)
C54_3 C 1.0000 0.0000 0.1027(4)
C55_3 C 1.0000 0.0000 0.1480(3)
C56 C 0.9895(5) 0.0395(3) 0.20892(19)
H32 H 0.9848 0.0648 0.2226
C57_3 C 1.0000 0.0000 0.2280(2)
C58 C 0.9865(5) 0.0391(3) 0.1676(2)
H33 H 0.9762 0.0629 0.1542
Zn10 Zn 0.55136(3) 0.24892(2) 0.76139(2)
Zn12 Zn 0.94900(3) 0.01400(3) 0.53259(2)
O34 O 0.7428(2) 0.4264(2) 0.31231(15)
O35 O 0.56768(18) 0.3056(3) 0.68166(17)
O36 O 0.6871(2) 0.4696(2) 0.33688(14)
O37 O 0.9264(2) 0.0727(2) 0.52310(16)
C109 C 0.6329(2) 0.2674(3) 0.66218(18)
C110 C 0.6650(3) 0.2367(3) 0.66830(18)
H66 H 0.6649 0.2202 0.6904
C111 C 0.6974(3) 0.2308(3) 0.6414(3)
H67 H 0.7189 0.2103 0.6455
C112 C 0.6976(3) 0.2555(3) 0.6083(2)
C113 C 0.6655(3) 0.2861(3) 0.60222(19)
H68 H 0.6656 0.3026 0.5801
C114 C 0.6331(2) 0.2921(2) 0.6291(2)
H69 H 0.6116 0.3126 0.6251
O38 O 0.59631(19) 0.25450(19) 0.72044(14)
O39 O 0.9692(2) 0.0973(2) 0.47167(16)
N19 N 0.7335(4) 0.2447(5) 0.5826(3)
H70 H 0.7502 0.2242 0.5903
C115 C 0.7446(3) 0.2624(3) 0.5481(2)
N20 N 0.7788(3) 0.2440(3) 0.5281(2)
C116 C 0.7898(3) 0.2596(3) 0.4924(2)
N21 N 0.7666(3) 0.2937(3) 0.47649(19)
C117 C 0.7324(3) 0.3120(3) 0.4964(2)
N22 N 0.7214(3) 0.2964(3) 0.5322(2)
N23 N 0.7061(4) 0.3440(4) 0.4812(3)
H71 H 0.6835 0.3505 0.4942
C118 C 0.7124(3) 0.3685(3) 0.44519(19)
C119 C 0.7419(3) 0.3581(3) 0.4168(2)
H72 H 0.7616 0.3357 0.4205
C120 C 0.7420(3) 0.3811(3) 0.3829(2)
H73 H 0.7618 0.3742 0.3639
C121 C 0.7127(3) 0.4146(3) 0.37730(18)
C122 C 0.6832(2) 0.4249(2) 0.4057(3)
H74 H 0.6635 0.4473 0.4020
C123 C 0.6830(3) 0.4019(3) 0.4396(2)
H75 H 0.6633 0.4088 0.4586
N24 N 0.8248(4) 0.2429(4) 0.4734(3)
H76 H 0.8304 0.2558 0.4523
C124 C 0.9342(4) 0.0942(4) 0.4922(3)
C125 C 0.8731(3) 0.1438(3) 0.5151(2)
H77 H 0.8686 0.1244 0.5350
C126 C 0.8465(3) 0.1798(3) 0.5113(2)
H78 H 0.8241 0.1844 0.5285
C127 C 0.8533(3) 0.2088(3) 0.4817(3)
C128 C 0.8867(3) 0.2019(3) 0.4559(3)
H79 H 0.8912 0.2213 0.4361
C129 C 0.9133(3) 0.1659(3) 0.4598(2)
H80 H 0.9357 0.1613 0.4426
C130 C 0.9066(3) 0.1369(3) 0.4894(3)
C131 C 0.5936(4) 0.2740(5) 0.6883(3)
C132 C 0.7134(4) 0.4362(4) 0.3382(3)
Zn13 Zn 0.75108(2) 0.55136(3) 0.23861(2)
Zn15 Zn 0.75108(2) 0.44864(3) 0.26139(2)
Zn28 Zn 0.98600(3) 0.05100(3) 0.03259(2)
O41 O 0.5000 0.28551(14) 0.7500
O42 O 0.5736(2) 0.2572(2) 0.81231(15)
O48 O 0.53607(18) 0.18682(16) 0.75996(16)
O51 O 0.5063(3) 0.38472(17) 0.71570(15)
O53 O 0.9648(2) 0.0129(2) 0.58706(14)
O1_4 O 1.0000 1.0000 0.5000
C1_4 C 1.0000 1.0000 0.3973(4)
C9_4 C 1.0000 1.0000 0.3520(3)
C13_4 C 1.0000 1.0000 0.2720(2)
O18 O 0.9871(2) 0.9648(2) 0.41294(14)
C52 C 0.9895(5) 0.9605(3) 0.29108(19)
H30 H 0.9848 0.9352 0.2774
C53 C 0.9865(5) 0.9609(3) 0.3324(2)
H31 H 0.9762 0.9371 0.3458
C54_4 C 1.0000 1.0000 0.1027(4)
C55_4 C 1.0000 1.0000 0.1480(3)
C57_4 C 1.0000 1.0000 0.2280(2)
Zn6 Zn 0.98600(3) 0.94900(3) 0.46741(2)
O21 O 0.71449(14) 0.5000 0.2500
O22 O 0.5736(2) 0.7428(2) 0.68769(15)
O23 O 0.6944(3) 0.56768(18) 0.31834(17)
O25 O 0.9273(2) 0.9264(2) 0.47690(16)
C61 C 0.7326(3) 0.6329(2) 0.33782(18)
C62 C 0.7633(3) 0.6650(3) 0.33170(18)
H36 H 0.7798 0.6649 0.3096
C63 C 0.7692(3) 0.6974(3) 0.3586(3)
H37 H 0.7897 0.7189 0.3545
C64 C 0.7445(3) 0.6976(3) 0.3917(2)
C65 C 0.7139(3) 0.6655(3) 0.39778(19)
H38 H 0.6974 0.6656 0.4199
C66 C 0.7079(2) 0.6331(2) 0.3709(2)
H39 H 0.6874 0.6116 0.3749
O26 O 0.74550(19) 0.59631(19) 0.27956(14)
O27 O 0.9027(2) 0.9692(2) 0.52833(16)
N7 N 0.7553(5) 0.7335(4) 0.4174(3)
H40 H 0.7758 0.7502 0.4097
C67 C 0.7376(3) 0.7446(3) 0.4519(2)
N8 N 0.7560(3) 0.7788(3) 0.4719(2)
C68 C 0.7404(3) 0.7898(3) 0.5076(2)
N9 N 0.7063(3) 0.7666(3) 0.52351(19)
C69 C 0.6880(3) 0.7324(3) 0.5036(2)
N10 N 0.7036(3) 0.7214(3) 0.4678(2)
N11 N 0.6560(4) 0.7061(4) 0.5188(3)
H41 H 0.6495 0.6835 0.5058
C70 C 0.6315(3) 0.7124(3) 0.55481(19)
C71 C 0.6419(3) 0.7419(3) 0.5832(2)
H42 H 0.6643 0.7616 0.5795
C72 C 0.6189(3) 0.7420(3) 0.6171(2)
H43 H 0.6258 0.7618 0.6361
C73 C 0.5854(3) 0.7127(3) 0.62270(18)
C74 C 0.5751(2) 0.6832(2) 0.5943(3)
H44 H 0.5527 0.6635 0.5980
C75 C 0.5981(3) 0.6830(3) 0.5604(2)
H45 H 0.5912 0.6633 0.5414
N12 N 0.7571(4) 0.8248(4) 0.5266(3)
H46 H 0.7442 0.8304 0.5477
C76 C 0.9058(4) 0.9342(4) 0.5078(3)
C77 C 0.8562(3) 0.8731(3) 0.4849(2)
H47 H 0.8756 0.8686 0.4650
C78 C 0.8202(3) 0.8465(3) 0.4887(2)
H48 H 0.8156 0.8241 0.4715
C79 C 0.7912(3) 0.8533(3) 0.5183(3)
C80 C 0.7981(3) 0.8867(3) 0.5441(3)
H49 H 0.7787 0.8912 0.5639
C81 C 0.8341(3) 0.9133(3) 0.5402(2)
H50 H 0.8387 0.9357 0.5574
C82 C 0.8631(3) 0.9066(3) 0.5106(3)
C83 C 0.7260(5) 0.5936(4) 0.3117(3)
C84 C 0.5638(4) 0.7134(4) 0.6618(3)
Zn18 Zn 0.55136(3) 0.75108(2) 0.73861(2)
O44 O 0.7428(2) 0.5736(2) 0.18769(15)
C1_5 C 0.0000 0.0000 0.6027(4)
C9_5 C 0.0000 0.0000 0.6480(3)
C13_5 C -0.0000 0.0000 0.7280(2)
C38_2 C 0.5000 0.0257(3) 0.7500
C39_2 C 0.5000 0.1690(5) 0.7500
C40_2 C 0.5401(3) 0.0951(3) 0.7599(4)
H21_2 H 0.5650 0.1104 0.7661
C41_2 C 0.5401(3) 0.0479(3) 0.7600(3)
H22_2 H 0.5649 0.0325 0.7663
C42_2 C 0.5000 0.1179(4) 0.7500
O13_2 O 0.46393(18) 0.18682(16) 0.74004(16)
C43_2 C 0.4599(3) 0.0951(3) 0.7401(4)
H23_2 H 0.4350 0.1104 0.7339
C44_2 C 0.4599(3) 0.0479(3) 0.7400(3)
H24_2 H 0.4351 0.0325 0.7337
O19_2 O 0.0352(2) 0.0129(2) 0.91294(14)
C54_5 C 0.0000 0.0000 0.8973(4)
C55_5 C 0.0000 0.0000 0.8520(3)
C56_2 C 0.0395(3) 0.0105(5) 0.79108(19)
H32_2 H 0.0648 0.0152 0.7774
C57_5 C 0.0000 0.0000 0.7720(2)
C58_2 C 0.0391(3) 0.0135(5) 0.8324(2)
H33_2 H 0.0629 0.0238 0.8458
Zn28_2 Zn 0.05100(3) 0.01400(3) 0.96741(2)
C1_6 C 0.0000 1.0000 0.6027(4)
C8_2 C 0.5000 0.9743(3) 0.7500
C9_6 C 0.0000 1.0000 0.6480(3)
C10_2 C 0.5000 0.8310(5) 0.7500
C11_2 C 0.4599(3) 0.9049(3) 0.7599(4)
H5_2 H 0.4350 0.8896 0.7661
C12_2 C 0.0395(3) 0.9895(5) 0.70892(19)
H6_2 H 0.0648 0.9848 0.7226
C13_6 C 0.0000 1.0000 0.7280(2)
C14_2 C 0.4599(3) 0.9521(3) 0.7600(3)
H8_2 H 0.4351 0.9675 0.7663
C15_2 C 0.0391(3) 0.9865(5) 0.6676(2)
H9_2 H 0.0629 0.9762 0.6542
C16_2 C 0.5000 0.5994(4) 0.7500
C26_2 C 0.5000 0.8821(4) 0.7500
C36_2 C 0.5000 0.5474(3) 0.7500
C37_2 C 0.5001(2) 0.52393(17) 0.71419(19)
H20_2 H 0.5004 0.5390 0.6913
O14_2 O 0.53607(18) 0.81318(16) 0.74004(16)
C45_2 C 0.5401(3) 0.9049(3) 0.7401(4)
H25_2 H 0.5650 0.8896 0.7339
C46_2 C 0.5401(3) 0.9521(3) 0.7400(3)
H26_2 H 0.5649 0.9675 0.7337
C47_2 C 0.5000 0.4006(4) 0.7500
C48_2 C 0.5000 0.4526(3) 0.7500
C49_2 C 0.4999(2) 0.47607(17) 0.71419(19)
H27_2 H 0.4996 0.4610 0.6913
O16_2 O 0.4937(3) 0.38472(17) 0.78430(15)
C50_2 C 0.5001(2) 0.47607(17) 0.78581(19)
H28_2 H 0.5004 0.4610 0.8087
O17_2 O 0.5063(3) 0.61528(17) 0.78430(15)
C51_2 C 0.4999(2) 0.52393(17) 0.78581(19)
H29_2 H 0.4996 0.5390 0.8087
C54_6 C 0.0000 1.0000 0.8973(4)
C55_6 C 0.0000 1.0000 0.8520(3)
C57_6 C 0.0000 1.0000 0.7720(2)
Zn26_2 Zn 0.48690(3) 0.32381(3) 0.79445(2)
Zn27_2 Zn 0.51310(3) 0.67619(3) 0.79445(2)
C1_7 C 1.0000 0.0000 0.6027(4)
C9_7 C 1.0000 0.0000 0.6480(3)
C13_7 C 1.0000 0.0000 0.7280(2)
C52_2 C 0.9605(3) 0.0105(5) 0.70892(19)
H30_2 H 0.9352 0.0152 0.7226
C53_2 C 0.9609(3) 0.0135(5) 0.6676(2)
H31_2 H 0.9371 0.0238 0.6542
C54_7 C 1.0000 0.0000 0.8973(4)
C55_7 C 1.0000 0.0000 0.8520(3)
C57_7 C 1.0000 0.0000 0.7720(2)
C1_8 C 1.0000 1.0000 0.6027(4)
C9_8 C 1.0000 1.0000 0.6480(3)
C13_8 C 1.0000 1.0000 0.7280(2)
C54_8 C 1.0000 1.0000 0.8973(4)
C55_8 C 1.0000 1.0000 0.8520(3)
C57_8 C 1.0000 1.0000 0.7720(2)
O20_2 O 0.9648(2) 0.9871(2) 0.91294(14)
C59_2 C 0.9605(3) 0.9895(5) 0.79108(19)
H34_2 H 0.9352 0.9848 0.7774
C60_2 C 0.9609(3) 0.9865(5) 0.8324(2)
H35_2 H 0.9371 0.9762 0.8458
Zn29_2 Zn 0.94900(3) 0.98600(3) 0.96741(2)
O1_5 O 0.0000 0.0000 0.0000
O36_2 O 0.3129(2) 0.4696(2) 0.16312(14)
O39_2 O 0.0308(2) 0.0973(2) 0.02833(16)
C116_2 C 0.2102(3) 0.2596(3) 0.0076(2)
N21_2 N 0.2334(3) 0.2937(3) 0.02351(19)
C117_2 C 0.2676(3) 0.3120(3) 0.0036(2)
N23_2 N 0.2939(4) 0.3440(4) 0.0188(3)
H71_2 H 0.3165 0.3505 0.0058
C118_2 C 0.2876(3) 0.3685(3) 0.05481(19)
C119_2 C 0.2581(3) 0.3581(3) 0.0832(2)
H72_2 H 0.2384 0.3357 0.0795
C120_2 C 0.2580(3) 0.3811(3) 0.1171(2)
H73_2 H 0.2382 0.3742 0.1361
C121_2 C 0.2873(3) 0.4146(3) 0.12270(18)
C122_2 C 0.3168(2) 0.4249(2) 0.0943(3)
H74_2 H 0.3365 0.4473 0.0980
C123_2 C 0.3170(3) 0.4019(3) 0.0604(2)
H75_2 H 0.3367 0.4088 0.0414
N24_2 N 0.1752(4) 0.2429(4) 0.0266(3)
H76_2 H 0.1696 0.2558 0.0477
C124_2 C 0.0658(4) 0.0942(4) 0.0078(3)
C127_2 C 0.1467(3) 0.2088(3) 0.0183(3)
C128_2 C 0.1133(3) 0.2019(3) 0.0441(3)
H79_2 H 0.1088 0.2213 0.0639
C129_2 C 0.0867(3) 0.1659(3) 0.0402(2)
H80_2 H 0.0643 0.1613 0.0574
C130_2 C 0.0934(3) 0.1369(3) 0.0106(3)
C132_2 C 0.2866(4) 0.4362(4) 0.1618(3)
O1_6 O 0.0000 0.0000 1.0000
O35_2 O 0.43232(18) 0.3056(3) 0.81834(17)
O37_2 O 0.0736(2) 0.0727(2) 0.97690(16)
C109_2 C 0.3671(2) 0.2674(3) 0.83782(18)
C110_2 C 0.3350(3) 0.2367(3) 0.83170(18)
H66_2 H 0.3351 0.2202 0.8096
C111_2 C 0.3026(3) 0.2308(3) 0.8586(3)
H67_2 H 0.2811 0.2103 0.8545
C112_2 C 0.3024(3) 0.2555(3) 0.8917(2)
C113_2 C 0.3345(3) 0.2861(3) 0.89778(19)
H68_2 H 0.3344 0.3026 0.9199
C114_2 C 0.3669(2) 0.2921(2) 0.8709(2)
H69_2 H 0.3884 0.3126 0.8749
O38_2 O 0.40369(19) 0.25450(19) 0.77956(14)
N19_2 N 0.2665(4) 0.2447(5) 0.9174(3)
H70_2 H 0.2498 0.2242 0.9097
C115_2 C 0.2554(3) 0.2624(3) 0.9519(2)
N20_2 N 0.2212(3) 0.2440(3) 0.9719(2)
N22_2 N 0.2786(3) 0.2964(3) 0.9678(2)
C125_2 C 0.1269(3) 0.1438(3) 0.9849(2)
H77_2 H 0.1314 0.1244 0.9650
C126_2 C 0.1535(3) 0.1798(3) 0.9887(2)
H78_2 H 0.1759 0.1844 0.9715
C131_2 C 0.4064(4) 0.2740(5) 0.8117(3)
O54 O 0.5304(2) 0.3129(2) 0.83688(14)
O1_7 O 0.0000 1.0000 0.0000
O23_2 O 0.3056(3) 0.56768(18) 0.18166(17)
O25_2 O 0.0727(2) 0.9264(2) 0.02310(16)
C61_2 C 0.2674(3) 0.6329(2) 0.16218(18)
C62_2 C 0.2367(3) 0.6650(3) 0.16830(18)
H36_2 H 0.2202 0.6649 0.1904
C63_2 C 0.2308(3) 0.6974(3) 0.1414(3)
H37_2 H 0.2103 0.7189 0.1455
C64_2 C 0.2555(3) 0.6976(3) 0.1083(2)
C65_2 C 0.2861(3) 0.6655(3) 0.10222(19)
H38_2 H 0.3026 0.6656 0.0801
C66_2 C 0.2921(2) 0.6331(2) 0.1291(2)
H39_2 H 0.3126 0.6116 0.1251
O26_2 O 0.25450(19) 0.59631(19) 0.22044(14)
N7_2 N 0.2447(5) 0.7335(4) 0.0826(3)
H40_2 H 0.2242 0.7502 0.0903
C67_2 C 0.2624(3) 0.7446(3) 0.0481(2)
N8_2 N 0.2440(3) 0.7788(3) 0.0281(2)
N10_2 N 0.2964(3) 0.7214(3) 0.0322(2)
C77_2 C 0.1438(3) 0.8731(3) 0.0151(2)
H47_2 H 0.1244 0.8686 0.0350
C78_2 C 0.1798(3) 0.8465(3) 0.0113(2)
H48_2 H 0.1844 0.8241 0.0285
C83_2 C 0.2740(5) 0.5936(4) 0.1883(3)
O1_8 O 0.0000 1.0000 1.0000
O24 O 0.4696(2) 0.6871(2) 0.83688(14)
O27_2 O 0.0973(2) 0.9692(2) 0.97167(16)
C68_2 C 0.2596(3) 0.7898(3) 0.9924(2)
N9_2 N 0.2937(3) 0.7666(3) 0.97649(19)
C69_2 C 0.3120(3) 0.7324(3) 0.9964(2)
N11_2 N 0.3440(4) 0.7061(4) 0.9812(3)
H41_2 H 0.3505 0.6835 0.9942
C70_2 C 0.3685(3) 0.7124(3) 0.94519(19)
C71_2 C 0.3581(3) 0.7419(3) 0.9168(2)
H42_2 H 0.3357 0.7616 0.9205
C72_2 C 0.3811(3) 0.7420(3) 0.8829(2)
H43_2 H 0.3742 0.7618 0.8639
C73_2 C 0.4146(3) 0.7127(3) 0.87730(18)
C74_2 C 0.4249(2) 0.6832(2) 0.9057(3)
H44_2 H 0.4473 0.6635 0.9020
C75_2 C 0.4019(3) 0.6830(3) 0.9396(2)
H45_2 H 0.4088 0.6633 0.9586
N12_2 N 0.2429(4) 0.8248(4) 0.9734(3)
H46_2 H 0.2558 0.8304 0.9523
C76_2 C 0.0942(4) 0.9342(4) 0.9922(3)
C79_2 C 0.2088(3) 0.8533(3) 0.9817(3)
C80_2 C 0.2019(3) 0.8867(3) 0.9559(3)
H49_2 H 0.2213 0.8912 0.9361
C81_2 C 0.1659(3) 0.9133(3) 0.9598(2)
H50_2 H 0.1613 0.9357 0.9426
C82_2 C 0.1369(3) 0.9066(3) 0.9894(3)
C84_2 C 0.4362(4) 0.7134(4) 0.8382(3)
O1_9 O 1.0000 0.0000 0.0000
O6_2 O 0.6944(3) 0.43232(18) 0.18166(17)
O9_2 O 0.9273(2) 0.0736(2) 0.02310(16)
C2_2 C 0.7326(3) 0.3671(2) 0.16218(18)
C3_2 C 0.7633(3) 0.3350(3) 0.16830(18)
H1_2 H 0.7798 0.3351 0.1904
C4_2 C 0.7692(3) 0.3026(3) 0.1414(3)
H2_2 H 0.7897 0.2811 0.1455
C5_2 C 0.7445(3) 0.3024(3) 0.1083(2)
C6_2 C 0.7139(3) 0.3345(3) 0.10222(19)
H3_2 H 0.6974 0.3344 0.0801
C7_2 C 0.7079(2) 0.3669(2) 0.1291(2)
H4_2 H 0.6874 0.3884 0.1251
O10_2 O 0.74550(19) 0.40369(19) 0.22044(14)
N1_2 N 0.7553(5) 0.2665(4) 0.0826(3)
H7_2 H 0.7758 0.2498 0.0903
C17_2 C 0.7376(3) 0.2554(3) 0.0481(2)
N2_2 N 0.7560(3) 0.2212(3) 0.0281(2)
N4_2 N 0.7036(3) 0.2786(3) 0.0322(2)
C28_2 C 0.8562(3) 0.1269(3) 0.0151(2)
H16_2 H 0.8756 0.1314 0.0350
C29_2 C 0.8202(3) 0.1535(3) 0.0113(2)
H17_2 H 0.8156 0.1759 0.0285
C34_2 C 0.7260(5) 0.4064(4) 0.1883(3)
O56_2 O 0.6871(2) 0.5304(2) 0.16312(14)
O1_10 O 1.0000 0.0000 1.0000
O11_2 O 0.9027(2) 0.0308(2) 0.97167(16)
C18_2 C 0.7404(3) 0.2102(3) 0.9924(2)
N3_2 N 0.7063(3) 0.2334(3) 0.97649(19)
C19_2 C 0.6880(3) 0.2676(3) 0.9964(2)
N5_2 N 0.6560(4) 0.2939(4) 0.9812(3)
H10_2 H 0.6495 0.3165 0.9942
C20_2 C 0.6315(3) 0.2876(3) 0.94519(19)
C21_2 C 0.6419(3) 0.2581(3) 0.9168(2)
H11_2 H 0.6643 0.2384 0.9205
C22_2 C 0.6189(3) 0.2580(3) 0.8829(2)
H12_2 H 0.6258 0.2382 0.8639
C23_2 C 0.5854(3) 0.2873(3) 0.87730(18)
C24_2 C 0.5751(2) 0.3168(2) 0.9057(3)
H13_2 H 0.5527 0.3365 0.9020
C25_2 C 0.5981(3) 0.3170(3) 0.9396(2)
H14_2 H 0.5912 0.3367 0.9586
N6_2 N 0.7571(4) 0.1752(4) 0.9734(3)
H15_2 H 0.7442 0.1696 0.9523
C27_2 C 0.9058(4) 0.0658(4) 0.9922(3)
C30_2 C 0.7912(3) 0.1467(3) 0.9817(3)
C31_2 C 0.7981(3) 0.1133(3) 0.9559(3)
H18_2 H 0.7787 0.1088 0.9361
C32_2 C 0.8341(3) 0.0867(3) 0.9598(2)
H19_2 H 0.8387 0.0643 0.9426
C33_2 C 0.8631(3) 0.0934(3) 0.9894(3)
C35_2 C 0.5638(4) 0.2866(4) 0.8382(3)
O1_11 O 1.0000 1.0000 0.0000
O33_2 O 0.9692(2) 0.9027(2) 0.02833(16)
C92_2 C 0.7898(3) 0.7404(3) 0.0076(2)
N15_2 N 0.7666(3) 0.7063(3) 0.02351(19)
C93_2 C 0.7324(3) 0.6880(3) 0.0036(2)
N17_2 N 0.7061(4) 0.6560(4) 0.0188(3)
H56_2 H 0.6835 0.6495 0.0058
C94_2 C 0.7124(3) 0.6315(3) 0.05481(19)
C95_2 C 0.7419(3) 0.6419(3) 0.0832(2)
H57_2 H 0.7616 0.6643 0.0795
C96_2 C 0.7420(3) 0.6189(3) 0.1171(2)
H58_2 H 0.7618 0.6258 0.1361
C97_2 C 0.7127(3) 0.5854(3) 0.12270(18)
C98_2 C 0.6832(2) 0.5751(2) 0.0943(3)
H59_2 H 0.6635 0.5527 0.0980
C99_2 C 0.6830(3) 0.5981(3) 0.0604(2)
H60_2 H 0.6633 0.5912 0.0414
N18_2 N 0.8248(4) 0.7571(4) 0.0266(3)
H61_2 H 0.8304 0.7442 0.0477
C100_2 C 0.9342(4) 0.9058(4) 0.0078(3)
C103_2 C 0.8533(3) 0.7912(3) 0.0183(3)
C104_2 C 0.8867(3) 0.7981(3) 0.0441(3)
H64_2 H 0.8912 0.7787 0.0639
C105_2 C 0.9133(3) 0.8341(3) 0.0402(2)
H65_2 H 0.9357 0.8387 0.0574
C106_2 C 0.9066(3) 0.8631(3) 0.0106(3)
C108_2 C 0.7134(4) 0.5638(4) 0.1618(3)
O1_12 O 1.0000 1.0000 1.0000
O29_2 O 0.56768(18) 0.6944(3) 0.81834(17)
O31_2 O 0.9264(2) 0.9273(2) 0.97690(16)
C85_2 C 0.6329(2) 0.7326(3) 0.83782(18)
C86_2 C 0.6650(3) 0.7633(3) 0.83170(18)
H51_2 H 0.6649 0.7798 0.8096
C87_2 C 0.6974(3) 0.7692(3) 0.8586(3)
H52_2 H 0.7189 0.7897 0.8545
C88_2 C 0.6976(3) 0.7445(3) 0.8917(2)
C89_2 C 0.6655(3) 0.7139(3) 0.89778(19)
H53_2 H 0.6656 0.6974 0.9199
C90_2 C 0.6331(2) 0.7079(2) 0.8709(2)
H54_2 H 0.6116 0.6874 0.8749
O32_2 O 0.59631(19) 0.74550(19) 0.77956(14)
N13_2 N 0.7335(4) 0.7553(5) 0.9174(3)
H55_2 H 0.7502 0.7758 0.9097
C91_2 C 0.7446(3) 0.7376(3) 0.9519(2)
N14_2 N 0.7788(3) 0.7560(3) 0.9719(2)
N16_2 N 0.7214(3) 0.7036(3) 0.9678(2)
C101_2 C 0.8731(3) 0.8562(3) 0.9849(2)
H62_2 H 0.8686 0.8756 0.9650
C102_2 C 0.8465(3) 0.8202(3) 0.9887(2)
H63_2 H 0.8241 0.8156 0.9715
C107_2 C 0.5936(4) 0.7260(5) 0.8117(3)
loop_
_geom_bond_atom_site_label_1
_geom_bond_atom_site_label_2
_geom_bond_site_symmetry_1
_geom_bond_site_symmetry_2
Zn1 O2 1_555 1_555
Zn2 O2 1_555 1_555
Zn3 O1 1_555 1_555
O2 Zn17 1_555 1_555
O3 C35 1_555 1_555
O4 Zn1 1_555 1_555
O5 Zn2 1_555 1_555
O6 Zn2 1_555 1_555
O7 Zn3 1_555 1_555
O8 C35 1_555 1_555
O9 Zn3 1_555 1_555
C1 O7 1_555 1_555
C2 C3 1_555 1_555
C3 H1 1_555 1_555
C4 C3 1_555 1_555
H2 C4 1_555 1_555
C5 C4 1_555 1_555
C6 C5 1_555 1_555
H3 C6 1_555 1_555
C7 C2 1_555 1_555
H4 C7 1_555 1_555
O10 Zn1 1_555 1_555
O11 C27 1_555 1_555
C8 C14 1_555 1_555
C9 C1 1_555 1_555
C10 O4 1_555 1_555
C11 H5 1_555 1_555
C12 H6 1_555 1_555
N1 C5 1_555 1_555
H7 N1 1_555 1_555
C13 C12 1_555 1_555
C14 C11 1_555 1_555
H8 C14 1_555 1_555
C15 C9 1_555 1_555
H9 C15 1_555 1_555
C16 O5 1_555 1_555
C17 N1 1_555 1_555
N2 C17 1_555 1_555
C18 N2 1_555 1_555
N3 C18 1_555 1_555
C19 N3 1_555 1_555
N4 C17 1_555 1_555
N5 C19 1_555 1_555
H10 N5 1_555 1_555
C20 N5 1_555 1_555
C21 C20 1_555 1_555
H11 C21 1_555 1_555
C22 C21 1_555 1_555
H12 C22 1_555 1_555
C23 C22 1_555 1_555
C24 C23 1_555 1_555
H13 C24 1_555 1_555
C25 C20 1_555 1_555
H14 C25 1_555 1_555
N6 C18 1_555 1_555
H15 N6 1_555 1_555
C26 C10 1_555 1_555
C27 O9 1_555 1_555
C28 H16 1_555 1_555
C29 C28 1_555 1_555
H17 C29 1_555 1_555
C30 N6 1_555 1_555
C31 C30 1_555 1_555
H18 C31 1_555 1_555
C32 C31 1_555 1_555
H19 C32 1_555 1_555
C33 C27 1_555 1_555
C34 O6 1_555 1_555
C35 C23 1_555 1_555
C36 C16 1_555 1_555
C37 C36 1_555 1_555
H20 C37 1_555 1_555
O14 C10 1_555 1_555
C45 C26 1_555 1_555
H25 C45 1_555 1_555
C46 C8 1_555 1_555
H26 C46 1_555 1_555
O15 C47 1_555 1_555
C47 C48 1_555 1_555
C48 C49 1_555 1_555
C49 C37 1_555 1_555
H27 C49 1_555 1_555
O16 C47 1_555 1_555
C50 C48 1_555 1_555
H28 C50 1_555 1_555
O17 C16 1_555 1_555
C51 C36 1_555 1_555
H29 C51 1_555 1_555
C54 C55 1_555 1_555
C57 C13 1_555 1_555
Zn17 O14 1_555 1_555
Zn19 O3 1_555 1_555
Zn22 O15 1_555 1_555
Zn24 O8 1_555 1_555
Zn26 O16 1_555 1_555
Zn27 O2 1_555 1_555
O45 Zn1 1_555 1_555
O56 Zn2 1_555 1_555
C2 C34 1_555 1_555
C6 C7 1_555 1_555
O10 C34 1_555 1_555
C11 C26 1_555 1_555
C12 C15 1_555 1_555
C19 N4 1_555 1_555
C24 C25 1_555 1_555
C28 C33 1_555 1_555
C29 C30 1_555 1_555
C32 C33 1_555 1_555
C45 C46 1_555 1_555
C50 C51 1_555 1_555
O17 Zn27 1_555 1_555
C9_2 C1_2 1_555 1_555
C54_2 C55_2 1_555 1_555
C57_2 C13_2 1_555 1_555
O20 C54_2 1_555 1_555
C59 C57_2 1_555 1_555
H34 C59 1_555 1_555
C60 C55_2 1_555 1_555
H35 C60 1_555 1_555
Zn7 O32 1_555 1_555
Zn8 O29 1_555 1_555
Zn9 O1_2 1_555 1_555
O28 C108 1_555 1_555
O29 C107 1_555 1_555
O56 C108 1_555 1_555
O31 Zn9 1_555 1_555
C85 C86 1_555 1_555
C86 H51 1_555 1_555
C87 C86 1_555 1_555
H52 C87 1_555 1_555
C88 C87 1_555 1_555
C89 C88 1_555 1_555
H53 C89 1_555 1_555
C90 C85 1_555 1_555
H54 C90 1_555 1_555
O32 C107 1_555 1_555
N13 C88 1_555 1_555
H55 N13 1_555 1_555
C91 N13 1_555 1_555
N14 C91 1_555 1_555
C92 N14 1_555 1_555
N15 C92 1_555 1_555
C93 N15 1_555 1_555
N16 C91 1_555 1_555
N17 C93 1_555 1_555
H56 N17 1_555 1_555
C94 N17 1_555 1_555
C95 C94 1_555 1_555
H57 C95 1_555 1_555
C96 C95 1_555 1_555
H58 C96 1_555 1_555
C97 C96 1_555 1_555
C98 C97 1_555 1_555
H59 C98 1_555 1_555
C99 C94 1_555 1_555
H60 C99 1_555 1_555
N18 C92 1_555 1_555
H61 N18 1_555 1_555
C100 O31 1_555 1_555
C101 H62 1_555 1_555
C102 C101 1_555 1_555
H63 C102 1_555 1_555
C103 N18 1_555 1_555
C104 C103 1_555 1_555
H64 C104 1_555 1_555
C105 C104 1_555 1_555
H65 C105 1_555 1_555
C106 C100 1_555 1_555
C107 C85 1_555 1_555
C108 C97 1_555 1_555
Zn17 O28 1_555 1_555
Zn29 O20 1_555 1_555
O40 Zn7 1_555 1_555
O43 Zn7 1_555 1_555
O47 Zn7 1_555 1_555
O50 Zn8 1_555 1_555
O52 Zn9 1_555 1_555
O55 Zn8 1_555 1_555
C59 C60 1_555 1_555
Zn8 O40 1_555 1_555
C89 C90 1_555 1_555
O33 C100 1_555 1_555
C93 N16 1_555 1_555
C98 C99 1_555 1_555
C101 C106 1_555 1_555
C102 C103 1_555 1_555
C105 C106 1_555 1_555
C9_3 C1_3 1_555 1_555
O12 C39 1_555 1_555
C39 C42 1_555 1_555
C40 H21 1_555 1_555
C41 C38 1_555 1_555
H22 C41 1_555 1_555
C42 C40 1_555 1_555
O13 C39 1_555 1_555
C43 C42 1_555 1_555
H23 C43 1_555 1_555
C44 C38 1_555 1_555
H24 C44 1_555 1_555
O19 C54_3 1_555 1_555
C54_3 C55_3 1_555 1_555
C55_3 C58 1_555 1_555
C56 H32 1_555 1_555
C57_3 C13_3 1_555 1_555
C58 C56 1_555 1_555
H33 C58 1_555 1_555
Zn10 O38 1_555 1_555
Zn24 O35 1_555 1_555
Zn12 O1_3 1_555 1_555
O34 C132 1_555 1_555
O35 C131 1_555 1_555
O36 C132 1_555 1_555
O37 Zn12 1_555 1_555
C109 C110 1_555 1_555
C110 H66 1_555 1_555
C111 C110 1_555 1_555
H67 C111 1_555 1_555
C112 C111 1_555 1_555
C113 C112 1_555 1_555
H68 C113 1_555 1_555
C114 C109 1_555 1_555
H69 C114 1_555 1_555
O38 C131 1_555 1_555
N19 C112 1_555 1_555
H70 N19 1_555 1_555
C115 N19 1_555 1_555
N20 C115 1_555 1_555
C116 N20 1_555 1_555
N21 C116 1_555 1_555
C117 N21 1_555 1_555
N22 C115 1_555 1_555
N23 C117 1_555 1_555
H71 N23 1_555 1_555
C118 N23 1_555 1_555
C119 C118 1_555 1_555
H72 C119 1_555 1_555
C120 C119 1_555 1_555
H73 C120 1_555 1_555
C121 C120 1_555 1_555
C122 C121 1_555 1_555
H74 C122 1_555 1_555
C123 C118 1_555 1_555
H75 C123 1_555 1_555
N24 C116 1_555 1_555
H76 N24 1_555 1_555
C124 O37 1_555 1_555
C125 H77 1_555 1_555
C126 C125 1_555 1_555
H78 C126 1_555 1_555
C127 N24 1_555 1_555
C128 C127 1_555 1_555
H79 C128 1_555 1_555
C129 C128 1_555 1_555
H80 C129 1_555 1_555
C130 C124 1_555 1_555
C131 C109 1_555 1_555
C132 C121 1_555 1_555
Zn13 O12 1_555 1_555
Zn15 O13 1_555 1_555
Zn22 O36 1_555 1_555
Zn28 O19 1_555 1_555
O41 Zn10 1_555 1_555
O42 Zn10 1_555 1_555
O48 Zn10 1_555 1_555
O51 Zn24 1_555 1_555
O53 Zn12 1_555 1_555
C40 C41 1_555 1_555
C43 C44 1_555 1_555
C56 C57_3 1_555 1_555
Zn24 O41 1_555 1_555
O34 Zn15 1_555 1_555
C113 C114 1_555 1_555
O39 C124 1_555 1_555
C117 N22 1_555 1_555
C122 C123 1_555 1_555
C125 C130 1_555 1_555
C126 C127 1_555 1_555
C129 C130 1_555 1_555
O1_4 Zn6 1_555 1_555
C9_4 C1_4 1_555 1_555
O18 C1_4 1_555 1_555
C52 C13_4 1_555 1_555
H30 C52 1_555 1_555
C53 C9_4 1_555 1_555
H31 C53 1_555 1_555
C54_4 C55_4 1_555 1_555
C57_4 C13_4 1_555 1_555
Zn13 O21 1_555 1_555
Zn22 O21 1_555 1_555
Zn6 O18 1_555 1_555
O21 Zn15 1_555 1_555
O22 C84 1_555 1_555
O23 Zn22 1_555 1_555
O55 C84 1_555 1_555
O25 Zn6 1_555 1_555
C61 C62 1_555 1_555
C62 H36 1_555 1_555
C63 C62 1_555 1_555
H37 C63 1_555 1_555
C64 C63 1_555 1_555
C65 C64 1_555 1_555
H38 C65 1_555 1_555
C66 C61 1_555 1_555
H39 C66 1_555 1_555
O26 Zn13 1_555 1_555
O27 C76 1_555 1_555
N7 C64 1_555 1_555
H40 N7 1_555 1_555
C67 N7 1_555 1_555
N8 C67 1_555 1_555
C68 N8 1_555 1_555
N9 C68 1_555 1_555
C69 N9 1_555 1_555
N10 C67 1_555 1_555
N11 C69 1_555 1_555
H41 N11 1_555 1_555
C70 N11 1_555 1_555
C71 C70 1_555 1_555
H42 C71 1_555 1_555
C72 C71 1_555 1_555
H43 C72 1_555 1_555
C73 C72 1_555 1_555
C74 C73 1_555 1_555
H44 C74 1_555 1_555
C75 C70 1_555 1_555
H45 C75 1_555 1_555
N12 C68 1_555 1_555
H46 N12 1_555 1_555
C76 O25 1_555 1_555
C77 H47 1_555 1_555
C78 C77 1_555 1_555
H48 C78 1_555 1_555
C79 N12 1_555 1_555
C80 C79 1_555 1_555
H49 C80 1_555 1_555
C81 C80 1_555 1_555
H50 C81 1_555 1_555
C82 C76 1_555 1_555
C83 O23 1_555 1_555
C84 C73 1_555 1_555
Zn18 O22 1_555 1_555
Zn26 O21 1_555 1_555
O44 Zn13 1_555 1_555
C52 C53 1_555 1_555
C61 C83 1_555 1_555
C65 C66 1_555 1_555
O26 C83 1_555 1_555
C69 N10 1_555 1_555
C74 C75 1_555 1_555
C77 C82 1_555 1_555
C78 C79 1_555 1_555
C81 C82 1_555 1_555
C9_5 C1_5 1_555 1_555
O48 C39_2 1_555 1_555
C39_2 C42_2 1_555 1_555
C40_2 H21_2 1_555 1_555
C41_2 C38_2 1_555 1_555
H22_2 C41_2 1_555 1_555
C42_2 C40_2 1_555 1_555
O13_2 C39_2 1_555 1_555
C43_2 C42_2 1_555 1_555
H23_2 C43_2 1_555 1_555
C44_2 C38_2 1_555 1_555
H24_2 C44_2 1_555 1_555
O19_2 C54_5 1_555 1_555
C54_5 C55_5 1_555 1_555
C55_5 C58_2 1_555 1_555
C56_2 H32_2 1_555 1_555
C57_5 C13_5 1_555 1_555
C58_2 C56_2 1_555 1_555
H33_2 C58_2 1_555 1_555
Zn19 O13_2 1_555 1_555
Zn28_2 O19_2 1_555 1_555
C40_2 C41_2 1_555 1_555
C43_2 C44_2 1_555 1_555
C56_2 C57_5 1_555 1_555
O40 Zn18 1_555 1_555
C1_6 O52 1_555 1_555
C8_2 C14_2 1_555 1_555
C9_6 C1_6 1_555 1_555
C10_2 O47 1_555 1_555
C11_2 H5_2 1_555 1_555
C12_2 H6_2 1_555 1_555
C13_6 C12_2 1_555 1_555
C14_2 C11_2 1_555 1_555
H8_2 C14_2 1_555 1_555
C15_2 C9_6 1_555 1_555
H9_2 C15_2 1_555 1_555
C16_2 O50 1_555 1_555
C26_2 C10_2 1_555 1_555
C36_2 C16_2 1_555 1_555
C37_2 C36_2 1_555 1_555
H20_2 C37_2 1_555 1_555
O14_2 C10_2 1_555 1_555
C45_2 C26_2 1_555 1_555
H25_2 C45_2 1_555 1_555
C46_2 C8_2 1_555 1_555
H26_2 C46_2 1_555 1_555
O51 C47_2 1_555 1_555
C47_2 C48_2 1_555 1_555
C48_2 C49_2 1_555 1_555
C49_2 C37_2 1_555 1_555
H27_2 C49_2 1_555 1_555
O16_2 C47_2 1_555 1_555
C50_2 C48_2 1_555 1_555
H28_2 C50_2 1_555 1_555
O17_2 C16_2 1_555 1_555
C51_2 C36_2 1_555 1_555
H29_2 C51_2 1_555 1_555
C54_6 C55_6 1_555 1_555
C57_6 C13_6 1_555 1_555
Zn18 O14_2 1_555 1_555
Zn26_2 O16_2 1_555 1_555
Zn27_2 O40 1_555 1_555
C11_2 C26_2 1_555 1_555
C12_2 C15_2 1_555 1_555
C45_2 C46_2 1_555 1_555
C50_2 C51_2 1_555 1_555
O17_2 Zn27_2 1_555 1_555
C9_7 C1_7 1_555 1_555
O53 C1_7 1_555 1_555
C52_2 C13_7 1_555 1_555
H30_2 C52_2 1_555 1_555
C53_2 C9_7 1_555 1_555
H31_2 C53_2 1_555 1_555
C54_7 C55_7 1_555 1_555
C57_7 C13_7 1_555 1_555
O41 Zn19 1_555 1_555
Zn26_2 O41 1_555 1_555
C52_2 C53_2 1_555 1_555
C9_8 C1_8 1_555 1_555
C54_8 C55_8 1_555 1_555
C57_8 C13_8 1_555 1_555
O20_2 C54_8 1_555 1_555
C59_2 C57_8 1_555 1_555
H34_2 C59_2 1_555 1_555
C60_2 C55_8 1_555 1_555
H35_2 C60_2 1_555 1_555
Zn29_2 O20_2 1_555 1_555
C59_2 C60_2 1_555 1_555
O45 C132_2 1_555 1_555
O36_2 C132_2 1_555 1_555
N21_2 C116_2 1_555 1_555
C117_2 N21_2 1_555 1_555
N23_2 C117_2 1_555 1_555
H71_2 N23_2 1_555 1_555
C118_2 N23_2 1_555 1_555
C119_2 C118_2 1_555 1_555
H72_2 C119_2 1_555 1_555
C120_2 C119_2 1_555 1_555
H73_2 C120_2 1_555 1_555
C121_2 C120_2 1_555 1_555
C122_2 C121_2 1_555 1_555
H74_2 C122_2 1_555 1_555
C123_2 C118_2 1_555 1_555
H75_2 C123_2 1_555 1_555
N24_2 C116_2 1_555 1_555
H76_2 N24_2 1_555 1_555
C127_2 N24_2 1_555 1_555
C128_2 C127_2 1_555 1_555
H79_2 C128_2 1_555 1_555
C129_2 C128_2 1_555 1_555
H80_2 C129_2 1_555 1_555
C130_2 C124_2 1_555 1_555
C132_2 C121_2 1_555 1_555
Zn27 O36_2 1_555 1_555
O39_2 C124_2 1_555 1_555
C122_2 C123_2 1_555 1_555
C129_2 C130_2 1_555 1_555
Zn19 O38_2 1_555 1_555
Zn26_2 O35_2 1_555 1_555
Zn28_2 O1_6 1_555 1_555
O35_2 C131_2 1_555 1_555
O37_2 Zn28_2 1_555 1_555
C109_2 C110_2 1_555 1_555
C110_2 H66_2 1_555 1_555
C111_2 C110_2 1_555 1_555
H67_2 C111_2 1_555 1_555
C112_2 C111_2 1_555 1_555
C113_2 C112_2 1_555 1_555
H68_2 C113_2 1_555 1_555
C114_2 C109_2 1_555 1_555
H69_2 C114_2 1_555 1_555
O38_2 C131_2 1_555 1_555
N19_2 C112_2 1_555 1_555
H70_2 N19_2 1_555 1_555
C115_2 N19_2 1_555 1_555
N20_2 C115_2 1_555 1_555
N22_2 C115_2 1_555 1_555
C125_2 H77_2 1_555 1_555
C126_2 C125_2 1_555 1_555
H78_2 C126_2 1_555 1_555
C131_2 C109_2 1_555 1_555
O54 Zn26_2 1_555 1_555
C113_2 C114_2 1_555 1_555
O1_7 Zn29 1_555 1_555
O23_2 Zn27 1_555 1_555
O25_2 Zn29 1_555 1_555
C61_2 C62_2 1_555 1_555
C62_2 H36_2 1_555 1_555
C63_2 C62_2 1_555 1_555
H37_2 C63_2 1_555 1_555
C64_2 C63_2 1_555 1_555
C65_2 C64_2 1_555 1_555
H38_2 C65_2 1_555 1_555
C66_2 C61_2 1_555 1_555
H39_2 C66_2 1_555 1_555
O26_2 Zn17 1_555 1_555
N7_2 C64_2 1_555 1_555
H40_2 N7_2 1_555 1_555
C67_2 N7_2 1_555 1_555
N8_2 C67_2 1_555 1_555
N10_2 C67_2 1_555 1_555
C77_2 H47_2 1_555 1_555
C78_2 C77_2 1_555 1_555
H48_2 C78_2 1_555 1_555
C83_2 O23_2 1_555 1_555
C61_2 C83_2 1_555 1_555
C65_2 C66_2 1_555 1_555
O26_2 C83_2 1_555 1_555
O43 C84_2 1_555 1_555
O24 C84_2 1_555 1_555
O27_2 C76_2 1_555 1_555
N9_2 C68_2 1_555 1_555
C69_2 N9_2 1_555 1_555
N11_2 C69_2 1_555 1_555
H41_2 N11_2 1_555 1_555
C70_2 N11_2 1_555 1_555
C71_2 C70_2 1_555 1_555
H42_2 C71_2 1_555 1_555
C72_2 C71_2 1_555 1_555
H43_2 C72_2 1_555 1_555
C73_2 C72_2 1_555 1_555
C74_2 C73_2 1_555 1_555
H44_2 C74_2 1_555 1_555
C75_2 C70_2 1_555 1_555
H45_2 C75_2 1_555 1_555
N12_2 C68_2 1_555 1_555
H46_2 N12_2 1_555 1_555
C79_2 N12_2 1_555 1_555
C80_2 C79_2 1_555 1_555
H49_2 C80_2 1_555 1_555
C81_2 C80_2 1_555 1_555
H50_2 C81_2 1_555 1_555
C82_2 C76_2 1_555 1_555
C84_2 C73_2 1_555 1_555
Zn27_2 O24 1_555 1_555
C74_2 C75_2 1_555 1_555
C81_2 C82_2 1_555 1_555
Zn28 O1_9 1_555 1_555
O6_2 Zn26 1_555 1_555
O9_2 Zn28 1_555 1_555
C2_2 C3_2 1_555 1_555
C3_2 H1_2 1_555 1_555
C4_2 C3_2 1_555 1_555
H2_2 C4_2 1_555 1_555
C5_2 C4_2 1_555 1_555
C6_2 C5_2 1_555 1_555
H3_2 C6_2 1_555 1_555
C7_2 C2_2 1_555 1_555
H4_2 C7_2 1_555 1_555
O10_2 Zn15 1_555 1_555
N1_2 C5_2 1_555 1_555
H7_2 N1_2 1_555 1_555
C17_2 N1_2 1_555 1_555
N2_2 C17_2 1_555 1_555
N4_2 C17_2 1_555 1_555
C28_2 H16_2 1_555 1_555
C29_2 C28_2 1_555 1_555
H17_2 C29_2 1_555 1_555
C34_2 O6_2 1_555 1_555
O56_2 Zn26 1_555 1_555
C2_2 C34_2 1_555 1_555
C6_2 C7_2 1_555 1_555
O10_2 C34_2 1_555 1_555
O42 C35_2 1_555 1_555
O54 C35_2 1_555 1_555
O11_2 C27_2 1_555 1_555
N3_2 C18_2 1_555 1_555
C19_2 N3_2 1_555 1_555
N5_2 C19_2 1_555 1_555
H10_2 N5_2 1_555 1_555
C20_2 N5_2 1_555 1_555
C21_2 C20_2 1_555 1_555
H11_2 C21_2 1_555 1_555
C22_2 C21_2 1_555 1_555
H12_2 C22_2 1_555 1_555
C23_2 C22_2 1_555 1_555
C24_2 C23_2 1_555 1_555
H13_2 C24_2 1_555 1_555
C25_2 C20_2 1_555 1_555
H14_2 C25_2 1_555 1_555
N6_2 C18_2 1_555 1_555
H15_2 N6_2 1_555 1_555
C30_2 N6_2 1_555 1_555
C31_2 C30_2 1_555 1_555
H18_2 C31_2 1_555 1_555
C32_2 C31_2 1_555 1_555
H19_2 C32_2 1_555 1_555
C33_2 C27_2 1_555 1_555
C35_2 C23_2 1_555 1_555
C24_2 C25_2 1_555 1_555
C32_2 C33_2 1_555 1_555
O44 C108_2 1_555 1_555
O56_2 C108_2 1_555 1_555
N15_2 C92_2 1_555 1_555
C93_2 N15_2 1_555 1_555
N17_2 C93_2 1_555 1_555
H56_2 N17_2 1_555 1_555
C94_2 N17_2 1_555 1_555
C95_2 C94_2 1_555 1_555
H57_2 C95_2 1_555 1_555
C96_2 C95_2 1_555 1_555
H58_2 C96_2 1_555 1_555
C97_2 C96_2 1_555 1_555
C98_2 C97_2 1_555 1_555
H59_2 C98_2 1_555 1_555
C99_2 C94_2 1_555 1_555
H60_2 C99_2 1_555 1_555
N18_2 C92_2 1_555 1_555
H61_2 N18_2 1_555 1_555
C103_2 N18_2 1_555 1_555
C104_2 C103_2 1_555 1_555
H64_2 C104_2 1_555 1_555
C105_2 C104_2 1_555 1_555
H65_2 C105_2 1_555 1_555
C106_2 C100_2 1_555 1_555
C108_2 C97_2 1_555 1_555
O33_2 C100_2 1_555 1_555
C98_2 C99_2 1_555 1_555
C105_2 C106_2 1_555 1_555
Zn18 O32_2 1_555 1_555
Zn27_2 O29_2 1_555 1_555
Zn29_2 O1_12 1_555 1_555
O29_2 C107_2 1_555 1_555
O31_2 Zn29_2 1_555 1_555
C85_2 C86_2 1_555 1_555
C86_2 H51_2 1_555 1_555
C87_2 C86_2 1_555 1_555
H52_2 C87_2 1_555 1_555
C88_2 C87_2 1_555 1_555
C89_2 C88_2 1_555 1_555
H53_2 C89_2 1_555 1_555
C90_2 C85_2 1_555 1_555
H54_2 C90_2 1_555 1_555
O32_2 C107_2 1_555 1_555
N13_2 C88_2 1_555 1_555
H55_2 N13_2 1_555 1_555
C91_2 N13_2 1_555 1_555
N14_2 C91_2 1_555 1_555
N16_2 C91_2 1_555 1_555
C101_2 H62_2 1_555 1_555
C102_2 C101_2 1_555 1_555
H63_2 C102_2 1_555 1_555
C107_2 C85_2 1_555 1_555
C89_2 C90_2 1_555 1_555

#END
