
###############################################################################
#
# This file contains modified crystal structure data generated from the
# MOF subset of the Cambridge Structural Database (CSD) v543 
# hosted by the Cambridge Crystallographic Data Centre (CCDC).
#
# This work is licensed under the Creative Commons
# Attribution-NonCommercial-ShareAlike 4.0 International License.
# To view a copy of this license, visit
# http://creativecommons.org/licenses/by-nc-sa/4.0/
# or send a letter to
# Creative Commons, PO Box 1866, Mountain View, CA 94042, USA.
#
# CIF created using the CSD Python API on 29 September 2022
# The structure has been converted into the P1 space group
# The structure has a 3D framework
# The original CSD entry JEHBEG is in the hexagonal crystal system
# The original CSD entry JEHBEG is in a Sohncke space group
# The framework has been calculated to contain at least 10.0% void space
# The void calculation uses a probe of radius 1.32A, grid spacing 0.4
#
###############################################################################

data_JEHBEG
_chemical_formula_moiety         '(C240 H144 N48 O78 Zn24)n'
_symmetry_cell_setting           triclinic
_symmetry_space_group_name_H-M   'P 1'
_symmetry_Int_Tables_number      1
_space_group_name_Hall           'P 1'
loop_
_symmetry_equiv_pos_site_id
_symmetry_equiv_pos_as_xyz
1 x,y,z
_cell_length_a                   44.055(6)
_cell_length_b                   44.055(6)
_cell_length_c                   18.729(4)
_cell_angle_alpha                90
_cell_angle_beta                 90
_cell_angle_gamma                120
_cell_volume                     31480.1
loop_
_atom_site_label
_atom_site_type_symbol
_atom_site_fract_x
_atom_site_fract_y
_atom_site_fract_z
O27 O 0.5562(2) 0.0458(3) 0.1944(5)
O28 O 0.58392(17) 0.02242(26) 0.1305(3)
C85 C 0.5317(2) 0.0184(3) 0.0787(4)
C86 C 0.5065(3) 0.0285(4) 0.0823(5)
H52 H 0.5072 0.0430 0.1192
C87 C 0.4804(2) 0.01713(28) 0.0308(5)
H53 H 0.4635 0.0239 0.0332
C88 C 0.5603(3) 0.0307(5) 0.1394(7)
Zn14 Zn 0.57975(3) 0.05880(4) 0.28829(7)
Zn17 Zn 0.61357(2) 0.01638(3) 0.36632(5)
Zn23 Zn 0.62357(2) 0.03137(3) 0.19649(5)
O46 O 0.3815(2) 0.02289(17) 0.8270(4)
O49 O 0.37710(18) 0.01290(15) 0.7035(4)
O4 O 0.6000(2) 0.66595(17) 0.6445(3)
O5 O 0.5886(2) 0.69886(16) 0.7259(4)
O6 O 0.6185(2) 0.97711(17) 0.3270(4)
O7 O 0.62290(18) 0.98710(15) 0.2035(4)
O12 O 0.4896(2) 0.4438(2) 0.1944(5)
O13 O 0.4385(2) 0.41608(17) 0.1305(3)
N1 N 0.6233(4) 0.7340(3) 0.2327(4)
H1 H 0.6234 0.7195 0.2633
N2 N 0.6216(4) 0.7930(2) 0.4374(4)
H2 H 0.6229 0.8119 0.4532
N3 N 0.6261(4) 0.8419(3) 0.2098(5)
H3 H 0.6278 0.8390 0.1649
C2 C 0.6114(2) 0.69464(19) 0.0213(3)
C3 C 0.6218(3) 0.68111(19) 0.0770(4)
H5 H 0.6258 0.6626 0.0687
C4 C 0.6264(3) 0.6953(2) 0.1451(3)
H6 H 0.6334 0.6863 0.1824
C5 C 0.6205(3) 0.7230(2) 0.1575(3)
C6 C 0.6100(3) 0.7366(2) 0.1018(4)
H7 H 0.6061 0.7551 0.1101
C7 C 0.6054(3) 0.7224(2) 0.0337(3)
C8 C 0.5982(3) 0.6938(3) 0.6631(6)
C9 C 0.6062(3) 0.72118(18) 0.6030(3)
C10 C 0.6039(3) 0.7510(2) 0.6164(3)
H9 H 0.5991 0.7555 0.6623
C11 C 0.6088(3) 0.77408(17) 0.5612(4)
H10 H 0.6072 0.7940 0.5701
C12 C 0.6160(3) 0.76736(18) 0.4926(3)
C13 C 0.6183(3) 0.7375(2) 0.4792(3)
H11 H 0.6231 0.7330 0.4333
C14 C 0.6134(3) 0.71446(18) 0.5345(4)
H12 H 0.6150 0.6945 0.5255
C15 C 0.6214(3) 0.9683(2) 0.2614(7)
C16 C 0.6245(2) 0.93614(15) 0.2483(4)
C17 C 0.6250(3) 0.9244(2) 0.1797(3)
H13 H 0.6258 0.9376 0.1404
C18 C 0.6244(3) 0.8928(2) 0.1698(3)
H14 H 0.6247 0.8849 0.1239
C19 C 0.6232(3) 0.87295(17) 0.2286(4)
C20 C 0.6227(3) 0.88472(19) 0.2972(3)
H15 H 0.6220 0.8715 0.3365
C21 C 0.6234(2) 0.91631(19) 0.3071(3)
H16 H 0.6231 0.9242 0.3530
C22 C 0.6265(3) 0.81753(18) 0.2522(3)
N6 N 0.6264(3) 0.7893(2) 0.2189(2)
C23 C 0.6257(3) 0.76258(17) 0.2596(3)
N7 N 0.6251(3) 0.76409(17) 0.3337(3)
C24 C 0.6251(3) 0.7923(2) 0.3670(2)
N8 N 0.6258(3) 0.81904(17) 0.3263(3)
C36 C 0.46606(18) 0.4692(2) 0.0235(5)
H22 H 0.4424 0.4524 0.0211
C37 C 0.4867(2) 0.4683(2) 0.0787(4)
C38 C 0.5220(2) 0.4935(3) 0.0823(5)
H23 H 0.5358 0.4928 0.1192
C39 C 0.53673(19) 0.5196(2) 0.0308(5)
H24 H 0.5604 0.5365 0.0332
C40 C 0.4704(4) 0.4397(3) 0.1394(7)
O21 O 0.33405(17) 0.93405(26) 0.6445(3)
O22 O 0.30114(16) 0.88974(26) 0.7259(4)
O23 O 0.02289(17) 0.64139(26) 0.3270(4)
O24 O 0.01290(15) 0.63580(23) 0.2035(4)
N13 N 0.2660(3) 0.8893(5) 0.2327(4)
H35 H 0.2805 0.9039 0.2633
N14 N 0.2070(2) 0.8286(4) 0.4374(4)
H36 H 0.1881 0.8110 0.4532
N15 N 0.1581(3) 0.7842(5) 0.2098(5)
H37 H 0.1610 0.7888 0.1649
C58 C 0.30536(19) 0.91676(28) 0.0213(3)
C59 C 0.31889(19) 0.94069(36) 0.0770(4)
H38 H 0.3374 0.9632 0.0687
C60 C 0.3047(2) 0.9311(4) 0.1451(3)
H39 H 0.3137 0.9471 0.1824
C61 C 0.2770(2) 0.8975(4) 0.1575(3)
C62 C 0.2634(2) 0.8734(4) 0.1018(4)
H40 H 0.2449 0.8510 0.1101
C63 C 0.2776(2) 0.8830(4) 0.0337(3)
C64 C 0.3062(3) 0.9044(4) 0.6631(6)
C65 C 0.27882(18) 0.88502(35) 0.6030(3)
C66 C 0.2490(2) 0.8529(4) 0.6164(3)
H42 H 0.2445 0.8436 0.6623
C67 C 0.22592(17) 0.83472(34) 0.5612(4)
H43 H 0.2060 0.8132 0.5701
C68 C 0.23264(18) 0.84864(35) 0.4926(3)
C69 C 0.2625(2) 0.8808(4) 0.4792(3)
H44 H 0.2670 0.8901 0.4333
C70 C 0.28554(18) 0.89894(35) 0.5345(4)
H45 H 0.3055 0.9205 0.5255
C71 C 0.0317(2) 0.6531(4) 0.2614(7)
C72 C 0.06386(15) 0.68836(25) 0.2483(4)
C73 C 0.0756(2) 0.7006(4) 0.1797(3)
H46 H 0.0624 0.6882 0.1404
C74 C 0.1072(2) 0.7316(4) 0.1698(3)
H47 H 0.1151 0.7398 0.1239
C75 C 0.12705(17) 0.75025(34) 0.2286(4)
C76 C 0.11528(19) 0.73798(36) 0.2972(3)
H48 H 0.1285 0.7505 0.3365
C77 C 0.08369(19) 0.70709(28) 0.3071(3)
H49 H 0.0758 0.6989 0.3530
C78 C 0.18247(18) 0.80897(35) 0.2522(3)
N16 N 0.2107(2) 0.8371(4) 0.2189(2)
C79 C 0.23742(17) 0.86312(34) 0.2596(3)
N17 N 0.23591(17) 0.86101(34) 0.3337(3)
C80 C 0.2077(2) 0.8328(4) 0.3670(2)
N18 N 0.18096(17) 0.80676(34) 0.3263(3)
C84 C 0.5308(2) 0.99686(27) 0.0235(5)
H51 H 0.5476 0.9900 0.0211
O32 O 0.06595(26) 0.4000(2) 0.6445(3)
O33 O 0.11026(26) 0.4114(2) 0.7259(4)
O34 O 0.35861(26) 0.3815(2) 0.3270(4)
O35 O 0.36420(23) 0.37710(18) 0.2035(4)
N19 N 0.1107(5) 0.3767(4) 0.2327(4)
H54 H 0.0961 0.3766 0.2633
N20 N 0.1714(4) 0.3784(4) 0.4374(4)
H55 H 0.1890 0.3771 0.4532
N21 N 0.2158(5) 0.3739(4) 0.2098(5)
H56 H 0.2112 0.3722 0.1649
C90 C 0.08324(28) 0.3886(2) 0.0213(3)
C91 C 0.05931(36) 0.3782(3) 0.0770(4)
H57 H 0.0368 0.3742 0.0687
C92 C 0.0689(4) 0.3736(3) 0.1451(3)
H58 H 0.0529 0.3666 0.1824
C93 C 0.1025(4) 0.3795(3) 0.1575(3)
C94 C 0.1266(4) 0.3900(3) 0.1018(4)
H59 H 0.1490 0.3939 0.1101
C95 C 0.1170(4) 0.3946(3) 0.0337(3)
C96 C 0.0956(4) 0.4018(3) 0.6631(6)
C97 C 0.11498(35) 0.3938(3) 0.6030(3)
C98 C 0.1471(4) 0.3961(3) 0.6164(3)
H61 H 0.1564 0.4009 0.6623
C99 C 0.16528(34) 0.3912(3) 0.5612(4)
H62 H 0.1868 0.3928 0.5701
C100 C 0.15136(35) 0.3840(3) 0.4926(3)
C101 C 0.1192(4) 0.3817(3) 0.4792(3)
H63 H 0.1099 0.3769 0.4333
C102 C 0.10106(35) 0.3866(3) 0.5345(4)
H64 H 0.0795 0.3850 0.5255
C103 C 0.3469(4) 0.3786(3) 0.2614(7)
C104 C 0.31164(25) 0.3755(2) 0.2483(4)
C105 C 0.2994(4) 0.3750(3) 0.1797(3)
H65 H 0.3118 0.3742 0.1404
C106 C 0.2684(4) 0.3756(3) 0.1698(3)
H66 H 0.2602 0.3753 0.1239
C107 C 0.24975(34) 0.3768(3) 0.2286(4)
C108 C 0.26202(36) 0.3773(3) 0.2972(3)
H67 H 0.2495 0.3780 0.3365
C109 C 0.29291(28) 0.3766(2) 0.3071(3)
H68 H 0.3011 0.3769 0.3530
C110 C 0.19103(35) 0.3735(3) 0.2522(3)
N22 N 0.1629(4) 0.3736(3) 0.2189(2)
C111 C 0.13688(34) 0.3743(3) 0.2596(3)
N23 N 0.13899(34) 0.3749(3) 0.3337(3)
C112 C 0.1672(4) 0.3749(3) 0.3670(2)
N24 N 0.19324(34) 0.3742(3) 0.3263(3)
C116 C 0.00314(27) 0.53394(18) 0.0235(5)
H70 H 0.0100 0.5576 0.0211
Zn13 Zn 0.47905(3) 0.42025(3) 0.28829(7)
Zn16 Zn 0.40281(2) 0.38643(2) 0.36632(5)
Zn19 Zn 0.59220(2) 0.62357(2) 0.69649(5)
Zn20 Zn 0.37643(2) 0.96863(3) 0.69649(5)
Zn21 Zn 0.03137(3) 0.40780(2) 0.69649(5)
Zn22 Zn 0.40780(2) 0.37643(2) 0.19649(5)
Zn25 Zn 0.56831(3) 0.66419(3) 0.80607(6)
Zn26 Zn 0.33581(3) 0.90412(4) 0.80607(6)
Zn27 Zn 0.09588(4) 0.43169(3) 0.80607(6)
Zn1 Zn 0.52095(3) 0.57975(3) 0.78829(7)
Zn2 Zn 0.59719(2) 0.61357(2) 0.86632(5)
O1 O 0.56985(11) 0.62089(10) 0.7897(2)
O2 O 0.5904(2) 0.68806(16) 0.8987(3)
O3 O 0.61129(17) 0.65235(18) 0.9370(3)
O8 O 0.51718(18) 0.65388(19) 0.8122(4)
O9 O 0.48579(19) 0.5928(2) 0.7972(6)
O10 O 0.5120(2) 0.5485(2) 0.8689(5)
O11 O 0.5658(3) 0.5714(2) 0.9233(5)
N4 N 0.3558(2) 0.6189(2) 0.8299(10)
H4 H 0.3419 0.6015 0.8036
N5 N 0.36879(19) 0.6791(3) 0.8204(9)
C1 C 0.6038(3) 0.6773(3) 0.9461(5)
H8 H 0.5984 0.7314 0.9965
C25 C 0.4898(3) 0.6246(4) 0.8058(7)
C26 C 0.45258(19) 0.6220(3) 0.8172(7)
C27 C 0.45232(18) 0.65339(19) 0.8221(6)
H17 H 0.4733 0.6746 0.8231
C28 C 0.4206(2) 0.65308(18) 0.8255(7)
H18 H 0.4205 0.6741 0.8288
C29 C 0.38923(18) 0.6214(2) 0.8240(8)
C30 C 0.38948(19) 0.59006(18) 0.8191(8)
H19 H 0.3685 0.5689 0.8181
C31 C 0.4212(3) 0.5904(2) 0.8157(7)
H20 H 0.4213 0.5694 0.8123
C32 C 0.3463(3) 0.6451(3) 0.8205(10)
C33 C 0.5330(4) 0.5502(3) 0.9197(7)
C34 C 0.5161(3) 0.52058(19) 0.9757(4)
C35 C 0.4808(2) 0.4954(2) 0.9720(4)
H21 H 0.4670 0.4960 0.9351
O14 O 0.34612(19) 0.86330(26) 0.8122(4)
O15 O 0.4072(2) 0.89299(28) 0.7972(6)
N9 N 0.3811(2) 0.7369(3) 0.8299(10)
H25 H 0.3985 0.7404 0.8036
N10 N 0.3209(3) 0.68969(36) 0.8204(9)
C41 C 0.3754(4) 0.8652(5) 0.8058(7)
C42 C 0.3780(3) 0.83058(36) 0.8172(7)
C43 C 0.34661(19) 0.79893(26) 0.8221(6)
H26 H 0.3254 0.7987 0.8231
C44 C 0.34692(18) 0.76752(27) 0.8255(7)
H27 H 0.3259 0.7464 0.8288
C45 C 0.3786(2) 0.76783(27) 0.8240(8)
C46 C 0.40994(18) 0.79942(26) 0.8191(8)
H28 H 0.4311 0.7996 0.8181
C47 C 0.4096(2) 0.8308(4) 0.8157(7)
H29 H 0.4306 0.8519 0.8123
C48 C 0.3549(3) 0.7012(4) 0.8205(10)
O16 O 0.13670(26) 0.48282(18) 0.8122(4)
O17 O 0.10701(28) 0.51421(19) 0.7972(6)
N11 N 0.2631(3) 0.6442(2) 0.8299(10)
H30 H 0.2596 0.6581 0.8036
N12 N 0.31031(36) 0.63121(19) 0.8204(9)
C49 C 0.1348(5) 0.5102(3) 0.8058(7)
C50 C 0.16942(36) 0.54742(19) 0.8172(7)
C51 C 0.20107(26) 0.54768(18) 0.8221(6)
H31 H 0.2013 0.5267 0.8231
C52 C 0.23248(27) 0.5794(2) 0.8255(7)
H32 H 0.2536 0.5795 0.8288
C53 C 0.23217(27) 0.61077(18) 0.8240(8)
C54 C 0.20058(26) 0.61052(19) 0.8191(8)
H33 H 0.2004 0.6315 0.8181
C55 C 0.1692(4) 0.5788(3) 0.8157(7)
H34 H 0.1481 0.5787 0.8123
C56 C 0.2988(4) 0.6537(3) 0.8205(10)
Zn5 Zn 0.42025(3) 0.94120(4) 0.78829(7)
Zn6 Zn 0.38643(2) 0.98362(3) 0.86632(5)
O18 O 0.37911(10) 0.94896(15) 0.7897(2)
O19 O 0.31194(16) 0.90234(26) 0.8987(3)
O20 O 0.34765(18) 0.95894(25) 0.9370(3)
O25 O 0.4515(2) 0.9635(3) 0.8689(5)
O26 O 0.4286(2) 0.9944(4) 0.9233(5)
C57 C 0.3227(3) 0.9265(4) 0.9461(5)
H41 H 0.2686 0.8670 0.9965
C81 C 0.4498(3) 0.9828(5) 0.9197(7)
C82 C 0.47942(19) 0.99552(36) 0.9757(4)
C83 C 0.5046(2) 0.9854(3) 0.9720(4)
H50 H 0.5040 0.9710 0.9351
Zn9 Zn 0.05880(4) 0.47905(3) 0.78829(7)
Zn10 Zn 0.01638(3) 0.40281(2) 0.86632(5)
O29 O 0.05104(15) 0.43015(11) 0.7897(2)
O30 O 0.09766(26) 0.4096(2) 0.8987(3)
O31 O 0.04106(25) 0.38871(17) 0.9370(3)
O36 O 0.0365(3) 0.4880(2) 0.8689(5)
O37 O 0.0056(4) 0.4342(3) 0.9233(5)
C89 C 0.0735(4) 0.3962(3) 0.9461(5)
H60 H 0.1330 0.4016 0.9965
C113 C 0.0172(5) 0.4670(4) 0.9197(7)
C114 C 0.00448(36) 0.4839(3) 0.9757(4)
C115 C 0.0146(3) 0.5192(2) 0.9720(4)
H69 H 0.0290 0.5330 0.9351
O48 O 0.64139(26) 0.6185(2) 0.8270(4)
O51 O 0.63580(23) 0.62290(18) 0.7035(4)
O52 O 0.5104(2) 0.5562(2) 0.6944(5)
O53 O 0.4438(2) 0.9542(3) 0.6944(5)
O54 O 0.0458(3) 0.4896(2) 0.6944(5)
O55 O 0.5615(2) 0.58392(17) 0.6305(3)
O56 O 0.41608(17) 0.97758(26) 0.6305(3)
O57 O 0.02242(26) 0.4385(2) 0.6305(3)
O38 O 0.9542(3) 0.5104(2) 0.1944(5)
O39 O 0.97758(26) 0.5615(2) 0.1305(3)
C117 C 0.9816(3) 0.5133(2) 0.0787(4)
C118 C 0.9715(4) 0.4780(2) 0.0823(5)
H71 H 0.9570 0.4642 0.1192
C119 C 0.98287(28) 0.46327(19) 0.0308(5)
H72 H 0.9761 0.4396 0.0332
C120 C 0.9693(5) 0.5296(4) 0.1394(7)
Zn15 Zn 0.94120(4) 0.52095(3) 0.28829(7)
Zn18 Zn 0.98362(3) 0.59719(2) 0.36632(5)
Zn24 Zn 0.96863(3) 0.59220(2) 0.19649(5)
O47 O 0.97711(17) 0.35861(26) 0.8270(4)
O50 O 0.98710(15) 0.36420(23) 0.7035(4)
C117_2 C 0.0184(3) 0.4867(2) 0.5787(4)
C118_2 C 0.0285(4) 0.5220(2) 0.5823(5)
H71_2 H 0.0430 0.5358 0.6192
C119_2 C 0.01713(28) 0.53673(19) 0.5308(5)
H72_2 H 0.0239 0.5604 0.5332
C120_2 C 0.0307(5) 0.4704(4) 0.6394(7)
O4_2 O 0.4000(2) 0.33405(17) 0.1445(3)
O5_2 O 0.4114(2) 0.30114(16) 0.2259(4)
C8_2 C 0.4018(3) 0.3062(3) 0.1631(6)
C9_2 C 0.3938(3) 0.27882(18) 0.1030(3)
C10_2 C 0.3961(3) 0.2490(2) 0.1164(3)
H9_2 H 0.4009 0.2445 0.1623
C11_2 C 0.3912(3) 0.22592(17) 0.0612(4)
H10_2 H 0.3928 0.2060 0.0701
C14_2 C 0.3866(3) 0.28554(18) 0.0345(4)
H12_2 H 0.3850 0.3055 0.0255
O21_2 O 0.66595(17) 0.06595(26) 0.1445(3)
O22_2 O 0.69886(16) 0.11026(26) 0.2259(4)
C64_2 C 0.6938(3) 0.0956(4) 0.1631(6)
C65_2 C 0.72118(18) 0.11498(35) 0.1030(3)
C66_2 C 0.7510(2) 0.1471(4) 0.1164(3)
H42_2 H 0.7555 0.1564 0.1623
C67_2 C 0.77408(17) 0.16528(34) 0.0612(4)
H43_2 H 0.7940 0.1868 0.0701
C70_2 C 0.71446(18) 0.10106(35) 0.0345(4)
H45_2 H 0.6945 0.0795 0.0255
O32_2 O 0.93405(26) 0.6000(2) 0.1445(3)
O33_2 O 0.88974(26) 0.5886(2) 0.2259(4)
C96_2 C 0.9044(4) 0.5982(3) 0.1631(6)
C97_2 C 0.88502(35) 0.6062(3) 0.1030(3)
C98_2 C 0.8529(4) 0.6039(3) 0.1164(3)
H61_2 H 0.8436 0.5991 0.1623
C99_2 C 0.83472(34) 0.6088(3) 0.0612(4)
H62_2 H 0.8132 0.6072 0.0701
C102_2 C 0.89894(35) 0.6134(3) 0.0345(4)
H64_2 H 0.9205 0.6150 0.0255
Zn25_2 Zn 0.43169(3) 0.33581(3) 0.30607(6)
Zn26_2 Zn 0.66419(3) 0.09588(4) 0.30607(6)
Zn27_2 Zn 0.90412(4) 0.56831(3) 0.30607(6)
O1_2 O 0.43015(11) 0.37911(10) 0.2897(2)
O2_2 O 0.4096(2) 0.31194(16) 0.3987(3)
O3_2 O 0.38871(17) 0.34765(18) 0.4370(3)
O8_2 O 0.48282(18) 0.34612(19) 0.3122(4)
O9_2 O 0.51421(19) 0.4072(2) 0.2972(6)
O10_2 O 0.4880(2) 0.4515(2) 0.3689(5)
O11_2 O 0.4342(3) 0.4286(2) 0.4233(5)
N1_2 N 0.3767(4) 0.2660(3) 0.7327(4)
H1_2 H 0.3766 0.2805 0.7633
N2_2 N 0.3784(4) 0.2070(2) 0.9374(4)
H2_2 H 0.3771 0.1881 0.9532
N3_2 N 0.3739(4) 0.1581(3) 0.7098(5)
H3_2 H 0.3722 0.1610 0.6649
N4_2 N 0.6442(2) 0.3811(2) 0.3299(10)
H4_2 H 0.6581 0.3985 0.3036
N5_2 N 0.63121(19) 0.3209(3) 0.3204(9)
C1_2 C 0.3962(3) 0.3227(3) 0.4461(5)
C2_2 C 0.3886(2) 0.30536(19) 0.5213(3)
C3_2 C 0.3782(3) 0.31889(19) 0.5770(4)
H5_2 H 0.3742 0.3374 0.5687
C4_2 C 0.3736(3) 0.3047(2) 0.6451(3)
H6_2 H 0.3666 0.3137 0.6824
C5_2 C 0.3795(3) 0.2770(2) 0.6575(3)
C6_2 C 0.3900(3) 0.2634(2) 0.6018(4)
H7_2 H 0.3939 0.2449 0.6101
C7_2 C 0.3946(3) 0.2776(2) 0.5337(3)
H8_2 H 0.4016 0.2686 0.4965
C12_2 C 0.3840(3) 0.23264(18) 0.9926(3)
C13_2 C 0.3817(3) 0.2625(2) 0.9792(3)
H11_2 H 0.3769 0.2670 0.9333
C15_2 C 0.3786(3) 0.0317(2) 0.7614(7)
C16_2 C 0.3755(2) 0.06386(15) 0.7483(4)
C17_2 C 0.3750(3) 0.0756(2) 0.6797(3)
H13_2 H 0.3742 0.0624 0.6404
C18_2 C 0.3756(3) 0.1072(2) 0.6698(3)
H14_2 H 0.3753 0.1151 0.6239
C19_2 C 0.3768(3) 0.12705(17) 0.7286(4)
C20_2 C 0.3773(3) 0.11528(19) 0.7972(3)
H15_2 H 0.3780 0.1285 0.8365
C21_2 C 0.3766(2) 0.08369(19) 0.8071(3)
H16_2 H 0.3769 0.0758 0.8530
C22_2 C 0.3735(3) 0.18247(18) 0.7522(3)
N6_2 N 0.3736(3) 0.2107(2) 0.7189(2)
C23_2 C 0.3743(3) 0.23742(17) 0.7596(3)
N7_2 N 0.3749(3) 0.23591(17) 0.8337(3)
C24_2 C 0.3749(3) 0.2077(2) 0.8670(2)
N8_2 N 0.3742(3) 0.18096(17) 0.8263(3)
C25_2 C 0.5102(3) 0.3754(4) 0.3058(7)
C26_2 C 0.54742(19) 0.3780(3) 0.3172(7)
C27_2 C 0.54768(18) 0.34661(19) 0.3221(6)
H17_2 H 0.5267 0.3254 0.3231
C28_2 C 0.5794(2) 0.34692(18) 0.3255(7)
H18_2 H 0.5795 0.3259 0.3288
C29_2 C 0.61077(18) 0.3786(2) 0.3240(8)
C30_2 C 0.61052(19) 0.40994(18) 0.3191(8)
H19_2 H 0.6315 0.4311 0.3181
C31_2 C 0.5788(3) 0.4096(2) 0.3157(7)
H20_2 H 0.5787 0.4306 0.3123
C32_2 C 0.6537(3) 0.3549(3) 0.3205(10)
C33_2 C 0.4670(4) 0.4498(3) 0.4197(7)
C34_2 C 0.4839(3) 0.47942(19) 0.4757(4)
C35_2 C 0.5192(2) 0.5046(2) 0.4720(4)
H21_2 H 0.5330 0.5040 0.4351
C36_2 C 0.53394(18) 0.5308(2) 0.5235(5)
H22_2 H 0.5576 0.5476 0.5211
C37_2 C 0.5133(2) 0.5317(2) 0.5787(4)
C38_2 C 0.4780(2) 0.5065(3) 0.5823(5)
H23_2 H 0.4642 0.5072 0.6192
C39_2 C 0.46327(19) 0.4804(2) 0.5308(5)
H24_2 H 0.4396 0.4635 0.5332
C40_2 C 0.5296(4) 0.5603(3) 0.6394(7)
O14_2 O 0.65388(19) 0.13670(26) 0.3122(4)
O15_2 O 0.5928(2) 0.10701(28) 0.2972(6)
N9_2 N 0.6189(2) 0.2631(3) 0.3299(10)
H25_2 H 0.6015 0.2596 0.3036
N10_2 N 0.6791(3) 0.31031(36) 0.3204(9)
C41_2 C 0.6246(4) 0.1348(5) 0.3058(7)
C42_2 C 0.6220(3) 0.16942(36) 0.3172(7)
C43_2 C 0.65339(19) 0.20107(26) 0.3221(6)
H26_2 H 0.6746 0.2013 0.3231
C44_2 C 0.65308(18) 0.23248(27) 0.3255(7)
H27_2 H 0.6741 0.2536 0.3288
C45_2 C 0.6214(2) 0.23217(27) 0.3240(8)
C46_2 C 0.59006(18) 0.20058(26) 0.3191(8)
H28_2 H 0.5689 0.2004 0.3181
C47_2 C 0.5904(2) 0.1692(4) 0.3157(7)
H29_2 H 0.5694 0.1481 0.3123
C48_2 C 0.6451(3) 0.2988(4) 0.3205(10)
O16_2 O 0.86330(26) 0.51718(18) 0.3122(4)
O17_2 O 0.89299(28) 0.48579(19) 0.2972(6)
N11_2 N 0.7369(3) 0.3558(2) 0.3299(10)
H30_2 H 0.7404 0.3419 0.3036
N12_2 N 0.68969(36) 0.36879(19) 0.3204(9)
C49_2 C 0.8652(5) 0.4898(3) 0.3058(7)
C50_2 C 0.83058(36) 0.45258(19) 0.3172(7)
C51_2 C 0.79893(26) 0.45232(18) 0.3221(6)
H31_2 H 0.7987 0.4733 0.3231
C52_2 C 0.76752(27) 0.4206(2) 0.3255(7)
H32_2 H 0.7464 0.4205 0.3288
C53_2 C 0.76783(27) 0.38923(18) 0.3240(8)
C54_2 C 0.79942(26) 0.38948(19) 0.3191(8)
H33_2 H 0.7996 0.3685 0.3181
C55_2 C 0.8308(4) 0.4212(3) 0.3157(7)
H34_2 H 0.8519 0.4213 0.3123
C56_2 C 0.7012(4) 0.3463(3) 0.3205(10)
O18_2 O 0.62089(10) 0.05104(15) 0.2897(2)
O19_2 O 0.68806(16) 0.09766(26) 0.3987(3)
O20_2 O 0.65235(18) 0.04106(25) 0.4370(3)
O25_2 O 0.5485(2) 0.0365(3) 0.3689(5)
O26_2 O 0.5714(2) 0.0056(4) 0.4233(5)
N13_2 N 0.7340(3) 0.1107(5) 0.7327(4)
H35_2 H 0.7195 0.0961 0.7633
N14_2 N 0.7930(2) 0.1714(4) 0.9374(4)
H36_2 H 0.8119 0.1890 0.9532
N15_2 N 0.8419(3) 0.2158(5) 0.7098(5)
H37_2 H 0.8390 0.2112 0.6649
C57_2 C 0.6773(3) 0.0735(4) 0.4461(5)
C58_2 C 0.69464(19) 0.08324(28) 0.5213(3)
C59_2 C 0.68111(19) 0.05931(36) 0.5770(4)
H38_2 H 0.6626 0.0368 0.5687
C60_2 C 0.6953(2) 0.0689(4) 0.6451(3)
H39_2 H 0.6863 0.0529 0.6824
C61_2 C 0.7230(2) 0.1025(4) 0.6575(3)
C62_2 C 0.7366(2) 0.1266(4) 0.6018(4)
H40_2 H 0.7551 0.1490 0.6101
C63_2 C 0.7224(2) 0.1170(4) 0.5337(3)
H41_2 H 0.7314 0.1330 0.4965
C68_2 C 0.76736(18) 0.15136(35) 0.9926(3)
C69_2 C 0.7375(2) 0.1192(4) 0.9792(3)
H44_2 H 0.7330 0.1099 0.9333
C71_2 C 0.9683(2) 0.3469(4) 0.7614(7)
C72_2 C 0.93614(15) 0.31164(25) 0.7483(4)
C73_2 C 0.9244(2) 0.2994(4) 0.6797(3)
H46_2 H 0.9376 0.3118 0.6404
C74_2 C 0.8928(2) 0.2684(4) 0.6698(3)
H47_2 H 0.8849 0.2602 0.6239
C75_2 C 0.87295(17) 0.24975(34) 0.7286(4)
C76_2 C 0.88472(19) 0.26202(36) 0.7972(3)
H48_2 H 0.8715 0.2495 0.8365
C77_2 C 0.91631(19) 0.29291(28) 0.8071(3)
H49_2 H 0.9242 0.3011 0.8530
C78_2 C 0.81753(18) 0.19103(35) 0.7522(3)
N16_2 N 0.7893(2) 0.1629(4) 0.7189(2)
C79_2 C 0.76258(17) 0.13688(34) 0.7596(3)
N17_2 N 0.76409(17) 0.13899(34) 0.8337(3)
C80_2 C 0.7923(2) 0.1672(4) 0.8670(2)
N18_2 N 0.81904(17) 0.19324(34) 0.8263(3)
C81_2 C 0.5502(3) 0.0172(5) 0.4197(7)
C82_2 C 0.52058(19) 0.00448(36) 0.4757(4)
C83_2 C 0.4954(2) 0.0146(3) 0.4720(4)
H50_2 H 0.4960 0.0290 0.4351
C84_2 C 0.4692(2) 0.00314(27) 0.5235(5)
H51_2 H 0.4524 0.0100 0.5211
O29_2 O 0.94896(15) 0.56985(11) 0.2897(2)
O30_2 O 0.90234(26) 0.5904(2) 0.3987(3)
O31_2 O 0.95894(25) 0.61129(17) 0.4370(3)
O36_2 O 0.9635(3) 0.5120(2) 0.3689(5)
O37_2 O 0.9944(4) 0.5658(3) 0.4233(5)
N19_2 N 0.8893(5) 0.6233(4) 0.7327(4)
H54_2 H 0.9039 0.6234 0.7633
N20_2 N 0.8286(4) 0.6216(4) 0.9374(4)
H55_2 H 0.8110 0.6229 0.9532
N21_2 N 0.7842(5) 0.6261(4) 0.7098(5)
H56_2 H 0.7888 0.6278 0.6649
C89_2 C 0.9265(4) 0.6038(3) 0.4461(5)
C90_2 C 0.91676(28) 0.6114(2) 0.5213(3)
C91_2 C 0.94069(36) 0.6218(3) 0.5770(4)
H57_2 H 0.9632 0.6258 0.5687
C92_2 C 0.9311(4) 0.6264(3) 0.6451(3)
H58_2 H 0.9471 0.6334 0.6824
C93_2 C 0.8975(4) 0.6205(3) 0.6575(3)
C94_2 C 0.8734(4) 0.6100(3) 0.6018(4)
H59_2 H 0.8510 0.6061 0.6101
C95_2 C 0.8830(4) 0.6054(3) 0.5337(3)
H60_2 H 0.8670 0.5984 0.4965
C100_2 C 0.84864(35) 0.6160(3) 0.9926(3)
C101_2 C 0.8808(4) 0.6183(3) 0.9792(3)
H63_2 H 0.8901 0.6231 0.9333
C103_2 C 0.6531(4) 0.6214(3) 0.7614(7)
C104_2 C 0.68836(25) 0.6245(2) 0.7483(4)
C105_2 C 0.7006(4) 0.6250(3) 0.6797(3)
H65_2 H 0.6882 0.6258 0.6404
C106_2 C 0.7316(4) 0.6244(3) 0.6698(3)
H66_2 H 0.7398 0.6247 0.6239
C107_2 C 0.75025(34) 0.6232(3) 0.7286(4)
C108_2 C 0.73798(36) 0.6227(3) 0.7972(3)
H67_2 H 0.7505 0.6220 0.8365
C109_2 C 0.70709(28) 0.6234(2) 0.8071(3)
H68_2 H 0.6989 0.6231 0.8530
C110_2 C 0.80897(35) 0.6265(3) 0.7522(3)
N22_2 N 0.8371(4) 0.6264(3) 0.7189(2)
C111_2 C 0.86312(34) 0.6257(3) 0.7596(3)
N23_2 N 0.86101(34) 0.6251(3) 0.8337(3)
C112_2 C 0.8328(4) 0.6251(3) 0.8670(2)
N24_2 N 0.80676(34) 0.6258(3) 0.8263(3)
C113_2 C 0.9828(5) 0.5330(4) 0.4197(7)
C114_2 C 0.99552(36) 0.5161(3) 0.4757(4)
C115_2 C 0.9854(3) 0.4808(2) 0.4720(4)
H69_2 H 0.9710 0.4670 0.4351
C116_2 C 0.99686(27) 0.46606(18) 0.5235(5)
H70_2 H 0.9900 0.4424 0.5211
C85_2 C 0.4683(2) 0.9816(3) 0.5787(4)
C86_2 C 0.4935(3) 0.9715(4) 0.5823(5)
H52_2 H 0.4928 0.9570 0.6192
C87_2 C 0.5196(2) 0.98287(28) 0.5308(5)
H53_2 H 0.5365 0.9761 0.5332
C88_2 C 0.4397(3) 0.9693(5) 0.6394(7)
loop_
_geom_bond_atom_site_label_1
_geom_bond_atom_site_label_2
_geom_bond_site_symmetry_1
_geom_bond_site_symmetry_2
O27 C88 1_555 1_555
O28 C88 1_555 1_555
C86 C85 1_555 1_555
H52 C86 1_555 1_555
H53 C87 1_555 1_555
C88 C85 1_555 1_555
Zn14 O27 1_555 1_555
O28 Zn23 1_555 1_555
C86 C87 1_555 1_555
O4 C8 1_555 1_555
O5 C8 1_555 1_555
O6 C15 1_555 1_555
O7 C15 1_555 1_555
O12 C40 1_555 1_555
O13 C40 1_555 1_555
N1 H1 1_555 1_555
N2 H2 1_555 1_555
N3 H3 1_555 1_555
C3 C2 1_555 1_555
H5 C3 1_555 1_555
C4 C3 1_555 1_555
H6 C4 1_555 1_555
C5 N1 1_555 1_555
C6 C5 1_555 1_555
H7 C6 1_555 1_555
C7 C2 1_555 1_555
C8 C9 1_555 1_555
C9 C10 1_555 1_555
C10 H9 1_555 1_555
C11 C10 1_555 1_555
H10 C11 1_555 1_555
C12 N2 1_555 1_555
C13 C12 1_555 1_555
H11 C13 1_555 1_555
C14 C9 1_555 1_555
H12 C14 1_555 1_555
C15 C16 1_555 1_555
C16 C17 1_555 1_555
C17 H13 1_555 1_555
C18 C17 1_555 1_555
H14 C18 1_555 1_555
C19 N3 1_555 1_555
C20 C19 1_555 1_555
H15 C20 1_555 1_555
C21 C16 1_555 1_555
H16 C21 1_555 1_555
C22 N3 1_555 1_555
N6 C22 1_555 1_555
C23 N1 1_555 1_555
N7 C23 1_555 1_555
C24 N2 1_555 1_555
N8 C22 1_555 1_555
H22 C36 1_555 1_555
C37 C36 1_555 1_555
C38 C37 1_555 1_555
H23 C38 1_555 1_555
H24 C39 1_555 1_555
C40 C37 1_555 1_555
O21 C64 1_555 1_555
O22 C64 1_555 1_555
O23 C71 1_555 1_555
O24 C71 1_555 1_555
N13 H35 1_555 1_555
N14 H36 1_555 1_555
N15 H37 1_555 1_555
C59 C58 1_555 1_555
H38 C59 1_555 1_555
C60 C59 1_555 1_555
H39 C60 1_555 1_555
C61 N13 1_555 1_555
C62 C61 1_555 1_555
H40 C62 1_555 1_555
C63 C58 1_555 1_555
C64 C65 1_555 1_555
C65 C66 1_555 1_555
C66 H42 1_555 1_555
C67 C66 1_555 1_555
H43 C67 1_555 1_555
C68 N14 1_555 1_555
C69 C68 1_555 1_555
H44 C69 1_555 1_555
C70 C65 1_555 1_555
H45 C70 1_555 1_555
C71 C72 1_555 1_555
C72 C73 1_555 1_555
C73 H46 1_555 1_555
C74 C73 1_555 1_555
H47 C74 1_555 1_555
C75 N15 1_555 1_555
C76 C75 1_555 1_555
H48 C76 1_555 1_555
C77 C72 1_555 1_555
H49 C77 1_555 1_555
C78 N15 1_555 1_555
N16 C78 1_555 1_555
C79 N13 1_555 1_555
N17 C79 1_555 1_555
C80 N14 1_555 1_555
N18 C78 1_555 1_555
H51 C84 1_555 1_555
O32 C96 1_555 1_555
O33 C96 1_555 1_555
O34 C103 1_555 1_555
O35 C103 1_555 1_555
N19 H54 1_555 1_555
N20 H55 1_555 1_555
N21 H56 1_555 1_555
C91 C90 1_555 1_555
H57 C91 1_555 1_555
C92 C91 1_555 1_555
H58 C92 1_555 1_555
C93 N19 1_555 1_555
C94 C93 1_555 1_555
H59 C94 1_555 1_555
C95 C90 1_555 1_555
C96 C97 1_555 1_555
C97 C98 1_555 1_555
C98 H61 1_555 1_555
C99 C98 1_555 1_555
H62 C99 1_555 1_555
C100 N20 1_555 1_555
C101 C100 1_555 1_555
H63 C101 1_555 1_555
C102 C97 1_555 1_555
H64 C102 1_555 1_555
C103 C104 1_555 1_555
C104 C105 1_555 1_555
C105 H65 1_555 1_555
C106 C105 1_555 1_555
H66 C106 1_555 1_555
C107 N21 1_555 1_555
C108 C107 1_555 1_555
H67 C108 1_555 1_555
C109 C104 1_555 1_555
H68 C109 1_555 1_555
C110 N21 1_555 1_555
N22 C110 1_555 1_555
C111 N19 1_555 1_555
N23 C111 1_555 1_555
C112 N20 1_555 1_555
N24 C110 1_555 1_555
H70 C116 1_555 1_555
Zn13 O12 1_555 1_555
Zn16 O34 1_555 1_555
Zn19 O4 1_555 1_555
Zn20 O21 1_555 1_555
Zn21 O32 1_555 1_555
Zn22 O13 1_555 1_555
Zn25 O5 1_555 1_555
Zn26 O22 1_555 1_555
Zn27 O33 1_555 1_555
C4 C5 1_555 1_555
C6 C7 1_555 1_555
C11 C12 1_555 1_555
C13 C14 1_555 1_555
C18 C19 1_555 1_555
C20 C21 1_555 1_555
N6 C23 1_555 1_555
N7 C24 1_555 1_555
C24 N8 1_555 1_555
C38 C39 1_555 1_555
C60 C61 1_555 1_555
C62 C63 1_555 1_555
C67 C68 1_555 1_555
C69 C70 1_555 1_555
C74 C75 1_555 1_555
C76 C77 1_555 1_555
N16 C79 1_555 1_555
N17 C80 1_555 1_555
C80 N18 1_555 1_555
O35 Zn22 1_555 1_555
C92 C93 1_555 1_555
C94 C95 1_555 1_555
C99 C100 1_555 1_555
C101 C102 1_555 1_555
C106 C107 1_555 1_555
C108 C109 1_555 1_555
N22 C111 1_555 1_555
N23 C112 1_555 1_555
C112 N24 1_555 1_555
Zn1 O1 1_555 1_555
Zn2 O1 1_555 1_555
Zn19 O1 1_555 1_555
Zn25 O1 1_555 1_555
O2 Zn25 1_555 1_555
O3 Zn2 1_555 1_555
O8 Zn25 1_555 1_555
O9 Zn1 1_555 1_555
O10 Zn1 1_555 1_555
O11 Zn2 1_555 1_555
N4 H4 1_555 1_555
N5 C32 1_555 1_555
C1 O2 1_555 1_555
C25 O8 1_555 1_555
C26 C25 1_555 1_555
C27 C26 1_555 1_555
H17 C27 1_555 1_555
C28 C27 1_555 1_555
H18 C28 1_555 1_555
C29 N4 1_555 1_555
C30 C29 1_555 1_555
H19 C30 1_555 1_555
C31 C26 1_555 1_555
H20 C31 1_555 1_555
C32 N4 1_555 1_555
C33 O10 1_555 1_555
C34 C33 1_555 1_555
C35 C34 1_555 1_555
H21 C35 1_555 1_555
O14 C41 1_555 1_555
O15 C41 1_555 1_555
N9 H25 1_555 1_555
N10 C48 1_555 1_555
C41 C42 1_555 1_555
C42 C43 1_555 1_555
C43 H26 1_555 1_555
C44 C43 1_555 1_555
H27 C44 1_555 1_555
C45 N9 1_555 1_555
C46 C45 1_555 1_555
H28 C46 1_555 1_555
C47 C42 1_555 1_555
H29 C47 1_555 1_555
C48 N5 1_555 1_555
O16 C49 1_555 1_555
O17 C49 1_555 1_555
N11 H30 1_555 1_555
N12 C32 1_555 1_555
C49 C50 1_555 1_555
C50 C51 1_555 1_555
C51 H31 1_555 1_555
C52 C51 1_555 1_555
H32 C52 1_555 1_555
C53 N11 1_555 1_555
C54 C53 1_555 1_555
H33 C54 1_555 1_555
C55 C50 1_555 1_555
H34 C55 1_555 1_555
C56 N10 1_555 1_555
Zn5 O15 1_555 1_555
Zn6 O18 1_555 1_555
Zn20 O18 1_555 1_555
Zn26 O14 1_555 1_555
O18 Zn5 1_555 1_555
O19 Zn26 1_555 1_555
O20 Zn6 1_555 1_555
O25 Zn5 1_555 1_555
O26 Zn6 1_555 1_555
C57 O19 1_555 1_555
C81 O25 1_555 1_555
C82 C81 1_555 1_555
C83 C82 1_555 1_555
H50 C83 1_555 1_555
Zn9 O17 1_555 1_555
Zn10 O29 1_555 1_555
Zn21 O29 1_555 1_555
Zn27 O16 1_555 1_555
O29 Zn9 1_555 1_555
O30 Zn27 1_555 1_555
O31 Zn10 1_555 1_555
O36 Zn9 1_555 1_555
O37 Zn10 1_555 1_555
C89 O30 1_555 1_555
C113 O36 1_555 1_555
C114 C113 1_555 1_555
C115 C114 1_555 1_555
H69 C115 1_555 1_555
O48 Zn2 1_555 1_555
O51 Zn19 1_555 1_555
O52 Zn1 1_555 1_555
O53 Zn5 1_555 1_555
O54 Zn9 1_555 1_555
O55 Zn19 1_555 1_555
O56 Zn20 1_555 1_555
O57 Zn21 1_555 1_555
O3 C1 1_555 1_555
O9 C25 1_555 1_555
O11 C33 1_555 1_555
C28 C29 1_555 1_555
C30 C31 1_555 1_555
N9 C48 1_555 1_555
C44 C45 1_555 1_555
C46 C47 1_555 1_555
N11 C56 1_555 1_555
N12 C56 1_555 1_555
C52 C53 1_555 1_555
C54 C55 1_555 1_555
Zn26 O18 1_555 1_555
O20 C57 1_555 1_555
O26 C81 1_555 1_555
Zn27 O29 1_555 1_555
O31 C89 1_555 1_555
O37 C113 1_555 1_555
O38 C120 1_555 1_555
O39 C120 1_555 1_555
C118 C117 1_555 1_555
H71 C118 1_555 1_555
H72 C119 1_555 1_555
C120 C117 1_555 1_555
Zn15 O38 1_555 1_555
O39 Zn24 1_555 1_555
C118 C119 1_555 1_555
O54 C120_2 1_555 1_555
O57 C120_2 1_555 1_555
C118_2 C117_2 1_555 1_555
H71_2 C118_2 1_555 1_555
H72_2 C119_2 1_555 1_555
C120_2 C117_2 1_555 1_555
C118_2 C119_2 1_555 1_555
O4_2 C8_2 1_555 1_555
O5_2 C8_2 1_555 1_555
C8_2 C9_2 1_555 1_555
C9_2 C10_2 1_555 1_555
C10_2 H9_2 1_555 1_555
C11_2 C10_2 1_555 1_555
H10_2 C11_2 1_555 1_555
C14_2 C9_2 1_555 1_555
H12_2 C14_2 1_555 1_555
O21_2 C64_2 1_555 1_555
O22_2 C64_2 1_555 1_555
C64_2 C65_2 1_555 1_555
C65_2 C66_2 1_555 1_555
C66_2 H42_2 1_555 1_555
C67_2 C66_2 1_555 1_555
H43_2 C67_2 1_555 1_555
C70_2 C65_2 1_555 1_555
H45_2 C70_2 1_555 1_555
O32_2 C96_2 1_555 1_555
O33_2 C96_2 1_555 1_555
C96_2 C97_2 1_555 1_555
C97_2 C98_2 1_555 1_555
C98_2 H61_2 1_555 1_555
C99_2 C98_2 1_555 1_555
H62_2 C99_2 1_555 1_555
C102_2 C97_2 1_555 1_555
H64_2 C102_2 1_555 1_555
Zn22 O4_2 1_555 1_555
Zn23 O21_2 1_555 1_555
Zn24 O32_2 1_555 1_555
Zn25_2 O5_2 1_555 1_555
Zn26_2 O22_2 1_555 1_555
Zn27_2 O33_2 1_555 1_555
Zn13 O1_2 1_555 1_555
Zn16 O1_2 1_555 1_555
Zn22 O1_2 1_555 1_555
Zn25_2 O1_2 1_555 1_555
O2_2 Zn25_2 1_555 1_555
O3_2 Zn16 1_555 1_555
O46 C15_2 1_555 1_555
O49 C15_2 1_555 1_555
O8_2 Zn25_2 1_555 1_555
O9_2 Zn13 1_555 1_555
O10_2 Zn13 1_555 1_555
O11_2 Zn16 1_555 1_555
O52 C40_2 1_555 1_555
O55 C40_2 1_555 1_555
N1_2 H1_2 1_555 1_555
N2_2 H2_2 1_555 1_555
N3_2 H3_2 1_555 1_555
N4_2 H4_2 1_555 1_555
N5_2 C32_2 1_555 1_555
C1_2 O2_2 1_555 1_555
C2_2 C1_2 1_555 1_555
C3_2 C2_2 1_555 1_555
H5_2 C3_2 1_555 1_555
C4_2 C3_2 1_555 1_555
H6_2 C4_2 1_555 1_555
C5_2 N1_2 1_555 1_555
C6_2 C5_2 1_555 1_555
H7_2 C6_2 1_555 1_555
C7_2 C2_2 1_555 1_555
H8_2 C7_2 1_555 1_555
C12_2 N2_2 1_555 1_555
C13_2 C12_2 1_555 1_555
H11_2 C13_2 1_555 1_555
C15_2 C16_2 1_555 1_555
C16_2 C17_2 1_555 1_555
C17_2 H13_2 1_555 1_555
C18_2 C17_2 1_555 1_555
H14_2 C18_2 1_555 1_555
C19_2 N3_2 1_555 1_555
C20_2 C19_2 1_555 1_555
H15_2 C20_2 1_555 1_555
C21_2 C16_2 1_555 1_555
H16_2 C21_2 1_555 1_555
C22_2 N3_2 1_555 1_555
N6_2 C22_2 1_555 1_555
C23_2 N1_2 1_555 1_555
N7_2 C23_2 1_555 1_555
C24_2 N2_2 1_555 1_555
N8_2 C22_2 1_555 1_555
C25_2 O8_2 1_555 1_555
C26_2 C25_2 1_555 1_555
C27_2 C26_2 1_555 1_555
H17_2 C27_2 1_555 1_555
C28_2 C27_2 1_555 1_555
H18_2 C28_2 1_555 1_555
C29_2 N4_2 1_555 1_555
C30_2 C29_2 1_555 1_555
H19_2 C30_2 1_555 1_555
C31_2 C26_2 1_555 1_555
H20_2 C31_2 1_555 1_555
C32_2 N4_2 1_555 1_555
C33_2 O10_2 1_555 1_555
C34_2 C33_2 1_555 1_555
C35_2 C34_2 1_555 1_555
H21_2 C35_2 1_555 1_555
C36_2 C35_2 1_555 1_555
H22_2 C36_2 1_555 1_555
C37_2 C36_2 1_555 1_555
C38_2 C37_2 1_555 1_555
H23_2 C38_2 1_555 1_555
C39_2 C34_2 1_555 1_555
H24_2 C39_2 1_555 1_555
C40_2 C37_2 1_555 1_555
O14_2 C41_2 1_555 1_555
O15_2 C41_2 1_555 1_555
N9_2 H25_2 1_555 1_555
N10_2 C48_2 1_555 1_555
C41_2 C42_2 1_555 1_555
C42_2 C43_2 1_555 1_555
C43_2 H26_2 1_555 1_555
C44_2 C43_2 1_555 1_555
H27_2 C44_2 1_555 1_555
C45_2 N9_2 1_555 1_555
C46_2 C45_2 1_555 1_555
H28_2 C46_2 1_555 1_555
C47_2 C42_2 1_555 1_555
H29_2 C47_2 1_555 1_555
C48_2 N5_2 1_555 1_555
O16_2 C49_2 1_555 1_555
O17_2 C49_2 1_555 1_555
N11_2 H30_2 1_555 1_555
N12_2 C32_2 1_555 1_555
C49_2 C50_2 1_555 1_555
C50_2 C51_2 1_555 1_555
C51_2 H31_2 1_555 1_555
C52_2 C51_2 1_555 1_555
H32_2 C52_2 1_555 1_555
C53_2 N11_2 1_555 1_555
C54_2 C53_2 1_555 1_555
H33_2 C54_2 1_555 1_555
C55_2 C50_2 1_555 1_555
H34_2 C55_2 1_555 1_555
C56_2 N10_2 1_555 1_555
Zn14 O15_2 1_555 1_555
Zn17 O18_2 1_555 1_555
Zn23 O18_2 1_555 1_555
Zn26_2 O14_2 1_555 1_555
O18_2 Zn14 1_555 1_555
O19_2 Zn26_2 1_555 1_555
O20_2 Zn17 1_555 1_555
O47 C71_2 1_555 1_555
O50 C71_2 1_555 1_555
O25_2 Zn14 1_555 1_555
O26_2 Zn17 1_555 1_555
N13_2 H35_2 1_555 1_555
N14_2 H36_2 1_555 1_555
N15_2 H37_2 1_555 1_555
C57_2 O19_2 1_555 1_555
C58_2 C57_2 1_555 1_555
C59_2 C58_2 1_555 1_555
H38_2 C59_2 1_555 1_555
C60_2 C59_2 1_555 1_555
H39_2 C60_2 1_555 1_555
C61_2 N13_2 1_555 1_555
C62_2 C61_2 1_555 1_555
H40_2 C62_2 1_555 1_555
C63_2 C58_2 1_555 1_555
H41_2 C63_2 1_555 1_555
C68_2 N14_2 1_555 1_555
C69_2 C68_2 1_555 1_555
H44_2 C69_2 1_555 1_555
C71_2 C72_2 1_555 1_555
C72_2 C73_2 1_555 1_555
C73_2 H46_2 1_555 1_555
C74_2 C73_2 1_555 1_555
H47_2 C74_2 1_555 1_555
C75_2 N15_2 1_555 1_555
C76_2 C75_2 1_555 1_555
H48_2 C76_2 1_555 1_555
C77_2 C72_2 1_555 1_555
H49_2 C77_2 1_555 1_555
C78_2 N15_2 1_555 1_555
N16_2 C78_2 1_555 1_555
C79_2 N13_2 1_555 1_555
N17_2 C79_2 1_555 1_555
C80_2 N14_2 1_555 1_555
N18_2 C78_2 1_555 1_555
C81_2 O25_2 1_555 1_555
C82_2 C81_2 1_555 1_555
C83_2 C82_2 1_555 1_555
H50_2 C83_2 1_555 1_555
C84_2 C83_2 1_555 1_555
H51_2 C84_2 1_555 1_555
Zn15 O17_2 1_555 1_555
Zn18 O29_2 1_555 1_555
Zn24 O29_2 1_555 1_555
Zn27_2 O16_2 1_555 1_555
O29_2 Zn15 1_555 1_555
O30_2 Zn27_2 1_555 1_555
O31_2 Zn18 1_555 1_555
O48 C103_2 1_555 1_555
O51 C103_2 1_555 1_555
O36_2 Zn15 1_555 1_555
O37_2 Zn18 1_555 1_555
N19_2 H54_2 1_555 1_555
N20_2 H55_2 1_555 1_555
N21_2 H56_2 1_555 1_555
C89_2 O30_2 1_555 1_555
C90_2 C89_2 1_555 1_555
C91_2 C90_2 1_555 1_555
H57_2 C91_2 1_555 1_555
C92_2 C91_2 1_555 1_555
H58_2 C92_2 1_555 1_555
C93_2 N19_2 1_555 1_555
C94_2 C93_2 1_555 1_555
H59_2 C94_2 1_555 1_555
C95_2 C90_2 1_555 1_555
H60_2 C95_2 1_555 1_555
C100_2 N20_2 1_555 1_555
C101_2 C100_2 1_555 1_555
H63_2 C101_2 1_555 1_555
C103_2 C104_2 1_555 1_555
C104_2 C105_2 1_555 1_555
C105_2 H65_2 1_555 1_555
C106_2 C105_2 1_555 1_555
H66_2 C106_2 1_555 1_555
C107_2 N21_2 1_555 1_555
C108_2 C107_2 1_555 1_555
H67_2 C108_2 1_555 1_555
C109_2 C104_2 1_555 1_555
H68_2 C109_2 1_555 1_555
C110_2 N21_2 1_555 1_555
N22_2 C110_2 1_555 1_555
C111_2 N19_2 1_555 1_555
N23_2 C111_2 1_555 1_555
C112_2 N20_2 1_555 1_555
N24_2 C110_2 1_555 1_555
C113_2 O36_2 1_555 1_555
C114_2 C113_2 1_555 1_555
C115_2 C114_2 1_555 1_555
H69_2 C115_2 1_555 1_555
C116_2 C115_2 1_555 1_555
H70_2 C116_2 1_555 1_555
O3_2 C1_2 1_555 1_555
O9_2 C25_2 1_555 1_555
O11_2 C33_2 1_555 1_555
C4_2 C5_2 1_555 1_555
C6_2 C7_2 1_555 1_555
C18_2 C19_2 1_555 1_555
C20_2 C21_2 1_555 1_555
N6_2 C23_2 1_555 1_555
N7_2 C24_2 1_555 1_555
C24_2 N8_2 1_555 1_555
C28_2 C29_2 1_555 1_555
C30_2 C31_2 1_555 1_555
C38_2 C39_2 1_555 1_555
N9_2 C48_2 1_555 1_555
C44_2 C45_2 1_555 1_555
C46_2 C47_2 1_555 1_555
N11_2 C56_2 1_555 1_555
N12_2 C56_2 1_555 1_555
C52_2 C53_2 1_555 1_555
C54_2 C55_2 1_555 1_555
Zn26_2 O18_2 1_555 1_555
O20_2 C57_2 1_555 1_555
O26_2 C81_2 1_555 1_555
C60_2 C61_2 1_555 1_555
C62_2 C63_2 1_555 1_555
C74_2 C75_2 1_555 1_555
C76_2 C77_2 1_555 1_555
N16_2 C79_2 1_555 1_555
N17_2 C80_2 1_555 1_555
C80_2 N18_2 1_555 1_555
Zn27_2 O29_2 1_555 1_555
O31_2 C89_2 1_555 1_555
O37_2 C113_2 1_555 1_555
C92_2 C93_2 1_555 1_555
C94_2 C95_2 1_555 1_555
C106_2 C107_2 1_555 1_555
C108_2 C109_2 1_555 1_555
N22_2 C111_2 1_555 1_555
N23_2 C112_2 1_555 1_555
C112_2 N24_2 1_555 1_555
O53 C88_2 1_555 1_555
O56 C88_2 1_555 1_555
C86_2 C85_2 1_555 1_555
H52_2 C86_2 1_555 1_555
H53_2 C87_2 1_555 1_555
C88_2 C85_2 1_555 1_555
C86_2 C87_2 1_555 1_555

#END
