
###############################################################################
#
# This file contains modified crystal structure data generated from the
# MOF subset of the Cambridge Structural Database (CSD) v543 
# hosted by the Cambridge Crystallographic Data Centre (CCDC).
#
# This work is licensed under the Creative Commons
# Attribution-NonCommercial-ShareAlike 4.0 International License.
# To view a copy of this license, visit
# http://creativecommons.org/licenses/by-nc-sa/4.0/
# or send a letter to
# Creative Commons, PO Box 1866, Mountain View, CA 94042, USA.
#
# CIF created using the CSD Python API on 29 September 2022
# The structure has been converted into the P1 space group
# The structure has a 3D framework
# The original CSD entry JEHBAC is in the hexagonal crystal system
# The original CSD entry JEHBAC is in a Sohncke space group
# The framework has been calculated to contain at least 10.0% void space
# The void calculation uses a probe of radius 1.32A, grid spacing 0.4
# The framework is charged, counterions have been retained in the structure
#
###############################################################################

data_JEHBAC
_chemical_formula_moiety         '(C276 H216 Mn12 O84 P6 11-)n'
_symmetry_cell_setting           triclinic
_symmetry_space_group_name_H-M   'P 1'
_symmetry_Int_Tables_number      1
_space_group_name_Hall           'P 1'
loop_
_symmetry_equiv_pos_site_id
_symmetry_equiv_pos_as_xyz
1 x,y,z
_cell_length_a                   27.1819(9)
_cell_length_b                   27.1819(9)
_cell_length_c                   22.9588(9)
_cell_angle_alpha                90
_cell_angle_beta                 90
_cell_angle_gamma                120
_cell_volume                     14690.6
loop_
_atom_site_label
_atom_site_type_symbol
_atom_site_fract_x
_atom_site_fract_y
_atom_site_fract_z
Mn1 Mn 0.58189(4) 0.16640(3) 0.84062(3)
P1 P 0.52717(3) 0.05435(7) 0.7500
O2 O 0.5015(2) 0.1394(2) 0.89141(18)
H1 H 0.4981 0.1552 0.9286
H2 H 0.4634 0.1096 0.8802
O3 O 0.54766(14) 0.08581(12) 0.80658(11)
O4 O 0.55257(14) 0.01249(12) 0.74011(12)
C3 C 0.7190(4) 0.1037(4) 0.8312(4)
C7 C 0.7537(4) 0.0780(5) 0.8165(5)
H6 H 0.7936 0.1006 0.8213
C12 C 0.6566(3) 0.0635(3) 0.8308(3)
H9 H 0.6312 0.0765 0.8417
C15 C 0.7390(4) 0.1618(4) 0.8559(5)
H11 H 0.7292 0.1586 0.8974
H12 H 0.7207 0.1798 0.8352
H13 H 0.7803 0.1850 0.8514
C21 C 0.6357(3) 0.0086(3) 0.8152(3)
C22 C 0.7341(5) 0.0283(5) 0.7981(9)
C23 C 0.7735(4) 0.0032(6) 0.7867(9)
H18 H 0.8122 0.0305 0.7993
O9 O 0.53815(18) 0.08581(12) 0.69342(11)
O10 O 0.45992(18) 0.01249(12) 0.75989(12)
C26 C 0.3847(6) 0.1037(4) 0.6688(4)
C30 C 0.3243(6) 0.0780(5) 0.6835(5)
H22 H 0.3070 0.1006 0.6787
C35 C 0.4069(4) 0.0635(3) 0.6692(3)
H25 H 0.4453 0.0765 0.6583
C38 C 0.4228(6) 0.1618(4) 0.6441(5)
H27 H 0.4294 0.1586 0.6026
H28 H 0.4591 0.1798 0.6648
H29 H 0.4047 0.1850 0.6486
C44 C 0.3729(4) 0.0086(3) 0.6848(3)
C45 C 0.2942(7) 0.0283(5) 0.7019(9)
C46 C 0.2297(7) 0.0032(6) 0.7133(9)
H34 H 0.2183 0.0305 0.7007
Mn8 Mn 0.58451(5) 0.16640(3) 0.65938(3)
O15 O 0.61070(28) 0.13930(19) 0.92123(15)
O17 O 0.64043(27) 0.22973(18) 0.90982(15)
O18 O 0.65133(18) 0.19383(27) 0.78104(14)
O21 O 0.5649(2) 0.22796(28) 0.80910(16)
O1 O 0.4714(2) 0.86070(19) 0.07877(15)
O5 O 0.4107(2) 0.77027(18) 0.09018(15)
C13 C 0.4459(3) 0.8092(3) 0.0603(2)
H14 H 0.4411 0.7203 0.0138
Mn2 Mn 0.41549(5) 0.83360(3) 0.15938(3)
O14 O 0.3621(3) 0.8606(2) 0.10859(18)
H35 H 0.3429 0.8448 0.0714
H36 H 0.3538 0.8904 0.1198
Mn3 Mn 0.41549(5) 0.58189(4) 0.00729(3)
O16 O 0.46185(18) 0.91419(12) 0.19342(11)
O19 O 0.4575(2) 0.80617(27) 0.21896(14)
O20 O 0.33694(19) 0.77204(28) 0.19090(16)
O6 O 0.4575(2) 0.65133(18) 0.94771(14)
O7 O 0.4351(2) 0.66306(19) 0.85757(16)
C1 C 0.3973(2) 0.8306(2) 0.8170(2)
H3 H 0.3758 0.8388 0.7881
H4 H 0.3819 0.8295 0.8559
H5 H 0.3940 0.7938 0.8083
C2 C 0.4809(3) 0.8314(2) 0.89903(19)
C4 C 0.4569(3) 0.7985(2) 0.99951(18)
C5 C 0.4485(3) 0.6794(3) 0.9092(2)
C6 C 0.4601(3) 0.7367(2) 0.9264(2)
C8 C 0.4732(3) 0.8410(2) 0.95645(19)
H7 H 0.4791 0.8773 0.9674
C9 C 0.6718(4) 0.9892(4) 0.7952(6)
H8 H 0.6567 0.9518 0.7800
C10 C 0.4601(2) 0.8773(2) 0.81503(18)
C11 C 0.4810(2) 0.9227(2) 0.77337(17)
C14 C 0.4711(3) 0.7788(2) 0.8830(2)
H10 H 0.4717 0.7702 0.8430
C16 C 0.4996(3) 0.8779(2) 0.85387(18)
C17 C 0.4513(3) 0.7487(2) 0.98475(19)
C18 C 0.5353(2) 0.9667(2) 0.77850(18)
C19 C 0.5748(3) 0.9660(2) 0.8151(2)
C20 C 0.5547(3) 0.9191(3) 0.85296(19)
H15 H 0.5806 0.9165 0.8787
H16 H 0.7735 0.9955 0.7450
H17 H 0.7595 0.9677 0.8086
O8 O 0.38930(28) 0.86070(19) 0.42123(15)
O11 O 0.35957(27) 0.77027(18) 0.40982(15)
O12 O 0.19383(27) 0.65133(18) 0.55229(14)
O13 O 0.22796(28) 0.66306(19) 0.64243(16)
C24 C 0.4333(3) 0.8306(2) 0.6830(2)
H19 H 0.4630 0.8388 0.7119
H20 H 0.4476 0.8295 0.6441
H21 H 0.3998 0.7938 0.6917
C25 C 0.3505(4) 0.8314(2) 0.60097(19)
C27 C 0.3416(4) 0.7985(2) 0.50049(18)
C28 C 0.2309(4) 0.6794(3) 0.5908(2)
C29 C 0.2766(4) 0.7367(2) 0.5736(2)
C31 C 0.3678(4) 0.8410(2) 0.54355(19)
H23 H 0.3982 0.8773 0.5326
C32 C 0.3174(6) 0.9892(4) 0.7048(6)
H24 H 0.2951 0.9518 0.7200
C33 C 0.4172(3) 0.8773(2) 0.68497(18)
C34 C 0.4417(3) 0.9227(2) 0.72663(17)
C36 C 0.3633(4) 0.8092(3) 0.4397(2)
C37 C 0.3077(4) 0.7788(2) 0.6170(2)
H26 H 0.2985 0.7702 0.6570
C39 C 0.3783(4) 0.8779(2) 0.64613(18)
C40 C 0.2974(4) 0.7487(2) 0.51525(19)
H30 H 0.2792 0.7203 0.4862
C41 C 0.4314(3) 0.9667(2) 0.72150(18)
C42 C 0.3912(4) 0.9660(2) 0.6849(2)
C43 C 0.3644(4) 0.9191(3) 0.64704(19)
H31 H 0.3359 0.9165 0.6213
H32 H 0.2220 0.9955 0.7550
H33 H 0.2082 0.9677 0.6914
Mn4 Mn 0.41811(4) 0.83360(3) 0.34062(3)
Mn5 Mn 0.16640(3) 0.58451(5) 0.67395(3)
Mn6 Mn 0.41811(4) 0.58451(5) 0.82605(3)
Mn7 Mn 0.16640(3) 0.58189(4) 0.49271(3)
O1_2 O 0.61070(28) 0.4714(2) 0.24544(15)
O2_2 O 0.3621(3) 0.5015(2) 0.05808(18)
H1_2 H 0.3429 0.4981 0.0953
H2_2 H 0.3538 0.4634 0.0469
O5_2 O 0.64043(27) 0.4107(2) 0.25685(15)
O6_2 O 0.80617(27) 0.4575(2) 0.11438(14)
O7_2 O 0.77204(28) 0.4351(2) 0.02424(16)
H4_2 H 0.5524 0.3819 0.0226
C2_2 C 0.6495(4) 0.4809(3) 0.06570(19)
C4_2 C 0.6584(4) 0.4569(3) 0.16618(18)
C5_2 C 0.7691(4) 0.4485(3) 0.0759(2)
C6_2 C 0.7234(4) 0.4601(3) 0.0931(2)
C8_2 C 0.6322(4) 0.4732(3) 0.12312(19)
H7_2 H 0.6018 0.4791 0.1341
H9_2 H 0.5547 0.6312 0.0084
C13_2 C 0.6367(4) 0.4459(3) 0.2270(2)
C14_2 C 0.6923(4) 0.4711(3) 0.0497(2)
H10_2 H 0.7015 0.4717 0.0097
C15_2 C 0.5772(6) 0.7390(4) 0.0226(5)
H11_2 H 0.5706 0.7292 0.0641
H12_2 H 0.5409 0.7207 0.0019
H13_2 H 0.5953 0.7803 0.0181
C16_2 C 0.6217(4) 0.4996(3) 0.02054(18)
C17_2 C 0.7026(4) 0.4513(3) 0.15142(19)
H14_2 H 0.7208 0.4411 0.1805
C20_2 C 0.6356(4) 0.5547(3) 0.01963(19)
H15_2 H 0.6641 0.5806 0.0454
Mn2_2 Mn 0.58189(6) 0.41549(5) 0.32605(3)
O14_2 O 0.5015(4) 0.3621(3) 0.27526(18)
H35_2 H 0.4981 0.3429 0.2381
H36_2 H 0.4634 0.3538 0.2865
Mn3_2 Mn 0.83360(6) 0.41549(5) 0.17395(3)
O15_2 O 0.47140(34) 0.61070(28) 0.08790(15)
O16_2 O 0.54766(22) 0.46185(18) 0.36009(11)
O17_2 O 0.41070(32) 0.64043(27) 0.07649(15)
O19_2 O 0.65133(34) 0.4575(2) 0.38562(14)
O20_2 O 0.56490(34) 0.33694(19) 0.35757(16)
P1_2 P 0.47282(8) 0.52717(3) 0.9167
O3_2 O 0.46185(18) 0.54766(14) 0.97325(11)
O4_2 O 0.54008(18) 0.55257(14) 0.90678(12)
C1_2 C 0.5667(3) 0.3973(2) 0.9837(2)
H3_2 H 0.5370 0.3758 0.9548
H5_2 H 0.6002 0.3940 0.9750
C3_2 C 0.6153(6) 0.7190(4) 0.9979(4)
C7_2 C 0.6757(6) 0.7537(4) 0.9832(5)
H6_2 H 0.6930 0.7936 0.9880
C9_2 C 0.6826(6) 0.6718(4) 0.9619(6)
H8_2 H 0.7049 0.6567 0.9467
C10_2 C 0.5828(3) 0.4601(2) 0.98170(18)
C11_2 C 0.5583(3) 0.4810(2) 0.94004(17)
C12_2 C 0.5931(4) 0.6566(3) 0.9975(3)
C18_2 C 0.5686(3) 0.5353(2) 0.94517(18)
C19_2 C 0.6088(4) 0.5748(3) 0.9818(2)
C21_2 C 0.6271(4) 0.6357(3) 0.9819(3)
C22_2 C 0.7058(7) 0.7341(5) 0.9648(9)
C23_2 C 0.7703(7) 0.7735(4) 0.9534(9)
H16_2 H 0.7780 0.7735 0.9117
H17_2 H 0.7918 0.7595 0.9753
H18_2 H 0.7817 0.8122 0.9660
O8_2 O 0.52860(34) 0.38930(28) 0.58790(15)
O9_2 O 0.45234(22) 0.53815(18) 0.86009(11)
O10_2 O 0.44743(22) 0.45992(18) 0.92656(12)
O11_2 O 0.58930(32) 0.35957(27) 0.57649(15)
O12_2 O 0.54250(32) 0.19383(27) 0.71896(14)
C24_2 C 0.6027(4) 0.4333(3) 0.8497(2)
H19_2 H 0.6242 0.4630 0.8786
H20_2 H 0.6181 0.4476 0.8108
H21_2 H 0.6060 0.3998 0.8584
C25_2 C 0.5191(4) 0.3505(4) 0.76764(19)
C26_2 C 0.2810(7) 0.3847(6) 0.8355(4)
C27_2 C 0.5431(4) 0.3416(4) 0.66716(18)
C28_2 C 0.5515(5) 0.2309(4) 0.7575(2)
C29_2 C 0.5399(4) 0.2766(4) 0.7403(2)
C30_2 C 0.2463(8) 0.3243(6) 0.8502(5)
H22_2 H 0.2064 0.3070 0.8454
C31_2 C 0.5268(4) 0.3678(4) 0.71022(19)
H23_2 H 0.5209 0.3982 0.6993
C32_2 C 0.3282(7) 0.3174(6) 0.8715(6)
H24_2 H 0.3433 0.2951 0.8867
C33_2 C 0.5399(4) 0.4172(3) 0.85164(18)
C34_2 C 0.5190(4) 0.4417(3) 0.89330(17)
C35_2 C 0.3434(5) 0.4069(4) 0.8359(3)
H25_2 H 0.3688 0.4453 0.8250
C36_2 C 0.5541(5) 0.3633(4) 0.6064(2)
C37_2 C 0.5289(4) 0.3077(4) 0.7837(2)
H26_2 H 0.5283 0.2985 0.8237
C38_2 C 0.2610(7) 0.4228(6) 0.8108(5)
H27_2 H 0.2708 0.4294 0.7693
H28_2 H 0.2793 0.4591 0.8315
H29_2 H 0.2197 0.4047 0.8153
C39_2 C 0.5004(4) 0.3783(4) 0.81280(18)
C40_2 C 0.5487(4) 0.2974(4) 0.68192(19)
H30_2 H 0.5589 0.2792 0.6529
C41_2 C 0.4647(4) 0.4314(3) 0.88817(18)
C42_2 C 0.4252(4) 0.3912(4) 0.8516(2)
C43_2 C 0.4453(5) 0.3644(4) 0.81371(19)
H31_2 H 0.4194 0.3359 0.7880
C44_2 C 0.3643(5) 0.3729(4) 0.8515(3)
C45_2 C 0.2659(9) 0.2942(7) 0.8686(9)
C46_2 C 0.2265(9) 0.2297(7) 0.8800(9)
H32_2 H 0.2265 0.2220 0.9217
H33_2 H 0.2405 0.2082 0.8581
H34_2 H 0.1878 0.2183 0.8674
Mn4_2 Mn 0.58451(5) 0.41811(4) 0.50729(3)
Mn6_2 Mn 0.83360(6) 0.41811(4) 0.99271(3)
O21_2 O 0.33694(34) 0.5649(2) 0.97576(16)
O1_3 O 0.13930(19) 0.61070(28) 0.41210(15)
O5_3 O 0.22973(18) 0.64043(27) 0.42351(15)
O6_3 O 0.34867(18) 0.80617(27) 0.28104(14)
C1_3 C 0.1694(2) 0.5667(3) 0.1503(2)
H3_3 H 0.1612 0.5370 0.1214
H4_3 H 0.1705 0.5524 0.1892
H5_3 H 0.2062 0.6002 0.1416
C2_3 C 0.1686(2) 0.6495(4) 0.23236(19)
C4_3 C 0.2015(2) 0.6584(4) 0.33284(18)
C5_3 C 0.3206(3) 0.7691(4) 0.2425(2)
C6_3 C 0.2633(2) 0.7234(4) 0.2597(2)
C8_3 C 0.1590(2) 0.6322(4) 0.28978(19)
H7_3 H 0.1227 0.6018 0.3007
C9_3 C 0.0108(4) 0.6826(6) 0.1285(6)
H8_3 H 0.0482 0.7049 0.1133
C10_3 C 0.1227(2) 0.5828(3) 0.14836(18)
C11_3 C 0.0773(2) 0.5583(3) 0.10670(17)
C13_3 C 0.1908(3) 0.6367(4) 0.3936(2)
C14_3 C 0.2212(2) 0.6923(4) 0.2163(2)
H10_3 H 0.2298 0.7015 0.1763
C16_3 C 0.1221(2) 0.6217(4) 0.18720(18)
C17_3 C 0.2513(2) 0.7026(4) 0.31808(19)
H14_3 H 0.2797 0.7208 0.3471
C18_3 C 0.0333(2) 0.5686(3) 0.11183(18)
C19_3 C 0.0340(2) 0.6088(4) 0.1484(2)
C20_3 C 0.0809(3) 0.6356(4) 0.18629(19)
H15_3 H 0.0835 0.6641 0.2120
H16_3 H 0.0045 0.7780 0.0783
H17_3 H 0.0323 0.7918 0.1419
C24_3 C 0.1694(2) 0.6027(4) 0.0163(2)
H19_3 H 0.1612 0.6242 0.0452
H21_3 H 0.2062 0.6060 0.0250
C32_3 C 0.0108(4) 0.3282(7) 0.0381(6)
H24_3 H 0.0482 0.3433 0.0533
C33_3 C 0.1227(2) 0.5399(4) 0.01830(18)
C34_3 C 0.0773(2) 0.5190(4) 0.05996(17)
C41_3 C 0.0333(2) 0.4647(4) 0.05483(18)
C42_3 C 0.0340(2) 0.4252(4) 0.0182(2)
H32_3 H 0.0045 0.2265 0.0883
H33_3 H 0.0323 0.2405 0.0247
O14_3 O 0.1394(2) 0.5015(4) 0.44192(18)
H35_3 H 0.1552 0.4981 0.4047
H36_3 H 0.1096 0.4634 0.4531
O16_3 O 0.08581(12) 0.54766(22) 0.52675(11)
O20_3 O 0.22796(28) 0.56490(34) 0.52424(16)
O8_3 O 0.13930(19) 0.52860(34) 0.75456(15)
O11_3 O 0.22973(18) 0.58930(32) 0.74315(15)
O12_3 O 0.34867(18) 0.54250(32) 0.88562(14)
H20_3 H 0.1705 0.6181 0.9774
C25_3 C 0.1686(2) 0.5191(4) 0.93430(19)
C27_3 C 0.2015(2) 0.5431(4) 0.83382(18)
C28_3 C 0.3206(3) 0.5515(5) 0.9241(2)
C29_3 C 0.2633(2) 0.5399(4) 0.9069(2)
C31_3 C 0.1590(2) 0.5268(4) 0.87688(19)
H23_3 H 0.1227 0.5209 0.8659
C36_3 C 0.1908(3) 0.5541(5) 0.7730(2)
C37_3 C 0.2212(2) 0.5289(4) 0.9503(2)
H26_3 H 0.2298 0.5283 0.9903
C39_3 C 0.1221(2) 0.5004(4) 0.97946(18)
C40_3 C 0.2513(2) 0.5487(4) 0.84858(19)
H30_3 H 0.2797 0.5589 0.8195
C43_3 C 0.0809(3) 0.4453(5) 0.98037(19)
H31_3 H 0.0835 0.4194 0.9546
P1_3 P 0.94565(7) 0.47282(8) 0.0833
O2_3 O 0.8606(2) 0.3621(3) 0.22474(18)
H1_3 H 0.8448 0.3429 0.2619
H2_3 H 0.8904 0.3538 0.2135
O3_3 O 0.91419(12) 0.46185(18) 0.13991(11)
O4_3 O 0.98751(12) 0.54008(18) 0.07344(12)
C3_3 C 0.8963(4) 0.6153(6) 0.1645(4)
C7_3 C 0.9220(5) 0.6757(6) 0.1498(5)
H6_3 H 0.8994 0.6930 0.1546
C12_3 C 0.9365(3) 0.5931(4) 0.1641(3)
H9_3 H 0.9235 0.5547 0.1750
C15_3 C 0.8382(4) 0.5772(6) 0.1892(5)
H11_3 H 0.8414 0.5706 0.2307
H12_3 H 0.8202 0.5409 0.1685
H13_3 H 0.8150 0.5953 0.1847
C21_3 C 0.9914(3) 0.6271(4) 0.1485(3)
C22_3 C 0.9717(5) 0.7058(7) 0.1314(9)
C23_3 C 0.9968(6) 0.7703(7) 0.1200(9)
H18_3 H 0.9695 0.7817 0.1326
O9_3 O 0.91419(12) 0.45234(22) 0.02675(11)
O10_3 O 0.98751(12) 0.44743(22) 0.09322(12)
C26_3 C 0.8963(4) 0.2810(7) 0.0021(4)
C30_3 C 0.9220(5) 0.2463(8) 0.0168(5)
H22_3 H 0.8994 0.2064 0.0120
C35_3 C 0.9365(3) 0.3434(5) 0.0025(3)
C44_3 C 0.9914(3) 0.3643(5) 0.0181(3)
C45_3 C 0.9717(5) 0.2659(9) 0.0352(9)
C46_3 C 0.9968(6) 0.2265(9) 0.0466(9)
H34_3 H 0.9695 0.1878 0.0340
O15_3 O 0.86070(19) 0.47140(34) 0.25456(15)
O17_3 O 0.77027(18) 0.41070(32) 0.24315(15)
O21_3 O 0.77204(28) 0.33694(34) 0.14243(16)
H25_3 H 0.9235 0.3688 0.9916
C38_3 C 0.8382(4) 0.2610(7) 0.9774(5)
H27_3 H 0.8414 0.2708 0.9359
H28_3 H 0.8202 0.2793 0.9981
H29_3 H 0.8150 0.2197 0.9819
O1_4 O 0.5286(2) 0.13930(19) 0.57877(15)
O5_4 O 0.5893(2) 0.22973(18) 0.59018(15)
O6_4 O 0.5425(2) 0.34867(18) 0.44771(14)
C1_4 C 0.6027(2) 0.1694(2) 0.3170(2)
H3_4 H 0.6242 0.1612 0.2881
H4_4 H 0.6181 0.1705 0.3559
H5_4 H 0.6060 0.2062 0.3083
C2_4 C 0.5191(3) 0.1686(2) 0.39903(19)
C4_4 C 0.5431(3) 0.2015(2) 0.49951(18)
C5_4 C 0.5515(3) 0.3206(3) 0.4092(2)
C6_4 C 0.5399(3) 0.2633(2) 0.4264(2)
C8_4 C 0.5268(3) 0.1590(2) 0.45645(19)
H7_4 H 0.5209 0.1227 0.4674
C9_4 C 0.3282(4) 0.0108(4) 0.2952(6)
H8_4 H 0.3433 0.0482 0.2800
C10_4 C 0.5399(2) 0.1227(2) 0.31503(18)
C11_4 C 0.5190(2) 0.0773(2) 0.27337(17)
C13_4 C 0.5541(3) 0.1908(3) 0.5603(2)
C14_4 C 0.5289(3) 0.2212(2) 0.3830(2)
H10_4 H 0.5283 0.2298 0.3430
C16_4 C 0.5004(3) 0.1221(2) 0.35387(18)
C17_4 C 0.5487(3) 0.2513(2) 0.48475(19)
H14_4 H 0.5589 0.2797 0.5138
C18_4 C 0.4647(2) 0.0333(2) 0.27850(18)
C19_4 C 0.4252(3) 0.0340(2) 0.3151(2)
C20_4 C 0.4453(3) 0.0809(3) 0.35296(19)
H15_4 H 0.4194 0.0835 0.3787
H16_4 H 0.2265 0.0045 0.2450
H17_4 H 0.2405 0.0323 0.3086
O12_4 O 0.80617(27) 0.34867(18) 0.05229(14)
C24_4 C 0.5667(3) 0.1694(2) 0.1830(2)
H19_4 H 0.5370 0.1612 0.2119
H20_4 H 0.5524 0.1705 0.1441
H21_4 H 0.6002 0.2062 0.1917
C25_4 C 0.6495(4) 0.1686(2) 0.10097(19)
C27_4 C 0.6584(4) 0.2015(2) 0.00049(18)
C28_4 C 0.7691(4) 0.3206(3) 0.0908(2)
C29_4 C 0.7234(4) 0.2633(2) 0.0736(2)
C31_4 C 0.6322(4) 0.1590(2) 0.04355(19)
H23_4 H 0.6018 0.1227 0.0326
C32_4 C 0.6826(6) 0.0108(4) 0.2048(6)
H24_4 H 0.7049 0.0482 0.2200
C33_4 C 0.5828(3) 0.1227(2) 0.18497(18)
C34_4 C 0.5583(3) 0.0773(2) 0.22663(17)
C37_4 C 0.6923(4) 0.2212(2) 0.1170(2)
H26_4 H 0.7015 0.2298 0.1570
C39_4 C 0.6217(4) 0.1221(2) 0.14613(18)
C40_4 C 0.7026(4) 0.2513(2) 0.01525(19)
C41_4 C 0.5686(3) 0.0333(2) 0.22150(18)
C42_4 C 0.6088(4) 0.0340(2) 0.1849(2)
C43_4 C 0.6356(4) 0.0809(3) 0.14704(19)
H31_4 H 0.6641 0.0835 0.1213
H32_4 H 0.7780 0.0045 0.2550
H33_4 H 0.7918 0.0323 0.1914
O14_4 O 0.6379(3) 0.1394(2) 0.60859(18)
H35_4 H 0.6571 0.1552 0.5714
H36_4 H 0.6462 0.1096 0.6198
O20_4 O 0.66306(19) 0.22796(28) 0.69090(16)
C36_4 C 0.6367(4) 0.1908(3) 0.9397(2)
H30_4 H 0.7208 0.2797 0.9862
P1_4 P 0.47283(3) 0.94565(7) 0.2500
O2_4 O 0.4985(2) 0.8606(2) 0.39141(18)
H1_4 H 0.5019 0.8448 0.4286
H2_4 H 0.5366 0.8904 0.3802
O3_4 O 0.45234(14) 0.91419(12) 0.30658(11)
O4_4 O 0.44743(14) 0.98751(12) 0.24011(12)
C3_4 C 0.2810(4) 0.8963(4) 0.3312(4)
C7_4 C 0.2463(4) 0.9220(5) 0.3165(5)
H6_4 H 0.2064 0.8994 0.3213
C12_4 C 0.3434(3) 0.9365(3) 0.3308(3)
H9_4 H 0.3688 0.9235 0.3417
C15_4 C 0.2610(4) 0.8382(4) 0.3559(5)
H11_4 H 0.2708 0.8414 0.3974
H12_4 H 0.2793 0.8202 0.3352
H13_4 H 0.2197 0.8150 0.3514
C21_4 C 0.3643(3) 0.9914(3) 0.3152(3)
C22_4 C 0.2659(5) 0.9717(5) 0.2981(9)
C23_4 C 0.2265(4) 0.9968(6) 0.2867(9)
H18_4 H 0.1878 0.9695 0.2993
O10_4 O 0.54008(18) 0.98751(12) 0.25989(12)
C26_4 C 0.6153(6) 0.8963(4) 0.1688(4)
C30_4 C 0.6757(6) 0.9220(5) 0.1835(5)
H22_4 H 0.6930 0.8994 0.1787
C35_4 C 0.5931(4) 0.9365(3) 0.1692(3)
H25_4 H 0.5547 0.9235 0.1583
C38_4 C 0.5772(6) 0.8382(4) 0.1441(5)
H27_4 H 0.5706 0.8414 0.1026
H28_4 H 0.5409 0.8202 0.1648
H29_4 H 0.5953 0.8150 0.1486
C44_4 C 0.6271(4) 0.9914(3) 0.1848(3)
C45_4 C 0.7058(7) 0.9717(5) 0.2019(9)
C46_4 C 0.7703(7) 0.9968(6) 0.2133(9)
H34_4 H 0.7817 0.9695 0.2007
O21_4 O 0.4351(2) 0.77204(28) 0.30910(16)
P1_5 P 0.52718(8) 0.47283(3) 0.4167
O1_5 O 0.38930(28) 0.5286(2) 0.74544(15)
O2_5 O 0.6379(3) 0.4985(2) 0.55808(18)
H1_5 H 0.6571 0.5019 0.5953
H2_5 H 0.6462 0.5366 0.5469
O3_5 O 0.53815(18) 0.45234(14) 0.47325(11)
O4_5 O 0.45992(18) 0.44743(14) 0.40678(12)
O5_5 O 0.35957(27) 0.5893(2) 0.75685(15)
O6_5 O 0.19383(27) 0.5425(2) 0.61438(14)
C1_5 C 0.4333(3) 0.6027(2) 0.4837(2)
H3_5 H 0.4630 0.6242 0.4548
H4_5 H 0.4476 0.6181 0.5226
H5_5 H 0.3998 0.6060 0.4750
C2_5 C 0.3505(4) 0.5191(3) 0.56570(19)
C3_5 C 0.3847(6) 0.2810(4) 0.4979(4)
C4_5 C 0.3416(4) 0.5431(3) 0.66618(18)
C5_5 C 0.2309(4) 0.5515(3) 0.5759(2)
C6_5 C 0.2766(4) 0.5399(3) 0.5931(2)
C7_5 C 0.3243(6) 0.2463(4) 0.4832(5)
H6_5 H 0.3070 0.2064 0.4880
C8_5 C 0.3678(4) 0.5268(3) 0.62312(19)
H7_5 H 0.3982 0.5209 0.6341
C9_5 C 0.3174(6) 0.3282(4) 0.4619(6)
H8_5 H 0.2951 0.3433 0.4467
C10_5 C 0.4172(3) 0.5399(2) 0.48170(18)
C11_5 C 0.4417(3) 0.5190(2) 0.44004(17)
C12_5 C 0.4069(4) 0.3434(3) 0.4975(3)
H9_5 H 0.4453 0.3688 0.5084
C13_5 C 0.3633(4) 0.5541(3) 0.7270(2)
C14_5 C 0.3077(4) 0.5289(3) 0.5497(2)
H10_5 H 0.2985 0.5283 0.5097
C15_5 C 0.4228(6) 0.2610(4) 0.5226(5)
H11_5 H 0.4294 0.2708 0.5641
H12_5 H 0.4591 0.2793 0.5019
H13_5 H 0.4047 0.2197 0.5181
C16_5 C 0.3783(4) 0.5004(3) 0.52054(18)
C17_5 C 0.2974(4) 0.5487(3) 0.65142(19)
H14_5 H 0.2792 0.5589 0.6805
C18_5 C 0.4314(3) 0.4647(2) 0.44517(18)
C19_5 C 0.3912(4) 0.4252(3) 0.4818(2)
C20_5 C 0.3644(4) 0.4453(3) 0.51963(19)
H15_5 H 0.3359 0.4194 0.5454
C21_5 C 0.3729(4) 0.3643(3) 0.4819(3)
C22_5 C 0.2942(7) 0.2659(5) 0.4648(9)
C23_5 C 0.2297(7) 0.2265(4) 0.4534(9)
H16_5 H 0.2220 0.2265 0.4117
H17_5 H 0.2082 0.2405 0.4753
H18_5 H 0.2183 0.1878 0.4660
O10_5 O 0.55257(22) 0.54008(18) 0.42656(12)
C24_5 C 0.3973(4) 0.5667(3) 0.3497(2)
H19_5 H 0.3758 0.5370 0.3786
H20_5 H 0.3819 0.5524 0.3108
H21_5 H 0.3940 0.6002 0.3584
C25_5 C 0.4809(4) 0.6495(4) 0.26764(19)
C26_5 C 0.7190(7) 0.6153(6) 0.3355(4)
C27_5 C 0.4569(4) 0.6584(4) 0.16716(18)
C28_5 C 0.4485(5) 0.7691(4) 0.2575(2)
C29_5 C 0.4601(4) 0.7234(4) 0.2403(2)
C30_5 C 0.7537(8) 0.6757(6) 0.3502(5)
H22_5 H 0.7936 0.6930 0.3454
C31_5 C 0.4732(4) 0.6322(4) 0.21022(19)
H23_5 H 0.4791 0.6018 0.1993
C32_5 C 0.6718(7) 0.6826(6) 0.3715(6)
H24_5 H 0.6567 0.7049 0.3867
C33_5 C 0.4601(4) 0.5828(3) 0.35164(18)
C34_5 C 0.4810(4) 0.5583(3) 0.39330(17)
C35_5 C 0.6566(5) 0.5931(4) 0.3359(3)
H25_5 H 0.6312 0.5547 0.3250
C36_5 C 0.4459(5) 0.6367(4) 0.1064(2)
C37_5 C 0.4711(4) 0.6923(4) 0.2837(2)
H26_5 H 0.4717 0.7015 0.3237
C38_5 C 0.7390(7) 0.5772(6) 0.3108(5)
H27_5 H 0.7292 0.5706 0.2693
H28_5 H 0.7207 0.5409 0.3315
H29_5 H 0.7803 0.5953 0.3153
C39_5 C 0.4996(4) 0.6217(4) 0.31280(18)
C40_5 C 0.4513(4) 0.7026(4) 0.18192(19)
H30_5 H 0.4411 0.7208 0.1529
C41_5 C 0.5353(4) 0.5686(3) 0.38817(18)
C42_5 C 0.5748(4) 0.6088(4) 0.3516(2)
C43_5 C 0.5547(5) 0.6356(4) 0.31371(19)
H31_5 H 0.5806 0.6641 0.2880
C44_5 C 0.6357(5) 0.6271(4) 0.3515(3)
C45_5 C 0.7341(9) 0.7058(7) 0.3686(9)
C46_5 C 0.7735(9) 0.7703(7) 0.3800(9)
H32_5 H 0.7735 0.7780 0.4217
H33_5 H 0.7595 0.7918 0.3581
H34_5 H 0.8122 0.7817 0.3674
O14_5 O 0.4985(4) 0.6379(3) 0.77526(18)
H35_5 H 0.5019 0.6571 0.7381
H36_5 H 0.5366 0.6462 0.7865
O21_5 O 0.66306(34) 0.4351(2) 0.47576(16)
P1_6 P 0.05435(7) 0.52718(8) 0.5833
O2_6 O 0.1394(2) 0.6379(3) 0.72474(18)
H1_6 H 0.1552 0.6571 0.7619
H2_6 H 0.1096 0.6462 0.7135
O3_6 O 0.08581(12) 0.53815(18) 0.63991(11)
O4_6 O 0.01249(12) 0.45992(18) 0.57344(12)
C3_6 C 0.1037(4) 0.3847(6) 0.6645(4)
C7_6 C 0.0780(5) 0.3243(6) 0.6498(5)
H6_6 H 0.1006 0.3070 0.6546
C12_6 C 0.0635(3) 0.4069(4) 0.6641(3)
H9_6 H 0.0765 0.4453 0.6750
C15_6 C 0.1618(4) 0.4228(6) 0.6892(5)
H11_6 H 0.1586 0.4294 0.7307
H12_6 H 0.1798 0.4591 0.6685
H13_6 H 0.1850 0.4047 0.6847
C21_6 C 0.0086(3) 0.3729(4) 0.6485(3)
C22_6 C 0.0283(5) 0.2942(7) 0.6314(9)
C23_6 C 0.0032(6) 0.2297(7) 0.6200(9)
H18_6 H 0.0305 0.2183 0.6326
O10_6 O 0.01249(12) 0.55257(22) 0.59322(12)
C26_6 C 0.1037(4) 0.7190(7) 0.5021(4)
C30_6 C 0.0780(5) 0.7537(8) 0.5168(5)
H22_6 H 0.1006 0.7936 0.5120
C35_6 C 0.0635(3) 0.6566(5) 0.5025(3)
H25_6 H 0.0765 0.6312 0.4916
C38_6 C 0.1618(4) 0.7390(7) 0.4774(5)
H27_6 H 0.1586 0.7292 0.4359
H28_6 H 0.1798 0.7207 0.4981
H29_6 H 0.1850 0.7803 0.4819
C44_6 C 0.0086(3) 0.6357(5) 0.5181(3)
C45_6 C 0.0283(5) 0.7341(9) 0.5352(9)
C46_6 C 0.0032(6) 0.7735(9) 0.5466(9)
H34_6 H 0.0305 0.8122 0.5340
O1_6 O 0.86070(19) 0.38930(28) 0.91210(15)
O5_6 O 0.77027(18) 0.35957(27) 0.92351(15)
C1_6 C 0.8306(2) 0.4333(3) 0.6503(2)
H3_6 H 0.8388 0.4630 0.6214
H4_6 H 0.8295 0.4476 0.6892
H5_6 H 0.7938 0.3998 0.6416
C2_6 C 0.8314(2) 0.3505(4) 0.73236(19)
C4_6 C 0.7985(2) 0.3416(4) 0.83284(18)
C5_6 C 0.6794(3) 0.2309(4) 0.7425(2)
C6_6 C 0.7367(2) 0.2766(4) 0.7597(2)
C8_6 C 0.8410(2) 0.3678(4) 0.78978(19)
H7_6 H 0.8773 0.3982 0.8007
C9_6 C 0.9892(4) 0.3174(6) 0.6285(6)
H8_6 H 0.9518 0.2951 0.6133
C10_6 C 0.8773(2) 0.4172(3) 0.64836(18)
C11_6 C 0.9227(2) 0.4417(3) 0.60670(17)
C13_6 C 0.8092(3) 0.3633(4) 0.8936(2)
C14_6 C 0.7788(2) 0.3077(4) 0.7163(2)
H10_6 H 0.7702 0.2985 0.6763
C16_6 C 0.8779(2) 0.3783(4) 0.68720(18)
C17_6 C 0.7487(2) 0.2974(4) 0.81808(19)
H14_6 H 0.7203 0.2792 0.8471
C18_6 C 0.9667(2) 0.4314(3) 0.61183(18)
C19_6 C 0.9660(2) 0.3912(4) 0.6484(2)
C20_6 C 0.9191(3) 0.3644(4) 0.68629(19)
H15_6 H 0.9165 0.3359 0.7120
H16_6 H 0.9955 0.2220 0.5783
H17_6 H 0.9677 0.2082 0.6419
C24_6 C 0.8306(2) 0.3973(4) 0.5163(2)
H19_6 H 0.8388 0.3758 0.5452
H20_6 H 0.8295 0.3819 0.4774
H21_6 H 0.7938 0.3940 0.5250
C25_6 C 0.8314(2) 0.4809(4) 0.43430(19)
C27_6 C 0.7985(2) 0.4569(4) 0.33382(18)
C28_6 C 0.6794(3) 0.4485(5) 0.4241(2)
C29_6 C 0.7367(2) 0.4601(4) 0.4069(2)
C31_6 C 0.8410(2) 0.4732(4) 0.37688(19)
H23_6 H 0.8773 0.4791 0.3659
C32_6 C 0.9892(4) 0.6718(7) 0.5381(6)
H24_6 H 0.9518 0.6567 0.5533
C33_6 C 0.8773(2) 0.4601(4) 0.51830(18)
C34_6 C 0.9227(2) 0.4810(4) 0.55996(17)
C36_6 C 0.8092(3) 0.4459(5) 0.2730(2)
C37_6 C 0.7788(2) 0.4711(4) 0.4503(2)
H26_6 H 0.7702 0.4717 0.4903
C39_6 C 0.8779(2) 0.4996(4) 0.47946(18)
C40_6 C 0.7487(2) 0.4513(4) 0.34858(19)
H30_6 H 0.7203 0.4411 0.3195
C41_6 C 0.9667(2) 0.5353(4) 0.55483(18)
C42_6 C 0.9660(2) 0.5748(4) 0.5182(2)
C43_6 C 0.9191(3) 0.5547(5) 0.48037(19)
H31_6 H 0.9165 0.5806 0.4546
H32_6 H 0.9955 0.7735 0.5883
H33_6 H 0.9677 0.7595 0.5247
O14_6 O 0.8606(2) 0.4985(4) 0.94192(18)
H35_6 H 0.8448 0.5019 0.9047
H36_6 H 0.8904 0.5366 0.9531
loop_
_geom_bond_atom_site_label_1
_geom_bond_atom_site_label_2
_geom_bond_site_symmetry_1
_geom_bond_site_symmetry_2
Mn1 O2 1_555 1_555
P1 O3 1_555 1_555
O2 H1 1_555 1_555
H2 O2 1_555 1_555
O3 Mn1 1_555 1_555
O4 P1 1_555 1_555
C3 C7 1_555 1_555
C7 H6 1_555 1_555
C12 C3 1_555 1_555
H9 C12 1_555 1_555
C15 C3 1_555 1_555
H11 C15 1_555 1_555
H12 C15 1_555 1_555
H13 C15 1_555 1_555
C22 C7 1_555 1_555
C23 C22 1_555 1_555
H18 C23 1_555 1_555
O9 P1 1_555 1_555
O10 P1 1_555 1_555
C26 C30 1_555 1_555
C30 H22 1_555 1_555
C35 C26 1_555 1_555
H25 C35 1_555 1_555
C38 C26 1_555 1_555
H27 C38 1_555 1_555
H28 C38 1_555 1_555
H29 C38 1_555 1_555
C45 C30 1_555 1_555
C46 C45 1_555 1_555
H34 C46 1_555 1_555
Mn8 O9 1_555 1_555
O15 Mn1 1_555 1_555
O17 Mn1 1_555 1_555
O18 Mn1 1_555 1_555
O21 Mn1 1_555 1_555
C12 C21 1_555 1_555
C35 C44 1_555 1_555
O1 C13 1_555 1_555
O5 C13 1_555 1_555
Mn2 O1 1_555 1_555
O14 Mn2 1_555 1_555
H35 O14 1_555 1_555
H36 O14 1_555 1_555
O16 Mn2 1_555 1_555
O19 Mn2 1_555 1_555
O20 Mn2 1_555 1_555
O5 Mn2 1_555 1_555
O6 C5 1_555 1_555
O7 C5 1_555 1_555
C1 H3 1_555 1_555
H4 C1 1_555 1_555
H5 C1 1_555 1_555
C2 C8 1_555 1_555
C4 C8 1_555 1_555
C5 C6 1_555 1_555
C6 C14 1_555 1_555
C8 H7 1_555 1_555
C9 H8 1_555 1_555
C10 C1 1_555 1_555
C11 C10 1_555 1_555
C14 C2 1_555 1_555
H10 C14 1_555 1_555
C16 C2 1_555 1_555
C17 C4 1_555 1_555
C19 C18 1_555 1_555
C20 C16 1_555 1_555
H15 C20 1_555 1_555
O8 C36 1_555 1_555
O11 C36 1_555 1_555
O12 C28 1_555 1_555
O13 C28 1_555 1_555
C24 H19 1_555 1_555
H20 C24 1_555 1_555
H21 C24 1_555 1_555
C25 C31 1_555 1_555
C27 C31 1_555 1_555
C28 C29 1_555 1_555
C29 C37 1_555 1_555
C31 H23 1_555 1_555
C32 H24 1_555 1_555
C33 C24 1_555 1_555
C34 C11 1_555 1_555
C36 C27 1_555 1_555
C37 C25 1_555 1_555
H26 C37 1_555 1_555
C39 C25 1_555 1_555
C40 C27 1_555 1_555
H30 C40 1_555 1_555
C42 C41 1_555 1_555
C43 C39 1_555 1_555
H31 C43 1_555 1_555
Mn4 O8 1_555 1_555
Mn5 O13 1_555 1_555
Mn6 O7 1_555 1_555
Mn7 O12 1_555 1_555
C6 C17 1_555 1_555
C10 C16 1_555 1_555
C11 C18 1_555 1_555
C19 C20 1_555 1_555
O11 Mn4 1_555 1_555
C29 C40 1_555 1_555
C33 C34 1_555 1_555
C33 C39 1_555 1_555
C34 C41 1_555 1_555
C42 C43 1_555 1_555
Mn3 O2_2 1_555 1_555
O1_2 C13_2 1_555 1_555
O2_2 H1_2 1_555 1_555
H2_2 O2_2 1_555 1_555
O5_2 C13_2 1_555 1_555
O6_2 C5_2 1_555 1_555
O7_2 C5_2 1_555 1_555
C2_2 C8_2 1_555 1_555
C4_2 C8_2 1_555 1_555
C5_2 C6_2 1_555 1_555
C6_2 C14_2 1_555 1_555
C8_2 H7_2 1_555 1_555
C13_2 C4_2 1_555 1_555
C14_2 C2_2 1_555 1_555
H10_2 C14_2 1_555 1_555
H11_2 C15_2 1_555 1_555
H12_2 C15_2 1_555 1_555
H13_2 C15_2 1_555 1_555
C16_2 C2_2 1_555 1_555
C17_2 C4_2 1_555 1_555
H14_2 C17_2 1_555 1_555
C20_2 C16_2 1_555 1_555
H15_2 C20_2 1_555 1_555
Mn2_2 O1_2 1_555 1_555
O14_2 Mn2_2 1_555 1_555
H35_2 O14_2 1_555 1_555
H36_2 O14_2 1_555 1_555
Mn3_2 O6_2 1_555 1_555
O15_2 Mn3 1_555 1_555
O16_2 Mn2_2 1_555 1_555
O17_2 Mn3 1_555 1_555
O19_2 Mn2_2 1_555 1_555
O20_2 Mn2_2 1_555 1_555
O5_2 Mn2_2 1_555 1_555
C6_2 C17_2 1_555 1_555
P1_2 O3_2 1_555 1_555
O4_2 P1_2 1_555 1_555
C1_2 H3_2 1_555 1_555
H5_2 C1_2 1_555 1_555
C3_2 C7_2 1_555 1_555
C7_2 H6_2 1_555 1_555
C9_2 H8_2 1_555 1_555
C10_2 C1_2 1_555 1_555
C11_2 C10_2 1_555 1_555
C12_2 C3_2 1_555 1_555
C18_2 O4_2 1_555 1_555
C19_2 C18_2 1_555 1_555
C21_2 C9_2 1_555 1_555
C22_2 C7_2 1_555 1_555
C23_2 C22_2 1_555 1_555
H16_2 C23_2 1_555 1_555
H17_2 C23_2 1_555 1_555
H18_2 C23_2 1_555 1_555
O8_2 C36_2 1_555 1_555
O9_2 P1_2 1_555 1_555
O10_2 P1_2 1_555 1_555
O11_2 C36_2 1_555 1_555
O12_2 C28_2 1_555 1_555
O21 C28_2 1_555 1_555
C24_2 H19_2 1_555 1_555
H20_2 C24_2 1_555 1_555
H21_2 C24_2 1_555 1_555
C25_2 C31_2 1_555 1_555
C26_2 C30_2 1_555 1_555
C27_2 C31_2 1_555 1_555
C28_2 C29_2 1_555 1_555
C29_2 C37_2 1_555 1_555
C30_2 H22_2 1_555 1_555
C31_2 H23_2 1_555 1_555
C32_2 H24_2 1_555 1_555
C33_2 C24_2 1_555 1_555
C34_2 C11_2 1_555 1_555
C35_2 C26_2 1_555 1_555
H25_2 C35_2 1_555 1_555
C36_2 C27_2 1_555 1_555
C37_2 C25_2 1_555 1_555
H26_2 C37_2 1_555 1_555
C38_2 C26_2 1_555 1_555
H27_2 C38_2 1_555 1_555
H28_2 C38_2 1_555 1_555
H29_2 C38_2 1_555 1_555
C39_2 C25_2 1_555 1_555
C40_2 C27_2 1_555 1_555
H30_2 C40_2 1_555 1_555
C41_2 O10_2 1_555 1_555
C42_2 C41_2 1_555 1_555
C43_2 C39_2 1_555 1_555
H31_2 C43_2 1_555 1_555
C44_2 C32_2 1_555 1_555
C45_2 C30_2 1_555 1_555
C46_2 C45_2 1_555 1_555
H32_2 C46_2 1_555 1_555
H33_2 C46_2 1_555 1_555
H34_2 C46_2 1_555 1_555
Mn4_2 O8_2 1_555 1_555
Mn8 O12_2 1_555 1_555
Mn6 O9_2 1_555 1_555
C9_2 C22_2 1_555 1_555
C11_2 C18_2 1_555 1_555
C12_2 C21_2 1_555 1_555
C19_2 C21_2 1_555 1_555
O11_2 Mn4_2 1_555 1_555
C29_2 C40_2 1_555 1_555
C32_2 C45_2 1_555 1_555
C33_2 C34_2 1_555 1_555
C33_2 C39_2 1_555 1_555
C34_2 C41_2 1_555 1_555
C35_2 C44_2 1_555 1_555
C42_2 C43_2 1_555 1_555
C42_2 C44_2 1_555 1_555
O1_3 C13_3 1_555 1_555
O5_3 C13_3 1_555 1_555
O6_3 C5_3 1_555 1_555
O20 C5_3 1_555 1_555
C1_3 H3_3 1_555 1_555
H4_3 C1_3 1_555 1_555
H5_3 C1_3 1_555 1_555
C2_3 C8_3 1_555 1_555
C4_3 C8_3 1_555 1_555
C5_3 C6_3 1_555 1_555
C6_3 C14_3 1_555 1_555
C8_3 H7_3 1_555 1_555
C9_3 H8_3 1_555 1_555
C10_3 C1_3 1_555 1_555
C11_3 C10_3 1_555 1_555
C13_3 C4_3 1_555 1_555
C14_3 C2_3 1_555 1_555
H10_3 C14_3 1_555 1_555
C16_3 C2_3 1_555 1_555
C17_3 C4_3 1_555 1_555
H14_3 C17_3 1_555 1_555
C19_3 C18_3 1_555 1_555
C20_3 C16_3 1_555 1_555
H15_3 C20_3 1_555 1_555
C24_3 H19_3 1_555 1_555
H21_3 C24_3 1_555 1_555
C32_3 H24_3 1_555 1_555
C33_3 C24_3 1_555 1_555
C34_3 C11_3 1_555 1_555
C42_3 C41_3 1_555 1_555
Mn7 O1_3 1_555 1_555
O14_3 Mn7 1_555 1_555
H35_3 O14_3 1_555 1_555
H36_3 O14_3 1_555 1_555
Mn4 O6_3 1_555 1_555
O16_3 Mn7 1_555 1_555
O20_3 Mn7 1_555 1_555
O5_3 Mn7 1_555 1_555
C6_3 C17_3 1_555 1_555
C10_3 C16_3 1_555 1_555
C11_3 C18_3 1_555 1_555
C19_3 C20_3 1_555 1_555
C33_3 C34_3 1_555 1_555
C34_3 C41_3 1_555 1_555
O8_3 C36_3 1_555 1_555
O11_3 C36_3 1_555 1_555
O12_3 C28_3 1_555 1_555
O21_2 C28_3 1_555 1_555
C25_3 C31_3 1_555 1_555
C27_3 C31_3 1_555 1_555
C28_3 C29_3 1_555 1_555
C29_3 C37_3 1_555 1_555
C31_3 H23_3 1_555 1_555
C36_3 C27_3 1_555 1_555
C37_3 C25_3 1_555 1_555
H26_3 C37_3 1_555 1_555
C39_3 C25_3 1_555 1_555
C40_3 C27_3 1_555 1_555
H30_3 C40_3 1_555 1_555
C43_3 C39_3 1_555 1_555
H31_3 C43_3 1_555 1_555
Mn5 O8_3 1_555 1_555
Mn6 O12_3 1_555 1_555
O11_3 Mn5 1_555 1_555
C29_3 C40_3 1_555 1_555
Mn3_2 O2_3 1_555 1_555
P1_3 O3_3 1_555 1_555
O2_3 H1_3 1_555 1_555
H2_3 O2_3 1_555 1_555
O3_3 Mn3_2 1_555 1_555
O4_3 P1_3 1_555 1_555
C3_3 C7_3 1_555 1_555
C7_3 H6_3 1_555 1_555
C12_3 C3_3 1_555 1_555
H9_3 C12_3 1_555 1_555
C15_3 C3_3 1_555 1_555
H11_3 C15_3 1_555 1_555
H12_3 C15_3 1_555 1_555
H13_3 C15_3 1_555 1_555
C22_3 C7_3 1_555 1_555
C23_3 C22_3 1_555 1_555
H18_3 C23_3 1_555 1_555
O9_3 P1_3 1_555 1_555
O10_3 P1_3 1_555 1_555
C26_3 C30_3 1_555 1_555
C30_3 H22_3 1_555 1_555
C35_3 C26_3 1_555 1_555
C45_3 C30_3 1_555 1_555
C46_3 C45_3 1_555 1_555
H34_3 C46_3 1_555 1_555
O15_3 Mn3_2 1_555 1_555
O17_3 Mn3_2 1_555 1_555
O21_3 Mn3_2 1_555 1_555
C12_3 C21_3 1_555 1_555
C35_3 C44_3 1_555 1_555
H27_3 C38_3 1_555 1_555
H28_3 C38_3 1_555 1_555
H29_3 C38_3 1_555 1_555
O1_4 C13_4 1_555 1_555
O5_4 C13_4 1_555 1_555
O6_4 C5_4 1_555 1_555
O20_2 C5_4 1_555 1_555
C1_4 H3_4 1_555 1_555
H4_4 C1_4 1_555 1_555
H5_4 C1_4 1_555 1_555
C2_4 C8_4 1_555 1_555
C4_4 C8_4 1_555 1_555
C5_4 C6_4 1_555 1_555
C6_4 C14_4 1_555 1_555
C8_4 H7_4 1_555 1_555
C9_4 H8_4 1_555 1_555
C10_4 C1_4 1_555 1_555
C11_4 C10_4 1_555 1_555
C13_4 C4_4 1_555 1_555
C14_4 C2_4 1_555 1_555
H10_4 C14_4 1_555 1_555
C16_4 C2_4 1_555 1_555
C17_4 C4_4 1_555 1_555
H14_4 C17_4 1_555 1_555
C19_4 C18_4 1_555 1_555
C20_4 C16_4 1_555 1_555
H15_4 C20_4 1_555 1_555
O12_4 C28_4 1_555 1_555
O21_3 C28_4 1_555 1_555
C24_4 H19_4 1_555 1_555
H20_4 C24_4 1_555 1_555
H21_4 C24_4 1_555 1_555
C25_4 C31_4 1_555 1_555
C27_4 C31_4 1_555 1_555
C28_4 C29_4 1_555 1_555
C29_4 C37_4 1_555 1_555
C31_4 H23_4 1_555 1_555
C32_4 H24_4 1_555 1_555
C33_4 C24_4 1_555 1_555
C34_4 C11_4 1_555 1_555
C37_4 C25_4 1_555 1_555
H26_4 C37_4 1_555 1_555
C39_4 C25_4 1_555 1_555
C40_4 C27_4 1_555 1_555
C42_4 C41_4 1_555 1_555
C43_4 C39_4 1_555 1_555
H31_4 C43_4 1_555 1_555
Mn8 O1_4 1_555 1_555
O14_4 Mn8 1_555 1_555
H35_4 O14_4 1_555 1_555
H36_4 O14_4 1_555 1_555
Mn4_2 O6_4 1_555 1_555
O20_4 Mn8 1_555 1_555
O5_4 Mn8 1_555 1_555
C6_4 C17_4 1_555 1_555
C10_4 C16_4 1_555 1_555
C11_4 C18_4 1_555 1_555
C19_4 C20_4 1_555 1_555
C29_4 C40_4 1_555 1_555
C33_4 C34_4 1_555 1_555
C33_4 C39_4 1_555 1_555
C34_4 C41_4 1_555 1_555
C42_4 C43_4 1_555 1_555
O15 C36_4 1_555 1_555
O17 C36_4 1_555 1_555
Mn4 O2_4 1_555 1_555
P1_4 O3_4 1_555 1_555
O2_4 H1_4 1_555 1_555
H2_4 O2_4 1_555 1_555
O3_4 Mn4 1_555 1_555
O4_4 P1_4 1_555 1_555
C3_4 C7_4 1_555 1_555
C7_4 H6_4 1_555 1_555
C12_4 C3_4 1_555 1_555
H9_4 C12_4 1_555 1_555
C15_4 C3_4 1_555 1_555
H11_4 C15_4 1_555 1_555
H12_4 C15_4 1_555 1_555
H13_4 C15_4 1_555 1_555
C22_4 C7_4 1_555 1_555
C23_4 C22_4 1_555 1_555
H18_4 C23_4 1_555 1_555
O16 P1_4 1_555 1_555
O10_4 P1_4 1_555 1_555
C26_4 C30_4 1_555 1_555
C30_4 H22_4 1_555 1_555
C35_4 C26_4 1_555 1_555
H25_4 C35_4 1_555 1_555
C38_4 C26_4 1_555 1_555
H27_4 C38_4 1_555 1_555
H28_4 C38_4 1_555 1_555
H29_4 C38_4 1_555 1_555
C45_4 C30_4 1_555 1_555
C46_4 C45_4 1_555 1_555
H34_4 C46_4 1_555 1_555
O21_4 Mn4 1_555 1_555
C12_4 C21_4 1_555 1_555
C35_4 C44_4 1_555 1_555
Mn4_2 O2_5 1_555 1_555
P1_5 O3_5 1_555 1_555
O1_5 C13_5 1_555 1_555
O2_5 H1_5 1_555 1_555
H2_5 O2_5 1_555 1_555
O3_5 Mn4_2 1_555 1_555
O4_5 P1_5 1_555 1_555
O5_5 C13_5 1_555 1_555
O6_5 C5_5 1_555 1_555
O20_3 C5_5 1_555 1_555
C1_5 H3_5 1_555 1_555
H4_5 C1_5 1_555 1_555
H5_5 C1_5 1_555 1_555
C2_5 C8_5 1_555 1_555
C3_5 C7_5 1_555 1_555
C4_5 C8_5 1_555 1_555
C5_5 C6_5 1_555 1_555
C6_5 C14_5 1_555 1_555
C7_5 H6_5 1_555 1_555
C8_5 H7_5 1_555 1_555
C9_5 H8_5 1_555 1_555
C10_5 C1_5 1_555 1_555
C11_5 C10_5 1_555 1_555
C12_5 C3_5 1_555 1_555
H9_5 C12_5 1_555 1_555
C13_5 C4_5 1_555 1_555
C14_5 C2_5 1_555 1_555
H10_5 C14_5 1_555 1_555
C15_5 C3_5 1_555 1_555
H11_5 C15_5 1_555 1_555
H12_5 C15_5 1_555 1_555
H13_5 C15_5 1_555 1_555
C16_5 C2_5 1_555 1_555
C17_5 C4_5 1_555 1_555
H14_5 C17_5 1_555 1_555
C18_5 O4_5 1_555 1_555
C19_5 C18_5 1_555 1_555
C20_5 C16_5 1_555 1_555
H15_5 C20_5 1_555 1_555
C21_5 C9_5 1_555 1_555
C22_5 C7_5 1_555 1_555
C23_5 C22_5 1_555 1_555
H16_5 C23_5 1_555 1_555
H17_5 C23_5 1_555 1_555
H18_5 C23_5 1_555 1_555
O15_2 C36_5 1_555 1_555
O16_2 P1_5 1_555 1_555
O10_5 P1_5 1_555 1_555
O17_2 C36_5 1_555 1_555
O19 C28_5 1_555 1_555
O21_4 C28_5 1_555 1_555
C24_5 H19_5 1_555 1_555
H20_5 C24_5 1_555 1_555
H21_5 C24_5 1_555 1_555
C25_5 C31_5 1_555 1_555
C26_5 C30_5 1_555 1_555
C27_5 C31_5 1_555 1_555
C28_5 C29_5 1_555 1_555
C29_5 C37_5 1_555 1_555
C30_5 H22_5 1_555 1_555
C31_5 H23_5 1_555 1_555
C32_5 H24_5 1_555 1_555
C33_5 C24_5 1_555 1_555
C34_5 C11_5 1_555 1_555
C35_5 C26_5 1_555 1_555
H25_5 C35_5 1_555 1_555
C36_5 C27_5 1_555 1_555
C37_5 C25_5 1_555 1_555
H26_5 C37_5 1_555 1_555
C38_5 C26_5 1_555 1_555
H27_5 C38_5 1_555 1_555
H28_5 C38_5 1_555 1_555
H29_5 C38_5 1_555 1_555
C39_5 C25_5 1_555 1_555
C40_5 C27_5 1_555 1_555
H30_5 C40_5 1_555 1_555
C41_5 O10_5 1_555 1_555
C42_5 C41_5 1_555 1_555
C43_5 C39_5 1_555 1_555
H31_5 C43_5 1_555 1_555
C44_5 C32_5 1_555 1_555
C45_5 C30_5 1_555 1_555
C46_5 C45_5 1_555 1_555
H32_5 C46_5 1_555 1_555
H33_5 C46_5 1_555 1_555
H34_5 C46_5 1_555 1_555
Mn6 O1_5 1_555 1_555
O14_5 Mn6 1_555 1_555
H35_5 O14_5 1_555 1_555
H36_5 O14_5 1_555 1_555
Mn5 O6_5 1_555 1_555
O21_5 Mn4_2 1_555 1_555
O5_5 Mn6 1_555 1_555
C6_5 C17_5 1_555 1_555
C9_5 C22_5 1_555 1_555
C10_5 C16_5 1_555 1_555
C11_5 C18_5 1_555 1_555
C12_5 C21_5 1_555 1_555
C19_5 C20_5 1_555 1_555
C19_5 C21_5 1_555 1_555
C29_5 C40_5 1_555 1_555
C32_5 C45_5 1_555 1_555
C33_5 C34_5 1_555 1_555
C33_5 C39_5 1_555 1_555
C34_5 C41_5 1_555 1_555
C35_5 C44_5 1_555 1_555
C42_5 C43_5 1_555 1_555
C42_5 C44_5 1_555 1_555
Mn5 O2_6 1_555 1_555
P1_6 O3_6 1_555 1_555
O2_6 H1_6 1_555 1_555
H2_6 O2_6 1_555 1_555
O3_6 Mn5 1_555 1_555
O4_6 P1_6 1_555 1_555
C3_6 C7_6 1_555 1_555
C7_6 H6_6 1_555 1_555
C12_6 C3_6 1_555 1_555
H9_6 C12_6 1_555 1_555
C15_6 C3_6 1_555 1_555
H11_6 C15_6 1_555 1_555
H12_6 C15_6 1_555 1_555
H13_6 C15_6 1_555 1_555
C22_6 C7_6 1_555 1_555
C23_6 C22_6 1_555 1_555
H18_6 C23_6 1_555 1_555
O16_3 P1_6 1_555 1_555
O10_6 P1_6 1_555 1_555
C26_6 C30_6 1_555 1_555
C30_6 H22_6 1_555 1_555
C35_6 C26_6 1_555 1_555
H25_6 C35_6 1_555 1_555
C38_6 C26_6 1_555 1_555
H27_6 C38_6 1_555 1_555
H28_6 C38_6 1_555 1_555
H29_6 C38_6 1_555 1_555
C45_6 C30_6 1_555 1_555
C46_6 C45_6 1_555 1_555
H34_6 C46_6 1_555 1_555
C12_6 C21_6 1_555 1_555
C35_6 C44_6 1_555 1_555
O1_6 C13_6 1_555 1_555
O5_6 C13_6 1_555 1_555
O18 C5_6 1_555 1_555
O20_4 C5_6 1_555 1_555
C1_6 H3_6 1_555 1_555
H4_6 C1_6 1_555 1_555
H5_6 C1_6 1_555 1_555
C2_6 C8_6 1_555 1_555
C4_6 C8_6 1_555 1_555
C5_6 C6_6 1_555 1_555
C6_6 C14_6 1_555 1_555
C8_6 H7_6 1_555 1_555
C9_6 H8_6 1_555 1_555
C10_6 C1_6 1_555 1_555
C11_6 C10_6 1_555 1_555
C13_6 C4_6 1_555 1_555
C14_6 C2_6 1_555 1_555
H10_6 C14_6 1_555 1_555
C16_6 C2_6 1_555 1_555
C17_6 C4_6 1_555 1_555
H14_6 C17_6 1_555 1_555
C19_6 C18_6 1_555 1_555
C20_6 C16_6 1_555 1_555
H15_6 C20_6 1_555 1_555
O15_3 C36_6 1_555 1_555
O17_3 C36_6 1_555 1_555
O19_2 C28_6 1_555 1_555
O21_5 C28_6 1_555 1_555
C24_6 H19_6 1_555 1_555
H20_6 C24_6 1_555 1_555
H21_6 C24_6 1_555 1_555
C25_6 C31_6 1_555 1_555
C27_6 C31_6 1_555 1_555
C28_6 C29_6 1_555 1_555
C29_6 C37_6 1_555 1_555
C31_6 H23_6 1_555 1_555
C32_6 H24_6 1_555 1_555
C33_6 C24_6 1_555 1_555
C34_6 C11_6 1_555 1_555
C36_6 C27_6 1_555 1_555
C37_6 C25_6 1_555 1_555
H26_6 C37_6 1_555 1_555
C39_6 C25_6 1_555 1_555
C40_6 C27_6 1_555 1_555
H30_6 C40_6 1_555 1_555
C42_6 C41_6 1_555 1_555
C43_6 C39_6 1_555 1_555
H31_6 C43_6 1_555 1_555
Mn6_2 O1_6 1_555 1_555
O14_6 Mn6_2 1_555 1_555
H35_6 O14_6 1_555 1_555
H36_6 O14_6 1_555 1_555
O5_6 Mn6_2 1_555 1_555
C6_6 C17_6 1_555 1_555
C10_6 C16_6 1_555 1_555
C11_6 C18_6 1_555 1_555
C19_6 C20_6 1_555 1_555
C29_6 C40_6 1_555 1_555
C33_6 C34_6 1_555 1_555
C33_6 C39_6 1_555 1_555
C34_6 C41_6 1_555 1_555
C42_6 C43_6 1_555 1_555

#END
