
###############################################################################
#
# This file contains modified crystal structure data generated from the
# MOF subset of the Cambridge Structural Database (CSD) v543 
# hosted by the Cambridge Crystallographic Data Centre (CCDC).
#
# This work is licensed under the Creative Commons
# Attribution-NonCommercial-ShareAlike 4.0 International License.
# To view a copy of this license, visit
# http://creativecommons.org/licenses/by-nc-sa/4.0/
# or send a letter to
# Creative Commons, PO Box 1866, Mountain View, CA 94042, USA.
#
# CIF created using the CSD Python API on 29 September 2022
# The structure has been converted into the P1 space group
# The structure has a 3D framework
# The original CSD entry JEHJUE is in the rhombohedral crystal system
# The framework has been calculated to contain at least 10.0% void space
# The void calculation uses a probe of radius 1.32A, grid spacing 0.4
#
###############################################################################

data_JEHJUE
_chemical_formula_moiety         '(C324 H288 Cl14 Cu36 N108)n'
_symmetry_cell_setting           triclinic
_symmetry_space_group_name_H-M   'P 1'
_symmetry_Int_Tables_number      1
_space_group_name_Hall           'P 1'
loop_
_symmetry_equiv_pos_site_id
_symmetry_equiv_pos_as_xyz
1 x,y,z
_cell_length_a                   27.8491(16)
_cell_length_b                   27.8491(16)
_cell_length_c                   22.0929(8)
_cell_angle_alpha                90
_cell_angle_beta                 90
_cell_angle_gamma                120
_cell_volume                     14839
loop_
_atom_site_label
_atom_site_type_symbol
_atom_site_fract_x
_atom_site_fract_y
_atom_site_fract_z
N8 N 0.01761(17) 0.72811(25) 0.01798(13)
Cl2 Cl 0.06848(9) 0.74902(6) 0.79705(5)
Cu3 Cu 0.02998(4) 0.71302(3) 0.69851(3)
Cu1 Cu 0.95365(3) 0.65030(3) 0.03184(3)
Cl1 Cl 0.98612(7) 0.58431(6) 0.03628(5)
C10 C 0.8891(3) 0.7288(2) 0.00584(18)
H9 H 0.911049 0.761319 0.032299
H10 H 0.884855 0.695594 0.026899
C12 C 0.7935(3) 0.7001(2) 0.04113(17)
H11 H 0.802207 0.688959 0.078225
C17 C 0.7420(3) 0.6940(2) 0.03295(17)
H15 H 0.715270 0.677668 0.064302
Cu4 Cu 0.98363(3) 0.62032(3) 0.13483(3)
Cl4 Cl 0.91764(6) 0.65279(7) 0.13039(5)
N1 N 0.89245(17) 0.61446(17) 0.97240(15)
N2 N 0.84935(17) 0.59701(17) 0.88424(15)
C1 C 0.8269(2) 0.6045(2) 0.82749(18)
H1 H 0.816396 0.572014 0.801034
H2 H 0.855927 0.637739 0.806434
C2 C 0.8845(2) 0.6369(2) 0.92263(17)
C3 C 0.7600(2) 0.6332(2) 0.79220(17)
H3 H 0.779914 0.644374 0.755108
C4 C 0.77710(19) 0.61096(19) 0.83732(15)
C5 C 0.8597(2) 0.5579(2) 0.9646(2)
H4 H 0.856088 0.530655 0.992933
C6 C 0.7451(2) 0.5934(2) 0.88942(16)
H5 H 0.754447 0.576664 0.921323
C7 C 0.7002(2) 0.6005(2) 0.89447(16)
H6 H 0.679096 0.588719 0.930767
C8 C 0.7146(2) 0.6393(2) 0.80038(17)
H7 H 0.704268 0.655665 0.769031
C9 C 0.8335(2) 0.5470(2) 0.9105(2)
H8 H 0.808781 0.511517 0.894132
N3 N 0.68428(17) 0.62284(18) 0.85131(13)
N4 N 0.94466(24) 0.71887(17) 0.86093(15)
N5 N 0.91901(24) 0.73632(17) 0.94909(15)
C11 C 0.9143(3) 0.6964(2) 0.91070(17)
C13 C 0.83281(27) 0.72237(19) 0.99601(15)
C14 C 0.9685(3) 0.7754(2) 0.8687(2)
H12 H 0.992100 0.802678 0.840400
C15 C 0.8184(3) 0.7399(2) 0.94391(16)
H13 H 0.844450 0.756669 0.912010
C16 C 0.7664(3) 0.7328(2) 0.93886(16)
H14 H 0.757044 0.744614 0.902566
C18 C 0.9532(3) 0.7863(2) 0.9228(2)
H16 H 0.963931 0.821816 0.939201
N6 N 0.72811(25) 0.71049(18) 0.98202(13)
Cu2 Cu 0.97002(4) 0.68303(3) 0.80149(3)
Cu5 Cu 0.65030(3) 0.69665(4) 0.96816(3)
Cu6 Cu 0.62032(3) 0.63668(4) 0.86517(3)
Cl3 Cl 0.93152(9) 0.68055(7) 0.70295(5)
N7 N 0.95617(18) 0.60523(25) 0.81536(13)
Cu1_2 Cu 0.34970(3) 0.30335(4) 0.03184(3)
Cl1_2 Cl 0.41569(6) 0.40181(9) 0.03628(5)
C10_2 C 0.2712(2) 0.1602(4) 0.00584(18)
H9_2 H 0.238681 0.149729 0.032299
H10_2 H 0.304406 0.189260 0.026899
C12_2 C 0.2999(2) 0.0933(4) 0.04113(17)
H11_2 H 0.311041 0.113247 0.078225
C17_2 C 0.3060(2) 0.0479(4) 0.03295(17)
H15_2 H 0.322332 0.037601 0.064302
Cu4_2 Cu 0.37968(3) 0.36332(4) 0.13483(3)
Cl4_2 Cl 0.34721(7) 0.26486(9) 0.13039(5)
N8_2 N 0.27189(25) 0.28951(30) 0.01798(13)
N1_2 N 0.38554(17) 0.27799(24) 0.97240(15)
N2_2 N 0.40299(17) 0.25234(24) 0.88424(15)
C1_2 C 0.3955(2) 0.2224(3) 0.82749(18)
H1_2 H 0.427986 0.244382 0.801034
H2_2 H 0.362261 0.218188 0.806434
C2_2 C 0.3631(2) 0.2476(3) 0.92263(17)
C3_2 C 0.3668(2) 0.1268(3) 0.79220(17)
H3_2 H 0.355626 0.135540 0.755108
C4_2 C 0.38904(19) 0.16614(27) 0.83732(15)
C5_2 C 0.4421(2) 0.3018(3) 0.9646(2)
H4_2 H 0.469345 0.325433 0.992933
C6_2 C 0.4066(2) 0.1517(3) 0.88942(16)
H5_2 H 0.423336 0.177783 0.921323
C7_2 C 0.3995(2) 0.0997(3) 0.89447(16)
H6_2 H 0.411281 0.090377 0.930767
C8_2 C 0.3607(2) 0.0753(3) 0.80038(17)
H7_2 H 0.344335 0.048603 0.769031
C9_2 C 0.4530(2) 0.2865(3) 0.9105(2)
H8_2 H 0.488483 0.297264 0.894132
N3_2 N 0.37716(18) 0.06144(25) 0.85131(13)
N4_2 N 0.28113(17) 0.22578(29) 0.86093(15)
N5_2 N 0.26368(17) 0.18268(29) 0.94909(15)
C11_2 C 0.3036(2) 0.2178(4) 0.91070(17)
C13_2 C 0.27763(19) 0.11043(33) 0.99601(15)
C14_2 C 0.2246(2) 0.1930(4) 0.8687(2)
H12_2 H 0.197322 0.189421 0.840400
C15_2 C 0.2601(2) 0.0784(4) 0.94391(16)
H13_2 H 0.243331 0.087780 0.912010
C16_2 C 0.2672(2) 0.0335(4) 0.93886(16)
H14_2 H 0.255386 0.012429 0.902566
C18_2 C 0.2137(2) 0.1668(4) 0.9228(2)
H16_2 H 0.178184 0.142114 0.939201
N6_2 N 0.28951(18) 0.01761(31) 0.98202(13)
Cu2_2 Cu 0.31697(3) 0.28698(5) 0.80149(3)
Cl2_2 Cl 0.25098(6) 0.31945(11) 0.79705(5)
Cu3_2 Cu 0.28698(3) 0.31697(5) 0.69851(3)
Cl3_2 Cl 0.31945(7) 0.25098(11) 0.70295(5)
N7_2 N 0.39477(25) 0.35095(31) 0.81536(13)
Cu5_2 Cu 0.30335(4) 0.95365(5) 0.96816(3)
Cu6_2 Cu 0.36332(4) 0.98363(5) 0.86517(3)
Cu5_3 Cu 0.04635(5) 0.34970(3) 0.96816(3)
Cu6_3 Cu 0.01637(5) 0.37968(3) 0.86517(3)
Cu1_3 Cu 0.69665(4) 0.04635(3) 0.03184(3)
Cl1_3 Cl 0.59819(9) 0.01388(7) 0.03628(5)
C10_3 C 0.8398(4) 0.1109(3) 0.00584(18)
H9_3 H 0.850271 0.088951 0.032299
H10_3 H 0.810740 0.115145 0.026899
C12_3 C 0.9067(4) 0.2065(3) 0.04113(17)
H11_3 H 0.886753 0.197793 0.078225
C17_3 C 0.9521(4) 0.2580(3) 0.03295(17)
H15_3 H 0.962399 0.284730 0.064302
Cu4_3 Cu 0.63668(4) 0.01637(3) 0.13483(3)
Cl4_3 Cl 0.73514(9) 0.08236(6) 0.13039(5)
N1_3 N 0.72201(24) 0.10755(17) 0.97240(15)
N2_3 N 0.74766(24) 0.15065(17) 0.88424(15)
C1_3 C 0.7776(3) 0.1731(2) 0.82749(18)
H1_3 H 0.755618 0.183604 0.801034
H2_3 H 0.781812 0.144073 0.806434
C2_3 C 0.7524(3) 0.1155(2) 0.92263(17)
C3_3 C 0.8732(3) 0.2400(2) 0.79220(17)
H3_3 H 0.864460 0.220086 0.755108
C4_3 C 0.83386(27) 0.22290(19) 0.83732(15)
C5_3 C 0.6982(3) 0.1403(2) 0.9646(2)
H4_3 H 0.674567 0.143912 0.992933
C6_3 C 0.8483(3) 0.2549(2) 0.88942(16)
H5_3 H 0.822217 0.245553 0.921323
C7_3 C 0.9003(3) 0.2998(2) 0.89447(16)
H6_3 H 0.909623 0.320904 0.930767
C8_3 C 0.9247(3) 0.2854(2) 0.80038(17)
H7_3 H 0.951397 0.295732 0.769031
C9_3 C 0.7135(3) 0.1665(2) 0.9105(2)
H8_3 H 0.702736 0.191219 0.894132
N3_3 N 0.93856(25) 0.31572(17) 0.85131(13)
N4_3 N 0.77422(29) 0.05534(24) 0.86093(15)
N5_3 N 0.81732(29) 0.08099(24) 0.94909(15)
C11_3 C 0.7822(4) 0.0857(3) 0.91070(17)
C13_3 C 0.88957(33) 0.16719(27) 0.99601(15)
C14_3 C 0.8070(4) 0.0315(3) 0.8687(2)
H12_3 H 0.810579 0.007900 0.840400
C15_3 C 0.9216(4) 0.1816(3) 0.94391(16)
H13_3 H 0.912220 0.155550 0.912010
C16_3 C 0.9665(4) 0.2336(3) 0.93886(16)
H14_3 H 0.987571 0.242956 0.902566
C18_3 C 0.8332(4) 0.0468(3) 0.9228(2)
H16_3 H 0.857886 0.036069 0.939201
N6_3 N 0.98239(31) 0.27189(25) 0.98202(13)
Cu2_3 Cu 0.71302(5) 0.02998(4) 0.80149(3)
Cl3_3 Cl 0.74902(11) 0.06848(9) 0.70295(5)
N7_3 N 0.64905(31) 0.04383(18) 0.81536(13)
N8_3 N 0.71049(30) 0.98239(17) 0.01798(13)
Cl2_3 Cl 0.68055(11) 0.93152(9) 0.79705(5)
Cu3_3 Cu 0.68303(5) 0.97002(4) 0.69851(3)
Cu1_4 Cu 0.30335(4) 0.34970(3) 0.46816(3)
Cl1_4 Cl 0.40181(9) 0.41569(6) 0.46372(5)
N1_4 N 0.27799(24) 0.38554(17) 0.52760(15)
N2_4 N 0.25234(24) 0.40299(17) 0.61576(15)
C1_4 C 0.2224(3) 0.3955(2) 0.67251(18)
H1_4 H 0.244382 0.427986 0.698966
H2_4 H 0.218188 0.362261 0.693566
C2_4 C 0.2476(3) 0.3631(2) 0.57737(17)
C3_4 C 0.1268(3) 0.3668(2) 0.70780(17)
H3_4 H 0.135540 0.355626 0.744892
C4_4 C 0.16614(27) 0.38904(19) 0.66268(15)
C5_4 C 0.3018(3) 0.4421(2) 0.5354(2)
H4_4 H 0.325433 0.469345 0.507067
C6_4 C 0.1517(3) 0.4066(2) 0.61058(16)
H5_4 H 0.177783 0.423336 0.578677
C7_4 C 0.0997(3) 0.3995(2) 0.60553(16)
H6_4 H 0.090377 0.411281 0.569233
C8_4 C 0.0753(3) 0.3607(2) 0.69962(17)
H7_4 H 0.048603 0.344335 0.730969
C9_4 C 0.2865(3) 0.4530(2) 0.5895(2)
H8_4 H 0.297264 0.488483 0.605868
N3_4 N 0.06144(25) 0.37716(18) 0.64869(13)
N4_4 N 0.22578(29) 0.28113(17) 0.63907(15)
N5_4 N 0.18268(29) 0.26368(17) 0.55091(15)
C10_4 C 0.1602(4) 0.2712(2) 0.49416(18)
H9_4 H 0.149729 0.238681 0.467701
H10_4 H 0.189260 0.304406 0.473101
C11_4 C 0.2178(4) 0.3036(2) 0.58930(17)
C12_4 C 0.0933(4) 0.2999(2) 0.45887(17)
H11_4 H 0.113247 0.311041 0.421775
C13_4 C 0.11043(33) 0.27763(19) 0.50399(15)
C14_4 C 0.1930(4) 0.2246(2) 0.6313(2)
H12_4 H 0.189421 0.197322 0.659600
C15_4 C 0.0784(4) 0.2601(2) 0.55609(16)
H13_4 H 0.087780 0.243331 0.587990
C16_4 C 0.0335(4) 0.2672(2) 0.56114(16)
H14_4 H 0.012429 0.255386 0.597434
C17_4 C 0.0479(4) 0.3060(2) 0.46705(17)
H15_4 H 0.037601 0.322332 0.435698
C18_4 C 0.1668(4) 0.2137(2) 0.5772(2)
H16_4 H 0.142114 0.178184 0.560799
N6_4 N 0.01761(31) 0.28951(18) 0.51798(13)
Cu4_4 Cu 0.36332(4) 0.37968(3) 0.36517(3)
Cl4_4 Cl 0.26486(9) 0.34721(7) 0.36961(5)
N7_4 N 0.35095(31) 0.39477(25) 0.68464(13)
N8_4 N 0.28951(30) 0.27189(25) 0.48202(13)
Cu5_4 Cu 0.95365(5) 0.30335(4) 0.53184(3)
Cu6_4 Cu 0.98363(5) 0.36332(4) 0.63483(3)
Cu5_5 Cu 0.34970(3) 0.04635(5) 0.53184(3)
Cu6_5 Cu 0.37968(3) 0.01637(5) 0.63483(3)
Cu1_5 Cu 0.04635(3) 0.69665(4) 0.46816(3)
Cl1_5 Cl 0.01388(7) 0.59819(9) 0.46372(5)
N1_5 N 0.10755(17) 0.72201(24) 0.52760(15)
N2_5 N 0.15065(17) 0.74766(24) 0.61576(15)
C1_5 C 0.1731(2) 0.7776(3) 0.67251(18)
H1_5 H 0.183604 0.755618 0.698966
H2_5 H 0.144073 0.781812 0.693566
C2_5 C 0.1155(2) 0.7524(3) 0.57737(17)
C3_5 C 0.2400(2) 0.8732(3) 0.70780(17)
H3_5 H 0.220086 0.864460 0.744892
C4_5 C 0.22290(19) 0.83386(27) 0.66268(15)
C5_5 C 0.1403(2) 0.6982(3) 0.5354(2)
H4_5 H 0.143912 0.674567 0.507067
C6_5 C 0.2549(2) 0.8483(3) 0.61058(16)
H5_5 H 0.245553 0.822217 0.578677
C7_5 C 0.2998(2) 0.9003(3) 0.60553(16)
H6_5 H 0.320904 0.909623 0.569233
C8_5 C 0.2854(2) 0.9247(3) 0.69962(17)
H7_5 H 0.295732 0.951397 0.730969
C9_5 C 0.1665(2) 0.7135(3) 0.5895(2)
H8_5 H 0.191219 0.702736 0.605868
N3_5 N 0.31572(17) 0.93856(25) 0.64869(13)
N4_5 N 0.05534(24) 0.77422(29) 0.63907(15)
N5_5 N 0.08099(24) 0.81732(29) 0.55091(15)
C10_5 C 0.1109(3) 0.8398(4) 0.49416(18)
H9_5 H 0.088951 0.850271 0.467701
H10_5 H 0.115145 0.810740 0.473101
C11_5 C 0.0857(3) 0.7822(4) 0.58930(17)
C12_5 C 0.2065(3) 0.9067(4) 0.45887(17)
H11_5 H 0.197793 0.886753 0.421775
C13_5 C 0.16719(27) 0.88957(33) 0.50399(15)
C14_5 C 0.0315(3) 0.8070(4) 0.6313(2)
H12_5 H 0.007900 0.810579 0.659600
C15_5 C 0.1816(3) 0.9216(4) 0.55609(16)
H13_5 H 0.155550 0.912220 0.587990
C16_5 C 0.2336(3) 0.9665(4) 0.56114(16)
H14_5 H 0.242956 0.987571 0.597434
C17_5 C 0.2580(3) 0.9521(4) 0.46705(17)
H15_5 H 0.284730 0.962399 0.435698
C18_5 C 0.0468(3) 0.8332(4) 0.5772(2)
H16_5 H 0.036069 0.857886 0.560799
N6_5 N 0.27189(25) 0.98239(31) 0.51798(13)
Cu4_5 Cu 0.01637(3) 0.63668(4) 0.36517(3)
Cl4_5 Cl 0.08236(6) 0.73514(9) 0.36961(5)
N7_5 N 0.04383(18) 0.64905(31) 0.68464(13)
N8_5 N 0.98239(17) 0.71049(30) 0.48202(13)
N8_6 N 0.72811(25) 0.01761(17) 0.48202(13)
Cu1_6 Cu 0.65030(3) 0.95365(3) 0.46816(3)
Cl1_6 Cl 0.58431(6) 0.98612(7) 0.46372(5)
N1_6 N 0.61446(17) 0.89245(17) 0.52760(15)
N2_6 N 0.59701(17) 0.84935(17) 0.61576(15)
C1_6 C 0.6045(2) 0.8269(2) 0.67251(18)
H1_6 H 0.572014 0.816396 0.698966
H2_6 H 0.637739 0.855927 0.693566
C2_6 C 0.6369(2) 0.8845(2) 0.57737(17)
C3_6 C 0.6332(2) 0.7600(2) 0.70780(17)
H3_6 H 0.644374 0.779914 0.744892
C4_6 C 0.61096(19) 0.77710(19) 0.66268(15)
C5_6 C 0.5579(2) 0.8597(2) 0.5354(2)
H4_6 H 0.530655 0.856088 0.507067
C6_6 C 0.5934(2) 0.7451(2) 0.61058(16)
H5_6 H 0.576664 0.754447 0.578677
C7_6 C 0.6005(2) 0.7002(2) 0.60553(16)
H6_6 H 0.588719 0.679096 0.569233
C8_6 C 0.6393(2) 0.7146(2) 0.69962(17)
H7_6 H 0.655665 0.704268 0.730969
C9_6 C 0.5470(2) 0.8335(2) 0.5895(2)
H8_6 H 0.511517 0.808781 0.605868
N3_6 N 0.62284(18) 0.68428(17) 0.64869(13)
N4_6 N 0.71887(17) 0.94466(24) 0.63907(15)
N5_6 N 0.73632(17) 0.91901(24) 0.55091(15)
C10_6 C 0.7288(2) 0.8891(3) 0.49416(18)
H9_6 H 0.761319 0.911049 0.467701
H10_6 H 0.695594 0.884855 0.473101
C11_6 C 0.6964(2) 0.9143(3) 0.58930(17)
C12_6 C 0.7001(2) 0.7935(3) 0.45887(17)
H11_6 H 0.688959 0.802207 0.421775
C13_6 C 0.72237(19) 0.83281(27) 0.50399(15)
C14_6 C 0.7754(2) 0.9685(3) 0.6313(2)
H12_6 H 0.802678 0.992100 0.659600
C15_6 C 0.7399(2) 0.8184(3) 0.55609(16)
H13_6 H 0.756669 0.844450 0.587990
C16_6 C 0.7328(2) 0.7664(3) 0.56114(16)
H14_6 H 0.744614 0.757044 0.597434
C17_6 C 0.6940(2) 0.7420(3) 0.46705(17)
H15_6 H 0.677668 0.715270 0.435698
C18_6 C 0.7863(2) 0.9532(3) 0.5772(2)
H16_6 H 0.821816 0.963931 0.560799
N6_6 N 0.71049(18) 0.72811(25) 0.51798(13)
Cu4_6 Cu 0.62032(3) 0.98363(3) 0.36517(3)
Cu5_6 Cu 0.69665(4) 0.65030(3) 0.53184(3)
Cu6_6 Cu 0.63668(4) 0.62032(3) 0.63483(3)
Cl4_6 Cl 0.65279(7) 0.91764(6) 0.36961(5)
N7_6 N 0.60523(25) 0.95617(18) 0.68464(13)
N4_7 N 0.61132(24) 0.05221(17) 0.19427(15)
N5_7 N 0.58567(24) 0.06966(17) 0.28243(15)
C10_7 C 0.5557(3) 0.0622(2) 0.33918(18)
H9_7 H 0.577715 0.094653 0.365633
H10_7 H 0.551521 0.028928 0.360233
C11_7 C 0.5809(3) 0.0298(2) 0.24404(17)
C12_7 C 0.4601(3) 0.0335(2) 0.37447(17)
H11_7 H 0.468873 0.022293 0.411559
C13_7 C 0.49947(27) 0.05571(19) 0.32935(15)
C14_7 C 0.6351(3) 0.1088(2) 0.2021(2)
H12_7 H 0.658766 0.136012 0.173734
C15_7 C 0.4850(3) 0.0733(2) 0.27725(16)
H13_7 H 0.511116 0.090003 0.245344
C16_7 C 0.4330(3) 0.0662(2) 0.27220(16)
H14_7 H 0.423710 0.077948 0.235900
C17_7 C 0.4086(3) 0.0274(2) 0.36629(17)
H15_7 H 0.381936 0.011002 0.397636
C18_7 C 0.6198(3) 0.1197(2) 0.2562(2)
H16_7 H 0.630597 0.155150 0.272535
N6_7 N 0.39477(25) 0.04383(18) 0.31536(13)
Cu5_7 Cu 0.31697(3) 0.02998(4) 0.30149(3)
N8_7 N 0.68428(17) 0.06144(25) 0.35131(13)
N1_7 N 0.55912(17) 0.94779(17) 0.30573(15)
N2_7 N 0.51602(17) 0.93034(17) 0.21757(15)
C1_7 C 0.4936(2) 0.9378(2) 0.16082(18)
H1_7 H 0.483063 0.905347 0.134367
H2_7 H 0.522594 0.971072 0.139767
C2_7 C 0.5512(2) 0.9702(2) 0.25596(17)
C3_7 C 0.4267(2) 0.9665(2) 0.12553(17)
H3_7 H 0.446581 0.977707 0.088441
C4_7 C 0.44377(19) 0.94429(19) 0.17065(15)
C5_7 C 0.5264(2) 0.8912(2) 0.2979(2)
H4_7 H 0.522755 0.863988 0.326266
C6_7 C 0.4118(2) 0.9267(2) 0.22275(16)
H5_7 H 0.421114 0.909997 0.254656
C7_7 C 0.3669(2) 0.9338(2) 0.22780(16)
H6_7 H 0.345763 0.922052 0.264100
C8_7 C 0.3813(2) 0.9726(2) 0.13371(17)
H7_7 H 0.370935 0.988998 0.102364
C9_7 C 0.5002(2) 0.8803(2) 0.2438(2)
H8_7 H 0.475448 0.844850 0.227465
N3_7 N 0.35095(17) 0.95617(18) 0.18464(13)
Cu6_7 Cu 0.28698(3) 0.97002(4) 0.19851(3)
N7_7 N 0.62284(18) 0.93856(25) 0.14869(13)
N1_8 N 0.05221(17) 0.61132(24) 0.30573(15)
N2_8 N 0.06966(17) 0.58567(24) 0.21757(15)
C1_8 C 0.0622(2) 0.5557(3) 0.16082(18)
H1_8 H 0.094653 0.577715 0.134367
H2_8 H 0.028928 0.551521 0.139767
C2_8 C 0.0298(2) 0.5809(3) 0.25596(17)
C3_8 C 0.0335(2) 0.4601(3) 0.12553(17)
H3_8 H 0.022293 0.468873 0.088441
C4_8 C 0.05571(19) 0.49947(27) 0.17065(15)
C5_8 C 0.1088(2) 0.6351(3) 0.2979(2)
H4_8 H 0.136012 0.658766 0.326266
C6_8 C 0.0733(2) 0.4850(3) 0.22275(16)
H5_8 H 0.090003 0.511116 0.254656
C7_8 C 0.0662(2) 0.4330(3) 0.22780(16)
H6_8 H 0.077948 0.423710 0.264100
C8_8 C 0.0274(2) 0.4086(3) 0.13371(17)
H7_8 H 0.011002 0.381936 0.102364
C9_8 C 0.1197(2) 0.6198(3) 0.2438(2)
H8_8 H 0.155150 0.630597 0.227465
N3_8 N 0.04383(18) 0.39477(25) 0.18464(13)
Cu6_8 Cu 0.02998(4) 0.31697(5) 0.19851(3)
N7_8 N 0.06144(25) 0.68428(31) 0.14869(13)
N4_8 N 0.94779(17) 0.55912(29) 0.19427(15)
N5_8 N 0.93034(17) 0.51602(29) 0.28243(15)
C10_8 C 0.9378(2) 0.4936(4) 0.33918(18)
H9_8 H 0.905347 0.483063 0.365633
H10_8 H 0.971072 0.522594 0.360233
C11_8 C 0.9702(2) 0.5512(4) 0.24404(17)
C12_8 C 0.9665(2) 0.4267(4) 0.37447(17)
H11_8 H 0.977707 0.446581 0.411559
C13_8 C 0.94429(19) 0.44377(33) 0.32935(15)
C14_8 C 0.8912(2) 0.5264(4) 0.2021(2)
H12_8 H 0.863988 0.522755 0.173734
C15_8 C 0.9267(2) 0.4118(4) 0.27725(16)
H13_8 H 0.909997 0.421114 0.245344
C16_8 C 0.9338(2) 0.3669(4) 0.27220(16)
H14_8 H 0.922052 0.345763 0.235900
C17_8 C 0.9726(2) 0.3813(4) 0.36629(17)
H15_8 H 0.988998 0.370935 0.397636
C18_8 C 0.8803(2) 0.5002(4) 0.2562(2)
H16_8 H 0.844850 0.475448 0.272535
N6_8 N 0.95617(18) 0.35095(31) 0.31536(13)
Cu5_8 Cu 0.97002(4) 0.28698(5) 0.30149(3)
N8_8 N 0.93856(25) 0.62284(30) 0.35131(13)
N1_9 N 0.38868(24) 0.44088(17) 0.30573(15)
N2_9 N 0.41433(24) 0.48398(17) 0.21757(15)
C1_9 C 0.4443(3) 0.5064(2) 0.16082(18)
H1_9 H 0.422285 0.516937 0.134367
H2_9 H 0.448479 0.477406 0.139767
C2_9 C 0.4191(3) 0.4488(2) 0.25596(17)
C3_9 C 0.5399(3) 0.5733(2) 0.12553(17)
H3_9 H 0.531127 0.553419 0.088441
C4_9 C 0.50053(27) 0.55623(19) 0.17065(15)
C5_9 C 0.3649(3) 0.4736(2) 0.2979(2)
H4_9 H 0.341234 0.477245 0.326266
C6_9 C 0.5150(3) 0.5882(2) 0.22275(16)
H5_9 H 0.488884 0.578886 0.254656
C7_9 C 0.5670(3) 0.6331(2) 0.22780(16)
H6_9 H 0.576290 0.654237 0.264100
C8_9 C 0.5914(3) 0.6187(2) 0.13371(17)
H7_9 H 0.618064 0.629065 0.102364
C9_9 C 0.3802(3) 0.4998(2) 0.2438(2)
H8_9 H 0.369403 0.524552 0.227465
N3_9 N 0.60523(25) 0.64905(17) 0.18464(13)
N4_9 N 0.44088(29) 0.38868(24) 0.19427(15)
N5_9 N 0.48398(29) 0.41433(24) 0.28243(15)
C10_9 C 0.5064(4) 0.4443(3) 0.33918(18)
H9_9 H 0.516937 0.422285 0.365633
H10_9 H 0.477406 0.448479 0.360233
C11_9 C 0.4488(4) 0.4191(3) 0.24404(17)
C12_9 C 0.5733(4) 0.5399(3) 0.37447(17)
H11_9 H 0.553419 0.531127 0.411559
C13_9 C 0.55623(33) 0.50053(27) 0.32935(15)
C14_9 C 0.4736(4) 0.3649(3) 0.2021(2)
H12_9 H 0.477245 0.341234 0.173734
C15_9 C 0.5882(4) 0.5150(3) 0.27725(16)
H13_9 H 0.578886 0.488884 0.245344
C16_9 C 0.6331(4) 0.5670(3) 0.27220(16)
H14_9 H 0.654237 0.576290 0.235900
C17_9 C 0.6187(4) 0.5914(3) 0.36629(17)
H15_9 H 0.629065 0.618064 0.397636
C18_9 C 0.4998(4) 0.3802(3) 0.2562(2)
H16_9 H 0.524552 0.369403 0.272535
N6_9 N 0.64905(31) 0.60523(25) 0.31536(13)
Cu5_9 Cu 0.71302(5) 0.68303(3) 0.30149(3)
Cu6_9 Cu 0.68303(5) 0.71302(3) 0.19851(3)
N7_9 N 0.31572(31) 0.37716(18) 0.14869(13)
N8_9 N 0.37716(30) 0.31572(17) 0.35131(13)
N1_10 N 0.10755(17) 0.38554(17) 0.02760(15)
N2_10 N 0.15065(17) 0.40299(17) 0.11576(15)
C1_10 C 0.1731(2) 0.3955(2) 0.17251(18)
H1_10 H 0.183604 0.427986 0.198966
H2_10 H 0.144073 0.362261 0.193566
C2_10 C 0.1155(2) 0.3631(2) 0.07737(17)
C3_10 C 0.2400(2) 0.3668(2) 0.20780(17)
H3_10 H 0.220086 0.355626 0.244892
C4_10 C 0.22290(19) 0.38904(19) 0.16268(15)
C5_10 C 0.1403(2) 0.4421(2) 0.0354(2)
H4_10 H 0.143912 0.469345 0.007067
C6_10 C 0.2549(2) 0.4066(2) 0.11058(16)
H5_10 H 0.245553 0.423336 0.078677
C7_10 C 0.2998(2) 0.3995(2) 0.10553(16)
H6_10 H 0.320904 0.411281 0.069233
C8_10 C 0.2854(2) 0.3607(2) 0.19962(17)
H7_10 H 0.295732 0.344335 0.230969
C9_10 C 0.1665(2) 0.4530(2) 0.0895(2)
H8_10 H 0.191219 0.488483 0.105868
N4_10 N 0.05534(24) 0.28113(17) 0.13907(15)
N5_10 N 0.08099(24) 0.26368(17) 0.05091(15)
C11_10 C 0.0857(3) 0.3036(2) 0.08930(17)
C13_10 C 0.16719(27) 0.27763(19) 0.00399(15)
C14_10 C 0.0315(3) 0.2246(2) 0.1313(2)
H12_10 H 0.007900 0.197322 0.159600
C15_10 C 0.1816(3) 0.2601(2) 0.05609(16)
H13_10 H 0.155550 0.243331 0.087990
C16_10 C 0.2336(3) 0.2672(2) 0.06114(16)
H14_10 H 0.242956 0.255386 0.097434
C18_10 C 0.0468(3) 0.2137(2) 0.0772(2)
H16_10 H 0.036069 0.178184 0.060799
Cl3_4 Cl 0.06848(9) 0.31945(7) 0.29705(5)
Cl1_7 Cl 0.01388(7) 0.41569(6) 0.96372(5)
C10_10 C 0.1109(3) 0.2712(2) 0.99416(18)
H9_10 H 0.088951 0.238681 0.967701
H10_10 H 0.115145 0.304406 0.973101
C12_10 C 0.2065(3) 0.2999(2) 0.95887(17)
H11_10 H 0.197793 0.311041 0.921775
C17_10 C 0.2580(3) 0.3060(2) 0.96705(17)
H15_10 H 0.284730 0.322332 0.935698
Cl4_7 Cl 0.08236(6) 0.34721(7) 0.86961(5)
Cl2_4 Cl 0.93152(9) 0.25098(6) 0.20295(5)
N1_11 N 0.61446(17) 0.72201(24) 0.02760(15)
N2_11 N 0.59701(17) 0.74766(24) 0.11576(15)
C1_11 C 0.6045(2) 0.7776(3) 0.17251(18)
H1_11 H 0.572014 0.755618 0.198966
H2_11 H 0.637739 0.781812 0.193566
C2_11 C 0.6369(2) 0.7524(3) 0.07737(17)
C3_11 C 0.6332(2) 0.8732(3) 0.20780(17)
H3_11 H 0.644374 0.864460 0.244892
C4_11 C 0.61096(19) 0.83386(27) 0.16268(15)
C5_11 C 0.5579(2) 0.6982(3) 0.0354(2)
H4_11 H 0.530655 0.674567 0.007067
C6_11 C 0.5934(2) 0.8483(3) 0.11058(16)
H5_11 H 0.576664 0.822217 0.078677
C7_11 C 0.6005(2) 0.9003(3) 0.10553(16)
H6_11 H 0.588719 0.909623 0.069233
C8_11 C 0.6393(2) 0.9247(3) 0.19962(17)
H7_11 H 0.655665 0.951397 0.230969
C9_11 C 0.5470(2) 0.7135(3) 0.0895(2)
H8_11 H 0.511517 0.702736 0.105868
N4_11 N 0.71887(17) 0.77422(29) 0.13907(15)
N5_11 N 0.73632(17) 0.81732(29) 0.05091(15)
C11_11 C 0.6964(2) 0.7822(4) 0.08930(17)
C13_11 C 0.72237(19) 0.88957(33) 0.00399(15)
C14_11 C 0.7754(2) 0.8070(4) 0.1313(2)
H12_11 H 0.802678 0.810579 0.159600
C15_11 C 0.7399(2) 0.9216(4) 0.05609(16)
H13_11 H 0.756669 0.912220 0.087990
C16_11 C 0.7328(2) 0.9665(4) 0.06114(16)
H14_11 H 0.744614 0.987571 0.097434
C18_11 C 0.7863(2) 0.8332(4) 0.0772(2)
H16_11 H 0.821816 0.857886 0.060799
Cl2_5 Cl 0.74902(6) 0.68055(11) 0.20295(5)
Cl3_5 Cl 0.68055(7) 0.74902(11) 0.29705(5)
Cl1_8 Cl 0.58431(6) 0.59819(9) 0.96372(5)
C10_11 C 0.7288(2) 0.8398(4) 0.99416(18)
H9_11 H 0.761319 0.850271 0.967701
H10_11 H 0.695594 0.810740 0.973101
C12_11 C 0.7001(2) 0.9067(4) 0.95887(17)
H11_11 H 0.688959 0.886753 0.921775
C17_11 C 0.6940(2) 0.9521(4) 0.96705(17)
H15_11 H 0.677668 0.962399 0.935698
Cl4_8 Cl 0.65279(7) 0.73514(9) 0.86961(5)
Cl2_6 Cl 0.31945(11) 0.06848(9) 0.20295(5)
N1_12 N 0.27799(24) 0.89245(17) 0.02760(15)
N2_12 N 0.25234(24) 0.84935(17) 0.11576(15)
C1_12 C 0.2224(3) 0.8269(2) 0.17251(18)
H1_12 H 0.244382 0.816396 0.198966
H2_12 H 0.218188 0.855927 0.193566
C2_12 C 0.2476(3) 0.8845(2) 0.07737(17)
C3_12 C 0.1268(3) 0.7600(2) 0.20780(17)
H3_12 H 0.135540 0.779914 0.244892
C4_12 C 0.16614(27) 0.77710(19) 0.16268(15)
C5_12 C 0.3018(3) 0.8597(2) 0.0354(2)
H4_12 H 0.325433 0.856088 0.007067
C6_12 C 0.1517(3) 0.7451(2) 0.11058(16)
H5_12 H 0.177783 0.754447 0.078677
C7_12 C 0.0997(3) 0.7002(2) 0.10553(16)
H6_12 H 0.090377 0.679096 0.069233
C8_12 C 0.0753(3) 0.7146(2) 0.19962(17)
H7_12 H 0.048603 0.704268 0.230969
C9_12 C 0.2865(3) 0.8335(2) 0.0895(2)
H8_12 H 0.297264 0.808781 0.105868
N4_12 N 0.22578(29) 0.94466(24) 0.13907(15)
N5_12 N 0.18268(29) 0.91901(24) 0.05091(15)
C11_12 C 0.2178(4) 0.9143(3) 0.08930(17)
C13_12 C 0.11043(33) 0.83281(27) 0.00399(15)
C14_12 C 0.1930(4) 0.9685(3) 0.1313(2)
H12_12 H 0.189421 0.992100 0.159600
C15_12 C 0.0784(4) 0.8184(3) 0.05609(16)
H13_12 H 0.087780 0.844450 0.087990
C16_12 C 0.0335(4) 0.7664(3) 0.06114(16)
H14_12 H 0.012429 0.757044 0.097434
C18_12 C 0.1668(4) 0.9532(3) 0.0772(2)
H16_12 H 0.142114 0.963931 0.060799
Cl3_6 Cl 0.25098(11) 0.93152(9) 0.29705(5)
Cl1_9 Cl 0.40181(9) 0.98612(7) 0.96372(5)
C10_12 C 0.1602(4) 0.8891(3) 0.99416(18)
H9_12 H 0.149729 0.911049 0.967701
H10_12 H 0.189260 0.884855 0.973101
C12_12 C 0.0933(4) 0.7935(3) 0.95887(17)
H11_12 H 0.113247 0.802207 0.921775
C17_12 C 0.0479(4) 0.7420(3) 0.96705(17)
H15_12 H 0.037601 0.715270 0.935698
Cl4_9 Cl 0.26486(9) 0.91764(6) 0.86961(5)
Cl1_10 Cl 0.59819(9) 0.58431(6) 0.53628(5)
N1_13 N 0.72201(24) 0.61446(17) 0.47240(15)
N2_13 N 0.74766(24) 0.59701(17) 0.38424(15)
C1_13 C 0.7776(3) 0.6045(2) 0.32749(18)
H1_13 H 0.755618 0.572014 0.301034
H2_13 H 0.781812 0.637739 0.306434
C2_13 C 0.7524(3) 0.6369(2) 0.42263(17)
C3_13 C 0.8732(3) 0.6332(2) 0.29220(17)
H3_13 H 0.864460 0.644374 0.255108
C4_13 C 0.83386(27) 0.61096(19) 0.33732(15)
C5_13 C 0.6982(3) 0.5579(2) 0.4646(2)
H4_13 H 0.674567 0.530655 0.492933
C6_13 C 0.8483(3) 0.5934(2) 0.38942(16)
H5_13 H 0.822217 0.576664 0.421323
C7_13 C 0.9003(3) 0.6005(2) 0.39447(16)
H6_13 H 0.909623 0.588719 0.430767
C8_13 C 0.9247(3) 0.6393(2) 0.30038(17)
H7_13 H 0.951397 0.655665 0.269031
C9_13 C 0.7135(3) 0.5470(2) 0.4105(2)
H8_13 H 0.702736 0.511517 0.394132
N4_13 N 0.77422(29) 0.71887(17) 0.36093(15)
N5_13 N 0.81732(29) 0.73632(17) 0.44909(15)
C10_13 C 0.8398(4) 0.7288(2) 0.50584(18)
H9_13 H 0.850271 0.761319 0.532299
H10_13 H 0.810740 0.695594 0.526899
C11_13 C 0.7822(4) 0.6964(2) 0.41070(17)
C12_13 C 0.9067(4) 0.7001(2) 0.54113(17)
H11_13 H 0.886753 0.688959 0.578225
C13_13 C 0.88957(33) 0.72237(19) 0.49601(15)
C14_13 C 0.8070(4) 0.7754(2) 0.3687(2)
H12_13 H 0.810579 0.802678 0.340400
C15_13 C 0.9216(4) 0.7399(2) 0.44391(16)
H13_13 H 0.912220 0.756669 0.412010
C16_13 C 0.9665(4) 0.7328(2) 0.43886(16)
H14_13 H 0.987571 0.744614 0.402566
C17_13 C 0.9521(4) 0.6940(2) 0.53295(17)
H15_13 H 0.962399 0.677668 0.564302
C18_13 C 0.8332(4) 0.7863(2) 0.4228(2)
H16_13 H 0.857886 0.821816 0.439201
Cl4_10 Cl 0.73514(9) 0.65279(7) 0.63039(5)
Cl1_11 Cl 0.98612(7) 0.40181(9) 0.53628(5)
N1_14 N 0.89245(17) 0.27799(24) 0.47240(15)
N2_14 N 0.84935(17) 0.25234(24) 0.38424(15)
C1_14 C 0.8269(2) 0.2224(3) 0.32749(18)
H1_14 H 0.816396 0.244382 0.301034
H2_14 H 0.855927 0.218188 0.306434
C2_14 C 0.8845(2) 0.2476(3) 0.42263(17)
C3_14 C 0.7600(2) 0.1268(3) 0.29220(17)
H3_14 H 0.779914 0.135540 0.255108
C4_14 C 0.77710(19) 0.16614(27) 0.33732(15)
C5_14 C 0.8597(2) 0.3018(3) 0.4646(2)
H4_14 H 0.856088 0.325433 0.492933
C6_14 C 0.7451(2) 0.1517(3) 0.38942(16)
H5_14 H 0.754447 0.177783 0.421323
C7_14 C 0.7002(2) 0.0997(3) 0.39447(16)
H6_14 H 0.679096 0.090377 0.430767
C8_14 C 0.7146(2) 0.0753(3) 0.30038(17)
H7_14 H 0.704268 0.048603 0.269031
C9_14 C 0.8335(2) 0.2865(3) 0.4105(2)
H8_14 H 0.808781 0.297264 0.394132
N4_14 N 0.94466(24) 0.22578(29) 0.36093(15)
N5_14 N 0.91901(24) 0.18268(29) 0.44909(15)
C10_14 C 0.8891(3) 0.1602(4) 0.50584(18)
H9_14 H 0.911049 0.149729 0.532299
H10_14 H 0.884855 0.189260 0.526899
C11_14 C 0.9143(3) 0.2178(4) 0.41070(17)
C12_14 C 0.7935(3) 0.0933(4) 0.54113(17)
H11_14 H 0.802207 0.113247 0.578225
C13_14 C 0.83281(27) 0.11043(33) 0.49601(15)
C14_14 C 0.9685(3) 0.1930(4) 0.3687(2)
H12_14 H 0.992100 0.189421 0.340400
C15_14 C 0.8184(3) 0.0784(4) 0.44391(16)
H13_14 H 0.844450 0.087780 0.412010
C16_14 C 0.7664(3) 0.0335(4) 0.43886(16)
H14_14 H 0.757044 0.012429 0.402566
C17_14 C 0.7420(3) 0.0479(4) 0.53295(17)
H15_14 H 0.715270 0.037601 0.564302
C18_14 C 0.9532(3) 0.1668(4) 0.4228(2)
H16_14 H 0.963931 0.142114 0.439201
Cl4_11 Cl 0.91764(6) 0.26486(9) 0.63039(5)
Cl1_12 Cl 0.41569(6) 0.01388(7) 0.53628(5)
N1_15 N 0.38554(17) 0.10755(17) 0.47240(15)
N2_15 N 0.40299(17) 0.15065(17) 0.38424(15)
C1_15 C 0.3955(2) 0.1731(2) 0.32749(18)
H1_15 H 0.427986 0.183604 0.301034
H2_15 H 0.362261 0.144073 0.306434
C2_15 C 0.3631(2) 0.1155(2) 0.42263(17)
C3_15 C 0.3668(2) 0.2400(2) 0.29220(17)
H3_15 H 0.355626 0.220086 0.255108
C4_15 C 0.38904(19) 0.22290(19) 0.33732(15)
C5_15 C 0.4421(2) 0.1403(2) 0.4646(2)
H4_15 H 0.469345 0.143912 0.492933
C6_15 C 0.4066(2) 0.2549(2) 0.38942(16)
H5_15 H 0.423336 0.245553 0.421323
C7_15 C 0.3995(2) 0.2998(2) 0.39447(16)
H6_15 H 0.411281 0.320904 0.430767
C8_15 C 0.3607(2) 0.2854(2) 0.30038(17)
H7_15 H 0.344335 0.295732 0.269031
C9_15 C 0.4530(2) 0.1665(2) 0.4105(2)
H8_15 H 0.488483 0.191219 0.394132
N4_15 N 0.28113(17) 0.05534(24) 0.36093(15)
N5_15 N 0.26368(17) 0.08099(24) 0.44909(15)
C10_15 C 0.2712(2) 0.1109(3) 0.50584(18)
H9_15 H 0.238681 0.088951 0.532299
H10_15 H 0.304406 0.115145 0.526899
C11_15 C 0.3036(2) 0.0857(3) 0.41070(17)
C12_15 C 0.2999(2) 0.2065(3) 0.54113(17)
H11_15 H 0.311041 0.197793 0.578225
C13_15 C 0.27763(19) 0.16719(27) 0.49601(15)
C14_15 C 0.2246(2) 0.0315(3) 0.3687(2)
H12_15 H 0.197322 0.007900 0.340400
C15_15 C 0.2601(2) 0.1816(3) 0.44391(16)
H13_15 H 0.243331 0.155550 0.412010
C16_15 C 0.2672(2) 0.2336(3) 0.43886(16)
H14_15 H 0.255386 0.242956 0.402566
C17_15 C 0.3060(2) 0.2580(3) 0.53295(17)
H15_15 H 0.322332 0.284730 0.564302
C18_15 C 0.2137(2) 0.0468(3) 0.4228(2)
H16_15 H 0.178184 0.036069 0.439201
Cl4_12 Cl 0.34721(7) 0.08236(6) 0.63039(5)
N1_16 N 0.44088(17) 0.05221(17) 0.69427(15)
N2_16 N 0.48398(17) 0.06966(17) 0.78243(15)
C1_16 C 0.5064(2) 0.0622(2) 0.83918(18)
H1_16 H 0.516937 0.094653 0.865633
H2_16 H 0.477406 0.028928 0.860233
C2_16 C 0.4488(2) 0.0298(2) 0.74404(17)
C3_16 C 0.5733(2) 0.0335(2) 0.87447(17)
H3_16 H 0.553419 0.022293 0.911559
C4_16 C 0.55623(19) 0.05571(19) 0.82935(15)
C5_16 C 0.4736(2) 0.1088(2) 0.7021(2)
H4_16 H 0.477245 0.136012 0.673734
C6_16 C 0.5882(2) 0.0733(2) 0.77725(16)
H5_16 H 0.578886 0.090003 0.745344
C7_16 C 0.6331(2) 0.0662(2) 0.77220(16)
H6_16 H 0.654237 0.077948 0.735900
C8_16 C 0.6187(2) 0.0274(2) 0.86629(17)
H7_16 H 0.629065 0.011002 0.897636
C9_16 C 0.4998(2) 0.1197(2) 0.7562(2)
H8_16 H 0.524552 0.155150 0.772535
N4_16 N 0.38868(24) 0.94779(17) 0.80573(15)
N5_16 N 0.41433(24) 0.93034(17) 0.71757(15)
C10_16 C 0.4443(3) 0.9378(2) 0.66082(18)
H9_16 H 0.422285 0.905347 0.634367
H10_16 H 0.448479 0.971072 0.639767
C11_16 C 0.4191(3) 0.9702(2) 0.75596(17)
C12_16 C 0.5399(3) 0.9665(2) 0.62553(17)
H11_16 H 0.531127 0.977707 0.588441
C13_16 C 0.50053(27) 0.94429(19) 0.67065(15)
C14_16 C 0.3649(3) 0.8912(2) 0.7979(2)
H12_16 H 0.341234 0.863988 0.826266
C15_16 C 0.5150(3) 0.9267(2) 0.72275(16)
H13_16 H 0.488884 0.909997 0.754656
C16_16 C 0.5670(3) 0.9338(2) 0.72780(16)
H14_16 H 0.576290 0.922052 0.764100
C17_16 C 0.5914(3) 0.9726(2) 0.63371(17)
H15_16 H 0.618064 0.988998 0.602364
C18_16 C 0.3802(3) 0.8803(2) 0.7438(2)
H16_16 H 0.369403 0.844850 0.727465
N4_17 N 0.05221(17) 0.44088(29) 0.80573(15)
N5_17 N 0.06966(17) 0.48398(29) 0.71757(15)
C10_17 C 0.0622(2) 0.5064(4) 0.66082(18)
H9_17 H 0.094653 0.516937 0.634367
H10_17 H 0.028928 0.477406 0.639767
C11_17 C 0.0298(2) 0.4488(4) 0.75596(17)
C12_17 C 0.0335(2) 0.5733(4) 0.62553(17)
H11_17 H 0.022293 0.553419 0.588441
C13_17 C 0.05571(19) 0.55623(33) 0.67065(15)
C14_17 C 0.1088(2) 0.4736(4) 0.7979(2)
H12_17 H 0.136012 0.477245 0.826266
C15_17 C 0.0733(2) 0.5882(4) 0.72275(16)
H13_17 H 0.090003 0.578886 0.754656
C16_17 C 0.0662(2) 0.6331(4) 0.72780(16)
H14_17 H 0.077948 0.654237 0.764100
C17_17 C 0.0274(2) 0.6187(4) 0.63371(17)
H15_17 H 0.011002 0.629065 0.602364
C18_17 C 0.1197(2) 0.4998(4) 0.7438(2)
H16_17 H 0.155150 0.524552 0.727465
N1_17 N 0.94779(17) 0.38868(24) 0.69427(15)
N2_17 N 0.93034(17) 0.41433(24) 0.78243(15)
C1_17 C 0.9378(2) 0.4443(3) 0.83918(18)
H1_17 H 0.905347 0.422285 0.865633
H2_17 H 0.971072 0.448479 0.860233
C2_17 C 0.9702(2) 0.4191(3) 0.74404(17)
C3_17 C 0.9665(2) 0.5399(3) 0.87447(17)
H3_17 H 0.977707 0.531127 0.911559
C4_17 C 0.94429(19) 0.50053(27) 0.82935(15)
C5_17 C 0.8912(2) 0.3649(3) 0.7021(2)
H4_17 H 0.863988 0.341234 0.673734
C6_17 C 0.9267(2) 0.5150(3) 0.77725(16)
H5_17 H 0.909997 0.488884 0.745344
C7_17 C 0.9338(2) 0.5670(3) 0.77220(16)
H6_17 H 0.922052 0.576290 0.735900
C8_17 C 0.9726(2) 0.5914(3) 0.86629(17)
H7_17 H 0.988998 0.618064 0.897636
C9_17 C 0.8803(2) 0.3802(3) 0.7562(2)
H8_17 H 0.844850 0.369403 0.772535
N1_18 N 0.61132(24) 0.55912(17) 0.69427(15)
N2_18 N 0.58567(24) 0.51602(17) 0.78243(15)
C1_18 C 0.5557(3) 0.4936(2) 0.83918(18)
H1_18 H 0.577715 0.483063 0.865633
H2_18 H 0.551521 0.522594 0.860233
C2_18 C 0.5809(3) 0.5512(2) 0.74404(17)
C3_18 C 0.4601(3) 0.4267(2) 0.87447(17)
H3_18 H 0.468873 0.446581 0.911559
C4_18 C 0.49947(27) 0.44377(19) 0.82935(15)
C5_18 C 0.6351(3) 0.5264(2) 0.7021(2)
H4_18 H 0.658766 0.522755 0.673734
C6_18 C 0.4850(3) 0.4118(2) 0.77725(16)
H5_18 H 0.511116 0.421114 0.745344
C7_18 C 0.4330(3) 0.3669(2) 0.77220(16)
H6_18 H 0.423710 0.345763 0.735900
C8_18 C 0.4086(3) 0.3813(2) 0.86629(17)
H7_18 H 0.381936 0.370935 0.897636
C9_18 C 0.6198(3) 0.5002(2) 0.7562(2)
H8_18 H 0.630597 0.475448 0.772535
N4_18 N 0.55912(29) 0.61132(24) 0.80573(15)
N5_18 N 0.51602(29) 0.58567(24) 0.71757(15)
C10_18 C 0.4936(4) 0.5557(3) 0.66082(18)
H9_18 H 0.483063 0.577715 0.634367
H10_18 H 0.522594 0.551521 0.639767
C11_18 C 0.5512(4) 0.5809(3) 0.75596(17)
C12_18 C 0.4267(4) 0.4601(3) 0.62553(17)
H11_18 H 0.446581 0.468873 0.588441
C13_18 C 0.44377(33) 0.49947(27) 0.67065(15)
C14_18 C 0.5264(4) 0.6351(3) 0.7979(2)
H12_18 H 0.522755 0.658766 0.826266
C15_18 C 0.4118(4) 0.4850(3) 0.72275(16)
H13_18 H 0.421114 0.511116 0.754656
C16_18 C 0.3669(4) 0.4330(3) 0.72780(16)
H14_18 H 0.345763 0.423710 0.764100
C17_18 C 0.3813(4) 0.4086(3) 0.63371(17)
H15_18 H 0.370935 0.381936 0.602364
C18_18 C 0.5002(4) 0.6198(3) 0.7438(2)
H16_18 H 0.475448 0.630597 0.727465
loop_
_geom_bond_atom_site_label_1
_geom_bond_atom_site_label_2
_geom_bond_site_symmetry_1
_geom_bond_site_symmetry_2
Cu3 Cl2 1_555 1_555
Cu1 Cl1 1_555 1_555
Cl1 Cu4 1_555 1_555
C10 H9 1_555 1_555
H10 C10 1_555 1_555
C12 H11 1_555 1_555
C17 C12 1_555 1_555
H15 C17 1_555 1_555
Cu4 Cl4 1_555 1_555
Cl4 Cu1 1_555 1_555
N2 C1 1_555 1_555
C1 H1 1_555 1_555
H2 C1 1_555 1_555
C2 N1 1_555 1_555
C3 H3 1_555 1_555
C4 C1 1_555 1_555
C5 N1 1_555 1_555
H4 C5 1_555 1_555
C6 C4 1_555 1_555
H5 C6 1_555 1_555
C7 C6 1_555 1_555
H6 C7 1_555 1_555
C8 C3 1_555 1_555
H7 C8 1_555 1_555
C9 N2 1_555 1_555
H8 C9 1_555 1_555
N3 C7 1_555 1_555
N4 C11 1_555 1_555
C11 C2 1_555 1_555
C14 N4 1_555 1_555
H12 C14 1_555 1_555
C15 C13 1_555 1_555
H13 C15 1_555 1_555
C16 C15 1_555 1_555
H14 C16 1_555 1_555
C18 N5 1_555 1_555
H16 C18 1_555 1_555
N6 C16 1_555 1_555
Cu2 N4 1_555 1_555
Cu5 N6 1_555 1_555
Cu6 N3 1_555 1_555
Cl3 Cu2 1_555 1_555
N7 Cu2 1_555 1_555
N2 C2 1_555 1_555
C3 C4 1_555 1_555
C5 C9 1_555 1_555
C8 N3 1_555 1_555
N5 C11 1_555 1_555
C14 C18 1_555 1_555
Cu1_2 Cl1_2 1_555 1_555
Cl1_2 Cu4_2 1_555 1_555
C10_2 H9_2 1_555 1_555
H10_2 C10_2 1_555 1_555
C12_2 H11_2 1_555 1_555
C17_2 C12_2 1_555 1_555
H15_2 C17_2 1_555 1_555
Cu4_2 Cl4_2 1_555 1_555
Cl4_2 Cu1_2 1_555 1_555
N8_2 Cu1_2 1_555 1_555
N2_2 C1_2 1_555 1_555
C1_2 H1_2 1_555 1_555
H2_2 C1_2 1_555 1_555
C2_2 N1_2 1_555 1_555
C3_2 H3_2 1_555 1_555
C4_2 C1_2 1_555 1_555
C5_2 N1_2 1_555 1_555
H4_2 C5_2 1_555 1_555
C6_2 C4_2 1_555 1_555
H5_2 C6_2 1_555 1_555
C7_2 C6_2 1_555 1_555
H6_2 C7_2 1_555 1_555
C8_2 C3_2 1_555 1_555
H7_2 C8_2 1_555 1_555
C9_2 N2_2 1_555 1_555
H8_2 C9_2 1_555 1_555
N3_2 C7_2 1_555 1_555
N4_2 C11_2 1_555 1_555
C11_2 C2_2 1_555 1_555
C14_2 N4_2 1_555 1_555
H12_2 C14_2 1_555 1_555
C15_2 C13_2 1_555 1_555
H13_2 C15_2 1_555 1_555
C16_2 C15_2 1_555 1_555
H14_2 C16_2 1_555 1_555
C18_2 N5_2 1_555 1_555
H16_2 C18_2 1_555 1_555
N6_2 C16_2 1_555 1_555
Cu2_2 N4_2 1_555 1_555
Cl2_2 Cu2_2 1_555 1_555
Cu3_2 Cl2_2 1_555 1_555
Cl3_2 Cu2_2 1_555 1_555
N7_2 Cu2_2 1_555 1_555
N2_2 C2_2 1_555 1_555
C3_2 C4_2 1_555 1_555
C5_2 C9_2 1_555 1_555
C8_2 N3_2 1_555 1_555
N5_2 C11_2 1_555 1_555
C14_2 C18_2 1_555 1_555
Cu3_2 Cl3_2 1_555 1_555
Cu1_3 Cl1_3 1_555 1_555
Cl1_3 Cu4_3 1_555 1_555
C10_3 H9_3 1_555 1_555
H10_3 C10_3 1_555 1_555
C12_3 H11_3 1_555 1_555
C17_3 C12_3 1_555 1_555
H15_3 C17_3 1_555 1_555
Cu4_3 Cl4_3 1_555 1_555
Cl4_3 Cu1_3 1_555 1_555
N2_3 C1_3 1_555 1_555
C1_3 H1_3 1_555 1_555
H2_3 C1_3 1_555 1_555
C2_3 N1_3 1_555 1_555
C3_3 H3_3 1_555 1_555
C4_3 C1_3 1_555 1_555
C5_3 N1_3 1_555 1_555
H4_3 C5_3 1_555 1_555
C6_3 C4_3 1_555 1_555
H5_3 C6_3 1_555 1_555
C7_3 C6_3 1_555 1_555
H6_3 C7_3 1_555 1_555
C8_3 C3_3 1_555 1_555
H7_3 C8_3 1_555 1_555
C9_3 N2_3 1_555 1_555
H8_3 C9_3 1_555 1_555
N3_3 C7_3 1_555 1_555
N4_3 C11_3 1_555 1_555
C11_3 C2_3 1_555 1_555
C14_3 N4_3 1_555 1_555
H12_3 C14_3 1_555 1_555
C15_3 C13_3 1_555 1_555
H13_3 C15_3 1_555 1_555
C16_3 C15_3 1_555 1_555
H14_3 C16_3 1_555 1_555
C18_3 N5_3 1_555 1_555
H16_3 C18_3 1_555 1_555
N6_3 C16_3 1_555 1_555
Cu2_3 N4_3 1_555 1_555
Cl3_3 Cu2_3 1_555 1_555
N7_3 Cu2_3 1_555 1_555
N2_3 C2_3 1_555 1_555
C3_3 C4_3 1_555 1_555
C5_3 C9_3 1_555 1_555
C8_3 N3_3 1_555 1_555
N5_3 C11_3 1_555 1_555
C14_3 C18_3 1_555 1_555
Cu3_3 Cl2_3 1_555 1_555
Cu1_4 Cl1_4 1_555 1_555
Cl1_4 Cu4_4 1_555 1_555
N1_4 Cu1_4 1_555 1_555
N2_4 C1_4 1_555 1_555
C1_4 H1_4 1_555 1_555
H2_4 C1_4 1_555 1_555
C2_4 N1_4 1_555 1_555
C3_4 H3_4 1_555 1_555
C4_4 C1_4 1_555 1_555
C5_4 N1_4 1_555 1_555
H4_4 C5_4 1_555 1_555
C6_4 C4_4 1_555 1_555
H5_4 C6_4 1_555 1_555
C7_4 C6_4 1_555 1_555
H6_4 C7_4 1_555 1_555
C8_4 C3_4 1_555 1_555
H7_4 C8_4 1_555 1_555
C9_4 N2_4 1_555 1_555
H8_4 C9_4 1_555 1_555
N3_4 C7_4 1_555 1_555
N4_4 C11_4 1_555 1_555
N5_4 C10_4 1_555 1_555
C10_4 H9_4 1_555 1_555
H10_4 C10_4 1_555 1_555
C11_4 C2_4 1_555 1_555
C12_4 H11_4 1_555 1_555
C13_4 C10_4 1_555 1_555
C14_4 N4_4 1_555 1_555
H12_4 C14_4 1_555 1_555
C15_4 C13_4 1_555 1_555
H13_4 C15_4 1_555 1_555
C16_4 C15_4 1_555 1_555
H14_4 C16_4 1_555 1_555
C17_4 C12_4 1_555 1_555
H15_4 C17_4 1_555 1_555
C18_4 N5_4 1_555 1_555
H16_4 C18_4 1_555 1_555
N6_4 C16_4 1_555 1_555
Cu3_2 N4_4 1_555 1_555
Cu4_4 Cl4_4 1_555 1_555
Cl4_4 Cu1_4 1_555 1_555
N7_4 Cu3_2 1_555 1_555
N8_4 Cu1_4 1_555 1_555
N2_4 C2_4 1_555 1_555
C3_4 C4_4 1_555 1_555
C5_4 C9_4 1_555 1_555
C8_4 N3_4 1_555 1_555
N5_4 C11_4 1_555 1_555
C12_4 C13_4 1_555 1_555
C14_4 C18_4 1_555 1_555
C17_4 N6_4 1_555 1_555
Cu1_5 Cl1_5 1_555 1_555
Cl1_5 Cu4_5 1_555 1_555
N1_5 Cu1_5 1_555 1_555
N2_5 C1_5 1_555 1_555
C1_5 H1_5 1_555 1_555
H2_5 C1_5 1_555 1_555
C2_5 N1_5 1_555 1_555
C3_5 H3_5 1_555 1_555
C4_5 C1_5 1_555 1_555
C5_5 N1_5 1_555 1_555
H4_5 C5_5 1_555 1_555
C6_5 C4_5 1_555 1_555
H5_5 C6_5 1_555 1_555
C7_5 C6_5 1_555 1_555
H6_5 C7_5 1_555 1_555
C8_5 C3_5 1_555 1_555
H7_5 C8_5 1_555 1_555
C9_5 N2_5 1_555 1_555
H8_5 C9_5 1_555 1_555
N3_5 C7_5 1_555 1_555
N4_5 C11_5 1_555 1_555
N5_5 C10_5 1_555 1_555
C10_5 H9_5 1_555 1_555
H10_5 C10_5 1_555 1_555
C11_5 C2_5 1_555 1_555
C12_5 H11_5 1_555 1_555
C13_5 C10_5 1_555 1_555
C14_5 N4_5 1_555 1_555
H12_5 C14_5 1_555 1_555
C15_5 C13_5 1_555 1_555
H13_5 C15_5 1_555 1_555
C16_5 C15_5 1_555 1_555
H14_5 C16_5 1_555 1_555
C17_5 C12_5 1_555 1_555
H15_5 C17_5 1_555 1_555
C18_5 N5_5 1_555 1_555
H16_5 C18_5 1_555 1_555
N6_5 C16_5 1_555 1_555
Cu3 N4_5 1_555 1_555
Cu4_5 Cl4_5 1_555 1_555
Cl4_5 Cu1_5 1_555 1_555
N7_5 Cu3 1_555 1_555
N2_5 C2_5 1_555 1_555
C3_5 C4_5 1_555 1_555
C5_5 C9_5 1_555 1_555
C8_5 N3_5 1_555 1_555
N5_5 C11_5 1_555 1_555
C12_5 C13_5 1_555 1_555
C14_5 C18_5 1_555 1_555
C17_5 N6_5 1_555 1_555
Cu1_6 Cl1_6 1_555 1_555
Cl1_6 Cu4_6 1_555 1_555
N1_6 Cu1_6 1_555 1_555
N2_6 C1_6 1_555 1_555
C1_6 H1_6 1_555 1_555
H2_6 C1_6 1_555 1_555
C2_6 N1_6 1_555 1_555
C3_6 H3_6 1_555 1_555
C4_6 C1_6 1_555 1_555
C5_6 N1_6 1_555 1_555
H4_6 C5_6 1_555 1_555
C6_6 C4_6 1_555 1_555
H5_6 C6_6 1_555 1_555
C7_6 C6_6 1_555 1_555
H6_6 C7_6 1_555 1_555
C8_6 C3_6 1_555 1_555
H7_6 C8_6 1_555 1_555
C9_6 N2_6 1_555 1_555
H8_6 C9_6 1_555 1_555
N3_6 C7_6 1_555 1_555
N4_6 C11_6 1_555 1_555
N5_6 C10_6 1_555 1_555
C10_6 H9_6 1_555 1_555
H10_6 C10_6 1_555 1_555
C11_6 C2_6 1_555 1_555
C12_6 H11_6 1_555 1_555
C13_6 C10_6 1_555 1_555
C14_6 N4_6 1_555 1_555
H12_6 C14_6 1_555 1_555
C15_6 C13_6 1_555 1_555
H13_6 C15_6 1_555 1_555
C16_6 C15_6 1_555 1_555
H14_6 C16_6 1_555 1_555
C17_6 C12_6 1_555 1_555
H15_6 C17_6 1_555 1_555
C18_6 N5_6 1_555 1_555
H16_6 C18_6 1_555 1_555
N6_6 C16_6 1_555 1_555
Cu3_3 N4_6 1_555 1_555
Cu4_6 Cl4_6 1_555 1_555
Cu5_6 N6_6 1_555 1_555
Cu6_6 N3_6 1_555 1_555
Cl4_6 Cu1_6 1_555 1_555
N7_6 Cu3_3 1_555 1_555
N2_6 C2_6 1_555 1_555
C3_6 C4_6 1_555 1_555
C5_6 C9_6 1_555 1_555
C8_6 N3_6 1_555 1_555
N5_6 C11_6 1_555 1_555
C12_6 C13_6 1_555 1_555
C14_6 C18_6 1_555 1_555
C17_6 N6_6 1_555 1_555
N4_7 C11_7 1_555 1_555
N5_7 C10_7 1_555 1_555
C10_7 H9_7 1_555 1_555
H10_7 C10_7 1_555 1_555
C12_7 H11_7 1_555 1_555
C13_7 C10_7 1_555 1_555
C14_7 N4_7 1_555 1_555
H12_7 C14_7 1_555 1_555
C15_7 C13_7 1_555 1_555
H13_7 C15_7 1_555 1_555
C16_7 C15_7 1_555 1_555
H14_7 C16_7 1_555 1_555
C17_7 C12_7 1_555 1_555
H15_7 C17_7 1_555 1_555
C18_7 N5_7 1_555 1_555
H16_7 C18_7 1_555 1_555
N6_7 C16_7 1_555 1_555
Cu4_3 N4_7 1_555 1_555
Cu5_7 N6_7 1_555 1_555
N5_7 C11_7 1_555 1_555
C12_7 C13_7 1_555 1_555
C14_7 C18_7 1_555 1_555
C17_7 N6_7 1_555 1_555
N1_7 Cu4_6 1_555 1_555
N2_7 C1_7 1_555 1_555
C1_7 H1_7 1_555 1_555
H2_7 C1_7 1_555 1_555
C2_7 N1_7 1_555 1_555
C3_7 H3_7 1_555 1_555
C4_7 C1_7 1_555 1_555
C5_7 N1_7 1_555 1_555
H4_7 C5_7 1_555 1_555
C6_7 C4_7 1_555 1_555
H5_7 C6_7 1_555 1_555
C7_7 C6_7 1_555 1_555
H6_7 C7_7 1_555 1_555
C8_7 C3_7 1_555 1_555
H7_7 C8_7 1_555 1_555
C9_7 N2_7 1_555 1_555
H8_7 C9_7 1_555 1_555
N3_7 C7_7 1_555 1_555
Cu6_7 N3_7 1_555 1_555
N2_7 C2_7 1_555 1_555
C3_7 C4_7 1_555 1_555
C5_7 C9_7 1_555 1_555
C8_7 N3_7 1_555 1_555
N1_8 Cu4_5 1_555 1_555
N2_8 C1_8 1_555 1_555
C1_8 H1_8 1_555 1_555
H2_8 C1_8 1_555 1_555
C2_8 N1_8 1_555 1_555
C3_8 H3_8 1_555 1_555
C4_8 C1_8 1_555 1_555
C5_8 N1_8 1_555 1_555
H4_8 C5_8 1_555 1_555
C6_8 C4_8 1_555 1_555
H5_8 C6_8 1_555 1_555
C7_8 C6_8 1_555 1_555
H6_8 C7_8 1_555 1_555
C8_8 C3_8 1_555 1_555
H7_8 C8_8 1_555 1_555
C9_8 N2_8 1_555 1_555
H8_8 C9_8 1_555 1_555
N3_8 C7_8 1_555 1_555
Cu6_8 N3_8 1_555 1_555
N2_8 C2_8 1_555 1_555
C3_8 C4_8 1_555 1_555
C5_8 C9_8 1_555 1_555
C8_8 N3_8 1_555 1_555
N4_8 C11_8 1_555 1_555
N5_8 C10_8 1_555 1_555
C10_8 H9_8 1_555 1_555
H10_8 C10_8 1_555 1_555
C12_8 H11_8 1_555 1_555
C13_8 C10_8 1_555 1_555
C14_8 N4_8 1_555 1_555
H12_8 C14_8 1_555 1_555
C15_8 C13_8 1_555 1_555
H13_8 C15_8 1_555 1_555
C16_8 C15_8 1_555 1_555
H14_8 C16_8 1_555 1_555
C17_8 C12_8 1_555 1_555
H15_8 C17_8 1_555 1_555
C18_8 N5_8 1_555 1_555
H16_8 C18_8 1_555 1_555
N6_8 C16_8 1_555 1_555
Cu4 N4_8 1_555 1_555
Cu5_8 N6_8 1_555 1_555
N5_8 C11_8 1_555 1_555
C12_8 C13_8 1_555 1_555
C14_8 C18_8 1_555 1_555
C17_8 N6_8 1_555 1_555
N1_9 Cu4_4 1_555 1_555
N2_9 C1_9 1_555 1_555
C1_9 H1_9 1_555 1_555
H2_9 C1_9 1_555 1_555
C2_9 N1_9 1_555 1_555
C3_9 H3_9 1_555 1_555
C4_9 C1_9 1_555 1_555
C5_9 N1_9 1_555 1_555
H4_9 C5_9 1_555 1_555
C6_9 C4_9 1_555 1_555
H5_9 C6_9 1_555 1_555
C7_9 C6_9 1_555 1_555
H6_9 C7_9 1_555 1_555
C8_9 C3_9 1_555 1_555
H7_9 C8_9 1_555 1_555
C9_9 N2_9 1_555 1_555
H8_9 C9_9 1_555 1_555
N3_9 C7_9 1_555 1_555
N4_9 C11_9 1_555 1_555
N5_9 C10_9 1_555 1_555
C10_9 H9_9 1_555 1_555
H10_9 C10_9 1_555 1_555
C11_9 C2_9 1_555 1_555
C12_9 H11_9 1_555 1_555
C13_9 C10_9 1_555 1_555
C14_9 N4_9 1_555 1_555
H12_9 C14_9 1_555 1_555
C15_9 C13_9 1_555 1_555
H13_9 C15_9 1_555 1_555
C16_9 C15_9 1_555 1_555
H14_9 C16_9 1_555 1_555
C17_9 C12_9 1_555 1_555
H15_9 C17_9 1_555 1_555
C18_9 N5_9 1_555 1_555
H16_9 C18_9 1_555 1_555
N6_9 C16_9 1_555 1_555
Cu4_2 N4_9 1_555 1_555
Cu5_9 N6_9 1_555 1_555
Cu6_9 N3_9 1_555 1_555
N7_9 Cu4_2 1_555 1_555
N8_9 Cu4_4 1_555 1_555
N2_9 C2_9 1_555 1_555
C3_9 C4_9 1_555 1_555
C5_9 C9_9 1_555 1_555
C8_9 N3_9 1_555 1_555
N5_9 C11_9 1_555 1_555
C12_9 C13_9 1_555 1_555
C14_9 C18_9 1_555 1_555
C17_9 N6_9 1_555 1_555
N2_10 C1_10 1_555 1_555
C1_10 H1_10 1_555 1_555
H2_10 C1_10 1_555 1_555
C2_10 N1_10 1_555 1_555
C3_10 H3_10 1_555 1_555
C4_10 C1_10 1_555 1_555
C5_10 N1_10 1_555 1_555
H4_10 C5_10 1_555 1_555
C6_10 C4_10 1_555 1_555
H5_10 C6_10 1_555 1_555
C7_10 C6_10 1_555 1_555
H6_10 C7_10 1_555 1_555
C8_10 C3_10 1_555 1_555
H7_10 C8_10 1_555 1_555
C9_10 N2_10 1_555 1_555
H8_10 C9_10 1_555 1_555
N7_9 C7_10 1_555 1_555
N4_10 C11_10 1_555 1_555
C11_10 C2_10 1_555 1_555
C14_10 N4_10 1_555 1_555
H12_10 C14_10 1_555 1_555
C15_10 C13_10 1_555 1_555
H13_10 C15_10 1_555 1_555
C16_10 C15_10 1_555 1_555
H14_10 C16_10 1_555 1_555
C18_10 N5_10 1_555 1_555
H16_10 C18_10 1_555 1_555
N8_2 C16_10 1_555 1_555
Cu6_8 N4_10 1_555 1_555
Cl3_4 Cu6_8 1_555 1_555
N2_10 C2_10 1_555 1_555
C3_10 C4_10 1_555 1_555
C5_10 C9_10 1_555 1_555
C8_10 N7_9 1_555 1_555
N5_10 C11_10 1_555 1_555
C14_10 C18_10 1_555 1_555
Cu5_3 Cl1_7 1_555 1_555
Cl1_7 Cu6_3 1_555 1_555
C10_10 H9_10 1_555 1_555
H10_10 C10_10 1_555 1_555
C12_10 H11_10 1_555 1_555
C17_10 C12_10 1_555 1_555
H15_10 C17_10 1_555 1_555
Cu6_3 Cl4_7 1_555 1_555
Cl4_7 Cu5_3 1_555 1_555
Cu5_8 Cl2_4 1_555 1_555
N2_11 C1_11 1_555 1_555
C1_11 H1_11 1_555 1_555
H2_11 C1_11 1_555 1_555
C2_11 N1_11 1_555 1_555
C3_11 H3_11 1_555 1_555
C4_11 C1_11 1_555 1_555
C5_11 N1_11 1_555 1_555
H4_11 C5_11 1_555 1_555
C6_11 C4_11 1_555 1_555
H5_11 C6_11 1_555 1_555
C7_11 C6_11 1_555 1_555
H6_11 C7_11 1_555 1_555
C8_11 C3_11 1_555 1_555
H7_11 C8_11 1_555 1_555
C9_11 N2_11 1_555 1_555
H8_11 C9_11 1_555 1_555
N7_7 C7_11 1_555 1_555
N4_11 C11_11 1_555 1_555
C11_11 C2_11 1_555 1_555
C14_11 N4_11 1_555 1_555
H12_11 C14_11 1_555 1_555
C15_11 C13_11 1_555 1_555
H13_11 C15_11 1_555 1_555
C16_11 C15_11 1_555 1_555
H14_11 C16_11 1_555 1_555
C18_11 N5_11 1_555 1_555
H16_11 C18_11 1_555 1_555
N8_3 C16_11 1_555 1_555
Cu6_9 N4_11 1_555 1_555
Cl2_5 Cu6_9 1_555 1_555
Cu5_9 Cl2_5 1_555 1_555
Cl3_5 Cu6_9 1_555 1_555
N2_11 C2_11 1_555 1_555
C3_11 C4_11 1_555 1_555
C5_11 C9_11 1_555 1_555
C8_11 N7_7 1_555 1_555
N5_11 C11_11 1_555 1_555
C14_11 C18_11 1_555 1_555
Cu5_9 Cl3_5 1_555 1_555
Cu5 Cl1_8 1_555 1_555
Cl1_8 Cu6 1_555 1_555
C10_11 H9_11 1_555 1_555
H10_11 C10_11 1_555 1_555
C12_11 H11_11 1_555 1_555
C17_11 C12_11 1_555 1_555
H15_11 C17_11 1_555 1_555
Cu6 Cl4_8 1_555 1_555
Cl4_8 Cu5 1_555 1_555
Cu5_7 Cl2_6 1_555 1_555
N2_12 C1_12 1_555 1_555
C1_12 H1_12 1_555 1_555
H2_12 C1_12 1_555 1_555
C2_12 N1_12 1_555 1_555
C3_12 H3_12 1_555 1_555
C4_12 C1_12 1_555 1_555
C5_12 N1_12 1_555 1_555
H4_12 C5_12 1_555 1_555
C6_12 C4_12 1_555 1_555
H5_12 C6_12 1_555 1_555
C7_12 C6_12 1_555 1_555
H6_12 C7_12 1_555 1_555
C8_12 C3_12 1_555 1_555
H7_12 C8_12 1_555 1_555
C9_12 N2_12 1_555 1_555
H8_12 C9_12 1_555 1_555
N7_8 C7_12 1_555 1_555
N4_12 C11_12 1_555 1_555
C11_12 C2_12 1_555 1_555
C14_12 N4_12 1_555 1_555
H12_12 C14_12 1_555 1_555
C15_12 C13_12 1_555 1_555
H13_12 C15_12 1_555 1_555
C16_12 C15_12 1_555 1_555
H14_12 C16_12 1_555 1_555
C18_12 N5_12 1_555 1_555
H16_12 C18_12 1_555 1_555
N8 C16_12 1_555 1_555
Cu6_7 N4_12 1_555 1_555
Cl3_6 Cu6_7 1_555 1_555
N2_12 C2_12 1_555 1_555
C3_12 C4_12 1_555 1_555
C5_12 C9_12 1_555 1_555
C8_12 N7_8 1_555 1_555
N5_12 C11_12 1_555 1_555
C14_12 C18_12 1_555 1_555
Cu5_2 Cl1_9 1_555 1_555
Cl1_9 Cu6_2 1_555 1_555
C10_12 H9_12 1_555 1_555
H10_12 C10_12 1_555 1_555
C12_12 H11_12 1_555 1_555
C17_12 C12_12 1_555 1_555
H15_12 C17_12 1_555 1_555
Cu6_2 Cl4_9 1_555 1_555
Cl4_9 Cu5_2 1_555 1_555
Cu5_6 Cl1_10 1_555 1_555
Cl1_10 Cu6_6 1_555 1_555
N1_13 Cu5_6 1_555 1_555
N2_13 C1_13 1_555 1_555
C1_13 H1_13 1_555 1_555
H2_13 C1_13 1_555 1_555
C2_13 N1_13 1_555 1_555
C3_13 H3_13 1_555 1_555
C4_13 C1_13 1_555 1_555
C5_13 N1_13 1_555 1_555
H4_13 C5_13 1_555 1_555
C6_13 C4_13 1_555 1_555
H5_13 C6_13 1_555 1_555
C7_13 C6_13 1_555 1_555
H6_13 C7_13 1_555 1_555
C8_13 C3_13 1_555 1_555
H7_13 C8_13 1_555 1_555
C9_13 N2_13 1_555 1_555
H8_13 C9_13 1_555 1_555
N8_8 C7_13 1_555 1_555
N4_13 C11_13 1_555 1_555
N5_13 C10_13 1_555 1_555
C10_13 H9_13 1_555 1_555
H10_13 C10_13 1_555 1_555
C11_13 C2_13 1_555 1_555
C12_13 H11_13 1_555 1_555
C13_13 C10_13 1_555 1_555
C14_13 N4_13 1_555 1_555
H12_13 C14_13 1_555 1_555
C15_13 C13_13 1_555 1_555
H13_13 C15_13 1_555 1_555
C16_13 C15_13 1_555 1_555
H14_13 C16_13 1_555 1_555
C17_13 C12_13 1_555 1_555
H15_13 C17_13 1_555 1_555
C18_13 N5_13 1_555 1_555
H16_13 C18_13 1_555 1_555
N8_5 C16_13 1_555 1_555
Cu5_9 N4_13 1_555 1_555
Cu6_6 Cl4_10 1_555 1_555
Cl4_10 Cu5_6 1_555 1_555
N2_13 C2_13 1_555 1_555
C3_13 C4_13 1_555 1_555
C5_13 C9_13 1_555 1_555
C8_13 N8_8 1_555 1_555
N5_13 C11_13 1_555 1_555
C12_13 C13_13 1_555 1_555
C14_13 C18_13 1_555 1_555
C17_13 N8_5 1_555 1_555
Cu5_4 Cl1_11 1_555 1_555
Cl1_11 Cu6_4 1_555 1_555
N1_14 Cu5_4 1_555 1_555
N2_14 C1_14 1_555 1_555
C1_14 H1_14 1_555 1_555
H2_14 C1_14 1_555 1_555
C2_14 N1_14 1_555 1_555
C3_14 H3_14 1_555 1_555
C4_14 C1_14 1_555 1_555
C5_14 N1_14 1_555 1_555
H4_14 C5_14 1_555 1_555
C6_14 C4_14 1_555 1_555
H5_14 C6_14 1_555 1_555
C7_14 C6_14 1_555 1_555
H6_14 C7_14 1_555 1_555
C8_14 C3_14 1_555 1_555
H7_14 C8_14 1_555 1_555
C9_14 N2_14 1_555 1_555
H8_14 C9_14 1_555 1_555
N8_7 C7_14 1_555 1_555
N4_14 C11_14 1_555 1_555
N5_14 C10_14 1_555 1_555
C10_14 H9_14 1_555 1_555
H10_14 C10_14 1_555 1_555
C11_14 C2_14 1_555 1_555
C12_14 H11_14 1_555 1_555
C13_14 C10_14 1_555 1_555
C14_14 N4_14 1_555 1_555
H12_14 C14_14 1_555 1_555
C15_14 C13_14 1_555 1_555
H13_14 C15_14 1_555 1_555
C16_14 C15_14 1_555 1_555
H14_14 C16_14 1_555 1_555
C17_14 C12_14 1_555 1_555
H15_14 C17_14 1_555 1_555
C18_14 N5_14 1_555 1_555
H16_14 C18_14 1_555 1_555
N8_6 C16_14 1_555 1_555
Cu5_8 N4_14 1_555 1_555
Cu6_4 Cl4_11 1_555 1_555
Cl4_11 Cu5_4 1_555 1_555
N2_14 C2_14 1_555 1_555
C3_14 C4_14 1_555 1_555
C5_14 C9_14 1_555 1_555
C8_14 N8_7 1_555 1_555
N5_14 C11_14 1_555 1_555
C12_14 C13_14 1_555 1_555
C14_14 C18_14 1_555 1_555
C17_14 N8_6 1_555 1_555
Cu5_5 Cl1_12 1_555 1_555
Cl1_12 Cu6_5 1_555 1_555
N1_15 Cu5_5 1_555 1_555
N2_15 C1_15 1_555 1_555
C1_15 H1_15 1_555 1_555
H2_15 C1_15 1_555 1_555
C2_15 N1_15 1_555 1_555
C3_15 H3_15 1_555 1_555
C4_15 C1_15 1_555 1_555
C5_15 N1_15 1_555 1_555
H4_15 C5_15 1_555 1_555
C6_15 C4_15 1_555 1_555
H5_15 C6_15 1_555 1_555
C7_15 C6_15 1_555 1_555
H6_15 C7_15 1_555 1_555
C8_15 C3_15 1_555 1_555
H7_15 C8_15 1_555 1_555
C9_15 N2_15 1_555 1_555
H8_15 C9_15 1_555 1_555
N8_9 C7_15 1_555 1_555
N4_15 C11_15 1_555 1_555
N5_15 C10_15 1_555 1_555
C10_15 H9_15 1_555 1_555
H10_15 C10_15 1_555 1_555
C11_15 C2_15 1_555 1_555
C12_15 H11_15 1_555 1_555
C13_15 C10_15 1_555 1_555
C14_15 N4_15 1_555 1_555
H12_15 C14_15 1_555 1_555
C15_15 C13_15 1_555 1_555
H13_15 C15_15 1_555 1_555
C16_15 C15_15 1_555 1_555
H14_15 C16_15 1_555 1_555
C17_15 C12_15 1_555 1_555
H15_15 C17_15 1_555 1_555
C18_15 N5_15 1_555 1_555
H16_15 C18_15 1_555 1_555
N8_4 C16_15 1_555 1_555
Cu5_7 N4_15 1_555 1_555
Cu6_5 Cl4_12 1_555 1_555
Cl4_12 Cu5_5 1_555 1_555
N2_15 C2_15 1_555 1_555
C3_15 C4_15 1_555 1_555
C5_15 C9_15 1_555 1_555
C8_15 N8_9 1_555 1_555
N5_15 C11_15 1_555 1_555
C12_15 C13_15 1_555 1_555
C14_15 C18_15 1_555 1_555
C17_15 N8_4 1_555 1_555
N1_16 Cu6_5 1_555 1_555
N2_16 C1_16 1_555 1_555
C1_16 H1_16 1_555 1_555
H2_16 C1_16 1_555 1_555
C2_16 N1_16 1_555 1_555
C3_16 H3_16 1_555 1_555
C4_16 C1_16 1_555 1_555
C5_16 N1_16 1_555 1_555
H4_16 C5_16 1_555 1_555
C6_16 C4_16 1_555 1_555
H5_16 C6_16 1_555 1_555
C7_16 C6_16 1_555 1_555
H6_16 C7_16 1_555 1_555
C8_16 C3_16 1_555 1_555
H7_16 C8_16 1_555 1_555
C9_16 N2_16 1_555 1_555
H8_16 C9_16 1_555 1_555
N7_3 C7_16 1_555 1_555
N2_16 C2_16 1_555 1_555
C3_16 C4_16 1_555 1_555
C5_16 C9_16 1_555 1_555
C8_16 N7_3 1_555 1_555
N4_16 C11_16 1_555 1_555
N5_16 C10_16 1_555 1_555
C10_16 H9_16 1_555 1_555
H10_16 C10_16 1_555 1_555
C12_16 H11_16 1_555 1_555
C13_16 C10_16 1_555 1_555
C14_16 N4_16 1_555 1_555
H12_16 C14_16 1_555 1_555
C15_16 C13_16 1_555 1_555
H13_16 C15_16 1_555 1_555
C16_16 C15_16 1_555 1_555
H14_16 C16_16 1_555 1_555
C17_16 C12_16 1_555 1_555
H15_16 C17_16 1_555 1_555
C18_16 N5_16 1_555 1_555
H16_16 C18_16 1_555 1_555
N7_6 C16_16 1_555 1_555
Cu6_2 N4_16 1_555 1_555
N5_16 C11_16 1_555 1_555
C12_16 C13_16 1_555 1_555
C14_16 C18_16 1_555 1_555
C17_16 N7_6 1_555 1_555
N4_17 C11_17 1_555 1_555
N5_17 C10_17 1_555 1_555
C10_17 H9_17 1_555 1_555
H10_17 C10_17 1_555 1_555
C12_17 H11_17 1_555 1_555
C13_17 C10_17 1_555 1_555
C14_17 N4_17 1_555 1_555
H12_17 C14_17 1_555 1_555
C15_17 C13_17 1_555 1_555
H13_17 C15_17 1_555 1_555
C16_17 C15_17 1_555 1_555
H14_17 C16_17 1_555 1_555
C17_17 C12_17 1_555 1_555
H15_17 C17_17 1_555 1_555
C18_17 N5_17 1_555 1_555
H16_17 C18_17 1_555 1_555
N7_5 C16_17 1_555 1_555
Cu6_3 N4_17 1_555 1_555
N5_17 C11_17 1_555 1_555
C12_17 C13_17 1_555 1_555
C14_17 C18_17 1_555 1_555
C17_17 N7_5 1_555 1_555
N1_17 Cu6_4 1_555 1_555
N2_17 C1_17 1_555 1_555
C1_17 H1_17 1_555 1_555
H2_17 C1_17 1_555 1_555
C2_17 N1_17 1_555 1_555
C3_17 H3_17 1_555 1_555
C4_17 C1_17 1_555 1_555
C5_17 N1_17 1_555 1_555
H4_17 C5_17 1_555 1_555
C6_17 C4_17 1_555 1_555
H5_17 C6_17 1_555 1_555
C7_17 C6_17 1_555 1_555
H6_17 C7_17 1_555 1_555
C8_17 C3_17 1_555 1_555
H7_17 C8_17 1_555 1_555
C9_17 N2_17 1_555 1_555
H8_17 C9_17 1_555 1_555
N7 C7_17 1_555 1_555
N2_17 C2_17 1_555 1_555
C3_17 C4_17 1_555 1_555
C5_17 C9_17 1_555 1_555
C8_17 N7 1_555 1_555
N1_18 Cu6_6 1_555 1_555
N2_18 C1_18 1_555 1_555
C1_18 H1_18 1_555 1_555
H2_18 C1_18 1_555 1_555
C2_18 N1_18 1_555 1_555
C3_18 H3_18 1_555 1_555
C4_18 C1_18 1_555 1_555
C5_18 N1_18 1_555 1_555
H4_18 C5_18 1_555 1_555
C6_18 C4_18 1_555 1_555
H5_18 C6_18 1_555 1_555
C7_18 C6_18 1_555 1_555
H6_18 C7_18 1_555 1_555
C8_18 C3_18 1_555 1_555
H7_18 C8_18 1_555 1_555
C9_18 N2_18 1_555 1_555
H8_18 C9_18 1_555 1_555
N7_2 C7_18 1_555 1_555
N4_18 C11_18 1_555 1_555
N5_18 C10_18 1_555 1_555
C10_18 H9_18 1_555 1_555
H10_18 C10_18 1_555 1_555
C11_18 C2_18 1_555 1_555
C12_18 H11_18 1_555 1_555
C13_18 C10_18 1_555 1_555
C14_18 N4_18 1_555 1_555
H12_18 C14_18 1_555 1_555
C15_18 C13_18 1_555 1_555
H13_18 C15_18 1_555 1_555
C16_18 C15_18 1_555 1_555
H14_18 C16_18 1_555 1_555
C17_18 C12_18 1_555 1_555
H15_18 C17_18 1_555 1_555
C18_18 N5_18 1_555 1_555
H16_18 C18_18 1_555 1_555
N7_4 C16_18 1_555 1_555
Cu6 N4_18 1_555 1_555
N2_18 C2_18 1_555 1_555
C3_18 C4_18 1_555 1_555
C5_18 C9_18 1_555 1_555
C8_18 N7_2 1_555 1_555
N5_18 C11_18 1_555 1_555
C12_18 C13_18 1_555 1_555
C14_18 C18_18 1_555 1_555
C17_18 N7_4 1_555 1_555

#END
