
###############################################################################
#
# This file contains modified crystal structure data generated from the
# MOF subset of the Cambridge Structural Database (CSD) v543 
# hosted by the Cambridge Crystallographic Data Centre (CCDC).
#
# This work is licensed under the Creative Commons
# Attribution-NonCommercial-ShareAlike 4.0 International License.
# To view a copy of this license, visit
# http://creativecommons.org/licenses/by-nc-sa/4.0/
# or send a letter to
# Creative Commons, PO Box 1866, Mountain View, CA 94042, USA.
#
# CIF created using the CSD Python API on 29 September 2022
# The structure has been converted into the P1 space group
# The structure has a 3D framework
# The original CSD entry JEJKEP is in the orthorhombic crystal system
# The framework has been calculated to contain at least 10.0% void space
# The void calculation uses a probe of radius 1.32A, grid spacing 0.4
#
###############################################################################

data_JEJKEP
_chemical_formula_moiety         '(C72 H56 Co8 N8 O34)n'
_symmetry_cell_setting           triclinic
_symmetry_space_group_name_H-M   'P 1'
_symmetry_Int_Tables_number      1
_space_group_name_Hall           'P 1'
loop_
_symmetry_equiv_pos_site_id
_symmetry_equiv_pos_as_xyz
1 x,y,z
_cell_length_a                   9.3582(19)
_cell_length_b                   10.953(2)
_cell_length_c                   24.370(5)
_cell_angle_alpha                90
_cell_angle_beta                 90
_cell_angle_gamma                90
_cell_volume                     2497.93
loop_
_atom_site_label
_atom_site_type_symbol
_atom_site_fract_x
_atom_site_fract_y
_atom_site_fract_z
O2 O 0.3539(2) 0.07694(19) 0.00924(10)
Co3 Co 0.25735(4) 0.22987(4) 0.038379(15)
H2 H 0.1502 0.0200 0.9327
Co1 Co 0.24265(4) 0.72987(4) 0.038379(15)
O1 O 0.3350(2) 0.8984(2) 0.05252(9)
O4 O 0.0616(2) 0.82765(19) 0.00837(8)
N1 N 0.1519(3) 0.7291(2) 0.11714(11)
C1 C 0.3355(3) 0.9641(3) 0.01039(13)
C5 C 0.0965(4) 0.8307(3) 0.13871(14)
H4 H 0.0995 0.9017 0.1178
C6 C 0.0355(4) 0.8368(3) 0.18982(15)
C7 C 0.0323(4) 0.7313(3) 0.22213(14)
C8 C 0.0885(5) 0.6258(4) 0.19965(15)
H6 H 0.0873 0.5532 0.2194
C9 C 0.1463(5) 0.6290(3) 0.14787(14)
H7 H 0.1836 0.5571 0.1335
O6 O 0.1650(2) 0.3984(2) 0.05252(9)
O7 O 0.1461(2) 0.57694(19) 0.00924(10)
O10 O 0.4384(2) 0.32765(19) 0.00837(8)
O12 O 0.4231(2) 0.6292(2) 0.06333(9)
O13 O 0.0769(2) 0.1292(2) 0.06333(9)
N3 N 0.3481(3) 0.2291(2) 0.11714(11)
C10 C 0.1645(3) 0.4641(3) 0.01039(13)
H12 H 0.0030 0.9096 0.2973
O3 O 0.3250(2) 0.77388(19) 0.95786(8)
C2 C 0.3123(3) 0.9039(3) 0.95416(12)
H1 H 0.3845 0.9346 0.9285
C3 C 0.1643(3) 0.9323(3) 0.93143(13)
H3 H 0.1619 0.9079 0.8932
C4 C 0.0414(3) 0.8723(3) 0.96047(12)
Co6 Co 0.75735(4) 0.27013(4) 0.961621(15)
O9 O 0.1750(2) 0.27388(19) 0.95786(8)
O11 O 0.5769(2) 0.3708(2) 0.93667(9)
C11 C 0.1877(3) 0.4039(3) 0.95416(12)
H8 H 0.1155 0.4346 0.9285
C12 C 0.3357(3) 0.4323(3) 0.93143(13)
H9 H 0.3498 0.5200 0.9327
H10 H 0.3381 0.4079 0.8932
C13 C 0.4586(3) 0.3723(3) 0.96047(12)
H5 H 0.9970 0.9096 0.2027
Co5 Co 0.75735(4) 0.72987(4) 0.461621(15)
N2 N 0.8481(3) 0.7291(2) 0.38286(11)
C14 C 0.9035(4) 0.8307(3) 0.36129(14)
H11 H 0.9005 0.9017 0.3822
C15 C 0.9645(4) 0.8368(3) 0.31018(15)
C16 C 0.9677(4) 0.7313(3) 0.27787(14)
C17 C 0.9115(5) 0.6258(4) 0.30035(15)
H13 H 0.9127 0.5532 0.2806
C18 C 0.8537(5) 0.6290(3) 0.35213(14)
H14 H 0.8164 0.5571 0.3665
O5 O 0.9231(2) 0.8708(2) 0.93667(9)
Co4 Co 0.74265(4) 0.77013(4) 0.961621(15)
Co2 Co 0.24265(4) 0.27013(4) 0.538379(15)
O6_2 O 0.3350(2) 0.1016(2) 0.55252(9)
O8 O 0.1461(2) 0.42306(19) 0.50924(10)
O9_2 O 0.3250(2) 0.22612(19) 0.45786(8)
O10_2 O 0.0616(2) 0.17235(19) 0.50837(8)
O13_2 O 0.4231(2) 0.3708(2) 0.56333(9)
N3_2 N 0.1519(3) 0.2709(2) 0.61714(11)
C10_2 C 0.3355(3) 0.0359(3) 0.51039(13)
C11_2 C 0.3123(3) 0.0961(3) 0.45416(12)
H8_2 H 0.3845 0.0654 0.4285
C12_2 C 0.1643(3) 0.0677(3) 0.43143(13)
H10_2 H 0.1619 0.0921 0.3932
C13_2 C 0.0414(3) 0.1277(3) 0.46047(12)
Co1_2 Co 0.25735(4) 0.77013(4) 0.538379(15)
O1_2 O 0.1650(2) 0.6016(2) 0.55252(9)
O3_2 O 0.1750(2) 0.72612(19) 0.45786(8)
O4_2 O 0.4384(2) 0.67235(19) 0.50837(8)
O5_2 O 0.5769(2) 0.6292(2) 0.43667(9)
N1_2 N 0.3481(3) 0.7709(2) 0.61714(11)
C1_2 C 0.1645(3) 0.5359(3) 0.51039(13)
C2_2 C 0.1877(3) 0.5961(3) 0.45416(12)
H1_2 H 0.1155 0.5654 0.4285
C3_2 C 0.3357(3) 0.5677(3) 0.43143(13)
H2_2 H 0.3498 0.4800 0.4327
H3_2 H 0.3381 0.5921 0.3932
C4_2 C 0.4586(3) 0.6277(3) 0.46047(12)
C5_2 C 0.4035(4) 0.6693(3) 0.63871(14)
H4_2 H 0.4005 0.5983 0.6178
C6_2 C 0.4645(4) 0.6632(3) 0.68982(15)
H5_2 H 0.5030 0.5904 0.7027
C7_2 C 0.4677(4) 0.7687(3) 0.72213(14)
C8_2 C 0.4115(5) 0.8742(4) 0.69965(15)
H6_2 H 0.4127 0.9468 0.7194
C9_2 C 0.3537(5) 0.8710(3) 0.64787(14)
H7_2 H 0.3164 0.9429 0.6335
O7_2 O 0.3539(2) 0.92306(19) 0.50924(10)
O12_2 O 0.0769(2) 0.8708(2) 0.56333(9)
N2_2 N 0.6519(3) 0.7709(2) 0.88286(11)
H9_2 H 0.1502 0.9800 0.4327
C14_2 C 0.5965(4) 0.6693(3) 0.86129(14)
H11_2 H 0.5995 0.5983 0.8822
C15_2 C 0.5355(4) 0.6632(3) 0.81018(15)
H12_2 H 0.4970 0.5904 0.7973
C16_2 C 0.5323(4) 0.7687(3) 0.77787(14)
C17_2 C 0.5885(5) 0.8742(4) 0.80035(15)
H13_2 H 0.5873 0.9468 0.7806
C18_2 C 0.6463(5) 0.8710(3) 0.85213(14)
H14_2 H 0.6836 0.9429 0.8665
Co6_2 Co 0.74265(4) 0.22987(4) 0.461621(15)
O11_2 O 0.9231(2) 0.1292(2) 0.43667(9)
O2_2 O 0.6461(2) 0.07694(19) 0.49076(10)
H2_3 H 0.8498 0.0200 0.5673
O1_3 O 0.6650(2) 0.8984(2) 0.44748(9)
O3_3 O 0.6750(2) 0.77388(19) 0.54214(8)
O4_3 O 0.9384(2) 0.82765(19) 0.49163(8)
C1_3 C 0.6645(3) 0.9641(3) 0.48961(13)
C2_3 C 0.6877(3) 0.9039(3) 0.54584(12)
H1_3 H 0.6155 0.9346 0.5715
C3_3 C 0.8357(3) 0.9323(3) 0.56857(13)
H3_3 H 0.8381 0.9079 0.6068
C4_3 C 0.9586(3) 0.8723(3) 0.53953(12)
O6_3 O 0.8350(2) 0.3984(2) 0.44748(9)
O7_3 O 0.8539(2) 0.57694(19) 0.49076(10)
O9_3 O 0.8250(2) 0.27388(19) 0.54214(8)
O10_3 O 0.5616(2) 0.32765(19) 0.49163(8)
N3_3 N 0.6519(3) 0.2291(2) 0.38286(11)
C10_3 C 0.8355(3) 0.4641(3) 0.48961(13)
C11_3 C 0.8123(3) 0.4039(3) 0.54584(12)
H8_3 H 0.8845 0.4346 0.5715
C12_3 C 0.6643(3) 0.4323(3) 0.56857(13)
H9_3 H 0.6502 0.5200 0.5673
H10_3 H 0.6619 0.4079 0.6068
C13_3 C 0.5414(3) 0.3723(3) 0.53953(12)
O9_4 O 0.6750(2) 0.22612(19) 0.04214(8)
C11_4 C 0.6877(3) 0.0961(3) 0.04584(12)
H8_4 H 0.6155 0.0654 0.0715
C12_4 C 0.8357(3) 0.0677(3) 0.06857(13)
H10_4 H 0.8381 0.0921 0.1068
C13_4 C 0.9586(3) 0.1277(3) 0.03953(12)
O6_4 O 0.6650(2) 0.1016(2) 0.94748(9)
O8_2 O 0.8539(2) 0.42306(19) 0.99076(10)
O10_4 O 0.9384(2) 0.17235(19) 0.99163(8)
N3_4 N 0.8481(3) 0.2709(2) 0.88286(11)
C10_4 C 0.6645(3) 0.0359(3) 0.98961(13)
O3_4 O 0.8250(2) 0.72612(19) 0.04214(8)
C2_4 C 0.8123(3) 0.5961(3) 0.04584(12)
H1_4 H 0.8845 0.5654 0.0715
C3_4 C 0.6643(3) 0.5677(3) 0.06857(13)
H2_4 H 0.6502 0.4800 0.0673
H3_4 H 0.6619 0.5921 0.1068
C4_4 C 0.5414(3) 0.6277(3) 0.03953(12)
H9_4 H 0.8498 0.9800 0.0673
O1_4 O 0.8350(2) 0.6016(2) 0.94748(9)
O4_4 O 0.5616(2) 0.67235(19) 0.99163(8)
C1_4 C 0.8355(3) 0.5359(3) 0.98961(13)
O7_4 O 0.6461(2) 0.92306(19) 0.99076(10)
H5_3 H 0.0030 0.0904 0.7973
C14_3 C 0.0965(4) 0.1693(3) 0.63871(14)
H11_3 H 0.0995 0.0983 0.6178
C15_3 C 0.0355(4) 0.1632(3) 0.68982(15)
C16_3 C 0.0323(4) 0.2687(3) 0.72213(14)
C17_3 C 0.0885(5) 0.3742(4) 0.69965(15)
H13_3 H 0.0873 0.4468 0.7194
C18_3 C 0.1463(5) 0.3710(3) 0.64787(14)
H14_3 H 0.1836 0.4429 0.6335
C5_3 C 0.9035(4) 0.1693(3) 0.86129(14)
H4_3 H 0.9005 0.0983 0.8822
C6_3 C 0.9645(4) 0.1632(3) 0.81018(15)
C7_3 C 0.9677(4) 0.2687(3) 0.77787(14)
C8_3 C 0.9115(5) 0.3742(4) 0.80035(15)
H6_3 H 0.9127 0.4468 0.7806
C9_3 C 0.8537(5) 0.3710(3) 0.85213(14)
H7_3 H 0.8164 0.4429 0.8665
H12_3 H 0.9970 0.0904 0.7027
C5_4 C 0.5965(4) 0.3307(3) 0.36129(14)
H4_4 H 0.5995 0.4017 0.3822
C6_4 C 0.5355(4) 0.3368(3) 0.31018(15)
H5_4 H 0.4970 0.4096 0.2973
C7_4 C 0.5323(4) 0.2313(3) 0.27787(14)
C8_4 C 0.5885(5) 0.1258(4) 0.30035(15)
H6_4 H 0.5873 0.0532 0.2806
C9_4 C 0.6463(5) 0.1290(3) 0.35213(14)
H7_4 H 0.6836 0.0571 0.3665
C14_4 C 0.4035(4) 0.3307(3) 0.13871(14)
H11_4 H 0.4005 0.4017 0.1178
C15_4 C 0.4645(4) 0.3368(3) 0.18982(15)
H12_4 H 0.5030 0.4096 0.2027
C16_4 C 0.4677(4) 0.2313(3) 0.22213(14)
C17_4 C 0.4115(5) 0.1258(4) 0.19965(15)
H13_4 H 0.4127 0.0532 0.2194
C18_4 C 0.3537(5) 0.1290(3) 0.14787(14)
H14_4 H 0.3164 0.0571 0.1335
loop_
_geom_bond_atom_site_label_1
_geom_bond_atom_site_label_2
_geom_bond_site_symmetry_1
_geom_bond_site_symmetry_2
Co3 O2 1_555 1_555
Co1 O1 1_555 1_555
O1 C1 1_555 1_555
O4 Co1 1_555 1_555
N1 Co1 1_555 1_555
C5 N1 1_555 1_555
H4 C5 1_555 1_555
C6 C5 1_555 1_555
C7 C6 1_555 1_555
C8 C7 1_555 1_555
H6 C8 1_555 1_555
C9 N1 1_555 1_555
H7 C9 1_555 1_555
Co3 O6 1_555 1_555
O6 C10 1_555 1_555
O7 Co1 1_555 1_555
O10 Co3 1_555 1_555
O12 Co1 1_555 1_555
O13 Co3 1_555 1_555
N3 Co3 1_555 1_555
C10 O7 1_555 1_555
C8 C9 1_555 1_555
C2 O3 1_555 1_555
H1 C2 1_555 1_555
C3 C2 1_555 1_555
H3 C3 1_555 1_555
Co6 O11 1_555 1_555
O11 C13 1_555 1_555
C11 O9 1_555 1_555
H8 C11 1_555 1_555
C12 C11 1_555 1_555
H9 C12 1_555 1_555
H10 C12 1_555 1_555
C3 C4 1_555 1_555
C12 C13 1_555 1_555
Co5 N2 1_555 1_555
N2 C14 1_555 1_555
C14 H11 1_555 1_555
C15 C14 1_555 1_555
C17 C16 1_555 1_555
H13 C17 1_555 1_555
C18 N2 1_555 1_555
H14 C18 1_555 1_555
C15 C16 1_555 1_555
C17 C18 1_555 1_555
Co4 O5 1_555 1_555
Co2 O6_2 1_555 1_555
O6_2 C10_2 1_555 1_555
O8 Co2 1_555 1_555
O9_2 Co2 1_555 1_555
O10_2 Co2 1_555 1_555
O13_2 Co2 1_555 1_555
N3_2 Co2 1_555 1_555
C11_2 O9_2 1_555 1_555
H8_2 C11_2 1_555 1_555
C12_2 C11_2 1_555 1_555
H10_2 C12_2 1_555 1_555
C13_2 O10_2 1_555 1_555
C10_2 C11_2 1_555 1_555
C12_2 C13_2 1_555 1_555
Co1_2 O1_2 1_555 1_555
O1_2 C1_2 1_555 1_555
O8 C1_2 1_555 1_555
O3_2 Co1_2 1_555 1_555
O4_2 Co1_2 1_555 1_555
O5_2 C4_2 1_555 1_555
N1_2 Co1_2 1_555 1_555
C1_2 C2_2 1_555 1_555
C2_2 O3_2 1_555 1_555
H1_2 C2_2 1_555 1_555
C3_2 C2_2 1_555 1_555
H2_2 C3_2 1_555 1_555
H3_2 C3_2 1_555 1_555
C4_2 O4_2 1_555 1_555
C5_2 N1_2 1_555 1_555
H4_2 C5_2 1_555 1_555
C6_2 C5_2 1_555 1_555
H5_2 C6_2 1_555 1_555
C7_2 C6_2 1_555 1_555
C8_2 C7_2 1_555 1_555
H6_2 C8_2 1_555 1_555
C9_2 N1_2 1_555 1_555
H7_2 C9_2 1_555 1_555
Co5 O5_2 1_555 1_555
Co4 N2_2 1_555 1_555
O7_2 Co1_2 1_555 1_555
O12_2 Co1_2 1_555 1_555
N2_2 C14_2 1_555 1_555
C14_2 H11_2 1_555 1_555
C15_2 C14_2 1_555 1_555
H12_2 C15_2 1_555 1_555
C16_2 C7_2 1_555 1_555
C17_2 C16_2 1_555 1_555
H13_2 C17_2 1_555 1_555
C18_2 N2_2 1_555 1_555
H14_2 C18_2 1_555 1_555
C3_2 C4_2 1_555 1_555
C8_2 C9_2 1_555 1_555
C15_2 C16_2 1_555 1_555
C17_2 C18_2 1_555 1_555
Co6_2 O11_2 1_555 1_555
Co6_2 O2_2 1_555 1_555
Co5 O1_3 1_555 1_555
O1_3 C1_3 1_555 1_555
O3_3 Co5 1_555 1_555
O4_3 Co5 1_555 1_555
C1_3 C2_3 1_555 1_555
C2_3 O3_3 1_555 1_555
H1_3 C2_3 1_555 1_555
C3_3 C2_3 1_555 1_555
H3_3 C3_3 1_555 1_555
C4_3 O4_3 1_555 1_555
Co6_2 O6_3 1_555 1_555
O6_3 C10_3 1_555 1_555
O7_3 Co5 1_555 1_555
O9_3 Co6_2 1_555 1_555
O10_3 Co6_2 1_555 1_555
O13_2 C13_3 1_555 1_555
N3_3 Co6_2 1_555 1_555
C10_3 O7_3 1_555 1_555
C11_3 O9_3 1_555 1_555
H8_3 C11_3 1_555 1_555
C12_3 C11_3 1_555 1_555
H9_3 C12_3 1_555 1_555
H10_3 C12_3 1_555 1_555
C13_3 O10_3 1_555 1_555
C3_3 C4_3 1_555 1_555
C10_3 C11_3 1_555 1_555
C12_3 C13_3 1_555 1_555
C11_4 O9_4 1_555 1_555
H8_4 C11_4 1_555 1_555
C12_4 C11_4 1_555 1_555
H10_4 C12_4 1_555 1_555
C12_4 C13_4 1_555 1_555
Co6 O6_4 1_555 1_555
O6_4 C10_4 1_555 1_555
O8_2 Co6 1_555 1_555
O10_4 Co6 1_555 1_555
N3_4 Co6 1_555 1_555
O12 C4_4 1_555 1_555
C2_4 O3_4 1_555 1_555
H1_4 C2_4 1_555 1_555
C3_4 C2_4 1_555 1_555
H2_4 C3_4 1_555 1_555
H3_4 C3_4 1_555 1_555
C3_4 C4_4 1_555 1_555
Co4 O1_4 1_555 1_555
O1_4 C1_4 1_555 1_555
O8_2 C1_4 1_555 1_555
O4_4 Co4 1_555 1_555
O7_4 Co4 1_555 1_555
N3_2 C14_3 1_555 1_555
C14_3 H11_3 1_555 1_555
C15_3 C14_3 1_555 1_555
C17_3 C16_3 1_555 1_555
H13_3 C17_3 1_555 1_555
C18_3 N3_2 1_555 1_555
H14_3 C18_3 1_555 1_555
C15_3 C16_3 1_555 1_555
C17_3 C18_3 1_555 1_555
C5_3 N3_4 1_555 1_555
H4_3 C5_3 1_555 1_555
C6_3 C5_3 1_555 1_555
C7_3 C6_3 1_555 1_555
C8_3 C7_3 1_555 1_555
H6_3 C8_3 1_555 1_555
C9_3 N3_4 1_555 1_555
H7_3 C9_3 1_555 1_555
C8_3 C9_3 1_555 1_555
C5_4 N3_3 1_555 1_555
H4_4 C5_4 1_555 1_555
C6_4 C5_4 1_555 1_555
H5_4 C6_4 1_555 1_555
C7_4 C6_4 1_555 1_555
C8_4 C7_4 1_555 1_555
H6_4 C8_4 1_555 1_555
C9_4 N3_3 1_555 1_555
H7_4 C9_4 1_555 1_555
N3 C14_4 1_555 1_555
C14_4 H11_4 1_555 1_555
C15_4 C14_4 1_555 1_555
H12_4 C15_4 1_555 1_555
C16_4 C7_4 1_555 1_555
C17_4 C16_4 1_555 1_555
H13_4 C17_4 1_555 1_555
C18_4 N3 1_555 1_555
H14_4 C18_4 1_555 1_555
C8_4 C9_4 1_555 1_555
C15_4 C16_4 1_555 1_555
C17_4 C18_4 1_555 1_555

#END
