
###############################################################################
#
# This file contains modified crystal structure data generated from the
# MOF subset of the Cambridge Structural Database (CSD) v543 
# hosted by the Cambridge Crystallographic Data Centre (CCDC).
#
# This work is licensed under the Creative Commons
# Attribution-NonCommercial-ShareAlike 4.0 International License.
# To view a copy of this license, visit
# http://creativecommons.org/licenses/by-nc-sa/4.0/
# or send a letter to
# Creative Commons, PO Box 1866, Mountain View, CA 94042, USA.
#
# CIF created using the CSD Python API on 29 September 2022
# The structure has been converted into the P1 space group
# The structure has a 3D framework
# The original CSD entry JEJWIF is in the triclinic crystal system
# The framework has been calculated to contain at least 10.0% void space
# The void calculation uses a probe of radius 1.32A, grid spacing 0.4
# H atom positions have been added when not included in the experimental data
#
###############################################################################

data_JEJWIF
_chemical_formula_moiety         '(C68 H44 Co8 N4 O16)n'
_symmetry_cell_setting           triclinic
_symmetry_space_group_name_H-M   'P 1'
_symmetry_Int_Tables_number      1
_space_group_name_Hall           'P 1'
loop_
_symmetry_equiv_pos_site_id
_symmetry_equiv_pos_as_xyz
1 x,y,z
_cell_length_a                   13.703(3)
_cell_length_b                   14.120(3)
_cell_length_c                   15.810(4)
_cell_angle_alpha                105.069(4)
_cell_angle_beta                 103.355(4)
_cell_angle_gamma                109.052(5)
_cell_volume                     2619.52
loop_
_atom_site_label
_atom_site_type_symbol
_atom_site_fract_x
_atom_site_fract_y
_atom_site_fract_z
Co3 Co -0.0000 0.0000 -0.0000
Co3_2 Co -0.0000 0.0000 1.0000
Co9 Co 0.02888(6) 0.10451(5) 0.83952(5)
Co3_3 Co -0.0000 1.0000 -0.0000
C3 C 0.0052(5) 0.3483(4) 0.6885(4)
H1 H 0.0773 0.3682 0.7277
H2 H 0.0421 0.4822 0.6591
O1 O 0.0451(4) 0.1995(3) 0.7626(3)
Co3_4 Co -0.0000 1.0000 1.0000
O12 O 0.1865(3) 0.1392(3) 0.9024(3)
O5 O 0.0364(4) 0.2657(3) 0.9618(3)
Co3_5 Co 1.0000 0.0000 -0.0000
Co3_6 Co 1.0000 0.0000 1.0000
Co3_7 Co 1.0000 1.0000 -0.0000
C1 C 0.9481(7) 0.1824(5) 0.7259(5)
C2 C 0.9267(5) 0.2534(4) 0.6753(4)
C4 C 0.9849(5) 0.4164(4) 0.6478(4)
C5 C 0.8759(5) 0.3879(4) 0.5873(4)
C6 C 0.7938(5) 0.2899(4) 0.5697(5)
H3 H 0.7221 0.2683 0.5289
C7 C 0.8205(6) 0.2224(5) 0.6152(5)
H4 H 0.7654 0.1555 0.6046
C9 C 0.3394(4) 0.1646(4) 0.0213(4)
C10 C 0.3815(5) 0.1704(4) 0.1099(4)
H5 H 0.3334 0.1479 0.1415
C11 C 0.4946(5) 0.2090(4) 0.1551(4)
H6 H 0.5224 0.2117 0.2163
C12 C 0.5650(4) 0.2429(4) 0.1091(4)
C13 C 0.5216(5) 0.2340(4) 0.0193(4)
C15 C 0.6958(4) 0.4089(4) 0.3029(4)
H9 H 0.6466 0.4316 0.2707
C16 C 0.7376(4) 0.4508(4) 0.3989(4)
H10 H 0.7157 0.5011 0.4318
C17 C 0.8114(4) 0.4199(4) 0.4476(4)
C18 C 0.8434(4) 0.3477(4) 0.3988(4)
H11 H 0.8947 0.3269 0.4307
C19 C 0.7995(4) 0.3047(4) 0.3008(4)
H12 H 0.8218 0.2549 0.2677
C20 C 0.7259(4) 0.3336(4) 0.2533(4)
C21 C 0.7491(4) 0.2633(4) 0.1052(4)
C22 C 0.8419(4) 0.3451(4) 0.1124(4)
H13 H 0.8588 0.4167 0.1481
C23 C 0.9099(5) 0.3217(4) 0.0671(4)
H14 H 0.9727 0.3779 0.0706
C24 C 0.8875(4) 0.2162(4) 0.0162(4)
C25 C 0.7955(5) 0.1357(4) 0.0117(4)
C26 C 0.7245(5) 0.1578(4) 0.0536(4)
H16 H 0.6598 0.1018 0.0475
C27 C 0.8742(4) 0.5616(4) 0.6030(4)
C28 C 0.8740(5) 0.5798(4) 0.6929(4)
H17 H 0.8543 0.5220 0.7137
C29 C 0.9032(5) 0.6839(4) 0.7529(4)
H18 H 0.9042 0.6956 0.8145
C30 C 0.9302(4) 0.7688(4) 0.7245(4)
C31 C 0.9275(4) 0.7486(4) 0.6342(4)
H19 H 0.9442 0.8063 0.6130
C32 C 0.9015(4) 0.6479(4) 0.5739(4)
H20 H 0.9021 0.6373 0.5128
C33 C 0.9642(5) 0.8809(5) 0.7917(5)
N1 N 0.8503(4) 0.4569(3) 0.5460(3)
N2 N 0.6801(4) 0.2872(3) 0.1548(3)
O2 O 0.8714(5) 0.1138(4) 0.7335(4)
O4 O 0.1600(3) 0.0880(3) 0.0209(3)
O6 O 0.9768(3) 0.9539(3) 0.7567(3)
O7 O 0.9762(3) 0.8922(3) 0.8746(3)
Co3_8 Co 1.0000 1.0000 1.0000
O21 O 0.0238(3) 0.1078(3) 0.1254(3)
O25 O 0.9438(3) 0.0942(3) 0.9279(3)
H41 H 0.819344 0.0624925 0.670446
C8 C 0.2192(5) 0.1269(4) 0.9785(5)
H7 H 0.5686 0.2543 0.9862
C14 C 0.4104(5) 0.1958(4) 0.9769(4)
H8 H 0.3824 0.1910 0.9151
H15 H 0.7807 0.0638 0.9791
C34 C 0.9629(5) 0.1934(5) 0.9680(4)
O24 O 0.0562(3) 0.9058(3) 0.0721(3)
O18 O 0.0232(3) 0.0461(3) 0.2433(3)
Co11 Co 0.97112(6) 0.89549(5) 0.16048(5)
C42 C 0.7808(5) 0.8731(4) 0.0215(5)
H27 H 0.4314 0.7457 0.0138
C48 C 0.5896(5) 0.8042(4) 0.0231(4)
H28 H 0.6176 0.8090 0.0849
H35 H 0.2193 0.9362 0.0209
C68 C 0.0371(5) 0.8066(5) 0.0320(4)
O11 O 0.8135(3) 0.8608(3) 0.0976(3)
C35 C 0.0519(7) 0.8176(5) 0.2741(5)
C36 C 0.0733(5) 0.7466(4) 0.3247(4)
C38 C 0.0151(5) 0.5836(4) 0.3522(4)
C39 C 0.1241(5) 0.6121(4) 0.4127(4)
C40 C 0.2062(5) 0.7101(4) 0.4303(5)
H23 H 0.2779 0.7317 0.4711
C41 C 0.1795(6) 0.7776(5) 0.3848(5)
H24 H 0.2346 0.8445 0.3954
C43 C 0.6606(4) 0.8354(4) 0.9787(4)
C44 C 0.6185(5) 0.8296(4) 0.8901(4)
H25 H 0.6666 0.8521 0.8585
C45 C 0.5054(5) 0.7910(4) 0.8449(4)
H26 H 0.4776 0.7883 0.7837
C46 C 0.4350(4) 0.7571(4) 0.8909(4)
C47 C 0.4784(5) 0.7660(4) 0.9807(4)
C49 C 0.3042(4) 0.5911(4) 0.6971(4)
H29 H 0.3534 0.5684 0.7293
C50 C 0.2624(4) 0.5492(4) 0.6011(4)
H30 H 0.2843 0.4989 0.5682
C51 C 0.1886(4) 0.5801(4) 0.5524(4)
C52 C 0.1566(4) 0.6523(4) 0.6012(4)
H31 H 0.1053 0.6731 0.5693
C53 C 0.2005(4) 0.6953(4) 0.6992(4)
H32 H 0.1782 0.7451 0.7323
C54 C 0.2741(4) 0.6664(4) 0.7467(4)
C55 C 0.2509(4) 0.7367(4) 0.8948(4)
C56 C 0.1581(4) 0.6549(4) 0.8876(4)
H33 H 0.1412 0.5833 0.8519
C57 C 0.0901(5) 0.6783(4) 0.9329(4)
H34 H 0.0273 0.6221 0.9294
C58 C 0.1125(4) 0.7838(4) 0.9838(4)
C59 C 0.2045(5) 0.8643(4) 0.9883(4)
C60 C 0.2755(5) 0.8422(4) 0.9464(4)
H36 H 0.3402 0.8982 0.9525
C61 C 0.1258(4) 0.4384(4) 0.3970(4)
C62 C 0.1260(5) 0.4202(4) 0.3071(4)
H37 H 0.1457 0.4780 0.2863
C63 C 0.0968(5) 0.3161(4) 0.2471(4)
H38 H 0.0958 0.3044 0.1855
C64 C 0.0698(4) 0.2312(4) 0.2755(4)
C65 C 0.0725(4) 0.2514(4) 0.3658(4)
H39 H 0.0558 0.1937 0.3870
C66 C 0.0985(4) 0.3521(4) 0.4261(4)
H40 H 0.0979 0.3627 0.4872
C67 C 0.0358(5) 0.1191(5) 0.2083(5)
N3 N 0.1497(4) 0.5431(3) 0.4540(3)
N4 N 0.3199(4) 0.7128(3) 0.8452(3)
O10 O 0.1286(5) 0.8862(4) 0.2665(4)
O14 O 0.8400(3) 0.9120(3) 0.9791(3)
H42 H 0.167507 0.850819 0.232701
O15 O 0.9636(4) 0.7343(3) 0.0382(3)
C37 C 0.9948(5) 0.6517(4) 0.3115(4)
H21 H 0.9227 0.6318 0.2723
H22 H 0.9579 0.5178 0.3409
O9 O 0.9549(4) 0.8005(3) 0.2374(3)
H42_2 H 0.832493 0.149181 0.767299
H41_2 H 0.180656 0.937507 0.329554
loop_
_geom_bond_atom_site_label_1
_geom_bond_atom_site_label_2
_geom_bond_site_symmetry_1
_geom_bond_site_symmetry_2
Co9 O1 1_555 1_555
C3 H1 1_555 1_555
O12 Co9 1_555 1_555
Co3 O4 1_555 1_555
C1 C2 1_555 1_555
C5 C4 1_555 1_555
C6 C5 1_555 1_555
H3 C6 1_555 1_555
C7 C2 1_555 1_555
H4 C7 1_555 1_555
C9 C10 1_555 1_555
C10 H5 1_555 1_555
C11 C10 1_555 1_555
H6 C11 1_555 1_555
C12 C11 1_555 1_555
C13 C12 1_555 1_555
C15 H9 1_555 1_555
C16 C15 1_555 1_555
H10 C16 1_555 1_555
C17 C16 1_555 1_555
C18 C17 1_555 1_555
H11 C18 1_555 1_555
C19 C18 1_555 1_555
H12 C19 1_555 1_555
C20 C15 1_555 1_555
C21 C22 1_555 1_555
C22 H13 1_555 1_555
C23 C22 1_555 1_555
H14 C23 1_555 1_555
C24 C23 1_555 1_555
C25 C24 1_555 1_555
C26 C21 1_555 1_555
H16 C26 1_555 1_555
C27 C28 1_555 1_555
C28 H17 1_555 1_555
C29 C28 1_555 1_555
H18 C29 1_555 1_555
C30 C29 1_555 1_555
C31 C30 1_555 1_555
H19 C31 1_555 1_555
C32 C27 1_555 1_555
H20 C32 1_555 1_555
C33 C30 1_555 1_555
N1 C5 1_555 1_555
N2 C12 1_555 1_555
O2 C1 1_555 1_555
O6 C33 1_555 1_555
O7 C33 1_555 1_555
Co3_8 O7 1_555 1_555
O21 Co3 1_555 1_555
C6 C7 1_555 1_555
C17 N1 1_555 1_555
C19 C20 1_555 1_555
C20 N2 1_555 1_555
C21 N2 1_555 1_555
C25 C26 1_555 1_555
C27 N1 1_555 1_555
C31 C32 1_555 1_555
O2 H41 1_555 1_555
H8 C14 1_555 1_555
O12 C8 1_555 1_555
O25 C34 1_555 1_555
Co3_6 O25 1_555 1_555
O24 Co3_3 1_555 1_555
Co11 O11 1_555 1_555
H28 C48 1_555 1_555
O11 C42 1_555 1_555
O24 C68 1_555 1_555
C35 C36 1_555 1_555
C39 C38 1_555 1_555
C40 C39 1_555 1_555
H23 C40 1_555 1_555
C41 C36 1_555 1_555
H24 C41 1_555 1_555
C43 C44 1_555 1_555
C44 H25 1_555 1_555
C45 C44 1_555 1_555
H26 C45 1_555 1_555
C46 C45 1_555 1_555
C47 C46 1_555 1_555
C49 H29 1_555 1_555
C50 C49 1_555 1_555
H30 C50 1_555 1_555
C51 C50 1_555 1_555
C52 C51 1_555 1_555
H31 C52 1_555 1_555
C53 C52 1_555 1_555
H32 C53 1_555 1_555
C54 C49 1_555 1_555
C55 C56 1_555 1_555
C56 H33 1_555 1_555
C57 C56 1_555 1_555
H34 C57 1_555 1_555
C58 C57 1_555 1_555
C59 C58 1_555 1_555
C60 C55 1_555 1_555
H36 C60 1_555 1_555
C61 C62 1_555 1_555
C62 H37 1_555 1_555
C63 C62 1_555 1_555
H38 C63 1_555 1_555
C64 C63 1_555 1_555
C65 C64 1_555 1_555
H39 C65 1_555 1_555
C66 C61 1_555 1_555
H40 C66 1_555 1_555
C67 C64 1_555 1_555
N3 C39 1_555 1_555
N4 C46 1_555 1_555
O10 C35 1_555 1_555
O14 Co3_8 1_555 1_555
O18 C67 1_555 1_555
O21 C67 1_555 1_555
C40 C41 1_555 1_555
C51 N3 1_555 1_555
C53 C54 1_555 1_555
C54 N4 1_555 1_555
C55 N4 1_555 1_555
C59 C60 1_555 1_555
C61 N3 1_555 1_555
C65 C66 1_555 1_555
O10 H42 1_555 1_555
Co11 O9 1_555 1_555
C37 H21 1_555 1_555
O2 H42_2 1_555 1_555
O10 H41_2 1_555 1_555

#END
