
###############################################################################
#
# This file contains modified crystal structure data generated from the
# MOF subset of the Cambridge Structural Database (CSD) v543 
# hosted by the Cambridge Crystallographic Data Centre (CCDC).
#
# This work is licensed under the Creative Commons
# Attribution-NonCommercial-ShareAlike 4.0 International License.
# To view a copy of this license, visit
# http://creativecommons.org/licenses/by-nc-sa/4.0/
# or send a letter to
# Creative Commons, PO Box 1866, Mountain View, CA 94042, USA.
#
# CIF created using the CSD Python API on 29 September 2022
# The structure has been converted into the P1 space group
# The structure has a 3D framework
# The original CSD entry JEJWOL is in the triclinic crystal system
# The framework has been calculated to contain at least 10.0% void space
# The void calculation uses a probe of radius 1.32A, grid spacing 0.4
# H atom positions have been added when not included in the experimental data
#
###############################################################################

data_JEJWOL
_chemical_formula_moiety         '(C114 H96 N6 Nd4 O30 S6)n'
_symmetry_cell_setting           triclinic
_symmetry_space_group_name_H-M   'P 1'
_symmetry_Int_Tables_number      1
_space_group_name_Hall           'P 1'
loop_
_symmetry_equiv_pos_site_id
_symmetry_equiv_pos_as_xyz
1 x,y,z
_cell_length_a                   15.156(3)
_cell_length_b                   15.657(2)
_cell_length_c                   26.967(4)
_cell_angle_alpha                81.603(16)
_cell_angle_beta                 78.042(12)
_cell_angle_gamma                73.529(12)
_cell_volume                     5977.39
loop_
_atom_site_label
_atom_site_type_symbol
_atom_site_fract_x
_atom_site_fract_y
_atom_site_fract_z
Nd13 Nd 0.04501(4) 0.14412(3) 0.674480(18)
Nd1 Nd 0.13391(3) 0.77203(3) 0.207569(18)
S1 S 0.1158(3) 0.8603(2) 0.08283(12)
O1 O 0.1455(5) 0.6089(4) 0.2264(2)
O2 O 0.1104(4) 0.6759(4) 0.1495(2)
O5 O 0.0736(5) 0.2397(4) 0.5917(2)
O6 O 0.1330(5) 0.2590(4) 0.6546(2)
O11 O 0.0972(4) 0.7384(4) 0.3087(2)
O12 O 0.2387(5) 0.7354(5) 0.2718(2)
O13 O 0.0677(4) 0.8711(4) 0.1379(2)
N1 N 0.1390(6) 0.2703(5) 0.1182(3)
N3 N 0.3221(6) 0.5116(6) 0.4827(3)
C1 C 0.1283(6) 0.6062(6) 0.1805(4)
C2 C 0.0300(12) 0.8496(13) 0.0524(5)
H1 H 0.0160 0.7931 0.0640
H2 H 0.0518 0.8525 0.0163
C3 C 0.1269(7) 0.5189(6) 0.1658(3)
C4 C 0.1257(10) 0.9679(8) 0.0562(4)
H4 H 0.1726 0.9831 0.0697
H6 H 0.1432 0.9682 0.0199
C5 C 0.1520(7) 0.4392(6) 0.1995(3)
H7 H 0.1655 0.4416 0.2313
C6 C 0.1553(8) 0.3592(6) 0.1827(4)
H8 H 0.1730 0.3068 0.2036
C7 C 0.1336(7) 0.3535(6) 0.1364(4)
C8 C 0.1067(7) 0.4329(6) 0.1033(3)
H9 H 0.0924 0.4310 0.0717
C9 C 0.1033(7) 0.5130(6) 0.1210(3)
H10 H 0.0836 0.5657 0.1008
C17 C 0.1234(7) 0.2763(7) 0.6095(4)
C18 C 0.1736(6) 0.3390(6) 0.5764(3)
C19 C 0.2256(7) 0.3791(7) 0.5956(4)
H15 H 0.2297 0.3668 0.6300
C20 C 0.2732(7) 0.4380(7) 0.5658(4)
H16 H 0.3070 0.4659 0.5803
C21 C 0.2695(7) 0.4548(7) 0.5133(4)
C22 C 0.2166(7) 0.4117(7) 0.4932(4)
H17 H 0.2130 0.4225 0.4587
C23 C 0.1704(7) 0.3539(7) 0.5237(4)
H18 H 0.1371 0.3247 0.5097
C29 C 0.0595(7) 0.0649(6) 0.2183(3)
C30 C 0.1329(7) 0.0453(6) 0.1795(4)
C31 C 0.1602(7) 0.1129(6) 0.1469(3)
H22 H 0.2104 0.0987 0.1204
C32 C 0.4091(7) 0.5058(8) 0.4912(4)
C33 C 0.4730(7) 0.4227(7) 0.4997(4)
H23 H 0.4560 0.3700 0.5001
C34 C 0.4382(8) 0.5805(8) 0.4925(4)
H24 H 0.3965 0.6362 0.4879
C35 C 0.2858(7) 0.5635(7) 0.4411(3)
C36 C 0.1912(7) 0.6066(7) 0.4425(4)
H25 H 0.1495 0.6020 0.4727
C37 C 0.1575(7) 0.6562(6) 0.3999(3)
H26 H 0.0937 0.6806 0.4011
C38 C 0.3115(7) 0.6314(7) 0.3555(3)
H27 H 0.3538 0.6400 0.3261
C39 C 0.3442(7) 0.5809(7) 0.3977(4)
H28 H 0.4083 0.5581 0.3963
C40 C 0.1810(7) 0.7177(6) 0.3118(3)
C41 C 0.2190(7) 0.6687(7) 0.3562(3)
C44 C 0.1507(7) 0.2109(6) 0.0380(4)
H30 H 0.0998 0.1886 0.0533
C45 C 0.1828(7) 0.2557(5) 0.0668(3)
C46 C 0.2594(7) 0.2883(6) 0.0430(4)
H31 H 0.2841 0.3190 0.0613
C51 C 0.1158(7) 0.1986(6) 0.1528(3)
C52 C 0.0389(8) 0.2222(6) 0.1918(4)
H35 H 0.0069 0.2818 0.1949
C53 C 0.0111(8) 0.1547(6) 0.2259(3)
Nd6 Nd 0.86609(3) 0.22797(3) 0.792431(18)
Nd12 Nd 0.95499(4) 0.85588(3) 0.325520(18)
O20 O 0.9264(5) 0.7603(4) 0.4083(2)
O23 O 0.8670(5) 0.7410(4) 0.3454(2)
O27 O 0.0722(4) 0.9096(4) 0.24889(18)
O33 O 0.2563(4) 0.8434(4) 0.1625(2)
O36 O 0.2960(5) 0.6962(4) 0.1644(3)
O38 O 0.9028(4) 0.2616(4) 0.6913(2)
O40 O 0.7613(5) 0.2646(5) 0.7282(2)
O43 O 0.0523(6) 0.8895(5) 0.3744(3)
N6 N 0.6779(6) 0.4884(6) 0.5173(3)
C74 C 0.8766(7) 0.7237(7) 0.3905(4)
C75 C 0.8264(6) 0.6610(6) 0.4236(3)
C76 C 0.7744(7) 0.6209(7) 0.4044(4)
H51 H 0.7703 0.6332 0.3700
C77 C 0.7268(7) 0.5620(7) 0.4342(4)
H52 H 0.6930 0.5341 0.4197
C78 C 0.7305(7) 0.5452(7) 0.4867(4)
C79 C 0.7834(7) 0.5883(7) 0.5068(4)
H53 H 0.7870 0.5775 0.5413
C80 C 0.8296(7) 0.6461(7) 0.4763(4)
H54 H 0.8629 0.6753 0.4903
C89 C 0.5909(7) 0.4942(8) 0.5088(4)
C90 C 0.5270(7) 0.5773(7) 0.5003(4)
H59 H 0.5440 0.6300 0.4999
C91 C 0.5618(8) 0.4195(8) 0.5075(4)
H60 H 0.6035 0.3638 0.5121
C92 C 0.7142(7) 0.4365(7) 0.5589(3)
C93 C 0.8088(7) 0.3934(7) 0.5575(4)
H61 H 0.8505 0.3980 0.5273
C94 C 0.8425(7) 0.3438(6) 0.6001(3)
H62 H 0.9063 0.3194 0.5989
C95 C 0.6885(7) 0.3686(7) 0.6445(3)
H63 H 0.6462 0.3600 0.6739
C96 C 0.6558(7) 0.4191(7) 0.6023(4)
H64 H 0.5917 0.4419 0.6037
C97 C 0.8190(7) 0.2823(6) 0.6882(3)
C98 C 0.7810(7) 0.3313(7) 0.6438(3)
S5 S 0.1092(6) 0.9425(5) 0.3796(3)
C111 C 0.2001(18) 0.8648(15) 0.4178(12)
C114 C 0.091(4) 0.981(4) 0.422(2)
H91 H 0.0966066 0.929991 0.454135
H94 H 0.239153 0.807453 0.396786
H95 H 0.247977 0.901236 0.423678
H96 H 0.164557 0.841786 0.454532
O3 O 0.1585(4) 0.1041(4) 0.7344(2)
O4 O 0.0356(3) 0.2096(4) 0.7605(2)
O9 O 0.7437(4) 0.1566(4) 0.8375(2)
O10 O 0.7040(5) 0.3038(4) 0.8356(3)
O15 O 0.1730(6) 0.0537(5) 0.6244(3)
N2 N 0.3030(5) 0.2210(6) 0.9128(3)
C10 C 0.1171(6) 0.1628(6) 0.7638(3)
C11 C 0.1644(6) 0.1814(6) 0.8032(3)
C12 C 0.1158(6) 0.2371(6) 0.8415(3)
H11 H 0.0524 0.2644 0.8430
C13 C 0.1603(6) 0.2508(6) 0.8755(3)
H12 H 0.1278 0.2902 0.8998
C14 C 0.2570(6) 0.2072(7) 0.8763(4)
C15 C 0.3050(7) 0.1550(7) 0.8373(4)
H13 H 0.3691 0.1300 0.8347
C16 C 0.2584(7) 0.1397(7) 0.8022(4)
H14 H 0.2903 0.1009 0.7775
C24 C 0.6831(6) 0.2311(7) 0.8443(3)
C25 C 0.5132(6) 0.2995(7) 0.8491(4)
H19 H 0.5273 0.3483 0.8280
C26 C 0.5835(6) 0.2300(6) 0.8636(3)
C27 C 0.5617(6) 0.1594(7) 0.8944(4)
H20 H 0.6098 0.1119 0.9039
C42 C 0.2615(6) 0.2330(6) 0.9654(3)
C43 C 0.1869(7) 0.1963(6) 0.9893(4)
H29 H 0.1634 0.1630 0.9719
C47 C 0.2978(7) 0.2763(6) 0.9945(4)
H32 H 0.3497 0.2974 0.9800
C48 C 0.4205(7) 0.2974(8) 0.8658(4)
H33 H 0.3725 0.3453 0.8566
C49 C 0.3996(6) 0.2226(7) 0.8967(3)
C50 C 0.4709(7) 0.1562(7) 0.9119(4)
H34 H 0.4582 0.1084 0.9343
S3 S 0.2530(8) 0.0462(9) 0.5868(5)
C55 C 0.220(3) 0.062(3) 0.5210(8)
O29 O 0.0425(5) 0.9878(4) 0.7076(2)
H39 H 0.0254 0.1028 0.9399
H72 H 0.0381 0.8315 0.7471
H73 H 0.172543 0.12801 0.515433
H74 H 0.282797 0.0560194 0.492083
H75 H 0.185797 0.0110026 0.517871
H82 H 0.184914 0.0231437 0.540518
C28 C 0.0279(7) 0.9920(6) 0.2592(3)
H21 H 0.1648 0.9860 0.1749
C56 C 0.248(6) 0.995(4) 0.557(4)
H83 H 0.308968 0.986757 0.526773
H84 H 0.245733 0.930198 0.577576
O31 O 0.9575(5) 0.0122(4) 0.2924(2)
C113 C 0.752(6) 0.005(4) 0.443(4)
H88 H 0.754267 0.0698017 0.422424
H89 H 0.691032 0.013243 0.473227
O26 O 0.9278(4) 0.0904(4) 0.75111(18)
C85 C 0.9721(7) 0.0080(6) 0.7408(3)
H57 H 0.8352 0.0140 0.8251
H3 H 0.9746 0.8972 0.0601
H36 H 0.9619 0.1685 0.2529
O18 O 0.8415(4) 0.8959(4) 0.2656(2)
O19 O 0.9644(3) 0.7904(4) 0.2395(2)
O44 O 0.8270(6) 0.9463(5) 0.3756(3)
N5 N 0.6970(5) 0.7790(6) 0.0872(3)
C67 C 0.8829(6) 0.8372(6) 0.2362(3)
C68 C 0.8356(6) 0.8186(6) 0.1968(3)
C69 C 0.8842(6) 0.7629(6) 0.1585(3)
H47 H 0.9476 0.7356 0.1570
C70 C 0.8397(6) 0.7492(6) 0.1245(3)
H48 H 0.8722 0.7098 0.1002
C71 C 0.7430(6) 0.7928(7) 0.1237(4)
C72 C 0.6950(7) 0.8450(7) 0.1627(4)
H49 H 0.6309 0.8700 0.1653
C73 C 0.7416(7) 0.8603(7) 0.1978(4)
H50 H 0.7097 0.8991 0.2225
C81 C 0.3169(6) 0.7689(7) 0.1557(3)
C82 C 0.4868(6) 0.7005(7) 0.1509(4)
H55 H 0.4727 0.6517 0.1720
C83 C 0.4165(6) 0.7700(6) 0.1364(3)
C84 C 0.4383(6) 0.8406(7) 0.1056(4)
H56 H 0.3902 0.8881 0.0961
C99 C 0.7385(6) 0.7670(6) 0.0346(3)
C100 C 0.8131(7) 0.8037(6) 0.0107(4)
H65 H 0.8366 0.8370 0.0281
C104 C 0.7022(7) 0.7237(6) 0.0055(4)
H68 H 0.6503 0.7026 0.0200
C105 C 0.5795(7) 0.7026(8) 0.1342(4)
H69 H 0.6275 0.6547 0.1434
C106 C 0.6004(6) 0.7774(7) 0.1033(3)
C107 C 0.5291(7) 0.8438(7) 0.0881(4)
H70 H 0.5418 0.8916 0.0657
S6 S 0.7470(8) 0.9538(9) 0.4132(5)
C112 C 0.780(3) 0.938(3) 0.4790(8)
H85 H 0.814203 0.988997 0.482129
H86 H 0.717203 0.943981 0.507917
H87 H 0.827457 0.87199 0.484567
H90 H 0.815086 0.976856 0.459482
O14 O 0.9477(6) 0.1105(5) 0.6256(3)
S2 S 0.8908(6) 0.0575(5) 0.6204(3)
C54 C 0.7999(18) 0.1352(15) 0.5822(12)
C57 C 0.909(4) 0.019(4) 0.578(2)
S4 S 0.8842(3) 0.1397(2) 0.91717(12)
O16 O 0.8545(5) 0.3911(4) 0.7736(2)
O17 O 0.8896(4) 0.3241(4) 0.8505(2)
O42 O 0.9323(4) 0.1289(4) 0.8621(2)
N4 N 0.8610(6) 0.7297(5) 0.8818(3)
C58 C 0.8717(6) 0.3938(6) 0.8195(4)
C59 C 0.9700(12) 0.1504(13) 0.9476(5)
H37 H 0.9840 0.2069 0.9360
H38 H 0.9482 0.1475 0.9837
C60 C 0.8731(7) 0.4811(6) 0.8342(3)
C61 C 0.8743(10) 0.0321(8) 0.9438(4)
H40 H 0.8274 0.0169 0.9303
H42 H 0.8568 0.0318 0.9801
C62 C 0.8480(7) 0.5608(6) 0.8005(3)
H43 H 0.8345 0.5584 0.7687
C63 C 0.8447(8) 0.6408(6) 0.8173(4)
H44 H 0.8270 0.6932 0.7964
C64 C 0.8664(7) 0.6465(6) 0.8636(4)
C65 C 0.8933(7) 0.5671(6) 0.8967(3)
H45 H 0.9076 0.5690 0.9283
C66 C 0.8967(7) 0.4870(6) 0.8790(3)
H46 H 0.9164 0.4343 0.8992
C86 C 0.9405(7) 0.9351(6) 0.7817(3)
C87 C 0.8671(7) 0.9547(6) 0.8205(4)
C88 C 0.8398(7) 0.8871(6) 0.8531(3)
H58 H 0.7896 0.9013 0.8796
C101 C 0.8493(7) 0.7891(6) 0.9620(4)
H66 H 0.9002 0.8114 0.9467
C102 C 0.8172(7) 0.7443(5) 0.9332(3)
C103 C 0.7406(7) 0.7117(6) 0.9570(4)
H67 H 0.7159 0.6810 0.9387
C108 C 0.8842(7) 0.8014(6) 0.8472(3)
C109 C 0.9611(8) 0.7778(6) 0.8082(4)
H71 H 0.9931 0.7182 0.8051
C110 C 0.9889(8) 0.8453(6) 0.7741(3)
H78 H 0.903393 0.0700093 0.545865
H79 H 0.835443 0.158214 0.545468
H80 H 0.752023 0.0987635 0.576322
H81 H 0.760847 0.192547 0.603214
H5 H 0.0668 0.0110 0.0645
H92 H 0.140845 0.0199221 0.42059
H93 H 0.0204495 0.0250268 0.42645
H41 H 0.9332 0.9890 0.9355
H76 H 0.979551 0.974973 0.57355
H77 H 0.859155 0.980078 0.57941
loop_
_geom_bond_atom_site_label_1
_geom_bond_atom_site_label_2
_geom_bond_site_symmetry_1
_geom_bond_site_symmetry_2
Nd1 O1 1_555 1_555
S1 O13 1_555 1_555
O1 C1 1_555 1_555
O2 Nd1 1_555 1_555
O5 C17 1_555 1_555
O6 C17 1_555 1_555
O11 Nd1 1_555 1_555
O12 Nd1 1_555 1_555
O13 Nd1 1_555 1_555
N1 C7 1_555 1_555
N3 C21 1_555 1_555
C1 O2 1_555 1_555
C2 S1 1_555 1_555
H1 C2 1_555 1_555
H2 C2 1_555 1_555
C3 C1 1_555 1_555
C4 S1 1_555 1_555
H4 C4 1_555 1_555
H6 C4 1_555 1_555
C5 C3 1_555 1_555
H7 C5 1_555 1_555
C6 C5 1_555 1_555
H8 C6 1_555 1_555
C7 C6 1_555 1_555
C8 C7 1_555 1_555
H9 C8 1_555 1_555
C9 C3 1_555 1_555
H10 C9 1_555 1_555
C17 C18 1_555 1_555
C18 C19 1_555 1_555
C19 H15 1_555 1_555
C20 C19 1_555 1_555
H16 C20 1_555 1_555
C21 C20 1_555 1_555
C22 C21 1_555 1_555
H17 C22 1_555 1_555
C23 C18 1_555 1_555
H18 C23 1_555 1_555
C29 C30 1_555 1_555
C31 C30 1_555 1_555
H22 C31 1_555 1_555
C32 N3 1_555 1_555
C33 C32 1_555 1_555
H23 C33 1_555 1_555
C34 C32 1_555 1_555
H24 C34 1_555 1_555
C35 N3 1_555 1_555
C36 C35 1_555 1_555
H25 C36 1_555 1_555
C37 C36 1_555 1_555
H26 C37 1_555 1_555
C38 H27 1_555 1_555
C39 C35 1_555 1_555
H28 C39 1_555 1_555
C40 O11 1_555 1_555
C41 C37 1_555 1_555
H30 C44 1_555 1_555
C45 N1 1_555 1_555
C46 C45 1_555 1_555
H31 C46 1_555 1_555
C51 N1 1_555 1_555
C52 C51 1_555 1_555
H35 C52 1_555 1_555
C53 C29 1_555 1_555
Nd6 O38 1_555 1_555
Nd13 O5 1_555 1_555
Nd12 O20 1_555 1_555
O20 C74 1_555 1_555
O23 Nd12 1_555 1_555
O27 Nd1 1_555 1_555
O33 Nd1 1_555 1_555
O36 Nd1 1_555 1_555
O38 C97 1_555 1_555
O40 Nd6 1_555 1_555
N6 C78 1_555 1_555
C74 O23 1_555 1_555
C75 C74 1_555 1_555
C76 C75 1_555 1_555
H51 C76 1_555 1_555
C77 C76 1_555 1_555
H52 C77 1_555 1_555
C78 C77 1_555 1_555
C79 C78 1_555 1_555
H53 C79 1_555 1_555
C80 C75 1_555 1_555
H54 C80 1_555 1_555
C89 N6 1_555 1_555
C90 C34 1_555 1_555
H59 C90 1_555 1_555
C91 C33 1_555 1_555
H60 C91 1_555 1_555
C92 N6 1_555 1_555
C93 C92 1_555 1_555
H61 C93 1_555 1_555
C94 C93 1_555 1_555
H62 C94 1_555 1_555
C95 H63 1_555 1_555
C96 C92 1_555 1_555
H64 C96 1_555 1_555
C97 O40 1_555 1_555
C98 C94 1_555 1_555
S5 O43 1_555 1_555
C111 S5 1_555 1_555
C114 S5 1_555 1_555
O6 Nd13 1_555 1_555
O12 C40 1_555 1_555
C8 C9 1_555 1_555
C22 C23 1_555 1_555
C31 C51 1_555 1_555
C38 C39 1_555 1_555
C38 C41 1_555 1_555
C40 C41 1_555 1_555
C44 C45 1_555 1_555
C52 C53 1_555 1_555
C79 C80 1_555 1_555
C89 C90 1_555 1_555
C89 C91 1_555 1_555
C95 C96 1_555 1_555
C95 C98 1_555 1_555
C97 C98 1_555 1_555
C114 H91 1_555 1_555
C111 H94 1_555 1_555
C111 H95 1_555 1_555
C111 H96 1_555 1_555
Nd13 O3 1_555 1_555
O3 C10 1_555 1_555
O4 Nd13 1_555 1_555
O9 C24 1_555 1_555
O10 C24 1_555 1_555
O15 Nd13 1_555 1_555
N2 C14 1_555 1_555
C10 O4 1_555 1_555
C11 C10 1_555 1_555
C12 C11 1_555 1_555
H11 C12 1_555 1_555
C13 C12 1_555 1_555
H12 C13 1_555 1_555
C14 C13 1_555 1_555
C15 C14 1_555 1_555
H13 C15 1_555 1_555
C16 C11 1_555 1_555
H14 C16 1_555 1_555
C24 C26 1_555 1_555
C25 H19 1_555 1_555
C26 C25 1_555 1_555
C27 C26 1_555 1_555
H20 C27 1_555 1_555
C42 N2 1_555 1_555
C43 C42 1_555 1_555
H29 C43 1_555 1_555
C47 C42 1_555 1_555
H32 C47 1_555 1_555
C48 C25 1_555 1_555
H33 C48 1_555 1_555
C49 N2 1_555 1_555
C50 C27 1_555 1_555
H34 C50 1_555 1_555
S3 O15 1_555 1_555
C55 S3 1_555 1_555
Nd6 O9 1_555 1_555
O10 Nd6 1_555 1_555
C15 C16 1_555 1_555
C48 C49 1_555 1_555
C49 C50 1_555 1_555
C55 H73 1_555 1_555
C55 H74 1_555 1_555
C55 H75 1_555 1_555
O27 C28 1_555 1_555
C56 H83 1_555 1_555
C56 H84 1_555 1_555
C113 H88 1_555 1_555
C113 H89 1_555 1_555
Nd6 O26 1_555 1_555
O26 C85 1_555 1_555
O18 Nd12 1_555 1_555
O33 C81 1_555 1_555
O44 Nd12 1_555 1_555
N5 C71 1_555 1_555
C67 O18 1_555 1_555
C68 C67 1_555 1_555
C69 C68 1_555 1_555
H47 C69 1_555 1_555
C70 C69 1_555 1_555
H48 C70 1_555 1_555
C71 C70 1_555 1_555
C72 C71 1_555 1_555
H49 C72 1_555 1_555
C73 C68 1_555 1_555
H50 C73 1_555 1_555
C81 O36 1_555 1_555
C82 H55 1_555 1_555
C83 C81 1_555 1_555
C84 C83 1_555 1_555
H56 C84 1_555 1_555
C99 N5 1_555 1_555
C100 C99 1_555 1_555
H65 C100 1_555 1_555
C104 C99 1_555 1_555
H68 C104 1_555 1_555
C105 C82 1_555 1_555
H69 C105 1_555 1_555
C106 N5 1_555 1_555
C107 C84 1_555 1_555
H70 C107 1_555 1_555
S6 O44 1_555 1_555
C112 S6 1_555 1_555
Nd12 O19 1_555 1_555
O19 C67 1_555 1_555
C72 C73 1_555 1_555
C82 C83 1_555 1_555
C105 C106 1_555 1_555
C106 C107 1_555 1_555
C112 H85 1_555 1_555
C112 H86 1_555 1_555
C112 H87 1_555 1_555
S2 O14 1_555 1_555
C54 S2 1_555 1_555
C57 S2 1_555 1_555
S4 O42 1_555 1_555
O16 Nd6 1_555 1_555
O17 Nd6 1_555 1_555
O42 Nd6 1_555 1_555
N4 C64 1_555 1_555
C58 O16 1_555 1_555
C59 S4 1_555 1_555
H37 C59 1_555 1_555
H38 C59 1_555 1_555
C60 C58 1_555 1_555
C61 S4 1_555 1_555
H40 C61 1_555 1_555
H42 C61 1_555 1_555
C62 C60 1_555 1_555
H43 C62 1_555 1_555
C63 C62 1_555 1_555
H44 C63 1_555 1_555
C64 C63 1_555 1_555
C65 C64 1_555 1_555
H45 C65 1_555 1_555
C66 C60 1_555 1_555
H46 C66 1_555 1_555
C87 C86 1_555 1_555
C88 C87 1_555 1_555
H58 C88 1_555 1_555
H66 C101 1_555 1_555
C102 N4 1_555 1_555
C103 C102 1_555 1_555
H67 C103 1_555 1_555
C108 N4 1_555 1_555
C109 C108 1_555 1_555
H71 C109 1_555 1_555
C110 C86 1_555 1_555
O17 C58 1_555 1_555
C65 C66 1_555 1_555
C88 C108 1_555 1_555
C101 C102 1_555 1_555
C109 C110 1_555 1_555
C57 H78 1_555 1_555
C54 H79 1_555 1_555
C54 H80 1_555 1_555
C54 H81 1_555 1_555

#END
