
###############################################################################
#
# This file contains modified crystal structure data generated from the
# MOF subset of the Cambridge Structural Database (CSD) v543 
# hosted by the Cambridge Crystallographic Data Centre (CCDC).
#
# This work is licensed under the Creative Commons
# Attribution-NonCommercial-ShareAlike 4.0 International License.
# To view a copy of this license, visit
# http://creativecommons.org/licenses/by-nc-sa/4.0/
# or send a letter to
# Creative Commons, PO Box 1866, Mountain View, CA 94042, USA.
#
# CIF created using the CSD Python API on 29 September 2022
# The structure has been converted into the P1 space group
# The structure has a 3D framework
# The original CSD entry JEJYAB is in the orthorhombic crystal system
# The framework has been calculated to contain at least 10.0% void space
# The void calculation uses a probe of radius 1.32A, grid spacing 0.4
#
###############################################################################

data_JEJYAB
_chemical_formula_moiety         '(C44 H20 Co4 Cu12 N102)n'
_symmetry_cell_setting           triclinic
_symmetry_space_group_name_H-M   'P 1'
_symmetry_Int_Tables_number      1
_space_group_name_Hall           'P 1'
loop_
_symmetry_equiv_pos_site_id
_symmetry_equiv_pos_as_xyz
1 x,y,z
_cell_length_a                   12.3459(6)
_cell_length_b                   15.9301(8)
_cell_length_c                   14.7454(7)
_cell_angle_alpha                90
_cell_angle_beta                 90
_cell_angle_gamma                90
_cell_volume                     2900
loop_
_atom_site_label
_atom_site_type_symbol
_atom_site_fract_x
_atom_site_fract_y
_atom_site_fract_z
Cu2 Cu 0.60085(10) 0.2500 0.01260(9)
C6 C 0.3864(9) 0.2500 0.1091(8)
H2 H 0.3466 0.2500 0.0555
C7 C 0.7539(6) 0.4083(4) 0.0409(5)
N9 N 0.4925(7) 0.2500 0.1121(6)
N10 N 0.5164(7) 0.2500 0.2017(5)
N11 N 0.4266(6) 0.2500 0.2486(6)
N12 N 0.3427(6) 0.2500 0.1903(6)
N13 N 0.6966(5) 0.3458(4) 0.0756(4)
N14 N 0.7192(4) 0.3450(4) 0.1640(4)
N15 N 0.7872(5) 0.4052(4) 0.1825(4)
N16 N 0.8090(5) 0.4459(4) 0.1053(4)
Cu5 Cu 0.91898(6) 0.54055(5) 0.11207(6)
Cu9 Cu 0.17819(8) 0.2500 0.23914(8)
Cu11 Cu 0.67819(8) 0.2500 0.26086(8)
N32 N 0.6966(5) 0.1542(4) 0.0756(4)
Cu1 Cu 0.58102(6) 0.45945(5) 0.61207(6)
Cu3 Cu 0.32181(8) 0.7500 0.73914(8)
Co1 Co 0.33821(9) 0.2500 0.75976(8)
C1 C 0.4239(5) 0.3327(4) 0.7032(5)
C2 C 0.2499(5) 0.3329(4) 0.8141(5)
C3 C 0.2488(7) 0.2500 0.6568(7)
C4 C 0.4294(7) 0.2500 0.8623(7)
C5 C 0.4355(5) 0.5919(4) 0.6740(4)
H1 H 0.4568 0.5808 0.7333
H3 H 0.7548 0.4234 0.9800
N1 N 0.4756(5) 0.3824(4) 0.6672(4)
N2 N 0.1961(5) 0.3825(4) 0.8477(4)
N3 N 0.1994(7) 0.2500 0.5923(6)
N4 N 0.4827(7) 0.2500 0.9254(7)
N5 N 0.3719(4) 0.6548(4) 0.6495(4)
N6 N 0.3619(6) 0.6477(4) 0.5597(5)
N7 N 0.4176(4) 0.5827(4) 0.5298(4)
N8 N 0.4638(5) 0.5484(3) 0.6052(4)
Cu4 Cu 0.41898(6) 0.54055(5) 0.38793(6)
C8 C 0.5761(5) 0.6673(4) 0.2968(5)
C9 C 0.5645(5) 0.4081(4) 0.3260(4)
H4 H 0.5432 0.4192 0.2667
N17 N 0.5244(5) 0.6176(4) 0.3328(4)
N18 N 0.6281(4) 0.3452(4) 0.3505(4)
N19 N 0.6381(6) 0.3523(4) 0.4403(5)
N20 N 0.5824(4) 0.4173(4) 0.4702(4)
N21 N 0.5362(5) 0.4516(3) 0.3948(4)
C10 C 0.7461(6) 0.5917(4) 0.5409(5)
H5 H 0.7452 0.5766 0.4800
N22 N 0.8034(5) 0.6542(4) 0.5756(4)
N23 N 0.7808(4) 0.6550(4) 0.6640(4)
N24 N 0.7128(5) 0.5948(4) 0.6825(4)
N25 N 0.6910(5) 0.5541(4) 0.6053(4)
C11 C 0.7499(5) 0.3329(4) 0.6859(5)
N26 N 0.6961(5) 0.3825(4) 0.6523(4)
Cu6 Cu 0.08102(6) 0.45945(5) 0.88793(6)
Cu7 Cu 0.89915(10) 0.7500 0.51260(9)
Cu8 Cu 0.10085(10) 0.2500 0.48740(9)
Cu12 Cu 0.82181(8) 0.7500 0.76086(8)
Co2 Co 0.66179(9) 0.7500 0.24024(8)
Co3 Co 0.83821(9) 0.2500 0.74024(8)
C12 C 0.4239(5) 0.1673(4) 0.7032(5)
C13 C 0.2499(5) 0.1671(4) 0.8141(5)
N27 N 0.3039(5) 0.6175(4) 0.3477(4)
N28 N 0.6994(7) 0.2500 0.9077(6)
N29 N 0.3719(4) 0.8452(4) 0.6495(4)
N30 N 0.4836(7) 0.7500 0.7983(5)
N31 N 0.1573(6) 0.7500 0.6903(6)
N33 N 0.2808(4) 0.8450(4) 0.8360(4)
N34 N 0.2808(4) 0.6550(4) 0.8360(4)
N35 N 0.3090(5) 0.4459(4) 0.3947(4)
Co1_2 Co 0.16179(9) 0.7500 0.25976(8)
C1_2 C 0.0761(5) 0.6673(4) 0.2032(5)
C2_2 C 0.2501(5) 0.6671(4) 0.3141(5)
C3_2 C 0.2512(7) 0.7500 0.1568(7)
C4_2 C 0.0706(7) 0.7500 0.3623(7)
C5_2 C 0.0645(5) 0.4081(4) 0.1740(4)
H1_2 H 0.0432 0.4192 0.2333
C6_2 C 0.1136(9) 0.7500 0.6091(8)
H2_2 H 0.1534 0.7500 0.5555
N1_2 N 0.0244(5) 0.6176(4) 0.1672(4)
N3_2 N 0.3006(7) 0.7500 0.0923(6)
N4_2 N 0.0173(7) 0.7500 0.4254(7)
N5_2 N 0.1281(4) 0.3452(4) 0.1495(4)
N6_2 N 0.1381(6) 0.3523(4) 0.0597(5)
N7_2 N 0.0824(4) 0.4173(4) 0.0298(4)
N8_2 N 0.0362(5) 0.4516(3) 0.1052(4)
N9_2 N 0.0075(7) 0.7500 0.6121(6)
N11_2 N 0.0734(6) 0.7500 0.7486(6)
C12_2 C 0.0761(5) 0.8327(4) 0.2032(5)
C13_2 C 0.2501(5) 0.8329(4) 0.3141(5)
N29_2 N 0.1281(4) 0.1548(4) 0.1495(4)
N30_2 N 0.0164(7) 0.2500 0.2983(5)
N33_2 N 0.2192(4) 0.1550(4) 0.3360(4)
N34_2 N 0.2192(4) 0.3450(4) 0.3360(4)
Cu8_2 Cu 0.39915(10) 0.7500 0.98740(9)
N35_2 N 0.1910(5) 0.5541(4) 0.8947(4)
N10_2 N 0.9836(7) 0.7500 0.7017(5)
C11_2 C 0.7501(5) 0.6671(4) 0.1859(5)
N26_2 N 0.8039(5) 0.6175(4) 0.1523(4)
N28_2 N 0.8006(7) 0.7500 0.4077(6)
N32_2 N 0.8034(5) 0.8458(4) 0.5756(4)
C8_2 C 0.9239(5) 0.3327(4) 0.7968(5)
C9_2 C 0.9355(5) 0.5919(4) 0.8260(4)
H4_2 H 0.9568 0.5808 0.7667
N17_2 N 0.9756(5) 0.3824(4) 0.8328(4)
N18_2 N 0.8719(4) 0.6548(4) 0.8505(4)
N19_2 N 0.8619(6) 0.6477(4) 0.9403(5)
N20_2 N 0.9176(4) 0.5827(4) 0.9702(4)
N21_2 N 0.9638(5) 0.5484(3) 0.8948(4)
C5_3 C 0.5645(5) 0.0919(4) 0.3260(4)
H1_3 H 0.5432 0.0808 0.2667
N5_3 N 0.6281(4) 0.1548(4) 0.3505(4)
N6_3 N 0.6381(6) 0.1477(4) 0.4403(5)
N7_3 N 0.5824(4) 0.0827(4) 0.4702(4)
N8_3 N 0.5362(5) 0.0484(3) 0.3948(4)
Cu4_2 Cu 0.58102(6) 0.04055(5) 0.61207(6)
N17_3 N 0.4756(5) 0.1176(4) 0.6672(4)
C10_2 C 0.2539(6) 0.0917(4) 0.4591(5)
H5_2 H 0.2548 0.0766 0.5200
N22_2 N 0.1966(5) 0.1542(4) 0.4244(4)
N24_2 N 0.2872(5) 0.0948(4) 0.3175(4)
N25_2 N 0.3090(5) 0.0541(4) 0.3947(4)
N27_2 N 0.6961(5) 0.1175(4) 0.6523(4)
N31_2 N 0.8427(6) 0.2500 0.3097(6)
N34_3 N 0.7192(4) 0.1550(4) 0.1640(4)
Cu5_2 Cu 0.08102(6) 0.04055(5) 0.88793(6)
Cu1_2 Cu 0.41898(6) 0.95945(5) 0.38793(6)
C1_3 C 0.5761(5) 0.8327(4) 0.2968(5)
C2_3 C 0.7501(5) 0.8329(4) 0.1859(5)
C3_3 C 0.7512(7) 0.7500 0.3432(7)
C4_3 C 0.5706(7) 0.7500 0.1377(7)
H3_2 H 0.2452 0.9234 0.0200
N1_3 N 0.5244(5) 0.8824(4) 0.3328(4)
N2_2 N 0.8039(5) 0.8825(4) 0.1523(4)
N4_3 N 0.5173(7) 0.7500 0.0746(7)
C9_3 C 0.4355(5) 0.9081(4) 0.6740(4)
H4_3 H 0.4568 0.9192 0.7333
N19_3 N 0.3619(6) 0.8523(4) 0.5597(5)
N20_3 N 0.4176(4) 0.9173(4) 0.5298(4)
N21_3 N 0.4638(5) 0.9516(3) 0.6052(4)
N26_3 N 0.3039(5) 0.8825(4) 0.3477(4)
Cu6_2 Cu 0.91898(6) 0.95945(5) 0.11207(6)
N35_3 N 0.6910(5) 0.9459(4) 0.6053(4)
C6_3 C 0.6136(9) 0.7500 0.8909(8)
H2_3 H 0.6534 0.7500 0.9445
C7_2 C 0.2461(6) 0.9083(4) 0.9591(5)
N9_3 N 0.5075(7) 0.7500 0.8879(6)
N11_3 N 0.5734(6) 0.7500 0.7514(6)
N12_2 N 0.6573(6) 0.7500 0.8097(6)
N13_2 N 0.3034(5) 0.8458(4) 0.9244(4)
N15_2 N 0.2128(5) 0.9052(4) 0.8175(4)
N16_2 N 0.1910(5) 0.9459(4) 0.8947(4)
N32_3 N 0.3034(5) 0.6542(4) 0.9244(4)
C9_4 C 0.0645(5) 0.0919(4) 0.1740(4)
H4_4 H 0.0432 0.0808 0.2333
N19_4 N 0.1381(6) 0.1477(4) 0.0597(5)
N20_4 N 0.0824(4) 0.0827(4) 0.0298(4)
N21_4 N 0.0362(5) 0.0484(3) 0.1052(4)
N26_4 N 0.1961(5) 0.1175(4) 0.8477(4)
N32_4 N 0.1966(5) 0.3458(4) 0.4244(4)
N17_4 N 0.0244(5) 0.8824(4) 0.1672(4)
N35_4 N 0.8090(5) 0.0541(4) 0.1053(4)
C1_4 C 0.9239(5) 0.1673(4) 0.7968(5)
C2_4 C 0.7499(5) 0.1671(4) 0.6859(5)
C3_4 C 0.7488(7) 0.2500 0.8432(7)
C4_4 C 0.9294(7) 0.2500 0.6377(7)
C6_4 C 0.8864(9) 0.2500 0.3909(8)
H2_4 H 0.8466 0.2500 0.4445
N1_4 N 0.9756(5) 0.1176(4) 0.8328(4)
N4_4 N 0.9827(7) 0.2500 0.5746(7)
N9_4 N 0.9925(7) 0.2500 0.3879(6)
N11_4 N 0.9266(6) 0.2500 0.2514(6)
C5_4 C 0.9355(5) 0.9081(4) 0.8260(4)
H1_4 H 0.9568 0.9192 0.7667
N5_4 N 0.8719(4) 0.8452(4) 0.8505(4)
N6_4 N 0.8619(6) 0.8523(4) 0.9403(5)
N7_4 N 0.9176(4) 0.9173(4) 0.9702(4)
N8_4 N 0.9638(5) 0.9516(3) 0.8948(4)
N34_4 N 0.7808(4) 0.8450(4) 0.6640(4)
H3_3 H 0.2452 0.5766 0.0200
C10_3 C 0.2539(6) 0.4083(4) 0.4591(5)
H5_3 H 0.2548 0.4234 0.5200
N24_3 N 0.2872(5) 0.4052(4) 0.3175(4)
C7_3 C 0.2461(6) 0.5917(4) 0.9591(5)
N15_3 N 0.2128(5) 0.5948(4) 0.8175(4)
C7_4 C 0.7539(6) 0.0917(4) 0.0409(5)
N15_4 N 0.7872(5) 0.0948(4) 0.1825(4)
H3_4 H 0.7548 0.0766 0.9800
C10_4 C 0.7461(6) 0.9083(4) 0.5409(5)
H5_4 H 0.7452 0.9234 0.4800
N24_4 N 0.7128(5) 0.9052(4) 0.6825(4)
loop_
_geom_bond_atom_site_label_1
_geom_bond_atom_site_label_2
_geom_bond_site_symmetry_1
_geom_bond_site_symmetry_2
C6 H2 1_555 1_555
N9 Cu2 1_555 1_555
N10 N9 1_555 1_555
N11 N10 1_555 1_555
N12 C6 1_555 1_555
N13 Cu2 1_555 1_555
N14 N13 1_555 1_555
N15 N14 1_555 1_555
N16 C7 1_555 1_555
Cu5 N16 1_555 1_555
Cu9 N12 1_555 1_555
Cu11 N10 1_555 1_555
N32 Cu2 1_555 1_555
C6 N9 1_555 1_555
C7 N13 1_555 1_555
N11 N12 1_555 1_555
N14 Cu11 1_555 1_555
N15 N16 1_555 1_555
Cu1 N1 1_555 1_555
Cu3 N5 1_555 1_555
Co1 C1 1_555 1_555
C1 N1 1_555 1_555
C2 Co1 1_555 1_555
C3 Co1 1_555 1_555
C4 Co1 1_555 1_555
C5 H1 1_555 1_555
N2 C2 1_555 1_555
N3 C3 1_555 1_555
N4 C4 1_555 1_555
N5 C5 1_555 1_555
N6 N5 1_555 1_555
N7 N6 1_555 1_555
N8 Cu1 1_555 1_555
Cu4 N7 1_555 1_555
C8 N17 1_555 1_555
C9 H4 1_555 1_555
N17 Cu4 1_555 1_555
N18 C9 1_555 1_555
N19 N18 1_555 1_555
N20 Cu1 1_555 1_555
N21 Cu4 1_555 1_555
C10 H5 1_555 1_555
N22 C10 1_555 1_555
N23 N22 1_555 1_555
N24 N23 1_555 1_555
N25 Cu1 1_555 1_555
C11 N26 1_555 1_555
N26 Cu1 1_555 1_555
Cu6 N2 1_555 1_555
Cu7 N22 1_555 1_555
Cu8 N3 1_555 1_555
Cu11 N18 1_555 1_555
Cu12 N23 1_555 1_555
Co2 C8 1_555 1_555
Co3 C11 1_555 1_555
C12 Co1 1_555 1_555
C13 Co1 1_555 1_555
N27 Cu4 1_555 1_555
N29 Cu3 1_555 1_555
N30 Cu3 1_555 1_555
N31 Cu3 1_555 1_555
N33 Cu3 1_555 1_555
N34 Cu3 1_555 1_555
N35 Cu4 1_555 1_555
C5 N8 1_555 1_555
N7 N8 1_555 1_555
C9 N21 1_555 1_555
N19 N20 1_555 1_555
N20 N21 1_555 1_555
C10 N25 1_555 1_555
N24 N25 1_555 1_555
Cu9 N5_2 1_555 1_555
Co1_2 C1_2 1_555 1_555
C1_2 N1_2 1_555 1_555
C2_2 Co1_2 1_555 1_555
C3_2 Co1_2 1_555 1_555
C4_2 Co1_2 1_555 1_555
C5_2 H1_2 1_555 1_555
C6_2 H2_2 1_555 1_555
N27 C2_2 1_555 1_555
N3_2 C3_2 1_555 1_555
N4_2 C4_2 1_555 1_555
N5_2 C5_2 1_555 1_555
N6_2 N5_2 1_555 1_555
N7_2 N6_2 1_555 1_555
N31 C6_2 1_555 1_555
C12_2 Co1_2 1_555 1_555
C13_2 Co1_2 1_555 1_555
N29_2 Cu9 1_555 1_555
N30_2 Cu9 1_555 1_555
N33_2 Cu9 1_555 1_555
N34_2 Cu9 1_555 1_555
C5_2 N8_2 1_555 1_555
C6_2 N9_2 1_555 1_555
N7_2 N8_2 1_555 1_555
N11_2 N31 1_555 1_555
N35_2 Cu6 1_555 1_555
C11_2 N26_2 1_555 1_555
N26_2 Cu5 1_555 1_555
Cu12 N10_2 1_555 1_555
Co2 C11_2 1_555 1_555
N28_2 Cu7 1_555 1_555
N32_2 Cu7 1_555 1_555
C8_2 N17_2 1_555 1_555
C9_2 H4_2 1_555 1_555
N18_2 C9_2 1_555 1_555
N19_2 N18_2 1_555 1_555
Cu12 N18_2 1_555 1_555
Co3 C8_2 1_555 1_555
C9_2 N21_2 1_555 1_555
N19_2 N20_2 1_555 1_555
N20_2 N21_2 1_555 1_555
Cu11 N5_3 1_555 1_555
C5_3 H1_3 1_555 1_555
N5_3 C5_3 1_555 1_555
N6_3 N5_3 1_555 1_555
N7_3 N6_3 1_555 1_555
Cu4_2 N7_3 1_555 1_555
C12 N17_3 1_555 1_555
N17_3 Cu4_2 1_555 1_555
C10_2 H5_2 1_555 1_555
N22_2 C10_2 1_555 1_555
N33_2 N22_2 1_555 1_555
N24_2 N33_2 1_555 1_555
Cu8 N22_2 1_555 1_555
N27_2 Cu4_2 1_555 1_555
N31_2 Cu11 1_555 1_555
N34_3 Cu11 1_555 1_555
C5_3 N8_3 1_555 1_555
N7_3 N8_3 1_555 1_555
C10_2 N25_2 1_555 1_555
N24_2 N25_2 1_555 1_555
Cu1_2 N1_3 1_555 1_555
Co2 C1_3 1_555 1_555
C1_3 N1_3 1_555 1_555
C2_3 Co2 1_555 1_555
C3_3 Co2 1_555 1_555
C4_3 Co2 1_555 1_555
N2_2 C2_3 1_555 1_555
N28_2 C3_3 1_555 1_555
N4_3 C4_3 1_555 1_555
C9_3 H4_3 1_555 1_555
N29 C9_3 1_555 1_555
N19_3 N29 1_555 1_555
N20_3 Cu1_2 1_555 1_555
C13_2 N26_3 1_555 1_555
N26_3 Cu1_2 1_555 1_555
Cu6_2 N2_2 1_555 1_555
C9_3 N21_3 1_555 1_555
N19_3 N20_3 1_555 1_555
N20_3 N21_3 1_555 1_555
C6_3 H2_3 1_555 1_555
N9_3 Cu8_2 1_555 1_555
N30 N9_3 1_555 1_555
N11_3 N30 1_555 1_555
N12_2 C6_3 1_555 1_555
N13_2 Cu8_2 1_555 1_555
N33 N13_2 1_555 1_555
N15_2 N33 1_555 1_555
N16_2 C7_2 1_555 1_555
Cu12 N12_2 1_555 1_555
N32_3 Cu8_2 1_555 1_555
C6_3 N9_3 1_555 1_555
C7_2 N13_2 1_555 1_555
N11_3 N12_2 1_555 1_555
N15_2 N16_2 1_555 1_555
C9_4 H4_4 1_555 1_555
N29_2 C9_4 1_555 1_555
N19_4 N29_2 1_555 1_555
C9_4 N21_4 1_555 1_555
N19_4 N20_4 1_555 1_555
N20_4 N21_4 1_555 1_555
C13 N26_4 1_555 1_555
N26_4 Cu5_2 1_555 1_555
N32_4 Cu8 1_555 1_555
C12_2 N17_4 1_555 1_555
Co3 C1_4 1_555 1_555
C1_4 N1_4 1_555 1_555
C2_4 Co3 1_555 1_555
C3_4 Co3 1_555 1_555
C4_4 Co3 1_555 1_555
C6_4 H2_4 1_555 1_555
N27_2 C2_4 1_555 1_555
N28 C3_4 1_555 1_555
N4_4 C4_4 1_555 1_555
N31_2 C6_4 1_555 1_555
C6_4 N9_4 1_555 1_555
N11_4 N31_2 1_555 1_555
Cu12 N5_4 1_555 1_555
C5_4 H1_4 1_555 1_555
N5_4 C5_4 1_555 1_555
N6_4 N5_4 1_555 1_555
N7_4 N6_4 1_555 1_555
N34_4 Cu12 1_555 1_555
C5_4 N8_4 1_555 1_555
N7_4 N8_4 1_555 1_555
C10_3 H5_3 1_555 1_555
N32_4 C10_3 1_555 1_555
N34_2 N32_4 1_555 1_555
N24_3 N34_2 1_555 1_555
C10_3 N35 1_555 1_555
N24_3 N35 1_555 1_555
N34 N32_3 1_555 1_555
N15_3 N34 1_555 1_555
N35_2 C7_3 1_555 1_555
C7_3 N32_3 1_555 1_555
N15_3 N35_2 1_555 1_555
N34_3 N32 1_555 1_555
N15_4 N34_3 1_555 1_555
N35_4 C7_4 1_555 1_555
C7_4 N32 1_555 1_555
N15_4 N35_4 1_555 1_555
C10_4 H5_4 1_555 1_555
N32_2 C10_4 1_555 1_555
N34_4 N32_2 1_555 1_555
N24_4 N34_4 1_555 1_555
C10_4 N35_3 1_555 1_555
N24_4 N35_3 1_555 1_555

#END
