
###############################################################################
#
# This file contains modified crystal structure data generated from the
# MOF subset of the Cambridge Structural Database (CSD) v543 
# hosted by the Cambridge Crystallographic Data Centre (CCDC).
#
# This work is licensed under the Creative Commons
# Attribution-NonCommercial-ShareAlike 4.0 International License.
# To view a copy of this license, visit
# http://creativecommons.org/licenses/by-nc-sa/4.0/
# or send a letter to
# Creative Commons, PO Box 1866, Mountain View, CA 94042, USA.
#
# CIF created using the CSD Python API on 29 September 2022
# The structure has been converted into the P1 space group
# The structure has a 3D framework
# The original CSD entry JEKRAT is in the orthorhombic crystal system
# The framework has been calculated to contain at least 10.0% void space
# The void calculation uses a probe of radius 1.32A, grid spacing 0.4
#
###############################################################################

data_JEKRAT
_chemical_formula_moiety         '(C216 H192 Cl16 Co12 N32 O24 S32)n'
_symmetry_cell_setting           triclinic
_symmetry_space_group_name_H-M   'P 1'
_symmetry_Int_Tables_number      1
_space_group_name_Hall           'P 1'
loop_
_symmetry_equiv_pos_site_id
_symmetry_equiv_pos_as_xyz
1 x,y,z
_cell_length_a                   15.993(4)
_cell_length_b                   18.454(5)
_cell_length_c                   21.506(6)
_cell_angle_alpha                90
_cell_angle_beta                 90
_cell_angle_gamma                90
_cell_volume                     6347.17
loop_
_atom_site_label
_atom_site_type_symbol
_atom_site_fract_x
_atom_site_fract_y
_atom_site_fract_z
Co1 Co 0.07201(3) 0.0000 0.2500
Cl1 Cl 0.07312(4) 0.09401(4) 0.17173(3)
S2 S 0.35851(4) 0.17170(4) 0.42603(3)
O2 O 0.5000 0.2500 0.46791(17)
N2 N 0.16511(14) 0.06064(12) 0.30290(10)
H1 H 0.0219 0.1576 0.2830
C8 C 0.16024(17) 0.06306(15) 0.36541(13)
H7 H 0.1150 0.0388 0.3851
C9 C 0.21728(17) 0.09877(14) 0.40214(13)
H8 H 0.2105 0.0996 0.4460
C10 C 0.22884(17) 0.09639(15) 0.27675(13)
H9 H 0.2326 0.0967 0.2327
C11 C 0.28954(17) 0.13296(15) 0.31009(13)
H10 H 0.3337 0.1572 0.2891
C12 C 0.28517(16) 0.13384(14) 0.37460(13)
C13 C 0.42883(17) 0.21920(15) 0.37449(13)
H11 H 0.4509 0.1855 0.3427
H12 H 0.3987 0.2588 0.3530
C14 C 0.5000 0.2500 0.4126(2)
Co3 Co 0.92799(3) 0.5000 0.2500
S4 S 0.64149(4) 0.32830(4) 0.42603(3)
N5 N 0.83489(14) 0.43936(12) 0.30290(10)
C21 C 0.83976(17) 0.43694(15) 0.36541(13)
H19 H 0.8850 0.4612 0.3851
C22 C 0.78272(17) 0.40123(14) 0.40214(13)
H20 H 0.7895 0.4004 0.4460
C23 C 0.77116(17) 0.40361(15) 0.27675(13)
H21 H 0.7674 0.4033 0.2327
C24 C 0.71046(17) 0.36704(15) 0.31009(13)
H22 H 0.6663 0.3428 0.2891
C25 C 0.71483(16) 0.36616(14) 0.37460(13)
C26 C 0.57117(17) 0.28080(15) 0.37449(13)
H23 H 0.5491 0.3145 0.3427
H24 H 0.6013 0.2412 0.3530
Co1_2 Co 0.07201(3) 1.0000 0.2500
Cl2 Cl 0.07312(4) 0.90599(4) 0.32827(3)
N6 N 0.16511(14) 0.93936(12) 0.19710(10)
H13 H 0.9781 0.6576 0.2170
Cl1_2 Cl 0.92688(4) 0.40599(4) 0.17173(3)
H1_2 H 0.9781 0.3424 0.2830
Cl2_2 Cl 0.92688(4) 0.59401(4) 0.32827(3)
N6_2 N 0.83489(14) 0.56064(12) 0.19710(10)
S2_2 S 0.35851(4) 0.82830(4) 0.07397(3)
O2_2 O 0.5000 0.7500 0.03209(17)
H1_3 H 0.0219 0.8424 0.2170
C8_2 C 0.16024(17) 0.93694(15) 0.13459(13)
H7_2 H 0.1150 0.9612 0.1149
C9_2 C 0.21728(17) 0.90123(14) 0.09786(13)
H8_2 H 0.2105 0.9004 0.0540
C10_2 C 0.22884(17) 0.90361(15) 0.22325(13)
H9_2 H 0.2326 0.9033 0.2673
C11_2 C 0.28954(17) 0.86704(15) 0.18991(13)
H10_2 H 0.3337 0.8428 0.2109
C12_2 C 0.28517(16) 0.86616(14) 0.12540(13)
C13_2 C 0.42883(17) 0.78080(15) 0.12551(13)
H11_2 H 0.4509 0.8145 0.1573
H12_2 H 0.3987 0.7412 0.1470
C14_2 C 0.5000 0.7500 0.0874(2)
S4_2 S 0.64149(4) 0.67170(4) 0.07397(3)
C21_2 C 0.83976(17) 0.56306(15) 0.13459(13)
H19_2 H 0.8850 0.5388 0.1149
C22_2 C 0.78272(17) 0.59877(14) 0.09786(13)
H20_2 H 0.7895 0.5996 0.0540
C23_2 C 0.77116(17) 0.59639(15) 0.22325(13)
H21_2 H 0.7674 0.5967 0.2673
C24_2 C 0.71046(17) 0.63296(15) 0.18991(13)
H22_2 H 0.6663 0.6572 0.2109
C25_2 C 0.71483(16) 0.63384(14) 0.12540(13)
C26_2 C 0.57117(17) 0.71920(15) 0.12551(13)
H23_2 H 0.5491 0.6855 0.1573
H24_2 H 0.6013 0.7588 0.1470
S1 S 0.78686(5) 0.19468(4) 0.40942(3)
O1 O 0.7500 0.02696(19) 0.5000
N1 N 0.97646(13) 0.06009(12) 0.30135(10)
C1 C 0.97878(17) 0.13274(15) 0.30461(13)
C2 C 0.92164(18) 0.17271(15) 0.33781(13)
H2 H 0.9260 0.2240 0.3389
C3 C 0.91531(17) 0.02699(15) 0.33256(13)
C4 C 0.85458(18) 0.06270(15) 0.36666(13)
H4 H 0.8119 0.0363 0.3874
C5 C 0.85721(17) 0.13797(15) 0.36998(12)
C6 C 0.71355(17) 0.13396(16) 0.44590(12)
H5 H 0.6650 0.1623 0.4609
H6 H 0.6929 0.0992 0.4144
C7 C 0.7500 0.0920(2) 0.5000
Co2 Co 0.42799(3) 0.0000 0.7500
S3 S 0.71314(5) 0.19468(4) 0.59058(3)
N3 N 0.52354(13) 0.06009(12) 0.69865(10)
C15 C 0.52122(17) 0.13274(15) 0.69539(13)
H13_2 H 0.4781 0.1576 0.7170
C16 C 0.57836(18) 0.17271(15) 0.66219(13)
H14 H 0.5740 0.2240 0.6611
C17 C 0.58469(17) 0.02699(15) 0.66744(13)
C18 C 0.64542(18) 0.06270(15) 0.63334(13)
H16 H 0.6881 0.0363 0.6126
C19 C 0.64279(17) 0.13797(15) 0.63002(12)
C20 C 0.78645(17) 0.13396(16) 0.55410(12)
H17 H 0.8350 0.1623 0.5391
H18 H 0.8071 0.0992 0.5856
H3 H 0.9133 0.0244 0.1687
H15 H 0.5867 0.0244 0.8313
Cl1_3 Cl 0.42688(4) 0.09401(4) 0.82827(3)
S2_3 S 0.14149(4) 0.17170(4) 0.57397(3)
O2_3 O 0.0000 0.2500 0.53209(17)
N2_2 N 0.33489(14) 0.06064(12) 0.69710(10)
C8_3 C 0.33976(17) 0.06306(15) 0.63459(13)
H7_3 H 0.3850 0.0388 0.6149
C9_3 C 0.28272(17) 0.09877(14) 0.59786(13)
H8_3 H 0.2895 0.0996 0.5540
C10_3 C 0.27116(17) 0.09639(15) 0.72325(13)
H9_3 H 0.2674 0.0967 0.7673
C11_3 C 0.21046(17) 0.13296(15) 0.68991(13)
H10_3 H 0.1663 0.1572 0.7109
C12_3 C 0.21483(16) 0.13384(14) 0.62540(13)
C13_3 C 0.07117(17) 0.21920(15) 0.62551(13)
H11_3 H 0.0491 0.1855 0.6573
H12_3 H 0.1013 0.2588 0.6470
C14_3 C 0.0000 0.2500 0.5874(2)
H3_2 H 0.9133 0.9756 0.3313
Co2_2 Co 0.42799(3) 1.0000 0.7500
N4 N 0.97646(13) 0.93991(12) 0.19865(10)
H15_2 H 0.5867 0.9756 0.6687
O2_4 O -0.0000 0.7500 0.96791(17)
C14_4 C -0.0000 0.7500 0.9126(2)
S4_3 S 0.14149(4) 0.82830(4) 0.92603(3)
N5_2 N 0.33489(14) 0.93936(12) 0.80290(10)
C21_3 C 0.33976(17) 0.93694(15) 0.86541(13)
H19_3 H 0.3850 0.9612 0.8851
C22_3 C 0.28272(17) 0.90123(14) 0.90214(13)
H20_3 H 0.2895 0.9004 0.9460
C23_3 C 0.27116(17) 0.90361(15) 0.77675(13)
H21_3 H 0.2674 0.9033 0.7327
C24_3 C 0.21046(17) 0.86704(15) 0.81009(13)
H22_3 H 0.1663 0.8428 0.7891
C25_3 C 0.21483(16) 0.86616(14) 0.87460(13)
C26_3 C 0.07117(17) 0.78080(15) 0.87449(13)
H23_3 H 0.0491 0.8145 0.8427
H24_3 H 0.1013 0.7412 0.8530
S1_2 S 0.78686(5) 0.80532(4) 0.09058(3)
O1_2 O 0.7500 0.97304(19) 0.0000
C1_2 C 0.97878(17) 0.86726(15) 0.19539(13)
C2_2 C 0.92164(18) 0.82729(15) 0.16219(13)
H2_2 H 0.9260 0.7760 0.1611
C3_2 C 0.91531(17) 0.97301(15) 0.16744(13)
C4_2 C 0.85458(18) 0.93730(15) 0.13334(13)
H4_2 H 0.8119 0.9637 0.1126
C5_2 C 0.85721(17) 0.86203(15) 0.13002(12)
C6_2 C 0.71355(17) 0.86604(16) 0.05410(12)
H5_2 H 0.6650 0.8377 0.0391
H6_2 H 0.6929 0.9008 0.0856
C7_2 C 0.7500 0.9080(2) 0.0000
O1_3 O 0.7500 0.97304(19) 1.0000
C7_3 C 0.7500 0.9080(2) 1.0000
S3_2 S 0.71314(5) 0.80532(4) 0.90942(3)
N3_2 N 0.52354(13) 0.93991(12) 0.80135(10)
C15_2 C 0.52122(17) 0.86726(15) 0.80461(13)
H13_3 H 0.4781 0.8424 0.7830
C16_2 C 0.57836(18) 0.82729(15) 0.83781(13)
H14_2 H 0.5740 0.7760 0.8389
C17_2 C 0.58469(17) 0.97301(15) 0.83256(13)
C18_2 C 0.64542(18) 0.93730(15) 0.86666(13)
H16_2 H 0.6881 0.9637 0.8874
C19_2 C 0.64279(17) 0.86203(15) 0.86998(12)
C20_2 C 0.78645(17) 0.86604(16) 0.94590(12)
H17_2 H 0.8350 0.8377 0.9609
H18_2 H 0.8071 0.9008 0.9144
Cl2_3 Cl 0.42688(4) 0.90599(4) 0.67173(3)
O1_4 O 0.2500 0.52696(19) 0.0000
C7_4 C 0.2500 0.5920(2) 0.0000
S3_3 S 0.21314(5) 0.69468(4) 0.09058(3)
N3_3 N 0.02354(13) 0.56009(12) 0.19865(10)
C15_3 C 0.02122(17) 0.63274(15) 0.19539(13)
C16_3 C 0.07836(18) 0.67271(15) 0.16219(13)
H14_3 H 0.0740 0.7240 0.1611
C17_3 C 0.08469(17) 0.52699(15) 0.16744(13)
H15_3 H 0.0867 0.4756 0.1687
C18_3 C 0.14542(18) 0.56270(15) 0.13334(13)
H16_3 H 0.1881 0.5363 0.1126
C19_3 C 0.14279(17) 0.63797(15) 0.13002(12)
C20_3 C 0.28645(17) 0.63396(16) 0.05410(12)
H17_3 H 0.3350 0.6623 0.0391
H18_3 H 0.3071 0.5992 0.0856
Co1_3 Co 0.57201(3) 0.5000 0.7500
Cl1_4 Cl 0.57312(4) 0.59401(4) 0.67173(3)
S1_3 S 0.28686(5) 0.69468(4) 0.90942(3)
S2_4 S 0.85851(4) 0.67170(4) 0.92603(3)
O1_5 O 0.2500 0.52696(19) 1.0000
O2_5 O 1.0000 0.7500 0.96791(17)
N1_2 N 0.47646(13) 0.56009(12) 0.80135(10)
N2_3 N 0.66511(14) 0.56064(12) 0.80290(10)
C1_3 C 0.47878(17) 0.63274(15) 0.80461(13)
H1_4 H 0.5219 0.6576 0.7830
C2_3 C 0.42164(18) 0.67271(15) 0.83781(13)
H2_3 H 0.4260 0.7240 0.8389
C3_3 C 0.41531(17) 0.52699(15) 0.83256(13)
H3_3 H 0.4133 0.4756 0.8313
C4_3 C 0.35458(18) 0.56270(15) 0.86666(13)
H4_3 H 0.3119 0.5363 0.8874
C5_3 C 0.35721(17) 0.63797(15) 0.86998(12)
C6_3 C 0.21355(17) 0.63396(16) 0.94590(12)
H5_3 H 0.1650 0.6623 0.9609
H6_3 H 0.1929 0.5992 0.9144
C7_5 C 0.2500 0.5920(2) 1.0000
C8_4 C 0.66024(17) 0.56306(15) 0.86541(13)
H7_4 H 0.6150 0.5388 0.8851
C9_4 C 0.71728(17) 0.59877(14) 0.90214(13)
H8_4 H 0.7105 0.5996 0.9460
C10_4 C 0.72884(17) 0.59639(15) 0.77675(13)
H9_4 H 0.7326 0.5967 0.7327
C11_4 C 0.78954(17) 0.63296(15) 0.81009(13)
H10_4 H 0.8337 0.6572 0.7891
C12_4 C 0.78517(16) 0.63384(14) 0.87460(13)
C13_4 C 0.92883(17) 0.71920(15) 0.87449(13)
H11_4 H 0.9509 0.6855 0.8427
H12_4 H 0.8987 0.7588 0.8530
C14_5 C 1.0000 0.7500 0.9126(2)
Cl2_4 Cl 0.57312(4) 0.40599(4) 0.82827(3)
N4_2 N 0.47646(13) 0.43991(12) 0.69865(10)
N6_3 N 0.66511(14) 0.43936(12) 0.69710(10)
S1_4 S 0.21314(5) 0.30532(4) 0.40942(3)
O1_6 O 0.2500 0.47304(19) 0.5000
N1_3 N 0.02354(13) 0.43991(12) 0.30135(10)
C1_4 C 0.02122(17) 0.36726(15) 0.30461(13)
C2_4 C 0.07836(18) 0.32729(15) 0.33781(13)
H2_4 H 0.0740 0.2760 0.3389
C3_4 C 0.08469(17) 0.47301(15) 0.33256(13)
H3_4 H 0.0867 0.5244 0.3313
C4_4 C 0.14542(18) 0.43730(15) 0.36666(13)
H4_4 H 0.1881 0.4637 0.3874
C5_4 C 0.14279(17) 0.36203(15) 0.36998(12)
C6_4 C 0.28645(17) 0.36604(16) 0.44590(12)
H5_4 H 0.3350 0.3377 0.4609
H6_4 H 0.3071 0.4008 0.4144
C7_6 C 0.2500 0.4080(2) 0.5000
S3_4 S 0.28686(5) 0.30532(4) 0.59058(3)
C15_4 C 0.47878(17) 0.36726(15) 0.69539(13)
H13_4 H 0.5219 0.3424 0.7170
C16_4 C 0.42164(18) 0.32729(15) 0.66219(13)
H14_4 H 0.4260 0.2760 0.6611
C17_4 C 0.41531(17) 0.47301(15) 0.66744(13)
H15_4 H 0.4133 0.5244 0.6687
C18_4 C 0.35458(18) 0.43730(15) 0.63334(13)
H16_4 H 0.3119 0.4637 0.6126
C19_4 C 0.35721(17) 0.36203(15) 0.63002(12)
C20_4 C 0.21355(17) 0.36604(16) 0.55410(12)
H17_4 H 0.1650 0.3377 0.5391
H18_4 H 0.1929 0.4008 0.5856
O2_6 O 1.0000 0.2500 0.53209(17)
C14_6 C 1.0000 0.2500 0.5874(2)
S4_4 S 0.85851(4) 0.32830(4) 0.57397(3)
C21_4 C 0.66024(17) 0.43694(15) 0.63459(13)
H19_4 H 0.6150 0.4612 0.6149
C22_4 C 0.71728(17) 0.40123(14) 0.59786(13)
H20_4 H 0.7105 0.4004 0.5540
C23_4 C 0.72884(17) 0.40361(15) 0.72325(13)
H21_4 H 0.7326 0.4033 0.7673
C24_4 C 0.78954(17) 0.36704(15) 0.68991(13)
H22_4 H 0.8337 0.3428 0.7109
C25_4 C 0.78517(16) 0.36616(14) 0.62540(13)
C26_4 C 0.92883(17) 0.28080(15) 0.62551(13)
H23_4 H 0.9509 0.3145 0.6573
H24_4 H 0.8987 0.2412 0.6470
H3_5 H 0.0867 0.0244 0.6687
Co2_3 Co 0.57201(3) -0.0000 0.2500
N4_3 N 0.02354(13) 0.06009(12) 0.80135(10)
H15_5 H 0.4133 0.0244 0.3313
O2_7 O 1.0000 0.2500 0.03209(17)
C14_7 C 1.0000 0.2500 0.0874(2)
S4_5 S 0.85851(4) 0.17170(4) 0.07397(3)
N5_3 N 0.66511(14) 0.06064(12) 0.19710(10)
C21_5 C 0.66024(17) 0.06306(15) 0.13459(13)
H19_5 H 0.6150 0.0388 0.1149
C22_5 C 0.71728(17) 0.09877(14) 0.09786(13)
H20_5 H 0.7105 0.0996 0.0540
C23_5 C 0.72884(17) 0.09639(15) 0.22325(13)
H21_5 H 0.7326 0.0967 0.2673
C24_5 C 0.78954(17) 0.13296(15) 0.18991(13)
H22_5 H 0.8337 0.1572 0.2109
C25_5 C 0.78517(16) 0.13384(14) 0.12540(13)
C26_5 C 0.92883(17) 0.21920(15) 0.12551(13)
H23_5 H 0.9509 0.1855 0.1573
H24_5 H 0.8987 0.2588 0.1470
O1_7 O 0.2500 0.02696(19) 0.0000
C7_7 C 0.2500 0.0920(2) 0.0000
S3_5 S 0.28686(5) 0.19468(4) 0.09058(3)
N3_4 N 0.47646(13) 0.06009(12) 0.19865(10)
C15_5 C 0.47878(17) 0.13274(15) 0.19539(13)
H13_5 H 0.5219 0.1576 0.2170
C16_5 C 0.42164(18) 0.17271(15) 0.16219(13)
H14_5 H 0.4260 0.2240 0.1611
C17_5 C 0.41531(17) 0.02699(15) 0.16744(13)
C18_5 C 0.35458(18) 0.06270(15) 0.13334(13)
H16_5 H 0.3119 0.0363 0.1126
C19_5 C 0.35721(17) 0.13797(15) 0.13002(12)
C20_5 C 0.21355(17) 0.13396(16) 0.05410(12)
H17_5 H 0.1650 0.1623 0.0391
H18_5 H 0.1929 0.0992 0.0856
S1_5 S 0.21314(5) 0.19468(4) 0.90942(3)
O1_8 O 0.2500 0.02696(19) 1.0000
C1_5 C 0.02122(17) 0.13274(15) 0.80461(13)
C2_5 C 0.07836(18) 0.17271(15) 0.83781(13)
H2_5 H 0.0740 0.2240 0.8389
C3_5 C 0.08469(17) 0.02699(15) 0.83256(13)
C4_5 C 0.14542(18) 0.06270(15) 0.86666(13)
H4_5 H 0.1881 0.0363 0.8874
C5_5 C 0.14279(17) 0.13797(15) 0.86998(12)
C6_5 C 0.28645(17) 0.13396(16) 0.94590(12)
H5_5 H 0.3350 0.1623 0.9609
H6_5 H 0.3071 0.0992 0.9144
C7_8 C 0.2500 0.0920(2) 1.0000
Cl2_5 Cl 0.57312(4) 0.09401(4) 0.32827(3)
S1_6 S 0.21314(5) 0.80532(4) 0.59058(3)
O1_9 O 0.2500 0.97304(19) 0.5000
N1_4 N 0.02354(13) 0.93991(12) 0.69865(10)
C1_6 C 0.02122(17) 0.86726(15) 0.69539(13)
C2_6 C 0.07836(18) 0.82729(15) 0.66219(13)
H2_6 H 0.0740 0.7760 0.6611
C3_6 C 0.08469(17) 0.97301(15) 0.66744(13)
C4_6 C 0.14542(18) 0.93730(15) 0.63334(13)
H4_6 H 0.1881 0.9637 0.6126
C5_6 C 0.14279(17) 0.86203(15) 0.63002(12)
C6_6 C 0.28645(17) 0.86604(16) 0.55410(12)
H5_6 H 0.3350 0.8377 0.5391
H6_6 H 0.3071 0.9008 0.5856
C7_9 C 0.2500 0.9080(2) 0.5000
Co2_4 Co 0.57201(3) 1.0000 0.2500
S3_6 S 0.28686(5) 0.80532(4) 0.40942(3)
N3_5 N 0.47646(13) 0.93991(12) 0.30135(10)
C15_6 C 0.47878(17) 0.86726(15) 0.30461(13)
H13_6 H 0.5219 0.8424 0.2830
C16_6 C 0.42164(18) 0.82729(15) 0.33781(13)
H14_6 H 0.4260 0.7760 0.3389
C17_6 C 0.41531(17) 0.97301(15) 0.33256(13)
C18_6 C 0.35458(18) 0.93730(15) 0.36666(13)
H16_6 H 0.3119 0.9637 0.3874
C19_6 C 0.35721(17) 0.86203(15) 0.36998(12)
C20_6 C 0.21355(17) 0.86604(16) 0.44590(12)
H17_6 H 0.1650 0.8377 0.4609
H18_6 H 0.1929 0.9008 0.4144
H15_6 H 0.4133 0.9756 0.1687
H3_6 H 0.0867 0.9756 0.8313
Cl1_5 Cl 0.57312(4) 0.90599(4) 0.17173(3)
S2_5 S 0.85851(4) 0.82830(4) 0.42603(3)
O2_8 O 1.0000 0.7500 0.46791(17)
N2_4 N 0.66511(14) 0.93936(12) 0.30290(10)
C8_5 C 0.66024(17) 0.93694(15) 0.36541(13)
H7_5 H 0.6150 0.9612 0.3851
C9_5 C 0.71728(17) 0.90123(14) 0.40214(13)
H8_5 H 0.7105 0.9004 0.4460
C10_5 C 0.72884(17) 0.90361(15) 0.27675(13)
H9_5 H 0.7326 0.9033 0.2327
C11_5 C 0.78954(17) 0.86704(15) 0.31009(13)
H10_5 H 0.8337 0.8428 0.2891
C12_5 C 0.78517(16) 0.86616(14) 0.37460(13)
C13_5 C 0.92883(17) 0.78080(15) 0.37449(13)
H11_5 H 0.9509 0.8145 0.3427
H12_5 H 0.8987 0.7412 0.3530
C14_8 C 1.0000 0.7500 0.4126(2)
Co1_4 Co 0.92799(3) 0.0000 0.7500
Cl2_6 Cl 0.92688(4) 0.09401(4) 0.67173(3)
N6_4 N 0.83489(14) 0.06064(12) 0.80290(10)
Co1_5 Co 0.92799(3) 1.0000 0.7500
Cl1_6 Cl 0.92688(4) 0.90599(4) 0.82827(3)
S2_6 S 0.64149(4) 0.82830(4) 0.57397(3)
O2_9 O 0.5000 0.7500 0.53209(17)
N2_5 N 0.83489(14) 0.93936(12) 0.69710(10)
H1_5 H 0.9781 0.8424 0.7170
C8_6 C 0.83976(17) 0.93694(15) 0.63459(13)
H7_6 H 0.8850 0.9612 0.6149
C9_6 C 0.78272(17) 0.90123(14) 0.59786(13)
H8_6 H 0.7895 0.9004 0.5540
C10_6 C 0.77116(17) 0.90361(15) 0.72325(13)
H9_6 H 0.7674 0.9033 0.7673
C11_6 C 0.71046(17) 0.86704(15) 0.68991(13)
H10_6 H 0.6663 0.8428 0.7109
C12_6 C 0.71483(16) 0.86616(14) 0.62540(13)
C13_6 C 0.57117(17) 0.78080(15) 0.62551(13)
H11_6 H 0.5491 0.8145 0.6573
H12_6 H 0.6013 0.7412 0.6470
C14_9 C 0.5000 0.7500 0.5874(2)
Co3_2 Co 0.07201(3) 0.5000 0.7500
S4_6 S 0.35851(4) 0.67170(4) 0.57397(3)
N5_4 N 0.16511(14) 0.56064(12) 0.69710(10)
C21_6 C 0.16024(17) 0.56306(15) 0.63459(13)
H19_6 H 0.1150 0.5388 0.6149
C22_6 C 0.21728(17) 0.59877(14) 0.59786(13)
H20_6 H 0.2105 0.5996 0.5540
C23_6 C 0.22884(17) 0.59639(15) 0.72325(13)
H21_6 H 0.2326 0.5967 0.7673
C24_6 C 0.28954(17) 0.63296(15) 0.68991(13)
H22_6 H 0.3337 0.6572 0.7109
C25_6 C 0.28517(16) 0.63384(14) 0.62540(13)
C26_6 C 0.42883(17) 0.71920(15) 0.62551(13)
H23_6 H 0.4509 0.6855 0.6573
H24_6 H 0.3987 0.7588 0.6470
H13_7 H 0.0219 0.3424 0.7830
Cl1_7 Cl 0.07312(4) 0.59401(4) 0.82827(3)
H1_6 H 0.0219 0.6576 0.7170
Cl2_7 Cl 0.07312(4) 0.40599(4) 0.67173(3)
N6_5 N 0.16511(14) 0.43936(12) 0.80290(10)
S2_7 S 0.64149(4) 0.17170(4) 0.92603(3)
O2_10 O 0.5000 0.2500 0.96791(17)
H1_7 H 0.9781 0.1576 0.7830
C8_7 C 0.83976(17) 0.06306(15) 0.86541(13)
H7_7 H 0.8850 0.0388 0.8851
C9_7 C 0.78272(17) 0.09877(14) 0.90214(13)
H8_7 H 0.7895 0.0996 0.9460
C10_7 C 0.77116(17) 0.09639(15) 0.77675(13)
H9_7 H 0.7674 0.0967 0.7327
C11_7 C 0.71046(17) 0.13296(15) 0.81009(13)
H10_7 H 0.6663 0.1572 0.7891
C12_7 C 0.71483(16) 0.13384(14) 0.87460(13)
C13_7 C 0.57117(17) 0.21920(15) 0.87449(13)
H11_7 H 0.5491 0.1855 0.8427
H12_7 H 0.6013 0.2588 0.8530
C14_10 C 0.5000 0.2500 0.9126(2)
S4_7 S 0.35851(4) 0.32830(4) 0.92603(3)
C21_7 C 0.16024(17) 0.43694(15) 0.86541(13)
H19_7 H 0.1150 0.4612 0.8851
C22_7 C 0.21728(17) 0.40123(14) 0.90214(13)
H20_7 H 0.2105 0.4004 0.9460
C23_7 C 0.22884(17) 0.40361(15) 0.77675(13)
H21_7 H 0.2326 0.4033 0.7327
C24_7 C 0.28954(17) 0.36704(15) 0.81009(13)
H22_7 H 0.3337 0.3428 0.7891
C25_7 C 0.28517(16) 0.36616(14) 0.87460(13)
C26_7 C 0.42883(17) 0.28080(15) 0.87449(13)
H23_7 H 0.4509 0.3145 0.8427
H24_7 H 0.3987 0.2412 0.8530
Co1_6 Co 0.42799(3) 0.5000 0.2500
Cl1_8 Cl 0.42688(4) 0.40599(4) 0.32827(3)
S1_7 S 0.71314(5) 0.30532(4) 0.09058(3)
S2_8 S 0.14149(4) 0.32830(4) 0.07397(3)
O1_10 O 0.7500 0.47304(19) 0.0000
O2_11 O 0.0000 0.2500 0.03209(17)
N1_5 N 0.52354(13) 0.43991(12) 0.19865(10)
N2_6 N 0.33489(14) 0.43936(12) 0.19710(10)
C1_7 C 0.52122(17) 0.36726(15) 0.19539(13)
H1_8 H 0.4781 0.3424 0.2170
C2_7 C 0.57836(18) 0.32729(15) 0.16219(13)
H2_7 H 0.5740 0.2760 0.1611
C3_7 C 0.58469(17) 0.47301(15) 0.16744(13)
H3_7 H 0.5867 0.5244 0.1687
C4_7 C 0.64542(18) 0.43730(15) 0.13334(13)
H4_7 H 0.6881 0.4637 0.1126
C5_7 C 0.64279(17) 0.36203(15) 0.13002(12)
C6_7 C 0.78645(17) 0.36604(16) 0.05410(12)
H5_7 H 0.8350 0.3377 0.0391
H6_7 H 0.8071 0.4008 0.0856
C7_10 C 0.7500 0.4080(2) 0.0000
C8_8 C 0.33976(17) 0.43694(15) 0.13459(13)
H7_8 H 0.3850 0.4612 0.1149
C9_8 C 0.28272(17) 0.40123(14) 0.09786(13)
H8_8 H 0.2895 0.4004 0.0540
C10_8 C 0.27116(17) 0.40361(15) 0.22325(13)
H9_8 H 0.2674 0.4033 0.2673
C11_8 C 0.21046(17) 0.36704(15) 0.18991(13)
H10_8 H 0.1663 0.3428 0.2109
C12_8 C 0.21483(16) 0.36616(14) 0.12540(13)
C13_8 C 0.07117(17) 0.28080(15) 0.12551(13)
H11_8 H 0.0491 0.3145 0.1573
H12_8 H 0.1013 0.2412 0.1470
C14_11 C 0.0000 0.2500 0.0874(2)
Cl2_8 Cl 0.42688(4) 0.59401(4) 0.17173(3)
N4_4 N 0.52354(13) 0.56009(12) 0.30135(10)
N6_6 N 0.33489(14) 0.56064(12) 0.30290(10)
O1_11 O 0.7500 0.47304(19) 1.0000
C7_11 C 0.7500 0.4080(2) 1.0000
S3_7 S 0.78686(5) 0.30532(4) 0.90942(3)
N3_6 N 0.97646(13) 0.43991(12) 0.80135(10)
C15_7 C 0.97878(17) 0.36726(15) 0.80461(13)
C16_7 C 0.92164(18) 0.32729(15) 0.83781(13)
H14_7 H 0.9260 0.2760 0.8389
C17_7 C 0.91531(17) 0.47301(15) 0.83256(13)
H15_7 H 0.9133 0.5244 0.8313
C18_7 C 0.85458(18) 0.43730(15) 0.86666(13)
H16_7 H 0.8119 0.4637 0.8874
C19_7 C 0.85721(17) 0.36203(15) 0.86998(12)
C20_7 C 0.71355(17) 0.36604(16) 0.94590(12)
H17_7 H 0.6650 0.3377 0.9609
H18_7 H 0.6929 0.4008 0.9144
S1_8 S 0.78686(5) 0.69468(4) 0.59058(3)
O1_12 O 0.7500 0.52696(19) 0.5000
N1_6 N 0.97646(13) 0.56009(12) 0.69865(10)
C1_8 C 0.97878(17) 0.63274(15) 0.69539(13)
C2_8 C 0.92164(18) 0.67271(15) 0.66219(13)
H2_8 H 0.9260 0.7240 0.6611
C3_8 C 0.91531(17) 0.52699(15) 0.66744(13)
H3_8 H 0.9133 0.4756 0.6687
C4_8 C 0.85458(18) 0.56270(15) 0.63334(13)
H4_8 H 0.8119 0.5363 0.6126
C5_8 C 0.85721(17) 0.63797(15) 0.63002(12)
C6_8 C 0.71355(17) 0.63396(16) 0.55410(12)
H5_8 H 0.6650 0.6623 0.5391
H6_8 H 0.6929 0.5992 0.5856
C7_12 C 0.7500 0.5920(2) 0.5000
S3_8 S 0.71314(5) 0.69468(4) 0.40942(3)
C15_8 C 0.52122(17) 0.63274(15) 0.30461(13)
H13_8 H 0.4781 0.6576 0.2830
C16_8 C 0.57836(18) 0.67271(15) 0.33781(13)
H14_8 H 0.5740 0.7240 0.3389
C17_8 C 0.58469(17) 0.52699(15) 0.33256(13)
H15_8 H 0.5867 0.4756 0.3313
C18_8 C 0.64542(18) 0.56270(15) 0.36666(13)
H16_8 H 0.6881 0.5363 0.3874
C19_8 C 0.64279(17) 0.63797(15) 0.36998(12)
C20_8 C 0.78645(17) 0.63396(16) 0.44590(12)
H17_8 H 0.8350 0.6623 0.4609
H18_8 H 0.8071 0.5992 0.4144
O2_12 O -0.0000 0.7500 0.46791(17)
C14_12 C -0.0000 0.7500 0.4126(2)
S4_8 S 0.14149(4) 0.67170(4) 0.42603(3)
C21_8 C 0.33976(17) 0.56306(15) 0.36541(13)
H19_8 H 0.3850 0.5388 0.3851
C22_8 C 0.28272(17) 0.59877(14) 0.40214(13)
H20_8 H 0.2895 0.5996 0.4460
C23_8 C 0.27116(17) 0.59639(15) 0.27675(13)
H21_8 H 0.2674 0.5967 0.2327
C24_8 C 0.21046(17) 0.63296(15) 0.31009(13)
H22_8 H 0.1663 0.6572 0.2891
C25_8 C 0.21483(16) 0.63384(14) 0.37460(13)
C26_8 C 0.07117(17) 0.71920(15) 0.37449(13)
H23_8 H 0.0491 0.6855 0.3427
H24_8 H 0.1013 0.7588 0.3530
loop_
_geom_bond_atom_site_label_1
_geom_bond_atom_site_label_2
_geom_bond_site_symmetry_1
_geom_bond_site_symmetry_2
Co1 Cl1 1_555 1_555
S2 C12 1_555 1_555
O2 C14 1_555 1_555
N2 Co1 1_555 1_555
C8 N2 1_555 1_555
H7 C8 1_555 1_555
C9 C8 1_555 1_555
H8 C9 1_555 1_555
C10 N2 1_555 1_555
H9 C10 1_555 1_555
C11 C10 1_555 1_555
H10 C11 1_555 1_555
C12 C9 1_555 1_555
C13 S2 1_555 1_555
H11 C13 1_555 1_555
H12 C13 1_555 1_555
C14 C13 1_555 1_555
Co3 N5 1_555 1_555
S4 C25 1_555 1_555
N5 C21 1_555 1_555
C21 H19 1_555 1_555
C22 C21 1_555 1_555
H20 C22 1_555 1_555
C23 N5 1_555 1_555
H21 C23 1_555 1_555
C24 C23 1_555 1_555
H22 C24 1_555 1_555
C25 C22 1_555 1_555
C26 C14 1_555 1_555
H23 C26 1_555 1_555
H24 C26 1_555 1_555
C11 C12 1_555 1_555
S4 C26 1_555 1_555
C24 C25 1_555 1_555
Cl2 Co1_2 1_555 1_555
N6 Co1_2 1_555 1_555
Co3 Cl1_2 1_555 1_555
Cl2_2 Co3 1_555 1_555
N6_2 Co3 1_555 1_555
S2_2 C12_2 1_555 1_555
O2_2 C14_2 1_555 1_555
C8_2 N6 1_555 1_555
H7_2 C8_2 1_555 1_555
C9_2 C8_2 1_555 1_555
H8_2 C9_2 1_555 1_555
C10_2 N6 1_555 1_555
H9_2 C10_2 1_555 1_555
C11_2 C10_2 1_555 1_555
H10_2 C11_2 1_555 1_555
C12_2 C9_2 1_555 1_555
C13_2 S2_2 1_555 1_555
H11_2 C13_2 1_555 1_555
H12_2 C13_2 1_555 1_555
C14_2 C13_2 1_555 1_555
S4_2 C25_2 1_555 1_555
N6_2 C21_2 1_555 1_555
C21_2 H19_2 1_555 1_555
C22_2 C21_2 1_555 1_555
H20_2 C22_2 1_555 1_555
C23_2 N6_2 1_555 1_555
H21_2 C23_2 1_555 1_555
C24_2 C23_2 1_555 1_555
H22_2 C24_2 1_555 1_555
C25_2 C22_2 1_555 1_555
C26_2 C14_2 1_555 1_555
H23_2 C26_2 1_555 1_555
H24_2 C26_2 1_555 1_555
C11_2 C12_2 1_555 1_555
S4_2 C26_2 1_555 1_555
C24_2 C25_2 1_555 1_555
S1 C5 1_555 1_555
O1 C7 1_555 1_555
C1 N1 1_555 1_555
C2 C1 1_555 1_555
H2 C2 1_555 1_555
C3 N1 1_555 1_555
C4 C3 1_555 1_555
H4 C4 1_555 1_555
C5 C2 1_555 1_555
C6 S1 1_555 1_555
H5 C6 1_555 1_555
H6 C6 1_555 1_555
C7 C6 1_555 1_555
Co2 N3 1_555 1_555
S3 C19 1_555 1_555
N3 C15 1_555 1_555
C15 H13_2 1_555 1_555
C16 C15 1_555 1_555
H14 C16 1_555 1_555
C17 N3 1_555 1_555
C18 C17 1_555 1_555
H16 C18 1_555 1_555
C19 C16 1_555 1_555
C20 C7 1_555 1_555
H17 C20 1_555 1_555
H18 C20 1_555 1_555
C4 C5 1_555 1_555
S3 C20 1_555 1_555
C18 C19 1_555 1_555
Co2 Cl1_3 1_555 1_555
S2_3 C12_3 1_555 1_555
O2_3 C14_3 1_555 1_555
N2_2 Co2 1_555 1_555
C8_3 N2_2 1_555 1_555
H7_3 C8_3 1_555 1_555
C9_3 C8_3 1_555 1_555
H8_3 C9_3 1_555 1_555
C10_3 N2_2 1_555 1_555
H9_3 C10_3 1_555 1_555
C11_3 C10_3 1_555 1_555
H10_3 C11_3 1_555 1_555
C12_3 C9_3 1_555 1_555
C13_3 S2_3 1_555 1_555
H11_3 C13_3 1_555 1_555
H12_3 C13_3 1_555 1_555
C14_3 C13_3 1_555 1_555
C11_3 C12_3 1_555 1_555
O2_4 C14_4 1_555 1_555
Co2_2 N5_2 1_555 1_555
S4_3 C25_3 1_555 1_555
N5_2 C21_3 1_555 1_555
C21_3 H19_3 1_555 1_555
C22_3 C21_3 1_555 1_555
H20_3 C22_3 1_555 1_555
C23_3 N5_2 1_555 1_555
H21_3 C23_3 1_555 1_555
C24_3 C23_3 1_555 1_555
H22_3 C24_3 1_555 1_555
C25_3 C22_3 1_555 1_555
C26_3 C14_4 1_555 1_555
H23_3 C26_3 1_555 1_555
H24_3 C26_3 1_555 1_555
S4_3 C26_3 1_555 1_555
C24_3 C25_3 1_555 1_555
S1_2 C5_2 1_555 1_555
O1_2 C7_2 1_555 1_555
C1_2 N4 1_555 1_555
C2_2 C1_2 1_555 1_555
H2_2 C2_2 1_555 1_555
C3_2 N4 1_555 1_555
C4_2 C3_2 1_555 1_555
H4_2 C4_2 1_555 1_555
C5_2 C2_2 1_555 1_555
C6_2 S1_2 1_555 1_555
H5_2 C6_2 1_555 1_555
H6_2 C6_2 1_555 1_555
C7_2 C6_2 1_555 1_555
C4_2 C5_2 1_555 1_555
O1_3 C7_3 1_555 1_555
Co2_2 N3_2 1_555 1_555
S3_2 C19_2 1_555 1_555
N3_2 C15_2 1_555 1_555
C15_2 H13_3 1_555 1_555
C16_2 C15_2 1_555 1_555
H14_2 C16_2 1_555 1_555
C17_2 N3_2 1_555 1_555
C18_2 C17_2 1_555 1_555
H16_2 C18_2 1_555 1_555
C19_2 C16_2 1_555 1_555
C20_2 C7_3 1_555 1_555
H17_2 C20_2 1_555 1_555
H18_2 C20_2 1_555 1_555
S3_2 C20_2 1_555 1_555
C18_2 C19_2 1_555 1_555
Cl2_3 Co2_2 1_555 1_555
O1_4 C7_4 1_555 1_555
S3_3 C19_3 1_555 1_555
N3_3 C15_3 1_555 1_555
C16_3 C15_3 1_555 1_555
H14_3 C16_3 1_555 1_555
C17_3 N3_3 1_555 1_555
H15_3 C17_3 1_555 1_555
C18_3 C17_3 1_555 1_555
H16_3 C18_3 1_555 1_555
C19_3 C16_3 1_555 1_555
C20_3 C7_4 1_555 1_555
H17_3 C20_3 1_555 1_555
H18_3 C20_3 1_555 1_555
S3_3 C20_3 1_555 1_555
C18_3 C19_3 1_555 1_555
Co1_3 Cl1_4 1_555 1_555
S1_3 C5_3 1_555 1_555
S2_4 C12_4 1_555 1_555
O1_5 C7_5 1_555 1_555
O2_5 C14_5 1_555 1_555
N1_2 Co1_3 1_555 1_555
N2_3 Co1_3 1_555 1_555
C1_3 N1_2 1_555 1_555
H1_4 C1_3 1_555 1_555
C2_3 C1_3 1_555 1_555
H2_3 C2_3 1_555 1_555
C3_3 N1_2 1_555 1_555
H3_3 C3_3 1_555 1_555
C4_3 C3_3 1_555 1_555
H4_3 C4_3 1_555 1_555
C5_3 C2_3 1_555 1_555
C6_3 S1_3 1_555 1_555
H5_3 C6_3 1_555 1_555
H6_3 C6_3 1_555 1_555
C7_5 C6_3 1_555 1_555
C8_4 N2_3 1_555 1_555
H7_4 C8_4 1_555 1_555
C9_4 C8_4 1_555 1_555
H8_4 C9_4 1_555 1_555
C10_4 N2_3 1_555 1_555
H9_4 C10_4 1_555 1_555
C11_4 C10_4 1_555 1_555
H10_4 C11_4 1_555 1_555
C12_4 C9_4 1_555 1_555
C13_4 S2_4 1_555 1_555
H11_4 C13_4 1_555 1_555
H12_4 C13_4 1_555 1_555
C14_5 C13_4 1_555 1_555
Cl2_4 Co1_3 1_555 1_555
N4_2 Co1_3 1_555 1_555
N6_3 Co1_3 1_555 1_555
C4_3 C5_3 1_555 1_555
C11_4 C12_4 1_555 1_555
S1_4 C5_4 1_555 1_555
O1_6 C7_6 1_555 1_555
C1_4 N1_3 1_555 1_555
C2_4 C1_4 1_555 1_555
H2_4 C2_4 1_555 1_555
C3_4 N1_3 1_555 1_555
H3_4 C3_4 1_555 1_555
C4_4 C3_4 1_555 1_555
H4_4 C4_4 1_555 1_555
C5_4 C2_4 1_555 1_555
C6_4 S1_4 1_555 1_555
H5_4 C6_4 1_555 1_555
H6_4 C6_4 1_555 1_555
C7_6 C6_4 1_555 1_555
S3_4 C19_4 1_555 1_555
N4_2 C15_4 1_555 1_555
C15_4 H13_4 1_555 1_555
C16_4 C15_4 1_555 1_555
H14_4 C16_4 1_555 1_555
C17_4 N4_2 1_555 1_555
H15_4 C17_4 1_555 1_555
C18_4 C17_4 1_555 1_555
H16_4 C18_4 1_555 1_555
C19_4 C16_4 1_555 1_555
C20_4 C7_6 1_555 1_555
H17_4 C20_4 1_555 1_555
H18_4 C20_4 1_555 1_555
C4_4 C5_4 1_555 1_555
S3_4 C20_4 1_555 1_555
C18_4 C19_4 1_555 1_555
O2_6 C14_6 1_555 1_555
S4_4 C25_4 1_555 1_555
N6_3 C21_4 1_555 1_555
C21_4 H19_4 1_555 1_555
C22_4 C21_4 1_555 1_555
H20_4 C22_4 1_555 1_555
C23_4 N6_3 1_555 1_555
H21_4 C23_4 1_555 1_555
C24_4 C23_4 1_555 1_555
H22_4 C24_4 1_555 1_555
C25_4 C22_4 1_555 1_555
C26_4 C14_6 1_555 1_555
H23_4 C26_4 1_555 1_555
H24_4 C26_4 1_555 1_555
S4_4 C26_4 1_555 1_555
C24_4 C25_4 1_555 1_555
O2_7 C14_7 1_555 1_555
Co2_3 N5_3 1_555 1_555
S4_5 C25_5 1_555 1_555
N5_3 C21_5 1_555 1_555
C21_5 H19_5 1_555 1_555
C22_5 C21_5 1_555 1_555
H20_5 C22_5 1_555 1_555
C23_5 N5_3 1_555 1_555
H21_5 C23_5 1_555 1_555
C24_5 C23_5 1_555 1_555
H22_5 C24_5 1_555 1_555
C25_5 C22_5 1_555 1_555
C26_5 C14_7 1_555 1_555
H23_5 C26_5 1_555 1_555
H24_5 C26_5 1_555 1_555
S4_5 C26_5 1_555 1_555
C24_5 C25_5 1_555 1_555
O1_7 C7_7 1_555 1_555
Co2_3 N3_4 1_555 1_555
S3_5 C19_5 1_555 1_555
N3_4 C15_5 1_555 1_555
C15_5 H13_5 1_555 1_555
C16_5 C15_5 1_555 1_555
H14_5 C16_5 1_555 1_555
C17_5 N3_4 1_555 1_555
C18_5 C17_5 1_555 1_555
H16_5 C18_5 1_555 1_555
C19_5 C16_5 1_555 1_555
C20_5 C7_7 1_555 1_555
H17_5 C20_5 1_555 1_555
H18_5 C20_5 1_555 1_555
S3_5 C20_5 1_555 1_555
C18_5 C19_5 1_555 1_555
S1_5 C5_5 1_555 1_555
O1_8 C7_8 1_555 1_555
C1_5 N4_3 1_555 1_555
C2_5 C1_5 1_555 1_555
H2_5 C2_5 1_555 1_555
C3_5 N4_3 1_555 1_555
C4_5 C3_5 1_555 1_555
H4_5 C4_5 1_555 1_555
C5_5 C2_5 1_555 1_555
C6_5 S1_5 1_555 1_555
H5_5 C6_5 1_555 1_555
H6_5 C6_5 1_555 1_555
C7_8 C6_5 1_555 1_555
C4_5 C5_5 1_555 1_555
Cl2_5 Co2_3 1_555 1_555
S1_6 C5_6 1_555 1_555
O1_9 C7_9 1_555 1_555
C1_6 N1_4 1_555 1_555
C2_6 C1_6 1_555 1_555
H2_6 C2_6 1_555 1_555
C3_6 N1_4 1_555 1_555
C4_6 C3_6 1_555 1_555
H4_6 C4_6 1_555 1_555
C5_6 C2_6 1_555 1_555
C6_6 S1_6 1_555 1_555
H5_6 C6_6 1_555 1_555
H6_6 C6_6 1_555 1_555
C7_9 C6_6 1_555 1_555
Co2_4 N3_5 1_555 1_555
S3_6 C19_6 1_555 1_555
N3_5 C15_6 1_555 1_555
C15_6 H13_6 1_555 1_555
C16_6 C15_6 1_555 1_555
H14_6 C16_6 1_555 1_555
C17_6 N3_5 1_555 1_555
C18_6 C17_6 1_555 1_555
H16_6 C18_6 1_555 1_555
C19_6 C16_6 1_555 1_555
C20_6 C7_9 1_555 1_555
H17_6 C20_6 1_555 1_555
H18_6 C20_6 1_555 1_555
C4_6 C5_6 1_555 1_555
S3_6 C20_6 1_555 1_555
C18_6 C19_6 1_555 1_555
Co2_4 Cl1_5 1_555 1_555
S2_5 C12_5 1_555 1_555
O2_8 C14_8 1_555 1_555
N2_4 Co2_4 1_555 1_555
C8_5 N2_4 1_555 1_555
H7_5 C8_5 1_555 1_555
C9_5 C8_5 1_555 1_555
H8_5 C9_5 1_555 1_555
C10_5 N2_4 1_555 1_555
H9_5 C10_5 1_555 1_555
C11_5 C10_5 1_555 1_555
H10_5 C11_5 1_555 1_555
C12_5 C9_5 1_555 1_555
C13_5 S2_5 1_555 1_555
H11_5 C13_5 1_555 1_555
H12_5 C13_5 1_555 1_555
C14_8 C13_5 1_555 1_555
C11_5 C12_5 1_555 1_555
Cl2_6 Co1_4 1_555 1_555
N6_4 Co1_4 1_555 1_555
Co1_5 Cl1_6 1_555 1_555
S2_6 C12_6 1_555 1_555
O2_9 C14_9 1_555 1_555
N2_5 Co1_5 1_555 1_555
C8_6 N2_5 1_555 1_555
H7_6 C8_6 1_555 1_555
C9_6 C8_6 1_555 1_555
H8_6 C9_6 1_555 1_555
C10_6 N2_5 1_555 1_555
H9_6 C10_6 1_555 1_555
C11_6 C10_6 1_555 1_555
H10_6 C11_6 1_555 1_555
C12_6 C9_6 1_555 1_555
C13_6 S2_6 1_555 1_555
H11_6 C13_6 1_555 1_555
H12_6 C13_6 1_555 1_555
C14_9 C13_6 1_555 1_555
Co3_2 N5_4 1_555 1_555
S4_6 C25_6 1_555 1_555
N5_4 C21_6 1_555 1_555
C21_6 H19_6 1_555 1_555
C22_6 C21_6 1_555 1_555
H20_6 C22_6 1_555 1_555
C23_6 N5_4 1_555 1_555
H21_6 C23_6 1_555 1_555
C24_6 C23_6 1_555 1_555
H22_6 C24_6 1_555 1_555
C25_6 C22_6 1_555 1_555
C26_6 C14_9 1_555 1_555
H23_6 C26_6 1_555 1_555
H24_6 C26_6 1_555 1_555
C11_6 C12_6 1_555 1_555
S4_6 C26_6 1_555 1_555
C24_6 C25_6 1_555 1_555
Co3_2 Cl1_7 1_555 1_555
Cl2_7 Co3_2 1_555 1_555
N6_5 Co3_2 1_555 1_555
S2_7 C12_7 1_555 1_555
O2_10 C14_10 1_555 1_555
C8_7 N6_4 1_555 1_555
H7_7 C8_7 1_555 1_555
C9_7 C8_7 1_555 1_555
H8_7 C9_7 1_555 1_555
C10_7 N6_4 1_555 1_555
H9_7 C10_7 1_555 1_555
C11_7 C10_7 1_555 1_555
H10_7 C11_7 1_555 1_555
C12_7 C9_7 1_555 1_555
C13_7 S2_7 1_555 1_555
H11_7 C13_7 1_555 1_555
H12_7 C13_7 1_555 1_555
C14_10 C13_7 1_555 1_555
S4_7 C25_7 1_555 1_555
N6_5 C21_7 1_555 1_555
C21_7 H19_7 1_555 1_555
C22_7 C21_7 1_555 1_555
H20_7 C22_7 1_555 1_555
C23_7 N6_5 1_555 1_555
H21_7 C23_7 1_555 1_555
C24_7 C23_7 1_555 1_555
H22_7 C24_7 1_555 1_555
C25_7 C22_7 1_555 1_555
C26_7 C14_10 1_555 1_555
H23_7 C26_7 1_555 1_555
H24_7 C26_7 1_555 1_555
C11_7 C12_7 1_555 1_555
S4_7 C26_7 1_555 1_555
C24_7 C25_7 1_555 1_555
Co1_6 Cl1_8 1_555 1_555
S1_7 C5_7 1_555 1_555
S2_8 C12_8 1_555 1_555
O1_10 C7_10 1_555 1_555
O2_11 C14_11 1_555 1_555
N1_5 Co1_6 1_555 1_555
N2_6 Co1_6 1_555 1_555
C1_7 N1_5 1_555 1_555
H1_8 C1_7 1_555 1_555
C2_7 C1_7 1_555 1_555
H2_7 C2_7 1_555 1_555
C3_7 N1_5 1_555 1_555
H3_7 C3_7 1_555 1_555
C4_7 C3_7 1_555 1_555
H4_7 C4_7 1_555 1_555
C5_7 C2_7 1_555 1_555
C6_7 S1_7 1_555 1_555
H5_7 C6_7 1_555 1_555
H6_7 C6_7 1_555 1_555
C7_10 C6_7 1_555 1_555
C8_8 N2_6 1_555 1_555
H7_8 C8_8 1_555 1_555
C9_8 C8_8 1_555 1_555
H8_8 C9_8 1_555 1_555
C10_8 N2_6 1_555 1_555
H9_8 C10_8 1_555 1_555
C11_8 C10_8 1_555 1_555
H10_8 C11_8 1_555 1_555
C12_8 C9_8 1_555 1_555
C13_8 S2_8 1_555 1_555
H11_8 C13_8 1_555 1_555
H12_8 C13_8 1_555 1_555
C14_11 C13_8 1_555 1_555
Cl2_8 Co1_6 1_555 1_555
N4_4 Co1_6 1_555 1_555
N6_6 Co1_6 1_555 1_555
C4_7 C5_7 1_555 1_555
C11_8 C12_8 1_555 1_555
O1_11 C7_11 1_555 1_555
S3_7 C19_7 1_555 1_555
N3_6 C15_7 1_555 1_555
C16_7 C15_7 1_555 1_555
H14_7 C16_7 1_555 1_555
C17_7 N3_6 1_555 1_555
H15_7 C17_7 1_555 1_555
C18_7 C17_7 1_555 1_555
H16_7 C18_7 1_555 1_555
C19_7 C16_7 1_555 1_555
C20_7 C7_11 1_555 1_555
H17_7 C20_7 1_555 1_555
H18_7 C20_7 1_555 1_555
S3_7 C20_7 1_555 1_555
C18_7 C19_7 1_555 1_555
S1_8 C5_8 1_555 1_555
O1_12 C7_12 1_555 1_555
C1_8 N1_6 1_555 1_555
C2_8 C1_8 1_555 1_555
H2_8 C2_8 1_555 1_555
C3_8 N1_6 1_555 1_555
H3_8 C3_8 1_555 1_555
C4_8 C3_8 1_555 1_555
H4_8 C4_8 1_555 1_555
C5_8 C2_8 1_555 1_555
C6_8 S1_8 1_555 1_555
H5_8 C6_8 1_555 1_555
H6_8 C6_8 1_555 1_555
C7_12 C6_8 1_555 1_555
S3_8 C19_8 1_555 1_555
N4_4 C15_8 1_555 1_555
C15_8 H13_8 1_555 1_555
C16_8 C15_8 1_555 1_555
H14_8 C16_8 1_555 1_555
C17_8 N4_4 1_555 1_555
H15_8 C17_8 1_555 1_555
C18_8 C17_8 1_555 1_555
H16_8 C18_8 1_555 1_555
C19_8 C16_8 1_555 1_555
C20_8 C7_12 1_555 1_555
H17_8 C20_8 1_555 1_555
H18_8 C20_8 1_555 1_555
C4_8 C5_8 1_555 1_555
S3_8 C20_8 1_555 1_555
C18_8 C19_8 1_555 1_555
O2_12 C14_12 1_555 1_555
S4_8 C25_8 1_555 1_555
N6_6 C21_8 1_555 1_555
C21_8 H19_8 1_555 1_555
C22_8 C21_8 1_555 1_555
H20_8 C22_8 1_555 1_555
C23_8 N6_6 1_555 1_555
H21_8 C23_8 1_555 1_555
C24_8 C23_8 1_555 1_555
H22_8 C24_8 1_555 1_555
C25_8 C22_8 1_555 1_555
C26_8 C14_12 1_555 1_555
H23_8 C26_8 1_555 1_555
H24_8 C26_8 1_555 1_555
S4_8 C26_8 1_555 1_555
C24_8 C25_8 1_555 1_555

#END
