
###############################################################################
#
# This file contains modified crystal structure data generated from the
# MOF subset of the Cambridge Structural Database (CSD) v543 
# hosted by the Cambridge Crystallographic Data Centre (CCDC).
#
# This work is licensed under the Creative Commons
# Attribution-NonCommercial-ShareAlike 4.0 International License.
# To view a copy of this license, visit
# http://creativecommons.org/licenses/by-nc-sa/4.0/
# or send a letter to
# Creative Commons, PO Box 1866, Mountain View, CA 94042, USA.
#
# CIF created using the CSD Python API on 29 September 2022
# The structure has been converted into the P1 space group
# The structure has a 3D framework
# The original CSD entry JELLAR06 is in the monoclinic crystal system
# The framework has been calculated to contain at least 10.0% void space
# The void calculation uses a probe of radius 1.32A, grid spacing 0.4
#
###############################################################################

data_JELLAR06
_chemical_formula_moiety         '(C264 H216 Co16 Fe11 N96)n'
_symmetry_cell_setting           triclinic
_symmetry_space_group_name_H-M   'P 1'
_symmetry_Int_Tables_number      1
_space_group_name_Hall           'P 1'
loop_
_symmetry_equiv_pos_site_id
_symmetry_equiv_pos_as_xyz
1 x,y,z
_cell_length_a                   17.2919(12)
_cell_length_b                   23.3747(13)
_cell_length_c                   22.7584(12)
_cell_angle_alpha                90
_cell_angle_beta                 90.398(5)
_cell_angle_gamma                90
_cell_volume                     9198.56
loop_
_atom_site_label
_atom_site_type_symbol
_atom_site_fract_x
_atom_site_fract_y
_atom_site_fract_z
Fe2 Fe 0.000000 0.500000 0.000000
N22 N 0.0709(3) 0.5464(3) 0.1136(3)
N23 N 0.0053(4) 0.3791(3) 0.0472(4)
H53 H 0.009053 0.637559 0.192639
C65 C 0.0449(3) 0.5276(3) 0.0714(3)
C66 C 0.0016(3) 0.4251(3) 0.0303(3)
Fe2_2 Fe 0.000000 0.500000 1.000000
C133 C 0.0984(3) 0.4865(3) 0.9691(2)
Co1 Co 0.58983(4) 0.21005(3) 0.50364(3)
Co2 Co 0.50095(5) 0.34013(3) 0.34333(3)
Co3 Co 0.37840(4) 0.47745(3) 0.20318(3)
Co4 Co 0.75622(4) 0.56005(4) 0.09710(3)
Fe1 Fe 0.500000 0.500000 0.000000
Fe2_3 Fe 1.000000 0.500000 0.000000
N1 N 0.6351(3) 0.2887(2) 0.5436(2)
N2 N 0.7019(3) 0.1888(2) 0.4783(2)
N3 N 0.6400(3) 0.1766(2) 0.58430(18)
N4 N 0.4991(3) 0.2231(2) 0.56091(18)
N5 N 0.5500(3) 0.24986(19) 0.43073(18)
N6 N 0.6182(5) 0.4233(3) 0.3943(3)
N7 N 0.6264(3) 0.2958(2) 0.2612(2)
N8 N 0.3763(3) 0.2644(3) 0.2893(2)
N9 N 0.3803(4) 0.3779(3) 0.4304(3)
N10 N 0.4477(3) 0.4281(2) 0.25464(18)
N11 N 0.2904(3) 0.4864(2) 0.2711(2)
N12 N 0.2964(3) 0.4194(2) 0.16721(19)
N13 N 0.2964(3) 0.5352(2) 0.15979(18)
N14 N 0.4206(3) 0.55973(19) 0.22678(19)
N15 N 0.4479(2) 0.47613(18) 0.12476(17)
N16 N 0.4551(2) 0.62507(18) 0.01720(16)
N17 N 0.6634(2) 0.5249(2) 0.04495(17)
N18 N 0.7437(3) 0.6423(2) 0.0572(2)
N19 N 0.6726(3) 0.6013(2) 0.1544(2)
N20 N 0.7399(3) 0.4971(3) 0.1638(2)
N21 N 0.8441(2) 0.5240(2) 0.0513(2)
C1 C 0.6219(5) 0.3433(3) 0.5255(3)
H1 H 0.599829 0.349257 0.488653
C2 C 0.6394(5) 0.3885(3) 0.5586(3)
H2 H 0.632225 0.425371 0.544126
C3 C 0.6674(5) 0.3805(3) 0.6130(3)
H3 H 0.675946 0.411720 0.637543
C4 C 0.6832(5) 0.3269(3) 0.6322(3)
H4 H 0.704667 0.321523 0.669380
C5 C 0.6680(5) 0.2814(3) 0.5979(3)
C6 C 0.6824(5) 0.2221(3) 0.6168(3)
H5 H 0.669308 0.219061 0.658078
H6 H 0.737377 0.214593 0.613490
C7 C 0.7382(4) 0.2104(3) 0.4319(3)
H7 H 0.712656 0.235431 0.406563
C8 C 0.8148(4) 0.1951(3) 0.4217(3)
H8 H 0.840988 0.210289 0.389674
C9 C 0.8507(4) 0.1585(3) 0.4580(3)
H9 H 0.901638 0.148107 0.450755
C10 C 0.8147(4) 0.1367(3) 0.5042(3)
H10 H 0.839619 0.110769 0.528823
C11 C 0.7399(4) 0.1533(3) 0.5150(3)
C12 C 0.6929(4) 0.1311(3) 0.5649(3)
H11 H 0.663526 0.097896 0.552381
H12 H 0.726623 0.119834 0.597105
C13 C 0.5720(4) 0.1555(3) 0.6176(2)
H13 H 0.555497 0.118896 0.601749
H14 H 0.586391 0.149863 0.658480
C14 C 0.5085(4) 0.1963(3) 0.6137(2)
C15 C 0.4579(4) 0.2074(3) 0.6581(3)
H15 H 0.463104 0.188627 0.693891
C16 C 0.4000(4) 0.2458(3) 0.6499(3)
H16 H 0.365350 0.253427 0.680023
C17 C 0.3928(4) 0.2735(3) 0.5968(3)
H17 H 0.354432 0.300868 0.590927
C18 C 0.4412(4) 0.2606(3) 0.5544(3)
H18 H 0.434745 0.278312 0.518107
C19 C 0.5312(3) 0.2837(2) 0.3975(2)
C20 C 0.5747(4) 0.3917(3) 0.3762(2)
C21 C 0.5781(3) 0.3129(2) 0.2917(2)
C22 C 0.4243(3) 0.2916(2) 0.3102(2)
C23 C 0.4258(5) 0.3649(3) 0.3986(3)
C24 C 0.4704(3) 0.3953(2) 0.2884(2)
C25 C 0.2858(5) 0.4558(4) 0.3212(3)
H19 H 0.326993 0.432227 0.331776
C26 C 0.2245(5) 0.4581(4) 0.3560(4)
H20 H 0.225067 0.439200 0.391925
C27 C 0.1620(5) 0.4875(4) 0.3392(4)
H21 H 0.117883 0.487965 0.362330
C28 C 0.1639(5) 0.5183(4) 0.2852(4)
H22 H 0.121407 0.539232 0.272238
C29 C 0.2287(5) 0.5160(4) 0.2539(3)
C30 C 0.2358(5) 0.5526(4) 0.2008(3)
H23 H 0.186628 0.552587 0.180096
H24 H 0.246057 0.591575 0.213353
C31 C 0.2653(4) 0.5019(3) 0.1098(3)
H25 H 0.303155 0.500470 0.078577
H26 H 0.219042 0.520286 0.094501
C32 C 0.2464(4) 0.4429(3) 0.1291(3)
C33 C 0.1810(4) 0.4134(3) 0.1113(3)
H27 H 0.145374 0.430486 0.086029
C34 C 0.1695(4) 0.3603(3) 0.1309(3)
H28 H 0.126940 0.339662 0.117424
C35 C 0.2180(4) 0.3365(3) 0.1695(3)
H29 H 0.208829 0.299858 0.183861
C36 C 0.2821(4) 0.3671(3) 0.1876(3)
H30 H 0.316037 0.350779 0.214727
C37 C 0.3427(4) 0.5854(3) 0.1427(3)
H31 H 0.308547 0.617041 0.133198
H32 H 0.372590 0.576366 0.108009
C38 C 0.3966(4) 0.6024(3) 0.1924(3)
C39 C 0.4195(4) 0.6576(3) 0.2030(3)
H33 H 0.402189 0.687201 0.178945
C40 C 0.4678(4) 0.6686(3) 0.2491(3)
H34 H 0.485473 0.705629 0.255811
C41 C 0.4897(4) 0.6264(3) 0.2846(3)
H35 H 0.520697 0.634056 0.317217
C42 C 0.4665(4) 0.5719(3) 0.2728(3)
H36 H 0.482871 0.542364 0.297233
C43 C 0.4692(3) 0.4835(2) 0.07844(18)
C44 C 0.4738(2) 0.5783(2) 0.01196(17)
C45 C 0.6029(3) 0.5153(2) 0.02705(18)
C46 C 0.6313(4) 0.6412(3) 0.1177(3)
H37 H 0.603059 0.667855 0.142216
H38 H 0.594187 0.620719 0.093478
C47 C 0.6861(5) 0.6736(3) 0.0792(3)
C48 C 0.6789(5) 0.7300(3) 0.0681(3)
H39 H 0.638524 0.750925 0.084248
C49 C 0.7310(5) 0.7554(4) 0.0333(3)
H40 H 0.725397 0.793930 0.024082
C50 C 0.7918(5) 0.7255(3) 0.0112(3)
C51 C 0.7967(5) 0.6667(3) 0.0235(3)
H42 H 0.836798 0.644978 0.008037
C52 C 0.6256(5) 0.5533(3) 0.1775(3)
H43 H 0.595734 0.566348 0.210799
H44 H 0.589721 0.540352 0.147306
C53 C 0.6757(5) 0.5052(4) 0.1957(3)
C54 C 0.6597(5) 0.4692(4) 0.2427(3)
H45 H 0.616015 0.474265 0.265688
C55 C 0.7125(5) 0.4247(4) 0.2538(3)
H46 H 0.702246 0.398575 0.283500
C56 C 0.7736(5) 0.4195(4) 0.2242(3)
H47 H 0.809025 0.391223 0.234396
C57 C 0.7891(5) 0.4547(4) 0.1772(3)
H48 H 0.833266 0.449020 0.154860
C58 C 0.7118(4) 0.6308(5) 0.2037(5)
H49 H 0.692219 0.669610 0.205339
H50 H 0.696774 0.611951 0.239839
C59 C 0.7951(2) 0.6336(3) 0.2027(3)
C60 C 0.8379(3) 0.6653(3) 0.2431(3)
H51 H 0.812951 0.685457 0.272571
C61 C 0.9181(3) 0.6668(3) 0.2393(3)
H52 H 0.946762 0.687962 0.266282
C62 C 0.9554(2) 0.6366(4) 0.1952(3)
C63 C 0.9126(2) 0.6049(3) 0.1548(3)
H54 H 0.937535 0.584649 0.125284
N24 N 0.8324(2) 0.6034(3) 0.1586(2)
C64 C 0.9016(3) 0.5135(3) 0.0309(2)
H95 H 0.170818 0.256371 0.011334
Co10 Co 0.58983(4) 0.28995(3) 0.00364(3)
N49 N 0.5449(2) 0.12507(18) 0.48280(16)
Fe1_2 Fe 0.500000 0.500000 1.000000
Fe2_4 Fe 1.000000 0.500000 1.000000
H41 H 0.829182 0.743629 0.988666
Co5 Co 0.41017(4) 0.78995(3) 0.49636(3)
Co6 Co 0.49905(5) 0.65987(3) 0.65667(3)
Co7 Co 0.62160(4) 0.52255(3) 0.79682(3)
Co8 Co 0.24378(4) 0.43995(4) 0.90290(3)
N25 N 0.3649(3) 0.7113(2) 0.4564(2)
N26 N 0.2981(3) 0.8112(2) 0.5217(2)
N27 N 0.3600(3) 0.8234(2) 0.41570(18)
N28 N 0.5009(3) 0.7769(2) 0.43909(18)
N29 N 0.4500(3) 0.75014(19) 0.56927(18)
N30 N 0.3818(5) 0.5767(3) 0.6057(3)
N31 N 0.3736(3) 0.7042(2) 0.7388(2)
N32 N 0.6237(3) 0.7356(3) 0.7107(2)
N33 N 0.6197(4) 0.6221(3) 0.5696(3)
N34 N 0.5523(3) 0.5719(2) 0.74536(18)
N35 N 0.7096(3) 0.5136(2) 0.7289(2)
N36 N 0.7036(3) 0.5806(2) 0.83279(19)
N37 N 0.7036(3) 0.4648(2) 0.84021(18)
N38 N 0.5794(3) 0.44027(19) 0.77322(19)
N39 N 0.5521(2) 0.52387(18) 0.87524(17)
N40 N 0.5449(2) 0.37493(18) 0.98280(16)
N41 N 0.3366(2) 0.4751(2) 0.95505(17)
N42 N 0.2563(3) 0.3577(2) 0.9428(2)
N43 N 0.3274(3) 0.3987(2) 0.8456(2)
N44 N 0.2601(3) 0.5029(3) 0.8362(2)
N45 N 0.1559(2) 0.4760(2) 0.9487(2)
C67 C 0.3781(5) 0.6567(3) 0.4745(3)
H55 H 0.400171 0.650743 0.511347
C68 C 0.3606(5) 0.6115(3) 0.4414(3)
H56 H 0.367775 0.574629 0.455874
C69 C 0.3326(5) 0.6195(3) 0.3870(3)
H57 H 0.324054 0.588280 0.362457
C70 C 0.3168(5) 0.6731(3) 0.3678(3)
H58 H 0.295333 0.678477 0.330620
C71 C 0.3320(5) 0.7186(3) 0.4021(3)
C72 C 0.3176(5) 0.7779(3) 0.3832(3)
H59 H 0.330692 0.780939 0.341922
H60 H 0.262623 0.785407 0.386510
C73 C 0.2618(4) 0.7896(3) 0.5681(3)
H61 H 0.287344 0.764569 0.593437
C74 C 0.1852(4) 0.8049(3) 0.5783(3)
H62 H 0.159012 0.789711 0.610326
C75 C 0.1493(4) 0.8415(3) 0.5420(3)
H63 H 0.098362 0.851893 0.549245
C76 C 0.1853(4) 0.8633(3) 0.4958(3)
H64 H 0.160381 0.889231 0.471177
C77 C 0.2601(4) 0.8467(3) 0.4850(3)
C78 C 0.3071(4) 0.8689(3) 0.4351(3)
H65 H 0.336474 0.902104 0.447619
H66 H 0.273377 0.880166 0.402895
C79 C 0.4280(4) 0.8445(3) 0.3824(2)
H67 H 0.444503 0.881104 0.398251
H68 H 0.413609 0.850137 0.341520
C80 C 0.4915(4) 0.8037(3) 0.3863(2)
C81 C 0.5421(4) 0.7926(3) 0.3419(3)
H69 H 0.536896 0.811373 0.306109
C82 C 0.6000(4) 0.7542(3) 0.3501(3)
H70 H 0.634650 0.746573 0.319977
C83 C 0.6072(4) 0.7265(3) 0.4032(3)
H71 H 0.645568 0.699132 0.409073
C84 C 0.5588(4) 0.7394(3) 0.4456(3)
H72 H 0.565255 0.721688 0.481893
C85 C 0.4688(3) 0.7163(2) 0.6025(2)
C86 C 0.4253(4) 0.6083(3) 0.6238(2)
C87 C 0.4219(3) 0.6871(2) 0.7083(2)
C88 C 0.5757(3) 0.7084(2) 0.6898(2)
C89 C 0.5742(5) 0.6351(3) 0.6014(3)
C90 C 0.5296(3) 0.6047(2) 0.7116(2)
C91 C 0.7142(5) 0.5442(4) 0.6788(3)
H73 H 0.673007 0.567773 0.668224
C92 C 0.7755(5) 0.5419(4) 0.6440(4)
H74 H 0.774933 0.560800 0.608075
C93 C 0.8380(5) 0.5125(4) 0.6608(4)
H75 H 0.882117 0.512035 0.637670
C94 C 0.8361(5) 0.4817(4) 0.7148(4)
H76 H 0.878593 0.460768 0.727762
C95 C 0.7713(5) 0.4840(4) 0.7461(3)
C96 C 0.7642(5) 0.4474(4) 0.7992(3)
H77 H 0.813372 0.447413 0.819904
H78 H 0.753943 0.408425 0.786647
C97 C 0.7347(4) 0.4981(3) 0.8902(3)
H79 H 0.696845 0.499530 0.921423
H80 H 0.780958 0.479714 0.905499
C98 C 0.7536(4) 0.5571(3) 0.8709(3)
C99 C 0.8190(4) 0.5866(3) 0.8887(3)
H81 H 0.854626 0.569514 0.913971
C100 C 0.8305(4) 0.6397(3) 0.8691(3)
H82 H 0.873060 0.660338 0.882576
C101 C 0.7820(4) 0.6635(3) 0.8305(3)
H83 H 0.791171 0.700142 0.816139
C102 C 0.7179(4) 0.6329(3) 0.8124(3)
H84 H 0.683963 0.649221 0.785273
C103 C 0.6573(4) 0.4146(3) 0.8573(3)
H85 H 0.691453 0.382959 0.866802
H86 H 0.627410 0.423634 0.891991
C104 C 0.6034(4) 0.3976(3) 0.8076(3)
C105 C 0.5805(4) 0.3424(3) 0.7970(3)
H87 H 0.597811 0.312799 0.821055
C106 C 0.5322(4) 0.3314(3) 0.7509(3)
H88 H 0.514527 0.294371 0.744189
C107 C 0.5103(4) 0.3736(3) 0.7154(3)
H89 H 0.479303 0.365944 0.682783
C108 C 0.5335(4) 0.4281(3) 0.7272(3)
H90 H 0.517129 0.457636 0.702767
C109 C 0.5308(3) 0.5165(2) 0.92156(18)
C110 C 0.5262(2) 0.4217(2) 0.98804(17)
C111 C 0.3971(3) 0.4847(2) 0.97295(18)
C112 C 0.3687(4) 0.3588(3) 0.8823(3)
H91 H 0.396941 0.332145 0.857784
H92 H 0.405813 0.379281 0.906522
C113 C 0.3139(5) 0.3264(3) 0.9208(3)
C114 C 0.3211(5) 0.2700(3) 0.9319(3)
H93 H 0.361476 0.249075 0.915752
C115 C 0.2690(5) 0.2446(4) 0.9667(3)
H94 H 0.274603 0.206070 0.975918
C116 C 0.2082(5) 0.2745(3) 0.9888(3)
C117 C 0.2033(5) 0.3333(3) 0.9765(3)
H96 H 0.163202 0.355022 0.991963
C118 C 0.3744(5) 0.4467(3) 0.8225(3)
H97 H 0.404266 0.433652 0.789201
H98 H 0.410279 0.459648 0.852694
C119 C 0.3243(5) 0.4948(4) 0.8043(3)
C120 C 0.3403(5) 0.5308(4) 0.7573(3)
H99 H 0.383985 0.525735 0.734312
C121 C 0.2875(5) 0.5753(4) 0.7462(3)
H100 H 0.297754 0.601425 0.716500
C122 C 0.2264(5) 0.5805(4) 0.7758(3)
H101 H 0.190975 0.608777 0.765604
C123 C 0.2109(5) 0.5453(4) 0.8228(3)
H102 H 0.166734 0.550980 0.845140
C124 C 0.2882(4) 0.3692(5) 0.7963(5)
H103 H 0.307781 0.330390 0.794661
H104 H 0.303226 0.388049 0.760161
C125 C 0.2049(2) 0.3664(3) 0.7973(3)
C126 C 0.1621(3) 0.3347(3) 0.7569(3)
H105 H 0.187049 0.314543 0.727429
C127 C 0.0819(3) 0.3332(3) 0.7607(3)
H106 H 0.053238 0.312038 0.733718
C128 C 0.0446(2) 0.3634(4) 0.8048(3)
C129 C 0.0874(2) 0.3951(3) 0.8452(3)
H108 H 0.062465 0.415351 0.874716
N46 N 0.1676(2) 0.3966(3) 0.8414(2)
N47 N 0.9291(3) 0.4536(3) 0.8864(3)
C131 C 0.9551(3) 0.4724(3) 0.9286(3)
N48 N 0.9947(4) 0.6209(3) 0.9528(4)
C132 C 0.9984(3) 0.5749(3) 0.9697(3)
Co9 Co 0.41017(4) 0.71005(3) 0.99636(3)
N50 N 0.4551(2) 0.87493(18) 0.51720(16)
H107 H 0.990947 0.362441 0.807361
Fe3 Fe 0.000000 -0.000000 0.500000
H107_2 H 0.009053 0.862441 0.692639
Fe3_2 Fe 0.000000 1.000000 0.500000
N25_2 N 0.6351(3) 0.2113(2) 0.0436(2)
N27_2 N 0.6400(3) 0.3234(2) 0.08430(18)
N28_2 N 0.4991(3) 0.2769(2) 0.06091(18)
C67_2 C 0.6219(5) 0.1567(3) 0.0255(3)
C68_2 C 0.6394(5) 0.1115(3) 0.0586(3)
H56_2 H 0.632225 0.074629 0.044126
C69_2 C 0.6674(5) 0.1195(3) 0.1130(3)
H57_2 H 0.675946 0.088280 0.137543
C70_2 C 0.6832(5) 0.1731(3) 0.1322(3)
H58_2 H 0.704667 0.178477 0.169380
C71_2 C 0.6680(5) 0.2186(3) 0.0979(3)
C72_2 C 0.6824(5) 0.2779(3) 0.1168(3)
H59_2 H 0.669308 0.280939 0.158078
H60_2 H 0.737377 0.285407 0.113490
C76_2 C 0.8147(4) 0.3633(3) 0.0042(3)
H64_2 H 0.839619 0.389231 0.028823
C77_2 C 0.7399(4) 0.3467(3) 0.0150(3)
C78_2 C 0.6929(4) 0.3689(3) 0.0649(3)
H65_2 H 0.663526 0.402104 0.052381
H66_2 H 0.726623 0.380166 0.097105
C79_2 C 0.5720(4) 0.3445(3) 0.1176(2)
H67_2 H 0.555497 0.381104 0.101749
H68_2 H 0.586391 0.350137 0.158480
C80_2 C 0.5085(4) 0.3037(3) 0.1137(2)
C81_2 C 0.4579(4) 0.2926(3) 0.1581(3)
H69_2 H 0.463104 0.311373 0.193891
C82_2 C 0.4000(4) 0.2542(3) 0.1499(3)
H70_2 H 0.365350 0.246573 0.180023
C83_2 C 0.3928(4) 0.2265(3) 0.0968(3)
H71_2 H 0.354432 0.199132 0.090927
C84_2 C 0.4412(4) 0.2394(3) 0.0544(3)
H72_2 H 0.434745 0.221688 0.018107
Co4_2 Co 0.24378(4) 0.06005(4) 0.40290(3)
Fe1_3 Fe 0.500000 -0.000000 0.500000
N13_2 N 0.7036(3) 0.0352(2) 0.34021(18)
N14_2 N 0.5794(3) 0.05973(19) 0.27322(19)
N17_2 N 0.3366(2) 0.0249(2) 0.45505(17)
N18_2 N 0.2563(3) 0.1423(2) 0.4428(2)
N19_2 N 0.3274(3) 0.1013(2) 0.3456(2)
N21_2 N 0.1559(2) 0.0240(2) 0.4487(2)
C28_2 C 0.8361(5) 0.0183(4) 0.2148(4)
H22_2 H 0.878593 0.039232 0.227762
C29_2 C 0.7713(5) 0.0160(4) 0.2461(3)
C30_2 C 0.7642(5) 0.0526(4) 0.2992(3)
H23_2 H 0.813372 0.052587 0.319904
H24_2 H 0.753943 0.091575 0.286647
C31_2 C 0.7347(4) 0.0019(3) 0.3902(3)
H25_2 H 0.696845 0.000470 0.421423
H26_2 H 0.780958 0.020286 0.405499
C37_2 C 0.6573(4) 0.0854(3) 0.3573(3)
H31_2 H 0.691453 0.117041 0.366802
H32_2 H 0.627410 0.076366 0.391991
C38_2 C 0.6034(4) 0.1024(3) 0.3076(3)
C39_2 C 0.5805(4) 0.1576(3) 0.2970(3)
H33_2 H 0.597811 0.187201 0.321055
C40_2 C 0.5322(4) 0.1686(3) 0.2509(3)
H34_2 H 0.514527 0.205629 0.244189
C41_2 C 0.5103(4) 0.1264(3) 0.2154(3)
H35_2 H 0.479303 0.134056 0.182783
C42_2 C 0.5335(4) 0.0719(3) 0.2272(3)
H36_2 H 0.517129 0.042364 0.202767
C44_2 C 0.5262(2) 0.0783(2) 0.48804(17)
C45_2 C 0.3971(3) 0.0153(2) 0.47295(18)
C46_2 C 0.3687(4) 0.1412(3) 0.3823(3)
H37_2 H 0.396941 0.167855 0.357784
H38_2 H 0.405813 0.120719 0.406522
C47_2 C 0.3139(5) 0.1736(3) 0.4208(3)
C48_2 C 0.3211(5) 0.2300(3) 0.4319(3)
H39_2 H 0.361476 0.250925 0.415752
C49_2 C 0.2690(5) 0.2554(4) 0.4667(3)
H40_2 H 0.274603 0.293930 0.475918
C50_2 C 0.2082(5) 0.2255(3) 0.4888(3)
H41_2 H 0.170818 0.243629 0.511334
C51_2 C 0.2033(5) 0.1667(3) 0.4765(3)
H42_2 H 0.163202 0.144978 0.491963
C52_2 C 0.3744(5) 0.0533(3) 0.3225(3)
H43_2 H 0.404266 0.066348 0.289201
H44_2 H 0.410279 0.040352 0.352694
C53_2 C 0.3243(5) 0.0052(4) 0.3043(3)
C58_2 C 0.2882(4) 0.1308(5) 0.2963(5)
H49_2 H 0.307781 0.169610 0.294661
H50_2 H 0.303226 0.111951 0.260161
C59_2 C 0.2049(2) 0.1336(3) 0.2973(3)
C60_2 C 0.1621(3) 0.1653(3) 0.2569(3)
H51_2 H 0.187049 0.185457 0.227429
C61_2 C 0.0819(3) 0.1668(3) 0.2607(3)
H52_2 H 0.053238 0.187962 0.233718
C62_2 C 0.0446(2) 0.1366(4) 0.3048(3)
C63_2 C 0.0874(2) 0.1049(3) 0.3452(3)
H54_2 H 0.062465 0.084649 0.374716
N24_2 N 0.1676(2) 0.1034(3) 0.3414(2)
C64_2 C 0.0984(3) 0.0135(3) 0.4691(2)
Co6_2 Co 0.50095(5) 0.15987(3) 0.84333(3)
Co7_2 Co 0.37840(4) 0.02255(3) 0.70318(3)
N26_2 N 0.7019(3) 0.3112(2) 0.9783(2)
N29_2 N 0.5500(3) 0.25014(19) 0.93073(18)
N30_2 N 0.6182(5) 0.0767(3) 0.8943(3)
N31_2 N 0.6264(3) 0.2042(2) 0.7612(2)
N32_2 N 0.3763(3) 0.2356(3) 0.7893(2)
N33_2 N 0.3803(4) 0.1221(3) 0.9304(3)
N34_2 N 0.4477(3) 0.0719(2) 0.75464(18)
N35_2 N 0.2904(3) 0.0136(2) 0.7711(2)
N36_2 N 0.2964(3) 0.0806(2) 0.66721(19)
N39_2 N 0.4479(2) 0.02387(18) 0.62476(17)
N44_2 N 0.7399(3) 0.0029(3) 0.6638(2)
H55_2 H 0.599829 0.150743 0.988653
C73_2 C 0.7382(4) 0.2896(3) 0.9319(3)
H61_2 H 0.712656 0.264569 0.906563
C74_2 C 0.8148(4) 0.3049(3) 0.9217(3)
H62_2 H 0.840988 0.289711 0.889674
C75_2 C 0.8507(4) 0.3415(3) 0.9580(3)
H63_2 H 0.901638 0.351893 0.950755
C85_2 C 0.5312(3) 0.2163(2) 0.8975(2)
C86_2 C 0.5747(4) 0.1083(3) 0.8762(2)
C87_2 C 0.5781(3) 0.1871(2) 0.7917(2)
C88_2 C 0.4243(3) 0.2084(2) 0.8102(2)
C89_2 C 0.4258(5) 0.1351(3) 0.8986(3)
C90_2 C 0.4704(3) 0.1047(2) 0.7884(2)
C91_2 C 0.2858(5) 0.0442(4) 0.8212(3)
H73_2 H 0.326993 0.067773 0.831776
C92_2 C 0.2245(5) 0.0419(4) 0.8560(4)
H74_2 H 0.225067 0.060800 0.891925
C93_2 C 0.1620(5) 0.0125(4) 0.8392(4)
H75_2 H 0.117883 0.012035 0.862330
C98_2 C 0.2464(4) 0.0571(3) 0.6291(3)
C99_2 C 0.1810(4) 0.0866(3) 0.6113(3)
H81_2 H 0.145374 0.069514 0.586029
C100_2 C 0.1695(4) 0.1397(3) 0.6309(3)
H82_2 H 0.126940 0.160338 0.617424
C101_2 C 0.2180(4) 0.1635(3) 0.6695(3)
H83_2 H 0.208829 0.200142 0.683861
C102_2 C 0.2821(4) 0.1329(3) 0.6876(3)
H84_2 H 0.316037 0.149221 0.714727
C109_2 C 0.4692(3) 0.0165(2) 0.57844(18)
C120_2 C 0.6597(5) 0.0308(4) 0.7427(3)
H99_2 H 0.616015 0.025735 0.765688
C121_2 C 0.7125(5) 0.0753(4) 0.7538(3)
H100_2 H 0.702246 0.101425 0.783500
C122_2 C 0.7736(5) 0.0805(4) 0.7242(3)
H101_2 H 0.809025 0.108777 0.734396
C123_2 C 0.7891(5) 0.0453(4) 0.6772(3)
H102_2 H 0.833266 0.050980 0.654860
N48_2 N 0.0053(4) 0.1209(3) 0.5472(4)
C132_2 C 0.0016(3) 0.0749(3) 0.5303(3)
Fe3_3 Fe 1.000000 -0.000000 0.500000
Co2_2 Co 0.49905(5) 0.84013(3) 0.15667(3)
Co3_2 Co 0.62160(4) 0.97745(3) 0.29682(3)
Fe1_4 Fe 0.500000 1.000000 0.500000
N2_2 N 0.2981(3) 0.6888(2) 0.0217(2)
N5_2 N 0.4500(3) 0.74986(19) 0.06927(18)
N6_2 N 0.3818(5) 0.9233(3) 0.1057(3)
N7_2 N 0.3736(3) 0.7958(2) 0.2388(2)
N8_2 N 0.6237(3) 0.7644(3) 0.2107(2)
N9_2 N 0.6197(4) 0.8779(3) 0.0696(3)
N10_2 N 0.5523(3) 0.9281(2) 0.24536(18)
N11_2 N 0.7096(3) 0.9864(2) 0.2289(2)
N12_2 N 0.7036(3) 0.9194(2) 0.33279(19)
N15_2 N 0.5521(2) 0.97613(18) 0.37524(17)
N20_2 N 0.2601(3) 0.9971(3) 0.3362(2)
H1_2 H 0.400171 0.849257 0.011347
C7_2 C 0.2618(4) 0.7104(3) 0.0681(3)
H7_2 H 0.287344 0.735431 0.093437
C8_2 C 0.1852(4) 0.6951(3) 0.0783(3)
H8_2 H 0.159012 0.710289 0.110326
C9_2 C 0.1493(4) 0.6585(3) 0.0420(3)
H9_2 H 0.098362 0.648107 0.049245
C19_2 C 0.4688(3) 0.7837(2) 0.1025(2)
C20_2 C 0.4253(4) 0.8917(3) 0.1238(2)
C21_2 C 0.4219(3) 0.8129(2) 0.2083(2)
C22_2 C 0.5757(3) 0.7916(2) 0.1898(2)
C23_2 C 0.5742(5) 0.8649(3) 0.1014(3)
C24_2 C 0.5296(3) 0.8953(2) 0.2116(2)
C25_2 C 0.7142(5) 0.9558(4) 0.1788(3)
H19_2 H 0.673007 0.932227 0.168224
C26_2 C 0.7755(5) 0.9581(4) 0.1440(4)
H20_2 H 0.774933 0.939200 0.108075
C27_2 C 0.8380(5) 0.9875(4) 0.1608(4)
H21_2 H 0.882117 0.987965 0.137670
C32_2 C 0.7536(4) 0.9429(3) 0.3709(3)
C33_2 C 0.8190(4) 0.9134(3) 0.3887(3)
H27_2 H 0.854626 0.930486 0.413971
C34_2 C 0.8305(4) 0.8603(3) 0.3691(3)
H28_2 H 0.873060 0.839662 0.382576
C35_2 C 0.7820(4) 0.8365(3) 0.3305(3)
H29_2 H 0.791171 0.799858 0.316139
C36_2 C 0.7179(4) 0.8671(3) 0.3124(3)
H30_2 H 0.683963 0.850779 0.285273
C43_2 C 0.5308(3) 0.9835(2) 0.42156(18)
C54_2 C 0.3403(5) 0.9692(4) 0.2573(3)
H45_2 H 0.383985 0.974265 0.234312
C55_2 C 0.2875(5) 0.9247(4) 0.2462(3)
H46_2 H 0.297754 0.898575 0.216500
C56_2 C 0.2264(5) 0.9195(4) 0.2758(3)
H47_2 H 0.190975 0.891223 0.265604
C57_2 C 0.2109(5) 0.9547(4) 0.3228(3)
H48_2 H 0.166734 0.949020 0.345140
Co8_2 Co 0.75622(4) 0.93995(4) 0.59710(3)
N37_2 N 0.2964(3) 0.9648(2) 0.65979(18)
N38_2 N 0.4206(3) 0.94027(19) 0.72678(19)
N41_2 N 0.6634(2) 0.9751(2) 0.54495(17)
N42_2 N 0.7437(3) 0.8577(2) 0.5572(2)
N43_2 N 0.6726(3) 0.8987(2) 0.6544(2)
N45_2 N 0.8441(2) 0.9760(2) 0.5513(2)
C94_2 C 0.1639(5) 0.9817(4) 0.7852(4)
H76_2 H 0.121407 0.960768 0.772238
C95_2 C 0.2287(5) 0.9840(4) 0.7539(3)
C96_2 C 0.2358(5) 0.9474(4) 0.7008(3)
H77_2 H 0.186628 0.947413 0.680096
H78_2 H 0.246057 0.908425 0.713353
C97_2 C 0.2653(4) 0.9981(3) 0.6098(3)
H79_2 H 0.303155 0.999530 0.578577
H80_2 H 0.219042 0.979714 0.594501
C103_2 C 0.3427(4) 0.9146(3) 0.6427(3)
H85_2 H 0.308547 0.882959 0.633198
H86_2 H 0.372590 0.923634 0.608009
C104_2 C 0.3966(4) 0.8976(3) 0.6924(3)
C105_2 C 0.4195(4) 0.8424(3) 0.7030(3)
H87_2 H 0.402189 0.812799 0.678945
C106_2 C 0.4678(4) 0.8314(3) 0.7491(3)
H88_2 H 0.485473 0.794371 0.755811
C107_2 C 0.4897(4) 0.8736(3) 0.7846(3)
H89_2 H 0.520697 0.865944 0.817217
C108_2 C 0.4665(4) 0.9281(3) 0.7728(3)
H90_2 H 0.482871 0.957636 0.797233
C110_2 C 0.4738(2) 0.9217(2) 0.51196(17)
C111_2 C 0.6029(3) 0.9847(2) 0.52705(18)
C112_2 C 0.6313(4) 0.8588(3) 0.6177(3)
H91_2 H 0.603059 0.832145 0.642216
H92_2 H 0.594187 0.879281 0.593478
C113_2 C 0.6861(5) 0.8264(3) 0.5792(3)
C114_2 C 0.6789(5) 0.7700(3) 0.5681(3)
H93_2 H 0.638524 0.749075 0.584248
C115_2 C 0.7310(5) 0.7446(4) 0.5333(3)
H94_2 H 0.725397 0.706070 0.524082
C116_2 C 0.7918(5) 0.7745(3) 0.5112(3)
H95_2 H 0.829182 0.756371 0.488666
C117_2 C 0.7967(5) 0.8333(3) 0.5235(3)
H96_2 H 0.836798 0.855022 0.508037
C118_2 C 0.6256(5) 0.9467(3) 0.6775(3)
H97_2 H 0.595734 0.933652 0.710799
H98_2 H 0.589721 0.959648 0.647306
C119_2 C 0.6757(5) 0.9948(4) 0.6957(3)
C124_2 C 0.7118(4) 0.8692(5) 0.7037(5)
H103_2 H 0.692219 0.830390 0.705339
H104_2 H 0.696774 0.888049 0.739839
C125_2 C 0.7951(2) 0.8664(3) 0.7027(3)
C126_2 C 0.8379(3) 0.8347(3) 0.7431(3)
H105_2 H 0.812951 0.814543 0.772571
C127_2 C 0.9181(3) 0.8332(3) 0.7393(3)
H106_2 H 0.946762 0.812038 0.766282
C128_2 C 0.9554(2) 0.8634(4) 0.6952(3)
C129_2 C 0.9126(2) 0.8951(3) 0.6548(3)
H108_2 H 0.937535 0.915351 0.625284
N46_2 N 0.8324(2) 0.8966(3) 0.6586(2)
C130 C 0.9016(3) 0.9865(3) 0.5309(2)
N47_2 N 0.0709(3) 0.9536(3) 0.6136(3)
C131_2 C 0.0449(3) 0.9724(3) 0.5714(3)
Fe3_4 Fe 1.000000 1.000000 0.500000
N1_2 N 0.3649(3) 0.7887(2) 0.9564(2)
N3_2 N 0.3600(3) 0.6766(2) 0.91570(18)
N4_2 N 0.5009(3) 0.7231(2) 0.93909(18)
C1_2 C 0.3781(5) 0.8433(3) 0.9745(3)
C2_2 C 0.3606(5) 0.8885(3) 0.9414(3)
H2_2 H 0.367775 0.925371 0.955874
C3_2 C 0.3326(5) 0.8805(3) 0.8870(3)
H3_2 H 0.324054 0.911720 0.862457
C4_2 C 0.3168(5) 0.8269(3) 0.8678(3)
H4_2 H 0.295333 0.821523 0.830620
C5_2 C 0.3320(5) 0.7814(3) 0.9021(3)
C6_2 C 0.3176(5) 0.7221(3) 0.8832(3)
H5_2 H 0.330692 0.719061 0.841922
H6_2 H 0.262623 0.714593 0.886510
C10_2 C 0.1853(4) 0.6367(3) 0.9958(3)
H10_2 H 0.160381 0.610769 0.971177
C11_2 C 0.2601(4) 0.6533(3) 0.9850(3)
C12_2 C 0.3071(4) 0.6311(3) 0.9351(3)
H11_2 H 0.336474 0.597896 0.947619
H12_2 H 0.273377 0.619834 0.902895
C13_2 C 0.4280(4) 0.6555(3) 0.8824(2)
H13_2 H 0.444503 0.618896 0.898251
H14_2 H 0.413609 0.649863 0.841520
C14_2 C 0.4915(4) 0.6963(3) 0.8863(2)
C15_2 C 0.5421(4) 0.7074(3) 0.8419(3)
H15_2 H 0.536896 0.688627 0.806109
C16_2 C 0.6000(4) 0.7458(3) 0.8501(3)
H16_2 H 0.634650 0.753427 0.819977
C17_2 C 0.6072(4) 0.7735(3) 0.9032(3)
H17_2 H 0.645568 0.800868 0.909073
C18_2 C 0.5588(4) 0.7606(3) 0.9456(3)
H18_2 H 0.565255 0.778312 0.981893
N22_2 N 0.9291(3) 0.0464(3) 0.3864(3)
H53_2 H 0.990947 0.137559 0.307361
C65_2 C 0.9551(3) 0.0276(3) 0.4286(3)
N23_2 N 0.9947(4) 0.8791(3) 0.4528(4)
C66_2 C 0.9984(3) 0.9251(3) 0.4697(3)
loop_
_geom_bond_atom_site_label_1
_geom_bond_atom_site_label_2
_geom_bond_site_symmetry_1
_geom_bond_site_symmetry_2
N22 C65 1_555 1_555
N23 C66 1_555 1_555
C65 Fe2 1_555 1_555
C66 Fe2 1_555 1_555
C133 Fe2_2 1_555 1_555
Co1 N1 1_555 1_555
Co2 C19 1_555 1_555
Co3 N10 1_555 1_555
Co4 N17 1_555 1_555
Fe1 C43 1_555 1_555
Fe2_3 C64 1_555 1_555
N1 C1 1_555 1_555
N2 Co1 1_555 1_555
N3 Co1 1_555 1_555
N4 Co1 1_555 1_555
N5 Co1 1_555 1_555
N6 C20 1_555 1_555
N7 C21 1_555 1_555
N8 C22 1_555 1_555
N9 C23 1_555 1_555
N10 C24 1_555 1_555
N11 Co3 1_555 1_555
N12 Co3 1_555 1_555
N13 Co3 1_555 1_555
N14 Co3 1_555 1_555
N15 Co3 1_555 1_555
N16 C44 1_555 1_555
N17 C45 1_555 1_555
N18 Co4 1_555 1_555
N19 Co4 1_555 1_555
N20 Co4 1_555 1_555
N21 Co4 1_555 1_555
C1 H1 1_555 1_555
C2 C1 1_555 1_555
H2 C2 1_555 1_555
C3 C2 1_555 1_555
H3 C3 1_555 1_555
C4 C3 1_555 1_555
H4 C4 1_555 1_555
C5 N1 1_555 1_555
C6 N3 1_555 1_555
H5 C6 1_555 1_555
H6 C6 1_555 1_555
C7 N2 1_555 1_555
H7 C7 1_555 1_555
C8 C7 1_555 1_555
H8 C8 1_555 1_555
C9 C8 1_555 1_555
H9 C9 1_555 1_555
C10 C9 1_555 1_555
H10 C10 1_555 1_555
C11 N2 1_555 1_555
C12 N3 1_555 1_555
H11 C12 1_555 1_555
H12 C12 1_555 1_555
C13 N3 1_555 1_555
H13 C13 1_555 1_555
H14 C13 1_555 1_555
C14 N4 1_555 1_555
C15 C14 1_555 1_555
H15 C15 1_555 1_555
C16 C15 1_555 1_555
H16 C16 1_555 1_555
C17 C16 1_555 1_555
H17 C17 1_555 1_555
C18 N4 1_555 1_555
H18 C18 1_555 1_555
C19 N5 1_555 1_555
C20 Co2 1_555 1_555
C21 Co2 1_555 1_555
C22 Co2 1_555 1_555
C23 Co2 1_555 1_555
C24 Co2 1_555 1_555
C25 N11 1_555 1_555
H19 C25 1_555 1_555
C26 C25 1_555 1_555
H20 C26 1_555 1_555
C27 C26 1_555 1_555
H21 C27 1_555 1_555
C28 C27 1_555 1_555
H22 C28 1_555 1_555
C29 N11 1_555 1_555
C30 N13 1_555 1_555
H23 C30 1_555 1_555
H24 C30 1_555 1_555
C31 N13 1_555 1_555
H25 C31 1_555 1_555
H26 C31 1_555 1_555
C32 N12 1_555 1_555
C33 C32 1_555 1_555
H27 C33 1_555 1_555
C34 C33 1_555 1_555
H28 C34 1_555 1_555
C35 C34 1_555 1_555
H29 C35 1_555 1_555
C36 N12 1_555 1_555
H30 C36 1_555 1_555
C37 N13 1_555 1_555
H31 C37 1_555 1_555
H32 C37 1_555 1_555
C38 N14 1_555 1_555
C39 C38 1_555 1_555
H33 C39 1_555 1_555
C40 C39 1_555 1_555
H34 C40 1_555 1_555
C41 C40 1_555 1_555
H35 C41 1_555 1_555
C42 N14 1_555 1_555
H36 C42 1_555 1_555
C43 N15 1_555 1_555
C44 Fe1 1_555 1_555
C45 Fe1 1_555 1_555
C46 N19 1_555 1_555
H37 C46 1_555 1_555
H38 C46 1_555 1_555
C47 N18 1_555 1_555
C48 C47 1_555 1_555
H39 C48 1_555 1_555
C49 C48 1_555 1_555
H40 C49 1_555 1_555
C50 C49 1_555 1_555
C51 N18 1_555 1_555
H42 C51 1_555 1_555
C52 N19 1_555 1_555
H43 C52 1_555 1_555
H44 C52 1_555 1_555
C53 N20 1_555 1_555
C54 C53 1_555 1_555
H45 C54 1_555 1_555
C55 C54 1_555 1_555
H46 C55 1_555 1_555
C56 C55 1_555 1_555
H47 C56 1_555 1_555
C57 N20 1_555 1_555
H48 C57 1_555 1_555
C58 N19 1_555 1_555
H49 C58 1_555 1_555
H50 C58 1_555 1_555
C59 C58 1_555 1_555
C60 C59 1_555 1_555
H51 C60 1_555 1_555
C61 C60 1_555 1_555
H52 C61 1_555 1_555
C62 C61 1_555 1_555
C63 C62 1_555 1_555
H54 C63 1_555 1_555
N24 Co4 1_555 1_555
C64 N21 1_555 1_555
N49 Co1 1_555 1_555
C4 C5 1_555 1_555
C5 C6 1_555 1_555
C10 C11 1_555 1_555
C11 C12 1_555 1_555
C13 C14 1_555 1_555
C17 C18 1_555 1_555
C28 C29 1_555 1_555
C29 C30 1_555 1_555
C31 C32 1_555 1_555
C35 C36 1_555 1_555
C37 C38 1_555 1_555
C41 C42 1_555 1_555
C46 C47 1_555 1_555
C50 C51 1_555 1_555
C52 C53 1_555 1_555
C56 C57 1_555 1_555
C59 N24 1_555 1_555
C63 N24 1_555 1_555
Co5 N25 1_555 1_555
Co6 C85 1_555 1_555
Co7 N34 1_555 1_555
Co8 N41 1_555 1_555
N25 C67 1_555 1_555
N26 Co5 1_555 1_555
N27 Co5 1_555 1_555
N28 Co5 1_555 1_555
N29 Co5 1_555 1_555
N30 C86 1_555 1_555
N31 C87 1_555 1_555
N32 C88 1_555 1_555
N33 C89 1_555 1_555
N34 C90 1_555 1_555
N35 Co7 1_555 1_555
N36 Co7 1_555 1_555
N37 Co7 1_555 1_555
N38 Co7 1_555 1_555
N39 Co7 1_555 1_555
N40 C110 1_555 1_555
N41 C111 1_555 1_555
N42 Co8 1_555 1_555
N43 Co8 1_555 1_555
N44 Co8 1_555 1_555
N45 Co8 1_555 1_555
C67 H55 1_555 1_555
C68 C67 1_555 1_555
H56 C68 1_555 1_555
C69 C68 1_555 1_555
H57 C69 1_555 1_555
C70 C69 1_555 1_555
H58 C70 1_555 1_555
C71 N25 1_555 1_555
C72 N27 1_555 1_555
H59 C72 1_555 1_555
H60 C72 1_555 1_555
C73 N26 1_555 1_555
H61 C73 1_555 1_555
C74 C73 1_555 1_555
H62 C74 1_555 1_555
C75 C74 1_555 1_555
H63 C75 1_555 1_555
C76 C75 1_555 1_555
H64 C76 1_555 1_555
C77 N26 1_555 1_555
C78 N27 1_555 1_555
H65 C78 1_555 1_555
H66 C78 1_555 1_555
C79 N27 1_555 1_555
H67 C79 1_555 1_555
H68 C79 1_555 1_555
C80 N28 1_555 1_555
C81 C80 1_555 1_555
H69 C81 1_555 1_555
C82 C81 1_555 1_555
H70 C82 1_555 1_555
C83 C82 1_555 1_555
H71 C83 1_555 1_555
C84 N28 1_555 1_555
H72 C84 1_555 1_555
C85 N29 1_555 1_555
C86 Co6 1_555 1_555
C87 Co6 1_555 1_555
C88 Co6 1_555 1_555
C89 Co6 1_555 1_555
C90 Co6 1_555 1_555
C91 N35 1_555 1_555
H73 C91 1_555 1_555
C92 C91 1_555 1_555
H74 C92 1_555 1_555
C93 C92 1_555 1_555
H75 C93 1_555 1_555
C94 C93 1_555 1_555
H76 C94 1_555 1_555
C95 N35 1_555 1_555
C96 N37 1_555 1_555
H77 C96 1_555 1_555
H78 C96 1_555 1_555
C97 N37 1_555 1_555
H79 C97 1_555 1_555
H80 C97 1_555 1_555
C98 N36 1_555 1_555
C99 C98 1_555 1_555
H81 C99 1_555 1_555
C100 C99 1_555 1_555
H82 C100 1_555 1_555
C101 C100 1_555 1_555
H83 C101 1_555 1_555
C102 N36 1_555 1_555
H84 C102 1_555 1_555
C103 N37 1_555 1_555
H85 C103 1_555 1_555
H86 C103 1_555 1_555
C104 N38 1_555 1_555
C105 C104 1_555 1_555
H87 C105 1_555 1_555
C106 C105 1_555 1_555
H88 C106 1_555 1_555
C107 C106 1_555 1_555
H89 C107 1_555 1_555
C108 N38 1_555 1_555
H90 C108 1_555 1_555
C109 Fe1_2 1_555 1_555
C110 Fe1_2 1_555 1_555
C111 Fe1_2 1_555 1_555
C112 N43 1_555 1_555
H91 C112 1_555 1_555
H92 C112 1_555 1_555
C113 N42 1_555 1_555
C114 C113 1_555 1_555
H93 C114 1_555 1_555
C115 C114 1_555 1_555
H94 C115 1_555 1_555
C116 C115 1_555 1_555
C117 N42 1_555 1_555
H96 C117 1_555 1_555
C118 N43 1_555 1_555
H97 C118 1_555 1_555
H98 C118 1_555 1_555
C119 N44 1_555 1_555
C120 C119 1_555 1_555
H99 C120 1_555 1_555
C121 C120 1_555 1_555
H100 C121 1_555 1_555
C122 C121 1_555 1_555
H101 C122 1_555 1_555
C123 N44 1_555 1_555
H102 C123 1_555 1_555
C124 N43 1_555 1_555
H103 C124 1_555 1_555
H104 C124 1_555 1_555
C125 C124 1_555 1_555
C126 C125 1_555 1_555
H105 C126 1_555 1_555
C127 C126 1_555 1_555
H106 C127 1_555 1_555
C128 C127 1_555 1_555
C129 C128 1_555 1_555
H108 C129 1_555 1_555
N46 Co8 1_555 1_555
C133 N45 1_555 1_555
N47 C131 1_555 1_555
C131 Fe2_4 1_555 1_555
N48 C132 1_555 1_555
C132 Fe2_4 1_555 1_555
N50 Co5 1_555 1_555
N39 C109 1_555 1_555
C70 C71 1_555 1_555
C71 C72 1_555 1_555
C76 C77 1_555 1_555
C77 C78 1_555 1_555
C79 C80 1_555 1_555
C83 C84 1_555 1_555
C94 C95 1_555 1_555
C95 C96 1_555 1_555
C97 C98 1_555 1_555
C101 C102 1_555 1_555
C103 C104 1_555 1_555
C107 C108 1_555 1_555
C112 C113 1_555 1_555
C116 C117 1_555 1_555
C118 C119 1_555 1_555
C122 C123 1_555 1_555
C125 N46 1_555 1_555
C129 N46 1_555 1_555
Co10 N25_2 1_555 1_555
N25_2 C67_2 1_555 1_555
N27_2 Co10 1_555 1_555
N28_2 Co10 1_555 1_555
C68_2 C67_2 1_555 1_555
H56_2 C68_2 1_555 1_555
C69_2 C68_2 1_555 1_555
H57_2 C69_2 1_555 1_555
C70_2 C69_2 1_555 1_555
H58_2 C70_2 1_555 1_555
C71_2 N25_2 1_555 1_555
C72_2 N27_2 1_555 1_555
H59_2 C72_2 1_555 1_555
H60_2 C72_2 1_555 1_555
H64_2 C76_2 1_555 1_555
C78_2 N27_2 1_555 1_555
H65_2 C78_2 1_555 1_555
H66_2 C78_2 1_555 1_555
C79_2 N27_2 1_555 1_555
H67_2 C79_2 1_555 1_555
H68_2 C79_2 1_555 1_555
C80_2 N28_2 1_555 1_555
C81_2 C80_2 1_555 1_555
H69_2 C81_2 1_555 1_555
C82_2 C81_2 1_555 1_555
H70_2 C82_2 1_555 1_555
C83_2 C82_2 1_555 1_555
H71_2 C83_2 1_555 1_555
C84_2 N28_2 1_555 1_555
H72_2 C84_2 1_555 1_555
C70_2 C71_2 1_555 1_555
C71_2 C72_2 1_555 1_555
C76_2 C77_2 1_555 1_555
C77_2 C78_2 1_555 1_555
C79_2 C80_2 1_555 1_555
C83_2 C84_2 1_555 1_555
Co4_2 N17_2 1_555 1_555
Fe3 C64_2 1_555 1_555
N49 C44_2 1_555 1_555
N17_2 C45_2 1_555 1_555
N18_2 Co4_2 1_555 1_555
N19_2 Co4_2 1_555 1_555
N21_2 Co4_2 1_555 1_555
H22_2 C28_2 1_555 1_555
C30_2 N13_2 1_555 1_555
H23_2 C30_2 1_555 1_555
H24_2 C30_2 1_555 1_555
C31_2 N13_2 1_555 1_555
H25_2 C31_2 1_555 1_555
H26_2 C31_2 1_555 1_555
C37_2 N13_2 1_555 1_555
H31_2 C37_2 1_555 1_555
H32_2 C37_2 1_555 1_555
C38_2 N14_2 1_555 1_555
C39_2 C38_2 1_555 1_555
H33_2 C39_2 1_555 1_555
C40_2 C39_2 1_555 1_555
H34_2 C40_2 1_555 1_555
C41_2 C40_2 1_555 1_555
H35_2 C41_2 1_555 1_555
C42_2 N14_2 1_555 1_555
H36_2 C42_2 1_555 1_555
C44_2 Fe1_3 1_555 1_555
C45_2 Fe1_3 1_555 1_555
C46_2 N19_2 1_555 1_555
H37_2 C46_2 1_555 1_555
H38_2 C46_2 1_555 1_555
C47_2 N18_2 1_555 1_555
C48_2 C47_2 1_555 1_555
H39_2 C48_2 1_555 1_555
C49_2 C48_2 1_555 1_555
H40_2 C49_2 1_555 1_555
C50_2 C49_2 1_555 1_555
H41_2 C50_2 1_555 1_555
C51_2 N18_2 1_555 1_555
H42_2 C51_2 1_555 1_555
C52_2 N19_2 1_555 1_555
H43_2 C52_2 1_555 1_555
H44_2 C52_2 1_555 1_555
C58_2 N19_2 1_555 1_555
H49_2 C58_2 1_555 1_555
H50_2 C58_2 1_555 1_555
C59_2 C58_2 1_555 1_555
C60_2 C59_2 1_555 1_555
H51_2 C60_2 1_555 1_555
C61_2 C60_2 1_555 1_555
H52_2 C61_2 1_555 1_555
C62_2 C61_2 1_555 1_555
C63_2 C62_2 1_555 1_555
H54_2 C63_2 1_555 1_555
N24_2 Co4_2 1_555 1_555
C64_2 N21_2 1_555 1_555
Co6_2 C85_2 1_555 1_555
Co7_2 N34_2 1_555 1_555
N30_2 C86_2 1_555 1_555
N31_2 C87_2 1_555 1_555
N32_2 C88_2 1_555 1_555
N33_2 C89_2 1_555 1_555
N34_2 C90_2 1_555 1_555
N35_2 Co7_2 1_555 1_555
N36_2 Co7_2 1_555 1_555
N39_2 Co7_2 1_555 1_555
C73_2 N26_2 1_555 1_555
H61_2 C73_2 1_555 1_555
C74_2 C73_2 1_555 1_555
H62_2 C74_2 1_555 1_555
C75_2 C74_2 1_555 1_555
H63_2 C75_2 1_555 1_555
C85_2 N29_2 1_555 1_555
C86_2 Co6_2 1_555 1_555
C87_2 Co6_2 1_555 1_555
C88_2 Co6_2 1_555 1_555
C89_2 Co6_2 1_555 1_555
C90_2 Co6_2 1_555 1_555
C91_2 N35_2 1_555 1_555
H73_2 C91_2 1_555 1_555
C92_2 C91_2 1_555 1_555
H74_2 C92_2 1_555 1_555
C93_2 C92_2 1_555 1_555
H75_2 C93_2 1_555 1_555
C98_2 N36_2 1_555 1_555
C99_2 C98_2 1_555 1_555
H81_2 C99_2 1_555 1_555
C100_2 C99_2 1_555 1_555
H82_2 C100_2 1_555 1_555
C101_2 C100_2 1_555 1_555
H83_2 C101_2 1_555 1_555
C102_2 N36_2 1_555 1_555
H84_2 C102_2 1_555 1_555
C109_2 Fe1_3 1_555 1_555
H99_2 C120_2 1_555 1_555
C121_2 C120_2 1_555 1_555
H100_2 C121_2 1_555 1_555
C122_2 C121_2 1_555 1_555
H101_2 C122_2 1_555 1_555
C123_2 N44_2 1_555 1_555
H102_2 C123_2 1_555 1_555
N48_2 C132_2 1_555 1_555
C132_2 Fe3 1_555 1_555
C28_2 C29_2 1_555 1_555
C29_2 C30_2 1_555 1_555
C37_2 C38_2 1_555 1_555
C41_2 C42_2 1_555 1_555
C46_2 C47_2 1_555 1_555
C50_2 C51_2 1_555 1_555
C52_2 C53_2 1_555 1_555
C59_2 N24_2 1_555 1_555
C63_2 N24_2 1_555 1_555
N39_2 C109_2 1_555 1_555
C101_2 C102_2 1_555 1_555
C122_2 C123_2 1_555 1_555
Co2_2 C19_2 1_555 1_555
Co3_2 N10_2 1_555 1_555
Fe1_4 C43_2 1_555 1_555
N6_2 C20_2 1_555 1_555
N7_2 C21_2 1_555 1_555
N8_2 C22_2 1_555 1_555
N9_2 C23_2 1_555 1_555
N10_2 C24_2 1_555 1_555
N11_2 Co3_2 1_555 1_555
N12_2 Co3_2 1_555 1_555
N15_2 Co3_2 1_555 1_555
C7_2 N2_2 1_555 1_555
H7_2 C7_2 1_555 1_555
C8_2 C7_2 1_555 1_555
H8_2 C8_2 1_555 1_555
C9_2 C8_2 1_555 1_555
H9_2 C9_2 1_555 1_555
C19_2 N5_2 1_555 1_555
C20_2 Co2_2 1_555 1_555
C21_2 Co2_2 1_555 1_555
C22_2 Co2_2 1_555 1_555
C23_2 Co2_2 1_555 1_555
C24_2 Co2_2 1_555 1_555
C25_2 N11_2 1_555 1_555
H19_2 C25_2 1_555 1_555
C26_2 C25_2 1_555 1_555
H20_2 C26_2 1_555 1_555
C27_2 C26_2 1_555 1_555
H21_2 C27_2 1_555 1_555
C32_2 N12_2 1_555 1_555
C33_2 C32_2 1_555 1_555
H27_2 C33_2 1_555 1_555
C34_2 C33_2 1_555 1_555
H28_2 C34_2 1_555 1_555
C35_2 C34_2 1_555 1_555
H29_2 C35_2 1_555 1_555
C36_2 N12_2 1_555 1_555
H30_2 C36_2 1_555 1_555
C43_2 N15_2 1_555 1_555
H45_2 C54_2 1_555 1_555
C55_2 C54_2 1_555 1_555
H46_2 C55_2 1_555 1_555
C56_2 C55_2 1_555 1_555
H47_2 C56_2 1_555 1_555
C57_2 N20_2 1_555 1_555
H48_2 C57_2 1_555 1_555
Co8_2 N41_2 1_555 1_555
N50 C110_2 1_555 1_555
N41_2 C111_2 1_555 1_555
N42_2 Co8_2 1_555 1_555
N43_2 Co8_2 1_555 1_555
N45_2 Co8_2 1_555 1_555
H76_2 C94_2 1_555 1_555
C96_2 N37_2 1_555 1_555
H77_2 C96_2 1_555 1_555
H78_2 C96_2 1_555 1_555
C97_2 N37_2 1_555 1_555
H79_2 C97_2 1_555 1_555
H80_2 C97_2 1_555 1_555
C103_2 N37_2 1_555 1_555
H85_2 C103_2 1_555 1_555
H86_2 C103_2 1_555 1_555
C104_2 N38_2 1_555 1_555
C105_2 C104_2 1_555 1_555
H87_2 C105_2 1_555 1_555
C106_2 C105_2 1_555 1_555
H88_2 C106_2 1_555 1_555
C107_2 C106_2 1_555 1_555
H89_2 C107_2 1_555 1_555
C108_2 N38_2 1_555 1_555
H90_2 C108_2 1_555 1_555
C110_2 Fe1_4 1_555 1_555
C111_2 Fe1_4 1_555 1_555
C112_2 N43_2 1_555 1_555
H91_2 C112_2 1_555 1_555
H92_2 C112_2 1_555 1_555
C113_2 N42_2 1_555 1_555
C114_2 C113_2 1_555 1_555
H93_2 C114_2 1_555 1_555
C115_2 C114_2 1_555 1_555
H94_2 C115_2 1_555 1_555
C116_2 C115_2 1_555 1_555
H95_2 C116_2 1_555 1_555
C117_2 N42_2 1_555 1_555
H96_2 C117_2 1_555 1_555
C118_2 N43_2 1_555 1_555
H97_2 C118_2 1_555 1_555
H98_2 C118_2 1_555 1_555
C124_2 N43_2 1_555 1_555
H103_2 C124_2 1_555 1_555
H104_2 C124_2 1_555 1_555
C125_2 C124_2 1_555 1_555
C126_2 C125_2 1_555 1_555
H105_2 C126_2 1_555 1_555
C127_2 C126_2 1_555 1_555
H106_2 C127_2 1_555 1_555
C128_2 C127_2 1_555 1_555
C129_2 C128_2 1_555 1_555
H108_2 C129_2 1_555 1_555
N46_2 Co8_2 1_555 1_555
C130 N45_2 1_555 1_555
N47_2 C131_2 1_555 1_555
C131_2 Fe3_2 1_555 1_555
Fe3_4 C130 1_555 1_555
C35_2 C36_2 1_555 1_555
C56_2 C57_2 1_555 1_555
C94_2 C95_2 1_555 1_555
C95_2 C96_2 1_555 1_555
C103_2 C104_2 1_555 1_555
C107_2 C108_2 1_555 1_555
C112_2 C113_2 1_555 1_555
C116_2 C117_2 1_555 1_555
C118_2 C119_2 1_555 1_555
C125_2 N46_2 1_555 1_555
C129_2 N46_2 1_555 1_555
Co9 N1_2 1_555 1_555
N1_2 C1_2 1_555 1_555
N3_2 Co9 1_555 1_555
N4_2 Co9 1_555 1_555
C2_2 C1_2 1_555 1_555
H2_2 C2_2 1_555 1_555
C3_2 C2_2 1_555 1_555
H3_2 C3_2 1_555 1_555
C4_2 C3_2 1_555 1_555
H4_2 C4_2 1_555 1_555
C5_2 N1_2 1_555 1_555
C6_2 N3_2 1_555 1_555
H5_2 C6_2 1_555 1_555
H6_2 C6_2 1_555 1_555
H10_2 C10_2 1_555 1_555
C12_2 N3_2 1_555 1_555
H11_2 C12_2 1_555 1_555
H12_2 C12_2 1_555 1_555
C13_2 N3_2 1_555 1_555
H13_2 C13_2 1_555 1_555
H14_2 C13_2 1_555 1_555
C14_2 N4_2 1_555 1_555
C15_2 C14_2 1_555 1_555
H15_2 C15_2 1_555 1_555
C16_2 C15_2 1_555 1_555
H16_2 C16_2 1_555 1_555
C17_2 C16_2 1_555 1_555
H17_2 C17_2 1_555 1_555
C18_2 N4_2 1_555 1_555
H18_2 C18_2 1_555 1_555
C4_2 C5_2 1_555 1_555
C5_2 C6_2 1_555 1_555
C10_2 C11_2 1_555 1_555
C11_2 C12_2 1_555 1_555
C13_2 C14_2 1_555 1_555
C17_2 C18_2 1_555 1_555
N22_2 C65_2 1_555 1_555
C65_2 Fe3_3 1_555 1_555
N23_2 C66_2 1_555 1_555
C66_2 Fe3_4 1_555 1_555

#END
