
###############################################################################
#
# This file contains modified crystal structure data generated from the
# MOF subset of the Cambridge Structural Database (CSD) v543 
# hosted by the Cambridge Crystallographic Data Centre (CCDC).
#
# This work is licensed under the Creative Commons
# Attribution-NonCommercial-ShareAlike 4.0 International License.
# To view a copy of this license, visit
# http://creativecommons.org/licenses/by-nc-sa/4.0/
# or send a letter to
# Creative Commons, PO Box 1866, Mountain View, CA 94042, USA.
#
# CIF created using the CSD Python API on 29 September 2022
# The structure has been converted into the P1 space group
# The structure has a 3D framework
# The original CSD entry JELLAR01 is in the monoclinic crystal system
# The framework has been calculated to contain at least 10.0% void space
# The void calculation uses a probe of radius 1.32A, grid spacing 0.4
#
###############################################################################

data_JELLAR01
_chemical_formula_moiety         '(C264 H216 Co16 Fe11 N96)n'
_symmetry_cell_setting           triclinic
_symmetry_space_group_name_H-M   'P 1'
_symmetry_Int_Tables_number      1
_space_group_name_Hall           'P 1'
loop_
_symmetry_equiv_pos_site_id
_symmetry_equiv_pos_as_xyz
1 x,y,z
_cell_length_a                   17.1221(5)
_cell_length_b                   22.5913(9)
_cell_length_c                   22.2579(7)
_cell_angle_alpha                90
_cell_angle_beta                 90.696(3)
_cell_angle_gamma                90
_cell_volume                     8608.95
loop_
_atom_site_label
_atom_site_type_symbol
_atom_site_fract_x
_atom_site_fract_y
_atom_site_fract_z
Fe2 Fe 0.000000 0.000000 0.500000
H47 H 0.007729 0.143393 0.311729
N48 N 0.0677(2) 0.0465(2) 0.3831(2)
C132 C 0.0435(2) 0.0288(2) 0.4269(2)
Fe2_2 Fe 0.000000 1.000000 0.500000
N23 N 0.0038(3) 0.8743(3) 0.4514(3)
C65 C 0.0011(3) 0.9217(3) 0.4696(2)
C133 C 0.1001(3) 0.9865(2) 0.5325(2)
Co1 Co 0.63314(3) 0.48705(2) 0.20783(2)
Co2 Co 0.50675(4) 0.35319(3) 0.35452(2)
Co3 Co 0.40868(3) 0.21506(2) 0.51116(2)
Co4 Co 0.75194(3) 0.06336(3) 0.39964(3)
Fe1 Fe 0.500000 0.000000 0.500000
Fe2_3 Fe 1.000000 0.000000 0.500000
N1 N 0.58652(19) 0.56671(15) 0.23219(15)
N2 N 0.70694(19) 0.54534(15) 0.16195(15)
N3 N 0.7103(2) 0.42691(16) 0.17335(16)
N4 N 0.7219(2) 0.49581(18) 0.27499(17)
N5 N 0.5659(3) 0.43828(17) 0.26037(18)
N6 N 0.3922(4) 0.4444(2) 0.4037(2)
N7 N 0.3791(3) 0.30568(19) 0.27098(19)
N8 N 0.6353(3) 0.27539(19) 0.30262(17)
N9 N 0.6269(4) 0.3929(2) 0.4487(2)
N10 N 0.4519(2) 0.25889(16) 0.44107(16)
N11 N 0.3616(2) 0.29277(17) 0.54923(16)
N12 N 0.2981(2) 0.19521(15) 0.47918(15)
N13 N 0.3599(2) 0.17655(16) 0.58915(15)
N14 N 0.4994(2) 0.22657(16) 0.57056(15)
N15 N 0.4541(2) 0.13006(15) 0.48812(14)
N16 N 0.5600(2) 0.01868(15) 0.62905(15)
N17 N 0.6623(2) 0.02738(16) 0.45224(16)
N18 N 0.7433(2) 0.14257(19) 0.44376(18)
N19 N 0.8273(2) 0.1071(2) 0.3396(2)
N21 N 0.8398(2) 0.02568(19) 0.44592(18)
N22 N 0.6664(2) 0.10479(18) 0.34395(16)
C1 C 0.5420(3) 0.5778(2) 0.2802(2)
H1 H 0.531518 0.546530 0.307507
C2 C 0.5112(3) 0.6329(3) 0.2911(2)
H2 H 0.480342 0.639727 0.325610
C3 C 0.5261(3) 0.6782(2) 0.2509(3)
H3 H 0.503905 0.716260 0.256742
C4 C 0.5734(3) 0.6676(2) 0.2026(2)
H4 H 0.585190 0.698360 0.175014
C5 C 0.6032(2) 0.61148(18) 0.19484(18)
C6 C 0.6570(2) 0.59581(18) 0.14344(18)
H5 H 0.625679 0.584999 0.107391
H6 H 0.689937 0.630318 0.133312
C7 C 0.7714(3) 0.5661(2) 0.20243(19)
H7 H 0.761197 0.607621 0.214164
H8 H 0.821082 0.565269 0.180148
C8 C 0.7801(3) 0.5291(2) 0.2581(2)
C9 C 0.8491(4) 0.5327(4) 0.2923(3)
H9 H 0.891688 0.556419 0.279576
C10 C 0.8532(5) 0.5002(5) 0.3459(4)
H10 H 0.898837 0.501987 0.370500
C11 C 0.7912(5) 0.4658(3) 0.3627(3)
H11 H 0.792867 0.443547 0.398878
C12 C 0.7278(4) 0.4644(2) 0.3263(2)
H12 H 0.685074 0.440101 0.337383
C13 C 0.7383(2) 0.51110(19) 0.11064(18)
H13 H 0.785680 0.530676 0.095134
H14 H 0.698904 0.509305 0.077746
C14 C 0.7579(3) 0.4494(2) 0.13182(19)
C15 C 0.8217(3) 0.4181(2) 0.1103(2)
H15 H 0.854384 0.434602 0.080413
C16 C 0.8364(3) 0.3618(3) 0.1336(3)
H16 H 0.879683 0.339473 0.120022
C17 C 0.7879(3) 0.3391(2) 0.1762(3)
H17 H 0.796689 0.300634 0.192054
C18 C 0.7255(3) 0.3732(2) 0.1960(2)
H18 H 0.692773 0.357860 0.226441
C19 C 0.5399(3) 0.40840(19) 0.2975(2)
C20 C 0.4344(4) 0.4090(2) 0.3857(2)
C21 C 0.4288(3) 0.32441(19) 0.30089(18)
C22 C 0.5842(3) 0.30255(19) 0.32236(18)
C23 C 0.5808(4) 0.3793(2) 0.4128(2)
C24 C 0.4734(3) 0.29442(19) 0.40858(18)
C25 C 0.3701(4) 0.3484(2) 0.5287(2)
H19 H 0.394906 0.354278 0.491168
C26 C 0.3449(5) 0.3964(3) 0.5592(3)
H20 H 0.352805 0.435112 0.543793
C27 C 0.3076(5) 0.3883(3) 0.6129(3)
H21 H 0.287749 0.421163 0.634575
C28 C 0.2996(4) 0.3312(2) 0.6349(2)
H22 H 0.275430 0.324482 0.672470
C29 C 0.3267(3) 0.2848(2) 0.60193(19)
C30 C 0.3193(3) 0.2231(2) 0.6250(2)
H23 H 0.263099 0.212986 0.626648
H24 H 0.340211 0.221961 0.666637
C31 C 0.3039(3) 0.1315(2) 0.5667(2)
H25 H 0.266993 0.120767 0.598807
H26 H 0.332254 0.095361 0.554516
C32 C 0.2594(3) 0.1569(2) 0.5132(2)
C33 C 0.1828(3) 0.1412(3) 0.5013(3)
H27 H 0.156402 0.113870 0.526326
C34 C 0.1446(4) 0.1667(3) 0.4512(3)
H28 H 0.091807 0.157363 0.441759
C35 C 0.1863(4) 0.2058(3) 0.4163(3)
H29 H 0.162378 0.223223 0.381876
C36 C 0.2624(3) 0.2194(2) 0.4311(2)
H30 H 0.290292 0.246575 0.406837
C37 C 0.4265(3) 0.15177(19) 0.62366(18)
H31 H 0.441222 0.112848 0.606794
H32 H 0.411422 0.145895 0.666044
C38 C 0.4950(3) 0.19369(19) 0.62063(18)
C39 C 0.5510(3) 0.1996(2) 0.6664(2)
H33 H 0.548153 0.175552 0.701360
C40 C 0.6098(3) 0.2401(2) 0.6609(2)
H34 H 0.648003 0.244415 0.691877
C41 C 0.6132(3) 0.2746(2) 0.6100(2)
H35 H 0.653488 0.303030 0.605262
C42 C 0.5567(3) 0.2669(2) 0.56595(19)
H36 H 0.558417 0.291100 0.531049
C43 C 0.4734(2) 0.08197(17) 0.49135(15)
C44 C 0.5351(2) 0.01330(16) 0.58082(17)
C45 C 0.6033(2) 0.01636(17) 0.47190(17)
C46 C 0.7962(3) 0.1677(3) 0.4803(2)
H37 H 0.840907 0.145255 0.491800
C47 C 0.7892(4) 0.2234(3) 0.5019(3)
H38 H 0.826953 0.238583 0.529416
C48 C 0.7268(4) 0.2584(3) 0.4836(3)
H39 H 0.721872 0.298046 0.497181
C49 C 0.6715(3) 0.2334(3) 0.4448(2)
H40 H 0.627630 0.255876 0.431569
C50 C 0.6811(3) 0.1760(2) 0.42582(19)
C51 C 0.6231(3) 0.1453(2) 0.3839(2)
H41 H 0.584787 0.122680 0.407668
H42 H 0.594412 0.175111 0.359661
C52 C 0.7041(3) 0.1377(2) 0.2934(2)
H43 H 0.686367 0.120208 0.254805
H44 H 0.686192 0.179383 0.294163
C53 C 0.7910(4) 0.1369(4) 0.2957(3)
C54 C 0.8336(5) 0.1657(5) 0.2520(5)
H45 H 0.807816 0.182267 0.217933
C55 C 0.9156(6) 0.1703(6) 0.2584(6)
H46 H 0.945025 0.192658 0.230517
C56 C 0.9527(5) 0.1415(6) 0.3063(6)
C57 C 0.9059(4) 0.1100(4) 0.3458(4)
H48 H 0.930238 0.089723 0.378400
C58 C 0.6191(3) 0.0564(3) 0.3189(2)
H49 H 0.587999 0.070852 0.284149
H50 H 0.582591 0.041598 0.349657
C59 C 0.6722(3) 0.0071(2) 0.2994(2)
C64 C 0.8999(3) 0.0135(2) 0.4675(2)
N44 N 0.2634(3) 0.00056(19) 0.66595(19)
C126 C 0.3423(4) 0.0257(3) 0.7515(3)
H105 H 0.387514 0.018828 0.775629
C127 C 0.2897(6) 0.0685(4) 0.7663(4)
H106 H 0.297834 0.091677 0.801502
C128 C 0.2252(5) 0.0783(3) 0.7307(4)
H107 H 0.189122 0.108790 0.740011
C129 C 0.2137(4) 0.0429(2) 0.6809(3)
H108 H 0.168499 0.048985 0.656488
N47 N 0.9962(3) 0.1257(3) 0.5486(3)
C131 C 0.9989(3) 0.0783(3) 0.5304(2)
Co10 Co 0.63314(3) 0.01295(2) 0.70783(2)
N50 N 0.5600(2) 0.48132(15) 0.12905(15)
Fe1_2 Fe 0.500000 1.000000 0.500000
Fe2_4 Fe 1.000000 1.000000 0.500000
N20 N 0.7366(3) 0.99944(19) 0.33405(19)
N24 N 0.9323(2) 0.9535(2) 0.6169(2)
C60 C 0.6577(4) 0.9743(3) 0.2485(3)
H51 H 0.612486 0.981172 0.224371
C61 C 0.7103(6) 0.9315(4) 0.2337(4)
H52 H 0.702166 0.908323 0.198498
C62 C 0.7748(5) 0.9217(3) 0.2693(4)
H53 H 0.810878 0.891210 0.259989
C63 C 0.7863(4) 0.9571(2) 0.3191(3)
H54 H 0.831501 0.951015 0.343512
C66 C 0.9565(2) 0.9712(2) 0.5731(2)
Co5 Co 0.36686(3) 0.51295(2) 0.79217(2)
Co6 Co 0.49325(4) 0.64681(3) 0.64548(2)
Co7 Co 0.59132(3) 0.78494(2) 0.48884(2)
Co8 Co 0.24806(3) 0.93664(3) 0.60036(3)
N25 N 0.41348(19) 0.43329(15) 0.76781(15)
N26 N 0.29306(19) 0.45466(15) 0.83805(15)
N27 N 0.2897(2) 0.57309(16) 0.82665(16)
N28 N 0.2781(2) 0.50419(18) 0.72501(17)
N29 N 0.4341(3) 0.56172(17) 0.73963(18)
N30 N 0.6078(4) 0.5556(2) 0.5963(2)
N31 N 0.6209(3) 0.69432(19) 0.72902(19)
N32 N 0.3647(3) 0.72461(19) 0.69738(17)
N33 N 0.3731(4) 0.6071(2) 0.5513(2)
N34 N 0.5481(2) 0.74111(16) 0.55893(16)
N35 N 0.6384(2) 0.70723(17) 0.45077(16)
N36 N 0.7019(2) 0.80479(15) 0.52082(15)
N37 N 0.6401(2) 0.82345(16) 0.41085(15)
N38 N 0.5006(2) 0.77343(16) 0.42944(15)
N39 N 0.5459(2) 0.86994(15) 0.51188(14)
N40 N 0.4400(2) 0.98132(15) 0.37095(15)
N41 N 0.3377(2) 0.97262(16) 0.54776(16)
N42 N 0.2567(2) 0.85743(19) 0.55624(18)
N43 N 0.1727(2) 0.8929(2) 0.6604(2)
N45 N 0.1602(2) 0.97432(19) 0.55408(18)
N46 N 0.3336(2) 0.89521(18) 0.65605(16)
C67 C 0.4580(3) 0.4222(2) 0.7198(2)
H55 H 0.468482 0.453470 0.692493
C68 C 0.4888(3) 0.3671(3) 0.7089(2)
H56 H 0.519658 0.360273 0.674390
C69 C 0.4739(3) 0.3218(2) 0.7491(3)
H57 H 0.496095 0.283740 0.743258
C70 C 0.4266(3) 0.3324(2) 0.7974(2)
H58 H 0.414810 0.301640 0.824986
C71 C 0.3968(2) 0.38852(18) 0.80516(18)
C72 C 0.3430(2) 0.40419(18) 0.85656(18)
H59 H 0.374321 0.415001 0.892609
H60 H 0.310063 0.369682 0.866688
C73 C 0.2286(3) 0.4339(2) 0.79757(19)
H61 H 0.238803 0.392379 0.785836
H62 H 0.178918 0.434731 0.819852
C74 C 0.2199(3) 0.4709(2) 0.7419(2)
C75 C 0.1509(4) 0.4673(4) 0.7077(3)
H63 H 0.108312 0.443581 0.720424
C76 C 0.1468(5) 0.4998(5) 0.6541(4)
H64 H 0.101163 0.498013 0.629500
C77 C 0.2088(5) 0.5342(3) 0.6373(3)
H65 H 0.207133 0.556453 0.601122
C78 C 0.2722(4) 0.5356(2) 0.6737(2)
H66 H 0.314926 0.559899 0.662617
C79 C 0.2617(2) 0.48890(19) 0.88936(18)
H67 H 0.214320 0.469324 0.904866
H68 H 0.301096 0.490695 0.922254
C80 C 0.2421(3) 0.5506(2) 0.86818(19)
C81 C 0.1783(3) 0.5819(2) 0.8897(2)
H69 H 0.145616 0.565398 0.919587
C82 C 0.1636(3) 0.6382(3) 0.8664(3)
H70 H 0.120317 0.660527 0.879978
C83 C 0.2121(3) 0.6609(2) 0.8238(3)
H71 H 0.203311 0.699366 0.807946
C84 C 0.2745(3) 0.6268(2) 0.8040(2)
H72 H 0.307227 0.642140 0.773559
C85 C 0.4601(3) 0.59160(19) 0.7025(2)
C86 C 0.5656(4) 0.5910(2) 0.6143(2)
C87 C 0.5712(3) 0.67559(19) 0.69911(18)
C88 C 0.4158(3) 0.69745(19) 0.67764(18)
C89 C 0.4192(4) 0.6207(2) 0.5872(2)
C90 C 0.5266(3) 0.70558(19) 0.59142(18)
C91 C 0.6299(4) 0.6516(2) 0.4713(2)
H73 H 0.605094 0.645722 0.508832
C92 C 0.6551(5) 0.6036(3) 0.4408(3)
H74 H 0.647195 0.564888 0.456207
C93 C 0.6924(5) 0.6117(3) 0.3871(3)
H75 H 0.712251 0.578837 0.365425
C94 C 0.7004(4) 0.6688(2) 0.3651(2)
H76 H 0.724570 0.675518 0.327530
C95 C 0.6733(3) 0.7152(2) 0.39807(19)
C96 C 0.6807(3) 0.7769(2) 0.3750(2)
H77 H 0.736901 0.787014 0.373352
H78 H 0.659789 0.778039 0.333363
C97 C 0.6961(3) 0.8685(2) 0.4333(2)
H79 H 0.733007 0.879233 0.401193
H80 H 0.667746 0.904639 0.445484
C98 C 0.7406(3) 0.8431(2) 0.4868(2)
C99 C 0.8172(3) 0.8588(3) 0.4987(3)
H81 H 0.843598 0.886130 0.473674
C100 C 0.8554(4) 0.8333(3) 0.5488(3)
H82 H 0.908193 0.842637 0.558241
C101 C 0.8137(4) 0.7942(3) 0.5837(3)
H83 H 0.837622 0.776777 0.618124
C102 C 0.7376(3) 0.7806(2) 0.5689(2)
H84 H 0.709708 0.753425 0.593163
C103 C 0.5735(3) 0.84823(19) 0.37634(18)
H85 H 0.558778 0.887152 0.393206
H86 H 0.588578 0.854105 0.333956
C104 C 0.5050(3) 0.80631(19) 0.37937(18)
C105 C 0.4490(3) 0.8004(2) 0.3336(2)
H87 H 0.451847 0.824448 0.298640
C106 C 0.3902(3) 0.7599(2) 0.3391(2)
H88 H 0.351997 0.755585 0.308123
C107 C 0.3868(3) 0.7254(2) 0.3900(2)
H89 H 0.346512 0.696970 0.394738
C108 C 0.4433(3) 0.7331(2) 0.43405(19)
H90 H 0.441583 0.708900 0.468951
C109 C 0.5266(2) 0.91803(17) 0.50865(15)
C110 C 0.4649(2) 0.98670(16) 0.41918(17)
C111 C 0.3967(2) 0.98364(17) 0.52810(17)
C112 C 0.2038(3) 0.8323(3) 0.5197(2)
H91 H 0.159093 0.854745 0.508200
C113 C 0.2108(4) 0.7766(3) 0.4981(3)
H92 H 0.173047 0.761417 0.470584
C114 C 0.2732(4) 0.7416(3) 0.5164(3)
H93 H 0.278128 0.701954 0.502819
C115 C 0.3285(3) 0.7666(3) 0.5552(2)
H94 H 0.372370 0.744124 0.568431
C116 C 0.3189(3) 0.8240(2) 0.57418(19)
C117 C 0.3769(3) 0.8547(2) 0.6161(2)
H95 H 0.415213 0.877320 0.592332
H96 H 0.405588 0.824889 0.640339
C118 C 0.2959(3) 0.8623(2) 0.7066(2)
H97 H 0.313633 0.879792 0.745195
H98 H 0.313808 0.820617 0.705837
C119 C 0.2090(4) 0.8631(4) 0.7043(3)
C120 C 0.1664(5) 0.8343(5) 0.7480(5)
H99 H 0.192184 0.817733 0.782067
C121 C 0.0844(6) 0.8297(6) 0.7416(6)
H100 H 0.054975 0.807342 0.769483
C122 C 0.0473(5) 0.8585(6) 0.6937(6)
C123 C 0.0941(4) 0.8900(4) 0.6542(4)
H102 H 0.069762 0.910277 0.621600
C124 C 0.3809(3) 0.9436(3) 0.6811(2)
H103 H 0.412001 0.929148 0.715851
H104 H 0.417409 0.958402 0.650343
C125 C 0.3278(3) 0.9929(2) 0.7006(2)
Co9 Co 0.36686(3) 0.98705(2) 0.29217(2)
N49 N 0.4400(2) 0.51868(15) 0.87095(15)
H101 H 0.992271 0.856607 0.688271
Fe3 Fe 0.000000 0.500000 0.000000
H101_2 H 0.007729 0.356607 0.811729
Fe3_2 Fe -0.000000 0.500000 1.000000
Co2_2 Co 0.49325(4) 0.85319(3) 0.14548(2)
Co4_2 Co 0.24806(3) 0.56336(3) 0.10036(3)
Fe1_3 Fe 0.500000 0.500000 0.000000
N3_2 N 0.2897(2) 0.92691(16) 0.32665(16)
N4_2 N 0.2781(2) 0.99581(18) 0.22501(17)
N5_2 N 0.4341(3) 0.93828(17) 0.23963(18)
N6_2 N 0.6078(4) 0.9444(2) 0.0963(2)
N7_2 N 0.6209(3) 0.80568(19) 0.22902(19)
N8_2 N 0.3647(3) 0.77539(19) 0.19738(17)
N9_2 N 0.3731(4) 0.8929(2) 0.0513(2)
N10_2 N 0.5481(2) 0.75889(16) 0.05893(16)
N12_2 N 0.7019(2) 0.69521(15) 0.02082(15)
N15_2 N 0.5459(2) 0.63006(15) 0.01188(14)
N17_2 N 0.3377(2) 0.52738(16) 0.04776(16)
N18_2 N 0.2567(2) 0.64257(19) 0.05624(18)
N19_2 N 0.1727(2) 0.6071(2) 0.1604(2)
N20_2 N 0.2634(3) 0.49944(19) 0.16595(19)
N21_2 N 0.1602(2) 0.52568(19) 0.05408(18)
N22_2 N 0.3336(2) 0.60479(18) 0.15605(16)
C11_2 C 0.2088(5) 0.9658(3) 0.1373(3)
H11_2 H 0.207133 0.943547 0.101122
C12_2 C 0.2722(4) 0.9644(2) 0.1737(2)
H12_2 H 0.314926 0.940101 0.162617
C14_2 C 0.2421(3) 0.9494(2) 0.36818(19)
C15_2 C 0.1783(3) 0.9181(2) 0.3897(2)
H15_2 H 0.145616 0.934602 0.419587
C16_2 C 0.1636(3) 0.8618(3) 0.3664(3)
H16_2 H 0.120317 0.839473 0.379978
C17_2 C 0.2121(3) 0.8391(2) 0.3238(3)
H17_2 H 0.203311 0.800634 0.307946
C18_2 C 0.2745(3) 0.8732(2) 0.3040(2)
H18_2 H 0.307227 0.857860 0.273559
C19_2 C 0.4601(3) 0.90840(19) 0.2025(2)
C20_2 C 0.5656(4) 0.9090(2) 0.1143(2)
C21_2 C 0.5712(3) 0.82441(19) 0.19911(18)
C22_2 C 0.4158(3) 0.80255(19) 0.17764(18)
C23_2 C 0.4192(4) 0.8793(2) 0.0872(2)
C24_2 C 0.5266(3) 0.79442(19) 0.09142(18)
H19_2 H 0.605094 0.854278 0.008832
C34_2 C 0.8554(4) 0.6667(3) 0.0488(3)
H28_2 H 0.908193 0.657363 0.058241
C35_2 C 0.8137(4) 0.7058(3) 0.0837(3)
H29_2 H 0.837622 0.723223 0.118124
C36_2 C 0.7376(3) 0.7194(2) 0.0689(2)
H30_2 H 0.709708 0.746575 0.093163
C43_2 C 0.5266(2) 0.58197(17) 0.00865(15)
C45_2 C 0.3967(2) 0.51636(17) 0.02810(17)
C46_2 C 0.2038(3) 0.6677(3) 0.0197(2)
H37_2 H 0.159093 0.645255 0.008200
C48_2 C 0.2732(4) 0.7584(3) 0.0164(3)
H39_2 H 0.278128 0.798046 0.002819
C49_2 C 0.3285(3) 0.7334(3) 0.0552(2)
H40_2 H 0.372370 0.755876 0.068431
C50_2 C 0.3189(3) 0.6760(2) 0.07418(19)
C51_2 C 0.3769(3) 0.6453(2) 0.1161(2)
H41_2 H 0.415213 0.622680 0.092332
H42_2 H 0.405588 0.675111 0.140339
C52_2 C 0.2959(3) 0.6377(2) 0.2066(2)
H43_2 H 0.313633 0.620208 0.245195
H44_2 H 0.313808 0.679383 0.205837
C53_2 C 0.2090(4) 0.6369(4) 0.2043(3)
C54_2 C 0.1664(5) 0.6657(5) 0.2480(5)
H45_2 H 0.192184 0.682267 0.282067
C55_2 C 0.0844(6) 0.6703(6) 0.2416(6)
H46_2 H 0.054975 0.692658 0.269483
C56_2 C 0.0473(5) 0.6415(6) 0.1937(6)
C57_2 C 0.0941(4) 0.6100(4) 0.1542(4)
H48_2 H 0.069762 0.589723 0.121600
C58_2 C 0.3809(3) 0.5564(3) 0.1811(2)
H49_2 H 0.412001 0.570852 0.215851
H50_2 H 0.417409 0.541598 0.150343
C59_2 C 0.3278(3) 0.5071(2) 0.2006(2)
C60_2 C 0.3423(4) 0.4743(3) 0.2515(3)
H51_2 H 0.387514 0.481172 0.275629
C61_2 C 0.2897(6) 0.4315(4) 0.2663(4)
H52_2 H 0.297834 0.408323 0.301502
C62_2 C 0.2252(5) 0.4217(3) 0.2307(4)
H53_2 H 0.189122 0.391210 0.240011
C63_2 C 0.2137(4) 0.4571(2) 0.1809(3)
H54_2 H 0.168499 0.451015 0.156488
C64_2 C 0.1001(3) 0.5135(2) 0.0325(2)
Co7_2 Co 0.40868(3) 0.28494(2) 0.01116(2)
N35_2 N 0.3616(2) 0.20723(17) 0.04923(16)
N37_2 N 0.3599(2) 0.32345(16) 0.08915(15)
N38_2 N 0.4994(2) 0.27343(16) 0.07056(15)
C91_2 C 0.3701(4) 0.1516(2) 0.0287(2)
C92_2 C 0.3449(5) 0.1036(3) 0.0592(3)
H74_2 H 0.352805 0.064888 0.043793
C93_2 C 0.3076(5) 0.1117(3) 0.1129(3)
H75_2 H 0.287749 0.078837 0.134575
C94_2 C 0.2996(4) 0.1688(2) 0.1349(2)
H76_2 H 0.275430 0.175518 0.172470
C95_2 C 0.3267(3) 0.2152(2) 0.10193(19)
C96_2 C 0.3193(3) 0.2769(2) 0.1250(2)
H77_2 H 0.263099 0.287014 0.126648
H78_2 H 0.340211 0.278039 0.166637
C97_2 C 0.3039(3) 0.3685(2) 0.0667(2)
H79_2 H 0.266993 0.379233 0.098807
H80_2 H 0.332254 0.404639 0.054516
C98_2 C 0.2594(3) 0.3431(2) 0.0132(2)
C99_2 C 0.1828(3) 0.3588(3) 0.0013(3)
H81_2 H 0.156402 0.386130 0.026326
C103_2 C 0.4265(3) 0.34823(19) 0.12366(18)
H85_2 H 0.441222 0.387152 0.106794
H86_2 H 0.411422 0.354105 0.166044
C104_2 C 0.4950(3) 0.30631(19) 0.12063(18)
C105_2 C 0.5510(3) 0.3004(2) 0.1664(2)
H87_2 H 0.548153 0.324448 0.201360
C106_2 C 0.6098(3) 0.2599(2) 0.1609(2)
H88_2 H 0.648003 0.255585 0.191877
C107_2 C 0.6132(3) 0.2254(2) 0.1100(2)
H89_2 H 0.653488 0.196970 0.105262
C108_2 C 0.5567(3) 0.2331(2) 0.06595(19)
H90_2 H 0.558417 0.208900 0.031049
C110_2 C 0.5351(2) 0.48670(16) 0.08082(17)
C113_2 C 0.7892(4) 0.2766(3) 0.0019(3)
H92_2 H 0.826953 0.261417 0.029416
Fe3_3 Fe 1.000000 0.500000 0.000000
Co3_2 Co 0.59132(3) 0.71506(2) 0.98884(2)
Fe1_4 Fe 0.500000 0.500000 1.000000
N11_2 N 0.6384(2) 0.79277(17) 0.95077(16)
N13_2 N 0.6401(2) 0.67655(16) 0.91085(15)
N14_2 N 0.5006(2) 0.72657(16) 0.92944(15)
N24_2 N 0.0677(2) 0.4535(2) 0.8831(2)
C25_2 C 0.6299(4) 0.8484(2) 0.9713(2)
C26_2 C 0.6551(5) 0.8964(3) 0.9408(3)
H20_2 H 0.647195 0.935112 0.956207
C27_2 C 0.6924(5) 0.8883(3) 0.8871(3)
H21_2 H 0.712251 0.921163 0.865425
C28_2 C 0.7004(4) 0.8312(2) 0.8651(2)
H22_2 H 0.724570 0.824482 0.827530
C29_2 C 0.6733(3) 0.7848(2) 0.89807(19)
C30_2 C 0.6807(3) 0.7231(2) 0.8750(2)
H23_2 H 0.736901 0.712986 0.873352
H24_2 H 0.659789 0.721961 0.833363
C31_2 C 0.6961(3) 0.6315(2) 0.9333(2)
H25_2 H 0.733007 0.620767 0.901193
H26_2 H 0.667746 0.595361 0.945484
C32_2 C 0.7406(3) 0.6569(2) 0.9868(2)
C33_2 C 0.8172(3) 0.6412(3) 0.9987(3)
H27_2 H 0.843598 0.613870 0.973674
C37_2 C 0.5735(3) 0.65177(19) 0.87634(18)
H31_2 H 0.558778 0.612848 0.893206
H32_2 H 0.588578 0.645895 0.833956
C38_2 C 0.5050(3) 0.69369(19) 0.87937(18)
C39_2 C 0.4490(3) 0.6996(2) 0.8336(2)
H33_2 H 0.451847 0.675552 0.798640
C40_2 C 0.3902(3) 0.7401(2) 0.8391(2)
H34_2 H 0.351997 0.744415 0.808123
C41_2 C 0.3868(3) 0.7746(2) 0.8900(2)
H35_2 H 0.346512 0.803030 0.894738
C42_2 C 0.4433(3) 0.7669(2) 0.93405(19)
H36_2 H 0.441583 0.791100 0.968951
C44_2 C 0.4649(2) 0.51330(16) 0.91918(17)
C47_2 C 0.2108(4) 0.7234(3) 0.9981(3)
H38_2 H 0.173047 0.738583 0.970584
C66_2 C 0.0435(2) 0.4712(2) 0.9269(2)
Co6_2 Co 0.50675(4) 0.14681(3) 0.85452(2)
Co8_2 Co 0.75194(3) 0.43664(3) 0.89964(3)
N27_2 N 0.7103(2) 0.07309(16) 0.67335(16)
N28_2 N 0.7219(2) 0.00419(18) 0.77499(17)
N29_2 N 0.5659(3) 0.06172(17) 0.76037(18)
N30_2 N 0.3922(4) 0.0556(2) 0.9037(2)
N31_2 N 0.3791(3) 0.19432(19) 0.77098(19)
N32_2 N 0.6353(3) 0.22461(19) 0.80262(17)
N33_2 N 0.6269(4) 0.1071(2) 0.9487(2)
N34_2 N 0.4519(2) 0.24111(16) 0.94107(16)
N36_2 N 0.2981(2) 0.30479(15) 0.97918(15)
N39_2 N 0.4541(2) 0.36994(15) 0.98812(14)
N41_2 N 0.6623(2) 0.47262(16) 0.95224(16)
N42_2 N 0.7433(2) 0.35743(19) 0.94376(18)
N43_2 N 0.8273(2) 0.3929(2) 0.8396(2)
N44_2 N 0.7366(3) 0.50056(19) 0.83405(19)
N45_2 N 0.8398(2) 0.47432(19) 0.94592(18)
N46_2 N 0.6664(2) 0.39521(18) 0.84395(16)
C77_2 C 0.7912(5) 0.0342(3) 0.8627(3)
H65_2 H 0.792867 0.056453 0.898878
C78_2 C 0.7278(4) 0.0356(2) 0.8263(2)
H66_2 H 0.685074 0.059899 0.837383
C80_2 C 0.7579(3) 0.0506(2) 0.63182(19)
C81_2 C 0.8217(3) 0.0819(2) 0.6103(2)
H69_2 H 0.854384 0.065398 0.580413
C82_2 C 0.8364(3) 0.1382(3) 0.6336(3)
H70_2 H 0.879683 0.160527 0.620022
C83_2 C 0.7879(3) 0.1609(2) 0.6762(3)
H71_2 H 0.796689 0.199366 0.692054
C84_2 C 0.7255(3) 0.1268(2) 0.6960(2)
H72_2 H 0.692773 0.142140 0.726441
C85_2 C 0.5399(3) 0.09160(19) 0.7975(2)
C86_2 C 0.4344(4) 0.0910(2) 0.8857(2)
C87_2 C 0.4288(3) 0.17559(19) 0.80089(18)
C88_2 C 0.5842(3) 0.19745(19) 0.82236(18)
C89_2 C 0.5808(4) 0.1207(2) 0.9128(2)
C90_2 C 0.4734(3) 0.20558(19) 0.90858(18)
H73_2 H 0.394906 0.145722 0.991168
C100_2 C 0.1446(4) 0.3333(3) 0.9512(3)
H82_2 H 0.091807 0.342637 0.941759
C101_2 C 0.1863(4) 0.2942(3) 0.9163(3)
H83_2 H 0.162378 0.276777 0.881876
C102_2 C 0.2624(3) 0.2806(2) 0.9311(2)
H84_2 H 0.290292 0.253425 0.906837
C109_2 C 0.4734(2) 0.41803(17) 0.99135(15)
C111_2 C 0.6033(2) 0.48364(17) 0.97190(17)
C112_2 C 0.7962(3) 0.3323(3) 0.9803(2)
H91_2 H 0.840907 0.354745 0.991800
C114_2 C 0.7268(4) 0.2416(3) 0.9836(3)
H93_2 H 0.721872 0.201954 0.997181
C115_2 C 0.6715(3) 0.2666(3) 0.9448(2)
H94_2 H 0.627630 0.244124 0.931569
C116_2 C 0.6811(3) 0.3240(2) 0.92582(19)
C117_2 C 0.6231(3) 0.3547(2) 0.8839(2)
H95_2 H 0.584787 0.377320 0.907668
H96_2 H 0.594412 0.324889 0.859661
C118_2 C 0.7041(3) 0.3623(2) 0.7934(2)
H97_2 H 0.686367 0.379792 0.754805
H98_2 H 0.686192 0.320617 0.794163
C119_2 C 0.7910(4) 0.3631(4) 0.7957(3)
C120_2 C 0.8336(5) 0.3343(5) 0.7520(5)
H99_2 H 0.807816 0.317733 0.717933
C121_2 C 0.9156(6) 0.3297(6) 0.7584(6)
H100_2 H 0.945025 0.307342 0.730517
C122_2 C 0.9527(5) 0.3585(6) 0.8063(6)
C123_2 C 0.9059(4) 0.3900(4) 0.8458(4)
H102_2 H 0.930238 0.410277 0.878400
C124_2 C 0.6191(3) 0.4436(3) 0.8189(2)
H103_2 H 0.587999 0.429148 0.784149
H104_2 H 0.582591 0.458402 0.849657
C125_2 C 0.6722(3) 0.4929(2) 0.7994(2)
C126_2 C 0.6577(4) 0.5257(3) 0.7485(3)
H105_2 H 0.612486 0.518828 0.724371
C127_2 C 0.7103(6) 0.5685(4) 0.7337(4)
H106_2 H 0.702166 0.591677 0.698498
C128_2 C 0.7748(5) 0.5783(3) 0.7693(4)
H107_2 H 0.810878 0.608790 0.759989
C129_2 C 0.7863(4) 0.5429(2) 0.8191(3)
H108_2 H 0.831501 0.548985 0.843512
C130 C 0.8999(3) 0.4865(2) 0.9675(2)
N47_2 N 0.0038(3) 0.6257(3) 0.9514(3)
C131_2 C 0.0011(3) 0.5783(3) 0.9696(2)
Fe3_4 Fe 1.000000 0.500000 1.000000
N23_2 N 0.9962(3) 0.3743(3) 0.0486(3)
H47_2 H 0.992271 0.643393 0.188271
C65_2 C 0.9989(3) 0.4217(3) 0.0304(2)
N48_2 N 0.9323(2) 0.5465(2) 0.1169(2)
C132_2 C 0.9565(2) 0.5288(2) 0.0731(2)
N1_2 N 0.41348(19) 0.06671(15) 0.26781(15)
N2_2 N 0.29306(19) 0.04534(15) 0.33805(15)
C1_2 C 0.4580(3) 0.0778(2) 0.2198(2)
H1_2 H 0.468482 0.046530 0.192493
C2_2 C 0.4888(3) 0.1329(3) 0.2089(2)
H2_2 H 0.519658 0.139727 0.174390
C3_2 C 0.4739(3) 0.1782(2) 0.2491(3)
H3_2 H 0.496095 0.216260 0.243258
C4_2 C 0.4266(3) 0.1676(2) 0.2974(2)
H4_2 H 0.414810 0.198360 0.324986
C5_2 C 0.3968(2) 0.11148(18) 0.30516(18)
C6_2 C 0.3430(2) 0.09581(18) 0.35656(18)
H5_2 H 0.374321 0.084999 0.392609
H6_2 H 0.310063 0.130318 0.366688
C7_2 C 0.2286(3) 0.0661(2) 0.29757(19)
H7_2 H 0.238803 0.107621 0.285836
H8_2 H 0.178918 0.065269 0.319852
C8_2 C 0.2199(3) 0.0291(2) 0.2419(2)
C9_2 C 0.1509(4) 0.0327(4) 0.2077(3)
H9_2 H 0.108312 0.056419 0.220424
C10_2 C 0.1468(5) 0.0002(5) 0.1541(4)
H10_2 H 0.101163 0.001987 0.129500
C13_2 C 0.2617(2) 0.01110(19) 0.38936(18)
H13_2 H 0.214320 0.030676 0.404866
H14_2 H 0.301096 0.009305 0.422254
N25_2 N 0.58652(19) 0.93329(15) 0.73219(15)
N26_2 N 0.70694(19) 0.95466(15) 0.66195(15)
C67_2 C 0.5420(3) 0.9222(2) 0.7802(2)
H55_2 H 0.531518 0.953470 0.807507
C68_2 C 0.5112(3) 0.8671(3) 0.7911(2)
H56_2 H 0.480342 0.860273 0.825610
C69_2 C 0.5261(3) 0.8218(2) 0.7509(3)
H57_2 H 0.503905 0.783740 0.756742
C70_2 C 0.5734(3) 0.8324(2) 0.7026(2)
H58_2 H 0.585190 0.801640 0.675014
C71_2 C 0.6032(2) 0.88852(18) 0.69484(18)
C72_2 C 0.6570(2) 0.90419(18) 0.64344(18)
H59_2 H 0.625679 0.915001 0.607391
H60_2 H 0.689937 0.869682 0.633312
C73_2 C 0.7714(3) 0.9339(2) 0.70243(19)
H61_2 H 0.761197 0.892379 0.714164
H62_2 H 0.821082 0.934731 0.680148
C74_2 C 0.7801(3) 0.9709(2) 0.7581(2)
C75_2 C 0.8491(4) 0.9673(4) 0.7923(3)
H63_2 H 0.891688 0.943581 0.779576
C76_2 C 0.8532(5) 0.9998(5) 0.8459(4)
H64_2 H 0.898837 0.998013 0.870500
C79_2 C 0.7383(2) 0.98890(19) 0.61064(18)
H67_2 H 0.785680 0.969324 0.595134
H68_2 H 0.698904 0.990695 0.577746
loop_
_geom_bond_atom_site_label_1
_geom_bond_atom_site_label_2
_geom_bond_site_symmetry_1
_geom_bond_site_symmetry_2
N48 C132 1_555 1_555
C132 Fe2 1_555 1_555
N23 C65 1_555 1_555
C65 Fe2_2 1_555 1_555
C133 Fe2_2 1_555 1_555
Co1 N1 1_555 1_555
Co2 C19 1_555 1_555
Co3 N10 1_555 1_555
Co4 N17 1_555 1_555
Fe1 C43 1_555 1_555
Fe2_3 C64 1_555 1_555
N1 C1 1_555 1_555
N2 Co1 1_555 1_555
N3 Co1 1_555 1_555
N4 Co1 1_555 1_555
N5 Co1 1_555 1_555
N6 C20 1_555 1_555
N7 C21 1_555 1_555
N8 C22 1_555 1_555
N9 C23 1_555 1_555
N10 C24 1_555 1_555
N11 Co3 1_555 1_555
N12 Co3 1_555 1_555
N13 Co3 1_555 1_555
N14 Co3 1_555 1_555
N15 Co3 1_555 1_555
N16 C44 1_555 1_555
N17 C45 1_555 1_555
N18 Co4 1_555 1_555
N19 Co4 1_555 1_555
N21 Co4 1_555 1_555
N22 Co4 1_555 1_555
C1 H1 1_555 1_555
C2 C1 1_555 1_555
H2 C2 1_555 1_555
C3 C2 1_555 1_555
H3 C3 1_555 1_555
C4 C3 1_555 1_555
H4 C4 1_555 1_555
C5 N1 1_555 1_555
C6 N2 1_555 1_555
H5 C6 1_555 1_555
H6 C6 1_555 1_555
C7 N2 1_555 1_555
H7 C7 1_555 1_555
H8 C7 1_555 1_555
C8 N4 1_555 1_555
C9 C8 1_555 1_555
H9 C9 1_555 1_555
C10 C9 1_555 1_555
H10 C10 1_555 1_555
C11 C10 1_555 1_555
H11 C11 1_555 1_555
C12 N4 1_555 1_555
H12 C12 1_555 1_555
C13 N2 1_555 1_555
H13 C13 1_555 1_555
H14 C13 1_555 1_555
C14 N3 1_555 1_555
C15 C14 1_555 1_555
H15 C15 1_555 1_555
C16 C15 1_555 1_555
H16 C16 1_555 1_555
C17 C16 1_555 1_555
H17 C17 1_555 1_555
C18 N3 1_555 1_555
H18 C18 1_555 1_555
C19 N5 1_555 1_555
C20 Co2 1_555 1_555
C21 Co2 1_555 1_555
C22 Co2 1_555 1_555
C23 Co2 1_555 1_555
C24 Co2 1_555 1_555
C25 N11 1_555 1_555
H19 C25 1_555 1_555
C26 C25 1_555 1_555
H20 C26 1_555 1_555
C27 C26 1_555 1_555
H21 C27 1_555 1_555
C28 C27 1_555 1_555
H22 C28 1_555 1_555
C29 N11 1_555 1_555
C30 N13 1_555 1_555
H23 C30 1_555 1_555
H24 C30 1_555 1_555
C31 N13 1_555 1_555
H25 C31 1_555 1_555
H26 C31 1_555 1_555
C32 N12 1_555 1_555
C33 C32 1_555 1_555
H27 C33 1_555 1_555
C34 C33 1_555 1_555
H28 C34 1_555 1_555
C35 C34 1_555 1_555
H29 C35 1_555 1_555
C36 N12 1_555 1_555
H30 C36 1_555 1_555
C37 N13 1_555 1_555
H31 C37 1_555 1_555
H32 C37 1_555 1_555
C38 N14 1_555 1_555
C39 C38 1_555 1_555
H33 C39 1_555 1_555
C40 C39 1_555 1_555
H34 C40 1_555 1_555
C41 C40 1_555 1_555
H35 C41 1_555 1_555
C42 N14 1_555 1_555
H36 C42 1_555 1_555
C43 N15 1_555 1_555
C44 Fe1 1_555 1_555
C45 Fe1 1_555 1_555
C46 N18 1_555 1_555
H37 C46 1_555 1_555
C47 C46 1_555 1_555
H38 C47 1_555 1_555
C48 C47 1_555 1_555
H39 C48 1_555 1_555
C49 C48 1_555 1_555
H40 C49 1_555 1_555
C50 N18 1_555 1_555
C51 N22 1_555 1_555
H41 C51 1_555 1_555
H42 C51 1_555 1_555
C52 N22 1_555 1_555
H43 C52 1_555 1_555
H44 C52 1_555 1_555
C53 N19 1_555 1_555
C54 C53 1_555 1_555
H45 C54 1_555 1_555
C55 C54 1_555 1_555
H46 C55 1_555 1_555
C56 C55 1_555 1_555
C57 N19 1_555 1_555
H48 C57 1_555 1_555
C58 N22 1_555 1_555
H49 C58 1_555 1_555
H50 C58 1_555 1_555
C64 N21 1_555 1_555
H105 C126 1_555 1_555
C127 C126 1_555 1_555
H106 C127 1_555 1_555
C128 C127 1_555 1_555
H107 C128 1_555 1_555
C129 N44 1_555 1_555
H108 C129 1_555 1_555
N47 C131 1_555 1_555
C131 Fe2_3 1_555 1_555
Co10 N16 1_555 1_555
N50 Co1 1_555 1_555
C4 C5 1_555 1_555
C5 C6 1_555 1_555
C7 C8 1_555 1_555
C11 C12 1_555 1_555
C13 C14 1_555 1_555
C17 C18 1_555 1_555
C28 C29 1_555 1_555
C29 C30 1_555 1_555
C31 C32 1_555 1_555
C35 C36 1_555 1_555
C37 C38 1_555 1_555
C41 C42 1_555 1_555
C49 C50 1_555 1_555
C50 C51 1_555 1_555
C52 C53 1_555 1_555
C56 C57 1_555 1_555
C58 C59 1_555 1_555
C128 C129 1_555 1_555
N24 C66 1_555 1_555
H51 C60 1_555 1_555
C61 C60 1_555 1_555
H52 C61 1_555 1_555
C62 C61 1_555 1_555
H53 C62 1_555 1_555
C63 N20 1_555 1_555
H54 C63 1_555 1_555
C66 Fe2_4 1_555 1_555
Co5 N25 1_555 1_555
Co6 C85 1_555 1_555
Co7 N34 1_555 1_555
Co8 N41 1_555 1_555
N25 C67 1_555 1_555
N26 Co5 1_555 1_555
N27 Co5 1_555 1_555
N28 Co5 1_555 1_555
N29 Co5 1_555 1_555
N30 C86 1_555 1_555
N31 C87 1_555 1_555
N32 C88 1_555 1_555
N33 C89 1_555 1_555
N34 C90 1_555 1_555
N35 Co7 1_555 1_555
N36 Co7 1_555 1_555
N37 Co7 1_555 1_555
N38 Co7 1_555 1_555
N39 Co7 1_555 1_555
N40 C110 1_555 1_555
N41 C111 1_555 1_555
N42 Co8 1_555 1_555
N43 Co8 1_555 1_555
N45 Co8 1_555 1_555
N46 Co8 1_555 1_555
C67 H55 1_555 1_555
C68 C67 1_555 1_555
H56 C68 1_555 1_555
C69 C68 1_555 1_555
H57 C69 1_555 1_555
C70 C69 1_555 1_555
H58 C70 1_555 1_555
C71 N25 1_555 1_555
C72 N26 1_555 1_555
H59 C72 1_555 1_555
H60 C72 1_555 1_555
C73 N26 1_555 1_555
H61 C73 1_555 1_555
H62 C73 1_555 1_555
C74 N28 1_555 1_555
C75 C74 1_555 1_555
H63 C75 1_555 1_555
C76 C75 1_555 1_555
H64 C76 1_555 1_555
C77 C76 1_555 1_555
H65 C77 1_555 1_555
C78 N28 1_555 1_555
H66 C78 1_555 1_555
C79 N26 1_555 1_555
H67 C79 1_555 1_555
H68 C79 1_555 1_555
C80 N27 1_555 1_555
C81 C80 1_555 1_555
H69 C81 1_555 1_555
C82 C81 1_555 1_555
H70 C82 1_555 1_555
C83 C82 1_555 1_555
H71 C83 1_555 1_555
C84 N27 1_555 1_555
H72 C84 1_555 1_555
C85 N29 1_555 1_555
C86 Co6 1_555 1_555
C87 Co6 1_555 1_555
C88 Co6 1_555 1_555
C89 Co6 1_555 1_555
C90 Co6 1_555 1_555
C91 N35 1_555 1_555
H73 C91 1_555 1_555
C92 C91 1_555 1_555
H74 C92 1_555 1_555
C93 C92 1_555 1_555
H75 C93 1_555 1_555
C94 C93 1_555 1_555
H76 C94 1_555 1_555
C95 N35 1_555 1_555
C96 N37 1_555 1_555
H77 C96 1_555 1_555
H78 C96 1_555 1_555
C97 N37 1_555 1_555
H79 C97 1_555 1_555
H80 C97 1_555 1_555
C98 N36 1_555 1_555
C99 C98 1_555 1_555
H81 C99 1_555 1_555
C100 C99 1_555 1_555
H82 C100 1_555 1_555
C101 C100 1_555 1_555
H83 C101 1_555 1_555
C102 N36 1_555 1_555
H84 C102 1_555 1_555
C103 N37 1_555 1_555
H85 C103 1_555 1_555
H86 C103 1_555 1_555
C104 N38 1_555 1_555
C105 C104 1_555 1_555
H87 C105 1_555 1_555
C106 C105 1_555 1_555
H88 C106 1_555 1_555
C107 C106 1_555 1_555
H89 C107 1_555 1_555
C108 N38 1_555 1_555
H90 C108 1_555 1_555
C109 Fe1_2 1_555 1_555
C110 Fe1_2 1_555 1_555
C111 Fe1_2 1_555 1_555
C112 N42 1_555 1_555
H91 C112 1_555 1_555
C113 C112 1_555 1_555
H92 C113 1_555 1_555
C114 C113 1_555 1_555
H93 C114 1_555 1_555
C115 C114 1_555 1_555
H94 C115 1_555 1_555
C116 N42 1_555 1_555
C117 N46 1_555 1_555
H95 C117 1_555 1_555
H96 C117 1_555 1_555
C118 N46 1_555 1_555
H97 C118 1_555 1_555
H98 C118 1_555 1_555
C119 N43 1_555 1_555
C120 C119 1_555 1_555
H99 C120 1_555 1_555
C121 C120 1_555 1_555
H100 C121 1_555 1_555
C122 C121 1_555 1_555
C123 N43 1_555 1_555
H102 C123 1_555 1_555
C124 N46 1_555 1_555
H103 C124 1_555 1_555
H104 C124 1_555 1_555
C133 N45 1_555 1_555
Co9 N40 1_555 1_555
N49 Co5 1_555 1_555
C62 C63 1_555 1_555
N39 C109 1_555 1_555
C70 C71 1_555 1_555
C71 C72 1_555 1_555
C73 C74 1_555 1_555
C77 C78 1_555 1_555
C79 C80 1_555 1_555
C83 C84 1_555 1_555
C94 C95 1_555 1_555
C95 C96 1_555 1_555
C97 C98 1_555 1_555
C101 C102 1_555 1_555
C103 C104 1_555 1_555
C107 C108 1_555 1_555
C115 C116 1_555 1_555
C116 C117 1_555 1_555
C118 C119 1_555 1_555
C122 C123 1_555 1_555
C124 C125 1_555 1_555
Co2_2 C19_2 1_555 1_555
Co4_2 N17_2 1_555 1_555
Fe1_3 C43_2 1_555 1_555
Fe3 C64_2 1_555 1_555
N3_2 Co9 1_555 1_555
N4_2 Co9 1_555 1_555
N5_2 Co9 1_555 1_555
N6_2 C20_2 1_555 1_555
N7_2 C21_2 1_555 1_555
N8_2 C22_2 1_555 1_555
N9_2 C23_2 1_555 1_555
N10_2 C24_2 1_555 1_555
N17_2 C45_2 1_555 1_555
N18_2 Co4_2 1_555 1_555
N19_2 Co4_2 1_555 1_555
N20_2 Co4_2 1_555 1_555
N21_2 Co4_2 1_555 1_555
N22_2 Co4_2 1_555 1_555
H11_2 C11_2 1_555 1_555
C12_2 N4_2 1_555 1_555
H12_2 C12_2 1_555 1_555
C14_2 N3_2 1_555 1_555
C15_2 C14_2 1_555 1_555
H15_2 C15_2 1_555 1_555
C16_2 C15_2 1_555 1_555
H16_2 C16_2 1_555 1_555
C17_2 C16_2 1_555 1_555
H17_2 C17_2 1_555 1_555
C18_2 N3_2 1_555 1_555
H18_2 C18_2 1_555 1_555
C19_2 N5_2 1_555 1_555
C20_2 Co2_2 1_555 1_555
C21_2 Co2_2 1_555 1_555
C22_2 Co2_2 1_555 1_555
C23_2 Co2_2 1_555 1_555
C24_2 Co2_2 1_555 1_555
H28_2 C34_2 1_555 1_555
C35_2 C34_2 1_555 1_555
H29_2 C35_2 1_555 1_555
C36_2 N12_2 1_555 1_555
H30_2 C36_2 1_555 1_555
C43_2 N15_2 1_555 1_555
C45_2 Fe1_3 1_555 1_555
C46_2 N18_2 1_555 1_555
H37_2 C46_2 1_555 1_555
H39_2 C48_2 1_555 1_555
C49_2 C48_2 1_555 1_555
H40_2 C49_2 1_555 1_555
C50_2 N18_2 1_555 1_555
C51_2 N22_2 1_555 1_555
H41_2 C51_2 1_555 1_555
H42_2 C51_2 1_555 1_555
C52_2 N22_2 1_555 1_555
H43_2 C52_2 1_555 1_555
H44_2 C52_2 1_555 1_555
C53_2 N19_2 1_555 1_555
C54_2 C53_2 1_555 1_555
H45_2 C54_2 1_555 1_555
C55_2 C54_2 1_555 1_555
H46_2 C55_2 1_555 1_555
C56_2 C55_2 1_555 1_555
C57_2 N19_2 1_555 1_555
H48_2 C57_2 1_555 1_555
C58_2 N22_2 1_555 1_555
H49_2 C58_2 1_555 1_555
H50_2 C58_2 1_555 1_555
C59_2 N20_2 1_555 1_555
C60_2 C59_2 1_555 1_555
H51_2 C60_2 1_555 1_555
C61_2 C60_2 1_555 1_555
H52_2 C61_2 1_555 1_555
C62_2 C61_2 1_555 1_555
H53_2 C62_2 1_555 1_555
C63_2 N20_2 1_555 1_555
H54_2 C63_2 1_555 1_555
C64_2 N21_2 1_555 1_555
N35_2 Co7_2 1_555 1_555
N37_2 Co7_2 1_555 1_555
N38_2 Co7_2 1_555 1_555
N50 C110_2 1_555 1_555
C91_2 N35_2 1_555 1_555
C92_2 C91_2 1_555 1_555
H74_2 C92_2 1_555 1_555
C93_2 C92_2 1_555 1_555
H75_2 C93_2 1_555 1_555
C94_2 C93_2 1_555 1_555
H76_2 C94_2 1_555 1_555
C95_2 N35_2 1_555 1_555
C96_2 N37_2 1_555 1_555
H77_2 C96_2 1_555 1_555
H78_2 C96_2 1_555 1_555
C97_2 N37_2 1_555 1_555
H79_2 C97_2 1_555 1_555
H80_2 C97_2 1_555 1_555
C99_2 C98_2 1_555 1_555
H81_2 C99_2 1_555 1_555
C103_2 N37_2 1_555 1_555
H85_2 C103_2 1_555 1_555
H86_2 C103_2 1_555 1_555
C104_2 N38_2 1_555 1_555
C105_2 C104_2 1_555 1_555
H87_2 C105_2 1_555 1_555
C106_2 C105_2 1_555 1_555
H88_2 C106_2 1_555 1_555
C107_2 C106_2 1_555 1_555
H89_2 C107_2 1_555 1_555
C108_2 N38_2 1_555 1_555
H90_2 C108_2 1_555 1_555
C110_2 Fe1_3 1_555 1_555
H92_2 C113_2 1_555 1_555
C11_2 C12_2 1_555 1_555
C17_2 C18_2 1_555 1_555
C35_2 C36_2 1_555 1_555
C49_2 C50_2 1_555 1_555
C50_2 C51_2 1_555 1_555
C52_2 C53_2 1_555 1_555
C56_2 C57_2 1_555 1_555
C58_2 C59_2 1_555 1_555
C62_2 C63_2 1_555 1_555
C94_2 C95_2 1_555 1_555
C95_2 C96_2 1_555 1_555
C97_2 C98_2 1_555 1_555
C103_2 C104_2 1_555 1_555
C107_2 C108_2 1_555 1_555
N11_2 Co3_2 1_555 1_555
N13_2 Co3_2 1_555 1_555
N14_2 Co3_2 1_555 1_555
N49 C44_2 1_555 1_555
N24_2 C66_2 1_555 1_555
C25_2 N11_2 1_555 1_555
C26_2 C25_2 1_555 1_555
H20_2 C26_2 1_555 1_555
C27_2 C26_2 1_555 1_555
H21_2 C27_2 1_555 1_555
C28_2 C27_2 1_555 1_555
H22_2 C28_2 1_555 1_555
C29_2 N11_2 1_555 1_555
C30_2 N13_2 1_555 1_555
H23_2 C30_2 1_555 1_555
H24_2 C30_2 1_555 1_555
C31_2 N13_2 1_555 1_555
H25_2 C31_2 1_555 1_555
H26_2 C31_2 1_555 1_555
C33_2 C32_2 1_555 1_555
H27_2 C33_2 1_555 1_555
C37_2 N13_2 1_555 1_555
H31_2 C37_2 1_555 1_555
H32_2 C37_2 1_555 1_555
C38_2 N14_2 1_555 1_555
C39_2 C38_2 1_555 1_555
H33_2 C39_2 1_555 1_555
C40_2 C39_2 1_555 1_555
H34_2 C40_2 1_555 1_555
C41_2 C40_2 1_555 1_555
H35_2 C41_2 1_555 1_555
C42_2 N14_2 1_555 1_555
H36_2 C42_2 1_555 1_555
C44_2 Fe1_4 1_555 1_555
H38_2 C47_2 1_555 1_555
C66_2 Fe3_2 1_555 1_555
Co6_2 C85_2 1_555 1_555
Co8_2 N41_2 1_555 1_555
N27_2 Co10 1_555 1_555
N28_2 Co10 1_555 1_555
N29_2 Co10 1_555 1_555
N30_2 C86_2 1_555 1_555
N31_2 C87_2 1_555 1_555
N32_2 C88_2 1_555 1_555
N33_2 C89_2 1_555 1_555
N34_2 C90_2 1_555 1_555
N41_2 C111_2 1_555 1_555
N42_2 Co8_2 1_555 1_555
N43_2 Co8_2 1_555 1_555
N44_2 Co8_2 1_555 1_555
N45_2 Co8_2 1_555 1_555
N46_2 Co8_2 1_555 1_555
H65_2 C77_2 1_555 1_555
C78_2 N28_2 1_555 1_555
H66_2 C78_2 1_555 1_555
C80_2 N27_2 1_555 1_555
C81_2 C80_2 1_555 1_555
H69_2 C81_2 1_555 1_555
C82_2 C81_2 1_555 1_555
H70_2 C82_2 1_555 1_555
C83_2 C82_2 1_555 1_555
H71_2 C83_2 1_555 1_555
C84_2 N27_2 1_555 1_555
H72_2 C84_2 1_555 1_555
C85_2 N29_2 1_555 1_555
C86_2 Co6_2 1_555 1_555
C87_2 Co6_2 1_555 1_555
C88_2 Co6_2 1_555 1_555
C89_2 Co6_2 1_555 1_555
C90_2 Co6_2 1_555 1_555
H82_2 C100_2 1_555 1_555
C101_2 C100_2 1_555 1_555
H83_2 C101_2 1_555 1_555
C102_2 N36_2 1_555 1_555
H84_2 C102_2 1_555 1_555
C109_2 Fe1_4 1_555 1_555
C111_2 Fe1_4 1_555 1_555
C112_2 N42_2 1_555 1_555
H91_2 C112_2 1_555 1_555
H93_2 C114_2 1_555 1_555
C115_2 C114_2 1_555 1_555
H94_2 C115_2 1_555 1_555
C116_2 N42_2 1_555 1_555
C117_2 N46_2 1_555 1_555
H95_2 C117_2 1_555 1_555
H96_2 C117_2 1_555 1_555
C118_2 N46_2 1_555 1_555
H97_2 C118_2 1_555 1_555
H98_2 C118_2 1_555 1_555
C119_2 N43_2 1_555 1_555
C120_2 C119_2 1_555 1_555
H99_2 C120_2 1_555 1_555
C121_2 C120_2 1_555 1_555
H100_2 C121_2 1_555 1_555
C122_2 C121_2 1_555 1_555
C123_2 N43_2 1_555 1_555
H102_2 C123_2 1_555 1_555
C124_2 N46_2 1_555 1_555
H103_2 C124_2 1_555 1_555
H104_2 C124_2 1_555 1_555
C125_2 N44_2 1_555 1_555
C126_2 C125_2 1_555 1_555
H105_2 C126_2 1_555 1_555
C127_2 C126_2 1_555 1_555
H106_2 C127_2 1_555 1_555
C128_2 C127_2 1_555 1_555
H107_2 C128_2 1_555 1_555
C129_2 N44_2 1_555 1_555
H108_2 C129_2 1_555 1_555
C130 N45_2 1_555 1_555
N47_2 C131_2 1_555 1_555
C131_2 Fe3_2 1_555 1_555
Fe3_4 C130 1_555 1_555
C28_2 C29_2 1_555 1_555
C29_2 C30_2 1_555 1_555
C31_2 C32_2 1_555 1_555
C37_2 C38_2 1_555 1_555
C41_2 C42_2 1_555 1_555
N39_2 C109_2 1_555 1_555
C77_2 C78_2 1_555 1_555
C83_2 C84_2 1_555 1_555
C101_2 C102_2 1_555 1_555
C115_2 C116_2 1_555 1_555
C116_2 C117_2 1_555 1_555
C118_2 C119_2 1_555 1_555
C122_2 C123_2 1_555 1_555
C124_2 C125_2 1_555 1_555
C128_2 C129_2 1_555 1_555
N23_2 C65_2 1_555 1_555
C65_2 Fe3_3 1_555 1_555
N48_2 C132_2 1_555 1_555
C132_2 Fe3_3 1_555 1_555
N1_2 C1_2 1_555 1_555
C1_2 H1_2 1_555 1_555
C2_2 C1_2 1_555 1_555
H2_2 C2_2 1_555 1_555
C3_2 C2_2 1_555 1_555
H3_2 C3_2 1_555 1_555
C4_2 C3_2 1_555 1_555
H4_2 C4_2 1_555 1_555
C5_2 N1_2 1_555 1_555
C6_2 N2_2 1_555 1_555
H5_2 C6_2 1_555 1_555
H6_2 C6_2 1_555 1_555
C7_2 N2_2 1_555 1_555
H7_2 C7_2 1_555 1_555
H8_2 C7_2 1_555 1_555
C9_2 C8_2 1_555 1_555
H9_2 C9_2 1_555 1_555
C10_2 C9_2 1_555 1_555
H10_2 C10_2 1_555 1_555
C13_2 N2_2 1_555 1_555
H13_2 C13_2 1_555 1_555
H14_2 C13_2 1_555 1_555
C4_2 C5_2 1_555 1_555
C5_2 C6_2 1_555 1_555
C7_2 C8_2 1_555 1_555
N25_2 C67_2 1_555 1_555
C67_2 H55_2 1_555 1_555
C68_2 C67_2 1_555 1_555
H56_2 C68_2 1_555 1_555
C69_2 C68_2 1_555 1_555
H57_2 C69_2 1_555 1_555
C70_2 C69_2 1_555 1_555
H58_2 C70_2 1_555 1_555
C71_2 N25_2 1_555 1_555
C72_2 N26_2 1_555 1_555
H59_2 C72_2 1_555 1_555
H60_2 C72_2 1_555 1_555
C73_2 N26_2 1_555 1_555
H61_2 C73_2 1_555 1_555
H62_2 C73_2 1_555 1_555
C75_2 C74_2 1_555 1_555
H63_2 C75_2 1_555 1_555
C76_2 C75_2 1_555 1_555
H64_2 C76_2 1_555 1_555
C79_2 N26_2 1_555 1_555
H67_2 C79_2 1_555 1_555
H68_2 C79_2 1_555 1_555
C70_2 C71_2 1_555 1_555
C71_2 C72_2 1_555 1_555
C73_2 C74_2 1_555 1_555

#END
