
###############################################################################
#
# This file contains modified crystal structure data generated from the
# MOF subset of the Cambridge Structural Database (CSD) v543 
# hosted by the Cambridge Crystallographic Data Centre (CCDC).
#
# This work is licensed under the Creative Commons
# Attribution-NonCommercial-ShareAlike 4.0 International License.
# To view a copy of this license, visit
# http://creativecommons.org/licenses/by-nc-sa/4.0/
# or send a letter to
# Creative Commons, PO Box 1866, Mountain View, CA 94042, USA.
#
# CIF created using the CSD Python API on 29 September 2022
# The structure has been converted into the P1 space group
# The structure has a 3D framework
# The original CSD entry JELLAR02 is in the monoclinic crystal system
# The framework has been calculated to contain at least 10.0% void space
# The void calculation uses a probe of radius 1.32A, grid spacing 0.4
#
###############################################################################

data_JELLAR02
_chemical_formula_moiety         '(C264 H216 Co16 Fe12 N96)n'
_symmetry_cell_setting           triclinic
_symmetry_space_group_name_H-M   'P 1'
_symmetry_Int_Tables_number      1
_space_group_name_Hall           'P 1'
loop_
_symmetry_equiv_pos_site_id
_symmetry_equiv_pos_as_xyz
1 x,y,z
_cell_length_a                   17.1405(7)
_cell_length_b                   22.6426(10)
_cell_length_c                   22.3015(10)
_cell_angle_alpha                90
_cell_angle_beta                 90.414(4)
_cell_angle_gamma                90
_cell_volume                     8655.11
loop_
_atom_site_label
_atom_site_type_symbol
_atom_site_fract_x
_atom_site_fract_y
_atom_site_fract_z
Fe1 Fe 0.500000 0.000000 0.500000
Co1 Co 0.36873(3) 0.48592(2) 0.79282(2)
Co2 Co 0.59149(3) 0.21479(2) 0.48897(2)
Co3 Co 0.49558(4) 0.35272(2) 0.64597(2)
Co4 Co 0.24748(3) 0.06370(3) 0.59963(3)
Fe2 Fe 0.000000 0.000000 0.500000
N1 N 0.41468(19) 0.56609(14) 0.76865(15)
N2 N 0.33749(19) 0.02767(15) 0.54718(16)
N3 N 0.4410(2) 0.01888(14) 0.37149(15)
N4 N 0.2911(2) 0.42603(15) 0.82770(16)
N5 N 0.5493(2) 0.25851(15) 0.55937(16)
N6 N 0.5463(2) 0.12983(15) 0.51175(14)
N7 N 0.6404(2) 0.17642(15) 0.41091(15)
N8 N 0.7018(2) 0.19487(15) 0.52054(16)
N9 N 0.2805(2) 0.49421(16) 0.72543(17)
N10 N 0.6379(2) 0.29260(16) 0.45052(16)
N11 N 0.3322(2) 0.10530(18) 0.65528(17)
N12 N 0.1598(2) 0.02573(18) 0.55330(18)
N13 N 0.5014(2) 0.22604(15) 0.43024(15)
N14 N 0.29338(19) 0.54410(14) 0.83857(15)
N15 N 0.4374(3) 0.43727(15) 0.74019(17)
N16 N 0.6228(3) 0.30513(18) 0.7282(2)
N17 N 0.3675(3) 0.27505(18) 0.69820(18)
C1 C 0.4655(2) 0.01371(15) 0.41918(17)
C2 C 0.5734(3) 0.32384(18) 0.69861(18)
C3 C 0.5268(2) 0.08144(16) 0.50895(16)
C4 C 0.4213(3) 0.3796(2) 0.5880(2)
C5 C 0.3965(2) 0.61055(17) 0.80547(19)
N19 N 0.2566(2) 0.14361(18) 0.55641(18)
C6 C 0.3971(2) 0.01662(16) 0.52742(17)
C7 C 0.5279(3) 0.29399(18) 0.59180(18)
C8 C 0.2625(2) 0.50977(18) 0.88943(18)
H1 H 0.216117 0.528863 0.904907
H2 H 0.301099 0.508090 0.921382
C9 C 0.3432(3) 0.59511(17) 0.85673(19)
H3 H 0.373843 0.584872 0.891939
H4 H 0.310627 0.628753 0.866533
C10 C 0.5740(3) 0.15223(19) 0.37664(19)
H5 H 0.559193 0.114195 0.393042
H6 H 0.588796 0.146525 0.335151
C11 C 0.4430(3) 0.2663(2) 0.4350(2)
H7 H 0.440179 0.289108 0.469623
C12 C 0.2214(3) 0.5280(2) 0.7423(2)
C13 C 0.4179(3) 0.30199(18) 0.67821(18)
C14 C 0.1000(2) 0.0137(2) 0.5316(2)
C15 C 0.7369(3) 0.2187(2) 0.5686(2)
H8 H 0.709671 0.245578 0.592073
C16 C 0.4590(3) 0.5776(2) 0.7209(2)
H9 H 0.470039 0.547142 0.694266
C17 C 0.2759(3) 0.3719(2) 0.8056(2)
H10 H 0.308150 0.356624 0.776080
C18 C 0.4888(3) 0.6330(2) 0.7098(2)
H11 H 0.519015 0.640064 0.676109
C20 C 0.2427(3) 0.44820(19) 0.86888(19)
C21 C 0.0010(3) 0.0785(2) 0.4699(2)
N21 N 0.3768(4) 0.3929(2) 0.5522(2)
C22 C 0.3924(3) 0.2404(2) 0.3398(2)
H12 H 0.355387 0.244818 0.309415
C23 C 0.3271(3) 0.0080(2) 0.6997(2)
N22 N 0.0038(3) 0.1264(2) 0.4521(3)
C24 C 0.2307(3) 0.5644(2) 0.79796(19)
H13 H 0.241241 0.604908 0.786459
H14 H 0.181788 0.564046 0.819595
C25 C 0.4506(3) 0.2004(2) 0.3338(2)
H15 H 0.453720 0.177413 0.299385
C26 C 0.7408(3) 0.1562(2) 0.4865(2)
C27 C 0.3759(3) 0.1462(2) 0.6155(2)
H16 H 0.413645 0.124338 0.592137
H17 H 0.403751 0.175287 0.639436
C28 C 0.1793(3) 0.4172(2) 0.8902(2)
H18 H 0.146761 0.433605 0.918896
N23 N 0.1716(3) 0.1066(2) 0.6602(3)
C29 C 0.3881(3) 0.2745(2) 0.3910(2)
H19 H 0.348781 0.302420 0.395501
C30 C 0.6292(4) 0.3481(2) 0.4709(2)
H20 H 0.605506 0.353894 0.507774
C31 C 0.6959(3) 0.13151(19) 0.4333(2)
H21 H 0.731949 0.120810 0.401744
H22 H 0.667841 0.096283 0.445210
C32 C 0.2946(3) 0.1383(2) 0.7052(2)
H23 H 0.312530 0.121751 0.742971
H24 H 0.311694 0.179072 0.703728
C33 C 0.2751(4) 0.4635(2) 0.6742(2)
H25 H 0.317099 0.440059 0.663103
C34 C 0.5063(3) 0.19390(18) 0.37982(18)
C35 C 0.4255(3) 0.6667(2) 0.7974(2)
H26 H 0.413061 0.696712 0.824135
C36 C 0.3803(3) 0.0568(3) 0.6799(2)
H27 H 0.410948 0.070960 0.713714
H28 H 0.415691 0.042343 0.649572
C37 C 0.8126(4) 0.2041(3) 0.5841(3)
H29 H 0.835961 0.220327 0.618081
N24 N 0.6090(4) 0.4434(2) 0.5963(2)
C38 C 0.4621(3) 0.40767(18) 0.7033(2)
C39 C 0.3183(3) 0.1767(2) 0.5743(2)
C40 C 0.6727(3) 0.2844(2) 0.39807(19)
C41 C 0.6826(3) 0.2229(2) 0.3760(2)
H30 H 0.737808 0.213533 0.376327
H31 H 0.664733 0.221205 0.334634
C42 C 0.5688(3) 0.4083(2) 0.6151(2)
C43 C 0.4728(4) 0.6778(2) 0.7496(3)
H32 H 0.494047 0.715207 0.744115
C44 C 0.2032(3) 0.1688(3) 0.5201(3)
H33 H 0.159734 0.146886 0.508628
C46 C 0.2138(3) 0.3382(2) 0.8253(3)
H35 H 0.205118 0.300561 0.809933
C47 C 0.1527(4) 0.5308(4) 0.7077(3)
H36 H 0.110493 0.553450 0.719981
C48 C 0.8169(3) 0.1408(3) 0.4990(3)
H37 H 0.843152 0.114364 0.474406
C50 C 0.1655(3) 0.3614(3) 0.8679(3)
H39 H 0.123377 0.339460 0.881722
C51 C 0.6896(5) 0.3875(3) 0.3865(3)
H40 H 0.707646 0.419683 0.364720
C52 C 0.6539(5) 0.3960(3) 0.4396(3)
H41 H 0.646300 0.433901 0.454424
C53 C 0.2104(4) 0.2250(3) 0.4995(3)
H42 H 0.173725 0.240090 0.472690
C54 C 0.2124(5) 0.4649(3) 0.6381(3)
H43 H 0.211361 0.443294 0.602605
C56 C 0.2715(4) 0.2592(3) 0.5182(3)
H45 H 0.275924 0.298268 0.505903
C57 C 0.3270(4) 0.2339(3) 0.5564(2)
H46 H 0.369623 0.255890 0.569526
C58 C 0.6992(4) 0.3311(3) 0.3646(2)
H47 H 0.723184 0.324812 0.327860
C59 C 0.2080(4) 0.1370(4) 0.7039(4)
C61 C 0.8536(4) 0.1647(3) 0.5479(4)
H49 H 0.905047 0.154840 0.556944
C62 C 0.1494(5) 0.4988(4) 0.6545(4)
H50 H 0.105063 0.500279 0.630297
C63 C 0.0941(4) 0.1084(4) 0.6556(4)
H51 H 0.070601 0.088135 0.623926
C64 C 0.1662(5) 0.1635(5) 0.7483(5)
H52 H 0.191548 0.178394 0.782100
C65 C 0.0467(5) 0.1381(6) 0.6945(6)
C66 C 0.0841(6) 0.1683(6) 0.7427(6)
H54 H 0.055419 0.190628 0.769750
Co10 Co 0.36873(3) 0.01408(2) 0.29282(2)
N50 N 0.4410(2) 0.48112(14) 0.87149(15)
Fe1_2 Fe 0.500000 1.000000 0.500000
Fe2_2 Fe 0.000000 1.000000 0.500000
N18 N 0.0678(2) 0.9550(2) 0.3826(2)
N20 N 0.2634(3) 0.99970(18) 0.66553(19)
C19 C 0.0433(2) 0.9717(2) 0.4271(2)
C45 C 0.2124(4) 0.9573(2) 0.6800(3)
H34 H 0.167951 0.951464 0.656522
C49 C 0.3420(4) 0.9751(3) 0.7498(3)
H38 H 0.387103 0.981504 0.772323
C55 C 0.2258(5) 0.9215(3) 0.7305(4)
H44 H 0.191858 0.890806 0.739595
C60 C 0.2900(6) 0.9326(4) 0.7662(4)
H48 H 0.297810 0.911280 0.801409
H71 H 0.007201 0.861483 0.310251
Co6 Co 0.63127(3) 0.51408(2) 0.20718(2)
Co7 Co 0.40851(3) 0.78521(2) 0.51103(2)
Co8 Co 0.50442(4) 0.64728(2) 0.35403(2)
N33 N 0.58532(19) 0.43391(14) 0.23135(15)
N34 N 0.7089(2) 0.57397(15) 0.17230(16)
N35 N 0.4507(2) 0.74149(15) 0.44063(16)
N36 N 0.4537(2) 0.87017(15) 0.48825(14)
N37 N 0.3596(2) 0.82358(15) 0.58909(15)
N38 N 0.2982(2) 0.80513(15) 0.47946(16)
N39 N 0.7195(2) 0.50579(16) 0.27457(17)
N40 N 0.3621(2) 0.70740(16) 0.54948(16)
N41 N 0.4986(2) 0.77396(15) 0.56976(15)
N42 N 0.70662(19) 0.45590(14) 0.16143(15)
N43 N 0.5626(3) 0.56273(15) 0.25981(17)
N44 N 0.3772(3) 0.69487(18) 0.2718(2)
N45 N 0.6325(3) 0.72495(18) 0.30180(18)
C89 C 0.4266(3) 0.67616(18) 0.30139(18)
C90 C 0.4732(2) 0.91856(16) 0.49105(16)
C91 C 0.5787(3) 0.6204(2) 0.4120(2)
C92 C 0.6035(2) 0.38945(17) 0.19453(19)
C93 C 0.4721(3) 0.70601(18) 0.40820(18)
C94 C 0.7375(2) 0.49023(18) 0.11057(18)
H73 H 0.783883 0.471137 0.095093
H74 H 0.698901 0.491910 0.078618
C95 C 0.6568(3) 0.40489(17) 0.14327(19)
H75 H 0.626157 0.415128 0.108061
H76 H 0.689373 0.371247 0.133467
C96 C 0.4260(3) 0.84777(19) 0.62336(19)
H77 H 0.440807 0.885805 0.606958
H78 H 0.411204 0.853475 0.664849
C97 C 0.5570(3) 0.7337(2) 0.5650(2)
H79 H 0.559821 0.710892 0.530377
C98 C 0.7786(3) 0.4720(2) 0.2577(2)
C99 C 0.5821(3) 0.69801(18) 0.32179(18)
C100 C 0.2631(3) 0.7813(2) 0.4314(2)
H80 H 0.290329 0.754422 0.407927
C101 C 0.5410(3) 0.4224(2) 0.2791(2)
H81 H 0.529961 0.452858 0.305734
C102 C 0.7241(3) 0.6281(2) 0.1944(2)
H82 H 0.691850 0.643376 0.223920
C103 C 0.5112(3) 0.3670(2) 0.2902(2)
H83 H 0.480985 0.359936 0.323891
C104 C 0.7573(3) 0.55180(19) 0.13112(19)
N46 N 0.6232(4) 0.6071(2) 0.4478(2)
C105 C 0.6076(3) 0.7596(2) 0.6602(2)
H84 H 0.644613 0.755182 0.690585
C106 C 0.7693(3) 0.4356(2) 0.20204(19)
H85 H 0.758759 0.395092 0.213541
H86 H 0.818212 0.435954 0.180405
C107 C 0.5494(3) 0.7996(2) 0.6662(2)
H87 H 0.546280 0.822587 0.700615
C108 C 0.2592(3) 0.8438(2) 0.5135(2)
C109 C 0.8207(3) 0.5828(2) 0.1098(2)
H88 H 0.853239 0.566395 0.081104
C110 C 0.6119(3) 0.7255(2) 0.6090(2)
H89 H 0.651219 0.697580 0.604499
C111 C 0.3708(4) 0.6519(2) 0.5291(2)
H90 H 0.394494 0.646106 0.492226
C112 C 0.3041(3) 0.86849(19) 0.5667(2)
H91 H 0.268051 0.879190 0.598256
H92 H 0.332159 0.903717 0.554790
C113 C 0.7249(4) 0.5365(2) 0.3258(2)
H93 H 0.682901 0.559941 0.336897
C114 C 0.4937(3) 0.80610(18) 0.62018(18)
C115 C 0.5745(3) 0.3333(2) 0.2026(2)
H94 H 0.586939 0.303288 0.175865
C116 C 0.1874(4) 0.7959(3) 0.4159(3)
H95 H 0.164039 0.779673 0.381919
N47 N 0.3910(4) 0.5566(2) 0.4037(2)
C117 C 0.5379(3) 0.59233(18) 0.2967(2)
C118 C 0.3273(3) 0.7156(2) 0.60193(19)
C119 C 0.3174(3) 0.7771(2) 0.6240(2)
H96 H 0.262192 0.786467 0.623673
H97 H 0.335267 0.778795 0.665366
C120 C 0.4312(3) 0.5917(2) 0.3849(2)
C121 C 0.5272(4) 0.3222(2) 0.2504(3)
H98 H 0.505953 0.284793 0.255885
C122 C 0.7862(3) 0.6618(2) 0.1747(3)
H99 H 0.794882 0.699439 0.190067
C123 C 0.8473(4) 0.4692(4) 0.2923(3)
H100 H 0.889507 0.446550 0.280019
C124 C 0.1831(3) 0.8592(3) 0.5010(3)
H101 H 0.156848 0.885636 0.525594
C125 C 0.8345(3) 0.6386(3) 0.1321(3)
H102 H 0.876623 0.660540 0.118278
C126 C 0.3104(5) 0.6125(3) 0.6135(3)
H103 H 0.292354 0.580317 0.635280
C127 C 0.3461(5) 0.6040(3) 0.5604(3)
H104 H 0.353700 0.566099 0.545576
C128 C 0.7876(5) 0.5351(3) 0.3619(3)
H105 H 0.788639 0.556706 0.397395
C129 C 0.3008(4) 0.6689(3) 0.6354(2)
H106 H 0.276816 0.675188 0.672140
C130 C 0.1464(4) 0.8353(3) 0.4521(4)
H107 H 0.094953 0.845160 0.443056
C131 C 0.8506(5) 0.5012(4) 0.3455(4)
H108 H 0.894937 0.499721 0.369703
N48 N 0.5590(2) 0.98112(14) 0.62851(15)
C132 C 0.5345(2) 0.98629(15) 0.58082(17)
Co9 Co 0.63127(3) 0.98592(2) 0.70718(2)
N49 N 0.5590(2) 0.51888(14) 0.12851(15)
C133 C 0.6029(2) 0.98338(16) 0.47258(17)
Fe2_3 Fe 1.000000 0.000000 0.500000
H53 H 0.992799 0.138517 0.689749
N28 N 0.9322(2) 0.0450(2) 0.6174(2)
N30 N 0.7366(3) 0.00030(18) 0.33447(19)
C69 C 0.9567(2) 0.0283(2) 0.5729(2)
C77 C 0.7876(4) 0.0427(2) 0.3200(3)
H62 H 0.832049 0.048536 0.343478
C78 C 0.6580(4) 0.0249(3) 0.2502(3)
H63 H 0.612897 0.018496 0.227677
C80 C 0.7742(5) 0.0785(3) 0.2695(4)
H65 H 0.808142 0.109194 0.260405
C84 C 0.7100(6) 0.0674(4) 0.2338(4)
H68 H 0.702190 0.088720 0.198591
Fe2_4 Fe 1.000000 1.000000 0.500000
Co5 Co 0.75252(3) 0.93630(3) 0.40037(3)
N25 N 0.66251(19) 0.97233(15) 0.45282(16)
N26 N 0.6678(2) 0.89470(18) 0.34472(17)
N27 N 0.8402(2) 0.97427(18) 0.44670(18)
N29 N 0.7434(2) 0.85639(18) 0.44359(18)
C68 C 0.9000(2) 0.9863(2) 0.4684(2)
C70 C 0.9990(3) 0.9215(2) 0.5301(2)
C71 C 0.6729(3) 0.9920(2) 0.3003(2)
N31 N 0.9962(3) 0.8736(2) 0.5479(3)
C72 C 0.6241(3) 0.8538(2) 0.3845(2)
H55 H 0.586355 0.875662 0.407863
H56 H 0.596249 0.824713 0.360564
N32 N 0.8284(3) 0.8934(2) 0.3398(3)
C73 C 0.7054(3) 0.8617(2) 0.2948(2)
H57 H 0.687470 0.878249 0.257029
H58 H 0.688306 0.820928 0.296272
C74 C 0.6197(3) 0.9432(3) 0.3201(2)
H59 H 0.589052 0.929040 0.286286
H60 H 0.584309 0.957657 0.350428
C75 C 0.6817(3) 0.8233(2) 0.4257(2)
C76 C 0.7968(3) 0.8312(3) 0.4799(3)
H61 H 0.840266 0.853114 0.491372
C79 C 0.7896(4) 0.7750(3) 0.5005(3)
H64 H 0.826275 0.759910 0.527310
C81 C 0.7285(4) 0.7408(3) 0.4818(3)
H66 H 0.724076 0.701732 0.494097
C82 C 0.6730(4) 0.7661(3) 0.4436(2)
H67 H 0.630377 0.744110 0.430474
C83 C 0.7920(4) 0.8630(4) 0.2961(4)
C85 C 0.9059(4) 0.8916(4) 0.3444(4)
H69 H 0.929399 0.911865 0.376074
C86 C 0.8338(5) 0.8365(5) 0.2517(5)
H70 H 0.808452 0.821606 0.217900
C87 C 0.9533(5) 0.8619(6) 0.3055(6)
C88 C 0.9159(6) 0.8317(6) 0.2573(6)
H72 H 0.944581 0.809372 0.230250
Fe2_5 Fe -0.000000 0.500000 0.000000
Co5_2 Co 0.24748(3) 0.43630(3) 0.09963(3)
N25_2 N 0.33749(19) 0.47233(15) 0.04718(16)
N26_2 N 0.3322(2) 0.39470(18) 0.15528(17)
N27_2 N 0.1598(2) 0.47427(18) 0.05330(18)
N29_2 N 0.2566(2) 0.35639(18) 0.05641(18)
N30_2 N 0.2634(3) 0.50030(18) 0.16553(19)
C67 C 0.3971(2) 0.48338(16) 0.02742(17)
C68_2 C 0.1000(2) 0.4863(2) 0.0316(2)
C71_2 C 0.3271(3) 0.4920(2) 0.1997(2)
C72_2 C 0.3759(3) 0.3538(2) 0.1155(2)
H55_2 H 0.413645 0.375662 0.092137
H56_2 H 0.403751 0.324713 0.139436
N32_2 N 0.1716(3) 0.3934(2) 0.1602(3)
C73_2 C 0.2946(3) 0.3617(2) 0.2052(2)
H57_2 H 0.312530 0.378249 0.242971
H58_2 H 0.311694 0.320928 0.203728
C74_2 C 0.3803(3) 0.4432(3) 0.1799(2)
H59_2 H 0.410948 0.429040 0.213714
H60_2 H 0.415691 0.457657 0.149572
C75_2 C 0.3183(3) 0.3233(2) 0.0743(2)
C76_2 C 0.2032(3) 0.3312(3) 0.0201(3)
H61_2 H 0.159734 0.353114 0.008628
C77_2 C 0.2124(4) 0.5427(2) 0.1800(3)
H62_2 H 0.167951 0.548536 0.156522
C78_2 C 0.3420(4) 0.5249(3) 0.2498(3)
H63_2 H 0.387103 0.518496 0.272323
C80_2 C 0.2258(5) 0.5785(3) 0.2305(4)
H65_2 H 0.191858 0.609194 0.239595
C81_2 C 0.2715(4) 0.2408(3) 0.0182(3)
H66_2 H 0.275924 0.201732 0.005903
C82_2 C 0.3270(4) 0.2661(3) 0.0564(2)
H67_2 H 0.369623 0.244110 0.069526
C83_2 C 0.2080(4) 0.3630(4) 0.2039(4)
C84_2 C 0.2900(6) 0.5674(4) 0.2662(4)
H68_2 H 0.297810 0.588720 0.301409
C85_2 C 0.0941(4) 0.3916(4) 0.1556(4)
H69_2 H 0.070601 0.411865 0.123926
C86_2 C 0.1662(5) 0.3365(5) 0.2483(5)
H70_2 H 0.191548 0.321606 0.282100
C87_2 C 0.0467(5) 0.3619(6) 0.1945(6)
C88_2 C 0.0841(6) 0.3317(6) 0.2427(6)
H72_2 H 0.055419 0.309372 0.269750
Fe3 Fe 0.500000 0.500000 0.000000
Fe2_6 Fe 0.000000 0.500000 1.000000
H53_2 H 0.007201 0.638517 0.810251
N28_2 N 0.0678(2) 0.5450(2) 0.8826(2)
C69_2 C 0.0433(2) 0.5283(2) 0.9271(2)
C70_2 C 0.0010(3) 0.4215(2) 0.9699(2)
N31_2 N 0.0038(3) 0.3736(2) 0.9521(3)
C79_2 C 0.2104(4) 0.2750(3) 0.9995(3)
H64_2 H 0.173725 0.259910 0.972690
Fe3_2 Fe 0.500000 0.500000 1.000000
Co2_2 Co 0.40851(3) 0.71479(2) 0.01103(2)
Fe2_7 Fe 1.000000 0.500000 0.000000
N7_2 N 0.3596(2) 0.67642(15) 0.08909(15)
N10_2 N 0.3621(2) 0.79260(16) 0.04948(16)
N13_2 N 0.4986(2) 0.72604(15) 0.06976(15)
C1_2 C 0.5345(2) 0.51371(15) 0.08082(17)
N18_2 N 0.9322(2) 0.4550(2) 0.1174(2)
C10_2 C 0.4260(3) 0.65223(19) 0.12336(19)
H5_2 H 0.440807 0.614195 0.106958
H6_2 H 0.411204 0.646525 0.164849
C11_2 C 0.5570(3) 0.7663(2) 0.0650(2)
H7_2 H 0.559821 0.789108 0.030377
C19_2 C 0.9567(2) 0.4717(2) 0.0729(2)
C21_2 C 0.9990(3) 0.5785(2) 0.0301(2)
C22_2 C 0.6076(3) 0.7404(2) 0.1602(2)
H12_2 H 0.644613 0.744818 0.190585
N22_2 N 0.9962(3) 0.6264(2) 0.0479(3)
C25_2 C 0.5494(3) 0.7004(2) 0.1662(2)
H15_2 H 0.546280 0.677413 0.200615
C26_2 C 0.2592(3) 0.6562(2) 0.0135(2)
C29_2 C 0.6119(3) 0.7745(2) 0.1090(2)
H19_2 H 0.651219 0.802420 0.104499
C30_2 C 0.3708(4) 0.8481(2) 0.0291(2)
C31_2 C 0.3041(3) 0.63151(19) 0.0667(2)
H21_2 H 0.268051 0.620810 0.098256
H22_2 H 0.332159 0.596283 0.054790
C34_2 C 0.4937(3) 0.69390(18) 0.12018(18)
C40_2 C 0.3273(3) 0.7844(2) 0.10193(19)
C41_2 C 0.3174(3) 0.7229(2) 0.1240(2)
H30_2 H 0.262192 0.713533 0.123673
H31_2 H 0.335267 0.721205 0.165366
C48_2 C 0.1831(3) 0.6408(3) 0.0010(3)
H37_2 H 0.156848 0.614364 0.025594
C51_2 C 0.3104(5) 0.8875(3) 0.1135(3)
H40_2 H 0.292354 0.919683 0.135280
C52_2 C 0.3461(5) 0.8960(3) 0.0604(3)
H41_2 H 0.353700 0.933901 0.045576
C53_2 C 0.7896(4) 0.7250(3) 0.0005(3)
H42_2 H 0.826275 0.740090 0.027310
C58_2 C 0.3008(4) 0.8311(3) 0.1354(2)
H47_2 H 0.276816 0.824812 0.172140
H71_2 H 0.992799 0.361483 0.189749
Co8_2 Co 0.49558(4) 0.14728(2) 0.14597(2)
N34_2 N 0.2911(2) 0.07397(15) 0.32770(16)
N35_2 N 0.5493(2) 0.24149(15) 0.05937(16)
N36_2 N 0.5463(2) 0.37017(15) 0.01175(14)
N38_2 N 0.7018(2) 0.30513(15) 0.02054(16)
N39_2 N 0.2805(2) 0.00579(16) 0.22543(17)
N43_2 N 0.4374(3) 0.06273(15) 0.24019(17)
N44_2 N 0.6228(3) 0.19487(18) 0.2282(2)
N45_2 N 0.3675(3) 0.22495(18) 0.19820(18)
C89_2 C 0.5734(3) 0.17616(18) 0.19861(18)
C90_2 C 0.5268(2) 0.41856(16) 0.00895(16)
C91_2 C 0.4213(3) 0.1204(2) 0.0880(2)
C93_2 C 0.5279(3) 0.20601(18) 0.09180(18)
C99_2 C 0.4179(3) 0.19801(18) 0.17821(18)
C100_2 C 0.7369(3) 0.2813(2) 0.0686(2)
H80_2 H 0.709671 0.254422 0.092073
C102_2 C 0.2759(3) 0.1281(2) 0.3056(2)
H82_2 H 0.308150 0.143376 0.276080
C104_2 C 0.2427(3) 0.05180(19) 0.36888(19)
N46_2 N 0.3768(4) 0.1071(2) 0.0522(2)
C109_2 C 0.1793(3) 0.0828(2) 0.3902(2)
H88_2 H 0.146761 0.066395 0.418896
H90_2 H 0.605506 0.146106 0.007774
C113_2 C 0.2751(4) 0.0365(2) 0.1742(2)
H93_2 H 0.317099 0.059941 0.163103
C116_2 C 0.8126(4) 0.2959(3) 0.0841(3)
H95_2 H 0.835961 0.279673 0.118081
N47_2 N 0.6090(4) 0.0566(2) 0.0963(2)
C117_2 C 0.4621(3) 0.09233(18) 0.2033(2)
C120_2 C 0.5688(3) 0.0917(2) 0.1151(2)
C122_2 C 0.2138(3) 0.1618(2) 0.3253(3)
H99_2 H 0.205118 0.199439 0.309933
C125_2 C 0.1655(3) 0.1386(3) 0.3679(3)
H102_2 H 0.123377 0.160540 0.381722
C128_2 C 0.2124(5) 0.0351(3) 0.1381(3)
H105_2 H 0.211361 0.056706 0.102605
C130_2 C 0.8536(4) 0.3353(3) 0.0479(4)
H107_2 H 0.905047 0.345160 0.056944
C131_2 C 0.1494(5) 0.0012(4) 0.1545(4)
Co3_2 Co 0.50442(4) 0.85272(2) 0.85403(2)
Co4_2 Co 0.75252(3) 0.56370(3) 0.90037(3)
Fe2_8 Fe 1.000000 0.500000 1.000000
N2_2 N 0.66251(19) 0.52767(15) 0.95282(16)
N4_2 N 0.7089(2) 0.92603(15) 0.67230(16)
N5_2 N 0.4507(2) 0.75851(15) 0.94063(16)
N6_2 N 0.4537(2) 0.62983(15) 0.98825(14)
N8_2 N 0.2982(2) 0.69487(15) 0.97946(16)
N9_2 N 0.7195(2) 0.99421(16) 0.77457(17)
N11_2 N 0.6678(2) 0.60530(18) 0.84472(17)
N12_2 N 0.8402(2) 0.52573(18) 0.94670(18)
N15_2 N 0.5626(3) 0.93727(15) 0.75981(17)
N16_2 N 0.3772(3) 0.80513(18) 0.7718(2)
N17_2 N 0.6325(3) 0.77505(18) 0.80180(18)
C2_2 C 0.4266(3) 0.82384(18) 0.80139(18)
C3_2 C 0.4732(2) 0.58144(16) 0.99105(16)
C4_2 C 0.5787(3) 0.8796(2) 0.9120(2)
N19_2 N 0.7434(2) 0.64361(18) 0.94359(18)
N20_2 N 0.7366(3) 0.49970(18) 0.83447(19)
C6_2 C 0.6029(2) 0.51662(16) 0.97258(17)
C7_2 C 0.4721(3) 0.79399(18) 0.90820(18)
C13_2 C 0.5821(3) 0.80199(18) 0.82179(18)
C14_2 C 0.9000(2) 0.5137(2) 0.9684(2)
C15_2 C 0.2631(3) 0.7187(2) 0.9314(2)
H8_2 H 0.290329 0.745578 0.907927
C17_2 C 0.7241(3) 0.8719(2) 0.6944(2)
H10_2 H 0.691850 0.856624 0.723920
C20_2 C 0.7573(3) 0.94820(19) 0.63112(19)
N21_2 N 0.6232(4) 0.8929(2) 0.9478(2)
C23_2 C 0.6729(3) 0.5080(2) 0.8003(2)
C27_2 C 0.6241(3) 0.6462(2) 0.8845(2)
H16_2 H 0.586355 0.624338 0.907863
H17_2 H 0.596249 0.675287 0.860564
C28_2 C 0.8207(3) 0.9172(2) 0.6098(2)
H18_2 H 0.853239 0.933605 0.581104
N23_2 N 0.8284(3) 0.6066(2) 0.8398(3)
H20_2 H 0.394494 0.853894 0.992226
C32_2 C 0.7054(3) 0.6383(2) 0.7948(2)
H23_2 H 0.687470 0.621751 0.757029
H24_2 H 0.688306 0.679072 0.796272
C33_2 C 0.7249(4) 0.9635(2) 0.8258(2)
H25_2 H 0.682901 0.940059 0.836897
C36_2 C 0.6197(3) 0.5568(3) 0.8201(2)
H27_2 H 0.589052 0.570960 0.786286
H28_2 H 0.584309 0.542343 0.850428
C37_2 C 0.1874(4) 0.7041(3) 0.9159(3)
H29_2 H 0.164039 0.720327 0.881919
N24_2 N 0.3910(4) 0.9434(2) 0.9037(2)
C38_2 C 0.5379(3) 0.90767(18) 0.7967(2)
C39_2 C 0.6817(3) 0.6767(2) 0.9257(2)
C42_2 C 0.4312(3) 0.9083(2) 0.8849(2)
C44_2 C 0.7968(3) 0.6688(3) 0.9799(3)
H33_2 H 0.840266 0.646886 0.991372
C45_2 C 0.7876(4) 0.4573(2) 0.8200(3)
H34_2 H 0.832049 0.451464 0.843478
C46_2 C 0.7862(3) 0.8382(2) 0.6747(3)
H35_2 H 0.794882 0.800561 0.690067
C49_2 C 0.6580(4) 0.4751(3) 0.7502(3)
H38_2 H 0.612897 0.481504 0.727677
C50_2 C 0.8345(3) 0.8614(3) 0.6321(3)
H39_2 H 0.876623 0.839460 0.618278
C54_2 C 0.7876(5) 0.9649(3) 0.8619(3)
H43_2 H 0.788639 0.943294 0.897395
C55_2 C 0.7742(5) 0.4215(3) 0.7695(4)
H44_2 H 0.808142 0.390806 0.760405
C56_2 C 0.7285(4) 0.7592(3) 0.9818(3)
H45_2 H 0.724076 0.798268 0.994097
C57_2 C 0.6730(4) 0.7339(3) 0.9436(2)
H46_2 H 0.630377 0.755890 0.930474
C59_2 C 0.7920(4) 0.6370(4) 0.7961(4)
C60_2 C 0.7100(6) 0.4326(4) 0.7338(4)
H48_2 H 0.702190 0.411280 0.698591
C61_2 C 0.1464(4) 0.6647(3) 0.9521(4)
H49_2 H 0.094953 0.654840 0.943056
C62_2 C 0.8506(5) 0.9988(4) 0.8455(4)
C63_2 C 0.9059(4) 0.6084(4) 0.8444(4)
H51_2 H 0.929399 0.588135 0.876074
C64_2 C 0.8338(5) 0.6635(5) 0.7517(5)
H52_2 H 0.808452 0.678394 0.717900
C65_2 C 0.9533(5) 0.6381(6) 0.8055(6)
C66_2 C 0.9159(6) 0.6683(6) 0.7573(6)
H54_2 H 0.944581 0.690628 0.730250
Co7_2 Co 0.59149(3) 0.28521(2) 0.98897(2)
N37_2 N 0.6404(2) 0.32358(15) 0.91091(15)
N40_2 N 0.6379(2) 0.20740(16) 0.95052(16)
N41_2 N 0.5014(2) 0.27396(15) 0.93024(15)
C96_2 C 0.5740(3) 0.34777(19) 0.87664(19)
H77_2 H 0.559193 0.385805 0.893042
H78_2 H 0.588796 0.353475 0.835151
C97_2 C 0.4430(3) 0.2337(2) 0.9350(2)
H79_2 H 0.440179 0.210892 0.969623
C105_2 C 0.3924(3) 0.2596(2) 0.8398(2)
H84_2 H 0.355387 0.255182 0.809415
C107_2 C 0.4506(3) 0.2996(2) 0.8338(2)
H87_2 H 0.453720 0.322587 0.799385
C108_2 C 0.7408(3) 0.3438(2) 0.9865(2)
C110_2 C 0.3881(3) 0.2255(2) 0.8910(2)
H89_2 H 0.348781 0.197580 0.895501
C111_2 C 0.6292(4) 0.1519(2) 0.9709(2)
C112_2 C 0.6959(3) 0.36849(19) 0.9333(2)
H91_2 H 0.731949 0.379190 0.901744
H92_2 H 0.667841 0.403717 0.945210
C114_2 C 0.5063(3) 0.30610(18) 0.87982(18)
C118_2 C 0.6727(3) 0.2156(2) 0.89807(19)
C119_2 C 0.6826(3) 0.2771(2) 0.8760(2)
H96_2 H 0.737808 0.286467 0.876327
H97_2 H 0.664733 0.278795 0.834634
C124_2 C 0.8169(3) 0.3592(3) 0.9990(3)
H101_2 H 0.843152 0.385636 0.974406
C126_2 C 0.6896(5) 0.1125(3) 0.8865(3)
H103_2 H 0.707646 0.080317 0.864720
C127_2 C 0.6539(5) 0.1040(3) 0.9396(3)
H104_2 H 0.646300 0.066099 0.954424
C129_2 C 0.6992(4) 0.1689(3) 0.8646(2)
H106_2 H 0.723184 0.175188 0.827860
C132_2 C 0.4655(2) 0.48629(15) 0.91918(17)
N1_2 N 0.58532(19) 0.06609(14) 0.73135(15)
N14_2 N 0.70662(19) 0.04410(14) 0.66143(15)
C5_2 C 0.6035(2) 0.11055(17) 0.69453(19)
C8_2 C 0.7375(2) 0.00977(18) 0.61057(18)
H1_2 H 0.783883 0.028863 0.595093
H2_2 H 0.698901 0.008090 0.578618
C9_2 C 0.6568(3) 0.09511(17) 0.64327(19)
H3_2 H 0.626157 0.084872 0.608061
H4_2 H 0.689373 0.128753 0.633467
C12_2 C 0.7786(3) 0.0280(2) 0.7577(2)
C16_2 C 0.5410(3) 0.0776(2) 0.7791(2)
H9_2 H 0.529961 0.047142 0.805734
C18_2 C 0.5112(3) 0.1330(2) 0.7902(2)
H11_2 H 0.480985 0.140064 0.823891
C24_2 C 0.7693(3) 0.0644(2) 0.70204(19)
H13_2 H 0.758759 0.104908 0.713541
H14_2 H 0.818212 0.064046 0.680405
C35_2 C 0.5745(3) 0.1667(2) 0.7026(2)
H26_2 H 0.586939 0.196712 0.675865
C43_2 C 0.5272(4) 0.1778(2) 0.7504(3)
H32_2 H 0.505953 0.215207 0.755885
C47_2 C 0.8473(4) 0.0308(4) 0.7923(3)
H36_2 H 0.889507 0.053450 0.780019
H50_2 H 0.894937 0.000279 0.869703
N33_2 N 0.41468(19) 0.93391(14) 0.26865(15)
N42_2 N 0.29338(19) 0.95590(14) 0.33857(15)
C92_2 C 0.3965(2) 0.88945(17) 0.30547(19)
C94_2 C 0.2625(2) 0.99023(18) 0.38943(18)
H73_2 H 0.216117 0.971137 0.404907
H74_2 H 0.301099 0.991910 0.421382
C95_2 C 0.3432(3) 0.90489(17) 0.35673(19)
H75_2 H 0.373843 0.915128 0.391939
H76_2 H 0.310627 0.871247 0.366533
C98_2 C 0.2214(3) 0.9720(2) 0.2423(2)
C101_2 C 0.4590(3) 0.9224(2) 0.2209(2)
H81_2 H 0.470039 0.952858 0.194266
C103_2 C 0.4888(3) 0.8670(2) 0.2098(2)
H83_2 H 0.519015 0.859936 0.176109
C106_2 C 0.2307(3) 0.9356(2) 0.29796(19)
H85_2 H 0.241241 0.895092 0.286459
H86_2 H 0.181788 0.935954 0.319595
C115_2 C 0.4255(3) 0.8333(2) 0.2974(2)
H94_2 H 0.413061 0.803288 0.324135
C121_2 C 0.4728(4) 0.8222(2) 0.2496(3)
H98_2 H 0.494047 0.784793 0.244115
C123_2 C 0.1527(4) 0.9692(4) 0.2077(3)
H100_2 H 0.110493 0.946550 0.219981
H108_2 H 0.105063 0.999721 0.130297
loop_
_geom_bond_atom_site_label_1
_geom_bond_atom_site_label_2
_geom_bond_site_symmetry_1
_geom_bond_site_symmetry_2
Fe1 C1 1_555 1_555
Co1 N1 1_555 1_555
Co2 N5 1_555 1_555
Co3 C2 1_555 1_555
Co4 N2 1_555 1_555
Fe2 C14 1_555 1_555
N1 C5 1_555 1_555
N2 C6 1_555 1_555
N3 C1 1_555 1_555
N4 Co1 1_555 1_555
N5 C7 1_555 1_555
N6 Co2 1_555 1_555
N7 Co2 1_555 1_555
N8 Co2 1_555 1_555
N9 Co1 1_555 1_555
N10 Co2 1_555 1_555
N11 Co4 1_555 1_555
N12 Co4 1_555 1_555
N13 Co2 1_555 1_555
N14 Co1 1_555 1_555
N15 Co1 1_555 1_555
N16 C2 1_555 1_555
N17 C13 1_555 1_555
C3 Fe1 1_555 1_555
C4 Co3 1_555 1_555
C5 C9 1_555 1_555
N19 Co4 1_555 1_555
C6 Fe1 1_555 1_555
C7 Co3 1_555 1_555
C8 N14 1_555 1_555
H1 C8 1_555 1_555
H2 C8 1_555 1_555
C9 N14 1_555 1_555
H3 C9 1_555 1_555
H4 C9 1_555 1_555
C10 N7 1_555 1_555
H5 C10 1_555 1_555
H6 C10 1_555 1_555
C11 N13 1_555 1_555
H7 C11 1_555 1_555
C12 N9 1_555 1_555
C13 Co3 1_555 1_555
C14 N12 1_555 1_555
C15 N8 1_555 1_555
H8 C15 1_555 1_555
C16 N1 1_555 1_555
H9 C16 1_555 1_555
C17 N4 1_555 1_555
H10 C17 1_555 1_555
C18 C16 1_555 1_555
H11 C18 1_555 1_555
C20 N4 1_555 1_555
C21 Fe2 1_555 1_555
N21 C4 1_555 1_555
C22 H12 1_555 1_555
N22 C21 1_555 1_555
C24 N14 1_555 1_555
H13 C24 1_555 1_555
H14 C24 1_555 1_555
C25 C22 1_555 1_555
H15 C25 1_555 1_555
C26 N8 1_555 1_555
C27 N11 1_555 1_555
H16 C27 1_555 1_555
H17 C27 1_555 1_555
C28 C20 1_555 1_555
H18 C28 1_555 1_555
N23 Co4 1_555 1_555
C29 C11 1_555 1_555
H19 C29 1_555 1_555
C30 N10 1_555 1_555
H20 C30 1_555 1_555
C31 N7 1_555 1_555
H21 C31 1_555 1_555
H22 C31 1_555 1_555
C32 N11 1_555 1_555
H23 C32 1_555 1_555
H24 C32 1_555 1_555
C33 N9 1_555 1_555
H25 C33 1_555 1_555
C34 N13 1_555 1_555
C35 C5 1_555 1_555
H26 C35 1_555 1_555
C36 N11 1_555 1_555
H27 C36 1_555 1_555
H28 C36 1_555 1_555
C37 C15 1_555 1_555
H29 C37 1_555 1_555
N24 C42 1_555 1_555
C38 Co3 1_555 1_555
C39 N19 1_555 1_555
C40 N10 1_555 1_555
C41 N7 1_555 1_555
H30 C41 1_555 1_555
H31 C41 1_555 1_555
C42 Co3 1_555 1_555
C43 C18 1_555 1_555
H32 C43 1_555 1_555
C44 N19 1_555 1_555
H33 C44 1_555 1_555
C46 C17 1_555 1_555
H35 C46 1_555 1_555
C47 C12 1_555 1_555
H36 C47 1_555 1_555
C48 C26 1_555 1_555
H37 C48 1_555 1_555
C50 C28 1_555 1_555
H39 C50 1_555 1_555
C51 H40 1_555 1_555
C52 C30 1_555 1_555
H41 C52 1_555 1_555
C53 C44 1_555 1_555
H42 C53 1_555 1_555
C54 C33 1_555 1_555
H43 C54 1_555 1_555
C56 C53 1_555 1_555
H45 C56 1_555 1_555
C57 C39 1_555 1_555
H46 C57 1_555 1_555
C58 C40 1_555 1_555
H47 C58 1_555 1_555
C59 N23 1_555 1_555
C61 C37 1_555 1_555
H49 C61 1_555 1_555
C62 C47 1_555 1_555
H50 C62 1_555 1_555
C63 N23 1_555 1_555
H51 C63 1_555 1_555
C64 C59 1_555 1_555
H52 C64 1_555 1_555
C65 C63 1_555 1_555
C66 C64 1_555 1_555
H54 C66 1_555 1_555
Co10 N3 1_555 1_555
N50 Co1 1_555 1_555
N6 C3 1_555 1_555
N15 C38 1_555 1_555
C8 C20 1_555 1_555
C10 C34 1_555 1_555
C12 C24 1_555 1_555
C22 C29 1_555 1_555
C23 C36 1_555 1_555
C25 C34 1_555 1_555
C26 C31 1_555 1_555
C27 C39 1_555 1_555
C32 C59 1_555 1_555
C35 C43 1_555 1_555
C40 C41 1_555 1_555
C46 C50 1_555 1_555
C48 C61 1_555 1_555
C51 C52 1_555 1_555
C51 C58 1_555 1_555
C54 C62 1_555 1_555
C56 C57 1_555 1_555
C65 C66 1_555 1_555
N18 C19 1_555 1_555
C19 Fe2_2 1_555 1_555
C45 N20 1_555 1_555
H34 C45 1_555 1_555
H38 C49 1_555 1_555
C55 C45 1_555 1_555
H44 C55 1_555 1_555
C60 C49 1_555 1_555
H48 C60 1_555 1_555
Co6 N33 1_555 1_555
Co7 N35 1_555 1_555
Co8 C89 1_555 1_555
N33 C92 1_555 1_555
N34 Co6 1_555 1_555
N35 C93 1_555 1_555
N36 Co7 1_555 1_555
N37 Co7 1_555 1_555
N38 Co7 1_555 1_555
N39 Co6 1_555 1_555
N40 Co7 1_555 1_555
N41 Co7 1_555 1_555
N42 Co6 1_555 1_555
N43 Co6 1_555 1_555
N44 C89 1_555 1_555
N45 C99 1_555 1_555
C90 Fe1_2 1_555 1_555
C91 Co8 1_555 1_555
C92 C95 1_555 1_555
C93 Co8 1_555 1_555
C94 N42 1_555 1_555
H73 C94 1_555 1_555
H74 C94 1_555 1_555
C95 N42 1_555 1_555
H75 C95 1_555 1_555
H76 C95 1_555 1_555
C96 N37 1_555 1_555
H77 C96 1_555 1_555
H78 C96 1_555 1_555
C97 N41 1_555 1_555
H79 C97 1_555 1_555
C98 N39 1_555 1_555
C99 Co8 1_555 1_555
C100 N38 1_555 1_555
H80 C100 1_555 1_555
C101 N33 1_555 1_555
H81 C101 1_555 1_555
C102 N34 1_555 1_555
H82 C102 1_555 1_555
C103 C101 1_555 1_555
H83 C103 1_555 1_555
C104 N34 1_555 1_555
N46 C91 1_555 1_555
C105 H84 1_555 1_555
C106 N42 1_555 1_555
H85 C106 1_555 1_555
H86 C106 1_555 1_555
C107 C105 1_555 1_555
H87 C107 1_555 1_555
C108 N38 1_555 1_555
C109 C104 1_555 1_555
H88 C109 1_555 1_555
C110 C97 1_555 1_555
H89 C110 1_555 1_555
C111 N40 1_555 1_555
H90 C111 1_555 1_555
C112 N37 1_555 1_555
H91 C112 1_555 1_555
H92 C112 1_555 1_555
C113 N39 1_555 1_555
H93 C113 1_555 1_555
C114 N41 1_555 1_555
C115 C92 1_555 1_555
H94 C115 1_555 1_555
C116 C100 1_555 1_555
H95 C116 1_555 1_555
N47 C120 1_555 1_555
C117 Co8 1_555 1_555
C118 N40 1_555 1_555
C119 N37 1_555 1_555
H96 C119 1_555 1_555
H97 C119 1_555 1_555
C120 Co8 1_555 1_555
C121 C103 1_555 1_555
H98 C121 1_555 1_555
C122 C102 1_555 1_555
H99 C122 1_555 1_555
C123 C98 1_555 1_555
H100 C123 1_555 1_555
C124 C108 1_555 1_555
H101 C124 1_555 1_555
C125 C109 1_555 1_555
H102 C125 1_555 1_555
C126 H103 1_555 1_555
C127 C111 1_555 1_555
H104 C127 1_555 1_555
C128 C113 1_555 1_555
H105 C128 1_555 1_555
C129 C118 1_555 1_555
H106 C129 1_555 1_555
C130 C116 1_555 1_555
H107 C130 1_555 1_555
C131 C123 1_555 1_555
H108 C131 1_555 1_555
N48 C132 1_555 1_555
C132 Fe1_2 1_555 1_555
Co9 N48 1_555 1_555
N49 Co6 1_555 1_555
C133 Fe1_2 1_555 1_555
C55 C60 1_555 1_555
N36 C90 1_555 1_555
N43 C117 1_555 1_555
C94 C104 1_555 1_555
C96 C114 1_555 1_555
C98 C106 1_555 1_555
C105 C110 1_555 1_555
C107 C114 1_555 1_555
C108 C112 1_555 1_555
C115 C121 1_555 1_555
C118 C119 1_555 1_555
C122 C125 1_555 1_555
C124 C130 1_555 1_555
C126 C127 1_555 1_555
C126 C129 1_555 1_555
C128 C131 1_555 1_555
N28 C69 1_555 1_555
C69 Fe2_3 1_555 1_555
C77 N30 1_555 1_555
H62 C77 1_555 1_555
H63 C78 1_555 1_555
C80 C77 1_555 1_555
H65 C80 1_555 1_555
C84 C78 1_555 1_555
H68 C84 1_555 1_555
C80 C84 1_555 1_555
Co5 N25 1_555 1_555
N25 C133 1_555 1_555
N26 Co5 1_555 1_555
N27 Co5 1_555 1_555
N29 Co5 1_555 1_555
C68 Fe2_4 1_555 1_555
C70 Fe2_4 1_555 1_555
N31 C70 1_555 1_555
C72 N26 1_555 1_555
H55 C72 1_555 1_555
H56 C72 1_555 1_555
N32 Co5 1_555 1_555
C73 N26 1_555 1_555
H57 C73 1_555 1_555
H58 C73 1_555 1_555
C74 N26 1_555 1_555
H59 C74 1_555 1_555
H60 C74 1_555 1_555
C75 N29 1_555 1_555
C76 N29 1_555 1_555
H61 C76 1_555 1_555
C79 C76 1_555 1_555
H64 C79 1_555 1_555
C81 C79 1_555 1_555
H66 C81 1_555 1_555
C82 C75 1_555 1_555
H67 C82 1_555 1_555
C83 N32 1_555 1_555
C85 N32 1_555 1_555
H69 C85 1_555 1_555
C86 C83 1_555 1_555
H70 C86 1_555 1_555
C87 C85 1_555 1_555
C88 C86 1_555 1_555
H72 C88 1_555 1_555
N27 C68 1_555 1_555
C71 C74 1_555 1_555
C72 C75 1_555 1_555
C73 C83 1_555 1_555
C81 C82 1_555 1_555
C87 C88 1_555 1_555
Co5_2 N25_2 1_555 1_555
N25_2 C67 1_555 1_555
N26_2 Co5_2 1_555 1_555
N27_2 Co5_2 1_555 1_555
N29_2 Co5_2 1_555 1_555
N30_2 Co5_2 1_555 1_555
C67 Fe3 1_555 1_555
C68_2 Fe2_5 1_555 1_555
C71_2 N30_2 1_555 1_555
C72_2 N26_2 1_555 1_555
H55_2 C72_2 1_555 1_555
H56_2 C72_2 1_555 1_555
N32_2 Co5_2 1_555 1_555
C73_2 N26_2 1_555 1_555
H57_2 C73_2 1_555 1_555
H58_2 C73_2 1_555 1_555
C74_2 N26_2 1_555 1_555
H59_2 C74_2 1_555 1_555
H60_2 C74_2 1_555 1_555
C75_2 N29_2 1_555 1_555
C76_2 N29_2 1_555 1_555
H61_2 C76_2 1_555 1_555
C77_2 N30_2 1_555 1_555
H62_2 C77_2 1_555 1_555
C78_2 C71_2 1_555 1_555
H63_2 C78_2 1_555 1_555
C80_2 C77_2 1_555 1_555
H65_2 C80_2 1_555 1_555
H66_2 C81_2 1_555 1_555
C82_2 C75_2 1_555 1_555
H67_2 C82_2 1_555 1_555
C83_2 N32_2 1_555 1_555
C84_2 C78_2 1_555 1_555
H68_2 C84_2 1_555 1_555
C85_2 N32_2 1_555 1_555
H69_2 C85_2 1_555 1_555
C86_2 C83_2 1_555 1_555
H70_2 C86_2 1_555 1_555
C87_2 C85_2 1_555 1_555
C88_2 C86_2 1_555 1_555
H72_2 C88_2 1_555 1_555
N27_2 C68_2 1_555 1_555
C71_2 C74_2 1_555 1_555
C72_2 C75_2 1_555 1_555
C73_2 C83_2 1_555 1_555
C80_2 C84_2 1_555 1_555
C81_2 C82_2 1_555 1_555
C87_2 C88_2 1_555 1_555
N28_2 C69_2 1_555 1_555
C69_2 Fe2_6 1_555 1_555
C70_2 Fe2_6 1_555 1_555
N31_2 C70_2 1_555 1_555
H64_2 C79_2 1_555 1_555
Fe3 C1_2 1_555 1_555
N49 C1_2 1_555 1_555
N7_2 Co2_2 1_555 1_555
N10_2 Co2_2 1_555 1_555
N13_2 Co2_2 1_555 1_555
N18_2 C19_2 1_555 1_555
C10_2 N7_2 1_555 1_555
H5_2 C10_2 1_555 1_555
H6_2 C10_2 1_555 1_555
C11_2 N13_2 1_555 1_555
H7_2 C11_2 1_555 1_555
C19_2 Fe2_7 1_555 1_555
C21_2 Fe2_7 1_555 1_555
C22_2 H12_2 1_555 1_555
N22_2 C21_2 1_555 1_555
C25_2 C22_2 1_555 1_555
H15_2 C25_2 1_555 1_555
C29_2 C11_2 1_555 1_555
H19_2 C29_2 1_555 1_555
C30_2 N10_2 1_555 1_555
C31_2 N7_2 1_555 1_555
H21_2 C31_2 1_555 1_555
H22_2 C31_2 1_555 1_555
C34_2 N13_2 1_555 1_555
C40_2 N10_2 1_555 1_555
C41_2 N7_2 1_555 1_555
H30_2 C41_2 1_555 1_555
H31_2 C41_2 1_555 1_555
C48_2 C26_2 1_555 1_555
H37_2 C48_2 1_555 1_555
C51_2 H40_2 1_555 1_555
C52_2 C30_2 1_555 1_555
H41_2 C52_2 1_555 1_555
H42_2 C53_2 1_555 1_555
C58_2 C40_2 1_555 1_555
H47_2 C58_2 1_555 1_555
Co8_2 C89_2 1_555 1_555
N34_2 Co10 1_555 1_555
N35_2 C93_2 1_555 1_555
N39_2 Co10 1_555 1_555
N43_2 Co10 1_555 1_555
N44_2 C89_2 1_555 1_555
N45_2 C99_2 1_555 1_555
C90_2 Fe3 1_555 1_555
C91_2 Co8_2 1_555 1_555
C93_2 Co8_2 1_555 1_555
C99_2 Co8_2 1_555 1_555
C100_2 N38_2 1_555 1_555
H80_2 C100_2 1_555 1_555
C102_2 N34_2 1_555 1_555
H82_2 C102_2 1_555 1_555
C104_2 N34_2 1_555 1_555
N46_2 C91_2 1_555 1_555
C109_2 C104_2 1_555 1_555
H88_2 C109_2 1_555 1_555
C113_2 N39_2 1_555 1_555
H93_2 C113_2 1_555 1_555
C116_2 C100_2 1_555 1_555
H95_2 C116_2 1_555 1_555
N47_2 C120_2 1_555 1_555
C117_2 Co8_2 1_555 1_555
C120_2 Co8_2 1_555 1_555
C122_2 C102_2 1_555 1_555
H99_2 C122_2 1_555 1_555
C125_2 C109_2 1_555 1_555
H102_2 C125_2 1_555 1_555
C128_2 C113_2 1_555 1_555
H105_2 C128_2 1_555 1_555
C130_2 C116_2 1_555 1_555
H107_2 C130_2 1_555 1_555
C10_2 C34_2 1_555 1_555
C22_2 C29_2 1_555 1_555
C25_2 C34_2 1_555 1_555
C26_2 C31_2 1_555 1_555
C40_2 C41_2 1_555 1_555
C51_2 C52_2 1_555 1_555
C51_2 C58_2 1_555 1_555
N36_2 C90_2 1_555 1_555
N43_2 C117_2 1_555 1_555
C122_2 C125_2 1_555 1_555
C128_2 C131_2 1_555 1_555
Co3_2 C2_2 1_555 1_555
Co4_2 N2_2 1_555 1_555
Fe2_8 C14_2 1_555 1_555
N2_2 C6_2 1_555 1_555
N4_2 Co9 1_555 1_555
N5_2 C7_2 1_555 1_555
N9_2 Co9 1_555 1_555
N11_2 Co4_2 1_555 1_555
N12_2 Co4_2 1_555 1_555
N15_2 Co9 1_555 1_555
N16_2 C2_2 1_555 1_555
N17_2 C13_2 1_555 1_555
C3_2 Fe3_2 1_555 1_555
C4_2 Co3_2 1_555 1_555
N19_2 Co4_2 1_555 1_555
N20_2 Co4_2 1_555 1_555
C6_2 Fe3_2 1_555 1_555
C7_2 Co3_2 1_555 1_555
C13_2 Co3_2 1_555 1_555
C14_2 N12_2 1_555 1_555
C15_2 N8_2 1_555 1_555
H8_2 C15_2 1_555 1_555
C17_2 N4_2 1_555 1_555
H10_2 C17_2 1_555 1_555
C20_2 N4_2 1_555 1_555
N21_2 C4_2 1_555 1_555
C23_2 N20_2 1_555 1_555
C27_2 N11_2 1_555 1_555
H16_2 C27_2 1_555 1_555
H17_2 C27_2 1_555 1_555
C28_2 C20_2 1_555 1_555
H18_2 C28_2 1_555 1_555
N23_2 Co4_2 1_555 1_555
C32_2 N11_2 1_555 1_555
H23_2 C32_2 1_555 1_555
H24_2 C32_2 1_555 1_555
C33_2 N9_2 1_555 1_555
H25_2 C33_2 1_555 1_555
C36_2 N11_2 1_555 1_555
H27_2 C36_2 1_555 1_555
H28_2 C36_2 1_555 1_555
C37_2 C15_2 1_555 1_555
H29_2 C37_2 1_555 1_555
N24_2 C42_2 1_555 1_555
C38_2 Co3_2 1_555 1_555
C39_2 N19_2 1_555 1_555
C42_2 Co3_2 1_555 1_555
C44_2 N19_2 1_555 1_555
H33_2 C44_2 1_555 1_555
C45_2 N20_2 1_555 1_555
H34_2 C45_2 1_555 1_555
C46_2 C17_2 1_555 1_555
H35_2 C46_2 1_555 1_555
C49_2 C23_2 1_555 1_555
H38_2 C49_2 1_555 1_555
C50_2 C28_2 1_555 1_555
H39_2 C50_2 1_555 1_555
C54_2 C33_2 1_555 1_555
H43_2 C54_2 1_555 1_555
C55_2 C45_2 1_555 1_555
H44_2 C55_2 1_555 1_555
H45_2 C56_2 1_555 1_555
C57_2 C39_2 1_555 1_555
H46_2 C57_2 1_555 1_555
C59_2 N23_2 1_555 1_555
C60_2 C49_2 1_555 1_555
H48_2 C60_2 1_555 1_555
C61_2 C37_2 1_555 1_555
H49_2 C61_2 1_555 1_555
C63_2 N23_2 1_555 1_555
H51_2 C63_2 1_555 1_555
C64_2 C59_2 1_555 1_555
H52_2 C64_2 1_555 1_555
C65_2 C63_2 1_555 1_555
C66_2 C64_2 1_555 1_555
H54_2 C66_2 1_555 1_555
N37_2 Co7_2 1_555 1_555
N40_2 Co7_2 1_555 1_555
N41_2 Co7_2 1_555 1_555
C96_2 N37_2 1_555 1_555
H77_2 C96_2 1_555 1_555
H78_2 C96_2 1_555 1_555
C97_2 N41_2 1_555 1_555
H79_2 C97_2 1_555 1_555
C105_2 H84_2 1_555 1_555
C107_2 C105_2 1_555 1_555
H87_2 C107_2 1_555 1_555
C110_2 C97_2 1_555 1_555
H89_2 C110_2 1_555 1_555
C111_2 N40_2 1_555 1_555
C112_2 N37_2 1_555 1_555
H91_2 C112_2 1_555 1_555
H92_2 C112_2 1_555 1_555
C114_2 N41_2 1_555 1_555
C118_2 N40_2 1_555 1_555
C119_2 N37_2 1_555 1_555
H96_2 C119_2 1_555 1_555
H97_2 C119_2 1_555 1_555
C124_2 C108_2 1_555 1_555
H101_2 C124_2 1_555 1_555
C126_2 H103_2 1_555 1_555
C127_2 C111_2 1_555 1_555
H104_2 C127_2 1_555 1_555
C129_2 C118_2 1_555 1_555
H106_2 C129_2 1_555 1_555
N50 C132_2 1_555 1_555
C132_2 Fe3_2 1_555 1_555
N6_2 C3_2 1_555 1_555
N15_2 C38_2 1_555 1_555
C23_2 C36_2 1_555 1_555
C27_2 C39_2 1_555 1_555
C32_2 C59_2 1_555 1_555
C46_2 C50_2 1_555 1_555
C54_2 C62_2 1_555 1_555
C55_2 C60_2 1_555 1_555
C56_2 C57_2 1_555 1_555
C65_2 C66_2 1_555 1_555
C96_2 C114_2 1_555 1_555
C105_2 C110_2 1_555 1_555
C107_2 C114_2 1_555 1_555
C108_2 C112_2 1_555 1_555
C118_2 C119_2 1_555 1_555
C126_2 C127_2 1_555 1_555
C126_2 C129_2 1_555 1_555
N1_2 C5_2 1_555 1_555
C5_2 C9_2 1_555 1_555
C8_2 N14_2 1_555 1_555
H1_2 C8_2 1_555 1_555
H2_2 C8_2 1_555 1_555
C9_2 N14_2 1_555 1_555
H3_2 C9_2 1_555 1_555
H4_2 C9_2 1_555 1_555
C16_2 N1_2 1_555 1_555
H9_2 C16_2 1_555 1_555
C18_2 C16_2 1_555 1_555
H11_2 C18_2 1_555 1_555
C24_2 N14_2 1_555 1_555
H13_2 C24_2 1_555 1_555
H14_2 C24_2 1_555 1_555
C35_2 C5_2 1_555 1_555
H26_2 C35_2 1_555 1_555
C43_2 C18_2 1_555 1_555
H32_2 C43_2 1_555 1_555
C47_2 C12_2 1_555 1_555
H36_2 C47_2 1_555 1_555
C12_2 C24_2 1_555 1_555
C35_2 C43_2 1_555 1_555
N33_2 C92_2 1_555 1_555
C92_2 C95_2 1_555 1_555
C94_2 N42_2 1_555 1_555
H73_2 C94_2 1_555 1_555
H74_2 C94_2 1_555 1_555
C95_2 N42_2 1_555 1_555
H75_2 C95_2 1_555 1_555
H76_2 C95_2 1_555 1_555
C101_2 N33_2 1_555 1_555
H81_2 C101_2 1_555 1_555
C103_2 C101_2 1_555 1_555
H83_2 C103_2 1_555 1_555
C106_2 N42_2 1_555 1_555
H85_2 C106_2 1_555 1_555
H86_2 C106_2 1_555 1_555
C115_2 C92_2 1_555 1_555
H94_2 C115_2 1_555 1_555
C121_2 C103_2 1_555 1_555
H98_2 C121_2 1_555 1_555
C123_2 C98_2 1_555 1_555
H100_2 C123_2 1_555 1_555
C98_2 C106_2 1_555 1_555
C115_2 C121_2 1_555 1_555

#END
