
###############################################################################
#
# This file contains modified crystal structure data generated from the
# MOF subset of the Cambridge Structural Database (CSD) v543 
# hosted by the Cambridge Crystallographic Data Centre (CCDC).
#
# This work is licensed under the Creative Commons
# Attribution-NonCommercial-ShareAlike 4.0 International License.
# To view a copy of this license, visit
# http://creativecommons.org/licenses/by-nc-sa/4.0/
# or send a letter to
# Creative Commons, PO Box 1866, Mountain View, CA 94042, USA.
#
# CIF created using the CSD Python API on 29 September 2022
# The structure has been converted into the P1 space group
# The structure has a 3D framework
# The original CSD entry JELLAR05 is in the monoclinic crystal system
# The framework has been calculated to contain at least 10.0% void space
# The void calculation uses a probe of radius 1.32A, grid spacing 0.4
#
###############################################################################

data_JELLAR05
_chemical_formula_moiety         '(C264 H218 Co16 Fe14 N96)n'
_symmetry_cell_setting           triclinic
_symmetry_space_group_name_H-M   'P 1'
_symmetry_Int_Tables_number      1
_space_group_name_Hall           'P 1'
loop_
_symmetry_equiv_pos_site_id
_symmetry_equiv_pos_as_xyz
1 x,y,z
_cell_length_a                   17.3504(9)
_cell_length_b                   23.4126(12)
_cell_length_c                   22.7892(13)
_cell_angle_alpha                90
_cell_angle_beta                 90.943(5)
_cell_angle_gamma                90
_cell_volume                     9256.13
loop_
_atom_site_label
_atom_site_type_symbol
_atom_site_fract_x
_atom_site_fract_y
_atom_site_fract_z
Fe1 Fe 0.000000 0.500000 0.500000
N23 N 0.0720(2) 0.5450(2) 0.6142(2)
H45 H 0.009741 0.634964 0.695426
C65 C 0.0454(2) 0.5274(2) 0.5710(2)
N47 N 0.0061(3) 0.3785(2) 0.5473(3)
C131 C 0.0023(3) 0.4242(2) 0.5302(3)
C133 C 0.0981(2) 0.48669(19) 0.4685(2)
Co5 Co 0.59006(3) 0.20982(2) 0.00433(2)
N25 N 0.6352(3) 0.28828(15) 0.04478(16)
N26 N 0.4994(2) 0.22230(15) 0.06148(15)
N27 N 0.6403(2) 0.17595(14) 0.08493(15)
C70 C 0.8149(3) 0.1363(3) 0.0051(3)
H58 H 0.840379 0.111323 0.030577
C71 C 0.7392(3) 0.1525(2) 0.0144(3)
C72 C 0.6938(3) 0.1308(2) 0.0655(3)
H59 H 0.728548 0.120411 0.097545
H60 H 0.664848 0.097036 0.053949
C73 C 0.6223(4) 0.3419(2) 0.0266(3)
C74 C 0.6391(4) 0.3886(3) 0.0596(3)
H62 H 0.631440 0.425129 0.044607
C75 C 0.6674(4) 0.3809(3) 0.1148(3)
H63 H 0.677574 0.412168 0.138822
C76 C 0.6809(4) 0.3259(2) 0.1350(3)
H64 H 0.699983 0.319827 0.172896
C77 C 0.6659(4) 0.2809(2) 0.0988(2)
C78 C 0.6828(4) 0.2212(2) 0.1179(2)
H65 H 0.670713 0.217780 0.159153
H66 H 0.737658 0.214394 0.114128
C79 C 0.5738(3) 0.1546(2) 0.11849(19)
H67 H 0.557827 0.117684 0.103178
H68 H 0.588871 0.149674 0.159353
C80 C 0.5077(3) 0.1959(2) 0.11396(19)
C81 C 0.4586(3) 0.2066(2) 0.1587(2)
H69 H 0.464399 0.187649 0.194413
C82 C 0.4008(3) 0.2454(2) 0.1505(2)
H70 H 0.367266 0.253358 0.180910
C83 C 0.3918(3) 0.2731(2) 0.0972(2)
H71 H 0.352435 0.299490 0.091054
C84 C 0.4423(3) 0.2604(2) 0.0539(2)
H72 H 0.437046 0.278811 0.017941
Co2 Co 0.49879(3) 0.65971(2) 0.15604(2)
C1 C 0.2609(3) 0.7899(3) 0.0673(3)
H1 H 0.286551 0.764460 0.092128
Co3 Co 0.62110(3) 0.52220(2) 0.29669(2)
Fe1_2 Fe 1.000000 0.500000 0.500000
C2 C 0.1862(3) 0.8042(3) 0.0786(3)
H2 H 0.161362 0.788332 0.110584
Co4 Co 0.75648(3) 0.56030(3) 0.59739(3)
Fe2 Fe 0.500000 0.500000 0.500000
C3 C 0.1490(3) 0.8413(3) 0.0434(3)
H3 H 0.098658 0.851991 0.051673
N4 N 0.2982(2) 0.81153(15) 0.02117(16)
N5 N 0.4495(2) 0.75002(15) 0.06834(15)
N6 N 0.6196(4) 0.6223(2) 0.0681(2)
N7 N 0.3790(4) 0.5786(2) 0.1046(3)
H7 H 0.399282 0.652583 0.010630
N8 N 0.3746(3) 0.70408(19) 0.23808(19)
N9 N 0.6243(3) 0.7358(2) 0.20998(19)
N10 N 0.5521(2) 0.57145(15) 0.24463(15)
N11 N 0.57884(19) 0.44031(13) 0.27348(15)
N12 N 0.70313(19) 0.46462(15) 0.34078(14)
N13 N 0.70286(19) 0.58038(15) 0.33242(16)
N14 N 0.7092(2) 0.51329(16) 0.22862(16)
N15 N 0.55152(19) 0.52403(13) 0.37482(14)
N16 N 0.45460(19) 0.62491(13) 0.51662(14)
N17 N 0.66317(17) 0.52512(15) 0.54486(15)
N18 N 0.7400(2) 0.49754(18) 0.66397(17)
N19 N 0.67346(19) 0.60130(17) 0.65486(16)
C19 C 0.4685(2) 0.71645(16) 0.10218(17)
C20 C 0.4215(3) 0.68701(17) 0.20778(18)
N20 N 0.7440(2) 0.64166(18) 0.55783(18)
C21 C 0.4244(3) 0.6094(2) 0.1232(2)
N21 N 0.84395(19) 0.52388(17) 0.55183(18)
C22 C 0.5733(3) 0.6346(2) 0.1012(2)
N22 N 0.9939(3) 0.6215(2) 0.4527(3)
C23 C 0.5754(3) 0.70831(18) 0.18935(18)
C24 C 0.5295(2) 0.60369(16) 0.21043(17)
C25 C 0.6567(3) 0.41438(19) 0.3582(2)
H19 H 0.626933 0.423641 0.392536
H20 H 0.690675 0.382766 0.368085
C26 C 0.6034(3) 0.3974(2) 0.3084(2)
C27 C 0.5799(3) 0.3414(2) 0.2982(2)
H21 H 0.596498 0.312117 0.322869
C28 C 0.5322(3) 0.3300(2) 0.2516(2)
H22 H 0.516045 0.292810 0.244192
C29 C 0.5085(3) 0.3726(2) 0.2163(3)
H23 H 0.475967 0.365192 0.184376
C30 C 0.5328(3) 0.4275(2) 0.2280(2)
H24 H 0.516458 0.456819 0.203147
C31 C 0.7644(4) 0.4468(3) 0.2994(3)
H25 H 0.813682 0.447231 0.320135
H26 H 0.754466 0.407751 0.287143
C32 C 0.7705(4) 0.4830(3) 0.2463(3)
C33 C 0.8369(4) 0.4830(3) 0.2155(3)
H27 H 0.880563 0.464155 0.229693
C34 C 0.8380(4) 0.5124(4) 0.1616(3)
H28 H 0.881322 0.510870 0.138209
C35 C 0.7749(4) 0.5429(4) 0.1441(3)
H29 H 0.774685 0.563078 0.108894
C36 C 0.7128(4) 0.5433(4) 0.1790(3)
H30 H 0.670524 0.565539 0.167890
C37 C 0.7345(3) 0.4982(2) 0.3905(2)
H31 H 0.780471 0.479779 0.406207
H32 H 0.696795 0.500013 0.421435
C38 C 0.7535(3) 0.5568(2) 0.3707(2)
C39 C 0.8189(3) 0.5852(2) 0.3896(3)
H33 H 0.853802 0.567925 0.415465
C40 C 0.8313(3) 0.6399(2) 0.3694(3)
H34 H 0.874211 0.660437 0.382329
C41 C 0.7802(3) 0.6636(2) 0.3304(3)
H35 H 0.788251 0.700310 0.316150
C42 C 0.7171(3) 0.6330(2) 0.3125(3)
H36 H 0.682935 0.649226 0.285436
C43 C 0.53038(18) 0.51644(14) 0.42179(15)
C44 C 0.6023(2) 0.51520(14) 0.52694(15)
C45 C 0.47323(19) 0.57832(15) 0.51164(14)
C46 C 0.6265(4) 0.5539(3) 0.6777(3)
H37 H 0.590068 0.541321 0.647597
H38 H 0.597474 0.566972 0.711138
C47 C 0.6772(4) 0.5051(3) 0.6957(3)
C48 C 0.6613(4) 0.4698(3) 0.7434(3)
H39 H 0.618011 0.475605 0.766151
C49 C 0.7121(4) 0.4259(3) 0.7555(3)
H40 H 0.702087 0.400727 0.785961
C50 C 0.7745(4) 0.4194(3) 0.7244(3)
H41 H 0.809264 0.390426 0.733861
C51 C 0.7888(4) 0.4553(3) 0.6779(3)
H42 H 0.832922 0.450059 0.655882
C52 C 0.79621(16) 0.6346(3) 0.7017(2)
C53 C 0.8391(2) 0.6659(3) 0.7425(2)
H43 H 0.814332 0.686679 0.771340
C54 C 0.9191(2) 0.6660(3) 0.7401(3)
H44 H 0.947861 0.686921 0.767421
C55 C 0.95621(16) 0.6349(3) 0.6970(3)
C56 C 0.91329(18) 0.6036(3) 0.6562(2)
H46 H 0.938092 0.582764 0.627350
N24 N 0.83328(18) 0.6034(2) 0.65856(19)
C57 C 0.7134(4) 0.6320(4) 0.7039(4)
H47 H 0.693764 0.670754 0.704994
H48 H 0.699415 0.613711 0.740421
C58 C 0.6310(3) 0.6419(2) 0.6172(2)
H49 H 0.603103 0.668736 0.641349
H50 H 0.593806 0.621428 0.592836
C59 C 0.6857(4) 0.6733(3) 0.5793(3)
C60 C 0.6787(4) 0.7305(3) 0.5675(3)
H51 H 0.638181 0.751435 0.582887
C61 C 0.7322(4) 0.7565(3) 0.5327(3)
H52 H 0.728489 0.795286 0.524299
C62 C 0.7915(4) 0.7244(3) 0.5104(3)
H53 H 0.828228 0.741185 0.486652
C63 C 0.7958(4) 0.6672(3) 0.5237(3)
H54 H 0.835773 0.645614 0.508461
C64 C 0.9019(2) 0.51331(19) 0.5315(2)
C66 C 0.9977(3) 0.5758(2) 0.4698(3)
Co6 Co 0.50121(3) 0.34029(2) 0.84396(2)
C67 C 0.7391(3) 0.2101(3) 0.9327(3)
H55 H 0.713449 0.235540 0.907872
Co7 Co 0.37890(3) 0.47780(2) 0.70331(2)
C68 C 0.8138(3) 0.1958(3) 0.9214(3)
H56 H 0.838638 0.211668 0.889416
Co8 Co 0.24352(3) 0.43970(3) 0.40261(3)
C69 C 0.8510(3) 0.1587(3) 0.9566(3)
H57 H 0.901342 0.148009 0.948327
N28 N 0.7018(2) 0.18847(15) 0.97883(16)
N29 N 0.5505(2) 0.24998(15) 0.93166(15)
N30 N 0.3804(4) 0.3777(2) 0.9319(2)
N31 N 0.6210(4) 0.4214(2) 0.8954(3)
H61 H 0.600718 0.347417 0.989370
N32 N 0.6254(3) 0.29592(19) 0.76192(19)
N33 N 0.3757(3) 0.2642(2) 0.79002(19)
N34 N 0.4479(2) 0.42855(15) 0.75537(15)
N35 N 0.42116(19) 0.55969(13) 0.72652(15)
N36 N 0.29687(19) 0.53538(15) 0.65922(14)
N37 N 0.29714(19) 0.41962(15) 0.66758(16)
N38 N 0.2908(2) 0.48671(16) 0.77138(16)
N39 N 0.44848(19) 0.47597(13) 0.62518(14)
N40 N 0.54540(19) 0.37509(13) 0.48338(14)
N41 N 0.33683(17) 0.47488(15) 0.45514(15)
N42 N 0.2600(2) 0.50246(18) 0.33603(17)
N43 N 0.32654(19) 0.39870(17) 0.34514(16)
C85 C 0.5315(2) 0.28355(16) 0.89782(17)
C86 C 0.5785(3) 0.31299(17) 0.79222(18)
N44 N 0.2560(2) 0.35834(18) 0.44217(18)
C87 C 0.5756(3) 0.3906(2) 0.8768(2)
N45 N 0.15605(19) 0.47612(17) 0.44817(18)
C88 C 0.4267(3) 0.3654(2) 0.8988(2)
C89 C 0.4246(3) 0.29169(18) 0.81065(18)
C90 C 0.4705(2) 0.39631(16) 0.78957(17)
C91 C 0.3433(3) 0.58562(19) 0.6418(2)
H73 H 0.373067 0.576359 0.607464
H74 H 0.309325 0.617234 0.631915
C92 C 0.3966(3) 0.6026(2) 0.6916(2)
C93 C 0.4201(3) 0.6586(2) 0.7018(2)
H75 H 0.403502 0.687883 0.677131
C94 C 0.4678(3) 0.6700(2) 0.7484(2)
H76 H 0.483955 0.707190 0.755808
C95 C 0.4915(3) 0.6274(2) 0.7837(3)
H77 H 0.524033 0.634808 0.815624
C96 C 0.4672(3) 0.5725(2) 0.7720(2)
H78 H 0.483542 0.543181 0.796853
C97 C 0.2356(4) 0.5532(3) 0.7006(3)
H79 H 0.186318 0.552769 0.679865
H80 H 0.245534 0.592249 0.712857
C98 C 0.2295(4) 0.5170(3) 0.7537(3)
C99 C 0.1631(4) 0.5170(3) 0.7845(3)
H81 H 0.119437 0.535845 0.770307
C100 C 0.1620(4) 0.4876(4) 0.8384(3)
H82 H 0.118678 0.489130 0.861791
C101 C 0.2251(4) 0.4571(4) 0.8559(3)
H83 H 0.225315 0.436922 0.891106
C102 C 0.2872(4) 0.4567(4) 0.8210(3)
H84 H 0.329476 0.434461 0.832110
C103 C 0.2655(3) 0.5018(2) 0.6095(2)
H85 H 0.219529 0.520221 0.593793
H86 H 0.303205 0.499987 0.578565
C104 C 0.2465(3) 0.4432(2) 0.6293(2)
C105 C 0.1811(3) 0.4148(2) 0.6104(3)
H87 H 0.146198 0.432075 0.584535
C106 C 0.1687(3) 0.3601(2) 0.6306(3)
H88 H 0.125789 0.339563 0.617671
C107 C 0.2198(3) 0.3364(2) 0.6696(3)
H89 H 0.211749 0.299690 0.683850
C108 C 0.2829(3) 0.3670(2) 0.6875(3)
H90 H 0.317065 0.350774 0.714564
C109 C 0.46962(18) 0.48356(14) 0.57821(15)
C110 C 0.3977(2) 0.48480(14) 0.47306(15)
C111 C 0.52677(19) 0.42168(15) 0.48836(14)
C112 C 0.3735(4) 0.4461(3) 0.3223(3)
H91 H 0.409932 0.458679 0.352403
H92 H 0.402526 0.433028 0.288862
C113 C 0.3228(4) 0.4949(3) 0.3043(3)
C114 C 0.3387(4) 0.5302(3) 0.2566(3)
H93 H 0.381989 0.524395 0.233849
C115 C 0.2879(4) 0.5741(3) 0.2445(3)
H94 H 0.297913 0.599273 0.214039
C116 C 0.2255(4) 0.5806(3) 0.2756(3)
H95 H 0.190736 0.609574 0.266139
C117 C 0.2112(4) 0.5447(3) 0.3221(3)
H96 H 0.167078 0.549941 0.344118
C118 C 0.20379(16) 0.3654(3) 0.2983(2)
C119 C 0.1609(2) 0.3341(3) 0.2575(2)
H97 H 0.185668 0.313321 0.228660
C120 C 0.0809(2) 0.3340(3) 0.2599(3)
H98 H 0.052139 0.313079 0.232579
C121 C 0.04379(16) 0.3651(3) 0.3030(3)
C122 C 0.08671(18) 0.3964(3) 0.3438(2)
H100 H 0.061908 0.417236 0.372650
N46 N 0.16672(18) 0.3966(2) 0.34144(19)
C123 C 0.2866(4) 0.3680(4) 0.2961(4)
H101 H 0.306236 0.329246 0.295006
H102 H 0.300585 0.386289 0.259579
C124 C 0.3690(3) 0.3581(2) 0.3828(2)
H103 H 0.396897 0.331264 0.358651
H104 H 0.406194 0.378572 0.407164
C125 C 0.3143(4) 0.3267(3) 0.4207(3)
C126 C 0.3213(4) 0.2695(3) 0.4325(3)
H105 H 0.361819 0.248565 0.417113
C127 C 0.2678(4) 0.2435(3) 0.4673(3)
H106 H 0.271511 0.204714 0.475701
C128 C 0.2085(4) 0.2756(3) 0.4896(3)
H107 H 0.171772 0.258815 0.513348
C129 C 0.2042(4) 0.3328(3) 0.4763(3)
H108 H 0.164227 0.354386 0.491539
N48 N 0.9280(2) 0.4550(2) 0.3858(2)
C132 C 0.9546(2) 0.4726(2) 0.4290(2)
Co9 Co 0.59006(3) 0.29018(2) 0.50433(2)
Co10 Co 0.40994(3) 0.70982(2) 0.49567(2)
N49 N 0.54540(19) 0.12491(13) 0.98338(14)
N50 N 0.45460(19) 0.87509(13) 0.01662(14)
Co1 Co 0.40994(3) 0.79018(2) 0.99567(2)
N1 N 0.3648(3) 0.71172(15) 0.95522(16)
N2 N 0.5006(2) 0.77770(15) 0.93852(15)
N3 N 0.3597(2) 0.82405(14) 0.91507(15)
C4 C 0.1851(3) 0.8637(3) 0.9949(3)
H4 H 0.159621 0.888677 0.969423
C5 C 0.2608(3) 0.8475(2) 0.9856(3)
C6 C 0.3062(3) 0.8692(2) 0.9345(3)
H5 H 0.271452 0.879589 0.902455
H6 H 0.335152 0.902964 0.946051
C7 C 0.3777(4) 0.6581(2) 0.9734(3)
C8 C 0.3609(4) 0.6114(3) 0.9404(3)
H8 H 0.368560 0.574871 0.955393
C9 C 0.3326(4) 0.6191(3) 0.8852(3)
H9 H 0.322426 0.587832 0.861178
C10 C 0.3191(4) 0.6741(2) 0.8650(3)
H10 H 0.300017 0.680173 0.827104
C11 C 0.3341(4) 0.7191(2) 0.9012(2)
C12 C 0.3172(4) 0.7788(2) 0.8821(2)
H11 H 0.329287 0.782220 0.840847
H12 H 0.262342 0.785606 0.885872
C13 C 0.4262(3) 0.8454(2) 0.88151(19)
H13 H 0.442173 0.882316 0.896822
H14 H 0.411129 0.850326 0.840647
C14 C 0.4923(3) 0.8041(2) 0.88604(19)
C15 C 0.5414(3) 0.7934(2) 0.8413(2)
H15 H 0.535601 0.812351 0.805587
C16 C 0.5992(3) 0.7546(2) 0.8495(2)
H16 H 0.632734 0.746642 0.819090
C17 C 0.6082(3) 0.7269(2) 0.9028(2)
H17 H 0.647565 0.700510 0.908946
C18 C 0.5577(3) 0.7396(2) 0.9461(2)
H18 H 0.562954 0.721189 0.982059
H99 H 0.990259 0.365036 0.304574
Fe3 Fe -0.000000 -0.000000 0.000000
Fe3_2 Fe 0.000000 -0.000000 1.000000
H99_2 H 0.009741 0.865036 0.195426
Fe3_3 Fe -0.000000 1.000000 0.000000
Fe3_4 Fe 0.000000 1.000000 1.000000
Co2_2 Co 0.50121(3) 0.15971(2) 0.34396(2)
N1_2 N 0.6352(3) 0.21172(15) 0.54478(16)
C1_2 C 0.7391(3) 0.2899(3) 0.4327(3)
H1_2 H 0.713449 0.264460 0.407872
Co3_2 Co 0.37890(3) 0.02220(2) 0.20331(2)
N2_2 N 0.4994(2) 0.27770(15) 0.56148(15)
C2_2 C 0.8138(3) 0.3042(3) 0.4214(3)
H2_2 H 0.838638 0.288332 0.389416
Fe2_2 Fe 0.500000 -0.000000 0.000000
N3_2 N 0.6403(2) 0.32405(14) 0.58493(15)
C3_2 C 0.8510(3) 0.3413(3) 0.4566(3)
H3_2 H 0.901342 0.351991 0.448327
N4_2 N 0.7018(2) 0.31153(15) 0.47883(16)
C4_2 C 0.8149(3) 0.3637(3) 0.5051(3)
H4_2 H 0.840379 0.388677 0.530577
N5_2 N 0.5505(2) 0.25002(15) 0.43166(15)
C5_2 C 0.7392(3) 0.3475(2) 0.5144(3)
N6_2 N 0.3804(4) 0.1223(2) 0.4319(2)
C6_2 C 0.6938(3) 0.3692(2) 0.5655(3)
H5_2 H 0.728548 0.379589 0.597545
H6_2 H 0.664848 0.402964 0.553949
N7_2 N 0.6210(4) 0.0786(2) 0.3954(3)
C7_2 C 0.6223(4) 0.1581(2) 0.5266(3)
H7_2 H 0.600718 0.152583 0.489370
N8_2 N 0.6254(3) 0.20408(19) 0.26192(19)
C8_2 C 0.6391(4) 0.1114(3) 0.5596(3)
H8_2 H 0.631440 0.074871 0.544607
N9_2 N 0.3757(3) 0.2358(2) 0.29002(19)
C9_2 C 0.6674(4) 0.1191(3) 0.6148(3)
H9_2 H 0.677574 0.087832 0.638822
N10_2 N 0.4479(2) 0.07145(15) 0.25537(15)
C10_2 C 0.6809(4) 0.1741(2) 0.6350(3)
H10_2 H 0.699983 0.180173 0.672896
C11_2 C 0.6659(4) 0.2191(2) 0.5988(2)
C12_2 C 0.6828(4) 0.2788(2) 0.6179(2)
H11_2 H 0.670713 0.282220 0.659153
H12_2 H 0.737658 0.285606 0.614128
N13_2 N 0.29714(19) 0.08038(15) 0.16758(16)
C13_2 C 0.5738(3) 0.3454(2) 0.61849(19)
H13_2 H 0.557827 0.382316 0.603178
H14_2 H 0.588871 0.350326 0.659353
N14_2 N 0.2908(2) 0.01329(16) 0.27138(16)
C14_2 C 0.5077(3) 0.3041(2) 0.61396(19)
N15_2 N 0.44848(19) 0.02403(13) 0.12518(14)
C15_2 C 0.4586(3) 0.2934(2) 0.6587(2)
H15_2 H 0.464399 0.312351 0.694413
C16_2 C 0.4008(3) 0.2546(2) 0.6505(2)
H16_2 H 0.367266 0.246642 0.680910
C17_2 C 0.3918(3) 0.2269(2) 0.5972(2)
H17_2 H 0.352435 0.200510 0.591054
C18_2 C 0.4423(3) 0.2396(2) 0.5539(2)
H18_2 H 0.437046 0.221189 0.517941
C19_2 C 0.5315(2) 0.21645(16) 0.39782(17)
C20_2 C 0.5785(3) 0.18701(17) 0.29222(18)
C21_2 C 0.5756(3) 0.1094(2) 0.3768(2)
C22_2 C 0.4267(3) 0.1346(2) 0.3988(2)
N22_2 N 0.0061(3) 0.1215(2) 0.0473(3)
C23_2 C 0.4246(3) 0.20831(18) 0.31065(18)
C24_2 C 0.4705(2) 0.10369(16) 0.28957(17)
C34_2 C 0.1620(4) 0.0124(4) 0.3384(3)
H28_2 H 0.118678 0.010870 0.361791
C35_2 C 0.2251(4) 0.0429(4) 0.3559(3)
H29_2 H 0.225315 0.063078 0.391106
C36_2 C 0.2872(4) 0.0433(4) 0.3210(3)
H30_2 H 0.329476 0.065539 0.332110
H32_2 H 0.303205 0.000013 0.078565
C38_2 C 0.2465(3) 0.0568(2) 0.1293(2)
C39_2 C 0.1811(3) 0.0852(2) 0.1104(3)
H33_2 H 0.146198 0.067925 0.084535
C40_2 C 0.1687(3) 0.1399(2) 0.1306(3)
H34_2 H 0.125789 0.160437 0.117671
C41_2 C 0.2198(3) 0.1636(2) 0.1696(3)
H35_2 H 0.211749 0.200310 0.183850
C42_2 C 0.2829(3) 0.1330(2) 0.1875(3)
H36_2 H 0.317065 0.149226 0.214564
C43_2 C 0.46962(18) 0.01644(14) 0.07821(15)
H53_2 H 0.171772 0.241185 0.013348
C66_2 C 0.0023(3) 0.0758(2) 0.0302(3)
N42_2 N 0.7400(2) 0.00246(18) 0.16397(17)
C114_2 C 0.6613(4) 0.0302(3) 0.2434(3)
H93_2 H 0.618011 0.024395 0.266151
C115_2 C 0.7121(4) 0.0741(3) 0.2555(3)
H94_2 H 0.702087 0.099273 0.285961
C116_2 C 0.7745(4) 0.0806(3) 0.2244(3)
H95_2 H 0.809264 0.109574 0.233861
C117_2 C 0.7888(4) 0.0447(3) 0.1779(3)
H96_2 H 0.832922 0.049941 0.155882
Fe3_5 Fe 1.000000 -0.000000 0.000000
Co4_2 Co 0.24352(3) 0.06030(3) 0.90261(3)
Fe2_3 Fe 0.500000 -0.000000 1.000000
N17_2 N 0.33683(17) 0.02512(15) 0.95514(15)
N19_2 N 0.32654(19) 0.10130(17) 0.84514(16)
N20_2 N 0.2560(2) 0.14166(18) 0.94217(18)
N21_2 N 0.15605(19) 0.02388(17) 0.94817(18)
C44_2 C 0.3977(2) 0.01520(14) 0.97306(15)
C45_2 C 0.52677(19) 0.07832(15) 0.98836(14)
C46_2 C 0.3735(4) 0.0539(3) 0.8223(3)
H37_2 H 0.409932 0.041321 0.852403
H38_2 H 0.402526 0.066972 0.788862
C47_2 C 0.3228(4) 0.0051(3) 0.8043(3)
C52_2 C 0.20379(16) 0.1346(3) 0.7983(2)
C53_2 C 0.1609(2) 0.1659(3) 0.7575(2)
H43_2 H 0.185668 0.186679 0.728660
C54_2 C 0.0809(2) 0.1660(3) 0.7599(3)
H44_2 H 0.052139 0.186921 0.732579
C55_2 C 0.04379(16) 0.1349(3) 0.8030(3)
C56_2 C 0.08671(18) 0.1036(3) 0.8438(2)
H46_2 H 0.061908 0.082764 0.872650
N24_2 N 0.16672(18) 0.1034(2) 0.84144(19)
C57_2 C 0.2866(4) 0.1320(4) 0.7961(4)
H47_2 H 0.306236 0.170754 0.795006
H48_2 H 0.300585 0.113711 0.759579
C58_2 C 0.3690(3) 0.1419(2) 0.8828(2)
H49_2 H 0.396897 0.168736 0.858651
H50_2 H 0.406194 0.121428 0.907164
C59_2 C 0.3143(4) 0.1733(3) 0.9207(3)
C60_2 C 0.3213(4) 0.2305(3) 0.9325(3)
H51_2 H 0.361819 0.251435 0.917113
C61_2 C 0.2678(4) 0.2565(3) 0.9673(3)
H52_2 H 0.271511 0.295286 0.975701
C62_2 C 0.2085(4) 0.2244(3) 0.9896(3)
C63_2 C 0.2042(4) 0.1672(3) 0.9763(3)
H54_2 H 0.164227 0.145614 0.991539
C64_2 C 0.0981(2) 0.01331(19) 0.9685(2)
N35_2 N 0.57884(19) 0.05969(13) 0.77348(15)
N36_2 N 0.70313(19) 0.03538(15) 0.84078(14)
C91_2 C 0.6567(3) 0.08562(19) 0.8582(2)
H73_2 H 0.626933 0.076359 0.892536
H74_2 H 0.690675 0.117234 0.868085
C92_2 C 0.6034(3) 0.1026(2) 0.8084(2)
C93_2 C 0.5799(3) 0.1586(2) 0.7982(2)
H75_2 H 0.596498 0.187883 0.822869
C94_2 C 0.5322(3) 0.1700(2) 0.7516(2)
H76_2 H 0.516045 0.207190 0.744192
C95_2 C 0.5085(3) 0.1274(2) 0.7163(3)
H77_2 H 0.475967 0.134808 0.684376
C96_2 C 0.5328(3) 0.0725(2) 0.7280(2)
H78_2 H 0.516458 0.043181 0.703147
C97_2 C 0.7644(4) 0.0532(3) 0.7994(3)
H79_2 H 0.813682 0.052769 0.820135
H80_2 H 0.754466 0.092249 0.787143
C98_2 C 0.7705(4) 0.0170(3) 0.7463(3)
C99_2 C 0.8369(4) 0.0170(3) 0.7155(3)
H81_2 H 0.880563 0.035845 0.729693
C103_2 C 0.7345(3) 0.0018(2) 0.8905(2)
H85_2 H 0.780471 0.020221 0.906207
H86_2 H 0.696795 -0.000013 0.921435
Fe3_6 Fe 1.000000 -0.000000 1.000000
Fe2_4 Fe 0.500000 1.000000 0.000000
N11_2 N 0.42116(19) 0.94031(13) 0.22652(15)
N12_2 N 0.29687(19) 0.96462(15) 0.15922(14)
C25_2 C 0.3433(3) 0.91438(19) 0.1418(2)
H19_2 H 0.373067 0.923641 0.107464
H20_2 H 0.309325 0.882766 0.131915
C26_2 C 0.3966(3) 0.8974(2) 0.1916(2)
C27_2 C 0.4201(3) 0.8414(2) 0.2018(2)
H21_2 H 0.403502 0.812117 0.177131
C28_2 C 0.4678(3) 0.8300(2) 0.2484(2)
H22_2 H 0.483955 0.792810 0.255808
C29_2 C 0.4915(3) 0.8726(2) 0.2837(3)
H23_2 H 0.524033 0.865192 0.315624
C30_2 C 0.4672(3) 0.9275(2) 0.2720(2)
H24_2 H 0.483542 0.956819 0.296853
C31_2 C 0.2356(4) 0.9468(3) 0.2006(3)
H25_2 H 0.186318 0.947231 0.179865
H26_2 H 0.245534 0.907751 0.212857
C32_2 C 0.2295(4) 0.9830(3) 0.2537(3)
C33_2 C 0.1631(4) 0.9830(3) 0.2845(3)
H27_2 H 0.119437 0.964155 0.270307
C37_2 C 0.2655(3) 0.9982(2) 0.1095(2)
H31_2 H 0.219529 0.979779 0.093793
H32_3 H 0.303205 1.000013 0.078565
Co8_2 Co 0.75648(3) 0.93970(3) 0.09739(3)
N41_2 N 0.66317(17) 0.97488(15) 0.04486(15)
N43_2 N 0.67346(19) 0.89870(17) 0.15486(16)
N44_2 N 0.7440(2) 0.85834(18) 0.05783(18)
N45_2 N 0.84395(19) 0.97612(17) 0.05183(18)
C110_2 C 0.6023(2) 0.98480(14) 0.02694(15)
C111_2 C 0.47323(19) 0.92168(15) 0.01164(14)
C112_2 C 0.6265(4) 0.9461(3) 0.1777(3)
H91_2 H 0.590068 0.958679 0.147597
H92_2 H 0.597474 0.933028 0.211138
C113_2 C 0.6772(4) 0.9949(3) 0.1957(3)
C118_2 C 0.79621(16) 0.8654(3) 0.2017(2)
C119_2 C 0.8391(2) 0.8341(3) 0.2425(2)
H97_2 H 0.814332 0.813321 0.271340
C120_2 C 0.9191(2) 0.8340(3) 0.2401(3)
H98_2 H 0.947861 0.813079 0.267421
C121_2 C 0.95621(16) 0.8651(3) 0.1970(3)
C122_2 C 0.91329(18) 0.8964(3) 0.1562(2)
H100_2 H 0.938092 0.917236 0.127350
N46_2 N 0.83328(18) 0.8966(2) 0.15856(19)
C123_2 C 0.7134(4) 0.8680(4) 0.2039(4)
H101_2 H 0.693764 0.829246 0.204994
H102_2 H 0.699415 0.886289 0.240421
C124_2 C 0.6310(3) 0.8581(2) 0.1172(2)
H103_2 H 0.603103 0.831264 0.141349
H104_2 H 0.593806 0.878572 0.092836
C125_2 C 0.6857(4) 0.8267(3) 0.0793(3)
C126_2 C 0.6787(4) 0.7695(3) 0.0675(3)
H105_2 H 0.638181 0.748565 0.082887
C127_2 C 0.7322(4) 0.7435(3) 0.0327(3)
H106_2 H 0.728489 0.704714 0.024299
C128_2 C 0.7915(4) 0.7756(3) 0.0104(3)
C129_2 C 0.7958(4) 0.8328(3) 0.0237(3)
H108_2 H 0.835773 0.854386 0.008461
C130 C 0.9019(2) 0.98669(19) 0.0315(2)
N48_2 N 0.0720(2) 0.9550(2) 0.1142(2)
C132_2 C 0.0454(2) 0.9726(2) 0.0710(2)
Fe3_7 Fe 1.000000 1.000000 0.000000
Fe2_5 Fe 0.500000 1.000000 1.000000
N18_2 N 0.2600(2) 0.99754(18) 0.83603(17)
C48_2 C 0.3387(4) 0.9698(3) 0.7566(3)
H39_2 H 0.381989 0.975605 0.733849
C49_2 C 0.2879(4) 0.9259(3) 0.7445(3)
H40_2 H 0.297913 0.900727 0.714039
C50_2 C 0.2255(4) 0.9194(3) 0.7756(3)
H41_2 H 0.190736 0.890426 0.766139
C51_2 C 0.2112(4) 0.9553(3) 0.8221(3)
H42_2 H 0.167078 0.950059 0.844118
Co6_2 Co 0.49879(3) 0.84029(2) 0.65604(2)
N25_2 N 0.3648(3) 0.78828(15) 0.45522(16)
C67_2 C 0.2609(3) 0.7101(3) 0.5673(3)
H55_2 H 0.286551 0.735540 0.592128
Co7_2 Co 0.62110(3) 0.97780(2) 0.79669(2)
N26_2 N 0.5006(2) 0.72230(15) 0.43852(15)
C68_2 C 0.1862(3) 0.6958(3) 0.5786(3)
H56_2 H 0.161362 0.711668 0.610584
N27_2 N 0.3597(2) 0.67595(14) 0.41507(15)
C69_2 C 0.1490(3) 0.6587(3) 0.5434(3)
H57_2 H 0.098658 0.648009 0.551673
N28_2 N 0.2982(2) 0.68847(15) 0.52117(16)
C70_2 C 0.1851(3) 0.6363(3) 0.4949(3)
H58_2 H 0.159621 0.611323 0.469423
N29_2 N 0.4495(2) 0.74998(15) 0.56834(15)
C71_2 C 0.2608(3) 0.6525(2) 0.4856(3)
N30_2 N 0.6196(4) 0.8777(2) 0.5681(2)
C72_2 C 0.3062(3) 0.6308(2) 0.4345(3)
H59_2 H 0.271452 0.620411 0.402455
H60_2 H 0.335152 0.597036 0.446051
N31_2 N 0.3790(4) 0.9214(2) 0.6046(3)
C73_2 C 0.3777(4) 0.8419(2) 0.4734(3)
H61_2 H 0.399282 0.847417 0.510630
N32_2 N 0.3746(3) 0.79592(19) 0.73808(19)
C74_2 C 0.3609(4) 0.8886(3) 0.4404(3)
H62_2 H 0.368560 0.925129 0.455393
N33_2 N 0.6243(3) 0.7642(2) 0.70998(19)
C75_2 C 0.3326(4) 0.8809(3) 0.3852(3)
H63_2 H 0.322426 0.912168 0.361178
N34_2 N 0.5521(2) 0.92855(15) 0.74463(15)
C76_2 C 0.3191(4) 0.8259(2) 0.3650(3)
H64_2 H 0.300017 0.819827 0.327104
C77_2 C 0.3341(4) 0.7809(2) 0.4012(2)
C78_2 C 0.3172(4) 0.7212(2) 0.3821(2)
H65_2 H 0.329287 0.717780 0.340847
H66_2 H 0.262342 0.714394 0.385872
N37_2 N 0.70286(19) 0.91962(15) 0.83242(16)
C79_2 C 0.4262(3) 0.6546(2) 0.38151(19)
H67_2 H 0.442173 0.617684 0.396822
H68_2 H 0.411129 0.649674 0.340647
N38_2 N 0.7092(2) 0.98671(16) 0.72862(16)
C80_2 C 0.4923(3) 0.6959(2) 0.38604(19)
N39_2 N 0.55152(19) 0.97597(13) 0.87482(14)
C81_2 C 0.5414(3) 0.7066(2) 0.3413(2)
H69_2 H 0.535601 0.687649 0.305587
C82_2 C 0.5992(3) 0.7454(2) 0.3495(2)
H70_2 H 0.632734 0.753358 0.319090
C83_2 C 0.6082(3) 0.7731(2) 0.4028(2)
H71_2 H 0.647565 0.799490 0.408946
C84_2 C 0.5577(3) 0.7604(2) 0.4461(2)
H72_2 H 0.562954 0.778811 0.482059
C85_2 C 0.4685(2) 0.78355(16) 0.60218(17)
C86_2 C 0.4215(3) 0.81299(17) 0.70778(18)
C87_2 C 0.4244(3) 0.8906(2) 0.6232(2)
C88_2 C 0.5733(3) 0.8654(2) 0.6012(2)
C89_2 C 0.5754(3) 0.79169(18) 0.68935(18)
C90_2 C 0.5295(2) 0.89631(16) 0.71043(17)
C100_2 C 0.8380(4) 0.9876(4) 0.6616(3)
H82_2 H 0.881322 0.989130 0.638209
C101_2 C 0.7749(4) 0.9571(4) 0.6441(3)
H83_2 H 0.774685 0.936922 0.608894
C102_2 C 0.7128(4) 0.9567(4) 0.6790(3)
H84_2 H 0.670524 0.934461 0.667890
H86_3 H 0.696795 0.999987 0.921435
C104_2 C 0.7535(3) 0.9432(2) 0.8707(2)
C105_2 C 0.8189(3) 0.9148(2) 0.8896(3)
H87_2 H 0.853802 0.932075 0.915465
C106_2 C 0.8313(3) 0.8601(2) 0.8694(3)
H88_2 H 0.874211 0.839563 0.882329
C107_2 C 0.7802(3) 0.8364(2) 0.8304(3)
H89_2 H 0.788251 0.799690 0.816150
C108_2 C 0.7171(3) 0.8670(2) 0.8125(3)
H90_2 H 0.682935 0.850774 0.785436
C109_2 C 0.53038(18) 0.98356(14) 0.92179(15)
H107_2 H 0.828228 0.758815 0.986652
Fe3_8 Fe 1.000000 1.000000 1.000000
N23_2 N 0.9280(2) 0.0450(2) 0.8858(2)
H45_2 H 0.990259 0.134964 0.804574
C65_2 C 0.9546(2) 0.0274(2) 0.9290(2)
N47_2 N 0.9939(3) 0.8785(2) 0.9527(3)
C131_2 C 0.9977(3) 0.9242(2) 0.9698(3)
loop_
_geom_bond_atom_site_label_1
_geom_bond_atom_site_label_2
_geom_bond_site_symmetry_1
_geom_bond_site_symmetry_2
N23 C65 1_555 1_555
C65 Fe1 1_555 1_555
N47 C131 1_555 1_555
C131 Fe1 1_555 1_555
C133 Fe1 1_555 1_555
Co5 N25 1_555 1_555
N25 C73 1_555 1_555
N26 Co5 1_555 1_555
N27 Co5 1_555 1_555
H58 C70 1_555 1_555
C72 N27 1_555 1_555
H59 C72 1_555 1_555
H60 C72 1_555 1_555
C74 C73 1_555 1_555
H62 C74 1_555 1_555
C75 C74 1_555 1_555
H63 C75 1_555 1_555
C76 C75 1_555 1_555
H64 C76 1_555 1_555
C77 N25 1_555 1_555
C78 N27 1_555 1_555
H65 C78 1_555 1_555
H66 C78 1_555 1_555
C79 N27 1_555 1_555
H67 C79 1_555 1_555
H68 C79 1_555 1_555
C80 N26 1_555 1_555
C81 C80 1_555 1_555
H69 C81 1_555 1_555
C82 C81 1_555 1_555
H70 C82 1_555 1_555
C83 C82 1_555 1_555
H71 C83 1_555 1_555
C84 N26 1_555 1_555
H72 C84 1_555 1_555
C70 C71 1_555 1_555
C71 C72 1_555 1_555
C76 C77 1_555 1_555
C77 C78 1_555 1_555
C79 C80 1_555 1_555
C83 C84 1_555 1_555
Co2 C19 1_555 1_555
C1 H1 1_555 1_555
Co3 N10 1_555 1_555
Fe1_2 C64 1_555 1_555
C2 C1 1_555 1_555
H2 C2 1_555 1_555
Co4 N17 1_555 1_555
Fe2 C43 1_555 1_555
C3 C2 1_555 1_555
H3 C3 1_555 1_555
N6 C22 1_555 1_555
N7 C21 1_555 1_555
N8 C20 1_555 1_555
N9 C23 1_555 1_555
N10 C24 1_555 1_555
N11 Co3 1_555 1_555
N12 Co3 1_555 1_555
N13 Co3 1_555 1_555
N14 Co3 1_555 1_555
N15 Co3 1_555 1_555
N16 C45 1_555 1_555
N17 C44 1_555 1_555
N18 Co4 1_555 1_555
N19 Co4 1_555 1_555
C19 N5 1_555 1_555
C20 Co2 1_555 1_555
N20 Co4 1_555 1_555
C21 Co2 1_555 1_555
N21 Co4 1_555 1_555
C22 Co2 1_555 1_555
N22 C66 1_555 1_555
C23 Co2 1_555 1_555
C24 Co2 1_555 1_555
C25 N12 1_555 1_555
H19 C25 1_555 1_555
H20 C25 1_555 1_555
C26 N11 1_555 1_555
C27 C26 1_555 1_555
H21 C27 1_555 1_555
C28 C27 1_555 1_555
H22 C28 1_555 1_555
C29 C28 1_555 1_555
H23 C29 1_555 1_555
C30 N11 1_555 1_555
H24 C30 1_555 1_555
C31 N12 1_555 1_555
H25 C31 1_555 1_555
H26 C31 1_555 1_555
C32 N14 1_555 1_555
C33 C32 1_555 1_555
H27 C33 1_555 1_555
C34 C33 1_555 1_555
H28 C34 1_555 1_555
C35 C34 1_555 1_555
H29 C35 1_555 1_555
C36 N14 1_555 1_555
H30 C36 1_555 1_555
C37 N12 1_555 1_555
H31 C37 1_555 1_555
H32 C37 1_555 1_555
C38 N13 1_555 1_555
C39 C38 1_555 1_555
H33 C39 1_555 1_555
C40 C39 1_555 1_555
H34 C40 1_555 1_555
C41 C40 1_555 1_555
H35 C41 1_555 1_555
C42 N13 1_555 1_555
H36 C42 1_555 1_555
C43 N15 1_555 1_555
C44 Fe2 1_555 1_555
C45 Fe2 1_555 1_555
C46 N19 1_555 1_555
H37 C46 1_555 1_555
H38 C46 1_555 1_555
C47 N18 1_555 1_555
C48 C47 1_555 1_555
H39 C48 1_555 1_555
C49 C48 1_555 1_555
H40 C49 1_555 1_555
C50 C49 1_555 1_555
H41 C50 1_555 1_555
C51 N18 1_555 1_555
H42 C51 1_555 1_555
C52 C53 1_555 1_555
C53 H43 1_555 1_555
C54 C53 1_555 1_555
H44 C54 1_555 1_555
C55 C54 1_555 1_555
C56 C55 1_555 1_555
H46 C56 1_555 1_555
N24 Co4 1_555 1_555
C57 N19 1_555 1_555
H47 C57 1_555 1_555
H48 C57 1_555 1_555
C58 N19 1_555 1_555
H49 C58 1_555 1_555
H50 C58 1_555 1_555
C59 N20 1_555 1_555
C60 C59 1_555 1_555
H51 C60 1_555 1_555
C61 C60 1_555 1_555
H52 C61 1_555 1_555
C62 C61 1_555 1_555
H53 C62 1_555 1_555
C63 N20 1_555 1_555
H54 C63 1_555 1_555
C64 N21 1_555 1_555
C66 Fe1_2 1_555 1_555
Co6 C85 1_555 1_555
C67 H55 1_555 1_555
Co7 N34 1_555 1_555
C68 C67 1_555 1_555
H56 C68 1_555 1_555
Co8 N41 1_555 1_555
C69 C68 1_555 1_555
H57 C69 1_555 1_555
N30 C88 1_555 1_555
N31 C87 1_555 1_555
N32 C86 1_555 1_555
N33 C89 1_555 1_555
N34 C90 1_555 1_555
N35 Co7 1_555 1_555
N36 Co7 1_555 1_555
N37 Co7 1_555 1_555
N38 Co7 1_555 1_555
N39 Co7 1_555 1_555
N40 C111 1_555 1_555
N41 C110 1_555 1_555
N42 Co8 1_555 1_555
N43 Co8 1_555 1_555
C85 N29 1_555 1_555
C86 Co6 1_555 1_555
N44 Co8 1_555 1_555
C87 Co6 1_555 1_555
N45 Co8 1_555 1_555
C88 Co6 1_555 1_555
C89 Co6 1_555 1_555
C90 Co6 1_555 1_555
C91 N36 1_555 1_555
H73 C91 1_555 1_555
H74 C91 1_555 1_555
C92 N35 1_555 1_555
C93 C92 1_555 1_555
H75 C93 1_555 1_555
C94 C93 1_555 1_555
H76 C94 1_555 1_555
C95 C94 1_555 1_555
H77 C95 1_555 1_555
C96 N35 1_555 1_555
H78 C96 1_555 1_555
C97 N36 1_555 1_555
H79 C97 1_555 1_555
H80 C97 1_555 1_555
C98 N38 1_555 1_555
C99 C98 1_555 1_555
H81 C99 1_555 1_555
C100 C99 1_555 1_555
H82 C100 1_555 1_555
C101 C100 1_555 1_555
H83 C101 1_555 1_555
C102 N38 1_555 1_555
H84 C102 1_555 1_555
C103 N36 1_555 1_555
H85 C103 1_555 1_555
H86 C103 1_555 1_555
C104 N37 1_555 1_555
C105 C104 1_555 1_555
H87 C105 1_555 1_555
C106 C105 1_555 1_555
H88 C106 1_555 1_555
C107 C106 1_555 1_555
H89 C107 1_555 1_555
C108 N37 1_555 1_555
H90 C108 1_555 1_555
C109 Fe2 1_555 1_555
C110 Fe2 1_555 1_555
C111 Fe2 1_555 1_555
C112 N43 1_555 1_555
H91 C112 1_555 1_555
H92 C112 1_555 1_555
C113 N42 1_555 1_555
C114 C113 1_555 1_555
H93 C114 1_555 1_555
C115 C114 1_555 1_555
H94 C115 1_555 1_555
C116 C115 1_555 1_555
H95 C116 1_555 1_555
C117 N42 1_555 1_555
H96 C117 1_555 1_555
C118 C119 1_555 1_555
C119 H97 1_555 1_555
C120 C119 1_555 1_555
H98 C120 1_555 1_555
C121 C120 1_555 1_555
C122 C121 1_555 1_555
H100 C122 1_555 1_555
N46 Co8 1_555 1_555
C123 N43 1_555 1_555
H101 C123 1_555 1_555
H102 C123 1_555 1_555
C124 N43 1_555 1_555
H103 C124 1_555 1_555
H104 C124 1_555 1_555
C125 N44 1_555 1_555
C126 C125 1_555 1_555
H105 C126 1_555 1_555
C127 C126 1_555 1_555
H106 C127 1_555 1_555
C128 C127 1_555 1_555
H107 C128 1_555 1_555
C129 N44 1_555 1_555
H108 C129 1_555 1_555
C133 N45 1_555 1_555
N48 C132 1_555 1_555
C132 Fe1_2 1_555 1_555
Co9 N40 1_555 1_555
Co10 N16 1_555 1_555
C1 N4 1_555 1_555
C25 C26 1_555 1_555
C29 C30 1_555 1_555
C31 C32 1_555 1_555
C35 C36 1_555 1_555
C37 C38 1_555 1_555
C41 C42 1_555 1_555
C46 C47 1_555 1_555
C50 C51 1_555 1_555
C52 N24 1_555 1_555
C52 C57 1_555 1_555
C56 N24 1_555 1_555
C58 C59 1_555 1_555
C62 C63 1_555 1_555
C67 N28 1_555 1_555
N39 C109 1_555 1_555
C91 C92 1_555 1_555
C95 C96 1_555 1_555
C97 C98 1_555 1_555
C101 C102 1_555 1_555
C103 C104 1_555 1_555
C107 C108 1_555 1_555
C112 C113 1_555 1_555
C116 C117 1_555 1_555
C118 N46 1_555 1_555
C118 C123 1_555 1_555
C122 N46 1_555 1_555
C124 C125 1_555 1_555
C128 C129 1_555 1_555
Co1 N1 1_555 1_555
N1 C7 1_555 1_555
N2 Co1 1_555 1_555
N3 Co1 1_555 1_555
H4 C4 1_555 1_555
C6 N3 1_555 1_555
H5 C6 1_555 1_555
H6 C6 1_555 1_555
C8 C7 1_555 1_555
H8 C8 1_555 1_555
C9 C8 1_555 1_555
H9 C9 1_555 1_555
C10 C9 1_555 1_555
H10 C10 1_555 1_555
C11 N1 1_555 1_555
C12 N3 1_555 1_555
H11 C12 1_555 1_555
H12 C12 1_555 1_555
C13 N3 1_555 1_555
H13 C13 1_555 1_555
H14 C13 1_555 1_555
C14 N2 1_555 1_555
C15 C14 1_555 1_555
H15 C15 1_555 1_555
C16 C15 1_555 1_555
H16 C16 1_555 1_555
C17 C16 1_555 1_555
H17 C17 1_555 1_555
C18 N2 1_555 1_555
H18 C18 1_555 1_555
C4 C5 1_555 1_555
C5 C6 1_555 1_555
C10 C11 1_555 1_555
C11 C12 1_555 1_555
C13 C14 1_555 1_555
C17 C18 1_555 1_555
Co9 N1_2 1_555 1_555
Co2_2 C19_2 1_555 1_555
N1_2 C7_2 1_555 1_555
C1_2 H1_2 1_555 1_555
Co3_2 N10_2 1_555 1_555
N2_2 Co9 1_555 1_555
C2_2 C1_2 1_555 1_555
H2_2 C2_2 1_555 1_555
Fe2_2 C43_2 1_555 1_555
N3_2 Co9 1_555 1_555
C3_2 C2_2 1_555 1_555
H3_2 C3_2 1_555 1_555
N4_2 Co9 1_555 1_555
C4_2 C3_2 1_555 1_555
H4_2 C4_2 1_555 1_555
N5_2 Co9 1_555 1_555
C5_2 N4_2 1_555 1_555
N6_2 C22_2 1_555 1_555
C6_2 N3_2 1_555 1_555
H5_2 C6_2 1_555 1_555
H6_2 C6_2 1_555 1_555
N7_2 C21_2 1_555 1_555
C7_2 H7_2 1_555 1_555
N8_2 C20_2 1_555 1_555
C8_2 C7_2 1_555 1_555
H8_2 C8_2 1_555 1_555
N9_2 C23_2 1_555 1_555
C9_2 C8_2 1_555 1_555
H9_2 C9_2 1_555 1_555
N10_2 C24_2 1_555 1_555
C10_2 C9_2 1_555 1_555
H10_2 C10_2 1_555 1_555
C11_2 N1_2 1_555 1_555
C12_2 N3_2 1_555 1_555
H11_2 C12_2 1_555 1_555
H12_2 C12_2 1_555 1_555
N13_2 Co3_2 1_555 1_555
C13_2 N3_2 1_555 1_555
H13_2 C13_2 1_555 1_555
H14_2 C13_2 1_555 1_555
N14_2 Co3_2 1_555 1_555
C14_2 N2_2 1_555 1_555
N15_2 Co3_2 1_555 1_555
C15_2 C14_2 1_555 1_555
H15_2 C15_2 1_555 1_555
C16_2 C15_2 1_555 1_555
H16_2 C16_2 1_555 1_555
C17_2 C16_2 1_555 1_555
H17_2 C17_2 1_555 1_555
C18_2 N2_2 1_555 1_555
H18_2 C18_2 1_555 1_555
C19_2 N5_2 1_555 1_555
C20_2 Co2_2 1_555 1_555
C21_2 Co2_2 1_555 1_555
C22_2 Co2_2 1_555 1_555
N22_2 C66_2 1_555 1_555
C23_2 Co2_2 1_555 1_555
C24_2 Co2_2 1_555 1_555
H28_2 C34_2 1_555 1_555
C35_2 C34_2 1_555 1_555
H29_2 C35_2 1_555 1_555
C36_2 N14_2 1_555 1_555
H30_2 C36_2 1_555 1_555
C38_2 N13_2 1_555 1_555
C39_2 C38_2 1_555 1_555
H33_2 C39_2 1_555 1_555
C40_2 C39_2 1_555 1_555
H34_2 C40_2 1_555 1_555
C41_2 C40_2 1_555 1_555
H35_2 C41_2 1_555 1_555
C42_2 N13_2 1_555 1_555
H36_2 C42_2 1_555 1_555
C43_2 N15_2 1_555 1_555
C66_2 Fe3 1_555 1_555
H93_2 C114_2 1_555 1_555
C115_2 C114_2 1_555 1_555
H94_2 C115_2 1_555 1_555
C116_2 C115_2 1_555 1_555
H95_2 C116_2 1_555 1_555
C117_2 N42_2 1_555 1_555
H96_2 C117_2 1_555 1_555
C1_2 N4_2 1_555 1_555
C4_2 C5_2 1_555 1_555
C5_2 C6_2 1_555 1_555
C10_2 C11_2 1_555 1_555
C11_2 C12_2 1_555 1_555
C13_2 C14_2 1_555 1_555
C17_2 C18_2 1_555 1_555
C35_2 C36_2 1_555 1_555
C41_2 C42_2 1_555 1_555
C116_2 C117_2 1_555 1_555
Fe3_2 C64_2 1_555 1_555
Co4_2 N17_2 1_555 1_555
N49 C45_2 1_555 1_555
N17_2 C44_2 1_555 1_555
N19_2 Co4_2 1_555 1_555
N20_2 Co4_2 1_555 1_555
N21_2 Co4_2 1_555 1_555
C44_2 Fe2_3 1_555 1_555
C45_2 Fe2_3 1_555 1_555
C46_2 N19_2 1_555 1_555
H37_2 C46_2 1_555 1_555
H38_2 C46_2 1_555 1_555
C52_2 C53_2 1_555 1_555
C53_2 H43_2 1_555 1_555
C54_2 C53_2 1_555 1_555
H44_2 C54_2 1_555 1_555
C55_2 C54_2 1_555 1_555
C56_2 C55_2 1_555 1_555
H46_2 C56_2 1_555 1_555
N24_2 Co4_2 1_555 1_555
C57_2 N19_2 1_555 1_555
H47_2 C57_2 1_555 1_555
H48_2 C57_2 1_555 1_555
C58_2 N19_2 1_555 1_555
H49_2 C58_2 1_555 1_555
H50_2 C58_2 1_555 1_555
C59_2 N20_2 1_555 1_555
C60_2 C59_2 1_555 1_555
H51_2 C60_2 1_555 1_555
C61_2 C60_2 1_555 1_555
H52_2 C61_2 1_555 1_555
C62_2 C61_2 1_555 1_555
C63_2 N20_2 1_555 1_555
H54_2 C63_2 1_555 1_555
C64_2 N21_2 1_555 1_555
C91_2 N36_2 1_555 1_555
H73_2 C91_2 1_555 1_555
H74_2 C91_2 1_555 1_555
C92_2 N35_2 1_555 1_555
C93_2 C92_2 1_555 1_555
H75_2 C93_2 1_555 1_555
C94_2 C93_2 1_555 1_555
H76_2 C94_2 1_555 1_555
C95_2 C94_2 1_555 1_555
H77_2 C95_2 1_555 1_555
C96_2 N35_2 1_555 1_555
H78_2 C96_2 1_555 1_555
C97_2 N36_2 1_555 1_555
H79_2 C97_2 1_555 1_555
H80_2 C97_2 1_555 1_555
C99_2 C98_2 1_555 1_555
H81_2 C99_2 1_555 1_555
C103_2 N36_2 1_555 1_555
H85_2 C103_2 1_555 1_555
H86_2 C103_2 1_555 1_555
C46_2 C47_2 1_555 1_555
C52_2 N24_2 1_555 1_555
C52_2 C57_2 1_555 1_555
C56_2 N24_2 1_555 1_555
C58_2 C59_2 1_555 1_555
C62_2 C63_2 1_555 1_555
C91_2 C92_2 1_555 1_555
C95_2 C96_2 1_555 1_555
C97_2 C98_2 1_555 1_555
C25_2 N12_2 1_555 1_555
H19_2 C25_2 1_555 1_555
H20_2 C25_2 1_555 1_555
C26_2 N11_2 1_555 1_555
C27_2 C26_2 1_555 1_555
H21_2 C27_2 1_555 1_555
C28_2 C27_2 1_555 1_555
H22_2 C28_2 1_555 1_555
C29_2 C28_2 1_555 1_555
H23_2 C29_2 1_555 1_555
C30_2 N11_2 1_555 1_555
H24_2 C30_2 1_555 1_555
C31_2 N12_2 1_555 1_555
H25_2 C31_2 1_555 1_555
H26_2 C31_2 1_555 1_555
C33_2 C32_2 1_555 1_555
H27_2 C33_2 1_555 1_555
C37_2 N12_2 1_555 1_555
H31_2 C37_2 1_555 1_555
H32_3 C37_2 1_555 1_555
Co8_2 N41_2 1_555 1_555
N50 C111_2 1_555 1_555
N41_2 C110_2 1_555 1_555
N43_2 Co8_2 1_555 1_555
N44_2 Co8_2 1_555 1_555
N45_2 Co8_2 1_555 1_555
C110_2 Fe2_4 1_555 1_555
C111_2 Fe2_4 1_555 1_555
C112_2 N43_2 1_555 1_555
H91_2 C112_2 1_555 1_555
H92_2 C112_2 1_555 1_555
C118_2 C119_2 1_555 1_555
C119_2 H97_2 1_555 1_555
C120_2 C119_2 1_555 1_555
H98_2 C120_2 1_555 1_555
C121_2 C120_2 1_555 1_555
C122_2 C121_2 1_555 1_555
H100_2 C122_2 1_555 1_555
N46_2 Co8_2 1_555 1_555
C123_2 N43_2 1_555 1_555
H101_2 C123_2 1_555 1_555
H102_2 C123_2 1_555 1_555
C124_2 N43_2 1_555 1_555
H103_2 C124_2 1_555 1_555
H104_2 C124_2 1_555 1_555
C125_2 N44_2 1_555 1_555
C126_2 C125_2 1_555 1_555
H105_2 C126_2 1_555 1_555
C127_2 C126_2 1_555 1_555
H106_2 C127_2 1_555 1_555
C128_2 C127_2 1_555 1_555
C129_2 N44_2 1_555 1_555
H108_2 C129_2 1_555 1_555
C130 N45_2 1_555 1_555
N48_2 C132_2 1_555 1_555
C132_2 Fe3_3 1_555 1_555
Fe3_7 C130 1_555 1_555
C25_2 C26_2 1_555 1_555
C29_2 C30_2 1_555 1_555
C31_2 C32_2 1_555 1_555
C112_2 C113_2 1_555 1_555
C118_2 N46_2 1_555 1_555
C118_2 C123_2 1_555 1_555
C122_2 N46_2 1_555 1_555
C124_2 C125_2 1_555 1_555
C128_2 C129_2 1_555 1_555
H39_2 C48_2 1_555 1_555
C49_2 C48_2 1_555 1_555
H40_2 C49_2 1_555 1_555
C50_2 C49_2 1_555 1_555
H41_2 C50_2 1_555 1_555
C51_2 N18_2 1_555 1_555
H42_2 C51_2 1_555 1_555
Co10 N25_2 1_555 1_555
Co6_2 C85_2 1_555 1_555
N25_2 C73_2 1_555 1_555
C67_2 H55_2 1_555 1_555
Co7_2 N34_2 1_555 1_555
N26_2 Co10 1_555 1_555
C68_2 C67_2 1_555 1_555
H56_2 C68_2 1_555 1_555
N27_2 Co10 1_555 1_555
C69_2 C68_2 1_555 1_555
H57_2 C69_2 1_555 1_555
N28_2 Co10 1_555 1_555
C70_2 C69_2 1_555 1_555
H58_2 C70_2 1_555 1_555
N29_2 Co10 1_555 1_555
C71_2 N28_2 1_555 1_555
N30_2 C88_2 1_555 1_555
C72_2 N27_2 1_555 1_555
H59_2 C72_2 1_555 1_555
H60_2 C72_2 1_555 1_555
N31_2 C87_2 1_555 1_555
C73_2 H61_2 1_555 1_555
N32_2 C86_2 1_555 1_555
C74_2 C73_2 1_555 1_555
H62_2 C74_2 1_555 1_555
N33_2 C89_2 1_555 1_555
C75_2 C74_2 1_555 1_555
H63_2 C75_2 1_555 1_555
N34_2 C90_2 1_555 1_555
C76_2 C75_2 1_555 1_555
H64_2 C76_2 1_555 1_555
C77_2 N25_2 1_555 1_555
C78_2 N27_2 1_555 1_555
H65_2 C78_2 1_555 1_555
H66_2 C78_2 1_555 1_555
N37_2 Co7_2 1_555 1_555
C79_2 N27_2 1_555 1_555
H67_2 C79_2 1_555 1_555
H68_2 C79_2 1_555 1_555
N38_2 Co7_2 1_555 1_555
C80_2 N26_2 1_555 1_555
N39_2 Co7_2 1_555 1_555
C81_2 C80_2 1_555 1_555
H69_2 C81_2 1_555 1_555
C82_2 C81_2 1_555 1_555
H70_2 C82_2 1_555 1_555
C83_2 C82_2 1_555 1_555
H71_2 C83_2 1_555 1_555
C84_2 N26_2 1_555 1_555
H72_2 C84_2 1_555 1_555
C85_2 N29_2 1_555 1_555
C86_2 Co6_2 1_555 1_555
C87_2 Co6_2 1_555 1_555
C88_2 Co6_2 1_555 1_555
C89_2 Co6_2 1_555 1_555
C90_2 Co6_2 1_555 1_555
H82_2 C100_2 1_555 1_555
C101_2 C100_2 1_555 1_555
H83_2 C101_2 1_555 1_555
C102_2 N38_2 1_555 1_555
H84_2 C102_2 1_555 1_555
C104_2 N37_2 1_555 1_555
C105_2 C104_2 1_555 1_555
H87_2 C105_2 1_555 1_555
C106_2 C105_2 1_555 1_555
H88_2 C106_2 1_555 1_555
C107_2 C106_2 1_555 1_555
H89_2 C107_2 1_555 1_555
C108_2 N37_2 1_555 1_555
H90_2 C108_2 1_555 1_555
C109_2 Fe2_5 1_555 1_555
C50_2 C51_2 1_555 1_555
C67_2 N28_2 1_555 1_555
C70_2 C71_2 1_555 1_555
C71_2 C72_2 1_555 1_555
C76_2 C77_2 1_555 1_555
C77_2 C78_2 1_555 1_555
C79_2 C80_2 1_555 1_555
N39_2 C109_2 1_555 1_555
C83_2 C84_2 1_555 1_555
C101_2 C102_2 1_555 1_555
C107_2 C108_2 1_555 1_555
N23_2 C65_2 1_555 1_555
C65_2 Fe3_6 1_555 1_555
N47_2 C131_2 1_555 1_555
C131_2 Fe3_8 1_555 1_555

#END
