
###############################################################################
#
# This file contains modified crystal structure data generated from the
# MOF subset of the Cambridge Structural Database (CSD) v543 
# hosted by the Cambridge Crystallographic Data Centre (CCDC).
#
# This work is licensed under the Creative Commons
# Attribution-NonCommercial-ShareAlike 4.0 International License.
# To view a copy of this license, visit
# http://creativecommons.org/licenses/by-nc-sa/4.0/
# or send a letter to
# Creative Commons, PO Box 1866, Mountain View, CA 94042, USA.
#
# CIF created using the CSD Python API on 29 September 2022
# The structure has been converted into the P1 space group
# The structure has a 3D framework
# The original CSD entry JELLAR03 is in the monoclinic crystal system
# The framework has been calculated to contain at least 10.0% void space
# The void calculation uses a probe of radius 1.32A, grid spacing 0.4
#
###############################################################################

data_JELLAR03
_chemical_formula_moiety         '(C264 H216 Co16 Fe14 N96)n'
_symmetry_cell_setting           triclinic
_symmetry_space_group_name_H-M   'P 1'
_symmetry_Int_Tables_number      1
_space_group_name_Hall           'P 1'
loop_
_symmetry_equiv_pos_site_id
_symmetry_equiv_pos_as_xyz
1 x,y,z
_cell_length_a                   17.2049(6)
_cell_length_b                   22.7566(9)
_cell_length_c                   22.4086(9)
_cell_angle_alpha                90
_cell_angle_beta                 90.093(4)
_cell_angle_gamma                90
_cell_volume                     8773.52
loop_
_atom_site_label
_atom_site_type_symbol
_atom_site_fract_x
_atom_site_fract_y
_atom_site_fract_z
Fe2 Fe -0.000000 0.500000 0.500000
H11 H 0.006654 0.632729 0.301439
C27 C 0.0013(2) 0.4220(2) 0.4704(2)
N24 N 0.0040(3) 0.3741(2) 0.4527(3)
N47 N 0.0684(2) 0.5448(2) 0.3833(2)
C131 C 0.0437(2) 0.5278(2) 0.4269(2)
C133 C 0.0998(2) 0.48655(18) 0.53178(19)
Fe1 Fe 0.500000 0.500000 0.500000
Co1 Co 0.37088(3) 0.01494(2) 0.79307(2)
Co2 Co 0.59101(3) 0.28588(2) 0.48901(2)
Co3 Co 0.49675(3) 0.14828(2) 0.64623(2)
Fe2_2 Fe 1.000000 0.500000 0.500000
Co4 Co 0.75327(3) 0.56358(2) 0.40128(2)
N1 N 0.70100(19) 0.30621(13) 0.51998(14)
N2 N 0.29236(18) 0.07452(13) 0.82855(14)
N3 N 0.66259(17) 0.52755(14) 0.45410(14)
N4 N 0.44288(18) 0.48062(12) 0.37198(13)
N6 N 0.54644(18) 0.37101(13) 0.51191(13)
N8 N 0.2823(2) 0.00640(14) 0.72550(15)
C1 C 0.52687(19) 0.41922(14) 0.50888(14)
N9 N 0.5496(2) 0.24262(13) 0.55930(14)
N10 N 0.5010(2) 0.27460(13) 0.43091(13)
N11 N 0.4394(2) 0.06349(13) 0.74026(15)
C2 C 0.46680(18) 0.48644(13) 0.41963(14)
N12 N 0.63976(19) 0.32377(13) 0.41063(13)
N13 N 0.6370(2) 0.20822(14) 0.45046(14)
N14 N 0.66871(19) 0.60577(16) 0.34570(15)
N15 N 0.8413(2) 0.52524(16) 0.44708(16)
N16 N 0.3697(3) 0.22548(17) 0.69900(16)
C3 C 0.6026(2) 0.51654(14) 0.47305(14)
C4 C 0.5753(3) 0.17709(16) 0.69889(17)
C5 C 0.4231(3) 0.12190(19) 0.58894(19)
C6 C 0.4196(2) 0.19858(16) 0.67913(15)
N17 N 0.6238(2) 0.19548(17) 0.72757(17)
N18 N 0.7357(2) 0.50045(17) 0.33477(17)
N19 N 0.7447(2) 0.64448(17) 0.44410(17)
C9 C 0.7360(3) 0.28265(19) 0.56804(19)
H3 H 0.708950 0.256025 0.591669
N20 N 0.3788(3) 0.1081(2) 0.5532(2)
C10 C 0.4631(2) 0.09321(15) 0.70365(17)
C11 C 0.5280(2) 0.20686(15) 0.59224(16)
C13 C 0.2441(2) 0.05199(17) 0.86910(17)
N21 N 0.9316(2) 0.4552(2) 0.6167(2)
C14 C 0.5060(2) 0.30585(16) 0.38007(16)
C15 C 0.4432(3) 0.23479(19) 0.43616(18)
H5 H 0.440621 0.212334 0.470779
C16 C 0.9002(2) 0.51345(18) 0.46822(19)
C17 C 0.5742(3) 0.34782(17) 0.37676(17)
H6 H 0.589255 0.353464 0.335451
H7 H 0.559477 0.385673 0.393091
C18 C 0.4516(3) 0.29927(19) 0.33480(18)
H8 H 0.454937 0.322074 0.300463
C21 C 0.9563(2) 0.4722(2) 0.5731(2)
N22 N 0.82837(18) 0.6061(2) 0.3402(2)
C22 C 0.90907(19) 0.6050(3) 0.3430(2)
H10 H 0.933906 0.585202 0.373939
C23 C 0.95266(16) 0.6335(4) 0.2996(3)
C24 C 0.9155(2) 0.6630(3) 0.2533(3)
H12 H 0.944707 0.682077 0.224257
C25 C 0.8348(2) 0.6641(3) 0.2505(3)
H13 H 0.810012 0.683897 0.219574
C26 C 0.79126(17) 0.6356(3) 0.2940(3)
C28 C 0.5697(3) 0.09294(19) 0.61501(19)
C29 C 0.2773(3) 0.12868(18) 0.8066(2)
H14 H 0.309630 0.144306 0.777396
C30 C 0.7390(3) 0.34458(18) 0.4859(2)
C33 C 0.6719(3) 0.21588(18) 0.39785(17)
N23 N 0.6103(3) 0.0583(2) 0.5965(2)
C34 C 0.1811(3) 0.0833(2) 0.8910(2)
H19 H 0.148559 0.067018 0.919697
C35 C 0.6726(3) 0.5089(2) 0.3009(2)
C36 C 0.6834(3) 0.6778(2) 0.42575(18)
C37 C 0.3934(3) 0.2594(2) 0.3409(2)
H20 H 0.357242 0.254439 0.310405
C38 C 0.3880(3) 0.2260(2) 0.3926(2)
H21 H 0.348396 0.198568 0.397591
C39 C 0.7069(3) 0.6385(2) 0.2960(2)
H22 H 0.686695 0.623481 0.258497
H23 H 0.691727 0.679474 0.298733
C40 C 0.6203(3) 0.5581(2) 0.3212(2)
H24 H 0.589878 0.572546 0.287788
H25 H 0.584765 0.543839 0.351505
C41 C 0.6257(2) 0.6465(2) 0.3854(2)
H26 H 0.588697 0.624649 0.409269
H27 H 0.597356 0.674959 0.361636
C42 C 0.6283(3) 0.15249(19) 0.4704(2)
H28 H 0.605144 0.146667 0.507383
C43 C 0.6824(3) 0.27769(19) 0.37582(19)
H29 H 0.737411 0.287004 0.376519
H30 H 0.665273 0.279536 0.334603
C44 C 0.8116(3) 0.2974(2) 0.5829(3)
H31 H 0.835381 0.280917 0.616220
C46 C 0.2772(3) 0.0367(2) 0.6748(2)
H33 H 0.319275 0.059800 0.663531
C47 C 0.6951(2) 0.36890(18) 0.43259(19)
H34 H 0.667012 0.404083 0.444072
H35 H 0.731341 0.379217 0.401185
C49 C 0.7981(3) 0.6697(2) 0.4793(2)
H37 H 0.841027 0.647848 0.491246
C50 C 0.1678(3) 0.1386(2) 0.8692(3)
H38 H 0.126450 0.160635 0.883795
C51 C 0.6752(4) 0.7348(2) 0.4424(2)
H39 H 0.632928 0.756663 0.429174
C52 C 0.6566(4) 0.4763(3) 0.2512(3)
H40 H 0.611986 0.483539 0.228921
C53 C 0.2145(3) 0.1614(2) 0.8267(3)
H41 H 0.204692 0.198596 0.811174
C54 C 0.6867(4) 0.1140(3) 0.3850(3)
H42 H 0.702898 0.082014 0.362456
C55 C 0.6516(5) 0.1052(2) 0.4395(3)
H43 H 0.644236 0.067527 0.454380
C56 C 0.7861(4) 0.4578(2) 0.3197(2)
H44 H 0.830672 0.451962 0.342541
C57 C 0.8152(3) 0.3611(2) 0.4982(3)
H45 H 0.841086 0.387768 0.473854
C58 C 0.6977(4) 0.1694(2) 0.3644(2)
H46 H 0.722417 0.175699 0.328063
C60 C 0.2145(5) 0.0356(3) 0.6389(3)
H48 H 0.213477 0.056902 0.603466
C61 C 0.7056(5) 0.4340(3) 0.2351(4)
H49 H 0.695907 0.412210 0.200727
C62 C 0.7313(4) 0.7604(3) 0.4798(3)
H50 H 0.727269 0.799458 0.491642
C63 C 0.7720(5) 0.4219(3) 0.2696(3)
H51 H 0.805424 0.391352 0.259722
C64 C 0.7914(4) 0.7265(3) 0.4982(3)
H52 H 0.828500 0.742047 0.523996
C65 C 0.8512(4) 0.3370(3) 0.5474(3)
H53 H 0.902120 0.347309 0.556757
C66 C 0.1516(5) 0.0019(4) 0.6560(3)
H54 H 0.107370 0.000169 0.632161
Co5 Co 0.62912(3) 0.98506(2) 0.20693(2)
Co6 Co 0.40899(3) 0.71412(2) 0.51099(2)
Co7 Co 0.50325(3) 0.85172(2) 0.35377(2)
Co8 Co 0.24673(3) 0.43642(2) 0.59872(2)
N25 N 0.29900(19) 0.69379(13) 0.48002(14)
N26 N 0.70764(18) 0.92548(13) 0.17145(14)
N27 N 0.33741(17) 0.47245(14) 0.54590(14)
N28 N 0.55712(18) 0.51938(12) 0.62802(13)
N30 N 0.45356(18) 0.62899(13) 0.48809(13)
N32 N 0.7177(2) 0.99360(14) 0.27450(15)
C67 C 0.47313(19) 0.58078(14) 0.49112(14)
N33 N 0.4504(2) 0.75738(13) 0.44070(14)
N34 N 0.4990(2) 0.72540(13) 0.56909(13)
N35 N 0.5606(2) 0.93651(13) 0.25974(15)
C68 C 0.53320(18) 0.51356(13) 0.58037(14)
N36 N 0.36024(19) 0.67623(13) 0.58937(13)
N37 N 0.3630(2) 0.79178(14) 0.54954(14)
N38 N 0.33129(19) 0.39423(16) 0.65430(15)
N39 N 0.1587(2) 0.47476(16) 0.55292(16)
N40 N 0.6303(3) 0.77452(17) 0.30100(16)
C69 C 0.3974(2) 0.48346(14) 0.52695(14)
C70 C 0.4247(3) 0.82291(16) 0.30111(17)
C71 C 0.5769(3) 0.87810(19) 0.41106(19)
C72 C 0.5804(2) 0.80142(16) 0.32087(15)
N41 N 0.3762(2) 0.80452(17) 0.27243(17)
N42 N 0.2643(2) 0.49955(17) 0.66523(17)
N43 N 0.2553(2) 0.35552(17) 0.55590(17)
C75 C 0.2640(3) 0.71735(19) 0.43196(19)
H57 H 0.291050 0.743975 0.408331
N44 N 0.6212(3) 0.8919(2) 0.4468(2)
C76 C 0.5369(2) 0.90679(15) 0.29635(17)
C77 C 0.4720(2) 0.79314(15) 0.40776(16)
C79 C 0.7559(2) 0.94801(17) 0.13090(17)
C80 C 0.4940(2) 0.69415(16) 0.61993(16)
C81 C 0.5568(3) 0.76521(19) 0.56384(18)
H59 H 0.559379 0.787666 0.529221
C83 C 0.4258(3) 0.65218(17) 0.62324(17)
H60 H 0.410745 0.646536 0.664549
H61 H 0.440523 0.614327 0.606909
C84 C 0.5484(3) 0.70073(19) 0.66520(18)
H62 H 0.545063 0.677926 0.699537
N45 N 0.17163(18) 0.3939(2) 0.6598(2)
C87 C 0.09093(19) 0.3950(3) 0.6570(2)
H64 H 0.066094 0.414798 0.626061
C88 C 0.04734(16) 0.3665(4) 0.7004(3)
C89 C 0.0845(2) 0.3370(3) 0.7467(3)
H66 H 0.055293 0.317923 0.775743
C90 C 0.1652(2) 0.3359(3) 0.7495(3)
H67 H 0.189988 0.316103 0.780426
C91 C 0.20874(17) 0.3644(3) 0.7060(3)
C92 C 0.4303(3) 0.90706(19) 0.38499(19)
C93 C 0.7227(3) 0.87132(18) 0.1934(2)
H68 H 0.690370 0.855694 0.222604
C94 C 0.2610(3) 0.65542(18) 0.5141(2)
C97 C 0.3281(3) 0.78412(18) 0.60215(17)
N46 N 0.3897(3) 0.9417(2) 0.4035(2)
C98 C 0.8189(3) 0.9167(2) 0.1090(2)
H73 H 0.851441 0.932982 0.080303
C99 C 0.3274(3) 0.4911(2) 0.6991(2)
C100 C 0.3166(3) 0.3222(2) 0.57425(18)
C101 C 0.6066(3) 0.7406(2) 0.6591(2)
H74 H 0.642758 0.745561 0.689595
C102 C 0.6120(3) 0.7740(2) 0.6074(2)
H75 H 0.651604 0.801432 0.602409
C103 C 0.2931(3) 0.3615(2) 0.7040(2)
H76 H 0.313305 0.376519 0.741503
H77 H 0.308273 0.320526 0.701267
C104 C 0.3797(3) 0.4419(2) 0.6788(2)
H78 H 0.410122 0.427454 0.712212
H79 H 0.415235 0.456161 0.648495
C105 C 0.3743(2) 0.3535(2) 0.6146(2)
H80 H 0.411303 0.375351 0.590731
H81 H 0.402644 0.325041 0.638364
C106 C 0.3717(3) 0.84751(19) 0.5296(2)
H82 H 0.394856 0.853333 0.492617
C107 C 0.3176(3) 0.72231(19) 0.62418(19)
H83 H 0.262589 0.712996 0.623481
H84 H 0.334727 0.720464 0.665397
C108 C 0.1884(3) 0.7026(2) 0.4171(3)
H85 H 0.164619 0.719083 0.383780
C110 C 0.7228(3) 0.9633(2) 0.3252(2)
H87 H 0.680725 0.940200 0.336469
C111 C 0.3049(2) 0.63110(18) 0.56741(19)
H88 H 0.332988 0.595917 0.555928
H89 H 0.268659 0.620783 0.598815
C113 C 0.2019(3) 0.3303(2) 0.5207(2)
H91 H 0.158973 0.352152 0.508754
C114 C 0.8322(3) 0.8614(2) 0.1308(3)
H92 H 0.873550 0.839365 0.116205
C115 C 0.3248(4) 0.2652(2) 0.5576(2)
H93 H 0.367072 0.243337 0.570826
C116 C 0.3434(4) 0.5237(3) 0.7488(3)
H94 H 0.388014 0.516461 0.771079
C117 C 0.7855(3) 0.8386(2) 0.1733(3)
H95 H 0.795308 0.801404 0.188826
C118 C 0.3133(4) 0.8860(3) 0.6150(3)
H96 H 0.297102 0.917986 0.637544
C119 C 0.3484(5) 0.8948(2) 0.5605(3)
H97 H 0.355764 0.932473 0.545620
C120 C 0.2139(4) 0.5422(2) 0.6803(2)
H98 H 0.169328 0.548038 0.657459
C121 C 0.1848(3) 0.6389(2) 0.5018(3)
H99 H 0.158914 0.612232 0.526146
C122 C 0.3023(4) 0.8306(2) 0.6356(2)
H100 H 0.277583 0.824301 0.671937
C124 C 0.7855(5) 0.9644(3) 0.3611(3)
H102 H 0.786523 0.943098 0.396534
C125 C 0.2944(5) 0.5660(3) 0.7649(4)
H103 H 0.304093 0.587790 0.799273
C126 C 0.2687(4) 0.2396(3) 0.5202(3)
H104 H 0.272731 0.200542 0.508358
C127 C 0.2280(5) 0.5781(3) 0.7304(3)
H105 H 0.194576 0.608648 0.740278
C128 C 0.2086(4) 0.2735(3) 0.5018(3)
H106 H 0.171500 0.257953 0.476004
C129 C 0.1488(4) 0.6630(3) 0.4526(3)
H107 H 0.097880 0.652691 0.443243
C130 C 0.8484(5) 0.9981(4) 0.3440(3)
H108 H 0.892630 0.999831 0.367839
C132 C 0.9987(2) 0.5780(2) 0.5296(2)
N48 N 0.9960(3) 0.6259(2) 0.5473(3)
Co9 Co 0.62912(3) 0.51494(2) 0.70693(2)
Co10 Co 0.37088(3) 0.48506(2) 0.29307(2)
N49 N 0.55712(18) 0.98062(12) 0.12802(13)
N50 N 0.44288(18) 0.01938(12) 0.87198(13)
H65 H 0.993346 0.367271 0.698561
Fe3 Fe -0.000000 -0.000000 0.000000
Fe3_2 Fe 0.000000 -0.000000 1.000000
Fe3_3 Fe -0.000000 1.000000 0.000000
H65_2 H 0.006654 0.867271 0.801439
Fe3_4 Fe 0.000000 1.000000 1.000000
Fe1_2 Fe 0.500000 -0.000000 0.000000
Co4_2 Co 0.24673(3) 0.06358(2) 0.09872(2)
N3_2 N 0.33741(17) 0.02755(14) 0.04590(14)
N14_2 N 0.33129(19) 0.10577(16) 0.15430(15)
N15_2 N 0.1587(2) 0.02524(16) 0.05292(16)
C3_2 C 0.3974(2) 0.01654(14) 0.02695(14)
N18_2 N 0.2643(2) 0.00045(17) 0.16523(17)
N19_2 N 0.2553(2) 0.14448(17) 0.05590(17)
C16_2 C 0.0998(2) 0.01345(18) 0.03178(19)
N22_2 N 0.17163(18) 0.1061(2) 0.1598(2)
C22_2 C 0.09093(19) 0.1050(3) 0.1570(2)
H10_2 H 0.066094 0.085202 0.126061
C23_2 C 0.04734(16) 0.1335(4) 0.2004(3)
C24_2 C 0.0845(2) 0.1630(3) 0.2467(3)
H12_2 H 0.055293 0.182077 0.275743
C25_2 C 0.1652(2) 0.1641(3) 0.2495(3)
H13_2 H 0.189988 0.183897 0.280426
C26_2 C 0.20874(17) 0.1356(3) 0.2060(3)
C35_2 C 0.3274(3) 0.0089(2) 0.1991(2)
C36_2 C 0.3166(3) 0.1778(2) 0.07425(18)
C39_2 C 0.2931(3) 0.1385(2) 0.2040(2)
H22_2 H 0.313305 0.123481 0.241503
H23_2 H 0.308273 0.179474 0.201267
C40_2 C 0.3797(3) 0.0581(2) 0.1788(2)
H24_2 H 0.410122 0.072546 0.212212
H25_2 H 0.415235 0.043839 0.148495
C41_2 C 0.3743(2) 0.1465(2) 0.1146(2)
H26_2 H 0.411303 0.124649 0.090731
H27_2 H 0.402644 0.174959 0.138364
C49_2 C 0.2019(3) 0.1697(2) 0.0207(2)
H37_2 H 0.158973 0.147848 0.008754
C51_2 C 0.3248(4) 0.2348(2) 0.0576(2)
H39_2 H 0.367072 0.256663 0.070826
C62_2 C 0.2687(4) 0.2604(3) 0.0202(3)
H50_2 H 0.272731 0.299458 0.008358
C64_2 C 0.2086(4) 0.2265(3) 0.0018(3)
Co7_2 Co 0.49675(3) 0.35172(2) 0.14623(2)
N25_2 N 0.70100(19) 0.19379(13) 0.01998(14)
N26_2 N 0.29236(18) 0.42548(13) 0.32855(14)
N29 N 0.41606(17) 0.56566(12) 0.26889(13)
N30_2 N 0.54644(18) 0.12899(13) 0.01191(13)
N31 N 0.29445(17) 0.54346(12) 0.33860(13)
N32_2 N 0.2823(2) 0.49360(14) 0.22550(15)
C67_2 C 0.52687(19) 0.08078(14) 0.00888(14)
N33_2 N 0.5496(2) 0.25738(13) 0.05930(14)
N35_2 N 0.4394(2) 0.43651(13) 0.24026(15)
N40_2 N 0.3697(3) 0.27452(17) 0.19900(16)
C70_2 C 0.5753(3) 0.32291(16) 0.19889(17)
C71_2 C 0.4231(3) 0.37810(19) 0.08894(19)
C72_2 C 0.4196(2) 0.30142(16) 0.17913(15)
N41_2 N 0.6238(2) 0.30452(17) 0.22757(17)
C73 C 0.3437(2) 0.59415(15) 0.35657(17)
H55 H 0.311202 0.627507 0.366616
H56 H 0.374382 0.583905 0.391427
C74 C 0.3963(2) 0.60974(15) 0.30579(17)
C75_2 C 0.7360(3) 0.21735(19) 0.06804(19)
H57_2 H 0.708950 0.243975 0.091669
N44_2 N 0.3788(3) 0.3919(2) 0.0532(2)
C76_2 C 0.4631(2) 0.40679(15) 0.20365(17)
C77_2 C 0.5280(2) 0.29314(15) 0.09224(16)
C78 C 0.4606(3) 0.57758(19) 0.22139(18)
H58 H 0.472488 0.547312 0.195061
C79_2 C 0.2441(2) 0.44801(17) 0.36910(17)
C85 C 0.4896(3) 0.6332(2) 0.2100(2)
H63 H 0.520046 0.640406 0.176548
C86 C 0.2237(2) 0.52663(19) 0.24277(19)
C92_2 C 0.5697(3) 0.40706(19) 0.11501(19)
C93_2 C 0.2773(3) 0.37132(18) 0.3066(2)
H68_2 H 0.309630 0.355694 0.277396
C95 C 0.2631(2) 0.50919(16) 0.38955(16)
H69 H 0.301311 0.507687 0.421417
H70 H 0.216693 0.528059 0.404810
C96 C 0.2320(2) 0.56332(18) 0.29804(18)
H71 H 0.183068 0.562788 0.319521
H72 H 0.242231 0.603639 0.286429
N46_2 N 0.6103(3) 0.4417(2) 0.0965(2)
C98_2 C 0.1811(3) 0.4167(2) 0.3910(2)
H73_2 H 0.148559 0.432982 0.419697
H82_2 H 0.605144 0.353333 0.007383
C108_2 C 0.8116(3) 0.2026(2) 0.0829(3)
H85_2 H 0.835381 0.219083 0.116220
C109 C 0.4721(3) 0.6774(2) 0.2493(3)
H86 H 0.492034 0.714924 0.243376
C110_2 C 0.2772(3) 0.4633(2) 0.1748(2)
H87_2 H 0.319275 0.440200 0.163531
C112 C 0.4252(3) 0.66603(18) 0.2974(2)
H90 H 0.412890 0.695843 0.324131
C114_2 C 0.1678(3) 0.3614(2) 0.3692(3)
H92_2 H 0.126450 0.339365 0.383795
C117_2 C 0.2145(3) 0.3386(2) 0.3267(3)
H95_2 H 0.204692 0.301404 0.311174
C123 C 0.1550(4) 0.5288(3) 0.2085(3)
H101 H 0.112572 0.550745 0.221342
C124_2 C 0.2145(5) 0.4644(3) 0.1389(3)
H102_2 H 0.213477 0.443098 0.103466
C129_2 C 0.8512(4) 0.1630(3) 0.0474(3)
H107_2 H 0.902120 0.152691 0.056757
C130_2 C 0.1516(5) 0.4981(4) 0.1560(3)
H108_2 H 0.107370 0.499831 0.132161
Fe3_5 Fe 1.000000 -0.000000 0.000000
Fe1_3 Fe 0.500000 -0.000000 1.000000
H52_2 H 0.171500 0.242047 0.976004
Co6_2 Co 0.59101(3) 0.21412(2) 0.98901(2)
N34_2 N 0.5010(2) 0.22540(13) 0.93091(13)
C68_2 C 0.46680(18) 0.01356(13) 0.91963(14)
N36_2 N 0.63976(19) 0.17623(13) 0.91063(13)
N37_2 N 0.6370(2) 0.29178(14) 0.95046(14)
C80_2 C 0.5060(2) 0.19415(16) 0.88007(16)
C81_2 C 0.4432(3) 0.26521(19) 0.93616(18)
H59_2 H 0.440621 0.287666 0.970779
C83_2 C 0.5742(3) 0.15218(17) 0.87676(17)
H60_2 H 0.589255 0.146536 0.835451
H61_2 H 0.559477 0.114327 0.893091
C84_2 C 0.4516(3) 0.20073(19) 0.83480(18)
H62_2 H 0.454937 0.177926 0.800463
C94_2 C 0.7390(3) 0.15542(18) 0.9859(2)
C97_2 C 0.6719(3) 0.28412(18) 0.89785(17)
C101_2 C 0.3934(3) 0.2406(2) 0.8409(2)
H74_2 H 0.357242 0.245561 0.810405
C102_2 C 0.3880(3) 0.2740(2) 0.8926(2)
H75_2 H 0.348396 0.301432 0.897591
C106_2 C 0.6283(3) 0.34751(19) 0.9704(2)
C107_2 C 0.6824(3) 0.22231(19) 0.87582(19)
H83_2 H 0.737411 0.212996 0.876519
H84_2 H 0.665273 0.220464 0.834603
C111_2 C 0.6951(2) 0.13110(18) 0.93259(19)
H88_2 H 0.667012 0.095917 0.944072
H89_2 H 0.731341 0.120783 0.901185
C116_2 C 0.6566(4) 0.0237(3) 0.7512(3)
H94_2 H 0.611986 0.016461 0.728921
C118_2 C 0.6867(4) 0.3860(3) 0.8850(3)
H96_2 H 0.702898 0.417986 0.862456
C119_2 C 0.6516(5) 0.3948(2) 0.9395(3)
H97_2 H 0.644236 0.432473 0.954380
C120_2 C 0.7861(4) 0.0422(2) 0.8197(2)
H98_2 H 0.830672 0.048038 0.842541
C121_2 C 0.8152(3) 0.1389(2) 0.9982(3)
H99_2 H 0.841086 0.112232 0.973854
C122_2 C 0.6977(4) 0.3306(2) 0.8644(2)
H100_2 H 0.722417 0.324301 0.828063
C125_2 C 0.7056(5) 0.0660(3) 0.7351(4)
H103_2 H 0.695907 0.087790 0.700727
C127_2 C 0.7720(5) 0.0781(3) 0.7696(3)
H105_2 H 0.805424 0.108648 0.759722
C132_2 C 0.0013(2) 0.0780(2) 0.9704(2)
N48_2 N 0.0040(3) 0.1259(2) 0.9527(3)
Fe3_6 Fe 1.000000 -0.000000 1.000000
Fe1_4 Fe 0.500000 1.000000 0.000000
Co2_2 Co 0.40899(3) 0.78588(2) 0.01099(2)
N10_2 N 0.4990(2) 0.77460(13) 0.06909(13)
C2_2 C 0.53320(18) 0.98644(13) 0.08037(14)
N12_2 N 0.36024(19) 0.82377(13) 0.08937(13)
N13_2 N 0.3630(2) 0.70822(14) 0.04954(14)
C14_2 C 0.4940(2) 0.80585(16) 0.11993(16)
C15_2 C 0.5568(3) 0.73479(19) 0.06384(18)
H5_2 H 0.559379 0.712334 0.029221
C17_2 C 0.4258(3) 0.84782(17) 0.12324(17)
H6_2 H 0.410745 0.853464 0.164549
H7_2 H 0.440523 0.885673 0.106909
C18_2 C 0.5484(3) 0.79927(19) 0.16520(18)
H8_2 H 0.545063 0.822074 0.199537
C30_2 C 0.2610(3) 0.84458(18) 0.0141(2)
C33_2 C 0.3281(3) 0.71588(18) 0.10215(17)
C37_2 C 0.6066(3) 0.7594(2) 0.1591(2)
H20_2 H 0.642758 0.754439 0.189595
C38_2 C 0.6120(3) 0.7260(2) 0.1074(2)
H21_2 H 0.651604 0.698568 0.102409
C42_2 C 0.3717(3) 0.65249(19) 0.0296(2)
C43_2 C 0.3176(3) 0.77769(19) 0.12418(19)
H29_2 H 0.262589 0.787004 0.123481
H30_2 H 0.334727 0.779536 0.165397
C47_2 C 0.3049(2) 0.86890(18) 0.06741(19)
H34_2 H 0.332988 0.904083 0.055928
H35_2 H 0.268659 0.879217 0.098815
C52_2 C 0.3434(4) 0.9763(3) 0.2488(3)
H40_2 H 0.388014 0.983539 0.271079
C54_2 C 0.3133(4) 0.6140(3) 0.1150(3)
H42_2 H 0.297102 0.582014 0.137544
C55_2 C 0.3484(5) 0.6052(2) 0.0605(3)
H43_2 H 0.355764 0.567527 0.045620
C56_2 C 0.2139(4) 0.9578(2) 0.1803(2)
H44_2 H 0.169328 0.951962 0.157459
C57_2 C 0.1848(3) 0.8611(2) 0.0018(3)
H45_2 H 0.158914 0.887768 0.026146
C58_2 C 0.3023(4) 0.6694(2) 0.1356(2)
H46_2 H 0.277583 0.675699 0.171937
C61_2 C 0.2944(5) 0.9340(3) 0.2649(4)
H49_2 H 0.304093 0.912210 0.299273
C63_2 C 0.2280(5) 0.9219(3) 0.2304(3)
H51_2 H 0.194576 0.891352 0.240278
H106_2 H 0.828500 0.757953 0.023996
Fe3_7 Fe 1.000000 1.000000 0.000000
Fe1_5 Fe 0.500000 1.000000 1.000000
Co3_2 Co 0.50325(3) 0.64828(2) 0.85377(2)
N1_2 N 0.29900(19) 0.80621(13) 0.98002(14)
N2_2 N 0.70764(18) 0.57452(13) 0.67145(14)
N5 N 0.58394(17) 0.43434(12) 0.73111(13)
N6_2 N 0.45356(18) 0.87101(13) 0.98809(13)
N7 N 0.70555(17) 0.45654(12) 0.66140(13)
N8_2 N 0.7177(2) 0.50640(14) 0.77450(15)
C1_2 C 0.47313(19) 0.91922(14) 0.99112(14)
N9_2 N 0.4504(2) 0.74262(13) 0.94070(14)
N11_2 N 0.5606(2) 0.56349(13) 0.75974(15)
N16_2 N 0.6303(3) 0.72548(17) 0.80100(16)
C4_2 C 0.4247(3) 0.67709(16) 0.80111(17)
C5_2 C 0.5769(3) 0.62190(19) 0.91106(19)
C6_2 C 0.5804(2) 0.69858(16) 0.82087(15)
N17_2 N 0.3762(2) 0.69548(17) 0.77243(17)
C7 C 0.6563(2) 0.40585(15) 0.64343(17)
H1 H 0.688798 0.372493 0.633384
H2 H 0.625618 0.416095 0.608573
C8 C 0.6037(2) 0.39026(15) 0.69421(17)
C9_2 C 0.2640(3) 0.78265(19) 0.93196(19)
H3_2 H 0.291050 0.756025 0.908331
N20_2 N 0.6212(3) 0.6081(2) 0.9468(2)
C10_2 C 0.5369(2) 0.59321(15) 0.79635(17)
C11_2 C 0.4720(2) 0.70686(15) 0.90776(16)
C12 C 0.5394(3) 0.42242(19) 0.77861(18)
H4 H 0.527512 0.452688 0.804939
C13_2 C 0.7559(2) 0.55199(17) 0.63090(17)
N21_2 N 0.0684(2) 0.9552(2) 0.8833(2)
C19 C 0.5104(3) 0.3668(2) 0.7900(2)
H9 H 0.479954 0.359594 0.823452
C20 C 0.7763(2) 0.47337(19) 0.75723(19)
C21_2 C 0.0437(2) 0.9722(2) 0.9269(2)
C28_2 C 0.4303(3) 0.59294(19) 0.88499(19)
C29_2 C 0.7227(3) 0.62868(18) 0.6934(2)
H14_2 H 0.690370 0.644306 0.722604
C31 C 0.7369(2) 0.49081(16) 0.61045(16)
H15 H 0.698689 0.492313 0.578583
H16 H 0.783307 0.471941 0.595190
C32 C 0.7680(2) 0.43668(18) 0.70196(18)
H17 H 0.816932 0.437212 0.680479
H18 H 0.757769 0.396361 0.713571
N23_2 N 0.3897(3) 0.5583(2) 0.9035(2)
C34_2 C 0.8189(3) 0.5833(2) 0.6090(2)
H19_2 H 0.851441 0.567018 0.580303
H28_2 H 0.394856 0.646667 0.992617
C44_2 C 0.1884(3) 0.7974(2) 0.9171(3)
H31_2 H 0.164619 0.780917 0.883780
C45 C 0.5279(3) 0.3226(2) 0.7507(3)
H32 H 0.507966 0.285076 0.756624
C46_2 C 0.7228(3) 0.5367(2) 0.8252(2)
H33_2 H 0.680725 0.559800 0.836469
C48 C 0.5748(3) 0.33397(18) 0.7026(2)
H36 H 0.587110 0.304157 0.675869
C50_2 C 0.8322(3) 0.6386(2) 0.6308(3)
H38_2 H 0.873550 0.660635 0.616205
C53_2 C 0.7855(3) 0.6614(2) 0.6733(3)
H41_2 H 0.795308 0.698596 0.688826
C59 C 0.8450(4) 0.4712(3) 0.7915(3)
H47 H 0.887428 0.449255 0.778658
C60_2 C 0.7855(5) 0.5356(3) 0.8611(3)
H48_2 H 0.786523 0.556902 0.896534
C65_2 C 0.1488(4) 0.8370(3) 0.9526(3)
H53_2 H 0.097880 0.847309 0.943243
C66_2 C 0.8484(5) 0.5019(4) 0.8440(3)
H54_2 H 0.892630 0.500169 0.867839
Co8_2 Co 0.75327(3) 0.93642(2) 0.90128(2)
N27_2 N 0.66259(17) 0.97245(14) 0.95410(14)
N38_2 N 0.66871(19) 0.89423(16) 0.84570(15)
N39_2 N 0.8413(2) 0.97476(16) 0.94708(16)
C69_2 C 0.6026(2) 0.98346(14) 0.97305(14)
N42_2 N 0.7357(2) 0.99955(17) 0.83477(17)
N43_2 N 0.7447(2) 0.85552(17) 0.94410(17)
C82 C 0.9002(2) 0.98655(18) 0.96822(19)
N45_2 N 0.82837(18) 0.8939(2) 0.8402(2)
C87_2 C 0.90907(19) 0.8950(3) 0.8430(2)
H64_2 H 0.933906 0.914798 0.873939
C88_2 C 0.95266(16) 0.8665(4) 0.7996(3)
C89_2 C 0.9155(2) 0.8370(3) 0.7533(3)
H66_2 H 0.944707 0.817923 0.724257
C90_2 C 0.8348(2) 0.8359(3) 0.7505(3)
H67_2 H 0.810012 0.816103 0.719574
C91_2 C 0.79126(17) 0.8644(3) 0.7940(3)
C99_2 C 0.6726(3) 0.9911(2) 0.8009(2)
C100_2 C 0.6834(3) 0.8222(2) 0.92575(18)
C103_2 C 0.7069(3) 0.8615(2) 0.7960(2)
H76_2 H 0.686695 0.876519 0.758497
H77_2 H 0.691727 0.820526 0.798733
C104_2 C 0.6203(3) 0.9419(2) 0.8212(2)
H78_2 H 0.589878 0.927454 0.787788
H79_2 H 0.584765 0.956161 0.851505
C105_2 C 0.6257(2) 0.8535(2) 0.8854(2)
H80_2 H 0.588697 0.875351 0.909269
H81_2 H 0.597356 0.825041 0.861636
C113_2 C 0.7981(3) 0.8303(2) 0.9793(2)
H91_2 H 0.841027 0.852152 0.991246
C115_2 C 0.6752(4) 0.7652(2) 0.9424(2)
H93_2 H 0.632928 0.743337 0.929174
C126_2 C 0.7313(4) 0.7396(3) 0.9798(3)
H104_2 H 0.727269 0.700542 0.991642
C128_2 C 0.7914(4) 0.7735(3) 0.9982(3)
Fe3_8 Fe 1.000000 1.000000 1.000000
H11_2 H 0.993346 0.132729 0.198561
N47_2 N 0.9316(2) 0.0448(2) 0.1167(2)
C131_2 C 0.9563(2) 0.0278(2) 0.0731(2)
C27_2 C 0.9987(2) 0.9220(2) 0.0296(2)
N24_2 N 0.9960(3) 0.8741(2) 0.0473(3)
N29_2 N 0.58394(17) 0.06566(12) 0.23111(13)
N31_2 N 0.70555(17) 0.04346(12) 0.16140(13)
C73_2 C 0.6563(2) 0.09415(15) 0.14343(17)
H55_2 H 0.688798 0.127507 0.133384
H56_2 H 0.625618 0.083905 0.108573
C74_2 C 0.6037(2) 0.10974(15) 0.19421(17)
C78_2 C 0.5394(3) 0.07758(19) 0.27861(18)
H58_2 H 0.527512 0.047312 0.304939
C85_2 C 0.5104(3) 0.1332(2) 0.2900(2)
H63_2 H 0.479954 0.140406 0.323452
C86_2 C 0.7763(2) 0.02663(19) 0.25723(19)
C95_2 C 0.7369(2) 0.00919(16) 0.11045(16)
H69_2 H 0.698689 0.007687 0.078583
H70_2 H 0.783307 0.028059 0.095190
C96_2 C 0.7680(2) 0.06332(18) 0.20196(18)
H71_2 H 0.816932 0.062788 0.180479
H72_2 H 0.757769 0.103639 0.213571
C109_2 C 0.5279(3) 0.1774(2) 0.2507(3)
H86_2 H 0.507966 0.214924 0.256624
C112_2 C 0.5748(3) 0.16603(18) 0.2026(2)
H90_2 H 0.587110 0.195843 0.175869
C123_2 C 0.8450(4) 0.0288(3) 0.2915(3)
H101_2 H 0.887428 0.050745 0.278658
N5_2 N 0.41606(17) 0.93434(12) 0.76889(13)
N7_2 N 0.29445(17) 0.95654(12) 0.83860(13)
C7_2 C 0.3437(2) 0.90585(15) 0.85657(17)
H1_2 H 0.311202 0.872493 0.866616
H2_2 H 0.374382 0.916095 0.891427
C8_2 C 0.3963(2) 0.89026(15) 0.80579(17)
C12_2 C 0.4606(3) 0.92242(19) 0.72139(18)
H4_2 H 0.472488 0.952688 0.695061
C19_2 C 0.4896(3) 0.8668(2) 0.7100(2)
H9_2 H 0.520046 0.859594 0.676548
C20_2 C 0.2237(2) 0.97337(19) 0.74277(19)
C31_2 C 0.2631(2) 0.99081(16) 0.88955(16)
H15_2 H 0.301311 0.992313 0.921417
H16_2 H 0.216693 0.971941 0.904810
C32_2 C 0.2320(2) 0.93668(18) 0.79804(18)
H17_2 H 0.183068 0.937212 0.819521
H18_2 H 0.242231 0.896361 0.786429
C45_2 C 0.4721(3) 0.8226(2) 0.7493(3)
H32_2 H 0.492034 0.785076 0.743376
C48_2 C 0.4252(3) 0.83397(18) 0.7974(2)
H36_2 H 0.412890 0.804157 0.824131
C59_2 C 0.1550(4) 0.9712(3) 0.7085(3)
H47_2 H 0.112572 0.949255 0.721342
loop_
_geom_bond_atom_site_label_1
_geom_bond_atom_site_label_2
_geom_bond_site_symmetry_1
_geom_bond_site_symmetry_2
C27 Fe2 1_555 1_555
N24 C27 1_555 1_555
N47 C131 1_555 1_555
C131 Fe2 1_555 1_555
C133 Fe2 1_555 1_555
Fe1 C1 1_555 1_555
Co1 N2 1_555 1_555
Co2 N1 1_555 1_555
Co3 C4 1_555 1_555
Fe2_2 C16 1_555 1_555
Co4 N3 1_555 1_555
N1 C9 1_555 1_555
N2 C13 1_555 1_555
N3 C3 1_555 1_555
N4 C2 1_555 1_555
N6 Co2 1_555 1_555
N8 Co1 1_555 1_555
C1 N6 1_555 1_555
N9 Co2 1_555 1_555
N10 Co2 1_555 1_555
N11 Co1 1_555 1_555
C2 Fe1 1_555 1_555
N12 Co2 1_555 1_555
N13 Co2 1_555 1_555
N14 Co4 1_555 1_555
N15 Co4 1_555 1_555
N16 C6 1_555 1_555
C3 Fe1 1_555 1_555
C4 N17 1_555 1_555
C5 Co3 1_555 1_555
C6 Co3 1_555 1_555
N18 Co4 1_555 1_555
N19 Co4 1_555 1_555
C9 H3 1_555 1_555
N20 C5 1_555 1_555
C10 Co3 1_555 1_555
C11 Co3 1_555 1_555
N21 C21 1_555 1_555
C14 N10 1_555 1_555
C15 N10 1_555 1_555
H5 C15 1_555 1_555
C16 N15 1_555 1_555
C17 N12 1_555 1_555
H6 C17 1_555 1_555
H7 C17 1_555 1_555
C18 C14 1_555 1_555
H8 C18 1_555 1_555
C21 Fe2_2 1_555 1_555
N22 Co4 1_555 1_555
C22 N22 1_555 1_555
H10 C22 1_555 1_555
C23 C22 1_555 1_555
C24 C23 1_555 1_555
H12 C24 1_555 1_555
C25 C24 1_555 1_555
H13 C25 1_555 1_555
C26 N22 1_555 1_555
C28 Co3 1_555 1_555
C29 N2 1_555 1_555
H14 C29 1_555 1_555
C30 N1 1_555 1_555
C33 N13 1_555 1_555
N23 C28 1_555 1_555
C34 C13 1_555 1_555
H19 C34 1_555 1_555
C35 N18 1_555 1_555
C36 N19 1_555 1_555
C37 C18 1_555 1_555
H20 C37 1_555 1_555
C38 C15 1_555 1_555
H21 C38 1_555 1_555
C39 N14 1_555 1_555
H22 C39 1_555 1_555
H23 C39 1_555 1_555
C40 N14 1_555 1_555
H24 C40 1_555 1_555
H25 C40 1_555 1_555
C41 N14 1_555 1_555
H26 C41 1_555 1_555
H27 C41 1_555 1_555
C42 N13 1_555 1_555
H28 C42 1_555 1_555
C43 N12 1_555 1_555
H29 C43 1_555 1_555
H30 C43 1_555 1_555
C44 C9 1_555 1_555
H31 C44 1_555 1_555
C46 N8 1_555 1_555
H33 C46 1_555 1_555
C47 N12 1_555 1_555
H34 C47 1_555 1_555
H35 C47 1_555 1_555
C49 N19 1_555 1_555
H37 C49 1_555 1_555
C50 C34 1_555 1_555
H38 C50 1_555 1_555
C51 C36 1_555 1_555
H39 C51 1_555 1_555
C52 C35 1_555 1_555
H40 C52 1_555 1_555
C53 C29 1_555 1_555
H41 C53 1_555 1_555
C54 H42 1_555 1_555
C55 C42 1_555 1_555
H43 C55 1_555 1_555
C56 N18 1_555 1_555
H44 C56 1_555 1_555
C57 C30 1_555 1_555
H45 C57 1_555 1_555
C58 C33 1_555 1_555
H46 C58 1_555 1_555
C60 C46 1_555 1_555
H48 C60 1_555 1_555
C61 C52 1_555 1_555
H49 C61 1_555 1_555
C62 C51 1_555 1_555
H50 C62 1_555 1_555
C63 C56 1_555 1_555
H51 C63 1_555 1_555
C64 C49 1_555 1_555
H52 C64 1_555 1_555
C65 C44 1_555 1_555
H53 C65 1_555 1_555
H54 C66 1_555 1_555
Co5 N26 1_555 1_555
Co6 N25 1_555 1_555
Co7 C70 1_555 1_555
Co8 N27 1_555 1_555
N25 C75 1_555 1_555
N26 C79 1_555 1_555
N27 C69 1_555 1_555
N28 C68 1_555 1_555
N30 Co6 1_555 1_555
N32 Co5 1_555 1_555
C67 Fe1 1_555 1_555
N33 Co6 1_555 1_555
N34 Co6 1_555 1_555
N35 Co5 1_555 1_555
C68 Fe1 1_555 1_555
N36 Co6 1_555 1_555
N37 Co6 1_555 1_555
N38 Co8 1_555 1_555
N39 Co8 1_555 1_555
N40 C72 1_555 1_555
C69 Fe1 1_555 1_555
C70 N41 1_555 1_555
C71 Co7 1_555 1_555
C72 Co7 1_555 1_555
N42 Co8 1_555 1_555
N43 Co8 1_555 1_555
C75 H57 1_555 1_555
N44 C71 1_555 1_555
C76 Co7 1_555 1_555
C77 Co7 1_555 1_555
C80 N34 1_555 1_555
C81 N34 1_555 1_555
H59 C81 1_555 1_555
C133 N39 1_555 1_555
C83 N36 1_555 1_555
H60 C83 1_555 1_555
H61 C83 1_555 1_555
C84 C80 1_555 1_555
H62 C84 1_555 1_555
N45 Co8 1_555 1_555
C87 N45 1_555 1_555
H64 C87 1_555 1_555
C88 C87 1_555 1_555
C89 C88 1_555 1_555
H66 C89 1_555 1_555
C90 C89 1_555 1_555
H67 C90 1_555 1_555
C91 N45 1_555 1_555
C92 Co7 1_555 1_555
C93 N26 1_555 1_555
H68 C93 1_555 1_555
C94 N25 1_555 1_555
C97 N37 1_555 1_555
N46 C92 1_555 1_555
C98 C79 1_555 1_555
H73 C98 1_555 1_555
C99 N42 1_555 1_555
C100 N43 1_555 1_555
C101 C84 1_555 1_555
H74 C101 1_555 1_555
C102 C81 1_555 1_555
H75 C102 1_555 1_555
C103 N38 1_555 1_555
H76 C103 1_555 1_555
H77 C103 1_555 1_555
C104 N38 1_555 1_555
H78 C104 1_555 1_555
H79 C104 1_555 1_555
C105 N38 1_555 1_555
H80 C105 1_555 1_555
H81 C105 1_555 1_555
C106 N37 1_555 1_555
H82 C106 1_555 1_555
C107 N36 1_555 1_555
H83 C107 1_555 1_555
H84 C107 1_555 1_555
C108 C75 1_555 1_555
H85 C108 1_555 1_555
C110 N32 1_555 1_555
H87 C110 1_555 1_555
C111 N36 1_555 1_555
H88 C111 1_555 1_555
H89 C111 1_555 1_555
C113 N43 1_555 1_555
H91 C113 1_555 1_555
C114 C98 1_555 1_555
H92 C114 1_555 1_555
C115 C100 1_555 1_555
H93 C115 1_555 1_555
C116 C99 1_555 1_555
H94 C116 1_555 1_555
C117 C93 1_555 1_555
H95 C117 1_555 1_555
C118 H96 1_555 1_555
C119 C106 1_555 1_555
H97 C119 1_555 1_555
C120 N42 1_555 1_555
H98 C120 1_555 1_555
C121 C94 1_555 1_555
H99 C121 1_555 1_555
C122 C97 1_555 1_555
H100 C122 1_555 1_555
C124 C110 1_555 1_555
H102 C124 1_555 1_555
C125 C116 1_555 1_555
H103 C125 1_555 1_555
C126 C115 1_555 1_555
H104 C126 1_555 1_555
C127 C120 1_555 1_555
H105 C127 1_555 1_555
C128 C113 1_555 1_555
H106 C128 1_555 1_555
C129 C108 1_555 1_555
H107 C129 1_555 1_555
H108 C130 1_555 1_555
C132 Fe2_2 1_555 1_555
N48 C132 1_555 1_555
Co9 N28 1_555 1_555
Co10 N4 1_555 1_555
N49 Co5 1_555 1_555
N50 Co1 1_555 1_555
N9 C11 1_555 1_555
N11 C10 1_555 1_555
C14 C17 1_555 1_555
C25 C26 1_555 1_555
C26 C39 1_555 1_555
C30 C47 1_555 1_555
C33 C43 1_555 1_555
C35 C40 1_555 1_555
C36 C41 1_555 1_555
C37 C38 1_555 1_555
C50 C53 1_555 1_555
C54 C55 1_555 1_555
C54 C58 1_555 1_555
C57 C65 1_555 1_555
C60 C66 1_555 1_555
C61 C63 1_555 1_555
C62 C64 1_555 1_555
N30 C67 1_555 1_555
N33 C77 1_555 1_555
N35 C76 1_555 1_555
C80 C83 1_555 1_555
C90 C91 1_555 1_555
C91 C103 1_555 1_555
C94 C111 1_555 1_555
C97 C107 1_555 1_555
C99 C104 1_555 1_555
C100 C105 1_555 1_555
C101 C102 1_555 1_555
C114 C117 1_555 1_555
C118 C119 1_555 1_555
C118 C122 1_555 1_555
C121 C129 1_555 1_555
C124 C130 1_555 1_555
C125 C127 1_555 1_555
C126 C128 1_555 1_555
Fe3 C16_2 1_555 1_555
Co4_2 N3_2 1_555 1_555
N3_2 C3_2 1_555 1_555
N14_2 Co4_2 1_555 1_555
N15_2 Co4_2 1_555 1_555
C3_2 Fe1_2 1_555 1_555
N18_2 Co4_2 1_555 1_555
N19_2 Co4_2 1_555 1_555
C16_2 N15_2 1_555 1_555
N22_2 Co4_2 1_555 1_555
C22_2 N22_2 1_555 1_555
H10_2 C22_2 1_555 1_555
C23_2 C22_2 1_555 1_555
C24_2 C23_2 1_555 1_555
H12_2 C24_2 1_555 1_555
C25_2 C24_2 1_555 1_555
H13_2 C25_2 1_555 1_555
C26_2 N22_2 1_555 1_555
C35_2 N18_2 1_555 1_555
C36_2 N19_2 1_555 1_555
C39_2 N14_2 1_555 1_555
H22_2 C39_2 1_555 1_555
H23_2 C39_2 1_555 1_555
C40_2 N14_2 1_555 1_555
H24_2 C40_2 1_555 1_555
H25_2 C40_2 1_555 1_555
C41_2 N14_2 1_555 1_555
H26_2 C41_2 1_555 1_555
H27_2 C41_2 1_555 1_555
C49_2 N19_2 1_555 1_555
H37_2 C49_2 1_555 1_555
C51_2 C36_2 1_555 1_555
H39_2 C51_2 1_555 1_555
C62_2 C51_2 1_555 1_555
H50_2 C62_2 1_555 1_555
C64_2 C49_2 1_555 1_555
Co10 N26_2 1_555 1_555
Co7_2 C70_2 1_555 1_555
N25_2 C75_2 1_555 1_555
N26_2 C79_2 1_555 1_555
N29 Co10 1_555 1_555
N31 Co10 1_555 1_555
N32_2 Co10 1_555 1_555
C67_2 Fe1_2 1_555 1_555
N35_2 Co10 1_555 1_555
N40_2 C72_2 1_555 1_555
C70_2 N41_2 1_555 1_555
C71_2 Co7_2 1_555 1_555
C72_2 Co7_2 1_555 1_555
C73 N31 1_555 1_555
H55 C73 1_555 1_555
H56 C73 1_555 1_555
C74 N29 1_555 1_555
C75_2 H57_2 1_555 1_555
N44_2 C71_2 1_555 1_555
C76_2 Co7_2 1_555 1_555
C77_2 Co7_2 1_555 1_555
C78 N29 1_555 1_555
H58 C78 1_555 1_555
C79_2 C95 1_555 1_555
C85 C78 1_555 1_555
H63 C85 1_555 1_555
C86 N32_2 1_555 1_555
C92_2 Co7_2 1_555 1_555
C93_2 N26_2 1_555 1_555
H68_2 C93_2 1_555 1_555
C95 N31 1_555 1_555
H69 C95 1_555 1_555
H70 C95 1_555 1_555
C96 N31 1_555 1_555
H71 C96 1_555 1_555
H72 C96 1_555 1_555
N46_2 C92_2 1_555 1_555
C98_2 C79_2 1_555 1_555
H73_2 C98_2 1_555 1_555
C108_2 C75_2 1_555 1_555
H85_2 C108_2 1_555 1_555
C109 C85 1_555 1_555
H86 C109 1_555 1_555
C110_2 N32_2 1_555 1_555
H87_2 C110_2 1_555 1_555
C112 C74 1_555 1_555
H90 C112 1_555 1_555
C114_2 C98_2 1_555 1_555
H92_2 C114_2 1_555 1_555
C117_2 C93_2 1_555 1_555
H95_2 C117_2 1_555 1_555
C123 C86 1_555 1_555
H101 C123 1_555 1_555
C124_2 C110_2 1_555 1_555
H102_2 C124_2 1_555 1_555
C129_2 C108_2 1_555 1_555
H107_2 C129_2 1_555 1_555
C130_2 C123 1_555 1_555
H108_2 C130_2 1_555 1_555
C25_2 C26_2 1_555 1_555
C26_2 C39_2 1_555 1_555
C35_2 C40_2 1_555 1_555
C36_2 C41_2 1_555 1_555
C62_2 C64_2 1_555 1_555
N30_2 C67_2 1_555 1_555
N33_2 C77_2 1_555 1_555
N35_2 C76_2 1_555 1_555
C73 C74 1_555 1_555
C86 C96 1_555 1_555
C109 C112 1_555 1_555
C114_2 C117_2 1_555 1_555
C124_2 C130_2 1_555 1_555
N50 C68_2 1_555 1_555
N34_2 Co6_2 1_555 1_555
C68_2 Fe1_3 1_555 1_555
N36_2 Co6_2 1_555 1_555
N37_2 Co6_2 1_555 1_555
C80_2 N34_2 1_555 1_555
C81_2 N34_2 1_555 1_555
H59_2 C81_2 1_555 1_555
C83_2 N36_2 1_555 1_555
H60_2 C83_2 1_555 1_555
H61_2 C83_2 1_555 1_555
C84_2 C80_2 1_555 1_555
H62_2 C84_2 1_555 1_555
C97_2 N37_2 1_555 1_555
C101_2 C84_2 1_555 1_555
H74_2 C101_2 1_555 1_555
C102_2 C81_2 1_555 1_555
H75_2 C102_2 1_555 1_555
C106_2 N37_2 1_555 1_555
C107_2 N36_2 1_555 1_555
H83_2 C107_2 1_555 1_555
H84_2 C107_2 1_555 1_555
C111_2 N36_2 1_555 1_555
H88_2 C111_2 1_555 1_555
H89_2 C111_2 1_555 1_555
H94_2 C116_2 1_555 1_555
C118_2 H96_2 1_555 1_555
C119_2 C106_2 1_555 1_555
H97_2 C119_2 1_555 1_555
H98_2 C120_2 1_555 1_555
C121_2 C94_2 1_555 1_555
H99_2 C121_2 1_555 1_555
C122_2 C97_2 1_555 1_555
H100_2 C122_2 1_555 1_555
C125_2 C116_2 1_555 1_555
H103_2 C125_2 1_555 1_555
C127_2 C120_2 1_555 1_555
H105_2 C127_2 1_555 1_555
C132_2 Fe3_2 1_555 1_555
N48_2 C132_2 1_555 1_555
C80_2 C83_2 1_555 1_555
C94_2 C111_2 1_555 1_555
C97_2 C107_2 1_555 1_555
C101_2 C102_2 1_555 1_555
C118_2 C119_2 1_555 1_555
C118_2 C122_2 1_555 1_555
C125_2 C127_2 1_555 1_555
N49 C2_2 1_555 1_555
N10_2 Co2_2 1_555 1_555
C2_2 Fe1_4 1_555 1_555
N12_2 Co2_2 1_555 1_555
N13_2 Co2_2 1_555 1_555
C14_2 N10_2 1_555 1_555
C15_2 N10_2 1_555 1_555
H5_2 C15_2 1_555 1_555
C17_2 N12_2 1_555 1_555
H6_2 C17_2 1_555 1_555
H7_2 C17_2 1_555 1_555
C18_2 C14_2 1_555 1_555
H8_2 C18_2 1_555 1_555
C33_2 N13_2 1_555 1_555
C37_2 C18_2 1_555 1_555
H20_2 C37_2 1_555 1_555
C38_2 C15_2 1_555 1_555
H21_2 C38_2 1_555 1_555
C42_2 N13_2 1_555 1_555
C43_2 N12_2 1_555 1_555
H29_2 C43_2 1_555 1_555
H30_2 C43_2 1_555 1_555
C47_2 N12_2 1_555 1_555
H34_2 C47_2 1_555 1_555
H35_2 C47_2 1_555 1_555
H40_2 C52_2 1_555 1_555
C54_2 H42_2 1_555 1_555
C55_2 C42_2 1_555 1_555
H43_2 C55_2 1_555 1_555
H44_2 C56_2 1_555 1_555
C57_2 C30_2 1_555 1_555
H45_2 C57_2 1_555 1_555
C58_2 C33_2 1_555 1_555
H46_2 C58_2 1_555 1_555
C61_2 C52_2 1_555 1_555
H49_2 C61_2 1_555 1_555
C63_2 C56_2 1_555 1_555
H51_2 C63_2 1_555 1_555
C14_2 C17_2 1_555 1_555
C30_2 C47_2 1_555 1_555
C33_2 C43_2 1_555 1_555
C37_2 C38_2 1_555 1_555
C54_2 C55_2 1_555 1_555
C54_2 C58_2 1_555 1_555
C61_2 C63_2 1_555 1_555
Fe1_5 C1_2 1_555 1_555
Co9 N2_2 1_555 1_555
Co3_2 C4_2 1_555 1_555
N1_2 C9_2 1_555 1_555
N2_2 C13_2 1_555 1_555
N5 Co9 1_555 1_555
N7 Co9 1_555 1_555
N8_2 Co9 1_555 1_555
C1_2 N6_2 1_555 1_555
N11_2 Co9 1_555 1_555
N16_2 C6_2 1_555 1_555
C4_2 N17_2 1_555 1_555
C5_2 Co3_2 1_555 1_555
C6_2 Co3_2 1_555 1_555
C7 N7 1_555 1_555
H1 C7 1_555 1_555
H2 C7 1_555 1_555
C8 N5 1_555 1_555
C9_2 H3_2 1_555 1_555
N20_2 C5_2 1_555 1_555
C10_2 Co3_2 1_555 1_555
C11_2 Co3_2 1_555 1_555
C12 N5 1_555 1_555
H4 C12 1_555 1_555
C13_2 C31 1_555 1_555
N21_2 C21_2 1_555 1_555
C19 C12 1_555 1_555
H9 C19 1_555 1_555
C20 N8_2 1_555 1_555
C21_2 Fe3_4 1_555 1_555
C28_2 Co3_2 1_555 1_555
C29_2 N2_2 1_555 1_555
H14_2 C29_2 1_555 1_555
C31 N7 1_555 1_555
H15 C31 1_555 1_555
H16 C31 1_555 1_555
C32 N7 1_555 1_555
H17 C32 1_555 1_555
H18 C32 1_555 1_555
N23_2 C28_2 1_555 1_555
C34_2 C13_2 1_555 1_555
H19_2 C34_2 1_555 1_555
C44_2 C9_2 1_555 1_555
H31_2 C44_2 1_555 1_555
C45 C19 1_555 1_555
H32 C45 1_555 1_555
C46_2 N8_2 1_555 1_555
H33_2 C46_2 1_555 1_555
C48 C8 1_555 1_555
H36 C48 1_555 1_555
C50_2 C34_2 1_555 1_555
H38_2 C50_2 1_555 1_555
C53_2 C29_2 1_555 1_555
H41_2 C53_2 1_555 1_555
C59 C20 1_555 1_555
H47 C59 1_555 1_555
C60_2 C46_2 1_555 1_555
H48_2 C60_2 1_555 1_555
C65_2 C44_2 1_555 1_555
H53_2 C65_2 1_555 1_555
C66_2 C59 1_555 1_555
H54_2 C66_2 1_555 1_555
Co8_2 N27_2 1_555 1_555
N27_2 C69_2 1_555 1_555
N38_2 Co8_2 1_555 1_555
N39_2 Co8_2 1_555 1_555
C69_2 Fe1_5 1_555 1_555
N42_2 Co8_2 1_555 1_555
N43_2 Co8_2 1_555 1_555
C82 N39_2 1_555 1_555
N45_2 Co8_2 1_555 1_555
C87_2 N45_2 1_555 1_555
H64_2 C87_2 1_555 1_555
C88_2 C87_2 1_555 1_555
C89_2 C88_2 1_555 1_555
H66_2 C89_2 1_555 1_555
C90_2 C89_2 1_555 1_555
H67_2 C90_2 1_555 1_555
C91_2 N45_2 1_555 1_555
C99_2 N42_2 1_555 1_555
C100_2 N43_2 1_555 1_555
C103_2 N38_2 1_555 1_555
H76_2 C103_2 1_555 1_555
H77_2 C103_2 1_555 1_555
C104_2 N38_2 1_555 1_555
H78_2 C104_2 1_555 1_555
H79_2 C104_2 1_555 1_555
C105_2 N38_2 1_555 1_555
H80_2 C105_2 1_555 1_555
H81_2 C105_2 1_555 1_555
C113_2 N43_2 1_555 1_555
H91_2 C113_2 1_555 1_555
C115_2 C100_2 1_555 1_555
H93_2 C115_2 1_555 1_555
C126_2 C115_2 1_555 1_555
H104_2 C126_2 1_555 1_555
C128_2 C113_2 1_555 1_555
Fe3_8 C82 1_555 1_555
N9_2 C11_2 1_555 1_555
N11_2 C10_2 1_555 1_555
C7 C8 1_555 1_555
C20 C32 1_555 1_555
C45 C48 1_555 1_555
C50_2 C53_2 1_555 1_555
C60_2 C66_2 1_555 1_555
C90_2 C91_2 1_555 1_555
C91_2 C103_2 1_555 1_555
C99_2 C104_2 1_555 1_555
C100_2 C105_2 1_555 1_555
C126_2 C128_2 1_555 1_555
N47_2 C131_2 1_555 1_555
C131_2 Fe3_5 1_555 1_555
C27_2 Fe3_7 1_555 1_555
N24_2 C27_2 1_555 1_555
C73_2 N31_2 1_555 1_555
H55_2 C73_2 1_555 1_555
H56_2 C73_2 1_555 1_555
C74_2 N29_2 1_555 1_555
C78_2 N29_2 1_555 1_555
H58_2 C78_2 1_555 1_555
C85_2 C78_2 1_555 1_555
H63_2 C85_2 1_555 1_555
C95_2 N31_2 1_555 1_555
H69_2 C95_2 1_555 1_555
H70_2 C95_2 1_555 1_555
C96_2 N31_2 1_555 1_555
H71_2 C96_2 1_555 1_555
H72_2 C96_2 1_555 1_555
C109_2 C85_2 1_555 1_555
H86_2 C109_2 1_555 1_555
C112_2 C74_2 1_555 1_555
H90_2 C112_2 1_555 1_555
C123_2 C86_2 1_555 1_555
H101_2 C123_2 1_555 1_555
C73_2 C74_2 1_555 1_555
C86_2 C96_2 1_555 1_555
C109_2 C112_2 1_555 1_555
C7_2 N7_2 1_555 1_555
H1_2 C7_2 1_555 1_555
H2_2 C7_2 1_555 1_555
C8_2 N5_2 1_555 1_555
C12_2 N5_2 1_555 1_555
H4_2 C12_2 1_555 1_555
C19_2 C12_2 1_555 1_555
H9_2 C19_2 1_555 1_555
C31_2 N7_2 1_555 1_555
H15_2 C31_2 1_555 1_555
H16_2 C31_2 1_555 1_555
C32_2 N7_2 1_555 1_555
H17_2 C32_2 1_555 1_555
H18_2 C32_2 1_555 1_555
C45_2 C19_2 1_555 1_555
H32_2 C45_2 1_555 1_555
C48_2 C8_2 1_555 1_555
H36_2 C48_2 1_555 1_555
C59_2 C20_2 1_555 1_555
H47_2 C59_2 1_555 1_555
C7_2 C8_2 1_555 1_555
C20_2 C32_2 1_555 1_555
C45_2 C48_2 1_555 1_555

#END
