
###############################################################################
#
# This file contains modified crystal structure data generated from the
# MOF subset of the Cambridge Structural Database (CSD) v543 
# hosted by the Cambridge Crystallographic Data Centre (CCDC).
#
# This work is licensed under the Creative Commons
# Attribution-NonCommercial-ShareAlike 4.0 International License.
# To view a copy of this license, visit
# http://creativecommons.org/licenses/by-nc-sa/4.0/
# or send a letter to
# Creative Commons, PO Box 1866, Mountain View, CA 94042, USA.
#
# CIF created using the CSD Python API on 29 September 2022
# The structure has been converted into the P1 space group
# The structure has a 3D framework
# The original CSD entry JELLAR04 is in the monoclinic crystal system
# The framework has been calculated to contain at least 10.0% void space
# The void calculation uses a probe of radius 1.32A, grid spacing 0.4
#
###############################################################################

data_JELLAR04
_chemical_formula_moiety         '(C264 H216 Co16 Fe11 N96)n'
_symmetry_cell_setting           triclinic
_symmetry_space_group_name_H-M   'P 1'
_symmetry_Int_Tables_number      1
_space_group_name_Hall           'P 1'
loop_
_symmetry_equiv_pos_site_id
_symmetry_equiv_pos_as_xyz
1 x,y,z
_cell_length_a                   17.2227(8)
_cell_length_b                   23.1538(10)
_cell_length_c                   22.5074(12)
_cell_angle_alpha                90
_cell_angle_beta                 90.388(5)
_cell_angle_gamma                90
_cell_volume                     8975.09
loop_
_atom_site_label
_atom_site_type_symbol
_atom_site_fract_x
_atom_site_fract_y
_atom_site_fract_z
Fe2 Fe 0.000000 -0.000000 0.500000
N23 N 0.0056(3) 0.1222(3) 0.5463(3)
C66 C 0.0023(3) 0.0761(3) 0.5291(3)
C133 C 0.0985(3) 0.0133(2) 0.4679(2)
Fe2_2 Fe 0.000000 1.000000 0.500000
H47 H 0.009259 0.872701 0.701456
N47 N 0.0709(3) 0.9559(3) 0.6166(3)
C131 C 0.0440(3) 0.9732(3) 0.5729(3)
Fe1 Fe 0.500000 -0.000000 0.500000
Fe2_3 Fe 1.000000 -0.000000 0.500000
N20 N 0.7383(3) 0.0012(2) 0.66530(19)
N22 N 0.9291(3) 0.0441(3) 0.3834(3)
C60 C 0.6599(5) 0.0279(4) 0.7455(4)
H51 H 0.615793 0.021273 0.768203
C61 C 0.7077(5) 0.0713(4) 0.7599(4)
H52 H 0.697215 0.095150 0.792086
C62 C 0.7708(5) 0.0797(3) 0.7269(4)
H53 H 0.804162 0.110021 0.736178
C63 C 0.7878(4) 0.0439(3) 0.6789(3)
H54 H 0.832545 0.049664 0.656744
C65 C 0.9560(3) 0.0268(3) 0.4271(3)
Co5 Co 0.37713(3) 0.47977(2) 0.20677(2)
Co6 Co 0.50141(4) 0.34193(2) 0.34781(3)
Co7 Co 0.59375(3) 0.20917(2) 0.50616(2)
Co8 Co 0.24484(3) 0.06161(3) 0.40137(3)
N25 N 0.2889(2) 0.48879(17) 0.27574(18)
N26 N 0.4196(2) 0.56211(14) 0.22978(17)
N27 N 0.2956(2) 0.53703(15) 0.16240(16)
N28 N 0.2956(2) 0.42102(16) 0.17087(17)
N29 N 0.4466(2) 0.43102(15) 0.25913(17)
N30 N 0.3809(4) 0.3788(2) 0.4377(3)
N31 N 0.6227(4) 0.4228(3) 0.3998(3)
N32 N 0.6261(3) 0.2986(2) 0.2642(2)
N33 N 0.3758(3) 0.2668(2) 0.2938(2)
N34 N 0.5526(2) 0.25049(15) 0.43445(17)
N35 N 0.7037(2) 0.18853(16) 0.47682(18)
N36 N 0.6408(3) 0.28635(17) 0.54576(18)
N37 N 0.6431(2) 0.17297(15) 0.58508(16)
N38 N 0.5042(2) 0.22163(16) 0.56331(16)
N39 N 0.5475(2) 0.12506(14) 0.48416(15)
N40 N 0.4471(2) 0.02297(14) 0.62676(16)
N41 N 0.33731(19) 0.02682(16) 0.45419(17)
N42 N 0.2557(3) 0.1426(2) 0.4425(2)
N43 N 0.3292(2) 0.10264(18) 0.34466(19)
N45 N 0.1574(2) 0.02442(19) 0.4467(2)
C67 C 0.2857(4) 0.4598(3) 0.3271(3)
H55 H 0.328409 0.437863 0.338642
C68 C 0.2231(5) 0.4609(4) 0.3628(4)
H56 H 0.223136 0.440753 0.398536
C69 C 0.1596(6) 0.4924(5) 0.3454(4)
H57 H 0.115564 0.493232 0.369073
C70 C 0.1611(5) 0.5230(4) 0.2925(4)
H58 H 0.118612 0.544859 0.280172
C71 C 0.2280(3) 0.5200(2) 0.2583(2)
C72 C 0.2337(3) 0.5549(2) 0.2038(2)
H59 H 0.184242 0.553157 0.182932
H60 H 0.242470 0.594867 0.214966
C73 C 0.4650(3) 0.5746(2) 0.2765(2)
H61 H 0.480142 0.544937 0.301955
C74 C 0.4898(3) 0.6294(2) 0.2881(3)
H62 H 0.522357 0.636897 0.320308
C75 C 0.4662(4) 0.6727(3) 0.2521(3)
H63 H 0.481988 0.710465 0.259317
C76 C 0.4186(4) 0.6602(2) 0.2046(3)
H64 H 0.402231 0.689413 0.179029
C77 C 0.3954(3) 0.60437(19) 0.1952(2)
C78 C 0.3428(3) 0.5870(2) 0.1439(2)
H65 H 0.373745 0.576813 0.109644
H66 H 0.309191 0.618944 0.133075
C79 C 0.2651(3) 0.5036(2) 0.1113(2)
H67 H 0.218906 0.522209 0.095486
H68 H 0.303647 0.502170 0.080092
C80 C 0.2460(3) 0.4439(2) 0.1313(2)
C81 C 0.1816(3) 0.4142(3) 0.1116(3)
H69 H 0.146708 0.431292 0.085171
C82 C 0.1699(4) 0.3594(3) 0.1314(4)
H70 H 0.128536 0.337738 0.116653
C83 C 0.2173(4) 0.3369(3) 0.1717(3)
H71 H 0.207700 0.300151 0.186737
C84 C 0.2824(3) 0.3682(2) 0.1920(3)
H72 H 0.315922 0.352156 0.219973
C85 C 0.4695(3) 0.39887(17) 0.2936(2)
C86 C 0.4265(4) 0.3664(2) 0.4039(2)
C87 C 0.5754(4) 0.3923(2) 0.3810(2)
C88 C 0.5784(3) 0.31495(18) 0.2946(2)
C89 C 0.4239(3) 0.29371(19) 0.3140(2)
C90 C 0.5329(3) 0.28426(17) 0.40089(19)
C91 C 0.6323(5) 0.3399(3) 0.5272(3)
H73 H 0.612811 0.345944 0.489093
C92 C 0.6501(6) 0.3858(3) 0.5602(4)
H74 H 0.642263 0.422933 0.545425
C93 C 0.6791(6) 0.3780(4) 0.6144(4)
H75 H 0.689333 0.409598 0.638715
C94 C 0.6941(5) 0.3227(3) 0.6348(3)
H76 H 0.717323 0.316563 0.671670
C95 C 0.6738(3) 0.2779(2) 0.5993(2)
C96 C 0.6872(3) 0.2174(2) 0.6190(2)
H77 H 0.673420 0.214337 0.660624
H78 H 0.742211 0.208903 0.615897
C97 C 0.7384(3) 0.2114(2) 0.4296(3)
H79 H 0.711136 0.236997 0.405384
C98 C 0.8151(4) 0.1975(3) 0.4161(4)
H80 H 0.839750 0.213593 0.383404
C99 C 0.8526(4) 0.1592(3) 0.4525(4)
H81 H 0.904078 0.149612 0.444989
C100 C 0.8170(4) 0.1358(3) 0.4982(4)
H82 H 0.842563 0.108548 0.521597
C101 C 0.7419(3) 0.1517(2) 0.5113(3)
C102 C 0.6970(3) 0.1282(2) 0.5636(2)
H83 H 0.732691 0.117290 0.595168
H84 H 0.668105 0.094154 0.551585
C103 C 0.5773(3) 0.1507(2) 0.6191(2)
H85 H 0.561409 0.113530 0.603263
H86 H 0.592668 0.145312 0.660282
C104 C 0.5102(3) 0.1926(2) 0.61555(19)
C105 C 0.4596(3) 0.2022(2) 0.6608(2)
H87 H 0.464673 0.182014 0.696356
C106 C 0.4014(4) 0.2418(3) 0.6536(3)
H88 H 0.366432 0.248781 0.684004
C107 C 0.3953(3) 0.2713(3) 0.6006(3)
H89 H 0.356720 0.298870 0.594779
C108 C 0.4465(3) 0.2593(2) 0.5574(2)
H90 H 0.441187 0.278420 0.521249
C109 C 0.5276(2) 0.07872(16) 0.48839(16)
C110 C 0.4685(2) 0.01560(15) 0.57970(17)
C111 C 0.3977(2) 0.01577(15) 0.47312(17)
C112 C 0.2066(4) 0.1673(3) 0.4783(3)
H91 H 0.167149 0.144884 0.494264
C113 C 0.2098(5) 0.2234(4) 0.4935(4)
H92 H 0.171223 0.239984 0.516563
C114 C 0.2718(5) 0.2557(4) 0.4739(4)
H93 H 0.278142 0.293923 0.485787
C115 C 0.3238(4) 0.2301(3) 0.4366(3)
H94 H 0.364553 0.251495 0.421015
C116 C 0.3161(3) 0.1734(2) 0.4222(2)
C117 C 0.3720(3) 0.1427(2) 0.3826(2)
H95 H 0.409777 0.121792 0.406380
H96 H 0.399524 0.170518 0.358300
C118 C 0.2899(3) 0.1345(3) 0.2950(3)
H97 H 0.307626 0.118316 0.257751
H98 H 0.306733 0.174414 0.296381
C119 C 0.2059(2) 0.1335(2) 0.2949(2)
C120 C 0.1624(3) 0.1607(3) 0.2508(2)
H99 H 0.187268 0.180475 0.220391
C121 C 0.0818(3) 0.1584(3) 0.2522(3)
H100 H 0.052718 0.176581 0.222670
C122 C 0.0447(2) 0.1289(3) 0.2976(3)
C123 C 0.0882(2) 0.1017(3) 0.3417(2)
H102 H 0.063314 0.081912 0.372139
N46 N 0.16877(19) 0.1040(2) 0.34036(19)
C124 C 0.3770(3) 0.0561(3) 0.3207(3)
H103 H 0.406247 0.070100 0.286996
H104 H 0.413476 0.042901 0.350786
C125 C 0.3251(3) 0.0066(3) 0.3015(3)
Co9 Co 0.37713(3) 0.02023(2) 0.70677(2)
N49 N 0.4471(2) 0.47703(14) 0.12676(16)
Co1 Co 0.62287(3) 0.52023(2) 0.79323(2)
Co2 Co 0.49859(4) 0.65807(2) 0.65219(3)
Co3 Co 0.40625(3) 0.79083(2) 0.49384(2)
Co4 Co 0.75516(3) 0.93839(3) 0.59863(3)
Fe1_2 Fe 0.500000 1.000000 0.500000
Fe2_4 Fe 1.000000 1.000000 0.500000
N1 N 0.7111(2) 0.51121(17) 0.72426(18)
N2 N 0.5804(2) 0.43789(14) 0.77022(17)
N3 N 0.7044(2) 0.46297(15) 0.83760(16)
N4 N 0.7044(2) 0.57898(16) 0.82913(17)
N5 N 0.5534(2) 0.56898(15) 0.74087(17)
N6 N 0.6191(4) 0.6212(2) 0.5623(3)
N7 N 0.3773(4) 0.5772(3) 0.6002(3)
N8 N 0.3739(3) 0.7014(2) 0.7358(2)
N9 N 0.6242(3) 0.7332(2) 0.7062(2)
N10 N 0.4474(2) 0.74951(15) 0.56555(17)
N11 N 0.2963(2) 0.81147(16) 0.52318(18)
N12 N 0.3592(3) 0.71365(17) 0.45424(18)
N13 N 0.3569(2) 0.82703(15) 0.41492(16)
N14 N 0.4958(2) 0.77837(16) 0.43669(16)
N15 N 0.4525(2) 0.87494(14) 0.51584(15)
N16 N 0.5529(2) 0.97703(14) 0.37324(16)
N17 N 0.66269(19) 0.97318(16) 0.54581(17)
N18 N 0.7443(3) 0.8574(2) 0.5575(2)
N19 N 0.6708(2) 0.89736(18) 0.65534(19)
N21 N 0.8426(2) 0.97558(19) 0.5533(2)
C1 C 0.7143(4) 0.5402(3) 0.6729(3)
H1 H 0.671591 0.562137 0.661358
C2 C 0.7769(5) 0.5391(4) 0.6372(4)
H2 H 0.776864 0.559247 0.601464
C3 C 0.8404(6) 0.5076(5) 0.6546(4)
H3 H 0.884436 0.506768 0.630927
C4 C 0.8389(5) 0.4770(4) 0.7075(4)
H4 H 0.881388 0.455141 0.719828
C5 C 0.7720(3) 0.4800(2) 0.7417(2)
C6 C 0.7663(3) 0.4451(2) 0.7962(2)
H5 H 0.815758 0.446843 0.817068
H6 H 0.757530 0.405133 0.785034
C7 C 0.5350(3) 0.4254(2) 0.7235(2)
H7 H 0.519858 0.455063 0.698045
C8 C 0.5102(3) 0.3706(2) 0.7119(3)
H8 H 0.477643 0.363103 0.679692
C9 C 0.5338(4) 0.3273(3) 0.7479(3)
H9 H 0.518012 0.289535 0.740683
C10 C 0.5814(4) 0.3398(2) 0.7954(3)
H10 H 0.597769 0.310587 0.820971
C11 C 0.6046(3) 0.39563(19) 0.8048(2)
C12 C 0.6572(3) 0.4130(2) 0.8561(2)
H11 H 0.626255 0.423187 0.890356
H12 H 0.690809 0.381056 0.866925
C13 C 0.7349(3) 0.4964(2) 0.8887(2)
H13 H 0.781094 0.477791 0.904514
H14 H 0.696353 0.497830 0.919908
C14 C 0.7540(3) 0.5561(2) 0.8687(2)
C15 C 0.8184(3) 0.5858(3) 0.8884(3)
H15 H 0.853292 0.568708 0.914829
C16 C 0.8301(4) 0.6406(3) 0.8686(4)
H16 H 0.871464 0.662262 0.883347
C17 C 0.7827(4) 0.6631(3) 0.8283(3)
H17 H 0.792300 0.699849 0.813263
C18 C 0.7176(3) 0.6318(2) 0.8080(3)
H18 H 0.684078 0.647844 0.780027
C19 C 0.5305(3) 0.60113(17) 0.7064(2)
C20 C 0.5735(4) 0.6336(2) 0.5961(2)
C21 C 0.4246(4) 0.6077(2) 0.6190(2)
C22 C 0.4216(3) 0.68505(18) 0.7054(2)
C23 C 0.5761(3) 0.70629(19) 0.6860(2)
C24 C 0.4671(3) 0.71574(17) 0.59911(19)
C25 C 0.3677(5) 0.6601(3) 0.4728(3)
H19 H 0.387189 0.654056 0.510907
C26 C 0.3499(6) 0.6142(3) 0.4398(4)
H20 H 0.357737 0.577067 0.454575
C27 C 0.3209(6) 0.6220(4) 0.3856(4)
H21 H 0.310667 0.590402 0.361285
C28 C 0.3059(5) 0.6773(3) 0.3652(3)
H22 H 0.282677 0.683437 0.328330
C29 C 0.3262(3) 0.7221(2) 0.4007(2)
C30 C 0.3128(3) 0.7826(2) 0.3810(2)
H23 H 0.326580 0.785663 0.339376
H24 H 0.257789 0.791097 0.384103
C31 C 0.2616(3) 0.7886(2) 0.5704(3)
H25 H 0.288864 0.763003 0.594616
C32 C 0.1849(4) 0.8025(3) 0.5839(4)
H26 H 0.160250 0.786407 0.616596
C33 C 0.1474(4) 0.8408(3) 0.5475(4)
H27 H 0.095922 0.850388 0.555011
C34 C 0.1830(4) 0.8642(3) 0.5018(4)
H28 H 0.157437 0.891452 0.478403
C35 C 0.2581(3) 0.8483(2) 0.4887(3)
C36 C 0.3030(3) 0.8718(2) 0.4364(2)
H29 H 0.267309 0.882710 0.404832
H30 H 0.331895 0.905846 0.448415
C37 C 0.4227(3) 0.8493(2) 0.3809(2)
H31 H 0.438591 0.886470 0.396737
H32 H 0.407332 0.854688 0.339718
C38 C 0.4898(3) 0.8074(2) 0.38445(19)
C39 C 0.5404(3) 0.7978(2) 0.3392(2)
H33 H 0.535327 0.817986 0.303644
C40 C 0.5986(4) 0.7582(3) 0.3464(3)
H34 H 0.633568 0.751219 0.315996
C41 C 0.6047(3) 0.7287(3) 0.3994(3)
H35 H 0.643280 0.701130 0.405221
C42 C 0.5535(3) 0.7407(2) 0.4426(2)
H36 H 0.558813 0.721580 0.478751
C43 C 0.4724(2) 0.92128(16) 0.51161(16)
C44 C 0.5315(2) 0.98440(15) 0.42030(17)
C45 C 0.6023(2) 0.98423(15) 0.52688(17)
C46 C 0.7934(4) 0.8327(3) 0.5217(3)
H37 H 0.832851 0.855116 0.505736
C47 C 0.7902(5) 0.7766(4) 0.5065(4)
H38 H 0.828777 0.760016 0.483437
C48 C 0.7282(5) 0.7443(4) 0.5261(4)
H39 H 0.721858 0.706077 0.514213
C49 C 0.6762(4) 0.7699(3) 0.5634(3)
H40 H 0.635447 0.748505 0.578985
C50 C 0.6839(3) 0.8266(2) 0.5778(2)
C51 C 0.6280(3) 0.8573(2) 0.6174(2)
H41 H 0.590223 0.878208 0.593620
H42 H 0.600476 0.829482 0.641700
C52 C 0.7101(3) 0.8655(3) 0.7050(3)
H43 H 0.692374 0.881684 0.742249
H44 H 0.693267 0.825586 0.703619
C53 C 0.7941(2) 0.8665(2) 0.7051(2)
C54 C 0.8376(3) 0.8393(3) 0.7492(2)
H45 H 0.812732 0.819525 0.779609
C55 C 0.9182(3) 0.8416(3) 0.7478(3)
H46 H 0.947282 0.823419 0.777330
C56 C 0.9553(2) 0.8711(3) 0.7024(3)
C57 C 0.9118(2) 0.8983(3) 0.6583(2)
H48 H 0.936686 0.918088 0.627861
N24 N 0.83123(19) 0.8960(2) 0.65964(19)
C58 C 0.6230(3) 0.9439(3) 0.6793(3)
H49 H 0.593753 0.929900 0.713004
H50 H 0.586524 0.957099 0.649214
C59 C 0.6749(3) 0.9934(3) 0.6985(3)
C64 C 0.9015(3) 0.9867(2) 0.5321(2)
N44 N 0.2617(3) 0.9988(2) 0.33470(19)
C126 C 0.3401(5) 0.9721(4) 0.2545(4)
H105 H 0.384207 0.978727 0.231797
C127 C 0.2923(5) 0.9287(4) 0.2401(4)
H106 H 0.302785 0.904850 0.207914
C128 C 0.2292(5) 0.9203(3) 0.2731(4)
H107 H 0.195838 0.889979 0.263822
C129 C 0.2122(4) 0.9561(3) 0.3211(3)
H108 H 0.167455 0.950336 0.343256
N48 N 0.9944(3) 0.8778(3) 0.4537(3)
C132 C 0.9977(3) 0.9239(3) 0.4709(3)
Co10 Co 0.62287(3) 0.97977(2) 0.29323(2)
N50 N 0.5529(2) 0.52297(14) 0.87324(16)
H101 H 0.990741 0.127299 0.298544
H101_2 H 0.009259 0.627299 0.201456
Fe3 Fe -0.000000 0.500000 0.000000
Fe3_2 Fe 0.000000 0.500000 1.000000
Co3_2 Co 0.59375(3) 0.29083(2) 0.00616(2)
Fe1_3 Fe 0.500000 0.500000 0.000000
N12_2 N 0.6408(3) 0.21365(17) 0.04576(18)
N13_2 N 0.6431(2) 0.32703(15) 0.08508(16)
N14_2 N 0.5042(2) 0.27837(16) 0.06331(16)
N22_2 N 0.0709(3) 0.5441(3) 0.1166(3)
C25_2 C 0.6323(5) 0.1601(3) 0.0272(3)
C26_2 C 0.6501(6) 0.1142(3) 0.0602(4)
H20_2 H 0.642263 0.077067 0.045425
C27_2 C 0.6791(6) 0.1220(4) 0.1144(4)
H21_2 H 0.689333 0.090402 0.138715
C28_2 C 0.6941(5) 0.1773(3) 0.1348(3)
H22_2 H 0.717323 0.183437 0.171670
C29_2 C 0.6738(3) 0.2221(2) 0.0993(2)
C30_2 C 0.6872(3) 0.2826(2) 0.1190(2)
H23_2 H 0.673420 0.285663 0.160624
H24_2 H 0.742211 0.291097 0.115897
H28_2 H 0.842563 0.391452 0.021597
C35_2 C 0.7419(3) 0.3483(2) 0.0113(3)
C36_2 C 0.6970(3) 0.3718(2) 0.0636(2)
H29_2 H 0.732691 0.382710 0.095168
H30_2 H 0.668105 0.405846 0.051585
C37_2 C 0.5773(3) 0.3493(2) 0.1191(2)
H31_2 H 0.561409 0.386470 0.103263
H32_2 H 0.592668 0.354688 0.160282
C38_2 C 0.5102(3) 0.3074(2) 0.11555(19)
C39_2 C 0.4596(3) 0.2978(2) 0.1608(2)
H33_2 H 0.464673 0.317986 0.196356
C40_2 C 0.4014(4) 0.2582(3) 0.1536(3)
H34_2 H 0.366432 0.251219 0.184004
C41_2 C 0.3953(3) 0.2287(3) 0.1006(3)
H35_2 H 0.356720 0.201130 0.094779
C42_2 C 0.4465(3) 0.2407(2) 0.0574(2)
H36_2 H 0.441187 0.221580 0.021249
C44_2 C 0.4685(2) 0.48440(15) 0.07970(17)
H38_2 H 0.171223 0.260016 0.016563
C65_2 C 0.0440(3) 0.5268(3) 0.0729(3)
Co6_2 Co 0.49859(4) 0.84193(2) 0.15219(3)
Co8_2 Co 0.75516(3) 0.56161(3) 0.09863(3)
N25_2 N 0.7111(2) 0.98879(17) 0.22426(18)
N28_2 N 0.7044(2) 0.92102(16) 0.32913(17)
N29_2 N 0.5534(2) 0.93102(15) 0.24087(17)
N30_2 N 0.6191(4) 0.8788(2) 0.0623(3)
N31_2 N 0.3773(4) 0.9228(3) 0.1002(3)
N32_2 N 0.3739(3) 0.7986(2) 0.2358(2)
N33_2 N 0.6242(3) 0.7668(2) 0.2062(2)
N34_2 N 0.4474(2) 0.75049(15) 0.06555(17)
N35_2 N 0.2963(2) 0.68853(16) 0.02318(18)
N39_2 N 0.4525(2) 0.62506(14) 0.01584(15)
N41_2 N 0.66269(19) 0.52682(16) 0.04581(17)
N42_2 N 0.7443(3) 0.6426(2) 0.0575(2)
N43_2 N 0.6708(2) 0.60264(18) 0.15534(19)
N44_2 N 0.7383(3) 0.4988(2) 0.16530(19)
N45_2 N 0.8426(2) 0.52442(19) 0.0533(2)
C67_2 C 0.7143(4) 0.9598(3) 0.1729(3)
H55_2 H 0.671591 0.937863 0.161358
C68_2 C 0.7769(5) 0.9609(4) 0.1372(4)
H56_2 H 0.776864 0.940753 0.101464
C69_2 C 0.8404(6) 0.9924(5) 0.1546(4)
H57_2 H 0.884436 0.993232 0.130927
C80_2 C 0.7540(3) 0.9439(2) 0.3687(2)
C81_2 C 0.8184(3) 0.9142(3) 0.3884(3)
H69_2 H 0.853292 0.931292 0.414829
C82_2 C 0.8301(4) 0.8594(3) 0.3686(4)
H70_2 H 0.871464 0.837738 0.383347
C83_2 C 0.7827(4) 0.8369(3) 0.3283(3)
H71_2 H 0.792300 0.800151 0.313263
C84_2 C 0.7176(3) 0.8682(2) 0.3080(3)
H72_2 H 0.684078 0.852156 0.280027
C85_2 C 0.5305(3) 0.89887(17) 0.2064(2)
C86_2 C 0.5735(4) 0.8664(2) 0.0961(2)
C87_2 C 0.4246(4) 0.8923(2) 0.1190(2)
C88_2 C 0.4216(3) 0.81495(18) 0.2054(2)
C89_2 C 0.5761(3) 0.79371(19) 0.1860(2)
C90_2 C 0.4671(3) 0.78426(17) 0.09911(19)
H73_2 H 0.387189 0.845944 0.010907
C97_2 C 0.2616(3) 0.7114(2) 0.0704(3)
H79_2 H 0.288864 0.736997 0.094616
C98_2 C 0.1849(4) 0.6975(3) 0.0839(4)
H80_2 H 0.160250 0.713593 0.116596
C99_2 C 0.1474(4) 0.6592(3) 0.0475(4)
H81_2 H 0.095922 0.649612 0.055011
C100_2 C 0.1830(4) 0.6358(3) 0.0018(4)
C109_2 C 0.4724(2) 0.57872(16) 0.01161(16)
C111_2 C 0.6023(2) 0.51577(15) 0.02688(17)
C112_2 C 0.7934(4) 0.6673(3) 0.0217(3)
H91_2 H 0.832851 0.644884 0.005736
C113_2 C 0.7902(5) 0.7234(4) 0.0065(4)
C114_2 C 0.7282(5) 0.7557(4) 0.0261(4)
H93_2 H 0.721858 0.793923 0.014213
C115_2 C 0.6762(4) 0.7301(3) 0.0634(3)
H94_2 H 0.635447 0.751495 0.078985
C116_2 C 0.6839(3) 0.6734(2) 0.0778(2)
C117_2 C 0.6280(3) 0.6427(2) 0.1174(2)
H95_2 H 0.590223 0.621792 0.093620
H96_2 H 0.600476 0.670518 0.141700
C118_2 C 0.7101(3) 0.6345(3) 0.2050(3)
H97_2 H 0.692374 0.618316 0.242249
H98_2 H 0.693267 0.674414 0.203619
C119_2 C 0.7941(2) 0.6335(2) 0.2051(2)
C120_2 C 0.8376(3) 0.6607(3) 0.2492(2)
H99_2 H 0.812732 0.680475 0.279609
C121_2 C 0.9182(3) 0.6584(3) 0.2478(3)
H100_2 H 0.947282 0.676581 0.277330
C122_2 C 0.9553(2) 0.6289(3) 0.2024(3)
C123_2 C 0.9118(2) 0.6017(3) 0.1583(2)
H102_2 H 0.936686 0.581912 0.127861
N46_2 N 0.83123(19) 0.6040(2) 0.15964(19)
C124_2 C 0.6230(3) 0.5561(3) 0.1793(3)
H103_2 H 0.593753 0.570100 0.213004
H104_2 H 0.586524 0.542901 0.149214
C125_2 C 0.6749(3) 0.5066(3) 0.1985(3)
C126_2 C 0.6599(5) 0.4721(4) 0.2455(4)
H105_2 H 0.615793 0.478727 0.268203
C127_2 C 0.7077(5) 0.4287(4) 0.2599(4)
H106_2 H 0.697215 0.404850 0.292086
C128_2 C 0.7708(5) 0.4203(3) 0.2269(4)
H107_2 H 0.804162 0.389979 0.236178
C129_2 C 0.7878(4) 0.4561(3) 0.1789(3)
H108_2 H 0.832545 0.450336 0.156744
C130 C 0.9015(3) 0.5133(2) 0.0321(2)
N48_2 N 0.0056(3) 0.3778(3) 0.0463(3)
C132_2 C 0.0023(3) 0.4239(3) 0.0291(3)
Fe3_3 Fe 1.000000 0.500000 0.000000
Co2_2 Co 0.50141(4) 0.15807(2) 0.84781(3)
Co4_2 Co 0.24484(3) 0.43839(3) 0.90137(3)
Fe1_4 Fe 0.500000 0.500000 1.000000
N1_2 N 0.2889(2) 0.01121(17) 0.77574(18)
N4_2 N 0.2956(2) 0.07898(16) 0.67087(17)
N5_2 N 0.4466(2) 0.06898(15) 0.75913(17)
N6_2 N 0.3809(4) 0.1212(2) 0.9377(3)
N7_2 N 0.6227(4) 0.0772(3) 0.8998(3)
N8_2 N 0.6261(3) 0.2014(2) 0.7642(2)
N9_2 N 0.3758(3) 0.2332(2) 0.7938(2)
N10_2 N 0.5526(2) 0.24951(15) 0.93445(17)
N11_2 N 0.7037(2) 0.31147(16) 0.97682(18)
N15_2 N 0.5475(2) 0.37494(14) 0.98416(15)
N17_2 N 0.33731(19) 0.47318(16) 0.95419(17)
N18_2 N 0.2557(3) 0.3574(2) 0.9425(2)
N19_2 N 0.3292(2) 0.39736(18) 0.84466(19)
N20_2 N 0.2617(3) 0.5012(2) 0.83470(19)
N21_2 N 0.1574(2) 0.47558(19) 0.9467(2)
C1_2 C 0.2857(4) 0.0402(3) 0.8271(3)
H1_2 H 0.328409 0.062137 0.838642
C2_2 C 0.2231(5) 0.0391(4) 0.8628(4)
H2_2 H 0.223136 0.059247 0.898536
C3_2 C 0.1596(6) 0.0076(5) 0.8454(4)
H3_2 H 0.115564 0.006768 0.869073
C14_2 C 0.2460(3) 0.0561(2) 0.6313(2)
C15_2 C 0.1816(3) 0.0858(3) 0.6116(3)
H15_2 H 0.146708 0.068708 0.585171
C16_2 C 0.1699(4) 0.1406(3) 0.6314(4)
H16_2 H 0.128536 0.162262 0.616653
C17_2 C 0.2173(4) 0.1631(3) 0.6717(3)
H17_2 H 0.207700 0.199849 0.686737
C18_2 C 0.2824(3) 0.1318(2) 0.6920(3)
H18_2 H 0.315922 0.147844 0.719973
C19_2 C 0.4695(3) 0.10113(17) 0.7936(2)
C20_2 C 0.4265(4) 0.1336(2) 0.9039(2)
C21_2 C 0.5754(4) 0.1077(2) 0.8810(2)
C22_2 C 0.5784(3) 0.18505(18) 0.7946(2)
C23_2 C 0.4239(3) 0.20629(19) 0.8140(2)
C24_2 C 0.5329(3) 0.21574(17) 0.90089(19)
H19_2 H 0.612811 0.154056 0.989093
C31_2 C 0.7384(3) 0.2886(2) 0.9296(3)
H25_2 H 0.711136 0.263003 0.905384
C32_2 C 0.8151(4) 0.3025(3) 0.9161(4)
H26_2 H 0.839750 0.286407 0.883404
C33_2 C 0.8526(4) 0.3408(3) 0.9525(4)
H27_2 H 0.904078 0.350388 0.944989
C34_2 C 0.8170(4) 0.3642(3) 0.9982(4)
C43_2 C 0.5276(2) 0.42128(16) 0.98839(16)
C45_2 C 0.3977(2) 0.48423(15) 0.97312(17)
C46_2 C 0.2066(4) 0.3327(3) 0.9783(3)
H37_2 H 0.167149 0.355116 0.994264
C47_2 C 0.2098(5) 0.2766(4) 0.9935(4)
C48_2 C 0.2718(5) 0.2443(4) 0.9739(4)
H39_2 H 0.278142 0.206077 0.985787
C49_2 C 0.3238(4) 0.2699(3) 0.9366(3)
H40_2 H 0.364553 0.248505 0.921015
C50_2 C 0.3161(3) 0.3266(2) 0.9222(2)
C51_2 C 0.3720(3) 0.3573(2) 0.8826(2)
H41_2 H 0.409777 0.378208 0.906380
H42_2 H 0.399524 0.329482 0.858300
C52_2 C 0.2899(3) 0.3655(3) 0.7950(3)
H43_2 H 0.307626 0.381684 0.757751
H44_2 H 0.306733 0.325586 0.796381
C53_2 C 0.2059(2) 0.3665(2) 0.7949(2)
C54_2 C 0.1624(3) 0.3393(3) 0.7508(2)
H45_2 H 0.187268 0.319525 0.720391
C55_2 C 0.0818(3) 0.3416(3) 0.7522(3)
H46_2 H 0.052718 0.323419 0.722670
C56_2 C 0.0447(2) 0.3711(3) 0.7976(3)
C57_2 C 0.0882(2) 0.3983(3) 0.8417(2)
H48_2 H 0.063314 0.418088 0.872139
N24_2 N 0.16877(19) 0.3960(2) 0.84036(19)
C58_2 C 0.3770(3) 0.4439(3) 0.8207(3)
H49_2 H 0.406247 0.429900 0.786996
H50_2 H 0.413476 0.457099 0.850786
C59_2 C 0.3251(3) 0.4934(3) 0.8015(3)
C60_2 C 0.3401(5) 0.5279(4) 0.7545(4)
H51_2 H 0.384207 0.521273 0.731797
C61_2 C 0.2923(5) 0.5713(4) 0.7401(4)
H52_2 H 0.302785 0.595150 0.707914
C62_2 C 0.2292(5) 0.5797(3) 0.7731(4)
H53_2 H 0.195838 0.610021 0.763822
C63_2 C 0.2122(4) 0.5439(3) 0.8211(3)
H54_2 H 0.167455 0.549664 0.843256
C64_2 C 0.0985(3) 0.4867(2) 0.9679(2)
Co7_2 Co 0.40625(3) 0.70917(2) 0.99384(2)
N36_2 N 0.3592(3) 0.78635(17) 0.95424(18)
N37_2 N 0.3569(2) 0.67297(15) 0.91492(16)
N38_2 N 0.4958(2) 0.72163(16) 0.93669(16)
C91_2 C 0.3677(5) 0.8399(3) 0.9728(3)
C92_2 C 0.3499(6) 0.8858(3) 0.9398(4)
H74_2 H 0.357737 0.922933 0.954575
C93_2 C 0.3209(6) 0.8780(4) 0.8856(4)
H75_2 H 0.310667 0.909598 0.861285
C94_2 C 0.3059(5) 0.8227(3) 0.8652(3)
H76_2 H 0.282677 0.816563 0.828330
C95_2 C 0.3262(3) 0.7779(2) 0.9007(2)
C96_2 C 0.3128(3) 0.7174(2) 0.8810(2)
H77_2 H 0.326580 0.714337 0.839376
H78_2 H 0.257789 0.708903 0.884103
H82_2 H 0.157437 0.608548 0.978403
C101_2 C 0.2581(3) 0.6517(2) 0.9887(3)
C102_2 C 0.3030(3) 0.6282(2) 0.9364(2)
H83_2 H 0.267309 0.617290 0.904832
H84_2 H 0.331895 0.594154 0.948415
C103_2 C 0.4227(3) 0.6507(2) 0.8809(2)
H85_2 H 0.438591 0.613530 0.896737
H86_2 H 0.407332 0.645312 0.839718
C104_2 C 0.4898(3) 0.6926(2) 0.88445(19)
C105_2 C 0.5404(3) 0.7022(2) 0.8392(2)
H87_2 H 0.535327 0.682014 0.803644
C106_2 C 0.5986(4) 0.7418(3) 0.8464(3)
H88_2 H 0.633568 0.748781 0.815996
C107_2 C 0.6047(3) 0.7713(3) 0.8994(3)
H89_2 H 0.643280 0.798870 0.905221
C108_2 C 0.5535(3) 0.7593(2) 0.9426(2)
H90_2 H 0.558813 0.778420 0.978751
C110_2 C 0.5315(2) 0.51560(15) 0.92030(17)
H92_2 H 0.828777 0.739984 0.983437
Fe3_4 Fe 1.000000 0.500000 1.000000
N23_2 N 0.9944(3) 0.6222(3) 0.9537(3)
H47_2 H 0.990741 0.372701 0.798544
C66_2 C 0.9977(3) 0.5761(3) 0.9709(3)
N47_2 N 0.9291(3) 0.4559(3) 0.8834(3)
C131_2 C 0.9560(3) 0.4732(3) 0.9271(3)
N26_2 N 0.5804(2) 0.06211(14) 0.27022(17)
N27_2 N 0.7044(2) 0.03703(15) 0.33760(16)
C70_2 C 0.8389(5) 0.0230(4) 0.2075(4)
H58_2 H 0.881388 0.044859 0.219828
C71_2 C 0.7720(3) 0.0200(2) 0.2417(2)
C72_2 C 0.7663(3) 0.0549(2) 0.2962(2)
H59_2 H 0.815758 0.053157 0.317068
H60_2 H 0.757530 0.094867 0.285034
C73_2 C 0.5350(3) 0.0746(2) 0.2235(2)
H61_2 H 0.519858 0.044937 0.198045
C74_2 C 0.5102(3) 0.1294(2) 0.2119(3)
H62_2 H 0.477643 0.136897 0.179692
C75_2 C 0.5338(4) 0.1727(3) 0.2479(3)
H63_2 H 0.518012 0.210465 0.240683
C76_2 C 0.5814(4) 0.1602(2) 0.2954(3)
H64_2 H 0.597769 0.189413 0.320971
C77_2 C 0.6046(3) 0.10437(19) 0.3048(2)
C78_2 C 0.6572(3) 0.0870(2) 0.3561(2)
H65_2 H 0.626255 0.076813 0.390356
H66_2 H 0.690809 0.118944 0.366925
C79_2 C 0.7349(3) 0.0036(2) 0.3887(2)
H67_2 H 0.781094 0.022209 0.404514
H68_2 H 0.696353 0.002170 0.419908
N2_2 N 0.4196(2) 0.93789(14) 0.72978(17)
N3_2 N 0.2956(2) 0.96297(15) 0.66240(16)
C4_2 C 0.1611(5) 0.9770(4) 0.7925(4)
H4_2 H 0.118612 0.955141 0.780172
C5_2 C 0.2280(3) 0.9800(2) 0.7583(2)
C6_2 C 0.2337(3) 0.9451(2) 0.7038(2)
H5_2 H 0.184242 0.946843 0.682932
H6_2 H 0.242470 0.905133 0.714966
C7_2 C 0.4650(3) 0.9254(2) 0.7765(2)
H7_2 H 0.480142 0.955063 0.801955
C8_2 C 0.4898(3) 0.8706(2) 0.7881(3)
H8_2 H 0.522357 0.863103 0.820308
C9_2 C 0.4662(4) 0.8273(3) 0.7521(3)
H9_2 H 0.481988 0.789535 0.759317
C10_2 C 0.4186(4) 0.8398(2) 0.7046(3)
H10_2 H 0.402231 0.810587 0.679029
C11_2 C 0.3954(3) 0.89563(19) 0.6952(2)
C12_2 C 0.3428(3) 0.9130(2) 0.6439(2)
H11_2 H 0.373745 0.923187 0.609644
H12_2 H 0.309191 0.881056 0.633075
C13_2 C 0.2651(3) 0.9964(2) 0.6113(2)
H13_2 H 0.218906 0.977791 0.595486
H14_2 H 0.303647 0.997830 0.580092
loop_
_geom_bond_atom_site_label_1
_geom_bond_atom_site_label_2
_geom_bond_site_symmetry_1
_geom_bond_site_symmetry_2
N23 C66 1_555 1_555
C66 Fe2 1_555 1_555
C133 Fe2 1_555 1_555
N47 C131 1_555 1_555
C131 Fe2_2 1_555 1_555
N22 C65 1_555 1_555
H51 C60 1_555 1_555
C61 C60 1_555 1_555
H52 C61 1_555 1_555
C62 C61 1_555 1_555
H53 C62 1_555 1_555
C63 N20 1_555 1_555
H54 C63 1_555 1_555
C65 Fe2_3 1_555 1_555
Co5 N25 1_555 1_555
Co6 C85 1_555 1_555
Co7 N34 1_555 1_555
Co8 N41 1_555 1_555
N25 C67 1_555 1_555
N26 Co5 1_555 1_555
N27 Co5 1_555 1_555
N28 Co5 1_555 1_555
N29 Co5 1_555 1_555
N30 C86 1_555 1_555
N31 C87 1_555 1_555
N32 C88 1_555 1_555
N33 C89 1_555 1_555
N34 C90 1_555 1_555
N35 Co7 1_555 1_555
N36 Co7 1_555 1_555
N37 Co7 1_555 1_555
N38 Co7 1_555 1_555
N39 Co7 1_555 1_555
N40 C110 1_555 1_555
N41 C111 1_555 1_555
N42 Co8 1_555 1_555
N43 Co8 1_555 1_555
N45 Co8 1_555 1_555
C67 H55 1_555 1_555
C68 C67 1_555 1_555
H56 C68 1_555 1_555
C69 C68 1_555 1_555
H57 C69 1_555 1_555
C70 C69 1_555 1_555
H58 C70 1_555 1_555
C71 N25 1_555 1_555
C72 N27 1_555 1_555
H59 C72 1_555 1_555
H60 C72 1_555 1_555
C73 N26 1_555 1_555
H61 C73 1_555 1_555
C74 C73 1_555 1_555
H62 C74 1_555 1_555
C75 C74 1_555 1_555
H63 C75 1_555 1_555
C76 C75 1_555 1_555
H64 C76 1_555 1_555
C77 N26 1_555 1_555
C78 N27 1_555 1_555
H65 C78 1_555 1_555
H66 C78 1_555 1_555
C79 N27 1_555 1_555
H67 C79 1_555 1_555
H68 C79 1_555 1_555
C80 N28 1_555 1_555
C81 C80 1_555 1_555
H69 C81 1_555 1_555
C82 C81 1_555 1_555
H70 C82 1_555 1_555
C83 C82 1_555 1_555
H71 C83 1_555 1_555
C84 N28 1_555 1_555
H72 C84 1_555 1_555
C85 N29 1_555 1_555
C86 Co6 1_555 1_555
C87 Co6 1_555 1_555
C88 Co6 1_555 1_555
C89 Co6 1_555 1_555
C90 Co6 1_555 1_555
C91 N36 1_555 1_555
H73 C91 1_555 1_555
C92 C91 1_555 1_555
H74 C92 1_555 1_555
C93 C92 1_555 1_555
H75 C93 1_555 1_555
C94 C93 1_555 1_555
H76 C94 1_555 1_555
C95 N36 1_555 1_555
C96 N37 1_555 1_555
H77 C96 1_555 1_555
H78 C96 1_555 1_555
C97 N35 1_555 1_555
H79 C97 1_555 1_555
C98 C97 1_555 1_555
H80 C98 1_555 1_555
C99 C98 1_555 1_555
H81 C99 1_555 1_555
C100 C99 1_555 1_555
H82 C100 1_555 1_555
C101 N35 1_555 1_555
C102 N37 1_555 1_555
H83 C102 1_555 1_555
H84 C102 1_555 1_555
C103 N37 1_555 1_555
H85 C103 1_555 1_555
H86 C103 1_555 1_555
C104 N38 1_555 1_555
C105 C104 1_555 1_555
H87 C105 1_555 1_555
C106 C105 1_555 1_555
H88 C106 1_555 1_555
C107 C106 1_555 1_555
H89 C107 1_555 1_555
C108 N38 1_555 1_555
H90 C108 1_555 1_555
C109 Fe1 1_555 1_555
C110 Fe1 1_555 1_555
C111 Fe1 1_555 1_555
C112 N42 1_555 1_555
H91 C112 1_555 1_555
C113 C112 1_555 1_555
H92 C113 1_555 1_555
C114 C113 1_555 1_555
H93 C114 1_555 1_555
C115 C114 1_555 1_555
H94 C115 1_555 1_555
C116 N42 1_555 1_555
C117 N43 1_555 1_555
H95 C117 1_555 1_555
H96 C117 1_555 1_555
C118 N43 1_555 1_555
H97 C118 1_555 1_555
H98 C118 1_555 1_555
C119 C118 1_555 1_555
C120 C119 1_555 1_555
H99 C120 1_555 1_555
C121 C120 1_555 1_555
H100 C121 1_555 1_555
C122 C121 1_555 1_555
C123 C122 1_555 1_555
H102 C123 1_555 1_555
N46 Co8 1_555 1_555
C124 N43 1_555 1_555
H103 C124 1_555 1_555
H104 C124 1_555 1_555
C133 N45 1_555 1_555
Co9 N40 1_555 1_555
N49 Co5 1_555 1_555
C62 C63 1_555 1_555
N39 C109 1_555 1_555
C70 C71 1_555 1_555
C71 C72 1_555 1_555
C76 C77 1_555 1_555
C77 C78 1_555 1_555
C79 C80 1_555 1_555
C83 C84 1_555 1_555
C94 C95 1_555 1_555
C95 C96 1_555 1_555
C100 C101 1_555 1_555
C101 C102 1_555 1_555
C103 C104 1_555 1_555
C107 C108 1_555 1_555
C115 C116 1_555 1_555
C116 C117 1_555 1_555
C119 N46 1_555 1_555
C123 N46 1_555 1_555
C124 C125 1_555 1_555
Co1 N1 1_555 1_555
Co2 C19 1_555 1_555
Co3 N10 1_555 1_555
Co4 N17 1_555 1_555
Fe1_2 C43 1_555 1_555
Fe2_4 C64 1_555 1_555
N1 C1 1_555 1_555
N2 Co1 1_555 1_555
N3 Co1 1_555 1_555
N4 Co1 1_555 1_555
N5 Co1 1_555 1_555
N6 C20 1_555 1_555
N7 C21 1_555 1_555
N8 C22 1_555 1_555
N9 C23 1_555 1_555
N10 C24 1_555 1_555
N11 Co3 1_555 1_555
N12 Co3 1_555 1_555
N13 Co3 1_555 1_555
N14 Co3 1_555 1_555
N15 Co3 1_555 1_555
N16 C44 1_555 1_555
N17 C45 1_555 1_555
N18 Co4 1_555 1_555
N19 Co4 1_555 1_555
N21 Co4 1_555 1_555
C1 H1 1_555 1_555
C2 C1 1_555 1_555
H2 C2 1_555 1_555
C3 C2 1_555 1_555
H3 C3 1_555 1_555
C4 C3 1_555 1_555
H4 C4 1_555 1_555
C5 N1 1_555 1_555
C6 N3 1_555 1_555
H5 C6 1_555 1_555
H6 C6 1_555 1_555
C7 N2 1_555 1_555
H7 C7 1_555 1_555
C8 C7 1_555 1_555
H8 C8 1_555 1_555
C9 C8 1_555 1_555
H9 C9 1_555 1_555
C10 C9 1_555 1_555
H10 C10 1_555 1_555
C11 N2 1_555 1_555
C12 N3 1_555 1_555
H11 C12 1_555 1_555
H12 C12 1_555 1_555
C13 N3 1_555 1_555
H13 C13 1_555 1_555
H14 C13 1_555 1_555
C14 N4 1_555 1_555
C15 C14 1_555 1_555
H15 C15 1_555 1_555
C16 C15 1_555 1_555
H16 C16 1_555 1_555
C17 C16 1_555 1_555
H17 C17 1_555 1_555
C18 N4 1_555 1_555
H18 C18 1_555 1_555
C19 N5 1_555 1_555
C20 Co2 1_555 1_555
C21 Co2 1_555 1_555
C22 Co2 1_555 1_555
C23 Co2 1_555 1_555
C24 Co2 1_555 1_555
C25 N12 1_555 1_555
H19 C25 1_555 1_555
C26 C25 1_555 1_555
H20 C26 1_555 1_555
C27 C26 1_555 1_555
H21 C27 1_555 1_555
C28 C27 1_555 1_555
H22 C28 1_555 1_555
C29 N12 1_555 1_555
C30 N13 1_555 1_555
H23 C30 1_555 1_555
H24 C30 1_555 1_555
C31 N11 1_555 1_555
H25 C31 1_555 1_555
C32 C31 1_555 1_555
H26 C32 1_555 1_555
C33 C32 1_555 1_555
H27 C33 1_555 1_555
C34 C33 1_555 1_555
H28 C34 1_555 1_555
C35 N11 1_555 1_555
C36 N13 1_555 1_555
H29 C36 1_555 1_555
H30 C36 1_555 1_555
C37 N13 1_555 1_555
H31 C37 1_555 1_555
H32 C37 1_555 1_555
C38 N14 1_555 1_555
C39 C38 1_555 1_555
H33 C39 1_555 1_555
C40 C39 1_555 1_555
H34 C40 1_555 1_555
C41 C40 1_555 1_555
H35 C41 1_555 1_555
C42 N14 1_555 1_555
H36 C42 1_555 1_555
C43 N15 1_555 1_555
C44 Fe1_2 1_555 1_555
C45 Fe1_2 1_555 1_555
C46 N18 1_555 1_555
H37 C46 1_555 1_555
C47 C46 1_555 1_555
H38 C47 1_555 1_555
C48 C47 1_555 1_555
H39 C48 1_555 1_555
C49 C48 1_555 1_555
H40 C49 1_555 1_555
C50 N18 1_555 1_555
C51 N19 1_555 1_555
H41 C51 1_555 1_555
H42 C51 1_555 1_555
C52 N19 1_555 1_555
H43 C52 1_555 1_555
H44 C52 1_555 1_555
C53 C52 1_555 1_555
C54 C53 1_555 1_555
H45 C54 1_555 1_555
C55 C54 1_555 1_555
H46 C55 1_555 1_555
C56 C55 1_555 1_555
C57 C56 1_555 1_555
H48 C57 1_555 1_555
N24 Co4 1_555 1_555
C58 N19 1_555 1_555
H49 C58 1_555 1_555
H50 C58 1_555 1_555
C64 N21 1_555 1_555
H105 C126 1_555 1_555
C127 C126 1_555 1_555
H106 C127 1_555 1_555
C128 C127 1_555 1_555
H107 C128 1_555 1_555
C129 N44 1_555 1_555
H108 C129 1_555 1_555
N48 C132 1_555 1_555
C132 Fe2_4 1_555 1_555
Co10 N16 1_555 1_555
N50 Co1 1_555 1_555
C4 C5 1_555 1_555
C5 C6 1_555 1_555
C10 C11 1_555 1_555
C11 C12 1_555 1_555
C13 C14 1_555 1_555
C17 C18 1_555 1_555
C28 C29 1_555 1_555
C29 C30 1_555 1_555
C34 C35 1_555 1_555
C35 C36 1_555 1_555
C37 C38 1_555 1_555
C41 C42 1_555 1_555
C49 C50 1_555 1_555
C50 C51 1_555 1_555
C53 N24 1_555 1_555
C57 N24 1_555 1_555
C58 C59 1_555 1_555
C128 C129 1_555 1_555
N12_2 Co3_2 1_555 1_555
N13_2 Co3_2 1_555 1_555
N14_2 Co3_2 1_555 1_555
N49 C44_2 1_555 1_555
N22_2 C65_2 1_555 1_555
C25_2 N12_2 1_555 1_555
C26_2 C25_2 1_555 1_555
H20_2 C26_2 1_555 1_555
C27_2 C26_2 1_555 1_555
H21_2 C27_2 1_555 1_555
C28_2 C27_2 1_555 1_555
H22_2 C28_2 1_555 1_555
C29_2 N12_2 1_555 1_555
C30_2 N13_2 1_555 1_555
H23_2 C30_2 1_555 1_555
H24_2 C30_2 1_555 1_555
C36_2 N13_2 1_555 1_555
H29_2 C36_2 1_555 1_555
H30_2 C36_2 1_555 1_555
C37_2 N13_2 1_555 1_555
H31_2 C37_2 1_555 1_555
H32_2 C37_2 1_555 1_555
C38_2 N14_2 1_555 1_555
C39_2 C38_2 1_555 1_555
H33_2 C39_2 1_555 1_555
C40_2 C39_2 1_555 1_555
H34_2 C40_2 1_555 1_555
C41_2 C40_2 1_555 1_555
H35_2 C41_2 1_555 1_555
C42_2 N14_2 1_555 1_555
H36_2 C42_2 1_555 1_555
C44_2 Fe1_3 1_555 1_555
C65_2 Fe3 1_555 1_555
Co10 N25_2 1_555 1_555
Co6_2 C85_2 1_555 1_555
Co8_2 N41_2 1_555 1_555
N25_2 C67_2 1_555 1_555
N28_2 Co10 1_555 1_555
N29_2 Co10 1_555 1_555
N30_2 C86_2 1_555 1_555
N31_2 C87_2 1_555 1_555
N32_2 C88_2 1_555 1_555
N33_2 C89_2 1_555 1_555
N34_2 C90_2 1_555 1_555
N41_2 C111_2 1_555 1_555
N42_2 Co8_2 1_555 1_555
N43_2 Co8_2 1_555 1_555
N44_2 Co8_2 1_555 1_555
N45_2 Co8_2 1_555 1_555
C67_2 H55_2 1_555 1_555
C68_2 C67_2 1_555 1_555
H56_2 C68_2 1_555 1_555
C69_2 C68_2 1_555 1_555
H57_2 C69_2 1_555 1_555
C80_2 N28_2 1_555 1_555
C81_2 C80_2 1_555 1_555
H69_2 C81_2 1_555 1_555
C82_2 C81_2 1_555 1_555
H70_2 C82_2 1_555 1_555
C83_2 C82_2 1_555 1_555
H71_2 C83_2 1_555 1_555
C84_2 N28_2 1_555 1_555
H72_2 C84_2 1_555 1_555
C85_2 N29_2 1_555 1_555
C86_2 Co6_2 1_555 1_555
C87_2 Co6_2 1_555 1_555
C88_2 Co6_2 1_555 1_555
C89_2 Co6_2 1_555 1_555
C90_2 Co6_2 1_555 1_555
C97_2 N35_2 1_555 1_555
H79_2 C97_2 1_555 1_555
C98_2 C97_2 1_555 1_555
H80_2 C98_2 1_555 1_555
C99_2 C98_2 1_555 1_555
H81_2 C99_2 1_555 1_555
C100_2 C99_2 1_555 1_555
C109_2 Fe1_3 1_555 1_555
C111_2 Fe1_3 1_555 1_555
C112_2 N42_2 1_555 1_555
H91_2 C112_2 1_555 1_555
C113_2 C112_2 1_555 1_555
C114_2 C113_2 1_555 1_555
H93_2 C114_2 1_555 1_555
C115_2 C114_2 1_555 1_555
H94_2 C115_2 1_555 1_555
C116_2 N42_2 1_555 1_555
C117_2 N43_2 1_555 1_555
H95_2 C117_2 1_555 1_555
H96_2 C117_2 1_555 1_555
C118_2 N43_2 1_555 1_555
H97_2 C118_2 1_555 1_555
H98_2 C118_2 1_555 1_555
C119_2 C118_2 1_555 1_555
C120_2 C119_2 1_555 1_555
H99_2 C120_2 1_555 1_555
C121_2 C120_2 1_555 1_555
H100_2 C121_2 1_555 1_555
C122_2 C121_2 1_555 1_555
C123_2 C122_2 1_555 1_555
H102_2 C123_2 1_555 1_555
N46_2 Co8_2 1_555 1_555
C124_2 N43_2 1_555 1_555
H103_2 C124_2 1_555 1_555
H104_2 C124_2 1_555 1_555
C125_2 N44_2 1_555 1_555
C126_2 C125_2 1_555 1_555
H105_2 C126_2 1_555 1_555
C127_2 C126_2 1_555 1_555
H106_2 C127_2 1_555 1_555
C128_2 C127_2 1_555 1_555
H107_2 C128_2 1_555 1_555
C129_2 N44_2 1_555 1_555
H108_2 C129_2 1_555 1_555
C130 N45_2 1_555 1_555
N48_2 C132_2 1_555 1_555
C132_2 Fe3 1_555 1_555
Fe3_3 C130 1_555 1_555
C28_2 C29_2 1_555 1_555
C29_2 C30_2 1_555 1_555
C35_2 C36_2 1_555 1_555
C37_2 C38_2 1_555 1_555
C41_2 C42_2 1_555 1_555
N39_2 C109_2 1_555 1_555
C83_2 C84_2 1_555 1_555
C115_2 C116_2 1_555 1_555
C116_2 C117_2 1_555 1_555
C119_2 N46_2 1_555 1_555
C123_2 N46_2 1_555 1_555
C124_2 C125_2 1_555 1_555
C128_2 C129_2 1_555 1_555
Co9 N1_2 1_555 1_555
Co2_2 C19_2 1_555 1_555
Co4_2 N17_2 1_555 1_555
Fe1_4 C43_2 1_555 1_555
Fe3_2 C64_2 1_555 1_555
N1_2 C1_2 1_555 1_555
N4_2 Co9 1_555 1_555
N5_2 Co9 1_555 1_555
N6_2 C20_2 1_555 1_555
N7_2 C21_2 1_555 1_555
N8_2 C22_2 1_555 1_555
N9_2 C23_2 1_555 1_555
N10_2 C24_2 1_555 1_555
N17_2 C45_2 1_555 1_555
N18_2 Co4_2 1_555 1_555
N19_2 Co4_2 1_555 1_555
N20_2 Co4_2 1_555 1_555
N21_2 Co4_2 1_555 1_555
C1_2 H1_2 1_555 1_555
C2_2 C1_2 1_555 1_555
H2_2 C2_2 1_555 1_555
C3_2 C2_2 1_555 1_555
H3_2 C3_2 1_555 1_555
C14_2 N4_2 1_555 1_555
C15_2 C14_2 1_555 1_555
H15_2 C15_2 1_555 1_555
C16_2 C15_2 1_555 1_555
H16_2 C16_2 1_555 1_555
C17_2 C16_2 1_555 1_555
H17_2 C17_2 1_555 1_555
C18_2 N4_2 1_555 1_555
H18_2 C18_2 1_555 1_555
C19_2 N5_2 1_555 1_555
C20_2 Co2_2 1_555 1_555
C21_2 Co2_2 1_555 1_555
C22_2 Co2_2 1_555 1_555
C23_2 Co2_2 1_555 1_555
C24_2 Co2_2 1_555 1_555
C31_2 N11_2 1_555 1_555
H25_2 C31_2 1_555 1_555
C32_2 C31_2 1_555 1_555
H26_2 C32_2 1_555 1_555
C33_2 C32_2 1_555 1_555
H27_2 C33_2 1_555 1_555
C34_2 C33_2 1_555 1_555
C43_2 N15_2 1_555 1_555
C45_2 Fe1_4 1_555 1_555
C46_2 N18_2 1_555 1_555
H37_2 C46_2 1_555 1_555
C47_2 C46_2 1_555 1_555
C48_2 C47_2 1_555 1_555
H39_2 C48_2 1_555 1_555
C49_2 C48_2 1_555 1_555
H40_2 C49_2 1_555 1_555
C50_2 N18_2 1_555 1_555
C51_2 N19_2 1_555 1_555
H41_2 C51_2 1_555 1_555
H42_2 C51_2 1_555 1_555
C52_2 N19_2 1_555 1_555
H43_2 C52_2 1_555 1_555
H44_2 C52_2 1_555 1_555
C53_2 C52_2 1_555 1_555
C54_2 C53_2 1_555 1_555
H45_2 C54_2 1_555 1_555
C55_2 C54_2 1_555 1_555
H46_2 C55_2 1_555 1_555
C56_2 C55_2 1_555 1_555
C57_2 C56_2 1_555 1_555
H48_2 C57_2 1_555 1_555
N24_2 Co4_2 1_555 1_555
C58_2 N19_2 1_555 1_555
H49_2 C58_2 1_555 1_555
H50_2 C58_2 1_555 1_555
C59_2 N20_2 1_555 1_555
C60_2 C59_2 1_555 1_555
H51_2 C60_2 1_555 1_555
C61_2 C60_2 1_555 1_555
H52_2 C61_2 1_555 1_555
C62_2 C61_2 1_555 1_555
H53_2 C62_2 1_555 1_555
C63_2 N20_2 1_555 1_555
H54_2 C63_2 1_555 1_555
C64_2 N21_2 1_555 1_555
N36_2 Co7_2 1_555 1_555
N37_2 Co7_2 1_555 1_555
N38_2 Co7_2 1_555 1_555
N50 C110_2 1_555 1_555
C91_2 N36_2 1_555 1_555
C92_2 C91_2 1_555 1_555
H74_2 C92_2 1_555 1_555
C93_2 C92_2 1_555 1_555
H75_2 C93_2 1_555 1_555
C94_2 C93_2 1_555 1_555
H76_2 C94_2 1_555 1_555
C95_2 N36_2 1_555 1_555
C96_2 N37_2 1_555 1_555
H77_2 C96_2 1_555 1_555
H78_2 C96_2 1_555 1_555
C102_2 N37_2 1_555 1_555
H83_2 C102_2 1_555 1_555
H84_2 C102_2 1_555 1_555
C103_2 N37_2 1_555 1_555
H85_2 C103_2 1_555 1_555
H86_2 C103_2 1_555 1_555
C104_2 N38_2 1_555 1_555
C105_2 C104_2 1_555 1_555
H87_2 C105_2 1_555 1_555
C106_2 C105_2 1_555 1_555
H88_2 C106_2 1_555 1_555
C107_2 C106_2 1_555 1_555
H89_2 C107_2 1_555 1_555
C108_2 N38_2 1_555 1_555
H90_2 C108_2 1_555 1_555
C110_2 Fe1_4 1_555 1_555
C17_2 C18_2 1_555 1_555
C49_2 C50_2 1_555 1_555
C50_2 C51_2 1_555 1_555
C53_2 N24_2 1_555 1_555
C57_2 N24_2 1_555 1_555
C58_2 C59_2 1_555 1_555
C62_2 C63_2 1_555 1_555
C94_2 C95_2 1_555 1_555
C95_2 C96_2 1_555 1_555
C101_2 C102_2 1_555 1_555
C103_2 C104_2 1_555 1_555
C107_2 C108_2 1_555 1_555
N23_2 C66_2 1_555 1_555
C66_2 Fe3_4 1_555 1_555
N47_2 C131_2 1_555 1_555
C131_2 Fe3_4 1_555 1_555
H58_2 C70_2 1_555 1_555
C72_2 N27_2 1_555 1_555
H59_2 C72_2 1_555 1_555
H60_2 C72_2 1_555 1_555
C73_2 N26_2 1_555 1_555
H61_2 C73_2 1_555 1_555
C74_2 C73_2 1_555 1_555
H62_2 C74_2 1_555 1_555
C75_2 C74_2 1_555 1_555
H63_2 C75_2 1_555 1_555
C76_2 C75_2 1_555 1_555
H64_2 C76_2 1_555 1_555
C77_2 N26_2 1_555 1_555
C78_2 N27_2 1_555 1_555
H65_2 C78_2 1_555 1_555
H66_2 C78_2 1_555 1_555
C79_2 N27_2 1_555 1_555
H67_2 C79_2 1_555 1_555
H68_2 C79_2 1_555 1_555
C70_2 C71_2 1_555 1_555
C71_2 C72_2 1_555 1_555
C76_2 C77_2 1_555 1_555
C77_2 C78_2 1_555 1_555
H4_2 C4_2 1_555 1_555
C6_2 N3_2 1_555 1_555
H5_2 C6_2 1_555 1_555
H6_2 C6_2 1_555 1_555
C7_2 N2_2 1_555 1_555
H7_2 C7_2 1_555 1_555
C8_2 C7_2 1_555 1_555
H8_2 C8_2 1_555 1_555
C9_2 C8_2 1_555 1_555
H9_2 C9_2 1_555 1_555
C10_2 C9_2 1_555 1_555
H10_2 C10_2 1_555 1_555
C11_2 N2_2 1_555 1_555
C12_2 N3_2 1_555 1_555
H11_2 C12_2 1_555 1_555
H12_2 C12_2 1_555 1_555
C13_2 N3_2 1_555 1_555
H13_2 C13_2 1_555 1_555
H14_2 C13_2 1_555 1_555
C4_2 C5_2 1_555 1_555
C5_2 C6_2 1_555 1_555
C10_2 C11_2 1_555 1_555
C11_2 C12_2 1_555 1_555

#END
