
###############################################################################
#
# This file contains modified crystal structure data generated from the
# MOF subset of the Cambridge Structural Database (CSD) v543 
# hosted by the Cambridge Crystallographic Data Centre (CCDC).
#
# This work is licensed under the Creative Commons
# Attribution-NonCommercial-ShareAlike 4.0 International License.
# To view a copy of this license, visit
# http://creativecommons.org/licenses/by-nc-sa/4.0/
# or send a letter to
# Creative Commons, PO Box 1866, Mountain View, CA 94042, USA.
#
# CIF created using the CSD Python API on 29 September 2022
# The structure has been converted into the P1 space group
# The structure has a 3D framework
# The original CSD entry JELPAS is in the trigonal crystal system
# The framework has been calculated to contain at least 10.0% void space
# The void calculation uses a probe of radius 1.32A, grid spacing 0.4
# The framework is charged, counterions have been retained in the structure
#
###############################################################################

data_JELPAS
_chemical_formula_moiety         '(C20 H12 As16 Fe12 O85 12-)n'
_symmetry_cell_setting           triclinic
_symmetry_space_group_name_H-M   'P 1'
_symmetry_Int_Tables_number      1
_space_group_name_Hall           'P 1'
loop_
_symmetry_equiv_pos_site_id
_symmetry_equiv_pos_as_xyz
1 x,y,z
_cell_length_a                   13.9899(12)
_cell_length_b                   13.9899(12)
_cell_length_c                   14.936(3)
_cell_angle_alpha                90
_cell_angle_beta                 90
_cell_angle_gamma                120
_cell_volume                     2531.59
loop_
_atom_site_label
_atom_site_type_symbol
_atom_site_fract_x
_atom_site_fract_y
_atom_site_fract_z
O21 O 0.0006(2) 0.3773(3) 0.48302(18)
C1 C 0.5494(4) -0.0000 0.7500
C2 C 0.6592(4) -0.0000 0.7500
As3 As 0.67468(3) 0.13687(3) 0.51967(2)
As5 As 0.46219(4) 0.32532(3) 0.51967(2)
As8 As 0.6667 0.3333 0.29174(4)
Fe2 Fe 0.46326(4) 0.12976(4) 0.40405(3)
Fe6 Fe 0.87024(4) 0.33350(6) 0.40405(3)
Fe7 Fe 0.66650(6) 0.12976(4) 0.90405(3)
Fe8 Fe 0.66650(6) 0.53674(4) 0.40405(3)
Fe9 Fe 0.33350(6) 0.46326(4) 0.59595(3)
O9 O 0.5905(2) 0.1790(2) 0.48045(18)
O11 O 0.5885(3) 0.4095(2) 0.48045(18)
O14 O 0.8210(2) 0.4115(3) 0.48045(18)
O15 O 0.6233(2) 0.0006(2) 0.51698(18)
O17 O 0.3773(3) 0.3767(2) 0.51698(18)
O22 O 0.7972(2) 0.1928(2) 0.46757(19)
O24 O 0.3956(3) 0.2028(2) 0.46757(19)
O28 O 0.7013(3) 0.1768(2) 0.62979(18)
O30 O 0.4755(4) 0.2987(3) 0.62979(18)
H2 H 0.6876 0.2264 0.6391
H4 H 0.5388 0.3124 0.6391
O35 O 0.5343(2) 0.2535(2) 0.32091(17)
O36 O 0.7465(2) 0.2808(3) 0.32091(17)
O37 O 0.7192(3) 0.4657(2) 0.32091(17)
O39 O 0.6667 0.3333 0.1769(3)
O40 O 0.5294(3) 0.0426(2) 0.81623(17)
O41 O 0.5132(2) 0.0426(2) 0.31623(17)
O47 O 0.9574(2) 0.4706(3) 0.31623(17)
O48 O 0.7258(3) 0.0545(2) 0.81101(19)
O49 O 0.3287(2) 0.0545(2) 0.31101(19)
O55 O 0.9455(2) 0.2742(3) 0.31101(19)
C3 C 0.4506(4) -0.0000 0.2500
C5 C 0.3408(4) -0.0000 0.2500
As1 As 0.32532(3) 0.86313(3) 0.48033(2)
As2 As 0.3333 0.6667 0.70826(4)
Fe1 Fe 0.53674(4) 0.87024(4) 0.59595(3)
O1 O 0.4095(2) 0.8210(2) 0.51955(18)
O2 O 0.3767(2) 0.9994(2) 0.48302(18)
O3 O 0.2028(2) 0.8072(2) 0.53243(19)
O4 O 0.2987(3) 0.8232(2) 0.37021(18)
H1 H 0.3124 0.7736 0.3609
O5 O 0.4657(2) 0.7465(2) 0.67909(17)
O6 O 0.3333 0.6667 0.8231(3)
O7 O 0.4868(2) 0.9574(2) 0.68377(17)
O8 O 0.6713(2) 0.9455(2) 0.68899(19)
C1_2 C 0.5494(4) 1.0000 0.7500
C2_2 C 0.6592(4) 1.0000 0.7500
As4 As 0.53781(4) 0.67468(3) 0.48033(2)
As7 As 0.13687(3) 0.46219(4) 0.48033(2)
Fe5 Fe 0.12976(4) 0.66650(6) 0.59595(3)
Fe10 Fe 0.33350(6) 0.87024(4) 0.09595(3)
Fe13 Fe 0.46326(4) 0.33350(6) 0.90405(3)
O10 O 0.4115(3) 0.5905(2) 0.51955(18)
O13 O 0.1790(2) 0.5885(3) 0.51955(18)
O16 O 0.6227(3) 0.6233(2) 0.48302(18)
O23 O 0.6044(3) 0.7972(2) 0.53243(19)
O26 O 0.1928(2) 0.3956(3) 0.53243(19)
O27 O 0.8072(2) 0.6044(3) 0.46757(19)
O29 O 0.5245(4) 0.7013(3) 0.37021(18)
O32 O 0.1768(2) 0.4755(4) 0.37021(18)
H3 H 0.4612 0.6876 0.3609
H6 H 0.2264 0.5388 0.3609
O33 O 0.2535(2) 0.7192(3) 0.67909(17)
O34 O 0.2808(3) 0.5343(2) 0.67909(17)
O42 O 0.4706(3) 0.9574(2) 0.18377(17)
O43 O 0.4706(3) 0.5132(2) 0.68377(17)
O44 O 0.5132(2) 0.4706(3) 0.81623(17)
O45 O 0.5294(3) 0.4868(2) 0.31623(17)
O46 O 0.0426(2) 0.5294(3) 0.68377(17)
O50 O 0.2742(3) 0.9455(2) 0.18899(19)
O51 O 0.2742(3) 0.3287(2) 0.68899(19)
O52 O 0.3287(2) 0.2742(3) 0.81101(19)
O53 O 0.7258(3) 0.6713(2) 0.31101(19)
O54 O 0.0545(2) 0.7258(3) 0.68899(19)
C3_2 C 0.4506(4) 1.0000 0.2500
C4 C 0.4506(4) 0.4506(4) 0.7500
C5_2 C 0.3408(4) 1.0000 0.2500
C6 C 0.3408(4) 0.3408(4) 0.7500
O20 O 0.9994(2) 0.6227(3) 0.51698(18)
C1_3 C 0.0000 0.5494(4) 0.7500
C2_3 C 0.0000 0.6592(4) 0.7500
Fe10_2 Fe 0.12976(4) 0.46326(7) 0.09595(3)
O42_2 O 0.0426(2) 0.5132(4) 0.18377(17)
O50_2 O 0.0545(2) 0.3287(4) 0.18899(19)
C3_3 C 0.0000 0.4506(4) 0.2500
C5_3 C 0.0000 0.3408(4) 0.2500
C1_4 C 1.0000 0.5494(4) 0.7500
C2_4 C 1.0000 0.6592(4) 0.7500
As3_2 As 0.86313(3) 0.53781(4) 0.51967(2)
Fe7_2 Fe 0.87024(4) 0.53674(7) 0.90405(3)
O28_2 O 0.8232(2) 0.5245(4) 0.62979(18)
H2_2 H 0.7736 0.4612 0.6391
O40_2 O 0.9574(2) 0.4868(4) 0.81623(17)
O48_2 O 0.9455(2) 0.6713(4) 0.81101(19)
C3_4 C 1.0000 0.4506(4) 0.2500
C5_4 C 1.0000 0.3408(4) 0.2500
Fe10_3 Fe 0.53674(7) 0.66650(6) 0.09595(3)
O42_3 O 0.4868(4) 0.5294(3) 0.18377(17)
O50_3 O 0.6713(4) 0.7258(3) 0.18899(19)
C3_5 C 0.5494(4) 0.5494(4) 0.2500
C5_5 C 0.6592(4) 0.6592(4) 0.2500
O21_2 O 0.3773(3) 0.0006(2) 0.01698(18)
As8_2 As 0.3333 0.6667 0.20826(4)
O9_2 O 0.1790(2) 0.5905(2) 0.01955(18)
O11_2 O 0.4095(2) 0.5885(3) 0.01955(18)
O14_2 O 0.4115(3) 0.8210(2) 0.01955(18)
O22_2 O 0.1928(2) 0.7972(2) 0.03243(19)
O24_2 O 0.2028(2) 0.3956(3) 0.03243(19)
O35_2 O 0.2535(2) 0.5343(2) 0.17909(17)
O36_2 O 0.2808(3) 0.7465(2) 0.17909(17)
O37_2 O 0.4657(2) 0.7192(3) 0.17909(17)
O39_2 O 0.3333 0.6667 0.3231(3)
As3_3 As 0.13687(3) 0.67468(3) 0.98033(2)
As5_2 As 0.32532(3) 0.46219(4) 0.98033(2)
O15_2 O 0.0006(2) 0.6233(2) 0.98302(18)
O17_2 O 0.3767(2) 0.3773(3) 0.98302(18)
O28_3 O 0.1768(2) 0.7013(3) 0.87021(18)
O30_2 O 0.2987(3) 0.4755(4) 0.87021(18)
H2_3 H 0.2264 0.6876 0.8609
H4_2 H 0.3124 0.5388 0.8609
As1_2 As 0.86313(3) 0.32532(3) 0.01967(2)
O2_2 O 0.9994(2) 0.3767(2) 0.01698(18)
O4_2 O 0.8232(2) 0.2987(3) 0.12979(18)
H1_2 H 0.7736 0.3124 0.1391
As4_2 As 0.67468(3) 0.53781(4) 0.01967(2)
As7_2 As 0.46219(4) 0.13687(3) 0.01967(2)
O16_2 O 0.6233(2) 0.6227(3) 0.01698(18)
O27_2 O 0.6044(3) 0.8072(2) 0.03243(19)
O29_2 O 0.7013(3) 0.5245(4) 0.12979(18)
O32_2 O 0.4755(4) 0.1768(2) 0.12979(18)
H3_2 H 0.6876 0.4612 0.1391
H6_2 H 0.5388 0.2264 0.1391
As2_2 As 0.6667 0.3333 0.79174(4)
O1_2 O 0.8210(2) 0.4095(2) 0.98045(18)
O3_2 O 0.8072(2) 0.2028(2) 0.96757(19)
O5_2 O 0.7465(2) 0.4657(2) 0.82091(17)
O6_2 O 0.6667 0.3333 0.6769(3)
O10_2 O 0.5905(2) 0.4115(3) 0.98045(18)
O13_2 O 0.5885(3) 0.1790(2) 0.98045(18)
O23_2 O 0.7972(2) 0.6044(3) 0.96757(19)
O26_2 O 0.3956(3) 0.1928(2) 0.96757(19)
O33_2 O 0.7192(3) 0.2535(2) 0.82091(17)
O34_2 O 0.5343(2) 0.2808(3) 0.82091(17)
O20_2 O 0.6227(3) 0.9994(2) 0.98302(18)
As3_4 As 0.53781(4) 0.86313(3) 0.98033(2)
O28_4 O 0.5245(4) 0.8232(2) 0.87021(18)
H2_4 H 0.4612 0.7736 0.8609
loop_
_geom_bond_atom_site_label_1
_geom_bond_atom_site_label_2
_geom_bond_site_symmetry_1
_geom_bond_site_symmetry_2
As3 O9 1_555 1_555
As5 O11 1_555 1_555
As8 O35 1_555 1_555
Fe6 O14 1_555 1_555
Fe7 O40 1_555 1_555
Fe8 O11 1_555 1_555
Fe9 O17 1_555 1_555
O9 Fe2 1_555 1_555
O17 As5 1_555 1_555
O22 As3 1_555 1_555
O24 As5 1_555 1_555
O28 As3 1_555 1_555
O30 As5 1_555 1_555
H2 O28 1_555 1_555
H4 O30 1_555 1_555
O35 Fe2 1_555 1_555
O36 As8 1_555 1_555
O37 As8 1_555 1_555
O39 As8 1_555 1_555
O40 C1 1_555 1_555
O41 Fe2 1_555 1_555
O47 Fe6 1_555 1_555
O48 C2 1_555 1_555
O49 Fe2 1_555 1_555
O55 Fe6 1_555 1_555
C3 O41 1_555 1_555
C5 O49 1_555 1_555
C1 C2 1_555 1_555
As3 O15 1_555 1_555
Fe2 O24 1_555 1_555
Fe6 O22 1_555 1_555
Fe6 O36 1_555 1_555
Fe7 O48 1_555 1_555
Fe8 O37 1_555 1_555
C3 C5 1_555 1_555
As1 O1 1_555 1_555
As2 O5 1_555 1_555
Fe1 O1 1_555 1_555
O2 As1 1_555 1_555
O3 As1 1_555 1_555
O4 As1 1_555 1_555
H1 O4 1_555 1_555
O5 Fe1 1_555 1_555
O6 As2 1_555 1_555
O7 Fe1 1_555 1_555
O8 Fe1 1_555 1_555
C1_2 O7 1_555 1_555
C2_2 O8 1_555 1_555
As4 O10 1_555 1_555
As7 O13 1_555 1_555
Fe9 O10 1_555 1_555
Fe5 O3 1_555 1_555
Fe10 O42 1_555 1_555
Fe13 O44 1_555 1_555
O13 Fe5 1_555 1_555
O16 As4 1_555 1_555
O21 As7 1_555 1_555
O23 Fe1 1_555 1_555
O26 As7 1_555 1_555
O27 Fe8 1_555 1_555
O29 As4 1_555 1_555
O32 As7 1_555 1_555
H3 O29 1_555 1_555
H6 O32 1_555 1_555
O33 As2 1_555 1_555
O34 As2 1_555 1_555
O42 C3_2 1_555 1_555
O43 Fe9 1_555 1_555
O44 C4 1_555 1_555
O45 Fe8 1_555 1_555
O46 Fe5 1_555 1_555
O50 Fe10 1_555 1_555
O51 Fe9 1_555 1_555
O52 Fe13 1_555 1_555
O53 Fe8 1_555 1_555
O54 Fe5 1_555 1_555
C4 O43 1_555 1_555
C6 O51 1_555 1_555
C1_2 C2_2 1_555 1_555
As4 O23 1_555 1_555
Fe9 O26 1_555 1_555
Fe9 O34 1_555 1_555
Fe8 O16 1_555 1_555
Fe5 O33 1_555 1_555
O50 C5_2 1_555 1_555
O52 C6 1_555 1_555
C3_2 C5_2 1_555 1_555
C4 C6 1_555 1_555
C1_3 O46 1_555 1_555
C2_3 O54 1_555 1_555
Fe10_2 O42_2 1_555 1_555
O42_2 C3_3 1_555 1_555
O50_2 Fe10_2 1_555 1_555
C1_3 C2_3 1_555 1_555
O50_2 C5_3 1_555 1_555
C3_3 C5_3 1_555 1_555
As3_2 O14 1_555 1_555
Fe7_2 O40_2 1_555 1_555
O27 As3_2 1_555 1_555
O28_2 As3_2 1_555 1_555
H2_2 O28_2 1_555 1_555
O40_2 C1_4 1_555 1_555
O48_2 C2_4 1_555 1_555
C3_4 O47 1_555 1_555
C5_4 O55 1_555 1_555
C1_4 C2_4 1_555 1_555
As3_2 O20 1_555 1_555
Fe7_2 O48_2 1_555 1_555
C3_4 C5_4 1_555 1_555
Fe10_3 O42_3 1_555 1_555
O42_3 C3_5 1_555 1_555
O50_3 Fe10_3 1_555 1_555
C3_5 O45 1_555 1_555
C5_5 O53 1_555 1_555
O50_3 C5_5 1_555 1_555
C3_5 C5_5 1_555 1_555
As8_2 O35_2 1_555 1_555
Fe10 O14_2 1_555 1_555
Fe10_3 O11_2 1_555 1_555
O9_2 Fe10_2 1_555 1_555
O35_2 Fe10_2 1_555 1_555
O36_2 As8_2 1_555 1_555
O37_2 As8_2 1_555 1_555
O39_2 As8_2 1_555 1_555
Fe10_2 O24_2 1_555 1_555
Fe10 O22_2 1_555 1_555
Fe10 O36_2 1_555 1_555
Fe10_3 O37_2 1_555 1_555
Fe13 O17_2 1_555 1_555
O17_2 As5_2 1_555 1_555
O28_3 As3_3 1_555 1_555
O30_2 As5_2 1_555 1_555
H2_3 O28_3 1_555 1_555
H4_2 O30_2 1_555 1_555
As3_3 O15_2 1_555 1_555
O2_2 As1_2 1_555 1_555
O4_2 As1_2 1_555 1_555
H1_2 O4_2 1_555 1_555
O16_2 As4_2 1_555 1_555
O21_2 As7_2 1_555 1_555
O27_2 Fe10_3 1_555 1_555
O29_2 As4_2 1_555 1_555
O32_2 As7_2 1_555 1_555
H3_2 O29_2 1_555 1_555
H6_2 O32_2 1_555 1_555
Fe10_3 O16_2 1_555 1_555
As2_2 O5_2 1_555 1_555
Fe7_2 O1_2 1_555 1_555
O5_2 Fe7_2 1_555 1_555
O6_2 As2_2 1_555 1_555
Fe13 O10_2 1_555 1_555
Fe7 O3_2 1_555 1_555
O13_2 Fe7 1_555 1_555
O23_2 Fe7_2 1_555 1_555
O33_2 As2_2 1_555 1_555
O34_2 As2_2 1_555 1_555
Fe13 O26_2 1_555 1_555
Fe13 O34_2 1_555 1_555
Fe7 O33_2 1_555 1_555
O28_4 As3_4 1_555 1_555
H2_4 O28_4 1_555 1_555
As3_4 O20_2 1_555 1_555

#END
