
###############################################################################
#
# This file contains modified crystal structure data generated from the
# MOF subset of the Cambridge Structural Database (CSD) v543 
# hosted by the Cambridge Crystallographic Data Centre (CCDC).
#
# This work is licensed under the Creative Commons
# Attribution-NonCommercial-ShareAlike 4.0 International License.
# To view a copy of this license, visit
# http://creativecommons.org/licenses/by-nc-sa/4.0/
# or send a letter to
# Creative Commons, PO Box 1866, Mountain View, CA 94042, USA.
#
# CIF created using the CSD Python API on 29 September 2022
# The structure has been converted into the P1 space group
# The structure has a 3D framework
# The original CSD entry JEMNAR is in the monoclinic crystal system
# The framework has been calculated to contain at least 10.0% void space
# The void calculation uses a probe of radius 1.32A, grid spacing 0.4
#
###############################################################################

data_JEMNAR
_chemical_formula_moiety         '(C36 H28 N4 Ni4 O17)n'
_symmetry_cell_setting           triclinic
_symmetry_space_group_name_H-M   'P 1'
_symmetry_Int_Tables_number      1
_space_group_name_Hall           'P 1'
loop_
_symmetry_equiv_pos_site_id
_symmetry_equiv_pos_as_xyz
1 x,y,z
_cell_length_a                   13.104(3)
_cell_length_b                   9.3549(19)
_cell_length_c                   10.883(2)
_cell_angle_alpha                90
_cell_angle_beta                 113.08(3)
_cell_angle_gamma                90
_cell_volume                     1227.33
loop_
_atom_site_label
_atom_site_type_symbol
_atom_site_fract_x
_atom_site_fract_y
_atom_site_fract_z
Ni1 Ni 0.42563(5) 0.23839(6) 0.19334(6)
O1 O 0.3962(3) 0.3310(4) 0.3462(4)
O2 O 0.4862(4) 0.3545(4) 0.5674(4)
O3 O 0.5854(3) 0.3191(4) 0.3067(4)
O4 O 0.4841(3) 0.0576(4) 0.3144(4)
N1 N 0.2709(4) 0.1494(5) 0.1194(5)
C1 C 0.4820(5) 0.3320(5) 0.4522(5)
C2 C 0.5944(4) 0.3075(5) 0.4427(5)
H1 H 0.6470 0.3797 0.4970
C3 C 0.6402(5) 0.1594(6) 0.4940(5)
H2 H 0.7173 0.1559 0.5050
H3 H 0.6383 0.1462 0.5814
C4 C 0.5793(4) 0.0364(5) 0.4055(5)
C5 C 0.2267(5) 0.1004(7) 0.2018(6)
H4 H 0.2689 0.1063 0.2931
C6 C 0.1226(5) 0.0413(8) 0.1609(7)
H5 H 0.0960 0.0082 0.2234
C7 C 0.0573(5) 0.0316(8) 0.0247(7)
Ni3 Ni 0.42563(5) 0.26161(6) 0.69334(6)
O7 O 0.4862(4) 0.1455(4) 0.0674(4)
O12 O 0.3745(3) 0.4156(4) 0.0712(4)
H9 H 0.7173 0.3441 0.0050
H10 H 0.6383 0.3538 0.0814
C8 C 0.1038(6) 0.0790(11) 0.9397(7)
H6 H 0.0636 0.0735 0.8480
C9 C 0.2100(5) 0.1353(10) 0.9886(7)
H7 H 0.2402 0.1643 0.9282
Ni6 Ni 0.57437(5) 0.76161(6) 0.80666(6)
O6 O 0.3962(3) 0.1690(4) 0.8462(4)
O9 O 0.5854(3) 0.1809(4) 0.8067(4)
O10 O 0.4841(3) 0.4424(4) 0.8144(4)
O11 O 0.6255(3) 0.5844(4) 0.9288(4)
O13 O 0.3745(3) 0.0844(4) 0.5712(4)
N3 N 0.2709(4) 0.3506(5) 0.6194(5)
C10 C 0.4820(5) 0.1680(5) 0.9522(5)
C11 C 0.5944(4) 0.1925(5) 0.9427(5)
H8 H 0.6470 0.1203 0.9970
C12 C 0.6402(5) 0.3406(6) 0.9940(5)
C13 C 0.5793(4) 0.4636(5) 0.9055(5)
O5 O 0.6255(3) 0.9156(4) 0.4288(4)
Ni4 Ni 0.57437(5) 0.73839(6) 0.30666(6)
C17 C 0.8962(6) 0.9210(11) 0.0603(7)
H13 H 0.9364 0.9265 0.1520
C18 C 0.7900(5) 0.8647(10) 0.0114(7)
H14 H 0.7598 0.8357 0.0718
N2 N 0.7291(4) 0.8506(5) 0.8806(5)
C14 C 0.7733(5) 0.8996(7) 0.7982(6)
H11 H 0.7311 0.8937 0.7069
C15 C 0.8774(5) 0.9587(8) 0.8391(7)
H12 H 0.9040 0.9918 0.7766
C16 C 0.9427(5) 0.9684(8) 0.9753(7)
C14_2 C 0.2267(5) 0.3996(7) 0.7018(6)
H11_2 H 0.2689 0.3937 0.7931
C15_2 C 0.1226(5) 0.4587(8) 0.6609(7)
H12_2 H 0.0960 0.4918 0.7234
C16_2 C 0.0573(5) 0.4684(8) 0.5247(7)
C17_2 C 0.1038(6) 0.4210(11) 0.4397(7)
H13_2 H 0.0636 0.4265 0.3480
C18_2 C 0.2100(5) 0.3647(10) 0.4886(7)
H14_2 H 0.2402 0.3357 0.4282
O1_2 O 0.6038(3) 0.8310(4) 0.1538(4)
O3_2 O 0.4146(3) 0.8191(4) 0.1933(4)
O4_2 O 0.5159(3) 0.5576(4) 0.1856(4)
N1_2 N 0.7291(4) 0.6494(5) 0.3806(5)
C1_2 C 0.5180(5) 0.8320(5) 0.0478(5)
C2_2 C 0.4056(4) 0.8075(5) 0.0573(5)
H1_2 H 0.3530 0.8797 0.0030
C3_2 C 0.3598(5) 0.6594(6) 0.0060(5)
C4_2 C 0.4207(4) 0.5364(5) 0.0945(5)
C5_2 C 0.7733(5) 0.6004(7) 0.2982(6)
H4_2 H 0.7311 0.6063 0.2069
C6_2 C 0.8774(5) 0.5413(8) 0.3391(7)
H5_2 H 0.9040 0.5082 0.2766
C7_2 C 0.9427(5) 0.5316(8) 0.4753(7)
C8_2 C 0.8962(6) 0.5790(11) 0.5603(7)
H6_2 H 0.9364 0.5735 0.6520
C9_2 C 0.7900(5) 0.6353(10) 0.5114(7)
H7_2 H 0.7598 0.6643 0.5718
O6_2 O 0.6038(3) 0.6690(4) 0.6538(4)
O7_2 O 0.5138(4) 0.6455(4) 0.4326(4)
O8 O 0.5138(4) 0.8545(4) 0.9326(4)
O9_2 O 0.4146(3) 0.6809(4) 0.6933(4)
O10_2 O 0.5159(3) 0.9424(4) 0.6856(4)
C10_2 C 0.5180(5) 0.6680(5) 0.5478(5)
C11_2 C 0.4056(4) 0.6925(5) 0.5573(5)
H8_2 H 0.3530 0.6203 0.5030
C12_2 C 0.3598(5) 0.8406(6) 0.5060(5)
H9_2 H 0.2827 0.8441 0.4950
H10_2 H 0.3617 0.8538 0.4186
C13_2 C 0.4207(4) 0.9636(5) 0.5945(5)
H2_2 H 0.2827 0.6559 0.9950
H3_2 H 0.3617 0.6462 0.9186
loop_
_geom_bond_atom_site_label_1
_geom_bond_atom_site_label_2
_geom_bond_site_symmetry_1
_geom_bond_site_symmetry_2
Ni1 O1 1_555 1_555
O1 C1 1_555 1_555
O2 C1 1_555 1_555
O3 Ni1 1_555 1_555
O4 Ni1 1_555 1_555
N1 Ni1 1_555 1_555
C1 C2 1_555 1_555
C2 O3 1_555 1_555
H1 C2 1_555 1_555
C3 C2 1_555 1_555
H2 C3 1_555 1_555
H3 C3 1_555 1_555
C4 O4 1_555 1_555
C5 N1 1_555 1_555
H4 C5 1_555 1_555
C6 C5 1_555 1_555
H5 C6 1_555 1_555
C7 C6 1_555 1_555
Ni3 O2 1_555 1_555
O7 Ni1 1_555 1_555
O12 Ni1 1_555 1_555
C3 C4 1_555 1_555
H6 C8 1_555 1_555
H7 C9 1_555 1_555
Ni3 O6 1_555 1_555
Ni6 O11 1_555 1_555
O6 C10 1_555 1_555
O9 Ni3 1_555 1_555
O10 Ni3 1_555 1_555
O11 C13 1_555 1_555
O13 Ni3 1_555 1_555
N3 Ni3 1_555 1_555
C11 O9 1_555 1_555
H8 C11 1_555 1_555
C12 C11 1_555 1_555
C13 O10 1_555 1_555
C8 C9 1_555 1_555
C10 C11 1_555 1_555
C12 C13 1_555 1_555
Ni4 O5 1_555 1_555
H13 C17 1_555 1_555
H14 C18 1_555 1_555
C17 C18 1_555 1_555
Ni6 N2 1_555 1_555
N2 C14 1_555 1_555
C14 H11 1_555 1_555
C15 C14 1_555 1_555
H12 C15 1_555 1_555
C15 C16 1_555 1_555
N3 C14_2 1_555 1_555
C14_2 H11_2 1_555 1_555
C15_2 C14_2 1_555 1_555
H12_2 C15_2 1_555 1_555
C17_2 C16_2 1_555 1_555
H13_2 C17_2 1_555 1_555
C18_2 N3 1_555 1_555
H14_2 C18_2 1_555 1_555
C15_2 C16_2 1_555 1_555
C17_2 C18_2 1_555 1_555
Ni4 O1_2 1_555 1_555
O1_2 C1_2 1_555 1_555
O3_2 Ni4 1_555 1_555
O4_2 Ni4 1_555 1_555
O12 C4_2 1_555 1_555
N1_2 Ni4 1_555 1_555
C1_2 C2_2 1_555 1_555
C2_2 O3_2 1_555 1_555
H1_2 C2_2 1_555 1_555
C3_2 C2_2 1_555 1_555
C4_2 O4_2 1_555 1_555
C5_2 N1_2 1_555 1_555
H4_2 C5_2 1_555 1_555
C6_2 C5_2 1_555 1_555
H5_2 C6_2 1_555 1_555
C7_2 C6_2 1_555 1_555
C8_2 C7_2 1_555 1_555
H6_2 C8_2 1_555 1_555
C9_2 N1_2 1_555 1_555
H7_2 C9_2 1_555 1_555
Ni6 O6_2 1_555 1_555
O6_2 C10_2 1_555 1_555
O7_2 Ni4 1_555 1_555
O8 Ni6 1_555 1_555
O9_2 Ni6 1_555 1_555
O10_2 Ni6 1_555 1_555
C10_2 O7_2 1_555 1_555
C11_2 O9_2 1_555 1_555
H8_2 C11_2 1_555 1_555
C12_2 C11_2 1_555 1_555
H9_2 C12_2 1_555 1_555
H10_2 C12_2 1_555 1_555
C13_2 O10_2 1_555 1_555
C3_2 C4_2 1_555 1_555
C8_2 C9_2 1_555 1_555
C10_2 C11_2 1_555 1_555
C12_2 C13_2 1_555 1_555

#END
