
###############################################################################
#
# This file contains modified crystal structure data generated from the
# MOF subset of the Cambridge Structural Database (CSD) v543 
# hosted by the Cambridge Crystallographic Data Centre (CCDC).
#
# This work is licensed under the Creative Commons
# Attribution-NonCommercial-ShareAlike 4.0 International License.
# To view a copy of this license, visit
# http://creativecommons.org/licenses/by-nc-sa/4.0/
# or send a letter to
# Creative Commons, PO Box 1866, Mountain View, CA 94042, USA.
#
# CIF created using the CSD Python API on 29 September 2022
# The structure has been converted into the P1 space group
# The structure has a 3D framework
# The original CSD entry JEMPEZ is in the triclinic crystal system
# The framework has been calculated to contain at least 10.0% void space
# The void calculation uses a probe of radius 1.32A, grid spacing 0.4
# The framework is charged, counterions have been retained in the structure
#
###############################################################################

data_JEMPEZ
_chemical_formula_moiety         '(C54 H26 In2 N2 O12 2-)n'
_symmetry_cell_setting           triclinic
_symmetry_space_group_name_H-M   'P 1'
_symmetry_Int_Tables_number      1
_space_group_name_Hall           'P 1'
loop_
_symmetry_equiv_pos_site_id
_symmetry_equiv_pos_as_xyz
1 x,y,z
_cell_length_a                   9.8441(11)
_cell_length_b                   13.3787(18)
_cell_length_c                   13.8506(17)
_cell_angle_alpha                112.559(13)
_cell_angle_beta                 97.112(10)
_cell_angle_gamma                91.975(10)
_cell_volume                     1664.91
loop_
_atom_site_label
_atom_site_type_symbol
_atom_site_fract_x
_atom_site_fract_y
_atom_site_fract_z
O4 O 0.1607(10) 0.0606(7) 0.1393(7)
O7 O 0.2595(9) 0.0240(7) 0.2706(7)
In4 In 0.27854(8) 0.19710(6) 0.30073(6)
O2 O 0.0413(9) 0.1978(8) 0.3247(7)
O5 O 0.1350(8) 0.2981(7) 0.2552(7)
C2 C 0.1837(15) 0.9934(10) 0.1808(11)
C7 C 0.1094(14) 0.8835(10) 0.1351(10)
C12 C 0.0066(15) 0.8530(10) 0.0488(10)
C25 C 0.0299(13) 0.2574(11) 0.2768(10)
C26 C 0.0537(14) 0.7144(10) 0.1490(11)
H12 H 0.0739 0.6663 0.1814
C27 C 0.1329(14) 0.8122(10) 0.1833(11)
H13 H 0.2034 0.8299 0.2400
O6 O 0.5214(8) 0.1827(7) 0.3109(7)
O8 O 0.4047(8) 0.2440(6) 0.2034(6)
C3 C 0.8943(12) 0.2857(9) 0.2424(9)
C4 C 0.7733(12) 0.2456(10) 0.2614(10)
H1 H 0.7770 0.2035 0.3015
C5 C 0.5160(13) 0.2280(10) 0.2480(10)
C9 C 0.7592(11) 0.3724(9) 0.1402(9)
C10 C 0.8503(13) 0.5278(10) 0.1029(10)
H3 H 0.9136 0.5492 0.1645
C11 C 0.6464(12) 0.2674(9) 0.2214(9)
H4 H 0.9937 0.8983 0.0123
C13 C 0.8862(12) 0.3502(9) 0.1825(9)
H5 H 0.9669 0.3788 0.1705
C15 C 0.6408(12) 0.3293(9) 0.1614(9)
H6 H 0.5554 0.3428 0.1342
C16 C 0.7559(12) 0.4378(9) 0.0747(9)
C17 C 0.8486(14) 0.5851(10) 0.0375(9)
C22 C 0.9462(13) 0.6870(10) 0.0685(10)
C24 C 0.9223(15) 0.7572(10) 0.0149(10)
O9 O 0.3685(10) 0.3596(7) 0.4414(7)
O11 O 0.3133(8) 0.2141(7) 0.4683(6)
C1 C 0.3646(13) 0.3122(10) 0.5038(10)
N1 N 0.7583(11) 0.5590(8) 0.9496(8)
C6 C 0.4282(14) 0.3646(10) 0.6162(10)
C8 C 0.5298(14) 0.4507(10) 0.6482(10)
H2 H 0.5466 0.4840 0.6024
C14 C 0.5775(12) 0.4396(10) 0.8187(10)
C18 C 0.6044(15) 0.4862(10) 0.7470(10)
H7 H 0.6742 0.5421 0.7671
C19 C 0.3967(14) 0.3200(11) 0.6871(10)
H8 H 0.3280 0.2633 0.6664
C20 C 0.4679(14) 0.3603(11) 0.7880(11)
H9 H 0.4422 0.3339 0.8368
C21 C 0.6631(12) 0.4106(9) 0.9841(9)
H10 H 0.5992 0.3507 0.9633
C23 C 0.6647(14) 0.4724(10) 0.9239(9)
H11 H 0.8517 0.7395 0.9582
O1 O 0.6315(10) 0.6404(7) 0.5586(7)
O3 O 0.6867(8) 0.7859(7) 0.5317(6)
C1_2 C 0.6354(13) 0.6878(10) 0.4962(10)
N1_2 N 0.2417(11) 0.4410(8) 0.0504(8)
C6_2 C 0.5718(14) 0.6354(10) 0.3838(10)
C8_2 C 0.4702(14) 0.5493(10) 0.3518(10)
H2_2 H 0.4534 0.5160 0.3976
C14_2 C 0.4225(12) 0.5604(10) 0.1813(10)
C18_2 C 0.3956(15) 0.5138(10) 0.2530(10)
H7_2 H 0.3258 0.4579 0.2329
C19_2 C 0.6033(14) 0.6800(11) 0.3129(10)
H8_2 H 0.6720 0.7367 0.3336
C20_2 C 0.5321(14) 0.6397(11) 0.2120(11)
H9_2 H 0.5578 0.6661 0.1632
C21_2 C 0.3369(12) 0.5894(9) 0.0159(9)
H10_2 H 0.4008 0.6493 0.0367
C23_2 C 0.3353(14) 0.5276(10) 0.0761(9)
H11_2 H 0.1483 0.2605 0.0418
In2 In 0.72146(8) 0.80290(6) 0.69927(6)
O6_2 O 0.4786(8) 0.8173(7) 0.6891(7)
O8_2 O 0.5953(8) 0.7560(6) 0.7966(6)
C3_2 C 0.1057(12) 0.7143(9) 0.7576(9)
C4_2 C 0.2267(12) 0.7544(10) 0.7386(10)
H1_2 H 0.2230 0.7965 0.6985
C5_2 C 0.4840(13) 0.7720(10) 0.7520(10)
C9_2 C 0.2408(11) 0.6276(9) 0.8598(9)
C10_2 C 0.1497(13) 0.4722(10) 0.8971(10)
H3_2 H 0.0864 0.4508 0.8355
C11_2 C 0.3536(12) 0.7326(9) 0.7786(9)
H4_2 H 0.0063 0.1017 0.9877
C13_2 C 0.1138(12) 0.6498(9) 0.8175(9)
H5_2 H 0.0331 0.6212 0.8295
C15_2 C 0.3592(12) 0.6707(9) 0.8386(9)
H6_2 H 0.4446 0.6572 0.8658
C16_2 C 0.2441(12) 0.5622(9) 0.9253(9)
C17_2 C 0.1514(14) 0.4149(10) 0.9625(9)
C22_2 C 0.0538(13) 0.3130(10) 0.9315(10)
C24_2 C 0.0777(15) 0.2428(10) 0.9851(10)
O10 O 0.9587(9) 0.8022(8) 0.6753(7)
O12 O 0.8393(10) 0.9394(7) 0.8607(7)
O13 O 0.8650(8) 0.7019(7) 0.7448(7)
O14 O 0.7405(9) 0.9760(7) 0.7294(7)
C2_2 C 0.8163(15) 0.0066(10) 0.8192(11)
C7_2 C 0.8906(14) 0.1165(10) 0.8649(10)
C12_2 C 0.9934(15) 0.1470(10) 0.9512(10)
C25_2 C 0.9701(13) 0.7426(11) 0.7232(10)
C26_2 C 0.9463(14) 0.2856(10) 0.8510(11)
H12_2 H 0.9261 0.3337 0.8186
C27_2 C 0.8671(14) 0.1878(10) 0.8167(11)
H13_2 H 0.7966 0.1701 0.7600
loop_
_geom_bond_atom_site_label_1
_geom_bond_atom_site_label_2
_geom_bond_site_symmetry_1
_geom_bond_site_symmetry_2
In4 O4 1_555 1_555
O7 In4 1_555 1_555
O2 C25 1_555 1_555
O5 C25 1_555 1_555
C2 C7 1_555 1_555
C7 C12 1_555 1_555
H12 C26 1_555 1_555
C27 C7 1_555 1_555
H13 C27 1_555 1_555
In4 O2 1_555 1_555
O5 In4 1_555 1_555
C26 C27 1_555 1_555
In4 O6 1_555 1_555
O6 C5 1_555 1_555
O8 In4 1_555 1_555
C3 C4 1_555 1_555
C4 H1 1_555 1_555
C5 O8 1_555 1_555
C9 C13 1_555 1_555
C10 H3 1_555 1_555
C11 C4 1_555 1_555
C13 C3 1_555 1_555
H5 C13 1_555 1_555
C15 C9 1_555 1_555
H6 C15 1_555 1_555
C16 C9 1_555 1_555
C17 C10 1_555 1_555
C22 C17 1_555 1_555
O9 In4 1_555 1_555
O11 In4 1_555 1_555
C5 C11 1_555 1_555
C10 C16 1_555 1_555
C11 C15 1_555 1_555
C22 C24 1_555 1_555
O9 C1 1_555 1_555
O11 C1 1_555 1_555
C1 C6 1_555 1_555
C6 C8 1_555 1_555
C8 H2 1_555 1_555
C14 C18 1_555 1_555
C18 C8 1_555 1_555
H7 C18 1_555 1_555
C19 C6 1_555 1_555
H8 C19 1_555 1_555
C20 C14 1_555 1_555
H9 C20 1_555 1_555
H10 C21 1_555 1_555
C23 N1 1_555 1_555
C14 C23 1_555 1_555
C19 C20 1_555 1_555
C21 C23 1_555 1_555
O1 C1_2 1_555 1_555
O3 C1_2 1_555 1_555
C1_2 C6_2 1_555 1_555
C6_2 C8_2 1_555 1_555
C8_2 H2_2 1_555 1_555
C14_2 C18_2 1_555 1_555
C18_2 C8_2 1_555 1_555
H7_2 C18_2 1_555 1_555
C19_2 C6_2 1_555 1_555
H8_2 C19_2 1_555 1_555
C20_2 C14_2 1_555 1_555
H9_2 C20_2 1_555 1_555
H10_2 C21_2 1_555 1_555
C23_2 N1_2 1_555 1_555
In2 O1 1_555 1_555
O3 In2 1_555 1_555
C14_2 C23_2 1_555 1_555
C19_2 C20_2 1_555 1_555
C21_2 C23_2 1_555 1_555
In2 O6_2 1_555 1_555
O6_2 C5_2 1_555 1_555
O8_2 In2 1_555 1_555
C3_2 C4_2 1_555 1_555
C4_2 H1_2 1_555 1_555
C5_2 O8_2 1_555 1_555
C9_2 C13_2 1_555 1_555
C10_2 H3_2 1_555 1_555
C11_2 C4_2 1_555 1_555
C13_2 C3_2 1_555 1_555
H5_2 C13_2 1_555 1_555
C15_2 C9_2 1_555 1_555
H6_2 C15_2 1_555 1_555
C16_2 C9_2 1_555 1_555
C17_2 C10_2 1_555 1_555
C22_2 C17_2 1_555 1_555
O10 In2 1_555 1_555
O12 In2 1_555 1_555
O13 In2 1_555 1_555
O14 In2 1_555 1_555
C5_2 C11_2 1_555 1_555
C10_2 C16_2 1_555 1_555
C11_2 C15_2 1_555 1_555
C22_2 C24_2 1_555 1_555
O10 C25_2 1_555 1_555
O13 C25_2 1_555 1_555
C2_2 C7_2 1_555 1_555
C7_2 C12_2 1_555 1_555
H12_2 C26_2 1_555 1_555
C27_2 C7_2 1_555 1_555
H13_2 C27_2 1_555 1_555
C26_2 C27_2 1_555 1_555

#END
