
###############################################################################
#
# This file contains modified crystal structure data generated from the
# MOF subset of the Cambridge Structural Database (CSD) v543 
# hosted by the Cambridge Crystallographic Data Centre (CCDC).
#
# This work is licensed under the Creative Commons
# Attribution-NonCommercial-ShareAlike 4.0 International License.
# To view a copy of this license, visit
# http://creativecommons.org/licenses/by-nc-sa/4.0/
# or send a letter to
# Creative Commons, PO Box 1866, Mountain View, CA 94042, USA.
#
# CIF created using the CSD Python API on 29 September 2022
# The structure has been converted into the P1 space group
# The structure has a 3D framework
# The original CSD entry JENKIX is in the monoclinic crystal system
# The framework has been calculated to contain at least 10.0% void space
# The void calculation uses a probe of radius 1.32A, grid spacing 0.4
#
###############################################################################

data_JENKIX
_chemical_formula_moiety         '(C720 H432 O108 Zn32)n'
_symmetry_cell_setting           triclinic
_symmetry_space_group_name_H-M   'P 1'
_symmetry_Int_Tables_number      1
_space_group_name_Hall           'P 1'
loop_
_symmetry_equiv_pos_site_id
_symmetry_equiv_pos_as_xyz
1 x,y,z
_cell_length_a                   34.6215(9)
_cell_length_b                   15.0763(3)
_cell_length_c                   42.9953(9)
_cell_angle_alpha                90
_cell_angle_beta                 108.373(2)
_cell_angle_gamma                90
_cell_volume                     21298
loop_
_atom_site_label
_atom_site_type_symbol
_atom_site_fract_x
_atom_site_fract_y
_atom_site_fract_z
Zn1 Zn 0.300986(12) 0.11749(3) 0.792795(9)
Zn4 Zn 0.281722(12) 0.25012(3) 0.731218(9)
O1 O 0.27902(6) 0.23367(13) 0.78010(5)
H8 H 0.2789 0.0245 0.6715
C17 C 0.30896(10) 0.0633(2) 0.73514(8)
O4 O 0.28066(7) 0.11585(14) 0.72110(6)
O5 O 0.33192(7) 0.07245(14) 0.76454(5)
H45 H 0.1451 0.0186 0.7454
C77 C 0.22520(10) 0.0356(2) 0.76901(8)
O11 O 0.26171(7) 0.02156(15) 0.78620(6)
O12 O 0.20919(7) 0.10997(14) 0.76256(7)
Zn11 Zn 0.218278(12) 0.24988(3) 0.768782(9)
O15 O 0.22098(6) 0.26633(13) 0.71990(5)
O16 O 0.28552(9) 0.26485(19) 0.68438(6)
O19 O 0.34525(7) 0.26289(13) 0.75515(5)
O22 O 0.29081(7) 0.39003(14) 0.73744(7)
O24 O 0.33979(7) 0.10976(17) 0.83589(5)
Zn3 Zn 0.608860(14) 0.69708(3) 0.714170(10)
C27 C 0.54595(10) 0.9459(2) 0.71162(9)
C28 C 0.53076(11) 0.9546(2) 0.67801(9)
H17 H 0.5344 0.9077 0.6644
C30 C 0.56898(10) 0.8638(2) 0.72638(9)
O6 O 0.58455(7) 0.86281(16) 0.75728(6)
O7 O 0.57223(8) 0.80471(15) 0.70680(6)
Zn6 Zn 0.630350(13) 0.78598(3) 0.779800(10)
O18 O 0.65475(7) 0.76289(13) 0.74485(5)
O21 O 0.58396(7) 0.61399(14) 0.73690(5)
O23 O 0.60291(7) 0.66852(15) 0.66934(5)
C60 C 0.90441(11) 0.9867(2) 0.68472(8)
H36 H 0.8875 0.9436 0.6708
C61 C 0.91799(10) 0.9732(2) 0.71850(8)
C64 C 0.90524(10) 0.8922(2) 0.73259(8)
O9 O 0.88537(7) 0.83450(15) 0.71248(5)
O10 O 0.91604(7) 0.88601(14) 0.76310(5)
Zn7 Zn 0.869650(13) 0.71402(3) 0.720200(10)
Zn9 Zn 0.891140(14) 0.80292(3) 0.785830(10)
H21 H 0.7688 0.0204 0.9675
H48 H 0.4692 0.1986 0.9999
C81 C 0.44826(11) 0.0752(2) 0.98569(8)
C84 C 0.43053(11) 0.0930(3) 0.94995(8)
C85 C 0.44796(11) 0.1509(3) 0.93350(8)
H51 H 0.4717 0.1828 0.9454
C86 C 0.43151(11) 0.1639(2) 0.89980(8)
H52 H 0.4445 0.2027 0.8888
C87 C 0.39625(11) 0.1199(2) 0.88252(8)
C88 C 0.37847(12) 0.0610(3) 0.89866(9)
H53 H 0.3543 0.0306 0.8868
C89 C 0.39557(12) 0.0460(3) 0.93201(9)
H54 H 0.3837 0.0039 0.9427
C90 C 0.37646(11) 0.1345(2) 0.84683(8)
O13 O 0.39709(7) 0.16852(15) 0.83066(5)
Zn10 Zn 0.391140(14) 0.19708(3) 0.785830(10)
O2 O 0.71448(9) 0.76485(19) 0.81562(6)
O3 O 0.66147(7) 0.83985(16) 0.82088(5)
C33 C 0.83290(18) 0.8654(4) 0.97827(11)
H20 H 0.8419 0.8200 0.9669
C34 C 0.79831(12) 0.9123(3) 0.96221(9)
C35 C 0.79027(16) 0.9814(3) 0.97850(10)
C37 C 0.77278(12) 0.8897(3) 0.92787(9)
C38 C 0.78922(13) 0.8506(3) 0.90606(10)
H23 H 0.8176 0.8390 0.9127
C39 C 0.76572(13) 0.8280(3) 0.87492(9)
H24 H 0.7780 0.8010 0.8604
C40 C 0.72407(10) 0.8443(2) 0.86445(8)
C41 C 0.70744(12) 0.8865(3) 0.88573(9)
H25 H 0.6793 0.9007 0.8787
C42 C 0.73135(12) 0.9083(3) 0.91721(10)
H26 H 0.7193 0.9364 0.9317
C43 C 0.69852(12) 0.8151(2) 0.83102(8)
C82 C 0.44677(12) 0.9903(3) 0.99793(9)
H49 H 0.4344 0.9439 0.9832
Zn12 Zn 0.718278(12) 0.75012(3) 0.768782(9)
O20 O 0.61463(7) 0.66550(15) 0.78752(5)
Zn2 Zn 0.369650(13) 0.28598(3) 0.720200(10)
C1 C 0.12682(10) 0.5401(2) 0.38530(8)
C2 C 0.10023(10) 0.4744(2) 0.36780(8)
H1 H 0.0883 0.4802 0.3448
C3 C 0.09107(10) 0.4012(2) 0.38349(8)
C4 C 0.10927(10) 0.3938(2) 0.41744(8)
H2 H 0.1036 0.3431 0.4284
O3_2 O 0.33853(7) 0.33985(16) 0.67912(5)
C5 C 0.13808(11) 0.6161(2) 0.36812(8)
C6 C 0.14592(12) 0.6994(2) 0.38294(9)
H3 H 0.1433 0.7080 0.4041
C7 C 0.15758(12) 0.7703(2) 0.36701(9)
H4 H 0.1629 0.8264 0.3775
C8 C 0.16158(11) 0.7600(2) 0.33604(8)
C9 C 0.15424(11) 0.6763(2) 0.32115(9)
H5 H 0.1570 0.6677 0.3001
C10 C 0.14296(11) 0.6061(2) 0.33714(8)
H6 H 0.1384 0.5496 0.3269
C11 C 0.17087(11) 0.8374(2) 0.31818(8)
C12 C 0.19704(12) 0.9048(2) 0.33439(9)
H7 H 0.2105 0.9005 0.3573
C13 C 0.20352(11) 0.9783(2) 0.31721(8)
C14 C 0.18453(10) 0.9849(2) 0.28360(8)
C15 C 0.15838(10) 0.9179(2) 0.26730(8)
H9 H 0.1450 0.9223 0.2444
C16 C 0.15193(11) 0.8446(2) 0.28453(8)
H10 H 0.1343 0.7987 0.2732
C18 C 0.06367(10) 0.3287(2) 0.36503(8)
C19 C 0.06249(10) 0.3065(2) 0.33324(9)
H11 H 0.0770 0.3414 0.3223
C20 C 0.03992(11) 0.2328(2) 0.31740(9)
H12 H 0.0396 0.2184 0.2958
C21 C 0.01830(10) 0.1810(2) 0.33248(9)
C22 C 0.01832(11) 0.2061(2) 0.36395(9)
H13 H 0.0028 0.1728 0.3746
C23 C 0.04071(11) 0.2788(2) 0.37970(9)
H14 H 0.0402 0.2946 0.4010
C31 C 0.15645(11) 0.4454(2) 0.47161(8)
C32 C 0.14509(18) 0.3828(4) 0.48936(11)
H19 H 0.1211 0.3495 0.4793
C33_2 C 0.16710(18) 0.3654(4) 0.52173(11)
H20_2 H 0.1581 0.3200 0.5331
C34_2 C 0.20169(12) 0.4123(3) 0.53779(9)
C35_2 C 0.20973(16) 0.4814(3) 0.52150(10)
H21_2 H 0.2312 0.5204 0.5325
C36 C 0.18770(15) 0.4984(3) 0.48875(10)
H22 H 0.1947 0.5483 0.4782
C37_2 C 0.22722(12) 0.3897(3) 0.57213(9)
C38_2 C 0.21078(13) 0.3506(3) 0.59394(10)
H23_2 H 0.1824 0.3390 0.5873
C39_2 C 0.23428(13) 0.3280(3) 0.62508(9)
H24_2 H 0.2220 0.3010 0.6396
C40_2 C 0.27593(10) 0.3443(2) 0.63555(8)
C41_2 C 0.29256(12) 0.3865(3) 0.61427(9)
H25_2 H 0.3207 0.4007 0.6213
C42_2 C 0.26865(12) 0.4083(3) 0.58279(10)
H26_2 H 0.2807 0.4364 0.5683
C43_2 C 0.30148(12) 0.3151(2) 0.66898(8)
C44 C 0.13539(11) 0.4584(2) 0.43553(8)
C45 C 0.14340(11) 0.5315(2) 0.41923(8)
H27 H 0.1606 0.5769 0.4314
C46 C 0.50397(10) 0.4314(2) 0.36407(7)
C47 C 0.47311(10) 0.4840(2) 0.34406(8)
H28 H 0.4631 0.4722 0.3212
C48 C 0.45671(10) 0.5534(2) 0.35686(8)
C49 C 0.47067(11) 0.5689(2) 0.39044(8)
H29 H 0.4584 0.6141 0.3995
C50 C 0.50252(10) 0.5188(2) 0.41109(8)
C51 C 0.51876(10) 0.4506(2) 0.39722(8)
H30 H 0.5406 0.4164 0.4109
C52 C 0.51985(10) 0.3542(2) 0.35003(8)
C53 C 0.52972(11) 0.2754(2) 0.36772(8)
H31 H 0.5272 0.2717 0.3891
C54 C 0.54307(11) 0.2029(2) 0.35462(9)
H32 H 0.5497 0.1498 0.3671
C55 C 0.54708(10) 0.2057(2) 0.32327(8)
C56 C 0.53825(11) 0.2855(2) 0.30629(8)
H33 H 0.5416 0.2900 0.2853
C57 C 0.52472(11) 0.3579(2) 0.31931(8)
H34 H 0.5186 0.4114 0.3070
C58 C 0.55968(11) 0.1259(2) 0.30872(8)
C59 C 0.58474(11) 0.0616(2) 0.32845(8)
H35 H 0.5945 0.0700 0.3515
C62 C 0.55729(10) 0.0363(2) 0.26160(8)
H37 H 0.5478 0.0277 0.2385
C63 C 0.54612(10) 0.1119(2) 0.27490(8)
H38 H 0.5291 0.1547 0.2609
C65 C 0.42616(10) 0.6142(2) 0.33484(8)
C66 C 0.43821(10) 0.6634(2) 0.31204(8)
H39 H 0.4641 0.6533 0.3094
C67 C 0.41247(10) 0.7267(2) 0.29340(8)
H40 H 0.4211 0.7606 0.2782
C68 C 0.37412(10) 0.7421(2) 0.29629(8)
C69 C 0.36189(12) 0.6892(2) 0.31805(11)
H41 H 0.3353 0.6960 0.3197
C70 C 0.38789(12) 0.6271(3) 0.33724(11)
H42 H 0.3792 0.5928 0.3523
C71 C 0.34808(10) 0.8147(2) 0.27737(9)
C72 C 0.30570(11) 0.8067(2) 0.26470(11)
H43 H 0.2930 0.7523 0.2670
C73 C 0.28220(11) 0.8775(2) 0.24877(10)
H44 H 0.2535 0.8713 0.2401
C74 C 0.30021(10) 0.9570(2) 0.24545(8)
C75 C 0.34220(10) 0.9646(2) 0.25729(9)
C76 C 0.36562(11) 0.8938(2) 0.27293(9)
H46 H 0.3944 0.8998 0.2808
C78 C 0.51916(11) 0.5394(2) 0.44662(8)
C79 C 0.51717(13) 0.6229(3) 0.45901(9)
H47 H 0.5047 0.6696 0.4444
C80 C 0.53298(13) 0.6404(3) 0.49228(9)
H48_2 H 0.5308 0.6986 0.5001
C81_2 C 0.55174(11) 0.5752(2) 0.51431(8)
C82_2 C 0.55323(12) 0.4903(3) 0.50207(9)
H49_2 H 0.5656 0.4439 0.5168
C83 C 0.53722(12) 0.4720(3) 0.46901(9)
H50 H 0.5384 0.4133 0.4614
C84_2 C 0.56947(11) 0.5930(3) 0.55005(8)
C85_2 C 0.55204(11) 0.6509(3) 0.56650(8)
H51_2 H 0.5283 0.6828 0.5546
C86_2 C 0.56849(11) 0.6639(2) 0.60020(8)
H52_2 H 0.5555 0.7027 0.6112
C87_2 C 0.60375(11) 0.6199(2) 0.61748(8)
C88_2 C 0.62153(12) 0.5610(3) 0.60134(9)
H53_2 H 0.6457 0.5306 0.6132
C89_2 C 0.60443(12) 0.5460(3) 0.56799(9)
H54_2 H 0.6163 0.5039 0.5573
C90_2 C 0.62354(11) 0.6345(2) 0.65317(8)
O14 O 0.66021(7) 0.60976(17) 0.66411(5)
Zn5 Zn 0.699014(12) 0.61749(3) 0.707205(9)
O17 O 0.41545(7) 0.36281(16) 0.74272(6)
O20_2 O 0.38537(7) 0.16550(15) 0.71248(5)
C46_2 C 0.00397(10) 0.9314(2) 0.86407(7)
C51_2 C 0.01876(10) 0.9506(2) 0.89722(8)
H30_2 H 0.0406 0.9164 0.9109
C52_2 C 0.01985(10) 0.8542(2) 0.85003(8)
C53_2 C 0.02972(11) 0.7754(2) 0.86772(8)
H31_2 H 0.0272 0.7717 0.8891
C54_2 C 0.04307(11) 0.7029(2) 0.85462(9)
H32_2 H 0.0497 0.6498 0.8671
C55_2 C 0.04708(10) 0.7057(2) 0.82327(8)
C56_2 C 0.03825(11) 0.7855(2) 0.80629(8)
H33_2 H 0.0416 0.7900 0.7853
C57_2 C 0.02472(11) 0.8579(2) 0.81931(8)
H34_2 H 0.0186 0.9114 0.8070
C58_2 C 0.05968(11) 0.6259(2) 0.80872(8)
C59_2 C 0.08474(11) 0.5616(2) 0.82845(8)
H35_2 H 0.0945 0.5700 0.8515
C60_2 C 0.09559(11) 0.4867(2) 0.81528(8)
H36_2 H 0.1125 0.4436 0.8292
C61_2 C 0.08201(10) 0.4732(2) 0.78150(8)
C62_2 C 0.05729(10) 0.5363(2) 0.76160(8)
H37_2 H 0.0478 0.5277 0.7385
C63_2 C 0.04612(10) 0.6119(2) 0.77490(8)
H38_2 H 0.0291 0.6547 0.7609
C64_2 C 0.09476(10) 0.3922(2) 0.76741(8)
O9_2 O 0.11463(7) 0.33450(15) 0.78752(5)
O10_2 O 0.08396(7) 0.38601(14) 0.73690(5)
C83_2 C 0.03722(12) 0.9720(3) 0.96901(9)
H50_2 H 0.0384 0.9133 0.9614
Zn7_2 Zn 0.130350(13) 0.21402(3) 0.779800(10)
Zn9_2 Zn 0.108860(14) 0.30292(3) 0.714170(10)
O1_2 O 0.72098(6) 0.73367(13) 0.71990(5)
C1_2 C 0.62682(10) 0.0401(2) 0.88530(8)
C5_2 C 0.63808(11) 0.1161(2) 0.86812(8)
C6_2 C 0.64592(12) 0.1994(2) 0.88294(9)
H3_2 H 0.6433 0.2080 0.9041
C7_2 C 0.65758(12) 0.2703(2) 0.86701(9)
H4_2 H 0.6629 0.3264 0.8775
C8_2 C 0.66158(11) 0.2600(2) 0.83604(8)
C9_2 C 0.65424(11) 0.1763(2) 0.82115(9)
H5_2 H 0.6570 0.1677 0.8001
C10_2 C 0.64296(11) 0.1061(2) 0.83714(8)
H6_2 H 0.6384 0.0496 0.8269
C11_2 C 0.67087(11) 0.3374(2) 0.81818(8)
C12_2 C 0.69704(12) 0.4048(2) 0.83439(9)
H7_2 H 0.7105 0.4005 0.8573
C13_2 C 0.70352(11) 0.4783(2) 0.81721(8)
H8_2 H 0.7211 0.5245 0.8285
C14_2 C 0.68453(10) 0.4849(2) 0.78360(8)
C15_2 C 0.65838(10) 0.4179(2) 0.76730(8)
H9_2 H 0.6450 0.4223 0.7444
C16_2 C 0.65193(11) 0.3446(2) 0.78453(8)
H10_2 H 0.6343 0.2987 0.7732
C17_2 C 0.69104(10) 0.5633(2) 0.76486(8)
O4_2 O 0.71934(7) 0.61585(14) 0.77890(6)
O5_2 O 0.66808(7) 0.57245(14) 0.73546(5)
H22_2 H 0.6947 0.0483 0.9782
C45_2 C 0.64340(11) 0.0315(2) 0.91923(8)
H27_2 H 0.6606 0.0769 0.9314
C48_2 C 0.95671(10) 0.0534(2) 0.85686(8)
C49_2 C 0.97067(11) 0.0689(2) 0.89044(8)
H29_2 H 0.9584 0.1141 0.8995
C65_2 C 0.92616(10) 0.1142(2) 0.83484(8)
C66_2 C 0.93821(10) 0.1634(2) 0.81204(8)
H39_2 H 0.9641 0.1533 0.8094
C67_2 C 0.91247(10) 0.2267(2) 0.79340(8)
H40_2 H 0.9211 0.2606 0.7782
C68_2 C 0.87412(10) 0.2421(2) 0.79629(8)
C69_2 C 0.86189(12) 0.1892(2) 0.81805(11)
H41_2 H 0.8353 0.1960 0.8197
C70_2 C 0.88789(12) 0.1271(3) 0.83724(11)
H42_2 H 0.8792 0.0928 0.8523
C71_2 C 0.84808(10) 0.3147(2) 0.77737(9)
C72_2 C 0.80570(11) 0.3067(2) 0.76470(11)
H43_2 H 0.7930 0.2523 0.7670
C73_2 C 0.78220(11) 0.3775(2) 0.74877(10)
H44_2 H 0.7535 0.3713 0.7401
C74_2 C 0.80021(10) 0.4570(2) 0.74545(8)
C75_2 C 0.84220(10) 0.4646(2) 0.75729(9)
H45_2 H 0.8549 0.5186 0.7546
C76_2 C 0.86562(11) 0.3938(2) 0.77293(9)
H46_2 H 0.8944 0.3998 0.7808
C77_2 C 0.77480(10) 0.5356(2) 0.73099(8)
O11_2 O 0.73829(7) 0.52156(15) 0.71380(6)
O12_2 O 0.79081(7) 0.60997(14) 0.73744(7)
Zn11_2 Zn 0.781722(12) 0.74988(3) 0.731218(9)
O15_2 O 0.77902(6) 0.76633(13) 0.78010(5)
O22_2 O 0.70919(7) 0.89003(14) 0.76256(7)
C2_2 C 0.60023(10) 0.9744(2) 0.86780(8)
H1_2 H 0.5883 0.9802 0.8448
C3_2 C 0.59107(10) 0.9012(2) 0.88349(8)
C4_2 C 0.60927(10) 0.8938(2) 0.91744(8)
H2_2 H 0.6036 0.8431 0.9284
C18_2 C 0.56367(10) 0.8287(2) 0.86503(8)
C19_2 C 0.56249(10) 0.8065(2) 0.83324(9)
H11_2 H 0.5770 0.8414 0.8223
C20_2 C 0.53992(11) 0.7328(2) 0.81740(9)
H12_2 H 0.5396 0.7184 0.7958
C21_2 C 0.51830(10) 0.6810(2) 0.83248(9)
C22_2 C 0.51832(11) 0.7061(2) 0.86395(9)
H13_2 H 0.5028 0.6728 0.8746
C23_2 C 0.54071(11) 0.7788(2) 0.87970(9)
H14_2 H 0.5402 0.7946 0.9010
C24 C 0.49575(10) 0.5998(2) 0.81684(9)
C25 C 0.48123(10) 0.5907(2) 0.78302(9)
H15 H 0.4857 0.6368 0.7695
C26 C 0.46015(10) 0.5148(2) 0.76866(8)
H16 H 0.4499 0.5099 0.7455
C27_2 C 0.45405(10) 0.4459(2) 0.78838(9)
C28_2 C 0.46924(11) 0.4546(2) 0.82199(9)
H17_2 H 0.4656 0.4077 0.8356
C29 C 0.48962(11) 0.5300(2) 0.83613(9)
H18 H 0.4997 0.5348 0.8593
C30_2 C 0.43102(10) 0.3638(2) 0.77362(9)
O7_2 O 0.42777(8) 0.30471(15) 0.79320(6)
C31_2 C 0.65645(11) 0.9454(2) 0.97161(8)
C32_2 C 0.64509(18) 0.8828(4) 0.98936(11)
H19_2 H 0.6211 0.8495 0.9793
C36_2 C 0.68770(15) 0.9984(3) 0.98875(10)
C44_2 C 0.63539(11) 0.9584(2) 0.93553(8)
C47_2 C 0.97311(10) 0.9840(2) 0.84406(8)
H28_2 H 0.9631 0.9722 0.8212
O21_2 O 0.41604(7) 0.11399(14) 0.76310(5)
C46_3 C 0.00397(10) 0.5686(2) 0.36407(7)
C50_2 C 0.00252(10) 0.4812(2) 0.41109(8)
C51_3 C 0.01876(10) 0.5494(2) 0.39722(8)
H30_3 H 0.0406 0.5836 0.4109
C52_3 C 0.01985(10) 0.6458(2) 0.35003(8)
C53_3 C 0.02972(11) 0.7246(2) 0.36772(8)
H31_3 H 0.0272 0.7283 0.3891
C54_3 C 0.04307(11) 0.7971(2) 0.35462(9)
H32_3 H 0.0497 0.8502 0.3671
C55_3 C 0.04708(10) 0.7943(2) 0.32327(8)
C56_3 C 0.03825(11) 0.7145(2) 0.30629(8)
H33_3 H 0.0416 0.7100 0.2853
C57_3 C 0.02472(11) 0.6421(2) 0.31931(8)
H34_3 H 0.0186 0.5886 0.3070
C58_3 C 0.05968(11) 0.8741(2) 0.30872(8)
C59_3 C 0.08474(11) 0.9384(2) 0.32845(8)
H35_3 H 0.0945 0.9300 0.3515
C62_3 C 0.05729(10) 0.9637(2) 0.26160(8)
H37_3 H 0.0478 0.9723 0.2385
C63_3 C 0.04612(10) 0.8881(2) 0.27490(8)
H38_3 H 0.0291 0.8453 0.2609
C78_2 C 0.01916(11) 0.4606(2) 0.44662(8)
C79_2 C 0.01717(13) 0.3771(3) 0.45901(9)
H47_2 H 0.0047 0.3304 0.4444
C80_2 C 0.03298(13) 0.3596(3) 0.49228(9)
H48_3 H 0.0308 0.3014 0.5001
C81_3 C 0.05174(11) 0.4248(2) 0.51431(8)
C82_3 C 0.05323(12) 0.5097(3) 0.50207(9)
H49_3 H 0.0656 0.5561 0.5168
C83_3 C 0.03722(12) 0.5280(3) 0.46901(9)
H50_3 H 0.0384 0.5867 0.4614
C84_3 C 0.06947(11) 0.4070(3) 0.55005(8)
C85_3 C 0.05204(11) 0.3491(3) 0.56650(8)
H51_3 H 0.0283 0.3172 0.5546
C86_3 C 0.06849(11) 0.3361(2) 0.60020(8)
H52_3 H 0.0555 0.2973 0.6112
C87_3 C 0.10375(11) 0.3801(2) 0.61748(8)
C88_3 C 0.12153(12) 0.4390(3) 0.60134(9)
H53_3 H 0.1457 0.4694 0.6132
C89_3 C 0.10443(12) 0.4540(3) 0.56799(9)
H54_3 H 0.1163 0.4961 0.5573
C90_3 C 0.12354(11) 0.3655(2) 0.65317(8)
O13_2 O 0.10291(7) 0.33148(15) 0.66934(5)
O14_2 O 0.16021(7) 0.39024(17) 0.66411(5)
Zn5_2 Zn 0.199014(12) 0.38251(3) 0.707205(9)
C1_3 C 0.62682(10) 0.4599(2) 0.38530(8)
C2_3 C 0.60023(10) 0.5256(2) 0.36780(8)
H1_3 H 0.5883 0.5198 0.3448
C3_3 C 0.59107(10) 0.5988(2) 0.38349(8)
C4_3 C 0.60927(10) 0.6062(2) 0.41744(8)
H2_3 H 0.6036 0.6569 0.4284
O2_2 O 0.78552(9) 0.73515(19) 0.68438(6)
O3_3 O 0.83853(7) 0.66015(16) 0.67912(5)
C5_3 C 0.63808(11) 0.3839(2) 0.36812(8)
C6_3 C 0.64592(12) 0.3006(2) 0.38294(9)
H3_3 H 0.6433 0.2920 0.4041
C7_3 C 0.65758(12) 0.2297(2) 0.36701(9)
H4_3 H 0.6629 0.1736 0.3775
C8_3 C 0.66158(11) 0.2400(2) 0.33604(8)
C9_3 C 0.65424(11) 0.3237(2) 0.32115(9)
H5_3 H 0.6570 0.3323 0.3001
C10_3 C 0.64296(11) 0.3939(2) 0.33714(8)
H6_3 H 0.6384 0.4504 0.3269
C11_3 C 0.67087(11) 0.1626(2) 0.31818(8)
C12_3 C 0.69704(12) 0.0952(2) 0.33439(9)
H7_3 H 0.7105 0.0995 0.3573
C13_3 C 0.70352(11) 0.0217(2) 0.31721(8)
C14_3 C 0.68453(10) 0.0151(2) 0.28360(8)
C15_3 C 0.65838(10) 0.0821(2) 0.26730(8)
H9_3 H 0.6450 0.0777 0.2444
C16_3 C 0.65193(11) 0.1554(2) 0.28453(8)
H10_3 H 0.6343 0.2013 0.2732
C18_3 C 0.56367(10) 0.6713(2) 0.36503(8)
C19_3 C 0.56249(10) 0.6935(2) 0.33324(9)
H11_3 H 0.5770 0.6586 0.3223
C20_3 C 0.53992(11) 0.7672(2) 0.31740(9)
H12_3 H 0.5396 0.7816 0.2958
C21_3 C 0.51830(10) 0.8190(2) 0.33248(9)
C22_3 C 0.51832(11) 0.7939(2) 0.36395(9)
H13_3 H 0.5028 0.8272 0.3746
C23_3 C 0.54071(11) 0.7212(2) 0.37970(9)
H14_3 H 0.5402 0.7054 0.4010
C24_2 C 0.49575(10) 0.9002(2) 0.31684(9)
C25_2 C 0.48123(10) 0.9093(2) 0.28302(9)
H15_2 H 0.4857 0.8632 0.2695
C26_2 C 0.46015(10) 0.9852(2) 0.26866(8)
H16_2 H 0.4499 0.9901 0.2455
C29_2 C 0.48962(11) 0.9700(2) 0.33613(9)
H18_2 H 0.4997 0.9652 0.3593
C31_3 C 0.65645(11) 0.5546(2) 0.47161(8)
C32_3 C 0.64509(18) 0.6172(4) 0.48936(11)
H19_3 H 0.6211 0.6505 0.4793
C33_3 C 0.66710(18) 0.6346(4) 0.52173(11)
H20_3 H 0.6581 0.6800 0.5331
C34_3 C 0.70169(12) 0.5877(3) 0.53779(9)
C35_3 C 0.70973(16) 0.5186(3) 0.52150(10)
H21_3 H 0.7312 0.4796 0.5325
C36_3 C 0.68770(15) 0.5016(3) 0.48875(10)
H22_3 H 0.6947 0.4517 0.4782
C37_3 C 0.72722(12) 0.6103(3) 0.57213(9)
C38_3 C 0.71078(13) 0.6494(3) 0.59394(10)
H23_3 H 0.6824 0.6610 0.5873
C39_3 C 0.73428(13) 0.6720(3) 0.62508(9)
H24_3 H 0.7220 0.6990 0.6396
C40_3 C 0.77593(10) 0.6557(2) 0.63555(8)
C41_3 C 0.79256(12) 0.6135(3) 0.61427(9)
H25_3 H 0.8207 0.5993 0.6213
C42_3 C 0.76865(12) 0.5917(3) 0.58279(10)
H26_3 H 0.7807 0.5636 0.5683
C43_3 C 0.80148(12) 0.6849(2) 0.66898(8)
C44_3 C 0.63539(11) 0.5416(2) 0.43553(8)
C45_3 C 0.64340(11) 0.4685(2) 0.41923(8)
H27_3 H 0.6606 0.4231 0.4314
O8 O 0.84525(7) 0.73711(13) 0.75515(5)
C47_3 C 0.97311(10) 0.5160(2) 0.34406(8)
H28_3 H 0.9631 0.5278 0.3212
C48_3 C 0.95671(10) 0.4466(2) 0.35686(8)
C49_3 C 0.97067(11) 0.4311(2) 0.39044(8)
H29_3 H 0.9584 0.3859 0.3995
C65_3 C 0.92616(10) 0.3858(2) 0.33484(8)
C66_3 C 0.93821(10) 0.3366(2) 0.31204(8)
H39_3 H 0.9641 0.3467 0.3094
C67_3 C 0.91247(10) 0.2733(2) 0.29340(8)
H40_3 H 0.9211 0.2394 0.2782
C68_3 C 0.87412(10) 0.2579(2) 0.29629(8)
C69_3 C 0.86189(12) 0.3108(2) 0.31805(11)
H41_3 H 0.8353 0.3040 0.3197
C70_3 C 0.88789(12) 0.3729(3) 0.33724(11)
H42_3 H 0.8792 0.4072 0.3523
C71_3 C 0.84808(10) 0.1853(2) 0.27737(9)
C72_3 C 0.80570(11) 0.1933(2) 0.26470(11)
H43_3 H 0.7930 0.2477 0.2670
C73_3 C 0.78220(11) 0.1225(2) 0.24877(10)
H44_3 H 0.7535 0.1287 0.2401
C74_3 C 0.80021(10) 0.0430(2) 0.24545(8)
C75_3 C 0.84220(10) 0.0354(2) 0.25729(9)
C76_3 C 0.86562(11) 0.1062(2) 0.27293(9)
H46_3 H 0.8944 0.1002 0.2808
O17_2 O 0.91545(7) 0.63719(16) 0.74272(6)
C2_4 C 0.10023(10) 0.0256(2) 0.86780(8)
H1_4 H 0.0883 0.0198 0.8448
C3_4 C 0.09107(10) 0.0988(2) 0.88349(8)
C4_4 C 0.10927(10) 0.1062(2) 0.91744(8)
H2_4 H 0.1036 0.1569 0.9284
C18_4 C 0.06367(10) 0.1713(2) 0.86503(8)
C19_4 C 0.06249(10) 0.1935(2) 0.83324(9)
H11_4 H 0.0770 0.1586 0.8223
C20_4 C 0.03992(11) 0.2672(2) 0.81740(9)
H12_4 H 0.0396 0.2816 0.7958
C21_4 C 0.01830(10) 0.3190(2) 0.83248(9)
C22_4 C 0.01832(11) 0.2939(2) 0.86395(9)
H13_4 H 0.0028 0.3272 0.8746
C23_4 C 0.04071(11) 0.2212(2) 0.87970(9)
H14_4 H 0.0402 0.2054 0.9010
C31_4 C 0.15645(11) 0.0546(2) 0.97161(8)
C32_4 C 0.14509(18) 0.1172(4) 0.98936(11)
H19_4 H 0.1211 0.1505 0.9793
C36_4 C 0.18770(15) 0.0016(3) 0.98875(10)
C44_4 C 0.13539(11) 0.0416(2) 0.93553(8)
C46_4 C 0.50397(10) 0.0686(2) 0.86407(7)
C47_4 C 0.47311(10) 0.0160(2) 0.84406(8)
H28_4 H 0.4631 0.0278 0.8212
C51_4 C 0.51876(10) 0.0494(2) 0.89722(8)
H30_4 H 0.5406 0.0836 0.9109
C52_4 C 0.51985(10) 0.1458(2) 0.85003(8)
C53_4 C 0.52972(11) 0.2246(2) 0.86772(8)
H31_4 H 0.5272 0.2283 0.8891
C54_4 C 0.54307(11) 0.2971(2) 0.85462(9)
H32_4 H 0.5497 0.3502 0.8671
C55_4 C 0.54708(10) 0.2943(2) 0.82327(8)
C56_4 C 0.53825(11) 0.2145(2) 0.80629(8)
H33_4 H 0.5416 0.2100 0.7853
C57_4 C 0.52472(11) 0.1421(2) 0.81931(8)
H34_4 H 0.5186 0.0886 0.8070
C58_4 C 0.55968(11) 0.3741(2) 0.80872(8)
C59_4 C 0.58474(11) 0.4384(2) 0.82845(8)
H35_4 H 0.5945 0.4300 0.8515
C60_3 C 0.59559(11) 0.5133(2) 0.81528(8)
H36_3 H 0.6125 0.5564 0.8292
C61_3 C 0.58201(10) 0.5268(2) 0.78150(8)
C62_4 C 0.55729(10) 0.4637(2) 0.76160(8)
H37_4 H 0.5478 0.4723 0.7385
C63_4 C 0.54612(10) 0.3881(2) 0.77490(8)
H38_4 H 0.5291 0.3453 0.7609
C64_3 C 0.59476(10) 0.6078(2) 0.76741(8)
C83_4 C 0.53722(12) 0.0280(3) 0.96901(9)
H50_4 H 0.5384 0.0867 0.9614
C1_4 C 0.12682(10) 0.9599(2) 0.88530(8)
C5_4 C 0.13808(11) 0.8839(2) 0.86812(8)
C6_4 C 0.14592(12) 0.8006(2) 0.88294(9)
H3_4 H 0.1433 0.7920 0.9041
C7_4 C 0.15758(12) 0.7297(2) 0.86701(9)
H4_4 H 0.1629 0.6736 0.8775
C8_4 C 0.16158(11) 0.7400(2) 0.83604(8)
C9_4 C 0.15424(11) 0.8237(2) 0.82115(9)
H5_4 H 0.1570 0.8323 0.8001
C10_4 C 0.14296(11) 0.8939(2) 0.83714(8)
H6_4 H 0.1384 0.9504 0.8269
C11_4 C 0.17087(11) 0.6626(2) 0.81818(8)
C12_4 C 0.19704(12) 0.5952(2) 0.83439(9)
H7_4 H 0.2105 0.5995 0.8573
C13_4 C 0.20352(11) 0.5217(2) 0.81721(8)
H8_3 H 0.2211 0.4755 0.8285
C14_4 C 0.18453(10) 0.5151(2) 0.78360(8)
C15_4 C 0.15838(10) 0.5821(2) 0.76730(8)
H9_4 H 0.1450 0.5777 0.7444
C16_4 C 0.15193(11) 0.6554(2) 0.78453(8)
H10_4 H 0.1343 0.7013 0.7732
C17_3 C 0.19104(10) 0.4367(2) 0.76486(8)
O4_3 O 0.21934(7) 0.38415(14) 0.77890(6)
O5_3 O 0.16808(7) 0.42755(14) 0.73546(5)
H22_4 H 0.1947 0.9517 0.9782
C45_4 C 0.14340(11) 0.9685(2) 0.91923(8)
H27_4 H 0.1606 0.9231 0.9314
C48_4 C 0.45671(10) 0.9466(2) 0.85686(8)
C49_4 C 0.47067(11) 0.9311(2) 0.89044(8)
H29_4 H 0.4584 0.8859 0.8995
C50_3 C 0.50252(10) 0.9812(2) 0.91109(8)
C65_4 C 0.42616(10) 0.8858(2) 0.83484(8)
C66_4 C 0.43821(10) 0.8366(2) 0.81204(8)
H39_4 H 0.4641 0.8467 0.8094
C67_4 C 0.41247(10) 0.7733(2) 0.79340(8)
H40_4 H 0.4211 0.7394 0.7782
C68_4 C 0.37412(10) 0.7579(2) 0.79629(8)
C69_4 C 0.36189(12) 0.8108(2) 0.81805(11)
H41_4 H 0.3353 0.8040 0.8197
C70_4 C 0.38789(12) 0.8729(3) 0.83724(11)
H42_4 H 0.3792 0.9072 0.8523
C71_4 C 0.34808(10) 0.6853(2) 0.77737(9)
C72_4 C 0.30570(11) 0.6933(2) 0.76470(11)
H43_4 H 0.2930 0.7477 0.7670
C73_4 C 0.28220(11) 0.6225(2) 0.74877(10)
H44_4 H 0.2535 0.6287 0.7401
C74_4 C 0.30021(10) 0.5430(2) 0.74545(8)
C75_4 C 0.34220(10) 0.5354(2) 0.75729(9)
H45_3 H 0.3549 0.4814 0.7546
C76_4 C 0.36562(11) 0.6062(2) 0.77293(9)
H46_4 H 0.3944 0.6002 0.7808
C77_3 C 0.27480(10) 0.4644(2) 0.73099(8)
O11_3 O 0.23829(7) 0.47844(15) 0.71380(6)
C78_3 C 0.51916(11) 0.9606(2) 0.94662(8)
C79_3 C 0.51717(13) 0.8771(3) 0.95901(9)
H47_3 H 0.5047 0.8304 0.9444
C80_3 C 0.53298(13) 0.8596(3) 0.99228(9)
O16_2 O 0.21448(9) 0.23515(19) 0.81562(6)
O19_2 O 0.15475(7) 0.23711(13) 0.74485(5)
C24_3 C 0.99575(10) 0.4002(2) 0.81684(9)
C25_3 C 0.98123(10) 0.4093(2) 0.78302(9)
H15_3 H 0.9857 0.3632 0.7695
C26_3 C 0.96015(10) 0.4852(2) 0.76866(8)
H16_3 H 0.9499 0.4901 0.7455
C27_3 C 0.95405(10) 0.5541(2) 0.78838(9)
C28_3 C 0.96924(11) 0.5454(2) 0.82199(9)
H17_3 H 0.9656 0.5923 0.8356
C29_3 C 0.98962(11) 0.4700(2) 0.83613(9)
H18_3 H 0.9997 0.4652 0.8593
C30_3 C 0.93102(10) 0.6362(2) 0.77362(9)
O7_3 O 0.92777(8) 0.69529(15) 0.79320(6)
O23_2 O 0.89709(7) 0.83148(15) 0.83066(5)
C27_4 C 0.04595(10) 0.0541(2) 0.71162(9)
C28_4 C 0.03076(11) 0.0454(2) 0.67801(9)
H17_4 H 0.0344 0.0923 0.6644
C30_4 C 0.06898(10) 0.1362(2) 0.72638(9)
O6_2 O 0.08455(7) 0.13719(16) 0.75728(6)
O7_4 O 0.07223(8) 0.19529(15) 0.70680(6)
C60_4 C 0.40441(11) 0.0133(2) 0.68472(8)
H36_4 H 0.3875 0.0564 0.6708
C61_4 C 0.41799(10) 0.0268(2) 0.71850(8)
C64_4 C 0.40524(10) 0.1078(2) 0.73259(8)
Zn1_2 Zn 0.800986(12) 0.88251(3) 0.792795(9)
H8_4 H 0.7789 0.9755 0.6715
C17_4 C 0.80896(10) 0.9367(2) 0.73514(8)
O4_4 O 0.78066(7) 0.88415(14) 0.72110(6)
O5_4 O 0.83192(7) 0.92755(14) 0.76454(5)
H45_4 H 0.6451 0.9814 0.7454
C77_4 C 0.72520(10) 0.9644(2) 0.76901(8)
O11_4 O 0.76171(7) 0.97844(15) 0.78620(6)
O24_2 O 0.83979(7) 0.89024(17) 0.83589(5)
O3_4 O 0.16147(7) 0.16015(16) 0.82088(5)
C33_4 C 0.33290(18) 0.1346(4) 0.97827(11)
H20_4 H 0.3419 0.1800 0.9669
C34_4 C 0.29831(12) 0.0877(3) 0.96221(9)
C35_4 C 0.29027(16) 0.0186(3) 0.97850(10)
C37_4 C 0.27278(12) 0.1103(3) 0.92787(9)
C38_4 C 0.28922(13) 0.1494(3) 0.90606(10)
H23_4 H 0.3176 0.1610 0.9127
C39_4 C 0.26572(13) 0.1720(3) 0.87492(9)
H24_4 H 0.2780 0.1990 0.8604
C40_4 C 0.22407(10) 0.1557(2) 0.86445(8)
C41_4 C 0.20744(12) 0.1135(3) 0.88573(9)
H25_4 H 0.1793 0.0993 0.8787
C42_4 C 0.23135(12) 0.0917(3) 0.91721(10)
H26_4 H 0.2193 0.0636 0.9317
C43_4 C 0.19852(12) 0.1849(2) 0.83102(8)
H48_4 H 0.9692 0.8014 0.9999
C81_4 C 0.94826(11) 0.9248(2) 0.98569(8)
C84_4 C 0.93053(11) 0.9070(3) 0.94995(8)
C85_4 C 0.94796(11) 0.8491(3) 0.93350(8)
H51_4 H 0.9717 0.8172 0.9454
C86_4 C 0.93151(11) 0.8361(2) 0.89980(8)
H52_4 H 0.9445 0.7973 0.8888
C87_4 C 0.89625(11) 0.8801(2) 0.88252(8)
C88_4 C 0.87847(12) 0.9390(3) 0.89866(9)
H53_4 H 0.8543 0.9694 0.8868
C89_4 C 0.89557(12) 0.9540(3) 0.93201(9)
H54_4 H 0.8837 0.9961 0.9427
C90_4 C 0.87646(11) 0.8655(2) 0.84683(8)
Zn2_2 Zn 0.130350(13) 0.28598(3) 0.279800(10)
C1_5 C 0.37318(10) 0.5401(2) 0.61470(8)
C2_5 C 0.39977(10) 0.4744(2) 0.63220(8)
H1_5 H 0.4117 0.4802 0.6552
C3_5 C 0.40893(10) 0.4012(2) 0.61651(8)
C4_5 C 0.39073(10) 0.3938(2) 0.58256(8)
H2_5 H 0.3964 0.3431 0.5716
O2_3 O 0.21448(9) 0.26485(19) 0.31562(6)
O3_5 O 0.16147(7) 0.33985(16) 0.32088(5)
C5_5 C 0.36192(11) 0.6161(2) 0.63188(8)
C6_5 C 0.35408(12) 0.6994(2) 0.61706(9)
H3_5 H 0.3567 0.7080 0.5959
C7_5 C 0.34242(12) 0.7703(2) 0.63299(9)
H4_5 H 0.3371 0.8264 0.6225
C8_5 C 0.33842(11) 0.7600(2) 0.66396(8)
C9_5 C 0.34576(11) 0.6763(2) 0.67885(9)
H5_5 H 0.3430 0.6677 0.6999
C10_5 C 0.35704(11) 0.6061(2) 0.66286(8)
H6_5 H 0.3616 0.5496 0.6731
C11_5 C 0.32913(11) 0.8374(2) 0.68182(8)
C12_5 C 0.30296(12) 0.9048(2) 0.66561(9)
H7_5 H 0.2895 0.9005 0.6427
C13_5 C 0.29648(11) 0.9783(2) 0.68279(8)
C14_5 C 0.31547(10) 0.9849(2) 0.71640(8)
C15_5 C 0.34162(10) 0.9179(2) 0.73270(8)
H9_5 H 0.3550 0.9223 0.7556
C16_5 C 0.34807(11) 0.8446(2) 0.71547(8)
H10_5 H 0.3657 0.7987 0.7268
C18_5 C 0.43633(10) 0.3287(2) 0.63497(8)
C19_5 C 0.43751(10) 0.3065(2) 0.66676(9)
H11_5 H 0.4230 0.3414 0.6777
C20_5 C 0.46008(11) 0.2328(2) 0.68260(9)
H12_5 H 0.4604 0.2184 0.7042
C21_5 C 0.48170(10) 0.1810(2) 0.66752(9)
C22_5 C 0.48168(11) 0.2061(2) 0.63605(9)
H13_5 H 0.4972 0.1728 0.6254
C23_5 C 0.45929(11) 0.2788(2) 0.62030(9)
H14_5 H 0.4598 0.2946 0.5990
C24_4 C 0.50425(10) 0.0998(2) 0.68316(9)
C25_4 C 0.51877(10) 0.0907(2) 0.71698(9)
H15_4 H 0.5143 0.1368 0.7305
C26_4 C 0.53985(10) 0.0148(2) 0.73134(8)
H16_4 H 0.5501 0.0099 0.7545
C29_4 C 0.51038(11) 0.0300(2) 0.66387(9)
H18_4 H 0.5003 0.0348 0.6407
C31_5 C 0.34355(11) 0.4454(2) 0.52839(8)
C32_5 C 0.35491(18) 0.3828(4) 0.51064(11)
H19_5 H 0.3789 0.3495 0.5207
C33_5 C 0.33290(18) 0.3654(4) 0.47827(11)
H20_5 H 0.3419 0.3200 0.4669
C34_5 C 0.29831(12) 0.4123(3) 0.46221(9)
C35_5 C 0.29027(16) 0.4814(3) 0.47850(10)
H21_4 H 0.2688 0.5204 0.4675
C36_5 C 0.31230(15) 0.4984(3) 0.51125(10)
H22_5 H 0.3053 0.5483 0.5218
C37_5 C 0.27278(12) 0.3897(3) 0.42787(9)
C38_5 C 0.28922(13) 0.3506(3) 0.40606(10)
H23_5 H 0.3176 0.3390 0.4127
C39_5 C 0.26572(13) 0.3280(3) 0.37492(9)
H24_5 H 0.2780 0.3010 0.3604
C40_5 C 0.22407(10) 0.3443(2) 0.36445(8)
C41_5 C 0.20744(12) 0.3865(3) 0.38573(9)
H25_5 H 0.1793 0.4007 0.3787
C42_5 C 0.23135(12) 0.4083(3) 0.41721(10)
H26_5 H 0.2193 0.4364 0.4317
C43_5 C 0.19852(12) 0.3151(2) 0.33102(8)
C44_5 C 0.36461(11) 0.4584(2) 0.56447(8)
C45_5 C 0.35660(11) 0.5315(2) 0.58077(8)
H27_5 H 0.3394 0.5769 0.5686
O8_2 O 0.15475(7) 0.26289(13) 0.24485(5)
C47_5 C 0.02689(10) 0.4840(2) 0.65594(8)
H28_5 H 0.0369 0.4722 0.6788
C48_5 C 0.04329(10) 0.5534(2) 0.64314(8)
C49_5 C 0.02933(11) 0.5689(2) 0.60956(8)
H29_5 H 0.0416 0.6141 0.6005
C65_5 C 0.07384(10) 0.6142(2) 0.66516(8)
C66_5 C 0.06179(10) 0.6634(2) 0.68796(8)
H39_5 H 0.0359 0.6533 0.6906
C67_5 C 0.08753(10) 0.7267(2) 0.70660(8)
H40_5 H 0.0789 0.7606 0.7218
C68_5 C 0.12588(10) 0.7421(2) 0.70371(8)
C69_5 C 0.13811(12) 0.6892(2) 0.68195(11)
H41_5 H 0.1647 0.6960 0.6803
C70_5 C 0.11211(12) 0.6271(3) 0.66276(11)
H42_5 H 0.1208 0.5928 0.6477
C71_5 C 0.15192(10) 0.8147(2) 0.72263(9)
C72_5 C 0.19430(11) 0.8067(2) 0.73530(11)
H43_5 H 0.2070 0.7523 0.7330
C73_5 C 0.21780(11) 0.8775(2) 0.75123(10)
H44_5 H 0.2465 0.8713 0.7599
C74_5 C 0.19979(10) 0.9570(2) 0.75455(8)
C75_5 C 0.15780(10) 0.9646(2) 0.74271(9)
C76_5 C 0.13438(11) 0.8938(2) 0.72707(9)
H46_5 H 0.1056 0.8998 0.7192
Zn8 Zn 0.108860(14) 0.19708(3) 0.214170(10)
Zn12_2 Zn 0.218278(12) 0.25012(3) 0.268782(9)
O17_3 O 0.08455(7) 0.36281(16) 0.25728(6)
O20_3 O 0.11463(7) 0.16550(15) 0.28752(5)
C46_5 C 0.99603(10) 0.4314(2) 0.63593(7)
C50_4 C 0.99748(10) 0.5188(2) 0.58891(8)
C51_5 C 0.98124(10) 0.4506(2) 0.60278(8)
H30_5 H 0.9594 0.4164 0.5891
C52_5 C 0.98015(10) 0.3542(2) 0.64997(8)
C53_5 C 0.97028(11) 0.2754(2) 0.63228(8)
H31_5 H 0.9728 0.2717 0.6109
C54_5 C 0.95693(11) 0.2029(2) 0.64538(9)
H32_5 H 0.9503 0.1498 0.6329
C55_5 C 0.95292(10) 0.2057(2) 0.67673(8)
C56_5 C 0.96175(11) 0.2855(2) 0.69371(8)
H33_5 H 0.9584 0.2900 0.7147
C57_5 C 0.97528(11) 0.3579(2) 0.68069(8)
H34_5 H 0.9814 0.4114 0.6930
C58_5 C 0.94032(11) 0.1259(2) 0.69128(8)
C59_5 C 0.91526(11) 0.0616(2) 0.67155(8)
H35_5 H 0.9055 0.0700 0.6485
C62_5 C 0.94271(10) 0.0363(2) 0.73840(8)
H37_5 H 0.9522 0.0277 0.7615
C63_5 C 0.95388(10) 0.1119(2) 0.72510(8)
H38_5 H 0.9709 0.1547 0.7391
C78_4 C 0.98084(11) 0.5394(2) 0.55338(8)
C79_4 C 0.98283(13) 0.6229(3) 0.54099(9)
H47_4 H 0.9953 0.6696 0.5556
C80_4 C 0.96702(13) 0.6404(3) 0.50772(9)
H48_5 H 0.9692 0.6986 0.4999
C81_5 C 0.94826(11) 0.5752(2) 0.48569(8)
C82_4 C 0.94677(12) 0.4903(3) 0.49793(9)
H49_4 H 0.9344 0.4439 0.4832
C83_5 C 0.96278(12) 0.4720(3) 0.53099(9)
H50_5 H 0.9616 0.4133 0.5386
C84_5 C 0.93053(11) 0.5930(3) 0.44995(8)
C85_5 C 0.94796(11) 0.6509(3) 0.43350(8)
H51_5 H 0.9717 0.6828 0.4454
C86_5 C 0.93151(11) 0.6639(2) 0.39980(8)
H52_5 H 0.9445 0.7027 0.3888
C87_5 C 0.89625(11) 0.6199(2) 0.38252(8)
C88_5 C 0.87847(12) 0.5610(3) 0.39866(9)
H53_5 H 0.8543 0.5306 0.3868
C89_5 C 0.89557(12) 0.5460(3) 0.43201(9)
H54_5 H 0.8837 0.5039 0.4427
C90_5 C 0.87646(11) 0.6345(2) 0.34683(8)
O13_3 O 0.89709(7) 0.66852(15) 0.33066(5)
O14_3 O 0.83979(7) 0.60976(17) 0.33589(5)
Zn5_3 Zn 0.800986(12) 0.61749(3) 0.292795(9)
Zn10_2 Zn 0.891140(14) 0.69708(3) 0.285830(10)
C24_5 C 0.00425(10) 0.5998(2) 0.18316(9)
C25_5 C 0.01877(10) 0.5907(2) 0.21698(9)
H15_5 H 0.0143 0.6368 0.2305
C26_5 C 0.03985(10) 0.5148(2) 0.23134(8)
H16_5 H 0.0501 0.5099 0.2545
C27_5 C 0.04595(10) 0.4459(2) 0.21162(9)
C28_5 C 0.03076(11) 0.4546(2) 0.17801(9)
H17_5 H 0.0344 0.4077 0.1644
C29_5 C 0.01038(11) 0.5300(2) 0.16387(9)
H18_5 H 0.0003 0.5348 0.1407
C30_5 C 0.06898(10) 0.3638(2) 0.22638(9)
O7_5 O 0.07223(8) 0.30471(15) 0.20680(6)
O21_3 O 0.08396(7) 0.11399(14) 0.23690(5)
O23_3 O 0.10291(7) 0.16852(15) 0.16934(5)
Zn4_2 Zn 0.781722(12) 0.75012(3) 0.231218(9)
O1_3 O 0.77902(6) 0.73367(13) 0.28010(5)
C1_6 C 0.87318(10) 0.0401(2) 0.11470(8)
C5_6 C 0.86192(11) 0.1161(2) 0.13188(8)
C6_6 C 0.85408(12) 0.1994(2) 0.11706(9)
H3_6 H 0.8567 0.2080 0.0959
C7_6 C 0.84242(12) 0.2703(2) 0.13299(9)
H4_6 H 0.8371 0.3264 0.1225
C8_6 C 0.83842(11) 0.2600(2) 0.16396(8)
C9_6 C 0.84576(11) 0.1763(2) 0.17885(9)
H5_6 H 0.8430 0.1677 0.1999
C10_6 C 0.85704(11) 0.1061(2) 0.16286(8)
H6_6 H 0.8616 0.0496 0.1731
C11_6 C 0.82913(11) 0.3374(2) 0.18182(8)
C12_6 C 0.80296(12) 0.4048(2) 0.16561(9)
H7_6 H 0.7895 0.4005 0.1427
C13_6 C 0.79648(11) 0.4783(2) 0.18279(8)
H8_5 H 0.7789 0.5245 0.1715
C14_6 C 0.81547(10) 0.4849(2) 0.21640(8)
C15_6 C 0.84162(10) 0.4179(2) 0.23270(8)
H9_6 H 0.8550 0.4223 0.2556
C16_6 C 0.84807(11) 0.3446(2) 0.21547(8)
H10_6 H 0.8657 0.2987 0.2268
C17_5 C 0.80896(10) 0.5633(2) 0.23514(8)
O4_5 O 0.78066(7) 0.61585(14) 0.22110(6)
O5_5 O 0.83192(7) 0.57245(14) 0.26454(5)
H22_6 H 0.8053 0.0483 0.0218
C45_6 C 0.85660(11) 0.0315(2) 0.08077(8)
H27_6 H 0.8394 0.0769 0.0686
C48_6 C 0.54329(10) 0.0534(2) 0.14314(8)
C49_6 C 0.52933(11) 0.0689(2) 0.10956(8)
H29_6 H 0.5416 0.1141 0.1005
C50_5 C 0.49748(10) 0.0188(2) 0.08891(8)
C65_6 C 0.57384(10) 0.1142(2) 0.16516(8)
C66_6 C 0.56179(10) 0.1634(2) 0.18796(8)
H39_6 H 0.5359 0.1533 0.1906
C67_6 C 0.58753(10) 0.2267(2) 0.20660(8)
H40_6 H 0.5789 0.2606 0.2218
C68_6 C 0.62588(10) 0.2421(2) 0.20371(8)
C69_6 C 0.63811(12) 0.1892(2) 0.18195(11)
H41_6 H 0.6647 0.1960 0.1803
C70_6 C 0.61211(12) 0.1271(3) 0.16276(11)
H42_6 H 0.6208 0.0928 0.1477
C71_6 C 0.65192(10) 0.3147(2) 0.22263(9)
C72_6 C 0.69430(11) 0.3067(2) 0.23530(11)
H43_6 H 0.7070 0.2523 0.2330
C73_6 C 0.71780(11) 0.3775(2) 0.25123(10)
H44_6 H 0.7465 0.3713 0.2599
C74_6 C 0.69979(10) 0.4570(2) 0.25455(8)
C75_6 C 0.65780(10) 0.4646(2) 0.24271(9)
H45_5 H 0.6451 0.5186 0.2454
C76_6 C 0.63438(11) 0.3938(2) 0.22707(9)
H46_6 H 0.6056 0.3998 0.2192
C77_5 C 0.72520(10) 0.5356(2) 0.26901(8)
O11_5 O 0.76171(7) 0.52156(15) 0.28620(6)
O12_3 O 0.70919(7) 0.60997(14) 0.26256(7)
C78_5 C 0.48084(11) 0.0394(2) 0.05338(8)
C79_5 C 0.48283(13) 0.1229(3) 0.04099(9)
H47_5 H 0.4953 0.1696 0.0556
C80_5 C 0.46702(13) 0.1404(3) 0.00772(9)
Zn11_3 Zn 0.718278(12) 0.74988(3) 0.268782(9)
O15_3 O 0.72098(6) 0.76633(13) 0.21990(5)
O16_3 O 0.78552(9) 0.76485(19) 0.18438(6)
O19_3 O 0.84525(7) 0.76289(13) 0.25515(5)
O22_3 O 0.79081(7) 0.89003(14) 0.23744(7)
C2_6 C 0.89977(10) 0.9744(2) 0.13220(8)
H1_6 H 0.9117 0.9802 0.1552
C3_6 C 0.90893(10) 0.9012(2) 0.11651(8)
C4_6 C 0.89073(10) 0.8938(2) 0.08256(8)
H2_6 H 0.8964 0.8431 0.0716
C18_6 C 0.93633(10) 0.8287(2) 0.13497(8)
C19_6 C 0.93751(10) 0.8065(2) 0.16676(9)
H11_6 H 0.9230 0.8414 0.1777
C20_6 C 0.96008(11) 0.7328(2) 0.18260(9)
H12_6 H 0.9604 0.7184 0.2042
C21_6 C 0.98170(10) 0.6810(2) 0.16752(9)
C22_6 C 0.98168(11) 0.7061(2) 0.13605(9)
H13_6 H 0.9972 0.6728 0.1254
C23_6 C 0.95929(11) 0.7788(2) 0.12030(9)
H14_6 H 0.9598 0.7946 0.0990
C31_6 C 0.84355(11) 0.9454(2) 0.02839(8)
C32_6 C 0.85491(18) 0.8828(4) 0.01064(11)
H19_6 H 0.8789 0.8495 0.0207
C36_6 C 0.81230(15) 0.9984(3) 0.01125(10)
C44_6 C 0.86461(11) 0.9584(2) 0.06447(8)
C46_6 C 0.49603(10) 0.9314(2) 0.13593(7)
C47_6 C 0.52689(10) 0.9840(2) 0.15594(8)
H28_6 H 0.5369 0.9722 0.1788
C51_6 C 0.48124(10) 0.9506(2) 0.10278(8)
H30_6 H 0.4594 0.9164 0.0891
C52_6 C 0.48015(10) 0.8542(2) 0.14997(8)
C53_6 C 0.47028(11) 0.7754(2) 0.13228(8)
H31_6 H 0.4728 0.7717 0.1109
C54_6 C 0.45693(11) 0.7029(2) 0.14538(9)
H32_6 H 0.4503 0.6498 0.1329
C55_6 C 0.45292(10) 0.7057(2) 0.17673(8)
C56_6 C 0.46175(11) 0.7855(2) 0.19371(8)
H33_6 H 0.4584 0.7900 0.2147
C57_6 C 0.47528(11) 0.8579(2) 0.18069(8)
H34_6 H 0.4814 0.9114 0.1930
C58_6 C 0.44032(11) 0.6259(2) 0.19128(8)
C59_6 C 0.41526(11) 0.5616(2) 0.17155(8)
H35_6 H 0.4055 0.5700 0.1485
C60_5 C 0.40441(11) 0.4867(2) 0.18472(8)
H36_5 H 0.3875 0.4436 0.1708
C61_5 C 0.41799(10) 0.4732(2) 0.21850(8)
C62_6 C 0.44271(10) 0.5363(2) 0.23840(8)
H37_6 H 0.4522 0.5277 0.2615
C63_6 C 0.45388(10) 0.6119(2) 0.22510(8)
H38_6 H 0.4709 0.6547 0.2391
C64_5 C 0.40524(10) 0.3922(2) 0.23259(8)
O9_3 O 0.38537(7) 0.33450(15) 0.21248(5)
O10_3 O 0.41604(7) 0.38601(14) 0.26310(5)
C83_6 C 0.46278(12) 0.9720(3) 0.03099(9)
H50_6 H 0.4616 0.9133 0.0386
Zn7_3 Zn 0.369650(13) 0.21402(3) 0.220200(10)
Zn9_3 Zn 0.391140(14) 0.30292(3) 0.285830(10)
Zn1_3 Zn 0.199014(12) 0.11749(3) 0.207205(9)
O1_4 O 0.22098(6) 0.23367(13) 0.21990(5)
H8_6 H 0.2211 0.0245 0.3285
C17_6 C 0.19104(10) 0.0633(2) 0.26486(8)
O4_6 O 0.21934(7) 0.11585(14) 0.27890(6)
O5_6 O 0.16808(7) 0.07245(14) 0.23546(5)
H45_6 H 0.3549 0.0186 0.2546
C77_6 C 0.27480(10) 0.0356(2) 0.23099(8)
O11_6 O 0.23829(7) 0.02156(15) 0.21380(6)
O12_4 O 0.29081(7) 0.10997(14) 0.23744(7)
Zn11_4 Zn 0.281722(12) 0.24988(3) 0.231218(9)
O15_4 O 0.27902(6) 0.26633(13) 0.28010(5)
O22_4 O 0.20919(7) 0.39003(14) 0.26256(7)
O24_3 O 0.16021(7) 0.10976(17) 0.16411(5)
C60_6 C 0.59559(11) 0.9867(2) 0.31528(8)
H36_6 H 0.6125 0.9436 0.3292
C61_6 C 0.58201(10) 0.9732(2) 0.28150(8)
C64_6 C 0.59476(10) 0.8922(2) 0.26741(8)
O9_4 O 0.61463(7) 0.83450(15) 0.28752(5)
O10_4 O 0.58396(7) 0.88601(14) 0.23690(5)
Zn7_4 Zn 0.630350(13) 0.71402(3) 0.279800(10)
Zn9_4 Zn 0.608860(14) 0.80292(3) 0.214170(10)
C27_6 C 0.95405(10) 0.9459(2) 0.28838(9)
C28_6 C 0.96924(11) 0.9546(2) 0.32199(9)
H17_6 H 0.9656 0.9077 0.3356
C30_6 C 0.93102(10) 0.8638(2) 0.27362(9)
O6_3 O 0.91545(7) 0.86281(16) 0.24272(6)
O7_6 O 0.92777(8) 0.80471(15) 0.29320(6)
Zn6_2 Zn 0.869650(13) 0.78598(3) 0.220200(10)
O21_4 O 0.91604(7) 0.61399(14) 0.26310(5)
H48_6 H 0.0308 0.1986 0.0001
C81_6 C 0.05174(11) 0.0752(2) 0.01431(8)
C84_6 C 0.06947(11) 0.0930(3) 0.05005(8)
C85_6 C 0.05204(11) 0.1509(3) 0.06650(8)
H51_6 H 0.0283 0.1828 0.0546
C86_6 C 0.06849(11) 0.1639(2) 0.10020(8)
H52_6 H 0.0555 0.2027 0.1112
C87_6 C 0.10375(11) 0.1199(2) 0.11748(8)
C88_6 C 0.12153(12) 0.0610(3) 0.10134(9)
H53_6 H 0.1457 0.0306 0.1132
C89_6 C 0.10443(12) 0.0460(3) 0.06799(9)
H54_6 H 0.1163 0.0039 0.0573
C90_6 C 0.12354(11) 0.1345(2) 0.15317(8)
O3_6 O 0.83853(7) 0.83985(16) 0.17912(5)
C33_6 C 0.66710(18) 0.8654(4) 0.02173(11)
H20_6 H 0.6581 0.8200 0.0331
C34_6 C 0.70169(12) 0.9123(3) 0.03779(9)
C35_6 C 0.70973(16) 0.9814(3) 0.02150(10)
C37_6 C 0.72722(12) 0.8897(3) 0.07213(9)
C38_6 C 0.71078(13) 0.8506(3) 0.09394(10)
H23_6 H 0.6824 0.8390 0.0873
C39_6 C 0.73428(13) 0.8280(3) 0.12508(9)
H24_6 H 0.7220 0.8010 0.1396
C40_6 C 0.77593(10) 0.8443(2) 0.13555(8)
C41_6 C 0.79256(12) 0.8865(3) 0.11427(9)
H25_6 H 0.8207 0.9007 0.1213
C42_6 C 0.76865(12) 0.9083(3) 0.08279(10)
H26_6 H 0.7807 0.9364 0.0683
C43_6 C 0.80148(12) 0.8151(2) 0.16898(8)
O20_4 O 0.88537(7) 0.66550(15) 0.21248(5)
C60_7 C 0.09559(11) 0.0133(2) 0.31528(8)
H36_7 H 0.1125 0.0564 0.3292
C61_7 C 0.08201(10) 0.0268(2) 0.28150(8)
C64_7 C 0.09476(10) 0.1078(2) 0.26741(8)
C27_7 C 0.45405(10) 0.0541(2) 0.28838(9)
C28_7 C 0.46924(11) 0.0454(2) 0.32199(9)
H17_7 H 0.4656 0.0923 0.3356
C30_7 C 0.43102(10) 0.1362(2) 0.27362(9)
O6_4 O 0.41545(7) 0.13719(16) 0.24272(6)
O7_7 O 0.42777(8) 0.19529(15) 0.29320(6)
O18_2 O 0.34525(7) 0.23711(13) 0.25515(5)
O23_4 O 0.39709(7) 0.33148(15) 0.33066(5)
Zn1_4 Zn 0.699014(12) 0.88251(3) 0.207205(9)
H8_7 H 0.7211 0.9755 0.3285
C17_7 C 0.69104(10) 0.9367(2) 0.26486(8)
O4_7 O 0.71934(7) 0.88415(14) 0.27890(6)
O5_7 O 0.66808(7) 0.92755(14) 0.23546(5)
H45_7 H 0.8549 0.9814 0.2546
C77_7 C 0.77480(10) 0.9644(2) 0.23099(8)
O11_7 O 0.73829(7) 0.97844(15) 0.21380(6)
O16_4 O 0.71448(9) 0.73515(19) 0.31562(6)
O19_4 O 0.65475(7) 0.73711(13) 0.24485(5)
O24_4 O 0.66021(7) 0.89024(17) 0.16411(5)
O2_4 O 0.28552(9) 0.23515(19) 0.18438(6)
O3_7 O 0.33853(7) 0.16015(16) 0.17912(5)
C33_7 C 0.16710(18) 0.1346(4) 0.02173(11)
H20_7 H 0.1581 0.1800 0.0331
C34_7 C 0.20169(12) 0.0877(3) 0.03779(9)
C35_7 C 0.20973(16) 0.0186(3) 0.02150(10)
C37_7 C 0.22722(12) 0.1103(3) 0.07213(9)
C38_7 C 0.21078(13) 0.1494(3) 0.09394(10)
H23_7 H 0.1824 0.1610 0.0873
C39_7 C 0.23428(13) 0.1720(3) 0.12508(9)
H24_7 H 0.2220 0.1990 0.1396
C40_7 C 0.27593(10) 0.1557(2) 0.13555(8)
C41_7 C 0.29256(12) 0.1135(3) 0.11427(9)
H25_7 H 0.3207 0.0993 0.1213
C42_7 C 0.26865(12) 0.0917(3) 0.08279(10)
H26_7 H 0.2807 0.0636 0.0683
C43_7 C 0.30148(12) 0.1849(2) 0.16898(8)
C82_5 C 0.55323(12) 0.0097(3) 0.00207(9)
H49_5 H 0.5656 0.0561 0.0168
H21_5 H 0.2312 0.9796 0.0325
H48_7 H 0.5308 0.8014 0.0001
C81_7 C 0.55174(11) 0.9248(2) 0.01431(8)
C84_7 C 0.56947(11) 0.9070(3) 0.05005(8)
C85_7 C 0.55204(11) 0.8491(3) 0.06650(8)
H51_7 H 0.5283 0.8172 0.0546
C86_7 C 0.56849(11) 0.8361(2) 0.10020(8)
H52_7 H 0.5555 0.7973 0.1112
C87_7 C 0.60375(11) 0.8801(2) 0.11748(8)
C88_7 C 0.62153(12) 0.9390(3) 0.10134(9)
H53_7 H 0.6457 0.9694 0.1132
C89_7 C 0.60443(12) 0.9540(3) 0.06799(9)
H54_7 H 0.6163 0.9961 0.0573
C90_7 C 0.62354(11) 0.8655(2) 0.15317(8)
O13_4 O 0.60291(7) 0.83148(15) 0.16934(5)
C1_7 C 0.87318(10) 0.4599(2) 0.61470(8)
C2_7 C 0.89977(10) 0.5256(2) 0.63220(8)
H1_7 H 0.9117 0.5198 0.6552
C3_7 C 0.90893(10) 0.5988(2) 0.61651(8)
C4_7 C 0.89073(10) 0.6062(2) 0.58256(8)
H2_7 H 0.8964 0.6569 0.5716
O3_8 O 0.66147(7) 0.66015(16) 0.32088(5)
C5_7 C 0.86192(11) 0.3839(2) 0.63188(8)
C6_7 C 0.85408(12) 0.3006(2) 0.61706(9)
H3_7 H 0.8567 0.2920 0.5959
C7_7 C 0.84242(12) 0.2297(2) 0.63299(9)
H4_7 H 0.8371 0.1736 0.6225
C8_7 C 0.83842(11) 0.2400(2) 0.66396(8)
C9_7 C 0.84576(11) 0.3237(2) 0.67885(9)
H5_7 H 0.8430 0.3323 0.6999
C10_7 C 0.85704(11) 0.3939(2) 0.66286(8)
H6_7 H 0.8616 0.4504 0.6731
C11_7 C 0.82913(11) 0.1626(2) 0.68182(8)
C12_7 C 0.80296(12) 0.0952(2) 0.66561(9)
H7_7 H 0.7895 0.0995 0.6427
C13_7 C 0.79648(11) 0.0217(2) 0.68279(8)
C14_7 C 0.81547(10) 0.0151(2) 0.71640(8)
C15_7 C 0.84162(10) 0.0821(2) 0.73270(8)
H9_7 H 0.8550 0.0777 0.7556
C16_7 C 0.84807(11) 0.1554(2) 0.71547(8)
H10_7 H 0.8657 0.2013 0.7268
C18_7 C 0.93633(10) 0.6713(2) 0.63497(8)
C19_7 C 0.93751(10) 0.6935(2) 0.66676(9)
H11_7 H 0.9230 0.6586 0.6777
C20_7 C 0.96008(11) 0.7672(2) 0.68260(9)
H12_7 H 0.9604 0.7816 0.7042
C21_7 C 0.98170(10) 0.8190(2) 0.66752(9)
C22_7 C 0.98168(11) 0.7939(2) 0.63605(9)
H13_7 H 0.9972 0.8272 0.6254
C23_7 C 0.95929(11) 0.7212(2) 0.62030(9)
H14_7 H 0.9598 0.7054 0.5990
C31_7 C 0.84355(11) 0.5546(2) 0.52839(8)
C32_7 C 0.85491(18) 0.6172(4) 0.51064(11)
H19_7 H 0.8789 0.6505 0.5207
C33_8 C 0.83290(18) 0.6346(4) 0.47827(11)
H20_8 H 0.8419 0.6800 0.4669
C34_8 C 0.79831(12) 0.5877(3) 0.46221(9)
C35_8 C 0.79027(16) 0.5186(3) 0.47850(10)
H21_6 H 0.7688 0.4796 0.4675
C36_7 C 0.81230(15) 0.5016(3) 0.51125(10)
H22_7 H 0.8053 0.4517 0.5218
C37_8 C 0.77278(12) 0.6103(3) 0.42787(9)
C38_8 C 0.78922(13) 0.6494(3) 0.40606(10)
H23_8 H 0.8176 0.6610 0.4127
C39_8 C 0.76572(13) 0.6720(3) 0.37492(9)
H24_8 H 0.7780 0.6990 0.3604
C40_8 C 0.72407(10) 0.6557(2) 0.36445(8)
C41_8 C 0.70744(12) 0.6135(3) 0.38573(9)
H25_8 H 0.6793 0.5993 0.3787
C42_8 C 0.73135(12) 0.5917(3) 0.41721(10)
H26_8 H 0.7193 0.5636 0.4317
C43_8 C 0.69852(12) 0.6849(2) 0.33102(8)
C44_7 C 0.86461(11) 0.5416(2) 0.56447(8)
C45_7 C 0.85660(11) 0.4685(2) 0.58077(8)
H27_7 H 0.8394 0.4231 0.5686
C46_7 C 0.49603(10) 0.5686(2) 0.63593(7)
C47_7 C 0.52689(10) 0.5160(2) 0.65594(8)
H28_7 H 0.5369 0.5278 0.6788
C48_7 C 0.54329(10) 0.4466(2) 0.64314(8)
C49_7 C 0.52933(11) 0.4311(2) 0.60956(8)
H29_7 H 0.5416 0.3859 0.6005
C50_6 C 0.49748(10) 0.4812(2) 0.58891(8)
C51_7 C 0.48124(10) 0.5494(2) 0.60278(8)
H30_7 H 0.4594 0.5836 0.5891
C52_7 C 0.48015(10) 0.6458(2) 0.64997(8)
C53_7 C 0.47028(11) 0.7246(2) 0.63228(8)
H31_7 H 0.4728 0.7283 0.6109
C54_7 C 0.45693(11) 0.7971(2) 0.64538(9)
H32_7 H 0.4503 0.8502 0.6329
C55_7 C 0.45292(10) 0.7943(2) 0.67673(8)
C56_7 C 0.46175(11) 0.7145(2) 0.69371(8)
H33_7 H 0.4584 0.7100 0.7147
C57_7 C 0.47528(11) 0.6421(2) 0.68069(8)
H34_7 H 0.4814 0.5886 0.6930
C58_7 C 0.44032(11) 0.8741(2) 0.69128(8)
C59_7 C 0.41526(11) 0.9384(2) 0.67155(8)
H35_7 H 0.4055 0.9300 0.6485
C62_7 C 0.44271(10) 0.9637(2) 0.73840(8)
H37_7 H 0.4522 0.9723 0.7615
C63_7 C 0.45388(10) 0.8881(2) 0.72510(8)
H38_7 H 0.4709 0.8453 0.7391
C65_7 C 0.57384(10) 0.3858(2) 0.66516(8)
C66_7 C 0.56179(10) 0.3366(2) 0.68796(8)
H39_7 H 0.5359 0.3467 0.6906
C67_7 C 0.58753(10) 0.2733(2) 0.70660(8)
H40_7 H 0.5789 0.2394 0.7218
C68_7 C 0.62588(10) 0.2579(2) 0.70371(8)
C69_7 C 0.63811(12) 0.3108(2) 0.68195(11)
H41_7 H 0.6647 0.3040 0.6803
C70_7 C 0.61211(12) 0.3729(3) 0.66276(11)
H42_7 H 0.6208 0.4072 0.6477
C71_7 C 0.65192(10) 0.1853(2) 0.72263(9)
C72_7 C 0.69430(11) 0.1933(2) 0.73530(11)
H43_7 H 0.7070 0.2477 0.7330
C73_7 C 0.71780(11) 0.1225(2) 0.75123(10)
H44_7 H 0.7465 0.1287 0.7599
C74_7 C 0.69979(10) 0.0430(2) 0.75455(8)
C75_7 C 0.65780(10) 0.0354(2) 0.74271(9)
C76_7 C 0.63438(11) 0.1062(2) 0.72707(9)
H46_7 H 0.6056 0.1002 0.7192
C78_6 C 0.48084(11) 0.4606(2) 0.55338(8)
C79_6 C 0.48283(13) 0.3771(3) 0.54099(9)
H47_6 H 0.4953 0.3304 0.5556
C80_6 C 0.46702(13) 0.3596(3) 0.50772(9)
H48_8 H 0.4692 0.3014 0.4999
C81_8 C 0.44826(11) 0.4248(2) 0.48569(8)
C82_6 C 0.44677(12) 0.5097(3) 0.49793(9)
H49_6 H 0.4344 0.5561 0.4832
C83_7 C 0.46278(12) 0.5280(3) 0.53099(9)
H50_7 H 0.4616 0.5867 0.5386
C84_8 C 0.43053(11) 0.4070(3) 0.44995(8)
C85_8 C 0.44796(11) 0.3491(3) 0.43350(8)
H51_8 H 0.4717 0.3172 0.4454
C86_8 C 0.43151(11) 0.3361(2) 0.39980(8)
H52_8 H 0.4445 0.2973 0.3888
C87_8 C 0.39625(11) 0.3801(2) 0.38252(8)
C88_8 C 0.37847(12) 0.4390(3) 0.39866(9)
H53_8 H 0.3543 0.4694 0.3868
C89_8 C 0.39557(12) 0.4540(3) 0.43201(9)
H54_8 H 0.3837 0.4961 0.4427
C90_8 C 0.37646(11) 0.3655(2) 0.34683(8)
O14_4 O 0.33979(7) 0.39024(17) 0.33589(5)
Zn5_4 Zn 0.300986(12) 0.38251(3) 0.292795(9)
O17_4 O 0.58455(7) 0.63719(16) 0.25728(6)
C2_8 C 0.39977(10) 0.0256(2) 0.13220(8)
H1_8 H 0.4117 0.0198 0.1552
C3_8 C 0.40893(10) 0.0988(2) 0.11651(8)
C4_8 C 0.39073(10) 0.1062(2) 0.08256(8)
H2_8 H 0.3964 0.1569 0.0716
C18_8 C 0.43633(10) 0.1713(2) 0.13497(8)
C19_8 C 0.43751(10) 0.1935(2) 0.16676(9)
H11_8 H 0.4230 0.1586 0.1777
C20_8 C 0.46008(11) 0.2672(2) 0.18260(9)
H12_8 H 0.4604 0.2816 0.2042
C21_8 C 0.48170(10) 0.3190(2) 0.16752(9)
C22_8 C 0.48168(11) 0.2939(2) 0.13605(9)
H13_8 H 0.4972 0.3272 0.1254
C23_8 C 0.45929(11) 0.2212(2) 0.12030(9)
H14_8 H 0.4598 0.2054 0.0990
C24_6 C 0.50425(10) 0.4002(2) 0.18316(9)
C25_6 C 0.51877(10) 0.4093(2) 0.21698(9)
H15_6 H 0.5143 0.3632 0.2305
C26_6 C 0.53985(10) 0.4852(2) 0.23134(8)
H16_6 H 0.5501 0.4901 0.2545
C27_8 C 0.54595(10) 0.5541(2) 0.21162(9)
C28_8 C 0.53076(11) 0.5454(2) 0.17801(9)
H17_8 H 0.5344 0.5923 0.1644
C29_6 C 0.51038(11) 0.4700(2) 0.16387(9)
H18_6 H 0.5003 0.4652 0.1407
C30_8 C 0.56898(10) 0.6362(2) 0.22638(9)
O7_8 O 0.57223(8) 0.69529(15) 0.20680(6)
C31_8 C 0.34355(11) 0.0546(2) 0.02839(8)
C32_8 C 0.35491(18) 0.1172(4) 0.01064(11)
H19_8 H 0.3789 0.1505 0.0207
C36_8 C 0.31230(15) 0.0016(3) 0.01125(10)
C44_8 C 0.36461(11) 0.0416(2) 0.06447(8)
C47_8 C 0.02689(10) 0.0160(2) 0.15594(8)
H28_8 H 0.0369 0.0278 0.1788
C1_8 C 0.37318(10) 0.9599(2) 0.11470(8)
C5_8 C 0.36192(11) 0.8839(2) 0.13188(8)
C6_8 C 0.35408(12) 0.8006(2) 0.11706(9)
H3_8 H 0.3567 0.7920 0.0959
C7_8 C 0.34242(12) 0.7297(2) 0.13299(9)
H4_8 H 0.3371 0.6736 0.1225
C8_8 C 0.33842(11) 0.7400(2) 0.16396(8)
C9_8 C 0.34576(11) 0.8237(2) 0.17885(9)
H5_8 H 0.3430 0.8323 0.1999
C10_8 C 0.35704(11) 0.8939(2) 0.16286(8)
H6_8 H 0.3616 0.9504 0.1731
C11_8 C 0.32913(11) 0.6626(2) 0.18182(8)
C12_8 C 0.30296(12) 0.5952(2) 0.16561(9)
H7_8 H 0.2895 0.5995 0.1427
C13_8 C 0.29648(11) 0.5217(2) 0.18279(8)
H8_8 H 0.2789 0.4755 0.1715
C14_8 C 0.31547(10) 0.5151(2) 0.21640(8)
C15_8 C 0.34162(10) 0.5821(2) 0.23270(8)
H9_8 H 0.3550 0.5777 0.2556
C16_8 C 0.34807(11) 0.6554(2) 0.21547(8)
H10_8 H 0.3657 0.7013 0.2268
C17_8 C 0.30896(10) 0.4367(2) 0.23514(8)
O4_8 O 0.28066(7) 0.38415(14) 0.22110(6)
O5_8 O 0.33192(7) 0.42755(14) 0.26454(5)
H22_8 H 0.3053 0.9517 0.0218
C45_8 C 0.35660(11) 0.9685(2) 0.08077(8)
H27_8 H 0.3394 0.9231 0.0686
C48_8 C 0.04329(10) 0.9466(2) 0.14314(8)
C49_8 C 0.02933(11) 0.9311(2) 0.10956(8)
H29_8 H 0.0416 0.8859 0.1005
C65_8 C 0.07384(10) 0.8858(2) 0.16516(8)
C66_8 C 0.06179(10) 0.8366(2) 0.18796(8)
H39_8 H 0.0359 0.8467 0.1906
C67_8 C 0.08753(10) 0.7733(2) 0.20660(8)
H40_8 H 0.0789 0.7394 0.2218
C68_8 C 0.12588(10) 0.7579(2) 0.20371(8)
C69_8 C 0.13811(12) 0.8108(2) 0.18195(11)
H41_8 H 0.1647 0.8040 0.1803
C70_8 C 0.11211(12) 0.8729(3) 0.16276(11)
H42_8 H 0.1208 0.9072 0.1477
C71_8 C 0.15192(10) 0.6853(2) 0.22263(9)
C72_8 C 0.19430(11) 0.6933(2) 0.23530(11)
H43_8 H 0.2070 0.7477 0.2330
C73_8 C 0.21780(11) 0.6225(2) 0.25123(10)
H44_8 H 0.2465 0.6287 0.2599
C74_8 C 0.19979(10) 0.5430(2) 0.25455(8)
C75_8 C 0.15780(10) 0.5354(2) 0.24271(9)
H45_8 H 0.1451 0.4814 0.2454
C76_8 C 0.13438(11) 0.6062(2) 0.22707(9)
H46_8 H 0.1056 0.6002 0.2192
C77_8 C 0.22520(10) 0.4644(2) 0.26901(8)
O11_8 O 0.26171(7) 0.47844(15) 0.28620(6)
C46_8 C 0.99603(10) 0.0686(2) 0.13593(7)
C51_8 C 0.98124(10) 0.0494(2) 0.10278(8)
H30_8 H 0.9594 0.0836 0.0891
C52_8 C 0.98015(10) 0.1458(2) 0.14997(8)
C53_8 C 0.97028(11) 0.2246(2) 0.13228(8)
H31_8 H 0.9728 0.2283 0.1109
C54_8 C 0.95693(11) 0.2971(2) 0.14538(9)
H32_8 H 0.9503 0.3502 0.1329
C55_8 C 0.95292(10) 0.2943(2) 0.17673(8)
C56_8 C 0.96175(11) 0.2145(2) 0.19371(8)
H33_8 H 0.9584 0.2100 0.2147
C57_8 C 0.97528(11) 0.1421(2) 0.18069(8)
H34_8 H 0.9814 0.0886 0.1930
C58_8 C 0.94032(11) 0.3741(2) 0.19128(8)
C59_8 C 0.91526(11) 0.4384(2) 0.17155(8)
H35_8 H 0.9055 0.4300 0.1485
C60_8 C 0.90441(11) 0.5133(2) 0.18472(8)
H36_8 H 0.8875 0.5564 0.1708
C61_8 C 0.91799(10) 0.5268(2) 0.21850(8)
C62_8 C 0.94271(10) 0.4637(2) 0.23840(8)
H37_8 H 0.9522 0.4723 0.2615
C63_8 C 0.95388(10) 0.3881(2) 0.22510(8)
H38_8 H 0.9709 0.3453 0.2391
C64_8 C 0.90524(10) 0.6078(2) 0.23259(8)
C83_8 C 0.96278(12) 0.0280(3) 0.03099(9)
H50_8 H 0.9616 0.0867 0.0386
C24_7 C 0.99575(10) 0.0998(2) 0.31684(9)
C25_7 C 0.98123(10) 0.0907(2) 0.28302(9)
H15_7 H 0.9857 0.1368 0.2695
C26_7 C 0.96015(10) 0.0148(2) 0.26866(8)
H16_7 H 0.9499 0.0099 0.2455
C29_7 C 0.98962(11) 0.0300(2) 0.33613(9)
H18_7 H 0.9997 0.0348 0.3593
C50_7 C 0.00252(10) 0.0188(2) 0.91109(8)
C78_7 C 0.01916(11) 0.0394(2) 0.94662(8)
C79_7 C 0.01717(13) 0.1229(3) 0.95901(9)
H47_7 H 0.0047 0.1696 0.9444
C80_7 C 0.03298(13) 0.1404(3) 0.99228(9)
C82_7 C 0.05323(12) 0.9903(3) 0.00207(9)
H49_7 H 0.0656 0.9439 0.0168
H21_7 H 0.7312 0.0204 0.0325
C24_8 C 0.00425(10) 0.9002(2) 0.68316(9)
C25_8 C 0.01877(10) 0.9093(2) 0.71698(9)
H15_8 H 0.0143 0.8632 0.7305
C26_8 C 0.03985(10) 0.9852(2) 0.73134(8)
H16_8 H 0.0501 0.9901 0.7545
C29_8 C 0.01038(11) 0.9700(2) 0.66387(9)
H18_8 H 0.0003 0.9652 0.6407
H21_8 H 0.2688 0.9796 0.9675
C82_8 C 0.94677(12) 0.0097(3) 0.99793(9)
H49_8 H 0.9344 0.0561 0.9832
C50_8 C 0.99748(10) 0.9812(2) 0.08891(8)
C78_8 C 0.98084(11) 0.9606(2) 0.05338(8)
C79_8 C 0.98283(13) 0.8771(3) 0.04099(9)
H47_8 H 0.9953 0.8304 0.0556
C80_8 C 0.96702(13) 0.8596(3) 0.00772(9)
loop_
_geom_bond_atom_site_label_1
_geom_bond_atom_site_label_2
_geom_bond_site_symmetry_1
_geom_bond_site_symmetry_2
Zn1 O1 1_555 1_555
Zn4 O1 1_555 1_555
O1 Zn11 1_555 1_555
O4 Zn4 1_555 1_555
O5 Zn1 1_555 1_555
O11 Zn1 1_555 1_555
O12 C77 1_555 1_555
Zn11 O12 1_555 1_555
O15 Zn4 1_555 1_555
O16 Zn4 1_555 1_555
O19 Zn4 1_555 1_555
O22 Zn4 1_555 1_555
O24 Zn1 1_555 1_555
C17 O4 1_555 1_555
C17 O5 1_555 1_555
C77 O11 1_555 1_555
Zn11 O15 1_555 1_555
Zn3 O7 1_555 1_555
C28 C27 1_555 1_555
H17 C28 1_555 1_555
C30 C27 1_555 1_555
O6 C30 1_555 1_555
O7 C30 1_555 1_555
Zn6 O6 1_555 1_555
O18 Zn3 1_555 1_555
O21 Zn3 1_555 1_555
O23 Zn3 1_555 1_555
Zn6 O18 1_555 1_555
H36 C60 1_555 1_555
C61 C60 1_555 1_555
C64 C61 1_555 1_555
O9 C64 1_555 1_555
O10 C64 1_555 1_555
Zn7 O9 1_555 1_555
Zn9 O10 1_555 1_555
C84 C81 1_555 1_555
C85 C84 1_555 1_555
H51 C85 1_555 1_555
C86 C85 1_555 1_555
H52 C86 1_555 1_555
C87 C86 1_555 1_555
C88 C87 1_555 1_555
H53 C88 1_555 1_555
C89 C84 1_555 1_555
H54 C89 1_555 1_555
C90 C87 1_555 1_555
O13 C90 1_555 1_555
O24 C90 1_555 1_555
Zn10 O13 1_555 1_555
C88 C89 1_555 1_555
Zn6 O3 1_555 1_555
O2 C43 1_555 1_555
O3 C43 1_555 1_555
H20 C33 1_555 1_555
C34 C33 1_555 1_555
C35 C34 1_555 1_555
C37 C34 1_555 1_555
C38 C37 1_555 1_555
H23 C38 1_555 1_555
C39 C38 1_555 1_555
H24 C39 1_555 1_555
C40 C39 1_555 1_555
C41 C40 1_555 1_555
H25 C41 1_555 1_555
C42 C37 1_555 1_555
H26 C42 1_555 1_555
C43 C40 1_555 1_555
H49 C82 1_555 1_555
Zn12 O2 1_555 1_555
O20 Zn6 1_555 1_555
C41 C42 1_555 1_555
O18 Zn12 1_555 1_555
Zn2 O3_2 1_555 1_555
C1 C2 1_555 1_555
C2 H1 1_555 1_555
C3 C2 1_555 1_555
C4 C3 1_555 1_555
H2 C4 1_555 1_555
O16 C43_2 1_555 1_555
O3_2 C43_2 1_555 1_555
C5 C1 1_555 1_555
C6 C5 1_555 1_555
H3 C6 1_555 1_555
C7 C6 1_555 1_555
H4 C7 1_555 1_555
C8 C7 1_555 1_555
C9 C8 1_555 1_555
H5 C9 1_555 1_555
C10 C5 1_555 1_555
H6 C10 1_555 1_555
C11 C8 1_555 1_555
C12 C11 1_555 1_555
H7 C12 1_555 1_555
C13 C12 1_555 1_555
C14 C13 1_555 1_555
C15 C14 1_555 1_555
H9 C15 1_555 1_555
C16 C11 1_555 1_555
H10 C16 1_555 1_555
C18 C3 1_555 1_555
C19 C18 1_555 1_555
H11 C19 1_555 1_555
C20 C19 1_555 1_555
H12 C20 1_555 1_555
C21 C20 1_555 1_555
C22 C21 1_555 1_555
H13 C22 1_555 1_555
C23 C18 1_555 1_555
H14 C23 1_555 1_555
C31 C32 1_555 1_555
C32 H19 1_555 1_555
C33_2 C32 1_555 1_555
H20_2 C33_2 1_555 1_555
C34_2 C33_2 1_555 1_555
C35_2 C34_2 1_555 1_555
H21_2 C35_2 1_555 1_555
C36 C31 1_555 1_555
H22 C36 1_555 1_555
C37_2 C34_2 1_555 1_555
C38_2 C37_2 1_555 1_555
H23_2 C38_2 1_555 1_555
C39_2 C38_2 1_555 1_555
H24_2 C39_2 1_555 1_555
C40_2 C39_2 1_555 1_555
C41_2 C40_2 1_555 1_555
H25_2 C41_2 1_555 1_555
C42_2 C37_2 1_555 1_555
H26_2 C42_2 1_555 1_555
C43_2 C40_2 1_555 1_555
C44 C4 1_555 1_555
C45 C1 1_555 1_555
H27 C45 1_555 1_555
O19 Zn2 1_555 1_555
C46 C47 1_555 1_555
C47 H28 1_555 1_555
C48 C47 1_555 1_555
C49 C48 1_555 1_555
H29 C49 1_555 1_555
C50 C49 1_555 1_555
C51 C46 1_555 1_555
H30 C51 1_555 1_555
C52 C46 1_555 1_555
C53 C52 1_555 1_555
H31 C53 1_555 1_555
C54 C53 1_555 1_555
H32 C54 1_555 1_555
C55 C54 1_555 1_555
C56 C55 1_555 1_555
H33 C56 1_555 1_555
C57 C52 1_555 1_555
H34 C57 1_555 1_555
C58 C55 1_555 1_555
C59 C58 1_555 1_555
H35 C59 1_555 1_555
H37 C62 1_555 1_555
C63 C58 1_555 1_555
H38 C63 1_555 1_555
C65 C48 1_555 1_555
C66 C65 1_555 1_555
H39 C66 1_555 1_555
C67 C66 1_555 1_555
H40 C67 1_555 1_555
C68 C67 1_555 1_555
C69 C68 1_555 1_555
H41 C69 1_555 1_555
C70 C65 1_555 1_555
H42 C70 1_555 1_555
C71 C68 1_555 1_555
C72 C71 1_555 1_555
H43 C72 1_555 1_555
C73 C72 1_555 1_555
H44 C73 1_555 1_555
C74 C73 1_555 1_555
C75 C74 1_555 1_555
C76 C71 1_555 1_555
H46 C76 1_555 1_555
C78 C50 1_555 1_555
C79 C78 1_555 1_555
H47 C79 1_555 1_555
C80 C79 1_555 1_555
H48_2 C80 1_555 1_555
C81_2 C80 1_555 1_555
C82_2 C81_2 1_555 1_555
H49_2 C82_2 1_555 1_555
C83 C78 1_555 1_555
H50 C83 1_555 1_555
C84_2 C81_2 1_555 1_555
C85_2 C84_2 1_555 1_555
H51_2 C85_2 1_555 1_555
C86_2 C85_2 1_555 1_555
H52_2 C86_2 1_555 1_555
C87_2 C86_2 1_555 1_555
C88_2 C87_2 1_555 1_555
H53_2 C88_2 1_555 1_555
C89_2 C84_2 1_555 1_555
H54_2 C89_2 1_555 1_555
C90_2 C87_2 1_555 1_555
O23 C90_2 1_555 1_555
O14 C90_2 1_555 1_555
Zn5 O14 1_555 1_555
Zn10 O19 1_555 1_555
O17 Zn2 1_555 1_555
O20_2 Zn2 1_555 1_555
C9 C10 1_555 1_555
C15 C16 1_555 1_555
C22 C23 1_555 1_555
C31 C44 1_555 1_555
C35_2 C36 1_555 1_555
C41_2 C42_2 1_555 1_555
C44 C45 1_555 1_555
C50 C51 1_555 1_555
C56 C57 1_555 1_555
C62 C63 1_555 1_555
C69 C70 1_555 1_555
C75 C76 1_555 1_555
C82_2 C83 1_555 1_555
C88_2 C89_2 1_555 1_555
C51_2 C46_2 1_555 1_555
H30_2 C51_2 1_555 1_555
C52_2 C46_2 1_555 1_555
C53_2 C52_2 1_555 1_555
H31_2 C53_2 1_555 1_555
C54_2 C53_2 1_555 1_555
H32_2 C54_2 1_555 1_555
C55_2 C54_2 1_555 1_555
C56_2 C55_2 1_555 1_555
H33_2 C56_2 1_555 1_555
C57_2 C52_2 1_555 1_555
H34_2 C57_2 1_555 1_555
C58_2 C55_2 1_555 1_555
C59_2 C58_2 1_555 1_555
H35_2 C59_2 1_555 1_555
C60_2 C59_2 1_555 1_555
H36_2 C60_2 1_555 1_555
C61_2 C60_2 1_555 1_555
C62_2 C61_2 1_555 1_555
H37_2 C62_2 1_555 1_555
C63_2 C58_2 1_555 1_555
H38_2 C63_2 1_555 1_555
C64_2 C61_2 1_555 1_555
O9_2 C64_2 1_555 1_555
O10_2 C64_2 1_555 1_555
H50_2 C83_2 1_555 1_555
Zn7_2 O9_2 1_555 1_555
Zn9_2 O10_2 1_555 1_555
C56_2 C57_2 1_555 1_555
C62_2 C63_2 1_555 1_555
Zn5 O1_2 1_555 1_555
Zn12 O1_2 1_555 1_555
O1_2 Zn11_2 1_555 1_555
C5_2 C1_2 1_555 1_555
C6_2 C5_2 1_555 1_555
H3_2 C6_2 1_555 1_555
C7_2 C6_2 1_555 1_555
H4_2 C7_2 1_555 1_555
C8_2 C7_2 1_555 1_555
C9_2 C8_2 1_555 1_555
H5_2 C9_2 1_555 1_555
C10_2 C5_2 1_555 1_555
H6_2 C10_2 1_555 1_555
C11_2 C8_2 1_555 1_555
C12_2 C11_2 1_555 1_555
H7_2 C12_2 1_555 1_555
C13_2 C12_2 1_555 1_555
H8_2 C13_2 1_555 1_555
C14_2 C13_2 1_555 1_555
C15_2 C14_2 1_555 1_555
H9_2 C15_2 1_555 1_555
C16_2 C11_2 1_555 1_555
H10_2 C16_2 1_555 1_555
C17_2 C14_2 1_555 1_555
O4_2 Zn12 1_555 1_555
O5_2 Zn5 1_555 1_555
C45_2 C1_2 1_555 1_555
H27_2 C45_2 1_555 1_555
C49_2 C48_2 1_555 1_555
H29_2 C49_2 1_555 1_555
C65_2 C48_2 1_555 1_555
C66_2 C65_2 1_555 1_555
H39_2 C66_2 1_555 1_555
C67_2 C66_2 1_555 1_555
H40_2 C67_2 1_555 1_555
C68_2 C67_2 1_555 1_555
C69_2 C68_2 1_555 1_555
H41_2 C69_2 1_555 1_555
C70_2 C65_2 1_555 1_555
H42_2 C70_2 1_555 1_555
C71_2 C68_2 1_555 1_555
C72_2 C71_2 1_555 1_555
H43_2 C72_2 1_555 1_555
C73_2 C72_2 1_555 1_555
H44_2 C73_2 1_555 1_555
C74_2 C73_2 1_555 1_555
C75_2 C74_2 1_555 1_555
H45_2 C75_2 1_555 1_555
C76_2 C71_2 1_555 1_555
H46_2 C76_2 1_555 1_555
C77_2 C74_2 1_555 1_555
O11_2 Zn5 1_555 1_555
O12_2 C77_2 1_555 1_555
Zn11_2 O12_2 1_555 1_555
O15_2 Zn12 1_555 1_555
O22_2 Zn12 1_555 1_555
C9_2 C10_2 1_555 1_555
C15_2 C16_2 1_555 1_555
C17_2 O4_2 1_555 1_555
C17_2 O5_2 1_555 1_555
C69_2 C70_2 1_555 1_555
C75_2 C76_2 1_555 1_555
C77_2 O11_2 1_555 1_555
Zn11_2 O15_2 1_555 1_555
Zn10 O7_2 1_555 1_555
C2_2 H1_2 1_555 1_555
C3_2 C2_2 1_555 1_555
C4_2 C3_2 1_555 1_555
H2_2 C4_2 1_555 1_555
C18_2 C3_2 1_555 1_555
C19_2 C18_2 1_555 1_555
H11_2 C19_2 1_555 1_555
C20_2 C19_2 1_555 1_555
H12_2 C20_2 1_555 1_555
C21_2 C20_2 1_555 1_555
C22_2 C21_2 1_555 1_555
H13_2 C22_2 1_555 1_555
C23_2 C18_2 1_555 1_555
H14_2 C23_2 1_555 1_555
C24 C21_2 1_555 1_555
C25 C24 1_555 1_555
H15 C25 1_555 1_555
C26 C25 1_555 1_555
H16 C26 1_555 1_555
C27_2 C26 1_555 1_555
C28_2 C27_2 1_555 1_555
H17_2 C28_2 1_555 1_555
C29 C24 1_555 1_555
H18 C29 1_555 1_555
C30_2 C27_2 1_555 1_555
O17 C30_2 1_555 1_555
O7_2 C30_2 1_555 1_555
C31_2 C32_2 1_555 1_555
C32_2 H19_2 1_555 1_555
C36_2 C31_2 1_555 1_555
C44_2 C4_2 1_555 1_555
C47_2 H28_2 1_555 1_555
O21_2 Zn10 1_555 1_555
C22_2 C23_2 1_555 1_555
C28_2 C29 1_555 1_555
C31_2 C44_2 1_555 1_555
C51_3 C46_3 1_555 1_555
H30_3 C51_3 1_555 1_555
C52_3 C46_3 1_555 1_555
C53_3 C52_3 1_555 1_555
H31_3 C53_3 1_555 1_555
C54_3 C53_3 1_555 1_555
H32_3 C54_3 1_555 1_555
C55_3 C54_3 1_555 1_555
C56_3 C55_3 1_555 1_555
H33_3 C56_3 1_555 1_555
C57_3 C52_3 1_555 1_555
H34_3 C57_3 1_555 1_555
C58_3 C55_3 1_555 1_555
C59_3 C58_3 1_555 1_555
H35_3 C59_3 1_555 1_555
H37_3 C62_3 1_555 1_555
C63_3 C58_3 1_555 1_555
H38_3 C63_3 1_555 1_555
C78_2 C50_2 1_555 1_555
C79_2 C78_2 1_555 1_555
H47_2 C79_2 1_555 1_555
C80_2 C79_2 1_555 1_555
H48_3 C80_2 1_555 1_555
C81_3 C80_2 1_555 1_555
C82_3 C81_3 1_555 1_555
H49_3 C82_3 1_555 1_555
C83_3 C78_2 1_555 1_555
H50_3 C83_3 1_555 1_555
C84_3 C81_3 1_555 1_555
C85_3 C84_3 1_555 1_555
H51_3 C85_3 1_555 1_555
C86_3 C85_3 1_555 1_555
H52_3 C86_3 1_555 1_555
C87_3 C86_3 1_555 1_555
C88_3 C87_3 1_555 1_555
H53_3 C88_3 1_555 1_555
C89_3 C84_3 1_555 1_555
H54_3 C89_3 1_555 1_555
C90_3 C87_3 1_555 1_555
O13_2 C90_3 1_555 1_555
O14_2 C90_3 1_555 1_555
Zn5_2 O14_2 1_555 1_555
Zn9_2 O13_2 1_555 1_555
C50_2 C51_3 1_555 1_555
C56_3 C57_3 1_555 1_555
C62_3 C63_3 1_555 1_555
C82_3 C83_3 1_555 1_555
C88_3 C89_3 1_555 1_555
Zn7 O3_3 1_555 1_555
C1_3 C2_3 1_555 1_555
C2_3 H1_3 1_555 1_555
C3_3 C2_3 1_555 1_555
C4_3 C3_3 1_555 1_555
H2_3 C4_3 1_555 1_555
O2_2 C43_3 1_555 1_555
O3_3 C43_3 1_555 1_555
C5_3 C1_3 1_555 1_555
C6_3 C5_3 1_555 1_555
H3_3 C6_3 1_555 1_555
C7_3 C6_3 1_555 1_555
H4_3 C7_3 1_555 1_555
C8_3 C7_3 1_555 1_555
C9_3 C8_3 1_555 1_555
H5_3 C9_3 1_555 1_555
C10_3 C5_3 1_555 1_555
H6_3 C10_3 1_555 1_555
C11_3 C8_3 1_555 1_555
C12_3 C11_3 1_555 1_555
H7_3 C12_3 1_555 1_555
C13_3 C12_3 1_555 1_555
C14_3 C13_3 1_555 1_555
C15_3 C14_3 1_555 1_555
H9_3 C15_3 1_555 1_555
C16_3 C11_3 1_555 1_555
H10_3 C16_3 1_555 1_555
C18_3 C3_3 1_555 1_555
C19_3 C18_3 1_555 1_555
H11_3 C19_3 1_555 1_555
C20_3 C19_3 1_555 1_555
H12_3 C20_3 1_555 1_555
C21_3 C20_3 1_555 1_555
C22_3 C21_3 1_555 1_555
H13_3 C22_3 1_555 1_555
C23_3 C18_3 1_555 1_555
H14_3 C23_3 1_555 1_555
C24_2 C21_3 1_555 1_555
C25_2 C24_2 1_555 1_555
H15_2 C25_2 1_555 1_555
C26_2 C25_2 1_555 1_555
H16_2 C26_2 1_555 1_555
C29_2 C24_2 1_555 1_555
H18_2 C29_2 1_555 1_555
C31_3 C32_3 1_555 1_555
C32_3 H19_3 1_555 1_555
C33_3 C32_3 1_555 1_555
H20_3 C33_3 1_555 1_555
C34_3 C33_3 1_555 1_555
C35_3 C34_3 1_555 1_555
H21_3 C35_3 1_555 1_555
C36_3 C31_3 1_555 1_555
H22_3 C36_3 1_555 1_555
C37_3 C34_3 1_555 1_555
C38_3 C37_3 1_555 1_555
H23_3 C38_3 1_555 1_555
C39_3 C38_3 1_555 1_555
H24_3 C39_3 1_555 1_555
C40_3 C39_3 1_555 1_555
C41_3 C40_3 1_555 1_555
H25_3 C41_3 1_555 1_555
C42_3 C37_3 1_555 1_555
H26_3 C42_3 1_555 1_555
C43_3 C40_3 1_555 1_555
C44_3 C4_3 1_555 1_555
C45_3 C1_3 1_555 1_555
H27_3 C45_3 1_555 1_555
O8 Zn7 1_555 1_555
C47_3 H28_3 1_555 1_555
C48_3 C47_3 1_555 1_555
C49_3 C48_3 1_555 1_555
H29_3 C49_3 1_555 1_555
C65_3 C48_3 1_555 1_555
C66_3 C65_3 1_555 1_555
H39_3 C66_3 1_555 1_555
C67_3 C66_3 1_555 1_555
H40_3 C67_3 1_555 1_555
C68_3 C67_3 1_555 1_555
C69_3 C68_3 1_555 1_555
H41_3 C69_3 1_555 1_555
C70_3 C65_3 1_555 1_555
H42_3 C70_3 1_555 1_555
C71_3 C68_3 1_555 1_555
C72_3 C71_3 1_555 1_555
H43_3 C72_3 1_555 1_555
C73_3 C72_3 1_555 1_555
H44_3 C73_3 1_555 1_555
C74_3 C73_3 1_555 1_555
C75_3 C74_3 1_555 1_555
C76_3 C71_3 1_555 1_555
H46_3 C76_3 1_555 1_555
Zn9 O8 1_555 1_555
Zn11_2 O2_2 1_555 1_555
O17_2 Zn7 1_555 1_555
C9_3 C10_3 1_555 1_555
C15_3 C16_3 1_555 1_555
C22_3 C23_3 1_555 1_555
C31_3 C44_3 1_555 1_555
C35_3 C36_3 1_555 1_555
C41_3 C42_3 1_555 1_555
C44_3 C45_3 1_555 1_555
O8 Zn11_2 1_555 1_555
C69_3 C70_3 1_555 1_555
C75_3 C76_3 1_555 1_555
C2_4 H1_4 1_555 1_555
C3_4 C2_4 1_555 1_555
C4_4 C3_4 1_555 1_555
H2_4 C4_4 1_555 1_555
C18_4 C3_4 1_555 1_555
C19_4 C18_4 1_555 1_555
H11_4 C19_4 1_555 1_555
C20_4 C19_4 1_555 1_555
H12_4 C20_4 1_555 1_555
C21_4 C20_4 1_555 1_555
C22_4 C21_4 1_555 1_555
H13_4 C22_4 1_555 1_555
C23_4 C18_4 1_555 1_555
H14_4 C23_4 1_555 1_555
C31_4 C32_4 1_555 1_555
C32_4 H19_4 1_555 1_555
C36_4 C31_4 1_555 1_555
C44_4 C4_4 1_555 1_555
C46_4 C47_4 1_555 1_555
C47_4 H28_4 1_555 1_555
C51_4 C46_4 1_555 1_555
H30_4 C51_4 1_555 1_555
C52_4 C46_4 1_555 1_555
C53_4 C52_4 1_555 1_555
H31_4 C53_4 1_555 1_555
C54_4 C53_4 1_555 1_555
H32_4 C54_4 1_555 1_555
C55_4 C54_4 1_555 1_555
C56_4 C55_4 1_555 1_555
H33_4 C56_4 1_555 1_555
C57_4 C52_4 1_555 1_555
H34_4 C57_4 1_555 1_555
C58_4 C55_4 1_555 1_555
C59_4 C58_4 1_555 1_555
H35_4 C59_4 1_555 1_555
C60_3 C59_4 1_555 1_555
H36_3 C60_3 1_555 1_555
C61_3 C60_3 1_555 1_555
C62_4 C61_3 1_555 1_555
H37_4 C62_4 1_555 1_555
C63_4 C58_4 1_555 1_555
H38_4 C63_4 1_555 1_555
C64_3 C61_3 1_555 1_555
O20 C64_3 1_555 1_555
O21 C64_3 1_555 1_555
H50_4 C83_4 1_555 1_555
C22_4 C23_4 1_555 1_555
C31_4 C44_4 1_555 1_555
C56_4 C57_4 1_555 1_555
C62_4 C63_4 1_555 1_555
Zn5_2 O15 1_555 1_555
C5_4 C1_4 1_555 1_555
C6_4 C5_4 1_555 1_555
H3_4 C6_4 1_555 1_555
C7_4 C6_4 1_555 1_555
H4_4 C7_4 1_555 1_555
C8_4 C7_4 1_555 1_555
C9_4 C8_4 1_555 1_555
H5_4 C9_4 1_555 1_555
C10_4 C5_4 1_555 1_555
H6_4 C10_4 1_555 1_555
C11_4 C8_4 1_555 1_555
C12_4 C11_4 1_555 1_555
H7_4 C12_4 1_555 1_555
C13_4 C12_4 1_555 1_555
H8_3 C13_4 1_555 1_555
C14_4 C13_4 1_555 1_555
C15_4 C14_4 1_555 1_555
H9_4 C15_4 1_555 1_555
C16_4 C11_4 1_555 1_555
H10_4 C16_4 1_555 1_555
C17_3 C14_4 1_555 1_555
O4_3 Zn11 1_555 1_555
O5_3 Zn5_2 1_555 1_555
C45_4 C1_4 1_555 1_555
H27_4 C45_4 1_555 1_555
C49_4 C48_4 1_555 1_555
H29_4 C49_4 1_555 1_555
C50_3 C49_4 1_555 1_555
C65_4 C48_4 1_555 1_555
C66_4 C65_4 1_555 1_555
H39_4 C66_4 1_555 1_555
C67_4 C66_4 1_555 1_555
H40_4 C67_4 1_555 1_555
C68_4 C67_4 1_555 1_555
C69_4 C68_4 1_555 1_555
H41_4 C69_4 1_555 1_555
C70_4 C65_4 1_555 1_555
H42_4 C70_4 1_555 1_555
C71_4 C68_4 1_555 1_555
C72_4 C71_4 1_555 1_555
H43_4 C72_4 1_555 1_555
C73_4 C72_4 1_555 1_555
H44_4 C73_4 1_555 1_555
C74_4 C73_4 1_555 1_555
C75_4 C74_4 1_555 1_555
H45_3 C75_4 1_555 1_555
C76_4 C71_4 1_555 1_555
H46_4 C76_4 1_555 1_555
C77_3 C74_4 1_555 1_555
O11_3 Zn5_2 1_555 1_555
O22 C77_3 1_555 1_555
C78_3 C50_3 1_555 1_555
C79_3 C78_3 1_555 1_555
H47_3 C79_3 1_555 1_555
C80_3 C79_3 1_555 1_555
O16_2 Zn11 1_555 1_555
O19_2 Zn11 1_555 1_555
C9_4 C10_4 1_555 1_555
C15_4 C16_4 1_555 1_555
C17_3 O4_3 1_555 1_555
C17_3 O5_3 1_555 1_555
C69_4 C70_4 1_555 1_555
C75_4 C76_4 1_555 1_555
C77_3 O11_3 1_555 1_555
Zn9 O7_3 1_555 1_555
C25_3 C24_3 1_555 1_555
H15_3 C25_3 1_555 1_555
C26_3 C25_3 1_555 1_555
H16_3 C26_3 1_555 1_555
C27_3 C26_3 1_555 1_555
C28_3 C27_3 1_555 1_555
H17_3 C28_3 1_555 1_555
C29_3 C24_3 1_555 1_555
H18_3 C29_3 1_555 1_555
C30_3 C27_3 1_555 1_555
O17_2 C30_3 1_555 1_555
O7_3 C30_3 1_555 1_555
O23_2 Zn9 1_555 1_555
C28_3 C29_3 1_555 1_555
Zn9_2 O7_4 1_555 1_555
C28_4 C27_4 1_555 1_555
H17_4 C28_4 1_555 1_555
C30_4 C27_4 1_555 1_555
O6_2 C30_4 1_555 1_555
O7_4 C30_4 1_555 1_555
Zn7_2 O6_2 1_555 1_555
O19_2 Zn9_2 1_555 1_555
Zn7_2 O19_2 1_555 1_555
H36_4 C60_4 1_555 1_555
C61_4 C60_4 1_555 1_555
C64_4 C61_4 1_555 1_555
O20_2 C64_4 1_555 1_555
O21_2 C64_4 1_555 1_555
Zn1_2 O15_2 1_555 1_555
O4_4 Zn11_2 1_555 1_555
O5_4 Zn1_2 1_555 1_555
O11_4 Zn1_2 1_555 1_555
O22_2 C77_4 1_555 1_555
O24_2 Zn1_2 1_555 1_555
C17_4 O4_4 1_555 1_555
C17_4 O5_4 1_555 1_555
C77_4 O11_4 1_555 1_555
Zn7_2 O3_4 1_555 1_555
O16_2 C43_4 1_555 1_555
O3_4 C43_4 1_555 1_555
H20_4 C33_4 1_555 1_555
C34_4 C33_4 1_555 1_555
C35_4 C34_4 1_555 1_555
C37_4 C34_4 1_555 1_555
C38_4 C37_4 1_555 1_555
H23_4 C38_4 1_555 1_555
C39_4 C38_4 1_555 1_555
H24_4 C39_4 1_555 1_555
C40_4 C39_4 1_555 1_555
C41_4 C40_4 1_555 1_555
H25_4 C41_4 1_555 1_555
C42_4 C37_4 1_555 1_555
H26_4 C42_4 1_555 1_555
C43_4 C40_4 1_555 1_555
C41_4 C42_4 1_555 1_555
C84_4 C81_4 1_555 1_555
C85_4 C84_4 1_555 1_555
H51_4 C85_4 1_555 1_555
C86_4 C85_4 1_555 1_555
H52_4 C86_4 1_555 1_555
C87_4 C86_4 1_555 1_555
C88_4 C87_4 1_555 1_555
H53_4 C88_4 1_555 1_555
C89_4 C84_4 1_555 1_555
H54_4 C89_4 1_555 1_555
C90_4 C87_4 1_555 1_555
O23_2 C90_4 1_555 1_555
O24_2 C90_4 1_555 1_555
C88_4 C89_4 1_555 1_555
Zn2_2 O3_5 1_555 1_555
C1_5 C2_5 1_555 1_555
C2_5 H1_5 1_555 1_555
C3_5 C2_5 1_555 1_555
C4_5 C3_5 1_555 1_555
H2_5 C4_5 1_555 1_555
O2_3 C43_5 1_555 1_555
O3_5 C43_5 1_555 1_555
C5_5 C1_5 1_555 1_555
C6_5 C5_5 1_555 1_555
H3_5 C6_5 1_555 1_555
C7_5 C6_5 1_555 1_555
H4_5 C7_5 1_555 1_555
C8_5 C7_5 1_555 1_555
C9_5 C8_5 1_555 1_555
H5_5 C9_5 1_555 1_555
C10_5 C5_5 1_555 1_555
H6_5 C10_5 1_555 1_555
C11_5 C8_5 1_555 1_555
C12_5 C11_5 1_555 1_555
H7_5 C12_5 1_555 1_555
C13_5 C12_5 1_555 1_555
C14_5 C13_5 1_555 1_555
C15_5 C14_5 1_555 1_555
H9_5 C15_5 1_555 1_555
C16_5 C11_5 1_555 1_555
H10_5 C16_5 1_555 1_555
C18_5 C3_5 1_555 1_555
C19_5 C18_5 1_555 1_555
H11_5 C19_5 1_555 1_555
C20_5 C19_5 1_555 1_555
H12_5 C20_5 1_555 1_555
C21_5 C20_5 1_555 1_555
C22_5 C21_5 1_555 1_555
H13_5 C22_5 1_555 1_555
C23_5 C18_5 1_555 1_555
H14_5 C23_5 1_555 1_555
C24_4 C21_5 1_555 1_555
C25_4 C24_4 1_555 1_555
H15_4 C25_4 1_555 1_555
C26_4 C25_4 1_555 1_555
H16_4 C26_4 1_555 1_555
C29_4 C24_4 1_555 1_555
H18_4 C29_4 1_555 1_555
C31_5 C32_5 1_555 1_555
C32_5 H19_5 1_555 1_555
C33_5 C32_5 1_555 1_555
H20_5 C33_5 1_555 1_555
C34_5 C33_5 1_555 1_555
C35_5 C34_5 1_555 1_555
H21_4 C35_5 1_555 1_555
C36_5 C31_5 1_555 1_555
H22_5 C36_5 1_555 1_555
C37_5 C34_5 1_555 1_555
C38_5 C37_5 1_555 1_555
H23_5 C38_5 1_555 1_555
C39_5 C38_5 1_555 1_555
H24_5 C39_5 1_555 1_555
C40_5 C39_5 1_555 1_555
C41_5 C40_5 1_555 1_555
H25_5 C41_5 1_555 1_555
C42_5 C37_5 1_555 1_555
H26_5 C42_5 1_555 1_555
C43_5 C40_5 1_555 1_555
C44_5 C4_5 1_555 1_555
C45_5 C1_5 1_555 1_555
H27_5 C45_5 1_555 1_555
O8_2 Zn2_2 1_555 1_555
C47_5 H28_5 1_555 1_555
C48_5 C47_5 1_555 1_555
C49_5 C48_5 1_555 1_555
H29_5 C49_5 1_555 1_555
C65_5 C48_5 1_555 1_555
C66_5 C65_5 1_555 1_555
H39_5 C66_5 1_555 1_555
C67_5 C66_5 1_555 1_555
H40_5 C67_5 1_555 1_555
C68_5 C67_5 1_555 1_555
C69_5 C68_5 1_555 1_555
H41_5 C69_5 1_555 1_555
C70_5 C65_5 1_555 1_555
H42_5 C70_5 1_555 1_555
C71_5 C68_5 1_555 1_555
C72_5 C71_5 1_555 1_555
H43_5 C72_5 1_555 1_555
C73_5 C72_5 1_555 1_555
H44_5 C73_5 1_555 1_555
C74_5 C73_5 1_555 1_555
C75_5 C74_5 1_555 1_555
C76_5 C71_5 1_555 1_555
H46_5 C76_5 1_555 1_555
Zn8 O8_2 1_555 1_555
Zn12_2 O2_3 1_555 1_555
O17_3 Zn2_2 1_555 1_555
O20_3 Zn2_2 1_555 1_555
C9_5 C10_5 1_555 1_555
C15_5 C16_5 1_555 1_555
C22_5 C23_5 1_555 1_555
C31_5 C44_5 1_555 1_555
C35_5 C36_5 1_555 1_555
C41_5 C42_5 1_555 1_555
C44_5 C45_5 1_555 1_555
O8_2 Zn12_2 1_555 1_555
C69_5 C70_5 1_555 1_555
C75_5 C76_5 1_555 1_555
C51_5 C46_5 1_555 1_555
H30_5 C51_5 1_555 1_555
C52_5 C46_5 1_555 1_555
C53_5 C52_5 1_555 1_555
H31_5 C53_5 1_555 1_555
C54_5 C53_5 1_555 1_555
H32_5 C54_5 1_555 1_555
C55_5 C54_5 1_555 1_555
C56_5 C55_5 1_555 1_555
H33_5 C56_5 1_555 1_555
C57_5 C52_5 1_555 1_555
H34_5 C57_5 1_555 1_555
C58_5 C55_5 1_555 1_555
C59_5 C58_5 1_555 1_555
H35_5 C59_5 1_555 1_555
H37_5 C62_5 1_555 1_555
C63_5 C58_5 1_555 1_555
H38_5 C63_5 1_555 1_555
C78_4 C50_4 1_555 1_555
C79_4 C78_4 1_555 1_555
H47_4 C79_4 1_555 1_555
C80_4 C79_4 1_555 1_555
H48_5 C80_4 1_555 1_555
C81_5 C80_4 1_555 1_555
C82_4 C81_5 1_555 1_555
H49_4 C82_4 1_555 1_555
C83_5 C78_4 1_555 1_555
H50_5 C83_5 1_555 1_555
C84_5 C81_5 1_555 1_555
C85_5 C84_5 1_555 1_555
H51_5 C85_5 1_555 1_555
C86_5 C85_5 1_555 1_555
H52_5 C86_5 1_555 1_555
C87_5 C86_5 1_555 1_555
C88_5 C87_5 1_555 1_555
H53_5 C88_5 1_555 1_555
C89_5 C84_5 1_555 1_555
H54_5 C89_5 1_555 1_555
C90_5 C87_5 1_555 1_555
O13_3 C90_5 1_555 1_555
O14_3 C90_5 1_555 1_555
Zn5_3 O14_3 1_555 1_555
Zn10_2 O13_3 1_555 1_555
C50_4 C51_5 1_555 1_555
C56_5 C57_5 1_555 1_555
C62_5 C63_5 1_555 1_555
C82_4 C83_5 1_555 1_555
C88_5 C89_5 1_555 1_555
Zn8 O7_5 1_555 1_555
C25_5 C24_5 1_555 1_555
H15_5 C25_5 1_555 1_555
C26_5 C25_5 1_555 1_555
H16_5 C26_5 1_555 1_555
C27_5 C26_5 1_555 1_555
C28_5 C27_5 1_555 1_555
H17_5 C28_5 1_555 1_555
C29_5 C24_5 1_555 1_555
H18_5 C29_5 1_555 1_555
C30_5 C27_5 1_555 1_555
O17_3 C30_5 1_555 1_555
O7_5 C30_5 1_555 1_555
O21_3 Zn8 1_555 1_555
O23_3 Zn8 1_555 1_555
C28_5 C29_5 1_555 1_555
Zn5_3 O1_3 1_555 1_555
Zn4_2 O1_3 1_555 1_555
O1_3 Zn11_3 1_555 1_555
C5_6 C1_6 1_555 1_555
C6_6 C5_6 1_555 1_555
H3_6 C6_6 1_555 1_555
C7_6 C6_6 1_555 1_555
H4_6 C7_6 1_555 1_555
C8_6 C7_6 1_555 1_555
C9_6 C8_6 1_555 1_555
H5_6 C9_6 1_555 1_555
C10_6 C5_6 1_555 1_555
H6_6 C10_6 1_555 1_555
C11_6 C8_6 1_555 1_555
C12_6 C11_6 1_555 1_555
H7_6 C12_6 1_555 1_555
C13_6 C12_6 1_555 1_555
H8_5 C13_6 1_555 1_555
C14_6 C13_6 1_555 1_555
C15_6 C14_6 1_555 1_555
H9_6 C15_6 1_555 1_555
C16_6 C11_6 1_555 1_555
H10_6 C16_6 1_555 1_555
C17_5 C14_6 1_555 1_555
O4_5 Zn4_2 1_555 1_555
O5_5 Zn5_3 1_555 1_555
C45_6 C1_6 1_555 1_555
H27_6 C45_6 1_555 1_555
C49_6 C48_6 1_555 1_555
H29_6 C49_6 1_555 1_555
C50_5 C49_6 1_555 1_555
C65_6 C48_6 1_555 1_555
C66_6 C65_6 1_555 1_555
H39_6 C66_6 1_555 1_555
C67_6 C66_6 1_555 1_555
H40_6 C67_6 1_555 1_555
C68_6 C67_6 1_555 1_555
C69_6 C68_6 1_555 1_555
H41_6 C69_6 1_555 1_555
C70_6 C65_6 1_555 1_555
H42_6 C70_6 1_555 1_555
C71_6 C68_6 1_555 1_555
C72_6 C71_6 1_555 1_555
H43_6 C72_6 1_555 1_555
C73_6 C72_6 1_555 1_555
H44_6 C73_6 1_555 1_555
C74_6 C73_6 1_555 1_555
C75_6 C74_6 1_555 1_555
H45_5 C75_6 1_555 1_555
C76_6 C71_6 1_555 1_555
H46_6 C76_6 1_555 1_555
C77_5 C74_6 1_555 1_555
O11_5 Zn5_3 1_555 1_555
O12_3 C77_5 1_555 1_555
C78_5 C50_5 1_555 1_555
C79_5 C78_5 1_555 1_555
H47_5 C79_5 1_555 1_555
C80_5 C79_5 1_555 1_555
Zn11_3 O12_3 1_555 1_555
O15_3 Zn4_2 1_555 1_555
O16_3 Zn4_2 1_555 1_555
O19_3 Zn4_2 1_555 1_555
O22_3 Zn4_2 1_555 1_555
C9_6 C10_6 1_555 1_555
C15_6 C16_6 1_555 1_555
C17_5 O4_5 1_555 1_555
C17_5 O5_5 1_555 1_555
C69_6 C70_6 1_555 1_555
C75_6 C76_6 1_555 1_555
C77_5 O11_5 1_555 1_555
Zn11_3 O15_3 1_555 1_555
C2_6 H1_6 1_555 1_555
C3_6 C2_6 1_555 1_555
C4_6 C3_6 1_555 1_555
H2_6 C4_6 1_555 1_555
C18_6 C3_6 1_555 1_555
C19_6 C18_6 1_555 1_555
H11_6 C19_6 1_555 1_555
C20_6 C19_6 1_555 1_555
H12_6 C20_6 1_555 1_555
C21_6 C20_6 1_555 1_555
C22_6 C21_6 1_555 1_555
H13_6 C22_6 1_555 1_555
C23_6 C18_6 1_555 1_555
H14_6 C23_6 1_555 1_555
C31_6 C32_6 1_555 1_555
C32_6 H19_6 1_555 1_555
C36_6 C31_6 1_555 1_555
C44_6 C4_6 1_555 1_555
C46_6 C47_6 1_555 1_555
C47_6 H28_6 1_555 1_555
C51_6 C46_6 1_555 1_555
H30_6 C51_6 1_555 1_555
C52_6 C46_6 1_555 1_555
C53_6 C52_6 1_555 1_555
H31_6 C53_6 1_555 1_555
C54_6 C53_6 1_555 1_555
H32_6 C54_6 1_555 1_555
C55_6 C54_6 1_555 1_555
C56_6 C55_6 1_555 1_555
H33_6 C56_6 1_555 1_555
C57_6 C52_6 1_555 1_555
H34_6 C57_6 1_555 1_555
C58_6 C55_6 1_555 1_555
C59_6 C58_6 1_555 1_555
H35_6 C59_6 1_555 1_555
C60_5 C59_6 1_555 1_555
H36_5 C60_5 1_555 1_555
C61_5 C60_5 1_555 1_555
C62_6 C61_5 1_555 1_555
H37_6 C62_6 1_555 1_555
C63_6 C58_6 1_555 1_555
H38_6 C63_6 1_555 1_555
C64_5 C61_5 1_555 1_555
O9_3 C64_5 1_555 1_555
O10_3 C64_5 1_555 1_555
H50_6 C83_6 1_555 1_555
Zn7_3 O9_3 1_555 1_555
Zn9_3 O10_3 1_555 1_555
C22_6 C23_6 1_555 1_555
C31_6 C44_6 1_555 1_555
C56_6 C57_6 1_555 1_555
C62_6 C63_6 1_555 1_555
Zn1_3 O1_4 1_555 1_555
Zn12_2 O1_4 1_555 1_555
O1_4 Zn11_4 1_555 1_555
O4_6 Zn12_2 1_555 1_555
O5_6 Zn1_3 1_555 1_555
O11_6 Zn1_3 1_555 1_555
O12_4 C77_6 1_555 1_555
Zn11_4 O12_4 1_555 1_555
O15_4 Zn12_2 1_555 1_555
O22_4 Zn12_2 1_555 1_555
O24_3 Zn1_3 1_555 1_555
C17_6 O4_6 1_555 1_555
C17_6 O5_6 1_555 1_555
C77_6 O11_6 1_555 1_555
Zn11_4 O15_4 1_555 1_555
H36_6 C60_6 1_555 1_555
C61_6 C60_6 1_555 1_555
C64_6 C61_6 1_555 1_555
O9_4 C64_6 1_555 1_555
O10_4 C64_6 1_555 1_555
Zn7_4 O9_4 1_555 1_555
Zn9_4 O10_4 1_555 1_555
Zn10_2 O7_6 1_555 1_555
C28_6 C27_6 1_555 1_555
H17_6 C28_6 1_555 1_555
C30_6 C27_6 1_555 1_555
O6_3 C30_6 1_555 1_555
O7_6 C30_6 1_555 1_555
Zn6_2 O6_3 1_555 1_555
O19_3 Zn10_2 1_555 1_555
O21_4 Zn10_2 1_555 1_555
Zn6_2 O19_3 1_555 1_555
C84_6 C81_6 1_555 1_555
C85_6 C84_6 1_555 1_555
H51_6 C85_6 1_555 1_555
C86_6 C85_6 1_555 1_555
H52_6 C86_6 1_555 1_555
C87_6 C86_6 1_555 1_555
C88_6 C87_6 1_555 1_555
H53_6 C88_6 1_555 1_555
C89_6 C84_6 1_555 1_555
H54_6 C89_6 1_555 1_555
C90_6 C87_6 1_555 1_555
O23_3 C90_6 1_555 1_555
O24_3 C90_6 1_555 1_555
C88_6 C89_6 1_555 1_555
Zn6_2 O3_6 1_555 1_555
O16_3 C43_6 1_555 1_555
O3_6 C43_6 1_555 1_555
H20_6 C33_6 1_555 1_555
C34_6 C33_6 1_555 1_555
C35_6 C34_6 1_555 1_555
C37_6 C34_6 1_555 1_555
C38_6 C37_6 1_555 1_555
H23_6 C38_6 1_555 1_555
C39_6 C38_6 1_555 1_555
H24_6 C39_6 1_555 1_555
C40_6 C39_6 1_555 1_555
C41_6 C40_6 1_555 1_555
H25_6 C41_6 1_555 1_555
C42_6 C37_6 1_555 1_555
H26_6 C42_6 1_555 1_555
C43_6 C40_6 1_555 1_555
O20_4 Zn6_2 1_555 1_555
C41_6 C42_6 1_555 1_555
H36_7 C60_7 1_555 1_555
C61_7 C60_7 1_555 1_555
C64_7 C61_7 1_555 1_555
O20_3 C64_7 1_555 1_555
O21_3 C64_7 1_555 1_555
Zn9_3 O7_7 1_555 1_555
C28_7 C27_7 1_555 1_555
H17_7 C28_7 1_555 1_555
C30_7 C27_7 1_555 1_555
O6_4 C30_7 1_555 1_555
O7_7 C30_7 1_555 1_555
Zn7_3 O6_4 1_555 1_555
O18_2 Zn9_3 1_555 1_555
O23_4 Zn9_3 1_555 1_555
Zn7_3 O18_2 1_555 1_555
Zn1_4 O15_3 1_555 1_555
O4_7 Zn11_3 1_555 1_555
O5_7 Zn1_4 1_555 1_555
O11_7 Zn1_4 1_555 1_555
O22_3 C77_7 1_555 1_555
O16_4 Zn11_3 1_555 1_555
O19_4 Zn11_3 1_555 1_555
O24_4 Zn1_4 1_555 1_555
C17_7 O4_7 1_555 1_555
C17_7 O5_7 1_555 1_555
C77_7 O11_7 1_555 1_555
Zn7_3 O3_7 1_555 1_555
O2_4 C43_7 1_555 1_555
O3_7 C43_7 1_555 1_555
H20_7 C33_7 1_555 1_555
C34_7 C33_7 1_555 1_555
C35_7 C34_7 1_555 1_555
C37_7 C34_7 1_555 1_555
C38_7 C37_7 1_555 1_555
H23_7 C38_7 1_555 1_555
C39_7 C38_7 1_555 1_555
H24_7 C39_7 1_555 1_555
C40_7 C39_7 1_555 1_555
C41_7 C40_7 1_555 1_555
H25_7 C41_7 1_555 1_555
C42_7 C37_7 1_555 1_555
H26_7 C42_7 1_555 1_555
C43_7 C40_7 1_555 1_555
H49_5 C82_5 1_555 1_555
Zn11_4 O2_4 1_555 1_555
C41_7 C42_7 1_555 1_555
O18_2 Zn11_4 1_555 1_555
C84_7 C81_7 1_555 1_555
C85_7 C84_7 1_555 1_555
H51_7 C85_7 1_555 1_555
C86_7 C85_7 1_555 1_555
H52_7 C86_7 1_555 1_555
C87_7 C86_7 1_555 1_555
C88_7 C87_7 1_555 1_555
H53_7 C88_7 1_555 1_555
C89_7 C84_7 1_555 1_555
H54_7 C89_7 1_555 1_555
C90_7 C87_7 1_555 1_555
O13_4 C90_7 1_555 1_555
O24_4 C90_7 1_555 1_555
Zn9_4 O13_4 1_555 1_555
C88_7 C89_7 1_555 1_555
Zn7_4 O3_8 1_555 1_555
C1_7 C2_7 1_555 1_555
C2_7 H1_7 1_555 1_555
C3_7 C2_7 1_555 1_555
C4_7 C3_7 1_555 1_555
H2_7 C4_7 1_555 1_555
O16_4 C43_8 1_555 1_555
O3_8 C43_8 1_555 1_555
C5_7 C1_7 1_555 1_555
C6_7 C5_7 1_555 1_555
H3_7 C6_7 1_555 1_555
C7_7 C6_7 1_555 1_555
H4_7 C7_7 1_555 1_555
C8_7 C7_7 1_555 1_555
C9_7 C8_7 1_555 1_555
H5_7 C9_7 1_555 1_555
C10_7 C5_7 1_555 1_555
H6_7 C10_7 1_555 1_555
C11_7 C8_7 1_555 1_555
C12_7 C11_7 1_555 1_555
H7_7 C12_7 1_555 1_555
C13_7 C12_7 1_555 1_555
C14_7 C13_7 1_555 1_555
C15_7 C14_7 1_555 1_555
H9_7 C15_7 1_555 1_555
C16_7 C11_7 1_555 1_555
H10_7 C16_7 1_555 1_555
C18_7 C3_7 1_555 1_555
C19_7 C18_7 1_555 1_555
H11_7 C19_7 1_555 1_555
C20_7 C19_7 1_555 1_555
H12_7 C20_7 1_555 1_555
C21_7 C20_7 1_555 1_555
C22_7 C21_7 1_555 1_555
H13_7 C22_7 1_555 1_555
C23_7 C18_7 1_555 1_555
H14_7 C23_7 1_555 1_555
C31_7 C32_7 1_555 1_555
C32_7 H19_7 1_555 1_555
C33_8 C32_7 1_555 1_555
H20_8 C33_8 1_555 1_555
C34_8 C33_8 1_555 1_555
C35_8 C34_8 1_555 1_555
H21_6 C35_8 1_555 1_555
C36_7 C31_7 1_555 1_555
H22_7 C36_7 1_555 1_555
C37_8 C34_8 1_555 1_555
C38_8 C37_8 1_555 1_555
H23_8 C38_8 1_555 1_555
C39_8 C38_8 1_555 1_555
H24_8 C39_8 1_555 1_555
C40_8 C39_8 1_555 1_555
C41_8 C40_8 1_555 1_555
H25_8 C41_8 1_555 1_555
C42_8 C37_8 1_555 1_555
H26_8 C42_8 1_555 1_555
C43_8 C40_8 1_555 1_555
C44_7 C4_7 1_555 1_555
C45_7 C1_7 1_555 1_555
H27_7 C45_7 1_555 1_555
O19_4 Zn7_4 1_555 1_555
C46_7 C47_7 1_555 1_555
C47_7 H28_7 1_555 1_555
C48_7 C47_7 1_555 1_555
C49_7 C48_7 1_555 1_555
H29_7 C49_7 1_555 1_555
C50_6 C49_7 1_555 1_555
C51_7 C46_7 1_555 1_555
H30_7 C51_7 1_555 1_555
C52_7 C46_7 1_555 1_555
C53_7 C52_7 1_555 1_555
H31_7 C53_7 1_555 1_555
C54_7 C53_7 1_555 1_555
H32_7 C54_7 1_555 1_555
C55_7 C54_7 1_555 1_555
C56_7 C55_7 1_555 1_555
H33_7 C56_7 1_555 1_555
C57_7 C52_7 1_555 1_555
H34_7 C57_7 1_555 1_555
C58_7 C55_7 1_555 1_555
C59_7 C58_7 1_555 1_555
H35_7 C59_7 1_555 1_555
H37_7 C62_7 1_555 1_555
C63_7 C58_7 1_555 1_555
H38_7 C63_7 1_555 1_555
C65_7 C48_7 1_555 1_555
C66_7 C65_7 1_555 1_555
H39_7 C66_7 1_555 1_555
C67_7 C66_7 1_555 1_555
H40_7 C67_7 1_555 1_555
C68_7 C67_7 1_555 1_555
C69_7 C68_7 1_555 1_555
H41_7 C69_7 1_555 1_555
C70_7 C65_7 1_555 1_555
H42_7 C70_7 1_555 1_555
C71_7 C68_7 1_555 1_555
C72_7 C71_7 1_555 1_555
H43_7 C72_7 1_555 1_555
C73_7 C72_7 1_555 1_555
H44_7 C73_7 1_555 1_555
C74_7 C73_7 1_555 1_555
C75_7 C74_7 1_555 1_555
C76_7 C71_7 1_555 1_555
H46_7 C76_7 1_555 1_555
C78_6 C50_6 1_555 1_555
C79_6 C78_6 1_555 1_555
H47_6 C79_6 1_555 1_555
C80_6 C79_6 1_555 1_555
H48_8 C80_6 1_555 1_555
C81_8 C80_6 1_555 1_555
C82_6 C81_8 1_555 1_555
H49_6 C82_6 1_555 1_555
C83_7 C78_6 1_555 1_555
H50_7 C83_7 1_555 1_555
C84_8 C81_8 1_555 1_555
C85_8 C84_8 1_555 1_555
H51_8 C85_8 1_555 1_555
C86_8 C85_8 1_555 1_555
H52_8 C86_8 1_555 1_555
C87_8 C86_8 1_555 1_555
C88_8 C87_8 1_555 1_555
H53_8 C88_8 1_555 1_555
C89_8 C84_8 1_555 1_555
H54_8 C89_8 1_555 1_555
C90_8 C87_8 1_555 1_555
O23_4 C90_8 1_555 1_555
O14_4 C90_8 1_555 1_555
Zn5_4 O14_4 1_555 1_555
Zn9_4 O19_4 1_555 1_555
O17_4 Zn7_4 1_555 1_555
C9_7 C10_7 1_555 1_555
C15_7 C16_7 1_555 1_555
C22_7 C23_7 1_555 1_555
C31_7 C44_7 1_555 1_555
C35_8 C36_7 1_555 1_555
C41_8 C42_8 1_555 1_555
C44_7 C45_7 1_555 1_555
C50_6 C51_7 1_555 1_555
C56_7 C57_7 1_555 1_555
C62_7 C63_7 1_555 1_555
C69_7 C70_7 1_555 1_555
C75_7 C76_7 1_555 1_555
C82_6 C83_7 1_555 1_555
C88_8 C89_8 1_555 1_555
Zn9_4 O7_8 1_555 1_555
C2_8 H1_8 1_555 1_555
C3_8 C2_8 1_555 1_555
C4_8 C3_8 1_555 1_555
H2_8 C4_8 1_555 1_555
C18_8 C3_8 1_555 1_555
C19_8 C18_8 1_555 1_555
H11_8 C19_8 1_555 1_555
C20_8 C19_8 1_555 1_555
H12_8 C20_8 1_555 1_555
C21_8 C20_8 1_555 1_555
C22_8 C21_8 1_555 1_555
H13_8 C22_8 1_555 1_555
C23_8 C18_8 1_555 1_555
H14_8 C23_8 1_555 1_555
C24_6 C21_8 1_555 1_555
C25_6 C24_6 1_555 1_555
H15_6 C25_6 1_555 1_555
C26_6 C25_6 1_555 1_555
H16_6 C26_6 1_555 1_555
C27_8 C26_6 1_555 1_555
C28_8 C27_8 1_555 1_555
H17_8 C28_8 1_555 1_555
C29_6 C24_6 1_555 1_555
H18_6 C29_6 1_555 1_555
C30_8 C27_8 1_555 1_555
O17_4 C30_8 1_555 1_555
O7_8 C30_8 1_555 1_555
C31_8 C32_8 1_555 1_555
C32_8 H19_8 1_555 1_555
C36_8 C31_8 1_555 1_555
C44_8 C4_8 1_555 1_555
C47_8 H28_8 1_555 1_555
C22_8 C23_8 1_555 1_555
C28_8 C29_6 1_555 1_555
C31_8 C44_8 1_555 1_555
Zn5_4 O15_4 1_555 1_555
C5_8 C1_8 1_555 1_555
C6_8 C5_8 1_555 1_555
H3_8 C6_8 1_555 1_555
C7_8 C6_8 1_555 1_555
H4_8 C7_8 1_555 1_555
C8_8 C7_8 1_555 1_555
C9_8 C8_8 1_555 1_555
H5_8 C9_8 1_555 1_555
C10_8 C5_8 1_555 1_555
H6_8 C10_8 1_555 1_555
C11_8 C8_8 1_555 1_555
C12_8 C11_8 1_555 1_555
H7_8 C12_8 1_555 1_555
C13_8 C12_8 1_555 1_555
H8_8 C13_8 1_555 1_555
C14_8 C13_8 1_555 1_555
C15_8 C14_8 1_555 1_555
H9_8 C15_8 1_555 1_555
C16_8 C11_8 1_555 1_555
H10_8 C16_8 1_555 1_555
C17_8 C14_8 1_555 1_555
O4_8 Zn11_4 1_555 1_555
O5_8 Zn5_4 1_555 1_555
C45_8 C1_8 1_555 1_555
H27_8 C45_8 1_555 1_555
C49_8 C48_8 1_555 1_555
H29_8 C49_8 1_555 1_555
C65_8 C48_8 1_555 1_555
C66_8 C65_8 1_555 1_555
H39_8 C66_8 1_555 1_555
C67_8 C66_8 1_555 1_555
H40_8 C67_8 1_555 1_555
C68_8 C67_8 1_555 1_555
C69_8 C68_8 1_555 1_555
H41_8 C69_8 1_555 1_555
C70_8 C65_8 1_555 1_555
H42_8 C70_8 1_555 1_555
C71_8 C68_8 1_555 1_555
C72_8 C71_8 1_555 1_555
H43_8 C72_8 1_555 1_555
C73_8 C72_8 1_555 1_555
H44_8 C73_8 1_555 1_555
C74_8 C73_8 1_555 1_555
C75_8 C74_8 1_555 1_555
H45_8 C75_8 1_555 1_555
C76_8 C71_8 1_555 1_555
H46_8 C76_8 1_555 1_555
C77_8 C74_8 1_555 1_555
O11_8 Zn5_4 1_555 1_555
O22_4 C77_8 1_555 1_555
C9_8 C10_8 1_555 1_555
C15_8 C16_8 1_555 1_555
C17_8 O4_8 1_555 1_555
C17_8 O5_8 1_555 1_555
C69_8 C70_8 1_555 1_555
C75_8 C76_8 1_555 1_555
C77_8 O11_8 1_555 1_555
C51_8 C46_8 1_555 1_555
H30_8 C51_8 1_555 1_555
C52_8 C46_8 1_555 1_555
C53_8 C52_8 1_555 1_555
H31_8 C53_8 1_555 1_555
C54_8 C53_8 1_555 1_555
H32_8 C54_8 1_555 1_555
C55_8 C54_8 1_555 1_555
C56_8 C55_8 1_555 1_555
H33_8 C56_8 1_555 1_555
C57_8 C52_8 1_555 1_555
H34_8 C57_8 1_555 1_555
C58_8 C55_8 1_555 1_555
C59_8 C58_8 1_555 1_555
H35_8 C59_8 1_555 1_555
C60_8 C59_8 1_555 1_555
H36_8 C60_8 1_555 1_555
C61_8 C60_8 1_555 1_555
C62_8 C61_8 1_555 1_555
H37_8 C62_8 1_555 1_555
C63_8 C58_8 1_555 1_555
H38_8 C63_8 1_555 1_555
C64_8 C61_8 1_555 1_555
O20_4 C64_8 1_555 1_555
O21_4 C64_8 1_555 1_555
H50_8 C83_8 1_555 1_555
C56_8 C57_8 1_555 1_555
C62_8 C63_8 1_555 1_555
C25_7 C24_7 1_555 1_555
H15_7 C25_7 1_555 1_555
C26_7 C25_7 1_555 1_555
H16_7 C26_7 1_555 1_555
C29_7 C24_7 1_555 1_555
H18_7 C29_7 1_555 1_555
C78_7 C50_7 1_555 1_555
C79_7 C78_7 1_555 1_555
H47_7 C79_7 1_555 1_555
C80_7 C79_7 1_555 1_555
H49_7 C82_7 1_555 1_555
C25_8 C24_8 1_555 1_555
H15_8 C25_8 1_555 1_555
C26_8 C25_8 1_555 1_555
H16_8 C26_8 1_555 1_555
C29_8 C24_8 1_555 1_555
H18_8 C29_8 1_555 1_555
H49_8 C82_8 1_555 1_555
C78_8 C50_8 1_555 1_555
C79_8 C78_8 1_555 1_555
H47_8 C79_8 1_555 1_555
C80_8 C79_8 1_555 1_555

#END
