
###############################################################################
#
# This file contains modified crystal structure data generated from the
# MOF subset of the Cambridge Structural Database (CSD) v543 
# hosted by the Cambridge Crystallographic Data Centre (CCDC).
#
# This work is licensed under the Creative Commons
# Attribution-NonCommercial-ShareAlike 4.0 International License.
# To view a copy of this license, visit
# http://creativecommons.org/licenses/by-nc-sa/4.0/
# or send a letter to
# Creative Commons, PO Box 1866, Mountain View, CA 94042, USA.
#
# CIF created using the CSD Python API on 29 September 2022
# The structure has been converted into the P1 space group
# The structure has a 3D framework
# The original CSD entry JENKET is in the orthorhombic crystal system
# The framework has been calculated to contain at least 10.0% void space
# The void calculation uses a probe of radius 1.32A, grid spacing 0.4
# H atom positions have been added when not included in the experimental data
#
###############################################################################

data_JENKET
_chemical_formula_moiety         '(C400 H272 N8 O60 Zn16)n'
_symmetry_cell_setting           triclinic
_symmetry_space_group_name_H-M   'P 1'
_symmetry_Int_Tables_number      1
_space_group_name_Hall           'P 1'
loop_
_symmetry_equiv_pos_site_id
_symmetry_equiv_pos_as_xyz
1 x,y,z
_cell_length_a                   41.041(2)
_cell_length_b                   10.1287(5)
_cell_length_c                   40.3822(18)
_cell_angle_alpha                90
_cell_angle_beta                 90
_cell_angle_gamma                90
_cell_volume                     16786.6
loop_
_atom_site_label
_atom_site_type_symbol
_atom_site_fract_x
_atom_site_fract_y
_atom_site_fract_z
O3 O 0.06008(7) 0.1194(2) 0.20455(8)
O8 O 0.13227(7) 0.0258(3) 0.19879(7)
Zn6 Zn 0.106460(12) 0.20381(5) 0.209940(14)
Zn8 Zn 0.035480(13) 0.26393(5) 0.233000(14)
C1 C 0.35189(10) 0.2973(4) 0.06327(12)
C2 C 0.32569(10) 0.3632(4) 0.07836(11)
H1 H 0.3209 0.3452 0.1007
C3 C 0.30644(11) 0.4553(4) 0.06117(11)
C4 C 0.31546(10) 0.4845(4) 0.02909(10)
H2 H 0.3037 0.5491 0.0174
C5 C 0.34092(11) 0.4229(4) 0.01362(10)
C6 C 0.35905(10) 0.3300(4) 0.03095(10)
H3 H 0.3767 0.2883 0.0204
C19 C 0.27967(10) 0.5230(4) 0.07879(11)
C20 C 0.25208(12) 0.5573(4) 0.06230(11)
H12 H 0.2505 0.5396 0.0395
C21 C 0.22520(11) 0.6198(4) 0.07884(11)
H13 H 0.2056 0.6372 0.0676
C22 C 0.22899(10) 0.6537(4) 0.11177(11)
C23 C 0.25791(12) 0.6203(5) 0.12868(11)
H14 H 0.2605 0.6417 0.1512
C24 C 0.28250(12) 0.5556(5) 0.11171(13)
H15 H 0.3017 0.5333 0.1231
C25 C 0.20219(12) 0.7258(4) 0.12960(11)
C26 C 0.20867(11) 0.8174(4) 0.15483(12)
H16 H 0.2304 0.8348 0.1608
C27 C 0.18379(12) 0.8825(5) 0.17115(10)
H17 H 0.1887 0.9447 0.1877
C28 C 0.14456(12) 0.7678(4) 0.13817(12)
H18 H 0.1227 0.7521 0.1326
C29 C 0.16900(13) 0.7030(4) 0.12148(12)
H19 H 0.1637 0.6430 0.1046
C30 C 0.38711(12) 0.0957(4) 0.06635(12)
H20 H 0.3840 0.0850 0.0434
C31 C 0.37210(11) 0.1987(4) 0.08230(12)
C32 C 0.37600(13) 0.2107(4) 0.11676(12)
H21 H 0.3652 0.2781 0.1283
C34 C 0.13823(11) 0.2986(4) 0.52896(11)
C35 C 0.12899(12) 0.3422(4) 0.49769(12)
H22 H 0.1105 0.3044 0.4877
C36 C 0.14632(13) 0.4415(4) 0.48022(12)
C37 C 0.17420(12) 0.4926(5) 0.49481(12)
H23 H 0.1860 0.5584 0.4836
C38 C 0.18517(12) 0.4489(4) 0.52576(13)
C39 C 0.16758(12) 0.3517(4) 0.54177(12)
H24 H 0.1754 0.3193 0.5621
C40 C 0.11872(12) 0.2022(4) 0.54813(11)
C41 C 0.09097(12) 0.1439(5) 0.53509(11)
H25 H 0.0848 0.1643 0.5133
C42 C 0.07253(13) 0.0586(5) 0.55281(13)
H26 H 0.0541 0.0206 0.5428
C43 C 0.07981(11) 0.0266(5) 0.58428(12)
C44 C 0.10715(14) 0.0830(6) 0.59723(14)
H27 H 0.1131 0.0614 0.6190
C45 C 0.12660(13) 0.1705(5) 0.57988(13)
H28 H 0.1451 0.2077 0.5899
H32 H 0.0671 0.0177 0.6501
C52 C 0.21488(12) 0.5031(4) 0.54024(12)
C53 C 0.23602(14) 0.4201(5) 0.55891(15)
H33 H 0.2303 0.3314 0.5626
C54 C 0.26487(17) 0.4692(5) 0.57168(17)
H34 H 0.2791 0.4110 0.5827
C55 C 0.27386(13) 0.6044(4) 0.56877(14)
C56 C 0.25216(12) 0.6812(4) 0.55067(13)
H35 H 0.2569 0.7714 0.5480
C57 C 0.22451(13) 0.6333(4) 0.53656(13)
H36 H 0.2115 0.6905 0.5239
C58 C 0.13494(12) 0.4832(4) 0.44761(12)
C59 C 0.12314(18) 0.3995(5) 0.42499(16)
H37 H 0.1220 0.3094 0.4305
C60 C 0.1124(2) 0.4388(5) 0.39359(14)
H38 H 0.1030 0.3765 0.3793
C61 C 0.11562(14) 0.5699(5) 0.38332(13)
C62 C 0.12833(16) 0.6560(5) 0.40665(13)
H39 H 0.1306 0.7454 0.4008
C63 C 0.13772(15) 0.6186(5) 0.43735(14)
H40 H 0.1461 0.6817 0.4521
C64 C 0.10451(16) 0.6102(5) 0.34976(13)
C65 C 0.10071(19) 0.5247(5) 0.32496(15)
H41 H 0.1049 0.4350 0.3291
C66 C 0.0910(2) 0.5603(5) 0.29362(14)
H42 H 0.0884 0.4961 0.2770
C67 C 0.08515(14) 0.6921(5) 0.28691(12)
C68 C 0.0879(2) 0.7796(5) 0.31170(15)
H43 H 0.0838 0.8695 0.3077
C69 C 0.0965(2) 0.7388(5) 0.34301(16)
H44 H 0.0970 0.8010 0.3603
C70 C 0.30307(13) 0.6530(5) 0.58476(13)
C71 C 0.30524(16) 0.7854(5) 0.59500(16)
H45 H 0.2874 0.8419 0.5915
C72 C 0.33261(16) 0.8337(5) 0.60987(16)
H46 H 0.3339 0.9241 0.6149
C73 C 0.35531(13) 0.6178(5) 0.60883(12)
H47 H 0.3721 0.5585 0.6141
C74 C 0.32905(15) 0.5723(5) 0.59315(15)
H48 H 0.3281 0.4822 0.5876
Zn1 Zn 0.059299(12) 0.92770(5) 0.206685(13)
O4 O 0.07798(11) 0.6583(3) 0.22907(9)
C81 C 0.35880(13) 0.7503(5) 0.61768(12)
C82 C 0.15219(10) 0.8565(4) 0.16327(12)
C83 C 0.41167(12) 0.0192(4) 0.11733(12)
C84 C 0.40654(11) 0.0080(4) 0.08310(12)
C86 C 0.12503(12) 0.9281(5) 0.18133(11)
C87 C 0.39575(13) 0.1232(5) 0.13357(12)
H55 H 0.3986 0.1336 0.1565
C88 C 0.38746(12) 0.8001(5) 0.63636(12)
C89 C 0.07546(13) 0.7347(5) 0.25339(13)
O9 O 0.39441(9) 0.9203(4) 0.63546(9)
O10 O 0.09591(8) 0.8826(3) 0.17684(8)
O11 O 0.40399(9) 0.7159(3) 0.65285(8)
O12 O 0.06695(8) 0.8576(3) 0.25007(8)
Zn7 Zn 0.393540(12) 0.70381(5) 0.709940(14)
Zn11 Zn 0.433100(13) 0.93552(5) 0.665330(13)
O23 O 0.02483(8) 0.8501(3) 0.18045(9)
C7 C 0.35146(12) 0.4622(4) 0.97893(10)
C8 C 0.38335(13) 0.4557(5) 0.96845(12)
H4 H 0.3994 0.4265 0.9834
C9 C 0.39270(12) 0.4905(5) 0.93685(11)
H5 H 0.4147 0.4828 0.9307
C10 C 0.37071(13) 0.5358(4) 0.91432(11)
C11 C 0.33755(13) 0.5397(5) 0.92429(13)
H6 H 0.3214 0.5669 0.9093
C12 C 0.32912(12) 0.5034(5) 0.95617(12)
H7 H 0.3071 0.5072 0.9624
C13 C 0.38090(12) 0.5731(4) 0.87923(11)
C14 C 0.41273(11) 0.6062(4) 0.87190(11)
H8 H 0.4284 0.6042 0.8889
C15 C 0.42220(12) 0.6422(4) 0.84038(11)
H9 H 0.4441 0.6631 0.8360
C16 C 0.39890(12) 0.6475(4) 0.81478(11)
C17 C 0.36743(12) 0.6154(5) 0.82273(13)
H10 H 0.3515 0.6194 0.8061
C18 C 0.35820(13) 0.5776(5) 0.85417(13)
H11 H 0.3364 0.5548 0.8585
C33 C 0.40927(15) 0.6835(4) 0.78055(12)
C76 C 0.49391(18) 0.8971(6) 0.79228(14)
H49 H 0.4900 0.8139 0.8018
C77 C 0.5064(3) 0.9974(8) 0.81149(17)
H50 H 0.5084 0.9877 0.8346
N1 N 0.48716(10) 0.9166(4) 0.75994(10)
O1 O 0.43831(9) 0.7143(3) 0.77499(8)
O2 O 0.38739(8) 0.6803(3) 0.75875(8)
Zn3 Zn 0.464520(13) 0.76393(5) 0.733000(14)
O7 O 0.42571(6) 0.8802(3) 0.71108(7)
N2 N 0.35044(10) 0.8188(4) 0.70418(11)
C95 C 0.34956(15) 0.9518(5) 0.70589(19)
H60 H 0.3694 0.9971 0.7083
C96 C 0.32467(19) 0.7618(8) 0.7018(4)
H61 H 0.3248 0.6690 0.7024
C99 C 0.29376(17) 0.8280(9) 0.6981(3)
H63 H 0.2740 0.7822 0.6960
C100 C 0.2956(3) 0.9635(9) 0.6981(2)
O14 O 0.50001(9) 0.6239(3) 0.74792(9)
O17 O 0.43992(7) 0.6194(2) 0.70455(8)
O18 O 0.49444(8) 0.8081(3) 0.69031(9)
O20 O 0.36773(7) 0.5258(3) 0.69879(7)
H65 H 0.499955 0.616338 0.772437
H66 H 0.494833 0.536691 0.737994
C75 C 0.00687(12) 0.3112(5) 0.16066(12)
Zn4 Zn 0.066900(13) 0.43552(5) 0.165330(13)
O5 O 0.00556(8) 0.3081(3) 0.19031(9)
O6 O 0.02757(8) 0.3709(4) 0.14396(8)
O16 O 0.06418(9) 0.6311(3) 0.16272(10)
O19 O 0.07429(6) 0.3802(3) 0.21108(7)
O21 O 0.10559(9) 0.4203(4) 0.13546(9)
H67 H 0.044291 0.661816 0.174413
H68 H 0.0837273 0.670585 0.173299
H54 H 0.5834 0.0611 0.5714
C85 C 0.56781(14) 0.0792(5) 0.63588(12)
C90 C 0.52655(10) 0.2497(5) 0.67089(12)
C91 C 0.53711(14) 0.1202(5) 0.62253(13)
H56 H 0.5303 0.0896 0.6017
C92 C 0.51854(13) 0.2005(5) 0.63955(13)
H57 H 0.4986 0.2266 0.6301
C93 C 0.57655(14) 0.1233(5) 0.66593(15)
H58 H 0.5966 0.0973 0.6752
C94 C 0.55600(13) 0.2075(5) 0.68350(14)
H59 H 0.5624 0.2366 0.7046
O13 O 0.51572(9) 0.3994(3) 0.71513(9)
C97 C 0.50528(13) 0.3411(5) 0.69005(13)
O15 O 0.47517(8) 0.3501(3) 0.68045(9)
Zn5 Zn 0.440701(12) 0.42770(5) 0.706685(13)
H57_2 H 0.0014 0.7266 0.1301
C1_2 C 0.85189(10) 0.2027(4) 0.06327(12)
C2_2 C 0.82569(10) 0.1368(4) 0.07836(11)
H1_2 H 0.8209 0.1548 0.1007
C3_2 C 0.80644(11) 0.0447(4) 0.06117(11)
C4_2 C 0.81546(10) 0.0155(4) 0.02909(10)
C5_2 C 0.84092(11) 0.0771(4) 0.01362(10)
C6_2 C 0.85905(10) 0.1700(4) 0.03095(10)
H3_2 H 0.8767 0.2117 0.0204
C30_2 C 0.88711(12) 0.4043(4) 0.06635(12)
H20_2 H 0.8840 0.4150 0.0434
C31_2 C 0.87210(11) 0.3013(4) 0.08230(12)
C32_2 C 0.87600(13) 0.2893(4) 0.11676(12)
H21_2 H 0.8652 0.2219 0.1283
C34_2 C 0.63823(11) 0.2014(4) 0.52896(11)
C35_2 C 0.62899(12) 0.1578(4) 0.49769(12)
H22_2 H 0.6105 0.1956 0.4877
C36_2 C 0.64632(13) 0.0585(4) 0.48022(12)
C37_2 C 0.67420(12) 0.0074(5) 0.49481(12)
C38_2 C 0.68517(12) 0.0511(4) 0.52576(13)
C39_2 C 0.66758(12) 0.1483(4) 0.54177(12)
H24_2 H 0.6754 0.1807 0.5621
C40_2 C 0.61872(12) 0.2978(4) 0.54813(11)
C41_2 C 0.59097(12) 0.3561(5) 0.53509(11)
H25_2 H 0.5848 0.3357 0.5133
C42_2 C 0.57253(13) 0.4414(5) 0.55281(13)
H26_2 H 0.5541 0.4794 0.5428
C43_2 C 0.57981(11) 0.4734(5) 0.58428(12)
C44_2 C 0.60715(14) 0.4170(6) 0.59723(14)
H27_2 H 0.6131 0.4386 0.6190
C45_2 C 0.62660(13) 0.3295(5) 0.57988(13)
H28_2 H 0.6451 0.2923 0.5899
C46 C 0.55890(12) 0.5674(5) 0.60427(12)
C47 C 0.54217(12) 0.6711(5) 0.58937(11)
H29 H 0.5449 0.6857 0.5665
C48 C 0.52176(13) 0.7531(5) 0.60711(12)
H30 H 0.5108 0.8220 0.5962
C49 C 0.51733(12) 0.7356(5) 0.64008(13)
C50 C 0.53450(13) 0.6344(4) 0.65674(11)
H31 H 0.5319 0.6237 0.6797
C51 C 0.55556(12) 0.5494(5) 0.63907(13)
H32_2 H 0.5671 0.4823 0.6501
C53_2 C 0.73602(14) 0.0799(5) 0.55891(15)
H33_2 H 0.7303 0.1686 0.5626
C54_2 C 0.76487(17) 0.0308(5) 0.57168(17)
H34_2 H 0.7791 0.0890 0.5827
C58_2 C 0.63494(12) 0.0168(4) 0.44761(12)
C59_2 C 0.62314(18) 0.1005(5) 0.42499(16)
H37_2 H 0.6220 0.1906 0.4305
C60_2 C 0.6124(2) 0.0612(5) 0.39359(14)
H38_2 H 0.6030 0.1235 0.3793
H41_2 H 0.6049 0.0650 0.3291
H42_2 H 0.5884 0.0039 0.2770
H48_2 H 0.8281 0.0178 0.5876
C75_2 C 0.49313(12) 0.8112(5) 0.66066(12)
C83_2 C 0.91167(12) 0.4808(4) 0.11733(12)
O6_2 O 0.47243(8) 0.8709(4) 0.64396(8)
C84_2 C 0.90654(11) 0.4920(4) 0.08310(12)
H54_2 H 0.9166 0.5611 0.0714
C85_2 C 0.93219(14) 0.5792(5) 0.13588(12)
C87_2 C 0.89575(13) 0.3768(5) 0.13357(12)
H55_2 H 0.8986 0.3664 0.1565
C90_2 C 0.97345(10) 0.7497(5) 0.17089(12)
C91_2 C 0.96289(14) 0.6202(5) 0.12253(13)
H56_2 H 0.9697 0.5896 0.1017
C92_2 C 0.98146(13) 0.7005(5) 0.13955(13)
C93_2 C 0.92345(14) 0.6233(5) 0.16593(15)
H58_2 H 0.9034 0.5973 0.1752
C94_2 C 0.94400(13) 0.7075(5) 0.18350(14)
H59_2 H 0.9376 0.7366 0.2046
O13_2 O 0.98428(9) 0.8994(3) 0.21513(9)
C97_2 C 0.99472(13) 0.8411(5) 0.19005(13)
C52_2 C 0.28512(12) 0.0031(4) 0.04024(12)
C55_2 C 0.22614(13) 0.1044(4) 0.06877(14)
C56_2 C 0.24784(12) 0.1812(4) 0.05067(13)
H35_2 H 0.2431 0.2714 0.0480
C57_2 C 0.27549(13) 0.1333(4) 0.03656(13)
H36_2 H 0.2885 0.1905 0.0239
C70_2 C 0.19693(13) 0.1530(5) 0.08476(13)
C71_2 C 0.19476(16) 0.2854(5) 0.09500(16)
H45_2 H 0.2126 0.3419 0.0915
C72_2 C 0.16739(16) 0.3337(5) 0.10987(16)
H46_2 H 0.1661 0.4241 0.1149
C73_2 C 0.14469(13) 0.1178(5) 0.10883(12)
H47_2 H 0.1279 0.0585 0.1141
C74_2 C 0.17095(15) 0.0723(5) 0.09315(15)
C81_2 C 0.14120(13) 0.2503(5) 0.11768(12)
C88_2 C 0.11254(12) 0.3001(5) 0.13636(12)
O11_2 O 0.09601(9) 0.2159(3) 0.15285(8)
H2_2 H 0.1963 0.0491 0.5174
C10_2 C 0.12929(13) 0.0358(4) 0.41432(11)
C11_2 C 0.16245(13) 0.0397(5) 0.42429(13)
H6_2 H 0.1786 0.0669 0.4093
C12_2 C 0.17088(12) 0.0034(5) 0.45617(12)
H7_2 H 0.1929 0.0072 0.4624
C13_2 C 0.11910(12) 0.0731(4) 0.37923(11)
C14_2 C 0.08727(11) 0.1062(4) 0.37190(11)
H8_2 H 0.0716 0.1042 0.3889
C15_2 C 0.07780(12) 0.1422(4) 0.34038(11)
H9_2 H 0.0559 0.1631 0.3360
C16_2 C 0.10110(12) 0.1475(4) 0.31478(11)
C17_2 C 0.13257(12) 0.1154(5) 0.32273(13)
H10_2 H 0.1485 0.1194 0.3061
C18_2 C 0.14180(13) 0.0776(5) 0.35417(13)
H11_2 H 0.1636 0.0548 0.3585
C19_2 C 0.22033(10) 0.0230(4) 0.57879(11)
C20_2 C 0.24792(12) 0.0573(4) 0.56230(11)
H12_2 H 0.2495 0.0396 0.5395
C21_2 C 0.27480(11) 0.1198(4) 0.57884(11)
H13_2 H 0.2944 0.1372 0.5676
C22_2 C 0.27101(10) 0.1537(4) 0.61177(11)
C23_2 C 0.24209(12) 0.1203(5) 0.62868(11)
H14_2 H 0.2395 0.1417 0.6512
C24_2 C 0.21750(12) 0.0556(5) 0.61171(13)
H15_2 H 0.1983 0.0333 0.6231
C25_2 C 0.29781(12) 0.2258(4) 0.62960(11)
C26_2 C 0.29133(11) 0.3174(4) 0.65483(12)
H16_2 H 0.2696 0.3348 0.6608
C27_2 C 0.31621(12) 0.3825(5) 0.67115(10)
H17_2 H 0.3113 0.4447 0.6877
C28_2 C 0.35544(12) 0.2678(4) 0.63817(12)
H18_2 H 0.3773 0.2521 0.6326
C29_2 C 0.33100(13) 0.2030(4) 0.62148(12)
H19_2 H 0.3363 0.1430 0.6046
C33_2 C 0.09073(15) 0.1835(4) 0.28055(12)
H23_2 H 0.3140 0.0584 0.9836
C61_2 C 0.38438(14) 0.0699(5) 0.88332(13)
C62_2 C 0.37167(16) 0.1560(5) 0.90665(13)
H39_2 H 0.3694 0.2454 0.9008
C63_2 C 0.36228(15) 0.1186(5) 0.93735(14)
H40_2 H 0.3539 0.1817 0.9521
C64_2 C 0.39549(16) 0.1102(5) 0.84976(13)
C65_2 C 0.39929(19) 0.0247(5) 0.82496(15)
C66_2 C 0.4090(2) 0.0603(5) 0.79362(14)
C67_2 C 0.41485(14) 0.1921(5) 0.78691(12)
C68_2 C 0.4121(2) 0.2796(5) 0.81170(15)
H43_2 H 0.4162 0.3695 0.8077
C69_2 C 0.4035(2) 0.2388(5) 0.84301(16)
H44_2 H 0.4030 0.3010 0.8603
C76_2 C 0.00609(18) 0.3971(6) 0.29228(14)
H49_2 H 0.0100 0.3139 0.3018
C80 C 0.00560(15) 0.5343(5) 0.24642(14)
H53 H 0.0104 0.5483 0.2239
N1_2 N 0.01284(10) 0.4166(4) 0.25994(10)
O1_2 O 0.06169(9) 0.2143(3) 0.27499(8)
O2_2 O 0.11261(8) 0.1803(3) 0.25875(8)
O4_2 O 0.42202(11) 0.1583(3) 0.72907(9)
C82_2 C 0.34781(10) 0.3565(4) 0.66327(12)
C86_2 C 0.37497(12) 0.4281(5) 0.68133(11)
C89_2 C 0.42454(13) 0.2347(5) 0.75339(13)
N2_2 N 0.14956(10) 0.3188(4) 0.20418(11)
O10_2 O 0.40409(8) 0.3826(3) 0.67684(8)
O12_2 O 0.43305(8) 0.3576(3) 0.75007(8)
C95_2 C 0.15044(15) 0.4518(5) 0.20589(19)
H60_2 H 0.1306 0.4971 0.2083
C96_2 C 0.17533(19) 0.2618(8) 0.2018(4)
H61_2 H 0.1752 0.1690 0.2024
C98 C 0.17800(16) 0.5234(7) 0.2044(2)
H62 H 0.1777 0.6151 0.2079
C99_2 C 0.20624(17) 0.3280(9) 0.1981(3)
H63_2 H 0.2260 0.2822 0.1960
C100_2 C 0.2044(3) 0.4635(9) 0.1981(2)
H64 H 0.2232 0.5129 0.1932
O14_2 O -0.00001(9) 0.1239(3) 0.24792(9)
H65_2 H 4.49056e-05 0.116338 0.272437
H66_2 H 0.00516715 0.0366906 0.237994
C78 C 0.5163(3) 0.1163(7) 0.7955(2)
H51 H 0.5283 0.1802 0.8072
C79 C 0.50874(18) 0.1363(6) 0.76444(17)
H52 H 0.5129 0.2184 0.7544
C80_2 C 0.49440(15) 0.0343(5) 0.74642(14)
H53_2 H 0.4896 0.0483 0.7239
C98_2 C 0.32200(16) 0.0234(7) 0.7044(2)
H62_2 H 0.3223 0.1151 0.7079
H64_2 H 0.2768 0.0129 0.6932
C46_2 C 0.05890(12) 0.9326(5) 0.60427(12)
C47_2 C 0.04217(12) 0.8289(5) 0.58937(11)
H29_2 H 0.0449 0.8143 0.5665
C48_2 C 0.02176(13) 0.7469(5) 0.60711(12)
H30_2 H 0.0108 0.6780 0.5962
C49_2 C 0.01733(12) 0.7644(5) 0.64008(13)
C50_2 C 0.03450(13) 0.8656(4) 0.65674(11)
H31_2 H 0.0319 0.8763 0.6797
C51_2 C 0.05556(12) 0.9506(5) 0.63907(13)
H54_3 H 0.4166 0.9389 0.0714
C85_3 C 0.43219(14) 0.9208(5) 0.13588(12)
C90_3 C 0.47345(10) 0.7503(5) 0.17089(12)
C91_3 C 0.46289(14) 0.8798(5) 0.12253(13)
H56_3 H 0.4697 0.9104 0.1017
C92_3 C 0.48146(13) 0.7995(5) 0.13955(13)
H57_3 H 0.5014 0.7734 0.1301
C93_3 C 0.42345(14) 0.8767(5) 0.16593(15)
H58_3 H 0.4034 0.9027 0.1752
C94_3 C 0.44400(13) 0.7925(5) 0.18350(14)
H59_3 H 0.4376 0.7634 0.2046
O13_3 O 0.48428(9) 0.6006(3) 0.21513(9)
C97_3 C 0.49472(13) 0.6589(5) 0.19005(13)
O15_2 O 0.52483(8) 0.6499(3) 0.18045(9)
Zn5_2 Zn 0.559299(12) 0.57230(5) 0.206685(13)
C75_3 C 0.99313(12) 0.6888(5) 0.66066(12)
Zn4_2 Zn 0.933100(13) 0.56448(5) 0.665330(13)
O5_2 O 0.99444(8) 0.6919(3) 0.69031(9)
O6_3 O 0.97243(8) 0.6291(4) 0.64396(8)
O16_2 O 0.93582(9) 0.3689(3) 0.66272(10)
Zn9 Zn 0.964520(13) 0.73607(5) 0.733000(14)
O19_2 O 0.92571(6) 0.6198(3) 0.71108(7)
O21_2 O 0.89441(9) 0.5797(4) 0.63546(9)
H67_2 H 0.955709 0.338184 0.674413
H68_2 H 0.916273 0.329415 0.673299
C34_3 C 0.86177(11) 0.7014(4) 0.02896(11)
C38_3 C 0.81483(12) 0.5511(4) 0.02576(13)
C39_3 C 0.83242(12) 0.6483(4) 0.04177(12)
H24_3 H 0.8246 0.6807 0.0621
C40_3 C 0.88128(12) 0.7978(4) 0.04813(11)
C41_3 C 0.90903(12) 0.8561(5) 0.03509(11)
H25_3 H 0.9152 0.8357 0.0133
C42_3 C 0.92747(13) 0.9414(5) 0.05281(13)
H26_3 H 0.9459 0.9794 0.0428
C43_3 C 0.92019(11) 0.9734(5) 0.08428(12)
C44_3 C 0.89285(14) 0.9170(6) 0.09723(14)
H27_3 H 0.8869 0.9386 0.1190
C45_3 C 0.87340(13) 0.8295(5) 0.07988(13)
H28_3 H 0.8549 0.7923 0.0899
H32_3 H 0.9329 0.9823 0.1501
C52_3 C 0.78512(12) 0.4969(4) 0.04024(12)
C53_3 C 0.76398(14) 0.5799(5) 0.05891(15)
H33_3 H 0.7697 0.6686 0.0626
C54_3 C 0.73513(17) 0.5308(5) 0.07168(17)
H34_3 H 0.7209 0.5890 0.0827
C55_3 C 0.72614(13) 0.3956(4) 0.06877(14)
C56_3 C 0.74784(12) 0.3188(4) 0.05067(13)
H35_3 H 0.7431 0.2286 0.0480
C57_3 C 0.77549(13) 0.3667(4) 0.03656(13)
H36_3 H 0.7885 0.3095 0.0239
C70_3 C 0.69693(13) 0.3470(5) 0.08476(13)
C71_3 C 0.69476(16) 0.2146(5) 0.09500(16)
H45_3 H 0.7126 0.1581 0.0915
C72_3 C 0.66739(16) 0.1663(5) 0.10987(16)
H46_3 H 0.6661 0.0759 0.1149
C73_3 C 0.64469(13) 0.3822(5) 0.10883(12)
H47_3 H 0.6279 0.4415 0.1141
C74_3 C 0.67095(15) 0.4277(5) 0.09315(15)
H48_3 H 0.6719 0.5178 0.0876
C81_3 C 0.64120(13) 0.2497(5) 0.11768(12)
C88_3 C 0.61254(12) 0.1999(5) 0.13636(12)
O9_2 O 0.60559(9) 0.0797(4) 0.13546(9)
O11_3 O 0.59601(9) 0.2841(3) 0.15285(8)
Zn7_2 Zn 0.606460(12) 0.29619(5) 0.209940(14)
Zn11_2 Zn 0.566900(13) 0.06448(5) 0.165330(13)
C1_3 C 0.64811(10) 0.7027(4) 0.56327(12)
C2_3 C 0.67431(10) 0.6368(4) 0.57836(11)
H1_3 H 0.6791 0.6548 0.6007
C3_3 C 0.69356(11) 0.5447(4) 0.56117(11)
C4_3 C 0.68454(10) 0.5155(4) 0.52909(10)
H2_3 H 0.6963 0.4509 0.5174
C5_3 C 0.65908(11) 0.5771(4) 0.51362(10)
C6_3 C 0.64095(10) 0.6700(4) 0.53095(10)
H3_3 H 0.6233 0.7117 0.5204
C7_2 C 0.64854(12) 0.5378(4) 0.47893(10)
C8_2 C 0.61665(13) 0.5443(5) 0.46845(12)
H4_2 H 0.6006 0.5735 0.4834
C9_2 C 0.60730(12) 0.5095(5) 0.43685(11)
H5_2 H 0.5853 0.5172 0.4307
C10_3 C 0.62929(13) 0.4642(4) 0.41432(11)
C11_3 C 0.66245(13) 0.4603(5) 0.42429(13)
H6_3 H 0.6786 0.4331 0.4093
C12_3 C 0.67088(12) 0.4966(5) 0.45617(12)
H7_3 H 0.6929 0.4928 0.4624
C13_3 C 0.61910(12) 0.4269(4) 0.37923(11)
C14_3 C 0.58727(11) 0.3938(4) 0.37190(11)
H8_3 H 0.5716 0.3958 0.3889
C15_3 C 0.57780(12) 0.3578(4) 0.34038(11)
H9_3 H 0.5559 0.3369 0.3360
C16_3 C 0.60110(12) 0.3525(4) 0.31478(11)
C17_3 C 0.63257(12) 0.3846(5) 0.32273(13)
H10_3 H 0.6485 0.3806 0.3061
C18_3 C 0.64180(13) 0.4224(5) 0.35417(13)
H11_3 H 0.6636 0.4452 0.3585
C19_3 C 0.72033(10) 0.4770(4) 0.57879(11)
C20_3 C 0.74792(12) 0.4427(4) 0.56230(11)
H12_3 H 0.7495 0.4604 0.5395
C21_3 C 0.77480(11) 0.3802(4) 0.57884(11)
H13_3 H 0.7944 0.3628 0.5676
C22_3 C 0.77101(10) 0.3463(4) 0.61177(11)
C23_3 C 0.74209(12) 0.3797(5) 0.62868(11)
H14_3 H 0.7395 0.3583 0.6512
C24_3 C 0.71750(12) 0.4444(5) 0.61171(13)
H15_3 H 0.6983 0.4667 0.6231
C25_3 C 0.79781(12) 0.2742(4) 0.62960(11)
C26_3 C 0.79133(11) 0.1826(4) 0.65483(12)
H16_3 H 0.7696 0.1652 0.6608
C27_3 C 0.81621(12) 0.1175(5) 0.67115(10)
H17_3 H 0.8113 0.0553 0.6877
C28_3 C 0.85544(12) 0.2322(4) 0.63817(12)
H18_3 H 0.8773 0.2479 0.6326
C29_3 C 0.83100(13) 0.2970(4) 0.62148(12)
H19_3 H 0.8363 0.3570 0.6046
C30_3 C 0.61289(12) 0.9043(4) 0.56635(12)
H20_3 H 0.6160 0.9150 0.5434
C31_3 C 0.62790(11) 0.8013(4) 0.58230(12)
C32_3 C 0.62400(13) 0.7893(4) 0.61676(12)
H21_3 H 0.6348 0.7219 0.6283
C33_3 C 0.59073(15) 0.3165(4) 0.28055(12)
C35_3 C 0.87101(12) 0.6578(4) 0.99769(12)
H22_3 H 0.8895 0.6956 0.9877
C36_3 C 0.85368(13) 0.5585(4) 0.98022(12)
C37_3 C 0.82580(12) 0.5074(5) 0.99481(12)
H23_3 H 0.8140 0.4416 0.9836
C58_3 C 0.86506(12) 0.5168(4) 0.94761(12)
C59_3 C 0.87686(18) 0.6005(5) 0.92499(16)
H37_3 H 0.8780 0.6906 0.9305
C60_3 C 0.8876(2) 0.5612(5) 0.89359(14)
H38_3 H 0.8970 0.6235 0.8793
C61_3 C 0.88438(14) 0.4301(5) 0.88332(13)
C62_3 C 0.87167(16) 0.3440(5) 0.90665(13)
H39_3 H 0.8694 0.2546 0.9008
C63_3 C 0.86228(15) 0.3814(5) 0.93735(14)
H40_3 H 0.8539 0.3183 0.9521
C64_3 C 0.89549(16) 0.3898(5) 0.84976(13)
C65_3 C 0.89929(19) 0.4753(5) 0.82496(15)
H41_3 H 0.8951 0.5650 0.8291
C66_3 C 0.9090(2) 0.4397(5) 0.79362(14)
H42_3 H 0.9116 0.5039 0.7770
C67_3 C 0.91485(14) 0.3079(5) 0.78691(12)
C68_3 C 0.9121(2) 0.2204(5) 0.81170(15)
H43_3 H 0.9162 0.1305 0.8077
C69_3 C 0.9035(2) 0.2612(5) 0.84301(16)
H44_3 H 0.9030 0.1990 0.8603
C76_3 C 0.50609(18) 0.1029(6) 0.29228(14)
H49_3 H 0.5100 0.1861 0.3018
C77_2 C 0.4936(3) 0.0026(8) 0.31149(17)
H50_2 H 0.4916 0.0123 0.3346
N1_3 N 0.51284(10) 0.0834(4) 0.25994(10)
O1_3 O 0.56169(9) 0.2857(3) 0.27499(8)
O2_3 O 0.61261(8) 0.3197(3) 0.25875(8)
Zn1_2 Zn 0.940701(12) 0.07230(5) 0.706685(13)
Zn3_2 Zn 0.535480(13) 0.23607(5) 0.233000(14)
O4_3 O 0.92202(11) 0.3417(3) 0.72907(9)
C82_3 C 0.84781(10) 0.1435(4) 0.66327(12)
C83_3 C 0.58833(12) 0.9808(4) 0.61733(12)
C84_3 C 0.59346(11) 0.9920(4) 0.58310(12)
C86_3 C 0.87497(12) 0.0719(5) 0.68133(11)
C87_3 C 0.60425(13) 0.8768(5) 0.63357(12)
H55_3 H 0.6014 0.8664 0.6565
C89_3 C 0.92454(13) 0.2653(5) 0.75339(13)
O7_2 O 0.57429(6) 0.1198(3) 0.21108(7)
N2_3 N 0.64956(10) 0.1812(4) 0.20418(11)
O10_3 O 0.90409(8) 0.1174(3) 0.67684(8)
O12_3 O 0.93305(8) 0.1424(3) 0.75007(8)
C95_3 C 0.65044(15) 0.0482(5) 0.20589(19)
H60_3 H 0.6306 0.0029 0.2083
C96_3 C 0.67533(19) 0.2382(8) 0.2018(4)
H61_3 H 0.6752 0.3310 0.2024
C99_3 C 0.70624(17) 0.1720(9) 0.1981(3)
H63_3 H 0.7260 0.2178 0.1960
C100_3 C 0.7044(3) 0.0365(9) 0.1981(2)
O14_3 O 0.49999(9) 0.3761(3) 0.24792(9)
O17_2 O 0.56008(7) 0.3806(2) 0.20455(8)
O18_2 O 0.50556(8) 0.1919(3) 0.19031(9)
O20_2 O 0.63227(7) 0.4742(3) 0.19879(7)
O23_2 O 0.97517(8) 0.1499(3) 0.68045(9)
H65_3 H 0.500045 0.383662 0.272437
H66_3 H 0.505167 0.463309 0.237994
C78_2 C 0.4837(3) 0.8837(7) 0.2955(2)
H51_2 H 0.4717 0.8198 0.3072
C79_2 C 0.49126(18) 0.8637(6) 0.26444(17)
H52_2 H 0.4871 0.7816 0.2544
C80_3 C 0.50560(15) 0.9657(5) 0.24642(14)
H53_3 H 0.5104 0.9517 0.2239
O3_2 O 0.93992(7) 0.8806(2) 0.70455(8)
O8_2 O 0.86773(7) 0.9742(3) 0.69879(7)
C98_3 C 0.67800(16) 0.9766(7) 0.2044(2)
H62_3 H 0.6777 0.8849 0.2079
H64_3 H 0.7232 0.9871 0.1932
Zn6_2 Zn 0.893540(12) 0.79619(5) 0.709940(14)
H2_4 H 0.8037 0.9509 0.0174
C19_4 C 0.77967(10) 0.9770(4) 0.07879(11)
C20_4 C 0.75208(12) 0.9427(4) 0.06230(11)
H12_4 H 0.7505 0.9604 0.0395
C21_4 C 0.72520(11) 0.8802(4) 0.07884(11)
H13_4 H 0.7056 0.8628 0.0676
C22_4 C 0.72899(10) 0.8463(4) 0.11177(11)
C23_4 C 0.75791(12) 0.8797(5) 0.12868(11)
H14_4 H 0.7605 0.8583 0.1512
C24_4 C 0.78250(12) 0.9444(5) 0.11171(13)
H15_4 H 0.8017 0.9667 0.1231
C25_4 C 0.70219(12) 0.7742(4) 0.12960(11)
C26_4 C 0.70867(11) 0.6826(4) 0.15483(12)
H16_4 H 0.7304 0.6652 0.1608
C27_4 C 0.68379(12) 0.6175(5) 0.17115(10)
H17_4 H 0.6887 0.5553 0.1877
C28_4 C 0.64456(12) 0.7322(4) 0.13817(12)
H18_4 H 0.6227 0.7479 0.1326
C29_4 C 0.66900(13) 0.7970(4) 0.12148(12)
H19_4 H 0.6637 0.8570 0.1046
H23_4 H 0.6860 0.9416 0.4836
C52_4 C 0.71488(12) 0.9969(4) 0.54024(12)
C55_4 C 0.77386(13) 0.8956(4) 0.56877(14)
C56_4 C 0.75216(12) 0.8188(4) 0.55067(13)
H35_4 H 0.7569 0.7286 0.5480
C57_4 C 0.72451(13) 0.8667(4) 0.53656(13)
H36_4 H 0.7115 0.8095 0.5239
C61_4 C 0.61562(14) 0.9301(5) 0.38332(13)
C62_4 C 0.62833(16) 0.8440(5) 0.40665(13)
H39_4 H 0.6306 0.7546 0.4008
C63_4 C 0.63772(15) 0.8814(5) 0.43735(14)
H40_4 H 0.6461 0.8183 0.4521
C64_4 C 0.60451(16) 0.8898(5) 0.34976(13)
C65_4 C 0.60071(19) 0.9753(5) 0.32496(15)
C66_4 C 0.5910(2) 0.9397(5) 0.29362(14)
C67_4 C 0.58515(14) 0.8079(5) 0.28691(12)
C68_4 C 0.5879(2) 0.7204(5) 0.31170(15)
H43_4 H 0.5838 0.6305 0.3077
C69_4 C 0.5965(2) 0.7612(5) 0.34301(16)
H44_4 H 0.5970 0.6990 0.3603
C70_4 C 0.80307(13) 0.8470(5) 0.58476(13)
C71_4 C 0.80524(16) 0.7146(5) 0.59500(16)
H45_4 H 0.7874 0.6581 0.5915
C72_4 C 0.83261(16) 0.6663(5) 0.60987(16)
H46_4 H 0.8339 0.5759 0.6149
C73_4 C 0.85531(13) 0.8822(5) 0.60883(12)
H47_4 H 0.8721 0.9415 0.6141
C74_4 C 0.82905(15) 0.9277(5) 0.59315(15)
O4_4 O 0.57798(11) 0.8417(3) 0.22907(9)
C81_4 C 0.85880(13) 0.7497(5) 0.61768(12)
C82_4 C 0.65219(10) 0.6435(4) 0.16327(12)
C86_4 C 0.62503(12) 0.5719(5) 0.18133(11)
C88_4 C 0.88746(12) 0.6999(5) 0.63636(12)
C89_4 C 0.57546(13) 0.7653(5) 0.25339(13)
O10_4 O 0.59591(8) 0.6174(3) 0.17684(8)
O11_4 O 0.90399(9) 0.7841(3) 0.65285(8)
O12_4 O 0.56695(8) 0.6424(3) 0.25007(8)
C10_4 C 0.87071(13) 0.9642(4) 0.91432(11)
C11_4 C 0.83755(13) 0.9603(5) 0.92429(13)
H6_4 H 0.8214 0.9331 0.9093
C12_4 C 0.82912(12) 0.9966(5) 0.95617(12)
H7_4 H 0.8071 0.9928 0.9624
C13_4 C 0.88090(12) 0.9269(4) 0.87923(11)
C14_4 C 0.91273(11) 0.8938(4) 0.87190(11)
H8_4 H 0.9284 0.8958 0.8889
C15_4 C 0.92220(12) 0.8578(4) 0.84038(11)
H9_4 H 0.9441 0.8369 0.8360
C16_4 C 0.89890(12) 0.8525(4) 0.81478(11)
C17_4 C 0.86743(12) 0.8846(5) 0.82273(13)
H10_4 H 0.8515 0.8806 0.8061
C18_4 C 0.85820(13) 0.9224(5) 0.85417(13)
H11_4 H 0.8364 0.9452 0.8585
C33_4 C 0.90927(15) 0.8165(4) 0.78055(12)
C76_4 C 0.99391(18) 0.6029(6) 0.79228(14)
H49_4 H 0.9900 0.6861 0.8018
C80_4 C 0.99440(15) 0.4657(5) 0.74642(14)
H53_4 H 0.9896 0.4517 0.7239
N1_4 N 0.98716(10) 0.5834(4) 0.75994(10)
O1_4 O 0.93831(9) 0.7857(3) 0.77499(8)
O2_4 O 0.88739(8) 0.8197(3) 0.75875(8)
N2_4 N 0.85044(10) 0.6812(4) 0.70418(11)
C95_4 C 0.84956(15) 0.5482(5) 0.70589(19)
H60_4 H 0.8694 0.5029 0.7083
C96_4 C 0.82467(19) 0.7382(8) 0.7018(4)
H61_4 H 0.8248 0.8310 0.7024
C98_4 C 0.82200(16) 0.4766(7) 0.7044(2)
H62_4 H 0.8223 0.3849 0.7079
C99_4 C 0.79376(17) 0.6720(9) 0.6981(3)
H63_4 H 0.7740 0.7178 0.6960
C100_4 C 0.7956(3) 0.5365(9) 0.6981(2)
H64_4 H 0.7768 0.4871 0.6932
O14_4 O 1.00001(9) 0.8761(3) 0.74792(9)
H65_4 H 0.999955 0.883662 0.772437
H66_4 H 0.994833 0.963309 0.737994
C34_4 C 0.36177(11) 0.7986(4) 0.02896(11)
C38_4 C 0.31483(12) 0.9489(4) 0.02576(13)
C39_4 C 0.33242(12) 0.8517(4) 0.04177(12)
H24_4 H 0.3246 0.8193 0.0621
C40_4 C 0.38128(12) 0.7022(4) 0.04813(11)
C41_4 C 0.40903(12) 0.6439(5) 0.03509(11)
H25_4 H 0.4152 0.6643 0.0133
C42_4 C 0.42747(13) 0.5586(5) 0.05281(13)
H26_4 H 0.4459 0.5206 0.0428
C43_4 C 0.42019(11) 0.5266(5) 0.08428(12)
C44_4 C 0.39285(14) 0.5830(6) 0.09723(14)
H27_4 H 0.3869 0.5614 0.1190
C45_4 C 0.37340(13) 0.6705(5) 0.07988(13)
H28_4 H 0.3549 0.7077 0.0899
C46_3 C 0.44110(12) 0.4326(5) 0.10427(12)
C47_3 C 0.45783(12) 0.3289(5) 0.08937(11)
H29_3 H 0.4551 0.3143 0.0665
C48_3 C 0.47824(13) 0.2469(5) 0.10711(12)
H30_3 H 0.4892 0.1780 0.0962
C49_3 C 0.48267(12) 0.2644(5) 0.14008(13)
C50_3 C 0.46550(13) 0.3656(4) 0.15674(11)
H31_3 H 0.4681 0.3763 0.1797
C51_3 C 0.44444(12) 0.4506(5) 0.13907(13)
H32_4 H 0.4329 0.5177 0.1501
C53_4 C 0.26398(14) 0.9201(5) 0.05891(15)
H33_4 H 0.2697 0.8314 0.0626
C54_4 C 0.23513(17) 0.9692(5) 0.07168(17)
H34_4 H 0.2209 0.9110 0.0827
H48_4 H 0.1719 0.9822 0.0876
C75_4 C 0.50687(12) 0.1888(5) 0.16066(12)
O6_4 O 0.52757(8) 0.1291(4) 0.14396(8)
H57_4 H 0.9986 0.2734 0.6301
C46_4 C 0.94110(12) 0.0674(5) 0.10427(12)
C47_4 C 0.95783(12) 0.1711(5) 0.08937(11)
H29_4 H 0.9551 0.1857 0.0665
C48_4 C 0.97824(13) 0.2531(5) 0.10711(12)
H30_4 H 0.9892 0.3220 0.0962
C49_4 C 0.98267(12) 0.2356(5) 0.14008(13)
C50_4 C 0.96550(13) 0.1344(4) 0.15674(11)
H31_4 H 0.9681 0.1237 0.1797
C51_4 C 0.94444(12) 0.0494(5) 0.13907(13)
C77_3 C 0.0064(3) 0.5026(8) 0.81149(17)
H50_3 H 0.0084 0.5123 0.8346
C78_3 C 0.0163(3) 0.3837(7) 0.7955(2)
H51_3 H 0.0283 0.3198 0.8072
C79_3 C 0.00874(18) 0.3637(6) 0.76444(17)
H52_3 H 0.0129 0.2816 0.7544
O14_5 O 0.00001(9) 0.8761(3) 0.74792(9)
O16_3 O 0.43582(9) 0.1311(3) 0.66272(10)
H67_3 H 0.455709 0.161816 0.674413
H68_3 H 0.416273 0.170585 0.673299
C7_3 C 0.85146(12) 0.0378(4) 0.97893(10)
C8_3 C 0.88335(13) 0.0443(5) 0.96845(12)
H4_3 H 0.8994 0.0735 0.9834
C9_3 C 0.89270(12) 0.0095(5) 0.93685(11)
H5_3 H 0.9147 0.0172 0.9307
C1_4 C 0.14811(10) 0.7973(4) 0.56327(12)
C2_4 C 0.17431(10) 0.8632(4) 0.57836(11)
H1_4 H 0.1791 0.8452 0.6007
C3_4 C 0.19356(11) 0.9553(4) 0.56117(11)
C4_4 C 0.18454(10) 0.9845(4) 0.52909(10)
C5_4 C 0.15908(11) 0.9229(4) 0.51362(10)
C6_4 C 0.14095(10) 0.8300(4) 0.53095(10)
H3_4 H 0.1233 0.7883 0.5204
C7_4 C 0.14854(12) 0.9622(4) 0.47893(10)
C8_4 C 0.11665(13) 0.9557(5) 0.46845(12)
H4_4 H 0.1006 0.9265 0.4834
C9_4 C 0.10730(12) 0.9905(5) 0.43685(11)
H5_4 H 0.0853 0.9828 0.4307
C30_4 C 0.11289(12) 0.5957(4) 0.56635(12)
H20_4 H 0.1160 0.5850 0.5434
C31_4 C 0.12790(11) 0.6987(4) 0.58230(12)
C32_4 C 0.12400(13) 0.7107(4) 0.61676(12)
H21_4 H 0.1348 0.7781 0.6283
C35_4 C 0.37101(12) 0.8422(4) 0.99769(12)
H22_4 H 0.3895 0.8044 0.9877
C36_4 C 0.35368(13) 0.9415(4) 0.98022(12)
C37_4 C 0.32580(12) 0.9926(5) 0.99481(12)
C58_4 C 0.36506(12) 0.9832(4) 0.94761(12)
C59_4 C 0.37686(18) 0.8995(5) 0.92499(16)
H37_4 H 0.3780 0.8094 0.9305
C60_4 C 0.3876(2) 0.9388(5) 0.89359(14)
H38_4 H 0.3970 0.8765 0.8793
H41_4 H 0.3951 0.9350 0.8291
H42_4 H 0.4116 0.9961 0.7770
C83_4 C 0.08833(12) 0.5192(4) 0.61733(12)
C84_4 C 0.09346(11) 0.5080(4) 0.58310(12)
H54_4 H 0.0834 0.4389 0.5714
C85_4 C 0.06781(14) 0.4208(5) 0.63588(12)
C87_4 C 0.10425(13) 0.6232(5) 0.63357(12)
H55_4 H 0.1014 0.6336 0.6565
C90_4 C 0.02655(10) 0.2503(5) 0.67089(12)
C91_4 C 0.03711(14) 0.3798(5) 0.62253(13)
H56_4 H 0.0303 0.4104 0.6017
C92_4 C 0.01854(13) 0.2995(5) 0.63955(13)
C93_4 C 0.07655(14) 0.3767(5) 0.66593(15)
H58_4 H 0.0966 0.4027 0.6752
C94_4 C 0.05600(13) 0.2925(5) 0.68350(14)
H59_4 H 0.0624 0.2634 0.7046
O13_4 O 0.01572(9) 0.1006(3) 0.71513(9)
C97_4 C 0.00528(13) 0.1589(5) 0.69005(13)
O16_4 O 0.56418(9) 0.8689(3) 0.16272(10)
H67_4 H 0.544291 0.838184 0.174413
H68_4 H 0.583727 0.829415 0.173299
C77_4 C 0.9936(3) 0.4974(8) 0.31149(17)
H50_4 H 0.9916 0.4877 0.3346
C78_4 C 0.9837(3) 0.6163(7) 0.2955(2)
H51_4 H 0.9717 0.6802 0.3072
C79_4 C 0.99126(18) 0.6363(6) 0.26444(17)
H52_4 H 0.9871 0.7184 0.2544
O14_6 O 0.99999(9) 0.1239(3) 0.24792(9)
loop_
_geom_bond_atom_site_label_1
_geom_bond_atom_site_label_2
_geom_bond_site_symmetry_1
_geom_bond_site_symmetry_2
Zn6 O3 1_555 1_555
Zn8 O3 1_555 1_555
O8 Zn6 1_555 1_555
C1 C2 1_555 1_555
C2 H1 1_555 1_555
C3 C2 1_555 1_555
C4 C3 1_555 1_555
H2 C4 1_555 1_555
C5 C4 1_555 1_555
C6 C1 1_555 1_555
H3 C6 1_555 1_555
C19 C3 1_555 1_555
C20 C19 1_555 1_555
H12 C20 1_555 1_555
C21 C20 1_555 1_555
H13 C21 1_555 1_555
C22 C21 1_555 1_555
C23 C22 1_555 1_555
H14 C23 1_555 1_555
C24 C19 1_555 1_555
H15 C24 1_555 1_555
C25 C22 1_555 1_555
C26 C25 1_555 1_555
H16 C26 1_555 1_555
C27 C26 1_555 1_555
H17 C27 1_555 1_555
C28 H18 1_555 1_555
C29 C25 1_555 1_555
H19 C29 1_555 1_555
C30 H20 1_555 1_555
C31 C1 1_555 1_555
C32 C31 1_555 1_555
H21 C32 1_555 1_555
C34 C35 1_555 1_555
C35 H22 1_555 1_555
C36 C35 1_555 1_555
C37 C36 1_555 1_555
H23 C37 1_555 1_555
C38 C37 1_555 1_555
C39 C34 1_555 1_555
H24 C39 1_555 1_555
C40 C34 1_555 1_555
C41 C40 1_555 1_555
H25 C41 1_555 1_555
C42 C41 1_555 1_555
H26 C42 1_555 1_555
C43 C42 1_555 1_555
C44 C43 1_555 1_555
H27 C44 1_555 1_555
C45 C40 1_555 1_555
H28 C45 1_555 1_555
C52 C38 1_555 1_555
C53 C52 1_555 1_555
H33 C53 1_555 1_555
C54 C53 1_555 1_555
H34 C54 1_555 1_555
C55 C54 1_555 1_555
C56 C55 1_555 1_555
H35 C56 1_555 1_555
C57 C52 1_555 1_555
H36 C57 1_555 1_555
C58 C36 1_555 1_555
C59 C58 1_555 1_555
H37 C59 1_555 1_555
C60 C59 1_555 1_555
H38 C60 1_555 1_555
C61 C60 1_555 1_555
C62 C61 1_555 1_555
H39 C62 1_555 1_555
C63 C58 1_555 1_555
H40 C63 1_555 1_555
C64 C61 1_555 1_555
C65 C64 1_555 1_555
H41 C65 1_555 1_555
C66 C65 1_555 1_555
H42 C66 1_555 1_555
C67 C66 1_555 1_555
C68 C67 1_555 1_555
H43 C68 1_555 1_555
C69 C64 1_555 1_555
H44 C69 1_555 1_555
C70 C55 1_555 1_555
C71 C70 1_555 1_555
H45 C71 1_555 1_555
C72 C71 1_555 1_555
H46 C72 1_555 1_555
C73 H47 1_555 1_555
C74 C70 1_555 1_555
H48 C74 1_555 1_555
Zn1 O10 1_555 1_555
O4 C89 1_555 1_555
C81 C72 1_555 1_555
C82 C27 1_555 1_555
C83 C84 1_555 1_555
C84 C30 1_555 1_555
C86 C82 1_555 1_555
C87 C32 1_555 1_555
H55 C87 1_555 1_555
C88 C81 1_555 1_555
C89 C67 1_555 1_555
O9 C88 1_555 1_555
O10 C86 1_555 1_555
O11 C88 1_555 1_555
O12 Zn1 1_555 1_555
Zn7 O11 1_555 1_555
Zn11 O9 1_555 1_555
O23 Zn1 1_555 1_555
C5 C6 1_555 1_555
C23 C24 1_555 1_555
C28 C29 1_555 1_555
C28 C82 1_555 1_555
C30 C31 1_555 1_555
C38 C39 1_555 1_555
C44 C45 1_555 1_555
C56 C57 1_555 1_555
C62 C63 1_555 1_555
C68 C69 1_555 1_555
C73 C74 1_555 1_555
C73 C81 1_555 1_555
C83 C87 1_555 1_555
C89 O12 1_555 1_555
C8 C7 1_555 1_555
H4 C8 1_555 1_555
C9 C8 1_555 1_555
H5 C9 1_555 1_555
C10 C9 1_555 1_555
C11 C10 1_555 1_555
H6 C11 1_555 1_555
C12 C7 1_555 1_555
H7 C12 1_555 1_555
C13 C10 1_555 1_555
C14 C13 1_555 1_555
H8 C14 1_555 1_555
C15 C14 1_555 1_555
H9 C15 1_555 1_555
C16 C15 1_555 1_555
C17 C16 1_555 1_555
H10 C17 1_555 1_555
C18 C13 1_555 1_555
H11 C18 1_555 1_555
C33 C16 1_555 1_555
C76 H49 1_555 1_555
C77 C76 1_555 1_555
H50 C77 1_555 1_555
N1 C76 1_555 1_555
O1 C33 1_555 1_555
O2 C33 1_555 1_555
Zn7 O2 1_555 1_555
Zn3 N1 1_555 1_555
O7 Zn7 1_555 1_555
N2 Zn7 1_555 1_555
C95 N2 1_555 1_555
H60 C95 1_555 1_555
C96 N2 1_555 1_555
H61 C96 1_555 1_555
C99 C96 1_555 1_555
H63 C99 1_555 1_555
O14 Zn3 1_555 1_555
O17 Zn7 1_555 1_555
Zn11 O7 1_555 1_555
O18 Zn3 1_555 1_555
O20 Zn7 1_555 1_555
C11 C12 1_555 1_555
C17 C18 1_555 1_555
O1 Zn3 1_555 1_555
Zn3 O7 1_555 1_555
Zn3 O17 1_555 1_555
C99 C100 1_555 1_555
O14 H65 1_555 1_555
O14 H66 1_555 1_555
Zn4 O6 1_555 1_555
O5 C75 1_555 1_555
O6 C75 1_555 1_555
O16 Zn4 1_555 1_555
Zn8 O5 1_555 1_555
O19 Zn4 1_555 1_555
O21 Zn4 1_555 1_555
Zn8 O19 1_555 1_555
O16 H67 1_555 1_555
O16 H68 1_555 1_555
C90 C92 1_555 1_555
C91 C85 1_555 1_555
H56 C91 1_555 1_555
C92 C91 1_555 1_555
H57 C92 1_555 1_555
C93 C85 1_555 1_555
H58 C93 1_555 1_555
C94 C90 1_555 1_555
H59 C94 1_555 1_555
O13 C97 1_555 1_555
C97 C90 1_555 1_555
O15 C97 1_555 1_555
Zn5 O15 1_555 1_555
C93 C94 1_555 1_555
C1_2 C2_2 1_555 1_555
C2_2 H1_2 1_555 1_555
C3_2 C2_2 1_555 1_555
C4_2 C3_2 1_555 1_555
C5_2 C4_2 1_555 1_555
C6_2 C1_2 1_555 1_555
H3_2 C6_2 1_555 1_555
C30_2 H20_2 1_555 1_555
C31_2 C1_2 1_555 1_555
C32_2 C31_2 1_555 1_555
H21_2 C32_2 1_555 1_555
C34_2 C35_2 1_555 1_555
C35_2 H22_2 1_555 1_555
C36_2 C35_2 1_555 1_555
C37_2 C36_2 1_555 1_555
C38_2 C37_2 1_555 1_555
C39_2 C34_2 1_555 1_555
H24_2 C39_2 1_555 1_555
C40_2 C34_2 1_555 1_555
C41_2 C40_2 1_555 1_555
H25_2 C41_2 1_555 1_555
C42_2 C41_2 1_555 1_555
H26_2 C42_2 1_555 1_555
C43_2 C42_2 1_555 1_555
C44_2 C43_2 1_555 1_555
H27_2 C44_2 1_555 1_555
C45_2 C40_2 1_555 1_555
H28_2 C45_2 1_555 1_555
C46 C43_2 1_555 1_555
C47 C46 1_555 1_555
H29 C47 1_555 1_555
C48 C47 1_555 1_555
H30 C48 1_555 1_555
C49 C48 1_555 1_555
C50 C49 1_555 1_555
H31 C50 1_555 1_555
C51 C46 1_555 1_555
H32_2 C51 1_555 1_555
H33_2 C53_2 1_555 1_555
C54_2 C53_2 1_555 1_555
H34_2 C54_2 1_555 1_555
C58_2 C36_2 1_555 1_555
C59_2 C58_2 1_555 1_555
H37_2 C59_2 1_555 1_555
C60_2 C59_2 1_555 1_555
H38_2 C60_2 1_555 1_555
C75_2 C49 1_555 1_555
Zn11 O6_2 1_555 1_555
O18 C75_2 1_555 1_555
C83_2 C84_2 1_555 1_555
O6_2 C75_2 1_555 1_555
C84_2 C30_2 1_555 1_555
H54_2 C84_2 1_555 1_555
C85_2 C83_2 1_555 1_555
C87_2 C32_2 1_555 1_555
H55_2 C87_2 1_555 1_555
C90_2 C92_2 1_555 1_555
C91_2 C85_2 1_555 1_555
H56_2 C91_2 1_555 1_555
C92_2 C91_2 1_555 1_555
C93_2 C85_2 1_555 1_555
H58_2 C93_2 1_555 1_555
C94_2 C90_2 1_555 1_555
H59_2 C94_2 1_555 1_555
O13_2 C97_2 1_555 1_555
C97_2 C90_2 1_555 1_555
C5_2 C6_2 1_555 1_555
C30_2 C31_2 1_555 1_555
C38_2 C39_2 1_555 1_555
C44_2 C45_2 1_555 1_555
C50 C51 1_555 1_555
C83_2 C87_2 1_555 1_555
C93_2 C94_2 1_555 1_555
C56_2 C55_2 1_555 1_555
H35_2 C56_2 1_555 1_555
C57_2 C52_2 1_555 1_555
H36_2 C57_2 1_555 1_555
C70_2 C55_2 1_555 1_555
C71_2 C70_2 1_555 1_555
H45_2 C71_2 1_555 1_555
C72_2 C71_2 1_555 1_555
H46_2 C72_2 1_555 1_555
C73_2 H47_2 1_555 1_555
C74_2 C70_2 1_555 1_555
C81_2 C72_2 1_555 1_555
C88_2 C81_2 1_555 1_555
O21 C88_2 1_555 1_555
O11_2 C88_2 1_555 1_555
Zn6 O11_2 1_555 1_555
C56_2 C57_2 1_555 1_555
C73_2 C74_2 1_555 1_555
C73_2 C81_2 1_555 1_555
C11_2 C10_2 1_555 1_555
H6_2 C11_2 1_555 1_555
H7_2 C12_2 1_555 1_555
C13_2 C10_2 1_555 1_555
C14_2 C13_2 1_555 1_555
H8_2 C14_2 1_555 1_555
C15_2 C14_2 1_555 1_555
H9_2 C15_2 1_555 1_555
C16_2 C15_2 1_555 1_555
C17_2 C16_2 1_555 1_555
H10_2 C17_2 1_555 1_555
C18_2 C13_2 1_555 1_555
H11_2 C18_2 1_555 1_555
C20_2 C19_2 1_555 1_555
H12_2 C20_2 1_555 1_555
C21_2 C20_2 1_555 1_555
H13_2 C21_2 1_555 1_555
C22_2 C21_2 1_555 1_555
C23_2 C22_2 1_555 1_555
H14_2 C23_2 1_555 1_555
C24_2 C19_2 1_555 1_555
H15_2 C24_2 1_555 1_555
C25_2 C22_2 1_555 1_555
C26_2 C25_2 1_555 1_555
H16_2 C26_2 1_555 1_555
C27_2 C26_2 1_555 1_555
H17_2 C27_2 1_555 1_555
C28_2 H18_2 1_555 1_555
C29_2 C25_2 1_555 1_555
H19_2 C29_2 1_555 1_555
C33_2 C16_2 1_555 1_555
C62_2 C61_2 1_555 1_555
H39_2 C62_2 1_555 1_555
H40_2 C63_2 1_555 1_555
C64_2 C61_2 1_555 1_555
C65_2 C64_2 1_555 1_555
C66_2 C65_2 1_555 1_555
C67_2 C66_2 1_555 1_555
C68_2 C67_2 1_555 1_555
H43_2 C68_2 1_555 1_555
C69_2 C64_2 1_555 1_555
H44_2 C69_2 1_555 1_555
C76_2 H49_2 1_555 1_555
H53 C80 1_555 1_555
N1_2 C76_2 1_555 1_555
O1_2 C33_2 1_555 1_555
O2_2 C33_2 1_555 1_555
O17 Zn5 1_555 1_555
Zn5 O10_2 1_555 1_555
Zn6 O2_2 1_555 1_555
Zn8 N1_2 1_555 1_555
O4_2 C89_2 1_555 1_555
C82_2 C27_2 1_555 1_555
C86_2 C82_2 1_555 1_555
C89_2 C67_2 1_555 1_555
O19 Zn6 1_555 1_555
O20 C86_2 1_555 1_555
N2_2 Zn6 1_555 1_555
O10_2 C86_2 1_555 1_555
O12_2 Zn5 1_555 1_555
C95_2 N2_2 1_555 1_555
H60_2 C95_2 1_555 1_555
C96_2 N2_2 1_555 1_555
H61_2 C96_2 1_555 1_555
C98 C95_2 1_555 1_555
H62 C98 1_555 1_555
C99_2 C96_2 1_555 1_555
H63_2 C99_2 1_555 1_555
C100_2 C98 1_555 1_555
H64 C100_2 1_555 1_555
O14_2 Zn8 1_555 1_555
C11_2 C12_2 1_555 1_555
C17_2 C18_2 1_555 1_555
C23_2 C24_2 1_555 1_555
C28_2 C29_2 1_555 1_555
C28_2 C82_2 1_555 1_555
C62_2 C63_2 1_555 1_555
C68_2 C69_2 1_555 1_555
C80 N1_2 1_555 1_555
O1_2 Zn8 1_555 1_555
C89_2 O12_2 1_555 1_555
C99_2 C100_2 1_555 1_555
O14_2 H65_2 1_555 1_555
O14_2 H66_2 1_555 1_555
H51 C78 1_555 1_555
C79 C78 1_555 1_555
H52 C79 1_555 1_555
C80_2 C79 1_555 1_555
H53_2 C80_2 1_555 1_555
H62_2 C98_2 1_555 1_555
C47_2 C46_2 1_555 1_555
H29_2 C47_2 1_555 1_555
C48_2 C47_2 1_555 1_555
H30_2 C48_2 1_555 1_555
C49_2 C48_2 1_555 1_555
C50_2 C49_2 1_555 1_555
H31_2 C50_2 1_555 1_555
C51_2 C46_2 1_555 1_555
C90_3 C92_3 1_555 1_555
C91_3 C85_3 1_555 1_555
H56_3 C91_3 1_555 1_555
C92_3 C91_3 1_555 1_555
H57_3 C92_3 1_555 1_555
C93_3 C85_3 1_555 1_555
H58_3 C93_3 1_555 1_555
C94_3 C90_3 1_555 1_555
H59_3 C94_3 1_555 1_555
O13_3 C97_3 1_555 1_555
C97_3 C90_3 1_555 1_555
O15_2 C97_3 1_555 1_555
Zn5_2 O15_2 1_555 1_555
C50_2 C51_2 1_555 1_555
C93_3 C94_3 1_555 1_555
Zn4_2 O6_3 1_555 1_555
O5_2 C75_3 1_555 1_555
O6_3 C75_3 1_555 1_555
O16_2 Zn4_2 1_555 1_555
Zn9 O5_2 1_555 1_555
O19_2 Zn4_2 1_555 1_555
O21_2 Zn4_2 1_555 1_555
Zn9 O19_2 1_555 1_555
O16_2 H67_2 1_555 1_555
O16_2 H68_2 1_555 1_555
C39_3 C34_3 1_555 1_555
H24_3 C39_3 1_555 1_555
C40_3 C34_3 1_555 1_555
C41_3 C40_3 1_555 1_555
H25_3 C41_3 1_555 1_555
C42_3 C41_3 1_555 1_555
H26_3 C42_3 1_555 1_555
C43_3 C42_3 1_555 1_555
C44_3 C43_3 1_555 1_555
H27_3 C44_3 1_555 1_555
C45_3 C40_3 1_555 1_555
H28_3 C45_3 1_555 1_555
C52_3 C38_3 1_555 1_555
C53_3 C52_3 1_555 1_555
H33_3 C53_3 1_555 1_555
C54_3 C53_3 1_555 1_555
H34_3 C54_3 1_555 1_555
C55_3 C54_3 1_555 1_555
C56_3 C55_3 1_555 1_555
H35_3 C56_3 1_555 1_555
C57_3 C52_3 1_555 1_555
H36_3 C57_3 1_555 1_555
C70_3 C55_3 1_555 1_555
C71_3 C70_3 1_555 1_555
H45_3 C71_3 1_555 1_555
C72_3 C71_3 1_555 1_555
H46_3 C72_3 1_555 1_555
C73_3 H47_3 1_555 1_555
C74_3 C70_3 1_555 1_555
H48_3 C74_3 1_555 1_555
C81_3 C72_3 1_555 1_555
C88_3 C81_3 1_555 1_555
O9_2 C88_3 1_555 1_555
O11_3 C88_3 1_555 1_555
Zn7_2 O11_3 1_555 1_555
Zn11_2 O9_2 1_555 1_555
C38_3 C39_3 1_555 1_555
C44_3 C45_3 1_555 1_555
C56_3 C57_3 1_555 1_555
C73_3 C74_3 1_555 1_555
C73_3 C81_3 1_555 1_555
C1_3 C2_3 1_555 1_555
C2_3 H1_3 1_555 1_555
C3_3 C2_3 1_555 1_555
C4_3 C3_3 1_555 1_555
H2_3 C4_3 1_555 1_555
C5_3 C4_3 1_555 1_555
C6_3 C1_3 1_555 1_555
H3_3 C6_3 1_555 1_555
C7_2 C5_3 1_555 1_555
C8_2 C7_2 1_555 1_555
H4_2 C8_2 1_555 1_555
C9_2 C8_2 1_555 1_555
H5_2 C9_2 1_555 1_555
C10_3 C9_2 1_555 1_555
C11_3 C10_3 1_555 1_555
H6_3 C11_3 1_555 1_555
C12_3 C7_2 1_555 1_555
H7_3 C12_3 1_555 1_555
C13_3 C10_3 1_555 1_555
C14_3 C13_3 1_555 1_555
H8_3 C14_3 1_555 1_555
C15_3 C14_3 1_555 1_555
H9_3 C15_3 1_555 1_555
C16_3 C15_3 1_555 1_555
C17_3 C16_3 1_555 1_555
H10_3 C17_3 1_555 1_555
C18_3 C13_3 1_555 1_555
H11_3 C18_3 1_555 1_555
C19_3 C3_3 1_555 1_555
C20_3 C19_3 1_555 1_555
H12_3 C20_3 1_555 1_555
C21_3 C20_3 1_555 1_555
H13_3 C21_3 1_555 1_555
C22_3 C21_3 1_555 1_555
C23_3 C22_3 1_555 1_555
H14_3 C23_3 1_555 1_555
C24_3 C19_3 1_555 1_555
H15_3 C24_3 1_555 1_555
C25_3 C22_3 1_555 1_555
C26_3 C25_3 1_555 1_555
H16_3 C26_3 1_555 1_555
C27_3 C26_3 1_555 1_555
H17_3 C27_3 1_555 1_555
C28_3 H18_3 1_555 1_555
C29_3 C25_3 1_555 1_555
H19_3 C29_3 1_555 1_555
C30_3 H20_3 1_555 1_555
C31_3 C1_3 1_555 1_555
C32_3 C31_3 1_555 1_555
H21_3 C32_3 1_555 1_555
C33_3 C16_3 1_555 1_555
C35_3 H22_3 1_555 1_555
C36_3 C35_3 1_555 1_555
C37_3 C36_3 1_555 1_555
H23_3 C37_3 1_555 1_555
C58_3 C36_3 1_555 1_555
C59_3 C58_3 1_555 1_555
H37_3 C59_3 1_555 1_555
C60_3 C59_3 1_555 1_555
H38_3 C60_3 1_555 1_555
C61_3 C60_3 1_555 1_555
C62_3 C61_3 1_555 1_555
H39_3 C62_3 1_555 1_555
C63_3 C58_3 1_555 1_555
H40_3 C63_3 1_555 1_555
C64_3 C61_3 1_555 1_555
C65_3 C64_3 1_555 1_555
H41_3 C65_3 1_555 1_555
C66_3 C65_3 1_555 1_555
H42_3 C66_3 1_555 1_555
C67_3 C66_3 1_555 1_555
C68_3 C67_3 1_555 1_555
H43_3 C68_3 1_555 1_555
C69_3 C64_3 1_555 1_555
H44_3 C69_3 1_555 1_555
C76_3 H49_3 1_555 1_555
C77_2 C76_3 1_555 1_555
H50_2 C77_2 1_555 1_555
N1_3 C76_3 1_555 1_555
O1_3 C33_3 1_555 1_555
O2_3 C33_3 1_555 1_555
Zn1_2 O10_3 1_555 1_555
Zn7_2 O2_3 1_555 1_555
Zn3_2 N1_3 1_555 1_555
O4_3 C89_3 1_555 1_555
C82_3 C27_3 1_555 1_555
C83_3 C84_3 1_555 1_555
C84_3 C30_3 1_555 1_555
C86_3 C82_3 1_555 1_555
C87_3 C32_3 1_555 1_555
H55_3 C87_3 1_555 1_555
C89_3 C67_3 1_555 1_555
O7_2 Zn7_2 1_555 1_555
N2_3 Zn7_2 1_555 1_555
O10_3 C86_3 1_555 1_555
O12_3 Zn1_2 1_555 1_555
C95_3 N2_3 1_555 1_555
H60_3 C95_3 1_555 1_555
C96_3 N2_3 1_555 1_555
H61_3 C96_3 1_555 1_555
C99_3 C96_3 1_555 1_555
H63_3 C99_3 1_555 1_555
O14_3 Zn3_2 1_555 1_555
O17_2 Zn7_2 1_555 1_555
Zn11_2 O7_2 1_555 1_555
O18_2 Zn3_2 1_555 1_555
O20_2 Zn7_2 1_555 1_555
O23_2 Zn1_2 1_555 1_555
C5_3 C6_3 1_555 1_555
C11_3 C12_3 1_555 1_555
C17_3 C18_3 1_555 1_555
C23_3 C24_3 1_555 1_555
C28_3 C29_3 1_555 1_555
C28_3 C82_3 1_555 1_555
C30_3 C31_3 1_555 1_555
C62_3 C63_3 1_555 1_555
C68_3 C69_3 1_555 1_555
O1_3 Zn3_2 1_555 1_555
Zn3_2 O7_2 1_555 1_555
Zn3_2 O17_2 1_555 1_555
C83_3 C87_3 1_555 1_555
C89_3 O12_3 1_555 1_555
C99_3 C100_3 1_555 1_555
O14_3 H65_3 1_555 1_555
O14_3 H66_3 1_555 1_555
H51_2 C78_2 1_555 1_555
C79_2 C78_2 1_555 1_555
H52_2 C79_2 1_555 1_555
C80_3 C79_2 1_555 1_555
H53_3 C80_3 1_555 1_555
H62_3 C98_3 1_555 1_555
Zn6_2 O3_2 1_555 1_555
Zn9 O3_2 1_555 1_555
O8_2 Zn6_2 1_555 1_555
C20_4 C19_4 1_555 1_555
H12_4 C20_4 1_555 1_555
C21_4 C20_4 1_555 1_555
H13_4 C21_4 1_555 1_555
C22_4 C21_4 1_555 1_555
C23_4 C22_4 1_555 1_555
H14_4 C23_4 1_555 1_555
C24_4 C19_4 1_555 1_555
H15_4 C24_4 1_555 1_555
C25_4 C22_4 1_555 1_555
C26_4 C25_4 1_555 1_555
H16_4 C26_4 1_555 1_555
C27_4 C26_4 1_555 1_555
H17_4 C27_4 1_555 1_555
C28_4 H18_4 1_555 1_555
C29_4 C25_4 1_555 1_555
H19_4 C29_4 1_555 1_555
C56_4 C55_4 1_555 1_555
H35_4 C56_4 1_555 1_555
C57_4 C52_4 1_555 1_555
H36_4 C57_4 1_555 1_555
C62_4 C61_4 1_555 1_555
H39_4 C62_4 1_555 1_555
H40_4 C63_4 1_555 1_555
C64_4 C61_4 1_555 1_555
C65_4 C64_4 1_555 1_555
C66_4 C65_4 1_555 1_555
C67_4 C66_4 1_555 1_555
C68_4 C67_4 1_555 1_555
H43_4 C68_4 1_555 1_555
C69_4 C64_4 1_555 1_555
H44_4 C69_4 1_555 1_555
C70_4 C55_4 1_555 1_555
C71_4 C70_4 1_555 1_555
H45_4 C71_4 1_555 1_555
C72_4 C71_4 1_555 1_555
H46_4 C72_4 1_555 1_555
C73_4 H47_4 1_555 1_555
C74_4 C70_4 1_555 1_555
O17_2 Zn5_2 1_555 1_555
Zn5_2 O10_4 1_555 1_555
O4_4 C89_4 1_555 1_555
C81_4 C72_4 1_555 1_555
C82_4 C27_4 1_555 1_555
C86_4 C82_4 1_555 1_555
C88_4 C81_4 1_555 1_555
C89_4 C67_4 1_555 1_555
O20_2 C86_4 1_555 1_555
O21_2 C88_4 1_555 1_555
O10_4 C86_4 1_555 1_555
O11_4 C88_4 1_555 1_555
O12_4 Zn5_2 1_555 1_555
Zn6_2 O11_4 1_555 1_555
C23_4 C24_4 1_555 1_555
C28_4 C29_4 1_555 1_555
C28_4 C82_4 1_555 1_555
C56_4 C57_4 1_555 1_555
C62_4 C63_4 1_555 1_555
C68_4 C69_4 1_555 1_555
C73_4 C74_4 1_555 1_555
C73_4 C81_4 1_555 1_555
C89_4 O12_4 1_555 1_555
C11_4 C10_4 1_555 1_555
H6_4 C11_4 1_555 1_555
H7_4 C12_4 1_555 1_555
C13_4 C10_4 1_555 1_555
C14_4 C13_4 1_555 1_555
H8_4 C14_4 1_555 1_555
C15_4 C14_4 1_555 1_555
H9_4 C15_4 1_555 1_555
C16_4 C15_4 1_555 1_555
C17_4 C16_4 1_555 1_555
H10_4 C17_4 1_555 1_555
C18_4 C13_4 1_555 1_555
H11_4 C18_4 1_555 1_555
C33_4 C16_4 1_555 1_555
C76_4 H49_4 1_555 1_555
H53_4 C80_4 1_555 1_555
N1_4 C76_4 1_555 1_555
O1_4 C33_4 1_555 1_555
O2_4 C33_4 1_555 1_555
Zn6_2 O2_4 1_555 1_555
Zn9 N1_4 1_555 1_555
O19_2 Zn6_2 1_555 1_555
N2_4 Zn6_2 1_555 1_555
C95_4 N2_4 1_555 1_555
H60_4 C95_4 1_555 1_555
C96_4 N2_4 1_555 1_555
H61_4 C96_4 1_555 1_555
C98_4 C95_4 1_555 1_555
H62_4 C98_4 1_555 1_555
C99_4 C96_4 1_555 1_555
H63_4 C99_4 1_555 1_555
C100_4 C98_4 1_555 1_555
H64_4 C100_4 1_555 1_555
O14_4 Zn9 1_555 1_555
C11_4 C12_4 1_555 1_555
C17_4 C18_4 1_555 1_555
C80_4 N1_4 1_555 1_555
O1_4 Zn9 1_555 1_555
C99_4 C100_4 1_555 1_555
O14_4 H65_4 1_555 1_555
O14_4 H66_4 1_555 1_555
C39_4 C34_4 1_555 1_555
H24_4 C39_4 1_555 1_555
C40_4 C34_4 1_555 1_555
C41_4 C40_4 1_555 1_555
H25_4 C41_4 1_555 1_555
C42_4 C41_4 1_555 1_555
H26_4 C42_4 1_555 1_555
C43_4 C42_4 1_555 1_555
C44_4 C43_4 1_555 1_555
H27_4 C44_4 1_555 1_555
C45_4 C40_4 1_555 1_555
H28_4 C45_4 1_555 1_555
C46_3 C43_4 1_555 1_555
C47_3 C46_3 1_555 1_555
H29_3 C47_3 1_555 1_555
C48_3 C47_3 1_555 1_555
H30_3 C48_3 1_555 1_555
C49_3 C48_3 1_555 1_555
C50_3 C49_3 1_555 1_555
H31_3 C50_3 1_555 1_555
C51_3 C46_3 1_555 1_555
H32_4 C51_3 1_555 1_555
H33_4 C53_4 1_555 1_555
C54_4 C53_4 1_555 1_555
H34_4 C54_4 1_555 1_555
C75_4 C49_3 1_555 1_555
Zn11_2 O6_4 1_555 1_555
O18_2 C75_4 1_555 1_555
O6_4 C75_4 1_555 1_555
C38_4 C39_4 1_555 1_555
C44_4 C45_4 1_555 1_555
C50_3 C51_3 1_555 1_555
C47_4 C46_4 1_555 1_555
H29_4 C47_4 1_555 1_555
C48_4 C47_4 1_555 1_555
H30_4 C48_4 1_555 1_555
C49_4 C48_4 1_555 1_555
C50_4 C49_4 1_555 1_555
H31_4 C50_4 1_555 1_555
C51_4 C46_4 1_555 1_555
C50_4 C51_4 1_555 1_555
H50_3 C77_3 1_555 1_555
C78_3 C77_3 1_555 1_555
H51_3 C78_3 1_555 1_555
C79_3 C78_3 1_555 1_555
H52_3 C79_3 1_555 1_555
O16_3 H67_3 1_555 1_555
O16_3 H68_3 1_555 1_555
C8_3 C7_3 1_555 1_555
H4_3 C8_3 1_555 1_555
C9_3 C8_3 1_555 1_555
H5_3 C9_3 1_555 1_555
C1_4 C2_4 1_555 1_555
C2_4 H1_4 1_555 1_555
C3_4 C2_4 1_555 1_555
C4_4 C3_4 1_555 1_555
C5_4 C4_4 1_555 1_555
C6_4 C1_4 1_555 1_555
H3_4 C6_4 1_555 1_555
C7_4 C5_4 1_555 1_555
C8_4 C7_4 1_555 1_555
H4_4 C8_4 1_555 1_555
C9_4 C8_4 1_555 1_555
H5_4 C9_4 1_555 1_555
C30_4 H20_4 1_555 1_555
C31_4 C1_4 1_555 1_555
C32_4 C31_4 1_555 1_555
H21_4 C32_4 1_555 1_555
C35_4 H22_4 1_555 1_555
C36_4 C35_4 1_555 1_555
C37_4 C36_4 1_555 1_555
C58_4 C36_4 1_555 1_555
C59_4 C58_4 1_555 1_555
H37_4 C59_4 1_555 1_555
C60_4 C59_4 1_555 1_555
H38_4 C60_4 1_555 1_555
C83_4 C84_4 1_555 1_555
C84_4 C30_4 1_555 1_555
H54_4 C84_4 1_555 1_555
C85_4 C83_4 1_555 1_555
C87_4 C32_4 1_555 1_555
H55_4 C87_4 1_555 1_555
C90_4 C92_4 1_555 1_555
C91_4 C85_4 1_555 1_555
H56_4 C91_4 1_555 1_555
C92_4 C91_4 1_555 1_555
C93_4 C85_4 1_555 1_555
H58_4 C93_4 1_555 1_555
C94_4 C90_4 1_555 1_555
H59_4 C94_4 1_555 1_555
O13_4 C97_4 1_555 1_555
C97_4 C90_4 1_555 1_555
C5_4 C6_4 1_555 1_555
C30_4 C31_4 1_555 1_555
C83_4 C87_4 1_555 1_555
C93_4 C94_4 1_555 1_555
O16_4 H67_4 1_555 1_555
O16_4 H68_4 1_555 1_555
H50_4 C77_4 1_555 1_555
C78_4 C77_4 1_555 1_555
H51_4 C78_4 1_555 1_555
C79_4 C78_4 1_555 1_555
H52_4 C79_4 1_555 1_555

#END
