
###############################################################################
#
# This file contains modified crystal structure data generated from the
# MOF subset of the Cambridge Structural Database (CSD) v543 
# hosted by the Cambridge Crystallographic Data Centre (CCDC).
#
# This work is licensed under the Creative Commons
# Attribution-NonCommercial-ShareAlike 4.0 International License.
# To view a copy of this license, visit
# http://creativecommons.org/licenses/by-nc-sa/4.0/
# or send a letter to
# Creative Commons, PO Box 1866, Mountain View, CA 94042, USA.
#
# CIF created using the CSD Python API on 29 September 2022
# The structure has been converted into the P1 space group
# The structure has a 3D framework
# The original CSD entry JENQAY is in the monoclinic crystal system
# The framework has been calculated to contain at least 10.0% void space
# The void calculation uses a probe of radius 1.32A, grid spacing 0.4
# H atom positions have been added when not included in the experimental data
#
###############################################################################

data_JENQAY
_chemical_formula_moiety         '(C688 H720 N64 O112 Zn10)n'
_symmetry_cell_setting           triclinic
_symmetry_space_group_name_H-M   'P 1'
_symmetry_Int_Tables_number      1
_space_group_name_Hall           'P 1'
loop_
_symmetry_equiv_pos_site_id
_symmetry_equiv_pos_as_xyz
1 x,y,z
_cell_length_a                   26.2351(10)
_cell_length_b                   28.6675(10)
_cell_length_c                   36.1762(13)
_cell_angle_alpha                90
_cell_angle_beta                 101.005(7)
_cell_angle_gamma                90
_cell_volume                     26707.6
loop_
_atom_site_label
_atom_site_type_symbol
_atom_site_fract_x
_atom_site_fract_y
_atom_site_fract_z
O14 O 0.0010(7) 0.3034(4) 0.4586(5)
H90 H 0.0182911 0.277755 0.47474
C1 C 0.3617(2) 0.53955(16) 0.52692(13)
H1 H 0.336625 0.559340 0.512276
C2 C 0.3599(2) 0.53359(19) 0.56441(14)
H2 H 0.334217 0.549067 0.575206
C3 C 0.3967(2) 0.50412(16) 0.58658(12)
C4 C 0.4330(2) 0.48293(15) 0.56898(12)
H3 H 0.458752 0.463151 0.582932
C5 C 0.43181(18) 0.49054(15) 0.53114(12)
H4 H 0.456628 0.475111 0.519472
C6 C 0.3958(2) 0.49658(17) 0.62669(13)
C7 C 0.3765(3) 0.5312(2) 0.64789(15)
H5 H 0.365654 0.560493 0.636753
C8 C 0.3735(3) 0.5226(2) 0.68481(15)
H6 H 0.360593 0.546348 0.698891
C9 C 0.3885(2) 0.48047(19) 0.70206(14)
C10 C 0.4086(2) 0.44615(17) 0.68078(12)
C11 C 0.4125(2) 0.45507(17) 0.64403(13)
H7 H 0.427012 0.432010 0.630278
C12 C 0.3377(2) 0.48226(19) 0.79194(13)
H8 H 0.306595 0.490626 0.800144
C13 C 0.3398(2) 0.4871(2) 0.75452(13)
H9 H 0.310729 0.499008 0.737357
C14 C 0.3844(2) 0.47440(17) 0.74190(13)
C15 C 0.4266(2) 0.45698(15) 0.76874(13)
H10 H 0.457895 0.447802 0.761289
C16 C 0.42140(19) 0.45354(15) 0.80573(12)
H11 H 0.449747 0.441780 0.823635
C17 C 0.4251(2) 0.39828(17) 0.69780(12)
C18 C 0.3937(4) 0.3314(3) 0.7303(2)
H12 H 0.431513 0.323651 0.734365
C19 C 0.3819(6) 0.3376(3) 0.7651(2)
H13 H 0.344072 0.343043 0.762386
H14 H 0.400062 0.365719 0.776909
C20 C 0.3983(6) 0.2928(3) 0.7926(2)
C21 C 0.3581(6) 0.2474(4) 0.7328(3)
C22 C 0.3654(7) 0.2906(3) 0.7118(3)
H15 H 0.330347 0.301654 0.699948
H16 H 0.383049 0.281354 0.691105
C23 C 0.4558(6) 0.2718(5) 0.7977(5)
H17 H 0.480751 0.294449 0.810851
H18 H 0.457818 0.242903 0.812361
H19 H 0.463854 0.265125 0.772843
C24 C 0.3787(7) 0.3090(4) 0.8276(3)
H20 H 0.402131 0.332802 0.840792
H21 H 0.343744 0.322151 0.820135
H22 H 0.377472 0.282339 0.844428
C25 C 0.4019(7) 0.2144(4) 0.7239(4)
H23 H 0.396917 0.209376 0.696678
H24 H 0.435877 0.228931 0.732855
H25 H 0.400379 0.184454 0.736665
C26 C 0.3057(8) 0.2213(6) 0.7216(5)
H26 H 0.299643 0.213827 0.694687
H27 H 0.306695 0.192467 0.736225
H28 H 0.277478 0.241260 0.726766
C27 C 0.3092(2) 0.47262(14) 0.40276(14)
C28 C 0.2696(2) 0.43689(17) 0.40445(14)
C29 C 0.2527(3) 0.4287(2) 0.43794(16)
H29 H 0.264170 0.448089 0.459167
C30 C 0.2193(3) 0.3923(3) 0.44036(18)
H30 H 0.208981 0.386667 0.463741
C31 C 0.2004(3) 0.3642(2) 0.41064(17)
C32 C 0.2144(3) 0.3741(2) 0.37717(18)
H31 H 0.201048 0.355587 0.355716
C33 C 0.2483(3) 0.41101(19) 0.37371(15)
H32 H 0.256411 0.418053 0.349831
C34 C 0.1642(2) 0.32405(17) 0.41333(14)
C35 C 0.1668(2) 0.2998(2) 0.44688(12)
C36 C 0.1336(3) 0.26235(19) 0.44861(12)
H33 H 0.135285 0.245750 0.471540
C37 C 0.0979(2) 0.24925(16) 0.41678(14)
C38 C 0.0954(3) 0.2735(2) 0.38323(13)
H34 H 0.070954 0.264593 0.361482
C39 C 0.1285(3) 0.3109(2) 0.38151(12)
H35 H 0.126822 0.327550 0.358575
C40 C 0.0629(2) 0.20811(18) 0.41837(16)
C41 C 0.0437(2) 0.18216(19) 0.38567(15)
H36 H 0.054043 0.190065 0.362677
C42 C 0.0106(2) 0.14593(16) 0.38656(13)
C44 C 0.0164(2) 0.15662(18) 0.45327(14)
H38 H 0.007608 0.147663 0.476559
C45 C 0.0490(3) 0.1941(2) 0.45176(16)
H39 H 0.062179 0.210803 0.474237
C47 C 0.2099(6) 0.3063(4) 0.4797(3)
C48 C 0.2272(5) 0.3176(4) 0.5476(3)
H40 H 0.259158 0.298206 0.548810
C49 C 0.2393(5) 0.3693(3) 0.5563(3)
H41 H 0.255612 0.382642 0.536160
H42 H 0.206285 0.386162 0.555991
C50 C 0.2750(4) 0.3779(3) 0.5940(3)
C51 C 0.2309(6) 0.3067(5) 0.6183(3)
C52 C 0.1975(5) 0.3061(5) 0.5786(3)
H43 H 0.168908 0.328857 0.577557
H44 H 0.181771 0.274788 0.573687
C53 C 0.1972(7) 0.3046(7) 0.6488(4)
H45 H 0.179451 0.274372 0.647578
H46 H 0.219275 0.308420 0.673713
H47 H 0.171313 0.329662 0.644538
C54 C 0.3306(5) 0.3645(5) 0.5889(5)
H48 H 0.331642 0.331240 0.582860
H49 H 0.339938 0.382914 0.568348
H50 H 0.355356 0.370931 0.612271
C55 C 0.2740(5) 0.4310(4) 0.6036(4)
H51 H 0.287462 0.449051 0.584559
H52 H 0.238233 0.440659 0.603909
H53 H 0.295679 0.436682 0.628436
C56 C 0.44972(18) 0.46260(12) 0.41607(12)
C57 C 0.4860(2) 0.42299(14) 0.41520(13)
C58 C 0.5131(2) 0.40301(14) 0.44885(14)
H54 H 0.506524 0.413404 0.472427
C59 C 0.5489(3) 0.36870(19) 0.44763(17)
H55 H 0.567451 0.355834 0.470492
C60 C 0.5586(3) 0.35256(19) 0.41404(19)
C61 C 0.5321(3) 0.3724(2) 0.38060(19)
H56 H 0.538890 0.361763 0.357149
C62 C 0.4962(3) 0.4072(2) 0.38133(15)
H57 H 0.478342 0.420472 0.358410
C63 C 0.59824(17) 0.31526(15) 0.41172(16)
C64 C 0.6478(2) 0.32079(16) 0.43321(17)
H58 H 0.655615 0.347337 0.448989
C65 C 0.68579(16) 0.28749(19) 0.43162(17)
C66 C 0.67429(18) 0.24865(16) 0.40853(16)
C67 C 0.6248(2) 0.24311(15) 0.38704(16)
H59 H 0.616912 0.216566 0.371258
C68 C 0.58674(16) 0.27641(17) 0.38863(15)
H60 H 0.552894 0.272630 0.373940
C69 C 0.8227(2) 0.09814(14) 0.41512(13)
C70 C 0.7838(2) 0.13685(18) 0.41391(15)
C71 C 0.7575(3) 0.1544(2) 0.38004(18)
H61 H 0.764162 0.141532 0.357239
C72 C 0.7223(3) 0.1897(3) 0.3784(2)
H62 H 0.704889 0.201185 0.354642
C73 C 0.7119(3) 0.2089(2) 0.4115(2)
C74 C 0.7346(4) 0.1891(3) 0.4460(2)
H63 H 0.724473 0.199319 0.468501
C75 C 0.7723(3) 0.1538(2) 0.44746(17)
H64 H 0.789663 0.141814 0.470986
C76 C 0.7438(9) 0.2943(9) 0.4563(6)
C77 C 0.8319(5) 0.3139(7) 0.4406(5)
H65 H 0.836695 0.347267 0.448497
C78 C 0.8599(6) 0.2812(7) 0.4679(4)
H66 H 0.860085 0.250161 0.455916
H67 H 0.841242 0.278065 0.489146
C79 C 0.8626(7) 0.2993(8) 0.4058(4)
H68 H 0.866539 0.265019 0.404502
H69 H 0.843288 0.310650 0.381281
C80 C 0.9188(6) 0.2965(6) 0.4843(4)
C81 C 0.9143(8) 0.3355(7) 0.5135(7)
H70 H 0.893381 0.324207 0.531354
H71 H 0.949026 0.343943 0.527089
H72 H 0.897585 0.363039 0.500297
C82 C 0.9478(9) 0.2566(8) 0.5105(7)
H73 H 0.932237 0.253357 0.532917
H74 H 0.944608 0.226998 0.496642
H75 H 0.984648 0.264638 0.518149
C83 C 0.9174(6) 0.3238(8) 0.4162(4)
C84 C 0.9225(13) 0.3771(8) 0.4229(9)
H76 H 0.904795 0.393602 0.400305
H77 H 0.906639 0.385713 0.444334
H78 H 0.959316 0.385794 0.428158
C85 C 0.9535(8) 0.3012(7) 0.3906(6)
H79 H 0.943258 0.312818 0.364804
H80 H 0.989754 0.309753 0.400490
H81 H 0.949924 0.267227 0.390810
N1 N 0.39684(15) 0.51900(11) 0.51001(9)
N2 N 0.37810(15) 0.46609(11) 0.81753(10)
N3 N 0.3861(2) 0.37364(17) 0.70687(12)
H82 H 0.354094 0.383185 0.698352
N4 N 0.3628(4) 0.2565(2) 0.77246(19)
N5 N 0.1910(4) 0.3126(4) 0.5126(3)
H83 H 0.157295 0.313594 0.512053
N6 N 0.2543(5) 0.3530(4) 0.6238(3)
N7 N 0.7745(6) 0.3000(6) 0.4266(4)
H84 H 0.761184 0.295895 0.402598
N8 N 0.9459(6) 0.2972(7) 0.4525(4)
O1 O 0.47040(17) 0.38614(12) 0.70261(10)
O2 O 0.3571(3) 0.2212(2) 0.79374(19)
O3 O 0.2588(4) 0.3014(3) 0.4795(3)
O4 O 0.2774(5) 0.3616(4) 0.6592(3)
O5 O 0.33348(13) 0.48872(10) 0.43368(9)
O6 O 0.31722(15) 0.48550(12) 0.37083(9)
O9 O 0.42686(15) 0.47854(11) 0.38524(9)
O10 O 0.44376(13) 0.47710(9) 0.44805(8)
O11 O 0.82942(15) 0.08276(11) 0.38410(9)
O12 O 0.84551(14) 0.08437(10) 0.44708(9)
O13 O 0.7528(6) 0.3385(5) 0.4684(4)
Zn1 Zn 0.39577(2) 0.53012(2) 0.45508(2)
Zn2 Zn 0.37623(2) 0.53168(2) 0.37311(2)
C86 C 0.2733(6) 0.2668(6) 0.6298(5)
H85 H 0.256580 0.236203 0.625908
H86 H 0.299870 0.269453 0.614209
H87 H 0.289564 0.270379 0.656401
N9 N 0.37810(15) 0.53391(11) 0.31753(10)
O15 O 0.45310(13) 0.57716(10) 0.45236(8)
O16 O 0.43756(14) 0.57609(11) 0.38946(9)
O17 O 0.32942(15) 0.58276(11) 0.38410(9)
O18 O 0.34551(14) 0.58437(10) 0.44708(9)
Zn4 Zn 0.89577(2) 0.03012(2) 0.45508(2)
Zn6 Zn 0.87623(2) 0.03168(2) 0.37311(2)
Zn7 Zn 0.37623(2) 0.46832(2) 0.87311(2)
H88 H 0.342366 0.232071 0.815559
H89 H 0.274467 0.395336 0.664657
H37 H 0.996838 0.129820 0.363904
C43 C 0.99628(19) 0.13183(14) 0.42033(13)
C46 C 0.95938(17) 0.09188(13) 0.42113(12)
O7 O 0.95310(13) 0.07716(10) 0.45236(8)
O8 O 0.93756(14) 0.07609(11) 0.38946(9)
C58_2 C 0.0131(2) 0.90301(14) 0.44885(14)
H54_2 H 0.006524 0.913404 0.472427
C59_2 C 0.0489(3) 0.86870(19) 0.44763(17)
H55_2 H 0.067451 0.855834 0.470492
C60_2 C 0.0586(3) 0.85256(19) 0.41404(19)
C61_2 C 0.0321(3) 0.8724(2) 0.38060(19)
H56_2 H 0.038890 0.861763 0.357149
C63_2 C 0.09824(17) 0.81526(15) 0.41172(16)
C64_2 C 0.1478(2) 0.82079(16) 0.43321(17)
H58_2 H 0.155615 0.847337 0.448989
C65_2 C 0.18579(16) 0.78749(19) 0.43162(17)
C66_2 C 0.17429(18) 0.74865(16) 0.40853(16)
C67_2 C 0.1248(2) 0.74311(15) 0.38704(16)
H59_2 H 0.116912 0.716566 0.371258
C68_2 C 0.08674(16) 0.77641(17) 0.38863(15)
H60_2 H 0.052894 0.772630 0.373940
C69_2 C 0.3227(2) 0.59814(14) 0.41512(13)
C70_2 C 0.2838(2) 0.63685(18) 0.41391(15)
C71_2 C 0.2575(3) 0.6544(2) 0.38004(18)
H61_2 H 0.264162 0.641532 0.357239
C72_2 C 0.2223(3) 0.6897(3) 0.3784(2)
H62_2 H 0.204889 0.701185 0.354642
C73_2 C 0.2119(3) 0.7089(2) 0.4115(2)
C74_2 C 0.2346(4) 0.6891(3) 0.4460(2)
H63_2 H 0.224473 0.699319 0.468501
C75_2 C 0.2723(3) 0.6538(2) 0.44746(17)
H64_2 H 0.289663 0.641814 0.470986
C76_2 C 0.2438(9) 0.7943(9) 0.4563(6)
C77_2 C 0.3319(5) 0.8139(7) 0.4406(5)
H65_2 H 0.336695 0.847267 0.448497
C78_2 C 0.3599(6) 0.7812(7) 0.4679(4)
H66_2 H 0.360085 0.750161 0.455916
H67_2 H 0.341242 0.778065 0.489146
C79_2 C 0.3626(7) 0.7993(8) 0.4058(4)
H68_2 H 0.366539 0.765019 0.404502
H69_2 H 0.343288 0.810650 0.381281
C80_2 C 0.4188(6) 0.7965(6) 0.4843(4)
C81_2 C 0.4143(8) 0.8355(7) 0.5135(7)
H70_2 H 0.393381 0.824207 0.531354
H71_2 H 0.449026 0.843943 0.527089
H72_2 H 0.397585 0.863039 0.500297
C82_2 C 0.4478(9) 0.7566(8) 0.5105(7)
H73_2 H 0.432237 0.753357 0.532917
H74_2 H 0.444608 0.726998 0.496642
H75_2 H 0.484648 0.764638 0.518149
C83_2 C 0.4174(6) 0.8238(8) 0.4162(4)
C84_2 C 0.4225(13) 0.8771(8) 0.4229(9)
H76_2 H 0.404795 0.893602 0.400305
H77_2 H 0.406639 0.885713 0.444334
H78_2 H 0.459316 0.885794 0.428158
C85_2 C 0.4535(8) 0.8012(7) 0.3906(6)
H79_2 H 0.443258 0.812818 0.364804
H80_2 H 0.489754 0.809753 0.400490
H81_2 H 0.449924 0.767227 0.390810
N7_2 N 0.2745(6) 0.8000(6) 0.4266(4)
H84_2 H 0.261184 0.795895 0.402598
N8_2 N 0.4459(6) 0.7972(7) 0.4525(4)
O13_2 O 0.2528(6) 0.8385(5) 0.4684(4)
O14_2 O 0.5010(7) 0.8034(4) 0.4586(5)
H90_2 H 0.518291 0.777755 0.47474
C1_2 C 0.8617(2) 0.03955(16) 0.52692(13)
H1_2 H 0.836625 0.059340 0.512276
C2_2 C 0.8599(2) 0.03359(19) 0.56441(14)
H2_2 H 0.834217 0.049067 0.575206
C3_2 C 0.8967(2) 0.00412(16) 0.58658(12)
C7_2 C 0.8765(3) 0.0312(2) 0.64789(15)
H5_2 H 0.865654 0.060493 0.636753
C8_2 C 0.8735(3) 0.0226(2) 0.68481(15)
H6_2 H 0.860593 0.046348 0.698891
N1_2 N 0.89684(15) 0.01900(11) 0.51001(9)
N9_2 N 0.87810(15) 0.03391(11) 0.31753(10)
C4_2 C 0.9330(2) 0.98293(15) 0.56898(12)
H3_2 H 0.958752 0.963151 0.582932
C5_2 C 0.93181(18) 0.99054(15) 0.53114(12)
H4_2 H 0.956628 0.975111 0.519472
C6_2 C 0.8958(2) 0.99658(17) 0.62669(13)
C9_2 C 0.8885(2) 0.98047(19) 0.70206(14)
C10_2 C 0.9086(2) 0.94615(17) 0.68078(12)
C11_2 C 0.9125(2) 0.95507(17) 0.64403(13)
H7_2 H 0.927012 0.932010 0.630278
C12_2 C 0.8377(2) 0.98226(19) 0.79194(13)
H8_2 H 0.806595 0.990626 0.800144
C13_2 C 0.8398(2) 0.9871(2) 0.75452(13)
H9_2 H 0.810729 0.999008 0.737357
C14_2 C 0.8844(2) 0.97440(17) 0.74190(13)
C15_2 C 0.9266(2) 0.95698(15) 0.76874(13)
H10_2 H 0.957895 0.947802 0.761289
C16_2 C 0.92140(19) 0.95354(15) 0.80573(12)
H11_2 H 0.949747 0.941780 0.823635
C17_2 C 0.9251(2) 0.89828(17) 0.69780(12)
C18_2 C 0.8937(4) 0.8314(3) 0.7303(2)
H12_2 H 0.931513 0.823651 0.734365
C19_2 C 0.8819(6) 0.8376(3) 0.7651(2)
H13_2 H 0.844072 0.843043 0.762386
H14_2 H 0.900062 0.865719 0.776909
C20_2 C 0.8983(6) 0.7928(3) 0.7926(2)
C21_2 C 0.8581(6) 0.7474(4) 0.7328(3)
C22_2 C 0.8654(7) 0.7906(3) 0.7118(3)
H15_2 H 0.830347 0.801654 0.699948
H16_2 H 0.883049 0.781354 0.691105
C23_2 C 0.9558(6) 0.7718(5) 0.7977(5)
H17_2 H 0.980751 0.794449 0.810851
H18_2 H 0.957818 0.742903 0.812361
H19_2 H 0.963854 0.765125 0.772843
C24_2 C 0.8787(7) 0.8090(4) 0.8276(3)
H20_2 H 0.902131 0.832802 0.840792
H21_2 H 0.843744 0.822151 0.820135
H22_2 H 0.877472 0.782339 0.844428
C25_2 C 0.9019(7) 0.7144(4) 0.7239(4)
H23_2 H 0.896917 0.709376 0.696678
H24_2 H 0.935877 0.728931 0.732855
H25_2 H 0.900379 0.684454 0.736665
C26_2 C 0.8057(8) 0.7213(6) 0.7216(5)
H26_2 H 0.799643 0.713827 0.694687
H27_2 H 0.806695 0.692467 0.736225
H28_2 H 0.777478 0.741260 0.726766
C27_2 C 0.8092(2) 0.97262(14) 0.40276(14)
C28_2 C 0.7696(2) 0.93689(17) 0.40445(14)
C29_2 C 0.7527(3) 0.9287(2) 0.43794(16)
H29_2 H 0.764170 0.948089 0.459167
C30_2 C 0.7193(3) 0.8923(3) 0.44036(18)
H30_2 H 0.708981 0.886667 0.463741
C31_2 C 0.7004(3) 0.8642(2) 0.41064(17)
C32_2 C 0.7144(3) 0.8741(2) 0.37717(18)
H31_2 H 0.701048 0.855587 0.355716
C33_2 C 0.7483(3) 0.91101(19) 0.37371(15)
H32_2 H 0.756411 0.918053 0.349831
C34_2 C 0.6642(2) 0.82405(17) 0.41333(14)
C35_2 C 0.6668(2) 0.7998(2) 0.44688(12)
C36_2 C 0.6336(3) 0.76235(19) 0.44861(12)
H33_2 H 0.635285 0.745750 0.471540
C37_2 C 0.5979(2) 0.74925(16) 0.41678(14)
C38_2 C 0.5954(3) 0.7735(2) 0.38323(13)
H34_2 H 0.570954 0.764593 0.361482
C39_2 C 0.6285(3) 0.8109(2) 0.38151(12)
H35_2 H 0.626822 0.827550 0.358575
C40_2 C 0.5629(2) 0.70811(18) 0.41837(16)
C41_2 C 0.5437(2) 0.68216(19) 0.38567(15)
H36_2 H 0.554043 0.690065 0.362677
C42_2 C 0.5106(2) 0.64593(16) 0.38656(13)
H37_2 H 0.496838 0.629820 0.363904
C43_2 C 0.49628(19) 0.63183(14) 0.42033(13)
C44_2 C 0.5164(2) 0.65662(18) 0.45327(14)
H38_2 H 0.507608 0.647663 0.476559
C45_2 C 0.5490(3) 0.6941(2) 0.45176(16)
H39_2 H 0.562179 0.710803 0.474237
C46_2 C 0.45938(17) 0.59188(13) 0.42113(12)
C47_2 C 0.7099(6) 0.8063(4) 0.4797(3)
C48_2 C 0.7272(5) 0.8176(4) 0.5476(3)
H40_2 H 0.759158 0.798206 0.548810
C49_2 C 0.7393(5) 0.8693(3) 0.5563(3)
H41_2 H 0.755612 0.882642 0.536160
H42_2 H 0.706285 0.886162 0.555991
C50_2 C 0.7750(4) 0.8779(3) 0.5940(3)
C51_2 C 0.7309(6) 0.8067(5) 0.6183(3)
C52_2 C 0.6975(5) 0.8061(5) 0.5786(3)
H43_2 H 0.668908 0.828857 0.577557
H44_2 H 0.681771 0.774788 0.573687
C53_2 C 0.6972(7) 0.8046(7) 0.6488(4)
H45_2 H 0.679451 0.774372 0.647578
H46_2 H 0.719275 0.808420 0.673713
H47_2 H 0.671313 0.829662 0.644538
C54_2 C 0.8306(5) 0.8645(5) 0.5889(5)
H48_2 H 0.831642 0.831240 0.582860
H49_2 H 0.839938 0.882914 0.568348
H50_2 H 0.855356 0.870931 0.612271
C55_2 C 0.7740(5) 0.9310(4) 0.6036(4)
H51_2 H 0.787462 0.949051 0.584559
H52_2 H 0.738233 0.940659 0.603909
H53_2 H 0.795679 0.936682 0.628436
C56_2 C 0.94972(18) 0.96260(12) 0.41607(12)
C57_2 C 0.9860(2) 0.92299(14) 0.41520(13)
C62_2 C 0.9962(3) 0.9072(2) 0.38133(15)
H57_2 H 0.978342 0.920472 0.358410
N2_2 N 0.87810(15) 0.96609(11) 0.81753(10)
N3_2 N 0.8861(2) 0.87364(17) 0.70687(12)
H82_2 H 0.854094 0.883185 0.698352
N4_2 N 0.8628(4) 0.7565(2) 0.77246(19)
N5_2 N 0.6910(4) 0.8126(4) 0.5126(3)
H83_2 H 0.657295 0.813594 0.512053
N6_2 N 0.7543(5) 0.8530(4) 0.6238(3)
O1_2 O 0.97040(17) 0.88614(12) 0.70261(10)
O2_2 O 0.8571(3) 0.7212(2) 0.79374(19)
O3_2 O 0.7588(4) 0.8014(3) 0.4795(3)
O4_2 O 0.7774(5) 0.8616(4) 0.6592(3)
O5_2 O 0.83348(13) 0.98872(10) 0.43368(9)
O6_2 O 0.81722(15) 0.98550(12) 0.37083(9)
O9_2 O 0.92686(15) 0.97854(11) 0.38524(9)
O10_2 O 0.94376(13) 0.97710(9) 0.44805(8)
C86_2 C 0.7733(6) 0.7668(6) 0.6298(5)
H85_2 H 0.756580 0.736203 0.625908
H86_2 H 0.799870 0.769453 0.614209
H87_2 H 0.789564 0.770379 0.656401
Zn7_2 Zn 0.87623(2) 0.96832(2) 0.87311(2)
H88_2 H 0.842366 0.732071 0.815559
H89_2 H 0.774467 0.895336 0.664657
C1_3 C 0.3617(2) 0.46045(16) 0.02692(13)
H1_3 H 0.336625 0.440660 0.012276
C2_3 C 0.3599(2) 0.46641(19) 0.06441(14)
H2_3 H 0.334217 0.450933 0.075206
C3_3 C 0.3967(2) 0.49588(16) 0.08658(12)
C4_3 C 0.4330(2) 0.51707(15) 0.06898(12)
H3_3 H 0.458752 0.536849 0.082932
C5_3 C 0.43181(18) 0.50946(15) 0.03114(12)
H4_3 H 0.456628 0.524889 0.019472
C6_3 C 0.3958(2) 0.50342(17) 0.12669(13)
C7_3 C 0.3765(3) 0.4688(2) 0.14789(15)
H5_3 H 0.365654 0.439507 0.136753
C8_3 C 0.3735(3) 0.4774(2) 0.18481(15)
H6_3 H 0.360593 0.453652 0.198891
C9_3 C 0.3885(2) 0.51953(19) 0.20206(14)
C10_3 C 0.4086(2) 0.55385(17) 0.18078(12)
C11_3 C 0.4125(2) 0.54493(17) 0.14403(13)
H7_3 H 0.427012 0.567990 0.130278
C12_3 C 0.3377(2) 0.51774(19) 0.29194(13)
H8_3 H 0.306595 0.509374 0.300144
C13_3 C 0.3398(2) 0.5129(2) 0.25452(13)
H9_3 H 0.310729 0.500992 0.237357
C14_3 C 0.3844(2) 0.52560(17) 0.24190(13)
C15_3 C 0.4266(2) 0.54302(15) 0.26874(13)
H10_3 H 0.457895 0.552198 0.261289
C16_3 C 0.42140(19) 0.54646(15) 0.30573(12)
H11_3 H 0.449747 0.558220 0.323635
C17_3 C 0.4251(2) 0.60172(17) 0.19780(12)
C18_3 C 0.3937(4) 0.6686(3) 0.2303(2)
H12_3 H 0.431513 0.676349 0.234365
C19_3 C 0.3819(6) 0.6624(3) 0.2651(2)
H13_3 H 0.344072 0.656957 0.262386
H14_3 H 0.400062 0.634281 0.276909
C20_3 C 0.3983(6) 0.7072(3) 0.2926(2)
C21_3 C 0.3581(6) 0.7526(4) 0.2328(3)
C22_3 C 0.3654(7) 0.7094(3) 0.2118(3)
H15_3 H 0.330347 0.698346 0.199948
H16_3 H 0.383049 0.718646 0.191105
C23_3 C 0.4558(6) 0.7282(5) 0.2977(5)
H17_3 H 0.480751 0.705551 0.310851
H18_3 H 0.457818 0.757097 0.312361
H19_3 H 0.463854 0.734875 0.272843
C24_3 C 0.3787(7) 0.6910(4) 0.3276(3)
H20_3 H 0.402131 0.667198 0.340792
H21_3 H 0.343744 0.677849 0.320135
H22_3 H 0.377472 0.717661 0.344428
C25_3 C 0.4019(7) 0.7856(4) 0.2239(4)
H23_3 H 0.396917 0.790624 0.196678
H24_3 H 0.435877 0.771069 0.232855
H25_3 H 0.400379 0.815546 0.236665
C26_3 C 0.3057(8) 0.7787(6) 0.2216(5)
H26_3 H 0.299643 0.786173 0.194687
H27_3 H 0.306695 0.807533 0.236225
H28_3 H 0.277478 0.758740 0.226766
C48_3 C 0.2272(5) 0.6824(4) 0.0476(3)
H40_3 H 0.259158 0.701794 0.048810
C49_3 C 0.2393(5) 0.6307(3) 0.0563(3)
H41_3 H 0.255612 0.617358 0.036160
H42_3 H 0.206285 0.613838 0.055991
C50_3 C 0.2750(4) 0.6221(3) 0.0940(3)
C51_3 C 0.2309(6) 0.6933(5) 0.1183(3)
C52_3 C 0.1975(5) 0.6939(5) 0.0786(3)
H43_3 H 0.168908 0.671143 0.077557
H44_3 H 0.181771 0.725212 0.073687
C53_3 C 0.1972(7) 0.6954(7) 0.1488(4)
H45_3 H 0.179451 0.725628 0.147578
H46_3 H 0.219275 0.691580 0.173713
H47_3 H 0.171313 0.670338 0.144538
C54_3 C 0.3306(5) 0.6355(5) 0.0889(5)
H48_3 H 0.331642 0.668760 0.082860
H49_3 H 0.339938 0.617086 0.068348
H50_3 H 0.355356 0.629069 0.112271
C55_3 C 0.2740(5) 0.5690(4) 0.1036(4)
H51_3 H 0.287462 0.550949 0.084559
H52_3 H 0.238233 0.559341 0.103909
H53_3 H 0.295679 0.563318 0.128436
C81_3 C 0.9143(8) 0.6645(7) 0.0135(7)
H70_3 H 0.893381 0.675793 0.031354
H71_3 H 0.949026 0.656057 0.027089
H72_3 H 0.897585 0.636961 0.000297
C82_3 C 0.9478(9) 0.7434(8) 0.0105(7)
H73_3 H 0.932237 0.746643 0.032917
H75_3 H 0.984648 0.735362 0.018149
N1_3 N 0.39684(15) 0.48100(11) 0.01001(9)
N3_3 N 0.3861(2) 0.62636(17) 0.20687(12)
H82_3 H 0.354094 0.616815 0.198352
N4_3 N 0.3628(4) 0.7435(2) 0.27246(19)
N5_3 N 0.1910(4) 0.6874(4) 0.0126(3)
H83_3 H 0.157295 0.686406 0.012053
N6_3 N 0.2543(5) 0.6470(4) 0.1238(3)
O1_3 O 0.47040(17) 0.61386(12) 0.20261(10)
O2_3 O 0.3571(3) 0.7788(2) 0.29374(19)
O4_3 O 0.2774(5) 0.6384(4) 0.1592(3)
C86_3 C 0.2733(6) 0.7332(6) 0.1298(5)
H85_3 H 0.256580 0.763797 0.125908
H86_3 H 0.299870 0.730547 0.114209
H87_3 H 0.289564 0.729621 0.156401
H88_3 H 0.342366 0.767929 0.315559
H89_3 H 0.274467 0.604664 0.164657
C27_3 C 0.3092(2) 0.52738(14) 0.90276(14)
C28_3 C 0.2696(2) 0.56311(17) 0.90445(14)
C29_3 C 0.2527(3) 0.5713(2) 0.93794(16)
H29_3 H 0.264170 0.551911 0.959167
C30_3 C 0.2193(3) 0.6077(3) 0.94036(18)
H30_3 H 0.208981 0.613333 0.963741
C31_3 C 0.2004(3) 0.6358(2) 0.91064(17)
C32_3 C 0.2144(3) 0.6259(2) 0.87717(18)
H31_3 H 0.201048 0.644413 0.855716
C33_3 C 0.2483(3) 0.58899(19) 0.87371(15)
H32_3 H 0.256411 0.581947 0.849831
C34_3 C 0.1642(2) 0.67595(17) 0.91333(14)
C35_3 C 0.1668(2) 0.7002(2) 0.94688(12)
C36_3 C 0.1336(3) 0.73765(19) 0.94861(12)
H33_3 H 0.135285 0.754250 0.971540
C37_3 C 0.0979(2) 0.75075(16) 0.91678(14)
C38_3 C 0.0954(3) 0.7265(2) 0.88323(13)
H34_3 H 0.070954 0.735407 0.861482
C39_3 C 0.1285(3) 0.6891(2) 0.88151(12)
H35_3 H 0.126822 0.672450 0.858575
C40_3 C 0.0629(2) 0.79189(18) 0.91837(16)
C41_3 C 0.0437(2) 0.81784(19) 0.88567(15)
H36_3 H 0.054043 0.809935 0.862677
C42_3 C 0.0106(2) 0.85407(16) 0.88656(13)
C44_3 C 0.0164(2) 0.84338(18) 0.95327(14)
H38_3 H 0.007608 0.852337 0.976559
C45_3 C 0.0490(3) 0.8059(2) 0.95176(16)
H39_3 H 0.062179 0.789197 0.974237
C47_3 C 0.2099(6) 0.6937(4) 0.9797(3)
C56_3 C 0.44972(18) 0.53740(12) 0.91607(12)
C57_3 C 0.4860(2) 0.57701(14) 0.91520(13)
C58_3 C 0.5131(2) 0.59699(14) 0.94885(14)
H54_3 H 0.506524 0.586596 0.972427
C59_3 C 0.5489(3) 0.63130(19) 0.94763(17)
H55_3 H 0.567451 0.644166 0.970492
C60_3 C 0.5586(3) 0.64744(19) 0.91404(19)
C61_3 C 0.5321(3) 0.6276(2) 0.88060(19)
H56_3 H 0.538890 0.638237 0.857149
C62_3 C 0.4962(3) 0.5928(2) 0.88133(15)
H57_3 H 0.478342 0.579528 0.858410
C63_3 C 0.59824(17) 0.68474(15) 0.91172(16)
C64_3 C 0.6478(2) 0.67921(16) 0.93321(17)
H58_3 H 0.655615 0.652663 0.948989
C65_3 C 0.68579(16) 0.71251(19) 0.93162(17)
C66_3 C 0.67429(18) 0.75135(16) 0.90853(16)
C67_3 C 0.6248(2) 0.75689(15) 0.88704(16)
H59_3 H 0.616912 0.783434 0.871258
C68_3 C 0.58674(16) 0.72359(17) 0.88863(15)
H60_3 H 0.552894 0.727370 0.873940
C69_3 C 0.8227(2) 0.90186(14) 0.91512(13)
C70_3 C 0.7838(2) 0.86315(18) 0.91391(15)
C71_3 C 0.7575(3) 0.8456(2) 0.88004(18)
H61_3 H 0.764162 0.858468 0.857239
C72_3 C 0.7223(3) 0.8103(3) 0.8784(2)
H62_3 H 0.704889 0.798815 0.854642
C73_3 C 0.7119(3) 0.7911(2) 0.9115(2)
C74_3 C 0.7346(4) 0.8109(3) 0.9460(2)
H63_3 H 0.724473 0.800681 0.968501
C75_3 C 0.7723(3) 0.8462(2) 0.94746(17)
H64_3 H 0.789663 0.858186 0.970986
C76_3 C 0.7438(9) 0.7057(9) 0.9563(6)
C77_3 C 0.8319(5) 0.6861(7) 0.9406(5)
H65_3 H 0.836695 0.652733 0.948497
C78_3 C 0.8599(6) 0.7188(7) 0.9679(4)
H66_3 H 0.860085 0.749839 0.955916
H67_3 H 0.841242 0.721935 0.989146
C79_3 C 0.8626(7) 0.7007(8) 0.9058(4)
H68_3 H 0.866539 0.734981 0.904502
H69_3 H 0.843288 0.689350 0.881281
C80_3 C 0.9188(6) 0.7035(6) 0.9843(4)
H74_3 H 0.944608 0.773002 0.996642
C83_3 C 0.9174(6) 0.6762(8) 0.9162(4)
C84_3 C 0.9225(13) 0.6229(8) 0.9229(9)
H76_3 H 0.904795 0.606398 0.900305
H77_3 H 0.906639 0.614287 0.944334
H78_3 H 0.959316 0.614206 0.928158
C85_3 C 0.9535(8) 0.6988(7) 0.8906(6)
H79_3 H 0.943258 0.687182 0.864804
H80_3 H 0.989754 0.690247 0.900490
H81_3 H 0.949924 0.732773 0.890810
N7_3 N 0.7745(6) 0.7000(6) 0.9266(4)
H84_3 H 0.761184 0.704105 0.902598
N8_3 N 0.9459(6) 0.7028(7) 0.9525(4)
O3_3 O 0.2588(4) 0.6986(3) 0.9795(3)
O5_3 O 0.33348(13) 0.51128(10) 0.93368(9)
O6_3 O 0.31722(15) 0.51450(12) 0.87083(9)
O9_3 O 0.42686(15) 0.52146(11) 0.88524(9)
O10_3 O 0.44376(13) 0.52290(9) 0.94805(8)
O11_2 O 0.82942(15) 0.91724(11) 0.88410(9)
O12_2 O 0.84551(14) 0.91563(10) 0.94708(9)
O13_3 O 0.7528(6) 0.6615(5) 0.9684(4)
Zn1_2 Zn 0.39577(2) 0.46988(2) 0.95508(2)
O15_2 O 0.45310(13) 0.42284(10) 0.95236(8)
O16_2 O 0.43756(14) 0.42391(11) 0.88946(9)
O17_2 O 0.32942(15) 0.41724(11) 0.88410(9)
O18_2 O 0.34551(14) 0.41563(10) 0.94708(9)
Zn4_2 Zn 0.89577(2) 0.96988(2) 0.95508(2)
H37_3 H 0.996838 0.870180 0.863904
C43_3 C 0.99628(19) 0.86817(14) 0.92033(13)
C46_3 C 0.95938(17) 0.90812(13) 0.92113(12)
O7_2 O 0.95310(13) 0.92284(10) 0.95236(8)
O8_2 O 0.93756(14) 0.92391(11) 0.88946(9)
C58_4 C 0.0131(2) 0.09699(14) 0.94885(14)
H54_4 H 0.006524 0.086596 0.972427
C59_4 C 0.0489(3) 0.13130(19) 0.94763(17)
H55_4 H 0.067451 0.144166 0.970492
C60_4 C 0.0586(3) 0.14744(19) 0.91404(19)
C61_4 C 0.0321(3) 0.1276(2) 0.88060(19)
H56_4 H 0.038890 0.138237 0.857149
C63_4 C 0.09824(17) 0.18474(15) 0.91172(16)
C64_4 C 0.1478(2) 0.17921(16) 0.93321(17)
H58_4 H 0.155615 0.152663 0.948989
C65_4 C 0.18579(16) 0.21251(19) 0.93162(17)
C66_4 C 0.17429(18) 0.25135(16) 0.90853(16)
C67_4 C 0.1248(2) 0.25689(15) 0.88704(16)
H59_4 H 0.116912 0.283434 0.871258
C68_4 C 0.08674(16) 0.22359(17) 0.88863(15)
H60_4 H 0.052894 0.227370 0.873940
C69_4 C 0.3227(2) 0.40186(14) 0.91512(13)
C70_4 C 0.2838(2) 0.36315(18) 0.91391(15)
C71_4 C 0.2575(3) 0.3456(2) 0.88004(18)
H61_4 H 0.264162 0.358468 0.857239
C72_4 C 0.2223(3) 0.3103(3) 0.8784(2)
H62_4 H 0.204889 0.298815 0.854642
C73_4 C 0.2119(3) 0.2911(2) 0.9115(2)
C74_4 C 0.2346(4) 0.3109(3) 0.9460(2)
H63_4 H 0.224473 0.300681 0.968501
C75_4 C 0.2723(3) 0.3462(2) 0.94746(17)
H64_4 H 0.289663 0.358186 0.970986
C76_4 C 0.2438(9) 0.2057(9) 0.9563(6)
C77_4 C 0.3319(5) 0.1861(7) 0.9406(5)
H65_4 H 0.336695 0.152733 0.948497
C78_4 C 0.3599(6) 0.2188(7) 0.9679(4)
H66_4 H 0.360085 0.249839 0.955916
H67_4 H 0.341242 0.221935 0.989146
C79_4 C 0.3626(7) 0.2007(8) 0.9058(4)
H68_4 H 0.366539 0.234981 0.904502
H69_4 H 0.343288 0.189350 0.881281
C80_4 C 0.4188(6) 0.2035(6) 0.9843(4)
H74_4 H 0.444608 0.273002 0.996642
C83_4 C 0.4174(6) 0.1762(8) 0.9162(4)
C84_4 C 0.4225(13) 0.1229(8) 0.9229(9)
H76_4 H 0.404795 0.106398 0.900305
H77_4 H 0.406639 0.114287 0.944334
H78_4 H 0.459316 0.114206 0.928158
C85_4 C 0.4535(8) 0.1988(7) 0.8906(6)
H79_4 H 0.443258 0.187182 0.864804
H80_4 H 0.489754 0.190247 0.900490
H81_4 H 0.449924 0.232773 0.890810
N7_4 N 0.2745(6) 0.2000(6) 0.9266(4)
H84_4 H 0.261184 0.204105 0.902598
N8_4 N 0.4459(6) 0.2028(7) 0.9525(4)
O13_4 O 0.2528(6) 0.1615(5) 0.9684(4)
O14_3 O 0.5010(7) 0.1966(4) 0.9586(5)
H90_3 H 0.518291 0.222245 0.97474
C4_4 C 0.9330(2) 0.01707(15) 0.06898(12)
H3_4 H 0.958752 0.036849 0.082932
C5_4 C 0.93181(18) 0.00946(15) 0.03114(12)
H4_4 H 0.956628 0.024889 0.019472
C6_4 C 0.8958(2) 0.00342(17) 0.12669(13)
C9_4 C 0.8885(2) 0.01953(19) 0.20206(14)
C10_4 C 0.9086(2) 0.05385(17) 0.18078(12)
C11_4 C 0.9125(2) 0.04493(17) 0.14403(13)
H7_4 H 0.927012 0.067990 0.130278
C12_4 C 0.8377(2) 0.01774(19) 0.29194(13)
H8_4 H 0.806595 0.009374 0.300144
C13_4 C 0.8398(2) 0.0129(2) 0.25452(13)
H9_4 H 0.810729 0.000992 0.237357
C14_4 C 0.8844(2) 0.02560(17) 0.24190(13)
C15_4 C 0.9266(2) 0.04302(15) 0.26874(13)
H10_4 H 0.957895 0.052198 0.261289
C16_4 C 0.92140(19) 0.04646(15) 0.30573(12)
H11_4 H 0.949747 0.058220 0.323635
C17_4 C 0.9251(2) 0.10172(17) 0.19780(12)
C18_4 C 0.8937(4) 0.1686(3) 0.2303(2)
H12_4 H 0.931513 0.176349 0.234365
C19_4 C 0.8819(6) 0.1624(3) 0.2651(2)
H13_4 H 0.844072 0.156957 0.262386
H14_4 H 0.900062 0.134281 0.276909
C20_4 C 0.8983(6) 0.2072(3) 0.2926(2)
C21_4 C 0.8581(6) 0.2526(4) 0.2328(3)
C22_4 C 0.8654(7) 0.2094(3) 0.2118(3)
H15_4 H 0.830347 0.198346 0.199948
H16_4 H 0.883049 0.218646 0.191105
C23_4 C 0.9558(6) 0.2282(5) 0.2977(5)
H17_4 H 0.980751 0.205551 0.310851
H18_4 H 0.957818 0.257097 0.312361
H19_4 H 0.963854 0.234875 0.272843
C24_4 C 0.8787(7) 0.1910(4) 0.3276(3)
H20_4 H 0.902131 0.167198 0.340792
H21_4 H 0.843744 0.177849 0.320135
H22_4 H 0.877472 0.217661 0.344428
C25_4 C 0.9019(7) 0.2856(4) 0.2239(4)
H23_4 H 0.896917 0.290624 0.196678
H24_4 H 0.935877 0.271069 0.232855
H25_4 H 0.900379 0.315546 0.236665
C26_4 C 0.8057(8) 0.2787(6) 0.2216(5)
H26_4 H 0.799643 0.286173 0.194687
H27_4 H 0.806695 0.307533 0.236225
H28_4 H 0.777478 0.258740 0.226766
C48_4 C 0.7272(5) 0.1824(4) 0.0476(3)
H40_4 H 0.759158 0.201794 0.048810
C49_4 C 0.7393(5) 0.1307(3) 0.0563(3)
H41_4 H 0.755612 0.117358 0.036160
H42_4 H 0.706285 0.113838 0.055991
C50_4 C 0.7750(4) 0.1221(3) 0.0940(3)
C51_4 C 0.7309(6) 0.1933(5) 0.1183(3)
C52_4 C 0.6975(5) 0.1939(5) 0.0786(3)
H43_4 H 0.668908 0.171143 0.077557
H44_4 H 0.681771 0.225212 0.073687
C53_4 C 0.6972(7) 0.1954(7) 0.1488(4)
H45_4 H 0.679451 0.225628 0.147578
H46_4 H 0.719275 0.191580 0.173713
H47_4 H 0.671313 0.170338 0.144538
C54_4 C 0.8306(5) 0.1355(5) 0.0889(5)
H48_4 H 0.831642 0.168760 0.082860
H49_4 H 0.839938 0.117086 0.068348
H50_4 H 0.855356 0.129069 0.112271
C55_4 C 0.7740(5) 0.0690(4) 0.1036(4)
H51_4 H 0.787462 0.050949 0.084559
H52_4 H 0.738233 0.059341 0.103909
H53_4 H 0.795679 0.063318 0.128436
N3_4 N 0.8861(2) 0.12636(17) 0.20687(12)
H82_4 H 0.854094 0.116815 0.198352
N4_4 N 0.8628(4) 0.2435(2) 0.27246(19)
N5_4 N 0.6910(4) 0.1874(4) 0.0126(3)
H83_4 H 0.657295 0.186406 0.012053
N6_4 N 0.7543(5) 0.1470(4) 0.1238(3)
O1_4 O 0.97040(17) 0.11386(12) 0.20261(10)
O2_4 O 0.8571(3) 0.2788(2) 0.29374(19)
O4_4 O 0.7774(5) 0.1384(4) 0.1592(3)
C86_4 C 0.7733(6) 0.2332(6) 0.1298(5)
H85_4 H 0.756580 0.263797 0.125908
H86_4 H 0.799870 0.230547 0.114209
H87_4 H 0.789564 0.229621 0.156401
H88_4 H 0.842366 0.267929 0.315559
H89_4 H 0.774467 0.104664 0.164657
C27_4 C 0.8092(2) 0.02738(14) 0.90276(14)
C28_4 C 0.7696(2) 0.06311(17) 0.90445(14)
C29_4 C 0.7527(3) 0.0713(2) 0.93794(16)
H29_4 H 0.764170 0.051911 0.959167
C30_4 C 0.7193(3) 0.1077(3) 0.94036(18)
H30_4 H 0.708981 0.113333 0.963741
C31_4 C 0.7004(3) 0.1358(2) 0.91064(17)
C32_4 C 0.7144(3) 0.1259(2) 0.87717(18)
H31_4 H 0.701048 0.144413 0.855716
C33_4 C 0.7483(3) 0.08899(19) 0.87371(15)
H32_4 H 0.756411 0.081947 0.849831
C34_4 C 0.6642(2) 0.17595(17) 0.91333(14)
C35_4 C 0.6668(2) 0.2002(2) 0.94688(12)
C36_4 C 0.6336(3) 0.23765(19) 0.94861(12)
H33_4 H 0.635285 0.254250 0.971540
C37_4 C 0.5979(2) 0.25075(16) 0.91678(14)
C38_4 C 0.5954(3) 0.2265(2) 0.88323(13)
H34_4 H 0.570954 0.235407 0.861482
C39_4 C 0.6285(3) 0.1891(2) 0.88151(12)
H35_4 H 0.626822 0.172450 0.858575
C40_4 C 0.5629(2) 0.29189(18) 0.91837(16)
C41_4 C 0.5437(2) 0.31784(19) 0.88567(15)
H36_4 H 0.554043 0.309935 0.862677
C42_4 C 0.5106(2) 0.35407(16) 0.88656(13)
H37_4 H 0.496838 0.370180 0.863904
C43_4 C 0.49628(19) 0.36817(14) 0.92033(13)
C44_4 C 0.5164(2) 0.34338(18) 0.95327(14)
H38_4 H 0.507608 0.352337 0.976559
C45_4 C 0.5490(3) 0.3059(2) 0.95176(16)
H39_4 H 0.562179 0.289197 0.974237
C46_4 C 0.45938(17) 0.40812(13) 0.92113(12)
C47_4 C 0.7099(6) 0.1937(4) 0.9797(3)
C56_4 C 0.94972(18) 0.03740(12) 0.91607(12)
C57_4 C 0.9860(2) 0.07701(14) 0.91520(13)
C62_4 C 0.9962(3) 0.0928(2) 0.88133(15)
H57_4 H 0.978342 0.079528 0.858410
O3_4 O 0.7588(4) 0.1986(3) 0.9795(3)
O5_4 O 0.83348(13) 0.01128(10) 0.93368(9)
O6_4 O 0.81722(15) 0.01450(12) 0.87083(9)
O9_4 O 0.92686(15) 0.02146(11) 0.88524(9)
O10_4 O 0.94376(13) 0.02290(9) 0.94805(8)
H37_5 H 0.003162 0.129820 0.136096
C43_5 C 0.00372(19) 0.13183(14) 0.07967(13)
C46_5 C 0.04062(17) 0.09188(13) 0.07887(12)
O7_3 O 0.04690(13) 0.07716(10) 0.04764(8)
O8_3 O 0.06244(14) 0.07609(11) 0.11054(9)
Zn3 Zn 0.10423(2) 0.03012(2) 0.04492(2)
Zn5 Zn 0.12377(2) 0.03168(2) 0.12689(2)
C27_5 C 0.6908(2) 0.47262(14) 0.09724(14)
C28_5 C 0.7304(2) 0.43689(17) 0.09555(14)
C29_5 C 0.7473(3) 0.4287(2) 0.06206(16)
H29_5 H 0.735830 0.448089 0.040833
C30_5 C 0.7807(3) 0.3923(3) 0.05964(18)
H30_5 H 0.791019 0.386667 0.036259
C31_5 C 0.7996(3) 0.3642(2) 0.08936(17)
C32_5 C 0.7856(3) 0.3741(2) 0.12283(18)
H31_5 H 0.798952 0.355587 0.144284
C33_5 C 0.7517(3) 0.41101(19) 0.12629(15)
H32_5 H 0.743589 0.418053 0.150169
C34_5 C 0.8358(2) 0.32405(17) 0.08667(14)
C35_5 C 0.8332(2) 0.2998(2) 0.05312(12)
C36_5 C 0.8664(3) 0.26235(19) 0.05139(12)
H33_5 H 0.864715 0.245750 0.028460
C37_5 C 0.9021(2) 0.24925(16) 0.08322(14)
C38_5 C 0.9046(3) 0.2735(2) 0.11677(13)
H34_5 H 0.929046 0.264593 0.138518
C39_5 C 0.8715(3) 0.3109(2) 0.11849(12)
H35_5 H 0.873178 0.327550 0.141425
C40_5 C 0.9371(2) 0.20811(18) 0.08163(16)
C41_5 C 0.9563(2) 0.18216(19) 0.11433(15)
H36_5 H 0.945957 0.190065 0.137323
C42_5 C 0.9894(2) 0.14593(16) 0.11344(13)
C44_5 C 0.9836(2) 0.15662(18) 0.04673(14)
H38_5 H 0.992392 0.147663 0.023441
C45_5 C 0.9510(3) 0.1941(2) 0.04824(16)
H39_5 H 0.937821 0.210803 0.025763
C47_5 C 0.7901(6) 0.3063(4) 0.0203(3)
C56_5 C 0.55028(18) 0.46260(12) 0.08393(12)
C57_5 C 0.5140(2) 0.42299(14) 0.08480(13)
C58_5 C 0.4869(2) 0.40301(14) 0.05115(14)
H54_5 H 0.493476 0.413404 0.027573
C59_5 C 0.4511(3) 0.36870(19) 0.05237(17)
H55_5 H 0.432549 0.355834 0.029508
C60_5 C 0.4414(3) 0.35256(19) 0.08596(19)
C61_5 C 0.4679(3) 0.3724(2) 0.11940(19)
H56_5 H 0.461110 0.361763 0.142851
C62_5 C 0.5038(3) 0.4072(2) 0.11867(15)
H57_5 H 0.521658 0.420472 0.141590
C63_5 C 0.40176(17) 0.31526(15) 0.08828(16)
C64_5 C 0.3522(2) 0.32079(16) 0.06679(17)
H58_5 H 0.344385 0.347337 0.051011
C65_5 C 0.31421(16) 0.28749(19) 0.06838(17)
C66_5 C 0.32571(18) 0.24865(16) 0.09147(16)
C67_5 C 0.3752(2) 0.24311(15) 0.11296(16)
H59_5 H 0.383088 0.216566 0.128742
C68_5 C 0.41326(16) 0.27641(17) 0.11137(15)
H60_5 H 0.447106 0.272630 0.126060
C69_5 C 0.1773(2) 0.09814(14) 0.08488(13)
C70_5 C 0.2162(2) 0.13685(18) 0.08609(15)
C71_5 C 0.2425(3) 0.1544(2) 0.11996(18)
H61_5 H 0.235838 0.141532 0.142761
C72_5 C 0.2777(3) 0.1897(3) 0.1216(2)
H62_5 H 0.295111 0.201185 0.145358
C73_5 C 0.2881(3) 0.2089(2) 0.0885(2)
C74_5 C 0.2654(4) 0.1891(3) 0.0540(2)
H63_5 H 0.275527 0.199319 0.031499
C75_5 C 0.2277(3) 0.1538(2) 0.05254(17)
H64_5 H 0.210337 0.141814 0.029014
C76_5 C 0.2562(9) 0.2943(9) 0.0437(6)
C77_5 C 0.1681(5) 0.3139(7) 0.0594(5)
H65_5 H 0.163305 0.347267 0.051503
C78_5 C 0.1401(6) 0.2812(7) 0.0321(4)
H66_5 H 0.139915 0.250161 0.044084
H67_5 H 0.158758 0.278065 0.010854
C79_5 C 0.1374(7) 0.2993(8) 0.0942(4)
H68_5 H 0.133461 0.265019 0.095498
H69_5 H 0.156712 0.310650 0.118719
C80_5 C 0.0812(6) 0.2965(6) 0.0157(4)
H74_5 H 0.055392 0.226998 0.003358
C83_5 C 0.0826(6) 0.3238(8) 0.0838(4)
C84_5 C 0.0775(13) 0.3771(8) 0.0771(9)
H76_5 H 0.095205 0.393602 0.099695
H77_5 H 0.093361 0.385713 0.055666
H78_5 H 0.040684 0.385794 0.071842
C85_5 C 0.0465(8) 0.3012(7) 0.1094(6)
H79_5 H 0.056742 0.312818 0.135196
H80_5 H 0.010246 0.309753 0.099510
H81_5 H 0.050076 0.267227 0.109190
N7_5 N 0.2255(6) 0.3000(6) 0.0734(4)
H84_5 H 0.238816 0.295895 0.097402
N8_5 N 0.0541(6) 0.2972(7) 0.0475(4)
O3_5 O 0.7412(4) 0.3014(3) 0.0205(3)
O5_5 O 0.66652(13) 0.48872(10) 0.06632(9)
O6_5 O 0.68278(15) 0.48550(12) 0.12917(9)
O9_5 O 0.57314(15) 0.47854(11) 0.11476(9)
O10_5 O 0.55624(13) 0.47710(9) 0.05195(8)
O11_3 O 0.17058(15) 0.08276(11) 0.11590(9)
O12_3 O 0.15449(14) 0.08437(10) 0.05292(9)
O13_5 O 0.2472(6) 0.3385(5) 0.0316(4)
Zn1_3 Zn 0.60423(2) 0.53012(2) 0.04492(2)
Zn2_2 Zn 0.62377(2) 0.53168(2) 0.12689(2)
N9_3 N 0.62190(15) 0.53391(11) 0.18247(10)
O15_3 O 0.54690(13) 0.57716(10) 0.04764(8)
O16_3 O 0.56244(14) 0.57609(11) 0.11054(9)
O17_3 O 0.67058(15) 0.58276(11) 0.11590(9)
O18_3 O 0.65449(14) 0.58437(10) 0.05292(9)
C1_4 C 0.6383(2) 0.53955(16) 0.97308(13)
H1_4 H 0.663375 0.559340 0.987724
C2_4 C 0.6401(2) 0.53359(19) 0.93559(14)
H2_4 H 0.665783 0.549067 0.924794
C3_4 C 0.6033(2) 0.50412(16) 0.91342(12)
C4_5 C 0.5670(2) 0.48293(15) 0.93102(12)
H3_5 H 0.541248 0.463151 0.917068
C5_5 C 0.56819(18) 0.49054(15) 0.96886(12)
H4_5 H 0.543372 0.475111 0.980528
C6_5 C 0.6042(2) 0.49658(17) 0.87331(13)
C7_4 C 0.6235(3) 0.5312(2) 0.85211(15)
H5_4 H 0.634346 0.560493 0.863247
C8_4 C 0.6265(3) 0.5226(2) 0.81519(15)
H6_4 H 0.639407 0.546348 0.801109
C9_5 C 0.6115(2) 0.48047(19) 0.79794(14)
C10_5 C 0.5914(2) 0.44615(17) 0.81922(12)
C11_5 C 0.5875(2) 0.45507(17) 0.85597(13)
H7_5 H 0.572988 0.432010 0.869722
C12_5 C 0.6623(2) 0.48226(19) 0.70806(13)
H8_5 H 0.693405 0.490626 0.699856
C13_5 C 0.6602(2) 0.4871(2) 0.74548(13)
H9_5 H 0.689271 0.499008 0.762643
C14_5 C 0.6156(2) 0.47440(17) 0.75810(13)
C15_5 C 0.5734(2) 0.45698(15) 0.73126(13)
H10_5 H 0.542105 0.447802 0.738711
C16_5 C 0.57860(19) 0.45354(15) 0.69427(12)
H11_5 H 0.550253 0.441780 0.676365
C17_5 C 0.5749(2) 0.39828(17) 0.80220(12)
C18_5 C 0.6063(4) 0.3314(3) 0.7697(2)
H12_5 H 0.568487 0.323651 0.765635
C19_5 C 0.6181(6) 0.3376(3) 0.7349(2)
H13_5 H 0.655928 0.343043 0.737614
H14_5 H 0.599938 0.365719 0.723091
C20_5 C 0.6017(6) 0.2928(3) 0.7074(2)
C21_5 C 0.6419(6) 0.2474(4) 0.7672(3)
C22_5 C 0.6346(7) 0.2906(3) 0.7882(3)
H15_5 H 0.669653 0.301654 0.800052
H16_5 H 0.616951 0.281354 0.808895
C23_5 C 0.5442(6) 0.2718(5) 0.7023(5)
H17_5 H 0.519249 0.294449 0.689149
H18_5 H 0.542182 0.242903 0.687639
H19_5 H 0.536146 0.265125 0.727157
C24_5 C 0.6213(7) 0.3090(4) 0.6724(3)
H20_5 H 0.597869 0.332802 0.659208
H21_5 H 0.656256 0.322151 0.679865
H22_5 H 0.622528 0.282339 0.655572
C25_5 C 0.5981(7) 0.2144(4) 0.7761(4)
H23_5 H 0.603083 0.209376 0.803322
H24_5 H 0.564123 0.228931 0.767145
H25_5 H 0.599621 0.184454 0.763335
C26_5 C 0.6943(8) 0.2213(6) 0.7784(5)
H26_5 H 0.700357 0.213827 0.805313
H27_5 H 0.693305 0.192467 0.763775
H28_5 H 0.722522 0.241260 0.773234
C48_5 C 0.7728(5) 0.3176(4) 0.9524(3)
H40_5 H 0.740842 0.298206 0.951190
C49_5 C 0.7607(5) 0.3693(3) 0.9437(3)
H41_5 H 0.744388 0.382642 0.963840
H42_5 H 0.793715 0.386162 0.944009
C50_5 C 0.7250(4) 0.3779(3) 0.9060(3)
C51_5 C 0.7691(6) 0.3067(5) 0.8817(3)
C52_5 C 0.8025(5) 0.3061(5) 0.9214(3)
H43_5 H 0.831092 0.328857 0.922443
H44_5 H 0.818229 0.274788 0.926313
C53_5 C 0.8028(7) 0.3046(7) 0.8512(4)
H45_5 H 0.820549 0.274372 0.852422
H46_5 H 0.780725 0.308420 0.826287
H47_5 H 0.828687 0.329662 0.855462
C54_5 C 0.6694(5) 0.3645(5) 0.9111(5)
H48_5 H 0.668358 0.331240 0.917140
H49_5 H 0.660062 0.382914 0.931652
H50_5 H 0.644644 0.370931 0.887729
C55_5 C 0.7260(5) 0.4310(4) 0.8964(4)
H51_5 H 0.712538 0.449051 0.915441
H52_5 H 0.761767 0.440659 0.896091
H53_5 H 0.704321 0.436682 0.871564
C81_4 C 0.0857(8) 0.3355(7) 0.9865(7)
H70_4 H 0.106619 0.324207 0.968646
H71_4 H 0.050974 0.343943 0.972911
H72_4 H 0.102415 0.363039 0.999703
C82_4 C 0.0522(9) 0.2566(8) 0.9895(7)
H73_4 H 0.067763 0.253357 0.967083
H75_4 H 0.015352 0.264638 0.981851
N1_4 N 0.60316(15) 0.51900(11) 0.98999(9)
N2_3 N 0.62190(15) 0.46609(11) 0.68247(10)
N3_5 N 0.6139(2) 0.37364(17) 0.79313(12)
H82_5 H 0.645906 0.383185 0.801648
N4_5 N 0.6372(4) 0.2565(2) 0.72754(19)
N5_5 N 0.8090(4) 0.3126(4) 0.9874(3)
H83_5 H 0.842705 0.313594 0.987947
N6_5 N 0.7457(5) 0.3530(4) 0.8762(3)
O1_5 O 0.52960(17) 0.38614(12) 0.79739(10)
O2_5 O 0.6429(3) 0.2212(2) 0.70626(19)
O4_5 O 0.7226(5) 0.3616(4) 0.8408(3)
C86_5 C 0.7267(6) 0.2668(6) 0.8702(5)
H85_5 H 0.743420 0.236203 0.874092
H86_5 H 0.700130 0.269453 0.885791
H87_5 H 0.710436 0.270379 0.843599
Zn7_3 Zn 0.62377(2) 0.46832(2) 0.62689(2)
H88_5 H 0.657634 0.232071 0.684441
H89_5 H 0.725533 0.395336 0.835343
N9_4 N 0.12190(15) 0.03391(11) 0.18247(10)
C27_6 C 0.1908(2) 0.97262(14) 0.09724(14)
C28_6 C 0.2304(2) 0.93689(17) 0.09555(14)
C29_6 C 0.2473(3) 0.9287(2) 0.06206(16)
H29_6 H 0.235830 0.948089 0.040833
C30_6 C 0.2807(3) 0.8923(3) 0.05964(18)
H30_6 H 0.291019 0.886667 0.036259
C31_6 C 0.2996(3) 0.8642(2) 0.08936(17)
C32_6 C 0.2856(3) 0.8741(2) 0.12283(18)
H31_6 H 0.298952 0.855587 0.144284
C33_6 C 0.2517(3) 0.91101(19) 0.12629(15)
H32_6 H 0.243589 0.918053 0.150169
C34_6 C 0.3358(2) 0.82405(17) 0.08667(14)
C35_6 C 0.3332(2) 0.7998(2) 0.05312(12)
C36_6 C 0.3664(3) 0.76235(19) 0.05139(12)
H33_6 H 0.364715 0.745750 0.028460
C37_6 C 0.4021(2) 0.74925(16) 0.08322(14)
C38_6 C 0.4046(3) 0.7735(2) 0.11677(13)
H34_6 H 0.429046 0.764593 0.138518
C39_6 C 0.3715(3) 0.8109(2) 0.11849(12)
H35_6 H 0.373178 0.827550 0.141425
C40_6 C 0.4371(2) 0.70811(18) 0.08163(16)
C41_6 C 0.4563(2) 0.68216(19) 0.11433(15)
H36_6 H 0.445957 0.690065 0.137323
C42_6 C 0.4894(2) 0.64593(16) 0.11344(13)
H37_6 H 0.503162 0.629820 0.136096
C43_6 C 0.50372(19) 0.63183(14) 0.07967(13)
C44_6 C 0.4836(2) 0.65662(18) 0.04673(14)
H38_6 H 0.492392 0.647663 0.023441
C45_6 C 0.4510(3) 0.6941(2) 0.04824(16)
H39_6 H 0.437821 0.710803 0.025763
C46_6 C 0.54062(17) 0.59188(13) 0.07887(12)
C47_6 C 0.2901(6) 0.8063(4) 0.0203(3)
C56_6 C 0.05028(18) 0.96260(12) 0.08393(12)
C57_6 C 0.0140(2) 0.92299(14) 0.08480(13)
C62_6 C 0.0038(3) 0.9072(2) 0.11867(15)
H57_6 H 0.021658 0.920472 0.141590
O3_6 O 0.2412(4) 0.8014(3) 0.0205(3)
O5_6 O 0.16652(13) 0.98872(10) 0.06632(9)
O6_6 O 0.18278(15) 0.98550(12) 0.12917(9)
O9_6 O 0.07314(15) 0.97854(11) 0.11476(9)
O10_6 O 0.05624(13) 0.97710(9) 0.05195(8)
C4_6 C 0.0670(2) 0.98293(15) 0.93102(12)
H3_6 H 0.041248 0.963151 0.917068
C5_6 C 0.06819(18) 0.99054(15) 0.96886(12)
H4_6 H 0.043372 0.975111 0.980528
C6_6 C 0.1042(2) 0.99658(17) 0.87331(13)
C9_6 C 0.1115(2) 0.98047(19) 0.79794(14)
C10_6 C 0.0914(2) 0.94615(17) 0.81922(12)
C11_6 C 0.0875(2) 0.95507(17) 0.85597(13)
H7_6 H 0.072988 0.932010 0.869722
C12_6 C 0.1623(2) 0.98226(19) 0.70806(13)
H8_6 H 0.193405 0.990626 0.699856
C13_6 C 0.1602(2) 0.9871(2) 0.74548(13)
H9_6 H 0.189271 0.999008 0.762643
C14_6 C 0.1156(2) 0.97440(17) 0.75810(13)
C15_6 C 0.0734(2) 0.95698(15) 0.73126(13)
H10_6 H 0.042105 0.947802 0.738711
C16_6 C 0.07860(19) 0.95354(15) 0.69427(12)
H11_6 H 0.050253 0.941780 0.676365
C17_6 C 0.0749(2) 0.89828(17) 0.80220(12)
C18_6 C 0.1063(4) 0.8314(3) 0.7697(2)
H12_6 H 0.068487 0.823651 0.765635
C19_6 C 0.1181(6) 0.8376(3) 0.7349(2)
H13_6 H 0.155928 0.843043 0.737614
H14_6 H 0.099938 0.865719 0.723091
C20_6 C 0.1017(6) 0.7928(3) 0.7074(2)
C21_6 C 0.1419(6) 0.7474(4) 0.7672(3)
C22_6 C 0.1346(7) 0.7906(3) 0.7882(3)
H15_6 H 0.169653 0.801654 0.800052
H16_6 H 0.116951 0.781354 0.808895
C23_6 C 0.0442(6) 0.7718(5) 0.7023(5)
H17_6 H 0.019249 0.794449 0.689149
H18_6 H 0.042182 0.742903 0.687639
H19_6 H 0.036146 0.765125 0.727157
C24_6 C 0.1213(7) 0.8090(4) 0.6724(3)
H20_6 H 0.097869 0.832802 0.659208
H21_6 H 0.156256 0.822151 0.679865
H22_6 H 0.122528 0.782339 0.655572
C25_6 C 0.0981(7) 0.7144(4) 0.7761(4)
H23_6 H 0.103083 0.709376 0.803322
H24_6 H 0.064123 0.728931 0.767145
H25_6 H 0.099621 0.684454 0.763335
C26_6 C 0.1943(8) 0.7213(6) 0.7784(5)
H26_6 H 0.200357 0.713827 0.805313
H27_6 H 0.193305 0.692467 0.763775
H28_6 H 0.222522 0.741260 0.773234
C48_6 C 0.2728(5) 0.8176(4) 0.9524(3)
H40_6 H 0.240842 0.798206 0.951190
C49_6 C 0.2607(5) 0.8693(3) 0.9437(3)
H41_6 H 0.244388 0.882642 0.963840
H42_6 H 0.293715 0.886162 0.944009
C50_6 C 0.2250(4) 0.8779(3) 0.9060(3)
C51_6 C 0.2691(6) 0.8067(5) 0.8817(3)
C52_6 C 0.3025(5) 0.8061(5) 0.9214(3)
H43_6 H 0.331092 0.828857 0.922443
H44_6 H 0.318229 0.774788 0.926313
C53_6 C 0.3028(7) 0.8046(7) 0.8512(4)
H45_6 H 0.320549 0.774372 0.852422
H46_6 H 0.280725 0.808420 0.826287
H47_6 H 0.328687 0.829662 0.855462
C54_6 C 0.1694(5) 0.8645(5) 0.9111(5)
H48_6 H 0.168358 0.831240 0.917140
H49_6 H 0.160062 0.882914 0.931652
H50_6 H 0.144644 0.870931 0.887729
C55_6 C 0.2260(5) 0.9310(4) 0.8964(4)
H51_6 H 0.212538 0.949051 0.915441
H52_6 H 0.261767 0.940659 0.896091
H53_6 H 0.204321 0.936682 0.871564
N2_4 N 0.12190(15) 0.96609(11) 0.68247(10)
N3_6 N 0.1139(2) 0.87364(17) 0.79313(12)
H82_6 H 0.145906 0.883185 0.801648
N4_6 N 0.1372(4) 0.7565(2) 0.72754(19)
N5_6 N 0.3090(4) 0.8126(4) 0.9874(3)
H83_6 H 0.342705 0.813594 0.987947
N6_6 N 0.2457(5) 0.8530(4) 0.8762(3)
O1_6 O 0.02960(17) 0.88614(12) 0.79739(10)
O2_6 O 0.1429(3) 0.7212(2) 0.70626(19)
O4_6 O 0.2226(5) 0.8616(4) 0.8408(3)
C86_6 C 0.2267(6) 0.7668(6) 0.8702(5)
H85_6 H 0.243420 0.736203 0.874092
H86_6 H 0.200130 0.769453 0.885791
H87_6 H 0.210436 0.770379 0.843599
Zn7_4 Zn 0.12377(2) 0.96832(2) 0.62689(2)
H88_6 H 0.157634 0.732071 0.684441
H89_6 H 0.225533 0.895336 0.835343
C58_6 C 0.9869(2) 0.90301(14) 0.05115(14)
H54_6 H 0.993476 0.913404 0.027573
C59_6 C 0.9511(3) 0.86870(19) 0.05237(17)
H55_6 H 0.932549 0.855834 0.029508
C60_6 C 0.9414(3) 0.85256(19) 0.08596(19)
C61_6 C 0.9679(3) 0.8724(2) 0.11940(19)
H56_6 H 0.961110 0.861763 0.142851
C63_6 C 0.90176(17) 0.81526(15) 0.08828(16)
C64_6 C 0.8522(2) 0.82079(16) 0.06679(17)
H58_6 H 0.844385 0.847337 0.051011
C65_6 C 0.81421(16) 0.78749(19) 0.06838(17)
C66_6 C 0.82571(18) 0.74865(16) 0.09147(16)
C67_6 C 0.8752(2) 0.74311(15) 0.11296(16)
H59_6 H 0.883088 0.716566 0.128742
C68_6 C 0.91326(16) 0.77641(17) 0.11137(15)
H60_6 H 0.947106 0.772630 0.126060
C69_6 C 0.6773(2) 0.59814(14) 0.08488(13)
C70_6 C 0.7162(2) 0.63685(18) 0.08609(15)
C71_6 C 0.7425(3) 0.6544(2) 0.11996(18)
H61_6 H 0.735838 0.641532 0.142761
C72_6 C 0.7777(3) 0.6897(3) 0.1216(2)
H62_6 H 0.795111 0.701185 0.145358
C73_6 C 0.7881(3) 0.7089(2) 0.0885(2)
C74_6 C 0.7654(4) 0.6891(3) 0.0540(2)
H63_6 H 0.775527 0.699319 0.031499
C75_6 C 0.7277(3) 0.6538(2) 0.05254(17)
H64_6 H 0.710337 0.641814 0.029014
C76_6 C 0.7562(9) 0.7943(9) 0.0437(6)
C77_6 C 0.6681(5) 0.8139(7) 0.0594(5)
H65_6 H 0.663305 0.847267 0.051503
C78_6 C 0.6401(6) 0.7812(7) 0.0321(4)
H66_6 H 0.639915 0.750161 0.044084
H67_6 H 0.658758 0.778065 0.010854
C79_6 C 0.6374(7) 0.7993(8) 0.0942(4)
H68_6 H 0.633461 0.765019 0.095498
H69_6 H 0.656712 0.810650 0.118719
C80_6 C 0.5812(6) 0.7965(6) 0.0157(4)
H74_6 H 0.555392 0.726998 0.003358
C83_6 C 0.5826(6) 0.8238(8) 0.0838(4)
C84_6 C 0.5775(13) 0.8771(8) 0.0771(9)
H76_6 H 0.595205 0.893602 0.099695
H77_6 H 0.593361 0.885713 0.055666
H78_6 H 0.540684 0.885794 0.071842
C85_6 C 0.5465(8) 0.8012(7) 0.1094(6)
H79_6 H 0.556742 0.812818 0.135196
H80_6 H 0.510246 0.809753 0.099510
H81_6 H 0.550076 0.767227 0.109190
N7_6 N 0.7255(6) 0.8000(6) 0.0734(4)
H84_6 H 0.738816 0.795895 0.097402
N8_6 N 0.5541(6) 0.7972(7) 0.0475(4)
O13_6 O 0.7472(6) 0.8385(5) 0.0316(4)
O14_4 O 0.4990(7) 0.8034(4) 0.0414(5)
H90_4 H 0.481709 0.777755 0.0252602
H37_7 H 0.003162 0.870180 0.636096
C43_7 C 0.00372(19) 0.86817(14) 0.57967(13)
C46_7 C 0.04062(17) 0.90812(13) 0.57887(12)
O7_4 O 0.04690(13) 0.92284(10) 0.54764(8)
O8_4 O 0.06244(14) 0.92391(11) 0.61054(9)
Zn3_2 Zn 0.10423(2) 0.96988(2) 0.54492(2)
C1_5 C 0.6383(2) 0.46045(16) 0.47308(13)
H1_5 H 0.663375 0.440660 0.487724
C2_5 C 0.6401(2) 0.46641(19) 0.43559(14)
H2_5 H 0.665783 0.450933 0.424794
C3_5 C 0.6033(2) 0.49588(16) 0.41342(12)
C4_7 C 0.5670(2) 0.51707(15) 0.43102(12)
H3_7 H 0.541248 0.536849 0.417068
C5_7 C 0.56819(18) 0.50946(15) 0.46886(12)
H4_7 H 0.543372 0.524889 0.480528
C6_7 C 0.6042(2) 0.50342(17) 0.37331(13)
C7_5 C 0.6235(3) 0.4688(2) 0.35211(15)
H5_5 H 0.634346 0.439507 0.363247
C8_5 C 0.6265(3) 0.4774(2) 0.31519(15)
H6_5 H 0.639407 0.453652 0.301109
C9_7 C 0.6115(2) 0.51953(19) 0.29794(14)
C10_7 C 0.5914(2) 0.55385(17) 0.31922(12)
C11_7 C 0.5875(2) 0.54493(17) 0.35597(13)
H7_7 H 0.572988 0.567990 0.369722
C12_7 C 0.6623(2) 0.51774(19) 0.20806(13)
H8_7 H 0.693405 0.509374 0.199856
C13_7 C 0.6602(2) 0.5129(2) 0.24548(13)
H9_7 H 0.689271 0.500992 0.262643
C14_7 C 0.6156(2) 0.52560(17) 0.25810(13)
C15_7 C 0.5734(2) 0.54302(15) 0.23126(13)
H10_7 H 0.542105 0.552198 0.238711
C16_7 C 0.57860(19) 0.54646(15) 0.19427(12)
H11_7 H 0.550253 0.558220 0.176365
C17_7 C 0.5749(2) 0.60172(17) 0.30220(12)
C18_7 C 0.6063(4) 0.6686(3) 0.2697(2)
H12_7 H 0.568487 0.676349 0.265635
C19_7 C 0.6181(6) 0.6624(3) 0.2349(2)
H13_7 H 0.655928 0.656957 0.237614
H14_7 H 0.599938 0.634281 0.223091
C20_7 C 0.6017(6) 0.7072(3) 0.2074(2)
C21_7 C 0.6419(6) 0.7526(4) 0.2672(3)
C22_7 C 0.6346(7) 0.7094(3) 0.2882(3)
H15_7 H 0.669653 0.698346 0.300052
H16_7 H 0.616951 0.718646 0.308895
C23_7 C 0.5442(6) 0.7282(5) 0.2023(5)
H17_7 H 0.519249 0.705551 0.189149
H18_7 H 0.542182 0.757097 0.187639
H19_7 H 0.536146 0.734875 0.227157
C24_7 C 0.6213(7) 0.6910(4) 0.1724(3)
H20_7 H 0.597869 0.667198 0.159208
H21_7 H 0.656256 0.677849 0.179865
H22_7 H 0.622528 0.717661 0.155572
C25_7 C 0.5981(7) 0.7856(4) 0.2761(4)
H23_7 H 0.603083 0.790624 0.303322
H24_7 H 0.564123 0.771069 0.267145
H25_7 H 0.599621 0.815546 0.263335
C26_7 C 0.6943(8) 0.7787(6) 0.2784(5)
H26_7 H 0.700357 0.786173 0.305313
H27_7 H 0.693305 0.807533 0.263775
H28_7 H 0.722522 0.758740 0.273234
C27_7 C 0.6908(2) 0.52738(14) 0.59724(14)
C28_7 C 0.7304(2) 0.56311(17) 0.59555(14)
C29_7 C 0.7473(3) 0.5713(2) 0.56206(16)
H29_7 H 0.735830 0.551911 0.540833
C30_7 C 0.7807(3) 0.6077(3) 0.55964(18)
H30_7 H 0.791019 0.613333 0.536259
C31_7 C 0.7996(3) 0.6358(2) 0.58936(17)
C32_7 C 0.7856(3) 0.6259(2) 0.62283(18)
H31_7 H 0.798952 0.644413 0.644284
C33_7 C 0.7517(3) 0.58899(19) 0.62629(15)
H32_7 H 0.743589 0.581947 0.650169
C34_7 C 0.8358(2) 0.67595(17) 0.58667(14)
C35_7 C 0.8332(2) 0.7002(2) 0.55312(12)
C36_7 C 0.8664(3) 0.73765(19) 0.55139(12)
H33_7 H 0.864715 0.754250 0.528460
C37_7 C 0.9021(2) 0.75075(16) 0.58322(14)
C38_7 C 0.9046(3) 0.7265(2) 0.61677(13)
H34_7 H 0.929046 0.735407 0.638518
C39_7 C 0.8715(3) 0.6891(2) 0.61849(12)
H35_7 H 0.873178 0.672450 0.641425
C40_7 C 0.9371(2) 0.79189(18) 0.58163(16)
C41_7 C 0.9563(2) 0.81784(19) 0.61433(15)
H36_7 H 0.945957 0.809935 0.637323
C42_7 C 0.9894(2) 0.85407(16) 0.61344(13)
C44_7 C 0.9836(2) 0.84338(18) 0.54673(14)
H38_7 H 0.992392 0.852337 0.523441
C45_7 C 0.9510(3) 0.8059(2) 0.54824(16)
H39_7 H 0.937821 0.789197 0.525763
C47_7 C 0.7901(6) 0.6937(4) 0.5203(3)
C48_7 C 0.7728(5) 0.6824(4) 0.4524(3)
H40_7 H 0.740842 0.701794 0.451190
C49_7 C 0.7607(5) 0.6307(3) 0.4437(3)
H41_7 H 0.744388 0.617358 0.463840
H42_7 H 0.793715 0.613838 0.444009
C50_7 C 0.7250(4) 0.6221(3) 0.4060(3)
C51_7 C 0.7691(6) 0.6933(5) 0.3817(3)
C52_7 C 0.8025(5) 0.6939(5) 0.4214(3)
H43_7 H 0.831092 0.671143 0.422443
H44_7 H 0.818229 0.725212 0.426313
C53_7 C 0.8028(7) 0.6954(7) 0.3512(4)
H45_7 H 0.820549 0.725628 0.352422
H46_7 H 0.780725 0.691580 0.326287
H47_7 H 0.828687 0.670338 0.355462
C54_7 C 0.6694(5) 0.6355(5) 0.4111(5)
H48_7 H 0.668358 0.668760 0.417140
H49_7 H 0.660062 0.617086 0.431652
H50_7 H 0.644644 0.629069 0.387729
C55_7 C 0.7260(5) 0.5690(4) 0.3964(4)
H51_7 H 0.712538 0.550949 0.415441
H52_7 H 0.761767 0.559341 0.396091
H53_7 H 0.704321 0.563318 0.371564
C56_7 C 0.55028(18) 0.53740(12) 0.58393(12)
C57_7 C 0.5140(2) 0.57701(14) 0.58480(13)
C58_7 C 0.4869(2) 0.59699(14) 0.55115(14)
H54_7 H 0.493476 0.586596 0.527573
C59_7 C 0.4511(3) 0.63130(19) 0.55237(17)
H55_7 H 0.432549 0.644166 0.529508
C60_7 C 0.4414(3) 0.64744(19) 0.58596(19)
C61_7 C 0.4679(3) 0.6276(2) 0.61940(19)
H56_7 H 0.461110 0.638237 0.642851
C62_7 C 0.5038(3) 0.5928(2) 0.61867(15)
H57_7 H 0.521658 0.579528 0.641590
C63_7 C 0.40176(17) 0.68474(15) 0.58828(16)
C64_7 C 0.3522(2) 0.67921(16) 0.56679(17)
H58_7 H 0.344385 0.652663 0.551011
C65_7 C 0.31421(16) 0.71251(19) 0.56838(17)
C66_7 C 0.32571(18) 0.75135(16) 0.59147(16)
C67_7 C 0.3752(2) 0.75689(15) 0.61296(16)
H59_7 H 0.383088 0.783434 0.628742
C68_7 C 0.41326(16) 0.72359(17) 0.61137(15)
H60_7 H 0.447106 0.727370 0.626060
C69_7 C 0.1773(2) 0.90186(14) 0.58488(13)
C70_7 C 0.2162(2) 0.86315(18) 0.58609(15)
C71_7 C 0.2425(3) 0.8456(2) 0.61996(18)
H61_7 H 0.235838 0.858468 0.642761
C72_7 C 0.2777(3) 0.8103(3) 0.6216(2)
H62_7 H 0.295111 0.798815 0.645358
C73_7 C 0.2881(3) 0.7911(2) 0.5885(2)
C74_7 C 0.2654(4) 0.8109(3) 0.5540(2)
H63_7 H 0.275527 0.800681 0.531499
C75_7 C 0.2277(3) 0.8462(2) 0.55254(17)
H64_7 H 0.210337 0.858186 0.529014
C76_7 C 0.2562(9) 0.7057(9) 0.5437(6)
C77_7 C 0.1681(5) 0.6861(7) 0.5594(5)
H65_7 H 0.163305 0.652733 0.551503
C78_7 C 0.1401(6) 0.7188(7) 0.5321(4)
H66_7 H 0.139915 0.749839 0.544084
H67_7 H 0.158758 0.721935 0.510854
C79_7 C 0.1374(7) 0.7007(8) 0.5942(4)
H68_7 H 0.133461 0.734981 0.595498
H69_7 H 0.156712 0.689350 0.618719
C80_7 C 0.0812(6) 0.7035(6) 0.5157(4)
C81_5 C 0.0857(8) 0.6645(7) 0.4865(7)
H70_5 H 0.106619 0.675793 0.468646
H71_5 H 0.050974 0.656057 0.472911
H72_5 H 0.102415 0.636961 0.499703
C82_5 C 0.0522(9) 0.7434(8) 0.4895(7)
H73_5 H 0.067763 0.746643 0.467083
H74_7 H 0.055392 0.773002 0.503358
H75_5 H 0.015352 0.735362 0.481851
C83_7 C 0.0826(6) 0.6762(8) 0.5838(4)
C84_7 C 0.0775(13) 0.6229(8) 0.5771(9)
H76_7 H 0.095205 0.606398 0.599695
H77_7 H 0.093361 0.614287 0.555666
H78_7 H 0.040684 0.614206 0.571842
C85_7 C 0.0465(8) 0.6988(7) 0.6094(6)
H79_7 H 0.056742 0.687182 0.635196
H80_7 H 0.010246 0.690247 0.599510
H81_7 H 0.050076 0.732773 0.609190
N1_5 N 0.60316(15) 0.48100(11) 0.48999(9)
N3_7 N 0.6139(2) 0.62636(17) 0.29313(12)
H82_7 H 0.645906 0.616815 0.301648
N4_7 N 0.6372(4) 0.7435(2) 0.22754(19)
N5_7 N 0.8090(4) 0.6874(4) 0.4874(3)
H83_7 H 0.842705 0.686406 0.487947
N6_7 N 0.7457(5) 0.6470(4) 0.3762(3)
N7_7 N 0.2255(6) 0.7000(6) 0.5734(4)
H84_7 H 0.238816 0.704105 0.597402
N8_7 N 0.0541(6) 0.7028(7) 0.5475(4)
O1_7 O 0.52960(17) 0.61386(12) 0.29739(10)
O2_7 O 0.6429(3) 0.7788(2) 0.20626(19)
O3_7 O 0.7412(4) 0.6986(3) 0.5205(3)
O4_7 O 0.7226(5) 0.6384(4) 0.3408(3)
O5_7 O 0.66652(13) 0.51128(10) 0.56632(9)
O6_7 O 0.68278(15) 0.51450(12) 0.62917(9)
O9_7 O 0.57314(15) 0.52146(11) 0.61476(9)
O10_7 O 0.55624(13) 0.52290(9) 0.55195(8)
O11_4 O 0.17058(15) 0.91724(11) 0.61590(9)
O12_4 O 0.15449(14) 0.91563(10) 0.55292(9)
O13_7 O 0.2472(6) 0.6615(5) 0.5316(4)
Zn1_4 Zn 0.60423(2) 0.46988(2) 0.54492(2)
C86_7 C 0.7267(6) 0.7332(6) 0.3702(5)
H85_7 H 0.743420 0.763797 0.374092
H86_7 H 0.700130 0.730547 0.385791
H87_7 H 0.710436 0.729621 0.343599
O15_4 O 0.54690(13) 0.42284(10) 0.54764(8)
O16_4 O 0.56244(14) 0.42391(11) 0.61054(9)
O17_4 O 0.67058(15) 0.41724(11) 0.61590(9)
O18_4 O 0.65449(14) 0.41563(10) 0.55292(9)
H88_7 H 0.657634 0.767929 0.184441
H89_7 H 0.725533 0.604664 0.335343
C4_8 C 0.0670(2) 0.01707(15) 0.43102(12)
H3_8 H 0.041248 0.036849 0.417068
C5_8 C 0.06819(18) 0.00946(15) 0.46886(12)
H4_8 H 0.043372 0.024889 0.480528
C6_8 C 0.1042(2) 0.00342(17) 0.37331(13)
C9_8 C 0.1115(2) 0.01953(19) 0.29794(14)
C10_8 C 0.0914(2) 0.05385(17) 0.31922(12)
C11_8 C 0.0875(2) 0.04493(17) 0.35597(13)
H7_8 H 0.072988 0.067990 0.369722
C12_8 C 0.1623(2) 0.01774(19) 0.20806(13)
H8_8 H 0.193405 0.009374 0.199856
C13_8 C 0.1602(2) 0.0129(2) 0.24548(13)
H9_8 H 0.189271 0.000992 0.262643
C14_8 C 0.1156(2) 0.02560(17) 0.25810(13)
C15_8 C 0.0734(2) 0.04302(15) 0.23126(13)
H10_8 H 0.042105 0.052198 0.238711
C16_8 C 0.07860(19) 0.04646(15) 0.19427(12)
H11_8 H 0.050253 0.058220 0.176365
C17_8 C 0.0749(2) 0.10172(17) 0.30220(12)
C18_8 C 0.1063(4) 0.1686(3) 0.2697(2)
H12_8 H 0.068487 0.176349 0.265635
C19_8 C 0.1181(6) 0.1624(3) 0.2349(2)
H13_8 H 0.155928 0.156957 0.237614
H14_8 H 0.099938 0.134281 0.223091
C20_8 C 0.1017(6) 0.2072(3) 0.2074(2)
C21_8 C 0.1419(6) 0.2526(4) 0.2672(3)
C22_8 C 0.1346(7) 0.2094(3) 0.2882(3)
H15_8 H 0.169653 0.198346 0.300052
H16_8 H 0.116951 0.218646 0.308895
C23_8 C 0.0442(6) 0.2282(5) 0.2023(5)
H17_8 H 0.019249 0.205551 0.189149
H18_8 H 0.042182 0.257097 0.187639
H19_8 H 0.036146 0.234875 0.227157
C24_8 C 0.1213(7) 0.1910(4) 0.1724(3)
H20_8 H 0.097869 0.167198 0.159208
H21_8 H 0.156256 0.177849 0.179865
H22_8 H 0.122528 0.217661 0.155572
C25_8 C 0.0981(7) 0.2856(4) 0.2761(4)
H23_8 H 0.103083 0.290624 0.303322
H24_8 H 0.064123 0.271069 0.267145
H25_8 H 0.099621 0.315546 0.263335
C26_8 C 0.1943(8) 0.2787(6) 0.2784(5)
H26_8 H 0.200357 0.286173 0.305313
H27_8 H 0.193305 0.307533 0.263775
H28_8 H 0.222522 0.258740 0.273234
C27_8 C 0.1908(2) 0.02738(14) 0.59724(14)
C28_8 C 0.2304(2) 0.06311(17) 0.59555(14)
C29_8 C 0.2473(3) 0.0713(2) 0.56206(16)
H29_8 H 0.235830 0.051911 0.540833
C30_8 C 0.2807(3) 0.1077(3) 0.55964(18)
H30_8 H 0.291019 0.113333 0.536259
C31_8 C 0.2996(3) 0.1358(2) 0.58936(17)
C32_8 C 0.2856(3) 0.1259(2) 0.62283(18)
H31_8 H 0.298952 0.144413 0.644284
C33_8 C 0.2517(3) 0.08899(19) 0.62629(15)
H32_8 H 0.243589 0.081947 0.650169
C34_8 C 0.3358(2) 0.17595(17) 0.58667(14)
C35_8 C 0.3332(2) 0.2002(2) 0.55312(12)
C36_8 C 0.3664(3) 0.23765(19) 0.55139(12)
H33_8 H 0.364715 0.254250 0.528460
C37_8 C 0.4021(2) 0.25075(16) 0.58322(14)
C38_8 C 0.4046(3) 0.2265(2) 0.61677(13)
H34_8 H 0.429046 0.235407 0.638518
C39_8 C 0.3715(3) 0.1891(2) 0.61849(12)
H35_8 H 0.373178 0.172450 0.641425
C40_8 C 0.4371(2) 0.29189(18) 0.58163(16)
C41_8 C 0.4563(2) 0.31784(19) 0.61433(15)
H36_8 H 0.445957 0.309935 0.637323
C42_8 C 0.4894(2) 0.35407(16) 0.61344(13)
H37_8 H 0.503162 0.370180 0.636096
C43_8 C 0.50372(19) 0.36817(14) 0.57967(13)
C44_8 C 0.4836(2) 0.34338(18) 0.54673(14)
H38_8 H 0.492392 0.352337 0.523441
C45_8 C 0.4510(3) 0.3059(2) 0.54824(16)
H39_8 H 0.437821 0.289197 0.525763
C46_8 C 0.54062(17) 0.40812(13) 0.57887(12)
C47_8 C 0.2901(6) 0.1937(4) 0.5203(3)
C48_8 C 0.2728(5) 0.1824(4) 0.4524(3)
H40_8 H 0.240842 0.201794 0.451190
C49_8 C 0.2607(5) 0.1307(3) 0.4437(3)
H41_8 H 0.244388 0.117358 0.463840
H42_8 H 0.293715 0.113838 0.444009
C50_8 C 0.2250(4) 0.1221(3) 0.4060(3)
C51_8 C 0.2691(6) 0.1933(5) 0.3817(3)
C52_8 C 0.3025(5) 0.1939(5) 0.4214(3)
H43_8 H 0.331092 0.171143 0.422443
H44_8 H 0.318229 0.225212 0.426313
C53_8 C 0.3028(7) 0.1954(7) 0.3512(4)
H45_8 H 0.320549 0.225628 0.352422
H46_8 H 0.280725 0.191580 0.326287
H47_8 H 0.328687 0.170338 0.355462
C54_8 C 0.1694(5) 0.1355(5) 0.4111(5)
H48_8 H 0.168358 0.168760 0.417140
H49_8 H 0.160062 0.117086 0.431652
H50_8 H 0.144644 0.129069 0.387729
C55_8 C 0.2260(5) 0.0690(4) 0.3964(4)
H51_8 H 0.212538 0.050949 0.415441
H52_8 H 0.261767 0.059341 0.396091
H53_8 H 0.204321 0.063318 0.371564
C56_8 C 0.05028(18) 0.03740(12) 0.58393(12)
C57_8 C 0.0140(2) 0.07701(14) 0.58480(13)
C62_8 C 0.0038(3) 0.0928(2) 0.61867(15)
H57_8 H 0.021658 0.079528 0.641590
N3_8 N 0.1139(2) 0.12636(17) 0.29313(12)
H82_8 H 0.145906 0.116815 0.301648
N4_8 N 0.1372(4) 0.2435(2) 0.22754(19)
N5_8 N 0.3090(4) 0.1874(4) 0.4874(3)
H83_8 H 0.342705 0.186406 0.487947
N6_8 N 0.2457(5) 0.1470(4) 0.3762(3)
O1_8 O 0.02960(17) 0.11386(12) 0.29739(10)
O2_8 O 0.1429(3) 0.2788(2) 0.20626(19)
O3_8 O 0.2412(4) 0.1986(3) 0.5205(3)
O4_8 O 0.2226(5) 0.1384(4) 0.3408(3)
O5_8 O 0.16652(13) 0.01128(10) 0.56632(9)
O6_8 O 0.18278(15) 0.01450(12) 0.62917(9)
O9_8 O 0.07314(15) 0.02146(11) 0.61476(9)
O10_8 O 0.05624(13) 0.02290(9) 0.55195(8)
C86_8 C 0.2267(6) 0.2332(6) 0.3702(5)
H85_8 H 0.243420 0.263797 0.374092
H86_8 H 0.200130 0.230547 0.385791
H87_8 H 0.210436 0.229621 0.343599
H88_8 H 0.157634 0.267929 0.184441
H89_8 H 0.225533 0.104664 0.335343
C1_6 C 0.1383(2) 0.96045(16) 0.47308(13)
H1_6 H 0.163375 0.940660 0.487724
C2_6 C 0.1401(2) 0.96641(19) 0.43559(14)
H2_6 H 0.165783 0.950933 0.424794
C3_6 C 0.1033(2) 0.99588(16) 0.41342(12)
C7_6 C 0.1235(3) 0.9688(2) 0.35211(15)
H5_6 H 0.134346 0.939507 0.363247
C8_6 C 0.1265(3) 0.9774(2) 0.31519(15)
H6_6 H 0.139407 0.953652 0.301109
N1_6 N 0.10316(15) 0.98100(11) 0.48999(9)
C58_8 C 0.9869(2) 0.09699(14) 0.55115(14)
H54_8 H 0.993476 0.086596 0.527573
C59_8 C 0.9511(3) 0.13130(19) 0.55237(17)
H55_8 H 0.932549 0.144166 0.529508
C60_8 C 0.9414(3) 0.14744(19) 0.58596(19)
C61_8 C 0.9679(3) 0.1276(2) 0.61940(19)
H56_8 H 0.961110 0.138237 0.642851
C63_8 C 0.90176(17) 0.18474(15) 0.58828(16)
C64_8 C 0.8522(2) 0.17921(16) 0.56679(17)
H58_8 H 0.844385 0.152663 0.551011
C65_8 C 0.81421(16) 0.21251(19) 0.56838(17)
C66_8 C 0.82571(18) 0.25135(16) 0.59147(16)
C67_8 C 0.8752(2) 0.25689(15) 0.61296(16)
H59_8 H 0.883088 0.283434 0.628742
C68_8 C 0.91326(16) 0.22359(17) 0.61137(15)
H60_8 H 0.947106 0.227370 0.626060
C69_8 C 0.6773(2) 0.40186(14) 0.58488(13)
C70_8 C 0.7162(2) 0.36315(18) 0.58609(15)
C71_8 C 0.7425(3) 0.3456(2) 0.61996(18)
H61_8 H 0.735838 0.358468 0.642761
C72_8 C 0.7777(3) 0.3103(3) 0.6216(2)
H62_8 H 0.795111 0.298815 0.645358
C73_8 C 0.7881(3) 0.2911(2) 0.5885(2)
C74_8 C 0.7654(4) 0.3109(3) 0.5540(2)
H63_8 H 0.775527 0.300681 0.531499
C75_8 C 0.7277(3) 0.3462(2) 0.55254(17)
H64_8 H 0.710337 0.358186 0.529014
C76_8 C 0.7562(9) 0.2057(9) 0.5437(6)
C77_8 C 0.6681(5) 0.1861(7) 0.5594(5)
H65_8 H 0.663305 0.152733 0.551503
C78_8 C 0.6401(6) 0.2188(7) 0.5321(4)
H66_8 H 0.639915 0.249839 0.544084
H67_8 H 0.658758 0.221935 0.510854
C79_8 C 0.6374(7) 0.2007(8) 0.5942(4)
H68_8 H 0.633461 0.234981 0.595498
H69_8 H 0.656712 0.189350 0.618719
C80_8 C 0.5812(6) 0.2035(6) 0.5157(4)
C81_6 C 0.5857(8) 0.1645(7) 0.4865(7)
H70_6 H 0.606619 0.175793 0.468646
H71_6 H 0.550974 0.156057 0.472911
H72_6 H 0.602415 0.136961 0.499703
C82_6 C 0.5522(9) 0.2434(8) 0.4895(7)
H73_6 H 0.567763 0.246643 0.467083
H74_8 H 0.555392 0.273002 0.503358
H75_6 H 0.515352 0.235362 0.481851
C83_8 C 0.5826(6) 0.1762(8) 0.5838(4)
C84_8 C 0.5775(13) 0.1229(8) 0.5771(9)
H76_8 H 0.595205 0.106398 0.599695
H77_8 H 0.593361 0.114287 0.555666
H78_8 H 0.540684 0.114206 0.571842
C85_8 C 0.5465(8) 0.1988(7) 0.6094(6)
H79_8 H 0.556742 0.187182 0.635196
H80_8 H 0.510246 0.190247 0.599510
H81_8 H 0.550076 0.232773 0.609190
N7_8 N 0.7255(6) 0.2000(6) 0.5734(4)
H84_8 H 0.738816 0.204105 0.597402
N8_8 N 0.5541(6) 0.2028(7) 0.5475(4)
O13_8 O 0.7472(6) 0.1615(5) 0.5316(4)
O14_5 O 0.4990(7) 0.1966(4) 0.5414(5)
H90_5 H 0.481709 0.222245 0.52526
O14_6 O 0.9990(7) 0.3034(4) 0.0414(5)
H90_6 H 0.981709 0.277755 0.0252602
C1_7 C 0.1383(2) 0.03955(16) 0.97308(13)
H1_7 H 0.163375 0.059340 0.987724
C2_7 C 0.1401(2) 0.03359(19) 0.93559(14)
H2_7 H 0.165783 0.049067 0.924794
C3_7 C 0.1033(2) 0.00412(16) 0.91342(12)
C7_7 C 0.1235(3) 0.0312(2) 0.85211(15)
H5_7 H 0.134346 0.060493 0.863247
C8_7 C 0.1265(3) 0.0226(2) 0.81519(15)
H6_7 H 0.139407 0.046348 0.801109
N1_7 N 0.10316(15) 0.01900(11) 0.98999(9)
C81_7 C 0.5857(8) 0.8355(7) 0.9865(7)
H70_7 H 0.606619 0.824207 0.968646
H71_7 H 0.550974 0.843943 0.972911
H72_7 H 0.602415 0.863039 0.999703
C82_7 C 0.5522(9) 0.7566(8) 0.9895(7)
H73_7 H 0.567763 0.753357 0.967083
H75_7 H 0.515352 0.764638 0.981851
O14_7 O 0.9990(7) 0.6966(4) 0.5414(5)
H90_7 H 0.981709 0.722245 0.52526
O14_8 O 0.0010(7) 0.6966(4) 0.9586(5)
H90_8 H 0.0182911 0.722245 0.97474
C81_8 C 0.4143(8) 0.1645(7) 0.0135(7)
H70_8 H 0.393381 0.175793 0.031354
H71_8 H 0.449026 0.156057 0.027089
H72_8 H 0.397585 0.136961 0.000297
C82_8 C 0.4478(9) 0.2434(8) 0.0105(7)
H73_8 H 0.432237 0.246643 0.032917
H75_8 H 0.484648 0.235362 0.018149
C1_8 C 0.8617(2) 0.96045(16) 0.02692(13)
H1_8 H 0.836625 0.940660 0.012276
C2_8 C 0.8599(2) 0.96641(19) 0.06441(14)
H2_8 H 0.834217 0.950933 0.075206
C3_8 C 0.8967(2) 0.99588(16) 0.08658(12)
C7_8 C 0.8765(3) 0.9688(2) 0.14789(15)
H5_8 H 0.865654 0.939507 0.136753
C8_8 C 0.8735(3) 0.9774(2) 0.18481(15)
H6_8 H 0.860593 0.953652 0.198891
N1_8 N 0.89684(15) 0.98100(11) 0.01001(9)
loop_
_geom_bond_atom_site_label_1
_geom_bond_atom_site_label_2
_geom_bond_site_symmetry_1
_geom_bond_site_symmetry_2
O14 H90 1_555 1_555
C1 H1 1_555 1_555
C2 C1 1_555 1_555
H2 C2 1_555 1_555
C3 C2 1_555 1_555
C4 C3 1_555 1_555
H3 C4 1_555 1_555
C5 C4 1_555 1_555
H4 C5 1_555 1_555
C6 C3 1_555 1_555
C7 C6 1_555 1_555
H5 C7 1_555 1_555
C8 C7 1_555 1_555
H6 C8 1_555 1_555
C9 C8 1_555 1_555
C10 C9 1_555 1_555
C11 C6 1_555 1_555
H7 C11 1_555 1_555
C12 H8 1_555 1_555
C13 C12 1_555 1_555
H9 C13 1_555 1_555
C14 C9 1_555 1_555
C15 C14 1_555 1_555
H10 C15 1_555 1_555
C16 C15 1_555 1_555
H11 C16 1_555 1_555
C17 C10 1_555 1_555
C18 H12 1_555 1_555
C19 C18 1_555 1_555
H13 C19 1_555 1_555
H14 C19 1_555 1_555
C20 C19 1_555 1_555
C21 C22 1_555 1_555
C22 C18 1_555 1_555
H15 C22 1_555 1_555
H16 C22 1_555 1_555
C23 C20 1_555 1_555
H17 C23 1_555 1_555
H18 C23 1_555 1_555
H19 C23 1_555 1_555
C24 C20 1_555 1_555
H20 C24 1_555 1_555
H21 C24 1_555 1_555
H22 C24 1_555 1_555
C25 C21 1_555 1_555
H23 C25 1_555 1_555
H24 C25 1_555 1_555
H25 C25 1_555 1_555
C26 C21 1_555 1_555
H26 C26 1_555 1_555
H27 C26 1_555 1_555
H28 C26 1_555 1_555
C27 C28 1_555 1_555
C28 C29 1_555 1_555
C29 H29 1_555 1_555
C30 C29 1_555 1_555
H30 C30 1_555 1_555
C31 C30 1_555 1_555
C32 C31 1_555 1_555
H31 C32 1_555 1_555
C33 C28 1_555 1_555
H32 C33 1_555 1_555
C34 C31 1_555 1_555
C35 C34 1_555 1_555
C36 C35 1_555 1_555
H33 C36 1_555 1_555
C37 C36 1_555 1_555
C38 C37 1_555 1_555
H34 C38 1_555 1_555
C39 C34 1_555 1_555
H35 C39 1_555 1_555
C40 C37 1_555 1_555
C41 C40 1_555 1_555
H36 C41 1_555 1_555
C42 C41 1_555 1_555
H38 C44 1_555 1_555
C45 C40 1_555 1_555
H39 C45 1_555 1_555
C47 C35 1_555 1_555
C48 H40 1_555 1_555
C49 C48 1_555 1_555
H41 C49 1_555 1_555
H42 C49 1_555 1_555
C50 C49 1_555 1_555
C51 C52 1_555 1_555
C52 C48 1_555 1_555
H43 C52 1_555 1_555
H44 C52 1_555 1_555
C53 C51 1_555 1_555
H45 C53 1_555 1_555
H46 C53 1_555 1_555
H47 C53 1_555 1_555
C54 C50 1_555 1_555
H48 C54 1_555 1_555
H49 C54 1_555 1_555
H50 C54 1_555 1_555
C55 C50 1_555 1_555
H51 C55 1_555 1_555
H52 C55 1_555 1_555
H53 C55 1_555 1_555
C56 C57 1_555 1_555
C57 C58 1_555 1_555
C58 H54 1_555 1_555
C59 C58 1_555 1_555
H55 C59 1_555 1_555
C60 C59 1_555 1_555
C61 C60 1_555 1_555
H56 C61 1_555 1_555
C62 C57 1_555 1_555
H57 C62 1_555 1_555
C63 C60 1_555 1_555
C64 C63 1_555 1_555
H58 C64 1_555 1_555
C65 C64 1_555 1_555
C66 C65 1_555 1_555
C67 C66 1_555 1_555
H59 C67 1_555 1_555
C68 C63 1_555 1_555
H60 C68 1_555 1_555
C69 C70 1_555 1_555
C70 C71 1_555 1_555
C71 H61 1_555 1_555
C72 C71 1_555 1_555
H62 C72 1_555 1_555
C73 C66 1_555 1_555
C74 C73 1_555 1_555
H63 C74 1_555 1_555
C75 C70 1_555 1_555
H64 C75 1_555 1_555
C76 C65 1_555 1_555
C77 H65 1_555 1_555
C78 C77 1_555 1_555
H66 C78 1_555 1_555
H67 C78 1_555 1_555
C79 C77 1_555 1_555
H68 C79 1_555 1_555
H69 C79 1_555 1_555
C80 C78 1_555 1_555
C81 C80 1_555 1_555
H70 C81 1_555 1_555
H71 C81 1_555 1_555
H72 C81 1_555 1_555
C82 C80 1_555 1_555
H73 C82 1_555 1_555
H74 C82 1_555 1_555
H75 C82 1_555 1_555
C83 C79 1_555 1_555
C84 C83 1_555 1_555
H76 C84 1_555 1_555
H77 C84 1_555 1_555
H78 C84 1_555 1_555
C85 C83 1_555 1_555
H79 C85 1_555 1_555
H80 C85 1_555 1_555
H81 C85 1_555 1_555
N1 C1 1_555 1_555
N2 C12 1_555 1_555
N3 C17 1_555 1_555
H82 N3 1_555 1_555
N4 C20 1_555 1_555
N5 C47 1_555 1_555
H83 N5 1_555 1_555
N6 C50 1_555 1_555
N7 C76 1_555 1_555
H84 N7 1_555 1_555
N8 C80 1_555 1_555
O1 C17 1_555 1_555
O2 N4 1_555 1_555
O3 C47 1_555 1_555
O4 N6 1_555 1_555
O5 C27 1_555 1_555
O6 C27 1_555 1_555
O9 C56 1_555 1_555
O10 C56 1_555 1_555
O11 C69 1_555 1_555
O12 C69 1_555 1_555
O13 C76 1_555 1_555
Zn1 N1 1_555 1_555
Zn2 O6 1_555 1_555
C86 C51 1_555 1_555
H85 C86 1_555 1_555
H86 C86 1_555 1_555
H87 C86 1_555 1_555
N9 Zn2 1_555 1_555
O15 Zn1 1_555 1_555
O16 Zn2 1_555 1_555
O17 Zn2 1_555 1_555
O18 Zn1 1_555 1_555
Zn4 O12 1_555 1_555
Zn6 O11 1_555 1_555
Zn7 N2 1_555 1_555
C5 N1 1_555 1_555
C10 C11 1_555 1_555
C13 C14 1_555 1_555
C16 N2 1_555 1_555
C18 N3 1_555 1_555
C21 N4 1_555 1_555
C32 C33 1_555 1_555
C38 C39 1_555 1_555
C44 C45 1_555 1_555
C48 N5 1_555 1_555
C51 N6 1_555 1_555
C61 C62 1_555 1_555
C67 C68 1_555 1_555
C72 C73 1_555 1_555
C74 C75 1_555 1_555
C77 N7 1_555 1_555
C83 N8 1_555 1_555
O5 Zn1 1_555 1_555
O9 Zn2 1_555 1_555
O10 Zn1 1_555 1_555
O2 H88 1_555 1_555
O4 H89 1_555 1_555
C46 C43 1_555 1_555
O7 C46 1_555 1_555
O8 C46 1_555 1_555
Zn4 O7 1_555 1_555
Zn6 O8 1_555 1_555
C58_2 H54_2 1_555 1_555
C59_2 C58_2 1_555 1_555
H55_2 C59_2 1_555 1_555
C60_2 C59_2 1_555 1_555
C61_2 C60_2 1_555 1_555
H56_2 C61_2 1_555 1_555
C63_2 C60_2 1_555 1_555
C64_2 C63_2 1_555 1_555
H58_2 C64_2 1_555 1_555
C65_2 C64_2 1_555 1_555
C66_2 C65_2 1_555 1_555
C67_2 C66_2 1_555 1_555
H59_2 C67_2 1_555 1_555
C68_2 C63_2 1_555 1_555
H60_2 C68_2 1_555 1_555
C69_2 C70_2 1_555 1_555
C70_2 C71_2 1_555 1_555
C71_2 H61_2 1_555 1_555
C72_2 C71_2 1_555 1_555
H62_2 C72_2 1_555 1_555
C73_2 C66_2 1_555 1_555
C74_2 C73_2 1_555 1_555
H63_2 C74_2 1_555 1_555
C75_2 C70_2 1_555 1_555
H64_2 C75_2 1_555 1_555
C76_2 C65_2 1_555 1_555
C77_2 H65_2 1_555 1_555
C78_2 C77_2 1_555 1_555
H66_2 C78_2 1_555 1_555
H67_2 C78_2 1_555 1_555
C79_2 C77_2 1_555 1_555
H68_2 C79_2 1_555 1_555
H69_2 C79_2 1_555 1_555
C80_2 C78_2 1_555 1_555
C81_2 C80_2 1_555 1_555
H70_2 C81_2 1_555 1_555
H71_2 C81_2 1_555 1_555
H72_2 C81_2 1_555 1_555
C82_2 C80_2 1_555 1_555
H73_2 C82_2 1_555 1_555
H74_2 C82_2 1_555 1_555
H75_2 C82_2 1_555 1_555
C83_2 C79_2 1_555 1_555
C84_2 C83_2 1_555 1_555
H76_2 C84_2 1_555 1_555
H77_2 C84_2 1_555 1_555
H78_2 C84_2 1_555 1_555
C85_2 C83_2 1_555 1_555
H79_2 C85_2 1_555 1_555
H80_2 C85_2 1_555 1_555
H81_2 C85_2 1_555 1_555
N7_2 C76_2 1_555 1_555
H84_2 N7_2 1_555 1_555
N8_2 C80_2 1_555 1_555
O17 C69_2 1_555 1_555
O18 C69_2 1_555 1_555
O13_2 C76_2 1_555 1_555
O14_2 N8_2 1_555 1_555
C67_2 C68_2 1_555 1_555
C72_2 C73_2 1_555 1_555
C74_2 C75_2 1_555 1_555
C77_2 N7_2 1_555 1_555
C83_2 N8_2 1_555 1_555
O14_2 H90_2 1_555 1_555
C1_2 H1_2 1_555 1_555
C2_2 C1_2 1_555 1_555
H2_2 C2_2 1_555 1_555
C3_2 C2_2 1_555 1_555
H5_2 C7_2 1_555 1_555
C8_2 C7_2 1_555 1_555
H6_2 C8_2 1_555 1_555
N1_2 C1_2 1_555 1_555
Zn4 N1_2 1_555 1_555
N9_2 Zn6 1_555 1_555
H3_2 C4_2 1_555 1_555
C5_2 C4_2 1_555 1_555
H4_2 C5_2 1_555 1_555
C10_2 C9_2 1_555 1_555
C11_2 C6_2 1_555 1_555
H7_2 C11_2 1_555 1_555
C12_2 H8_2 1_555 1_555
C13_2 C12_2 1_555 1_555
H9_2 C13_2 1_555 1_555
C14_2 C9_2 1_555 1_555
C15_2 C14_2 1_555 1_555
H10_2 C15_2 1_555 1_555
C16_2 C15_2 1_555 1_555
H11_2 C16_2 1_555 1_555
C17_2 C10_2 1_555 1_555
C18_2 H12_2 1_555 1_555
C19_2 C18_2 1_555 1_555
H13_2 C19_2 1_555 1_555
H14_2 C19_2 1_555 1_555
C20_2 C19_2 1_555 1_555
C21_2 C22_2 1_555 1_555
C22_2 C18_2 1_555 1_555
H15_2 C22_2 1_555 1_555
H16_2 C22_2 1_555 1_555
C23_2 C20_2 1_555 1_555
H17_2 C23_2 1_555 1_555
H18_2 C23_2 1_555 1_555
H19_2 C23_2 1_555 1_555
C24_2 C20_2 1_555 1_555
H20_2 C24_2 1_555 1_555
H21_2 C24_2 1_555 1_555
H22_2 C24_2 1_555 1_555
C25_2 C21_2 1_555 1_555
H23_2 C25_2 1_555 1_555
H24_2 C25_2 1_555 1_555
H25_2 C25_2 1_555 1_555
C26_2 C21_2 1_555 1_555
H26_2 C26_2 1_555 1_555
H27_2 C26_2 1_555 1_555
H28_2 C26_2 1_555 1_555
C27_2 C28_2 1_555 1_555
C28_2 C29_2 1_555 1_555
C29_2 H29_2 1_555 1_555
C30_2 C29_2 1_555 1_555
H30_2 C30_2 1_555 1_555
C31_2 C30_2 1_555 1_555
C32_2 C31_2 1_555 1_555
H31_2 C32_2 1_555 1_555
C33_2 C28_2 1_555 1_555
H32_2 C33_2 1_555 1_555
C34_2 C31_2 1_555 1_555
C35_2 C34_2 1_555 1_555
C36_2 C35_2 1_555 1_555
H33_2 C36_2 1_555 1_555
C37_2 C36_2 1_555 1_555
C38_2 C37_2 1_555 1_555
H34_2 C38_2 1_555 1_555
C39_2 C34_2 1_555 1_555
H35_2 C39_2 1_555 1_555
C40_2 C37_2 1_555 1_555
C41_2 C40_2 1_555 1_555
H36_2 C41_2 1_555 1_555
C42_2 C41_2 1_555 1_555
H37_2 C42_2 1_555 1_555
C43_2 C42_2 1_555 1_555
C44_2 C43_2 1_555 1_555
H38_2 C44_2 1_555 1_555
C45_2 C40_2 1_555 1_555
H39_2 C45_2 1_555 1_555
C46_2 C43_2 1_555 1_555
C47_2 C35_2 1_555 1_555
C48_2 H40_2 1_555 1_555
C49_2 C48_2 1_555 1_555
H41_2 C49_2 1_555 1_555
H42_2 C49_2 1_555 1_555
C50_2 C49_2 1_555 1_555
C51_2 C52_2 1_555 1_555
C52_2 C48_2 1_555 1_555
H43_2 C52_2 1_555 1_555
H44_2 C52_2 1_555 1_555
C53_2 C51_2 1_555 1_555
H45_2 C53_2 1_555 1_555
H46_2 C53_2 1_555 1_555
H47_2 C53_2 1_555 1_555
C54_2 C50_2 1_555 1_555
H48_2 C54_2 1_555 1_555
H49_2 C54_2 1_555 1_555
H50_2 C54_2 1_555 1_555
C55_2 C50_2 1_555 1_555
H51_2 C55_2 1_555 1_555
H52_2 C55_2 1_555 1_555
H53_2 C55_2 1_555 1_555
C56_2 C57_2 1_555 1_555
C62_2 C57_2 1_555 1_555
H57_2 C62_2 1_555 1_555
N2_2 C12_2 1_555 1_555
N3_2 C17_2 1_555 1_555
H82_2 N3_2 1_555 1_555
N4_2 C20_2 1_555 1_555
N5_2 C47_2 1_555 1_555
H83_2 N5_2 1_555 1_555
N6_2 C50_2 1_555 1_555
O1_2 C17_2 1_555 1_555
O2_2 N4_2 1_555 1_555
O3_2 C47_2 1_555 1_555
O4_2 N6_2 1_555 1_555
O5_2 C27_2 1_555 1_555
O6_2 C27_2 1_555 1_555
O15 C46_2 1_555 1_555
O16 C46_2 1_555 1_555
O9_2 C56_2 1_555 1_555
O10_2 C56_2 1_555 1_555
C86_2 C51_2 1_555 1_555
H85_2 C86_2 1_555 1_555
H86_2 C86_2 1_555 1_555
H87_2 C86_2 1_555 1_555
Zn7_2 N2_2 1_555 1_555
C10_2 C11_2 1_555 1_555
C13_2 C14_2 1_555 1_555
C16_2 N2_2 1_555 1_555
C18_2 N3_2 1_555 1_555
C21_2 N4_2 1_555 1_555
C32_2 C33_2 1_555 1_555
C38_2 C39_2 1_555 1_555
C44_2 C45_2 1_555 1_555
C48_2 N5_2 1_555 1_555
C51_2 N6_2 1_555 1_555
O2_2 H88_2 1_555 1_555
O4_2 H89_2 1_555 1_555
C1_3 H1_3 1_555 1_555
C2_3 C1_3 1_555 1_555
H2_3 C2_3 1_555 1_555
C3_3 C2_3 1_555 1_555
C4_3 C3_3 1_555 1_555
H3_3 C4_3 1_555 1_555
C5_3 C4_3 1_555 1_555
H4_3 C5_3 1_555 1_555
C6_3 C3_3 1_555 1_555
C7_3 C6_3 1_555 1_555
H5_3 C7_3 1_555 1_555
C8_3 C7_3 1_555 1_555
H6_3 C8_3 1_555 1_555
C9_3 C8_3 1_555 1_555
C10_3 C9_3 1_555 1_555
C11_3 C6_3 1_555 1_555
H7_3 C11_3 1_555 1_555
C12_3 H8_3 1_555 1_555
C13_3 C12_3 1_555 1_555
H9_3 C13_3 1_555 1_555
C14_3 C9_3 1_555 1_555
C15_3 C14_3 1_555 1_555
H10_3 C15_3 1_555 1_555
C16_3 C15_3 1_555 1_555
H11_3 C16_3 1_555 1_555
C17_3 C10_3 1_555 1_555
C18_3 H12_3 1_555 1_555
C19_3 C18_3 1_555 1_555
H13_3 C19_3 1_555 1_555
H14_3 C19_3 1_555 1_555
C20_3 C19_3 1_555 1_555
C21_3 C22_3 1_555 1_555
C22_3 C18_3 1_555 1_555
H15_3 C22_3 1_555 1_555
H16_3 C22_3 1_555 1_555
C23_3 C20_3 1_555 1_555
H17_3 C23_3 1_555 1_555
H18_3 C23_3 1_555 1_555
H19_3 C23_3 1_555 1_555
C24_3 C20_3 1_555 1_555
H20_3 C24_3 1_555 1_555
H21_3 C24_3 1_555 1_555
H22_3 C24_3 1_555 1_555
C25_3 C21_3 1_555 1_555
H23_3 C25_3 1_555 1_555
H24_3 C25_3 1_555 1_555
H25_3 C25_3 1_555 1_555
C26_3 C21_3 1_555 1_555
H26_3 C26_3 1_555 1_555
H27_3 C26_3 1_555 1_555
H28_3 C26_3 1_555 1_555
C48_3 H40_3 1_555 1_555
C49_3 C48_3 1_555 1_555
H41_3 C49_3 1_555 1_555
H42_3 C49_3 1_555 1_555
C50_3 C49_3 1_555 1_555
C51_3 C52_3 1_555 1_555
C52_3 C48_3 1_555 1_555
H43_3 C52_3 1_555 1_555
H44_3 C52_3 1_555 1_555
C53_3 C51_3 1_555 1_555
H45_3 C53_3 1_555 1_555
H46_3 C53_3 1_555 1_555
H47_3 C53_3 1_555 1_555
C54_3 C50_3 1_555 1_555
H48_3 C54_3 1_555 1_555
H49_3 C54_3 1_555 1_555
H50_3 C54_3 1_555 1_555
C55_3 C50_3 1_555 1_555
H51_3 C55_3 1_555 1_555
H52_3 C55_3 1_555 1_555
H53_3 C55_3 1_555 1_555
H70_3 C81_3 1_555 1_555
H71_3 C81_3 1_555 1_555
H72_3 C81_3 1_555 1_555
H73_3 C82_3 1_555 1_555
H75_3 C82_3 1_555 1_555
N1_3 C1_3 1_555 1_555
N9 C12_3 1_555 1_555
N3_3 C17_3 1_555 1_555
H82_3 N3_3 1_555 1_555
N4_3 C20_3 1_555 1_555
H83_3 N5_3 1_555 1_555
N6_3 C50_3 1_555 1_555
O1_3 C17_3 1_555 1_555
O2_3 N4_3 1_555 1_555
O4_3 N6_3 1_555 1_555
C86_3 C51_3 1_555 1_555
H85_3 C86_3 1_555 1_555
H86_3 C86_3 1_555 1_555
H87_3 C86_3 1_555 1_555
C5_3 N1_3 1_555 1_555
C10_3 C11_3 1_555 1_555
C13_3 C14_3 1_555 1_555
C16_3 N9 1_555 1_555
C18_3 N3_3 1_555 1_555
C21_3 N4_3 1_555 1_555
C48_3 N5_3 1_555 1_555
C51_3 N6_3 1_555 1_555
O2_3 H88_3 1_555 1_555
O4_3 H89_3 1_555 1_555
C27_3 C28_3 1_555 1_555
C28_3 C29_3 1_555 1_555
C29_3 H29_3 1_555 1_555
C30_3 C29_3 1_555 1_555
H30_3 C30_3 1_555 1_555
C31_3 C30_3 1_555 1_555
C32_3 C31_3 1_555 1_555
H31_3 C32_3 1_555 1_555
C33_3 C28_3 1_555 1_555
H32_3 C33_3 1_555 1_555
C34_3 C31_3 1_555 1_555
C35_3 C34_3 1_555 1_555
C36_3 C35_3 1_555 1_555
H33_3 C36_3 1_555 1_555
C37_3 C36_3 1_555 1_555
C38_3 C37_3 1_555 1_555
H34_3 C38_3 1_555 1_555
C39_3 C34_3 1_555 1_555
H35_3 C39_3 1_555 1_555
C40_3 C37_3 1_555 1_555
C41_3 C40_3 1_555 1_555
H36_3 C41_3 1_555 1_555
C42_3 C41_3 1_555 1_555
H38_3 C44_3 1_555 1_555
C45_3 C40_3 1_555 1_555
H39_3 C45_3 1_555 1_555
C47_3 C35_3 1_555 1_555
C56_3 C57_3 1_555 1_555
C57_3 C58_3 1_555 1_555
C58_3 H54_3 1_555 1_555
C59_3 C58_3 1_555 1_555
H55_3 C59_3 1_555 1_555
C60_3 C59_3 1_555 1_555
C61_3 C60_3 1_555 1_555
H56_3 C61_3 1_555 1_555
C62_3 C57_3 1_555 1_555
H57_3 C62_3 1_555 1_555
C63_3 C60_3 1_555 1_555
C64_3 C63_3 1_555 1_555
H58_3 C64_3 1_555 1_555
C65_3 C64_3 1_555 1_555
C66_3 C65_3 1_555 1_555
C67_3 C66_3 1_555 1_555
H59_3 C67_3 1_555 1_555
C68_3 C63_3 1_555 1_555
H60_3 C68_3 1_555 1_555
C69_3 C70_3 1_555 1_555
C70_3 C71_3 1_555 1_555
C71_3 H61_3 1_555 1_555
C72_3 C71_3 1_555 1_555
H62_3 C72_3 1_555 1_555
C73_3 C66_3 1_555 1_555
C74_3 C73_3 1_555 1_555
H63_3 C74_3 1_555 1_555
C75_3 C70_3 1_555 1_555
H64_3 C75_3 1_555 1_555
C76_3 C65_3 1_555 1_555
C77_3 H65_3 1_555 1_555
C78_3 C77_3 1_555 1_555
H66_3 C78_3 1_555 1_555
H67_3 C78_3 1_555 1_555
C79_3 C77_3 1_555 1_555
H68_3 C79_3 1_555 1_555
H69_3 C79_3 1_555 1_555
C80_3 C78_3 1_555 1_555
C83_3 C79_3 1_555 1_555
C84_3 C83_3 1_555 1_555
H76_3 C84_3 1_555 1_555
H77_3 C84_3 1_555 1_555
H78_3 C84_3 1_555 1_555
C85_3 C83_3 1_555 1_555
H79_3 C85_3 1_555 1_555
H80_3 C85_3 1_555 1_555
H81_3 C85_3 1_555 1_555
N7_3 C76_3 1_555 1_555
H84_3 N7_3 1_555 1_555
N8_3 C80_3 1_555 1_555
O3_3 C47_3 1_555 1_555
O5_3 C27_3 1_555 1_555
O6_3 C27_3 1_555 1_555
O9_3 C56_3 1_555 1_555
O10_3 C56_3 1_555 1_555
O11_2 C69_3 1_555 1_555
O12_2 C69_3 1_555 1_555
O13_3 C76_3 1_555 1_555
Zn7 O6_3 1_555 1_555
O15_2 Zn1_2 1_555 1_555
O16_2 Zn7 1_555 1_555
O17_2 Zn7 1_555 1_555
O18_2 Zn1_2 1_555 1_555
Zn4_2 O12_2 1_555 1_555
Zn7_2 O11_2 1_555 1_555
C32_3 C33_3 1_555 1_555
C38_3 C39_3 1_555 1_555
C44_3 C45_3 1_555 1_555
C61_3 C62_3 1_555 1_555
C67_3 C68_3 1_555 1_555
C72_3 C73_3 1_555 1_555
C74_3 C75_3 1_555 1_555
C77_3 N7_3 1_555 1_555
C83_3 N8_3 1_555 1_555
O5_3 Zn1_2 1_555 1_555
O9_3 Zn7 1_555 1_555
O10_3 Zn1_2 1_555 1_555
C46_3 C43_3 1_555 1_555
O7_2 C46_3 1_555 1_555
O8_2 C46_3 1_555 1_555
Zn4_2 O7_2 1_555 1_555
Zn7_2 O8_2 1_555 1_555
C58_4 H54_4 1_555 1_555
C59_4 C58_4 1_555 1_555
H55_4 C59_4 1_555 1_555
C60_4 C59_4 1_555 1_555
C61_4 C60_4 1_555 1_555
H56_4 C61_4 1_555 1_555
C63_4 C60_4 1_555 1_555
C64_4 C63_4 1_555 1_555
H58_4 C64_4 1_555 1_555
C65_4 C64_4 1_555 1_555
C66_4 C65_4 1_555 1_555
C67_4 C66_4 1_555 1_555
H59_4 C67_4 1_555 1_555
C68_4 C63_4 1_555 1_555
H60_4 C68_4 1_555 1_555
C69_4 C70_4 1_555 1_555
C70_4 C71_4 1_555 1_555
C71_4 H61_4 1_555 1_555
C72_4 C71_4 1_555 1_555
H62_4 C72_4 1_555 1_555
C73_4 C66_4 1_555 1_555
C74_4 C73_4 1_555 1_555
H63_4 C74_4 1_555 1_555
C75_4 C70_4 1_555 1_555
H64_4 C75_4 1_555 1_555
C76_4 C65_4 1_555 1_555
C77_4 H65_4 1_555 1_555
C78_4 C77_4 1_555 1_555
H66_4 C78_4 1_555 1_555
H67_4 C78_4 1_555 1_555
C79_4 C77_4 1_555 1_555
H68_4 C79_4 1_555 1_555
H69_4 C79_4 1_555 1_555
C80_4 C78_4 1_555 1_555
C83_4 C79_4 1_555 1_555
C84_4 C83_4 1_555 1_555
H76_4 C84_4 1_555 1_555
H77_4 C84_4 1_555 1_555
H78_4 C84_4 1_555 1_555
C85_4 C83_4 1_555 1_555
H79_4 C85_4 1_555 1_555
H80_4 C85_4 1_555 1_555
H81_4 C85_4 1_555 1_555
N7_4 C76_4 1_555 1_555
H84_4 N7_4 1_555 1_555
N8_4 C80_4 1_555 1_555
O17_2 C69_4 1_555 1_555
O18_2 C69_4 1_555 1_555
O13_4 C76_4 1_555 1_555
O14_3 N8_4 1_555 1_555
C67_4 C68_4 1_555 1_555
C72_4 C73_4 1_555 1_555
C74_4 C75_4 1_555 1_555
C77_4 N7_4 1_555 1_555
C83_4 N8_4 1_555 1_555
O14_3 H90_3 1_555 1_555
H3_4 C4_4 1_555 1_555
C5_4 C4_4 1_555 1_555
H4_4 C5_4 1_555 1_555
C10_4 C9_4 1_555 1_555
C11_4 C6_4 1_555 1_555
H7_4 C11_4 1_555 1_555
C12_4 H8_4 1_555 1_555
C13_4 C12_4 1_555 1_555
H9_4 C13_4 1_555 1_555
C14_4 C9_4 1_555 1_555
C15_4 C14_4 1_555 1_555
H10_4 C15_4 1_555 1_555
C16_4 C15_4 1_555 1_555
H11_4 C16_4 1_555 1_555
C17_4 C10_4 1_555 1_555
C18_4 H12_4 1_555 1_555
C19_4 C18_4 1_555 1_555
H13_4 C19_4 1_555 1_555
H14_4 C19_4 1_555 1_555
C20_4 C19_4 1_555 1_555
C21_4 C22_4 1_555 1_555
C22_4 C18_4 1_555 1_555
H15_4 C22_4 1_555 1_555
H16_4 C22_4 1_555 1_555
C23_4 C20_4 1_555 1_555
H17_4 C23_4 1_555 1_555
H18_4 C23_4 1_555 1_555
H19_4 C23_4 1_555 1_555
C24_4 C20_4 1_555 1_555
H20_4 C24_4 1_555 1_555
H21_4 C24_4 1_555 1_555
H22_4 C24_4 1_555 1_555
C25_4 C21_4 1_555 1_555
H23_4 C25_4 1_555 1_555
H24_4 C25_4 1_555 1_555
H25_4 C25_4 1_555 1_555
C26_4 C21_4 1_555 1_555
H26_4 C26_4 1_555 1_555
H27_4 C26_4 1_555 1_555
H28_4 C26_4 1_555 1_555
C48_4 H40_4 1_555 1_555
C49_4 C48_4 1_555 1_555
H41_4 C49_4 1_555 1_555
H42_4 C49_4 1_555 1_555
C50_4 C49_4 1_555 1_555
C51_4 C52_4 1_555 1_555
C52_4 C48_4 1_555 1_555
H43_4 C52_4 1_555 1_555
H44_4 C52_4 1_555 1_555
C53_4 C51_4 1_555 1_555
H45_4 C53_4 1_555 1_555
H46_4 C53_4 1_555 1_555
H47_4 C53_4 1_555 1_555
C54_4 C50_4 1_555 1_555
H48_4 C54_4 1_555 1_555
H49_4 C54_4 1_555 1_555
H50_4 C54_4 1_555 1_555
C55_4 C50_4 1_555 1_555
H51_4 C55_4 1_555 1_555
H52_4 C55_4 1_555 1_555
H53_4 C55_4 1_555 1_555
N9_2 C12_4 1_555 1_555
N3_4 C17_4 1_555 1_555
H82_4 N3_4 1_555 1_555
N4_4 C20_4 1_555 1_555
H83_4 N5_4 1_555 1_555
N6_4 C50_4 1_555 1_555
O1_4 C17_4 1_555 1_555
O2_4 N4_4 1_555 1_555
O4_4 N6_4 1_555 1_555
C86_4 C51_4 1_555 1_555
H85_4 C86_4 1_555 1_555
H86_4 C86_4 1_555 1_555
H87_4 C86_4 1_555 1_555
C10_4 C11_4 1_555 1_555
C13_4 C14_4 1_555 1_555
C16_4 N9_2 1_555 1_555
C18_4 N3_4 1_555 1_555
C21_4 N4_4 1_555 1_555
C48_4 N5_4 1_555 1_555
C51_4 N6_4 1_555 1_555
O2_4 H88_4 1_555 1_555
O4_4 H89_4 1_555 1_555
C27_4 C28_4 1_555 1_555
C28_4 C29_4 1_555 1_555
C29_4 H29_4 1_555 1_555
C30_4 C29_4 1_555 1_555
H30_4 C30_4 1_555 1_555
C31_4 C30_4 1_555 1_555
C32_4 C31_4 1_555 1_555
H31_4 C32_4 1_555 1_555
C33_4 C28_4 1_555 1_555
H32_4 C33_4 1_555 1_555
C34_4 C31_4 1_555 1_555
C35_4 C34_4 1_555 1_555
C36_4 C35_4 1_555 1_555
H33_4 C36_4 1_555 1_555
C37_4 C36_4 1_555 1_555
C38_4 C37_4 1_555 1_555
H34_4 C38_4 1_555 1_555
C39_4 C34_4 1_555 1_555
H35_4 C39_4 1_555 1_555
C40_4 C37_4 1_555 1_555
C41_4 C40_4 1_555 1_555
H36_4 C41_4 1_555 1_555
C42_4 C41_4 1_555 1_555
H37_4 C42_4 1_555 1_555
C43_4 C42_4 1_555 1_555
C44_4 C43_4 1_555 1_555
H38_4 C44_4 1_555 1_555
C45_4 C40_4 1_555 1_555
H39_4 C45_4 1_555 1_555
C46_4 C43_4 1_555 1_555
C47_4 C35_4 1_555 1_555
C56_4 C57_4 1_555 1_555
C62_4 C57_4 1_555 1_555
H57_4 C62_4 1_555 1_555
O3_4 C47_4 1_555 1_555
O5_4 C27_4 1_555 1_555
O6_4 C27_4 1_555 1_555
O15_2 C46_4 1_555 1_555
O16_2 C46_4 1_555 1_555
O9_4 C56_4 1_555 1_555
O10_4 C56_4 1_555 1_555
C32_4 C33_4 1_555 1_555
C38_4 C39_4 1_555 1_555
C44_4 C45_4 1_555 1_555
C46_5 C43_5 1_555 1_555
O7_3 C46_5 1_555 1_555
O8_3 C46_5 1_555 1_555
Zn3 O7_3 1_555 1_555
Zn5 O8_3 1_555 1_555
C27_5 C28_5 1_555 1_555
C28_5 C29_5 1_555 1_555
C29_5 H29_5 1_555 1_555
C30_5 C29_5 1_555 1_555
H30_5 C30_5 1_555 1_555
C31_5 C30_5 1_555 1_555
C32_5 C31_5 1_555 1_555
H31_5 C32_5 1_555 1_555
C33_5 C28_5 1_555 1_555
H32_5 C33_5 1_555 1_555
C34_5 C31_5 1_555 1_555
C35_5 C34_5 1_555 1_555
C36_5 C35_5 1_555 1_555
H33_5 C36_5 1_555 1_555
C37_5 C36_5 1_555 1_555
C38_5 C37_5 1_555 1_555
H34_5 C38_5 1_555 1_555
C39_5 C34_5 1_555 1_555
H35_5 C39_5 1_555 1_555
C40_5 C37_5 1_555 1_555
C41_5 C40_5 1_555 1_555
H36_5 C41_5 1_555 1_555
C42_5 C41_5 1_555 1_555
H38_5 C44_5 1_555 1_555
C45_5 C40_5 1_555 1_555
H39_5 C45_5 1_555 1_555
C47_5 C35_5 1_555 1_555
C56_5 C57_5 1_555 1_555
C57_5 C58_5 1_555 1_555
C58_5 H54_5 1_555 1_555
C59_5 C58_5 1_555 1_555
H55_5 C59_5 1_555 1_555
C60_5 C59_5 1_555 1_555
C61_5 C60_5 1_555 1_555
H56_5 C61_5 1_555 1_555
C62_5 C57_5 1_555 1_555
H57_5 C62_5 1_555 1_555
C63_5 C60_5 1_555 1_555
C64_5 C63_5 1_555 1_555
H58_5 C64_5 1_555 1_555
C65_5 C64_5 1_555 1_555
C66_5 C65_5 1_555 1_555
C67_5 C66_5 1_555 1_555
H59_5 C67_5 1_555 1_555
C68_5 C63_5 1_555 1_555
H60_5 C68_5 1_555 1_555
C69_5 C70_5 1_555 1_555
C70_5 C71_5 1_555 1_555
C71_5 H61_5 1_555 1_555
C72_5 C71_5 1_555 1_555
H62_5 C72_5 1_555 1_555
C73_5 C66_5 1_555 1_555
C74_5 C73_5 1_555 1_555
H63_5 C74_5 1_555 1_555
C75_5 C70_5 1_555 1_555
H64_5 C75_5 1_555 1_555
C76_5 C65_5 1_555 1_555
C77_5 H65_5 1_555 1_555
C78_5 C77_5 1_555 1_555
H66_5 C78_5 1_555 1_555
H67_5 C78_5 1_555 1_555
C79_5 C77_5 1_555 1_555
H68_5 C79_5 1_555 1_555
H69_5 C79_5 1_555 1_555
C80_5 C78_5 1_555 1_555
C83_5 C79_5 1_555 1_555
C84_5 C83_5 1_555 1_555
H76_5 C84_5 1_555 1_555
H77_5 C84_5 1_555 1_555
H78_5 C84_5 1_555 1_555
C85_5 C83_5 1_555 1_555
H79_5 C85_5 1_555 1_555
H80_5 C85_5 1_555 1_555
H81_5 C85_5 1_555 1_555
N7_5 C76_5 1_555 1_555
H84_5 N7_5 1_555 1_555
N8_5 C80_5 1_555 1_555
O3_5 C47_5 1_555 1_555
O5_5 C27_5 1_555 1_555
O6_5 C27_5 1_555 1_555
O9_5 C56_5 1_555 1_555
O10_5 C56_5 1_555 1_555
O11_3 C69_5 1_555 1_555
O12_3 C69_5 1_555 1_555
O13_5 C76_5 1_555 1_555
Zn2_2 O6_5 1_555 1_555
N9_3 Zn2_2 1_555 1_555
O15_3 Zn1_3 1_555 1_555
O16_3 Zn2_2 1_555 1_555
O17_3 Zn2_2 1_555 1_555
O18_3 Zn1_3 1_555 1_555
Zn3 O12_3 1_555 1_555
Zn5 O11_3 1_555 1_555
C32_5 C33_5 1_555 1_555
C38_5 C39_5 1_555 1_555
C44_5 C45_5 1_555 1_555
C61_5 C62_5 1_555 1_555
C67_5 C68_5 1_555 1_555
C72_5 C73_5 1_555 1_555
C74_5 C75_5 1_555 1_555
C77_5 N7_5 1_555 1_555
C83_5 N8_5 1_555 1_555
O5_5 Zn1_3 1_555 1_555
O9_5 Zn2_2 1_555 1_555
O10_5 Zn1_3 1_555 1_555
C1_4 H1_4 1_555 1_555
C2_4 C1_4 1_555 1_555
H2_4 C2_4 1_555 1_555
C3_4 C2_4 1_555 1_555
C4_5 C3_4 1_555 1_555
H3_5 C4_5 1_555 1_555
C5_5 C4_5 1_555 1_555
H4_5 C5_5 1_555 1_555
C6_5 C3_4 1_555 1_555
C7_4 C6_5 1_555 1_555
H5_4 C7_4 1_555 1_555
C8_4 C7_4 1_555 1_555
H6_4 C8_4 1_555 1_555
C9_5 C8_4 1_555 1_555
C10_5 C9_5 1_555 1_555
C11_5 C6_5 1_555 1_555
H7_5 C11_5 1_555 1_555
C12_5 H8_5 1_555 1_555
C13_5 C12_5 1_555 1_555
H9_5 C13_5 1_555 1_555
C14_5 C9_5 1_555 1_555
C15_5 C14_5 1_555 1_555
H10_5 C15_5 1_555 1_555
C16_5 C15_5 1_555 1_555
H11_5 C16_5 1_555 1_555
C17_5 C10_5 1_555 1_555
C18_5 H12_5 1_555 1_555
C19_5 C18_5 1_555 1_555
H13_5 C19_5 1_555 1_555
H14_5 C19_5 1_555 1_555
C20_5 C19_5 1_555 1_555
C21_5 C22_5 1_555 1_555
C22_5 C18_5 1_555 1_555
H15_5 C22_5 1_555 1_555
H16_5 C22_5 1_555 1_555
C23_5 C20_5 1_555 1_555
H17_5 C23_5 1_555 1_555
H18_5 C23_5 1_555 1_555
H19_5 C23_5 1_555 1_555
C24_5 C20_5 1_555 1_555
H20_5 C24_5 1_555 1_555
H21_5 C24_5 1_555 1_555
H22_5 C24_5 1_555 1_555
C25_5 C21_5 1_555 1_555
H23_5 C25_5 1_555 1_555
H24_5 C25_5 1_555 1_555
H25_5 C25_5 1_555 1_555
C26_5 C21_5 1_555 1_555
H26_5 C26_5 1_555 1_555
H27_5 C26_5 1_555 1_555
H28_5 C26_5 1_555 1_555
C48_5 H40_5 1_555 1_555
C49_5 C48_5 1_555 1_555
H41_5 C49_5 1_555 1_555
H42_5 C49_5 1_555 1_555
C50_5 C49_5 1_555 1_555
C51_5 C52_5 1_555 1_555
C52_5 C48_5 1_555 1_555
H43_5 C52_5 1_555 1_555
H44_5 C52_5 1_555 1_555
C53_5 C51_5 1_555 1_555
H45_5 C53_5 1_555 1_555
H46_5 C53_5 1_555 1_555
H47_5 C53_5 1_555 1_555
C54_5 C50_5 1_555 1_555
H48_5 C54_5 1_555 1_555
H49_5 C54_5 1_555 1_555
H50_5 C54_5 1_555 1_555
C55_5 C50_5 1_555 1_555
H51_5 C55_5 1_555 1_555
H52_5 C55_5 1_555 1_555
H53_5 C55_5 1_555 1_555
H70_4 C81_4 1_555 1_555
H71_4 C81_4 1_555 1_555
H72_4 C81_4 1_555 1_555
H73_4 C82_4 1_555 1_555
H75_4 C82_4 1_555 1_555
N1_4 C1_4 1_555 1_555
N2_3 C12_5 1_555 1_555
N3_5 C17_5 1_555 1_555
H82_5 N3_5 1_555 1_555
N4_5 C20_5 1_555 1_555
H83_5 N5_5 1_555 1_555
N6_5 C50_5 1_555 1_555
O1_5 C17_5 1_555 1_555
O2_5 N4_5 1_555 1_555
O4_5 N6_5 1_555 1_555
C86_5 C51_5 1_555 1_555
H85_5 C86_5 1_555 1_555
H86_5 C86_5 1_555 1_555
H87_5 C86_5 1_555 1_555
Zn7_3 N2_3 1_555 1_555
C5_5 N1_4 1_555 1_555
C10_5 C11_5 1_555 1_555
C13_5 C14_5 1_555 1_555
C16_5 N2_3 1_555 1_555
C18_5 N3_5 1_555 1_555
C21_5 N4_5 1_555 1_555
C48_5 N5_5 1_555 1_555
C51_5 N6_5 1_555 1_555
O2_5 H88_5 1_555 1_555
O4_5 H89_5 1_555 1_555
N9_4 Zn5 1_555 1_555
C27_6 C28_6 1_555 1_555
C28_6 C29_6 1_555 1_555
C29_6 H29_6 1_555 1_555
C30_6 C29_6 1_555 1_555
H30_6 C30_6 1_555 1_555
C31_6 C30_6 1_555 1_555
C32_6 C31_6 1_555 1_555
H31_6 C32_6 1_555 1_555
C33_6 C28_6 1_555 1_555
H32_6 C33_6 1_555 1_555
C34_6 C31_6 1_555 1_555
C35_6 C34_6 1_555 1_555
C36_6 C35_6 1_555 1_555
H33_6 C36_6 1_555 1_555
C37_6 C36_6 1_555 1_555
C38_6 C37_6 1_555 1_555
H34_6 C38_6 1_555 1_555
C39_6 C34_6 1_555 1_555
H35_6 C39_6 1_555 1_555
C40_6 C37_6 1_555 1_555
C41_6 C40_6 1_555 1_555
H36_6 C41_6 1_555 1_555
C42_6 C41_6 1_555 1_555
H37_6 C42_6 1_555 1_555
C43_6 C42_6 1_555 1_555
C44_6 C43_6 1_555 1_555
H38_6 C44_6 1_555 1_555
C45_6 C40_6 1_555 1_555
H39_6 C45_6 1_555 1_555
C46_6 C43_6 1_555 1_555
C47_6 C35_6 1_555 1_555
C56_6 C57_6 1_555 1_555
C62_6 C57_6 1_555 1_555
H57_6 C62_6 1_555 1_555
O3_6 C47_6 1_555 1_555
O5_6 C27_6 1_555 1_555
O6_6 C27_6 1_555 1_555
O15_3 C46_6 1_555 1_555
O16_3 C46_6 1_555 1_555
O9_6 C56_6 1_555 1_555
O10_6 C56_6 1_555 1_555
C32_6 C33_6 1_555 1_555
C38_6 C39_6 1_555 1_555
C44_6 C45_6 1_555 1_555
H3_6 C4_6 1_555 1_555
C5_6 C4_6 1_555 1_555
H4_6 C5_6 1_555 1_555
C10_6 C9_6 1_555 1_555
C11_6 C6_6 1_555 1_555
H7_6 C11_6 1_555 1_555
C12_6 H8_6 1_555 1_555
C13_6 C12_6 1_555 1_555
H9_6 C13_6 1_555 1_555
C14_6 C9_6 1_555 1_555
C15_6 C14_6 1_555 1_555
H10_6 C15_6 1_555 1_555
C16_6 C15_6 1_555 1_555
H11_6 C16_6 1_555 1_555
C17_6 C10_6 1_555 1_555
C18_6 H12_6 1_555 1_555
C19_6 C18_6 1_555 1_555
H13_6 C19_6 1_555 1_555
H14_6 C19_6 1_555 1_555
C20_6 C19_6 1_555 1_555
C21_6 C22_6 1_555 1_555
C22_6 C18_6 1_555 1_555
H15_6 C22_6 1_555 1_555
H16_6 C22_6 1_555 1_555
C23_6 C20_6 1_555 1_555
H17_6 C23_6 1_555 1_555
H18_6 C23_6 1_555 1_555
H19_6 C23_6 1_555 1_555
C24_6 C20_6 1_555 1_555
H20_6 C24_6 1_555 1_555
H21_6 C24_6 1_555 1_555
H22_6 C24_6 1_555 1_555
C25_6 C21_6 1_555 1_555
H23_6 C25_6 1_555 1_555
H24_6 C25_6 1_555 1_555
H25_6 C25_6 1_555 1_555
C26_6 C21_6 1_555 1_555
H26_6 C26_6 1_555 1_555
H27_6 C26_6 1_555 1_555
H28_6 C26_6 1_555 1_555
C48_6 H40_6 1_555 1_555
C49_6 C48_6 1_555 1_555
H41_6 C49_6 1_555 1_555
H42_6 C49_6 1_555 1_555
C50_6 C49_6 1_555 1_555
C51_6 C52_6 1_555 1_555
C52_6 C48_6 1_555 1_555
H43_6 C52_6 1_555 1_555
H44_6 C52_6 1_555 1_555
C53_6 C51_6 1_555 1_555
H45_6 C53_6 1_555 1_555
H46_6 C53_6 1_555 1_555
H47_6 C53_6 1_555 1_555
C54_6 C50_6 1_555 1_555
H48_6 C54_6 1_555 1_555
H49_6 C54_6 1_555 1_555
H50_6 C54_6 1_555 1_555
C55_6 C50_6 1_555 1_555
H51_6 C55_6 1_555 1_555
H52_6 C55_6 1_555 1_555
H53_6 C55_6 1_555 1_555
N2_4 C12_6 1_555 1_555
N3_6 C17_6 1_555 1_555
H82_6 N3_6 1_555 1_555
N4_6 C20_6 1_555 1_555
H83_6 N5_6 1_555 1_555
N6_6 C50_6 1_555 1_555
O1_6 C17_6 1_555 1_555
O2_6 N4_6 1_555 1_555
O4_6 N6_6 1_555 1_555
C86_6 C51_6 1_555 1_555
H85_6 C86_6 1_555 1_555
H86_6 C86_6 1_555 1_555
H87_6 C86_6 1_555 1_555
Zn7_4 N2_4 1_555 1_555
C10_6 C11_6 1_555 1_555
C13_6 C14_6 1_555 1_555
C16_6 N2_4 1_555 1_555
C18_6 N3_6 1_555 1_555
C21_6 N4_6 1_555 1_555
C48_6 N5_6 1_555 1_555
C51_6 N6_6 1_555 1_555
O2_6 H88_6 1_555 1_555
O4_6 H89_6 1_555 1_555
C58_6 H54_6 1_555 1_555
C59_6 C58_6 1_555 1_555
H55_6 C59_6 1_555 1_555
C60_6 C59_6 1_555 1_555
C61_6 C60_6 1_555 1_555
H56_6 C61_6 1_555 1_555
C63_6 C60_6 1_555 1_555
C64_6 C63_6 1_555 1_555
H58_6 C64_6 1_555 1_555
C65_6 C64_6 1_555 1_555
C66_6 C65_6 1_555 1_555
C67_6 C66_6 1_555 1_555
H59_6 C67_6 1_555 1_555
C68_6 C63_6 1_555 1_555
H60_6 C68_6 1_555 1_555
C69_6 C70_6 1_555 1_555
C70_6 C71_6 1_555 1_555
C71_6 H61_6 1_555 1_555
C72_6 C71_6 1_555 1_555
H62_6 C72_6 1_555 1_555
C73_6 C66_6 1_555 1_555
C74_6 C73_6 1_555 1_555
H63_6 C74_6 1_555 1_555
C75_6 C70_6 1_555 1_555
H64_6 C75_6 1_555 1_555
C76_6 C65_6 1_555 1_555
C77_6 H65_6 1_555 1_555
C78_6 C77_6 1_555 1_555
H66_6 C78_6 1_555 1_555
H67_6 C78_6 1_555 1_555
C79_6 C77_6 1_555 1_555
H68_6 C79_6 1_555 1_555
H69_6 C79_6 1_555 1_555
C80_6 C78_6 1_555 1_555
C83_6 C79_6 1_555 1_555
C84_6 C83_6 1_555 1_555
H76_6 C84_6 1_555 1_555
H77_6 C84_6 1_555 1_555
H78_6 C84_6 1_555 1_555
C85_6 C83_6 1_555 1_555
H79_6 C85_6 1_555 1_555
H80_6 C85_6 1_555 1_555
H81_6 C85_6 1_555 1_555
N7_6 C76_6 1_555 1_555
H84_6 N7_6 1_555 1_555
N8_6 C80_6 1_555 1_555
O17_3 C69_6 1_555 1_555
O18_3 C69_6 1_555 1_555
O13_6 C76_6 1_555 1_555
O14_4 N8_6 1_555 1_555
C67_6 C68_6 1_555 1_555
C72_6 C73_6 1_555 1_555
C74_6 C75_6 1_555 1_555
C77_6 N7_6 1_555 1_555
C83_6 N8_6 1_555 1_555
O14_4 H90_4 1_555 1_555
C46_7 C43_7 1_555 1_555
O7_4 C46_7 1_555 1_555
O8_4 C46_7 1_555 1_555
Zn3_2 O7_4 1_555 1_555
Zn7_4 O8_4 1_555 1_555
C1_5 H1_5 1_555 1_555
C2_5 C1_5 1_555 1_555
H2_5 C2_5 1_555 1_555
C3_5 C2_5 1_555 1_555
C4_7 C3_5 1_555 1_555
H3_7 C4_7 1_555 1_555
C5_7 C4_7 1_555 1_555
H4_7 C5_7 1_555 1_555
C6_7 C3_5 1_555 1_555
C7_5 C6_7 1_555 1_555
H5_5 C7_5 1_555 1_555
C8_5 C7_5 1_555 1_555
H6_5 C8_5 1_555 1_555
C9_7 C8_5 1_555 1_555
C10_7 C9_7 1_555 1_555
C11_7 C6_7 1_555 1_555
H7_7 C11_7 1_555 1_555
C12_7 H8_7 1_555 1_555
C13_7 C12_7 1_555 1_555
H9_7 C13_7 1_555 1_555
C14_7 C9_7 1_555 1_555
C15_7 C14_7 1_555 1_555
H10_7 C15_7 1_555 1_555
C16_7 C15_7 1_555 1_555
H11_7 C16_7 1_555 1_555
C17_7 C10_7 1_555 1_555
C18_7 H12_7 1_555 1_555
C19_7 C18_7 1_555 1_555
H13_7 C19_7 1_555 1_555
H14_7 C19_7 1_555 1_555
C20_7 C19_7 1_555 1_555
C21_7 C22_7 1_555 1_555
C22_7 C18_7 1_555 1_555
H15_7 C22_7 1_555 1_555
H16_7 C22_7 1_555 1_555
C23_7 C20_7 1_555 1_555
H17_7 C23_7 1_555 1_555
H18_7 C23_7 1_555 1_555
H19_7 C23_7 1_555 1_555
C24_7 C20_7 1_555 1_555
H20_7 C24_7 1_555 1_555
H21_7 C24_7 1_555 1_555
H22_7 C24_7 1_555 1_555
C25_7 C21_7 1_555 1_555
H23_7 C25_7 1_555 1_555
H24_7 C25_7 1_555 1_555
H25_7 C25_7 1_555 1_555
C26_7 C21_7 1_555 1_555
H26_7 C26_7 1_555 1_555
H27_7 C26_7 1_555 1_555
H28_7 C26_7 1_555 1_555
C27_7 C28_7 1_555 1_555
C28_7 C29_7 1_555 1_555
C29_7 H29_7 1_555 1_555
C30_7 C29_7 1_555 1_555
H30_7 C30_7 1_555 1_555
C31_7 C30_7 1_555 1_555
C32_7 C31_7 1_555 1_555
H31_7 C32_7 1_555 1_555
C33_7 C28_7 1_555 1_555
H32_7 C33_7 1_555 1_555
C34_7 C31_7 1_555 1_555
C35_7 C34_7 1_555 1_555
C36_7 C35_7 1_555 1_555
H33_7 C36_7 1_555 1_555
C37_7 C36_7 1_555 1_555
C38_7 C37_7 1_555 1_555
H34_7 C38_7 1_555 1_555
C39_7 C34_7 1_555 1_555
H35_7 C39_7 1_555 1_555
C40_7 C37_7 1_555 1_555
C41_7 C40_7 1_555 1_555
H36_7 C41_7 1_555 1_555
C42_7 C41_7 1_555 1_555
H38_7 C44_7 1_555 1_555
C45_7 C40_7 1_555 1_555
H39_7 C45_7 1_555 1_555
C47_7 C35_7 1_555 1_555
C48_7 H40_7 1_555 1_555
C49_7 C48_7 1_555 1_555
H41_7 C49_7 1_555 1_555
H42_7 C49_7 1_555 1_555
C50_7 C49_7 1_555 1_555
C51_7 C52_7 1_555 1_555
C52_7 C48_7 1_555 1_555
H43_7 C52_7 1_555 1_555
H44_7 C52_7 1_555 1_555
C53_7 C51_7 1_555 1_555
H45_7 C53_7 1_555 1_555
H46_7 C53_7 1_555 1_555
H47_7 C53_7 1_555 1_555
C54_7 C50_7 1_555 1_555
H48_7 C54_7 1_555 1_555
H49_7 C54_7 1_555 1_555
H50_7 C54_7 1_555 1_555
C55_7 C50_7 1_555 1_555
H51_7 C55_7 1_555 1_555
H52_7 C55_7 1_555 1_555
H53_7 C55_7 1_555 1_555
C56_7 C57_7 1_555 1_555
C57_7 C58_7 1_555 1_555
C58_7 H54_7 1_555 1_555
C59_7 C58_7 1_555 1_555
H55_7 C59_7 1_555 1_555
C60_7 C59_7 1_555 1_555
C61_7 C60_7 1_555 1_555
H56_7 C61_7 1_555 1_555
C62_7 C57_7 1_555 1_555
H57_7 C62_7 1_555 1_555
C63_7 C60_7 1_555 1_555
C64_7 C63_7 1_555 1_555
H58_7 C64_7 1_555 1_555
C65_7 C64_7 1_555 1_555
C66_7 C65_7 1_555 1_555
C67_7 C66_7 1_555 1_555
H59_7 C67_7 1_555 1_555
C68_7 C63_7 1_555 1_555
H60_7 C68_7 1_555 1_555
C69_7 C70_7 1_555 1_555
C70_7 C71_7 1_555 1_555
C71_7 H61_7 1_555 1_555
C72_7 C71_7 1_555 1_555
H62_7 C72_7 1_555 1_555
C73_7 C66_7 1_555 1_555
C74_7 C73_7 1_555 1_555
H63_7 C74_7 1_555 1_555
C75_7 C70_7 1_555 1_555
H64_7 C75_7 1_555 1_555
C76_7 C65_7 1_555 1_555
C77_7 H65_7 1_555 1_555
C78_7 C77_7 1_555 1_555
H66_7 C78_7 1_555 1_555
H67_7 C78_7 1_555 1_555
C79_7 C77_7 1_555 1_555
H68_7 C79_7 1_555 1_555
H69_7 C79_7 1_555 1_555
C80_7 C78_7 1_555 1_555
C81_5 C80_7 1_555 1_555
H70_5 C81_5 1_555 1_555
H71_5 C81_5 1_555 1_555
H72_5 C81_5 1_555 1_555
C82_5 C80_7 1_555 1_555
H73_5 C82_5 1_555 1_555
H74_7 C82_5 1_555 1_555
H75_5 C82_5 1_555 1_555
C83_7 C79_7 1_555 1_555
C84_7 C83_7 1_555 1_555
H76_7 C84_7 1_555 1_555
H77_7 C84_7 1_555 1_555
H78_7 C84_7 1_555 1_555
C85_7 C83_7 1_555 1_555
H79_7 C85_7 1_555 1_555
H80_7 C85_7 1_555 1_555
H81_7 C85_7 1_555 1_555
N1_5 C1_5 1_555 1_555
N9_3 C12_7 1_555 1_555
N3_7 C17_7 1_555 1_555
H82_7 N3_7 1_555 1_555
N4_7 C20_7 1_555 1_555
N5_7 C47_7 1_555 1_555
H83_7 N5_7 1_555 1_555
N6_7 C50_7 1_555 1_555
N7_7 C76_7 1_555 1_555
H84_7 N7_7 1_555 1_555
N8_7 C80_7 1_555 1_555
O1_7 C17_7 1_555 1_555
O2_7 N4_7 1_555 1_555
O3_7 C47_7 1_555 1_555
O4_7 N6_7 1_555 1_555
O5_7 C27_7 1_555 1_555
O6_7 C27_7 1_555 1_555
O9_7 C56_7 1_555 1_555
O10_7 C56_7 1_555 1_555
O11_4 C69_7 1_555 1_555
O12_4 C69_7 1_555 1_555
O13_7 C76_7 1_555 1_555
Zn1_4 N1_5 1_555 1_555
Zn7_3 O6_7 1_555 1_555
C86_7 C51_7 1_555 1_555
H85_7 C86_7 1_555 1_555
H86_7 C86_7 1_555 1_555
H87_7 C86_7 1_555 1_555
O15_4 Zn1_4 1_555 1_555
O16_4 Zn7_3 1_555 1_555
O17_4 Zn7_3 1_555 1_555
O18_4 Zn1_4 1_555 1_555
Zn3_2 O12_4 1_555 1_555
Zn7_4 O11_4 1_555 1_555
C5_7 N1_5 1_555 1_555
C10_7 C11_7 1_555 1_555
C13_7 C14_7 1_555 1_555
C16_7 N9_3 1_555 1_555
C18_7 N3_7 1_555 1_555
C21_7 N4_7 1_555 1_555
C32_7 C33_7 1_555 1_555
C38_7 C39_7 1_555 1_555
C44_7 C45_7 1_555 1_555
C48_7 N5_7 1_555 1_555
C51_7 N6_7 1_555 1_555
C61_7 C62_7 1_555 1_555
C67_7 C68_7 1_555 1_555
C72_7 C73_7 1_555 1_555
C74_7 C75_7 1_555 1_555
C77_7 N7_7 1_555 1_555
C83_7 N8_7 1_555 1_555
O5_7 Zn1_4 1_555 1_555
O9_7 Zn7_3 1_555 1_555
O10_7 Zn1_4 1_555 1_555
O2_7 H88_7 1_555 1_555
O4_7 H89_7 1_555 1_555
H3_8 C4_8 1_555 1_555
C5_8 C4_8 1_555 1_555
H4_8 C5_8 1_555 1_555
C10_8 C9_8 1_555 1_555
C11_8 C6_8 1_555 1_555
H7_8 C11_8 1_555 1_555
C12_8 H8_8 1_555 1_555
C13_8 C12_8 1_555 1_555
H9_8 C13_8 1_555 1_555
C14_8 C9_8 1_555 1_555
C15_8 C14_8 1_555 1_555
H10_8 C15_8 1_555 1_555
C16_8 C15_8 1_555 1_555
H11_8 C16_8 1_555 1_555
C17_8 C10_8 1_555 1_555
C18_8 H12_8 1_555 1_555
C19_8 C18_8 1_555 1_555
H13_8 C19_8 1_555 1_555
H14_8 C19_8 1_555 1_555
C20_8 C19_8 1_555 1_555
C21_8 C22_8 1_555 1_555
C22_8 C18_8 1_555 1_555
H15_8 C22_8 1_555 1_555
H16_8 C22_8 1_555 1_555
C23_8 C20_8 1_555 1_555
H17_8 C23_8 1_555 1_555
H18_8 C23_8 1_555 1_555
H19_8 C23_8 1_555 1_555
C24_8 C20_8 1_555 1_555
H20_8 C24_8 1_555 1_555
H21_8 C24_8 1_555 1_555
H22_8 C24_8 1_555 1_555
C25_8 C21_8 1_555 1_555
H23_8 C25_8 1_555 1_555
H24_8 C25_8 1_555 1_555
H25_8 C25_8 1_555 1_555
C26_8 C21_8 1_555 1_555
H26_8 C26_8 1_555 1_555
H27_8 C26_8 1_555 1_555
H28_8 C26_8 1_555 1_555
C27_8 C28_8 1_555 1_555
C28_8 C29_8 1_555 1_555
C29_8 H29_8 1_555 1_555
C30_8 C29_8 1_555 1_555
H30_8 C30_8 1_555 1_555
C31_8 C30_8 1_555 1_555
C32_8 C31_8 1_555 1_555
H31_8 C32_8 1_555 1_555
C33_8 C28_8 1_555 1_555
H32_8 C33_8 1_555 1_555
C34_8 C31_8 1_555 1_555
C35_8 C34_8 1_555 1_555
C36_8 C35_8 1_555 1_555
H33_8 C36_8 1_555 1_555
C37_8 C36_8 1_555 1_555
C38_8 C37_8 1_555 1_555
H34_8 C38_8 1_555 1_555
C39_8 C34_8 1_555 1_555
H35_8 C39_8 1_555 1_555
C40_8 C37_8 1_555 1_555
C41_8 C40_8 1_555 1_555
H36_8 C41_8 1_555 1_555
C42_8 C41_8 1_555 1_555
H37_8 C42_8 1_555 1_555
C43_8 C42_8 1_555 1_555
C44_8 C43_8 1_555 1_555
H38_8 C44_8 1_555 1_555
C45_8 C40_8 1_555 1_555
H39_8 C45_8 1_555 1_555
C46_8 C43_8 1_555 1_555
C47_8 C35_8 1_555 1_555
C48_8 H40_8 1_555 1_555
C49_8 C48_8 1_555 1_555
H41_8 C49_8 1_555 1_555
H42_8 C49_8 1_555 1_555
C50_8 C49_8 1_555 1_555
C51_8 C52_8 1_555 1_555
C52_8 C48_8 1_555 1_555
H43_8 C52_8 1_555 1_555
H44_8 C52_8 1_555 1_555
C53_8 C51_8 1_555 1_555
H45_8 C53_8 1_555 1_555
H46_8 C53_8 1_555 1_555
H47_8 C53_8 1_555 1_555
C54_8 C50_8 1_555 1_555
H48_8 C54_8 1_555 1_555
H49_8 C54_8 1_555 1_555
H50_8 C54_8 1_555 1_555
C55_8 C50_8 1_555 1_555
H51_8 C55_8 1_555 1_555
H52_8 C55_8 1_555 1_555
H53_8 C55_8 1_555 1_555
C56_8 C57_8 1_555 1_555
C62_8 C57_8 1_555 1_555
H57_8 C62_8 1_555 1_555
N9_4 C12_8 1_555 1_555
N3_8 C17_8 1_555 1_555
H82_8 N3_8 1_555 1_555
N4_8 C20_8 1_555 1_555
N5_8 C47_8 1_555 1_555
H83_8 N5_8 1_555 1_555
N6_8 C50_8 1_555 1_555
O1_8 C17_8 1_555 1_555
O2_8 N4_8 1_555 1_555
O3_8 C47_8 1_555 1_555
O4_8 N6_8 1_555 1_555
O5_8 C27_8 1_555 1_555
O6_8 C27_8 1_555 1_555
O15_4 C46_8 1_555 1_555
O16_4 C46_8 1_555 1_555
O9_8 C56_8 1_555 1_555
O10_8 C56_8 1_555 1_555
C86_8 C51_8 1_555 1_555
H85_8 C86_8 1_555 1_555
H86_8 C86_8 1_555 1_555
H87_8 C86_8 1_555 1_555
C10_8 C11_8 1_555 1_555
C13_8 C14_8 1_555 1_555
C16_8 N9_4 1_555 1_555
C18_8 N3_8 1_555 1_555
C21_8 N4_8 1_555 1_555
C32_8 C33_8 1_555 1_555
C38_8 C39_8 1_555 1_555
C44_8 C45_8 1_555 1_555
C48_8 N5_8 1_555 1_555
C51_8 N6_8 1_555 1_555
O2_8 H88_8 1_555 1_555
O4_8 H89_8 1_555 1_555
C1_6 H1_6 1_555 1_555
C2_6 C1_6 1_555 1_555
H2_6 C2_6 1_555 1_555
C3_6 C2_6 1_555 1_555
H5_6 C7_6 1_555 1_555
C8_6 C7_6 1_555 1_555
H6_6 C8_6 1_555 1_555
N1_6 C1_6 1_555 1_555
Zn3_2 N1_6 1_555 1_555
C58_8 H54_8 1_555 1_555
C59_8 C58_8 1_555 1_555
H55_8 C59_8 1_555 1_555
C60_8 C59_8 1_555 1_555
C61_8 C60_8 1_555 1_555
H56_8 C61_8 1_555 1_555
C63_8 C60_8 1_555 1_555
C64_8 C63_8 1_555 1_555
H58_8 C64_8 1_555 1_555
C65_8 C64_8 1_555 1_555
C66_8 C65_8 1_555 1_555
C67_8 C66_8 1_555 1_555
H59_8 C67_8 1_555 1_555
C68_8 C63_8 1_555 1_555
H60_8 C68_8 1_555 1_555
C69_8 C70_8 1_555 1_555
C70_8 C71_8 1_555 1_555
C71_8 H61_8 1_555 1_555
C72_8 C71_8 1_555 1_555
H62_8 C72_8 1_555 1_555
C73_8 C66_8 1_555 1_555
C74_8 C73_8 1_555 1_555
H63_8 C74_8 1_555 1_555
C75_8 C70_8 1_555 1_555
H64_8 C75_8 1_555 1_555
C76_8 C65_8 1_555 1_555
C77_8 H65_8 1_555 1_555
C78_8 C77_8 1_555 1_555
H66_8 C78_8 1_555 1_555
H67_8 C78_8 1_555 1_555
C79_8 C77_8 1_555 1_555
H68_8 C79_8 1_555 1_555
H69_8 C79_8 1_555 1_555
C80_8 C78_8 1_555 1_555
C81_6 C80_8 1_555 1_555
H70_6 C81_6 1_555 1_555
H71_6 C81_6 1_555 1_555
H72_6 C81_6 1_555 1_555
C82_6 C80_8 1_555 1_555
H73_6 C82_6 1_555 1_555
H74_8 C82_6 1_555 1_555
H75_6 C82_6 1_555 1_555
C83_8 C79_8 1_555 1_555
C84_8 C83_8 1_555 1_555
H76_8 C84_8 1_555 1_555
H77_8 C84_8 1_555 1_555
H78_8 C84_8 1_555 1_555
C85_8 C83_8 1_555 1_555
H79_8 C85_8 1_555 1_555
H80_8 C85_8 1_555 1_555
H81_8 C85_8 1_555 1_555
N7_8 C76_8 1_555 1_555
H84_8 N7_8 1_555 1_555
N8_8 C80_8 1_555 1_555
O17_4 C69_8 1_555 1_555
O18_4 C69_8 1_555 1_555
O13_8 C76_8 1_555 1_555
O14_5 N8_8 1_555 1_555
C67_8 C68_8 1_555 1_555
C72_8 C73_8 1_555 1_555
C74_8 C75_8 1_555 1_555
C77_8 N7_8 1_555 1_555
C83_8 N8_8 1_555 1_555
O14_5 H90_5 1_555 1_555
O14_6 H90_6 1_555 1_555
C1_7 H1_7 1_555 1_555
C2_7 C1_7 1_555 1_555
H2_7 C2_7 1_555 1_555
C3_7 C2_7 1_555 1_555
H5_7 C7_7 1_555 1_555
C8_7 C7_7 1_555 1_555
H6_7 C8_7 1_555 1_555
N1_7 C1_7 1_555 1_555
H70_7 C81_7 1_555 1_555
H71_7 C81_7 1_555 1_555
H72_7 C81_7 1_555 1_555
H73_7 C82_7 1_555 1_555
H75_7 C82_7 1_555 1_555
O14_7 H90_7 1_555 1_555
O14_8 H90_8 1_555 1_555
H70_8 C81_8 1_555 1_555
H71_8 C81_8 1_555 1_555
H72_8 C81_8 1_555 1_555
H73_8 C82_8 1_555 1_555
H75_8 C82_8 1_555 1_555
C1_8 H1_8 1_555 1_555
C2_8 C1_8 1_555 1_555
H2_8 C2_8 1_555 1_555
C3_8 C2_8 1_555 1_555
H5_8 C7_8 1_555 1_555
C8_8 C7_8 1_555 1_555
H6_8 C8_8 1_555 1_555
N1_8 C1_8 1_555 1_555

#END
