
###############################################################################
#
# This file contains modified crystal structure data generated from the
# MOF subset of the Cambridge Structural Database (CSD) v543 
# hosted by the Cambridge Crystallographic Data Centre (CCDC).
#
# This work is licensed under the Creative Commons
# Attribution-NonCommercial-ShareAlike 4.0 International License.
# To view a copy of this license, visit
# http://creativecommons.org/licenses/by-nc-sa/4.0/
# or send a letter to
# Creative Commons, PO Box 1866, Mountain View, CA 94042, USA.
#
# CIF created using the CSD Python API on 29 September 2022
# The structure has been converted into the P1 space group
# The structure has a 3D framework
# The original CSD entry JENQEC is in the monoclinic crystal system
# The framework has been calculated to contain at least 10.0% void space
# The void calculation uses a probe of radius 1.32A, grid spacing 0.4
# H atom positions have been added when not included in the experimental data
#
###############################################################################

data_JENQEC
_chemical_formula_moiety         '(C688 H720 N64 O112 Zn10)n'
_symmetry_cell_setting           triclinic
_symmetry_space_group_name_H-M   'P 1'
_symmetry_Int_Tables_number      1
_space_group_name_Hall           'P 1'
loop_
_symmetry_equiv_pos_site_id
_symmetry_equiv_pos_as_xyz
1 x,y,z
_cell_length_a                   26.173(13)
_cell_length_b                   28.219(14)
_cell_length_c                   35.844(18)
_cell_angle_alpha                90
_cell_angle_beta                 104.199(7)
_cell_angle_gamma                90
_cell_volume                     25664.7
loop_
_atom_site_label
_atom_site_type_symbol
_atom_site_fract_x
_atom_site_fract_y
_atom_site_fract_z
H48 H 0.008693 0.627726 0.638114
C63 C 0.0071(2) 0.63243(19) 0.58121(15)
C66 C 0.04368(19) 0.59109(18) 0.58070(14)
O10 O 0.06713(15) 0.57524(14) 0.61170(10)
O11 O 0.04689(13) 0.57742(12) 0.54801(9)
Zn4 Zn 0.10475(2) 0.53064(2) 0.54676(2)
Zn6 Zn 0.13070(2) 0.53178(2) 0.63024(2)
C1 C 0.6387(2) 0.0402(2) 0.47625(15)
H1 H 0.664038 0.060372 0.492143
C2 C 0.6403(3) 0.0341(3) 0.43906(17)
H2 H 0.667299 0.048529 0.429493
C3 C 0.6020(2) 0.0063(2) 0.41500(14)
C7 C 0.6225(4) 0.0337(3) 0.3544(2)
H5 H 0.632187 0.063749 0.366009
C8 C 0.6271(4) 0.0251(3) 0.31800(19)
H6 H 0.641385 0.048880 0.304757
N1 N 0.60317(15) 0.01913(14) 0.49127(11)
Zn1 Zn 0.60475(2) 0.03064(2) 0.54676(2)
Zn2 Zn 0.63070(2) 0.03178(2) 0.63024(2)
N9 N 0.62815(15) 0.03346(13) 0.68607(11)
O15 O 0.67580(14) 0.08469(13) 0.62029(10)
O16 O 0.65372(13) 0.08604(12) 0.55625(10)
O17 O 0.56713(15) 0.07524(14) 0.61170(10)
O18 O 0.54689(13) 0.07742(12) 0.54801(9)
C4 C 0.5653(2) 0.9844(2) 0.43068(14)
H3 H 0.539233 0.964346 0.415419
C5 C 0.56704(19) 0.9920(2) 0.46918(13)
H4 H 0.541399 0.977206 0.479994
C6 C 0.6034(3) 0.9981(2) 0.37488(15)
C9 C 0.6114(3) 0.9828(3) 0.30013(16)
C10 C 0.5900(2) 0.9479(3) 0.31910(15)
C11 C 0.5862(3) 0.9567(3) 0.35610(16)
H7 H 0.571061 0.933180 0.369061
C12 C 0.6676(2) 0.9819(3) 0.21303(16)
H8 H 0.699429 0.990516 0.206548
C13 C 0.6643(3) 0.9861(3) 0.25087(17)
H9 H 0.694091 0.996070 0.270232
C14 C 0.6175(3) 0.9756(2) 0.26023(16)
C15 C 0.5766(2) 0.9592(2) 0.23154(15)
H10 H 0.544107 0.950432 0.237009
C16 C 0.5831(2) 0.9556(2) 0.19486(14)
H11 H 0.554323 0.944813 0.174983
C17 C 0.5743(3) 0.8992(3) 0.30202(16)
C18 C 0.6502(5) 0.8043(4) 0.2168(2)
C19 C 0.6453(7) 0.8404(4) 0.2440(3)
H12 H 0.638697 0.870592 0.229544
H13 H 0.680247 0.843473 0.262316
C20 C 0.6067(5) 0.8375(3) 0.2669(3)
H14 H 0.571273 0.841180 0.248675
C21 C 0.6083(8) 0.7923(5) 0.2823(4)
H15 H 0.582278 0.789995 0.298107
H16 H 0.643716 0.786420 0.299238
C22 C 0.5952(7) 0.7517(4) 0.2482(4)
C23 C 0.5975(9) 0.7058(5) 0.2682(5)
H17 H 0.568882 0.704110 0.281432
H18 H 0.593690 0.679967 0.249493
H19 H 0.631458 0.702851 0.287145
C24 C 0.5417(4) 0.7545(8) 0.2190(6)
H20 H 0.546630 0.765605 0.194229
H21 H 0.518823 0.776739 0.228352
H22 H 0.525283 0.723084 0.215791
C25 C 0.7083(4) 0.7986(6) 0.2142(4)
H23 H 0.710336 0.773751 0.195460
H24 H 0.720800 0.828614 0.205874
H25 H 0.730439 0.789819 0.239444
C26 C 0.6208(5) 0.8134(5) 0.1760(3)
H26 H 0.626539 0.787006 0.159761
H27 H 0.583108 0.816344 0.174670
H28 H 0.633623 0.842846 0.167002
C27 C 0.55591(18) 0.96131(16) 0.58515(14)
C28 C 0.5190(2) 0.92226(19) 0.58573(15)
C29 C 0.5115(3) 0.9055(3) 0.62046(18)
H29 H 0.532035 0.918142 0.643943
C30 C 0.4757(3) 0.8720(3) 0.6213(2)
H30 H 0.470459 0.861820 0.645371
C31 C 0.4461(3) 0.8519(3) 0.5875(2)
C32 C 0.4544(2) 0.8668(2) 0.55337(19)
H31 H 0.434349 0.853601 0.529941
C33 C 0.4913(2) 0.90051(19) 0.55273(16)
H32 H 0.498029 0.909230 0.528787
C34 C 0.4072(2) 0.8148(2) 0.5900(2)
C35 C 0.41907(18) 0.7762(2) 0.6147(2)
H33 H 0.453946 0.771887 0.629945
C36 C 0.3800(2) 0.7438(2) 0.6169(2)
H34 H 0.388086 0.717339 0.633772
C37 C 0.3289(2) 0.7500(2) 0.5946(2)
C38 C 0.31703(18) 0.7887(2) 0.5699(2)
C39 C 0.3561(2) 0.8211(2) 0.5676(2)
H35 H 0.348014 0.847485 0.550802
C40 C 0.2905(3) 0.7086(3) 0.5907(3)
C41 C 0.2849(4) 0.6912(3) 0.6245(2)
H36 H 0.304843 0.703400 0.648351
C42 C 0.2496(3) 0.6555(3) 0.6233(2)
H37 H 0.245991 0.642147 0.646849
C43 C 0.2189(3) 0.6378(2) 0.58945(17)
C44 C 0.2265(3) 0.6561(3) 0.5554(2)
H38 H 0.206225 0.644584 0.531423
C45 C 0.2628(3) 0.6904(3) 0.5562(2)
H39 H 0.269094 0.701857 0.532853
C46 C 0.17992(18) 0.60004(17) 0.58903(15)
C47 C 0.6971(2) 0.97467(18) 0.60143(15)
C48 C 0.7359(2) 0.9386(2) 0.59909(16)
C49 C 0.7609(3) 0.9115(3) 0.63082(17)
H40 H 0.754338 0.918256 0.655193
C50 C 0.7935(3) 0.8767(3) 0.6279(2)
H41 H 0.809120 0.858836 0.650308
C51 C 0.8061(3) 0.8648(3) 0.5929(2)
C52 C 0.7829(3) 0.8947(3) 0.5608(2)
H42 H 0.790923 0.889441 0.536650
C53 C 0.7498(3) 0.9300(3) 0.56449(17)
H43 H 0.735596 0.949681 0.542930
C54 C 0.8426(3) 0.8269(2) 0.58943(16)
C55 C 0.8829(3) 0.8156(3) 0.62131(15)
H44 H 0.888039 0.833969 0.644123
C56 C 0.9159(3) 0.7774(3) 0.61980(15)
H45 H 0.943484 0.769626 0.641588
C57 C 0.9084(2) 0.75044(19) 0.58642(16)
C58 C 0.8680(3) 0.7618(2) 0.55454(14)
H46 H 0.862959 0.743356 0.531727
C59 C 0.8351(2) 0.8000(2) 0.55605(14)
C60 C 0.9430(3) 0.7097(2) 0.5850(2)
C61 C 0.9632(3) 0.6819(3) 0.61658(18)
H47 H 0.954432 0.689126 0.640149
C62 C 0.9946(2) 0.6454(2) 0.61534(16)
C64 C 0.9862(3) 0.6585(2) 0.54876(18)
H49 H 0.994549 0.650597 0.525175
C65 C 0.9542(3) 0.6952(3) 0.5502(2)
H50 H 0.938585 0.711789 0.527117
C67 C 0.7917(7) 0.8051(5) 0.5230(4)
C68 C 0.7683(6) 0.8071(6) 0.3827(4)
C69 C 0.8031(6) 0.7994(7) 0.4235(4)
H51 H 0.837339 0.815688 0.426348
H52 H 0.809970 0.765120 0.428285
C70 C 0.7737(6) 0.8198(6) 0.4530(3)
H53 H 0.741101 0.801072 0.452561
C71 C 0.7599(6) 0.8735(6) 0.4452(4)
H54 H 0.744693 0.886509 0.465718
H55 H 0.792314 0.891615 0.445042
C72 C 0.7196(4) 0.8783(5) 0.4055(4)
C73 C 0.7258(6) 0.7700(6) 0.3694(5)
H56 H 0.741599 0.738324 0.373133
H57 H 0.699238 0.772849 0.384398
H58 H 0.709002 0.774794 0.342064
C74 C 0.8023(5) 0.8060(6) 0.3547(4)
H59 H 0.820779 0.775553 0.356730
H60 H 0.780254 0.809924 0.328538
H61 H 0.828081 0.831791 0.360573
C75 C 0.6646(5) 0.8641(5) 0.4055(4)
H62 H 0.663639 0.830190 0.411091
H63 H 0.652888 0.882183 0.425288
H64 H 0.641134 0.870771 0.380248
C76 C 0.7192(5) 0.9305(5) 0.3969(4)
H65 H 0.754842 0.940830 0.396687
H66 H 0.695302 0.936623 0.371670
H67 H 0.707055 0.948035 0.416710
N2 N 0.62815(15) 0.96654(13) 0.18607(11)
N3 N 0.6129(3) 0.8758(2) 0.29275(16)
H68 H 0.645292 0.884881 0.303633
N4 N 0.6362(4) 0.7564(3) 0.2282(2)
N5 N 0.2248(5) 0.7988(10) 0.5747(6)
H69 H 0.236278 0.785002 0.597203
O1 O 0.5291(3) 0.8860(2) 0.29653(15)
O2 O 0.6462(5) 0.7212(3) 0.2086(3)
O3 O 0.55898(13) 0.97662(11) 0.55331(9)
O4 O 0.58173(15) 0.97706(13) 0.61680(10)
O5 O 0.17580(14) 0.58469(13) 0.62029(10)
O6 O 0.15372(13) 0.58604(12) 0.55625(10)
N6 N 0.8109(4) 0.8155(5) 0.4898(3)
H70 H 0.844838 0.819258 0.491778
N7 N 0.7440(6) 0.8526(6) 0.3769(3)
O7 O 0.2557(9) 0.8379(11) 0.5227(8)
O8 O 0.66989(13) 0.99059(13) 0.57010(10)
O9 O 0.69171(15) 0.98672(14) 0.63421(10)
O12 O 0.7432(4) 0.7989(6) 0.5201(4)
O13 O 0.7177(6) 0.8651(7) 0.3399(3)
C77 C 0.2637(5) 0.8078(7) 0.5486(5)
C78 C 0.0871(7) 0.8057(7) 0.5105(5)
C79 C 0.1402(6) 0.7818(9) 0.5297(5)
H71 H 0.133635 0.750254 0.539703
H72 H 0.161047 0.777148 0.510313
C80 C 0.1711(6) 0.8125(10) 0.5625(5)
H73 H 0.167185 0.847072 0.556294
C81 C 0.1397(6) 0.7976(10) 0.5914(5)
H74 H 0.136621 0.762645 0.591279
H75 H 0.159004 0.807514 0.617539
C82 C 0.0848(7) 0.8193(7) 0.5821(6)
C83 C 0.0945(11) 0.8538(8) 0.4950(6)
H76 H 0.114816 0.850915 0.475439
H77 H 0.060065 0.867831 0.483350
H78 H 0.113658 0.874120 0.515962
C84 C 0.0551(9) 0.7770(10) 0.4777(6)
H79 H 0.074623 0.773710 0.457749
H80 H 0.048361 0.745579 0.487065
H81 H 0.021535 0.793063 0.466921
C85 C 0.0495(9) 0.7979(10) 0.6050(6)
H82 H 0.050594 0.763311 0.603205
H83 H 0.061636 0.807585 0.631967
H84 H 0.013322 0.808998 0.594635
C86 C 0.0810(11) 0.8723(7) 0.5863(6)
H85 H 0.103489 0.888016 0.571832
H86 H 0.044395 0.882392 0.576209
H87 H 0.092709 0.880980 0.613541
N8 N 0.0566(6) 0.8100(7) 0.5399(4)
O14 O 0.0014(8) 0.8052(10) 0.5405(8)
Zn7 Zn 0.63070(2) 0.96822(2) 0.13024(2)
H88 H 0.684622 0.719983 0.210305
H89 H 0.688732 0.842203 0.330016
C1_2 C 0.1387(2) 0.5402(2) 0.47625(15)
H1_2 H 0.164038 0.560372 0.492143
C2_2 C 0.1403(3) 0.5341(3) 0.43906(17)
H2_2 H 0.167299 0.548529 0.429493
C3_2 C 0.1020(2) 0.5063(2) 0.41500(14)
C4_2 C 0.0653(2) 0.4844(2) 0.43068(14)
H3_2 H 0.039233 0.464346 0.415419
C5_2 C 0.06704(19) 0.4920(2) 0.46918(13)
H4_2 H 0.041399 0.477206 0.479994
C6_2 C 0.1034(3) 0.4981(2) 0.37488(15)
C7_2 C 0.1225(4) 0.5337(3) 0.3544(2)
H5_2 H 0.132187 0.563749 0.366009
C8_2 C 0.1271(4) 0.5251(3) 0.31800(19)
H6_2 H 0.141385 0.548880 0.304757
C9_2 C 0.1114(3) 0.4828(3) 0.30013(16)
C10_2 C 0.0900(2) 0.4479(3) 0.31910(15)
C11_2 C 0.0862(3) 0.4567(3) 0.35610(16)
H7_2 H 0.071061 0.433180 0.369061
C12_2 C 0.1676(2) 0.4819(3) 0.21303(16)
H8_2 H 0.199429 0.490516 0.206548
C13_2 C 0.1643(3) 0.4861(3) 0.25087(17)
H9_2 H 0.194091 0.496070 0.270232
C14_2 C 0.1175(3) 0.4756(2) 0.26023(16)
C15_2 C 0.0766(2) 0.4592(2) 0.23154(15)
H10_2 H 0.044107 0.450432 0.237009
C16_2 C 0.0831(2) 0.4556(2) 0.19486(14)
H11_2 H 0.054323 0.444813 0.174983
C17_2 C 0.0743(3) 0.3992(3) 0.30202(16)
C18_2 C 0.1502(5) 0.3043(4) 0.2168(2)
C19_2 C 0.1453(7) 0.3404(4) 0.2440(3)
H12_2 H 0.138697 0.370592 0.229544
H13_2 H 0.180247 0.343473 0.262316
C20_2 C 0.1067(5) 0.3375(3) 0.2669(3)
H14_2 H 0.071273 0.341180 0.248675
C21_2 C 0.1083(8) 0.2923(5) 0.2823(4)
H15_2 H 0.082278 0.289995 0.298107
H16_2 H 0.143716 0.286420 0.299238
C22_2 C 0.0952(7) 0.2517(4) 0.2482(4)
C23_2 C 0.0975(9) 0.2058(5) 0.2682(5)
H17_2 H 0.068882 0.204110 0.281432
H18_2 H 0.093690 0.179967 0.249493
H19_2 H 0.131458 0.202851 0.287145
C24_2 C 0.0417(4) 0.2545(8) 0.2190(6)
H20_2 H 0.046630 0.265605 0.194229
H21_2 H 0.018823 0.276739 0.228352
H22_2 H 0.025283 0.223084 0.215791
C25_2 C 0.2083(4) 0.2986(6) 0.2142(4)
H23_2 H 0.210336 0.273751 0.195460
H24_2 H 0.220800 0.328614 0.205874
H25_2 H 0.230439 0.289819 0.239444
C26_2 C 0.1208(5) 0.3134(5) 0.1760(3)
H26_2 H 0.126539 0.287006 0.159761
H27_2 H 0.083108 0.316344 0.174670
H28_2 H 0.133623 0.342846 0.167002
C27_2 C 0.05591(18) 0.46131(16) 0.58515(14)
C28_2 C 0.0190(2) 0.42226(19) 0.58573(15)
C29_2 C 0.0115(3) 0.4055(3) 0.62046(18)
H29_2 H 0.032035 0.418142 0.643943
C47_2 C 0.1971(2) 0.47467(18) 0.60143(15)
C48_2 C 0.2359(2) 0.4386(2) 0.59909(16)
C49_2 C 0.2609(3) 0.4115(3) 0.63082(17)
H40_2 H 0.254338 0.418256 0.655193
C50_2 C 0.2935(3) 0.3767(3) 0.6279(2)
H41_2 H 0.309120 0.358836 0.650308
C51_2 C 0.3061(3) 0.3648(3) 0.5929(2)
C52_2 C 0.2829(3) 0.3947(3) 0.5608(2)
H42_2 H 0.290923 0.389441 0.536650
C53_2 C 0.2498(3) 0.4300(3) 0.56449(17)
H43_2 H 0.235596 0.449681 0.542930
C54_2 C 0.3426(3) 0.3269(2) 0.58943(16)
C55_2 C 0.3829(3) 0.3156(3) 0.62131(15)
H44_2 H 0.388039 0.333969 0.644123
C56_2 C 0.4159(3) 0.2774(3) 0.61980(15)
H45_2 H 0.443484 0.269626 0.641588
C57_2 C 0.4084(2) 0.25044(19) 0.58642(16)
C58_2 C 0.3680(3) 0.2618(2) 0.55454(14)
H46_2 H 0.362959 0.243356 0.531727
C59_2 C 0.3351(2) 0.3000(2) 0.55605(14)
C60_2 C 0.4430(3) 0.2097(2) 0.5850(2)
C61_2 C 0.4632(3) 0.1819(3) 0.61658(18)
H47_2 H 0.454432 0.189126 0.640149
C62_2 C 0.4946(2) 0.1454(2) 0.61534(16)
H48_2 H 0.508693 0.127726 0.638114
C63_2 C 0.5071(2) 0.13243(19) 0.58121(15)
C64_2 C 0.4862(3) 0.1585(2) 0.54876(18)
H49_2 H 0.494549 0.150597 0.525175
C65_2 C 0.4542(3) 0.1952(3) 0.5502(2)
H50_2 H 0.438585 0.211789 0.527117
C66_2 C 0.54368(19) 0.09109(18) 0.58070(14)
C67_2 C 0.2917(7) 0.3051(5) 0.5230(4)
C68_2 C 0.2683(6) 0.3071(6) 0.3827(4)
C69_2 C 0.3031(6) 0.2994(7) 0.4235(4)
H51_2 H 0.337339 0.315688 0.426348
H52_2 H 0.309970 0.265120 0.428285
C70_2 C 0.2737(6) 0.3198(6) 0.4530(3)
H53_2 H 0.241101 0.301072 0.452561
C71_2 C 0.2599(6) 0.3735(6) 0.4452(4)
H54_2 H 0.244693 0.386509 0.465718
H55_2 H 0.292314 0.391615 0.445042
C72_2 C 0.2196(4) 0.3783(5) 0.4055(4)
C73_2 C 0.2258(6) 0.2700(6) 0.3694(5)
H56_2 H 0.241599 0.238324 0.373133
H57_2 H 0.199238 0.272849 0.384398
H58_2 H 0.209002 0.274794 0.342064
C74_2 C 0.3023(5) 0.3060(6) 0.3547(4)
H59_2 H 0.320779 0.275553 0.356730
H60_2 H 0.280254 0.309924 0.328538
H61_2 H 0.328081 0.331791 0.360573
C75_2 C 0.1646(5) 0.3641(5) 0.4055(4)
H62_2 H 0.163639 0.330190 0.411091
H63_2 H 0.152888 0.382183 0.425288
H64_2 H 0.141134 0.370771 0.380248
C76_2 C 0.2192(5) 0.4305(5) 0.3969(4)
H65_2 H 0.254842 0.440830 0.396687
H66_2 H 0.195302 0.436623 0.371670
H67_2 H 0.207055 0.448035 0.416710
N1_2 N 0.10317(15) 0.51913(14) 0.49127(11)
N2_2 N 0.12815(15) 0.46654(13) 0.18607(11)
N3_2 N 0.1129(3) 0.3758(2) 0.29275(16)
H68_2 H 0.145292 0.384881 0.303633
N4_2 N 0.1362(4) 0.2564(3) 0.2282(2)
O1_2 O 0.0291(3) 0.3860(2) 0.29653(15)
O2_2 O 0.1462(5) 0.2212(3) 0.2086(3)
O3_2 O 0.05898(13) 0.47662(11) 0.55331(9)
O4_2 O 0.08173(15) 0.47706(13) 0.61680(10)
N6_2 N 0.3109(4) 0.3155(5) 0.4898(3)
H70_2 H 0.344838 0.319258 0.491778
N7_2 N 0.2440(6) 0.3526(6) 0.3769(3)
O8_2 O 0.16989(13) 0.49059(13) 0.57010(10)
O9_2 O 0.19171(15) 0.48672(14) 0.63421(10)
O12_2 O 0.2432(4) 0.2989(6) 0.5201(4)
O13_2 O 0.2177(6) 0.3651(7) 0.3399(3)
N9_2 N 0.12815(15) 0.53346(13) 0.68607(11)
Zn7_2 Zn 0.13070(2) 0.46822(2) 0.13024(2)
H88_2 H 0.184622 0.219983 0.210305
H89_2 H 0.188732 0.342203 0.330016
C30_2 C 0.9757(3) 0.3720(3) 0.6213(2)
H30_2 H 0.970459 0.361820 0.645371
C31_2 C 0.9461(3) 0.3519(3) 0.5875(2)
C32_2 C 0.9544(2) 0.3668(2) 0.55337(19)
H31_2 H 0.934349 0.353601 0.529941
C33_2 C 0.9913(2) 0.40051(19) 0.55273(16)
H32_2 H 0.998029 0.409230 0.528787
C34_2 C 0.9072(2) 0.3148(2) 0.5900(2)
C35_2 C 0.91907(18) 0.2762(2) 0.6147(2)
H33_2 H 0.953946 0.271887 0.629945
C36_2 C 0.8800(2) 0.2438(2) 0.6169(2)
H34_2 H 0.888086 0.217339 0.633772
C37_2 C 0.8289(2) 0.2500(2) 0.5946(2)
C38_2 C 0.81703(18) 0.2887(2) 0.5699(2)
C39_2 C 0.8561(2) 0.3211(2) 0.5676(2)
H35_2 H 0.848014 0.347485 0.550802
C40_2 C 0.7905(3) 0.2086(3) 0.5907(3)
C41_2 C 0.7849(4) 0.1912(3) 0.6245(2)
H36_2 H 0.804843 0.203400 0.648351
C42_2 C 0.7496(3) 0.1555(3) 0.6233(2)
H37_2 H 0.745991 0.142147 0.646849
C43_2 C 0.7189(3) 0.1378(2) 0.58945(17)
C44_2 C 0.7265(3) 0.1561(3) 0.5554(2)
H38_2 H 0.706225 0.144584 0.531423
C45_2 C 0.7628(3) 0.1904(3) 0.5562(2)
H39_2 H 0.769094 0.201857 0.532853
C46_2 C 0.67992(18) 0.10004(17) 0.58903(15)
N5_2 N 0.7248(5) 0.2988(10) 0.5747(6)
H69_2 H 0.736278 0.285002 0.597203
O7_2 O 0.7557(9) 0.3379(11) 0.5227(8)
C77_2 C 0.7637(5) 0.3078(7) 0.5486(5)
C78_2 C 0.5871(7) 0.3057(7) 0.5105(5)
C79_2 C 0.6402(6) 0.2818(9) 0.5297(5)
H71_2 H 0.633635 0.250254 0.539703
H72_2 H 0.661047 0.277148 0.510313
C80_2 C 0.6711(6) 0.3125(10) 0.5625(5)
H73_2 H 0.667185 0.347072 0.556294
C81_2 C 0.6397(6) 0.2976(10) 0.5914(5)
H74_2 H 0.636621 0.262645 0.591279
H75_2 H 0.659004 0.307514 0.617539
C82_2 C 0.5848(7) 0.3193(7) 0.5821(6)
C83_2 C 0.5945(11) 0.3538(8) 0.4950(6)
H76_2 H 0.614816 0.350915 0.475439
H77_2 H 0.560065 0.367831 0.483350
H78_2 H 0.613658 0.374120 0.515962
C84_2 C 0.5551(9) 0.2770(10) 0.4777(6)
H79_2 H 0.574623 0.273710 0.457749
H80_2 H 0.548361 0.245579 0.487065
H81_2 H 0.521535 0.293063 0.466921
C85_2 C 0.5495(9) 0.2979(10) 0.6050(6)
H82_2 H 0.550594 0.263311 0.603205
H83_2 H 0.561636 0.307585 0.631967
H84_2 H 0.513322 0.308998 0.594635
C86_2 C 0.5810(11) 0.3723(7) 0.5863(6)
H85_2 H 0.603489 0.388016 0.571832
H86_2 H 0.544395 0.382392 0.576209
H87_2 H 0.592709 0.380980 0.613541
N8_2 N 0.5566(6) 0.3100(7) 0.5399(4)
O14_2 O 0.5014(8) 0.3052(10) 0.5405(8)
H90 H 0.489115 0.27263 0.532437
H48_3 H 0.008693 0.372274 0.138114
C63_3 C 0.0071(2) 0.36757(19) 0.08121(15)
C66_3 C 0.04368(19) 0.40891(18) 0.08070(14)
O10_2 O 0.06713(15) 0.42476(14) 0.11170(10)
O11_2 O 0.04689(13) 0.42258(12) 0.04801(9)
Zn4_2 Zn 0.10475(2) 0.46936(2) 0.04676(2)
C27_3 C 0.55591(18) 0.03869(16) 0.08515(14)
C28_3 C 0.5190(2) 0.07774(19) 0.08573(15)
C29_3 C 0.5115(3) 0.0945(3) 0.12046(18)
H29_3 H 0.532035 0.081858 0.143943
C30_3 C 0.4757(3) 0.1280(3) 0.1213(2)
H30_3 H 0.470459 0.138180 0.145371
C31_3 C 0.4461(3) 0.1481(3) 0.0875(2)
C32_3 C 0.4544(2) 0.1332(2) 0.05337(19)
H31_3 H 0.434349 0.146399 0.029941
C33_3 C 0.4913(2) 0.09949(19) 0.05273(16)
H32_3 H 0.498029 0.090770 0.028787
C34_3 C 0.4072(2) 0.1852(2) 0.0900(2)
C35_3 C 0.41907(18) 0.2238(2) 0.1147(2)
H33_3 H 0.453946 0.228113 0.129945
C36_3 C 0.3800(2) 0.2562(2) 0.1169(2)
H34_3 H 0.388086 0.282661 0.133772
C37_3 C 0.3289(2) 0.2500(2) 0.0946(2)
C38_3 C 0.31703(18) 0.2113(2) 0.0699(2)
C39_3 C 0.3561(2) 0.1789(2) 0.0676(2)
H35_3 H 0.348014 0.152515 0.050802
C40_3 C 0.2905(3) 0.2914(3) 0.0907(3)
C41_3 C 0.2849(4) 0.3088(3) 0.1245(2)
H36_3 H 0.304843 0.296600 0.148351
C42_3 C 0.2496(3) 0.3445(3) 0.1233(2)
H37_3 H 0.245991 0.357853 0.146849
C43_3 C 0.2189(3) 0.3622(2) 0.08945(17)
C44_3 C 0.2265(3) 0.3439(3) 0.0554(2)
H38_3 H 0.206225 0.355416 0.031423
C45_3 C 0.2628(3) 0.3096(3) 0.0562(2)
H39_3 H 0.269094 0.298143 0.032853
C46_3 C 0.17992(18) 0.39996(17) 0.08903(15)
C47_3 C 0.6971(2) 0.02533(18) 0.10143(15)
C48_3 C 0.7359(2) 0.0614(2) 0.09909(16)
C49_3 C 0.7609(3) 0.0885(3) 0.13082(17)
H40_3 H 0.754338 0.081744 0.155193
C50_3 C 0.7935(3) 0.1233(3) 0.1279(2)
H41_3 H 0.809120 0.141164 0.150308
C51_3 C 0.8061(3) 0.1352(3) 0.0929(2)
C52_3 C 0.7829(3) 0.1053(3) 0.0608(2)
H42_3 H 0.790923 0.110559 0.036650
C53_3 C 0.7498(3) 0.0700(3) 0.06449(17)
H43_3 H 0.735596 0.050319 0.042930
C54_3 C 0.8426(3) 0.1731(2) 0.08943(16)
C55_3 C 0.8829(3) 0.1844(3) 0.12131(15)
H44_3 H 0.888039 0.166031 0.144123
C56_3 C 0.9159(3) 0.2226(3) 0.11980(15)
H45_3 H 0.943484 0.230374 0.141588
C57_3 C 0.9084(2) 0.24956(19) 0.08642(16)
C58_3 C 0.8680(3) 0.2382(2) 0.05454(14)
H46_3 H 0.862959 0.256644 0.031727
C59_3 C 0.8351(2) 0.2000(2) 0.05605(14)
C60_3 C 0.9430(3) 0.2903(2) 0.0850(2)
C61_3 C 0.9632(3) 0.3181(3) 0.11658(18)
H47_3 H 0.954432 0.310874 0.140149
C62_3 C 0.9946(2) 0.3546(2) 0.11534(16)
C64_3 C 0.9862(3) 0.3415(2) 0.04876(18)
H49_3 H 0.994549 0.349403 0.025175
C65_3 C 0.9542(3) 0.3048(3) 0.0502(2)
H50_3 H 0.938585 0.288211 0.027117
C67_3 C 0.7917(7) 0.1949(5) 0.0230(4)
N5_3 N 0.2248(5) 0.2012(10) 0.0747(6)
H69_3 H 0.236278 0.214998 0.097203
O3_3 O 0.55898(13) 0.02338(11) 0.05331(9)
O4_3 O 0.58173(15) 0.02294(13) 0.11680(10)
O5_2 O 0.17580(14) 0.41531(13) 0.12029(10)
O6_2 O 0.15372(13) 0.41396(12) 0.05625(10)
O7_3 O 0.2557(9) 0.1621(11) 0.0227(8)
O8_3 O 0.66989(13) 0.00941(13) 0.07010(10)
O9_3 O 0.69171(15) 0.01328(14) 0.13421(10)
O12_3 O 0.7432(4) 0.2011(6) 0.0201(4)
C77_3 C 0.2637(5) 0.1922(7) 0.0486(5)
C78_3 C 0.0871(7) 0.1943(7) 0.0105(5)
C79_3 C 0.1402(6) 0.2182(9) 0.0297(5)
H71_3 H 0.133635 0.249746 0.039703
H72_3 H 0.161047 0.222852 0.010313
C80_3 C 0.1711(6) 0.1875(10) 0.0625(5)
H73_3 H 0.167185 0.152928 0.056294
C81_3 C 0.1397(6) 0.2024(10) 0.0914(5)
H74_3 H 0.136621 0.237355 0.091279
H75_3 H 0.159004 0.192486 0.117539
C82_3 C 0.0848(7) 0.1807(7) 0.0821(6)
H78_3 H 0.113658 0.125880 0.015962
C85_3 C 0.0495(9) 0.2021(10) 0.1050(6)
H82_3 H 0.050594 0.236689 0.103205
H83_3 H 0.061636 0.192415 0.131967
H84_3 H 0.013322 0.191002 0.094635
C86_3 C 0.0810(11) 0.1277(7) 0.0863(6)
H85_3 H 0.103489 0.111984 0.071832
H86_3 H 0.044395 0.117608 0.076209
H87_3 H 0.092709 0.119020 0.113541
N8_3 N 0.0566(6) 0.1900(7) 0.0399(4)
O14_3 O 0.0014(8) 0.1948(10) 0.0405(8)
C4_3 C 0.5653(2) 0.0156(2) 0.93068(14)
H3_3 H 0.539233 0.035654 0.915419
C5_3 C 0.56704(19) 0.0080(2) 0.96918(13)
H4_3 H 0.541399 0.022794 0.979994
C6_3 C 0.6034(3) 0.0019(2) 0.87488(15)
C9_3 C 0.6114(3) 0.0172(3) 0.80013(16)
C10_3 C 0.5900(2) 0.0521(3) 0.81910(15)
C11_3 C 0.5862(3) 0.0433(3) 0.85610(16)
H7_3 H 0.571061 0.066820 0.869061
C12_3 C 0.6676(2) 0.0181(3) 0.71303(16)
H8_3 H 0.699429 0.009484 0.706548
C13_3 C 0.6643(3) 0.0139(3) 0.75087(17)
H9_3 H 0.694091 0.003930 0.770232
C14_3 C 0.6175(3) 0.0244(2) 0.76023(16)
C15_3 C 0.5766(2) 0.0408(2) 0.73154(15)
H10_3 H 0.544107 0.049568 0.737009
C16_3 C 0.5831(2) 0.0444(2) 0.69486(14)
H11_3 H 0.554323 0.055187 0.674983
C17_3 C 0.5743(3) 0.1008(3) 0.80202(16)
C18_3 C 0.6502(5) 0.1957(4) 0.7168(2)
C19_3 C 0.6453(7) 0.1596(4) 0.7440(3)
H12_3 H 0.638697 0.129408 0.729544
H13_3 H 0.680247 0.156527 0.762316
C20_3 C 0.6067(5) 0.1625(3) 0.7669(3)
H14_3 H 0.571273 0.158820 0.748675
C21_3 C 0.6083(8) 0.2077(5) 0.7823(4)
H15_3 H 0.582278 0.210005 0.798107
H16_3 H 0.643716 0.213580 0.799238
C22_3 C 0.5952(7) 0.2483(4) 0.7482(4)
C23_3 C 0.5975(9) 0.2942(5) 0.7682(5)
H17_3 H 0.568882 0.295890 0.781432
H18_3 H 0.593690 0.320033 0.749493
H19_3 H 0.631458 0.297149 0.787145
C24_3 C 0.5417(4) 0.2455(8) 0.7190(6)
H20_3 H 0.546630 0.234395 0.694229
H21_3 H 0.518823 0.223261 0.728352
H22_3 H 0.525283 0.276916 0.715791
C25_3 C 0.7083(4) 0.2014(6) 0.7142(4)
H23_3 H 0.710336 0.226249 0.695460
H24_3 H 0.720800 0.171386 0.705874
H25_3 H 0.730439 0.210181 0.739444
C26_3 C 0.6208(5) 0.1866(5) 0.6760(3)
H26_3 H 0.626539 0.212994 0.659761
H27_3 H 0.583108 0.183656 0.674670
H28_3 H 0.633623 0.157154 0.667002
C68_3 C 0.7683(6) 0.1929(6) 0.8827(4)
C69_3 C 0.8031(6) 0.2006(7) 0.9235(4)
H51_3 H 0.837339 0.184312 0.926348
H52_3 H 0.809970 0.234880 0.928285
C70_3 C 0.7737(6) 0.1802(6) 0.9530(3)
H53_3 H 0.741101 0.198928 0.952561
C71_3 C 0.7599(6) 0.1265(6) 0.9452(4)
H54_3 H 0.744693 0.113491 0.965718
H55_3 H 0.792314 0.108385 0.945042
C72_3 C 0.7196(4) 0.1217(5) 0.9055(4)
C73_3 C 0.7258(6) 0.2300(6) 0.8694(5)
H56_3 H 0.741599 0.261676 0.873133
H57_3 H 0.699238 0.227151 0.884398
H58_3 H 0.709002 0.225206 0.842064
C74_3 C 0.8023(5) 0.1940(6) 0.8547(4)
H59_3 H 0.820779 0.224447 0.856730
H60_3 H 0.780254 0.190076 0.828538
H61_3 H 0.828081 0.168209 0.860573
C75_3 C 0.6646(5) 0.1359(5) 0.9055(4)
H62_3 H 0.663639 0.169810 0.911091
H63_3 H 0.652888 0.117817 0.925288
H64_3 H 0.641134 0.129229 0.880248
C76_3 C 0.7192(5) 0.0695(5) 0.8969(4)
H65_3 H 0.754842 0.059170 0.896687
H66_3 H 0.695302 0.063377 0.871670
H67_3 H 0.707055 0.051965 0.916710
N3_3 N 0.6129(3) 0.1242(2) 0.79275(16)
H68_3 H 0.645292 0.115119 0.803633
N4_3 N 0.6362(4) 0.2436(3) 0.7282(2)
O1_3 O 0.5291(3) 0.1140(2) 0.79653(15)
O2_3 O 0.6462(5) 0.2788(3) 0.7086(3)
N6_3 N 0.8109(4) 0.1845(5) 0.9898(3)
H70_3 H 0.844838 0.180742 0.991778
N7_3 N 0.7440(6) 0.1474(6) 0.8769(3)
O13_3 O 0.7177(6) 0.1349(7) 0.8399(3)
C83_3 C 0.0945(11) 0.1462(8) 0.9950(6)
H76_3 H 0.114816 0.149085 0.975439
H77_3 H 0.060065 0.132169 0.983350
C84_3 C 0.0551(9) 0.2230(10) 0.9777(6)
H79_3 H 0.074623 0.226290 0.957749
H80_3 H 0.048361 0.254421 0.987065
H81_3 H 0.021535 0.206937 0.966921
H88_3 H 0.684622 0.280017 0.710305
H89_3 H 0.688732 0.157797 0.830016
Zn1_2 Zn 0.60475(2) 0.96936(2) 0.04676(2)
O15_2 O 0.67580(14) 0.91531(13) 0.12029(10)
O16_2 O 0.65372(13) 0.91396(12) 0.05625(10)
O17_2 O 0.56713(15) 0.92476(14) 0.11170(10)
O18_2 O 0.54689(13) 0.92258(12) 0.04801(9)
C27_4 C 0.05591(18) 0.53869(16) 0.08515(14)
C28_4 C 0.0190(2) 0.57774(19) 0.08573(15)
C29_4 C 0.0115(3) 0.5945(3) 0.12046(18)
H29_4 H 0.032035 0.581858 0.143943
C47_4 C 0.1971(2) 0.52533(18) 0.10143(15)
C48_4 C 0.2359(2) 0.5614(2) 0.09909(16)
C49_4 C 0.2609(3) 0.5885(3) 0.13082(17)
H40_4 H 0.254338 0.581744 0.155193
C50_4 C 0.2935(3) 0.6233(3) 0.1279(2)
H41_4 H 0.309120 0.641164 0.150308
C51_4 C 0.3061(3) 0.6352(3) 0.0929(2)
C52_4 C 0.2829(3) 0.6053(3) 0.0608(2)
H42_4 H 0.290923 0.610559 0.036650
C53_4 C 0.2498(3) 0.5700(3) 0.06449(17)
H43_4 H 0.235596 0.550319 0.042930
C54_4 C 0.3426(3) 0.6731(2) 0.08943(16)
C55_4 C 0.3829(3) 0.6844(3) 0.12131(15)
H44_4 H 0.388039 0.666031 0.144123
C56_4 C 0.4159(3) 0.7226(3) 0.11980(15)
H45_4 H 0.443484 0.730374 0.141588
C57_4 C 0.4084(2) 0.74956(19) 0.08642(16)
C58_4 C 0.3680(3) 0.7382(2) 0.05454(14)
H46_4 H 0.362959 0.756644 0.031727
C59_4 C 0.3351(2) 0.7000(2) 0.05605(14)
C60_4 C 0.4430(3) 0.7903(2) 0.0850(2)
C61_4 C 0.4632(3) 0.8181(3) 0.11658(18)
H47_4 H 0.454432 0.810874 0.140149
C62_4 C 0.4946(2) 0.8546(2) 0.11534(16)
H48_4 H 0.508693 0.872274 0.138114
C63_4 C 0.5071(2) 0.86757(19) 0.08121(15)
C64_4 C 0.4862(3) 0.8415(2) 0.04876(18)
H49_4 H 0.494549 0.849403 0.025175
C65_4 C 0.4542(3) 0.8048(3) 0.0502(2)
H50_4 H 0.438585 0.788211 0.027117
C66_4 C 0.54368(19) 0.90891(18) 0.08070(14)
C67_4 C 0.2917(7) 0.6949(5) 0.0230(4)
O3_4 O 0.05898(13) 0.52338(11) 0.05331(9)
O4_4 O 0.08173(15) 0.52294(13) 0.11680(10)
O8_4 O 0.16989(13) 0.50941(13) 0.07010(10)
O9_4 O 0.19171(15) 0.51328(14) 0.13421(10)
O12_4 O 0.2432(4) 0.7011(6) 0.0201(4)
C1_3 C 0.1387(2) 0.4598(2) 0.97625(15)
H1_3 H 0.164038 0.439628 0.992143
C2_3 C 0.1403(3) 0.4659(3) 0.93906(17)
H2_3 H 0.167299 0.451471 0.929493
C3_3 C 0.1020(2) 0.4937(2) 0.91500(14)
C4_4 C 0.0653(2) 0.5156(2) 0.93068(14)
H3_4 H 0.039233 0.535654 0.915419
C5_4 C 0.06704(19) 0.5080(2) 0.96918(13)
H4_4 H 0.041399 0.522794 0.979994
C6_4 C 0.1034(3) 0.5019(2) 0.87488(15)
C7_3 C 0.1225(4) 0.4663(3) 0.8544(2)
H5_3 H 0.132187 0.436251 0.866009
C8_3 C 0.1271(4) 0.4749(3) 0.81800(19)
H6_3 H 0.141385 0.451120 0.804757
C9_4 C 0.1114(3) 0.5172(3) 0.80013(16)
C10_4 C 0.0900(2) 0.5521(3) 0.81910(15)
C11_4 C 0.0862(3) 0.5433(3) 0.85610(16)
H7_4 H 0.071061 0.566820 0.869061
C12_4 C 0.1676(2) 0.5181(3) 0.71303(16)
H8_4 H 0.199429 0.509484 0.706548
C13_4 C 0.1643(3) 0.5139(3) 0.75087(17)
H9_4 H 0.194091 0.503930 0.770232
C14_4 C 0.1175(3) 0.5244(2) 0.76023(16)
C15_4 C 0.0766(2) 0.5408(2) 0.73154(15)
H10_4 H 0.044107 0.549568 0.737009
C16_4 C 0.0831(2) 0.5444(2) 0.69486(14)
H11_4 H 0.054323 0.555187 0.674983
C17_4 C 0.0743(3) 0.6008(3) 0.80202(16)
C18_4 C 0.1502(5) 0.6957(4) 0.7168(2)
C19_4 C 0.1453(7) 0.6596(4) 0.7440(3)
H12_4 H 0.138697 0.629408 0.729544
H13_4 H 0.180247 0.656527 0.762316
C20_4 C 0.1067(5) 0.6625(3) 0.7669(3)
H14_4 H 0.071273 0.658820 0.748675
C21_4 C 0.1083(8) 0.7077(5) 0.7823(4)
H15_4 H 0.082278 0.710005 0.798107
H16_4 H 0.143716 0.713580 0.799238
C22_4 C 0.0952(7) 0.7483(4) 0.7482(4)
C23_4 C 0.0975(9) 0.7942(5) 0.7682(5)
H17_4 H 0.068882 0.795890 0.781432
H18_4 H 0.093690 0.820033 0.749493
H19_4 H 0.131458 0.797149 0.787145
C24_4 C 0.0417(4) 0.7455(8) 0.7190(6)
H20_4 H 0.046630 0.734395 0.694229
H21_4 H 0.018823 0.723261 0.728352
H22_4 H 0.025283 0.776916 0.715791
C25_4 C 0.2083(4) 0.7014(6) 0.7142(4)
H23_4 H 0.210336 0.726249 0.695460
H24_4 H 0.220800 0.671386 0.705874
H25_4 H 0.230439 0.710181 0.739444
C26_4 C 0.1208(5) 0.6866(5) 0.6760(3)
H26_4 H 0.126539 0.712994 0.659761
H27_4 H 0.083108 0.683656 0.674670
H28_4 H 0.133623 0.657154 0.667002
C68_4 C 0.2683(6) 0.6929(6) 0.8827(4)
C69_4 C 0.3031(6) 0.7006(7) 0.9235(4)
H51_4 H 0.337339 0.684312 0.926348
H52_4 H 0.309970 0.734880 0.928285
C70_4 C 0.2737(6) 0.6802(6) 0.9530(3)
H53_4 H 0.241101 0.698928 0.952561
C71_4 C 0.2599(6) 0.6265(6) 0.9452(4)
H54_4 H 0.244693 0.613491 0.965718
H55_4 H 0.292314 0.608385 0.945042
C72_4 C 0.2196(4) 0.6217(5) 0.9055(4)
C73_4 C 0.2258(6) 0.7300(6) 0.8694(5)
H56_4 H 0.241599 0.761676 0.873133
H57_4 H 0.199238 0.727151 0.884398
H58_4 H 0.209002 0.725206 0.842064
C74_4 C 0.3023(5) 0.6940(6) 0.8547(4)
H59_4 H 0.320779 0.724447 0.856730
H60_4 H 0.280254 0.690076 0.828538
H61_4 H 0.328081 0.668209 0.860573
C75_4 C 0.1646(5) 0.6359(5) 0.9055(4)
H62_4 H 0.163639 0.669810 0.911091
H63_4 H 0.152888 0.617817 0.925288
H64_4 H 0.141134 0.629229 0.880248
C76_4 C 0.2192(5) 0.5695(5) 0.8969(4)
H65_4 H 0.254842 0.559170 0.896687
H66_4 H 0.195302 0.563377 0.871670
H67_4 H 0.207055 0.551965 0.916710
N1_3 N 0.10317(15) 0.48087(14) 0.99127(11)
N3_4 N 0.1129(3) 0.6242(2) 0.79275(16)
H68_4 H 0.145292 0.615119 0.803633
N4_4 N 0.1362(4) 0.7436(3) 0.7282(2)
O1_4 O 0.0291(3) 0.6140(2) 0.79653(15)
O2_4 O 0.1462(5) 0.7788(3) 0.7086(3)
N6_4 N 0.3109(4) 0.6845(5) 0.9898(3)
H70_4 H 0.344838 0.680742 0.991778
N7_4 N 0.2440(6) 0.6474(6) 0.8769(3)
O13_4 O 0.2177(6) 0.6349(7) 0.8399(3)
H88_4 H 0.184622 0.780017 0.710305
H89_4 H 0.188732 0.657797 0.830016
C30_4 C 0.9757(3) 0.6280(3) 0.1213(2)
H30_4 H 0.970459 0.638180 0.145371
C31_4 C 0.9461(3) 0.6481(3) 0.0875(2)
C32_4 C 0.9544(2) 0.6332(2) 0.05337(19)
H31_4 H 0.934349 0.646399 0.029941
C33_4 C 0.9913(2) 0.59949(19) 0.05273(16)
H32_4 H 0.998029 0.590770 0.028787
C34_4 C 0.9072(2) 0.6852(2) 0.0900(2)
C35_4 C 0.91907(18) 0.7238(2) 0.1147(2)
H33_4 H 0.953946 0.728113 0.129945
C36_4 C 0.8800(2) 0.7562(2) 0.1169(2)
H34_4 H 0.888086 0.782661 0.133772
C37_4 C 0.8289(2) 0.7500(2) 0.0946(2)
C38_4 C 0.81703(18) 0.7113(2) 0.0699(2)
C39_4 C 0.8561(2) 0.6789(2) 0.0676(2)
H35_4 H 0.848014 0.652515 0.050802
C40_4 C 0.7905(3) 0.7914(3) 0.0907(3)
C41_4 C 0.7849(4) 0.8088(3) 0.1245(2)
H36_4 H 0.804843 0.796600 0.148351
C42_4 C 0.7496(3) 0.8445(3) 0.1233(2)
H37_4 H 0.745991 0.857853 0.146849
C43_4 C 0.7189(3) 0.8622(2) 0.08945(17)
C44_4 C 0.7265(3) 0.8439(3) 0.0554(2)
H38_4 H 0.706225 0.855416 0.031423
C45_4 C 0.7628(3) 0.8096(3) 0.0562(2)
H39_4 H 0.769094 0.798143 0.032853
C46_4 C 0.67992(18) 0.89996(17) 0.08903(15)
N5_4 N 0.7248(5) 0.7012(10) 0.0747(6)
H69_4 H 0.736278 0.714998 0.097203
O7_4 O 0.7557(9) 0.6621(11) 0.0227(8)
C77_4 C 0.7637(5) 0.6922(7) 0.0486(5)
C78_4 C 0.5871(7) 0.6943(7) 0.0105(5)
C79_4 C 0.6402(6) 0.7182(9) 0.0297(5)
H71_4 H 0.633635 0.749746 0.039703
H72_4 H 0.661047 0.722852 0.010313
C80_4 C 0.6711(6) 0.6875(10) 0.0625(5)
H73_4 H 0.667185 0.652928 0.056294
C81_4 C 0.6397(6) 0.7024(10) 0.0914(5)
H74_4 H 0.636621 0.737355 0.091279
H75_4 H 0.659004 0.692486 0.117539
C82_4 C 0.5848(7) 0.6807(7) 0.0821(6)
H78_4 H 0.613658 0.625880 0.015962
C85_4 C 0.5495(9) 0.7021(10) 0.1050(6)
H82_4 H 0.550594 0.736689 0.103205
H83_4 H 0.561636 0.692415 0.131967
H84_4 H 0.513322 0.691002 0.094635
C86_4 C 0.5810(11) 0.6277(7) 0.0863(6)
H85_4 H 0.603489 0.611984 0.071832
H86_4 H 0.544395 0.617608 0.076209
H87_4 H 0.592709 0.619020 0.113541
N8_4 N 0.5566(6) 0.6900(7) 0.0399(4)
O14_4 O 0.5014(8) 0.6948(10) 0.0405(8)
H90_2 H 0.489115 0.72737 0.0324368
H90_3 H 0.989115 0.77263 0.532437
H90_4 H 0.0108853 0.77263 0.967563
C1_4 C 0.3613(2) 0.0402(2) 0.02375(15)
H1_4 H 0.335962 0.060372 0.007857
C2_4 C 0.3597(3) 0.0341(3) 0.06094(17)
H2_4 H 0.332701 0.048529 0.070507
C3_4 C 0.3980(2) 0.0063(2) 0.08500(14)
C7_4 C 0.3775(4) 0.0337(3) 0.1456(2)
H5_4 H 0.367813 0.063749 0.133991
C8_4 C 0.3729(4) 0.0251(3) 0.18200(19)
H6_4 H 0.358615 0.048880 0.195243
N1_4 N 0.39683(15) 0.01913(14) 0.00873(11)
Zn1_3 Zn 0.39525(2) 0.03064(2) 0.95324(2)
Zn2_2 Zn 0.36930(2) 0.03178(2) 0.86976(2)
N9_3 N 0.37185(15) 0.03346(13) 0.81393(11)
O15_3 O 0.32420(14) 0.08469(13) 0.87971(10)
O16_3 O 0.34628(13) 0.08604(12) 0.94375(10)
O17_3 O 0.43287(15) 0.07524(14) 0.88830(10)
O18_3 O 0.45311(13) 0.07742(12) 0.95199(9)
C4_5 C 0.4347(2) 0.9844(2) 0.06932(14)
H3_5 H 0.460767 0.964346 0.084581
C5_5 C 0.43296(19) 0.9920(2) 0.03082(13)
H4_5 H 0.458601 0.977206 0.020006
C6_5 C 0.3966(3) 0.9981(2) 0.12512(15)
C9_5 C 0.3886(3) 0.9828(3) 0.19987(16)
C10_5 C 0.4100(2) 0.9479(3) 0.18090(15)
C11_5 C 0.4138(3) 0.9567(3) 0.14390(16)
H7_5 H 0.428939 0.933180 0.130939
C12_5 C 0.3324(2) 0.9819(3) 0.28697(16)
H8_5 H 0.300571 0.990516 0.293452
C13_5 C 0.3357(3) 0.9861(3) 0.24913(17)
H9_5 H 0.305909 0.996070 0.229768
C14_5 C 0.3825(3) 0.9756(2) 0.23977(16)
C15_5 C 0.4234(2) 0.9592(2) 0.26846(15)
H10_5 H 0.455893 0.950432 0.262991
C16_5 C 0.4169(2) 0.9556(2) 0.30514(14)
H11_5 H 0.445677 0.944813 0.325017
C17_5 C 0.4257(3) 0.8992(3) 0.19798(16)
C18_5 C 0.3498(5) 0.8043(4) 0.2832(2)
C19_5 C 0.3547(7) 0.8404(4) 0.2560(3)
H12_5 H 0.361303 0.870592 0.270456
H13_5 H 0.319753 0.843473 0.237684
C20_5 C 0.3933(5) 0.8375(3) 0.2331(3)
H14_5 H 0.428727 0.841180 0.251325
C21_5 C 0.3917(8) 0.7923(5) 0.2177(4)
H15_5 H 0.417722 0.789995 0.201893
H16_5 H 0.356284 0.786420 0.200762
C22_5 C 0.4048(7) 0.7517(4) 0.2518(4)
C23_5 C 0.4025(9) 0.7058(5) 0.2318(5)
H17_5 H 0.431118 0.704110 0.218568
H18_5 H 0.406310 0.679967 0.250507
H19_5 H 0.368542 0.702851 0.212855
C24_5 C 0.4583(4) 0.7545(8) 0.2810(6)
H20_5 H 0.453370 0.765605 0.305771
H21_5 H 0.481177 0.776739 0.271648
H22_5 H 0.474717 0.723084 0.284209
C25_5 C 0.2917(4) 0.7986(6) 0.2858(4)
H23_5 H 0.289664 0.773751 0.304540
H24_5 H 0.279200 0.828614 0.294126
H25_5 H 0.269561 0.789819 0.260556
C26_5 C 0.3792(5) 0.8134(5) 0.3240(3)
H26_5 H 0.373461 0.787006 0.340239
H27_5 H 0.416892 0.816344 0.325330
H28_5 H 0.366377 0.842846 0.332998
C68_5 C 0.2317(6) 0.8071(6) 0.1173(4)
C69_5 C 0.1969(6) 0.7994(7) 0.0765(4)
H51_5 H 0.162661 0.815688 0.073652
H52_5 H 0.190030 0.765120 0.071715
C70_5 C 0.2263(6) 0.8198(6) 0.0470(3)
H53_5 H 0.258899 0.801072 0.047439
C71_5 C 0.2401(6) 0.8735(6) 0.0548(4)
H54_5 H 0.255307 0.886509 0.034282
H55_5 H 0.207686 0.891615 0.054958
C72_5 C 0.2804(4) 0.8783(5) 0.0945(4)
C73_5 C 0.2742(6) 0.7700(6) 0.1306(5)
H56_5 H 0.258401 0.738324 0.126867
H57_5 H 0.300762 0.772849 0.115602
H58_5 H 0.290998 0.774794 0.157936
C74_5 C 0.1977(5) 0.8060(6) 0.1453(4)
H59_5 H 0.179221 0.775553 0.143270
H60_5 H 0.219746 0.809924 0.171462
H61_5 H 0.171919 0.831791 0.139427
C75_5 C 0.3354(5) 0.8641(5) 0.0945(4)
H62_5 H 0.336361 0.830190 0.088909
H63_5 H 0.347112 0.882183 0.074712
H64_5 H 0.358866 0.870771 0.119752
C76_5 C 0.2808(5) 0.9305(5) 0.1031(4)
H65_5 H 0.245158 0.940830 0.103313
H66_5 H 0.304698 0.936623 0.128330
H67_5 H 0.292945 0.948035 0.083290
N2_3 N 0.37185(15) 0.96654(13) 0.31393(11)
N3_5 N 0.3871(3) 0.8758(2) 0.20725(16)
H68_5 H 0.354708 0.884881 0.196367
N4_5 N 0.3638(4) 0.7564(3) 0.2718(2)
O1_5 O 0.4709(3) 0.8860(2) 0.20347(15)
O2_5 O 0.3538(5) 0.7212(3) 0.2914(3)
N6_5 N 0.1891(4) 0.8155(5) 0.0102(3)
H70_5 H 0.155162 0.819258 0.008222
N7_5 N 0.2560(6) 0.8526(6) 0.1231(3)
O13_5 O 0.2823(6) 0.8651(7) 0.1601(3)
C83_4 C 0.9055(11) 0.8538(8) 0.0050(6)
H76_4 H 0.885184 0.850915 0.024561
H77_4 H 0.939935 0.867831 0.016650
C84_4 C 0.9449(9) 0.7770(10) 0.0223(6)
H79_4 H 0.925377 0.773710 0.042251
H80_4 H 0.951639 0.745579 0.012935
H81_4 H 0.978465 0.793063 0.033079
Zn7_3 Zn 0.36930(2) 0.96822(2) 0.36976(2)
H88_5 H 0.315378 0.719983 0.289695
H89_5 H 0.311268 0.842203 0.169984
C27_5 C 0.44409(18) 0.96131(16) 0.91485(14)
C28_5 C 0.4810(2) 0.92226(19) 0.91427(15)
C29_5 C 0.4885(3) 0.9055(3) 0.87954(18)
H29_5 H 0.467965 0.918142 0.856057
C30_5 C 0.5243(3) 0.8720(3) 0.8787(2)
H30_5 H 0.529541 0.861820 0.854629
C31_5 C 0.5539(3) 0.8519(3) 0.9125(2)
C32_5 C 0.5456(2) 0.8668(2) 0.94663(19)
H31_5 H 0.565651 0.853601 0.970059
C33_5 C 0.5087(2) 0.90051(19) 0.94727(16)
H32_5 H 0.501971 0.909230 0.971213
C34_5 C 0.5928(2) 0.8148(2) 0.9100(2)
C35_5 C 0.58093(18) 0.7762(2) 0.8853(2)
H33_5 H 0.546054 0.771887 0.870055
C36_5 C 0.6200(2) 0.7438(2) 0.8831(2)
H34_5 H 0.611914 0.717339 0.866228
C37_5 C 0.6711(2) 0.7500(2) 0.9054(2)
C38_5 C 0.68297(18) 0.7887(2) 0.9301(2)
C39_5 C 0.6439(2) 0.8211(2) 0.9324(2)
H35_5 H 0.651986 0.847485 0.949198
C40_5 C 0.7095(3) 0.7086(3) 0.9093(3)
C41_5 C 0.7151(4) 0.6912(3) 0.8755(2)
H36_5 H 0.695157 0.703400 0.851649
C42_5 C 0.7504(3) 0.6555(3) 0.8767(2)
H37_5 H 0.754009 0.642147 0.853151
C43_5 C 0.7811(3) 0.6378(2) 0.91055(17)
C44_5 C 0.7735(3) 0.6561(3) 0.9446(2)
H38_5 H 0.793775 0.644584 0.968577
C45_5 C 0.7372(3) 0.6904(3) 0.9438(2)
H39_5 H 0.730906 0.701857 0.967147
C46_5 C 0.82008(18) 0.60004(17) 0.91097(15)
C47_5 C 0.3029(2) 0.97467(18) 0.89857(15)
C48_5 C 0.2641(2) 0.9386(2) 0.90091(16)
C49_5 C 0.2391(3) 0.9115(3) 0.86918(17)
H40_5 H 0.245662 0.918256 0.844807
C50_5 C 0.2065(3) 0.8767(3) 0.8721(2)
H41_5 H 0.190880 0.858836 0.849692
C51_5 C 0.1939(3) 0.8648(3) 0.9071(2)
C52_5 C 0.2171(3) 0.8947(3) 0.9392(2)
H42_5 H 0.209077 0.889441 0.963350
C53_5 C 0.2502(3) 0.9300(3) 0.93551(17)
H43_5 H 0.264404 0.949681 0.957070
C54_5 C 0.1574(3) 0.8269(2) 0.91057(16)
C55_5 C 0.1171(3) 0.8156(3) 0.87869(15)
H44_5 H 0.111961 0.833969 0.855877
C56_5 C 0.0841(3) 0.7774(3) 0.88020(15)
H45_5 H 0.056516 0.769626 0.858412
C57_5 C 0.0916(2) 0.75044(19) 0.91358(16)
C58_5 C 0.1320(3) 0.7618(2) 0.94546(14)
H46_5 H 0.137041 0.743356 0.968273
C59_5 C 0.1649(2) 0.8000(2) 0.94395(14)
C60_5 C 0.0570(3) 0.7097(2) 0.9150(2)
C61_5 C 0.0368(3) 0.6819(3) 0.88342(18)
H47_5 H 0.045568 0.689126 0.859851
C62_5 C 0.0054(2) 0.6454(2) 0.88466(16)
C64_5 C 0.0138(3) 0.6585(2) 0.95124(18)
H49_5 H 0.005451 0.650597 0.974825
C65_5 C 0.0458(3) 0.6952(3) 0.9498(2)
H50_5 H 0.061415 0.711789 0.972883
C67_5 C 0.2083(7) 0.8051(5) 0.9770(4)
N5_5 N 0.7752(5) 0.7988(10) 0.9253(6)
H69_5 H 0.763722 0.785002 0.902797
O3_5 O 0.44102(13) 0.97662(11) 0.94669(9)
O4_5 O 0.41827(15) 0.97706(13) 0.88320(10)
O5_3 O 0.82420(14) 0.58469(13) 0.87971(10)
O6_3 O 0.84628(13) 0.58604(12) 0.94375(10)
O7_5 O 0.7443(9) 0.8379(11) 0.9773(8)
O8_5 O 0.33011(13) 0.99059(13) 0.92990(10)
O9_5 O 0.30829(15) 0.98672(14) 0.86579(10)
O12_5 O 0.2568(4) 0.7989(6) 0.9799(4)
C77_5 C 0.7363(5) 0.8078(7) 0.9514(5)
C78_5 C 0.9129(7) 0.8057(7) 0.9895(5)
C79_5 C 0.8598(6) 0.7818(9) 0.9703(5)
H71_5 H 0.866365 0.750254 0.960297
H72_5 H 0.838953 0.777148 0.989687
C80_5 C 0.8289(6) 0.8125(10) 0.9375(5)
H73_5 H 0.832815 0.847072 0.943706
C81_5 C 0.8603(6) 0.7976(10) 0.9086(5)
H74_5 H 0.863379 0.762645 0.908721
H75_5 H 0.840996 0.807514 0.882461
C82_5 C 0.9152(7) 0.8193(7) 0.9179(6)
H78_5 H 0.886342 0.874120 0.984038
C85_5 C 0.9505(9) 0.7979(10) 0.8950(6)
H82_5 H 0.949406 0.763311 0.896795
H83_5 H 0.938364 0.807585 0.868033
H84_5 H 0.986678 0.808998 0.905365
C86_5 C 0.9190(11) 0.8723(7) 0.9137(6)
H85_5 H 0.896511 0.888016 0.928168
H86_5 H 0.955605 0.882392 0.923791
H87_5 H 0.907291 0.880980 0.886459
N8_5 N 0.9434(6) 0.8100(7) 0.9601(4)
O14_5 O 0.9986(8) 0.8052(10) 0.9595(8)
Zn3 Zn 0.89525(2) 0.53064(2) 0.95324(2)
Zn5 Zn 0.86930(2) 0.53178(2) 0.86976(2)
H48_5 H 0.991307 0.627726 0.861886
C63_5 C 0.9929(2) 0.63243(19) 0.91879(15)
C66_5 C 0.95632(19) 0.59109(18) 0.91930(14)
O10_3 O 0.93287(15) 0.57524(14) 0.88830(10)
O11_3 O 0.95311(13) 0.57742(12) 0.95199(9)
C30_6 C 0.0243(3) 0.3720(3) 0.8787(2)
H30_6 H 0.029541 0.361820 0.854629
C31_6 C 0.0539(3) 0.3519(3) 0.9125(2)
C32_6 C 0.0456(2) 0.3668(2) 0.94663(19)
H31_6 H 0.065651 0.353601 0.970059
C33_6 C 0.0087(2) 0.40051(19) 0.94727(16)
H32_6 H 0.001971 0.409230 0.971213
C34_6 C 0.0928(2) 0.3148(2) 0.9100(2)
C35_6 C 0.08093(18) 0.2762(2) 0.8853(2)
H33_6 H 0.046054 0.271887 0.870055
C36_6 C 0.1200(2) 0.2438(2) 0.8831(2)
H34_6 H 0.111914 0.217339 0.866228
C37_6 C 0.1711(2) 0.2500(2) 0.9054(2)
C38_6 C 0.18297(18) 0.2887(2) 0.9301(2)
C39_6 C 0.1439(2) 0.3211(2) 0.9324(2)
H35_6 H 0.151986 0.347485 0.949198
C40_6 C 0.2095(3) 0.2086(3) 0.9093(3)
C41_6 C 0.2151(4) 0.1912(3) 0.8755(2)
H36_6 H 0.195157 0.203400 0.851649
C42_6 C 0.2504(3) 0.1555(3) 0.8767(2)
H37_6 H 0.254009 0.142147 0.853151
C43_6 C 0.2811(3) 0.1378(2) 0.91055(17)
C44_6 C 0.2735(3) 0.1561(3) 0.9446(2)
H38_6 H 0.293775 0.144584 0.968577
C45_6 C 0.2372(3) 0.1904(3) 0.9438(2)
H39_6 H 0.230906 0.201857 0.967147
C46_6 C 0.32008(18) 0.10004(17) 0.91097(15)
N5_6 N 0.2752(5) 0.2988(10) 0.9253(6)
H69_6 H 0.263722 0.285002 0.902797
O7_6 O 0.2443(9) 0.3379(11) 0.9773(8)
C77_6 C 0.2363(5) 0.3078(7) 0.9514(5)
C78_6 C 0.4129(7) 0.3057(7) 0.9895(5)
C79_6 C 0.3598(6) 0.2818(9) 0.9703(5)
H71_6 H 0.366365 0.250254 0.960297
H72_6 H 0.338953 0.277148 0.989687
C80_6 C 0.3289(6) 0.3125(10) 0.9375(5)
H73_6 H 0.332815 0.347072 0.943706
C81_6 C 0.3603(6) 0.2976(10) 0.9086(5)
H74_6 H 0.363379 0.262645 0.908721
H75_6 H 0.340996 0.307514 0.882461
C82_6 C 0.4152(7) 0.3193(7) 0.9179(6)
H78_6 H 0.386342 0.374120 0.984038
C85_6 C 0.4505(9) 0.2979(10) 0.8950(6)
H82_6 H 0.449406 0.263311 0.896795
H83_6 H 0.438364 0.307585 0.868033
H84_6 H 0.486678 0.308998 0.905365
C86_6 C 0.4190(11) 0.3723(7) 0.9137(6)
H85_6 H 0.396511 0.388016 0.928168
H86_6 H 0.455605 0.382392 0.923791
H87_6 H 0.407291 0.380980 0.886459
N8_6 N 0.4434(6) 0.3100(7) 0.9601(4)
O14_6 O 0.4986(8) 0.3052(10) 0.9595(8)
H90_5 H 0.510885 0.27263 0.967563
C1_5 C 0.8613(2) 0.5402(2) 0.02375(15)
H1_5 H 0.835962 0.560372 0.007857
C2_5 C 0.8597(3) 0.5341(3) 0.06094(17)
H2_5 H 0.832701 0.548529 0.070507
C3_5 C 0.8980(2) 0.5063(2) 0.08500(14)
C4_6 C 0.9347(2) 0.4844(2) 0.06932(14)
H3_6 H 0.960767 0.464346 0.084581
C5_6 C 0.93296(19) 0.4920(2) 0.03082(13)
H4_6 H 0.958601 0.477206 0.020006
C6_6 C 0.8966(3) 0.4981(2) 0.12512(15)
C7_5 C 0.8775(4) 0.5337(3) 0.1456(2)
H5_5 H 0.867813 0.563749 0.133991
C8_5 C 0.8729(4) 0.5251(3) 0.18200(19)
H6_5 H 0.858615 0.548880 0.195243
C9_6 C 0.8886(3) 0.4828(3) 0.19987(16)
C10_6 C 0.9100(2) 0.4479(3) 0.18090(15)
C11_6 C 0.9138(3) 0.4567(3) 0.14390(16)
H7_6 H 0.928939 0.433180 0.130939
C12_6 C 0.8324(2) 0.4819(3) 0.28697(16)
H8_6 H 0.800571 0.490516 0.293452
C13_6 C 0.8357(3) 0.4861(3) 0.24913(17)
H9_6 H 0.805909 0.496070 0.229768
C14_6 C 0.8825(3) 0.4756(2) 0.23977(16)
C15_6 C 0.9234(2) 0.4592(2) 0.26846(15)
H10_6 H 0.955893 0.450432 0.262991
C16_6 C 0.9169(2) 0.4556(2) 0.30514(14)
H11_6 H 0.945677 0.444813 0.325017
C17_6 C 0.9257(3) 0.3992(3) 0.19798(16)
C18_6 C 0.8498(5) 0.3043(4) 0.2832(2)
C19_6 C 0.8547(7) 0.3404(4) 0.2560(3)
H12_6 H 0.861303 0.370592 0.270456
H13_6 H 0.819753 0.343473 0.237684
C20_6 C 0.8933(5) 0.3375(3) 0.2331(3)
H14_6 H 0.928727 0.341180 0.251325
C21_6 C 0.8917(8) 0.2923(5) 0.2177(4)
H15_6 H 0.917722 0.289995 0.201893
H16_6 H 0.856284 0.286420 0.200762
C22_6 C 0.9048(7) 0.2517(4) 0.2518(4)
C23_6 C 0.9025(9) 0.2058(5) 0.2318(5)
H17_6 H 0.931118 0.204110 0.218568
H18_6 H 0.906310 0.179967 0.250507
H19_6 H 0.868542 0.202851 0.212855
C24_6 C 0.9583(4) 0.2545(8) 0.2810(6)
H20_6 H 0.953370 0.265605 0.305771
H21_6 H 0.981177 0.276739 0.271648
H22_6 H 0.974717 0.223084 0.284209
C25_6 C 0.7917(4) 0.2986(6) 0.2858(4)
H23_6 H 0.789664 0.273751 0.304540
H24_6 H 0.779200 0.328614 0.294126
H25_6 H 0.769561 0.289819 0.260556
C26_6 C 0.8792(5) 0.3134(5) 0.3240(3)
H26_6 H 0.873461 0.287006 0.340239
H27_6 H 0.916892 0.316344 0.325330
H28_6 H 0.866377 0.342846 0.332998
C68_6 C 0.7317(6) 0.3071(6) 0.1173(4)
C69_6 C 0.6969(6) 0.2994(7) 0.0765(4)
H51_6 H 0.662661 0.315688 0.073652
H52_6 H 0.690030 0.265120 0.071715
C70_6 C 0.7263(6) 0.3198(6) 0.0470(3)
H53_6 H 0.758899 0.301072 0.047439
C71_6 C 0.7401(6) 0.3735(6) 0.0548(4)
H54_6 H 0.755307 0.386509 0.034282
H55_6 H 0.707686 0.391615 0.054958
C72_6 C 0.7804(4) 0.3783(5) 0.0945(4)
C73_6 C 0.7742(6) 0.2700(6) 0.1306(5)
H56_6 H 0.758401 0.238324 0.126867
H57_6 H 0.800762 0.272849 0.115602
H58_6 H 0.790998 0.274794 0.157936
C74_6 C 0.6977(5) 0.3060(6) 0.1453(4)
H59_6 H 0.679221 0.275553 0.143270
H60_6 H 0.719746 0.309924 0.171462
H61_6 H 0.671919 0.331791 0.139427
C75_6 C 0.8354(5) 0.3641(5) 0.0945(4)
H62_6 H 0.836361 0.330190 0.088909
H63_6 H 0.847112 0.382183 0.074712
H64_6 H 0.858866 0.370771 0.119752
C76_6 C 0.7808(5) 0.4305(5) 0.1031(4)
H65_6 H 0.745158 0.440830 0.103313
H66_6 H 0.804698 0.436623 0.128330
H67_6 H 0.792945 0.448035 0.083290
N1_5 N 0.89683(15) 0.51913(14) 0.00873(11)
N2_4 N 0.87185(15) 0.46654(13) 0.31393(11)
N3_6 N 0.8871(3) 0.3758(2) 0.20725(16)
H68_6 H 0.854708 0.384881 0.196367
N4_6 N 0.8638(4) 0.2564(3) 0.2718(2)
O1_6 O 0.9709(3) 0.3860(2) 0.20347(15)
O2_6 O 0.8538(5) 0.2212(3) 0.2914(3)
N6_6 N 0.6891(4) 0.3155(5) 0.0102(3)
H70_6 H 0.655162 0.319258 0.008222
N7_6 N 0.7560(6) 0.3526(6) 0.1231(3)
O13_6 O 0.7823(6) 0.3651(7) 0.1601(3)
Zn7_4 Zn 0.86930(2) 0.46822(2) 0.36976(2)
H88_6 H 0.815378 0.219983 0.289695
H89_6 H 0.811268 0.342203 0.169984
C27_6 C 0.94409(18) 0.46131(16) 0.91485(14)
C28_6 C 0.9810(2) 0.42226(19) 0.91427(15)
C29_6 C 0.9885(3) 0.4055(3) 0.87954(18)
H29_6 H 0.967965 0.418142 0.856057
C47_6 C 0.8029(2) 0.47467(18) 0.89857(15)
C48_6 C 0.7641(2) 0.4386(2) 0.90091(16)
C49_6 C 0.7391(3) 0.4115(3) 0.86918(17)
H40_6 H 0.745662 0.418256 0.844807
C50_6 C 0.7065(3) 0.3767(3) 0.8721(2)
H41_6 H 0.690880 0.358836 0.849692
C51_6 C 0.6939(3) 0.3648(3) 0.9071(2)
C52_6 C 0.7171(3) 0.3947(3) 0.9392(2)
H42_6 H 0.709077 0.389441 0.963350
C53_6 C 0.7502(3) 0.4300(3) 0.93551(17)
H43_6 H 0.764404 0.449681 0.957070
C54_6 C 0.6574(3) 0.3269(2) 0.91057(16)
C55_6 C 0.6171(3) 0.3156(3) 0.87869(15)
H44_6 H 0.611961 0.333969 0.855877
C56_6 C 0.5841(3) 0.2774(3) 0.88020(15)
H45_6 H 0.556516 0.269626 0.858412
C57_6 C 0.5916(2) 0.25044(19) 0.91358(16)
C58_6 C 0.6320(3) 0.2618(2) 0.94546(14)
H46_6 H 0.637041 0.243356 0.968273
C59_6 C 0.6649(2) 0.3000(2) 0.94395(14)
C60_6 C 0.5570(3) 0.2097(2) 0.9150(2)
C61_6 C 0.5368(3) 0.1819(3) 0.88342(18)
H47_6 H 0.545568 0.189126 0.859851
C62_6 C 0.5054(2) 0.1454(2) 0.88466(16)
H48_6 H 0.491307 0.127726 0.861886
C63_6 C 0.4929(2) 0.13243(19) 0.91879(15)
C64_6 C 0.5138(3) 0.1585(2) 0.95124(18)
H49_6 H 0.505451 0.150597 0.974825
C65_6 C 0.5458(3) 0.1952(3) 0.9498(2)
H50_6 H 0.561415 0.211789 0.972883
C66_6 C 0.45632(19) 0.09109(18) 0.91930(14)
C67_6 C 0.7083(7) 0.3051(5) 0.9770(4)
O3_6 O 0.94102(13) 0.47662(11) 0.94669(9)
O4_6 O 0.91827(15) 0.47706(13) 0.88320(10)
O8_6 O 0.83011(13) 0.49059(13) 0.92990(10)
O9_6 O 0.80829(15) 0.48672(14) 0.86579(10)
O12_6 O 0.7568(4) 0.2989(6) 0.9799(4)
N9_4 N 0.87185(15) 0.53346(13) 0.81393(11)
C4_7 C 0.4347(2) 0.0156(2) 0.56932(14)
H3_7 H 0.460767 0.035654 0.584581
C5_7 C 0.43296(19) 0.0080(2) 0.53082(13)
H4_7 H 0.458601 0.022794 0.520006
C6_7 C 0.3966(3) 0.0019(2) 0.62512(15)
C9_7 C 0.3886(3) 0.0172(3) 0.69987(16)
C10_7 C 0.4100(2) 0.0521(3) 0.68090(15)
C11_7 C 0.4138(3) 0.0433(3) 0.64390(16)
H7_7 H 0.428939 0.066820 0.630939
C12_7 C 0.3324(2) 0.0181(3) 0.78697(16)
H8_7 H 0.300571 0.009484 0.793452
C13_7 C 0.3357(3) 0.0139(3) 0.74913(17)
H9_7 H 0.305909 0.003930 0.729768
C14_7 C 0.3825(3) 0.0244(2) 0.73977(16)
C15_7 C 0.4234(2) 0.0408(2) 0.76846(15)
H10_7 H 0.455893 0.049568 0.762991
C16_7 C 0.4169(2) 0.0444(2) 0.80514(14)
H11_7 H 0.445677 0.055187 0.825017
C17_7 C 0.4257(3) 0.1008(3) 0.69798(16)
C18_7 C 0.3498(5) 0.1957(4) 0.7832(2)
C19_7 C 0.3547(7) 0.1596(4) 0.7560(3)
H12_7 H 0.361303 0.129408 0.770456
H13_7 H 0.319753 0.156527 0.737684
C20_7 C 0.3933(5) 0.1625(3) 0.7331(3)
H14_7 H 0.428727 0.158820 0.751325
C21_7 C 0.3917(8) 0.2077(5) 0.7177(4)
H15_7 H 0.417722 0.210005 0.701893
H16_7 H 0.356284 0.213580 0.700762
C22_7 C 0.4048(7) 0.2483(4) 0.7518(4)
C23_7 C 0.4025(9) 0.2942(5) 0.7318(5)
H17_7 H 0.431118 0.295890 0.718568
H18_7 H 0.406310 0.320033 0.750507
H19_7 H 0.368542 0.297149 0.712855
C24_7 C 0.4583(4) 0.2455(8) 0.7810(6)
H20_7 H 0.453370 0.234395 0.805771
H21_7 H 0.481177 0.223261 0.771648
H22_7 H 0.474717 0.276916 0.784209
C25_7 C 0.2917(4) 0.2014(6) 0.7858(4)
H23_7 H 0.289664 0.226249 0.804540
H24_7 H 0.279200 0.171386 0.794126
H25_7 H 0.269561 0.210181 0.760556
C26_7 C 0.3792(5) 0.1866(5) 0.8240(3)
H26_7 H 0.373461 0.212994 0.840239
H27_7 H 0.416892 0.183656 0.825330
H28_7 H 0.366377 0.157154 0.832998
C27_7 C 0.44409(18) 0.03869(16) 0.41485(14)
C28_7 C 0.4810(2) 0.07774(19) 0.41427(15)
C29_7 C 0.4885(3) 0.0945(3) 0.37954(18)
H29_7 H 0.467965 0.081858 0.356057
C30_7 C 0.5243(3) 0.1280(3) 0.3787(2)
H30_7 H 0.529541 0.138180 0.354629
C31_7 C 0.5539(3) 0.1481(3) 0.4125(2)
C32_7 C 0.5456(2) 0.1332(2) 0.44663(19)
H31_7 H 0.565651 0.146399 0.470059
C33_7 C 0.5087(2) 0.09949(19) 0.44727(16)
H32_7 H 0.501971 0.090770 0.471213
C34_7 C 0.5928(2) 0.1852(2) 0.4100(2)
C35_7 C 0.58093(18) 0.2238(2) 0.3853(2)
H33_7 H 0.546054 0.228113 0.370055
C36_7 C 0.6200(2) 0.2562(2) 0.3831(2)
H34_7 H 0.611914 0.282661 0.366228
C37_7 C 0.6711(2) 0.2500(2) 0.4054(2)
C38_7 C 0.68297(18) 0.2113(2) 0.4301(2)
C39_7 C 0.6439(2) 0.1789(2) 0.4324(2)
H35_7 H 0.651986 0.152515 0.449198
C40_7 C 0.7095(3) 0.2914(3) 0.4093(3)
C41_7 C 0.7151(4) 0.3088(3) 0.3755(2)
H36_7 H 0.695157 0.296600 0.351649
C42_7 C 0.7504(3) 0.3445(3) 0.3767(2)
H37_7 H 0.754009 0.357853 0.353151
C43_7 C 0.7811(3) 0.3622(2) 0.41055(17)
C44_7 C 0.7735(3) 0.3439(3) 0.4446(2)
H38_7 H 0.793775 0.355416 0.468577
C45_7 C 0.7372(3) 0.3096(3) 0.4438(2)
H39_7 H 0.730906 0.298143 0.467147
C46_7 C 0.82008(18) 0.39996(17) 0.41097(15)
C47_7 C 0.3029(2) 0.02533(18) 0.39857(15)
C48_7 C 0.2641(2) 0.0614(2) 0.40091(16)
C49_7 C 0.2391(3) 0.0885(3) 0.36918(17)
H40_7 H 0.245662 0.081744 0.344807
C50_7 C 0.2065(3) 0.1233(3) 0.3721(2)
H41_7 H 0.190880 0.141164 0.349692
C51_7 C 0.1939(3) 0.1352(3) 0.4071(2)
C52_7 C 0.2171(3) 0.1053(3) 0.4392(2)
H42_7 H 0.209077 0.110559 0.463350
C53_7 C 0.2502(3) 0.0700(3) 0.43551(17)
H43_7 H 0.264404 0.050319 0.457070
C54_7 C 0.1574(3) 0.1731(2) 0.41057(16)
C55_7 C 0.1171(3) 0.1844(3) 0.37869(15)
H44_7 H 0.111961 0.166031 0.355877
C56_7 C 0.0841(3) 0.2226(3) 0.38020(15)
H45_7 H 0.056516 0.230374 0.358412
C57_7 C 0.0916(2) 0.24956(19) 0.41358(16)
C58_7 C 0.1320(3) 0.2382(2) 0.44546(14)
H46_7 H 0.137041 0.256644 0.468273
C59_7 C 0.1649(2) 0.2000(2) 0.44395(14)
C60_7 C 0.0570(3) 0.2903(2) 0.4150(2)
C61_7 C 0.0368(3) 0.3181(3) 0.38342(18)
H47_7 H 0.045568 0.310874 0.359851
C62_7 C 0.0054(2) 0.3546(2) 0.38466(16)
C64_7 C 0.0138(3) 0.3415(2) 0.45124(18)
H49_7 H 0.005451 0.349403 0.474825
C65_7 C 0.0458(3) 0.3048(3) 0.4498(2)
H50_7 H 0.061415 0.288211 0.472883
C67_7 C 0.2083(7) 0.1949(5) 0.4770(4)
C68_7 C 0.2317(6) 0.1929(6) 0.6173(4)
C69_7 C 0.1969(6) 0.2006(7) 0.5765(4)
H51_7 H 0.162661 0.184312 0.573652
H52_7 H 0.190030 0.234880 0.571715
C70_7 C 0.2263(6) 0.1802(6) 0.5470(3)
H53_7 H 0.258899 0.198928 0.547439
C71_7 C 0.2401(6) 0.1265(6) 0.5548(4)
H54_7 H 0.255307 0.113491 0.534282
H55_7 H 0.207686 0.108385 0.554958
C72_7 C 0.2804(4) 0.1217(5) 0.5945(4)
C73_7 C 0.2742(6) 0.2300(6) 0.6306(5)
H56_7 H 0.258401 0.261676 0.626867
H57_7 H 0.300762 0.227151 0.615602
H58_7 H 0.290998 0.225206 0.657936
C74_7 C 0.1977(5) 0.1940(6) 0.6453(4)
H59_7 H 0.179221 0.224447 0.643270
H60_7 H 0.219746 0.190076 0.671462
H61_7 H 0.171919 0.168209 0.639427
C75_7 C 0.3354(5) 0.1359(5) 0.5945(4)
H62_7 H 0.336361 0.169810 0.588909
H63_7 H 0.347112 0.117817 0.574712
H64_7 H 0.358866 0.129229 0.619752
C76_7 C 0.2808(5) 0.0695(5) 0.6031(4)
H65_7 H 0.245158 0.059170 0.603313
H66_7 H 0.304698 0.063377 0.628330
H67_7 H 0.292945 0.051965 0.583290
N3_7 N 0.3871(3) 0.1242(2) 0.70725(16)
H68_7 H 0.354708 0.115119 0.696367
N4_7 N 0.3638(4) 0.2436(3) 0.7718(2)
N5_7 N 0.7752(5) 0.2012(10) 0.4253(6)
H69_7 H 0.763722 0.214998 0.402797
O1_7 O 0.4709(3) 0.1140(2) 0.70347(15)
O2_7 O 0.3538(5) 0.2788(3) 0.7914(3)
O3_7 O 0.44102(13) 0.02338(11) 0.44669(9)
O4_7 O 0.41827(15) 0.02294(13) 0.38320(10)
O5_4 O 0.82420(14) 0.41531(13) 0.37971(10)
O6_4 O 0.84628(13) 0.41396(12) 0.44375(10)
N6_7 N 0.1891(4) 0.1845(5) 0.5102(3)
H70_7 H 0.155162 0.180742 0.508222
N7_7 N 0.2560(6) 0.1474(6) 0.6231(3)
O7_7 O 0.7443(9) 0.1621(11) 0.4773(8)
O8_7 O 0.33011(13) 0.00941(13) 0.42990(10)
O9_7 O 0.30829(15) 0.01328(14) 0.36579(10)
O12_7 O 0.2568(4) 0.2011(6) 0.4799(4)
O13_7 O 0.2823(6) 0.1349(7) 0.6601(3)
C77_7 C 0.7363(5) 0.1922(7) 0.4514(5)
C78_7 C 0.9129(7) 0.1943(7) 0.4895(5)
C79_7 C 0.8598(6) 0.2182(9) 0.4703(5)
H71_7 H 0.866365 0.249746 0.460297
H72_7 H 0.838953 0.222852 0.489687
C80_7 C 0.8289(6) 0.1875(10) 0.4375(5)
H73_7 H 0.832815 0.152928 0.443706
C81_7 C 0.8603(6) 0.2024(10) 0.4086(5)
H74_7 H 0.863379 0.237355 0.408721
H75_7 H 0.840996 0.192486 0.382461
C82_7 C 0.9152(7) 0.1807(7) 0.4179(6)
C83_5 C 0.9055(11) 0.1462(8) 0.5050(6)
H76_5 H 0.885184 0.149085 0.524561
H77_5 H 0.939935 0.132169 0.516650
H78_7 H 0.886342 0.125880 0.484038
C84_5 C 0.9449(9) 0.2230(10) 0.5223(6)
H79_5 H 0.925377 0.226290 0.542251
H80_5 H 0.951639 0.254421 0.512935
H81_5 H 0.978465 0.206937 0.533079
C85_7 C 0.9505(9) 0.2021(10) 0.3950(6)
H82_7 H 0.949406 0.236689 0.396795
H83_7 H 0.938364 0.192415 0.368033
H84_7 H 0.986678 0.191002 0.405365
C86_7 C 0.9190(11) 0.1277(7) 0.4137(6)
H85_7 H 0.896511 0.111984 0.428168
H86_7 H 0.955605 0.117608 0.423791
H87_7 H 0.907291 0.119020 0.386459
N8_7 N 0.9434(6) 0.1900(7) 0.4601(4)
O14_7 O 0.9986(8) 0.1948(10) 0.4595(8)
Zn3_2 Zn 0.89525(2) 0.46936(2) 0.45324(2)
H88_7 H 0.315378 0.280017 0.789695
H89_7 H 0.311268 0.157797 0.669984
C1_6 C 0.3613(2) 0.9598(2) 0.52375(15)
H1_6 H 0.335962 0.939628 0.507857
C2_6 C 0.3597(3) 0.9659(3) 0.56094(17)
H2_6 H 0.332701 0.951471 0.570507
C3_6 C 0.3980(2) 0.9937(2) 0.58500(14)
C7_6 C 0.3775(4) 0.9663(3) 0.6456(2)
H5_6 H 0.367813 0.936251 0.633991
C8_6 C 0.3729(4) 0.9749(3) 0.68200(19)
H6_6 H 0.358615 0.951120 0.695243
N1_6 N 0.39683(15) 0.98087(14) 0.50873(11)
Zn1_4 Zn 0.39525(2) 0.96936(2) 0.45324(2)
O15_4 O 0.32420(14) 0.91531(13) 0.37971(10)
O16_4 O 0.34628(13) 0.91396(12) 0.44375(10)
O17_4 O 0.43287(15) 0.92476(14) 0.38830(10)
O18_4 O 0.45311(13) 0.92258(12) 0.45199(9)
H48_7 H 0.991307 0.372274 0.361886
C63_7 C 0.9929(2) 0.36757(19) 0.41879(15)
C66_7 C 0.95632(19) 0.40891(18) 0.41930(14)
O10_4 O 0.93287(15) 0.42476(14) 0.38830(10)
O11_4 O 0.95311(13) 0.42258(12) 0.45199(9)
C30_8 C 0.0243(3) 0.6280(3) 0.3787(2)
H30_8 H 0.029541 0.638180 0.354629
C31_8 C 0.0539(3) 0.6481(3) 0.4125(2)
C32_8 C 0.0456(2) 0.6332(2) 0.44663(19)
H31_8 H 0.065651 0.646399 0.470059
C33_8 C 0.0087(2) 0.59949(19) 0.44727(16)
H32_8 H 0.001971 0.590770 0.471213
C34_8 C 0.0928(2) 0.6852(2) 0.4100(2)
C35_8 C 0.08093(18) 0.7238(2) 0.3853(2)
H33_8 H 0.046054 0.728113 0.370055
C36_8 C 0.1200(2) 0.7562(2) 0.3831(2)
H34_8 H 0.111914 0.782661 0.366228
C37_8 C 0.1711(2) 0.7500(2) 0.4054(2)
C38_8 C 0.18297(18) 0.7113(2) 0.4301(2)
C39_8 C 0.1439(2) 0.6789(2) 0.4324(2)
H35_8 H 0.151986 0.652515 0.449198
C40_8 C 0.2095(3) 0.7914(3) 0.4093(3)
C41_8 C 0.2151(4) 0.8088(3) 0.3755(2)
H36_8 H 0.195157 0.796600 0.351649
C42_8 C 0.2504(3) 0.8445(3) 0.3767(2)
H37_8 H 0.254009 0.857853 0.353151
C43_8 C 0.2811(3) 0.8622(2) 0.41055(17)
C44_8 C 0.2735(3) 0.8439(3) 0.4446(2)
H38_8 H 0.293775 0.855416 0.468577
C45_8 C 0.2372(3) 0.8096(3) 0.4438(2)
H39_8 H 0.230906 0.798143 0.467147
C46_8 C 0.32008(18) 0.89996(17) 0.41097(15)
N5_8 N 0.2752(5) 0.7012(10) 0.4253(6)
H69_8 H 0.263722 0.714998 0.402797
O7_8 O 0.2443(9) 0.6621(11) 0.4773(8)
C77_8 C 0.2363(5) 0.6922(7) 0.4514(5)
C78_8 C 0.4129(7) 0.6943(7) 0.4895(5)
C79_8 C 0.3598(6) 0.7182(9) 0.4703(5)
H71_8 H 0.366365 0.749746 0.460297
H72_8 H 0.338953 0.722852 0.489687
C80_8 C 0.3289(6) 0.6875(10) 0.4375(5)
H73_8 H 0.332815 0.652928 0.443706
C81_8 C 0.3603(6) 0.7024(10) 0.4086(5)
H74_8 H 0.363379 0.737355 0.408721
H75_8 H 0.340996 0.692486 0.382461
C82_8 C 0.4152(7) 0.6807(7) 0.4179(6)
C83_6 C 0.4055(11) 0.6462(8) 0.5050(6)
H76_6 H 0.385184 0.649085 0.524561
H77_6 H 0.439935 0.632169 0.516650
H78_8 H 0.386342 0.625880 0.484038
C84_6 C 0.4449(9) 0.7230(10) 0.5223(6)
H79_6 H 0.425377 0.726290 0.542251
H80_6 H 0.451639 0.754421 0.512935
H81_6 H 0.478465 0.706937 0.533079
C85_8 C 0.4505(9) 0.7021(10) 0.3950(6)
H82_8 H 0.449406 0.736689 0.396795
H83_8 H 0.438364 0.692415 0.368033
H84_8 H 0.486678 0.691002 0.405365
C86_8 C 0.4190(11) 0.6277(7) 0.4137(6)
H85_8 H 0.396511 0.611984 0.428168
H86_8 H 0.455605 0.617608 0.423791
H87_8 H 0.407291 0.619020 0.386459
N8_8 N 0.4434(6) 0.6900(7) 0.4601(4)
O14_8 O 0.4986(8) 0.6948(10) 0.4595(8)
H90_6 H 0.510885 0.72737 0.467563
C1_7 C 0.8613(2) 0.4598(2) 0.52375(15)
H1_7 H 0.835962 0.439628 0.507857
C2_7 C 0.8597(3) 0.4659(3) 0.56094(17)
H2_7 H 0.832701 0.451471 0.570507
C3_7 C 0.8980(2) 0.4937(2) 0.58500(14)
C4_8 C 0.9347(2) 0.5156(2) 0.56932(14)
H3_8 H 0.960767 0.535654 0.584581
C5_8 C 0.93296(19) 0.5080(2) 0.53082(13)
H4_8 H 0.958601 0.522794 0.520006
C6_8 C 0.8966(3) 0.5019(2) 0.62512(15)
C7_7 C 0.8775(4) 0.4663(3) 0.6456(2)
H5_7 H 0.867813 0.436251 0.633991
C8_7 C 0.8729(4) 0.4749(3) 0.68200(19)
H6_7 H 0.858615 0.451120 0.695243
C9_8 C 0.8886(3) 0.5172(3) 0.69987(16)
C10_8 C 0.9100(2) 0.5521(3) 0.68090(15)
C11_8 C 0.9138(3) 0.5433(3) 0.64390(16)
H7_8 H 0.928939 0.566820 0.630939
C12_8 C 0.8324(2) 0.5181(3) 0.78697(16)
H8_8 H 0.800571 0.509484 0.793452
C13_8 C 0.8357(3) 0.5139(3) 0.74913(17)
H9_8 H 0.805909 0.503930 0.729768
C14_8 C 0.8825(3) 0.5244(2) 0.73977(16)
C15_8 C 0.9234(2) 0.5408(2) 0.76846(15)
H10_8 H 0.955893 0.549568 0.762991
C16_8 C 0.9169(2) 0.5444(2) 0.80514(14)
H11_8 H 0.945677 0.555187 0.825017
C17_8 C 0.9257(3) 0.6008(3) 0.69798(16)
C18_8 C 0.8498(5) 0.6957(4) 0.7832(2)
C19_8 C 0.8547(7) 0.6596(4) 0.7560(3)
H12_8 H 0.861303 0.629408 0.770456
H13_8 H 0.819753 0.656527 0.737684
C20_8 C 0.8933(5) 0.6625(3) 0.7331(3)
H14_8 H 0.928727 0.658820 0.751325
C21_8 C 0.8917(8) 0.7077(5) 0.7177(4)
H15_8 H 0.917722 0.710005 0.701893
H16_8 H 0.856284 0.713580 0.700762
C22_8 C 0.9048(7) 0.7483(4) 0.7518(4)
C23_8 C 0.9025(9) 0.7942(5) 0.7318(5)
H17_8 H 0.931118 0.795890 0.718568
H18_8 H 0.906310 0.820033 0.750507
H19_8 H 0.868542 0.797149 0.712855
C24_8 C 0.9583(4) 0.7455(8) 0.7810(6)
H20_8 H 0.953370 0.734395 0.805771
H21_8 H 0.981177 0.723261 0.771648
H22_8 H 0.974717 0.776916 0.784209
C25_8 C 0.7917(4) 0.7014(6) 0.7858(4)
H23_8 H 0.789664 0.726249 0.804540
H24_8 H 0.779200 0.671386 0.794126
H25_8 H 0.769561 0.710181 0.760556
C26_8 C 0.8792(5) 0.6866(5) 0.8240(3)
H26_8 H 0.873461 0.712994 0.840239
H27_8 H 0.916892 0.683656 0.825330
H28_8 H 0.866377 0.657154 0.832998
C27_8 C 0.94409(18) 0.53869(16) 0.41485(14)
C28_8 C 0.9810(2) 0.57774(19) 0.41427(15)
C29_8 C 0.9885(3) 0.5945(3) 0.37954(18)
H29_8 H 0.967965 0.581858 0.356057
C47_8 C 0.8029(2) 0.52533(18) 0.39857(15)
C48_8 C 0.7641(2) 0.5614(2) 0.40091(16)
C49_8 C 0.7391(3) 0.5885(3) 0.36918(17)
H40_8 H 0.745662 0.581744 0.344807
C50_8 C 0.7065(3) 0.6233(3) 0.3721(2)
H41_8 H 0.690880 0.641164 0.349692
C51_8 C 0.6939(3) 0.6352(3) 0.4071(2)
C52_8 C 0.7171(3) 0.6053(3) 0.4392(2)
H42_8 H 0.709077 0.610559 0.463350
C53_8 C 0.7502(3) 0.5700(3) 0.43551(17)
H43_8 H 0.764404 0.550319 0.457070
C54_8 C 0.6574(3) 0.6731(2) 0.41057(16)
C55_8 C 0.6171(3) 0.6844(3) 0.37869(15)
H44_8 H 0.611961 0.666031 0.355877
C56_8 C 0.5841(3) 0.7226(3) 0.38020(15)
H45_8 H 0.556516 0.730374 0.358412
C57_8 C 0.5916(2) 0.74956(19) 0.41358(16)
C58_8 C 0.6320(3) 0.7382(2) 0.44546(14)
H46_8 H 0.637041 0.756644 0.468273
C59_8 C 0.6649(2) 0.7000(2) 0.44395(14)
C60_8 C 0.5570(3) 0.7903(2) 0.4150(2)
C61_8 C 0.5368(3) 0.8181(3) 0.38342(18)
H47_8 H 0.545568 0.810874 0.359851
C62_8 C 0.5054(2) 0.8546(2) 0.38466(16)
H48_8 H 0.491307 0.872274 0.361886
C63_8 C 0.4929(2) 0.86757(19) 0.41879(15)
C64_8 C 0.5138(3) 0.8415(2) 0.45124(18)
H49_8 H 0.505451 0.849403 0.474825
C65_8 C 0.5458(3) 0.8048(3) 0.4498(2)
H50_8 H 0.561415 0.788211 0.472883
C66_8 C 0.45632(19) 0.90891(18) 0.41930(14)
C67_8 C 0.7083(7) 0.6949(5) 0.4770(4)
C68_8 C 0.7317(6) 0.6929(6) 0.6173(4)
C69_8 C 0.6969(6) 0.7006(7) 0.5765(4)
H51_8 H 0.662661 0.684312 0.573652
H52_8 H 0.690030 0.734880 0.571715
C70_8 C 0.7263(6) 0.6802(6) 0.5470(3)
H53_8 H 0.758899 0.698928 0.547439
C71_8 C 0.7401(6) 0.6265(6) 0.5548(4)
H54_8 H 0.755307 0.613491 0.534282
H55_8 H 0.707686 0.608385 0.554958
C72_8 C 0.7804(4) 0.6217(5) 0.5945(4)
C73_8 C 0.7742(6) 0.7300(6) 0.6306(5)
H56_8 H 0.758401 0.761676 0.626867
H57_8 H 0.800762 0.727151 0.615602
H58_8 H 0.790998 0.725206 0.657936
C74_8 C 0.6977(5) 0.6940(6) 0.6453(4)
H59_8 H 0.679221 0.724447 0.643270
H60_8 H 0.719746 0.690076 0.671462
H61_8 H 0.671919 0.668209 0.639427
C75_8 C 0.8354(5) 0.6359(5) 0.5945(4)
H62_8 H 0.836361 0.669810 0.588909
H63_8 H 0.847112 0.617817 0.574712
H64_8 H 0.858866 0.629229 0.619752
C76_8 C 0.7808(5) 0.5695(5) 0.6031(4)
H65_8 H 0.745158 0.559170 0.603313
H66_8 H 0.804698 0.563377 0.628330
H67_8 H 0.792945 0.551965 0.583290
N1_7 N 0.89683(15) 0.48087(14) 0.50873(11)
N3_8 N 0.8871(3) 0.6242(2) 0.70725(16)
H68_8 H 0.854708 0.615119 0.696367
N4_8 N 0.8638(4) 0.7436(3) 0.7718(2)
O1_8 O 0.9709(3) 0.6140(2) 0.70347(15)
O2_8 O 0.8538(5) 0.7788(3) 0.7914(3)
O3_8 O 0.94102(13) 0.52338(11) 0.44669(9)
O4_8 O 0.91827(15) 0.52294(13) 0.38320(10)
N6_8 N 0.6891(4) 0.6845(5) 0.5102(3)
H70_8 H 0.655162 0.680742 0.508222
N7_8 N 0.7560(6) 0.6474(6) 0.6231(3)
O8_8 O 0.83011(13) 0.50941(13) 0.42990(10)
O9_8 O 0.80829(15) 0.51328(14) 0.36579(10)
O12_8 O 0.7568(4) 0.7011(6) 0.4799(4)
O13_8 O 0.7823(6) 0.6349(7) 0.6601(3)
H88_8 H 0.815378 0.780017 0.789695
H89_8 H 0.811268 0.657797 0.669984
C83_7 C 0.4055(11) 0.3538(8) 0.0050(6)
H76_7 H 0.385184 0.350915 0.024561
H77_7 H 0.439935 0.367831 0.016650
C84_7 C 0.4449(9) 0.2770(10) 0.0223(6)
H79_7 H 0.425377 0.273710 0.042251
H80_7 H 0.451639 0.245579 0.012935
H81_7 H 0.478465 0.293063 0.033079
H90_7 H 0.0108853 0.22737 0.467563
C1_8 C 0.6387(2) 0.9598(2) 0.97625(15)
H1_8 H 0.664038 0.939628 0.992143
C2_8 C 0.6403(3) 0.9659(3) 0.93906(17)
H2_8 H 0.667299 0.951471 0.929493
C3_8 C 0.6020(2) 0.9937(2) 0.91500(14)
C7_8 C 0.6225(4) 0.9663(3) 0.8544(2)
H5_8 H 0.632187 0.936251 0.866009
C8_8 C 0.6271(4) 0.9749(3) 0.81800(19)
H6_8 H 0.641385 0.951120 0.804757
N1_8 N 0.60317(15) 0.98087(14) 0.99127(11)
H90_8 H 0.989115 0.22737 0.0324368
C83_8 C 0.5945(11) 0.6462(8) 0.9950(6)
H76_8 H 0.614816 0.649085 0.975439
H77_8 H 0.560065 0.632169 0.983350
C84_8 C 0.5551(9) 0.7230(10) 0.9777(6)
H79_8 H 0.574623 0.726290 0.957749
H80_8 H 0.548361 0.754421 0.987065
H81_8 H 0.521535 0.706937 0.966921
loop_
_geom_bond_atom_site_label_1
_geom_bond_atom_site_label_2
_geom_bond_site_symmetry_1
_geom_bond_site_symmetry_2
C66 C63 1_555 1_555
O10 C66 1_555 1_555
O11 C66 1_555 1_555
Zn4 O11 1_555 1_555
Zn6 O10 1_555 1_555
C1 H1 1_555 1_555
C2 C1 1_555 1_555
H2 C2 1_555 1_555
C3 C2 1_555 1_555
H5 C7 1_555 1_555
C8 C7 1_555 1_555
H6 C8 1_555 1_555
N1 C1 1_555 1_555
Zn1 N1 1_555 1_555
N9 Zn2 1_555 1_555
O15 Zn2 1_555 1_555
O16 Zn1 1_555 1_555
O17 Zn2 1_555 1_555
O18 Zn1 1_555 1_555
H3 C4 1_555 1_555
C5 C4 1_555 1_555
H4 C5 1_555 1_555
C10 C9 1_555 1_555
C11 C6 1_555 1_555
H7 C11 1_555 1_555
C12 H8 1_555 1_555
C13 C12 1_555 1_555
H9 C13 1_555 1_555
C14 C9 1_555 1_555
C15 C14 1_555 1_555
H10 C15 1_555 1_555
C16 C15 1_555 1_555
H11 C16 1_555 1_555
C17 C10 1_555 1_555
C18 C19 1_555 1_555
C19 H12 1_555 1_555
H13 C19 1_555 1_555
C20 C19 1_555 1_555
H14 C20 1_555 1_555
C21 C20 1_555 1_555
H15 C21 1_555 1_555
H16 C21 1_555 1_555
C22 C21 1_555 1_555
C23 C22 1_555 1_555
H17 C23 1_555 1_555
H18 C23 1_555 1_555
H19 C23 1_555 1_555
C24 C22 1_555 1_555
H20 C24 1_555 1_555
H21 C24 1_555 1_555
H22 C24 1_555 1_555
C25 C18 1_555 1_555
H23 C25 1_555 1_555
H24 C25 1_555 1_555
H25 C25 1_555 1_555
C26 C18 1_555 1_555
H26 C26 1_555 1_555
H27 C26 1_555 1_555
H28 C26 1_555 1_555
C27 C28 1_555 1_555
C28 C29 1_555 1_555
C29 H29 1_555 1_555
C30 C29 1_555 1_555
H30 C30 1_555 1_555
C31 C30 1_555 1_555
C32 C31 1_555 1_555
H31 C32 1_555 1_555
C33 C28 1_555 1_555
H32 C33 1_555 1_555
C34 C31 1_555 1_555
C35 C34 1_555 1_555
H33 C35 1_555 1_555
C36 C35 1_555 1_555
H34 C36 1_555 1_555
C37 C36 1_555 1_555
C38 C37 1_555 1_555
C39 C34 1_555 1_555
H35 C39 1_555 1_555
C40 C37 1_555 1_555
C41 C40 1_555 1_555
H36 C41 1_555 1_555
C42 C41 1_555 1_555
H37 C42 1_555 1_555
C43 C42 1_555 1_555
C44 C43 1_555 1_555
H38 C44 1_555 1_555
C45 C40 1_555 1_555
H39 C45 1_555 1_555
C46 C43 1_555 1_555
C47 C48 1_555 1_555
C48 C49 1_555 1_555
C49 H40 1_555 1_555
C50 C49 1_555 1_555
H41 C50 1_555 1_555
C51 C50 1_555 1_555
C52 C51 1_555 1_555
H42 C52 1_555 1_555
C53 C48 1_555 1_555
H43 C53 1_555 1_555
C54 C51 1_555 1_555
C55 C54 1_555 1_555
H44 C55 1_555 1_555
C56 C55 1_555 1_555
H45 C56 1_555 1_555
C57 C56 1_555 1_555
C58 C57 1_555 1_555
H46 C58 1_555 1_555
C59 C54 1_555 1_555
C60 C57 1_555 1_555
C61 C60 1_555 1_555
H47 C61 1_555 1_555
C62 C61 1_555 1_555
H49 C64 1_555 1_555
C65 C60 1_555 1_555
H50 C65 1_555 1_555
C67 C59 1_555 1_555
C68 C69 1_555 1_555
C69 H51 1_555 1_555
H52 C69 1_555 1_555
C70 C69 1_555 1_555
H53 C70 1_555 1_555
C71 C70 1_555 1_555
H54 C71 1_555 1_555
H55 C71 1_555 1_555
C72 C71 1_555 1_555
C73 C68 1_555 1_555
H56 C73 1_555 1_555
H57 C73 1_555 1_555
H58 C73 1_555 1_555
C74 C68 1_555 1_555
H59 C74 1_555 1_555
H60 C74 1_555 1_555
H61 C74 1_555 1_555
C75 C72 1_555 1_555
H62 C75 1_555 1_555
H63 C75 1_555 1_555
H64 C75 1_555 1_555
C76 C72 1_555 1_555
H65 C76 1_555 1_555
H66 C76 1_555 1_555
H67 C76 1_555 1_555
N2 C12 1_555 1_555
N3 C17 1_555 1_555
H68 N3 1_555 1_555
N4 C18 1_555 1_555
N5 H69 1_555 1_555
O1 C17 1_555 1_555
O2 N4 1_555 1_555
O3 C27 1_555 1_555
O4 C27 1_555 1_555
O5 C46 1_555 1_555
O6 C46 1_555 1_555
N6 C67 1_555 1_555
H70 N6 1_555 1_555
N7 C68 1_555 1_555
O7 C77 1_555 1_555
O8 C47 1_555 1_555
O9 C47 1_555 1_555
O12 C67 1_555 1_555
O13 N7 1_555 1_555
C77 C38 1_555 1_555
C78 C79 1_555 1_555
C79 H71 1_555 1_555
H72 C79 1_555 1_555
C80 N5 1_555 1_555
H73 C80 1_555 1_555
C81 C80 1_555 1_555
H74 C81 1_555 1_555
H75 C81 1_555 1_555
C82 C81 1_555 1_555
C83 C78 1_555 1_555
H76 C83 1_555 1_555
H77 C83 1_555 1_555
H78 C83 1_555 1_555
C84 C78 1_555 1_555
H79 C84 1_555 1_555
H80 C84 1_555 1_555
H81 C84 1_555 1_555
C85 C82 1_555 1_555
H82 C85 1_555 1_555
H83 C85 1_555 1_555
H84 C85 1_555 1_555
C86 C82 1_555 1_555
H85 C86 1_555 1_555
H86 C86 1_555 1_555
H87 C86 1_555 1_555
N8 C78 1_555 1_555
O14 N8 1_555 1_555
Zn4 O6 1_555 1_555
Zn6 O5 1_555 1_555
Zn7 N2 1_555 1_555
C10 C11 1_555 1_555
C13 C14 1_555 1_555
C16 N2 1_555 1_555
C20 N3 1_555 1_555
C22 N4 1_555 1_555
C32 C33 1_555 1_555
C38 C39 1_555 1_555
C44 C45 1_555 1_555
C52 C53 1_555 1_555
C58 C59 1_555 1_555
C64 C65 1_555 1_555
C70 N6 1_555 1_555
C72 N7 1_555 1_555
N5 C77 1_555 1_555
C79 C80 1_555 1_555
C82 N8 1_555 1_555
O2 H88 1_555 1_555
O13 H89 1_555 1_555
C1_2 H1_2 1_555 1_555
C2_2 C1_2 1_555 1_555
H2_2 C2_2 1_555 1_555
C3_2 C2_2 1_555 1_555
C4_2 C3_2 1_555 1_555
H3_2 C4_2 1_555 1_555
C5_2 C4_2 1_555 1_555
H4_2 C5_2 1_555 1_555
C6_2 C3_2 1_555 1_555
C7_2 C6_2 1_555 1_555
H5_2 C7_2 1_555 1_555
C8_2 C7_2 1_555 1_555
H6_2 C8_2 1_555 1_555
C9_2 C8_2 1_555 1_555
C10_2 C9_2 1_555 1_555
C11_2 C6_2 1_555 1_555
H7_2 C11_2 1_555 1_555
C12_2 H8_2 1_555 1_555
C13_2 C12_2 1_555 1_555
H9_2 C13_2 1_555 1_555
C14_2 C9_2 1_555 1_555
C15_2 C14_2 1_555 1_555
H10_2 C15_2 1_555 1_555
C16_2 C15_2 1_555 1_555
H11_2 C16_2 1_555 1_555
C17_2 C10_2 1_555 1_555
C18_2 C19_2 1_555 1_555
C19_2 H12_2 1_555 1_555
H13_2 C19_2 1_555 1_555
C20_2 C19_2 1_555 1_555
H14_2 C20_2 1_555 1_555
C21_2 C20_2 1_555 1_555
H15_2 C21_2 1_555 1_555
H16_2 C21_2 1_555 1_555
C22_2 C21_2 1_555 1_555
C23_2 C22_2 1_555 1_555
H17_2 C23_2 1_555 1_555
H18_2 C23_2 1_555 1_555
H19_2 C23_2 1_555 1_555
C24_2 C22_2 1_555 1_555
H20_2 C24_2 1_555 1_555
H21_2 C24_2 1_555 1_555
H22_2 C24_2 1_555 1_555
C25_2 C18_2 1_555 1_555
H23_2 C25_2 1_555 1_555
H24_2 C25_2 1_555 1_555
H25_2 C25_2 1_555 1_555
C26_2 C18_2 1_555 1_555
H26_2 C26_2 1_555 1_555
H27_2 C26_2 1_555 1_555
H28_2 C26_2 1_555 1_555
C27_2 C28_2 1_555 1_555
C28_2 C29_2 1_555 1_555
C29_2 H29_2 1_555 1_555
C47_2 C48_2 1_555 1_555
C48_2 C49_2 1_555 1_555
C49_2 H40_2 1_555 1_555
C50_2 C49_2 1_555 1_555
H41_2 C50_2 1_555 1_555
C51_2 C50_2 1_555 1_555
C52_2 C51_2 1_555 1_555
H42_2 C52_2 1_555 1_555
C53_2 C48_2 1_555 1_555
H43_2 C53_2 1_555 1_555
C54_2 C51_2 1_555 1_555
C55_2 C54_2 1_555 1_555
H44_2 C55_2 1_555 1_555
C56_2 C55_2 1_555 1_555
H45_2 C56_2 1_555 1_555
C57_2 C56_2 1_555 1_555
C58_2 C57_2 1_555 1_555
H46_2 C58_2 1_555 1_555
C59_2 C54_2 1_555 1_555
C60_2 C57_2 1_555 1_555
C61_2 C60_2 1_555 1_555
H47_2 C61_2 1_555 1_555
C62_2 C61_2 1_555 1_555
H48_2 C62_2 1_555 1_555
C63_2 C62_2 1_555 1_555
C64_2 C63_2 1_555 1_555
H49_2 C64_2 1_555 1_555
C65_2 C60_2 1_555 1_555
H50_2 C65_2 1_555 1_555
C66_2 C63_2 1_555 1_555
C67_2 C59_2 1_555 1_555
C68_2 C69_2 1_555 1_555
C69_2 H51_2 1_555 1_555
H52_2 C69_2 1_555 1_555
C70_2 C69_2 1_555 1_555
H53_2 C70_2 1_555 1_555
C71_2 C70_2 1_555 1_555
H54_2 C71_2 1_555 1_555
H55_2 C71_2 1_555 1_555
C72_2 C71_2 1_555 1_555
C73_2 C68_2 1_555 1_555
H56_2 C73_2 1_555 1_555
H57_2 C73_2 1_555 1_555
H58_2 C73_2 1_555 1_555
C74_2 C68_2 1_555 1_555
H59_2 C74_2 1_555 1_555
H60_2 C74_2 1_555 1_555
H61_2 C74_2 1_555 1_555
C75_2 C72_2 1_555 1_555
H62_2 C75_2 1_555 1_555
H63_2 C75_2 1_555 1_555
H64_2 C75_2 1_555 1_555
C76_2 C72_2 1_555 1_555
H65_2 C76_2 1_555 1_555
H66_2 C76_2 1_555 1_555
H67_2 C76_2 1_555 1_555
N1_2 C1_2 1_555 1_555
N2_2 C12_2 1_555 1_555
N3_2 C17_2 1_555 1_555
H68_2 N3_2 1_555 1_555
N4_2 C18_2 1_555 1_555
O1_2 C17_2 1_555 1_555
O2_2 N4_2 1_555 1_555
O3_2 C27_2 1_555 1_555
O4_2 C27_2 1_555 1_555
N6_2 C67_2 1_555 1_555
H70_2 N6_2 1_555 1_555
N7_2 C68_2 1_555 1_555
O8_2 C47_2 1_555 1_555
O9_2 C47_2 1_555 1_555
O17 C66_2 1_555 1_555
O18 C66_2 1_555 1_555
O12_2 C67_2 1_555 1_555
O13_2 N7_2 1_555 1_555
Zn4 N1_2 1_555 1_555
Zn6 O4_2 1_555 1_555
N9_2 Zn6 1_555 1_555
Zn7_2 N2_2 1_555 1_555
C5_2 N1_2 1_555 1_555
C10_2 C11_2 1_555 1_555
C13_2 C14_2 1_555 1_555
C16_2 N2_2 1_555 1_555
C20_2 N3_2 1_555 1_555
C22_2 N4_2 1_555 1_555
C52_2 C53_2 1_555 1_555
C58_2 C59_2 1_555 1_555
C64_2 C65_2 1_555 1_555
C70_2 N6_2 1_555 1_555
C72_2 N7_2 1_555 1_555
O3_2 Zn4 1_555 1_555
O8_2 Zn4 1_555 1_555
O9_2 Zn6 1_555 1_555
O2_2 H88_2 1_555 1_555
O13_2 H89_2 1_555 1_555
H30_2 C30_2 1_555 1_555
C31_2 C30_2 1_555 1_555
C32_2 C31_2 1_555 1_555
H31_2 C32_2 1_555 1_555
H32_2 C33_2 1_555 1_555
C34_2 C31_2 1_555 1_555
C35_2 C34_2 1_555 1_555
H33_2 C35_2 1_555 1_555
C36_2 C35_2 1_555 1_555
H34_2 C36_2 1_555 1_555
C37_2 C36_2 1_555 1_555
C38_2 C37_2 1_555 1_555
C39_2 C34_2 1_555 1_555
H35_2 C39_2 1_555 1_555
C40_2 C37_2 1_555 1_555
C41_2 C40_2 1_555 1_555
H36_2 C41_2 1_555 1_555
C42_2 C41_2 1_555 1_555
H37_2 C42_2 1_555 1_555
C43_2 C42_2 1_555 1_555
C44_2 C43_2 1_555 1_555
H38_2 C44_2 1_555 1_555
C45_2 C40_2 1_555 1_555
H39_2 C45_2 1_555 1_555
C46_2 C43_2 1_555 1_555
N5_2 H69_2 1_555 1_555
O15 C46_2 1_555 1_555
O16 C46_2 1_555 1_555
O7_2 C77_2 1_555 1_555
C77_2 C38_2 1_555 1_555
C78_2 C79_2 1_555 1_555
C79_2 H71_2 1_555 1_555
H72_2 C79_2 1_555 1_555
C80_2 N5_2 1_555 1_555
H73_2 C80_2 1_555 1_555
C81_2 C80_2 1_555 1_555
H74_2 C81_2 1_555 1_555
H75_2 C81_2 1_555 1_555
C82_2 C81_2 1_555 1_555
C83_2 C78_2 1_555 1_555
H76_2 C83_2 1_555 1_555
H77_2 C83_2 1_555 1_555
H78_2 C83_2 1_555 1_555
C84_2 C78_2 1_555 1_555
H79_2 C84_2 1_555 1_555
H80_2 C84_2 1_555 1_555
H81_2 C84_2 1_555 1_555
C85_2 C82_2 1_555 1_555
H82_2 C85_2 1_555 1_555
H83_2 C85_2 1_555 1_555
H84_2 C85_2 1_555 1_555
C86_2 C82_2 1_555 1_555
H85_2 C86_2 1_555 1_555
H86_2 C86_2 1_555 1_555
H87_2 C86_2 1_555 1_555
N8_2 C78_2 1_555 1_555
O14_2 N8_2 1_555 1_555
C32_2 C33_2 1_555 1_555
C38_2 C39_2 1_555 1_555
C44_2 C45_2 1_555 1_555
N5_2 C77_2 1_555 1_555
C79_2 C80_2 1_555 1_555
C82_2 N8_2 1_555 1_555
O14_2 H90 1_555 1_555
C66_3 C63_3 1_555 1_555
O10_2 C66_3 1_555 1_555
O11_2 C66_3 1_555 1_555
Zn4_2 O11_2 1_555 1_555
Zn7_2 O10_2 1_555 1_555
C27_3 C28_3 1_555 1_555
C28_3 C29_3 1_555 1_555
C29_3 H29_3 1_555 1_555
C30_3 C29_3 1_555 1_555
H30_3 C30_3 1_555 1_555
C31_3 C30_3 1_555 1_555
C32_3 C31_3 1_555 1_555
H31_3 C32_3 1_555 1_555
C33_3 C28_3 1_555 1_555
H32_3 C33_3 1_555 1_555
C34_3 C31_3 1_555 1_555
C35_3 C34_3 1_555 1_555
H33_3 C35_3 1_555 1_555
C36_3 C35_3 1_555 1_555
H34_3 C36_3 1_555 1_555
C37_3 C36_3 1_555 1_555
C38_3 C37_3 1_555 1_555
C39_3 C34_3 1_555 1_555
H35_3 C39_3 1_555 1_555
C40_3 C37_3 1_555 1_555
C41_3 C40_3 1_555 1_555
H36_3 C41_3 1_555 1_555
C42_3 C41_3 1_555 1_555
H37_3 C42_3 1_555 1_555
C43_3 C42_3 1_555 1_555
C44_3 C43_3 1_555 1_555
H38_3 C44_3 1_555 1_555
C45_3 C40_3 1_555 1_555
H39_3 C45_3 1_555 1_555
C46_3 C43_3 1_555 1_555
C47_3 C48_3 1_555 1_555
C48_3 C49_3 1_555 1_555
C49_3 H40_3 1_555 1_555
C50_3 C49_3 1_555 1_555
H41_3 C50_3 1_555 1_555
C51_3 C50_3 1_555 1_555
C52_3 C51_3 1_555 1_555
H42_3 C52_3 1_555 1_555
C53_3 C48_3 1_555 1_555
H43_3 C53_3 1_555 1_555
C54_3 C51_3 1_555 1_555
C55_3 C54_3 1_555 1_555
H44_3 C55_3 1_555 1_555
C56_3 C55_3 1_555 1_555
H45_3 C56_3 1_555 1_555
C57_3 C56_3 1_555 1_555
C58_3 C57_3 1_555 1_555
H46_3 C58_3 1_555 1_555
C59_3 C54_3 1_555 1_555
C60_3 C57_3 1_555 1_555
C61_3 C60_3 1_555 1_555
H47_3 C61_3 1_555 1_555
C62_3 C61_3 1_555 1_555
H49_3 C64_3 1_555 1_555
C65_3 C60_3 1_555 1_555
H50_3 C65_3 1_555 1_555
C67_3 C59_3 1_555 1_555
N5_3 H69_3 1_555 1_555
O3_3 C27_3 1_555 1_555
O4_3 C27_3 1_555 1_555
O5_2 C46_3 1_555 1_555
O6_2 C46_3 1_555 1_555
O7_3 C77_3 1_555 1_555
O8_3 C47_3 1_555 1_555
O9_3 C47_3 1_555 1_555
O12_3 C67_3 1_555 1_555
C77_3 C38_3 1_555 1_555
C78_3 C79_3 1_555 1_555
C79_3 H71_3 1_555 1_555
H72_3 C79_3 1_555 1_555
C80_3 N5_3 1_555 1_555
H73_3 C80_3 1_555 1_555
C81_3 C80_3 1_555 1_555
H74_3 C81_3 1_555 1_555
H75_3 C81_3 1_555 1_555
C82_3 C81_3 1_555 1_555
C85_3 C82_3 1_555 1_555
H82_3 C85_3 1_555 1_555
H83_3 C85_3 1_555 1_555
H84_3 C85_3 1_555 1_555
C86_3 C82_3 1_555 1_555
H85_3 C86_3 1_555 1_555
H86_3 C86_3 1_555 1_555
H87_3 C86_3 1_555 1_555
N8_3 C78_3 1_555 1_555
O14_3 N8_3 1_555 1_555
Zn4_2 O6_2 1_555 1_555
Zn7_2 O5_2 1_555 1_555
C32_3 C33_3 1_555 1_555
C38_3 C39_3 1_555 1_555
C44_3 C45_3 1_555 1_555
C52_3 C53_3 1_555 1_555
C58_3 C59_3 1_555 1_555
C64_3 C65_3 1_555 1_555
N5_3 C77_3 1_555 1_555
C79_3 C80_3 1_555 1_555
C82_3 N8_3 1_555 1_555
H3_3 C4_3 1_555 1_555
C5_3 C4_3 1_555 1_555
H4_3 C5_3 1_555 1_555
C10_3 C9_3 1_555 1_555
C11_3 C6_3 1_555 1_555
H7_3 C11_3 1_555 1_555
C12_3 H8_3 1_555 1_555
C13_3 C12_3 1_555 1_555
H9_3 C13_3 1_555 1_555
C14_3 C9_3 1_555 1_555
C15_3 C14_3 1_555 1_555
H10_3 C15_3 1_555 1_555
C16_3 C15_3 1_555 1_555
H11_3 C16_3 1_555 1_555
C17_3 C10_3 1_555 1_555
C18_3 C19_3 1_555 1_555
C19_3 H12_3 1_555 1_555
H13_3 C19_3 1_555 1_555
C20_3 C19_3 1_555 1_555
H14_3 C20_3 1_555 1_555
C21_3 C20_3 1_555 1_555
H15_3 C21_3 1_555 1_555
H16_3 C21_3 1_555 1_555
C22_3 C21_3 1_555 1_555
C23_3 C22_3 1_555 1_555
H17_3 C23_3 1_555 1_555
H18_3 C23_3 1_555 1_555
H19_3 C23_3 1_555 1_555
C24_3 C22_3 1_555 1_555
H20_3 C24_3 1_555 1_555
H21_3 C24_3 1_555 1_555
H22_3 C24_3 1_555 1_555
C25_3 C18_3 1_555 1_555
H23_3 C25_3 1_555 1_555
H24_3 C25_3 1_555 1_555
H25_3 C25_3 1_555 1_555
C26_3 C18_3 1_555 1_555
H26_3 C26_3 1_555 1_555
H27_3 C26_3 1_555 1_555
H28_3 C26_3 1_555 1_555
C68_3 C69_3 1_555 1_555
C69_3 H51_3 1_555 1_555
H52_3 C69_3 1_555 1_555
C70_3 C69_3 1_555 1_555
H53_3 C70_3 1_555 1_555
C71_3 C70_3 1_555 1_555
H54_3 C71_3 1_555 1_555
H55_3 C71_3 1_555 1_555
C72_3 C71_3 1_555 1_555
C73_3 C68_3 1_555 1_555
H56_3 C73_3 1_555 1_555
H57_3 C73_3 1_555 1_555
H58_3 C73_3 1_555 1_555
C74_3 C68_3 1_555 1_555
H59_3 C74_3 1_555 1_555
H60_3 C74_3 1_555 1_555
H61_3 C74_3 1_555 1_555
C75_3 C72_3 1_555 1_555
H62_3 C75_3 1_555 1_555
H63_3 C75_3 1_555 1_555
H64_3 C75_3 1_555 1_555
C76_3 C72_3 1_555 1_555
H65_3 C76_3 1_555 1_555
H66_3 C76_3 1_555 1_555
H67_3 C76_3 1_555 1_555
N9 C12_3 1_555 1_555
N3_3 C17_3 1_555 1_555
H68_3 N3_3 1_555 1_555
N4_3 C18_3 1_555 1_555
O1_3 C17_3 1_555 1_555
O2_3 N4_3 1_555 1_555
H70_3 N6_3 1_555 1_555
N7_3 C68_3 1_555 1_555
O13_3 N7_3 1_555 1_555
H76_3 C83_3 1_555 1_555
H77_3 C83_3 1_555 1_555
H79_3 C84_3 1_555 1_555
H80_3 C84_3 1_555 1_555
H81_3 C84_3 1_555 1_555
C10_3 C11_3 1_555 1_555
C13_3 C14_3 1_555 1_555
C16_3 N9 1_555 1_555
C20_3 N3_3 1_555 1_555
C22_3 N4_3 1_555 1_555
C70_3 N6_3 1_555 1_555
C72_3 N7_3 1_555 1_555
O2_3 H88_3 1_555 1_555
O13_3 H89_3 1_555 1_555
O15_2 Zn7 1_555 1_555
O16_2 Zn1_2 1_555 1_555
O17_2 Zn7 1_555 1_555
O18_2 Zn1_2 1_555 1_555
C27_4 C28_4 1_555 1_555
C28_4 C29_4 1_555 1_555
C29_4 H29_4 1_555 1_555
C47_4 C48_4 1_555 1_555
C48_4 C49_4 1_555 1_555
C49_4 H40_4 1_555 1_555
C50_4 C49_4 1_555 1_555
H41_4 C50_4 1_555 1_555
C51_4 C50_4 1_555 1_555
C52_4 C51_4 1_555 1_555
H42_4 C52_4 1_555 1_555
C53_4 C48_4 1_555 1_555
H43_4 C53_4 1_555 1_555
C54_4 C51_4 1_555 1_555
C55_4 C54_4 1_555 1_555
H44_4 C55_4 1_555 1_555
C56_4 C55_4 1_555 1_555
H45_4 C56_4 1_555 1_555
C57_4 C56_4 1_555 1_555
C58_4 C57_4 1_555 1_555
H46_4 C58_4 1_555 1_555
C59_4 C54_4 1_555 1_555
C60_4 C57_4 1_555 1_555
C61_4 C60_4 1_555 1_555
H47_4 C61_4 1_555 1_555
C62_4 C61_4 1_555 1_555
H48_4 C62_4 1_555 1_555
C63_4 C62_4 1_555 1_555
C64_4 C63_4 1_555 1_555
H49_4 C64_4 1_555 1_555
C65_4 C60_4 1_555 1_555
H50_4 C65_4 1_555 1_555
C66_4 C63_4 1_555 1_555
C67_4 C59_4 1_555 1_555
O3_4 C27_4 1_555 1_555
O4_4 C27_4 1_555 1_555
O8_4 C47_4 1_555 1_555
O9_4 C47_4 1_555 1_555
O17_2 C66_4 1_555 1_555
O18_2 C66_4 1_555 1_555
O12_4 C67_4 1_555 1_555
Zn7_2 O4_4 1_555 1_555
C52_4 C53_4 1_555 1_555
C58_4 C59_4 1_555 1_555
C64_4 C65_4 1_555 1_555
O3_4 Zn4_2 1_555 1_555
O8_4 Zn4_2 1_555 1_555
O9_4 Zn7_2 1_555 1_555
C1_3 H1_3 1_555 1_555
C2_3 C1_3 1_555 1_555
H2_3 C2_3 1_555 1_555
C3_3 C2_3 1_555 1_555
C4_4 C3_3 1_555 1_555
H3_4 C4_4 1_555 1_555
C5_4 C4_4 1_555 1_555
H4_4 C5_4 1_555 1_555
C6_4 C3_3 1_555 1_555
C7_3 C6_4 1_555 1_555
H5_3 C7_3 1_555 1_555
C8_3 C7_3 1_555 1_555
H6_3 C8_3 1_555 1_555
C9_4 C8_3 1_555 1_555
C10_4 C9_4 1_555 1_555
C11_4 C6_4 1_555 1_555
H7_4 C11_4 1_555 1_555
C12_4 H8_4 1_555 1_555
C13_4 C12_4 1_555 1_555
H9_4 C13_4 1_555 1_555
C14_4 C9_4 1_555 1_555
C15_4 C14_4 1_555 1_555
H10_4 C15_4 1_555 1_555
C16_4 C15_4 1_555 1_555
H11_4 C16_4 1_555 1_555
C17_4 C10_4 1_555 1_555
C18_4 C19_4 1_555 1_555
C19_4 H12_4 1_555 1_555
H13_4 C19_4 1_555 1_555
C20_4 C19_4 1_555 1_555
H14_4 C20_4 1_555 1_555
C21_4 C20_4 1_555 1_555
H15_4 C21_4 1_555 1_555
H16_4 C21_4 1_555 1_555
C22_4 C21_4 1_555 1_555
C23_4 C22_4 1_555 1_555
H17_4 C23_4 1_555 1_555
H18_4 C23_4 1_555 1_555
H19_4 C23_4 1_555 1_555
C24_4 C22_4 1_555 1_555
H20_4 C24_4 1_555 1_555
H21_4 C24_4 1_555 1_555
H22_4 C24_4 1_555 1_555
C25_4 C18_4 1_555 1_555
H23_4 C25_4 1_555 1_555
H24_4 C25_4 1_555 1_555
H25_4 C25_4 1_555 1_555
C26_4 C18_4 1_555 1_555
H26_4 C26_4 1_555 1_555
H27_4 C26_4 1_555 1_555
H28_4 C26_4 1_555 1_555
C68_4 C69_4 1_555 1_555
C69_4 H51_4 1_555 1_555
H52_4 C69_4 1_555 1_555
C70_4 C69_4 1_555 1_555
H53_4 C70_4 1_555 1_555
C71_4 C70_4 1_555 1_555
H54_4 C71_4 1_555 1_555
H55_4 C71_4 1_555 1_555
C72_4 C71_4 1_555 1_555
C73_4 C68_4 1_555 1_555
H56_4 C73_4 1_555 1_555
H57_4 C73_4 1_555 1_555
H58_4 C73_4 1_555 1_555
C74_4 C68_4 1_555 1_555
H59_4 C74_4 1_555 1_555
H60_4 C74_4 1_555 1_555
H61_4 C74_4 1_555 1_555
C75_4 C72_4 1_555 1_555
H62_4 C75_4 1_555 1_555
H63_4 C75_4 1_555 1_555
H64_4 C75_4 1_555 1_555
C76_4 C72_4 1_555 1_555
H65_4 C76_4 1_555 1_555
H66_4 C76_4 1_555 1_555
H67_4 C76_4 1_555 1_555
N1_3 C1_3 1_555 1_555
N9_2 C12_4 1_555 1_555
N3_4 C17_4 1_555 1_555
H68_4 N3_4 1_555 1_555
N4_4 C18_4 1_555 1_555
O1_4 C17_4 1_555 1_555
O2_4 N4_4 1_555 1_555
H70_4 N6_4 1_555 1_555
N7_4 C68_4 1_555 1_555
O13_4 N7_4 1_555 1_555
C5_4 N1_3 1_555 1_555
C10_4 C11_4 1_555 1_555
C13_4 C14_4 1_555 1_555
C16_4 N9_2 1_555 1_555
C20_4 N3_4 1_555 1_555
C22_4 N4_4 1_555 1_555
C70_4 N6_4 1_555 1_555
C72_4 N7_4 1_555 1_555
O2_4 H88_4 1_555 1_555
O13_4 H89_4 1_555 1_555
H30_4 C30_4 1_555 1_555
C31_4 C30_4 1_555 1_555
C32_4 C31_4 1_555 1_555
H31_4 C32_4 1_555 1_555
H32_4 C33_4 1_555 1_555
C34_4 C31_4 1_555 1_555
C35_4 C34_4 1_555 1_555
H33_4 C35_4 1_555 1_555
C36_4 C35_4 1_555 1_555
H34_4 C36_4 1_555 1_555
C37_4 C36_4 1_555 1_555
C38_4 C37_4 1_555 1_555
C39_4 C34_4 1_555 1_555
H35_4 C39_4 1_555 1_555
C40_4 C37_4 1_555 1_555
C41_4 C40_4 1_555 1_555
H36_4 C41_4 1_555 1_555
C42_4 C41_4 1_555 1_555
H37_4 C42_4 1_555 1_555
C43_4 C42_4 1_555 1_555
C44_4 C43_4 1_555 1_555
H38_4 C44_4 1_555 1_555
C45_4 C40_4 1_555 1_555
H39_4 C45_4 1_555 1_555
C46_4 C43_4 1_555 1_555
N5_4 H69_4 1_555 1_555
O15_2 C46_4 1_555 1_555
O16_2 C46_4 1_555 1_555
O7_4 C77_4 1_555 1_555
C77_4 C38_4 1_555 1_555
C78_4 C79_4 1_555 1_555
C79_4 H71_4 1_555 1_555
H72_4 C79_4 1_555 1_555
C80_4 N5_4 1_555 1_555
H73_4 C80_4 1_555 1_555
C81_4 C80_4 1_555 1_555
H74_4 C81_4 1_555 1_555
H75_4 C81_4 1_555 1_555
C82_4 C81_4 1_555 1_555
C85_4 C82_4 1_555 1_555
H82_4 C85_4 1_555 1_555
H83_4 C85_4 1_555 1_555
H84_4 C85_4 1_555 1_555
C86_4 C82_4 1_555 1_555
H85_4 C86_4 1_555 1_555
H86_4 C86_4 1_555 1_555
H87_4 C86_4 1_555 1_555
N8_4 C78_4 1_555 1_555
O14_4 N8_4 1_555 1_555
C32_4 C33_4 1_555 1_555
C38_4 C39_4 1_555 1_555
C44_4 C45_4 1_555 1_555
N5_4 C77_4 1_555 1_555
C79_4 C80_4 1_555 1_555
C82_4 N8_4 1_555 1_555
O14_4 H90_2 1_555 1_555
C1_4 H1_4 1_555 1_555
C2_4 C1_4 1_555 1_555
H2_4 C2_4 1_555 1_555
C3_4 C2_4 1_555 1_555
H5_4 C7_4 1_555 1_555
C8_4 C7_4 1_555 1_555
H6_4 C8_4 1_555 1_555
N1_4 C1_4 1_555 1_555
N9_3 Zn2_2 1_555 1_555
O15_3 Zn2_2 1_555 1_555
O16_3 Zn1_3 1_555 1_555
O17_3 Zn2_2 1_555 1_555
O18_3 Zn1_3 1_555 1_555
H3_5 C4_5 1_555 1_555
C5_5 C4_5 1_555 1_555
H4_5 C5_5 1_555 1_555
C10_5 C9_5 1_555 1_555
C11_5 C6_5 1_555 1_555
H7_5 C11_5 1_555 1_555
C12_5 H8_5 1_555 1_555
C13_5 C12_5 1_555 1_555
H9_5 C13_5 1_555 1_555
C14_5 C9_5 1_555 1_555
C15_5 C14_5 1_555 1_555
H10_5 C15_5 1_555 1_555
C16_5 C15_5 1_555 1_555
H11_5 C16_5 1_555 1_555
C17_5 C10_5 1_555 1_555
C18_5 C19_5 1_555 1_555
C19_5 H12_5 1_555 1_555
H13_5 C19_5 1_555 1_555
C20_5 C19_5 1_555 1_555
H14_5 C20_5 1_555 1_555
C21_5 C20_5 1_555 1_555
H15_5 C21_5 1_555 1_555
H16_5 C21_5 1_555 1_555
C22_5 C21_5 1_555 1_555
C23_5 C22_5 1_555 1_555
H17_5 C23_5 1_555 1_555
H18_5 C23_5 1_555 1_555
H19_5 C23_5 1_555 1_555
C24_5 C22_5 1_555 1_555
H20_5 C24_5 1_555 1_555
H21_5 C24_5 1_555 1_555
H22_5 C24_5 1_555 1_555
C25_5 C18_5 1_555 1_555
H23_5 C25_5 1_555 1_555
H24_5 C25_5 1_555 1_555
H25_5 C25_5 1_555 1_555
C26_5 C18_5 1_555 1_555
H26_5 C26_5 1_555 1_555
H27_5 C26_5 1_555 1_555
H28_5 C26_5 1_555 1_555
C68_5 C69_5 1_555 1_555
C69_5 H51_5 1_555 1_555
H52_5 C69_5 1_555 1_555
C70_5 C69_5 1_555 1_555
H53_5 C70_5 1_555 1_555
C71_5 C70_5 1_555 1_555
H54_5 C71_5 1_555 1_555
H55_5 C71_5 1_555 1_555
C72_5 C71_5 1_555 1_555
C73_5 C68_5 1_555 1_555
H56_5 C73_5 1_555 1_555
H57_5 C73_5 1_555 1_555
H58_5 C73_5 1_555 1_555
C74_5 C68_5 1_555 1_555
H59_5 C74_5 1_555 1_555
H60_5 C74_5 1_555 1_555
H61_5 C74_5 1_555 1_555
C75_5 C72_5 1_555 1_555
H62_5 C75_5 1_555 1_555
H63_5 C75_5 1_555 1_555
H64_5 C75_5 1_555 1_555
C76_5 C72_5 1_555 1_555
H65_5 C76_5 1_555 1_555
H66_5 C76_5 1_555 1_555
H67_5 C76_5 1_555 1_555
N2_3 C12_5 1_555 1_555
N3_5 C17_5 1_555 1_555
H68_5 N3_5 1_555 1_555
N4_5 C18_5 1_555 1_555
O1_5 C17_5 1_555 1_555
O2_5 N4_5 1_555 1_555
H70_5 N6_5 1_555 1_555
N7_5 C68_5 1_555 1_555
O13_5 N7_5 1_555 1_555
H76_4 C83_4 1_555 1_555
H77_4 C83_4 1_555 1_555
H79_4 C84_4 1_555 1_555
H80_4 C84_4 1_555 1_555
H81_4 C84_4 1_555 1_555
Zn7_3 N2_3 1_555 1_555
C10_5 C11_5 1_555 1_555
C13_5 C14_5 1_555 1_555
C16_5 N2_3 1_555 1_555
C20_5 N3_5 1_555 1_555
C22_5 N4_5 1_555 1_555
C70_5 N6_5 1_555 1_555
C72_5 N7_5 1_555 1_555
O2_5 H88_5 1_555 1_555
O13_5 H89_5 1_555 1_555
C27_5 C28_5 1_555 1_555
C28_5 C29_5 1_555 1_555
C29_5 H29_5 1_555 1_555
C30_5 C29_5 1_555 1_555
H30_5 C30_5 1_555 1_555
C31_5 C30_5 1_555 1_555
C32_5 C31_5 1_555 1_555
H31_5 C32_5 1_555 1_555
C33_5 C28_5 1_555 1_555
H32_5 C33_5 1_555 1_555
C34_5 C31_5 1_555 1_555
C35_5 C34_5 1_555 1_555
H33_5 C35_5 1_555 1_555
C36_5 C35_5 1_555 1_555
H34_5 C36_5 1_555 1_555
C37_5 C36_5 1_555 1_555
C38_5 C37_5 1_555 1_555
C39_5 C34_5 1_555 1_555
H35_5 C39_5 1_555 1_555
C40_5 C37_5 1_555 1_555
C41_5 C40_5 1_555 1_555
H36_5 C41_5 1_555 1_555
C42_5 C41_5 1_555 1_555
H37_5 C42_5 1_555 1_555
C43_5 C42_5 1_555 1_555
C44_5 C43_5 1_555 1_555
H38_5 C44_5 1_555 1_555
C45_5 C40_5 1_555 1_555
H39_5 C45_5 1_555 1_555
C46_5 C43_5 1_555 1_555
C47_5 C48_5 1_555 1_555
C48_5 C49_5 1_555 1_555
C49_5 H40_5 1_555 1_555
C50_5 C49_5 1_555 1_555
H41_5 C50_5 1_555 1_555
C51_5 C50_5 1_555 1_555
C52_5 C51_5 1_555 1_555
H42_5 C52_5 1_555 1_555
C53_5 C48_5 1_555 1_555
H43_5 C53_5 1_555 1_555
C54_5 C51_5 1_555 1_555
C55_5 C54_5 1_555 1_555
H44_5 C55_5 1_555 1_555
C56_5 C55_5 1_555 1_555
H45_5 C56_5 1_555 1_555
C57_5 C56_5 1_555 1_555
C58_5 C57_5 1_555 1_555
H46_5 C58_5 1_555 1_555
C59_5 C54_5 1_555 1_555
C60_5 C57_5 1_555 1_555
C61_5 C60_5 1_555 1_555
H47_5 C61_5 1_555 1_555
C62_5 C61_5 1_555 1_555
H49_5 C64_5 1_555 1_555
C65_5 C60_5 1_555 1_555
H50_5 C65_5 1_555 1_555
C67_5 C59_5 1_555 1_555
N5_5 H69_5 1_555 1_555
O3_5 C27_5 1_555 1_555
O4_5 C27_5 1_555 1_555
O5_3 C46_5 1_555 1_555
O6_3 C46_5 1_555 1_555
O7_5 C77_5 1_555 1_555
O8_5 C47_5 1_555 1_555
O9_5 C47_5 1_555 1_555
O12_5 C67_5 1_555 1_555
C77_5 C38_5 1_555 1_555
C78_5 C79_5 1_555 1_555
C79_5 H71_5 1_555 1_555
H72_5 C79_5 1_555 1_555
C80_5 N5_5 1_555 1_555
H73_5 C80_5 1_555 1_555
C81_5 C80_5 1_555 1_555
H74_5 C81_5 1_555 1_555
H75_5 C81_5 1_555 1_555
C82_5 C81_5 1_555 1_555
C85_5 C82_5 1_555 1_555
H82_5 C85_5 1_555 1_555
H83_5 C85_5 1_555 1_555
H84_5 C85_5 1_555 1_555
C86_5 C82_5 1_555 1_555
H85_5 C86_5 1_555 1_555
H86_5 C86_5 1_555 1_555
H87_5 C86_5 1_555 1_555
N8_5 C78_5 1_555 1_555
O14_5 N8_5 1_555 1_555
Zn3 O6_3 1_555 1_555
Zn5 O5_3 1_555 1_555
C32_5 C33_5 1_555 1_555
C38_5 C39_5 1_555 1_555
C44_5 C45_5 1_555 1_555
C52_5 C53_5 1_555 1_555
C58_5 C59_5 1_555 1_555
C64_5 C65_5 1_555 1_555
N5_5 C77_5 1_555 1_555
C79_5 C80_5 1_555 1_555
C82_5 N8_5 1_555 1_555
C66_5 C63_5 1_555 1_555
O10_3 C66_5 1_555 1_555
O11_3 C66_5 1_555 1_555
Zn3 O11_3 1_555 1_555
Zn5 O10_3 1_555 1_555
H30_6 C30_6 1_555 1_555
C31_6 C30_6 1_555 1_555
C32_6 C31_6 1_555 1_555
H31_6 C32_6 1_555 1_555
H32_6 C33_6 1_555 1_555
C34_6 C31_6 1_555 1_555
C35_6 C34_6 1_555 1_555
H33_6 C35_6 1_555 1_555
C36_6 C35_6 1_555 1_555
H34_6 C36_6 1_555 1_555
C37_6 C36_6 1_555 1_555
C38_6 C37_6 1_555 1_555
C39_6 C34_6 1_555 1_555
H35_6 C39_6 1_555 1_555
C40_6 C37_6 1_555 1_555
C41_6 C40_6 1_555 1_555
H36_6 C41_6 1_555 1_555
C42_6 C41_6 1_555 1_555
H37_6 C42_6 1_555 1_555
C43_6 C42_6 1_555 1_555
C44_6 C43_6 1_555 1_555
H38_6 C44_6 1_555 1_555
C45_6 C40_6 1_555 1_555
H39_6 C45_6 1_555 1_555
C46_6 C43_6 1_555 1_555
N5_6 H69_6 1_555 1_555
O15_3 C46_6 1_555 1_555
O16_3 C46_6 1_555 1_555
O7_6 C77_6 1_555 1_555
C77_6 C38_6 1_555 1_555
C78_6 C79_6 1_555 1_555
C79_6 H71_6 1_555 1_555
H72_6 C79_6 1_555 1_555
C80_6 N5_6 1_555 1_555
H73_6 C80_6 1_555 1_555
C81_6 C80_6 1_555 1_555
H74_6 C81_6 1_555 1_555
H75_6 C81_6 1_555 1_555
C82_6 C81_6 1_555 1_555
C85_6 C82_6 1_555 1_555
H82_6 C85_6 1_555 1_555
H83_6 C85_6 1_555 1_555
H84_6 C85_6 1_555 1_555
C86_6 C82_6 1_555 1_555
H85_6 C86_6 1_555 1_555
H86_6 C86_6 1_555 1_555
H87_6 C86_6 1_555 1_555
N8_6 C78_6 1_555 1_555
O14_6 N8_6 1_555 1_555
C32_6 C33_6 1_555 1_555
C38_6 C39_6 1_555 1_555
C44_6 C45_6 1_555 1_555
N5_6 C77_6 1_555 1_555
C79_6 C80_6 1_555 1_555
C82_6 N8_6 1_555 1_555
O14_6 H90_5 1_555 1_555
C1_5 H1_5 1_555 1_555
C2_5 C1_5 1_555 1_555
H2_5 C2_5 1_555 1_555
C3_5 C2_5 1_555 1_555
C4_6 C3_5 1_555 1_555
H3_6 C4_6 1_555 1_555
C5_6 C4_6 1_555 1_555
H4_6 C5_6 1_555 1_555
C6_6 C3_5 1_555 1_555
C7_5 C6_6 1_555 1_555
H5_5 C7_5 1_555 1_555
C8_5 C7_5 1_555 1_555
H6_5 C8_5 1_555 1_555
C9_6 C8_5 1_555 1_555
C10_6 C9_6 1_555 1_555
C11_6 C6_6 1_555 1_555
H7_6 C11_6 1_555 1_555
C12_6 H8_6 1_555 1_555
C13_6 C12_6 1_555 1_555
H9_6 C13_6 1_555 1_555
C14_6 C9_6 1_555 1_555
C15_6 C14_6 1_555 1_555
H10_6 C15_6 1_555 1_555
C16_6 C15_6 1_555 1_555
H11_6 C16_6 1_555 1_555
C17_6 C10_6 1_555 1_555
C18_6 C19_6 1_555 1_555
C19_6 H12_6 1_555 1_555
H13_6 C19_6 1_555 1_555
C20_6 C19_6 1_555 1_555
H14_6 C20_6 1_555 1_555
C21_6 C20_6 1_555 1_555
H15_6 C21_6 1_555 1_555
H16_6 C21_6 1_555 1_555
C22_6 C21_6 1_555 1_555
C23_6 C22_6 1_555 1_555
H17_6 C23_6 1_555 1_555
H18_6 C23_6 1_555 1_555
H19_6 C23_6 1_555 1_555
C24_6 C22_6 1_555 1_555
H20_6 C24_6 1_555 1_555
H21_6 C24_6 1_555 1_555
H22_6 C24_6 1_555 1_555
C25_6 C18_6 1_555 1_555
H23_6 C25_6 1_555 1_555
H24_6 C25_6 1_555 1_555
H25_6 C25_6 1_555 1_555
C26_6 C18_6 1_555 1_555
H26_6 C26_6 1_555 1_555
H27_6 C26_6 1_555 1_555
H28_6 C26_6 1_555 1_555
C68_6 C69_6 1_555 1_555
C69_6 H51_6 1_555 1_555
H52_6 C69_6 1_555 1_555
C70_6 C69_6 1_555 1_555
H53_6 C70_6 1_555 1_555
C71_6 C70_6 1_555 1_555
H54_6 C71_6 1_555 1_555
H55_6 C71_6 1_555 1_555
C72_6 C71_6 1_555 1_555
C73_6 C68_6 1_555 1_555
H56_6 C73_6 1_555 1_555
H57_6 C73_6 1_555 1_555
H58_6 C73_6 1_555 1_555
C74_6 C68_6 1_555 1_555
H59_6 C74_6 1_555 1_555
H60_6 C74_6 1_555 1_555
H61_6 C74_6 1_555 1_555
C75_6 C72_6 1_555 1_555
H62_6 C75_6 1_555 1_555
H63_6 C75_6 1_555 1_555
H64_6 C75_6 1_555 1_555
C76_6 C72_6 1_555 1_555
H65_6 C76_6 1_555 1_555
H66_6 C76_6 1_555 1_555
H67_6 C76_6 1_555 1_555
N1_5 C1_5 1_555 1_555
N2_4 C12_6 1_555 1_555
N3_6 C17_6 1_555 1_555
H68_6 N3_6 1_555 1_555
N4_6 C18_6 1_555 1_555
O1_6 C17_6 1_555 1_555
O2_6 N4_6 1_555 1_555
H70_6 N6_6 1_555 1_555
N7_6 C68_6 1_555 1_555
O13_6 N7_6 1_555 1_555
Zn7_4 N2_4 1_555 1_555
C5_6 N1_5 1_555 1_555
C10_6 C11_6 1_555 1_555
C13_6 C14_6 1_555 1_555
C16_6 N2_4 1_555 1_555
C20_6 N3_6 1_555 1_555
C22_6 N4_6 1_555 1_555
C70_6 N6_6 1_555 1_555
C72_6 N7_6 1_555 1_555
O2_6 H88_6 1_555 1_555
O13_6 H89_6 1_555 1_555
C27_6 C28_6 1_555 1_555
C28_6 C29_6 1_555 1_555
C29_6 H29_6 1_555 1_555
C47_6 C48_6 1_555 1_555
C48_6 C49_6 1_555 1_555
C49_6 H40_6 1_555 1_555
C50_6 C49_6 1_555 1_555
H41_6 C50_6 1_555 1_555
C51_6 C50_6 1_555 1_555
C52_6 C51_6 1_555 1_555
H42_6 C52_6 1_555 1_555
C53_6 C48_6 1_555 1_555
H43_6 C53_6 1_555 1_555
C54_6 C51_6 1_555 1_555
C55_6 C54_6 1_555 1_555
H44_6 C55_6 1_555 1_555
C56_6 C55_6 1_555 1_555
H45_6 C56_6 1_555 1_555
C57_6 C56_6 1_555 1_555
C58_6 C57_6 1_555 1_555
H46_6 C58_6 1_555 1_555
C59_6 C54_6 1_555 1_555
C60_6 C57_6 1_555 1_555
C61_6 C60_6 1_555 1_555
H47_6 C61_6 1_555 1_555
C62_6 C61_6 1_555 1_555
H48_6 C62_6 1_555 1_555
C63_6 C62_6 1_555 1_555
C64_6 C63_6 1_555 1_555
H49_6 C64_6 1_555 1_555
C65_6 C60_6 1_555 1_555
H50_6 C65_6 1_555 1_555
C66_6 C63_6 1_555 1_555
C67_6 C59_6 1_555 1_555
O3_6 C27_6 1_555 1_555
O4_6 C27_6 1_555 1_555
O8_6 C47_6 1_555 1_555
O9_6 C47_6 1_555 1_555
O17_3 C66_6 1_555 1_555
O18_3 C66_6 1_555 1_555
O12_6 C67_6 1_555 1_555
Zn5 O4_6 1_555 1_555
N9_4 Zn5 1_555 1_555
C52_6 C53_6 1_555 1_555
C58_6 C59_6 1_555 1_555
C64_6 C65_6 1_555 1_555
O3_6 Zn3 1_555 1_555
O8_6 Zn3 1_555 1_555
O9_6 Zn5 1_555 1_555
H3_7 C4_7 1_555 1_555
C5_7 C4_7 1_555 1_555
H4_7 C5_7 1_555 1_555
C10_7 C9_7 1_555 1_555
C11_7 C6_7 1_555 1_555
H7_7 C11_7 1_555 1_555
C12_7 H8_7 1_555 1_555
C13_7 C12_7 1_555 1_555
H9_7 C13_7 1_555 1_555
C14_7 C9_7 1_555 1_555
C15_7 C14_7 1_555 1_555
H10_7 C15_7 1_555 1_555
C16_7 C15_7 1_555 1_555
H11_7 C16_7 1_555 1_555
C17_7 C10_7 1_555 1_555
C18_7 C19_7 1_555 1_555
C19_7 H12_7 1_555 1_555
H13_7 C19_7 1_555 1_555
C20_7 C19_7 1_555 1_555
H14_7 C20_7 1_555 1_555
C21_7 C20_7 1_555 1_555
H15_7 C21_7 1_555 1_555
H16_7 C21_7 1_555 1_555
C22_7 C21_7 1_555 1_555
C23_7 C22_7 1_555 1_555
H17_7 C23_7 1_555 1_555
H18_7 C23_7 1_555 1_555
H19_7 C23_7 1_555 1_555
C24_7 C22_7 1_555 1_555
H20_7 C24_7 1_555 1_555
H21_7 C24_7 1_555 1_555
H22_7 C24_7 1_555 1_555
C25_7 C18_7 1_555 1_555
H23_7 C25_7 1_555 1_555
H24_7 C25_7 1_555 1_555
H25_7 C25_7 1_555 1_555
C26_7 C18_7 1_555 1_555
H26_7 C26_7 1_555 1_555
H27_7 C26_7 1_555 1_555
H28_7 C26_7 1_555 1_555
C27_7 C28_7 1_555 1_555
C28_7 C29_7 1_555 1_555
C29_7 H29_7 1_555 1_555
C30_7 C29_7 1_555 1_555
H30_7 C30_7 1_555 1_555
C31_7 C30_7 1_555 1_555
C32_7 C31_7 1_555 1_555
H31_7 C32_7 1_555 1_555
C33_7 C28_7 1_555 1_555
H32_7 C33_7 1_555 1_555
C34_7 C31_7 1_555 1_555
C35_7 C34_7 1_555 1_555
H33_7 C35_7 1_555 1_555
C36_7 C35_7 1_555 1_555
H34_7 C36_7 1_555 1_555
C37_7 C36_7 1_555 1_555
C38_7 C37_7 1_555 1_555
C39_7 C34_7 1_555 1_555
H35_7 C39_7 1_555 1_555
C40_7 C37_7 1_555 1_555
C41_7 C40_7 1_555 1_555
H36_7 C41_7 1_555 1_555
C42_7 C41_7 1_555 1_555
H37_7 C42_7 1_555 1_555
C43_7 C42_7 1_555 1_555
C44_7 C43_7 1_555 1_555
H38_7 C44_7 1_555 1_555
C45_7 C40_7 1_555 1_555
H39_7 C45_7 1_555 1_555
C46_7 C43_7 1_555 1_555
C47_7 C48_7 1_555 1_555
C48_7 C49_7 1_555 1_555
C49_7 H40_7 1_555 1_555
C50_7 C49_7 1_555 1_555
H41_7 C50_7 1_555 1_555
C51_7 C50_7 1_555 1_555
C52_7 C51_7 1_555 1_555
H42_7 C52_7 1_555 1_555
C53_7 C48_7 1_555 1_555
H43_7 C53_7 1_555 1_555
C54_7 C51_7 1_555 1_555
C55_7 C54_7 1_555 1_555
H44_7 C55_7 1_555 1_555
C56_7 C55_7 1_555 1_555
H45_7 C56_7 1_555 1_555
C57_7 C56_7 1_555 1_555
C58_7 C57_7 1_555 1_555
H46_7 C58_7 1_555 1_555
C59_7 C54_7 1_555 1_555
C60_7 C57_7 1_555 1_555
C61_7 C60_7 1_555 1_555
H47_7 C61_7 1_555 1_555
C62_7 C61_7 1_555 1_555
H49_7 C64_7 1_555 1_555
C65_7 C60_7 1_555 1_555
H50_7 C65_7 1_555 1_555
C67_7 C59_7 1_555 1_555
C68_7 C69_7 1_555 1_555
C69_7 H51_7 1_555 1_555
H52_7 C69_7 1_555 1_555
C70_7 C69_7 1_555 1_555
H53_7 C70_7 1_555 1_555
C71_7 C70_7 1_555 1_555
H54_7 C71_7 1_555 1_555
H55_7 C71_7 1_555 1_555
C72_7 C71_7 1_555 1_555
C73_7 C68_7 1_555 1_555
H56_7 C73_7 1_555 1_555
H57_7 C73_7 1_555 1_555
H58_7 C73_7 1_555 1_555
C74_7 C68_7 1_555 1_555
H59_7 C74_7 1_555 1_555
H60_7 C74_7 1_555 1_555
H61_7 C74_7 1_555 1_555
C75_7 C72_7 1_555 1_555
H62_7 C75_7 1_555 1_555
H63_7 C75_7 1_555 1_555
H64_7 C75_7 1_555 1_555
C76_7 C72_7 1_555 1_555
H65_7 C76_7 1_555 1_555
H66_7 C76_7 1_555 1_555
H67_7 C76_7 1_555 1_555
N9_3 C12_7 1_555 1_555
N3_7 C17_7 1_555 1_555
H68_7 N3_7 1_555 1_555
N4_7 C18_7 1_555 1_555
N5_7 H69_7 1_555 1_555
O1_7 C17_7 1_555 1_555
O2_7 N4_7 1_555 1_555
O3_7 C27_7 1_555 1_555
O4_7 C27_7 1_555 1_555
O5_4 C46_7 1_555 1_555
O6_4 C46_7 1_555 1_555
N6_7 C67_7 1_555 1_555
H70_7 N6_7 1_555 1_555
N7_7 C68_7 1_555 1_555
O7_7 C77_7 1_555 1_555
O8_7 C47_7 1_555 1_555
O9_7 C47_7 1_555 1_555
O12_7 C67_7 1_555 1_555
O13_7 N7_7 1_555 1_555
C77_7 C38_7 1_555 1_555
C78_7 C79_7 1_555 1_555
C79_7 H71_7 1_555 1_555
H72_7 C79_7 1_555 1_555
C80_7 N5_7 1_555 1_555
H73_7 C80_7 1_555 1_555
C81_7 C80_7 1_555 1_555
H74_7 C81_7 1_555 1_555
H75_7 C81_7 1_555 1_555
C82_7 C81_7 1_555 1_555
C83_5 C78_7 1_555 1_555
H76_5 C83_5 1_555 1_555
H77_5 C83_5 1_555 1_555
H78_7 C83_5 1_555 1_555
C84_5 C78_7 1_555 1_555
H79_5 C84_5 1_555 1_555
H80_5 C84_5 1_555 1_555
H81_5 C84_5 1_555 1_555
C85_7 C82_7 1_555 1_555
H82_7 C85_7 1_555 1_555
H83_7 C85_7 1_555 1_555
H84_7 C85_7 1_555 1_555
C86_7 C82_7 1_555 1_555
H85_7 C86_7 1_555 1_555
H86_7 C86_7 1_555 1_555
H87_7 C86_7 1_555 1_555
N8_7 C78_7 1_555 1_555
O14_7 N8_7 1_555 1_555
Zn3_2 O6_4 1_555 1_555
Zn7_4 O5_4 1_555 1_555
C10_7 C11_7 1_555 1_555
C13_7 C14_7 1_555 1_555
C16_7 N9_3 1_555 1_555
C20_7 N3_7 1_555 1_555
C22_7 N4_7 1_555 1_555
C32_7 C33_7 1_555 1_555
C38_7 C39_7 1_555 1_555
C44_7 C45_7 1_555 1_555
C52_7 C53_7 1_555 1_555
C58_7 C59_7 1_555 1_555
C64_7 C65_7 1_555 1_555
C70_7 N6_7 1_555 1_555
C72_7 N7_7 1_555 1_555
N5_7 C77_7 1_555 1_555
C79_7 C80_7 1_555 1_555
C82_7 N8_7 1_555 1_555
O2_7 H88_7 1_555 1_555
O13_7 H89_7 1_555 1_555
C1_6 H1_6 1_555 1_555
C2_6 C1_6 1_555 1_555
H2_6 C2_6 1_555 1_555
C3_6 C2_6 1_555 1_555
H5_6 C7_6 1_555 1_555
C8_6 C7_6 1_555 1_555
H6_6 C8_6 1_555 1_555
N1_6 C1_6 1_555 1_555
Zn1_4 N1_6 1_555 1_555
O15_4 Zn7_3 1_555 1_555
O16_4 Zn1_4 1_555 1_555
O17_4 Zn7_3 1_555 1_555
O18_4 Zn1_4 1_555 1_555
C66_7 C63_7 1_555 1_555
O10_4 C66_7 1_555 1_555
O11_4 C66_7 1_555 1_555
Zn3_2 O11_4 1_555 1_555
Zn7_4 O10_4 1_555 1_555
H30_8 C30_8 1_555 1_555
C31_8 C30_8 1_555 1_555
C32_8 C31_8 1_555 1_555
H31_8 C32_8 1_555 1_555
H32_8 C33_8 1_555 1_555
C34_8 C31_8 1_555 1_555
C35_8 C34_8 1_555 1_555
H33_8 C35_8 1_555 1_555
C36_8 C35_8 1_555 1_555
H34_8 C36_8 1_555 1_555
C37_8 C36_8 1_555 1_555
C38_8 C37_8 1_555 1_555
C39_8 C34_8 1_555 1_555
H35_8 C39_8 1_555 1_555
C40_8 C37_8 1_555 1_555
C41_8 C40_8 1_555 1_555
H36_8 C41_8 1_555 1_555
C42_8 C41_8 1_555 1_555
H37_8 C42_8 1_555 1_555
C43_8 C42_8 1_555 1_555
C44_8 C43_8 1_555 1_555
H38_8 C44_8 1_555 1_555
C45_8 C40_8 1_555 1_555
H39_8 C45_8 1_555 1_555
C46_8 C43_8 1_555 1_555
N5_8 H69_8 1_555 1_555
O15_4 C46_8 1_555 1_555
O16_4 C46_8 1_555 1_555
O7_8 C77_8 1_555 1_555
C77_8 C38_8 1_555 1_555
C78_8 C79_8 1_555 1_555
C79_8 H71_8 1_555 1_555
H72_8 C79_8 1_555 1_555
C80_8 N5_8 1_555 1_555
H73_8 C80_8 1_555 1_555
C81_8 C80_8 1_555 1_555
H74_8 C81_8 1_555 1_555
H75_8 C81_8 1_555 1_555
C82_8 C81_8 1_555 1_555
C83_6 C78_8 1_555 1_555
H76_6 C83_6 1_555 1_555
H77_6 C83_6 1_555 1_555
H78_8 C83_6 1_555 1_555
C84_6 C78_8 1_555 1_555
H79_6 C84_6 1_555 1_555
H80_6 C84_6 1_555 1_555
H81_6 C84_6 1_555 1_555
C85_8 C82_8 1_555 1_555
H82_8 C85_8 1_555 1_555
H83_8 C85_8 1_555 1_555
H84_8 C85_8 1_555 1_555
C86_8 C82_8 1_555 1_555
H85_8 C86_8 1_555 1_555
H86_8 C86_8 1_555 1_555
H87_8 C86_8 1_555 1_555
N8_8 C78_8 1_555 1_555
O14_8 N8_8 1_555 1_555
C32_8 C33_8 1_555 1_555
C38_8 C39_8 1_555 1_555
C44_8 C45_8 1_555 1_555
N5_8 C77_8 1_555 1_555
C79_8 C80_8 1_555 1_555
C82_8 N8_8 1_555 1_555
O14_8 H90_6 1_555 1_555
C1_7 H1_7 1_555 1_555
C2_7 C1_7 1_555 1_555
H2_7 C2_7 1_555 1_555
C3_7 C2_7 1_555 1_555
C4_8 C3_7 1_555 1_555
H3_8 C4_8 1_555 1_555
C5_8 C4_8 1_555 1_555
H4_8 C5_8 1_555 1_555
C6_8 C3_7 1_555 1_555
C7_7 C6_8 1_555 1_555
H5_7 C7_7 1_555 1_555
C8_7 C7_7 1_555 1_555
H6_7 C8_7 1_555 1_555
C9_8 C8_7 1_555 1_555
C10_8 C9_8 1_555 1_555
C11_8 C6_8 1_555 1_555
H7_8 C11_8 1_555 1_555
C12_8 H8_8 1_555 1_555
C13_8 C12_8 1_555 1_555
H9_8 C13_8 1_555 1_555
C14_8 C9_8 1_555 1_555
C15_8 C14_8 1_555 1_555
H10_8 C15_8 1_555 1_555
C16_8 C15_8 1_555 1_555
H11_8 C16_8 1_555 1_555
C17_8 C10_8 1_555 1_555
C18_8 C19_8 1_555 1_555
C19_8 H12_8 1_555 1_555
H13_8 C19_8 1_555 1_555
C20_8 C19_8 1_555 1_555
H14_8 C20_8 1_555 1_555
C21_8 C20_8 1_555 1_555
H15_8 C21_8 1_555 1_555
H16_8 C21_8 1_555 1_555
C22_8 C21_8 1_555 1_555
C23_8 C22_8 1_555 1_555
H17_8 C23_8 1_555 1_555
H18_8 C23_8 1_555 1_555
H19_8 C23_8 1_555 1_555
C24_8 C22_8 1_555 1_555
H20_8 C24_8 1_555 1_555
H21_8 C24_8 1_555 1_555
H22_8 C24_8 1_555 1_555
C25_8 C18_8 1_555 1_555
H23_8 C25_8 1_555 1_555
H24_8 C25_8 1_555 1_555
H25_8 C25_8 1_555 1_555
C26_8 C18_8 1_555 1_555
H26_8 C26_8 1_555 1_555
H27_8 C26_8 1_555 1_555
H28_8 C26_8 1_555 1_555
C27_8 C28_8 1_555 1_555
C28_8 C29_8 1_555 1_555
C29_8 H29_8 1_555 1_555
C47_8 C48_8 1_555 1_555
C48_8 C49_8 1_555 1_555
C49_8 H40_8 1_555 1_555
C50_8 C49_8 1_555 1_555
H41_8 C50_8 1_555 1_555
C51_8 C50_8 1_555 1_555
C52_8 C51_8 1_555 1_555
H42_8 C52_8 1_555 1_555
C53_8 C48_8 1_555 1_555
H43_8 C53_8 1_555 1_555
C54_8 C51_8 1_555 1_555
C55_8 C54_8 1_555 1_555
H44_8 C55_8 1_555 1_555
C56_8 C55_8 1_555 1_555
H45_8 C56_8 1_555 1_555
C57_8 C56_8 1_555 1_555
C58_8 C57_8 1_555 1_555
H46_8 C58_8 1_555 1_555
C59_8 C54_8 1_555 1_555
C60_8 C57_8 1_555 1_555
C61_8 C60_8 1_555 1_555
H47_8 C61_8 1_555 1_555
C62_8 C61_8 1_555 1_555
H48_8 C62_8 1_555 1_555
C63_8 C62_8 1_555 1_555
C64_8 C63_8 1_555 1_555
H49_8 C64_8 1_555 1_555
C65_8 C60_8 1_555 1_555
H50_8 C65_8 1_555 1_555
C66_8 C63_8 1_555 1_555
C67_8 C59_8 1_555 1_555
C68_8 C69_8 1_555 1_555
C69_8 H51_8 1_555 1_555
H52_8 C69_8 1_555 1_555
C70_8 C69_8 1_555 1_555
H53_8 C70_8 1_555 1_555
C71_8 C70_8 1_555 1_555
H54_8 C71_8 1_555 1_555
H55_8 C71_8 1_555 1_555
C72_8 C71_8 1_555 1_555
C73_8 C68_8 1_555 1_555
H56_8 C73_8 1_555 1_555
H57_8 C73_8 1_555 1_555
H58_8 C73_8 1_555 1_555
C74_8 C68_8 1_555 1_555
H59_8 C74_8 1_555 1_555
H60_8 C74_8 1_555 1_555
H61_8 C74_8 1_555 1_555
C75_8 C72_8 1_555 1_555
H62_8 C75_8 1_555 1_555
H63_8 C75_8 1_555 1_555
H64_8 C75_8 1_555 1_555
C76_8 C72_8 1_555 1_555
H65_8 C76_8 1_555 1_555
H66_8 C76_8 1_555 1_555
H67_8 C76_8 1_555 1_555
N1_7 C1_7 1_555 1_555
N9_4 C12_8 1_555 1_555
N3_8 C17_8 1_555 1_555
H68_8 N3_8 1_555 1_555
N4_8 C18_8 1_555 1_555
O1_8 C17_8 1_555 1_555
O2_8 N4_8 1_555 1_555
O3_8 C27_8 1_555 1_555
O4_8 C27_8 1_555 1_555
N6_8 C67_8 1_555 1_555
H70_8 N6_8 1_555 1_555
N7_8 C68_8 1_555 1_555
O8_8 C47_8 1_555 1_555
O9_8 C47_8 1_555 1_555
O17_4 C66_8 1_555 1_555
O18_4 C66_8 1_555 1_555
O12_8 C67_8 1_555 1_555
O13_8 N7_8 1_555 1_555
Zn3_2 N1_7 1_555 1_555
Zn7_4 O4_8 1_555 1_555
C5_8 N1_7 1_555 1_555
C10_8 C11_8 1_555 1_555
C13_8 C14_8 1_555 1_555
C16_8 N9_4 1_555 1_555
C20_8 N3_8 1_555 1_555
C22_8 N4_8 1_555 1_555
C52_8 C53_8 1_555 1_555
C58_8 C59_8 1_555 1_555
C64_8 C65_8 1_555 1_555
C70_8 N6_8 1_555 1_555
C72_8 N7_8 1_555 1_555
O3_8 Zn3_2 1_555 1_555
O8_8 Zn3_2 1_555 1_555
O9_8 Zn7_4 1_555 1_555
O2_8 H88_8 1_555 1_555
O13_8 H89_8 1_555 1_555
H76_7 C83_7 1_555 1_555
H77_7 C83_7 1_555 1_555
H79_7 C84_7 1_555 1_555
H80_7 C84_7 1_555 1_555
H81_7 C84_7 1_555 1_555
C1_8 H1_8 1_555 1_555
C2_8 C1_8 1_555 1_555
H2_8 C2_8 1_555 1_555
C3_8 C2_8 1_555 1_555
H5_8 C7_8 1_555 1_555
C8_8 C7_8 1_555 1_555
H6_8 C8_8 1_555 1_555
N1_8 C1_8 1_555 1_555
H76_8 C83_8 1_555 1_555
H77_8 C83_8 1_555 1_555
H79_8 C84_8 1_555 1_555
H80_8 C84_8 1_555 1_555
H81_8 C84_8 1_555 1_555

#END
