
###############################################################################
#
# This file contains modified crystal structure data generated from the
# MOF subset of the Cambridge Structural Database (CSD) v543 
# hosted by the Cambridge Crystallographic Data Centre (CCDC).
#
# This work is licensed under the Creative Commons
# Attribution-NonCommercial-ShareAlike 4.0 International License.
# To view a copy of this license, visit
# http://creativecommons.org/licenses/by-nc-sa/4.0/
# or send a letter to
# Creative Commons, PO Box 1866, Mountain View, CA 94042, USA.
#
# CIF created using the CSD Python API on 29 September 2022
# The structure has been converted into the P1 space group
# The structure has a 3D framework
# The original CSD entry JENQOM is in the monoclinic crystal system
# The framework has been calculated to contain at least 10.0% void space
# The void calculation uses a probe of radius 1.32A, grid spacing 0.4
# H atom positions have been added when not included in the experimental data
#
###############################################################################

data_JENQOM
_chemical_formula_moiety         '(C688 H720 N64 O112 Zn16)n'
_symmetry_cell_setting           triclinic
_symmetry_space_group_name_H-M   'P 1'
_symmetry_Int_Tables_number      1
_space_group_name_Hall           'P 1'
loop_
_symmetry_equiv_pos_site_id
_symmetry_equiv_pos_as_xyz
1 x,y,z
_cell_length_a                   26.1988(9)
_cell_length_b                   28.6120(9)
_cell_length_c                   36.1248(10)
_cell_angle_alpha                90
_cell_angle_beta                 103.038(3)
_cell_angle_gamma                90
_cell_volume                     26381.1
loop_
_atom_site_label
_atom_site_type_symbol
_atom_site_fract_x
_atom_site_fract_y
_atom_site_fract_z
C1 C 0.4451(3) 0.1501(2) 0.5873(2)
C2 C 0.5071(3) 0.0942(2) 0.61928(17)
H1 H 0.525801 0.081010 0.641831
C3 C 0.4517(2) 0.1333(2) 0.55290(19)
H2 H 0.432372 0.145925 0.530363
C4 C 0.4727(3) 0.1296(3) 0.6208(2)
H3 H 0.467707 0.139952 0.644082
C5 C 0.4869(2) 0.09775(18) 0.55176(16)
H4 H 0.491989 0.087208 0.528500
C6 C 0.5149(2) 0.07763(18) 0.58536(14)
C7 C 0.55143(19) 0.03755(16) 0.58458(14)
C8 C 0.1376(2) 0.4604(2) 0.47519(15)
H5 H 0.162562 0.441012 0.489999
C9 C 0.1384(2) 0.4662(2) 0.43780(16)
H6 H 0.163359 0.450689 0.427758
C10 C 0.1022(2) 0.4951(2) 0.41474(15)
C11 C 0.06641(19) 0.51674(19) 0.43192(13)
H7 H 0.041098 0.536320 0.417657
C12 C 0.06761(18) 0.50987(19) 0.46925(13)
H8 H 0.043346 0.525320 0.480084
C13 C 0.1027(2) 0.5025(2) 0.37497(15)
C14 C 0.0868(2) 0.5438(2) 0.35642(15)
H9 H 0.072637 0.566839 0.369252
C15 C 0.0910(2) 0.5527(2) 0.31986(14)
C16 C 0.1112(3) 0.5188(2) 0.29985(15)
C17 C 0.1248(3) 0.4751(3) 0.31688(17)
H10 H 0.136201 0.451058 0.303372
C18 C 0.1210(3) 0.4683(2) 0.35389(17)
H11 H 0.131073 0.439633 0.365288
C19 C 0.1159(2) 0.5250(2) 0.26000(14)
C20 C 0.0753(2) 0.5433(2) 0.23190(14)
H12 H 0.044292 0.553080 0.237920
C21 C 0.0815(2) 0.54648(19) 0.19567(14)
H13 H 0.054064 0.558802 0.177338
C22 C 0.1644(2) 0.5163(2) 0.21212(15)
H14 H 0.194934 0.506695 0.205323
C23 C 0.1617(3) 0.5129(3) 0.24892(16)
H15 H 0.190614 0.502416 0.266945
C24 C 0.0762(3) 0.6017(2) 0.30298(14)
C25 C 0.1089(4) 0.6636(3) 0.2686(2)
H16 H 0.072931 0.666077 0.253496
C26 C 0.1475(5) 0.6586(3) 0.2441(3)
H17 H 0.140525 0.629239 0.230449
H18 H 0.182227 0.656324 0.260529
C27 C 0.1486(5) 0.6968(3) 0.2153(2)
C28 C 0.1212(7) 0.7517(3) 0.2619(4)
C29 C 0.1274(7) 0.7085(3) 0.2881(3)
H19 H 0.164069 0.705196 0.300500
H20 H 0.108146 0.713984 0.307662
C30 C 0.2090(5) 0.6959(7) 0.2084(4)
H21 H 0.216183 0.665662 0.199339
H22 H 0.212343 0.719235 0.190026
H23 H 0.233447 0.702370 0.231981
C31 C 0.1165(5) 0.6872(5) 0.1746(3)
H24 H 0.123697 0.656076 0.167112
H25 H 0.079839 0.690122 0.173928
H26 H 0.126113 0.709298 0.157341
C32 C 0.0638(6) 0.7655(8) 0.2434(6)
H27 H 0.045584 0.773031 0.262851
H28 H 0.063758 0.792241 0.227265
H29 H 0.046608 0.739875 0.228477
C33 C 0.1485(10) 0.7928(4) 0.2839(5)
H30 H 0.134490 0.797971 0.305911
H31 H 0.185319 0.786477 0.291630
H32 H 0.142946 0.820117 0.268053
C34 C 0.18074(19) 0.40372(17) 0.58800(14)
C35 C 0.2205(2) 0.3660(2) 0.58895(16)
C36 C 0.2490(3) 0.3482(2) 0.62325(17)
H33 H 0.243094 0.359226 0.646137
C37 C 0.2856(3) 0.3143(3) 0.6231(2)
H34 H 0.306018 0.303691 0.646007
C38 C 0.2928(3) 0.2955(3) 0.5896(2)
C39 C 0.2651(3) 0.3133(3) 0.5560(2)
H35 H 0.270298 0.301285 0.533262
C40 C 0.2299(3) 0.3482(3) 0.55553(19)
H36 H 0.211940 0.360390 0.532378
C41 C 0.3325(4) 0.2561(3) 0.5914(3)
C42 C 0.3802(3) 0.2582(3) 0.6147(3)
H37 H 0.388453 0.283459 0.631088
C43 C 0.4177(3) 0.2239(3) 0.6151(3)
H38 H 0.450014 0.225259 0.632167
C44 C 0.4051(3) 0.1867(3) 0.5885(2)
C45 C 0.3555(3) 0.1841(4) 0.5678(3)
H39 H 0.346186 0.158095 0.552332
C46 C 0.3186(3) 0.2166(4) 0.5679(3)
C47 C 0.2662(8) 0.1959(12) 0.5620(7)
C48 C 0.1740(5) 0.1955(10) 0.5667(5)
H40 H 0.169717 0.161762 0.562399
C49 C 0.1410(5) 0.2087(9) 0.5941(5)
H41 H 0.138984 0.242527 0.595001
H42 H 0.158430 0.197981 0.619224
C50 C 0.0849(5) 0.1889(7) 0.5845(4)
C51 C 0.0861(6) 0.2056(8) 0.5175(4)
C52 C 0.1432(5) 0.2188(8) 0.5324(5)
H43 H 0.161189 0.213469 0.512006
H44 H 0.144525 0.252155 0.537304
C53 C 0.0581(8) 0.2056(10) 0.6169(5)
H45 H 0.078370 0.195194 0.641000
H46 H 0.056052 0.239101 0.616727
H47 H 0.023431 0.192706 0.612708
C54 C 0.0839(11) 0.1319(7) 0.5893(7)
H48 H 0.101923 0.123455 0.614585
H49 H 0.048231 0.121318 0.584794
H50 H 0.100896 0.117497 0.571285
C55 C 0.0896(6) 0.1625(8) 0.4925(5)
H51 H 0.109754 0.170140 0.474210
H52 H 0.106185 0.137236 0.508233
H53 H 0.054954 0.153178 0.479514
C56 C 0.1912(2) 0.52904(18) 0.59976(15)
C57 C 0.2307(2) 0.5654(2) 0.59835(15)
C58 C 0.2543(3) 0.5913(2) 0.62938(17)
H54 H 0.247965 0.584327 0.653094
C59 C 0.2873(3) 0.6276(3) 0.62571(19)
H55 H 0.302145 0.645137 0.647085
C60 C 0.2990(3) 0.6388(3) 0.59135(19)
C61 C 0.2778(4) 0.6114(3) 0.5611(2)
H56 H 0.286644 0.617045 0.537934
C62 C 0.2432(3) 0.5750(3) 0.56358(19)
H57 H 0.228633 0.557224 0.542228
C63 C 0.3375(3) 0.6768(2) 0.58895(18)
C64 C 0.3735(3) 0.6912(3) 0.62137(15)
H58 H 0.375135 0.676037 0.644368
C65 C 0.4071(3) 0.7283(3) 0.61940(16)
H59 H 0.431186 0.737902 0.641083
C66 C 0.4047(3) 0.7510(2) 0.58502(18)
C67 C 0.3686(3) 0.7366(2) 0.55261(15)
H60 H 0.367017 0.751759 0.529603
C68 C 0.3351(3) 0.6995(3) 0.55457(15)
C69 C 0.4379(3) 0.7927(2) 0.58298(19)
C70 C 0.4593(2) 0.8182(2) 0.61520(17)
H61 H 0.450763 0.810195 0.638016
C71 C 0.4927(2) 0.85486(19) 0.61458(15)
H62 H 0.507286 0.870717 0.636931
C72 C 0.50479(19) 0.86841(18) 0.58068(15)
C73 C 0.4817(3) 0.8444(2) 0.54744(17)
H63 H 0.488530 0.853404 0.524298
C74 C 0.4492(3) 0.8075(3) 0.54909(19)
H64 H 0.433999 0.791836 0.526761
C75 C 0.54217(17) 0.90769(16) 0.57998(13)
C76 C 0.2881(8) 0.6961(10) 0.5220(6)
C77 C 0.2695(6) 0.6814(6) 0.4549(3)
H65 H 0.238085 0.700508 0.453398
C78 C 0.3010(6) 0.6917(6) 0.4239(3)
H66 H 0.325117 0.666245 0.422868
H67 H 0.321245 0.720142 0.430202
C79 C 0.2609(7) 0.6975(8) 0.3832(4)
C80 C 0.2217(6) 0.6205(6) 0.4074(4)
C81 C 0.2589(7) 0.6270(5) 0.4451(3)
H68 H 0.291778 0.611614 0.444881
H69 H 0.244333 0.612493 0.464741
C82 C 0.2241(6) 0.5642(6) 0.3983(6)
H70 H 0.211050 0.546741 0.416911
H71 H 0.203047 0.557714 0.373463
H72 H 0.259750 0.555221 0.399302
C83 C 0.1679(7) 0.6282(7) 0.4221(7)
H73 H 0.167494 0.607181 0.442730
H74 H 0.166343 0.659817 0.430518
H75 H 0.138306 0.621955 0.401608
C84 C 0.3013(7) 0.6865(10) 0.3550(4)
H76 H 0.282508 0.688716 0.328991
H77 H 0.329279 0.708927 0.359773
H78 H 0.315432 0.655638 0.359985
C85 C 0.2134(8) 0.7401(8) 0.3734(6)
H79 H 0.194069 0.737019 0.347540
H80 H 0.189931 0.736575 0.390159
H81 H 0.229545 0.770314 0.376999
N1 N 0.10318(15) 0.48109(14) 0.49129(11)
N2 N 0.12476(15) 0.53297(13) 0.18480(11)
N3 N 0.1151(2) 0.6250(2) 0.29377(13)
H82 H 0.146489 0.616041 0.303799
N4 N 0.1404(4) 0.7422(2) 0.2287(2)
N5 N 0.2281(6) 0.2038(9) 0.5802(5)
H83 H 0.237579 0.215258 0.602681
N6 N 0.0580(5) 0.2025(7) 0.5467(3)
N7 N 0.3079(6) 0.6864(7) 0.4880(3)
H84 H 0.340795 0.684135 0.488508
N8 N 0.2430(6) 0.6431(6) 0.3766(3)
O1 O 0.55573(13) 0.02292(11) 0.55248(9)
O2 O 0.57460(15) 0.02096(12) 0.61585(10)
O3 O 0.2256(5) 0.6277(6) 0.3414(3)
O4 O 0.0306(2) 0.61440(16) 0.29705(12)
O5 O 0.1469(3) 0.7771(2) 0.2082(2)
O6 O 0.16692(13) 0.51205(12) 0.56955(10)
O7 O 0.18528(15) 0.51735(13) 0.63262(10)
O8 O 0.15482(13) 0.41640(11) 0.55655(9)
O9 O 0.17628(13) 0.41908(12) 0.61998(9)
O10 O 0.2511(7) 0.1686(8) 0.5307(5)
O11 O 0.0049(6) 0.1979(5) 0.5378(4)
O12 O 0.56682(14) 0.92280(13) 0.61183(9)
O13 O 0.54653(12) 0.92326(12) 0.54846(9)
O14 O 0.2430(4) 0.6984(7) 0.5213(4)
Zn1 Zn 0.10391(2) 0.47027(2) 0.54656(2)
Zn2 Zn 0.12733(2) 0.46900(2) 0.62931(2)
C86 C 0.0688(10) 0.2710(9) 0.5042(8)
H85 H 0.084927 0.280258 0.483977
H86 H 0.031488 0.274311 0.496102
H87 H 0.081519 0.290398 0.525998
N9 N 0.12476(15) 0.46703(13) 0.68480(11)
O15 O 0.05573(13) 0.52292(11) 0.55248(9)
O16 O 0.07460(15) 0.52096(12) 0.61585(10)
O17 O 0.06682(14) 0.42280(13) 0.61183(9)
O18 O 0.04653(12) 0.42326(12) 0.54846(9)
Zn4 Zn 0.60391(2) 0.97027(2) 0.54656(2)
Zn6 Zn 0.62733(2) 0.96900(2) 0.62931(2)
Zn7 Zn 0.12733(2) 0.53100(2) 0.12931(2)
H88 H 0.253361 0.631597 0.326933
H90 H 0.122307 0.774651 0.182965
H62_2 H 0.007286 0.370717 0.636931
C72_2 C 0.00479(19) 0.36841(18) 0.58068(15)
C75_2 C 0.04217(17) 0.40769(16) 0.57998(13)
C2_2 C 0.0071(3) 0.5942(2) 0.61928(17)
H1_2 H 0.025801 0.581010 0.641831
C6_2 C 0.0149(2) 0.57763(18) 0.58536(14)
C7_2 C 0.05143(19) 0.53755(16) 0.58458(14)
C11_2 C 0.56641(19) 0.01674(19) 0.43192(13)
H7_2 H 0.541098 0.036320 0.417657
C12_2 C 0.56761(18) 0.00987(19) 0.46925(13)
H8_2 H 0.543346 0.025320 0.480084
C13_2 C 0.6027(2) 0.0025(2) 0.37497(15)
C14_2 C 0.5868(2) 0.0438(2) 0.35642(15)
H9_2 H 0.572637 0.066839 0.369252
C15_2 C 0.5910(2) 0.0527(2) 0.31986(14)
C16_2 C 0.6112(3) 0.0188(2) 0.29985(15)
C19_2 C 0.6159(2) 0.0250(2) 0.26000(14)
C20_2 C 0.5753(2) 0.0433(2) 0.23190(14)
H12_2 H 0.544292 0.053080 0.237920
C21_2 C 0.5815(2) 0.04648(19) 0.19567(14)
H13_2 H 0.554064 0.058802 0.177338
C22_2 C 0.6644(2) 0.0163(2) 0.21212(15)
H14_2 H 0.694934 0.006695 0.205323
C23_2 C 0.6617(3) 0.0129(3) 0.24892(16)
H15_2 H 0.690614 0.002416 0.266945
C24_2 C 0.5762(3) 0.1017(2) 0.30298(14)
C25_2 C 0.6089(4) 0.1636(3) 0.2686(2)
H16_2 H 0.572931 0.166077 0.253496
C26_2 C 0.6475(5) 0.1586(3) 0.2441(3)
H17_2 H 0.640525 0.129239 0.230449
H18_2 H 0.682227 0.156324 0.260529
C27_2 C 0.6486(5) 0.1968(3) 0.2153(2)
C28_2 C 0.6212(7) 0.2517(3) 0.2619(4)
C29_2 C 0.6274(7) 0.2085(3) 0.2881(3)
H19_2 H 0.664069 0.205196 0.300500
H20_2 H 0.608146 0.213984 0.307662
C30_2 C 0.7090(5) 0.1959(7) 0.2084(4)
H21_2 H 0.716183 0.165662 0.199339
H22_2 H 0.712343 0.219235 0.190026
H23_2 H 0.733447 0.202370 0.231981
C31_2 C 0.6165(5) 0.1872(5) 0.1746(3)
H24_2 H 0.623697 0.156076 0.167112
H25_2 H 0.579839 0.190122 0.173928
H26_2 H 0.626113 0.209298 0.157341
C32_2 C 0.5638(6) 0.2655(8) 0.2434(6)
H27_2 H 0.545584 0.273031 0.262851
H28_2 H 0.563758 0.292241 0.227265
H29_2 H 0.546608 0.239875 0.228477
C33_2 C 0.6485(10) 0.2928(4) 0.2839(5)
H30_2 H 0.634490 0.297971 0.305911
H31_2 H 0.685319 0.286477 0.291630
H32_2 H 0.642946 0.320117 0.268053
C56_2 C 0.6912(2) 0.02904(18) 0.59976(15)
C57_2 C 0.7307(2) 0.0654(2) 0.59835(15)
C58_2 C 0.7543(3) 0.0913(2) 0.62938(17)
H54_2 H 0.747965 0.084327 0.653094
C59_2 C 0.7873(3) 0.1276(3) 0.62571(19)
H55_2 H 0.802145 0.145137 0.647085
C60_2 C 0.7990(3) 0.1388(3) 0.59135(19)
C61_2 C 0.7778(4) 0.1114(3) 0.5611(2)
H56_2 H 0.786644 0.117045 0.537934
C62_2 C 0.7432(3) 0.0750(3) 0.56358(19)
H57_2 H 0.728633 0.057224 0.542228
C63_2 C 0.8375(3) 0.1768(2) 0.58895(18)
C64_2 C 0.8735(3) 0.1912(3) 0.62137(15)
H58_2 H 0.875135 0.176037 0.644368
C65_2 C 0.9071(3) 0.2283(3) 0.61940(16)
H59_2 H 0.931186 0.237902 0.641083
C66_2 C 0.9047(3) 0.2510(2) 0.58502(18)
C67_2 C 0.8686(3) 0.2366(2) 0.55261(15)
H60_2 H 0.867017 0.251759 0.529603
C68_2 C 0.8351(3) 0.1995(3) 0.55457(15)
C69_2 C 0.9379(3) 0.2927(2) 0.58298(19)
C70_2 C 0.9593(2) 0.3182(2) 0.61520(17)
H61_2 H 0.950763 0.310195 0.638016
C71_2 C 0.9927(2) 0.35486(19) 0.61458(15)
C73_2 C 0.9817(3) 0.3444(2) 0.54744(17)
H63_2 H 0.988530 0.353404 0.524298
C74_2 C 0.9492(3) 0.3075(3) 0.54909(19)
H64_2 H 0.933999 0.291836 0.526761
C76_2 C 0.7881(8) 0.1961(10) 0.5220(6)
C77_2 C 0.7695(6) 0.1814(6) 0.4549(3)
H65_2 H 0.738085 0.200508 0.453398
C78_2 C 0.8010(6) 0.1917(6) 0.4239(3)
H66_2 H 0.825117 0.166245 0.422868
H67_2 H 0.821245 0.220142 0.430202
C79_2 C 0.7609(7) 0.1975(8) 0.3832(4)
C80_2 C 0.7217(6) 0.1205(6) 0.4074(4)
C81_2 C 0.7589(7) 0.1270(5) 0.4451(3)
H68_2 H 0.791778 0.111614 0.444881
H69_2 H 0.744333 0.112493 0.464741
C82_2 C 0.7241(6) 0.0642(6) 0.3983(6)
H70_2 H 0.711050 0.046741 0.416911
H71_2 H 0.703047 0.057714 0.373463
H72_2 H 0.759750 0.055221 0.399302
C83_2 C 0.6679(7) 0.1282(7) 0.4221(7)
H73_2 H 0.667494 0.107181 0.442730
H74_2 H 0.666343 0.159817 0.430518
H75_2 H 0.638306 0.121955 0.401608
C84_2 C 0.8013(7) 0.1865(10) 0.3550(4)
H76_2 H 0.782508 0.188716 0.328991
H77_2 H 0.829279 0.208927 0.359773
H78_2 H 0.815432 0.155638 0.359985
C85_2 C 0.7134(8) 0.2401(8) 0.3734(6)
H79_2 H 0.694069 0.237019 0.347540
H80_2 H 0.689931 0.236575 0.390159
H81_2 H 0.729545 0.270314 0.376999
N2_2 N 0.62476(15) 0.03297(13) 0.18480(11)
N3_2 N 0.6151(2) 0.1250(2) 0.29377(13)
H82_2 H 0.646489 0.116041 0.303799
N4_2 N 0.6404(4) 0.2422(2) 0.2287(2)
N7_2 N 0.8079(6) 0.1864(7) 0.4880(3)
H84_2 H 0.840795 0.184135 0.488508
N8_2 N 0.7430(6) 0.1431(6) 0.3766(3)
O3_2 O 0.7256(5) 0.1277(6) 0.3414(3)
O4_2 O 0.5306(2) 0.11440(16) 0.29705(12)
O5_2 O 0.6469(3) 0.2771(2) 0.2082(2)
O6_2 O 0.66692(13) 0.01205(12) 0.56955(10)
O7_2 O 0.68528(15) 0.01735(13) 0.63262(10)
O14_2 O 0.7430(4) 0.1984(7) 0.5213(4)
Zn7_2 Zn 0.62733(2) 0.03100(2) 0.12931(2)
H88_2 H 0.753361 0.131597 0.326933
H90_2 H 0.622307 0.274651 0.182965
C1_2 C 0.9451(3) 0.6501(2) 0.5873(2)
C3_2 C 0.9517(2) 0.6333(2) 0.55290(19)
H2_2 H 0.932372 0.645925 0.530363
C4_2 C 0.9727(3) 0.6296(3) 0.6208(2)
H3_2 H 0.967707 0.639952 0.644082
C5_2 C 0.9869(2) 0.59775(18) 0.55176(16)
H4_2 H 0.991989 0.587208 0.528500
C8_2 C 0.6376(2) 0.9604(2) 0.47519(15)
H5_2 H 0.662562 0.941012 0.489999
C9_2 C 0.6384(2) 0.9662(2) 0.43780(16)
H6_2 H 0.663359 0.950689 0.427758
C10_2 C 0.6022(2) 0.9951(2) 0.41474(15)
C17_2 C 0.6248(3) 0.9751(3) 0.31688(17)
H10_2 H 0.636201 0.951058 0.303372
C18_2 C 0.6210(3) 0.9683(2) 0.35389(17)
H11_2 H 0.631073 0.939633 0.365288
C34_2 C 0.68074(19) 0.90372(17) 0.58800(14)
C35_2 C 0.7205(2) 0.8660(2) 0.58895(16)
C36_2 C 0.7490(3) 0.8482(2) 0.62325(17)
H33_2 H 0.743094 0.859226 0.646137
C37_2 C 0.7856(3) 0.8143(3) 0.6231(2)
H34_2 H 0.806018 0.803691 0.646007
C38_2 C 0.7928(3) 0.7955(3) 0.5896(2)
C39_2 C 0.7651(3) 0.8133(3) 0.5560(2)
H35_2 H 0.770298 0.801285 0.533262
C40_2 C 0.7299(3) 0.8482(3) 0.55553(19)
H36_2 H 0.711940 0.860390 0.532378
C41_2 C 0.8325(4) 0.7561(3) 0.5914(3)
C42_2 C 0.8802(3) 0.7582(3) 0.6147(3)
H37_2 H 0.888453 0.783459 0.631088
C43_2 C 0.9177(3) 0.7239(3) 0.6151(3)
H38_2 H 0.950014 0.725259 0.632167
C44_2 C 0.9051(3) 0.6867(3) 0.5885(2)
C45_2 C 0.8555(3) 0.6841(4) 0.5678(3)
H39_2 H 0.846186 0.658095 0.552332
C46_2 C 0.8186(3) 0.7166(4) 0.5679(3)
C47_2 C 0.7662(8) 0.6959(12) 0.5620(7)
C48_2 C 0.6740(5) 0.6955(10) 0.5667(5)
H40_2 H 0.669717 0.661762 0.562399
C49_2 C 0.6410(5) 0.7087(9) 0.5941(5)
H41_2 H 0.638984 0.742527 0.595001
H42_2 H 0.658430 0.697981 0.619224
C50_2 C 0.5849(5) 0.6889(7) 0.5845(4)
C51_2 C 0.5861(6) 0.7056(8) 0.5175(4)
C52_2 C 0.6432(5) 0.7188(8) 0.5324(5)
H43_2 H 0.661189 0.713469 0.512006
H44_2 H 0.644525 0.752155 0.537304
C53_2 C 0.5581(8) 0.7056(10) 0.6169(5)
H45_2 H 0.578370 0.695194 0.641000
H46_2 H 0.556052 0.739101 0.616727
H47_2 H 0.523431 0.692706 0.612708
C54_2 C 0.5839(11) 0.6319(7) 0.5893(7)
H48_2 H 0.601923 0.623455 0.614585
H49_2 H 0.548231 0.621318 0.584794
H50_2 H 0.600896 0.617497 0.571285
C55_2 C 0.5896(6) 0.6625(8) 0.4925(5)
H51_2 H 0.609754 0.670140 0.474210
H52_2 H 0.606185 0.637236 0.508233
H53_2 H 0.554954 0.653178 0.479514
N1_2 N 0.60318(15) 0.98109(14) 0.49129(11)
N5_2 N 0.7281(6) 0.7038(9) 0.5802(5)
H83_2 H 0.737579 0.715258 0.602681
N6_2 N 0.5580(5) 0.7025(7) 0.5467(3)
O8_2 O 0.65482(13) 0.91640(11) 0.55655(9)
O9_2 O 0.67628(13) 0.91908(12) 0.61998(9)
O10_2 O 0.7511(7) 0.6686(8) 0.5307(5)
O11_2 O 0.5049(6) 0.6979(5) 0.5378(4)
C86_2 C 0.5688(10) 0.7710(9) 0.5042(8)
H85_2 H 0.584927 0.780258 0.483977
H86_2 H 0.531488 0.774311 0.496102
H87_2 H 0.581519 0.790398 0.525998
N9_2 N 0.62476(15) 0.96703(13) 0.68480(11)
H89 H 0.489586 0.717412 0.555287
Zn3 Zn 0.60391(2) 0.02973(2) 0.04656(2)
C1_3 C 0.4451(3) 0.8499(2) 0.0873(2)
C2_3 C 0.5071(3) 0.9058(2) 0.11928(17)
H1_3 H 0.525801 0.918990 0.141831
C3_3 C 0.4517(2) 0.8667(2) 0.05290(19)
H2_3 H 0.432372 0.854075 0.030363
C4_3 C 0.4727(3) 0.8704(3) 0.1208(2)
H3_3 H 0.467707 0.860048 0.144082
C5_3 C 0.4869(2) 0.90225(18) 0.05176(16)
H4_3 H 0.491989 0.912792 0.028500
C6_3 C 0.5149(2) 0.92237(18) 0.08536(14)
C7_3 C 0.55143(19) 0.96245(16) 0.08458(14)
C34_3 C 0.18074(19) 0.59628(17) 0.08800(14)
C35_3 C 0.2205(2) 0.6340(2) 0.08895(16)
C36_3 C 0.2490(3) 0.6518(2) 0.12325(17)
H33_3 H 0.243094 0.640774 0.146137
C37_3 C 0.2856(3) 0.6857(3) 0.1231(2)
H34_3 H 0.306018 0.696309 0.146007
C38_3 C 0.2928(3) 0.7045(3) 0.0896(2)
C39_3 C 0.2651(3) 0.6867(3) 0.0560(2)
H35_3 H 0.270298 0.698715 0.033262
C40_3 C 0.2299(3) 0.6518(3) 0.05553(19)
H36_3 H 0.211940 0.639610 0.032378
C41_3 C 0.3325(4) 0.7439(3) 0.0914(3)
C42_3 C 0.3802(3) 0.7418(3) 0.1147(3)
H37_3 H 0.388453 0.716541 0.131088
C43_3 C 0.4177(3) 0.7761(3) 0.1151(3)
H38_3 H 0.450014 0.774741 0.132167
C44_3 C 0.4051(3) 0.8133(3) 0.0885(2)
C45_3 C 0.3555(3) 0.8159(4) 0.0678(3)
H39_3 H 0.346186 0.841905 0.052332
C46_3 C 0.3186(3) 0.7834(4) 0.0679(3)
C47_3 C 0.2662(8) 0.8041(12) 0.0620(7)
C48_3 C 0.1740(5) 0.8045(10) 0.0667(5)
H40_3 H 0.169717 0.838238 0.062399
C49_3 C 0.1410(5) 0.7913(9) 0.0941(5)
H41_3 H 0.138984 0.757473 0.095001
H42_3 H 0.158430 0.802019 0.119224
C50_3 C 0.0849(5) 0.8111(7) 0.0845(4)
C51_3 C 0.0861(6) 0.7944(8) 0.0175(4)
C52_3 C 0.1432(5) 0.7812(8) 0.0324(5)
H43_3 H 0.161189 0.786531 0.012006
H44_3 H 0.144525 0.747845 0.037304
C53_3 C 0.0581(8) 0.7944(10) 0.1169(5)
H45_3 H 0.078370 0.804806 0.141000
H46_3 H 0.056052 0.760899 0.116727
H47_3 H 0.023431 0.807294 0.112708
C54_3 C 0.0839(11) 0.8681(7) 0.0893(7)
H48_3 H 0.101923 0.876545 0.114585
H49_3 H 0.048231 0.878682 0.084794
H50_3 H 0.100896 0.882503 0.071285
H52_3 H 0.106185 0.862764 0.008233
C56_3 C 0.1912(2) 0.47096(18) 0.09976(15)
C57_3 C 0.2307(2) 0.4346(2) 0.09835(15)
C58_3 C 0.2543(3) 0.4087(2) 0.12938(17)
H54_3 H 0.247965 0.415673 0.153094
C59_3 C 0.2873(3) 0.3724(3) 0.12571(19)
H55_3 H 0.302145 0.354863 0.147085
C60_3 C 0.2990(3) 0.3612(3) 0.09135(19)
C61_3 C 0.2778(4) 0.3886(3) 0.0611(2)
H56_3 H 0.286644 0.382955 0.037934
C62_3 C 0.2432(3) 0.4250(3) 0.06358(19)
H57_3 H 0.228633 0.442776 0.042228
C63_3 C 0.3375(3) 0.3232(2) 0.08895(18)
C64_3 C 0.3735(3) 0.3088(3) 0.12137(15)
H58_3 H 0.375135 0.323963 0.144368
C65_3 C 0.4071(3) 0.2717(3) 0.11940(16)
H59_3 H 0.431186 0.262098 0.141083
C66_3 C 0.4047(3) 0.2490(2) 0.08502(18)
C67_3 C 0.3686(3) 0.2634(2) 0.05261(15)
H60_3 H 0.367017 0.248241 0.029603
C68_3 C 0.3351(3) 0.3005(3) 0.05457(15)
C69_3 C 0.4379(3) 0.2073(2) 0.08298(19)
C70_3 C 0.4593(2) 0.1818(2) 0.11520(17)
H61_3 H 0.450763 0.189805 0.138016
C71_3 C 0.4927(2) 0.14514(19) 0.11458(15)
H62_3 H 0.507286 0.129283 0.136931
C72_3 C 0.50479(19) 0.13159(18) 0.08068(15)
C73_3 C 0.4817(3) 0.1556(2) 0.04744(17)
H63_3 H 0.488530 0.146596 0.024298
C74_3 C 0.4492(3) 0.1925(3) 0.04909(19)
H64_3 H 0.433999 0.208164 0.026761
C75_3 C 0.54217(17) 0.09231(16) 0.07998(13)
C76_3 C 0.2881(8) 0.3039(10) 0.0220(6)
N5_3 N 0.2281(6) 0.7962(9) 0.0802(5)
H83_3 H 0.237579 0.784742 0.102681
N6_3 N 0.0580(5) 0.7975(7) 0.0467(3)
O1_2 O 0.55573(13) 0.97708(11) 0.05248(9)
O2_2 O 0.57460(15) 0.97904(12) 0.11585(10)
O6_3 O 0.16692(13) 0.48795(12) 0.06955(10)
O7_3 O 0.18528(15) 0.48265(13) 0.13262(10)
O8_3 O 0.15482(13) 0.58360(11) 0.05655(9)
O9_3 O 0.17628(13) 0.58092(12) 0.11998(9)
O10_3 O 0.2511(7) 0.8314(8) 0.0307(5)
O11_3 O 0.0049(6) 0.8021(5) 0.0378(4)
O12_2 O 0.56682(14) 0.07720(13) 0.11183(9)
O13_2 O 0.54653(12) 0.07674(12) 0.04846(9)
O14_3 O 0.2430(4) 0.3016(7) 0.0213(4)
Zn1_2 Zn 0.10391(2) 0.52973(2) 0.04656(2)
C86_3 C 0.0688(10) 0.7290(9) 0.0042(8)
H87_3 H 0.081519 0.709602 0.025998
O15_2 O 0.05573(13) 0.47708(11) 0.05248(9)
O16_2 O 0.07460(15) 0.47904(12) 0.11585(10)
O17_2 O 0.06682(14) 0.57720(13) 0.11183(9)
O18_2 O 0.04653(12) 0.57674(12) 0.04846(9)
C8_3 C 0.1376(2) 0.5396(2) 0.97519(15)
H5_3 H 0.162562 0.558988 0.989999
C9_3 C 0.1384(2) 0.5338(2) 0.93780(16)
H6_3 H 0.163359 0.549311 0.927758
C10_3 C 0.1022(2) 0.5049(2) 0.91474(15)
C11_3 C 0.06641(19) 0.48326(19) 0.93192(13)
H7_3 H 0.041098 0.463680 0.917657
C12_3 C 0.06761(18) 0.49013(19) 0.96925(13)
H8_3 H 0.043346 0.474680 0.980084
C13_3 C 0.1027(2) 0.4975(2) 0.87497(15)
C14_3 C 0.0868(2) 0.4562(2) 0.85642(15)
H9_3 H 0.072637 0.433161 0.869252
C15_3 C 0.0910(2) 0.4473(2) 0.81986(14)
C16_3 C 0.1112(3) 0.4812(2) 0.79985(15)
C17_3 C 0.1248(3) 0.5249(3) 0.81688(17)
H10_3 H 0.136201 0.548942 0.803372
C18_3 C 0.1210(3) 0.5317(2) 0.85389(17)
H11_3 H 0.131073 0.560367 0.865288
C19_3 C 0.1159(2) 0.4750(2) 0.76000(14)
C20_3 C 0.0753(2) 0.4567(2) 0.73190(14)
H12_3 H 0.044292 0.446920 0.737920
C21_3 C 0.0815(2) 0.45352(19) 0.69567(14)
H13_3 H 0.054064 0.441198 0.677338
C22_3 C 0.1644(2) 0.4837(2) 0.71212(15)
H14_3 H 0.194934 0.493305 0.705323
C23_3 C 0.1617(3) 0.4871(3) 0.74892(16)
H15_3 H 0.190614 0.497584 0.766945
C24_3 C 0.0762(3) 0.3983(2) 0.80298(14)
C25_3 C 0.1089(4) 0.3364(3) 0.7686(2)
H16_3 H 0.072931 0.333923 0.753496
C26_3 C 0.1475(5) 0.3414(3) 0.7441(3)
H17_3 H 0.140525 0.370761 0.730449
H18_3 H 0.182227 0.343676 0.760529
C27_3 C 0.1486(5) 0.3032(3) 0.7153(2)
C28_3 C 0.1212(7) 0.2483(3) 0.7619(4)
C29_3 C 0.1274(7) 0.2915(3) 0.7881(3)
H19_3 H 0.164069 0.294804 0.800500
H20_3 H 0.108146 0.286016 0.807662
C30_3 C 0.2090(5) 0.3041(7) 0.7084(4)
H21_3 H 0.216183 0.334338 0.699339
H22_3 H 0.212343 0.280765 0.690026
H23_3 H 0.233447 0.297630 0.731981
C31_3 C 0.1165(5) 0.3128(5) 0.6746(3)
H24_3 H 0.123697 0.343924 0.667112
H25_3 H 0.079839 0.309878 0.673928
H26_3 H 0.126113 0.290702 0.657341
C32_3 C 0.0638(6) 0.2345(8) 0.7434(6)
H27_3 H 0.045584 0.226969 0.762851
H28_3 H 0.063758 0.207759 0.727265
H29_3 H 0.046608 0.260125 0.728477
C33_3 C 0.1485(10) 0.2072(4) 0.7839(5)
H30_3 H 0.134490 0.202029 0.805911
H31_3 H 0.185319 0.213523 0.791630
H32_3 H 0.142946 0.179883 0.768053
C55_3 C 0.0896(6) 0.8375(8) 0.9925(5)
H51_3 H 0.109754 0.829860 0.974210
H53_3 H 0.054954 0.846822 0.979514
C77_3 C 0.2695(6) 0.3186(6) 0.9549(3)
H65_3 H 0.238085 0.299492 0.953398
C78_3 C 0.3010(6) 0.3083(6) 0.9239(3)
H66_3 H 0.325117 0.333755 0.922868
H67_3 H 0.321245 0.279858 0.930202
C79_3 C 0.2609(7) 0.3025(8) 0.8832(4)
C80_3 C 0.2217(6) 0.3795(6) 0.9074(4)
C81_3 C 0.2589(7) 0.3730(5) 0.9451(3)
H68_3 H 0.291778 0.388386 0.944881
H69_3 H 0.244333 0.387507 0.964741
C82_3 C 0.2241(6) 0.4358(6) 0.8983(6)
H70_3 H 0.211050 0.453259 0.916911
H71_3 H 0.203047 0.442286 0.873463
H72_3 H 0.259750 0.444779 0.899302
C83_3 C 0.1679(7) 0.3718(7) 0.9221(7)
H73_3 H 0.167494 0.392819 0.942730
H74_3 H 0.166343 0.340183 0.930518
H75_3 H 0.138306 0.378045 0.901608
C84_3 C 0.3013(7) 0.3135(10) 0.8550(4)
H76_3 H 0.282508 0.311284 0.828991
H77_3 H 0.329279 0.291073 0.859773
H78_3 H 0.315432 0.344362 0.859985
C85_3 C 0.2134(8) 0.2599(8) 0.8734(6)
H79_3 H 0.194069 0.262981 0.847540
H80_3 H 0.189931 0.263425 0.890159
H81_3 H 0.229545 0.229686 0.876999
N1_3 N 0.10318(15) 0.51891(14) 0.99129(11)
N3_3 N 0.1151(2) 0.3750(2) 0.79377(13)
H82_3 H 0.146489 0.383959 0.803799
N4_3 N 0.1404(4) 0.2578(2) 0.7287(2)
N7_3 N 0.3079(6) 0.3136(7) 0.9880(3)
H84_3 H 0.340795 0.315865 0.988508
N8_3 N 0.2430(6) 0.3569(6) 0.8766(3)
O3_3 O 0.2256(5) 0.3723(6) 0.8414(3)
O4_3 O 0.0306(2) 0.38560(16) 0.79705(12)
O5_3 O 0.1469(3) 0.2229(2) 0.7082(2)
H85_3 H 0.084927 0.719742 0.983977
H86_3 H 0.031488 0.725689 0.996102
H88_3 H 0.253361 0.368403 0.826933
H90_3 H 0.122307 0.225349 0.682965
C2_4 C 0.0071(3) 0.4058(2) 0.11928(17)
H1_4 H 0.025801 0.418990 0.141831
C6_4 C 0.0149(2) 0.42237(18) 0.08536(14)
C7_4 C 0.05143(19) 0.46245(16) 0.08458(14)
H62_4 H 0.007286 0.629283 0.136931
C72_4 C 0.00479(19) 0.63159(18) 0.08068(15)
C75_4 C 0.04217(17) 0.59231(16) 0.07998(13)
C1_4 C 0.9451(3) 0.3499(2) 0.0873(2)
C3_4 C 0.9517(2) 0.3667(2) 0.05290(19)
H2_4 H 0.932372 0.354075 0.030363
C4_4 C 0.9727(3) 0.3704(3) 0.1208(2)
H3_4 H 0.967707 0.360048 0.144082
C5_4 C 0.9869(2) 0.40225(18) 0.05176(16)
H4_4 H 0.991989 0.412792 0.028500
C34_4 C 0.68074(19) 0.09628(17) 0.08800(14)
C35_4 C 0.7205(2) 0.1340(2) 0.08895(16)
C36_4 C 0.7490(3) 0.1518(2) 0.12325(17)
H33_4 H 0.743094 0.140774 0.146137
C37_4 C 0.7856(3) 0.1857(3) 0.1231(2)
H34_4 H 0.806018 0.196309 0.146007
C38_4 C 0.7928(3) 0.2045(3) 0.0896(2)
C39_4 C 0.7651(3) 0.1867(3) 0.0560(2)
H35_4 H 0.770298 0.198715 0.033262
C40_4 C 0.7299(3) 0.1518(3) 0.05553(19)
H36_4 H 0.711940 0.139610 0.032378
C41_4 C 0.8325(4) 0.2439(3) 0.0914(3)
C42_4 C 0.8802(3) 0.2418(3) 0.1147(3)
H37_4 H 0.888453 0.216541 0.131088
C43_4 C 0.9177(3) 0.2761(3) 0.1151(3)
H38_4 H 0.950014 0.274741 0.132167
C44_4 C 0.9051(3) 0.3133(3) 0.0885(2)
C45_4 C 0.8555(3) 0.3159(4) 0.0678(3)
H39_4 H 0.846186 0.341905 0.052332
C46_4 C 0.8186(3) 0.2834(4) 0.0679(3)
C47_4 C 0.7662(8) 0.3041(12) 0.0620(7)
C48_4 C 0.6740(5) 0.3045(10) 0.0667(5)
H40_4 H 0.669717 0.338238 0.062399
C49_4 C 0.6410(5) 0.2913(9) 0.0941(5)
H41_4 H 0.638984 0.257473 0.095001
H42_4 H 0.658430 0.302019 0.119224
C50_4 C 0.5849(5) 0.3111(7) 0.0845(4)
C51_4 C 0.5861(6) 0.2944(8) 0.0175(4)
C52_4 C 0.6432(5) 0.2812(8) 0.0324(5)
H43_4 H 0.661189 0.286531 0.012006
H44_4 H 0.644525 0.247845 0.037304
C53_4 C 0.5581(8) 0.2944(10) 0.1169(5)
H45_4 H 0.578370 0.304806 0.141000
H46_4 H 0.556052 0.260899 0.116727
H47_4 H 0.523431 0.307294 0.112708
C54_4 C 0.5839(11) 0.3681(7) 0.0893(7)
H48_4 H 0.601923 0.376545 0.114585
H49_4 H 0.548231 0.378682 0.084794
H50_4 H 0.600896 0.382503 0.071285
H52_4 H 0.606185 0.362764 0.008233
N5_4 N 0.7281(6) 0.2962(9) 0.0802(5)
H83_4 H 0.737579 0.284742 0.102681
N6_4 N 0.5580(5) 0.2975(7) 0.0467(3)
O8_4 O 0.65482(13) 0.08360(11) 0.05655(9)
O9_4 O 0.67628(13) 0.08092(12) 0.11998(9)
O10_4 O 0.7511(7) 0.3314(8) 0.0307(5)
O11_4 O 0.5049(6) 0.3021(5) 0.0378(4)
C86_4 C 0.5688(10) 0.2290(9) 0.0042(8)
H87_4 H 0.581519 0.209602 0.025998
H89_2 H 0.489586 0.282588 0.0552871
C56_4 C 0.6912(2) 0.97096(18) 0.09976(15)
C57_4 C 0.7307(2) 0.9346(2) 0.09835(15)
C58_4 C 0.7543(3) 0.9087(2) 0.12938(17)
H54_4 H 0.747965 0.915673 0.153094
C59_4 C 0.7873(3) 0.8724(3) 0.12571(19)
H55_4 H 0.802145 0.854863 0.147085
C60_4 C 0.7990(3) 0.8612(3) 0.09135(19)
C61_4 C 0.7778(4) 0.8886(3) 0.0611(2)
H56_4 H 0.786644 0.882955 0.037934
C62_4 C 0.7432(3) 0.9250(3) 0.06358(19)
H57_4 H 0.728633 0.942776 0.042228
C63_4 C 0.8375(3) 0.8232(2) 0.08895(18)
C64_4 C 0.8735(3) 0.8088(3) 0.12137(15)
H58_4 H 0.875135 0.823963 0.144368
C65_4 C 0.9071(3) 0.7717(3) 0.11940(16)
H59_4 H 0.931186 0.762098 0.141083
C66_4 C 0.9047(3) 0.7490(2) 0.08502(18)
C67_4 C 0.8686(3) 0.7634(2) 0.05261(15)
H60_4 H 0.867017 0.748241 0.029603
C68_4 C 0.8351(3) 0.8005(3) 0.05457(15)
C69_4 C 0.9379(3) 0.7073(2) 0.08298(19)
C70_4 C 0.9593(2) 0.6818(2) 0.11520(17)
H61_4 H 0.950763 0.689805 0.138016
C71_4 C 0.9927(2) 0.64514(19) 0.11458(15)
C73_4 C 0.9817(3) 0.6556(2) 0.04744(17)
H63_4 H 0.988530 0.646596 0.024298
C74_4 C 0.9492(3) 0.6925(3) 0.04909(19)
H64_4 H 0.933999 0.708164 0.026761
C76_4 C 0.7881(8) 0.8039(10) 0.0220(6)
O6_4 O 0.66692(13) 0.98795(12) 0.06955(10)
O7_4 O 0.68528(15) 0.98265(13) 0.13262(10)
O14_4 O 0.7430(4) 0.8016(7) 0.0213(4)
C11_4 C 0.56641(19) 0.98326(19) 0.93192(13)
H7_4 H 0.541098 0.963680 0.917657
C12_4 C 0.56761(18) 0.99013(19) 0.96925(13)
H8_4 H 0.543346 0.974680 0.980084
C13_4 C 0.6027(2) 0.9975(2) 0.87497(15)
C14_4 C 0.5868(2) 0.9562(2) 0.85642(15)
H9_4 H 0.572637 0.933161 0.869252
C15_4 C 0.5910(2) 0.9473(2) 0.81986(14)
C16_4 C 0.6112(3) 0.9812(2) 0.79985(15)
C19_4 C 0.6159(2) 0.9750(2) 0.76000(14)
C20_4 C 0.5753(2) 0.9567(2) 0.73190(14)
H12_4 H 0.544292 0.946920 0.737920
C21_4 C 0.5815(2) 0.95352(19) 0.69567(14)
H13_4 H 0.554064 0.941198 0.677338
C22_4 C 0.6644(2) 0.9837(2) 0.71212(15)
H14_4 H 0.694934 0.993305 0.705323
C23_4 C 0.6617(3) 0.9871(3) 0.74892(16)
H15_4 H 0.690614 0.997584 0.766945
C24_4 C 0.5762(3) 0.8983(2) 0.80298(14)
C25_4 C 0.6089(4) 0.8364(3) 0.7686(2)
H16_4 H 0.572931 0.833923 0.753496
C26_4 C 0.6475(5) 0.8414(3) 0.7441(3)
H17_4 H 0.640525 0.870761 0.730449
H18_4 H 0.682227 0.843676 0.760529
C27_4 C 0.6486(5) 0.8032(3) 0.7153(2)
C28_4 C 0.6212(7) 0.7483(3) 0.7619(4)
C29_4 C 0.6274(7) 0.7915(3) 0.7881(3)
H19_4 H 0.664069 0.794804 0.800500
H20_4 H 0.608146 0.786016 0.807662
C30_4 C 0.7090(5) 0.8041(7) 0.7084(4)
H21_4 H 0.716183 0.834338 0.699339
H22_4 H 0.712343 0.780765 0.690026
H23_4 H 0.733447 0.797630 0.731981
C31_4 C 0.6165(5) 0.8128(5) 0.6746(3)
H24_4 H 0.623697 0.843924 0.667112
H25_4 H 0.579839 0.809878 0.673928
H26_4 H 0.626113 0.790702 0.657341
C32_4 C 0.5638(6) 0.7345(8) 0.7434(6)
H27_4 H 0.545584 0.726969 0.762851
H28_4 H 0.563758 0.707759 0.727265
H29_4 H 0.546608 0.760125 0.728477
C33_4 C 0.6485(10) 0.7072(4) 0.7839(5)
H30_4 H 0.634490 0.702029 0.805911
H31_4 H 0.685319 0.713523 0.791630
H32_4 H 0.642946 0.679883 0.768053
C77_4 C 0.7695(6) 0.8186(6) 0.9549(3)
H65_4 H 0.738085 0.799492 0.953398
C78_4 C 0.8010(6) 0.8083(6) 0.9239(3)
H66_4 H 0.825117 0.833755 0.922868
H67_4 H 0.821245 0.779858 0.930202
C79_4 C 0.7609(7) 0.8025(8) 0.8832(4)
C80_4 C 0.7217(6) 0.8795(6) 0.9074(4)
C81_4 C 0.7589(7) 0.8730(5) 0.9451(3)
H68_4 H 0.791778 0.888386 0.944881
H69_4 H 0.744333 0.887507 0.964741
C82_4 C 0.7241(6) 0.9358(6) 0.8983(6)
H70_4 H 0.711050 0.953259 0.916911
H71_4 H 0.703047 0.942286 0.873463
H72_4 H 0.759750 0.944779 0.899302
C83_4 C 0.6679(7) 0.8718(7) 0.9221(7)
H73_4 H 0.667494 0.892819 0.942730
H74_4 H 0.666343 0.840183 0.930518
H75_4 H 0.638306 0.878045 0.901608
C84_4 C 0.8013(7) 0.8135(10) 0.8550(4)
H76_4 H 0.782508 0.811284 0.828991
H77_4 H 0.829279 0.791073 0.859773
H78_4 H 0.815432 0.844362 0.859985
C85_4 C 0.7134(8) 0.7599(8) 0.8734(6)
H79_4 H 0.694069 0.762981 0.847540
H80_4 H 0.689931 0.763425 0.890159
H81_4 H 0.729545 0.729686 0.876999
N3_4 N 0.6151(2) 0.8750(2) 0.79377(13)
H82_4 H 0.646489 0.883959 0.803799
N4_4 N 0.6404(4) 0.7578(2) 0.7287(2)
N7_4 N 0.8079(6) 0.8136(7) 0.9880(3)
H84_4 H 0.840795 0.815865 0.988508
N8_4 N 0.7430(6) 0.8569(6) 0.8766(3)
O3_4 O 0.7256(5) 0.8723(6) 0.8414(3)
O4_4 O 0.5306(2) 0.88560(16) 0.79705(12)
O5_4 O 0.6469(3) 0.7229(2) 0.7082(2)
H88_4 H 0.753361 0.868403 0.826933
H90_4 H 0.622307 0.725349 0.682965
H89_3 H 0.989586 0.217412 0.555287
H89_4 H 0.0104139 0.217412 0.944713
C8_4 C 0.8624(2) 0.4604(2) 0.02481(15)
H5_4 H 0.837438 0.441012 0.010001
C9_4 C 0.8616(2) 0.4662(2) 0.06220(16)
H6_4 H 0.836641 0.450689 0.072242
C10_4 C 0.8978(2) 0.4951(2) 0.08526(15)
C11_5 C 0.93359(19) 0.51674(19) 0.06808(13)
H7_5 H 0.958902 0.536320 0.082343
C12_5 C 0.93239(18) 0.50987(19) 0.03075(13)
H8_5 H 0.956654 0.525320 0.019916
C13_5 C 0.8973(2) 0.5025(2) 0.12503(15)
C14_5 C 0.9132(2) 0.5438(2) 0.14358(15)
H9_5 H 0.927363 0.566839 0.130748
C15_5 C 0.9090(2) 0.5527(2) 0.18014(14)
C16_5 C 0.8888(3) 0.5188(2) 0.20015(15)
C17_4 C 0.8752(3) 0.4751(3) 0.18312(17)
H10_4 H 0.863799 0.451058 0.196628
C18_4 C 0.8790(3) 0.4683(2) 0.14611(17)
H11_4 H 0.868927 0.439633 0.134712
C19_5 C 0.8841(2) 0.5250(2) 0.24000(14)
C20_5 C 0.9247(2) 0.5433(2) 0.26810(14)
H12_5 H 0.955708 0.553080 0.262080
C21_5 C 0.9185(2) 0.54648(19) 0.30433(14)
H13_5 H 0.945936 0.558802 0.322662
C22_5 C 0.8356(2) 0.5163(2) 0.28788(15)
H14_5 H 0.805066 0.506695 0.294677
C23_5 C 0.8383(3) 0.5129(3) 0.25108(16)
H15_5 H 0.809386 0.502416 0.233055
C24_5 C 0.9238(3) 0.6017(2) 0.19702(14)
C25_5 C 0.8911(4) 0.6636(3) 0.2314(2)
H16_5 H 0.927069 0.666077 0.246504
C26_5 C 0.8525(5) 0.6586(3) 0.2559(3)
H17_5 H 0.859475 0.629239 0.269551
H18_5 H 0.817773 0.656324 0.239471
C27_5 C 0.8514(5) 0.6968(3) 0.2847(2)
C28_5 C 0.8788(7) 0.7517(3) 0.2381(4)
C29_5 C 0.8726(7) 0.7085(3) 0.2119(3)
H19_5 H 0.835931 0.705196 0.199500
H20_5 H 0.891854 0.713984 0.192338
C30_5 C 0.7910(5) 0.6959(7) 0.2916(4)
H21_5 H 0.783817 0.665662 0.300661
H22_5 H 0.787657 0.719235 0.309974
H23_5 H 0.766553 0.702370 0.268019
C31_5 C 0.8835(5) 0.6872(5) 0.3254(3)
H24_5 H 0.876303 0.656076 0.332888
H25_5 H 0.920161 0.690122 0.326072
H26_5 H 0.873887 0.709298 0.342659
C32_5 C 0.9362(6) 0.7655(8) 0.2566(6)
H27_5 H 0.954416 0.773031 0.237149
H28_5 H 0.936242 0.792241 0.272735
H29_5 H 0.953392 0.739875 0.271523
C33_5 C 0.8515(10) 0.7928(4) 0.2161(5)
H30_5 H 0.865510 0.797971 0.194089
H31_5 H 0.814681 0.786477 0.208370
H32_5 H 0.857054 0.820117 0.231947
C55_4 C 0.9104(6) 0.1625(8) 0.0075(5)
H51_4 H 0.890246 0.170140 0.025790
H53_4 H 0.945046 0.153178 0.020486
C77_5 C 0.7305(6) 0.6814(6) 0.0451(3)
H65_5 H 0.761915 0.700508 0.046602
C78_5 C 0.6990(6) 0.6917(6) 0.0761(3)
H66_5 H 0.674883 0.666245 0.077132
H67_5 H 0.678755 0.720142 0.069798
C79_5 C 0.7391(7) 0.6975(8) 0.1168(4)
C80_5 C 0.7783(6) 0.6205(6) 0.0926(4)
C81_5 C 0.7411(7) 0.6270(5) 0.0549(3)
H68_5 H 0.708222 0.611614 0.055119
H69_5 H 0.755667 0.612493 0.035259
C82_5 C 0.7759(6) 0.5642(6) 0.1017(6)
H70_5 H 0.788950 0.546741 0.083089
H71_5 H 0.796953 0.557714 0.126537
H72_5 H 0.740250 0.555221 0.100698
C83_5 C 0.8321(7) 0.6282(7) 0.0779(7)
H73_5 H 0.832506 0.607181 0.057270
H74_5 H 0.833657 0.659817 0.069482
H75_5 H 0.861694 0.621955 0.098392
C84_5 C 0.6987(7) 0.6865(10) 0.1450(4)
H76_5 H 0.717492 0.688716 0.171009
H77_5 H 0.670721 0.708927 0.140227
H78_5 H 0.684568 0.655638 0.140015
C85_5 C 0.7866(8) 0.7401(8) 0.1266(6)
H79_5 H 0.805931 0.737019 0.152460
H80_5 H 0.810069 0.736575 0.109841
H81_5 H 0.770455 0.770314 0.123001
N1_4 N 0.89682(15) 0.48109(14) 0.00871(11)
N2_3 N 0.87524(15) 0.53297(13) 0.31520(11)
N3_5 N 0.8849(2) 0.6250(2) 0.20623(13)
H82_5 H 0.853511 0.616041 0.196201
N4_5 N 0.8596(4) 0.7422(2) 0.2713(2)
N7_5 N 0.6921(6) 0.6864(7) 0.0120(3)
H84_5 H 0.659205 0.684135 0.011492
N8_5 N 0.7570(6) 0.6431(6) 0.1234(3)
O3_5 O 0.7744(5) 0.6277(6) 0.1586(3)
O4_5 O 0.9694(2) 0.61440(16) 0.20295(12)
O5_5 O 0.8531(3) 0.7771(2) 0.2918(2)
H85_4 H 0.915073 0.280258 0.016023
H86_4 H 0.968512 0.274311 0.003898
Zn7_3 Zn 0.87267(2) 0.53100(2) 0.37069(2)
H88_5 H 0.746639 0.631597 0.173067
H90_5 H 0.877693 0.774651 0.317035
C1_5 C 0.5549(3) 0.1501(2) 0.9127(2)
C2_5 C 0.4929(3) 0.0942(2) 0.88072(17)
H1_5 H 0.474199 0.081010 0.858169
C3_5 C 0.5483(2) 0.1333(2) 0.94710(19)
H2_5 H 0.567628 0.145925 0.969637
C4_5 C 0.5273(3) 0.1296(3) 0.8792(2)
H3_5 H 0.532293 0.139952 0.855918
C5_5 C 0.5131(2) 0.09775(18) 0.94824(16)
H4_5 H 0.508011 0.087208 0.971500
C6_5 C 0.4851(2) 0.07763(18) 0.91464(14)
C7_5 C 0.44857(19) 0.03755(16) 0.91542(14)
C34_5 C 0.81926(19) 0.40372(17) 0.91200(14)
C35_5 C 0.7795(2) 0.3660(2) 0.91105(16)
C36_5 C 0.7510(3) 0.3482(2) 0.87675(17)
H33_5 H 0.756906 0.359226 0.853863
C37_5 C 0.7144(3) 0.3143(3) 0.8769(2)
H34_5 H 0.693982 0.303691 0.853993
C38_5 C 0.7072(3) 0.2955(3) 0.9104(2)
C39_5 C 0.7349(3) 0.3133(3) 0.9440(2)
H35_5 H 0.729702 0.301285 0.966738
C40_5 C 0.7701(3) 0.3482(3) 0.94447(19)
H36_5 H 0.788060 0.360390 0.967622
C41_5 C 0.6675(4) 0.2561(3) 0.9086(3)
C42_5 C 0.6198(3) 0.2582(3) 0.8853(3)
H37_5 H 0.611547 0.283459 0.868912
C43_5 C 0.5823(3) 0.2239(3) 0.8849(3)
H38_5 H 0.549986 0.225259 0.867833
C44_5 C 0.5949(3) 0.1867(3) 0.9115(2)
C45_5 C 0.6445(3) 0.1841(4) 0.9322(3)
H39_5 H 0.653814 0.158095 0.947668
C46_5 C 0.6814(3) 0.2166(4) 0.9321(3)
C47_5 C 0.7338(8) 0.1959(12) 0.9380(7)
C48_5 C 0.8260(5) 0.1955(10) 0.9333(5)
H40_5 H 0.830283 0.161762 0.937601
C49_5 C 0.8590(5) 0.2087(9) 0.9059(5)
H41_5 H 0.861016 0.242527 0.904999
H42_5 H 0.841570 0.197981 0.880776
C50_5 C 0.9151(5) 0.1889(7) 0.9155(4)
C51_5 C 0.9139(6) 0.2056(8) 0.9825(4)
C52_5 C 0.8568(5) 0.2188(8) 0.9676(5)
H43_5 H 0.838811 0.213469 0.987994
H44_5 H 0.855475 0.252155 0.962696
C53_5 C 0.9419(8) 0.2056(10) 0.8831(5)
H45_5 H 0.921630 0.195194 0.859000
H46_5 H 0.943948 0.239101 0.883273
H47_5 H 0.976569 0.192706 0.887292
C54_5 C 0.9161(11) 0.1319(7) 0.9107(7)
H48_5 H 0.898077 0.123455 0.885415
H49_5 H 0.951769 0.121318 0.915206
H50_5 H 0.899104 0.117497 0.928715
H52_5 H 0.893815 0.137236 0.991767
C56_5 C 0.8088(2) 0.52904(18) 0.90024(15)
C57_5 C 0.7693(2) 0.5654(2) 0.90165(15)
C58_5 C 0.7457(3) 0.5913(2) 0.87062(17)
H54_5 H 0.752035 0.584327 0.846906
C59_5 C 0.7127(3) 0.6276(3) 0.87429(19)
H55_5 H 0.697855 0.645137 0.852915
C60_5 C 0.7010(3) 0.6388(3) 0.90865(19)
C61_5 C 0.7222(4) 0.6114(3) 0.9389(2)
H56_5 H 0.713356 0.617045 0.962066
C62_5 C 0.7568(3) 0.5750(3) 0.93642(19)
H57_5 H 0.771367 0.557224 0.957772
C63_5 C 0.6625(3) 0.6768(2) 0.91105(18)
C64_5 C 0.6265(3) 0.6912(3) 0.87863(15)
H58_5 H 0.624865 0.676037 0.855632
C65_5 C 0.5929(3) 0.7283(3) 0.88060(16)
H59_5 H 0.568814 0.737902 0.858917
C66_5 C 0.5953(3) 0.7510(2) 0.91498(18)
C67_5 C 0.6314(3) 0.7366(2) 0.94739(15)
H60_5 H 0.632983 0.751759 0.970397
C68_5 C 0.6649(3) 0.6995(3) 0.94543(15)
C69_5 C 0.5621(3) 0.7927(2) 0.91702(19)
C70_5 C 0.5407(2) 0.8182(2) 0.88480(17)
H61_5 H 0.549237 0.810195 0.861984
C71_5 C 0.5073(2) 0.85486(19) 0.88542(15)
H62_5 H 0.492714 0.870717 0.863069
C72_5 C 0.49521(19) 0.86841(18) 0.91932(15)
C73_5 C 0.5183(3) 0.8444(2) 0.95256(17)
H63_5 H 0.511470 0.853404 0.975702
C74_5 C 0.5508(3) 0.8075(3) 0.95091(19)
H64_5 H 0.566001 0.791836 0.973239
C75_5 C 0.45783(17) 0.90769(16) 0.92002(13)
C76_5 C 0.7119(8) 0.6961(10) 0.9780(6)
N5_5 N 0.7719(6) 0.2038(9) 0.9198(5)
H83_5 H 0.762421 0.215258 0.897319
N6_5 N 0.9420(5) 0.2025(7) 0.9533(3)
O1_3 O 0.44427(13) 0.02292(11) 0.94752(9)
O2_3 O 0.42540(15) 0.02096(12) 0.88415(10)
O6_5 O 0.83308(13) 0.51205(12) 0.93045(10)
O7_5 O 0.81472(15) 0.51735(13) 0.86738(10)
O8_5 O 0.84518(13) 0.41640(11) 0.94345(9)
O9_5 O 0.82372(13) 0.41908(12) 0.88002(9)
O10_5 O 0.7489(7) 0.1686(8) 0.9693(5)
O11_5 O 0.9951(6) 0.1979(5) 0.9622(4)
O12_3 O 0.43318(14) 0.92280(13) 0.88817(9)
O13_3 O 0.45347(12) 0.92326(12) 0.95154(9)
O14_5 O 0.7570(4) 0.6984(7) 0.9787(4)
Zn1_3 Zn 0.89609(2) 0.47027(2) 0.95344(2)
Zn2_2 Zn 0.87267(2) 0.46900(2) 0.87069(2)
C86_5 C 0.9312(10) 0.2710(9) 0.9958(8)
H87_5 H 0.918481 0.290398 0.974002
N9_3 N 0.87524(15) 0.46703(13) 0.81520(11)
O15_3 O 0.94427(13) 0.52292(11) 0.94752(9)
O16_3 O 0.92540(15) 0.52096(12) 0.88415(10)
O17_3 O 0.93318(14) 0.42280(13) 0.88817(9)
O18_3 O 0.95347(12) 0.42326(12) 0.95154(9)
Zn4_2 Zn 0.39609(2) 0.97027(2) 0.95344(2)
Zn6_2 Zn 0.37267(2) 0.96900(2) 0.87069(2)
C11_6 C 0.43359(19) 0.01674(19) 0.06808(13)
H7_6 H 0.458902 0.036320 0.082343
C12_6 C 0.43239(18) 0.00987(19) 0.03075(13)
H8_6 H 0.456654 0.025320 0.019916
C13_6 C 0.3973(2) 0.0025(2) 0.12503(15)
C14_6 C 0.4132(2) 0.0438(2) 0.14358(15)
H9_6 H 0.427363 0.066839 0.130748
C15_6 C 0.4090(2) 0.0527(2) 0.18014(14)
C16_6 C 0.3888(3) 0.0188(2) 0.20015(15)
C19_6 C 0.3841(2) 0.0250(2) 0.24000(14)
C20_6 C 0.4247(2) 0.0433(2) 0.26810(14)
H12_6 H 0.455708 0.053080 0.262080
C21_6 C 0.4185(2) 0.04648(19) 0.30433(14)
H13_6 H 0.445936 0.058802 0.322662
C22_6 C 0.3356(2) 0.0163(2) 0.28788(15)
H14_6 H 0.305066 0.006695 0.294677
C23_6 C 0.3383(3) 0.0129(3) 0.25108(16)
H15_6 H 0.309386 0.002416 0.233055
C24_6 C 0.4238(3) 0.1017(2) 0.19702(14)
C25_6 C 0.3911(4) 0.1636(3) 0.2314(2)
H16_6 H 0.427069 0.166077 0.246504
C26_6 C 0.3525(5) 0.1586(3) 0.2559(3)
H17_6 H 0.359475 0.129239 0.269551
H18_6 H 0.317773 0.156324 0.239471
C27_6 C 0.3514(5) 0.1968(3) 0.2847(2)
C28_6 C 0.3788(7) 0.2517(3) 0.2381(4)
C29_6 C 0.3726(7) 0.2085(3) 0.2119(3)
H19_6 H 0.335931 0.205196 0.199500
H20_6 H 0.391854 0.213984 0.192338
C30_6 C 0.2910(5) 0.1959(7) 0.2916(4)
H21_6 H 0.283817 0.165662 0.300661
H22_6 H 0.287657 0.219235 0.309974
H23_6 H 0.266553 0.202370 0.268019
C31_6 C 0.3835(5) 0.1872(5) 0.3254(3)
H24_6 H 0.376303 0.156076 0.332888
H25_6 H 0.420161 0.190122 0.326072
H26_6 H 0.373887 0.209298 0.342659
C32_6 C 0.4362(6) 0.2655(8) 0.2566(6)
H27_6 H 0.454416 0.273031 0.237149
H28_6 H 0.436242 0.292241 0.272735
H29_6 H 0.453392 0.239875 0.271523
C33_6 C 0.3515(10) 0.2928(4) 0.2161(5)
H30_6 H 0.365510 0.297971 0.194089
H31_6 H 0.314681 0.286477 0.208370
H32_6 H 0.357054 0.320117 0.231947
C77_6 C 0.2305(6) 0.1814(6) 0.0451(3)
H65_6 H 0.261915 0.200508 0.046602
C78_6 C 0.1990(6) 0.1917(6) 0.0761(3)
H66_6 H 0.174883 0.166245 0.077132
H67_6 H 0.178755 0.220142 0.069798
C79_6 C 0.2391(7) 0.1975(8) 0.1168(4)
C80_6 C 0.2783(6) 0.1205(6) 0.0926(4)
C81_6 C 0.2411(7) 0.1270(5) 0.0549(3)
H68_6 H 0.208222 0.111614 0.055119
H69_6 H 0.255667 0.112493 0.035259
C82_6 C 0.2759(6) 0.0642(6) 0.1017(6)
H70_6 H 0.288950 0.046741 0.083089
H71_6 H 0.296953 0.057714 0.126537
H72_6 H 0.240250 0.055221 0.100698
C83_6 C 0.3321(7) 0.1282(7) 0.0779(7)
H73_6 H 0.332506 0.107181 0.057270
H74_6 H 0.333657 0.159817 0.069482
H75_6 H 0.361694 0.121955 0.098392
C84_6 C 0.1987(7) 0.1865(10) 0.1450(4)
H76_6 H 0.217492 0.188716 0.171009
H77_6 H 0.170721 0.208927 0.140227
H78_6 H 0.184568 0.155638 0.140015
C85_6 C 0.2866(8) 0.2401(8) 0.1266(6)
H79_6 H 0.305931 0.237019 0.152460
H80_6 H 0.310069 0.236575 0.109841
H81_6 H 0.270455 0.270314 0.123001
N2_4 N 0.37524(15) 0.03297(13) 0.31520(11)
N3_6 N 0.3849(2) 0.1250(2) 0.20623(13)
H82_6 H 0.353511 0.116041 0.196201
N4_6 N 0.3596(4) 0.2422(2) 0.2713(2)
N7_6 N 0.1921(6) 0.1864(7) 0.0120(3)
H84_6 H 0.159205 0.184135 0.011492
N8_6 N 0.2570(6) 0.1431(6) 0.1234(3)
O3_6 O 0.2744(5) 0.1277(6) 0.1586(3)
O4_6 O 0.4694(2) 0.11440(16) 0.20295(12)
O5_6 O 0.3531(3) 0.2771(2) 0.2918(2)
Zn7_4 Zn 0.37267(2) 0.03100(2) 0.37069(2)
H88_6 H 0.246639 0.131597 0.173067
H90_6 H 0.377693 0.274651 0.317035
C56_6 C 0.3088(2) 0.02904(18) 0.90024(15)
C57_6 C 0.2693(2) 0.0654(2) 0.90165(15)
C58_6 C 0.2457(3) 0.0913(2) 0.87062(17)
H54_6 H 0.252035 0.084327 0.846906
C59_6 C 0.2127(3) 0.1276(3) 0.87429(19)
H55_6 H 0.197855 0.145137 0.852915
C60_6 C 0.2010(3) 0.1388(3) 0.90865(19)
C61_6 C 0.2222(4) 0.1114(3) 0.9389(2)
H56_6 H 0.213356 0.117045 0.962066
C62_6 C 0.2568(3) 0.0750(3) 0.93642(19)
H57_6 H 0.271367 0.057224 0.957772
C63_6 C 0.1625(3) 0.1768(2) 0.91105(18)
C64_6 C 0.1265(3) 0.1912(3) 0.87863(15)
H58_6 H 0.124865 0.176037 0.855632
C65_6 C 0.0929(3) 0.2283(3) 0.88060(16)
H59_6 H 0.068814 0.237902 0.858917
C66_6 C 0.0953(3) 0.2510(2) 0.91498(18)
C67_6 C 0.1314(3) 0.2366(2) 0.94739(15)
H60_6 H 0.132983 0.251759 0.970397
C68_6 C 0.1649(3) 0.1995(3) 0.94543(15)
C69_6 C 0.0621(3) 0.2927(2) 0.91702(19)
C70_6 C 0.0407(2) 0.3182(2) 0.88480(17)
H61_6 H 0.049237 0.310195 0.861984
C71_6 C 0.0073(2) 0.35486(19) 0.88542(15)
C73_6 C 0.0183(3) 0.3444(2) 0.95256(17)
H63_6 H 0.011470 0.353404 0.975702
C74_6 C 0.0508(3) 0.3075(3) 0.95091(19)
H64_6 H 0.066001 0.291836 0.973239
C76_6 C 0.2119(8) 0.1961(10) 0.9780(6)
O6_6 O 0.33308(13) 0.01205(12) 0.93045(10)
O7_6 O 0.31472(15) 0.01735(13) 0.86738(10)
O14_6 O 0.2570(4) 0.1984(7) 0.9787(4)
C1_6 C 0.0549(3) 0.6501(2) 0.9127(2)
C3_6 C 0.0483(2) 0.6333(2) 0.94710(19)
H2_6 H 0.067628 0.645925 0.969637
C4_6 C 0.0273(3) 0.6296(3) 0.8792(2)
H3_6 H 0.032293 0.639952 0.855918
C5_6 C 0.0131(2) 0.59775(18) 0.94824(16)
H4_6 H 0.008011 0.587208 0.971500
C34_6 C 0.31926(19) 0.90372(17) 0.91200(14)
C35_6 C 0.2795(2) 0.8660(2) 0.91105(16)
C36_6 C 0.2510(3) 0.8482(2) 0.87675(17)
H33_6 H 0.256906 0.859226 0.853863
C37_6 C 0.2144(3) 0.8143(3) 0.8769(2)
H34_6 H 0.193982 0.803691 0.853993
C38_6 C 0.2072(3) 0.7955(3) 0.9104(2)
C39_6 C 0.2349(3) 0.8133(3) 0.9440(2)
H35_6 H 0.229702 0.801285 0.966738
C40_6 C 0.2701(3) 0.8482(3) 0.94447(19)
H36_6 H 0.288060 0.860390 0.967622
C41_6 C 0.1675(4) 0.7561(3) 0.9086(3)
C42_6 C 0.1198(3) 0.7582(3) 0.8853(3)
H37_6 H 0.111547 0.783459 0.868912
C43_6 C 0.0823(3) 0.7239(3) 0.8849(3)
H38_6 H 0.049986 0.725259 0.867833
C44_6 C 0.0949(3) 0.6867(3) 0.9115(2)
C45_6 C 0.1445(3) 0.6841(4) 0.9322(3)
H39_6 H 0.153814 0.658095 0.947668
C46_6 C 0.1814(3) 0.7166(4) 0.9321(3)
C47_6 C 0.2338(8) 0.6959(12) 0.9380(7)
C48_6 C 0.3260(5) 0.6955(10) 0.9333(5)
H40_6 H 0.330283 0.661762 0.937601
C49_6 C 0.3590(5) 0.7087(9) 0.9059(5)
H41_6 H 0.361016 0.742527 0.904999
H42_6 H 0.341570 0.697981 0.880776
C50_6 C 0.4151(5) 0.6889(7) 0.9155(4)
C51_6 C 0.4139(6) 0.7056(8) 0.9825(4)
C52_6 C 0.3568(5) 0.7188(8) 0.9676(5)
H43_6 H 0.338811 0.713469 0.987994
H44_6 H 0.355475 0.752155 0.962696
C53_6 C 0.4419(8) 0.7056(10) 0.8831(5)
H45_6 H 0.421630 0.695194 0.859000
H46_6 H 0.443948 0.739101 0.883273
H47_6 H 0.476569 0.692706 0.887292
C54_6 C 0.4161(11) 0.6319(7) 0.9107(7)
H48_6 H 0.398077 0.623455 0.885415
H49_6 H 0.451769 0.621318 0.915206
H50_6 H 0.399104 0.617497 0.928715
H52_6 H 0.393815 0.637236 0.991767
N5_6 N 0.2719(6) 0.7038(9) 0.9198(5)
H83_6 H 0.262421 0.715258 0.897319
N6_6 N 0.4420(5) 0.7025(7) 0.9533(3)
O8_6 O 0.34518(13) 0.91640(11) 0.94345(9)
O9_6 O 0.32372(13) 0.91908(12) 0.88002(9)
O10_6 O 0.2489(7) 0.6686(8) 0.9693(5)
O11_6 O 0.4951(6) 0.6979(5) 0.9622(4)
C86_6 C 0.4312(10) 0.7710(9) 0.9958(8)
H87_6 H 0.418481 0.790398 0.974002
N9_4 N 0.37524(15) 0.96703(13) 0.81520(11)
H89_5 H 0.510414 0.717412 0.944713
H62_6 H 0.992714 0.370717 0.863069
C72_6 C 0.99521(19) 0.36841(18) 0.91932(15)
C75_6 C 0.95783(17) 0.40769(16) 0.92002(13)
C2_6 C 0.9929(3) 0.5942(2) 0.88072(17)
H1_6 H 0.974199 0.581010 0.858169
C6_6 C 0.9851(2) 0.57763(18) 0.91464(14)
C7_6 C 0.94857(19) 0.53755(16) 0.91542(14)
Zn3_2 Zn 0.39609(2) 0.02973(2) 0.45344(2)
C1_7 C 0.5549(3) 0.8499(2) 0.4127(2)
C2_7 C 0.4929(3) 0.9058(2) 0.38072(17)
H1_7 H 0.474199 0.918990 0.358169
C3_7 C 0.5483(2) 0.8667(2) 0.44710(19)
H2_7 H 0.567628 0.854075 0.469637
C4_7 C 0.5273(3) 0.8704(3) 0.3792(2)
H3_7 H 0.532293 0.860048 0.355918
C5_7 C 0.5131(2) 0.90225(18) 0.44824(16)
H4_7 H 0.508011 0.912792 0.471500
C6_7 C 0.4851(2) 0.92237(18) 0.41464(14)
C7_7 C 0.44857(19) 0.96245(16) 0.41542(14)
C8_5 C 0.8624(2) 0.5396(2) 0.52481(15)
H5_5 H 0.837438 0.558988 0.510001
C9_5 C 0.8616(2) 0.5338(2) 0.56220(16)
H6_5 H 0.836641 0.549311 0.572242
C10_5 C 0.8978(2) 0.5049(2) 0.58526(15)
C11_7 C 0.93359(19) 0.48326(19) 0.56808(13)
H7_7 H 0.958902 0.463680 0.582343
C12_7 C 0.93239(18) 0.49013(19) 0.53075(13)
H8_7 H 0.956654 0.474680 0.519916
C13_7 C 0.8973(2) 0.4975(2) 0.62503(15)
C14_7 C 0.9132(2) 0.4562(2) 0.64358(15)
H9_7 H 0.927363 0.433161 0.630748
C15_7 C 0.9090(2) 0.4473(2) 0.68014(14)
C16_7 C 0.8888(3) 0.4812(2) 0.70015(15)
C17_5 C 0.8752(3) 0.5249(3) 0.68312(17)
H10_5 H 0.863799 0.548942 0.696628
C18_5 C 0.8790(3) 0.5317(2) 0.64611(17)
H11_5 H 0.868927 0.560367 0.634712
C19_7 C 0.8841(2) 0.4750(2) 0.74000(14)
C20_7 C 0.9247(2) 0.4567(2) 0.76810(14)
H12_7 H 0.955708 0.446920 0.762080
C21_7 C 0.9185(2) 0.45352(19) 0.80433(14)
H13_7 H 0.945936 0.441198 0.822662
C22_7 C 0.8356(2) 0.4837(2) 0.78788(15)
H14_7 H 0.805066 0.493305 0.794677
C23_7 C 0.8383(3) 0.4871(3) 0.75108(16)
H15_7 H 0.809386 0.497584 0.733055
C24_7 C 0.9238(3) 0.3983(2) 0.69702(14)
C25_7 C 0.8911(4) 0.3364(3) 0.7314(2)
H16_7 H 0.927069 0.333923 0.746504
C26_7 C 0.8525(5) 0.3414(3) 0.7559(3)
H17_7 H 0.859475 0.370761 0.769551
H18_7 H 0.817773 0.343676 0.739471
C27_7 C 0.8514(5) 0.3032(3) 0.7847(2)
C28_7 C 0.8788(7) 0.2483(3) 0.7381(4)
C29_7 C 0.8726(7) 0.2915(3) 0.7119(3)
H19_7 H 0.835931 0.294804 0.699500
H20_7 H 0.891854 0.286016 0.692338
C30_7 C 0.7910(5) 0.3041(7) 0.7916(4)
H21_7 H 0.783817 0.334338 0.800661
H22_7 H 0.787657 0.280765 0.809974
H23_7 H 0.766553 0.297630 0.768019
C31_7 C 0.8835(5) 0.3128(5) 0.8254(3)
H24_7 H 0.876303 0.343924 0.832888
H25_7 H 0.920161 0.309878 0.826072
H26_7 H 0.873887 0.290702 0.842659
C32_7 C 0.9362(6) 0.2345(8) 0.7566(6)
H27_7 H 0.954416 0.226969 0.737149
H28_7 H 0.936242 0.207759 0.772735
H29_7 H 0.953392 0.260125 0.771523
C33_7 C 0.8515(10) 0.2072(4) 0.7161(5)
H30_7 H 0.865510 0.202029 0.694089
H31_7 H 0.814681 0.213523 0.708370
H32_7 H 0.857054 0.179883 0.731947
C34_7 C 0.81926(19) 0.59628(17) 0.41200(14)
C35_7 C 0.7795(2) 0.6340(2) 0.41105(16)
C36_7 C 0.7510(3) 0.6518(2) 0.37675(17)
H33_7 H 0.756906 0.640774 0.353863
C37_7 C 0.7144(3) 0.6857(3) 0.3769(2)
H34_7 H 0.693982 0.696309 0.353993
C38_7 C 0.7072(3) 0.7045(3) 0.4104(2)
C39_7 C 0.7349(3) 0.6867(3) 0.4440(2)
H35_7 H 0.729702 0.698715 0.466738
C40_7 C 0.7701(3) 0.6518(3) 0.44447(19)
H36_7 H 0.788060 0.639610 0.467622
C41_7 C 0.6675(4) 0.7439(3) 0.4086(3)
C42_7 C 0.6198(3) 0.7418(3) 0.3853(3)
H37_7 H 0.611547 0.716541 0.368912
C43_7 C 0.5823(3) 0.7761(3) 0.3849(3)
H38_7 H 0.549986 0.774741 0.367833
C44_7 C 0.5949(3) 0.8133(3) 0.4115(2)
C45_7 C 0.6445(3) 0.8159(4) 0.4322(3)
H39_7 H 0.653814 0.841905 0.447668
C46_7 C 0.6814(3) 0.7834(4) 0.4321(3)
C47_7 C 0.7338(8) 0.8041(12) 0.4380(7)
C48_7 C 0.8260(5) 0.8045(10) 0.4333(5)
H40_7 H 0.830283 0.838238 0.437601
C49_7 C 0.8590(5) 0.7913(9) 0.4059(5)
H41_7 H 0.861016 0.757473 0.404999
H42_7 H 0.841570 0.802019 0.380776
C50_7 C 0.9151(5) 0.8111(7) 0.4155(4)
C51_7 C 0.9139(6) 0.7944(8) 0.4825(4)
C52_7 C 0.8568(5) 0.7812(8) 0.4676(5)
H43_7 H 0.838811 0.786531 0.487994
H44_7 H 0.855475 0.747845 0.462696
C53_7 C 0.9419(8) 0.7944(10) 0.3831(5)
H45_7 H 0.921630 0.804806 0.359000
H46_7 H 0.943948 0.760899 0.383273
H47_7 H 0.976569 0.807294 0.387292
C54_7 C 0.9161(11) 0.8681(7) 0.4107(7)
H48_7 H 0.898077 0.876545 0.385415
H49_7 H 0.951769 0.878682 0.415206
H50_7 H 0.899104 0.882503 0.428715
C55_5 C 0.9104(6) 0.8375(8) 0.5075(5)
H51_5 H 0.890246 0.829860 0.525790
H52_7 H 0.893815 0.862764 0.491767
H53_5 H 0.945046 0.846822 0.520486
C56_7 C 0.8088(2) 0.47096(18) 0.40024(15)
C57_7 C 0.7693(2) 0.4346(2) 0.40165(15)
C58_7 C 0.7457(3) 0.4087(2) 0.37062(17)
H54_7 H 0.752035 0.415673 0.346906
C59_7 C 0.7127(3) 0.3724(3) 0.37429(19)
H55_7 H 0.697855 0.354863 0.352915
C60_7 C 0.7010(3) 0.3612(3) 0.40865(19)
C61_7 C 0.7222(4) 0.3886(3) 0.4389(2)
H56_7 H 0.713356 0.382955 0.462066
C62_7 C 0.7568(3) 0.4250(3) 0.43642(19)
H57_7 H 0.771367 0.442776 0.457772
C63_7 C 0.6625(3) 0.3232(2) 0.41105(18)
C64_7 C 0.6265(3) 0.3088(3) 0.37863(15)
H58_7 H 0.624865 0.323963 0.355632
C65_7 C 0.5929(3) 0.2717(3) 0.38060(16)
H59_7 H 0.568814 0.262098 0.358917
C66_7 C 0.5953(3) 0.2490(2) 0.41498(18)
C67_7 C 0.6314(3) 0.2634(2) 0.44739(15)
H60_7 H 0.632983 0.248241 0.470397
C68_7 C 0.6649(3) 0.3005(3) 0.44543(15)
C69_7 C 0.5621(3) 0.2073(2) 0.41702(19)
C70_7 C 0.5407(2) 0.1818(2) 0.38480(17)
H61_7 H 0.549237 0.189805 0.361984
C71_7 C 0.5073(2) 0.14514(19) 0.38542(15)
H62_7 H 0.492714 0.129283 0.363069
C72_7 C 0.49521(19) 0.13159(18) 0.41932(15)
C73_7 C 0.5183(3) 0.1556(2) 0.45256(17)
H63_7 H 0.511470 0.146596 0.475702
C74_7 C 0.5508(3) 0.1925(3) 0.45091(19)
H64_7 H 0.566001 0.208164 0.473239
C75_7 C 0.45783(17) 0.09231(16) 0.42002(13)
C76_7 C 0.7119(8) 0.3039(10) 0.4780(6)
C77_7 C 0.7305(6) 0.3186(6) 0.5451(3)
H65_7 H 0.761915 0.299492 0.546602
C78_7 C 0.6990(6) 0.3083(6) 0.5761(3)
H66_7 H 0.674883 0.333755 0.577132
H67_7 H 0.678755 0.279858 0.569798
C79_7 C 0.7391(7) 0.3025(8) 0.6168(4)
C80_7 C 0.7783(6) 0.3795(6) 0.5926(4)
C81_7 C 0.7411(7) 0.3730(5) 0.5549(3)
H68_7 H 0.708222 0.388386 0.555119
H69_7 H 0.755667 0.387507 0.535259
C82_7 C 0.7759(6) 0.4358(6) 0.6017(6)
H70_7 H 0.788950 0.453259 0.583089
H71_7 H 0.796953 0.442286 0.626537
H72_7 H 0.740250 0.444779 0.600698
C83_7 C 0.8321(7) 0.3718(7) 0.5779(7)
H73_7 H 0.832506 0.392819 0.557270
H74_7 H 0.833657 0.340183 0.569482
H75_7 H 0.861694 0.378045 0.598392
C84_7 C 0.6987(7) 0.3135(10) 0.6450(4)
H76_7 H 0.717492 0.311284 0.671009
H77_7 H 0.670721 0.291073 0.640227
H78_7 H 0.684568 0.344362 0.640015
C85_7 C 0.7866(8) 0.2599(8) 0.6266(6)
H79_7 H 0.805931 0.262981 0.652460
H80_7 H 0.810069 0.263425 0.609841
H81_7 H 0.770455 0.229686 0.623001
N1_5 N 0.89682(15) 0.51891(14) 0.50871(11)
N3_7 N 0.8849(2) 0.3750(2) 0.70623(13)
H82_7 H 0.853511 0.383959 0.696201
N4_7 N 0.8596(4) 0.2578(2) 0.7713(2)
N5_7 N 0.7719(6) 0.7962(9) 0.4198(5)
H83_7 H 0.762421 0.784742 0.397319
N6_7 N 0.9420(5) 0.7975(7) 0.4533(3)
N7_7 N 0.6921(6) 0.3136(7) 0.5120(3)
H84_7 H 0.659205 0.315865 0.511492
N8_7 N 0.7570(6) 0.3569(6) 0.6234(3)
O1_4 O 0.44427(13) 0.97708(11) 0.44752(9)
O2_4 O 0.42540(15) 0.97904(12) 0.38415(10)
O3_7 O 0.7744(5) 0.3723(6) 0.6586(3)
O4_7 O 0.9694(2) 0.38560(16) 0.70295(12)
O5_7 O 0.8531(3) 0.2229(2) 0.7918(2)
O6_7 O 0.83308(13) 0.48795(12) 0.43045(10)
O7_7 O 0.81472(15) 0.48265(13) 0.36738(10)
O8_7 O 0.84518(13) 0.58360(11) 0.44345(9)
O9_7 O 0.82372(13) 0.58092(12) 0.38002(9)
O10_7 O 0.7489(7) 0.8314(8) 0.4693(5)
O11_7 O 0.9951(6) 0.8021(5) 0.4622(4)
O12_4 O 0.43318(14) 0.07720(13) 0.38817(9)
O13_4 O 0.45347(12) 0.07674(12) 0.45154(9)
O14_7 O 0.7570(4) 0.3016(7) 0.4787(4)
Zn1_4 Zn 0.89609(2) 0.52973(2) 0.45344(2)
C86_7 C 0.9312(10) 0.7290(9) 0.4958(8)
H85_5 H 0.915073 0.719742 0.516023
H86_5 H 0.968512 0.725689 0.503898
H87_7 H 0.918481 0.709602 0.474002
O15_4 O 0.94427(13) 0.47708(11) 0.44752(9)
O16_4 O 0.92540(15) 0.47904(12) 0.38415(10)
O17_4 O 0.93318(14) 0.57720(13) 0.38817(9)
O18_4 O 0.95347(12) 0.57674(12) 0.45154(9)
H88_7 H 0.746639 0.368403 0.673067
H90_7 H 0.877693 0.225349 0.817035
C1_8 C 0.0549(3) 0.3499(2) 0.4127(2)
C3_8 C 0.0483(2) 0.3667(2) 0.44710(19)
H2_8 H 0.067628 0.354075 0.469637
C4_8 C 0.0273(3) 0.3704(3) 0.3792(2)
H3_8 H 0.032293 0.360048 0.355918
C5_8 C 0.0131(2) 0.40225(18) 0.44824(16)
H4_8 H 0.008011 0.412792 0.471500
C8_6 C 0.3624(2) 0.0396(2) 0.52481(15)
H5_6 H 0.337438 0.058988 0.510001
C9_6 C 0.3616(2) 0.0338(2) 0.56220(16)
H6_6 H 0.336641 0.049311 0.572242
C10_6 C 0.3978(2) 0.0049(2) 0.58526(15)
C17_6 C 0.3752(3) 0.0249(3) 0.68312(17)
H10_6 H 0.363799 0.048942 0.696628
C18_6 C 0.3790(3) 0.0317(2) 0.64611(17)
H11_6 H 0.368927 0.060367 0.634712
C34_8 C 0.31926(19) 0.09628(17) 0.41200(14)
C35_8 C 0.2795(2) 0.1340(2) 0.41105(16)
C36_8 C 0.2510(3) 0.1518(2) 0.37675(17)
H33_8 H 0.256906 0.140774 0.353863
C37_8 C 0.2144(3) 0.1857(3) 0.3769(2)
H34_8 H 0.193982 0.196309 0.353993
C38_8 C 0.2072(3) 0.2045(3) 0.4104(2)
C39_8 C 0.2349(3) 0.1867(3) 0.4440(2)
H35_8 H 0.229702 0.198715 0.466738
C40_8 C 0.2701(3) 0.1518(3) 0.44447(19)
H36_8 H 0.288060 0.139610 0.467622
C41_8 C 0.1675(4) 0.2439(3) 0.4086(3)
C42_8 C 0.1198(3) 0.2418(3) 0.3853(3)
H37_8 H 0.111547 0.216541 0.368912
C43_8 C 0.0823(3) 0.2761(3) 0.3849(3)
H38_8 H 0.049986 0.274741 0.367833
C44_8 C 0.0949(3) 0.3133(3) 0.4115(2)
C45_8 C 0.1445(3) 0.3159(4) 0.4322(3)
H39_8 H 0.153814 0.341905 0.447668
C46_8 C 0.1814(3) 0.2834(4) 0.4321(3)
C47_8 C 0.2338(8) 0.3041(12) 0.4380(7)
C48_8 C 0.3260(5) 0.3045(10) 0.4333(5)
H40_8 H 0.330283 0.338238 0.437601
C49_8 C 0.3590(5) 0.2913(9) 0.4059(5)
H41_8 H 0.361016 0.257473 0.404999
H42_8 H 0.341570 0.302019 0.380776
C50_8 C 0.4151(5) 0.3111(7) 0.4155(4)
C51_8 C 0.4139(6) 0.2944(8) 0.4825(4)
C52_8 C 0.3568(5) 0.2812(8) 0.4676(5)
H43_8 H 0.338811 0.286531 0.487994
H44_8 H 0.355475 0.247845 0.462696
C53_8 C 0.4419(8) 0.2944(10) 0.3831(5)
H45_8 H 0.421630 0.304806 0.359000
H46_8 H 0.443948 0.260899 0.383273
H47_8 H 0.476569 0.307294 0.387292
C54_8 C 0.4161(11) 0.3681(7) 0.4107(7)
H48_8 H 0.398077 0.376545 0.385415
H49_8 H 0.451769 0.378682 0.415206
H50_8 H 0.399104 0.382503 0.428715
C55_6 C 0.4104(6) 0.3375(8) 0.5075(5)
H51_6 H 0.390246 0.329860 0.525790
H52_8 H 0.393815 0.362764 0.491767
H53_6 H 0.445046 0.346822 0.520486
N1_6 N 0.39682(15) 0.01891(14) 0.50871(11)
N5_8 N 0.2719(6) 0.2962(9) 0.4198(5)
H83_8 H 0.262421 0.284742 0.397319
N6_8 N 0.4420(5) 0.2975(7) 0.4533(3)
O8_8 O 0.34518(13) 0.08360(11) 0.44345(9)
O9_8 O 0.32372(13) 0.08092(12) 0.38002(9)
O10_8 O 0.2489(7) 0.3314(8) 0.4693(5)
O11_8 O 0.4951(6) 0.3021(5) 0.4622(4)
C86_8 C 0.4312(10) 0.2290(9) 0.4958(8)
H85_6 H 0.415073 0.219742 0.516023
H86_6 H 0.468512 0.225689 0.503898
H87_8 H 0.418481 0.209602 0.474002
H89_6 H 0.510414 0.282588 0.444713
C11_8 C 0.43359(19) 0.98326(19) 0.56808(13)
H7_8 H 0.458902 0.963680 0.582343
C12_8 C 0.43239(18) 0.99013(19) 0.53075(13)
H8_8 H 0.456654 0.974680 0.519916
C13_8 C 0.3973(2) 0.9975(2) 0.62503(15)
C14_8 C 0.4132(2) 0.9562(2) 0.64358(15)
H9_8 H 0.427363 0.933161 0.630748
C15_8 C 0.4090(2) 0.9473(2) 0.68014(14)
C16_8 C 0.3888(3) 0.9812(2) 0.70015(15)
C19_8 C 0.3841(2) 0.9750(2) 0.74000(14)
C20_8 C 0.4247(2) 0.9567(2) 0.76810(14)
H12_8 H 0.455708 0.946920 0.762080
C21_8 C 0.4185(2) 0.95352(19) 0.80433(14)
H13_8 H 0.445936 0.941198 0.822662
C22_8 C 0.3356(2) 0.9837(2) 0.78788(15)
H14_8 H 0.305066 0.993305 0.794677
C23_8 C 0.3383(3) 0.9871(3) 0.75108(16)
H15_8 H 0.309386 0.997584 0.733055
C24_8 C 0.4238(3) 0.8983(2) 0.69702(14)
C25_8 C 0.3911(4) 0.8364(3) 0.7314(2)
H16_8 H 0.427069 0.833923 0.746504
C26_8 C 0.3525(5) 0.8414(3) 0.7559(3)
H17_8 H 0.359475 0.870761 0.769551
H18_8 H 0.317773 0.843676 0.739471
C27_8 C 0.3514(5) 0.8032(3) 0.7847(2)
C28_8 C 0.3788(7) 0.7483(3) 0.7381(4)
C29_8 C 0.3726(7) 0.7915(3) 0.7119(3)
H19_8 H 0.335931 0.794804 0.699500
H20_8 H 0.391854 0.786016 0.692338
C30_8 C 0.2910(5) 0.8041(7) 0.7916(4)
H21_8 H 0.283817 0.834338 0.800661
H22_8 H 0.287657 0.780765 0.809974
H23_8 H 0.266553 0.797630 0.768019
C31_8 C 0.3835(5) 0.8128(5) 0.8254(3)
H24_8 H 0.376303 0.843924 0.832888
H25_8 H 0.420161 0.809878 0.826072
H26_8 H 0.373887 0.790702 0.842659
C32_8 C 0.4362(6) 0.7345(8) 0.7566(6)
H27_8 H 0.454416 0.726969 0.737149
H28_8 H 0.436242 0.707759 0.772735
H29_8 H 0.453392 0.760125 0.771523
C33_8 C 0.3515(10) 0.7072(4) 0.7161(5)
H30_8 H 0.365510 0.702029 0.694089
H31_8 H 0.314681 0.713523 0.708370
H32_8 H 0.357054 0.679883 0.731947
C56_8 C 0.3088(2) 0.97096(18) 0.40024(15)
C57_8 C 0.2693(2) 0.9346(2) 0.40165(15)
C58_8 C 0.2457(3) 0.9087(2) 0.37062(17)
H54_8 H 0.252035 0.915673 0.346906
C59_8 C 0.2127(3) 0.8724(3) 0.37429(19)
H55_8 H 0.197855 0.854863 0.352915
C60_8 C 0.2010(3) 0.8612(3) 0.40865(19)
C61_8 C 0.2222(4) 0.8886(3) 0.4389(2)
H56_8 H 0.213356 0.882955 0.462066
C62_8 C 0.2568(3) 0.9250(3) 0.43642(19)
H57_8 H 0.271367 0.942776 0.457772
C63_8 C 0.1625(3) 0.8232(2) 0.41105(18)
C64_8 C 0.1265(3) 0.8088(3) 0.37863(15)
H58_8 H 0.124865 0.823963 0.355632
C65_8 C 0.0929(3) 0.7717(3) 0.38060(16)
H59_8 H 0.068814 0.762098 0.358917
C66_8 C 0.0953(3) 0.7490(2) 0.41498(18)
C67_8 C 0.1314(3) 0.7634(2) 0.44739(15)
H60_8 H 0.132983 0.748241 0.470397
C68_8 C 0.1649(3) 0.8005(3) 0.44543(15)
C69_8 C 0.0621(3) 0.7073(2) 0.41702(19)
C70_8 C 0.0407(2) 0.6818(2) 0.38480(17)
H61_8 H 0.049237 0.689805 0.361984
C71_8 C 0.0073(2) 0.64514(19) 0.38542(15)
C73_8 C 0.0183(3) 0.6556(2) 0.45256(17)
H63_8 H 0.011470 0.646596 0.475702
C74_8 C 0.0508(3) 0.6925(3) 0.45091(19)
H64_8 H 0.066001 0.708164 0.473239
C76_8 C 0.2119(8) 0.8039(10) 0.4780(6)
C77_8 C 0.2305(6) 0.8186(6) 0.5451(3)
H65_8 H 0.261915 0.799492 0.546602
C78_8 C 0.1990(6) 0.8083(6) 0.5761(3)
H66_8 H 0.174883 0.833755 0.577132
H67_8 H 0.178755 0.779858 0.569798
C79_8 C 0.2391(7) 0.8025(8) 0.6168(4)
C80_8 C 0.2783(6) 0.8795(6) 0.5926(4)
C81_8 C 0.2411(7) 0.8730(5) 0.5549(3)
H68_8 H 0.208222 0.888386 0.555119
H69_8 H 0.255667 0.887507 0.535259
C82_8 C 0.2759(6) 0.9358(6) 0.6017(6)
H70_8 H 0.288950 0.953259 0.583089
H71_8 H 0.296953 0.942286 0.626537
H72_8 H 0.240250 0.944779 0.600698
C83_8 C 0.3321(7) 0.8718(7) 0.5779(7)
H73_8 H 0.332506 0.892819 0.557270
H74_8 H 0.333657 0.840183 0.569482
H75_8 H 0.361694 0.878045 0.598392
C84_8 C 0.1987(7) 0.8135(10) 0.6450(4)
H76_8 H 0.217492 0.811284 0.671009
H77_8 H 0.170721 0.791073 0.640227
H78_8 H 0.184568 0.844362 0.640015
C85_8 C 0.2866(8) 0.7599(8) 0.6266(6)
H79_8 H 0.305931 0.762981 0.652460
H80_8 H 0.310069 0.763425 0.609841
H81_8 H 0.270455 0.729686 0.623001
N3_8 N 0.3849(2) 0.8750(2) 0.70623(13)
H82_8 H 0.353511 0.883959 0.696201
N4_8 N 0.3596(4) 0.7578(2) 0.7713(2)
N7_8 N 0.1921(6) 0.8136(7) 0.5120(3)
H84_8 H 0.159205 0.815865 0.511492
N8_8 N 0.2570(6) 0.8569(6) 0.6234(3)
O3_8 O 0.2744(5) 0.8723(6) 0.6586(3)
O4_8 O 0.4694(2) 0.88560(16) 0.70295(12)
O5_8 O 0.3531(3) 0.7229(2) 0.7918(2)
O6_8 O 0.33308(13) 0.98795(12) 0.43045(10)
O7_8 O 0.31472(15) 0.98265(13) 0.36738(10)
O14_8 O 0.2570(4) 0.8016(7) 0.4787(4)
H88_8 H 0.246639 0.868403 0.673067
H90_8 H 0.377693 0.725349 0.817035
C2_8 C 0.9929(3) 0.4058(2) 0.38072(17)
H1_8 H 0.974199 0.418990 0.358169
C6_8 C 0.9851(2) 0.42237(18) 0.41464(14)
C7_8 C 0.94857(19) 0.46245(16) 0.41542(14)
H62_8 H 0.992714 0.629283 0.363069
C72_8 C 0.99521(19) 0.63159(18) 0.41932(15)
C75_8 C 0.95783(17) 0.59231(16) 0.42002(13)
C8_7 C 0.3624(2) 0.9604(2) 0.02481(15)
H5_7 H 0.337438 0.941012 0.010001
C9_7 C 0.3616(2) 0.9662(2) 0.06220(16)
H6_7 H 0.336641 0.950689 0.072242
C10_7 C 0.3978(2) 0.9951(2) 0.08526(15)
C17_7 C 0.3752(3) 0.9751(3) 0.18312(17)
H10_7 H 0.363799 0.951058 0.196628
C18_7 C 0.3790(3) 0.9683(2) 0.14611(17)
H11_7 H 0.368927 0.939633 0.134712
C55_7 C 0.4104(6) 0.6625(8) 0.0075(5)
H51_7 H 0.390246 0.670140 0.025790
H53_7 H 0.445046 0.653178 0.020486
N1_7 N 0.39682(15) 0.98109(14) 0.00871(11)
H85_7 H 0.415073 0.780258 0.016023
H86_7 H 0.468512 0.774311 0.003898
H89_7 H 0.0104139 0.782588 0.444713
H89_8 H 0.989586 0.782588 0.0552871
C8_8 C 0.6376(2) 0.0396(2) 0.97519(15)
H5_8 H 0.662562 0.058988 0.989999
C9_8 C 0.6384(2) 0.0338(2) 0.93780(16)
H6_8 H 0.663359 0.049311 0.927758
C10_8 C 0.6022(2) 0.0049(2) 0.91474(15)
C17_8 C 0.6248(3) 0.0249(3) 0.81688(17)
H10_8 H 0.636201 0.048942 0.803372
C18_8 C 0.6210(3) 0.0317(2) 0.85389(17)
H11_8 H 0.631073 0.060367 0.865288
C55_8 C 0.5896(6) 0.3375(8) 0.9925(5)
H51_8 H 0.609754 0.329860 0.974210
H53_8 H 0.554954 0.346822 0.979514
N1_8 N 0.60318(15) 0.01891(14) 0.99129(11)
H85_8 H 0.584927 0.219742 0.983977
H86_8 H 0.531488 0.225689 0.996102
loop_
_geom_bond_atom_site_label_1
_geom_bond_atom_site_label_2
_geom_bond_site_symmetry_1
_geom_bond_site_symmetry_2
C1 C3 1_555 1_555
C2 H1 1_555 1_555
C3 H2 1_555 1_555
C4 C1 1_555 1_555
H3 C4 1_555 1_555
C5 C3 1_555 1_555
H4 C5 1_555 1_555
C6 C2 1_555 1_555
C7 C6 1_555 1_555
C8 H5 1_555 1_555
C9 C8 1_555 1_555
H6 C9 1_555 1_555
C10 C9 1_555 1_555
C11 C10 1_555 1_555
H7 C11 1_555 1_555
C12 C11 1_555 1_555
H8 C12 1_555 1_555
C13 C10 1_555 1_555
C14 C13 1_555 1_555
H9 C14 1_555 1_555
C15 C14 1_555 1_555
C16 C15 1_555 1_555
C17 C16 1_555 1_555
H10 C17 1_555 1_555
C18 C13 1_555 1_555
H11 C18 1_555 1_555
C19 C16 1_555 1_555
C20 C19 1_555 1_555
H12 C20 1_555 1_555
C21 C20 1_555 1_555
H13 C21 1_555 1_555
C22 H14 1_555 1_555
C23 C19 1_555 1_555
H15 C23 1_555 1_555
C24 C15 1_555 1_555
C25 H16 1_555 1_555
C26 C25 1_555 1_555
H17 C26 1_555 1_555
H18 C26 1_555 1_555
C27 C26 1_555 1_555
C28 C29 1_555 1_555
C29 C25 1_555 1_555
H19 C29 1_555 1_555
H20 C29 1_555 1_555
C30 C27 1_555 1_555
H21 C30 1_555 1_555
H22 C30 1_555 1_555
H23 C30 1_555 1_555
C31 C27 1_555 1_555
H24 C31 1_555 1_555
H25 C31 1_555 1_555
H26 C31 1_555 1_555
C32 C28 1_555 1_555
H27 C32 1_555 1_555
H28 C32 1_555 1_555
H29 C32 1_555 1_555
C33 C28 1_555 1_555
H30 C33 1_555 1_555
H31 C33 1_555 1_555
H32 C33 1_555 1_555
C34 C35 1_555 1_555
C35 C36 1_555 1_555
C36 H33 1_555 1_555
C37 C36 1_555 1_555
H34 C37 1_555 1_555
C38 C37 1_555 1_555
C39 C38 1_555 1_555
H35 C39 1_555 1_555
C40 C35 1_555 1_555
H36 C40 1_555 1_555
C41 C38 1_555 1_555
C42 C41 1_555 1_555
H37 C42 1_555 1_555
C43 C42 1_555 1_555
H38 C43 1_555 1_555
C44 C1 1_555 1_555
C45 C44 1_555 1_555
H39 C45 1_555 1_555
C46 C41 1_555 1_555
C47 C46 1_555 1_555
C48 H40 1_555 1_555
C49 C48 1_555 1_555
H41 C49 1_555 1_555
H42 C49 1_555 1_555
C50 C49 1_555 1_555
C51 C52 1_555 1_555
C52 C48 1_555 1_555
H43 C52 1_555 1_555
H44 C52 1_555 1_555
C53 C50 1_555 1_555
H45 C53 1_555 1_555
H46 C53 1_555 1_555
H47 C53 1_555 1_555
C54 C50 1_555 1_555
H48 C54 1_555 1_555
H49 C54 1_555 1_555
H50 C54 1_555 1_555
C55 C51 1_555 1_555
H51 C55 1_555 1_555
H52 C55 1_555 1_555
H53 C55 1_555 1_555
C56 C57 1_555 1_555
C57 C58 1_555 1_555
C58 H54 1_555 1_555
C59 C58 1_555 1_555
H55 C59 1_555 1_555
C60 C59 1_555 1_555
C61 C60 1_555 1_555
H56 C61 1_555 1_555
C62 C57 1_555 1_555
H57 C62 1_555 1_555
C63 C60 1_555 1_555
C64 C63 1_555 1_555
H58 C64 1_555 1_555
C65 C64 1_555 1_555
H59 C65 1_555 1_555
C66 C65 1_555 1_555
C67 C66 1_555 1_555
H60 C67 1_555 1_555
C68 C63 1_555 1_555
C69 C66 1_555 1_555
C70 C69 1_555 1_555
H61 C70 1_555 1_555
C71 C70 1_555 1_555
H62 C71 1_555 1_555
C72 C71 1_555 1_555
C73 C72 1_555 1_555
H63 C73 1_555 1_555
C74 C69 1_555 1_555
H64 C74 1_555 1_555
C75 C72 1_555 1_555
C76 C68 1_555 1_555
C77 H65 1_555 1_555
C78 C77 1_555 1_555
H66 C78 1_555 1_555
H67 C78 1_555 1_555
C79 C78 1_555 1_555
C80 C81 1_555 1_555
C81 C77 1_555 1_555
H68 C81 1_555 1_555
H69 C81 1_555 1_555
C82 C80 1_555 1_555
H70 C82 1_555 1_555
H71 C82 1_555 1_555
H72 C82 1_555 1_555
C83 C80 1_555 1_555
H73 C83 1_555 1_555
H74 C83 1_555 1_555
H75 C83 1_555 1_555
C84 C79 1_555 1_555
H76 C84 1_555 1_555
H77 C84 1_555 1_555
H78 C84 1_555 1_555
C85 C79 1_555 1_555
H79 C85 1_555 1_555
H80 C85 1_555 1_555
H81 C85 1_555 1_555
N1 C8 1_555 1_555
N2 C21 1_555 1_555
N3 C24 1_555 1_555
H82 N3 1_555 1_555
N4 C27 1_555 1_555
N5 C47 1_555 1_555
H83 N5 1_555 1_555
N6 C50 1_555 1_555
N7 C76 1_555 1_555
H84 N7 1_555 1_555
N8 C79 1_555 1_555
O1 C7 1_555 1_555
O2 C7 1_555 1_555
O3 N8 1_555 1_555
O4 C24 1_555 1_555
O5 N4 1_555 1_555
O6 C56 1_555 1_555
O7 C56 1_555 1_555
O8 C34 1_555 1_555
O9 C34 1_555 1_555
O10 C47 1_555 1_555
O11 N6 1_555 1_555
O12 C75 1_555 1_555
O13 C75 1_555 1_555
O14 C76 1_555 1_555
Zn1 N1 1_555 1_555
Zn2 O7 1_555 1_555
C86 C51 1_555 1_555
H85 C86 1_555 1_555
H86 C86 1_555 1_555
H87 C86 1_555 1_555
N9 Zn2 1_555 1_555
O15 Zn1 1_555 1_555
O16 Zn2 1_555 1_555
O17 Zn2 1_555 1_555
O18 Zn1 1_555 1_555
Zn4 O13 1_555 1_555
Zn6 O12 1_555 1_555
Zn7 N2 1_555 1_555
C2 C4 1_555 1_555
C5 C6 1_555 1_555
C12 N1 1_555 1_555
C17 C18 1_555 1_555
C22 C23 1_555 1_555
C22 N2 1_555 1_555
C25 N3 1_555 1_555
C28 N4 1_555 1_555
C39 C40 1_555 1_555
C43 C44 1_555 1_555
C45 C46 1_555 1_555
C48 N5 1_555 1_555
C51 N6 1_555 1_555
C61 C62 1_555 1_555
C67 C68 1_555 1_555
C73 C74 1_555 1_555
C77 N7 1_555 1_555
C80 N8 1_555 1_555
O6 Zn1 1_555 1_555
O8 Zn1 1_555 1_555
O9 Zn2 1_555 1_555
O3 H88 1_555 1_555
O5 H90 1_555 1_555
C75_2 C72_2 1_555 1_555
O17 C75_2 1_555 1_555
O18 C75_2 1_555 1_555
C2_2 H1_2 1_555 1_555
C6_2 C2_2 1_555 1_555
C7_2 C6_2 1_555 1_555
O15 C7_2 1_555 1_555
O16 C7_2 1_555 1_555
H7_2 C11_2 1_555 1_555
C12_2 C11_2 1_555 1_555
H8_2 C12_2 1_555 1_555
C14_2 C13_2 1_555 1_555
H9_2 C14_2 1_555 1_555
C15_2 C14_2 1_555 1_555
C16_2 C15_2 1_555 1_555
C19_2 C16_2 1_555 1_555
C20_2 C19_2 1_555 1_555
H12_2 C20_2 1_555 1_555
C21_2 C20_2 1_555 1_555
H13_2 C21_2 1_555 1_555
C22_2 H14_2 1_555 1_555
C23_2 C19_2 1_555 1_555
H15_2 C23_2 1_555 1_555
C24_2 C15_2 1_555 1_555
C25_2 H16_2 1_555 1_555
C26_2 C25_2 1_555 1_555
H17_2 C26_2 1_555 1_555
H18_2 C26_2 1_555 1_555
C27_2 C26_2 1_555 1_555
C28_2 C29_2 1_555 1_555
C29_2 C25_2 1_555 1_555
H19_2 C29_2 1_555 1_555
H20_2 C29_2 1_555 1_555
C30_2 C27_2 1_555 1_555
H21_2 C30_2 1_555 1_555
H22_2 C30_2 1_555 1_555
H23_2 C30_2 1_555 1_555
C31_2 C27_2 1_555 1_555
H24_2 C31_2 1_555 1_555
H25_2 C31_2 1_555 1_555
H26_2 C31_2 1_555 1_555
C32_2 C28_2 1_555 1_555
H27_2 C32_2 1_555 1_555
H28_2 C32_2 1_555 1_555
H29_2 C32_2 1_555 1_555
C33_2 C28_2 1_555 1_555
H30_2 C33_2 1_555 1_555
H31_2 C33_2 1_555 1_555
H32_2 C33_2 1_555 1_555
C56_2 C57_2 1_555 1_555
C57_2 C58_2 1_555 1_555
C58_2 H54_2 1_555 1_555
C59_2 C58_2 1_555 1_555
H55_2 C59_2 1_555 1_555
C60_2 C59_2 1_555 1_555
C61_2 C60_2 1_555 1_555
H56_2 C61_2 1_555 1_555
C62_2 C57_2 1_555 1_555
H57_2 C62_2 1_555 1_555
C63_2 C60_2 1_555 1_555
C64_2 C63_2 1_555 1_555
H58_2 C64_2 1_555 1_555
C65_2 C64_2 1_555 1_555
H59_2 C65_2 1_555 1_555
C66_2 C65_2 1_555 1_555
C67_2 C66_2 1_555 1_555
H60_2 C67_2 1_555 1_555
C68_2 C63_2 1_555 1_555
C69_2 C66_2 1_555 1_555
C70_2 C69_2 1_555 1_555
H61_2 C70_2 1_555 1_555
C71_2 C70_2 1_555 1_555
H63_2 C73_2 1_555 1_555
C74_2 C69_2 1_555 1_555
H64_2 C74_2 1_555 1_555
C76_2 C68_2 1_555 1_555
C77_2 H65_2 1_555 1_555
C78_2 C77_2 1_555 1_555
H66_2 C78_2 1_555 1_555
H67_2 C78_2 1_555 1_555
C79_2 C78_2 1_555 1_555
C80_2 C81_2 1_555 1_555
C81_2 C77_2 1_555 1_555
H68_2 C81_2 1_555 1_555
H69_2 C81_2 1_555 1_555
C82_2 C80_2 1_555 1_555
H70_2 C82_2 1_555 1_555
H71_2 C82_2 1_555 1_555
H72_2 C82_2 1_555 1_555
C83_2 C80_2 1_555 1_555
H73_2 C83_2 1_555 1_555
H74_2 C83_2 1_555 1_555
H75_2 C83_2 1_555 1_555
C84_2 C79_2 1_555 1_555
H76_2 C84_2 1_555 1_555
H77_2 C84_2 1_555 1_555
H78_2 C84_2 1_555 1_555
C85_2 C79_2 1_555 1_555
H79_2 C85_2 1_555 1_555
H80_2 C85_2 1_555 1_555
H81_2 C85_2 1_555 1_555
N2_2 C21_2 1_555 1_555
N3_2 C24_2 1_555 1_555
H82_2 N3_2 1_555 1_555
N4_2 C27_2 1_555 1_555
N7_2 C76_2 1_555 1_555
H84_2 N7_2 1_555 1_555
N8_2 C79_2 1_555 1_555
O3_2 N8_2 1_555 1_555
O4_2 C24_2 1_555 1_555
O5_2 N4_2 1_555 1_555
O6_2 C56_2 1_555 1_555
O7_2 C56_2 1_555 1_555
O14_2 C76_2 1_555 1_555
Zn7_2 N2_2 1_555 1_555
C22_2 C23_2 1_555 1_555
C22_2 N2_2 1_555 1_555
C25_2 N3_2 1_555 1_555
C28_2 N4_2 1_555 1_555
C61_2 C62_2 1_555 1_555
C67_2 C68_2 1_555 1_555
C73_2 C74_2 1_555 1_555
C77_2 N7_2 1_555 1_555
C80_2 N8_2 1_555 1_555
O3_2 H88_2 1_555 1_555
O5_2 H90_2 1_555 1_555
C1_2 C3_2 1_555 1_555
C3_2 H2_2 1_555 1_555
C4_2 C1_2 1_555 1_555
H3_2 C4_2 1_555 1_555
C5_2 C3_2 1_555 1_555
H4_2 C5_2 1_555 1_555
C8_2 H5_2 1_555 1_555
C9_2 C8_2 1_555 1_555
H6_2 C9_2 1_555 1_555
C10_2 C9_2 1_555 1_555
H10_2 C17_2 1_555 1_555
H11_2 C18_2 1_555 1_555
C34_2 C35_2 1_555 1_555
C35_2 C36_2 1_555 1_555
C36_2 H33_2 1_555 1_555
C37_2 C36_2 1_555 1_555
H34_2 C37_2 1_555 1_555
C38_2 C37_2 1_555 1_555
C39_2 C38_2 1_555 1_555
H35_2 C39_2 1_555 1_555
C40_2 C35_2 1_555 1_555
H36_2 C40_2 1_555 1_555
C41_2 C38_2 1_555 1_555
C42_2 C41_2 1_555 1_555
H37_2 C42_2 1_555 1_555
C43_2 C42_2 1_555 1_555
H38_2 C43_2 1_555 1_555
C44_2 C1_2 1_555 1_555
C45_2 C44_2 1_555 1_555
H39_2 C45_2 1_555 1_555
C46_2 C41_2 1_555 1_555
C47_2 C46_2 1_555 1_555
C48_2 H40_2 1_555 1_555
C49_2 C48_2 1_555 1_555
H41_2 C49_2 1_555 1_555
H42_2 C49_2 1_555 1_555
C50_2 C49_2 1_555 1_555
C51_2 C52_2 1_555 1_555
C52_2 C48_2 1_555 1_555
H43_2 C52_2 1_555 1_555
H44_2 C52_2 1_555 1_555
C53_2 C50_2 1_555 1_555
H45_2 C53_2 1_555 1_555
H46_2 C53_2 1_555 1_555
H47_2 C53_2 1_555 1_555
C54_2 C50_2 1_555 1_555
H48_2 C54_2 1_555 1_555
H49_2 C54_2 1_555 1_555
H50_2 C54_2 1_555 1_555
C55_2 C51_2 1_555 1_555
H51_2 C55_2 1_555 1_555
H52_2 C55_2 1_555 1_555
H53_2 C55_2 1_555 1_555
N1_2 C8_2 1_555 1_555
N5_2 C47_2 1_555 1_555
H83_2 N5_2 1_555 1_555
N6_2 C50_2 1_555 1_555
O8_2 C34_2 1_555 1_555
O9_2 C34_2 1_555 1_555
O10_2 C47_2 1_555 1_555
O11_2 N6_2 1_555 1_555
Zn4 N1_2 1_555 1_555
C86_2 C51_2 1_555 1_555
H85_2 C86_2 1_555 1_555
H86_2 C86_2 1_555 1_555
H87_2 C86_2 1_555 1_555
N9_2 Zn6 1_555 1_555
C17_2 C18_2 1_555 1_555
C39_2 C40_2 1_555 1_555
C43_2 C44_2 1_555 1_555
C45_2 C46_2 1_555 1_555
C48_2 N5_2 1_555 1_555
C51_2 N6_2 1_555 1_555
O8_2 Zn4 1_555 1_555
O9_2 Zn6 1_555 1_555
O11_2 H89 1_555 1_555
C1_3 C3_3 1_555 1_555
C2_3 H1_3 1_555 1_555
C3_3 H2_3 1_555 1_555
C4_3 C1_3 1_555 1_555
H3_3 C4_3 1_555 1_555
C5_3 C3_3 1_555 1_555
H4_3 C5_3 1_555 1_555
C6_3 C2_3 1_555 1_555
C7_3 C6_3 1_555 1_555
C34_3 C35_3 1_555 1_555
C35_3 C36_3 1_555 1_555
C36_3 H33_3 1_555 1_555
C37_3 C36_3 1_555 1_555
H34_3 C37_3 1_555 1_555
C38_3 C37_3 1_555 1_555
C39_3 C38_3 1_555 1_555
H35_3 C39_3 1_555 1_555
C40_3 C35_3 1_555 1_555
H36_3 C40_3 1_555 1_555
C41_3 C38_3 1_555 1_555
C42_3 C41_3 1_555 1_555
H37_3 C42_3 1_555 1_555
C43_3 C42_3 1_555 1_555
H38_3 C43_3 1_555 1_555
C44_3 C1_3 1_555 1_555
C45_3 C44_3 1_555 1_555
H39_3 C45_3 1_555 1_555
C46_3 C41_3 1_555 1_555
C47_3 C46_3 1_555 1_555
C48_3 H40_3 1_555 1_555
C49_3 C48_3 1_555 1_555
H41_3 C49_3 1_555 1_555
H42_3 C49_3 1_555 1_555
C50_3 C49_3 1_555 1_555
C51_3 C52_3 1_555 1_555
C52_3 C48_3 1_555 1_555
H43_3 C52_3 1_555 1_555
H44_3 C52_3 1_555 1_555
C53_3 C50_3 1_555 1_555
H45_3 C53_3 1_555 1_555
H46_3 C53_3 1_555 1_555
H47_3 C53_3 1_555 1_555
C54_3 C50_3 1_555 1_555
H48_3 C54_3 1_555 1_555
H49_3 C54_3 1_555 1_555
H50_3 C54_3 1_555 1_555
C56_3 C57_3 1_555 1_555
C57_3 C58_3 1_555 1_555
C58_3 H54_3 1_555 1_555
C59_3 C58_3 1_555 1_555
H55_3 C59_3 1_555 1_555
C60_3 C59_3 1_555 1_555
C61_3 C60_3 1_555 1_555
H56_3 C61_3 1_555 1_555
C62_3 C57_3 1_555 1_555
H57_3 C62_3 1_555 1_555
C63_3 C60_3 1_555 1_555
C64_3 C63_3 1_555 1_555
H58_3 C64_3 1_555 1_555
C65_3 C64_3 1_555 1_555
H59_3 C65_3 1_555 1_555
C66_3 C65_3 1_555 1_555
C67_3 C66_3 1_555 1_555
H60_3 C67_3 1_555 1_555
C68_3 C63_3 1_555 1_555
C69_3 C66_3 1_555 1_555
C70_3 C69_3 1_555 1_555
H61_3 C70_3 1_555 1_555
C71_3 C70_3 1_555 1_555
H62_3 C71_3 1_555 1_555
C72_3 C71_3 1_555 1_555
C73_3 C72_3 1_555 1_555
H63_3 C73_3 1_555 1_555
C74_3 C69_3 1_555 1_555
H64_3 C74_3 1_555 1_555
C75_3 C72_3 1_555 1_555
C76_3 C68_3 1_555 1_555
N5_3 C47_3 1_555 1_555
H83_3 N5_3 1_555 1_555
N6_3 C50_3 1_555 1_555
O1_2 C7_3 1_555 1_555
O2_2 C7_3 1_555 1_555
O6_3 C56_3 1_555 1_555
O7_3 C56_3 1_555 1_555
O8_3 C34_3 1_555 1_555
O9_3 C34_3 1_555 1_555
O10_3 C47_3 1_555 1_555
O11_3 N6_3 1_555 1_555
O12_2 C75_3 1_555 1_555
O13_2 C75_3 1_555 1_555
O14_3 C76_3 1_555 1_555
Zn7 O7_3 1_555 1_555
C86_3 C51_3 1_555 1_555
H87_3 C86_3 1_555 1_555
O15_2 Zn1_2 1_555 1_555
O16_2 Zn7 1_555 1_555
O17_2 Zn7 1_555 1_555
O18_2 Zn1_2 1_555 1_555
Zn3 O13_2 1_555 1_555
Zn7_2 O12_2 1_555 1_555
C2_3 C4_3 1_555 1_555
C5_3 C6_3 1_555 1_555
C39_3 C40_3 1_555 1_555
C43_3 C44_3 1_555 1_555
C45_3 C46_3 1_555 1_555
C48_3 N5_3 1_555 1_555
C51_3 N6_3 1_555 1_555
C61_3 C62_3 1_555 1_555
C67_3 C68_3 1_555 1_555
C73_3 C74_3 1_555 1_555
O6_3 Zn1_2 1_555 1_555
O8_3 Zn1_2 1_555 1_555
O9_3 Zn7 1_555 1_555
C8_3 H5_3 1_555 1_555
C9_3 C8_3 1_555 1_555
H6_3 C9_3 1_555 1_555
C10_3 C9_3 1_555 1_555
C11_3 C10_3 1_555 1_555
H7_3 C11_3 1_555 1_555
C12_3 C11_3 1_555 1_555
H8_3 C12_3 1_555 1_555
C13_3 C10_3 1_555 1_555
C14_3 C13_3 1_555 1_555
H9_3 C14_3 1_555 1_555
C15_3 C14_3 1_555 1_555
C16_3 C15_3 1_555 1_555
C17_3 C16_3 1_555 1_555
H10_3 C17_3 1_555 1_555
C18_3 C13_3 1_555 1_555
H11_3 C18_3 1_555 1_555
C19_3 C16_3 1_555 1_555
C20_3 C19_3 1_555 1_555
H12_3 C20_3 1_555 1_555
C21_3 C20_3 1_555 1_555
H13_3 C21_3 1_555 1_555
C22_3 H14_3 1_555 1_555
C23_3 C19_3 1_555 1_555
H15_3 C23_3 1_555 1_555
C24_3 C15_3 1_555 1_555
C25_3 H16_3 1_555 1_555
C26_3 C25_3 1_555 1_555
H17_3 C26_3 1_555 1_555
H18_3 C26_3 1_555 1_555
C27_3 C26_3 1_555 1_555
C28_3 C29_3 1_555 1_555
C29_3 C25_3 1_555 1_555
H19_3 C29_3 1_555 1_555
H20_3 C29_3 1_555 1_555
C30_3 C27_3 1_555 1_555
H21_3 C30_3 1_555 1_555
H22_3 C30_3 1_555 1_555
H23_3 C30_3 1_555 1_555
C31_3 C27_3 1_555 1_555
H24_3 C31_3 1_555 1_555
H25_3 C31_3 1_555 1_555
H26_3 C31_3 1_555 1_555
C32_3 C28_3 1_555 1_555
H27_3 C32_3 1_555 1_555
H28_3 C32_3 1_555 1_555
H29_3 C32_3 1_555 1_555
C33_3 C28_3 1_555 1_555
H30_3 C33_3 1_555 1_555
H31_3 C33_3 1_555 1_555
H32_3 C33_3 1_555 1_555
H51_3 C55_3 1_555 1_555
H53_3 C55_3 1_555 1_555
C77_3 H65_3 1_555 1_555
C78_3 C77_3 1_555 1_555
H66_3 C78_3 1_555 1_555
H67_3 C78_3 1_555 1_555
C79_3 C78_3 1_555 1_555
C80_3 C81_3 1_555 1_555
C81_3 C77_3 1_555 1_555
H68_3 C81_3 1_555 1_555
H69_3 C81_3 1_555 1_555
C82_3 C80_3 1_555 1_555
H70_3 C82_3 1_555 1_555
H71_3 C82_3 1_555 1_555
H72_3 C82_3 1_555 1_555
C83_3 C80_3 1_555 1_555
H73_3 C83_3 1_555 1_555
H74_3 C83_3 1_555 1_555
H75_3 C83_3 1_555 1_555
C84_3 C79_3 1_555 1_555
H76_3 C84_3 1_555 1_555
H77_3 C84_3 1_555 1_555
H78_3 C84_3 1_555 1_555
C85_3 C79_3 1_555 1_555
H79_3 C85_3 1_555 1_555
H80_3 C85_3 1_555 1_555
H81_3 C85_3 1_555 1_555
N1_3 C8_3 1_555 1_555
N9 C21_3 1_555 1_555
N3_3 C24_3 1_555 1_555
H82_3 N3_3 1_555 1_555
N4_3 C27_3 1_555 1_555
H84_3 N7_3 1_555 1_555
N8_3 C79_3 1_555 1_555
O3_3 N8_3 1_555 1_555
O4_3 C24_3 1_555 1_555
O5_3 N4_3 1_555 1_555
C12_3 N1_3 1_555 1_555
C17_3 C18_3 1_555 1_555
C22_3 C23_3 1_555 1_555
C22_3 N9 1_555 1_555
C25_3 N3_3 1_555 1_555
C28_3 N4_3 1_555 1_555
C77_3 N7_3 1_555 1_555
C80_3 N8_3 1_555 1_555
O3_3 H88_3 1_555 1_555
O5_3 H90_3 1_555 1_555
C2_4 H1_4 1_555 1_555
C6_4 C2_4 1_555 1_555
C7_4 C6_4 1_555 1_555
O15_2 C7_4 1_555 1_555
O16_2 C7_4 1_555 1_555
C75_4 C72_4 1_555 1_555
O17_2 C75_4 1_555 1_555
O18_2 C75_4 1_555 1_555
C1_4 C3_4 1_555 1_555
C3_4 H2_4 1_555 1_555
C4_4 C1_4 1_555 1_555
H3_4 C4_4 1_555 1_555
C5_4 C3_4 1_555 1_555
H4_4 C5_4 1_555 1_555
C34_4 C35_4 1_555 1_555
C35_4 C36_4 1_555 1_555
C36_4 H33_4 1_555 1_555
C37_4 C36_4 1_555 1_555
H34_4 C37_4 1_555 1_555
C38_4 C37_4 1_555 1_555
C39_4 C38_4 1_555 1_555
H35_4 C39_4 1_555 1_555
C40_4 C35_4 1_555 1_555
H36_4 C40_4 1_555 1_555
C41_4 C38_4 1_555 1_555
C42_4 C41_4 1_555 1_555
H37_4 C42_4 1_555 1_555
C43_4 C42_4 1_555 1_555
H38_4 C43_4 1_555 1_555
C44_4 C1_4 1_555 1_555
C45_4 C44_4 1_555 1_555
H39_4 C45_4 1_555 1_555
C46_4 C41_4 1_555 1_555
C47_4 C46_4 1_555 1_555
C48_4 H40_4 1_555 1_555
C49_4 C48_4 1_555 1_555
H41_4 C49_4 1_555 1_555
H42_4 C49_4 1_555 1_555
C50_4 C49_4 1_555 1_555
C51_4 C52_4 1_555 1_555
C52_4 C48_4 1_555 1_555
H43_4 C52_4 1_555 1_555
H44_4 C52_4 1_555 1_555
C53_4 C50_4 1_555 1_555
H45_4 C53_4 1_555 1_555
H46_4 C53_4 1_555 1_555
H47_4 C53_4 1_555 1_555
C54_4 C50_4 1_555 1_555
H48_4 C54_4 1_555 1_555
H49_4 C54_4 1_555 1_555
H50_4 C54_4 1_555 1_555
N5_4 C47_4 1_555 1_555
H83_4 N5_4 1_555 1_555
N6_4 C50_4 1_555 1_555
O8_4 C34_4 1_555 1_555
O9_4 C34_4 1_555 1_555
O10_4 C47_4 1_555 1_555
O11_4 N6_4 1_555 1_555
C86_4 C51_4 1_555 1_555
H87_4 C86_4 1_555 1_555
C39_4 C40_4 1_555 1_555
C43_4 C44_4 1_555 1_555
C45_4 C46_4 1_555 1_555
C48_4 N5_4 1_555 1_555
C51_4 N6_4 1_555 1_555
O8_4 Zn3 1_555 1_555
O9_4 Zn7_2 1_555 1_555
O11_4 H89_2 1_555 1_555
C56_4 C57_4 1_555 1_555
C57_4 C58_4 1_555 1_555
C58_4 H54_4 1_555 1_555
C59_4 C58_4 1_555 1_555
H55_4 C59_4 1_555 1_555
C60_4 C59_4 1_555 1_555
C61_4 C60_4 1_555 1_555
H56_4 C61_4 1_555 1_555
C62_4 C57_4 1_555 1_555
H57_4 C62_4 1_555 1_555
C63_4 C60_4 1_555 1_555
C64_4 C63_4 1_555 1_555
H58_4 C64_4 1_555 1_555
C65_4 C64_4 1_555 1_555
H59_4 C65_4 1_555 1_555
C66_4 C65_4 1_555 1_555
C67_4 C66_4 1_555 1_555
H60_4 C67_4 1_555 1_555
C68_4 C63_4 1_555 1_555
C69_4 C66_4 1_555 1_555
C70_4 C69_4 1_555 1_555
H61_4 C70_4 1_555 1_555
C71_4 C70_4 1_555 1_555
H63_4 C73_4 1_555 1_555
C74_4 C69_4 1_555 1_555
H64_4 C74_4 1_555 1_555
C76_4 C68_4 1_555 1_555
O6_4 C56_4 1_555 1_555
O7_4 C56_4 1_555 1_555
O14_4 C76_4 1_555 1_555
C61_4 C62_4 1_555 1_555
C67_4 C68_4 1_555 1_555
C73_4 C74_4 1_555 1_555
H7_4 C11_4 1_555 1_555
C12_4 C11_4 1_555 1_555
H8_4 C12_4 1_555 1_555
C14_4 C13_4 1_555 1_555
H9_4 C14_4 1_555 1_555
C15_4 C14_4 1_555 1_555
C16_4 C15_4 1_555 1_555
C19_4 C16_4 1_555 1_555
C20_4 C19_4 1_555 1_555
H12_4 C20_4 1_555 1_555
C21_4 C20_4 1_555 1_555
H13_4 C21_4 1_555 1_555
C22_4 H14_4 1_555 1_555
C23_4 C19_4 1_555 1_555
H15_4 C23_4 1_555 1_555
C24_4 C15_4 1_555 1_555
C25_4 H16_4 1_555 1_555
C26_4 C25_4 1_555 1_555
H17_4 C26_4 1_555 1_555
H18_4 C26_4 1_555 1_555
C27_4 C26_4 1_555 1_555
C28_4 C29_4 1_555 1_555
C29_4 C25_4 1_555 1_555
H19_4 C29_4 1_555 1_555
H20_4 C29_4 1_555 1_555
C30_4 C27_4 1_555 1_555
H21_4 C30_4 1_555 1_555
H22_4 C30_4 1_555 1_555
H23_4 C30_4 1_555 1_555
C31_4 C27_4 1_555 1_555
H24_4 C31_4 1_555 1_555
H25_4 C31_4 1_555 1_555
H26_4 C31_4 1_555 1_555
C32_4 C28_4 1_555 1_555
H27_4 C32_4 1_555 1_555
H28_4 C32_4 1_555 1_555
H29_4 C32_4 1_555 1_555
C33_4 C28_4 1_555 1_555
H30_4 C33_4 1_555 1_555
H31_4 C33_4 1_555 1_555
H32_4 C33_4 1_555 1_555
C77_4 H65_4 1_555 1_555
C78_4 C77_4 1_555 1_555
H66_4 C78_4 1_555 1_555
H67_4 C78_4 1_555 1_555
C79_4 C78_4 1_555 1_555
C80_4 C81_4 1_555 1_555
C81_4 C77_4 1_555 1_555
H68_4 C81_4 1_555 1_555
H69_4 C81_4 1_555 1_555
C82_4 C80_4 1_555 1_555
H70_4 C82_4 1_555 1_555
H71_4 C82_4 1_555 1_555
H72_4 C82_4 1_555 1_555
C83_4 C80_4 1_555 1_555
H73_4 C83_4 1_555 1_555
H74_4 C83_4 1_555 1_555
H75_4 C83_4 1_555 1_555
C84_4 C79_4 1_555 1_555
H76_4 C84_4 1_555 1_555
H77_4 C84_4 1_555 1_555
H78_4 C84_4 1_555 1_555
C85_4 C79_4 1_555 1_555
H79_4 C85_4 1_555 1_555
H80_4 C85_4 1_555 1_555
H81_4 C85_4 1_555 1_555
N9_2 C21_4 1_555 1_555
N3_4 C24_4 1_555 1_555
H82_4 N3_4 1_555 1_555
N4_4 C27_4 1_555 1_555
H84_4 N7_4 1_555 1_555
N8_4 C79_4 1_555 1_555
O3_4 N8_4 1_555 1_555
O4_4 C24_4 1_555 1_555
O5_4 N4_4 1_555 1_555
C22_4 C23_4 1_555 1_555
C22_4 N9_2 1_555 1_555
C25_4 N3_4 1_555 1_555
C28_4 N4_4 1_555 1_555
C77_4 N7_4 1_555 1_555
C80_4 N8_4 1_555 1_555
O3_4 H88_4 1_555 1_555
O5_4 H90_4 1_555 1_555
C8_4 H5_4 1_555 1_555
C9_4 C8_4 1_555 1_555
H6_4 C9_4 1_555 1_555
C10_4 C9_4 1_555 1_555
C11_5 C10_4 1_555 1_555
H7_5 C11_5 1_555 1_555
C12_5 C11_5 1_555 1_555
H8_5 C12_5 1_555 1_555
C13_5 C10_4 1_555 1_555
C14_5 C13_5 1_555 1_555
H9_5 C14_5 1_555 1_555
C15_5 C14_5 1_555 1_555
C16_5 C15_5 1_555 1_555
C17_4 C16_5 1_555 1_555
H10_4 C17_4 1_555 1_555
C18_4 C13_5 1_555 1_555
H11_4 C18_4 1_555 1_555
C19_5 C16_5 1_555 1_555
C20_5 C19_5 1_555 1_555
H12_5 C20_5 1_555 1_555
C21_5 C20_5 1_555 1_555
H13_5 C21_5 1_555 1_555
C22_5 H14_5 1_555 1_555
C23_5 C19_5 1_555 1_555
H15_5 C23_5 1_555 1_555
C24_5 C15_5 1_555 1_555
C25_5 H16_5 1_555 1_555
C26_5 C25_5 1_555 1_555
H17_5 C26_5 1_555 1_555
H18_5 C26_5 1_555 1_555
C27_5 C26_5 1_555 1_555
C28_5 C29_5 1_555 1_555
C29_5 C25_5 1_555 1_555
H19_5 C29_5 1_555 1_555
H20_5 C29_5 1_555 1_555
C30_5 C27_5 1_555 1_555
H21_5 C30_5 1_555 1_555
H22_5 C30_5 1_555 1_555
H23_5 C30_5 1_555 1_555
C31_5 C27_5 1_555 1_555
H24_5 C31_5 1_555 1_555
H25_5 C31_5 1_555 1_555
H26_5 C31_5 1_555 1_555
C32_5 C28_5 1_555 1_555
H27_5 C32_5 1_555 1_555
H28_5 C32_5 1_555 1_555
H29_5 C32_5 1_555 1_555
C33_5 C28_5 1_555 1_555
H30_5 C33_5 1_555 1_555
H31_5 C33_5 1_555 1_555
H32_5 C33_5 1_555 1_555
H51_4 C55_4 1_555 1_555
H53_4 C55_4 1_555 1_555
C77_5 H65_5 1_555 1_555
C78_5 C77_5 1_555 1_555
H66_5 C78_5 1_555 1_555
H67_5 C78_5 1_555 1_555
C79_5 C78_5 1_555 1_555
C80_5 C81_5 1_555 1_555
C81_5 C77_5 1_555 1_555
H68_5 C81_5 1_555 1_555
H69_5 C81_5 1_555 1_555
C82_5 C80_5 1_555 1_555
H70_5 C82_5 1_555 1_555
H71_5 C82_5 1_555 1_555
H72_5 C82_5 1_555 1_555
C83_5 C80_5 1_555 1_555
H73_5 C83_5 1_555 1_555
H74_5 C83_5 1_555 1_555
H75_5 C83_5 1_555 1_555
C84_5 C79_5 1_555 1_555
H76_5 C84_5 1_555 1_555
H77_5 C84_5 1_555 1_555
H78_5 C84_5 1_555 1_555
C85_5 C79_5 1_555 1_555
H79_5 C85_5 1_555 1_555
H80_5 C85_5 1_555 1_555
H81_5 C85_5 1_555 1_555
N1_4 C8_4 1_555 1_555
N2_3 C21_5 1_555 1_555
N3_5 C24_5 1_555 1_555
H82_5 N3_5 1_555 1_555
N4_5 C27_5 1_555 1_555
H84_5 N7_5 1_555 1_555
N8_5 C79_5 1_555 1_555
O3_5 N8_5 1_555 1_555
O4_5 C24_5 1_555 1_555
O5_5 N4_5 1_555 1_555
Zn7_3 N2_3 1_555 1_555
C12_5 N1_4 1_555 1_555
C17_4 C18_4 1_555 1_555
C22_5 C23_5 1_555 1_555
C22_5 N2_3 1_555 1_555
C25_5 N3_5 1_555 1_555
C28_5 N4_5 1_555 1_555
C77_5 N7_5 1_555 1_555
C80_5 N8_5 1_555 1_555
O3_5 H88_5 1_555 1_555
O5_5 H90_5 1_555 1_555
C1_5 C3_5 1_555 1_555
C2_5 H1_5 1_555 1_555
C3_5 H2_5 1_555 1_555
C4_5 C1_5 1_555 1_555
H3_5 C4_5 1_555 1_555
C5_5 C3_5 1_555 1_555
H4_5 C5_5 1_555 1_555
C6_5 C2_5 1_555 1_555
C7_5 C6_5 1_555 1_555
C34_5 C35_5 1_555 1_555
C35_5 C36_5 1_555 1_555
C36_5 H33_5 1_555 1_555
C37_5 C36_5 1_555 1_555
H34_5 C37_5 1_555 1_555
C38_5 C37_5 1_555 1_555
C39_5 C38_5 1_555 1_555
H35_5 C39_5 1_555 1_555
C40_5 C35_5 1_555 1_555
H36_5 C40_5 1_555 1_555
C41_5 C38_5 1_555 1_555
C42_5 C41_5 1_555 1_555
H37_5 C42_5 1_555 1_555
C43_5 C42_5 1_555 1_555
H38_5 C43_5 1_555 1_555
C44_5 C1_5 1_555 1_555
C45_5 C44_5 1_555 1_555
H39_5 C45_5 1_555 1_555
C46_5 C41_5 1_555 1_555
C47_5 C46_5 1_555 1_555
C48_5 H40_5 1_555 1_555
C49_5 C48_5 1_555 1_555
H41_5 C49_5 1_555 1_555
H42_5 C49_5 1_555 1_555
C50_5 C49_5 1_555 1_555
C51_5 C52_5 1_555 1_555
C52_5 C48_5 1_555 1_555
H43_5 C52_5 1_555 1_555
H44_5 C52_5 1_555 1_555
C53_5 C50_5 1_555 1_555
H45_5 C53_5 1_555 1_555
H46_5 C53_5 1_555 1_555
H47_5 C53_5 1_555 1_555
C54_5 C50_5 1_555 1_555
H48_5 C54_5 1_555 1_555
H49_5 C54_5 1_555 1_555
H50_5 C54_5 1_555 1_555
C56_5 C57_5 1_555 1_555
C57_5 C58_5 1_555 1_555
C58_5 H54_5 1_555 1_555
C59_5 C58_5 1_555 1_555
H55_5 C59_5 1_555 1_555
C60_5 C59_5 1_555 1_555
C61_5 C60_5 1_555 1_555
H56_5 C61_5 1_555 1_555
C62_5 C57_5 1_555 1_555
H57_5 C62_5 1_555 1_555
C63_5 C60_5 1_555 1_555
C64_5 C63_5 1_555 1_555
H58_5 C64_5 1_555 1_555
C65_5 C64_5 1_555 1_555
H59_5 C65_5 1_555 1_555
C66_5 C65_5 1_555 1_555
C67_5 C66_5 1_555 1_555
H60_5 C67_5 1_555 1_555
C68_5 C63_5 1_555 1_555
C69_5 C66_5 1_555 1_555
C70_5 C69_5 1_555 1_555
H61_5 C70_5 1_555 1_555
C71_5 C70_5 1_555 1_555
H62_5 C71_5 1_555 1_555
C72_5 C71_5 1_555 1_555
C73_5 C72_5 1_555 1_555
H63_5 C73_5 1_555 1_555
C74_5 C69_5 1_555 1_555
H64_5 C74_5 1_555 1_555
C75_5 C72_5 1_555 1_555
C76_5 C68_5 1_555 1_555
N5_5 C47_5 1_555 1_555
H83_5 N5_5 1_555 1_555
N6_5 C50_5 1_555 1_555
O1_3 C7_5 1_555 1_555
O2_3 C7_5 1_555 1_555
O6_5 C56_5 1_555 1_555
O7_5 C56_5 1_555 1_555
O8_5 C34_5 1_555 1_555
O9_5 C34_5 1_555 1_555
O10_5 C47_5 1_555 1_555
O11_5 N6_5 1_555 1_555
O12_3 C75_5 1_555 1_555
O13_3 C75_5 1_555 1_555
O14_5 C76_5 1_555 1_555
Zn2_2 O7_5 1_555 1_555
C86_5 C51_5 1_555 1_555
H87_5 C86_5 1_555 1_555
N9_3 Zn2_2 1_555 1_555
O15_3 Zn1_3 1_555 1_555
O16_3 Zn2_2 1_555 1_555
O17_3 Zn2_2 1_555 1_555
O18_3 Zn1_3 1_555 1_555
Zn4_2 O13_3 1_555 1_555
Zn6_2 O12_3 1_555 1_555
C2_5 C4_5 1_555 1_555
C5_5 C6_5 1_555 1_555
C39_5 C40_5 1_555 1_555
C43_5 C44_5 1_555 1_555
C45_5 C46_5 1_555 1_555
C48_5 N5_5 1_555 1_555
C51_5 N6_5 1_555 1_555
C61_5 C62_5 1_555 1_555
C67_5 C68_5 1_555 1_555
C73_5 C74_5 1_555 1_555
O6_5 Zn1_3 1_555 1_555
O8_5 Zn1_3 1_555 1_555
O9_5 Zn2_2 1_555 1_555
H7_6 C11_6 1_555 1_555
C12_6 C11_6 1_555 1_555
H8_6 C12_6 1_555 1_555
C14_6 C13_6 1_555 1_555
H9_6 C14_6 1_555 1_555
C15_6 C14_6 1_555 1_555
C16_6 C15_6 1_555 1_555
C19_6 C16_6 1_555 1_555
C20_6 C19_6 1_555 1_555
H12_6 C20_6 1_555 1_555
C21_6 C20_6 1_555 1_555
H13_6 C21_6 1_555 1_555
C22_6 H14_6 1_555 1_555
C23_6 C19_6 1_555 1_555
H15_6 C23_6 1_555 1_555
C24_6 C15_6 1_555 1_555
C25_6 H16_6 1_555 1_555
C26_6 C25_6 1_555 1_555
H17_6 C26_6 1_555 1_555
H18_6 C26_6 1_555 1_555
C27_6 C26_6 1_555 1_555
C28_6 C29_6 1_555 1_555
C29_6 C25_6 1_555 1_555
H19_6 C29_6 1_555 1_555
H20_6 C29_6 1_555 1_555
C30_6 C27_6 1_555 1_555
H21_6 C30_6 1_555 1_555
H22_6 C30_6 1_555 1_555
H23_6 C30_6 1_555 1_555
C31_6 C27_6 1_555 1_555
H24_6 C31_6 1_555 1_555
H25_6 C31_6 1_555 1_555
H26_6 C31_6 1_555 1_555
C32_6 C28_6 1_555 1_555
H27_6 C32_6 1_555 1_555
H28_6 C32_6 1_555 1_555
H29_6 C32_6 1_555 1_555
C33_6 C28_6 1_555 1_555
H30_6 C33_6 1_555 1_555
H31_6 C33_6 1_555 1_555
H32_6 C33_6 1_555 1_555
C77_6 H65_6 1_555 1_555
C78_6 C77_6 1_555 1_555
H66_6 C78_6 1_555 1_555
H67_6 C78_6 1_555 1_555
C79_6 C78_6 1_555 1_555
C80_6 C81_6 1_555 1_555
C81_6 C77_6 1_555 1_555
H68_6 C81_6 1_555 1_555
H69_6 C81_6 1_555 1_555
C82_6 C80_6 1_555 1_555
H70_6 C82_6 1_555 1_555
H71_6 C82_6 1_555 1_555
H72_6 C82_6 1_555 1_555
C83_6 C80_6 1_555 1_555
H73_6 C83_6 1_555 1_555
H74_6 C83_6 1_555 1_555
H75_6 C83_6 1_555 1_555
C84_6 C79_6 1_555 1_555
H76_6 C84_6 1_555 1_555
H77_6 C84_6 1_555 1_555
H78_6 C84_6 1_555 1_555
C85_6 C79_6 1_555 1_555
H79_6 C85_6 1_555 1_555
H80_6 C85_6 1_555 1_555
H81_6 C85_6 1_555 1_555
N2_4 C21_6 1_555 1_555
N3_6 C24_6 1_555 1_555
H82_6 N3_6 1_555 1_555
N4_6 C27_6 1_555 1_555
H84_6 N7_6 1_555 1_555
N8_6 C79_6 1_555 1_555
O3_6 N8_6 1_555 1_555
O4_6 C24_6 1_555 1_555
O5_6 N4_6 1_555 1_555
Zn7_4 N2_4 1_555 1_555
C22_6 C23_6 1_555 1_555
C22_6 N2_4 1_555 1_555
C25_6 N3_6 1_555 1_555
C28_6 N4_6 1_555 1_555
C77_6 N7_6 1_555 1_555
C80_6 N8_6 1_555 1_555
O3_6 H88_6 1_555 1_555
O5_6 H90_6 1_555 1_555
C56_6 C57_6 1_555 1_555
C57_6 C58_6 1_555 1_555
C58_6 H54_6 1_555 1_555
C59_6 C58_6 1_555 1_555
H55_6 C59_6 1_555 1_555
C60_6 C59_6 1_555 1_555
C61_6 C60_6 1_555 1_555
H56_6 C61_6 1_555 1_555
C62_6 C57_6 1_555 1_555
H57_6 C62_6 1_555 1_555
C63_6 C60_6 1_555 1_555
C64_6 C63_6 1_555 1_555
H58_6 C64_6 1_555 1_555
C65_6 C64_6 1_555 1_555
H59_6 C65_6 1_555 1_555
C66_6 C65_6 1_555 1_555
C67_6 C66_6 1_555 1_555
H60_6 C67_6 1_555 1_555
C68_6 C63_6 1_555 1_555
C69_6 C66_6 1_555 1_555
C70_6 C69_6 1_555 1_555
H61_6 C70_6 1_555 1_555
C71_6 C70_6 1_555 1_555
H63_6 C73_6 1_555 1_555
C74_6 C69_6 1_555 1_555
H64_6 C74_6 1_555 1_555
C76_6 C68_6 1_555 1_555
O6_6 C56_6 1_555 1_555
O7_6 C56_6 1_555 1_555
O14_6 C76_6 1_555 1_555
C61_6 C62_6 1_555 1_555
C67_6 C68_6 1_555 1_555
C73_6 C74_6 1_555 1_555
C1_6 C3_6 1_555 1_555
C3_6 H2_6 1_555 1_555
C4_6 C1_6 1_555 1_555
H3_6 C4_6 1_555 1_555
C5_6 C3_6 1_555 1_555
H4_6 C5_6 1_555 1_555
C34_6 C35_6 1_555 1_555
C35_6 C36_6 1_555 1_555
C36_6 H33_6 1_555 1_555
C37_6 C36_6 1_555 1_555
H34_6 C37_6 1_555 1_555
C38_6 C37_6 1_555 1_555
C39_6 C38_6 1_555 1_555
H35_6 C39_6 1_555 1_555
C40_6 C35_6 1_555 1_555
H36_6 C40_6 1_555 1_555
C41_6 C38_6 1_555 1_555
C42_6 C41_6 1_555 1_555
H37_6 C42_6 1_555 1_555
C43_6 C42_6 1_555 1_555
H38_6 C43_6 1_555 1_555
C44_6 C1_6 1_555 1_555
C45_6 C44_6 1_555 1_555
H39_6 C45_6 1_555 1_555
C46_6 C41_6 1_555 1_555
C47_6 C46_6 1_555 1_555
C48_6 H40_6 1_555 1_555
C49_6 C48_6 1_555 1_555
H41_6 C49_6 1_555 1_555
H42_6 C49_6 1_555 1_555
C50_6 C49_6 1_555 1_555
C51_6 C52_6 1_555 1_555
C52_6 C48_6 1_555 1_555
H43_6 C52_6 1_555 1_555
H44_6 C52_6 1_555 1_555
C53_6 C50_6 1_555 1_555
H45_6 C53_6 1_555 1_555
H46_6 C53_6 1_555 1_555
H47_6 C53_6 1_555 1_555
C54_6 C50_6 1_555 1_555
H48_6 C54_6 1_555 1_555
H49_6 C54_6 1_555 1_555
H50_6 C54_6 1_555 1_555
N5_6 C47_6 1_555 1_555
H83_6 N5_6 1_555 1_555
N6_6 C50_6 1_555 1_555
O8_6 C34_6 1_555 1_555
O9_6 C34_6 1_555 1_555
O10_6 C47_6 1_555 1_555
O11_6 N6_6 1_555 1_555
C86_6 C51_6 1_555 1_555
H87_6 C86_6 1_555 1_555
N9_4 Zn6_2 1_555 1_555
C39_6 C40_6 1_555 1_555
C43_6 C44_6 1_555 1_555
C45_6 C46_6 1_555 1_555
C48_6 N5_6 1_555 1_555
C51_6 N6_6 1_555 1_555
O8_6 Zn4_2 1_555 1_555
O9_6 Zn6_2 1_555 1_555
O11_6 H89_5 1_555 1_555
C75_6 C72_6 1_555 1_555
O17_3 C75_6 1_555 1_555
O18_3 C75_6 1_555 1_555
C2_6 H1_6 1_555 1_555
C6_6 C2_6 1_555 1_555
C7_6 C6_6 1_555 1_555
O15_3 C7_6 1_555 1_555
O16_3 C7_6 1_555 1_555
C1_7 C3_7 1_555 1_555
C2_7 H1_7 1_555 1_555
C3_7 H2_7 1_555 1_555
C4_7 C1_7 1_555 1_555
H3_7 C4_7 1_555 1_555
C5_7 C3_7 1_555 1_555
H4_7 C5_7 1_555 1_555
C6_7 C2_7 1_555 1_555
C7_7 C6_7 1_555 1_555
C8_5 H5_5 1_555 1_555
C9_5 C8_5 1_555 1_555
H6_5 C9_5 1_555 1_555
C10_5 C9_5 1_555 1_555
C11_7 C10_5 1_555 1_555
H7_7 C11_7 1_555 1_555
C12_7 C11_7 1_555 1_555
H8_7 C12_7 1_555 1_555
C13_7 C10_5 1_555 1_555
C14_7 C13_7 1_555 1_555
H9_7 C14_7 1_555 1_555
C15_7 C14_7 1_555 1_555
C16_7 C15_7 1_555 1_555
C17_5 C16_7 1_555 1_555
H10_5 C17_5 1_555 1_555
C18_5 C13_7 1_555 1_555
H11_5 C18_5 1_555 1_555
C19_7 C16_7 1_555 1_555
C20_7 C19_7 1_555 1_555
H12_7 C20_7 1_555 1_555
C21_7 C20_7 1_555 1_555
H13_7 C21_7 1_555 1_555
C22_7 H14_7 1_555 1_555
C23_7 C19_7 1_555 1_555
H15_7 C23_7 1_555 1_555
C24_7 C15_7 1_555 1_555
C25_7 H16_7 1_555 1_555
C26_7 C25_7 1_555 1_555
H17_7 C26_7 1_555 1_555
H18_7 C26_7 1_555 1_555
C27_7 C26_7 1_555 1_555
C28_7 C29_7 1_555 1_555
C29_7 C25_7 1_555 1_555
H19_7 C29_7 1_555 1_555
H20_7 C29_7 1_555 1_555
C30_7 C27_7 1_555 1_555
H21_7 C30_7 1_555 1_555
H22_7 C30_7 1_555 1_555
H23_7 C30_7 1_555 1_555
C31_7 C27_7 1_555 1_555
H24_7 C31_7 1_555 1_555
H25_7 C31_7 1_555 1_555
H26_7 C31_7 1_555 1_555
C32_7 C28_7 1_555 1_555
H27_7 C32_7 1_555 1_555
H28_7 C32_7 1_555 1_555
H29_7 C32_7 1_555 1_555
C33_7 C28_7 1_555 1_555
H30_7 C33_7 1_555 1_555
H31_7 C33_7 1_555 1_555
H32_7 C33_7 1_555 1_555
C34_7 C35_7 1_555 1_555
C35_7 C36_7 1_555 1_555
C36_7 H33_7 1_555 1_555
C37_7 C36_7 1_555 1_555
H34_7 C37_7 1_555 1_555
C38_7 C37_7 1_555 1_555
C39_7 C38_7 1_555 1_555
H35_7 C39_7 1_555 1_555
C40_7 C35_7 1_555 1_555
H36_7 C40_7 1_555 1_555
C41_7 C38_7 1_555 1_555
C42_7 C41_7 1_555 1_555
H37_7 C42_7 1_555 1_555
C43_7 C42_7 1_555 1_555
H38_7 C43_7 1_555 1_555
C44_7 C1_7 1_555 1_555
C45_7 C44_7 1_555 1_555
H39_7 C45_7 1_555 1_555
C46_7 C41_7 1_555 1_555
C47_7 C46_7 1_555 1_555
C48_7 H40_7 1_555 1_555
C49_7 C48_7 1_555 1_555
H41_7 C49_7 1_555 1_555
H42_7 C49_7 1_555 1_555
C50_7 C49_7 1_555 1_555
C51_7 C52_7 1_555 1_555
C52_7 C48_7 1_555 1_555
H43_7 C52_7 1_555 1_555
H44_7 C52_7 1_555 1_555
C53_7 C50_7 1_555 1_555
H45_7 C53_7 1_555 1_555
H46_7 C53_7 1_555 1_555
H47_7 C53_7 1_555 1_555
C54_7 C50_7 1_555 1_555
H48_7 C54_7 1_555 1_555
H49_7 C54_7 1_555 1_555
H50_7 C54_7 1_555 1_555
C55_5 C51_7 1_555 1_555
H51_5 C55_5 1_555 1_555
H52_7 C55_5 1_555 1_555
H53_5 C55_5 1_555 1_555
C56_7 C57_7 1_555 1_555
C57_7 C58_7 1_555 1_555
C58_7 H54_7 1_555 1_555
C59_7 C58_7 1_555 1_555
H55_7 C59_7 1_555 1_555
C60_7 C59_7 1_555 1_555
C61_7 C60_7 1_555 1_555
H56_7 C61_7 1_555 1_555
C62_7 C57_7 1_555 1_555
H57_7 C62_7 1_555 1_555
C63_7 C60_7 1_555 1_555
C64_7 C63_7 1_555 1_555
H58_7 C64_7 1_555 1_555
C65_7 C64_7 1_555 1_555
H59_7 C65_7 1_555 1_555
C66_7 C65_7 1_555 1_555
C67_7 C66_7 1_555 1_555
H60_7 C67_7 1_555 1_555
C68_7 C63_7 1_555 1_555
C69_7 C66_7 1_555 1_555
C70_7 C69_7 1_555 1_555
H61_7 C70_7 1_555 1_555
C71_7 C70_7 1_555 1_555
H62_7 C71_7 1_555 1_555
C72_7 C71_7 1_555 1_555
C73_7 C72_7 1_555 1_555
H63_7 C73_7 1_555 1_555
C74_7 C69_7 1_555 1_555
H64_7 C74_7 1_555 1_555
C75_7 C72_7 1_555 1_555
C76_7 C68_7 1_555 1_555
C77_7 H65_7 1_555 1_555
C78_7 C77_7 1_555 1_555
H66_7 C78_7 1_555 1_555
H67_7 C78_7 1_555 1_555
C79_7 C78_7 1_555 1_555
C80_7 C81_7 1_555 1_555
C81_7 C77_7 1_555 1_555
H68_7 C81_7 1_555 1_555
H69_7 C81_7 1_555 1_555
C82_7 C80_7 1_555 1_555
H70_7 C82_7 1_555 1_555
H71_7 C82_7 1_555 1_555
H72_7 C82_7 1_555 1_555
C83_7 C80_7 1_555 1_555
H73_7 C83_7 1_555 1_555
H74_7 C83_7 1_555 1_555
H75_7 C83_7 1_555 1_555
C84_7 C79_7 1_555 1_555
H76_7 C84_7 1_555 1_555
H77_7 C84_7 1_555 1_555
H78_7 C84_7 1_555 1_555
C85_7 C79_7 1_555 1_555
H79_7 C85_7 1_555 1_555
H80_7 C85_7 1_555 1_555
H81_7 C85_7 1_555 1_555
N1_5 C8_5 1_555 1_555
N9_3 C21_7 1_555 1_555
N3_7 C24_7 1_555 1_555
H82_7 N3_7 1_555 1_555
N4_7 C27_7 1_555 1_555
N5_7 C47_7 1_555 1_555
H83_7 N5_7 1_555 1_555
N6_7 C50_7 1_555 1_555
N7_7 C76_7 1_555 1_555
H84_7 N7_7 1_555 1_555
N8_7 C79_7 1_555 1_555
O1_4 C7_7 1_555 1_555
O2_4 C7_7 1_555 1_555
O3_7 N8_7 1_555 1_555
O4_7 C24_7 1_555 1_555
O5_7 N4_7 1_555 1_555
O6_7 C56_7 1_555 1_555
O7_7 C56_7 1_555 1_555
O8_7 C34_7 1_555 1_555
O9_7 C34_7 1_555 1_555
O10_7 C47_7 1_555 1_555
O11_7 N6_7 1_555 1_555
O12_4 C75_7 1_555 1_555
O13_4 C75_7 1_555 1_555
O14_7 C76_7 1_555 1_555
Zn1_4 N1_5 1_555 1_555
Zn7_3 O7_7 1_555 1_555
C86_7 C51_7 1_555 1_555
H85_5 C86_7 1_555 1_555
H86_5 C86_7 1_555 1_555
H87_7 C86_7 1_555 1_555
O15_4 Zn1_4 1_555 1_555
O16_4 Zn7_3 1_555 1_555
O17_4 Zn7_3 1_555 1_555
O18_4 Zn1_4 1_555 1_555
Zn3_2 O13_4 1_555 1_555
Zn7_4 O12_4 1_555 1_555
C2_7 C4_7 1_555 1_555
C5_7 C6_7 1_555 1_555
C12_7 N1_5 1_555 1_555
C17_5 C18_5 1_555 1_555
C22_7 C23_7 1_555 1_555
C22_7 N9_3 1_555 1_555
C25_7 N3_7 1_555 1_555
C28_7 N4_7 1_555 1_555
C39_7 C40_7 1_555 1_555
C43_7 C44_7 1_555 1_555
C45_7 C46_7 1_555 1_555
C48_7 N5_7 1_555 1_555
C51_7 N6_7 1_555 1_555
C61_7 C62_7 1_555 1_555
C67_7 C68_7 1_555 1_555
C73_7 C74_7 1_555 1_555
C77_7 N7_7 1_555 1_555
C80_7 N8_7 1_555 1_555
O6_7 Zn1_4 1_555 1_555
O8_7 Zn1_4 1_555 1_555
O9_7 Zn7_3 1_555 1_555
O3_7 H88_7 1_555 1_555
O5_7 H90_7 1_555 1_555
C1_8 C3_8 1_555 1_555
C3_8 H2_8 1_555 1_555
C4_8 C1_8 1_555 1_555
H3_8 C4_8 1_555 1_555
C5_8 C3_8 1_555 1_555
H4_8 C5_8 1_555 1_555
C8_6 H5_6 1_555 1_555
C9_6 C8_6 1_555 1_555
H6_6 C9_6 1_555 1_555
C10_6 C9_6 1_555 1_555
H10_6 C17_6 1_555 1_555
H11_6 C18_6 1_555 1_555
C34_8 C35_8 1_555 1_555
C35_8 C36_8 1_555 1_555
C36_8 H33_8 1_555 1_555
C37_8 C36_8 1_555 1_555
H34_8 C37_8 1_555 1_555
C38_8 C37_8 1_555 1_555
C39_8 C38_8 1_555 1_555
H35_8 C39_8 1_555 1_555
C40_8 C35_8 1_555 1_555
H36_8 C40_8 1_555 1_555
C41_8 C38_8 1_555 1_555
C42_8 C41_8 1_555 1_555
H37_8 C42_8 1_555 1_555
C43_8 C42_8 1_555 1_555
H38_8 C43_8 1_555 1_555
C44_8 C1_8 1_555 1_555
C45_8 C44_8 1_555 1_555
H39_8 C45_8 1_555 1_555
C46_8 C41_8 1_555 1_555
C47_8 C46_8 1_555 1_555
C48_8 H40_8 1_555 1_555
C49_8 C48_8 1_555 1_555
H41_8 C49_8 1_555 1_555
H42_8 C49_8 1_555 1_555
C50_8 C49_8 1_555 1_555
C51_8 C52_8 1_555 1_555
C52_8 C48_8 1_555 1_555
H43_8 C52_8 1_555 1_555
H44_8 C52_8 1_555 1_555
C53_8 C50_8 1_555 1_555
H45_8 C53_8 1_555 1_555
H46_8 C53_8 1_555 1_555
H47_8 C53_8 1_555 1_555
C54_8 C50_8 1_555 1_555
H48_8 C54_8 1_555 1_555
H49_8 C54_8 1_555 1_555
H50_8 C54_8 1_555 1_555
C55_6 C51_8 1_555 1_555
H51_6 C55_6 1_555 1_555
H52_8 C55_6 1_555 1_555
H53_6 C55_6 1_555 1_555
N1_6 C8_6 1_555 1_555
N5_8 C47_8 1_555 1_555
H83_8 N5_8 1_555 1_555
N6_8 C50_8 1_555 1_555
O8_8 C34_8 1_555 1_555
O9_8 C34_8 1_555 1_555
O10_8 C47_8 1_555 1_555
O11_8 N6_8 1_555 1_555
Zn3_2 N1_6 1_555 1_555
C86_8 C51_8 1_555 1_555
H85_6 C86_8 1_555 1_555
H86_6 C86_8 1_555 1_555
H87_8 C86_8 1_555 1_555
C17_6 C18_6 1_555 1_555
C39_8 C40_8 1_555 1_555
C43_8 C44_8 1_555 1_555
C45_8 C46_8 1_555 1_555
C48_8 N5_8 1_555 1_555
C51_8 N6_8 1_555 1_555
O8_8 Zn3_2 1_555 1_555
O9_8 Zn7_4 1_555 1_555
O11_8 H89_6 1_555 1_555
H7_8 C11_8 1_555 1_555
C12_8 C11_8 1_555 1_555
H8_8 C12_8 1_555 1_555
C14_8 C13_8 1_555 1_555
H9_8 C14_8 1_555 1_555
C15_8 C14_8 1_555 1_555
C16_8 C15_8 1_555 1_555
C19_8 C16_8 1_555 1_555
C20_8 C19_8 1_555 1_555
H12_8 C20_8 1_555 1_555
C21_8 C20_8 1_555 1_555
H13_8 C21_8 1_555 1_555
C22_8 H14_8 1_555 1_555
C23_8 C19_8 1_555 1_555
H15_8 C23_8 1_555 1_555
C24_8 C15_8 1_555 1_555
C25_8 H16_8 1_555 1_555
C26_8 C25_8 1_555 1_555
H17_8 C26_8 1_555 1_555
H18_8 C26_8 1_555 1_555
C27_8 C26_8 1_555 1_555
C28_8 C29_8 1_555 1_555
C29_8 C25_8 1_555 1_555
H19_8 C29_8 1_555 1_555
H20_8 C29_8 1_555 1_555
C30_8 C27_8 1_555 1_555
H21_8 C30_8 1_555 1_555
H22_8 C30_8 1_555 1_555
H23_8 C30_8 1_555 1_555
C31_8 C27_8 1_555 1_555
H24_8 C31_8 1_555 1_555
H25_8 C31_8 1_555 1_555
H26_8 C31_8 1_555 1_555
C32_8 C28_8 1_555 1_555
H27_8 C32_8 1_555 1_555
H28_8 C32_8 1_555 1_555
H29_8 C32_8 1_555 1_555
C33_8 C28_8 1_555 1_555
H30_8 C33_8 1_555 1_555
H31_8 C33_8 1_555 1_555
H32_8 C33_8 1_555 1_555
C56_8 C57_8 1_555 1_555
C57_8 C58_8 1_555 1_555
C58_8 H54_8 1_555 1_555
C59_8 C58_8 1_555 1_555
H55_8 C59_8 1_555 1_555
C60_8 C59_8 1_555 1_555
C61_8 C60_8 1_555 1_555
H56_8 C61_8 1_555 1_555
C62_8 C57_8 1_555 1_555
H57_8 C62_8 1_555 1_555
C63_8 C60_8 1_555 1_555
C64_8 C63_8 1_555 1_555
H58_8 C64_8 1_555 1_555
C65_8 C64_8 1_555 1_555
H59_8 C65_8 1_555 1_555
C66_8 C65_8 1_555 1_555
C67_8 C66_8 1_555 1_555
H60_8 C67_8 1_555 1_555
C68_8 C63_8 1_555 1_555
C69_8 C66_8 1_555 1_555
C70_8 C69_8 1_555 1_555
H61_8 C70_8 1_555 1_555
C71_8 C70_8 1_555 1_555
H63_8 C73_8 1_555 1_555
C74_8 C69_8 1_555 1_555
H64_8 C74_8 1_555 1_555
C76_8 C68_8 1_555 1_555
C77_8 H65_8 1_555 1_555
C78_8 C77_8 1_555 1_555
H66_8 C78_8 1_555 1_555
H67_8 C78_8 1_555 1_555
C79_8 C78_8 1_555 1_555
C80_8 C81_8 1_555 1_555
C81_8 C77_8 1_555 1_555
H68_8 C81_8 1_555 1_555
H69_8 C81_8 1_555 1_555
C82_8 C80_8 1_555 1_555
H70_8 C82_8 1_555 1_555
H71_8 C82_8 1_555 1_555
H72_8 C82_8 1_555 1_555
C83_8 C80_8 1_555 1_555
H73_8 C83_8 1_555 1_555
H74_8 C83_8 1_555 1_555
H75_8 C83_8 1_555 1_555
C84_8 C79_8 1_555 1_555
H76_8 C84_8 1_555 1_555
H77_8 C84_8 1_555 1_555
H78_8 C84_8 1_555 1_555
C85_8 C79_8 1_555 1_555
H79_8 C85_8 1_555 1_555
H80_8 C85_8 1_555 1_555
H81_8 C85_8 1_555 1_555
N9_4 C21_8 1_555 1_555
N3_8 C24_8 1_555 1_555
H82_8 N3_8 1_555 1_555
N4_8 C27_8 1_555 1_555
N7_8 C76_8 1_555 1_555
H84_8 N7_8 1_555 1_555
N8_8 C79_8 1_555 1_555
O3_8 N8_8 1_555 1_555
O4_8 C24_8 1_555 1_555
O5_8 N4_8 1_555 1_555
O6_8 C56_8 1_555 1_555
O7_8 C56_8 1_555 1_555
O14_8 C76_8 1_555 1_555
C22_8 C23_8 1_555 1_555
C22_8 N9_4 1_555 1_555
C25_8 N3_8 1_555 1_555
C28_8 N4_8 1_555 1_555
C61_8 C62_8 1_555 1_555
C67_8 C68_8 1_555 1_555
C73_8 C74_8 1_555 1_555
C77_8 N7_8 1_555 1_555
C80_8 N8_8 1_555 1_555
O3_8 H88_8 1_555 1_555
O5_8 H90_8 1_555 1_555
C2_8 H1_8 1_555 1_555
C6_8 C2_8 1_555 1_555
C7_8 C6_8 1_555 1_555
O15_4 C7_8 1_555 1_555
O16_4 C7_8 1_555 1_555
C75_8 C72_8 1_555 1_555
O17_4 C75_8 1_555 1_555
O18_4 C75_8 1_555 1_555
C8_7 H5_7 1_555 1_555
C9_7 C8_7 1_555 1_555
H6_7 C9_7 1_555 1_555
C10_7 C9_7 1_555 1_555
H10_7 C17_7 1_555 1_555
H11_7 C18_7 1_555 1_555
H51_7 C55_7 1_555 1_555
H53_7 C55_7 1_555 1_555
N1_7 C8_7 1_555 1_555
C17_7 C18_7 1_555 1_555
C8_8 H5_8 1_555 1_555
C9_8 C8_8 1_555 1_555
H6_8 C9_8 1_555 1_555
C10_8 C9_8 1_555 1_555
H10_8 C17_8 1_555 1_555
H11_8 C18_8 1_555 1_555
H51_8 C55_8 1_555 1_555
H53_8 C55_8 1_555 1_555
N1_8 C8_8 1_555 1_555
C17_8 C18_8 1_555 1_555

#END
