
###############################################################################
#
# This file contains modified crystal structure data generated from the
# MOF subset of the Cambridge Structural Database (CSD) v543 
# hosted by the Cambridge Crystallographic Data Centre (CCDC).
#
# This work is licensed under the Creative Commons
# Attribution-NonCommercial-ShareAlike 4.0 International License.
# To view a copy of this license, visit
# http://creativecommons.org/licenses/by-nc-sa/4.0/
# or send a letter to
# Creative Commons, PO Box 1866, Mountain View, CA 94042, USA.
#
# CIF created using the CSD Python API on 29 September 2022
# The structure has been converted into the P1 space group
# The structure has a 3D framework
# The original CSD entry JENQIG is in the monoclinic crystal system
# The framework has been calculated to contain at least 10.0% void space
# The void calculation uses a probe of radius 1.32A, grid spacing 0.4
# H atom positions have been added when not included in the experimental data
#
###############################################################################

data_JENQIG
_chemical_formula_moiety         '(C688 H720 N64 O112 Zn16)n'
_symmetry_cell_setting           triclinic
_symmetry_space_group_name_H-M   'P 1'
_symmetry_Int_Tables_number      1
_space_group_name_Hall           'P 1'
loop_
_symmetry_equiv_pos_site_id
_symmetry_equiv_pos_as_xyz
1 x,y,z
_cell_length_a                   24.9389(12)
_cell_length_b                   29.7495(10)
_cell_length_c                   36.3325(11)
_cell_angle_alpha                90
_cell_angle_beta                 96.591(3)
_cell_angle_gamma                90
_cell_volume                     26777.6
loop_
_atom_site_label
_atom_site_type_symbol
_atom_site_fract_x
_atom_site_fract_y
_atom_site_fract_z
H55 H 0.350046 0.014675 0.635691
O1 O 0.4200(11) 0.0015(8) 0.6739(10)
H89 H 0.450022 0.00964975 0.659431
C1 C 0.6423(3) 0.4614(2) 0.46586(16)
H1 H 0.665066 0.439977 0.478039
C2 C 0.6456(3) 0.4697(3) 0.42884(17)
H2 H 0.672098 0.455728 0.416894
C3 C 0.6092(3) 0.4990(3) 0.40933(16)
C4 C 0.5733(3) 0.5221(2) 0.42963(16)
H3 H 0.549076 0.542930 0.418213
C5 C 0.5751(3) 0.5131(2) 0.46689(16)
H4 H 0.551900 0.529122 0.480328
C6 C 0.6112(3) 0.5078(3) 0.36941(16)
C7 C 0.6310(4) 0.4759(3) 0.34680(19)
H5 H 0.643853 0.448929 0.357273
C8 C 0.6325(4) 0.4824(3) 0.30991(19)
H6 H 0.645745 0.459973 0.295631
C9 C 0.6141(3) 0.5228(3) 0.29342(17)
C10 C 0.5940(3) 0.5564(3) 0.31556(16)
C11 C 0.5919(3) 0.5478(3) 0.35312(17)
H7 H 0.577287 0.569357 0.367599
C12 C 0.6625(4) 0.5170(3) 0.19910(19)
H8 H 0.692572 0.506602 0.188707
C13 C 0.6608(3) 0.5148(3) 0.23637(18)
H9 H 0.690187 0.502401 0.251025
C14 C 0.6178(3) 0.5300(2) 0.25339(16)
C15 C 0.5756(3) 0.5477(2) 0.23015(16)
H10 H 0.545382 0.558690 0.240017
C16 C 0.5776(3) 0.5495(2) 0.19245(16)
H11 H 0.548522 0.561660 0.177415
C17 C 0.5778(4) 0.6022(3) 0.30113(16)
C18 C 0.6093(4) 0.6690(3) 0.2700(2)
H12 H 0.572871 0.679810 0.272970
C19 C 0.6152(5) 0.6660(3) 0.2308(2)
H13 H 0.588332 0.645092 0.219562
H14 H 0.650359 0.653172 0.228364
C20 C 0.6101(7) 0.7087(4) 0.2088(3)
C21 C 0.6423(8) 0.7524(5) 0.2677(4)
C22 C 0.6501(6) 0.7031(4) 0.2862(3)
H15 H 0.686048 0.692309 0.283198
H16 H 0.647645 0.705731 0.312610
C23 C 0.5961(8) 0.7782(5) 0.2819(4)
H17 H 0.602694 0.780963 0.308343
H18 H 0.593573 0.807568 0.270902
H19 H 0.562839 0.762283 0.275382
C24 C 0.6977(9) 0.7768(6) 0.2781(5)
H20 H 0.702641 0.782594 0.304269
H21 H 0.726438 0.758041 0.271586
H22 H 0.697804 0.804715 0.264865
C25 C 0.5472(8) 0.7242(4) 0.2016(4)
H23 H 0.526301 0.700626 0.188863
H24 H 0.533930 0.730020 0.224896
H25 H 0.544387 0.750939 0.186765
C26 C 0.6294(8) 0.7035(5) 0.1703(3)
H26 H 0.610445 0.679074 0.157381
H27 H 0.622312 0.730786 0.156465
H28 H 0.667450 0.697448 0.173032
C27 C 0.5455(3) 0.53422(19) 0.58033(15)
C28 C 0.5063(3) 0.5729(2) 0.58046(15)
C29 C 0.4908(3) 0.5874(3) 0.61417(18)
H29 H 0.503504 0.573031 0.636162
C30 C 0.4559(4) 0.6238(3) 0.6143(2)
H30 H 0.447379 0.635346 0.636709
C31 C 0.4336(3) 0.6432(3) 0.58113(19)
C32 C 0.4481(3) 0.6277(2) 0.54808(18)
H31 H 0.433838 0.640947 0.525930
C33 C 0.4842(3) 0.5921(2) 0.54774(16)
H32 H 0.493507 0.581288 0.525309
C34 C 0.3943(4) 0.6813(3) 0.5815(2)
C35 C 0.4005(5) 0.7132(4) 0.6094(3)
H33 H 0.427972 0.710223 0.628850
C36 C 0.3647(5) 0.7506(3) 0.6083(3)
C37 C 0.3242(4) 0.7544(3) 0.5801(2)
C38 C 0.3160(4) 0.7202(4) 0.5548(3)
H34 H 0.285931 0.721384 0.537139
C39 C 0.3504(4) 0.6844(3) 0.5547(2)
H35 H 0.344246 0.662249 0.536696
C40 C 0.2849(4) 0.7930(3) 0.5796(2)
C41 C 0.2696(5) 0.8101(3) 0.6120(2)
H36 H 0.282724 0.797236 0.634574
C42 C 0.2349(4) 0.8462(3) 0.6111(2)
H37 H 0.223951 0.857121 0.633006
C43 C 0.2160(3) 0.8666(2) 0.57734(17)
C44 C 0.2333(3) 0.8510(3) 0.54507(18)
H38 H 0.222183 0.865172 0.522677
C45 C 0.2674(4) 0.8141(3) 0.5461(2)
H39 H 0.278708 0.803406 0.524177
C46 C 0.1778(2) 0.90573(19) 0.57680(16)
C47 C 0.3797(5) 0.7882(5) 0.6350(4)
C48 C 0.3963(8) 0.8714(6) 0.6353(9)
H40 H 0.383106 0.862826 0.658739
C49 C 0.4477(7) 0.8835(8) 0.6528(9)
H41 H 0.470985 0.888318 0.633519
H42 H 0.462004 0.857975 0.667294
C50 C 0.4530(9) 0.9292(10) 0.6808(9)
C51 C 0.3536(8) 0.9501(10) 0.6534(10)
C52 C 0.3550(9) 0.9031(7) 0.6268(8)
H43 H 0.320847 0.887640 0.627481
H44 H 0.356472 0.912734 0.601485
C53 C 0.454(2) 0.9090(16) 0.7181(8)
H45 H 0.485646 0.890975 0.723366
H46 H 0.453785 0.932449 0.736236
H47 H 0.422373 0.890492 0.718837
C54 C 0.5035(16) 0.9503(12) 0.6713(12)
H48 H 0.533580 0.931240 0.679438
H49 H 0.501356 0.954388 0.644967
H50 H 0.508207 0.978964 0.683387
C55 C 0.3061(14) 0.9406(13) 0.6738(9)
H51 H 0.274314 0.937435 0.656448
H52 H 0.312290 0.913283 0.687727
H53 H 0.301317 0.964999 0.690408
C56 C 0.3447(19) 0.9856(8) 0.6244(13)
H54 H 0.308476 0.983521 0.612227
H56 H 0.369779 0.981588 0.606476
C57 C 0.5394(3) 0.40837(19) 0.57758(16)
C58 C 0.5018(3) 0.3698(2) 0.57778(16)
C59 C 0.4895(3) 0.3516(2) 0.61153(18)
H57 H 0.503957 0.364916 0.633646
C60 C 0.4565(4) 0.3143(3) 0.6126(2)
H58 H 0.448211 0.303367 0.635228
C61 C 0.4358(4) 0.2934(3) 0.5802(2)
C62 C 0.4482(5) 0.3107(3) 0.5462(2)
H59 H 0.434707 0.296647 0.524207
C63 C 0.4805(4) 0.3485(3) 0.5453(2)
H60 H 0.487970 0.359785 0.522590
C64 C 0.4026(4) 0.2520(3) 0.5809(2)
C65 C 0.3989(5) 0.2309(4) 0.61466(19)
H61 H 0.418667 0.241589 0.636114
C66 C 0.3655(6) 0.1936(4) 0.61631(19)
H62 H 0.362991 0.179495 0.638872
C67 C 0.3359(5) 0.1776(3) 0.5842(2)
C68 C 0.3397(4) 0.1988(3) 0.5505(2)
C69 C 0.3731(4) 0.2360(3) 0.54888(18)
H63 H 0.375589 0.250115 0.526321
C70 C 0.3016(5) 0.1370(4) 0.5856(3)
C71 C 0.2798(6) 0.1144(4) 0.5543(3)
H64 H 0.290615 0.122244 0.531548
C72 C 0.2438(5) 0.0815(4) 0.5557(2)
H65 H 0.228511 0.068684 0.533610
C73 C 0.2285(4) 0.0659(3) 0.58825(19)
C74 C 0.2526(4) 0.0859(3) 0.6198(2)
H66 H 0.245772 0.074825 0.642708
C75 C 0.2870(5) 0.1222(3) 0.6185(2)
H67 H 0.300271 0.136635 0.640354
C76 C 0.1886(3) 0.0297(2) 0.58902(18)
C77 C 0.2993(8) 0.1994(4) 0.5163(4)
C78 C 0.2925(13) 0.1859(9) 0.4519(5)
H68 H 0.262896 0.206123 0.456384
C79 C 0.2640(12) 0.1452(8) 0.4471(5)
H69 H 0.239231 0.143926 0.465795
H70 H 0.289788 0.121003 0.452454
C80 C 0.2280(10) 0.1335(6) 0.4058(8)
C81 C 0.2764(11) 0.2030(8) 0.3791(7)
C82 C 0.3116(10) 0.2084(8) 0.4215(5)
H71 H 0.348145 0.198043 0.419796
H72 H 0.313871 0.240189 0.427443
C83 C 0.2390(16) 0.2414(11) 0.3776(8)
H73 H 0.259021 0.268890 0.377424
H74 H 0.213995 0.239463 0.355477
H75 H 0.219483 0.240744 0.398882
C84 C 0.3192(14) 0.2022(17) 0.3545(7)
H76 H 0.336739 0.230910 0.355043
H77 H 0.345052 0.179372 0.362680
H78 H 0.303657 0.195663 0.329635
C85 C 0.1730(10) 0.1464(11) 0.4122(10)
H79 H 0.160364 0.126703 0.430260
H80 H 0.173045 0.176807 0.421070
H81 H 0.149552 0.144167 0.389372
C86 C 0.2402(16) 0.0858(9) 0.4001(10)
H82 H 0.225453 0.067957 0.418492
H83 H 0.224508 0.076713 0.375875
H84 H 0.278611 0.081674 0.402144
N1 N 0.6072(2) 0.48331(16) 0.48484(12)
N2 N 0.6193(2) 0.53460(15) 0.17707(13)
N3 N 0.6183(3) 0.6259(2) 0.28898(17)
H85 H 0.650523 0.615350 0.292532
N4 N 0.6385(5) 0.7451(4) 0.2277(3)
N5 N 0.3892(7) 0.8277(4) 0.6204(6)
H86 H 0.391539 0.826495 0.597020
N6 N 0.4080(9) 0.9569(10) 0.6689(11)
N7 N 0.3264(11) 0.1909(9) 0.4867(4)
H87 H 0.361027 0.188632 0.488553
O2 O 0.5317(2) 0.61558(18) 0.30073(13)
O3 O 0.6403(5) 0.7828(3) 0.2091(3)
O4 O 0.55374(18) 0.51945(13) 0.54953(10)
O5 O 0.5660(2) 0.51949(14) 0.61082(11)
O6 O 0.1686(2) 0.92053(15) 0.60716(12)
O7 O 0.15995(19) 0.91996(14) 0.54562(12)
N8 N 0.2489(13) 0.1614(9) 0.3794(8)
O8 O 0.3827(11) 0.7811(7) 0.6691(4)
O9 O 0.54954(19) 0.42328(13) 0.54609(11)
O10 O 0.5576(2) 0.42457(17) 0.60825(12)
O11 O 0.1787(2) 0.01469(16) 0.61999(12)
O12 O 0.1675(2) 0.01385(17) 0.55835(13)
Zn1 Zn 0.60649(3) 0.47091(2) 0.53974(2)
Zn2 Zn 0.61850(3) 0.46894(2) 0.62118(2)
O13 O 0.2505(7) 0.2068(8) 0.5189(7)
O14 O 0.264(2) 0.1341(12) 0.3498(10)
N9 N 0.6193(2) 0.46540(15) 0.67707(13)
O15 O 0.6686(2) 0.42053(15) 0.60716(12)
O16 O 0.65995(19) 0.41996(14) 0.54562(12)
O17 O 0.6787(2) 0.51469(16) 0.61999(12)
O18 O 0.6675(2) 0.51385(17) 0.55835(13)
Zn4 Zn 0.10649(3) 0.97091(2) 0.53974(2)
Zn6 Zn 0.11850(3) 0.96894(2) 0.62118(2)
Zn7 Zn 0.61850(3) 0.53106(2) 0.12118(2)
H88 H 0.231815 0.117755 0.337979
H90 H 0.603016 0.793873 0.201867
C4_2 C 0.0733(3) 0.0221(2) 0.42963(16)
H3_2 H 0.049076 0.042930 0.418213
C5_2 C 0.0751(3) 0.0131(2) 0.46689(16)
H4_2 H 0.051900 0.029122 0.480328
C6_2 C 0.1112(3) 0.0078(3) 0.36941(16)
C9_2 C 0.1141(3) 0.0228(3) 0.29342(17)
C10_2 C 0.0940(3) 0.0564(3) 0.31556(16)
C11_2 C 0.0919(3) 0.0478(3) 0.35312(17)
H7_2 H 0.077287 0.069357 0.367599
C12_2 C 0.1625(4) 0.0170(3) 0.19910(19)
H8_2 H 0.192572 0.006602 0.188707
C13_2 C 0.1608(3) 0.0148(3) 0.23637(18)
H9_2 H 0.190187 0.002401 0.251025
C14_2 C 0.1178(3) 0.0300(2) 0.25339(16)
C15_2 C 0.0756(3) 0.0477(2) 0.23015(16)
H10_2 H 0.045382 0.058690 0.240017
C16_2 C 0.0776(3) 0.0495(2) 0.19245(16)
H11_2 H 0.048522 0.061660 0.177415
C17_2 C 0.0778(4) 0.1022(3) 0.30113(16)
C18_2 C 0.1093(4) 0.1690(3) 0.2700(2)
H12_2 H 0.072871 0.179810 0.272970
C19_2 C 0.1152(5) 0.1660(3) 0.2308(2)
H13_2 H 0.088332 0.145092 0.219562
H14_2 H 0.150359 0.153172 0.228364
C20_2 C 0.1101(7) 0.2087(4) 0.2088(3)
C21_2 C 0.1423(8) 0.2524(5) 0.2677(4)
C22_2 C 0.1501(6) 0.2031(4) 0.2862(3)
H15_2 H 0.186048 0.192309 0.283198
H16_2 H 0.147645 0.205731 0.312610
C23_2 C 0.0961(8) 0.2782(5) 0.2819(4)
H17_2 H 0.102694 0.280963 0.308343
H18_2 H 0.093573 0.307568 0.270902
H19_2 H 0.062839 0.262283 0.275382
C24_2 C 0.1977(9) 0.2768(6) 0.2781(5)
H20_2 H 0.202641 0.282594 0.304269
H21_2 H 0.226438 0.258041 0.271586
H22_2 H 0.197804 0.304715 0.264865
C25_2 C 0.0472(8) 0.2242(4) 0.2016(4)
H23_2 H 0.026301 0.200626 0.188863
H24_2 H 0.033930 0.230020 0.224896
H25_2 H 0.044387 0.250939 0.186765
C26_2 C 0.1294(8) 0.2035(5) 0.1703(3)
H26_2 H 0.110445 0.179074 0.157381
H27_2 H 0.122312 0.230786 0.156465
H28_2 H 0.167450 0.197448 0.173032
C27_2 C 0.0455(3) 0.03422(19) 0.58033(15)
C28_2 C 0.0063(3) 0.0729(2) 0.58046(15)
H29_2 H 0.003504 0.073031 0.636162
C54_2 C 0.0035(16) 0.4503(12) 0.6713(12)
H48_2 H 0.033580 0.431240 0.679438
H49_2 H 0.001356 0.454388 0.644967
H50_2 H 0.008207 0.478964 0.683387
N2_2 N 0.1193(2) 0.03460(15) 0.17707(13)
N3_2 N 0.1183(3) 0.1259(2) 0.28898(17)
H85_2 H 0.150523 0.115350 0.292532
N4_2 N 0.1385(5) 0.2451(4) 0.2277(3)
O2_2 O 0.0317(2) 0.11558(18) 0.30073(13)
O3_2 O 0.1403(5) 0.2828(3) 0.2091(3)
O4_2 O 0.05374(18) 0.01945(13) 0.54953(10)
O5_2 O 0.0660(2) 0.01949(14) 0.61082(11)
Zn7_2 Zn 0.11850(3) 0.03106(2) 0.12118(2)
H90_2 H 0.103016 0.293873 0.201867
C1_2 C 0.1423(3) 0.9614(2) 0.46586(16)
H1_2 H 0.165066 0.939977 0.478039
C2_2 C 0.1456(3) 0.9697(3) 0.42884(17)
H2_2 H 0.172098 0.955728 0.416894
C3_2 C 0.1092(3) 0.9990(3) 0.40933(16)
C7_2 C 0.1310(4) 0.9759(3) 0.34680(19)
H5_2 H 0.143853 0.948929 0.357273
C8_2 C 0.1325(4) 0.9824(3) 0.30991(19)
H6_2 H 0.145745 0.959973 0.295631
C57_2 C 0.0394(3) 0.90837(19) 0.57758(16)
C58_2 C 0.0018(3) 0.8698(2) 0.57778(16)
H57_2 H 0.003957 0.864916 0.633646
N1_2 N 0.1072(2) 0.98331(16) 0.48484(12)
O9_2 O 0.04954(19) 0.92328(13) 0.54609(11)
O10_2 O 0.0576(2) 0.92457(17) 0.60825(12)
N9_2 N 0.1193(2) 0.96540(15) 0.67707(13)
C29_2 C 0.9908(3) 0.0874(3) 0.61417(18)
C30_2 C 0.9559(4) 0.1238(3) 0.6143(2)
H30_2 H 0.947379 0.135346 0.636709
C31_2 C 0.9336(3) 0.1432(3) 0.58113(19)
C32_2 C 0.9481(3) 0.1277(2) 0.54808(18)
H31_2 H 0.933838 0.140947 0.525930
C33_2 C 0.9842(3) 0.0921(2) 0.54774(16)
H32_2 H 0.993507 0.081288 0.525309
C34_2 C 0.8943(4) 0.1813(3) 0.5815(2)
C35_2 C 0.9005(5) 0.2132(4) 0.6094(3)
H33_2 H 0.927972 0.210223 0.628850
C36_2 C 0.8647(5) 0.2506(3) 0.6083(3)
C37_2 C 0.8242(4) 0.2544(3) 0.5801(2)
C38_2 C 0.8160(4) 0.2202(4) 0.5548(3)
H34_2 H 0.785931 0.221384 0.537139
C39_2 C 0.8504(4) 0.1844(3) 0.5547(2)
H35_2 H 0.844246 0.162249 0.536696
C40_2 C 0.7849(4) 0.2930(3) 0.5796(2)
C41_2 C 0.7696(5) 0.3101(3) 0.6120(2)
H36_2 H 0.782724 0.297236 0.634574
C42_2 C 0.7349(4) 0.3462(3) 0.6111(2)
H37_2 H 0.723951 0.357121 0.633006
C43_2 C 0.7160(3) 0.3666(2) 0.57734(17)
C44_2 C 0.7333(3) 0.3510(3) 0.54507(18)
H38_2 H 0.722183 0.365172 0.522677
C45_2 C 0.7674(4) 0.3141(3) 0.5461(2)
H39_2 H 0.778708 0.303406 0.524177
C46_2 C 0.6778(2) 0.40573(19) 0.57680(16)
C47_2 C 0.8797(5) 0.2882(5) 0.6350(4)
C48_2 C 0.8963(8) 0.3714(6) 0.6353(9)
H40_2 H 0.883106 0.362826 0.658739
C49_2 C 0.9477(7) 0.3835(8) 0.6528(9)
H41_2 H 0.970985 0.388318 0.633519
H42_2 H 0.962004 0.357975 0.667294
C50_2 C 0.9530(9) 0.4292(10) 0.6808(9)
C51_2 C 0.8536(8) 0.4501(10) 0.6534(10)
C52_2 C 0.8550(9) 0.4031(7) 0.6268(8)
H43_2 H 0.820847 0.387640 0.627481
H44_2 H 0.856472 0.412734 0.601485
C53_2 C 0.954(2) 0.4090(16) 0.7181(8)
H45_2 H 0.985646 0.390975 0.723366
H46_2 H 0.953785 0.432449 0.736236
H47_2 H 0.922373 0.390492 0.718837
C55_2 C 0.8061(14) 0.4406(13) 0.6738(9)
H51_2 H 0.774314 0.437435 0.656448
H52_2 H 0.812290 0.413283 0.687727
H53_2 H 0.801317 0.464999 0.690408
C56_2 C 0.8447(19) 0.4856(8) 0.6244(13)
H54_2 H 0.808476 0.483521 0.612227
H55_2 H 0.850046 0.514675 0.635691
H56_2 H 0.869779 0.481588 0.606476
N5_2 N 0.8892(7) 0.3277(4) 0.6204(6)
H86_2 H 0.891539 0.326495 0.597020
N6_2 N 0.9080(9) 0.4569(10) 0.6689(11)
O1_2 O 0.9200(11) 0.5015(8) 0.6739(10)
O8_2 O 0.8827(11) 0.2811(7) 0.6691(4)
H89_2 H 0.950022 0.50965 0.659431
C59_2 C 0.9895(3) 0.8516(2) 0.61153(18)
C60_2 C 0.9565(4) 0.8143(3) 0.6126(2)
H58_2 H 0.948211 0.803367 0.635228
C61_2 C 0.9358(4) 0.7934(3) 0.5802(2)
C62_2 C 0.9482(5) 0.8107(3) 0.5462(2)
H59_2 H 0.934707 0.796647 0.524207
C63_2 C 0.9805(4) 0.8485(3) 0.5453(2)
H60_2 H 0.987970 0.859785 0.522590
C64_2 C 0.9026(4) 0.7520(3) 0.5809(2)
C65_2 C 0.8989(5) 0.7309(4) 0.61466(19)
H61_2 H 0.918667 0.741589 0.636114
C66_2 C 0.8655(6) 0.6936(4) 0.61631(19)
H62_2 H 0.862991 0.679495 0.638872
C67_2 C 0.8359(5) 0.6776(3) 0.5842(2)
C68_2 C 0.8397(4) 0.6988(3) 0.5505(2)
C69_2 C 0.8731(4) 0.7360(3) 0.54888(18)
H63_2 H 0.875589 0.750115 0.526321
C70_2 C 0.8016(5) 0.6370(4) 0.5856(3)
C71_2 C 0.7798(6) 0.6144(4) 0.5543(3)
H64_2 H 0.790615 0.622244 0.531548
C72_2 C 0.7438(5) 0.5815(4) 0.5557(2)
H65_2 H 0.728511 0.568684 0.533610
C73_2 C 0.7285(4) 0.5659(3) 0.58825(19)
C74_2 C 0.7526(4) 0.5859(3) 0.6198(2)
H66_2 H 0.745772 0.574825 0.642708
C75_2 C 0.7870(5) 0.6222(3) 0.6185(2)
H67_2 H 0.800271 0.636635 0.640354
C76_2 C 0.6886(3) 0.5297(2) 0.58902(18)
C77_2 C 0.7993(8) 0.6994(4) 0.5163(4)
C78_2 C 0.7925(13) 0.6859(9) 0.4519(5)
H68_2 H 0.762896 0.706123 0.456384
C79_2 C 0.7640(12) 0.6452(8) 0.4471(5)
H69_2 H 0.739231 0.643926 0.465795
H70_2 H 0.789788 0.621003 0.452454
C80_2 C 0.7280(10) 0.6335(6) 0.4058(8)
C81_2 C 0.7764(11) 0.7030(8) 0.3791(7)
C82_2 C 0.8116(10) 0.7084(8) 0.4215(5)
H71_2 H 0.848145 0.698043 0.419796
H72_2 H 0.813871 0.740189 0.427443
C83_2 C 0.7390(16) 0.7414(11) 0.3776(8)
H73_2 H 0.759021 0.768890 0.377424
H74_2 H 0.713995 0.739463 0.355477
H75_2 H 0.719483 0.740744 0.398882
C84_2 C 0.8192(14) 0.7022(17) 0.3545(7)
H76_2 H 0.836739 0.730910 0.355043
H77_2 H 0.845052 0.679372 0.362680
H78_2 H 0.803657 0.695663 0.329635
C85_2 C 0.6730(10) 0.6464(11) 0.4122(10)
H79_2 H 0.660364 0.626703 0.430260
H80_2 H 0.673045 0.676807 0.421070
H81_2 H 0.649552 0.644167 0.389372
C86_2 C 0.7402(16) 0.5858(9) 0.4001(10)
H82_2 H 0.725453 0.567957 0.418492
H83_2 H 0.724508 0.576713 0.375875
H84_2 H 0.778611 0.581674 0.402144
N7_2 N 0.8264(11) 0.6909(9) 0.4867(4)
H87_2 H 0.861027 0.688632 0.488553
N8_2 N 0.7489(13) 0.6614(9) 0.3794(8)
O13_2 O 0.7505(7) 0.7068(8) 0.5189(7)
O14_2 O 0.764(2) 0.6341(12) 0.3498(10)
H88_2 H 0.731815 0.617755 0.337979
Zn3 Zn 0.10649(3) 0.02909(2) 0.03974(2)
C27_3 C 0.5455(3) 0.46578(19) 0.08033(15)
C28_3 C 0.5063(3) 0.4271(2) 0.08046(15)
C29_3 C 0.4908(3) 0.4126(3) 0.11417(18)
H29_3 H 0.503504 0.426969 0.136162
C30_3 C 0.4559(4) 0.3762(3) 0.1143(2)
H30_3 H 0.447379 0.364654 0.136709
C31_3 C 0.4336(3) 0.3568(3) 0.08113(19)
C32_3 C 0.4481(3) 0.3723(2) 0.04808(18)
H31_3 H 0.433838 0.359053 0.025930
C33_3 C 0.4842(3) 0.4079(2) 0.04774(16)
H32_3 H 0.493507 0.418712 0.025309
C34_3 C 0.3943(4) 0.3187(3) 0.0815(2)
C35_3 C 0.4005(5) 0.2868(4) 0.1094(3)
H33_3 H 0.427972 0.289777 0.128850
C36_3 C 0.3647(5) 0.2494(3) 0.1083(3)
C37_3 C 0.3242(4) 0.2456(3) 0.0801(2)
C38_3 C 0.3160(4) 0.2798(4) 0.0548(3)
H34_3 H 0.285931 0.278616 0.037139
C39_3 C 0.3504(4) 0.3156(3) 0.0547(2)
H35_3 H 0.344246 0.337751 0.036696
C40_3 C 0.2849(4) 0.2070(3) 0.0796(2)
C41_3 C 0.2696(5) 0.1899(3) 0.1120(2)
H36_3 H 0.282724 0.202764 0.134574
C42_3 C 0.2349(4) 0.1538(3) 0.1111(2)
H37_3 H 0.223951 0.142879 0.133006
C43_3 C 0.2160(3) 0.1334(2) 0.07734(17)
C44_3 C 0.2333(3) 0.1490(3) 0.04507(18)
H38_3 H 0.222183 0.134828 0.022677
C45_3 C 0.2674(4) 0.1859(3) 0.0461(2)
H39_3 H 0.278708 0.196594 0.024177
C46_3 C 0.1778(2) 0.09427(19) 0.07680(16)
C47_3 C 0.3797(5) 0.2118(5) 0.1350(4)
C48_3 C 0.3963(8) 0.1286(6) 0.1353(9)
H40_3 H 0.383106 0.137174 0.158739
C49_3 C 0.4477(7) 0.1165(8) 0.1528(9)
H41_3 H 0.470985 0.111682 0.133519
H42_3 H 0.462004 0.142025 0.167294
C50_3 C 0.4530(9) 0.0708(10) 0.1808(9)
C51_3 C 0.3536(8) 0.0499(10) 0.1534(10)
C52_3 C 0.3550(9) 0.0969(7) 0.1268(8)
H43_3 H 0.320847 0.112360 0.127481
H44_3 H 0.356472 0.087266 0.101485
C53_3 C 0.454(2) 0.0910(16) 0.2181(8)
H45_3 H 0.485646 0.109025 0.223366
H46_3 H 0.453785 0.067551 0.236236
H47_3 H 0.422373 0.109508 0.218837
C54_3 C 0.5035(16) 0.0497(12) 0.1713(12)
H48_3 H 0.533580 0.068760 0.179438
H49_3 H 0.501356 0.045612 0.144967
H50_3 H 0.508207 0.021036 0.183387
C55_3 C 0.3061(14) 0.0594(13) 0.1738(9)
H51_3 H 0.274314 0.062565 0.156448
H52_3 H 0.312290 0.086717 0.187727
H53_3 H 0.301317 0.035001 0.190408
C56_3 C 0.3447(19) 0.0144(8) 0.1244(13)
H54_3 H 0.308476 0.016479 0.112227
H56_3 H 0.369779 0.018412 0.106476
C57_3 C 0.5394(3) 0.59163(19) 0.07758(16)
C58_3 C 0.5018(3) 0.6302(2) 0.07778(16)
C59_3 C 0.4895(3) 0.6484(2) 0.11153(18)
H57_3 H 0.503957 0.635084 0.133646
C60_3 C 0.4565(4) 0.6857(3) 0.1126(2)
H58_3 H 0.448211 0.696633 0.135228
C61_3 C 0.4358(4) 0.7066(3) 0.0802(2)
C62_3 C 0.4482(5) 0.6893(3) 0.0462(2)
H59_3 H 0.434707 0.703353 0.024207
C63_3 C 0.4805(4) 0.6515(3) 0.0453(2)
H60_3 H 0.487970 0.640215 0.022590
C64_3 C 0.4026(4) 0.7480(3) 0.0809(2)
C65_3 C 0.3989(5) 0.7691(4) 0.11466(19)
H61_3 H 0.418667 0.758411 0.136114
C66_3 C 0.3655(6) 0.8064(4) 0.11631(19)
H62_3 H 0.362991 0.820505 0.138872
C67_3 C 0.3359(5) 0.8224(3) 0.0842(2)
C68_3 C 0.3397(4) 0.8012(3) 0.0505(2)
C69_3 C 0.3731(4) 0.7640(3) 0.04888(18)
H63_3 H 0.375589 0.749885 0.026321
C70_3 C 0.3016(5) 0.8630(4) 0.0856(3)
C71_3 C 0.2798(6) 0.8856(4) 0.0543(3)
H64_3 H 0.290615 0.877756 0.031548
C72_3 C 0.2438(5) 0.9185(4) 0.0557(2)
H65_3 H 0.228511 0.931316 0.033610
C73_3 C 0.2285(4) 0.9341(3) 0.08825(19)
C74_3 C 0.2526(4) 0.9141(3) 0.1198(2)
H66_3 H 0.245772 0.925175 0.142708
C75_3 C 0.2870(5) 0.8778(3) 0.1185(2)
H67_3 H 0.300271 0.863365 0.140354
C76_3 C 0.1886(3) 0.9703(2) 0.08902(18)
C77_3 C 0.2993(8) 0.8006(4) 0.0163(4)
N5_3 N 0.3892(7) 0.1723(4) 0.1204(6)
H86_3 H 0.391539 0.173505 0.097020
N6_3 N 0.4080(9) 0.0431(10) 0.1689(11)
O4_3 O 0.55374(18) 0.48055(13) 0.04953(10)
O5_3 O 0.5660(2) 0.48051(14) 0.11082(11)
O6_2 O 0.1686(2) 0.07947(15) 0.10716(12)
O7_2 O 0.15995(19) 0.08004(14) 0.04562(12)
O8_3 O 0.3827(11) 0.2189(7) 0.1691(4)
O9_3 O 0.54954(19) 0.57672(13) 0.04609(11)
O10_3 O 0.5576(2) 0.57543(17) 0.10825(12)
O11_2 O 0.1787(2) 0.98531(16) 0.11999(12)
O12_2 O 0.1675(2) 0.98615(17) 0.05835(13)
Zn1_2 Zn 0.60649(3) 0.52909(2) 0.03974(2)
O13_3 O 0.2505(7) 0.7932(8) 0.0189(7)
O15_2 O 0.6686(2) 0.57947(15) 0.10716(12)
O16_2 O 0.65995(19) 0.58004(14) 0.04562(12)
O17_2 O 0.6787(2) 0.48531(16) 0.11999(12)
O18_2 O 0.6675(2) 0.48615(17) 0.05835(13)
C1_3 C 0.6423(3) 0.5386(2) 0.96586(16)
H1_3 H 0.665066 0.560023 0.978039
C2_3 C 0.6456(3) 0.5303(3) 0.92884(17)
H2_3 H 0.672098 0.544272 0.916894
C3_3 C 0.6092(3) 0.5010(3) 0.90933(16)
C4_3 C 0.5733(3) 0.4779(2) 0.92963(16)
H3_3 H 0.549076 0.457070 0.918213
C5_3 C 0.5751(3) 0.4869(2) 0.96689(16)
H4_3 H 0.551900 0.470878 0.980328
C6_3 C 0.6112(3) 0.4922(3) 0.86941(16)
C7_3 C 0.6310(4) 0.5241(3) 0.84680(19)
H5_3 H 0.643853 0.551071 0.857273
C8_3 C 0.6325(4) 0.5176(3) 0.80991(19)
H6_3 H 0.645745 0.540027 0.795631
C9_3 C 0.6141(3) 0.4772(3) 0.79342(17)
C10_3 C 0.5940(3) 0.4436(3) 0.81556(16)
C11_3 C 0.5919(3) 0.4522(3) 0.85312(17)
H7_3 H 0.577287 0.430643 0.867599
C12_3 C 0.6625(4) 0.4830(3) 0.69910(19)
H8_3 H 0.692572 0.493398 0.688707
C13_3 C 0.6608(3) 0.4852(3) 0.73637(18)
H9_3 H 0.690187 0.497599 0.751025
C14_3 C 0.6178(3) 0.4700(2) 0.75339(16)
C15_3 C 0.5756(3) 0.4523(2) 0.73015(16)
H10_3 H 0.545382 0.441310 0.740017
C16_3 C 0.5776(3) 0.4505(2) 0.69245(16)
H11_3 H 0.548522 0.438340 0.677415
C17_3 C 0.5778(4) 0.3978(3) 0.80113(16)
C18_3 C 0.6093(4) 0.3310(3) 0.7700(2)
H12_3 H 0.572871 0.320190 0.772970
C19_3 C 0.6152(5) 0.3340(3) 0.7308(2)
H13_3 H 0.588332 0.354908 0.719562
H14_3 H 0.650359 0.346828 0.728364
C20_3 C 0.6101(7) 0.2913(4) 0.7088(3)
C21_3 C 0.6423(8) 0.2476(5) 0.7677(4)
C22_3 C 0.6501(6) 0.2969(4) 0.7862(3)
H15_3 H 0.686048 0.307691 0.783198
H16_3 H 0.647645 0.294269 0.812610
C23_3 C 0.5961(8) 0.2218(5) 0.7819(4)
H17_3 H 0.602694 0.219037 0.808343
H18_3 H 0.593573 0.192432 0.770902
H19_3 H 0.562839 0.237717 0.775382
C24_3 C 0.6977(9) 0.2232(6) 0.7781(5)
H20_3 H 0.702641 0.217406 0.804269
H21_3 H 0.726438 0.241959 0.771586
H22_3 H 0.697804 0.195285 0.764865
C25_3 C 0.5472(8) 0.2758(4) 0.7016(4)
H23_3 H 0.526301 0.299374 0.688863
H24_3 H 0.533930 0.269980 0.724896
H25_3 H 0.544387 0.249061 0.686765
C26_3 C 0.6294(8) 0.2965(5) 0.6703(3)
H26_3 H 0.610445 0.320926 0.657381
H27_3 H 0.622312 0.269214 0.656465
H28_3 H 0.667450 0.302552 0.673032
C78_3 C 0.2925(13) 0.8141(9) 0.9519(5)
H68_3 H 0.262896 0.793877 0.956384
C79_3 C 0.2640(12) 0.8548(8) 0.9471(5)
H69_3 H 0.239231 0.856074 0.965795
H70_3 H 0.289788 0.878997 0.952454
C80_3 C 0.2280(10) 0.8665(6) 0.9058(8)
C81_3 C 0.2764(11) 0.7970(8) 0.8791(7)
C82_3 C 0.3116(10) 0.7916(8) 0.9215(5)
H71_3 H 0.348145 0.801957 0.919796
H72_3 H 0.313871 0.759811 0.927443
C83_3 C 0.2390(16) 0.7586(11) 0.8776(8)
H73_3 H 0.259021 0.731110 0.877424
H74_3 H 0.213995 0.760537 0.855477
H75_3 H 0.219483 0.759256 0.898882
C84_3 C 0.3192(14) 0.7978(17) 0.8545(7)
H76_3 H 0.336739 0.769090 0.855043
H77_3 H 0.345052 0.820628 0.862680
H78_3 H 0.303657 0.804337 0.829635
C85_3 C 0.1730(10) 0.8536(11) 0.9122(10)
H79_3 H 0.160364 0.873297 0.930260
H80_3 H 0.173045 0.823193 0.921070
H81_3 H 0.149552 0.855833 0.889372
C86_3 C 0.2402(16) 0.9142(9) 0.9001(10)
H82_3 H 0.225453 0.932043 0.918492
H83_3 H 0.224508 0.923287 0.875875
H84_3 H 0.278611 0.918326 0.902144
N1_3 N 0.6072(2) 0.51669(16) 0.98484(12)
N3_3 N 0.6183(3) 0.3741(2) 0.78898(17)
H85_3 H 0.650523 0.384650 0.792532
N4_3 N 0.6385(5) 0.2549(4) 0.7277(3)
N7_3 N 0.3264(11) 0.8091(9) 0.9867(4)
H87_3 H 0.361027 0.811368 0.988553
O2_3 O 0.5317(2) 0.38442(18) 0.80073(13)
O3_3 O 0.6403(5) 0.2172(3) 0.7091(3)
N8_3 N 0.2489(13) 0.8386(9) 0.8794(8)
O14_3 O 0.264(2) 0.8659(12) 0.8498(10)
H88_3 H 0.231815 0.882245 0.837979
H90_3 H 0.603016 0.206127 0.701867
C57_4 C 0.0394(3) 0.09163(19) 0.07758(16)
C58_4 C 0.0018(3) 0.1302(2) 0.07778(16)
H57_4 H 0.003957 0.135084 0.133646
O9_4 O 0.04954(19) 0.07672(13) 0.04609(11)
O10_4 O 0.0576(2) 0.07543(17) 0.10825(12)
C27_4 C 0.0455(3) 0.96578(19) 0.08033(15)
C28_4 C 0.0063(3) 0.9271(2) 0.08046(15)
H29_4 H 0.003504 0.926969 0.136162
C54_4 C 0.0035(16) 0.5497(12) 0.1713(12)
H48_4 H 0.033580 0.568760 0.179438
H49_4 H 0.001356 0.545612 0.144967
H50_4 H 0.008207 0.521036 0.183387
O4_4 O 0.05374(18) 0.98055(13) 0.04953(10)
O5_4 O 0.0660(2) 0.98051(14) 0.11082(11)
C4_4 C 0.0733(3) 0.9779(2) 0.92963(16)
H3_4 H 0.049076 0.957070 0.918213
C5_4 C 0.0751(3) 0.9869(2) 0.96689(16)
H4_4 H 0.051900 0.970878 0.980328
C6_4 C 0.1112(3) 0.9922(3) 0.86941(16)
C9_4 C 0.1141(3) 0.9772(3) 0.79342(17)
C10_4 C 0.0940(3) 0.9436(3) 0.81556(16)
C11_4 C 0.0919(3) 0.9522(3) 0.85312(17)
H7_4 H 0.077287 0.930643 0.867599
C12_4 C 0.1625(4) 0.9830(3) 0.69910(19)
H8_4 H 0.192572 0.993398 0.688707
C13_4 C 0.1608(3) 0.9852(3) 0.73637(18)
H9_4 H 0.190187 0.997599 0.751025
C14_4 C 0.1178(3) 0.9700(2) 0.75339(16)
C15_4 C 0.0756(3) 0.9523(2) 0.73015(16)
H10_4 H 0.045382 0.941310 0.740017
C16_4 C 0.0776(3) 0.9505(2) 0.69245(16)
H11_4 H 0.048522 0.938340 0.677415
C17_4 C 0.0778(4) 0.8978(3) 0.80113(16)
C18_4 C 0.1093(4) 0.8310(3) 0.7700(2)
H12_4 H 0.072871 0.820190 0.772970
C19_4 C 0.1152(5) 0.8340(3) 0.7308(2)
H13_4 H 0.088332 0.854908 0.719562
H14_4 H 0.150359 0.846828 0.728364
C20_4 C 0.1101(7) 0.7913(4) 0.7088(3)
C21_4 C 0.1423(8) 0.7476(5) 0.7677(4)
C22_4 C 0.1501(6) 0.7969(4) 0.7862(3)
H15_4 H 0.186048 0.807691 0.783198
H16_4 H 0.147645 0.794269 0.812610
C23_4 C 0.0961(8) 0.7218(5) 0.7819(4)
H17_4 H 0.102694 0.719037 0.808343
H18_4 H 0.093573 0.692432 0.770902
H19_4 H 0.062839 0.737717 0.775382
C24_4 C 0.1977(9) 0.7232(6) 0.7781(5)
H20_4 H 0.202641 0.717406 0.804269
H21_4 H 0.226438 0.741959 0.771586
H22_4 H 0.197804 0.695285 0.764865
C25_4 C 0.0472(8) 0.7758(4) 0.7016(4)
H23_4 H 0.026301 0.799374 0.688863
H24_4 H 0.033930 0.769980 0.724896
H25_4 H 0.044387 0.749061 0.686765
C26_4 C 0.1294(8) 0.7965(5) 0.6703(3)
H26_4 H 0.110445 0.820926 0.657381
H27_4 H 0.122312 0.769214 0.656465
H28_4 H 0.167450 0.802552 0.673032
N3_4 N 0.1183(3) 0.8741(2) 0.78898(17)
H85_4 H 0.150523 0.884650 0.792532
N4_4 N 0.1385(5) 0.7549(4) 0.7277(3)
O2_4 O 0.0317(2) 0.88442(18) 0.80073(13)
O3_4 O 0.1403(5) 0.7172(3) 0.7091(3)
H90_4 H 0.103016 0.706127 0.701867
C59_4 C 0.9895(3) 0.1484(2) 0.11153(18)
C60_4 C 0.9565(4) 0.1857(3) 0.1126(2)
H58_4 H 0.948211 0.196633 0.135228
C61_4 C 0.9358(4) 0.2066(3) 0.0802(2)
C62_4 C 0.9482(5) 0.1893(3) 0.0462(2)
H59_4 H 0.934707 0.203353 0.024207
C63_4 C 0.9805(4) 0.1515(3) 0.0453(2)
H60_4 H 0.987970 0.140215 0.022590
C64_4 C 0.9026(4) 0.2480(3) 0.0809(2)
C65_4 C 0.8989(5) 0.2691(4) 0.11466(19)
H61_4 H 0.918667 0.258411 0.136114
C66_4 C 0.8655(6) 0.3064(4) 0.11631(19)
H62_4 H 0.862991 0.320505 0.138872
C67_4 C 0.8359(5) 0.3224(3) 0.0842(2)
C68_4 C 0.8397(4) 0.3012(3) 0.0505(2)
C69_4 C 0.8731(4) 0.2640(3) 0.04888(18)
H63_4 H 0.875589 0.249885 0.026321
C70_4 C 0.8016(5) 0.3630(4) 0.0856(3)
C71_4 C 0.7798(6) 0.3856(4) 0.0543(3)
H64_4 H 0.790615 0.377756 0.031548
C72_4 C 0.7438(5) 0.4185(4) 0.0557(2)
H65_4 H 0.728511 0.431316 0.033610
C73_4 C 0.7285(4) 0.4341(3) 0.08825(19)
C74_4 C 0.7526(4) 0.4141(3) 0.1198(2)
H66_4 H 0.745772 0.425175 0.142708
C75_4 C 0.7870(5) 0.3778(3) 0.1185(2)
H67_4 H 0.800271 0.363365 0.140354
C76_4 C 0.6886(3) 0.4703(2) 0.08902(18)
C77_4 C 0.7993(8) 0.3006(4) 0.0163(4)
O13_4 O 0.7505(7) 0.2932(8) 0.0189(7)
C29_4 C 0.9908(3) 0.9126(3) 0.11417(18)
C30_4 C 0.9559(4) 0.8762(3) 0.1143(2)
H30_4 H 0.947379 0.864654 0.136709
C31_4 C 0.9336(3) 0.8568(3) 0.08113(19)
C32_4 C 0.9481(3) 0.8723(2) 0.04808(18)
H31_4 H 0.933838 0.859053 0.025930
C33_4 C 0.9842(3) 0.9079(2) 0.04774(16)
H32_4 H 0.993507 0.918712 0.025309
C34_4 C 0.8943(4) 0.8187(3) 0.0815(2)
C35_4 C 0.9005(5) 0.7868(4) 0.1094(3)
H33_4 H 0.927972 0.789777 0.128850
C36_4 C 0.8647(5) 0.7494(3) 0.1083(3)
C37_4 C 0.8242(4) 0.7456(3) 0.0801(2)
C38_4 C 0.8160(4) 0.7798(4) 0.0548(3)
H34_4 H 0.785931 0.778616 0.037139
C39_4 C 0.8504(4) 0.8156(3) 0.0547(2)
H35_4 H 0.844246 0.837751 0.036696
C40_4 C 0.7849(4) 0.7070(3) 0.0796(2)
C41_4 C 0.7696(5) 0.6899(3) 0.1120(2)
H36_4 H 0.782724 0.702764 0.134574
C42_4 C 0.7349(4) 0.6538(3) 0.1111(2)
H37_4 H 0.723951 0.642879 0.133006
C43_4 C 0.7160(3) 0.6334(2) 0.07734(17)
C44_4 C 0.7333(3) 0.6490(3) 0.04507(18)
H38_4 H 0.722183 0.634828 0.022677
C45_4 C 0.7674(4) 0.6859(3) 0.0461(2)
H39_4 H 0.778708 0.696594 0.024177
C46_4 C 0.6778(2) 0.59427(19) 0.07680(16)
C47_4 C 0.8797(5) 0.7118(5) 0.1350(4)
C48_4 C 0.8963(8) 0.6286(6) 0.1353(9)
H40_4 H 0.883106 0.637174 0.158739
C49_4 C 0.9477(7) 0.6165(8) 0.1528(9)
H41_4 H 0.970985 0.611682 0.133519
H42_4 H 0.962004 0.642025 0.167294
C50_4 C 0.9530(9) 0.5708(10) 0.1808(9)
C51_4 C 0.8536(8) 0.5499(10) 0.1534(10)
C52_4 C 0.8550(9) 0.5969(7) 0.1268(8)
H43_4 H 0.820847 0.612360 0.127481
H44_4 H 0.856472 0.587266 0.101485
C53_4 C 0.954(2) 0.5910(16) 0.2181(8)
H45_4 H 0.985646 0.609025 0.223366
H46_4 H 0.953785 0.567551 0.236236
H47_4 H 0.922373 0.609508 0.218837
C55_4 C 0.8061(14) 0.5594(13) 0.1738(9)
H51_4 H 0.774314 0.562565 0.156448
H52_4 H 0.812290 0.586717 0.187727
H53_4 H 0.801317 0.535001 0.190408
C56_4 C 0.8447(19) 0.5144(8) 0.1244(13)
H54_4 H 0.808476 0.516479 0.112227
H55_3 H 0.850046 0.485325 0.135691
H56_4 H 0.869779 0.518412 0.106476
N5_4 N 0.8892(7) 0.6723(4) 0.1204(6)
H86_4 H 0.891539 0.673505 0.097020
N6_4 N 0.9080(9) 0.5431(10) 0.1689(11)
O1_3 O 0.9200(11) 0.4985(8) 0.1739(10)
O8_4 O 0.8827(11) 0.7189(7) 0.1691(4)
H89_3 H 0.950022 0.49035 0.159431
H55_4 H 0.649954 0.014675 0.864309
O1_4 O 0.5800(11) 0.0015(8) 0.8261(10)
H89_4 H 0.549978 0.00964975 0.840569
C1_4 C 0.3577(3) 0.4614(2) 0.03414(16)
H1_4 H 0.334934 0.439977 0.021961
C2_4 C 0.3544(3) 0.4697(3) 0.07116(17)
H2_4 H 0.327902 0.455728 0.083106
C3_4 C 0.3908(3) 0.4990(3) 0.09067(16)
C4_5 C 0.4267(3) 0.5221(2) 0.07037(16)
H3_5 H 0.450924 0.542930 0.081787
C5_5 C 0.4249(3) 0.5131(2) 0.03311(16)
H4_5 H 0.448100 0.529122 0.019672
C6_5 C 0.3888(3) 0.5078(3) 0.13059(16)
C7_4 C 0.3690(4) 0.4759(3) 0.15320(19)
H5_4 H 0.356147 0.448929 0.142727
C8_4 C 0.3675(4) 0.4824(3) 0.19009(19)
H6_4 H 0.354255 0.459973 0.204369
C9_5 C 0.3859(3) 0.5228(3) 0.20658(17)
C10_5 C 0.4060(3) 0.5564(3) 0.18444(16)
C11_5 C 0.4081(3) 0.5478(3) 0.14688(17)
H7_5 H 0.422713 0.569357 0.132401
C12_5 C 0.3375(4) 0.5170(3) 0.30090(19)
H8_5 H 0.307428 0.506602 0.311293
C13_5 C 0.3392(3) 0.5148(3) 0.26363(18)
H9_5 H 0.309813 0.502401 0.248975
C14_5 C 0.3822(3) 0.5300(2) 0.24661(16)
C15_5 C 0.4244(3) 0.5477(2) 0.26985(16)
H10_5 H 0.454618 0.558690 0.259983
C16_5 C 0.4224(3) 0.5495(2) 0.30755(16)
H11_5 H 0.451478 0.561660 0.322585
C17_5 C 0.4222(4) 0.6022(3) 0.19887(16)
C18_5 C 0.3907(4) 0.6690(3) 0.2300(2)
H12_5 H 0.427129 0.679810 0.227030
C19_5 C 0.3848(5) 0.6660(3) 0.2692(2)
H13_5 H 0.411668 0.645092 0.280438
H14_5 H 0.349641 0.653172 0.271636
C20_5 C 0.3899(7) 0.7087(4) 0.2912(3)
C21_5 C 0.3577(8) 0.7524(5) 0.2323(4)
C22_5 C 0.3499(6) 0.7031(4) 0.2138(3)
H15_5 H 0.313952 0.692309 0.216802
H16_5 H 0.352355 0.705731 0.187390
C23_5 C 0.4039(8) 0.7782(5) 0.2181(4)
H17_5 H 0.397306 0.780963 0.191657
H18_5 H 0.406427 0.807568 0.229098
H19_5 H 0.437161 0.762283 0.224618
C24_5 C 0.3023(9) 0.7768(6) 0.2219(5)
H20_5 H 0.297359 0.782594 0.195731
H21_5 H 0.273562 0.758041 0.228414
H22_5 H 0.302196 0.804715 0.235135
C25_5 C 0.4528(8) 0.7242(4) 0.2984(4)
H23_5 H 0.473699 0.700626 0.311137
H24_5 H 0.466070 0.730020 0.275104
H25_5 H 0.455613 0.750939 0.313235
C26_5 C 0.3706(8) 0.7035(5) 0.3297(3)
H26_5 H 0.389555 0.679074 0.342619
H27_5 H 0.377688 0.730786 0.343535
H28_5 H 0.332550 0.697448 0.326968
C78_4 C 0.7075(13) 0.1859(9) 0.0481(5)
H68_4 H 0.737104 0.206123 0.043616
C79_4 C 0.7360(12) 0.1452(8) 0.0529(5)
H69_4 H 0.760769 0.143926 0.034205
H70_4 H 0.710212 0.121003 0.047546
C80_4 C 0.7720(10) 0.1335(6) 0.0942(8)
C81_4 C 0.7236(11) 0.2030(8) 0.1209(7)
C82_4 C 0.6884(10) 0.2084(8) 0.0785(5)
H71_4 H 0.651855 0.198043 0.080204
H72_4 H 0.686129 0.240189 0.072557
C83_4 C 0.7610(16) 0.2414(11) 0.1224(8)
H73_4 H 0.740979 0.268890 0.122576
H74_4 H 0.786005 0.239463 0.144523
H75_4 H 0.780517 0.240744 0.101118
C84_4 C 0.6808(14) 0.2022(17) 0.1455(7)
H76_4 H 0.663261 0.230910 0.144957
H77_4 H 0.654948 0.179372 0.137320
H78_4 H 0.696343 0.195663 0.170365
C85_4 C 0.8270(10) 0.1464(11) 0.0878(10)
H79_4 H 0.839636 0.126703 0.069740
H80_4 H 0.826955 0.176807 0.078930
H81_4 H 0.850448 0.144167 0.110628
C86_4 C 0.7598(16) 0.0858(9) 0.0999(10)
H82_4 H 0.774547 0.067957 0.081508
H83_4 H 0.775492 0.076713 0.124125
H84_4 H 0.721389 0.081674 0.097856
N1_4 N 0.3928(2) 0.48331(16) 0.01516(12)
N2_3 N 0.3807(2) 0.53460(15) 0.32293(13)
N3_5 N 0.3817(3) 0.6259(2) 0.21102(17)
H85_5 H 0.349477 0.615350 0.207468
N4_5 N 0.3615(5) 0.7451(4) 0.2723(3)
N7_4 N 0.6736(11) 0.1909(9) 0.0133(4)
H87_4 H 0.638973 0.188632 0.011447
O2_5 O 0.4683(2) 0.61558(18) 0.19927(13)
O3_5 O 0.3597(5) 0.7828(3) 0.2909(3)
N8_4 N 0.7511(13) 0.1614(9) 0.1206(8)
O14_4 O 0.736(2) 0.1341(12) 0.1502(10)
Zn7_3 Zn 0.38150(3) 0.53106(2) 0.37882(2)
H88_4 H 0.768185 0.117755 0.162021
H90_5 H 0.396984 0.793873 0.298133
C27_5 C 0.4545(3) 0.53422(19) 0.91967(15)
C28_5 C 0.4937(3) 0.5729(2) 0.91954(15)
C29_5 C 0.5092(3) 0.5874(3) 0.88583(18)
H29_5 H 0.496496 0.573031 0.863838
C30_5 C 0.5441(4) 0.6238(3) 0.8857(2)
H30_5 H 0.552621 0.635346 0.863291
C31_5 C 0.5664(3) 0.6432(3) 0.91887(19)
C32_5 C 0.5519(3) 0.6277(2) 0.95192(18)
H31_5 H 0.566162 0.640947 0.974070
C33_5 C 0.5158(3) 0.5921(2) 0.95226(16)
H32_5 H 0.506493 0.581288 0.974691
C34_5 C 0.6057(4) 0.6813(3) 0.9185(2)
C35_5 C 0.5995(5) 0.7132(4) 0.8906(3)
H33_5 H 0.572028 0.710223 0.871150
C36_5 C 0.6353(5) 0.7506(3) 0.8917(3)
C37_5 C 0.6758(4) 0.7544(3) 0.9199(2)
C38_5 C 0.6840(4) 0.7202(4) 0.9452(3)
H34_5 H 0.714069 0.721384 0.962861
C39_5 C 0.6496(4) 0.6844(3) 0.9453(2)
H35_5 H 0.655754 0.662249 0.963304
C40_5 C 0.7151(4) 0.7930(3) 0.9204(2)
C41_5 C 0.7304(5) 0.8101(3) 0.8880(2)
H36_5 H 0.717276 0.797236 0.865426
C42_5 C 0.7651(4) 0.8462(3) 0.8889(2)
H37_5 H 0.776049 0.857121 0.866994
C43_5 C 0.7840(3) 0.8666(2) 0.92266(17)
C44_5 C 0.7667(3) 0.8510(3) 0.95493(18)
H38_5 H 0.777817 0.865172 0.977323
C45_5 C 0.7326(4) 0.8141(3) 0.9539(2)
H39_5 H 0.721292 0.803406 0.975823
C46_5 C 0.8222(2) 0.90573(19) 0.92320(16)
C47_5 C 0.6203(5) 0.7882(5) 0.8650(4)
C48_5 C 0.6037(8) 0.8714(6) 0.8647(9)
H40_5 H 0.616894 0.862826 0.841261
C49_5 C 0.5523(7) 0.8835(8) 0.8472(9)
H41_5 H 0.529015 0.888318 0.866481
H42_5 H 0.537996 0.857975 0.832706
C50_5 C 0.5470(9) 0.9292(10) 0.8192(9)
C51_5 C 0.6464(8) 0.9501(10) 0.8466(10)
C52_5 C 0.6450(9) 0.9031(7) 0.8732(8)
H43_5 H 0.679153 0.887640 0.872519
H44_5 H 0.643528 0.912734 0.898515
C53_5 C 0.546(2) 0.9090(16) 0.7819(8)
H45_5 H 0.514354 0.890975 0.776634
H46_5 H 0.546215 0.932449 0.763764
H47_5 H 0.577627 0.890492 0.781163
C54_5 C 0.4965(16) 0.9503(12) 0.8287(12)
H48_5 H 0.466420 0.931240 0.820562
H49_5 H 0.498644 0.954388 0.855033
H50_5 H 0.491793 0.978964 0.816613
C55_5 C 0.6939(14) 0.9406(13) 0.8262(9)
H51_5 H 0.725686 0.937435 0.843552
H52_5 H 0.687710 0.913283 0.812273
H53_5 H 0.698683 0.964999 0.809592
C56_5 C 0.6553(19) 0.9856(8) 0.8756(13)
H54_5 H 0.691524 0.983521 0.887773
H56_5 H 0.630221 0.981588 0.893524
C57_5 C 0.4606(3) 0.40837(19) 0.92242(16)
C58_5 C 0.4982(3) 0.3698(2) 0.92222(16)
C59_5 C 0.5105(3) 0.3516(2) 0.88847(18)
H57_5 H 0.496043 0.364916 0.866354
C60_5 C 0.5435(4) 0.3143(3) 0.8874(2)
H58_5 H 0.551789 0.303367 0.864772
C61_5 C 0.5642(4) 0.2934(3) 0.9198(2)
C62_5 C 0.5518(5) 0.3107(3) 0.9538(2)
H59_5 H 0.565293 0.296647 0.975793
C63_5 C 0.5195(4) 0.3485(3) 0.9547(2)
H60_5 H 0.512030 0.359785 0.977410
C64_5 C 0.5974(4) 0.2520(3) 0.9191(2)
C65_5 C 0.6011(5) 0.2309(4) 0.88534(19)
H61_5 H 0.581333 0.241589 0.863886
C66_5 C 0.6345(6) 0.1936(4) 0.88369(19)
H62_5 H 0.637009 0.179495 0.861128
C67_5 C 0.6641(5) 0.1776(3) 0.9158(2)
C68_5 C 0.6603(4) 0.1988(3) 0.9495(2)
C69_5 C 0.6269(4) 0.2360(3) 0.95112(18)
H63_5 H 0.624411 0.250115 0.973679
C70_5 C 0.6984(5) 0.1370(4) 0.9144(3)
C71_5 C 0.7202(6) 0.1144(4) 0.9457(3)
H64_5 H 0.709385 0.122244 0.968452
C72_5 C 0.7562(5) 0.0815(4) 0.9443(2)
H65_5 H 0.771489 0.068684 0.966390
C73_5 C 0.7715(4) 0.0659(3) 0.91175(19)
C74_5 C 0.7474(4) 0.0859(3) 0.8802(2)
H66_5 H 0.754228 0.074825 0.857292
C75_5 C 0.7130(5) 0.1222(3) 0.8815(2)
H67_5 H 0.699729 0.136635 0.859646
C76_5 C 0.8114(3) 0.0297(2) 0.91098(18)
C77_5 C 0.7007(8) 0.1994(4) 0.9837(4)
N5_5 N 0.6108(7) 0.8277(4) 0.8796(6)
H86_5 H 0.608461 0.826495 0.902980
N6_5 N 0.5920(9) 0.9569(10) 0.8311(11)
O4_5 O 0.44626(18) 0.51945(13) 0.95047(10)
O5_5 O 0.4340(2) 0.51949(14) 0.88918(11)
O6_3 O 0.8314(2) 0.92053(15) 0.89284(12)
O7_3 O 0.84005(19) 0.91996(14) 0.95438(12)
O8_5 O 0.6173(11) 0.7811(7) 0.8309(4)
O9_5 O 0.45046(19) 0.42328(13) 0.95391(11)
O10_5 O 0.4424(2) 0.42457(17) 0.89175(12)
O11_3 O 0.8213(2) 0.01469(16) 0.88001(12)
O12_3 O 0.8325(2) 0.01385(17) 0.94165(13)
Zn1_3 Zn 0.39351(3) 0.47091(2) 0.96026(2)
Zn2_2 Zn 0.38150(3) 0.46894(2) 0.87882(2)
O13_5 O 0.7495(7) 0.2068(8) 0.9811(7)
N9_3 N 0.3807(2) 0.46540(15) 0.82293(13)
O15_3 O 0.3314(2) 0.42053(15) 0.89284(12)
O16_3 O 0.34005(19) 0.41996(14) 0.95438(12)
O17_3 O 0.3213(2) 0.51469(16) 0.88001(12)
O18_3 O 0.3325(2) 0.51385(17) 0.94165(13)
Zn4_2 Zn 0.89351(3) 0.97091(2) 0.96026(2)
Zn6_2 Zn 0.88150(3) 0.96894(2) 0.87882(2)
C29_6 C 0.0092(3) 0.0874(3) 0.88583(18)
C30_6 C 0.0441(4) 0.1238(3) 0.8857(2)
H30_6 H 0.052621 0.135346 0.863291
C31_6 C 0.0664(3) 0.1432(3) 0.91887(19)
C32_6 C 0.0519(3) 0.1277(2) 0.95192(18)
H31_6 H 0.066162 0.140947 0.974070
C33_6 C 0.0158(3) 0.0921(2) 0.95226(16)
H32_6 H 0.006493 0.081288 0.974691
C34_6 C 0.1057(4) 0.1813(3) 0.9185(2)
C35_6 C 0.0995(5) 0.2132(4) 0.8906(3)
H33_6 H 0.072028 0.210223 0.871150
C36_6 C 0.1353(5) 0.2506(3) 0.8917(3)
C37_6 C 0.1758(4) 0.2544(3) 0.9199(2)
C38_6 C 0.1840(4) 0.2202(4) 0.9452(3)
H34_6 H 0.214069 0.221384 0.962861
C39_6 C 0.1496(4) 0.1844(3) 0.9453(2)
H35_6 H 0.155754 0.162249 0.963304
C40_6 C 0.2151(4) 0.2930(3) 0.9204(2)
C41_6 C 0.2304(5) 0.3101(3) 0.8880(2)
H36_6 H 0.217276 0.297236 0.865426
C42_6 C 0.2651(4) 0.3462(3) 0.8889(2)
H37_6 H 0.276049 0.357121 0.866994
C43_6 C 0.2840(3) 0.3666(2) 0.92266(17)
C44_6 C 0.2667(3) 0.3510(3) 0.95493(18)
H38_6 H 0.277817 0.365172 0.977323
C45_6 C 0.2326(4) 0.3141(3) 0.9539(2)
H39_6 H 0.221292 0.303406 0.975823
C46_6 C 0.3222(2) 0.40573(19) 0.92320(16)
C47_6 C 0.1203(5) 0.2882(5) 0.8650(4)
C48_6 C 0.1037(8) 0.3714(6) 0.8647(9)
H40_6 H 0.116894 0.362826 0.841261
C49_6 C 0.0523(7) 0.3835(8) 0.8472(9)
H41_6 H 0.029015 0.388318 0.866481
H42_6 H 0.037996 0.357975 0.832706
C50_6 C 0.0470(9) 0.4292(10) 0.8192(9)
C51_6 C 0.1464(8) 0.4501(10) 0.8466(10)
C52_6 C 0.1450(9) 0.4031(7) 0.8732(8)
H43_6 H 0.179153 0.387640 0.872519
H44_6 H 0.143528 0.412734 0.898515
C53_6 C 0.046(2) 0.4090(16) 0.7819(8)
H45_6 H 0.014354 0.390975 0.776634
H46_6 H 0.046215 0.432449 0.763764
H47_6 H 0.077627 0.390492 0.781163
C55_6 C 0.1939(14) 0.4406(13) 0.8262(9)
H51_6 H 0.225686 0.437435 0.843552
H52_6 H 0.187710 0.413283 0.812273
H53_6 H 0.198683 0.464999 0.809592
C56_6 C 0.1553(19) 0.4856(8) 0.8756(13)
H54_6 H 0.191524 0.483521 0.887773
H55_5 H 0.149954 0.514675 0.864309
H56_6 H 0.130221 0.481588 0.893524
N5_6 N 0.1108(7) 0.3277(4) 0.8796(6)
H86_6 H 0.108461 0.326495 0.902980
N6_6 N 0.0920(9) 0.4569(10) 0.8311(11)
O1_5 O 0.0800(11) 0.5015(8) 0.8261(10)
O8_6 O 0.1173(11) 0.2811(7) 0.8309(4)
H89_5 H 0.0499783 0.50965 0.840569
C59_6 C 0.0105(3) 0.8516(2) 0.88847(18)
C60_6 C 0.0435(4) 0.8143(3) 0.8874(2)
H58_6 H 0.051789 0.803367 0.864772
C61_6 C 0.0642(4) 0.7934(3) 0.9198(2)
C62_6 C 0.0518(5) 0.8107(3) 0.9538(2)
H59_6 H 0.065293 0.796647 0.975793
C63_6 C 0.0195(4) 0.8485(3) 0.9547(2)
H60_6 H 0.012030 0.859785 0.977410
C64_6 C 0.0974(4) 0.7520(3) 0.9191(2)
C65_6 C 0.1011(5) 0.7309(4) 0.88534(19)
H61_6 H 0.081333 0.741589 0.863886
C66_6 C 0.1345(6) 0.6936(4) 0.88369(19)
H62_6 H 0.137009 0.679495 0.861128
C67_6 C 0.1641(5) 0.6776(3) 0.9158(2)
C68_6 C 0.1603(4) 0.6988(3) 0.9495(2)
C69_6 C 0.1269(4) 0.7360(3) 0.95112(18)
H63_6 H 0.124411 0.750115 0.973679
C70_6 C 0.1984(5) 0.6370(4) 0.9144(3)
C71_6 C 0.2202(6) 0.6144(4) 0.9457(3)
H64_6 H 0.209385 0.622244 0.968452
C72_6 C 0.2562(5) 0.5815(4) 0.9443(2)
H65_6 H 0.271489 0.568684 0.966390
C73_6 C 0.2715(4) 0.5659(3) 0.91175(19)
C74_6 C 0.2474(4) 0.5859(3) 0.8802(2)
H66_6 H 0.254228 0.574825 0.857292
C75_6 C 0.2130(5) 0.6222(3) 0.8815(2)
H67_6 H 0.199729 0.636635 0.859646
C76_6 C 0.3114(3) 0.5297(2) 0.91098(18)
C77_6 C 0.2007(8) 0.6994(4) 0.9837(4)
O13_6 O 0.2495(7) 0.7068(8) 0.9811(7)
C4_6 C 0.9267(3) 0.0221(2) 0.07037(16)
H3_6 H 0.950924 0.042930 0.081787
C5_6 C 0.9249(3) 0.0131(2) 0.03311(16)
H4_6 H 0.948100 0.029122 0.019672
C6_6 C 0.8888(3) 0.0078(3) 0.13059(16)
C9_6 C 0.8859(3) 0.0228(3) 0.20658(17)
C10_6 C 0.9060(3) 0.0564(3) 0.18444(16)
C11_6 C 0.9081(3) 0.0478(3) 0.14688(17)
H7_6 H 0.922713 0.069357 0.132401
C12_6 C 0.8375(4) 0.0170(3) 0.30090(19)
H8_6 H 0.807428 0.006602 0.311293
C13_6 C 0.8392(3) 0.0148(3) 0.26363(18)
H9_6 H 0.809813 0.002401 0.248975
C14_6 C 0.8822(3) 0.0300(2) 0.24661(16)
C15_6 C 0.9244(3) 0.0477(2) 0.26985(16)
H10_6 H 0.954618 0.058690 0.259983
C16_6 C 0.9224(3) 0.0495(2) 0.30755(16)
H11_6 H 0.951478 0.061660 0.322585
C17_6 C 0.9222(4) 0.1022(3) 0.19887(16)
C18_6 C 0.8907(4) 0.1690(3) 0.2300(2)
H12_6 H 0.927129 0.179810 0.227030
C19_6 C 0.8848(5) 0.1660(3) 0.2692(2)
H13_6 H 0.911668 0.145092 0.280438
H14_6 H 0.849641 0.153172 0.271636
C20_6 C 0.8899(7) 0.2087(4) 0.2912(3)
C21_6 C 0.8577(8) 0.2524(5) 0.2323(4)
C22_6 C 0.8499(6) 0.2031(4) 0.2138(3)
H15_6 H 0.813952 0.192309 0.216802
H16_6 H 0.852355 0.205731 0.187390
C23_6 C 0.9039(8) 0.2782(5) 0.2181(4)
H17_6 H 0.897306 0.280963 0.191657
H18_6 H 0.906427 0.307568 0.229098
H19_6 H 0.937161 0.262283 0.224618
C24_6 C 0.8023(9) 0.2768(6) 0.2219(5)
H20_6 H 0.797359 0.282594 0.195731
H21_6 H 0.773562 0.258041 0.228414
H22_6 H 0.802196 0.304715 0.235135
C25_6 C 0.9528(8) 0.2242(4) 0.2984(4)
H23_6 H 0.973699 0.200626 0.311137
H24_6 H 0.966070 0.230020 0.275104
H25_6 H 0.955613 0.250939 0.313235
C26_6 C 0.8706(8) 0.2035(5) 0.3297(3)
H26_6 H 0.889555 0.179074 0.342619
H27_6 H 0.877688 0.230786 0.343535
H28_6 H 0.832550 0.197448 0.326968
N2_4 N 0.8807(2) 0.03460(15) 0.32293(13)
N3_6 N 0.8817(3) 0.1259(2) 0.21102(17)
H85_6 H 0.849477 0.115350 0.207468
N4_6 N 0.8615(5) 0.2451(4) 0.2723(3)
O2_6 O 0.9683(2) 0.11558(18) 0.19927(13)
O3_6 O 0.8597(5) 0.2828(3) 0.2909(3)
Zn7_4 Zn 0.88150(3) 0.03106(2) 0.37882(2)
H90_6 H 0.896984 0.293873 0.298133
C27_6 C 0.9545(3) 0.03422(19) 0.91967(15)
C28_6 C 0.9937(3) 0.0729(2) 0.91954(15)
H29_6 H 0.996496 0.073031 0.863838
C54_6 C 0.9965(16) 0.4503(12) 0.8287(12)
H48_6 H 0.966420 0.431240 0.820562
H49_6 H 0.998644 0.454388 0.855033
H50_6 H 0.991793 0.478964 0.816613
O4_6 O 0.94626(18) 0.01945(13) 0.95047(10)
O5_6 O 0.9340(2) 0.01949(14) 0.88918(11)
C57_6 C 0.9606(3) 0.90837(19) 0.92242(16)
C58_6 C 0.9982(3) 0.8698(2) 0.92222(16)
H57_6 H 0.996043 0.864916 0.866354
O9_6 O 0.95046(19) 0.92328(13) 0.95391(11)
O10_6 O 0.9424(2) 0.92457(17) 0.89175(12)
N9_4 N 0.8807(2) 0.96540(15) 0.82293(13)
Zn3_2 Zn 0.89351(3) 0.02909(2) 0.46026(2)
C1_5 C 0.3577(3) 0.5386(2) 0.53414(16)
H1_5 H 0.334934 0.560023 0.521961
C2_5 C 0.3544(3) 0.5303(3) 0.57116(17)
H2_5 H 0.327902 0.544272 0.583106
C3_5 C 0.3908(3) 0.5010(3) 0.59067(16)
C4_7 C 0.4267(3) 0.4779(2) 0.57037(16)
H3_7 H 0.450924 0.457070 0.581787
C5_7 C 0.4249(3) 0.4869(2) 0.53311(16)
H4_7 H 0.448100 0.470878 0.519672
C6_7 C 0.3888(3) 0.4922(3) 0.63059(16)
C7_5 C 0.3690(4) 0.5241(3) 0.65320(19)
H5_5 H 0.356147 0.551071 0.642727
C8_5 C 0.3675(4) 0.5176(3) 0.69009(19)
H6_5 H 0.354255 0.540027 0.704369
C9_7 C 0.3859(3) 0.4772(3) 0.70658(17)
C10_7 C 0.4060(3) 0.4436(3) 0.68444(16)
C11_7 C 0.4081(3) 0.4522(3) 0.64688(17)
H7_7 H 0.422713 0.430643 0.632401
C12_7 C 0.3375(4) 0.4830(3) 0.80090(19)
H8_7 H 0.307428 0.493398 0.811293
C13_7 C 0.3392(3) 0.4852(3) 0.76363(18)
H9_7 H 0.309813 0.497599 0.748975
C14_7 C 0.3822(3) 0.4700(2) 0.74661(16)
C15_7 C 0.4244(3) 0.4523(2) 0.76985(16)
H10_7 H 0.454618 0.441310 0.759983
C16_7 C 0.4224(3) 0.4505(2) 0.80755(16)
H11_7 H 0.451478 0.438340 0.822585
C17_7 C 0.4222(4) 0.3978(3) 0.69887(16)
C18_7 C 0.3907(4) 0.3310(3) 0.7300(2)
H12_7 H 0.427129 0.320190 0.727030
C19_7 C 0.3848(5) 0.3340(3) 0.7692(2)
H13_7 H 0.411668 0.354908 0.780438
H14_7 H 0.349641 0.346828 0.771636
C20_7 C 0.3899(7) 0.2913(4) 0.7912(3)
C21_7 C 0.3577(8) 0.2476(5) 0.7323(4)
C22_7 C 0.3499(6) 0.2969(4) 0.7138(3)
H15_7 H 0.313952 0.307691 0.716802
H16_7 H 0.352355 0.294269 0.687390
C23_7 C 0.4039(8) 0.2218(5) 0.7181(4)
H17_7 H 0.397306 0.219037 0.691657
H18_7 H 0.406427 0.192432 0.729098
H19_7 H 0.437161 0.237717 0.724618
C24_7 C 0.3023(9) 0.2232(6) 0.7219(5)
H20_7 H 0.297359 0.217406 0.695731
H21_7 H 0.273562 0.241959 0.728414
H22_7 H 0.302196 0.195285 0.735135
C25_7 C 0.4528(8) 0.2758(4) 0.7984(4)
H23_7 H 0.473699 0.299374 0.811137
H24_7 H 0.466070 0.269980 0.775104
H25_7 H 0.455613 0.249061 0.813235
C26_7 C 0.3706(8) 0.2965(5) 0.8297(3)
H26_7 H 0.389555 0.320926 0.842619
H27_7 H 0.377688 0.269214 0.843535
H28_7 H 0.332550 0.302552 0.826968
C27_7 C 0.4545(3) 0.46578(19) 0.41967(15)
C28_7 C 0.4937(3) 0.4271(2) 0.41954(15)
C29_7 C 0.5092(3) 0.4126(3) 0.38583(18)
H29_7 H 0.496496 0.426969 0.363838
C30_7 C 0.5441(4) 0.3762(3) 0.3857(2)
H30_7 H 0.552621 0.364654 0.363291
C31_7 C 0.5664(3) 0.3568(3) 0.41887(19)
C32_7 C 0.5519(3) 0.3723(2) 0.45192(18)
H31_7 H 0.566162 0.359053 0.474070
C33_7 C 0.5158(3) 0.4079(2) 0.45226(16)
H32_7 H 0.506493 0.418712 0.474691
C34_7 C 0.6057(4) 0.3187(3) 0.4185(2)
C35_7 C 0.5995(5) 0.2868(4) 0.3906(3)
H33_7 H 0.572028 0.289777 0.371150
C36_7 C 0.6353(5) 0.2494(3) 0.3917(3)
C37_7 C 0.6758(4) 0.2456(3) 0.4199(2)
C38_7 C 0.6840(4) 0.2798(4) 0.4452(3)
H34_7 H 0.714069 0.278616 0.462861
C39_7 C 0.6496(4) 0.3156(3) 0.4453(2)
H35_7 H 0.655754 0.337751 0.463304
C40_7 C 0.7151(4) 0.2070(3) 0.4204(2)
C41_7 C 0.7304(5) 0.1899(3) 0.3880(2)
H36_7 H 0.717276 0.202764 0.365426
C42_7 C 0.7651(4) 0.1538(3) 0.3889(2)
H37_7 H 0.776049 0.142879 0.366994
C43_7 C 0.7840(3) 0.1334(2) 0.42266(17)
C44_7 C 0.7667(3) 0.1490(3) 0.45493(18)
H38_7 H 0.777817 0.134828 0.477323
C45_7 C 0.7326(4) 0.1859(3) 0.4539(2)
H39_7 H 0.721292 0.196594 0.475823
C46_7 C 0.8222(2) 0.09427(19) 0.42320(16)
C47_7 C 0.6203(5) 0.2118(5) 0.3650(4)
C48_7 C 0.6037(8) 0.1286(6) 0.3647(9)
H40_7 H 0.616894 0.137174 0.341261
C49_7 C 0.5523(7) 0.1165(8) 0.3472(9)
H41_7 H 0.529015 0.111682 0.366481
H42_7 H 0.537996 0.142025 0.332706
C50_7 C 0.5470(9) 0.0708(10) 0.3192(9)
C51_7 C 0.6464(8) 0.0499(10) 0.3466(10)
C52_7 C 0.6450(9) 0.0969(7) 0.3732(8)
H43_7 H 0.679153 0.112360 0.372519
H44_7 H 0.643528 0.087266 0.398515
C53_7 C 0.546(2) 0.0910(16) 0.2819(8)
H45_7 H 0.514354 0.109025 0.276634
H46_7 H 0.546215 0.067551 0.263764
H47_7 H 0.577627 0.109508 0.281163
C54_7 C 0.4965(16) 0.0497(12) 0.3287(12)
H48_7 H 0.466420 0.068760 0.320562
H49_7 H 0.498644 0.045612 0.355033
H50_7 H 0.491793 0.021036 0.316613
C55_7 C 0.6939(14) 0.0594(13) 0.3262(9)
H51_7 H 0.725686 0.062565 0.343552
H52_7 H 0.687710 0.086717 0.312273
H53_7 H 0.698683 0.035001 0.309592
C56_7 C 0.6553(19) 0.0144(8) 0.3756(13)
H54_7 H 0.691524 0.016479 0.387773
H56_7 H 0.630221 0.018412 0.393524
C57_7 C 0.4606(3) 0.59163(19) 0.42242(16)
C58_7 C 0.4982(3) 0.6302(2) 0.42222(16)
C59_7 C 0.5105(3) 0.6484(2) 0.38847(18)
H57_7 H 0.496043 0.635084 0.366354
C60_7 C 0.5435(4) 0.6857(3) 0.3874(2)
H58_7 H 0.551789 0.696633 0.364772
C61_7 C 0.5642(4) 0.7066(3) 0.4198(2)
C62_7 C 0.5518(5) 0.6893(3) 0.4538(2)
H59_7 H 0.565293 0.703353 0.475793
C63_7 C 0.5195(4) 0.6515(3) 0.4547(2)
H60_7 H 0.512030 0.640215 0.477410
C64_7 C 0.5974(4) 0.7480(3) 0.4191(2)
C65_7 C 0.6011(5) 0.7691(4) 0.38534(19)
H61_7 H 0.581333 0.758411 0.363886
C66_7 C 0.6345(6) 0.8064(4) 0.38369(19)
H62_7 H 0.637009 0.820505 0.361128
C67_7 C 0.6641(5) 0.8224(3) 0.4158(2)
C68_7 C 0.6603(4) 0.8012(3) 0.4495(2)
C69_7 C 0.6269(4) 0.7640(3) 0.45112(18)
H63_7 H 0.624411 0.749885 0.473679
C70_7 C 0.6984(5) 0.8630(4) 0.4144(3)
C71_7 C 0.7202(6) 0.8856(4) 0.4457(3)
H64_7 H 0.709385 0.877756 0.468452
C72_7 C 0.7562(5) 0.9185(4) 0.4443(2)
H65_7 H 0.771489 0.931316 0.466390
C73_7 C 0.7715(4) 0.9341(3) 0.41175(19)
C74_7 C 0.7474(4) 0.9141(3) 0.3802(2)
H66_7 H 0.754228 0.925175 0.357292
C75_7 C 0.7130(5) 0.8778(3) 0.3815(2)
H67_7 H 0.699729 0.863365 0.359646
C76_7 C 0.8114(3) 0.9703(2) 0.41098(18)
C77_7 C 0.7007(8) 0.8006(4) 0.4837(4)
C78_5 C 0.7075(13) 0.8141(9) 0.5481(5)
H68_5 H 0.737104 0.793877 0.543616
C79_5 C 0.7360(12) 0.8548(8) 0.5529(5)
H69_5 H 0.760769 0.856074 0.534205
H70_5 H 0.710212 0.878997 0.547546
C80_5 C 0.7720(10) 0.8665(6) 0.5942(8)
C81_5 C 0.7236(11) 0.7970(8) 0.6209(7)
C82_5 C 0.6884(10) 0.7916(8) 0.5785(5)
H71_5 H 0.651855 0.801957 0.580204
H72_5 H 0.686129 0.759811 0.572557
C83_5 C 0.7610(16) 0.7586(11) 0.6224(8)
H73_5 H 0.740979 0.731110 0.622576
H74_5 H 0.786005 0.760537 0.644523
H75_5 H 0.780517 0.759256 0.601118
C84_5 C 0.6808(14) 0.7978(17) 0.6455(7)
H76_5 H 0.663261 0.769090 0.644957
H77_5 H 0.654948 0.820628 0.637320
H78_5 H 0.696343 0.804337 0.670365
C85_5 C 0.8270(10) 0.8536(11) 0.5878(10)
H79_5 H 0.839636 0.873297 0.569740
H80_5 H 0.826955 0.823193 0.578930
H81_5 H 0.850448 0.855833 0.610628
C86_5 C 0.7598(16) 0.9142(9) 0.5999(10)
H82_5 H 0.774547 0.932043 0.581508
H83_5 H 0.775492 0.923287 0.624125
H84_5 H 0.721389 0.918326 0.597856
N1_5 N 0.3928(2) 0.51669(16) 0.51516(12)
N3_7 N 0.3817(3) 0.3741(2) 0.71102(17)
H85_7 H 0.349477 0.384650 0.707468
N4_7 N 0.3615(5) 0.2549(4) 0.7723(3)
N5_7 N 0.6108(7) 0.1723(4) 0.3796(6)
H86_7 H 0.608461 0.173505 0.402980
N6_7 N 0.5920(9) 0.0431(10) 0.3311(11)
N7_5 N 0.6736(11) 0.8091(9) 0.5133(4)
H87_5 H 0.638973 0.811368 0.511447
O2_7 O 0.4683(2) 0.38442(18) 0.69927(13)
O3_7 O 0.3597(5) 0.2172(3) 0.7909(3)
O4_7 O 0.44626(18) 0.48055(13) 0.45047(10)
O5_7 O 0.4340(2) 0.48051(14) 0.38918(11)
O6_4 O 0.8314(2) 0.07947(15) 0.39284(12)
O7_4 O 0.84005(19) 0.08004(14) 0.45438(12)
N8_5 N 0.7511(13) 0.8386(9) 0.6206(8)
O8_7 O 0.6173(11) 0.2189(7) 0.3309(4)
O9_7 O 0.45046(19) 0.57672(13) 0.45391(11)
O10_7 O 0.4424(2) 0.57543(17) 0.39175(12)
O11_4 O 0.8213(2) 0.98531(16) 0.38001(12)
O12_4 O 0.8325(2) 0.98615(17) 0.44165(13)
Zn1_4 Zn 0.39351(3) 0.52909(2) 0.46026(2)
O13_7 O 0.7495(7) 0.7932(8) 0.4811(7)
O14_5 O 0.736(2) 0.8659(12) 0.6502(10)
O15_4 O 0.3314(2) 0.57947(15) 0.39284(12)
O16_4 O 0.34005(19) 0.58004(14) 0.45438(12)
O17_4 O 0.3213(2) 0.48531(16) 0.38001(12)
O18_4 O 0.3325(2) 0.48615(17) 0.44165(13)
H88_5 H 0.768185 0.882245 0.662021
H90_7 H 0.396984 0.206127 0.798133
C59_8 C 0.0105(3) 0.1484(2) 0.38847(18)
C60_8 C 0.0435(4) 0.1857(3) 0.3874(2)
H58_8 H 0.051789 0.196633 0.364772
C61_8 C 0.0642(4) 0.2066(3) 0.4198(2)
C62_8 C 0.0518(5) 0.1893(3) 0.4538(2)
H59_8 H 0.065293 0.203353 0.475793
C63_8 C 0.0195(4) 0.1515(3) 0.4547(2)
H60_8 H 0.012030 0.140215 0.477410
C64_8 C 0.0974(4) 0.2480(3) 0.4191(2)
C65_8 C 0.1011(5) 0.2691(4) 0.38534(19)
H61_8 H 0.081333 0.258411 0.363886
C66_8 C 0.1345(6) 0.3064(4) 0.38369(19)
H62_8 H 0.137009 0.320505 0.361128
C67_8 C 0.1641(5) 0.3224(3) 0.4158(2)
C68_8 C 0.1603(4) 0.3012(3) 0.4495(2)
C69_8 C 0.1269(4) 0.2640(3) 0.45112(18)
H63_8 H 0.124411 0.249885 0.473679
C70_8 C 0.1984(5) 0.3630(4) 0.4144(3)
C71_8 C 0.2202(6) 0.3856(4) 0.4457(3)
H64_8 H 0.209385 0.377756 0.468452
C72_8 C 0.2562(5) 0.4185(4) 0.4443(2)
H65_8 H 0.271489 0.431316 0.466390
C73_8 C 0.2715(4) 0.4341(3) 0.41175(19)
C74_8 C 0.2474(4) 0.4141(3) 0.3802(2)
H66_8 H 0.254228 0.425175 0.357292
C75_8 C 0.2130(5) 0.3778(3) 0.3815(2)
H67_8 H 0.199729 0.363365 0.359646
C76_8 C 0.3114(3) 0.4703(2) 0.41098(18)
C77_8 C 0.2007(8) 0.3006(4) 0.4837(4)
C78_6 C 0.2075(13) 0.3141(9) 0.5481(5)
H68_6 H 0.237104 0.293877 0.543616
C79_6 C 0.2360(12) 0.3548(8) 0.5529(5)
H69_6 H 0.260769 0.356074 0.534205
H70_6 H 0.210212 0.378997 0.547546
C80_6 C 0.2720(10) 0.3665(6) 0.5942(8)
C81_6 C 0.2236(11) 0.2970(8) 0.6209(7)
C82_6 C 0.1884(10) 0.2916(8) 0.5785(5)
H71_6 H 0.151855 0.301957 0.580204
H72_6 H 0.186129 0.259811 0.572557
C83_6 C 0.2610(16) 0.2586(11) 0.6224(8)
H73_6 H 0.240979 0.231110 0.622576
H74_6 H 0.286005 0.260537 0.644523
H75_6 H 0.280517 0.259256 0.601118
C84_6 C 0.1808(14) 0.2978(17) 0.6455(7)
H76_6 H 0.163261 0.269090 0.644957
H77_6 H 0.154948 0.320628 0.637320
H78_6 H 0.196343 0.304337 0.670365
C85_6 C 0.3270(10) 0.3536(11) 0.5878(10)
H79_6 H 0.339636 0.373297 0.569740
H80_6 H 0.326955 0.323193 0.578930
H81_6 H 0.350448 0.355833 0.610628
C86_6 C 0.2598(16) 0.4142(9) 0.5999(10)
H82_6 H 0.274547 0.432043 0.581508
H83_6 H 0.275492 0.423287 0.624125
H84_6 H 0.221389 0.418326 0.597856
N7_6 N 0.1736(11) 0.3091(9) 0.5133(4)
H87_6 H 0.138973 0.311368 0.511447
N8_6 N 0.2511(13) 0.3386(9) 0.6206(8)
O13_8 O 0.2495(7) 0.2932(8) 0.4811(7)
O14_6 O 0.236(2) 0.3659(12) 0.6502(10)
H88_6 H 0.268185 0.382245 0.662021
C29_8 C 0.0092(3) 0.9126(3) 0.38583(18)
C30_8 C 0.0441(4) 0.8762(3) 0.3857(2)
H30_8 H 0.052621 0.864654 0.363291
C31_8 C 0.0664(3) 0.8568(3) 0.41887(19)
C32_8 C 0.0519(3) 0.8723(2) 0.45192(18)
H31_8 H 0.066162 0.859053 0.474070
C33_8 C 0.0158(3) 0.9079(2) 0.45226(16)
H32_8 H 0.006493 0.918712 0.474691
C34_8 C 0.1057(4) 0.8187(3) 0.4185(2)
C35_8 C 0.0995(5) 0.7868(4) 0.3906(3)
H33_8 H 0.072028 0.789777 0.371150
C36_8 C 0.1353(5) 0.7494(3) 0.3917(3)
C37_8 C 0.1758(4) 0.7456(3) 0.4199(2)
C38_8 C 0.1840(4) 0.7798(4) 0.4452(3)
H34_8 H 0.214069 0.778616 0.462861
C39_8 C 0.1496(4) 0.8156(3) 0.4453(2)
H35_8 H 0.155754 0.837751 0.463304
C40_8 C 0.2151(4) 0.7070(3) 0.4204(2)
C41_8 C 0.2304(5) 0.6899(3) 0.3880(2)
H36_8 H 0.217276 0.702764 0.365426
C42_8 C 0.2651(4) 0.6538(3) 0.3889(2)
H37_8 H 0.276049 0.642879 0.366994
C43_8 C 0.2840(3) 0.6334(2) 0.42266(17)
C44_8 C 0.2667(3) 0.6490(3) 0.45493(18)
H38_8 H 0.277817 0.634828 0.477323
C45_8 C 0.2326(4) 0.6859(3) 0.4539(2)
H39_8 H 0.221292 0.696594 0.475823
C46_8 C 0.3222(2) 0.59427(19) 0.42320(16)
C47_8 C 0.1203(5) 0.7118(5) 0.3650(4)
C48_8 C 0.1037(8) 0.6286(6) 0.3647(9)
H40_8 H 0.116894 0.637174 0.341261
C49_8 C 0.0523(7) 0.6165(8) 0.3472(9)
H41_8 H 0.029015 0.611682 0.366481
H42_8 H 0.037996 0.642025 0.332706
C50_8 C 0.0470(9) 0.5708(10) 0.3192(9)
C51_8 C 0.1464(8) 0.5499(10) 0.3466(10)
C52_8 C 0.1450(9) 0.5969(7) 0.3732(8)
H43_8 H 0.179153 0.612360 0.372519
H44_8 H 0.143528 0.587266 0.398515
C53_8 C 0.046(2) 0.5910(16) 0.2819(8)
H45_8 H 0.014354 0.609025 0.276634
H46_8 H 0.046215 0.567551 0.263764
H47_8 H 0.077627 0.609508 0.281163
C55_8 C 0.1939(14) 0.5594(13) 0.3262(9)
H51_8 H 0.225686 0.562565 0.343552
H52_8 H 0.187710 0.586717 0.312273
H53_8 H 0.198683 0.535001 0.309592
C56_8 C 0.1553(19) 0.5144(8) 0.3756(13)
H54_8 H 0.191524 0.516479 0.387773
H55_6 H 0.149954 0.485325 0.364309
H56_8 H 0.130221 0.518412 0.393524
N5_8 N 0.1108(7) 0.6723(4) 0.3796(6)
H86_8 H 0.108461 0.673505 0.402980
N6_8 N 0.0920(9) 0.5431(10) 0.3311(11)
O1_6 O 0.0800(11) 0.4985(8) 0.3261(10)
O8_8 O 0.1173(11) 0.7189(7) 0.3309(4)
H89_6 H 0.0499783 0.49035 0.340569
C1_6 C 0.8577(3) 0.0386(2) 0.53414(16)
H1_6 H 0.834934 0.060023 0.521961
C2_6 C 0.8544(3) 0.0303(3) 0.57116(17)
H2_6 H 0.827902 0.044272 0.583106
C3_6 C 0.8908(3) 0.0010(3) 0.59067(16)
C7_6 C 0.8690(4) 0.0241(3) 0.65320(19)
H5_6 H 0.856147 0.051071 0.642727
C8_6 C 0.8675(4) 0.0176(3) 0.69009(19)
H6_6 H 0.854255 0.040027 0.704369
C57_8 C 0.9606(3) 0.09163(19) 0.42242(16)
C58_8 C 0.9982(3) 0.1302(2) 0.42222(16)
H57_8 H 0.996043 0.135084 0.366354
N1_6 N 0.8928(2) 0.01669(16) 0.51516(12)
O9_8 O 0.95046(19) 0.07672(13) 0.45391(11)
O10_8 O 0.9424(2) 0.07543(17) 0.39175(12)
C4_8 C 0.9267(3) 0.9779(2) 0.57037(16)
H3_8 H 0.950924 0.957070 0.581787
C5_8 C 0.9249(3) 0.9869(2) 0.53311(16)
H4_8 H 0.948100 0.970878 0.519672
C6_8 C 0.8888(3) 0.9922(3) 0.63059(16)
C9_8 C 0.8859(3) 0.9772(3) 0.70658(17)
C10_8 C 0.9060(3) 0.9436(3) 0.68444(16)
C11_8 C 0.9081(3) 0.9522(3) 0.64688(17)
H7_8 H 0.922713 0.930643 0.632401
C12_8 C 0.8375(4) 0.9830(3) 0.80090(19)
H8_8 H 0.807428 0.993398 0.811293
C13_8 C 0.8392(3) 0.9852(3) 0.76363(18)
H9_8 H 0.809813 0.997599 0.748975
C14_8 C 0.8822(3) 0.9700(2) 0.74661(16)
C15_8 C 0.9244(3) 0.9523(2) 0.76985(16)
H10_8 H 0.954618 0.941310 0.759983
C16_8 C 0.9224(3) 0.9505(2) 0.80755(16)
H11_8 H 0.951478 0.938340 0.822585
C17_8 C 0.9222(4) 0.8978(3) 0.69887(16)
C18_8 C 0.8907(4) 0.8310(3) 0.7300(2)
H12_8 H 0.927129 0.820190 0.727030
C19_8 C 0.8848(5) 0.8340(3) 0.7692(2)
H13_8 H 0.911668 0.854908 0.780438
H14_8 H 0.849641 0.846828 0.771636
C20_8 C 0.8899(7) 0.7913(4) 0.7912(3)
C21_8 C 0.8577(8) 0.7476(5) 0.7323(4)
C22_8 C 0.8499(6) 0.7969(4) 0.7138(3)
H15_8 H 0.813952 0.807691 0.716802
H16_8 H 0.852355 0.794269 0.687390
C23_8 C 0.9039(8) 0.7218(5) 0.7181(4)
H17_8 H 0.897306 0.719037 0.691657
H18_8 H 0.906427 0.692432 0.729098
H19_8 H 0.937161 0.737717 0.724618
C24_8 C 0.8023(9) 0.7232(6) 0.7219(5)
H20_8 H 0.797359 0.717406 0.695731
H21_8 H 0.773562 0.741959 0.728414
H22_8 H 0.802196 0.695285 0.735135
C25_8 C 0.9528(8) 0.7758(4) 0.7984(4)
H23_8 H 0.973699 0.799374 0.811137
H24_8 H 0.966070 0.769980 0.775104
H25_8 H 0.955613 0.749061 0.813235
C26_8 C 0.8706(8) 0.7965(5) 0.8297(3)
H26_8 H 0.889555 0.820926 0.842619
H27_8 H 0.877688 0.769214 0.843535
H28_8 H 0.832550 0.802552 0.826968
C27_8 C 0.9545(3) 0.96578(19) 0.41967(15)
C28_8 C 0.9937(3) 0.9271(2) 0.41954(15)
H29_8 H 0.996496 0.926969 0.363838
C54_8 C 0.9965(16) 0.5497(12) 0.3287(12)
H48_8 H 0.966420 0.568760 0.320562
H49_8 H 0.998644 0.545612 0.355033
H50_8 H 0.991793 0.521036 0.316613
N3_8 N 0.8817(3) 0.8741(2) 0.71102(17)
H85_8 H 0.849477 0.884650 0.707468
N4_8 N 0.8615(5) 0.7549(4) 0.7723(3)
O2_8 O 0.9683(2) 0.88442(18) 0.69927(13)
O3_8 O 0.8597(5) 0.7172(3) 0.7909(3)
O4_8 O 0.94626(18) 0.98055(13) 0.45047(10)
O5_8 O 0.9340(2) 0.98051(14) 0.38918(11)
H90_8 H 0.896984 0.706127 0.798133
C78_7 C 0.2075(13) 0.6859(9) 0.0481(5)
H68_7 H 0.237104 0.706123 0.043616
C79_7 C 0.2360(12) 0.6452(8) 0.0529(5)
H69_7 H 0.260769 0.643926 0.034205
H70_7 H 0.210212 0.621003 0.047546
C80_7 C 0.2720(10) 0.6335(6) 0.0942(8)
C81_7 C 0.2236(11) 0.7030(8) 0.1209(7)
C82_7 C 0.1884(10) 0.7084(8) 0.0785(5)
H71_7 H 0.151855 0.698043 0.080204
H72_7 H 0.186129 0.740189 0.072557
C83_7 C 0.2610(16) 0.7414(11) 0.1224(8)
H73_7 H 0.240979 0.768890 0.122576
H74_7 H 0.286005 0.739463 0.144523
H75_7 H 0.280517 0.740744 0.101118
C84_7 C 0.1808(14) 0.7022(17) 0.1455(7)
H76_7 H 0.163261 0.730910 0.144957
H77_7 H 0.154948 0.679372 0.137320
H78_7 H 0.196343 0.695663 0.170365
C85_7 C 0.3270(10) 0.6464(11) 0.0878(10)
H79_7 H 0.339636 0.626703 0.069740
H80_7 H 0.326955 0.676807 0.078930
H81_7 H 0.350448 0.644167 0.110628
C86_7 C 0.2598(16) 0.5858(9) 0.0999(10)
H82_7 H 0.274547 0.567957 0.081508
H83_7 H 0.275492 0.576713 0.124125
H84_7 H 0.221389 0.581674 0.097856
N7_7 N 0.1736(11) 0.6909(9) 0.0133(4)
H87_7 H 0.138973 0.688632 0.011447
N8_7 N 0.2511(13) 0.6614(9) 0.1206(8)
O14_7 O 0.236(2) 0.6341(12) 0.1502(10)
H88_7 H 0.268185 0.617755 0.162021
C1_7 C 0.8577(3) 0.9614(2) 0.03414(16)
H1_7 H 0.834934 0.939977 0.021961
C2_7 C 0.8544(3) 0.9697(3) 0.07116(17)
H2_7 H 0.827902 0.955728 0.083106
C3_7 C 0.8908(3) 0.9990(3) 0.09067(16)
C7_7 C 0.8690(4) 0.9759(3) 0.15320(19)
H5_7 H 0.856147 0.948929 0.142727
C8_7 C 0.8675(4) 0.9824(3) 0.19009(19)
H6_7 H 0.854255 0.959973 0.204369
N1_7 N 0.8928(2) 0.98331(16) 0.01516(12)
H55_7 H 0.649954 0.985325 0.364309
O1_7 O 0.5800(11) 0.9985(8) 0.3261(10)
H89_7 H 0.549978 0.99035 0.340569
H55_8 H 0.350046 0.985325 0.135691
O1_8 O 0.4200(11) 0.9985(8) 0.1739(10)
H89_8 H 0.450022 0.99035 0.159431
C1_8 C 0.1423(3) 0.0386(2) 0.96586(16)
H1_8 H 0.165066 0.060023 0.978039
C2_8 C 0.1456(3) 0.0303(3) 0.92884(17)
H2_8 H 0.172098 0.044272 0.916894
C3_8 C 0.1092(3) 0.0010(3) 0.90933(16)
C7_8 C 0.1310(4) 0.0241(3) 0.84680(19)
H5_8 H 0.143853 0.051071 0.857273
C8_8 C 0.1325(4) 0.0176(3) 0.80991(19)
H6_8 H 0.145745 0.040027 0.795631
N1_8 N 0.1072(2) 0.01669(16) 0.98484(12)
C78_8 C 0.7925(13) 0.3141(9) 0.9519(5)
H68_8 H 0.762896 0.293877 0.956384
C79_8 C 0.7640(12) 0.3548(8) 0.9471(5)
H69_8 H 0.739231 0.356074 0.965795
H70_8 H 0.789788 0.378997 0.952454
C80_8 C 0.7280(10) 0.3665(6) 0.9058(8)
C81_8 C 0.7764(11) 0.2970(8) 0.8791(7)
C82_8 C 0.8116(10) 0.2916(8) 0.9215(5)
H71_8 H 0.848145 0.301957 0.919796
H72_8 H 0.813871 0.259811 0.927443
C83_8 C 0.7390(16) 0.2586(11) 0.8776(8)
H73_8 H 0.759021 0.231110 0.877424
H74_8 H 0.713995 0.260537 0.855477
H75_8 H 0.719483 0.259256 0.898882
C84_8 C 0.8192(14) 0.2978(17) 0.8545(7)
H76_8 H 0.836739 0.269090 0.855043
H77_8 H 0.845052 0.320628 0.862680
H78_8 H 0.803657 0.304337 0.829635
C85_8 C 0.6730(10) 0.3536(11) 0.9122(10)
H79_8 H 0.660364 0.373297 0.930260
H80_8 H 0.673045 0.323193 0.921070
H81_8 H 0.649552 0.355833 0.889372
C86_8 C 0.7402(16) 0.4142(9) 0.9001(10)
H82_8 H 0.725453 0.432043 0.918492
H83_8 H 0.724508 0.423287 0.875875
H84_8 H 0.778611 0.418326 0.902144
N7_8 N 0.8264(11) 0.3091(9) 0.9867(4)
H87_8 H 0.861027 0.311368 0.988553
N8_8 N 0.7489(13) 0.3386(9) 0.8794(8)
O14_8 O 0.764(2) 0.3659(12) 0.8498(10)
H88_8 H 0.731815 0.382245 0.837979
loop_
_geom_bond_atom_site_label_1
_geom_bond_atom_site_label_2
_geom_bond_site_symmetry_1
_geom_bond_site_symmetry_2
O1 H89 1_555 1_555
C1 H1 1_555 1_555
C2 C1 1_555 1_555
H2 C2 1_555 1_555
C3 C2 1_555 1_555
C4 C3 1_555 1_555
H3 C4 1_555 1_555
C5 C4 1_555 1_555
H4 C5 1_555 1_555
C6 C3 1_555 1_555
C7 C6 1_555 1_555
H5 C7 1_555 1_555
C8 C7 1_555 1_555
H6 C8 1_555 1_555
C9 C8 1_555 1_555
C10 C9 1_555 1_555
C11 C6 1_555 1_555
H7 C11 1_555 1_555
C12 H8 1_555 1_555
C13 C12 1_555 1_555
H9 C13 1_555 1_555
C14 C9 1_555 1_555
C15 C14 1_555 1_555
H10 C15 1_555 1_555
C16 C15 1_555 1_555
H11 C16 1_555 1_555
C17 C10 1_555 1_555
C18 H12 1_555 1_555
C19 C18 1_555 1_555
H13 C19 1_555 1_555
H14 C19 1_555 1_555
C20 C19 1_555 1_555
C21 C22 1_555 1_555
C22 C18 1_555 1_555
H15 C22 1_555 1_555
H16 C22 1_555 1_555
C23 C21 1_555 1_555
H17 C23 1_555 1_555
H18 C23 1_555 1_555
H19 C23 1_555 1_555
C24 C21 1_555 1_555
H20 C24 1_555 1_555
H21 C24 1_555 1_555
H22 C24 1_555 1_555
C25 C20 1_555 1_555
H23 C25 1_555 1_555
H24 C25 1_555 1_555
H25 C25 1_555 1_555
C26 C20 1_555 1_555
H26 C26 1_555 1_555
H27 C26 1_555 1_555
H28 C26 1_555 1_555
C27 C28 1_555 1_555
C28 C29 1_555 1_555
C29 H29 1_555 1_555
C30 C29 1_555 1_555
H30 C30 1_555 1_555
C31 C30 1_555 1_555
C32 C31 1_555 1_555
H31 C32 1_555 1_555
C33 C28 1_555 1_555
H32 C33 1_555 1_555
C34 C31 1_555 1_555
C35 C34 1_555 1_555
H33 C35 1_555 1_555
C36 C35 1_555 1_555
C37 C36 1_555 1_555
C38 C37 1_555 1_555
H34 C38 1_555 1_555
C39 C34 1_555 1_555
H35 C39 1_555 1_555
C40 C37 1_555 1_555
C41 C40 1_555 1_555
H36 C41 1_555 1_555
C42 C41 1_555 1_555
H37 C42 1_555 1_555
C43 C42 1_555 1_555
C44 C43 1_555 1_555
H38 C44 1_555 1_555
C45 C40 1_555 1_555
H39 C45 1_555 1_555
C46 C43 1_555 1_555
C47 C36 1_555 1_555
C48 H40 1_555 1_555
C49 C48 1_555 1_555
H41 C49 1_555 1_555
H42 C49 1_555 1_555
C50 C49 1_555 1_555
C51 C52 1_555 1_555
C52 C48 1_555 1_555
H43 C52 1_555 1_555
H44 C52 1_555 1_555
C53 C50 1_555 1_555
H45 C53 1_555 1_555
H46 C53 1_555 1_555
H47 C53 1_555 1_555
C54 C50 1_555 1_555
H48 C54 1_555 1_555
H49 C54 1_555 1_555
H50 C54 1_555 1_555
C55 C51 1_555 1_555
H51 C55 1_555 1_555
H52 C55 1_555 1_555
H53 C55 1_555 1_555
C56 C51 1_555 1_555
H54 C56 1_555 1_555
H56 C56 1_555 1_555
C57 C58 1_555 1_555
C58 C59 1_555 1_555
C59 H57 1_555 1_555
C60 C59 1_555 1_555
H58 C60 1_555 1_555
C61 C60 1_555 1_555
C62 C61 1_555 1_555
H59 C62 1_555 1_555
C63 C58 1_555 1_555
H60 C63 1_555 1_555
C64 C61 1_555 1_555
C65 C64 1_555 1_555
H61 C65 1_555 1_555
C66 C65 1_555 1_555
H62 C66 1_555 1_555
C67 C66 1_555 1_555
C68 C67 1_555 1_555
C69 C64 1_555 1_555
H63 C69 1_555 1_555
C70 C67 1_555 1_555
C71 C70 1_555 1_555
H64 C71 1_555 1_555
C72 C71 1_555 1_555
H65 C72 1_555 1_555
C73 C72 1_555 1_555
C74 C73 1_555 1_555
H66 C74 1_555 1_555
C75 C70 1_555 1_555
H67 C75 1_555 1_555
C76 C73 1_555 1_555
C77 C68 1_555 1_555
C78 H68 1_555 1_555
C79 C78 1_555 1_555
H69 C79 1_555 1_555
H70 C79 1_555 1_555
C80 C79 1_555 1_555
C81 C82 1_555 1_555
C82 C78 1_555 1_555
H71 C82 1_555 1_555
H72 C82 1_555 1_555
C83 C81 1_555 1_555
H73 C83 1_555 1_555
H74 C83 1_555 1_555
H75 C83 1_555 1_555
C84 C81 1_555 1_555
H76 C84 1_555 1_555
H77 C84 1_555 1_555
H78 C84 1_555 1_555
C85 C80 1_555 1_555
H79 C85 1_555 1_555
H80 C85 1_555 1_555
H81 C85 1_555 1_555
C86 C80 1_555 1_555
H82 C86 1_555 1_555
H83 C86 1_555 1_555
H84 C86 1_555 1_555
N1 C1 1_555 1_555
N2 C12 1_555 1_555
N3 C17 1_555 1_555
H85 N3 1_555 1_555
N4 C20 1_555 1_555
N5 C47 1_555 1_555
H86 N5 1_555 1_555
N6 C50 1_555 1_555
N7 C77 1_555 1_555
H87 N7 1_555 1_555
O2 C17 1_555 1_555
O3 N4 1_555 1_555
O4 C27 1_555 1_555
O5 C27 1_555 1_555
O6 C46 1_555 1_555
O7 C46 1_555 1_555
N8 C80 1_555 1_555
O8 C47 1_555 1_555
O9 C57 1_555 1_555
O10 C57 1_555 1_555
O11 C76 1_555 1_555
O12 C76 1_555 1_555
Zn1 N1 1_555 1_555
Zn2 O5 1_555 1_555
O13 C77 1_555 1_555
O14 N8 1_555 1_555
N9 Zn2 1_555 1_555
O15 Zn2 1_555 1_555
O16 Zn1 1_555 1_555
O17 Zn2 1_555 1_555
O18 Zn1 1_555 1_555
Zn4 O7 1_555 1_555
Zn6 O6 1_555 1_555
Zn7 N2 1_555 1_555
C5 N1 1_555 1_555
C10 C11 1_555 1_555
C13 C14 1_555 1_555
C16 N2 1_555 1_555
C18 N3 1_555 1_555
C21 N4 1_555 1_555
C32 C33 1_555 1_555
C38 C39 1_555 1_555
C44 C45 1_555 1_555
C48 N5 1_555 1_555
C51 N6 1_555 1_555
C62 C63 1_555 1_555
C68 C69 1_555 1_555
C74 C75 1_555 1_555
C78 N7 1_555 1_555
C81 N8 1_555 1_555
O4 Zn1 1_555 1_555
O9 Zn1 1_555 1_555
O10 Zn2 1_555 1_555
O14 H88 1_555 1_555
O3 H90 1_555 1_555
H3_2 C4_2 1_555 1_555
C5_2 C4_2 1_555 1_555
H4_2 C5_2 1_555 1_555
C10_2 C9_2 1_555 1_555
C11_2 C6_2 1_555 1_555
H7_2 C11_2 1_555 1_555
C12_2 H8_2 1_555 1_555
C13_2 C12_2 1_555 1_555
H9_2 C13_2 1_555 1_555
C14_2 C9_2 1_555 1_555
C15_2 C14_2 1_555 1_555
H10_2 C15_2 1_555 1_555
C16_2 C15_2 1_555 1_555
H11_2 C16_2 1_555 1_555
C17_2 C10_2 1_555 1_555
C18_2 H12_2 1_555 1_555
C19_2 C18_2 1_555 1_555
H13_2 C19_2 1_555 1_555
H14_2 C19_2 1_555 1_555
C20_2 C19_2 1_555 1_555
C21_2 C22_2 1_555 1_555
C22_2 C18_2 1_555 1_555
H15_2 C22_2 1_555 1_555
H16_2 C22_2 1_555 1_555
C23_2 C21_2 1_555 1_555
H17_2 C23_2 1_555 1_555
H18_2 C23_2 1_555 1_555
H19_2 C23_2 1_555 1_555
C24_2 C21_2 1_555 1_555
H20_2 C24_2 1_555 1_555
H21_2 C24_2 1_555 1_555
H22_2 C24_2 1_555 1_555
C25_2 C20_2 1_555 1_555
H23_2 C25_2 1_555 1_555
H24_2 C25_2 1_555 1_555
H25_2 C25_2 1_555 1_555
C26_2 C20_2 1_555 1_555
H26_2 C26_2 1_555 1_555
H27_2 C26_2 1_555 1_555
H28_2 C26_2 1_555 1_555
C27_2 C28_2 1_555 1_555
H48_2 C54_2 1_555 1_555
H49_2 C54_2 1_555 1_555
H50_2 C54_2 1_555 1_555
N2_2 C12_2 1_555 1_555
N3_2 C17_2 1_555 1_555
H85_2 N3_2 1_555 1_555
N4_2 C20_2 1_555 1_555
O2_2 C17_2 1_555 1_555
O3_2 N4_2 1_555 1_555
O4_2 C27_2 1_555 1_555
O5_2 C27_2 1_555 1_555
Zn7_2 N2_2 1_555 1_555
C10_2 C11_2 1_555 1_555
C13_2 C14_2 1_555 1_555
C16_2 N2_2 1_555 1_555
C18_2 N3_2 1_555 1_555
C21_2 N4_2 1_555 1_555
O3_2 H90_2 1_555 1_555
C1_2 H1_2 1_555 1_555
C2_2 C1_2 1_555 1_555
H2_2 C2_2 1_555 1_555
C3_2 C2_2 1_555 1_555
H5_2 C7_2 1_555 1_555
C8_2 C7_2 1_555 1_555
H6_2 C8_2 1_555 1_555
C57_2 C58_2 1_555 1_555
N1_2 C1_2 1_555 1_555
O9_2 C57_2 1_555 1_555
O10_2 C57_2 1_555 1_555
Zn4 N1_2 1_555 1_555
N9_2 Zn6 1_555 1_555
O9_2 Zn4 1_555 1_555
O10_2 Zn6 1_555 1_555
C30_2 C29_2 1_555 1_555
H30_2 C30_2 1_555 1_555
C31_2 C30_2 1_555 1_555
C32_2 C31_2 1_555 1_555
H31_2 C32_2 1_555 1_555
H32_2 C33_2 1_555 1_555
C34_2 C31_2 1_555 1_555
C35_2 C34_2 1_555 1_555
H33_2 C35_2 1_555 1_555
C36_2 C35_2 1_555 1_555
C37_2 C36_2 1_555 1_555
C38_2 C37_2 1_555 1_555
H34_2 C38_2 1_555 1_555
C39_2 C34_2 1_555 1_555
H35_2 C39_2 1_555 1_555
C40_2 C37_2 1_555 1_555
C41_2 C40_2 1_555 1_555
H36_2 C41_2 1_555 1_555
C42_2 C41_2 1_555 1_555
H37_2 C42_2 1_555 1_555
C43_2 C42_2 1_555 1_555
C44_2 C43_2 1_555 1_555
H38_2 C44_2 1_555 1_555
C45_2 C40_2 1_555 1_555
H39_2 C45_2 1_555 1_555
C46_2 C43_2 1_555 1_555
C47_2 C36_2 1_555 1_555
C48_2 H40_2 1_555 1_555
C49_2 C48_2 1_555 1_555
H41_2 C49_2 1_555 1_555
H42_2 C49_2 1_555 1_555
C50_2 C49_2 1_555 1_555
C51_2 C52_2 1_555 1_555
C52_2 C48_2 1_555 1_555
H43_2 C52_2 1_555 1_555
H44_2 C52_2 1_555 1_555
C53_2 C50_2 1_555 1_555
H45_2 C53_2 1_555 1_555
H46_2 C53_2 1_555 1_555
H47_2 C53_2 1_555 1_555
C55_2 C51_2 1_555 1_555
H51_2 C55_2 1_555 1_555
H52_2 C55_2 1_555 1_555
H53_2 C55_2 1_555 1_555
C56_2 C51_2 1_555 1_555
H54_2 C56_2 1_555 1_555
H55_2 C56_2 1_555 1_555
H56_2 C56_2 1_555 1_555
N5_2 C47_2 1_555 1_555
H86_2 N5_2 1_555 1_555
N6_2 C50_2 1_555 1_555
O1_2 N6_2 1_555 1_555
O15 C46_2 1_555 1_555
O16 C46_2 1_555 1_555
O8_2 C47_2 1_555 1_555
C32_2 C33_2 1_555 1_555
C38_2 C39_2 1_555 1_555
C44_2 C45_2 1_555 1_555
C48_2 N5_2 1_555 1_555
C51_2 N6_2 1_555 1_555
O1_2 H89_2 1_555 1_555
C60_2 C59_2 1_555 1_555
H58_2 C60_2 1_555 1_555
C61_2 C60_2 1_555 1_555
C62_2 C61_2 1_555 1_555
H59_2 C62_2 1_555 1_555
H60_2 C63_2 1_555 1_555
C64_2 C61_2 1_555 1_555
C65_2 C64_2 1_555 1_555
H61_2 C65_2 1_555 1_555
C66_2 C65_2 1_555 1_555
H62_2 C66_2 1_555 1_555
C67_2 C66_2 1_555 1_555
C68_2 C67_2 1_555 1_555
C69_2 C64_2 1_555 1_555
H63_2 C69_2 1_555 1_555
C70_2 C67_2 1_555 1_555
C71_2 C70_2 1_555 1_555
H64_2 C71_2 1_555 1_555
C72_2 C71_2 1_555 1_555
H65_2 C72_2 1_555 1_555
C73_2 C72_2 1_555 1_555
C74_2 C73_2 1_555 1_555
H66_2 C74_2 1_555 1_555
C75_2 C70_2 1_555 1_555
H67_2 C75_2 1_555 1_555
C76_2 C73_2 1_555 1_555
C77_2 C68_2 1_555 1_555
C78_2 H68_2 1_555 1_555
C79_2 C78_2 1_555 1_555
H69_2 C79_2 1_555 1_555
H70_2 C79_2 1_555 1_555
C80_2 C79_2 1_555 1_555
C81_2 C82_2 1_555 1_555
C82_2 C78_2 1_555 1_555
H71_2 C82_2 1_555 1_555
H72_2 C82_2 1_555 1_555
C83_2 C81_2 1_555 1_555
H73_2 C83_2 1_555 1_555
H74_2 C83_2 1_555 1_555
H75_2 C83_2 1_555 1_555
C84_2 C81_2 1_555 1_555
H76_2 C84_2 1_555 1_555
H77_2 C84_2 1_555 1_555
H78_2 C84_2 1_555 1_555
C85_2 C80_2 1_555 1_555
H79_2 C85_2 1_555 1_555
H80_2 C85_2 1_555 1_555
H81_2 C85_2 1_555 1_555
C86_2 C80_2 1_555 1_555
H82_2 C86_2 1_555 1_555
H83_2 C86_2 1_555 1_555
H84_2 C86_2 1_555 1_555
N7_2 C77_2 1_555 1_555
H87_2 N7_2 1_555 1_555
N8_2 C80_2 1_555 1_555
O17 C76_2 1_555 1_555
O18 C76_2 1_555 1_555
O13_2 C77_2 1_555 1_555
O14_2 N8_2 1_555 1_555
C62_2 C63_2 1_555 1_555
C68_2 C69_2 1_555 1_555
C74_2 C75_2 1_555 1_555
C78_2 N7_2 1_555 1_555
C81_2 N8_2 1_555 1_555
O14_2 H88_2 1_555 1_555
C27_3 C28_3 1_555 1_555
C28_3 C29_3 1_555 1_555
C29_3 H29_3 1_555 1_555
C30_3 C29_3 1_555 1_555
H30_3 C30_3 1_555 1_555
C31_3 C30_3 1_555 1_555
C32_3 C31_3 1_555 1_555
H31_3 C32_3 1_555 1_555
C33_3 C28_3 1_555 1_555
H32_3 C33_3 1_555 1_555
C34_3 C31_3 1_555 1_555
C35_3 C34_3 1_555 1_555
H33_3 C35_3 1_555 1_555
C36_3 C35_3 1_555 1_555
C37_3 C36_3 1_555 1_555
C38_3 C37_3 1_555 1_555
H34_3 C38_3 1_555 1_555
C39_3 C34_3 1_555 1_555
H35_3 C39_3 1_555 1_555
C40_3 C37_3 1_555 1_555
C41_3 C40_3 1_555 1_555
H36_3 C41_3 1_555 1_555
C42_3 C41_3 1_555 1_555
H37_3 C42_3 1_555 1_555
C43_3 C42_3 1_555 1_555
C44_3 C43_3 1_555 1_555
H38_3 C44_3 1_555 1_555
C45_3 C40_3 1_555 1_555
H39_3 C45_3 1_555 1_555
C46_3 C43_3 1_555 1_555
C47_3 C36_3 1_555 1_555
C48_3 H40_3 1_555 1_555
C49_3 C48_3 1_555 1_555
H41_3 C49_3 1_555 1_555
H42_3 C49_3 1_555 1_555
C50_3 C49_3 1_555 1_555
C51_3 C52_3 1_555 1_555
C52_3 C48_3 1_555 1_555
H43_3 C52_3 1_555 1_555
H44_3 C52_3 1_555 1_555
C53_3 C50_3 1_555 1_555
H45_3 C53_3 1_555 1_555
H46_3 C53_3 1_555 1_555
H47_3 C53_3 1_555 1_555
C54_3 C50_3 1_555 1_555
H48_3 C54_3 1_555 1_555
H49_3 C54_3 1_555 1_555
H50_3 C54_3 1_555 1_555
C55_3 C51_3 1_555 1_555
H51_3 C55_3 1_555 1_555
H52_3 C55_3 1_555 1_555
H53_3 C55_3 1_555 1_555
C56_3 C51_3 1_555 1_555
H54_3 C56_3 1_555 1_555
H56_3 C56_3 1_555 1_555
C57_3 C58_3 1_555 1_555
C58_3 C59_3 1_555 1_555
C59_3 H57_3 1_555 1_555
C60_3 C59_3 1_555 1_555
H58_3 C60_3 1_555 1_555
C61_3 C60_3 1_555 1_555
C62_3 C61_3 1_555 1_555
H59_3 C62_3 1_555 1_555
C63_3 C58_3 1_555 1_555
H60_3 C63_3 1_555 1_555
C64_3 C61_3 1_555 1_555
C65_3 C64_3 1_555 1_555
H61_3 C65_3 1_555 1_555
C66_3 C65_3 1_555 1_555
H62_3 C66_3 1_555 1_555
C67_3 C66_3 1_555 1_555
C68_3 C67_3 1_555 1_555
C69_3 C64_3 1_555 1_555
H63_3 C69_3 1_555 1_555
C70_3 C67_3 1_555 1_555
C71_3 C70_3 1_555 1_555
H64_3 C71_3 1_555 1_555
C72_3 C71_3 1_555 1_555
H65_3 C72_3 1_555 1_555
C73_3 C72_3 1_555 1_555
C74_3 C73_3 1_555 1_555
H66_3 C74_3 1_555 1_555
C75_3 C70_3 1_555 1_555
H67_3 C75_3 1_555 1_555
C76_3 C73_3 1_555 1_555
C77_3 C68_3 1_555 1_555
N5_3 C47_3 1_555 1_555
H86_3 N5_3 1_555 1_555
N6_3 C50_3 1_555 1_555
O4_3 C27_3 1_555 1_555
O5_3 C27_3 1_555 1_555
O6_2 C46_3 1_555 1_555
O7_2 C46_3 1_555 1_555
O8_3 C47_3 1_555 1_555
O9_3 C57_3 1_555 1_555
O10_3 C57_3 1_555 1_555
O11_2 C76_3 1_555 1_555
O12_2 C76_3 1_555 1_555
Zn7 O5_3 1_555 1_555
O13_3 C77_3 1_555 1_555
O15_2 Zn7 1_555 1_555
O16_2 Zn1_2 1_555 1_555
O17_2 Zn7 1_555 1_555
O18_2 Zn1_2 1_555 1_555
Zn3 O7_2 1_555 1_555
Zn7_2 O6_2 1_555 1_555
C32_3 C33_3 1_555 1_555
C38_3 C39_3 1_555 1_555
C44_3 C45_3 1_555 1_555
C48_3 N5_3 1_555 1_555
C51_3 N6_3 1_555 1_555
C62_3 C63_3 1_555 1_555
C68_3 C69_3 1_555 1_555
C74_3 C75_3 1_555 1_555
O4_3 Zn1_2 1_555 1_555
O9_3 Zn1_2 1_555 1_555
O10_3 Zn7 1_555 1_555
C1_3 H1_3 1_555 1_555
C2_3 C1_3 1_555 1_555
H2_3 C2_3 1_555 1_555
C3_3 C2_3 1_555 1_555
C4_3 C3_3 1_555 1_555
H3_3 C4_3 1_555 1_555
C5_3 C4_3 1_555 1_555
H4_3 C5_3 1_555 1_555
C6_3 C3_3 1_555 1_555
C7_3 C6_3 1_555 1_555
H5_3 C7_3 1_555 1_555
C8_3 C7_3 1_555 1_555
H6_3 C8_3 1_555 1_555
C9_3 C8_3 1_555 1_555
C10_3 C9_3 1_555 1_555
C11_3 C6_3 1_555 1_555
H7_3 C11_3 1_555 1_555
C12_3 H8_3 1_555 1_555
C13_3 C12_3 1_555 1_555
H9_3 C13_3 1_555 1_555
C14_3 C9_3 1_555 1_555
C15_3 C14_3 1_555 1_555
H10_3 C15_3 1_555 1_555
C16_3 C15_3 1_555 1_555
H11_3 C16_3 1_555 1_555
C17_3 C10_3 1_555 1_555
C18_3 H12_3 1_555 1_555
C19_3 C18_3 1_555 1_555
H13_3 C19_3 1_555 1_555
H14_3 C19_3 1_555 1_555
C20_3 C19_3 1_555 1_555
C21_3 C22_3 1_555 1_555
C22_3 C18_3 1_555 1_555
H15_3 C22_3 1_555 1_555
H16_3 C22_3 1_555 1_555
C23_3 C21_3 1_555 1_555
H17_3 C23_3 1_555 1_555
H18_3 C23_3 1_555 1_555
H19_3 C23_3 1_555 1_555
C24_3 C21_3 1_555 1_555
H20_3 C24_3 1_555 1_555
H21_3 C24_3 1_555 1_555
H22_3 C24_3 1_555 1_555
C25_3 C20_3 1_555 1_555
H23_3 C25_3 1_555 1_555
H24_3 C25_3 1_555 1_555
H25_3 C25_3 1_555 1_555
C26_3 C20_3 1_555 1_555
H26_3 C26_3 1_555 1_555
H27_3 C26_3 1_555 1_555
H28_3 C26_3 1_555 1_555
C78_3 H68_3 1_555 1_555
C79_3 C78_3 1_555 1_555
H69_3 C79_3 1_555 1_555
H70_3 C79_3 1_555 1_555
C80_3 C79_3 1_555 1_555
C81_3 C82_3 1_555 1_555
C82_3 C78_3 1_555 1_555
H71_3 C82_3 1_555 1_555
H72_3 C82_3 1_555 1_555
C83_3 C81_3 1_555 1_555
H73_3 C83_3 1_555 1_555
H74_3 C83_3 1_555 1_555
H75_3 C83_3 1_555 1_555
C84_3 C81_3 1_555 1_555
H76_3 C84_3 1_555 1_555
H77_3 C84_3 1_555 1_555
H78_3 C84_3 1_555 1_555
C85_3 C80_3 1_555 1_555
H79_3 C85_3 1_555 1_555
H80_3 C85_3 1_555 1_555
H81_3 C85_3 1_555 1_555
C86_3 C80_3 1_555 1_555
H82_3 C86_3 1_555 1_555
H83_3 C86_3 1_555 1_555
H84_3 C86_3 1_555 1_555
N1_3 C1_3 1_555 1_555
N9 C12_3 1_555 1_555
N3_3 C17_3 1_555 1_555
H85_3 N3_3 1_555 1_555
N4_3 C20_3 1_555 1_555
H87_3 N7_3 1_555 1_555
O2_3 C17_3 1_555 1_555
O3_3 N4_3 1_555 1_555
N8_3 C80_3 1_555 1_555
O14_3 N8_3 1_555 1_555
C5_3 N1_3 1_555 1_555
C10_3 C11_3 1_555 1_555
C13_3 C14_3 1_555 1_555
C16_3 N9 1_555 1_555
C18_3 N3_3 1_555 1_555
C21_3 N4_3 1_555 1_555
C78_3 N7_3 1_555 1_555
C81_3 N8_3 1_555 1_555
O14_3 H88_3 1_555 1_555
O3_3 H90_3 1_555 1_555
C57_4 C58_4 1_555 1_555
O9_4 C57_4 1_555 1_555
O10_4 C57_4 1_555 1_555
O9_4 Zn3 1_555 1_555
O10_4 Zn7_2 1_555 1_555
C27_4 C28_4 1_555 1_555
H48_4 C54_4 1_555 1_555
H49_4 C54_4 1_555 1_555
H50_4 C54_4 1_555 1_555
O4_4 C27_4 1_555 1_555
O5_4 C27_4 1_555 1_555
H3_4 C4_4 1_555 1_555
C5_4 C4_4 1_555 1_555
H4_4 C5_4 1_555 1_555
C10_4 C9_4 1_555 1_555
C11_4 C6_4 1_555 1_555
H7_4 C11_4 1_555 1_555
C12_4 H8_4 1_555 1_555
C13_4 C12_4 1_555 1_555
H9_4 C13_4 1_555 1_555
C14_4 C9_4 1_555 1_555
C15_4 C14_4 1_555 1_555
H10_4 C15_4 1_555 1_555
C16_4 C15_4 1_555 1_555
H11_4 C16_4 1_555 1_555
C17_4 C10_4 1_555 1_555
C18_4 H12_4 1_555 1_555
C19_4 C18_4 1_555 1_555
H13_4 C19_4 1_555 1_555
H14_4 C19_4 1_555 1_555
C20_4 C19_4 1_555 1_555
C21_4 C22_4 1_555 1_555
C22_4 C18_4 1_555 1_555
H15_4 C22_4 1_555 1_555
H16_4 C22_4 1_555 1_555
C23_4 C21_4 1_555 1_555
H17_4 C23_4 1_555 1_555
H18_4 C23_4 1_555 1_555
H19_4 C23_4 1_555 1_555
C24_4 C21_4 1_555 1_555
H20_4 C24_4 1_555 1_555
H21_4 C24_4 1_555 1_555
H22_4 C24_4 1_555 1_555
C25_4 C20_4 1_555 1_555
H23_4 C25_4 1_555 1_555
H24_4 C25_4 1_555 1_555
H25_4 C25_4 1_555 1_555
C26_4 C20_4 1_555 1_555
H26_4 C26_4 1_555 1_555
H27_4 C26_4 1_555 1_555
H28_4 C26_4 1_555 1_555
N9_2 C12_4 1_555 1_555
N3_4 C17_4 1_555 1_555
H85_4 N3_4 1_555 1_555
N4_4 C20_4 1_555 1_555
O2_4 C17_4 1_555 1_555
O3_4 N4_4 1_555 1_555
C10_4 C11_4 1_555 1_555
C13_4 C14_4 1_555 1_555
C16_4 N9_2 1_555 1_555
C18_4 N3_4 1_555 1_555
C21_4 N4_4 1_555 1_555
O3_4 H90_4 1_555 1_555
C60_4 C59_4 1_555 1_555
H58_4 C60_4 1_555 1_555
C61_4 C60_4 1_555 1_555
C62_4 C61_4 1_555 1_555
H59_4 C62_4 1_555 1_555
H60_4 C63_4 1_555 1_555
C64_4 C61_4 1_555 1_555
C65_4 C64_4 1_555 1_555
H61_4 C65_4 1_555 1_555
C66_4 C65_4 1_555 1_555
H62_4 C66_4 1_555 1_555
C67_4 C66_4 1_555 1_555
C68_4 C67_4 1_555 1_555
C69_4 C64_4 1_555 1_555
H63_4 C69_4 1_555 1_555
C70_4 C67_4 1_555 1_555
C71_4 C70_4 1_555 1_555
H64_4 C71_4 1_555 1_555
C72_4 C71_4 1_555 1_555
H65_4 C72_4 1_555 1_555
C73_4 C72_4 1_555 1_555
C74_4 C73_4 1_555 1_555
H66_4 C74_4 1_555 1_555
C75_4 C70_4 1_555 1_555
H67_4 C75_4 1_555 1_555
C76_4 C73_4 1_555 1_555
C77_4 C68_4 1_555 1_555
O17_2 C76_4 1_555 1_555
O18_2 C76_4 1_555 1_555
O13_4 C77_4 1_555 1_555
C62_4 C63_4 1_555 1_555
C68_4 C69_4 1_555 1_555
C74_4 C75_4 1_555 1_555
C30_4 C29_4 1_555 1_555
H30_4 C30_4 1_555 1_555
C31_4 C30_4 1_555 1_555
C32_4 C31_4 1_555 1_555
H31_4 C32_4 1_555 1_555
H32_4 C33_4 1_555 1_555
C34_4 C31_4 1_555 1_555
C35_4 C34_4 1_555 1_555
H33_4 C35_4 1_555 1_555
C36_4 C35_4 1_555 1_555
C37_4 C36_4 1_555 1_555
C38_4 C37_4 1_555 1_555
H34_4 C38_4 1_555 1_555
C39_4 C34_4 1_555 1_555
H35_4 C39_4 1_555 1_555
C40_4 C37_4 1_555 1_555
C41_4 C40_4 1_555 1_555
H36_4 C41_4 1_555 1_555
C42_4 C41_4 1_555 1_555
H37_4 C42_4 1_555 1_555
C43_4 C42_4 1_555 1_555
C44_4 C43_4 1_555 1_555
H38_4 C44_4 1_555 1_555
C45_4 C40_4 1_555 1_555
H39_4 C45_4 1_555 1_555
C46_4 C43_4 1_555 1_555
C47_4 C36_4 1_555 1_555
C48_4 H40_4 1_555 1_555
C49_4 C48_4 1_555 1_555
H41_4 C49_4 1_555 1_555
H42_4 C49_4 1_555 1_555
C50_4 C49_4 1_555 1_555
C51_4 C52_4 1_555 1_555
C52_4 C48_4 1_555 1_555
H43_4 C52_4 1_555 1_555
H44_4 C52_4 1_555 1_555
C53_4 C50_4 1_555 1_555
H45_4 C53_4 1_555 1_555
H46_4 C53_4 1_555 1_555
H47_4 C53_4 1_555 1_555
C55_4 C51_4 1_555 1_555
H51_4 C55_4 1_555 1_555
H52_4 C55_4 1_555 1_555
H53_4 C55_4 1_555 1_555
C56_4 C51_4 1_555 1_555
H54_4 C56_4 1_555 1_555
H55_3 C56_4 1_555 1_555
H56_4 C56_4 1_555 1_555
N5_4 C47_4 1_555 1_555
H86_4 N5_4 1_555 1_555
N6_4 C50_4 1_555 1_555
O1_3 N6_4 1_555 1_555
O15_2 C46_4 1_555 1_555
O16_2 C46_4 1_555 1_555
O8_4 C47_4 1_555 1_555
C32_4 C33_4 1_555 1_555
C38_4 C39_4 1_555 1_555
C44_4 C45_4 1_555 1_555
C48_4 N5_4 1_555 1_555
C51_4 N6_4 1_555 1_555
O1_3 H89_3 1_555 1_555
O1_4 H89_4 1_555 1_555
C1_4 H1_4 1_555 1_555
C2_4 C1_4 1_555 1_555
H2_4 C2_4 1_555 1_555
C3_4 C2_4 1_555 1_555
C4_5 C3_4 1_555 1_555
H3_5 C4_5 1_555 1_555
C5_5 C4_5 1_555 1_555
H4_5 C5_5 1_555 1_555
C6_5 C3_4 1_555 1_555
C7_4 C6_5 1_555 1_555
H5_4 C7_4 1_555 1_555
C8_4 C7_4 1_555 1_555
H6_4 C8_4 1_555 1_555
C9_5 C8_4 1_555 1_555
C10_5 C9_5 1_555 1_555
C11_5 C6_5 1_555 1_555
H7_5 C11_5 1_555 1_555
C12_5 H8_5 1_555 1_555
C13_5 C12_5 1_555 1_555
H9_5 C13_5 1_555 1_555
C14_5 C9_5 1_555 1_555
C15_5 C14_5 1_555 1_555
H10_5 C15_5 1_555 1_555
C16_5 C15_5 1_555 1_555
H11_5 C16_5 1_555 1_555
C17_5 C10_5 1_555 1_555
C18_5 H12_5 1_555 1_555
C19_5 C18_5 1_555 1_555
H13_5 C19_5 1_555 1_555
H14_5 C19_5 1_555 1_555
C20_5 C19_5 1_555 1_555
C21_5 C22_5 1_555 1_555
C22_5 C18_5 1_555 1_555
H15_5 C22_5 1_555 1_555
H16_5 C22_5 1_555 1_555
C23_5 C21_5 1_555 1_555
H17_5 C23_5 1_555 1_555
H18_5 C23_5 1_555 1_555
H19_5 C23_5 1_555 1_555
C24_5 C21_5 1_555 1_555
H20_5 C24_5 1_555 1_555
H21_5 C24_5 1_555 1_555
H22_5 C24_5 1_555 1_555
C25_5 C20_5 1_555 1_555
H23_5 C25_5 1_555 1_555
H24_5 C25_5 1_555 1_555
H25_5 C25_5 1_555 1_555
C26_5 C20_5 1_555 1_555
H26_5 C26_5 1_555 1_555
H27_5 C26_5 1_555 1_555
H28_5 C26_5 1_555 1_555
C78_4 H68_4 1_555 1_555
C79_4 C78_4 1_555 1_555
H69_4 C79_4 1_555 1_555
H70_4 C79_4 1_555 1_555
C80_4 C79_4 1_555 1_555
C81_4 C82_4 1_555 1_555
C82_4 C78_4 1_555 1_555
H71_4 C82_4 1_555 1_555
H72_4 C82_4 1_555 1_555
C83_4 C81_4 1_555 1_555
H73_4 C83_4 1_555 1_555
H74_4 C83_4 1_555 1_555
H75_4 C83_4 1_555 1_555
C84_4 C81_4 1_555 1_555
H76_4 C84_4 1_555 1_555
H77_4 C84_4 1_555 1_555
H78_4 C84_4 1_555 1_555
C85_4 C80_4 1_555 1_555
H79_4 C85_4 1_555 1_555
H80_4 C85_4 1_555 1_555
H81_4 C85_4 1_555 1_555
C86_4 C80_4 1_555 1_555
H82_4 C86_4 1_555 1_555
H83_4 C86_4 1_555 1_555
H84_4 C86_4 1_555 1_555
N1_4 C1_4 1_555 1_555
N2_3 C12_5 1_555 1_555
N3_5 C17_5 1_555 1_555
H85_5 N3_5 1_555 1_555
N4_5 C20_5 1_555 1_555
H87_4 N7_4 1_555 1_555
O2_5 C17_5 1_555 1_555
O3_5 N4_5 1_555 1_555
N8_4 C80_4 1_555 1_555
O14_4 N8_4 1_555 1_555
Zn7_3 N2_3 1_555 1_555
C5_5 N1_4 1_555 1_555
C10_5 C11_5 1_555 1_555
C13_5 C14_5 1_555 1_555
C16_5 N2_3 1_555 1_555
C18_5 N3_5 1_555 1_555
C21_5 N4_5 1_555 1_555
C78_4 N7_4 1_555 1_555
C81_4 N8_4 1_555 1_555
O14_4 H88_4 1_555 1_555
O3_5 H90_5 1_555 1_555
C27_5 C28_5 1_555 1_555
C28_5 C29_5 1_555 1_555
C29_5 H29_5 1_555 1_555
C30_5 C29_5 1_555 1_555
H30_5 C30_5 1_555 1_555
C31_5 C30_5 1_555 1_555
C32_5 C31_5 1_555 1_555
H31_5 C32_5 1_555 1_555
C33_5 C28_5 1_555 1_555
H32_5 C33_5 1_555 1_555
C34_5 C31_5 1_555 1_555
C35_5 C34_5 1_555 1_555
H33_5 C35_5 1_555 1_555
C36_5 C35_5 1_555 1_555
C37_5 C36_5 1_555 1_555
C38_5 C37_5 1_555 1_555
H34_5 C38_5 1_555 1_555
C39_5 C34_5 1_555 1_555
H35_5 C39_5 1_555 1_555
C40_5 C37_5 1_555 1_555
C41_5 C40_5 1_555 1_555
H36_5 C41_5 1_555 1_555
C42_5 C41_5 1_555 1_555
H37_5 C42_5 1_555 1_555
C43_5 C42_5 1_555 1_555
C44_5 C43_5 1_555 1_555
H38_5 C44_5 1_555 1_555
C45_5 C40_5 1_555 1_555
H39_5 C45_5 1_555 1_555
C46_5 C43_5 1_555 1_555
C47_5 C36_5 1_555 1_555
C48_5 H40_5 1_555 1_555
C49_5 C48_5 1_555 1_555
H41_5 C49_5 1_555 1_555
H42_5 C49_5 1_555 1_555
C50_5 C49_5 1_555 1_555
C51_5 C52_5 1_555 1_555
C52_5 C48_5 1_555 1_555
H43_5 C52_5 1_555 1_555
H44_5 C52_5 1_555 1_555
C53_5 C50_5 1_555 1_555
H45_5 C53_5 1_555 1_555
H46_5 C53_5 1_555 1_555
H47_5 C53_5 1_555 1_555
C54_5 C50_5 1_555 1_555
H48_5 C54_5 1_555 1_555
H49_5 C54_5 1_555 1_555
H50_5 C54_5 1_555 1_555
C55_5 C51_5 1_555 1_555
H51_5 C55_5 1_555 1_555
H52_5 C55_5 1_555 1_555
H53_5 C55_5 1_555 1_555
C56_5 C51_5 1_555 1_555
H54_5 C56_5 1_555 1_555
H56_5 C56_5 1_555 1_555
C57_5 C58_5 1_555 1_555
C58_5 C59_5 1_555 1_555
C59_5 H57_5 1_555 1_555
C60_5 C59_5 1_555 1_555
H58_5 C60_5 1_555 1_555
C61_5 C60_5 1_555 1_555
C62_5 C61_5 1_555 1_555
H59_5 C62_5 1_555 1_555
C63_5 C58_5 1_555 1_555
H60_5 C63_5 1_555 1_555
C64_5 C61_5 1_555 1_555
C65_5 C64_5 1_555 1_555
H61_5 C65_5 1_555 1_555
C66_5 C65_5 1_555 1_555
H62_5 C66_5 1_555 1_555
C67_5 C66_5 1_555 1_555
C68_5 C67_5 1_555 1_555
C69_5 C64_5 1_555 1_555
H63_5 C69_5 1_555 1_555
C70_5 C67_5 1_555 1_555
C71_5 C70_5 1_555 1_555
H64_5 C71_5 1_555 1_555
C72_5 C71_5 1_555 1_555
H65_5 C72_5 1_555 1_555
C73_5 C72_5 1_555 1_555
C74_5 C73_5 1_555 1_555
H66_5 C74_5 1_555 1_555
C75_5 C70_5 1_555 1_555
H67_5 C75_5 1_555 1_555
C76_5 C73_5 1_555 1_555
C77_5 C68_5 1_555 1_555
N5_5 C47_5 1_555 1_555
H86_5 N5_5 1_555 1_555
N6_5 C50_5 1_555 1_555
O4_5 C27_5 1_555 1_555
O5_5 C27_5 1_555 1_555
O6_3 C46_5 1_555 1_555
O7_3 C46_5 1_555 1_555
O8_5 C47_5 1_555 1_555
O9_5 C57_5 1_555 1_555
O10_5 C57_5 1_555 1_555
O11_3 C76_5 1_555 1_555
O12_3 C76_5 1_555 1_555
Zn2_2 O5_5 1_555 1_555
O13_5 C77_5 1_555 1_555
N9_3 Zn2_2 1_555 1_555
O15_3 Zn2_2 1_555 1_555
O16_3 Zn1_3 1_555 1_555
O17_3 Zn2_2 1_555 1_555
O18_3 Zn1_3 1_555 1_555
Zn4_2 O7_3 1_555 1_555
Zn6_2 O6_3 1_555 1_555
C32_5 C33_5 1_555 1_555
C38_5 C39_5 1_555 1_555
C44_5 C45_5 1_555 1_555
C48_5 N5_5 1_555 1_555
C51_5 N6_5 1_555 1_555
C62_5 C63_5 1_555 1_555
C68_5 C69_5 1_555 1_555
C74_5 C75_5 1_555 1_555
O4_5 Zn1_3 1_555 1_555
O9_5 Zn1_3 1_555 1_555
O10_5 Zn2_2 1_555 1_555
C30_6 C29_6 1_555 1_555
H30_6 C30_6 1_555 1_555
C31_6 C30_6 1_555 1_555
C32_6 C31_6 1_555 1_555
H31_6 C32_6 1_555 1_555
H32_6 C33_6 1_555 1_555
C34_6 C31_6 1_555 1_555
C35_6 C34_6 1_555 1_555
H33_6 C35_6 1_555 1_555
C36_6 C35_6 1_555 1_555
C37_6 C36_6 1_555 1_555
C38_6 C37_6 1_555 1_555
H34_6 C38_6 1_555 1_555
C39_6 C34_6 1_555 1_555
H35_6 C39_6 1_555 1_555
C40_6 C37_6 1_555 1_555
C41_6 C40_6 1_555 1_555
H36_6 C41_6 1_555 1_555
C42_6 C41_6 1_555 1_555
H37_6 C42_6 1_555 1_555
C43_6 C42_6 1_555 1_555
C44_6 C43_6 1_555 1_555
H38_6 C44_6 1_555 1_555
C45_6 C40_6 1_555 1_555
H39_6 C45_6 1_555 1_555
C46_6 C43_6 1_555 1_555
C47_6 C36_6 1_555 1_555
C48_6 H40_6 1_555 1_555
C49_6 C48_6 1_555 1_555
H41_6 C49_6 1_555 1_555
H42_6 C49_6 1_555 1_555
C50_6 C49_6 1_555 1_555
C51_6 C52_6 1_555 1_555
C52_6 C48_6 1_555 1_555
H43_6 C52_6 1_555 1_555
H44_6 C52_6 1_555 1_555
C53_6 C50_6 1_555 1_555
H45_6 C53_6 1_555 1_555
H46_6 C53_6 1_555 1_555
H47_6 C53_6 1_555 1_555
C55_6 C51_6 1_555 1_555
H51_6 C55_6 1_555 1_555
H52_6 C55_6 1_555 1_555
H53_6 C55_6 1_555 1_555
C56_6 C51_6 1_555 1_555
H54_6 C56_6 1_555 1_555
H55_5 C56_6 1_555 1_555
H56_6 C56_6 1_555 1_555
N5_6 C47_6 1_555 1_555
H86_6 N5_6 1_555 1_555
N6_6 C50_6 1_555 1_555
O1_5 N6_6 1_555 1_555
O15_3 C46_6 1_555 1_555
O16_3 C46_6 1_555 1_555
O8_6 C47_6 1_555 1_555
C32_6 C33_6 1_555 1_555
C38_6 C39_6 1_555 1_555
C44_6 C45_6 1_555 1_555
C48_6 N5_6 1_555 1_555
C51_6 N6_6 1_555 1_555
O1_5 H89_5 1_555 1_555
C60_6 C59_6 1_555 1_555
H58_6 C60_6 1_555 1_555
C61_6 C60_6 1_555 1_555
C62_6 C61_6 1_555 1_555
H59_6 C62_6 1_555 1_555
H60_6 C63_6 1_555 1_555
C64_6 C61_6 1_555 1_555
C65_6 C64_6 1_555 1_555
H61_6 C65_6 1_555 1_555
C66_6 C65_6 1_555 1_555
H62_6 C66_6 1_555 1_555
C67_6 C66_6 1_555 1_555
C68_6 C67_6 1_555 1_555
C69_6 C64_6 1_555 1_555
H63_6 C69_6 1_555 1_555
C70_6 C67_6 1_555 1_555
C71_6 C70_6 1_555 1_555
H64_6 C71_6 1_555 1_555
C72_6 C71_6 1_555 1_555
H65_6 C72_6 1_555 1_555
C73_6 C72_6 1_555 1_555
C74_6 C73_6 1_555 1_555
H66_6 C74_6 1_555 1_555
C75_6 C70_6 1_555 1_555
H67_6 C75_6 1_555 1_555
C76_6 C73_6 1_555 1_555
C77_6 C68_6 1_555 1_555
O17_3 C76_6 1_555 1_555
O18_3 C76_6 1_555 1_555
O13_6 C77_6 1_555 1_555
C62_6 C63_6 1_555 1_555
C68_6 C69_6 1_555 1_555
C74_6 C75_6 1_555 1_555
H3_6 C4_6 1_555 1_555
C5_6 C4_6 1_555 1_555
H4_6 C5_6 1_555 1_555
C10_6 C9_6 1_555 1_555
C11_6 C6_6 1_555 1_555
H7_6 C11_6 1_555 1_555
C12_6 H8_6 1_555 1_555
C13_6 C12_6 1_555 1_555
H9_6 C13_6 1_555 1_555
C14_6 C9_6 1_555 1_555
C15_6 C14_6 1_555 1_555
H10_6 C15_6 1_555 1_555
C16_6 C15_6 1_555 1_555
H11_6 C16_6 1_555 1_555
C17_6 C10_6 1_555 1_555
C18_6 H12_6 1_555 1_555
C19_6 C18_6 1_555 1_555
H13_6 C19_6 1_555 1_555
H14_6 C19_6 1_555 1_555
C20_6 C19_6 1_555 1_555
C21_6 C22_6 1_555 1_555
C22_6 C18_6 1_555 1_555
H15_6 C22_6 1_555 1_555
H16_6 C22_6 1_555 1_555
C23_6 C21_6 1_555 1_555
H17_6 C23_6 1_555 1_555
H18_6 C23_6 1_555 1_555
H19_6 C23_6 1_555 1_555
C24_6 C21_6 1_555 1_555
H20_6 C24_6 1_555 1_555
H21_6 C24_6 1_555 1_555
H22_6 C24_6 1_555 1_555
C25_6 C20_6 1_555 1_555
H23_6 C25_6 1_555 1_555
H24_6 C25_6 1_555 1_555
H25_6 C25_6 1_555 1_555
C26_6 C20_6 1_555 1_555
H26_6 C26_6 1_555 1_555
H27_6 C26_6 1_555 1_555
H28_6 C26_6 1_555 1_555
N2_4 C12_6 1_555 1_555
N3_6 C17_6 1_555 1_555
H85_6 N3_6 1_555 1_555
N4_6 C20_6 1_555 1_555
O2_6 C17_6 1_555 1_555
O3_6 N4_6 1_555 1_555
Zn7_4 N2_4 1_555 1_555
C10_6 C11_6 1_555 1_555
C13_6 C14_6 1_555 1_555
C16_6 N2_4 1_555 1_555
C18_6 N3_6 1_555 1_555
C21_6 N4_6 1_555 1_555
O3_6 H90_6 1_555 1_555
C27_6 C28_6 1_555 1_555
H48_6 C54_6 1_555 1_555
H49_6 C54_6 1_555 1_555
H50_6 C54_6 1_555 1_555
O4_6 C27_6 1_555 1_555
O5_6 C27_6 1_555 1_555
C57_6 C58_6 1_555 1_555
O9_6 C57_6 1_555 1_555
O10_6 C57_6 1_555 1_555
N9_4 Zn6_2 1_555 1_555
O9_6 Zn4_2 1_555 1_555
O10_6 Zn6_2 1_555 1_555
C1_5 H1_5 1_555 1_555
C2_5 C1_5 1_555 1_555
H2_5 C2_5 1_555 1_555
C3_5 C2_5 1_555 1_555
C4_7 C3_5 1_555 1_555
H3_7 C4_7 1_555 1_555
C5_7 C4_7 1_555 1_555
H4_7 C5_7 1_555 1_555
C6_7 C3_5 1_555 1_555
C7_5 C6_7 1_555 1_555
H5_5 C7_5 1_555 1_555
C8_5 C7_5 1_555 1_555
H6_5 C8_5 1_555 1_555
C9_7 C8_5 1_555 1_555
C10_7 C9_7 1_555 1_555
C11_7 C6_7 1_555 1_555
H7_7 C11_7 1_555 1_555
C12_7 H8_7 1_555 1_555
C13_7 C12_7 1_555 1_555
H9_7 C13_7 1_555 1_555
C14_7 C9_7 1_555 1_555
C15_7 C14_7 1_555 1_555
H10_7 C15_7 1_555 1_555
C16_7 C15_7 1_555 1_555
H11_7 C16_7 1_555 1_555
C17_7 C10_7 1_555 1_555
C18_7 H12_7 1_555 1_555
C19_7 C18_7 1_555 1_555
H13_7 C19_7 1_555 1_555
H14_7 C19_7 1_555 1_555
C20_7 C19_7 1_555 1_555
C21_7 C22_7 1_555 1_555
C22_7 C18_7 1_555 1_555
H15_7 C22_7 1_555 1_555
H16_7 C22_7 1_555 1_555
C23_7 C21_7 1_555 1_555
H17_7 C23_7 1_555 1_555
H18_7 C23_7 1_555 1_555
H19_7 C23_7 1_555 1_555
C24_7 C21_7 1_555 1_555
H20_7 C24_7 1_555 1_555
H21_7 C24_7 1_555 1_555
H22_7 C24_7 1_555 1_555
C25_7 C20_7 1_555 1_555
H23_7 C25_7 1_555 1_555
H24_7 C25_7 1_555 1_555
H25_7 C25_7 1_555 1_555
C26_7 C20_7 1_555 1_555
H26_7 C26_7 1_555 1_555
H27_7 C26_7 1_555 1_555
H28_7 C26_7 1_555 1_555
C27_7 C28_7 1_555 1_555
C28_7 C29_7 1_555 1_555
C29_7 H29_7 1_555 1_555
C30_7 C29_7 1_555 1_555
H30_7 C30_7 1_555 1_555
C31_7 C30_7 1_555 1_555
C32_7 C31_7 1_555 1_555
H31_7 C32_7 1_555 1_555
C33_7 C28_7 1_555 1_555
H32_7 C33_7 1_555 1_555
C34_7 C31_7 1_555 1_555
C35_7 C34_7 1_555 1_555
H33_7 C35_7 1_555 1_555
C36_7 C35_7 1_555 1_555
C37_7 C36_7 1_555 1_555
C38_7 C37_7 1_555 1_555
H34_7 C38_7 1_555 1_555
C39_7 C34_7 1_555 1_555
H35_7 C39_7 1_555 1_555
C40_7 C37_7 1_555 1_555
C41_7 C40_7 1_555 1_555
H36_7 C41_7 1_555 1_555
C42_7 C41_7 1_555 1_555
H37_7 C42_7 1_555 1_555
C43_7 C42_7 1_555 1_555
C44_7 C43_7 1_555 1_555
H38_7 C44_7 1_555 1_555
C45_7 C40_7 1_555 1_555
H39_7 C45_7 1_555 1_555
C46_7 C43_7 1_555 1_555
C47_7 C36_7 1_555 1_555
C48_7 H40_7 1_555 1_555
C49_7 C48_7 1_555 1_555
H41_7 C49_7 1_555 1_555
H42_7 C49_7 1_555 1_555
C50_7 C49_7 1_555 1_555
C51_7 C52_7 1_555 1_555
C52_7 C48_7 1_555 1_555
H43_7 C52_7 1_555 1_555
H44_7 C52_7 1_555 1_555
C53_7 C50_7 1_555 1_555
H45_7 C53_7 1_555 1_555
H46_7 C53_7 1_555 1_555
H47_7 C53_7 1_555 1_555
C54_7 C50_7 1_555 1_555
H48_7 C54_7 1_555 1_555
H49_7 C54_7 1_555 1_555
H50_7 C54_7 1_555 1_555
C55_7 C51_7 1_555 1_555
H51_7 C55_7 1_555 1_555
H52_7 C55_7 1_555 1_555
H53_7 C55_7 1_555 1_555
C56_7 C51_7 1_555 1_555
H54_7 C56_7 1_555 1_555
H56_7 C56_7 1_555 1_555
C57_7 C58_7 1_555 1_555
C58_7 C59_7 1_555 1_555
C59_7 H57_7 1_555 1_555
C60_7 C59_7 1_555 1_555
H58_7 C60_7 1_555 1_555
C61_7 C60_7 1_555 1_555
C62_7 C61_7 1_555 1_555
H59_7 C62_7 1_555 1_555
C63_7 C58_7 1_555 1_555
H60_7 C63_7 1_555 1_555
C64_7 C61_7 1_555 1_555
C65_7 C64_7 1_555 1_555
H61_7 C65_7 1_555 1_555
C66_7 C65_7 1_555 1_555
H62_7 C66_7 1_555 1_555
C67_7 C66_7 1_555 1_555
C68_7 C67_7 1_555 1_555
C69_7 C64_7 1_555 1_555
H63_7 C69_7 1_555 1_555
C70_7 C67_7 1_555 1_555
C71_7 C70_7 1_555 1_555
H64_7 C71_7 1_555 1_555
C72_7 C71_7 1_555 1_555
H65_7 C72_7 1_555 1_555
C73_7 C72_7 1_555 1_555
C74_7 C73_7 1_555 1_555
H66_7 C74_7 1_555 1_555
C75_7 C70_7 1_555 1_555
H67_7 C75_7 1_555 1_555
C76_7 C73_7 1_555 1_555
C77_7 C68_7 1_555 1_555
C78_5 H68_5 1_555 1_555
C79_5 C78_5 1_555 1_555
H69_5 C79_5 1_555 1_555
H70_5 C79_5 1_555 1_555
C80_5 C79_5 1_555 1_555
C81_5 C82_5 1_555 1_555
C82_5 C78_5 1_555 1_555
H71_5 C82_5 1_555 1_555
H72_5 C82_5 1_555 1_555
C83_5 C81_5 1_555 1_555
H73_5 C83_5 1_555 1_555
H74_5 C83_5 1_555 1_555
H75_5 C83_5 1_555 1_555
C84_5 C81_5 1_555 1_555
H76_5 C84_5 1_555 1_555
H77_5 C84_5 1_555 1_555
H78_5 C84_5 1_555 1_555
C85_5 C80_5 1_555 1_555
H79_5 C85_5 1_555 1_555
H80_5 C85_5 1_555 1_555
H81_5 C85_5 1_555 1_555
C86_5 C80_5 1_555 1_555
H82_5 C86_5 1_555 1_555
H83_5 C86_5 1_555 1_555
H84_5 C86_5 1_555 1_555
N1_5 C1_5 1_555 1_555
N9_3 C12_7 1_555 1_555
N3_7 C17_7 1_555 1_555
H85_7 N3_7 1_555 1_555
N4_7 C20_7 1_555 1_555
N5_7 C47_7 1_555 1_555
H86_7 N5_7 1_555 1_555
N6_7 C50_7 1_555 1_555
N7_5 C77_7 1_555 1_555
H87_5 N7_5 1_555 1_555
O2_7 C17_7 1_555 1_555
O3_7 N4_7 1_555 1_555
O4_7 C27_7 1_555 1_555
O5_7 C27_7 1_555 1_555
O6_4 C46_7 1_555 1_555
O7_4 C46_7 1_555 1_555
N8_5 C80_5 1_555 1_555
O8_7 C47_7 1_555 1_555
O9_7 C57_7 1_555 1_555
O10_7 C57_7 1_555 1_555
O11_4 C76_7 1_555 1_555
O12_4 C76_7 1_555 1_555
Zn1_4 N1_5 1_555 1_555
Zn7_3 O5_7 1_555 1_555
O13_7 C77_7 1_555 1_555
O14_5 N8_5 1_555 1_555
O15_4 Zn7_3 1_555 1_555
O16_4 Zn1_4 1_555 1_555
O17_4 Zn7_3 1_555 1_555
O18_4 Zn1_4 1_555 1_555
Zn3_2 O7_4 1_555 1_555
Zn7_4 O6_4 1_555 1_555
C5_7 N1_5 1_555 1_555
C10_7 C11_7 1_555 1_555
C13_7 C14_7 1_555 1_555
C16_7 N9_3 1_555 1_555
C18_7 N3_7 1_555 1_555
C21_7 N4_7 1_555 1_555
C32_7 C33_7 1_555 1_555
C38_7 C39_7 1_555 1_555
C44_7 C45_7 1_555 1_555
C48_7 N5_7 1_555 1_555
C51_7 N6_7 1_555 1_555
C62_7 C63_7 1_555 1_555
C68_7 C69_7 1_555 1_555
C74_7 C75_7 1_555 1_555
C78_5 N7_5 1_555 1_555
C81_5 N8_5 1_555 1_555
O4_7 Zn1_4 1_555 1_555
O9_7 Zn1_4 1_555 1_555
O10_7 Zn7_3 1_555 1_555
O14_5 H88_5 1_555 1_555
O3_7 H90_7 1_555 1_555
C60_8 C59_8 1_555 1_555
H58_8 C60_8 1_555 1_555
C61_8 C60_8 1_555 1_555
C62_8 C61_8 1_555 1_555
H59_8 C62_8 1_555 1_555
H60_8 C63_8 1_555 1_555
C64_8 C61_8 1_555 1_555
C65_8 C64_8 1_555 1_555
H61_8 C65_8 1_555 1_555
C66_8 C65_8 1_555 1_555
H62_8 C66_8 1_555 1_555
C67_8 C66_8 1_555 1_555
C68_8 C67_8 1_555 1_555
C69_8 C64_8 1_555 1_555
H63_8 C69_8 1_555 1_555
C70_8 C67_8 1_555 1_555
C71_8 C70_8 1_555 1_555
H64_8 C71_8 1_555 1_555
C72_8 C71_8 1_555 1_555
H65_8 C72_8 1_555 1_555
C73_8 C72_8 1_555 1_555
C74_8 C73_8 1_555 1_555
H66_8 C74_8 1_555 1_555
C75_8 C70_8 1_555 1_555
H67_8 C75_8 1_555 1_555
C76_8 C73_8 1_555 1_555
C77_8 C68_8 1_555 1_555
C78_6 H68_6 1_555 1_555
C79_6 C78_6 1_555 1_555
H69_6 C79_6 1_555 1_555
H70_6 C79_6 1_555 1_555
C80_6 C79_6 1_555 1_555
C81_6 C82_6 1_555 1_555
C82_6 C78_6 1_555 1_555
H71_6 C82_6 1_555 1_555
H72_6 C82_6 1_555 1_555
C83_6 C81_6 1_555 1_555
H73_6 C83_6 1_555 1_555
H74_6 C83_6 1_555 1_555
H75_6 C83_6 1_555 1_555
C84_6 C81_6 1_555 1_555
H76_6 C84_6 1_555 1_555
H77_6 C84_6 1_555 1_555
H78_6 C84_6 1_555 1_555
C85_6 C80_6 1_555 1_555
H79_6 C85_6 1_555 1_555
H80_6 C85_6 1_555 1_555
H81_6 C85_6 1_555 1_555
C86_6 C80_6 1_555 1_555
H82_6 C86_6 1_555 1_555
H83_6 C86_6 1_555 1_555
H84_6 C86_6 1_555 1_555
N7_6 C77_8 1_555 1_555
H87_6 N7_6 1_555 1_555
N8_6 C80_6 1_555 1_555
O17_4 C76_8 1_555 1_555
O18_4 C76_8 1_555 1_555
O13_8 C77_8 1_555 1_555
O14_6 N8_6 1_555 1_555
C62_8 C63_8 1_555 1_555
C68_8 C69_8 1_555 1_555
C74_8 C75_8 1_555 1_555
C78_6 N7_6 1_555 1_555
C81_6 N8_6 1_555 1_555
O14_6 H88_6 1_555 1_555
C30_8 C29_8 1_555 1_555
H30_8 C30_8 1_555 1_555
C31_8 C30_8 1_555 1_555
C32_8 C31_8 1_555 1_555
H31_8 C32_8 1_555 1_555
H32_8 C33_8 1_555 1_555
C34_8 C31_8 1_555 1_555
C35_8 C34_8 1_555 1_555
H33_8 C35_8 1_555 1_555
C36_8 C35_8 1_555 1_555
C37_8 C36_8 1_555 1_555
C38_8 C37_8 1_555 1_555
H34_8 C38_8 1_555 1_555
C39_8 C34_8 1_555 1_555
H35_8 C39_8 1_555 1_555
C40_8 C37_8 1_555 1_555
C41_8 C40_8 1_555 1_555
H36_8 C41_8 1_555 1_555
C42_8 C41_8 1_555 1_555
H37_8 C42_8 1_555 1_555
C43_8 C42_8 1_555 1_555
C44_8 C43_8 1_555 1_555
H38_8 C44_8 1_555 1_555
C45_8 C40_8 1_555 1_555
H39_8 C45_8 1_555 1_555
C46_8 C43_8 1_555 1_555
C47_8 C36_8 1_555 1_555
C48_8 H40_8 1_555 1_555
C49_8 C48_8 1_555 1_555
H41_8 C49_8 1_555 1_555
H42_8 C49_8 1_555 1_555
C50_8 C49_8 1_555 1_555
C51_8 C52_8 1_555 1_555
C52_8 C48_8 1_555 1_555
H43_8 C52_8 1_555 1_555
H44_8 C52_8 1_555 1_555
C53_8 C50_8 1_555 1_555
H45_8 C53_8 1_555 1_555
H46_8 C53_8 1_555 1_555
H47_8 C53_8 1_555 1_555
C55_8 C51_8 1_555 1_555
H51_8 C55_8 1_555 1_555
H52_8 C55_8 1_555 1_555
H53_8 C55_8 1_555 1_555
C56_8 C51_8 1_555 1_555
H54_8 C56_8 1_555 1_555
H55_6 C56_8 1_555 1_555
H56_8 C56_8 1_555 1_555
N5_8 C47_8 1_555 1_555
H86_8 N5_8 1_555 1_555
N6_8 C50_8 1_555 1_555
O1_6 N6_8 1_555 1_555
O15_4 C46_8 1_555 1_555
O16_4 C46_8 1_555 1_555
O8_8 C47_8 1_555 1_555
C32_8 C33_8 1_555 1_555
C38_8 C39_8 1_555 1_555
C44_8 C45_8 1_555 1_555
C48_8 N5_8 1_555 1_555
C51_8 N6_8 1_555 1_555
O1_6 H89_6 1_555 1_555
C1_6 H1_6 1_555 1_555
C2_6 C1_6 1_555 1_555
H2_6 C2_6 1_555 1_555
C3_6 C2_6 1_555 1_555
H5_6 C7_6 1_555 1_555
C8_6 C7_6 1_555 1_555
H6_6 C8_6 1_555 1_555
C57_8 C58_8 1_555 1_555
N1_6 C1_6 1_555 1_555
O9_8 C57_8 1_555 1_555
O10_8 C57_8 1_555 1_555
Zn3_2 N1_6 1_555 1_555
O9_8 Zn3_2 1_555 1_555
O10_8 Zn7_4 1_555 1_555
H3_8 C4_8 1_555 1_555
C5_8 C4_8 1_555 1_555
H4_8 C5_8 1_555 1_555
C10_8 C9_8 1_555 1_555
C11_8 C6_8 1_555 1_555
H7_8 C11_8 1_555 1_555
C12_8 H8_8 1_555 1_555
C13_8 C12_8 1_555 1_555
H9_8 C13_8 1_555 1_555
C14_8 C9_8 1_555 1_555
C15_8 C14_8 1_555 1_555
H10_8 C15_8 1_555 1_555
C16_8 C15_8 1_555 1_555
H11_8 C16_8 1_555 1_555
C17_8 C10_8 1_555 1_555
C18_8 H12_8 1_555 1_555
C19_8 C18_8 1_555 1_555
H13_8 C19_8 1_555 1_555
H14_8 C19_8 1_555 1_555
C20_8 C19_8 1_555 1_555
C21_8 C22_8 1_555 1_555
C22_8 C18_8 1_555 1_555
H15_8 C22_8 1_555 1_555
H16_8 C22_8 1_555 1_555
C23_8 C21_8 1_555 1_555
H17_8 C23_8 1_555 1_555
H18_8 C23_8 1_555 1_555
H19_8 C23_8 1_555 1_555
C24_8 C21_8 1_555 1_555
H20_8 C24_8 1_555 1_555
H21_8 C24_8 1_555 1_555
H22_8 C24_8 1_555 1_555
C25_8 C20_8 1_555 1_555
H23_8 C25_8 1_555 1_555
H24_8 C25_8 1_555 1_555
H25_8 C25_8 1_555 1_555
C26_8 C20_8 1_555 1_555
H26_8 C26_8 1_555 1_555
H27_8 C26_8 1_555 1_555
H28_8 C26_8 1_555 1_555
C27_8 C28_8 1_555 1_555
H48_8 C54_8 1_555 1_555
H49_8 C54_8 1_555 1_555
H50_8 C54_8 1_555 1_555
N9_4 C12_8 1_555 1_555
N3_8 C17_8 1_555 1_555
H85_8 N3_8 1_555 1_555
N4_8 C20_8 1_555 1_555
O2_8 C17_8 1_555 1_555
O3_8 N4_8 1_555 1_555
O4_8 C27_8 1_555 1_555
O5_8 C27_8 1_555 1_555
C10_8 C11_8 1_555 1_555
C13_8 C14_8 1_555 1_555
C16_8 N9_4 1_555 1_555
C18_8 N3_8 1_555 1_555
C21_8 N4_8 1_555 1_555
O3_8 H90_8 1_555 1_555
C78_7 H68_7 1_555 1_555
C79_7 C78_7 1_555 1_555
H69_7 C79_7 1_555 1_555
H70_7 C79_7 1_555 1_555
C80_7 C79_7 1_555 1_555
C81_7 C82_7 1_555 1_555
C82_7 C78_7 1_555 1_555
H71_7 C82_7 1_555 1_555
H72_7 C82_7 1_555 1_555
C83_7 C81_7 1_555 1_555
H73_7 C83_7 1_555 1_555
H74_7 C83_7 1_555 1_555
H75_7 C83_7 1_555 1_555
C84_7 C81_7 1_555 1_555
H76_7 C84_7 1_555 1_555
H77_7 C84_7 1_555 1_555
H78_7 C84_7 1_555 1_555
C85_7 C80_7 1_555 1_555
H79_7 C85_7 1_555 1_555
H80_7 C85_7 1_555 1_555
H81_7 C85_7 1_555 1_555
C86_7 C80_7 1_555 1_555
H82_7 C86_7 1_555 1_555
H83_7 C86_7 1_555 1_555
H84_7 C86_7 1_555 1_555
H87_7 N7_7 1_555 1_555
N8_7 C80_7 1_555 1_555
O14_7 N8_7 1_555 1_555
C78_7 N7_7 1_555 1_555
C81_7 N8_7 1_555 1_555
O14_7 H88_7 1_555 1_555
C1_7 H1_7 1_555 1_555
C2_7 C1_7 1_555 1_555
H2_7 C2_7 1_555 1_555
C3_7 C2_7 1_555 1_555
H5_7 C7_7 1_555 1_555
C8_7 C7_7 1_555 1_555
H6_7 C8_7 1_555 1_555
N1_7 C1_7 1_555 1_555
O1_7 H89_7 1_555 1_555
O1_8 H89_8 1_555 1_555
C1_8 H1_8 1_555 1_555
C2_8 C1_8 1_555 1_555
H2_8 C2_8 1_555 1_555
C3_8 C2_8 1_555 1_555
H5_8 C7_8 1_555 1_555
C8_8 C7_8 1_555 1_555
H6_8 C8_8 1_555 1_555
N1_8 C1_8 1_555 1_555
C78_8 H68_8 1_555 1_555
C79_8 C78_8 1_555 1_555
H69_8 C79_8 1_555 1_555
H70_8 C79_8 1_555 1_555
C80_8 C79_8 1_555 1_555
C81_8 C82_8 1_555 1_555
C82_8 C78_8 1_555 1_555
H71_8 C82_8 1_555 1_555
H72_8 C82_8 1_555 1_555
C83_8 C81_8 1_555 1_555
H73_8 C83_8 1_555 1_555
H74_8 C83_8 1_555 1_555
H75_8 C83_8 1_555 1_555
C84_8 C81_8 1_555 1_555
H76_8 C84_8 1_555 1_555
H77_8 C84_8 1_555 1_555
H78_8 C84_8 1_555 1_555
C85_8 C80_8 1_555 1_555
H79_8 C85_8 1_555 1_555
H80_8 C85_8 1_555 1_555
H81_8 C85_8 1_555 1_555
C86_8 C80_8 1_555 1_555
H82_8 C86_8 1_555 1_555
H83_8 C86_8 1_555 1_555
H84_8 C86_8 1_555 1_555
H87_8 N7_8 1_555 1_555
N8_8 C80_8 1_555 1_555
O14_8 N8_8 1_555 1_555
C78_8 N7_8 1_555 1_555
C81_8 N8_8 1_555 1_555
O14_8 H88_8 1_555 1_555

#END
