
###############################################################################
#
# This file contains modified crystal structure data generated from the
# MOF subset of the Cambridge Structural Database (CSD) v543 
# hosted by the Cambridge Crystallographic Data Centre (CCDC).
#
# This work is licensed under the Creative Commons
# Attribution-NonCommercial-ShareAlike 4.0 International License.
# To view a copy of this license, visit
# http://creativecommons.org/licenses/by-nc-sa/4.0/
# or send a letter to
# Creative Commons, PO Box 1866, Mountain View, CA 94042, USA.
#
# CIF created using the CSD Python API on 29 September 2022
# The structure has been converted into the P1 space group
# The structure has a 3D framework
# The original CSD entry JEPZEN is in the cubic crystal system
# The original CSD entry JEPZEN is in a Sohncke space group
# The framework has been calculated to contain at least 10.0% void space
# The void calculation uses a probe of radius 1.32A, grid spacing 0.4
# The framework is charged, counterions have been retained in the structure
#
###############################################################################

data_JEPZEN
_chemical_formula_moiety         '(C432 H192 Gd20 N96 O204 32-)n'
_symmetry_cell_setting           triclinic
_symmetry_space_group_name_H-M   'P 1'
_symmetry_Int_Tables_number      1
_space_group_name_Hall           'P 1'
loop_
_symmetry_equiv_pos_site_id
_symmetry_equiv_pos_as_xyz
1 x,y,z
_cell_length_a                   27.5296(7)
_cell_length_b                   27.5296(7)
_cell_length_c                   27.5296(7)
_cell_angle_alpha                90
_cell_angle_beta                 90
_cell_angle_gamma                90
_cell_volume                     20864.1
loop_
_atom_site_label
_atom_site_type_symbol
_atom_site_fract_x
_atom_site_fract_y
_atom_site_fract_z
Gd14 Gd 0.04027(2) 0.55237(2) 0.25139(2)
O62 O 0.03646(12) 0.46851(12) 0.29199(13)
O71 O 0.00513(15) 0.38591(13) 0.22404(16)
O79 O -0.000000 0.500000 0.20275(17)
O8 O 0.20275(17) 0.000000 0.500000
Gd2 Gd 0.25139(2) 0.04027(2) 0.55237(2)
Gd7 Gd 0.74861(2) 0.04027(2) 0.44763(2)
O55 O 0.23127(13) 0.10987(13) 0.60240(13)
O58 O 0.29199(13) 0.03646(12) 0.46851(12)
O66 O 0.17304(14) 0.08412(14) 0.55594(14)
O69 O 0.26471(15) 0.10617(12) 0.49423(14)
O72 O 0.22404(16) 0.00513(15) 0.38591(13)
O76 O 0.32692(14) 0.05665(14) 0.57802(16)
O51 O 0.500000 0.79725(17) 0.000000
Gd9 Gd 0.44763(2) 0.74861(2) 0.04027(2)
O59 O 0.53149(12) 0.70801(13) 0.03646(12)
O75 O 0.61409(13) 0.77596(16) 0.00513(15)
Gd1 Gd 0.25139(2) 0.95973(2) 0.44763(2)
O1 O 0.39013(13) 0.89760(13) 0.73127(13)
O2 O 0.29199(13) 0.96354(12) 0.53149(12)
O3 O 0.41588(14) 0.94406(14) 0.67304(14)
O4 O 0.26471(15) 0.89383(12) 0.50577(14)
O5 O 0.49487(15) 0.88591(13) 0.27596(16)
O6 O 0.32692(14) 0.94335(14) 0.42198(16)
O7 O 0.47786(15) 0.81020(15) 0.26081(16)
C1 C 0.28407(18) 0.91779(17) 0.53794(18)
C2 C 0.42453(18) 0.85304(18) 0.3115(2)
C3 C 0.38628(19) 0.91296(18) 0.68892(19)
N1 N 0.33295(18) 0.73370(17) 0.28212(19)
O8_2 O 0.20275(17) 1.000000 0.500000
O9 O 0.39976(18) 0.97010(18) 0.4069(2)
C4 C 0.39157(19) 0.81601(19) 0.3133(2)
H1 H 0.396293 0.788616 0.294082
C5 C 0.3060(2) 0.7423(2) 0.3189(2)
N2 N 0.31509(17) 0.78215(17) 0.34788(19)
H2 H 0.296007 0.785242 0.372414
C6 C 0.41611(19) 0.89458(19) 0.3389(2)
H3 H 0.437734 0.920476 0.337215
C7 C 0.37559(19) 0.89774(19) 0.3690(2)
C8 C 0.35080(19) 0.8186(2) 0.34351(19)
C9 C 0.3431(2) 0.8587(2) 0.3713(2)
H4 H 0.316344 0.860132 0.391851
C10 C 0.46837(19) 0.84872(19) 0.2797(2)
C11 C 0.3669(2) 0.9408(2) 0.4006(2)
N3 N 0.31006(17) 0.75845(18) 0.71866(17)
C12 C 0.27338(18) 0.75487(19) 0.68896(17)
N4 N 0.26682(16) 0.78581(16) 0.65246(16)
H5 H 0.244385 0.777728 0.632275
C13 C 0.33467(19) 0.91654(17) 0.61411(18)
H6 H 0.349322 0.945625 0.605135
C14 C 0.34768(18) 0.89360(18) 0.65671(18)
C15 C 0.2780(2) 0.85101(18) 0.59704(19)
H7 H 0.256000 0.836048 0.576186
C16 C 0.3248(2) 0.8539(2) 0.6715(2)
H8 H 0.331368 0.841844 0.702382
C17 C 0.2904(2) 0.82908(19) 0.64171(18)
C18 C 0.29900(18) 0.89536(18) 0.58454(18)
O10 O 0.46851(12) 0.70801(13) 0.96354(12)
O11 O 0.49423(14) 0.73529(15) 0.89383(12)
C19 C 0.46206(18) 0.71593(18) 0.91779(17)
N5 N 0.28134(17) 0.68994(17) 0.75845(18)
C20 C 0.31104(17) 0.72662(18) 0.75487(19)
N6 N 0.34754(16) 0.73318(16) 0.78581(16)
H9 H 0.367725 0.755615 0.777728
C21 C 0.38589(18) 0.66533(19) 0.91654(17)
H10 H 0.394865 0.650678 0.945625
C22 C 0.34329(18) 0.65232(18) 0.89360(18)
C23 C 0.40296(19) 0.7220(2) 0.85101(18)
H11 H 0.423814 0.744000 0.836048
C24 C 0.3285(2) 0.6752(2) 0.8539(2)
H12 H 0.297618 0.668632 0.841844
C25 C 0.35829(18) 0.7096(2) 0.82908(19)
C26 C 0.41546(18) 0.70100(18) 0.89536(18)
O12 O 0.26873(13) 0.60987(13) 0.89760(13)
O13 O 0.32696(14) 0.58412(14) 0.94406(14)
C27 C 0.31108(19) 0.61372(19) 0.91296(18)
O14 O 0.03646(12) 0.53149(12) 0.70801(13)
O15 O 0.10617(12) 0.50577(14) 0.73529(15)
C28 C 0.08221(17) 0.53794(18) 0.71593(18)
N7 N 0.24155(18) 0.71866(17) 0.68994(17)
C29 C 0.24513(19) 0.68896(17) 0.72662(18)
N8 N 0.21419(16) 0.65246(16) 0.73318(16)
H13 H 0.222272 0.632275 0.755615
C30 C 0.08346(17) 0.61411(18) 0.66533(19)
H14 H 0.054375 0.605135 0.650678
C31 C 0.10640(18) 0.65671(18) 0.65232(18)
C32 C 0.14899(18) 0.59704(19) 0.7220(2)
H15 H 0.163952 0.576186 0.744000
C33 C 0.1461(2) 0.6715(2) 0.6752(2)
H16 H 0.158156 0.702382 0.668632
C34 C 0.17092(19) 0.64171(18) 0.7096(2)
C35 C 0.10464(18) 0.58454(18) 0.70100(18)
O16 O 0.10240(13) 0.73127(13) 0.60987(13)
O17 O 0.05594(14) 0.67304(14) 0.58412(14)
C36 C 0.08704(18) 0.68892(19) 0.61372(19)
O18 O 0.42198(16) 0.67308(14) 0.05665(14)
C37 C 0.3115(2) 0.57547(18) 0.14696(18)
N9 N 0.28212(19) 0.66705(18) 0.26630(17)
O19 O 0.4069(2) 0.60024(18) 0.02990(18)
C38 C 0.3133(2) 0.60843(19) 0.18399(19)
H17 H 0.294082 0.603707 0.211384
C39 C 0.3189(2) 0.6940(2) 0.2577(2)
N10 N 0.34788(19) 0.68491(17) 0.21785(17)
H18 H 0.372414 0.703993 0.214758
C40 C 0.3389(2) 0.58389(19) 0.10542(19)
H19 H 0.337215 0.562266 0.079524
C41 C 0.3690(2) 0.62441(19) 0.10226(19)
C42 C 0.34351(19) 0.64920(19) 0.1814(2)
C43 C 0.3713(2) 0.6569(2) 0.1413(2)
H20 H 0.391851 0.683656 0.139868
C44 C 0.4006(2) 0.6331(2) 0.0592(2)
O20 O 0.27596(16) 0.50513(15) 0.11409(13)
O21 O 0.26081(16) 0.52214(15) 0.18980(15)
C45 C 0.2797(2) 0.53163(19) 0.15128(19)
O22 O 0.05665(14) 0.57802(16) 0.32692(14)
C46 C 0.14696(18) 0.6885(2) 0.42453(18)
N11 N 0.26630(17) 0.71788(19) 0.33295(18)
O23 O 0.02990(18) 0.5931(2) 0.39976(18)
C47 C 0.18399(19) 0.6867(2) 0.39157(19)
H21 H 0.211384 0.705918 0.396293
C48 C 0.2577(2) 0.6811(2) 0.3060(2)
N12 N 0.21785(17) 0.65212(19) 0.31509(17)
H22 H 0.214758 0.627586 0.296007
C49 C 0.10542(19) 0.6611(2) 0.41611(19)
H23 H 0.079524 0.662785 0.437734
C50 C 0.10226(19) 0.6310(2) 0.37559(19)
C51 C 0.1814(2) 0.65649(19) 0.35080(19)
C52 C 0.1413(2) 0.6287(2) 0.3431(2)
H24 H 0.139868 0.608149 0.316344
C53 C 0.0592(2) 0.5994(2) 0.3669(2)
O24 O 0.11409(13) 0.72404(16) 0.49487(15)
O25 O 0.18980(15) 0.73919(16) 0.47786(15)
C54 C 0.15128(19) 0.7203(2) 0.46837(19)
O26 O 0.73127(13) 0.60987(13) 0.10240(13)
O28 O 0.67304(14) 0.58412(14) 0.05594(14)
O29 O 0.50577(14) 0.73529(15) 0.10617(12)
C55 C 0.53794(18) 0.71593(18) 0.08221(17)
C56 C 0.68892(19) 0.61372(19) 0.08704(18)
N13 N 0.71866(17) 0.68994(17) 0.24155(18)
C57 C 0.68896(17) 0.72662(18) 0.24513(19)
N14 N 0.65246(16) 0.73318(16) 0.21419(16)
H25 H 0.632275 0.755615 0.222272
C58 C 0.61411(18) 0.66533(19) 0.08346(17)
H26 H 0.605135 0.650678 0.054375
C59 C 0.65671(18) 0.65232(18) 0.10640(18)
C60 C 0.59704(19) 0.7220(2) 0.14899(18)
H27 H 0.576186 0.744000 0.163952
C61 C 0.6715(2) 0.6752(2) 0.1461(2)
H28 H 0.702382 0.668632 0.158156
C62 C 0.64171(18) 0.7096(2) 0.17092(19)
C63 C 0.58454(18) 0.70100(18) 0.10464(18)
O30 O 0.96354(12) 0.53149(12) 0.29199(13)
O31 O 0.89383(12) 0.50577(14) 0.26471(15)
C64 C 0.91779(17) 0.53794(18) 0.28407(18)
N15 N 0.75845(18) 0.71866(17) 0.31006(17)
C65 C 0.75487(19) 0.68896(17) 0.27338(18)
N16 N 0.78581(16) 0.65246(16) 0.26682(16)
H29 H 0.777728 0.632275 0.244385
C66 C 0.91654(17) 0.61411(18) 0.33467(19)
H30 H 0.945625 0.605135 0.349322
C67 C 0.89360(18) 0.65671(18) 0.34768(18)
C68 C 0.85101(18) 0.59704(19) 0.2780(2)
H31 H 0.836048 0.576186 0.256000
C69 C 0.8539(2) 0.6715(2) 0.3248(2)
H32 H 0.841844 0.702382 0.331368
C70 C 0.82908(19) 0.64171(18) 0.2904(2)
C71 C 0.89536(18) 0.58454(18) 0.29900(18)
O32 O 0.89760(13) 0.73127(13) 0.39013(13)
O33 O 0.94406(14) 0.67304(14) 0.41588(14)
C72 C 0.91296(18) 0.68892(19) 0.38628(19)
O34 O 0.70801(13) 0.96354(12) 0.46851(12)
O35 O 0.73529(15) 0.89383(12) 0.49423(14)
C73 C 0.71593(18) 0.91779(17) 0.46206(18)
N17 N 0.68994(17) 0.75845(18) 0.28134(17)
C74 C 0.72662(18) 0.75487(19) 0.31104(17)
N18 N 0.73318(16) 0.78581(16) 0.34754(16)
H33 H 0.755615 0.777728 0.367725
C75 C 0.66533(19) 0.91654(17) 0.38589(18)
H34 H 0.650678 0.945625 0.394865
C76 C 0.65232(18) 0.89360(18) 0.34329(18)
C77 C 0.7220(2) 0.85101(18) 0.40296(19)
H35 H 0.744000 0.836048 0.423814
C78 C 0.6752(2) 0.8539(2) 0.3285(2)
H36 H 0.668632 0.841844 0.297618
C79 C 0.7096(2) 0.82908(19) 0.35829(18)
C80 C 0.70100(18) 0.89536(18) 0.41546(18)
O36 O 0.60987(13) 0.89760(13) 0.26873(13)
O37 O 0.58412(14) 0.94406(14) 0.32696(14)
C81 C 0.61372(19) 0.91296(18) 0.31108(19)
Gd4 Gd 0.55237(2) 0.74861(2) 0.95973(2)
O38 O 0.72404(16) 0.50513(15) 0.88591(13)
O39 O 0.57802(16) 0.67308(14) 0.94335(14)
O40 O 0.73919(16) 0.52214(15) 0.81020(15)
C82 C 0.6885(2) 0.57547(18) 0.85304(18)
N19 N 0.71788(19) 0.66705(18) 0.73370(17)
O41 O 0.5931(2) 0.60024(18) 0.97010(18)
C83 C 0.6867(2) 0.60843(19) 0.81601(19)
H37 H 0.705918 0.603707 0.788616
C84 C 0.6811(2) 0.6940(2) 0.7423(2)
N20 N 0.65212(19) 0.68491(17) 0.78215(17)
H38 H 0.627586 0.703993 0.785242
C85 C 0.6611(2) 0.58389(19) 0.89458(19)
H39 H 0.662785 0.562266 0.920476
C86 C 0.6310(2) 0.62441(19) 0.89774(19)
C87 C 0.65649(19) 0.64920(19) 0.8186(2)
C88 C 0.6287(2) 0.6569(2) 0.8587(2)
H40 H 0.608149 0.683656 0.860132
C89 C 0.7203(2) 0.53163(19) 0.84872(19)
C90 C 0.5994(2) 0.6331(2) 0.9408(2)
O42 O 0.94335(14) 0.57802(16) 0.67308(14)
C91 C 0.85304(18) 0.6885(2) 0.57547(18)
N21 N 0.73370(17) 0.71788(19) 0.66705(18)
O43 O 0.97010(18) 0.5931(2) 0.60024(18)
C92 C 0.81601(19) 0.6867(2) 0.60843(19)
H41 H 0.788616 0.705918 0.603707
C93 C 0.7423(2) 0.6811(2) 0.6940(2)
N22 N 0.78215(17) 0.65212(19) 0.68491(17)
H42 H 0.785242 0.627586 0.703993
C94 C 0.89458(19) 0.6611(2) 0.58389(19)
H43 H 0.920476 0.662785 0.562266
C95 C 0.89774(19) 0.6310(2) 0.62441(19)
C96 C 0.8186(2) 0.65649(19) 0.64920(19)
C97 C 0.8587(2) 0.6287(2) 0.6569(2)
H44 H 0.860132 0.608149 0.683656
C98 C 0.9408(2) 0.5994(2) 0.6331(2)
O44 O 0.88591(13) 0.72404(16) 0.50513(15)
O45 O 0.81020(15) 0.73919(16) 0.52214(15)
C99 C 0.84872(19) 0.7203(2) 0.53163(19)
O46 O 0.67308(14) 0.94335(14) 0.57802(16)
C100 C 0.57547(18) 0.85304(18) 0.6885(2)
N23 N 0.66705(18) 0.73370(17) 0.71788(19)
O47 O 0.60024(18) 0.97010(18) 0.5931(2)
C101 C 0.60843(19) 0.81601(19) 0.6867(2)
H45 H 0.603707 0.788616 0.705918
C102 C 0.6940(2) 0.7423(2) 0.6811(2)
N24 N 0.68491(17) 0.78215(17) 0.65212(19)
H46 H 0.703993 0.785242 0.627586
C103 C 0.58389(19) 0.89458(19) 0.6611(2)
H47 H 0.562266 0.920476 0.662785
C104 C 0.62441(19) 0.89774(19) 0.6310(2)
C105 C 0.64920(19) 0.8186(2) 0.65649(19)
C106 C 0.6569(2) 0.8587(2) 0.6287(2)
H48 H 0.683656 0.860132 0.608149
C107 C 0.6331(2) 0.9408(2) 0.5994(2)
O48 O 0.50513(15) 0.88591(13) 0.72404(16)
O49 O 0.52214(15) 0.81020(15) 0.73919(16)
C108 C 0.53163(19) 0.84872(19) 0.7203(2)
Gd5 Gd 0.95973(2) 0.44763(2) 0.25139(2)
Gd6 Gd 0.04027(2) 0.44763(2) 0.74861(2)
O51_2 O 0.500000 0.79725(17) 1.000000
Gd8 Gd 0.74861(2) 0.95973(2) 0.55237(2)
Gd12 Gd 0.95973(2) 0.55237(2) 0.74861(2)
Gd15 Gd 0.75139(2) 0.45973(2) 0.94763(2)
Gd16 Gd 0.24861(2) 0.54027(2) 0.94763(2)
Gd17 Gd 0.24861(2) 0.45973(2) 0.05237(2)
Gd18 Gd 0.75139(2) 0.54027(2) 0.05237(2)
Gd19 Gd 0.94763(2) 0.75139(2) 0.45973(2)
Gd20 Gd 0.05237(2) 0.75139(2) 0.54027(2)
Gd21 Gd 0.45973(2) 0.94763(2) 0.75139(2)
Gd22 Gd 0.54027(2) 0.94763(2) 0.24861(2)
O52 O 0.89013(13) 0.39760(13) 0.23127(13)
O53 O 0.10987(13) 0.39760(13) 0.76873(13)
O54 O 0.23127(13) 0.89013(13) 0.39760(13)
O56 O 0.39760(13) 0.76873(13) 0.10987(13)
O57 O 0.60240(13) 0.76873(13) 0.89013(13)
O63 O 0.91588(14) 0.44406(14) 0.17304(14)
O64 O 0.08412(14) 0.44406(14) 0.82696(14)
O65 O 0.17304(14) 0.91588(14) 0.44406(14)
O67 O 0.44406(14) 0.82696(14) 0.08412(14)
O68 O 0.55594(14) 0.82696(14) 0.91588(14)
O73 O 0.22404(16) 0.99487(15) 0.61409(13)
O77 O 0.94335(14) 0.42198(16) 0.32692(14)
O78 O 0.05665(14) 0.42198(16) 0.67308(14)
O79_2 O 1.000000 0.500000 0.20275(17)
O80 O 0.000000 0.500000 0.79725(17)
O74 O 0.38591(13) 0.77596(16) 0.99487(15)
O61 O 0.96354(12) 0.46851(12) 0.70801(13)
O70 O 0.99487(15) 0.38591(13) 0.77596(16)
O80_2 O 1.000000 0.500000 0.79725(17)
O70_2 O 0.00513(15) 0.61409(13) 0.77596(16)
O51_3 O 0.500000 0.20275(17) 0.000000
Gd9_2 Gd 0.55237(2) 0.25139(2) 0.04027(2)
O59_2 O 0.46851(12) 0.29199(13) 0.03646(12)
O75_2 O 0.38591(13) 0.22404(16) 0.00513(15)
O1_2 O 0.60987(13) 0.10240(13) 0.73127(13)
O2_2 O 0.70801(13) 0.03646(12) 0.53149(12)
O3_2 O 0.58412(14) 0.05594(14) 0.67304(14)
O4_2 O 0.73529(15) 0.10617(12) 0.50577(14)
O5_2 O 0.50513(15) 0.11409(13) 0.27596(16)
O6_2 O 0.67308(14) 0.05665(14) 0.42198(16)
O7_2 O 0.52214(15) 0.18980(15) 0.26081(16)
C1_2 C 0.71593(18) 0.08221(17) 0.53794(18)
C2_2 C 0.57547(18) 0.14696(18) 0.3115(2)
C3_2 C 0.61372(19) 0.08704(18) 0.68892(19)
N1_2 N 0.66705(18) 0.26630(17) 0.28212(19)
O8_3 O 0.79725(17) -0.000000 0.500000
O9_2 O 0.60024(18) 0.02990(18) 0.4069(2)
C4_2 C 0.60843(19) 0.18399(19) 0.3133(2)
H1_2 H 0.603707 0.211384 0.294082
C5_2 C 0.6940(2) 0.2577(2) 0.3189(2)
N2_2 N 0.68491(17) 0.21785(17) 0.34788(19)
H2_2 H 0.703993 0.214758 0.372414
C6_2 C 0.58389(19) 0.10542(19) 0.3389(2)
H3_2 H 0.562266 0.079524 0.337215
C7_2 C 0.62441(19) 0.10226(19) 0.3690(2)
C8_2 C 0.64920(19) 0.1814(2) 0.34351(19)
C9_2 C 0.6569(2) 0.1413(2) 0.3713(2)
H4_2 H 0.683656 0.139868 0.391851
C10_2 C 0.53163(19) 0.15128(19) 0.2797(2)
C11_2 C 0.6331(2) 0.0592(2) 0.4006(2)
N3_2 N 0.68994(17) 0.24155(18) 0.71866(17)
C12_2 C 0.72662(18) 0.24513(19) 0.68896(17)
N4_2 N 0.73318(16) 0.21419(16) 0.65246(16)
H5_2 H 0.755615 0.222272 0.632275
C13_2 C 0.66533(19) 0.08346(17) 0.61411(18)
H6_2 H 0.650678 0.054375 0.605135
C14_2 C 0.65232(18) 0.10640(18) 0.65671(18)
C15_2 C 0.7220(2) 0.14899(18) 0.59704(19)
H7_2 H 0.744000 0.163952 0.576186
C16_2 C 0.6752(2) 0.1461(2) 0.6715(2)
H8_2 H 0.668632 0.158156 0.702382
C17_2 C 0.7096(2) 0.17092(19) 0.64171(18)
C18_2 C 0.70100(18) 0.10464(18) 0.58454(18)
O10_2 O 0.53149(12) 0.29199(13) 0.96354(12)
O11_2 O 0.50577(14) 0.26471(15) 0.89383(12)
C19_2 C 0.53794(18) 0.28407(18) 0.91779(17)
N5_2 N 0.71866(17) 0.31006(17) 0.75845(18)
C20_2 C 0.68896(17) 0.27338(18) 0.75487(19)
N6_2 N 0.65246(16) 0.26682(16) 0.78581(16)
H9_2 H 0.632275 0.244385 0.777728
C21_2 C 0.61411(18) 0.33467(19) 0.91654(17)
H10_2 H 0.605135 0.349322 0.945625
C22_2 C 0.65671(18) 0.34768(18) 0.89360(18)
C23_2 C 0.59704(19) 0.2780(2) 0.85101(18)
H11_2 H 0.576186 0.256000 0.836048
C24_2 C 0.6715(2) 0.3248(2) 0.8539(2)
H12_2 H 0.702382 0.331368 0.841844
C25_2 C 0.64171(18) 0.2904(2) 0.82908(19)
C26_2 C 0.58454(18) 0.29900(18) 0.89536(18)
O12_2 O 0.73127(13) 0.39013(13) 0.89760(13)
O13_2 O 0.67304(14) 0.41588(14) 0.94406(14)
C27_2 C 0.68892(19) 0.38628(19) 0.91296(18)
O15_2 O 0.89383(12) 0.49423(14) 0.73529(15)
C28_2 C 0.91779(17) 0.46206(18) 0.71593(18)
N7_2 N 0.75845(18) 0.28134(17) 0.68994(17)
C29_2 C 0.75487(19) 0.31104(17) 0.72662(18)
N8_2 N 0.78581(16) 0.34754(16) 0.73318(16)
H13_2 H 0.777728 0.367725 0.755615
C30_2 C 0.91654(17) 0.38589(18) 0.66533(19)
H14_2 H 0.945625 0.394865 0.650678
C31_2 C 0.89360(18) 0.34329(18) 0.65232(18)
C32_2 C 0.85101(18) 0.40296(19) 0.7220(2)
H15_2 H 0.836048 0.423814 0.744000
C33_2 C 0.8539(2) 0.3285(2) 0.6752(2)
H16_2 H 0.841844 0.297618 0.668632
C34_2 C 0.82908(19) 0.35829(18) 0.7096(2)
C35_2 C 0.89536(18) 0.41546(18) 0.70100(18)
O16_2 O 0.89760(13) 0.26873(13) 0.60987(13)
O17_2 O 0.94406(14) 0.32696(14) 0.58412(14)
C36_2 C 0.91296(18) 0.31108(19) 0.61372(19)
O18_2 O 0.57802(16) 0.32692(14) 0.05665(14)
C37_2 C 0.6885(2) 0.42453(18) 0.14696(18)
N9_2 N 0.71788(19) 0.33295(18) 0.26630(17)
O19_2 O 0.5931(2) 0.39976(18) 0.02990(18)
C38_2 C 0.6867(2) 0.39157(19) 0.18399(19)
H17_2 H 0.705918 0.396293 0.211384
C39_2 C 0.6811(2) 0.3060(2) 0.2577(2)
N10_2 N 0.65212(19) 0.31509(17) 0.21785(17)
H18_2 H 0.627586 0.296007 0.214758
C40_2 C 0.6611(2) 0.41611(19) 0.10542(19)
H19_2 H 0.662785 0.437734 0.079524
C41_2 C 0.6310(2) 0.37559(19) 0.10226(19)
C42_2 C 0.65649(19) 0.35080(19) 0.1814(2)
C43_2 C 0.6287(2) 0.3431(2) 0.1413(2)
H20_2 H 0.608149 0.316344 0.139868
C44_2 C 0.5994(2) 0.3669(2) 0.0592(2)
O20_2 O 0.72404(16) 0.49487(15) 0.11409(13)
O21_2 O 0.73919(16) 0.47786(15) 0.18980(15)
C45_2 C 0.7203(2) 0.46837(19) 0.15128(19)
C46_2 C 0.85304(18) 0.3115(2) 0.42453(18)
N11_2 N 0.73370(17) 0.28212(19) 0.33295(18)
O23_2 O 0.97010(18) 0.4069(2) 0.39976(18)
C47_2 C 0.81601(19) 0.3133(2) 0.39157(19)
H21_2 H 0.788616 0.294082 0.396293
C48_2 C 0.7423(2) 0.3189(2) 0.3060(2)
N12_2 N 0.78215(17) 0.34788(19) 0.31509(17)
H22_2 H 0.785242 0.372414 0.296007
C49_2 C 0.89458(19) 0.3389(2) 0.41611(19)
H23_2 H 0.920476 0.337215 0.437734
C50_2 C 0.89774(19) 0.3690(2) 0.37559(19)
C51_2 C 0.8186(2) 0.34351(19) 0.35080(19)
C52_2 C 0.8587(2) 0.3713(2) 0.3431(2)
H24_2 H 0.860132 0.391851 0.316344
C53_2 C 0.9408(2) 0.4006(2) 0.3669(2)
O24_2 O 0.88591(13) 0.27596(16) 0.49487(15)
O25_2 O 0.81020(15) 0.26081(16) 0.47786(15)
C54_2 C 0.84872(19) 0.2797(2) 0.46837(19)
O26_2 O 0.26873(13) 0.39013(13) 0.10240(13)
O28_2 O 0.32696(14) 0.41588(14) 0.05594(14)
O29_2 O 0.49423(14) 0.26471(15) 0.10617(12)
C55_2 C 0.46206(18) 0.28407(18) 0.08221(17)
C56_2 C 0.31108(19) 0.38628(19) 0.08704(18)
N13_2 N 0.28134(17) 0.31006(17) 0.24155(18)
C57_2 C 0.31104(17) 0.27338(18) 0.24513(19)
N14_2 N 0.34754(16) 0.26682(16) 0.21419(16)
H25_2 H 0.367725 0.244385 0.222272
C58_2 C 0.38589(18) 0.33467(19) 0.08346(17)
H26_2 H 0.394865 0.349322 0.054375
C59_2 C 0.34329(18) 0.34768(18) 0.10640(18)
C60_2 C 0.40296(19) 0.2780(2) 0.14899(18)
H27_2 H 0.423814 0.256000 0.163952
C61_2 C 0.3285(2) 0.3248(2) 0.1461(2)
H28_2 H 0.297618 0.331368 0.158156
C62_2 C 0.35829(18) 0.2904(2) 0.17092(19)
C63_2 C 0.41546(18) 0.29900(18) 0.10464(18)
O31_2 O 0.10617(12) 0.49423(14) 0.26471(15)
C64_2 C 0.08221(17) 0.46206(18) 0.28407(18)
N15_2 N 0.24155(18) 0.28134(17) 0.31006(17)
C65_2 C 0.24513(19) 0.31104(17) 0.27338(18)
N16_2 N 0.21419(16) 0.34754(16) 0.26682(16)
H29_2 H 0.222272 0.367725 0.244385
C66_2 C 0.08346(17) 0.38589(18) 0.33467(19)
H30_2 H 0.054375 0.394865 0.349322
C67_2 C 0.10640(18) 0.34329(18) 0.34768(18)
C68_2 C 0.14899(18) 0.40296(19) 0.2780(2)
H31_2 H 0.163952 0.423814 0.256000
C69_2 C 0.1461(2) 0.3285(2) 0.3248(2)
H32_2 H 0.158156 0.297618 0.331368
C70_2 C 0.17092(19) 0.35829(18) 0.2904(2)
C71_2 C 0.10464(18) 0.41546(18) 0.29900(18)
O32_2 O 0.10240(13) 0.26873(13) 0.39013(13)
O33_2 O 0.05594(14) 0.32696(14) 0.41588(14)
C72_2 C 0.08704(18) 0.31108(19) 0.38628(19)
C73_2 C 0.28407(18) 0.08221(17) 0.46206(18)
N17_2 N 0.31006(17) 0.24155(18) 0.28134(17)
C74_2 C 0.27338(18) 0.24513(19) 0.31104(17)
N18_2 N 0.26682(16) 0.21419(16) 0.34754(16)
H33_2 H 0.244385 0.222272 0.367725
C75_2 C 0.33467(19) 0.08346(17) 0.38589(18)
H34_2 H 0.349322 0.054375 0.394865
C76_2 C 0.34768(18) 0.10640(18) 0.34329(18)
C77_2 C 0.2780(2) 0.14899(18) 0.40296(19)
H35_2 H 0.256000 0.163952 0.423814
C78_2 C 0.3248(2) 0.1461(2) 0.3285(2)
H36_2 H 0.331368 0.158156 0.297618
C79_2 C 0.2904(2) 0.17092(19) 0.35829(18)
C80_2 C 0.29900(18) 0.10464(18) 0.41546(18)
O36_2 O 0.39013(13) 0.10240(13) 0.26873(13)
O37_2 O 0.41588(14) 0.05594(14) 0.32696(14)
C81_2 C 0.38628(19) 0.08704(18) 0.31108(19)
Gd4_2 Gd 0.44763(2) 0.25139(2) 0.95973(2)
O38_2 O 0.27596(16) 0.49487(15) 0.88591(13)
O39_2 O 0.42198(16) 0.32692(14) 0.94335(14)
O40_2 O 0.26081(16) 0.47786(15) 0.81020(15)
C82_2 C 0.3115(2) 0.42453(18) 0.85304(18)
N19_2 N 0.28212(19) 0.33295(18) 0.73370(17)
O41_2 O 0.4069(2) 0.39976(18) 0.97010(18)
C83_2 C 0.3133(2) 0.39157(19) 0.81601(19)
H37_2 H 0.294082 0.396293 0.788616
C84_2 C 0.3189(2) 0.3060(2) 0.7423(2)
N20_2 N 0.34788(19) 0.31509(17) 0.78215(17)
H38_2 H 0.372414 0.296007 0.785242
C85_2 C 0.3389(2) 0.41611(19) 0.89458(19)
H39_2 H 0.337215 0.437734 0.920476
C86_2 C 0.3690(2) 0.37559(19) 0.89774(19)
C87_2 C 0.34351(19) 0.35080(19) 0.8186(2)
C88_2 C 0.3713(2) 0.3431(2) 0.8587(2)
H40_2 H 0.391851 0.316344 0.860132
C89_2 C 0.2797(2) 0.46837(19) 0.84872(19)
C90_2 C 0.4006(2) 0.3669(2) 0.9408(2)
C91_2 C 0.14696(18) 0.3115(2) 0.57547(18)
N21_2 N 0.26630(17) 0.28212(19) 0.66705(18)
O43_2 O 0.02990(18) 0.4069(2) 0.60024(18)
C92_2 C 0.18399(19) 0.3133(2) 0.60843(19)
H41_2 H 0.211384 0.294082 0.603707
C93_2 C 0.2577(2) 0.3189(2) 0.6940(2)
N22_2 N 0.21785(17) 0.34788(19) 0.68491(17)
H42_2 H 0.214758 0.372414 0.703993
C94_2 C 0.10542(19) 0.3389(2) 0.58389(19)
H43_2 H 0.079524 0.337215 0.562266
C95_2 C 0.10226(19) 0.3690(2) 0.62441(19)
C96_2 C 0.1814(2) 0.34351(19) 0.64920(19)
C97_2 C 0.1413(2) 0.3713(2) 0.6569(2)
H44_2 H 0.139868 0.391851 0.683656
C98_2 C 0.0592(2) 0.4006(2) 0.6331(2)
O44_2 O 0.11409(13) 0.27596(16) 0.50513(15)
O45_2 O 0.18980(15) 0.26081(16) 0.52214(15)
C99_2 C 0.15128(19) 0.2797(2) 0.53163(19)
C100_2 C 0.42453(18) 0.14696(18) 0.6885(2)
N23_2 N 0.33295(18) 0.26630(17) 0.71788(19)
O47_2 O 0.39976(18) 0.02990(18) 0.5931(2)
C101_2 C 0.39157(19) 0.18399(19) 0.6867(2)
H45_2 H 0.396293 0.211384 0.705918
C102_2 C 0.3060(2) 0.2577(2) 0.6811(2)
N24_2 N 0.31509(17) 0.21785(17) 0.65212(19)
H46_2 H 0.296007 0.214758 0.627586
C103_2 C 0.41611(19) 0.10542(19) 0.6611(2)
H47_2 H 0.437734 0.079524 0.662785
C104_2 C 0.37559(19) 0.10226(19) 0.6310(2)
C105_2 C 0.35080(19) 0.1814(2) 0.65649(19)
C106_2 C 0.3431(2) 0.1413(2) 0.6287(2)
H48_2 H 0.316344 0.139868 0.608149
C107_2 C 0.3669(2) 0.0592(2) 0.5994(2)
O48_2 O 0.49487(15) 0.11409(13) 0.72404(16)
O49_2 O 0.47786(15) 0.18980(15) 0.73919(16)
C108_2 C 0.46837(19) 0.15128(19) 0.7203(2)
O51_4 O 0.500000 0.20275(17) 1.000000
Gd19_2 Gd 0.05237(2) 0.24861(2) 0.45973(2)
Gd20_2 Gd 0.94763(2) 0.24861(2) 0.54027(2)
Gd21_2 Gd 0.54027(2) 0.05237(2) 0.75139(2)
Gd22_2 Gd 0.45973(2) 0.05237(2) 0.24861(2)
O52_2 O 0.10987(13) 0.60240(13) 0.23127(13)
O53_2 O 0.89013(13) 0.60240(13) 0.76873(13)
O54_2 O 0.76873(13) 0.10987(13) 0.39760(13)
O56_2 O 0.60240(13) 0.23127(13) 0.10987(13)
O57_2 O 0.39760(13) 0.23127(13) 0.89013(13)
O63_2 O 0.08412(14) 0.55594(14) 0.17304(14)
O64_2 O 0.91588(14) 0.55594(14) 0.82696(14)
O65_2 O 0.82696(14) 0.08412(14) 0.44406(14)
O67_2 O 0.55594(14) 0.17304(14) 0.08412(14)
O68_2 O 0.44406(14) 0.17304(14) 0.91588(14)
O73_2 O 0.77596(16) 0.00513(15) 0.61409(13)
O74_2 O 0.61409(13) 0.22404(16) 0.99487(15)
O8_4 O 0.79725(17) 1.000000 0.500000
O55_2 O 0.76873(13) 0.89013(13) 0.60240(13)
O66_2 O 0.82696(14) 0.91588(14) 0.55594(14)
O72_2 O 0.77596(16) 0.99487(15) 0.38591(13)
O71_2 O 0.99487(15) 0.61409(13) 0.22404(16)
O39_3 O 0.07802(16) 0.17308(14) 0.44335(14)
O40_3 O 0.23919(16) 0.02214(15) 0.31020(15)
C82_3 C 0.1885(2) 0.07547(18) 0.35304(18)
N19_3 N 0.21788(19) 0.16705(18) 0.23370(17)
O41_3 O 0.0931(2) 0.10024(18) 0.47010(18)
C83_3 C 0.1867(2) 0.10843(19) 0.31601(19)
H37_3 H 0.205918 0.103707 0.288616
C84_3 C 0.1811(2) 0.1940(2) 0.2423(2)
N20_3 N 0.15212(19) 0.18491(17) 0.28215(17)
H38_3 H 0.127586 0.203993 0.285242
C85_3 C 0.1611(2) 0.08389(19) 0.39458(19)
H39_3 H 0.162785 0.062266 0.420476
C86_3 C 0.1310(2) 0.12441(19) 0.39774(19)
C87_3 C 0.15649(19) 0.14920(19) 0.3186(2)
C88_3 C 0.1287(2) 0.1569(2) 0.3587(2)
H40_3 H 0.108149 0.183656 0.360132
C89_3 C 0.2203(2) 0.03163(19) 0.34872(19)
C90_3 C 0.0994(2) 0.1331(2) 0.4408(2)
O42_2 O 0.44335(14) 0.07802(16) 0.17308(14)
C91_3 C 0.35304(18) 0.1885(2) 0.07547(18)
N21_3 N 0.23370(17) 0.21788(19) 0.16705(18)
O43_3 O 0.47010(18) 0.0931(2) 0.10024(18)
C92_3 C 0.31601(19) 0.1867(2) 0.10843(19)
H41_3 H 0.288616 0.205918 0.103707
C93_3 C 0.2423(2) 0.1811(2) 0.1940(2)
N22_3 N 0.28215(17) 0.15212(19) 0.18491(17)
H42_3 H 0.285242 0.127586 0.203993
C94_3 C 0.39458(19) 0.1611(2) 0.08389(19)
H43_3 H 0.420476 0.162785 0.062266
C95_3 C 0.39774(19) 0.1310(2) 0.12441(19)
C96_3 C 0.3186(2) 0.15649(19) 0.14920(19)
C97_3 C 0.3587(2) 0.1287(2) 0.1569(2)
H44_3 H 0.360132 0.108149 0.183656
C98_3 C 0.4408(2) 0.0994(2) 0.1331(2)
O45_3 O 0.31020(15) 0.23919(16) 0.02214(15)
C99_3 C 0.34872(19) 0.2203(2) 0.03163(19)
O46_2 O 0.17308(14) 0.44335(14) 0.07802(16)
C100_3 C 0.07547(18) 0.35304(18) 0.1885(2)
N23_3 N 0.16705(18) 0.23370(17) 0.21788(19)
O47_3 O 0.10024(18) 0.47010(18) 0.0931(2)
C101_3 C 0.10843(19) 0.31601(19) 0.1867(2)
H45_3 H 0.103707 0.288616 0.205918
C102_3 C 0.1940(2) 0.2423(2) 0.1811(2)
N24_3 N 0.18491(17) 0.28215(17) 0.15212(19)
H46_3 H 0.203993 0.285242 0.127586
C103_3 C 0.08389(19) 0.39458(19) 0.1611(2)
H47_3 H 0.062266 0.420476 0.162785
C104_3 C 0.12441(19) 0.39774(19) 0.1310(2)
C105_3 C 0.14920(19) 0.3186(2) 0.15649(19)
C106_3 C 0.1569(2) 0.3587(2) 0.1287(2)
H48_3 H 0.183656 0.360132 0.108149
C107_3 C 0.1331(2) 0.4408(2) 0.0994(2)
O49_3 O 0.02214(15) 0.31020(15) 0.23919(16)
C108_3 C 0.03163(19) 0.34872(19) 0.2203(2)
O51_5 O -0.000000 0.29725(17) 0.500000
O59_3 O 0.03149(12) 0.20801(13) 0.53646(12)
O29_3 O 0.00577(14) 0.23529(15) 0.60617(12)
C55_3 C 0.03794(18) 0.21593(18) 0.58221(17)
C56_3 C 0.18892(19) 0.11372(19) 0.58704(18)
N13_3 N 0.21866(17) 0.18994(17) 0.74155(18)
C57_3 C 0.18896(17) 0.22662(18) 0.74513(19)
N14_3 N 0.15246(16) 0.23318(16) 0.71419(16)
H25_3 H 0.132275 0.255615 0.722272
C58_3 C 0.11411(18) 0.16533(19) 0.58346(17)
H26_3 H 0.105135 0.150678 0.554375
C59_3 C 0.15671(18) 0.15232(18) 0.60640(18)
C60_3 C 0.09704(19) 0.2220(2) 0.64899(18)
H27_3 H 0.076186 0.244000 0.663952
C61_3 C 0.1715(2) 0.1752(2) 0.6461(2)
H28_3 H 0.202382 0.168632 0.658156
C62_3 C 0.14171(18) 0.2096(2) 0.67092(19)
C63_3 C 0.08454(18) 0.20100(18) 0.60464(18)
O30_2 O 0.46354(12) 0.03149(12) 0.79199(13)
O31_3 O 0.39383(12) 0.00577(14) 0.76471(15)
C64_3 C 0.41779(17) 0.03794(18) 0.78407(18)
N15_3 N 0.25845(18) 0.21866(17) 0.81006(17)
C65_3 C 0.25487(19) 0.18896(17) 0.77338(18)
N16_3 N 0.28581(16) 0.15246(16) 0.76682(16)
H29_3 H 0.277728 0.132275 0.744385
C66_3 C 0.41654(17) 0.11411(18) 0.83467(19)
H30_3 H 0.445625 0.105135 0.849322
C67_3 C 0.39360(18) 0.15671(18) 0.84768(18)
C68_3 C 0.35101(18) 0.09704(19) 0.7780(2)
H31_3 H 0.336048 0.076186 0.756000
C69_3 C 0.3539(2) 0.1715(2) 0.8248(2)
H32_3 H 0.341844 0.202382 0.831368
C70_3 C 0.32908(19) 0.14171(18) 0.7904(2)
C71_3 C 0.39536(18) 0.08454(18) 0.79900(18)
C72_3 C 0.41296(18) 0.18892(19) 0.88628(19)
O34_2 O 0.20801(13) 0.46354(12) 0.96851(12)
O35_2 O 0.23529(15) 0.39383(12) 0.99423(14)
C73_3 C 0.21593(18) 0.41779(17) 0.96206(18)
N17_3 N 0.18994(17) 0.25845(18) 0.78134(17)
C74_3 C 0.22662(18) 0.25487(19) 0.81104(17)
N18_3 N 0.23318(16) 0.28581(16) 0.84754(16)
H33_3 H 0.255615 0.277728 0.867725
C75_3 C 0.16533(19) 0.41654(17) 0.88589(18)
H34_3 H 0.150678 0.445625 0.894865
C76_3 C 0.15232(18) 0.39360(18) 0.84329(18)
C77_3 C 0.2220(2) 0.35101(18) 0.90296(19)
H35_3 H 0.244000 0.336048 0.923814
C78_3 C 0.1752(2) 0.3539(2) 0.8285(2)
H36_3 H 0.168632 0.341844 0.797618
C79_3 C 0.2096(2) 0.32908(19) 0.85829(18)
C80_3 C 0.20100(18) 0.39536(18) 0.91546(18)
C81_3 C 0.11372(19) 0.41296(18) 0.81108(19)
O79_3 O 0.500000 0.000000 0.70275(17)
O62_2 O 0.53646(12) 0.96851(12) 0.79199(13)
O77_2 O 0.44335(14) 0.92198(16) 0.82692(14)
O79_4 O 0.500000 1.000000 0.70275(17)
O2_3 O 0.79199(13) 0.46354(12) 0.03149(12)
O4_3 O 0.76471(15) 0.39383(12) 0.00577(14)
C1_3 C 0.78407(18) 0.41779(17) 0.03794(18)
C3_3 C 0.88628(19) 0.41296(18) 0.18892(19)
O8_5 O 0.70275(17) 0.500000 0.000000
N3_3 N 0.81006(17) 0.25845(18) 0.21866(17)
C12_3 C 0.77338(18) 0.25487(19) 0.18896(17)
N4_3 N 0.76682(16) 0.28581(16) 0.15246(16)
H5_3 H 0.744385 0.277728 0.132275
C13_3 C 0.83467(19) 0.41654(17) 0.11411(18)
H6_3 H 0.849322 0.445625 0.105135
C14_3 C 0.84768(18) 0.39360(18) 0.15671(18)
C15_3 C 0.7780(2) 0.35101(18) 0.09704(19)
H7_3 H 0.756000 0.336048 0.076186
C16_3 C 0.8248(2) 0.3539(2) 0.1715(2)
H8_3 H 0.831368 0.341844 0.202382
C17_3 C 0.7904(2) 0.32908(19) 0.14171(18)
C18_3 C 0.79900(18) 0.39536(18) 0.08454(18)
O10_3 O 0.96851(12) 0.20801(13) 0.46354(12)
O11_3 O 0.99423(14) 0.23529(15) 0.39383(12)
C19_3 C 0.96206(18) 0.21593(18) 0.41779(17)
N5_3 N 0.78134(17) 0.18994(17) 0.25845(18)
C20_3 C 0.81104(17) 0.22662(18) 0.25487(19)
N6_3 N 0.84754(16) 0.23318(16) 0.28581(16)
H9_3 H 0.867725 0.255615 0.277728
C21_3 C 0.88589(18) 0.16533(19) 0.41654(17)
H10_3 H 0.894865 0.150678 0.445625
C22_3 C 0.84329(18) 0.15232(18) 0.39360(18)
C23_3 C 0.90296(19) 0.2220(2) 0.35101(18)
H11_3 H 0.923814 0.244000 0.336048
C24_3 C 0.8285(2) 0.1752(2) 0.3539(2)
H12_3 H 0.797618 0.168632 0.341844
C25_3 C 0.85829(18) 0.2096(2) 0.32908(19)
C26_3 C 0.91546(18) 0.20100(18) 0.39536(18)
C27_3 C 0.81108(19) 0.11372(19) 0.41296(18)
O14_2 O 0.53646(12) 0.03149(12) 0.20801(13)
O15_3 O 0.60617(12) 0.00577(14) 0.23529(15)
C28_3 C 0.58221(17) 0.03794(18) 0.21593(18)
N7_3 N 0.74155(18) 0.21866(17) 0.18994(17)
C29_3 C 0.74513(19) 0.18896(17) 0.22662(18)
N8_3 N 0.71419(16) 0.15246(16) 0.23318(16)
H13_3 H 0.722272 0.132275 0.255615
C30_3 C 0.58346(17) 0.11411(18) 0.16533(19)
H14_3 H 0.554375 0.105135 0.150678
C31_3 C 0.60640(18) 0.15671(18) 0.15232(18)
C32_3 C 0.64899(18) 0.09704(19) 0.2220(2)
H15_3 H 0.663952 0.076186 0.244000
C33_3 C 0.6461(2) 0.1715(2) 0.1752(2)
H16_3 H 0.658156 0.202382 0.168632
C34_3 C 0.67092(19) 0.14171(18) 0.2096(2)
C35_3 C 0.60464(18) 0.08454(18) 0.20100(18)
C36_3 C 0.58704(18) 0.18892(19) 0.11372(19)
O51_6 O 1.000000 0.29725(17) 0.500000
O76_2 O 0.82692(14) 0.55665(14) 0.07802(16)
O80_3 O 0.500000 -0.000000 0.29725(17)
O6_3 O 0.82692(14) 0.44335(14) 0.92198(16)
O7_3 O 0.97786(15) 0.31020(15) 0.76081(16)
C2_3 C 0.92453(18) 0.35304(18) 0.8115(2)
N1_3 N 0.83295(18) 0.23370(17) 0.78212(19)
O8_6 O 0.70275(17) 0.500000 1.000000
O9_3 O 0.89976(18) 0.47010(18) 0.9069(2)
C4_3 C 0.89157(19) 0.31601(19) 0.8133(2)
H1_3 H 0.896293 0.288616 0.794082
C5_3 C 0.8060(2) 0.2423(2) 0.8189(2)
N2_3 N 0.81509(17) 0.28215(17) 0.84788(19)
H2_3 H 0.796007 0.285242 0.872414
C6_3 C 0.91611(19) 0.39458(19) 0.8389(2)
H3_3 H 0.937734 0.420476 0.837215
C7_3 C 0.87559(19) 0.39774(19) 0.8690(2)
C8_3 C 0.85080(19) 0.3186(2) 0.84351(19)
C9_3 C 0.8431(2) 0.3587(2) 0.8713(2)
H4_3 H 0.816344 0.360132 0.891851
C10_3 C 0.96837(19) 0.34872(19) 0.7797(2)
C11_3 C 0.8669(2) 0.4408(2) 0.9006(2)
O18_3 O 0.92198(16) 0.17308(14) 0.55665(14)
C37_3 C 0.8115(2) 0.07547(18) 0.64696(18)
N9_3 N 0.78212(19) 0.16705(18) 0.76630(17)
O19_3 O 0.9069(2) 0.10024(18) 0.52990(18)
C38_3 C 0.8133(2) 0.10843(19) 0.68399(19)
H17_3 H 0.794082 0.103707 0.711384
C39_3 C 0.8189(2) 0.1940(2) 0.7577(2)
N10_3 N 0.84788(19) 0.18491(17) 0.71785(17)
H18_3 H 0.872414 0.203993 0.714758
C40_3 C 0.8389(2) 0.08389(19) 0.60542(19)
H19_3 H 0.837215 0.062266 0.579524
C41_3 C 0.8690(2) 0.12441(19) 0.60226(19)
C42_3 C 0.84351(19) 0.14920(19) 0.6814(2)
C43_3 C 0.8713(2) 0.1569(2) 0.6413(2)
H20_3 H 0.891851 0.183656 0.639868
C44_3 C 0.9006(2) 0.1331(2) 0.5592(2)
O21_3 O 0.76081(16) 0.02214(15) 0.68980(15)
C45_3 C 0.7797(2) 0.03163(19) 0.65128(19)
O22_2 O 0.55665(14) 0.07802(16) 0.82692(14)
C46_3 C 0.64696(18) 0.1885(2) 0.92453(18)
N11_3 N 0.76630(17) 0.21788(19) 0.83295(18)
O23_3 O 0.52990(18) 0.0931(2) 0.89976(18)
C47_3 C 0.68399(19) 0.1867(2) 0.89157(19)
H21_3 H 0.711384 0.205918 0.896293
C48_3 C 0.7577(2) 0.1811(2) 0.8060(2)
N12_3 N 0.71785(17) 0.15212(19) 0.81509(17)
H22_3 H 0.714758 0.127586 0.796007
C49_3 C 0.60542(19) 0.1611(2) 0.91611(19)
H23_3 H 0.579524 0.162785 0.937734
C50_3 C 0.60226(19) 0.1310(2) 0.87559(19)
C51_3 C 0.6814(2) 0.15649(19) 0.85080(19)
C52_3 C 0.6413(2) 0.1287(2) 0.8431(2)
H24_3 H 0.639868 0.108149 0.816344
C53_3 C 0.5592(2) 0.0994(2) 0.8669(2)
O25_3 O 0.68980(15) 0.23919(16) 0.97786(15)
C54_3 C 0.65128(19) 0.2203(2) 0.96837(19)
O58_2 O 0.79199(13) 0.53646(12) 0.96851(12)
O69_2 O 0.76471(15) 0.60617(12) 0.99423(14)
O61_2 O 0.46354(12) 0.96851(12) 0.20801(13)
O78_2 O 0.55665(14) 0.92198(16) 0.17308(14)
O80_4 O 0.500000 1.000000 0.29725(17)
O2_4 O 0.20801(13) 0.53646(12) 0.03149(12)
O4_4 O 0.23529(15) 0.60617(12) 0.00577(14)
C1_4 C 0.21593(18) 0.58221(17) 0.03794(18)
C3_4 C 0.11372(19) 0.58704(18) 0.18892(19)
O8_7 O 0.29725(17) 0.500000 0.000000
N3_4 N 0.18994(17) 0.74155(18) 0.21866(17)
C12_4 C 0.22662(18) 0.74513(19) 0.18896(17)
N4_4 N 0.23318(16) 0.71419(16) 0.15246(16)
H5_4 H 0.255615 0.722272 0.132275
C13_4 C 0.16533(19) 0.58346(17) 0.11411(18)
H6_4 H 0.150678 0.554375 0.105135
C14_4 C 0.15232(18) 0.60640(18) 0.15671(18)
C15_4 C 0.2220(2) 0.64899(18) 0.09704(19)
H7_4 H 0.244000 0.663952 0.076186
C16_4 C 0.1752(2) 0.6461(2) 0.1715(2)
H8_4 H 0.168632 0.658156 0.202382
C17_4 C 0.2096(2) 0.67092(19) 0.14171(18)
C18_4 C 0.20100(18) 0.60464(18) 0.08454(18)
O10_4 O 0.03149(12) 0.79199(13) 0.46354(12)
O11_4 O 0.00577(14) 0.76471(15) 0.39383(12)
C19_4 C 0.03794(18) 0.78407(18) 0.41779(17)
N5_4 N 0.21866(17) 0.81006(17) 0.25845(18)
C20_4 C 0.18896(17) 0.77338(18) 0.25487(19)
N6_4 N 0.15246(16) 0.76682(16) 0.28581(16)
H9_4 H 0.132275 0.744385 0.277728
C21_4 C 0.11411(18) 0.83467(19) 0.41654(17)
H10_4 H 0.105135 0.849322 0.445625
C22_4 C 0.15671(18) 0.84768(18) 0.39360(18)
C23_4 C 0.09704(19) 0.7780(2) 0.35101(18)
H11_4 H 0.076186 0.756000 0.336048
C24_4 C 0.1715(2) 0.8248(2) 0.3539(2)
H12_4 H 0.202382 0.831368 0.341844
C25_4 C 0.14171(18) 0.7904(2) 0.32908(19)
C26_4 C 0.08454(18) 0.79900(18) 0.39536(18)
C27_4 C 0.18892(19) 0.88628(19) 0.41296(18)
O15_4 O 0.39383(12) 0.99423(14) 0.23529(15)
C28_4 C 0.41779(17) 0.96206(18) 0.21593(18)
N7_4 N 0.25845(18) 0.78134(17) 0.18994(17)
C29_4 C 0.25487(19) 0.81104(17) 0.22662(18)
N8_4 N 0.28581(16) 0.84754(16) 0.23318(16)
H13_4 H 0.277728 0.867725 0.255615
C30_4 C 0.41654(17) 0.88589(18) 0.16533(19)
H14_4 H 0.445625 0.894865 0.150678
C31_4 C 0.39360(18) 0.84329(18) 0.15232(18)
C32_4 C 0.35101(18) 0.90296(19) 0.2220(2)
H15_4 H 0.336048 0.923814 0.244000
C33_4 C 0.3539(2) 0.8285(2) 0.1752(2)
H16_4 H 0.341844 0.797618 0.168632
C34_4 C 0.32908(19) 0.85829(18) 0.2096(2)
C35_4 C 0.39536(18) 0.91546(18) 0.20100(18)
C36_4 C 0.41296(18) 0.81108(19) 0.11372(19)
O51_7 O 0.000000 0.70275(17) 0.500000
O6_4 O 0.17308(14) 0.55665(14) 0.92198(16)
O7_4 O 0.02214(15) 0.68980(15) 0.76081(16)
C2_4 C 0.07547(18) 0.64696(18) 0.8115(2)
N1_4 N 0.16705(18) 0.76630(17) 0.78212(19)
O8_8 O 0.29725(17) 0.500000 1.000000
O9_4 O 0.10024(18) 0.52990(18) 0.9069(2)
C4_4 C 0.10843(19) 0.68399(19) 0.8133(2)
H1_4 H 0.103707 0.711384 0.794082
C5_4 C 0.1940(2) 0.7577(2) 0.8189(2)
N2_4 N 0.18491(17) 0.71785(17) 0.84788(19)
H2_4 H 0.203993 0.714758 0.872414
C6_4 C 0.08389(19) 0.60542(19) 0.8389(2)
H3_4 H 0.062266 0.579524 0.837215
C7_4 C 0.12441(19) 0.60226(19) 0.8690(2)
C8_4 C 0.14920(19) 0.6814(2) 0.84351(19)
C9_4 C 0.1569(2) 0.6413(2) 0.8713(2)
H4_4 H 0.183656 0.639868 0.891851
C10_4 C 0.03163(19) 0.65128(19) 0.7797(2)
C11_4 C 0.1331(2) 0.5592(2) 0.9006(2)
O18_4 O 0.07802(16) 0.82692(14) 0.55665(14)
C37_4 C 0.1885(2) 0.92453(18) 0.64696(18)
N9_4 N 0.21788(19) 0.83295(18) 0.76630(17)
O19_4 O 0.0931(2) 0.89976(18) 0.52990(18)
C38_4 C 0.1867(2) 0.89157(19) 0.68399(19)
H17_4 H 0.205918 0.896293 0.711384
C39_4 C 0.1811(2) 0.8060(2) 0.7577(2)
N10_4 N 0.15212(19) 0.81509(17) 0.71785(17)
H18_4 H 0.127586 0.796007 0.714758
C40_4 C 0.1611(2) 0.91611(19) 0.60542(19)
H19_4 H 0.162785 0.937734 0.579524
C41_4 C 0.1310(2) 0.87559(19) 0.60226(19)
C42_4 C 0.15649(19) 0.85080(19) 0.6814(2)
C43_4 C 0.1287(2) 0.8431(2) 0.6413(2)
H20_4 H 0.108149 0.816344 0.639868
C44_4 C 0.0994(2) 0.8669(2) 0.5592(2)
O21_4 O 0.23919(16) 0.97786(15) 0.68980(15)
C45_4 C 0.2203(2) 0.96837(19) 0.65128(19)
C46_4 C 0.35304(18) 0.8115(2) 0.92453(18)
N11_4 N 0.23370(17) 0.78212(19) 0.83295(18)
O23_4 O 0.47010(18) 0.9069(2) 0.89976(18)
C47_4 C 0.31601(19) 0.8133(2) 0.89157(19)
H21_4 H 0.288616 0.794082 0.896293
C48_4 C 0.2423(2) 0.8189(2) 0.8060(2)
N12_4 N 0.28215(17) 0.84788(19) 0.81509(17)
H22_4 H 0.285242 0.872414 0.796007
C49_4 C 0.39458(19) 0.8389(2) 0.91611(19)
H23_4 H 0.420476 0.837215 0.937734
C50_4 C 0.39774(19) 0.8690(2) 0.87559(19)
C51_4 C 0.3186(2) 0.84351(19) 0.85080(19)
C52_4 C 0.3587(2) 0.8713(2) 0.8431(2)
H24_4 H 0.360132 0.891851 0.816344
C53_4 C 0.4408(2) 0.9006(2) 0.8669(2)
O25_4 O 0.31020(15) 0.76081(16) 0.97786(15)
C54_4 C 0.34872(19) 0.7797(2) 0.96837(19)
O39_4 O 0.92198(16) 0.82692(14) 0.44335(14)
O40_4 O 0.76081(16) 0.97786(15) 0.31020(15)
C82_4 C 0.8115(2) 0.92453(18) 0.35304(18)
N19_4 N 0.78212(19) 0.83295(18) 0.23370(17)
O41_4 O 0.9069(2) 0.89976(18) 0.47010(18)
C83_4 C 0.8133(2) 0.89157(19) 0.31601(19)
H37_4 H 0.794082 0.896293 0.288616
C84_4 C 0.8189(2) 0.8060(2) 0.2423(2)
N20_4 N 0.84788(19) 0.81509(17) 0.28215(17)
H38_4 H 0.872414 0.796007 0.285242
C85_4 C 0.8389(2) 0.91611(19) 0.39458(19)
H39_4 H 0.837215 0.937734 0.420476
C86_4 C 0.8690(2) 0.87559(19) 0.39774(19)
C87_4 C 0.84351(19) 0.85080(19) 0.3186(2)
C88_4 C 0.8713(2) 0.8431(2) 0.3587(2)
H40_4 H 0.891851 0.816344 0.360132
C89_4 C 0.7797(2) 0.96837(19) 0.34872(19)
C90_4 C 0.9006(2) 0.8669(2) 0.4408(2)
C91_4 C 0.64696(18) 0.8115(2) 0.07547(18)
N21_4 N 0.76630(17) 0.78212(19) 0.16705(18)
O43_4 O 0.52990(18) 0.9069(2) 0.10024(18)
C92_4 C 0.68399(19) 0.8133(2) 0.10843(19)
H41_4 H 0.711384 0.794082 0.103707
C93_4 C 0.7577(2) 0.8189(2) 0.1940(2)
N22_4 N 0.71785(17) 0.84788(19) 0.18491(17)
H42_4 H 0.714758 0.872414 0.203993
C94_4 C 0.60542(19) 0.8389(2) 0.08389(19)
H43_4 H 0.579524 0.837215 0.062266
C95_4 C 0.60226(19) 0.8690(2) 0.12441(19)
C96_4 C 0.6814(2) 0.84351(19) 0.14920(19)
C97_4 C 0.6413(2) 0.8713(2) 0.1569(2)
H44_4 H 0.639868 0.891851 0.183656
C98_4 C 0.5592(2) 0.9006(2) 0.1331(2)
O45_4 O 0.68980(15) 0.76081(16) 0.02214(15)
C99_4 C 0.65128(19) 0.7797(2) 0.03163(19)
C100_4 C 0.92453(18) 0.64696(18) 0.1885(2)
N23_4 N 0.83295(18) 0.76630(17) 0.21788(19)
O47_4 O 0.89976(18) 0.52990(18) 0.0931(2)
C101_4 C 0.89157(19) 0.68399(19) 0.1867(2)
H45_4 H 0.896293 0.711384 0.205918
C102_4 C 0.8060(2) 0.7577(2) 0.1811(2)
N24_4 N 0.81509(17) 0.71785(17) 0.15212(19)
H46_4 H 0.796007 0.714758 0.127586
C103_4 C 0.91611(19) 0.60542(19) 0.1611(2)
H47_4 H 0.937734 0.579524 0.162785
C104_4 C 0.87559(19) 0.60226(19) 0.1310(2)
C105_4 C 0.85080(19) 0.6814(2) 0.15649(19)
C106_4 C 0.8431(2) 0.6413(2) 0.1287(2)
H48_4 H 0.816344 0.639868 0.108149
C107_4 C 0.8669(2) 0.5592(2) 0.0994(2)
O49_4 O 0.97786(15) 0.68980(15) 0.23919(16)
C108_4 C 0.96837(19) 0.65128(19) 0.2203(2)
O51_8 O 1.000000 0.70275(17) 0.500000
O59_4 O 0.96851(12) 0.79199(13) 0.53646(12)
O29_4 O 0.99423(14) 0.76471(15) 0.60617(12)
C55_4 C 0.96206(18) 0.78407(18) 0.58221(17)
C56_4 C 0.81108(19) 0.88628(19) 0.58704(18)
N13_4 N 0.78134(17) 0.81006(17) 0.74155(18)
C57_4 C 0.81104(17) 0.77338(18) 0.74513(19)
N14_4 N 0.84754(16) 0.76682(16) 0.71419(16)
H25_4 H 0.867725 0.744385 0.722272
C58_4 C 0.88589(18) 0.83467(19) 0.58346(17)
H26_4 H 0.894865 0.849322 0.554375
C59_4 C 0.84329(18) 0.84768(18) 0.60640(18)
C60_4 C 0.90296(19) 0.7780(2) 0.64899(18)
H27_4 H 0.923814 0.756000 0.663952
C61_4 C 0.8285(2) 0.8248(2) 0.6461(2)
H28_4 H 0.797618 0.831368 0.658156
C62_4 C 0.85829(18) 0.7904(2) 0.67092(19)
C63_4 C 0.91546(18) 0.79900(18) 0.60464(18)
O31_4 O 0.60617(12) 0.99423(14) 0.76471(15)
C64_4 C 0.58221(17) 0.96206(18) 0.78407(18)
N15_4 N 0.74155(18) 0.78134(17) 0.81006(17)
C65_4 C 0.74513(19) 0.81104(17) 0.77338(18)
N16_4 N 0.71419(16) 0.84754(16) 0.76682(16)
H29_4 H 0.722272 0.867725 0.744385
C66_4 C 0.58346(17) 0.88589(18) 0.83467(19)
H30_4 H 0.554375 0.894865 0.849322
C67_4 C 0.60640(18) 0.84329(18) 0.84768(18)
C68_4 C 0.64899(18) 0.90296(19) 0.7780(2)
H31_4 H 0.663952 0.923814 0.756000
C69_4 C 0.6461(2) 0.8285(2) 0.8248(2)
H32_4 H 0.658156 0.797618 0.831368
C70_4 C 0.67092(19) 0.85829(18) 0.7904(2)
C71_4 C 0.60464(18) 0.91546(18) 0.79900(18)
C72_4 C 0.58704(18) 0.81108(19) 0.88628(19)
C73_4 C 0.78407(18) 0.58221(17) 0.96206(18)
N17_4 N 0.81006(17) 0.74155(18) 0.78134(17)
C74_4 C 0.77338(18) 0.74513(19) 0.81104(17)
N18_4 N 0.76682(16) 0.71419(16) 0.84754(16)
H33_4 H 0.744385 0.722272 0.867725
C75_4 C 0.83467(19) 0.58346(17) 0.88589(18)
H34_4 H 0.849322 0.554375 0.894865
C76_4 C 0.84768(18) 0.60640(18) 0.84329(18)
C77_4 C 0.7780(2) 0.64899(18) 0.90296(19)
H35_4 H 0.756000 0.663952 0.923814
C78_4 C 0.8248(2) 0.6461(2) 0.8285(2)
H36_4 H 0.831368 0.658156 0.797618
C79_4 C 0.7904(2) 0.67092(19) 0.85829(18)
C80_4 C 0.79900(18) 0.60464(18) 0.91546(18)
C81_4 C 0.88628(19) 0.58704(18) 0.81108(19)
loop_
_geom_bond_atom_site_label_1
_geom_bond_atom_site_label_2
_geom_bond_site_symmetry_1
_geom_bond_site_symmetry_2
Gd14 O62 1_555 1_555
Gd14 O79 1_555 1_555
O55 Gd2 1_555 1_555
O66 Gd2 1_555 1_555
O69 Gd2 1_555 1_555
O76 Gd2 1_555 1_555
O8 Gd2 1_555 1_555
Gd2 O58 1_555 1_555
O51 Gd9 1_555 1_555
Gd9 O59 1_555 1_555
Gd1 O2 1_555 1_555
O1 C3 1_555 1_555
O2 C1 1_555 1_555
O3 C3 1_555 1_555
O4 Gd1 1_555 1_555
O5 C10 1_555 1_555
O6 Gd1 1_555 1_555
O7 C10 1_555 1_555
C1 O4 1_555 1_555
C2 C4 1_555 1_555
C3 C14 1_555 1_555
N1 C5 1_555 1_555
O8_2 Gd1 1_555 1_555
O9 C11 1_555 1_555
C4 H1 1_555 1_555
C5 N2 1_555 1_555
N2 H2 1_555 1_555
C6 C2 1_555 1_555
H3 C6 1_555 1_555
C7 C6 1_555 1_555
C8 C4 1_555 1_555
C9 C7 1_555 1_555
H4 C9 1_555 1_555
C10 C2 1_555 1_555
C11 O6 1_555 1_555
N3 C12 1_555 1_555
C12 N4 1_555 1_555
N4 H5 1_555 1_555
C13 H6 1_555 1_555
C14 C13 1_555 1_555
C15 H7 1_555 1_555
C16 C14 1_555 1_555
H8 C16 1_555 1_555
C17 N4 1_555 1_555
C18 C1 1_555 1_555
O10 C19 1_555 1_555
O11 C19 1_555 1_555
C19 C26 1_555 1_555
N5 C20 1_555 1_555
C20 N3 1_555 1_555
N6 C20 1_555 1_555
H9 N6 1_555 1_555
C21 H10 1_555 1_555
C22 C21 1_555 1_555
C23 H11 1_555 1_555
C24 C22 1_555 1_555
H12 C24 1_555 1_555
C25 N6 1_555 1_555
C26 C21 1_555 1_555
O12 C27 1_555 1_555
O13 C27 1_555 1_555
C27 C22 1_555 1_555
O14 C28 1_555 1_555
O15 C28 1_555 1_555
C28 C35 1_555 1_555
N7 C12 1_555 1_555
C29 N5 1_555 1_555
N8 C29 1_555 1_555
H13 N8 1_555 1_555
C30 H14 1_555 1_555
C31 C30 1_555 1_555
C32 H15 1_555 1_555
C33 C31 1_555 1_555
H16 C33 1_555 1_555
C34 N8 1_555 1_555
C35 C30 1_555 1_555
O16 C36 1_555 1_555
O17 C36 1_555 1_555
C36 C31 1_555 1_555
O18 C44 1_555 1_555
C37 C38 1_555 1_555
N9 C39 1_555 1_555
O19 C44 1_555 1_555
C38 H17 1_555 1_555
C39 N1 1_555 1_555
N10 C39 1_555 1_555
H18 N10 1_555 1_555
C40 C37 1_555 1_555
H19 C40 1_555 1_555
C41 C40 1_555 1_555
C42 C38 1_555 1_555
C43 C41 1_555 1_555
H20 C43 1_555 1_555
C44 C41 1_555 1_555
O20 C45 1_555 1_555
O21 C45 1_555 1_555
C45 C37 1_555 1_555
O22 C53 1_555 1_555
C46 C47 1_555 1_555
N11 C5 1_555 1_555
O23 C53 1_555 1_555
C47 H21 1_555 1_555
C48 N9 1_555 1_555
N12 C48 1_555 1_555
H22 N12 1_555 1_555
C49 C46 1_555 1_555
H23 C49 1_555 1_555
C50 C49 1_555 1_555
C51 C47 1_555 1_555
C52 C50 1_555 1_555
H24 C52 1_555 1_555
C53 C50 1_555 1_555
O24 C54 1_555 1_555
O25 C54 1_555 1_555
C54 C46 1_555 1_555
Gd9 O18 1_555 1_555
O26 C56 1_555 1_555
O28 C56 1_555 1_555
O29 Gd9 1_555 1_555
C55 O59 1_555 1_555
C56 C59 1_555 1_555
N13 C57 1_555 1_555
C57 N14 1_555 1_555
N14 H25 1_555 1_555
C58 H26 1_555 1_555
C59 C58 1_555 1_555
C60 H27 1_555 1_555
C61 C59 1_555 1_555
H28 C61 1_555 1_555
C62 N14 1_555 1_555
C63 C55 1_555 1_555
O30 C64 1_555 1_555
O31 C64 1_555 1_555
C64 C71 1_555 1_555
N15 C65 1_555 1_555
C65 N13 1_555 1_555
N16 C65 1_555 1_555
H29 N16 1_555 1_555
C66 H30 1_555 1_555
C67 C66 1_555 1_555
C68 H31 1_555 1_555
C69 C67 1_555 1_555
H32 C69 1_555 1_555
C70 N16 1_555 1_555
C71 C66 1_555 1_555
O32 C72 1_555 1_555
O33 C72 1_555 1_555
C72 C67 1_555 1_555
O34 C73 1_555 1_555
O35 C73 1_555 1_555
C73 C80 1_555 1_555
N17 C57 1_555 1_555
C74 N15 1_555 1_555
N18 C74 1_555 1_555
H33 N18 1_555 1_555
C75 H34 1_555 1_555
C76 C75 1_555 1_555
C77 H35 1_555 1_555
C78 C76 1_555 1_555
H36 C78 1_555 1_555
C79 N18 1_555 1_555
C80 C75 1_555 1_555
O36 C81 1_555 1_555
O37 C81 1_555 1_555
C81 C76 1_555 1_555
Gd4 O10 1_555 1_555
O38 C89 1_555 1_555
O39 Gd4 1_555 1_555
O40 C89 1_555 1_555
C82 C83 1_555 1_555
N19 C84 1_555 1_555
O41 C90 1_555 1_555
C83 H37 1_555 1_555
C84 N20 1_555 1_555
N20 H38 1_555 1_555
C85 C82 1_555 1_555
H39 C85 1_555 1_555
C86 C85 1_555 1_555
C87 C83 1_555 1_555
C88 C86 1_555 1_555
H40 C88 1_555 1_555
C89 C82 1_555 1_555
C90 O39 1_555 1_555
O42 C98 1_555 1_555
C91 C92 1_555 1_555
N21 C93 1_555 1_555
O43 C98 1_555 1_555
C92 H41 1_555 1_555
C93 N19 1_555 1_555
N22 C93 1_555 1_555
H42 N22 1_555 1_555
C94 C91 1_555 1_555
H43 C94 1_555 1_555
C95 C94 1_555 1_555
C96 C92 1_555 1_555
C97 C95 1_555 1_555
H44 C97 1_555 1_555
C98 C95 1_555 1_555
O44 C99 1_555 1_555
O45 C99 1_555 1_555
C99 C91 1_555 1_555
O46 C107 1_555 1_555
C100 C101 1_555 1_555
N23 C84 1_555 1_555
O47 C107 1_555 1_555
C101 H45 1_555 1_555
C102 N21 1_555 1_555
N24 C102 1_555 1_555
H46 N24 1_555 1_555
C103 C100 1_555 1_555
H47 C103 1_555 1_555
C104 C103 1_555 1_555
C105 C101 1_555 1_555
C106 C104 1_555 1_555
H48 C106 1_555 1_555
C107 C104 1_555 1_555
O48 C108 1_555 1_555
O49 C108 1_555 1_555
C108 C100 1_555 1_555
Gd5 O30 1_555 1_555
Gd6 O14 1_555 1_555
O51_2 Gd4 1_555 1_555
Gd8 O34 1_555 1_555
Gd12 O42 1_555 1_555
Gd14 O22 1_555 1_555
Gd15 O38 1_555 1_555
Gd16 O12 1_555 1_555
Gd17 O20 1_555 1_555
Gd18 O26 1_555 1_555
Gd19 O32 1_555 1_555
Gd20 O16 1_555 1_555
Gd21 O1 1_555 1_555
Gd22 O5 1_555 1_555
O52 Gd5 1_555 1_555
O53 Gd6 1_555 1_555
O54 Gd1 1_555 1_555
O56 Gd9 1_555 1_555
O57 Gd4 1_555 1_555
O63 Gd5 1_555 1_555
O64 Gd6 1_555 1_555
O65 Gd1 1_555 1_555
O67 Gd9 1_555 1_555
O68 Gd4 1_555 1_555
O77 Gd5 1_555 1_555
O78 Gd6 1_555 1_555
O79_2 Gd5 1_555 1_555
O80 Gd6 1_555 1_555
O3 Gd21 1_555 1_555
N2 C8 1_555 1_555
C7 C11 1_555 1_555
C8 C9 1_555 1_555
C13 C18 1_555 1_555
C15 C17 1_555 1_555
C15 C18 1_555 1_555
C16 C17 1_555 1_555
O11 Gd4 1_555 1_555
C23 C25 1_555 1_555
C23 C26 1_555 1_555
C24 C25 1_555 1_555
O13 Gd16 1_555 1_555
O15 Gd6 1_555 1_555
N7 C29 1_555 1_555
C32 C34 1_555 1_555
C32 C35 1_555 1_555
C33 C34 1_555 1_555
O17 Gd20 1_555 1_555
N10 C42 1_555 1_555
C42 C43 1_555 1_555
N11 C48 1_555 1_555
N12 C51 1_555 1_555
C51 C52 1_555 1_555
O24 Gd20 1_555 1_555
O28 Gd18 1_555 1_555
O29 C55 1_555 1_555
C58 C63 1_555 1_555
C60 C62 1_555 1_555
C60 C63 1_555 1_555
C61 C62 1_555 1_555
O31 Gd5 1_555 1_555
C68 C70 1_555 1_555
C68 C71 1_555 1_555
C69 C70 1_555 1_555
O33 Gd19 1_555 1_555
O35 Gd8 1_555 1_555
N17 C74 1_555 1_555
C77 C79 1_555 1_555
C77 C80 1_555 1_555
C78 C79 1_555 1_555
O36 Gd22 1_555 1_555
O37 Gd22 1_555 1_555
N20 C87 1_555 1_555
C86 C90 1_555 1_555
C87 C88 1_555 1_555
N22 C96 1_555 1_555
C96 C97 1_555 1_555
O44 Gd19 1_555 1_555
O46 Gd8 1_555 1_555
N23 C102 1_555 1_555
N24 C105 1_555 1_555
C105 C106 1_555 1_555
O48 Gd21 1_555 1_555
Gd12 O61 1_555 1_555
Gd12 O80_2 1_555 1_555
O51_3 Gd9_2 1_555 1_555
Gd9_2 O59_2 1_555 1_555
Gd7 O2_2 1_555 1_555
O1_2 C3_2 1_555 1_555
O2_2 C1_2 1_555 1_555
O3_2 C3_2 1_555 1_555
O4_2 Gd7 1_555 1_555
O5_2 C10_2 1_555 1_555
O6_2 Gd7 1_555 1_555
O7_2 C10_2 1_555 1_555
C1_2 O4_2 1_555 1_555
C2_2 C4_2 1_555 1_555
C3_2 C14_2 1_555 1_555
N1_2 C5_2 1_555 1_555
O8_3 Gd7 1_555 1_555
O9_2 C11_2 1_555 1_555
C4_2 H1_2 1_555 1_555
C5_2 N2_2 1_555 1_555
N2_2 H2_2 1_555 1_555
C6_2 C2_2 1_555 1_555
H3_2 C6_2 1_555 1_555
C7_2 C6_2 1_555 1_555
C8_2 C4_2 1_555 1_555
C9_2 C7_2 1_555 1_555
H4_2 C9_2 1_555 1_555
C10_2 C2_2 1_555 1_555
C11_2 O6_2 1_555 1_555
N3_2 C12_2 1_555 1_555
C12_2 N4_2 1_555 1_555
N4_2 H5_2 1_555 1_555
C13_2 H6_2 1_555 1_555
C14_2 C13_2 1_555 1_555
C15_2 H7_2 1_555 1_555
C16_2 C14_2 1_555 1_555
H8_2 C16_2 1_555 1_555
C17_2 N4_2 1_555 1_555
C18_2 C1_2 1_555 1_555
O10_2 C19_2 1_555 1_555
O11_2 C19_2 1_555 1_555
C19_2 C26_2 1_555 1_555
N5_2 C20_2 1_555 1_555
C20_2 N3_2 1_555 1_555
N6_2 C20_2 1_555 1_555
H9_2 N6_2 1_555 1_555
C21_2 H10_2 1_555 1_555
C22_2 C21_2 1_555 1_555
C23_2 H11_2 1_555 1_555
C24_2 C22_2 1_555 1_555
H12_2 C24_2 1_555 1_555
C25_2 N6_2 1_555 1_555
C26_2 C21_2 1_555 1_555
O12_2 C27_2 1_555 1_555
O13_2 C27_2 1_555 1_555
C27_2 C22_2 1_555 1_555
O61 C28_2 1_555 1_555
O15_2 C28_2 1_555 1_555
C28_2 C35_2 1_555 1_555
N7_2 C12_2 1_555 1_555
C29_2 N5_2 1_555 1_555
N8_2 C29_2 1_555 1_555
H13_2 N8_2 1_555 1_555
C30_2 H14_2 1_555 1_555
C31_2 C30_2 1_555 1_555
C32_2 H15_2 1_555 1_555
C33_2 C31_2 1_555 1_555
H16_2 C33_2 1_555 1_555
C34_2 N8_2 1_555 1_555
C35_2 C30_2 1_555 1_555
O16_2 C36_2 1_555 1_555
O17_2 C36_2 1_555 1_555
C36_2 C31_2 1_555 1_555
O18_2 C44_2 1_555 1_555
C37_2 C38_2 1_555 1_555
N9_2 C39_2 1_555 1_555
O19_2 C44_2 1_555 1_555
C38_2 H17_2 1_555 1_555
C39_2 N1_2 1_555 1_555
N10_2 C39_2 1_555 1_555
H18_2 N10_2 1_555 1_555
C40_2 C37_2 1_555 1_555
H19_2 C40_2 1_555 1_555
C41_2 C40_2 1_555 1_555
C42_2 C38_2 1_555 1_555
C43_2 C41_2 1_555 1_555
H20_2 C43_2 1_555 1_555
C44_2 C41_2 1_555 1_555
O20_2 C45_2 1_555 1_555
O21_2 C45_2 1_555 1_555
C45_2 C37_2 1_555 1_555
O77 C53_2 1_555 1_555
C46_2 C47_2 1_555 1_555
N11_2 C5_2 1_555 1_555
O23_2 C53_2 1_555 1_555
C47_2 H21_2 1_555 1_555
C48_2 N9_2 1_555 1_555
N12_2 C48_2 1_555 1_555
H22_2 N12_2 1_555 1_555
C49_2 C46_2 1_555 1_555
H23_2 C49_2 1_555 1_555
C50_2 C49_2 1_555 1_555
C51_2 C47_2 1_555 1_555
C52_2 C50_2 1_555 1_555
H24_2 C52_2 1_555 1_555
C53_2 C50_2 1_555 1_555
O24_2 C54_2 1_555 1_555
O25_2 C54_2 1_555 1_555
C54_2 C46_2 1_555 1_555
Gd9_2 O18_2 1_555 1_555
O26_2 C56_2 1_555 1_555
O28_2 C56_2 1_555 1_555
O29_2 Gd9_2 1_555 1_555
C55_2 O59_2 1_555 1_555
C56_2 C59_2 1_555 1_555
N13_2 C57_2 1_555 1_555
C57_2 N14_2 1_555 1_555
N14_2 H25_2 1_555 1_555
C58_2 H26_2 1_555 1_555
C59_2 C58_2 1_555 1_555
C60_2 H27_2 1_555 1_555
C61_2 C59_2 1_555 1_555
H28_2 C61_2 1_555 1_555
C62_2 N14_2 1_555 1_555
C63_2 C55_2 1_555 1_555
O62 C64_2 1_555 1_555
O31_2 C64_2 1_555 1_555
C64_2 C71_2 1_555 1_555
N15_2 C65_2 1_555 1_555
C65_2 N13_2 1_555 1_555
N16_2 C65_2 1_555 1_555
H29_2 N16_2 1_555 1_555
C66_2 H30_2 1_555 1_555
C67_2 C66_2 1_555 1_555
C68_2 H31_2 1_555 1_555
C69_2 C67_2 1_555 1_555
H32_2 C69_2 1_555 1_555
C70_2 N16_2 1_555 1_555
C71_2 C66_2 1_555 1_555
O32_2 C72_2 1_555 1_555
O33_2 C72_2 1_555 1_555
C72_2 C67_2 1_555 1_555
O58 C73_2 1_555 1_555
O69 C73_2 1_555 1_555
C73_2 C80_2 1_555 1_555
N17_2 C57_2 1_555 1_555
C74_2 N15_2 1_555 1_555
N18_2 C74_2 1_555 1_555
H33_2 N18_2 1_555 1_555
C75_2 H34_2 1_555 1_555
C76_2 C75_2 1_555 1_555
C77_2 H35_2 1_555 1_555
C78_2 C76_2 1_555 1_555
H36_2 C78_2 1_555 1_555
C79_2 N18_2 1_555 1_555
C80_2 C75_2 1_555 1_555
O36_2 C81_2 1_555 1_555
O37_2 C81_2 1_555 1_555
C81_2 C76_2 1_555 1_555
Gd4_2 O10_2 1_555 1_555
O38_2 C89_2 1_555 1_555
O39_2 Gd4_2 1_555 1_555
O40_2 C89_2 1_555 1_555
C82_2 C83_2 1_555 1_555
N19_2 C84_2 1_555 1_555
O41_2 C90_2 1_555 1_555
C83_2 H37_2 1_555 1_555
C84_2 N20_2 1_555 1_555
N20_2 H38_2 1_555 1_555
C85_2 C82_2 1_555 1_555
H39_2 C85_2 1_555 1_555
C86_2 C85_2 1_555 1_555
C87_2 C83_2 1_555 1_555
C88_2 C86_2 1_555 1_555
H40_2 C88_2 1_555 1_555
C89_2 C82_2 1_555 1_555
C90_2 O39_2 1_555 1_555
O78 C98_2 1_555 1_555
C91_2 C92_2 1_555 1_555
N21_2 C93_2 1_555 1_555
O43_2 C98_2 1_555 1_555
C92_2 H41_2 1_555 1_555
C93_2 N19_2 1_555 1_555
N22_2 C93_2 1_555 1_555
H42_2 N22_2 1_555 1_555
C94_2 C91_2 1_555 1_555
H43_2 C94_2 1_555 1_555
C95_2 C94_2 1_555 1_555
C96_2 C92_2 1_555 1_555
C97_2 C95_2 1_555 1_555
H44_2 C97_2 1_555 1_555
C98_2 C95_2 1_555 1_555
O44_2 C99_2 1_555 1_555
O45_2 C99_2 1_555 1_555
C99_2 C91_2 1_555 1_555
O76 C107_2 1_555 1_555
C100_2 C101_2 1_555 1_555
N23_2 C84_2 1_555 1_555
O47_2 C107_2 1_555 1_555
C101_2 H45_2 1_555 1_555
C102_2 N21_2 1_555 1_555
N24_2 C102_2 1_555 1_555
H46_2 N24_2 1_555 1_555
C103_2 C100_2 1_555 1_555
H47_2 C103_2 1_555 1_555
C104_2 C103_2 1_555 1_555
C105_2 C101_2 1_555 1_555
C106_2 C104_2 1_555 1_555
H48_2 C106_2 1_555 1_555
C107_2 C104_2 1_555 1_555
O48_2 C108_2 1_555 1_555
O49_2 C108_2 1_555 1_555
C108_2 C100_2 1_555 1_555
O51_4 Gd4_2 1_555 1_555
Gd16 O38_2 1_555 1_555
Gd15 O12_2 1_555 1_555
Gd18 O20_2 1_555 1_555
Gd17 O26_2 1_555 1_555
Gd19_2 O32_2 1_555 1_555
Gd20_2 O16_2 1_555 1_555
Gd21_2 O1_2 1_555 1_555
Gd22_2 O5_2 1_555 1_555
O52_2 Gd14 1_555 1_555
O53_2 Gd12 1_555 1_555
O54_2 Gd7 1_555 1_555
O56_2 Gd9_2 1_555 1_555
O57_2 Gd4_2 1_555 1_555
O63_2 Gd14 1_555 1_555
O64_2 Gd12 1_555 1_555
O65_2 Gd7 1_555 1_555
O67_2 Gd9_2 1_555 1_555
O68_2 Gd4_2 1_555 1_555
O3_2 Gd21_2 1_555 1_555
N2_2 C8_2 1_555 1_555
C7_2 C11_2 1_555 1_555
C8_2 C9_2 1_555 1_555
C13_2 C18_2 1_555 1_555
C15_2 C17_2 1_555 1_555
C15_2 C18_2 1_555 1_555
C16_2 C17_2 1_555 1_555
O11_2 Gd4_2 1_555 1_555
C23_2 C25_2 1_555 1_555
C23_2 C26_2 1_555 1_555
C24_2 C25_2 1_555 1_555
O13_2 Gd15 1_555 1_555
O15_2 Gd12 1_555 1_555
N7_2 C29_2 1_555 1_555
C32_2 C34_2 1_555 1_555
C32_2 C35_2 1_555 1_555
C33_2 C34_2 1_555 1_555
O17_2 Gd20_2 1_555 1_555
N10_2 C42_2 1_555 1_555
C42_2 C43_2 1_555 1_555
N11_2 C48_2 1_555 1_555
N12_2 C51_2 1_555 1_555
C51_2 C52_2 1_555 1_555
O24_2 Gd20_2 1_555 1_555
O28_2 Gd17 1_555 1_555
O29_2 C55_2 1_555 1_555
C58_2 C63_2 1_555 1_555
C60_2 C62_2 1_555 1_555
C60_2 C63_2 1_555 1_555
C61_2 C62_2 1_555 1_555
O31_2 Gd14 1_555 1_555
C68_2 C70_2 1_555 1_555
C68_2 C71_2 1_555 1_555
C69_2 C70_2 1_555 1_555
O33_2 Gd19_2 1_555 1_555
N17_2 C74_2 1_555 1_555
C77_2 C79_2 1_555 1_555
C77_2 C80_2 1_555 1_555
C78_2 C79_2 1_555 1_555
O36_2 Gd22_2 1_555 1_555
O37_2 Gd22_2 1_555 1_555
N20_2 C87_2 1_555 1_555
C86_2 C90_2 1_555 1_555
C87_2 C88_2 1_555 1_555
N22_2 C96_2 1_555 1_555
C96_2 C97_2 1_555 1_555
O44_2 Gd19_2 1_555 1_555
N23_2 C102_2 1_555 1_555
N24_2 C105_2 1_555 1_555
C105_2 C106_2 1_555 1_555
O48_2 Gd21_2 1_555 1_555
O55_2 Gd8 1_555 1_555
O66_2 Gd8 1_555 1_555
O8_4 Gd8 1_555 1_555
O72 C89_3 1_555 1_555
O39_3 Gd19_2 1_555 1_555
O40_3 C89_3 1_555 1_555
C82_3 C83_3 1_555 1_555
N19_3 C84_3 1_555 1_555
O41_3 C90_3 1_555 1_555
C83_3 H37_3 1_555 1_555
C84_3 N20_3 1_555 1_555
N20_3 H38_3 1_555 1_555
C85_3 C82_3 1_555 1_555
H39_3 C85_3 1_555 1_555
C86_3 C85_3 1_555 1_555
C87_3 C83_3 1_555 1_555
C88_3 C86_3 1_555 1_555
H40_3 C88_3 1_555 1_555
C89_3 C82_3 1_555 1_555
C90_3 O39_3 1_555 1_555
O42_2 C98_3 1_555 1_555
C91_3 C92_3 1_555 1_555
N21_3 C93_3 1_555 1_555
O43_3 C98_3 1_555 1_555
C92_3 H41_3 1_555 1_555
C93_3 N19_3 1_555 1_555
N22_3 C93_3 1_555 1_555
H42_3 N22_3 1_555 1_555
C94_3 C91_3 1_555 1_555
H43_3 C94_3 1_555 1_555
C95_3 C94_3 1_555 1_555
C96_3 C92_3 1_555 1_555
C97_3 C95_3 1_555 1_555
H44_3 C97_3 1_555 1_555
C98_3 C95_3 1_555 1_555
O75_2 C99_3 1_555 1_555
O45_3 C99_3 1_555 1_555
C99_3 C91_3 1_555 1_555
O46_2 C107_3 1_555 1_555
C100_3 C101_3 1_555 1_555
N23_3 C84_3 1_555 1_555
O47_3 C107_3 1_555 1_555
C101_3 H45_3 1_555 1_555
C102_3 N21_3 1_555 1_555
N24_3 C102_3 1_555 1_555
H46_3 N24_3 1_555 1_555
C103_3 C100_3 1_555 1_555
H47_3 C103_3 1_555 1_555
C104_3 C103_3 1_555 1_555
C105_3 C101_3 1_555 1_555
C106_3 C104_3 1_555 1_555
H48_3 C106_3 1_555 1_555
C107_3 C104_3 1_555 1_555
O71 C108_3 1_555 1_555
O49_3 C108_3 1_555 1_555
C108_3 C100_3 1_555 1_555
O51_5 Gd19_2 1_555 1_555
Gd22_2 O42_2 1_555 1_555
O59_3 Gd19_2 1_555 1_555
N20_3 C87_3 1_555 1_555
C86_3 C90_3 1_555 1_555
C87_3 C88_3 1_555 1_555
N22_3 C96_3 1_555 1_555
C96_3 C97_3 1_555 1_555
O46_2 Gd17 1_555 1_555
N23_3 C102_3 1_555 1_555
N24_3 C105_3 1_555 1_555
C105_3 C106_3 1_555 1_555
O55 C56_3 1_555 1_555
O66 C56_3 1_555 1_555
C55_3 O59_3 1_555 1_555
C56_3 C59_3 1_555 1_555
N13_3 C57_3 1_555 1_555
C57_3 N14_3 1_555 1_555
N14_3 H25_3 1_555 1_555
C58_3 H26_3 1_555 1_555
C59_3 C58_3 1_555 1_555
C60_3 H27_3 1_555 1_555
C61_3 C59_3 1_555 1_555
H28_3 C61_3 1_555 1_555
C62_3 N14_3 1_555 1_555
C63_3 C55_3 1_555 1_555
O30_2 C64_3 1_555 1_555
O31_3 C64_3 1_555 1_555
C64_3 C71_3 1_555 1_555
N15_3 C65_3 1_555 1_555
C65_3 N13_3 1_555 1_555
N16_3 C65_3 1_555 1_555
H29_3 N16_3 1_555 1_555
C66_3 H30_3 1_555 1_555
C67_3 C66_3 1_555 1_555
C68_3 H31_3 1_555 1_555
C69_3 C67_3 1_555 1_555
H32_3 C69_3 1_555 1_555
C70_3 N16_3 1_555 1_555
C71_3 C66_3 1_555 1_555
O57_2 C72_3 1_555 1_555
O68_2 C72_3 1_555 1_555
C72_3 C67_3 1_555 1_555
O34_2 C73_3 1_555 1_555
O35_2 C73_3 1_555 1_555
C73_3 C80_3 1_555 1_555
N17_3 C57_3 1_555 1_555
C74_3 N15_3 1_555 1_555
N18_3 C74_3 1_555 1_555
H33_3 N18_3 1_555 1_555
C75_3 H34_3 1_555 1_555
C76_3 C75_3 1_555 1_555
C77_3 H35_3 1_555 1_555
C78_3 C76_3 1_555 1_555
H36_3 C78_3 1_555 1_555
C79_3 N18_3 1_555 1_555
C80_3 C75_3 1_555 1_555
O53 C81_3 1_555 1_555
O64 C81_3 1_555 1_555
C81_3 C76_3 1_555 1_555
Gd16 O34_2 1_555 1_555
Gd21_2 O30_2 1_555 1_555
O29_3 C55_3 1_555 1_555
C58_3 C63_3 1_555 1_555
C60_3 C62_3 1_555 1_555
C60_3 C63_3 1_555 1_555
C61_3 C62_3 1_555 1_555
C68_3 C70_3 1_555 1_555
C68_3 C71_3 1_555 1_555
C69_3 C70_3 1_555 1_555
N17_3 C74_3 1_555 1_555
C77_3 C79_3 1_555 1_555
C77_3 C80_3 1_555 1_555
C78_3 C79_3 1_555 1_555
Gd21_2 O79_3 1_555 1_555
O62_2 Gd21 1_555 1_555
O77_2 Gd21 1_555 1_555
O79_4 Gd21 1_555 1_555
O52 C3_3 1_555 1_555
O2_3 C1_3 1_555 1_555
O63 C3_3 1_555 1_555
C1_3 O4_3 1_555 1_555
C3_3 C14_3 1_555 1_555
N3_3 C12_3 1_555 1_555
C12_3 N4_3 1_555 1_555
N4_3 H5_3 1_555 1_555
C13_3 H6_3 1_555 1_555
C14_3 C13_3 1_555 1_555
C15_3 H7_3 1_555 1_555
C16_3 C14_3 1_555 1_555
H8_3 C16_3 1_555 1_555
C17_3 N4_3 1_555 1_555
C18_3 C1_3 1_555 1_555
O10_3 C19_3 1_555 1_555
O11_3 C19_3 1_555 1_555
C19_3 C26_3 1_555 1_555
N5_3 C20_3 1_555 1_555
C20_3 N3_3 1_555 1_555
N6_3 C20_3 1_555 1_555
H9_3 N6_3 1_555 1_555
C21_3 H10_3 1_555 1_555
C22_3 C21_3 1_555 1_555
C23_3 H11_3 1_555 1_555
C24_3 C22_3 1_555 1_555
H12_3 C24_3 1_555 1_555
C25_3 N6_3 1_555 1_555
C26_3 C21_3 1_555 1_555
O54_2 C27_3 1_555 1_555
O65_2 C27_3 1_555 1_555
C27_3 C22_3 1_555 1_555
O14_2 C28_3 1_555 1_555
O15_3 C28_3 1_555 1_555
C28_3 C35_3 1_555 1_555
N7_3 C12_3 1_555 1_555
C29_3 N5_3 1_555 1_555
N8_3 C29_3 1_555 1_555
H13_3 N8_3 1_555 1_555
C30_3 H14_3 1_555 1_555
C31_3 C30_3 1_555 1_555
C32_3 H15_3 1_555 1_555
C33_3 C31_3 1_555 1_555
H16_3 C33_3 1_555 1_555
C34_3 N8_3 1_555 1_555
C35_3 C30_3 1_555 1_555
O56_2 C36_3 1_555 1_555
O67_2 C36_3 1_555 1_555
C36_3 C31_3 1_555 1_555
Gd18 O2_3 1_555 1_555
Gd20_2 O10_3 1_555 1_555
Gd22_2 O14_2 1_555 1_555
O76_2 Gd18 1_555 1_555
O8_5 Gd18 1_555 1_555
C13_3 C18_3 1_555 1_555
C15_3 C17_3 1_555 1_555
C15_3 C18_3 1_555 1_555
C16_3 C17_3 1_555 1_555
C23_3 C25_3 1_555 1_555
C23_3 C26_3 1_555 1_555
C24_3 C25_3 1_555 1_555
N7_3 C29_3 1_555 1_555
C32_3 C34_3 1_555 1_555
C32_3 C35_3 1_555 1_555
C33_3 C34_3 1_555 1_555
O51_6 Gd20_2 1_555 1_555
Gd22_2 O80_3 1_555 1_555
O70 C10_3 1_555 1_555
O6_3 Gd15 1_555 1_555
O7_3 C10_3 1_555 1_555
C2_3 C4_3 1_555 1_555
N1_3 C5_3 1_555 1_555
O8_6 Gd15 1_555 1_555
O9_3 C11_3 1_555 1_555
C4_3 H1_3 1_555 1_555
C5_3 N2_3 1_555 1_555
N2_3 H2_3 1_555 1_555
C6_3 C2_3 1_555 1_555
H3_3 C6_3 1_555 1_555
C7_3 C6_3 1_555 1_555
C8_3 C4_3 1_555 1_555
C9_3 C7_3 1_555 1_555
H4_3 C9_3 1_555 1_555
C10_3 C2_3 1_555 1_555
C11_3 O6_3 1_555 1_555
O18_3 C44_3 1_555 1_555
C37_3 C38_3 1_555 1_555
N9_3 C39_3 1_555 1_555
O19_3 C44_3 1_555 1_555
C38_3 H17_3 1_555 1_555
C39_3 N1_3 1_555 1_555
N10_3 C39_3 1_555 1_555
H18_3 N10_3 1_555 1_555
C40_3 C37_3 1_555 1_555
H19_3 C40_3 1_555 1_555
C41_3 C40_3 1_555 1_555
C42_3 C38_3 1_555 1_555
C43_3 C41_3 1_555 1_555
H20_3 C43_3 1_555 1_555
C44_3 C41_3 1_555 1_555
O73_2 C45_3 1_555 1_555
O21_3 C45_3 1_555 1_555
C45_3 C37_3 1_555 1_555
O22_2 C53_3 1_555 1_555
C46_3 C47_3 1_555 1_555
N11_3 C5_3 1_555 1_555
O23_3 C53_3 1_555 1_555
C47_3 H21_3 1_555 1_555
C48_3 N9_3 1_555 1_555
N12_3 C48_3 1_555 1_555
H22_3 N12_3 1_555 1_555
C49_3 C46_3 1_555 1_555
H23_3 C49_3 1_555 1_555
C50_3 C49_3 1_555 1_555
C51_3 C47_3 1_555 1_555
C52_3 C50_3 1_555 1_555
H24_3 C52_3 1_555 1_555
C53_3 C50_3 1_555 1_555
O74_2 C54_3 1_555 1_555
O25_3 C54_3 1_555 1_555
C54_3 C46_3 1_555 1_555
Gd20_2 O18_3 1_555 1_555
Gd21_2 O22_2 1_555 1_555
O58_2 Gd15 1_555 1_555
N2_3 C8_3 1_555 1_555
C7_3 C11_3 1_555 1_555
C8_3 C9_3 1_555 1_555
N10_3 C42_3 1_555 1_555
C42_3 C43_3 1_555 1_555
N11_3 C48_3 1_555 1_555
N12_3 C51_3 1_555 1_555
C51_3 C52_3 1_555 1_555
O61_2 Gd22 1_555 1_555
O78_2 Gd22 1_555 1_555
O80_4 Gd22 1_555 1_555
O52_2 C3_4 1_555 1_555
O2_4 C1_4 1_555 1_555
O63_2 C3_4 1_555 1_555
C1_4 O4_4 1_555 1_555
C3_4 C14_4 1_555 1_555
N3_4 C12_4 1_555 1_555
C12_4 N4_4 1_555 1_555
N4_4 H5_4 1_555 1_555
C13_4 H6_4 1_555 1_555
C14_4 C13_4 1_555 1_555
C15_4 H7_4 1_555 1_555
C16_4 C14_4 1_555 1_555
H8_4 C16_4 1_555 1_555
C17_4 N4_4 1_555 1_555
C18_4 C1_4 1_555 1_555
O10_4 C19_4 1_555 1_555
O11_4 C19_4 1_555 1_555
C19_4 C26_4 1_555 1_555
N5_4 C20_4 1_555 1_555
C20_4 N3_4 1_555 1_555
N6_4 C20_4 1_555 1_555
H9_4 N6_4 1_555 1_555
C21_4 H10_4 1_555 1_555
C22_4 C21_4 1_555 1_555
C23_4 H11_4 1_555 1_555
C24_4 C22_4 1_555 1_555
H12_4 C24_4 1_555 1_555
C25_4 N6_4 1_555 1_555
C26_4 C21_4 1_555 1_555
O54 C27_4 1_555 1_555
O65 C27_4 1_555 1_555
C27_4 C22_4 1_555 1_555
O61_2 C28_4 1_555 1_555
O15_4 C28_4 1_555 1_555
C28_4 C35_4 1_555 1_555
N7_4 C12_4 1_555 1_555
C29_4 N5_4 1_555 1_555
N8_4 C29_4 1_555 1_555
H13_4 N8_4 1_555 1_555
C30_4 H14_4 1_555 1_555
C31_4 C30_4 1_555 1_555
C32_4 H15_4 1_555 1_555
C33_4 C31_4 1_555 1_555
H16_4 C33_4 1_555 1_555
C34_4 N8_4 1_555 1_555
C35_4 C30_4 1_555 1_555
O56 C36_4 1_555 1_555
O67 C36_4 1_555 1_555
C36_4 C31_4 1_555 1_555
Gd17 O2_4 1_555 1_555
Gd20 O10_4 1_555 1_555
O8_7 Gd17 1_555 1_555
C13_4 C18_4 1_555 1_555
C15_4 C17_4 1_555 1_555
C15_4 C18_4 1_555 1_555
C16_4 C17_4 1_555 1_555
C23_4 C25_4 1_555 1_555
C23_4 C26_4 1_555 1_555
C24_4 C25_4 1_555 1_555
N7_4 C29_4 1_555 1_555
C32_4 C34_4 1_555 1_555
C32_4 C35_4 1_555 1_555
C33_4 C34_4 1_555 1_555
O51_7 Gd20 1_555 1_555
O70_2 C10_4 1_555 1_555
O6_4 Gd16 1_555 1_555
O7_4 C10_4 1_555 1_555
C2_4 C4_4 1_555 1_555
N1_4 C5_4 1_555 1_555
O8_8 Gd16 1_555 1_555
O9_4 C11_4 1_555 1_555
C4_4 H1_4 1_555 1_555
C5_4 N2_4 1_555 1_555
N2_4 H2_4 1_555 1_555
C6_4 C2_4 1_555 1_555
H3_4 C6_4 1_555 1_555
C7_4 C6_4 1_555 1_555
C8_4 C4_4 1_555 1_555
C9_4 C7_4 1_555 1_555
H4_4 C9_4 1_555 1_555
C10_4 C2_4 1_555 1_555
C11_4 O6_4 1_555 1_555
O18_4 C44_4 1_555 1_555
C37_4 C38_4 1_555 1_555
N9_4 C39_4 1_555 1_555
O19_4 C44_4 1_555 1_555
C38_4 H17_4 1_555 1_555
C39_4 N1_4 1_555 1_555
N10_4 C39_4 1_555 1_555
H18_4 N10_4 1_555 1_555
C40_4 C37_4 1_555 1_555
H19_4 C40_4 1_555 1_555
C41_4 C40_4 1_555 1_555
C42_4 C38_4 1_555 1_555
C43_4 C41_4 1_555 1_555
H20_4 C43_4 1_555 1_555
C44_4 C41_4 1_555 1_555
O73 C45_4 1_555 1_555
O21_4 C45_4 1_555 1_555
C45_4 C37_4 1_555 1_555
O77_2 C53_4 1_555 1_555
C46_4 C47_4 1_555 1_555
N11_4 C5_4 1_555 1_555
O23_4 C53_4 1_555 1_555
C47_4 H21_4 1_555 1_555
C48_4 N9_4 1_555 1_555
N12_4 C48_4 1_555 1_555
H22_4 N12_4 1_555 1_555
C49_4 C46_4 1_555 1_555
H23_4 C49_4 1_555 1_555
C50_4 C49_4 1_555 1_555
C51_4 C47_4 1_555 1_555
C52_4 C50_4 1_555 1_555
H24_4 C52_4 1_555 1_555
C53_4 C50_4 1_555 1_555
O74 C54_4 1_555 1_555
O25_4 C54_4 1_555 1_555
C54_4 C46_4 1_555 1_555
Gd20 O18_4 1_555 1_555
N2_4 C8_4 1_555 1_555
C7_4 C11_4 1_555 1_555
C8_4 C9_4 1_555 1_555
N10_4 C42_4 1_555 1_555
C42_4 C43_4 1_555 1_555
N11_4 C48_4 1_555 1_555
N12_4 C51_4 1_555 1_555
C51_4 C52_4 1_555 1_555
O72_2 C89_4 1_555 1_555
O39_4 Gd19 1_555 1_555
O40_4 C89_4 1_555 1_555
C82_4 C83_4 1_555 1_555
N19_4 C84_4 1_555 1_555
O41_4 C90_4 1_555 1_555
C83_4 H37_4 1_555 1_555
C84_4 N20_4 1_555 1_555
N20_4 H38_4 1_555 1_555
C85_4 C82_4 1_555 1_555
H39_4 C85_4 1_555 1_555
C86_4 C85_4 1_555 1_555
C87_4 C83_4 1_555 1_555
C88_4 C86_4 1_555 1_555
H40_4 C88_4 1_555 1_555
C89_4 C82_4 1_555 1_555
C90_4 O39_4 1_555 1_555
O78_2 C98_4 1_555 1_555
C91_4 C92_4 1_555 1_555
N21_4 C93_4 1_555 1_555
O43_4 C98_4 1_555 1_555
C92_4 H41_4 1_555 1_555
C93_4 N19_4 1_555 1_555
N22_4 C93_4 1_555 1_555
H42_4 N22_4 1_555 1_555
C94_4 C91_4 1_555 1_555
H43_4 C94_4 1_555 1_555
C95_4 C94_4 1_555 1_555
C96_4 C92_4 1_555 1_555
C97_4 C95_4 1_555 1_555
H44_4 C97_4 1_555 1_555
C98_4 C95_4 1_555 1_555
O75 C99_4 1_555 1_555
O45_4 C99_4 1_555 1_555
C99_4 C91_4 1_555 1_555
O76_2 C107_4 1_555 1_555
C100_4 C101_4 1_555 1_555
N23_4 C84_4 1_555 1_555
O47_4 C107_4 1_555 1_555
C101_4 H45_4 1_555 1_555
C102_4 N21_4 1_555 1_555
N24_4 C102_4 1_555 1_555
H46_4 N24_4 1_555 1_555
C103_4 C100_4 1_555 1_555
H47_4 C103_4 1_555 1_555
C104_4 C103_4 1_555 1_555
C105_4 C101_4 1_555 1_555
C106_4 C104_4 1_555 1_555
H48_4 C106_4 1_555 1_555
C107_4 C104_4 1_555 1_555
O71_2 C108_4 1_555 1_555
O49_4 C108_4 1_555 1_555
C108_4 C100_4 1_555 1_555
O51_8 Gd19 1_555 1_555
O59_4 Gd19 1_555 1_555
N20_4 C87_4 1_555 1_555
C86_4 C90_4 1_555 1_555
C87_4 C88_4 1_555 1_555
N22_4 C96_4 1_555 1_555
C96_4 C97_4 1_555 1_555
N23_4 C102_4 1_555 1_555
N24_4 C105_4 1_555 1_555
C105_4 C106_4 1_555 1_555
O55_2 C56_4 1_555 1_555
O66_2 C56_4 1_555 1_555
C55_4 O59_4 1_555 1_555
C56_4 C59_4 1_555 1_555
N13_4 C57_4 1_555 1_555
C57_4 N14_4 1_555 1_555
N14_4 H25_4 1_555 1_555
C58_4 H26_4 1_555 1_555
C59_4 C58_4 1_555 1_555
C60_4 H27_4 1_555 1_555
C61_4 C59_4 1_555 1_555
H28_4 C61_4 1_555 1_555
C62_4 N14_4 1_555 1_555
C63_4 C55_4 1_555 1_555
O62_2 C64_4 1_555 1_555
O31_4 C64_4 1_555 1_555
C64_4 C71_4 1_555 1_555
N15_4 C65_4 1_555 1_555
C65_4 N13_4 1_555 1_555
N16_4 C65_4 1_555 1_555
H29_4 N16_4 1_555 1_555
C66_4 H30_4 1_555 1_555
C67_4 C66_4 1_555 1_555
C68_4 H31_4 1_555 1_555
C69_4 C67_4 1_555 1_555
H32_4 C69_4 1_555 1_555
C70_4 N16_4 1_555 1_555
C71_4 C66_4 1_555 1_555
O57 C72_4 1_555 1_555
O68 C72_4 1_555 1_555
C72_4 C67_4 1_555 1_555
O58_2 C73_4 1_555 1_555
O69_2 C73_4 1_555 1_555
C73_4 C80_4 1_555 1_555
N17_4 C57_4 1_555 1_555
C74_4 N15_4 1_555 1_555
N18_4 C74_4 1_555 1_555
H33_4 N18_4 1_555 1_555
C75_4 H34_4 1_555 1_555
C76_4 C75_4 1_555 1_555
C77_4 H35_4 1_555 1_555
C78_4 C76_4 1_555 1_555
H36_4 C78_4 1_555 1_555
C79_4 N18_4 1_555 1_555
C80_4 C75_4 1_555 1_555
O53_2 C81_4 1_555 1_555
O64_2 C81_4 1_555 1_555
C81_4 C76_4 1_555 1_555
O29_4 C55_4 1_555 1_555
C58_4 C63_4 1_555 1_555
C60_4 C62_4 1_555 1_555
C60_4 C63_4 1_555 1_555
C61_4 C62_4 1_555 1_555
C68_4 C70_4 1_555 1_555
C68_4 C71_4 1_555 1_555
C69_4 C70_4 1_555 1_555
N17_4 C74_4 1_555 1_555
C77_4 C79_4 1_555 1_555
C77_4 C80_4 1_555 1_555
C78_4 C79_4 1_555 1_555

#END
