
###############################################################################
#
# This file contains modified crystal structure data generated from the
# MOF subset of the Cambridge Structural Database (CSD) v543 
# hosted by the Cambridge Crystallographic Data Centre (CCDC).
#
# This work is licensed under the Creative Commons
# Attribution-NonCommercial-ShareAlike 4.0 International License.
# To view a copy of this license, visit
# http://creativecommons.org/licenses/by-nc-sa/4.0/
# or send a letter to
# Creative Commons, PO Box 1866, Mountain View, CA 94042, USA.
#
# CIF created using the CSD Python API on 29 September 2022
# The structure has been converted into the P1 space group
# The structure has a 3D framework
# The original CSD entry JEQDER is in the hexagonal crystal system
# The original CSD entry JEQDER is in a Sohncke space group
# The framework has been calculated to contain at least 10.0% void space
# The void calculation uses a probe of radius 1.32A, grid spacing 0.4
# H atom positions have been added when not included in the experimental data
#
###############################################################################

data_JEQDER
_chemical_formula_moiety         '(C134 H134 Co7 N26 Ni8 O64)n'
_symmetry_cell_setting           triclinic
_symmetry_space_group_name_H-M   'P 1'
_symmetry_Int_Tables_number      1
_space_group_name_Hall           'P 1'
loop_
_symmetry_equiv_pos_site_id
_symmetry_equiv_pos_as_xyz
1 x,y,z
_cell_length_a                   27.857(2)
_cell_length_b                   27.857(2)
_cell_length_c                   10.0365(7)
_cell_angle_alpha                90
_cell_angle_beta                 90
_cell_angle_gamma                120
_cell_volume                     6744.99
loop_
_atom_site_label
_atom_site_type_symbol
_atom_site_fract_x
_atom_site_fract_y
_atom_site_fract_z
C1 C 0.6633(3) 0.0000 0.0000
H1 H 0.6974 0.0000 0.0000
C2 C 0.6551(2) 0.0335(2) 0.0886(5)
H2 H 0.6833 0.0562 0.1504
C3 C 0.60538(19) 0.03359(19) 0.0857(4)
C4 C 0.58903(19) 0.06737(18) 0.1682(5)
C5 C 0.5161(2) 0.0862(2) 0.2025(4)
C6 C 0.5123(2) 0.1282(2) 0.1404(4)
H3 H 0.5239 0.1370 0.0504
C7 C 0.4922(3) 0.1576(2) 0.2058(5)
H4 H 0.4902 0.1863 0.1598
C8 C 0.4745(2) 0.14654(19) 0.3382(5)
C9 C 0.4778(2) 0.1047(2) 0.4011(5)
H5 H 0.4663 0.0965 0.4914
C10 C 0.4976(2) 0.0737(2) 0.3366(5)
H6 H 0.4987 0.0444 0.3820
C11 C 0.4576(3) 0.1822(2) 0.4099(5)
Co1 Co 0.5000 0.0000 0.0000
N1 N 0.56712(18) 0.0000 0.0000
N2 N 0.53829(16) 0.05651(14) 0.1377(3)
Ni1 Ni 0.42950(5) 0.21475(2) 0.6667
O1 O 0.62089(14) 0.10148(15) 0.2517(3)
O2 O 0.4720(2) 0.22916(19) 0.3608(4)
O3 O 0.43255(17) 0.16510(14) 0.5192(4)
O4 O 0.5163(2) 0.25814(11) 0.6667
O5 O 0.42825(17) 0.26836(15) 0.5308(3)
O6 O 0.3421(3) 0.17105(13) 0.6667
H7 H 0.3957 0.2551 0.5030
H8 H 0.4520 0.2817 0.4756
H9 H 0.3161 0.1323 0.7229
H10 H 0.5455 0.3002 0.6965
H16 H 0.5455 0.2453 0.6368
H17 H 0.3161 0.1838 0.6104
C22 C 0.3367(3) 0.0000 0.0000
H18 H 0.3026 0.0000 0.0000
N4 N 0.43288(18) 0.0000 0.0000
O19 O 0.42825(17) 0.15989(23) 0.8025(3)
H35 H 0.3957 0.1406 0.8303
H36 H 0.4520 0.1703 0.8577
O22 O 0.43255(17) 0.26745(22) 0.8141(4)
C1_2 C 0.6633(3) 1.0000 0.0000
H1_2 H 0.6974 1.0000 0.0000
Co1_2 Co 0.5000 1.0000 0.0000
N1_2 N 0.56712(18) 1.0000 0.0000
C22_2 C 0.3367(3) 1.0000 0.0000
H18_2 H 0.3026 1.0000 0.0000
C23 C 0.3449(2) 0.9665(2) 0.0886(5)
H19 H 0.3167 0.9438 0.1504
C24 C 0.39462(19) 0.96641(19) 0.0857(4)
C25 C 0.41097(19) 0.93263(18) 0.1682(5)
C26 C 0.4839(2) 0.9138(2) 0.2025(4)
C27 C 0.4877(2) 0.8718(2) 0.1404(4)
H20 H 0.4761 0.8630 0.0504
C28 C 0.5078(3) 0.8424(2) 0.2058(5)
H21 H 0.5098 0.8137 0.1598
C29 C 0.5255(2) 0.85346(19) 0.3382(5)
C30 C 0.5222(2) 0.8953(2) 0.4011(5)
H22 H 0.5337 0.9035 0.4914
C31 C 0.5024(2) 0.9263(2) 0.3366(5)
H23 H 0.5013 0.9556 0.3820
C32 C 0.5424(3) 0.8178(2) 0.4099(5)
N4_2 N 0.43288(18) 1.0000 0.0000
N5 N 0.46171(16) 0.94349(14) 0.1377(3)
Ni2 Ni 0.57050(5) 0.78525(2) 0.6667
O10 O 0.37911(14) 0.89852(15) 0.2517(3)
O11 O 0.5280(2) 0.77084(19) 0.3608(4)
O12 O 0.56745(17) 0.83490(14) 0.5192(4)
O13 O 0.4837(2) 0.74186(11) 0.6667
O14 O 0.57175(17) 0.73164(15) 0.5308(3)
O15 O 0.6579(3) 0.82895(13) 0.6667
H24 H 0.6043 0.7449 0.5030
H25 H 0.5480 0.7183 0.4756
H26 H 0.6839 0.8677 0.7229
H27 H 0.4545 0.6998 0.6965
H33 H 0.4545 0.7547 0.6368
H34 H 0.6839 0.8162 0.6104
O20 O 0.57175(17) 0.84011(23) 0.8025(3)
H37 H 0.6043 0.8594 0.8303
H38 H 0.5480 0.8297 0.8577
O21 O 0.56745(17) 0.73255(22) 0.8141(4)
H39 H 0.543873 0.775496 0.269969
C18 C 0.47450(34) 0.32796(28) 0.9951(5)
C19 C 0.4778(4) 0.3731(3) 0.9322(5)
H14 H 0.4663 0.3698 0.8419
C20 C 0.4976(4) 0.4239(3) 0.9967(5)
H15 H 0.4987 0.4543 0.9513
C21 C 0.4576(4) 0.2754(4) 0.9234(5)
O8 O 0.47200(34) 0.24284(28) 0.9725(4)
C39 C 0.52550(34) 0.67204(28) 0.9951(5)
C40 C 0.5222(4) 0.6269(3) 0.9322(5)
H31 H 0.5337 0.6302 0.8419
C41 C 0.5024(4) 0.5761(3) 0.9967(5)
H32 H 0.5013 0.5457 0.9513
C42 C 0.5424(4) 0.7246(4) 0.9234(5)
O17 O 0.52800(34) 0.75716(28) 0.9725(4)
H39_2 H 0.456127 0.224504 0.269969
C1_3 C 0.6633(3) -0.0000 1.0000
H1_3 H 0.6974 -0.0000 1.0000
Co1_3 Co 0.5000 -0.0000 1.0000
N1_3 N 0.56712(18) -0.0000 1.0000
C22_3 C 0.3367(3) -0.0000 1.0000
H18_3 H 0.3026 -0.0000 1.0000
N4_3 N 0.43288(18) -0.0000 1.0000
C33 C 0.3784(3) 0.0335(2) 0.9114(5)
H28 H 0.3729 0.0562 0.8496
C34 C 0.42821(27) 0.03359(19) 0.9143(4)
C35 C 0.47834(26) 0.06737(18) 0.8318(5)
C36 C 0.5701(3) 0.0862(2) 0.7975(4)
C37 C 0.6159(3) 0.1282(2) 0.8596(4)
H29 H 0.6131 0.1370 0.9496
C38 C 0.6654(4) 0.1576(2) 0.7942(5)
H30 H 0.6961 0.1863 0.8402
C39_2 C 0.67204(28) 0.14654(19) 0.6618(5)
C40_2 C 0.6269(3) 0.1047(2) 0.5989(5)
H31_2 H 0.6302 0.0965 0.5086
C41_2 C 0.5761(3) 0.0737(2) 0.6634(5)
H32_2 H 0.5457 0.0444 0.6180
C42_2 C 0.7246(4) 0.1822(2) 0.5901(5)
N6 N 0.51822(21) 0.05651(14) 0.8623(3)
O16 O 0.48059(21) 0.10148(15) 0.7483(3)
O17_2 O 0.75716(28) 0.22916(19) 0.6392(4)
O18 O 0.73255(22) 0.16510(14) 0.4808(4)
Ni3 Ni 0.78525(2) 0.21475(5) 0.3334
C8_2 C 0.85346(19) 0.32796(28) 0.0049(5)
C9_2 C 0.8953(2) 0.3731(3) 0.0678(5)
H5_2 H 0.9035 0.3698 0.1581
C10_2 C 0.9263(2) 0.4239(3) 0.0033(5)
H6_2 H 0.9556 0.4543 0.0487
C11_2 C 0.8178(2) 0.2754(4) 0.0766(5)
O2_2 O 0.77084(19) 0.24284(28) 0.0275(4)
O3_2 O 0.83490(14) 0.26745(22) 0.1859(4)
O4_2 O 0.74186(11) 0.25816(23) 0.3334
O5_2 O 0.73164(15) 0.15989(23) 0.1975(3)
O6_2 O 0.82895(13) 0.17105(33) 0.3334
H7_2 H 0.7449 0.1406 0.1697
H8_2 H 0.7183 0.1703 0.1423
H9_2 H 0.8677 0.1838 0.3896
H10_2 H 0.6998 0.2453 0.3632
H16_2 H 0.7547 0.3002 0.3035
H17_2 H 0.8162 0.1323 0.2771
O19_2 O 0.84011(23) 0.26836(29) 0.4692(3)
H35_2 H 0.8594 0.2551 0.4970
H36_2 H 0.8297 0.2817 0.5244
H39_3 H 0.768377 0.224504 0.730031
C1_4 C 0.6633(3) 1.0000 1.0000
H1_4 H 0.6974 1.0000 1.0000
Co1_4 Co 0.5000 1.0000 1.0000
N1_4 N 0.56712(18) 1.0000 1.0000
C12 C 0.6216(3) 0.9665(2) 0.9114(5)
H11 H 0.6271 0.9438 0.8496
C13 C 0.57179(27) 0.96641(19) 0.9143(4)
C14 C 0.52166(26) 0.93263(18) 0.8318(5)
C15 C 0.4299(3) 0.9138(2) 0.7975(4)
C16 C 0.3841(3) 0.8718(2) 0.8596(4)
H12 H 0.3869 0.8630 0.9496
C17 C 0.3346(4) 0.8424(2) 0.7942(5)
H13 H 0.3039 0.8137 0.8402
C18_2 C 0.32796(28) 0.85346(19) 0.6618(5)
C19_2 C 0.3731(3) 0.8953(2) 0.5989(5)
H14_2 H 0.3698 0.9035 0.5086
C20_2 C 0.4239(3) 0.9263(2) 0.6634(5)
H15_2 H 0.4543 0.9556 0.6180
C21_2 C 0.2754(4) 0.8178(2) 0.5901(5)
N3 N 0.48178(21) 0.94349(14) 0.8623(3)
O7 O 0.51941(21) 0.89852(15) 0.7483(3)
O8_2 O 0.24284(28) 0.77084(19) 0.6392(4)
O9 O 0.26745(22) 0.83490(14) 0.4808(4)
C22_4 C 0.3367(3) 1.0000 1.0000
H18_4 H 0.3026 1.0000 1.0000
N4_4 N 0.43288(18) 1.0000 1.0000
Ni4 Ni 0.21475(2) 0.78525(5) 0.3334
C29_2 C 0.14654(19) 0.67204(28) 0.0049(5)
C30_2 C 0.1047(2) 0.6269(3) 0.0678(5)
H22_2 H 0.0965 0.6302 0.1581
C31_2 C 0.0737(2) 0.5761(3) 0.0033(5)
H23_2 H 0.0444 0.5457 0.0487
C32_2 C 0.1822(2) 0.7246(4) 0.0766(5)
O11_2 O 0.22916(19) 0.75716(28) 0.0275(4)
O12_2 O 0.16510(14) 0.73255(22) 0.1859(4)
O13_2 O 0.25814(11) 0.74184(23) 0.3334
O14_2 O 0.26836(15) 0.84011(23) 0.1975(3)
O15_2 O 0.17105(13) 0.82895(33) 0.3334
H24_2 H 0.2551 0.8594 0.1697
H25_2 H 0.2817 0.8297 0.1423
H26_2 H 0.1323 0.8162 0.3896
H27_2 H 0.3002 0.7547 0.3632
H33_2 H 0.2453 0.6998 0.3035
H34_2 H 0.1838 0.8677 0.2771
O20_2 O 0.15989(23) 0.73164(29) 0.4692(3)
H37_2 H 0.1406 0.7449 0.4970
H38_2 H 0.1703 0.7183 0.5244
H39_4 H 0.231623 0.775496 0.730031
Ni1_2 Ni 0.21475(5) 0.42950(5) 0.0000
O4_3 O 0.25816(23) 0.5163(2) 0.0000
O6_3 O 0.17105(33) 0.3421(3) 0.0000
H9_3 H 0.1838 0.3161 0.0562
H10_3 H 0.2453 0.5455 0.0298
Ni2_2 Ni 0.78525(5) 0.57050(5) 0.0000
O13_3 O 0.74184(23) 0.4837(2) 0.0000
O15_3 O 0.82895(33) 0.6579(3) 0.0000
H26_3 H 0.8162 0.6839 0.0562
H27_3 H 0.7547 0.4545 0.0298
O19_3 O 0.26836(29) 0.42825(17) 0.1359(3)
H35_3 H 0.2551 0.3957 0.1637
H36_3 H 0.2817 0.4520 0.1911
O20_3 O 0.73164(29) 0.57175(17) 0.1359(3)
H37_3 H 0.7449 0.6043 0.1637
H38_3 H 0.7183 0.5480 0.1911
O21_2 O 0.83490(28) 0.56745(17) 0.1475(4)
O22_2 O 0.16510(28) 0.43255(17) 0.1475(4)
C1_5 C -0.0000 0.6633(3) 0.6667
H1_5 H -0.0000 0.6974 0.6667
Co1_5 Co -0.0000 0.5000 0.6667
N1_5 N -0.0000 0.56712(18) 0.6667
C12_2 C 0.0335(2) 0.6551(4) 0.5781(5)
H11_2 H 0.0562 0.6833 0.5163
C13_2 C 0.03359(19) 0.60538(33) 0.5810(4)
C14_2 C 0.06737(18) 0.58903(32) 0.4985(5)
C15_2 C 0.0862(2) 0.5161(4) 0.4642(4)
C16_2 C 0.1282(2) 0.5123(4) 0.5263(4)
H12_2 H 0.1370 0.5239 0.6163
C17_2 C 0.1576(2) 0.4922(4) 0.4609(5)
H13_2 H 0.1863 0.4902 0.5069
C18_3 C 0.14654(19) 0.47450(34) 0.3285(5)
C19_3 C 0.1047(2) 0.4778(4) 0.2656(5)
H14_3 H 0.0965 0.4663 0.1753
C20_3 C 0.0737(2) 0.4976(4) 0.3301(5)
H15_3 H 0.0444 0.4987 0.2847
C21_3 C 0.1822(2) 0.4576(4) 0.2568(5)
N3_2 N 0.05651(14) 0.53829(25) 0.5290(3)
O7_2 O 0.10148(15) 0.62089(26) 0.4150(3)
O8_3 O 0.22916(19) 0.47200(34) 0.3059(4)
C22_5 C -0.0000 0.3367(3) 0.6667
H18_5 H -0.0000 0.3026 0.6667
C23_2 C 0.0335(2) 0.3784(3) 0.7553(5)
H19_2 H 0.0562 0.3729 0.8171
C24_2 C 0.03359(19) 0.42821(27) 0.7524(4)
C25_2 C 0.06737(18) 0.47834(26) 0.8349(5)
C26_2 C 0.0862(2) 0.5701(3) 0.8692(4)
C27_2 C 0.1282(2) 0.6159(3) 0.8071(4)
H20_2 H 0.1370 0.6131 0.7171
C28_2 C 0.1576(2) 0.6654(4) 0.8725(5)
H21_2 H 0.1863 0.6961 0.8265
N4_5 N -0.0000 0.43288(18) 0.6667
N5_2 N 0.05651(14) 0.51822(21) 0.8044(3)
O10_2 O 0.10148(15) 0.48059(21) 0.9184(3)
H39_5 H 0.224504 0.768377 0.936636
C1_6 C 1.0000 0.6633(3) 0.6667
H1_6 H 1.0000 0.6974 0.6667
C2_2 C 0.9665(2) 0.6216(3) 0.7553(5)
H2_2 H 0.9438 0.6271 0.8171
C3_2 C 0.96641(19) 0.57179(27) 0.7524(4)
C4_2 C 0.93263(18) 0.52166(26) 0.8349(5)
C5_2 C 0.9138(2) 0.4299(3) 0.8692(4)
C6_2 C 0.8718(2) 0.3841(3) 0.8071(4)
H3_2 H 0.8630 0.3869 0.7171
C7_2 C 0.8424(2) 0.3346(4) 0.8725(5)
H4_2 H 0.8137 0.3039 0.8265
Co1_6 Co 1.0000 0.5000 0.6667
N1_6 N 1.0000 0.56712(18) 0.6667
N2_2 N 0.94349(14) 0.48178(21) 0.8044(3)
O1_2 O 0.89852(15) 0.51941(21) 0.9184(3)
C22_6 C 1.0000 0.3367(3) 0.6667
H18_6 H 1.0000 0.3026 0.6667
N4_6 N 1.0000 0.43288(18) 0.6667
C33_2 C 0.9665(2) 0.3449(4) 0.5781(5)
H28_2 H 0.9438 0.3167 0.5163
C34_2 C 0.96641(19) 0.39462(33) 0.5810(4)
C35_2 C 0.93263(18) 0.41097(32) 0.4985(5)
C36_2 C 0.9138(2) 0.4839(4) 0.4642(4)
C37_2 C 0.8718(2) 0.4877(4) 0.5263(4)
H29_2 H 0.8630 0.4761 0.6163
C38_2 C 0.8424(2) 0.5078(4) 0.4609(5)
H30_2 H 0.8137 0.5098 0.5069
C39_3 C 0.85346(19) 0.52550(34) 0.3285(5)
C40_3 C 0.8953(2) 0.5222(4) 0.2656(5)
H31_3 H 0.9035 0.5337 0.1753
C41_3 C 0.9263(2) 0.5024(4) 0.3301(5)
H32_3 H 0.9556 0.5013 0.2847
C42_3 C 0.8178(2) 0.5424(4) 0.2568(5)
N6_2 N 0.94349(14) 0.46171(25) 0.5290(3)
O16_2 O 0.89852(15) 0.37911(26) 0.4150(3)
O17_3 O 0.77084(19) 0.52800(34) 0.3059(4)
H39_6 H 0.775496 0.231623 0.936636
H39_7 H 0.775496 0.543873 0.396698
H39_8 H 0.224504 0.456127 0.396698
C1_7 C 0.6633(3) 0.6633(3) 0.3333
H1_7 H 0.6974 0.6974 0.3333
C2_3 C 0.6216(3) 0.6551(2) 0.4219(5)
H2_3 H 0.6271 0.6833 0.4837
C3_3 C 0.57179(27) 0.60538(19) 0.4190(4)
C4_3 C 0.52166(26) 0.58903(19) 0.5015(5)
C5_3 C 0.4299(3) 0.5161(2) 0.5358(4)
C6_3 C 0.3841(3) 0.5123(2) 0.4737(4)
H3_3 H 0.3869 0.5239 0.3837
C7_3 C 0.3346(4) 0.4922(3) 0.5391(5)
H4_3 H 0.3039 0.4902 0.4931
C8_3 C 0.32796(28) 0.4745(2) 0.6715(5)
C9_3 C 0.3731(3) 0.4778(2) 0.7344(5)
H5_3 H 0.3698 0.4663 0.8247
C10_3 C 0.4239(3) 0.4976(2) 0.6699(5)
H6_3 H 0.4543 0.4987 0.7153
C11_3 C 0.2754(4) 0.4576(3) 0.7432(5)
Co1_7 Co 0.5000 0.5000 0.3333
N1_7 N 0.56712(18) 0.56712(18) 0.3333
N2_3 N 0.48178(21) 0.53829(16) 0.4710(3)
Ni1_3 Ni 0.21475(5) 0.42950(5) 1.0000
O1_3 O 0.51941(21) 0.62089(14) 0.5850(3)
O2_3 O 0.24284(28) 0.4720(2) 0.6941(4)
O3_3 O 0.26745(22) 0.43255(17) 0.8525(4)
O4_4 O 0.25816(23) 0.5163(2) 1.0000
O5_3 O 0.15989(23) 0.42825(17) 0.8641(3)
O6_4 O 0.17105(33) 0.3421(3) 1.0000
H7_3 H 0.1406 0.3957 0.8363
H8_3 H 0.1703 0.4520 0.8089
C12_3 C 0.6551(4) 0.6216(3) 0.2447(5)
H11_3 H 0.6833 0.6271 0.1829
C13_3 C 0.60538(33) 0.57179(27) 0.2476(4)
C14_3 C 0.58903(32) 0.52166(26) 0.1651(5)
C15_3 C 0.5161(4) 0.4299(3) 0.1308(4)
C16_3 C 0.5123(4) 0.3841(3) 0.1929(4)
H12_3 H 0.5239 0.3869 0.2829
C17_3 C 0.4922(4) 0.3346(4) 0.1275(5)
H13_3 H 0.4902 0.3039 0.1735
N3_3 N 0.53829(25) 0.48178(21) 0.1956(3)
O7_3 O 0.62089(26) 0.51941(21) 0.0816(3)
H16_3 H 0.3002 0.5455 0.9702
H17_3 H 0.1323 0.3161 0.9438
C22_7 C 0.3367(3) 0.3367(3) 0.3333
H18_7 H 0.3026 0.3026 0.3333
C23_3 C 0.3784(3) 0.3449(2) 0.4219(5)
H19_3 H 0.3729 0.3167 0.4837
C24_3 C 0.42821(27) 0.39462(19) 0.4190(4)
C25_3 C 0.47834(26) 0.41097(19) 0.5015(5)
C26_3 C 0.5701(3) 0.4839(2) 0.5358(4)
C27_3 C 0.6159(3) 0.4877(2) 0.4737(4)
H20_3 H 0.6131 0.4761 0.3837
C28_3 C 0.6654(4) 0.5078(3) 0.5391(5)
H21_3 H 0.6961 0.5098 0.4931
C29_3 C 0.67204(28) 0.5255(2) 0.6715(5)
C30_3 C 0.6269(3) 0.5222(2) 0.7344(5)
H22_3 H 0.6302 0.5337 0.8247
C31_3 C 0.5761(3) 0.5024(2) 0.6699(5)
H23_3 H 0.5457 0.5013 0.7153
C32_3 C 0.7246(4) 0.5424(3) 0.7432(5)
N4_7 N 0.43288(18) 0.43288(18) 0.3333
N5_3 N 0.51822(21) 0.46171(16) 0.4710(3)
Ni2_3 Ni 0.78525(5) 0.57050(5) 1.0000
O10_3 O 0.48059(21) 0.37911(14) 0.5850(3)
O11_3 O 0.75716(28) 0.5280(2) 0.6941(4)
O12_3 O 0.73255(22) 0.56745(17) 0.8525(4)
O13_4 O 0.74184(23) 0.4837(2) 1.0000
O14_3 O 0.84011(23) 0.57175(17) 0.8641(3)
O15_4 O 0.82895(33) 0.6579(3) 1.0000
H24_3 H 0.8594 0.6043 0.8363
H25_3 H 0.8297 0.5480 0.8089
C33_3 C 0.3449(4) 0.3784(3) 0.2447(5)
H28_3 H 0.3167 0.3729 0.1829
C34_3 C 0.39462(33) 0.42821(27) 0.2476(4)
C35_3 C 0.41097(32) 0.47834(26) 0.1651(5)
C36_3 C 0.4839(4) 0.5701(3) 0.1308(4)
C37_3 C 0.4877(4) 0.6159(3) 0.1929(4)
H29_3 H 0.4761 0.6131 0.2829
C38_3 C 0.5078(4) 0.6654(4) 0.1275(5)
H30_3 H 0.5098 0.6961 0.1735
N6_3 N 0.46171(25) 0.51822(21) 0.1956(3)
O16_3 O 0.37911(26) 0.48059(21) 0.0816(3)
H33_3 H 0.6998 0.4545 0.9702
H34_3 H 0.8677 0.6839 0.9438
H39_9 H 0.768377 0.543873 0.603302
H39_10 H 0.231623 0.456127 0.603302
H39_11 H 0.456127 0.231623 0.0633642
H39_12 H 0.543873 0.768377 0.0633642
loop_
_geom_bond_atom_site_label_1
_geom_bond_atom_site_label_2
_geom_bond_site_symmetry_1
_geom_bond_site_symmetry_2
C1 H1 1_555 1_555
C2 C1 1_555 1_555
H2 C2 1_555 1_555
C3 C2 1_555 1_555
C4 C3 1_555 1_555
C5 C6 1_555 1_555
C6 H3 1_555 1_555
C7 C6 1_555 1_555
H4 C7 1_555 1_555
C8 C7 1_555 1_555
C9 C8 1_555 1_555
H5 C9 1_555 1_555
C10 C5 1_555 1_555
H6 C10 1_555 1_555
C11 C8 1_555 1_555
Co1 N1 1_555 1_555
N1 C3 1_555 1_555
N2 C4 1_555 1_555
Ni1 O3 1_555 1_555
O1 C4 1_555 1_555
O2 C11 1_555 1_555
O3 C11 1_555 1_555
O4 Ni1 1_555 1_555
O5 Ni1 1_555 1_555
O6 Ni1 1_555 1_555
H7 O5 1_555 1_555
H8 O5 1_555 1_555
H9 O6 1_555 1_555
H10 O4 1_555 1_555
H16 O4 1_555 1_555
H17 O6 1_555 1_555
C22 H18 1_555 1_555
N4 Co1 1_555 1_555
O19 Ni1 1_555 1_555
H35 O19 1_555 1_555
H36 O19 1_555 1_555
O22 Ni1 1_555 1_555
C5 N2 1_555 1_555
C9 C10 1_555 1_555
Co1 N2 1_555 1_555
C1_2 H1_2 1_555 1_555
Co1_2 N1_2 1_555 1_555
C22_2 H18_2 1_555 1_555
C23 C22_2 1_555 1_555
H19 C23 1_555 1_555
C24 C23 1_555 1_555
C25 C24 1_555 1_555
C26 C27 1_555 1_555
C27 H20 1_555 1_555
C28 C27 1_555 1_555
H21 C28 1_555 1_555
C29 C28 1_555 1_555
C30 C29 1_555 1_555
H22 C30 1_555 1_555
C31 C26 1_555 1_555
H23 C31 1_555 1_555
C32 C29 1_555 1_555
N4_2 Co1_2 1_555 1_555
N5 Co1_2 1_555 1_555
Ni2 O12 1_555 1_555
O10 C25 1_555 1_555
O11 C32 1_555 1_555
O12 C32 1_555 1_555
O13 Ni2 1_555 1_555
O14 Ni2 1_555 1_555
O15 Ni2 1_555 1_555
H24 O14 1_555 1_555
H25 O14 1_555 1_555
H26 O15 1_555 1_555
H27 O13 1_555 1_555
H33 O13 1_555 1_555
H34 O15 1_555 1_555
O20 Ni2 1_555 1_555
H37 O20 1_555 1_555
H38 O20 1_555 1_555
O21 Ni2 1_555 1_555
C24 N4_2 1_555 1_555
C25 N5 1_555 1_555
C26 N5 1_555 1_555
C30 C31 1_555 1_555
O11 H39 1_555 1_555
C19 C18 1_555 1_555
H14 C19 1_555 1_555
H15 C20 1_555 1_555
C21 C18 1_555 1_555
O8 C21 1_555 1_555
O22 C21 1_555 1_555
C40 C39 1_555 1_555
H31 C40 1_555 1_555
H32 C41 1_555 1_555
C42 C39 1_555 1_555
O17 C42 1_555 1_555
O21 C42 1_555 1_555
C19 C20 1_555 1_555
C40 C41 1_555 1_555
O2 H39_2 1_555 1_555
C1_3 H1_3 1_555 1_555
Co1_3 N1_3 1_555 1_555
C22_3 H18_3 1_555 1_555
N4_3 Co1_3 1_555 1_555
C33 C22_3 1_555 1_555
H28 C33 1_555 1_555
C34 N4_3 1_555 1_555
C35 C34 1_555 1_555
C36 C37 1_555 1_555
C37 H29 1_555 1_555
C38 C37 1_555 1_555
H30 C38 1_555 1_555
C39_2 C38 1_555 1_555
C40_2 C39_2 1_555 1_555
H31_2 C40_2 1_555 1_555
C41_2 C36 1_555 1_555
H32_2 C41_2 1_555 1_555
C42_2 C39_2 1_555 1_555
N6 Co1_3 1_555 1_555
O16 C35 1_555 1_555
O17_2 C42_2 1_555 1_555
O18 C42_2 1_555 1_555
Ni3 O18 1_555 1_555
C33 C34 1_555 1_555
C35 N6 1_555 1_555
C36 N6 1_555 1_555
C40_2 C41_2 1_555 1_555
C9_2 C8_2 1_555 1_555
H5_2 C9_2 1_555 1_555
H6_2 C10_2 1_555 1_555
C11_2 C8_2 1_555 1_555
Ni3 O3_2 1_555 1_555
O2_2 C11_2 1_555 1_555
O3_2 C11_2 1_555 1_555
O4_2 Ni3 1_555 1_555
O5_2 Ni3 1_555 1_555
O6_2 Ni3 1_555 1_555
H7_2 O5_2 1_555 1_555
H8_2 O5_2 1_555 1_555
H9_2 O6_2 1_555 1_555
H10_2 O4_2 1_555 1_555
H16_2 O4_2 1_555 1_555
H17_2 O6_2 1_555 1_555
O19_2 Ni3 1_555 1_555
H35_2 O19_2 1_555 1_555
H36_2 O19_2 1_555 1_555
C9_2 C10_2 1_555 1_555
O17_2 H39_3 1_555 1_555
C1_4 H1_4 1_555 1_555
Co1_4 N1_4 1_555 1_555
C12 C1_4 1_555 1_555
H11 C12 1_555 1_555
C13 N1_4 1_555 1_555
C14 C13 1_555 1_555
C15 C16 1_555 1_555
C16 H12 1_555 1_555
C17 C16 1_555 1_555
H13 C17 1_555 1_555
C18_2 C17 1_555 1_555
C19_2 C18_2 1_555 1_555
H14_2 C19_2 1_555 1_555
C20_2 C15 1_555 1_555
H15_2 C20_2 1_555 1_555
C21_2 C18_2 1_555 1_555
N3 Co1_4 1_555 1_555
O7 C14 1_555 1_555
O8_2 C21_2 1_555 1_555
O9 C21_2 1_555 1_555
C22_4 H18_4 1_555 1_555
N4_4 Co1_4 1_555 1_555
Ni4 O9 1_555 1_555
C12 C13 1_555 1_555
C14 N3 1_555 1_555
C15 N3 1_555 1_555
C19_2 C20_2 1_555 1_555
C30_2 C29_2 1_555 1_555
H22_2 C30_2 1_555 1_555
H23_2 C31_2 1_555 1_555
C32_2 C29_2 1_555 1_555
Ni4 O12_2 1_555 1_555
O11_2 C32_2 1_555 1_555
O12_2 C32_2 1_555 1_555
O13_2 Ni4 1_555 1_555
O14_2 Ni4 1_555 1_555
O15_2 Ni4 1_555 1_555
H24_2 O14_2 1_555 1_555
H25_2 O14_2 1_555 1_555
H26_2 O15_2 1_555 1_555
H27_2 O13_2 1_555 1_555
H33_2 O13_2 1_555 1_555
H34_2 O15_2 1_555 1_555
O20_2 Ni4 1_555 1_555
H37_2 O20_2 1_555 1_555
H38_2 O20_2 1_555 1_555
C30_2 C31_2 1_555 1_555
O8_2 H39_4 1_555 1_555
O4_3 Ni1_2 1_555 1_555
O6_3 Ni1_2 1_555 1_555
H9_3 O6_3 1_555 1_555
H10_3 O4_3 1_555 1_555
O13_3 Ni2_2 1_555 1_555
O15_3 Ni2_2 1_555 1_555
H26_3 O15_3 1_555 1_555
H27_3 O13_3 1_555 1_555
O19_3 Ni1_2 1_555 1_555
H35_3 O19_3 1_555 1_555
H36_3 O19_3 1_555 1_555
O20_3 Ni2_2 1_555 1_555
H37_3 O20_3 1_555 1_555
H38_3 O20_3 1_555 1_555
O21_2 Ni2_2 1_555 1_555
O22_2 Ni1_2 1_555 1_555
C1_5 H1_5 1_555 1_555
Co1_5 N1_5 1_555 1_555
C12_2 C1_5 1_555 1_555
H11_2 C12_2 1_555 1_555
C13_2 N1_5 1_555 1_555
C14_2 C13_2 1_555 1_555
C15_2 C16_2 1_555 1_555
C16_2 H12_2 1_555 1_555
C17_2 C16_2 1_555 1_555
H13_2 C17_2 1_555 1_555
C18_3 C17_2 1_555 1_555
C19_3 C18_3 1_555 1_555
H14_3 C19_3 1_555 1_555
C20_3 C15_2 1_555 1_555
H15_3 C20_3 1_555 1_555
C21_3 C18_3 1_555 1_555
N3_2 Co1_5 1_555 1_555
O7_2 C14_2 1_555 1_555
O8_3 C21_3 1_555 1_555
O22_2 C21_3 1_555 1_555
C22_5 H18_5 1_555 1_555
C23_2 C22_5 1_555 1_555
H19_2 C23_2 1_555 1_555
C24_2 C23_2 1_555 1_555
C25_2 C24_2 1_555 1_555
C26_2 C27_2 1_555 1_555
C27_2 H20_2 1_555 1_555
C28_2 C27_2 1_555 1_555
H21_2 C28_2 1_555 1_555
N4_5 Co1_5 1_555 1_555
N5_2 Co1_5 1_555 1_555
O10_2 C25_2 1_555 1_555
C12_2 C13_2 1_555 1_555
C14_2 N3_2 1_555 1_555
C15_2 N3_2 1_555 1_555
C19_3 C20_3 1_555 1_555
C24_2 N4_5 1_555 1_555
C25_2 N5_2 1_555 1_555
C26_2 N5_2 1_555 1_555
C1_6 H1_6 1_555 1_555
C2_2 C1_6 1_555 1_555
H2_2 C2_2 1_555 1_555
C3_2 C2_2 1_555 1_555
C4_2 C3_2 1_555 1_555
C5_2 C6_2 1_555 1_555
C6_2 H3_2 1_555 1_555
C7_2 C6_2 1_555 1_555
H4_2 C7_2 1_555 1_555
Co1_6 N1_6 1_555 1_555
N1_6 C3_2 1_555 1_555
N2_2 C4_2 1_555 1_555
O1_2 C4_2 1_555 1_555
C22_6 H18_6 1_555 1_555
N4_6 Co1_6 1_555 1_555
C33_2 C22_6 1_555 1_555
H28_2 C33_2 1_555 1_555
C34_2 N4_6 1_555 1_555
C35_2 C34_2 1_555 1_555
C36_2 C37_2 1_555 1_555
C37_2 H29_2 1_555 1_555
C38_2 C37_2 1_555 1_555
H30_2 C38_2 1_555 1_555
C39_3 C38_2 1_555 1_555
C40_3 C39_3 1_555 1_555
H31_3 C40_3 1_555 1_555
C41_3 C36_2 1_555 1_555
H32_3 C41_3 1_555 1_555
C42_3 C39_3 1_555 1_555
N6_2 Co1_6 1_555 1_555
O16_2 C35_2 1_555 1_555
O17_3 C42_3 1_555 1_555
O21_2 C42_3 1_555 1_555
C5_2 N2_2 1_555 1_555
Co1_6 N2_2 1_555 1_555
C33_2 C34_2 1_555 1_555
C35_2 N6_2 1_555 1_555
C36_2 N6_2 1_555 1_555
C40_3 C41_3 1_555 1_555
O17_3 H39_7 1_555 1_555
O8_3 H39_8 1_555 1_555
C1_7 H1_7 1_555 1_555
C2_3 C1_7 1_555 1_555
H2_3 C2_3 1_555 1_555
C3_3 C2_3 1_555 1_555
C4_3 C3_3 1_555 1_555
C5_3 C6_3 1_555 1_555
C6_3 H3_3 1_555 1_555
C7_3 C6_3 1_555 1_555
H4_3 C7_3 1_555 1_555
C8_3 C7_3 1_555 1_555
C9_3 C8_3 1_555 1_555
H5_3 C9_3 1_555 1_555
C10_3 C5_3 1_555 1_555
H6_3 C10_3 1_555 1_555
C11_3 C8_3 1_555 1_555
Co1_7 N1_7 1_555 1_555
N1_7 C3_3 1_555 1_555
N2_3 C4_3 1_555 1_555
Ni1_3 O3_3 1_555 1_555
O1_3 C4_3 1_555 1_555
O2_3 C11_3 1_555 1_555
O3_3 C11_3 1_555 1_555
O4_4 Ni1_3 1_555 1_555
O5_3 Ni1_3 1_555 1_555
O6_4 Ni1_3 1_555 1_555
H7_3 O5_3 1_555 1_555
H8_3 O5_3 1_555 1_555
C12_3 C1_7 1_555 1_555
H11_3 C12_3 1_555 1_555
C13_3 N1_7 1_555 1_555
C14_3 C13_3 1_555 1_555
C15_3 C16_3 1_555 1_555
C16_3 H12_3 1_555 1_555
C17_3 C16_3 1_555 1_555
H13_3 C17_3 1_555 1_555
N3_3 Co1_7 1_555 1_555
O7_3 C14_3 1_555 1_555
H16_3 O4_4 1_555 1_555
H17_3 O6_4 1_555 1_555
C22_7 H18_7 1_555 1_555
C23_3 C22_7 1_555 1_555
H19_3 C23_3 1_555 1_555
C24_3 C23_3 1_555 1_555
C25_3 C24_3 1_555 1_555
C26_3 C27_3 1_555 1_555
C27_3 H20_3 1_555 1_555
C28_3 C27_3 1_555 1_555
H21_3 C28_3 1_555 1_555
C29_3 C28_3 1_555 1_555
C30_3 C29_3 1_555 1_555
H22_3 C30_3 1_555 1_555
C31_3 C26_3 1_555 1_555
H23_3 C31_3 1_555 1_555
C32_3 C29_3 1_555 1_555
N4_7 Co1_7 1_555 1_555
N5_3 Co1_7 1_555 1_555
Ni2_3 O12_3 1_555 1_555
O10_3 C25_3 1_555 1_555
O11_3 C32_3 1_555 1_555
O12_3 C32_3 1_555 1_555
O13_4 Ni2_3 1_555 1_555
O14_3 Ni2_3 1_555 1_555
O15_4 Ni2_3 1_555 1_555
H24_3 O14_3 1_555 1_555
H25_3 O14_3 1_555 1_555
C33_3 C22_7 1_555 1_555
H28_3 C33_3 1_555 1_555
C34_3 N4_7 1_555 1_555
C35_3 C34_3 1_555 1_555
C36_3 C37_3 1_555 1_555
C37_3 H29_3 1_555 1_555
C38_3 C37_3 1_555 1_555
H30_3 C38_3 1_555 1_555
N6_3 Co1_7 1_555 1_555
O16_3 C35_3 1_555 1_555
H33_3 O13_4 1_555 1_555
H34_3 O15_4 1_555 1_555
C5_3 N2_3 1_555 1_555
C9_3 C10_3 1_555 1_555
Co1_7 N2_3 1_555 1_555
C12_3 C13_3 1_555 1_555
C14_3 N3_3 1_555 1_555
C15_3 N3_3 1_555 1_555
C24_3 N4_7 1_555 1_555
C25_3 N5_3 1_555 1_555
C26_3 N5_3 1_555 1_555
C30_3 C31_3 1_555 1_555
C33_3 C34_3 1_555 1_555
C35_3 N6_3 1_555 1_555
C36_3 N6_3 1_555 1_555
O11_3 H39_9 1_555 1_555
O2_3 H39_10 1_555 1_555

#END
