
###############################################################################
#
# This file contains modified crystal structure data generated from the
# MOF subset of the Cambridge Structural Database (CSD) v543 
# hosted by the Cambridge Crystallographic Data Centre (CCDC).
#
# This work is licensed under the Creative Commons
# Attribution-NonCommercial-ShareAlike 4.0 International License.
# To view a copy of this license, visit
# http://creativecommons.org/licenses/by-nc-sa/4.0/
# or send a letter to
# Creative Commons, PO Box 1866, Mountain View, CA 94042, USA.
#
# CIF created using the CSD Python API on 29 September 2022
# The structure has been converted into the P1 space group
# The structure has a 3D framework
# The original CSD entry JETJOI is in the monoclinic crystal system
# The framework has been calculated to contain at least 10.0% void space
# The void calculation uses a probe of radius 1.32A, grid spacing 0.4
# The framework is charged, counterions have been retained in the structure
#
###############################################################################

data_JETJOI
_chemical_formula_moiety         '(C64 H32 Na5 O32 Zn6 2-)n'
_symmetry_cell_setting           triclinic
_symmetry_space_group_name_H-M   'P 1'
_symmetry_Int_Tables_number      1
_space_group_name_Hall           'P 1'
loop_
_symmetry_equiv_pos_site_id
_symmetry_equiv_pos_as_xyz
1 x,y,z
_cell_length_a                   13.277(6)
_cell_length_b                   14.323(7)
_cell_length_c                   11.328(6)
_cell_angle_alpha                90.00
_cell_angle_beta                 111.73(2)
_cell_angle_gamma                90.00
_cell_volume                     2001.13
loop_
_atom_site_label
_atom_site_type_symbol
_atom_site_fract_x
_atom_site_fract_y
_atom_site_fract_z
Na1 Na 0.0000 0.0000 0.0000
O8 O 0.1376(2) 0.0250(2) 0.2084(2)
Zn1 Zn 0.0000 0.11497(3) 0.7500
Na1_2 Na 0.0000 0.0000 1.0000
O1 O 0.10944(16) 0.03402(15) 0.8745(2)
Na2 Na 0.0000 0.0000 0.5000
O11 O 0.1001(3) 0.2137(2) 0.7235(5)
Na1_3 Na 0.0000 1.0000 0.0000
C4 C 0.2740(3) 0.9266(2) 0.0438(3)
H2 H 0.2414 0.9716 0.0770
C6 C 0.3523(3) 0.8680(3) 0.1243(3)
H3 H 0.3728 0.8742 0.2118
C7 C 0.4000(3) 0.8007(3) 0.0755(4)
H4 H 0.4517 0.7609 0.1302
Na3 Na 0.5000 0.5000 0.0000
O14 O 0.0091(3) 0.8354(2) 0.0315(6)
Na1_4 Na 0.0000 1.0000 1.0000
C1 C 0.1577(2) 0.9791(2) 0.8233(3)
C2 C 0.2442(2) 0.9180(2) 0.9135(3)
C3 C 0.2943(3) 0.8510(2) 0.8657(3)
H1 H 0.2757 0.8458 0.7783
O2 O 0.1376(2) 0.9750(2) 0.7084(2)
C5 C 0.3716(3) 0.7919(2) 0.9466(4)
O3 O 0.3999(3) 0.7137(2) 0.7765(5)
C8 C 0.4238(4) 0.7181(3) 0.8947(7)
O4 O 0.4909(3) 0.6646(2) 0.9685(6)
Zn2 Zn 0.5000 0.61497(3) 0.7500
Na2_2 Na 0.0000 1.0000 0.5000
Na3_2 Na 0.5000 0.5000 1.0000
Na1_5 Na 1.0000 0.0000 0.0000
Zn1_2 Zn 1.0000 0.11497(3) 0.7500
Na1_6 Na 1.0000 0.0000 1.0000
Na2_3 Na 1.0000 0.0000 0.5000
O5 O 0.89056(16) 0.03402(15) 0.6255(2)
O10 O 0.8999(3) 0.2137(2) 0.7765(5)
O13 O 0.9909(3) 0.1646(2) 0.9685(6)
Na1_7 Na 1.0000 1.0000 0.0000
O6 O 0.89056(16) 0.96598(15) 0.1255(2)
Na1_8 Na 1.0000 1.0000 1.0000
Na2_4 Na 1.0000 1.0000 0.5000
Na4 Na 0.5000 0.5000 0.5000
C9 C 0.8423(2) 0.9791(2) 0.6767(3)
C10 C 0.7558(2) 0.9180(2) 0.5865(3)
C11 C 0.7057(3) 0.8510(2) 0.6343(3)
H5 H 0.7243 0.8458 0.7217
O7 O 0.8624(2) 0.9750(2) 0.7916(2)
C12 C 0.7260(3) 0.9266(2) 0.4562(3)
H6 H 0.7586 0.9716 0.4230
C13 C 0.6284(3) 0.7919(2) 0.5534(4)
C14 C 0.6477(3) 0.8680(3) 0.3757(3)
H7 H 0.6272 0.8742 0.2882
O9 O 0.6001(3) 0.7137(2) 0.7235(5)
C15 C 0.6000(3) 0.8007(3) 0.4245(4)
H8 H 0.5483 0.7609 0.3698
C16 C 0.5762(4) 0.7181(3) 0.6053(7)
O12 O 0.5091(3) 0.6646(2) 0.5315(6)
C4_2 C 0.7740(3) 0.4266(2) 0.0438(3)
H2_2 H 0.7414 0.4716 0.0770
C6_2 C 0.8523(3) 0.3680(3) 0.1243(3)
H3_2 H 0.8728 0.3742 0.2118
C7_2 C 0.9000(3) 0.3007(3) 0.0755(4)
H4_2 H 0.9517 0.2609 0.1302
O6_2 O 0.39056(16) 0.46598(15) 0.1255(2)
O8_2 O 0.6376(2) 0.5250(2) 0.2084(2)
O14_2 O 0.5091(3) 0.3354(2) 0.0315(6)
O1_2 O 0.60944(16) 0.53402(15) 0.8745(2)
C1_2 C 0.6577(2) 0.4791(2) 0.8233(3)
C2_2 C 0.7442(2) 0.4180(2) 0.9135(3)
C3_2 C 0.7943(3) 0.3510(2) 0.8657(3)
H1_2 H 0.7757 0.3458 0.7783
O2_2 O 0.6376(2) 0.4750(2) 0.7084(2)
C5_2 C 0.8716(3) 0.2919(2) 0.9466(4)
C8_2 C 0.9238(4) 0.2181(3) 0.8947(7)
O5_2 O 0.39056(16) 0.53402(15) 0.6255(2)
C9_2 C 0.3423(2) 0.4791(2) 0.6767(3)
C10_2 C 0.2558(2) 0.4180(2) 0.5865(3)
C11_2 C 0.2057(3) 0.3510(2) 0.6343(3)
H5_2 H 0.2243 0.3458 0.7217
O7_2 O 0.3624(2) 0.4750(2) 0.7916(2)
C12_2 C 0.2260(3) 0.4266(2) 0.4562(3)
H6_2 H 0.2586 0.4716 0.4230
C13_2 C 0.1284(3) 0.2919(2) 0.5534(4)
C14_2 C 0.1477(3) 0.3680(3) 0.3757(3)
H7_2 H 0.1272 0.3742 0.2882
C15_2 C 0.1000(3) 0.3007(3) 0.4245(4)
H8_2 H 0.0483 0.2609 0.3698
C16_2 C 0.0762(4) 0.2181(3) 0.6053(7)
O12_2 O 0.0091(3) 0.1646(2) 0.5315(6)
O6_3 O 0.10944(16) 0.96598(15) 0.3745(2)
O8_3 O 0.8624(2) 0.0250(2) 0.2916(2)
O14_3 O 0.9909(3) 0.8354(2) 0.4685(6)
O6_4 O 0.60944(16) 0.46598(15) 0.3745(2)
O8_4 O 0.3624(2) 0.5250(2) 0.2916(2)
O14_4 O 0.4909(3) 0.3354(2) 0.4685(6)
Zn3 Zn 0.5000 0.38503(3) 0.2500
C9_3 C 0.1577(2) 0.0209(2) 0.3233(3)
C10_3 C 0.2442(2) 0.0820(2) 0.4135(3)
C11_3 C 0.2943(3) 0.1490(2) 0.3657(3)
H5_3 H 0.2757 0.1542 0.2783
C12_3 C 0.2740(3) 0.0734(2) 0.5438(3)
H6_3 H 0.2414 0.0284 0.5770
C13_3 C 0.3716(3) 0.2081(2) 0.4466(4)
C14_3 C 0.3523(3) 0.1320(3) 0.6243(3)
H7_3 H 0.3728 0.1258 0.7118
O9_2 O 0.3999(3) 0.2863(2) 0.2765(5)
C15_3 C 0.4000(3) 0.1993(3) 0.5755(4)
H8_3 H 0.4517 0.2391 0.6302
C16_3 C 0.4238(4) 0.2819(3) 0.3947(7)
Zn1_3 Zn -0.0000 0.88503(3) 0.2500
O10_2 O 0.1001(3) 0.7863(2) 0.2235(5)
C1_3 C 0.8423(2) 0.0209(2) 0.1767(3)
C2_3 C 0.7558(2) 0.0820(2) 0.0865(3)
C3_3 C 0.7057(3) 0.1490(2) 0.1343(3)
H1_3 H 0.7243 0.1542 0.2217
C5_3 C 0.6284(3) 0.2081(2) 0.0534(4)
O3_2 O 0.6001(3) 0.2863(2) 0.2235(5)
C8_3 C 0.5762(4) 0.2819(3) 0.1053(7)
C4_3 C 0.7260(3) 0.0734(2) 0.9562(3)
H2_3 H 0.7586 0.0284 0.9230
C6_3 C 0.6477(3) 0.1320(3) 0.8757(3)
H3_3 H 0.6272 0.1258 0.7882
C7_3 C 0.6000(3) 0.1993(3) 0.9245(4)
H4_3 H 0.5483 0.2391 0.8698
Zn1_4 Zn 1.0000 0.88503(3) 0.2500
O11_2 O 0.8999(3) 0.7863(2) 0.2765(5)
C1_4 C 0.3423(2) 0.5209(2) 0.1767(3)
C2_4 C 0.2558(2) 0.5820(2) 0.0865(3)
C3_4 C 0.2057(3) 0.6490(2) 0.1343(3)
H1_4 H 0.2243 0.6542 0.2217
C5_4 C 0.1284(3) 0.7081(2) 0.0534(4)
C8_4 C 0.0762(4) 0.7819(3) 0.1053(7)
C9_4 C 0.6577(2) 0.5209(2) 0.3233(3)
C10_4 C 0.7442(2) 0.5820(2) 0.4135(3)
C11_4 C 0.7943(3) 0.6490(2) 0.3657(3)
H5_4 H 0.7757 0.6542 0.2783
C12_4 C 0.7740(3) 0.5734(2) 0.5438(3)
H6_4 H 0.7414 0.5284 0.5770
C13_4 C 0.8716(3) 0.7081(2) 0.4466(4)
C14_4 C 0.8523(3) 0.6320(3) 0.6243(3)
H7_4 H 0.8728 0.6258 0.7118
C15_4 C 0.9000(3) 0.6993(3) 0.5755(4)
H8_4 H 0.9517 0.7391 0.6302
C16_4 C 0.9238(4) 0.7819(3) 0.3947(7)
C4_4 C 0.2260(3) 0.5734(2) 0.9562(3)
H2_4 H 0.2586 0.5284 0.9230
C6_4 C 0.1477(3) 0.6320(3) 0.8757(3)
H3_4 H 0.1272 0.6258 0.7882
C7_4 C 0.1000(3) 0.6993(3) 0.9245(4)
H4_4 H 0.0483 0.7391 0.8698
loop_
_geom_bond_atom_site_label_1
_geom_bond_atom_site_label_2
_geom_bond_site_symmetry_1
_geom_bond_site_symmetry_2
O8 Na1 1_555 1_555
Zn1 O1 1_555 1_555
Na1_2 O1 1_555 1_555
O11 Zn1 1_555 1_555
H2 C4 1_555 1_555
C6 C4 1_555 1_555
H3 C6 1_555 1_555
H4 C7 1_555 1_555
O14 Na1_3 1_555 1_555
C6 C7 1_555 1_555
C1 C2 1_555 1_555
C2 C3 1_555 1_555
C3 H1 1_555 1_555
O2 C1 1_555 1_555
C5 C3 1_555 1_555
O3 C8 1_555 1_555
C8 C5 1_555 1_555
O4 C8 1_555 1_555
Zn2 O3 1_555 1_555
Na2_2 O2 1_555 1_555
Na3_2 O4 1_555 1_555
O5 Zn1_2 1_555 1_555
O10 Zn1_2 1_555 1_555
O13 Na1_6 1_555 1_555
Na2_3 O5 1_555 1_555
O6 Na1_7 1_555 1_555
Zn2 O9 1_555 1_555
Na4 O12 1_555 1_555
C10 C9 1_555 1_555
C11 C10 1_555 1_555
H5 C11 1_555 1_555
O7 Na1_8 1_555 1_555
C12 C10 1_555 1_555
H6 C12 1_555 1_555
C13 C11 1_555 1_555
C14 C12 1_555 1_555
H7 C14 1_555 1_555
O9 C16 1_555 1_555
C15 C13 1_555 1_555
H8 C15 1_555 1_555
C16 C13 1_555 1_555
O12 C16 1_555 1_555
C9 O7 1_555 1_555
C14 C15 1_555 1_555
H2_2 C4_2 1_555 1_555
C6_2 C4_2 1_555 1_555
H3_2 C6_2 1_555 1_555
H4_2 C7_2 1_555 1_555
O6_2 Na3 1_555 1_555
O8_2 Na3 1_555 1_555
O14_2 Na3 1_555 1_555
C6_2 C7_2 1_555 1_555
Zn2 O1_2 1_555 1_555
Na3_2 O1_2 1_555 1_555
O1_2 C1_2 1_555 1_555
C1_2 C2_2 1_555 1_555
C2_2 C3_2 1_555 1_555
C3_2 H1_2 1_555 1_555
O2_2 C1_2 1_555 1_555
C5_2 C3_2 1_555 1_555
O10 C8_2 1_555 1_555
C8_2 C5_2 1_555 1_555
O13 C8_2 1_555 1_555
Na4 O2_2 1_555 1_555
Na2 O12_2 1_555 1_555
O5_2 Zn2 1_555 1_555
C9_2 O5_2 1_555 1_555
C10_2 C9_2 1_555 1_555
C11_2 C10_2 1_555 1_555
H5_2 C11_2 1_555 1_555
O7_2 Na3_2 1_555 1_555
C12_2 C10_2 1_555 1_555
H6_2 C12_2 1_555 1_555
C13_2 C11_2 1_555 1_555
C14_2 C12_2 1_555 1_555
H7_2 C14_2 1_555 1_555
O11 C16_2 1_555 1_555
C15_2 C13_2 1_555 1_555
H8_2 C15_2 1_555 1_555
C16_2 C13_2 1_555 1_555
O12_2 C16_2 1_555 1_555
Na4 O5_2 1_555 1_555
C9_2 O7_2 1_555 1_555
C14_2 C15_2 1_555 1_555
O6_3 Na2_2 1_555 1_555
O8_3 Na2_3 1_555 1_555
O14_3 Na2_4 1_555 1_555
O6_4 Na4 1_555 1_555
O8_4 Na4 1_555 1_555
O14_4 Na4 1_555 1_555
Zn3 O9_2 1_555 1_555
C10_3 C9_3 1_555 1_555
C11_3 C10_3 1_555 1_555
H5_3 C11_3 1_555 1_555
C12_3 C10_3 1_555 1_555
H6_3 C12_3 1_555 1_555
C13_3 C11_3 1_555 1_555
C14_3 C12_3 1_555 1_555
H7_3 C14_3 1_555 1_555
O9_2 C16_3 1_555 1_555
C15_3 C13_3 1_555 1_555
H8_3 C15_3 1_555 1_555
C16_3 C13_3 1_555 1_555
O14_4 C16_3 1_555 1_555
C9_3 O8 1_555 1_555
C14_3 C15_3 1_555 1_555
O6_3 Zn1_3 1_555 1_555
O10_2 Zn1_3 1_555 1_555
C1_3 C2_3 1_555 1_555
C2_3 C3_3 1_555 1_555
C3_3 H1_3 1_555 1_555
O8_3 C1_3 1_555 1_555
C5_3 C3_3 1_555 1_555
O3_2 C8_3 1_555 1_555
C8_3 C5_3 1_555 1_555
O14_2 C8_3 1_555 1_555
Zn3 O3_2 1_555 1_555
H2_3 C4_3 1_555 1_555
C6_3 C4_3 1_555 1_555
H3_3 C6_3 1_555 1_555
H4_3 C7_3 1_555 1_555
C6_3 C7_3 1_555 1_555
Zn1_4 O6 1_555 1_555
O11_2 Zn1_4 1_555 1_555
Zn3 O6_2 1_555 1_555
O6_2 C1_4 1_555 1_555
C1_4 C2_4 1_555 1_555
C2_4 C3_4 1_555 1_555
C3_4 H1_4 1_555 1_555
O8_4 C1_4 1_555 1_555
C5_4 C3_4 1_555 1_555
O10_2 C8_4 1_555 1_555
C8_4 C5_4 1_555 1_555
O14 C8_4 1_555 1_555
O6_4 Zn3 1_555 1_555
C9_4 O6_4 1_555 1_555
C10_4 C9_4 1_555 1_555
C11_4 C10_4 1_555 1_555
H5_4 C11_4 1_555 1_555
C12_4 C10_4 1_555 1_555
H6_4 C12_4 1_555 1_555
C13_4 C11_4 1_555 1_555
C14_4 C12_4 1_555 1_555
H7_4 C14_4 1_555 1_555
O11_2 C16_4 1_555 1_555
C15_4 C13_4 1_555 1_555
H8_4 C15_4 1_555 1_555
C16_4 C13_4 1_555 1_555
O14_3 C16_4 1_555 1_555
C9_4 O8_2 1_555 1_555
C14_4 C15_4 1_555 1_555
H2_4 C4_4 1_555 1_555
C6_4 C4_4 1_555 1_555
H3_4 C6_4 1_555 1_555
H4_4 C7_4 1_555 1_555
C6_4 C7_4 1_555 1_555

#END
