
###############################################################################
#
# This file contains modified crystal structure data generated from the
# MOF subset of the Cambridge Structural Database (CSD) v543 
# hosted by the Cambridge Crystallographic Data Centre (CCDC).
#
# This work is licensed under the Creative Commons
# Attribution-NonCommercial-ShareAlike 4.0 International License.
# To view a copy of this license, visit
# http://creativecommons.org/licenses/by-nc-sa/4.0/
# or send a letter to
# Creative Commons, PO Box 1866, Mountain View, CA 94042, USA.
#
# CIF created using the CSD Python API on 29 September 2022
# The structure has been converted into the P1 space group
# The structure has a 3D framework
# The original CSD entry JEWXER is in the triclinic crystal system
# The framework has been calculated to contain at least 10.0% void space
# The void calculation uses a probe of radius 1.32A, grid spacing 0.4
# H atom positions have been added when not included in the experimental data
#
###############################################################################

data_JEWXER
_chemical_formula_moiety         '(C66 H50 Cd6 N18 O22)n'
_symmetry_cell_setting           triclinic
_symmetry_space_group_name_H-M   'P 1'
_symmetry_Int_Tables_number      1
_space_group_name_Hall           'P 1'
loop_
_symmetry_equiv_pos_site_id
_symmetry_equiv_pos_as_xyz
1 x,y,z
_cell_length_a                   13.892(3)
_cell_length_b                   14.001(3)
_cell_length_c                   18.454(4)
_cell_angle_alpha                76.28(3)
_cell_angle_beta                 70.15(3)
_cell_angle_gamma                68.73(3)
_cell_volume                     3119.38
loop_
_atom_site_label
_atom_site_type_symbol
_atom_site_fract_x
_atom_site_fract_y
_atom_site_fract_z
O5 O 0.1146(4) 0.9502(4) 0.7042(3)
O6 O 0.1322(5) 0.9558(7) 0.5816(4)
C22 C 0.0747(7) 0.9563(7) 0.6503(6)
Cd5 Cd 0.11684(5) 0.98986(4) 0.82131(3)
Cd6 Cd 0.28058(5) 0.96782(5) 0.59895(4)
O1 O 0.1297(6) 0.0259(4) 0.0512(4)
H4 H 0.148793 0.646102 0.002103
C6 C 0.1434(8) 0.3244(6) 0.0149(6)
H6 H 0.153254 0.350585 0.052783
C7 C 0.1382(8) 0.2244(7) 0.0289(6)
H7 H 0.141584 0.184877 0.076713
Cd8 Cd 0.15267(6) 0.86887(5) 0.02806(4)
O2 O 0.1078(5) 0.0365(4) 0.9396(3)
O8 O 0.1215(7) 0.5555(5) 0.8197(4)
O9 O 0.0023(9) 0.3970(8) 0.6240(6)
N3 N 0.1345(6) 0.7897(5) 0.9457(4)
N4 N 0.1226(5) 0.8298(5) 0.8737(4)
N5 N 0.0017(5) 0.1433(5) 0.7979(4)
N8 N 0.1373(6) 0.4865(5) 0.9397(4)
H2 H 0.144373 0.501534 0.979773
C1 C 0.1394(7) 0.6908(6) 0.9571(5)
C2 C 0.1220(7) 0.7532(6) 0.8428(5)
H5 H 0.117558 0.759478 0.792646
C3 C 0.1288(8) 0.6628(6) 0.8948(5)
C4 C 0.1304(9) 0.5663(7) 0.8788(6)
C5 C 0.1346(7) 0.3841(6) 0.9472(5)
C8 C 0.1278(7) 0.1836(6) 0.9719(5)
C9 C 0.1189(7) 0.2470(6) 0.9027(5)
H8 H 0.110198 0.221714 0.863851
C10 C 0.1225(8) 0.3453(6) 0.8907(6)
H9 H 0.116813 0.386385 0.843764
C11 C 0.1226(7) 0.0758(6) 0.9886(6)
C23 C 0.0174(8) 0.2071(6) 0.7327(5)
H16 H 0.074424 0.193408 0.688025
O12 O 0.2226(7) 0.1391(6) 0.5647(5)
O13 O 0.3412(6) 0.0709(6) 0.4651(4)
O10 O 0.3520(4) 0.8078(5) 0.0049(4)
N12 N 0.0875(6) 0.8058(5) 0.1491(4)
H24 H 0.369233 0.810744 0.0521716
O7 O 0.5588(5) 0.9866(7) 0.8288(4)
O11 O 0.4095(12) 0.8097(10) 0.5569(10)
N1 N 0.2874(5) 0.9891(5) 0.7690(4)
N2 N 0.3412(5) 0.9797(6) 0.6915(4)
N7 N 0.6455(6) 0.9735(6) 0.6998(4)
H1 H 0.634389 0.969649 0.657624
C12 C 0.3607(7) 0.9896(7) 0.8003(6)
H10 H 0.346272 0.993806 0.852653
C13 C 0.4602(7) 0.9834(7) 0.7473(5)
C14 C 0.4390(7) 0.9788(7) 0.6817(5)
H11 H 0.490323 0.975308 0.633568
C15 C 0.5580(8) 0.9817(8) 0.7648(7)
C16 C 0.7499(7) 0.9704(7) 0.6932(5)
C17 C 0.7827(7) 0.9757(7) 0.7533(5)
H12 H 0.733706 0.984132 0.802077
C18 C 0.8886(7) 0.9685(7) 0.7422(5)
H13 H 0.910502 0.971942 0.783631
C19 C 0.9615(7) 0.9563(7) 0.6704(5)
C20 C 0.9243(8) 0.9538(9) 0.6090(6)
H14 H 0.971273 0.948567 0.559246
C21 C 0.8212(7) 0.9591(9) 0.6217(6)
H15 H 0.798561 0.954836 0.580878
H22 H 0.406532 0.753144 0.600992
H23 H 0.392886 0.792982 0.513999
H25 H 0.381371 0.735504 0.992848
N9 N 0.1759(7) 0.5359(6) 0.3090(4)
H3 H 0.226829 0.548573 0.269660
C24 C 0.0681(8) 0.7004(7) 0.2565(6)
C25 C 0.1299(7) 0.7136(7) 0.1818(5)
H17 H 0.192203 0.664695 0.158081
C26 C 0.0755(11) 0.6105(9) 0.3200(7)
C27 C 0.2001(9) 0.4415(7) 0.3575(7)
C28 C 0.1390(10) 0.4191(9) 0.4322(7)
H18 H 0.076004 0.469245 0.453537
C29 C 0.1683(10) 0.3268(9) 0.4746(7)
H19 H 0.127723 0.316177 0.525811
C30 C 0.2546(8) 0.2496(7) 0.4451(5)
C31 C 0.3202(9) 0.2725(7) 0.3709(6)
H20 H 0.383947 0.222370 0.350822
C32 C 0.2930(9) 0.3665(7) 0.3273(6)
H21 H 0.336925 0.379510 0.277700
C33 C 0.2758(10) 0.1464(8) 0.4970(7)
Cd7 Cd 0.71942(5) 0.03218(5) 0.40105(4)
O3 O 0.7774(7) 0.8609(6) 0.4353(5)
O4 O 0.6588(6) 0.9291(6) 0.5349(4)
N6 N 0.9125(6) 0.1942(5) 0.8509(4)
N9_2 N 0.8241(7) 0.4641(6) 0.6910(4)
H3_2 H 0.773171 0.451427 0.730340
C24_2 C 0.9319(8) 0.2996(7) 0.7435(6)
C25_2 C 0.8701(7) 0.2864(7) 0.8182(5)
H17_2 H 0.807797 0.335305 0.841919
C26_2 C 0.9245(11) 0.3895(9) 0.6800(7)
C27_2 C 0.7999(9) 0.5585(7) 0.6425(7)
C28_2 C 0.8610(10) 0.5809(9) 0.5678(7)
H18_2 H 0.923996 0.530755 0.546463
C29_2 C 0.8317(10) 0.6732(9) 0.5254(7)
H19_2 H 0.872277 0.683823 0.474189
C30_2 C 0.7454(8) 0.7504(7) 0.5549(5)
C31_2 C 0.6798(9) 0.7275(7) 0.6291(6)
H20_2 H 0.616053 0.777630 0.649178
C32_2 C 0.7070(9) 0.6335(7) 0.6727(6)
H21_2 H 0.663075 0.620490 0.722300
C33_2 C 0.7242(10) 0.8536(8) 0.5030(7)
Cd9 Cd 0.84733(6) 0.13113(5) 0.97194(4)
Cd1 Cd 0.88316(5) 0.01014(4) 0.17869(3)
O7_2 O 0.4412(5) 0.0134(7) 0.1712(4)
O11_2 O 0.5905(12) 0.1903(10) 0.4431(10)
N1_2 N 0.7126(5) 0.0109(5) 0.2310(4)
N2_2 N 0.6588(5) 0.0203(6) 0.3085(4)
N7_2 N 0.3545(6) 0.0265(6) 0.3002(4)
H1_2 H 0.365611 0.030351 0.342376
C12_2 C 0.6393(7) 0.0104(7) 0.1997(6)
H10_2 H 0.653728 0.006194 0.147347
C13_2 C 0.5398(7) 0.0166(7) 0.2527(5)
C14_2 C 0.5610(7) 0.0212(7) 0.3183(5)
H11_2 H 0.509677 0.024692 0.366432
C15_2 C 0.4420(8) 0.0183(8) 0.2352(7)
C16_2 C 0.2501(7) 0.0296(7) 0.3068(5)
C17_2 C 0.2173(7) 0.0243(7) 0.2467(5)
H12_2 H 0.266294 0.015868 0.197923
C18_2 C 0.1114(7) 0.0315(7) 0.2578(5)
H13_2 H 0.089498 0.028058 0.216369
C19_2 C 0.0385(7) 0.0437(7) 0.3296(5)
C20_2 C 0.0757(8) 0.0462(9) 0.3910(6)
H14_2 H 0.028727 0.051433 0.440754
C21_2 C 0.1788(7) 0.0409(9) 0.3783(6)
H15_2 H 0.201439 0.045164 0.419122
O14 O 0.8854(4) 0.0498(4) 0.2958(3)
O15 O 0.8678(5) 0.0442(7) 0.4184(4)
N10 N 0.8655(6) 0.2103(5) 0.0543(4)
N11 N 0.8774(5) 0.1702(5) 0.1263(4)
H22_2 H 0.593468 0.246856 0.399008
H23_2 H 0.607114 0.207018 0.486001
H25_2 H 0.618629 0.264496 0.00715153
O10_2 O 0.6480(4) 0.1922(5) 0.9951(4)
H24_2 H 0.630767 0.189256 0.947828
O2_2 O 0.8922(5) 0.9635(4) 0.0604(3)
O8_2 O 0.8785(7) 0.4445(5) 0.1803(4)
O9_2 O 0.9977(9) 0.6030(8) 0.3760(6)
N5_2 N 0.9983(5) 0.8567(5) 0.2021(4)
N8_2 N 0.8627(6) 0.5135(5) 0.0603(4)
H2_2 H 0.855627 0.498466 0.020227
C1_2 C 0.8606(7) 0.3092(6) 0.0429(5)
C2_2 C 0.8780(7) 0.2468(6) 0.1572(5)
H5_2 H 0.882442 0.240522 0.207354
C3_2 C 0.8712(8) 0.3372(6) 0.1052(5)
C4_2 C 0.8696(9) 0.4337(7) 0.1212(6)
C5_2 C 0.8654(7) 0.6159(6) 0.0528(5)
C8_2 C 0.8722(7) 0.8164(6) 0.0281(5)
C9_2 C 0.8811(7) 0.7530(6) 0.0973(5)
H8_2 H 0.889802 0.778286 0.136149
C10_2 C 0.8775(8) 0.6547(6) 0.1093(6)
H9_2 H 0.883187 0.613615 0.156236
C11_2 C 0.8774(7) 0.9242(6) 0.0114(6)
C23_2 C 0.9826(8) 0.7929(6) 0.2673(5)
H16_2 H 0.925576 0.806592 0.311975
O1_2 O 0.8703(6) 0.9741(4) 0.9488(4)
H4_2 H 0.851207 0.353898 0.997897
C6_2 C 0.8566(8) 0.6756(6) 0.9851(6)
H6_2 H 0.846746 0.649415 0.947217
C7_2 C 0.8618(8) 0.7756(7) 0.9711(6)
H7_2 H 0.858416 0.815123 0.923287
C22_2 C 0.9253(7) 0.0437(7) 0.3497(6)
loop_
_geom_bond_atom_site_label_1
_geom_bond_atom_site_label_2
_geom_bond_site_symmetry_1
_geom_bond_site_symmetry_2
O5 C22 1_555 1_555
O6 C22 1_555 1_555
Cd5 O5 1_555 1_555
Cd6 O5 1_555 1_555
O6 Cd6 1_555 1_555
H6 C6 1_555 1_555
C7 C6 1_555 1_555
H7 C7 1_555 1_555
O8 C4 1_555 1_555
N3 N4 1_555 1_555
N4 C2 1_555 1_555
N8 H2 1_555 1_555
C1 N3 1_555 1_555
C2 H5 1_555 1_555
C3 C1 1_555 1_555
C4 N8 1_555 1_555
C5 N8 1_555 1_555
C9 C8 1_555 1_555
H8 C9 1_555 1_555
C10 C5 1_555 1_555
H9 C10 1_555 1_555
C11 O2 1_555 1_555
C23 N5 1_555 1_555
H16 C23 1_555 1_555
Cd5 N4 1_555 1_555
C2 C3 1_555 1_555
C3 C4 1_555 1_555
C8 C11 1_555 1_555
C9 C10 1_555 1_555
O10 Cd8 1_555 1_555
N12 Cd8 1_555 1_555
O10 H24 1_555 1_555
Cd6 O11 1_555 1_555
O7 C15 1_555 1_555
N1 Cd5 1_555 1_555
N2 Cd6 1_555 1_555
N7 H1 1_555 1_555
C12 N1 1_555 1_555
H10 C12 1_555 1_555
C13 C12 1_555 1_555
C14 N2 1_555 1_555
H11 C14 1_555 1_555
C15 N7 1_555 1_555
C16 N7 1_555 1_555
C17 C16 1_555 1_555
H12 C17 1_555 1_555
C18 C17 1_555 1_555
H13 C18 1_555 1_555
C19 C18 1_555 1_555
C20 C19 1_555 1_555
H14 C20 1_555 1_555
C21 C16 1_555 1_555
H15 C21 1_555 1_555
N1 N2 1_555 1_555
C13 C14 1_555 1_555
C13 C15 1_555 1_555
C20 C21 1_555 1_555
O11 H22 1_555 1_555
O11 H23 1_555 1_555
O12 C33 1_555 1_555
O13 C33 1_555 1_555
N9 H3 1_555 1_555
C25 N12 1_555 1_555
H17 C25 1_555 1_555
C26 N9 1_555 1_555
C27 N9 1_555 1_555
C28 C27 1_555 1_555
H18 C28 1_555 1_555
C29 C28 1_555 1_555
H19 C29 1_555 1_555
C30 C29 1_555 1_555
C31 C30 1_555 1_555
H20 C31 1_555 1_555
C32 C27 1_555 1_555
H21 C32 1_555 1_555
C33 C30 1_555 1_555
C24 C25 1_555 1_555
C24 C26 1_555 1_555
C31 C32 1_555 1_555
O3 C33_2 1_555 1_555
O4 C33_2 1_555 1_555
N9_2 H3_2 1_555 1_555
C25_2 N6 1_555 1_555
H17_2 C25_2 1_555 1_555
C26_2 N9_2 1_555 1_555
C27_2 N9_2 1_555 1_555
C28_2 C27_2 1_555 1_555
H18_2 C28_2 1_555 1_555
C29_2 C28_2 1_555 1_555
H19_2 C29_2 1_555 1_555
C30_2 C29_2 1_555 1_555
C31_2 C30_2 1_555 1_555
H20_2 C31_2 1_555 1_555
C32_2 C27_2 1_555 1_555
H21_2 C32_2 1_555 1_555
C33_2 C30_2 1_555 1_555
Cd9 N6 1_555 1_555
C24_2 C25_2 1_555 1_555
C24_2 C26_2 1_555 1_555
C31_2 C32_2 1_555 1_555
Cd7 O11_2 1_555 1_555
O7_2 C15_2 1_555 1_555
N1_2 Cd1 1_555 1_555
N2_2 Cd7 1_555 1_555
N7_2 H1_2 1_555 1_555
C12_2 N1_2 1_555 1_555
H10_2 C12_2 1_555 1_555
C13_2 C12_2 1_555 1_555
C14_2 N2_2 1_555 1_555
H11_2 C14_2 1_555 1_555
C15_2 N7_2 1_555 1_555
C16_2 N7_2 1_555 1_555
C17_2 C16_2 1_555 1_555
H12_2 C17_2 1_555 1_555
C18_2 C17_2 1_555 1_555
H13_2 C18_2 1_555 1_555
C19_2 C18_2 1_555 1_555
C20_2 C19_2 1_555 1_555
H14_2 C20_2 1_555 1_555
C21_2 C16_2 1_555 1_555
H15_2 C21_2 1_555 1_555
O14 Cd1 1_555 1_555
O15 Cd7 1_555 1_555
N11 Cd1 1_555 1_555
Cd7 O14 1_555 1_555
N1_2 N2_2 1_555 1_555
C13_2 C14_2 1_555 1_555
C13_2 C15_2 1_555 1_555
C20_2 C21_2 1_555 1_555
N10 N11 1_555 1_555
O11_2 H22_2 1_555 1_555
O11_2 H23_2 1_555 1_555
O10_2 Cd9 1_555 1_555
O10_2 H24_2 1_555 1_555
O8_2 C4_2 1_555 1_555
N11 C2_2 1_555 1_555
N8_2 H2_2 1_555 1_555
C1_2 N10 1_555 1_555
C2_2 H5_2 1_555 1_555
C3_2 C1_2 1_555 1_555
C4_2 N8_2 1_555 1_555
C5_2 N8_2 1_555 1_555
C9_2 C8_2 1_555 1_555
H8_2 C9_2 1_555 1_555
C10_2 C5_2 1_555 1_555
H9_2 C10_2 1_555 1_555
C11_2 O2_2 1_555 1_555
C23_2 N5_2 1_555 1_555
H16_2 C23_2 1_555 1_555
C2_2 C3_2 1_555 1_555
C3_2 C4_2 1_555 1_555
C8_2 C11_2 1_555 1_555
C9_2 C10_2 1_555 1_555
H6_2 C6_2 1_555 1_555
C7_2 C6_2 1_555 1_555
H7_2 C7_2 1_555 1_555
O14 C22_2 1_555 1_555
O15 C22_2 1_555 1_555

#END
