
###############################################################################
#
# This file contains modified crystal structure data generated from the
# MOF subset of the Cambridge Structural Database (CSD) v543 
# hosted by the Cambridge Crystallographic Data Centre (CCDC).
#
# This work is licensed under the Creative Commons
# Attribution-NonCommercial-ShareAlike 4.0 International License.
# To view a copy of this license, visit
# http://creativecommons.org/licenses/by-nc-sa/4.0/
# or send a letter to
# Creative Commons, PO Box 1866, Mountain View, CA 94042, USA.
#
# CIF created using the CSD Python API on 29 September 2022
# The structure has been converted into the P1 space group
# The structure has a 3D framework
# The original CSD entry JEYXOB is in the monoclinic crystal system
# The framework has been calculated to contain at least 10.0% void space
# The void calculation uses a probe of radius 1.32A, grid spacing 0.4
# The framework is charged, counterions have been retained in the structure
#
###############################################################################

data_JEYXOB
_chemical_formula_moiety         '(C12 H4 Fe8 O29 P4 4-)n'
_symmetry_cell_setting           triclinic
_symmetry_space_group_name_H-M   'P 1'
_symmetry_Int_Tables_number      1
_space_group_name_Hall           'P 1'
loop_
_symmetry_equiv_pos_site_id
_symmetry_equiv_pos_as_xyz
1 x,y,z
_cell_length_a                   7.6827(12)
_cell_length_b                   7.7269(12)
_cell_length_c                   18.092(3)
_cell_angle_alpha                90
_cell_angle_beta                 94.443(2)
_cell_angle_gamma                90
_cell_volume                     1070.78
loop_
_atom_site_label
_atom_site_type_symbol
_atom_site_fract_x
_atom_site_fract_y
_atom_site_fract_z
Fe1 Fe 0.11372(5) 0.58491(6) 0.36100(2)
O1 O 0.0599(3) 0.8374(3) 0.36021(12)
O2 O 0.2780(3) 0.3704(3) 0.37566(14)
O4 O 0.0197(3) 0.9707(3) 0.23357(11)
O6 O 0.3391(3) 0.6504(3) 0.29279(14)
O8 O 0.5472(3) 0.2792(3) 0.36289(14)
O9 O 0.6057(3) 0.5429(3) 0.27504(14)
C1 C 0.4254(4) 0.3831(4) 0.35093(17)
C3 C 0.4599(4) 0.5403(4) 0.30099(16)
C4 C 0.0830(4) 0.5453(4) 0.52000(16)
O10 O 0.0978(3) 0.5286(3) 0.58964(11)
O11 O 0.1835(3) 0.6215(3) 0.48138(12)
P2 P 0.05923(9) 0.44720(10) 0.19190(4)
H2 H 0.1688 0.3832 0.2015
O14 O 0.1032(3) 0.6166(3) 0.15642(13)
Fe4 Fe 0.22343(5) 0.66654(6) 0.68874(2)
Fe6 Fe 0.22343(5) 0.83346(6) 0.18874(2)
Fe9 Fe 0.77657(5) 0.33346(6) 0.31126(2)
O25 O 0.0197(3) 0.5293(3) 0.73357(11)
O26 O 0.1032(3) 0.8834(3) 0.65642(13)
O27 O 0.4528(3) 0.7208(3) 0.63711(14)
O28 O 0.3943(3) 0.4571(3) 0.72496(14)
O21 O 0.0978(3) 0.9714(3) 0.08964(11)
O7 O 0.8968(3) 0.1166(3) 0.34358(13)
Fe5 Fe 0.88628(5) 0.08491(6) 0.13900(2)
P1 P 0.94077(9) 0.94720(10) 0.30810(4)
H1 H 0.8312 0.8832 0.2985
O3 O 0.9022(3) 0.4714(3) 0.41036(11)
O5 O 0.8165(3) 0.3785(3) 0.51862(12)
C2 C 0.9170(4) 0.4547(4) 0.48000(16)
O12 O 0.9401(3) 0.3374(3) 0.13979(12)
O13 O 0.9803(3) 0.4707(3) 0.26643(11)
Fe7 Fe 0.88628(5) 0.41509(6) 0.63900(2)
O23 O 0.8165(3) 0.1215(3) 0.01862(12)
O24 O 0.6609(3) 0.1504(3) 0.20721(14)
O20 O 0.7220(3) 0.8704(3) 0.12434(14)
O18 O 0.3943(3) 0.0429(3) 0.22496(14)
C6 C 0.5401(4) 0.0403(4) 0.19901(16)
C2_2 C 0.0830(4) 0.9547(4) 0.02000(16)
O17 O 0.4528(3) 0.7792(3) 0.13711(14)
C5 C 0.5746(4) 0.8831(4) 0.14907(17)
O5_2 O 0.1835(3) 0.8785(3) 0.98138(12)
Fe7_2 Fe 0.11372(5) 0.91509(6) 0.86100(2)
C4_2 C 0.9170(4) 0.0453(4) 0.98000(16)
O10_2 O 0.9022(3) 0.0286(3) 0.91036(11)
Fe4_2 Fe 0.77657(5) 0.16654(6) 0.81126(2)
O25_2 O 0.9803(3) 0.0293(3) 0.76643(11)
O26_2 O 0.8968(3) 0.3834(3) 0.84358(13)
O27_2 O 0.5472(3) 0.2208(3) 0.86289(14)
O28_2 O 0.6057(3) 0.9571(3) 0.77504(14)
O20_2 O 0.2780(3) 0.1296(3) 0.87566(14)
P1_2 P 0.05923(9) 0.05280(10) 0.69190(4)
H1_2 H 0.1688 0.1168 0.7015
O12_2 O 0.0599(3) 0.6626(3) 0.86021(12)
O15 O 0.7220(3) 0.6296(3) 0.62434(14)
O16 O 0.6609(3) 0.3496(3) 0.70721(14)
C5_2 C 0.5746(4) 0.6169(4) 0.64907(17)
C6_2 C 0.5401(4) 0.4597(4) 0.69901(16)
O24_2 O 0.3391(3) 0.8496(3) 0.79279(14)
O1_2 O 0.9401(3) 0.1626(3) 0.63979(12)
P2_2 P 0.94077(9) 0.55280(10) 0.80810(4)
H2_2 H 0.8312 0.6168 0.7985
C1_2 C 0.4254(4) 0.1169(4) 0.85093(17)
C3_2 C 0.4599(4) 0.9597(4) 0.80099(16)
loop_
_geom_bond_atom_site_label_1
_geom_bond_atom_site_label_2
_geom_bond_site_symmetry_1
_geom_bond_site_symmetry_2
Fe1 O1 1_555 1_555
O2 Fe1 1_555 1_555
O6 Fe1 1_555 1_555
O8 C1 1_555 1_555
O9 C3 1_555 1_555
C1 O2 1_555 1_555
C3 O6 1_555 1_555
O10 C4 1_555 1_555
O11 Fe1 1_555 1_555
P2 H2 1_555 1_555
O14 P2 1_555 1_555
Fe4 O10 1_555 1_555
Fe6 O4 1_555 1_555
Fe9 O8 1_555 1_555
O25 Fe4 1_555 1_555
O26 Fe4 1_555 1_555
O27 Fe4 1_555 1_555
O28 Fe4 1_555 1_555
O9 Fe9 1_555 1_555
C1 C3 1_555 1_555
C4 O11 1_555 1_555
O14 Fe6 1_555 1_555
Fe9 O7 1_555 1_555
Fe9 O3 1_555 1_555
P1 H1 1_555 1_555
O5 C2 1_555 1_555
C2 O3 1_555 1_555
Fe5 O12 1_555 1_555
Fe7 O5 1_555 1_555
O23 Fe5 1_555 1_555
O24 Fe5 1_555 1_555
Fe9 O13 1_555 1_555
O24 C6 1_555 1_555
C6 O18 1_555 1_555
Fe6 O21 1_555 1_555
C2_2 O21 1_555 1_555
O20 C5 1_555 1_555
O17 Fe6 1_555 1_555
C5 O17 1_555 1_555
Fe7_2 O5_2 1_555 1_555
O10_2 C4_2 1_555 1_555
Fe4_2 O10_2 1_555 1_555
O25_2 Fe4_2 1_555 1_555
O26_2 Fe4_2 1_555 1_555
O27_2 Fe4_2 1_555 1_555
P1_2 H1_2 1_555 1_555
Fe7_2 O12_2 1_555 1_555
O15 C5_2 1_555 1_555
O16 C6_2 1_555 1_555
C5_2 O27 1_555 1_555
C6_2 O28 1_555 1_555
O24_2 Fe7_2 1_555 1_555
Fe7 O15 1_555 1_555
O16 Fe7 1_555 1_555
C5_2 C6_2 1_555 1_555
Fe7 O1_2 1_555 1_555
P2_2 H2_2 1_555 1_555
O26_2 P2_2 1_555 1_555
O27_2 C1_2 1_555 1_555
C1_2 O20_2 1_555 1_555
O28_2 C3_2 1_555 1_555
C3_2 O24_2 1_555 1_555

#END
