
###############################################################################
#
# This file contains modified crystal structure data generated from the
# MOF subset of the Cambridge Structural Database (CSD) v543 
# hosted by the Cambridge Crystallographic Data Centre (CCDC).
#
# This work is licensed under the Creative Commons
# Attribution-NonCommercial-ShareAlike 4.0 International License.
# To view a copy of this license, visit
# http://creativecommons.org/licenses/by-nc-sa/4.0/
# or send a letter to
# Creative Commons, PO Box 1866, Mountain View, CA 94042, USA.
#
# CIF created using the CSD Python API on 29 September 2022
# The structure has been converted into the P1 space group
# The structure has a 3D framework
# The original CSD entry JICJIR is in the triclinic crystal system
# The framework has been calculated to contain at least 10.0% void space
# The void calculation uses a probe of radius 1.32A, grid spacing 0.4
#
###############################################################################

data_JICJIR
_chemical_formula_moiety         '(C10 H8 O25 Tb4)n'
_symmetry_cell_setting           triclinic
_symmetry_space_group_name_H-M   'P 1'
_symmetry_Int_Tables_number      1
_space_group_name_Hall           'P 1'
loop_
_symmetry_equiv_pos_site_id
_symmetry_equiv_pos_as_xyz
1 x,y,z
_cell_length_a                   6.2723(8)
_cell_length_b                   8.6246(11)
_cell_length_c                   12.9484(14)
_cell_angle_alpha                105.348(10)
_cell_angle_beta                 90.404(9)
_cell_angle_gamma                105.058(11)
_cell_volume                     650.118
loop_
_atom_site_label
_atom_site_type_symbol
_atom_site_fract_x
_atom_site_fract_y
_atom_site_fract_z
_atom_site_U_iso_or_equiv
_atom_site_thermal_displace_type
C5 C 0.0941(17) 0.5815(15) 0.0215(9) 0.0240 Uani
O37 O 0.1420(12) 0.6309(10) 0.1207(6) 0.0257 Uani
O1 O 0.7005(9) 0.3313(8) 0.6621(5) 0.0096 Uani
Tb1 Tb 0.30922(7) 0.16653(6) 0.57501(4) 0.0107 Uani
O3 O 0.6609(10) 0.0674(9) 0.5750(5) 0.0094 Uani
O4 O 0.3392(11) 0.0398(9) 0.7222(5) 0.0154 Uani
O5 O 0.3284(10) 0.4716(8) 0.6028(5) 0.0088 Uani
O7 O 0.5213(10) 0.2974(8) 0.4444(5) 0.0088 Uani
Tb2 Tb 0.05796(7) 0.52809(6) 0.75763(4) 0.0117 Uani
C3 C 0.4460(13) 0.5506(11) 0.5460(7) 0.0029 Uani
O8 O 0.0575(10) 0.3430(8) 0.3747(5) 0.0103 Uani
O10 O 0.1848(12) 0.6503(10) 0.9529(6) 0.0256 Uani
O12 O 0.3565(11) 0.3995(10) 0.7947(6) 0.0187 Uani
H3 H 0.486(7) 0.465(10) 0.810(7) 0.0100 Uiso
H4 H 0.339(12) 0.342(10) 0.840(6) 0.0000 Uiso
C8 C 0.5540(13) 0.4494(11) 0.4540(7) 0.0029 Uani
Tb5 Tb 0.69078(7) 0.83347(6) 0.42499(4) 0.0107 Uani
O27 O 0.2636(10) 0.8158(9) 0.7833(5) 0.0122 Uani
O28 O 0.4787(10) 0.7026(8) 0.5556(5) 0.0088 Uani
O29 O 0.6716(10) 0.5284(8) 0.3972(5) 0.0088 Uani
Tb10 Tb 0.94204(7) 0.47191(6) 0.24237(4) 0.0117 Uani
C2 C 0.2315(14) 0.8940(12) 0.7195(7) 0.0070 Uani
O14 O 0.0044(10) 0.8852(8) 0.5668(5) 0.0117 Uani
O15 O 0.3391(10) 0.9326(9) 0.4250(5) 0.0094 Uani
C6 C 0.0414(14) 0.8038(12) 0.6282(7) 0.0062 Uani
C7 C 0.2159(14) 0.7940(11) 0.3683(7) 0.0055 Uani
O20 O 0.0132(10) 0.7689(8) 0.3407(5) 0.0122 Uani
O23 O 0.2995(9) 0.6687(8) 0.3379(5) 0.0096 Uani
O35 O 0.2288(13) 0.3297(10) 0.1629(7) 0.0243 Uani
H7 H 0.27(3) 0.300(16) 0.101(5) 0.1000 Uiso
H8 H 0.18(3) 0.238(9) 0.179(11) 0.0800 Uiso
O38 O 0.8152(12) 0.3497(10) 0.0471(6) 0.0256 Uani
O2 O 0.9956(10) 0.1148(8) 0.4332(5) 0.0117 Uani
O6 O 0.9868(10) 0.2311(8) 0.6593(5) 0.0122 Uani
C1 C 0.9586(14) 0.1962(12) 0.3718(7) 0.0062 Uani
C4 C 0.7841(14) 0.2060(11) 0.6317(7) 0.0055 Uani
O11 O 0.7712(13) 0.6703(10) 0.8371(7) 0.0243 Uani
O13 O 0.8580(12) 0.3691(10) 0.8793(6) 0.0257 Uani
H1 H 0.73(3) 0.700(16) 0.899(5) 0.1000 Uiso
H2 H 0.82(3) 0.762(9) 0.821(11) 0.0800 Uiso
C9 C 0.7685(14) 0.1060(12) 0.2805(7) 0.0070 Uani
O26 O 0.9425(10) 0.6570(8) 0.6253(5) 0.0103 Uani
O30 O 0.7364(10) 0.1842(9) 0.2167(5) 0.0122 Uani
C10 C 0.9059(17) 0.4185(15) 0.9785(9) 0.0240 Uani
O16 O 0.6608(11) 0.9602(9) 0.2778(5) 0.0154 Uani
O32 O 0.6435(11) 0.6005(10) 0.2053(6) 0.0187 Uani
H5 H 0.661(12) 0.658(10) 0.160(6) 0.0000 Uiso
H6 H 0.514(7) 0.535(10) 0.190(7) 0.0100 Uiso
loop_
_atom_site_aniso_label
_atom_site_aniso_U_11
_atom_site_aniso_U_22
_atom_site_aniso_U_33
_atom_site_aniso_U_23
_atom_site_aniso_U_13
_atom_site_aniso_U_12
C5 0.024 0.024 0.024 0.0069 0.0016 0.006
O37 0.026 0.026 0.024 0.0075 0.002 0.0045
O1 0.0091 0.0095 0.0102 0.0019 0.0006 0.0034
Tb1 0.0096 0.0075 0.0151 0.0026 0.00225 0.00276
O3 0.0091 0.0092 0.0093 0.0011 0.0011 0.0029
O4 0.015 0.007 0.018 0.002 -0.009 -0.006
O5 0.015 0.007 0.007 0.004 0.008 0.005
O7 0.0094 0.0083 0.0092 0.0031 0.002 0.0024
Tb2 0.0138 0.0094 0.0109 0.0022 0.00238 0.0019
C3 0.0027 0.003 0.0033 0.0009 0.0002 0.0012
O8 0.0107 0.0095 0.0108 0.0026 -0.0002 0.0029
O10 0.031 0.018 0.017 0.006 0 -0.013
O12 0.009 0.02 0.024 0.002 -0.005 0.003
C8 0.0027 0.003 0.0033 0.0009 0.0002 0.0012
Tb5 0.0096 0.0075 0.0151 0.0026 0.00225 0.00276
O27 0.0122 0.0122 0.0116 0.0035 0 0.002
O28 0.0094 0.0083 0.0092 0.0031 0.002 0.0024
O29 0.015 0.007 0.007 0.004 0.008 0.005
Tb10 0.0138 0.0094 0.0109 0.0022 0.00238 0.0019
C2 0.007 0.007 0.007 0.0018 0.0014 0.002
O14 0.0119 0.0114 0.0122 0.003 0.0005 0.0041
O15 0.0091 0.0092 0.0093 0.0011 0.0011 0.0029
C6 0.0064 0.0062 0.006 0.0016 0.0002 0.0019
C7 0.0052 0.0057 0.0054 0.0014 0.0012 0.0014
O20 0.008 0.01 0.014 -0.004 0.003 0.002
O23 0.0091 0.0095 0.0102 0.0019 0.0006 0.0034
O35 0.014 0.022 0.032 -0.001 0.007 0.005
O38 0.031 0.018 0.017 0.006 0 -0.013
O2 0.0119 0.0114 0.0122 0.003 0.0005 0.0041
O6 0.008 0.01 0.014 -0.004 0.003 0.002
C1 0.0064 0.0062 0.006 0.0016 0.0002 0.0019
C4 0.0052 0.0057 0.0054 0.0014 0.0012 0.0014
O11 0.014 0.022 0.032 -0.001 0.007 0.005
O13 0.026 0.026 0.024 0.0075 0.002 0.0045
C9 0.007 0.007 0.007 0.0018 0.0014 0.002
O26 0.0107 0.0095 0.0108 0.0026 -0.0002 0.0029
O30 0.0122 0.0122 0.0116 0.0035 0 0.002
C10 0.024 0.024 0.024 0.0069 0.0016 0.006
O16 0.015 0.007 0.018 0.002 -0.009 -0.006
O32 0.009 0.02 0.024 0.002 -0.005 0.003
loop_
_geom_bond_atom_site_label_1
_geom_bond_atom_site_label_2
_geom_bond_site_symmetry_1
_geom_bond_site_symmetry_2
O37 C5 1_555 1_555
O1 Tb1 1_555 1_555
O3 Tb1 1_555 1_555
O4 Tb1 1_555 1_555
O5 Tb1 1_555 1_555
O7 Tb1 1_555 1_555
Tb2 O5 1_555 1_555
C3 O5 1_555 1_555
O10 Tb2 1_555 1_555
O12 Tb2 1_555 1_555
H3 O12 1_555 1_555
H4 O12 1_555 1_555
C8 O7 1_555 1_555
Tb5 O28 1_555 1_555
O27 Tb2 1_555 1_555
O28 C3 1_555 1_555
O29 C8 1_555 1_555
Tb10 O29 1_555 1_555
C3 C8 1_555 1_555
Tb5 O29 1_555 1_555
O27 C2 1_555 1_555
C6 C2 1_555 1_555
C7 O15 1_555 1_555
O23 Tb5 1_555 1_555
H7 O35 1_555 1_555
H8 O35 1_555 1_555
O14 C6 1_555 1_555
O15 Tb5 1_555 1_555
C7 O20 1_555 1_555
C7 O23 1_555 1_555
O38 Tb10 1_555 1_555
O2 C1 1_555 1_555
C4 O6 1_555 1_555
H1 O11 1_555 1_555
H2 O11 1_555 1_555
C9 C1 1_555 1_555
O3 C4 1_555 1_555
Tb10 O30 1_555 1_555
O30 C9 1_555 1_555
C10 O13 1_555 1_555
C4 O1 1_555 1_555
O16 Tb5 1_555 1_555
O32 Tb10 1_555 1_555
H5 O32 1_555 1_555
H6 O32 1_555 1_555

#END
