
###############################################################################
#
# This file contains modified crystal structure data generated from the
# MOF subset of the Cambridge Structural Database (CSD) v543 
# hosted by the Cambridge Crystallographic Data Centre (CCDC).
#
# This work is licensed under the Creative Commons
# Attribution-NonCommercial-ShareAlike 4.0 International License.
# To view a copy of this license, visit
# http://creativecommons.org/licenses/by-nc-sa/4.0/
# or send a letter to
# Creative Commons, PO Box 1866, Mountain View, CA 94042, USA.
#
# CIF created using the CSD Python API on 29 September 2022
# The structure has been converted into the P1 space group
# The structure has a 3D framework
# The original CSD entry JIDBAC is in the monoclinic crystal system
# The framework has been calculated to contain at least 10.0% void space
# The void calculation uses a probe of radius 1.32A, grid spacing 0.4
# The framework is charged, counterions have been retained in the structure
# H atom positions have been added when not included in the experimental data
#
###############################################################################

data_JIDBAC
_chemical_formula_moiety         '(C316 H340 Gd32 O198 28-)n'
_symmetry_cell_setting           triclinic
_symmetry_space_group_name_H-M   'P 1'
_symmetry_Int_Tables_number      1
_space_group_name_Hall           'P 1'
loop_
_symmetry_equiv_pos_site_id
_symmetry_equiv_pos_as_xyz
1 x,y,z
_cell_length_a                   21.1898(3)
_cell_length_b                   21.7439(3)
_cell_length_c                   29.3712(4)
_cell_angle_alpha                90
_cell_angle_beta                 96.0910(10)
_cell_angle_gamma                90
_cell_volume                     13456.4
loop_
_atom_site_label
_atom_site_type_symbol
_atom_site_fract_x
_atom_site_fract_y
_atom_site_fract_z
O27 O 0.3271(5) 0.0235(4) 0.6532(3)
O28 O 0.3696(6) 0.0748(6) 0.5059(4)
O30 O 0.5671(4) 0.0031(4) 0.3966(3)
O31 O 0.4029(6) 0.0387(6) 0.4141(4)
C9 C 0.0605(8) 0.0470(6) 0.5624(7)
H5 H 0.089217 0.055194 0.590133
H6 H 0.020190 0.068451 0.564344
H7 H 0.079846 0.061691 0.535560
H9 H 0.207167 0.011831 0.396555
C17 C 0.1111(7) 0.0266(7) 0.3959(6)
H10 H 0.102577 0.031194 0.362223
H11 H 0.074384 0.005426 0.407029
C18 C 0.1189(9) 0.0894(8) 0.4177(8)
H12 H 0.126164 0.084844 0.451083
H13 H 0.080445 0.113692 0.409676
H14 H 0.155333 0.110300 0.406671
C77 C 0.3966(8) 0.0370(9) 0.3712(5)
H61 H 0.393287 0.075341 0.355641
Gd10 Gd 0.64817(3) 0.07072(3) 0.38170(2)
Gd11 Gd 0.59307(3) 0.02647(4) 0.52016(2)
O51 O 0.4821(3) 0.0139(4) 0.5411(2)
H66 H 0.381342 0.0790831 0.539387
H67 H 0.389795 0.108287 0.489598
H76 H 0.295442 0.0159443 0.675189
H77 H 0.366262 0.0411567 0.669722
Gd1 Gd 0.24688(4) 0.79009(3) 0.67127(2)
Gd2 Gd 0.35183(3) 0.92928(3) 0.61830(2)
Gd3 Gd 0.40693(3) 0.97353(4) 0.47984(2)
Gd4 Gd 0.36884(3) 0.88176(4) 0.34419(2)
Gd5 Gd 0.26869(3) 0.72086(4) 0.29880(2)
Gd6 Gd 0.15842(4) 0.57938(3) 0.35741(2)
Gd7 Gd 0.10922(4) 0.54202(3) 0.48792(2)
Gd8 Gd 0.13971(4) 0.62201(3) 0.61987(2)
O1 O 0.0714(4) 0.6803(3) 0.5710(3)
O2 O 0.1638(4) 0.7328(3) 0.6277(3)
O3 O 0.1817(4) 0.8557(3) 0.6280(3)
O4 O 0.2430(4) 0.9344(3) 0.5957(3)
O5 O 0.3328(4) 0.9500(4) 0.5372(2)
O6 O 0.3013(3) 0.9761(4) 0.4482(2)
O7 O 0.2804(4) 0.9300(4) 0.3726(3)
O8 O 0.2766(4) 0.8184(4) 0.3356(2)
O9 O 0.1698(4) 0.7548(4) 0.3177(2)
O10 O 0.1079(4) 0.6770(4) 0.3504(3)
O11 O 0.1160(4) 0.6080(4) 0.4249(2)
O12 O 0.0515(4) 0.6328(4) 0.4959(3)
O13 O 0.3070(4) 0.7089(4) 0.6498(3)
O14 O 0.3256(4) 0.8251(4) 0.6270(2)
O15 O 0.4275(4) 0.8639(4) 0.5893(2)
O16 O 0.4571(4) 0.8875(4) 0.5139(3)
O17 O 0.4094(3) 0.8890(4) 0.4250(2)
O18 O 0.4195(4) 0.7911(4) 0.3703(3)
O19 O 0.3622(4) 0.7000(4) 0.3444(3)
O20 O 0.2515(4) 0.6405(3) 0.3512(3)
O21 O 0.2458(4) 0.5454(4) 0.4078(3)
O22 O 0.2173(5) 0.5203(4) 0.4824(3)
O23 O 0.1762(4) 0.5808(4) 0.5521(3)
O24 O 0.2521(5) 0.6164(4) 0.6258(3)
O25 O 0.2893(5) 0.8962(4) 0.6905(3)
O26 O 0.4280(6) 0.9125(5) 0.6852(3)
O29 O 0.5179(3) 0.9861(4) 0.4589(2)
O32 O 0.3943(6) 0.9891(6) 0.3466(5)
O33 O 0.4679(5) 0.8954(5) 0.3156(4)
O34 O 0.3254(6) 0.9279(6) 0.2735(4)
O35 O 0.3656(4) 0.7978(4) 0.2820(3)
O36 O 0.3358(6) 0.7208(5) 0.2340(4)
O37 O 0.2278(4) 0.7851(4) 0.2291(3)
O38 O 0.1785(6) 0.8675(5) 0.1980(3)
O39 O 0.3065(6) 0.6110(6) 0.2673(4)
O40 O 0.1970(5) 0.6748(4) 0.2358(3)
O41 O 0.1496(6) 0.6058(5) 0.2777(3)
O42 O 0.1893(7) 0.4920(5) 0.3169(4)
O43 O 0.0548(6) 0.5485(7) 0.3241(4)
O44 O 0.1288(5) 0.4906(4) 0.4101(3)
O45 O 0.1251(9) 0.3915(7) 0.4292(6)
O46 O 0.1000(6) 0.4353(5) 0.5089(4)
O47 O 0.0088(5) 0.5172(4) 0.4523(3)
O49 O 0.1551(5) 0.5179(4) 0.6471(3)
O50 O 0.0476(7) 0.6207(6) 0.6573(4)
C1 C 0.0761(5) 0.7440(5) 0.5691(4)
C2 C 0.1241(6) 0.7692(5) 0.5982(4)
C3 C 0.1333(6) 0.8338(5) 0.5980(4)
C4 C 0.0950(5) 0.8704(5) 0.5684(4)
C5 C 0.0462(5) 0.8423(5) 0.5394(4)
H1 H 0.019757 0.867450 0.518974
C6 C 0.0352(5) 0.7790(5) 0.5396(4)
C7 C 0.1079(6) 0.9396(5) 0.5668(4)
H2 H 0.127152 0.951166 0.598169
C8 C 0.0483(7) 0.9773(6) 0.5580(6)
H3 H 0.018266 0.965004 0.579933
H4 H 0.028018 0.968360 0.526728
C10 C 0.1593(5) 0.9521(5) 0.5346(4)
C11 C 0.2229(5) 0.9486(5) 0.5501(4)
C12 C 0.2710(5) 0.9564(5) 0.5216(4)
C13 C 0.2525(5) 0.9700(5) 0.4754(4)
C14 C 0.1892(5) 0.9756(5) 0.4584(4)
C15 C 0.1429(6) 0.9663(5) 0.4883(5)
H8 H 0.099319 0.969609 0.476959
C16 C 0.1713(5) 0.9880(6) 0.4074(4)
C19 C 0.1676(5) 0.9266(5) 0.3808(4)
C20 C 0.2235(5) 0.9023(6) 0.3680(4)
C21 C 0.2229(5) 0.8434(6) 0.3473(4)
C22 C 0.1667(5) 0.8112(6) 0.3398(3)
C23 C 0.1092(5) 0.8357(6) 0.3527(4)
C24 C 0.1115(5) 0.8925(6) 0.3733(4)
H15 H 0.073644 0.909157 0.382889
C25 C 0.0479(6) 0.7982(6) 0.3460(4)
H16 H 0.051181 0.772091 0.318363
C28 C 0.0447(5) 0.7537(6) 0.3859(4)
C29 C 0.0772(5) 0.6976(5) 0.3867(3)
C30 C 0.0801(6) 0.6605(6) 0.4238(4)
C31 C 0.0475(5) 0.6751(5) 0.4610(4)
C32 C 0.0141(5) 0.7307(5) 0.4618(4)
C33 C 0.0151(5) 0.7681(5) 0.4246(4)
C37 C 0.4040(7) 0.6771(6) 0.6172(4)
C38 C 0.3600(7) 0.7204(6) 0.6285(4)
C39 C 0.3686(6) 0.7835(5) 0.6171(4)
C40 C 0.4227(6) 0.8021(6) 0.5970(4)
C41 C 0.4662(6) 0.7586(6) 0.5846(4)
C42 C 0.4555(7) 0.6968(7) 0.5962(4)
H29 H 0.485638 0.666862 0.589088
C43 C 0.5191(6) 0.7808(8) 0.5584(4)
H30 H 0.527834 0.824168 0.568505
C44 C 0.5814(8) 0.7459(9) 0.5699(6)
H31 H 0.574068 0.701418 0.564333
H32 H 0.612857 0.760131 0.549648
C45 C 0.6074(8) 0.7558(12) 0.6194(6)
H33 H 0.599562 0.798326 0.628208
H34 H 0.653174 0.747750 0.622950
H35 H 0.586338 0.727627 0.639000
C46 C 0.4950(6) 0.7844(7) 0.5065(4)
C47 C 0.4658(6) 0.8360(7) 0.4889(4)
C48 C 0.4410(6) 0.8377(6) 0.4426(4)
C49 C 0.4470(5) 0.7850(7) 0.4149(4)
C50 C 0.4775(6) 0.7324(7) 0.4333(5)
C51 C 0.5009(6) 0.7319(7) 0.4784(4)
H36 H 0.521255 0.695964 0.491224
C52 C 0.4777(7) 0.6762(8) 0.4031(5)
H37 H 0.477778 0.691858 0.371030
C53 C 0.5408(10) 0.6426(9) 0.4144(7)
H38 H 0.575881 0.671774 0.411050
H39 H 0.544161 0.629376 0.446792
C54 C 0.5489(14) 0.5885(11) 0.3855(9)
H40 H 0.585047 0.564105 0.399040
H41 H 0.556756 0.601946 0.354778
H42 H 0.510340 0.563323 0.383511
C55 C 0.4176(6) 0.6388(6) 0.4037(4)
C56 C 0.3634(6) 0.6531(6) 0.3759(4)
C57 C 0.3054(6) 0.6231(6) 0.3775(4)
C58 C 0.3037(6) 0.5738(6) 0.4087(4)
C59 C 0.3577(7) 0.5566(6) 0.4383(4)
C60 C 0.4123(6) 0.5892(6) 0.4357(4)
H43 H 0.448610 0.578707 0.455961
C61 C 0.3499(7) 0.5058(6) 0.4719(5)
H44 H 0.316607 0.477235 0.457425
C62 C 0.4095(8) 0.4675(8) 0.4853(6)
H45 H 0.443486 0.494521 0.499776
H46 H 0.400172 0.436042 0.508034
C63 C 0.4316(14) 0.4370(14) 0.4453(10)
H47 H 0.396623 0.413629 0.429072
H48 H 0.466584 0.409048 0.455366
H49 H 0.446417 0.468091 0.424687
C64 C 0.3255(6) 0.5317(6) 0.5157(4)
C65 C 0.2622(8) 0.5413(6) 0.5168(4)
C66 C 0.2378(7) 0.5701(6) 0.5534(4)
C67 C 0.2798(7) 0.5905(7) 0.5907(5)
C68 C 0.3452(7) 0.5830(6) 0.5903(4)
C69 C 0.3673(7) 0.5562(7) 0.5532(5)
H50 H 0.411879 0.553673 0.551989
C70 C 0.3896(7) 0.6101(7) 0.6296(5)
H51 H 0.364884 0.611959 0.656765
C71 C 0.4473(9) 0.5720(9) 0.6436(7)
H52 H 0.475693 0.573235 0.619009
H53 H 0.434172 0.528752 0.647382
C72 C 0.4839(13) 0.5942(12) 0.6884(7)
H54 H 0.503359 0.558830 0.705183
H55 H 0.454691 0.614811 0.707137
H56 H 0.517107 0.623018 0.681469
C74 C 0.1355(10) 0.4352(7) 0.4030(6)
H58 H 0.150255 0.424311 0.374670
C75 C 0.1562(8) 0.6313(7) 0.2427(5)
H59 H 0.128725 0.618719 0.216751
C76 C 0.2008(8) 0.8364(7) 0.2298(4)
H60 H 0.197365 0.852998 0.259356
C78 C 0.5284(5) 0.9747(6) 0.4170(4)
H62 H 0.504969 0.942625 0.401191
C79 C 0.3749(8) 0.7723(7) 0.2466(5)
H63 H 0.406562 0.785988 0.228373
Gd9 Gd 0.24688(4) 0.70991(3) 0.17127(2)
Gd14 Gd 0.13971(4) 0.87799(3) 0.11987(2)
O52 O 0.4329(4) 0.9969(4) 0.6034(3)
O53 O 0.3358(6) 0.7792(5) 0.7340(4)
O54 O 0.2278(4) 0.7149(4) 0.7291(3)
O55 O 0.1785(6) 0.6325(5) 0.6980(3)
O56 O 0.1970(5) 0.8252(4) 0.7358(3)
O57 O 0.0661(5) 0.5508(4) 0.5648(3)
H64 H 0.421141 0.871144 0.698145
H65 H 0.471761 0.915127 0.676151
H68 H 0.0124075 0.601838 0.63698
H69 H 0.0553219 0.596259 0.685908
H70 H 0.497562 0.916502 0.338994
H71 H 0.485594 0.854668 0.308432
H72 H 0.218828 0.504815 0.294578
H73 H 0.210875 0.46202 0.338822
H74 H 0.136955 0.412026 0.499756
H75 H 0.0990068 0.432044 0.542539
H78 H 0.325532 0.585776 0.293413
H79 H 0.269304 0.589092 0.251493
H80 H 0.160098 0.490212 0.620837
H81 H 0.193818 0.515831 0.669278
H82 H 0.0451418 0.568714 0.293847
H83 H 0.0537783 0.503154 0.320082
H84 H 0.324086 0.973261 0.277195
H85 H 0.35241 0.917368 0.248982
O48 O 0.9339(5) 0.4492(4) 0.4352(3)
C26 C 0.9876(6) 0.8367(7) 0.3354(6)
H17 H 0.982946 0.864334 0.361671
H18 H 0.992255 0.862765 0.308362
C27 C 0.9274(9) 0.7979(9) 0.3261(9)
H19 H 0.932424 0.768987 0.301146
H20 H 0.891081 0.824861 0.317428
H21 H 0.920182 0.774920 0.353804
H22 H 0.993995 0.806643 0.425100
C34 C 0.9849(5) 0.7486(5) 0.5064(4)
H23 H 0.973217 0.709244 0.521084
C35 C 0.9256(6) 0.7853(6) 0.4983(5)
H24 H 0.934932 0.823818 0.482250
H25 H 0.911368 0.796780 0.528159
C36 C 0.8700(9) 0.7506(9) 0.4691(8)
H26 H 0.879651 0.747421 0.437275
H27 H 0.830352 0.773493 0.470181
H28 H 0.865415 0.709296 0.481659
C73 C 0.9824(7) 0.4791(6) 0.4250(5)
H57 H 0.998370 0.472185 0.396444
Gd12 Gd 0.89078(4) 0.45798(3) 0.51208(2)
Gd13 Gd 0.86029(4) 0.37799(3) 0.38013(2)
O48_2 O 0.0661(5) 0.9492(4) 0.0648(3)
C73_2 C 0.0176(7) 0.9791(6) 0.0750(5)
H57_2 H 0.001630 0.972185 0.103556
Gd12_2 Gd 0.10922(4) 0.95798(3) 0.98792(2)
Gd3_2 Gd 0.59307(3) 0.47353(4) 0.02016(2)
Gd4_2 Gd 0.63116(3) 0.38176(4) 0.15581(2)
Gd5_2 Gd 0.73131(3) 0.22086(4) 0.20120(2)
Gd6_2 Gd 0.84158(4) 0.07938(3) 0.14259(2)
Gd7_2 Gd 0.89078(4) 0.04202(3) 0.01208(2)
O6_2 O 0.6987(3) 0.4761(4) 0.0518(2)
O7_2 O 0.7196(4) 0.4300(4) 0.1274(3)
O8_2 O 0.7234(4) 0.3184(4) 0.1644(2)
O9_2 O 0.8302(4) 0.2548(4) 0.1823(2)
O10_2 O 0.8921(4) 0.1770(4) 0.1496(3)
O11_2 O 0.8840(4) 0.1080(4) 0.0751(2)
O12_2 O 0.9485(4) 0.1328(4) 0.0041(3)
O17_2 O 0.5906(3) 0.3890(4) 0.0750(2)
O18_2 O 0.5805(4) 0.2911(4) 0.1297(3)
O19_2 O 0.6378(4) 0.2000(4) 0.1556(3)
O20_2 O 0.7485(4) 0.1405(3) 0.1488(3)
O21_2 O 0.7542(4) 0.0454(4) 0.0922(3)
O22_2 O 0.7827(5) 0.0203(4) 0.0176(3)
O29_2 O 0.4821(3) 0.4861(4) 0.0411(2)
O30_2 O 0.4329(4) 0.5031(4) 0.1034(3)
O31_2 O 0.5971(6) 0.5387(6) 0.0859(4)
O32_2 O 0.6057(6) 0.4891(6) 0.1534(5)
O33_2 O 0.5321(5) 0.3954(5) 0.1844(4)
O34_2 O 0.6746(6) 0.4279(6) 0.2265(4)
O35_2 O 0.6344(4) 0.2978(4) 0.2180(3)
O36_2 O 0.6642(6) 0.2208(5) 0.2660(4)
O37_2 O 0.7722(4) 0.2851(4) 0.2709(3)
O38_2 O 0.8215(6) 0.3675(5) 0.3020(3)
O39_2 O 0.6935(6) 0.1110(6) 0.2327(4)
O40_2 O 0.8030(5) 0.1748(4) 0.2642(3)
O41_2 O 0.8504(6) 0.1058(5) 0.2223(3)
O43_2 O 0.9452(6) 0.0485(7) 0.1759(4)
O47_2 O 0.9912(5) 0.0172(4) 0.0477(3)
C13_2 C 0.7475(5) 0.4700(5) 0.0246(4)
C14_2 C 0.8108(5) 0.4756(5) 0.0416(4)
C15_2 C 0.8571(6) 0.4663(5) 0.0117(5)
H8_2 H 0.900681 0.469609 0.023041
C16_2 C 0.8287(5) 0.4880(6) 0.0926(4)
H9_2 H 0.792833 0.511831 0.103445
C17_2 C 0.8889(7) 0.5266(7) 0.1041(6)
H10_2 H 0.897423 0.531194 0.137777
H11_2 H 0.925616 0.505426 0.092971
C18_2 C 0.8811(9) 0.5894(8) 0.0823(8)
H12_2 H 0.873836 0.584844 0.048917
H13_2 H 0.919555 0.613692 0.090324
H14_2 H 0.844667 0.610300 0.093329
C19_2 C 0.8324(5) 0.4266(5) 0.1192(4)
C20_2 C 0.7765(5) 0.4023(6) 0.1320(4)
C21_2 C 0.7771(5) 0.3434(6) 0.1527(4)
C22_2 C 0.8333(5) 0.3112(6) 0.1602(3)
C23_2 C 0.8908(5) 0.3357(6) 0.1473(4)
C24_2 C 0.8885(5) 0.3925(6) 0.1267(4)
H15_2 H 0.926356 0.409157 0.117111
C25_2 C 0.9521(6) 0.2982(6) 0.1540(4)
H16_2 H 0.948819 0.272091 0.181637
C28_2 C 0.9553(5) 0.2537(6) 0.1141(4)
C29_2 C 0.9228(5) 0.1976(5) 0.1133(3)
C30_2 C 0.9199(6) 0.1605(6) 0.0762(4)
C31_2 C 0.9525(5) 0.1751(5) 0.0390(4)
C32_2 C 0.9859(5) 0.2307(5) 0.0382(4)
C33_2 C 0.9849(5) 0.2681(5) 0.0754(4)
C47_2 C 0.5342(6) 0.3360(7) 0.0111(4)
C48_2 C 0.5590(6) 0.3377(6) 0.0574(4)
C49_2 C 0.5530(5) 0.2850(7) 0.0851(4)
C50_2 C 0.5225(6) 0.2324(7) 0.0667(5)
C51_2 C 0.4991(6) 0.2319(7) 0.0216(4)
H36_2 H 0.478745 0.195964 0.008776
C52_2 C 0.5223(7) 0.1762(8) 0.0969(5)
H37_2 H 0.522222 0.191858 0.128970
C53_2 C 0.4592(10) 0.1426(9) 0.0856(7)
H38_2 H 0.424119 0.171774 0.088950
H39_2 H 0.455839 0.129376 0.053208
C54_2 C 0.4511(14) 0.0885(11) 0.1145(9)
H40_2 H 0.414953 0.064105 0.100960
H41_2 H 0.443244 0.101946 0.145222
H42_2 H 0.489660 0.063323 0.116489
C55_2 C 0.5824(6) 0.1388(6) 0.0963(4)
C56_2 C 0.6366(6) 0.1531(6) 0.1241(4)
C57_2 C 0.6946(6) 0.1231(6) 0.1225(4)
C58_2 C 0.6963(6) 0.0738(6) 0.0913(4)
C59_2 C 0.6423(7) 0.0566(6) 0.0617(4)
C60_2 C 0.5877(6) 0.0892(6) 0.0643(4)
H43_2 H 0.551390 0.078707 0.044039
C61_2 C 0.6501(7) 0.0058(6) 0.0281(5)
C75_2 C 0.8438(8) 0.1313(7) 0.2573(5)
H59_2 H 0.871275 0.118719 0.283249
C76_2 C 0.7992(8) 0.3364(7) 0.2702(4)
H60_2 H 0.802635 0.352998 0.240644
C77_2 C 0.6034(8) 0.5370(9) 0.1288(5)
H61_2 H 0.606713 0.575341 0.144359
C78_2 C 0.4716(5) 0.4747(6) 0.0830(4)
H62_2 H 0.495031 0.442625 0.098809
C79_2 C 0.6251(8) 0.2723(7) 0.2534(5)
H63_2 H 0.593438 0.285988 0.271627
Gd9_2 Gd 0.75312(4) 0.20991(3) 0.32873(2)
Gd10_2 Gd 0.35183(3) 0.57072(3) 0.11830(2)
H67_2 H 0.610205 0.608287 0.0104023
H70_2 H 0.502438 0.416502 0.161006
H71_2 H 0.514406 0.354668 0.191568
H72_2 H 0.781172 0.00481461 0.205422
H78_2 H 0.674468 0.0857763 0.206587
H79_2 H 0.730696 0.0890925 0.248507
H82_2 H 0.954858 0.0687141 0.206153
H83_2 H 0.946222 0.003154 0.179918
H84_2 H 0.675914 0.473261 0.222805
H85_2 H 0.64759 0.417368 0.251018
Gd1_2 Gd 0.75312(4) 0.29009(3) 0.82873(2)
Gd2_2 Gd 0.64817(3) 0.42928(3) 0.88170(2)
Gd8_2 Gd 0.86029(4) 0.12201(3) 0.88013(2)
O1_2 O 0.9286(4) 0.1803(3) 0.9290(3)
O2_2 O 0.8362(4) 0.2328(3) 0.8723(3)
O3_2 O 0.8183(4) 0.3557(3) 0.8720(3)
O4_2 O 0.7570(4) 0.4344(3) 0.9043(3)
O5_2 O 0.6672(4) 0.4500(4) 0.9628(2)
O13_2 O 0.6930(4) 0.2089(4) 0.8502(3)
O14_2 O 0.6744(4) 0.3251(4) 0.8730(2)
O15_2 O 0.5725(4) 0.3639(4) 0.9107(2)
O16_2 O 0.5429(4) 0.3875(4) 0.9861(3)
O23_2 O 0.8238(4) 0.0808(4) 0.9479(3)
O24_2 O 0.7479(5) 0.1164(4) 0.8742(3)
O25_2 O 0.7107(5) 0.3962(4) 0.8095(3)
O26_2 O 0.5720(6) 0.4125(5) 0.8148(3)
O27_2 O 0.6729(5) 0.5235(4) 0.8468(3)
O28_2 O 0.6304(6) 0.5748(6) 0.9941(4)
O49_2 O 0.8449(5) 0.0179(4) 0.8529(3)
O50_2 O 0.9524(7) 0.1207(6) 0.8427(4)
C1_2 C 0.9239(5) 0.2440(5) 0.9309(4)
C2_2 C 0.8759(6) 0.2692(5) 0.9018(4)
C3_2 C 0.8667(6) 0.3338(5) 0.9020(4)
C4_2 C 0.9050(5) 0.3704(5) 0.9316(4)
C5_2 C 0.9538(5) 0.3423(5) 0.9606(4)
H1_2 H 0.980243 0.367450 0.981026
C6_2 C 0.9648(5) 0.2790(5) 0.9604(4)
C7_2 C 0.8921(6) 0.4396(5) 0.9332(4)
H2_2 H 0.872848 0.451166 0.901831
C8_2 C 0.9517(7) 0.4773(6) 0.9420(6)
H3_2 H 0.981734 0.465004 0.920067
H4_2 H 0.971982 0.468360 0.973272
C9_2 C 0.9395(8) 0.5470(6) 0.9376(7)
H5_2 H 0.910783 0.555194 0.909867
H6_2 H 0.979810 0.568451 0.935656
H7_2 H 0.920154 0.561691 0.964440
C10_2 C 0.8407(5) 0.4521(5) 0.9654(4)
C11_2 C 0.7771(5) 0.4486(5) 0.9499(4)
C12_2 C 0.7290(5) 0.4564(5) 0.9784(4)
C37_2 C 0.5960(7) 0.1771(6) 0.8828(4)
C38_2 C 0.6400(7) 0.2204(6) 0.8715(4)
C39_2 C 0.6314(6) 0.2835(5) 0.8829(4)
C40_2 C 0.5773(6) 0.3021(6) 0.9030(4)
C41_2 C 0.5338(6) 0.2586(6) 0.9154(4)
C42_2 C 0.5445(7) 0.1968(7) 0.9038(4)
H29_2 H 0.514362 0.166862 0.910912
C43_2 C 0.4809(6) 0.2808(8) 0.9416(4)
H30_2 H 0.472166 0.324168 0.931495
C44_2 C 0.4186(8) 0.2459(9) 0.9301(6)
H31_2 H 0.425932 0.201418 0.935667
H32_2 H 0.387143 0.260131 0.950352
C45_2 C 0.3926(8) 0.2558(12) 0.8806(6)
H33_2 H 0.400438 0.298326 0.871792
H34_2 H 0.346826 0.247750 0.877050
H35_2 H 0.413662 0.227627 0.861000
C46_2 C 0.5050(6) 0.2844(7) 0.9935(4)
C64_2 C 0.6745(6) 0.0317(6) 0.9843(4)
C65_2 C 0.7378(8) 0.0413(6) 0.9832(4)
C66_2 C 0.7622(7) 0.0701(6) 0.9466(4)
C67_2 C 0.7202(7) 0.0905(7) 0.9093(5)
C68_2 C 0.6548(7) 0.0830(6) 0.9097(4)
C69_2 C 0.6327(7) 0.0562(7) 0.9468(5)
H50_2 H 0.588121 0.053673 0.948011
C70_2 C 0.6104(7) 0.1101(7) 0.8704(5)
H51_2 H 0.635116 0.111959 0.843235
C71_2 C 0.5527(9) 0.0720(9) 0.8564(7)
H52_2 H 0.524307 0.073235 0.880991
H53_2 H 0.565828 0.028752 0.852618
C72_2 C 0.5161(13) 0.0942(12) 0.8116(7)
H54_2 H 0.496641 0.058830 0.794817
H55_2 H 0.545309 0.114811 0.792863
H56_2 H 0.482893 0.123018 0.818531
Gd11_2 Gd 0.40693(3) 0.52647(4) 0.97984(2)
O51_2 O 0.5179(3) 0.5139(4) 0.9589(2)
O52_2 O 0.5671(4) 0.4969(4) 0.8966(3)
O53_2 O 0.6642(6) 0.2792(5) 0.7660(4)
O54_2 O 0.7722(4) 0.2149(4) 0.7709(3)
O55_2 O 0.8215(6) 0.1325(5) 0.8020(3)
O56_2 O 0.8030(5) 0.3252(4) 0.7642(3)
O57_2 O 0.9339(5) 0.0508(4) 0.9352(3)
H64_2 H 0.578859 0.371144 0.801855
H65_2 H 0.528239 0.415127 0.823849
H66_2 H 0.618658 0.579083 0.960613
H68_2 H 0.987592 0.101838 0.86302
H69_2 H 0.944678 0.0962589 0.814092
H76_2 H 0.704558 0.515944 0.824811
H77_2 H 0.633738 0.541157 0.830278
H81_2 H 0.806182 0.0158312 0.830722
C26_2 C 0.0124(6) 0.1633(7) 0.6646(6)
H17_2 H 0.017054 0.135666 0.638329
H18_2 H 0.007745 0.137235 0.691638
C27_2 C 0.0726(9) 0.2021(9) 0.6739(9)
H19_2 H 0.067576 0.231013 0.698854
H20_2 H 0.108919 0.175139 0.682572
H21_2 H 0.079818 0.225080 0.646196
H22_2 H 0.006005 0.193357 0.574900
C34_2 C 0.0151(5) 0.2514(5) 0.4936(4)
H23_2 H 0.026783 0.290756 0.478916
C35_2 C 0.0744(6) 0.2147(6) 0.5017(5)
H24_2 H 0.065068 0.176182 0.517750
H25_2 H 0.088632 0.203220 0.471841
C36_2 C 0.1300(9) 0.2494(9) 0.5309(8)
H26_2 H 0.120349 0.252579 0.562725
H27_2 H 0.169648 0.226507 0.529819
H28_2 H 0.134585 0.290704 0.518341
C73_3 C 0.0176(7) 0.5209(6) 0.5750(5)
H57_3 H 0.001630 0.527815 0.603556
Gd4_3 Gd 0.63116(3) 0.11824(4) 0.65581(2)
Gd5_3 Gd 0.73131(3) 0.27914(4) 0.70120(2)
Gd6_3 Gd 0.84158(4) 0.42062(3) 0.64259(2)
O1_3 O 0.9286(4) 0.3197(3) 0.4290(3)
O2_3 O 0.8362(4) 0.2672(3) 0.3723(3)
O3_3 O 0.8183(4) 0.1443(3) 0.3720(3)
O4_3 O 0.7570(4) 0.0656(3) 0.4043(3)
O5_3 O 0.6672(4) 0.0500(4) 0.4628(2)
O6_3 O 0.6987(3) 0.0239(4) 0.5518(2)
O7_3 O 0.7196(4) 0.0700(4) 0.6274(3)
O8_3 O 0.7234(4) 0.1816(4) 0.6644(2)
O9_3 O 0.8302(4) 0.2452(4) 0.6823(2)
O10_3 O 0.8921(4) 0.3230(4) 0.6496(3)
O11_3 O 0.8840(4) 0.3920(4) 0.5751(2)
O12_3 O 0.9485(4) 0.3672(4) 0.5041(3)
O13_3 O 0.6930(4) 0.2911(4) 0.3502(3)
O14_3 O 0.6744(4) 0.1749(4) 0.3730(2)
O15_3 O 0.5725(4) 0.1361(4) 0.4107(2)
O16_3 O 0.5429(4) 0.1125(4) 0.4861(3)
O17_3 O 0.5906(3) 0.1110(4) 0.5750(2)
O18_3 O 0.5805(4) 0.2089(4) 0.6297(3)
O19_3 O 0.6378(4) 0.3000(4) 0.6556(3)
O20_3 O 0.7485(4) 0.3595(3) 0.6488(3)
O21_3 O 0.7542(4) 0.4546(4) 0.5922(3)
O22_3 O 0.7827(5) 0.4797(4) 0.5176(3)
O23_3 O 0.8238(4) 0.4192(4) 0.4479(3)
O24_3 O 0.7479(5) 0.3836(4) 0.3742(3)
O25_3 O 0.7107(5) 0.1038(4) 0.3095(3)
O26_3 O 0.5720(6) 0.0875(5) 0.3148(3)
O32_3 O 0.6057(6) 0.0109(6) 0.6534(5)
O33_3 O 0.5321(5) 0.1046(5) 0.6844(4)
O34_3 O 0.6746(6) 0.0721(6) 0.7265(4)
O35_3 O 0.6344(4) 0.2022(4) 0.7180(3)
O39_3 O 0.6935(6) 0.3890(6) 0.7327(4)
O41_3 O 0.8504(6) 0.3942(5) 0.7223(3)
O42_2 O 0.8107(7) 0.5080(5) 0.6831(4)
O43_3 O 0.9452(6) 0.4515(7) 0.6759(4)
O44_2 O 0.8712(5) 0.5094(4) 0.5899(3)
O45_2 O 0.8749(9) 0.6085(7) 0.5708(6)
O46_2 O 0.9000(6) 0.5647(5) 0.4911(4)
O47_3 O 0.9912(5) 0.4828(4) 0.5477(3)
O49_3 O 0.8449(5) 0.4821(4) 0.3529(3)
O50_3 O 0.9524(7) 0.3793(6) 0.3427(4)
C1_3 C 0.9239(5) 0.2560(5) 0.4309(4)
C2_3 C 0.8759(6) 0.2308(5) 0.4018(4)
C3_3 C 0.8667(6) 0.1662(5) 0.4020(4)
C4_3 C 0.9050(5) 0.1296(5) 0.4316(4)
C5_3 C 0.9538(5) 0.1577(5) 0.4606(4)
H1_3 H 0.980243 0.132550 0.481026
C6_3 C 0.9648(5) 0.2210(5) 0.4604(4)
C7_3 C 0.8921(6) 0.0604(5) 0.4332(4)
H2_3 H 0.872848 0.048834 0.401831
C8_3 C 0.9517(7) 0.0227(6) 0.4420(6)
H3_3 H 0.981734 0.034996 0.420067
H4_3 H 0.971982 0.031640 0.473272
C10_3 C 0.8407(5) 0.0479(5) 0.4654(4)
C11_3 C 0.7771(5) 0.0514(5) 0.4499(4)
C12_3 C 0.7290(5) 0.0436(5) 0.4784(4)
C13_3 C 0.7475(5) 0.0300(5) 0.5246(4)
C14_3 C 0.8108(5) 0.0244(5) 0.5416(4)
C15_3 C 0.8571(6) 0.0337(5) 0.5117(5)
H8_3 H 0.900681 0.030391 0.523041
C16_3 C 0.8287(5) 0.0120(6) 0.5926(4)
C19_3 C 0.8324(5) 0.0734(5) 0.6192(4)
C20_3 C 0.7765(5) 0.0977(6) 0.6320(4)
C21_3 C 0.7771(5) 0.1566(6) 0.6527(4)
C22_3 C 0.8333(5) 0.1888(6) 0.6602(3)
C23_3 C 0.8908(5) 0.1643(6) 0.6473(4)
C24_3 C 0.8885(5) 0.1075(6) 0.6267(4)
H15_3 H 0.926356 0.090843 0.617111
C25_3 C 0.9521(6) 0.2018(6) 0.6540(4)
H16_3 H 0.948819 0.227909 0.681637
C28_3 C 0.9553(5) 0.2463(6) 0.6141(4)
C29_3 C 0.9228(5) 0.3024(5) 0.6133(3)
C30_3 C 0.9199(6) 0.3395(6) 0.5762(4)
C31_3 C 0.9525(5) 0.3249(5) 0.5390(4)
C32_3 C 0.9859(5) 0.2693(5) 0.5382(4)
C33_3 C 0.9849(5) 0.2319(5) 0.5754(4)
C37_3 C 0.5960(7) 0.3229(6) 0.3828(4)
C38_3 C 0.6400(7) 0.2796(6) 0.3715(4)
C39_3 C 0.6314(6) 0.2165(5) 0.3829(4)
C40_3 C 0.5773(6) 0.1979(6) 0.4030(4)
C41_3 C 0.5338(6) 0.2414(6) 0.4154(4)
C42_3 C 0.5445(7) 0.3032(7) 0.4038(4)
H29_3 H 0.514362 0.333138 0.410912
C43_3 C 0.4809(6) 0.2192(8) 0.4416(4)
H30_3 H 0.472166 0.175832 0.431495
C44_3 C 0.4186(8) 0.2541(9) 0.4301(6)
H31_3 H 0.425932 0.298582 0.435667
H32_3 H 0.387143 0.239869 0.450352
C45_3 C 0.3926(8) 0.2442(12) 0.3806(6)
H33_3 H 0.400438 0.201674 0.371792
H34_3 H 0.346826 0.252250 0.377050
H35_3 H 0.413662 0.272373 0.361000
C46_3 C 0.5050(6) 0.2156(7) 0.4935(4)
C47_3 C 0.5342(6) 0.1640(7) 0.5111(4)
C48_3 C 0.5590(6) 0.1623(6) 0.5574(4)
C49_3 C 0.5530(5) 0.2150(7) 0.5851(4)
C50_3 C 0.5225(6) 0.2676(7) 0.5667(5)
C51_3 C 0.4991(6) 0.2681(7) 0.5216(4)
H36_3 H 0.478745 0.304036 0.508776
C52_3 C 0.5223(7) 0.3238(8) 0.5969(5)
H37_3 H 0.522222 0.308142 0.628970
C53_3 C 0.4592(10) 0.3574(9) 0.5856(7)
H38_3 H 0.424119 0.328226 0.588950
H39_3 H 0.455839 0.370624 0.553208
C54_3 C 0.4511(14) 0.4115(11) 0.6145(9)
H40_3 H 0.414953 0.435895 0.600960
H41_3 H 0.443244 0.398054 0.645222
H42_3 H 0.489660 0.436677 0.616489
C55_3 C 0.5824(6) 0.3612(6) 0.5963(4)
C56_3 C 0.6366(6) 0.3469(6) 0.6241(4)
C57_3 C 0.6946(6) 0.3769(6) 0.6225(4)
C58_3 C 0.6963(6) 0.4262(6) 0.5913(4)
C59_3 C 0.6423(7) 0.4434(6) 0.5617(4)
C60_3 C 0.5877(6) 0.4108(6) 0.5643(4)
H43_3 H 0.551390 0.421293 0.544039
C61_3 C 0.6501(7) 0.4942(6) 0.5281(5)
H44_2 H 0.683393 0.522765 0.542575
C62_2 C 0.5905(8) 0.5325(8) 0.5147(6)
H45_2 H 0.556514 0.505479 0.500224
H46_2 H 0.599828 0.563958 0.491966
C63_2 C 0.5684(14) 0.5630(14) 0.5547(10)
H47_2 H 0.603377 0.586371 0.570928
H48_2 H 0.533416 0.590952 0.544634
H49_2 H 0.553583 0.531909 0.575313
C64_3 C 0.6745(6) 0.4683(6) 0.4843(4)
C65_3 C 0.7378(8) 0.4587(6) 0.4832(4)
C66_3 C 0.7622(7) 0.4299(6) 0.4466(4)
C67_3 C 0.7202(7) 0.4095(7) 0.4093(5)
C68_3 C 0.6548(7) 0.4170(6) 0.4097(4)
C69_3 C 0.6327(7) 0.4438(7) 0.4468(5)
H50_3 H 0.588121 0.446327 0.448011
C70_3 C 0.6104(7) 0.3899(7) 0.3704(5)
H51_3 H 0.635116 0.388041 0.343235
C71_3 C 0.5527(9) 0.4280(9) 0.3564(7)
H52_3 H 0.524307 0.426765 0.380991
H53_3 H 0.565828 0.471248 0.352618
C72_3 C 0.5161(13) 0.4058(12) 0.3116(7)
H54_3 H 0.496641 0.441170 0.294817
H55_3 H 0.545309 0.385189 0.292863
H56_3 H 0.482893 0.376982 0.318531
C74_2 C 0.8645(10) 0.5648(7) 0.5970(6)
H58_2 H 0.849745 0.575689 0.625330
C75_3 C 0.8438(8) 0.3687(7) 0.7573(5)
H59_3 H 0.871275 0.381281 0.783249
C76_3 C 0.7992(8) 0.1636(7) 0.7702(4)
H60_3 H 0.802635 0.147002 0.740644
C78_3 C 0.4716(5) 0.0253(6) 0.5830(4)
H62_3 H 0.495031 0.057375 0.598809
C79_3 C 0.6251(8) 0.2277(7) 0.7534(5)
H63_3 H 0.593438 0.214012 0.771627
H64_3 H 0.578859 0.128856 0.301855
H65_3 H 0.528239 0.0848735 0.323849
H68_3 H 0.987592 0.398162 0.36302
H69_3 H 0.944678 0.403741 0.314092
H70_3 H 0.502438 0.0834975 0.661006
H71_3 H 0.514406 0.145332 0.691568
H72_3 H 0.781172 0.495185 0.705422
H73_2 H 0.789125 0.53798 0.661178
H74_2 H 0.863045 0.587974 0.500244
H75_2 H 0.900993 0.567956 0.457461
H78_3 H 0.674468 0.414224 0.706587
H79_3 H 0.730696 0.410908 0.748507
H80_2 H 0.839902 0.509788 0.379163
H81_3 H 0.806182 0.484169 0.330722
H82_3 H 0.954858 0.431286 0.706153
H83_3 H 0.946222 0.496846 0.679918
H84_3 H 0.675914 0.0267386 0.722805
H85_3 H 0.64759 0.0826319 0.751018
O27_3 O 0.6729(5) 0.9765(4) 0.3468(3)
O28_3 O 0.6304(6) 0.9252(6) 0.4941(4)
O31_3 O 0.5971(6) 0.9613(6) 0.5859(4)
C9_3 C 0.9395(8) 0.9530(6) 0.4376(7)
H5_3 H 0.910783 0.944806 0.409867
H6_3 H 0.979810 0.931549 0.435656
H7_3 H 0.920154 0.938309 0.464440
H9_3 H 0.792833 0.988169 0.603445
C17_3 C 0.8889(7) 0.9734(7) 0.6041(6)
H10_3 H 0.897423 0.968806 0.637777
H11_3 H 0.925616 0.994574 0.592971
C18_3 C 0.8811(9) 0.9106(8) 0.5823(8)
H12_3 H 0.873836 0.915156 0.548917
H13_3 H 0.919555 0.886308 0.590324
H14_3 H 0.844667 0.889700 0.593329
C77_3 C 0.6034(8) 0.9630(9) 0.6288(5)
H61_3 H 0.606713 0.924659 0.644359
H66_3 H 0.618658 0.920917 0.460613
H67_3 H 0.610205 0.891713 0.510402
H76_3 H 0.704558 0.984056 0.324811
H77_3 H 0.633738 0.958843 0.330278
O1_4 O 0.0714(4) 0.8197(3) 0.0710(3)
O2_4 O 0.1638(4) 0.7672(3) 0.1277(3)
O3_4 O 0.1817(4) 0.6443(3) 0.1280(3)
O4_4 O 0.2430(4) 0.5656(3) 0.0957(3)
O5_4 O 0.3328(4) 0.5500(4) 0.0372(2)
O13_4 O 0.3070(4) 0.7911(4) 0.1498(3)
O14_4 O 0.3256(4) 0.6749(4) 0.1270(2)
O15_4 O 0.4275(4) 0.6361(4) 0.0893(2)
O16_4 O 0.4571(4) 0.6125(4) 0.0139(3)
O23_4 O 0.1762(4) 0.9192(4) 0.0521(3)
O24_4 O 0.2521(5) 0.8836(4) 0.1258(3)
O25_4 O 0.2893(5) 0.6038(4) 0.1905(3)
O26_4 O 0.4280(6) 0.5875(5) 0.1852(3)
O27_4 O 0.3271(5) 0.4765(4) 0.1532(3)
O28_4 O 0.3696(6) 0.4252(6) 0.0059(4)
O49_4 O 0.1551(5) 0.9821(4) 0.1471(3)
O50_4 O 0.0476(7) 0.8793(6) 0.1573(4)
C1_4 C 0.0761(5) 0.7560(5) 0.0691(4)
C2_4 C 0.1241(6) 0.7308(5) 0.0982(4)
C3_4 C 0.1333(6) 0.6662(5) 0.0980(4)
C4_4 C 0.0950(5) 0.6296(5) 0.0684(4)
C5_4 C 0.0462(5) 0.6577(5) 0.0394(4)
H1_4 H 0.019757 0.632550 0.018974
C6_4 C 0.0352(5) 0.7210(5) 0.0396(4)
C7_4 C 0.1079(6) 0.5604(5) 0.0668(4)
H2_4 H 0.127152 0.548834 0.098169
C8_4 C 0.0483(7) 0.5227(6) 0.0580(6)
H3_4 H 0.018266 0.534996 0.079933
H4_4 H 0.028018 0.531640 0.026728
C9_4 C 0.0605(8) 0.4530(6) 0.0624(7)
H5_4 H 0.089217 0.444806 0.090133
H6_4 H 0.020190 0.431549 0.064344
H7_4 H 0.079846 0.438309 0.035560
C10_4 C 0.1593(5) 0.5479(5) 0.0346(4)
C11_4 C 0.2229(5) 0.5514(5) 0.0501(4)
C12_4 C 0.2710(5) 0.5436(5) 0.0216(4)
C37_4 C 0.4040(7) 0.8229(6) 0.1172(4)
C38_4 C 0.3600(7) 0.7796(6) 0.1285(4)
C39_4 C 0.3686(6) 0.7165(5) 0.1171(4)
C40_4 C 0.4227(6) 0.6979(6) 0.0970(4)
C41_4 C 0.4662(6) 0.7414(6) 0.0846(4)
C42_4 C 0.4555(7) 0.8032(7) 0.0962(4)
H29_4 H 0.485638 0.833138 0.089088
C43_4 C 0.5191(6) 0.7192(8) 0.0584(4)
H30_4 H 0.527834 0.675832 0.068505
C44_4 C 0.5814(8) 0.7541(9) 0.0699(6)
H31_4 H 0.574068 0.798582 0.064333
H32_4 H 0.612857 0.739869 0.049648
C45_4 C 0.6074(8) 0.7442(12) 0.1194(6)
H33_4 H 0.599562 0.701674 0.128208
H34_4 H 0.653174 0.752250 0.122950
H35_4 H 0.586338 0.772373 0.139000
C46_4 C 0.4950(6) 0.7156(7) 0.0065(4)
C64_4 C 0.3255(6) 0.9683(6) 0.0157(4)
C65_4 C 0.2622(8) 0.9587(6) 0.0168(4)
C66_4 C 0.2378(7) 0.9299(6) 0.0534(4)
C67_4 C 0.2798(7) 0.9095(7) 0.0907(5)
C68_4 C 0.3452(7) 0.9170(6) 0.0903(4)
C69_4 C 0.3673(7) 0.9438(7) 0.0532(5)
H50_4 H 0.411879 0.946327 0.051989
C70_4 C 0.3896(7) 0.8899(7) 0.1296(5)
H51_4 H 0.364884 0.888041 0.156765
C71_4 C 0.4473(9) 0.9280(9) 0.1436(7)
H52_4 H 0.475693 0.926765 0.119009
H53_4 H 0.434172 0.971248 0.147382
C72_4 C 0.4839(13) 0.9058(12) 0.1884(7)
H54_4 H 0.503359 0.941170 0.205183
H55_4 H 0.454691 0.885189 0.207137
H56_4 H 0.517107 0.876982 0.181469
H64_4 H 0.421141 0.628856 0.198145
H65_4 H 0.471761 0.584873 0.176151
H66_4 H 0.381342 0.420917 0.0393874
H68_4 H 0.0124075 0.898162 0.13698
H69_4 H 0.0553219 0.903741 0.185908
H76_4 H 0.295442 0.484056 0.175189
H77_4 H 0.366262 0.458843 0.169722
H81_4 H 0.193818 0.984169 0.169278
Gd4_4 Gd 0.36884(3) 0.61824(4) 0.84419(2)
Gd5_4 Gd 0.26869(3) 0.77914(4) 0.79880(2)
Gd6_4 Gd 0.15842(4) 0.92062(3) 0.85741(2)
O6_4 O 0.3013(3) 0.5239(4) 0.9482(2)
O7_4 O 0.2804(4) 0.5700(4) 0.8726(3)
O8_4 O 0.2766(4) 0.6816(4) 0.8356(2)
O9_4 O 0.1698(4) 0.7452(4) 0.8177(2)
O10_4 O 0.1079(4) 0.8230(4) 0.8504(3)
O11_4 O 0.1160(4) 0.8920(4) 0.9249(2)
O12_4 O 0.0515(4) 0.8672(4) 0.9959(3)
O17_4 O 0.4094(3) 0.6110(4) 0.9250(2)
O18_4 O 0.4195(4) 0.7089(4) 0.8703(3)
O19_4 O 0.3622(4) 0.8000(4) 0.8444(3)
O20_4 O 0.2515(4) 0.8595(3) 0.8512(3)
O21_4 O 0.2458(4) 0.9546(4) 0.9078(3)
O22_4 O 0.2173(5) 0.9797(4) 0.9824(3)
O31_4 O 0.4029(6) 0.4613(6) 0.9141(4)
O32_4 O 0.3943(6) 0.5109(6) 0.8466(5)
O33_4 O 0.4679(5) 0.6046(5) 0.8156(4)
O34_4 O 0.3254(6) 0.5721(6) 0.7735(4)
O35_4 O 0.3656(4) 0.7022(4) 0.7820(3)
O39_4 O 0.3065(6) 0.8890(6) 0.7673(4)
O41_4 O 0.1496(6) 0.8942(5) 0.7777(3)
O43_4 O 0.0548(6) 0.9515(7) 0.8241(4)
O47_4 O 0.0088(5) 0.9828(4) 0.9523(3)
C13_4 C 0.2525(5) 0.5300(5) 0.9754(4)
C14_4 C 0.1892(5) 0.5244(5) 0.9584(4)
C15_4 C 0.1429(6) 0.5337(5) 0.9883(5)
H8_4 H 0.099319 0.530391 0.976959
C16_4 C 0.1713(5) 0.5120(6) 0.9074(4)
H9_4 H 0.207167 0.488169 0.896555
C17_4 C 0.1111(7) 0.4734(7) 0.8959(6)
H10_4 H 0.102577 0.468806 0.862223
H11_4 H 0.074384 0.494574 0.907029
C18_4 C 0.1189(9) 0.4106(8) 0.9177(8)
H12_4 H 0.126164 0.415156 0.951083
H13_4 H 0.080445 0.386308 0.909676
H14_4 H 0.155333 0.389700 0.906671
C19_4 C 0.1676(5) 0.5734(5) 0.8808(4)
C20_4 C 0.2235(5) 0.5977(6) 0.8680(4)
C21_4 C 0.2229(5) 0.6566(6) 0.8473(4)
C22_4 C 0.1667(5) 0.6888(6) 0.8398(3)
C23_4 C 0.1092(5) 0.6643(6) 0.8527(4)
C24_4 C 0.1115(5) 0.6075(6) 0.8733(4)
H15_4 H 0.073644 0.590843 0.882889
C25_4 C 0.0479(6) 0.7018(6) 0.8460(4)
H16_4 H 0.051181 0.727909 0.818363
C28_4 C 0.0447(5) 0.7463(6) 0.8859(4)
C29_4 C 0.0772(5) 0.8024(5) 0.8867(3)
C30_4 C 0.0801(6) 0.8395(6) 0.9238(4)
C31_4 C 0.0475(5) 0.8249(5) 0.9610(4)
C32_4 C 0.0141(5) 0.7693(5) 0.9618(4)
C33_4 C 0.0151(5) 0.7319(5) 0.9246(4)
C47_4 C 0.4658(6) 0.6640(7) 0.9889(4)
C48_4 C 0.4410(6) 0.6623(6) 0.9426(4)
C49_4 C 0.4470(5) 0.7150(7) 0.9149(4)
C50_4 C 0.4775(6) 0.7676(7) 0.9333(5)
C51_4 C 0.5009(6) 0.7681(7) 0.9784(4)
H36_4 H 0.521255 0.804036 0.991224
C52_4 C 0.4777(7) 0.8238(8) 0.9031(5)
H37_4 H 0.477778 0.808142 0.871030
C53_4 C 0.5408(10) 0.8574(9) 0.9144(7)
H38_4 H 0.575881 0.828226 0.911050
H39_4 H 0.544161 0.870624 0.946792
C54_4 C 0.5489(14) 0.9115(11) 0.8855(9)
H40_4 H 0.585047 0.935895 0.899040
H41_4 H 0.556756 0.898054 0.854778
H42_4 H 0.510340 0.936677 0.883511
C55_4 C 0.4176(6) 0.8612(6) 0.9037(4)
C56_4 C 0.3634(6) 0.8469(6) 0.8759(4)
C57_4 C 0.3054(6) 0.8769(6) 0.8775(4)
C58_4 C 0.3037(6) 0.9262(6) 0.9087(4)
C59_4 C 0.3577(7) 0.9434(6) 0.9383(4)
C60_4 C 0.4123(6) 0.9108(6) 0.9357(4)
H43_4 H 0.448610 0.921293 0.955961
C61_4 C 0.3499(7) 0.9942(6) 0.9719(5)
C75_4 C 0.1562(8) 0.8687(7) 0.7427(5)
H59_4 H 0.128725 0.881281 0.716751
C76_4 C 0.2008(8) 0.6636(7) 0.7298(4)
H60_4 H 0.197365 0.647002 0.759356
C77_4 C 0.3966(8) 0.4630(9) 0.8712(5)
H61_4 H 0.393287 0.424659 0.855641
C78_4 C 0.5284(5) 0.5253(6) 0.9170(4)
H62_4 H 0.504969 0.557375 0.901191
C79_4 C 0.3749(8) 0.7277(7) 0.7466(5)
H63_4 H 0.406562 0.714012 0.728373
H67_4 H 0.389795 0.391713 0.989598
H70_4 H 0.497562 0.583498 0.838994
H71_4 H 0.485594 0.645332 0.808432
H72_4 H 0.218828 0.995185 0.794578
H78_4 H 0.325532 0.914224 0.793413
H79_4 H 0.269304 0.910908 0.751493
H82_4 H 0.0451418 0.931286 0.793847
H83_4 H 0.0537783 0.996846 0.820082
H84_4 H 0.324086 0.526739 0.777195
H85_4 H 0.35241 0.582632 0.748982
C73_4 C 0.9824(7) 0.0209(6) 0.9250(5)
H57_4 H 0.998370 0.027815 0.896444
C26_3 C 0.0124(6) 0.3367(7) 0.1646(6)
H17_3 H 0.017054 0.364334 0.138329
H18_3 H 0.007745 0.362765 0.191638
C27_3 C 0.0726(9) 0.2979(9) 0.1739(9)
H19_3 H 0.067576 0.268987 0.198854
H20_3 H 0.108919 0.324861 0.182572
H21_3 H 0.079818 0.274920 0.146196
H22_3 H 0.006005 0.306643 0.074900
C35_3 C 0.0744(6) 0.2853(6) 0.0017(5)
H24_3 H 0.065068 0.323818 0.017750
C36_3 C 0.1300(9) 0.2506(9) 0.0309(8)
H26_3 H 0.120349 0.247421 0.062725
H27_3 H 0.169648 0.273493 0.029819
H28_3 H 0.134585 0.209296 0.018341
C34_3 C 0.0151(5) 0.2486(5) 0.9936(4)
H23_3 H 0.026783 0.209244 0.978916
H25_3 H 0.088632 0.296780 0.971841
O42_3 O 0.8107(7) 0.9920(5) 0.1831(4)
O44_3 O 0.8712(5) 0.9906(4) 0.0899(3)
O45_3 O 0.8749(9) 0.8915(7) 0.0708(6)
H44_3 H 0.683393 0.977235 0.042575
C62_3 C 0.5905(8) 0.9675(8) 0.0147(6)
H45_3 H 0.556514 0.994521 0.000224
C63_3 C 0.5684(14) 0.9370(14) 0.0547(10)
H47_3 H 0.603377 0.913629 0.070928
H48_3 H 0.533416 0.909048 0.044634
H49_3 H 0.553583 0.968091 0.075313
C74_3 C 0.8645(10) 0.9352(7) 0.0970(6)
H58_3 H 0.849745 0.924311 0.125330
H73_3 H 0.789125 0.96202 0.161178
H74_3 H 0.863045 0.912026 0.00024354
O46_3 O 0.9000(6) 0.9353(5) 0.9911(4)
H46_3 H 0.599828 0.936042 0.991966
H75_3 H 0.900993 0.932044 0.957461
H80_3 H 0.839902 0.990212 0.879163
O46_4 O 0.1000(6) 0.0647(5) 0.0089(4)
H46_4 H 0.400172 0.063958 0.008034
H75_4 H 0.0990068 0.0679561 0.042539
H80_4 H 0.160098 0.00978825 0.120837
O42_4 O 0.1893(7) 0.0080(5) 0.8169(4)
O44_4 O 0.1288(5) 0.0094(4) 0.9101(3)
O45_4 O 0.1251(9) 0.1085(7) 0.9292(6)
H44_4 H 0.316607 0.022765 0.957425
C62_4 C 0.4095(8) 0.0325(8) 0.9853(6)
H45_4 H 0.443486 0.005479 0.999776
C63_4 C 0.4316(14) 0.0630(14) 0.9453(10)
H47_4 H 0.396623 0.086371 0.929072
H48_4 H 0.466584 0.090952 0.955366
H49_4 H 0.446417 0.031909 0.924687
C74_4 C 0.1355(10) 0.0648(7) 0.9030(6)
H58_4 H 0.150255 0.075689 0.874670
H73_4 H 0.210875 0.0379798 0.838822
H74_4 H 0.136955 0.0879739 0.999756
C34_4 C 0.9849(5) 0.7514(5) 0.0064(4)
H23_4 H 0.973217 0.790756 0.021084
H25_4 H 0.911368 0.703220 0.028159
C26_4 C 0.9876(6) 0.6633(7) 0.8354(6)
H17_4 H 0.982946 0.635666 0.861671
H18_4 H 0.992255 0.637235 0.808362
C27_4 C 0.9274(9) 0.7021(9) 0.8261(9)
H19_4 H 0.932424 0.731013 0.801146
H20_4 H 0.891081 0.675139 0.817428
H21_4 H 0.920182 0.725080 0.853804
H22_4 H 0.993995 0.693357 0.925100
C35_4 C 0.9256(6) 0.7147(6) 0.9983(5)
H24_4 H 0.934932 0.676182 0.982250
C36_4 C 0.8700(9) 0.7494(9) 0.9691(8)
H26_4 H 0.879651 0.752579 0.937275
H27_4 H 0.830352 0.726507 0.970181
H28_4 H 0.865415 0.790704 0.981659
loop_
_geom_bond_atom_site_label_1
_geom_bond_atom_site_label_2
_geom_bond_site_symmetry_1
_geom_bond_site_symmetry_2
H5 C9 1_555 1_555
H6 C9 1_555 1_555
H7 C9 1_555 1_555
H10 C17 1_555 1_555
H11 C17 1_555 1_555
C18 C17 1_555 1_555
H12 C18 1_555 1_555
H13 C18 1_555 1_555
H14 C18 1_555 1_555
C77 O31 1_555 1_555
H61 C77 1_555 1_555
Gd10 O30 1_555 1_555
Gd11 O51 1_555 1_555
O28 H66 1_555 1_555
O28 H67 1_555 1_555
O27 H76 1_555 1_555
O27 H77 1_555 1_555
Gd1 O2 1_555 1_555
Gd2 O4 1_555 1_555
Gd3 O5 1_555 1_555
Gd4 O7 1_555 1_555
Gd5 O8 1_555 1_555
Gd6 O10 1_555 1_555
Gd7 O11 1_555 1_555
Gd8 O1 1_555 1_555
O1 C1 1_555 1_555
O2 Gd8 1_555 1_555
O3 Gd1 1_555 1_555
O4 C11 1_555 1_555
O5 Gd2 1_555 1_555
O6 Gd3 1_555 1_555
O7 C20 1_555 1_555
O8 Gd4 1_555 1_555
O9 Gd5 1_555 1_555
O10 C29 1_555 1_555
O11 Gd6 1_555 1_555
O12 Gd7 1_555 1_555
O13 Gd1 1_555 1_555
O14 Gd1 1_555 1_555
O15 Gd2 1_555 1_555
O16 Gd3 1_555 1_555
O17 Gd3 1_555 1_555
O18 Gd4 1_555 1_555
O19 Gd5 1_555 1_555
O20 Gd5 1_555 1_555
O21 Gd6 1_555 1_555
O22 Gd7 1_555 1_555
O23 Gd7 1_555 1_555
O24 Gd8 1_555 1_555
O25 Gd1 1_555 1_555
O26 Gd2 1_555 1_555
O29 Gd3 1_555 1_555
O32 Gd4 1_555 1_555
O33 Gd4 1_555 1_555
O34 Gd4 1_555 1_555
O35 Gd4 1_555 1_555
O36 Gd5 1_555 1_555
O37 Gd5 1_555 1_555
O38 C76 1_555 1_555
O39 Gd5 1_555 1_555
O40 Gd5 1_555 1_555
O41 Gd6 1_555 1_555
O42 Gd6 1_555 1_555
O43 Gd6 1_555 1_555
O44 Gd6 1_555 1_555
O45 C74 1_555 1_555
O46 Gd7 1_555 1_555
O47 Gd7 1_555 1_555
O49 Gd8 1_555 1_555
O50 Gd8 1_555 1_555
C1 C2 1_555 1_555
C2 O2 1_555 1_555
C3 O3 1_555 1_555
C4 C3 1_555 1_555
C5 C4 1_555 1_555
H1 C5 1_555 1_555
C6 C1 1_555 1_555
C7 C4 1_555 1_555
H2 C7 1_555 1_555
C8 C7 1_555 1_555
H3 C8 1_555 1_555
H4 C8 1_555 1_555
C10 C7 1_555 1_555
C11 C10 1_555 1_555
C12 O5 1_555 1_555
C13 O6 1_555 1_555
C14 C13 1_555 1_555
C15 C10 1_555 1_555
H8 C15 1_555 1_555
C16 C14 1_555 1_555
C19 C16 1_555 1_555
C20 C19 1_555 1_555
C21 O8 1_555 1_555
C22 O9 1_555 1_555
C23 C22 1_555 1_555
C24 C19 1_555 1_555
H15 C24 1_555 1_555
C25 C23 1_555 1_555
H16 C25 1_555 1_555
C28 C25 1_555 1_555
C29 C28 1_555 1_555
C30 O11 1_555 1_555
C31 O12 1_555 1_555
C32 C31 1_555 1_555
C33 C28 1_555 1_555
C37 C38 1_555 1_555
C38 O13 1_555 1_555
C39 O14 1_555 1_555
C40 O15 1_555 1_555
C41 C40 1_555 1_555
C42 C37 1_555 1_555
H29 C42 1_555 1_555
C43 C41 1_555 1_555
H30 C43 1_555 1_555
C44 C43 1_555 1_555
H31 C44 1_555 1_555
H32 C44 1_555 1_555
C45 C44 1_555 1_555
H33 C45 1_555 1_555
H34 C45 1_555 1_555
H35 C45 1_555 1_555
C46 C43 1_555 1_555
C47 O16 1_555 1_555
C48 O17 1_555 1_555
C49 O18 1_555 1_555
C50 C49 1_555 1_555
C51 C46 1_555 1_555
H36 C51 1_555 1_555
C52 C50 1_555 1_555
H37 C52 1_555 1_555
C53 C52 1_555 1_555
H38 C53 1_555 1_555
H39 C53 1_555 1_555
C54 C53 1_555 1_555
H40 C54 1_555 1_555
H41 C54 1_555 1_555
H42 C54 1_555 1_555
C55 C52 1_555 1_555
C56 O19 1_555 1_555
C57 O20 1_555 1_555
C58 O21 1_555 1_555
C59 C58 1_555 1_555
C60 C55 1_555 1_555
H43 C60 1_555 1_555
C61 C59 1_555 1_555
H44 C61 1_555 1_555
C62 C61 1_555 1_555
H45 C62 1_555 1_555
H46 C62 1_555 1_555
C63 C62 1_555 1_555
H47 C63 1_555 1_555
H48 C63 1_555 1_555
H49 C63 1_555 1_555
C64 C61 1_555 1_555
C65 O22 1_555 1_555
C66 O23 1_555 1_555
C67 O24 1_555 1_555
C68 C67 1_555 1_555
C69 C64 1_555 1_555
H50 C69 1_555 1_555
C70 C37 1_555 1_555
H51 C70 1_555 1_555
C71 C70 1_555 1_555
H52 C71 1_555 1_555
H53 C71 1_555 1_555
C72 C71 1_555 1_555
H54 C72 1_555 1_555
H55 C72 1_555 1_555
H56 C72 1_555 1_555
C74 O44 1_555 1_555
H58 C74 1_555 1_555
C75 O40 1_555 1_555
H59 C75 1_555 1_555
C76 O37 1_555 1_555
H60 C76 1_555 1_555
C78 O29 1_555 1_555
H62 C78 1_555 1_555
C79 O35 1_555 1_555
H63 C79 1_555 1_555
Gd9 O36 1_555 1_555
Gd14 O38 1_555 1_555
O52 Gd2 1_555 1_555
O53 Gd1 1_555 1_555
O54 Gd1 1_555 1_555
O55 Gd8 1_555 1_555
O56 Gd1 1_555 1_555
O57 Gd7 1_555 1_555
Gd2 O14 1_555 1_555
Gd2 O25 1_555 1_555
Gd4 O17 1_555 1_555
Gd5 O35 1_555 1_555
Gd6 O20 1_555 1_555
Gd7 O44 1_555 1_555
Gd8 O23 1_555 1_555
Gd8 O57 1_555 1_555
O36 C79 1_555 1_555
O37 Gd9 1_555 1_555
O40 Gd9 1_555 1_555
O41 C75 1_555 1_555
C2 C3 1_555 1_555
C5 C6 1_555 1_555
C11 C12 1_555 1_555
C12 C13 1_555 1_555
C14 C15 1_555 1_555
C20 C21 1_555 1_555
C21 C22 1_555 1_555
C23 C24 1_555 1_555
C29 C30 1_555 1_555
C30 C31 1_555 1_555
C32 C33 1_555 1_555
C38 C39 1_555 1_555
C39 C40 1_555 1_555
C41 C42 1_555 1_555
C46 C47 1_555 1_555
C47 C48 1_555 1_555
C48 C49 1_555 1_555
C50 C51 1_555 1_555
C55 C56 1_555 1_555
C56 C57 1_555 1_555
C57 C58 1_555 1_555
C59 C60 1_555 1_555
C64 C65 1_555 1_555
C65 C66 1_555 1_555
C66 C67 1_555 1_555
C68 C69 1_555 1_555
C68 C70 1_555 1_555
O26 H64 1_555 1_555
O26 H65 1_555 1_555
O50 H68 1_555 1_555
O50 H69 1_555 1_555
O33 H70 1_555 1_555
O33 H71 1_555 1_555
O42 H72 1_555 1_555
O42 H73 1_555 1_555
O46 H74 1_555 1_555
O46 H75 1_555 1_555
O39 H78 1_555 1_555
O39 H79 1_555 1_555
O49 H80 1_555 1_555
O49 H81 1_555 1_555
O43 H82 1_555 1_555
O43 H83 1_555 1_555
O34 H84 1_555 1_555
O34 H85 1_555 1_555
O48 C73 1_555 1_555
H17 C26 1_555 1_555
H18 C26 1_555 1_555
C27 C26 1_555 1_555
H19 C27 1_555 1_555
H20 C27 1_555 1_555
H21 C27 1_555 1_555
H23 C34 1_555 1_555
C35 C34 1_555 1_555
H24 C35 1_555 1_555
H25 C35 1_555 1_555
C36 C35 1_555 1_555
H26 C36 1_555 1_555
H27 C36 1_555 1_555
H28 C36 1_555 1_555
H57 C73 1_555 1_555
Gd12 O48 1_555 1_555
Gd13 O48 1_555 1_555
O48_2 C73_2 1_555 1_555
H57_2 C73_2 1_555 1_555
Gd14 O48_2 1_555 1_555
Gd4_2 O7_2 1_555 1_555
Gd5_2 O8_2 1_555 1_555
Gd6_2 O10_2 1_555 1_555
Gd7_2 O11_2 1_555 1_555
O6_2 Gd3_2 1_555 1_555
O7_2 C20_2 1_555 1_555
O8_2 Gd4_2 1_555 1_555
O9_2 Gd5_2 1_555 1_555
O10_2 C29_2 1_555 1_555
O11_2 Gd6_2 1_555 1_555
O12_2 Gd7_2 1_555 1_555
O17_2 Gd3_2 1_555 1_555
O18_2 Gd4_2 1_555 1_555
O19_2 Gd5_2 1_555 1_555
O20_2 Gd5_2 1_555 1_555
O21_2 Gd6_2 1_555 1_555
O22_2 Gd7_2 1_555 1_555
O29_2 Gd3_2 1_555 1_555
O30_2 C78_2 1_555 1_555
O31_2 Gd3_2 1_555 1_555
O32_2 Gd4_2 1_555 1_555
O33_2 Gd4_2 1_555 1_555
O34_2 Gd4_2 1_555 1_555
O35_2 Gd4_2 1_555 1_555
O36_2 Gd5_2 1_555 1_555
O37_2 Gd5_2 1_555 1_555
O38_2 C76_2 1_555 1_555
O39_2 Gd5_2 1_555 1_555
O40_2 Gd5_2 1_555 1_555
O41_2 Gd6_2 1_555 1_555
O43_2 Gd6_2 1_555 1_555
O47_2 Gd7_2 1_555 1_555
C13_2 O6_2 1_555 1_555
C14_2 C13_2 1_555 1_555
H8_2 C15_2 1_555 1_555
C16_2 C14_2 1_555 1_555
H9_2 C16_2 1_555 1_555
C17_2 C16_2 1_555 1_555
H10_2 C17_2 1_555 1_555
H11_2 C17_2 1_555 1_555
C18_2 C17_2 1_555 1_555
H12_2 C18_2 1_555 1_555
H13_2 C18_2 1_555 1_555
H14_2 C18_2 1_555 1_555
C19_2 C16_2 1_555 1_555
C20_2 C19_2 1_555 1_555
C21_2 O8_2 1_555 1_555
C22_2 O9_2 1_555 1_555
C23_2 C22_2 1_555 1_555
C24_2 C19_2 1_555 1_555
H15_2 C24_2 1_555 1_555
C25_2 C23_2 1_555 1_555
H16_2 C25_2 1_555 1_555
C28_2 C25_2 1_555 1_555
C29_2 C28_2 1_555 1_555
C30_2 O11_2 1_555 1_555
C31_2 O12_2 1_555 1_555
C32_2 C31_2 1_555 1_555
C33_2 C28_2 1_555 1_555
C48_2 O17_2 1_555 1_555
C49_2 O18_2 1_555 1_555
C50_2 C49_2 1_555 1_555
H36_2 C51_2 1_555 1_555
C52_2 C50_2 1_555 1_555
H37_2 C52_2 1_555 1_555
C53_2 C52_2 1_555 1_555
H38_2 C53_2 1_555 1_555
H39_2 C53_2 1_555 1_555
C54_2 C53_2 1_555 1_555
H40_2 C54_2 1_555 1_555
H41_2 C54_2 1_555 1_555
H42_2 C54_2 1_555 1_555
C55_2 C52_2 1_555 1_555
C56_2 O19_2 1_555 1_555
C57_2 O20_2 1_555 1_555
C58_2 O21_2 1_555 1_555
C59_2 C58_2 1_555 1_555
C60_2 C55_2 1_555 1_555
H43_2 C60_2 1_555 1_555
C61_2 C59_2 1_555 1_555
C75_2 O40_2 1_555 1_555
H59_2 C75_2 1_555 1_555
C76_2 O37_2 1_555 1_555
H60_2 C76_2 1_555 1_555
C77_2 O31_2 1_555 1_555
H61_2 C77_2 1_555 1_555
C78_2 O29_2 1_555 1_555
H62_2 C78_2 1_555 1_555
C79_2 O35_2 1_555 1_555
H63_2 C79_2 1_555 1_555
Gd9_2 O36_2 1_555 1_555
Gd10_2 O30_2 1_555 1_555
Gd13 O38_2 1_555 1_555
Gd4_2 O17_2 1_555 1_555
Gd5_2 O35_2 1_555 1_555
Gd6_2 O20_2 1_555 1_555
O32_2 C77_2 1_555 1_555
O36_2 C79_2 1_555 1_555
O37_2 Gd9_2 1_555 1_555
O40_2 Gd9_2 1_555 1_555
O41_2 C75_2 1_555 1_555
C14_2 C15_2 1_555 1_555
C20_2 C21_2 1_555 1_555
C21_2 C22_2 1_555 1_555
C23_2 C24_2 1_555 1_555
C29_2 C30_2 1_555 1_555
C30_2 C31_2 1_555 1_555
C32_2 C33_2 1_555 1_555
C47_2 C48_2 1_555 1_555
C48_2 C49_2 1_555 1_555
C50_2 C51_2 1_555 1_555
C55_2 C56_2 1_555 1_555
C56_2 C57_2 1_555 1_555
C57_2 C58_2 1_555 1_555
C59_2 C60_2 1_555 1_555
O33_2 H70_2 1_555 1_555
O33_2 H71_2 1_555 1_555
O39_2 H78_2 1_555 1_555
O39_2 H79_2 1_555 1_555
O43_2 H82_2 1_555 1_555
O43_2 H83_2 1_555 1_555
O34_2 H84_2 1_555 1_555
O34_2 H85_2 1_555 1_555
Gd1_2 O2_2 1_555 1_555
Gd2_2 O4_2 1_555 1_555
Gd8_2 O1_2 1_555 1_555
O1_2 C1_2 1_555 1_555
O2_2 Gd8_2 1_555 1_555
O3_2 Gd1_2 1_555 1_555
O4_2 C11_2 1_555 1_555
O5_2 Gd2_2 1_555 1_555
O13_2 Gd1_2 1_555 1_555
O14_2 Gd1_2 1_555 1_555
O15_2 Gd2_2 1_555 1_555
O24_2 Gd8_2 1_555 1_555
O25_2 Gd1_2 1_555 1_555
O26_2 Gd2_2 1_555 1_555
O27_2 Gd2_2 1_555 1_555
O49_2 Gd8_2 1_555 1_555
O50_2 Gd8_2 1_555 1_555
C1_2 C2_2 1_555 1_555
C2_2 O2_2 1_555 1_555
C3_2 O3_2 1_555 1_555
C4_2 C3_2 1_555 1_555
C5_2 C4_2 1_555 1_555
H1_2 C5_2 1_555 1_555
C6_2 C1_2 1_555 1_555
C7_2 C4_2 1_555 1_555
H2_2 C7_2 1_555 1_555
C8_2 C7_2 1_555 1_555
H3_2 C8_2 1_555 1_555
H4_2 C8_2 1_555 1_555
C9_2 C8_2 1_555 1_555
H5_2 C9_2 1_555 1_555
H6_2 C9_2 1_555 1_555
H7_2 C9_2 1_555 1_555
C10_2 C7_2 1_555 1_555
C11_2 C10_2 1_555 1_555
C12_2 O5_2 1_555 1_555
C37_2 C38_2 1_555 1_555
C38_2 O13_2 1_555 1_555
C39_2 O14_2 1_555 1_555
C40_2 O15_2 1_555 1_555
C41_2 C40_2 1_555 1_555
C42_2 C37_2 1_555 1_555
H29_2 C42_2 1_555 1_555
C43_2 C41_2 1_555 1_555
H30_2 C43_2 1_555 1_555
C44_2 C43_2 1_555 1_555
H31_2 C44_2 1_555 1_555
H32_2 C44_2 1_555 1_555
C45_2 C44_2 1_555 1_555
H33_2 C45_2 1_555 1_555
H34_2 C45_2 1_555 1_555
H35_2 C45_2 1_555 1_555
C46_2 C43_2 1_555 1_555
C66_2 O23_2 1_555 1_555
C67_2 O24_2 1_555 1_555
C68_2 C67_2 1_555 1_555
C69_2 C64_2 1_555 1_555
H50_2 C69_2 1_555 1_555
C70_2 C37_2 1_555 1_555
H51_2 C70_2 1_555 1_555
C71_2 C70_2 1_555 1_555
H52_2 C71_2 1_555 1_555
H53_2 C71_2 1_555 1_555
C72_2 C71_2 1_555 1_555
H54_2 C72_2 1_555 1_555
H55_2 C72_2 1_555 1_555
H56_2 C72_2 1_555 1_555
O52_2 Gd2_2 1_555 1_555
O53_2 Gd1_2 1_555 1_555
O54_2 Gd1_2 1_555 1_555
O55_2 Gd8_2 1_555 1_555
O56_2 Gd1_2 1_555 1_555
Gd2_2 O14_2 1_555 1_555
Gd2_2 O25_2 1_555 1_555
Gd8_2 O23_2 1_555 1_555
Gd8_2 O57_2 1_555 1_555
C2_2 C3_2 1_555 1_555
C5_2 C6_2 1_555 1_555
C11_2 C12_2 1_555 1_555
C38_2 C39_2 1_555 1_555
C39_2 C40_2 1_555 1_555
C41_2 C42_2 1_555 1_555
C64_2 C65_2 1_555 1_555
C65_2 C66_2 1_555 1_555
C66_2 C67_2 1_555 1_555
C68_2 C69_2 1_555 1_555
C68_2 C70_2 1_555 1_555
Gd11_2 O51_2 1_555 1_555
O26_2 H64_2 1_555 1_555
O26_2 H65_2 1_555 1_555
O28_2 H66_2 1_555 1_555
O50_2 H68_2 1_555 1_555
O50_2 H69_2 1_555 1_555
O27_2 H76_2 1_555 1_555
O27_2 H77_2 1_555 1_555
O49_2 H81_2 1_555 1_555
O57 C73_3 1_555 1_555
H17_2 C26_2 1_555 1_555
H18_2 C26_2 1_555 1_555
C27_2 C26_2 1_555 1_555
H19_2 C27_2 1_555 1_555
H20_2 C27_2 1_555 1_555
H21_2 C27_2 1_555 1_555
H23_2 C34_2 1_555 1_555
C35_2 C34_2 1_555 1_555
H24_2 C35_2 1_555 1_555
H25_2 C35_2 1_555 1_555
C36_2 C35_2 1_555 1_555
H26_2 C36_2 1_555 1_555
H27_2 C36_2 1_555 1_555
H28_2 C36_2 1_555 1_555
H57_3 C73_3 1_555 1_555
Gd9_2 O2_3 1_555 1_555
Gd10 O4_3 1_555 1_555
Gd11 O5_3 1_555 1_555
Gd4_3 O7_3 1_555 1_555
Gd5_3 O8_3 1_555 1_555
Gd6_3 O10_3 1_555 1_555
Gd12 O11_3 1_555 1_555
Gd13 O1_3 1_555 1_555
O1_3 C1_3 1_555 1_555
O2_3 Gd13 1_555 1_555
O3_3 Gd9_2 1_555 1_555
O4_3 C11_3 1_555 1_555
O5_3 Gd10 1_555 1_555
O6_3 Gd11 1_555 1_555
O7_3 C20_3 1_555 1_555
O8_3 Gd4_3 1_555 1_555
O9_3 Gd5_3 1_555 1_555
O10_3 C29_3 1_555 1_555
O11_3 Gd6_3 1_555 1_555
O12_3 Gd12 1_555 1_555
O13_3 Gd9_2 1_555 1_555
O14_3 Gd9_2 1_555 1_555
O15_3 Gd10 1_555 1_555
O16_3 Gd11 1_555 1_555
O17_3 Gd11 1_555 1_555
O18_3 Gd4_3 1_555 1_555
O19_3 Gd5_3 1_555 1_555
O20_3 Gd5_3 1_555 1_555
O21_3 Gd6_3 1_555 1_555
O22_3 Gd12 1_555 1_555
O23_3 Gd12 1_555 1_555
O24_3 Gd13 1_555 1_555
O25_3 Gd9_2 1_555 1_555
O26_3 Gd10 1_555 1_555
O32_3 Gd4_3 1_555 1_555
O33_3 Gd4_3 1_555 1_555
O34_3 Gd4_3 1_555 1_555
O35_3 Gd4_3 1_555 1_555
O53_2 Gd5_3 1_555 1_555
O54_2 Gd5_3 1_555 1_555
O55_2 C76_3 1_555 1_555
O39_3 Gd5_3 1_555 1_555
O56_2 Gd5_3 1_555 1_555
O41_3 Gd6_3 1_555 1_555
O42_2 Gd6_3 1_555 1_555
O43_3 Gd6_3 1_555 1_555
O44_2 Gd6_3 1_555 1_555
O45_2 C74_2 1_555 1_555
O46_2 Gd12 1_555 1_555
O47_3 Gd12 1_555 1_555
O49_3 Gd13 1_555 1_555
O50_3 Gd13 1_555 1_555
C1_3 C2_3 1_555 1_555
C2_3 O2_3 1_555 1_555
C3_3 O3_3 1_555 1_555
C4_3 C3_3 1_555 1_555
C5_3 C4_3 1_555 1_555
H1_3 C5_3 1_555 1_555
C6_3 C1_3 1_555 1_555
C7_3 C4_3 1_555 1_555
H2_3 C7_3 1_555 1_555
C8_3 C7_3 1_555 1_555
H3_3 C8_3 1_555 1_555
H4_3 C8_3 1_555 1_555
C10_3 C7_3 1_555 1_555
C11_3 C10_3 1_555 1_555
C12_3 O5_3 1_555 1_555
C13_3 O6_3 1_555 1_555
C14_3 C13_3 1_555 1_555
C15_3 C10_3 1_555 1_555
H8_3 C15_3 1_555 1_555
C16_3 C14_3 1_555 1_555
C19_3 C16_3 1_555 1_555
C20_3 C19_3 1_555 1_555
C21_3 O8_3 1_555 1_555
C22_3 O9_3 1_555 1_555
C23_3 C22_3 1_555 1_555
C24_3 C19_3 1_555 1_555
H15_3 C24_3 1_555 1_555
C25_3 C23_3 1_555 1_555
H16_3 C25_3 1_555 1_555
C28_3 C25_3 1_555 1_555
C29_3 C28_3 1_555 1_555
C30_3 O11_3 1_555 1_555
C31_3 O12_3 1_555 1_555
C32_3 C31_3 1_555 1_555
C33_3 C28_3 1_555 1_555
C37_3 C38_3 1_555 1_555
C38_3 O13_3 1_555 1_555
C39_3 O14_3 1_555 1_555
C40_3 O15_3 1_555 1_555
C41_3 C40_3 1_555 1_555
C42_3 C37_3 1_555 1_555
H29_3 C42_3 1_555 1_555
C43_3 C41_3 1_555 1_555
H30_3 C43_3 1_555 1_555
C44_3 C43_3 1_555 1_555
H31_3 C44_3 1_555 1_555
H32_3 C44_3 1_555 1_555
C45_3 C44_3 1_555 1_555
H33_3 C45_3 1_555 1_555
H34_3 C45_3 1_555 1_555
H35_3 C45_3 1_555 1_555
C46_3 C43_3 1_555 1_555
C47_3 O16_3 1_555 1_555
C48_3 O17_3 1_555 1_555
C49_3 O18_3 1_555 1_555
C50_3 C49_3 1_555 1_555
C51_3 C46_3 1_555 1_555
H36_3 C51_3 1_555 1_555
C52_3 C50_3 1_555 1_555
H37_3 C52_3 1_555 1_555
C53_3 C52_3 1_555 1_555
H38_3 C53_3 1_555 1_555
H39_3 C53_3 1_555 1_555
C54_3 C53_3 1_555 1_555
H40_3 C54_3 1_555 1_555
H41_3 C54_3 1_555 1_555
H42_3 C54_3 1_555 1_555
C55_3 C52_3 1_555 1_555
C56_3 O19_3 1_555 1_555
C57_3 O20_3 1_555 1_555
C58_3 O21_3 1_555 1_555
C59_3 C58_3 1_555 1_555
C60_3 C55_3 1_555 1_555
H43_3 C60_3 1_555 1_555
C61_3 C59_3 1_555 1_555
H44_2 C61_3 1_555 1_555
C62_2 C61_3 1_555 1_555
H45_2 C62_2 1_555 1_555
H46_2 C62_2 1_555 1_555
C63_2 C62_2 1_555 1_555
H47_2 C63_2 1_555 1_555
H48_2 C63_2 1_555 1_555
H49_2 C63_2 1_555 1_555
C64_3 C61_3 1_555 1_555
C65_3 O22_3 1_555 1_555
C66_3 O23_3 1_555 1_555
C67_3 O24_3 1_555 1_555
C68_3 C67_3 1_555 1_555
C69_3 C64_3 1_555 1_555
H50_3 C69_3 1_555 1_555
C70_3 C37_3 1_555 1_555
H51_3 C70_3 1_555 1_555
C71_3 C70_3 1_555 1_555
H52_3 C71_3 1_555 1_555
H53_3 C71_3 1_555 1_555
C72_3 C71_3 1_555 1_555
H54_3 C72_3 1_555 1_555
H55_3 C72_3 1_555 1_555
H56_3 C72_3 1_555 1_555
C74_2 O44_2 1_555 1_555
H58_2 C74_2 1_555 1_555
C75_3 O56_2 1_555 1_555
H59_3 C75_3 1_555 1_555
C76_3 O54_2 1_555 1_555
H60_3 C76_3 1_555 1_555
C78_3 O51 1_555 1_555
H62_3 C78_3 1_555 1_555
C79_3 O35_3 1_555 1_555
H63_3 C79_3 1_555 1_555
Gd10 O14_3 1_555 1_555
Gd10 O25_3 1_555 1_555
Gd4_3 O17_3 1_555 1_555
Gd5_3 O35_3 1_555 1_555
Gd6_3 O20_3 1_555 1_555
Gd12 O44_2 1_555 1_555
Gd13 O23_3 1_555 1_555
O53_2 C79_3 1_555 1_555
O41_3 C75_3 1_555 1_555
C2_3 C3_3 1_555 1_555
C5_3 C6_3 1_555 1_555
C11_3 C12_3 1_555 1_555
C12_3 C13_3 1_555 1_555
C14_3 C15_3 1_555 1_555
C20_3 C21_3 1_555 1_555
C21_3 C22_3 1_555 1_555
C23_3 C24_3 1_555 1_555
C29_3 C30_3 1_555 1_555
C30_3 C31_3 1_555 1_555
C32_3 C33_3 1_555 1_555
C38_3 C39_3 1_555 1_555
C39_3 C40_3 1_555 1_555
C41_3 C42_3 1_555 1_555
C46_3 C47_3 1_555 1_555
C47_3 C48_3 1_555 1_555
C48_3 C49_3 1_555 1_555
C50_3 C51_3 1_555 1_555
C55_3 C56_3 1_555 1_555
C56_3 C57_3 1_555 1_555
C57_3 C58_3 1_555 1_555
C59_3 C60_3 1_555 1_555
C64_3 C65_3 1_555 1_555
C65_3 C66_3 1_555 1_555
C66_3 C67_3 1_555 1_555
C68_3 C69_3 1_555 1_555
C68_3 C70_3 1_555 1_555
O26_3 H64_3 1_555 1_555
O26_3 H65_3 1_555 1_555
O50_3 H68_3 1_555 1_555
O50_3 H69_3 1_555 1_555
O33_3 H70_3 1_555 1_555
O33_3 H71_3 1_555 1_555
O42_2 H72_3 1_555 1_555
O42_2 H73_2 1_555 1_555
O46_2 H74_2 1_555 1_555
O46_2 H75_2 1_555 1_555
O39_3 H78_3 1_555 1_555
O39_3 H79_3 1_555 1_555
O49_3 H80_2 1_555 1_555
O49_3 H81_3 1_555 1_555
O43_3 H82_3 1_555 1_555
O43_3 H83_3 1_555 1_555
O34_3 H84_3 1_555 1_555
O34_3 H85_3 1_555 1_555
H5_3 C9_3 1_555 1_555
H6_3 C9_3 1_555 1_555
H7_3 C9_3 1_555 1_555
H10_3 C17_3 1_555 1_555
H11_3 C17_3 1_555 1_555
C18_3 C17_3 1_555 1_555
H12_3 C18_3 1_555 1_555
H13_3 C18_3 1_555 1_555
H14_3 C18_3 1_555 1_555
C77_3 O31_3 1_555 1_555
H61_3 C77_3 1_555 1_555
O28_3 H66_3 1_555 1_555
O28_3 H67_3 1_555 1_555
O27_3 H76_3 1_555 1_555
O27_3 H77_3 1_555 1_555
Gd9 O2_4 1_555 1_555
Gd10_2 O4_4 1_555 1_555
Gd14 O1_4 1_555 1_555
O1_4 C1_4 1_555 1_555
O2_4 Gd14 1_555 1_555
O3_4 Gd9 1_555 1_555
O4_4 C11_4 1_555 1_555
O5_4 Gd10_2 1_555 1_555
O13_4 Gd9 1_555 1_555
O14_4 Gd9 1_555 1_555
O15_4 Gd10_2 1_555 1_555
O24_4 Gd14 1_555 1_555
O25_4 Gd9 1_555 1_555
O26_4 Gd10_2 1_555 1_555
O27_4 Gd10_2 1_555 1_555
O49_4 Gd14 1_555 1_555
O50_4 Gd14 1_555 1_555
C1_4 C2_4 1_555 1_555
C2_4 O2_4 1_555 1_555
C3_4 O3_4 1_555 1_555
C4_4 C3_4 1_555 1_555
C5_4 C4_4 1_555 1_555
H1_4 C5_4 1_555 1_555
C6_4 C1_4 1_555 1_555
C7_4 C4_4 1_555 1_555
H2_4 C7_4 1_555 1_555
C8_4 C7_4 1_555 1_555
H3_4 C8_4 1_555 1_555
H4_4 C8_4 1_555 1_555
C9_4 C8_4 1_555 1_555
H5_4 C9_4 1_555 1_555
H6_4 C9_4 1_555 1_555
H7_4 C9_4 1_555 1_555
C10_4 C7_4 1_555 1_555
C11_4 C10_4 1_555 1_555
C12_4 O5_4 1_555 1_555
C37_4 C38_4 1_555 1_555
C38_4 O13_4 1_555 1_555
C39_4 O14_4 1_555 1_555
C40_4 O15_4 1_555 1_555
C41_4 C40_4 1_555 1_555
C42_4 C37_4 1_555 1_555
H29_4 C42_4 1_555 1_555
C43_4 C41_4 1_555 1_555
H30_4 C43_4 1_555 1_555
C44_4 C43_4 1_555 1_555
H31_4 C44_4 1_555 1_555
H32_4 C44_4 1_555 1_555
C45_4 C44_4 1_555 1_555
H33_4 C45_4 1_555 1_555
H34_4 C45_4 1_555 1_555
H35_4 C45_4 1_555 1_555
C46_4 C43_4 1_555 1_555
C66_4 O23_4 1_555 1_555
C67_4 O24_4 1_555 1_555
C68_4 C67_4 1_555 1_555
C69_4 C64_4 1_555 1_555
H50_4 C69_4 1_555 1_555
C70_4 C37_4 1_555 1_555
H51_4 C70_4 1_555 1_555
C71_4 C70_4 1_555 1_555
H52_4 C71_4 1_555 1_555
H53_4 C71_4 1_555 1_555
C72_4 C71_4 1_555 1_555
H54_4 C72_4 1_555 1_555
H55_4 C72_4 1_555 1_555
H56_4 C72_4 1_555 1_555
Gd10_2 O14_4 1_555 1_555
Gd10_2 O25_4 1_555 1_555
Gd14 O23_4 1_555 1_555
C2_4 C3_4 1_555 1_555
C5_4 C6_4 1_555 1_555
C11_4 C12_4 1_555 1_555
C38_4 C39_4 1_555 1_555
C39_4 C40_4 1_555 1_555
C41_4 C42_4 1_555 1_555
C64_4 C65_4 1_555 1_555
C65_4 C66_4 1_555 1_555
C66_4 C67_4 1_555 1_555
C68_4 C69_4 1_555 1_555
C68_4 C70_4 1_555 1_555
O26_4 H64_4 1_555 1_555
O26_4 H65_4 1_555 1_555
O28_4 H66_4 1_555 1_555
O50_4 H68_4 1_555 1_555
O50_4 H69_4 1_555 1_555
O27_4 H76_4 1_555 1_555
O27_4 H77_4 1_555 1_555
O49_4 H81_4 1_555 1_555
Gd4_4 O7_4 1_555 1_555
Gd5_4 O8_4 1_555 1_555
Gd6_4 O10_4 1_555 1_555
Gd12_2 O11_4 1_555 1_555
O6_4 Gd11_2 1_555 1_555
O7_4 C20_4 1_555 1_555
O8_4 Gd4_4 1_555 1_555
O9_4 Gd5_4 1_555 1_555
O10_4 C29_4 1_555 1_555
O11_4 Gd6_4 1_555 1_555
O12_4 Gd12_2 1_555 1_555
O17_4 Gd11_2 1_555 1_555
O18_4 Gd4_4 1_555 1_555
O19_4 Gd5_4 1_555 1_555
O20_4 Gd5_4 1_555 1_555
O21_4 Gd6_4 1_555 1_555
O22_4 Gd12_2 1_555 1_555
O52_2 C78_4 1_555 1_555
O31_4 Gd11_2 1_555 1_555
O32_4 Gd4_4 1_555 1_555
O33_4 Gd4_4 1_555 1_555
O34_4 Gd4_4 1_555 1_555
O35_4 Gd4_4 1_555 1_555
O53 Gd5_4 1_555 1_555
O54 Gd5_4 1_555 1_555
O55 C76_4 1_555 1_555
O39_4 Gd5_4 1_555 1_555
O56 Gd5_4 1_555 1_555
O41_4 Gd6_4 1_555 1_555
O43_4 Gd6_4 1_555 1_555
O47_4 Gd12_2 1_555 1_555
C13_4 O6_4 1_555 1_555
C14_4 C13_4 1_555 1_555
H8_4 C15_4 1_555 1_555
C16_4 C14_4 1_555 1_555
H9_4 C16_4 1_555 1_555
C17_4 C16_4 1_555 1_555
H10_4 C17_4 1_555 1_555
H11_4 C17_4 1_555 1_555
C18_4 C17_4 1_555 1_555
H12_4 C18_4 1_555 1_555
H13_4 C18_4 1_555 1_555
H14_4 C18_4 1_555 1_555
C19_4 C16_4 1_555 1_555
C20_4 C19_4 1_555 1_555
C21_4 O8_4 1_555 1_555
C22_4 O9_4 1_555 1_555
C23_4 C22_4 1_555 1_555
C24_4 C19_4 1_555 1_555
H15_4 C24_4 1_555 1_555
C25_4 C23_4 1_555 1_555
H16_4 C25_4 1_555 1_555
C28_4 C25_4 1_555 1_555
C29_4 C28_4 1_555 1_555
C30_4 O11_4 1_555 1_555
C31_4 O12_4 1_555 1_555
C32_4 C31_4 1_555 1_555
C33_4 C28_4 1_555 1_555
C48_4 O17_4 1_555 1_555
C49_4 O18_4 1_555 1_555
C50_4 C49_4 1_555 1_555
H36_4 C51_4 1_555 1_555
C52_4 C50_4 1_555 1_555
H37_4 C52_4 1_555 1_555
C53_4 C52_4 1_555 1_555
H38_4 C53_4 1_555 1_555
H39_4 C53_4 1_555 1_555
C54_4 C53_4 1_555 1_555
H40_4 C54_4 1_555 1_555
H41_4 C54_4 1_555 1_555
H42_4 C54_4 1_555 1_555
C55_4 C52_4 1_555 1_555
C56_4 O19_4 1_555 1_555
C57_4 O20_4 1_555 1_555
C58_4 O21_4 1_555 1_555
C59_4 C58_4 1_555 1_555
C60_4 C55_4 1_555 1_555
H43_4 C60_4 1_555 1_555
C61_4 C59_4 1_555 1_555
C75_4 O56 1_555 1_555
H59_4 C75_4 1_555 1_555
C76_4 O54 1_555 1_555
H60_4 C76_4 1_555 1_555
C77_4 O31_4 1_555 1_555
H61_4 C77_4 1_555 1_555
C78_4 O51_2 1_555 1_555
H62_4 C78_4 1_555 1_555
C79_4 O35_4 1_555 1_555
H63_4 C79_4 1_555 1_555
Gd4_4 O17_4 1_555 1_555
Gd5_4 O35_4 1_555 1_555
Gd6_4 O20_4 1_555 1_555
O32_4 C77_4 1_555 1_555
O53 C79_4 1_555 1_555
O41_4 C75_4 1_555 1_555
C14_4 C15_4 1_555 1_555
C20_4 C21_4 1_555 1_555
C21_4 C22_4 1_555 1_555
C23_4 C24_4 1_555 1_555
C29_4 C30_4 1_555 1_555
C30_4 C31_4 1_555 1_555
C32_4 C33_4 1_555 1_555
C47_4 C48_4 1_555 1_555
C48_4 C49_4 1_555 1_555
C50_4 C51_4 1_555 1_555
C55_4 C56_4 1_555 1_555
C56_4 C57_4 1_555 1_555
C57_4 C58_4 1_555 1_555
C59_4 C60_4 1_555 1_555
O33_4 H70_4 1_555 1_555
O33_4 H71_4 1_555 1_555
O39_4 H78_4 1_555 1_555
O39_4 H79_4 1_555 1_555
O43_4 H82_4 1_555 1_555
O43_4 H83_4 1_555 1_555
O34_4 H84_4 1_555 1_555
O34_4 H85_4 1_555 1_555
O57_2 C73_4 1_555 1_555
H57_4 C73_4 1_555 1_555
H17_3 C26_3 1_555 1_555
H18_3 C26_3 1_555 1_555
C27_3 C26_3 1_555 1_555
H19_3 C27_3 1_555 1_555
H20_3 C27_3 1_555 1_555
H21_3 C27_3 1_555 1_555
H24_3 C35_3 1_555 1_555
C36_3 C35_3 1_555 1_555
H26_3 C36_3 1_555 1_555
H27_3 C36_3 1_555 1_555
H28_3 C36_3 1_555 1_555
H23_3 C34_3 1_555 1_555
O45_3 C74_3 1_555 1_555
H45_3 C62_3 1_555 1_555
C63_3 C62_3 1_555 1_555
H47_3 C63_3 1_555 1_555
H48_3 C63_3 1_555 1_555
H49_3 C63_3 1_555 1_555
C74_3 O44_3 1_555 1_555
H58_3 C74_3 1_555 1_555
O42_3 H73_3 1_555 1_555
O46_3 H75_3 1_555 1_555
O46_4 H75_4 1_555 1_555
O45_4 C74_4 1_555 1_555
H45_4 C62_4 1_555 1_555
C63_4 C62_4 1_555 1_555
H47_4 C63_4 1_555 1_555
H48_4 C63_4 1_555 1_555
H49_4 C63_4 1_555 1_555
C74_4 O44_4 1_555 1_555
H58_4 C74_4 1_555 1_555
O42_4 H73_4 1_555 1_555
H23_4 C34_4 1_555 1_555
H17_4 C26_4 1_555 1_555
H18_4 C26_4 1_555 1_555
C27_4 C26_4 1_555 1_555
H19_4 C27_4 1_555 1_555
H20_4 C27_4 1_555 1_555
H21_4 C27_4 1_555 1_555
H24_4 C35_4 1_555 1_555
C36_4 C35_4 1_555 1_555
H26_4 C36_4 1_555 1_555
H27_4 C36_4 1_555 1_555
H28_4 C36_4 1_555 1_555

#END
