
###############################################################################
#
# This file contains modified crystal structure data generated from the
# MOF subset of the Cambridge Structural Database (CSD) v543 
# hosted by the Cambridge Crystallographic Data Centre (CCDC).
#
# This work is licensed under the Creative Commons
# Attribution-NonCommercial-ShareAlike 4.0 International License.
# To view a copy of this license, visit
# http://creativecommons.org/licenses/by-nc-sa/4.0/
# or send a letter to
# Creative Commons, PO Box 1866, Mountain View, CA 94042, USA.
#
# CIF created using the CSD Python API on 29 September 2022
# The structure has been converted into the P1 space group
# The structure has a 3D framework
# The original CSD entry JIDBEG is in the monoclinic crystal system
# The framework has been calculated to contain at least 10.0% void space
# The void calculation uses a probe of radius 1.32A, grid spacing 0.4
# The framework is charged, counterions have been retained in the structure
# H atom positions have been added when not included in the experimental data
#
###############################################################################

data_JIDBEG
_chemical_formula_moiety         '(C316 H332 Dy32 O194 28-)n'
_symmetry_cell_setting           triclinic
_symmetry_space_group_name_H-M   'P 1'
_symmetry_Int_Tables_number      1
_space_group_name_Hall           'P 1'
loop_
_symmetry_equiv_pos_site_id
_symmetry_equiv_pos_as_xyz
1 x,y,z
_cell_length_a                   21.0223(3)
_cell_length_b                   21.9168(4)
_cell_length_c                   29.2091(3)
_cell_angle_alpha                90
_cell_angle_beta                 96.0880(10)
_cell_angle_gamma                90
_cell_volume                     13381.9
loop_
_atom_site_label
_atom_site_type_symbol
_atom_site_fract_x
_atom_site_fract_y
_atom_site_fract_z
O27 O 0.3291(6) 0.0179(5) 0.6524(4)
O28 O 0.3703(7) 0.0737(7) 0.5055(5)
O30 O 0.5661(4) 0.0050(4) 0.3950(3)
O31 O 0.4037(6) 0.0409(7) 0.4158(4)
C9 C 0.0607(10) 0.0434(9) 0.5648(8)
H5 H 0.091536 0.050152 0.591891
H6 H 0.020366 0.063939 0.569120
H7 H 0.077829 0.059849 0.537434
H9 H 0.209056 0.014148 0.396512
C17 C 0.1128(7) 0.0286(7) 0.3976(6)
H10 H 0.076793 0.007915 0.410448
H11 H 0.101702 0.032459 0.363887
C18 C 0.1219(11) 0.0932(8) 0.4191(9)
H12 H 0.118980 0.090812 0.452307
H13 H 0.088558 0.120537 0.404925
H14 H 0.164060 0.109114 0.413648
C77 C 0.3949(8) 0.0402(9) 0.3714(6)
H61 H 0.388047 0.078177 0.356015
Dy10 Dy 0.64584(3) 0.07404(3) 0.38302(2)
Dy11 Dy 0.59169(3) 0.02676(4) 0.52088(2)
O50 O 0.4821(3) 0.0123(4) 0.5418(2)
H64 H 0.382449 0.0780451 0.539131
H65 H 0.390263 0.10702 0.488953
H68 H 0.296994 0.00999704 0.674293
H69 H 0.368445 0.035232 0.669323
Dy1 Dy 0.24998(5) 0.78609(3) 0.66841(2)
Dy2 Dy 0.35416(3) 0.92596(3) 0.61698(2)
Dy3 Dy 0.40831(3) 0.97324(4) 0.47912(2)
Dy4 Dy 0.36949(3) 0.88845(4) 0.34258(2)
Dy5 Dy 0.26841(4) 0.73088(5) 0.29496(2)
Dy6 Dy 0.15906(4) 0.58723(4) 0.35147(3)
Dy7 Dy 0.11081(4) 0.54675(3) 0.48223(2)
Dy8 Dy 0.14296(5) 0.62136(4) 0.61373(3)
O1 O 0.0719(5) 0.6795(4) 0.5678(3)
O2 O 0.1669(5) 0.7304(4) 0.6243(3)
O3 O 0.1849(4) 0.8523(4) 0.6269(3)
O4 O 0.2459(4) 0.9324(4) 0.5947(3)
O5 O 0.3354(3) 0.9492(4) 0.5365(2)
O6 O 0.3032(3) 0.9780(4) 0.4476(2)
O7 O 0.2818(4) 0.9353(4) 0.3706(3)
O8 O 0.2790(4) 0.8254(5) 0.3314(3)
O9 O 0.1703(4) 0.7619(5) 0.3139(3)
O10 O 0.1102(4) 0.6834(4) 0.3463(3)
O11 O 0.1174(4) 0.6122(4) 0.4196(3)
O12 O 0.0539(4) 0.6353(4) 0.4919(3)
O13 O 0.3117(5) 0.7069(4) 0.6480(3)
O14 O 0.3281(4) 0.8237(4) 0.6252(2)
O15 O 0.4300(4) 0.8635(4) 0.5874(2)
O16 O 0.4595(4) 0.8888(4) 0.5115(3)
O17 O 0.4088(4) 0.8930(4) 0.4231(3)
O18 O 0.4199(4) 0.7984(5) 0.3663(3)
O19 O 0.3621(4) 0.7087(5) 0.3377(3)
O20 O 0.2518(4) 0.6485(4) 0.3442(3)
O21 O 0.2470(5) 0.5521(4) 0.4008(4)
O22 O 0.2182(5) 0.5270(4) 0.4742(4)
O23 O 0.1776(5) 0.5846(4) 0.5455(3)
O24 O 0.2538(5) 0.6178(4) 0.6201(3)
O25 O 0.2929(7) 0.8926(5) 0.6894(3)
O26 O 0.4284(6) 0.9078(5) 0.6843(3)
O29 O 0.5179(3) 0.9877(4) 0.4582(2)
O32 O 0.3949(8) 0.9955(8) 0.3484(5)
O33 O 0.4688(5) 0.9015(6) 0.3156(4)
O34 O 0.3253(7) 0.9352(6) 0.2725(5)
O35 O 0.3681(6) 0.8048(5) 0.2761(3)
O36 O 0.3369(7) 0.7207(6) 0.2334(4)
O37 O 0.2283(5) 0.7885(4) 0.2252(3)
O38 O 0.1805(7) 0.8710(6) 0.1921(4)
O39 O 0.0481(7) 0.6204(6) 0.6530(4)
O40 O 0.2025(5) 0.6792(5) 0.2339(3)
O41 O 0.1480(6) 0.6125(7) 0.2726(4)
O42 O 0.1847(7) 0.5015(7) 0.3104(5)
O43 O 0.0544(6) 0.5599(6) 0.3210(4)
O44 O 0.1281(5) 0.4978(4) 0.4054(3)
O45 O 0.1208(14) 0.4011(12) 0.4217(9)
O46 O 0.1091(8) 0.4446(5) 0.5066(4)
O47 O 0.0080(5) 0.5202(4) 0.4518(3)
O49 O 0.1567(7) 0.5190(5) 0.6385(4)
C1 C 0.0772(7) 0.7430(5) 0.5670(4)
C2 C 0.1266(7) 0.7669(6) 0.5959(5)
C3 C 0.1367(7) 0.8303(5) 0.5977(5)
C4 C 0.0975(6) 0.8676(6) 0.5686(5)
C5 C 0.0471(6) 0.8402(5) 0.5391(5)
H1 H 0.019891 0.865545 0.519257
C6 C 0.0367(6) 0.7787(6) 0.5384(5)
C7 C 0.1104(6) 0.9365(6) 0.5685(5)
H2 H 0.130459 0.947792 0.599887
C8 C 0.0487(7) 0.9751(6) 0.5585(7)
H3 H 0.029973 0.967388 0.526461
H4 H 0.017175 0.961857 0.579321
C10 C 0.1602(5) 0.9501(5) 0.5339(4)
C11 C 0.2250(6) 0.9462(5) 0.5501(4)
C12 C 0.2724(5) 0.9552(5) 0.5205(4)
C13 C 0.2537(5) 0.9702(5) 0.4745(4)
C14 C 0.1901(5) 0.9767(5) 0.4579(4)
C15 C 0.1450(5) 0.9660(5) 0.4888(5)
H8 H 0.101076 0.969956 0.477790
C16 C 0.1730(6) 0.9899(6) 0.4070(5)
C19 C 0.1693(5) 0.9312(6) 0.3799(4)
C20 C 0.2247(6) 0.9065(6) 0.3660(4)
C21 C 0.2235(5) 0.8494(6) 0.3445(4)
C22 C 0.1667(5) 0.8159(7) 0.3358(4)
C23 C 0.1091(5) 0.8402(6) 0.3495(4)
C24 C 0.1120(5) 0.8968(6) 0.3717(4)
H15 H 0.073864 0.912952 0.381699
C25 C 0.0477(5) 0.8017(6) 0.3423(4)
H16 H 0.050599 0.775916 0.314335
C28 C 0.0453(5) 0.7593(6) 0.3825(4)
C29 C 0.0785(5) 0.7042(6) 0.3824(4)
C30 C 0.0827(5) 0.6640(5) 0.4193(4)
C31 C 0.0493(6) 0.6780(6) 0.4581(4)
C32 C 0.0155(5) 0.7337(5) 0.4592(4)
C33 C 0.0156(5) 0.7722(6) 0.4211(5)
C37 C 0.4087(8) 0.6771(7) 0.6127(5)
C38 C 0.3646(7) 0.7198(7) 0.6247(4)
C39 C 0.3726(6) 0.7816(6) 0.6153(4)
C40 C 0.4265(6) 0.8012(7) 0.5936(4)
C41 C 0.4689(6) 0.7599(7) 0.5803(5)
C42 C 0.4601(7) 0.6979(7) 0.5902(5)
H29 H 0.490218 0.669085 0.581229
C43 C 0.5238(7) 0.7812(8) 0.5542(6)
H30 H 0.533369 0.824149 0.564365
C44 C 0.5858(8) 0.7462(9) 0.5643(7)
H31 H 0.618025 0.760680 0.544473
H32 H 0.578594 0.702032 0.558836
C45 C 0.6086(18) 0.7583(16) 0.6156(12)
H33 H 0.591610 0.797559 0.624807
H34 H 0.655411 0.759361 0.619903
H35 H 0.593089 0.725674 0.634475
C46 C 0.4983(6) 0.7848(7) 0.5030(5)
C47 C 0.4682(6) 0.8377(7) 0.4855(4)
C48 C 0.4419(5) 0.8413(7) 0.4398(4)
C49 C 0.4483(6) 0.7904(8) 0.4115(4)
C50 C 0.4788(5) 0.7388(8) 0.4269(6)
C51 C 0.5032(6) 0.7363(8) 0.4721(5)
H36 H 0.524499 0.700080 0.483142
C52 C 0.4805(6) 0.6823(9) 0.3953(6)
H37 H 0.478955 0.698873 0.363341
C53 C 0.5424(12) 0.6515(11) 0.4038(9)
H38 H 0.554146 0.647048 0.437344
H39 H 0.575754 0.676236 0.391081
C54 C 0.5388(17) 0.5903(13) 0.3817(12)
H40 H 0.574955 0.585150 0.363419
H41 H 0.498618 0.586627 0.361598
H42 H 0.540585 0.558644 0.405531
C55 C 0.4189(7) 0.6451(8) 0.3962(6)
C56 C 0.3630(6) 0.6612(8) 0.3682(6)
C57 C 0.3070(6) 0.6310(6) 0.3703(4)
C58 C 0.3046(6) 0.5811(7) 0.4006(6)
C59 C 0.3588(7) 0.5625(7) 0.4295(6)
C60 C 0.4158(7) 0.5973(8) 0.4260(7)
H43 H 0.453365 0.586570 0.445359
C61 C 0.3531(9) 0.5116(8) 0.4654(6)
H44 H 0.319578 0.482763 0.451599
C62 C 0.4106(12) 0.4733(11) 0.4823(7)
H45 H 0.445451 0.500090 0.496003
H46 H 0.399002 0.445049 0.506591
C63 C 0.4328(10) 0.4382(10) 0.4446(7)
H47 H 0.471544 0.415649 0.455856
H48 H 0.442319 0.466079 0.419972
H49 H 0.399392 0.409470 0.432628
C64 C 0.3294(8) 0.5368(6) 0.5076(6)
C65 C 0.2640(8) 0.5463(6) 0.5082(6)
C66 C 0.2383(9) 0.5745(7) 0.5461(5)
C67 C 0.2839(9) 0.5916(6) 0.5846(6)
C68 C 0.3486(9) 0.5850(7) 0.5838(6)
C69 C 0.3732(9) 0.5573(7) 0.5452(7)
H50 H 0.417968 0.552581 0.544477
C70 C 0.3929(9) 0.6099(8) 0.6227(6)
H51 H 0.368607 0.610187 0.650363
C71 C 0.4519(16) 0.5717(15) 0.6352(11)
H52 H 0.481180 0.574944 0.610943
H53 H 0.439924 0.528330 0.638297
C72 C 0.4852(15) 0.5960(14) 0.6817(10)
H54 H 0.524405 0.572779 0.690580
H55 H 0.455685 0.590931 0.705273
H56 H 0.495728 0.639302 0.678949
C74 C 0.1360(11) 0.4441(10) 0.3965(7)
H58 H 0.154577 0.434304 0.369183
C75 C 0.1594(10) 0.6392(8) 0.2371(5)
H59 H 0.133458 0.628904 0.209539
C76 C 0.2033(9) 0.8400(8) 0.2255(6)
H60 H 0.201461 0.857881 0.254921
C78 C 0.5292(5) 0.9776(6) 0.4169(4)
H62 H 0.506161 0.945050 0.401420
C79 C 0.3811(9) 0.7768(9) 0.2451(5)
H63 H 0.415813 0.787018 0.228171
Dy9 Dy 0.24998(5) 0.71391(3) 0.16841(2)
Dy14 Dy 0.14296(5) 0.87864(4) 0.11373(3)
O51 O 0.4339(4) 0.9950(4) 0.6050(3)
O52 O 0.3369(7) 0.7793(6) 0.7334(4)
O53 O 0.2283(5) 0.7115(4) 0.7252(3)
O54 O 0.1805(7) 0.6290(6) 0.6921(4)
O55 O 0.2025(5) 0.8208(5) 0.7339(3)
O56 O 0.0660(5) 0.5507(4) 0.5596(3)
H66 H 0.212567 0.513583 0.286531
H67 H 0.207624 0.471607 0.331733
H70 H 0.0436613 0.580538 0.290908
H71 H 0.0519603 0.515 0.31661
H72 H 0.323989 0.980129 0.276687
H73 H 0.352287 0.925257 0.247595
H74 H 0.158959 0.492109 0.611359
H75 H 0.196953 0.515335 0.659414
H76 H 0.149344 0.424098 0.500207
H77 H 0.105193 0.443229 0.540167
H78 H 0.498576 0.921315 0.339796
H79 H 0.486181 0.861122 0.307811
H80 H 0.0122015 0.602327 0.632602
H81 H 0.0559175 0.595667 0.681526
H82 H 0.420462 0.866773 0.696954
H83 H 0.472844 0.90982 0.675785
O48 O 0.9340(5) 0.4493(4) 0.4404(3)
C26 C 0.9869(7) 0.8421(8) 0.3329(6)
H17 H 0.981404 0.867148 0.360441
H18 H 0.991751 0.870023 0.306872
C27 C 0.9273(10) 0.8013(10) 0.3214(8)
H19 H 0.935883 0.771632 0.297665
H20 H 0.890731 0.826758 0.309926
H21 H 0.917665 0.779658 0.349147
H22 H 0.993649 0.809979 0.421871
C34 C 0.9844(6) 0.7494(6) 0.5026(5)
H23 H 0.972415 0.709683 0.516175
C35 C 0.9254(6) 0.7853(7) 0.4953(7)
H24 H 0.935182 0.825077 0.481593
H25 H 0.909802 0.793497 0.525522
C36 C 0.8715(12) 0.7538(12) 0.4637(9)
H26 H 0.883096 0.752734 0.432103
H27 H 0.831567 0.776727 0.464471
H28 H 0.865623 0.712092 0.474535
C73 C 0.9813(8) 0.4782(7) 0.4300(5)
H57 H 0.998324 0.466528 0.402386
Dy12 Dy 0.88919(4) 0.45325(3) 0.51777(2)
Dy13 Dy 0.85704(5) 0.37864(4) 0.38627(3)
O48_2 O 0.0660(5) 0.9493(4) 0.0596(3)
C73_2 C 0.0187(8) 0.9782(7) 0.0700(5)
H57_2 H 0.001676 0.966528 0.097614
Dy12_2 Dy 0.11081(4) 0.95325(3) 0.98223(2)
Dy3_2 Dy 0.59169(3) 0.47324(4) 0.02088(2)
Dy4_2 Dy 0.63051(3) 0.38845(4) 0.15742(2)
Dy5_2 Dy 0.73159(4) 0.23088(5) 0.20504(2)
Dy6_2 Dy 0.84094(4) 0.08723(4) 0.14853(3)
Dy7_2 Dy 0.88919(4) 0.04675(3) 0.01777(2)
O6_2 O 0.6968(3) 0.4780(4) 0.0524(2)
O7_2 O 0.7182(4) 0.4353(4) 0.1294(3)
O8_2 O 0.7210(4) 0.3254(5) 0.1686(3)
O9_2 O 0.8297(4) 0.2619(5) 0.1861(3)
O10_2 O 0.8898(4) 0.1834(4) 0.1537(3)
O11_2 O 0.8826(4) 0.1122(4) 0.0804(3)
O12_2 O 0.9461(4) 0.1353(4) 0.0081(3)
O17_2 O 0.5912(4) 0.3930(4) 0.0769(3)
O18_2 O 0.5801(4) 0.2984(5) 0.1337(3)
O19_2 O 0.6379(4) 0.2087(5) 0.1623(3)
O20_2 O 0.7482(4) 0.1485(4) 0.1558(3)
O21_2 O 0.7530(5) 0.0521(4) 0.0992(4)
O22_2 O 0.7818(5) 0.0270(4) 0.0258(4)
O29_2 O 0.4821(3) 0.4877(4) 0.0418(2)
O30_2 O 0.4339(4) 0.5050(4) 0.1050(3)
O31_2 O 0.5963(6) 0.5409(7) 0.0842(4)
O32_2 O 0.6051(8) 0.4955(8) 0.1516(5)
O33_2 O 0.5312(5) 0.4015(6) 0.1844(4)
O34_2 O 0.6747(7) 0.4352(6) 0.2275(5)
O35_2 O 0.6319(6) 0.3048(5) 0.2239(3)
O36_2 O 0.6631(7) 0.2207(6) 0.2666(4)
O37_2 O 0.7717(5) 0.2885(4) 0.2748(3)
O38_2 O 0.8195(7) 0.3710(6) 0.3079(4)
O40_2 O 0.7975(5) 0.1792(5) 0.2661(3)
O41_2 O 0.8520(6) 0.1125(7) 0.2274(4)
O42_2 O 0.8153(7) 0.0015(7) 0.1896(5)
O43_2 O 0.9456(6) 0.0599(6) 0.1790(4)
O47_2 O 0.9920(5) 0.0202(4) 0.0482(3)
C13_2 C 0.7463(5) 0.4702(5) 0.0255(4)
C14_2 C 0.8099(5) 0.4767(5) 0.0421(4)
C15_2 C 0.8550(5) 0.4660(5) 0.0112(5)
H8_2 H 0.898924 0.469956 0.022210
C16_2 C 0.8270(6) 0.4899(6) 0.0930(5)
H9_2 H 0.790944 0.514148 0.103488
C17_2 C 0.8872(7) 0.5286(7) 0.1024(6)
H10_2 H 0.923207 0.507915 0.089552
H11_2 H 0.898298 0.532459 0.136113
C18_2 C 0.8781(11) 0.5932(8) 0.0809(9)
H12_2 H 0.881020 0.590812 0.047693
H13_2 H 0.911442 0.620537 0.095075
H14_2 H 0.835940 0.609114 0.086352
C19_2 C 0.8307(5) 0.4312(6) 0.1201(4)
C20_2 C 0.7753(6) 0.4065(6) 0.1340(4)
C21_2 C 0.7765(5) 0.3494(6) 0.1555(4)
C22_2 C 0.8333(5) 0.3159(7) 0.1642(4)
C23_2 C 0.8909(5) 0.3402(6) 0.1505(4)
C24_2 C 0.8880(5) 0.3968(6) 0.1283(4)
H15_2 H 0.926136 0.412952 0.118301
C25_2 C 0.9523(5) 0.3017(6) 0.1577(4)
H16_2 H 0.949401 0.275916 0.185665
C28_2 C 0.9547(5) 0.2593(6) 0.1175(4)
C29_2 C 0.9215(5) 0.2042(6) 0.1176(4)
C30_2 C 0.9173(5) 0.1640(5) 0.0807(4)
C31_2 C 0.9507(6) 0.1780(6) 0.0419(4)
C32_2 C 0.9845(5) 0.2337(5) 0.0408(4)
C33_2 C 0.9844(5) 0.2722(6) 0.0789(5)
C47_2 C 0.5318(6) 0.3377(7) 0.0145(4)
C48_2 C 0.5581(5) 0.3413(7) 0.0602(4)
C49_2 C 0.5517(6) 0.2904(8) 0.0885(4)
C50_2 C 0.5212(5) 0.2388(8) 0.0731(6)
C51_2 C 0.4968(6) 0.2363(8) 0.0279(5)
H36_2 H 0.475501 0.200080 0.016858
C52_2 C 0.5195(6) 0.1823(9) 0.1047(6)
H37_2 H 0.521045 0.198873 0.136659
C53_2 C 0.4576(12) 0.1515(11) 0.0962(9)
H38_2 H 0.445854 0.147048 0.062656
H39_2 H 0.424246 0.176236 0.108919
C54_2 C 0.4612(17) 0.0903(13) 0.1183(12)
H40_2 H 0.425045 0.085150 0.136581
H41_2 H 0.501382 0.086627 0.138402
H42_2 H 0.459415 0.058644 0.094469
C55_2 C 0.5811(7) 0.1451(8) 0.1038(6)
C56_2 C 0.6370(6) 0.1612(8) 0.1318(6)
C57_2 C 0.6930(6) 0.1310(6) 0.1297(4)
C58_2 C 0.6954(6) 0.0811(7) 0.0994(6)
C59_2 C 0.6412(7) 0.0625(7) 0.0705(6)
C60_2 C 0.5842(7) 0.0973(8) 0.0740(7)
H43_2 H 0.546635 0.086570 0.054641
C61_2 C 0.6469(9) 0.0116(8) 0.0346(6)
H45_2 H 0.554549 0.000090 0.003997
C75_2 C 0.8406(10) 0.1392(8) 0.2629(5)
H59_2 H 0.866542 0.128904 0.290461
C76_2 C 0.7967(9) 0.3400(8) 0.2745(6)
H60_2 H 0.798539 0.357881 0.245079
C77_2 C 0.6051(8) 0.5402(9) 0.1286(6)
H61_2 H 0.611953 0.578177 0.143985
C78_2 C 0.4708(5) 0.4776(6) 0.0831(4)
H62_2 H 0.493839 0.445050 0.098580
C79_2 C 0.6189(9) 0.2768(9) 0.2549(5)
H63_2 H 0.584187 0.287018 0.271829
Dy9_2 Dy 0.75002(5) 0.21391(3) 0.33159(2)
Dy10_2 Dy 0.35416(3) 0.57404(3) 0.11698(2)
H65_2 H 0.609737 0.60702 0.011047
H66_2 H 0.787433 0.0135826 0.213469
H70_2 H 0.956339 0.080538 0.209092
H71_2 H 0.94804 0.0150002 0.18339
H72_2 H 0.676011 0.480129 0.223313
H73_2 H 0.647713 0.425257 0.252405
H78_2 H 0.501424 0.421315 0.160204
H79_2 H 0.513819 0.361122 0.192189
Dy1_2 Dy 0.75002(5) 0.28609(3) 0.83159(2)
Dy2_2 Dy 0.64584(3) 0.42596(3) 0.88302(2)
Dy8_2 Dy 0.85704(5) 0.12136(4) 0.88627(3)
O1_2 O 0.9281(5) 0.1795(4) 0.9322(3)
O2_2 O 0.8331(5) 0.2304(4) 0.8757(3)
O3_2 O 0.8151(4) 0.3523(4) 0.8731(3)
O4_2 O 0.7541(4) 0.4324(4) 0.9053(3)
O5_2 O 0.6646(3) 0.4492(4) 0.9635(2)
O13_2 O 0.6883(5) 0.2069(4) 0.8520(3)
O14_2 O 0.6719(4) 0.3237(4) 0.8748(2)
O15_2 O 0.5700(4) 0.3635(4) 0.9126(2)
O16_2 O 0.5405(4) 0.3888(4) 0.9885(3)
O23_2 O 0.8224(5) 0.0846(4) 0.9545(3)
O24_2 O 0.7462(5) 0.1178(4) 0.8799(3)
O25_2 O 0.7071(7) 0.3926(5) 0.8106(3)
O26_2 O 0.5716(6) 0.4078(5) 0.8157(3)
O27_2 O 0.6709(6) 0.5179(5) 0.8476(4)
O28_2 O 0.6297(7) 0.5737(7) 0.9945(5)
O39_2 O 0.9519(7) 0.1204(6) 0.8470(4)
O49_2 O 0.8433(7) 0.0190(5) 0.8615(4)
C1_2 C 0.9228(7) 0.2430(5) 0.9330(4)
C2_2 C 0.8734(7) 0.2669(6) 0.9041(5)
C3_2 C 0.8633(7) 0.3303(5) 0.9023(5)
C4_2 C 0.9025(6) 0.3676(6) 0.9314(5)
C5_2 C 0.9529(6) 0.3402(5) 0.9609(5)
H1_2 H 0.980109 0.365545 0.980743
C6_2 C 0.9633(6) 0.2787(6) 0.9616(5)
C7_2 C 0.8896(6) 0.4365(6) 0.9315(5)
H2_2 H 0.869541 0.447792 0.900113
C8_2 C 0.9513(7) 0.4751(6) 0.9415(7)
H3_2 H 0.970027 0.467388 0.973539
H4_2 H 0.982825 0.461857 0.920679
C9_2 C 0.9393(10) 0.5434(9) 0.9352(8)
H5_2 H 0.908464 0.550152 0.908109
H6_2 H 0.979634 0.563939 0.930880
H7_2 H 0.922171 0.559849 0.962566
C10_2 C 0.8398(5) 0.4501(5) 0.9661(4)
C11_2 C 0.7750(6) 0.4462(5) 0.9499(4)
C12_2 C 0.7276(5) 0.4552(5) 0.9795(4)
C37_2 C 0.5913(8) 0.1771(7) 0.8873(5)
C38_2 C 0.6354(7) 0.2198(7) 0.8753(4)
C39_2 C 0.6274(6) 0.2816(6) 0.8847(4)
C40_2 C 0.5735(6) 0.3012(7) 0.9064(4)
C41_2 C 0.5311(6) 0.2599(7) 0.9197(5)
C42_2 C 0.5399(7) 0.1979(7) 0.9098(5)
H29_2 H 0.509782 0.169085 0.918771
C43_2 C 0.4762(7) 0.2812(8) 0.9458(6)
H30_2 H 0.466631 0.324149 0.935635
C44_2 C 0.4142(8) 0.2462(9) 0.9357(7)
H31_2 H 0.381975 0.260680 0.955527
H32_2 H 0.421406 0.202032 0.941164
C45_2 C 0.3914(18) 0.2583(16) 0.8844(12)
H33_2 H 0.408390 0.297559 0.875193
H34_2 H 0.344589 0.259361 0.880097
H35_2 H 0.406911 0.225674 0.865525
C46_2 C 0.5017(6) 0.2848(7) 0.9970(5)
C64_2 C 0.6706(8) 0.0368(6) 0.9924(6)
C65_2 C 0.7360(8) 0.0463(6) 0.9918(6)
C66_2 C 0.7617(9) 0.0745(7) 0.9539(5)
C67_2 C 0.7161(9) 0.0916(6) 0.9154(6)
C68_2 C 0.6514(9) 0.0850(7) 0.9162(6)
C69_2 C 0.6268(9) 0.0573(7) 0.9548(7)
H50_2 H 0.582032 0.052581 0.955523
C70_2 C 0.6071(9) 0.1099(8) 0.8773(6)
H51_2 H 0.631393 0.110187 0.849637
C71_2 C 0.5481(16) 0.0717(15) 0.8648(11)
H52_2 H 0.518820 0.074944 0.889057
H53_2 H 0.560076 0.028330 0.861703
C72_2 C 0.5148(15) 0.0960(14) 0.8183(10)
H54_2 H 0.475595 0.072779 0.809420
H55_2 H 0.544315 0.090931 0.794727
H56_2 H 0.504272 0.139302 0.821051
Dy11_2 Dy 0.40831(3) 0.52676(4) 0.97912(2)
O50_2 O 0.5179(3) 0.5123(4) 0.9582(2)
O51_2 O 0.5661(4) 0.4950(4) 0.8950(3)
O52_2 O 0.6631(7) 0.2793(6) 0.7666(4)
O53_2 O 0.7717(5) 0.2115(4) 0.7748(3)
O54_2 O 0.8195(7) 0.1290(6) 0.8079(4)
O55_2 O 0.7975(5) 0.3208(5) 0.7661(3)
O56_2 O 0.9340(5) 0.0507(4) 0.9404(3)
H64_2 H 0.617551 0.578045 0.960869
H68_2 H 0.703006 0.509997 0.825707
H69_2 H 0.631555 0.535232 0.830677
H75_2 H 0.803047 0.0153347 0.840586
H80_2 H 0.987799 0.102327 0.867398
H81_2 H 0.944082 0.0956673 0.818474
H82_2 H 0.579538 0.366773 0.803046
H83_2 H 0.527156 0.40982 0.824215
C26_2 C 0.0131(7) 0.1579(8) 0.6671(6)
H17_2 H 0.018596 0.132852 0.639559
H18_2 H 0.008249 0.129977 0.693128
C27_2 C 0.0727(10) 0.1987(10) 0.6786(8)
H19_2 H 0.064117 0.228368 0.702335
H20_2 H 0.109269 0.173242 0.690074
H21_2 H 0.082335 0.220342 0.650853
H22_2 H 0.006351 0.190021 0.578129
C34_2 C 0.0156(6) 0.2506(6) 0.4974(5)
H23_2 H 0.027585 0.290317 0.483825
C35_2 C 0.0746(6) 0.2147(7) 0.5047(7)
H24_2 H 0.064818 0.174923 0.518407
H25_2 H 0.090198 0.206503 0.474478
C36_2 C 0.1285(12) 0.2462(12) 0.5363(9)
H26_2 H 0.116904 0.247266 0.567897
H27_2 H 0.168433 0.223273 0.535529
H28_2 H 0.134377 0.287908 0.525465
C73_3 C 0.0187(8) 0.5218(7) 0.5700(5)
H57_3 H 0.001676 0.533472 0.597614
Dy4_3 Dy 0.63051(3) 0.11155(4) 0.65742(2)
Dy5_3 Dy 0.73159(4) 0.26912(5) 0.70504(2)
Dy6_3 Dy 0.84094(4) 0.41277(4) 0.64853(3)
O1_3 O 0.9281(5) 0.3205(4) 0.4322(3)
O2_3 O 0.8331(5) 0.2696(4) 0.3757(3)
O3_3 O 0.8151(4) 0.1477(4) 0.3731(3)
O4_3 O 0.7541(4) 0.0676(4) 0.4053(3)
O5_3 O 0.6646(3) 0.0508(4) 0.4635(2)
O6_3 O 0.6968(3) 0.0220(4) 0.5524(2)
O7_3 O 0.7182(4) 0.0647(4) 0.6294(3)
O8_3 O 0.7210(4) 0.1746(5) 0.6686(3)
O9_3 O 0.8297(4) 0.2381(5) 0.6861(3)
O10_3 O 0.8898(4) 0.3166(4) 0.6537(3)
O11_3 O 0.8826(4) 0.3878(4) 0.5804(3)
O12_3 O 0.9461(4) 0.3647(4) 0.5081(3)
O13_3 O 0.6883(5) 0.2931(4) 0.3520(3)
O14_3 O 0.6719(4) 0.1763(4) 0.3748(2)
O15_3 O 0.5700(4) 0.1365(4) 0.4126(2)
O16_3 O 0.5405(4) 0.1112(4) 0.4885(3)
O17_3 O 0.5912(4) 0.1070(4) 0.5769(3)
O18_3 O 0.5801(4) 0.2016(5) 0.6337(3)
O19_3 O 0.6379(4) 0.2913(5) 0.6623(3)
O20_3 O 0.7482(4) 0.3515(4) 0.6558(3)
O21_3 O 0.7530(5) 0.4479(4) 0.5992(4)
O22_3 O 0.7818(5) 0.4730(4) 0.5258(4)
O23_3 O 0.8224(5) 0.4154(4) 0.4545(3)
O24_3 O 0.7462(5) 0.3822(4) 0.3799(3)
O25_3 O 0.7071(7) 0.1074(5) 0.3106(3)
O26_3 O 0.5716(6) 0.0922(5) 0.3157(3)
O32_3 O 0.6051(8) 0.0045(8) 0.6516(5)
O33_3 O 0.5312(5) 0.0985(6) 0.6844(4)
O34_3 O 0.6747(7) 0.0648(6) 0.7275(5)
O35_3 O 0.6319(6) 0.1952(5) 0.7239(3)
O39_3 O 0.9519(7) 0.3796(6) 0.3470(4)
O41_3 O 0.8520(6) 0.3875(7) 0.7274(4)
O42_3 O 0.8153(7) 0.4985(7) 0.6896(5)
O43_3 O 0.9456(6) 0.4401(6) 0.6790(4)
O44_2 O 0.8719(5) 0.5022(4) 0.5946(3)
O45_2 O 0.8792(14) 0.5989(12) 0.5783(9)
O46_2 O 0.8909(8) 0.5554(5) 0.4934(4)
O47_3 O 0.9920(5) 0.4798(4) 0.5482(3)
O49_3 O 0.8433(7) 0.4810(5) 0.3615(4)
C1_3 C 0.9228(7) 0.2570(5) 0.4330(4)
C2_3 C 0.8734(7) 0.2331(6) 0.4041(5)
C3_3 C 0.8633(7) 0.1697(5) 0.4023(5)
C4_3 C 0.9025(6) 0.1324(6) 0.4314(5)
C5_3 C 0.9529(6) 0.1598(5) 0.4609(5)
H1_3 H 0.980109 0.134455 0.480743
C6_3 C 0.9633(6) 0.2213(6) 0.4616(5)
C7_3 C 0.8896(6) 0.0635(6) 0.4315(5)
H2_3 H 0.869541 0.052208 0.400113
C8_3 C 0.9513(7) 0.0249(6) 0.4415(7)
H3_3 H 0.970027 0.032612 0.473539
H4_3 H 0.982825 0.038143 0.420679
C10_3 C 0.8398(5) 0.0499(5) 0.4661(4)
C11_3 C 0.7750(6) 0.0538(5) 0.4499(4)
C12_3 C 0.7276(5) 0.0448(5) 0.4795(4)
C13_3 C 0.7463(5) 0.0298(5) 0.5255(4)
C14_3 C 0.8099(5) 0.0233(5) 0.5421(4)
C15_3 C 0.8550(5) 0.0340(5) 0.5112(5)
H8_3 H 0.898924 0.030044 0.522210
C16_3 C 0.8270(6) 0.0101(6) 0.5930(5)
C19_3 C 0.8307(5) 0.0688(6) 0.6201(4)
C20_3 C 0.7753(6) 0.0935(6) 0.6340(4)
C21_3 C 0.7765(5) 0.1506(6) 0.6555(4)
C22_3 C 0.8333(5) 0.1841(7) 0.6642(4)
C23_3 C 0.8909(5) 0.1598(6) 0.6505(4)
C24_3 C 0.8880(5) 0.1032(6) 0.6283(4)
H15_3 H 0.926136 0.087048 0.618301
C25_3 C 0.9523(5) 0.1983(6) 0.6577(4)
H16_3 H 0.949401 0.224084 0.685665
C28_3 C 0.9547(5) 0.2407(6) 0.6175(4)
C29_3 C 0.9215(5) 0.2958(6) 0.6176(4)
C30_3 C 0.9173(5) 0.3360(5) 0.5807(4)
C31_3 C 0.9507(6) 0.3220(6) 0.5419(4)
C32_3 C 0.9845(5) 0.2663(5) 0.5408(4)
C33_3 C 0.9844(5) 0.2278(6) 0.5789(5)
C37_3 C 0.5913(8) 0.3229(7) 0.3873(5)
C38_3 C 0.6354(7) 0.2802(7) 0.3753(4)
C39_3 C 0.6274(6) 0.2184(6) 0.3847(4)
C40_3 C 0.5735(6) 0.1988(7) 0.4064(4)
C41_3 C 0.5311(6) 0.2401(7) 0.4197(5)
C42_3 C 0.5399(7) 0.3021(7) 0.4098(5)
H29_3 H 0.509782 0.330915 0.418771
C43_3 C 0.4762(7) 0.2188(8) 0.4458(6)
H30_3 H 0.466631 0.175851 0.435635
C44_3 C 0.4142(8) 0.2538(9) 0.4357(7)
H31_3 H 0.381975 0.239320 0.455527
H32_3 H 0.421406 0.297968 0.441164
C45_3 C 0.3914(18) 0.2417(16) 0.3844(12)
H33_3 H 0.408390 0.202441 0.375193
H34_3 H 0.344589 0.240639 0.380097
H35_3 H 0.406911 0.274326 0.365525
C46_3 C 0.5017(6) 0.2152(7) 0.4970(5)
C47_3 C 0.5318(6) 0.1623(7) 0.5145(4)
C48_3 C 0.5581(5) 0.1587(7) 0.5602(4)
C49_3 C 0.5517(6) 0.2096(8) 0.5885(4)
C50_3 C 0.5212(5) 0.2612(8) 0.5731(6)
C51_3 C 0.4968(6) 0.2637(8) 0.5279(5)
H36_3 H 0.475501 0.299920 0.516858
C52_3 C 0.5195(6) 0.3177(9) 0.6047(6)
H37_3 H 0.521045 0.301127 0.636659
C53_3 C 0.4576(12) 0.3485(11) 0.5962(9)
H38_3 H 0.445854 0.352952 0.562656
H39_3 H 0.424246 0.323764 0.608919
C54_3 C 0.4612(17) 0.4097(13) 0.6183(12)
H40_3 H 0.425045 0.414850 0.636581
H41_3 H 0.501382 0.413373 0.638402
H42_3 H 0.459415 0.441356 0.594469
C55_3 C 0.5811(7) 0.3549(8) 0.6038(6)
C56_3 C 0.6370(6) 0.3388(8) 0.6318(6)
C57_3 C 0.6930(6) 0.3690(6) 0.6297(4)
C58_3 C 0.6954(6) 0.4189(7) 0.5994(6)
C59_3 C 0.6412(7) 0.4375(7) 0.5705(6)
C60_3 C 0.5842(7) 0.4027(8) 0.5740(7)
H43_3 H 0.546635 0.413430 0.554641
C61_3 C 0.6469(9) 0.4884(8) 0.5346(6)
H44_2 H 0.680422 0.517237 0.548401
C62_2 C 0.5894(12) 0.5267(11) 0.5177(7)
H45_3 H 0.554549 0.499910 0.503997
H46_2 H 0.600998 0.554951 0.493409
C63_2 C 0.5672(10) 0.5618(10) 0.5554(7)
H47_2 H 0.528456 0.584351 0.544144
H48_2 H 0.557681 0.533921 0.580028
H49_2 H 0.600608 0.590530 0.567372
C64_3 C 0.6706(8) 0.4632(6) 0.4924(6)
C65_3 C 0.7360(8) 0.4537(6) 0.4918(6)
C66_3 C 0.7617(9) 0.4255(7) 0.4539(5)
C67_3 C 0.7161(9) 0.4084(6) 0.4154(6)
C68_3 C 0.6514(9) 0.4150(7) 0.4162(6)
C69_3 C 0.6268(9) 0.4427(7) 0.4548(7)
H50_3 H 0.582032 0.447419 0.455523
C70_3 C 0.6071(9) 0.3901(8) 0.3773(6)
H51_3 H 0.631393 0.389813 0.349637
C71_3 C 0.5481(16) 0.4283(15) 0.3648(11)
H52_3 H 0.518820 0.425056 0.389057
H53_3 H 0.560076 0.471670 0.361703
C72_3 C 0.5148(15) 0.4040(14) 0.3183(10)
H54_3 H 0.475595 0.427221 0.309420
H55_3 H 0.544315 0.409069 0.294727
H56_3 H 0.504272 0.360698 0.321051
C74_2 C 0.8640(11) 0.5559(10) 0.6035(7)
H58_2 H 0.845423 0.565696 0.630817
C75_3 C 0.8406(10) 0.3608(8) 0.7629(5)
H59_3 H 0.866542 0.371096 0.790461
C76_3 C 0.7967(9) 0.1600(8) 0.7745(6)
H60_3 H 0.798539 0.142119 0.745079
C78_3 C 0.4708(5) 0.0224(6) 0.5831(4)
H62_3 H 0.493839 0.054950 0.598580
C79_3 C 0.6189(9) 0.2232(9) 0.7549(5)
H63_3 H 0.584187 0.212982 0.771829
H66_3 H 0.787433 0.486417 0.713469
H67_2 H 0.792376 0.528393 0.668267
H70_3 H 0.956339 0.419462 0.709092
H71_3 H 0.94804 0.485 0.68339
H72_3 H 0.676011 0.0198714 0.723313
H73_3 H 0.647713 0.0747435 0.752405
H74_2 H 0.841041 0.507891 0.388641
H75_3 H 0.803047 0.484665 0.340586
H76_2 H 0.850656 0.575902 0.499793
H77_2 H 0.894807 0.556771 0.459833
H78_3 H 0.501424 0.078685 0.660204
H79_3 H 0.513819 0.138878 0.692189
H80_3 H 0.987799 0.397673 0.367398
H81_3 H 0.944082 0.404333 0.318474
H82_3 H 0.579538 0.133227 0.303046
H83_3 H 0.527156 0.0901796 0.324215
O27_3 O 0.6709(6) 0.9821(5) 0.3476(4)
O28_3 O 0.6297(7) 0.9263(7) 0.4945(5)
O31_3 O 0.5963(6) 0.9591(7) 0.5842(4)
C9_3 C 0.9393(10) 0.9566(9) 0.4352(8)
H5_3 H 0.908464 0.949848 0.408109
H6_3 H 0.979634 0.936061 0.430880
H7_3 H 0.922171 0.940151 0.462566
H9_3 H 0.790944 0.985852 0.603488
C17_3 C 0.8872(7) 0.9714(7) 0.6024(6)
H10_3 H 0.923207 0.992085 0.589552
H11_3 H 0.898298 0.967541 0.636113
C18_3 C 0.8781(11) 0.9068(8) 0.5809(9)
H12_3 H 0.881020 0.909188 0.547693
H13_3 H 0.911442 0.879463 0.595075
H14_3 H 0.835940 0.890886 0.586352
C77_3 C 0.6051(8) 0.9598(9) 0.6286(6)
H61_3 H 0.611953 0.921823 0.643985
H64_3 H 0.617551 0.921955 0.460869
H65_3 H 0.609737 0.89298 0.511047
H68_3 H 0.703006 0.990003 0.325707
H69_3 H 0.631555 0.964768 0.330677
O1_4 O 0.0719(5) 0.8205(4) 0.0678(3)
O2_4 O 0.1669(5) 0.7696(4) 0.1243(3)
O3_4 O 0.1849(4) 0.6477(4) 0.1269(3)
O4_4 O 0.2459(4) 0.5676(4) 0.0947(3)
O5_4 O 0.3354(3) 0.5508(4) 0.0365(2)
O13_4 O 0.3117(5) 0.7931(4) 0.1480(3)
O14_4 O 0.3281(4) 0.6763(4) 0.1252(2)
O15_4 O 0.4300(4) 0.6365(4) 0.0874(2)
O16_4 O 0.4595(4) 0.6112(4) 0.0115(3)
O23_4 O 0.1776(5) 0.9154(4) 0.0455(3)
O24_4 O 0.2538(5) 0.8822(4) 0.1201(3)
O25_4 O 0.2929(7) 0.6074(5) 0.1894(3)
O26_4 O 0.4284(6) 0.5922(5) 0.1843(3)
O27_4 O 0.3291(6) 0.4821(5) 0.1524(4)
O28_4 O 0.3703(7) 0.4263(7) 0.0055(5)
O39_4 O 0.0481(7) 0.8796(6) 0.1530(4)
O49_4 O 0.1567(7) 0.9810(5) 0.1385(4)
C1_4 C 0.0772(7) 0.7570(5) 0.0670(4)
C2_4 C 0.1266(7) 0.7331(6) 0.0959(5)
C3_4 C 0.1367(7) 0.6697(5) 0.0977(5)
C4_4 C 0.0975(6) 0.6324(6) 0.0686(5)
C5_4 C 0.0471(6) 0.6598(5) 0.0391(5)
H1_4 H 0.019891 0.634455 0.019257
C6_4 C 0.0367(6) 0.7213(6) 0.0384(5)
C7_4 C 0.1104(6) 0.5635(6) 0.0685(5)
H2_4 H 0.130459 0.552208 0.099887
C8_4 C 0.0487(7) 0.5249(6) 0.0585(7)
H3_4 H 0.029973 0.532612 0.026461
H4_4 H 0.017175 0.538143 0.079321
C9_4 C 0.0607(10) 0.4566(9) 0.0648(8)
H5_4 H 0.091536 0.449848 0.091891
H6_4 H 0.020366 0.436061 0.069120
H7_4 H 0.077829 0.440151 0.037434
C10_4 C 0.1602(5) 0.5499(5) 0.0339(4)
C11_4 C 0.2250(6) 0.5538(5) 0.0501(4)
C12_4 C 0.2724(5) 0.5448(5) 0.0205(4)
C37_4 C 0.4087(8) 0.8229(7) 0.1127(5)
C38_4 C 0.3646(7) 0.7802(7) 0.1247(4)
C39_4 C 0.3726(6) 0.7184(6) 0.1153(4)
C40_4 C 0.4265(6) 0.6988(7) 0.0936(4)
C41_4 C 0.4689(6) 0.7401(7) 0.0803(5)
C42_4 C 0.4601(7) 0.8021(7) 0.0902(5)
H29_4 H 0.490218 0.830915 0.081229
C43_4 C 0.5238(7) 0.7188(8) 0.0542(6)
H30_4 H 0.533369 0.675851 0.064365
C44_4 C 0.5858(8) 0.7538(9) 0.0643(7)
H31_4 H 0.618025 0.739320 0.044473
H32_4 H 0.578594 0.797968 0.058836
C45_4 C 0.6086(18) 0.7417(16) 0.1156(12)
H33_4 H 0.591610 0.702441 0.124807
H34_4 H 0.655411 0.740639 0.119903
H35_4 H 0.593089 0.774326 0.134475
C46_4 C 0.4983(6) 0.7152(7) 0.0030(5)
C64_4 C 0.3294(8) 0.9632(6) 0.0076(6)
C65_4 C 0.2640(8) 0.9537(6) 0.0082(6)
C66_4 C 0.2383(9) 0.9255(7) 0.0461(5)
C67_4 C 0.2839(9) 0.9084(6) 0.0846(6)
C68_4 C 0.3486(9) 0.9150(7) 0.0838(6)
C69_4 C 0.3732(9) 0.9427(7) 0.0452(7)
H50_4 H 0.417968 0.947419 0.044477
C70_4 C 0.3929(9) 0.8901(8) 0.1227(6)
H51_4 H 0.368607 0.889813 0.150363
C71_4 C 0.4519(16) 0.9283(15) 0.1352(11)
H52_4 H 0.481180 0.925056 0.110943
H53_4 H 0.439924 0.971670 0.138297
C72_4 C 0.4852(15) 0.9040(14) 0.1817(10)
H54_4 H 0.524405 0.927221 0.190580
H55_4 H 0.455685 0.909069 0.205273
H56_4 H 0.495728 0.860698 0.178949
H64_4 H 0.382449 0.421955 0.0391309
H68_4 H 0.296994 0.490003 0.174293
H69_4 H 0.368445 0.464768 0.169323
H75_4 H 0.196953 0.984665 0.159414
H80_4 H 0.0122015 0.897673 0.132602
H81_4 H 0.0559175 0.904333 0.181526
H82_4 H 0.420462 0.633227 0.196954
H83_4 H 0.472844 0.59018 0.175785
Dy4_4 Dy 0.36949(3) 0.61155(4) 0.84258(2)
Dy5_4 Dy 0.26841(4) 0.76912(5) 0.79496(2)
Dy6_4 Dy 0.15906(4) 0.91277(4) 0.85147(3)
O6_4 O 0.3032(3) 0.5220(4) 0.9476(2)
O7_4 O 0.2818(4) 0.5647(4) 0.8706(3)
O8_4 O 0.2790(4) 0.6746(5) 0.8314(3)
O9_4 O 0.1703(4) 0.7381(5) 0.8139(3)
O10_4 O 0.1102(4) 0.8166(4) 0.8463(3)
O11_4 O 0.1174(4) 0.8878(4) 0.9196(3)
O12_4 O 0.0539(4) 0.8647(4) 0.9919(3)
O17_4 O 0.4088(4) 0.6070(4) 0.9231(3)
O18_4 O 0.4199(4) 0.7016(5) 0.8663(3)
O19_4 O 0.3621(4) 0.7913(5) 0.8377(3)
O20_4 O 0.2518(4) 0.8515(4) 0.8442(3)
O21_4 O 0.2470(5) 0.9479(4) 0.9008(4)
O22_4 O 0.2182(5) 0.9730(4) 0.9742(4)
O31_4 O 0.4037(6) 0.4591(7) 0.9158(4)
O32_4 O 0.3949(8) 0.5045(8) 0.8484(5)
O33_4 O 0.4688(5) 0.5985(6) 0.8156(4)
O34_4 O 0.3253(7) 0.5648(6) 0.7725(5)
O35_4 O 0.3681(6) 0.6952(5) 0.7761(3)
O41_4 O 0.1480(6) 0.8875(7) 0.7726(4)
O42_4 O 0.1847(7) 0.9985(7) 0.8104(5)
O43_4 O 0.0544(6) 0.9401(6) 0.8210(4)
O47_4 O 0.0080(5) 0.9798(4) 0.9518(3)
C13_4 C 0.2537(5) 0.5298(5) 0.9745(4)
C14_4 C 0.1901(5) 0.5233(5) 0.9579(4)
C15_4 C 0.1450(5) 0.5340(5) 0.9888(5)
H8_4 H 0.101076 0.530044 0.977790
C16_4 C 0.1730(6) 0.5101(6) 0.9070(5)
H9_4 H 0.209056 0.485852 0.896512
C17_4 C 0.1128(7) 0.4714(7) 0.8976(6)
H10_4 H 0.076793 0.492085 0.910448
H11_4 H 0.101702 0.467541 0.863887
C18_4 C 0.1219(11) 0.4068(8) 0.9191(9)
H12_4 H 0.118980 0.409188 0.952307
H13_4 H 0.088558 0.379463 0.904925
H14_4 H 0.164060 0.390886 0.913648
C19_4 C 0.1693(5) 0.5688(6) 0.8799(4)
C20_4 C 0.2247(6) 0.5935(6) 0.8660(4)
C21_4 C 0.2235(5) 0.6506(6) 0.8445(4)
C22_4 C 0.1667(5) 0.6841(7) 0.8358(4)
C23_4 C 0.1091(5) 0.6598(6) 0.8495(4)
C24_4 C 0.1120(5) 0.6032(6) 0.8717(4)
H15_4 H 0.073864 0.587048 0.881699
C25_4 C 0.0477(5) 0.6983(6) 0.8423(4)
H16_4 H 0.050599 0.724084 0.814335
C28_4 C 0.0453(5) 0.7407(6) 0.8825(4)
C29_4 C 0.0785(5) 0.7958(6) 0.8824(4)
C30_4 C 0.0827(5) 0.8360(5) 0.9193(4)
C31_4 C 0.0493(6) 0.8220(6) 0.9581(4)
C32_4 C 0.0155(5) 0.7663(5) 0.9592(4)
C33_4 C 0.0156(5) 0.7278(6) 0.9211(5)
C47_4 C 0.4682(6) 0.6623(7) 0.9855(4)
C48_4 C 0.4419(5) 0.6587(7) 0.9398(4)
C49_4 C 0.4483(6) 0.7096(8) 0.9115(4)
C50_4 C 0.4788(5) 0.7612(8) 0.9269(6)
C51_4 C 0.5032(6) 0.7637(8) 0.9721(5)
H36_4 H 0.524499 0.799920 0.983142
C52_4 C 0.4805(6) 0.8177(9) 0.8953(6)
H37_4 H 0.478955 0.801127 0.863341
C53_4 C 0.5424(12) 0.8485(11) 0.9038(9)
H38_4 H 0.554146 0.852952 0.937344
H39_4 H 0.575754 0.823764 0.891081
C54_4 C 0.5388(17) 0.9097(13) 0.8817(12)
H40_4 H 0.574955 0.914850 0.863419
H41_4 H 0.498618 0.913373 0.861598
H42_4 H 0.540585 0.941356 0.905531
C55_4 C 0.4189(7) 0.8549(8) 0.8962(6)
C56_4 C 0.3630(6) 0.8388(8) 0.8682(6)
C57_4 C 0.3070(6) 0.8690(6) 0.8703(4)
C58_4 C 0.3046(6) 0.9189(7) 0.9006(6)
C59_4 C 0.3588(7) 0.9375(7) 0.9295(6)
C60_4 C 0.4158(7) 0.9027(8) 0.9260(7)
H43_4 H 0.453365 0.913430 0.945359
C61_4 C 0.3531(9) 0.9884(8) 0.9654(6)
H45_4 H 0.445451 0.999910 0.996003
C75_4 C 0.1594(10) 0.8608(8) 0.7371(5)
H59_4 H 0.133458 0.871096 0.709539
C76_4 C 0.2033(9) 0.6600(8) 0.7255(6)
H60_4 H 0.201461 0.642119 0.754921
C77_4 C 0.3949(8) 0.4598(9) 0.8714(6)
H61_4 H 0.388047 0.421823 0.856015
C78_4 C 0.5292(5) 0.5224(6) 0.9169(4)
H62_4 H 0.506161 0.554950 0.901420
C79_4 C 0.3811(9) 0.7232(9) 0.7451(5)
H63_4 H 0.415813 0.712982 0.728171
H65_4 H 0.390263 0.39298 0.988953
H66_4 H 0.212567 0.986417 0.786531
H70_4 H 0.0436613 0.919462 0.790908
H71_4 H 0.0519603 0.985 0.81661
H72_4 H 0.323989 0.519871 0.776687
H73_4 H 0.352287 0.574743 0.747595
H78_4 H 0.498576 0.578685 0.839796
H79_4 H 0.486181 0.638878 0.807811
C73_4 C 0.9813(8) 0.0218(7) 0.9300(5)
H57_4 H 0.998324 0.033472 0.902386
C26_3 C 0.0131(7) 0.3421(8) 0.1671(6)
H17_3 H 0.018596 0.367148 0.139559
H18_3 H 0.008249 0.370023 0.193128
C27_3 C 0.0727(10) 0.3013(10) 0.1786(8)
H19_3 H 0.064117 0.271632 0.202335
H20_3 H 0.109269 0.326758 0.190074
H21_3 H 0.082335 0.279658 0.150853
H22_3 H 0.006351 0.309979 0.078129
C35_3 C 0.0746(6) 0.2853(7) 0.0047(7)
H24_3 H 0.064818 0.325077 0.018407
C36_3 C 0.1285(12) 0.2538(12) 0.0363(9)
H26_3 H 0.116904 0.252734 0.067897
H27_3 H 0.168433 0.276727 0.035529
H28_3 H 0.134377 0.212092 0.025465
C34_3 C 0.0156(6) 0.2494(6) 0.9974(5)
H23_3 H 0.027585 0.209683 0.983825
H25_3 H 0.090198 0.293497 0.974478
O44_3 O 0.8719(5) 0.9978(4) 0.0946(3)
O45_3 O 0.8792(14) 0.9011(12) 0.0783(9)
H44_3 H 0.680422 0.982763 0.048401
C62_3 C 0.5894(12) 0.9733(11) 0.0177(7)
C63_3 C 0.5672(10) 0.9382(10) 0.0554(7)
H47_3 H 0.528456 0.915649 0.044144
H48_3 H 0.557681 0.966079 0.080028
H49_3 H 0.600608 0.909470 0.067372
C74_3 C 0.8640(11) 0.9441(10) 0.1035(7)
H58_3 H 0.845423 0.934304 0.130817
H67_3 H 0.792376 0.971607 0.168267
O46_3 O 0.8909(8) 0.9446(5) 0.9934(4)
H46_3 H 0.600998 0.945049 0.993409
H74_3 H 0.841041 0.992109 0.888641
H76_3 H 0.850656 0.924098 0.999793
H77_3 H 0.894807 0.943229 0.959833
O46_4 O 0.1091(8) 0.0554(5) 0.0066(4)
H46_4 H 0.399002 0.054951 0.006591
H74_4 H 0.158959 0.00789093 0.111359
H76_4 H 0.149344 0.0759022 0.000207026
H77_4 H 0.105193 0.0567707 0.0401672
O44_4 O 0.1281(5) 0.0022(4) 0.9054(3)
O45_4 O 0.1208(14) 0.0989(12) 0.9217(9)
H44_4 H 0.319578 0.017237 0.951599
C62_4 C 0.4106(12) 0.0267(11) 0.9823(7)
C63_4 C 0.4328(10) 0.0618(10) 0.9446(7)
H47_4 H 0.471544 0.084351 0.955856
H48_4 H 0.442319 0.033921 0.919972
H49_4 H 0.399392 0.090530 0.932628
C74_4 C 0.1360(11) 0.0559(10) 0.8965(7)
H58_4 H 0.154577 0.065696 0.869183
H67_4 H 0.207624 0.0283932 0.831733
C34_4 C 0.9844(6) 0.7506(6) 0.0026(5)
H23_4 H 0.972415 0.790317 0.016175
H25_4 H 0.909802 0.706503 0.025522
C26_4 C 0.9869(7) 0.6579(8) 0.8329(6)
H17_4 H 0.981404 0.632852 0.860441
H18_4 H 0.991751 0.629977 0.806872
C27_4 C 0.9273(10) 0.6987(10) 0.8214(8)
H19_4 H 0.935883 0.728368 0.797665
H20_4 H 0.890731 0.673242 0.809926
H21_4 H 0.917665 0.720342 0.849147
H22_4 H 0.993649 0.690021 0.921871
C35_4 C 0.9254(6) 0.7147(7) 0.9953(7)
H24_4 H 0.935182 0.674923 0.981593
C36_4 C 0.8715(12) 0.7462(12) 0.9637(9)
H26_4 H 0.883096 0.747266 0.932103
H27_4 H 0.831567 0.723273 0.964471
H28_4 H 0.865623 0.787908 0.974535
loop_
_geom_bond_atom_site_label_1
_geom_bond_atom_site_label_2
_geom_bond_site_symmetry_1
_geom_bond_site_symmetry_2
H5 C9 1_555 1_555
H6 C9 1_555 1_555
H7 C9 1_555 1_555
H10 C17 1_555 1_555
H11 C17 1_555 1_555
C18 C17 1_555 1_555
H12 C18 1_555 1_555
H13 C18 1_555 1_555
H14 C18 1_555 1_555
C77 O31 1_555 1_555
H61 C77 1_555 1_555
Dy10 O30 1_555 1_555
Dy11 O50 1_555 1_555
O28 H64 1_555 1_555
O28 H65 1_555 1_555
O27 H68 1_555 1_555
O27 H69 1_555 1_555
Dy1 O2 1_555 1_555
Dy2 O4 1_555 1_555
Dy3 O5 1_555 1_555
Dy4 O7 1_555 1_555
Dy5 O8 1_555 1_555
Dy6 O10 1_555 1_555
Dy7 O11 1_555 1_555
Dy8 O1 1_555 1_555
O1 C1 1_555 1_555
O2 Dy8 1_555 1_555
O3 Dy1 1_555 1_555
O4 C11 1_555 1_555
O5 Dy2 1_555 1_555
O6 Dy3 1_555 1_555
O7 C20 1_555 1_555
O8 Dy4 1_555 1_555
O9 Dy5 1_555 1_555
O10 C29 1_555 1_555
O11 Dy6 1_555 1_555
O12 Dy7 1_555 1_555
O13 Dy1 1_555 1_555
O14 Dy1 1_555 1_555
O15 Dy2 1_555 1_555
O16 Dy3 1_555 1_555
O17 Dy3 1_555 1_555
O18 Dy4 1_555 1_555
O19 Dy5 1_555 1_555
O20 Dy5 1_555 1_555
O21 Dy6 1_555 1_555
O22 Dy7 1_555 1_555
O23 Dy7 1_555 1_555
O24 Dy8 1_555 1_555
O25 Dy1 1_555 1_555
O26 Dy2 1_555 1_555
O29 Dy3 1_555 1_555
O32 Dy4 1_555 1_555
O33 Dy4 1_555 1_555
O34 Dy4 1_555 1_555
O35 Dy4 1_555 1_555
O36 Dy5 1_555 1_555
O37 Dy5 1_555 1_555
O38 C76 1_555 1_555
O39 Dy8 1_555 1_555
O40 Dy5 1_555 1_555
O41 Dy6 1_555 1_555
O42 Dy6 1_555 1_555
O43 Dy6 1_555 1_555
O44 Dy6 1_555 1_555
O45 C74 1_555 1_555
O46 Dy7 1_555 1_555
O47 Dy7 1_555 1_555
O49 Dy8 1_555 1_555
C1 C2 1_555 1_555
C2 O2 1_555 1_555
C3 O3 1_555 1_555
C4 C3 1_555 1_555
C5 C4 1_555 1_555
H1 C5 1_555 1_555
C6 C1 1_555 1_555
C7 C4 1_555 1_555
H2 C7 1_555 1_555
C8 C7 1_555 1_555
H3 C8 1_555 1_555
H4 C8 1_555 1_555
C10 C7 1_555 1_555
C11 C10 1_555 1_555
C12 O5 1_555 1_555
C13 O6 1_555 1_555
C14 C13 1_555 1_555
C15 C10 1_555 1_555
H8 C15 1_555 1_555
C16 C14 1_555 1_555
C19 C16 1_555 1_555
C20 C19 1_555 1_555
C21 O8 1_555 1_555
C22 O9 1_555 1_555
C23 C22 1_555 1_555
C24 C19 1_555 1_555
H15 C24 1_555 1_555
C25 C23 1_555 1_555
H16 C25 1_555 1_555
C28 C25 1_555 1_555
C29 C28 1_555 1_555
C30 O11 1_555 1_555
C31 O12 1_555 1_555
C32 C31 1_555 1_555
C33 C28 1_555 1_555
C37 C38 1_555 1_555
C38 O13 1_555 1_555
C39 O14 1_555 1_555
C40 O15 1_555 1_555
C41 C40 1_555 1_555
C42 C37 1_555 1_555
H29 C42 1_555 1_555
C43 C41 1_555 1_555
H30 C43 1_555 1_555
C44 C43 1_555 1_555
H31 C44 1_555 1_555
H32 C44 1_555 1_555
C45 C44 1_555 1_555
H33 C45 1_555 1_555
H34 C45 1_555 1_555
H35 C45 1_555 1_555
C46 C43 1_555 1_555
C47 O16 1_555 1_555
C48 O17 1_555 1_555
C49 O18 1_555 1_555
C50 C49 1_555 1_555
C51 C46 1_555 1_555
H36 C51 1_555 1_555
C52 C50 1_555 1_555
H37 C52 1_555 1_555
C53 C52 1_555 1_555
H38 C53 1_555 1_555
H39 C53 1_555 1_555
C54 C53 1_555 1_555
H40 C54 1_555 1_555
H41 C54 1_555 1_555
H42 C54 1_555 1_555
C55 C52 1_555 1_555
C56 O19 1_555 1_555
C57 O20 1_555 1_555
C58 O21 1_555 1_555
C59 C58 1_555 1_555
C60 C55 1_555 1_555
H43 C60 1_555 1_555
C61 C59 1_555 1_555
H44 C61 1_555 1_555
C62 C61 1_555 1_555
H45 C62 1_555 1_555
H46 C62 1_555 1_555
C63 C62 1_555 1_555
H47 C63 1_555 1_555
H48 C63 1_555 1_555
H49 C63 1_555 1_555
C64 C61 1_555 1_555
C65 O22 1_555 1_555
C66 O23 1_555 1_555
C67 O24 1_555 1_555
C68 C67 1_555 1_555
C69 C64 1_555 1_555
H50 C69 1_555 1_555
C70 C37 1_555 1_555
H51 C70 1_555 1_555
C71 C70 1_555 1_555
H52 C71 1_555 1_555
H53 C71 1_555 1_555
C72 C71 1_555 1_555
H54 C72 1_555 1_555
H55 C72 1_555 1_555
H56 C72 1_555 1_555
C74 O44 1_555 1_555
H58 C74 1_555 1_555
C75 O40 1_555 1_555
H59 C75 1_555 1_555
C76 O37 1_555 1_555
H60 C76 1_555 1_555
C78 O29 1_555 1_555
H62 C78 1_555 1_555
C79 O35 1_555 1_555
H63 C79 1_555 1_555
Dy9 O36 1_555 1_555
Dy14 O38 1_555 1_555
O51 Dy2 1_555 1_555
O52 Dy1 1_555 1_555
O53 Dy1 1_555 1_555
O54 Dy8 1_555 1_555
O55 Dy1 1_555 1_555
O56 Dy7 1_555 1_555
Dy2 O14 1_555 1_555
Dy2 O25 1_555 1_555
Dy4 O17 1_555 1_555
Dy5 O35 1_555 1_555
Dy6 O20 1_555 1_555
Dy7 O44 1_555 1_555
Dy8 O23 1_555 1_555
Dy8 O56 1_555 1_555
O36 C79 1_555 1_555
O37 Dy9 1_555 1_555
O40 Dy9 1_555 1_555
O41 C75 1_555 1_555
C2 C3 1_555 1_555
C5 C6 1_555 1_555
C11 C12 1_555 1_555
C12 C13 1_555 1_555
C14 C15 1_555 1_555
C20 C21 1_555 1_555
C21 C22 1_555 1_555
C23 C24 1_555 1_555
C29 C30 1_555 1_555
C30 C31 1_555 1_555
C32 C33 1_555 1_555
C38 C39 1_555 1_555
C39 C40 1_555 1_555
C41 C42 1_555 1_555
C46 C47 1_555 1_555
C47 C48 1_555 1_555
C48 C49 1_555 1_555
C50 C51 1_555 1_555
C55 C56 1_555 1_555
C56 C57 1_555 1_555
C57 C58 1_555 1_555
C59 C60 1_555 1_555
C64 C65 1_555 1_555
C65 C66 1_555 1_555
C66 C67 1_555 1_555
C68 C69 1_555 1_555
C68 C70 1_555 1_555
O42 H66 1_555 1_555
O42 H67 1_555 1_555
O43 H70 1_555 1_555
O43 H71 1_555 1_555
O34 H72 1_555 1_555
O34 H73 1_555 1_555
O49 H74 1_555 1_555
O49 H75 1_555 1_555
O46 H76 1_555 1_555
O46 H77 1_555 1_555
O33 H78 1_555 1_555
O33 H79 1_555 1_555
O39 H80 1_555 1_555
O39 H81 1_555 1_555
O26 H82 1_555 1_555
O26 H83 1_555 1_555
O48 C73 1_555 1_555
H17 C26 1_555 1_555
H18 C26 1_555 1_555
C27 C26 1_555 1_555
H19 C27 1_555 1_555
H20 C27 1_555 1_555
H21 C27 1_555 1_555
H23 C34 1_555 1_555
C35 C34 1_555 1_555
H24 C35 1_555 1_555
H25 C35 1_555 1_555
C36 C35 1_555 1_555
H26 C36 1_555 1_555
H27 C36 1_555 1_555
H28 C36 1_555 1_555
H57 C73 1_555 1_555
Dy12 O48 1_555 1_555
Dy13 O48 1_555 1_555
O48_2 C73_2 1_555 1_555
H57_2 C73_2 1_555 1_555
Dy14 O48_2 1_555 1_555
Dy4_2 O7_2 1_555 1_555
Dy5_2 O8_2 1_555 1_555
Dy6_2 O10_2 1_555 1_555
Dy7_2 O11_2 1_555 1_555
O6_2 Dy3_2 1_555 1_555
O7_2 C20_2 1_555 1_555
O8_2 Dy4_2 1_555 1_555
O9_2 Dy5_2 1_555 1_555
O10_2 C29_2 1_555 1_555
O11_2 Dy6_2 1_555 1_555
O12_2 Dy7_2 1_555 1_555
O17_2 Dy3_2 1_555 1_555
O18_2 Dy4_2 1_555 1_555
O19_2 Dy5_2 1_555 1_555
O20_2 Dy5_2 1_555 1_555
O21_2 Dy6_2 1_555 1_555
O22_2 Dy7_2 1_555 1_555
O29_2 Dy3_2 1_555 1_555
O30_2 C78_2 1_555 1_555
O31_2 Dy3_2 1_555 1_555
O32_2 Dy4_2 1_555 1_555
O33_2 Dy4_2 1_555 1_555
O34_2 Dy4_2 1_555 1_555
O35_2 Dy4_2 1_555 1_555
O36_2 Dy5_2 1_555 1_555
O37_2 Dy5_2 1_555 1_555
O38_2 C76_2 1_555 1_555
O40_2 Dy5_2 1_555 1_555
O41_2 Dy6_2 1_555 1_555
O42_2 Dy6_2 1_555 1_555
O43_2 Dy6_2 1_555 1_555
O47_2 Dy7_2 1_555 1_555
C13_2 O6_2 1_555 1_555
C14_2 C13_2 1_555 1_555
H8_2 C15_2 1_555 1_555
C16_2 C14_2 1_555 1_555
H9_2 C16_2 1_555 1_555
C17_2 C16_2 1_555 1_555
H10_2 C17_2 1_555 1_555
H11_2 C17_2 1_555 1_555
C18_2 C17_2 1_555 1_555
H12_2 C18_2 1_555 1_555
H13_2 C18_2 1_555 1_555
H14_2 C18_2 1_555 1_555
C19_2 C16_2 1_555 1_555
C20_2 C19_2 1_555 1_555
C21_2 O8_2 1_555 1_555
C22_2 O9_2 1_555 1_555
C23_2 C22_2 1_555 1_555
C24_2 C19_2 1_555 1_555
H15_2 C24_2 1_555 1_555
C25_2 C23_2 1_555 1_555
H16_2 C25_2 1_555 1_555
C28_2 C25_2 1_555 1_555
C29_2 C28_2 1_555 1_555
C30_2 O11_2 1_555 1_555
C31_2 O12_2 1_555 1_555
C32_2 C31_2 1_555 1_555
C33_2 C28_2 1_555 1_555
C48_2 O17_2 1_555 1_555
C49_2 O18_2 1_555 1_555
C50_2 C49_2 1_555 1_555
H36_2 C51_2 1_555 1_555
C52_2 C50_2 1_555 1_555
H37_2 C52_2 1_555 1_555
C53_2 C52_2 1_555 1_555
H38_2 C53_2 1_555 1_555
H39_2 C53_2 1_555 1_555
C54_2 C53_2 1_555 1_555
H40_2 C54_2 1_555 1_555
H41_2 C54_2 1_555 1_555
H42_2 C54_2 1_555 1_555
C55_2 C52_2 1_555 1_555
C56_2 O19_2 1_555 1_555
C57_2 O20_2 1_555 1_555
C58_2 O21_2 1_555 1_555
C59_2 C58_2 1_555 1_555
C60_2 C55_2 1_555 1_555
H43_2 C60_2 1_555 1_555
C61_2 C59_2 1_555 1_555
C75_2 O40_2 1_555 1_555
H59_2 C75_2 1_555 1_555
C76_2 O37_2 1_555 1_555
H60_2 C76_2 1_555 1_555
C77_2 O31_2 1_555 1_555
H61_2 C77_2 1_555 1_555
C78_2 O29_2 1_555 1_555
H62_2 C78_2 1_555 1_555
C79_2 O35_2 1_555 1_555
H63_2 C79_2 1_555 1_555
Dy9_2 O36_2 1_555 1_555
Dy10_2 O30_2 1_555 1_555
Dy13 O38_2 1_555 1_555
Dy4_2 O17_2 1_555 1_555
Dy5_2 O35_2 1_555 1_555
Dy6_2 O20_2 1_555 1_555
O32_2 C77_2 1_555 1_555
O36_2 C79_2 1_555 1_555
O37_2 Dy9_2 1_555 1_555
O40_2 Dy9_2 1_555 1_555
O41_2 C75_2 1_555 1_555
C14_2 C15_2 1_555 1_555
C20_2 C21_2 1_555 1_555
C21_2 C22_2 1_555 1_555
C23_2 C24_2 1_555 1_555
C29_2 C30_2 1_555 1_555
C30_2 C31_2 1_555 1_555
C32_2 C33_2 1_555 1_555
C47_2 C48_2 1_555 1_555
C48_2 C49_2 1_555 1_555
C50_2 C51_2 1_555 1_555
C55_2 C56_2 1_555 1_555
C56_2 C57_2 1_555 1_555
C57_2 C58_2 1_555 1_555
C59_2 C60_2 1_555 1_555
O42_2 H66_2 1_555 1_555
O43_2 H70_2 1_555 1_555
O43_2 H71_2 1_555 1_555
O34_2 H72_2 1_555 1_555
O34_2 H73_2 1_555 1_555
O33_2 H78_2 1_555 1_555
O33_2 H79_2 1_555 1_555
Dy1_2 O2_2 1_555 1_555
Dy2_2 O4_2 1_555 1_555
Dy8_2 O1_2 1_555 1_555
O1_2 C1_2 1_555 1_555
O2_2 Dy8_2 1_555 1_555
O3_2 Dy1_2 1_555 1_555
O4_2 C11_2 1_555 1_555
O5_2 Dy2_2 1_555 1_555
O13_2 Dy1_2 1_555 1_555
O14_2 Dy1_2 1_555 1_555
O15_2 Dy2_2 1_555 1_555
O24_2 Dy8_2 1_555 1_555
O25_2 Dy1_2 1_555 1_555
O26_2 Dy2_2 1_555 1_555
O27_2 Dy2_2 1_555 1_555
O39_2 Dy8_2 1_555 1_555
O49_2 Dy8_2 1_555 1_555
C1_2 C2_2 1_555 1_555
C2_2 O2_2 1_555 1_555
C3_2 O3_2 1_555 1_555
C4_2 C3_2 1_555 1_555
C5_2 C4_2 1_555 1_555
H1_2 C5_2 1_555 1_555
C6_2 C1_2 1_555 1_555
C7_2 C4_2 1_555 1_555
H2_2 C7_2 1_555 1_555
C8_2 C7_2 1_555 1_555
H3_2 C8_2 1_555 1_555
H4_2 C8_2 1_555 1_555
C9_2 C8_2 1_555 1_555
H5_2 C9_2 1_555 1_555
H6_2 C9_2 1_555 1_555
H7_2 C9_2 1_555 1_555
C10_2 C7_2 1_555 1_555
C11_2 C10_2 1_555 1_555
C12_2 O5_2 1_555 1_555
C37_2 C38_2 1_555 1_555
C38_2 O13_2 1_555 1_555
C39_2 O14_2 1_555 1_555
C40_2 O15_2 1_555 1_555
C41_2 C40_2 1_555 1_555
C42_2 C37_2 1_555 1_555
H29_2 C42_2 1_555 1_555
C43_2 C41_2 1_555 1_555
H30_2 C43_2 1_555 1_555
C44_2 C43_2 1_555 1_555
H31_2 C44_2 1_555 1_555
H32_2 C44_2 1_555 1_555
C45_2 C44_2 1_555 1_555
H33_2 C45_2 1_555 1_555
H34_2 C45_2 1_555 1_555
H35_2 C45_2 1_555 1_555
C46_2 C43_2 1_555 1_555
C66_2 O23_2 1_555 1_555
C67_2 O24_2 1_555 1_555
C68_2 C67_2 1_555 1_555
C69_2 C64_2 1_555 1_555
H50_2 C69_2 1_555 1_555
C70_2 C37_2 1_555 1_555
H51_2 C70_2 1_555 1_555
C71_2 C70_2 1_555 1_555
H52_2 C71_2 1_555 1_555
H53_2 C71_2 1_555 1_555
C72_2 C71_2 1_555 1_555
H54_2 C72_2 1_555 1_555
H55_2 C72_2 1_555 1_555
H56_2 C72_2 1_555 1_555
O51_2 Dy2_2 1_555 1_555
O52_2 Dy1_2 1_555 1_555
O53_2 Dy1_2 1_555 1_555
O54_2 Dy8_2 1_555 1_555
O55_2 Dy1_2 1_555 1_555
Dy2_2 O14_2 1_555 1_555
Dy2_2 O25_2 1_555 1_555
Dy8_2 O23_2 1_555 1_555
Dy8_2 O56_2 1_555 1_555
C2_2 C3_2 1_555 1_555
C5_2 C6_2 1_555 1_555
C11_2 C12_2 1_555 1_555
C38_2 C39_2 1_555 1_555
C39_2 C40_2 1_555 1_555
C41_2 C42_2 1_555 1_555
C64_2 C65_2 1_555 1_555
C65_2 C66_2 1_555 1_555
C66_2 C67_2 1_555 1_555
C68_2 C69_2 1_555 1_555
C68_2 C70_2 1_555 1_555
Dy11_2 O50_2 1_555 1_555
O28_2 H64_2 1_555 1_555
O27_2 H68_2 1_555 1_555
O27_2 H69_2 1_555 1_555
O49_2 H75_2 1_555 1_555
O39_2 H80_2 1_555 1_555
O39_2 H81_2 1_555 1_555
O26_2 H82_2 1_555 1_555
O26_2 H83_2 1_555 1_555
O56 C73_3 1_555 1_555
H17_2 C26_2 1_555 1_555
H18_2 C26_2 1_555 1_555
C27_2 C26_2 1_555 1_555
H19_2 C27_2 1_555 1_555
H20_2 C27_2 1_555 1_555
H21_2 C27_2 1_555 1_555
H23_2 C34_2 1_555 1_555
C35_2 C34_2 1_555 1_555
H24_2 C35_2 1_555 1_555
H25_2 C35_2 1_555 1_555
C36_2 C35_2 1_555 1_555
H26_2 C36_2 1_555 1_555
H27_2 C36_2 1_555 1_555
H28_2 C36_2 1_555 1_555
H57_3 C73_3 1_555 1_555
Dy9_2 O2_3 1_555 1_555
Dy10 O4_3 1_555 1_555
Dy11 O5_3 1_555 1_555
Dy4_3 O7_3 1_555 1_555
Dy5_3 O8_3 1_555 1_555
Dy6_3 O10_3 1_555 1_555
Dy12 O11_3 1_555 1_555
Dy13 O1_3 1_555 1_555
O1_3 C1_3 1_555 1_555
O2_3 Dy13 1_555 1_555
O3_3 Dy9_2 1_555 1_555
O4_3 C11_3 1_555 1_555
O5_3 Dy10 1_555 1_555
O6_3 Dy11 1_555 1_555
O7_3 C20_3 1_555 1_555
O8_3 Dy4_3 1_555 1_555
O9_3 Dy5_3 1_555 1_555
O10_3 C29_3 1_555 1_555
O11_3 Dy6_3 1_555 1_555
O12_3 Dy12 1_555 1_555
O13_3 Dy9_2 1_555 1_555
O14_3 Dy9_2 1_555 1_555
O15_3 Dy10 1_555 1_555
O16_3 Dy11 1_555 1_555
O17_3 Dy11 1_555 1_555
O18_3 Dy4_3 1_555 1_555
O19_3 Dy5_3 1_555 1_555
O20_3 Dy5_3 1_555 1_555
O21_3 Dy6_3 1_555 1_555
O22_3 Dy12 1_555 1_555
O23_3 Dy12 1_555 1_555
O24_3 Dy13 1_555 1_555
O25_3 Dy9_2 1_555 1_555
O26_3 Dy10 1_555 1_555
O32_3 Dy4_3 1_555 1_555
O33_3 Dy4_3 1_555 1_555
O34_3 Dy4_3 1_555 1_555
O35_3 Dy4_3 1_555 1_555
O52_2 Dy5_3 1_555 1_555
O53_2 Dy5_3 1_555 1_555
O54_2 C76_3 1_555 1_555
O39_3 Dy13 1_555 1_555
O55_2 Dy5_3 1_555 1_555
O41_3 Dy6_3 1_555 1_555
O42_3 Dy6_3 1_555 1_555
O43_3 Dy6_3 1_555 1_555
O44_2 Dy6_3 1_555 1_555
O45_2 C74_2 1_555 1_555
O46_2 Dy12 1_555 1_555
O47_3 Dy12 1_555 1_555
O49_3 Dy13 1_555 1_555
C1_3 C2_3 1_555 1_555
C2_3 O2_3 1_555 1_555
C3_3 O3_3 1_555 1_555
C4_3 C3_3 1_555 1_555
C5_3 C4_3 1_555 1_555
H1_3 C5_3 1_555 1_555
C6_3 C1_3 1_555 1_555
C7_3 C4_3 1_555 1_555
H2_3 C7_3 1_555 1_555
C8_3 C7_3 1_555 1_555
H3_3 C8_3 1_555 1_555
H4_3 C8_3 1_555 1_555
C10_3 C7_3 1_555 1_555
C11_3 C10_3 1_555 1_555
C12_3 O5_3 1_555 1_555
C13_3 O6_3 1_555 1_555
C14_3 C13_3 1_555 1_555
C15_3 C10_3 1_555 1_555
H8_3 C15_3 1_555 1_555
C16_3 C14_3 1_555 1_555
C19_3 C16_3 1_555 1_555
C20_3 C19_3 1_555 1_555
C21_3 O8_3 1_555 1_555
C22_3 O9_3 1_555 1_555
C23_3 C22_3 1_555 1_555
C24_3 C19_3 1_555 1_555
H15_3 C24_3 1_555 1_555
C25_3 C23_3 1_555 1_555
H16_3 C25_3 1_555 1_555
C28_3 C25_3 1_555 1_555
C29_3 C28_3 1_555 1_555
C30_3 O11_3 1_555 1_555
C31_3 O12_3 1_555 1_555
C32_3 C31_3 1_555 1_555
C33_3 C28_3 1_555 1_555
C37_3 C38_3 1_555 1_555
C38_3 O13_3 1_555 1_555
C39_3 O14_3 1_555 1_555
C40_3 O15_3 1_555 1_555
C41_3 C40_3 1_555 1_555
C42_3 C37_3 1_555 1_555
H29_3 C42_3 1_555 1_555
C43_3 C41_3 1_555 1_555
H30_3 C43_3 1_555 1_555
C44_3 C43_3 1_555 1_555
H31_3 C44_3 1_555 1_555
H32_3 C44_3 1_555 1_555
C45_3 C44_3 1_555 1_555
H33_3 C45_3 1_555 1_555
H34_3 C45_3 1_555 1_555
H35_3 C45_3 1_555 1_555
C46_3 C43_3 1_555 1_555
C47_3 O16_3 1_555 1_555
C48_3 O17_3 1_555 1_555
C49_3 O18_3 1_555 1_555
C50_3 C49_3 1_555 1_555
C51_3 C46_3 1_555 1_555
H36_3 C51_3 1_555 1_555
C52_3 C50_3 1_555 1_555
H37_3 C52_3 1_555 1_555
C53_3 C52_3 1_555 1_555
H38_3 C53_3 1_555 1_555
H39_3 C53_3 1_555 1_555
C54_3 C53_3 1_555 1_555
H40_3 C54_3 1_555 1_555
H41_3 C54_3 1_555 1_555
H42_3 C54_3 1_555 1_555
C55_3 C52_3 1_555 1_555
C56_3 O19_3 1_555 1_555
C57_3 O20_3 1_555 1_555
C58_3 O21_3 1_555 1_555
C59_3 C58_3 1_555 1_555
C60_3 C55_3 1_555 1_555
H43_3 C60_3 1_555 1_555
C61_3 C59_3 1_555 1_555
H44_2 C61_3 1_555 1_555
C62_2 C61_3 1_555 1_555
H45_3 C62_2 1_555 1_555
H46_2 C62_2 1_555 1_555
C63_2 C62_2 1_555 1_555
H47_2 C63_2 1_555 1_555
H48_2 C63_2 1_555 1_555
H49_2 C63_2 1_555 1_555
C64_3 C61_3 1_555 1_555
C65_3 O22_3 1_555 1_555
C66_3 O23_3 1_555 1_555
C67_3 O24_3 1_555 1_555
C68_3 C67_3 1_555 1_555
C69_3 C64_3 1_555 1_555
H50_3 C69_3 1_555 1_555
C70_3 C37_3 1_555 1_555
H51_3 C70_3 1_555 1_555
C71_3 C70_3 1_555 1_555
H52_3 C71_3 1_555 1_555
H53_3 C71_3 1_555 1_555
C72_3 C71_3 1_555 1_555
H54_3 C72_3 1_555 1_555
H55_3 C72_3 1_555 1_555
H56_3 C72_3 1_555 1_555
C74_2 O44_2 1_555 1_555
H58_2 C74_2 1_555 1_555
C75_3 O55_2 1_555 1_555
H59_3 C75_3 1_555 1_555
C76_3 O53_2 1_555 1_555
H60_3 C76_3 1_555 1_555
C78_3 O50 1_555 1_555
H62_3 C78_3 1_555 1_555
C79_3 O35_3 1_555 1_555
H63_3 C79_3 1_555 1_555
Dy10 O14_3 1_555 1_555
Dy10 O25_3 1_555 1_555
Dy4_3 O17_3 1_555 1_555
Dy5_3 O35_3 1_555 1_555
Dy6_3 O20_3 1_555 1_555
Dy12 O44_2 1_555 1_555
Dy13 O23_3 1_555 1_555
O52_2 C79_3 1_555 1_555
O41_3 C75_3 1_555 1_555
C2_3 C3_3 1_555 1_555
C5_3 C6_3 1_555 1_555
C11_3 C12_3 1_555 1_555
C12_3 C13_3 1_555 1_555
C14_3 C15_3 1_555 1_555
C20_3 C21_3 1_555 1_555
C21_3 C22_3 1_555 1_555
C23_3 C24_3 1_555 1_555
C29_3 C30_3 1_555 1_555
C30_3 C31_3 1_555 1_555
C32_3 C33_3 1_555 1_555
C38_3 C39_3 1_555 1_555
C39_3 C40_3 1_555 1_555
C41_3 C42_3 1_555 1_555
C46_3 C47_3 1_555 1_555
C47_3 C48_3 1_555 1_555
C48_3 C49_3 1_555 1_555
C50_3 C51_3 1_555 1_555
C55_3 C56_3 1_555 1_555
C56_3 C57_3 1_555 1_555
C57_3 C58_3 1_555 1_555
C59_3 C60_3 1_555 1_555
C64_3 C65_3 1_555 1_555
C65_3 C66_3 1_555 1_555
C66_3 C67_3 1_555 1_555
C68_3 C69_3 1_555 1_555
C68_3 C70_3 1_555 1_555
O42_3 H66_3 1_555 1_555
O42_3 H67_2 1_555 1_555
O43_3 H70_3 1_555 1_555
O43_3 H71_3 1_555 1_555
O34_3 H72_3 1_555 1_555
O34_3 H73_3 1_555 1_555
O49_3 H74_2 1_555 1_555
O49_3 H75_3 1_555 1_555
O46_2 H76_2 1_555 1_555
O46_2 H77_2 1_555 1_555
O33_3 H78_3 1_555 1_555
O33_3 H79_3 1_555 1_555
O39_3 H80_3 1_555 1_555
O39_3 H81_3 1_555 1_555
O26_3 H82_3 1_555 1_555
O26_3 H83_3 1_555 1_555
H5_3 C9_3 1_555 1_555
H6_3 C9_3 1_555 1_555
H7_3 C9_3 1_555 1_555
H10_3 C17_3 1_555 1_555
H11_3 C17_3 1_555 1_555
C18_3 C17_3 1_555 1_555
H12_3 C18_3 1_555 1_555
H13_3 C18_3 1_555 1_555
H14_3 C18_3 1_555 1_555
C77_3 O31_3 1_555 1_555
H61_3 C77_3 1_555 1_555
O28_3 H64_3 1_555 1_555
O28_3 H65_3 1_555 1_555
O27_3 H68_3 1_555 1_555
O27_3 H69_3 1_555 1_555
Dy9 O2_4 1_555 1_555
Dy10_2 O4_4 1_555 1_555
Dy14 O1_4 1_555 1_555
O1_4 C1_4 1_555 1_555
O2_4 Dy14 1_555 1_555
O3_4 Dy9 1_555 1_555
O4_4 C11_4 1_555 1_555
O5_4 Dy10_2 1_555 1_555
O13_4 Dy9 1_555 1_555
O14_4 Dy9 1_555 1_555
O15_4 Dy10_2 1_555 1_555
O24_4 Dy14 1_555 1_555
O25_4 Dy9 1_555 1_555
O26_4 Dy10_2 1_555 1_555
O27_4 Dy10_2 1_555 1_555
O39_4 Dy14 1_555 1_555
O49_4 Dy14 1_555 1_555
C1_4 C2_4 1_555 1_555
C2_4 O2_4 1_555 1_555
C3_4 O3_4 1_555 1_555
C4_4 C3_4 1_555 1_555
C5_4 C4_4 1_555 1_555
H1_4 C5_4 1_555 1_555
C6_4 C1_4 1_555 1_555
C7_4 C4_4 1_555 1_555
H2_4 C7_4 1_555 1_555
C8_4 C7_4 1_555 1_555
H3_4 C8_4 1_555 1_555
H4_4 C8_4 1_555 1_555
C9_4 C8_4 1_555 1_555
H5_4 C9_4 1_555 1_555
H6_4 C9_4 1_555 1_555
H7_4 C9_4 1_555 1_555
C10_4 C7_4 1_555 1_555
C11_4 C10_4 1_555 1_555
C12_4 O5_4 1_555 1_555
C37_4 C38_4 1_555 1_555
C38_4 O13_4 1_555 1_555
C39_4 O14_4 1_555 1_555
C40_4 O15_4 1_555 1_555
C41_4 C40_4 1_555 1_555
C42_4 C37_4 1_555 1_555
H29_4 C42_4 1_555 1_555
C43_4 C41_4 1_555 1_555
H30_4 C43_4 1_555 1_555
C44_4 C43_4 1_555 1_555
H31_4 C44_4 1_555 1_555
H32_4 C44_4 1_555 1_555
C45_4 C44_4 1_555 1_555
H33_4 C45_4 1_555 1_555
H34_4 C45_4 1_555 1_555
H35_4 C45_4 1_555 1_555
C46_4 C43_4 1_555 1_555
C66_4 O23_4 1_555 1_555
C67_4 O24_4 1_555 1_555
C68_4 C67_4 1_555 1_555
C69_4 C64_4 1_555 1_555
H50_4 C69_4 1_555 1_555
C70_4 C37_4 1_555 1_555
H51_4 C70_4 1_555 1_555
C71_4 C70_4 1_555 1_555
H52_4 C71_4 1_555 1_555
H53_4 C71_4 1_555 1_555
C72_4 C71_4 1_555 1_555
H54_4 C72_4 1_555 1_555
H55_4 C72_4 1_555 1_555
H56_4 C72_4 1_555 1_555
Dy10_2 O14_4 1_555 1_555
Dy10_2 O25_4 1_555 1_555
Dy14 O23_4 1_555 1_555
C2_4 C3_4 1_555 1_555
C5_4 C6_4 1_555 1_555
C11_4 C12_4 1_555 1_555
C38_4 C39_4 1_555 1_555
C39_4 C40_4 1_555 1_555
C41_4 C42_4 1_555 1_555
C64_4 C65_4 1_555 1_555
C65_4 C66_4 1_555 1_555
C66_4 C67_4 1_555 1_555
C68_4 C69_4 1_555 1_555
C68_4 C70_4 1_555 1_555
O28_4 H64_4 1_555 1_555
O27_4 H68_4 1_555 1_555
O27_4 H69_4 1_555 1_555
O49_4 H75_4 1_555 1_555
O39_4 H80_4 1_555 1_555
O39_4 H81_4 1_555 1_555
O26_4 H82_4 1_555 1_555
O26_4 H83_4 1_555 1_555
Dy4_4 O7_4 1_555 1_555
Dy5_4 O8_4 1_555 1_555
Dy6_4 O10_4 1_555 1_555
Dy12_2 O11_4 1_555 1_555
O6_4 Dy11_2 1_555 1_555
O7_4 C20_4 1_555 1_555
O8_4 Dy4_4 1_555 1_555
O9_4 Dy5_4 1_555 1_555
O10_4 C29_4 1_555 1_555
O11_4 Dy6_4 1_555 1_555
O12_4 Dy12_2 1_555 1_555
O17_4 Dy11_2 1_555 1_555
O18_4 Dy4_4 1_555 1_555
O19_4 Dy5_4 1_555 1_555
O20_4 Dy5_4 1_555 1_555
O21_4 Dy6_4 1_555 1_555
O22_4 Dy12_2 1_555 1_555
O51_2 C78_4 1_555 1_555
O31_4 Dy11_2 1_555 1_555
O32_4 Dy4_4 1_555 1_555
O33_4 Dy4_4 1_555 1_555
O34_4 Dy4_4 1_555 1_555
O35_4 Dy4_4 1_555 1_555
O52 Dy5_4 1_555 1_555
O53 Dy5_4 1_555 1_555
O54 C76_4 1_555 1_555
O55 Dy5_4 1_555 1_555
O41_4 Dy6_4 1_555 1_555
O42_4 Dy6_4 1_555 1_555
O43_4 Dy6_4 1_555 1_555
O47_4 Dy12_2 1_555 1_555
C13_4 O6_4 1_555 1_555
C14_4 C13_4 1_555 1_555
H8_4 C15_4 1_555 1_555
C16_4 C14_4 1_555 1_555
H9_4 C16_4 1_555 1_555
C17_4 C16_4 1_555 1_555
H10_4 C17_4 1_555 1_555
H11_4 C17_4 1_555 1_555
C18_4 C17_4 1_555 1_555
H12_4 C18_4 1_555 1_555
H13_4 C18_4 1_555 1_555
H14_4 C18_4 1_555 1_555
C19_4 C16_4 1_555 1_555
C20_4 C19_4 1_555 1_555
C21_4 O8_4 1_555 1_555
C22_4 O9_4 1_555 1_555
C23_4 C22_4 1_555 1_555
C24_4 C19_4 1_555 1_555
H15_4 C24_4 1_555 1_555
C25_4 C23_4 1_555 1_555
H16_4 C25_4 1_555 1_555
C28_4 C25_4 1_555 1_555
C29_4 C28_4 1_555 1_555
C30_4 O11_4 1_555 1_555
C31_4 O12_4 1_555 1_555
C32_4 C31_4 1_555 1_555
C33_4 C28_4 1_555 1_555
C48_4 O17_4 1_555 1_555
C49_4 O18_4 1_555 1_555
C50_4 C49_4 1_555 1_555
H36_4 C51_4 1_555 1_555
C52_4 C50_4 1_555 1_555
H37_4 C52_4 1_555 1_555
C53_4 C52_4 1_555 1_555
H38_4 C53_4 1_555 1_555
H39_4 C53_4 1_555 1_555
C54_4 C53_4 1_555 1_555
H40_4 C54_4 1_555 1_555
H41_4 C54_4 1_555 1_555
H42_4 C54_4 1_555 1_555
C55_4 C52_4 1_555 1_555
C56_4 O19_4 1_555 1_555
C57_4 O20_4 1_555 1_555
C58_4 O21_4 1_555 1_555
C59_4 C58_4 1_555 1_555
C60_4 C55_4 1_555 1_555
H43_4 C60_4 1_555 1_555
C61_4 C59_4 1_555 1_555
C75_4 O55 1_555 1_555
H59_4 C75_4 1_555 1_555
C76_4 O53 1_555 1_555
H60_4 C76_4 1_555 1_555
C77_4 O31_4 1_555 1_555
H61_4 C77_4 1_555 1_555
C78_4 O50_2 1_555 1_555
H62_4 C78_4 1_555 1_555
C79_4 O35_4 1_555 1_555
H63_4 C79_4 1_555 1_555
Dy4_4 O17_4 1_555 1_555
Dy5_4 O35_4 1_555 1_555
Dy6_4 O20_4 1_555 1_555
O32_4 C77_4 1_555 1_555
O52 C79_4 1_555 1_555
O41_4 C75_4 1_555 1_555
C14_4 C15_4 1_555 1_555
C20_4 C21_4 1_555 1_555
C21_4 C22_4 1_555 1_555
C23_4 C24_4 1_555 1_555
C29_4 C30_4 1_555 1_555
C30_4 C31_4 1_555 1_555
C32_4 C33_4 1_555 1_555
C47_4 C48_4 1_555 1_555
C48_4 C49_4 1_555 1_555
C50_4 C51_4 1_555 1_555
C55_4 C56_4 1_555 1_555
C56_4 C57_4 1_555 1_555
C57_4 C58_4 1_555 1_555
C59_4 C60_4 1_555 1_555
O42_4 H66_4 1_555 1_555
O43_4 H70_4 1_555 1_555
O43_4 H71_4 1_555 1_555
O34_4 H72_4 1_555 1_555
O34_4 H73_4 1_555 1_555
O33_4 H78_4 1_555 1_555
O33_4 H79_4 1_555 1_555
O56_2 C73_4 1_555 1_555
H57_4 C73_4 1_555 1_555
H17_3 C26_3 1_555 1_555
H18_3 C26_3 1_555 1_555
C27_3 C26_3 1_555 1_555
H19_3 C27_3 1_555 1_555
H20_3 C27_3 1_555 1_555
H21_3 C27_3 1_555 1_555
H24_3 C35_3 1_555 1_555
C36_3 C35_3 1_555 1_555
H26_3 C36_3 1_555 1_555
H27_3 C36_3 1_555 1_555
H28_3 C36_3 1_555 1_555
H23_3 C34_3 1_555 1_555
O45_3 C74_3 1_555 1_555
C63_3 C62_3 1_555 1_555
H47_3 C63_3 1_555 1_555
H48_3 C63_3 1_555 1_555
H49_3 C63_3 1_555 1_555
C74_3 O44_3 1_555 1_555
H58_3 C74_3 1_555 1_555
O46_3 H76_3 1_555 1_555
O46_3 H77_3 1_555 1_555
O46_4 H76_4 1_555 1_555
O46_4 H77_4 1_555 1_555
O45_4 C74_4 1_555 1_555
C63_4 C62_4 1_555 1_555
H47_4 C63_4 1_555 1_555
H48_4 C63_4 1_555 1_555
H49_4 C63_4 1_555 1_555
C74_4 O44_4 1_555 1_555
H58_4 C74_4 1_555 1_555
H23_4 C34_4 1_555 1_555
H17_4 C26_4 1_555 1_555
H18_4 C26_4 1_555 1_555
C27_4 C26_4 1_555 1_555
H19_4 C27_4 1_555 1_555
H20_4 C27_4 1_555 1_555
H21_4 C27_4 1_555 1_555
H24_4 C35_4 1_555 1_555
C36_4 C35_4 1_555 1_555
H26_4 C36_4 1_555 1_555
H27_4 C36_4 1_555 1_555
H28_4 C36_4 1_555 1_555

#END
