
###############################################################################
#
# This file contains modified crystal structure data generated from the
# MOF subset of the Cambridge Structural Database (CSD) v543 
# hosted by the Cambridge Crystallographic Data Centre (CCDC).
#
# This work is licensed under the Creative Commons
# Attribution-NonCommercial-ShareAlike 4.0 International License.
# To view a copy of this license, visit
# http://creativecommons.org/licenses/by-nc-sa/4.0/
# or send a letter to
# Creative Commons, PO Box 1866, Mountain View, CA 94042, USA.
#
# CIF created using the CSD Python API on 29 September 2022
# The structure has been converted into the P1 space group
# The structure has a 3D framework
# The original CSD entry JIDPAQ is in the cubic crystal system
# The framework has been calculated to contain at least 10.0% void space
# The void calculation uses a probe of radius 1.32A, grid spacing 0.4
# The framework is charged, counterions have been retained in the structure
# H atom positions have been added when not included in the experimental data
# Generated hydrogen atom positions removed from atoms on special positions
#
###############################################################################

data_JIDPAQ
_chemical_formula_moiety         '(C432 H530 O266 Y48 32-)n'
_symmetry_cell_setting           triclinic
_symmetry_space_group_name_H-M   'P 1'
_symmetry_Int_Tables_number      1
_space_group_name_Hall           'P 1'
loop_
_symmetry_equiv_pos_site_id
_symmetry_equiv_pos_as_xyz
1 x,y,z
_cell_length_a                   25.0883(6)
_cell_length_b                   25.0883(6)
_cell_length_c                   25.0883(6)
_cell_angle_alpha                90
_cell_angle_beta                 90
_cell_angle_gamma                90
_cell_volume                     15791.1
loop_
_atom_site_label
_atom_site_type_symbol
_atom_site_fract_x
_atom_site_fract_y
_atom_site_fract_z
Y1 Y 0.26838(4) 0.14502(4) 0.22963(4)
O1 O 0.2015(3) 0.2015(3) 0.2015(3)
H1 H 0.178960 0.178936 0.178936
O2 O 0.2971(3) 0.2179(3) 0.1853(3)
H2 H 0.318106 0.203859 0.155471
O3 O 0.2607(4) 0.1198(4) 0.1417(3)
O4 O 0.2338(4) 0.1933(4) 0.0949(3)
O5 O 0.2862(4) 0.0946(4) 0.3045(4)
O6 O 0.2870(4) 0.1432(4) 0.3802(4)
C1 C 0.2489(6) 0.1447(5) 0.0998(6)
C2 C 0.2478(7) 0.1140(6) 0.0472(6)
C3 C 0.2509(7) 0.0581(5) 0.0470(5)
H3 H 0.253185 0.039769 0.079112
C4 C 0.2504(10) 0.0300(8) 0.000000
C5 C 0.2466(8) 0.1417(8) 0.000000
H4 H 0.245020 0.178709 0.000001
C6 C 0.2861(6) 0.1007(6) 0.3542(5)
C7 C 0.2850(7) 0.0483(6) 0.3851(6)
C8 C 0.2832(7) 0.0488(6) 0.4416(7)
H5 H 0.282402 0.081188 0.459582
C9 C 0.2827(10) 0.000000 0.4712(9)
C10 C 0.2857(10) 0.000000 0.3559(9)
H6 H 0.286599 -0.000001 0.318809
O7 O 0.2745(10) 0.0375(9) 0.1933(10)
C25 C 0.2827(10) 0.000000 0.5288(9)
C26 C 0.2857(10) 0.000000 0.6441(9)
H12 H 0.286599 0.000001 0.681191
O16 O 0.2862(4) 0.0946(4) 0.6955(4)
O17 O 0.2870(4) 0.1432(4) 0.6198(4)
C27 C 0.2861(6) 0.1007(6) 0.6458(5)
C28 C 0.2850(7) 0.0483(6) 0.6149(6)
C29 C 0.2832(7) 0.0488(6) 0.5584(7)
H13 H 0.282402 0.081188 0.540418
Y3 Y 0.22963(4) 0.26838(4) 0.14502(4)
O31 O 0.1853(3) 0.2971(3) 0.2179(3)
H23 H 0.155471 0.318106 0.203859
O32 O 0.1417(3) 0.2607(4) 0.1198(4)
O33 O 0.0949(3) 0.2338(4) 0.1933(4)
C49 C 0.0998(6) 0.2489(6) 0.1447(5)
C50 C 0.0472(6) 0.2478(7) 0.1140(6)
C51 C 0.0470(5) 0.2509(7) 0.0581(5)
H24 H 0.079112 0.253185 0.039769
C52 C -0.000000 0.2504(10) 0.0300(8)
C53 C 0.000000 0.2466(8) 0.1417(8)
H25 H 0.000001 0.245020 0.178709
O34 O 0.1933(10) 0.2745(10) 0.0375(9)
Y7 Y 0.14502(4) 0.22963(4) 0.26838(4)
O57 O 0.2179(3) 0.1853(3) 0.2971(3)
H41 H 0.203859 0.155471 0.318106
O58 O 0.0375(9) 0.1933(10) 0.2745(10)
O69 O 0.4054(4) 0.1955(4) 0.2138(4)
O70 O 0.3568(4) 0.1198(4) 0.2130(4)
C81 C 0.3993(6) 0.1458(5) 0.2139(6)
C82 C 0.4517(6) 0.1149(6) 0.2150(7)
C83 C 0.4512(6) 0.0584(7) 0.2168(7)
H47 H 0.418812 0.040418 0.217598
C84 C 0.500000 0.0288(9) 0.2173(10)
C85 C 0.500000 0.1441(9) 0.2143(10)
H48 H 0.499999 0.181191 0.213401
O75 O 0.5946(4) 0.1955(4) 0.2138(4)
O76 O 0.6432(4) 0.1198(4) 0.2130(4)
C94 C 0.6007(6) 0.1458(5) 0.2139(6)
C95 C 0.5483(6) 0.1149(6) 0.2150(7)
C96 C 0.5488(6) 0.0584(7) 0.2168(7)
H52 H 0.581188 0.040418 0.217598
Y19 Y 0.27037(4) 0.23162(4) 0.64502(4)
Y23 Y 0.64502(4) 0.27037(4) 0.23162(4)
Y25 Y 0.26838(4) 0.14502(4) 0.77037(4)
Y27 Y 0.73162(4) 0.14502(4) 0.22963(4)
Y36 Y 0.23162(4) 0.35498(4) 0.27037(4)
Y41 Y 0.27037(4) 0.23162(4) 0.35498(4)
Y46 Y 0.35498(4) 0.27037(4) 0.23162(4)
O85 O 0.2029(3) 0.2821(3) 0.3147(3)
O89 O 0.3147(3) 0.2029(3) 0.2821(3)
O91 O 0.2821(3) 0.3147(3) 0.2029(3)
O95 O 0.1198(4) 0.1417(3) 0.2607(4)
O101 O 0.1933(4) 0.0949(3) 0.2338(4)
O105 O 0.3045(4) 0.2862(4) 0.0946(4)
O109 O 0.0946(4) 0.3045(4) 0.2862(4)
O114 O 0.2130(4) 0.3568(4) 0.1198(4)
O118 O 0.1198(4) 0.2130(4) 0.3568(4)
C4_2 C 0.2504(10) 0.0300(8) 1.000000
C5_2 C 0.2466(8) 0.1417(8) 1.000000
H4_2 H 0.245020 0.178709 1.000001
O10 O 0.2607(4) 0.1198(4) 0.8583(3)
O11 O 0.2338(4) 0.1933(4) 0.9051(3)
C16 C 0.2489(6) 0.1447(5) 0.9002(6)
C17 C 0.2478(7) 0.1140(6) 0.9528(6)
C18 C 0.2509(7) 0.0581(5) 0.9530(5)
H9 H 0.253185 0.039769 0.920888
C57 C 0.000000 0.2504(10) 0.9700(8)
C58 C 0.000000 0.2466(8) 0.8583(8)
H27 H -0.000001 0.245020 0.821291
O39 O 0.1417(3) 0.2607(4) 0.8802(4)
O40 O 0.0949(3) 0.2338(4) 0.8067(4)
C62 C 0.0998(6) 0.2489(6) 0.8553(5)
C63 C 0.0472(6) 0.2478(7) 0.8860(6)
C64 C 0.0470(5) 0.2509(7) 0.9419(5)
H29 H 0.079112 0.253185 0.960231
O65 O 0.2971(3) 0.2179(3) 0.8147(3)
H45 H 0.318106 0.203859 0.844529
O66 O 0.2745(10) 0.0375(9) 0.8067(10)
Y24 Y 0.35498(4) 0.27037(4) 0.76838(4)
Y30 Y 0.22963(4) 0.26838(4) 0.85498(4)
Y35 Y 0.14502(4) 0.22963(4) 0.73162(4)
O77 O 0.2015(3) 0.2015(3) 0.7985(3)
O81 O 0.3147(3) 0.2029(3) 0.7179(3)
O84 O 0.2179(3) 0.1853(3) 0.7029(3)
O104 O 0.1933(4) 0.0949(3) 0.7662(4)
O113 O 0.3568(4) 0.1198(4) 0.7870(4)
C9_2 C 0.2827(10) 1.000000 0.4712(9)
C10_2 C 0.2857(10) 1.000000 0.3559(9)
H6_2 H 0.286599 0.999999 0.318809
C14 C 0.2504(10) 0.9700(8) 0.000000
C15 C 0.2466(8) 0.8583(8) 0.000000
H8 H 0.245020 0.821291 -0.000001
O12 O 0.2607(4) 0.8802(4) 0.1417(3)
O13 O 0.2338(4) 0.8067(4) 0.0949(3)
C19 C 0.2489(6) 0.8553(5) 0.0998(6)
C20 C 0.2478(7) 0.8860(6) 0.0472(6)
C21 C 0.2509(7) 0.9419(5) 0.0470(5)
H10 H 0.253185 0.960231 0.079112
O14 O 0.2862(4) 0.9054(4) 0.6955(4)
O15 O 0.2870(4) 0.8568(4) 0.6198(4)
C22 C 0.2861(6) 0.8993(6) 0.6458(5)
C23 C 0.2850(7) 0.9517(6) 0.6149(6)
C24 C 0.2832(7) 0.9512(6) 0.5584(7)
H11 H 0.282402 0.918812 0.540418
C25_2 C 0.2827(10) 1.000000 0.5288(9)
C26_2 C 0.2857(10) 1.000000 0.6441(9)
H12_2 H 0.286599 1.000001 0.681191
O18 O 0.2862(4) 0.9054(4) 0.3045(4)
O19 O 0.2870(4) 0.8568(4) 0.3802(4)
C30 C 0.2861(6) 0.8993(6) 0.3542(5)
C31 C 0.2850(7) 0.9517(6) 0.3851(6)
C32 C 0.2832(7) 0.9512(6) 0.4416(7)
H14 H 0.282402 0.918812 0.459582
C73 C -0.000000 0.7496(10) 0.0300(8)
C74 C -0.000000 0.7534(8) 0.1417(8)
H34 H -0.000001 0.754980 0.178709
O49 O 0.1417(3) 0.7393(4) 0.1198(4)
O50 O 0.0949(3) 0.7662(4) 0.1933(4)
C78 C 0.0998(6) 0.7511(6) 0.1447(5)
C79 C 0.0472(6) 0.7522(7) 0.1140(6)
C80 C 0.0470(5) 0.7491(7) 0.0581(5)
H36 H 0.079112 0.746815 0.039769
Y12 Y 0.26838(4) 0.85498(4) 0.22963(4)
O67 O 0.2971(3) 0.7821(3) 0.1853(3)
H46 H 0.318106 0.796141 0.155471
O68 O 0.2745(10) 0.9625(9) 0.1933(10)
O71 O 0.5946(4) 0.8045(4) 0.2138(4)
O72 O 0.6432(4) 0.8802(4) 0.2130(4)
C86 C 0.6007(6) 0.8542(5) 0.2139(6)
C87 C 0.5483(6) 0.8851(6) 0.2150(7)
C88 C 0.5488(6) 0.9416(7) 0.2168(7)
H49 H 0.581188 0.959582 0.217598
C89 C 0.500000 0.9712(9) 0.2173(10)
C90 C 0.500000 0.8559(9) 0.2143(10)
H50 H 0.500001 0.818809 0.213401
O73 O 0.4054(4) 0.8045(4) 0.2138(4)
O74 O 0.3568(4) 0.8802(4) 0.2130(4)
C91 C 0.3993(6) 0.8542(5) 0.2139(6)
C92 C 0.4517(6) 0.8851(6) 0.2150(7)
C93 C 0.4512(6) 0.9416(7) 0.2168(7)
H51 H 0.418812 0.959582 0.217598
Y15 Y 0.73162(4) 0.85498(4) 0.22963(4)
Y17 Y 0.26838(4) 0.85498(4) 0.77037(4)
Y21 Y 0.27037(4) 0.76838(4) 0.35498(4)
Y22 Y 0.35498(4) 0.72963(4) 0.23162(4)
Y31 Y 0.22963(4) 0.73162(4) 0.14502(4)
Y33 Y 0.14502(4) 0.77037(4) 0.26838(4)
Y43 Y 0.27037(4) 0.76838(4) 0.64502(4)
Y48 Y 0.64502(4) 0.72963(4) 0.23162(4)
O78 O 0.2015(3) 0.7985(3) 0.2015(3)
O82 O 0.3147(3) 0.7971(3) 0.2821(3)
O83 O 0.2179(3) 0.8147(3) 0.2971(3)
O103 O 0.1933(4) 0.9051(3) 0.2338(4)
O8 O 0.2607(4) 0.8802(4) 0.8583(3)
O9 O 0.2338(4) 0.8067(4) 0.9051(3)
C11 C 0.2489(6) 0.8553(5) 0.9002(6)
C12 C 0.2478(7) 0.8860(6) 0.9528(6)
C13 C 0.2509(7) 0.9419(5) 0.9530(5)
H7 H 0.253185 0.960231 0.920888
C14_2 C 0.2504(10) 0.9700(8) 1.000000
C15_2 C 0.2466(8) 0.8583(8) 1.000000
H8_2 H 0.245020 0.821291 0.999999
O20 O 0.2015(3) 0.7985(3) 0.7985(3)
H15 H 0.178960 0.821064 0.821064
O21 O 0.2971(3) 0.7821(3) 0.8147(3)
H16 H 0.318106 0.796141 0.844529
O24 O 0.2745(10) 0.9625(9) 0.8067(10)
Y4 Y 0.22963(4) 0.73162(4) 0.85498(4)
O41 O 0.1853(3) 0.7029(3) 0.7821(3)
H30 H 0.155471 0.681894 0.796141
O42 O 0.1417(3) 0.7393(4) 0.8802(4)
O43 O 0.0949(3) 0.7662(4) 0.8067(4)
C65 C 0.0998(6) 0.7511(6) 0.8553(5)
C66 C 0.0472(6) 0.7522(7) 0.8860(6)
C67 C 0.0470(5) 0.7491(7) 0.9419(5)
H31 H 0.079112 0.746815 0.960231
C68 C 0.000000 0.7496(10) 0.9700(8)
C69 C -0.000000 0.7534(8) 0.8583(8)
H32 H 0.000001 0.754980 0.821291
O44 O 0.1933(10) 0.7255(10) 0.9625(9)
Y9 Y 0.14502(4) 0.77037(4) 0.73162(4)
O61 O 0.2179(3) 0.8147(3) 0.7029(3)
H43 H 0.203859 0.844529 0.681894
O62 O 0.0375(9) 0.8067(10) 0.7255(10)
Y39 Y 0.23162(4) 0.64502(4) 0.72963(4)
Y47 Y 0.35498(4) 0.72963(4) 0.76838(4)
O88 O 0.2029(3) 0.7179(3) 0.6853(3)
O90 O 0.3147(3) 0.7971(3) 0.7179(3)
O93 O 0.2821(3) 0.6853(3) 0.7971(3)
O97 O 0.1198(4) 0.8583(3) 0.7393(4)
O102 O 0.1933(4) 0.9051(3) 0.7662(4)
O106 O 0.3045(4) 0.7138(4) 0.9054(4)
O111 O 0.0946(4) 0.6955(4) 0.7138(4)
O117 O 0.2130(4) 0.6432(4) 0.8802(4)
O119 O 0.1198(4) 0.7870(4) 0.6432(4)
O122 O 0.3568(4) 0.8802(4) 0.7870(4)
C52_2 C 1.000000 0.2504(10) 0.0300(8)
C53_2 C 1.000000 0.2466(8) 0.1417(8)
H25_2 H 1.000001 0.245020 0.178709
O37 O 0.8583(3) 0.2607(4) 0.1198(4)
O38 O 0.9051(3) 0.2338(4) 0.1933(4)
C59 C 0.9002(6) 0.2489(6) 0.1447(5)
C60 C 0.9528(6) 0.2478(7) 0.1140(6)
C61 C 0.9530(5) 0.2509(7) 0.0581(5)
H28 H 0.920888 0.253185 0.039769
Y29 Y 0.77037(4) 0.26838(4) 0.14502(4)
Y34 Y 0.85498(4) 0.22963(4) 0.26838(4)
O35 O 0.8583(3) 0.2607(4) 0.8802(4)
O36 O 0.9051(3) 0.2338(4) 0.8067(4)
C54 C 0.9002(6) 0.2489(6) 0.8553(5)
C55 C 0.9528(6) 0.2478(7) 0.8860(6)
C56 C 0.9530(5) 0.2509(7) 0.9419(5)
H26 H 0.920888 0.253185 0.960231
C57_2 C 1.000000 0.2504(10) 0.9700(8)
C58_2 C 1.000000 0.2466(8) 0.8583(8)
H27_2 H 0.999999 0.245020 0.821291
Y6 Y 0.77037(4) 0.26838(4) 0.85498(4)
O54 O 0.7985(3) 0.2015(3) 0.7985(3)
H39 H 0.821040 0.178936 0.821064
O55 O 0.8147(3) 0.2971(3) 0.7821(3)
H40 H 0.844529 0.318106 0.796141
O56 O 0.8067(10) 0.2745(10) 0.9625(9)
Y8 Y 0.85498(4) 0.22963(4) 0.73162(4)
O59 O 0.7821(3) 0.1853(3) 0.7029(3)
H42 H 0.796141 0.155471 0.681894
O60 O 0.9625(9) 0.1933(10) 0.7255(10)
Y16 Y 0.73162(4) 0.14502(4) 0.77037(4)
Y38 Y 0.76838(4) 0.35498(4) 0.72963(4)
Y45 Y 0.72963(4) 0.23162(4) 0.64502(4)
O80 O 0.7029(3) 0.2179(3) 0.8147(3)
O87 O 0.7971(3) 0.2821(3) 0.6853(3)
O92 O 0.7179(3) 0.3147(3) 0.7971(3)
O96 O 0.8802(4) 0.1417(3) 0.7393(4)
O100 O 0.7662(4) 0.1933(4) 0.9051(3)
O108 O 0.6955(4) 0.2862(4) 0.9054(4)
O110 O 0.9054(4) 0.3045(4) 0.7138(4)
O116 O 0.7870(4) 0.3568(4) 0.8802(4)
O121 O 0.8802(4) 0.2130(4) 0.6432(4)
O45 O 0.8583(3) 0.7393(4) 0.1198(4)
O46 O 0.9051(3) 0.7662(4) 0.1933(4)
C70 C 0.9002(6) 0.7511(6) 0.1447(5)
C71 C 0.9528(6) 0.7522(7) 0.1140(6)
C72 C 0.9530(5) 0.7491(7) 0.0581(5)
H33 H 0.920888 0.746815 0.039769
C73_2 C 1.000000 0.7496(10) 0.0300(8)
C74_2 C 1.000000 0.7534(8) 0.1417(8)
H34_2 H 0.999999 0.754980 0.178709
Y5 Y 0.77037(4) 0.73162(4) 0.14502(4)
O51 O 0.7985(3) 0.7985(3) 0.2015(3)
H37 H 0.821040 0.821064 0.178936
O52 O 0.8147(3) 0.7029(3) 0.2179(3)
H38 H 0.844529 0.681894 0.203859
O53 O 0.8067(10) 0.7255(10) 0.0375(9)
Y10 Y 0.85498(4) 0.77037(4) 0.26838(4)
O63 O 0.7821(3) 0.8147(3) 0.2971(3)
H44 H 0.796141 0.844529 0.318106
O64 O 0.9625(9) 0.8067(10) 0.2745(10)
Y37 Y 0.76838(4) 0.64502(4) 0.27037(4)
Y44 Y 0.72963(4) 0.76838(4) 0.35498(4)
O79 O 0.7029(3) 0.7821(3) 0.1853(3)
O86 O 0.7971(3) 0.7179(3) 0.3147(3)
O94 O 0.7179(3) 0.6853(3) 0.2029(3)
O98 O 0.8802(4) 0.8583(3) 0.2607(4)
O99 O 0.7662(4) 0.8067(4) 0.0949(3)
O107 O 0.6955(4) 0.7138(4) 0.0946(4)
O112 O 0.9054(4) 0.6955(4) 0.2862(4)
O115 O 0.7870(4) 0.6432(4) 0.1198(4)
O120 O 0.8802(4) 0.7870(4) 0.3568(4)
C68_2 C 1.000000 0.7496(10) 0.9700(8)
C69_2 C 1.000000 0.7534(8) 0.8583(8)
H32_2 H 1.000001 0.754980 0.821291
O47 O 0.8583(3) 0.7393(4) 0.8802(4)
O48 O 0.9051(3) 0.7662(4) 0.8067(4)
C75 C 0.9002(6) 0.7511(6) 0.8553(5)
C76 C 0.9528(6) 0.7522(7) 0.8860(6)
C77 C 0.9530(5) 0.7491(7) 0.9419(5)
H35 H 0.920888 0.746815 0.960231
Y28 Y 0.77037(4) 0.73162(4) 0.85498(4)
Y32 Y 0.85498(4) 0.77037(4) 0.73162(4)
C9_3 C 0.7173(10) 0.000000 0.4712(9)
C10_3 C 0.7143(10) 0.000000 0.3559(9)
H6_3 H 0.713401 0.000001 0.318809
C14_3 C 0.7496(10) 0.0300(8) 0.000000
C15_3 C 0.7534(8) 0.1417(8) 0.000000
H8_3 H 0.754980 0.178709 -0.000001
O12_2 O 0.7393(4) 0.1198(4) 0.1417(3)
O13_2 O 0.7662(4) 0.1933(4) 0.0949(3)
C19_2 C 0.7511(6) 0.1447(5) 0.0998(6)
C20_2 C 0.7522(7) 0.1140(6) 0.0472(6)
C21_2 C 0.7491(7) 0.0581(5) 0.0470(5)
H10_2 H 0.746815 0.039769 0.079112
O14_2 O 0.7138(4) 0.0946(4) 0.6955(4)
O15_2 O 0.7130(4) 0.1432(4) 0.6198(4)
C22_2 C 0.7139(6) 0.1007(6) 0.6458(5)
C23_2 C 0.7150(7) 0.0483(6) 0.6149(6)
C24_2 C 0.7168(7) 0.0488(6) 0.5584(7)
H11_2 H 0.717598 0.081188 0.540418
C25_3 C 0.7173(10) -0.000000 0.5288(9)
C26_3 C 0.7143(10) -0.000000 0.6441(9)
H12_3 H 0.713401 -0.000001 0.681191
O18_2 O 0.7138(4) 0.0946(4) 0.3045(4)
O19_2 O 0.7130(4) 0.1432(4) 0.3802(4)
C30_2 C 0.7139(6) 0.1007(6) 0.3542(5)
C31_2 C 0.7150(7) 0.0483(6) 0.3851(6)
C32_2 C 0.7168(7) 0.0488(6) 0.4416(7)
H14_2 H 0.717598 0.081188 0.459582
O67_2 O 0.7029(3) 0.2179(3) 0.1853(3)
H46_2 H 0.681894 0.203859 0.155471
O68_2 O 0.7255(10) 0.0375(9) 0.1933(10)
Y21_2 Y 0.72963(4) 0.23162(4) 0.35498(4)
O78_2 O 0.7985(3) 0.2015(3) 0.2015(3)
O82_2 O 0.6853(3) 0.2029(3) 0.2821(3)
O83_2 O 0.7821(3) 0.1853(3) 0.2971(3)
O103_2 O 0.8067(4) 0.0949(3) 0.2338(4)
O8_2 O 0.7393(4) 0.1198(4) 0.8583(3)
C11_2 C 0.7511(6) 0.1447(5) 0.9002(6)
C12_2 C 0.7522(7) 0.1140(6) 0.9528(6)
C13_2 C 0.7491(7) 0.0581(5) 0.9530(5)
H7_2 H 0.746815 0.039769 0.920888
C14_4 C 0.7496(10) 0.0300(8) 1.000000
C15_4 C 0.7534(8) 0.1417(8) 1.000000
H8_4 H 0.754980 0.178709 0.999999
H16_2 H 0.681894 0.203859 0.844529
O24_2 O 0.7255(10) 0.0375(9) 0.8067(10)
Y47_2 Y 0.64502(4) 0.27037(4) 0.76838(4)
O90_2 O 0.6853(3) 0.2029(3) 0.7179(3)
O102_2 O 0.8067(4) 0.0949(3) 0.7662(4)
O122_2 O 0.6432(4) 0.1198(4) 0.7870(4)
H2_2 H 0.681894 0.796141 0.155471
O3_2 O 0.7393(4) 0.8802(4) 0.1417(3)
O5_2 O 0.7138(4) 0.9054(4) 0.3045(4)
O6_2 O 0.7130(4) 0.8568(4) 0.3802(4)
C1_2 C 0.7511(6) 0.8553(5) 0.0998(6)
C2_2 C 0.7522(7) 0.8860(6) 0.0472(6)
C3_2 C 0.7491(7) 0.9419(5) 0.0470(5)
H3_2 H 0.746815 0.960231 0.079112
C4_3 C 0.7496(10) 0.9700(8) 0.000000
C5_3 C 0.7534(8) 0.8583(8) 0.000000
H4_3 H 0.754980 0.821291 0.000001
C6_2 C 0.7139(6) 0.8993(6) 0.3542(5)
C7_2 C 0.7150(7) 0.9517(6) 0.3851(6)
C8_2 C 0.7168(7) 0.9512(6) 0.4416(7)
H5_2 H 0.717598 0.918812 0.459582
C9_4 C 0.7173(10) 1.000000 0.4712(9)
C10_4 C 0.7143(10) 1.000000 0.3559(9)
H6_4 H 0.713401 1.000001 0.318809
O7_2 O 0.7255(10) 0.9625(9) 0.1933(10)
C25_4 C 0.7173(10) 1.000000 0.5288(9)
C26_4 C 0.7143(10) 1.000000 0.6441(9)
H12_4 H 0.713401 0.999999 0.681191
O16_2 O 0.7138(4) 0.9054(4) 0.6955(4)
O17_2 O 0.7130(4) 0.8568(4) 0.6198(4)
C27_2 C 0.7139(6) 0.8993(6) 0.6458(5)
C28_2 C 0.7150(7) 0.9517(6) 0.6149(6)
C29_2 C 0.7168(7) 0.9512(6) 0.5584(7)
H13_2 H 0.717598 0.918812 0.540418
Y19_2 Y 0.72963(4) 0.76838(4) 0.64502(4)
Y25_2 Y 0.73162(4) 0.85498(4) 0.77037(4)
O89_2 O 0.6853(3) 0.7971(3) 0.2821(3)
O101_2 O 0.8067(4) 0.9051(3) 0.2338(4)
C4_4 C 0.7496(10) 0.9700(8) 1.000000
C5_4 C 0.7534(8) 0.8583(8) 1.000000
H4_4 H 0.754980 0.821291 1.000001
O10_2 O 0.7393(4) 0.8802(4) 0.8583(3)
O11_2 O 0.7662(4) 0.8067(4) 0.9051(3)
C16_2 C 0.7511(6) 0.8553(5) 0.9002(6)
C17_2 C 0.7522(7) 0.8860(6) 0.9528(6)
C18_2 C 0.7491(7) 0.9419(5) 0.9530(5)
H9_2 H 0.746815 0.960231 0.920888
O65_2 O 0.7029(3) 0.7821(3) 0.8147(3)
H45_2 H 0.681894 0.796141 0.844529
O66_2 O 0.7255(10) 0.9625(9) 0.8067(10)
Y24_2 Y 0.64502(4) 0.72963(4) 0.76838(4)
O77_2 O 0.7985(3) 0.7985(3) 0.7985(3)
O81_2 O 0.6853(3) 0.7971(3) 0.7179(3)
O84_2 O 0.7821(3) 0.8147(3) 0.7029(3)
O104_2 O 0.8067(4) 0.9051(3) 0.7662(4)
O113_2 O 0.6432(4) 0.8802(4) 0.7870(4)
O69_2 O 0.5946(4) 0.1955(4) 0.7862(4)
C81_2 C 0.6007(6) 0.1458(5) 0.7861(6)
C82_2 C 0.5483(6) 0.1149(6) 0.7850(7)
C83_2 C 0.5488(6) 0.0584(7) 0.7832(7)
H47_2 H 0.581188 0.040418 0.782402
C84_2 C 0.500000 0.0288(9) 0.7827(10)
C85_2 C 0.500000 0.1441(9) 0.7857(10)
H48_2 H 0.500001 0.181191 0.786599
O75_2 O 0.4054(4) 0.1955(4) 0.7862(4)
C94_2 C 0.3993(6) 0.1458(5) 0.7861(6)
C95_2 C 0.4517(6) 0.1149(6) 0.7850(7)
C96_2 C 0.4512(6) 0.0584(7) 0.7832(7)
H52_2 H 0.418812 0.040418 0.782402
O71_2 O 0.4054(4) 0.8045(4) 0.7862(4)
C86_2 C 0.3993(6) 0.8542(5) 0.7861(6)
C87_2 C 0.4517(6) 0.8851(6) 0.7850(7)
C88_2 C 0.4512(6) 0.9416(7) 0.7832(7)
H49_2 H 0.418812 0.959582 0.782402
C89_2 C 0.500000 0.9712(9) 0.7827(10)
C90_2 C 0.500000 0.8559(9) 0.7857(10)
H50_2 H 0.499999 0.818809 0.786599
O73_2 O 0.5946(4) 0.8045(4) 0.7862(4)
C91_2 C 0.6007(6) 0.8542(5) 0.7861(6)
C92_2 C 0.5483(6) 0.8851(6) 0.7850(7)
C93_2 C 0.5488(6) 0.9416(7) 0.7832(7)
H51_2 H 0.581188 0.959582 0.782402
O6_3 O 0.3802(4) 0.2870(4) 0.1432(4)
C6_3 C 0.3542(5) 0.2861(6) 0.1007(6)
C7_3 C 0.3851(6) 0.2850(7) 0.0483(6)
C8_3 C 0.4416(7) 0.2832(7) 0.0488(6)
H5_3 H 0.459582 0.282402 0.081188
C9_5 C 0.4712(9) 0.2827(10) 0.000000
C10_5 C 0.3559(9) 0.2857(10) 0.000000
H6_5 H 0.318809 0.286599 -0.000001
C25_5 C 0.5288(9) 0.2827(10) 0.000000
C26_5 C 0.6441(9) 0.2857(10) 0.000000
H12_5 H 0.681191 0.286599 0.000001
O16_3 O 0.6955(4) 0.2862(4) 0.0946(4)
O17_3 O 0.6198(4) 0.2870(4) 0.1432(4)
C27_3 C 0.6458(5) 0.2861(6) 0.1007(6)
C28_3 C 0.6149(6) 0.2850(7) 0.0483(6)
C29_3 C 0.5584(7) 0.2832(7) 0.0488(6)
H13_3 H 0.540418 0.282402 0.081188
C49_2 C 0.1447(5) 0.0998(6) 0.2489(6)
C50_2 C 0.1140(6) 0.0472(6) 0.2478(7)
C51_2 C 0.0581(5) 0.0470(5) 0.2509(7)
H24_2 H 0.039769 0.079112 0.253185
C52_3 C 0.0300(8) -0.000000 0.2504(10)
C53_3 C 0.1417(8) 0.000000 0.2466(8)
H25_3 H 0.178709 0.000001 0.245020
O69_3 O 0.2138(4) 0.4054(4) 0.1955(4)
C81_3 C 0.2139(6) 0.3993(6) 0.1458(5)
C82_3 C 0.2150(7) 0.4517(6) 0.1149(6)
C83_3 C 0.2168(7) 0.4512(6) 0.0584(7)
H47_3 H 0.217598 0.418812 0.040418
C84_3 C 0.2173(10) 0.500000 0.0288(9)
C85_3 C 0.2143(10) 0.500000 0.1441(9)
H48_3 H 0.213401 0.499999 0.181191
O75_3 O 0.2138(4) 0.5946(4) 0.1955(4)
O76_2 O 0.2130(4) 0.6432(4) 0.1198(4)
C94_3 C 0.2139(6) 0.6007(6) 0.1458(5)
C95_3 C 0.2150(7) 0.5483(6) 0.1149(6)
C96_3 C 0.2168(7) 0.5488(6) 0.0584(7)
H52_3 H 0.217598 0.581188 0.040418
Y23_2 Y 0.23162(4) 0.64502(4) 0.27037(4)
C9_6 C 0.4712(9) 0.2827(10) 1.000000
C10_6 C 0.3559(9) 0.2857(10) 1.000000
H6_6 H 0.318809 0.286599 0.999999
O15_3 O 0.6198(4) 0.2870(4) 0.8568(4)
C22_3 C 0.6458(5) 0.2861(6) 0.8993(6)
C23_3 C 0.6149(6) 0.2850(7) 0.9517(6)
C24_3 C 0.5584(7) 0.2832(7) 0.9512(6)
H11_3 H 0.540418 0.282402 0.918812
C25_6 C 0.5288(9) 0.2827(10) 1.000000
C26_6 C 0.6441(9) 0.2857(10) 1.000000
H12_6 H 0.681191 0.286599 1.000001
O18_3 O 0.3045(4) 0.2862(4) 0.9054(4)
O19_3 O 0.3802(4) 0.2870(4) 0.8568(4)
C30_3 C 0.3542(5) 0.2861(6) 0.8993(6)
C31_3 C 0.3851(6) 0.2850(7) 0.9517(6)
C32_3 C 0.4416(7) 0.2832(7) 0.9512(6)
H14_3 H 0.459582 0.282402 0.918812
C73_3 C 0.0300(8) 0.000000 0.7496(10)
C74_3 C 0.1417(8) 0.000000 0.7534(8)
H34_3 H 0.178709 -0.000001 0.754980
O49_2 O 0.1198(4) 0.1417(3) 0.7393(4)
C78_2 C 0.1447(5) 0.0998(6) 0.7511(6)
C79_2 C 0.1140(6) 0.0472(6) 0.7522(7)
C80_2 C 0.0581(5) 0.0470(5) 0.7491(7)
H36_2 H 0.039769 0.079112 0.746815
O67_3 O 0.1853(3) 0.2971(3) 0.7821(3)
H46_3 H 0.155471 0.318106 0.796141
O68_3 O 0.1933(10) 0.2745(10) 0.9625(9)
O71_3 O 0.2138(4) 0.5946(4) 0.8045(4)
C86_3 C 0.2139(6) 0.6007(6) 0.8542(5)
C87_3 C 0.2150(7) 0.5483(6) 0.8851(6)
C88_3 C 0.2168(7) 0.5488(6) 0.9416(7)
H49_3 H 0.217598 0.581188 0.959582
C89_3 C 0.2173(10) 0.500000 0.9712(9)
C90_3 C 0.2143(10) 0.500000 0.8559(9)
H50_3 H 0.213401 0.500001 0.818809
O73_3 O 0.2138(4) 0.4054(4) 0.8045(4)
O74_2 O 0.2130(4) 0.3568(4) 0.8802(4)
C91_3 C 0.2139(6) 0.3993(6) 0.8542(5)
C92_3 C 0.2150(7) 0.4517(6) 0.8851(6)
C93_3 C 0.2168(7) 0.4512(6) 0.9416(7)
H51_3 H 0.217598 0.418812 0.959582
Y22_2 Y 0.23162(4) 0.35498(4) 0.72963(4)
O82_3 O 0.2821(3) 0.3147(3) 0.7971(3)
C52_4 C 0.0300(8) 1.000000 0.2504(10)
C53_4 C 0.1417(8) 1.000000 0.2466(8)
H25_4 H 0.178709 1.000001 0.245020
O37_2 O 0.1198(4) 0.8583(3) 0.2607(4)
C59_2 C 0.1447(5) 0.9002(6) 0.2489(6)
C60_2 C 0.1140(6) 0.9528(6) 0.2478(7)
C61_2 C 0.0581(5) 0.9530(5) 0.2509(7)
H28_2 H 0.039769 0.920888 0.253185
C70_2 C 0.1447(5) 0.9002(6) 0.7511(6)
C71_2 C 0.1140(6) 0.9528(6) 0.7522(7)
C72_2 C 0.0581(5) 0.9530(5) 0.7491(7)
H33_2 H 0.039769 0.920888 0.746815
C73_4 C 0.0300(8) 1.000000 0.7496(10)
C74_4 C 0.1417(8) 1.000000 0.7534(8)
H34_4 H 0.178709 0.999999 0.754980
C57_3 C 0.9700(8) -0.000000 0.2504(10)
C58_3 C 0.8583(8) 0.000000 0.2466(8)
H27_3 H 0.821291 -0.000001 0.245020
O39_2 O 0.8802(4) 0.1417(3) 0.2607(4)
C62_2 C 0.8553(5) 0.0998(6) 0.2489(6)
C63_2 C 0.8860(6) 0.0472(6) 0.2478(7)
C64_2 C 0.9419(5) 0.0470(5) 0.2509(7)
H29_2 H 0.960231 0.079112 0.253185
O65_3 O 0.8147(3) 0.2971(3) 0.2179(3)
H45_3 H 0.844529 0.318106 0.203859
O66_3 O 0.8067(10) 0.2745(10) 0.0375(9)
Y24_3 Y 0.76838(4) 0.35498(4) 0.27037(4)
O81_3 O 0.7179(3) 0.3147(3) 0.2029(3)
O113_3 O 0.7870(4) 0.3568(4) 0.1198(4)
C65_2 C 0.8553(5) 0.0998(6) 0.7511(6)
C66_2 C 0.8860(6) 0.0472(6) 0.7522(7)
C67_2 C 0.9419(5) 0.0470(5) 0.7491(7)
H31_2 H 0.960231 0.079112 0.746815
C68_3 C 0.9700(8) 0.000000 0.7496(10)
C69_3 C 0.8583(8) 0.000000 0.7534(8)
H32_3 H 0.821291 0.000001 0.754980
C54_2 C 0.8553(5) 0.9002(6) 0.2489(6)
C55_2 C 0.8860(6) 0.9528(6) 0.2478(7)
C56_2 C 0.9419(5) 0.9530(5) 0.2509(7)
H26_2 H 0.960231 0.920888 0.253185
C57_4 C 0.9700(8) 1.000000 0.2504(10)
C58_4 C 0.8583(8) 1.000000 0.2466(8)
H27_4 H 0.821291 0.999999 0.245020
C68_4 C 0.9700(8) 1.000000 0.7496(10)
C69_4 C 0.8583(8) 1.000000 0.7534(8)
H32_4 H 0.821291 1.000001 0.754980
O47_2 O 0.8802(4) 0.8583(3) 0.7393(4)
C75_2 C 0.8553(5) 0.9002(6) 0.7511(6)
C76_2 C 0.8860(6) 0.9528(6) 0.7522(7)
C77_2 C 0.9419(5) 0.9530(5) 0.7491(7)
H35_2 H 0.960231 0.920888 0.746815
C9_7 C 0.4712(9) 0.7173(10) 0.000000
C10_7 C 0.3559(9) 0.7143(10) 0.000000
H6_7 H 0.318809 0.713401 0.000001
O15_4 O 0.6198(4) 0.7130(4) 0.1432(4)
C22_4 C 0.6458(5) 0.7139(6) 0.1007(6)
C23_4 C 0.6149(6) 0.7150(7) 0.0483(6)
C24_4 C 0.5584(7) 0.7168(7) 0.0488(6)
H11_4 H 0.540418 0.717598 0.081188
C25_7 C 0.5288(9) 0.7173(10) -0.000000
C26_7 C 0.6441(9) 0.7143(10) -0.000000
H12_7 H 0.681191 0.713401 -0.000001
O18_4 O 0.3045(4) 0.7138(4) 0.0946(4)
O19_4 O 0.3802(4) 0.7130(4) 0.1432(4)
C30_4 C 0.3542(5) 0.7139(6) 0.1007(6)
C31_4 C 0.3851(6) 0.7150(7) 0.0483(6)
C32_4 C 0.4416(7) 0.7168(7) 0.0488(6)
H14_4 H 0.459582 0.717598 0.081188
O67_4 O 0.1853(3) 0.7029(3) 0.2179(3)
H46_4 H 0.155471 0.681894 0.203859
O68_4 O 0.1933(10) 0.7255(10) 0.0375(9)
O82_4 O 0.2821(3) 0.6853(3) 0.2029(3)
O6_4 O 0.3802(4) 0.7130(4) 0.8568(4)
C6_4 C 0.3542(5) 0.7139(6) 0.8993(6)
C7_4 C 0.3851(6) 0.7150(7) 0.9517(6)
C8_4 C 0.4416(7) 0.7168(7) 0.9512(6)
H5_4 H 0.459582 0.717598 0.918812
C9_8 C 0.4712(9) 0.7173(10) 1.000000
C10_8 C 0.3559(9) 0.7143(10) 1.000000
H6_8 H 0.318809 0.713401 1.000001
C25_8 C 0.5288(9) 0.7173(10) 1.000000
C26_8 C 0.6441(9) 0.7143(10) 1.000000
H12_8 H 0.681191 0.713401 0.999999
O16_4 O 0.6955(4) 0.7138(4) 0.9054(4)
O17_4 O 0.6198(4) 0.7130(4) 0.8568(4)
C27_4 C 0.6458(5) 0.7139(6) 0.8993(6)
C28_4 C 0.6149(6) 0.7150(7) 0.9517(6)
C29_4 C 0.5584(7) 0.7168(7) 0.9512(6)
H13_4 H 0.540418 0.717598 0.918812
O65_4 O 0.8147(3) 0.7029(3) 0.7821(3)
H45_4 H 0.844529 0.681894 0.796141
O66_4 O 0.8067(10) 0.7255(10) 0.9625(9)
Y24_4 Y 0.76838(4) 0.64502(4) 0.72963(4)
O81_4 O 0.7179(3) 0.6853(3) 0.7971(3)
O113_4 O 0.7870(4) 0.6432(4) 0.8802(4)
O69_4 O 0.7862(4) 0.5946(4) 0.1955(4)
C81_4 C 0.7861(6) 0.6007(6) 0.1458(5)
C82_4 C 0.7850(7) 0.5483(6) 0.1149(6)
C83_4 C 0.7832(7) 0.5488(6) 0.0584(7)
H47_4 H 0.782402 0.581188 0.040418
C84_4 C 0.7827(10) 0.500000 0.0288(9)
C85_4 C 0.7857(10) 0.500000 0.1441(9)
H48_4 H 0.786599 0.500001 0.181191
O75_4 O 0.7862(4) 0.4054(4) 0.1955(4)
C94_4 C 0.7861(6) 0.3993(6) 0.1458(5)
C95_4 C 0.7850(7) 0.4517(6) 0.1149(6)
C96_4 C 0.7832(7) 0.4512(6) 0.0584(7)
H52_4 H 0.782402 0.418812 0.040418
O71_4 O 0.7862(4) 0.4054(4) 0.8045(4)
C86_4 C 0.7861(6) 0.3993(6) 0.8542(5)
C87_4 C 0.7850(7) 0.4517(6) 0.8851(6)
C88_4 C 0.7832(7) 0.4512(6) 0.9416(7)
H49_4 H 0.782402 0.418812 0.959582
C89_4 C 0.7827(10) 0.500000 0.9712(9)
C90_4 C 0.7857(10) 0.500000 0.8559(9)
H50_4 H 0.786599 0.499999 0.818809
O73_4 O 0.7862(4) 0.5946(4) 0.8045(4)
C91_4 C 0.7861(6) 0.6007(6) 0.8542(5)
C92_4 C 0.7850(7) 0.5483(6) 0.8851(6)
C93_4 C 0.7832(7) 0.5488(6) 0.9416(7)
H51_4 H 0.782402 0.581188 0.959582
O6_5 O 0.1432(4) 0.3802(4) 0.2870(4)
C6_5 C 0.1007(6) 0.3542(5) 0.2861(6)
C7_5 C 0.0483(6) 0.3851(6) 0.2850(7)
C8_5 C 0.0488(6) 0.4416(7) 0.2832(7)
H5_5 H 0.081188 0.459582 0.282402
C9_9 C 0.000000 0.4712(9) 0.2827(10)
C10_9 C 0.000000 0.3559(9) 0.2857(10)
H6_9 H -0.000001 0.318809 0.286599
C25_9 C 0.000000 0.5288(9) 0.2827(10)
C26_9 C 0.000000 0.6441(9) 0.2857(10)
H12_9 H 0.000001 0.681191 0.286599
O16_5 O 0.0946(4) 0.6955(4) 0.2862(4)
O17_5 O 0.1432(4) 0.6198(4) 0.2870(4)
C27_5 C 0.1007(6) 0.6458(5) 0.2861(6)
C28_5 C 0.0483(6) 0.6149(6) 0.2850(7)
C29_5 C 0.0488(6) 0.5584(7) 0.2832(7)
H13_5 H 0.081188 0.540418 0.282402
O69_5 O 0.1955(4) 0.2138(4) 0.4054(4)
C81_5 C 0.1458(5) 0.2139(6) 0.3993(6)
C82_5 C 0.1149(6) 0.2150(7) 0.4517(6)
C83_5 C 0.0584(7) 0.2168(7) 0.4512(6)
H47_5 H 0.040418 0.217598 0.418812
C84_5 C 0.0288(9) 0.2173(10) 0.500000
C85_5 C 0.1441(9) 0.2143(10) 0.500000
H48_5 H 0.181191 0.213401 0.499999
O75_5 O 0.1955(4) 0.2138(4) 0.5946(4)
O76_3 O 0.1198(4) 0.2130(4) 0.6432(4)
C94_5 C 0.1458(5) 0.2139(6) 0.6007(6)
C95_5 C 0.1149(6) 0.2150(7) 0.5483(6)
C96_5 C 0.0584(7) 0.2168(7) 0.5488(6)
H52_5 H 0.040418 0.217598 0.581188
H45_5 H 0.203859 0.844529 0.318106
O66_5 O 0.0375(9) 0.8067(10) 0.2745(10)
O81_5 O 0.2029(3) 0.7179(3) 0.3147(3)
O113_5 O 0.1198(4) 0.7870(4) 0.3568(4)
C9_10 C 1.000000 0.4712(9) 0.2827(10)
C10_10 C 1.000000 0.3559(9) 0.2857(10)
H6_10 H 0.999999 0.318809 0.286599
O15_5 O 0.8568(4) 0.6198(4) 0.2870(4)
C22_5 C 0.8993(6) 0.6458(5) 0.2861(6)
C23_5 C 0.9517(6) 0.6149(6) 0.2850(7)
C24_5 C 0.9512(6) 0.5584(7) 0.2832(7)
H11_5 H 0.918812 0.540418 0.282402
C25_10 C 1.000000 0.5288(9) 0.2827(10)
C26_10 C 1.000000 0.6441(9) 0.2857(10)
H12_10 H 1.000001 0.681191 0.286599
O18_5 O 0.9054(4) 0.3045(4) 0.2862(4)
O19_5 O 0.8568(4) 0.3802(4) 0.2870(4)
C30_5 C 0.8993(6) 0.3542(5) 0.2861(6)
C31_5 C 0.9517(6) 0.3851(6) 0.2850(7)
C32_5 C 0.9512(6) 0.4416(7) 0.2832(7)
H14_5 H 0.918812 0.459582 0.282402
H46_5 H 0.796141 0.155471 0.318106
O68_5 O 0.9625(9) 0.1933(10) 0.2745(10)
O71_5 O 0.8045(4) 0.2138(4) 0.5946(4)
C86_5 C 0.8542(5) 0.2139(6) 0.6007(6)
C87_5 C 0.8851(6) 0.2150(7) 0.5483(6)
C88_5 C 0.9416(7) 0.2168(7) 0.5488(6)
H49_5 H 0.959582 0.217598 0.581188
C89_5 C 0.9712(9) 0.2173(10) 0.500000
C90_5 C 0.8559(9) 0.2143(10) 0.500000
H50_5 H 0.818809 0.213401 0.500001
O73_5 O 0.8045(4) 0.2138(4) 0.4054(4)
O74_3 O 0.8802(4) 0.2130(4) 0.3568(4)
C91_5 C 0.8542(5) 0.2139(6) 0.3993(6)
C92_5 C 0.8851(6) 0.2150(7) 0.4517(6)
C93_5 C 0.9416(7) 0.2168(7) 0.4512(6)
H51_5 H 0.959582 0.217598 0.418812
O82_5 O 0.7971(3) 0.2821(3) 0.3147(3)
C9_11 C -0.000000 0.4712(9) 0.7173(10)
C10_11 C -0.000000 0.3559(9) 0.7143(10)
H6_11 H 0.000001 0.318809 0.713401
O15_6 O 0.1432(4) 0.6198(4) 0.7130(4)
C22_6 C 0.1007(6) 0.6458(5) 0.7139(6)
C23_6 C 0.0483(6) 0.6149(6) 0.7150(7)
C24_6 C 0.0488(6) 0.5584(7) 0.7168(7)
H11_6 H 0.081188 0.540418 0.717598
C25_11 C -0.000000 0.5288(9) 0.7173(10)
C26_11 C -0.000000 0.6441(9) 0.7143(10)
H12_11 H -0.000001 0.681191 0.713401
O18_6 O 0.0946(4) 0.3045(4) 0.7138(4)
O19_6 O 0.1432(4) 0.3802(4) 0.7130(4)
C30_6 C 0.1007(6) 0.3542(5) 0.7139(6)
C31_6 C 0.0483(6) 0.3851(6) 0.7150(7)
C32_6 C 0.0488(6) 0.4416(7) 0.7168(7)
H14_6 H 0.081188 0.459582 0.717598
H46_6 H 0.203859 0.155471 0.681894
O68_6 O 0.0375(9) 0.1933(10) 0.7255(10)
O82_6 O 0.2029(3) 0.2821(3) 0.6853(3)
O6_6 O 0.8568(4) 0.3802(4) 0.7130(4)
C6_6 C 0.8993(6) 0.3542(5) 0.7139(6)
C7_6 C 0.9517(6) 0.3851(6) 0.7150(7)
C8_6 C 0.9512(6) 0.4416(7) 0.7168(7)
H5_6 H 0.918812 0.459582 0.717598
C9_12 C 1.000000 0.4712(9) 0.7173(10)
C10_12 C 1.000000 0.3559(9) 0.7143(10)
H6_12 H 1.000001 0.318809 0.713401
C25_12 C 1.000000 0.5288(9) 0.7173(10)
C26_12 C 1.000000 0.6441(9) 0.7143(10)
H12_12 H 0.999999 0.681191 0.713401
O16_6 O 0.9054(4) 0.6955(4) 0.7138(4)
O17_6 O 0.8568(4) 0.6198(4) 0.7130(4)
C27_6 C 0.8993(6) 0.6458(5) 0.7139(6)
C28_6 C 0.9517(6) 0.6149(6) 0.7150(7)
C29_6 C 0.9512(6) 0.5584(7) 0.7168(7)
H13_6 H 0.918812 0.540418 0.717598
H45_6 H 0.796141 0.844529 0.681894
O66_6 O 0.9625(9) 0.8067(10) 0.7255(10)
O81_6 O 0.7971(3) 0.7179(3) 0.6853(3)
O113_6 O 0.8802(4) 0.7870(4) 0.6432(4)
O69_6 O 0.1955(4) 0.7862(4) 0.5946(4)
C81_6 C 0.1458(5) 0.7861(6) 0.6007(6)
C82_6 C 0.1149(6) 0.7850(7) 0.5483(6)
C83_6 C 0.0584(7) 0.7832(7) 0.5488(6)
H47_6 H 0.040418 0.782402 0.581188
C84_6 C 0.0288(9) 0.7827(10) 0.500000
C85_6 C 0.1441(9) 0.7857(10) 0.500000
H48_6 H 0.181191 0.786599 0.500001
O75_6 O 0.1955(4) 0.7862(4) 0.4054(4)
C94_6 C 0.1458(5) 0.7861(6) 0.3993(6)
C95_6 C 0.1149(6) 0.7850(7) 0.4517(6)
C96_6 C 0.0584(7) 0.7832(7) 0.4512(6)
H52_6 H 0.040418 0.782402 0.418812
O71_6 O 0.8045(4) 0.7862(4) 0.4054(4)
C86_6 C 0.8542(5) 0.7861(6) 0.3993(6)
C87_6 C 0.8851(6) 0.7850(7) 0.4517(6)
C88_6 C 0.9416(7) 0.7832(7) 0.4512(6)
H49_6 H 0.959582 0.782402 0.418812
C89_6 C 0.9712(9) 0.7827(10) 0.500000
C90_6 C 0.8559(9) 0.7857(10) 0.500000
H50_6 H 0.818809 0.786599 0.499999
O73_6 O 0.8045(4) 0.7862(4) 0.5946(4)
C91_6 C 0.8542(5) 0.7861(6) 0.6007(6)
C92_6 C 0.8851(6) 0.7850(7) 0.5483(6)
C93_6 C 0.9416(7) 0.7832(7) 0.5488(6)
H51_6 H 0.959582 0.782402 0.581188
O1_2 O 0.7015(3) 0.7015(3) 0.7015(3)
H1_2 H 0.678960 0.678936 0.678936
H2_3 H 0.818106 0.703859 0.655471
O3_3 O 0.7607(4) 0.6198(4) 0.6417(3)
O4_2 O 0.7338(4) 0.6933(4) 0.5949(3)
C1_3 C 0.7489(6) 0.6447(5) 0.5998(6)
C2_3 C 0.7478(7) 0.6140(6) 0.5472(6)
C3_3 C 0.7509(7) 0.5581(5) 0.5470(5)
H3_3 H 0.753185 0.539769 0.579112
C4_5 C 0.7504(10) 0.5300(8) 0.500000
C5_5 C 0.7466(8) 0.6417(8) 0.500000
H4_5 H 0.745020 0.678709 0.500001
O7_3 O 0.7745(10) 0.5375(9) 0.6933(10)
O8_3 O 0.7607(4) 0.3802(4) 0.3583(3)
O9_2 O 0.7338(4) 0.3067(4) 0.4051(3)
C11_3 C 0.7489(6) 0.3553(5) 0.4002(6)
C12_3 C 0.7478(7) 0.3860(6) 0.4528(6)
C13_3 C 0.7509(7) 0.4419(5) 0.4530(5)
H7_3 H 0.753185 0.460231 0.420888
C14_5 C 0.7504(10) 0.4700(8) 0.500000
C15_5 C 0.7466(8) 0.3583(8) 0.500000
H8_5 H 0.745020 0.321291 0.499999
O10_3 O 0.7607(4) 0.6198(4) 0.3583(3)
O11_3 O 0.7338(4) 0.6933(4) 0.4051(3)
C16_3 C 0.7489(6) 0.6447(5) 0.4002(6)
C17_3 C 0.7478(7) 0.6140(6) 0.4528(6)
C18_3 C 0.7509(7) 0.5581(5) 0.4530(5)
H9_3 H 0.753185 0.539769 0.420888
O12_3 O 0.7607(4) 0.3802(4) 0.6417(3)
O13_3 O 0.7338(4) 0.3067(4) 0.5949(3)
C19_3 C 0.7489(6) 0.3553(5) 0.5998(6)
C20_3 C 0.7478(7) 0.3860(6) 0.5472(6)
C21_3 C 0.7509(7) 0.4419(5) 0.5470(5)
H10_3 H 0.753185 0.460231 0.579112
O20_2 O 0.7015(3) 0.2985(3) 0.2985(3)
H15_2 H 0.678960 0.321064 0.321064
H16_3 H 0.818106 0.296141 0.344529
O24_3 O 0.7745(10) 0.4625(9) 0.3067(10)
H23_2 H 0.655471 0.818106 0.703859
O32_2 O 0.6417(3) 0.7607(4) 0.6198(4)
O33_2 O 0.5949(3) 0.7338(4) 0.6933(4)
C49_3 C 0.5998(6) 0.7489(6) 0.6447(5)
C50_3 C 0.5472(6) 0.7478(7) 0.6140(6)
C51_3 C 0.5470(5) 0.7509(7) 0.5581(5)
H24_3 H 0.579112 0.753185 0.539769
C52_5 C 0.500000 0.7504(10) 0.5300(8)
C53_5 C 0.500000 0.7466(8) 0.6417(8)
H25_5 H 0.500001 0.745020 0.678709
O34_2 O 0.6933(10) 0.7745(10) 0.5375(9)
O35_2 O 0.3583(3) 0.7607(4) 0.3802(4)
O36_2 O 0.4051(3) 0.7338(4) 0.3067(4)
C54_3 C 0.4002(6) 0.7489(6) 0.3553(5)
C55_3 C 0.4528(6) 0.7478(7) 0.3860(6)
C56_3 C 0.4530(5) 0.7509(7) 0.4419(5)
H26_3 H 0.420888 0.753185 0.460231
C57_5 C 0.500000 0.7504(10) 0.4700(8)
C58_5 C 0.500000 0.7466(8) 0.3583(8)
H27_5 H 0.499999 0.745020 0.321291
O37_3 O 0.3583(3) 0.7607(4) 0.6198(4)
O38_2 O 0.4051(3) 0.7338(4) 0.6933(4)
C59_3 C 0.4002(6) 0.7489(6) 0.6447(5)
C60_3 C 0.4528(6) 0.7478(7) 0.6140(6)
C61_3 C 0.4530(5) 0.7509(7) 0.5581(5)
H28_3 H 0.420888 0.753185 0.539769
O39_3 O 0.6417(3) 0.7607(4) 0.3802(4)
O40_2 O 0.5949(3) 0.7338(4) 0.3067(4)
C62_3 C 0.5998(6) 0.7489(6) 0.3553(5)
C63_3 C 0.5472(6) 0.7478(7) 0.3860(6)
C64_3 C 0.5470(5) 0.7509(7) 0.4419(5)
H29_3 H 0.579112 0.753185 0.460231
H30_2 H 0.655471 0.181894 0.296141
O42_2 O 0.6417(3) 0.2393(4) 0.3802(4)
O43_2 O 0.5949(3) 0.2662(4) 0.3067(4)
C65_3 C 0.5998(6) 0.2511(6) 0.3553(5)
C66_3 C 0.5472(6) 0.2522(7) 0.3860(6)
C67_3 C 0.5470(5) 0.2491(7) 0.4419(5)
H31_3 H 0.579112 0.246815 0.460231
C68_5 C 0.500000 0.2496(10) 0.4700(8)
C69_5 C 0.500000 0.2534(8) 0.3583(8)
H32_5 H 0.500001 0.254980 0.321291
O44_2 O 0.6933(10) 0.2255(10) 0.4625(9)
O45_2 O 0.3583(3) 0.2393(4) 0.6198(4)
O46_2 O 0.4051(3) 0.2662(4) 0.6933(4)
C70_3 C 0.4002(6) 0.2511(6) 0.6447(5)
C71_3 C 0.4528(6) 0.2522(7) 0.6140(6)
C72_3 C 0.4530(5) 0.2491(7) 0.5581(5)
H33_3 H 0.420888 0.246815 0.539769
C73_5 C 0.500000 0.2496(10) 0.5300(8)
C74_5 C 0.500000 0.2534(8) 0.6417(8)
H34_5 H 0.499999 0.254980 0.678709
O47_3 O 0.3583(3) 0.2393(4) 0.3802(4)
O48_2 O 0.4051(3) 0.2662(4) 0.3067(4)
C75_3 C 0.4002(6) 0.2511(6) 0.3553(5)
C76_3 C 0.4528(6) 0.2522(7) 0.3860(6)
C77_3 C 0.4530(5) 0.2491(7) 0.4419(5)
H35_3 H 0.420888 0.246815 0.460231
O49_3 O 0.6417(3) 0.2393(4) 0.6198(4)
O50_2 O 0.5949(3) 0.2662(4) 0.6933(4)
C78_3 C 0.5998(6) 0.2511(6) 0.6447(5)
C79_3 C 0.5472(6) 0.2522(7) 0.6140(6)
C80_3 C 0.5470(5) 0.2491(7) 0.5581(5)
H36_3 H 0.579112 0.246815 0.539769
O51_2 O 0.2985(3) 0.2985(3) 0.7015(3)
H37_2 H 0.321040 0.321064 0.678936
H38_2 H 0.344529 0.181894 0.703859
O53_2 O 0.3067(10) 0.2255(10) 0.5375(9)
O54_2 O 0.2985(3) 0.7015(3) 0.2985(3)
H39_2 H 0.321040 0.678936 0.321064
H40_2 H 0.344529 0.818106 0.296141
O56_2 O 0.3067(10) 0.7745(10) 0.4625(9)
H41_2 H 0.703859 0.655471 0.818106
O58_2 O 0.5375(9) 0.6933(10) 0.7745(10)
H42_2 H 0.296141 0.655471 0.181894
O60_2 O 0.4625(9) 0.6933(10) 0.2255(10)
H43_2 H 0.703859 0.344529 0.181894
O62_2 O 0.5375(9) 0.3067(10) 0.2255(10)
H44_2 H 0.296141 0.344529 0.818106
O64_2 O 0.4625(9) 0.3067(10) 0.7745(10)
H45_7 H 0.818106 0.703859 0.344529
O66_7 O 0.7745(10) 0.5375(9) 0.3067(10)
H46_7 H 0.818106 0.296141 0.655471
O68_7 O 0.7745(10) 0.4625(9) 0.6933(10)
O77_3 O 0.7015(3) 0.7015(3) 0.2985(3)
O78_3 O 0.7015(3) 0.2985(3) 0.7015(3)
O95_2 O 0.6198(4) 0.6417(3) 0.7607(4)
O96_2 O 0.3802(4) 0.6417(3) 0.2393(4)
O97_2 O 0.6198(4) 0.3583(3) 0.2393(4)
O98_2 O 0.3802(4) 0.3583(3) 0.7607(4)
O99_2 O 0.2662(4) 0.3067(4) 0.5949(3)
O100_2 O 0.2662(4) 0.6933(4) 0.4051(3)
O101_3 O 0.6933(4) 0.5949(3) 0.7338(4)
O102_3 O 0.6933(4) 0.4051(3) 0.2662(4)
O103_3 O 0.6933(4) 0.4051(3) 0.7338(4)
O104_3 O 0.6933(4) 0.5949(3) 0.2662(4)
H2_4 H 0.181894 0.296141 0.655471
O3_4 O 0.2393(4) 0.3802(4) 0.6417(3)
C1_4 C 0.2511(6) 0.3553(5) 0.5998(6)
C2_4 C 0.2522(7) 0.3860(6) 0.5472(6)
C3_4 C 0.2491(7) 0.4419(5) 0.5470(5)
H3_4 H 0.246815 0.460231 0.579112
C4_6 C 0.2496(10) 0.4700(8) 0.500000
C5_6 C 0.2534(8) 0.3583(8) 0.500000
H4_6 H 0.254980 0.321291 0.500001
O7_4 O 0.2255(10) 0.4625(9) 0.6933(10)
O8_4 O 0.2393(4) 0.6198(4) 0.3583(3)
C11_4 C 0.2511(6) 0.6447(5) 0.4002(6)
C12_4 C 0.2522(7) 0.6140(6) 0.4528(6)
C13_4 C 0.2491(7) 0.5581(5) 0.4530(5)
H7_4 H 0.246815 0.539769 0.420888
C14_6 C 0.2496(10) 0.5300(8) 0.500000
C15_6 C 0.2534(8) 0.6417(8) 0.500000
H8_6 H 0.254980 0.678709 0.499999
O10_4 O 0.2393(4) 0.3802(4) 0.3583(3)
O11_4 O 0.2662(4) 0.3067(4) 0.4051(3)
C16_4 C 0.2511(6) 0.3553(5) 0.4002(6)
C17_4 C 0.2522(7) 0.3860(6) 0.4528(6)
C18_4 C 0.2491(7) 0.4419(5) 0.4530(5)
H9_4 H 0.246815 0.460231 0.420888
O12_4 O 0.2393(4) 0.6198(4) 0.6417(3)
O13_4 O 0.2662(4) 0.6933(4) 0.5949(3)
C19_4 C 0.2511(6) 0.6447(5) 0.5998(6)
C20_4 C 0.2522(7) 0.6140(6) 0.5472(6)
C21_4 C 0.2491(7) 0.5581(5) 0.5470(5)
H10_4 H 0.246815 0.539769 0.579112
H16_4 H 0.181894 0.703859 0.344529
O24_4 O 0.2255(10) 0.5375(9) 0.3067(10)
H45_8 H 0.181894 0.296141 0.344529
O66_8 O 0.2255(10) 0.4625(9) 0.3067(10)
H46_8 H 0.181894 0.703859 0.655471
O68_8 O 0.2255(10) 0.5375(9) 0.6933(10)
O77_4 O 0.2985(3) 0.2985(3) 0.2985(3)
O78_4 O 0.2985(3) 0.7015(3) 0.7015(3)
O101_4 O 0.3067(4) 0.4051(3) 0.7338(4)
O102_4 O 0.3067(4) 0.5949(3) 0.2662(4)
O103_4 O 0.3067(4) 0.5949(3) 0.7338(4)
O104_4 O 0.3067(4) 0.4051(3) 0.2662(4)
C49_4 C 0.6447(5) 0.5998(6) 0.7489(6)
C50_4 C 0.6140(6) 0.5472(6) 0.7478(7)
C51_4 C 0.5581(5) 0.5470(5) 0.7509(7)
H24_4 H 0.539769 0.579112 0.753185
C52_6 C 0.5300(8) 0.500000 0.7504(10)
C53_6 C 0.6417(8) 0.500000 0.7466(8)
H25_6 H 0.678709 0.500001 0.745020
C54_4 C 0.3553(5) 0.4002(6) 0.7489(6)
C55_4 C 0.3860(6) 0.4528(6) 0.7478(7)
C56_4 C 0.4419(5) 0.4530(5) 0.7509(7)
H26_4 H 0.460231 0.420888 0.753185
C57_6 C 0.4700(8) 0.500000 0.7504(10)
C58_6 C 0.3583(8) 0.500000 0.7466(8)
H27_6 H 0.321291 0.499999 0.745020
O37_4 O 0.6198(4) 0.3583(3) 0.7607(4)
C59_4 C 0.6447(5) 0.4002(6) 0.7489(6)
C60_4 C 0.6140(6) 0.4528(6) 0.7478(7)
C61_4 C 0.5581(5) 0.4530(5) 0.7509(7)
H28_4 H 0.539769 0.420888 0.753185
O39_4 O 0.3802(4) 0.6417(3) 0.7607(4)
C62_4 C 0.3553(5) 0.5998(6) 0.7489(6)
C63_4 C 0.3860(6) 0.5472(6) 0.7478(7)
C64_4 C 0.4419(5) 0.5470(5) 0.7509(7)
H29_4 H 0.460231 0.579112 0.753185
C65_4 C 0.3553(5) 0.5998(6) 0.2511(6)
C66_4 C 0.3860(6) 0.5472(6) 0.2522(7)
C67_4 C 0.4419(5) 0.5470(5) 0.2491(7)
H31_4 H 0.460231 0.579112 0.246815
C68_6 C 0.4700(8) 0.500000 0.2496(10)
C69_6 C 0.3583(8) 0.500000 0.2534(8)
H32_6 H 0.321291 0.500001 0.254980
C70_4 C 0.6447(5) 0.4002(6) 0.2511(6)
C71_4 C 0.6140(6) 0.4528(6) 0.2522(7)
C72_4 C 0.5581(5) 0.4530(5) 0.2491(7)
H33_4 H 0.539769 0.420888 0.246815
C73_6 C 0.5300(8) 0.500000 0.2496(10)
C74_6 C 0.6417(8) 0.500000 0.2534(8)
H34_6 H 0.678709 0.499999 0.254980
O47_4 O 0.3802(4) 0.3583(3) 0.2393(4)
C75_4 C 0.3553(5) 0.4002(6) 0.2511(6)
C76_4 C 0.3860(6) 0.4528(6) 0.2522(7)
C77_4 C 0.4419(5) 0.4530(5) 0.2491(7)
H35_4 H 0.460231 0.420888 0.246815
O49_4 O 0.6198(4) 0.6417(3) 0.2393(4)
C78_4 C 0.6447(5) 0.5998(6) 0.2511(6)
C79_4 C 0.6140(6) 0.5472(6) 0.2522(7)
C80_4 C 0.5581(5) 0.5470(5) 0.2491(7)
H36_4 H 0.539769 0.579112 0.246815
H45_9 H 0.344529 0.818106 0.703859
O66_9 O 0.3067(10) 0.7745(10) 0.5375(9)
H46_9 H 0.655471 0.818106 0.296141
O68_9 O 0.6933(10) 0.7745(10) 0.4625(9)
H45_10 H 0.344529 0.181894 0.296141
O66_10 O 0.3067(10) 0.2255(10) 0.4625(9)
H46_10 H 0.655471 0.181894 0.703859
O68_10 O 0.6933(10) 0.2255(10) 0.5375(9)
H45_11 H 0.703859 0.344529 0.818106
O66_11 O 0.5375(9) 0.3067(10) 0.7745(10)
H46_11 H 0.296141 0.655471 0.818106
O68_11 O 0.4625(9) 0.6933(10) 0.7745(10)
H45_12 H 0.296141 0.344529 0.181894
O66_12 O 0.4625(9) 0.3067(10) 0.2255(10)
H46_12 H 0.703859 0.655471 0.181894
O68_12 O 0.5375(9) 0.6933(10) 0.2255(10)
H37_3 H 0.178960 0.178936 0.821064
H39_3 H 0.178960 0.821064 0.178936
H15_3 H 0.821040 0.178936 0.178936
H1_3 H 0.821040 0.821064 0.821064
H1_4 H 0.321040 0.321064 0.321064
H15_4 H 0.321040 0.678936 0.678936
H37_4 H 0.678960 0.678936 0.321064
H39_4 H 0.678960 0.321064 0.678936
loop_
_geom_bond_atom_site_label_1
_geom_bond_atom_site_label_2
_geom_bond_site_symmetry_1
_geom_bond_site_symmetry_2
Y1 O1 1_555 1_555
O1 H1 1_555 1_555
O2 Y1 1_555 1_555
H2 O2 1_555 1_555
O3 Y1 1_555 1_555
O4 C1 1_555 1_555
O5 Y1 1_555 1_555
O6 C6 1_555 1_555
C1 O3 1_555 1_555
C2 C1 1_555 1_555
C3 C2 1_555 1_555
H3 C3 1_555 1_555
C4 C3 1_555 1_555
C5 C2 1_555 1_555
H4 C5 1_555 1_555
C6 O5 1_555 1_555
C7 C6 1_555 1_555
C8 C7 1_555 1_555
H5 C8 1_555 1_555
C9 C8 1_555 1_555
C10 C7 1_555 1_555
H6 C10 1_555 1_555
O7 Y1 1_555 1_555
C25 C9 1_555 1_555
H12 C26 1_555 1_555
O16 C27 1_555 1_555
O17 C27 1_555 1_555
C27 C28 1_555 1_555
C28 C26 1_555 1_555
C29 C25 1_555 1_555
H13 C29 1_555 1_555
Y3 O1 1_555 1_555
O31 Y3 1_555 1_555
H23 O31 1_555 1_555
O32 Y3 1_555 1_555
O33 C49 1_555 1_555
C49 O32 1_555 1_555
C50 C49 1_555 1_555
C51 C50 1_555 1_555
H24 C51 1_555 1_555
C52 C51 1_555 1_555
C53 C50 1_555 1_555
H25 C53 1_555 1_555
O34 Y3 1_555 1_555
Y7 O1 1_555 1_555
O57 Y1 1_555 1_555
H41 O57 1_555 1_555
O58 Y7 1_555 1_555
O69 C81 1_555 1_555
O70 Y1 1_555 1_555
C81 O70 1_555 1_555
C82 C81 1_555 1_555
C83 C82 1_555 1_555
H47 C83 1_555 1_555
C84 C83 1_555 1_555
C85 C82 1_555 1_555
H48 C85 1_555 1_555
O75 C94 1_555 1_555
O76 C94 1_555 1_555
C94 C95 1_555 1_555
C95 C85 1_555 1_555
C96 C84 1_555 1_555
H52 C96 1_555 1_555
Y19 O17 1_555 1_555
Y23 O75 1_555 1_555
Y25 O16 1_555 1_555
Y27 O76 1_555 1_555
Y36 O31 1_555 1_555
Y41 O6 1_555 1_555
Y46 O2 1_555 1_555
O85 Y7 1_555 1_555
O89 Y1 1_555 1_555
O91 Y3 1_555 1_555
O95 Y7 1_555 1_555
O101 Y1 1_555 1_555
O105 Y3 1_555 1_555
O109 Y7 1_555 1_555
O114 Y3 1_555 1_555
O118 Y7 1_555 1_555
O2 Y3 1_555 1_555
O4 Y3 1_555 1_555
C28 C29 1_555 1_555
O31 Y7 1_555 1_555
O33 Y7 1_555 1_555
Y7 O57 1_555 1_555
O57 Y41 1_555 1_555
O69 Y46 1_555 1_555
C95 C96 1_555 1_555
Y36 O85 1_555 1_555
Y36 O91 1_555 1_555
Y41 O85 1_555 1_555
Y41 O89 1_555 1_555
Y46 O89 1_555 1_555
Y46 O91 1_555 1_555
H4_2 C5_2 1_555 1_555
O10 C16 1_555 1_555
O11 C16 1_555 1_555
C16 C17 1_555 1_555
C17 C5_2 1_555 1_555
C18 C4_2 1_555 1_555
H9 C18 1_555 1_555
H27 C58 1_555 1_555
O39 C62 1_555 1_555
O40 C62 1_555 1_555
C62 C63 1_555 1_555
C63 C58 1_555 1_555
C64 C57 1_555 1_555
H29 C64 1_555 1_555
Y25 O10 1_555 1_555
O65 Y25 1_555 1_555
H45 O65 1_555 1_555
O66 Y25 1_555 1_555
Y24 O65 1_555 1_555
Y30 O11 1_555 1_555
Y35 O40 1_555 1_555
O77 Y25 1_555 1_555
O81 Y25 1_555 1_555
O84 Y25 1_555 1_555
O104 Y25 1_555 1_555
O113 Y25 1_555 1_555
C17 C18 1_555 1_555
O39 Y30 1_555 1_555
C63 C64 1_555 1_555
O65 Y30 1_555 1_555
Y19 O81 1_555 1_555
Y19 O84 1_555 1_555
Y24 O81 1_555 1_555
Y30 O77 1_555 1_555
Y35 O77 1_555 1_555
Y35 O84 1_555 1_555
H6_2 C10_2 1_555 1_555
H8 C15 1_555 1_555
O12 C19 1_555 1_555
O13 C19 1_555 1_555
C19 C20 1_555 1_555
C20 C15 1_555 1_555
C21 C14 1_555 1_555
H10 C21 1_555 1_555
O14 C22 1_555 1_555
O15 C22 1_555 1_555
C22 C23 1_555 1_555
C23 C24 1_555 1_555
C24 H11 1_555 1_555
C25_2 C9_2 1_555 1_555
C26_2 C23 1_555 1_555
H12_2 C26_2 1_555 1_555
O18 C30 1_555 1_555
O19 C30 1_555 1_555
C30 C31 1_555 1_555
C31 C10_2 1_555 1_555
C32 C9_2 1_555 1_555
H14 C32 1_555 1_555
H34 C74 1_555 1_555
O49 C78 1_555 1_555
O50 C78 1_555 1_555
C78 C79 1_555 1_555
C79 C74 1_555 1_555
C80 C73 1_555 1_555
H36 C80 1_555 1_555
Y12 O12 1_555 1_555
O67 Y12 1_555 1_555
H46 O67 1_555 1_555
O68 Y12 1_555 1_555
O71 C86 1_555 1_555
O72 C86 1_555 1_555
C86 C87 1_555 1_555
C87 C88 1_555 1_555
C88 H49 1_555 1_555
C90 C87 1_555 1_555
H50 C90 1_555 1_555
O73 C91 1_555 1_555
O74 Y12 1_555 1_555
C91 O74 1_555 1_555
C92 C90 1_555 1_555
C93 C89 1_555 1_555
H51 C93 1_555 1_555
Y15 O72 1_555 1_555
Y17 O14 1_555 1_555
Y21 O19 1_555 1_555
Y22 O67 1_555 1_555
Y31 O13 1_555 1_555
Y33 O50 1_555 1_555
Y43 O15 1_555 1_555
Y48 O71 1_555 1_555
O78 Y12 1_555 1_555
O82 Y12 1_555 1_555
O83 Y12 1_555 1_555
O103 Y12 1_555 1_555
C20 C21 1_555 1_555
C24 C25_2 1_555 1_555
O18 Y12 1_555 1_555
C31 C32 1_555 1_555
O49 Y31 1_555 1_555
C79 C80 1_555 1_555
O67 Y31 1_555 1_555
C88 C89 1_555 1_555
O73 Y22 1_555 1_555
C91 C92 1_555 1_555
C92 C93 1_555 1_555
Y21 O82 1_555 1_555
Y21 O83 1_555 1_555
Y22 O82 1_555 1_555
Y31 O78 1_555 1_555
Y33 O78 1_555 1_555
Y33 O83 1_555 1_555
O8 C11 1_555 1_555
O9 C11 1_555 1_555
C11 C12 1_555 1_555
C12 C13 1_555 1_555
C13 H7 1_555 1_555
C15_2 C12 1_555 1_555
H8_2 C15_2 1_555 1_555
Y17 O8 1_555 1_555
O20 Y17 1_555 1_555
H15 O20 1_555 1_555
O21 Y17 1_555 1_555
H16 O21 1_555 1_555
O24 Y17 1_555 1_555
Y4 O9 1_555 1_555
O41 Y4 1_555 1_555
H30 O41 1_555 1_555
O42 Y4 1_555 1_555
O43 C65 1_555 1_555
C65 O42 1_555 1_555
C66 C65 1_555 1_555
C67 C66 1_555 1_555
H31 C67 1_555 1_555
C68 C67 1_555 1_555
C69 C66 1_555 1_555
H32 C69 1_555 1_555
O44 Y4 1_555 1_555
Y9 O20 1_555 1_555
O61 Y17 1_555 1_555
H43 O61 1_555 1_555
O62 Y9 1_555 1_555
Y39 O41 1_555 1_555
Y47 O21 1_555 1_555
O88 Y9 1_555 1_555
O90 Y17 1_555 1_555
O93 Y4 1_555 1_555
O97 Y9 1_555 1_555
O102 Y17 1_555 1_555
O106 Y4 1_555 1_555
O111 Y9 1_555 1_555
O117 Y4 1_555 1_555
O119 Y9 1_555 1_555
O122 Y17 1_555 1_555
C13 C14_2 1_555 1_555
O20 Y4 1_555 1_555
O21 Y4 1_555 1_555
O41 Y9 1_555 1_555
O43 Y9 1_555 1_555
Y9 O61 1_555 1_555
O61 Y43 1_555 1_555
Y39 O88 1_555 1_555
Y39 O93 1_555 1_555
Y43 O88 1_555 1_555
Y43 O90 1_555 1_555
Y47 O90 1_555 1_555
Y47 O93 1_555 1_555
H25_2 C53_2 1_555 1_555
O37 C59 1_555 1_555
O38 C59 1_555 1_555
C59 C60 1_555 1_555
C60 C53_2 1_555 1_555
C61 C52_2 1_555 1_555
H28 C61 1_555 1_555
Y29 O37 1_555 1_555
Y34 O38 1_555 1_555
C60 C61 1_555 1_555
O35 C54 1_555 1_555
O36 C54 1_555 1_555
C54 C55 1_555 1_555
C55 C56 1_555 1_555
C56 H26 1_555 1_555
C58_2 C55 1_555 1_555
H27_2 C58_2 1_555 1_555
Y6 O35 1_555 1_555
O54 Y6 1_555 1_555
H39 O54 1_555 1_555
O55 Y6 1_555 1_555
H40 O55 1_555 1_555
O56 Y6 1_555 1_555
Y8 O36 1_555 1_555
O59 Y8 1_555 1_555
H42 O59 1_555 1_555
O60 Y8 1_555 1_555
Y16 O54 1_555 1_555
Y38 O55 1_555 1_555
Y45 O59 1_555 1_555
O80 Y6 1_555 1_555
O87 Y8 1_555 1_555
O92 Y6 1_555 1_555
O96 Y8 1_555 1_555
O100 Y6 1_555 1_555
O108 Y6 1_555 1_555
O110 Y8 1_555 1_555
O116 Y6 1_555 1_555
O121 Y8 1_555 1_555
C56 C57_2 1_555 1_555
O54 Y8 1_555 1_555
O55 Y8 1_555 1_555
O59 Y16 1_555 1_555
Y16 O80 1_555 1_555
Y38 O87 1_555 1_555
Y38 O92 1_555 1_555
Y45 O87 1_555 1_555
O45 C70 1_555 1_555
O46 C70 1_555 1_555
C70 C71 1_555 1_555
C71 C72 1_555 1_555
C72 H33 1_555 1_555
C74_2 C71 1_555 1_555
H34_2 C74_2 1_555 1_555
Y5 O45 1_555 1_555
O51 Y5 1_555 1_555
H37 O51 1_555 1_555
O52 Y5 1_555 1_555
H38 O52 1_555 1_555
O53 Y5 1_555 1_555
Y10 O46 1_555 1_555
O63 Y10 1_555 1_555
H44 O63 1_555 1_555
O64 Y10 1_555 1_555
Y15 O51 1_555 1_555
Y37 O52 1_555 1_555
Y44 O63 1_555 1_555
O79 Y5 1_555 1_555
O86 Y10 1_555 1_555
O94 Y5 1_555 1_555
O98 Y10 1_555 1_555
O99 Y5 1_555 1_555
O107 Y5 1_555 1_555
O112 Y10 1_555 1_555
O115 Y5 1_555 1_555
O120 Y10 1_555 1_555
C72 C73_2 1_555 1_555
O51 Y10 1_555 1_555
O52 Y10 1_555 1_555
O63 Y15 1_555 1_555
Y15 O79 1_555 1_555
Y37 O86 1_555 1_555
Y37 O94 1_555 1_555
Y44 O86 1_555 1_555
H32_2 C69_2 1_555 1_555
O47 C75 1_555 1_555
O48 C75 1_555 1_555
C75 C76 1_555 1_555
C76 C69_2 1_555 1_555
C77 C68_2 1_555 1_555
H35 C77 1_555 1_555
Y28 O47 1_555 1_555
Y32 O48 1_555 1_555
C76 C77 1_555 1_555
H6_3 C10_3 1_555 1_555
H8_3 C15_3 1_555 1_555
O12_2 C19_2 1_555 1_555
O13_2 C19_2 1_555 1_555
C19_2 C20_2 1_555 1_555
C20_2 C15_3 1_555 1_555
C21_2 C14_3 1_555 1_555
H10_2 C21_2 1_555 1_555
O14_2 C22_2 1_555 1_555
O15_2 C22_2 1_555 1_555
C22_2 C23_2 1_555 1_555
C23_2 C24_2 1_555 1_555
C24_2 H11_2 1_555 1_555
C25_3 C9_3 1_555 1_555
C26_3 C23_2 1_555 1_555
H12_3 C26_3 1_555 1_555
O18_2 C30_2 1_555 1_555
O19_2 C30_2 1_555 1_555
C30_2 C31_2 1_555 1_555
C31_2 C10_3 1_555 1_555
C32_2 C9_3 1_555 1_555
H14_2 C32_2 1_555 1_555
Y27 O12_2 1_555 1_555
O67_2 Y27 1_555 1_555
H46_2 O67_2 1_555 1_555
O68_2 Y27 1_555 1_555
Y16 O14_2 1_555 1_555
Y21_2 O19_2 1_555 1_555
Y23 O67_2 1_555 1_555
Y29 O13_2 1_555 1_555
Y45 O15_2 1_555 1_555
O78_2 Y27 1_555 1_555
O82_2 Y27 1_555 1_555
O83_2 Y27 1_555 1_555
O103_2 Y27 1_555 1_555
C20_2 C21_2 1_555 1_555
C24_2 C25_3 1_555 1_555
O18_2 Y27 1_555 1_555
C31_2 C32_2 1_555 1_555
O67_2 Y29 1_555 1_555
Y21_2 O82_2 1_555 1_555
Y21_2 O83_2 1_555 1_555
Y23 O82_2 1_555 1_555
Y29 O78_2 1_555 1_555
Y34 O78_2 1_555 1_555
Y34 O83_2 1_555 1_555
O8_2 C11_2 1_555 1_555
O100 C11_2 1_555 1_555
C11_2 C12_2 1_555 1_555
C12_2 C13_2 1_555 1_555
C13_2 H7_2 1_555 1_555
C15_4 C12_2 1_555 1_555
H8_4 C15_4 1_555 1_555
Y16 O8_2 1_555 1_555
H16_2 O80 1_555 1_555
O24_2 Y16 1_555 1_555
Y47_2 O80 1_555 1_555
O90_2 Y16 1_555 1_555
O102_2 Y16 1_555 1_555
O122_2 Y16 1_555 1_555
C13_2 C14_4 1_555 1_555
Y45 O90_2 1_555 1_555
Y47_2 O90_2 1_555 1_555
Y47_2 O92 1_555 1_555
H2_2 O79 1_555 1_555
O3_2 Y15 1_555 1_555
O99 C1_2 1_555 1_555
O5_2 Y15 1_555 1_555
O6_2 C6_2 1_555 1_555
C1_2 O3_2 1_555 1_555
C2_2 C1_2 1_555 1_555
C3_2 C2_2 1_555 1_555
H3_2 C3_2 1_555 1_555
C4_3 C3_2 1_555 1_555
C5_3 C2_2 1_555 1_555
H4_3 C5_3 1_555 1_555
C6_2 O5_2 1_555 1_555
C7_2 C6_2 1_555 1_555
C8_2 C7_2 1_555 1_555
H5_2 C8_2 1_555 1_555
C9_4 C8_2 1_555 1_555
C10_4 C7_2 1_555 1_555
H6_4 C10_4 1_555 1_555
O7_2 Y15 1_555 1_555
C25_4 C9_4 1_555 1_555
H12_4 C26_4 1_555 1_555
O16_2 C27_2 1_555 1_555
O17_2 C27_2 1_555 1_555
C27_2 C28_2 1_555 1_555
C28_2 C26_4 1_555 1_555
C29_2 C25_4 1_555 1_555
H13_2 C29_2 1_555 1_555
Y19_2 O17_2 1_555 1_555
Y25_2 O16_2 1_555 1_555
Y44 O6_2 1_555 1_555
Y48 O79 1_555 1_555
O89_2 Y15 1_555 1_555
O101_2 Y15 1_555 1_555
C28_2 C29_2 1_555 1_555
Y44 O89_2 1_555 1_555
Y48 O89_2 1_555 1_555
Y48 O94 1_555 1_555
H4_4 C5_4 1_555 1_555
O10_2 C16_2 1_555 1_555
O11_2 C16_2 1_555 1_555
C16_2 C17_2 1_555 1_555
C17_2 C5_4 1_555 1_555
C18_2 C4_4 1_555 1_555
H9_2 C18_2 1_555 1_555
Y25_2 O10_2 1_555 1_555
O65_2 Y25_2 1_555 1_555
H45_2 O65_2 1_555 1_555
O66_2 Y25_2 1_555 1_555
Y24_2 O65_2 1_555 1_555
Y28 O11_2 1_555 1_555
O77_2 Y25_2 1_555 1_555
O81_2 Y25_2 1_555 1_555
O84_2 Y25_2 1_555 1_555
O104_2 Y25_2 1_555 1_555
O113_2 Y25_2 1_555 1_555
C17_2 C18_2 1_555 1_555
O65_2 Y28 1_555 1_555
Y19_2 O81_2 1_555 1_555
Y19_2 O84_2 1_555 1_555
Y24_2 O81_2 1_555 1_555
Y28 O77_2 1_555 1_555
Y32 O77_2 1_555 1_555
Y32 O84_2 1_555 1_555
O69_2 C81_2 1_555 1_555
C81_2 O122_2 1_555 1_555
C82_2 C81_2 1_555 1_555
C83_2 C82_2 1_555 1_555
H47_2 C83_2 1_555 1_555
C84_2 C83_2 1_555 1_555
C85_2 C82_2 1_555 1_555
H48_2 C85_2 1_555 1_555
O75_2 C94_2 1_555 1_555
O113 C94_2 1_555 1_555
C94_2 C95_2 1_555 1_555
C95_2 C85_2 1_555 1_555
C96_2 C84_2 1_555 1_555
H52_2 C96_2 1_555 1_555
Y24 O75_2 1_555 1_555
O69_2 Y47_2 1_555 1_555
C95_2 C96_2 1_555 1_555
O71_2 C86_2 1_555 1_555
O122 C86_2 1_555 1_555
C86_2 C87_2 1_555 1_555
C87_2 C88_2 1_555 1_555
C88_2 H49_2 1_555 1_555
C90_2 C87_2 1_555 1_555
H50_2 C90_2 1_555 1_555
O73_2 C91_2 1_555 1_555
C91_2 O113_2 1_555 1_555
C92_2 C90_2 1_555 1_555
C93_2 C89_2 1_555 1_555
H51_2 C93_2 1_555 1_555
Y47 O71_2 1_555 1_555
C88_2 C89_2 1_555 1_555
O73_2 Y24_2 1_555 1_555
C91_2 C92_2 1_555 1_555
C92_2 C93_2 1_555 1_555
O6_3 C6_3 1_555 1_555
C6_3 O105 1_555 1_555
C7_3 C6_3 1_555 1_555
C8_3 C7_3 1_555 1_555
H5_3 C8_3 1_555 1_555
C9_5 C8_3 1_555 1_555
C10_5 C7_3 1_555 1_555
H6_5 C10_5 1_555 1_555
C25_5 C9_5 1_555 1_555
H12_5 C26_5 1_555 1_555
O16_3 C27_3 1_555 1_555
O17_3 C27_3 1_555 1_555
C27_3 C28_3 1_555 1_555
C28_3 C26_5 1_555 1_555
C29_3 C25_5 1_555 1_555
H13_3 C29_3 1_555 1_555
O101 C49_2 1_555 1_555
C49_2 O95 1_555 1_555
C50_2 C49_2 1_555 1_555
C51_2 C50_2 1_555 1_555
H24_2 C51_2 1_555 1_555
C52_3 C51_2 1_555 1_555
C53_3 C50_2 1_555 1_555
H25_3 C53_3 1_555 1_555
O69_3 C81_3 1_555 1_555
C81_3 O114 1_555 1_555
C82_3 C81_3 1_555 1_555
C83_3 C82_3 1_555 1_555
H47_3 C83_3 1_555 1_555
C84_3 C83_3 1_555 1_555
C85_3 C82_3 1_555 1_555
H48_3 C85_3 1_555 1_555
O75_3 C94_3 1_555 1_555
O76_2 C94_3 1_555 1_555
C94_3 C95_3 1_555 1_555
C95_3 C85_3 1_555 1_555
C96_3 C84_3 1_555 1_555
H52_3 C96_3 1_555 1_555
Y23 O17_3 1_555 1_555
Y23_2 O75_3 1_555 1_555
Y29 O16_3 1_555 1_555
Y31 O76_2 1_555 1_555
Y46 O6_3 1_555 1_555
C28_3 C29_3 1_555 1_555
O69_3 Y36 1_555 1_555
C95_3 C96_3 1_555 1_555
H6_6 C10_6 1_555 1_555
O108 C22_3 1_555 1_555
O15_3 C22_3 1_555 1_555
C22_3 C23_3 1_555 1_555
C23_3 C24_3 1_555 1_555
C24_3 H11_3 1_555 1_555
C25_6 C9_6 1_555 1_555
C26_6 C23_3 1_555 1_555
H12_6 C26_6 1_555 1_555
O18_3 C30_3 1_555 1_555
O19_3 C30_3 1_555 1_555
C30_3 C31_3 1_555 1_555
C31_3 C10_6 1_555 1_555
C32_3 C9_6 1_555 1_555
H14_3 C32_3 1_555 1_555
H34_3 C74_3 1_555 1_555
O49_2 C78_2 1_555 1_555
O104 C78_2 1_555 1_555
C78_2 C79_2 1_555 1_555
C79_2 C74_3 1_555 1_555
C80_2 C73_3 1_555 1_555
H36_2 C80_2 1_555 1_555
O67_3 Y30 1_555 1_555
H46_3 O67_3 1_555 1_555
O68_3 Y30 1_555 1_555
O71_3 C86_3 1_555 1_555
O117 C86_3 1_555 1_555
C86_3 C87_3 1_555 1_555
C87_3 C88_3 1_555 1_555
C88_3 H49_3 1_555 1_555
C90_3 C87_3 1_555 1_555
H50_3 C90_3 1_555 1_555
O73_3 C91_3 1_555 1_555
O74_2 Y30 1_555 1_555
C91_3 O74_2 1_555 1_555
C92_3 C90_3 1_555 1_555
C93_3 C89_3 1_555 1_555
H51_3 C93_3 1_555 1_555
Y24 O19_3 1_555 1_555
Y22_2 O67_3 1_555 1_555
Y47_2 O15_3 1_555 1_555
Y39 O71_3 1_555 1_555
O82_3 Y30 1_555 1_555
C24_3 C25_6 1_555 1_555
O18_3 Y30 1_555 1_555
C31_3 C32_3 1_555 1_555
O49_2 Y35 1_555 1_555
C79_2 C80_2 1_555 1_555
O67_3 Y35 1_555 1_555
C88_3 C89_3 1_555 1_555
O73_3 Y22_2 1_555 1_555
C91_3 C92_3 1_555 1_555
C92_3 C93_3 1_555 1_555
Y24 O82_3 1_555 1_555
Y22_2 O82_3 1_555 1_555
H25_4 C53_4 1_555 1_555
O37_2 C59_2 1_555 1_555
O103 C59_2 1_555 1_555
C59_2 C60_2 1_555 1_555
C60_2 C53_4 1_555 1_555
C61_2 C52_4 1_555 1_555
H28_2 C61_2 1_555 1_555
Y33 O37_2 1_555 1_555
C60_2 C61_2 1_555 1_555
O97 C70_2 1_555 1_555
O102 C70_2 1_555 1_555
C70_2 C71_2 1_555 1_555
C71_2 C72_2 1_555 1_555
C72_2 H33_2 1_555 1_555
C74_4 C71_2 1_555 1_555
H34_4 C74_4 1_555 1_555
C72_2 C73_4 1_555 1_555
H27_3 C58_3 1_555 1_555
O39_2 C62_2 1_555 1_555
O103_2 C62_2 1_555 1_555
C62_2 C63_2 1_555 1_555
C63_2 C58_3 1_555 1_555
C64_2 C57_3 1_555 1_555
H29_2 C64_2 1_555 1_555
O65_3 Y29 1_555 1_555
H45_3 O65_3 1_555 1_555
O66_3 Y29 1_555 1_555
Y24_3 O65_3 1_555 1_555
O81_3 Y29 1_555 1_555
O113_3 Y29 1_555 1_555
O39_2 Y34 1_555 1_555
C63_2 C64_2 1_555 1_555
O65_3 Y34 1_555 1_555
Y23 O81_3 1_555 1_555
Y24_3 O81_3 1_555 1_555
O102_2 C65_2 1_555 1_555
C65_2 O96 1_555 1_555
C66_2 C65_2 1_555 1_555
C67_2 C66_2 1_555 1_555
H31_2 C67_2 1_555 1_555
C68_3 C67_2 1_555 1_555
C69_3 C66_2 1_555 1_555
H32_3 C69_3 1_555 1_555
O98 C54_2 1_555 1_555
O101_2 C54_2 1_555 1_555
C54_2 C55_2 1_555 1_555
C55_2 C56_2 1_555 1_555
C56_2 H26_2 1_555 1_555
C58_4 C55_2 1_555 1_555
H27_4 C58_4 1_555 1_555
C56_2 C57_4 1_555 1_555
H32_4 C69_4 1_555 1_555
O47_2 C75_2 1_555 1_555
O104_2 C75_2 1_555 1_555
C75_2 C76_2 1_555 1_555
C76_2 C69_4 1_555 1_555
C77_2 C68_4 1_555 1_555
H35_2 C77_2 1_555 1_555
Y32 O47_2 1_555 1_555
C76_2 C77_2 1_555 1_555
H6_7 C10_7 1_555 1_555
O107 C22_4 1_555 1_555
O15_4 C22_4 1_555 1_555
C22_4 C23_4 1_555 1_555
C23_4 C24_4 1_555 1_555
C24_4 H11_4 1_555 1_555
C25_7 C9_7 1_555 1_555
C26_7 C23_4 1_555 1_555
H12_7 C26_7 1_555 1_555
O18_4 C30_4 1_555 1_555
O19_4 C30_4 1_555 1_555
C30_4 C31_4 1_555 1_555
C31_4 C10_7 1_555 1_555
C32_4 C9_7 1_555 1_555
H14_4 C32_4 1_555 1_555
O67_4 Y31 1_555 1_555
H46_4 O67_4 1_555 1_555
O68_4 Y31 1_555 1_555
Y22 O19_4 1_555 1_555
Y23_2 O67_4 1_555 1_555
Y48 O15_4 1_555 1_555
O82_4 Y31 1_555 1_555
C24_4 C25_7 1_555 1_555
O18_4 Y31 1_555 1_555
C31_4 C32_4 1_555 1_555
O67_4 Y33 1_555 1_555
Y22 O82_4 1_555 1_555
Y23_2 O82_4 1_555 1_555
O6_4 C6_4 1_555 1_555
C6_4 O106 1_555 1_555
C7_4 C6_4 1_555 1_555
C8_4 C7_4 1_555 1_555
H5_4 C8_4 1_555 1_555
C9_8 C8_4 1_555 1_555
C10_8 C7_4 1_555 1_555
H6_8 C10_8 1_555 1_555
C25_8 C9_8 1_555 1_555
H12_8 C26_8 1_555 1_555
O16_4 C27_4 1_555 1_555
O17_4 C27_4 1_555 1_555
C27_4 C28_4 1_555 1_555
C28_4 C26_8 1_555 1_555
C29_4 C25_8 1_555 1_555
H13_4 C29_4 1_555 1_555
Y24_2 O17_4 1_555 1_555
Y28 O16_4 1_555 1_555
Y47 O6_4 1_555 1_555
C28_4 C29_4 1_555 1_555
O65_4 Y28 1_555 1_555
H45_4 O65_4 1_555 1_555
O66_4 Y28 1_555 1_555
Y24_4 O65_4 1_555 1_555
O81_4 Y28 1_555 1_555
O113_4 Y28 1_555 1_555
O65_4 Y32 1_555 1_555
Y24_2 O81_4 1_555 1_555
Y24_4 O81_4 1_555 1_555
O69_4 C81_4 1_555 1_555
C81_4 O115 1_555 1_555
C82_4 C81_4 1_555 1_555
C83_4 C82_4 1_555 1_555
H47_4 C83_4 1_555 1_555
C84_4 C83_4 1_555 1_555
C85_4 C82_4 1_555 1_555
H48_4 C85_4 1_555 1_555
O75_4 C94_4 1_555 1_555
O113_3 C94_4 1_555 1_555
C94_4 C95_4 1_555 1_555
C95_4 C85_4 1_555 1_555
C96_4 C84_4 1_555 1_555
H52_4 C96_4 1_555 1_555
Y24_3 O75_4 1_555 1_555
O69_4 Y37 1_555 1_555
C95_4 C96_4 1_555 1_555
O71_4 C86_4 1_555 1_555
O116 C86_4 1_555 1_555
C86_4 C87_4 1_555 1_555
C87_4 C88_4 1_555 1_555
C88_4 H49_4 1_555 1_555
C90_4 C87_4 1_555 1_555
H50_4 C90_4 1_555 1_555
O73_4 C91_4 1_555 1_555
C91_4 O113_4 1_555 1_555
C92_4 C90_4 1_555 1_555
C93_4 C89_4 1_555 1_555
H51_4 C93_4 1_555 1_555
Y38 O71_4 1_555 1_555
C88_4 C89_4 1_555 1_555
O73_4 Y24_4 1_555 1_555
C91_4 C92_4 1_555 1_555
C92_4 C93_4 1_555 1_555
O6_5 C6_5 1_555 1_555
C6_5 O109 1_555 1_555
C7_5 C6_5 1_555 1_555
C8_5 C7_5 1_555 1_555
H5_5 C8_5 1_555 1_555
C9_9 C8_5 1_555 1_555
C10_9 C7_5 1_555 1_555
H6_9 C10_9 1_555 1_555
C25_9 C9_9 1_555 1_555
H12_9 C26_9 1_555 1_555
O16_5 C27_5 1_555 1_555
O17_5 C27_5 1_555 1_555
C27_5 C28_5 1_555 1_555
C28_5 C26_9 1_555 1_555
C29_5 C25_9 1_555 1_555
H13_5 C29_5 1_555 1_555
O69_5 C81_5 1_555 1_555
C81_5 O118 1_555 1_555
C82_5 C81_5 1_555 1_555
C83_5 C82_5 1_555 1_555
H47_5 C83_5 1_555 1_555
C84_5 C83_5 1_555 1_555
C85_5 C82_5 1_555 1_555
H48_5 C85_5 1_555 1_555
O75_5 C94_5 1_555 1_555
O76_3 C94_5 1_555 1_555
C94_5 C95_5 1_555 1_555
C95_5 C85_5 1_555 1_555
C96_5 C84_5 1_555 1_555
H52_5 C96_5 1_555 1_555
Y23_2 O17_5 1_555 1_555
Y19 O75_5 1_555 1_555
Y33 O16_5 1_555 1_555
Y35 O76_3 1_555 1_555
Y36 O6_5 1_555 1_555
C28_5 C29_5 1_555 1_555
O69_5 Y41 1_555 1_555
C95_5 C96_5 1_555 1_555
H45_5 O83 1_555 1_555
O66_5 Y33 1_555 1_555
O81_5 Y33 1_555 1_555
O113_5 Y33 1_555 1_555
Y23_2 O81_5 1_555 1_555
Y21 O81_5 1_555 1_555
H6_10 C10_10 1_555 1_555
O112 C22_5 1_555 1_555
O15_5 C22_5 1_555 1_555
C22_5 C23_5 1_555 1_555
C23_5 C24_5 1_555 1_555
C24_5 H11_5 1_555 1_555
C25_10 C9_10 1_555 1_555
C26_10 C23_5 1_555 1_555
H12_10 C26_10 1_555 1_555
O18_5 C30_5 1_555 1_555
O19_5 C30_5 1_555 1_555
C30_5 C31_5 1_555 1_555
C31_5 C10_10 1_555 1_555
C32_5 C9_10 1_555 1_555
H14_5 C32_5 1_555 1_555
H46_5 O83_2 1_555 1_555
O68_5 Y34 1_555 1_555
O71_5 C86_5 1_555 1_555
O121 C86_5 1_555 1_555
C86_5 C87_5 1_555 1_555
C87_5 C88_5 1_555 1_555
C88_5 H49_5 1_555 1_555
C90_5 C87_5 1_555 1_555
H50_5 C90_5 1_555 1_555
O73_5 C91_5 1_555 1_555
O74_3 Y34 1_555 1_555
C91_5 O74_3 1_555 1_555
C92_5 C90_5 1_555 1_555
C93_5 C89_5 1_555 1_555
H51_5 C93_5 1_555 1_555
Y24_3 O19_5 1_555 1_555
Y37 O15_5 1_555 1_555
Y45 O71_5 1_555 1_555
O82_5 Y34 1_555 1_555
C24_5 C25_10 1_555 1_555
O18_5 Y34 1_555 1_555
C31_5 C32_5 1_555 1_555
C88_5 C89_5 1_555 1_555
O73_5 Y21_2 1_555 1_555
C91_5 C92_5 1_555 1_555
C92_5 C93_5 1_555 1_555
Y24_3 O82_5 1_555 1_555
Y21_2 O82_5 1_555 1_555
H6_11 C10_11 1_555 1_555
O111 C22_6 1_555 1_555
O15_6 C22_6 1_555 1_555
C22_6 C23_6 1_555 1_555
C23_6 C24_6 1_555 1_555
C24_6 H11_6 1_555 1_555
C25_11 C9_11 1_555 1_555
C26_11 C23_6 1_555 1_555
H12_11 C26_11 1_555 1_555
O18_6 C30_6 1_555 1_555
O19_6 C30_6 1_555 1_555
C30_6 C31_6 1_555 1_555
C31_6 C10_11 1_555 1_555
C32_6 C9_11 1_555 1_555
H14_6 C32_6 1_555 1_555
H46_6 O84 1_555 1_555
O68_6 Y35 1_555 1_555
Y22_2 O19_6 1_555 1_555
Y39 O15_6 1_555 1_555
O82_6 Y35 1_555 1_555
C24_6 C25_11 1_555 1_555
O18_6 Y35 1_555 1_555
C31_6 C32_6 1_555 1_555
Y22_2 O82_6 1_555 1_555
Y19 O82_6 1_555 1_555
O6_6 C6_6 1_555 1_555
C6_6 O110 1_555 1_555
C7_6 C6_6 1_555 1_555
C8_6 C7_6 1_555 1_555
H5_6 C8_6 1_555 1_555
C9_12 C8_6 1_555 1_555
C10_12 C7_6 1_555 1_555
H6_12 C10_12 1_555 1_555
C25_12 C9_12 1_555 1_555
H12_12 C26_12 1_555 1_555
O16_6 C27_6 1_555 1_555
O17_6 C27_6 1_555 1_555
C27_6 C28_6 1_555 1_555
C28_6 C26_12 1_555 1_555
C29_6 C25_12 1_555 1_555
H13_6 C29_6 1_555 1_555
Y24_4 O17_6 1_555 1_555
Y32 O16_6 1_555 1_555
Y38 O6_6 1_555 1_555
C28_6 C29_6 1_555 1_555
H45_6 O84_2 1_555 1_555
O66_6 Y32 1_555 1_555
O81_6 Y32 1_555 1_555
O113_6 Y32 1_555 1_555
Y24_4 O81_6 1_555 1_555
Y19_2 O81_6 1_555 1_555
O69_6 C81_6 1_555 1_555
C81_6 O119 1_555 1_555
C82_6 C81_6 1_555 1_555
C83_6 C82_6 1_555 1_555
H47_6 C83_6 1_555 1_555
C84_6 C83_6 1_555 1_555
C85_6 C82_6 1_555 1_555
H48_6 C85_6 1_555 1_555
O75_6 C94_6 1_555 1_555
O113_5 C94_6 1_555 1_555
C94_6 C95_6 1_555 1_555
C95_6 C85_6 1_555 1_555
C96_6 C84_6 1_555 1_555
H52_6 C96_6 1_555 1_555
Y21 O75_6 1_555 1_555
O69_6 Y43 1_555 1_555
C95_6 C96_6 1_555 1_555
O71_6 C86_6 1_555 1_555
O120 C86_6 1_555 1_555
C86_6 C87_6 1_555 1_555
C87_6 C88_6 1_555 1_555
C88_6 H49_6 1_555 1_555
C90_6 C87_6 1_555 1_555
H50_6 C90_6 1_555 1_555
O73_6 C91_6 1_555 1_555
C91_6 O113_6 1_555 1_555
C92_6 C90_6 1_555 1_555
C93_6 C89_6 1_555 1_555
H51_6 C93_6 1_555 1_555
Y44 O71_6 1_555 1_555
C88_6 C89_6 1_555 1_555
O73_6 Y19_2 1_555 1_555
C91_6 C92_6 1_555 1_555
C92_6 C93_6 1_555 1_555
Y24_4 O1_2 1_555 1_555
O1_2 H1_2 1_555 1_555
H2_3 O81_6 1_555 1_555
O3_3 Y24_4 1_555 1_555
O4_2 C1_3 1_555 1_555
C1_3 O3_3 1_555 1_555
C2_3 C1_3 1_555 1_555
C3_3 C2_3 1_555 1_555
H3_3 C3_3 1_555 1_555
C4_5 C3_3 1_555 1_555
C5_5 C2_3 1_555 1_555
H4_5 C5_5 1_555 1_555
O7_3 Y24_4 1_555 1_555
O8_3 C11_3 1_555 1_555
O9_2 C11_3 1_555 1_555
C11_3 C12_3 1_555 1_555
C12_3 C13_3 1_555 1_555
C13_3 H7_3 1_555 1_555
C14_5 C4_5 1_555 1_555
C15_5 C12_3 1_555 1_555
H8_5 C15_5 1_555 1_555
O10_3 C16_3 1_555 1_555
O11_3 C16_3 1_555 1_555
C16_3 C17_3 1_555 1_555
C17_3 C5_5 1_555 1_555
C18_3 C4_5 1_555 1_555
H9_3 C18_3 1_555 1_555
O12_3 C19_3 1_555 1_555
O13_3 C19_3 1_555 1_555
C19_3 C20_3 1_555 1_555
C20_3 C15_5 1_555 1_555
C21_3 C14_5 1_555 1_555
H10_3 C21_3 1_555 1_555
Y24_3 O8_3 1_555 1_555
O20_2 Y24_3 1_555 1_555
H15_2 O20_2 1_555 1_555
H16_3 O82_5 1_555 1_555
O24_3 Y24_3 1_555 1_555
Y19_2 O1_2 1_555 1_555
H23_2 O81_2 1_555 1_555
O32_2 Y19_2 1_555 1_555
O33_2 C49_3 1_555 1_555
C49_3 O32_2 1_555 1_555
C50_3 C49_3 1_555 1_555
C51_3 C50_3 1_555 1_555
H24_3 C51_3 1_555 1_555
C52_5 C51_3 1_555 1_555
C53_5 C50_3 1_555 1_555
H25_5 C53_5 1_555 1_555
O34_2 Y19_2 1_555 1_555
O35_2 C54_3 1_555 1_555
O36_2 C54_3 1_555 1_555
C54_3 C55_3 1_555 1_555
C55_3 C56_3 1_555 1_555
C56_3 H26_3 1_555 1_555
C57_5 C52_5 1_555 1_555
C58_5 C55_3 1_555 1_555
H27_5 C58_5 1_555 1_555
O37_3 C59_3 1_555 1_555
O38_2 C59_3 1_555 1_555
C59_3 C60_3 1_555 1_555
C60_3 C53_5 1_555 1_555
C61_3 C52_5 1_555 1_555
H28_3 C61_3 1_555 1_555
O39_3 C62_3 1_555 1_555
O40_2 C62_3 1_555 1_555
C62_3 C63_3 1_555 1_555
C63_3 C58_5 1_555 1_555
C64_3 C57_5 1_555 1_555
H29_3 C64_3 1_555 1_555
Y21_2 O9_2 1_555 1_555
H30_2 O82_2 1_555 1_555
O42_2 Y21_2 1_555 1_555
O43_2 C65_3 1_555 1_555
C65_3 O42_2 1_555 1_555
C66_3 C65_3 1_555 1_555
C67_3 C66_3 1_555 1_555
H31_3 C67_3 1_555 1_555
C68_5 C67_3 1_555 1_555
C69_5 C66_3 1_555 1_555
H32_5 C69_5 1_555 1_555
O44_2 Y21_2 1_555 1_555
O45_2 C70_3 1_555 1_555
O46_2 C70_3 1_555 1_555
C70_3 C71_3 1_555 1_555
C71_3 C72_3 1_555 1_555
C72_3 H33_3 1_555 1_555
C73_5 C68_5 1_555 1_555
C74_5 C71_3 1_555 1_555
H34_5 C74_5 1_555 1_555
O47_3 C75_3 1_555 1_555
O48_2 C75_3 1_555 1_555
C75_3 C76_3 1_555 1_555
C76_3 C69_5 1_555 1_555
C77_3 C68_5 1_555 1_555
H35_3 C77_3 1_555 1_555
O49_3 C78_3 1_555 1_555
O50_2 C78_3 1_555 1_555
C78_3 C79_3 1_555 1_555
C79_3 C74_5 1_555 1_555
C80_3 C73_5 1_555 1_555
H36_3 C80_3 1_555 1_555
Y19 O45_2 1_555 1_555
O51_2 Y19 1_555 1_555
H37_2 O51_2 1_555 1_555
H38_2 O81 1_555 1_555
O53_2 Y19 1_555 1_555
Y21 O35_2 1_555 1_555
O54_2 Y21 1_555 1_555
H39_2 O54_2 1_555 1_555
H40_2 O82 1_555 1_555
O56_2 Y21 1_555 1_555
Y24_2 O1_2 1_555 1_555
H41_2 O81_4 1_555 1_555
O58_2 Y24_2 1_555 1_555
Y22 O36_2 1_555 1_555
H42_2 O82_4 1_555 1_555
O60_2 Y22 1_555 1_555
Y23 O20_2 1_555 1_555
H43_2 O81_3 1_555 1_555
O62_2 Y23 1_555 1_555
Y24 O46_2 1_555 1_555
H44_2 O82_3 1_555 1_555
O64_2 Y24 1_555 1_555
Y37 O10_3 1_555 1_555
H45_7 O86 1_555 1_555
O66_7 Y37 1_555 1_555
Y38 O12_3 1_555 1_555
H46_7 O87 1_555 1_555
O68_7 Y38 1_555 1_555
Y22_2 O51_2 1_555 1_555
Y23_2 O54_2 1_555 1_555
Y41 O47_3 1_555 1_555
Y43 O37_3 1_555 1_555
Y44 O11_3 1_555 1_555
Y45 O13_3 1_555 1_555
Y46 O48_2 1_555 1_555
Y47_2 O50_2 1_555 1_555
Y47 O38_2 1_555 1_555
Y48 O40_2 1_555 1_555
O77_3 Y37 1_555 1_555
O78_3 Y38 1_555 1_555
O95_2 Y24_2 1_555 1_555
O96_2 Y22 1_555 1_555
O97_2 Y23 1_555 1_555
O98_2 Y24 1_555 1_555
O99_2 Y19 1_555 1_555
O100_2 Y21 1_555 1_555
O101_3 Y24_4 1_555 1_555
O102_3 Y24_3 1_555 1_555
O103_3 Y38 1_555 1_555
O104_3 Y37 1_555 1_555
O4_2 Y19_2 1_555 1_555
C13_3 C14_5 1_555 1_555
C17_3 C18_3 1_555 1_555
C20_3 C21_3 1_555 1_555
O20_2 Y21_2 1_555 1_555
O33_2 Y24_2 1_555 1_555
C56_3 C57_5 1_555 1_555
C60_3 C61_3 1_555 1_555
O39_3 Y44 1_555 1_555
C63_3 C64_3 1_555 1_555
O43_2 Y23 1_555 1_555
C72_3 C73_5 1_555 1_555
C76_3 C77_3 1_555 1_555
O49_3 Y45 1_555 1_555
C79_3 C80_3 1_555 1_555
O51_2 Y24 1_555 1_555
O54_2 Y22 1_555 1_555
Y44 O77_3 1_555 1_555
Y45 O78_3 1_555 1_555
Y47_2 O78_3 1_555 1_555
Y48 O77_3 1_555 1_555
H2_4 O82_6 1_555 1_555
O3_4 Y22_2 1_555 1_555
O99_2 C1_4 1_555 1_555
C1_4 O3_4 1_555 1_555
C2_4 C1_4 1_555 1_555
C3_4 C2_4 1_555 1_555
H3_4 C3_4 1_555 1_555
C4_6 C3_4 1_555 1_555
C5_6 C2_4 1_555 1_555
H4_6 C5_6 1_555 1_555
O7_4 Y22_2 1_555 1_555
O8_4 C11_4 1_555 1_555
O100_2 C11_4 1_555 1_555
C11_4 C12_4 1_555 1_555
C12_4 C13_4 1_555 1_555
C13_4 H7_4 1_555 1_555
C14_6 C4_6 1_555 1_555
C15_6 C12_4 1_555 1_555
H8_6 C15_6 1_555 1_555
O10_4 C16_4 1_555 1_555
O11_4 C16_4 1_555 1_555
C16_4 C17_4 1_555 1_555
C17_4 C5_6 1_555 1_555
C18_4 C4_6 1_555 1_555
H9_4 C18_4 1_555 1_555
O12_4 C19_4 1_555 1_555
O13_4 C19_4 1_555 1_555
C19_4 C20_4 1_555 1_555
C20_4 C15_6 1_555 1_555
C21_4 C14_6 1_555 1_555
H10_4 C21_4 1_555 1_555
Y23_2 O8_4 1_555 1_555
H16_4 O81_5 1_555 1_555
O24_4 Y23_2 1_555 1_555
Y36 O10_4 1_555 1_555
H45_8 O85 1_555 1_555
O66_8 Y36 1_555 1_555
Y39 O12_4 1_555 1_555
H46_8 O88 1_555 1_555
O68_8 Y39 1_555 1_555
Y41 O11_4 1_555 1_555
Y43 O13_4 1_555 1_555
O77_4 Y36 1_555 1_555
O78_4 Y39 1_555 1_555
O101_4 Y22_2 1_555 1_555
O102_4 Y23_2 1_555 1_555
O103_4 Y39 1_555 1_555
O104_4 Y36 1_555 1_555
C13_4 C14_6 1_555 1_555
C17_4 C18_4 1_555 1_555
C20_4 C21_4 1_555 1_555
Y41 O77_4 1_555 1_555
Y43 O78_4 1_555 1_555
Y47 O78_4 1_555 1_555
Y46 O77_4 1_555 1_555
O101_3 C49_4 1_555 1_555
C49_4 O95_2 1_555 1_555
C50_4 C49_4 1_555 1_555
C51_4 C50_4 1_555 1_555
H24_4 C51_4 1_555 1_555
C52_6 C51_4 1_555 1_555
C53_6 C50_4 1_555 1_555
H25_6 C53_6 1_555 1_555
O98_2 C54_4 1_555 1_555
O101_4 C54_4 1_555 1_555
C54_4 C55_4 1_555 1_555
C55_4 C56_4 1_555 1_555
C56_4 H26_4 1_555 1_555
C57_6 C52_6 1_555 1_555
C58_6 C55_4 1_555 1_555
H27_6 C58_6 1_555 1_555
O37_4 C59_4 1_555 1_555
O103_3 C59_4 1_555 1_555
C59_4 C60_4 1_555 1_555
C60_4 C53_6 1_555 1_555
C61_4 C52_6 1_555 1_555
H28_4 C61_4 1_555 1_555
O39_4 C62_4 1_555 1_555
O103_4 C62_4 1_555 1_555
C62_4 C63_4 1_555 1_555
C63_4 C58_6 1_555 1_555
C64_4 C57_6 1_555 1_555
H29_4 C64_4 1_555 1_555
O102_4 C65_4 1_555 1_555
C65_4 O96_2 1_555 1_555
C66_4 C65_4 1_555 1_555
C67_4 C66_4 1_555 1_555
H31_4 C67_4 1_555 1_555
C68_6 C67_4 1_555 1_555
C69_6 C66_4 1_555 1_555
H32_6 C69_6 1_555 1_555
O97_2 C70_4 1_555 1_555
O102_3 C70_4 1_555 1_555
C70_4 C71_4 1_555 1_555
C71_4 C72_4 1_555 1_555
C72_4 H33_4 1_555 1_555
C73_6 C68_6 1_555 1_555
C74_6 C71_4 1_555 1_555
H34_6 C74_6 1_555 1_555
O47_4 C75_4 1_555 1_555
O104_4 C75_4 1_555 1_555
C75_4 C76_4 1_555 1_555
C76_4 C69_6 1_555 1_555
C77_4 C68_6 1_555 1_555
H35_4 C77_4 1_555 1_555
O49_4 C78_4 1_555 1_555
O104_3 C78_4 1_555 1_555
C78_4 C79_4 1_555 1_555
C79_4 C74_6 1_555 1_555
C80_4 C73_6 1_555 1_555
H36_4 C80_4 1_555 1_555
H45_9 O90 1_555 1_555
O66_9 Y43 1_555 1_555
H46_9 O89_2 1_555 1_555
O68_9 Y44 1_555 1_555
Y46 O47_4 1_555 1_555
Y47_2 O37_4 1_555 1_555
C56_4 C57_6 1_555 1_555
C60_4 C61_4 1_555 1_555
O39_4 Y47 1_555 1_555
C63_4 C64_4 1_555 1_555
C72_4 C73_6 1_555 1_555
C76_4 C77_4 1_555 1_555
O49_4 Y48 1_555 1_555
C79_4 C80_4 1_555 1_555
H45_10 O89 1_555 1_555
O66_10 Y41 1_555 1_555
H46_10 O90_2 1_555 1_555
O68_10 Y45 1_555 1_555
H45_11 O92 1_555 1_555
O66_11 Y47_2 1_555 1_555
H46_11 O93 1_555 1_555
O68_11 Y47 1_555 1_555
H45_12 O91 1_555 1_555
O66_12 Y46 1_555 1_555
H46_12 O94 1_555 1_555
O68_12 Y48 1_555 1_555
H37_3 O77 1_555 1_555
H39_3 O78 1_555 1_555
H15_3 O78_2 1_555 1_555
O77_2 H1_3 1_555 1_555
O77_4 H1_4 1_555 1_555
H15_4 O78_4 1_555 1_555
H37_4 O77_3 1_555 1_555
H39_4 O78_3 1_555 1_555

#END
