
###############################################################################
#
# This file contains modified crystal structure data generated from the
# MOF subset of the Cambridge Structural Database (CSD) v543 
# hosted by the Cambridge Crystallographic Data Centre (CCDC).
#
# This work is licensed under the Creative Commons
# Attribution-NonCommercial-ShareAlike 4.0 International License.
# To view a copy of this license, visit
# http://creativecommons.org/licenses/by-nc-sa/4.0/
# or send a letter to
# Creative Commons, PO Box 1866, Mountain View, CA 94042, USA.
#
# CIF created using the CSD Python API on 29 September 2022
# The structure has been converted into the P1 space group
# The structure has a 3D framework
# The original CSD entry JIDYIH is in the monoclinic crystal system
# The framework has been calculated to contain at least 10.0% void space
# The void calculation uses a probe of radius 1.32A, grid spacing 0.4
# The framework is charged, counterions have been retained in the structure
#
###############################################################################

data_JIDYIH
_chemical_formula_moiety         '(C184 H168 Eu8 N8 O84 8-)n'
_symmetry_cell_setting           triclinic
_symmetry_space_group_name_H-M   'P 1'
_symmetry_Int_Tables_number      1
_space_group_name_Hall           'P 1'
loop_
_symmetry_equiv_pos_site_id
_symmetry_equiv_pos_as_xyz
1 x,y,z
_cell_length_a                   22.780(6)
_cell_length_b                   20.276(5)
_cell_length_c                   12.298(3)
_cell_angle_alpha                90
_cell_angle_beta                 110.936(3)
_cell_angle_gamma                90
_cell_volume                     5305.28
loop_
_atom_site_label
_atom_site_type_symbol
_atom_site_fract_x
_atom_site_fract_y
_atom_site_fract_z
Eu1 Eu 0.17684(2) 0.21988(2) 0.06720(3)
O11 O 0.1879(4) 0.2488(4) 0.2636(5)
N1 N 0.2401(6) 0.3199(5) 0.4131(8)
C20 C 0.1868(7) 0.2940(6) 0.3330(9)
C21 C 0.1239(7) 0.3147(7) 0.3350(11)
H13 H 0.1297 0.3500 0.3924
H14 H 0.0976 0.3308 0.2578
H15 H 0.1034 0.2769 0.3561
C22 C 0.2434(8) 0.3690(6) 0.5054(12)
H16 H 0.2875 0.3790 0.5507
H17 H 0.2217 0.4095 0.4691
H18 H 0.2232 0.3507 0.5570
C23 C 0.3014(8) 0.2996(8) 0.4100(13)
H19 H 0.3350 0.3220 0.4722
H20 H 0.3063 0.2517 0.4212
H21 H 0.3039 0.3114 0.3344
O12 O 0.2810(2) 0.1863(2) 0.1744(4)
O14 O 0.1003(2) 0.3108(3) 0.0537(5)
O15 O 0.2339(2) 0.3171(2) 0.0856(5)
O17 O 0.1458(3) 0.1231(3) 0.1412(5)
O1 O 0.1475(2) 0.2574(3) 0.8718(4)
O2 O 0.2190(2) 0.3137(2) 0.8256(4)
O5 O 0.0934(2) 0.4572(3) 0.5067(5)
O6 O 0.1550(2) 0.4863(3) 0.2973(5)
O8 O 0.3098(2) 0.3700(2) 0.0485(4)
O9 O 0.4161(3) 0.5520(4) 0.3164(8)
O10 O 0.3542(3) 0.6231(3) 0.3588(5)
C1 C 0.1642(3) 0.2946(3) 0.8074(6)
C2 C 0.1133(3) 0.3186(3) 0.6986(6)
C3 C 0.0551(3) 0.2874(3) 0.6555(6)
H1 H 0.0470 0.2496 0.6937
C4 C 0.0087(3) 0.3121(4) 0.5556(6)
C5 C 0.0193(3) 0.3698(3) 0.5026(6)
C6 C 0.0772(3) 0.4008(3) 0.5479(6)
C7 C 0.1245(3) 0.3743(4) 0.6435(6)
H3 H 0.1647 0.3945 0.6715
C9 C 0.0542(3) 0.4817(4) 0.3953(6)
H4 H 0.0119 0.4927 0.3955
H5 H 0.0497 0.4483 0.3341
C10 C 0.0860(3) 0.5424(3) 0.3733(6)
H6 H 0.0617 0.5587 0.2940
H7 H 0.0844 0.5770 0.4290
C11 C 0.1532(3) 0.5335(4) 0.3835(6)
H8 H 0.1709 0.5762 0.3705
H9 H 0.1786 0.5175 0.4623
C12 C 0.2095(3) 0.4811(4) 0.2737(6)
C13 C 0.2128(3) 0.4296(4) 0.2024(6)
H10 H 0.1789 0.3993 0.1748
C14 C 0.2644(3) 0.4220(3) 0.1710(6)
C15 C 0.3133(3) 0.4674(4) 0.2094(7)
H11 H 0.3485 0.4633 0.1856
C16 C 0.3108(4) 0.5191(4) 0.2825(7)
C17 C 0.2592(3) 0.5262(4) 0.3152(7)
H12 H 0.2573 0.5612 0.3651
C18 C 0.3634(4) 0.5688(4) 0.3217(8)
C19 C 0.2695(3) 0.3655(3) 0.0965(6)
Eu4 Eu 0.32316(2) 0.71988(2) 0.43280(3)
Eu6 Eu 0.32316(2) 0.28012(2) 0.93280(3)
O13 O 0.0575(2) 0.2178(2) 0.9733(5)
O16 O 0.1902(2) 0.1300(2) 0.9515(4)
O3 O 0.9425(2) 0.2178(2) 0.5267(5)
O4 O 0.8997(2) 0.3108(3) 0.4463(5)
H2 H 0.9871 0.3875 0.4364
C8 C 0.9469(3) 0.2785(3) 0.5074(6)
Eu3 Eu 0.82316(2) 0.21988(2) 0.43280(3)
H2_2 H 0.0129 0.3875 0.0636
C8_2 C 0.0531(3) 0.2785(3) 0.9926(6)
O6_2 O 0.8450(2) 0.4863(3) 0.2027(5)
O7 O 0.7661(2) 0.3171(2) 0.4144(5)
O8_2 O 0.6902(2) 0.3700(2) 0.4515(4)
O9_2 O 0.5839(3) 0.5520(4) 0.1836(8)
O10_2 O 0.6458(3) 0.6231(3) 0.1412(5)
C9_2 C 0.9458(3) 0.4817(4) 0.1047(6)
H4_2 H 0.9881 0.4927 0.1045
H5_2 H 0.9503 0.4483 0.1659
C10_2 C 0.9140(3) 0.5424(3) 0.1267(6)
H6_2 H 0.9383 0.5587 0.2060
H7_2 H 0.9156 0.5770 0.0710
C11_2 C 0.8468(3) 0.5335(4) 0.1165(6)
H8_2 H 0.8291 0.5762 0.1295
H9_2 H 0.8214 0.5175 0.0377
C12_2 C 0.7905(3) 0.4811(4) 0.2263(6)
C13_2 C 0.7872(3) 0.4296(4) 0.2976(6)
H10_2 H 0.8211 0.3993 0.3252
C14_2 C 0.7356(3) 0.4220(3) 0.3290(6)
C15_2 C 0.6867(3) 0.4674(4) 0.2906(7)
H11_2 H 0.6515 0.4633 0.3144
C16_2 C 0.6892(4) 0.5191(4) 0.2175(7)
C17_2 C 0.7408(3) 0.5262(4) 0.1848(7)
H12_2 H 0.7427 0.5612 0.1349
C18_2 C 0.6366(4) 0.5688(4) 0.1783(8)
C19_2 C 0.7305(3) 0.3655(3) 0.4035(6)
Eu4_2 Eu 0.67684(2) 0.71988(2) 0.06720(3)
Eu5 Eu 0.67684(2) 0.28012(2) 0.56720(3)
O1_2 O 0.8525(2) 0.2574(3) 0.6282(4)
O2_2 O 0.7810(2) 0.3137(2) 0.6744(4)
O5_2 O 0.9066(2) 0.4572(3) 0.9933(5)
O11_2 O 0.8121(4) 0.2488(4) 0.2364(5)
N1_2 N 0.7599(6) 0.3199(5) 0.0869(8)
C1_2 C 0.8358(3) 0.2946(3) 0.6926(6)
C2_2 C 0.8867(3) 0.3186(3) 0.8014(6)
C3_2 C 0.9449(3) 0.2874(3) 0.8445(6)
H1_2 H 0.9530 0.2496 0.8063
C4_2 C 0.9913(3) 0.3121(4) 0.9444(6)
C5_2 C 0.9807(3) 0.3698(3) 0.9974(6)
C6_2 C 0.9228(3) 0.4008(3) 0.9521(6)
C7_2 C 0.8755(3) 0.3743(4) 0.8565(6)
H3_2 H 0.8353 0.3945 0.8285
C20_2 C 0.8132(7) 0.2940(6) 0.1670(9)
C21_2 C 0.8761(7) 0.3147(7) 0.1650(11)
H13_2 H 0.8703 0.3500 0.1076
H14_2 H 0.9024 0.3308 0.2422
H15_2 H 0.8966 0.2769 0.1439
H17_2 H 0.7783 0.4095 0.0309
C23_2 C 0.6986(8) 0.2996(8) 0.0900(13)
H19_2 H 0.6650 0.3220 0.0278
H20_2 H 0.6937 0.2517 0.0788
H21_2 H 0.6961 0.3114 0.1656
O12_2 O 0.7190(2) 0.1863(2) 0.3256(4)
O16_2 O 0.8098(2) 0.1300(2) 0.5485(4)
O17_2 O 0.8542(3) 0.1231(3) 0.3588(5)
O9_3 O 0.9161(3) 0.0520(4) 0.3164(8)
C10_3 C 0.5860(3) 0.0424(3) 0.3733(6)
H6_3 H 0.5617 0.0587 0.2940
H7_3 H 0.5844 0.0770 0.4290
C11_3 C 0.6532(3) 0.0335(4) 0.3835(6)
H8_3 H 0.6709 0.0762 0.3705
H9_3 H 0.6786 0.0175 0.4623
C16_3 C 0.8108(4) 0.0191(4) 0.2825(7)
C17_3 C 0.7592(3) 0.0262(4) 0.3152(7)
H12_3 H 0.7573 0.0612 0.3651
C18_3 C 0.8634(4) 0.0688(4) 0.3217(8)
O11_3 O 0.6879(4) 0.7488(4) 0.2636(5)
N1_3 N 0.7401(6) 0.8199(5) 0.4131(8)
C20_3 C 0.6868(7) 0.7940(6) 0.3330(9)
C21_3 C 0.6239(7) 0.8147(7) 0.3350(11)
H13_3 H 0.6297 0.8500 0.3924
H14_3 H 0.5976 0.8308 0.2578
H15_3 H 0.6034 0.7769 0.3561
C22_2 C 0.7434(8) 0.8690(6) 0.5054(12)
H16_2 H 0.7875 0.8790 0.5507
H17_3 H 0.7217 0.9095 0.4691
H18_2 H 0.7232 0.8507 0.5570
C23_3 C 0.8014(8) 0.7996(8) 0.4100(13)
H19_3 H 0.8350 0.8220 0.4722
H20_3 H 0.8063 0.7517 0.4212
H21_3 H 0.8039 0.8114 0.3344
O12_3 O 0.7810(2) 0.6863(2) 0.1744(4)
O14_2 O 0.6003(2) 0.8108(3) 0.0537(5)
O15_2 O 0.7339(2) 0.8171(2) 0.0856(5)
O1_3 O 0.6475(2) 0.7574(3) 0.8718(4)
O2_3 O 0.7190(2) 0.8137(2) 0.8256(4)
O3_2 O 0.4425(2) 0.7178(2) 0.5267(5)
O4_2 O 0.3997(2) 0.8108(3) 0.4463(5)
O5_3 O 0.5934(2) 0.9572(3) 0.5067(5)
O6_3 O 0.6550(2) 0.9863(3) 0.2973(5)
O8_3 O 0.8098(2) 0.8700(2) 0.0485(4)
C1_3 C 0.6642(3) 0.7946(3) 0.8074(6)
C2_3 C 0.6133(3) 0.8186(3) 0.6986(6)
C3_3 C 0.5551(3) 0.7874(3) 0.6555(6)
H1_3 H 0.5470 0.7496 0.6937
C4_3 C 0.5087(3) 0.8121(4) 0.5556(6)
C5_3 C 0.5193(3) 0.8698(3) 0.5026(6)
H2_3 H 0.4871 0.8875 0.4364
C6_3 C 0.5772(3) 0.9008(3) 0.5479(6)
C7_3 C 0.6245(3) 0.8743(4) 0.6435(6)
H3_3 H 0.6647 0.8945 0.6715
C8_3 C 0.4469(3) 0.7785(3) 0.5074(6)
C9_3 C 0.5542(3) 0.9817(4) 0.3953(6)
H4_3 H 0.5119 0.9927 0.3955
H5_3 H 0.5497 0.9483 0.3341
C12_3 C 0.7095(3) 0.9811(4) 0.2737(6)
C13_3 C 0.7128(3) 0.9296(4) 0.2024(6)
H10_3 H 0.6789 0.8993 0.1748
C14_3 C 0.7644(3) 0.9220(3) 0.1710(6)
C15_3 C 0.8133(3) 0.9674(4) 0.2094(7)
H11_3 H 0.8485 0.9633 0.1856
C19_3 C 0.7695(3) 0.8655(3) 0.0965(6)
Eu6_2 Eu 0.82316(2) 0.78012(2) 0.93280(3)
O13_2 O 0.5575(2) 0.7178(2) 0.9733(5)
O16_3 O 0.6902(2) 0.6300(2) 0.9515(4)
O9_4 O 0.0839(3) 0.0520(4) 0.1836(8)
C10_4 C 0.4140(3) 0.0424(3) 0.1267(6)
H6_4 H 0.4383 0.0587 0.2060
H7_4 H 0.4156 0.0770 0.0710
C11_4 C 0.3468(3) 0.0335(4) 0.1165(6)
H8_4 H 0.3291 0.0762 0.1295
H9_4 H 0.3214 0.0175 0.0377
C16_4 C 0.1892(4) 0.0191(4) 0.2175(7)
C17_4 C 0.2408(3) 0.0262(4) 0.1848(7)
H12_4 H 0.2427 0.0612 0.1349
C18_4 C 0.1366(4) 0.0688(4) 0.1783(8)
O6_4 O 0.3450(2) 0.9863(3) 0.2027(5)
O7_2 O 0.2661(2) 0.8171(2) 0.4144(5)
O8_4 O 0.1902(2) 0.8700(2) 0.4515(4)
H2_4 H 0.5129 0.8875 0.0636
C9_4 C 0.4458(3) 0.9817(4) 0.1047(6)
H4_4 H 0.4881 0.9927 0.1045
H5_4 H 0.4503 0.9483 0.1659
C12_4 C 0.2905(3) 0.9811(4) 0.2263(6)
C13_4 C 0.2872(3) 0.9296(4) 0.2976(6)
H10_4 H 0.3211 0.8993 0.3252
C14_4 C 0.2356(3) 0.9220(3) 0.3290(6)
C15_4 C 0.1867(3) 0.9674(4) 0.2906(7)
H11_4 H 0.1515 0.9633 0.3144
C19_4 C 0.2305(3) 0.8655(3) 0.4035(6)
Eu5_2 Eu 0.17684(2) 0.78012(2) 0.56720(3)
O1_4 O 0.3525(2) 0.7574(3) 0.6282(4)
O2_4 O 0.2810(2) 0.8137(2) 0.6744(4)
O5_4 O 0.4066(2) 0.9572(3) 0.9933(5)
O11_4 O 0.3121(4) 0.7488(4) 0.2364(5)
N1_4 N 0.2599(6) 0.8199(5) 0.0869(8)
C1_4 C 0.3358(3) 0.7946(3) 0.6926(6)
C2_4 C 0.3867(3) 0.8186(3) 0.8014(6)
C3_4 C 0.4449(3) 0.7874(3) 0.8445(6)
H1_4 H 0.4530 0.7496 0.8063
C4_4 C 0.4913(3) 0.8121(4) 0.9444(6)
C5_4 C 0.4807(3) 0.8698(3) 0.9974(6)
C6_4 C 0.4228(3) 0.9008(3) 0.9521(6)
C7_4 C 0.3755(3) 0.8743(4) 0.8565(6)
H3_4 H 0.3353 0.8945 0.8285
C8_4 C 0.5531(3) 0.7785(3) 0.9926(6)
C20_4 C 0.3132(7) 0.7940(6) 0.1670(9)
C21_4 C 0.3761(7) 0.8147(7) 0.1650(11)
H13_4 H 0.3703 0.8500 0.1076
H14_4 H 0.4024 0.8308 0.2422
H15_4 H 0.3966 0.7769 0.1439
H17_4 H 0.2783 0.9095 0.0309
C23_4 C 0.1986(8) 0.7996(8) 0.0900(13)
H19_4 H 0.1650 0.8220 0.0278
H20_4 H 0.1937 0.7517 0.0788
H21_4 H 0.1961 0.8114 0.1656
O12_4 O 0.2190(2) 0.6863(2) 0.3256(4)
O16_4 O 0.3098(2) 0.6300(2) 0.5485(4)
O3_3 O 0.0575(2) 0.7822(2) 0.4733(5)
O4_3 O 0.1003(2) 0.6892(3) 0.5537(5)
H2_5 H 0.0129 0.6125 0.5636
C8_5 C 0.0531(3) 0.7215(3) 0.4926(6)
O1_5 O 0.8525(2) 0.7426(3) 0.1282(4)
O5_5 O 0.9066(2) 0.5428(3) 0.4933(5)
O6_5 O 0.8450(2) 0.5137(3) 0.7027(5)
O7_3 O 0.7661(2) 0.6829(2) 0.9144(5)
O9_5 O 0.5839(3) 0.4480(4) 0.6836(8)
O10_3 O 0.6458(3) 0.3769(3) 0.6412(5)
C1_5 C 0.8358(3) 0.7054(3) 0.1926(6)
C2_5 C 0.8867(3) 0.6814(3) 0.3014(6)
C3_5 C 0.9449(3) 0.7126(3) 0.3445(6)
H1_5 H 0.9530 0.7504 0.3063
C4_5 C 0.9913(3) 0.6879(4) 0.4444(6)
C5_5 C 0.9807(3) 0.6302(3) 0.4974(6)
C6_5 C 0.9228(3) 0.5992(3) 0.4521(6)
C7_5 C 0.8755(3) 0.6257(4) 0.3565(6)
H3_5 H 0.8353 0.6055 0.3285
C9_5 C 0.9458(3) 0.5183(4) 0.6047(6)
H4_5 H 0.9881 0.5073 0.6045
H5_5 H 0.9503 0.5517 0.6659
C10_5 C 0.9140(3) 0.4576(3) 0.6267(6)
H6_5 H 0.9383 0.4413 0.7060
H7_5 H 0.9156 0.4230 0.5710
C11_5 C 0.8468(3) 0.4665(4) 0.6165(6)
H8_5 H 0.8291 0.4238 0.6295
H9_5 H 0.8214 0.4825 0.5377
C12_5 C 0.7905(3) 0.5189(4) 0.7263(6)
C13_5 C 0.7872(3) 0.5704(4) 0.7976(6)
H10_5 H 0.8211 0.6007 0.8252
C14_5 C 0.7356(3) 0.5780(3) 0.8290(6)
C15_5 C 0.6867(3) 0.5326(4) 0.7906(7)
H11_5 H 0.6515 0.5367 0.8144
C16_5 C 0.6892(4) 0.4809(4) 0.7175(7)
C17_5 C 0.7408(3) 0.4738(4) 0.6848(7)
H12_5 H 0.7427 0.4388 0.6349
C18_5 C 0.6366(4) 0.4312(4) 0.6783(8)
C19_5 C 0.7305(3) 0.6345(3) 0.9035(6)
O13_3 O 0.9425(2) 0.7822(2) 0.0267(5)
O11_5 O 0.8121(4) 0.7512(4) 0.7364(5)
N1_5 N 0.7599(6) 0.6801(5) 0.5869(8)
C20_5 C 0.8132(7) 0.7060(6) 0.6670(9)
C21_5 C 0.8761(7) 0.6853(7) 0.6650(11)
H13_5 H 0.8703 0.6500 0.6076
H14_5 H 0.9024 0.6692 0.7422
H15_5 H 0.8966 0.7231 0.6439
C22_3 C 0.7566(8) 0.6310(6) 0.4946(12)
H16_3 H 0.7125 0.6210 0.4493
H17_5 H 0.7783 0.5905 0.5309
H18_3 H 0.7768 0.6493 0.4430
C23_5 C 0.6986(8) 0.7004(8) 0.5900(13)
H19_5 H 0.6650 0.6780 0.5278
H20_5 H 0.6937 0.7483 0.5788
H21_5 H 0.6961 0.6886 0.6656
O14_3 O 0.8997(2) 0.6892(3) 0.9463(5)
O17_3 O 0.8542(3) 0.8769(3) 0.8588(5)
O1_6 O 0.1475(2) 0.7426(3) 0.3718(4)
O5_6 O 0.0934(2) 0.5428(3) 0.0067(5)
O11_6 O 0.1879(4) 0.7512(4) 0.7636(5)
N1_6 N 0.2401(6) 0.6801(5) 0.9131(8)
C1_6 C 0.1642(3) 0.7054(3) 0.3074(6)
C2_6 C 0.1133(3) 0.6814(3) 0.1986(6)
C3_6 C 0.0551(3) 0.7126(3) 0.1555(6)
H1_6 H 0.0470 0.7504 0.1937
C4_6 C 0.0087(3) 0.6879(4) 0.0556(6)
C5_6 C 0.0193(3) 0.6302(3) 0.0026(6)
C6_6 C 0.0772(3) 0.5992(3) 0.0479(6)
C7_6 C 0.1245(3) 0.6257(4) 0.1435(6)
H3_6 H 0.1647 0.6055 0.1715
C20_6 C 0.1868(7) 0.7060(6) 0.8330(9)
C21_6 C 0.1239(7) 0.6853(7) 0.8350(11)
H13_6 H 0.1297 0.6500 0.8924
H14_6 H 0.0976 0.6692 0.7578
H15_6 H 0.1034 0.7231 0.8561
H17_6 H 0.2217 0.5905 0.9691
C23_6 C 0.3014(8) 0.7004(8) 0.9100(13)
H19_6 H 0.3350 0.6780 0.9722
H20_6 H 0.3063 0.7483 0.9212
H21_6 H 0.3039 0.6886 0.8344
O15_3 O 0.2339(2) 0.6829(2) 0.5856(5)
O17_4 O 0.1458(3) 0.8769(3) 0.6412(5)
O6_6 O 0.1550(2) 0.5137(3) 0.7973(5)
O9_6 O 0.4161(3) 0.4480(4) 0.8164(8)
O10_4 O 0.3542(3) 0.3769(3) 0.8588(5)
C9_6 C 0.0542(3) 0.5183(4) 0.8953(6)
H4_6 H 0.0119 0.5073 0.8955
H5_6 H 0.0497 0.5517 0.8341
C10_6 C 0.0860(3) 0.4576(3) 0.8733(6)
H6_6 H 0.0617 0.4413 0.7940
H7_6 H 0.0844 0.4230 0.9290
C11_6 C 0.1532(3) 0.4665(4) 0.8835(6)
H8_6 H 0.1709 0.4238 0.8705
H9_6 H 0.1786 0.4825 0.9623
C12_6 C 0.2095(3) 0.5189(4) 0.7737(6)
C13_6 C 0.2128(3) 0.5704(4) 0.7024(6)
H10_6 H 0.1789 0.6007 0.6748
C14_6 C 0.2644(3) 0.5780(3) 0.6710(6)
C15_6 C 0.3133(3) 0.5326(4) 0.7094(7)
H11_6 H 0.3485 0.5367 0.6856
C16_6 C 0.3108(4) 0.4809(4) 0.7825(7)
C17_6 C 0.2592(3) 0.4738(4) 0.8152(7)
H12_6 H 0.2573 0.4388 0.8651
C18_6 C 0.3634(4) 0.4312(4) 0.8217(8)
C19_6 C 0.2695(3) 0.6345(3) 0.5965(6)
C8_6 C 0.9469(3) 0.7215(3) 0.0074(6)
H2_6 H 0.9871 0.6125 0.9364
O1_7 O 0.3525(2) 0.2426(3) 0.1282(4)
O3_4 O 0.5575(2) 0.2822(2) 0.4733(5)
O4_4 O 0.6003(2) 0.1892(3) 0.5537(5)
O5_7 O 0.4066(2) 0.0428(3) 0.4933(5)
O6_7 O 0.3450(2) 0.0137(3) 0.7027(5)
O7_4 O 0.2661(2) 0.1829(2) 0.9144(5)
C1_7 C 0.3358(3) 0.2054(3) 0.1926(6)
C2_7 C 0.3867(3) 0.1814(3) 0.3014(6)
C3_7 C 0.4449(3) 0.2126(3) 0.3445(6)
H1_7 H 0.4530 0.2504 0.3063
C4_7 C 0.4913(3) 0.1879(4) 0.4444(6)
C5_7 C 0.4807(3) 0.1302(3) 0.4974(6)
H2_7 H 0.5129 0.1125 0.5636
C6_7 C 0.4228(3) 0.0992(3) 0.4521(6)
C7_7 C 0.3755(3) 0.1257(4) 0.3565(6)
H3_7 H 0.3353 0.1055 0.3285
C8_7 C 0.5531(3) 0.2215(3) 0.4926(6)
C9_7 C 0.4458(3) 0.0183(4) 0.6047(6)
H4_7 H 0.4881 0.0073 0.6045
H5_7 H 0.4503 0.0517 0.6659
C12_7 C 0.2905(3) 0.0189(4) 0.7263(6)
C13_7 C 0.2872(3) 0.0704(4) 0.7976(6)
H10_7 H 0.3211 0.1007 0.8252
C14_7 C 0.2356(3) 0.0780(3) 0.8290(6)
C15_7 C 0.1867(3) 0.0326(4) 0.7906(7)
H11_7 H 0.1515 0.0367 0.8144
C19_7 C 0.2305(3) 0.1345(3) 0.9035(6)
O13_4 O 0.4425(2) 0.2822(2) 0.0267(5)
O11_7 O 0.3121(4) 0.2512(4) 0.7364(5)
N1_7 N 0.2599(6) 0.1801(5) 0.5869(8)
C20_7 C 0.3132(7) 0.2060(6) 0.6670(9)
C21_7 C 0.3761(7) 0.1853(7) 0.6650(11)
H13_7 H 0.3703 0.1500 0.6076
H14_7 H 0.4024 0.1692 0.7422
H15_7 H 0.3966 0.2231 0.6439
C22_4 C 0.2566(8) 0.1310(6) 0.4946(12)
H16_4 H 0.2125 0.1210 0.4493
H17_7 H 0.2783 0.0905 0.5309
H18_4 H 0.2768 0.1493 0.4430
C23_7 C 0.1986(8) 0.2004(8) 0.5900(13)
H19_7 H 0.1650 0.1780 0.5278
H20_7 H 0.1937 0.2483 0.5788
H21_7 H 0.1961 0.1886 0.6656
O14_4 O 0.3997(2) 0.1892(3) 0.9463(5)
O9_7 O 0.0839(3) 0.9480(4) 0.6836(8)
C10_7 C 0.4140(3) 0.9576(3) 0.6267(6)
H6_7 H 0.4383 0.9413 0.7060
H7_7 H 0.4156 0.9230 0.5710
C11_7 C 0.3468(3) 0.9665(4) 0.6165(6)
H8_7 H 0.3291 0.9238 0.6295
H9_7 H 0.3214 0.9825 0.5377
C16_7 C 0.1892(4) 0.9809(4) 0.7175(7)
C17_7 C 0.2408(3) 0.9738(4) 0.6848(7)
H12_7 H 0.2427 0.9388 0.6349
C18_7 C 0.1366(4) 0.9312(4) 0.6783(8)
O1_8 O 0.6475(2) 0.2426(3) 0.3718(4)
O5_8 O 0.5934(2) 0.0428(3) 0.0067(5)
O11_8 O 0.6879(4) 0.2512(4) 0.7636(5)
N1_8 N 0.7401(6) 0.1801(5) 0.9131(8)
C1_8 C 0.6642(3) 0.2054(3) 0.3074(6)
C2_8 C 0.6133(3) 0.1814(3) 0.1986(6)
C3_8 C 0.5551(3) 0.2126(3) 0.1555(6)
H1_8 H 0.5470 0.2504 0.1937
C4_8 C 0.5087(3) 0.1879(4) 0.0556(6)
C5_8 C 0.5193(3) 0.1302(3) 0.0026(6)
C6_8 C 0.5772(3) 0.0992(3) 0.0479(6)
C7_8 C 0.6245(3) 0.1257(4) 0.1435(6)
H3_8 H 0.6647 0.1055 0.1715
C8_8 C 0.4469(3) 0.2215(3) 0.0074(6)
C20_8 C 0.6868(7) 0.2060(6) 0.8330(9)
C21_8 C 0.6239(7) 0.1853(7) 0.8350(11)
H13_8 H 0.6297 0.1500 0.8924
H14_8 H 0.5976 0.1692 0.7578
H15_8 H 0.6034 0.2231 0.8561
H17_8 H 0.7217 0.0905 0.9691
C23_8 C 0.8014(8) 0.2004(8) 0.9100(13)
H19_8 H 0.8350 0.1780 0.9722
H20_8 H 0.8063 0.2483 0.9212
H21_8 H 0.8039 0.1886 0.8344
O15_4 O 0.7339(2) 0.1829(2) 0.5856(5)
O6_8 O 0.6550(2) 0.0137(3) 0.7973(5)
H2_8 H 0.4871 0.1125 0.9364
C9_8 C 0.5542(3) 0.0183(4) 0.8953(6)
H4_8 H 0.5119 0.0073 0.8955
H5_8 H 0.5497 0.0517 0.8341
C12_8 C 0.7095(3) 0.0189(4) 0.7737(6)
C13_8 C 0.7128(3) 0.0704(4) 0.7024(6)
H10_8 H 0.6789 0.1007 0.6748
C14_8 C 0.7644(3) 0.0780(3) 0.6710(6)
C15_8 C 0.8133(3) 0.0326(4) 0.7094(7)
H11_8 H 0.8485 0.0367 0.6856
C19_8 C 0.7695(3) 0.1345(3) 0.5965(6)
O9_8 O 0.9161(3) 0.9480(4) 0.8164(8)
C10_8 C 0.5860(3) 0.9576(3) 0.8733(6)
H6_8 H 0.5617 0.9413 0.7940
H7_8 H 0.5844 0.9230 0.9290
C11_8 C 0.6532(3) 0.9665(4) 0.8835(6)
H8_8 H 0.6709 0.9238 0.8705
H9_8 H 0.6786 0.9825 0.9623
C16_8 C 0.8108(4) 0.9809(4) 0.7825(7)
C17_8 C 0.7592(3) 0.9738(4) 0.8152(7)
H12_8 H 0.7573 0.9388 0.8651
C18_8 C 0.8634(4) 0.9312(4) 0.8217(8)
C22_5 C 0.7566(8) 0.3690(6) 0.9946(12)
H16_5 H 0.7125 0.3790 0.9493
H18_5 H 0.7768 0.3507 0.9430
C22_6 C 0.2566(8) 0.8690(6) 0.9946(12)
H16_6 H 0.2125 0.8790 0.9493
H18_6 H 0.2768 0.8507 0.9430
C22_7 C 0.2434(8) 0.6310(6) 0.0054(12)
H16_7 H 0.2875 0.6210 0.0507
H18_7 H 0.2232 0.6493 0.0570
C22_8 C 0.7434(8) 0.1310(6) 0.0054(12)
H16_8 H 0.7875 0.1210 0.0507
H18_8 H 0.7232 0.1493 0.0570
loop_
_geom_bond_atom_site_label_1
_geom_bond_atom_site_label_2
_geom_bond_site_symmetry_1
_geom_bond_site_symmetry_2
O11 Eu1 1_555 1_555
N1 C20 1_555 1_555
C20 O11 1_555 1_555
C21 C20 1_555 1_555
H13 C21 1_555 1_555
H14 C21 1_555 1_555
H15 C21 1_555 1_555
C22 N1 1_555 1_555
H16 C22 1_555 1_555
H17 C22 1_555 1_555
H18 C22 1_555 1_555
C23 N1 1_555 1_555
H19 C23 1_555 1_555
H20 C23 1_555 1_555
H21 C23 1_555 1_555
O12 Eu1 1_555 1_555
O14 Eu1 1_555 1_555
O15 Eu1 1_555 1_555
O17 Eu1 1_555 1_555
O1 C1 1_555 1_555
O2 C1 1_555 1_555
O5 C6 1_555 1_555
O6 C11 1_555 1_555
O15 C19 1_555 1_555
O8 C19 1_555 1_555
O9 C18 1_555 1_555
O10 C18 1_555 1_555
C1 C2 1_555 1_555
C2 C3 1_555 1_555
C3 H1 1_555 1_555
C4 C3 1_555 1_555
C5 C4 1_555 1_555
C6 C5 1_555 1_555
C7 C2 1_555 1_555
H3 C7 1_555 1_555
C9 O5 1_555 1_555
H4 C9 1_555 1_555
H5 C9 1_555 1_555
C10 C9 1_555 1_555
H6 C10 1_555 1_555
H7 C10 1_555 1_555
C11 C10 1_555 1_555
H8 C11 1_555 1_555
H9 C11 1_555 1_555
C12 O6 1_555 1_555
C13 C12 1_555 1_555
H10 C13 1_555 1_555
C14 C13 1_555 1_555
C15 C14 1_555 1_555
H11 C15 1_555 1_555
C16 C15 1_555 1_555
C17 C12 1_555 1_555
H12 C17 1_555 1_555
C18 C16 1_555 1_555
C19 C14 1_555 1_555
Eu4 O10 1_555 1_555
Eu6 O2 1_555 1_555
C6 C7 1_555 1_555
C16 C17 1_555 1_555
O3 C8 1_555 1_555
O4 C8 1_555 1_555
Eu3 O3 1_555 1_555
O4 Eu3 1_555 1_555
O13 C8_2 1_555 1_555
O6_2 C11_2 1_555 1_555
O7 C19_2 1_555 1_555
O8_2 C19_2 1_555 1_555
O9_2 C18_2 1_555 1_555
O10_2 C18_2 1_555 1_555
H4_2 C9_2 1_555 1_555
H5_2 C9_2 1_555 1_555
C10_2 C9_2 1_555 1_555
H6_2 C10_2 1_555 1_555
H7_2 C10_2 1_555 1_555
C11_2 C10_2 1_555 1_555
H8_2 C11_2 1_555 1_555
H9_2 C11_2 1_555 1_555
C12_2 O6_2 1_555 1_555
C13_2 C12_2 1_555 1_555
H10_2 C13_2 1_555 1_555
C14_2 C13_2 1_555 1_555
C15_2 C14_2 1_555 1_555
H11_2 C15_2 1_555 1_555
C16_2 C15_2 1_555 1_555
C17_2 C12_2 1_555 1_555
H12_2 C17_2 1_555 1_555
C18_2 C16_2 1_555 1_555
C19_2 C14_2 1_555 1_555
Eu3 O7 1_555 1_555
Eu4_2 O10_2 1_555 1_555
Eu5 O8_2 1_555 1_555
C16_2 C17_2 1_555 1_555
Eu3 O1_2 1_555 1_555
O1_2 C1_2 1_555 1_555
O2_2 C1_2 1_555 1_555
O5_2 C6_2 1_555 1_555
O11_2 Eu3 1_555 1_555
N1_2 C20_2 1_555 1_555
C1_2 C2_2 1_555 1_555
C2_2 C3_2 1_555 1_555
C3_2 H1_2 1_555 1_555
C4_2 C3_2 1_555 1_555
C5_2 C4_2 1_555 1_555
C6_2 C5_2 1_555 1_555
C7_2 C2_2 1_555 1_555
H3_2 C7_2 1_555 1_555
C20_2 O11_2 1_555 1_555
C21_2 C20_2 1_555 1_555
H13_2 C21_2 1_555 1_555
H14_2 C21_2 1_555 1_555
H15_2 C21_2 1_555 1_555
C23_2 N1_2 1_555 1_555
H19_2 C23_2 1_555 1_555
H20_2 C23_2 1_555 1_555
H21_2 C23_2 1_555 1_555
Eu5 O2_2 1_555 1_555
O12_2 Eu3 1_555 1_555
O16_2 Eu3 1_555 1_555
O17_2 Eu3 1_555 1_555
C6_2 C7_2 1_555 1_555
O9_3 C18_3 1_555 1_555
O17_2 C18_3 1_555 1_555
H6_3 C10_3 1_555 1_555
H7_3 C10_3 1_555 1_555
C11_3 C10_3 1_555 1_555
H8_3 C11_3 1_555 1_555
H9_3 C11_3 1_555 1_555
H12_3 C17_3 1_555 1_555
C18_3 C16_3 1_555 1_555
C16_3 C17_3 1_555 1_555
O11_3 Eu4_2 1_555 1_555
N1_3 C20_3 1_555 1_555
C20_3 O11_3 1_555 1_555
C21_3 C20_3 1_555 1_555
H13_3 C21_3 1_555 1_555
H14_3 C21_3 1_555 1_555
H15_3 C21_3 1_555 1_555
C22_2 N1_3 1_555 1_555
H16_2 C22_2 1_555 1_555
H17_3 C22_2 1_555 1_555
H18_2 C22_2 1_555 1_555
C23_3 N1_3 1_555 1_555
H19_3 C23_3 1_555 1_555
H20_3 C23_3 1_555 1_555
H21_3 C23_3 1_555 1_555
O12_3 Eu4_2 1_555 1_555
O14_2 Eu4_2 1_555 1_555
O15_2 Eu4_2 1_555 1_555
O1_3 C1_3 1_555 1_555
O2_3 C1_3 1_555 1_555
O3_2 C8_3 1_555 1_555
O4_2 C8_3 1_555 1_555
O5_3 C6_3 1_555 1_555
O15_2 C19_3 1_555 1_555
O8_3 C19_3 1_555 1_555
C1_3 C2_3 1_555 1_555
C2_3 C3_3 1_555 1_555
C3_3 H1_3 1_555 1_555
C4_3 C3_3 1_555 1_555
C5_3 C4_3 1_555 1_555
H2_3 C5_3 1_555 1_555
C6_3 C5_3 1_555 1_555
C7_3 C2_3 1_555 1_555
H3_3 C7_3 1_555 1_555
C8_3 C4_3 1_555 1_555
C9_3 O5_3 1_555 1_555
H4_3 C9_3 1_555 1_555
H5_3 C9_3 1_555 1_555
C12_3 O6_3 1_555 1_555
C13_3 C12_3 1_555 1_555
H10_3 C13_3 1_555 1_555
C14_3 C13_3 1_555 1_555
C15_3 C14_3 1_555 1_555
H11_3 C15_3 1_555 1_555
C19_3 C14_3 1_555 1_555
Eu4 O3_2 1_555 1_555
Eu6_2 O2_3 1_555 1_555
O4_2 Eu4 1_555 1_555
C6_3 C7_3 1_555 1_555
O9_4 C18_4 1_555 1_555
O17 C18_4 1_555 1_555
H6_4 C10_4 1_555 1_555
H7_4 C10_4 1_555 1_555
C11_4 C10_4 1_555 1_555
H8_4 C11_4 1_555 1_555
H9_4 C11_4 1_555 1_555
H12_4 C17_4 1_555 1_555
C18_4 C16_4 1_555 1_555
C16_4 C17_4 1_555 1_555
O7_2 C19_4 1_555 1_555
O8_4 C19_4 1_555 1_555
H4_4 C9_4 1_555 1_555
H5_4 C9_4 1_555 1_555
C12_4 O6_4 1_555 1_555
C13_4 C12_4 1_555 1_555
H10_4 C13_4 1_555 1_555
C14_4 C13_4 1_555 1_555
C15_4 C14_4 1_555 1_555
H11_4 C15_4 1_555 1_555
C19_4 C14_4 1_555 1_555
Eu4 O7_2 1_555 1_555
Eu5_2 O8_4 1_555 1_555
Eu4 O1_4 1_555 1_555
O1_4 C1_4 1_555 1_555
O2_4 C1_4 1_555 1_555
O13_2 C8_4 1_555 1_555
O5_4 C6_4 1_555 1_555
O11_4 Eu4 1_555 1_555
N1_4 C20_4 1_555 1_555
C1_4 C2_4 1_555 1_555
C2_4 C3_4 1_555 1_555
C3_4 H1_4 1_555 1_555
C4_4 C3_4 1_555 1_555
C5_4 C4_4 1_555 1_555
C6_4 C5_4 1_555 1_555
C7_4 C2_4 1_555 1_555
H3_4 C7_4 1_555 1_555
C8_4 C4_4 1_555 1_555
C20_4 O11_4 1_555 1_555
C21_4 C20_4 1_555 1_555
H13_4 C21_4 1_555 1_555
H14_4 C21_4 1_555 1_555
H15_4 C21_4 1_555 1_555
C23_4 N1_4 1_555 1_555
H19_4 C23_4 1_555 1_555
H20_4 C23_4 1_555 1_555
H21_4 C23_4 1_555 1_555
Eu5_2 O2_4 1_555 1_555
O12_4 Eu4 1_555 1_555
O16_4 Eu4 1_555 1_555
C6_4 C7_4 1_555 1_555
O3_3 C8_5 1_555 1_555
O4_3 C8_5 1_555 1_555
Eu5_2 O3_3 1_555 1_555
O4_3 Eu5_2 1_555 1_555
O1_5 C1_5 1_555 1_555
O12_3 C1_5 1_555 1_555
O5_5 C6_5 1_555 1_555
O6_5 C11_5 1_555 1_555
O7_3 C19_5 1_555 1_555
O16_3 C19_5 1_555 1_555
O9_5 C18_5 1_555 1_555
O10_3 C18_5 1_555 1_555
C1_5 C2_5 1_555 1_555
C2_5 C3_5 1_555 1_555
C3_5 H1_5 1_555 1_555
C4_5 C3_5 1_555 1_555
C5_5 C4_5 1_555 1_555
C6_5 C5_5 1_555 1_555
C7_5 C2_5 1_555 1_555
H3_5 C7_5 1_555 1_555
C9_5 O5_5 1_555 1_555
H4_5 C9_5 1_555 1_555
H5_5 C9_5 1_555 1_555
C10_5 C9_5 1_555 1_555
H6_5 C10_5 1_555 1_555
H7_5 C10_5 1_555 1_555
C11_5 C10_5 1_555 1_555
H8_5 C11_5 1_555 1_555
H9_5 C11_5 1_555 1_555
C12_5 O6_5 1_555 1_555
C13_5 C12_5 1_555 1_555
H10_5 C13_5 1_555 1_555
C14_5 C13_5 1_555 1_555
C15_5 C14_5 1_555 1_555
H11_5 C15_5 1_555 1_555
C16_5 C15_5 1_555 1_555
C17_5 C12_5 1_555 1_555
H12_5 C17_5 1_555 1_555
C18_5 C16_5 1_555 1_555
C19_5 C14_5 1_555 1_555
Eu6_2 O7_3 1_555 1_555
Eu5 O10_3 1_555 1_555
C6_5 C7_5 1_555 1_555
C16_5 C17_5 1_555 1_555
O11_5 Eu6_2 1_555 1_555
N1_5 C20_5 1_555 1_555
C20_5 O11_5 1_555 1_555
C21_5 C20_5 1_555 1_555
H13_5 C21_5 1_555 1_555
H14_5 C21_5 1_555 1_555
H15_5 C21_5 1_555 1_555
C22_3 N1_5 1_555 1_555
H16_3 C22_3 1_555 1_555
H17_5 C22_3 1_555 1_555
H18_3 C22_3 1_555 1_555
C23_5 N1_5 1_555 1_555
H19_5 C23_5 1_555 1_555
H20_5 C23_5 1_555 1_555
H21_5 C23_5 1_555 1_555
O14_3 Eu6_2 1_555 1_555
O17_3 Eu6_2 1_555 1_555
Eu5_2 O1_6 1_555 1_555
O1_6 C1_6 1_555 1_555
O12_4 C1_6 1_555 1_555
O5_6 C6_6 1_555 1_555
O11_6 Eu5_2 1_555 1_555
N1_6 C20_6 1_555 1_555
C1_6 C2_6 1_555 1_555
C2_6 C3_6 1_555 1_555
C3_6 H1_6 1_555 1_555
C4_6 C3_6 1_555 1_555
C5_6 C4_6 1_555 1_555
C6_6 C5_6 1_555 1_555
C7_6 C2_6 1_555 1_555
H3_6 C7_6 1_555 1_555
C20_6 O11_6 1_555 1_555
C21_6 C20_6 1_555 1_555
H13_6 C21_6 1_555 1_555
H14_6 C21_6 1_555 1_555
H15_6 C21_6 1_555 1_555
C23_6 N1_6 1_555 1_555
H19_6 C23_6 1_555 1_555
H20_6 C23_6 1_555 1_555
H21_6 C23_6 1_555 1_555
O15_3 Eu5_2 1_555 1_555
O17_4 Eu5_2 1_555 1_555
C6_6 C7_6 1_555 1_555
O6_6 C11_6 1_555 1_555
O15_3 C19_6 1_555 1_555
O16_4 C19_6 1_555 1_555
O9_6 C18_6 1_555 1_555
O10_4 C18_6 1_555 1_555
H4_6 C9_6 1_555 1_555
H5_6 C9_6 1_555 1_555
C10_6 C9_6 1_555 1_555
H6_6 C10_6 1_555 1_555
H7_6 C10_6 1_555 1_555
C11_6 C10_6 1_555 1_555
H8_6 C11_6 1_555 1_555
H9_6 C11_6 1_555 1_555
C12_6 O6_6 1_555 1_555
C13_6 C12_6 1_555 1_555
H10_6 C13_6 1_555 1_555
C14_6 C13_6 1_555 1_555
C15_6 C14_6 1_555 1_555
H11_6 C15_6 1_555 1_555
C16_6 C15_6 1_555 1_555
C17_6 C12_6 1_555 1_555
H12_6 C17_6 1_555 1_555
C18_6 C16_6 1_555 1_555
C19_6 C14_6 1_555 1_555
Eu6 O10_4 1_555 1_555
C16_6 C17_6 1_555 1_555
O13_3 C8_6 1_555 1_555
O1_7 C1_7 1_555 1_555
O12 C1_7 1_555 1_555
O3_4 C8_7 1_555 1_555
O4_4 C8_7 1_555 1_555
O5_7 C6_7 1_555 1_555
O7_4 C19_7 1_555 1_555
O16 C19_7 1_555 1_555
C1_7 C2_7 1_555 1_555
C2_7 C3_7 1_555 1_555
C3_7 H1_7 1_555 1_555
C4_7 C3_7 1_555 1_555
C5_7 C4_7 1_555 1_555
H2_7 C5_7 1_555 1_555
C6_7 C5_7 1_555 1_555
C7_7 C2_7 1_555 1_555
H3_7 C7_7 1_555 1_555
C8_7 C4_7 1_555 1_555
C9_7 O5_7 1_555 1_555
H4_7 C9_7 1_555 1_555
H5_7 C9_7 1_555 1_555
C12_7 O6_7 1_555 1_555
C13_7 C12_7 1_555 1_555
H10_7 C13_7 1_555 1_555
C14_7 C13_7 1_555 1_555
C15_7 C14_7 1_555 1_555
H11_7 C15_7 1_555 1_555
C19_7 C14_7 1_555 1_555
Eu6 O7_4 1_555 1_555
Eu5 O3_4 1_555 1_555
O4_4 Eu5 1_555 1_555
C6_7 C7_7 1_555 1_555
O11_7 Eu6 1_555 1_555
N1_7 C20_7 1_555 1_555
C20_7 O11_7 1_555 1_555
C21_7 C20_7 1_555 1_555
H13_7 C21_7 1_555 1_555
H14_7 C21_7 1_555 1_555
H15_7 C21_7 1_555 1_555
C22_4 N1_7 1_555 1_555
H16_4 C22_4 1_555 1_555
H17_7 C22_4 1_555 1_555
H18_4 C22_4 1_555 1_555
C23_7 N1_7 1_555 1_555
H19_7 C23_7 1_555 1_555
H20_7 C23_7 1_555 1_555
H21_7 C23_7 1_555 1_555
O14_4 Eu6 1_555 1_555
O9_7 C18_7 1_555 1_555
O17_4 C18_7 1_555 1_555
H6_7 C10_7 1_555 1_555
H7_7 C10_7 1_555 1_555
C11_7 C10_7 1_555 1_555
H8_7 C11_7 1_555 1_555
H9_7 C11_7 1_555 1_555
H12_7 C17_7 1_555 1_555
C18_7 C16_7 1_555 1_555
C16_7 C17_7 1_555 1_555
Eu5 O1_8 1_555 1_555
O1_8 C1_8 1_555 1_555
O12_2 C1_8 1_555 1_555
O13_4 C8_8 1_555 1_555
O5_8 C6_8 1_555 1_555
O11_8 Eu5 1_555 1_555
N1_8 C20_8 1_555 1_555
C1_8 C2_8 1_555 1_555
C2_8 C3_8 1_555 1_555
C3_8 H1_8 1_555 1_555
C4_8 C3_8 1_555 1_555
C5_8 C4_8 1_555 1_555
C6_8 C5_8 1_555 1_555
C7_8 C2_8 1_555 1_555
H3_8 C7_8 1_555 1_555
C8_8 C4_8 1_555 1_555
C20_8 O11_8 1_555 1_555
C21_8 C20_8 1_555 1_555
H13_8 C21_8 1_555 1_555
H14_8 C21_8 1_555 1_555
H15_8 C21_8 1_555 1_555
C23_8 N1_8 1_555 1_555
H19_8 C23_8 1_555 1_555
H20_8 C23_8 1_555 1_555
H21_8 C23_8 1_555 1_555
O15_4 Eu5 1_555 1_555
C6_8 C7_8 1_555 1_555
O15_4 C19_8 1_555 1_555
O16_2 C19_8 1_555 1_555
H4_8 C9_8 1_555 1_555
H5_8 C9_8 1_555 1_555
C12_8 O6_8 1_555 1_555
C13_8 C12_8 1_555 1_555
H10_8 C13_8 1_555 1_555
C14_8 C13_8 1_555 1_555
C15_8 C14_8 1_555 1_555
H11_8 C15_8 1_555 1_555
C19_8 C14_8 1_555 1_555
O9_8 C18_8 1_555 1_555
O17_3 C18_8 1_555 1_555
H6_8 C10_8 1_555 1_555
H7_8 C10_8 1_555 1_555
C11_8 C10_8 1_555 1_555
H8_8 C11_8 1_555 1_555
H9_8 C11_8 1_555 1_555
H12_8 C17_8 1_555 1_555
C18_8 C16_8 1_555 1_555
C16_8 C17_8 1_555 1_555
H16_5 C22_5 1_555 1_555
H18_5 C22_5 1_555 1_555
H16_6 C22_6 1_555 1_555
H18_6 C22_6 1_555 1_555
H16_7 C22_7 1_555 1_555
H18_7 C22_7 1_555 1_555
H16_8 C22_8 1_555 1_555
H18_8 C22_8 1_555 1_555

#END
