
###############################################################################
#
# This file contains modified crystal structure data generated from the
# MOF subset of the Cambridge Structural Database (CSD) v543 
# hosted by the Cambridge Crystallographic Data Centre (CCDC).
#
# This work is licensed under the Creative Commons
# Attribution-NonCommercial-ShareAlike 4.0 International License.
# To view a copy of this license, visit
# http://creativecommons.org/licenses/by-nc-sa/4.0/
# or send a letter to
# Creative Commons, PO Box 1866, Mountain View, CA 94042, USA.
#
# CIF created using the CSD Python API on 29 September 2022
# The structure has been converted into the P1 space group
# The structure has a 3D framework
# The original CSD entry JIFGOX is in the monoclinic crystal system
# The framework has been calculated to contain at least 10.0% void space
# The void calculation uses a probe of radius 1.32A, grid spacing 0.4
#
###############################################################################

data_JIFGOX
_chemical_formula_moiety         '(C144 H88 Cd8 N40 O48)n'
_symmetry_cell_setting           triclinic
_symmetry_space_group_name_H-M   'P 1'
_symmetry_Int_Tables_number      1
_space_group_name_Hall           'P 1'
loop_
_symmetry_equiv_pos_site_id
_symmetry_equiv_pos_as_xyz
1 x,y,z
_cell_length_a                   17.720(4)
_cell_length_b                   13.980(3)
_cell_length_c                   20.677(4)
_cell_angle_alpha                90
_cell_angle_beta                 117.99(3)
_cell_angle_gamma                90
_cell_volume                     4523.07
loop_
_atom_site_label
_atom_site_type_symbol
_atom_site_fract_x
_atom_site_fract_y
_atom_site_fract_z
Cd1 Cd 0.26336(3) 0.15158(3) 0.44170(2)
O1 O 0.2697(3) 0.1863(3) 0.5660(2)
O3 O 0.3006(3) 0.0463(3) 0.5383(2)
N1 N 0.6214(3) 0.6204(3) 0.4053(2)
N2 N 0.4025(3) 0.1944(3) 0.4795(3)
C1 C 0.2826(3) 0.0573(4) 0.6439(3)
C2 C 0.2822(4) 0.1131(4) 0.6979(3)
H1 H 0.2827 0.1793 0.6938
C4 C 0.5970(4) 0.5410(4) 0.4277(3)
H2 H 0.6381 0.4978 0.4584
N4 N 0.4822(3) 0.4391(4) 0.4261(3)
C8 C 0.2854(3) 0.0992(4) 0.5793(3)
C9 C 0.4254(4) 0.2764(4) 0.4598(3)
H4 H 0.3841 0.3228 0.4355
C10 C 0.2811(4) 0.0734(4) 0.7583(3)
H5 H 0.2830 0.1125 0.7955
C11 C 0.4630(4) 0.1288(4) 0.5150(3)
H6 H 0.4476 0.0720 0.5290
C12 C 0.5115(4) 0.5233(4) 0.4055(3)
C13 C 0.5614(4) 0.6807(4) 0.3603(3)
H7 H 0.5778 0.7345 0.3436
N5 N 0.5370(4) 0.3797(4) 0.4549(3)
C14 C 0.5472(4) 0.1417(4) 0.5315(4)
H8 H 0.5876 0.0946 0.5563
C15 C 0.4766(4) 0.6658(5) 0.3379(4)
H9 H 0.4361 0.7090 0.3064
C16 C 0.5705(4) 0.2258(4) 0.5107(4)
H10 H 0.6268 0.2365 0.5209
C17 C 0.4517(4) 0.5874(5) 0.3619(4)
H11 H 0.3944 0.5778 0.3486
C18 C 0.5086(4) 0.2934(4) 0.4748(4)
Cd2 Cd 0.76336(3) 0.65158(3) 0.44170(2)
Cd4 Cd 0.23664(3) 0.34842(3) 0.55830(2)
O7 O 0.2303(3) 0.3137(3) 0.4340(2)
O8 O 0.2970(3) 0.0218(3) 0.3853(2)
O9 O 0.2328(3) 0.1479(3) 0.3176(2)
N6 N 0.1214(3) 0.1204(3) 0.4053(2)
O2 O 0.2970(3) 0.9782(3) 0.8853(2)
O4 O 0.2328(3) 0.8521(3) 0.8176(2)
O5 O 0.3384(3) 0.7771(3) 0.7642(3)
O6 O 0.2181(4) 0.7744(4) 0.6646(3)
N3 N 0.2780(4) 0.8153(4) 0.7127(3)
C3 C 0.2688(4) 0.9328(4) 0.8270(3)
C5 C 0.2770(3) 0.9737(4) 0.7636(3)
C6 C 0.2805(3) 0.9586(4) 0.6499(3)
H3 H 0.2805 0.9193 0.6136
C7 C 0.2783(4) 0.9200(4) 0.7094(3)
Cd3 Cd 0.26336(3) 0.84842(3) 0.94170(2)
Cd1_2 Cd 0.73664(3) 0.15158(3) 0.05830(2)
N1_2 N 0.3786(3) 0.6204(3) 0.0947(2)
N2_2 N 0.5975(3) 0.1944(3) 0.0205(3)
C4_2 C 0.4030(4) 0.5410(4) 0.0723(3)
H2_2 H 0.3619 0.4978 0.0416
N4_2 N 0.5178(3) 0.4391(4) 0.0739(3)
C9_2 C 0.5746(4) 0.2764(4) 0.0402(3)
H4_2 H 0.6159 0.3228 0.0645
C12_2 C 0.4885(4) 0.5233(4) 0.0945(3)
C13_2 C 0.4386(4) 0.6807(4) 0.1397(3)
H7_2 H 0.4222 0.7345 0.1564
N5_2 N 0.4630(4) 0.3797(4) 0.0451(3)
C15_2 C 0.5234(4) 0.6658(5) 0.1621(4)
H9_2 H 0.5639 0.7090 0.1936
C17_2 C 0.5483(4) 0.5874(5) 0.1381(4)
H11_2 H 0.6056 0.5778 0.1514
C18_2 C 0.4914(4) 0.2934(4) 0.0252(4)
Cd2_2 Cd 0.23664(3) 0.65158(3) 0.05830(2)
O7_2 O 0.7697(3) 0.3137(3) 0.0660(2)
O8_2 O 0.7030(3) 0.0218(3) 0.1147(2)
O9_2 O 0.7672(3) 0.1479(3) 0.1824(2)
N6_2 N 0.8786(3) 0.1204(3) 0.0947(2)
O1_2 O 0.7303(3) 0.1863(3) 0.9340(2)
O3_2 O 0.6994(3) 0.0463(3) 0.9617(2)
C1_2 C 0.7174(3) 0.0573(4) 0.8561(3)
C2_2 C 0.7178(4) 0.1131(4) 0.8021(3)
H1_2 H 0.7173 0.1793 0.8062
C8_2 C 0.7146(3) 0.0992(4) 0.9207(3)
C10_2 C 0.7189(4) 0.0734(4) 0.7417(3)
H5_2 H 0.7170 0.1125 0.7045
C11_2 C 0.5370(4) 0.1288(4) 0.9850(3)
H6_2 H 0.5524 0.0720 0.9710
C14_2 C 0.4528(4) 0.1417(4) 0.9685(4)
H8_2 H 0.4124 0.0946 0.9437
C16_2 C 0.4295(4) 0.2258(4) 0.9893(4)
H10_2 H 0.3732 0.2365 0.9791
Cd4_2 Cd 0.76336(3) 0.34842(3) 0.94170(2)
O2_2 O 0.7030(3) 0.9782(3) 0.6147(2)
O4_2 O 0.7672(3) 0.8521(3) 0.6824(2)
O5_2 O 0.6616(3) 0.7771(3) 0.7358(3)
O6_2 O 0.7819(4) 0.7744(4) 0.8354(3)
N3_2 N 0.7220(4) 0.8153(4) 0.7873(3)
C3_2 C 0.7312(4) 0.9328(4) 0.6730(3)
C5_2 C 0.7230(3) 0.9737(4) 0.7364(3)
C6_2 C 0.7195(3) 0.9586(4) 0.8501(3)
H3_2 H 0.7195 0.9193 0.8864
C7_2 C 0.7217(4) 0.9200(4) 0.7906(3)
Cd3_2 Cd 0.73664(3) 0.84842(3) 0.55830(2)
C4_3 C 0.0970(4) 0.0410(4) 0.4277(3)
C12_3 C 0.0115(4) 0.0233(4) 0.4055(3)
C13_3 C 0.0614(4) 0.1807(4) 0.3603(3)
H7_3 H 0.0778 0.2345 0.3436
O1_3 O 0.7697(3) 0.6863(3) 0.5660(2)
O2_3 O 0.7970(3) 0.4782(3) 0.8853(2)
O3_3 O 0.8006(3) 0.5463(3) 0.5383(2)
O4_3 O 0.7328(3) 0.3521(3) 0.8176(2)
N2_3 N 0.9025(3) 0.6944(3) 0.4795(3)
O5_3 O 0.8384(3) 0.2771(3) 0.7642(3)
C1_3 C 0.7826(3) 0.5573(4) 0.6439(3)
O6_3 O 0.7181(4) 0.2744(4) 0.6646(3)
N3_3 N 0.7780(4) 0.3153(4) 0.7127(3)
C2_3 C 0.7822(4) 0.6131(4) 0.6979(3)
H1_3 H 0.7827 0.6793 0.6938
C3_3 C 0.7688(4) 0.4328(4) 0.8270(3)
N4_3 N 0.9822(3) 0.9391(4) 0.4261(3)
C5_3 C 0.7770(3) 0.4737(4) 0.7636(3)
C6_3 C 0.7805(3) 0.4586(4) 0.6499(3)
H3_3 H 0.7805 0.4193 0.6136
C7_3 C 0.7783(4) 0.4200(4) 0.7094(3)
C8_3 C 0.7854(3) 0.5992(4) 0.5793(3)
C9_3 C 0.9254(4) 0.7764(4) 0.4598(3)
H4_3 H 0.8841 0.8228 0.4355
C10_3 C 0.7811(4) 0.5734(4) 0.7583(3)
H5_3 H 0.7830 0.6125 0.7955
C11_3 C 0.9630(4) 0.6288(4) 0.5150(3)
H6_3 H 0.9476 0.5720 0.5290
O7_3 O 0.7303(3) 0.8137(3) 0.4340(2)
O8_3 O 0.7970(3) 0.5218(3) 0.3853(2)
O9_3 O 0.7328(3) 0.6479(3) 0.3176(2)
N2_4 N 0.0975(3) 0.6944(3) 0.0205(3)
N4_4 N 0.0178(3) 0.9391(4) 0.0739(3)
C9_4 C 0.0746(4) 0.7764(4) 0.0402(3)
H4_4 H 0.1159 0.8228 0.0645
O7_4 O 0.2697(3) 0.8137(3) 0.0660(2)
O8_4 O 0.2030(3) 0.5218(3) 0.1147(2)
O9_4 O 0.2672(3) 0.6479(3) 0.1824(2)
O1_4 O 0.2303(3) 0.6863(3) 0.9340(2)
O2_4 O 0.2030(3) 0.4782(3) 0.6147(2)
O3_4 O 0.1994(3) 0.5463(3) 0.9617(2)
O4_4 O 0.2672(3) 0.3521(3) 0.6824(2)
O5_4 O 0.1616(3) 0.2771(3) 0.7358(3)
C1_4 C 0.2174(3) 0.5573(4) 0.8561(3)
O6_4 O 0.2819(4) 0.2744(4) 0.8354(3)
N3_4 N 0.2220(4) 0.3153(4) 0.7873(3)
C2_4 C 0.2178(4) 0.6131(4) 0.8021(3)
H1_4 H 0.2173 0.6793 0.8062
C3_4 C 0.2312(4) 0.4328(4) 0.6730(3)
C5_4 C 0.2230(3) 0.4737(4) 0.7364(3)
C6_4 C 0.2195(3) 0.4586(4) 0.8501(3)
H3_4 H 0.2195 0.4193 0.8864
C7_4 C 0.2217(4) 0.4200(4) 0.7906(3)
C8_4 C 0.2146(3) 0.5992(4) 0.9207(3)
C10_4 C 0.2189(4) 0.5734(4) 0.7417(3)
H5_4 H 0.2170 0.6125 0.7045
C11_4 C 0.0370(4) 0.6288(4) 0.9850(3)
H6_4 H 0.0524 0.5720 0.9710
C4_4 C 0.9030(4) 0.0410(4) 0.0723(3)
C12_4 C 0.9885(4) 0.0233(4) 0.0945(3)
C13_4 C 0.9386(4) 0.1807(4) 0.1397(3)
H7_4 H 0.9222 0.2345 0.1564
O5_5 O 0.6616(3) 0.2229(3) 0.2358(3)
O6_5 O 0.7819(4) 0.2256(4) 0.3354(3)
N3_5 N 0.7220(4) 0.1847(4) 0.2873(3)
C3_5 C 0.7312(4) 0.0672(4) 0.1730(3)
C5_5 C 0.7230(3) 0.0263(4) 0.2364(3)
C6_5 C 0.7195(3) 0.0414(4) 0.3501(3)
H3_5 H 0.7195 0.0807 0.3864
C7_5 C 0.7217(4) 0.0800(4) 0.2906(3)
O3_5 O 0.6994(3) 0.9537(3) 0.4617(2)
N1_3 N 0.3786(3) 0.3796(3) 0.5947(2)
N2_5 N 0.5975(3) 0.8056(3) 0.5205(3)
C1_5 C 0.7174(3) 0.9427(4) 0.3561(3)
C2_5 C 0.7178(4) 0.8869(4) 0.3021(3)
H1_5 H 0.7173 0.8207 0.3062
C4_5 C 0.4030(4) 0.4590(4) 0.5723(3)
H2_3 H 0.3619 0.5022 0.5416
N4_5 N 0.5178(3) 0.5609(4) 0.5739(3)
C8_5 C 0.7146(3) 0.9008(4) 0.4207(3)
C9_5 C 0.5746(4) 0.7236(4) 0.5402(3)
H4_5 H 0.6159 0.6772 0.5645
C10_5 C 0.7189(4) 0.9266(4) 0.2417(3)
H5_5 H 0.7170 0.8875 0.2045
C11_5 C 0.5370(4) 0.8712(4) 0.4850(3)
H6_5 H 0.5524 0.9280 0.4710
C12_5 C 0.4885(4) 0.4767(4) 0.5945(3)
C13_5 C 0.4386(4) 0.3193(4) 0.6397(3)
H7_5 H 0.4222 0.2655 0.6564
N5_3 N 0.4630(4) 0.6203(4) 0.5451(3)
C14_3 C 0.4528(4) 0.8583(4) 0.4685(4)
H8_3 H 0.4124 0.9054 0.4437
C15_3 C 0.5234(4) 0.3342(5) 0.6621(4)
H9_3 H 0.5639 0.2910 0.6936
C16_3 C 0.4295(4) 0.7742(4) 0.4893(4)
H10_3 H 0.3732 0.7635 0.4791
C17_3 C 0.5483(4) 0.4126(5) 0.6381(4)
H11_3 H 0.6056 0.4222 0.6514
C18_3 C 0.4914(4) 0.7066(4) 0.5252(4)
N6_3 N 0.8786(3) 0.8796(3) 0.5947(2)
O5_6 O 0.3384(3) 0.2229(3) 0.2642(3)
O6_6 O 0.2181(4) 0.2256(4) 0.1646(3)
N3_6 N 0.2780(4) 0.1847(4) 0.2127(3)
C3_6 C 0.2688(4) 0.0672(4) 0.3270(3)
C5_6 C 0.2770(3) 0.0263(4) 0.2636(3)
C6_6 C 0.2805(3) 0.0414(4) 0.1499(3)
H3_6 H 0.2805 0.0807 0.1136
C7_6 C 0.2783(4) 0.0800(4) 0.2094(3)
O3_6 O 0.3006(3) 0.9537(3) 0.0383(2)
C1_6 C 0.2826(3) 0.9427(4) 0.1439(3)
C2_6 C 0.2822(4) 0.8869(4) 0.1979(3)
H1_6 H 0.2827 0.8207 0.1938
C8_6 C 0.2854(3) 0.9008(4) 0.0793(3)
C10_6 C 0.2811(4) 0.9266(4) 0.2583(3)
H5_6 H 0.2830 0.8875 0.2955
C11_6 C 0.4630(4) 0.8712(4) 0.0150(3)
H6_6 H 0.4476 0.9280 0.0290
C14_4 C 0.5472(4) 0.8583(4) 0.0315(4)
H8_4 H 0.5876 0.9054 0.0563
C16_4 C 0.5705(4) 0.7742(4) 0.0107(4)
H10_4 H 0.6268 0.7635 0.0209
N1_4 N 0.6214(3) 0.3796(3) 0.9053(2)
N2_6 N 0.4025(3) 0.8056(3) 0.9795(3)
C4_6 C 0.5970(4) 0.4590(4) 0.9277(3)
H2_4 H 0.6381 0.5022 0.9584
N4_6 N 0.4822(3) 0.5609(4) 0.9261(3)
C9_6 C 0.4254(4) 0.7236(4) 0.9598(3)
H4_6 H 0.3841 0.6772 0.9355
C12_6 C 0.5115(4) 0.4767(4) 0.9055(3)
C13_6 C 0.5614(4) 0.3193(4) 0.8603(3)
H7_6 H 0.5778 0.2655 0.8436
N5_4 N 0.5370(4) 0.6203(4) 0.9549(3)
C15_4 C 0.4766(4) 0.3342(5) 0.8379(4)
H9_4 H 0.4361 0.2910 0.8064
C17_4 C 0.4517(4) 0.4126(5) 0.8619(4)
H11_4 H 0.3944 0.4222 0.8486
C18_4 C 0.5086(4) 0.7066(4) 0.9748(4)
N6_4 N 0.1214(3) 0.8796(3) 0.9053(2)
O3_7 O 0.1994(3) 0.4537(3) 0.4617(2)
N2_7 N 0.0975(3) 0.3056(3) 0.5205(3)
O5_7 O 0.1616(3) 0.7229(3) 0.2358(3)
C1_7 C 0.2174(3) 0.4427(4) 0.3561(3)
O6_7 O 0.2819(4) 0.7256(4) 0.3354(3)
N3_7 N 0.2220(4) 0.6847(4) 0.2873(3)
C2_7 C 0.2178(4) 0.3869(4) 0.3021(3)
H1_7 H 0.2173 0.3207 0.3062
C3_7 C 0.2312(4) 0.5672(4) 0.1730(3)
N4_7 N 0.0178(3) 0.0609(4) 0.5739(3)
C5_7 C 0.2230(3) 0.5263(4) 0.2364(3)
C6_7 C 0.2195(3) 0.5414(4) 0.3501(3)
H3_7 H 0.2195 0.5807 0.3864
C7_7 C 0.2217(4) 0.5800(4) 0.2906(3)
C8_7 C 0.2146(3) 0.4008(4) 0.4207(3)
C9_7 C 0.0746(4) 0.2236(4) 0.5402(3)
H4_7 H 0.1159 0.1772 0.5645
C10_7 C 0.2189(4) 0.4266(4) 0.2417(3)
H5_7 H 0.2170 0.3875 0.2045
C11_7 C 0.0370(4) 0.3712(4) 0.4850(3)
H6_7 H 0.0524 0.4280 0.4710
C4_7 C 0.9030(4) 0.9590(4) 0.5723(3)
C12_7 C 0.9885(4) 0.9767(4) 0.5945(3)
C13_7 C 0.9386(4) 0.8193(4) 0.6397(3)
H7_7 H 0.9222 0.7655 0.6564
C4_8 C 0.0970(4) 0.9590(4) 0.9277(3)
C12_8 C 0.0115(4) 0.9767(4) 0.9055(3)
C13_8 C 0.0614(4) 0.8193(4) 0.8603(3)
H7_8 H 0.0778 0.7655 0.8436
O3_8 O 0.8006(3) 0.4537(3) 0.0383(2)
O5_8 O 0.8384(3) 0.7229(3) 0.2642(3)
C1_8 C 0.7826(3) 0.4427(4) 0.1439(3)
O6_8 O 0.7181(4) 0.7256(4) 0.1646(3)
N3_8 N 0.7780(4) 0.6847(4) 0.2127(3)
C2_8 C 0.7822(4) 0.3869(4) 0.1979(3)
H1_8 H 0.7827 0.3207 0.1938
C3_8 C 0.7688(4) 0.5672(4) 0.3270(3)
C5_8 C 0.7770(3) 0.5263(4) 0.2636(3)
C6_8 C 0.7805(3) 0.5414(4) 0.1499(3)
H3_8 H 0.7805 0.5807 0.1136
C7_8 C 0.7783(4) 0.5800(4) 0.2094(3)
C8_8 C 0.7854(3) 0.4008(4) 0.0793(3)
C10_8 C 0.7811(4) 0.4266(4) 0.2583(3)
H5_8 H 0.7830 0.3875 0.2955
C11_8 C 0.9630(4) 0.3712(4) 0.0150(3)
H6_8 H 0.9476 0.4280 0.0290
N2_8 N 0.9025(3) 0.3056(3) 0.9795(3)
N4_8 N 0.9822(3) 0.0609(4) 0.9261(3)
C9_8 C 0.9254(4) 0.2236(4) 0.9598(3)
H4_8 H 0.8841 0.1772 0.9355
H2_5 H 0.1381 0.9978 0.4584
N5_5 N 0.0370(4) 0.8797(4) 0.4549(3)
C14_5 C 0.0472(4) 0.6417(4) 0.5315(4)
H8_5 H 0.0876 0.5946 0.5563
C16_5 C 0.0705(4) 0.7258(4) 0.5107(4)
H10_5 H 0.1268 0.7365 0.5209
C18_5 C 0.0086(4) 0.7934(4) 0.4748(4)
C15_5 C 0.9766(4) 0.1658(5) 0.3379(4)
H9_5 H 0.9361 0.2090 0.3064
C17_5 C 0.9517(4) 0.0874(5) 0.3619(4)
H11_5 H 0.8944 0.0778 0.3486
C15_6 C 0.0234(4) 0.1658(5) 0.1621(4)
H9_6 H 0.0639 0.2090 0.1936
C17_6 C 0.0483(4) 0.0874(5) 0.1381(4)
H11_6 H 0.1056 0.0778 0.1514
H2_6 H 0.8619 0.9978 0.0416
N5_6 N 0.9630(4) 0.8797(4) 0.0451(3)
C18_6 C 0.9914(4) 0.7934(4) 0.0252(4)
C14_6 C 0.9528(4) 0.6417(4) 0.9685(4)
H8_6 H 0.9124 0.5946 0.9437
C16_6 C 0.9295(4) 0.7258(4) 0.9893(4)
H10_6 H 0.8732 0.7365 0.9791
C15_7 C 0.0234(4) 0.8342(5) 0.6621(4)
H9_7 H 0.0639 0.7910 0.6936
C17_7 C 0.0483(4) 0.9126(5) 0.6381(4)
H11_7 H 0.1056 0.9222 0.6514
H2_7 H 0.8619 0.0022 0.5416
N5_7 N 0.9630(4) 0.1203(4) 0.5451(3)
C14_7 C 0.9528(4) 0.3583(4) 0.4685(4)
H8_7 H 0.9124 0.4054 0.4437
C16_7 C 0.9295(4) 0.2742(4) 0.4893(4)
H10_7 H 0.8732 0.2635 0.4791
C18_7 C 0.9914(4) 0.2066(4) 0.5252(4)
C14_8 C 0.0472(4) 0.3583(4) 0.0315(4)
H8_8 H 0.0876 0.4054 0.0563
C16_8 C 0.0705(4) 0.2742(4) 0.0107(4)
H10_8 H 0.1268 0.2635 0.0209
H2_8 H 0.1381 0.0022 0.9584
N5_8 N 0.0370(4) 0.1203(4) 0.9549(3)
C18_8 C 0.0086(4) 0.2066(4) 0.9748(4)
C15_8 C 0.9766(4) 0.8342(5) 0.8379(4)
H9_8 H 0.9361 0.7910 0.8064
C17_8 C 0.9517(4) 0.9126(5) 0.8619(4)
H11_8 H 0.8944 0.9222 0.8486
loop_
_geom_bond_atom_site_label_1
_geom_bond_atom_site_label_2
_geom_bond_site_symmetry_1
_geom_bond_site_symmetry_2
Cd1 O1 1_555 1_555
O1 C8 1_555 1_555
O3 Cd1 1_555 1_555
N1 C4 1_555 1_555
N2 Cd1 1_555 1_555
C1 C2 1_555 1_555
C2 H1 1_555 1_555
C4 H2 1_555 1_555
N4 C12 1_555 1_555
C8 O3 1_555 1_555
C9 N2 1_555 1_555
H4 C9 1_555 1_555
C10 C2 1_555 1_555
H5 C10 1_555 1_555
C11 N2 1_555 1_555
H6 C11 1_555 1_555
C12 C4 1_555 1_555
C13 N1 1_555 1_555
H7 C13 1_555 1_555
N5 N4 1_555 1_555
C14 C11 1_555 1_555
H8 C14 1_555 1_555
C15 C13 1_555 1_555
H9 C15 1_555 1_555
C16 C14 1_555 1_555
H10 C16 1_555 1_555
C17 C12 1_555 1_555
H11 C17 1_555 1_555
C18 C9 1_555 1_555
Cd2 N1 1_555 1_555
Cd4 O1 1_555 1_555
O7 Cd1 1_555 1_555
O8 Cd1 1_555 1_555
O9 Cd1 1_555 1_555
N6 Cd1 1_555 1_555
C1 C8 1_555 1_555
N5 C18 1_555 1_555
C15 C17 1_555 1_555
C16 C18 1_555 1_555
Cd4 O7 1_555 1_555
O2 C3 1_555 1_555
O4 C3 1_555 1_555
O5 N3 1_555 1_555
O6 N3 1_555 1_555
N3 C7 1_555 1_555
C3 C5 1_555 1_555
C5 C7 1_555 1_555
H3 C6 1_555 1_555
C7 C6 1_555 1_555
Cd3 O2 1_555 1_555
O4 Cd3 1_555 1_555
N1_2 C4_2 1_555 1_555
N2_2 Cd1_2 1_555 1_555
C4_2 H2_2 1_555 1_555
N4_2 C12_2 1_555 1_555
C9_2 N2_2 1_555 1_555
H4_2 C9_2 1_555 1_555
C12_2 C4_2 1_555 1_555
C13_2 N1_2 1_555 1_555
H7_2 C13_2 1_555 1_555
N5_2 N4_2 1_555 1_555
C15_2 C13_2 1_555 1_555
H9_2 C15_2 1_555 1_555
C17_2 C12_2 1_555 1_555
H11_2 C17_2 1_555 1_555
C18_2 C9_2 1_555 1_555
Cd2_2 N1_2 1_555 1_555
O7_2 Cd1_2 1_555 1_555
O8_2 Cd1_2 1_555 1_555
O9_2 Cd1_2 1_555 1_555
N6_2 Cd1_2 1_555 1_555
N5_2 C18_2 1_555 1_555
C15_2 C17_2 1_555 1_555
O1_2 C8_2 1_555 1_555
C1_2 C2_2 1_555 1_555
C2_2 H1_2 1_555 1_555
C8_2 O3_2 1_555 1_555
C10_2 C2_2 1_555 1_555
H5_2 C10_2 1_555 1_555
H6_2 C11_2 1_555 1_555
C14_2 C11_2 1_555 1_555
H8_2 C14_2 1_555 1_555
C16_2 C14_2 1_555 1_555
H10_2 C16_2 1_555 1_555
Cd4_2 O1_2 1_555 1_555
C1_2 C8_2 1_555 1_555
O2_2 C3_2 1_555 1_555
O4_2 C3_2 1_555 1_555
O5_2 N3_2 1_555 1_555
O6_2 N3_2 1_555 1_555
N3_2 C7_2 1_555 1_555
C3_2 C5_2 1_555 1_555
C5_2 C7_2 1_555 1_555
H3_2 C6_2 1_555 1_555
C7_2 C6_2 1_555 1_555
Cd3_2 O2_2 1_555 1_555
O4_2 Cd3_2 1_555 1_555
N6 C4_3 1_555 1_555
C12_3 C4_3 1_555 1_555
C13_3 N6 1_555 1_555
H7_3 C13_3 1_555 1_555
Cd2 O1_3 1_555 1_555
O1_3 C8_3 1_555 1_555
O2_3 C3_3 1_555 1_555
O3_3 Cd2 1_555 1_555
O4_3 C3_3 1_555 1_555
N2_3 Cd2 1_555 1_555
O5_3 N3_3 1_555 1_555
C1_3 C2_3 1_555 1_555
O6_3 N3_3 1_555 1_555
N3_3 C7_3 1_555 1_555
C2_3 H1_3 1_555 1_555
C3_3 C5_3 1_555 1_555
C5_3 C7_3 1_555 1_555
C6_3 C1_3 1_555 1_555
H3_3 C6_3 1_555 1_555
C7_3 C6_3 1_555 1_555
C8_3 O3_3 1_555 1_555
C9_3 N2_3 1_555 1_555
H4_3 C9_3 1_555 1_555
C10_3 C2_3 1_555 1_555
H5_3 C10_3 1_555 1_555
C11_3 N2_3 1_555 1_555
H6_3 C11_3 1_555 1_555
Cd4_2 O2_3 1_555 1_555
Cd3_2 O1_3 1_555 1_555
O7_3 Cd2 1_555 1_555
O8_3 Cd2 1_555 1_555
O9_3 Cd2 1_555 1_555
O4_3 Cd4_2 1_555 1_555
C1_3 C8_3 1_555 1_555
C5_3 C10_3 1_555 1_555
Cd3_2 O7_3 1_555 1_555
N2_4 Cd2_2 1_555 1_555
C9_4 N2_4 1_555 1_555
H4_4 C9_4 1_555 1_555
O7_4 Cd2_2 1_555 1_555
O8_4 Cd2_2 1_555 1_555
O9_4 Cd2_2 1_555 1_555
O1_4 C8_4 1_555 1_555
O2_4 C3_4 1_555 1_555
O4_4 C3_4 1_555 1_555
O5_4 N3_4 1_555 1_555
C1_4 C2_4 1_555 1_555
O6_4 N3_4 1_555 1_555
N3_4 C7_4 1_555 1_555
C2_4 H1_4 1_555 1_555
C3_4 C5_4 1_555 1_555
C5_4 C7_4 1_555 1_555
C6_4 C1_4 1_555 1_555
H3_4 C6_4 1_555 1_555
C7_4 C6_4 1_555 1_555
C8_4 O3_4 1_555 1_555
C10_4 C2_4 1_555 1_555
H5_4 C10_4 1_555 1_555
H6_4 C11_4 1_555 1_555
Cd4 O2_4 1_555 1_555
Cd3 O1_4 1_555 1_555
O4_4 Cd4 1_555 1_555
C1_4 C8_4 1_555 1_555
C5_4 C10_4 1_555 1_555
N6_2 C4_4 1_555 1_555
C12_4 C4_4 1_555 1_555
C13_4 N6_2 1_555 1_555
H7_4 C13_4 1_555 1_555
O8_2 C3_5 1_555 1_555
O9_2 C3_5 1_555 1_555
O5_5 N3_5 1_555 1_555
O6_5 N3_5 1_555 1_555
N3_5 C7_5 1_555 1_555
C3_5 C5_5 1_555 1_555
C5_5 C7_5 1_555 1_555
H3_5 C6_5 1_555 1_555
C7_5 C6_5 1_555 1_555
O7_3 C8_5 1_555 1_555
O3_5 Cd3_2 1_555 1_555
N1_3 C4_5 1_555 1_555
N2_5 Cd3_2 1_555 1_555
C1_5 C2_5 1_555 1_555
C2_5 H1_5 1_555 1_555
C4_5 H2_3 1_555 1_555
N4_5 C12_5 1_555 1_555
C8_5 O3_5 1_555 1_555
C9_5 N2_5 1_555 1_555
H4_5 C9_5 1_555 1_555
C10_5 C2_5 1_555 1_555
H5_5 C10_5 1_555 1_555
C11_5 N2_5 1_555 1_555
H6_5 C11_5 1_555 1_555
C12_5 C4_5 1_555 1_555
C13_5 N1_3 1_555 1_555
H7_5 C13_5 1_555 1_555
N5_3 N4_5 1_555 1_555
C14_3 C11_5 1_555 1_555
H8_3 C14_3 1_555 1_555
C15_3 C13_5 1_555 1_555
H9_3 C15_3 1_555 1_555
C16_3 C14_3 1_555 1_555
H10_3 C16_3 1_555 1_555
C17_3 C12_5 1_555 1_555
H11_3 C17_3 1_555 1_555
C18_3 C9_5 1_555 1_555
Cd4 N1_3 1_555 1_555
N6_3 Cd3_2 1_555 1_555
C1_5 C8_5 1_555 1_555
N5_3 C18_3 1_555 1_555
C15_3 C17_3 1_555 1_555
C16_3 C18_3 1_555 1_555
O8 C3_6 1_555 1_555
O9 C3_6 1_555 1_555
O5_6 N3_6 1_555 1_555
O6_6 N3_6 1_555 1_555
N3_6 C7_6 1_555 1_555
C3_6 C5_6 1_555 1_555
C5_6 C7_6 1_555 1_555
H3_6 C6_6 1_555 1_555
C7_6 C6_6 1_555 1_555
O7_4 C8_6 1_555 1_555
C1_6 C2_6 1_555 1_555
C2_6 H1_6 1_555 1_555
C8_6 O3_6 1_555 1_555
C10_6 C2_6 1_555 1_555
H5_6 C10_6 1_555 1_555
H6_6 C11_6 1_555 1_555
C14_4 C11_6 1_555 1_555
H8_4 C14_4 1_555 1_555
C16_4 C14_4 1_555 1_555
H10_4 C16_4 1_555 1_555
C1_6 C8_6 1_555 1_555
N1_4 C4_6 1_555 1_555
N2_6 Cd3 1_555 1_555
C4_6 H2_4 1_555 1_555
N4_6 C12_6 1_555 1_555
C9_6 N2_6 1_555 1_555
H4_6 C9_6 1_555 1_555
C12_6 C4_6 1_555 1_555
C13_6 N1_4 1_555 1_555
H7_6 C13_6 1_555 1_555
N5_4 N4_6 1_555 1_555
C15_4 C13_6 1_555 1_555
H9_4 C15_4 1_555 1_555
C17_4 C12_6 1_555 1_555
H11_4 C17_4 1_555 1_555
C18_4 C9_6 1_555 1_555
Cd4_2 N1_4 1_555 1_555
N6_4 Cd3 1_555 1_555
N5_4 C18_4 1_555 1_555
C15_4 C17_4 1_555 1_555
O7 C8_7 1_555 1_555
O8_4 C3_7 1_555 1_555
O3_7 Cd4 1_555 1_555
O9_4 C3_7 1_555 1_555
N2_7 Cd4 1_555 1_555
O5_7 N3_7 1_555 1_555
C1_7 C2_7 1_555 1_555
O6_7 N3_7 1_555 1_555
N3_7 C7_7 1_555 1_555
C2_7 H1_7 1_555 1_555
C3_7 C5_7 1_555 1_555
C5_7 C7_7 1_555 1_555
C6_7 C1_7 1_555 1_555
H3_7 C6_7 1_555 1_555
C7_7 C6_7 1_555 1_555
C8_7 O3_7 1_555 1_555
C9_7 N2_7 1_555 1_555
H4_7 C9_7 1_555 1_555
C10_7 C2_7 1_555 1_555
H5_7 C10_7 1_555 1_555
C11_7 N2_7 1_555 1_555
H6_7 C11_7 1_555 1_555
C1_7 C8_7 1_555 1_555
C5_7 C10_7 1_555 1_555
N6_3 C4_7 1_555 1_555
C12_7 C4_7 1_555 1_555
C13_7 N6_3 1_555 1_555
H7_7 C13_7 1_555 1_555
N6_4 C4_8 1_555 1_555
C12_8 C4_8 1_555 1_555
C13_8 N6_4 1_555 1_555
H7_8 C13_8 1_555 1_555
O7_2 C8_8 1_555 1_555
O8_3 C3_8 1_555 1_555
O9_3 C3_8 1_555 1_555
O5_8 N3_8 1_555 1_555
C1_8 C2_8 1_555 1_555
O6_8 N3_8 1_555 1_555
N3_8 C7_8 1_555 1_555
C2_8 H1_8 1_555 1_555
C3_8 C5_8 1_555 1_555
C5_8 C7_8 1_555 1_555
C6_8 C1_8 1_555 1_555
H3_8 C6_8 1_555 1_555
C7_8 C6_8 1_555 1_555
C8_8 O3_8 1_555 1_555
C10_8 C2_8 1_555 1_555
H5_8 C10_8 1_555 1_555
H6_8 C11_8 1_555 1_555
C1_8 C8_8 1_555 1_555
C5_8 C10_8 1_555 1_555
N2_8 Cd4_2 1_555 1_555
C9_8 N2_8 1_555 1_555
H4_8 C9_8 1_555 1_555
H8_5 C14_5 1_555 1_555
C16_5 C14_5 1_555 1_555
H10_5 C16_5 1_555 1_555
N5_5 C18_5 1_555 1_555
C16_5 C18_5 1_555 1_555
H9_5 C15_5 1_555 1_555
H11_5 C17_5 1_555 1_555
C15_5 C17_5 1_555 1_555
H9_6 C15_6 1_555 1_555
H11_6 C17_6 1_555 1_555
C15_6 C17_6 1_555 1_555
N5_6 C18_6 1_555 1_555
H8_6 C14_6 1_555 1_555
C16_6 C14_6 1_555 1_555
H10_6 C16_6 1_555 1_555
H9_7 C15_7 1_555 1_555
H11_7 C17_7 1_555 1_555
C15_7 C17_7 1_555 1_555
H8_7 C14_7 1_555 1_555
C16_7 C14_7 1_555 1_555
H10_7 C16_7 1_555 1_555
N5_7 C18_7 1_555 1_555
C16_7 C18_7 1_555 1_555
H8_8 C14_8 1_555 1_555
C16_8 C14_8 1_555 1_555
H10_8 C16_8 1_555 1_555
N5_8 C18_8 1_555 1_555
H9_8 C15_8 1_555 1_555
H11_8 C17_8 1_555 1_555
C15_8 C17_8 1_555 1_555

#END
