
###############################################################################
#
# This file contains modified crystal structure data generated from the
# MOF subset of the Cambridge Structural Database (CSD) v543 
# hosted by the Cambridge Crystallographic Data Centre (CCDC).
#
# This work is licensed under the Creative Commons
# Attribution-NonCommercial-ShareAlike 4.0 International License.
# To view a copy of this license, visit
# http://creativecommons.org/licenses/by-nc-sa/4.0/
# or send a letter to
# Creative Commons, PO Box 1866, Mountain View, CA 94042, USA.
#
# CIF created using the CSD Python API on 29 September 2022
# The structure has been converted into the P1 space group
# The structure has a 3D framework
# The original CSD entry JIFGEN is in the monoclinic crystal system
# The framework has been calculated to contain at least 10.0% void space
# The void calculation uses a probe of radius 1.32A, grid spacing 0.4
# H atom positions have been added when not included in the experimental data
#
###############################################################################

data_JIFGEN
_chemical_formula_moiety         '(C176 H112 Cd8 N32 O30)n'
_symmetry_cell_setting           triclinic
_symmetry_space_group_name_H-M   'P 1'
_symmetry_Int_Tables_number      1
_space_group_name_Hall           'P 1'
loop_
_symmetry_equiv_pos_site_id
_symmetry_equiv_pos_as_xyz
1 x,y,z
_cell_length_a                   17.913(4)
_cell_length_b                   13.312(3)
_cell_length_c                   20.914(4)
_cell_angle_alpha                90
_cell_angle_beta                 117.43(3)
_cell_angle_gamma                90
_cell_volume                     4426.43
loop_
_atom_site_label
_atom_site_type_symbol
_atom_site_fract_x
_atom_site_fract_y
_atom_site_fract_z
O6 O 0.04389(10) 0.42013(10) 0.55662(8)
N5 N 0.02234(11) 0.37842(14) 0.39333(9)
Cd1 Cd 0.92141(2) 0.40817(2) 0.43485(2)
O1 O 0.54389(10) 0.07987(10) 0.05662(8)
O2 O 0.47362(8) 0.21675(11) 0.01985(8)
O3 O 0.82093(10) 0.28712(11) 0.36723(8)
O4 O 0.82568(9) 0.42845(11) 0.31569(8)
N1 N 0.52234(11) 0.87842(14) 0.39333(9)
N2 N 0.82618(10) 0.44750(13) 0.48105(10)
C1 C 0.66489(11) 0.37521(14) 0.19684(10)
C2 C 0.59998(11) 0.33254(13) 0.13595(9)
C3 C 0.53353(11) 0.17126(14) 0.06449(9)
C4 C 0.72187(11) 0.31032(14) 0.24947(10)
C5 C 0.59559(11) 0.22578(14) 0.12759(9)
C6 C 0.54722(13) 0.49967(15) 0.09824(11)
H1 H 0.5061 0.5410 0.0645
C7 C 0.65054(12) 0.16736(15) 0.18003(11)
H2 H 0.6468 0.0979 0.1750
C8 C 0.79383(11) 0.34492(14) 0.31519(10)
C9 C 0.66829(12) 0.48079(15) 0.20504(11)
H3 H 0.7124 0.5087 0.2456
C10 C 0.71165(12) 0.20889(15) 0.24046(11)
H4 H 0.7480 0.1669 0.2772
N3 N 0.66353(13) 0.63239(17) 0.45410(13)
C11 C 0.61130(13) 0.54155(15) 0.15738(12)
H5 H 0.6150 0.6108 0.1641
C12 C 0.54204(12) 0.39913(14) 0.08747(10)
H6 H 0.4978 0.3737 0.0458
C13 C 0.56679(13) 0.79551(17) 0.41330(12)
H7 H 0.5553 0.7482 0.4403
N4 N 0.68137(14) 0.69044(18) 0.41641(13)
C14 C 0.78056(13) 0.52936(17) 0.45956(12)
H8 H 0.7923 0.5770 0.4330
C15 C 0.71403(14) 0.54576(19) 0.47633(13)
C16 C 0.54058(15) 0.94469(19) 0.35307(13)
C17 C 0.80693(15) 0.37911(19) 0.52018(14)
C18 C 0.63156(14) 0.77710(19) 0.39451(14)
C19 C 0.60326(18) 0.9309(2) 0.33177(16)
H10 H 0.6129 0.9788 0.3040
C20 C 0.69490(16) 0.4761(2) 0.51692(16)
H11 H 0.6511 0.4877 0.5281
C21 C 0.74181(18) 0.3916(2) 0.53936(16)
H12 H 0.7314 0.3434 0.5665
C22 C 0.64964(17) 0.8453(2) 0.35301(16)
H13 H 0.6921 0.8326 0.3403
Cd2 Cd 0.42141(2) 0.90817(2) 0.43485(2)
O5 O 0.95611(10) 0.57987(10) 0.44338(8)
O7 O 0.97362(8) 0.28325(11) 0.51985(8)
H14 H 0.844402 0.310751 0.537539
Cd4 Cd 0.42141(2) 0.09183(2) 0.93485(2)
Cd3 Cd 0.57859(2) 0.90817(2) 0.06515(2)
Cd1_2 Cd 0.07859(2) 0.40817(2) 0.06515(2)
O1_2 O 0.45611(10) 0.07987(10) 0.44338(8)
O2_2 O 0.52638(8) 0.21675(11) 0.48015(8)
O3_2 O 0.17907(10) 0.28712(11) 0.13277(8)
O4_2 O 0.17432(9) 0.42845(11) 0.18431(8)
N1_2 N 0.47766(11) 0.87842(14) 0.10667(9)
N2_2 N 0.17382(10) 0.44750(13) 0.01895(10)
C1_2 C 0.33511(11) 0.37521(14) 0.30316(10)
C2_2 C 0.40002(11) 0.33254(13) 0.36405(9)
C3_2 C 0.46647(11) 0.17126(14) 0.43551(9)
C4_2 C 0.27813(11) 0.31032(14) 0.25053(10)
C5_2 C 0.40441(11) 0.22578(14) 0.37241(9)
C6_2 C 0.45278(13) 0.49967(15) 0.40176(11)
H1_2 H 0.4939 0.5410 0.4355
C7_2 C 0.34946(12) 0.16736(15) 0.31997(11)
H2_2 H 0.3532 0.0979 0.3250
C8_2 C 0.20617(11) 0.34492(14) 0.18481(10)
C9_2 C 0.33171(12) 0.48079(15) 0.29496(11)
H3_2 H 0.2876 0.5087 0.2544
C10_2 C 0.28835(12) 0.20889(15) 0.25954(11)
H4_2 H 0.2520 0.1669 0.2228
N3_2 N 0.33647(13) 0.63239(17) 0.04590(13)
C11_2 C 0.38870(13) 0.54155(15) 0.34262(12)
H5_2 H 0.3850 0.6108 0.3359
C12_2 C 0.45796(12) 0.39913(14) 0.41253(10)
H6_2 H 0.5022 0.3737 0.4542
C13_2 C 0.43321(13) 0.79551(17) 0.08670(12)
H7_2 H 0.4447 0.7482 0.0597
N4_2 N 0.31863(14) 0.69044(18) 0.08359(13)
C14_2 C 0.21944(13) 0.52936(17) 0.04044(12)
H8_2 H 0.2077 0.5770 0.0670
C15_2 C 0.28597(14) 0.54576(19) 0.02367(13)
C16_2 C 0.45942(15) 0.94469(19) 0.14693(13)
C18_2 C 0.36844(14) 0.77710(19) 0.10549(14)
C19_2 C 0.39674(18) 0.9309(2) 0.16823(16)
H10_2 H 0.3871 0.9788 0.1960
C22_2 C 0.35036(17) 0.8453(2) 0.14699(16)
H13_2 H 0.3079 0.8326 0.1597
Cd4_2 Cd 0.57859(2) 0.09183(2) 0.56515(2)
O5_2 O 0.04389(10) 0.57987(10) 0.05662(8)
N5_2 N 0.97766(11) 0.37842(14) 0.10667(9)
O6_2 O 0.95611(10) 0.42013(10) 0.94338(8)
H1_3 H 0.0061 0.0410 0.0645
H3_3 H 0.2124 0.0087 0.2456
N3_3 N 0.16353(13) 0.13239(17) 0.45410(13)
C11_3 C 0.11130(13) 0.04155(15) 0.15738(12)
H5_3 H 0.1150 0.1108 0.1641
C13_3 C 0.06679(13) 0.29551(17) 0.41330(12)
H7_3 H 0.0553 0.2482 0.4403
N4_3 N 0.18137(14) 0.19044(18) 0.41641(13)
C14_3 C 0.28056(13) 0.02936(17) 0.45956(12)
H8_3 H 0.2923 0.0770 0.4330
C15_3 C 0.21403(14) 0.04576(19) 0.47633(13)
C16_3 C 0.04058(15) 0.44469(19) 0.35307(13)
H9 H 0.0091 0.5035 0.3386
C18_3 C 0.13156(14) 0.27710(19) 0.39451(14)
C19_3 C 0.10326(18) 0.4309(2) 0.33177(16)
H10_3 H 0.1129 0.4788 0.3040
C22_3 C 0.14964(17) 0.3453(2) 0.35301(16)
H13_3 H 0.1921 0.3326 0.3403
O3_3 O 0.32093(10) 0.78712(11) 0.36723(8)
O4_3 O 0.32568(9) 0.92845(11) 0.31569(8)
N2_3 N 0.32618(10) 0.94750(13) 0.48105(10)
C1_3 C 0.16489(11) 0.87521(14) 0.19684(10)
C2_3 C 0.09998(11) 0.83254(13) 0.13595(9)
C3_3 C 0.03353(11) 0.67126(14) 0.06449(9)
C4_3 C 0.22187(11) 0.81032(14) 0.24947(10)
C5_3 C 0.09559(11) 0.72578(14) 0.12759(9)
C6_3 C 0.04722(13) 0.99967(15) 0.09824(11)
C7_3 C 0.15054(12) 0.66736(15) 0.18003(11)
H2_3 H 0.1468 0.5979 0.1750
C8_3 C 0.29383(11) 0.84492(14) 0.31519(10)
C9_3 C 0.16829(12) 0.98079(15) 0.20504(11)
C10_3 C 0.21165(12) 0.70889(15) 0.24046(11)
H4_3 H 0.2480 0.6669 0.2772
C12_3 C 0.04204(12) 0.89913(14) 0.08747(10)
C17_2 C 0.30693(15) 0.87911(19) 0.52018(14)
C20_2 C 0.19490(16) 0.9761(2) 0.51692(16)
H11_2 H 0.1511 0.9877 0.5281
C21_2 C 0.24181(18) 0.8916(2) 0.53936(16)
H12_2 H 0.2314 0.8434 0.5665
O6_3 O 0.54389(10) 0.92013(10) 0.55662(8)
O7_2 O 0.47362(8) 0.78325(11) 0.51985(8)
H14_2 H 0.344402 0.810751 0.537539
Cd4_3 Cd 0.92141(2) 0.59183(2) 0.93485(2)
O2_3 O 0.02638(8) 0.71675(11) 0.48015(8)
H6_3 H 0.0022 0.8737 0.4542
Cd4_4 Cd 0.07859(2) 0.59183(2) 0.56515(2)
H1_4 H 0.9939 0.0410 0.4355
H3_4 H 0.7876 0.0087 0.2544
N3_4 N 0.83647(13) 0.13239(17) 0.04590(13)
C11_4 C 0.88870(13) 0.04155(15) 0.34262(12)
H5_4 H 0.8850 0.1108 0.3359
C13_4 C 0.93321(13) 0.29551(17) 0.08670(12)
H7_4 H 0.9447 0.2482 0.0597
N4_4 N 0.81863(14) 0.19044(18) 0.08359(13)
C14_4 C 0.71944(13) 0.02936(17) 0.04044(12)
H8_4 H 0.7077 0.0770 0.0670
C15_4 C 0.78597(14) 0.04576(19) 0.02367(13)
C16_4 C 0.95942(15) 0.44469(19) 0.14693(13)
H9_2 H 0.9909 0.5035 0.1614
C18_4 C 0.86844(14) 0.27710(19) 0.10549(14)
C19_4 C 0.89674(18) 0.4309(2) 0.16823(16)
H10_4 H 0.8871 0.4788 0.1960
C22_4 C 0.85036(17) 0.3453(2) 0.14699(16)
H13_4 H 0.8079 0.3326 0.1597
O3_4 O 0.67907(10) 0.78712(11) 0.13277(8)
O4_4 O 0.67432(9) 0.92845(11) 0.18431(8)
N2_4 N 0.67382(10) 0.94750(13) 0.01895(10)
C1_4 C 0.83511(11) 0.87521(14) 0.30316(10)
C2_4 C 0.90002(11) 0.83254(13) 0.36405(9)
C3_4 C 0.96647(11) 0.67126(14) 0.43551(9)
C4_4 C 0.77813(11) 0.81032(14) 0.25053(10)
C5_4 C 0.90441(11) 0.72578(14) 0.37241(9)
C6_4 C 0.95278(13) 0.99967(15) 0.40176(11)
C7_4 C 0.84946(12) 0.66736(15) 0.31997(11)
H2_4 H 0.8532 0.5979 0.3250
C8_4 C 0.70617(11) 0.84492(14) 0.18481(10)
C9_4 C 0.83171(12) 0.98079(15) 0.29496(11)
C10_4 C 0.78835(12) 0.70889(15) 0.25954(11)
H4_4 H 0.7520 0.6669 0.2228
C12_4 C 0.95796(12) 0.89913(14) 0.41253(10)
C17_3 C 0.69307(15) 0.87911(19) 0.97982(14)
C20_3 C 0.80510(16) 0.9761(2) 0.98308(16)
H11_3 H 0.8489 0.9877 0.9719
C21_3 C 0.75819(18) 0.8916(2) 0.96064(16)
H12_3 H 0.7686 0.8434 0.9335
O6_4 O 0.45611(10) 0.92013(10) 0.94338(8)
O7_3 O 0.52638(8) 0.78325(11) 0.98015(8)
H14_3 H 0.655598 0.810751 0.962461
O3_5 O 0.17907(10) 0.71288(11) 0.63277(8)
O4_5 O 0.17432(9) 0.57155(11) 0.68431(8)
N1_3 N 0.47766(11) 0.12158(14) 0.60667(9)
N2_5 N 0.17382(10) 0.55250(13) 0.51895(10)
C1_5 C 0.33511(11) 0.62479(14) 0.80316(10)
C2_5 C 0.40002(11) 0.66746(13) 0.86405(9)
C3_5 C 0.46647(11) 0.82874(14) 0.93551(9)
C4_5 C 0.27813(11) 0.68968(14) 0.75053(10)
C5_5 C 0.40441(11) 0.77422(14) 0.87241(9)
C6_5 C 0.45278(13) 0.50033(15) 0.90176(11)
H1_5 H 0.4939 0.4590 0.9355
C7_5 C 0.34946(12) 0.83264(15) 0.81997(11)
H2_5 H 0.3532 0.9021 0.8250
C8_5 C 0.20617(11) 0.65508(14) 0.68481(10)
C9_5 C 0.33171(12) 0.51921(15) 0.79496(11)
H3_5 H 0.2876 0.4913 0.7544
C10_5 C 0.28835(12) 0.79111(15) 0.75954(11)
H4_5 H 0.2520 0.8331 0.7228
N3_5 N 0.33647(13) 0.36761(17) 0.54590(13)
C11_5 C 0.38870(13) 0.45845(15) 0.84262(12)
H5_5 H 0.3850 0.3892 0.8359
C12_5 C 0.45796(12) 0.60087(14) 0.91253(10)
H6_4 H 0.5022 0.6263 0.9542
C13_5 C 0.43321(13) 0.20449(17) 0.58670(12)
H7_5 H 0.4447 0.2518 0.5597
N4_5 N 0.31863(14) 0.30956(18) 0.58359(13)
C14_5 C 0.21944(13) 0.47064(17) 0.54044(12)
H8_5 H 0.2077 0.4230 0.5670
C15_5 C 0.28597(14) 0.45424(19) 0.52367(13)
C16_5 C 0.45942(15) 0.05531(19) 0.64693(13)
C17_4 C 0.19307(15) 0.62089(19) 0.47982(14)
C18_5 C 0.36844(14) 0.22290(19) 0.60549(14)
C19_5 C 0.39674(18) 0.0691(2) 0.66823(16)
H10_5 H 0.3871 0.0212 0.6960
C20_4 C 0.30510(16) 0.5239(2) 0.48308(16)
H11_4 H 0.3489 0.5123 0.4719
C21_4 C 0.25819(18) 0.6084(2) 0.46064(16)
H12_4 H 0.2686 0.6566 0.4335
C22_5 C 0.35036(17) 0.1547(2) 0.64699(16)
H13_5 H 0.3079 0.1674 0.6597
H14_4 H 0.155598 0.689249 0.462461
N5_3 N 0.97766(11) 0.62158(14) 0.60667(9)
N5_4 N 0.02234(11) 0.62158(14) 0.89333(9)
O3_6 O 0.82093(10) 0.71288(11) 0.86723(8)
O4_6 O 0.82568(9) 0.57155(11) 0.81569(8)
N1_4 N 0.52234(11) 0.12158(14) 0.89333(9)
N2_6 N 0.82618(10) 0.55250(13) 0.98105(10)
C1_6 C 0.66489(11) 0.62479(14) 0.69684(10)
C2_6 C 0.59998(11) 0.66746(13) 0.63595(9)
C3_6 C 0.53353(11) 0.82874(14) 0.56449(9)
C4_6 C 0.72187(11) 0.68968(14) 0.74947(10)
C5_6 C 0.59559(11) 0.77422(14) 0.62759(9)
C6_6 C 0.54722(13) 0.50033(15) 0.59824(11)
H1_6 H 0.5061 0.4590 0.5645
C7_6 C 0.65054(12) 0.83264(15) 0.68003(11)
H2_6 H 0.6468 0.9021 0.6750
C8_6 C 0.79383(11) 0.65508(14) 0.81519(10)
C9_6 C 0.66829(12) 0.51921(15) 0.70504(11)
H3_6 H 0.7124 0.4913 0.7456
C10_6 C 0.71165(12) 0.79111(15) 0.74046(11)
H4_6 H 0.7480 0.8331 0.7772
N3_6 N 0.66353(13) 0.36761(17) 0.95410(13)
C11_6 C 0.61130(13) 0.45845(15) 0.65738(12)
H5_6 H 0.6150 0.3892 0.6641
C12_6 C 0.54204(12) 0.60087(14) 0.58747(10)
H6_5 H 0.4978 0.6263 0.5458
C13_6 C 0.56679(13) 0.20449(17) 0.91330(12)
H7_6 H 0.5553 0.2518 0.9403
N4_6 N 0.68137(14) 0.30956(18) 0.91641(13)
C14_6 C 0.78056(13) 0.47064(17) 0.95956(12)
H8_6 H 0.7923 0.4230 0.9330
C15_6 C 0.71403(14) 0.45424(19) 0.97633(13)
C16_6 C 0.54058(15) 0.05531(19) 0.85307(13)
C18_6 C 0.63156(14) 0.22290(19) 0.89451(14)
C19_6 C 0.60326(18) 0.0691(2) 0.83177(16)
H10_6 H 0.6129 0.0212 0.8040
C22_6 C 0.64964(17) 0.1547(2) 0.85301(16)
H13_6 H 0.6921 0.1674 0.8403
O3_7 O 0.67907(10) 0.21288(11) 0.63277(8)
O4_7 O 0.67432(9) 0.07155(11) 0.68431(8)
N2_7 N 0.67382(10) 0.05250(13) 0.51895(10)
C1_7 C 0.83511(11) 0.12479(14) 0.80316(10)
C2_7 C 0.90002(11) 0.16746(13) 0.86405(9)
C3_7 C 0.96647(11) 0.32874(14) 0.93551(9)
C4_7 C 0.77813(11) 0.18968(14) 0.75053(10)
C5_7 C 0.90441(11) 0.27422(14) 0.87241(9)
C6_7 C 0.95278(13) 0.00033(15) 0.90176(11)
C7_7 C 0.84946(12) 0.33264(15) 0.81997(11)
H2_7 H 0.8532 0.4021 0.8250
C8_7 C 0.70617(11) 0.15508(14) 0.68481(10)
C9_7 C 0.83171(12) 0.01921(15) 0.79496(11)
C10_7 C 0.78835(12) 0.29111(15) 0.75954(11)
H4_7 H 0.7520 0.3331 0.7228
C12_7 C 0.95796(12) 0.10087(14) 0.91253(10)
C17_5 C 0.69307(15) 0.12089(19) 0.47982(14)
C20_5 C 0.80510(16) 0.0239(2) 0.48308(16)
H11_5 H 0.8489 0.0123 0.4719
C21_5 C 0.75819(18) 0.1084(2) 0.46064(16)
H12_5 H 0.7686 0.1566 0.4335
H14_5 H 0.655598 0.189249 0.462461
H1_7 H 0.9939 0.9590 0.9355
H3_7 H 0.7876 0.9913 0.7544
N3_7 N 0.83647(13) 0.86761(17) 0.54590(13)
C11_7 C 0.88870(13) 0.95845(15) 0.84262(12)
H5_7 H 0.8850 0.8892 0.8359
C13_7 C 0.93321(13) 0.70449(17) 0.58670(12)
H7_7 H 0.9447 0.7518 0.5597
N4_7 N 0.81863(14) 0.80956(18) 0.58359(13)
C14_7 C 0.71944(13) 0.97064(17) 0.54044(12)
H8_7 H 0.7077 0.9230 0.5670
C15_7 C 0.78597(14) 0.95424(19) 0.52367(13)
C16_7 C 0.95942(15) 0.55531(19) 0.64693(13)
H9_3 H 0.9909 0.4965 0.6614
C18_7 C 0.86844(14) 0.72290(19) 0.60549(14)
C19_7 C 0.89674(18) 0.5691(2) 0.66823(16)
H10_7 H 0.8871 0.5212 0.6960
C22_7 C 0.85036(17) 0.6547(2) 0.64699(16)
H13_7 H 0.8079 0.6674 0.6597
C17_6 C 0.30693(15) 0.12089(19) 0.02018(14)
C20_6 C 0.19490(16) 0.0239(2) 0.01692(16)
H11_6 H 0.1511 0.0123 0.0281
C21_6 C 0.24181(18) 0.1084(2) 0.03936(16)
H12_6 H 0.2314 0.1566 0.0665
H14_6 H 0.344402 0.189249 0.0375388
O3_8 O 0.32093(10) 0.21288(11) 0.86723(8)
O4_8 O 0.32568(9) 0.07155(11) 0.81569(8)
N2_8 N 0.32618(10) 0.05250(13) 0.98105(10)
C1_8 C 0.16489(11) 0.12479(14) 0.69684(10)
C2_8 C 0.09998(11) 0.16746(13) 0.63595(9)
C3_8 C 0.03353(11) 0.32874(14) 0.56449(9)
C4_8 C 0.22187(11) 0.18968(14) 0.74947(10)
C5_8 C 0.09559(11) 0.27422(14) 0.62759(9)
C6_8 C 0.04722(13) 0.00033(15) 0.59824(11)
C7_8 C 0.15054(12) 0.33264(15) 0.68003(11)
H2_8 H 0.1468 0.4021 0.6750
C8_8 C 0.29383(11) 0.15508(14) 0.81519(10)
C9_8 C 0.16829(12) 0.01921(15) 0.70504(11)
C10_8 C 0.21165(12) 0.29111(15) 0.74046(11)
H4_8 H 0.2480 0.3331 0.7772
C12_8 C 0.04204(12) 0.10087(14) 0.58747(10)
H1_8 H 0.0061 0.9590 0.5645
H3_8 H 0.2124 0.9913 0.7456
N3_8 N 0.16353(13) 0.86761(17) 0.95410(13)
C11_8 C 0.11130(13) 0.95845(15) 0.65738(12)
H5_8 H 0.1150 0.8892 0.6641
C13_8 C 0.06679(13) 0.70449(17) 0.91330(12)
H7_8 H 0.0553 0.7518 0.9403
N4_8 N 0.18137(14) 0.80956(18) 0.91641(13)
C14_8 C 0.28056(13) 0.97064(17) 0.95956(12)
H8_8 H 0.2923 0.9230 0.9330
C15_8 C 0.21403(14) 0.95424(19) 0.97633(13)
C16_8 C 0.04058(15) 0.55531(19) 0.85307(13)
H9_4 H 0.0091 0.4965 0.8386
C18_8 C 0.13156(14) 0.72290(19) 0.89451(14)
C19_8 C 0.10326(18) 0.5691(2) 0.83177(16)
H10_8 H 0.1129 0.5212 0.8040
C22_8 C 0.14964(17) 0.6547(2) 0.85301(16)
H13_8 H 0.1921 0.6674 0.8403
H6_6 H 0.9978 0.1263 0.5458
H9_5 H 0.5091 0.0035 0.3386
H9_6 H 0.4909 0.0035 0.1614
C17_7 C 0.19307(15) 0.37911(19) 0.97982(14)
C20_7 C 0.30510(16) 0.4761(2) 0.98308(16)
H11_7 H 0.3489 0.4877 0.9719
C21_7 C 0.25819(18) 0.3916(2) 0.96064(16)
H12_7 H 0.2686 0.3434 0.9335
O7_4 O 0.02638(8) 0.28325(11) 0.98015(8)
H14_7 H 0.155598 0.310751 0.962461
H6_7 H 0.0022 0.1263 0.9542
O2_4 O 0.97362(8) 0.71675(11) 0.01985(8)
H6_8 H 0.9978 0.8737 0.0458
C17_8 C 0.80693(15) 0.62089(19) 0.02018(14)
C20_8 C 0.69490(16) 0.5239(2) 0.01692(16)
H11_8 H 0.6511 0.5123 0.0281
C21_8 C 0.74181(18) 0.6084(2) 0.03936(16)
H12_8 H 0.7314 0.6566 0.0665
H14_8 H 0.844402 0.689249 0.0375388
H9_7 H 0.4909 0.9965 0.6614
H9_8 H 0.5091 0.9965 0.8386
loop_
_geom_bond_atom_site_label_1
_geom_bond_atom_site_label_2
_geom_bond_site_symmetry_1
_geom_bond_site_symmetry_2
Cd1 O3 1_555 1_555
O1 C3 1_555 1_555
O2 C3 1_555 1_555
O3 C8 1_555 1_555
O4 Cd1 1_555 1_555
N1 C13 1_555 1_555
N2 Cd1 1_555 1_555
C1 C2 1_555 1_555
C2 C5 1_555 1_555
C3 C5 1_555 1_555
C4 C1 1_555 1_555
C5 C7 1_555 1_555
C6 H1 1_555 1_555
C7 H2 1_555 1_555
C8 O4 1_555 1_555
C9 C1 1_555 1_555
H3 C9 1_555 1_555
C10 C4 1_555 1_555
H4 C10 1_555 1_555
N3 N4 1_555 1_555
C11 C6 1_555 1_555
H5 C11 1_555 1_555
C12 C2 1_555 1_555
H6 C12 1_555 1_555
C13 H7 1_555 1_555
N4 C18 1_555 1_555
C14 N2 1_555 1_555
H8 C14 1_555 1_555
C15 N3 1_555 1_555
C16 N1 1_555 1_555
C17 N2 1_555 1_555
C18 C13 1_555 1_555
C19 C16 1_555 1_555
H10 C19 1_555 1_555
C20 C15 1_555 1_555
H11 C20 1_555 1_555
C21 C17 1_555 1_555
H12 C21 1_555 1_555
C22 C18 1_555 1_555
H13 C22 1_555 1_555
Cd2 N1 1_555 1_555
O5 Cd1 1_555 1_555
O7 Cd1 1_555 1_555
C4 C8 1_555 1_555
C6 C12 1_555 1_555
C7 C10 1_555 1_555
C9 C11 1_555 1_555
C14 C15 1_555 1_555
C19 C22 1_555 1_555
C20 C21 1_555 1_555
C17 H14 1_555 1_555
Cd1_2 O3_2 1_555 1_555
O1_2 C3_2 1_555 1_555
O2_2 C3_2 1_555 1_555
O3_2 C8_2 1_555 1_555
O4_2 Cd1_2 1_555 1_555
N1_2 C13_2 1_555 1_555
N2_2 Cd1_2 1_555 1_555
C1_2 C2_2 1_555 1_555
C2_2 C5_2 1_555 1_555
C3_2 C5_2 1_555 1_555
C4_2 C1_2 1_555 1_555
C5_2 C7_2 1_555 1_555
C6_2 H1_2 1_555 1_555
C7_2 H2_2 1_555 1_555
C8_2 O4_2 1_555 1_555
C9_2 C1_2 1_555 1_555
H3_2 C9_2 1_555 1_555
C10_2 C4_2 1_555 1_555
H4_2 C10_2 1_555 1_555
N3_2 N4_2 1_555 1_555
C11_2 C6_2 1_555 1_555
H5_2 C11_2 1_555 1_555
C12_2 C2_2 1_555 1_555
H6_2 C12_2 1_555 1_555
C13_2 H7_2 1_555 1_555
N4_2 C18_2 1_555 1_555
C14_2 N2_2 1_555 1_555
H8_2 C14_2 1_555 1_555
C15_2 N3_2 1_555 1_555
C16_2 N1_2 1_555 1_555
C18_2 C13_2 1_555 1_555
C19_2 C16_2 1_555 1_555
H10_2 C19_2 1_555 1_555
C22_2 C18_2 1_555 1_555
H13_2 C22_2 1_555 1_555
Cd3 N1_2 1_555 1_555
Cd4_2 O1_2 1_555 1_555
O5_2 Cd1_2 1_555 1_555
O2_2 Cd4_2 1_555 1_555
C4_2 C8_2 1_555 1_555
C6_2 C12_2 1_555 1_555
C7_2 C10_2 1_555 1_555
C9_2 C11_2 1_555 1_555
C14_2 C15_2 1_555 1_555
C19_2 C22_2 1_555 1_555
N5 C13_3 1_555 1_555
N3_3 N4_3 1_555 1_555
H5_3 C11_3 1_555 1_555
C13_3 H7_3 1_555 1_555
N4_3 C18_3 1_555 1_555
H8_3 C14_3 1_555 1_555
C15_3 N3_3 1_555 1_555
C16_3 N5 1_555 1_555
H9 C16_3 1_555 1_555
C18_3 C13_3 1_555 1_555
C19_3 C16_3 1_555 1_555
H10_3 C19_3 1_555 1_555
C22_3 C18_3 1_555 1_555
H13_3 C22_3 1_555 1_555
C14_3 C15_3 1_555 1_555
C19_3 C22_3 1_555 1_555
Cd2 O3_3 1_555 1_555
O5_2 C3_3 1_555 1_555
O3_3 C8_3 1_555 1_555
O4_3 Cd2 1_555 1_555
N2_3 Cd2 1_555 1_555
C1_3 C2_3 1_555 1_555
C2_3 C5_3 1_555 1_555
C3_3 C5_3 1_555 1_555
C4_3 C1_3 1_555 1_555
C5_3 C7_3 1_555 1_555
C7_3 H2_3 1_555 1_555
C8_3 O4_3 1_555 1_555
C9_3 C1_3 1_555 1_555
C10_3 C4_3 1_555 1_555
H4_3 C10_3 1_555 1_555
C12_3 C2_3 1_555 1_555
C17_2 N2_3 1_555 1_555
H11_2 C20_2 1_555 1_555
C21_2 C17_2 1_555 1_555
H12_2 C21_2 1_555 1_555
O6_3 Cd2 1_555 1_555
O7_2 Cd2 1_555 1_555
C4_3 C8_3 1_555 1_555
C6_3 C12_3 1_555 1_555
C7_3 C10_3 1_555 1_555
C20_2 C21_2 1_555 1_555
C17_2 H14_2 1_555 1_555
O2_3 Cd4_4 1_555 1_555
N5_2 C13_4 1_555 1_555
N3_4 N4_4 1_555 1_555
H5_4 C11_4 1_555 1_555
C13_4 H7_4 1_555 1_555
N4_4 C18_4 1_555 1_555
H8_4 C14_4 1_555 1_555
C15_4 N3_4 1_555 1_555
C16_4 N5_2 1_555 1_555
H9_2 C16_4 1_555 1_555
C18_4 C13_4 1_555 1_555
C19_4 C16_4 1_555 1_555
H10_4 C19_4 1_555 1_555
C22_4 C18_4 1_555 1_555
H13_4 C22_4 1_555 1_555
C14_4 C15_4 1_555 1_555
C19_4 C22_4 1_555 1_555
Cd3 O3_4 1_555 1_555
O5 C3_4 1_555 1_555
O3_4 C8_4 1_555 1_555
O4_4 Cd3 1_555 1_555
N2_4 Cd3 1_555 1_555
C1_4 C2_4 1_555 1_555
C2_4 C5_4 1_555 1_555
C3_4 C5_4 1_555 1_555
C4_4 C1_4 1_555 1_555
C5_4 C7_4 1_555 1_555
C7_4 H2_4 1_555 1_555
C8_4 O4_4 1_555 1_555
C9_4 C1_4 1_555 1_555
C10_4 C4_4 1_555 1_555
H4_4 C10_4 1_555 1_555
C12_4 C2_4 1_555 1_555
C4_4 C8_4 1_555 1_555
C6_4 C12_4 1_555 1_555
C7_4 C10_4 1_555 1_555
H11_3 C20_3 1_555 1_555
C21_3 C17_3 1_555 1_555
H12_3 C21_3 1_555 1_555
C20_3 C21_3 1_555 1_555
C17_3 H14_3 1_555 1_555
Cd4_4 O3_5 1_555 1_555
O6_4 C3_5 1_555 1_555
O7_3 C3_5 1_555 1_555
O3_5 C8_5 1_555 1_555
O4_5 Cd4_4 1_555 1_555
N1_3 C13_5 1_555 1_555
N2_5 Cd4_4 1_555 1_555
C1_5 C2_5 1_555 1_555
C2_5 C5_5 1_555 1_555
C3_5 C5_5 1_555 1_555
C4_5 C1_5 1_555 1_555
C5_5 C7_5 1_555 1_555
C6_5 H1_5 1_555 1_555
C7_5 H2_5 1_555 1_555
C8_5 O4_5 1_555 1_555
C9_5 C1_5 1_555 1_555
H3_5 C9_5 1_555 1_555
C10_5 C4_5 1_555 1_555
H4_5 C10_5 1_555 1_555
N3_5 N4_5 1_555 1_555
C11_5 C6_5 1_555 1_555
H5_5 C11_5 1_555 1_555
C12_5 C2_5 1_555 1_555
H6_4 C12_5 1_555 1_555
C13_5 H7_5 1_555 1_555
N4_5 C18_5 1_555 1_555
C14_5 N2_5 1_555 1_555
H8_5 C14_5 1_555 1_555
C15_5 N3_5 1_555 1_555
C16_5 N1_3 1_555 1_555
C17_4 N2_5 1_555 1_555
C18_5 C13_5 1_555 1_555
C19_5 C16_5 1_555 1_555
H10_5 C19_5 1_555 1_555
C20_4 C15_5 1_555 1_555
H11_4 C20_4 1_555 1_555
C21_4 C17_4 1_555 1_555
H12_4 C21_4 1_555 1_555
C22_5 C18_5 1_555 1_555
H13_5 C22_5 1_555 1_555
Cd4_2 N1_3 1_555 1_555
O6 Cd4_4 1_555 1_555
C4_5 C8_5 1_555 1_555
C6_5 C12_5 1_555 1_555
C7_5 C10_5 1_555 1_555
C9_5 C11_5 1_555 1_555
C14_5 C15_5 1_555 1_555
C19_5 C22_5 1_555 1_555
C20_4 C21_4 1_555 1_555
C17_4 H14_4 1_555 1_555
Cd4_3 O3_6 1_555 1_555
O6_3 C3_6 1_555 1_555
O7_2 C3_6 1_555 1_555
O3_6 C8_6 1_555 1_555
O4_6 Cd4_3 1_555 1_555
N1_4 C13_6 1_555 1_555
N2_6 Cd4_3 1_555 1_555
C1_6 C2_6 1_555 1_555
C2_6 C5_6 1_555 1_555
C3_6 C5_6 1_555 1_555
C4_6 C1_6 1_555 1_555
C5_6 C7_6 1_555 1_555
C6_6 H1_6 1_555 1_555
C7_6 H2_6 1_555 1_555
C8_6 O4_6 1_555 1_555
C9_6 C1_6 1_555 1_555
H3_6 C9_6 1_555 1_555
C10_6 C4_6 1_555 1_555
H4_6 C10_6 1_555 1_555
N3_6 N4_6 1_555 1_555
C11_6 C6_6 1_555 1_555
H5_6 C11_6 1_555 1_555
C12_6 C2_6 1_555 1_555
H6_5 C12_6 1_555 1_555
C13_6 H7_6 1_555 1_555
N4_6 C18_6 1_555 1_555
C14_6 N2_6 1_555 1_555
H8_6 C14_6 1_555 1_555
C15_6 N3_6 1_555 1_555
C16_6 N1_4 1_555 1_555
C18_6 C13_6 1_555 1_555
C19_6 C16_6 1_555 1_555
H10_6 C19_6 1_555 1_555
C22_6 C18_6 1_555 1_555
H13_6 C22_6 1_555 1_555
Cd4 N1_4 1_555 1_555
O6_2 Cd4_3 1_555 1_555
C4_6 C8_6 1_555 1_555
C6_6 C12_6 1_555 1_555
C7_6 C10_6 1_555 1_555
C9_6 C11_6 1_555 1_555
C14_6 C15_6 1_555 1_555
C19_6 C22_6 1_555 1_555
Cd4_2 O3_7 1_555 1_555
O6_2 C3_7 1_555 1_555
O3_7 C8_7 1_555 1_555
O4_7 Cd4_2 1_555 1_555
N2_7 Cd4_2 1_555 1_555
C1_7 C2_7 1_555 1_555
C2_7 C5_7 1_555 1_555
C3_7 C5_7 1_555 1_555
C4_7 C1_7 1_555 1_555
C5_7 C7_7 1_555 1_555
C7_7 H2_7 1_555 1_555
C8_7 O4_7 1_555 1_555
C9_7 C1_7 1_555 1_555
C10_7 C4_7 1_555 1_555
H4_7 C10_7 1_555 1_555
C12_7 C2_7 1_555 1_555
C17_5 N2_7 1_555 1_555
H11_5 C20_5 1_555 1_555
C21_5 C17_5 1_555 1_555
H12_5 C21_5 1_555 1_555
C4_7 C8_7 1_555 1_555
C6_7 C12_7 1_555 1_555
C7_7 C10_7 1_555 1_555
C20_5 C21_5 1_555 1_555
C17_5 H14_5 1_555 1_555
N5_3 C13_7 1_555 1_555
N3_7 N4_7 1_555 1_555
H5_7 C11_7 1_555 1_555
C13_7 H7_7 1_555 1_555
N4_7 C18_7 1_555 1_555
H8_7 C14_7 1_555 1_555
C15_7 N3_7 1_555 1_555
C16_7 N5_3 1_555 1_555
H9_3 C16_7 1_555 1_555
C18_7 C13_7 1_555 1_555
C19_7 C16_7 1_555 1_555
H10_7 C19_7 1_555 1_555
C22_7 C18_7 1_555 1_555
H13_7 C22_7 1_555 1_555
C14_7 C15_7 1_555 1_555
C19_7 C22_7 1_555 1_555
H11_6 C20_6 1_555 1_555
C21_6 C17_6 1_555 1_555
H12_6 C21_6 1_555 1_555
C20_6 C21_6 1_555 1_555
C17_6 H14_6 1_555 1_555
Cd4 O3_8 1_555 1_555
O6 C3_8 1_555 1_555
O3_8 C8_8 1_555 1_555
O4_8 Cd4 1_555 1_555
N2_8 Cd4 1_555 1_555
C1_8 C2_8 1_555 1_555
C2_8 C5_8 1_555 1_555
C3_8 C5_8 1_555 1_555
C4_8 C1_8 1_555 1_555
C5_8 C7_8 1_555 1_555
C7_8 H2_8 1_555 1_555
C8_8 O4_8 1_555 1_555
C9_8 C1_8 1_555 1_555
C10_8 C4_8 1_555 1_555
H4_8 C10_8 1_555 1_555
C12_8 C2_8 1_555 1_555
C4_8 C8_8 1_555 1_555
C6_8 C12_8 1_555 1_555
C7_8 C10_8 1_555 1_555
N5_4 C13_8 1_555 1_555
N3_8 N4_8 1_555 1_555
H5_8 C11_8 1_555 1_555
C13_8 H7_8 1_555 1_555
N4_8 C18_8 1_555 1_555
H8_8 C14_8 1_555 1_555
C15_8 N3_8 1_555 1_555
C16_8 N5_4 1_555 1_555
H9_4 C16_8 1_555 1_555
C18_8 C13_8 1_555 1_555
C19_8 C16_8 1_555 1_555
H10_8 C19_8 1_555 1_555
C22_8 C18_8 1_555 1_555
H13_8 C22_8 1_555 1_555
C14_8 C15_8 1_555 1_555
C19_8 C22_8 1_555 1_555
H11_7 C20_7 1_555 1_555
C21_7 C17_7 1_555 1_555
H12_7 C21_7 1_555 1_555
C20_7 C21_7 1_555 1_555
C17_7 H14_7 1_555 1_555
H11_8 C20_8 1_555 1_555
C21_8 C17_8 1_555 1_555
H12_8 C21_8 1_555 1_555
C20_8 C21_8 1_555 1_555
C17_8 H14_8 1_555 1_555

#END
