
###############################################################################
#
# This file contains modified crystal structure data generated from the
# MOF subset of the Cambridge Structural Database (CSD) v543 
# hosted by the Cambridge Crystallographic Data Centre (CCDC).
#
# This work is licensed under the Creative Commons
# Attribution-NonCommercial-ShareAlike 4.0 International License.
# To view a copy of this license, visit
# http://creativecommons.org/licenses/by-nc-sa/4.0/
# or send a letter to
# Creative Commons, PO Box 1866, Mountain View, CA 94042, USA.
#
# CIF created using the CSD Python API on 29 September 2022
# The structure has been converted into the P1 space group
# The structure has a 3D framework
# The original CSD entry JIFGIR is in the monoclinic crystal system
# The framework has been calculated to contain at least 10.0% void space
# The void calculation uses a probe of radius 1.32A, grid spacing 0.4
#
###############################################################################

data_JIFGIR
_chemical_formula_moiety         '(C144 H104 Cd8 N40 O32)n'
_symmetry_cell_setting           triclinic
_symmetry_space_group_name_H-M   'P 1'
_symmetry_Int_Tables_number      1
_space_group_name_Hall           'P 1'
loop_
_symmetry_equiv_pos_site_id
_symmetry_equiv_pos_as_xyz
1 x,y,z
_cell_length_a                   17.580(4)
_cell_length_b                   13.572(3)
_cell_length_c                   20.782(4)
_cell_angle_alpha                90
_cell_angle_beta                 116.41(3)
_cell_angle_gamma                90
_cell_volume                     4441
loop_
_atom_site_label
_atom_site_type_symbol
_atom_site_fract_x
_atom_site_fract_y
_atom_site_fract_z
Cd1 Cd 0.26249(2) 0.15175(2) 0.44074(2)
O1 O 0.28149(18) 0.01439(17) 0.37566(13)
O4 O 0.25015(19) 0.15941(17) 0.32556(14)
N1 N 0.40329(19) 0.1904(2) 0.48176(16)
N2 N 0.62003(18) 0.6246(2) 0.40227(16)
N3 N 0.4819(2) 0.4394(3) 0.4259(2)
C3 C 0.2684(2) 0.0705(2) 0.32424(16)
C5 C 0.2738(2) 0.0943(2) 0.20686(18)
C6 C 0.2743(2) 0.0316(2) 0.25966(17)
C8 C 0.2781(2) 0.0558(2) 0.14565(17)
H3 H 0.2788 0.0976 0.1105
C9 C 0.5951(2) 0.5446(3) 0.42474(19)
H4 H 0.6358 0.5006 0.4551
C10 C 0.4262(2) 0.2733(3) 0.4616(2)
H5 H 0.3847 0.3189 0.4346
C11 C 0.4636(2) 0.1248(3) 0.5199(2)
H6 H 0.4473 0.0666 0.5338
C12 C 0.5606(2) 0.6874(3) 0.3585(2)
H7 H 0.5779 0.7429 0.3422
C13 C 0.5103(2) 0.5253(3) 0.4042(2)
N4 N 0.5377(2) 0.3808(3) 0.4590(3)
C14 C 0.4502(3) 0.5910(3) 0.3607(3)
H8 H 0.3930 0.5801 0.3476
C15 C 0.5481(3) 0.1393(3) 0.5394(3)
H9 H 0.5883 0.0923 0.5661
C16 C 0.5098(3) 0.2932(3) 0.4796(3)
C17 C 0.4755(3) 0.6731(3) 0.3368(3)
H10 H 0.4358 0.7180 0.3066
C18 C 0.5721(3) 0.2252(4) 0.5183(3)
H11 H 0.6288 0.2373 0.5298
N5 N 0.2689(5) 0.1943(4) 0.2082(4)
H12 H 0.2658 0.2231 0.2439
H13 H 0.2689 0.2287 0.1735
Cd2 Cd 0.76249(2) 0.65175(2) 0.44074(2)
O5 O 0.23131(16) 0.32002(17) 0.43904(12)
O6 O 0.26869(16) 0.17998(17) 0.56096(12)
O7 O 0.29354(16) 0.03393(17) 0.53037(12)
N6 N 0.12003(18) 0.1246(2) 0.40227(16)
O2 O 0.26869(16) 0.82002(17) 0.06096(12)
O3 O 0.29354(16) 0.96607(17) 0.03037(12)
C1 C 0.2811(2) 0.9537(2) 0.13876(16)
C2 C 0.2824(2) 0.8917(2) 0.19226(18)
H1 H 0.2850 0.8238 0.1875
C4 C 0.2822(2) 0.9110(2) 0.07363(16)
C7 C 0.2796(2) 0.9304(2) 0.25233(17)
H2 H 0.2813 0.8885 0.2884
Cd3 Cd 0.23751(2) 0.65175(2) 0.05926(2)
Cd4 Cd 0.26249(2) 0.84825(2) 0.94074(2)
Cd1_2 Cd 0.73751(2) 0.15175(2) 0.05926(2)
O1_2 O 0.71851(18) 0.01439(17) 0.12434(13)
O4_2 O 0.74985(19) 0.15941(17) 0.17444(14)
N1_2 N 0.59671(19) 0.1904(2) 0.01824(16)
N2_2 N 0.37997(18) 0.6246(2) 0.09773(16)
N3_2 N 0.5181(2) 0.4394(3) 0.0741(2)
C3_2 C 0.7316(2) 0.0705(2) 0.17576(16)
C5_2 C 0.7262(2) 0.0943(2) 0.29314(18)
C6_2 C 0.7257(2) 0.0316(2) 0.24034(17)
C8_2 C 0.7219(2) 0.0558(2) 0.35435(17)
H3_2 H 0.7212 0.0976 0.3895
C9_2 C 0.4049(2) 0.5446(3) 0.07526(19)
H4_2 H 0.3642 0.5006 0.0449
C10_2 C 0.5738(2) 0.2733(3) 0.0384(2)
H5_2 H 0.6153 0.3189 0.0654
C12_2 C 0.4394(2) 0.6874(3) 0.1415(2)
H7_2 H 0.4221 0.7429 0.1578
C13_2 C 0.4897(2) 0.5253(3) 0.0958(2)
N4_2 N 0.4623(2) 0.3808(3) 0.0410(3)
C14_2 C 0.5498(3) 0.5910(3) 0.1393(3)
H8_2 H 0.6070 0.5801 0.1524
C16_2 C 0.4902(3) 0.2932(3) 0.0204(3)
C17_2 C 0.5245(3) 0.6731(3) 0.1632(3)
H10_2 H 0.5642 0.7180 0.1934
N5_2 N 0.7311(5) 0.1943(4) 0.2918(4)
H12_2 H 0.7342 0.2231 0.2561
H13_2 H 0.7311 0.2287 0.3265
O5_2 O 0.76869(16) 0.32002(17) 0.06096(12)
N6_2 N 0.87997(18) 0.1246(2) 0.09773(16)
C11_2 C 0.5364(2) 0.1248(3) 0.9801(2)
H6_2 H 0.5527 0.0666 0.9662
C15_2 C 0.4519(3) 0.1393(3) 0.9606(3)
H9_2 H 0.4117 0.0923 0.9339
C18_2 C 0.4279(3) 0.2252(4) 0.9817(3)
H11_2 H 0.3712 0.2373 0.9702
O6_2 O 0.73131(16) 0.17998(17) 0.93904(12)
O7_2 O 0.70646(16) 0.03393(17) 0.96963(12)
O2_2 O 0.73131(16) 0.82002(17) 0.43904(12)
O3_2 O 0.70646(16) 0.96607(17) 0.46963(12)
C1_2 C 0.7189(2) 0.9537(2) 0.36124(16)
C2_2 C 0.7176(2) 0.8917(2) 0.30774(18)
H1_2 H 0.7150 0.8238 0.3125
C4_2 C 0.7178(2) 0.9110(2) 0.42637(16)
C7_2 C 0.7204(2) 0.9304(2) 0.24767(17)
H2_2 H 0.7187 0.8885 0.2116
Cd4_2 Cd 0.73751(2) 0.84825(2) 0.55926(2)
C9_3 C 0.0951(2) 0.0446(3) 0.42474(19)
H4_3 H 0.1358 0.0006 0.4551
C12_3 C 0.0606(2) 0.1874(3) 0.3585(2)
H7_3 H 0.0779 0.2429 0.3422
C13_3 C 0.0103(2) 0.0253(3) 0.4042(2)
O1_3 O 0.78149(18) 0.51439(17) 0.37566(13)
O3_3 O 0.79354(16) 0.46607(17) 0.03037(12)
O4_3 O 0.75015(19) 0.65941(17) 0.32556(14)
N1_3 N 0.90329(19) 0.6904(2) 0.48176(16)
C1_3 C 0.7811(2) 0.4537(2) 0.13876(16)
N3_3 N 0.9819(2) 0.9394(3) 0.4259(2)
C2_3 C 0.7824(2) 0.3917(2) 0.19226(18)
H1_3 H 0.7850 0.3238 0.1875
C3_3 C 0.7684(2) 0.5705(2) 0.32424(16)
C4_3 C 0.7822(2) 0.4110(2) 0.07363(16)
C5_3 C 0.7738(2) 0.5943(2) 0.20686(18)
C6_3 C 0.7743(2) 0.5316(2) 0.25966(17)
C7_3 C 0.7796(2) 0.4304(2) 0.25233(17)
H2_3 H 0.7813 0.3885 0.2884
C8_3 C 0.7781(2) 0.5558(2) 0.14565(17)
H3_3 H 0.7788 0.5976 0.1105
C10_3 C 0.9262(2) 0.7733(3) 0.4616(2)
H5_3 H 0.8847 0.8189 0.4346
C11_3 C 0.9636(2) 0.6248(3) 0.5199(2)
H6_3 H 0.9473 0.5666 0.5338
N5_3 N 0.7689(5) 0.6943(4) 0.2082(4)
H12_3 H 0.7658 0.7231 0.2439
H13_3 H 0.7689 0.7287 0.1735
O6_3 O 0.76869(16) 0.67998(17) 0.56096(12)
O7_3 O 0.79354(16) 0.53393(17) 0.53037(12)
Cd4_3 Cd 0.76249(2) 0.34825(2) 0.94074(2)
O1_4 O 0.21851(18) 0.51439(17) 0.12434(13)
O3_4 O 0.20646(16) 0.46607(17) 0.46963(12)
O4_4 O 0.24985(19) 0.65941(17) 0.17444(14)
N1_4 N 0.09671(19) 0.6904(2) 0.01824(16)
C1_4 C 0.2189(2) 0.4537(2) 0.36124(16)
N3_4 N 0.0181(2) 0.9394(3) 0.0741(2)
C2_4 C 0.2176(2) 0.3917(2) 0.30774(18)
H1_4 H 0.2150 0.3238 0.3125
C3_4 C 0.2316(2) 0.5705(2) 0.17576(16)
C4_4 C 0.2178(2) 0.4110(2) 0.42637(16)
C5_4 C 0.2262(2) 0.5943(2) 0.29314(18)
C6_4 C 0.2257(2) 0.5316(2) 0.24034(17)
C7_4 C 0.2204(2) 0.4304(2) 0.24767(17)
H2_4 H 0.2187 0.3885 0.2116
C8_4 C 0.2219(2) 0.5558(2) 0.35435(17)
H3_4 H 0.2212 0.5976 0.3895
C10_4 C 0.0738(2) 0.7733(3) 0.0384(2)
H5_4 H 0.1153 0.8189 0.0654
N5_4 N 0.2311(5) 0.6943(4) 0.2918(4)
H12_4 H 0.2342 0.7231 0.2561
H13_4 H 0.2311 0.7287 0.3265
Cd4_4 Cd 0.23751(2) 0.34825(2) 0.55926(2)
C11_4 C 0.0364(2) 0.6248(3) 0.9801(2)
H6_4 H 0.0527 0.5666 0.9662
O6_4 O 0.23131(16) 0.67998(17) 0.93904(12)
O7_4 O 0.20646(16) 0.53393(17) 0.96963(12)
C9_4 C 0.9049(2) 0.0446(3) 0.07526(19)
H4_4 H 0.8642 0.0006 0.0449
C12_4 C 0.9394(2) 0.1874(3) 0.1415(2)
H7_4 H 0.9221 0.2429 0.1578
C13_4 C 0.9897(2) 0.0253(3) 0.0958(2)
C1_5 C 0.7189(2) 0.0463(2) 0.86124(16)
C2_5 C 0.7176(2) 0.1083(2) 0.80774(18)
H1_5 H 0.7150 0.1762 0.8125
C4_5 C 0.7178(2) 0.0890(2) 0.92637(16)
C7_5 C 0.7204(2) 0.0696(2) 0.74767(17)
H2_5 H 0.7187 0.1115 0.7116
O1_5 O 0.71851(18) 0.98561(17) 0.62434(13)
O4_5 O 0.74985(19) 0.84059(17) 0.67444(14)
N1_5 N 0.59671(19) 0.8096(2) 0.51824(16)
N2_3 N 0.37997(18) 0.3754(2) 0.59773(16)
N3_5 N 0.5181(2) 0.5606(3) 0.5741(2)
C3_5 C 0.7316(2) 0.9295(2) 0.67576(16)
C5_5 C 0.7262(2) 0.9057(2) 0.79314(18)
C6_5 C 0.7257(2) 0.9684(2) 0.74034(17)
C8_5 C 0.7219(2) 0.9442(2) 0.85435(17)
H3_5 H 0.7212 0.9024 0.8895
C9_5 C 0.4049(2) 0.4554(3) 0.57526(19)
H4_5 H 0.3642 0.4994 0.5449
C10_5 C 0.5738(2) 0.7267(3) 0.5384(2)
H5_5 H 0.6153 0.6811 0.5654
C11_5 C 0.5364(2) 0.8752(3) 0.4801(2)
H6_5 H 0.5527 0.9334 0.4662
C12_5 C 0.4394(2) 0.3126(3) 0.6415(2)
H7_5 H 0.4221 0.2571 0.6578
C13_5 C 0.4897(2) 0.4747(3) 0.5958(2)
N4_3 N 0.4623(2) 0.6192(3) 0.5410(3)
C14_3 C 0.5498(3) 0.4090(3) 0.6393(3)
H8_3 H 0.6070 0.4199 0.6524
C15_3 C 0.4519(3) 0.8607(3) 0.4606(3)
H9_3 H 0.4117 0.9077 0.4339
C16_3 C 0.4902(3) 0.7068(3) 0.5204(3)
C17_3 C 0.5245(3) 0.3269(3) 0.6632(3)
H10_3 H 0.5642 0.2820 0.6934
C18_3 C 0.4279(3) 0.7748(4) 0.4817(3)
H11_3 H 0.3712 0.7627 0.4702
N5_5 N 0.7311(5) 0.8057(4) 0.7918(4)
H12_5 H 0.7342 0.7769 0.7561
H13_5 H 0.7311 0.7713 0.8265
N6_3 N 0.87997(18) 0.8754(2) 0.59773(16)
C1_6 C 0.2811(2) 0.0463(2) 0.63876(16)
C2_6 C 0.2824(2) 0.1083(2) 0.69226(18)
H1_6 H 0.2850 0.1762 0.6875
C4_6 C 0.2822(2) 0.0890(2) 0.57363(16)
C7_6 C 0.2796(2) 0.0696(2) 0.75233(17)
H2_6 H 0.2813 0.1115 0.7884
C11_6 C 0.4636(2) 0.8752(3) 0.0199(2)
H6_6 H 0.4473 0.9334 0.0338
C15_4 C 0.5481(3) 0.8607(3) 0.0394(3)
H9_4 H 0.5883 0.9077 0.0661
C18_4 C 0.5721(3) 0.7748(4) 0.0183(3)
H11_4 H 0.6288 0.7627 0.0298
O1_6 O 0.28149(18) 0.98561(17) 0.87566(13)
O4_6 O 0.25015(19) 0.84059(17) 0.82556(14)
N1_6 N 0.40329(19) 0.8096(2) 0.98176(16)
N2_4 N 0.62003(18) 0.3754(2) 0.90227(16)
N3_6 N 0.4819(2) 0.5606(3) 0.9259(2)
C3_6 C 0.2684(2) 0.9295(2) 0.82424(16)
C5_6 C 0.2738(2) 0.9057(2) 0.70686(18)
C6_6 C 0.2743(2) 0.9684(2) 0.75966(17)
C8_6 C 0.2781(2) 0.9442(2) 0.64565(17)
H3_6 H 0.2788 0.9024 0.6105
C9_6 C 0.5951(2) 0.4554(3) 0.92474(19)
H4_6 H 0.6358 0.4994 0.9551
C10_6 C 0.4262(2) 0.7267(3) 0.9616(2)
H5_6 H 0.3847 0.6811 0.9346
C12_6 C 0.5606(2) 0.3126(3) 0.8585(2)
H7_6 H 0.5779 0.2571 0.8422
C13_6 C 0.5103(2) 0.4747(3) 0.9042(2)
N4_4 N 0.5377(2) 0.6192(3) 0.9590(3)
C14_4 C 0.4502(3) 0.4090(3) 0.8607(3)
H8_4 H 0.3930 0.4199 0.8476
C16_4 C 0.5098(3) 0.7068(3) 0.9796(3)
C17_4 C 0.4755(3) 0.3269(3) 0.8368(3)
H10_4 H 0.4358 0.2820 0.8066
N5_6 N 0.2689(5) 0.8057(4) 0.7082(4)
H12_6 H 0.2658 0.7769 0.7439
H13_6 H 0.2689 0.7713 0.6735
N6_4 N 0.12003(18) 0.8754(2) 0.90227(16)
O1_7 O 0.21851(18) 0.48561(17) 0.62434(13)
O4_7 O 0.24985(19) 0.34059(17) 0.67444(14)
N1_7 N 0.09671(19) 0.3096(2) 0.51824(16)
C1_7 C 0.2189(2) 0.5463(2) 0.86124(16)
N3_7 N 0.0181(2) 0.0606(3) 0.5741(2)
C2_7 C 0.2176(2) 0.6083(2) 0.80774(18)
H1_7 H 0.2150 0.6762 0.8125
C3_7 C 0.2316(2) 0.4295(2) 0.67576(16)
C4_7 C 0.2178(2) 0.5890(2) 0.92637(16)
C5_7 C 0.2262(2) 0.4057(2) 0.79314(18)
C6_7 C 0.2257(2) 0.4684(2) 0.74034(17)
C7_7 C 0.2204(2) 0.5696(2) 0.74767(17)
H2_7 H 0.2187 0.6115 0.7116
C8_7 C 0.2219(2) 0.4442(2) 0.85435(17)
H3_7 H 0.2212 0.4024 0.8895
C10_7 C 0.0738(2) 0.2267(3) 0.5384(2)
H5_7 H 0.1153 0.1811 0.5654
C11_7 C 0.0364(2) 0.3752(3) 0.4801(2)
H6_7 H 0.0527 0.4334 0.4662
N5_7 N 0.2311(5) 0.3057(4) 0.7918(4)
H12_7 H 0.2342 0.2769 0.7561
H13_7 H 0.2311 0.2713 0.8265
C9_7 C 0.9049(2) 0.9554(3) 0.57526(19)
H4_7 H 0.8642 0.9994 0.5449
C12_7 C 0.9394(2) 0.8126(3) 0.6415(2)
H7_7 H 0.9221 0.7571 0.6578
C13_7 C 0.9897(2) 0.9747(3) 0.5958(2)
C9_8 C 0.0951(2) 0.9554(3) 0.92474(19)
H4_8 H 0.1358 0.9994 0.9551
C12_8 C 0.0606(2) 0.8126(3) 0.8585(2)
H7_8 H 0.0779 0.7571 0.8422
C13_8 C 0.0103(2) 0.9747(3) 0.9042(2)
C11_8 C 0.9636(2) 0.3752(3) 0.0199(2)
H6_8 H 0.9473 0.4334 0.0338
O1_8 O 0.78149(18) 0.48561(17) 0.87566(13)
O4_8 O 0.75015(19) 0.34059(17) 0.82556(14)
N1_8 N 0.90329(19) 0.3096(2) 0.98176(16)
C1_8 C 0.7811(2) 0.5463(2) 0.63876(16)
N3_8 N 0.9819(2) 0.0606(3) 0.9259(2)
C2_8 C 0.7824(2) 0.6083(2) 0.69226(18)
H1_8 H 0.7850 0.6762 0.6875
C3_8 C 0.7684(2) 0.4295(2) 0.82424(16)
C4_8 C 0.7822(2) 0.5890(2) 0.57363(16)
C5_8 C 0.7738(2) 0.4057(2) 0.70686(18)
C6_8 C 0.7743(2) 0.4684(2) 0.75966(17)
C7_8 C 0.7796(2) 0.5696(2) 0.75233(17)
H2_8 H 0.7813 0.6115 0.7884
C8_8 C 0.7781(2) 0.4442(2) 0.64565(17)
H3_8 H 0.7788 0.4024 0.6105
C10_8 C 0.9262(2) 0.2267(3) 0.9616(2)
H5_8 H 0.8847 0.1811 0.9346
N5_8 N 0.7689(5) 0.3057(4) 0.7082(4)
H12_8 H 0.7658 0.2769 0.7439
H13_8 H 0.7689 0.2713 0.6735
N4_5 N 0.0377(2) 0.8808(3) 0.4590(3)
C15_5 C 0.0481(3) 0.6393(3) 0.5394(3)
H9_5 H 0.0883 0.5923 0.5661
C16_5 C 0.0098(3) 0.7932(3) 0.4796(3)
C18_5 C 0.0721(3) 0.7252(4) 0.5183(3)
H11_5 H 0.1288 0.7373 0.5298
C14_5 C 0.9502(3) 0.0910(3) 0.3607(3)
H8_5 H 0.8930 0.0801 0.3476
C17_5 C 0.9755(3) 0.1731(3) 0.3368(3)
H10_5 H 0.9358 0.2180 0.3066
C14_6 C 0.0498(3) 0.0910(3) 0.1393(3)
H8_6 H 0.1070 0.0801 0.1524
C17_6 C 0.0245(3) 0.1731(3) 0.1632(3)
H10_6 H 0.0642 0.2180 0.1934
N4_6 N 0.9623(2) 0.8808(3) 0.0410(3)
C16_6 C 0.9902(3) 0.7932(3) 0.0204(3)
C15_6 C 0.9519(3) 0.6393(3) 0.9606(3)
H9_6 H 0.9117 0.5923 0.9339
C18_6 C 0.9279(3) 0.7252(4) 0.9817(3)
H11_6 H 0.8712 0.7373 0.9702
C14_7 C 0.0498(3) 0.9090(3) 0.6393(3)
H8_7 H 0.1070 0.9199 0.6524
C17_7 C 0.0245(3) 0.8269(3) 0.6632(3)
H10_7 H 0.0642 0.7820 0.6934
N4_7 N 0.9623(2) 0.1192(3) 0.5410(3)
C15_7 C 0.9519(3) 0.3607(3) 0.4606(3)
H9_7 H 0.9117 0.4077 0.4339
C16_7 C 0.9902(3) 0.2068(3) 0.5204(3)
C18_7 C 0.9279(3) 0.2748(4) 0.4817(3)
H11_7 H 0.8712 0.2627 0.4702
C15_8 C 0.0481(3) 0.3607(3) 0.0394(3)
H9_8 H 0.0883 0.4077 0.0661
C18_8 C 0.0721(3) 0.2748(4) 0.0183(3)
H11_8 H 0.1288 0.2627 0.0298
N4_8 N 0.0377(2) 0.1192(3) 0.9590(3)
C16_8 C 0.0098(3) 0.2068(3) 0.9796(3)
C14_8 C 0.9502(3) 0.9090(3) 0.8607(3)
H8_8 H 0.8930 0.9199 0.8476
C17_8 C 0.9755(3) 0.8269(3) 0.8368(3)
H10_8 H 0.9358 0.7820 0.8066
loop_
_geom_bond_atom_site_label_1
_geom_bond_atom_site_label_2
_geom_bond_site_symmetry_1
_geom_bond_site_symmetry_2
Cd1 O1 1_555 1_555
O1 C3 1_555 1_555
O4 Cd1 1_555 1_555
N1 Cd1 1_555 1_555
N2 C9 1_555 1_555
N3 C13 1_555 1_555
C3 O4 1_555 1_555
C5 C6 1_555 1_555
C6 C3 1_555 1_555
H3 C8 1_555 1_555
C9 H4 1_555 1_555
C10 N1 1_555 1_555
H5 C10 1_555 1_555
C11 N1 1_555 1_555
H6 C11 1_555 1_555
C12 N2 1_555 1_555
H7 C12 1_555 1_555
C13 C9 1_555 1_555
N4 N3 1_555 1_555
C14 C13 1_555 1_555
H8 C14 1_555 1_555
C15 C11 1_555 1_555
H9 C15 1_555 1_555
C16 C10 1_555 1_555
C17 C12 1_555 1_555
H10 C17 1_555 1_555
C18 C15 1_555 1_555
H11 C18 1_555 1_555
N5 C5 1_555 1_555
H12 N5 1_555 1_555
H13 N5 1_555 1_555
Cd2 N2 1_555 1_555
O5 Cd1 1_555 1_555
O6 Cd1 1_555 1_555
O7 Cd1 1_555 1_555
N6 Cd1 1_555 1_555
C5 C8 1_555 1_555
N4 C16 1_555 1_555
C14 C17 1_555 1_555
C16 C18 1_555 1_555
O2 C4 1_555 1_555
O3 C4 1_555 1_555
C1 C2 1_555 1_555
C2 H1 1_555 1_555
C4 C1 1_555 1_555
C7 C2 1_555 1_555
H2 C7 1_555 1_555
Cd3 O2 1_555 1_555
Cd1_2 O1_2 1_555 1_555
O1_2 C3_2 1_555 1_555
O4_2 Cd1_2 1_555 1_555
N1_2 Cd1_2 1_555 1_555
N2_2 C9_2 1_555 1_555
N3_2 C13_2 1_555 1_555
C3_2 O4_2 1_555 1_555
C5_2 C6_2 1_555 1_555
C6_2 C3_2 1_555 1_555
H3_2 C8_2 1_555 1_555
C9_2 H4_2 1_555 1_555
C10_2 N1_2 1_555 1_555
H5_2 C10_2 1_555 1_555
C12_2 N2_2 1_555 1_555
H7_2 C12_2 1_555 1_555
C13_2 C9_2 1_555 1_555
N4_2 N3_2 1_555 1_555
C14_2 C13_2 1_555 1_555
H8_2 C14_2 1_555 1_555
C16_2 C10_2 1_555 1_555
C17_2 C12_2 1_555 1_555
H10_2 C17_2 1_555 1_555
N5_2 C5_2 1_555 1_555
H12_2 N5_2 1_555 1_555
H13_2 N5_2 1_555 1_555
Cd3 N2_2 1_555 1_555
O5_2 Cd1_2 1_555 1_555
N6_2 Cd1_2 1_555 1_555
C5_2 C8_2 1_555 1_555
N4_2 C16_2 1_555 1_555
C14_2 C17_2 1_555 1_555
H6_2 C11_2 1_555 1_555
C15_2 C11_2 1_555 1_555
H9_2 C15_2 1_555 1_555
C18_2 C15_2 1_555 1_555
H11_2 C18_2 1_555 1_555
O2_2 C4_2 1_555 1_555
O3_2 C4_2 1_555 1_555
C1_2 C2_2 1_555 1_555
C2_2 H1_2 1_555 1_555
C4_2 C1_2 1_555 1_555
C7_2 C2_2 1_555 1_555
H2_2 C7_2 1_555 1_555
Cd2 O2_2 1_555 1_555
Cd4_2 O2_2 1_555 1_555
O3_2 Cd4_2 1_555 1_555
N6 C9_3 1_555 1_555
C9_3 H4_3 1_555 1_555
C12_3 N6 1_555 1_555
H7_3 C12_3 1_555 1_555
C13_3 C9_3 1_555 1_555
Cd2 O1_3 1_555 1_555
O1_3 C3_3 1_555 1_555
O5_2 C4_3 1_555 1_555
O3_3 C4_3 1_555 1_555
O4_3 Cd2 1_555 1_555
N1_3 Cd2 1_555 1_555
C1_3 C2_3 1_555 1_555
C2_3 H1_3 1_555 1_555
C3_3 O4_3 1_555 1_555
C4_3 C1_3 1_555 1_555
C5_3 C6_3 1_555 1_555
C6_3 C3_3 1_555 1_555
C7_3 C2_3 1_555 1_555
H2_3 C7_3 1_555 1_555
C8_3 C1_3 1_555 1_555
H3_3 C8_3 1_555 1_555
C10_3 N1_3 1_555 1_555
H5_3 C10_3 1_555 1_555
C11_3 N1_3 1_555 1_555
H6_3 C11_3 1_555 1_555
N5_3 C5_3 1_555 1_555
H12_3 N5_3 1_555 1_555
H13_3 N5_3 1_555 1_555
O6_3 Cd2 1_555 1_555
O7_3 Cd2 1_555 1_555
C5_3 C8_3 1_555 1_555
C6_3 C7_3 1_555 1_555
Cd3 O1_4 1_555 1_555
O1_4 C3_4 1_555 1_555
O5 C4_4 1_555 1_555
O3_4 C4_4 1_555 1_555
O4_4 Cd3 1_555 1_555
N1_4 Cd3 1_555 1_555
C1_4 C2_4 1_555 1_555
C2_4 H1_4 1_555 1_555
C3_4 O4_4 1_555 1_555
C4_4 C1_4 1_555 1_555
C5_4 C6_4 1_555 1_555
C6_4 C3_4 1_555 1_555
C7_4 C2_4 1_555 1_555
H2_4 C7_4 1_555 1_555
C8_4 C1_4 1_555 1_555
H3_4 C8_4 1_555 1_555
C10_4 N1_4 1_555 1_555
H5_4 C10_4 1_555 1_555
N5_4 C5_4 1_555 1_555
H12_4 N5_4 1_555 1_555
H13_4 N5_4 1_555 1_555
Cd4_4 O5 1_555 1_555
O3_4 Cd4_4 1_555 1_555
C5_4 C8_4 1_555 1_555
C6_4 C7_4 1_555 1_555
H6_4 C11_4 1_555 1_555
N6_2 C9_4 1_555 1_555
C9_4 H4_4 1_555 1_555
C12_4 N6_2 1_555 1_555
H7_4 C12_4 1_555 1_555
C13_4 C9_4 1_555 1_555
O6_2 C4_5 1_555 1_555
O7_2 C4_5 1_555 1_555
C1_5 C2_5 1_555 1_555
C2_5 H1_5 1_555 1_555
C4_5 C1_5 1_555 1_555
C7_5 C2_5 1_555 1_555
H2_5 C7_5 1_555 1_555
Cd4_3 O6_2 1_555 1_555
Cd4_2 O1_5 1_555 1_555
O1_5 C3_5 1_555 1_555
O4_5 Cd4_2 1_555 1_555
N1_5 Cd4_2 1_555 1_555
N2_3 C9_5 1_555 1_555
N3_5 C13_5 1_555 1_555
C3_5 O4_5 1_555 1_555
C5_5 C6_5 1_555 1_555
C6_5 C3_5 1_555 1_555
H3_5 C8_5 1_555 1_555
C9_5 H4_5 1_555 1_555
C10_5 N1_5 1_555 1_555
H5_5 C10_5 1_555 1_555
C11_5 N1_5 1_555 1_555
H6_5 C11_5 1_555 1_555
C12_5 N2_3 1_555 1_555
H7_5 C12_5 1_555 1_555
C13_5 C9_5 1_555 1_555
N4_3 N3_5 1_555 1_555
C14_3 C13_5 1_555 1_555
H8_3 C14_3 1_555 1_555
C15_3 C11_5 1_555 1_555
H9_3 C15_3 1_555 1_555
C16_3 C10_5 1_555 1_555
C17_3 C12_5 1_555 1_555
H10_3 C17_3 1_555 1_555
C18_3 C15_3 1_555 1_555
H11_3 C18_3 1_555 1_555
N5_5 C5_5 1_555 1_555
H12_5 N5_5 1_555 1_555
H13_5 N5_5 1_555 1_555
Cd4_4 N2_3 1_555 1_555
O6_3 Cd4_2 1_555 1_555
N6_3 Cd4_2 1_555 1_555
C5_5 C8_5 1_555 1_555
N4_3 C16_3 1_555 1_555
C14_3 C17_3 1_555 1_555
C16_3 C18_3 1_555 1_555
O6 C4_6 1_555 1_555
O7 C4_6 1_555 1_555
C1_6 C2_6 1_555 1_555
C2_6 H1_6 1_555 1_555
C4_6 C1_6 1_555 1_555
C7_6 C2_6 1_555 1_555
H2_6 C7_6 1_555 1_555
Cd4_4 O6 1_555 1_555
H6_6 C11_6 1_555 1_555
C15_4 C11_6 1_555 1_555
H9_4 C15_4 1_555 1_555
C18_4 C15_4 1_555 1_555
H11_4 C18_4 1_555 1_555
Cd4 O1_6 1_555 1_555
O1_6 C3_6 1_555 1_555
O4_6 Cd4 1_555 1_555
N1_6 Cd4 1_555 1_555
N2_4 C9_6 1_555 1_555
N3_6 C13_6 1_555 1_555
C3_6 O4_6 1_555 1_555
C5_6 C6_6 1_555 1_555
C6_6 C3_6 1_555 1_555
H3_6 C8_6 1_555 1_555
C9_6 H4_6 1_555 1_555
C10_6 N1_6 1_555 1_555
H5_6 C10_6 1_555 1_555
C12_6 N2_4 1_555 1_555
H7_6 C12_6 1_555 1_555
C13_6 C9_6 1_555 1_555
N4_4 N3_6 1_555 1_555
C14_4 C13_6 1_555 1_555
H8_4 C14_4 1_555 1_555
C16_4 C10_6 1_555 1_555
C17_4 C12_6 1_555 1_555
H10_4 C17_4 1_555 1_555
N5_6 C5_6 1_555 1_555
H12_6 N5_6 1_555 1_555
H13_6 N5_6 1_555 1_555
Cd4_3 N2_4 1_555 1_555
O6_4 Cd4 1_555 1_555
N6_4 Cd4 1_555 1_555
C5_6 C8_6 1_555 1_555
N4_4 C16_4 1_555 1_555
C14_4 C17_4 1_555 1_555
Cd4_4 O1_7 1_555 1_555
O1_7 C3_7 1_555 1_555
O6_4 C4_7 1_555 1_555
O7_4 C4_7 1_555 1_555
O4_7 Cd4_4 1_555 1_555
N1_7 Cd4_4 1_555 1_555
C1_7 C2_7 1_555 1_555
C2_7 H1_7 1_555 1_555
C3_7 O4_7 1_555 1_555
C4_7 C1_7 1_555 1_555
C5_7 C6_7 1_555 1_555
C6_7 C3_7 1_555 1_555
C7_7 C2_7 1_555 1_555
H2_7 C7_7 1_555 1_555
C8_7 C1_7 1_555 1_555
H3_7 C8_7 1_555 1_555
C10_7 N1_7 1_555 1_555
H5_7 C10_7 1_555 1_555
C11_7 N1_7 1_555 1_555
H6_7 C11_7 1_555 1_555
N5_7 C5_7 1_555 1_555
H12_7 N5_7 1_555 1_555
H13_7 N5_7 1_555 1_555
C5_7 C8_7 1_555 1_555
C6_7 C7_7 1_555 1_555
N6_3 C9_7 1_555 1_555
C9_7 H4_7 1_555 1_555
C12_7 N6_3 1_555 1_555
H7_7 C12_7 1_555 1_555
C13_7 C9_7 1_555 1_555
N6_4 C9_8 1_555 1_555
C9_8 H4_8 1_555 1_555
C12_8 N6_4 1_555 1_555
H7_8 C12_8 1_555 1_555
C13_8 C9_8 1_555 1_555
H6_8 C11_8 1_555 1_555
Cd4_3 O1_8 1_555 1_555
O1_8 C3_8 1_555 1_555
O6_3 C4_8 1_555 1_555
O7_3 C4_8 1_555 1_555
O4_8 Cd4_3 1_555 1_555
N1_8 Cd4_3 1_555 1_555
C1_8 C2_8 1_555 1_555
C2_8 H1_8 1_555 1_555
C3_8 O4_8 1_555 1_555
C4_8 C1_8 1_555 1_555
C5_8 C6_8 1_555 1_555
C6_8 C3_8 1_555 1_555
C7_8 C2_8 1_555 1_555
H2_8 C7_8 1_555 1_555
C8_8 C1_8 1_555 1_555
H3_8 C8_8 1_555 1_555
C10_8 N1_8 1_555 1_555
H5_8 C10_8 1_555 1_555
N5_8 C5_8 1_555 1_555
H12_8 N5_8 1_555 1_555
H13_8 N5_8 1_555 1_555
C5_8 C8_8 1_555 1_555
C6_8 C7_8 1_555 1_555
H9_5 C15_5 1_555 1_555
C18_5 C15_5 1_555 1_555
H11_5 C18_5 1_555 1_555
N4_5 C16_5 1_555 1_555
C16_5 C18_5 1_555 1_555
H8_5 C14_5 1_555 1_555
H10_5 C17_5 1_555 1_555
C14_5 C17_5 1_555 1_555
H8_6 C14_6 1_555 1_555
H10_6 C17_6 1_555 1_555
C14_6 C17_6 1_555 1_555
N4_6 C16_6 1_555 1_555
H9_6 C15_6 1_555 1_555
C18_6 C15_6 1_555 1_555
H11_6 C18_6 1_555 1_555
H8_7 C14_7 1_555 1_555
H10_7 C17_7 1_555 1_555
C14_7 C17_7 1_555 1_555
H9_7 C15_7 1_555 1_555
C18_7 C15_7 1_555 1_555
H11_7 C18_7 1_555 1_555
N4_7 C16_7 1_555 1_555
C16_7 C18_7 1_555 1_555
H9_8 C15_8 1_555 1_555
C18_8 C15_8 1_555 1_555
H11_8 C18_8 1_555 1_555
N4_8 C16_8 1_555 1_555
H8_8 C14_8 1_555 1_555
H10_8 C17_8 1_555 1_555
C14_8 C17_8 1_555 1_555

#END
