
###############################################################################
#
# This file contains modified crystal structure data generated from the
# MOF subset of the Cambridge Structural Database (CSD) v543 
# hosted by the Cambridge Crystallographic Data Centre (CCDC).
#
# This work is licensed under the Creative Commons
# Attribution-NonCommercial-ShareAlike 4.0 International License.
# To view a copy of this license, visit
# http://creativecommons.org/licenses/by-nc-sa/4.0/
# or send a letter to
# Creative Commons, PO Box 1866, Mountain View, CA 94042, USA.
#
# CIF created using the CSD Python API on 29 September 2022
# The structure has been converted into the P1 space group
# The structure has a 3D framework
# The original CSD entry JIHWAB is in the monoclinic crystal system
# The framework has been calculated to contain at least 10.0% void space
# The void calculation uses a probe of radius 1.32A, grid spacing 0.4
# H atom positions have been added when not included in the experimental data
# Generated hydrogen atom positions removed from atoms on special positions
#
###############################################################################

data_JIHWAB
_chemical_formula_moiety         '(C160 H120 Cd10 N8 O60)n'
_symmetry_cell_setting           triclinic
_symmetry_space_group_name_H-M   'P 1'
_symmetry_Int_Tables_number      1
_space_group_name_Hall           'P 1'
loop_
_symmetry_equiv_pos_site_id
_symmetry_equiv_pos_as_xyz
1 x,y,z
_cell_length_a                   17.9429(10)
_cell_length_b                   16.8878(9)
_cell_length_c                   19.2230(16)
_cell_angle_alpha                90
_cell_angle_beta                 117.235(2)
_cell_angle_gamma                90
_cell_volume                     5179.11
loop_
_atom_site_label
_atom_site_type_symbol
_atom_site_fract_x
_atom_site_fract_y
_atom_site_fract_z
Cd10 Cd 0.7500 0.2500 0.0000
Cd1 Cd 0.29355(3) 0.42807(3) 0.41696(3)
Cd2 Cd 0.2500 0.2500 0.5000
O1 O 0.4314(3) 0.4255(3) 0.5382(3)
O2 O 0.5381(3) 0.1026(3) 0.6664(3)
O3 O 0.3589(3) 0.3182(3) 0.4926(3)
O4 O 0.6910(4) 0.1159(4) 0.8043(3)
O7 O 0.6834(4) 0.2128(5) 0.8752(3)
N1 N 0.3771(4) 0.4274(4) 0.3511(4)
C1 C 0.4221(4) 0.3546(4) 0.5436(4)
C2 C 0.4742(5) 0.4323(4) 0.2709(4)
C3 C 0.3418(5) 0.4376(5) 0.2733(5)
H1 H 0.2839 0.4429 0.2457
C4 C 0.6005(4) 0.2233(4) 0.7395(4)
C5 C 0.5419(4) 0.3471(4) 0.6787(4)
H2 H 0.5420 0.4021 0.6809
C6 C 0.4853(4) 0.3086(4) 0.6119(4)
C7 C 0.5799(5) 0.0649(4) 0.6318(4)
C8 C 0.6286(4) 0.1030(5) 0.6038(4)
H3 H 0.6354 0.1577 0.6080
C9 C 0.6630(4) 0.1774(6) 0.8113(4)
C10 C 0.6671(5) 0.0581(4) 0.5692(4)
H4 H 0.6985 0.0840 0.5487
C11 C 0.4860(4) 0.2265(4) 0.6095(4)
H5 H 0.4471 0.1997 0.5656
C13 C 0.3884(5) 0.4404(5) 0.2329(4)
H6 H 0.3614 0.4478 0.1790
C14 C 0.5974(4) 0.3051(5) 0.7411(4)
H7 H 0.6342 0.3319 0.7861
C16 C 0.5103(5) 0.4246(5) 0.3509(5)
H8 H 0.5681 0.4200 0.3797
C17 C 0.5439(4) 0.1854(4) 0.6717(4)
C18 C 0.4607(5) 0.4236(5) 0.3883(5)
H9 H 0.4869 0.4200 0.4426
O8 O 0.2762(4) 0.5617(4) 0.3836(5)
N2 N 0.6229(4) 0.4274(4) 0.1489(4)
C21 C 0.5258(5) 0.4323(4) 0.2291(4)
C22 C 0.6582(5) 0.4376(5) 0.2267(5)
H12 H 0.7161 0.4429 0.2543
C23 C 0.6116(5) 0.4404(5) 0.2671(4)
H13 H 0.6386 0.4478 0.3210
C24 C 0.4897(5) 0.4246(5) 0.1491(5)
H14 H 0.4319 0.4200 0.1203
C25 C 0.5393(5) 0.4236(5) 0.1117(5)
H15 H 0.5131 0.4200 0.0574
Cd3 Cd 0.70645(3) 0.42807(3) 0.08304(3)
O11 O 0.6411(3) 0.3182(3) 0.0074(3)
O16 O 0.7238(4) 0.5617(4) 0.1164(5)
Cd7 Cd 0.79355(3) 0.07193(3) 0.91696(3)
Cd10_2 Cd 0.7500 0.2500 1.0000
O17 O 0.1411(3) 0.1818(3) 0.5074(3)
O18 O 0.8090(4) 0.3841(4) 0.1957(3)
O19 O 0.1910(4) 0.3841(4) 0.3043(3)
O20 O 0.2057(5) 0.3552(3) 0.5371(4)
O21 O 0.2943(5) 0.1448(3) 0.4629(4)
O22 O 0.2376(4) 0.4670(4) 0.4932(4)
O23 O 0.7624(4) 0.4670(4) 0.0068(4)
O24 O 0.3166(4) 0.2128(5) 0.6248(3)
O25 O 0.1834(4) 0.2872(5) 0.3752(3)
O9 O 0.5686(3) 0.4255(3) 0.9618(3)
O10 O 0.4619(3) 0.1026(3) 0.8336(3)
O12 O 0.3090(4) 0.1159(4) 0.6957(3)
C26 C 0.5779(4) 0.3546(4) 0.9564(4)
C27 C 0.3995(4) 0.2233(4) 0.7605(4)
C28 C 0.4581(4) 0.3471(4) 0.8213(4)
H16 H 0.4580 0.4021 0.8191
C29 C 0.5147(4) 0.3086(4) 0.8881(4)
C30 C 0.4201(5) 0.0649(4) 0.8682(4)
C31 C 0.3714(4) 0.1030(5) 0.8962(4)
H17 H 0.3646 0.1577 0.8920
C32 C 0.3370(4) 0.1774(6) 0.6887(4)
C33 C 0.3329(5) 0.0581(4) 0.9308(4)
H18 H 0.3015 0.0840 0.9513
C34 C 0.5140(4) 0.2265(4) 0.8905(4)
H19 H 0.5529 0.1997 0.9344
C36 C 0.4026(4) 0.3051(5) 0.7589(4)
H20 H 0.3658 0.3319 0.7139
C38 C 0.4561(4) 0.1854(4) 0.8283(4)
Cd6 Cd 0.20645(3) 0.07193(3) 0.58304(3)
O5 O 0.7057(5) 0.8552(3) 0.5371(4)
O6 O 0.7376(4) 0.9670(4) 0.4932(4)
C12 C 0.6610(5) 0.9778(4) 0.5637(5)
C15 C 0.7040(5) 0.9277(5) 0.5285(5)
C19 C 0.6084(7) 0.9418(5) 0.5896(7)
H10 H 0.6006 0.8873 0.5841
C20 C 0.5677(6) 0.9842(5) 0.6231(6)
H11 H 0.5325 0.9588 0.6395
O14 O 0.2624(4) 0.9670(4) 0.0068(4)
Cd4 Cd 0.79355(3) 0.92807(3) 0.41696(3)
Cd5 Cd 0.20645(3) 0.92807(3) 0.08304(3)
Cd11 Cd 0.7500 0.7500 0.5000
Cd12 Cd 0.2500 0.7500 0.0000
O13 O 0.2943(5) 0.8552(3) 0.9629(4)
C35 C 0.3390(5) 0.9778(4) 0.9363(5)
C37 C 0.2960(5) 0.9277(5) 0.9715(5)
C39 C 0.3916(7) 0.9418(5) 0.9104(7)
H21 H 0.3994 0.8873 0.9159
C40 C 0.4323(6) 0.9842(5) 0.8769(6)
H22 H 0.4675 0.9588 0.8605
Cd12_2 Cd 0.2500 0.7500 1.0000
O21_2 O 0.7057(5) 0.1448(3) 0.0371(4)
O25_2 O 0.8166(4) 0.2872(5) 0.1248(3)
O17_2 O 0.8589(3) 0.1818(3) 0.9926(3)
O20_2 O 0.7943(5) 0.3552(3) 0.9629(4)
O2_2 O 0.0381(3) 0.6026(3) 0.6664(3)
O4_2 O 0.1910(4) 0.6159(4) 0.8043(3)
O7_2 O 0.1834(4) 0.7128(5) 0.8752(3)
C4_2 C 0.1005(4) 0.7233(4) 0.7395(4)
C5_2 C 0.0419(4) 0.8471(4) 0.6787(4)
H2_2 H 0.0420 0.9021 0.6809
C7_2 C 0.0799(5) 0.5649(4) 0.6318(4)
C8_2 C 0.1286(4) 0.6030(5) 0.6038(4)
H3_2 H 0.1354 0.6577 0.6080
C9_2 C 0.1630(4) 0.6774(6) 0.8113(4)
C10_2 C 0.1671(5) 0.5581(4) 0.5692(4)
H4_2 H 0.1985 0.5840 0.5487
C12_2 C 0.1610(5) 0.4778(4) 0.5637(5)
C14_2 C 0.0974(4) 0.8051(5) 0.7411(4)
H7_2 H 0.1342 0.8319 0.7861
C15_2 C 0.2040(5) 0.4277(5) 0.5285(5)
C16_2 C 0.0103(5) 0.9246(5) 0.3509(5)
H8_2 H 0.0681 0.9200 0.3797
C17_2 C 0.0439(4) 0.6854(4) 0.6717(4)
C19_2 C 0.1084(7) 0.4418(5) 0.5896(7)
H10_2 H 0.1006 0.3873 0.5841
C20_2 C 0.0677(6) 0.4842(5) 0.6231(6)
H11_2 H 0.0325 0.4588 0.6395
N2_2 N 0.1229(4) 0.9274(4) 0.1489(4)
C21_2 C 0.0258(5) 0.9323(4) 0.2291(4)
C22_2 C 0.1582(5) 0.9376(5) 0.2267(5)
H12_2 H 0.2161 0.9429 0.2543
C23_2 C 0.1116(5) 0.9404(5) 0.2671(4)
H13_2 H 0.1386 0.9478 0.3210
C25_2 C 0.0393(5) 0.9236(5) 0.1117(5)
H15_2 H 0.0131 0.9200 0.0574
O11_2 O 0.1411(3) 0.8182(3) 0.0074(3)
Cd7_2 Cd 0.29355(3) 0.57193(3) 0.91696(3)
O18_2 O 0.3090(4) 0.8841(4) 0.1957(3)
O9_2 O 0.0686(3) 0.9255(3) 0.9618(3)
C26_2 C 0.0779(4) 0.8546(4) 0.9564(4)
C29_2 C 0.0147(4) 0.8086(4) 0.8881(4)
C34_2 C 0.0140(4) 0.7265(4) 0.8905(4)
H19_2 H 0.0529 0.6997 0.9344
O1_2 O 0.9314(3) 0.9255(3) 0.5382(3)
O3_2 O 0.8589(3) 0.8182(3) 0.4926(3)
N1_2 N 0.8771(4) 0.9274(4) 0.3511(4)
C1_2 C 0.9221(4) 0.8546(4) 0.5436(4)
C2_2 C 0.9742(5) 0.9323(4) 0.2709(4)
C3_2 C 0.8418(5) 0.9376(5) 0.2733(5)
H1_2 H 0.7839 0.9429 0.2457
C6_2 C 0.9853(4) 0.8086(4) 0.6119(4)
C11_2 C 0.9860(4) 0.7265(4) 0.6095(4)
H5_2 H 0.9471 0.6997 0.5656
C13_2 C 0.8884(5) 0.9404(5) 0.2329(4)
H6_2 H 0.8614 0.9478 0.1790
C18_2 C 0.9607(5) 0.9236(5) 0.3883(5)
H9_2 H 0.9869 0.9200 0.4426
C24_2 C 0.9897(5) 0.9246(5) 0.1491(5)
H14_2 H 0.9319 0.9200 0.1203
O17_3 O 0.6411(3) 0.6818(3) 0.5074(3)
O19_2 O 0.6910(4) 0.8841(4) 0.3043(3)
O21_3 O 0.7943(5) 0.6448(3) 0.4629(4)
O24_2 O 0.8166(4) 0.7128(5) 0.6248(3)
O25_3 O 0.6834(4) 0.7872(5) 0.3752(3)
O10_2 O 0.9619(3) 0.6026(3) 0.8336(3)
O12_2 O 0.8090(4) 0.6159(4) 0.6957(3)
C27_2 C 0.8995(4) 0.7233(4) 0.7605(4)
C28_2 C 0.9581(4) 0.8471(4) 0.8213(4)
H16_2 H 0.9580 0.9021 0.8191
C30_2 C 0.9201(5) 0.5649(4) 0.8682(4)
C31_2 C 0.8714(4) 0.6030(5) 0.8962(4)
H17_2 H 0.8646 0.6577 0.8920
C32_2 C 0.8370(4) 0.6774(6) 0.6887(4)
C33_2 C 0.8329(5) 0.5581(4) 0.9308(4)
H18_2 H 0.8015 0.5840 0.9513
C35_2 C 0.8390(5) 0.4778(4) 0.9363(5)
C36_2 C 0.9026(4) 0.8051(5) 0.7589(4)
H20_2 H 0.8658 0.8319 0.7139
C37_2 C 0.7960(5) 0.4277(5) 0.9715(5)
C38_2 C 0.9561(4) 0.6854(4) 0.8283(4)
C39_2 C 0.8916(7) 0.4418(5) 0.9104(7)
H21_2 H 0.8994 0.3873 0.9159
C40_2 C 0.9323(6) 0.4842(5) 0.8769(6)
H22_2 H 0.9675 0.4588 0.8605
Cd6_2 Cd 0.70645(3) 0.57193(3) 0.58304(3)
O21_4 O 0.2057(5) 0.6448(3) 0.0371(4)
O25_4 O 0.3166(4) 0.7872(5) 0.1248(3)
O17_4 O 0.3589(3) 0.6818(3) 0.9926(3)
C35_3 C 0.6610(5) 0.0222(4) 0.0637(5)
C37_3 C 0.7040(5) 0.0723(5) 0.0285(5)
C39_3 C 0.6084(7) 0.0582(5) 0.0896(7)
H21_3 H 0.6006 0.1127 0.0841
C40_3 C 0.5677(6) 0.0158(5) 0.1231(6)
H22_3 H 0.5325 0.0412 0.1395
O6_2 O 0.2624(4) 0.0330(4) 0.5068(4)
C12_3 C 0.3390(5) 0.0222(4) 0.4363(5)
C15_3 C 0.2960(5) 0.0723(5) 0.4715(5)
C19_3 C 0.3916(7) 0.0582(5) 0.4104(7)
H10_3 H 0.3994 0.1127 0.4159
C20_3 C 0.4323(6) 0.0158(5) 0.3769(6)
H11_3 H 0.4675 0.0412 0.3605
O14_2 O 0.7376(4) 0.0330(4) 0.9932(4)
O9_3 O 0.4314(3) 0.5745(3) 0.0382(3)
O10_3 O 0.5381(3) 0.8974(3) 0.1664(3)
C26_3 C 0.4221(4) 0.6454(4) 0.0436(4)
C27_3 C 0.6005(4) 0.7767(4) 0.2395(4)
C28_3 C 0.5419(4) 0.6529(4) 0.1787(4)
H16_3 H 0.5420 0.5979 0.1809
C29_3 C 0.4853(4) 0.6914(4) 0.1119(4)
C30_3 C 0.5799(5) 0.9351(4) 0.1318(4)
C31_3 C 0.6286(4) 0.8970(5) 0.1038(4)
H17_3 H 0.6354 0.8423 0.1080
C32_3 C 0.6630(4) 0.8226(6) 0.3113(4)
C33_3 C 0.6671(5) 0.9419(4) 0.0692(4)
H18_3 H 0.6985 0.9160 0.0487
C34_3 C 0.4860(4) 0.7735(4) 0.1095(4)
H19_3 H 0.4471 0.8003 0.0656
C36_3 C 0.5974(4) 0.6949(5) 0.2411(4)
H20_3 H 0.6342 0.6681 0.2861
C38_3 C 0.5439(4) 0.8146(4) 0.1717(4)
O1_3 O 0.5686(3) 0.5745(3) 0.4618(3)
O2_3 O 0.4619(3) 0.8974(3) 0.3336(3)
N1_3 N 0.6229(4) 0.5726(4) 0.6489(4)
C1_3 C 0.5779(4) 0.6454(4) 0.4564(4)
C2_3 C 0.5258(5) 0.5677(4) 0.7291(4)
C3_3 C 0.6582(5) 0.5624(5) 0.7267(5)
H1_3 H 0.7161 0.5571 0.7543
C4_3 C 0.3995(4) 0.7767(4) 0.2605(4)
C5_3 C 0.4581(4) 0.6529(4) 0.3213(4)
H2_3 H 0.4580 0.5979 0.3191
C6_3 C 0.5147(4) 0.6914(4) 0.3881(4)
C7_3 C 0.4201(5) 0.9351(4) 0.3682(4)
C8_3 C 0.3714(4) 0.8970(5) 0.3962(4)
H3_3 H 0.3646 0.8423 0.3920
C9_3 C 0.3370(4) 0.8226(6) 0.1887(4)
C10_3 C 0.3329(5) 0.9419(4) 0.4308(4)
H4_3 H 0.3015 0.9160 0.4513
C11_3 C 0.5140(4) 0.7735(4) 0.3905(4)
H5_3 H 0.5529 0.8003 0.4344
C13_3 C 0.6116(5) 0.5596(5) 0.7671(4)
H6_3 H 0.6386 0.5522 0.8210
C14_3 C 0.4026(4) 0.6949(5) 0.2589(4)
H7_3 H 0.3658 0.6681 0.2139
C16_3 C 0.4897(5) 0.5754(5) 0.6491(5)
H8_3 H 0.4319 0.5800 0.6203
C17_3 C 0.4561(4) 0.8146(4) 0.3283(4)
C18_3 C 0.5393(5) 0.5764(5) 0.6117(5)
H9_3 H 0.5131 0.5800 0.5574
O8_2 O 0.7238(4) 0.4383(4) 0.6164(5)
N2_3 N 0.3771(4) 0.5726(4) 0.8511(4)
C21_3 C 0.4742(5) 0.5677(4) 0.7709(4)
C22_3 C 0.3418(5) 0.5624(5) 0.7733(5)
H12_3 H 0.2839 0.5571 0.7457
C23_3 C 0.3884(5) 0.5596(5) 0.7329(4)
H13_3 H 0.3614 0.5522 0.6790
C24_3 C 0.5103(5) 0.5754(5) 0.8509(5)
H14_3 H 0.5681 0.5800 0.8797
C25_3 C 0.4607(5) 0.5764(5) 0.8883(5)
H15_3 H 0.4869 0.5800 0.9426
O16_2 O 0.2762(4) 0.4383(4) 0.8836(5)
O22_2 O 0.7624(4) 0.5330(4) 0.5068(4)
O23_2 O 0.2376(4) 0.5330(4) 0.9932(4)
O10_4 O 0.0381(3) 0.3974(3) 0.1664(3)
C27_4 C 0.1005(4) 0.2767(4) 0.2395(4)
C28_4 C 0.0419(4) 0.1529(4) 0.1787(4)
H16_4 H 0.0420 0.0979 0.1809
C30_4 C 0.0799(5) 0.4351(4) 0.1318(4)
C31_4 C 0.1286(4) 0.3970(5) 0.1038(4)
H17_4 H 0.1354 0.3423 0.1080
C32_4 C 0.1630(4) 0.3226(6) 0.3113(4)
C33_4 C 0.1671(5) 0.4419(4) 0.0692(4)
H18_4 H 0.1985 0.4160 0.0487
C35_4 C 0.1610(5) 0.5222(4) 0.0637(5)
C36_4 C 0.0974(4) 0.1949(5) 0.2411(4)
H20_4 H 0.1342 0.1681 0.2861
C37_4 C 0.2040(5) 0.5723(5) 0.0285(5)
C38_4 C 0.0439(4) 0.3146(4) 0.1717(4)
C39_4 C 0.1084(7) 0.5582(5) 0.0896(7)
H21_4 H 0.1006 0.6127 0.0841
C40_4 C 0.0677(6) 0.5158(5) 0.1231(6)
H22_4 H 0.0325 0.5412 0.1395
O1_4 O 0.0686(3) 0.0745(3) 0.4618(3)
N1_4 N 0.1229(4) 0.0726(4) 0.6489(4)
C1_4 C 0.0779(4) 0.1454(4) 0.4564(4)
C2_4 C 0.0258(5) 0.0677(4) 0.7291(4)
C3_4 C 0.1582(5) 0.0624(5) 0.7267(5)
H1_4 H 0.2161 0.0571 0.7543
C6_4 C 0.0147(4) 0.1914(4) 0.3881(4)
C11_4 C 0.0140(4) 0.2735(4) 0.3905(4)
H5_4 H 0.0529 0.3003 0.4344
C13_4 C 0.1116(5) 0.0596(5) 0.7671(4)
H6_4 H 0.1386 0.0522 0.8210
C18_4 C 0.0393(5) 0.0764(5) 0.6117(5)
H9_4 H 0.0131 0.0800 0.5574
C24_4 C 0.0103(5) 0.0754(5) 0.8509(5)
H14_4 H 0.0681 0.0800 0.8797
O9_4 O 0.9314(3) 0.0745(3) 0.0382(3)
C26_4 C 0.9221(4) 0.1454(4) 0.0436(4)
C29_4 C 0.9853(4) 0.1914(4) 0.1119(4)
C34_4 C 0.9860(4) 0.2735(4) 0.1095(4)
H19_4 H 0.9471 0.3003 0.0656
O2_4 O 0.9619(3) 0.3974(3) 0.3336(3)
C4_4 C 0.8995(4) 0.2767(4) 0.2605(4)
C5_4 C 0.9581(4) 0.1529(4) 0.3213(4)
H2_4 H 0.9580 0.0979 0.3191
C7_4 C 0.9201(5) 0.4351(4) 0.3682(4)
C8_4 C 0.8714(4) 0.3970(5) 0.3962(4)
H3_4 H 0.8646 0.3423 0.3920
C9_4 C 0.8370(4) 0.3226(6) 0.1887(4)
C10_4 C 0.8329(5) 0.4419(4) 0.4308(4)
H4_4 H 0.8015 0.4160 0.4513
C12_4 C 0.8390(5) 0.5222(4) 0.4363(5)
C14_4 C 0.9026(4) 0.1949(5) 0.2589(4)
H7_4 H 0.8658 0.1681 0.2139
C15_4 C 0.7960(5) 0.5723(5) 0.4715(5)
C16_4 C 0.9897(5) 0.0754(5) 0.6491(5)
H8_4 H 0.9319 0.0800 0.6203
C17_4 C 0.9561(4) 0.3146(4) 0.3283(4)
C19_4 C 0.8916(7) 0.5582(5) 0.4104(7)
H10_4 H 0.8994 0.6127 0.4159
C20_4 C 0.9323(6) 0.5158(5) 0.3769(6)
H11_4 H 0.9675 0.5412 0.3605
N2_4 N 0.8771(4) 0.0726(4) 0.8511(4)
C21_4 C 0.9742(5) 0.0677(4) 0.7709(4)
C22_4 C 0.8418(5) 0.0624(5) 0.7733(5)
H12_4 H 0.7839 0.0571 0.7457
C23_4 C 0.8884(5) 0.0596(5) 0.7329(4)
H13_4 H 0.8614 0.0522 0.6790
C25_4 C 0.9607(5) 0.0764(5) 0.8883(5)
H15_4 H 0.9869 0.0800 0.9426
O16_3 O 0.2238(4) 0.0617(4) 0.1164(5)
O8_3 O 0.7762(4) 0.0617(4) 0.3836(5)
O8_4 O 0.2238(4) 0.9383(4) 0.6164(5)
O16_4 O 0.7762(4) 0.9383(4) 0.8836(5)
loop_
_geom_bond_atom_site_label_1
_geom_bond_atom_site_label_2
_geom_bond_site_symmetry_1
_geom_bond_site_symmetry_2
Cd1 O1 1_555 1_555
Cd2 O3 1_555 1_555
O1 C1 1_555 1_555
O2 C7 1_555 1_555
O3 Cd1 1_555 1_555
O4 C9 1_555 1_555
O7 C9 1_555 1_555
N1 Cd1 1_555 1_555
C1 O3 1_555 1_555
C2 C13 1_555 1_555
C3 N1 1_555 1_555
H1 C3 1_555 1_555
C4 C9 1_555 1_555
C5 H2 1_555 1_555
C6 C1 1_555 1_555
C7 C8 1_555 1_555
C8 H3 1_555 1_555
C10 C8 1_555 1_555
H4 C10 1_555 1_555
C11 C6 1_555 1_555
H5 C11 1_555 1_555
C13 C3 1_555 1_555
H6 C13 1_555 1_555
C14 C4 1_555 1_555
H7 C14 1_555 1_555
C16 C2 1_555 1_555
H8 C16 1_555 1_555
C17 O2 1_555 1_555
C18 N1 1_555 1_555
H9 C18 1_555 1_555
O8 Cd1 1_555 1_555
N2 C22 1_555 1_555
C21 C2 1_555 1_555
C22 H12 1_555 1_555
C23 C21 1_555 1_555
H13 C23 1_555 1_555
C24 C21 1_555 1_555
H14 C24 1_555 1_555
C25 N2 1_555 1_555
H15 C25 1_555 1_555
Cd3 N2 1_555 1_555
O11 Cd3 1_555 1_555
O16 Cd3 1_555 1_555
Cd7 O4 1_555 1_555
Cd10 O11 1_555 1_555
Cd10_2 O7 1_555 1_555
O17 Cd2 1_555 1_555
O18 Cd3 1_555 1_555
O19 Cd1 1_555 1_555
O20 Cd2 1_555 1_555
O21 Cd2 1_555 1_555
O22 Cd1 1_555 1_555
O23 Cd3 1_555 1_555
O24 Cd2 1_555 1_555
O25 Cd2 1_555 1_555
C4 C17 1_555 1_555
C5 C6 1_555 1_555
C5 C14 1_555 1_555
C11 C17 1_555 1_555
C16 C18 1_555 1_555
C22 C23 1_555 1_555
C24 C25 1_555 1_555
O10 C30 1_555 1_555
O12 C32 1_555 1_555
O24 C32 1_555 1_555
C26 O9 1_555 1_555
C27 C32 1_555 1_555
C28 H16 1_555 1_555
C29 C26 1_555 1_555
C30 C31 1_555 1_555
C31 H17 1_555 1_555
C33 C31 1_555 1_555
H18 C33 1_555 1_555
C34 C29 1_555 1_555
H19 C34 1_555 1_555
C36 C27 1_555 1_555
H20 C36 1_555 1_555
C38 O10 1_555 1_555
Cd6 O12 1_555 1_555
C27 C38 1_555 1_555
C28 C29 1_555 1_555
C28 C36 1_555 1_555
C34 C38 1_555 1_555
O5 C15 1_555 1_555
O6 C15 1_555 1_555
C15 C12 1_555 1_555
C19 C12 1_555 1_555
H10 C19 1_555 1_555
H11 C20 1_555 1_555
Cd4 O6 1_555 1_555
Cd5 O14 1_555 1_555
Cd11 O5 1_555 1_555
C19 C20 1_555 1_555
O13 C37 1_555 1_555
C37 C35 1_555 1_555
C39 C35 1_555 1_555
H21 C39 1_555 1_555
H22 C40 1_555 1_555
Cd12_2 O13 1_555 1_555
C39 C40 1_555 1_555
O21_2 Cd10 1_555 1_555
O25_2 Cd10 1_555 1_555
O17_2 Cd10_2 1_555 1_555
O20_2 Cd10_2 1_555 1_555
O2_2 C7_2 1_555 1_555
O4_2 C9_2 1_555 1_555
O20 C15_2 1_555 1_555
O22 C15_2 1_555 1_555
O7_2 C9_2 1_555 1_555
C4_2 C9_2 1_555 1_555
C5_2 H2_2 1_555 1_555
C7_2 C8_2 1_555 1_555
C8_2 H3_2 1_555 1_555
C10_2 C8_2 1_555 1_555
H4_2 C10_2 1_555 1_555
C12_2 C10_2 1_555 1_555
C14_2 C4_2 1_555 1_555
H7_2 C14_2 1_555 1_555
C15_2 C12_2 1_555 1_555
H8_2 C16_2 1_555 1_555
C17_2 O2_2 1_555 1_555
C19_2 C12_2 1_555 1_555
H10_2 C19_2 1_555 1_555
C20_2 C7_2 1_555 1_555
H11_2 C20_2 1_555 1_555
N2_2 C22_2 1_555 1_555
C22_2 H12_2 1_555 1_555
C23_2 C21_2 1_555 1_555
H13_2 C23_2 1_555 1_555
C25_2 N2_2 1_555 1_555
H15_2 C25_2 1_555 1_555
Cd5 N2_2 1_555 1_555
O11_2 Cd5 1_555 1_555
Cd7_2 O4_2 1_555 1_555
Cd12 O11_2 1_555 1_555
Cd12_2 O7_2 1_555 1_555
O18_2 Cd5 1_555 1_555
C4_2 C17_2 1_555 1_555
C5_2 C14_2 1_555 1_555
C19_2 C20_2 1_555 1_555
C22_2 C23_2 1_555 1_555
C26_2 O9_2 1_555 1_555
C29_2 C26_2 1_555 1_555
C34_2 C29_2 1_555 1_555
H19_2 C34_2 1_555 1_555
Cd4 O1_2 1_555 1_555
Cd11 O3_2 1_555 1_555
O1_2 C1_2 1_555 1_555
O3_2 Cd4 1_555 1_555
N1_2 Cd4 1_555 1_555
C1_2 O3_2 1_555 1_555
C2_2 C13_2 1_555 1_555
C3_2 N1_2 1_555 1_555
H1_2 C3_2 1_555 1_555
C6_2 C1_2 1_555 1_555
C11_2 C6_2 1_555 1_555
H5_2 C11_2 1_555 1_555
C13_2 C3_2 1_555 1_555
H6_2 C13_2 1_555 1_555
C18_2 N1_2 1_555 1_555
H9_2 C18_2 1_555 1_555
H14_2 C24_2 1_555 1_555
O17_3 Cd11 1_555 1_555
O19_2 Cd4 1_555 1_555
O21_3 Cd11 1_555 1_555
O24_2 Cd11 1_555 1_555
O25_3 Cd11 1_555 1_555
O10_2 C30_2 1_555 1_555
O12_2 C32_2 1_555 1_555
O20_2 C37_2 1_555 1_555
O24_2 C32_2 1_555 1_555
C27_2 C32_2 1_555 1_555
C28_2 H16_2 1_555 1_555
C30_2 C31_2 1_555 1_555
C31_2 H17_2 1_555 1_555
C33_2 C31_2 1_555 1_555
H18_2 C33_2 1_555 1_555
C35_2 C33_2 1_555 1_555
C36_2 C27_2 1_555 1_555
H20_2 C36_2 1_555 1_555
C37_2 C35_2 1_555 1_555
C38_2 O10_2 1_555 1_555
C39_2 C35_2 1_555 1_555
H21_2 C39_2 1_555 1_555
C40_2 C30_2 1_555 1_555
H22_2 C40_2 1_555 1_555
Cd6_2 O12_2 1_555 1_555
C27_2 C38_2 1_555 1_555
C28_2 C36_2 1_555 1_555
C39_2 C40_2 1_555 1_555
O21_4 Cd12 1_555 1_555
O25_4 Cd12 1_555 1_555
O17_4 Cd12_2 1_555 1_555
O21_2 C37_3 1_555 1_555
C37_3 C35_3 1_555 1_555
C39_3 C35_3 1_555 1_555
H21_3 C39_3 1_555 1_555
H22_3 C40_3 1_555 1_555
C39_3 C40_3 1_555 1_555
O21 C15_3 1_555 1_555
O6_2 C15_3 1_555 1_555
C15_3 C12_3 1_555 1_555
C19_3 C12_3 1_555 1_555
H10_3 C19_3 1_555 1_555
H11_3 C20_3 1_555 1_555
Cd6 O6_2 1_555 1_555
Cd7 O14_2 1_555 1_555
C19_3 C20_3 1_555 1_555
O10_3 C30_3 1_555 1_555
O19_2 C32_3 1_555 1_555
O25_3 C32_3 1_555 1_555
C26_3 O9_3 1_555 1_555
C27_3 C32_3 1_555 1_555
C28_3 H16_3 1_555 1_555
C29_3 C26_3 1_555 1_555
C30_3 C31_3 1_555 1_555
C31_3 H17_3 1_555 1_555
C33_3 C31_3 1_555 1_555
H18_3 C33_3 1_555 1_555
C34_3 C29_3 1_555 1_555
H19_3 C34_3 1_555 1_555
C36_3 C27_3 1_555 1_555
H20_3 C36_3 1_555 1_555
C38_3 O10_3 1_555 1_555
C27_3 C38_3 1_555 1_555
C28_3 C29_3 1_555 1_555
C28_3 C36_3 1_555 1_555
C34_3 C38_3 1_555 1_555
Cd6_2 O1_3 1_555 1_555
O1_3 C1_3 1_555 1_555
O2_3 C7_3 1_555 1_555
O17_3 Cd6_2 1_555 1_555
O18_2 C9_3 1_555 1_555
O25_4 C9_3 1_555 1_555
N1_3 Cd6_2 1_555 1_555
C1_3 O17_3 1_555 1_555
C2_3 C13_3 1_555 1_555
C3_3 N1_3 1_555 1_555
H1_3 C3_3 1_555 1_555
C4_3 C9_3 1_555 1_555
C5_3 H2_3 1_555 1_555
C6_3 C1_3 1_555 1_555
C7_3 C8_3 1_555 1_555
C8_3 H3_3 1_555 1_555
C10_3 C8_3 1_555 1_555
H4_3 C10_3 1_555 1_555
C11_3 C6_3 1_555 1_555
H5_3 C11_3 1_555 1_555
C13_3 C3_3 1_555 1_555
H6_3 C13_3 1_555 1_555
C14_3 C4_3 1_555 1_555
H7_3 C14_3 1_555 1_555
C16_3 C2_3 1_555 1_555
H8_3 C16_3 1_555 1_555
C17_3 O2_3 1_555 1_555
C18_3 N1_3 1_555 1_555
H9_3 C18_3 1_555 1_555
O8_2 Cd6_2 1_555 1_555
N2_3 C22_3 1_555 1_555
C21_3 C2_3 1_555 1_555
C22_3 H12_3 1_555 1_555
C23_3 C21_3 1_555 1_555
H13_3 C23_3 1_555 1_555
C24_3 C21_3 1_555 1_555
H14_3 C24_3 1_555 1_555
C25_3 N2_3 1_555 1_555
H15_3 C25_3 1_555 1_555
Cd7_2 N2_3 1_555 1_555
O17_4 Cd7_2 1_555 1_555
O16_2 Cd7_2 1_555 1_555
O22_2 Cd6_2 1_555 1_555
O23_2 Cd7_2 1_555 1_555
C4_3 C17_3 1_555 1_555
C5_3 C6_3 1_555 1_555
C5_3 C14_3 1_555 1_555
C11_3 C17_3 1_555 1_555
C16_3 C18_3 1_555 1_555
C22_3 C23_3 1_555 1_555
C24_3 C25_3 1_555 1_555
O10_4 C30_4 1_555 1_555
O19 C32_4 1_555 1_555
O21_4 C37_4 1_555 1_555
O25 C32_4 1_555 1_555
C27_4 C32_4 1_555 1_555
C28_4 H16_4 1_555 1_555
C30_4 C31_4 1_555 1_555
C31_4 H17_4 1_555 1_555
C33_4 C31_4 1_555 1_555
H18_4 C33_4 1_555 1_555
C35_4 C33_4 1_555 1_555
C36_4 C27_4 1_555 1_555
H20_4 C36_4 1_555 1_555
C37_4 C35_4 1_555 1_555
C38_4 O10_4 1_555 1_555
C39_4 C35_4 1_555 1_555
H21_4 C39_4 1_555 1_555
C40_4 C30_4 1_555 1_555
H22_4 C40_4 1_555 1_555
C27_4 C38_4 1_555 1_555
C28_4 C36_4 1_555 1_555
C39_4 C40_4 1_555 1_555
Cd6 O1_4 1_555 1_555
O1_4 C1_4 1_555 1_555
O17 Cd6 1_555 1_555
N1_4 Cd6 1_555 1_555
C1_4 O17 1_555 1_555
C2_4 C13_4 1_555 1_555
C3_4 N1_4 1_555 1_555
H1_4 C3_4 1_555 1_555
C6_4 C1_4 1_555 1_555
C11_4 C6_4 1_555 1_555
H5_4 C11_4 1_555 1_555
C13_4 C3_4 1_555 1_555
H6_4 C13_4 1_555 1_555
C18_4 N1_4 1_555 1_555
H9_4 C18_4 1_555 1_555
H14_4 C24_4 1_555 1_555
C26_4 O9_4 1_555 1_555
C29_4 C26_4 1_555 1_555
C34_4 C29_4 1_555 1_555
H19_4 C34_4 1_555 1_555
O2_4 C7_4 1_555 1_555
O18 C9_4 1_555 1_555
O21_3 C15_4 1_555 1_555
O22_2 C15_4 1_555 1_555
O25_2 C9_4 1_555 1_555
C4_4 C9_4 1_555 1_555
C5_4 H2_4 1_555 1_555
C7_4 C8_4 1_555 1_555
C8_4 H3_4 1_555 1_555
C10_4 C8_4 1_555 1_555
H4_4 C10_4 1_555 1_555
C12_4 C10_4 1_555 1_555
C14_4 C4_4 1_555 1_555
H7_4 C14_4 1_555 1_555
C15_4 C12_4 1_555 1_555
H8_4 C16_4 1_555 1_555
C17_4 O2_4 1_555 1_555
C19_4 C12_4 1_555 1_555
H10_4 C19_4 1_555 1_555
C20_4 C7_4 1_555 1_555
H11_4 C20_4 1_555 1_555
N2_4 C22_4 1_555 1_555
C22_4 H12_4 1_555 1_555
C23_4 C21_4 1_555 1_555
H13_4 C23_4 1_555 1_555
C25_4 N2_4 1_555 1_555
H15_4 C25_4 1_555 1_555
Cd7 N2_4 1_555 1_555
O17_2 Cd7 1_555 1_555
C4_4 C17_4 1_555 1_555
C5_4 C14_4 1_555 1_555
C19_4 C20_4 1_555 1_555
C22_4 C23_4 1_555 1_555

#END
