
###############################################################################
#
# This file contains modified crystal structure data generated from the
# MOF subset of the Cambridge Structural Database (CSD) v543 
# hosted by the Cambridge Crystallographic Data Centre (CCDC).
#
# This work is licensed under the Creative Commons
# Attribution-NonCommercial-ShareAlike 4.0 International License.
# To view a copy of this license, visit
# http://creativecommons.org/licenses/by-nc-sa/4.0/
# or send a letter to
# Creative Commons, PO Box 1866, Mountain View, CA 94042, USA.
#
# CIF created using the CSD Python API on 29 September 2022
# The structure has been converted into the P1 space group
# The structure has a 3D framework
# The original CSD entry JIJTOO is in the orthorhombic crystal system
# The original CSD entry JIJTOO is in a Sohncke space group
# The framework has been calculated to contain at least 10.0% void space
# The void calculation uses a probe of radius 1.32A, grid spacing 0.4
# H atom positions have been added when not included in the experimental data
#
###############################################################################

data_JIJTOO
_chemical_formula_moiety         '(C144 H128 Br8 Cd8 N8 O52)n'
_symmetry_cell_setting           triclinic
_symmetry_space_group_name_H-M   'P 1'
_symmetry_Int_Tables_number      1
_space_group_name_Hall           'P 1'
loop_
_symmetry_equiv_pos_site_id
_symmetry_equiv_pos_as_xyz
1 x,y,z
_cell_length_a                   10.3056(4)
_cell_length_b                   16.7798(9)
_cell_length_c                   35.2710(14)
_cell_angle_alpha                90
_cell_angle_beta                 90
_cell_angle_gamma                90
_cell_volume                     6099.27
loop_
_atom_site_label
_atom_site_type_symbol
_atom_site_fract_x
_atom_site_fract_y
_atom_site_fract_z
O1 O 0.3174(16) 0.6224(11) 0.6713(5)
O4 O 0.1807(17) 0.7334(10) 0.2740(4)
O5 O 0.4086(16) 0.5742(11) 0.6212(4)
O7 O 0.0826(15) 0.7608(10) 0.3315(4)
C1 C 0.0476(12) 0.6329(7) 0.3041(3)
C2 C 0.0292(13) 0.5919(7) 0.2703(3)
H1 H 0.0596 0.6132 0.2477
C6 C 0.0022(12) 0.6009(8) 0.3380(3)
H3 H 0.0145 0.6284 0.3606
C8 C 0.103(2) 0.7140(15) 0.3016(7)
C9 C 0.307(3) 0.5942(16) 0.6402(6)
C11 C 0.1722(11) 0.5362(8) 0.5884(3)
H4 H 0.2470 0.5217 0.5753
C12 C 0.0509(13) 0.5197(9) 0.5730(3)
C15 C 0.0698(14) 0.5961(10) 0.6427(3)
H6 H 0.0762 0.6217 0.6660
C16 C 0.1816(11) 0.5744(9) 0.6232(3)
C19 C 0.0621(19) 0.3386(8) 0.5115(4)
C20 C 0.083(2) 0.3928(10) 0.5406(4)
H8 H 0.1257 0.3768 0.5626
C21 C 0.0398(19) 0.4709(9) 0.5371(4)
C24 C 0.096(3) 0.489(2) 0.4090(8)
H9 H 0.1191 0.5384 0.4210
H10 H 0.1319 0.4875 0.3839
H11 H 0.1309 0.4454 0.4235
Br2 Br 0.1176(7) 0.2322(3) 0.51844(12)
H20 H 0.0028 0.2640 0.4534
N2 N 0.070(3) 0.4846(14) 0.7642(7)
C34 C 0.131(4) 0.493(3) 0.8010(9)
H24 H 0.0777 0.5257 0.8170
H25 H 0.1425 0.4418 0.8123
H26 H 0.2144 0.5184 0.7979
C35 C 0.134(4) 0.439(2) 0.7360(9)
H27 H 0.0820 0.4379 0.7133
H28 H 0.2168 0.4615 0.7306
H29 H 0.1448 0.3850 0.7450
Cd3 Cd 0.54829(17) 0.60768(11) 0.66839(4)
Cd5 Cd 0.04829(17) 0.89232(11) 0.33161(4)
Cd7 Cd 0.27934(17) 0.84351(12) 0.25831(4)
H31 H 0.0227668 0.696903 0.766466
H32 H 0.0156969 0.718637 0.721717
Cd2 Cd 0.77934(17) 0.65649(12) 0.74169(4)
Br1 Br 0.4979(3) 0.4586(3) 0.40529(10)
O2 O 0.741(2) 0.6898(12) 0.8033(4)
O3 O 0.9841(18) 0.5114(10) 0.2041(4)
O6 O 0.9174(16) 0.4034(10) 0.2344(4)
O8 O 0.8365(16) 0.6165(13) 0.6823(5)
C3 C 0.9654(13) 0.5189(7) 0.2704(3)
C4 C 0.9199(14) 0.4869(7) 0.3042(4)
H2 H 0.8772 0.4381 0.3042
C5 C 0.9383(14) 0.5280(8) 0.3380(3)
O9 O 0.7150(17) 0.5794(11) 0.6339(5)
C7 C 0.826(2) 0.5932(18) 0.6506(7)
C10 C 0.950(3) 0.4730(15) 0.2353(6)
O10 O 0.969(2) 0.7217(16) 0.7463(7)
O11 O 0.883(2) 0.5486(13) 0.7641(5)
C13 C 0.9391(11) 0.5414(11) 0.5925(4)
H5 H 0.8580 0.5304 0.5822
C14 C 0.9486(12) 0.5796(11) 0.6273(4)
C17 C 0.718(3) 0.7532(17) 0.8113(7)
H7 H 0.7088 0.7881 0.7910
N1 N 0.701(3) 0.7874(15) 0.8472(6)
C18 C 0.9982(16) 0.3626(8) 0.4787(3)
C22 C 0.9758(18) 0.4949(7) 0.5043(4)
C23 C 0.9550(16) 0.4407(8) 0.4751(3)
C25 C 0.728(5) 0.737(2) 0.8793(8)
H12 H 0.7330 0.6827 0.8712
H13 H 0.6589 0.7427 0.8975
H14 H 0.8083 0.7528 0.8907
C26 C 0.680(5) 0.866(2) 0.8539(9)
H15 H 0.6634 0.8925 0.8303
H16 H 0.7547 0.8886 0.8658
H17 H 0.6059 0.8714 0.8702
C27 C 0.6805(11) 0.4696(9) 0.4068(3)
C28 C 0.7459(13) 0.4897(10) 0.3737(3)
H18 H 0.6997 0.4992 0.3515
C29 C 0.8804(13) 0.4957(11) 0.3738(3)
C30 C 0.9495(11) 0.4816(10) 0.4069(4)
C31 C 0.8841(14) 0.4615(10) 0.4401(3)
C32 C 0.7495(14) 0.4555(10) 0.4400(3)
O12 O 0.682(2) 0.4396(14) 0.4714(5)
H19 H 0.6051 0.4507 0.4679
O13 O 0.974(3) 0.3082(13) 0.4479(5)
C33 C 0.922(3) 0.5776(12) 0.5017(7)
H21 H 0.9431 0.6001 0.4775
H22 H 0.9588 0.6100 0.5214
H23 H 0.8293 0.5759 0.5046
C36 C 0.955(3) 0.5119(19) 0.7436(11)
H30 H 0.9403 0.5023 0.7180
Cd4 Cd 0.95171(17) 0.39232(11) 0.16839(4)
Cd6 Cd 0.72066(17) 0.34351(12) 0.24169(4)
O15 O 0.5159(18) 0.4886(10) 0.7041(4)
O16 O 0.6807(17) 0.7666(10) 0.7260(4)
O18 O 0.5826(16) 0.5966(10) 0.7344(4)
O19 O 0.5826(15) 0.7392(10) 0.6685(4)
O14 O 0.1826(16) 0.3776(11) 0.1713(5)
O17 O 0.0914(16) 0.4258(11) 0.1212(4)
O2_2 O 0.759(2) 0.3102(12) 0.3033(4)
O8_2 O 0.6635(16) 0.3835(13) 0.1823(5)
O9_2 O 0.7850(17) 0.4206(11) 0.1339(5)
C7_2 C 0.674(2) 0.4068(18) 0.1506(7)
C9_2 C 0.193(3) 0.4058(16) 0.1402(6)
O10_2 O 0.531(2) 0.2783(16) 0.2463(7)
O11_2 O 0.617(2) 0.4514(13) 0.2641(5)
C11_2 C 0.3278(11) 0.4638(8) 0.0884(3)
H4_2 H 0.2530 0.4783 0.0753
C12_2 C 0.4491(13) 0.4803(9) 0.0730(3)
C13_2 C 0.5609(11) 0.4586(11) 0.0925(4)
H5_2 H 0.6420 0.4696 0.0822
C14_2 C 0.5514(12) 0.4204(11) 0.1273(4)
C15_2 C 0.4302(14) 0.4039(10) 0.1427(3)
H6_2 H 0.4238 0.3783 0.1660
C16_2 C 0.3184(11) 0.4256(9) 0.1232(3)
C17_2 C 0.782(3) 0.2468(17) 0.3113(7)
H7_2 H 0.7912 0.2119 0.2910
N1_2 N 0.799(3) 0.2126(15) 0.3472(6)
C19_2 C 0.4379(19) 0.6614(8) 0.0115(4)
C20_2 C 0.417(2) 0.6072(10) 0.0406(4)
H8_2 H 0.3743 0.6232 0.0626
C21_2 C 0.4602(19) 0.5291(9) 0.0371(4)
C22_2 C 0.5242(18) 0.5051(7) 0.0043(4)
C25_2 C 0.772(5) 0.263(2) 0.3793(8)
H12_2 H 0.7670 0.3173 0.3712
H13_2 H 0.8411 0.2573 0.3975
H14_2 H 0.6917 0.2472 0.3907
C26_2 C 0.820(5) 0.134(2) 0.3539(9)
H15_2 H 0.8366 0.1075 0.3303
H16_2 H 0.7453 0.1114 0.3658
H17_2 H 0.8941 0.1286 0.3702
Br2_2 Br 0.3824(7) 0.7678(3) 0.01844(12)
C33_2 C 0.578(3) 0.4224(12) 0.0017(7)
H22_2 H 0.5412 0.3900 0.0214
H23_2 H 0.6707 0.4241 0.0046
N2_2 N 0.430(3) 0.5154(14) 0.2642(7)
C34_2 C 0.369(4) 0.507(3) 0.3010(9)
H24_2 H 0.4223 0.4743 0.3170
H25_2 H 0.3575 0.5582 0.3123
H26_2 H 0.2856 0.4816 0.2979
C35_2 C 0.366(4) 0.561(2) 0.2360(9)
H27_2 H 0.4180 0.5621 0.2133
H28_2 H 0.2832 0.5385 0.2306
H29_2 H 0.3552 0.6150 0.2450
C36_2 C 0.545(3) 0.4881(19) 0.2436(11)
H30_2 H 0.5597 0.4977 0.2180
O16_2 O 0.8193(17) 0.2334(10) 0.2260(4)
O19_2 O 0.9174(15) 0.2608(10) 0.1685(4)
H31_2 H 0.477233 0.303097 0.266466
H32_2 H 0.484303 0.281363 0.221717
O4_2 O 0.3193(17) 0.2666(10) 0.7740(4)
O7_2 O 0.4174(15) 0.2392(10) 0.8315(4)
C1_2 C 0.4524(12) 0.3671(7) 0.8041(3)
C2_2 C 0.4708(13) 0.4081(7) 0.7703(3)
H1_2 H 0.4404 0.3868 0.7477
C3_2 C 0.5346(13) 0.4811(7) 0.7704(3)
C4_2 C 0.5801(14) 0.5131(7) 0.8042(4)
H2_2 H 0.6228 0.5619 0.8042
C5_2 C 0.5617(14) 0.4720(8) 0.8380(3)
C6_2 C 0.4978(12) 0.3991(8) 0.8380(3)
H3_2 H 0.4855 0.3716 0.8606
C8_2 C 0.397(2) 0.2860(15) 0.8016(7)
C10_2 C 0.550(3) 0.5270(15) 0.7353(6)
C18_2 C 0.5018(16) 0.6374(8) 0.9787(3)
C23_2 C 0.5450(16) 0.5593(8) 0.9751(3)
C24_2 C 0.404(3) 0.511(2) 0.9090(8)
H9_2 H 0.3809 0.4616 0.9210
H10_2 H 0.3681 0.5125 0.8839
H11_2 H 0.3691 0.5546 0.9235
C27_2 C 0.8195(11) 0.5304(9) 0.9068(3)
C28_2 C 0.7541(13) 0.5103(10) 0.8737(3)
H18_2 H 0.8003 0.5008 0.8515
C29_2 C 0.6196(13) 0.5043(11) 0.8738(3)
C30_2 C 0.5505(11) 0.5184(10) 0.9069(4)
C31_2 C 0.6159(14) 0.5385(10) 0.9401(3)
C32_2 C 0.7505(14) 0.5445(10) 0.9400(3)
O12_2 O 0.818(2) 0.5604(14) 0.9714(5)
H19_2 H 0.8949 0.5493 0.9679
O13_2 O 0.526(3) 0.6918(13) 0.9479(5)
H20_2 H 0.4972 0.7360 0.9534
H21_2 H 0.5569 0.3999 0.9775
Cd5_2 Cd 0.45171(17) 0.10768(11) 0.83161(4)
Cd7_2 Cd 0.22066(17) 0.15649(12) 0.75831(4)
O6_2 O 0.4174(16) 0.0966(10) 0.7656(4)
C4_3 C 0.4199(14) 0.0131(7) 0.6958(4)
H2_3 H 0.3772 0.0619 0.6958
C10_3 C 0.450(3) 0.0270(15) 0.7647(6)
C18_3 C 0.4982(16) 0.1374(8) 0.5213(3)
C19_3 C 0.5621(19) 0.1614(8) 0.4885(4)
C20_3 C 0.583(2) 0.1072(10) 0.4594(4)
H8_3 H 0.6257 0.1232 0.4374
C21_3 C 0.5398(19) 0.0291(9) 0.4629(4)
C22_3 C 0.4758(18) 0.0051(7) 0.4957(4)
C23_3 C 0.4550(16) 0.0593(8) 0.5249(3)
C24_3 C 0.596(3) 0.011(2) 0.5910(8)
H10_3 H 0.6319 0.0125 0.6161
H11_3 H 0.6309 0.0546 0.5765
C27_3 C 0.1805(11) 0.0304(9) 0.5932(3)
C28_3 C 0.2459(13) 0.0103(10) 0.6263(3)
H18_3 H 0.1997 0.0008 0.6485
C29_3 C 0.3804(13) 0.0043(11) 0.6262(3)
C30_3 C 0.4495(11) 0.0184(10) 0.5931(4)
C31_3 C 0.3841(14) 0.0385(10) 0.5599(3)
C32_3 C 0.2495(14) 0.0445(10) 0.5600(3)
Br2_3 Br 0.6176(7) 0.2678(3) 0.48156(12)
O12_3 O 0.182(2) 0.0604(14) 0.5286(5)
H19_3 H 0.1051 0.0493 0.5321
O13_3 O 0.474(3) 0.1918(13) 0.5521(5)
H20_3 H 0.5028 0.2360 0.5466
N2_3 N 0.570(3) 0.0154(14) 0.2358(7)
C34_3 C 0.631(4) 0.007(3) 0.1990(9)
H25_3 H 0.6425 0.0582 0.1877
C35_3 C 0.634(4) 0.061(2) 0.2640(9)
H27_3 H 0.5820 0.0621 0.2867
H28_3 H 0.7168 0.0385 0.2694
H29_3 H 0.6448 0.1150 0.2550
O15_2 O 0.0159(18) 0.0114(10) 0.2959(4)
O1_2 O 0.8174(16) 0.8776(11) 0.3287(5)
O2_3 O 0.241(2) 0.8102(12) 0.1967(4)
O3_2 O 0.4841(18) 0.9886(10) 0.7959(4)
O5_2 O 0.9086(16) 0.9258(11) 0.3788(4)
O8_3 O 0.3365(16) 0.8835(13) 0.3177(5)
C1_3 C 0.5476(12) 0.8671(7) 0.6959(3)
C2_3 C 0.5292(13) 0.9081(7) 0.7297(3)
H1_3 H 0.5596 0.8868 0.7523
C3_3 C 0.4654(13) 0.9811(7) 0.7296(3)
C5_3 C 0.4383(14) 0.9720(8) 0.6620(3)
C6_3 C 0.5022(12) 0.8991(8) 0.6620(3)
H3_3 H 0.5145 0.8716 0.6394
O9_3 O 0.2150(17) 0.9206(11) 0.3661(5)
C7_3 C 0.326(2) 0.9068(18) 0.3494(7)
C8_3 C 0.603(2) 0.7860(15) 0.6984(7)
C9_3 C 0.807(3) 0.9058(16) 0.3598(6)
O10_3 O 0.469(2) 0.7783(16) 0.2537(7)
O11_3 O 0.383(2) 0.9514(13) 0.2359(5)
C11_3 C 0.6722(11) 0.9638(8) 0.4116(3)
H4_3 H 0.7470 0.9783 0.4247
C12_3 C 0.5509(13) 0.9803(9) 0.4270(3)
C13_3 C 0.4391(11) 0.9586(11) 0.4075(4)
H5_3 H 0.3580 0.9696 0.4178
C14_3 C 0.4486(12) 0.9204(11) 0.3727(4)
C15_3 C 0.5698(14) 0.9039(10) 0.3573(3)
H6_3 H 0.5762 0.8783 0.3340
C16_3 C 0.6816(11) 0.9256(9) 0.3768(3)
C17_3 C 0.218(3) 0.7468(17) 0.1887(7)
H7_3 H 0.2088 0.7119 0.2090
N1_3 N 0.201(3) 0.7126(15) 0.1528(6)
H9_3 H 0.6191 0.9616 0.5790
C25_3 C 0.228(5) 0.763(2) 0.1207(8)
H12_3 H 0.2330 0.8173 0.1288
H13_3 H 0.1589 0.7573 0.1025
H14_3 H 0.3083 0.7472 0.1093
C26_3 C 0.180(5) 0.634(2) 0.1461(9)
H15_3 H 0.1634 0.6075 0.1697
H16_3 H 0.2547 0.6114 0.1342
H17_3 H 0.1059 0.6286 0.1298
C33_3 C 0.422(3) 0.9224(12) 0.4983(7)
H21_3 H 0.4431 0.8999 0.5225
H22_3 H 0.4588 0.8900 0.4786
H23_3 H 0.3293 0.9241 0.4954
H24_3 H 0.5777 0.9743 0.1830
H26_3 H 0.7144 0.9816 0.2021
C36_3 C 0.455(3) 0.9881(19) 0.2564(11)
H30_3 H 0.4403 0.9977 0.2820
O18_2 O 0.0826(16) 0.9034(10) 0.2656(4)
H31_3 H 0.522767 0.803097 0.233534
H32_3 H 0.515697 0.781363 0.278283
C3_4 C 0.0346(13) 0.0189(7) 0.2296(3)
C5_4 C 0.0617(14) 0.0280(8) 0.1620(3)
H21_4 H 0.0569 0.1001 0.0225
O2_4 O 0.259(2) 0.1898(12) 0.6967(4)
O8_4 O 0.1635(16) 0.1165(13) 0.8177(5)
O9_4 O 0.2850(17) 0.0794(11) 0.8661(5)
C7_4 C 0.174(2) 0.0932(18) 0.8494(7)
O10_4 O 0.031(2) 0.2217(16) 0.7537(7)
O11_4 O 0.117(2) 0.0486(13) 0.7359(5)
C13_4 C 0.0609(11) 0.0414(11) 0.9075(4)
H5_4 H 0.1420 0.0304 0.9178
C14_4 C 0.0514(12) 0.0796(11) 0.8727(4)
C17_4 C 0.282(3) 0.2532(17) 0.6887(7)
H7_4 H 0.2912 0.2881 0.7090
N1_4 N 0.299(3) 0.2874(15) 0.6528(6)
C25_4 C 0.272(5) 0.237(2) 0.6207(8)
H12_4 H 0.2670 0.1827 0.6288
H13_4 H 0.3411 0.2427 0.6025
H14_4 H 0.1917 0.2528 0.6093
C26_4 C 0.320(5) 0.366(2) 0.6461(9)
H15_4 H 0.3366 0.3925 0.6697
H16_4 H 0.2453 0.3886 0.6342
H17_4 H 0.3941 0.3714 0.6298
C33_4 C 0.078(3) 0.0776(12) 0.9983(7)
H22_4 H 0.0412 0.1100 0.9786
H23_4 H 0.1707 0.0759 0.9954
C36_4 C 0.045(3) 0.0119(19) 0.7564(11)
H30_4 H 0.0597 0.0023 0.7820
O14_2 O 0.6826(16) 0.1224(11) 0.8287(5)
O17_2 O 0.5914(16) 0.0742(11) 0.8788(4)
Br1_2 Br 0.5021(3) 0.9586(3) 0.09471(10)
C4_4 C 0.0801(14) 0.9869(7) 0.1958(4)
H2_4 H 0.1228 0.9381 0.1958
C10_4 C 0.050(3) 0.9730(15) 0.2647(6)
C18_4 C 0.0018(16) 0.8626(8) 0.0213(3)
C23_4 C 0.0450(16) 0.9407(8) 0.0249(3)
C27_4 C 0.3195(11) 0.9696(9) 0.0932(3)
C28_4 C 0.2541(13) 0.9897(10) 0.1263(3)
H18_4 H 0.3003 0.9992 0.1485
C29_4 C 0.1196(13) 0.9957(11) 0.1262(3)
C30_4 C 0.0505(11) 0.9816(10) 0.0931(4)
C31_4 C 0.1159(14) 0.9615(10) 0.0599(3)
C32_4 C 0.2505(14) 0.9555(10) 0.0600(3)
O12_4 O 0.318(2) 0.9396(14) 0.0286(5)
H19_4 H 0.3949 0.9507 0.0321
O13_4 O 0.026(3) 0.8082(13) 0.0521(5)
C22_4 C 0.0242(18) 0.9949(7) 0.9957(4)
C1_4 C 0.9524(12) 0.1329(7) 0.1959(3)
C2_4 C 0.9708(13) 0.0919(7) 0.2297(3)
H1_4 H 0.9404 0.1132 0.2523
C6_4 C 0.9978(12) 0.1009(8) 0.1620(3)
H3_4 H 0.9855 0.1284 0.1394
C8_4 C 0.897(2) 0.2140(15) 0.1984(7)
H9_4 H 0.8809 0.0384 0.0790
C9_4 C 0.693(3) 0.0942(16) 0.8598(6)
C11_4 C 0.8278(11) 0.0362(8) 0.9116(3)
H4_4 H 0.7530 0.0217 0.9247
C12_4 C 0.9491(13) 0.0197(9) 0.9270(3)
C15_4 C 0.9302(14) 0.0961(10) 0.8573(3)
H6_4 H 0.9238 0.1217 0.8340
C16_4 C 0.8184(11) 0.0744(9) 0.8768(3)
H24_4 H 0.9223 0.0257 0.6830
H26_4 H 0.7856 0.0184 0.7021
H31_4 H 0.977233 0.196903 0.733534
H32_4 H 0.984303 0.218637 0.778283
Br1_3 Br 0.0021(3) 0.5414(3) 0.90529(10)
Br1_4 Br 0.9979(3) 0.0414(3) 0.59471(10)
C24_4 C 0.904(3) 0.989(2) 0.0910(8)
H10_4 H 0.8681 0.9875 0.1161
H11_4 H 0.8691 0.9454 0.0765
H20_4 H 0.9972 0.7640 0.0466
C19_4 C 0.9379(19) 0.8386(8) 0.9885(4)
C20_4 C 0.917(2) 0.8928(10) 0.9594(4)
H8_4 H 0.8743 0.8768 0.9374
C21_4 C 0.9602(19) 0.9709(9) 0.9629(4)
Br2_4 Br 0.8824(7) 0.7322(3) 0.98156(12)
N2_4 N 0.930(3) 0.9846(14) 0.7358(7)
C34_4 C 0.869(4) 0.993(3) 0.6990(9)
H25_4 H 0.8575 0.9418 0.6877
C35_4 C 0.866(4) 0.939(2) 0.7640(9)
H27_4 H 0.9180 0.9379 0.7867
H28_4 H 0.7832 0.9615 0.7694
H29_4 H 0.8552 0.8850 0.7550
loop_
_geom_bond_atom_site_label_1
_geom_bond_atom_site_label_2
_geom_bond_site_symmetry_1
_geom_bond_site_symmetry_2
O1 C9 1_555 1_555
O4 C8 1_555 1_555
O5 C9 1_555 1_555
O7 C8 1_555 1_555
C1 C2 1_555 1_555
C2 H1 1_555 1_555
C6 C1 1_555 1_555
H3 C6 1_555 1_555
C8 C1 1_555 1_555
C9 C16 1_555 1_555
C11 H4 1_555 1_555
C12 C11 1_555 1_555
H6 C15 1_555 1_555
C16 C11 1_555 1_555
C19 C20 1_555 1_555
C20 H8 1_555 1_555
C21 C12 1_555 1_555
C24 H9 1_555 1_555
H10 C24 1_555 1_555
H11 C24 1_555 1_555
Br2 C19 1_555 1_555
N2 C34 1_555 1_555
C34 H24 1_555 1_555
H25 C34 1_555 1_555
H26 C34 1_555 1_555
C35 N2 1_555 1_555
H27 C35 1_555 1_555
H28 C35 1_555 1_555
H29 C35 1_555 1_555
Cd3 O1 1_555 1_555
Cd5 O7 1_555 1_555
Cd7 O4 1_555 1_555
O5 Cd3 1_555 1_555
C15 C16 1_555 1_555
C20 C21 1_555 1_555
Cd3 O9 1_555 1_555
Cd2 O2 1_555 1_555
Br1 C27 1_555 1_555
O2 C17 1_555 1_555
O3 C10 1_555 1_555
O6 C10 1_555 1_555
O8 Cd2 1_555 1_555
C4 C3 1_555 1_555
H2 C4 1_555 1_555
C5 C4 1_555 1_555
O9 C7 1_555 1_555
C7 O8 1_555 1_555
C10 C3 1_555 1_555
O10 Cd2 1_555 1_555
O11 Cd2 1_555 1_555
H5 C13 1_555 1_555
C14 C7 1_555 1_555
C17 H7 1_555 1_555
N1 C17 1_555 1_555
C23 C18 1_555 1_555
C25 N1 1_555 1_555
H12 C25 1_555 1_555
H13 C25 1_555 1_555
H14 C25 1_555 1_555
C26 N1 1_555 1_555
H15 C26 1_555 1_555
H16 C26 1_555 1_555
H17 C26 1_555 1_555
C27 C28 1_555 1_555
C28 H18 1_555 1_555
C29 C5 1_555 1_555
C31 C23 1_555 1_555
C32 C27 1_555 1_555
O12 C32 1_555 1_555
H19 O12 1_555 1_555
O13 C18 1_555 1_555
C33 C22 1_555 1_555
H21 C33 1_555 1_555
H22 C33 1_555 1_555
H23 C33 1_555 1_555
C36 O11 1_555 1_555
H30 C36 1_555 1_555
Cd4 O3 1_555 1_555
Cd6 O6 1_555 1_555
O15 Cd3 1_555 1_555
O16 Cd2 1_555 1_555
O18 Cd3 1_555 1_555
O19 Cd3 1_555 1_555
Cd2 O18 1_555 1_555
O6 Cd4 1_555 1_555
C13 C14 1_555 1_555
C22 C23 1_555 1_555
C28 C29 1_555 1_555
C29 C30 1_555 1_555
C30 C31 1_555 1_555
C31 C32 1_555 1_555
Cd4 O9_2 1_555 1_555
Cd6 O2_2 1_555 1_555
O14 C9_2 1_555 1_555
O2_2 C17_2 1_555 1_555
O17 C9_2 1_555 1_555
O8_2 Cd6 1_555 1_555
O9_2 C7_2 1_555 1_555
C7_2 O8_2 1_555 1_555
C9_2 C16_2 1_555 1_555
O10_2 Cd6 1_555 1_555
O11_2 Cd6 1_555 1_555
C11_2 H4_2 1_555 1_555
C12_2 C11_2 1_555 1_555
C13_2 C12_2 1_555 1_555
H5_2 C13_2 1_555 1_555
C14_2 C7_2 1_555 1_555
C15_2 C14_2 1_555 1_555
H6_2 C15_2 1_555 1_555
C16_2 C11_2 1_555 1_555
C17_2 H7_2 1_555 1_555
N1_2 C17_2 1_555 1_555
C19_2 C20_2 1_555 1_555
C20_2 H8_2 1_555 1_555
C21_2 C12_2 1_555 1_555
C22_2 C21_2 1_555 1_555
C25_2 N1_2 1_555 1_555
H12_2 C25_2 1_555 1_555
H13_2 C25_2 1_555 1_555
H14_2 C25_2 1_555 1_555
C26_2 N1_2 1_555 1_555
H15_2 C26_2 1_555 1_555
H16_2 C26_2 1_555 1_555
H17_2 C26_2 1_555 1_555
Br2_2 C19_2 1_555 1_555
C33_2 C22_2 1_555 1_555
H22_2 C33_2 1_555 1_555
H23_2 C33_2 1_555 1_555
N2_2 C34_2 1_555 1_555
C34_2 H24_2 1_555 1_555
H25_2 C34_2 1_555 1_555
H26_2 C34_2 1_555 1_555
C35_2 N2_2 1_555 1_555
H27_2 C35_2 1_555 1_555
H28_2 C35_2 1_555 1_555
H29_2 C35_2 1_555 1_555
C36_2 O11_2 1_555 1_555
H30_2 C36_2 1_555 1_555
O16_2 Cd6 1_555 1_555
O19_2 Cd4 1_555 1_555
C13_2 C14_2 1_555 1_555
C15_2 C16_2 1_555 1_555
C20_2 C21_2 1_555 1_555
N2_2 C36_2 1_555 1_555
O10_2 H31_2 1_555 1_555
O10_2 H32_2 1_555 1_555
O15 C10_2 1_555 1_555
O4_2 C8_2 1_555 1_555
O18 C10_2 1_555 1_555
O7_2 C8_2 1_555 1_555
C1_2 C2_2 1_555 1_555
C2_2 H1_2 1_555 1_555
C3_2 C2_2 1_555 1_555
C4_2 C3_2 1_555 1_555
H2_2 C4_2 1_555 1_555
C5_2 C4_2 1_555 1_555
C6_2 C1_2 1_555 1_555
H3_2 C6_2 1_555 1_555
C8_2 C1_2 1_555 1_555
C10_2 C3_2 1_555 1_555
C23_2 C18_2 1_555 1_555
C24_2 H9_2 1_555 1_555
H10_2 C24_2 1_555 1_555
H11_2 C24_2 1_555 1_555
C27_2 C28_2 1_555 1_555
C28_2 H18_2 1_555 1_555
C29_2 C5_2 1_555 1_555
C30_2 C24_2 1_555 1_555
C31_2 C23_2 1_555 1_555
C32_2 C27_2 1_555 1_555
O12_2 C32_2 1_555 1_555
H19_2 O12_2 1_555 1_555
O13_2 C18_2 1_555 1_555
H20_2 O13_2 1_555 1_555
Cd5_2 O7_2 1_555 1_555
Cd7_2 O4_2 1_555 1_555
C5_2 C6_2 1_555 1_555
C28_2 C29_2 1_555 1_555
C29_2 C30_2 1_555 1_555
C30_2 C31_2 1_555 1_555
C31_2 C32_2 1_555 1_555
O6_2 C10_3 1_555 1_555
H2_3 C4_3 1_555 1_555
C18_3 C19_3 1_555 1_555
C19_3 C20_3 1_555 1_555
C20_3 H8_3 1_555 1_555
C22_3 C21_3 1_555 1_555
C23_3 C18_3 1_555 1_555
H10_3 C24_3 1_555 1_555
H11_3 C24_3 1_555 1_555
C27_3 C28_3 1_555 1_555
C28_3 H18_3 1_555 1_555
C30_3 C24_3 1_555 1_555
C31_3 C23_3 1_555 1_555
C32_3 C27_3 1_555 1_555
Br2_3 C19_3 1_555 1_555
O12_3 C32_3 1_555 1_555
H19_3 O12_3 1_555 1_555
O13_3 C18_3 1_555 1_555
H20_3 O13_3 1_555 1_555
N2_3 C34_3 1_555 1_555
H25_3 C34_3 1_555 1_555
C35_3 N2_3 1_555 1_555
H27_3 C35_3 1_555 1_555
H28_3 C35_3 1_555 1_555
H29_3 C35_3 1_555 1_555
Cd7_2 O6_2 1_555 1_555
O6_2 Cd5_2 1_555 1_555
C20_3 C21_3 1_555 1_555
C22_3 C23_3 1_555 1_555
C28_3 C29_3 1_555 1_555
C29_3 C30_3 1_555 1_555
C30_3 C31_3 1_555 1_555
C31_3 C32_3 1_555 1_555
Cd5 O9_3 1_555 1_555
Cd7 O2_3 1_555 1_555
O1_2 C9_3 1_555 1_555
O2_3 C17_3 1_555 1_555
O16 C8_3 1_555 1_555
O5_2 C9_3 1_555 1_555
O19 C8_3 1_555 1_555
O8_3 Cd7 1_555 1_555
C1_3 C2_3 1_555 1_555
C2_3 H1_3 1_555 1_555
C3_3 C2_3 1_555 1_555
C6_3 C1_3 1_555 1_555
H3_3 C6_3 1_555 1_555
O9_3 C7_3 1_555 1_555
C7_3 O8_3 1_555 1_555
C8_3 C1_3 1_555 1_555
C9_3 C16_3 1_555 1_555
O10_3 Cd7 1_555 1_555
O11_3 Cd7 1_555 1_555
C11_3 H4_3 1_555 1_555
C12_3 C11_3 1_555 1_555
C13_3 C12_3 1_555 1_555
H5_3 C13_3 1_555 1_555
C14_3 C7_3 1_555 1_555
C15_3 C14_3 1_555 1_555
H6_3 C15_3 1_555 1_555
C16_3 C11_3 1_555 1_555
C17_3 H7_3 1_555 1_555
N1_3 C17_3 1_555 1_555
C25_3 N1_3 1_555 1_555
H12_3 C25_3 1_555 1_555
H13_3 C25_3 1_555 1_555
H14_3 C25_3 1_555 1_555
C26_3 N1_3 1_555 1_555
H15_3 C26_3 1_555 1_555
H16_3 C26_3 1_555 1_555
H17_3 C26_3 1_555 1_555
H21_3 C33_3 1_555 1_555
H22_3 C33_3 1_555 1_555
H23_3 C33_3 1_555 1_555
C36_3 O11_3 1_555 1_555
H30_3 C36_3 1_555 1_555
O18_2 Cd5 1_555 1_555
Cd7 O18_2 1_555 1_555
C5_3 C6_3 1_555 1_555
C13_3 C14_3 1_555 1_555
C15_3 C16_3 1_555 1_555
O10_3 H31_3 1_555 1_555
O10_3 H32_3 1_555 1_555
Cd5_2 O9_4 1_555 1_555
Cd7_2 O2_4 1_555 1_555
O2_4 C17_4 1_555 1_555
O8_4 Cd7_2 1_555 1_555
O9_4 C7_4 1_555 1_555
C7_4 O8_4 1_555 1_555
O10_4 Cd7_2 1_555 1_555
O11_4 Cd7_2 1_555 1_555
H5_4 C13_4 1_555 1_555
C14_4 C7_4 1_555 1_555
C17_4 H7_4 1_555 1_555
N1_4 C17_4 1_555 1_555
C25_4 N1_4 1_555 1_555
H12_4 C25_4 1_555 1_555
H13_4 C25_4 1_555 1_555
H14_4 C25_4 1_555 1_555
C26_4 N1_4 1_555 1_555
H15_4 C26_4 1_555 1_555
H16_4 C26_4 1_555 1_555
H17_4 C26_4 1_555 1_555
H22_4 C33_4 1_555 1_555
H23_4 C33_4 1_555 1_555
C36_4 O11_4 1_555 1_555
H30_4 C36_4 1_555 1_555
O14_2 Cd5_2 1_555 1_555
O17_2 Cd5_2 1_555 1_555
C13_4 C14_4 1_555 1_555
Br1_2 C27_4 1_555 1_555
O18_2 C10_4 1_555 1_555
H2_4 C4_4 1_555 1_555
C23_4 C18_4 1_555 1_555
C27_4 C28_4 1_555 1_555
C28_4 H18_4 1_555 1_555
C31_4 C23_4 1_555 1_555
C32_4 C27_4 1_555 1_555
O12_4 C32_4 1_555 1_555
H19_4 O12_4 1_555 1_555
O13_4 C18_4 1_555 1_555
C28_4 C29_4 1_555 1_555
C29_4 C30_4 1_555 1_555
C30_4 C31_4 1_555 1_555
C31_4 C32_4 1_555 1_555
O16_2 C8_4 1_555 1_555
O19_2 C8_4 1_555 1_555
C1_4 C2_4 1_555 1_555
C2_4 H1_4 1_555 1_555
C6_4 C1_4 1_555 1_555
H3_4 C6_4 1_555 1_555
C8_4 C1_4 1_555 1_555
O14_2 C9_4 1_555 1_555
O17_2 C9_4 1_555 1_555
C9_4 C16_4 1_555 1_555
C11_4 H4_4 1_555 1_555
C12_4 C11_4 1_555 1_555
H6_4 C15_4 1_555 1_555
C16_4 C11_4 1_555 1_555
C15_4 C16_4 1_555 1_555
H10_4 C24_4 1_555 1_555
H11_4 C24_4 1_555 1_555
C19_4 C20_4 1_555 1_555
C20_4 H8_4 1_555 1_555
Br2_4 C19_4 1_555 1_555
N2_4 C34_4 1_555 1_555
H25_4 C34_4 1_555 1_555
C35_4 N2_4 1_555 1_555
H27_4 C35_4 1_555 1_555
H28_4 C35_4 1_555 1_555
H29_4 C35_4 1_555 1_555
C20_4 C21_4 1_555 1_555

#END
