
###############################################################################
#
# This file contains modified crystal structure data generated from the
# MOF subset of the Cambridge Structural Database (CSD) v543 
# hosted by the Cambridge Crystallographic Data Centre (CCDC).
#
# This work is licensed under the Creative Commons
# Attribution-NonCommercial-ShareAlike 4.0 International License.
# To view a copy of this license, visit
# http://creativecommons.org/licenses/by-nc-sa/4.0/
# or send a letter to
# Creative Commons, PO Box 1866, Mountain View, CA 94042, USA.
#
# CIF created using the CSD Python API on 29 September 2022
# The structure has been converted into the P1 space group
# The structure has a 3D framework
# The original CSD entry JIKJIZ is in the orthorhombic crystal system
# The original CSD entry JIKJIZ is in a Sohncke space group
# The framework has been calculated to contain at least 10.0% void space
# The void calculation uses a probe of radius 1.32A, grid spacing 0.4
#
###############################################################################

data_JIKJIZ
_chemical_formula_moiety         '(C144 H128 Br8 Cd8 N8 O52)n'
_symmetry_cell_setting           triclinic
_symmetry_space_group_name_H-M   'P 1'
_symmetry_Int_Tables_number      1
_space_group_name_Hall           'P 1'
loop_
_symmetry_equiv_pos_site_id
_symmetry_equiv_pos_as_xyz
1 x,y,z
_cell_length_a                   10.3385(5)
_cell_length_b                   17.3404(8)
_cell_length_c                   34.9227(16)
_cell_angle_alpha                90
_cell_angle_beta                 90
_cell_angle_gamma                90
_cell_volume                     6260.72
loop_
_atom_site_label
_atom_site_type_symbol
_atom_site_fract_x
_atom_site_fract_y
_atom_site_fract_z
Br1 Br 0.51238(9) 0.42743(9) 0.09213(3)
C4 C 0.0480(6) 0.5075(3) 0.23083(13)
C5 C 0.0504(5) 0.4617(3) 0.26672(13)
C6 C 0.0975(5) 0.4772(3) 0.19603(14)
H2 H 0.1363 0.4276 0.1956
C7 C 0.0888(5) 0.5205(3) 0.16244(14)
C8 C 0.0322(6) 0.5922(3) 0.16346(13)
H3 H 0.0256 0.6216 0.1406
C9 C 0.1443(6) 0.4901(3) 0.12576(14)
C10 C 0.2750(6) 0.4735(4) 0.12491(15)
H4 H 0.3248 0.4771 0.1477
C11 C 0.3327(7) 0.4520(5) 0.09128(19)
C12 C 0.2638(6) 0.4438(3) 0.05803(14)
C14 C 0.1330(6) 0.4572(3) 0.05874(13)
C15 C 0.0697(6) 0.4815(3) 0.09288(14)
C16 C 0.0564(6) 0.4415(3) 0.02271(14)
C17 C 0.0037(8) 0.3697(4) 0.01917(16)
H8 H 0.0959 0.5925 0.0261
O3 O 0.0160(5) 0.4920(2) 0.29731(10)
O4 O 0.0857(3) 0.39111(19) 0.26543(9)
O5 O 0.3265(5) 0.4221(3) 0.02588(12)
H29 H 0.2724 0.4135 0.0084
O6 O 0.0209(6) 0.3187(3) 0.04810(12)
Cd3 Cd 0.03420(3) 0.37355(2) 0.33126(2)
Cd6 Cd 0.26944(3) 0.31805(2) 0.25930(2)
O16 O 0.1050(4) 0.9078(3) 0.12014(11)
O17 O 0.1951(4) 0.8638(2) 0.17255(10)
C18 C 0.1071(6) 0.5762(3) 0.99943(15)
H9 H 0.0651 0.6136 0.9824
H10 H 0.1995 0.5735 0.9934
C22 C 0.0465(6) 0.4977(3) 0.99379(13)
C24 C 0.0758(5) 0.5562(3) 0.90718(14)
H12 H 0.1590 0.5457 0.9175
C25 C 0.0652(5) 0.5969(3) 0.87280(13)
C26 C 0.1862(5) 0.6185(3) 0.85070(15)
O9 O 0.1693(5) 0.6485(3) 0.81847(12)
O10 O 0.2906(4) 0.6011(2) 0.86539(12)
Cd5 Cd 0.46580(3) 0.62645(2) 0.83126(2)
Cd7 Cd 0.23056(3) 0.68195(2) 0.75930(2)
C1 C 0.9258(6) 0.7033(3) 0.19809(14)
C2 C 0.9845(5) 0.6224(3) 0.19747(13)
C3 C 0.9936(5) 0.5798(3) 0.23085(13)
H1 H 0.9619 0.6009 0.2541
C13 C 0.9283(7) 0.4940(4) 0.09169(17)
H5 H 0.8925 0.4886 0.1175
H6 H 0.8884 0.4557 0.0748
H7 H 0.9101 0.5459 0.0820
C31 C 0.5087(10) 0.9251(5) 0.2510(3)
H15 H 0.4868 0.8933 0.2298
C32 C 0.2883(12) 0.9825(8) 0.2476(4)
H16 H 0.2237 0.9643 0.2660
H17 H 0.2847 0.9504 0.2245
C34 C 0.7946(7) 0.7216(3) 0.31302(16)
H22 H 0.8060 0.6848 0.2932
C35 C 0.8415(9) 0.6186(4) 0.3576(2)
H23 H 0.7615 0.5893 0.3615
H24 H 0.8936 0.6169 0.3810
H25 H 0.8906 0.5958 0.3365
C36 C 0.7875(13) 0.7502(5) 0.3796(2)
H26 H 0.7389 0.7949 0.3702
H27 H 0.8706 0.7674 0.3901
H28 H 0.7377 0.7241 0.3996
Cd1 Cd 0.96580(3) 0.87355(2) 0.16874(2)
Cd2 Cd 0.73056(3) 0.81805(2) 0.24070(2)
N1 N 0.4141(6) 0.9774(4) 0.2642(2)
N2 N 0.8101(6) 0.6979(3) 0.34851(13)
O1 O 0.9520(4) 0.7460(2) 0.17003(10)
O2 O 0.8583(4) 0.7200(2) 0.22697(11)
H30 H 0.9485 0.3050 0.0567
O11 O 0.6100(4) 0.9179(3) 0.26388(15)
O12 O 0.7665(5) 0.7880(2) 0.30352(10)
O13 O 0.5559(6) 0.7378(3) 0.24425(18)
H31 H 0.5181 0.7366 0.2226
H32 H 0.5812 0.6926 0.2501
O14 O 0.9840(5) 0.9920(2) 0.20269(10)
O15 O 0.9143(3) 0.89111(19) 0.23457(9)
O18 O 0.6693(5) 0.8515(3) 0.18153(12)
O19 O 0.7906(4) 0.8989(2) 0.13461(12)
Br2 Br 0.86667(17) 0.25282(6) 0.97824(3)
C19 C 0.9354(9) 0.3524(4) 0.9852(2)
C20 C 0.9210(8) 0.4080(4) 0.95674(18)
H11 H 0.8723 0.3963 0.9344
C21 C 0.9753(6) 0.4785(3) 0.96049(14)
C23 C 0.9644(6) 0.5308(3) 0.92665(13)
C27 C 0.9449(5) 0.6142(3) 0.85787(12)
H13 H 0.9384 0.6416 0.8344
C28 C 0.8330(5) 0.5917(3) 0.87714(14)
C29 C 0.7040(5) 0.6080(3) 0.86028(14)
C30 C 0.8444(5) 0.5493(3) 0.91120(14)
H14 H 0.7682 0.5329 0.9240
O7 O 0.6050(4) 0.5922(3) 0.87986(11)
O8 O 0.6951(4) 0.6362(2) 0.82745(10)
H15_2 H 0.0132 0.1067 0.7298
C32_2 C 0.2117(12) 0.0175(8) 0.7476(4)
H16_2 H 0.2763 0.0357 0.7660
H17_2 H 0.2153 0.0496 0.7245
N1_2 N 0.0859(6) 0.0226(4) 0.7642(2)
Br2_2 Br 0.63333(17) 0.74718(6) 0.47824(3)
C1_2 C 0.5742(6) 0.2967(3) 0.69809(14)
C2_2 C 0.5155(5) 0.3776(3) 0.69747(13)
C3_2 C 0.5064(5) 0.4202(3) 0.73085(13)
H1_2 H 0.5381 0.3991 0.7541
C4_2 C 0.4520(6) 0.4925(3) 0.73083(13)
C5_2 C 0.4496(5) 0.5383(3) 0.76672(13)
C6_2 C 0.4025(5) 0.5228(3) 0.69603(14)
H2_2 H 0.3637 0.5724 0.6956
C7_2 C 0.4112(5) 0.4795(3) 0.66244(14)
C8_2 C 0.4678(6) 0.4078(3) 0.66346(13)
H3_2 H 0.4744 0.3784 0.6406
C9_2 C 0.3557(6) 0.5099(3) 0.62576(14)
C10_2 C 0.2250(6) 0.5265(4) 0.62491(15)
H4_2 H 0.1752 0.5229 0.6477
C11_2 C 0.1673(7) 0.5480(5) 0.59128(19)
C12_2 C 0.2362(6) 0.5562(3) 0.55803(14)
C13_2 C 0.5717(7) 0.5060(4) 0.59169(17)
H5_2 H 0.6075 0.5114 0.6175
H6_2 H 0.6116 0.5443 0.5748
H7_2 H 0.5899 0.4541 0.5820
C14_2 C 0.3670(6) 0.5428(3) 0.55874(13)
C15_2 C 0.4303(6) 0.5185(3) 0.59288(14)
C16_2 C 0.4436(6) 0.5585(3) 0.52271(14)
C17_2 C 0.4963(8) 0.6303(4) 0.51917(16)
C18_2 C 0.3929(6) 0.4238(3) 0.49943(15)
H8_2 H 0.4041 0.4075 0.5261
H9_2 H 0.4349 0.3864 0.4824
H10_2 H 0.3005 0.4265 0.4934
C19_2 C 0.5646(9) 0.6476(4) 0.4852(2)
C20_2 C 0.5790(8) 0.5920(4) 0.45674(18)
H11_2 H 0.6277 0.6037 0.4344
C21_2 C 0.5247(6) 0.5215(3) 0.46049(14)
C22_2 C 0.4535(6) 0.5023(3) 0.49379(13)
C23_2 C 0.5356(6) 0.4692(3) 0.42665(13)
C24_2 C 0.4242(5) 0.4438(3) 0.40718(14)
H12_2 H 0.3410 0.4543 0.4175
C25_2 C 0.4348(5) 0.4031(3) 0.37280(13)
C26_2 C 0.3138(5) 0.3815(3) 0.35070(15)
C27_2 C 0.5551(5) 0.3858(3) 0.35787(12)
H13_2 H 0.5616 0.3584 0.3344
C28_2 C 0.6670(5) 0.4083(3) 0.37714(14)
C29_2 C 0.7960(5) 0.3920(3) 0.36028(14)
C30_2 C 0.6556(5) 0.4507(3) 0.41120(14)
H14_2 H 0.7318 0.4671 0.4240
C31_2 C 0.9913(10) 0.0749(5) 0.7510(3)
C34_2 C 0.7054(7) 0.2784(3) 0.81302(16)
H22_2 H 0.6940 0.3152 0.7932
C35_2 C 0.6585(9) 0.3814(4) 0.8576(2)
H23_2 H 0.7385 0.4107 0.8615
H24_2 H 0.6064 0.3831 0.8810
H25_2 H 0.6094 0.4042 0.8365
C36_2 C 0.7125(13) 0.2498(5) 0.8796(2)
H26_2 H 0.7611 0.2051 0.8702
H27_2 H 0.6294 0.2326 0.8901
H28_2 H 0.7623 0.2759 0.8996
Cd1_2 Cd 0.53420(3) 0.12645(2) 0.66874(2)
Cd2_2 Cd 0.76944(3) 0.18195(2) 0.74070(2)
N2_2 N 0.6899(6) 0.3021(3) 0.84851(13)
O1_2 O 0.5480(4) 0.2540(2) 0.67003(10)
O2_2 O 0.6417(4) 0.2800(2) 0.72697(11)
O3_2 O 0.4840(5) 0.5080(2) 0.79731(10)
O4_2 O 0.4143(3) 0.60889(19) 0.76543(9)
O5_2 O 0.1735(5) 0.5779(3) 0.52588(12)
H29_2 H 0.2276 0.5865 0.5084
O6_2 O 0.4791(6) 0.6813(3) 0.54810(12)
H30_2 H 0.5515 0.6950 0.5567
O7_2 O 0.8950(4) 0.4078(3) 0.37986(11)
O8_2 O 0.8049(4) 0.3638(2) 0.32745(10)
O9_2 O 0.3307(5) 0.3515(3) 0.31847(12)
O10_2 O 0.2094(4) 0.3989(2) 0.36539(12)
O11_2 O 0.8900(4) 0.0821(3) 0.76388(15)
O12_2 O 0.7335(5) 0.2120(2) 0.80352(10)
O13_2 O 0.9441(6) 0.2622(3) 0.74425(18)
H31_2 H 0.9819 0.2634 0.7226
H32_2 H 0.9188 0.3074 0.7501
O14_2 O 0.5160(5) 0.0080(2) 0.70269(10)
O15_2 O 0.5857(3) 0.10889(19) 0.73457(9)
O16_2 O 0.3950(4) 0.0922(3) 0.62014(11)
O17_2 O 0.3049(4) 0.1362(2) 0.67255(10)
O18_2 O 0.8307(5) 0.1485(3) 0.68153(12)
O19_2 O 0.7094(4) 0.1011(2) 0.63461(12)
C1_3 C 0.0742(6) 0.2033(3) 0.30191(14)
C2_3 C 0.0155(5) 0.1224(3) 0.30253(13)
C3_3 C 0.0064(5) 0.0798(3) 0.26915(13)
H1_3 H 0.0381 0.1009 0.2459
H7_3 H 0.0899 0.0459 0.4180
C23_3 C 0.0356(6) 0.0308(3) 0.57335(13)
C27_3 C 0.0551(5) 0.1142(3) 0.64213(12)
H13_3 H 0.0616 0.1416 0.6656
C28_3 C 0.1670(5) 0.0917(3) 0.62286(14)
C29_3 C 0.2960(5) 0.1080(3) 0.63972(14)
C30_3 C 0.1556(5) 0.0493(3) 0.58880(14)
H14_3 H 0.2318 0.0329 0.5760
C31_3 C 0.4913(10) 0.4251(5) 0.2490(3)
H15_3 H 0.5132 0.3933 0.2702
C32_3 C 0.7117(12) 0.4825(8) 0.2524(4)
H16_3 H 0.7763 0.4643 0.2340
H17_3 H 0.7153 0.4504 0.2755
H18 H 0.7301 0.5362 0.2592
C33 C 0.5546(15) 0.5235(8) 0.2054(4)
H19 H 0.4754 0.5042 0.1933
H20 H 0.6254 0.5229 0.1868
H21 H 0.5405 0.5764 0.2144
C34_3 C 0.2054(7) 0.2216(3) 0.18698(16)
H22_3 H 0.1940 0.1848 0.2068
C35_3 C 0.1585(9) 0.1186(4) 0.1424(2)
H23_3 H 0.2385 0.0893 0.1385
H24_3 H 0.1064 0.1169 0.1190
H25_3 H 0.1094 0.0958 0.1635
C36_3 C 0.2125(13) 0.2502(5) 0.1204(2)
H26_3 H 0.2611 0.2949 0.1298
H27_3 H 0.1294 0.2674 0.1099
H28_3 H 0.2623 0.2241 0.1004
N1_3 N 0.5859(6) 0.4774(4) 0.2358(2)
N2_3 N 0.1899(6) 0.1979(3) 0.15149(13)
O1_3 O 0.0480(4) 0.2460(2) 0.32997(10)
O2_3 O 0.1417(4) 0.2200(2) 0.27303(11)
O11_3 O 0.3900(4) 0.4179(3) 0.23612(15)
O12_3 O 0.2335(5) 0.2880(2) 0.19648(10)
O13_3 O 0.4441(6) 0.2378(3) 0.25575(18)
H31_3 H 0.4819 0.2366 0.2774
H32_3 H 0.4188 0.1926 0.2499
C4_3 C 0.9520(6) 0.0075(3) 0.26917(13)
C7_3 C 0.9112(5) 0.0205(3) 0.33756(14)
C8_3 C 0.9678(6) 0.0922(3) 0.33654(13)
H3_3 H 0.9744 0.1216 0.3594
C18_3 C 0.8929(6) 0.0762(3) 0.50057(15)
H8_3 H 0.9041 0.0925 0.4739
H9_3 H 0.9349 0.1136 0.5176
H10_3 H 0.8005 0.0735 0.5066
C24_3 C 0.9242(5) 0.0562(3) 0.59282(14)
H12_3 H 0.8410 0.0457 0.5825
C25_3 C 0.9348(5) 0.0969(3) 0.62720(13)
C26_3 C 0.8138(5) 0.1185(3) 0.64930(15)
Br1_2 Br 0.48762(9) 0.92743(9) 0.40787(3)
C5_3 C 0.9496(5) 0.9617(3) 0.23328(13)
C6_3 C 0.9025(5) 0.9772(3) 0.30397(14)
H2_3 H 0.8637 0.9276 0.3044
C9_3 C 0.8557(6) 0.9901(3) 0.37424(14)
C10_3 C 0.7250(6) 0.9735(4) 0.37509(15)
H4_3 H 0.6752 0.9771 0.3523
C11_3 C 0.6673(7) 0.9520(5) 0.40872(19)
C12_3 C 0.7362(6) 0.9438(3) 0.44197(14)
C14_3 C 0.8670(6) 0.9572(3) 0.44126(13)
C15_3 C 0.9303(6) 0.9815(3) 0.40712(14)
C16_3 C 0.9436(6) 0.9415(3) 0.47729(14)
C17_3 C 0.9963(8) 0.8697(4) 0.48083(16)
C22_3 C 0.9535(6) 0.9977(3) 0.50621(13)
O5_3 O 0.6735(5) 0.9221(3) 0.47412(12)
H29_3 H 0.7276 0.9135 0.4916
O6_3 O 0.9791(6) 0.8187(3) 0.45190(12)
C5_4 C 0.5504(5) 0.0383(3) 0.73328(13)
C6_4 C 0.5975(5) 0.0228(3) 0.80397(14)
H2_4 H 0.6363 0.0724 0.8044
C9_4 C 0.6443(6) 0.0099(3) 0.87424(14)
C10_4 C 0.7750(6) 0.0265(4) 0.87509(15)
H4_4 H 0.8248 0.0229 0.8523
C11_4 C 0.8327(7) 0.0480(5) 0.90872(19)
C12_4 C 0.7638(6) 0.0562(3) 0.94197(14)
C13_3 C 0.4283(7) 0.0060(4) 0.90831(17)
H5_3 H 0.3925 0.0114 0.8825
H6_3 H 0.3884 0.0443 0.9252
C14_4 C 0.6330(6) 0.0428(3) 0.94126(13)
C15_4 C 0.5697(6) 0.0185(3) 0.90712(14)
C16_4 C 0.5564(6) 0.0585(3) 0.97729(14)
C17_4 C 0.5037(8) 0.1303(4) 0.98083(16)
O5_4 O 0.8265(5) 0.0779(3) 0.97412(12)
H29_4 H 0.7724 0.0865 0.9916
O6_4 O 0.5209(6) 0.1813(3) 0.95190(12)
H30_3 H 0.4485 0.1950 0.9433
C18_4 C 0.6071(6) 0.9238(3) 0.00057(15)
H9_4 H 0.5651 0.8864 0.0176
H10_4 H 0.6995 0.9265 0.0066
C23_4 C 0.4644(6) 0.9692(3) 0.07335(13)
C24_4 C 0.5758(5) 0.9438(3) 0.09282(14)
H12_4 H 0.6590 0.9543 0.0825
C25_4 C 0.5652(5) 0.9031(3) 0.12720(13)
C26_4 C 0.6862(5) 0.8815(3) 0.14930(15)
C27_4 C 0.4449(5) 0.8858(3) 0.14213(12)
H13_4 H 0.4384 0.8584 0.1656
C28_4 C 0.3330(5) 0.9083(3) 0.12286(14)
C29_4 C 0.2040(5) 0.8920(3) 0.13972(14)
C30_4 C 0.3444(5) 0.9507(3) 0.08880(14)
H14_4 H 0.2682 0.9671 0.0760
C1_4 C 0.4258(6) 0.7967(3) 0.80191(14)
C2_4 C 0.4845(5) 0.8776(3) 0.80253(13)
C3_4 C 0.4936(5) 0.9202(3) 0.76915(13)
H1_4 H 0.4619 0.8991 0.7459
C4_4 C 0.5480(6) 0.9925(3) 0.76917(13)
C7_4 C 0.5888(5) 0.9795(3) 0.83756(14)
C8_4 C 0.5322(6) 0.9078(3) 0.83654(13)
H3_4 H 0.5256 0.8784 0.8594
H7_4 H 0.4101 0.9541 0.9180
H8_4 H 0.5959 0.9075 0.9739
C31_4 C 0.0087(10) 0.5749(5) 0.7490(3)
H19_2 H 0.0246 0.4958 0.6933
C34_4 C 0.2946(7) 0.7784(3) 0.68698(16)
H22_4 H 0.3060 0.8152 0.7068
C35_4 C 0.3415(9) 0.8814(4) 0.6424(2)
H23_4 H 0.2615 0.9107 0.6385
H24_4 H 0.3936 0.8831 0.6190
H25_4 H 0.3906 0.9042 0.6635
C36_4 C 0.2875(13) 0.7498(5) 0.6204(2)
H26_4 H 0.2389 0.7051 0.6298
H27_4 H 0.3706 0.7326 0.6099
H28_4 H 0.2377 0.7759 0.6004
N2_4 N 0.3101(6) 0.8021(3) 0.65149(13)
O1_4 O 0.4520(4) 0.7540(2) 0.82997(10)
O2_4 O 0.3583(4) 0.7800(2) 0.77303(11)
O11_4 O 0.1100(4) 0.5821(3) 0.73612(15)
O12_4 O 0.2665(5) 0.7120(2) 0.69648(10)
O13_4 O 0.0559(6) 0.7622(3) 0.75575(18)
H31_4 H 0.0181 0.7634 0.7774
H32_4 H 0.0812 0.8074 0.7499
H18_2 H 0.2699 0.0362 0.2408
C33_2 C 0.4454(15) 0.0235(8) 0.2946(4)
H19_3 H 0.5246 0.0042 0.3067
H20_2 H 0.3746 0.0229 0.3132
H21_2 H 0.4595 0.0764 0.2856
H18_3 H 0.2301 0.9638 0.7408
C33_3 C 0.0546(15) 0.9765(8) 0.7946(4)
H20_3 H 0.1254 0.9771 0.8132
H21_3 H 0.0405 0.9236 0.7856
H19_4 H 0.9754 0.9958 0.8067
Br1_3 Br 0.98762(9) 0.57257(9) 0.59213(3)
Br2_3 Br 0.13333(17) 0.75282(6) 0.52176(3)
C13_4 C 0.0717(7) 0.9940(4) 0.40831(17)
H5_4 H 0.1075 0.9886 0.3825
H6_4 H 0.1116 0.9557 0.4252
C19_3 C 0.0646(9) 0.8524(4) 0.5148(2)
C20_3 C 0.0790(8) 0.9080(4) 0.54326(18)
H11_3 H 0.1277 0.8963 0.5656
C21_3 C 0.0247(6) 0.9785(3) 0.53951(14)
H30_4 H 0.0515 0.8050 0.4433
Br1_4 Br 0.01238(9) 0.07257(9) 0.90787(3)
Br2_4 Br 0.36667(17) 0.24718(6) 0.02176(3)
C19_4 C 0.4354(9) 0.1476(4) 0.0148(2)
C20_4 C 0.4210(8) 0.0920(4) 0.04326(18)
H11_4 H 0.3723 0.1037 0.0656
C21_4 C 0.4753(6) 0.0215(3) 0.03951(14)
C22_4 C 0.5465(6) 0.0023(3) 0.00621(13)
H15_4 H 0.9868 0.6067 0.7702
C32_4 C 0.7883(12) 0.5175(8) 0.7524(4)
H16_4 H 0.7237 0.5357 0.7340
H17_4 H 0.7847 0.5496 0.7755
H18_4 H 0.7699 0.4638 0.7592
C33_4 C 0.9454(15) 0.4765(8) 0.7054(4)
H20_4 H 0.8746 0.4771 0.6868
H21_4 H 0.9595 0.4236 0.7144
N1_4 N 0.9141(6) 0.5226(4) 0.7358(2)
loop_
_geom_bond_atom_site_label_1
_geom_bond_atom_site_label_2
_geom_bond_site_symmetry_1
_geom_bond_site_symmetry_2
Br1 C11 1_555 1_555
C5 C4 1_555 1_555
C6 C4 1_555 1_555
H2 C6 1_555 1_555
C7 C6 1_555 1_555
H3 C8 1_555 1_555
C9 C7 1_555 1_555
C10 C9 1_555 1_555
H4 C10 1_555 1_555
C11 C10 1_555 1_555
C12 C11 1_555 1_555
C14 C12 1_555 1_555
C15 C9 1_555 1_555
C16 C14 1_555 1_555
C17 C16 1_555 1_555
O3 C5 1_555 1_555
O4 C5 1_555 1_555
O5 C12 1_555 1_555
H29 O5 1_555 1_555
O6 C17 1_555 1_555
Cd3 O3 1_555 1_555
Cd6 O4 1_555 1_555
C7 C8 1_555 1_555
C14 C15 1_555 1_555
O4 Cd3 1_555 1_555
H9 C18 1_555 1_555
H10 C18 1_555 1_555
H12 C24 1_555 1_555
C25 C24 1_555 1_555
C26 C25 1_555 1_555
O9 C26 1_555 1_555
O10 C26 1_555 1_555
Cd5 O10 1_555 1_555
Cd7 O9 1_555 1_555
C18 C22 1_555 1_555
C1 C2 1_555 1_555
C2 C3 1_555 1_555
C3 H1 1_555 1_555
C13 H5 1_555 1_555
H6 C13 1_555 1_555
H7 C13 1_555 1_555
C31 H15 1_555 1_555
C32 H16 1_555 1_555
H17 C32 1_555 1_555
C34 H22 1_555 1_555
C35 H23 1_555 1_555
H24 C35 1_555 1_555
H25 C35 1_555 1_555
C36 H26 1_555 1_555
H27 C36 1_555 1_555
H28 C36 1_555 1_555
Cd1 O1 1_555 1_555
Cd2 O2 1_555 1_555
N1 C31 1_555 1_555
N2 C34 1_555 1_555
O1 C1 1_555 1_555
O2 C1 1_555 1_555
O11 C31 1_555 1_555
O12 C34 1_555 1_555
O13 Cd2 1_555 1_555
H31 O13 1_555 1_555
H32 O13 1_555 1_555
O14 Cd1 1_555 1_555
O15 Cd1 1_555 1_555
O18 Cd2 1_555 1_555
O19 Cd1 1_555 1_555
C32 N1 1_555 1_555
C35 N2 1_555 1_555
C36 N2 1_555 1_555
Cd2 O11 1_555 1_555
Cd2 O12 1_555 1_555
Cd2 O15 1_555 1_555
Br2 C19 1_555 1_555
C20 C19 1_555 1_555
H11 C20 1_555 1_555
C21 C20 1_555 1_555
C23 C21 1_555 1_555
H13 C27 1_555 1_555
C28 C27 1_555 1_555
C29 C28 1_555 1_555
C30 C23 1_555 1_555
H14 C30 1_555 1_555
O7 C29 1_555 1_555
O8 C29 1_555 1_555
Cd5 O7 1_555 1_555
C28 C30 1_555 1_555
O8 Cd5 1_555 1_555
C32_2 H16_2 1_555 1_555
H17_2 C32_2 1_555 1_555
C32_2 N1_2 1_555 1_555
Br2_2 C19_2 1_555 1_555
C1_2 C2_2 1_555 1_555
C2_2 C3_2 1_555 1_555
C3_2 H1_2 1_555 1_555
C4_2 C3_2 1_555 1_555
C5_2 C4_2 1_555 1_555
C6_2 C4_2 1_555 1_555
H2_2 C6_2 1_555 1_555
C7_2 C6_2 1_555 1_555
C8_2 C2_2 1_555 1_555
H3_2 C8_2 1_555 1_555
C9_2 C7_2 1_555 1_555
C10_2 C9_2 1_555 1_555
H4_2 C10_2 1_555 1_555
C11_2 C10_2 1_555 1_555
C12_2 C11_2 1_555 1_555
C13_2 H5_2 1_555 1_555
H6_2 C13_2 1_555 1_555
H7_2 C13_2 1_555 1_555
C14_2 C12_2 1_555 1_555
C15_2 C9_2 1_555 1_555
C16_2 C14_2 1_555 1_555
C17_2 C16_2 1_555 1_555
C18_2 H8_2 1_555 1_555
H9_2 C18_2 1_555 1_555
H10_2 C18_2 1_555 1_555
C19_2 C17_2 1_555 1_555
C20_2 C19_2 1_555 1_555
H11_2 C20_2 1_555 1_555
C21_2 C20_2 1_555 1_555
C22_2 C16_2 1_555 1_555
C23_2 C21_2 1_555 1_555
C24_2 C23_2 1_555 1_555
H12_2 C24_2 1_555 1_555
C25_2 C24_2 1_555 1_555
C26_2 C25_2 1_555 1_555
C27_2 C25_2 1_555 1_555
H13_2 C27_2 1_555 1_555
C28_2 C27_2 1_555 1_555
C29_2 C28_2 1_555 1_555
C30_2 C23_2 1_555 1_555
H14_2 C30_2 1_555 1_555
C34_2 H22_2 1_555 1_555
C35_2 H23_2 1_555 1_555
H24_2 C35_2 1_555 1_555
H25_2 C35_2 1_555 1_555
C36_2 H26_2 1_555 1_555
H27_2 C36_2 1_555 1_555
H28_2 C36_2 1_555 1_555
Cd1_2 O1_2 1_555 1_555
Cd2_2 O2_2 1_555 1_555
N2_2 C34_2 1_555 1_555
O1_2 C1_2 1_555 1_555
O2_2 C1_2 1_555 1_555
O3_2 C5_2 1_555 1_555
O4_2 C5_2 1_555 1_555
O5_2 C12_2 1_555 1_555
H29_2 O5_2 1_555 1_555
O6_2 C17_2 1_555 1_555
H30_2 O6_2 1_555 1_555
O7_2 C29_2 1_555 1_555
O8_2 C29_2 1_555 1_555
O9_2 C26_2 1_555 1_555
O10_2 C26_2 1_555 1_555
O11_2 C31_2 1_555 1_555
O12_2 C34_2 1_555 1_555
O13_2 Cd2_2 1_555 1_555
H31_2 O13_2 1_555 1_555
H32_2 O13_2 1_555 1_555
Cd5 O3_2 1_555 1_555
Cd3 O10_2 1_555 1_555
Cd7 O4_2 1_555 1_555
Cd6 O9_2 1_555 1_555
O14_2 Cd1_2 1_555 1_555
O15_2 Cd1_2 1_555 1_555
O16_2 Cd1_2 1_555 1_555
O17_2 Cd1_2 1_555 1_555
O18_2 Cd2_2 1_555 1_555
O19_2 Cd1_2 1_555 1_555
C7_2 C8_2 1_555 1_555
C13_2 C15_2 1_555 1_555
C14_2 C15_2 1_555 1_555
C18_2 C22_2 1_555 1_555
C21_2 C22_2 1_555 1_555
C28_2 C30_2 1_555 1_555
C35_2 N2_2 1_555 1_555
C36_2 N2_2 1_555 1_555
Cd2_2 O11_2 1_555 1_555
Cd2_2 O12_2 1_555 1_555
Cd2_2 O15_2 1_555 1_555
O4_2 Cd5 1_555 1_555
C1_3 C2_3 1_555 1_555
C2_3 C3_3 1_555 1_555
C3_3 H1_3 1_555 1_555
H13_3 C27_3 1_555 1_555
C28_3 C27_3 1_555 1_555
C29_3 C28_3 1_555 1_555
C30_3 C23_3 1_555 1_555
H14_3 C30_3 1_555 1_555
C31_3 H15_3 1_555 1_555
C32_3 H16_3 1_555 1_555
H17_3 C32_3 1_555 1_555
H18 C32_3 1_555 1_555
C33 H19 1_555 1_555
H20 C33 1_555 1_555
H21 C33 1_555 1_555
C34_3 H22_3 1_555 1_555
C35_3 H23_3 1_555 1_555
H24_3 C35_3 1_555 1_555
H25_3 C35_3 1_555 1_555
C36_3 H26_3 1_555 1_555
H27_3 C36_3 1_555 1_555
H28_3 C36_3 1_555 1_555
Cd3 O1_3 1_555 1_555
Cd6 O2_3 1_555 1_555
N1_3 C31_3 1_555 1_555
N2_3 C34_3 1_555 1_555
O1_3 C1_3 1_555 1_555
O2_3 C1_3 1_555 1_555
O16_2 C29_3 1_555 1_555
O17_2 C29_3 1_555 1_555
O11_3 C31_3 1_555 1_555
O12_3 C34_3 1_555 1_555
O13_3 Cd6 1_555 1_555
H31_3 O13_3 1_555 1_555
H32_3 O13_3 1_555 1_555
C28_3 C30_3 1_555 1_555
C32_3 N1_3 1_555 1_555
C33 N1_3 1_555 1_555
C35_3 N2_3 1_555 1_555
C36_3 N2_3 1_555 1_555
Cd6 O11_3 1_555 1_555
Cd6 O12_3 1_555 1_555
H3_3 C8_3 1_555 1_555
C18_3 H8_3 1_555 1_555
H9_3 C18_3 1_555 1_555
H10_3 C18_3 1_555 1_555
H12_3 C24_3 1_555 1_555
C25_3 C24_3 1_555 1_555
C26_3 C25_3 1_555 1_555
O18_2 C26_3 1_555 1_555
O19_2 C26_3 1_555 1_555
C7_3 C8_3 1_555 1_555
Br1_2 C11_3 1_555 1_555
H2_3 C6_3 1_555 1_555
C10_3 C9_3 1_555 1_555
H4_3 C10_3 1_555 1_555
C11_3 C10_3 1_555 1_555
C12_3 C11_3 1_555 1_555
C14_3 C12_3 1_555 1_555
C15_3 C9_3 1_555 1_555
C16_3 C14_3 1_555 1_555
C17_3 C16_3 1_555 1_555
C22_3 C16_3 1_555 1_555
O14 C5_3 1_555 1_555
O15 C5_3 1_555 1_555
O5_3 C12_3 1_555 1_555
H29_3 O5_3 1_555 1_555
O6_3 C17_3 1_555 1_555
C14_3 C15_3 1_555 1_555
H2_4 C6_4 1_555 1_555
C10_4 C9_4 1_555 1_555
H4_4 C10_4 1_555 1_555
C11_4 C10_4 1_555 1_555
C12_4 C11_4 1_555 1_555
C13_3 H5_3 1_555 1_555
H6_3 C13_3 1_555 1_555
C14_4 C12_4 1_555 1_555
C15_4 C9_4 1_555 1_555
C16_4 C14_4 1_555 1_555
C17_4 C16_4 1_555 1_555
O14_2 C5_4 1_555 1_555
O15_2 C5_4 1_555 1_555
O5_4 C12_4 1_555 1_555
H29_4 O5_4 1_555 1_555
O6_4 C17_4 1_555 1_555
H30_3 O6_4 1_555 1_555
C13_3 C15_4 1_555 1_555
C14_4 C15_4 1_555 1_555
H9_4 C18_4 1_555 1_555
H10_4 C18_4 1_555 1_555
C24_4 C23_4 1_555 1_555
H12_4 C24_4 1_555 1_555
C25_4 C24_4 1_555 1_555
C26_4 C25_4 1_555 1_555
C27_4 C25_4 1_555 1_555
H13_4 C27_4 1_555 1_555
C28_4 C27_4 1_555 1_555
C29_4 C28_4 1_555 1_555
C30_4 C23_4 1_555 1_555
H14_4 C30_4 1_555 1_555
O16 C29_4 1_555 1_555
O17 C29_4 1_555 1_555
O18 C26_4 1_555 1_555
O19 C26_4 1_555 1_555
C28_4 C30_4 1_555 1_555
C1_4 C2_4 1_555 1_555
C2_4 C3_4 1_555 1_555
C3_4 H1_4 1_555 1_555
C4_4 C3_4 1_555 1_555
C8_4 C2_4 1_555 1_555
H3_4 C8_4 1_555 1_555
C34_4 H22_4 1_555 1_555
C35_4 H23_4 1_555 1_555
H24_4 C35_4 1_555 1_555
H25_4 C35_4 1_555 1_555
C36_4 H26_4 1_555 1_555
H27_4 C36_4 1_555 1_555
H28_4 C36_4 1_555 1_555
Cd5 O1_4 1_555 1_555
Cd7 O2_4 1_555 1_555
N2_4 C34_4 1_555 1_555
O1_4 C1_4 1_555 1_555
O2_4 C1_4 1_555 1_555
O11_4 C31_4 1_555 1_555
O12_4 C34_4 1_555 1_555
O13_4 Cd7 1_555 1_555
H31_4 O13_4 1_555 1_555
H32_4 O13_4 1_555 1_555
C7_4 C8_4 1_555 1_555
C35_4 N2_4 1_555 1_555
C36_4 N2_4 1_555 1_555
Cd7 O11_4 1_555 1_555
Cd7 O12_4 1_555 1_555
C33_2 H19_3 1_555 1_555
H20_2 C33_2 1_555 1_555
H21_2 C33_2 1_555 1_555
H20_3 C33_3 1_555 1_555
H21_3 C33_3 1_555 1_555
Br2_3 C19_3 1_555 1_555
C13_4 H5_4 1_555 1_555
H6_4 C13_4 1_555 1_555
C20_3 C19_3 1_555 1_555
H11_3 C20_3 1_555 1_555
C21_3 C20_3 1_555 1_555
Br2_4 C19_4 1_555 1_555
C20_4 C19_4 1_555 1_555
H11_4 C20_4 1_555 1_555
C21_4 C20_4 1_555 1_555
C21_4 C22_4 1_555 1_555
C32_4 H16_4 1_555 1_555
H17_4 C32_4 1_555 1_555
H18_4 C32_4 1_555 1_555
H20_4 C33_4 1_555 1_555
H21_4 C33_4 1_555 1_555
C32_4 N1_4 1_555 1_555
C33_4 N1_4 1_555 1_555

#END
