
###############################################################################
#
# This file contains modified crystal structure data generated from the
# MOF subset of the Cambridge Structural Database (CSD) v543 
# hosted by the Cambridge Crystallographic Data Centre (CCDC).
#
# This work is licensed under the Creative Commons
# Attribution-NonCommercial-ShareAlike 4.0 International License.
# To view a copy of this license, visit
# http://creativecommons.org/licenses/by-nc-sa/4.0/
# or send a letter to
# Creative Commons, PO Box 1866, Mountain View, CA 94042, USA.
#
# CIF created using the CSD Python API on 29 September 2022
# The structure has been converted into the P1 space group
# The structure has a 3D framework
# The original CSD entry JINKUP is in the tetragonal crystal system
# The framework has been calculated to contain at least 10.0% void space
# The void calculation uses a probe of radius 1.32A, grid spacing 0.4
# The framework is charged, counterions have been retained in the structure
# H atom positions have been added when not included in the experimental data
#
###############################################################################

data_JINKUP
_chemical_formula_moiety         '(C48 H60 N76 O24 Zn28 2+)n'
_symmetry_cell_setting           triclinic
_symmetry_space_group_name_H-M   'P 1'
_symmetry_Int_Tables_number      1
_space_group_name_Hall           'P 1'
loop_
_symmetry_equiv_pos_site_id
_symmetry_equiv_pos_as_xyz
1 x,y,z
_cell_length_a                   18.7950(19)
_cell_length_b                   18.7950(19)
_cell_length_c                   12.808(3)
_cell_angle_alpha                90
_cell_angle_beta                 90
_cell_angle_gamma                90
_cell_volume                     4524.45
loop_
_atom_site_label
_atom_site_type_symbol
_atom_site_fract_x
_atom_site_fract_y
_atom_site_fract_z
Zn6 Zn 0.01725(9) 0.29675(10) 0.12838(14)
N11 N 0.2002(11) 0.1935(10) 0.0000
N15 N 0.1041(7) 0.2485(7) 0.0521(11)
C8 C 0.1605(9) 0.2151(9) 0.0801(14)
H8 H 0.1725 0.2068 0.1495
Zn10 Zn 0.28854(13) 0.13958(13) 0.0000
O4 O 0.2585(8) 0.0393(7) 0.0000
N29 N 0.3440(8) 0.1370(7) 0.1300(12)
N30 N 0.3486(7) 0.0740(7) 0.1823(11)
N31 N 0.4168(7) 0.1518(7) 0.2641(11)
C19 C 0.3859(10) 0.1818(9) 0.1787(15)
H19 H 0.3935 0.2285 0.1575
C21 C 0.3916(9) 0.0860(8) 0.2609(13)
H21 H 0.4033 0.0514 0.3100
Zn20 Zn 0.48275(9) 0.20325(10) 0.37162(14)
N42 N 0.0832(7) 0.3482(7) 0.2359(11)
N11_2 N 0.2002(11) 0.1935(10) 1.0000
Zn8 Zn 0.01725(9) 0.29675(10) 0.87162(14)
N23 N 0.1041(7) 0.2485(7) 0.9479(11)
C14 C 0.1605(9) 0.2151(9) 0.9199(14)
H14 H 0.1725 0.2068 0.8505
Zn10_2 Zn 0.28854(13) 0.13958(13) 1.0000
O4_2 O 0.2585(8) 0.0393(7) 1.0000
N33 N 0.3440(8) 0.1370(7) 0.8700(12)
N34 N 0.3486(7) 0.0740(7) 0.8177(11)
N35 N 0.4168(7) 0.1518(7) 0.7359(11)
C22 C 0.3859(10) 0.1818(9) 0.8213(15)
H22 H 0.3935 0.2285 0.8425
C24 C 0.3916(9) 0.0860(8) 0.7391(13)
H24 H 0.4033 0.0514 0.6900
Zn15 Zn 0.48275(9) 0.20325(10) 0.62838(14)
N37 N 0.0832(7) 0.3482(7) 0.7641(11)
Zn3 Zn 0.13958(13) 0.71146(13) 0.0000
O2 O 0.0393(7) 0.7415(8) 0.0000
N7 N 0.1370(7) 0.6560(8) 0.1300(12)
N8 N 0.0740(7) 0.6514(7) 0.1823(11)
N9 N 0.1518(7) 0.5832(7) 0.2641(11)
C4 C 0.1818(9) 0.6141(10) 0.1787(15)
H4 H 0.2285 0.6065 0.1575
C6 C 0.0860(8) 0.6084(9) 0.2609(13)
H6 H 0.0514 0.5967 0.3100
Zn11 Zn 0.29675(10) 0.98275(9) 0.12838(14)
N28 N 0.1935(10) 0.7998(11) 0.0000
N32 N 0.2485(7) 0.8959(7) 0.0521(11)
C20 C 0.2151(9) 0.8395(9) 0.0801(14)
H20 H 0.2068 0.8275 0.1495
Zn18 Zn 0.20325(10) 0.51725(9) 0.37162(14)
N43 N 0.3482(7) 0.9168(7) 0.2359(11)
Zn3_2 Zn 0.13958(13) 0.71146(13) 1.0000
O2_2 O 0.0393(7) 0.7415(8) 1.0000
N24 N 0.1370(7) 0.6560(8) 0.8700(12)
N25 N 0.0740(7) 0.6514(7) 0.8177(11)
N26 N 0.1518(7) 0.5832(7) 0.7359(11)
C16 C 0.1818(9) 0.6141(10) 0.8213(15)
H16 H 0.2285 0.6065 0.8425
C18 C 0.0860(8) 0.6084(9) 0.7391(13)
H18 H 0.0514 0.5967 0.6900
N28_2 N 0.1935(10) 0.7998(11) 1.0000
Zn12 Zn 0.29675(10) 0.98275(9) 0.87162(14)
N36 N 0.2485(7) 0.8959(7) 0.9479(11)
C23 C 0.2151(9) 0.8395(9) 0.9199(14)
H23 H 0.2068 0.8275 0.8505
Zn13 Zn 0.20325(10) 0.51725(9) 0.62838(14)
N40 N 0.3482(7) 0.9168(7) 0.7641(11)
Zn2 Zn 0.70325(10) 0.01725(9) 0.12838(14)
N1 N 0.8065(10) 0.2002(11) 0.0000
N5 N 0.7515(7) 0.1041(7) 0.0521(11)
C2 C 0.7849(9) 0.1605(9) 0.0801(14)
H2 H 0.7932 0.1725 0.1495
Zn5 Zn 0.86042(13) 0.28854(13) 0.0000
O3 O 0.9607(7) 0.2585(8) 0.0000
N12 N 0.8630(7) 0.3440(8) 0.1300(12)
N13 N 0.9260(7) 0.3486(7) 0.1823(11)
N14 N 0.8482(7) 0.4168(7) 0.2641(11)
C7 C 0.8182(9) 0.3859(10) 0.1787(15)
H7 H 0.7715 0.3935 0.1575
C9 C 0.9140(8) 0.3916(9) 0.2609(13)
H9 H 0.9486 0.4033 0.3100
Zn17 Zn 0.79675(10) 0.48275(9) 0.37162(14)
N44 N 0.6518(7) 0.0832(7) 0.2359(11)
N1_2 N 0.8065(10) 0.2002(11) 1.0000
Zn5_2 Zn 0.86042(13) 0.28854(13) 1.0000
O3_2 O 0.9607(7) 0.2585(8) 1.0000
Zn7 Zn 0.70325(10) 0.01725(9) 0.87162(14)
N19 N 0.7515(7) 0.1041(7) 0.9479(11)
C11 C 0.7849(9) 0.1605(9) 0.9199(14)
H11 H 0.7932 0.1725 0.8505
N20 N 0.8630(7) 0.3440(8) 0.8700(12)
N21 N 0.9260(7) 0.3486(7) 0.8177(11)
N22 N 0.8482(7) 0.4168(7) 0.7359(11)
C13 C 0.8182(9) 0.3859(10) 0.8213(15)
H13 H 0.7715 0.3935 0.8425
C15 C 0.9140(8) 0.3916(9) 0.7391(13)
H15 H 0.9486 0.4033 0.6900
Zn14 Zn 0.79675(10) 0.48275(9) 0.62838(14)
N39 N 0.6518(7) 0.0832(7) 0.7641(11)
Zn1 Zn 0.71146(13) 0.86042(13) 0.0000
O1 O 0.7415(8) 0.9607(7) 0.0000
N2 N 0.6560(8) 0.8630(7) 0.1300(12)
N3 N 0.6514(7) 0.9260(7) 0.1823(11)
N4 N 0.5832(7) 0.8482(7) 0.2641(11)
C1 C 0.6141(10) 0.8182(9) 0.1787(15)
H1 H 0.6065 0.7715 0.1575
C3 C 0.6084(9) 0.9140(8) 0.2609(13)
H3 H 0.5967 0.9486 0.3100
Zn4 Zn 0.98275(9) 0.70325(10) 0.12838(14)
N6 N 0.7998(11) 0.8065(10) 0.0000
N10 N 0.8959(7) 0.7515(7) 0.0521(11)
C5 C 0.8395(9) 0.7849(9) 0.0801(14)
H5 H 0.8275 0.7932 0.1495
Zn19 Zn 0.51725(9) 0.79675(10) 0.37162(14)
N41 N 0.9168(7) 0.6518(7) 0.2359(11)
Zn1_2 Zn 0.71146(13) 0.86042(13) 1.0000
O1_2 O 0.7415(8) 0.9607(7) 1.0000
N6_2 N 0.7998(11) 0.8065(10) 1.0000
N16 N 0.6560(8) 0.8630(7) 0.8700(12)
N17 N 0.6514(7) 0.9260(7) 0.8177(11)
N18 N 0.5832(7) 0.8482(7) 0.7359(11)
C10 C 0.6141(10) 0.8182(9) 0.8213(15)
H10 H 0.6065 0.7715 0.8425
C12 C 0.6084(9) 0.9140(8) 0.7391(13)
H12 H 0.5967 0.9486 0.6900
Zn9 Zn 0.98275(9) 0.70325(10) 0.87162(14)
N27 N 0.8959(7) 0.7515(7) 0.9479(11)
C17 C 0.8395(9) 0.7849(9) 0.9199(14)
H17 H 0.8275 0.7932 0.8505
Zn16 Zn 0.51725(9) 0.79675(10) 0.62838(14)
N38 N 0.9168(7) 0.6518(7) 0.7641(11)
Zn1_3 Zn 0.21146(13) 0.36042(13) 0.5000
N1_3 N 0.3065(10) 0.7002(11) 0.5000
O1_3 O 0.2415(8) 0.4607(7) 0.5000
N2_2 N 0.1560(8) 0.3630(7) 0.6300(12)
N3_2 N 0.1514(7) 0.4260(7) 0.6823(11)
N5_2 N 0.2515(7) 0.6041(7) 0.5521(11)
C1_2 C 0.1141(10) 0.3182(9) 0.6787(15)
H1_2 H 0.1065 0.2715 0.6575
C2_2 C 0.2849(9) 0.6605(9) 0.5801(14)
H2_2 H 0.2932 0.6725 0.6495
C3_2 C 0.1084(9) 0.4140(8) 0.7609(13)
H3_2 H 0.0967 0.4486 0.8100
Zn3_3 Zn 0.63958(13) 0.21146(13) 0.5000
N6_3 N 0.2998(11) 0.3065(10) 0.5000
O2_3 O 0.5393(7) 0.2415(8) 0.5000
N7_2 N 0.6370(7) 0.1560(8) 0.6300(12)
N8_2 N 0.5740(7) 0.1514(7) 0.6823(11)
N10_2 N 0.3959(7) 0.2515(7) 0.5521(11)
C4_2 C 0.6818(9) 0.1141(10) 0.6787(15)
H4_2 H 0.7285 0.1065 0.6575
C5_2 C 0.3395(9) 0.2849(9) 0.5801(14)
H5_2 H 0.3275 0.2932 0.6495
C6_2 C 0.5860(8) 0.1084(9) 0.7609(13)
H6_2 H 0.5514 0.0967 0.8100
Zn5_3 Zn 0.36042(13) 0.78854(13) 0.5000
N11_3 N 0.7002(11) 0.6935(10) 0.5000
O3_3 O 0.4607(7) 0.7585(8) 0.5000
N12_2 N 0.3630(7) 0.8440(8) 0.6300(12)
N13_2 N 0.4260(7) 0.8486(7) 0.6823(11)
N15_2 N 0.6041(7) 0.7485(7) 0.5521(11)
C7_2 C 0.3182(9) 0.8859(10) 0.6787(15)
H7_2 H 0.2715 0.8935 0.6575
C8_2 C 0.6605(9) 0.7151(9) 0.5801(14)
H8_2 H 0.6725 0.7068 0.6495
C9_2 C 0.4140(8) 0.8916(9) 0.7609(13)
H9_2 H 0.4486 0.9033 0.8100
N16_2 N 0.1560(8) 0.3630(7) 0.3700(12)
N17_2 N 0.1514(7) 0.4260(7) 0.3177(11)
N19_2 N 0.2515(7) 0.6041(7) 0.4479(11)
C10_2 C 0.1141(10) 0.3182(9) 0.3213(15)
H10_2 H 0.1065 0.2715 0.3425
C11_2 C 0.2849(9) 0.6605(9) 0.4199(14)
H11_2 H 0.2932 0.6725 0.3505
C12_2 C 0.1084(9) 0.4140(8) 0.2391(13)
H12_2 H 0.0967 0.4486 0.1900
N20_2 N 0.3630(7) 0.8440(8) 0.3700(12)
N21_2 N 0.4260(7) 0.8486(7) 0.3177(11)
N23_2 N 0.6041(7) 0.7485(7) 0.4479(11)
C13_2 C 0.3182(9) 0.8859(10) 0.3213(15)
H13_2 H 0.2715 0.8935 0.3425
C14_2 C 0.6605(9) 0.7151(9) 0.4199(14)
H14_2 H 0.6725 0.7068 0.3505
C15_2 C 0.4140(8) 0.8916(9) 0.2391(13)
H15_2 H 0.4486 0.9033 0.1900
N24_2 N 0.6370(7) 0.1560(8) 0.3700(12)
N25_2 N 0.5740(7) 0.1514(7) 0.3177(11)
N27_2 N 0.3959(7) 0.2515(7) 0.4479(11)
C16_2 C 0.6818(9) 0.1141(10) 0.3213(15)
H16_2 H 0.7285 0.1065 0.3425
C17_2 C 0.3395(9) 0.2849(9) 0.4199(14)
H17_2 H 0.3275 0.2932 0.3505
C18_2 C 0.5860(8) 0.1084(9) 0.2391(13)
H18_2 H 0.5514 0.0967 0.1900
Zn10_3 Zn 0.78854(13) 0.63958(13) 0.5000
N28_3 N 0.6935(10) 0.2998(11) 0.5000
O4_3 O 0.7585(8) 0.5393(7) 0.5000
N29_2 N 0.8440(8) 0.6370(7) 0.6300(12)
N30_2 N 0.8486(7) 0.5740(7) 0.6823(11)
N32_2 N 0.7485(7) 0.3959(7) 0.5521(11)
C19_2 C 0.8859(10) 0.6818(9) 0.6787(15)
H19_2 H 0.8935 0.7285 0.6575
C20_2 C 0.7151(9) 0.3395(9) 0.5801(14)
H20_2 H 0.7068 0.3275 0.6495
C21_2 C 0.8916(9) 0.5860(8) 0.7609(13)
H21_2 H 0.9033 0.5514 0.8100
N33_2 N 0.8440(8) 0.6370(7) 0.3700(12)
N34_2 N 0.8486(7) 0.5740(7) 0.3177(11)
N36_2 N 0.7485(7) 0.3959(7) 0.4479(11)
C22_2 C 0.8859(10) 0.6818(9) 0.3213(15)
H22_2 H 0.8935 0.7285 0.3425
C23_2 C 0.7151(9) 0.3395(9) 0.4199(14)
H23_2 H 0.7068 0.3275 0.3505
C24_2 C 0.8916(9) 0.5860(8) 0.2391(13)
H24_2 H 0.9033 0.5514 0.1900
O5 O 0.6148(8) 0.0368(10) 0.0000
H25 H 0.667633 0.0368 0
O5_2 O 0.6148(8) 0.0368(10) 1.0000
H25_2 H 0.667633 0.0368 1
O5_3 O 0.3852(8) 0.9632(10) 0.0000
H25_3 H 0.332367 0.9632 0
O5_4 O 0.3852(8) 0.9632(10) 1.0000
H25_4 H 0.332367 0.9632 1
O5_5 O 0.9632(10) 0.6148(8) 0.0000
H25_5 H 0.9632 0.667633 0
O5_6 O 0.9632(10) 0.6148(8) 1.0000
H25_6 H 0.9632 0.667633 1
O5_7 O 0.0368(10) 0.3852(8) 0.0000
H25_7 H 0.0368 0.332367 0
O5_8 O 0.0368(10) 0.3852(8) 1.0000
H25_8 H 0.0368 0.332367 1
O5_9 O 0.1148(8) 0.5368(10) 0.5000
H25_9 H 0.167633 0.5368 0.5
O5_10 O 0.8852(8) 0.4632(10) 0.5000
H25_10 H 0.832367 0.4632 0.5
O5_11 O 0.4632(10) 0.1148(8) 0.5000
H25_11 H 0.4632 0.167633 0.5
O5_12 O 0.5368(10) 0.8852(8) 0.5000
H25_12 H 0.5368 0.832367 0.5
loop_
_geom_bond_atom_site_label_1
_geom_bond_atom_site_label_2
_geom_bond_site_symmetry_1
_geom_bond_site_symmetry_2
N11 C8 1_555 1_555
N15 Zn6 1_555 1_555
C8 N15 1_555 1_555
H8 C8 1_555 1_555
Zn10 N11 1_555 1_555
O4 Zn10 1_555 1_555
N29 Zn10 1_555 1_555
N31 C19 1_555 1_555
C19 N29 1_555 1_555
H19 C19 1_555 1_555
C21 N30 1_555 1_555
H21 C21 1_555 1_555
Zn20 N31 1_555 1_555
N42 Zn6 1_555 1_555
N29 N30 1_555 1_555
N31 C21 1_555 1_555
C14 N11_2 1_555 1_555
H14 C14 1_555 1_555
Zn10_2 N11_2 1_555 1_555
O4_2 Zn10_2 1_555 1_555
N33 Zn10_2 1_555 1_555
N35 C22 1_555 1_555
C22 N33 1_555 1_555
H22 C22 1_555 1_555
C24 N34 1_555 1_555
H24 C24 1_555 1_555
Zn15 N35 1_555 1_555
N37 Zn8 1_555 1_555
Zn8 N23 1_555 1_555
N23 C14 1_555 1_555
N33 N34 1_555 1_555
N35 C24 1_555 1_555
Zn3 O2 1_555 1_555
N7 Zn3 1_555 1_555
N9 C4 1_555 1_555
C4 N7 1_555 1_555
H4 C4 1_555 1_555
C6 N8 1_555 1_555
H6 C6 1_555 1_555
N28 Zn3 1_555 1_555
N32 Zn11 1_555 1_555
C20 N28 1_555 1_555
H20 C20 1_555 1_555
Zn18 N9 1_555 1_555
N43 Zn11 1_555 1_555
N7 N8 1_555 1_555
N9 C6 1_555 1_555
N32 C20 1_555 1_555
Zn3_2 O2_2 1_555 1_555
N24 Zn3_2 1_555 1_555
N25 N24 1_555 1_555
N26 C16 1_555 1_555
C16 N24 1_555 1_555
H16 C16 1_555 1_555
C18 N25 1_555 1_555
H18 C18 1_555 1_555
N28_2 Zn3_2 1_555 1_555
C23 N28_2 1_555 1_555
H23 C23 1_555 1_555
Zn13 N26 1_555 1_555
N40 Zn12 1_555 1_555
N26 C18 1_555 1_555
Zn12 N36 1_555 1_555
N36 C23 1_555 1_555
N1 C2 1_555 1_555
N5 Zn2 1_555 1_555
C2 N5 1_555 1_555
H2 C2 1_555 1_555
Zn5 N1 1_555 1_555
O3 Zn5 1_555 1_555
N12 Zn5 1_555 1_555
N14 C7 1_555 1_555
C7 N12 1_555 1_555
H7 C7 1_555 1_555
C9 N13 1_555 1_555
H9 C9 1_555 1_555
Zn17 N14 1_555 1_555
N44 Zn2 1_555 1_555
N12 N13 1_555 1_555
N14 C9 1_555 1_555
Zn5_2 N1_2 1_555 1_555
O3_2 Zn5_2 1_555 1_555
C11 N1_2 1_555 1_555
H11 C11 1_555 1_555
N20 Zn5_2 1_555 1_555
N22 C13 1_555 1_555
C13 N20 1_555 1_555
H13 C13 1_555 1_555
C15 N21 1_555 1_555
H15 C15 1_555 1_555
Zn14 N22 1_555 1_555
N39 Zn7 1_555 1_555
Zn7 N19 1_555 1_555
N19 C11 1_555 1_555
N20 N21 1_555 1_555
N22 C15 1_555 1_555
Zn1 O1 1_555 1_555
N2 Zn1 1_555 1_555
N4 C1 1_555 1_555
C1 N2 1_555 1_555
H1 C1 1_555 1_555
C3 N3 1_555 1_555
H3 C3 1_555 1_555
N6 Zn1 1_555 1_555
N10 Zn4 1_555 1_555
C5 N6 1_555 1_555
H5 C5 1_555 1_555
Zn19 N4 1_555 1_555
N41 Zn4 1_555 1_555
N2 N3 1_555 1_555
N4 C3 1_555 1_555
N10 C5 1_555 1_555
Zn1_2 O1_2 1_555 1_555
N6_2 Zn1_2 1_555 1_555
N16 Zn1_2 1_555 1_555
N17 N16 1_555 1_555
N18 C10 1_555 1_555
C10 N16 1_555 1_555
H10 C10 1_555 1_555
C12 N17 1_555 1_555
H12 C12 1_555 1_555
C17 N6_2 1_555 1_555
H17 C17 1_555 1_555
Zn16 N18 1_555 1_555
N38 Zn9 1_555 1_555
N18 C12 1_555 1_555
Zn9 N27 1_555 1_555
N27 C17 1_555 1_555
Zn1_3 O1_3 1_555 1_555
Zn13 O1_3 1_555 1_555
N1_3 C2_2 1_555 1_555
O1_3 Zn18 1_555 1_555
N2_2 Zn1_3 1_555 1_555
N3_2 Zn13 1_555 1_555
N37 C1_2 1_555 1_555
N5_2 Zn13 1_555 1_555
C1_2 N2_2 1_555 1_555
H1_2 C1_2 1_555 1_555
C2_2 N5_2 1_555 1_555
H2_2 C2_2 1_555 1_555
C3_2 N3_2 1_555 1_555
H3_2 C3_2 1_555 1_555
Zn3_3 O2_3 1_555 1_555
Zn15 O2_3 1_555 1_555
N6_3 Zn1_3 1_555 1_555
O2_3 Zn20 1_555 1_555
N7_2 Zn3_3 1_555 1_555
N8_2 Zn15 1_555 1_555
N39 C4_2 1_555 1_555
N10_2 Zn15 1_555 1_555
C4_2 N7_2 1_555 1_555
H4_2 C4_2 1_555 1_555
C5_2 N6_3 1_555 1_555
H5_2 C5_2 1_555 1_555
C6_2 N8_2 1_555 1_555
H6_2 C6_2 1_555 1_555
Zn5_3 N1_3 1_555 1_555
Zn16 O3_3 1_555 1_555
N11_3 C8_2 1_555 1_555
O3_3 Zn5_3 1_555 1_555
N12_2 Zn5_3 1_555 1_555
N13_2 Zn16 1_555 1_555
N40 C7_2 1_555 1_555
N15_2 Zn16 1_555 1_555
C7_2 N12_2 1_555 1_555
H7_2 C7_2 1_555 1_555
C8_2 N15_2 1_555 1_555
H8_2 C8_2 1_555 1_555
C9_2 N13_2 1_555 1_555
H9_2 C9_2 1_555 1_555
Zn18 N17_2 1_555 1_555
N16_2 Zn1_3 1_555 1_555
N17_2 N16_2 1_555 1_555
N42 C10_2 1_555 1_555
N19_2 N5_2 1_555 1_555
C10_2 N16_2 1_555 1_555
H10_2 C10_2 1_555 1_555
C11_2 N1_3 1_555 1_555
H11_2 C11_2 1_555 1_555
C12_2 N17_2 1_555 1_555
H12_2 C12_2 1_555 1_555
Zn19 O3_3 1_555 1_555
N20_2 Zn5_3 1_555 1_555
N21_2 Zn19 1_555 1_555
N43 C13_2 1_555 1_555
N23_2 N15_2 1_555 1_555
C13_2 N20_2 1_555 1_555
H13_2 C13_2 1_555 1_555
C14_2 N11_3 1_555 1_555
H14_2 C14_2 1_555 1_555
C15_2 N21_2 1_555 1_555
H15_2 C15_2 1_555 1_555
Zn20 N25_2 1_555 1_555
N24_2 Zn3_3 1_555 1_555
N25_2 N24_2 1_555 1_555
N44 C16_2 1_555 1_555
N27_2 N10_2 1_555 1_555
C16_2 N24_2 1_555 1_555
H16_2 C16_2 1_555 1_555
C17_2 N6_3 1_555 1_555
H17_2 C17_2 1_555 1_555
C18_2 N25_2 1_555 1_555
H18_2 C18_2 1_555 1_555
Zn10_3 N11_3 1_555 1_555
Zn14 O4_3 1_555 1_555
N28_3 Zn3_3 1_555 1_555
O4_3 Zn10_3 1_555 1_555
N29_2 Zn10_3 1_555 1_555
N30_2 Zn14 1_555 1_555
N38 C19_2 1_555 1_555
N32_2 Zn14 1_555 1_555
C19_2 N29_2 1_555 1_555
H19_2 C19_2 1_555 1_555
C20_2 N28_3 1_555 1_555
H20_2 C20_2 1_555 1_555
C21_2 N30_2 1_555 1_555
H21_2 C21_2 1_555 1_555
Zn17 O4_3 1_555 1_555
N33_2 Zn10_3 1_555 1_555
N34_2 Zn17 1_555 1_555
N41 C22_2 1_555 1_555
N36_2 N32_2 1_555 1_555
C22_2 N33_2 1_555 1_555
H22_2 C22_2 1_555 1_555
C23_2 N28_3 1_555 1_555
H23_2 C23_2 1_555 1_555
C24_2 N34_2 1_555 1_555
H24_2 C24_2 1_555 1_555
N2_2 N3_2 1_555 1_555
N37 C3_2 1_555 1_555
N7_2 N8_2 1_555 1_555
N39 C6_2 1_555 1_555
N10_2 C5_2 1_555 1_555
N12_2 N13_2 1_555 1_555
N40 C9_2 1_555 1_555
Zn18 N19_2 1_555 1_555
N42 C12_2 1_555 1_555
N19_2 C11_2 1_555 1_555
Zn19 N23_2 1_555 1_555
N20_2 N21_2 1_555 1_555
N43 C15_2 1_555 1_555
N23_2 C14_2 1_555 1_555
Zn20 N27_2 1_555 1_555
N44 C18_2 1_555 1_555
N27_2 C17_2 1_555 1_555
N29_2 N30_2 1_555 1_555
N38 C21_2 1_555 1_555
N32_2 C20_2 1_555 1_555
Zn17 N36_2 1_555 1_555
N33_2 N34_2 1_555 1_555
N41 C24_2 1_555 1_555
N36_2 C23_2 1_555 1_555
O5 H25 1_555 1_555
O5_2 H25_2 1_555 1_555
O5_3 H25_3 1_555 1_555
O5_4 H25_4 1_555 1_555
O5_5 H25_5 1_555 1_555
O5_6 H25_6 1_555 1_555
O5_7 H25_7 1_555 1_555
O5_8 H25_8 1_555 1_555
O5_9 H25_9 1_555 1_555
O5_10 H25_10 1_555 1_555
O5_11 H25_11 1_555 1_555
O5_12 H25_12 1_555 1_555

#END
