
###############################################################################
#
# This file contains modified crystal structure data generated from the
# MOF subset of the Cambridge Structural Database (CSD) v543 
# hosted by the Cambridge Crystallographic Data Centre (CCDC).
#
# This work is licensed under the Creative Commons
# Attribution-NonCommercial-ShareAlike 4.0 International License.
# To view a copy of this license, visit
# http://creativecommons.org/licenses/by-nc-sa/4.0/
# or send a letter to
# Creative Commons, PO Box 1866, Mountain View, CA 94042, USA.
#
# CIF created using the CSD Python API on 29 September 2022
# The structure has been converted into the P1 space group
# The structure has a 3D framework
# The original CSD entry JIRLOO is in the rhombohedral crystal system
# The framework has been calculated to contain at least 10.0% void space
# The void calculation uses a probe of radius 1.32A, grid spacing 0.4
# The framework is charged, counterions have been retained in the structure
#
###############################################################################

data_JIRLOO
_chemical_formula_moiety         '(C144 H36 F72 Gd18 O94 6-)n'
_symmetry_cell_setting           triclinic
_symmetry_space_group_name_H-M   'P 1'
_symmetry_Int_Tables_number      1
_space_group_name_Hall           'P 1'
loop_
_symmetry_equiv_pos_site_id
_symmetry_equiv_pos_as_xyz
1 x,y,z
_cell_length_a                   19.1654(4)
_cell_length_b                   19.1654(4)
_cell_length_c                   21.8589(7)
_cell_angle_alpha                90
_cell_angle_beta                 90
_cell_angle_gamma                120
_cell_volume                     6953.36
loop_
_atom_site_label
_atom_site_type_symbol
_atom_site_fract_x
_atom_site_fract_y
_atom_site_fract_z
O12 O 0.15245(17) 0.03937(24) 0.33917(13)
C13 C 0.1295(2) 0.0004(3) 0.20306(19)
F6 F 0.1324(3) 0.02682(34) 0.09662(14)
F7 F 0.10070(18) 0.05060(23) 0.21246(13)
Gd8 Gd 0.89604(2) 0.02730(2) 0.42573(2)
Gd12 Gd 0.13125(3) 0.10396(2) 0.42573(2)
Gd1 Gd 0.43729(2) 0.63937(2) 0.24094(2)
O1 O 0.333333 0.666667 0.26787(16)
O2 O 0.45277(12) 0.76176(12) 0.20070(10)
O3 O 0.57321(14) 0.71291(16) 0.20677(12)
O4 O 0.59365(15) 0.79083(16) 0.12500(12)
O5 O 0.84038(16) 0.93394(17) 0.34222(12)
O6 O 0.88692(17) 0.84755(17) 0.33917(13)
O7 O 0.5377(2) 0.6219(2) 0.3134(2)
H1 H 0.548861 0.621117 0.350918
H2 H 0.563611 0.612277 0.286278
C1 C 0.6162(2) 0.7664(2) 0.16954(16)
C2 C 0.7069(2) 0.8056(2) 0.18040(16)
C3 C 0.7615(2) 0.8224(3) 0.13337(17)
C4 C 0.8427(2) 0.8539(3) 0.14430(19)
C5 C 0.8709(2) 0.8705(2) 0.20306(19)
C6 C 0.8205(2) 0.8587(2) 0.25200(17)
C7 C 0.7399(2) 0.8258(2) 0.23844(16)
C8 C 0.8523(2) 0.8822(2) 0.31715(18)
F1 F 0.73629(17) 0.8054(2) 0.07528(12)
F2 F 0.89442(17) 0.8676(3) 0.09662(14)
F3 F 0.94990(14) 0.89930(18) 0.21246(13)
F4 F 0.69000(14) 0.81204(18) 0.28592(11)
Gd2 Gd 0.36063(2) 0.79792(3) 0.24094(2)
O8 O 0.23824(12) 0.69101(17) 0.20070(10)
O9 O 0.28709(16) 0.86030(21) 0.20677(12)
O10 O 0.20917(16) 0.80282(22) 0.12500(12)
O11 O 0.06606(17) 0.90644(23) 0.34222(12)
O13 O 0.3781(2) 0.9158(3) 0.3134(2)
H3 H 0.378883 0.927744 0.350918
H4 H 0.387723 0.951334 0.286278
C9 C 0.2336(2) 0.8498(3) 0.16954(16)
C10 C 0.1944(2) 0.9013(3) 0.18040(16)
C11 C 0.1776(3) 0.9391(4) 0.13337(17)
C12 C 0.1461(3) 0.9888(4) 0.14430(19)
C14 C 0.1413(2) 0.9618(3) 0.25200(17)
C15 C 0.1742(2) 0.9141(3) 0.23844(16)
C16 C 0.1178(2) 0.9701(3) 0.31715(18)
F5 F 0.1946(2) 0.93089(26) 0.07528(12)
F8 F 0.18796(18) 0.87796(23) 0.28592(11)
Gd3 Gd 0.20208(3) 0.56271(2) 0.24094(2)
O14 O 0.30899(17) 0.54723(12) 0.20070(10)
O15 O 0.13970(21) 0.42679(14) 0.20677(12)
O16 O 0.19718(22) 0.40635(15) 0.12500(12)
O17 O 0.09356(23) 0.15962(16) 0.34222(12)
O19 O 0.0842(3) 0.4623(2) 0.3134(2)
H5 H 0.072256 0.451139 0.350918
H6 H 0.048666 0.436389 0.286278
C17 C 0.1502(3) 0.3838(2) 0.16954(16)
C18 C 0.0987(3) 0.2931(2) 0.18040(16)
C19 C 0.0609(4) 0.2385(2) 0.13337(17)
C20 C 0.0112(4) 0.1573(2) 0.14430(19)
C22 C 0.0382(3) 0.1795(2) 0.25200(17)
C23 C 0.0859(3) 0.2601(2) 0.23844(16)
C24 C 0.0299(3) 0.1477(2) 0.31715(18)
F9 F 0.06911(26) 0.26371(17) 0.07528(12)
F12 F 0.12204(23) 0.31000(14) 0.28592(11)
Gd4 Gd 0.22938(2) 0.69396(2) 0.09239(2)
Gd5 Gd 0.30604(2) 0.53541(3) 0.09239(2)
Gd6 Gd 0.46459(3) 0.77062(2) 0.09239(2)
Gd10 Gd 0.97270(2) 0.86875(3) 0.42573(2)
O20 O 0.21390(12) 0.57157(12) 0.13263(10)
O21 O 0.42843(12) 0.64232(17) 0.13263(10)
O22 O 0.35768(17) 0.78610(12) 0.13263(10)
O23 O 0.07302(15) 0.54250(16) 0.20833(12)
O24 O 0.45750(16) 0.53051(22) 0.20833(12)
O25 O 0.46949(22) 0.92698(15) 0.20833(12)
O26 O 0.49295(16) 0.73273(17) 0.32445(12)
O27 O 0.26727(17) 0.76023(23) 0.32445(12)
O28 O 0.23977(23) 0.50705(16) 0.32445(12)
O29 O 0.44641(17) 0.81912(17) 0.32750(13)
O30 O 0.18088(17) 0.62730(24) 0.32750(13)
O31 O 0.37270(24) 0.55359(17) 0.32750(13)
O18 O 0.96063(24) 0.11308(17) 0.33917(13)
C21 C 0.9996(3) 0.1291(2) 0.20306(19)
F10 F 0.97318(34) 0.10558(17) 0.09662(14)
F11 F 0.94940(23) 0.05010(14) 0.21246(13)
O1_2 O -0.000000 0.000000 0.60120(16)
O2_2 O 0.11944(12) 0.09509(12) 0.53403(10)
O3_2 O 0.23988(14) 0.04624(16) 0.54010(12)
O4_2 O 0.26032(15) 0.12416(16) 0.45833(12)
O5_2 O 0.50705(16) 0.26727(17) 0.67555(12)
O6_2 O 0.55359(17) 0.18088(17) 0.67250(13)
C1_2 C 0.2829(2) 0.0997(2) 0.50287(16)
C2_2 C 0.3736(2) 0.1389(2) 0.51373(16)
C3_2 C 0.4282(2) 0.1557(3) 0.46670(17)
C4_2 C 0.5094(2) 0.1872(3) 0.47763(19)
C5_2 C 0.5376(2) 0.2038(2) 0.53639(19)
C6_2 C 0.4872(2) 0.1920(2) 0.58533(17)
C7_2 C 0.4066(2) 0.1591(2) 0.57177(16)
C8_2 C 0.5190(2) 0.2155(2) 0.65048(18)
F1_2 F 0.40296(17) 0.1387(2) 0.40861(12)
F2_2 F 0.56109(17) 0.2009(3) 0.42995(14)
F3_2 F 0.61657(14) 0.23263(18) 0.54579(13)
F4_2 F 0.35667(14) 0.14537(18) 0.61925(11)
Gd2_2 Gd 0.02730(2) 0.13125(3) 0.57427(2)
O13_2 O 0.0448(2) 0.2491(3) 0.6467(2)
H3_2 H 0.045550 0.261077 0.684251
H4_2 H 0.054390 0.284667 0.619611
Gd8_2 Gd 0.56271(2) 0.36063(2) 0.75906(2)
Gd10_2 Gd 0.63937(2) 0.20208(3) 0.75906(2)
O22_2 O 0.02434(17) 0.11944(12) 0.46597(10)
O25_2 O 0.13615(22) 0.26032(15) 0.54167(12)
O26_2 O 0.15962(16) 0.06606(17) 0.65778(12)
O29_2 O 0.11308(17) 0.15245(17) 0.66083(13)
Gd1_2 Gd 0.10396(2) 0.97270(2) 0.57427(2)
O1_3 O -0.000000 1.000000 0.60120(16)
O7_2 O 0.2044(2) 0.9552(2) 0.6467(2)
H1_2 H 0.215528 0.954450 0.684251
H2_2 H 0.230278 0.945610 0.619611
O21_2 O 0.09509(12) 0.97566(17) 0.46597(10)
O24_2 O 0.12416(16) 0.86385(22) 0.54167(12)
O31_2 O 0.03937(24) 0.88692(17) 0.66083(13)
O1_4 O 1.000000 0.000000 0.60120(16)
O8_2 O 0.90491(12) 0.02434(17) 0.53403(10)
O9_2 O 0.95376(16) 0.19363(21) 0.54010(12)
O10_2 O 0.87584(16) 0.13615(22) 0.45833(12)
O11_2 O 0.73273(17) 0.23977(23) 0.67555(12)
O12_2 O 0.81912(17) 0.37270(24) 0.67250(13)
C9_2 C 0.9003(2) 0.1831(3) 0.50287(16)
C10_2 C 0.8611(2) 0.2346(3) 0.51373(16)
C11_2 C 0.8443(3) 0.2724(4) 0.46670(17)
C12_2 C 0.8128(3) 0.3221(4) 0.47763(19)
C13_2 C 0.7962(2) 0.3337(3) 0.53639(19)
C14_2 C 0.8080(2) 0.2951(3) 0.58533(17)
C15_2 C 0.8409(2) 0.2474(3) 0.57177(16)
C16_2 C 0.7845(2) 0.3034(3) 0.65048(18)
F5_2 F 0.8613(2) 0.26422(26) 0.40861(12)
F6_2 F 0.7991(3) 0.36015(34) 0.42995(14)
F7_2 F 0.76737(18) 0.38393(23) 0.54579(13)
F8_2 F 0.85463(18) 0.21129(23) 0.61925(11)
Gd12_2 Gd 0.79792(3) 0.43729(2) 0.75906(2)
O27_2 O 0.93394(17) 0.09356(23) 0.65778(12)
O1_5 O 1.000000 1.000000 0.60120(16)
Gd3_2 Gd 0.86875(3) 0.89604(2) 0.57427(2)
O14_2 O 0.97566(17) 0.88056(12) 0.53403(10)
O15_2 O 0.80637(21) 0.76012(14) 0.54010(12)
O16_2 O 0.86385(22) 0.73968(15) 0.45833(12)
O17_2 O 0.76023(23) 0.49295(16) 0.67555(12)
O18_2 O 0.62730(24) 0.44641(17) 0.67250(13)
O19_2 O 0.7509(3) 0.7956(2) 0.6467(2)
H5_2 H 0.738923 0.784472 0.684251
H6_2 H 0.715333 0.769722 0.619611
C17_2 C 0.8169(3) 0.7171(2) 0.50287(16)
C18_2 C 0.7654(3) 0.6264(2) 0.51373(16)
C19_2 C 0.7276(4) 0.5718(2) 0.46670(17)
C20_2 C 0.6779(4) 0.4906(2) 0.47763(19)
C21_2 C 0.6663(3) 0.4624(2) 0.53639(19)
C22_2 C 0.7049(3) 0.5128(2) 0.58533(17)
C23_2 C 0.7526(3) 0.5934(2) 0.57177(16)
C24_2 C 0.6966(3) 0.4810(2) 0.65048(18)
F9_2 F 0.73578(26) 0.59704(17) 0.40861(12)
F10_2 F 0.63985(34) 0.43891(17) 0.42995(14)
F11_2 F 0.61607(23) 0.38343(14) 0.54579(13)
F12_2 F 0.78871(23) 0.64333(14) 0.61925(11)
O20_2 O 0.88056(12) 0.90491(12) 0.46597(10)
O23_2 O 0.73968(15) 0.87584(16) 0.54167(12)
O28_2 O 0.90644(23) 0.84038(16) 0.65778(12)
O30_2 O 0.84755(17) 0.96063(24) 0.66083(13)
O5_3 O 0.17371(16) 0.60061(17) 0.00889(12)
O6_3 O 0.22025(17) 0.51422(17) 0.00584(13)
H1_3 H 0.882194 0.287784 0.017585
O11_3 O 0.39939(17) 0.57311(23) 0.00889(12)
O12_3 O 0.48578(17) 0.70604(24) 0.00584(13)
H3_3 H 0.712216 0.594411 0.017585
H5_3 H 0.405589 0.117806 0.017585
Gd1_3 Gd 0.77062(2) 0.30604(2) 0.90761(2)
O1_6 O 0.666666 0.333334 0.93454(16)
O2_3 O 0.78610(12) 0.42843(12) 0.86737(10)
O3_3 O 0.90654(14) 0.37958(16) 0.87344(12)
O4_3 O 0.92698(15) 0.45750(16) 0.79167(12)
O7_3 O 0.8710(2) 0.2886(2) 0.9801(2)
H2_3 H 0.896944 0.278944 0.952945
C1_3 C 0.9495(2) 0.4331(2) 0.83621(16)
Gd2_3 Gd 0.69396(2) 0.46459(3) 0.90761(2)
O8_3 O 0.57157(12) 0.35768(17) 0.86737(10)
O9_3 O 0.62042(16) 0.52697(21) 0.87344(12)
O10_3 O 0.54250(16) 0.46949(22) 0.79167(12)
O13_3 O 0.7114(2) 0.5825(3) 0.9801(2)
H4_3 H 0.721056 0.618001 0.952945
C9_3 C 0.5669(2) 0.5165(3) 0.83621(16)
C10_3 C 0.5277(2) 0.5680(3) 0.84707(16)
C11_3 C 0.5109(3) 0.6058(4) 0.80004(17)
C12_3 C 0.4794(3) 0.6555(4) 0.81097(19)
C13_3 C 0.4628(2) 0.6671(3) 0.86973(19)
C14_3 C 0.4746(2) 0.6285(3) 0.91867(17)
C15_3 C 0.5075(2) 0.5808(3) 0.90511(16)
C16_3 C 0.4511(2) 0.6368(3) 0.98382(18)
F5_3 F 0.5279(2) 0.59756(26) 0.74195(12)
F6_3 F 0.4657(3) 0.69349(34) 0.76329(14)
F7_3 F 0.43403(18) 0.71727(23) 0.87913(13)
F8_3 F 0.52129(18) 0.54463(23) 0.95259(11)
Gd3_3 Gd 0.53541(3) 0.22938(2) 0.90761(2)
O14_3 O 0.64232(17) 0.21390(12) 0.86737(10)
O15_3 O 0.47303(21) 0.09346(14) 0.87344(12)
O16_3 O 0.53051(22) 0.07302(15) 0.79167(12)
O19_3 O 0.4175(3) 0.1290(2) 0.9801(2)
H6_3 H 0.381999 0.103056 0.952945
C17_3 C 0.4835(3) 0.0505(2) 0.83621(16)
O20_3 O 0.54723(12) 0.23824(12) 0.79930(10)
O21_3 O 0.76176(12) 0.30899(17) 0.79930(10)
O22_3 O 0.69101(17) 0.45277(12) 0.79930(10)
O23_3 O 0.40635(15) 0.20917(16) 0.87500(12)
O24_3 O 0.79083(16) 0.19718(22) 0.87500(12)
O25_3 O 0.80282(22) 0.59365(15) 0.87500(12)
O26_3 O 0.82629(16) 0.39939(17) 0.99111(12)
O27_3 O 0.60061(17) 0.42689(23) 0.99111(12)
O28_3 O 0.57311(23) 0.17371(16) 0.99111(12)
O29_3 O 0.77975(17) 0.48578(17) 0.99416(13)
O30_3 O 0.51422(17) 0.29396(24) 0.99416(13)
O31_3 O 0.70604(24) 0.22025(17) 0.99416(13)
O17_3 O 0.42689(23) 0.82629(16) 0.00889(12)
O18_3 O 0.29396(24) 0.77975(17) 0.00584(13)
C21_3 C 0.0004(3) 0.8709(2) 0.79694(19)
F10_3 F 0.02682(34) 0.89442(17) 0.90338(14)
F11_3 F 0.05060(23) 0.94990(14) 0.78754(13)
O1_7 O 0.666667 0.333333 0.73213(16)
O3_4 O 0.42679(14) 0.28709(16) 0.79323(12)
O7_4 O 0.4623(2) 0.3781(2) 0.6866(2)
H1_4 H 0.451139 0.378883 0.649082
H2_4 H 0.436389 0.387723 0.713722
C1_4 C 0.3838(2) 0.2336(2) 0.83046(16)
C2_3 C 0.2931(2) 0.1944(2) 0.81960(16)
C3_3 C 0.2385(2) 0.1776(3) 0.86663(17)
C4_3 C 0.1573(2) 0.1461(3) 0.85570(19)
C5_3 C 0.1291(2) 0.1295(2) 0.79694(19)
C6_3 C 0.1795(2) 0.1413(2) 0.74800(17)
C7_3 C 0.2601(2) 0.1742(2) 0.76156(16)
C8_3 C 0.1477(2) 0.1178(2) 0.68285(18)
F1_3 F 0.26371(17) 0.1946(2) 0.92472(12)
F2_3 F 0.10558(17) 0.1324(3) 0.90338(14)
F3_3 F 0.05010(14) 0.10070(18) 0.78754(13)
F4_3 F 0.31000(14) 0.18796(18) 0.71408(11)
O9_4 O 0.71291(16) 0.13970(21) 0.79323(12)
O13_4 O 0.6219(2) 0.0842(3) 0.6866(2)
H3_4 H 0.621117 0.072256 0.649082
H4_4 H 0.612277 0.048666 0.713722
C9_4 C 0.7664(2) 0.1502(3) 0.83046(16)
C10_4 C 0.8056(2) 0.0987(3) 0.81960(16)
C11_4 C 0.8224(3) 0.0609(4) 0.86663(17)
C12_4 C 0.8539(3) 0.0112(4) 0.85570(19)
C14_4 C 0.8587(2) 0.0382(3) 0.74800(17)
C15_4 C 0.8258(2) 0.0859(3) 0.76156(16)
C16_4 C 0.8822(2) 0.0299(3) 0.68285(18)
F5_4 F 0.8054(2) 0.06911(26) 0.92472(12)
F8_4 F 0.81204(18) 0.12204(23) 0.71408(11)
O15_4 O 0.86030(21) 0.57321(14) 0.79323(12)
O19_4 O 0.9158(3) 0.5377(2) 0.6866(2)
H5_4 H 0.927744 0.548861 0.649082
H6_4 H 0.951334 0.563611 0.713722
C17_4 C 0.8498(3) 0.6162(2) 0.83046(16)
C18_3 C 0.9013(3) 0.7069(2) 0.81960(16)
C19_3 C 0.9391(4) 0.7615(2) 0.86663(17)
C20_3 C 0.9888(4) 0.8427(2) 0.85570(19)
C22_3 C 0.9618(3) 0.8205(2) 0.74800(17)
C23_3 C 0.9141(3) 0.7399(2) 0.76156(16)
C24_3 C 0.9701(3) 0.8523(2) 0.68285(18)
F9_3 F 0.93089(26) 0.73629(17) 0.92472(12)
F12_3 F 0.87796(23) 0.69000(14) 0.71408(11)
C13_4 C 0.8705(2) 0.9996(3) 0.79694(19)
F6_4 F 0.8676(3) 0.97318(34) 0.90338(14)
F7_4 F 0.89930(18) 0.94940(23) 0.78754(13)
O1_8 O 0.000000 -0.000000 0.39880(16)
O15_5 O 0.19363(21) 0.23988(14) 0.45990(12)
O19_5 O 0.2491(3) 0.2044(2) 0.3533(2)
H5_5 H 0.261077 0.215528 0.315749
H6_5 H 0.284667 0.230278 0.380389
C17_5 C 0.1831(3) 0.2829(2) 0.49713(16)
C18_4 C 0.2346(3) 0.3736(2) 0.48627(16)
C19_4 C 0.2724(4) 0.4282(2) 0.53330(17)
C20_4 C 0.3221(4) 0.5094(2) 0.52237(19)
C21_4 C 0.3337(3) 0.5376(2) 0.46361(19)
C22_4 C 0.2951(3) 0.4872(2) 0.41467(17)
C23_4 C 0.2474(3) 0.4066(2) 0.42823(16)
C24_4 C 0.3034(3) 0.5190(2) 0.34952(18)
F9_4 F 0.26422(26) 0.40296(17) 0.59139(12)
F10_4 F 0.36015(34) 0.56109(17) 0.57005(14)
F11_4 F 0.38393(23) 0.61657(14) 0.45421(13)
F12_4 F 0.21129(23) 0.35667(14) 0.38075(11)
O1_9 O 0.000000 1.000000 0.39880(16)
O9_5 O 0.04624(16) 0.80637(21) 0.45990(12)
C9_5 C 0.0997(2) 0.8169(3) 0.49713(16)
C10_5 C 0.1389(2) 0.7654(3) 0.48627(16)
C11_5 C 0.1557(3) 0.7276(4) 0.53330(17)
C12_5 C 0.1872(3) 0.6779(4) 0.52237(19)
C13_5 C 0.2038(2) 0.6663(3) 0.46361(19)
C14_5 C 0.1920(2) 0.7049(3) 0.41467(17)
C15_5 C 0.1591(2) 0.7526(3) 0.42823(16)
C16_5 C 0.2155(2) 0.6966(3) 0.34952(18)
F5_5 F 0.1387(2) 0.73578(26) 0.59139(12)
F6_5 F 0.2009(3) 0.63985(34) 0.57005(14)
F7_5 F 0.23263(18) 0.61607(23) 0.45421(13)
F8_5 F 0.14537(18) 0.78871(23) 0.38075(11)
O1_10 O 1.000000 -0.000000 0.39880(16)
O7_5 O 0.7956(2) 0.0448(2) 0.3533(2)
H1_5 H 0.784472 0.045550 0.315749
H2_5 H 0.769722 0.054390 0.380389
O1_11 O 1.000000 1.000000 0.39880(16)
O3_5 O 0.76012(14) 0.95376(16) 0.45990(12)
C1_5 C 0.7171(2) 0.9003(2) 0.49713(16)
C2_4 C 0.6264(2) 0.8611(2) 0.48627(16)
C3_4 C 0.5718(2) 0.8443(3) 0.53330(17)
C4_4 C 0.4906(2) 0.8128(3) 0.52237(19)
C5_4 C 0.4624(2) 0.7962(2) 0.46361(19)
C6_4 C 0.5128(2) 0.8080(2) 0.41467(17)
C7_4 C 0.5934(2) 0.8409(2) 0.42823(16)
C8_4 C 0.4810(2) 0.7845(2) 0.34952(18)
F1_4 F 0.59704(17) 0.8613(2) 0.59139(12)
F2_4 F 0.43891(17) 0.7991(3) 0.57005(14)
F3_4 F 0.38343(14) 0.76737(18) 0.45421(13)
F4_4 F 0.64333(14) 0.85463(18) 0.38075(11)
O13_5 O 0.9552(2) 0.7509(3) 0.3533(2)
H3_5 H 0.954450 0.738923 0.315749
H4_5 H 0.945610 0.715333 0.380389
O1_12 O 0.333334 0.666666 0.06546(16)
O3_6 O 0.09346(14) 0.62042(16) 0.12656(12)
O7_6 O 0.1290(2) 0.7114(2) 0.0199(2)
H2_6 H 0.103056 0.721056 0.047055
C1_6 C 0.0505(2) 0.5669(2) 0.16379(16)
O9_6 O 0.37958(16) 0.47303(21) 0.12656(12)
O13_6 O 0.2886(2) 0.4175(3) 0.0199(2)
H4_6 H 0.278944 0.381999 0.047055
C9_6 C 0.4331(2) 0.4835(3) 0.16379(16)
C10_6 C 0.4723(2) 0.4320(3) 0.15293(16)
C11_6 C 0.4891(3) 0.3942(4) 0.19996(17)
C12_6 C 0.5206(3) 0.3445(4) 0.18903(19)
C13_6 C 0.5372(2) 0.3329(3) 0.13027(19)
C14_6 C 0.5254(2) 0.3715(3) 0.08133(17)
C15_6 C 0.4925(2) 0.4192(3) 0.09489(16)
C16_6 C 0.5489(2) 0.3632(3) 0.01618(18)
F5_6 F 0.4721(2) 0.40244(26) 0.25805(12)
F6_6 F 0.5343(3) 0.30651(34) 0.23671(14)
F7_6 F 0.56597(18) 0.28273(23) 0.12087(13)
F8_6 F 0.47871(18) 0.45537(23) 0.04741(11)
O15_6 O 0.52697(21) 0.90654(14) 0.12656(12)
O19_6 O 0.5825(3) 0.8710(2) 0.0199(2)
H6_6 H 0.618001 0.896944 0.047055
C17_6 C 0.5165(3) 0.9495(2) 0.16379(16)
H1_6 H 0.117806 0.712216 0.982415
H3_6 H 0.287784 0.405589 0.982415
H5_6 H 0.594411 0.882194 0.982415
C2_5 C 0.0402(2) 0.4723(2) 0.84707(16)
C3_5 C 0.0948(2) 0.4891(3) 0.80004(17)
C4_5 C 0.1760(2) 0.5206(3) 0.81097(19)
C5_5 C 0.2042(2) 0.5372(2) 0.86973(19)
C6_5 C 0.1538(2) 0.5254(2) 0.91867(17)
C7_5 C 0.0732(2) 0.4925(2) 0.90511(16)
C8_5 C 0.1856(2) 0.5489(2) 0.98382(18)
F1_5 F 0.06962(17) 0.4721(2) 0.74195(12)
F2_5 F 0.22775(17) 0.5343(3) 0.76329(14)
F3_5 F 0.28323(14) 0.56597(18) 0.87913(13)
F4_5 F 0.02333(14) 0.47871(18) 0.95259(11)
C18_5 C 0.4320(3) 0.9598(2) 0.84707(16)
C19_5 C 0.3942(4) 0.9052(2) 0.80004(17)
C20_5 C 0.3445(4) 0.8240(2) 0.81097(19)
C21_5 C 0.3329(3) 0.7958(2) 0.86973(19)
C22_5 C 0.3715(3) 0.8462(2) 0.91867(17)
C23_5 C 0.4192(3) 0.9268(2) 0.90511(16)
C24_5 C 0.3632(3) 0.8144(2) 0.98382(18)
F9_5 F 0.40244(26) 0.93038(17) 0.74195(12)
F10_5 F 0.30651(34) 0.77225(17) 0.76329(14)
F11_5 F 0.28273(23) 0.71677(14) 0.87913(13)
F12_5 F 0.45537(23) 0.97667(14) 0.95259(11)
C18_6 C 0.5680(3) 0.0402(2) 0.15293(16)
C19_6 C 0.6058(4) 0.0948(2) 0.19996(17)
C20_6 C 0.6555(4) 0.1760(2) 0.18903(19)
C21_6 C 0.6671(3) 0.2042(2) 0.13027(19)
C22_6 C 0.6285(3) 0.1538(2) 0.08133(17)
C23_6 C 0.5808(3) 0.0732(2) 0.09489(16)
C24_6 C 0.6368(3) 0.1856(2) 0.01618(18)
F9_6 F 0.59756(26) 0.06962(17) 0.25805(12)
F10_6 F 0.69349(34) 0.22775(17) 0.23671(14)
F11_6 F 0.71727(23) 0.28323(14) 0.12087(13)
F12_6 F 0.54463(23) 0.02333(14) 0.04741(11)
C2_6 C 0.9598(2) 0.5277(2) 0.15293(16)
C3_6 C 0.9052(2) 0.5109(3) 0.19996(17)
C4_6 C 0.8240(2) 0.4794(3) 0.18903(19)
C5_6 C 0.7958(2) 0.4628(2) 0.13027(19)
C6_6 C 0.8462(2) 0.4746(2) 0.08133(17)
C7_6 C 0.9268(2) 0.5075(2) 0.09489(16)
C8_6 C 0.8144(2) 0.4511(2) 0.01618(18)
F1_6 F 0.93038(17) 0.5279(2) 0.25805(12)
F2_6 F 0.77225(17) 0.4657(3) 0.23671(14)
F3_6 F 0.71677(14) 0.43403(18) 0.12087(13)
F4_6 F 0.97667(14) 0.52129(18) 0.04741(11)
loop_
_geom_bond_atom_site_label_1
_geom_bond_atom_site_label_2
_geom_bond_site_symmetry_1
_geom_bond_site_symmetry_2
F7 C13 1_555 1_555
Gd12 O12 1_555 1_555
Gd1 O1 1_555 1_555
O1 Gd2 1_555 1_555
O2 Gd1 1_555 1_555
O3 Gd1 1_555 1_555
O4 C1 1_555 1_555
O5 C8 1_555 1_555
O6 C8 1_555 1_555
O7 Gd1 1_555 1_555
H1 O7 1_555 1_555
H2 O7 1_555 1_555
C1 O3 1_555 1_555
C2 C1 1_555 1_555
C3 C2 1_555 1_555
C4 C3 1_555 1_555
C5 C4 1_555 1_555
C6 C5 1_555 1_555
C7 C2 1_555 1_555
C8 C6 1_555 1_555
F1 C3 1_555 1_555
F2 C4 1_555 1_555
F3 C5 1_555 1_555
F4 C7 1_555 1_555
Gd2 O2 1_555 1_555
O8 Gd2 1_555 1_555
O9 Gd2 1_555 1_555
O10 C9 1_555 1_555
O11 C16 1_555 1_555
O13 Gd2 1_555 1_555
H3 O13 1_555 1_555
H4 O13 1_555 1_555
C9 O9 1_555 1_555
C10 C9 1_555 1_555
C11 C10 1_555 1_555
C12 C11 1_555 1_555
C15 C10 1_555 1_555
C16 C14 1_555 1_555
F5 C11 1_555 1_555
F8 C15 1_555 1_555
Gd3 O1 1_555 1_555
O14 Gd1 1_555 1_555
O15 Gd3 1_555 1_555
O16 C17 1_555 1_555
O17 C24 1_555 1_555
O19 Gd3 1_555 1_555
H5 O19 1_555 1_555
H6 O19 1_555 1_555
C17 O15 1_555 1_555
C18 C17 1_555 1_555
C19 C18 1_555 1_555
C20 C19 1_555 1_555
C23 C18 1_555 1_555
C24 C22 1_555 1_555
F9 C19 1_555 1_555
F12 C23 1_555 1_555
Gd4 O8 1_555 1_555
Gd5 O14 1_555 1_555
Gd6 O2 1_555 1_555
Gd10 O6 1_555 1_555
Gd12 O17 1_555 1_555
O20 Gd3 1_555 1_555
O21 Gd1 1_555 1_555
O22 Gd2 1_555 1_555
O23 Gd3 1_555 1_555
O24 Gd1 1_555 1_555
O25 Gd2 1_555 1_555
O26 Gd1 1_555 1_555
O27 Gd2 1_555 1_555
O28 Gd3 1_555 1_555
O29 Gd2 1_555 1_555
O30 Gd3 1_555 1_555
O31 Gd1 1_555 1_555
O4 Gd6 1_555 1_555
C6 C7 1_555 1_555
O8 Gd3 1_555 1_555
O10 Gd4 1_555 1_555
C14 C15 1_555 1_555
Gd3 O14 1_555 1_555
O16 Gd5 1_555 1_555
C22 C23 1_555 1_555
Gd4 O20 1_555 1_555
Gd4 O22 1_555 1_555
Gd5 O20 1_555 1_555
Gd5 O21 1_555 1_555
Gd6 O21 1_555 1_555
Gd6 O22 1_555 1_555
F11 C21 1_555 1_555
Gd8 O18 1_555 1_555
O1_2 Gd2_2 1_555 1_555
O4_2 C1_2 1_555 1_555
O5_2 C8_2 1_555 1_555
O6_2 C8_2 1_555 1_555
C1_2 O3_2 1_555 1_555
C2_2 C1_2 1_555 1_555
C3_2 C2_2 1_555 1_555
C4_2 C3_2 1_555 1_555
C5_2 C4_2 1_555 1_555
C6_2 C5_2 1_555 1_555
C7_2 C2_2 1_555 1_555
C8_2 C6_2 1_555 1_555
F1_2 C3_2 1_555 1_555
F2_2 C4_2 1_555 1_555
F3_2 C5_2 1_555 1_555
F4_2 C7_2 1_555 1_555
Gd2_2 O2_2 1_555 1_555
O13_2 Gd2_2 1_555 1_555
H3_2 O13_2 1_555 1_555
H4_2 O13_2 1_555 1_555
Gd12 O2_2 1_555 1_555
Gd8_2 O5_2 1_555 1_555
Gd10_2 O6_2 1_555 1_555
O22_2 Gd2_2 1_555 1_555
O25_2 Gd2_2 1_555 1_555
O29_2 Gd2_2 1_555 1_555
O4_2 Gd12 1_555 1_555
C6_2 C7_2 1_555 1_555
Gd12 O22_2 1_555 1_555
Gd1_2 O1_3 1_555 1_555
O7_2 Gd1_2 1_555 1_555
H1_2 O7_2 1_555 1_555
H2_2 O7_2 1_555 1_555
O21_2 Gd1_2 1_555 1_555
O24_2 Gd1_2 1_555 1_555
O31_2 Gd1_2 1_555 1_555
O10_2 C9_2 1_555 1_555
O11_2 C16_2 1_555 1_555
O12_2 C16_2 1_555 1_555
C9_2 O9_2 1_555 1_555
C10_2 C9_2 1_555 1_555
C11_2 C10_2 1_555 1_555
C12_2 C11_2 1_555 1_555
C13_2 C12_2 1_555 1_555
C14_2 C13_2 1_555 1_555
C15_2 C10_2 1_555 1_555
C16_2 C14_2 1_555 1_555
F5_2 C11_2 1_555 1_555
F6_2 C12_2 1_555 1_555
F7_2 C13_2 1_555 1_555
F8_2 C15_2 1_555 1_555
Gd8 O8_2 1_555 1_555
Gd10_2 O11_2 1_555 1_555
Gd12_2 O12_2 1_555 1_555
O10_2 Gd8 1_555 1_555
C14_2 C15_2 1_555 1_555
Gd3_2 O1_5 1_555 1_555
O15_2 Gd3_2 1_555 1_555
O16_2 C17_2 1_555 1_555
O17_2 C24_2 1_555 1_555
O18_2 C24_2 1_555 1_555
O19_2 Gd3_2 1_555 1_555
H5_2 O19_2 1_555 1_555
H6_2 O19_2 1_555 1_555
C17_2 O15_2 1_555 1_555
C18_2 C17_2 1_555 1_555
C19_2 C18_2 1_555 1_555
C20_2 C19_2 1_555 1_555
C21_2 C20_2 1_555 1_555
C22_2 C21_2 1_555 1_555
C23_2 C18_2 1_555 1_555
C24_2 C22_2 1_555 1_555
F9_2 C19_2 1_555 1_555
F10_2 C20_2 1_555 1_555
F11_2 C21_2 1_555 1_555
F12_2 C23_2 1_555 1_555
Gd10 O14_2 1_555 1_555
Gd8_2 O18_2 1_555 1_555
Gd12_2 O17_2 1_555 1_555
O20_2 Gd3_2 1_555 1_555
O23_2 Gd3_2 1_555 1_555
O28_2 Gd3_2 1_555 1_555
O30_2 Gd3_2 1_555 1_555
Gd3_2 O14_2 1_555 1_555
O16_2 Gd10 1_555 1_555
C22_2 C23_2 1_555 1_555
Gd10 O20_2 1_555 1_555
Gd4 O5_3 1_555 1_555
Gd5 O6_3 1_555 1_555
Gd5 O11_3 1_555 1_555
Gd6 O12_3 1_555 1_555
Gd1_3 O1_6 1_555 1_555
O1_6 Gd2_3 1_555 1_555
O2_3 Gd1_3 1_555 1_555
O3_3 Gd1_3 1_555 1_555
O4_3 C1_3 1_555 1_555
O7_3 Gd1_3 1_555 1_555
H2_3 O7_3 1_555 1_555
C1_3 O3_3 1_555 1_555
Gd2_3 O2_3 1_555 1_555
O8_3 Gd2_3 1_555 1_555
O9_3 Gd2_3 1_555 1_555
O10_3 C9_3 1_555 1_555
O13_3 Gd2_3 1_555 1_555
H4_3 O13_3 1_555 1_555
C9_3 O9_3 1_555 1_555
C10_3 C9_3 1_555 1_555
C11_3 C10_3 1_555 1_555
C12_3 C11_3 1_555 1_555
C13_3 C12_3 1_555 1_555
C14_3 C13_3 1_555 1_555
C15_3 C10_3 1_555 1_555
C16_3 C14_3 1_555 1_555
F5_3 C11_3 1_555 1_555
F6_3 C12_3 1_555 1_555
F7_3 C13_3 1_555 1_555
F8_3 C15_3 1_555 1_555
Gd3_3 O1_6 1_555 1_555
O14_3 Gd1_3 1_555 1_555
O15_3 Gd3_3 1_555 1_555
O16_3 C17_3 1_555 1_555
O19_3 Gd3_3 1_555 1_555
H6_3 O19_3 1_555 1_555
C17_3 O15_3 1_555 1_555
Gd8_2 O8_3 1_555 1_555
Gd10_2 O14_3 1_555 1_555
Gd12_2 O2_3 1_555 1_555
O20_3 Gd3_3 1_555 1_555
O21_3 Gd1_3 1_555 1_555
O22_3 Gd2_3 1_555 1_555
O23_3 Gd3_3 1_555 1_555
O24_3 Gd1_3 1_555 1_555
O25_3 Gd2_3 1_555 1_555
O26_3 Gd1_3 1_555 1_555
O27_3 Gd2_3 1_555 1_555
O28_3 Gd3_3 1_555 1_555
O29_3 Gd2_3 1_555 1_555
O30_3 Gd3_3 1_555 1_555
O31_3 Gd1_3 1_555 1_555
O4_3 Gd12_2 1_555 1_555
O8_3 Gd3_3 1_555 1_555
O10_3 Gd8_2 1_555 1_555
C14_3 C15_3 1_555 1_555
Gd3_3 O14_3 1_555 1_555
O16_3 Gd10_2 1_555 1_555
Gd8_2 O20_3 1_555 1_555
Gd8_2 O22_3 1_555 1_555
Gd10_2 O20_3 1_555 1_555
Gd10_2 O21_3 1_555 1_555
Gd12_2 O21_3 1_555 1_555
Gd12_2 O22_3 1_555 1_555
Gd4 O18_3 1_555 1_555
Gd6 O17_3 1_555 1_555
F11_3 C21_3 1_555 1_555
Gd8_2 O1_7 1_555 1_555
O1_7 Gd10_2 1_555 1_555
O3_4 Gd8_2 1_555 1_555
O23_3 C1_4 1_555 1_555
O26_2 C8_3 1_555 1_555
O29_2 C8_3 1_555 1_555
O7_4 Gd8_2 1_555 1_555
H1_4 O7_4 1_555 1_555
H2_4 O7_4 1_555 1_555
C1_4 O3_4 1_555 1_555
C2_3 C1_4 1_555 1_555
C3_3 C2_3 1_555 1_555
C4_3 C3_3 1_555 1_555
C5_3 C4_3 1_555 1_555
C6_3 C5_3 1_555 1_555
C7_3 C2_3 1_555 1_555
C8_3 C6_3 1_555 1_555
F1_3 C3_3 1_555 1_555
F2_3 C4_3 1_555 1_555
F3_3 C5_3 1_555 1_555
F4_3 C7_3 1_555 1_555
O9_4 Gd10_2 1_555 1_555
O24_3 C9_4 1_555 1_555
O27_2 C16_4 1_555 1_555
O13_4 Gd10_2 1_555 1_555
H3_4 O13_4 1_555 1_555
H4_4 O13_4 1_555 1_555
C9_4 O9_4 1_555 1_555
C10_4 C9_4 1_555 1_555
C11_4 C10_4 1_555 1_555
C12_4 C11_4 1_555 1_555
C15_4 C10_4 1_555 1_555
C16_4 C14_4 1_555 1_555
F5_4 C11_4 1_555 1_555
F8_4 C15_4 1_555 1_555
Gd12_2 O1_7 1_555 1_555
O15_4 Gd12_2 1_555 1_555
O25_3 C17_4 1_555 1_555
O28_2 C24_3 1_555 1_555
O19_4 Gd12_2 1_555 1_555
H5_4 O19_4 1_555 1_555
H6_4 O19_4 1_555 1_555
C17_4 O15_4 1_555 1_555
C18_3 C17_4 1_555 1_555
C19_3 C18_3 1_555 1_555
C20_3 C19_3 1_555 1_555
C23_3 C18_3 1_555 1_555
C24_3 C22_3 1_555 1_555
F9_3 C19_3 1_555 1_555
F12_3 C23_3 1_555 1_555
C6_3 C7_3 1_555 1_555
C14_4 C15_4 1_555 1_555
C22_3 C23_3 1_555 1_555
F7_4 C13_4 1_555 1_555
Gd12 O1_8 1_555 1_555
O15_5 Gd12 1_555 1_555
O25_2 C17_5 1_555 1_555
O28 C24_4 1_555 1_555
O31 C24_4 1_555 1_555
O19_5 Gd12 1_555 1_555
H5_5 O19_5 1_555 1_555
H6_5 O19_5 1_555 1_555
C17_5 O15_5 1_555 1_555
C18_4 C17_5 1_555 1_555
C19_4 C18_4 1_555 1_555
C20_4 C19_4 1_555 1_555
C21_4 C20_4 1_555 1_555
C22_4 C21_4 1_555 1_555
C23_4 C18_4 1_555 1_555
C24_4 C22_4 1_555 1_555
F9_4 C19_4 1_555 1_555
F10_4 C20_4 1_555 1_555
F11_4 C21_4 1_555 1_555
F12_4 C23_4 1_555 1_555
C22_4 C23_4 1_555 1_555
O24_2 C9_5 1_555 1_555
O27 C16_5 1_555 1_555
O30 C16_5 1_555 1_555
C9_5 O9_5 1_555 1_555
C10_5 C9_5 1_555 1_555
C11_5 C10_5 1_555 1_555
C12_5 C11_5 1_555 1_555
C13_5 C12_5 1_555 1_555
C14_5 C13_5 1_555 1_555
C15_5 C10_5 1_555 1_555
C16_5 C14_5 1_555 1_555
F5_5 C11_5 1_555 1_555
F6_5 C12_5 1_555 1_555
F7_5 C13_5 1_555 1_555
F8_5 C15_5 1_555 1_555
C14_5 C15_5 1_555 1_555
Gd8 O1_10 1_555 1_555
O7_5 Gd8 1_555 1_555
H1_5 O7_5 1_555 1_555
H2_5 O7_5 1_555 1_555
O1_11 Gd10 1_555 1_555
O23_2 C1_5 1_555 1_555
O26 C8_4 1_555 1_555
O29 C8_4 1_555 1_555
C1_5 O3_5 1_555 1_555
C2_4 C1_5 1_555 1_555
C3_4 C2_4 1_555 1_555
C4_4 C3_4 1_555 1_555
C5_4 C4_4 1_555 1_555
C6_4 C5_4 1_555 1_555
C7_4 C2_4 1_555 1_555
C8_4 C6_4 1_555 1_555
F1_4 C3_4 1_555 1_555
F2_4 C4_4 1_555 1_555
F3_4 C5_4 1_555 1_555
F4_4 C7_4 1_555 1_555
O13_5 Gd10 1_555 1_555
H3_5 O13_5 1_555 1_555
H4_5 O13_5 1_555 1_555
C6_4 C7_4 1_555 1_555
Gd4 O1_12 1_555 1_555
O1_12 Gd5 1_555 1_555
O3_6 Gd4 1_555 1_555
O23 C1_6 1_555 1_555
O7_6 Gd4 1_555 1_555
H2_6 O7_6 1_555 1_555
C1_6 O3_6 1_555 1_555
O9_6 Gd5 1_555 1_555
O24 C9_6 1_555 1_555
O13_6 Gd5 1_555 1_555
H4_6 O13_6 1_555 1_555
C9_6 O9_6 1_555 1_555
C10_6 C9_6 1_555 1_555
C11_6 C10_6 1_555 1_555
C12_6 C11_6 1_555 1_555
C13_6 C12_6 1_555 1_555
C14_6 C13_6 1_555 1_555
C15_6 C10_6 1_555 1_555
C16_6 C14_6 1_555 1_555
F5_6 C11_6 1_555 1_555
F6_6 C12_6 1_555 1_555
F7_6 C13_6 1_555 1_555
F8_6 C15_6 1_555 1_555
Gd6 O1_12 1_555 1_555
O15_6 Gd6 1_555 1_555
O25 C17_6 1_555 1_555
O19_6 Gd6 1_555 1_555
H6_6 O19_6 1_555 1_555
C17_6 O15_6 1_555 1_555
C14_6 C15_6 1_555 1_555
C3_5 C2_5 1_555 1_555
C4_5 C3_5 1_555 1_555
C5_5 C4_5 1_555 1_555
C6_5 C5_5 1_555 1_555
C7_5 C2_5 1_555 1_555
C8_5 C6_5 1_555 1_555
F1_5 C3_5 1_555 1_555
F2_5 C4_5 1_555 1_555
F3_5 C5_5 1_555 1_555
F4_5 C7_5 1_555 1_555
C6_5 C7_5 1_555 1_555
C19_5 C18_5 1_555 1_555
C20_5 C19_5 1_555 1_555
C21_5 C20_5 1_555 1_555
C22_5 C21_5 1_555 1_555
C23_5 C18_5 1_555 1_555
C24_5 C22_5 1_555 1_555
F9_5 C19_5 1_555 1_555
F10_5 C20_5 1_555 1_555
F11_5 C21_5 1_555 1_555
F12_5 C23_5 1_555 1_555
C22_5 C23_5 1_555 1_555
C19_6 C18_6 1_555 1_555
C20_6 C19_6 1_555 1_555
C21_6 C20_6 1_555 1_555
C22_6 C21_6 1_555 1_555
C23_6 C18_6 1_555 1_555
C24_6 C22_6 1_555 1_555
F9_6 C19_6 1_555 1_555
F10_6 C20_6 1_555 1_555
F11_6 C21_6 1_555 1_555
F12_6 C23_6 1_555 1_555
C22_6 C23_6 1_555 1_555
C3_6 C2_6 1_555 1_555
C4_6 C3_6 1_555 1_555
C5_6 C4_6 1_555 1_555
C6_6 C5_6 1_555 1_555
C7_6 C2_6 1_555 1_555
C8_6 C6_6 1_555 1_555
F1_6 C3_6 1_555 1_555
F2_6 C4_6 1_555 1_555
F3_6 C5_6 1_555 1_555
F4_6 C7_6 1_555 1_555
C6_6 C7_6 1_555 1_555

#END
