
###############################################################################
#
# This file contains modified crystal structure data generated from the
# MOF subset of the Cambridge Structural Database (CSD) v543 
# hosted by the Cambridge Crystallographic Data Centre (CCDC).
#
# This work is licensed under the Creative Commons
# Attribution-NonCommercial-ShareAlike 4.0 International License.
# To view a copy of this license, visit
# http://creativecommons.org/licenses/by-nc-sa/4.0/
# or send a letter to
# Creative Commons, PO Box 1866, Mountain View, CA 94042, USA.
#
# CIF created using the CSD Python API on 29 September 2022
# The structure has been converted into the P1 space group
# The structure has a 3D framework
# The original CSD entry JISMEG is in the monoclinic crystal system
# The framework has been calculated to contain at least 10.0% void space
# The void calculation uses a probe of radius 1.32A, grid spacing 0.4
#
###############################################################################

data_JISMEG
_chemical_formula_moiety         '(C36 H22 O35 Zn7)n'
_symmetry_cell_setting           triclinic
_symmetry_space_group_name_H-M   'P 1'
_symmetry_Int_Tables_number      1
_space_group_name_Hall           'P 1'
loop_
_symmetry_equiv_pos_site_id
_symmetry_equiv_pos_as_xyz
1 x,y,z
_cell_length_a                   10.3108(13)
_cell_length_b                   14.5934(16)
_cell_length_c                   14.5241(17)
_cell_angle_alpha                90
_cell_angle_beta                 107.038(3)
_cell_angle_gamma                90
_cell_volume                     2089.52
loop_
_atom_site_label
_atom_site_type_symbol
_atom_site_fract_x
_atom_site_fract_y
_atom_site_fract_z
Zn2 Zn 0.04232(7) 0.60536(5) 0.58522(5)
O9 O 0.0666(11) 0.5081(6) 0.4935(7)
H3 H 0.0440 0.7342 0.4696
H5 H 0.0865 0.5391 0.4500
H6 H 0.1402 0.4830 0.5259
O10 O 0.4792(3) 0.0689(2) 0.9435(3)
O13 O 0.7369(3) 0.0786(2) 0.9346(2)
O11 O 0.5208(3) 0.9311(2) 0.0565(3)
O12 O 0.7907(3) 0.9286(2) 0.0618(2)
Zn1 Zn 0.62715(6) 0.97442(4) 0.96203(4)
O1 O 0.5551(3) 0.8901(2) 0.8522(3)
O2 O 0.5208(3) 0.5689(2) 0.5565(3)
O3 O 0.7907(3) 0.5714(2) 0.5618(2)
O4 O 0.2631(3) 0.5786(2) 0.5654(2)
C1 C 0.6472(5) 0.8563(4) 0.8233(4)
O5 O 0.7640(3) 0.8850(2) 0.8491(3)
C2 C 0.6137(5) 0.7806(3) 0.7485(4)
C3 C 0.7093(5) 0.7422(3) 0.7154(4)
C4 C 0.4835(5) 0.7500(3) 0.7093(4)
C5 C 0.6860(5) 0.6695(3) 0.6487(4)
H1 H 0.7971 0.7652 0.7379
C6 C 0.4485(5) 0.6829(3) 0.6447(3)
H2 H 0.4152 0.7778 0.7292
C7 C 0.5509(5) 0.6386(3) 0.6163(3)
C8 C 0.8023(6) 0.6331(4) 0.6178(4)
C9 C 0.3019(6) 0.6532(4) 0.6143(4)
O6 O 0.9170(4) 0.6682(3) 0.6581(3)
O7 O 0.2122(4) 0.6998(2) 0.6293(3)
O8 O 0.9843(4) 0.6929(3) 0.4654(3)
H4 H 0.9758 0.6616 0.4146
Zn3 Zn 0.37285(6) 0.47442(4) 0.53797(4)
Zn4 Zn 0.62715(6) 0.52558(4) 0.46203(4)
Zn5 Zn 0.95768(7) 0.39464(5) 0.41478(5)
O14 O 0.9334(11) 0.4919(6) 0.5065(7)
O8_2 O 0.0157(4) 0.1929(3) 0.0346(3)
H4_2 H 0.0242 0.1616 0.0854
Zn4_2 Zn 0.37285(6) 0.02558(4) 0.03797(4)
O1_2 O 0.4449(3) 0.3901(2) 0.6478(3)
O3_2 O 0.2093(3) 0.0714(2) 0.9382(2)
C1_2 C 0.3528(5) 0.3563(4) 0.6767(4)
O5_2 O 0.2360(3) 0.3850(2) 0.6509(3)
C2_2 C 0.3863(5) 0.2806(3) 0.7515(4)
C3_2 C 0.2907(5) 0.2422(3) 0.7846(4)
C4_2 C 0.5165(5) 0.2500(3) 0.7907(4)
C5_2 C 0.3140(5) 0.1695(3) 0.8513(4)
H1_2 H 0.2029 0.2652 0.7621
C6_2 C 0.5515(5) 0.1829(3) 0.8553(3)
H2_2 H 0.5848 0.2778 0.7708
C7_2 C 0.4491(5) 0.1386(3) 0.8837(3)
C8_2 C 0.1977(6) 0.1331(4) 0.8822(4)
C9_2 C 0.6981(6) 0.1532(4) 0.8857(4)
O6_2 O 0.0830(4) 0.1682(3) 0.8419(3)
O7_2 O 0.7878(4) 0.1998(2) 0.8707(3)
O11_2 O 0.4792(3) 0.4311(2) 0.4435(3)
O12_2 O 0.2093(3) 0.4286(2) 0.4382(2)
O14_2 O 0.0666(11) 0.9919(6) 0.9935(7)
O9_2 O 0.9334(11) 0.0081(6) 0.0065(7)
H3_2 H 0.9560 0.2342 0.0304
H5_2 H 0.9135 0.0391 0.0500
O1_3 O 0.4449(3) 0.1099(2) 0.1478(3)
O4_2 O 0.7369(3) 0.4214(2) 0.4346(2)
C1_3 C 0.3528(5) 0.1437(4) 0.1767(4)
O5_3 O 0.2360(3) 0.1150(2) 0.1509(3)
C2_3 C 0.3863(5) 0.2194(3) 0.2515(4)
C3_3 C 0.2907(5) 0.2578(3) 0.2846(4)
C4_3 C 0.5165(5) 0.2500(3) 0.2907(4)
C5_3 C 0.3140(5) 0.3305(3) 0.3513(4)
H1_3 H 0.2029 0.2348 0.2621
C6_3 C 0.5515(5) 0.3171(3) 0.3553(3)
H2_3 H 0.5848 0.2222 0.2708
C7_3 C 0.4491(5) 0.3614(3) 0.3837(3)
C8_3 C 0.1977(6) 0.3669(4) 0.3822(4)
C9_3 C 0.6981(6) 0.3468(4) 0.3857(4)
O6_3 O 0.0830(4) 0.3318(3) 0.3419(3)
O7_3 O 0.7878(4) 0.3002(2) 0.3707(3)
O8_3 O 0.0157(4) 0.3071(3) 0.5346(3)
H4_3 H 0.0242 0.3384 0.5854
O13_2 O 0.2631(3) 0.9214(2) 0.0654(2)
H3_3 H 0.9560 0.2658 0.5304
H5_3 H 0.9135 0.4609 0.5500
H6_2 H 0.8598 0.5170 0.4741
H3_4 H 0.0440 0.7658 0.9696
H5_4 H 0.0865 0.9609 0.9500
O1_4 O 0.5551(3) 0.6099(2) 0.3522(3)
C1_4 C 0.6472(5) 0.6437(4) 0.3233(4)
O5_4 O 0.7640(3) 0.6150(2) 0.3491(3)
C2_4 C 0.6137(5) 0.7194(3) 0.2485(4)
C3_4 C 0.7093(5) 0.7578(3) 0.2154(4)
C4_4 C 0.4835(5) 0.7500(3) 0.2093(4)
C5_4 C 0.6860(5) 0.8305(3) 0.1487(4)
H1_4 H 0.7971 0.7348 0.2379
C6_4 C 0.4485(5) 0.8171(3) 0.1447(3)
H2_4 H 0.4152 0.7222 0.2292
C7_4 C 0.5509(5) 0.8614(3) 0.1163(3)
C8_4 C 0.8023(6) 0.8669(4) 0.1178(4)
C9_4 C 0.3019(6) 0.8468(4) 0.1143(4)
O6_4 O 0.9170(4) 0.8318(3) 0.1581(3)
O7_4 O 0.2122(4) 0.8002(2) 0.1293(3)
O8_4 O 0.9843(4) 0.8071(3) 0.9654(3)
H4_4 H 0.9758 0.8384 0.9146
Zn5_2 Zn 0.04232(7) 0.89464(5) 0.08522(5)
Zn2_2 Zn 0.95768(7) 0.10536(5) 0.91478(5)
H6_3 H 0.8598 0.9830 0.9741
H6_4 H 0.1402 0.0170 0.0259
loop_
_geom_bond_atom_site_label_1
_geom_bond_atom_site_label_2
_geom_bond_site_symmetry_1
_geom_bond_site_symmetry_2
O9 Zn2 1_555 1_555
H5 O9 1_555 1_555
H6 O9 1_555 1_555
Zn1 O1 1_555 1_555
O1 C1 1_555 1_555
O2 C7 1_555 1_555
O3 C8 1_555 1_555
O4 C9 1_555 1_555
C1 O5 1_555 1_555
C2 C1 1_555 1_555
C3 C2 1_555 1_555
C4 C2 1_555 1_555
C5 C3 1_555 1_555
H1 C3 1_555 1_555
C6 C4 1_555 1_555
H2 C4 1_555 1_555
C7 C5 1_555 1_555
C8 C5 1_555 1_555
C9 C6 1_555 1_555
O6 C8 1_555 1_555
O7 C9 1_555 1_555
H4 O8 1_555 1_555
Zn3 O2 1_555 1_555
Zn4 O2 1_555 1_555
O3 Zn4 1_555 1_555
O4 Zn3 1_555 1_555
C6 C7 1_555 1_555
Zn5 O14 1_555 1_555
H4_2 O8_2 1_555 1_555
Zn3 O1_2 1_555 1_555
O1_2 C1_2 1_555 1_555
O10 C7_2 1_555 1_555
O3_2 C8_2 1_555 1_555
O13 C9_2 1_555 1_555
C1_2 O5_2 1_555 1_555
C2_2 C1_2 1_555 1_555
C3_2 C2_2 1_555 1_555
C4_2 C2_2 1_555 1_555
C5_2 C3_2 1_555 1_555
H1_2 C3_2 1_555 1_555
C6_2 C4_2 1_555 1_555
H2_2 C4_2 1_555 1_555
C7_2 C5_2 1_555 1_555
C8_2 C5_2 1_555 1_555
C9_2 C6_2 1_555 1_555
O6_2 C8_2 1_555 1_555
O7_2 C9_2 1_555 1_555
O11_2 Zn3 1_555 1_555
O12_2 Zn3 1_555 1_555
C6_2 C7_2 1_555 1_555
H5_2 O9_2 1_555 1_555
Zn4_2 O1_3 1_555 1_555
O1_3 C1_3 1_555 1_555
O11_2 C7_3 1_555 1_555
O12_2 C8_3 1_555 1_555
O4_2 C9_3 1_555 1_555
C1_3 O5_3 1_555 1_555
C2_3 C1_3 1_555 1_555
C3_3 C2_3 1_555 1_555
C4_3 C2_3 1_555 1_555
C5_3 C3_3 1_555 1_555
H1_3 C3_3 1_555 1_555
C6_3 C4_3 1_555 1_555
H2_3 C4_3 1_555 1_555
C7_3 C5_3 1_555 1_555
C8_3 C5_3 1_555 1_555
C9_3 C6_3 1_555 1_555
O6_3 C8_3 1_555 1_555
O7_3 C9_3 1_555 1_555
H4_3 O8_3 1_555 1_555
Zn4 O11_2 1_555 1_555
O4_2 Zn4 1_555 1_555
C6_3 C7_3 1_555 1_555
H5_3 O14 1_555 1_555
H6_2 O14 1_555 1_555
H5_4 O14_2 1_555 1_555
Zn4 O1_4 1_555 1_555
O1_4 C1_4 1_555 1_555
O11 C7_4 1_555 1_555
O12 C8_4 1_555 1_555
O13_2 C9_4 1_555 1_555
C1_4 O5_4 1_555 1_555
C2_4 C1_4 1_555 1_555
C3_4 C2_4 1_555 1_555
C4_4 C2_4 1_555 1_555
C5_4 C3_4 1_555 1_555
H1_4 C3_4 1_555 1_555
C6_4 C4_4 1_555 1_555
H2_4 C4_4 1_555 1_555
C7_4 C5_4 1_555 1_555
C8_4 C5_4 1_555 1_555
C9_4 C6_4 1_555 1_555
O6_4 C8_4 1_555 1_555
O7_4 C9_4 1_555 1_555
C6_4 C7_4 1_555 1_555
H4_4 O8_4 1_555 1_555

#END
