
###############################################################################
#
# This file contains modified crystal structure data generated from the
# MOF subset of the Cambridge Structural Database (CSD) v543 
# hosted by the Cambridge Crystallographic Data Centre (CCDC).
#
# This work is licensed under the Creative Commons
# Attribution-NonCommercial-ShareAlike 4.0 International License.
# To view a copy of this license, visit
# http://creativecommons.org/licenses/by-nc-sa/4.0/
# or send a letter to
# Creative Commons, PO Box 1866, Mountain View, CA 94042, USA.
#
# CIF created using the CSD Python API on 29 September 2022
# The structure has been converted into the P1 space group
# The structure has a 3D framework
# The original CSD entry JISQEK is in the monoclinic crystal system
# The framework has been calculated to contain at least 10.0% void space
# The void calculation uses a probe of radius 1.32A, grid spacing 0.4
# The framework is charged, counterions have been retained in the structure
# H atom positions have been added when not included in the experimental data
#
###############################################################################

data_JISQEK
_chemical_formula_moiety         '(C272 H320 Cd20 N56 O120)n'
_symmetry_cell_setting           triclinic
_symmetry_space_group_name_H-M   'P 1'
_symmetry_Int_Tables_number      1
_space_group_name_Hall           'P 1'
loop_
_symmetry_equiv_pos_site_id
_symmetry_equiv_pos_as_xyz
1 x,y,z
_cell_length_a                   25.474(3)
_cell_length_b                   23.533(3)
_cell_length_c                   18.769(2)
_cell_angle_alpha                90
_cell_angle_beta                 125.827(5)
_cell_angle_gamma                90
_cell_volume                     9122.69
loop_
_atom_site_label
_atom_site_type_symbol
_atom_site_fract_x
_atom_site_fract_y
_atom_site_fract_z
Cd6 Cd 0.74024(3) 0.03763(3) 0.09752(4)
O2 O 0.6235(3) 0.0133(3) 0.7987(4)
O4 O 0.6774(3) 0.0264(3) 0.9421(4)
O14 O 0.5387(3) 0.1032(3) 0.6802(4)
O20 O 0.4687(3) 0.0540(3) 0.5184(4)
C1 C 0.6248(4) 0.0198(4) 0.8654(6)
N4 N 0.5045(4) 0.0258(3) 0.7689(5)
N6 N 0.7404(4) 0.0569(3) 0.6166(5)
C14 C 0.7359(6) 0.2362(4) 0.6537(7)
C22 C 0.7925(5) 0.0845(4) 0.6825(6)
H24 H 0.830401 0.064039 0.720241
C30 C 0.5006(5) 0.1074(4) 0.5316(7)
H31 H 0.476642 0.129919 0.478265
H32 H 0.543996 0.101196 0.547790
C32 C 0.6778(6) 0.2622(4) 0.6302(7)
H34 H 0.641171 0.240607 0.611039
C33 C 0.6827(5) 0.1449(4) 0.5740(7)
H35 H 0.644298 0.164446 0.535105
C39 C 0.7925(5) 0.1424(4) 0.6968(7)
H42 H 0.829912 0.160102 0.742937
C40 C 0.5620(5) 0.0166(4) 0.8585(6)
H44 H 0.563220 0.045005 0.896843
C43 C 0.5032(6) 0.1367(5) 0.6031(7)
H47 H 0.523893 0.173449 0.613998
H48 H 0.459681 0.142769 0.586268
C44 C 0.6868(5) 0.0871(4) 0.5644(6)
H49 H 0.649962 0.068396 0.519032
C46 C 0.4639(5) 0.0206(5) 0.4517(7)
H51 H 0.505860 0.017623 0.462144
H52 H 0.433904 0.038037 0.394614
C47 C 0.4875(5) 0.0875(4) 0.7536(7)
H53 H 0.485073 0.101706 0.800125
H54 H 0.445115 0.091941 0.698430
C48 C 0.5358(5) 0.1223(4) 0.7509(7)
H55 H 0.523287 0.162047 0.742326
H56 H 0.578177 0.118816 0.806417
H63 H 0.431981 0.012035 0.779345
N12 N 0.7297(7) 0.3524(4) 0.6638(7)
C59 C 0.7368(5) 0.1732(4) 0.6423(7)
C65 C 0.7827(7) 0.3268(5) 0.6855(8)
H74 H 0.818625 0.348951 0.703263
C66 C 0.6771(7) 0.3206(5) 0.6365(7)
H75 H 0.639304 0.338422 0.621539
C68 C 0.7882(6) 0.2683(5) 0.6834(8)
H78 H 0.827550 0.251738 0.702338
Cd9 Cd 0.75290(3) 0.01997(3) 0.90374(4)
Cd1 Cd 0.74024(3) 0.96237(3) 0.59752(4)
Cd2 Cd 0.25290(3) 0.48003(3) 0.40374(4)
Cd3 Cd 0.73552(3) 0.47029(3) 0.50616(4)
Cd4 Cd 0.52255(3) 0.99779(3) 0.66057(4)
Cd5 Cd 0.47054(3) 0.50783(3) 0.33725(4)
O1 O 0.5990(3) 0.9980(3) 0.6302(5)
N1 N 0.7397(4) 0.8663(3) 0.5795(5)
O3 O 0.3698(3) 0.5236(3) 0.2011(4)
O5 O 0.6395(3) 0.9485(3) 0.5711(4)
O6 O 0.4089(3) 0.9955(3) 0.6005(4)
O7 O 0.2207(3) 0.4752(3) 0.2640(4)
H1 H 0.228373 0.441605 0.252718
H2 H 0.244327 0.497423 0.256623
O8 O 0.3141(3) 0.5316(3) 0.0586(4)
N2 N 0.2510(4) 0.3822(3) 0.3932(5)
O9 O 0.3560(3) 0.4749(3) 0.4367(5)
O10 O 0.7931(3) 0.4795(3) 0.4459(4)
H3 H 0.778385 0.508296 0.409228
H4 H 0.786206 0.450334 0.412149
O11 O 0.7058(3) 0.4588(3) 0.5986(4)
H5 H 0.727623 0.481516 0.643343
H6 H 0.716877 0.425221 0.622237
O12 O 0.3421(3) 0.9697(3) 0.6356(5)
O13 O 0.5261(3) 0.5657(3) 0.4774(5)
O15 O 0.6505(3) 0.4785(3) 0.3640(4)
O16 O 0.7820(3) 0.9409(3) 0.7435(4)
H7 H 0.769696 0.907435 0.746245
H8 H 0.765014 0.962814 0.761488
O17 O 0.4593(4) 0.4132(3) 0.2873(5)
N3 N 0.2357(4) 0.8716(3) 0.4866(5)
O18 O 0.4538(3) 0.6137(3) 0.3141(5)
O19 O 0.5261(3) 0.9040(3) 0.7065(5)
O21 O 0.3934(3) 0.5135(3) 0.3660(5)
O22 O 0.5817(3) 0.4997(3) 0.3974(5)
N5 N 0.4859(4) 0.9338(3) 0.5394(6)
C2 C 0.7916(5) 0.8357(4) 0.6358(7)
H9 H 0.827961 0.854565 0.681852
N7 N 0.5028(4) 0.4438(4) 0.4562(6)
C3 C 0.4289(5) 0.5235(5) 0.1388(7)
H10 H 0.432011 0.486345 0.119213
H11 H 0.426231 0.551532 0.098967
N8 N 0.7367(4) 0.5684(3) 0.5298(5)
O23 O 0.5104(5) 0.3306(4) 0.3330(6)
C4 C 0.3027(5) 0.3511(4) 0.4517(7)
H12 H 0.338295 0.368972 0.500470
N9 N 0.2480(4) 0.5769(3) 0.4185(5)
N10 N 0.4885(4) 0.5340(3) 0.2284(6)
C5 C 0.2955(5) 0.7890(4) 0.5012(7)
H13 H 0.335071 0.773330 0.519556
C6 C 0.3942(5) 0.4766(4) 0.4150(7)
C7 C 0.5989(5) 0.9574(4) 0.5855(6)
C8 C 0.3681(5) 0.5260(4) 0.1338(7)
C9 C 0.4400(5) 0.9625(4) 0.4538(7)
C10 C 0.5447(5) 0.9138(4) 0.5491(7)
H14 H 0.532616 0.901456 0.491996
H15 H 0.561380 0.880944 0.587531
C11 C 0.2999(5) 0.6056(4) 0.4849(7)
H16 H 0.338205 0.585551 0.521956
C12 C 0.7951(5) 0.7773(4) 0.6303(7)
H17 H 0.832999 0.757489 0.670585
C13 C 0.7883(5) 0.6001(4) 0.5524(6)
H18 H 0.823395 0.582020 0.559181
C15 C 0.1996(5) 0.3547(4) 0.3253(7)
H19 H 0.163077 0.375698 0.284033
C16 C 0.6866(5) 0.8385(4) 0.5153(7)
H20 H 0.649182 0.859264 0.476628
C17 C 0.3956(5) 0.9861(4) 0.6545(7)
N11 N 0.2599(4) 0.0834(3) 0.3580(5)
C18 C 0.4444(5) 0.4295(4) 0.4492(7)
H21 H 0.456789 0.418128 0.506821
H22 H 0.424325 0.396867 0.410622
C19 C 0.2527(5) 0.2651(4) 0.3736(6)
C20 C 0.2905(5) 0.8459(4) 0.5127(7)
H23 H 0.327969 0.867744 0.540473
O24 O 0.4736(6) 0.8214(4) 0.6590(7)
C21 C 0.5959(5) 0.4921(4) 0.3441(7)
C23 C 0.7398(4) 0.7492(4) 0.5623(6)
C24 C 0.5434(5) 0.5004(4) 0.2464(7)
H25 H 0.562103 0.519205 0.220103
H26 H 0.527840 0.463505 0.218792
C25 C 0.3049(5) 0.2926(4) 0.4416(6)
H27 H 0.342385 0.272470 0.481923
C26 C 0.1820(5) 0.7821(4) 0.4339(7)
H28 H 0.143752 0.761439 0.405866
C27 C 0.2997(5) 0.6628(4) 0.5012(7)
H29 H 0.337133 0.680349 0.547410
C28 C 0.2407(5) 0.7556(4) 0.4620(6)
C29 C 0.1987(5) 0.2972(4) 0.3142(6)
H30 H 0.161917 0.279669 0.266704
C31 C 0.1827(5) 0.8399(4) 0.4490(7)
H33 H 0.144146 0.857273 0.432086
C34 C 0.2055(5) 0.1104(4) 0.3303(6)
H36 H 0.168473 0.088614 0.308161
C35 C 0.2531(5) 0.2029(4) 0.3636(6)
C36 C 0.4556(5) 0.8857(4) 0.5521(8)
H37 H 0.455756 0.853024 0.520663
H38 H 0.410836 0.895116 0.526637
C37 C 0.4945(7) 0.6181(5) 0.4639(9)
H39 H 0.518042 0.640714 0.517201
H40 H 0.450912 0.611876 0.446995
C38 C 0.1998(5) 0.1691(4) 0.3318(6)
H41 H 0.160102 0.185408 0.311419
H43 H 0.559062 0.979571 0.878555
C41 C 0.5305(5) 0.3945(5) 0.4427(7)
H45 H 0.528539 0.362298 0.473340
H46 H 0.575755 0.402014 0.468629
C42 C 0.7397(5) 0.6870(4) 0.5538(6)
C45 C 0.6853(4) 0.7811(4) 0.5044(7)
H50 H 0.647790 0.763515 0.458220
C49 C 0.6856(4) 0.6544(4) 0.5295(6)
H57 H 0.649263 0.671741 0.520067
C50 C 0.1889(5) 0.6638(4) 0.3802(6)
H58 H 0.149503 0.682481 0.343728
C51 C 0.2435(5) 0.6934(4) 0.4481(7)
C52 C 0.5321(5) 0.5318(5) 0.5442(7)
H59 H 0.491056 0.531143 0.536863
H60 H 0.564327 0.548235 0.601254
C53 C 0.3118(5) 0.1164(4) 0.3878(7)
H61 H 0.350468 0.098586 0.406350
C54 C 0.4969(5) 0.3788(5) 0.3472(8)
C55 C 0.1942(5) 0.6070(4) 0.3680(7)
H62 H 0.157689 0.588531 0.321493
C56 C 0.4493(5) 0.9932(4) 0.7513(7)
H64 H 0.464296 0.955910 0.777704
C57 C 0.4890(6) 0.8695(5) 0.6478(8)
C58 C 0.4591(5) 0.6304(4) 0.2448(8)
H65 H 0.472619 0.669841 0.252752
H66 H 0.417186 0.627105 0.188551
C60 C 0.5511(5) 0.4731(5) 0.5407(7)
H67 H 0.556723 0.451393 0.588660
H68 H 0.592474 0.474088 0.549130
C61 C 0.3118(5) 0.1746(4) 0.3929(6)
H69 H 0.349559 0.195224 0.415092
C62 C 0.6866(5) 0.5963(4) 0.5195(6)
H70 H 0.650598 0.575320 0.505021
C63 C 0.7919(5) 0.6582(4) 0.5661(6)
H71 H 0.829339 0.677922 0.583494
C64 C 0.4926(6) 0.6477(5) 0.3921(8)
H72 H 0.473730 0.685226 0.382371
H73 H 0.536012 0.651800 0.407710
C67 C 0.5071(5) 0.5939(5) 0.2447(8)
H76 H 0.511685 0.607524 0.199798
H77 H 0.548896 0.597506 0.301049
Cd7 Cd 0.24024(3) 0.53763(3) 0.09752(4)
Cd10 Cd 0.23552(3) 0.97029(3) 0.50616(4)
O25 O 0.1235(3) 0.4867(3) 0.2987(4)
O26 O 0.8698(3) 0.9764(3) 0.7011(4)
O27 O 0.6774(3) 0.9736(3) 0.4421(4)
O28 O 0.1774(3) 0.4736(3) 0.4421(4)
O29 O 0.3141(3) 0.4684(3) 0.5586(4)
O30 O 0.8141(3) 0.9684(3) 0.5586(4)
O31 O 0.8421(3) 0.4697(3) 0.6356(5)
N13 N 0.7357(4) 0.3716(3) 0.4866(5)
H79 H 0.393319 0.966827 0.44314
H80 H 0.43442 0.936677 0.401613
Cd8 Cd 0.25290(3) 0.51997(3) 0.90374(4)
Cd3_2 Cd 0.73552(3) 0.52971(3) 0.00616(4)
Cd4_2 Cd 0.52255(3) 0.00221(3) 0.16057(4)
O1_2 O 0.5990(3) 0.0020(3) 0.1302(5)
N1_2 N 0.7397(4) 0.1337(3) 0.0795(5)
O5_2 O 0.6395(3) 0.0515(3) 0.0711(4)
O6_2 O 0.4089(3) 0.0045(3) 0.1005(4)
O11_2 O 0.7058(3) 0.5412(3) 0.0986(4)
H5_2 H 0.727623 0.518484 0.143343
H6_2 H 0.716877 0.574779 0.122237
O12_2 O 0.3421(3) 0.0303(3) 0.1356(5)
O16_2 O 0.7820(3) 0.0591(3) 0.2435(4)
H7_2 H 0.769696 0.092565 0.246245
H8_2 H 0.765014 0.037186 0.261488
O19_2 O 0.5261(3) 0.0960(3) 0.2065(5)
N5_2 N 0.4859(4) 0.0662(3) 0.0394(6)
C2_2 C 0.7916(5) 0.1643(4) 0.1358(7)
H9_2 H 0.827961 0.145435 0.181852
N8_2 N 0.7367(4) 0.4316(3) 0.0298(5)
H12_2 H 0.338295 0.631028 0.000470
C5_2 C 0.2955(5) 0.2110(4) 0.0012(7)
H13_2 H 0.335071 0.226670 0.019556
C7_2 C 0.5989(5) 0.0426(4) 0.0855(6)
C10_2 C 0.5447(5) 0.0862(4) 0.0491(7)
H15_2 H 0.561380 0.119056 0.087531
H16_2 H 0.338205 0.414449 0.021956
C12_2 C 0.7951(5) 0.2227(4) 0.1303(7)
H17_2 H 0.832999 0.242511 0.170585
C13_2 C 0.7883(5) 0.3999(4) 0.0524(6)
H18_2 H 0.823395 0.417980 0.059181
C16_2 C 0.6866(5) 0.1615(4) 0.0153(7)
C17_2 C 0.3956(5) 0.0139(4) 0.1545(7)
H21_2 H 0.456789 0.581872 0.006821
C20_2 C 0.2905(5) 0.1541(4) 0.0127(7)
H23_2 H 0.327969 0.132256 0.040473
O24_2 O 0.4736(6) 0.1786(4) 0.1590(7)
C23_2 C 0.7398(4) 0.2508(4) 0.0623(6)
C27_2 C 0.2997(5) 0.3372(4) 0.0012(7)
H29_2 H 0.337133 0.319651 0.047410
C36_2 C 0.4556(5) 0.1143(4) 0.0521(8)
H37_2 H 0.455756 0.146976 0.020663
H38_2 H 0.410836 0.104884 0.026637
H39_2 H 0.518042 0.359286 0.017201
H43_2 H 0.559062 0.020429 0.378555
C42_2 C 0.7397(5) 0.3130(4) 0.0538(6)
C45_2 C 0.6853(4) 0.2189(4) 0.0044(7)
C49_2 C 0.6856(4) 0.3456(4) 0.0295(6)
H57_2 H 0.649263 0.328259 0.020067
C52_2 C 0.5321(5) 0.4682(5) 0.0442(7)
H59_2 H 0.491056 0.468857 0.036863
H60_2 H 0.564327 0.451765 0.101254
C56_2 C 0.4493(5) 0.0068(4) 0.2513(7)
H64_2 H 0.464296 0.044090 0.277704
C57_2 C 0.4890(6) 0.1305(5) 0.1478(8)
C60_2 C 0.5511(5) 0.5269(5) 0.0407(7)
H67_2 H 0.556723 0.548607 0.088660
H68_2 H 0.592474 0.525912 0.049130
C62_2 C 0.6866(5) 0.4037(4) 0.0195(6)
H70_2 H 0.650598 0.424680 0.005021
C63_2 C 0.7919(5) 0.3418(4) 0.0661(6)
H71_2 H 0.829339 0.322078 0.083494
Cd10_2 Cd 0.23552(3) 0.02971(3) 0.00616(4)
O26_2 O 0.8698(3) 0.0236(3) 0.2011(4)
O30_2 O 0.8141(3) 0.0316(3) 0.0586(4)
O31_2 O 0.8421(3) 0.5303(3) 0.1356(5)
Cd5_2 Cd 0.47054(3) 0.49217(3) 0.83725(4)
O3_2 O 0.3698(3) 0.4764(3) 0.7011(4)
O7_2 O 0.2207(3) 0.5248(3) 0.7640(4)
H1_2 H 0.228373 0.558395 0.752718
H2_2 H 0.244327 0.502577 0.756623
N2_2 N 0.2510(4) 0.6178(3) 0.8932(5)
O9_2 O 0.3560(3) 0.5251(3) 0.9367(5)
O10_2 O 0.7931(3) 0.5205(3) 0.9459(4)
H3_2 H 0.778385 0.491704 0.909228
H4_2 H 0.786206 0.549666 0.912149
O13_2 O 0.5261(3) 0.4343(3) 0.9774(5)
O15_2 O 0.6505(3) 0.5215(3) 0.8640(4)
O17_2 O 0.4593(4) 0.5868(3) 0.7873(5)
N3_2 N 0.2357(4) 0.1284(3) 0.9866(5)
O18_2 O 0.4538(3) 0.3863(3) 0.8141(5)
O21_2 O 0.3934(3) 0.4865(3) 0.8660(5)
O22_2 O 0.5817(3) 0.5003(3) 0.8974(5)
N7_2 N 0.5028(4) 0.5562(4) 0.9562(6)
C3_2 C 0.4289(5) 0.4765(5) 0.6388(7)
H10_2 H 0.432011 0.513655 0.619213
H11_2 H 0.426231 0.448468 0.598967
O23_2 O 0.5104(5) 0.6694(4) 0.8330(6)
C4_2 C 0.3027(5) 0.6489(4) 0.9517(7)
N9_2 N 0.2480(4) 0.4231(3) 0.9185(5)
N10_2 N 0.4885(4) 0.4660(3) 0.7284(6)
C6_2 C 0.3942(5) 0.5234(4) 0.9150(7)
C8_2 C 0.3681(5) 0.4740(4) 0.6338(7)
C9_2 C 0.4400(5) 0.0375(4) 0.9538(7)
H14_2 H 0.532616 0.098544 0.991996
C11_2 C 0.2999(5) 0.3944(4) 0.9849(7)
C15_2 C 0.1996(5) 0.6453(4) 0.8253(7)
H19_2 H 0.163077 0.624302 0.784033
H20_2 H 0.649182 0.140736 0.976628
N11_2 N 0.2599(4) 0.9166(3) 0.8580(5)
C18_2 C 0.4444(5) 0.5705(4) 0.9492(7)
H22_2 H 0.424325 0.603133 0.910622
C19_2 C 0.2527(5) 0.7349(4) 0.8736(6)
C21_2 C 0.5959(5) 0.5079(4) 0.8441(7)
C24_2 C 0.5434(5) 0.4996(4) 0.7464(7)
H25_2 H 0.562103 0.480795 0.720103
H26_2 H 0.527840 0.536495 0.718792
C25_2 C 0.3049(5) 0.7074(4) 0.9416(6)
H27_2 H 0.342385 0.727530 0.981923
C26_2 C 0.1820(5) 0.2179(4) 0.9339(7)
H28_2 H 0.143752 0.238561 0.905866
C28_2 C 0.2407(5) 0.2444(4) 0.9620(6)
C29_2 C 0.1987(5) 0.7028(4) 0.8142(6)
H30_2 H 0.161917 0.720331 0.766704
C31_2 C 0.1827(5) 0.1601(4) 0.9490(7)
H33_2 H 0.144146 0.142727 0.932086
C34_2 C 0.2055(5) 0.8896(4) 0.8303(6)
H36_2 H 0.168473 0.911386 0.808161
C35_2 C 0.2531(5) 0.7971(4) 0.8636(6)
C37_2 C 0.4945(7) 0.3819(5) 0.9639(9)
H40_2 H 0.450912 0.388124 0.946995
C38_2 C 0.1998(5) 0.8309(4) 0.8318(6)
H41_2 H 0.160102 0.814592 0.811419
C41_2 C 0.5305(5) 0.6055(5) 0.9427(7)
H45_2 H 0.528539 0.637702 0.973340
H46_2 H 0.575755 0.597986 0.968629
H50_2 H 0.647790 0.236485 0.958220
C50_2 C 0.1889(5) 0.3362(4) 0.8802(6)
H58_2 H 0.149503 0.317519 0.843728
C51_2 C 0.2435(5) 0.3066(4) 0.9481(7)
C53_2 C 0.3118(5) 0.8836(4) 0.8878(7)
H61_2 H 0.350468 0.901414 0.906350
C54_2 C 0.4969(5) 0.6212(5) 0.8472(8)
C55_2 C 0.1942(5) 0.3930(4) 0.8680(7)
H62_2 H 0.157689 0.411469 0.821493
C58_2 C 0.4591(5) 0.3696(4) 0.7448(8)
H65_2 H 0.472619 0.330159 0.752752
H66_2 H 0.417186 0.372895 0.688551
C61_2 C 0.3118(5) 0.8254(4) 0.8929(6)
H69_2 H 0.349559 0.804776 0.915092
C64_2 C 0.4926(6) 0.3523(5) 0.8921(8)
H72_2 H 0.473730 0.314774 0.882371
H73_2 H 0.536012 0.348200 0.907710
C67_2 C 0.5071(5) 0.4061(5) 0.7447(8)
H76_2 H 0.511685 0.392476 0.699798
H77_2 H 0.548896 0.402494 0.801049
Cd7_2 Cd 0.24024(3) 0.46237(3) 0.59752(4)
O25_2 O 0.1235(3) 0.5133(3) 0.7987(4)
O28_2 O 0.1774(3) 0.5264(3) 0.9421(4)
N13_2 N 0.7357(4) 0.6284(3) 0.9866(5)
H79_2 H 0.393319 0.0331733 0.94314
H80_2 H 0.43442 0.0633228 0.901613
O2_2 O 0.6235(3) 0.9867(3) 0.2987(4)
O14_2 O 0.5387(3) 0.8968(3) 0.1802(4)
O20_2 O 0.4687(3) 0.9460(3) 0.0184(4)
C1_2 C 0.6248(4) 0.9802(4) 0.3654(6)
N4_2 N 0.5045(4) 0.9742(3) 0.2689(5)
N6_2 N 0.7404(4) 0.9431(3) 0.1166(5)
C14_2 C 0.7359(6) 0.7638(4) 0.1537(7)
C22_2 C 0.7925(5) 0.9155(4) 0.1825(6)
H24_2 H 0.830401 0.935961 0.220241
C30_2 C 0.5006(5) 0.8926(4) 0.0316(7)
H32_2 H 0.543996 0.898804 0.047790
C32_2 C 0.6778(6) 0.7378(4) 0.1302(7)
H34_2 H 0.641171 0.759393 0.111039
C33_2 C 0.6827(5) 0.8551(4) 0.0740(7)
H35_2 H 0.644298 0.835554 0.035105
C39_2 C 0.7925(5) 0.8576(4) 0.1968(7)
H42_2 H 0.829912 0.839898 0.242937
C40_2 C 0.5620(5) 0.9834(4) 0.3585(6)
H44_2 H 0.563220 0.954995 0.396843
C43_2 C 0.5032(6) 0.8633(5) 0.1031(7)
H47_2 H 0.523893 0.826551 0.113998
H48_2 H 0.459681 0.857231 0.086268
C44_2 C 0.6868(5) 0.9129(4) 0.0644(6)
H49_2 H 0.649962 0.931604 0.019032
C47_2 C 0.4875(5) 0.9125(4) 0.2536(7)
H53_2 H 0.485073 0.898294 0.300125
H54_2 H 0.445115 0.908059 0.198430
C48_2 C 0.5358(5) 0.8777(4) 0.2509(7)
H55_2 H 0.523287 0.837953 0.242326
H56_2 H 0.578177 0.881184 0.306417
H63_2 H 0.431981 0.987965 0.279345
N12_2 N 0.7297(7) 0.6476(4) 0.1638(7)
C59_2 C 0.7368(5) 0.8268(4) 0.1423(7)
C65_2 C 0.7827(7) 0.6732(5) 0.1855(8)
H74_2 H 0.818625 0.651049 0.203263
C66_2 C 0.6771(7) 0.6794(5) 0.1365(7)
H75_2 H 0.639304 0.661578 0.121539
C68_2 C 0.7882(6) 0.7317(5) 0.1834(8)
H78_2 H 0.827550 0.748262 0.202338
Cd9_2 Cd 0.75290(3) 0.98003(3) 0.40374(4)
Cd4_3 Cd 0.02255(3) 0.49779(3) 0.66057(4)
O1_3 O 0.0990(3) 0.4980(3) 0.6302(5)
N1_3 N 0.2397(4) 0.3663(3) 0.5795(5)
O5_3 O 0.1395(3) 0.4485(3) 0.5711(4)
H3_3 H 0.278385 0.008296 0.409228
O13_3 O 0.0261(3) 0.0657(3) 0.4774(5)
O14_3 O 0.0387(3) 0.6032(3) 0.6802(4)
O16_3 O 0.2820(3) 0.4409(3) 0.7435(4)
H7_3 H 0.269696 0.407435 0.746245
H8_3 H 0.265014 0.462814 0.761488
O19_3 O 0.0261(3) 0.4040(3) 0.7065(5)
C1_3 C 0.1248(4) 0.5198(4) 0.8654(6)
N4_3 N 0.0045(4) 0.5258(3) 0.7689(5)
C2_3 C 0.2916(5) 0.3357(4) 0.6358(7)
H9_3 H 0.327961 0.354565 0.681852
N6_3 N 0.2404(4) 0.5569(3) 0.6166(5)
N8_3 N 0.2367(4) 0.0684(3) 0.5298(5)
C7_3 C 0.0989(5) 0.4574(4) 0.5855(6)
C10_3 C 0.0447(5) 0.4138(4) 0.5491(7)
H14_3 H 0.032616 0.401456 0.491996
H15_3 H 0.061380 0.380944 0.587531
C12_3 C 0.2951(5) 0.2773(4) 0.6303(7)
H17_3 H 0.332999 0.257489 0.670585
C13_3 C 0.2883(5) 0.1001(4) 0.5524(6)
H18_3 H 0.323395 0.082020 0.559181
C14_3 C 0.2359(6) 0.7362(4) 0.6537(7)
C16_3 C 0.1866(5) 0.3385(4) 0.5153(7)
H20_3 H 0.149182 0.359264 0.476628
C22_3 C 0.2925(5) 0.5845(4) 0.6825(6)
H24_3 H 0.330401 0.564039 0.720241
C23_3 C 0.2398(4) 0.2492(4) 0.5623(6)
C24_3 C 0.0434(5) 0.0004(4) 0.2464(7)
H25_3 H 0.062103 0.019205 0.220103
C30_3 C 0.0006(5) 0.6074(4) 0.5316(7)
H32_3 H 0.043996 0.601196 0.547790
C32_3 C 0.1778(6) 0.7622(4) 0.6302(7)
H34_3 H 0.141171 0.740607 0.611039
C33_3 C 0.1827(5) 0.6449(4) 0.5740(7)
H35_3 H 0.144298 0.664446 0.535105
H39_3 H 0.018042 0.140714 0.517201
C39_3 C 0.2925(5) 0.6424(4) 0.6968(7)
H42_3 H 0.329912 0.660102 0.742937
C40_3 C 0.0620(5) 0.5166(4) 0.8585(6)
H43_3 H 0.059062 0.479571 0.878555
H44_3 H 0.063220 0.545005 0.896843
C42_3 C 0.2397(5) 0.1870(4) 0.5538(6)
C43_3 C 0.0032(6) 0.6367(5) 0.6031(7)
H47_3 H 0.023893 0.673449 0.613998
C44_3 C 0.1868(5) 0.5871(4) 0.5644(6)
H49_3 H 0.149962 0.568396 0.519032
C45_3 C 0.1853(4) 0.2811(4) 0.5044(7)
H50_3 H 0.147790 0.263515 0.458220
H51_2 H 0.005860 0.517623 0.462144
C48_3 C 0.0358(5) 0.6223(4) 0.7509(7)
H55_3 H 0.023287 0.662047 0.742326
H56_3 H 0.078177 0.618816 0.806417
C49_3 C 0.1856(4) 0.1544(4) 0.5295(6)
H57_3 H 0.149263 0.171741 0.520067
C52_3 C 0.0321(5) 0.0318(5) 0.5442(7)
H60_3 H 0.064327 0.048235 0.601254
N12_3 N 0.2297(7) 0.8524(4) 0.6638(7)
C59_3 C 0.2368(5) 0.6732(4) 0.6423(7)
C62_3 C 0.1866(5) 0.0963(4) 0.5195(6)
H70_3 H 0.150598 0.075320 0.505021
C63_3 C 0.2919(5) 0.1582(4) 0.5661(6)
H71_3 H 0.329339 0.177922 0.583494
H73_3 H 0.036012 0.151800 0.407710
C65_3 C 0.2827(7) 0.8268(5) 0.6855(8)
H74_3 H 0.318625 0.848951 0.703263
C66_3 C 0.1771(7) 0.8206(5) 0.6365(7)
H75_3 H 0.139304 0.838422 0.621539
C67_3 C 0.0071(5) 0.0939(5) 0.2447(8)
H76_3 H 0.011685 0.107524 0.199798
H77_3 H 0.048896 0.097506 0.301049
C68_3 C 0.2882(6) 0.7683(5) 0.6834(8)
H78_3 H 0.327550 0.751738 0.702338
O10_3 O 0.2931(3) 0.9795(3) 0.4459(4)
H4_3 H 0.286206 0.950334 0.412149
O11_3 O 0.2058(3) 0.9588(3) 0.5986(4)
H5_3 H 0.227623 0.981516 0.643343
H6_3 H 0.216877 0.925221 0.622237
O15_3 O 0.1505(3) 0.9785(3) 0.3640(4)
O22_3 O 0.0817(3) 0.9997(3) 0.3974(5)
N7_3 N 0.0028(4) 0.9438(4) 0.4562(6)
O23_3 O 0.0104(5) 0.8306(4) 0.3330(6)
C21_3 C 0.0959(5) 0.9921(4) 0.3441(7)
H26_3 H 0.027840 0.963505 0.218792
C41_3 C 0.0305(5) 0.8945(5) 0.4427(7)
H45_3 H 0.028539 0.862298 0.473340
H46_3 H 0.075755 0.902014 0.468629
C60_3 C 0.0511(5) 0.9731(5) 0.5407(7)
H67_3 H 0.056723 0.951393 0.588660
H68_3 H 0.092474 0.974088 0.549130
Cd5_3 Cd 0.97054(3) 0.00783(3) 0.33725(4)
O6_3 O 0.9089(3) 0.4955(3) 0.6005(4)
O18_3 O 0.9538(3) 0.1137(3) 0.3141(5)
O20_3 O 0.9687(3) 0.5540(3) 0.5184(4)
O21_3 O 0.8934(3) 0.0135(3) 0.3660(5)
N5_3 N 0.9859(4) 0.4338(3) 0.5394(6)
C3_3 C 0.9289(5) 0.0235(5) 0.1388(7)
H11_3 H 0.926231 0.051532 0.098967
N9_3 N 0.7480(4) 0.0769(3) 0.4185(5)
N10_3 N 0.9885(4) 0.0340(3) 0.2284(6)
C5_3 C 0.7955(5) 0.2890(4) 0.5012(7)
H13_3 H 0.835071 0.273330 0.519556
C8_3 C 0.8681(5) 0.0260(4) 0.1338(7)
C9_3 C 0.9400(5) 0.4625(4) 0.4538(7)
C11_3 C 0.7999(5) 0.1056(4) 0.4849(7)
H16_3 H 0.838205 0.085551 0.521956
C17_3 C 0.8956(5) 0.4861(4) 0.6545(7)
C20_3 C 0.7905(5) 0.3459(4) 0.5127(7)
H23_3 H 0.827969 0.367744 0.540473
O24_3 O 0.9736(6) 0.3214(4) 0.6590(7)
C26_3 C 0.6820(5) 0.2821(4) 0.4339(7)
H28_3 H 0.643752 0.261439 0.405866
C27_3 C 0.7997(5) 0.1628(4) 0.5012(7)
H29_3 H 0.837133 0.180349 0.547410
C28_3 C 0.7407(5) 0.2556(4) 0.4620(6)
H31_2 H 0.976642 0.629919 0.478265
C31_3 C 0.6827(5) 0.3399(4) 0.4490(7)
H33_3 H 0.644146 0.357273 0.432086
C36_3 C 0.9556(5) 0.3857(4) 0.5521(8)
H37_3 H 0.955756 0.353024 0.520663
H38_3 H 0.910836 0.395116 0.526637
C37_3 C 0.9945(7) 0.1181(5) 0.4639(9)
H40_3 H 0.950912 0.111876 0.446995
H48_3 H 0.959681 0.642769 0.586268
C46_2 C 0.9639(5) 0.5206(5) 0.4517(7)
H52_2 H 0.933904 0.538037 0.394614
C47_3 C 0.9875(5) 0.5875(4) 0.7536(7)
H53_3 H 0.985073 0.601706 0.800125
H54_3 H 0.945115 0.591941 0.698430
C50_3 C 0.6889(5) 0.1638(4) 0.3802(6)
H58_3 H 0.649503 0.182481 0.343728
C51_3 C 0.7435(5) 0.1934(4) 0.4481(7)
H59_3 H 0.991056 0.031143 0.536863
C55_3 C 0.6942(5) 0.1070(4) 0.3680(7)
H62_3 H 0.657689 0.088531 0.321493
C56_3 C 0.9493(5) 0.4932(4) 0.7513(7)
H63_3 H 0.931981 0.512035 0.779345
H64_3 H 0.964296 0.455910 0.777704
C57_3 C 0.9890(6) 0.3695(5) 0.6478(8)
C58_3 C 0.9591(5) 0.1304(4) 0.2448(8)
H65_3 H 0.972619 0.169841 0.252752
H66_3 H 0.917186 0.127105 0.188551
C64_3 C 0.9926(6) 0.1477(5) 0.3921(8)
H72_3 H 0.973730 0.185226 0.382371
H79_3 H 0.893319 0.466827 0.44314
H80_3 H 0.93442 0.436677 0.401613
O7_3 O 0.7207(3) 0.9752(3) 0.2640(4)
H1_3 H 0.728373 0.941605 0.252718
H2_3 H 0.744327 0.997423 0.256623
N2_3 N 0.7510(4) 0.8822(3) 0.3932(5)
O9_3 O 0.8560(3) 0.9749(3) 0.4367(5)
O17_3 O 0.9593(4) 0.9132(3) 0.2873(5)
H10_3 H 0.932011 0.986345 0.119213
C4_3 C 0.8027(5) 0.8511(4) 0.4517(7)
H12_3 H 0.838295 0.868972 0.500470
C6_3 C 0.8942(5) 0.9766(4) 0.4150(7)
C15_3 C 0.6996(5) 0.8547(4) 0.3253(7)
H19_3 H 0.663077 0.875698 0.284033
N11_3 N 0.7599(4) 0.5834(3) 0.3580(5)
C18_3 C 0.9444(5) 0.9295(4) 0.4492(7)
H21_3 H 0.956789 0.918128 0.506821
H22_3 H 0.924325 0.896867 0.410622
C19_3 C 0.7527(5) 0.7651(4) 0.3736(6)
C25_3 C 0.8049(5) 0.7926(4) 0.4416(6)
H27_3 H 0.842385 0.772470 0.481923
C29_3 C 0.6987(5) 0.7972(4) 0.3142(6)
H30_3 H 0.661917 0.779669 0.266704
C34_3 C 0.7055(5) 0.6104(4) 0.3303(6)
H36_3 H 0.668473 0.588614 0.308161
C35_3 C 0.7531(5) 0.7029(4) 0.3636(6)
C38_3 C 0.6998(5) 0.6691(4) 0.3318(6)
H41_3 H 0.660102 0.685408 0.311419
C53_3 C 0.8118(5) 0.6164(4) 0.3878(7)
H61_3 H 0.850468 0.598586 0.406350
C54_3 C 0.9969(5) 0.8788(5) 0.3472(8)
C61_3 C 0.8118(5) 0.6746(4) 0.3929(6)
H69_3 H 0.849559 0.695224 0.415092
O11_4 O 0.2058(3) 0.0412(3) 0.0986(4)
H5_4 H 0.227623 0.018484 0.143343
H6_4 H 0.216877 0.074779 0.122237
C60_4 C 0.0511(5) 0.0269(5) 0.0407(7)
H67_4 H 0.056723 0.048607 0.088660
H68_4 H 0.092474 0.025912 0.049130
O10_4 O 0.2931(3) 0.0205(3) 0.9459(4)
H4_4 H 0.286206 0.049666 0.912149
O15_4 O 0.1505(3) 0.0215(3) 0.8640(4)
O22_4 O 0.0817(3) 0.0003(3) 0.8974(5)
N7_4 N 0.0028(4) 0.0562(4) 0.9562(6)
O23_4 O 0.0104(5) 0.1694(4) 0.8330(6)
C21_4 C 0.0959(5) 0.0079(4) 0.8441(7)
H26_4 H 0.027840 0.036495 0.718792
C41_4 C 0.0305(5) 0.1055(5) 0.9427(7)
H45_4 H 0.028539 0.137702 0.973340
H46_4 H 0.075755 0.097986 0.968629
Cd4_4 Cd 0.02255(3) 0.50221(3) 0.16057(4)
O1_4 O 0.0990(3) 0.5020(3) 0.1302(5)
N1_4 N 0.2397(4) 0.6337(3) 0.0795(5)
O5_4 O 0.1395(3) 0.5515(3) 0.0711(4)
O14_4 O 0.0387(3) 0.3968(3) 0.1802(4)
O16_4 O 0.2820(3) 0.5591(3) 0.2435(4)
H7_4 H 0.269696 0.592565 0.246245
H8_4 H 0.265014 0.537186 0.261488
O19_4 O 0.0261(3) 0.5960(3) 0.2065(5)
C1_4 C 0.1248(4) 0.4802(4) 0.3654(6)
N4_4 N 0.0045(4) 0.4742(3) 0.2689(5)
C2_4 C 0.2916(5) 0.6643(4) 0.1358(7)
H9_4 H 0.327961 0.645435 0.181852
N6_4 N 0.2404(4) 0.4431(3) 0.1166(5)
N8_4 N 0.2367(4) 0.9316(3) 0.0298(5)
C7_4 C 0.0989(5) 0.5426(4) 0.0855(6)
C10_4 C 0.0447(5) 0.5862(4) 0.0491(7)
H15_4 H 0.061380 0.619056 0.087531
C12_4 C 0.2951(5) 0.7227(4) 0.1303(7)
H17_4 H 0.332999 0.742511 0.170585
C13_4 C 0.2883(5) 0.8999(4) 0.0524(6)
H18_4 H 0.323395 0.917980 0.059181
C14_4 C 0.2359(6) 0.2638(4) 0.1537(7)
C16_4 C 0.1866(5) 0.6615(4) 0.0153(7)
C22_4 C 0.2925(5) 0.4155(4) 0.1825(6)
H24_4 H 0.330401 0.435961 0.220241
C23_4 C 0.2398(4) 0.7508(4) 0.0623(6)
C30_4 C 0.0006(5) 0.3926(4) 0.0316(7)
H32_4 H 0.043996 0.398804 0.047790
C32_4 C 0.1778(6) 0.2378(4) 0.1302(7)
H34_4 H 0.141171 0.259393 0.111039
C33_4 C 0.1827(5) 0.3551(4) 0.0740(7)
H35_4 H 0.144298 0.335554 0.035105
H39_4 H 0.018042 0.859286 0.017201
C39_4 C 0.2925(5) 0.3576(4) 0.1968(7)
H42_4 H 0.329912 0.339898 0.242937
C40_4 C 0.0620(5) 0.4834(4) 0.3585(6)
H43_4 H 0.059062 0.520429 0.378555
H44_4 H 0.063220 0.454995 0.396843
C42_4 C 0.2397(5) 0.8130(4) 0.0538(6)
C43_4 C 0.0032(6) 0.3633(5) 0.1031(7)
H47_4 H 0.023893 0.326551 0.113998
C44_4 C 0.1868(5) 0.4129(4) 0.0644(6)
H49_4 H 0.149962 0.431604 0.019032
C45_4 C 0.1853(4) 0.7189(4) 0.0044(7)
C48_4 C 0.0358(5) 0.3777(4) 0.2509(7)
H55_4 H 0.023287 0.337953 0.242326
H56_4 H 0.078177 0.381184 0.306417
C49_4 C 0.1856(4) 0.8456(4) 0.0295(6)
H57_4 H 0.149263 0.828259 0.020067
C52_4 C 0.0321(5) 0.9682(5) 0.0442(7)
H60_4 H 0.064327 0.951765 0.101254
N12_4 N 0.2297(7) 0.1476(4) 0.1638(7)
C59_4 C 0.2368(5) 0.3268(4) 0.1423(7)
C62_4 C 0.1866(5) 0.9037(4) 0.0195(6)
H70_4 H 0.150598 0.924680 0.005021
C63_4 C 0.2919(5) 0.8418(4) 0.0661(6)
H71_4 H 0.329339 0.822078 0.083494
C65_4 C 0.2827(7) 0.1732(5) 0.1855(8)
H74_4 H 0.318625 0.151049 0.203263
C66_4 C 0.1771(7) 0.1794(5) 0.1365(7)
H75_4 H 0.139304 0.161578 0.121539
C68_4 C 0.2882(6) 0.2317(5) 0.1834(8)
H78_4 H 0.327550 0.248262 0.202338
H3_4 H 0.278385 0.991704 0.909228
O13_4 O 0.0261(3) 0.9343(3) 0.9774(5)
H14_4 H 0.032616 0.598544 0.991996
H20_4 H 0.149182 0.640736 0.976628
C24_4 C 0.0434(5) 0.9996(4) 0.7464(7)
H25_4 H 0.062103 0.980795 0.720103
H50_4 H 0.147790 0.736485 0.958220
H51_3 H 0.005860 0.482377 0.962144
H73_4 H 0.036012 0.848200 0.907710
C67_4 C 0.0071(5) 0.9061(5) 0.7447(8)
H76_4 H 0.011685 0.892476 0.699798
H77_4 H 0.048896 0.902494 0.801049
H12_4 H 0.838295 0.131028 0.000470
H21_4 H 0.956789 0.081872 0.006821
O7_4 O 0.7207(3) 0.0248(3) 0.7640(4)
H1_4 H 0.728373 0.058395 0.752718
H2_4 H 0.744327 0.002577 0.756623
N2_4 N 0.7510(4) 0.1178(3) 0.8932(5)
O9_4 O 0.8560(3) 0.0251(3) 0.9367(5)
O17_4 O 0.9593(4) 0.0868(3) 0.7873(5)
H10_4 H 0.932011 0.013655 0.619213
C4_4 C 0.8027(5) 0.1489(4) 0.9517(7)
C6_4 C 0.8942(5) 0.0234(4) 0.9150(7)
C15_4 C 0.6996(5) 0.1453(4) 0.8253(7)
H19_4 H 0.663077 0.124302 0.784033
N11_4 N 0.7599(4) 0.4166(3) 0.8580(5)
C18_4 C 0.9444(5) 0.0705(4) 0.9492(7)
H22_4 H 0.924325 0.103133 0.910622
C19_4 C 0.7527(5) 0.2349(4) 0.8736(6)
C25_4 C 0.8049(5) 0.2074(4) 0.9416(6)
H27_4 H 0.842385 0.227530 0.981923
C29_4 C 0.6987(5) 0.2028(4) 0.8142(6)
H30_4 H 0.661917 0.220331 0.766704
C34_4 C 0.7055(5) 0.3896(4) 0.8303(6)
H36_4 H 0.668473 0.411386 0.808161
C35_4 C 0.7531(5) 0.2971(4) 0.8636(6)
C38_4 C 0.6998(5) 0.3309(4) 0.8318(6)
H41_4 H 0.660102 0.314592 0.811419
C53_4 C 0.8118(5) 0.3836(4) 0.8878(7)
H61_4 H 0.850468 0.401414 0.906350
C54_4 C 0.9969(5) 0.1212(5) 0.8472(8)
C61_4 C 0.8118(5) 0.3254(4) 0.8929(6)
H69_4 H 0.849559 0.304776 0.915092
O6_4 O 0.9089(3) 0.5045(3) 0.1005(4)
O20_4 O 0.9687(3) 0.4460(3) 0.0184(4)
N5_4 N 0.9859(4) 0.5662(3) 0.0394(6)
C5_4 C 0.7955(5) 0.7110(4) 0.0012(7)
H13_4 H 0.835071 0.726670 0.019556
H16_4 H 0.838205 0.914449 0.021956
C17_4 C 0.8956(5) 0.5139(4) 0.1545(7)
C20_4 C 0.7905(5) 0.6541(4) 0.0127(7)
H23_4 H 0.827969 0.632256 0.040473
O24_4 O 0.9736(6) 0.6786(4) 0.1590(7)
C27_4 C 0.7997(5) 0.8372(4) 0.0012(7)
H29_4 H 0.837133 0.819651 0.047410
C36_4 C 0.9556(5) 0.6143(4) 0.0521(8)
H37_4 H 0.955756 0.646976 0.020663
H38_4 H 0.910836 0.604884 0.026637
H48_4 H 0.959681 0.357231 0.086268
C47_4 C 0.9875(5) 0.4125(4) 0.2536(7)
H53_4 H 0.985073 0.398294 0.300125
H54_4 H 0.945115 0.408059 0.198430
H59_4 H 0.991056 0.968857 0.036863
C56_4 C 0.9493(5) 0.5068(4) 0.2513(7)
H63_4 H 0.931981 0.487965 0.279345
H64_4 H 0.964296 0.544090 0.277704
C57_4 C 0.9890(6) 0.6305(5) 0.1478(8)
Cd5_4 Cd 0.97054(3) 0.99217(3) 0.83725(4)
O18_4 O 0.9538(3) 0.8863(3) 0.8141(5)
O21_4 O 0.8934(3) 0.9865(3) 0.8660(5)
C3_4 C 0.9289(5) 0.9765(5) 0.6388(7)
H11_4 H 0.926231 0.948468 0.598967
N9_4 N 0.7480(4) 0.9231(3) 0.9185(5)
N10_4 N 0.9885(4) 0.9660(3) 0.7284(6)
C8_4 C 0.8681(5) 0.9740(4) 0.6338(7)
C9_4 C 0.9400(5) 0.5375(4) 0.9538(7)
C11_4 C 0.7999(5) 0.8944(4) 0.9849(7)
C26_4 C 0.6820(5) 0.7179(4) 0.9339(7)
H28_4 H 0.643752 0.738561 0.905866
C28_4 C 0.7407(5) 0.7444(4) 0.9620(6)
H31_3 H 0.976642 0.370081 0.978265
C31_4 C 0.6827(5) 0.6601(4) 0.9490(7)
H33_4 H 0.644146 0.642727 0.932086
C37_4 C 0.9945(7) 0.8819(5) 0.9639(9)
H40_4 H 0.950912 0.888124 0.946995
C46_3 C 0.9639(5) 0.4794(5) 0.9517(7)
H52_3 H 0.933904 0.461963 0.894614
C50_4 C 0.6889(5) 0.8362(4) 0.8802(6)
H58_4 H 0.649503 0.817519 0.843728
C51_4 C 0.7435(5) 0.8066(4) 0.9481(7)
C55_4 C 0.6942(5) 0.8930(4) 0.8680(7)
H62_4 H 0.657689 0.911469 0.821493
C58_4 C 0.9591(5) 0.8696(4) 0.7448(8)
H65_4 H 0.972619 0.830159 0.752752
H66_4 H 0.917186 0.872895 0.688551
C64_4 C 0.9926(6) 0.8523(5) 0.8921(8)
H72_4 H 0.973730 0.814774 0.882371
H79_4 H 0.893319 0.533173 0.94314
H80_4 H 0.93442 0.563323 0.901613
H31_4 H 0.476642 0.870081 0.978265
C46_4 C 0.4639(5) 0.9794(5) 0.9517(7)
H51_4 H 0.505860 0.982377 0.962144
H52_4 H 0.433904 0.961963 0.894614
O32 O 0.5328(4) 0.7903(4) 0.3862(7)
O33 O 0.4535(6) 0.8179(5) 0.3858(8)
N14 N 0.4737(7) 0.7988(6) 0.3463(10)
O34 O 0.4367(6) 0.7842(5) 0.2543(12)
O32_2 O 0.5328(4) 0.2097(4) 0.8862(7)
O33_2 O 0.4535(6) 0.1821(5) 0.8858(8)
N14_2 N 0.4737(7) 0.2012(6) 0.8463(10)
O34_2 O 0.4367(6) 0.2158(5) 0.7543(12)
O32_3 O 0.0328(4) 0.2903(4) 0.3862(7)
O33_3 O 0.9535(6) 0.3179(5) 0.3858(8)
N14_3 N 0.9737(7) 0.2988(6) 0.3463(10)
O34_3 O 0.9367(6) 0.2842(5) 0.2543(12)
O32_4 O 0.0328(4) 0.7097(4) 0.8862(7)
O33_4 O 0.9535(6) 0.6821(5) 0.8858(8)
N14_4 N 0.9737(7) 0.7012(6) 0.8463(10)
O34_4 O 0.9367(6) 0.7158(5) 0.7543(12)
O35 O 0.4581(5) 0.2856(7) 0.6060(8)
O36 O 0.4542(6) 0.2584(6) 0.4879(14)
N15 N 0.4854(8) 0.2849(7) 0.5714(10)
O37 O 0.5391(7) 0.3043(8) 0.6066(10)
O35_2 O 0.4581(5) 0.7144(7) 0.1060(8)
N15_2 N 0.4854(8) 0.7151(7) 0.0714(10)
O37_2 O 0.5391(7) 0.6957(8) 0.1066(10)
O36_2 O 0.4542(6) 0.7416(6) 0.9879(14)
O37_3 O 0.0391(7) 0.8043(8) 0.6066(10)
O35_3 O 0.9581(5) 0.7856(7) 0.6060(8)
O36_3 O 0.9542(6) 0.7584(6) 0.4879(14)
N15_3 N 0.9854(8) 0.7849(7) 0.5714(10)
O37_4 O 0.0391(7) 0.1957(8) 0.1066(10)
O35_4 O 0.9581(5) 0.2144(7) 0.1060(8)
N15_4 N 0.9854(8) 0.2151(7) 0.0714(10)
O36_4 O 0.9542(6) 0.2416(6) 0.9879(14)
loop_
_geom_bond_atom_site_label_1
_geom_bond_atom_site_label_2
_geom_bond_site_symmetry_1
_geom_bond_site_symmetry_2
O4 C1 1_555 1_555
C1 O2 1_555 1_555
C14 C32 1_555 1_555
C22 N6 1_555 1_555
H24 C22 1_555 1_555
C30 O20 1_555 1_555
H31 C30 1_555 1_555
H32 C30 1_555 1_555
C32 H34 1_555 1_555
C33 H35 1_555 1_555
C39 C22 1_555 1_555
H42 C39 1_555 1_555
C40 C1 1_555 1_555
H44 C40 1_555 1_555
C43 O14 1_555 1_555
H47 C43 1_555 1_555
H48 C43 1_555 1_555
C44 N6 1_555 1_555
H49 C44 1_555 1_555
C46 O20 1_555 1_555
H51 C46 1_555 1_555
H52 C46 1_555 1_555
C47 N4 1_555 1_555
H53 C47 1_555 1_555
H54 C47 1_555 1_555
C48 O14 1_555 1_555
H55 C48 1_555 1_555
H56 C48 1_555 1_555
N12 C65 1_555 1_555
C59 C14 1_555 1_555
C65 H74 1_555 1_555
C66 C32 1_555 1_555
H75 C66 1_555 1_555
C68 C14 1_555 1_555
H78 C68 1_555 1_555
Cd9 O2 1_555 1_555
O4 Cd9 1_555 1_555
N4 C40 1_555 1_555
C30 C43 1_555 1_555
C33 C44 1_555 1_555
C33 C59 1_555 1_555
C39 C59 1_555 1_555
C47 C48 1_555 1_555
N12 C66 1_555 1_555
C65 C68 1_555 1_555
Cd1 N1 1_555 1_555
Cd2 O7 1_555 1_555
Cd3 O10 1_555 1_555
Cd4 O1 1_555 1_555
Cd5 O3 1_555 1_555
O1 C7 1_555 1_555
N1 C2 1_555 1_555
O3 C8 1_555 1_555
O5 Cd1 1_555 1_555
O6 Cd4 1_555 1_555
O7 H1 1_555 1_555
H2 O7 1_555 1_555
O8 C8 1_555 1_555
N2 Cd2 1_555 1_555
O9 Cd2 1_555 1_555
O10 H3 1_555 1_555
H4 O10 1_555 1_555
O11 Cd3 1_555 1_555
H5 O11 1_555 1_555
H6 O11 1_555 1_555
O12 C17 1_555 1_555
O13 Cd5 1_555 1_555
O15 Cd3 1_555 1_555
O16 Cd1 1_555 1_555
H7 O16 1_555 1_555
H8 O16 1_555 1_555
O17 Cd5 1_555 1_555
N3 C20 1_555 1_555
O18 Cd5 1_555 1_555
O19 Cd4 1_555 1_555
O21 Cd5 1_555 1_555
O22 Cd5 1_555 1_555
N5 Cd4 1_555 1_555
C2 H9 1_555 1_555
N7 Cd5 1_555 1_555
C3 H10 1_555 1_555
H11 C3 1_555 1_555
N8 Cd3 1_555 1_555
O23 C54 1_555 1_555
C4 N2 1_555 1_555
H12 C4 1_555 1_555
N9 Cd2 1_555 1_555
N10 Cd5 1_555 1_555
C5 H13 1_555 1_555
C6 O9 1_555 1_555
C7 O5 1_555 1_555
C8 C3 1_555 1_555
C9 N5 1_555 1_555
C10 N5 1_555 1_555
H14 C10 1_555 1_555
H15 C10 1_555 1_555
C11 N9 1_555 1_555
H16 C11 1_555 1_555
C12 C2 1_555 1_555
H17 C12 1_555 1_555
C13 N8 1_555 1_555
H18 C13 1_555 1_555
C15 N2 1_555 1_555
H19 C15 1_555 1_555
C16 N1 1_555 1_555
H20 C16 1_555 1_555
C17 O6 1_555 1_555
N11 C34 1_555 1_555
C18 N7 1_555 1_555
H21 C18 1_555 1_555
H22 C18 1_555 1_555
C19 C25 1_555 1_555
C20 C5 1_555 1_555
H23 C20 1_555 1_555
O24 C57 1_555 1_555
C21 O15 1_555 1_555
C23 C12 1_555 1_555
C24 N10 1_555 1_555
H25 C24 1_555 1_555
H26 C24 1_555 1_555
C25 C4 1_555 1_555
H27 C25 1_555 1_555
C26 H28 1_555 1_555
C27 C11 1_555 1_555
H29 C27 1_555 1_555
C28 C5 1_555 1_555
C29 C15 1_555 1_555
H30 C29 1_555 1_555
C31 N3 1_555 1_555
H33 C31 1_555 1_555
C34 H36 1_555 1_555
C35 C19 1_555 1_555
C36 N5 1_555 1_555
H37 C36 1_555 1_555
H38 C36 1_555 1_555
C37 O13 1_555 1_555
H39 C37 1_555 1_555
H40 C37 1_555 1_555
C38 C34 1_555 1_555
H41 C38 1_555 1_555
C41 N7 1_555 1_555
H45 C41 1_555 1_555
H46 C41 1_555 1_555
C42 C23 1_555 1_555
C45 C16 1_555 1_555
H50 C45 1_555 1_555
C49 C42 1_555 1_555
H57 C49 1_555 1_555
C50 H58 1_555 1_555
C51 C27 1_555 1_555
C52 O13 1_555 1_555
H59 C52 1_555 1_555
H60 C52 1_555 1_555
C53 N11 1_555 1_555
H61 C53 1_555 1_555
C54 O17 1_555 1_555
C55 N9 1_555 1_555
H62 C55 1_555 1_555
H64 C56 1_555 1_555
C57 O19 1_555 1_555
C58 O18 1_555 1_555
H65 C58 1_555 1_555
H66 C58 1_555 1_555
C60 N7 1_555 1_555
H67 C60 1_555 1_555
H68 C60 1_555 1_555
C61 C35 1_555 1_555
H69 C61 1_555 1_555
C62 N8 1_555 1_555
H70 C62 1_555 1_555
C63 C13 1_555 1_555
H71 C63 1_555 1_555
C64 O18 1_555 1_555
H72 C64 1_555 1_555
H73 C64 1_555 1_555
C67 N10 1_555 1_555
H76 C67 1_555 1_555
H77 C67 1_555 1_555
Cd7 O3 1_555 1_555
Cd10 O12 1_555 1_555
O25 Cd2 1_555 1_555
O26 Cd1 1_555 1_555
O27 Cd1 1_555 1_555
O28 Cd2 1_555 1_555
O29 Cd2 1_555 1_555
O30 Cd1 1_555 1_555
O31 Cd3 1_555 1_555
N13 Cd3 1_555 1_555
O8 Cd7 1_555 1_555
N3 Cd10 1_555 1_555
O21 C6 1_555 1_555
O22 C21 1_555 1_555
C3 N10 1_555 1_555
C6 C18 1_555 1_555
C7 C10 1_555 1_555
C17 C56 1_555 1_555
C19 C29 1_555 1_555
C21 C24 1_555 1_555
C23 C45 1_555 1_555
C26 C28 1_555 1_555
C26 C31 1_555 1_555
C28 C51 1_555 1_555
C35 C38 1_555 1_555
C36 C57 1_555 1_555
C37 C64 1_555 1_555
C41 C54 1_555 1_555
C42 C63 1_555 1_555
C49 C62 1_555 1_555
C50 C51 1_555 1_555
C50 C55 1_555 1_555
C52 C60 1_555 1_555
C53 C61 1_555 1_555
C58 C67 1_555 1_555
C9 H79 1_555 1_555
C9 H80 1_555 1_555
Cd6 N1_2 1_555 1_555
Cd4_2 O1_2 1_555 1_555
O1_2 C7_2 1_555 1_555
N1_2 C2_2 1_555 1_555
O5_2 Cd6 1_555 1_555
O6_2 Cd4_2 1_555 1_555
O11_2 Cd3_2 1_555 1_555
H5_2 O11_2 1_555 1_555
H6_2 O11_2 1_555 1_555
O12_2 C17_2 1_555 1_555
O16_2 Cd6 1_555 1_555
H7_2 O16_2 1_555 1_555
H8_2 O16_2 1_555 1_555
O19_2 Cd4_2 1_555 1_555
N5_2 Cd4_2 1_555 1_555
C2_2 H9_2 1_555 1_555
N8_2 Cd3_2 1_555 1_555
C5_2 H13_2 1_555 1_555
C7_2 O5_2 1_555 1_555
C10_2 N5_2 1_555 1_555
H15_2 C10_2 1_555 1_555
C12_2 C2_2 1_555 1_555
H17_2 C12_2 1_555 1_555
C13_2 N8_2 1_555 1_555
H18_2 C13_2 1_555 1_555
C16_2 N1_2 1_555 1_555
C17_2 O6_2 1_555 1_555
C20_2 C5_2 1_555 1_555
H23_2 C20_2 1_555 1_555
O24_2 C57_2 1_555 1_555
C23_2 C12_2 1_555 1_555
H29_2 C27_2 1_555 1_555
C36_2 N5_2 1_555 1_555
H37_2 C36_2 1_555 1_555
H38_2 C36_2 1_555 1_555
C42_2 C23_2 1_555 1_555
C45_2 C16_2 1_555 1_555
C49_2 C42_2 1_555 1_555
H57_2 C49_2 1_555 1_555
H59_2 C52_2 1_555 1_555
H60_2 C52_2 1_555 1_555
H64_2 C56_2 1_555 1_555
C57_2 O19_2 1_555 1_555
H67_2 C60_2 1_555 1_555
H68_2 C60_2 1_555 1_555
C62_2 N8_2 1_555 1_555
H70_2 C62_2 1_555 1_555
C63_2 C13_2 1_555 1_555
H71_2 C63_2 1_555 1_555
Cd10_2 O12_2 1_555 1_555
O26_2 Cd6 1_555 1_555
O30_2 Cd6 1_555 1_555
O31_2 Cd3_2 1_555 1_555
C7_2 C10_2 1_555 1_555
C17_2 C56_2 1_555 1_555
C23_2 C45_2 1_555 1_555
C36_2 C57_2 1_555 1_555
C42_2 C63_2 1_555 1_555
C49_2 C62_2 1_555 1_555
C52_2 C60_2 1_555 1_555
Cd8 O7_2 1_555 1_555
Cd5_2 O3_2 1_555 1_555
O3_2 C8_2 1_555 1_555
O7_2 H1_2 1_555 1_555
H2_2 O7_2 1_555 1_555
O29 C8_2 1_555 1_555
N2_2 Cd8 1_555 1_555
O9_2 Cd8 1_555 1_555
O10_2 H3_2 1_555 1_555
H4_2 O10_2 1_555 1_555
O13_2 Cd5_2 1_555 1_555
O17_2 Cd5_2 1_555 1_555
O18_2 Cd5_2 1_555 1_555
O21_2 Cd5_2 1_555 1_555
O22_2 Cd5_2 1_555 1_555
N7_2 Cd5_2 1_555 1_555
C3_2 H10_2 1_555 1_555
H11_2 C3_2 1_555 1_555
O23_2 C54_2 1_555 1_555
C4_2 N2_2 1_555 1_555
N9_2 Cd8 1_555 1_555
N10_2 Cd5_2 1_555 1_555
C6_2 O9_2 1_555 1_555
C8_2 C3_2 1_555 1_555
C11_2 N9_2 1_555 1_555
C15_2 N2_2 1_555 1_555
H19_2 C15_2 1_555 1_555
N11_2 C34_2 1_555 1_555
C18_2 N7_2 1_555 1_555
H22_2 C18_2 1_555 1_555
C19_2 C25_2 1_555 1_555
C21_2 O15_2 1_555 1_555
C24_2 N10_2 1_555 1_555
H25_2 C24_2 1_555 1_555
H26_2 C24_2 1_555 1_555
C25_2 C4_2 1_555 1_555
H27_2 C25_2 1_555 1_555
C26_2 H28_2 1_555 1_555
C29_2 C15_2 1_555 1_555
H30_2 C29_2 1_555 1_555
C31_2 N3_2 1_555 1_555
H33_2 C31_2 1_555 1_555
C34_2 H36_2 1_555 1_555
C35_2 C19_2 1_555 1_555
C37_2 O13_2 1_555 1_555
H40_2 C37_2 1_555 1_555
C38_2 C34_2 1_555 1_555
H41_2 C38_2 1_555 1_555
C41_2 N7_2 1_555 1_555
H45_2 C41_2 1_555 1_555
H46_2 C41_2 1_555 1_555
C50_2 H58_2 1_555 1_555
C53_2 N11_2 1_555 1_555
H61_2 C53_2 1_555 1_555
C54_2 O17_2 1_555 1_555
C55_2 N9_2 1_555 1_555
H62_2 C55_2 1_555 1_555
C58_2 O18_2 1_555 1_555
H65_2 C58_2 1_555 1_555
H66_2 C58_2 1_555 1_555
C61_2 C35_2 1_555 1_555
H69_2 C61_2 1_555 1_555
C64_2 O18_2 1_555 1_555
H72_2 C64_2 1_555 1_555
H73_2 C64_2 1_555 1_555
C67_2 N10_2 1_555 1_555
H76_2 C67_2 1_555 1_555
H77_2 C67_2 1_555 1_555
Cd7_2 O3_2 1_555 1_555
O25_2 Cd8 1_555 1_555
O28_2 Cd8 1_555 1_555
O29 Cd7_2 1_555 1_555
O21_2 C6_2 1_555 1_555
O22_2 C21_2 1_555 1_555
C3_2 N10_2 1_555 1_555
C6_2 C18_2 1_555 1_555
C19_2 C29_2 1_555 1_555
C21_2 C24_2 1_555 1_555
C26_2 C28_2 1_555 1_555
C26_2 C31_2 1_555 1_555
C28_2 C51_2 1_555 1_555
C35_2 C38_2 1_555 1_555
C37_2 C64_2 1_555 1_555
C41_2 C54_2 1_555 1_555
C50_2 C51_2 1_555 1_555
C50_2 C55_2 1_555 1_555
C53_2 C61_2 1_555 1_555
C58_2 C67_2 1_555 1_555
C9_2 H79_2 1_555 1_555
C9_2 H80_2 1_555 1_555
O27 C1_2 1_555 1_555
C1_2 O2_2 1_555 1_555
C14_2 C32_2 1_555 1_555
C22_2 N6_2 1_555 1_555
H24_2 C22_2 1_555 1_555
C30_2 O20_2 1_555 1_555
H32_2 C30_2 1_555 1_555
C32_2 H34_2 1_555 1_555
C33_2 H35_2 1_555 1_555
C39_2 C22_2 1_555 1_555
H42_2 C39_2 1_555 1_555
C40_2 C1_2 1_555 1_555
H44_2 C40_2 1_555 1_555
C43_2 O14_2 1_555 1_555
H47_2 C43_2 1_555 1_555
H48_2 C43_2 1_555 1_555
C44_2 N6_2 1_555 1_555
H49_2 C44_2 1_555 1_555
C47_2 N4_2 1_555 1_555
H53_2 C47_2 1_555 1_555
H54_2 C47_2 1_555 1_555
C48_2 O14_2 1_555 1_555
H55_2 C48_2 1_555 1_555
H56_2 C48_2 1_555 1_555
N12_2 C65_2 1_555 1_555
C59_2 C14_2 1_555 1_555
C65_2 H74_2 1_555 1_555
C66_2 C32_2 1_555 1_555
H75_2 C66_2 1_555 1_555
C68_2 C14_2 1_555 1_555
H78_2 C68_2 1_555 1_555
Cd9_2 O2_2 1_555 1_555
O27 Cd9_2 1_555 1_555
N4_2 C40_2 1_555 1_555
C30_2 C43_2 1_555 1_555
C33_2 C44_2 1_555 1_555
C33_2 C59_2 1_555 1_555
C39_2 C59_2 1_555 1_555
C47_2 C48_2 1_555 1_555
N12_2 C66_2 1_555 1_555
C65_2 C68_2 1_555 1_555
Cd7_2 N1_3 1_555 1_555
Cd4_3 O1_3 1_555 1_555
O1_3 C7_3 1_555 1_555
N1_3 C2_3 1_555 1_555
O25_2 Cd4_3 1_555 1_555
O28_2 C1_3 1_555 1_555
O5_3 Cd7_2 1_555 1_555
O14_3 Cd4_3 1_555 1_555
O16_3 Cd7_2 1_555 1_555
H7_3 O16_3 1_555 1_555
H8_3 O16_3 1_555 1_555
O19_3 Cd4_3 1_555 1_555
C1_3 O25_2 1_555 1_555
N4_3 Cd4_3 1_555 1_555
C2_3 H9_3 1_555 1_555
N6_3 Cd7_2 1_555 1_555
C7_3 O5_3 1_555 1_555
H14_3 C10_3 1_555 1_555
H15_3 C10_3 1_555 1_555
C12_3 C2_3 1_555 1_555
H17_3 C12_3 1_555 1_555
C13_3 N8_3 1_555 1_555
H18_3 C13_3 1_555 1_555
C14_3 C32_3 1_555 1_555
C16_3 N1_3 1_555 1_555
H20_3 C16_3 1_555 1_555
C22_3 N6_3 1_555 1_555
H24_3 C22_3 1_555 1_555
C23_3 C12_3 1_555 1_555
H25_3 C24_3 1_555 1_555
H32_3 C30_3 1_555 1_555
C32_3 H34_3 1_555 1_555
C33_3 H35_3 1_555 1_555
C39_3 C22_3 1_555 1_555
H42_3 C39_3 1_555 1_555
C40_3 C1_3 1_555 1_555
H43_3 C40_3 1_555 1_555
H44_3 C40_3 1_555 1_555
C42_3 C23_3 1_555 1_555
C43_3 O14_3 1_555 1_555
H47_3 C43_3 1_555 1_555
C44_3 N6_3 1_555 1_555
H49_3 C44_3 1_555 1_555
C45_3 C16_3 1_555 1_555
H50_3 C45_3 1_555 1_555
C48_3 O14_3 1_555 1_555
H55_3 C48_3 1_555 1_555
H56_3 C48_3 1_555 1_555
C49_3 C42_3 1_555 1_555
H57_3 C49_3 1_555 1_555
C52_3 O13_3 1_555 1_555
H60_3 C52_3 1_555 1_555
N12_3 C65_3 1_555 1_555
C59_3 C14_3 1_555 1_555
C62_3 N8_3 1_555 1_555
H70_3 C62_3 1_555 1_555
C63_3 C13_3 1_555 1_555
H71_3 C63_3 1_555 1_555
C65_3 H74_3 1_555 1_555
C66_3 C32_3 1_555 1_555
H75_3 C66_3 1_555 1_555
H76_3 C67_3 1_555 1_555
H77_3 C67_3 1_555 1_555
C68_3 C14_3 1_555 1_555
H78_3 C68_3 1_555 1_555
O28 Cd7_2 1_555 1_555
N4_3 C40_3 1_555 1_555
C7_3 C10_3 1_555 1_555
C23_3 C45_3 1_555 1_555
C30_3 C43_3 1_555 1_555
C33_3 C44_3 1_555 1_555
C33_3 C59_3 1_555 1_555
C39_3 C59_3 1_555 1_555
C42_3 C63_3 1_555 1_555
C49_3 C62_3 1_555 1_555
N12_3 C66_3 1_555 1_555
C65_3 C68_3 1_555 1_555
Cd10 O10_3 1_555 1_555
H4_3 O10_3 1_555 1_555
O11_3 Cd10 1_555 1_555
H5_3 O11_3 1_555 1_555
H6_3 O11_3 1_555 1_555
O15_3 Cd10 1_555 1_555
C21_3 O15_3 1_555 1_555
C41_3 N7_3 1_555 1_555
H45_3 C41_3 1_555 1_555
H46_3 C41_3 1_555 1_555
C60_3 N7_3 1_555 1_555
H67_3 C60_3 1_555 1_555
H68_3 C60_3 1_555 1_555
O22_3 C21_3 1_555 1_555
Cd5_3 O26_2 1_555 1_555
O26_2 C8_3 1_555 1_555
O30_2 C8_3 1_555 1_555
O31 C17_3 1_555 1_555
N13 C20_3 1_555 1_555
O18_3 Cd5_3 1_555 1_555
O21_3 Cd5_3 1_555 1_555
H11_3 C3_3 1_555 1_555
N10_3 Cd5_3 1_555 1_555
C5_3 H13_3 1_555 1_555
C8_3 C3_3 1_555 1_555
C9_3 N5_3 1_555 1_555
C11_3 N9_3 1_555 1_555
H16_3 C11_3 1_555 1_555
C17_3 O6_3 1_555 1_555
C20_3 C5_3 1_555 1_555
H23_3 C20_3 1_555 1_555
O24_3 C57_3 1_555 1_555
C26_3 H28_3 1_555 1_555
C27_3 C11_3 1_555 1_555
H29_3 C27_3 1_555 1_555
C28_3 C5_3 1_555 1_555
C31_3 N13 1_555 1_555
H33_3 C31_3 1_555 1_555
C36_3 N5_3 1_555 1_555
H37_3 C36_3 1_555 1_555
H38_3 C36_3 1_555 1_555
H40_3 C37_3 1_555 1_555
C46_2 O20_3 1_555 1_555
H52_2 C46_2 1_555 1_555
H53_3 C47_3 1_555 1_555
H54_3 C47_3 1_555 1_555
C50_3 H58_3 1_555 1_555
C51_3 C27_3 1_555 1_555
C55_3 N9_3 1_555 1_555
H62_3 C55_3 1_555 1_555
H63_3 C56_3 1_555 1_555
H64_3 C56_3 1_555 1_555
C58_3 O18_3 1_555 1_555
H65_3 C58_3 1_555 1_555
H66_3 C58_3 1_555 1_555
C64_3 O18_3 1_555 1_555
H72_3 C64_3 1_555 1_555
C3_3 N10_3 1_555 1_555
C9_3 C46_2 1_555 1_555
C17_3 C56_3 1_555 1_555
C26_3 C28_3 1_555 1_555
C26_3 C31_3 1_555 1_555
C28_3 C51_3 1_555 1_555
C36_3 C57_3 1_555 1_555
C37_3 C64_3 1_555 1_555
C50_3 C51_3 1_555 1_555
C50_3 C55_3 1_555 1_555
C9_3 H79_3 1_555 1_555
C9_3 H80_3 1_555 1_555
Cd9_2 O7_3 1_555 1_555
O7_3 H1_3 1_555 1_555
H2_3 O7_3 1_555 1_555
N2_3 Cd9_2 1_555 1_555
O9_3 Cd9_2 1_555 1_555
C4_3 N2_3 1_555 1_555
H12_3 C4_3 1_555 1_555
C6_3 O9_3 1_555 1_555
C15_3 N2_3 1_555 1_555
H19_3 C15_3 1_555 1_555
N11_3 C34_3 1_555 1_555
H21_3 C18_3 1_555 1_555
H22_3 C18_3 1_555 1_555
C19_3 C25_3 1_555 1_555
C25_3 C4_3 1_555 1_555
H27_3 C25_3 1_555 1_555
C29_3 C15_3 1_555 1_555
H30_3 C29_3 1_555 1_555
C34_3 H36_3 1_555 1_555
C35_3 C19_3 1_555 1_555
C38_3 C34_3 1_555 1_555
H41_3 C38_3 1_555 1_555
C53_3 N11_3 1_555 1_555
H61_3 C53_3 1_555 1_555
C54_3 O17_3 1_555 1_555
C61_3 C35_3 1_555 1_555
H69_3 C61_3 1_555 1_555
O30 Cd9_2 1_555 1_555
C6_3 C18_3 1_555 1_555
C19_3 C29_3 1_555 1_555
C35_3 C38_3 1_555 1_555
C53_3 C61_3 1_555 1_555
O11_4 Cd10_2 1_555 1_555
H5_4 O11_4 1_555 1_555
H6_4 O11_4 1_555 1_555
H67_4 C60_4 1_555 1_555
H68_4 C60_4 1_555 1_555
H4_4 O10_4 1_555 1_555
C21_4 O15_4 1_555 1_555
C41_4 N7_4 1_555 1_555
H45_4 C41_4 1_555 1_555
H46_4 C41_4 1_555 1_555
O22_4 C21_4 1_555 1_555
Cd7 N1_4 1_555 1_555
Cd4_4 O1_4 1_555 1_555
O1_4 C7_4 1_555 1_555
N1_4 C2_4 1_555 1_555
O25 Cd4_4 1_555 1_555
O28 C1_4 1_555 1_555
O5_4 Cd7 1_555 1_555
O14_4 Cd4_4 1_555 1_555
O16_4 Cd7 1_555 1_555
H7_4 O16_4 1_555 1_555
H8_4 O16_4 1_555 1_555
O19_4 Cd4_4 1_555 1_555
C1_4 O25 1_555 1_555
N4_4 Cd4_4 1_555 1_555
C2_4 H9_4 1_555 1_555
N6_4 Cd7 1_555 1_555
C7_4 O5_4 1_555 1_555
H15_4 C10_4 1_555 1_555
C12_4 C2_4 1_555 1_555
H17_4 C12_4 1_555 1_555
C13_4 N8_4 1_555 1_555
H18_4 C13_4 1_555 1_555
C14_4 C32_4 1_555 1_555
C16_4 N1_4 1_555 1_555
C22_4 N6_4 1_555 1_555
H24_4 C22_4 1_555 1_555
C23_4 C12_4 1_555 1_555
H32_4 C30_4 1_555 1_555
C32_4 H34_4 1_555 1_555
C33_4 H35_4 1_555 1_555
C39_4 C22_4 1_555 1_555
H42_4 C39_4 1_555 1_555
C40_4 C1_4 1_555 1_555
H43_4 C40_4 1_555 1_555
H44_4 C40_4 1_555 1_555
C42_4 C23_4 1_555 1_555
C43_4 O14_4 1_555 1_555
H47_4 C43_4 1_555 1_555
C44_4 N6_4 1_555 1_555
H49_4 C44_4 1_555 1_555
C45_4 C16_4 1_555 1_555
C48_4 O14_4 1_555 1_555
H55_4 C48_4 1_555 1_555
H56_4 C48_4 1_555 1_555
C49_4 C42_4 1_555 1_555
H57_4 C49_4 1_555 1_555
H60_4 C52_4 1_555 1_555
N12_4 C65_4 1_555 1_555
C59_4 C14_4 1_555 1_555
C62_4 N8_4 1_555 1_555
H70_4 C62_4 1_555 1_555
C63_4 C13_4 1_555 1_555
H71_4 C63_4 1_555 1_555
C65_4 H74_4 1_555 1_555
C66_4 C32_4 1_555 1_555
H75_4 C66_4 1_555 1_555
C68_4 C14_4 1_555 1_555
H78_4 C68_4 1_555 1_555
N4_4 C40_4 1_555 1_555
C7_4 C10_4 1_555 1_555
C23_4 C45_4 1_555 1_555
C30_4 C43_4 1_555 1_555
C33_4 C44_4 1_555 1_555
C33_4 C59_4 1_555 1_555
C39_4 C59_4 1_555 1_555
C42_4 C63_4 1_555 1_555
C49_4 C62_4 1_555 1_555
N12_4 C66_4 1_555 1_555
C65_4 C68_4 1_555 1_555
H25_4 C24_4 1_555 1_555
H76_4 C67_4 1_555 1_555
H77_4 C67_4 1_555 1_555
Cd9 O7_4 1_555 1_555
O7_4 H1_4 1_555 1_555
H2_4 O7_4 1_555 1_555
N2_4 Cd9 1_555 1_555
O9_4 Cd9 1_555 1_555
C4_4 N2_4 1_555 1_555
C6_4 O9_4 1_555 1_555
C15_4 N2_4 1_555 1_555
H19_4 C15_4 1_555 1_555
N11_4 C34_4 1_555 1_555
H22_4 C18_4 1_555 1_555
C19_4 C25_4 1_555 1_555
C25_4 C4_4 1_555 1_555
H27_4 C25_4 1_555 1_555
C29_4 C15_4 1_555 1_555
H30_4 C29_4 1_555 1_555
C34_4 H36_4 1_555 1_555
C35_4 C19_4 1_555 1_555
C38_4 C34_4 1_555 1_555
H41_4 C38_4 1_555 1_555
C53_4 N11_4 1_555 1_555
H61_4 C53_4 1_555 1_555
C54_4 O17_4 1_555 1_555
C61_4 C35_4 1_555 1_555
H69_4 C61_4 1_555 1_555
C6_4 C18_4 1_555 1_555
C19_4 C29_4 1_555 1_555
C35_4 C38_4 1_555 1_555
C53_4 C61_4 1_555 1_555
O31_2 C17_4 1_555 1_555
C5_4 H13_4 1_555 1_555
C17_4 O6_4 1_555 1_555
C20_4 C5_4 1_555 1_555
H23_4 C20_4 1_555 1_555
O24_4 C57_4 1_555 1_555
H29_4 C27_4 1_555 1_555
C36_4 N5_4 1_555 1_555
H37_4 C36_4 1_555 1_555
H38_4 C36_4 1_555 1_555
H53_4 C47_4 1_555 1_555
H54_4 C47_4 1_555 1_555
H63_4 C56_4 1_555 1_555
H64_4 C56_4 1_555 1_555
C17_4 C56_4 1_555 1_555
C36_4 C57_4 1_555 1_555
Cd5_4 O26 1_555 1_555
O26 C8_4 1_555 1_555
O30 C8_4 1_555 1_555
O18_4 Cd5_4 1_555 1_555
O21_4 Cd5_4 1_555 1_555
H11_4 C3_4 1_555 1_555
N10_4 Cd5_4 1_555 1_555
C8_4 C3_4 1_555 1_555
C11_4 N9_4 1_555 1_555
C26_4 H28_4 1_555 1_555
C31_4 N13_2 1_555 1_555
H33_4 C31_4 1_555 1_555
H40_4 C37_4 1_555 1_555
H52_3 C46_3 1_555 1_555
C50_4 H58_4 1_555 1_555
C55_4 N9_4 1_555 1_555
H62_4 C55_4 1_555 1_555
C58_4 O18_4 1_555 1_555
H65_4 C58_4 1_555 1_555
H66_4 C58_4 1_555 1_555
C64_4 O18_4 1_555 1_555
H72_4 C64_4 1_555 1_555
C3_4 N10_4 1_555 1_555
C9_4 C46_3 1_555 1_555
C26_4 C28_4 1_555 1_555
C26_4 C31_4 1_555 1_555
C28_4 C51_4 1_555 1_555
C37_4 C64_4 1_555 1_555
C50_4 C51_4 1_555 1_555
C50_4 C55_4 1_555 1_555
C9_4 H79_4 1_555 1_555
C9_4 H80_4 1_555 1_555
H51_4 C46_4 1_555 1_555
H52_4 C46_4 1_555 1_555
O32 N14 1_555 1_555
O33 N14 1_555 1_555
N14 O34 1_555 1_555
O32_2 N14_2 1_555 1_555
O33_2 N14_2 1_555 1_555
N14_2 O34_2 1_555 1_555
O33_3 N14_3 1_555 1_555
N14_3 O34_3 1_555 1_555
O33_4 N14_4 1_555 1_555
N14_4 O34_4 1_555 1_555
O35 N15 1_555 1_555
O36 N15 1_555 1_555
N15 O37 1_555 1_555
O35_2 N15_2 1_555 1_555
N15_2 O37_2 1_555 1_555
O35_3 N15_3 1_555 1_555
O36_3 N15_3 1_555 1_555
O35_4 N15_4 1_555 1_555

#END
