
###############################################################################
#
# This file contains modified crystal structure data generated from the
# MOF subset of the Cambridge Structural Database (CSD) v543 
# hosted by the Cambridge Crystallographic Data Centre (CCDC).
#
# This work is licensed under the Creative Commons
# Attribution-NonCommercial-ShareAlike 4.0 International License.
# To view a copy of this license, visit
# http://creativecommons.org/licenses/by-nc-sa/4.0/
# or send a letter to
# Creative Commons, PO Box 1866, Mountain View, CA 94042, USA.
#
# CIF created using the CSD Python API on 29 September 2022
# The structure has been converted into the P1 space group
# The structure has a 3D framework
# The original CSD entry JISVEP is in the monoclinic crystal system
# The framework has been calculated to contain at least 10.0% void space
# The void calculation uses a probe of radius 1.32A, grid spacing 0.4
#
###############################################################################

data_JISVEP
_chemical_formula_moiety         '(C208 H256 Cd16 N32 O88)n'
_symmetry_cell_setting           triclinic
_symmetry_space_group_name_H-M   'P 1'
_symmetry_Int_Tables_number      1
_space_group_name_Hall           'P 1'
loop_
_symmetry_equiv_pos_site_id
_symmetry_equiv_pos_as_xyz
1 x,y,z
_cell_length_a                   22.7079(10)
_cell_length_b                   16.2566(10)
_cell_length_c                   18.0067(9)
_cell_angle_alpha                90
_cell_angle_beta                 102.003(2)
_cell_angle_gamma                90
_cell_volume                     6501.9
loop_
_atom_site_label
_atom_site_type_symbol
_atom_site_fract_x
_atom_site_fract_y
_atom_site_fract_z
Cd1 Cd 0.30961(2) 0.32073(2) 0.06616(2)
Cd2 Cd 0.33958(2) 0.48199(2) 0.36744(2)
O1 O 0.26258(13) 0.70739(17) 0.43893(15)
O2 O 0.32499(13) 0.60532(17) 0.42961(16)
O3 O 0.37341(13) 0.43135(18) 0.10655(16)
H1 H 0.368081 0.449278 0.149881
O4 O 0.32204(14) 0.29216(18) 0.19161(16)
O5 O 0.33853(15) 0.41546(18) 0.24671(16)
O6 O 0.36450(13) 0.45245(17) 0.49830(15)
O7 O 0.45200(14) 0.50327(19) 0.40068(18)
O8 O 0.3877(2) 0.3568(2) 0.5870(2)
O9 O 0.37899(17) 0.5842(2) 0.28604(19)
O10 O 0.24685(15) 0.41364(19) 0.36800(17)
N2 N 0.39177(15) 0.2407(2) 0.0613(2)
N3 N 0.25712(19) 0.5562(2) 0.28768(19)
N4 N 0.38434(15) 0.3469(2) 0.38536(18)
C1 C 0.35146(19) 0.2941(2) 0.3243(2)
H2 H 0.314377 0.275593 0.337618
H3 H 0.375616 0.245913 0.319603
C2 C 0.37794(18) 0.3796(2) 0.5202(2)
C3 C 0.27778(18) 0.6448(2) 0.4049(2)
C4 C 0.33660(18) 0.3386(2) 0.2482(2)
C5 C 0.2778(3) 0.5995(3) 0.2254(2)
H4 H 0.247100 0.638317 0.201710
H5 H 0.283330 0.559885 0.187139
C6 C 0.2107(2) 0.4948(3) 0.2571(3)
H6 H 0.221922 0.467204 0.214365
H7 H 0.172808 0.522854 0.238639
C7 C 0.44741(18) 0.3561(3) 0.3765(2)
H8 H 0.447628 0.366518 0.323472
H9 H 0.468806 0.304995 0.390779
C8 C 0.48010(19) 0.4255(3) 0.4243(2)
H10 H 0.479477 0.415916 0.477292
H11 H 0.521784 0.426735 0.419196
C9 C 0.42107(19) 0.2434(3) 0.0047(3)
C10 C 0.4112(2) 0.1870(3) 0.1180(4)
H13 H 0.390921 0.185095 0.157864
C12 C 0.3358(3) 0.6447(3) 0.2535(3)
H15 H 0.348594 0.672566 0.211835
H16 H 0.331005 0.685345 0.291225
O11 O 0.1516(2) 0.3972(3) 0.3060(3)
C15 C 0.2328(2) 0.6146(3) 0.3360(2)
H19 H 0.199580 0.588397 0.353131
H20 H 0.216695 0.661743 0.305449
C16 C 0.38103(19) 0.3142(2) 0.4607(2)
H21 H 0.416098 0.280005 0.478775
H22 H 0.345734 0.279325 0.455429
C17 C 0.4704(2) 0.1922(4) 0.0032(3)
C18 C 0.2020(2) 0.4307(3) 0.3156(3)
C19 C 0.6310(2) 0.0170(3) 0.0399(3)
C20 C 0.4894(2) 0.1365(3) 0.0629(4)
C21 C 0.4591(2) 0.1350(3) 0.1203(5)
H24 H 0.470669 0.099050 0.160918
C22 C 0.4761(2) 0.5412(3) 0.3414(3)
H25 H 0.475175 0.502790 0.299913
H26 H 0.517478 0.557837 0.360551
C23 C 0.6804(2) 0.0374(3) 0.0115(3)
C24 C 0.4380(3) 0.6144(3) 0.3146(3)
H28 H 0.438069 0.652263 0.356229
H29 H 0.453054 0.642870 0.275037
C25 C 0.5803(2) 0.0778(3) 0.0274(3)
C26 C 0.5407(2) 0.0776(3) 0.0713(4)
H31 H 0.544992 0.038564 0.109848
H32 H 0.373(3) 0.468(4) 0.078(4)
Cd4 Cd 0.19039(2) 0.82073(2) 0.43384(2)
Cd5 Cd 0.30961(2) 0.67927(2) 0.56616(2)
O12 O 0.23742(13) 0.20739(17) 0.06107(15)
N5 N 0.22990(14) 0.4110(2) 0.05715(18)
H12 H 0.408511 0.280269 0.965037
H23 H 0.490285 0.195040 0.963043
H27 H 0.681430 0.086743 0.985673
H30 H 0.576851 0.115918 0.988223
O13 O 0.26258(13) 0.29261(17) 0.93893(15)
N1 N 0.27010(14) 0.9110(2) 0.44285(18)
C11 C 0.3683(2) 0.9423(3) 0.4223(3)
H14 H 0.400994 0.926704 0.401790
C13 C 0.31803(18) 0.8907(3) 0.4153(3)
H17 H 0.318234 0.840525 0.390615
C14 C 0.2713(2) 0.9842(3) 0.4787(2)
H18 H 0.237827 0.999464 0.497631
H11_2 H 0.021784 0.926735 0.419196
C11_2 C 0.1317(2) 0.4423(3) 0.0777(3)
H14_2 H 0.099006 0.426704 0.098210
C13_2 C 0.18197(18) 0.3907(3) 0.0847(3)
H17_2 H 0.181766 0.340525 0.109385
C14_2 C 0.2287(2) 0.4842(3) 0.0213(2)
H18_2 H 0.262173 0.499464 0.002369
C19_2 C 0.1310(2) 0.5170(3) 0.0399(3)
C23_2 C 0.1804(2) 0.5374(3) 0.0115(3)
C25_2 C 0.0803(2) 0.5778(3) 0.0274(3)
C26_2 C 0.0407(2) 0.5776(3) 0.0713(4)
H31_2 H 0.044992 0.538564 0.109848
O2_2 O 0.17501(13) 0.10532(17) 0.07039(16)
O7_2 O 0.04800(14) 0.00327(19) 0.09932(18)
O9_2 O 0.12101(17) 0.0842(2) 0.21396(19)
N3_2 N 0.24288(19) 0.0562(2) 0.21232(19)
C3_2 C 0.22222(18) 0.1448(2) 0.0951(2)
C5_2 C 0.2222(3) 0.0995(3) 0.2746(2)
H4_2 H 0.252900 0.138317 0.298290
H5_2 H 0.216670 0.059885 0.312861
H7_2 H 0.327192 0.022854 0.261361
C12_2 C 0.1642(3) 0.1447(3) 0.2465(3)
H15_2 H 0.151406 0.172566 0.288165
H16_2 H 0.168995 0.185345 0.208775
C15_2 C 0.2672(2) 0.1146(3) 0.1640(2)
H19_2 H 0.300420 0.088397 0.146869
H20_2 H 0.283305 0.161743 0.194551
C22_2 C 0.0239(2) 0.0412(3) 0.1586(3)
H25_2 H 0.024825 0.002790 0.200087
C24_2 C 0.0620(3) 0.1144(3) 0.1854(3)
H28_2 H 0.061931 0.152263 0.143771
H29_2 H 0.046946 0.142870 0.224963
Cd5_2 Cd 0.19039(2) 0.17927(2) 0.93384(2)
Cd2_2 Cd 0.16042(2) 0.98199(2) 0.13256(2)
O3_2 O 0.12659(13) 0.93135(18) 0.39345(16)
H1_2 H 0.131919 0.949278 0.350119
O4_2 O 0.17796(14) 0.79216(18) 0.30839(16)
O5_2 O 0.16147(15) 0.91546(18) 0.25329(16)
O6_2 O 0.13550(13) 0.95245(17) 0.00170(15)
O10_2 O 0.25315(15) 0.91364(19) 0.13200(17)
N2_2 N 0.10823(15) 0.7407(2) 0.4387(2)
N4_2 N 0.11566(15) 0.8469(2) 0.11464(18)
C1_2 C 0.14854(19) 0.7941(2) 0.1757(2)
H2_2 H 0.185623 0.775593 0.162382
H3_2 H 0.124384 0.745913 0.180397
C4_2 C 0.16340(18) 0.8386(2) 0.2518(2)
C6_2 C 0.2893(2) 0.9948(3) 0.2429(3)
H6_2 H 0.278078 0.967204 0.285635
C7_2 C 0.05259(18) 0.8561(3) 0.1235(2)
H8_2 H 0.052372 0.866518 0.176528
H9_2 H 0.031194 0.804995 0.109221
C8_2 C 0.01990(19) 0.9255(3) 0.0757(2)
H10_2 H 0.020523 0.915916 0.022708
C9_2 C 0.07893(19) 0.7434(3) 0.4953(3)
H12_2 H 0.091489 0.780269 0.534963
C10_2 C 0.0888(2) 0.6870(3) 0.3820(4)
H13_2 H 0.109079 0.685095 0.342136
O11_2 O 0.3484(2) 0.8972(3) 0.1940(3)
C16_2 C 0.11897(19) 0.8142(2) 0.0393(2)
H21_2 H 0.083902 0.780005 0.021225
H22_2 H 0.154266 0.779325 0.044571
C17_2 C 0.0296(2) 0.6922(4) 0.4968(3)
H23_2 H 0.009715 0.695040 0.536957
C18_2 C 0.2980(2) 0.9307(3) 0.1844(3)
C20_2 C 0.0106(2) 0.6365(3) 0.4371(4)
C21_2 C 0.0409(2) 0.6350(3) 0.3797(5)
H24_2 H 0.029331 0.599050 0.339082
H32_2 H 0.127(3) 0.968(4) 0.422(4)
O13_2 O 0.23742(13) 0.79261(17) 0.56107(15)
N1_2 N 0.27010(14) 0.0890(2) 0.94285(18)
C11_3 C 0.3683(2) 0.0577(3) 0.9223(3)
H14_3 H 0.400994 0.073296 0.901790
C13_3 C 0.31803(18) 0.1093(3) 0.9153(3)
H17_3 H 0.318234 0.159475 0.890615
C14_3 C 0.2713(2) 0.0158(3) 0.9787(2)
H18_3 H 0.237827 0.000536 0.997631
O8_2 O 0.3877(2) 0.6432(2) 0.0870(2)
C2_2 C 0.37794(18) 0.6204(2) 0.0202(2)
Cd2_3 Cd 0.33958(2) 0.51801(2) 0.86744(2)
O2_3 O 0.32499(13) 0.39468(17) 0.92961(16)
O3_3 O 0.37341(13) 0.56865(18) 0.60655(16)
H1_3 H 0.368081 0.550722 0.649881
O4_3 O 0.32204(14) 0.70784(18) 0.69161(16)
O5_3 O 0.33853(15) 0.58454(18) 0.74671(16)
O6_3 O 0.36450(13) 0.54755(17) 0.99830(15)
O7_3 O 0.45200(14) 0.49673(19) 0.90068(18)
O9_3 O 0.37899(17) 0.4158(2) 0.78604(19)
O10_3 O 0.24685(15) 0.58636(19) 0.86800(17)
N2_3 N 0.39177(15) 0.7593(2) 0.5613(2)
N3_3 N 0.25712(19) 0.4438(2) 0.78768(19)
N4_3 N 0.38434(15) 0.6531(2) 0.88536(18)
C1_3 C 0.35146(19) 0.7059(2) 0.8243(2)
H2_3 H 0.314377 0.724407 0.837618
H3_3 H 0.375616 0.754087 0.819603
C3_3 C 0.27778(18) 0.3552(2) 0.9049(2)
C4_3 C 0.33660(18) 0.6614(2) 0.7482(2)
C5_3 C 0.2778(3) 0.4005(3) 0.7254(2)
H4_3 H 0.247100 0.361683 0.701710
H5_3 H 0.283330 0.440115 0.687139
C6_3 C 0.2107(2) 0.5052(3) 0.7571(3)
H6_3 H 0.221922 0.532796 0.714365
H7_3 H 0.172808 0.477146 0.738639
C7_3 C 0.44741(18) 0.6439(3) 0.8765(2)
H8_3 H 0.447628 0.633482 0.823472
H9_3 H 0.468806 0.695005 0.890779
C8_3 C 0.48010(19) 0.5745(3) 0.9243(2)
H10_3 H 0.479477 0.584084 0.977292
H11_3 H 0.521784 0.573265 0.919196
C9_3 C 0.42107(19) 0.7566(3) 0.5047(3)
H12_3 H 0.408511 0.719731 0.465037
C10_3 C 0.4112(2) 0.8130(3) 0.6180(4)
H13_3 H 0.390921 0.814905 0.657864
C12_3 C 0.3358(3) 0.3553(3) 0.7535(3)
H15_3 H 0.348594 0.327434 0.711835
H16_3 H 0.331005 0.314655 0.791225
O11_3 O 0.1516(2) 0.6028(3) 0.8060(3)
C15_3 C 0.2328(2) 0.3854(3) 0.8360(2)
H19_3 H 0.199580 0.411603 0.853131
H20_3 H 0.216695 0.338257 0.805449
C16_3 C 0.38103(19) 0.6858(2) 0.9607(2)
H21_3 H 0.416098 0.719995 0.978775
H22_3 H 0.345734 0.720675 0.955429
C17_3 C 0.4704(2) 0.8078(4) 0.5032(3)
H23_3 H 0.490285 0.804960 0.463043
C18_3 C 0.2020(2) 0.5693(3) 0.8156(3)
C19_3 C 0.6310(2) 0.9830(3) 0.5399(3)
C20_3 C 0.4894(2) 0.8635(3) 0.5629(4)
C21_3 C 0.4591(2) 0.8650(3) 0.6203(5)
H24_3 H 0.470669 0.900950 0.660918
C22_3 C 0.4761(2) 0.4588(3) 0.8414(3)
H25_3 H 0.475175 0.497210 0.799913
H26_2 H 0.517478 0.442163 0.860551
C23_3 C 0.6804(2) 0.9626(3) 0.5115(3)
H27_2 H 0.681430 0.913257 0.485673
C24_3 C 0.4380(3) 0.3856(3) 0.8146(3)
H28_3 H 0.438069 0.347737 0.856229
H29_3 H 0.453054 0.357130 0.775037
C25_3 C 0.5803(2) 0.9222(3) 0.5274(3)
H30_2 H 0.576851 0.884082 0.488223
C26_3 C 0.5407(2) 0.9224(3) 0.5713(4)
H31_3 H 0.544992 0.961436 0.609848
H32_3 H 0.373(3) 0.532(4) 0.578(4)
N5_2 N 0.22990(14) 0.5890(2) 0.55715(18)
H12_4 H 0.091489 0.219731 0.034963
H23_4 H 0.009715 0.304960 0.036957
Cd2_4 Cd 0.16042(2) 0.01801(2) 0.63256(2)
O3_4 O 0.12659(13) 0.06865(18) 0.89345(16)
H1_4 H 0.131919 0.050722 0.850119
O4_4 O 0.17796(14) 0.20784(18) 0.80839(16)
O5_4 O 0.16147(15) 0.08454(18) 0.75329(16)
O6_4 O 0.13550(13) 0.04755(17) 0.50170(15)
O8_3 O 0.1123(2) 0.1432(2) 0.4130(2)
O10_4 O 0.25315(15) 0.08636(19) 0.63200(17)
N2_4 N 0.10823(15) 0.2593(2) 0.9387(2)
N4_4 N 0.11566(15) 0.1531(2) 0.61464(18)
C1_4 C 0.14854(19) 0.2059(2) 0.6757(2)
H2_4 H 0.185623 0.224407 0.662382
H3_4 H 0.124384 0.254087 0.680397
C2_3 C 0.12206(18) 0.1204(2) 0.4798(2)
C4_4 C 0.16340(18) 0.1614(2) 0.7518(2)
C6_4 C 0.2893(2) 0.0052(3) 0.7429(3)
H6_4 H 0.278078 0.032796 0.785635
C7_4 C 0.05259(18) 0.1439(3) 0.6235(2)
H8_4 H 0.052372 0.133482 0.676528
H9_4 H 0.031194 0.195005 0.609221
C8_4 C 0.01990(19) 0.0745(3) 0.5757(2)
H10_4 H 0.020523 0.084084 0.522708
C9_4 C 0.07893(19) 0.2566(3) 0.9953(3)
C10_4 C 0.0888(2) 0.3130(3) 0.8820(4)
H13_4 H 0.109079 0.314905 0.842136
O11_4 O 0.3484(2) 0.1028(3) 0.6940(3)
C16_4 C 0.11897(19) 0.1858(2) 0.5393(2)
H21_4 H 0.083902 0.219995 0.521225
H22_4 H 0.154266 0.220675 0.544571
C17_4 C 0.0296(2) 0.3078(4) 0.9968(3)
C18_4 C 0.2980(2) 0.0693(3) 0.6844(3)
C20_4 C 0.0106(2) 0.3635(3) 0.9371(4)
C21_4 C 0.0409(2) 0.3650(3) 0.8797(5)
H24_4 H 0.029331 0.400950 0.839082
H32_4 H 0.127(3) 0.032(4) 0.922(4)
O2_4 O 0.17501(13) 0.89468(17) 0.57039(16)
O7_4 O 0.04800(14) 0.99673(19) 0.59932(18)
O9_4 O 0.12101(17) 0.9158(2) 0.71396(19)
N3_4 N 0.24288(19) 0.9438(2) 0.71232(19)
C3_4 C 0.22222(18) 0.8552(2) 0.5951(2)
C5_4 C 0.2222(3) 0.9005(3) 0.7746(2)
H4_4 H 0.252900 0.861683 0.798290
H5_4 H 0.216670 0.940115 0.812861
H7_4 H 0.327192 0.977146 0.761361
C12_4 C 0.1642(3) 0.8553(3) 0.7465(3)
H15_4 H 0.151406 0.827434 0.788165
H16_4 H 0.168995 0.814655 0.708775
C15_4 C 0.2672(2) 0.8854(3) 0.6640(2)
H19_4 H 0.300420 0.911603 0.646869
H20_4 H 0.283305 0.838257 0.694551
C22_4 C 0.0239(2) 0.9588(3) 0.6586(3)
H25_4 H 0.024825 0.997210 0.700087
C24_4 C 0.0620(3) 0.8856(3) 0.6854(3)
H28_4 H 0.061931 0.847737 0.643771
H29_4 H 0.046946 0.857130 0.724963
H11_4 H 0.021784 0.073265 0.919196
C11_4 C 0.1317(2) 0.5577(3) 0.5777(3)
H14_4 H 0.099006 0.573296 0.598210
C13_4 C 0.18197(18) 0.6093(3) 0.5847(3)
H17_4 H 0.181766 0.659475 0.609385
C14_4 C 0.2287(2) 0.5158(3) 0.5213(2)
H18_4 H 0.262173 0.500536 0.502369
C19_4 C 0.1310(2) 0.4830(3) 0.5399(3)
C23_4 C 0.1804(2) 0.4626(3) 0.5115(3)
H27_3 H 0.181430 0.413257 0.485673
C25_4 C 0.0803(2) 0.4222(3) 0.5274(3)
H30_3 H 0.076851 0.384082 0.488223
C26_4 C 0.0407(2) 0.4224(3) 0.5713(4)
H31_4 H 0.044992 0.461436 0.609848
N1_3 N 0.72990(14) 0.9110(2) 0.05715(18)
C11_5 C 0.6317(2) 0.9423(3) 0.0777(3)
H14_5 H 0.599006 0.926704 0.098210
C13_5 C 0.68197(18) 0.8907(3) 0.0847(3)
H17_5 H 0.681766 0.840525 0.109385
C14_5 C 0.7287(2) 0.9842(3) 0.0213(2)
H18_5 H 0.762173 0.999464 0.002369
Cd3 Cd 0.80961(2) 0.82073(2) 0.06616(2)
Cd1_2 Cd 0.69039(2) 0.32073(2) 0.43384(2)
Cd2_5 Cd 0.66042(2) 0.48199(2) 0.13256(2)
O1_2 O 0.73742(13) 0.70739(17) 0.06107(15)
O2_5 O 0.67501(13) 0.60532(17) 0.07039(16)
O3_5 O 0.62659(13) 0.43135(18) 0.39345(16)
H1_5 H 0.631919 0.449278 0.350119
O4_5 O 0.67796(14) 0.29216(18) 0.30839(16)
O5_5 O 0.66147(15) 0.41546(18) 0.25329(16)
O6_5 O 0.63550(13) 0.45245(17) 0.00170(15)
O7_5 O 0.54800(14) 0.50327(19) 0.09932(18)
O9_5 O 0.62101(17) 0.5842(2) 0.21396(19)
O10_5 O 0.75315(15) 0.41364(19) 0.13200(17)
N2_5 N 0.60823(15) 0.2407(2) 0.4387(2)
N3_5 N 0.74288(19) 0.5562(2) 0.21232(19)
N4_5 N 0.61566(15) 0.3469(2) 0.11464(18)
C1_5 C 0.64854(19) 0.2941(2) 0.1757(2)
H2_5 H 0.685623 0.275593 0.162382
H3_5 H 0.624384 0.245913 0.180397
C3_5 C 0.72222(18) 0.6448(2) 0.0951(2)
C4_5 C 0.66340(18) 0.3386(2) 0.2518(2)
C5_5 C 0.7222(3) 0.5995(3) 0.2746(2)
H4_5 H 0.752900 0.638317 0.298290
H5_5 H 0.716670 0.559885 0.312861
C6_5 C 0.7893(2) 0.4948(3) 0.2429(3)
H6_5 H 0.778078 0.467204 0.285635
H7_5 H 0.827192 0.522854 0.261361
C7_5 C 0.55259(18) 0.3561(3) 0.1235(2)
H8_5 H 0.552372 0.366518 0.176528
H9_5 H 0.531194 0.304995 0.109221
C8_5 C 0.51990(19) 0.4255(3) 0.0757(2)
H10_5 H 0.520523 0.415916 0.022708
H11_5 H 0.478216 0.426735 0.080804
C9_5 C 0.57893(19) 0.2434(3) 0.4953(3)
H12_5 H 0.591489 0.280269 0.534963
C10_5 C 0.5888(2) 0.1870(3) 0.3820(4)
H13_5 H 0.609079 0.185095 0.342136
C12_5 C 0.6642(3) 0.6447(3) 0.2465(3)
H15_5 H 0.651406 0.672566 0.288165
H16_5 H 0.668995 0.685345 0.208775
O11_5 O 0.8484(2) 0.3972(3) 0.1940(3)
C15_5 C 0.7672(2) 0.6146(3) 0.1640(2)
H19_5 H 0.800420 0.588397 0.146869
H20_5 H 0.783305 0.661743 0.194551
C16_5 C 0.61897(19) 0.3142(2) 0.0393(2)
H21_5 H 0.583902 0.280005 0.021225
H22_5 H 0.654266 0.279325 0.044571
C17_5 C 0.5296(2) 0.1922(4) 0.4968(3)
H23_5 H 0.509715 0.195040 0.536957
C18_5 C 0.7980(2) 0.4307(3) 0.1844(3)
C19_5 C 0.3690(2) 0.0170(3) 0.4601(3)
C20_5 C 0.5106(2) 0.1365(3) 0.4371(4)
C21_5 C 0.5409(2) 0.1350(3) 0.3797(5)
H24_5 H 0.529331 0.099050 0.339082
C22_5 C 0.5239(2) 0.5412(3) 0.1586(3)
H25_5 H 0.524825 0.502790 0.200087
H26_3 H 0.482522 0.557837 0.139449
C23_5 C 0.3196(2) 0.0374(3) 0.4885(3)
H27_4 H 0.318570 0.086743 0.514327
C24_5 C 0.5620(3) 0.6144(3) 0.1854(3)
H28_5 H 0.561931 0.652263 0.143771
H29_5 H 0.546946 0.642870 0.224963
C25_5 C 0.4197(2) 0.0778(3) 0.4726(3)
H30_4 H 0.423149 0.115918 0.511777
C26_5 C 0.4593(2) 0.0776(3) 0.4287(4)
H31_5 H 0.455008 0.038564 0.390152
H32_5 H 0.627(3) 0.468(4) 0.422(4)
O12_2 O 0.76258(13) 0.20739(17) 0.43893(15)
O13_3 O 0.73742(13) 0.29261(17) 0.56107(15)
N5_3 N 0.77010(14) 0.4110(2) 0.44285(18)
O8_4 O 0.6123(2) 0.3568(2) 0.9130(2)
C2_4 C 0.62206(18) 0.3796(2) 0.9798(2)
Cd5_3 Cd 0.69039(2) 0.67927(2) 0.93384(2)
O2_6 O 0.82499(13) 0.10532(17) 0.42961(16)
O7_6 O 0.95200(14) 0.00327(19) 0.40068(18)
O9_6 O 0.87899(17) 0.0842(2) 0.28604(19)
N3_6 N 0.75712(19) 0.0562(2) 0.28768(19)
C3_6 C 0.77778(18) 0.1448(2) 0.4049(2)
C5_6 C 0.7778(3) 0.0995(3) 0.2254(2)
H4_6 H 0.747100 0.138317 0.201710
H5_6 H 0.783330 0.059885 0.187139
H7_6 H 0.672808 0.022854 0.238639
C12_6 C 0.8358(3) 0.1447(3) 0.2535(3)
H15_6 H 0.848594 0.172566 0.211835
H16_6 H 0.831005 0.185345 0.291225
C15_6 C 0.7328(2) 0.1146(3) 0.3360(2)
H19_6 H 0.699580 0.088397 0.353131
H20_6 H 0.716695 0.161743 0.305449
C22_6 C 0.9761(2) 0.0412(3) 0.3414(3)
H25_6 H 0.975175 0.002790 0.299913
C24_6 C 0.9380(3) 0.1144(3) 0.3146(3)
H28_6 H 0.938069 0.152263 0.356229
H29_6 H 0.953054 0.142870 0.275037
Cd5_4 Cd 0.80961(2) 0.17927(2) 0.56616(2)
Cd2_6 Cd 0.83958(2) 0.98199(2) 0.36744(2)
O3_6 O 0.87341(13) 0.93135(18) 0.10655(16)
H1_6 H 0.868081 0.949278 0.149881
O4_6 O 0.82204(14) 0.79216(18) 0.19161(16)
O5_6 O 0.83853(15) 0.91546(18) 0.24671(16)
O6_6 O 0.86450(13) 0.95245(17) 0.49830(15)
O8_5 O 0.8877(2) 0.8568(2) 0.5870(2)
O10_6 O 0.74685(15) 0.91364(19) 0.36800(17)
N2_6 N 0.89177(15) 0.7407(2) 0.0613(2)
N4_6 N 0.88434(15) 0.8469(2) 0.38536(18)
C1_6 C 0.85146(19) 0.7941(2) 0.3243(2)
H2_6 H 0.814377 0.775593 0.337618
H3_6 H 0.875616 0.745913 0.319603
C2_5 C 0.87794(18) 0.8796(2) 0.5202(2)
C4_6 C 0.83660(18) 0.8386(2) 0.2482(2)
C6_6 C 0.7107(2) 0.9948(3) 0.2571(3)
H6_6 H 0.721922 0.967204 0.214365
C7_6 C 0.94741(18) 0.8561(3) 0.3765(2)
H8_6 H 0.947628 0.866518 0.323472
H9_6 H 0.968806 0.804995 0.390779
C8_6 C 0.98010(19) 0.9255(3) 0.4243(2)
H10_6 H 0.979477 0.915916 0.477292
C9_6 C 0.92107(19) 0.7434(3) 0.0047(3)
C10_6 C 0.9112(2) 0.6870(3) 0.1180(4)
H13_6 H 0.890921 0.685095 0.157864
O11_6 O 0.6516(2) 0.8972(3) 0.3060(3)
C16_6 C 0.88103(19) 0.8142(2) 0.4607(2)
H21_6 H 0.916098 0.780005 0.478775
H22_6 H 0.845734 0.779325 0.455429
C17_6 C 0.9704(2) 0.6922(4) 0.0032(3)
C18_6 C 0.7020(2) 0.9307(3) 0.3156(3)
C20_6 C 0.9894(2) 0.6365(3) 0.0629(4)
C21_6 C 0.9591(2) 0.6350(3) 0.1203(5)
H24_6 H 0.970669 0.599050 0.160918
H32_6 H 0.873(3) 0.968(4) 0.078(4)
H12_6 H 0.908511 0.780269 0.965037
H23_6 H 0.990285 0.695040 0.963043
O13_4 O 0.76258(13) 0.79261(17) 0.93893(15)
H11_6 H 0.978216 0.926735 0.080804
C11_6 C 0.8683(2) 0.4423(3) 0.4223(3)
H14_6 H 0.900994 0.426704 0.401790
C13_6 C 0.81803(18) 0.3907(3) 0.4153(3)
H17_6 H 0.818234 0.340525 0.390615
C14_6 C 0.7713(2) 0.4842(3) 0.4787(2)
H18_6 H 0.737827 0.499464 0.497631
C19_6 C 0.8690(2) 0.5170(3) 0.4601(3)
C23_6 C 0.8196(2) 0.5374(3) 0.4885(3)
H27_5 H 0.818570 0.586743 0.514327
C25_6 C 0.9197(2) 0.5778(3) 0.4726(3)
H30_5 H 0.923149 0.615918 0.511777
C26_6 C 0.9593(2) 0.5776(3) 0.4287(4)
H31_6 H 0.955008 0.538564 0.390152
H12_7 H 0.591489 0.719731 0.034963
H23_7 H 0.509715 0.804960 0.036957
H27_6 H 0.318570 0.913257 0.014327
H30_6 H 0.423149 0.884082 0.011777
Cd2_7 Cd 0.66042(2) 0.51801(2) 0.63256(2)
O2_7 O 0.67501(13) 0.39468(17) 0.57039(16)
O3_7 O 0.62659(13) 0.56865(18) 0.89345(16)
H1_7 H 0.631919 0.550722 0.850119
O4_7 O 0.67796(14) 0.70784(18) 0.80839(16)
O5_7 O 0.66147(15) 0.58454(18) 0.75329(16)
O6_7 O 0.63550(13) 0.54755(17) 0.50170(15)
O7_7 O 0.54800(14) 0.49673(19) 0.59932(18)
O8_6 O 0.6123(2) 0.6432(2) 0.4130(2)
O9_7 O 0.62101(17) 0.4158(2) 0.71396(19)
O10_7 O 0.75315(15) 0.58636(19) 0.63200(17)
N2_7 N 0.60823(15) 0.7593(2) 0.9387(2)
N3_7 N 0.74288(19) 0.4438(2) 0.71232(19)
N4_7 N 0.61566(15) 0.6531(2) 0.61464(18)
C1_7 C 0.64854(19) 0.7059(2) 0.6757(2)
H2_7 H 0.685623 0.724407 0.662382
H3_7 H 0.624384 0.754087 0.680397
C2_6 C 0.62206(18) 0.6204(2) 0.4798(2)
C3_7 C 0.72222(18) 0.3552(2) 0.5951(2)
C4_7 C 0.66340(18) 0.6614(2) 0.7518(2)
C5_7 C 0.7222(3) 0.4005(3) 0.7746(2)
H4_7 H 0.752900 0.361683 0.798290
H5_7 H 0.716670 0.440115 0.812861
C6_7 C 0.7893(2) 0.5052(3) 0.7429(3)
H6_7 H 0.778078 0.532796 0.785635
H7_7 H 0.827192 0.477146 0.761361
C7_7 C 0.55259(18) 0.6439(3) 0.6235(2)
H8_7 H 0.552372 0.633482 0.676528
H9_7 H 0.531194 0.695005 0.609221
C8_7 C 0.51990(19) 0.5745(3) 0.5757(2)
H10_7 H 0.520523 0.584084 0.522708
H11_7 H 0.478216 0.573265 0.580804
C9_7 C 0.57893(19) 0.7566(3) 0.9953(3)
C10_7 C 0.5888(2) 0.8130(3) 0.8820(4)
H13_7 H 0.609079 0.814905 0.842136
C12_7 C 0.6642(3) 0.3553(3) 0.7465(3)
H15_7 H 0.651406 0.327434 0.788165
H16_7 H 0.668995 0.314655 0.708775
O11_7 O 0.8484(2) 0.6028(3) 0.6940(3)
C15_7 C 0.7672(2) 0.3854(3) 0.6640(2)
H19_7 H 0.800420 0.411603 0.646869
H20_7 H 0.783305 0.338257 0.694551
C16_7 C 0.61897(19) 0.6858(2) 0.5393(2)
H21_7 H 0.583902 0.719995 0.521225
H22_7 H 0.654266 0.720675 0.544571
C17_7 C 0.5296(2) 0.8078(4) 0.9968(3)
C18_7 C 0.7980(2) 0.5693(3) 0.6844(3)
C19_7 C 0.3690(2) 0.9830(3) 0.9601(3)
C20_7 C 0.5106(2) 0.8635(3) 0.9371(4)
C21_7 C 0.5409(2) 0.8650(3) 0.8797(5)
H24_7 H 0.529331 0.900950 0.839082
C22_7 C 0.5239(2) 0.4588(3) 0.6586(3)
H25_7 H 0.524825 0.497210 0.700087
H26_4 H 0.482522 0.442163 0.639449
C23_7 C 0.3196(2) 0.9626(3) 0.9885(3)
C24_7 C 0.5620(3) 0.3856(3) 0.6854(3)
H28_7 H 0.561931 0.347737 0.643771
H29_7 H 0.546946 0.357130 0.724963
C25_7 C 0.4197(2) 0.9222(3) 0.9726(3)
C26_7 C 0.4593(2) 0.9224(3) 0.9287(4)
H31_7 H 0.455008 0.961436 0.890152
H32_7 H 0.627(3) 0.532(4) 0.922(4)
N5_4 N 0.77010(14) 0.5890(2) 0.94285(18)
N1_4 N 0.72990(14) 0.0890(2) 0.55715(18)
C11_7 C 0.6317(2) 0.0577(3) 0.5777(3)
H14_7 H 0.599006 0.073296 0.598210
C13_7 C 0.68197(18) 0.1093(3) 0.5847(3)
H17_7 H 0.681766 0.159475 0.609385
C14_7 C 0.7287(2) 0.0158(3) 0.5213(2)
H18_7 H 0.762173 0.000536 0.502369
H11_8 H 0.978216 0.073265 0.580804
C11_8 C 0.8683(2) 0.5577(3) 0.9223(3)
H14_8 H 0.900994 0.573296 0.901790
C13_8 C 0.81803(18) 0.6093(3) 0.9153(3)
H17_8 H 0.818234 0.659475 0.890615
C14_8 C 0.7713(2) 0.5158(3) 0.9787(2)
H18_8 H 0.737827 0.500536 0.997631
C19_8 C 0.8690(2) 0.4830(3) 0.9601(3)
C23_8 C 0.8196(2) 0.4626(3) 0.9885(3)
C25_8 C 0.9197(2) 0.4222(3) 0.9726(3)
C26_8 C 0.9593(2) 0.4224(3) 0.9287(4)
H31_8 H 0.955008 0.461436 0.890152
Cd2_8 Cd 0.83958(2) 0.01801(2) 0.86744(2)
O3_8 O 0.87341(13) 0.06865(18) 0.60655(16)
H1_8 H 0.868081 0.050722 0.649881
O4_8 O 0.82204(14) 0.20784(18) 0.69161(16)
O5_8 O 0.83853(15) 0.08454(18) 0.74671(16)
O6_8 O 0.86450(13) 0.04755(17) 0.99830(15)
O10_8 O 0.74685(15) 0.08636(19) 0.86800(17)
N2_8 N 0.89177(15) 0.2593(2) 0.5613(2)
N4_8 N 0.88434(15) 0.1531(2) 0.88536(18)
C1_8 C 0.85146(19) 0.2059(2) 0.8243(2)
H2_8 H 0.814377 0.224407 0.837618
H3_8 H 0.875616 0.254087 0.819603
C4_8 C 0.83660(18) 0.1614(2) 0.7482(2)
C6_8 C 0.7107(2) 0.0052(3) 0.7571(3)
H6_8 H 0.721922 0.032796 0.714365
C7_8 C 0.94741(18) 0.1439(3) 0.8765(2)
H8_8 H 0.947628 0.133482 0.823472
H9_8 H 0.968806 0.195005 0.890779
C8_8 C 0.98010(19) 0.0745(3) 0.9243(2)
H10_8 H 0.979477 0.084084 0.977292
C9_8 C 0.92107(19) 0.2566(3) 0.5047(3)
H12_8 H 0.908511 0.219731 0.465037
C10_8 C 0.9112(2) 0.3130(3) 0.6180(4)
H13_8 H 0.890921 0.314905 0.657864
O11_8 O 0.6516(2) 0.1028(3) 0.8060(3)
C16_8 C 0.88103(19) 0.1858(2) 0.9607(2)
H21_8 H 0.916098 0.219995 0.978775
H22_8 H 0.845734 0.220675 0.955429
C17_8 C 0.9704(2) 0.3078(4) 0.5032(3)
H23_8 H 0.990285 0.304960 0.463043
C18_8 C 0.7020(2) 0.0693(3) 0.8156(3)
C20_8 C 0.9894(2) 0.3635(3) 0.5629(4)
C21_8 C 0.9591(2) 0.3650(3) 0.6203(5)
H24_8 H 0.970669 0.400950 0.660918
H32_8 H 0.873(3) 0.032(4) 0.578(4)
O2_8 O 0.82499(13) 0.89468(17) 0.92961(16)
O7_8 O 0.95200(14) 0.99673(19) 0.90068(18)
O9_8 O 0.87899(17) 0.9158(2) 0.78604(19)
N3_8 N 0.75712(19) 0.9438(2) 0.78768(19)
C3_8 C 0.77778(18) 0.8552(2) 0.9049(2)
C5_8 C 0.7778(3) 0.9005(3) 0.7254(2)
H4_8 H 0.747100 0.861683 0.701710
H5_8 H 0.783330 0.940115 0.687139
H7_8 H 0.672808 0.977146 0.738639
C12_8 C 0.8358(3) 0.8553(3) 0.7535(3)
H15_8 H 0.848594 0.827434 0.711835
H16_8 H 0.831005 0.814655 0.791225
C15_8 C 0.7328(2) 0.8854(3) 0.8360(2)
H19_8 H 0.699580 0.911603 0.853131
H20_8 H 0.716695 0.838257 0.805449
C22_8 C 0.9761(2) 0.9588(3) 0.8414(3)
H25_8 H 0.975175 0.997210 0.799913
C24_8 C 0.9380(3) 0.8856(3) 0.8146(3)
H28_8 H 0.938069 0.847737 0.856229
H29_8 H 0.953054 0.857130 0.775037
H26_5 H 0.017478 0.057837 0.360551
H27_7 H 0.181430 0.586743 0.985673
H30_7 H 0.076851 0.615918 0.988223
O8_7 O 0.1123(2) 0.8568(2) 0.9130(2)
C2_7 C 0.12206(18) 0.8796(2) 0.9798(2)
H26_6 H 0.982522 0.057837 0.139449
H27_8 H 0.818570 0.413257 0.014327
H30_8 H 0.923149 0.384082 0.011777
H26_7 H 0.982522 0.942163 0.639449
H26_8 H 0.017478 0.942163 0.860551
O8_8 O 0.8877(2) 0.1432(2) 0.0870(2)
C2_8 C 0.87794(18) 0.1204(2) 0.0202(2)
loop_
_geom_bond_atom_site_label_1
_geom_bond_atom_site_label_2
_geom_bond_site_symmetry_1
_geom_bond_site_symmetry_2
Cd1 O3 1_555 1_555
Cd2 O2 1_555 1_555
O1 C3 1_555 1_555
O2 C3 1_555 1_555
O3 H1 1_555 1_555
O4 Cd1 1_555 1_555
O5 Cd2 1_555 1_555
O6 Cd2 1_555 1_555
O7 Cd2 1_555 1_555
O8 C2 1_555 1_555
O9 Cd2 1_555 1_555
O10 Cd2 1_555 1_555
N2 Cd1 1_555 1_555
N3 Cd2 1_555 1_555
N4 Cd2 1_555 1_555
C1 N4 1_555 1_555
H2 C1 1_555 1_555
H3 C1 1_555 1_555
C2 O6 1_555 1_555
C3 C15 1_555 1_555
C4 O4 1_555 1_555
C5 N3 1_555 1_555
H4 C5 1_555 1_555
H5 C5 1_555 1_555
C6 N3 1_555 1_555
H6 C6 1_555 1_555
H7 C6 1_555 1_555
C7 N4 1_555 1_555
H8 C7 1_555 1_555
H9 C7 1_555 1_555
C8 O7 1_555 1_555
H10 C8 1_555 1_555
H11 C8 1_555 1_555
C9 N2 1_555 1_555
C10 N2 1_555 1_555
H13 C10 1_555 1_555
C12 O9 1_555 1_555
H15 C12 1_555 1_555
H16 C12 1_555 1_555
O11 C18 1_555 1_555
C15 N3 1_555 1_555
H19 C15 1_555 1_555
H20 C15 1_555 1_555
C16 N4 1_555 1_555
H21 C16 1_555 1_555
H22 C16 1_555 1_555
C17 C9 1_555 1_555
C18 O10 1_555 1_555
C20 C17 1_555 1_555
C21 C10 1_555 1_555
H24 C21 1_555 1_555
C22 O7 1_555 1_555
H25 C22 1_555 1_555
H26 C22 1_555 1_555
C24 O9 1_555 1_555
H28 C24 1_555 1_555
H29 C24 1_555 1_555
C25 C19 1_555 1_555
C26 C20 1_555 1_555
H31 C26 1_555 1_555
H32 O3 1_555 1_555
Cd4 O1 1_555 1_555
Cd5 O1 1_555 1_555
O12 Cd1 1_555 1_555
N5 Cd1 1_555 1_555
O5 C4 1_555 1_555
C1 C4 1_555 1_555
C2 C16 1_555 1_555
C5 C12 1_555 1_555
C6 C18 1_555 1_555
C7 C8 1_555 1_555
C19 C23 1_555 1_555
C20 C21 1_555 1_555
C22 C24 1_555 1_555
C25 C26 1_555 1_555
N1 C13 1_555 1_555
C11 H14 1_555 1_555
C13 C11 1_555 1_555
H17 C13 1_555 1_555
C14 N1 1_555 1_555
H18 C14 1_555 1_555
Cd4 N1 1_555 1_555
N5 C13_2 1_555 1_555
C11_2 H14_2 1_555 1_555
C13_2 C11_2 1_555 1_555
H17_2 C13_2 1_555 1_555
C14_2 N5 1_555 1_555
H18_2 C14_2 1_555 1_555
C19_2 C11_2 1_555 1_555
C23_2 C14_2 1_555 1_555
C25_2 C19_2 1_555 1_555
H31_2 C26_2 1_555 1_555
C19_2 C23_2 1_555 1_555
C25_2 C26_2 1_555 1_555
O12 C3_2 1_555 1_555
O2_2 C3_2 1_555 1_555
C3_2 C15_2 1_555 1_555
C5_2 N3_2 1_555 1_555
H4_2 C5_2 1_555 1_555
H5_2 C5_2 1_555 1_555
C12_2 O9_2 1_555 1_555
H15_2 C12_2 1_555 1_555
H16_2 C12_2 1_555 1_555
C15_2 N3_2 1_555 1_555
H19_2 C15_2 1_555 1_555
H20_2 C15_2 1_555 1_555
C22_2 O7_2 1_555 1_555
H25_2 C22_2 1_555 1_555
C24_2 O9_2 1_555 1_555
H28_2 C24_2 1_555 1_555
H29_2 C24_2 1_555 1_555
C5_2 C12_2 1_555 1_555
C22_2 C24_2 1_555 1_555
Cd4 O3_2 1_555 1_555
O3_2 H1_2 1_555 1_555
O4_2 Cd4 1_555 1_555
O5_2 Cd2_2 1_555 1_555
O6_2 Cd2_2 1_555 1_555
O10_2 Cd2_2 1_555 1_555
N2_2 Cd4 1_555 1_555
N4_2 Cd2_2 1_555 1_555
C1_2 N4_2 1_555 1_555
H2_2 C1_2 1_555 1_555
H3_2 C1_2 1_555 1_555
C4_2 O4_2 1_555 1_555
H6_2 C6_2 1_555 1_555
C7_2 N4_2 1_555 1_555
H8_2 C7_2 1_555 1_555
H9_2 C7_2 1_555 1_555
H10_2 C8_2 1_555 1_555
C9_2 N2_2 1_555 1_555
H12_2 C9_2 1_555 1_555
C10_2 N2_2 1_555 1_555
H13_2 C10_2 1_555 1_555
O11_2 C18_2 1_555 1_555
C16_2 N4_2 1_555 1_555
H21_2 C16_2 1_555 1_555
H22_2 C16_2 1_555 1_555
C17_2 C9_2 1_555 1_555
H23_2 C17_2 1_555 1_555
C18_2 O10_2 1_555 1_555
C20_2 C17_2 1_555 1_555
C21_2 C10_2 1_555 1_555
H24_2 C21_2 1_555 1_555
H32_2 O3_2 1_555 1_555
O13_2 Cd4 1_555 1_555
O5_2 C4_2 1_555 1_555
C1_2 C4_2 1_555 1_555
C6_2 C18_2 1_555 1_555
C7_2 C8_2 1_555 1_555
C20_2 C21_2 1_555 1_555
N1_2 C13_3 1_555 1_555
C11_3 H14_3 1_555 1_555
C13_3 C11_3 1_555 1_555
H17_3 C13_3 1_555 1_555
C14_3 N1_2 1_555 1_555
H18_3 C14_3 1_555 1_555
Cd5_2 N1_2 1_555 1_555
O8_2 C2_2 1_555 1_555
Cd5 O3_3 1_555 1_555
Cd2_3 O2_3 1_555 1_555
O13 C3_3 1_555 1_555
O2_3 C3_3 1_555 1_555
O3_3 H1_3 1_555 1_555
O4_3 Cd5 1_555 1_555
O5_3 Cd2_3 1_555 1_555
O6_3 Cd2_3 1_555 1_555
O7_3 Cd2_3 1_555 1_555
O9_3 Cd2_3 1_555 1_555
O10_3 Cd2_3 1_555 1_555
N2_3 Cd5 1_555 1_555
N3_3 Cd2_3 1_555 1_555
N4_3 Cd2_3 1_555 1_555
C1_3 N4_3 1_555 1_555
H2_3 C1_3 1_555 1_555
H3_3 C1_3 1_555 1_555
C3_3 C15_3 1_555 1_555
C4_3 O4_3 1_555 1_555
C5_3 N3_3 1_555 1_555
H4_3 C5_3 1_555 1_555
H5_3 C5_3 1_555 1_555
C6_3 N3_3 1_555 1_555
H6_3 C6_3 1_555 1_555
H7_3 C6_3 1_555 1_555
C7_3 N4_3 1_555 1_555
H8_3 C7_3 1_555 1_555
H9_3 C7_3 1_555 1_555
C8_3 O7_3 1_555 1_555
H10_3 C8_3 1_555 1_555
H11_3 C8_3 1_555 1_555
C9_3 N2_3 1_555 1_555
H12_3 C9_3 1_555 1_555
C10_3 N2_3 1_555 1_555
H13_3 C10_3 1_555 1_555
C12_3 O9_3 1_555 1_555
H15_3 C12_3 1_555 1_555
H16_3 C12_3 1_555 1_555
O11_3 C18_3 1_555 1_555
C15_3 N3_3 1_555 1_555
H19_3 C15_3 1_555 1_555
H20_3 C15_3 1_555 1_555
C16_3 N4_3 1_555 1_555
H21_3 C16_3 1_555 1_555
H22_3 C16_3 1_555 1_555
C17_3 C9_3 1_555 1_555
H23_3 C17_3 1_555 1_555
C18_3 O10_3 1_555 1_555
C20_3 C17_3 1_555 1_555
C21_3 C10_3 1_555 1_555
H24_3 C21_3 1_555 1_555
C22_3 O7_3 1_555 1_555
H25_3 C22_3 1_555 1_555
H26_2 C22_3 1_555 1_555
H27_2 C23_3 1_555 1_555
C24_3 O9_3 1_555 1_555
H28_3 C24_3 1_555 1_555
H29_3 C24_3 1_555 1_555
C25_3 C19_3 1_555 1_555
H30_2 C25_3 1_555 1_555
C26_3 C20_3 1_555 1_555
H31_3 C26_3 1_555 1_555
H32_3 O3_3 1_555 1_555
Cd5_2 O13 1_555 1_555
O13_2 Cd5 1_555 1_555
N5_2 Cd5 1_555 1_555
O5_3 C4_3 1_555 1_555
C1_3 C4_3 1_555 1_555
C5_3 C12_3 1_555 1_555
C6_3 C18_3 1_555 1_555
C7_3 C8_3 1_555 1_555
C19_3 C23_3 1_555 1_555
C20_3 C21_3 1_555 1_555
C22_3 C24_3 1_555 1_555
C25_3 C26_3 1_555 1_555
Cd5_2 O3_4 1_555 1_555
O3_4 H1_4 1_555 1_555
O4_4 Cd5_2 1_555 1_555
O5_4 Cd2_4 1_555 1_555
O6_4 Cd2_4 1_555 1_555
O8_3 C2_3 1_555 1_555
O10_4 Cd2_4 1_555 1_555
N2_4 Cd5_2 1_555 1_555
N4_4 Cd2_4 1_555 1_555
C1_4 N4_4 1_555 1_555
H2_4 C1_4 1_555 1_555
H3_4 C1_4 1_555 1_555
C2_3 O6_4 1_555 1_555
C4_4 O4_4 1_555 1_555
H6_4 C6_4 1_555 1_555
C7_4 N4_4 1_555 1_555
H8_4 C7_4 1_555 1_555
H9_4 C7_4 1_555 1_555
H10_4 C8_4 1_555 1_555
C9_4 N2_4 1_555 1_555
C10_4 N2_4 1_555 1_555
H13_4 C10_4 1_555 1_555
O11_4 C18_4 1_555 1_555
C16_4 N4_4 1_555 1_555
H21_4 C16_4 1_555 1_555
H22_4 C16_4 1_555 1_555
C17_4 C9_4 1_555 1_555
C18_4 O10_4 1_555 1_555
C20_4 C17_4 1_555 1_555
C21_4 C10_4 1_555 1_555
H24_4 C21_4 1_555 1_555
H32_4 O3_4 1_555 1_555
O5_4 C4_4 1_555 1_555
C1_4 C4_4 1_555 1_555
C2_3 C16_4 1_555 1_555
C6_4 C18_4 1_555 1_555
C7_4 C8_4 1_555 1_555
C20_4 C21_4 1_555 1_555
O13_2 C3_4 1_555 1_555
O2_4 C3_4 1_555 1_555
C3_4 C15_4 1_555 1_555
C5_4 N3_4 1_555 1_555
H4_4 C5_4 1_555 1_555
H5_4 C5_4 1_555 1_555
C12_4 O9_4 1_555 1_555
H15_4 C12_4 1_555 1_555
H16_4 C12_4 1_555 1_555
C15_4 N3_4 1_555 1_555
H19_4 C15_4 1_555 1_555
H20_4 C15_4 1_555 1_555
C22_4 O7_4 1_555 1_555
H25_4 C22_4 1_555 1_555
C24_4 O9_4 1_555 1_555
H28_4 C24_4 1_555 1_555
H29_4 C24_4 1_555 1_555
C5_4 C12_4 1_555 1_555
C22_4 C24_4 1_555 1_555
N5_2 C13_4 1_555 1_555
C11_4 H14_4 1_555 1_555
C13_4 C11_4 1_555 1_555
H17_4 C13_4 1_555 1_555
C14_4 N5_2 1_555 1_555
H18_4 C14_4 1_555 1_555
C19_4 C11_4 1_555 1_555
C23_4 C14_4 1_555 1_555
H27_3 C23_4 1_555 1_555
C25_4 C19_4 1_555 1_555
H30_3 C25_4 1_555 1_555
H31_4 C26_4 1_555 1_555
C19_4 C23_4 1_555 1_555
C25_4 C26_4 1_555 1_555
N1_3 C13_5 1_555 1_555
C11_5 H14_5 1_555 1_555
C13_5 C11_5 1_555 1_555
H17_5 C13_5 1_555 1_555
C14_5 N1_3 1_555 1_555
H18_5 C14_5 1_555 1_555
Cd3 N1_3 1_555 1_555
Cd1_2 O3_5 1_555 1_555
Cd2_5 O2_5 1_555 1_555
O1_2 C3_5 1_555 1_555
O2_5 C3_5 1_555 1_555
O3_5 H1_5 1_555 1_555
O4_5 Cd1_2 1_555 1_555
O5_5 Cd2_5 1_555 1_555
O6_5 Cd2_5 1_555 1_555
O7_5 Cd2_5 1_555 1_555
O9_5 Cd2_5 1_555 1_555
O10_5 Cd2_5 1_555 1_555
N2_5 Cd1_2 1_555 1_555
N3_5 Cd2_5 1_555 1_555
N4_5 Cd2_5 1_555 1_555
C1_5 N4_5 1_555 1_555
H2_5 C1_5 1_555 1_555
H3_5 C1_5 1_555 1_555
C3_5 C15_5 1_555 1_555
C4_5 O4_5 1_555 1_555
C5_5 N3_5 1_555 1_555
H4_5 C5_5 1_555 1_555
H5_5 C5_5 1_555 1_555
C6_5 N3_5 1_555 1_555
H6_5 C6_5 1_555 1_555
H7_5 C6_5 1_555 1_555
C7_5 N4_5 1_555 1_555
H8_5 C7_5 1_555 1_555
H9_5 C7_5 1_555 1_555
C8_5 O7_5 1_555 1_555
H10_5 C8_5 1_555 1_555
H11_5 C8_5 1_555 1_555
C9_5 N2_5 1_555 1_555
H12_5 C9_5 1_555 1_555
C10_5 N2_5 1_555 1_555
H13_5 C10_5 1_555 1_555
C12_5 O9_5 1_555 1_555
H15_5 C12_5 1_555 1_555
H16_5 C12_5 1_555 1_555
O11_5 C18_5 1_555 1_555
C15_5 N3_5 1_555 1_555
H19_5 C15_5 1_555 1_555
H20_5 C15_5 1_555 1_555
C16_5 N4_5 1_555 1_555
H21_5 C16_5 1_555 1_555
H22_5 C16_5 1_555 1_555
C17_5 C9_5 1_555 1_555
H23_5 C17_5 1_555 1_555
C18_5 O10_5 1_555 1_555
C20_5 C17_5 1_555 1_555
C21_5 C10_5 1_555 1_555
H24_5 C21_5 1_555 1_555
C22_5 O7_5 1_555 1_555
H25_5 C22_5 1_555 1_555
H26_3 C22_5 1_555 1_555
H27_4 C23_5 1_555 1_555
C24_5 O9_5 1_555 1_555
H28_5 C24_5 1_555 1_555
H29_5 C24_5 1_555 1_555
C25_5 C19_5 1_555 1_555
H30_4 C25_5 1_555 1_555
C26_5 C20_5 1_555 1_555
H31_5 C26_5 1_555 1_555
H32_5 O3_5 1_555 1_555
Cd3 O1_2 1_555 1_555
O12_2 Cd1_2 1_555 1_555
O13_3 Cd1_2 1_555 1_555
N5_3 Cd1_2 1_555 1_555
O5_5 C4_5 1_555 1_555
C1_5 C4_5 1_555 1_555
C5_5 C12_5 1_555 1_555
C6_5 C18_5 1_555 1_555
C7_5 C8_5 1_555 1_555
C19_5 C23_5 1_555 1_555
C20_5 C21_5 1_555 1_555
C22_5 C24_5 1_555 1_555
C25_5 C26_5 1_555 1_555
O8_4 C2_4 1_555 1_555
O12_2 C3_6 1_555 1_555
O2_6 C3_6 1_555 1_555
C3_6 C15_6 1_555 1_555
C5_6 N3_6 1_555 1_555
H4_6 C5_6 1_555 1_555
H5_6 C5_6 1_555 1_555
C12_6 O9_6 1_555 1_555
H15_6 C12_6 1_555 1_555
H16_6 C12_6 1_555 1_555
C15_6 N3_6 1_555 1_555
H19_6 C15_6 1_555 1_555
H20_6 C15_6 1_555 1_555
C22_6 O7_6 1_555 1_555
H25_6 C22_6 1_555 1_555
C24_6 O9_6 1_555 1_555
H28_6 C24_6 1_555 1_555
H29_6 C24_6 1_555 1_555
Cd5_4 O12_2 1_555 1_555
C5_6 C12_6 1_555 1_555
C22_6 C24_6 1_555 1_555
Cd3 O3_6 1_555 1_555
O3_6 H1_6 1_555 1_555
O4_6 Cd3 1_555 1_555
O5_6 Cd2_6 1_555 1_555
O6_6 Cd2_6 1_555 1_555
O8_5 C2_5 1_555 1_555
O10_6 Cd2_6 1_555 1_555
N2_6 Cd3 1_555 1_555
N4_6 Cd2_6 1_555 1_555
C1_6 N4_6 1_555 1_555
H2_6 C1_6 1_555 1_555
H3_6 C1_6 1_555 1_555
C2_5 O6_6 1_555 1_555
C4_6 O4_6 1_555 1_555
H6_6 C6_6 1_555 1_555
C7_6 N4_6 1_555 1_555
H8_6 C7_6 1_555 1_555
H9_6 C7_6 1_555 1_555
H10_6 C8_6 1_555 1_555
C9_6 N2_6 1_555 1_555
C10_6 N2_6 1_555 1_555
H13_6 C10_6 1_555 1_555
O11_6 C18_6 1_555 1_555
C16_6 N4_6 1_555 1_555
H21_6 C16_6 1_555 1_555
H22_6 C16_6 1_555 1_555
C17_6 C9_6 1_555 1_555
C18_6 O10_6 1_555 1_555
C20_6 C17_6 1_555 1_555
C21_6 C10_6 1_555 1_555
H24_6 C21_6 1_555 1_555
H32_6 O3_6 1_555 1_555
O5_6 C4_6 1_555 1_555
C1_6 C4_6 1_555 1_555
C2_5 C16_6 1_555 1_555
C6_6 C18_6 1_555 1_555
C7_6 C8_6 1_555 1_555
C20_6 C21_6 1_555 1_555
N5_3 C13_6 1_555 1_555
C11_6 H14_6 1_555 1_555
C13_6 C11_6 1_555 1_555
H17_6 C13_6 1_555 1_555
C14_6 N5_3 1_555 1_555
H18_6 C14_6 1_555 1_555
C19_6 C11_6 1_555 1_555
C23_6 C14_6 1_555 1_555
H27_5 C23_6 1_555 1_555
C25_6 C19_6 1_555 1_555
H30_5 C25_6 1_555 1_555
H31_6 C26_6 1_555 1_555
C19_6 C23_6 1_555 1_555
C25_6 C26_6 1_555 1_555
Cd5_3 O3_7 1_555 1_555
Cd2_7 O2_7 1_555 1_555
O13_3 C3_7 1_555 1_555
O2_7 C3_7 1_555 1_555
O3_7 H1_7 1_555 1_555
O4_7 Cd5_3 1_555 1_555
O5_7 Cd2_7 1_555 1_555
O6_7 Cd2_7 1_555 1_555
O7_7 Cd2_7 1_555 1_555
O8_6 C2_6 1_555 1_555
O9_7 Cd2_7 1_555 1_555
O10_7 Cd2_7 1_555 1_555
N2_7 Cd5_3 1_555 1_555
N3_7 Cd2_7 1_555 1_555
N4_7 Cd2_7 1_555 1_555
C1_7 N4_7 1_555 1_555
H2_7 C1_7 1_555 1_555
H3_7 C1_7 1_555 1_555
C2_6 O6_7 1_555 1_555
C3_7 C15_7 1_555 1_555
C4_7 O4_7 1_555 1_555
C5_7 N3_7 1_555 1_555
H4_7 C5_7 1_555 1_555
H5_7 C5_7 1_555 1_555
C6_7 N3_7 1_555 1_555
H6_7 C6_7 1_555 1_555
H7_7 C6_7 1_555 1_555
C7_7 N4_7 1_555 1_555
H8_7 C7_7 1_555 1_555
H9_7 C7_7 1_555 1_555
C8_7 O7_7 1_555 1_555
H10_7 C8_7 1_555 1_555
H11_7 C8_7 1_555 1_555
C9_7 N2_7 1_555 1_555
C10_7 N2_7 1_555 1_555
H13_7 C10_7 1_555 1_555
C12_7 O9_7 1_555 1_555
H15_7 C12_7 1_555 1_555
H16_7 C12_7 1_555 1_555
O11_7 C18_7 1_555 1_555
C15_7 N3_7 1_555 1_555
H19_7 C15_7 1_555 1_555
H20_7 C15_7 1_555 1_555
C16_7 N4_7 1_555 1_555
H21_7 C16_7 1_555 1_555
H22_7 C16_7 1_555 1_555
C17_7 C9_7 1_555 1_555
C18_7 O10_7 1_555 1_555
C20_7 C17_7 1_555 1_555
C21_7 C10_7 1_555 1_555
H24_7 C21_7 1_555 1_555
C22_7 O7_7 1_555 1_555
H25_7 C22_7 1_555 1_555
H26_4 C22_7 1_555 1_555
C24_7 O9_7 1_555 1_555
H28_7 C24_7 1_555 1_555
H29_7 C24_7 1_555 1_555
C25_7 C19_7 1_555 1_555
C26_7 C20_7 1_555 1_555
H31_7 C26_7 1_555 1_555
H32_7 O3_7 1_555 1_555
Cd5_4 O13_3 1_555 1_555
O13_4 Cd5_3 1_555 1_555
N5_4 Cd5_3 1_555 1_555
O5_7 C4_7 1_555 1_555
C1_7 C4_7 1_555 1_555
C2_6 C16_7 1_555 1_555
C5_7 C12_7 1_555 1_555
C6_7 C18_7 1_555 1_555
C7_7 C8_7 1_555 1_555
C19_7 C23_7 1_555 1_555
C20_7 C21_7 1_555 1_555
C22_7 C24_7 1_555 1_555
C25_7 C26_7 1_555 1_555
N1_4 C13_7 1_555 1_555
C11_7 H14_7 1_555 1_555
C13_7 C11_7 1_555 1_555
H17_7 C13_7 1_555 1_555
C14_7 N1_4 1_555 1_555
H18_7 C14_7 1_555 1_555
Cd5_4 N1_4 1_555 1_555
N5_4 C13_8 1_555 1_555
C11_8 H14_8 1_555 1_555
C13_8 C11_8 1_555 1_555
H17_8 C13_8 1_555 1_555
C14_8 N5_4 1_555 1_555
H18_8 C14_8 1_555 1_555
C19_8 C11_8 1_555 1_555
C23_8 C14_8 1_555 1_555
C25_8 C19_8 1_555 1_555
H31_8 C26_8 1_555 1_555
C19_8 C23_8 1_555 1_555
C25_8 C26_8 1_555 1_555
Cd5_4 O3_8 1_555 1_555
O3_8 H1_8 1_555 1_555
O4_8 Cd5_4 1_555 1_555
O5_8 Cd2_8 1_555 1_555
O6_8 Cd2_8 1_555 1_555
O10_8 Cd2_8 1_555 1_555
N2_8 Cd5_4 1_555 1_555
N4_8 Cd2_8 1_555 1_555
C1_8 N4_8 1_555 1_555
H2_8 C1_8 1_555 1_555
H3_8 C1_8 1_555 1_555
C4_8 O4_8 1_555 1_555
H6_8 C6_8 1_555 1_555
C7_8 N4_8 1_555 1_555
H8_8 C7_8 1_555 1_555
H9_8 C7_8 1_555 1_555
H10_8 C8_8 1_555 1_555
C9_8 N2_8 1_555 1_555
H12_8 C9_8 1_555 1_555
C10_8 N2_8 1_555 1_555
H13_8 C10_8 1_555 1_555
O11_8 C18_8 1_555 1_555
C16_8 N4_8 1_555 1_555
H21_8 C16_8 1_555 1_555
H22_8 C16_8 1_555 1_555
C17_8 C9_8 1_555 1_555
H23_8 C17_8 1_555 1_555
C18_8 O10_8 1_555 1_555
C20_8 C17_8 1_555 1_555
C21_8 C10_8 1_555 1_555
H24_8 C21_8 1_555 1_555
H32_8 O3_8 1_555 1_555
O5_8 C4_8 1_555 1_555
C1_8 C4_8 1_555 1_555
C6_8 C18_8 1_555 1_555
C7_8 C8_8 1_555 1_555
C20_8 C21_8 1_555 1_555
O13_4 C3_8 1_555 1_555
O2_8 C3_8 1_555 1_555
C3_8 C15_8 1_555 1_555
C5_8 N3_8 1_555 1_555
H4_8 C5_8 1_555 1_555
H5_8 C5_8 1_555 1_555
C12_8 O9_8 1_555 1_555
H15_8 C12_8 1_555 1_555
H16_8 C12_8 1_555 1_555
C15_8 N3_8 1_555 1_555
H19_8 C15_8 1_555 1_555
H20_8 C15_8 1_555 1_555
C22_8 O7_8 1_555 1_555
H25_8 C22_8 1_555 1_555
C24_8 O9_8 1_555 1_555
H28_8 C24_8 1_555 1_555
H29_8 C24_8 1_555 1_555
C5_8 C12_8 1_555 1_555
C22_8 C24_8 1_555 1_555
O8_7 C2_7 1_555 1_555
O8_8 C2_8 1_555 1_555

#END
