
###############################################################################
#
# This file contains modified crystal structure data generated from the
# MOF subset of the Cambridge Structural Database (CSD) v543 
# hosted by the Cambridge Crystallographic Data Centre (CCDC).
#
# This work is licensed under the Creative Commons
# Attribution-NonCommercial-ShareAlike 4.0 International License.
# To view a copy of this license, visit
# http://creativecommons.org/licenses/by-nc-sa/4.0/
# or send a letter to
# Creative Commons, PO Box 1866, Mountain View, CA 94042, USA.
#
# CIF created using the CSD Python API on 29 September 2022
# The structure has been converted into the P1 space group
# The structure has a 3D framework
# The original CSD entry JITFAU is in the monoclinic crystal system
# The framework has been calculated to contain at least 10.0% void space
# The void calculation uses a probe of radius 1.32A, grid spacing 0.4
#
###############################################################################

data_JITFAU
_chemical_formula_moiety         '(C320 H192 Cd16 I16 N64)n'
_symmetry_cell_setting           triclinic
_symmetry_space_group_name_H-M   'P 1'
_symmetry_Int_Tables_number      1
_space_group_name_Hall           'P 1'
loop_
_symmetry_equiv_pos_site_id
_symmetry_equiv_pos_as_xyz
1 x,y,z
_cell_length_a                   20.490(3)
_cell_length_b                   25.064(4)
_cell_length_c                   16.563(3)
_cell_angle_alpha                90
_cell_angle_beta                 90.683(3)
_cell_angle_gamma                90
_cell_volume                     8505.51
loop_
_atom_site_label
_atom_site_type_symbol
_atom_site_fract_x
_atom_site_fract_y
_atom_site_fract_z
N6 N 0.0596(3) 0.1320(3) 0.4881(5)
C9 C 0.0249(5) 0.0889(5) 0.5068(7)
H4 H 0.0470 0.0571 0.5160
C27 C 0.0268(5) 0.1763(4) 0.4776(7)
H12 H 0.0505 0.2071 0.4665
Cd4 Cd 0.17964(3) 0.12454(3) 0.48446(4)
Cd1 Cd 0.68386(3) 0.11626(2) 0.52595(3)
Cd2 Cd 0.67964(3) 0.37546(3) 0.98446(4)
I1 I 0.67806(3) 0.47787(3) 0.92656(5)
N1 N 0.7548(3) 0.1785(3) 0.5622(4)
N2 N 0.6089(3) 0.1733(3) 0.5665(4)
N3 N 0.6834(3) 0.3212(3) 0.8705(4)
N4 N 0.7546(3) 0.0931(3) 0.4357(4)
N5 N 0.6098(3) 0.0897(3) 0.4382(4)
N7 N 0.3027(3) 0.1273(3) 0.4846(5)
C1 C 0.8202(4) 0.1027(3) 0.4415(5)
C2 C 0.3375(4) 0.1684(4) 0.4594(7)
H1 H 0.3156 0.1969 0.4354
C3 C 0.8511(3) 0.1378(3) 0.4981(5)
C4 C 0.5431(4) 0.1647(3) 0.5594(5)
C5 C 0.6208(4) 0.0553(3) 0.3755(5)
C6 C 0.6828(4) 0.0412(3) 0.3444(5)
C7 C 0.6690(4) 0.2710(4) 0.8709(5)
H2 H 0.6599 0.2558 0.9207
C8 C 0.5112(4) 0.0626(4) 0.3881(5)
H3 H 0.4663 0.0591 0.3810
C10 C 0.9614(4) 0.1808(4) 0.4818(7)
H5 H 0.9418 0.2139 0.4742
C12 C 0.8066(4) 0.0474(4) 0.3360(5)
H7 H 0.8131 0.0259 0.2910
C13 C 0.5112(4) 0.1947(4) 0.6210(5)
H8 H 0.4665 0.1958 0.6300
C14 C 0.5574(4) 0.2209(4) 0.6634(5)
H9 H 0.5508 0.2437 0.7068
C15 C 0.7447(4) 0.2132(3) 0.6234(5)
C16 C 0.6822(4) 0.2254(3) 0.6558(5)
C17 C 0.7447(4) 0.0591(3) 0.3724(5)
C18 C 0.4393(4) 0.1298(4) 0.4998(5)
C19 C 0.6826(4) 0.0045(3) 0.2739(5)
C20 C 0.6660(4) 0.2383(4) 0.8052(5)
H10 H 0.6529 0.2029 0.8100
C21 C 0.5142(4) 0.1299(3) 0.5032(5)
C22 C 0.5442(4) 0.0959(3) 0.4474(5)
C23 C 0.8068(4) 0.2327(4) 0.6534(6)
H11 H 0.8137 0.2578 0.6939
C24 C 0.8209(4) 0.1730(4) 0.5534(5)
C25 C 0.6831(4) 0.2594(3) 0.7311(5)
C26 C 0.9228(4) 0.1365(4) 0.4972(5)
C28 C 0.7016(5) 0.3421(4) 0.8021(6)
H13 H 0.7145 0.3777 0.8011
C29 C 0.9572(5) 0.0892(4) 0.5133(7)
H14 H 0.9351 0.0584 0.5280
C30 C 0.8529(4) 0.2068(4) 0.6106(6)
H15 H 0.8978 0.2105 0.6174
C32 C 0.4035(4) 0.0859(4) 0.5280(6)
H17 H 0.4242 0.0573 0.5532
C33 C 0.7022(5) 0.3123(4) 0.7297(6)
H18 H 0.7153 0.3280 0.6817
C34 C 0.5585(4) 0.0370(4) 0.3443(6)
H19 H 0.5517 0.0126 0.3027
C35 C 0.4050(4) 0.1711(4) 0.4669(6)
H20 H 0.4270 0.2014 0.4493
C36 C 0.6191(3) 0.2068(3) 0.6288(5)
C37 C 0.6526(4) 0.0188(4) 0.2010(5)
H21 H 0.6323 0.0518 0.1958
C38 C 0.3357(4) 0.0868(4) 0.5172(6)
H22 H 0.3121 0.0571 0.5338
C40 C 0.8529(4) 0.0728(4) 0.3784(5)
H24 H 0.8976 0.0716 0.3693
N9 N 0.5596(3) 0.3680(3) 0.9881(5)
N10 N 0.8027(3) 0.3727(3) 0.9846(5)
N11 N 0.6821(3) 0.0625(3) 0.6389(4)
N8 N 0.6821(3) 0.9375(3) 0.1389(4)
C11 C 0.7131(4) 0.9552(4) 0.2759(5)
H6 H 0.7336 0.9432 0.3229
C31 C 0.6532(4) 0.9844(4) 0.1372(5)
H16 H 0.6318 0.9946 0.0898
C39 C 0.7128(4) 0.9239(4) 0.2069(5)
H23 H 0.7353 0.8917 0.2083
Cd3 Cd 0.68386(3) 0.88374(2) 0.02595(3)
Cd1_2 Cd 0.18386(3) 0.61626(2) 0.52595(3)
Cd2_2 Cd 0.17964(3) 0.87546(3) 0.98446(4)
I1_2 I 0.17806(3) 0.97787(3) 0.92656(5)
N1_2 N 0.2548(3) 0.6785(3) 0.5622(4)
N2_2 N 0.1089(3) 0.6733(3) 0.5665(4)
N3_2 N 0.1834(3) 0.8212(3) 0.8705(4)
N4_2 N 0.2546(3) 0.5931(3) 0.4357(4)
N5_2 N 0.1098(3) 0.5897(3) 0.4382(4)
N6_2 N 0.5596(3) 0.6320(3) 0.4881(5)
N8_2 N 0.1821(3) 0.4375(3) 0.1389(4)
C1_2 C 0.3202(4) 0.6027(3) 0.4415(5)
C3_2 C 0.3511(3) 0.6378(3) 0.4981(5)
C4_2 C 0.0431(4) 0.6647(3) 0.5594(5)
C5_2 C 0.1208(4) 0.5553(3) 0.3755(5)
C6_2 C 0.1828(4) 0.5412(3) 0.3444(5)
C7_2 C 0.1690(4) 0.7710(4) 0.8709(5)
H2_2 H 0.1599 0.7558 0.9207
C8_2 C 0.0112(4) 0.5626(4) 0.3881(5)
C9_2 C 0.5249(5) 0.5889(5) 0.5068(7)
H4_2 H 0.5470 0.5571 0.5160
C10_2 C 0.4614(4) 0.6808(4) 0.4818(7)
H5_2 H 0.4418 0.7139 0.4742
C11_2 C 0.2131(4) 0.4552(4) 0.2759(5)
H6_2 H 0.2336 0.4432 0.3229
C12_2 C 0.3066(4) 0.5474(4) 0.3360(5)
H7_2 H 0.3131 0.5259 0.2910
C13_2 C 0.0112(4) 0.6947(4) 0.6210(5)
C14_2 C 0.0574(4) 0.7209(4) 0.6634(5)
H9_2 H 0.0508 0.7437 0.7068
C15_2 C 0.2447(4) 0.7132(3) 0.6234(5)
C16_2 C 0.1822(4) 0.7254(3) 0.6558(5)
C17_2 C 0.2447(4) 0.5591(3) 0.3724(5)
C19_2 C 0.1826(4) 0.5045(3) 0.2739(5)
C20_2 C 0.1660(4) 0.7383(4) 0.8052(5)
H10_2 H 0.1529 0.7029 0.8100
C21_2 C 0.0142(4) 0.6299(3) 0.5032(5)
C22_2 C 0.0442(4) 0.5959(3) 0.4474(5)
C23_2 C 0.3068(4) 0.7327(4) 0.6534(6)
H11_2 H 0.3137 0.7578 0.6939
C24_2 C 0.3209(4) 0.6730(4) 0.5534(5)
C25_2 C 0.1831(4) 0.7594(3) 0.7311(5)
C26_2 C 0.4228(4) 0.6365(4) 0.4972(5)
C27_2 C 0.5268(5) 0.6763(4) 0.4776(7)
H12_2 H 0.5505 0.7071 0.4665
C28_2 C 0.2016(5) 0.8421(4) 0.8021(6)
H13_2 H 0.2145 0.8777 0.8011
C29_2 C 0.4572(5) 0.5892(4) 0.5133(7)
H14_2 H 0.4351 0.5584 0.5280
C30_2 C 0.3529(4) 0.7068(4) 0.6106(6)
H15_2 H 0.3978 0.7105 0.6174
C31_2 C 0.1532(4) 0.4844(4) 0.1372(5)
H16_2 H 0.1318 0.4946 0.0898
C33_2 C 0.2022(5) 0.8123(4) 0.7297(6)
H18_2 H 0.2153 0.8280 0.6817
C34_2 C 0.0585(4) 0.5370(4) 0.3443(6)
H19_2 H 0.0517 0.5126 0.3027
C36_2 C 0.1191(3) 0.7068(3) 0.6288(5)
C37_2 C 0.1526(4) 0.5188(4) 0.2010(5)
H21_2 H 0.1323 0.5518 0.1958
C39_2 C 0.2128(4) 0.4239(4) 0.2069(5)
H23_2 H 0.2353 0.3917 0.2083
C40_2 C 0.3529(4) 0.5728(4) 0.3784(5)
H24_2 H 0.3976 0.5716 0.3693
Cd3_2 Cd 0.18386(3) 0.38374(2) 0.02595(3)
Cd4_2 Cd 0.67964(3) 0.62454(3) 0.48446(4)
N9_2 N 0.0596(3) 0.8680(3) 0.9881(5)
N10_2 N 0.3027(3) 0.8727(3) 0.9846(5)
N11_2 N 0.1821(3) 0.5625(3) 0.6389(4)
N7_2 N 0.8027(3) 0.6273(3) 0.4846(5)
C2_2 C 0.8375(4) 0.6684(4) 0.4594(7)
H1_2 H 0.8156 0.6969 0.4354
H3_2 H 0.9663 0.5591 0.3810
H8_2 H 0.9665 0.6958 0.6300
C18_2 C 0.9393(4) 0.6298(4) 0.4998(5)
C32_2 C 0.9035(4) 0.5859(4) 0.5280(6)
H17_2 H 0.9242 0.5573 0.5532
C35_2 C 0.9050(4) 0.6711(4) 0.4669(6)
H20_2 H 0.9270 0.7014 0.4493
C38_2 C 0.8357(4) 0.5868(4) 0.5172(6)
H22_2 H 0.8121 0.5571 0.5338
C27_3 C 0.0268(5) 0.8237(4) 0.9776(7)
H12_3 H 0.0505 0.7929 0.9665
C11_3 C 0.7131(4) 0.0448(4) 0.7759(5)
H6_3 H 0.7336 0.0568 0.8229
C31_3 C 0.6532(4) 0.0156(4) 0.6372(5)
H16_3 H 0.6318 0.0054 0.5898
C39_3 C 0.7128(4) 0.0761(4) 0.7069(5)
H23_3 H 0.7353 0.1083 0.7083
I1_3 I 0.67806(3) 0.52213(3) 0.42656(5)
I2 I 0.68152(5) 0.67594(5) 0.62883(6)
N1_3 N 0.7548(3) 0.8215(3) 0.0622(4)
N2_3 N 0.6089(3) 0.8267(3) 0.0665(4)
N3_3 N 0.6834(3) 0.6788(3) 0.3705(4)
C4_3 C 0.5431(4) 0.8353(3) 0.0594(5)
C7_3 C 0.6690(4) 0.7290(4) 0.3709(5)
H2_3 H 0.6599 0.7442 0.4207
C13_3 C 0.5112(4) 0.8053(4) 0.1210(5)
H8_3 H 0.4665 0.8042 0.1300
C14_3 C 0.5574(4) 0.7791(4) 0.1634(5)
H9_3 H 0.5508 0.7563 0.2068
C15_3 C 0.7447(4) 0.7868(3) 0.1234(5)
C16_3 C 0.6822(4) 0.7746(3) 0.1558(5)
C20_3 C 0.6660(4) 0.7617(4) 0.3052(5)
H10_3 H 0.6529 0.7971 0.3100
C21_3 C 0.5142(4) 0.8701(3) 0.0032(5)
C23_3 C 0.8068(4) 0.7673(4) 0.1534(6)
H11_3 H 0.8137 0.7422 0.1939
C24_3 C 0.8209(4) 0.8270(4) 0.0534(5)
C25_3 C 0.6831(4) 0.7406(3) 0.2311(5)
C28_3 C 0.7016(5) 0.6579(4) 0.3021(6)
H13_3 H 0.7145 0.6223 0.3011
C29_3 C 0.9572(5) 0.9108(4) 0.0133(7)
H14_3 H 0.9351 0.9416 0.0280
C30_3 C 0.8529(4) 0.7932(4) 0.1106(6)
H15_3 H 0.8978 0.7895 0.1174
C32_3 C 0.4035(4) 0.9141(4) 0.0280(6)
H17_3 H 0.4242 0.9427 0.0532
C33_3 C 0.7022(5) 0.6877(4) 0.2297(6)
H18_3 H 0.7153 0.6720 0.1817
C36_3 C 0.6191(3) 0.7932(3) 0.1288(5)
C38_3 C 0.3357(4) 0.9132(4) 0.0172(6)
H22_3 H 0.3121 0.9429 0.0338
N4_3 N 0.7546(3) 0.9069(3) 0.9357(4)
N5_3 N 0.6098(3) 0.9103(3) 0.9382(4)
C1_3 C 0.8202(4) 0.8973(3) 0.9415(5)
C2_3 C 0.3375(4) 0.8316(4) 0.9594(7)
H1_3 H 0.3156 0.8031 0.9354
C3_3 C 0.8511(3) 0.8622(3) 0.9981(5)
C5_3 C 0.6208(4) 0.9447(3) 0.8755(5)
C6_3 C 0.6828(4) 0.9588(3) 0.8444(5)
C8_3 C 0.5112(4) 0.9374(4) 0.8881(5)
H3_3 H 0.4663 0.9409 0.8810
C10_3 C 0.9614(4) 0.8192(4) 0.9818(7)
H5_3 H 0.9418 0.7861 0.9742
C12_3 C 0.8066(4) 0.9526(4) 0.8360(5)
H7_3 H 0.8131 0.9741 0.7910
C17_3 C 0.7447(4) 0.9409(3) 0.8724(5)
C18_3 C 0.4393(4) 0.8702(4) 0.9998(5)
C19_3 C 0.6826(4) 0.9955(3) 0.7739(5)
C22_3 C 0.5442(4) 0.9041(3) 0.9474(5)
C26_3 C 0.9228(4) 0.8635(4) 0.9972(5)
C34_3 C 0.5585(4) 0.9630(4) 0.8443(6)
H19_3 H 0.5517 0.9874 0.8027
C35_3 C 0.4050(4) 0.8289(4) 0.9669(6)
H20_3 H 0.4270 0.7986 0.9493
C37_3 C 0.6526(4) 0.9812(4) 0.7010(5)
H21_3 H 0.6323 0.9482 0.6958
C40_3 C 0.8529(4) 0.9272(4) 0.8784(5)
H24_3 H 0.8976 0.9284 0.8693
I1_4 I 0.17806(3) 0.02213(3) 0.42656(5)
I2_2 I 0.18152(5) 0.17594(5) 0.62883(6)
N1_4 N 0.2548(3) 0.3215(3) 0.0622(4)
N2_4 N 0.1089(3) 0.3267(3) 0.0665(4)
N3_4 N 0.1834(3) 0.1788(3) 0.3705(4)
C4_4 C 0.0431(4) 0.3353(3) 0.0594(5)
C7_4 C 0.1690(4) 0.2290(4) 0.3709(5)
H2_4 H 0.1599 0.2442 0.4207
C9_3 C 0.5249(5) 0.4111(5) 0.0068(7)
H4_3 H 0.5470 0.4429 0.0160
C13_4 C 0.0112(4) 0.3053(4) 0.1210(5)
C14_4 C 0.0574(4) 0.2791(4) 0.1634(5)
H9_4 H 0.0508 0.2563 0.2068
C15_4 C 0.2447(4) 0.2868(3) 0.1234(5)
C16_4 C 0.1822(4) 0.2746(3) 0.1558(5)
C20_4 C 0.1660(4) 0.2617(4) 0.3052(5)
H10_4 H 0.1529 0.2971 0.3100
C21_4 C 0.0142(4) 0.3701(3) 0.0032(5)
C23_4 C 0.3068(4) 0.2673(4) 0.1534(6)
H11_4 H 0.3137 0.2422 0.1939
C24_4 C 0.3209(4) 0.3270(4) 0.0534(5)
C25_4 C 0.1831(4) 0.2406(3) 0.2311(5)
C28_4 C 0.2016(5) 0.1579(4) 0.3021(6)
H13_4 H 0.2145 0.1223 0.3011
C29_4 C 0.4572(5) 0.4108(4) 0.0133(7)
H14_4 H 0.4351 0.4416 0.0280
C30_4 C 0.3529(4) 0.2932(4) 0.1106(6)
H15_4 H 0.3978 0.2895 0.1174
C33_4 C 0.2022(5) 0.1877(4) 0.2297(6)
H18_4 H 0.2153 0.1720 0.1817
C36_4 C 0.1191(3) 0.2932(3) 0.1288(5)
N4_4 N 0.2546(3) 0.4069(3) 0.9357(4)
N5_4 N 0.1098(3) 0.4103(3) 0.9382(4)
C1_4 C 0.3202(4) 0.3973(3) 0.9415(5)
C3_4 C 0.3511(3) 0.3622(3) 0.9981(5)
C5_4 C 0.1208(4) 0.4447(3) 0.8755(5)
C6_4 C 0.1828(4) 0.4588(3) 0.8444(5)
C8_4 C 0.0112(4) 0.4374(4) 0.8881(5)
C10_4 C 0.4614(4) 0.3192(4) 0.9818(7)
H5_4 H 0.4418 0.2861 0.9742
C11_4 C 0.2131(4) 0.5448(4) 0.7759(5)
H6_4 H 0.2336 0.5568 0.8229
C12_4 C 0.3066(4) 0.4526(4) 0.8360(5)
H7_4 H 0.3131 0.4741 0.7910
C17_4 C 0.2447(4) 0.4409(3) 0.8724(5)
C19_4 C 0.1826(4) 0.4955(3) 0.7739(5)
C22_4 C 0.0442(4) 0.4041(3) 0.9474(5)
C26_4 C 0.4228(4) 0.3635(4) 0.9972(5)
C27_4 C 0.5268(5) 0.3237(4) 0.9776(7)
H12_4 H 0.5505 0.2929 0.9665
C31_4 C 0.1532(4) 0.5156(4) 0.6372(5)
H16_4 H 0.1318 0.5054 0.5898
C34_4 C 0.0585(4) 0.4630(4) 0.8443(6)
H19_4 H 0.0517 0.4874 0.8027
C37_4 C 0.1526(4) 0.4812(4) 0.7010(5)
H21_4 H 0.1323 0.4482 0.6958
C39_4 C 0.2128(4) 0.5761(4) 0.7069(5)
H23_4 H 0.2353 0.6083 0.7083
C40_4 C 0.3529(4) 0.4272(4) 0.8784(5)
H24_4 H 0.3976 0.4284 0.8693
C2_4 C 0.8375(4) 0.3316(4) 0.9594(7)
H1_4 H 0.8156 0.3031 0.9354
H3_4 H 0.9663 0.4409 0.8810
C18_4 C 0.9393(4) 0.3702(4) 0.9998(5)
C35_4 C 0.9050(4) 0.3289(4) 0.9669(6)
H20_4 H 0.9270 0.2986 0.9493
I2_3 I 0.68152(5) 0.32406(5) 0.12883(6)
I2_4 I 0.18152(5) 0.82406(5) 0.12883(6)
N4_5 N 0.2454(3) 0.0931(3) 0.0643(4)
N5_5 N 0.3902(3) 0.0897(3) 0.0618(4)
N7_3 N 0.6973(3) 0.1273(3) 0.0154(5)
C1_5 C 0.1798(4) 0.1027(3) 0.0585(5)
C2_5 C 0.6625(4) 0.1684(4) 0.0406(7)
H1_5 H 0.6844 0.1969 0.0646
C3_5 C 0.1489(3) 0.1378(3) 0.0019(5)
C5_5 C 0.3792(4) 0.0553(3) 0.1245(5)
C6_5 C 0.3172(4) 0.0412(3) 0.1556(5)
C8_5 C 0.4888(4) 0.0626(4) 0.1119(5)
H3_5 H 0.5337 0.0591 0.1190
C10_5 C 0.0386(4) 0.1808(4) 0.0182(7)
H5_5 H 0.0582 0.2139 0.0258
C12_5 C 0.1934(4) 0.0474(4) 0.1640(5)
H7_5 H 0.1869 0.0259 0.2090
C17_5 C 0.2553(4) 0.0591(3) 0.1276(5)
C18_5 C 0.5607(4) 0.1298(4) 0.0002(5)
C19_5 C 0.3174(4) 0.0045(3) 0.2261(5)
C22_5 C 0.4558(4) 0.0959(3) 0.0526(5)
C26_5 C 0.0772(4) 0.1365(4) 0.0028(5)
C34_5 C 0.4415(4) 0.0370(4) 0.1557(6)
H19_5 H 0.4483 0.0126 0.1973
C35_5 C 0.5950(4) 0.1711(4) 0.0331(6)
H20_5 H 0.5730 0.2014 0.0507
C37_5 C 0.3474(4) 0.0188(4) 0.2990(5)
H21_5 H 0.3677 0.0518 0.3042
C40_5 C 0.1471(4) 0.0728(4) 0.1216(5)
H24_5 H 0.1024 0.0716 0.1307
Cd5 Cd 0.82036(3) 0.12454(3) 0.01554(4)
Cd1_3 Cd 0.31614(3) 0.11626(2) 0.97405(3)
Cd2_3 Cd 0.32036(3) 0.37546(3) 0.51554(4)
I1_5 I 0.32194(3) 0.47787(3) 0.57344(5)
I2_5 I 0.31848(5) 0.32406(5) 0.37117(6)
N1_5 N 0.2452(3) 0.1785(3) 0.9378(4)
N2_5 N 0.3911(3) 0.1733(3) 0.9335(4)
N3_5 N 0.3166(3) 0.3212(3) 0.6295(4)
C4_5 C 0.4569(4) 0.1647(3) 0.9406(5)
C7_5 C 0.3310(4) 0.2710(4) 0.6291(5)
H2_5 H 0.3401 0.2558 0.5793
C13_5 C 0.4888(4) 0.1947(4) 0.8790(5)
H8_4 H 0.5335 0.1958 0.8700
C14_5 C 0.4426(4) 0.2209(4) 0.8366(5)
H9_5 H 0.4492 0.2437 0.7932
C15_5 C 0.2553(4) 0.2132(3) 0.8766(5)
C16_5 C 0.3178(4) 0.2254(3) 0.8442(5)
C20_5 C 0.3340(4) 0.2383(4) 0.6948(5)
H10_5 H 0.3471 0.2029 0.6900
C21_5 C 0.4858(4) 0.1299(3) 0.9968(5)
C23_5 C 0.1932(4) 0.2327(4) 0.8466(6)
H11_5 H 0.1863 0.2578 0.8061
C24_5 C 0.1791(4) 0.1730(4) 0.9466(5)
C25_5 C 0.3169(4) 0.2594(3) 0.7689(5)
C28_5 C 0.2984(5) 0.3421(4) 0.6979(6)
H13_5 H 0.2855 0.3777 0.6989
C29_5 C 0.0428(5) 0.0892(4) 0.9867(7)
H14_5 H 0.0649 0.0584 0.9720
C30_5 C 0.1471(4) 0.2068(4) 0.8894(6)
H15_5 H 0.1022 0.2105 0.8826
C32_4 C 0.5965(4) 0.0859(4) 0.9720(6)
H17_4 H 0.5758 0.0573 0.9468
C33_5 C 0.2978(5) 0.3123(4) 0.7703(6)
H18_5 H 0.2847 0.3280 0.8183
C36_5 C 0.3809(3) 0.2068(3) 0.8712(5)
C38_4 C 0.6643(4) 0.0868(4) 0.9828(6)
H22_4 H 0.6879 0.0571 0.9662
N9_3 N 0.4404(3) 0.3680(3) 0.5119(5)
N10_3 N 0.1973(3) 0.3727(3) 0.5154(5)
N11_3 N 0.3179(3) 0.0625(3) 0.8611(4)
N8_3 N 0.3179(3) 0.9375(3) 0.3611(4)
C11_5 C 0.2869(4) 0.9552(4) 0.2241(5)
H6_5 H 0.2664 0.9432 0.1771
C31_5 C 0.3468(4) 0.9844(4) 0.3628(5)
H16_5 H 0.3682 0.9946 0.4102
C39_5 C 0.2872(4) 0.9239(4) 0.2931(5)
H23_5 H 0.2647 0.8917 0.2917
Cd3_3 Cd 0.31614(3) 0.88374(2) 0.47405(3)
N6_3 N 0.9404(3) 0.1320(3) 0.0119(5)
C27_5 C 0.9732(5) 0.1763(4) 0.0224(7)
H12_5 H 0.9495 0.2071 0.0335
N7_4 N 0.1973(3) 0.6273(3) 0.0154(5)
C2_6 C 0.1625(4) 0.6684(4) 0.0406(7)
H1_6 H 0.1844 0.6969 0.0646
H3_6 H 0.0337 0.5591 0.1190
C18_6 C 0.0607(4) 0.6298(4) 0.0002(5)
C35_6 C 0.0950(4) 0.6711(4) 0.0331(6)
H20_6 H 0.0730 0.7014 0.0507
Cd5_2 Cd 0.32036(3) 0.62454(3) 0.01554(4)
N4_6 N 0.7454(3) 0.5931(3) 0.0643(4)
N5_6 N 0.8902(3) 0.5897(3) 0.0618(4)
N6_4 N 0.4404(3) 0.6320(3) 0.0119(5)
N8_4 N 0.8179(3) 0.4375(3) 0.3611(4)
C1_6 C 0.6798(4) 0.6027(3) 0.0585(5)
C3_6 C 0.6489(3) 0.6378(3) 0.0019(5)
C5_6 C 0.8792(4) 0.5553(3) 0.1245(5)
C6_6 C 0.8172(4) 0.5412(3) 0.1556(5)
C8_6 C 0.9888(4) 0.5626(4) 0.1119(5)
C10_6 C 0.5386(4) 0.6808(4) 0.0182(7)
H5_6 H 0.5582 0.7139 0.0258
C11_6 C 0.7869(4) 0.4552(4) 0.2241(5)
H6_6 H 0.7664 0.4432 0.1771
C12_6 C 0.6934(4) 0.5474(4) 0.1640(5)
H7_6 H 0.6869 0.5259 0.2090
C17_6 C 0.7553(4) 0.5591(3) 0.1276(5)
C19_6 C 0.8174(4) 0.5045(3) 0.2261(5)
C22_6 C 0.9558(4) 0.5959(3) 0.0526(5)
C26_6 C 0.5772(4) 0.6365(4) 0.0028(5)
C27_6 C 0.4732(5) 0.6763(4) 0.0224(7)
H12_6 H 0.4495 0.7071 0.0335
C31_6 C 0.8468(4) 0.4844(4) 0.3628(5)
H16_6 H 0.8682 0.4946 0.4102
C34_6 C 0.9415(4) 0.5370(4) 0.1557(6)
H19_6 H 0.9483 0.5126 0.1973
C37_6 C 0.8474(4) 0.5188(4) 0.2990(5)
H21_6 H 0.8677 0.5518 0.3042
C39_6 C 0.7872(4) 0.4239(4) 0.2931(5)
H23_6 H 0.7647 0.3917 0.2917
C40_6 C 0.6471(4) 0.5728(4) 0.1216(5)
H24_6 H 0.6024 0.5716 0.1307
Cd3_4 Cd 0.81614(3) 0.38374(2) 0.47405(3)
Cd1_4 Cd 0.81614(3) 0.61626(2) 0.97405(3)
Cd2_4 Cd 0.82036(3) 0.87546(3) 0.51554(4)
I1_6 I 0.82194(3) 0.97787(3) 0.57344(5)
I2_6 I 0.81848(5) 0.82406(5) 0.37117(6)
N1_6 N 0.7452(3) 0.6785(3) 0.9378(4)
N2_6 N 0.8911(3) 0.6733(3) 0.9335(4)
N3_6 N 0.8166(3) 0.8212(3) 0.6295(4)
C4_6 C 0.9569(4) 0.6647(3) 0.9406(5)
C7_6 C 0.8310(4) 0.7710(4) 0.6291(5)
H2_6 H 0.8401 0.7558 0.5793
C9_4 C 0.4751(5) 0.5889(5) 0.9932(7)
H4_4 H 0.4530 0.5571 0.9840
C13_6 C 0.9888(4) 0.6947(4) 0.8790(5)
C14_6 C 0.9426(4) 0.7209(4) 0.8366(5)
H9_6 H 0.9492 0.7437 0.7932
C15_6 C 0.7553(4) 0.7132(3) 0.8766(5)
C16_6 C 0.8178(4) 0.7254(3) 0.8442(5)
C20_6 C 0.8340(4) 0.7383(4) 0.6948(5)
H10_6 H 0.8471 0.7029 0.6900
C21_6 C 0.9858(4) 0.6299(3) 0.9968(5)
C23_6 C 0.6932(4) 0.7327(4) 0.8466(6)
H11_6 H 0.6863 0.7578 0.8061
C24_6 C 0.6791(4) 0.6730(4) 0.9466(5)
C25_6 C 0.8169(4) 0.7594(3) 0.7689(5)
C28_6 C 0.7984(5) 0.8421(4) 0.6979(6)
H13_6 H 0.7855 0.8777 0.6989
C29_6 C 0.5428(5) 0.5892(4) 0.9867(7)
H14_6 H 0.5649 0.5584 0.9720
C30_6 C 0.6471(4) 0.7068(4) 0.8894(6)
H15_6 H 0.6022 0.7105 0.8826
C33_6 C 0.7978(5) 0.8123(4) 0.7703(6)
H18_6 H 0.7847 0.8280 0.8183
C36_6 C 0.8809(3) 0.7068(3) 0.8712(5)
N9_4 N 0.9404(3) 0.8680(3) 0.5119(5)
N10_4 N 0.6973(3) 0.8727(3) 0.5154(5)
N11_4 N 0.8179(3) 0.5625(3) 0.8611(4)
C11_7 C 0.2869(4) 0.0448(4) 0.7241(5)
H6_7 H 0.2664 0.0568 0.6771
C31_7 C 0.3468(4) 0.0156(4) 0.8628(5)
H16_7 H 0.3682 0.0054 0.9102
C39_7 C 0.2872(4) 0.0761(4) 0.7931(5)
H23_7 H 0.2647 0.1083 0.7917
I1_7 I 0.32194(3) 0.52213(3) 0.07344(5)
N1_7 N 0.2452(3) 0.8215(3) 0.4378(4)
N2_7 N 0.3911(3) 0.8267(3) 0.4335(4)
N3_7 N 0.3166(3) 0.6788(3) 0.1295(4)
N4_7 N 0.2454(3) 0.9069(3) 0.5643(4)
N5_7 N 0.3902(3) 0.9103(3) 0.5618(4)
C1_7 C 0.1798(4) 0.8973(3) 0.5585(5)
C2_7 C 0.6625(4) 0.8316(4) 0.5406(7)
H1_7 H 0.6844 0.8031 0.5646
C3_7 C 0.1489(3) 0.8622(3) 0.5019(5)
C4_7 C 0.4569(4) 0.8353(3) 0.4406(5)
C5_7 C 0.3792(4) 0.9447(3) 0.6245(5)
C6_7 C 0.3172(4) 0.9588(3) 0.6556(5)
C7_7 C 0.3310(4) 0.7290(4) 0.1291(5)
H2_7 H 0.3401 0.7442 0.0793
C8_7 C 0.4888(4) 0.9374(4) 0.6119(5)
H3_7 H 0.5337 0.9409 0.6190
C10_7 C 0.0386(4) 0.8192(4) 0.5182(7)
H5_7 H 0.0582 0.7861 0.5258
C12_7 C 0.1934(4) 0.9526(4) 0.6640(5)
H7_7 H 0.1869 0.9741 0.7090
C13_7 C 0.4888(4) 0.8053(4) 0.3790(5)
H8_5 H 0.5335 0.8042 0.3700
C14_7 C 0.4426(4) 0.7791(4) 0.3366(5)
H9_7 H 0.4492 0.7563 0.2932
C15_7 C 0.2553(4) 0.7868(3) 0.3766(5)
C16_7 C 0.3178(4) 0.7746(3) 0.3442(5)
C17_7 C 0.2553(4) 0.9409(3) 0.6276(5)
C18_7 C 0.5607(4) 0.8702(4) 0.5002(5)
C19_7 C 0.3174(4) 0.9955(3) 0.7261(5)
C20_7 C 0.3340(4) 0.7617(4) 0.1948(5)
H10_7 H 0.3471 0.7971 0.1900
C21_7 C 0.4858(4) 0.8701(3) 0.4968(5)
C22_7 C 0.4558(4) 0.9041(3) 0.5526(5)
C23_7 C 0.1932(4) 0.7673(4) 0.3466(6)
H11_7 H 0.1863 0.7422 0.3061
C24_7 C 0.1791(4) 0.8270(4) 0.4466(5)
C25_7 C 0.3169(4) 0.7406(3) 0.2689(5)
C26_7 C 0.0772(4) 0.8635(4) 0.5028(5)
C28_7 C 0.2984(5) 0.6579(4) 0.1979(6)
H13_7 H 0.2855 0.6223 0.1989
C29_7 C 0.0428(5) 0.9108(4) 0.4867(7)
H14_7 H 0.0649 0.9416 0.4720
C30_7 C 0.1471(4) 0.7932(4) 0.3894(6)
H15_7 H 0.1022 0.7895 0.3826
C32_5 C 0.5965(4) 0.9141(4) 0.4720(6)
H17_5 H 0.5758 0.9427 0.4468
C33_7 C 0.2978(5) 0.6877(4) 0.2703(6)
H18_7 H 0.2847 0.6720 0.3183
C34_7 C 0.4415(4) 0.9630(4) 0.6557(6)
H19_7 H 0.4483 0.9874 0.6973
C35_7 C 0.5950(4) 0.8289(4) 0.5331(6)
H20_7 H 0.5730 0.7986 0.5507
C36_7 C 0.3809(3) 0.7932(3) 0.3712(5)
C37_7 C 0.3474(4) 0.9812(4) 0.7990(5)
H21_7 H 0.3677 0.9482 0.8042
C38_5 C 0.6643(4) 0.9132(4) 0.4828(6)
H22_5 H 0.6879 0.9429 0.4662
C40_7 C 0.1471(4) 0.9272(4) 0.6216(5)
H24_7 H 0.1024 0.9284 0.6307
C9_5 C 0.9751(5) 0.9111(5) 0.4932(7)
H4_5 H 0.9530 0.9429 0.4840
C27_7 C 0.9732(5) 0.8237(4) 0.5224(7)
H12_7 H 0.9495 0.7929 0.5335
C2_8 C 0.1625(4) 0.3316(4) 0.5406(7)
H1_8 H 0.1844 0.3031 0.5646
H3_8 H 0.0337 0.4409 0.6190
H8_6 H 0.0335 0.3042 0.3700
C18_8 C 0.0607(4) 0.3702(4) 0.5002(5)
C32_6 C 0.0965(4) 0.4141(4) 0.4720(6)
H17_6 H 0.0758 0.4427 0.4468
C35_8 C 0.0950(4) 0.3289(4) 0.5331(6)
H20_8 H 0.0730 0.2986 0.5507
C38_6 C 0.1643(4) 0.4132(4) 0.4828(6)
H22_6 H 0.1879 0.4429 0.4662
I1_8 I 0.82194(3) 0.02213(3) 0.07344(5)
N1_8 N 0.7452(3) 0.3215(3) 0.4378(4)
N2_8 N 0.8911(3) 0.3267(3) 0.4335(4)
N3_8 N 0.8166(3) 0.1788(3) 0.1295(4)
N4_8 N 0.7454(3) 0.4069(3) 0.5643(4)
N5_8 N 0.8902(3) 0.4103(3) 0.5618(4)
C1_8 C 0.6798(4) 0.3973(3) 0.5585(5)
C3_8 C 0.6489(3) 0.3622(3) 0.5019(5)
C4_8 C 0.9569(4) 0.3353(3) 0.4406(5)
C5_8 C 0.8792(4) 0.4447(3) 0.6245(5)
C6_8 C 0.8172(4) 0.4588(3) 0.6556(5)
C7_8 C 0.8310(4) 0.2290(4) 0.1291(5)
H2_8 H 0.8401 0.2442 0.0793
C8_8 C 0.9888(4) 0.4374(4) 0.6119(5)
C9_6 C 0.4751(5) 0.4111(5) 0.4932(7)
H4_6 H 0.4530 0.4429 0.4840
C10_8 C 0.5386(4) 0.3192(4) 0.5182(7)
H5_8 H 0.5582 0.2861 0.5258
C11_8 C 0.7869(4) 0.5448(4) 0.7241(5)
H6_8 H 0.7664 0.5568 0.6771
C12_8 C 0.6934(4) 0.4526(4) 0.6640(5)
H7_8 H 0.6869 0.4741 0.7090
C13_8 C 0.9888(4) 0.3053(4) 0.3790(5)
C14_8 C 0.9426(4) 0.2791(4) 0.3366(5)
H9_8 H 0.9492 0.2563 0.2932
C15_8 C 0.7553(4) 0.2868(3) 0.3766(5)
C16_8 C 0.8178(4) 0.2746(3) 0.3442(5)
C17_8 C 0.7553(4) 0.4409(3) 0.6276(5)
C19_8 C 0.8174(4) 0.4955(3) 0.7261(5)
C20_8 C 0.8340(4) 0.2617(4) 0.1948(5)
H10_8 H 0.8471 0.2971 0.1900
C21_8 C 0.9858(4) 0.3701(3) 0.4968(5)
C22_8 C 0.9558(4) 0.4041(3) 0.5526(5)
C23_8 C 0.6932(4) 0.2673(4) 0.3466(6)
H11_8 H 0.6863 0.2422 0.3061
C24_8 C 0.6791(4) 0.3270(4) 0.4466(5)
C25_8 C 0.8169(4) 0.2406(3) 0.2689(5)
C26_8 C 0.5772(4) 0.3635(4) 0.5028(5)
C27_8 C 0.4732(5) 0.3237(4) 0.5224(7)
H12_8 H 0.4495 0.2929 0.5335
C28_8 C 0.7984(5) 0.1579(4) 0.1979(6)
H13_8 H 0.7855 0.1223 0.1989
C29_8 C 0.5428(5) 0.4108(4) 0.4867(7)
H14_8 H 0.5649 0.4416 0.4720
C30_8 C 0.6471(4) 0.2932(4) 0.3894(6)
H15_8 H 0.6022 0.2895 0.3826
C31_8 C 0.8468(4) 0.5156(4) 0.8628(5)
H16_8 H 0.8682 0.5054 0.9102
C33_8 C 0.7978(5) 0.1877(4) 0.2703(6)
H18_8 H 0.7847 0.1720 0.3183
C34_8 C 0.9415(4) 0.4630(4) 0.6557(6)
H19_8 H 0.9483 0.4874 0.6973
C36_8 C 0.8809(3) 0.2932(3) 0.3712(5)
C37_8 C 0.8474(4) 0.4812(4) 0.7990(5)
H21_8 H 0.8677 0.4482 0.8042
C39_8 C 0.7872(4) 0.5761(4) 0.7931(5)
H23_8 H 0.7647 0.6083 0.7917
C40_8 C 0.6471(4) 0.4272(4) 0.6216(5)
H24_8 H 0.6024 0.4284 0.6307
C9_7 C 0.9751(5) 0.0889(5) 0.9932(7)
H4_7 H 0.9530 0.0571 0.9840
H8_7 H 0.0335 0.6958 0.8700
C32_7 C 0.0965(4) 0.5859(4) 0.9720(6)
H17_7 H 0.0758 0.5573 0.9468
C38_7 C 0.1643(4) 0.5868(4) 0.9828(6)
H22_7 H 0.1879 0.5571 0.9662
I2_7 I 0.31848(5) 0.67594(5) 0.87117(6)
I2_8 I 0.81848(5) 0.17594(5) 0.87117(6)
C9_8 C 0.0249(5) 0.9111(5) 0.0068(7)
H4_8 H 0.0470 0.9429 0.0160
H8_8 H 0.9665 0.3042 0.1300
C32_8 C 0.9035(4) 0.4141(4) 0.0280(6)
H17_8 H 0.9242 0.4427 0.0532
C38_8 C 0.8357(4) 0.4132(4) 0.0172(6)
H22_8 H 0.8121 0.4429 0.0338
loop_
_geom_bond_atom_site_label_1
_geom_bond_atom_site_label_2
_geom_bond_site_symmetry_1
_geom_bond_site_symmetry_2
N6 C9 1_555 1_555
C9 H4 1_555 1_555
C27 N6 1_555 1_555
H12 C27 1_555 1_555
Cd4 N6 1_555 1_555
Cd1 N1 1_555 1_555
Cd2 I1 1_555 1_555
N1 C15 1_555 1_555
N2 Cd1 1_555 1_555
N3 Cd2 1_555 1_555
N4 Cd1 1_555 1_555
N5 Cd1 1_555 1_555
N7 C2 1_555 1_555
C1 N4 1_555 1_555
C2 H1 1_555 1_555
C3 C1 1_555 1_555
C4 N2 1_555 1_555
C5 N5 1_555 1_555
C6 C5 1_555 1_555
C7 N3 1_555 1_555
H2 C7 1_555 1_555
C8 H3 1_555 1_555
C10 H5 1_555 1_555
C12 H7 1_555 1_555
C13 C4 1_555 1_555
H8 C13 1_555 1_555
C14 C13 1_555 1_555
H9 C14 1_555 1_555
C15 C16 1_555 1_555
C16 C25 1_555 1_555
C17 N4 1_555 1_555
C18 C21 1_555 1_555
C19 C6 1_555 1_555
C20 C7 1_555 1_555
H10 C20 1_555 1_555
C21 C4 1_555 1_555
C22 N5 1_555 1_555
C23 C15 1_555 1_555
H11 C23 1_555 1_555
C24 N1 1_555 1_555
C25 C20 1_555 1_555
C26 C3 1_555 1_555
C28 N3 1_555 1_555
H13 C28 1_555 1_555
H14 C29 1_555 1_555
C30 C23 1_555 1_555
H15 C30 1_555 1_555
C32 C18 1_555 1_555
H17 C32 1_555 1_555
C33 C25 1_555 1_555
H18 C33 1_555 1_555
C34 C5 1_555 1_555
H19 C34 1_555 1_555
C35 C2 1_555 1_555
H20 C35 1_555 1_555
C36 N2 1_555 1_555
C37 C19 1_555 1_555
H21 C37 1_555 1_555
C38 N7 1_555 1_555
H22 C38 1_555 1_555
C40 C1 1_555 1_555
H24 C40 1_555 1_555
Cd4 N7 1_555 1_555
N9 Cd2 1_555 1_555
N10 Cd2 1_555 1_555
N11 Cd1 1_555 1_555
C3 C24 1_555 1_555
C6 C17 1_555 1_555
C8 C22 1_555 1_555
C8 C34 1_555 1_555
C10 C26 1_555 1_555
C12 C17 1_555 1_555
C12 C40 1_555 1_555
C14 C36 1_555 1_555
C16 C36 1_555 1_555
C18 C35 1_555 1_555
C21 C22 1_555 1_555
C24 C30 1_555 1_555
C26 C29 1_555 1_555
C28 C33 1_555 1_555
C32 C38 1_555 1_555
N8 C31 1_555 1_555
C11 H6 1_555 1_555
C31 H16 1_555 1_555
C39 N8 1_555 1_555
H23 C39 1_555 1_555
Cd3 N8 1_555 1_555
C11 C39 1_555 1_555
Cd1_2 N1_2 1_555 1_555
Cd2_2 I1_2 1_555 1_555
N1_2 C15_2 1_555 1_555
N2_2 Cd1_2 1_555 1_555
N3_2 Cd2_2 1_555 1_555
N4_2 Cd1_2 1_555 1_555
N5_2 Cd1_2 1_555 1_555
N6_2 C9_2 1_555 1_555
N8_2 C31_2 1_555 1_555
C1_2 N4_2 1_555 1_555
C3_2 C1_2 1_555 1_555
C4_2 N2_2 1_555 1_555
C5_2 N5_2 1_555 1_555
C6_2 C5_2 1_555 1_555
C7_2 N3_2 1_555 1_555
H2_2 C7_2 1_555 1_555
C9_2 H4_2 1_555 1_555
C10_2 H5_2 1_555 1_555
C11_2 H6_2 1_555 1_555
C12_2 H7_2 1_555 1_555
C13_2 C4_2 1_555 1_555
C14_2 C13_2 1_555 1_555
H9_2 C14_2 1_555 1_555
C15_2 C16_2 1_555 1_555
C16_2 C25_2 1_555 1_555
C17_2 N4_2 1_555 1_555
C19_2 C6_2 1_555 1_555
C20_2 C7_2 1_555 1_555
H10_2 C20_2 1_555 1_555
C21_2 C4_2 1_555 1_555
C22_2 N5_2 1_555 1_555
C23_2 C15_2 1_555 1_555
H11_2 C23_2 1_555 1_555
C24_2 N1_2 1_555 1_555
C25_2 C20_2 1_555 1_555
C26_2 C3_2 1_555 1_555
C27_2 N6_2 1_555 1_555
H12_2 C27_2 1_555 1_555
C28_2 N3_2 1_555 1_555
H13_2 C28_2 1_555 1_555
C29_2 C9_2 1_555 1_555
H14_2 C29_2 1_555 1_555
C30_2 C23_2 1_555 1_555
H15_2 C30_2 1_555 1_555
C31_2 H16_2 1_555 1_555
C33_2 C25_2 1_555 1_555
H18_2 C33_2 1_555 1_555
C34_2 C5_2 1_555 1_555
H19_2 C34_2 1_555 1_555
C36_2 N2_2 1_555 1_555
C37_2 C19_2 1_555 1_555
H21_2 C37_2 1_555 1_555
C39_2 N8_2 1_555 1_555
H23_2 C39_2 1_555 1_555
C40_2 C1_2 1_555 1_555
H24_2 C40_2 1_555 1_555
Cd3_2 N8_2 1_555 1_555
Cd4_2 N6_2 1_555 1_555
N9_2 Cd2_2 1_555 1_555
N10_2 Cd2_2 1_555 1_555
N11_2 Cd1_2 1_555 1_555
C3_2 C24_2 1_555 1_555
C6_2 C17_2 1_555 1_555
C8_2 C22_2 1_555 1_555
C8_2 C34_2 1_555 1_555
C10_2 C26_2 1_555 1_555
C10_2 C27_2 1_555 1_555
C11_2 C19_2 1_555 1_555
C11_2 C39_2 1_555 1_555
C12_2 C17_2 1_555 1_555
C12_2 C40_2 1_555 1_555
C14_2 C36_2 1_555 1_555
C16_2 C36_2 1_555 1_555
C21_2 C22_2 1_555 1_555
C24_2 C30_2 1_555 1_555
C26_2 C29_2 1_555 1_555
C28_2 C33_2 1_555 1_555
C31_2 C37_2 1_555 1_555
N7_2 C2_2 1_555 1_555
C2_2 H1_2 1_555 1_555
C32_2 C18_2 1_555 1_555
H17_2 C32_2 1_555 1_555
C35_2 C2_2 1_555 1_555
H20_2 C35_2 1_555 1_555
C38_2 N7_2 1_555 1_555
H22_2 C38_2 1_555 1_555
Cd4_2 N7_2 1_555 1_555
C18_2 C35_2 1_555 1_555
C32_2 C38_2 1_555 1_555
C27_3 N9_2 1_555 1_555
H12_3 C27_3 1_555 1_555
N11 C31_3 1_555 1_555
C11_3 H6_3 1_555 1_555
C31_3 H16_3 1_555 1_555
C39_3 N11 1_555 1_555
H23_3 C39_3 1_555 1_555
C11_3 C39_3 1_555 1_555
Cd3 N1_3 1_555 1_555
Cd4_2 I1_3 1_555 1_555
I2 Cd4_2 1_555 1_555
N1_3 C15_3 1_555 1_555
N2_3 Cd3 1_555 1_555
N3_3 Cd4_2 1_555 1_555
C4_3 N2_3 1_555 1_555
C7_3 N3_3 1_555 1_555
H2_3 C7_3 1_555 1_555
C13_3 C4_3 1_555 1_555
H8_3 C13_3 1_555 1_555
C14_3 C13_3 1_555 1_555
H9_3 C14_3 1_555 1_555
C15_3 C16_3 1_555 1_555
C16_3 C25_3 1_555 1_555
C20_3 C7_3 1_555 1_555
H10_3 C20_3 1_555 1_555
C21_3 C4_3 1_555 1_555
C23_3 C15_3 1_555 1_555
H11_3 C23_3 1_555 1_555
C24_3 N1_3 1_555 1_555
C25_3 C20_3 1_555 1_555
C28_3 N3_3 1_555 1_555
H13_3 C28_3 1_555 1_555
H14_3 C29_3 1_555 1_555
C30_3 C23_3 1_555 1_555
H15_3 C30_3 1_555 1_555
H17_3 C32_3 1_555 1_555
C33_3 C25_3 1_555 1_555
H18_3 C33_3 1_555 1_555
C36_3 N2_3 1_555 1_555
H22_3 C38_3 1_555 1_555
C14_3 C36_3 1_555 1_555
C16_3 C36_3 1_555 1_555
C24_3 C30_3 1_555 1_555
C28_3 C33_3 1_555 1_555
C32_3 C38_3 1_555 1_555
N10_2 C2_3 1_555 1_555
C1_3 N4_3 1_555 1_555
C2_3 H1_3 1_555 1_555
C3_3 C1_3 1_555 1_555
C5_3 N5_3 1_555 1_555
C6_3 C5_3 1_555 1_555
C8_3 H3_3 1_555 1_555
C10_3 H5_3 1_555 1_555
C12_3 H7_3 1_555 1_555
C17_3 N4_3 1_555 1_555
C19_3 C6_3 1_555 1_555
C22_3 N5_3 1_555 1_555
C26_3 C3_3 1_555 1_555
C34_3 C5_3 1_555 1_555
H19_3 C34_3 1_555 1_555
C35_3 C2_3 1_555 1_555
H20_3 C35_3 1_555 1_555
C37_3 C19_3 1_555 1_555
H21_3 C37_3 1_555 1_555
C40_3 C1_3 1_555 1_555
H24_3 C40_3 1_555 1_555
C6_3 C17_3 1_555 1_555
C8_3 C22_3 1_555 1_555
C8_3 C34_3 1_555 1_555
C10_3 C26_3 1_555 1_555
C12_3 C17_3 1_555 1_555
C12_3 C40_3 1_555 1_555
C18_3 C35_3 1_555 1_555
Cd3_2 N1_4 1_555 1_555
Cd4 I1_4 1_555 1_555
I2_2 Cd4 1_555 1_555
N1_4 C15_4 1_555 1_555
N2_4 Cd3_2 1_555 1_555
N3_4 Cd4 1_555 1_555
C4_4 N2_4 1_555 1_555
C7_4 N3_4 1_555 1_555
H2_4 C7_4 1_555 1_555
C9_3 H4_3 1_555 1_555
C13_4 C4_4 1_555 1_555
C14_4 C13_4 1_555 1_555
H9_4 C14_4 1_555 1_555
C15_4 C16_4 1_555 1_555
C16_4 C25_4 1_555 1_555
C20_4 C7_4 1_555 1_555
H10_4 C20_4 1_555 1_555
C21_4 C4_4 1_555 1_555
C23_4 C15_4 1_555 1_555
H11_4 C23_4 1_555 1_555
C24_4 N1_4 1_555 1_555
C25_4 C20_4 1_555 1_555
C28_4 N3_4 1_555 1_555
H13_4 C28_4 1_555 1_555
C29_4 C9_3 1_555 1_555
H14_4 C29_4 1_555 1_555
C30_4 C23_4 1_555 1_555
H15_4 C30_4 1_555 1_555
C33_4 C25_4 1_555 1_555
H18_4 C33_4 1_555 1_555
C36_4 N2_4 1_555 1_555
C14_4 C36_4 1_555 1_555
C16_4 C36_4 1_555 1_555
C24_4 C30_4 1_555 1_555
C28_4 C33_4 1_555 1_555
N11_2 C31_4 1_555 1_555
C1_4 N4_4 1_555 1_555
C3_4 C1_4 1_555 1_555
C5_4 N5_4 1_555 1_555
C6_4 C5_4 1_555 1_555
C10_4 H5_4 1_555 1_555
C11_4 H6_4 1_555 1_555
C12_4 H7_4 1_555 1_555
C17_4 N4_4 1_555 1_555
C19_4 C6_4 1_555 1_555
C22_4 N5_4 1_555 1_555
C26_4 C3_4 1_555 1_555
C27_4 N9 1_555 1_555
H12_4 C27_4 1_555 1_555
C31_4 H16_4 1_555 1_555
C34_4 C5_4 1_555 1_555
H19_4 C34_4 1_555 1_555
C37_4 C19_4 1_555 1_555
H21_4 C37_4 1_555 1_555
C39_4 N11_2 1_555 1_555
H23_4 C39_4 1_555 1_555
C40_4 C1_4 1_555 1_555
H24_4 C40_4 1_555 1_555
C6_4 C17_4 1_555 1_555
C8_4 C22_4 1_555 1_555
C8_4 C34_4 1_555 1_555
C10_4 C26_4 1_555 1_555
C10_4 C27_4 1_555 1_555
C11_4 C19_4 1_555 1_555
C11_4 C39_4 1_555 1_555
C12_4 C17_4 1_555 1_555
C12_4 C40_4 1_555 1_555
C31_4 C37_4 1_555 1_555
N10 C2_4 1_555 1_555
C2_4 H1_4 1_555 1_555
C35_4 C2_4 1_555 1_555
H20_4 C35_4 1_555 1_555
C18_4 C35_4 1_555 1_555
N7_3 C2_5 1_555 1_555
C1_5 N4_5 1_555 1_555
C2_5 H1_5 1_555 1_555
C3_5 C1_5 1_555 1_555
C5_5 N5_5 1_555 1_555
C6_5 C5_5 1_555 1_555
C8_5 H3_5 1_555 1_555
C10_5 H5_5 1_555 1_555
C12_5 H7_5 1_555 1_555
C17_5 N4_5 1_555 1_555
C19_5 C6_5 1_555 1_555
C22_5 N5_5 1_555 1_555
C26_5 C3_5 1_555 1_555
C34_5 C5_5 1_555 1_555
H19_5 C34_5 1_555 1_555
C35_5 C2_5 1_555 1_555
H20_5 C35_5 1_555 1_555
C37_5 C19_5 1_555 1_555
H21_5 C37_5 1_555 1_555
C40_5 C1_5 1_555 1_555
H24_5 C40_5 1_555 1_555
Cd5 N7_3 1_555 1_555
C6_5 C17_5 1_555 1_555
C8_5 C22_5 1_555 1_555
C8_5 C34_5 1_555 1_555
C10_5 C26_5 1_555 1_555
C12_5 C17_5 1_555 1_555
C12_5 C40_5 1_555 1_555
C18_5 C35_5 1_555 1_555
Cd1_3 N1_5 1_555 1_555
Cd2_3 I1_5 1_555 1_555
I2_5 Cd2_3 1_555 1_555
N1_5 C15_5 1_555 1_555
N2_5 Cd1_3 1_555 1_555
N3_5 Cd2_3 1_555 1_555
C4_5 N2_5 1_555 1_555
C7_5 N3_5 1_555 1_555
H2_5 C7_5 1_555 1_555
C13_5 C4_5 1_555 1_555
H8_4 C13_5 1_555 1_555
C14_5 C13_5 1_555 1_555
H9_5 C14_5 1_555 1_555
C15_5 C16_5 1_555 1_555
C16_5 C25_5 1_555 1_555
C20_5 C7_5 1_555 1_555
H10_5 C20_5 1_555 1_555
C21_5 C4_5 1_555 1_555
C23_5 C15_5 1_555 1_555
H11_5 C23_5 1_555 1_555
C24_5 N1_5 1_555 1_555
C25_5 C20_5 1_555 1_555
C28_5 N3_5 1_555 1_555
H13_5 C28_5 1_555 1_555
H14_5 C29_5 1_555 1_555
C30_5 C23_5 1_555 1_555
H15_5 C30_5 1_555 1_555
H17_4 C32_4 1_555 1_555
C33_5 C25_5 1_555 1_555
H18_5 C33_5 1_555 1_555
C36_5 N2_5 1_555 1_555
H22_4 C38_4 1_555 1_555
N9_3 Cd2_3 1_555 1_555
N10_3 Cd2_3 1_555 1_555
N11_3 Cd1_3 1_555 1_555
C14_5 C36_5 1_555 1_555
C16_5 C36_5 1_555 1_555
C24_5 C30_5 1_555 1_555
C28_5 C33_5 1_555 1_555
C32_4 C38_4 1_555 1_555
N8_3 C31_5 1_555 1_555
C11_5 H6_5 1_555 1_555
C31_5 H16_5 1_555 1_555
C39_5 N8_3 1_555 1_555
H23_5 C39_5 1_555 1_555
Cd3_3 N8_3 1_555 1_555
C11_5 C39_5 1_555 1_555
C27_5 N6_3 1_555 1_555
H12_5 C27_5 1_555 1_555
Cd5 N6_3 1_555 1_555
N7_4 C2_6 1_555 1_555
C2_6 H1_6 1_555 1_555
C35_6 C2_6 1_555 1_555
H20_6 C35_6 1_555 1_555
Cd5_2 N7_4 1_555 1_555
C18_6 C35_6 1_555 1_555
N8_4 C31_6 1_555 1_555
C1_6 N4_6 1_555 1_555
C3_6 C1_6 1_555 1_555
C5_6 N5_6 1_555 1_555
C6_6 C5_6 1_555 1_555
C10_6 H5_6 1_555 1_555
C11_6 H6_6 1_555 1_555
C12_6 H7_6 1_555 1_555
C17_6 N4_6 1_555 1_555
C19_6 C6_6 1_555 1_555
C22_6 N5_6 1_555 1_555
C26_6 C3_6 1_555 1_555
C27_6 N6_4 1_555 1_555
H12_6 C27_6 1_555 1_555
C31_6 H16_6 1_555 1_555
C34_6 C5_6 1_555 1_555
H19_6 C34_6 1_555 1_555
C37_6 C19_6 1_555 1_555
H21_6 C37_6 1_555 1_555
C39_6 N8_4 1_555 1_555
H23_6 C39_6 1_555 1_555
C40_6 C1_6 1_555 1_555
H24_6 C40_6 1_555 1_555
Cd3_4 N8_4 1_555 1_555
Cd5_2 N6_4 1_555 1_555
C6_6 C17_6 1_555 1_555
C8_6 C22_6 1_555 1_555
C8_6 C34_6 1_555 1_555
C10_6 C26_6 1_555 1_555
C10_6 C27_6 1_555 1_555
C11_6 C19_6 1_555 1_555
C11_6 C39_6 1_555 1_555
C12_6 C17_6 1_555 1_555
C12_6 C40_6 1_555 1_555
C31_6 C37_6 1_555 1_555
Cd1_4 N1_6 1_555 1_555
Cd2_4 I1_6 1_555 1_555
I2_6 Cd2_4 1_555 1_555
N1_6 C15_6 1_555 1_555
N2_6 Cd1_4 1_555 1_555
N3_6 Cd2_4 1_555 1_555
C4_6 N2_6 1_555 1_555
C7_6 N3_6 1_555 1_555
H2_6 C7_6 1_555 1_555
C9_4 H4_4 1_555 1_555
C13_6 C4_6 1_555 1_555
C14_6 C13_6 1_555 1_555
H9_6 C14_6 1_555 1_555
C15_6 C16_6 1_555 1_555
C16_6 C25_6 1_555 1_555
C20_6 C7_6 1_555 1_555
H10_6 C20_6 1_555 1_555
C21_6 C4_6 1_555 1_555
C23_6 C15_6 1_555 1_555
H11_6 C23_6 1_555 1_555
C24_6 N1_6 1_555 1_555
C25_6 C20_6 1_555 1_555
C28_6 N3_6 1_555 1_555
H13_6 C28_6 1_555 1_555
C29_6 C9_4 1_555 1_555
H14_6 C29_6 1_555 1_555
C30_6 C23_6 1_555 1_555
H15_6 C30_6 1_555 1_555
C33_6 C25_6 1_555 1_555
H18_6 C33_6 1_555 1_555
C36_6 N2_6 1_555 1_555
N9_4 Cd2_4 1_555 1_555
N10_4 Cd2_4 1_555 1_555
N11_4 Cd1_4 1_555 1_555
C14_6 C36_6 1_555 1_555
C16_6 C36_6 1_555 1_555
C24_6 C30_6 1_555 1_555
C28_6 C33_6 1_555 1_555
N11_3 C31_7 1_555 1_555
C11_7 H6_7 1_555 1_555
C31_7 H16_7 1_555 1_555
C39_7 N11_3 1_555 1_555
H23_7 C39_7 1_555 1_555
C11_7 C39_7 1_555 1_555
Cd3_3 N1_7 1_555 1_555
Cd5_2 I1_7 1_555 1_555
N1_7 C15_7 1_555 1_555
N2_7 Cd3_3 1_555 1_555
N3_7 Cd5_2 1_555 1_555
N4_7 Cd3_3 1_555 1_555
N5_7 Cd3_3 1_555 1_555
N10_4 C2_7 1_555 1_555
C1_7 N4_7 1_555 1_555
C2_7 H1_7 1_555 1_555
C3_7 C1_7 1_555 1_555
C4_7 N2_7 1_555 1_555
C5_7 N5_7 1_555 1_555
C6_7 C5_7 1_555 1_555
C7_7 N3_7 1_555 1_555
H2_7 C7_7 1_555 1_555
C8_7 H3_7 1_555 1_555
C10_7 H5_7 1_555 1_555
C12_7 H7_7 1_555 1_555
C13_7 C4_7 1_555 1_555
H8_5 C13_7 1_555 1_555
C14_7 C13_7 1_555 1_555
H9_7 C14_7 1_555 1_555
C15_7 C16_7 1_555 1_555
C16_7 C25_7 1_555 1_555
C17_7 N4_7 1_555 1_555
C18_7 C21_7 1_555 1_555
C19_7 C6_7 1_555 1_555
C20_7 C7_7 1_555 1_555
H10_7 C20_7 1_555 1_555
C21_7 C4_7 1_555 1_555
C22_7 N5_7 1_555 1_555
C23_7 C15_7 1_555 1_555
H11_7 C23_7 1_555 1_555
C24_7 N1_7 1_555 1_555
C25_7 C20_7 1_555 1_555
C26_7 C3_7 1_555 1_555
C28_7 N3_7 1_555 1_555
H13_7 C28_7 1_555 1_555
H14_7 C29_7 1_555 1_555
C30_7 C23_7 1_555 1_555
H15_7 C30_7 1_555 1_555
C32_5 C18_7 1_555 1_555
H17_5 C32_5 1_555 1_555
C33_7 C25_7 1_555 1_555
H18_7 C33_7 1_555 1_555
C34_7 C5_7 1_555 1_555
H19_7 C34_7 1_555 1_555
C35_7 C2_7 1_555 1_555
H20_7 C35_7 1_555 1_555
C36_7 N2_7 1_555 1_555
C37_7 C19_7 1_555 1_555
H21_7 C37_7 1_555 1_555
C38_5 N10_4 1_555 1_555
H22_5 C38_5 1_555 1_555
C40_7 C1_7 1_555 1_555
H24_7 C40_7 1_555 1_555
C3_7 C24_7 1_555 1_555
C6_7 C17_7 1_555 1_555
C8_7 C22_7 1_555 1_555
C8_7 C34_7 1_555 1_555
C10_7 C26_7 1_555 1_555
C12_7 C17_7 1_555 1_555
C12_7 C40_7 1_555 1_555
C14_7 C36_7 1_555 1_555
C16_7 C36_7 1_555 1_555
C18_7 C35_7 1_555 1_555
C21_7 C22_7 1_555 1_555
C24_7 C30_7 1_555 1_555
C26_7 C29_7 1_555 1_555
C28_7 C33_7 1_555 1_555
C32_5 C38_5 1_555 1_555
N9_4 C9_5 1_555 1_555
C9_5 H4_5 1_555 1_555
C27_7 N9_4 1_555 1_555
H12_7 C27_7 1_555 1_555
N10_3 C2_8 1_555 1_555
C2_8 H1_8 1_555 1_555
C32_6 C18_8 1_555 1_555
H17_6 C32_6 1_555 1_555
C35_8 C2_8 1_555 1_555
H20_8 C35_8 1_555 1_555
C38_6 N10_3 1_555 1_555
H22_6 C38_6 1_555 1_555
C18_8 C35_8 1_555 1_555
C32_6 C38_6 1_555 1_555
Cd3_4 N1_8 1_555 1_555
Cd5 I1_8 1_555 1_555
N1_8 C15_8 1_555 1_555
N2_8 Cd3_4 1_555 1_555
N3_8 Cd5 1_555 1_555
N4_8 Cd3_4 1_555 1_555
N5_8 Cd3_4 1_555 1_555
N9_3 C9_6 1_555 1_555
N11_4 C31_8 1_555 1_555
C1_8 N4_8 1_555 1_555
C3_8 C1_8 1_555 1_555
C4_8 N2_8 1_555 1_555
C5_8 N5_8 1_555 1_555
C6_8 C5_8 1_555 1_555
C7_8 N3_8 1_555 1_555
H2_8 C7_8 1_555 1_555
C9_6 H4_6 1_555 1_555
C10_8 H5_8 1_555 1_555
C11_8 H6_8 1_555 1_555
C12_8 H7_8 1_555 1_555
C13_8 C4_8 1_555 1_555
C14_8 C13_8 1_555 1_555
H9_8 C14_8 1_555 1_555
C15_8 C16_8 1_555 1_555
C16_8 C25_8 1_555 1_555
C17_8 N4_8 1_555 1_555
C19_8 C6_8 1_555 1_555
C20_8 C7_8 1_555 1_555
H10_8 C20_8 1_555 1_555
C21_8 C4_8 1_555 1_555
C22_8 N5_8 1_555 1_555
C23_8 C15_8 1_555 1_555
H11_8 C23_8 1_555 1_555
C24_8 N1_8 1_555 1_555
C25_8 C20_8 1_555 1_555
C26_8 C3_8 1_555 1_555
C27_8 N9_3 1_555 1_555
H12_8 C27_8 1_555 1_555
C28_8 N3_8 1_555 1_555
H13_8 C28_8 1_555 1_555
C29_8 C9_6 1_555 1_555
H14_8 C29_8 1_555 1_555
C30_8 C23_8 1_555 1_555
H15_8 C30_8 1_555 1_555
C31_8 H16_8 1_555 1_555
C33_8 C25_8 1_555 1_555
H18_8 C33_8 1_555 1_555
C34_8 C5_8 1_555 1_555
H19_8 C34_8 1_555 1_555
C36_8 N2_8 1_555 1_555
C37_8 C19_8 1_555 1_555
H21_8 C37_8 1_555 1_555
C39_8 N11_4 1_555 1_555
H23_8 C39_8 1_555 1_555
C40_8 C1_8 1_555 1_555
H24_8 C40_8 1_555 1_555
C3_8 C24_8 1_555 1_555
C6_8 C17_8 1_555 1_555
C8_8 C22_8 1_555 1_555
C8_8 C34_8 1_555 1_555
C10_8 C26_8 1_555 1_555
C10_8 C27_8 1_555 1_555
C11_8 C19_8 1_555 1_555
C11_8 C39_8 1_555 1_555
C12_8 C17_8 1_555 1_555
C12_8 C40_8 1_555 1_555
C14_8 C36_8 1_555 1_555
C16_8 C36_8 1_555 1_555
C21_8 C22_8 1_555 1_555
C24_8 C30_8 1_555 1_555
C26_8 C29_8 1_555 1_555
C28_8 C33_8 1_555 1_555
C31_8 C37_8 1_555 1_555
C9_7 H4_7 1_555 1_555
H17_7 C32_7 1_555 1_555
H22_7 C38_7 1_555 1_555
C32_7 C38_7 1_555 1_555
C9_8 H4_8 1_555 1_555
H17_8 C32_8 1_555 1_555
H22_8 C38_8 1_555 1_555
C32_8 C38_8 1_555 1_555

#END
