
###############################################################################
#
# This file contains modified crystal structure data generated from the
# MOF subset of the Cambridge Structural Database (CSD) v543 
# hosted by the Cambridge Crystallographic Data Centre (CCDC).
#
# This work is licensed under the Creative Commons
# Attribution-NonCommercial-ShareAlike 4.0 International License.
# To view a copy of this license, visit
# http://creativecommons.org/licenses/by-nc-sa/4.0/
# or send a letter to
# Creative Commons, PO Box 1866, Mountain View, CA 94042, USA.
#
# CIF created using the CSD Python API on 29 September 2022
# The structure has been converted into the P1 space group
# The structure has a 3D framework
# The original CSD entry JITPOS is in the orthorhombic crystal system
# The framework has been calculated to contain at least 10.0% void space
# The void calculation uses a probe of radius 1.32A, grid spacing 0.4
# The framework is charged, counterions have been retained in the structure
# H atom positions have been added when not included in the experimental data
#
###############################################################################

data_JITPOS
_chemical_formula_moiety         '(C184 H144 N24 O77 S8 Zn24)n'
_symmetry_cell_setting           triclinic
_symmetry_space_group_name_H-M   'P 1'
_symmetry_Int_Tables_number      1
_space_group_name_Hall           'P 1'
loop_
_symmetry_equiv_pos_site_id
_symmetry_equiv_pos_as_xyz
1 x,y,z
_cell_length_a                   23.1451(14)
_cell_length_b                   27.3976(16)
_cell_length_c                   10.5482(6)
_cell_angle_alpha                90
_cell_angle_beta                 90
_cell_angle_gamma                90
_cell_volume                     6688.83
loop_
_atom_site_label
_atom_site_type_symbol
_atom_site_fract_x
_atom_site_fract_y
_atom_site_fract_z
S1 S 0.09990(8) 0.06768(7) 0.7528(2)
C3 C 0.0529(3) 0.0193(3) 0.7962(7)
O9 O 0.0644(2) 0.1115(2) 0.7549(7)
O10 O 0.1205(3) 0.0572(3) 0.6251(7)
O11 O 0.1457(3) 0.0684(2) 0.8456(7)
O17 O 0.2567(2) 0.03091(17) 0.7463(4)
O4 O 0.1486(2) 0.96273(18) 0.0031(5)
Zn9 Zn 0.23062(3) 0.95848(3) 0.06242(8)
O5 O 0.1688(2) 0.95934(17) 0.7974(5)
C1 C 0.1353(3) 0.9666(3) 0.8881(7)
C5 C 0.0727(3) 0.9773(3) 0.8606(7)
C9 C 0.0319(3) 0.9437(3) 0.9018(8)
H4 H 0.0438 0.9169 0.9507
Zn12 Zn 0.27087(4) 0.95589(3) 0.74291(8)
O14 O 0.2918(2) 0.96207(17) 0.9320(5)
O19 O 0.3602(2) 0.95747(17) 0.7097(5)
O27 O 0.2612(2) 0.96160(16) 0.5479(5)
H21 H 0.296(3) 0.951(2) 0.505(7)
N5 N 0.2646(3) 0.8794(2) 0.7375(5)
H39 H 0.253213 0.99614 0.525394
O13 O 0.7082(2) 0.03793(17) 0.0680(5)
Zn1 Zn 0.80428(3) 0.04145(3) 0.58679(8)
O2 O 0.7567(2) 0.03091(17) 0.7537(4)
O6 O 0.8791(2) 0.02983(18) 0.6961(5)
O7 O 0.7388(2) 0.03840(16) 0.4521(5)
H1 H 0.704(3) 0.049(2) 0.495(7)
O8 O 0.8697(3) 0.0448(2) 0.4417(5)
H2 H 0.861(4) 0.044(3) 0.362(7)
H3 H 0.883(5) 0.014(3) 0.461(11)
N2 N 0.8068(3) 0.1196(2) 0.5957(6)
C4 C 0.8079(3) 0.2237(3) 0.5917(7)
C10 C 0.9948(3) 0.0235(3) 0.7660(7)
H5 H 0.9820 0.0510 0.7207
C14 C 0.8564(3) 0.1453(3) 0.5880(9)
H9 H 0.8913 0.1279 0.5842
C17 C 0.7565(3) 0.1965(3) 0.6005(8)
H12 H 0.7208 0.2127 0.6056
C20 C 0.8589(4) 0.1957(3) 0.5853(9)
H15 H 0.8949 0.2115 0.5791
C21 C 0.7581(3) 0.1464(3) 0.6017(8)
H16 H 0.7228 0.1296 0.6071
Zn4 Zn 0.80428(3) 0.45855(3) 0.58679(8)
Zn6 Zn 0.30428(3) 0.04145(3) 0.91321(8)
Zn8 Zn 0.76938(3) 0.04152(3) 0.93758(8)
Zn11 Zn 0.73062(3) 0.54152(3) 0.43758(8)
Zn13 Zn 0.72913(4) 0.04411(3) 0.25709(8)
Zn16 Zn 0.77087(4) 0.54411(3) 0.75709(8)
S2 S 0.59990(8) 0.06768(7) 0.7472(2)
O12 O 0.7918(2) 0.53793(17) 0.5680(5)
O16 O 0.7567(2) 0.46909(17) 0.7537(4)
O21 O 0.8514(2) 0.03727(18) 0.9969(5)
O23 O 0.3791(2) 0.02983(18) 0.8039(5)
O24 O 0.8791(2) 0.47017(18) 0.6961(5)
O26 O 0.7388(2) 0.46160(16) 0.4521(5)
H20 H 0.704(3) 0.451(2) 0.495(7)
O28 O 0.8697(3) 0.4552(2) 0.4417(5)
H22 H 0.861(4) 0.456(3) 0.362(7)
H23 H 0.883(5) 0.486(3) 0.461(11)
N6 N 0.8068(3) 0.3804(2) 0.5957(6)
C26 C 0.5529(3) 0.0193(3) 0.7038(7)
C27 C 0.8079(3) 0.2763(3) 0.5917(7)
N8 N 0.7719(3) 0.1201(2) 0.9285(6)
O29 O 0.5644(2) 0.1115(2) 0.7451(7)
O30 O 0.6205(3) 0.0572(3) 0.8749(7)
C33 C 0.4948(3) 0.0235(3) 0.7340(7)
H25 H 0.4820 0.0510 0.7793
O31 O 0.6457(3) 0.0684(2) 0.6544(7)
C37 C 0.8564(3) 0.3547(3) 0.5880(9)
H29 H 0.8913 0.3721 0.5842
C40 C 0.7565(3) 0.3035(3) 0.6005(8)
H32 H 0.7208 0.2873 0.6056
C43 C 0.8589(4) 0.3043(3) 0.5853(9)
H35 H 0.8949 0.2885 0.5791
C44 C 0.7581(3) 0.3536(3) 0.6017(8)
H36 H 0.7228 0.3704 0.6071
Zn7 Zn 0.69572(3) 0.95855(3) 0.08679(8)
Zn2 Zn 0.73062(3) 0.95848(3) 0.43758(8)
Zn3 Zn 0.77087(4) 0.95589(3) 0.75709(8)
O1 O 0.7918(2) 0.96207(17) 0.5680(5)
O3 O 0.8602(2) 0.95747(17) 0.7903(5)
N1 N 0.7646(3) 0.8794(2) 0.7625(5)
C2 C 0.9554(3) 0.9884(3) 0.8010(7)
N3 N 0.7281(3) 0.8799(2) 0.4285(6)
C6 C 0.7634(3) 0.7768(3) 0.7705(7)
C7 C 0.7273(3) 0.7766(3) 0.4246(7)
C8 C 0.8927(3) 0.9925(3) 0.7590(7)
C11 C 0.7771(3) 0.8533(3) 0.4348(9)
H6 H 0.8124 0.8701 0.4392
C12 C 0.8122(4) 0.8540(3) 0.7811(11)
H7 H 0.8471 0.8710 0.7917
C13 C 0.9741(3) 0.9490(3) 0.8721(8)
H8 H 0.9473 0.9257 0.9005
C15 C 0.6795(4) 0.8548(3) 0.4182(8)
H10 H 0.6446 0.8722 0.4120
C16 C 0.6771(3) 0.8037(3) 0.4158(8)
H11 H 0.6413 0.7878 0.4082
C18 C 0.7785(4) 0.8031(3) 0.4351(9)
H13 H 0.8140 0.7867 0.4425
C19 C 0.7153(4) 0.8538(3) 0.7538(9)
H14 H 0.6803 0.8710 0.7459
C22 C 0.8135(4) 0.8038(3) 0.7859(11)
H17 H 0.8487 0.7877 0.7998
C23 C 0.7135(4) 0.8036(3) 0.7559(9)
H18 H 0.6779 0.7874 0.7473
O15 O 0.7433(2) 0.96909(17) 0.2537(4)
O20 O 0.6486(2) 0.96273(18) 0.4969(5)
O22 O 0.6688(2) 0.95934(17) 0.7026(5)
O25 O 0.7612(2) 0.96160(16) 0.9521(5)
H19 H 0.796(3) 0.951(2) 0.995(7)
C24 C 0.6353(3) 0.9666(3) 0.6119(7)
N4 N 0.7646(3) 0.6206(2) 0.7625(5)
C25 C 0.4554(3) 0.9884(3) 0.6990(7)
N7 N 0.7281(3) 0.6201(2) 0.4285(6)
C28 C 0.5727(3) 0.9773(3) 0.6394(7)
C29 C 0.7634(3) 0.7232(3) 0.7705(7)
C30 C 0.7273(3) 0.7234(3) 0.4246(7)
C31 C 0.3927(3) 0.9925(3) 0.7410(7)
C32 C 0.5319(3) 0.9437(3) 0.5982(8)
H24 H 0.5438 0.9169 0.5493
C34 C 0.7771(3) 0.6467(3) 0.4348(9)
H26 H 0.8124 0.6299 0.4392
C35 C 0.8122(4) 0.6460(3) 0.7811(11)
H27 H 0.8471 0.6290 0.7917
C36 C 0.4741(3) 0.9490(3) 0.6279(8)
H28 H 0.4473 0.9257 0.5995
C38 C 0.6795(4) 0.6452(3) 0.4182(8)
H30 H 0.6446 0.6278 0.4120
C39 C 0.6771(3) 0.6963(3) 0.4158(8)
H31 H 0.6413 0.7122 0.4082
C41 C 0.7785(4) 0.6969(3) 0.4351(9)
H33 H 0.8140 0.7133 0.4425
C42 C 0.7153(4) 0.6462(3) 0.7538(9)
H34 H 0.6803 0.6290 0.7459
C45 C 0.8135(4) 0.6962(3) 0.7859(11)
H37 H 0.8487 0.7123 0.7998
C46 C 0.7135(4) 0.6964(3) 0.7559(9)
H38 H 0.6779 0.7126 0.7473
Zn15 Zn 0.22913(4) 0.04411(3) 0.24291(8)
O18 O 0.1398(2) 0.04253(17) 0.2097(5)
C25_2 C 0.0446(3) 0.0116(3) 0.1990(7)
C31_2 C 0.1073(3) 0.0075(3) 0.2410(7)
C36_2 C 0.0259(3) 0.0510(3) 0.1279(8)
H28_2 H 0.0527 0.0743 0.0995
Zn6_2 Zn 0.19572(3) 0.95855(3) 0.41321(8)
O23_2 O 0.1209(2) 0.97017(18) 0.3039(5)
C33_2 C 0.0052(3) 0.9765(3) 0.2340(7)
H25_2 H 0.0180 0.9490 0.2793
O3_2 O 0.6398(2) 0.04253(17) 0.2903(5)
O4_2 O 0.3514(2) 0.03727(18) 0.5031(5)
O5_2 O 0.3312(2) 0.04066(17) 0.2974(5)
C1_2 C 0.3647(3) 0.0334(3) 0.3881(7)
N1_2 N 0.7354(3) 0.1206(2) 0.2625(5)
C2_2 C 0.5446(3) 0.0116(3) 0.3010(7)
C5_2 C 0.4273(3) 0.0227(3) 0.3606(7)
C6_2 C 0.7366(3) 0.2232(3) 0.2705(7)
C8_2 C 0.6073(3) 0.0075(3) 0.2590(7)
C9_2 C 0.4681(3) 0.0563(3) 0.4018(8)
H4_2 H 0.4562 0.0831 0.4507
C12_2 C 0.6878(4) 0.1460(3) 0.2811(11)
H7_2 H 0.6529 0.1290 0.2917
C13_2 C 0.5259(3) 0.0510(3) 0.3721(8)
H8_2 H 0.5527 0.0743 0.4005
C19_2 C 0.7847(4) 0.1462(3) 0.2538(9)
H14_2 H 0.8197 0.1290 0.2459
C22_2 C 0.6865(4) 0.1962(3) 0.2859(11)
H17_2 H 0.6513 0.2123 0.2998
C23_2 C 0.7865(4) 0.1964(3) 0.2559(9)
H18_2 H 0.8221 0.2126 0.2473
Zn9_2 Zn 0.26938(3) 0.04152(3) 0.56242(8)
Zn14 Zn 0.72913(4) 0.45589(3) 0.25709(8)
O14_2 O 0.2082(2) 0.03793(17) 0.4320(5)
O22_2 O 0.8312(2) 0.04066(17) 0.2026(5)
O27_2 O 0.2388(2) 0.03840(16) 0.0479(5)
H21_2 H 0.204(3) 0.049(2) 0.005(7)
C24_2 C 0.8647(3) 0.0334(3) 0.1119(7)
N4_2 N 0.7354(3) 0.3794(2) 0.2625(5)
N5_2 N 0.2354(3) 0.1206(2) 0.2375(5)
C28_2 C 0.9273(3) 0.0227(3) 0.1394(7)
C29_2 C 0.7366(3) 0.2768(3) 0.2705(7)
C32_2 C 0.9681(3) 0.0563(3) 0.0982(8)
H24_2 H 0.9562 0.0831 0.0493
C35_2 C 0.6878(4) 0.3540(3) 0.2811(11)
H27_2 H 0.6529 0.3710 0.2917
C42_2 C 0.7847(4) 0.3538(3) 0.2538(9)
H34_2 H 0.8197 0.3710 0.2459
C45_2 C 0.6865(4) 0.3038(3) 0.2859(11)
H37_2 H 0.6513 0.2877 0.2998
C46_2 C 0.7865(4) 0.3036(3) 0.2559(9)
H38_2 H 0.8221 0.2874 0.2473
H39_2 H 0.246787 0.00385984 0.0253944
C7_2 C 0.7727(3) 0.2234(3) 0.9246(7)
C11_2 C 0.7229(3) 0.1467(3) 0.9348(9)
H6_2 H 0.6876 0.1299 0.9392
C15_2 C 0.8205(4) 0.1452(3) 0.9182(8)
H10_2 H 0.8554 0.1278 0.9120
C16_2 C 0.8229(3) 0.1963(3) 0.9158(8)
H11_2 H 0.8587 0.2122 0.9082
C18_2 C 0.7215(4) 0.1969(3) 0.9351(9)
H13_2 H 0.6860 0.2133 0.9425
Zn10 Zn 0.76938(3) 0.45848(3) 0.93758(8)
N7_2 N 0.7719(3) 0.3799(2) 0.9285(6)
C30_2 C 0.7727(3) 0.2766(3) 0.9246(7)
C34_2 C 0.7229(3) 0.3533(3) 0.9348(9)
H26_2 H 0.6876 0.3701 0.9392
C38_2 C 0.8205(4) 0.3548(3) 0.9182(8)
H30_2 H 0.8554 0.3722 0.9120
C39_2 C 0.8229(3) 0.3037(3) 0.9158(8)
H31_2 H 0.8587 0.2878 0.9082
C41_2 C 0.7215(4) 0.3031(3) 0.9351(9)
H33_2 H 0.6860 0.2867 0.9425
S1_2 S 0.40010(8) 0.93232(7) 0.2528(2)
O6_2 O 0.6209(2) 0.97017(18) 0.1961(5)
N2_2 N 0.6932(3) 0.8804(2) 0.0957(6)
C3_2 C 0.4471(3) 0.9807(3) 0.2962(7)
C4_2 C 0.6921(3) 0.7763(3) 0.0917(7)
O9_2 O 0.4356(2) 0.8885(2) 0.2549(7)
O10_2 O 0.3795(3) 0.9428(3) 0.1251(7)
C10_2 C 0.5052(3) 0.9765(3) 0.2660(7)
H5_2 H 0.5180 0.9490 0.2207
O11_2 O 0.3543(3) 0.9316(2) 0.3456(7)
C14_2 C 0.6436(3) 0.8547(3) 0.0880(9)
H9_2 H 0.6087 0.8721 0.0842
C17_2 C 0.7435(3) 0.8035(3) 0.1005(8)
H12_2 H 0.7792 0.7873 0.1056
C20_2 C 0.6411(4) 0.8043(3) 0.0853(9)
H15_2 H 0.6051 0.7885 0.0791
C21_2 C 0.7419(3) 0.8536(3) 0.1017(8)
H16_2 H 0.7772 0.8704 0.1071
Zn4_2 Zn 0.69572(3) 0.54145(3) 0.08679(8)
S2_2 S 0.90010(8) 0.93232(7) 0.2472(2)
O12_2 O 0.7082(2) 0.46207(17) 0.0680(5)
O16_2 O 0.7433(2) 0.53091(17) 0.2537(4)
O17_2 O 0.2433(2) 0.96909(17) 0.2463(4)
O24_2 O 0.6209(2) 0.52983(18) 0.1961(5)
N6_2 N 0.6932(3) 0.6196(2) 0.0957(6)
C26_2 C 0.9471(3) 0.9807(3) 0.2038(7)
C27_2 C 0.6921(3) 0.7237(3) 0.0917(7)
O29_2 O 0.9356(2) 0.8885(2) 0.2451(7)
O30_2 O 0.8795(3) 0.9428(3) 0.3749(7)
O31_2 O 0.8543(3) 0.9316(2) 0.1544(7)
C37_2 C 0.6436(3) 0.6453(3) 0.0880(9)
H29_2 H 0.6087 0.6279 0.0842
C40_2 C 0.7435(3) 0.6965(3) 0.1005(8)
H32_2 H 0.7792 0.7127 0.1056
C43_2 C 0.6411(4) 0.6957(3) 0.0853(9)
H35_2 H 0.6051 0.7115 0.0791
C44_2 C 0.7419(3) 0.6464(3) 0.1017(8)
H36_2 H 0.7772 0.6296 0.1071
O8_2 O 0.6303(3) 0.9552(2) 0.9417(5)
H2_2 H 0.639(4) 0.956(3) 0.862(7)
H3_2 H 0.617(5) 0.986(3) 0.961(11)
O26_2 O 0.7612(2) 0.53840(16) 0.9521(5)
H20_2 H 0.796(3) 0.549(2) 0.995(7)
O28_2 O 0.6303(3) 0.5448(2) 0.9417(5)
H22_2 H 0.639(4) 0.544(3) 0.862(7)
H23_2 H 0.617(5) 0.514(3) 0.961(11)
Zn2_2 Zn 0.23062(3) 0.54152(3) 0.06242(8)
O7_2 O 0.2388(2) 0.46160(16) 0.0479(5)
H1_2 H 0.204(3) 0.451(2) 0.005(7)
O8_3 O 0.3697(3) 0.4552(2) 0.0583(5)
H2_3 H 0.361(4) 0.456(3) 0.138(7)
H3_3 H 0.383(5) 0.486(3) 0.039(11)
N3_2 N 0.2281(3) 0.6201(2) 0.0715(6)
C7_3 C 0.2273(3) 0.7234(3) 0.0754(7)
C11_3 C 0.2771(3) 0.6467(3) 0.0652(9)
H6_3 H 0.3124 0.6299 0.0608
C15_3 C 0.1795(4) 0.6452(3) 0.0818(8)
H10_3 H 0.1446 0.6278 0.0880
C16_3 C 0.1771(3) 0.6963(3) 0.0842(8)
H11_3 H 0.1413 0.7122 0.0918
C18_3 C 0.2785(4) 0.6969(3) 0.0649(9)
H13_3 H 0.3140 0.7133 0.0575
Zn5 Zn 0.19572(3) 0.54145(3) 0.41321(8)
Zn13_2 Zn 0.22913(4) 0.45589(3) 0.24291(8)
O15_2 O 0.2433(2) 0.53091(17) 0.2463(4)
O20_2 O 0.1486(2) 0.53727(18) 0.0031(5)
O28_3 O 0.3697(3) 0.0448(2) 0.0583(5)
H22_3 H 0.361(4) 0.044(3) 0.138(7)
H23_3 H 0.383(5) 0.014(3) 0.039(11)
N7_3 N 0.2281(3) 0.8799(2) 0.0715(6)
C30_3 C 0.2273(3) 0.7766(3) 0.0754(7)
C34_3 C 0.2771(3) 0.8533(3) 0.0652(9)
H26_3 H 0.3124 0.8701 0.0608
C38_3 C 0.1795(4) 0.8548(3) 0.0818(8)
H30_3 H 0.1446 0.8722 0.0880
C39_3 C 0.1771(3) 0.8037(3) 0.0842(8)
H31_3 H 0.1413 0.7878 0.0918
C41_3 C 0.2785(4) 0.8031(3) 0.0649(9)
H33_3 H 0.3140 0.7867 0.0575
Zn1_2 Zn 0.30428(3) 0.45855(3) 0.91321(8)
Zn3_2 Zn 0.27087(4) 0.54411(3) 0.74291(8)
S1_3 S 0.59990(8) 0.43232(7) 0.7472(2)
O1_2 O 0.2918(2) 0.53793(17) 0.9320(5)
O2_2 O 0.2567(2) 0.46909(17) 0.7463(4)
O3_3 O 0.3602(2) 0.54253(17) 0.7097(5)
O4_3 O 0.6486(2) 0.53727(18) 0.4969(5)
O5_3 O 0.6688(2) 0.54066(17) 0.7026(5)
O6_3 O 0.3791(2) 0.47017(18) 0.8039(5)
C1_3 C 0.6353(3) 0.5334(3) 0.6119(7)
N1_3 N 0.2646(3) 0.6206(2) 0.7375(5)
N2_3 N 0.3068(3) 0.3804(2) 0.9043(6)
C2_3 C 0.4554(3) 0.5116(3) 0.6990(7)
C3_3 C 0.5529(3) 0.4807(3) 0.7038(7)
C4_3 C 0.3079(3) 0.2763(3) 0.9083(7)
C5_3 C 0.5727(3) 0.5227(3) 0.6394(7)
C6_3 C 0.2634(3) 0.7232(3) 0.7295(7)
C8_3 C 0.3927(3) 0.5075(3) 0.7410(7)
O9_3 O 0.5644(2) 0.3885(2) 0.7451(7)
C9_3 C 0.5319(3) 0.5563(3) 0.5982(8)
H4_3 H 0.5438 0.5831 0.5493
O10_3 O 0.6205(3) 0.4428(3) 0.8749(7)
C10_3 C 0.4948(3) 0.4765(3) 0.7340(7)
H5_3 H 0.4820 0.4490 0.7793
O11_3 O 0.6457(3) 0.4316(2) 0.6544(7)
C12_3 C 0.3122(4) 0.6460(3) 0.7189(11)
H7_3 H 0.3471 0.6290 0.7083
C13_3 C 0.4741(3) 0.5510(3) 0.6279(8)
H8_3 H 0.4473 0.5743 0.5995
C14_3 C 0.3564(3) 0.3547(3) 0.9120(9)
H9_3 H 0.3913 0.3721 0.9158
C17_3 C 0.2565(3) 0.3035(3) 0.8995(8)
H12_3 H 0.2208 0.2873 0.8944
C19_3 C 0.2153(4) 0.6462(3) 0.7462(9)
H14_3 H 0.1803 0.6290 0.7541
C20_3 C 0.3589(4) 0.3043(3) 0.9147(9)
H15_3 H 0.3949 0.2885 0.9209
C21_3 C 0.2581(3) 0.3536(3) 0.8983(8)
H16_3 H 0.2228 0.3704 0.8929
C22_3 C 0.3135(4) 0.6962(3) 0.7141(11)
H17_3 H 0.3487 0.7123 0.7002
C23_3 C 0.2135(4) 0.6964(3) 0.7441(9)
H18_3 H 0.1779 0.7126 0.7527
Zn8_2 Zn 0.26938(3) 0.45848(3) 0.56242(8)
S2_3 S 0.09990(8) 0.43232(7) 0.7528(2)
O13_2 O 0.2082(2) 0.46207(17) 0.4320(5)
O19_2 O 0.8602(2) 0.54253(17) 0.7903(5)
O21_2 O 0.3514(2) 0.46273(18) 0.5031(5)
O22_3 O 0.1688(2) 0.54066(17) 0.7974(5)
O25_2 O 0.2612(2) 0.53840(16) 0.5479(5)
H19_2 H 0.296(3) 0.549(2) 0.505(7)
C24_3 C 0.1353(3) 0.5334(3) 0.8881(7)
N6_3 N 0.3068(3) 0.1196(2) 0.9043(6)
C26_3 C 0.0529(3) 0.4807(3) 0.7962(7)
C27_3 C 0.3079(3) 0.2237(3) 0.9083(7)
N8_2 N 0.2719(3) 0.3799(2) 0.5715(6)
C28_3 C 0.0727(3) 0.5227(3) 0.8606(7)
C29_3 C 0.2634(3) 0.7768(3) 0.7295(7)
O29_3 O 0.0644(2) 0.3885(2) 0.7549(7)
C32_3 C 0.0319(3) 0.5563(3) 0.9018(8)
H24_3 H 0.0438 0.5831 0.9507
O30_3 O 0.1205(3) 0.4428(3) 0.6251(7)
O31_3 O 0.1457(3) 0.4316(2) 0.8456(7)
C35_3 C 0.3122(4) 0.8540(3) 0.7189(11)
H27_3 H 0.3471 0.8710 0.7083
C37_3 C 0.3564(3) 0.1453(3) 0.9120(9)
H29_3 H 0.3913 0.1279 0.9158
C40_3 C 0.2565(3) 0.1965(3) 0.8995(8)
H32_3 H 0.2208 0.2127 0.8944
C42_3 C 0.2153(4) 0.8538(3) 0.7462(9)
H34_3 H 0.1803 0.8710 0.7541
C43_3 C 0.3589(4) 0.1957(3) 0.9147(9)
H35_3 H 0.3949 0.2115 0.9209
C44_3 C 0.2581(3) 0.1464(3) 0.8983(8)
H36_3 H 0.2228 0.1296 0.8929
C45_3 C 0.3135(4) 0.8038(3) 0.7141(11)
H37_3 H 0.3487 0.7877 0.7002
C46_3 C 0.2135(4) 0.8036(3) 0.7441(9)
H38_3 H 0.1779 0.7874 0.7527
H39_3 H 0.753213 0.50386 0.974606
C25_3 C 0.9554(3) 0.5116(3) 0.8010(7)
C31_3 C 0.8927(3) 0.5075(3) 0.7590(7)
C33_3 C 0.9948(3) 0.4765(3) 0.7660(7)
H25_3 H 0.9820 0.4490 0.7207
C36_3 C 0.9741(3) 0.5510(3) 0.8721(8)
H28_3 H 0.9473 0.5743 0.9005
O3_4 O 0.1398(2) 0.45747(17) 0.2097(5)
O6_4 O 0.1209(2) 0.52983(18) 0.3039(5)
O8_4 O 0.1303(3) 0.5448(2) 0.5583(5)
H2_4 H 0.139(4) 0.544(3) 0.638(7)
H3_4 H 0.117(5) 0.514(3) 0.539(11)
N1_4 N 0.2354(3) 0.3794(2) 0.2375(5)
N2_4 N 0.1932(3) 0.6196(2) 0.4043(6)
C2_4 C 0.0446(3) 0.4884(3) 0.1990(7)
C4_4 C 0.1921(3) 0.7237(3) 0.4083(7)
C6_4 C 0.2366(3) 0.2768(3) 0.2295(7)
C7_4 C 0.2727(3) 0.2766(3) 0.5754(7)
C8_4 C 0.1073(3) 0.4925(3) 0.2410(7)
C10_4 C 0.0052(3) 0.5235(3) 0.2340(7)
H5_4 H 0.0180 0.5510 0.2793
C11_4 C 0.2229(3) 0.3533(3) 0.5652(9)
H6_4 H 0.1876 0.3701 0.5608
C12_4 C 0.1878(4) 0.3540(3) 0.2189(11)
H7_4 H 0.1529 0.3710 0.2083
C13_4 C 0.0259(3) 0.4490(3) 0.1279(8)
H8_4 H 0.0527 0.4257 0.0995
C14_4 C 0.1436(3) 0.6453(3) 0.4120(9)
H9_4 H 0.1087 0.6279 0.4158
C15_4 C 0.3205(4) 0.3548(3) 0.5818(8)
H10_4 H 0.3554 0.3722 0.5880
C16_4 C 0.3229(3) 0.3037(3) 0.5842(8)
H11_4 H 0.3587 0.2878 0.5918
C17_4 C 0.2435(3) 0.6965(3) 0.3995(8)
H12_4 H 0.2792 0.7127 0.3944
C18_4 C 0.2215(4) 0.3031(3) 0.5649(9)
H13_4 H 0.1860 0.2867 0.5575
C19_4 C 0.2847(4) 0.3538(3) 0.2462(9)
H14_4 H 0.3197 0.3710 0.2541
C20_4 C 0.1411(4) 0.6957(3) 0.4147(9)
H15_4 H 0.1051 0.7115 0.4209
C21_4 C 0.2419(3) 0.6464(3) 0.3983(8)
H16_4 H 0.2772 0.6296 0.3929
C22_4 C 0.1865(4) 0.3038(3) 0.2141(11)
H17_4 H 0.1513 0.2877 0.2002
C23_4 C 0.2865(4) 0.3036(3) 0.2441(9)
H18_4 H 0.3221 0.2874 0.2527
S2_4 S 0.40010(8) 0.56768(7) 0.2528(2)
O18_2 O 0.6398(2) 0.45747(17) 0.2903(5)
O22_4 O 0.3312(2) 0.45934(17) 0.2974(5)
O28_4 O 0.1303(3) 0.9552(2) 0.5583(5)
H22_4 H 0.139(4) 0.956(3) 0.638(7)
H23_4 H 0.117(5) 0.986(3) 0.539(11)
C24_4 C 0.3647(3) 0.4666(3) 0.3881(7)
N6_4 N 0.1932(3) 0.8804(2) 0.4043(6)
C25_4 C 0.5446(3) 0.4884(3) 0.3010(7)
C26_4 C 0.4471(3) 0.5193(3) 0.2962(7)
C27_4 C 0.1921(3) 0.7763(3) 0.4083(7)
N7_4 N 0.2719(3) 0.1201(2) 0.5715(6)
C28_4 C 0.4273(3) 0.4773(3) 0.3606(7)
C29_4 C 0.2366(3) 0.2232(3) 0.2295(7)
C30_4 C 0.2727(3) 0.2234(3) 0.5754(7)
C31_4 C 0.6073(3) 0.4925(3) 0.2590(7)
O29_4 O 0.4356(2) 0.6115(2) 0.2549(7)
C32_4 C 0.4681(3) 0.4437(3) 0.4018(8)
H24_4 H 0.4562 0.4169 0.4507
O30_4 O 0.3795(3) 0.5572(3) 0.1251(7)
C33_4 C 0.5052(3) 0.5235(3) 0.2660(7)
H25_4 H 0.5180 0.5510 0.2207
O31_4 O 0.3543(3) 0.5684(2) 0.3456(7)
C34_4 C 0.2229(3) 0.1467(3) 0.5652(9)
H26_4 H 0.1876 0.1299 0.5608
C35_4 C 0.1878(4) 0.1460(3) 0.2189(11)
H27_4 H 0.1529 0.1290 0.2083
C36_4 C 0.5259(3) 0.4490(3) 0.3721(8)
H28_4 H 0.5527 0.4257 0.4005
C37_4 C 0.1436(3) 0.8547(3) 0.4120(9)
H29_4 H 0.1087 0.8721 0.4158
C38_4 C 0.3205(4) 0.1452(3) 0.5818(8)
H30_4 H 0.3554 0.1278 0.5880
C39_4 C 0.3229(3) 0.1963(3) 0.5842(8)
H31_4 H 0.3587 0.2122 0.5918
C40_4 C 0.2435(3) 0.8035(3) 0.3995(8)
H32_4 H 0.2792 0.7873 0.3944
C41_4 C 0.2215(4) 0.1969(3) 0.5649(9)
H33_4 H 0.1860 0.2133 0.5575
C42_4 C 0.2847(4) 0.1462(3) 0.2462(9)
H34_4 H 0.3197 0.1290 0.2541
C43_4 C 0.1411(4) 0.8043(3) 0.4147(9)
H35_4 H 0.1051 0.7885 0.4209
C44_4 C 0.2419(3) 0.8536(3) 0.3983(8)
H36_4 H 0.2772 0.8704 0.3929
C45_4 C 0.1865(4) 0.1962(3) 0.2141(11)
H37_4 H 0.1513 0.2123 0.2002
C46_4 C 0.2865(4) 0.1964(3) 0.2441(9)
H38_4 H 0.3221 0.2126 0.2527
S1_4 S 0.90010(8) 0.56768(7) 0.2472(2)
O5_4 O 0.8312(2) 0.45934(17) 0.2026(5)
C1_4 C 0.8647(3) 0.4666(3) 0.1119(7)
C3_4 C 0.9471(3) 0.5193(3) 0.2038(7)
C5_4 C 0.9273(3) 0.4773(3) 0.1394(7)
O9_4 O 0.9356(2) 0.6115(2) 0.2451(7)
C9_4 C 0.9681(3) 0.4437(3) 0.0982(8)
H4_4 H 0.9562 0.4169 0.0493
O10_4 O 0.8795(3) 0.5572(3) 0.3749(7)
O11_4 O 0.8543(3) 0.5684(2) 0.1544(7)
H39_4 H 0.746787 0.49614 0.474606
O4_4 O 0.8514(2) 0.46273(18) 0.9969(5)
H39_5 H 0.746787 0.00385984 0.474606
H39_6 H 0.753213 0.99614 0.974606
H39_7 H 0.246787 0.49614 0.0253944
H39_8 H 0.253213 0.50386 0.525394
loop_
_geom_bond_atom_site_label_1
_geom_bond_atom_site_label_2
_geom_bond_site_symmetry_1
_geom_bond_site_symmetry_2
S1 C3 1_555 1_555
O9 S1 1_555 1_555
O10 S1 1_555 1_555
O11 S1 1_555 1_555
Zn9 O4 1_555 1_555
O5 C1 1_555 1_555
C1 C5 1_555 1_555
C5 C9 1_555 1_555
C9 H4 1_555 1_555
Zn12 O5 1_555 1_555
O19 Zn12 1_555 1_555
O27 Zn12 1_555 1_555
H21 O27 1_555 1_555
N5 Zn12 1_555 1_555
Zn12 O14 1_555 1_555
O27 H39 1_555 1_555
O2 Zn1 1_555 1_555
O6 Zn1 1_555 1_555
O7 Zn1 1_555 1_555
H1 O7 1_555 1_555
O8 Zn1 1_555 1_555
H2 O8 1_555 1_555
H3 O8 1_555 1_555
N2 Zn1 1_555 1_555
C4 C17 1_555 1_555
H5 C10 1_555 1_555
C14 N2 1_555 1_555
H9 C14 1_555 1_555
C17 H12 1_555 1_555
C20 C4 1_555 1_555
H15 C20 1_555 1_555
C21 N2 1_555 1_555
H16 C21 1_555 1_555
Zn4 O12 1_555 1_555
Zn6 O23 1_555 1_555
Zn8 O2 1_555 1_555
Zn11 O12 1_555 1_555
Zn13 O7 1_555 1_555
Zn16 O12 1_555 1_555
S2 C26 1_555 1_555
O16 Zn4 1_555 1_555
O21 Zn8 1_555 1_555
O24 Zn4 1_555 1_555
O26 Zn4 1_555 1_555
H20 O26 1_555 1_555
O28 Zn4 1_555 1_555
H22 O28 1_555 1_555
H23 O28 1_555 1_555
N6 Zn4 1_555 1_555
C27 C4 1_555 1_555
N8 Zn8 1_555 1_555
O29 S2 1_555 1_555
O30 S2 1_555 1_555
H25 C33 1_555 1_555
O31 S2 1_555 1_555
C37 N6 1_555 1_555
H29 C37 1_555 1_555
C40 C27 1_555 1_555
H32 C40 1_555 1_555
C43 C27 1_555 1_555
H35 C43 1_555 1_555
C44 N6 1_555 1_555
H36 C44 1_555 1_555
C14 C20 1_555 1_555
C17 C21 1_555 1_555
Zn11 O26 1_555 1_555
Zn16 O16 1_555 1_555
C26 C33 1_555 1_555
C37 C43 1_555 1_555
C40 C44 1_555 1_555
Zn2 O1 1_555 1_555
Zn3 O1 1_555 1_555
O3 Zn3 1_555 1_555
N1 Zn3 1_555 1_555
C2 C8 1_555 1_555
N3 Zn2 1_555 1_555
C6 C22 1_555 1_555
C7 C16 1_555 1_555
C8 O3 1_555 1_555
C11 N3 1_555 1_555
H6 C11 1_555 1_555
C12 N1 1_555 1_555
H7 C12 1_555 1_555
C13 C2 1_555 1_555
H8 C13 1_555 1_555
C15 N3 1_555 1_555
H10 C15 1_555 1_555
C16 C15 1_555 1_555
H11 C16 1_555 1_555
C18 C7 1_555 1_555
H13 C18 1_555 1_555
C19 N1 1_555 1_555
H14 C19 1_555 1_555
C22 C12 1_555 1_555
H17 C22 1_555 1_555
C23 C6 1_555 1_555
H18 C23 1_555 1_555
Zn7 O15 1_555 1_555
Zn11 N7 1_555 1_555
Zn16 N4 1_555 1_555
O15 Zn2 1_555 1_555
O19 C31 1_555 1_555
O20 Zn2 1_555 1_555
O22 Zn3 1_555 1_555
O25 Zn3 1_555 1_555
H19 O25 1_555 1_555
C24 O20 1_555 1_555
N4 C35 1_555 1_555
C25 C31 1_555 1_555
N7 C34 1_555 1_555
C28 C24 1_555 1_555
C29 C6 1_555 1_555
C30 C7 1_555 1_555
C32 C28 1_555 1_555
H24 C32 1_555 1_555
C34 H26 1_555 1_555
C35 H27 1_555 1_555
C36 C25 1_555 1_555
H28 C36 1_555 1_555
C38 N7 1_555 1_555
H30 C38 1_555 1_555
C39 C30 1_555 1_555
H31 C39 1_555 1_555
C41 C30 1_555 1_555
H33 C41 1_555 1_555
C42 N4 1_555 1_555
H34 C42 1_555 1_555
C45 C29 1_555 1_555
H37 C45 1_555 1_555
C46 C29 1_555 1_555
H38 C46 1_555 1_555
C11 C18 1_555 1_555
C19 C23 1_555 1_555
O22 C24 1_555 1_555
C32 C36 1_555 1_555
C34 C41 1_555 1_555
C35 C45 1_555 1_555
C38 C39 1_555 1_555
C42 C46 1_555 1_555
Zn15 O18 1_555 1_555
O18 C31_2 1_555 1_555
C25_2 C31_2 1_555 1_555
C36_2 C25_2 1_555 1_555
H28_2 C36_2 1_555 1_555
Zn6_2 O23_2 1_555 1_555
H25_2 C33_2 1_555 1_555
Zn13 O13 1_555 1_555
O3_2 Zn13 1_555 1_555
O4_2 C1_2 1_555 1_555
O5_2 C1_2 1_555 1_555
C1_2 C5_2 1_555 1_555
N1_2 Zn13 1_555 1_555
C2_2 C8_2 1_555 1_555
C5_2 C9_2 1_555 1_555
C6_2 C22_2 1_555 1_555
C8_2 O3_2 1_555 1_555
C9_2 H4_2 1_555 1_555
C12_2 N1_2 1_555 1_555
H7_2 C12_2 1_555 1_555
C13_2 C2_2 1_555 1_555
H8_2 C13_2 1_555 1_555
C19_2 N1_2 1_555 1_555
H14_2 C19_2 1_555 1_555
C22_2 C12_2 1_555 1_555
H17_2 C22_2 1_555 1_555
C23_2 C6_2 1_555 1_555
H18_2 C23_2 1_555 1_555
Zn9_2 O4_2 1_555 1_555
Zn15 O5_2 1_555 1_555
Zn14 N4_2 1_555 1_555
O14_2 Zn9_2 1_555 1_555
O22_2 Zn13 1_555 1_555
O27_2 Zn15 1_555 1_555
H21_2 O27_2 1_555 1_555
N4_2 C35_2 1_555 1_555
N5_2 Zn15 1_555 1_555
C28_2 C24_2 1_555 1_555
C29_2 C6_2 1_555 1_555
C32_2 C28_2 1_555 1_555
H24_2 C32_2 1_555 1_555
C35_2 H27_2 1_555 1_555
C42_2 N4_2 1_555 1_555
H34_2 C42_2 1_555 1_555
C45_2 C29_2 1_555 1_555
H37_2 C45_2 1_555 1_555
C46_2 C29_2 1_555 1_555
H38_2 C46_2 1_555 1_555
C9_2 C13_2 1_555 1_555
C19_2 C23_2 1_555 1_555
Zn15 O14_2 1_555 1_555
O22_2 C24_2 1_555 1_555
C35_2 C45_2 1_555 1_555
C42_2 C46_2 1_555 1_555
O27_2 H39_2 1_555 1_555
C7_2 C16_2 1_555 1_555
C11_2 N8 1_555 1_555
H6_2 C11_2 1_555 1_555
C15_2 N8 1_555 1_555
H10_2 C15_2 1_555 1_555
C16_2 C15_2 1_555 1_555
H11_2 C16_2 1_555 1_555
C18_2 C7_2 1_555 1_555
H13_2 C18_2 1_555 1_555
Zn10 N7_2 1_555 1_555
N7_2 C34_2 1_555 1_555
C30_2 C7_2 1_555 1_555
C34_2 H26_2 1_555 1_555
C38_2 N7_2 1_555 1_555
H30_2 C38_2 1_555 1_555
C39_2 C30_2 1_555 1_555
H31_2 C39_2 1_555 1_555
C41_2 C30_2 1_555 1_555
H33_2 C41_2 1_555 1_555
C11_2 C18_2 1_555 1_555
C34_2 C41_2 1_555 1_555
C38_2 C39_2 1_555 1_555
S1_2 C3_2 1_555 1_555
O6_2 Zn7 1_555 1_555
N2_2 Zn7 1_555 1_555
C4_2 C17_2 1_555 1_555
O9_2 S1_2 1_555 1_555
O10_2 S1_2 1_555 1_555
H5_2 C10_2 1_555 1_555
O11_2 S1_2 1_555 1_555
C14_2 N2_2 1_555 1_555
H9_2 C14_2 1_555 1_555
C17_2 H12_2 1_555 1_555
C20_2 C4_2 1_555 1_555
H15_2 C20_2 1_555 1_555
C21_2 N2_2 1_555 1_555
H16_2 C21_2 1_555 1_555
Zn4_2 O12_2 1_555 1_555
Zn14 O12_2 1_555 1_555
S2_2 C26_2 1_555 1_555
O16_2 Zn4_2 1_555 1_555
O24_2 Zn4_2 1_555 1_555
N6_2 Zn4_2 1_555 1_555
C27_2 C4_2 1_555 1_555
O29_2 S2_2 1_555 1_555
O30_2 S2_2 1_555 1_555
O31_2 S2_2 1_555 1_555
C37_2 N6_2 1_555 1_555
H29_2 C37_2 1_555 1_555
C40_2 C27_2 1_555 1_555
H32_2 C40_2 1_555 1_555
C43_2 C27_2 1_555 1_555
H35_2 C43_2 1_555 1_555
C44_2 N6_2 1_555 1_555
H36_2 C44_2 1_555 1_555
C3_2 C10_2 1_555 1_555
C14_2 C20_2 1_555 1_555
C17_2 C21_2 1_555 1_555
Zn14 O16_2 1_555 1_555
C37_2 C43_2 1_555 1_555
C40_2 C44_2 1_555 1_555
H2_2 O8_2 1_555 1_555
H3_2 O8_2 1_555 1_555
H20_2 O26_2 1_555 1_555
H22_2 O28_2 1_555 1_555
H23_2 O28_2 1_555 1_555
Zn10 O26_2 1_555 1_555
H1_2 O7_2 1_555 1_555
H2_3 O8_3 1_555 1_555
H3_3 O8_3 1_555 1_555
N3_2 Zn2_2 1_555 1_555
C7_3 C16_3 1_555 1_555
C11_3 N3_2 1_555 1_555
H6_3 C11_3 1_555 1_555
C15_3 N3_2 1_555 1_555
H10_3 C15_3 1_555 1_555
C16_3 C15_3 1_555 1_555
H11_3 C16_3 1_555 1_555
C18_3 C7_3 1_555 1_555
H13_3 C18_3 1_555 1_555
Zn5 O15_2 1_555 1_555
Zn9 N7_3 1_555 1_555
Zn13_2 O7_2 1_555 1_555
O15_2 Zn2_2 1_555 1_555
O20_2 Zn2_2 1_555 1_555
H22_3 O28_3 1_555 1_555
H23_3 O28_3 1_555 1_555
N7_3 C34_3 1_555 1_555
C30_3 C7_3 1_555 1_555
C34_3 H26_3 1_555 1_555
C38_3 N7_3 1_555 1_555
H30_3 C38_3 1_555 1_555
C39_3 C30_3 1_555 1_555
H31_3 C39_3 1_555 1_555
C41_3 C30_3 1_555 1_555
H33_3 C41_3 1_555 1_555
Zn2_2 O7_2 1_555 1_555
C11_3 C18_3 1_555 1_555
Zn13_2 O15_2 1_555 1_555
C34_3 C41_3 1_555 1_555
C38_3 C39_3 1_555 1_555
Zn1_2 O1_2 1_555 1_555
Zn3_2 O1_2 1_555 1_555
S1_3 C3_3 1_555 1_555
O2_2 Zn1_2 1_555 1_555
O3_3 Zn3_2 1_555 1_555
O4_3 C1_3 1_555 1_555
O5_3 C1_3 1_555 1_555
O6_3 Zn1_2 1_555 1_555
C1_3 C5_3 1_555 1_555
N1_3 Zn3_2 1_555 1_555
N2_3 Zn1_2 1_555 1_555
C2_3 C8_3 1_555 1_555
C3_3 C5_3 1_555 1_555
C4_3 C17_3 1_555 1_555
C5_3 C9_3 1_555 1_555
C6_3 C22_3 1_555 1_555
C8_3 O3_3 1_555 1_555
O9_3 S1_3 1_555 1_555
C9_3 H4_3 1_555 1_555
O10_3 S1_3 1_555 1_555
C10_3 C2_3 1_555 1_555
H5_3 C10_3 1_555 1_555
O11_3 S1_3 1_555 1_555
C12_3 N1_3 1_555 1_555
H7_3 C12_3 1_555 1_555
C13_3 C2_3 1_555 1_555
H8_3 C13_3 1_555 1_555
C14_3 N2_3 1_555 1_555
H9_3 C14_3 1_555 1_555
C17_3 H12_3 1_555 1_555
C19_3 N1_3 1_555 1_555
H14_3 C19_3 1_555 1_555
C20_3 C4_3 1_555 1_555
H15_3 C20_3 1_555 1_555
C21_3 N2_3 1_555 1_555
H16_3 C21_3 1_555 1_555
C22_3 C12_3 1_555 1_555
H17_3 C22_3 1_555 1_555
C23_3 C6_3 1_555 1_555
H18_3 C23_3 1_555 1_555
Zn5 O13_2 1_555 1_555
Zn8_2 O2_2 1_555 1_555
Zn11 O4_3 1_555 1_555
Zn16 O5_3 1_555 1_555
S2_3 C26_3 1_555 1_555
O13_2 Zn8_2 1_555 1_555
O17 Zn6 1_555 1_555
O19_2 Zn16 1_555 1_555
O21_2 Zn8_2 1_555 1_555
O22_3 Zn3_2 1_555 1_555
O25_2 Zn3_2 1_555 1_555
O26_2 Zn16 1_555 1_555
H19_2 O25_2 1_555 1_555
N5 C35_3 1_555 1_555
N6_3 Zn6 1_555 1_555
C26_3 C28_3 1_555 1_555
C27_3 C4_3 1_555 1_555
N8_2 Zn8_2 1_555 1_555
C28_3 C24_3 1_555 1_555
C29_3 C6_3 1_555 1_555
O29_3 S2_3 1_555 1_555
C32_3 C28_3 1_555 1_555
H24_3 C32_3 1_555 1_555
O30_3 S2_3 1_555 1_555
O31_3 S2_3 1_555 1_555
C35_3 H27_3 1_555 1_555
C37_3 N6_3 1_555 1_555
H29_3 C37_3 1_555 1_555
C40_3 C27_3 1_555 1_555
H32_3 C40_3 1_555 1_555
C42_3 N5 1_555 1_555
H34_3 C42_3 1_555 1_555
C43_3 C27_3 1_555 1_555
H35_3 C43_3 1_555 1_555
C44_3 N6_3 1_555 1_555
H36_3 C44_3 1_555 1_555
C45_3 C29_3 1_555 1_555
H37_3 C45_3 1_555 1_555
C46_3 C29_3 1_555 1_555
H38_3 C46_3 1_555 1_555
Zn3_2 O2_2 1_555 1_555
O6_3 C8_3 1_555 1_555
C3_3 C10_3 1_555 1_555
C9_3 C13_3 1_555 1_555
C14_3 C20_3 1_555 1_555
C17_3 C21_3 1_555 1_555
C19_3 C23_3 1_555 1_555
Zn5 O25_2 1_555 1_555
Zn8_2 O25_2 1_555 1_555
O22_3 C24_3 1_555 1_555
C35_3 C45_3 1_555 1_555
C37_3 C43_3 1_555 1_555
C40_3 C44_3 1_555 1_555
C42_3 C46_3 1_555 1_555
O26_2 H39_3 1_555 1_555
O19_2 C31_3 1_555 1_555
O24 C31_3 1_555 1_555
C25_3 C31_3 1_555 1_555
C33_3 C25_3 1_555 1_555
H25_3 C33_3 1_555 1_555
C36_3 C25_3 1_555 1_555
H28_3 C36_3 1_555 1_555
Zn13_2 O13_2 1_555 1_555
O3_4 Zn13_2 1_555 1_555
O6_4 Zn5 1_555 1_555
O8_4 Zn5 1_555 1_555
H2_4 O8_4 1_555 1_555
H3_4 O8_4 1_555 1_555
N1_4 Zn13_2 1_555 1_555
N2_4 Zn5 1_555 1_555
C2_4 C8_4 1_555 1_555
C4_4 C17_4 1_555 1_555
C6_4 C22_4 1_555 1_555
C7_4 C16_4 1_555 1_555
C8_4 O3_4 1_555 1_555
C10_4 C2_4 1_555 1_555
H5_4 C10_4 1_555 1_555
C11_4 N8_2 1_555 1_555
H6_4 C11_4 1_555 1_555
C12_4 N1_4 1_555 1_555
H7_4 C12_4 1_555 1_555
C13_4 C2_4 1_555 1_555
H8_4 C13_4 1_555 1_555
C14_4 N2_4 1_555 1_555
H9_4 C14_4 1_555 1_555
C15_4 N8_2 1_555 1_555
H10_4 C15_4 1_555 1_555
C16_4 C15_4 1_555 1_555
H11_4 C16_4 1_555 1_555
C17_4 H12_4 1_555 1_555
C18_4 C7_4 1_555 1_555
H13_4 C18_4 1_555 1_555
C19_4 N1_4 1_555 1_555
H14_4 C19_4 1_555 1_555
C20_4 C4_4 1_555 1_555
H15_4 C20_4 1_555 1_555
C21_4 N2_4 1_555 1_555
H16_4 C21_4 1_555 1_555
C22_4 C12_4 1_555 1_555
H17_4 C22_4 1_555 1_555
C23_4 C6_4 1_555 1_555
H18_4 C23_4 1_555 1_555
Zn9_2 N7_4 1_555 1_555
Zn14 O18_2 1_555 1_555
S2_4 C26_4 1_555 1_555
O17_2 Zn6_2 1_555 1_555
O18_2 C31_4 1_555 1_555
O22_4 Zn13_2 1_555 1_555
O24_2 C31_4 1_555 1_555
O27 Zn6_2 1_555 1_555
O28_4 Zn6_2 1_555 1_555
H22_4 O28_4 1_555 1_555
H23_4 O28_4 1_555 1_555
C24_4 O21_2 1_555 1_555
N5_2 C35_4 1_555 1_555
N6_4 Zn6_2 1_555 1_555
C25_4 C31_4 1_555 1_555
C26_4 C28_4 1_555 1_555
C27_4 C4_4 1_555 1_555
N7_4 C34_4 1_555 1_555
C28_4 C24_4 1_555 1_555
C29_4 C6_4 1_555 1_555
C30_4 C7_4 1_555 1_555
O29_4 S2_4 1_555 1_555
C32_4 C28_4 1_555 1_555
H24_4 C32_4 1_555 1_555
O30_4 S2_4 1_555 1_555
C33_4 C25_4 1_555 1_555
H25_4 C33_4 1_555 1_555
O31_4 S2_4 1_555 1_555
C34_4 H26_4 1_555 1_555
C35_4 H27_4 1_555 1_555
C36_4 C25_4 1_555 1_555
H28_4 C36_4 1_555 1_555
C37_4 N6_4 1_555 1_555
H29_4 C37_4 1_555 1_555
C38_4 N7_4 1_555 1_555
H30_4 C38_4 1_555 1_555
C39_4 C30_4 1_555 1_555
H31_4 C39_4 1_555 1_555
C40_4 C27_4 1_555 1_555
H32_4 C40_4 1_555 1_555
C41_4 C30_4 1_555 1_555
H33_4 C41_4 1_555 1_555
C42_4 N5_2 1_555 1_555
H34_4 C42_4 1_555 1_555
C43_4 C27_4 1_555 1_555
H35_4 C43_4 1_555 1_555
C44_4 N6_4 1_555 1_555
H36_4 C44_4 1_555 1_555
C45_4 C29_4 1_555 1_555
H37_4 C45_4 1_555 1_555
C46_4 C29_4 1_555 1_555
H38_4 C46_4 1_555 1_555
O6_4 C8_4 1_555 1_555
C11_4 C18_4 1_555 1_555
C14_4 C20_4 1_555 1_555
C17_4 C21_4 1_555 1_555
C19_4 C23_4 1_555 1_555
O22_4 C24_4 1_555 1_555
C26_4 C33_4 1_555 1_555
C32_4 C36_4 1_555 1_555
C34_4 C41_4 1_555 1_555
C35_4 C45_4 1_555 1_555
C37_4 C43_4 1_555 1_555
C38_4 C39_4 1_555 1_555
C40_4 C44_4 1_555 1_555
C42_4 C46_4 1_555 1_555
S1_4 C3_4 1_555 1_555
O5_4 C1_4 1_555 1_555
C1_4 C5_4 1_555 1_555
C3_4 C5_4 1_555 1_555
C5_4 C9_4 1_555 1_555
O9_4 S1_4 1_555 1_555
C9_4 H4_4 1_555 1_555
O10_4 S1_4 1_555 1_555
O11_4 S1_4 1_555 1_555
Zn14 O5_4 1_555 1_555
O26 Zn14 1_555 1_555
O26 H39_4 1_555 1_555
Zn10 O4_4 1_555 1_555
O17 Zn9_2 1_555 1_555
Zn9 O17_2 1_555 1_555
O7 H39_5 1_555 1_555
O25 H39_6 1_555 1_555
Zn11 O16_2 1_555 1_555
O7_2 H39_7 1_555 1_555
O16 Zn10 1_555 1_555
O25_2 H39_8 1_555 1_555

#END
