
###############################################################################
#
# This file contains modified crystal structure data generated from the
# MOF subset of the Cambridge Structural Database (CSD) v543 
# hosted by the Cambridge Crystallographic Data Centre (CCDC).
#
# This work is licensed under the Creative Commons
# Attribution-NonCommercial-ShareAlike 4.0 International License.
# To view a copy of this license, visit
# http://creativecommons.org/licenses/by-nc-sa/4.0/
# or send a letter to
# Creative Commons, PO Box 1866, Mountain View, CA 94042, USA.
#
# CIF created using the CSD Python API on 29 September 2022
# The structure has been converted into the P1 space group
# The structure has a 3D framework
# The original CSD entry JITQEJ is in the tetragonal crystal system
# The original CSD entry JITQEJ is in a Sohncke space group
# The framework has been calculated to contain at least 10.0% void space
# The void calculation uses a probe of radius 1.32A, grid spacing 0.4
#
###############################################################################

data_JITQEJ
_chemical_formula_moiety         '(C160 H272 Cd16 O88)n'
_symmetry_cell_setting           triclinic
_symmetry_space_group_name_H-M   'P 1'
_symmetry_Int_Tables_number      1
_space_group_name_Hall           'P 1'
loop_
_symmetry_equiv_pos_site_id
_symmetry_equiv_pos_as_xyz
1 x,y,z
_cell_length_a                   13.4066(2)
_cell_length_b                   13.4066(2)
_cell_length_c                   32.0618(11)
_cell_angle_alpha                90
_cell_angle_beta                 90
_cell_angle_gamma                90
_cell_volume                     5762.69
loop_
_atom_site_label
_atom_site_type_symbol
_atom_site_fract_x
_atom_site_fract_y
_atom_site_fract_z
O3 O 0.4515(11) 0.0698(8) 0.0086(3)
H2 H 0.4020 0.1081 0.0127
Cd3 Cd 0.43466(6) 0.03045(6) 0.13771(2)
Cd2 Cd 0.39856(7) 0.91290(6) 0.01411(2)
O1 O 0.0814(5) 0.5435(6) 0.1363(2)
O2 O 0.0664(5) 0.5346(6) 0.0688(2)
O5 O 0.3526(5) 0.9233(5) 0.0800(2)
O6 O 0.5570(8) 0.8805(10) 0.0356(3)
H5 H 0.5964 0.8980 0.0550
H6 H 0.5907 0.8588 0.0150
O7 O 0.3592(6) 0.8780(6) 0.1466(2)
O9 O 0.0046(6) 0.3117(6) 0.0980(2)
O10 O 0.3452(6) 0.0750(5) 0.19530(19)
O11 O 0.2478(6) 0.1086(7) 0.2461(2)
C1 C 0.2172(8) 0.6065(8) 0.0932(3)
C2 C 0.2129(7) 0.7216(7) 0.0915(3)
C3 C 0.3239(7) 0.7487(7) 0.0971(3)
H7 H 0.3572 0.7359 0.0704
C4 C 0.3655(8) 0.6724(9) 0.1290(4)
H8 H 0.4291 0.6459 0.1197
H9 H 0.3747 0.7034 0.1561
C5 C 0.2880(8) 0.5903(9) 0.1314(4)
H10 H 0.2509 0.5948 0.1573
H11 H 0.3195 0.5253 0.1299
C6 C 0.2627(10) 0.5611(9) 0.0549(3)
H12 H 0.2188 0.5708 0.0316
H13 H 0.2726 0.4909 0.0593
H14 H 0.3257 0.5923 0.0493
C7 C 0.1713(10) 0.7598(9) 0.0504(3)
H15 H 0.2096 0.7329 0.0278
H16 H 0.1749 0.8313 0.0499
H17 H 0.1030 0.7393 0.0477
C8 C 0.1506(9) 0.7651(10) 0.1301(4)
H18 H 0.1484 0.8366 0.1284
H19 H 0.1822 0.7458 0.1558
H20 H 0.0839 0.7391 0.1294
C9 C 0.1154(8) 0.5585(8) 0.0997(3)
C10 C 0.3476(8) 0.8570(9) 0.1096(4)
C11 C 0.0378(7) 0.1847(8) 0.1485(3)
C12 C 0.1537(8) 0.1864(8) 0.1559(3)
C13 C 0.1719(7) 0.0848(8) 0.1800(3)
H21 H 0.1842 0.0322 0.1594
C14 C 0.0709(9) 0.0616(9) 0.2029(4)
H23 H 0.0803 0.0614 0.2329
C16 C 0.0067(11) 0.1072(8) 0.1134(4)
H27 H 0.0274 0.0414 0.1215
H28 H 0.0384 0.1249 0.0875
C17 C 0.2146(12) 0.1831(12) 0.1136(4)
H29 H 0.2848 0.1840 0.1196
H30 H 0.1976 0.2400 0.0969
H31 H 0.1983 0.1232 0.0987
C18 C 0.1831(9) 0.2757(8) 0.1811(4)
H32 H 0.2540 0.2756 0.1852
H33 H 0.1501 0.2736 0.2077
H34 H 0.1639 0.3353 0.1665
C20 C 0.2590(8) 0.0905(8) 0.2081(3)
Cd5 Cd 0.41290(6) 0.10144(7) 0.26411(2)
O4 O 0.2544(8) 0.9667(9) 0.9827(3)
H3 H 0.1873 0.9777 0.9843
H4 H 0.2602 0.9475 0.9560
O15 O 0.4250(5) 0.8452(6) 0.94530(19)
O16 O 0.3914(7) 0.7478(6) 0.9961(2)
Cd1 Cd 0.93466(6) 0.46955(6) 0.11229(2)
O8 O 0.9601(6) 0.3419(5) 0.1624(2)
C15 C 0.9993(8) 0.1447(9) 0.1900(3)
H24 H 0.9321 0.1188 0.1869
H25 H 0.9984 0.1972 0.2108
H26 H 0.9356 0.1084 0.1098
C19 C 0.9999(8) 0.2847(8) 0.1371(3)
O12 O 0.8526(5) 0.5767(5) 0.1700(2)
O13 O 0.8592(6) 0.6220(6) 0.1034(2)
O14 O 0.8452(6) 0.4250(5) 0.05470(19)
Cd1_2 Cd 0.03045(6) 0.43466(6) 0.86229(2)
O8_2 O 0.1581(5) 0.4601(6) 0.9124(2)
O9_2 O 0.1883(6) 0.5046(6) 0.8480(2)
H13_2 H 0.0091 0.7726 0.8093
C11_2 C 0.3153(8) 0.5378(7) 0.8985(3)
C12_2 C 0.3136(8) 0.6537(8) 0.9059(3)
C13_2 C 0.4152(8) 0.6719(7) 0.9300(3)
H21_2 H 0.4678 0.6842 0.9094
C14_2 C 0.4384(9) 0.5709(9) 0.9529(4)
H22 H 0.5030 0.5452 0.9444
H23_2 H 0.4386 0.5803 0.9829
C15_2 C 0.3553(9) 0.4993(8) 0.9400(3)
H24_2 H 0.3812 0.4321 0.9369
H25_2 H 0.3028 0.4984 0.9608
C16_2 C 0.3928(8) 0.5067(11) 0.8634(4)
H26_2 H 0.3916 0.4356 0.8598
H27_2 H 0.4586 0.5274 0.8715
H28_2 H 0.3751 0.5384 0.8375
C17_2 C 0.3169(12) 0.7146(12) 0.8636(4)
H29_2 H 0.3160 0.7848 0.8696
H30_2 H 0.2600 0.6976 0.8469
H31_2 H 0.3768 0.6983 0.8487
C18_2 C 0.2243(8) 0.6831(9) 0.9311(4)
H32_2 H 0.2244 0.7540 0.9352
H33_2 H 0.2264 0.6501 0.9577
H34_2 H 0.1647 0.6639 0.9165
C19_2 C 0.2153(8) 0.4999(8) 0.8871(3)
C20_2 C 0.4095(8) 0.7590(8) 0.9581(3)
Cd4 Cd 0.46955(6) 0.93466(6) 0.88771(2)
O14_2 O 0.0750(5) 0.3452(6) 0.80470(19)
Cd2_2 Cd 0.58710(6) 0.89856(7) 0.76411(2)
O1_2 O 0.9565(6) 0.5814(5) 0.8863(2)
O2_2 O 0.9654(6) 0.5664(5) 0.8188(2)
O3_2 O 0.4302(8) 0.9515(11) 0.7586(3)
H1 H 0.4217 0.9804 0.7353
H2_2 H 0.3919 0.9020 0.7627
O4_2 O 0.5333(9) 0.7544(8) 0.7327(3)
H3_2 H 0.5223 0.6873 0.7343
H4_2 H 0.5525 0.7602 0.7060
O5_2 O 0.5767(5) 0.8526(5) 0.8300(2)
O7_2 O 0.6220(6) 0.8592(6) 0.8966(2)
C1_2 C 0.8935(8) 0.7172(8) 0.8432(3)
C2_2 C 0.7784(7) 0.7129(7) 0.8415(3)
C3_2 C 0.7513(7) 0.8239(7) 0.8471(3)
H7_2 H 0.7641 0.8572 0.8204
C4_2 C 0.8276(9) 0.8655(8) 0.8790(4)
H8_2 H 0.8541 0.9291 0.8697
H9_2 H 0.7966 0.8747 0.9061
C5_2 C 0.9097(9) 0.7880(8) 0.8814(4)
H10_2 H 0.9052 0.7509 0.9073
H11_2 H 0.9747 0.8195 0.8799
C6_2 C 0.9389(9) 0.7627(10) 0.8049(3)
H12_2 H 0.9292 0.7188 0.7816
H14_2 H 0.9077 0.8257 0.7993
C7_2 C 0.7402(9) 0.6713(10) 0.8004(3)
H15_2 H 0.7671 0.7096 0.7778
H16_2 H 0.6687 0.6749 0.7999
H17_2 H 0.7607 0.6030 0.7977
C8_2 C 0.7349(10) 0.6506(9) 0.8801(4)
H18_2 H 0.6634 0.6484 0.8784
H19_2 H 0.7542 0.6822 0.9058
H20_2 H 0.7609 0.5839 0.8794
C9_2 C 0.9415(8) 0.6154(8) 0.8497(3)
C10_2 C 0.6430(9) 0.8476(8) 0.8596(4)
O12_2 O 0.9233(5) 0.3526(5) 0.9200(2)
O13_2 O 0.8780(6) 0.3592(6) 0.8534(2)
O15_2 O 0.6548(6) 0.9250(5) 0.69530(19)
O16_2 O 0.7522(6) 0.8914(7) 0.7461(2)
Cd1_3 Cd 0.06534(6) 0.53045(6) 0.61229(2)
O8_3 O 0.0399(6) 0.6581(5) 0.6624(2)
C15_3 C 0.0007(8) 0.8553(9) 0.6900(3)
H24_3 H 0.0679 0.8812 0.6869
H25_3 H 0.0016 0.8028 0.7108
H26_3 H 0.0644 0.8916 0.6098
C19_3 C 0.0001(8) 0.7153(8) 0.6371(3)
O12_3 O 0.1474(5) 0.4233(5) 0.6700(2)
O13_3 O 0.1408(6) 0.3780(6) 0.6034(2)
O14_3 O 0.1548(6) 0.5750(5) 0.55470(19)
Cd2_3 Cd 0.60144(7) 0.08710(6) 0.51411(2)
O1_3 O 0.9186(5) 0.4565(6) 0.6363(2)
O2_3 O 0.9336(5) 0.4654(6) 0.5688(2)
O4_3 O 0.7456(8) 0.0333(9) 0.4827(3)
H3_3 H 0.8127 0.0223 0.4843
H4_3 H 0.7398 0.0525 0.4560
O5_3 O 0.6474(5) 0.0767(5) 0.5800(2)
O6_2 O 0.4430(8) 0.1195(10) 0.5356(3)
H5_2 H 0.4036 0.1020 0.5550
H6_2 H 0.4093 0.1412 0.5150
O7_3 O 0.6408(6) 0.1220(6) 0.6466(2)
O9_3 O 0.9954(6) 0.6883(6) 0.5980(2)
C1_3 C 0.7828(8) 0.3935(8) 0.5932(3)
C2_3 C 0.7871(7) 0.2784(7) 0.5915(3)
C3_3 C 0.6761(7) 0.2513(7) 0.5971(3)
H7_3 H 0.6428 0.2641 0.5704
C4_3 C 0.6345(8) 0.3276(9) 0.6290(4)
H8_3 H 0.5709 0.3541 0.6197
H9_3 H 0.6253 0.2966 0.6561
C5_3 C 0.7120(8) 0.4097(9) 0.6314(4)
H10_3 H 0.7491 0.4052 0.6573
H11_3 H 0.6805 0.4747 0.6299
C6_3 C 0.7373(10) 0.4389(9) 0.5549(3)
H12_3 H 0.7812 0.4292 0.5316
H13_3 H 0.7274 0.5091 0.5593
H14_3 H 0.6743 0.4077 0.5493
C7_3 C 0.8287(10) 0.2402(9) 0.5504(3)
H15_3 H 0.7904 0.2671 0.5278
H16_3 H 0.8251 0.1687 0.5499
H17_3 H 0.8970 0.2607 0.5477
C8_3 C 0.8494(9) 0.2349(10) 0.6301(4)
H18_3 H 0.8516 0.1634 0.6284
H19_3 H 0.8178 0.2542 0.6558
H20_3 H 0.9161 0.2609 0.6294
C9_3 C 0.8846(8) 0.4415(8) 0.5997(3)
C10_3 C 0.6524(8) 0.1430(9) 0.6096(4)
C11_3 C 0.9622(7) 0.8153(8) 0.6485(3)
C12_3 C 0.8463(8) 0.8136(8) 0.6559(3)
C13_3 C 0.8281(7) 0.9152(8) 0.6800(3)
H21_3 H 0.8158 0.9678 0.6594
C14_3 C 0.9291(9) 0.9384(9) 0.7029(4)
H23_3 H 0.9197 0.9386 0.7329
C16_3 C 0.9933(11) 0.8928(8) 0.6134(4)
H27_3 H 0.9726 0.9586 0.6215
H28_3 H 0.9616 0.8751 0.5875
C17_3 C 0.7854(12) 0.8169(12) 0.6136(4)
H29_3 H 0.7152 0.8160 0.6196
H30_3 H 0.8024 0.7600 0.5969
H31_3 H 0.8017 0.8768 0.5987
C18_3 C 0.8169(9) 0.7243(8) 0.6811(4)
H32_3 H 0.7460 0.7244 0.6852
H33_3 H 0.8499 0.7264 0.7077
H34_3 H 0.8361 0.6647 0.6665
C20_3 C 0.7410(8) 0.9095(8) 0.7081(3)
Cd4_2 Cd 0.56534(6) 0.96955(6) 0.63771(2)
O15_3 O 0.5750(5) 0.1548(6) 0.44530(19)
O16_3 O 0.6086(7) 0.2522(6) 0.4961(2)
O3_3 O 0.5485(11) 0.9302(8) 0.5086(3)
H1_2 H 0.5196 0.9217 0.4853
H2_3 H 0.5980 0.8919 0.5127
O1_4 O 0.0435(6) 0.4186(5) 0.3863(2)
O2_4 O 0.0346(6) 0.4336(5) 0.3188(2)
O3_4 O 0.5698(8) 0.0485(11) 0.2586(3)
H1_3 H 0.5783 0.0196 0.2353
H2_4 H 0.6081 0.0980 0.2627
O4_4 O 0.4667(9) 0.2456(8) 0.2327(3)
H3_4 H 0.4777 0.3127 0.2343
H4_4 H 0.4475 0.2398 0.2060
O5_4 O 0.4233(5) 0.1474(5) 0.3300(2)
O7_4 O 0.3780(6) 0.1408(6) 0.3966(2)
C1_4 C 0.1065(8) 0.2828(8) 0.3432(3)
C2_4 C 0.2216(7) 0.2871(7) 0.3415(3)
C3_4 C 0.2487(7) 0.1761(7) 0.3471(3)
H7_4 H 0.2359 0.1428 0.3204
C4_4 C 0.1724(9) 0.1345(8) 0.3790(4)
H8_4 H 0.1459 0.0709 0.3697
H9_4 H 0.2034 0.1253 0.4061
C5_4 C 0.0903(9) 0.2120(8) 0.3814(4)
H10_4 H 0.0948 0.2491 0.4073
H11_4 H 0.0253 0.1805 0.3799
C6_4 C 0.0611(9) 0.2373(10) 0.3049(3)
H12_4 H 0.0708 0.2812 0.2816
H14_4 H 0.0923 0.1743 0.2993
C7_4 C 0.2598(9) 0.3287(10) 0.3004(3)
H15_4 H 0.2329 0.2904 0.2778
H16_4 H 0.3313 0.3251 0.2999
H17_4 H 0.2393 0.3970 0.2977
C8_4 C 0.2651(10) 0.3494(9) 0.3801(4)
H18_4 H 0.3366 0.3516 0.3784
H19_4 H 0.2458 0.3178 0.4058
H20_4 H 0.2391 0.4161 0.3794
C9_4 C 0.0585(8) 0.3846(8) 0.3497(3)
C10_4 C 0.3570(9) 0.1524(8) 0.3596(4)
Cd3_2 Cd 0.53045(6) 0.06534(6) 0.38771(2)
O12_4 O 0.0767(5) 0.6474(5) 0.4200(2)
O13_4 O 0.1220(6) 0.6408(6) 0.3534(2)
Cd1_4 Cd 0.96955(6) 0.56534(6) 0.36229(2)
O8_4 O 0.8419(5) 0.5399(6) 0.4124(2)
O9_4 O 0.8117(6) 0.4954(6) 0.3480(2)
H13_4 H 0.9909 0.2274 0.3093
C11_4 C 0.6847(8) 0.4622(7) 0.3985(3)
C12_4 C 0.6864(8) 0.3463(8) 0.4059(3)
C13_4 C 0.5848(8) 0.3281(7) 0.4300(3)
H21_4 H 0.5322 0.3158 0.4094
C14_4 C 0.5616(9) 0.4291(9) 0.4529(4)
H22_2 H 0.4970 0.4548 0.4444
H23_4 H 0.5614 0.4197 0.4829
C15_4 C 0.6447(9) 0.5007(8) 0.4400(3)
H24_4 H 0.6188 0.5679 0.4369
H25_4 H 0.6972 0.5016 0.4608
C16_4 C 0.6072(8) 0.4933(11) 0.3634(4)
H26_4 H 0.6084 0.5644 0.3598
H27_4 H 0.5414 0.4726 0.3715
H28_4 H 0.6249 0.4616 0.3375
C17_4 C 0.6831(12) 0.2854(12) 0.3636(4)
H29_4 H 0.6840 0.2152 0.3696
H30_4 H 0.7400 0.3024 0.3469
H31_4 H 0.6232 0.3017 0.3487
C18_4 C 0.7757(8) 0.3169(9) 0.4311(4)
H32_4 H 0.7756 0.2460 0.4352
H33_4 H 0.7736 0.3499 0.4577
H34_4 H 0.8353 0.3361 0.4165
C19_4 C 0.7847(8) 0.5001(8) 0.3871(3)
C20_4 C 0.5905(8) 0.2410(8) 0.4581(3)
O14_4 O 0.9250(5) 0.6548(6) 0.30470(19)
O8_5 O 0.4601(6) 0.1581(5) 0.0876(2)
O9_5 O 0.5046(6) 0.1883(6) 0.1520(2)
O11_2 O 0.7478(6) 0.3914(7) 0.0039(2)
H13_5 H 0.7726 0.0091 0.1907
C11_5 C 0.5378(7) 0.3153(8) 0.1015(3)
C12_5 C 0.6537(8) 0.3136(8) 0.0941(3)
C13_5 C 0.6719(7) 0.4152(8) 0.0700(3)
H21_5 H 0.6842 0.4678 0.0906
C14_5 C 0.5709(9) 0.4384(9) 0.0471(4)
H22_3 H 0.5452 0.5030 0.0556
H23_5 H 0.5803 0.4386 0.0171
C15_5 C 0.4993(8) 0.3553(9) 0.0600(3)
H24_5 H 0.4321 0.3812 0.0631
H25_5 H 0.4984 0.3028 0.0392
C16_5 C 0.5067(11) 0.3928(8) 0.1366(4)
H26_5 H 0.4356 0.3916 0.1402
H27_5 H 0.5274 0.4586 0.1285
H28_5 H 0.5384 0.3751 0.1625
C17_5 C 0.7146(12) 0.3169(12) 0.1364(4)
H29_5 H 0.7848 0.3160 0.1304
H30_5 H 0.6976 0.2600 0.1531
H31_5 H 0.6983 0.3768 0.1513
C18_5 C 0.6831(9) 0.2243(8) 0.0689(4)
H32_5 H 0.7540 0.2244 0.0648
H33_5 H 0.6501 0.2264 0.0423
H34_5 H 0.6639 0.1647 0.0835
C19_5 C 0.4999(8) 0.2153(8) 0.1129(3)
C20_5 C 0.7590(8) 0.4095(8) 0.0419(3)
Cd5_2 Cd 0.91290(6) 0.39856(7) 0.98589(2)
Cd2_4 Cd 0.89856(7) 0.58710(6) 0.23589(2)
O1_5 O 0.5814(5) 0.9565(6) 0.1137(2)
O2_5 O 0.5664(5) 0.9654(6) 0.1812(2)
O3_5 O 0.9515(11) 0.4302(8) 0.2414(3)
H1_4 H 0.9804 0.4217 0.2647
H2_5 H 0.9020 0.3919 0.2373
O4_5 O 0.7544(8) 0.5333(9) 0.2673(3)
H3_5 H 0.6873 0.5223 0.2657
H4_5 H 0.7602 0.5525 0.2940
C1_5 C 0.7172(8) 0.8935(8) 0.1568(3)
C2_5 C 0.7129(7) 0.7784(7) 0.1585(3)
C3_5 C 0.8239(7) 0.7513(7) 0.1529(3)
H7_5 H 0.8572 0.7641 0.1796
C4_5 C 0.8655(8) 0.8276(9) 0.1210(4)
H8_5 H 0.9291 0.8541 0.1303
H9_5 H 0.8747 0.7966 0.0939
C5_5 C 0.7880(8) 0.9097(9) 0.1186(4)
H10_5 H 0.7509 0.9052 0.0927
H11_5 H 0.8195 0.9747 0.1201
C6_5 C 0.7627(10) 0.9389(9) 0.1951(3)
H12_5 H 0.7188 0.9292 0.2184
H14_5 H 0.8257 0.9077 0.2007
C7_5 C 0.6713(10) 0.7402(9) 0.1996(3)
H15_5 H 0.7096 0.7671 0.2222
H16_5 H 0.6749 0.6687 0.2001
H17_5 H 0.6030 0.7607 0.2023
C8_5 C 0.6506(9) 0.7349(10) 0.1199(4)
H18_5 H 0.6484 0.6634 0.1216
H19_5 H 0.6822 0.7542 0.0942
H20_5 H 0.5839 0.7609 0.1206
C9_5 C 0.6154(8) 0.9415(8) 0.1503(3)
C10_5 C 0.8476(8) 0.6430(9) 0.1404(4)
O16_4 O 0.8914(7) 0.7522(6) 0.2539(2)
O3_6 O 0.0698(8) 0.4515(11) 0.9914(3)
H2_6 H 0.1081 0.4020 0.9873
O4_6 O 0.9667(9) 0.2544(8) 0.0173(3)
H3_6 H 0.9777 0.1873 0.0157
H4_6 H 0.9475 0.2602 0.0440
O1_6 O 0.5435(6) 0.0814(5) 0.8637(2)
O2_6 O 0.5346(6) 0.0664(5) 0.9312(2)
O6_3 O 0.8805(10) 0.5570(8) 0.9644(3)
H5_3 H 0.8980 0.5964 0.9450
H6_3 H 0.8588 0.5907 0.9850
O9_6 O 0.3117(6) 0.0046(6) 0.9020(2)
O11_3 O 0.1086(7) 0.2478(6) 0.7539(2)
C1_6 C 0.6065(8) 0.2172(8) 0.9068(3)
C2_6 C 0.7216(7) 0.2129(7) 0.9085(3)
C3_6 C 0.7487(7) 0.3239(7) 0.9029(3)
H7_6 H 0.7359 0.3572 0.9296
C4_6 C 0.6724(9) 0.3655(8) 0.8710(4)
H8_6 H 0.6459 0.4291 0.8803
H9_6 H 0.7034 0.3747 0.8439
C5_6 C 0.5903(9) 0.2880(8) 0.8686(4)
H10_6 H 0.5948 0.2509 0.8427
H11_6 H 0.5253 0.3195 0.8701
C6_6 C 0.5611(9) 0.2627(10) 0.9451(3)
H12_6 H 0.5708 0.2188 0.9684
H13_6 H 0.4909 0.2726 0.9407
H14_6 H 0.5923 0.3257 0.9507
C7_6 C 0.7598(9) 0.1713(10) 0.9496(3)
H15_6 H 0.7329 0.2096 0.9722
H16_6 H 0.8313 0.1749 0.9501
H17_6 H 0.7393 0.1030 0.9523
C8_6 C 0.7651(10) 0.1506(9) 0.8699(4)
H18_6 H 0.8366 0.1484 0.8716
H19_6 H 0.7458 0.1822 0.8442
H20_6 H 0.7391 0.0839 0.8706
C9_6 C 0.5585(8) 0.1154(8) 0.9003(3)
C10_6 C 0.8570(9) 0.3476(8) 0.8904(4)
C11_6 C 0.1847(8) 0.0378(7) 0.8515(3)
C12_6 C 0.1864(8) 0.1537(8) 0.8441(3)
C13_6 C 0.0848(8) 0.1719(7) 0.8200(3)
H21_6 H 0.0322 0.1842 0.8406
C14_6 C 0.0616(9) 0.0709(9) 0.7971(4)
H23_6 H 0.0614 0.0803 0.7671
C16_6 C 0.1072(8) 0.0067(11) 0.8866(4)
H27_6 H 0.0414 0.0274 0.8785
H28_6 H 0.1249 0.0384 0.9125
C17_6 C 0.1831(12) 0.2146(12) 0.8864(4)
H29_6 H 0.1840 0.2848 0.8804
H30_6 H 0.2400 0.1976 0.9031
H31_6 H 0.1232 0.1983 0.9013
C18_6 C 0.2757(8) 0.1831(9) 0.8189(4)
H32_6 H 0.2756 0.2540 0.8148
H33_6 H 0.2736 0.1501 0.7923
H34_6 H 0.3353 0.1639 0.8335
C20_6 C 0.0905(8) 0.2590(8) 0.7919(3)
Cd5_3 Cd 0.10144(7) 0.41290(6) 0.73589(2)
O8_6 O 0.3419(5) 0.9601(6) 0.8376(2)
C15_6 C 0.1447(9) 0.9993(8) 0.8100(3)
H24_6 H 0.1188 0.9321 0.8131
H25_6 H 0.1972 0.9984 0.7892
H26_6 H 0.1084 0.9356 0.8902
C19_6 C 0.2847(8) 0.9999(8) 0.8629(3)
O1_7 O 0.4186(5) 0.0435(6) 0.6137(2)
O2_7 O 0.4336(5) 0.0346(6) 0.6812(2)
O3_7 O 0.0485(11) 0.5698(8) 0.7414(3)
H1_5 H 0.0196 0.5783 0.7647
H2_7 H 0.0980 0.6081 0.7373
O4_7 O 0.2456(8) 0.4667(9) 0.7673(3)
H3_7 H 0.3127 0.4777 0.7657
H4_7 H 0.2398 0.4475 0.7940
C1_7 C 0.2828(8) 0.1065(8) 0.6568(3)
C2_7 C 0.2871(7) 0.2216(7) 0.6585(3)
C3_7 C 0.1761(7) 0.2487(7) 0.6529(3)
H7_7 H 0.1428 0.2359 0.6796
C4_7 C 0.1345(8) 0.1724(9) 0.6210(4)
H8_7 H 0.0709 0.1459 0.6303
H9_7 H 0.1253 0.2034 0.5939
C5_7 C 0.2120(8) 0.0903(9) 0.6186(4)
H10_7 H 0.2491 0.0948 0.5927
H11_7 H 0.1805 0.0253 0.6201
C6_7 C 0.2373(10) 0.0611(9) 0.6951(3)
H12_7 H 0.2812 0.0708 0.7184
H14_7 H 0.1743 0.0923 0.7007
C7_7 C 0.3287(10) 0.2598(9) 0.6996(3)
H15_7 H 0.2904 0.2329 0.7222
H16_7 H 0.3251 0.3313 0.7001
H17_7 H 0.3970 0.2393 0.7023
C8_7 C 0.3494(9) 0.2651(10) 0.6199(4)
H18_7 H 0.3516 0.3366 0.6216
H19_7 H 0.3178 0.2458 0.5942
H20_7 H 0.4161 0.2391 0.6206
C9_7 C 0.3846(8) 0.0585(8) 0.6503(3)
C10_7 C 0.1524(8) 0.3570(9) 0.6404(4)
O8_7 O 0.5399(6) 0.8419(5) 0.5876(2)
O9_7 O 0.4954(6) 0.8117(6) 0.6520(2)
O11_4 O 0.2522(6) 0.6086(7) 0.5039(2)
H13_7 H 0.2274 0.9909 0.6907
C11_7 C 0.4622(7) 0.6847(8) 0.6015(3)
C12_7 C 0.3463(8) 0.6864(8) 0.5941(3)
C13_7 C 0.3281(7) 0.5848(8) 0.5700(3)
H21_7 H 0.3158 0.5322 0.5906
C14_7 C 0.4291(9) 0.5616(9) 0.5471(4)
H22_4 H 0.4548 0.4970 0.5556
H23_7 H 0.4197 0.5614 0.5171
C15_7 C 0.5007(8) 0.6447(9) 0.5600(3)
H24_7 H 0.5679 0.6188 0.5631
H25_7 H 0.5016 0.6972 0.5392
C16_7 C 0.4933(11) 0.6072(8) 0.6366(4)
H26_7 H 0.5644 0.6084 0.6402
H27_7 H 0.4726 0.5414 0.6285
H28_7 H 0.4616 0.6249 0.6625
C17_7 C 0.2854(12) 0.6831(12) 0.6364(4)
H29_7 H 0.2152 0.6840 0.6304
H30_7 H 0.3024 0.7400 0.6531
H31_7 H 0.3017 0.6232 0.6513
C18_7 C 0.3169(9) 0.7757(8) 0.5689(4)
H32_7 H 0.2460 0.7756 0.5648
H33_7 H 0.3499 0.7736 0.5423
H34_7 H 0.3361 0.8353 0.5835
C19_7 C 0.5001(8) 0.7847(8) 0.6129(3)
C20_7 C 0.2410(8) 0.5905(8) 0.5419(3)
Cd5_4 Cd 0.08710(6) 0.60144(7) 0.48589(2)
O8_8 O 0.6581(5) 0.0399(6) 0.3376(2)
C15_8 C 0.8553(9) 0.0007(8) 0.3100(3)
H24_8 H 0.8812 0.0679 0.3131
H25_8 H 0.8028 0.0016 0.2892
H26_8 H 0.8916 0.0644 0.3902
C19_8 C 0.7153(8) 0.0001(8) 0.3629(3)
O1_8 O 0.4565(6) 0.9186(5) 0.3637(2)
O2_8 O 0.4654(6) 0.9336(5) 0.4312(2)
O4_8 O 0.0333(9) 0.7456(8) 0.5173(3)
H3_8 H 0.0223 0.8127 0.5157
H4_8 H 0.0525 0.7398 0.5440
O6_4 O 0.1195(10) 0.4430(8) 0.4644(3)
H5_4 H 0.1020 0.4036 0.4450
H6_4 H 0.1412 0.4093 0.4850
O9_8 O 0.6883(6) 0.9954(6) 0.4020(2)
C1_8 C 0.3935(8) 0.7828(8) 0.4068(3)
C2_8 C 0.2784(7) 0.7871(7) 0.4085(3)
C3_8 C 0.2513(7) 0.6761(7) 0.4029(3)
H7_8 H 0.2641 0.6428 0.4296
C4_8 C 0.3276(9) 0.6345(8) 0.3710(4)
H8_8 H 0.3541 0.5709 0.3803
H9_8 H 0.2966 0.6253 0.3439
C5_8 C 0.4097(9) 0.7120(8) 0.3686(4)
H10_8 H 0.4052 0.7491 0.3427
H11_8 H 0.4747 0.6805 0.3701
C6_8 C 0.4389(9) 0.7373(10) 0.4451(3)
H12_8 H 0.4292 0.7812 0.4684
H13_8 H 0.5091 0.7274 0.4407
H14_8 H 0.4077 0.6743 0.4507
C7_8 C 0.2402(9) 0.8287(10) 0.4496(3)
H15_8 H 0.2671 0.7904 0.4722
H16_8 H 0.1687 0.8251 0.4501
H17_8 H 0.2607 0.8970 0.4523
C8_8 C 0.2349(10) 0.8494(9) 0.3699(4)
H18_8 H 0.1634 0.8516 0.3716
H19_8 H 0.2542 0.8178 0.3442
H20_8 H 0.2609 0.9161 0.3706
C9_8 C 0.4415(8) 0.8846(8) 0.4003(3)
C10_8 C 0.1430(9) 0.6524(8) 0.3904(4)
C11_8 C 0.8153(8) 0.9622(7) 0.3515(3)
C12_8 C 0.8136(8) 0.8463(8) 0.3441(3)
C13_8 C 0.9152(8) 0.8281(7) 0.3200(3)
H21_8 H 0.9678 0.8158 0.3406
C14_8 C 0.9384(9) 0.9291(9) 0.2971(4)
H23_8 H 0.9386 0.9197 0.2671
C16_8 C 0.8928(8) 0.9933(11) 0.3866(4)
H27_8 H 0.9586 0.9726 0.3785
H28_8 H 0.8751 0.9616 0.4125
C17_8 C 0.8169(12) 0.7854(12) 0.3864(4)
H29_8 H 0.8160 0.7152 0.3804
H30_8 H 0.7600 0.8024 0.4031
H31_8 H 0.8768 0.8017 0.4013
C18_8 C 0.7243(8) 0.8169(9) 0.3189(4)
H32_8 H 0.7244 0.7460 0.3148
H33_8 H 0.7264 0.8499 0.2923
H34_8 H 0.6647 0.8361 0.3335
C20_8 C 0.9095(8) 0.7410(8) 0.2919(3)
O3_8 O 0.9302(8) 0.5485(11) 0.4914(3)
H1_6 H 0.9217 0.5196 0.5147
H2_8 H 0.8919 0.5980 0.4873
H1_7 H 0.4804 0.0783 0.9853
H22_5 H 0.0452 0.9970 0.1944
O6_5 O 0.6195(10) 0.0570(8) 0.7856(3)
H5_5 H 0.6020 0.0964 0.8050
H6_5 H 0.6412 0.0907 0.7650
H22_6 H 0.9548 0.0030 0.6944
O6_6 O 0.3805(10) 0.9430(8) 0.2856(3)
H5_6 H 0.3980 0.9036 0.3050
H6_6 H 0.3588 0.9093 0.2650
O6_7 O 0.0570(8) 0.6195(10) 0.2144(3)
H5_7 H 0.0964 0.6020 0.1950
H6_7 H 0.0907 0.6412 0.2350
H1_8 H 0.0783 0.4804 0.0147
H22_7 H 0.9970 0.0452 0.8056
O6_8 O 0.9430(8) 0.3805(10) 0.7144(3)
H5_8 H 0.9036 0.3980 0.6950
H6_8 H 0.9093 0.3588 0.7350
H22_8 H 0.0030 0.9548 0.3056
loop_
_geom_bond_atom_site_label_1
_geom_bond_atom_site_label_2
_geom_bond_site_symmetry_1
_geom_bond_site_symmetry_2
H2 O3 1_555 1_555
O1 C9 1_555 1_555
O5 Cd2 1_555 1_555
O6 Cd2 1_555 1_555
H5 O6 1_555 1_555
H6 O6 1_555 1_555
O7 C10 1_555 1_555
O10 C20 1_555 1_555
O11 C20 1_555 1_555
C1 C2 1_555 1_555
C2 C3 1_555 1_555
C3 H7 1_555 1_555
C4 C3 1_555 1_555
H8 C4 1_555 1_555
H9 C4 1_555 1_555
C5 C1 1_555 1_555
H10 C5 1_555 1_555
H11 C5 1_555 1_555
C6 C1 1_555 1_555
H12 C6 1_555 1_555
H13 C6 1_555 1_555
H14 C6 1_555 1_555
C7 C2 1_555 1_555
H15 C7 1_555 1_555
H16 C7 1_555 1_555
H17 C7 1_555 1_555
C8 C2 1_555 1_555
H18 C8 1_555 1_555
H19 C8 1_555 1_555
H20 C8 1_555 1_555
C9 O2 1_555 1_555
C10 O5 1_555 1_555
C11 C12 1_555 1_555
C12 C13 1_555 1_555
C13 H21 1_555 1_555
C14 C13 1_555 1_555
H23 C14 1_555 1_555
C16 C11 1_555 1_555
H27 C16 1_555 1_555
H28 C16 1_555 1_555
C17 C12 1_555 1_555
H29 C17 1_555 1_555
H30 C17 1_555 1_555
H31 C17 1_555 1_555
C18 C12 1_555 1_555
H32 C18 1_555 1_555
H33 C18 1_555 1_555
H34 C18 1_555 1_555
C20 C13 1_555 1_555
Cd3 O10 1_555 1_555
Cd5 O10 1_555 1_555
O11 Cd5 1_555 1_555
C1 C9 1_555 1_555
C3 C10 1_555 1_555
C4 C5 1_555 1_555
H3 O4 1_555 1_555
H4 O4 1_555 1_555
O8 Cd1 1_555 1_555
H24 C15 1_555 1_555
H25 C15 1_555 1_555
C19 O8 1_555 1_555
O12 Cd1 1_555 1_555
O13 Cd1 1_555 1_555
O14 Cd1 1_555 1_555
O8_2 Cd1_2 1_555 1_555
O9_2 Cd1_2 1_555 1_555
O15 C20_2 1_555 1_555
O16 C20_2 1_555 1_555
C11_2 C12_2 1_555 1_555
C12_2 C13_2 1_555 1_555
C13_2 H21_2 1_555 1_555
C14_2 C13_2 1_555 1_555
H22 C14_2 1_555 1_555
H23_2 C14_2 1_555 1_555
C15_2 C11_2 1_555 1_555
H24_2 C15_2 1_555 1_555
H25_2 C15_2 1_555 1_555
C16_2 C11_2 1_555 1_555
H26_2 C16_2 1_555 1_555
H27_2 C16_2 1_555 1_555
H28_2 C16_2 1_555 1_555
C17_2 C12_2 1_555 1_555
H29_2 C17_2 1_555 1_555
H30_2 C17_2 1_555 1_555
H31_2 C17_2 1_555 1_555
C18_2 C12_2 1_555 1_555
H32_2 C18_2 1_555 1_555
H33_2 C18_2 1_555 1_555
H34_2 C18_2 1_555 1_555
C19_2 O8_2 1_555 1_555
C20_2 C13_2 1_555 1_555
Cd4 O15 1_555 1_555
O14_2 Cd1_2 1_555 1_555
O9_2 C19_2 1_555 1_555
C11_2 C19_2 1_555 1_555
C14_2 C15_2 1_555 1_555
Cd2_2 O3_2 1_555 1_555
O1_2 C9_2 1_555 1_555
O3_2 H1 1_555 1_555
H2_2 O3_2 1_555 1_555
O4_2 Cd2_2 1_555 1_555
H3_2 O4_2 1_555 1_555
H4_2 O4_2 1_555 1_555
O5_2 Cd2_2 1_555 1_555
O7_2 C10_2 1_555 1_555
C1_2 C2_2 1_555 1_555
C2_2 C3_2 1_555 1_555
C3_2 H7_2 1_555 1_555
C4_2 C3_2 1_555 1_555
H8_2 C4_2 1_555 1_555
H9_2 C4_2 1_555 1_555
C5_2 C1_2 1_555 1_555
H10_2 C5_2 1_555 1_555
H11_2 C5_2 1_555 1_555
C6_2 C1_2 1_555 1_555
H12_2 C6_2 1_555 1_555
H14_2 C6_2 1_555 1_555
C7_2 C2_2 1_555 1_555
H15_2 C7_2 1_555 1_555
H16_2 C7_2 1_555 1_555
H17_2 C7_2 1_555 1_555
C8_2 C2_2 1_555 1_555
H18_2 C8_2 1_555 1_555
H19_2 C8_2 1_555 1_555
H20_2 C8_2 1_555 1_555
C9_2 O2_2 1_555 1_555
C10_2 O5_2 1_555 1_555
Cd4 O5_2 1_555 1_555
O15_2 Cd2_2 1_555 1_555
O16_2 Cd2_2 1_555 1_555
O7_2 Cd4 1_555 1_555
C1_2 C9_2 1_555 1_555
C3_2 C10_2 1_555 1_555
C4_2 C5_2 1_555 1_555
O8_3 Cd1_3 1_555 1_555
H24_3 C15_3 1_555 1_555
H25_3 C15_3 1_555 1_555
C19_3 O8_3 1_555 1_555
O12_3 Cd1_3 1_555 1_555
O13_3 Cd1_3 1_555 1_555
O14_3 Cd1_3 1_555 1_555
O1_3 C9_3 1_555 1_555
O4_3 Cd2_3 1_555 1_555
H3_3 O4_3 1_555 1_555
H4_3 O4_3 1_555 1_555
O5_3 Cd2_3 1_555 1_555
O6_2 Cd2_3 1_555 1_555
H5_2 O6_2 1_555 1_555
H6_2 O6_2 1_555 1_555
O7_3 C10_3 1_555 1_555
O15_2 C20_3 1_555 1_555
O16_2 C20_3 1_555 1_555
C1_3 C2_3 1_555 1_555
C2_3 C3_3 1_555 1_555
C3_3 H7_3 1_555 1_555
C4_3 C3_3 1_555 1_555
H8_3 C4_3 1_555 1_555
H9_3 C4_3 1_555 1_555
C5_3 C1_3 1_555 1_555
H10_3 C5_3 1_555 1_555
H11_3 C5_3 1_555 1_555
C6_3 C1_3 1_555 1_555
H12_3 C6_3 1_555 1_555
H13_3 C6_3 1_555 1_555
H14_3 C6_3 1_555 1_555
C7_3 C2_3 1_555 1_555
H15_3 C7_3 1_555 1_555
H16_3 C7_3 1_555 1_555
H17_3 C7_3 1_555 1_555
C8_3 C2_3 1_555 1_555
H18_3 C8_3 1_555 1_555
H19_3 C8_3 1_555 1_555
H20_3 C8_3 1_555 1_555
C9_3 O2_3 1_555 1_555
C10_3 O5_3 1_555 1_555
C11_3 C12_3 1_555 1_555
C12_3 C13_3 1_555 1_555
C13_3 H21_3 1_555 1_555
C14_3 C13_3 1_555 1_555
H23_3 C14_3 1_555 1_555
C16_3 C11_3 1_555 1_555
H27_3 C16_3 1_555 1_555
H28_3 C16_3 1_555 1_555
C17_3 C12_3 1_555 1_555
H29_3 C17_3 1_555 1_555
H30_3 C17_3 1_555 1_555
H31_3 C17_3 1_555 1_555
C18_3 C12_3 1_555 1_555
H32_3 C18_3 1_555 1_555
H33_3 C18_3 1_555 1_555
H34_3 C18_3 1_555 1_555
C20_3 C13_3 1_555 1_555
Cd4_2 O15_2 1_555 1_555
O15_3 Cd2_3 1_555 1_555
O16_3 Cd2_3 1_555 1_555
C1_3 C9_3 1_555 1_555
C3_3 C10_3 1_555 1_555
C4_3 C5_3 1_555 1_555
O3_3 H1_2 1_555 1_555
H2_3 O3_3 1_555 1_555
Cd5 O3_4 1_555 1_555
O1_4 C9_4 1_555 1_555
O3_4 H1_3 1_555 1_555
H2_4 O3_4 1_555 1_555
O4_4 Cd5 1_555 1_555
H3_4 O4_4 1_555 1_555
H4_4 O4_4 1_555 1_555
O5_4 Cd5 1_555 1_555
O7_4 C10_4 1_555 1_555
C1_4 C2_4 1_555 1_555
C2_4 C3_4 1_555 1_555
C3_4 H7_4 1_555 1_555
C4_4 C3_4 1_555 1_555
H8_4 C4_4 1_555 1_555
H9_4 C4_4 1_555 1_555
C5_4 C1_4 1_555 1_555
H10_4 C5_4 1_555 1_555
H11_4 C5_4 1_555 1_555
C6_4 C1_4 1_555 1_555
H12_4 C6_4 1_555 1_555
H14_4 C6_4 1_555 1_555
C7_4 C2_4 1_555 1_555
H15_4 C7_4 1_555 1_555
H16_4 C7_4 1_555 1_555
H17_4 C7_4 1_555 1_555
C8_4 C2_4 1_555 1_555
H18_4 C8_4 1_555 1_555
H19_4 C8_4 1_555 1_555
H20_4 C8_4 1_555 1_555
C9_4 O2_4 1_555 1_555
C10_4 O5_4 1_555 1_555
Cd3_2 O5_4 1_555 1_555
O7_4 Cd3_2 1_555 1_555
C1_4 C9_4 1_555 1_555
C3_4 C10_4 1_555 1_555
C4_4 C5_4 1_555 1_555
O8_4 Cd1_4 1_555 1_555
O9_4 Cd1_4 1_555 1_555
O15_3 C20_4 1_555 1_555
O16_3 C20_4 1_555 1_555
C11_4 C12_4 1_555 1_555
C12_4 C13_4 1_555 1_555
C13_4 H21_4 1_555 1_555
C14_4 C13_4 1_555 1_555
H22_2 C14_4 1_555 1_555
H23_4 C14_4 1_555 1_555
C15_4 C11_4 1_555 1_555
H24_4 C15_4 1_555 1_555
H25_4 C15_4 1_555 1_555
C16_4 C11_4 1_555 1_555
H26_4 C16_4 1_555 1_555
H27_4 C16_4 1_555 1_555
H28_4 C16_4 1_555 1_555
C17_4 C12_4 1_555 1_555
H29_4 C17_4 1_555 1_555
H30_4 C17_4 1_555 1_555
H31_4 C17_4 1_555 1_555
C18_4 C12_4 1_555 1_555
H32_4 C18_4 1_555 1_555
H33_4 C18_4 1_555 1_555
H34_4 C18_4 1_555 1_555
C19_4 O8_4 1_555 1_555
C20_4 C13_4 1_555 1_555
Cd3_2 O15_3 1_555 1_555
O14_4 Cd1_4 1_555 1_555
O9_4 C19_4 1_555 1_555
C11_4 C19_4 1_555 1_555
C14_4 C15_4 1_555 1_555
O8_5 Cd3 1_555 1_555
O9_5 Cd3 1_555 1_555
O14 C20_5 1_555 1_555
O11_2 C20_5 1_555 1_555
C11_5 C12_5 1_555 1_555
C12_5 C13_5 1_555 1_555
C13_5 H21_5 1_555 1_555
C14_5 C13_5 1_555 1_555
H22_3 C14_5 1_555 1_555
H23_5 C14_5 1_555 1_555
C15_5 C11_5 1_555 1_555
H24_5 C15_5 1_555 1_555
H25_5 C15_5 1_555 1_555
C16_5 C11_5 1_555 1_555
H26_5 C16_5 1_555 1_555
H27_5 C16_5 1_555 1_555
H28_5 C16_5 1_555 1_555
C17_5 C12_5 1_555 1_555
H29_5 C17_5 1_555 1_555
H30_5 C17_5 1_555 1_555
H31_5 C17_5 1_555 1_555
C18_5 C12_5 1_555 1_555
H32_5 C18_5 1_555 1_555
H33_5 C18_5 1_555 1_555
H34_5 C18_5 1_555 1_555
C19_5 O8_5 1_555 1_555
C20_5 C13_5 1_555 1_555
O9_5 C19_5 1_555 1_555
C11_5 C19_5 1_555 1_555
C14_5 C15_5 1_555 1_555
Cd2_4 O3_5 1_555 1_555
O1_5 C9_5 1_555 1_555
O3_5 H1_4 1_555 1_555
H2_5 O3_5 1_555 1_555
O4_5 Cd2_4 1_555 1_555
H3_5 O4_5 1_555 1_555
H4_5 O4_5 1_555 1_555
O12 Cd2_4 1_555 1_555
O13 C10_5 1_555 1_555
C1_5 C2_5 1_555 1_555
C2_5 C3_5 1_555 1_555
C3_5 H7_5 1_555 1_555
C4_5 C3_5 1_555 1_555
H8_5 C4_5 1_555 1_555
H9_5 C4_5 1_555 1_555
C5_5 C1_5 1_555 1_555
H10_5 C5_5 1_555 1_555
H11_5 C5_5 1_555 1_555
C6_5 C1_5 1_555 1_555
H12_5 C6_5 1_555 1_555
H14_5 C6_5 1_555 1_555
C7_5 C2_5 1_555 1_555
H15_5 C7_5 1_555 1_555
H16_5 C7_5 1_555 1_555
H17_5 C7_5 1_555 1_555
C8_5 C2_5 1_555 1_555
H18_5 C8_5 1_555 1_555
H19_5 C8_5 1_555 1_555
H20_5 C8_5 1_555 1_555
C9_5 O2_5 1_555 1_555
C10_5 O12 1_555 1_555
O14_4 Cd2_4 1_555 1_555
O16_4 Cd2_4 1_555 1_555
C1_5 C9_5 1_555 1_555
C3_5 C10_5 1_555 1_555
C4_5 C5_5 1_555 1_555
H2_6 O3_6 1_555 1_555
H3_6 O4_6 1_555 1_555
H4_6 O4_6 1_555 1_555
O1_6 C9_6 1_555 1_555
O12_2 Cd5_2 1_555 1_555
O6_3 Cd5_2 1_555 1_555
H5_3 O6_3 1_555 1_555
H6_3 O6_3 1_555 1_555
O13_2 C10_6 1_555 1_555
O14_2 C20_6 1_555 1_555
O11_3 C20_6 1_555 1_555
C1_6 C2_6 1_555 1_555
C2_6 C3_6 1_555 1_555
C3_6 H7_6 1_555 1_555
C4_6 C3_6 1_555 1_555
H8_6 C4_6 1_555 1_555
H9_6 C4_6 1_555 1_555
C5_6 C1_6 1_555 1_555
H10_6 C5_6 1_555 1_555
H11_6 C5_6 1_555 1_555
C6_6 C1_6 1_555 1_555
H12_6 C6_6 1_555 1_555
H13_6 C6_6 1_555 1_555
H14_6 C6_6 1_555 1_555
C7_6 C2_6 1_555 1_555
H15_6 C7_6 1_555 1_555
H16_6 C7_6 1_555 1_555
H17_6 C7_6 1_555 1_555
C8_6 C2_6 1_555 1_555
H18_6 C8_6 1_555 1_555
H19_6 C8_6 1_555 1_555
H20_6 C8_6 1_555 1_555
C9_6 O2_6 1_555 1_555
C10_6 O12_2 1_555 1_555
C11_6 C12_6 1_555 1_555
C12_6 C13_6 1_555 1_555
C13_6 H21_6 1_555 1_555
C14_6 C13_6 1_555 1_555
H23_6 C14_6 1_555 1_555
C16_6 C11_6 1_555 1_555
H27_6 C16_6 1_555 1_555
H28_6 C16_6 1_555 1_555
C17_6 C12_6 1_555 1_555
H29_6 C17_6 1_555 1_555
H30_6 C17_6 1_555 1_555
H31_6 C17_6 1_555 1_555
C18_6 C12_6 1_555 1_555
H32_6 C18_6 1_555 1_555
H33_6 C18_6 1_555 1_555
H34_6 C18_6 1_555 1_555
C20_6 C13_6 1_555 1_555
Cd5_3 O14_2 1_555 1_555
O11_3 Cd5_3 1_555 1_555
C1_6 C9_6 1_555 1_555
C3_6 C10_6 1_555 1_555
C4_6 C5_6 1_555 1_555
O8_6 Cd4 1_555 1_555
H24_6 C15_6 1_555 1_555
H25_6 C15_6 1_555 1_555
C19_6 O8_6 1_555 1_555
Cd5_3 O3_7 1_555 1_555
O1_7 C9_7 1_555 1_555
O3_7 H1_5 1_555 1_555
H2_7 O3_7 1_555 1_555
O4_7 Cd5_3 1_555 1_555
H3_7 O4_7 1_555 1_555
H4_7 O4_7 1_555 1_555
O12_3 Cd5_3 1_555 1_555
O13_3 C10_7 1_555 1_555
C1_7 C2_7 1_555 1_555
C2_7 C3_7 1_555 1_555
C3_7 H7_7 1_555 1_555
C4_7 C3_7 1_555 1_555
H8_7 C4_7 1_555 1_555
H9_7 C4_7 1_555 1_555
C5_7 C1_7 1_555 1_555
H10_7 C5_7 1_555 1_555
H11_7 C5_7 1_555 1_555
C6_7 C1_7 1_555 1_555
H12_7 C6_7 1_555 1_555
H14_7 C6_7 1_555 1_555
C7_7 C2_7 1_555 1_555
H15_7 C7_7 1_555 1_555
H16_7 C7_7 1_555 1_555
H17_7 C7_7 1_555 1_555
C8_7 C2_7 1_555 1_555
H18_7 C8_7 1_555 1_555
H19_7 C8_7 1_555 1_555
H20_7 C8_7 1_555 1_555
C9_7 O2_7 1_555 1_555
C10_7 O12_3 1_555 1_555
C1_7 C9_7 1_555 1_555
C3_7 C10_7 1_555 1_555
C4_7 C5_7 1_555 1_555
O8_7 Cd4_2 1_555 1_555
O9_7 Cd4_2 1_555 1_555
O14_3 C20_7 1_555 1_555
O11_4 C20_7 1_555 1_555
C11_7 C12_7 1_555 1_555
C12_7 C13_7 1_555 1_555
C13_7 H21_7 1_555 1_555
C14_7 C13_7 1_555 1_555
H22_4 C14_7 1_555 1_555
H23_7 C14_7 1_555 1_555
C15_7 C11_7 1_555 1_555
H24_7 C15_7 1_555 1_555
H25_7 C15_7 1_555 1_555
C16_7 C11_7 1_555 1_555
H26_7 C16_7 1_555 1_555
H27_7 C16_7 1_555 1_555
H28_7 C16_7 1_555 1_555
C17_7 C12_7 1_555 1_555
H29_7 C17_7 1_555 1_555
H30_7 C17_7 1_555 1_555
H31_7 C17_7 1_555 1_555
C18_7 C12_7 1_555 1_555
H32_7 C18_7 1_555 1_555
H33_7 C18_7 1_555 1_555
H34_7 C18_7 1_555 1_555
C19_7 O8_7 1_555 1_555
C20_7 C13_7 1_555 1_555
Cd5_4 O14_3 1_555 1_555
O9_7 C19_7 1_555 1_555
O11_4 Cd5_4 1_555 1_555
C11_7 C19_7 1_555 1_555
C14_7 C15_7 1_555 1_555
O8_8 Cd3_2 1_555 1_555
H24_8 C15_8 1_555 1_555
H25_8 C15_8 1_555 1_555
C19_8 O8_8 1_555 1_555
O1_8 C9_8 1_555 1_555
O4_8 Cd5_4 1_555 1_555
H3_8 O4_8 1_555 1_555
H4_8 O4_8 1_555 1_555
O12_4 Cd5_4 1_555 1_555
O6_4 Cd5_4 1_555 1_555
H5_4 O6_4 1_555 1_555
H6_4 O6_4 1_555 1_555
O13_4 C10_8 1_555 1_555
O14_4 C20_8 1_555 1_555
O16_4 C20_8 1_555 1_555
C1_8 C2_8 1_555 1_555
C2_8 C3_8 1_555 1_555
C3_8 H7_8 1_555 1_555
C4_8 C3_8 1_555 1_555
H8_8 C4_8 1_555 1_555
H9_8 C4_8 1_555 1_555
C5_8 C1_8 1_555 1_555
H10_8 C5_8 1_555 1_555
H11_8 C5_8 1_555 1_555
C6_8 C1_8 1_555 1_555
H12_8 C6_8 1_555 1_555
H13_8 C6_8 1_555 1_555
H14_8 C6_8 1_555 1_555
C7_8 C2_8 1_555 1_555
H15_8 C7_8 1_555 1_555
H16_8 C7_8 1_555 1_555
H17_8 C7_8 1_555 1_555
C8_8 C2_8 1_555 1_555
H18_8 C8_8 1_555 1_555
H19_8 C8_8 1_555 1_555
H20_8 C8_8 1_555 1_555
C9_8 O2_8 1_555 1_555
C10_8 O12_4 1_555 1_555
C11_8 C12_8 1_555 1_555
C12_8 C13_8 1_555 1_555
C13_8 H21_8 1_555 1_555
C14_8 C13_8 1_555 1_555
H23_8 C14_8 1_555 1_555
C16_8 C11_8 1_555 1_555
H27_8 C16_8 1_555 1_555
H28_8 C16_8 1_555 1_555
C17_8 C12_8 1_555 1_555
H29_8 C17_8 1_555 1_555
H30_8 C17_8 1_555 1_555
H31_8 C17_8 1_555 1_555
C18_8 C12_8 1_555 1_555
H32_8 C18_8 1_555 1_555
H33_8 C18_8 1_555 1_555
H34_8 C18_8 1_555 1_555
C20_8 C13_8 1_555 1_555
C1_8 C9_8 1_555 1_555
C3_8 C10_8 1_555 1_555
C4_8 C5_8 1_555 1_555
O3_8 H1_6 1_555 1_555
H2_8 O3_8 1_555 1_555
H5_5 O6_5 1_555 1_555
H6_5 O6_5 1_555 1_555
H5_6 O6_6 1_555 1_555
H6_6 O6_6 1_555 1_555
H5_7 O6_7 1_555 1_555
H6_7 O6_7 1_555 1_555
H5_8 O6_8 1_555 1_555
H6_8 O6_8 1_555 1_555

#END
