
###############################################################################
#
# This file contains modified crystal structure data generated from the
# MOF subset of the Cambridge Structural Database (CSD) v543 
# hosted by the Cambridge Crystallographic Data Centre (CCDC).
#
# This work is licensed under the Creative Commons
# Attribution-NonCommercial-ShareAlike 4.0 International License.
# To view a copy of this license, visit
# http://creativecommons.org/licenses/by-nc-sa/4.0/
# or send a letter to
# Creative Commons, PO Box 1866, Mountain View, CA 94042, USA.
#
# CIF created using the CSD Python API on 29 September 2022
# The structure has been converted into the P1 space group
# The structure has a 3D framework
# The original CSD entry JIVFUQ is in the monoclinic crystal system
# The framework has been calculated to contain at least 10.0% void space
# The void calculation uses a probe of radius 1.32A, grid spacing 0.4
#
###############################################################################

data_JIVFUQ
_chemical_formula_moiety         '(C24 H24 O30 P8 Zn2)n'
_symmetry_cell_setting           triclinic
_symmetry_space_group_name_H-M   'P 1'
_symmetry_Int_Tables_number      1
_space_group_name_Hall           'P 1'
loop_
_symmetry_equiv_pos_site_id
_symmetry_equiv_pos_as_xyz
1 x,y,z
_cell_length_a                   15.530(3)
_cell_length_b                   14.008(3)
_cell_length_c                   9.1571(18)
_cell_angle_alpha                90
_cell_angle_beta                 103.94(3)
_cell_angle_gamma                90
_cell_volume                     1933.4
loop_
_atom_site_label
_atom_site_type_symbol
_atom_site_fract_x
_atom_site_fract_y
_atom_site_fract_z
Zn1 Zn 0.0000 0.02443(3) 0.2500
P1 P 0.07553(4) 0.13079(5) 0.00847(7)
O2 O 0.08035(12) 0.10733(14) 0.1730(2)
O4 O 0.23875(14) 0.18213(18) 0.2790(2)
H2 H 0.1917 0.1542 0.2736
C1 C 0.24168(18) 0.2150(2) 0.1390(3)
C2 C 0.17367(17) 0.19942(18) 0.0099(3)
Zn4 Zn 0.5000 0.52443(3) 0.2500
O5 O 0.50725(12) 0.30794(14) 0.0621(2)
H4 H 0.5063 0.2588 0.0132
O8 O 0.42414(12) 0.45522(14) 0.0893(2)
C6 C 0.31670(18) 0.2651(2) 0.1282(3)
H6 H 0.3616 0.2753 0.2144
O3 O 0.07586(12) 0.04478(14) 0.9107(2)
C3 C 0.18330(18) 0.2349(2) 0.8718(3)
H3 H 0.1384 0.2247 0.7856
Zn3 Zn 0.5000 0.47557(3) 0.7500
P2 P 0.42447(4) 0.36921(5) 0.99153(7)
O6 O 0.41965(12) 0.39267(14) 0.8270(2)
O11 O 0.26125(14) 0.31787(18) 0.7210(2)
H5 H 0.3083 0.3458 0.7264
C4 C 0.25832(18) 0.2850(2) 0.8610(3)
C5 C 0.32633(17) 0.30058(18) 0.9901(3)
O9 O 0.07586(12) 0.95522(14) 0.4107(2)
Zn2 Zn 0.0000 0.97557(3) 0.7500
Zn1_2 Zn 1.0000 0.02443(3) 0.2500
O7 O 0.91965(12) 0.10733(14) 0.3270(2)
O10 O 0.92414(12) 0.95522(14) 0.0893(2)
Zn2_2 Zn 1.0000 0.97557(3) 0.7500
P1_2 P 0.57553(4) 0.63079(5) 0.00847(7)
O2_2 O 0.58035(12) 0.60733(14) 0.1730(2)
O4_2 O 0.73875(14) 0.68213(18) 0.2790(2)
H2_2 H 0.6917 0.6542 0.2736
C1_2 C 0.74168(18) 0.7150(2) 0.1390(3)
C2_2 C 0.67367(17) 0.69942(18) 0.0099(3)
O7_2 O 0.41965(12) 0.60733(14) 0.3270(2)
O9_2 O 0.57586(12) 0.45522(14) 0.4107(2)
C6_2 C 0.81670(18) 0.7651(2) 0.1282(3)
H6_2 H 0.8616 0.7753 0.2144
O1 O 0.49275(12) 0.69206(14) 0.9379(2)
H1 H 0.4937 0.7412 0.9868
O3_2 O 0.57586(12) 0.54478(14) 0.9107(2)
C3_2 C 0.68330(18) 0.7349(2) 0.8718(3)
H3_2 H 0.6384 0.7247 0.7856
P2_2 P 0.92447(4) 0.86921(5) 0.99153(7)
O6_2 O 0.91965(12) 0.89267(14) 0.8270(2)
O11_2 O 0.76125(14) 0.81787(18) 0.7210(2)
H5_2 H 0.8083 0.8458 0.7264
C4_2 C 0.75832(18) 0.7850(2) 0.8610(3)
C5_2 C 0.82633(17) 0.80058(18) 0.9901(3)
O1_2 O 0.00725(12) 0.19206(14) 0.5621(2)
H1_2 H 0.0063 0.2412 0.5132
P1_3 P 0.92447(4) 0.13079(5) 0.49153(7)
O3_3 O 0.92414(12) 0.04478(14) 0.5893(2)
O4_3 O 0.76125(14) 0.18213(18) 0.2210(2)
H2_3 H 0.8083 0.1542 0.2264
C1_3 C 0.75832(18) 0.2150(2) 0.3610(3)
C2_3 C 0.82633(17) 0.19942(18) 0.4901(3)
C3_3 C 0.81670(18) 0.2349(2) 0.6282(3)
H3_3 H 0.8616 0.2247 0.7144
P2_3 P 0.57553(4) 0.36921(5) 0.50847(7)
O5_2 O 0.49275(12) 0.30794(14) 0.4379(2)
H4_2 H 0.4937 0.2588 0.4868
O6_3 O 0.58035(12) 0.39267(14) 0.6730(2)
O11_3 O 0.73875(14) 0.31787(18) 0.7790(2)
H5_3 H 0.6917 0.3458 0.7736
C4_3 C 0.74168(18) 0.2850(2) 0.6390(3)
C5_3 C 0.67367(17) 0.30058(18) 0.5099(3)
C6_3 C 0.68330(18) 0.2651(2) 0.3718(3)
H6_3 H 0.6384 0.2753 0.2856
P1_4 P 0.42447(4) 0.63079(5) 0.49153(7)
O1_3 O 0.50725(12) 0.69206(14) 0.5621(2)
H1_3 H 0.5063 0.7412 0.5132
O3_4 O 0.42414(12) 0.54478(14) 0.5893(2)
O4_4 O 0.26125(14) 0.68213(18) 0.2210(2)
H2_4 H 0.3083 0.6542 0.2264
C1_4 C 0.25832(18) 0.7150(2) 0.3610(3)
C2_4 C 0.32633(17) 0.69942(18) 0.4901(3)
C3_4 C 0.31670(18) 0.7349(2) 0.6282(3)
H3_4 H 0.3616 0.7247 0.7144
P2_4 P 0.07553(4) 0.86921(5) 0.50847(7)
O6_4 O 0.08035(12) 0.89267(14) 0.6730(2)
O11_4 O 0.23875(14) 0.81787(18) 0.7790(2)
H5_4 H 0.1917 0.8458 0.7736
C4_4 C 0.24168(18) 0.7850(2) 0.6390(3)
C5_4 C 0.17367(17) 0.80058(18) 0.5099(3)
C6_4 C 0.18330(18) 0.7651(2) 0.3718(3)
H6_4 H 0.1384 0.7753 0.2856
O5_3 O 0.99275(12) 0.80794(14) 0.4379(2)
H4_3 H 0.9937 0.7588 0.4868
O1_4 O 0.99275(12) 0.19206(14) 0.9379(2)
H1_4 H 0.9937 0.2412 0.9868
O5_4 O 0.00725(12) 0.80794(14) 0.0621(2)
H4_4 H 0.0063 0.7588 0.0132
loop_
_geom_bond_atom_site_label_1
_geom_bond_atom_site_label_2
_geom_bond_site_symmetry_1
_geom_bond_site_symmetry_2
Zn1 O2 1_555 1_555
O2 P1 1_555 1_555
O4 H2 1_555 1_555
C1 O4 1_555 1_555
C2 P1 1_555 1_555
Zn4 O8 1_555 1_555
O5 H4 1_555 1_555
C6 C1 1_555 1_555
H6 C6 1_555 1_555
C1 C2 1_555 1_555
H3 C3 1_555 1_555
Zn3 O6 1_555 1_555
O6 P2 1_555 1_555
O11 H5 1_555 1_555
C4 C3 1_555 1_555
C5 P2 1_555 1_555
O11 C4 1_555 1_555
C4 C5 1_555 1_555
O7 Zn1_2 1_555 1_555
Zn4 O2_2 1_555 1_555
O2_2 P1_2 1_555 1_555
O4_2 H2_2 1_555 1_555
C1_2 O4_2 1_555 1_555
C2_2 P1_2 1_555 1_555
O7_2 Zn4 1_555 1_555
O9_2 Zn4 1_555 1_555
C6_2 C1_2 1_555 1_555
H6_2 C6_2 1_555 1_555
C1_2 C2_2 1_555 1_555
O1 H1 1_555 1_555
H3_2 C3_2 1_555 1_555
Zn3 O3_2 1_555 1_555
Zn2_2 O6_2 1_555 1_555
O6_2 P2_2 1_555 1_555
O11_2 H5_2 1_555 1_555
C4_2 C3_2 1_555 1_555
C5_2 P2_2 1_555 1_555
O11_2 C4_2 1_555 1_555
C4_2 C5_2 1_555 1_555
O1_2 H1_2 1_555 1_555
O7 P1_3 1_555 1_555
O3_3 P1_3 1_555 1_555
O4_3 H2_3 1_555 1_555
C1_3 O4_3 1_555 1_555
C2_3 P1_3 1_555 1_555
C3_3 C2_3 1_555 1_555
H3_3 C3_3 1_555 1_555
Zn3 O6_3 1_555 1_555
P2_3 O5_2 1_555 1_555
O5_2 H4_2 1_555 1_555
O6_3 P2_3 1_555 1_555
O9_2 P2_3 1_555 1_555
O11_3 H5_3 1_555 1_555
C4_3 C3_3 1_555 1_555
C5_3 P2_3 1_555 1_555
C6_3 C1_3 1_555 1_555
H6_3 C6_3 1_555 1_555
C1_3 C2_3 1_555 1_555
O11_3 C4_3 1_555 1_555
C4_3 C5_3 1_555 1_555
C5_3 C6_3 1_555 1_555
P1_4 O1_3 1_555 1_555
O1_3 H1_3 1_555 1_555
O7_2 P1_4 1_555 1_555
O3_4 P1_4 1_555 1_555
O4_4 H2_4 1_555 1_555
C1_4 O4_4 1_555 1_555
C2_4 P1_4 1_555 1_555
C3_4 C2_4 1_555 1_555
H3_4 C3_4 1_555 1_555
Zn3 O3_4 1_555 1_555
Zn2 O6_4 1_555 1_555
O6_4 P2_4 1_555 1_555
O9 P2_4 1_555 1_555
O11_4 H5_4 1_555 1_555
C4_4 C3_4 1_555 1_555
C5_4 P2_4 1_555 1_555
C6_4 C1_4 1_555 1_555
H6_4 C6_4 1_555 1_555
C1_4 C2_4 1_555 1_555
O11_4 C4_4 1_555 1_555
C4_4 C5_4 1_555 1_555
C5_4 C6_4 1_555 1_555
O5_3 H4_3 1_555 1_555
O1_4 H1_4 1_555 1_555
O5_4 H4_4 1_555 1_555

#END
