
###############################################################################
#
# This file contains modified crystal structure data generated from the
# MOF subset of the Cambridge Structural Database (CSD) v543 
# hosted by the Cambridge Crystallographic Data Centre (CCDC).
#
# This work is licensed under the Creative Commons
# Attribution-NonCommercial-ShareAlike 4.0 International License.
# To view a copy of this license, visit
# http://creativecommons.org/licenses/by-nc-sa/4.0/
# or send a letter to
# Creative Commons, PO Box 1866, Mountain View, CA 94042, USA.
#
# CIF created using the CSD Python API on 29 September 2022
# The structure has been converted into the P1 space group
# The structure has a 3D framework
# The original CSD entry JIVSEN is in the monoclinic crystal system
# The original CSD entry JIVSEN is in a Sohncke space group
# The framework has been calculated to contain at least 10.0% void space
# The void calculation uses a probe of radius 1.32A, grid spacing 0.4
# The framework is charged, counterions have been retained in the structure
# H atom positions have been added when not included in the experimental data
#
###############################################################################

data_JIVSEN
_chemical_formula_moiety         '(C56 H40 Cu6 N4 O26 Sm4 6+)n'
_symmetry_cell_setting           triclinic
_symmetry_space_group_name_H-M   'P 1'
_symmetry_Int_Tables_number      1
_space_group_name_Hall           'P 1'
loop_
_symmetry_equiv_pos_site_id
_symmetry_equiv_pos_as_xyz
1 x,y,z
_cell_length_a                   36.936(4)
_cell_length_b                   7.0081(6)
_cell_length_c                   6.2127(7)
_cell_angle_alpha                90
_cell_angle_beta                 97.246(6)
_cell_angle_gamma                90
_cell_volume                     1595.32
loop_
_atom_site_label
_atom_site_type_symbol
_atom_site_fract_x
_atom_site_fract_y
_atom_site_fract_z
Sm8 Sm 0.280102(6) 0.18939(14) 0.47737(3)
O17 O 0.23339(10) 0.1658(11) 0.1622(6)
C21 C 0.1401(2) 0.0947(10) 0.0526(11)
H13 H 0.1387 0.0438 0.1896
C28 C 0.20676(17) 0.0469(9) 0.1297(9)
Sm7 Sm 0.219898(6) 0.68939(14) 0.52263(3)
O10 O 0.22717(17) 0.0303(10) 0.6516(9)
O13 O 0.2209(2) 0.3383(10) 0.5899(11)
C22 C 0.10849(18) 0.157(2) 0.9288(12)
H14 H 0.0862 0.1504 0.9830
C23 C 0.11053(19) 0.2288(11) 0.7250(13)
H15 H 0.0893 0.2679 0.6394
C24 C 0.14364(19) 0.2436(9) 0.6461(11)
H16 H 0.1446 0.2939 0.5083
C25 C 0.17536(12) 0.185(2) 0.7685(7)
C26 C 0.17365(16) 0.1062(9) 0.9773(9)
C27 C 0.21017(13) 0.176(2) 0.6674(8)
Cu1 Cu 0.0000 0.6916(12) 0.0000
H1 H 0.1311 0.6088 0.0704
C4 C 0.0765(2) 0.6380(14) 0.0377(14)
H2 H 0.0741 0.6013 0.1790
O20 O 0.2039(3) 0.8910(12) 0.2251(15)
Cu1_2 Cu 0.0000 0.6916(12) 1.0000
O1 O 0.15337(13) 0.7453(7) 0.4899(7)
O2 O 0.18038(11) 0.6689(17) 0.8097(6)
O3 O 0.27283(17) 0.5303(10) 0.3484(9)
O4 O 0.2791(2) 0.8383(10) 0.4101(11)
N1 N 0.04657(15) 0.685(4) 0.9040(10)
C1 C 0.15174(15) 0.700(3) 0.6834(9)
C2 C 0.11495(15) 0.695(3) 0.7665(8)
C3 C 0.11081(19) 0.6419(11) 0.9733(12)
C5 C 0.0508(2) 0.7569(15) 0.7070(15)
H3 H 0.0305 0.8034 0.6191
C6 C 0.0849(2) 0.7632(12) 0.6310(14)
H4 H 0.0874 0.8117 0.4944
C8 C 0.39151(18) 0.657(2) 0.0712(12)
H6 H 0.4138 0.6504 0.0170
C9 C 0.38947(19) 0.7288(11) 0.2750(13)
H7 H 0.4107 0.7679 0.3606
C10 C 0.35636(19) 0.7436(9) 0.3539(11)
H8 H 0.3554 0.7939 0.4917
C11 C 0.32464(12) 0.685(2) 0.2315(7)
C12 C 0.32635(16) 0.6062(9) 0.0227(9)
C13 C 0.28983(13) 0.676(2) 0.3326(8)
O7 O 0.1971(3) 0.5081(12) 0.2030(14)
O18 O 0.26661(10) 0.6658(11) 0.8378(6)
H17 H 0.184347 0.595017 0.0920621
H18 H 0.21781 0.445412 0.143516
O6 O 0.2961(3) 0.3910(12) 0.7749(15)
C7 C 0.3599(2) 0.5947(10) 0.9474(11)
H5 H 0.3613 0.5438 0.8104
C14 C 0.29324(17) 0.5469(9) 0.8703(9)
O12 O 0.77283(17) 0.0303(10) 0.3484(9)
Cu1_3 Cu 1.0000 0.6916(12) 0.0000
Sm2 Sm 0.780102(6) 0.68939(14) 0.47737(3)
O8 O 0.84663(13) 0.7453(7) 0.5101(7)
O9 O 0.81962(11) 0.6689(17) 0.1903(6)
O11 O 0.72717(17) 0.5303(10) 0.6516(9)
O15 O 0.7209(2) 0.8383(10) 0.5899(11)
O16 O 0.7791(2) 0.3383(10) 0.4101(11)
O19 O 0.73339(10) 0.6658(11) 0.1622(6)
O22 O 0.7961(3) 0.8910(12) 0.7749(15)
N2 N 0.95343(15) 0.685(4) 0.0960(10)
C15 C 0.84826(15) 0.700(3) 0.3166(9)
C16 C 0.88505(15) 0.695(3) 0.2335(8)
C17 C 0.88919(19) 0.6419(11) 0.0267(12)
C19 C 0.9492(2) 0.7569(15) 0.2930(15)
H11 H 0.9695 0.8034 0.3809
C20 C 0.9151(2) 0.7632(12) 0.3690(14)
H12 H 0.9126 0.8117 0.5056
O23 O 0.8029(3) 0.5081(12) 0.7970(14)
H19 H 0.815653 0.595017 0.907938
H20 H 0.78219 0.445412 0.856484
Cu1_4 Cu 1.0000 0.6916(12) 1.0000
H9 H 0.8689 0.6088 0.9296
C18 C 0.9235(2) 0.6380(14) 0.9623(14)
H10 H 0.9259 0.6013 0.8210
Sm4 Sm 0.719898(6) 0.18939(14) 0.52263(3)
C22_2 C 0.89151(18) 0.157(2) 0.0712(12)
H14_2 H 0.9138 0.1504 0.0170
C23_2 C 0.88947(19) 0.2288(11) 0.2750(13)
H15_2 H 0.9107 0.2679 0.3606
C24_2 C 0.85636(19) 0.2436(9) 0.3539(11)
H16_2 H 0.8554 0.2939 0.4917
C25_2 C 0.82464(12) 0.185(2) 0.2315(7)
C26_2 C 0.82635(16) 0.1062(9) 0.0227(9)
C27_2 C 0.78983(13) 0.176(2) 0.3326(8)
O17_2 O 0.76661(10) 0.1658(11) 0.8378(6)
C21_2 C 0.8599(2) 0.0947(10) 0.9474(11)
H13_2 H 0.8613 0.0438 0.8104
C28_2 C 0.79324(17) 0.0469(9) 0.8703(9)
O6_2 O 0.7039(3) 0.3910(12) 0.2251(15)
C7_2 C 0.6401(2) 0.5947(10) 0.0526(11)
H5_2 H 0.6387 0.5438 0.1896
C14_2 C 0.70676(17) 0.5469(9) 0.1297(9)
C8_2 C 0.60849(18) 0.657(2) 0.9288(12)
H6_2 H 0.5862 0.6504 0.9830
C9_2 C 0.61053(19) 0.7288(11) 0.7250(13)
H7_2 H 0.5893 0.7679 0.6394
C10_2 C 0.64364(19) 0.7436(9) 0.6461(11)
H8_2 H 0.6446 0.7939 0.5083
C11_2 C 0.67536(12) 0.685(2) 0.7685(7)
C12_2 C 0.67365(16) 0.6062(9) 0.9773(9)
C13_2 C 0.71017(13) 0.676(2) 0.6674(8)
Cu1_5 Cu 0.5000 0.1916(12) 0.0000
H1_2 H 0.6311 0.1088 0.0704
C4_2 C 0.5765(2) 0.1380(14) 0.0377(14)
H2_2 H 0.5741 0.1013 0.1790
O8_2 O 0.34663(13) 0.2453(7) 0.5101(7)
O9_2 O 0.31962(11) 0.1689(17) 0.1903(6)
N2_2 N 0.45343(15) 0.185(4) 0.0960(10)
C15_2 C 0.34826(15) 0.200(3) 0.3166(9)
C16_2 C 0.38505(15) 0.195(3) 0.2335(8)
C17_2 C 0.38919(19) 0.1419(11) 0.0267(12)
C19_2 C 0.4492(2) 0.2569(15) 0.2930(15)
H11_2 H 0.4695 0.3034 0.3809
C20_2 C 0.4151(2) 0.2632(12) 0.3690(14)
H12_2 H 0.4126 0.3117 0.5056
O23_2 O 0.3029(3) 0.0081(12) 0.7970(14)
H19_2 H 0.315653 0.095017 0.907938
Cu1_6 Cu 0.5000 0.1916(12) 1.0000
O1_2 O 0.65337(13) 0.2453(7) 0.4899(7)
O2_2 O 0.68038(11) 0.1689(17) 0.8097(6)
N1_2 N 0.54657(15) 0.185(4) 0.9040(10)
C1_2 C 0.65174(15) 0.200(3) 0.6834(9)
C2_2 C 0.61495(15) 0.195(3) 0.7665(8)
C3_2 C 0.61081(19) 0.1419(11) 0.9733(12)
C5_2 C 0.5508(2) 0.2569(15) 0.7070(15)
H3_2 H 0.5305 0.3034 0.6191
C6_2 C 0.5849(2) 0.2632(12) 0.6310(14)
H4_2 H 0.5874 0.3117 0.4944
O7_2 O 0.6971(3) 0.0081(12) 0.2030(14)
H9_2 H 0.3689 0.1088 0.9296
C18_2 C 0.4235(2) 0.1380(14) 0.9623(14)
H10_2 H 0.4259 0.1013 0.8210
H17_2 H 0.684347 0.095017 0.0920621
H20_2 H 0.28219 0.945412 0.856484
H18_2 H 0.71781 0.945412 0.143516
loop_
_geom_bond_atom_site_label_1
_geom_bond_atom_site_label_2
_geom_bond_site_symmetry_1
_geom_bond_site_symmetry_2
Sm8 O17 1_555 1_555
O17 C28 1_555 1_555
C21 H13 1_555 1_555
Sm7 O13 1_555 1_555
O13 Sm8 1_555 1_555
H14 C22 1_555 1_555
C23 C22 1_555 1_555
H15 C23 1_555 1_555
C24 C23 1_555 1_555
H16 C24 1_555 1_555
C25 C24 1_555 1_555
C27 O10 1_555 1_555
Sm8 O10 1_555 1_555
O13 C27 1_555 1_555
C25 C26 1_555 1_555
C25 C27 1_555 1_555
H2 C4 1_555 1_555
Sm7 O20 1_555 1_555
Sm7 O1 1_555 1_555
Cu1_2 N1 1_555 1_555
O1 C1 1_555 1_555
O2 Sm7 1_555 1_555
O3 Sm7 1_555 1_555
O4 Sm7 1_555 1_555
C1 O2 1_555 1_555
C2 C1 1_555 1_555
C3 C2 1_555 1_555
C5 N1 1_555 1_555
H3 C5 1_555 1_555
C6 C2 1_555 1_555
H4 C6 1_555 1_555
H6 C8 1_555 1_555
C9 C8 1_555 1_555
H7 C9 1_555 1_555
C10 C9 1_555 1_555
H8 C10 1_555 1_555
C11 C10 1_555 1_555
C13 O3 1_555 1_555
O7 Sm7 1_555 1_555
Sm8 O3 1_555 1_555
O18 Sm7 1_555 1_555
O4 C13 1_555 1_555
C5 C6 1_555 1_555
C11 C12 1_555 1_555
C11 C13 1_555 1_555
O7 H17 1_555 1_555
O7 H18 1_555 1_555
O18 C14 1_555 1_555
O6 C14 1_555 1_555
C7 H5 1_555 1_555
Sm8 O6 1_555 1_555
Sm2 O8 1_555 1_555
O8 C15 1_555 1_555
O9 Sm2 1_555 1_555
O11 Sm2 1_555 1_555
O15 Sm2 1_555 1_555
O16 Sm2 1_555 1_555
O19 Sm2 1_555 1_555
O22 Sm2 1_555 1_555
N2 Cu1_3 1_555 1_555
C15 O9 1_555 1_555
C16 C15 1_555 1_555
C17 C16 1_555 1_555
C19 N2 1_555 1_555
H11 C19 1_555 1_555
C20 C16 1_555 1_555
H12 C20 1_555 1_555
O23 Sm2 1_555 1_555
C19 C20 1_555 1_555
O23 H19 1_555 1_555
O23 H20 1_555 1_555
H10 C18 1_555 1_555
O16 Sm4 1_555 1_555
H14_2 C22_2 1_555 1_555
C23_2 C22_2 1_555 1_555
H15_2 C23_2 1_555 1_555
C24_2 C23_2 1_555 1_555
H16_2 C24_2 1_555 1_555
C25_2 C24_2 1_555 1_555
C27_2 O12 1_555 1_555
Sm4 O12 1_555 1_555
O16 C27_2 1_555 1_555
C25_2 C26_2 1_555 1_555
C25_2 C27_2 1_555 1_555
Sm4 O17_2 1_555 1_555
O17_2 C28_2 1_555 1_555
C21_2 H13_2 1_555 1_555
O19 C14_2 1_555 1_555
O6_2 C14_2 1_555 1_555
C7_2 H5_2 1_555 1_555
Sm4 O6_2 1_555 1_555
H6_2 C8_2 1_555 1_555
C9_2 C8_2 1_555 1_555
H7_2 C9_2 1_555 1_555
C10_2 C9_2 1_555 1_555
H8_2 C10_2 1_555 1_555
C11_2 C10_2 1_555 1_555
C13_2 O11 1_555 1_555
Sm4 O11 1_555 1_555
O15 C13_2 1_555 1_555
C11_2 C12_2 1_555 1_555
C11_2 C13_2 1_555 1_555
H2_2 C4_2 1_555 1_555
Sm8 O8_2 1_555 1_555
O8_2 C15_2 1_555 1_555
O9_2 Sm8 1_555 1_555
N2_2 Cu1_5 1_555 1_555
C15_2 O9_2 1_555 1_555
C16_2 C15_2 1_555 1_555
C17_2 C16_2 1_555 1_555
C19_2 N2_2 1_555 1_555
H11_2 C19_2 1_555 1_555
C20_2 C16_2 1_555 1_555
H12_2 C20_2 1_555 1_555
O23_2 Sm8 1_555 1_555
C19_2 C20_2 1_555 1_555
O23_2 H19_2 1_555 1_555
Sm4 O1_2 1_555 1_555
Cu1_6 N1_2 1_555 1_555
O1_2 C1_2 1_555 1_555
O2_2 Sm4 1_555 1_555
C1_2 O2_2 1_555 1_555
C2_2 C1_2 1_555 1_555
C3_2 C2_2 1_555 1_555
C5_2 N1_2 1_555 1_555
H3_2 C5_2 1_555 1_555
C6_2 C2_2 1_555 1_555
H4_2 C6_2 1_555 1_555
O7_2 Sm4 1_555 1_555
H10_2 C18_2 1_555 1_555
C5_2 C6_2 1_555 1_555
O7_2 H17_2 1_555 1_555

#END
