
###############################################################################
#
# This file contains modified crystal structure data generated from the
# MOF subset of the Cambridge Structural Database (CSD) v543 
# hosted by the Cambridge Crystallographic Data Centre (CCDC).
#
# This work is licensed under the Creative Commons
# Attribution-NonCommercial-ShareAlike 4.0 International License.
# To view a copy of this license, visit
# http://creativecommons.org/licenses/by-nc-sa/4.0/
# or send a letter to
# Creative Commons, PO Box 1866, Mountain View, CA 94042, USA.
#
# CIF created using the CSD Python API on 29 September 2022
# The structure has been converted into the P1 space group
# The structure has a 3D framework
# The original CSD entry JIWKUW is in the triclinic crystal system
# The framework has been calculated to contain at least 10.0% void space
# The void calculation uses a probe of radius 1.32A, grid spacing 0.4
# H atom positions have been added when not included in the experimental data
#
###############################################################################

data_JIWKUW
_chemical_formula_moiety         '(C136 H164 N16 Na8 O91 Tb8)n'
_symmetry_cell_setting           triclinic
_symmetry_space_group_name_H-M   'P 1'
_symmetry_Int_Tables_number      1
_space_group_name_Hall           'P 1'
loop_
_symmetry_equiv_pos_site_id
_symmetry_equiv_pos_as_xyz
1 x,y,z
_cell_length_a                   16.875(1)
_cell_length_b                   17.3103(11)
_cell_length_c                   20.2441(13)
_cell_angle_alpha                99.182(2)
_cell_angle_beta                 97.809(2)
_cell_angle_gamma                108.543(2)
_cell_volume                     5423.56
loop_
_atom_site_label
_atom_site_type_symbol
_atom_site_fract_x
_atom_site_fract_y
_atom_site_fract_z
H35 H 0.0822 0.0436 0.5712
H38 H 0.2171 0.0117 0.5809
C43 C 0.0229(5) 0.1476(4) 0.7041(4)
H42 H 0.0303 0.2061 0.7242
H43 H 0.0633 0.1488 0.6728
C44 C 0.0449(5) 0.1058(5) 0.7609(4)
O25 O 0.1200(4) 0.1244(4) 0.7862(3)
C11 C 0.0220(5) 0.3611(5) 0.1332(4)
H10 H 0.0339 0.3674 0.0874
H11 H 0.0639 0.3394 0.1554
C12 C 0.0323(5) 0.4453(5) 0.1752(4)
O9 O 0.1051(4) 0.4888(4) 0.2087(4)
C37 C 0.0582(4) 0.9978(5) 0.5913(4)
C38 C 0.1005(4) 0.9418(5) 0.5983(4)
C39 C 0.0658(4) 0.8765(5) 0.6275(4)
H36 H 0.0948 0.8383 0.6329
C41 C 0.1840(5) 0.9522(6) 0.5740(5)
H37 H 0.2168 0.9255 0.6000
H39 H 0.1719 0.9261 0.5253
Na3 Na 0.1595(3) 0.6276(3) 0.2061(2)
Na4 Na 0.0419(4) 0.5729(4) 0.4528(3)
O37 O 0.2170(8) 0.6674(6) 0.3210(5)
O40 O 0.1047(5) 0.5067(5) 0.5320(3)
O43 O 0.0031(7) 0.4430(9) 0.3536(6)
O44 O 0.0575(6) 0.6748(6) 0.5586(7)
O46 O 0.3184(9) 0.6499(13) 0.2125(6)
O50 O 0.2058(4) 0.7564(3) 0.1899(3)
O52 O 0.0226(4) 0.6345(4) 0.2339(3)
O53 O 0.0563(4) 0.5918(4) 0.0941(3)
H73 H 0.000442407 0.675882 0.564733
H74 H 0.0841952 0.658317 0.598276
H75 H 0.0320898 0.459529 0.315893
H76 H 0.0220205 0.399677 0.370509
H77 H 0.325301 0.612533 0.172775
H78 H 0.349716 0.708893 0.211767
H81 H 0.258877 0.639636 0.331837
H82 H 0.246123 0.728884 0.333719
O1 O 0.8555(3) 0.1501(3) 0.7894(3)
Tb3 Tb 0.83587(2) 0.01326(2) 0.729620(17)
C42 C 0.9335(5) 0.0461(4) 0.6005(4)
H40 H 0.8736 0.0123 0.5785
H41 H 0.9588 0.0794 0.5682
N6 N 0.9341(4) 0.1048(3) 0.6641(3)
O24 O 0.9831(3) 0.0585(3) 0.7815(3)
C45 C 0.8963(5) 0.1647(4) 0.6435(4)
H44 H 0.9150 0.1797 0.6015
H45 H 0.9175 0.2162 0.6798
C46 C 0.8008(5) 0.1313(5) 0.6304(4)
O26 O 0.7648(3) 0.0654(3) 0.6491(3)
O27 O 0.7621(4) 0.1731(4) 0.6046(3)
N8 N 0.7180(4) 0.0241(4) 0.7972(3)
C61 C 0.7063(5) 0.1022(5) 0.7903(4)
H59 H 0.6760 0.1183 0.8257
H60 H 0.6709 0.0948 0.7450
O35 O 0.7942(4) 0.2436(3) 0.8101(3)
C65 C 0.7920(5) 0.1710(5) 0.7980(4)
C67 C 0.7538(6) 0.0302(6) 0.8693(4)
H67 H 0.7898 0.0889 0.8902
H68 H 0.7065 0.0143 0.8942
Na6 Na 0.9554(2) 0.2804(2) 0.85285(18)
Na8 Na 0.8405(3) 0.3724(3) 0.7939(2)
Tb1 Tb 0.83361(2) 0.37894(2) 0.099340(17)
Tb2 Tb 0.74098(2) 0.42143(2) 0.256710(18)
C1 C 0.7801(5) 0.2482(4) 0.2000(4)
O2 O 0.8164(3) 0.8231(3) 0.5303(3)
O3 O 0.8372(4) 0.9551(4) 0.8267(3)
N1 N 0.6466(4) 0.7887(4) 0.5155(3)
O4 O 0.6101(3) 0.7193(3) 0.6257(3)
O5 O 0.7895(3) 0.3273(3) 0.1930(2)
C2 C 0.8453(5) 0.2178(5) 0.1976(3)
C3 C 0.8348(5) 0.1373(5) 0.2089(4)
H1 H 0.8819 0.1184 0.2098
C4 C 0.7587(5) 0.0848(5) 0.2186(4)
C5 C 0.6926(5) 0.1161(5) 0.2174(4)
H2 H 0.6391 0.0815 0.2237
C6 C 0.7004(5) 0.1955(4) 0.2075(4)
C7 C 0.7469(6) 0.0005(5) 0.2312(5)
H5 H 0.7914 0.0041 0.2694
C8 C 0.9330(5) 0.2722(5) 0.1917(4)
H6 H 0.9542 0.3217 0.2299
H7 H 0.9724 0.2406 0.1963
N2 N 0.9350(4) 0.3009(4) 0.1258(3)
C9 C 0.9175(5) 0.2322(5) 0.0674(4)
H8 H 0.8648 0.1863 0.0681
H9 H 0.9652 0.2104 0.0698
C10 C 0.9069(5) 0.2636(5) 0.0019(4)
O6 O 0.8873(3) 0.3279(3) 0.0056(3)
O8 O 0.9664(3) 0.4654(3) 0.1707(3)
C13 C 0.6234(5) 0.2221(4) 0.2018(4)
H12 H 0.6187 0.2455 0.1606
H13 H 0.5716 0.1723 0.1960
N3 N 0.6265(4) 0.2858(4) 0.2629(3)
C14 C 0.6471(5) 0.2589(5) 0.3271(4)
H14 H 0.6267 0.1972 0.3179
H15 H 0.6163 0.2782 0.3608
C15 C 0.7399(6) 0.2919(5) 0.3570(4)
O10 O 0.7857(4) 0.3602(3) 0.3431(3)
O11 O 0.7691(5) 0.2537(4) 0.3947(4)
C16 C 0.5433(5) 0.2977(5) 0.2547(5)
H16 H 0.5344 0.3207 0.3000
H17 H 0.4973 0.2430 0.2361
C17 C 0.5377(6) 0.3561(6) 0.2077(5)
O12 O 0.6058(4) 0.4030(3) 0.1960(3)
O13 O 0.4665(5) 0.3564(6) 0.1840(6)
C18 C 0.7227(5) 0.5039(5) 0.1234(4)
O14 O 0.7622(3) 0.4569(3) 0.1514(3)
C19 C 0.7352(5) 0.5848(5) 0.1580(4)
C20 C 0.6944(6) 0.6317(6) 0.1272(5)
H18 H 0.7032 0.6868 0.1507
C21 C 0.6414(6) 0.6012(7) 0.0633(6)
C22 C 0.6277(6) 0.5218(6) 0.0314(5)
C23 C 0.6673(5) 0.4705(5) 0.0591(4)
C24 C 0.5969(8) 0.6545(8) 0.0316(7)
H20 H 0.6386 0.6983 0.0163
H21 H 0.5715 0.6802 0.0657
C25 C 0.7955(5) 0.6207(5) 0.2259(4)
H23 H 0.8516 0.6164 0.2210
H24 H 0.8036 0.6807 0.2396
N4 N 0.7652(4) 0.5782(4) 0.2811(3)
C26 C 0.6865(6) 0.5882(5) 0.2967(5)
H25 H 0.6443 0.5755 0.2538
H26 H 0.6984 0.6467 0.3201
C27 C 0.6510(6) 0.5305(5) 0.3417(5)
O15 O 0.6767(4) 0.4688(3) 0.3446(3)
O16 O 0.5958(5) 0.5432(4) 0.3740(4)
C28 C 0.8331(5) 0.6169(5) 0.3412(4)
H27 H 0.8098 0.6069 0.3826
H28 H 0.8559 0.6780 0.3446
C29 C 0.9057(6) 0.5816(5) 0.3378(4)
O17 O 0.8837(4) 0.5066(3) 0.3053(3)
O18 O 0.9781(4) 0.6265(4) 0.3685(3)
C30 C 0.6502(6) 0.3845(6) 0.0234(5)
H30 H 0.6347 0.3472 0.0555
C32 C 0.8316(6) 0.5102(6) 0.0022(5)
O19 O 0.8755(4) 0.4974(4) 0.0526(3)
O21 O 0.7320(4) 0.2446(3) 0.0550(3)
Tb4 Tb 0.75227(2) 0.79236(2) 0.621410(19)
C35 C 0.9470(4) 0.9215(4) 0.6440(4)
O23 O 0.8734(3) 0.9122(3) 0.6672(3)
C36 C 0.9814(4) 0.9886(4) 0.6132(4)
C40 C 0.9889(4) 0.8644(4) 0.6497(4)
C47 C 0.9533(5) 0.7936(4) 0.6850(4)
H46 H 0.9945 0.7641 0.6902
H47 H 0.9484 0.8177 0.7314
N7 N 0.8689(4) 0.7318(4) 0.6492(3)
C48 C 0.8745(5) 0.6822(5) 0.5840(4)
H48 H 0.9055 0.6441 0.5937
H49 H 0.9065 0.7201 0.5573
C49 C 0.7850(5) 0.6316(5) 0.5426(4)
O28 O 0.7237(3) 0.6558(3) 0.5560(3)
O29 O 0.7757(4) 0.5683(4) 0.4975(4)
C50 C 0.8390(5) 0.6752(5) 0.6944(5)
H50 H 0.8871 0.6611 0.7164
H51 H 0.7946 0.6229 0.6674
C51 C 0.8027(6) 0.7158(6) 0.7487(5)
O30 O 0.7652(4) 0.7634(4) 0.7320(3)
O31 O 0.8118(6) 0.6992(7) 0.8073(5)
C52 C 0.6375(4) 0.9105(4) 0.6517(4)
O32 O 0.7135(3) 0.9019(3) 0.6679(3)
C53 C 0.5988(4) 0.8956(4) 0.5813(4)
C54 C 0.5211(5) 0.9057(5) 0.5657(5)
H52 H 0.4947 0.8946 0.5190
C55 C 0.4795(5) 0.9313(5) 0.6149(6)
C56 C 0.5196(5) 0.9472(5) 0.6827(5)
H53 H 0.4931 0.9661 0.7174
C57 C 0.5976(5) 0.9364(4) 0.7018(4)
C58 C 0.3946(6) 0.9441(7) 0.5971(7)
H54 H 0.3970 0.9967 0.6252
H55 H 0.3489 0.8978 0.6060
H56 H 0.3834 0.9460 0.5487
O33 O 0.8148(4) 0.8015(4) 0.4188(3)
C59 C 0.7782(5) 0.8023(5) 0.4686(5)
C60 C 0.6426(5) 0.8738(5) 0.5248(4)
H57 H 0.6123 0.8796 0.4815
H58 H 0.7015 0.9145 0.5343
O34 O 0.4719(4) 0.6625(4) 0.5811(4)
C62 C 0.6369(5) 0.9510(5) 0.7750(4)
H61 H 0.6484 0.9004 0.7835
H62 H 0.5957 0.9599 0.8032
C63 C 0.5465(5) 0.7024(5) 0.5771(5)
C64 C 0.6822(5) 0.7725(5) 0.4545(4)
H63 H 0.6624 0.8004 0.4199
H64 H 0.6598 0.7118 0.4348
C66 C 0.5621(5) 0.7247(5) 0.5106(5)
H65 H 0.5571 0.6737 0.4777
H66 H 0.5172 0.7456 0.4923
O36 O 0.8184(7) 0.9583(7) 0.9336(4)
C68 C 0.8052(7) 0.9764(7) 0.8772(5)
Na1 Na 0.6426(2) 0.45706(19) 0.45455(16)
O39 O 0.5821(5) 0.5149(5) 0.5397(4)
O45 O 0.6889(9) 0.3735(9) 0.5232(7)
O48 O 0.5281(4) 0.3375(4) 0.4189(4)
Na5 Na 0.3574(2) 0.54294(19) 0.54545(16)
Na9 Na 0.9581(4) 0.4271(4) 0.5472(3)
O51 O 0.8953(5) 0.4933(5) 0.4680(3)
H69 H 0.752206 0.393317 0.533748
H70 H 0.667356 0.378073 0.566405
H71 H 0.522344 0.507801 0.520124
H72 H 0.582803 0.485941 0.578235
O7 O 0.9183(4) 0.2238(4) 0.9496(3)
H19 H 0.5896 0.4997 0.9883
H22 H 0.5520 0.6194 0.9925
H29 H 0.6003 0.3683 0.9856
N5 N 0.7237(4) 0.3708(4) 0.9947(3)
C31 C 0.7605(6) 0.4340(6) 0.9574(4)
H31 H 0.7149 0.4520 0.9360
H32 H 0.7833 0.4091 0.9203
O20 O 0.8457(5) 0.5793(4) 0.9858(4)
C33 C 0.6947(6) 0.2849(6) 0.9521(4)
H33 H 0.7345 0.2818 0.9209
H34 H 0.6376 0.2723 0.9239
C34 C 0.6904(5) 0.2215(6) 0.9944(4)
O22 O 0.6501(5) 0.1461(4) 0.9666(3)
O41 O 0.9774(4) 0.3655(4) 0.7661(3)
O42 O 0.9437(4) 0.4082(4) 0.9059(3)
O7_2 O 0.0817(4) 0.7762(4) 0.0504(3)
H19_2 H 0.4104 0.5003 0.0117
H22_2 H 0.4480 0.3806 0.0075
H29_2 H 0.3997 0.6317 0.0144
N5_2 N 0.2763(4) 0.6292(4) 0.0053(3)
C31_2 C 0.2395(6) 0.5660(6) 0.0426(4)
H31_2 H 0.2851 0.5480 0.0640
H32_2 H 0.2167 0.5909 0.0797
O20_2 O 0.1543(5) 0.4207(4) 0.0142(4)
C33_2 C 0.3053(6) 0.7151(6) 0.0479(4)
H33_2 H 0.2655 0.7182 0.0791
H34_2 H 0.3624 0.7277 0.0761
C34_2 C 0.3096(5) 0.7785(6) 0.0056(4)
O22_2 O 0.3499(5) 0.8539(4) 0.0334(3)
Na2 Na 0.0446(2) 0.7196(2) 0.14715(18)
O47 O 0.1445(3) 0.8499(3) 0.2106(3)
Tb1_2 Tb 0.16639(2) 0.62106(2) 0.900660(17)
Tb2_2 Tb 0.25902(2) 0.57857(2) 0.743290(18)
C1_2 C 0.2199(5) 0.7518(4) 0.8000(4)
O2_2 O 0.1836(3) 0.1769(3) 0.4697(3)
O3_2 O 0.1628(4) 0.0449(4) 0.1733(3)
N1_2 N 0.3534(4) 0.2113(4) 0.4845(3)
O4_2 O 0.3899(3) 0.2807(3) 0.3743(3)
O5_2 O 0.2105(3) 0.6727(3) 0.8070(2)
C2_2 C 0.1547(5) 0.7822(5) 0.8024(3)
C3_2 C 0.1652(5) 0.8627(5) 0.7911(4)
H1_2 H 0.1181 0.8816 0.7902
C4_2 C 0.2413(5) 0.9152(5) 0.7814(4)
C5_2 C 0.3074(5) 0.8839(5) 0.7826(4)
H2_2 H 0.3609 0.9185 0.7763
C6_2 C 0.2996(5) 0.8045(4) 0.7925(4)
C7_2 C 0.2531(6) 0.9995(5) 0.7688(5)
H5_2 H 0.2086 0.9959 0.7306
C8_2 C 0.0670(5) 0.7278(5) 0.8083(4)
H6_2 H 0.0458 0.6783 0.7701
H7_2 H 0.0276 0.7594 0.8037
N2_2 N 0.0650(4) 0.6991(4) 0.8742(3)
C9_2 C 0.0825(5) 0.7678(5) 0.9326(4)
H8_2 H 0.1352 0.8137 0.9319
H9_2 H 0.0348 0.7896 0.9302
C10_2 C 0.0931(5) 0.7364(5) 0.9981(4)
O6_2 O 0.1127(3) 0.6721(3) 0.9944(3)
O8_2 O 0.0336(3) 0.5346(3) 0.8293(3)
C13_2 C 0.3766(5) 0.7779(4) 0.7982(4)
H12_2 H 0.3813 0.7545 0.8394
H13_2 H 0.4284 0.8277 0.8040
N3_2 N 0.3735(4) 0.7142(4) 0.7371(3)
C14_2 C 0.3529(5) 0.7411(5) 0.6729(4)
H14_2 H 0.3733 0.8028 0.6821
H15_2 H 0.3837 0.7218 0.6392
C15_2 C 0.2601(6) 0.7081(5) 0.6430(4)
O10_2 O 0.2143(4) 0.6398(3) 0.6569(3)
O11_2 O 0.2309(5) 0.7463(4) 0.6053(4)
C16_2 C 0.4567(5) 0.7023(5) 0.7453(5)
H16_2 H 0.4656 0.6793 0.7000
H17_2 H 0.5027 0.7570 0.7639
C17_2 C 0.4623(6) 0.6439(6) 0.7923(5)
O12_2 O 0.3942(4) 0.5970(3) 0.8040(3)
O13_2 O 0.5335(5) 0.6436(6) 0.8160(6)
C18_2 C 0.2773(5) 0.4961(5) 0.8766(4)
O14_2 O 0.2378(3) 0.5431(3) 0.8486(3)
C19_2 C 0.2648(5) 0.4152(5) 0.8420(4)
C20_2 C 0.3056(6) 0.3683(6) 0.8728(5)
H18_2 H 0.2968 0.3132 0.8493
C21_2 C 0.3586(6) 0.3988(7) 0.9367(6)
C22_2 C 0.3723(6) 0.4782(6) 0.9686(5)
C23_2 C 0.3327(5) 0.5295(5) 0.9409(4)
C24_2 C 0.4031(8) 0.3455(8) 0.9684(7)
H20_2 H 0.3614 0.3017 0.9837
H21_2 H 0.4285 0.3198 0.9343
C25_2 C 0.2045(5) 0.3793(5) 0.7741(4)
H23_2 H 0.1484 0.3836 0.7790
H24_2 H 0.1964 0.3193 0.7604
N4_2 N 0.2348(4) 0.4218(4) 0.7189(3)
C26_2 C 0.3135(6) 0.4118(5) 0.7033(5)
H25_2 H 0.3557 0.4245 0.7462
H26_2 H 0.3016 0.3533 0.6799
C27_2 C 0.3490(6) 0.4695(5) 0.6583(5)
O15_2 O 0.3233(4) 0.5312(3) 0.6554(3)
O16_2 O 0.4042(5) 0.4568(4) 0.6260(4)
C28_2 C 0.1669(5) 0.3831(5) 0.6588(4)
H27_2 H 0.1902 0.3931 0.6174
H28_2 H 0.1441 0.3220 0.6554
C29_2 C 0.0943(6) 0.4184(5) 0.6622(4)
O17_2 O 0.1163(4) 0.4934(3) 0.6947(3)
O18_2 O 0.0219(4) 0.3735(4) 0.6315(3)
C30_2 C 0.3498(6) 0.6155(6) 0.9766(5)
H30_2 H 0.3653 0.6528 0.9445
C32_2 C 0.1684(6) 0.4898(6) 0.9978(5)
O19_2 O 0.1245(4) 0.5026(4) 0.9474(3)
O21_2 O 0.2680(4) 0.7554(3) 0.9450(3)
Tb4_2 Tb 0.24773(2) 0.20764(2) 0.378590(19)
C35_2 C 0.0530(4) 0.0785(4) 0.3560(4)
O23_2 O 0.1266(3) 0.0878(3) 0.3328(3)
C36_2 C 0.0186(4) 0.0114(4) 0.3868(4)
C40_2 C 0.0111(4) 0.1356(4) 0.3503(4)
C47_2 C 0.0467(5) 0.2064(4) 0.3150(4)
H46_2 H 0.0055 0.2359 0.3098
H47_2 H 0.0516 0.1823 0.2686
N7_2 N 0.1311(4) 0.2682(4) 0.3508(3)
C48_2 C 0.1255(5) 0.3178(5) 0.4160(4)
H48_2 H 0.0945 0.3559 0.4063
H49_2 H 0.0935 0.2799 0.4427
C49_2 C 0.2150(5) 0.3684(5) 0.4574(4)
O28_2 O 0.2763(3) 0.3442(3) 0.4440(3)
O29_2 O 0.2243(4) 0.4317(4) 0.5025(4)
C50_2 C 0.1610(5) 0.3248(5) 0.3056(5)
H50_2 H 0.1129 0.3389 0.2836
H51_2 H 0.2054 0.3771 0.3326
C51_2 C 0.1973(6) 0.2842(6) 0.2513(5)
O30_2 O 0.2348(4) 0.2366(4) 0.2680(3)
O31_2 O 0.1882(6) 0.3008(7) 0.1927(5)
C52_2 C 0.3625(4) 0.0895(4) 0.3483(4)
O32_2 O 0.2865(3) 0.0981(3) 0.3321(3)
C53_2 C 0.4012(4) 0.1044(4) 0.4187(4)
C54_2 C 0.4789(5) 0.0943(5) 0.4343(5)
H52_2 H 0.5053 0.1054 0.4810
C55_2 C 0.5205(5) 0.0687(5) 0.3851(6)
C56_2 C 0.4804(5) 0.0528(5) 0.3173(5)
H53_2 H 0.5069 0.0339 0.2826
C57_2 C 0.4024(5) 0.0636(4) 0.2982(4)
C58_2 C 0.6054(6) 0.0559(7) 0.4029(7)
H54_2 H 0.6030 0.0033 0.3748
H55_2 H 0.6511 0.1022 0.3940
H56_2 H 0.6166 0.0540 0.4513
O33_2 O 0.1852(4) 0.1985(4) 0.5812(3)
C59_2 C 0.2218(5) 0.1977(5) 0.5314(5)
C60_2 C 0.3574(5) 0.1262(5) 0.4752(4)
H57_2 H 0.3877 0.1204 0.5185
H58_2 H 0.2985 0.0855 0.4657
C62_2 C 0.3631(5) 0.0490(5) 0.2250(4)
H61_2 H 0.3516 0.0996 0.2165
H62_2 H 0.4043 0.0401 0.1968
C63_2 C 0.4535(5) 0.2976(5) 0.4229(5)
C64_2 C 0.3178(5) 0.2275(5) 0.5455(4)
H63_2 H 0.3376 0.1996 0.5801
H64_2 H 0.3402 0.2882 0.5652
C66_2 C 0.4379(5) 0.2753(5) 0.4894(5)
H65_2 H 0.4429 0.3263 0.5223
H66_2 H 0.4828 0.2544 0.5077
O36_2 O 0.1816(7) 0.0417(7) 0.0664(4)
C68_2 C 0.1948(7) 0.0236(7) 0.1228(5)
O39_2 O 0.4179(5) 0.4851(5) 0.4603(4)
O45_2 O 0.3111(9) 0.6265(9) 0.4768(7)
H69_2 H 0.247794 0.606683 0.466252
H70_2 H 0.332644 0.621927 0.433595
H71_2 H 0.477656 0.492199 0.479876
H72_2 H 0.417197 0.514059 0.421765
Tb3_2 Tb 0.16413(2) 0.98674(2) 0.270380(17)
C42_2 C 0.0665(5) 0.9539(4) 0.3995(4)
H40_2 H 0.1264 0.9877 0.4215
H41_2 H 0.0412 0.9206 0.4318
N6_2 N 0.0659(4) 0.8952(3) 0.3359(3)
O24_2 O 0.0169(3) 0.9415(3) 0.2185(3)
C45_2 C 0.1037(5) 0.8353(4) 0.3565(4)
H44_2 H 0.0850 0.8203 0.3985
H45_2 H 0.0825 0.7838 0.3202
C46_2 C 0.1992(5) 0.8687(5) 0.3696(4)
O26_2 O 0.2352(3) 0.9346(3) 0.3509(3)
O27_2 O 0.2379(4) 0.8269(4) 0.3954(3)
N8_2 N 0.2820(4) 0.9759(4) 0.2028(3)
C61_2 C 0.2937(5) 0.8978(5) 0.2097(4)
H59_2 H 0.3240 0.8817 0.1743
H60_2 H 0.3291 0.9052 0.2550
C65_2 C 0.2080(5) 0.8290(5) 0.2020(4)
C67_2 C 0.2462(6) 0.9698(6) 0.1307(4)
H67_2 H 0.2102 0.9111 0.1098
H68_2 H 0.2935 0.9857 0.1058
C11_2 C 0.9780(5) 0.6389(5) 0.8668(4)
H10_2 H 0.9661 0.6326 0.9126
H11_2 H 0.9361 0.6606 0.8446
C12_2 C 0.9677(5) 0.5547(5) 0.8248(4)
O9_2 O 0.8949(4) 0.5112(4) 0.7913(4)
C37_2 C 0.9418(4) 0.0022(5) 0.4087(4)
C38_2 C 0.8995(4) 0.0582(5) 0.4017(4)
C39_2 C 0.9342(4) 0.1235(5) 0.3725(4)
H36_2 H 0.9052 0.1617 0.3671
C41_2 C 0.8160(5) 0.0478(6) 0.4260(5)
H37_2 H 0.7832 0.0745 0.4000
H39_2 H 0.8281 0.0739 0.4747
O37_2 O 0.7830(8) 0.3326(6) 0.6790(5)
O43_2 O 0.9969(7) 0.5570(9) 0.6464(6)
O44_2 O 0.9425(6) 0.3252(6) 0.4414(7)
O46_2 O 0.6816(9) 0.3501(13) 0.7875(6)
H73_2 H 0.999558 0.324118 0.435267
H74_2 H 0.915805 0.341683 0.401724
H75_2 H 0.96791 0.540471 0.684107
H76_2 H 0.97798 0.600323 0.629491
H77_2 H 0.674699 0.387467 0.827225
H78_2 H 0.650284 0.291107 0.788233
H81_2 H 0.741123 0.360364 0.668163
H82_2 H 0.753877 0.271116 0.666281
O38 O 0.0931(5) 0.2923(6) 0.8934(5)
H79 H 0.0955423 0.236291 0.896058
H80 H 0.1299 0.316357 0.862136
H3 H 0.7509 0.9645 0.1902
H4 H 0.6907 0.9771 0.2426
H3_2 H 0.2491 0.0355 0.8098
H4_2 H 0.3093 0.0229 0.7574
O38_2 O 0.9069(5) 0.7077(6) 0.1066(5)
H79_2 H 0.904458 0.763709 0.103942
H80_2 H 0.8701 0.683643 0.137864
H35_2 H 0.9178 0.9564 0.4288
H38_2 H 0.7829 0.9883 0.4191
C43_2 C 0.9771(5) 0.8524(4) 0.2959(4)
H42_2 H 0.9697 0.7939 0.2758
H43_2 H 0.9367 0.8512 0.3272
C44_2 C 0.9551(5) 0.8942(5) 0.2391(4)
O25_2 O 0.8800(4) 0.8756(4) 0.2138(3)
loop_
_geom_bond_atom_site_label_1
_geom_bond_atom_site_label_2
_geom_bond_site_symmetry_1
_geom_bond_site_symmetry_2
H42 C43 1_555 1_555
H43 C43 1_555 1_555
C44 C43 1_555 1_555
O25 C44 1_555 1_555
H10 C11 1_555 1_555
H11 C11 1_555 1_555
C12 C11 1_555 1_555
O9 C12 1_555 1_555
C38 C37 1_555 1_555
C39 C38 1_555 1_555
H36 C39 1_555 1_555
C41 C38 1_555 1_555
H37 C41 1_555 1_555
H39 C41 1_555 1_555
Na3 O9 1_555 1_555
O37 Na3 1_555 1_555
O40 Na4 1_555 1_555
O43 Na4 1_555 1_555
O44 Na4 1_555 1_555
O46 Na3 1_555 1_555
O50 Na3 1_555 1_555
O52 Na3 1_555 1_555
O53 Na3 1_555 1_555
O44 H73 1_555 1_555
O44 H74 1_555 1_555
O43 H75 1_555 1_555
O43 H76 1_555 1_555
O46 H77 1_555 1_555
O46 H78 1_555 1_555
O37 H81 1_555 1_555
O37 H82 1_555 1_555
O1 Tb3 1_555 1_555
H40 C42 1_555 1_555
H41 C42 1_555 1_555
N6 Tb3 1_555 1_555
O24 Tb3 1_555 1_555
C45 N6 1_555 1_555
H44 C45 1_555 1_555
H45 C45 1_555 1_555
C46 C45 1_555 1_555
O26 Tb3 1_555 1_555
O27 C46 1_555 1_555
N8 Tb3 1_555 1_555
C61 N8 1_555 1_555
H59 C61 1_555 1_555
H60 C61 1_555 1_555
O35 C65 1_555 1_555
C65 O1 1_555 1_555
C67 N8 1_555 1_555
H67 C67 1_555 1_555
H68 C67 1_555 1_555
Na6 O1 1_555 1_555
Na8 O35 1_555 1_555
C42 N6 1_555 1_555
C46 O26 1_555 1_555
C61 C65 1_555 1_555
O35 Na6 1_555 1_555
Tb1 O5 1_555 1_555
Tb2 O5 1_555 1_555
C1 O5 1_555 1_555
O2 Tb4 1_555 1_555
N1 Tb4 1_555 1_555
O4 Tb4 1_555 1_555
C2 C1 1_555 1_555
C3 C2 1_555 1_555
H1 C3 1_555 1_555
C4 C3 1_555 1_555
C5 C4 1_555 1_555
H2 C5 1_555 1_555
C6 C1 1_555 1_555
C7 C4 1_555 1_555
H5 C7 1_555 1_555
C8 C2 1_555 1_555
H6 C8 1_555 1_555
H7 C8 1_555 1_555
N2 Tb1 1_555 1_555
C9 N2 1_555 1_555
H8 C9 1_555 1_555
H9 C9 1_555 1_555
C10 C9 1_555 1_555
O6 Tb1 1_555 1_555
O8 Tb1 1_555 1_555
C13 C6 1_555 1_555
H12 C13 1_555 1_555
H13 C13 1_555 1_555
N3 Tb2 1_555 1_555
C14 N3 1_555 1_555
H14 C14 1_555 1_555
H15 C14 1_555 1_555
C15 C14 1_555 1_555
O10 Tb2 1_555 1_555
O11 C15 1_555 1_555
C16 N3 1_555 1_555
H16 C16 1_555 1_555
H17 C16 1_555 1_555
C17 C16 1_555 1_555
O12 Tb2 1_555 1_555
O13 C17 1_555 1_555
C18 O14 1_555 1_555
O14 Tb1 1_555 1_555
C19 C18 1_555 1_555
C20 C19 1_555 1_555
H18 C20 1_555 1_555
C21 C20 1_555 1_555
C22 C21 1_555 1_555
C23 C18 1_555 1_555
C24 C21 1_555 1_555
H20 C24 1_555 1_555
H21 C24 1_555 1_555
C25 C19 1_555 1_555
H23 C25 1_555 1_555
H24 C25 1_555 1_555
N4 Tb2 1_555 1_555
C26 N4 1_555 1_555
H25 C26 1_555 1_555
H26 C26 1_555 1_555
C27 C26 1_555 1_555
O15 Tb2 1_555 1_555
O16 C27 1_555 1_555
C28 N4 1_555 1_555
H27 C28 1_555 1_555
H28 C28 1_555 1_555
C29 C28 1_555 1_555
O17 Tb2 1_555 1_555
O18 C29 1_555 1_555
C30 C23 1_555 1_555
H30 C30 1_555 1_555
O19 Tb1 1_555 1_555
O21 Tb1 1_555 1_555
Tb4 O23 1_555 1_555
C35 O23 1_555 1_555
C36 C35 1_555 1_555
C40 C35 1_555 1_555
C47 C40 1_555 1_555
H46 C47 1_555 1_555
H47 C47 1_555 1_555
N7 Tb4 1_555 1_555
C48 N7 1_555 1_555
H48 C48 1_555 1_555
H49 C48 1_555 1_555
C49 C48 1_555 1_555
O28 Tb4 1_555 1_555
O29 C49 1_555 1_555
C50 N7 1_555 1_555
H50 C50 1_555 1_555
H51 C50 1_555 1_555
C51 C50 1_555 1_555
O30 Tb4 1_555 1_555
O31 C51 1_555 1_555
C52 O32 1_555 1_555
C53 C52 1_555 1_555
C54 C53 1_555 1_555
H52 C54 1_555 1_555
C55 C54 1_555 1_555
C56 C55 1_555 1_555
H53 C56 1_555 1_555
C57 C52 1_555 1_555
C58 C55 1_555 1_555
H54 C58 1_555 1_555
H55 C58 1_555 1_555
H56 C58 1_555 1_555
O33 C59 1_555 1_555
C59 O2 1_555 1_555
C60 N1 1_555 1_555
H57 C60 1_555 1_555
H58 C60 1_555 1_555
O34 C63 1_555 1_555
C62 C57 1_555 1_555
H61 C62 1_555 1_555
H62 C62 1_555 1_555
C63 O4 1_555 1_555
C64 N1 1_555 1_555
H63 C64 1_555 1_555
H64 C64 1_555 1_555
C66 N1 1_555 1_555
H65 C66 1_555 1_555
H66 C66 1_555 1_555
O36 C68 1_555 1_555
C68 O3 1_555 1_555
Na1 O15 1_555 1_555
O39 Na1 1_555 1_555
O45 Na1 1_555 1_555
O48 Na1 1_555 1_555
Na5 O34 1_555 1_555
Tb2 O14 1_555 1_555
C5 C6 1_555 1_555
C8 N2 1_555 1_555
C10 O6 1_555 1_555
C13 N3 1_555 1_555
C15 O10 1_555 1_555
C17 O12 1_555 1_555
C22 C23 1_555 1_555
C25 N4 1_555 1_555
C27 O15 1_555 1_555
O16 Na1 1_555 1_555
C29 O17 1_555 1_555
C32 O19 1_555 1_555
Tb4 O32 1_555 1_555
C47 N7 1_555 1_555
C49 O28 1_555 1_555
O29 Na1 1_555 1_555
C51 O30 1_555 1_555
C53 C60 1_555 1_555
C56 C57 1_555 1_555
C59 C64 1_555 1_555
C63 C66 1_555 1_555
Na9 O51 1_555 1_555
O45 H69 1_555 1_555
O45 H70 1_555 1_555
O39 H71 1_555 1_555
O39 H72 1_555 1_555
C31 N5 1_555 1_555
H31 C31 1_555 1_555
H32 C31 1_555 1_555
C33 N5 1_555 1_555
H33 C33 1_555 1_555
H34 C33 1_555 1_555
C34 C33 1_555 1_555
O22 C34 1_555 1_555
Na6 O7 1_555 1_555
O41 Na6 1_555 1_555
O42 Na6 1_555 1_555
Na8 O41 1_555 1_555
O42 Na8 1_555 1_555
C31_2 N5_2 1_555 1_555
H31_2 C31_2 1_555 1_555
H32_2 C31_2 1_555 1_555
C33_2 N5_2 1_555 1_555
H33_2 C33_2 1_555 1_555
H34_2 C33_2 1_555 1_555
C34_2 C33_2 1_555 1_555
O22_2 C34_2 1_555 1_555
Na2 O7_2 1_555 1_555
O52 Na2 1_555 1_555
O53 Na2 1_555 1_555
O47 Na2 1_555 1_555
O50 Na2 1_555 1_555
Tb1_2 O5_2 1_555 1_555
Tb2_2 O5_2 1_555 1_555
C1_2 O5_2 1_555 1_555
O2_2 Tb4_2 1_555 1_555
N1_2 Tb4_2 1_555 1_555
O4_2 Tb4_2 1_555 1_555
C2_2 C1_2 1_555 1_555
C3_2 C2_2 1_555 1_555
H1_2 C3_2 1_555 1_555
C4_2 C3_2 1_555 1_555
C5_2 C4_2 1_555 1_555
H2_2 C5_2 1_555 1_555
C6_2 C1_2 1_555 1_555
C7_2 C4_2 1_555 1_555
H5_2 C7_2 1_555 1_555
C8_2 C2_2 1_555 1_555
H6_2 C8_2 1_555 1_555
H7_2 C8_2 1_555 1_555
N2_2 Tb1_2 1_555 1_555
C9_2 N2_2 1_555 1_555
H8_2 C9_2 1_555 1_555
H9_2 C9_2 1_555 1_555
C10_2 C9_2 1_555 1_555
O6_2 Tb1_2 1_555 1_555
O8_2 Tb1_2 1_555 1_555
C13_2 C6_2 1_555 1_555
H12_2 C13_2 1_555 1_555
H13_2 C13_2 1_555 1_555
N3_2 Tb2_2 1_555 1_555
C14_2 N3_2 1_555 1_555
H14_2 C14_2 1_555 1_555
H15_2 C14_2 1_555 1_555
C15_2 C14_2 1_555 1_555
O10_2 Tb2_2 1_555 1_555
O11_2 C15_2 1_555 1_555
C16_2 N3_2 1_555 1_555
H16_2 C16_2 1_555 1_555
H17_2 C16_2 1_555 1_555
C17_2 C16_2 1_555 1_555
O12_2 Tb2_2 1_555 1_555
O13_2 C17_2 1_555 1_555
C18_2 O14_2 1_555 1_555
O14_2 Tb1_2 1_555 1_555
C19_2 C18_2 1_555 1_555
C20_2 C19_2 1_555 1_555
H18_2 C20_2 1_555 1_555
C21_2 C20_2 1_555 1_555
C22_2 C21_2 1_555 1_555
C23_2 C18_2 1_555 1_555
C24_2 C21_2 1_555 1_555
H20_2 C24_2 1_555 1_555
H21_2 C24_2 1_555 1_555
C25_2 C19_2 1_555 1_555
H23_2 C25_2 1_555 1_555
H24_2 C25_2 1_555 1_555
N4_2 Tb2_2 1_555 1_555
C26_2 N4_2 1_555 1_555
H25_2 C26_2 1_555 1_555
H26_2 C26_2 1_555 1_555
C27_2 C26_2 1_555 1_555
O15_2 Tb2_2 1_555 1_555
O16_2 C27_2 1_555 1_555
C28_2 N4_2 1_555 1_555
H27_2 C28_2 1_555 1_555
H28_2 C28_2 1_555 1_555
C29_2 C28_2 1_555 1_555
O17_2 Tb2_2 1_555 1_555
O18_2 C29_2 1_555 1_555
C30_2 C23_2 1_555 1_555
H30_2 C30_2 1_555 1_555
O19_2 Tb1_2 1_555 1_555
O21_2 Tb1_2 1_555 1_555
Tb4_2 O23_2 1_555 1_555
C35_2 O23_2 1_555 1_555
C36_2 C35_2 1_555 1_555
C40_2 C35_2 1_555 1_555
C47_2 C40_2 1_555 1_555
H46_2 C47_2 1_555 1_555
H47_2 C47_2 1_555 1_555
N7_2 Tb4_2 1_555 1_555
C48_2 N7_2 1_555 1_555
H48_2 C48_2 1_555 1_555
H49_2 C48_2 1_555 1_555
C49_2 C48_2 1_555 1_555
O28_2 Tb4_2 1_555 1_555
O29_2 C49_2 1_555 1_555
C50_2 N7_2 1_555 1_555
H50_2 C50_2 1_555 1_555
H51_2 C50_2 1_555 1_555
C51_2 C50_2 1_555 1_555
O30_2 Tb4_2 1_555 1_555
O31_2 C51_2 1_555 1_555
C52_2 O32_2 1_555 1_555
C53_2 C52_2 1_555 1_555
C54_2 C53_2 1_555 1_555
H52_2 C54_2 1_555 1_555
C55_2 C54_2 1_555 1_555
C56_2 C55_2 1_555 1_555
H53_2 C56_2 1_555 1_555
C57_2 C52_2 1_555 1_555
C58_2 C55_2 1_555 1_555
H54_2 C58_2 1_555 1_555
H55_2 C58_2 1_555 1_555
H56_2 C58_2 1_555 1_555
O33_2 C59_2 1_555 1_555
C59_2 O2_2 1_555 1_555
C60_2 N1_2 1_555 1_555
H57_2 C60_2 1_555 1_555
H58_2 C60_2 1_555 1_555
O48 C63_2 1_555 1_555
C62_2 C57_2 1_555 1_555
H61_2 C62_2 1_555 1_555
H62_2 C62_2 1_555 1_555
C63_2 O4_2 1_555 1_555
C64_2 N1_2 1_555 1_555
H63_2 C64_2 1_555 1_555
H64_2 C64_2 1_555 1_555
C66_2 N1_2 1_555 1_555
H65_2 C66_2 1_555 1_555
H66_2 C66_2 1_555 1_555
O36_2 C68_2 1_555 1_555
C68_2 O3_2 1_555 1_555
Na5 O15_2 1_555 1_555
O39_2 Na5 1_555 1_555
O45_2 Na5 1_555 1_555
Tb2_2 O14_2 1_555 1_555
C5_2 C6_2 1_555 1_555
C8_2 N2_2 1_555 1_555
C10_2 O6_2 1_555 1_555
C13_2 N3_2 1_555 1_555
C15_2 O10_2 1_555 1_555
C17_2 O12_2 1_555 1_555
C22_2 C23_2 1_555 1_555
C25_2 N4_2 1_555 1_555
C27_2 O15_2 1_555 1_555
O16_2 Na5 1_555 1_555
C29_2 O17_2 1_555 1_555
C32_2 O19_2 1_555 1_555
Tb4_2 O32_2 1_555 1_555
C47_2 N7_2 1_555 1_555
C49_2 O28_2 1_555 1_555
O29_2 Na5 1_555 1_555
C51_2 O30_2 1_555 1_555
C53_2 C60_2 1_555 1_555
C56_2 C57_2 1_555 1_555
C59_2 C64_2 1_555 1_555
C63_2 C66_2 1_555 1_555
O45_2 H69_2 1_555 1_555
O45_2 H70_2 1_555 1_555
O39_2 H71_2 1_555 1_555
O39_2 H72_2 1_555 1_555
O47 Tb3_2 1_555 1_555
H40_2 C42_2 1_555 1_555
H41_2 C42_2 1_555 1_555
N6_2 Tb3_2 1_555 1_555
O24_2 Tb3_2 1_555 1_555
C45_2 N6_2 1_555 1_555
H44_2 C45_2 1_555 1_555
H45_2 C45_2 1_555 1_555
C46_2 C45_2 1_555 1_555
O26_2 Tb3_2 1_555 1_555
O27_2 C46_2 1_555 1_555
N8_2 Tb3_2 1_555 1_555
C61_2 N8_2 1_555 1_555
H59_2 C61_2 1_555 1_555
H60_2 C61_2 1_555 1_555
O50 C65_2 1_555 1_555
C65_2 O47 1_555 1_555
C67_2 N8_2 1_555 1_555
H67_2 C67_2 1_555 1_555
H68_2 C67_2 1_555 1_555
C42_2 N6_2 1_555 1_555
C46_2 O26_2 1_555 1_555
C61_2 C65_2 1_555 1_555
H10_2 C11_2 1_555 1_555
H11_2 C11_2 1_555 1_555
C12_2 C11_2 1_555 1_555
O9_2 C12_2 1_555 1_555
C38_2 C37_2 1_555 1_555
C39_2 C38_2 1_555 1_555
H36_2 C39_2 1_555 1_555
C41_2 C38_2 1_555 1_555
H37_2 C41_2 1_555 1_555
H39_2 C41_2 1_555 1_555
Na8 O9_2 1_555 1_555
O37_2 Na8 1_555 1_555
O43_2 Na9 1_555 1_555
O44_2 Na9 1_555 1_555
O46_2 Na8 1_555 1_555
O44_2 H73_2 1_555 1_555
O44_2 H74_2 1_555 1_555
O43_2 H75_2 1_555 1_555
O43_2 H76_2 1_555 1_555
O46_2 H77_2 1_555 1_555
O46_2 H78_2 1_555 1_555
O37_2 H81_2 1_555 1_555
O37_2 H82_2 1_555 1_555
O38 H79 1_555 1_555
O38 H80 1_555 1_555
O38_2 H79_2 1_555 1_555
O38_2 H80_2 1_555 1_555
H42_2 C43_2 1_555 1_555
H43_2 C43_2 1_555 1_555
C44_2 C43_2 1_555 1_555
O25_2 C44_2 1_555 1_555

#END
