
###############################################################################
#
# This file contains modified crystal structure data generated from the
# MOF subset of the Cambridge Structural Database (CSD) v543 
# hosted by the Cambridge Crystallographic Data Centre (CCDC).
#
# This work is licensed under the Creative Commons
# Attribution-NonCommercial-ShareAlike 4.0 International License.
# To view a copy of this license, visit
# http://creativecommons.org/licenses/by-nc-sa/4.0/
# or send a letter to
# Creative Commons, PO Box 1866, Mountain View, CA 94042, USA.
#
# CIF created using the CSD Python API on 29 September 2022
# The structure has been converted into the P1 space group
# The structure has a 3D framework
# The original CSD entry JIXBUQ is in the orthorhombic crystal system
# The framework has been calculated to contain at least 10.0% void space
# The void calculation uses a probe of radius 1.32A, grid spacing 0.4
# The framework is charged, counterions have been retained in the structure
#
###############################################################################

data_JIXBUQ
_chemical_formula_moiety         '(C400 H224 Cd22 N16 O128 14-)n'
_symmetry_cell_setting           triclinic
_symmetry_space_group_name_H-M   'P 1'
_symmetry_Int_Tables_number      1
_space_group_name_Hall           'P 1'
loop_
_symmetry_equiv_pos_site_id
_symmetry_equiv_pos_as_xyz
1 x,y,z
_cell_length_a                   35.4231(18)
_cell_length_b                   27.2363(18)
_cell_length_c                   23.8741(13)
_cell_angle_alpha                90
_cell_angle_beta                 90
_cell_angle_gamma                90
_cell_volume                     23033.6
loop_
_atom_site_label
_atom_site_type_symbol
_atom_site_fract_x
_atom_site_fract_y
_atom_site_fract_z
Cd1 Cd 0.15763(2) 0.11298(2) 0.20645(2)
Cd2 Cd 0.250000 0.13449(2) 0.250000
O1 O 0.18957(7) 0.13379(10) 0.28568(9)
C1 C 0.20202(12) 0.29588(14) 0.66404(16)
O2 O 0.15680(8) 0.06701(13) 0.30040(11)
N1 N 0.21431(13) 0.11245(12) 0.54883(13)
C2 C 0.20495(11) 0.24773(14) 0.63363(15)
O4 O 0.17208(9) 0.31944(10) 0.65965(12)
C3 C 0.18813(11) 0.10316(14) 0.37887(14)
C5 C 0.23571(12) 0.01677(15) 0.65362(16)
H1 H 0.226480 0.005883 0.687904
C6 C 0.20551(14) 0.10915(14) 0.49231(16)
C7 C 0.21139(14) 0.15796(14) 0.57766(15)
C8 C 0.17670(11) 0.10029(17) 0.31806(15)
C9 C 0.21482(13) 0.14712(16) 0.45460(17)
H2 H 0.227125 0.175036 0.467628
C10 C 0.21817(13) 0.05556(16) 0.62732(17)
H3 H 0.197378 0.070660 0.643740
C11 C 0.20597(12) 0.14326(14) 0.39936(15)
H4 H 0.212314 0.168711 0.375147
C12 C 0.23574(12) 0.21683(16) 0.64187(18)
H5 H 0.254648 0.226368 0.666615
C13 C 0.17761(13) 0.23232(16) 0.59679(18)
H6 H 0.156687 0.252168 0.590368
C14 C 0.23176(14) 0.07190(14) 0.57620(16)
C15 C 0.27934(13) 0.00964(15) 0.57991(16)
C16 C 0.17862(12) 0.06520(14) 0.41476(15)
H8 H 0.166377 0.037435 0.401186
C17 C 0.18758(14) 0.06900(14) 0.47133(16)
H9 H 0.181142 0.043481 0.495379
C18 C 0.18053(14) 0.18816(16) 0.56921(17)
H10 H 0.161559 0.178505 0.544626
C19 C 0.26156(14) 0.04902(16) 0.55212(17)
H11 H 0.270280 0.059260 0.517288
C20 C 0.23899(14) 0.17316(16) 0.61482(19)
H12 H 0.259914 0.153340 0.621332
O5 O 0.23004(9) 0.30843(11) 0.69232(12)
C22 C 0.08201(15) 0.1175(2) 0.2070(3)
O7 O 0.09870(10) 0.14684(19) 0.2365(2)
C23 C 0.04060(13) 0.1187(2) 0.2068(2)
O8 O 0.09857(10) 0.0878(2) 0.1807(2)
C24 C 0.02023(17) 0.1482(3) 0.2373(4)
H13 H 0.032619 0.170459 0.260367
C25 C 0.02031(17) 0.0860(4) 0.1792(4)
H14 H 0.032843 0.061848 0.158850
O13 O 0.31892(9) 0.05708(11) 0.35111(13)
C33 C 0.26631(11) 0.00613(13) 0.36936(14)
H23 H 0.300063 0.005678 0.436399
O16 O 0.26717(10) 0.07068(11) 0.30409(14)
C50 C 0.28588(13) 0.04819(14) 0.34029(17)
Cd4 Cd 0.34237(2) 0.11298(2) 0.29355(2)
Cd8 Cd 0.15763(2) 0.38702(2) 0.70645(2)
Cd11 Cd 0.250000 0.36551(2) 0.750000
O17 O 0.31043(7) 0.13379(10) 0.21432(9)
O19 O 0.18108(9) 0.05708(11) 0.14889(13)
O21 O 0.17208(9) 0.18056(10) 0.15965(12)
O22 O 0.26996(9) 0.19157(11) 0.30768(12)
O23 O 0.23004(9) 0.19157(11) 0.19232(12)
O24 O 0.23283(10) 0.07068(11) 0.19591(14)
O3 O 0.31892(9) 0.94292(11) 0.64889(13)
C4 C 0.26631(11) 0.99387(13) 0.63064(14)
H7 H 0.300063 0.994322 0.563601
O6 O 0.26717(10) 0.92932(11) 0.69591(14)
C21 C 0.28588(13) 0.95181(14) 0.65971(17)
Cd3 Cd 0.15763(2) 0.88702(2) 0.79355(2)
O11 O 0.18957(7) 0.86621(10) 0.71432(9)
C30 C 0.20202(12) 0.70412(14) 0.33596(16)
O12 O 0.15680(8) 0.93299(13) 0.69960(11)
N2 N 0.21431(13) 0.88755(12) 0.45117(13)
C31 C 0.20495(11) 0.75227(14) 0.36637(15)
O14 O 0.17208(9) 0.68056(10) 0.34035(12)
C32 C 0.18813(11) 0.89684(14) 0.62113(14)
C34 C 0.23571(12) 0.98323(15) 0.34638(16)
H17 H 0.226480 0.994117 0.312096
C35 C 0.20551(14) 0.89085(14) 0.50769(16)
C36 C 0.21139(14) 0.84204(14) 0.42234(15)
C37 C 0.17670(11) 0.89971(17) 0.68194(15)
C38 C 0.21482(13) 0.85288(16) 0.54540(17)
H18 H 0.227125 0.824964 0.532372
C39 C 0.21817(13) 0.94444(16) 0.37268(17)
H19 H 0.197378 0.929340 0.356260
C40 C 0.20597(12) 0.85674(14) 0.60064(15)
H20 H 0.212314 0.831289 0.624853
C41 C 0.23574(12) 0.78317(16) 0.35813(18)
H21 H 0.254648 0.773632 0.333385
C42 C 0.17761(13) 0.76768(16) 0.40321(18)
H22 H 0.156687 0.747832 0.409632
C43 C 0.23176(14) 0.92810(14) 0.42380(16)
C44 C 0.27934(13) 0.99036(15) 0.42009(16)
C45 C 0.17862(12) 0.93480(14) 0.58524(15)
H24 H 0.166377 0.962565 0.598814
C46 C 0.18758(14) 0.93100(14) 0.52867(16)
H25 H 0.181142 0.956519 0.504621
C47 C 0.18053(14) 0.81184(16) 0.43079(17)
H26 H 0.161559 0.821495 0.455374
C48 C 0.26156(14) 0.95098(16) 0.44788(17)
H27 H 0.270280 0.940740 0.482712
C49 C 0.23899(14) 0.82684(16) 0.38518(19)
H28 H 0.259914 0.846660 0.378668
O15 O 0.23004(9) 0.69157(11) 0.30768(12)
Cd5 Cd 0.34237(2) 0.88702(2) 0.70645(2)
Cd6 Cd 0.15763(2) 0.61298(2) 0.29355(2)
Cd9 Cd 0.250000 0.86551(2) 0.750000
Cd10 Cd 0.250000 0.63449(2) 0.250000
O18 O 0.18108(9) 0.94292(11) 0.85111(13)
O20 O 0.17208(9) 0.81944(10) 0.84035(12)
O25 O 0.09870(10) 0.85316(19) 0.7635(2)
O26 O 0.09857(10) 0.9122(2) 0.8193(2)
C26 C 0.91799(15) 0.1175(2) 0.2070(3)
O9 O 0.90130(10) 0.14684(19) 0.2365(2)
C27 C 0.95940(13) 0.1187(2) 0.2068(2)
O10 O 0.90143(10) 0.0878(2) 0.1807(2)
C28 C 0.97977(17) 0.1482(3) 0.2373(4)
H15 H 0.967381 0.170459 0.260367
C29 C 0.97969(17) 0.0860(4) 0.1792(4)
H16 H 0.967157 0.061848 0.158850
Cd7 Cd 0.84237(2) 0.11298(2) 0.20645(2)
C26_2 C 0.08201(15) 0.3825(2) 0.7070(3)
O9_2 O 0.09870(10) 0.35316(19) 0.7365(2)
C27_2 C 0.04060(13) 0.3813(2) 0.7068(2)
O10_2 O 0.09857(10) 0.4122(2) 0.6807(2)
C28_2 C 0.02023(17) 0.3518(3) 0.7373(4)
H15_2 H 0.032619 0.329541 0.760367
C29_2 C 0.02031(17) 0.4140(4) 0.6792(4)
H16_2 H 0.032843 0.438152 0.658850
C1_2 C 0.79798(12) 0.20412(14) 0.16404(16)
N1_2 N 0.78569(13) 0.38755(12) 0.04883(13)
C2_2 C 0.79505(11) 0.25227(14) 0.13363(15)
O3_2 O 0.68108(9) 0.55708(11) 0.14889(13)
O4_2 O 0.82792(9) 0.18056(10) 0.15965(12)
C4_2 C 0.73369(11) 0.50613(13) 0.13064(14)
C5_2 C 0.76429(12) 0.48323(15) 0.15362(16)
H1_2 H 0.773520 0.494117 0.187904
C7_2 C 0.78861(14) 0.34204(14) 0.07766(15)
C10_2 C 0.78183(13) 0.44444(16) 0.12732(17)
H3_2 H 0.802622 0.429340 0.143740
C12_2 C 0.76426(12) 0.28317(16) 0.14187(18)
H5_2 H 0.745352 0.273632 0.166615
C13_2 C 0.82239(13) 0.26768(16) 0.09679(18)
H6_2 H 0.843313 0.247832 0.090368
C14_2 C 0.76824(14) 0.42810(14) 0.07620(16)
C15_2 C 0.72066(13) 0.49036(15) 0.07991(16)
H7_2 H 0.699937 0.505678 0.063601
C18_2 C 0.81947(14) 0.31184(16) 0.06921(17)
H10_2 H 0.838441 0.321495 0.044626
C19_2 C 0.73844(14) 0.45098(16) 0.05212(17)
H11_2 H 0.729720 0.440740 0.017288
C20_2 C 0.76101(14) 0.32684(16) 0.11482(19)
H12_2 H 0.740086 0.346660 0.121332
O5_2 O 0.76996(9) 0.19157(11) 0.19232(12)
O6_2 O 0.73283(10) 0.57068(11) 0.19591(14)
C21_2 C 0.71412(13) 0.54819(14) 0.15971(17)
Cd3_2 Cd 0.84237(2) 0.61298(2) 0.29355(2)
O11_2 O 0.81043(7) 0.63379(10) 0.21432(9)
O12_2 O 0.84320(8) 0.56701(13) 0.19960(11)
C32_2 C 0.81187(11) 0.60316(14) 0.12113(14)
C35_2 C 0.79449(14) 0.60915(14) 0.00769(16)
C37_2 C 0.82330(11) 0.60029(17) 0.18194(15)
C38_2 C 0.78518(13) 0.64712(16) 0.04540(17)
H18_2 H 0.772875 0.675036 0.032372
C40_2 C 0.79403(12) 0.64326(14) 0.10064(15)
H20_2 H 0.787686 0.668711 0.124853
C45_2 C 0.82138(12) 0.56520(14) 0.08524(15)
H24_2 H 0.833623 0.537435 0.098814
C46_2 C 0.81242(14) 0.56900(14) 0.02867(16)
H25_2 H 0.818858 0.543481 0.004621
Cd5_2 Cd 0.65763(2) 0.61298(2) 0.20645(2)
Cd9_2 Cd 0.750000 0.63449(2) 0.250000
Cd11_2 Cd 0.750000 0.13449(2) 0.250000
O18_2 O 0.81892(9) 0.55708(11) 0.35111(13)
O20_2 O 0.82792(9) 0.68056(10) 0.34035(12)
O25_2 O 0.90130(10) 0.64684(19) 0.2635(2)
O26_2 O 0.90143(10) 0.5878(2) 0.3193(2)
Cd1_2 Cd 0.84237(2) 0.38702(2) 0.70645(2)
Cd2_2 Cd 0.750000 0.36551(2) 0.750000
O1_2 O 0.81043(7) 0.36621(10) 0.78568(9)
O2_2 O 0.84320(8) 0.43299(13) 0.80040(11)
C3_2 C 0.81187(11) 0.39684(14) 0.87887(14)
C6_2 C 0.79449(14) 0.39085(14) 0.99231(16)
C8_2 C 0.82330(11) 0.39971(17) 0.81806(15)
C9_2 C 0.78518(13) 0.35288(16) 0.95460(17)
H2_2 H 0.772875 0.324964 0.967628
C11_2 C 0.79403(12) 0.35674(14) 0.89936(15)
H4_2 H 0.787686 0.331289 0.875147
C16_2 C 0.82138(12) 0.43480(14) 0.91476(15)
H8_2 H 0.833623 0.462565 0.901186
C17_2 C 0.81242(14) 0.43100(14) 0.97133(16)
H9_2 H 0.818858 0.456519 0.995379
C22_2 C 0.91799(15) 0.3825(2) 0.7070(3)
O7_2 O 0.90130(10) 0.35316(19) 0.7365(2)
C23_2 C 0.95940(13) 0.3813(2) 0.7068(2)
O8_2 O 0.90143(10) 0.4122(2) 0.6807(2)
C24_2 C 0.97977(17) 0.3518(3) 0.7373(4)
H13_2 H 0.967381 0.329541 0.760367
C25_2 C 0.97969(17) 0.4140(4) 0.6792(4)
H14_2 H 0.967157 0.438152 0.658850
C30_2 C 0.79798(12) 0.79588(14) 0.83596(16)
N2_2 N 0.78569(13) 0.61245(12) 0.95117(13)
C31_2 C 0.79505(11) 0.74773(14) 0.86637(15)
O13_2 O 0.68108(9) 0.44292(11) 0.85111(13)
O14_2 O 0.82792(9) 0.81944(10) 0.84035(12)
C33_2 C 0.73369(11) 0.49387(13) 0.86936(14)
C34_2 C 0.76429(12) 0.51677(15) 0.84638(16)
H17_2 H 0.773520 0.505883 0.812096
C36_2 C 0.78861(14) 0.65796(14) 0.92234(15)
C39_2 C 0.78183(13) 0.55556(16) 0.87268(17)
H19_2 H 0.802622 0.570660 0.856260
C41_2 C 0.76426(12) 0.71683(16) 0.85813(18)
H21_2 H 0.745352 0.726368 0.833385
C42_2 C 0.82239(13) 0.73232(16) 0.90321(18)
H22_2 H 0.843313 0.752168 0.909632
C43_2 C 0.76824(14) 0.57190(14) 0.92380(16)
C44_2 C 0.72066(13) 0.50964(15) 0.92009(16)
H23_2 H 0.699937 0.494322 0.936399
C47_2 C 0.81947(14) 0.68816(16) 0.93079(17)
H26_2 H 0.838441 0.678505 0.955374
C48_2 C 0.73844(14) 0.54902(16) 0.94788(17)
H27_2 H 0.729720 0.559260 0.982712
C49_2 C 0.76101(14) 0.67316(16) 0.88518(19)
H28_2 H 0.740086 0.653340 0.878668
O15_2 O 0.76996(9) 0.80843(11) 0.80768(12)
O16_2 O 0.73283(10) 0.42932(11) 0.80409(14)
C50_2 C 0.71412(13) 0.45181(14) 0.84029(17)
Cd4_2 Cd 0.65763(2) 0.38702(2) 0.79355(2)
Cd6_2 Cd 0.84237(2) 0.88702(2) 0.79355(2)
Cd10_2 Cd 0.750000 0.86551(2) 0.750000
O17_2 O 0.68957(7) 0.36621(10) 0.71432(9)
O19_2 O 0.81892(9) 0.44292(11) 0.64889(13)
O21_2 O 0.82792(9) 0.31944(10) 0.65965(12)
O22_2 O 0.73004(9) 0.30843(11) 0.80768(12)
O23_2 O 0.76996(9) 0.30843(11) 0.69232(12)
O24_2 O 0.76717(10) 0.42932(11) 0.69591(14)
C22_3 C 0.08201(15) 0.8825(2) 0.7930(3)
C23_3 C 0.04060(13) 0.8813(2) 0.7932(2)
C24_3 C 0.02023(17) 0.8518(3) 0.7627(4)
H13_3 H 0.032619 0.829541 0.739633
C25_3 C 0.02031(17) 0.9140(4) 0.8208(4)
H14_3 H 0.032843 0.938152 0.841150
O17_3 O 0.31043(7) 0.86621(10) 0.78568(9)
O22_3 O 0.26996(9) 0.80843(11) 0.69232(12)
O23_3 O 0.23004(9) 0.80843(11) 0.80768(12)
O24_3 O 0.23283(10) 0.92932(11) 0.80409(14)
C26_3 C 0.91799(15) 0.8825(2) 0.7930(3)
O9_3 O 0.90130(10) 0.85316(19) 0.7635(2)
C27_3 C 0.95940(13) 0.8813(2) 0.7932(2)
O10_3 O 0.90143(10) 0.9122(2) 0.8193(2)
C28_3 C 0.97977(17) 0.8518(3) 0.7627(4)
H15_3 H 0.967381 0.829541 0.739633
C29_3 C 0.97969(17) 0.9140(4) 0.8208(4)
H16_3 H 0.967157 0.938152 0.841150
O2_3 O 0.34320(8) 0.06701(13) 0.19960(11)
C3_3 C 0.31187(11) 0.10316(14) 0.12113(14)
C6_3 C 0.29449(14) 0.10915(14) 0.00769(16)
C8_3 C 0.32330(11) 0.10029(17) 0.18194(15)
C9_3 C 0.28518(13) 0.14712(16) 0.04540(17)
H2_3 H 0.272875 0.175036 0.032372
C11_3 C 0.29403(12) 0.14326(14) 0.10064(15)
H4_3 H 0.287686 0.168711 0.124853
C16_3 C 0.32138(12) 0.06520(14) 0.08524(15)
H8_3 H 0.333623 0.037435 0.098814
C17_3 C 0.31242(14) 0.06900(14) 0.02867(16)
H9_3 H 0.318858 0.043481 0.004621
C22_4 C 0.41799(15) 0.1175(2) 0.2930(3)
O7_3 O 0.40130(10) 0.14684(19) 0.2635(2)
C23_4 C 0.45940(13) 0.1187(2) 0.2932(2)
O8_3 O 0.40143(10) 0.0878(2) 0.3193(2)
C24_4 C 0.47977(17) 0.1482(3) 0.2627(4)
H13_4 H 0.467381 0.170459 0.239633
C25_4 C 0.47969(17) 0.0860(4) 0.3208(4)
H14_4 H 0.467157 0.061848 0.341150
C26_4 C 0.58201(15) 0.1175(2) 0.2930(3)
O9_4 O 0.59870(10) 0.14684(19) 0.2635(2)
C27_4 C 0.54060(13) 0.1187(2) 0.2932(2)
O10_4 O 0.59857(10) 0.0878(2) 0.3193(2)
C28_4 C 0.52023(17) 0.1482(3) 0.2627(4)
H15_4 H 0.532619 0.170459 0.239633
C29_4 C 0.52031(17) 0.0860(4) 0.3208(4)
H16_4 H 0.532843 0.061848 0.341150
C33_3 C 0.23369(11) 0.00613(13) 0.13064(14)
H23_3 H 0.199937 0.005678 0.063601
C50_3 C 0.21412(13) 0.04819(14) 0.15971(17)
Cd7_2 Cd 0.65763(2) 0.11298(2) 0.29355(2)
O21_3 O 0.32792(9) 0.18056(10) 0.34035(12)
C1_3 C 0.29798(12) 0.29588(14) 0.83596(16)
N1_3 N 0.28569(13) 0.11245(12) 0.95117(13)
C2_3 C 0.29505(11) 0.24773(14) 0.86637(15)
O4_3 O 0.32792(9) 0.31944(10) 0.84035(12)
C5_3 C 0.26429(12) 0.01677(15) 0.84638(16)
H1_3 H 0.273520 0.005883 0.812096
C7_3 C 0.28861(14) 0.15796(14) 0.92234(15)
C10_3 C 0.28183(13) 0.05556(16) 0.87268(17)
H3_3 H 0.302622 0.070660 0.856260
C12_3 C 0.26426(12) 0.21683(16) 0.85813(18)
H5_3 H 0.245352 0.226368 0.833385
C13_3 C 0.32239(13) 0.23232(16) 0.90321(18)
H6_3 H 0.343313 0.252168 0.909632
C14_3 C 0.26824(14) 0.07190(14) 0.92380(16)
C15_3 C 0.22066(13) 0.00964(15) 0.92009(16)
C18_3 C 0.31947(14) 0.18816(16) 0.93079(17)
H10_3 H 0.338441 0.178505 0.955374
C19_3 C 0.23844(14) 0.04902(16) 0.94788(17)
H11_3 H 0.229720 0.059260 0.982712
C20_3 C 0.26101(14) 0.17316(16) 0.88518(19)
H12_3 H 0.240086 0.153340 0.878668
O5_3 O 0.26996(9) 0.30843(11) 0.80768(12)
Cd8_2 Cd 0.34237(2) 0.38702(2) 0.79355(2)
C30_3 C 0.29798(12) 0.70412(14) 0.16404(16)
N2_3 N 0.28569(13) 0.88755(12) 0.04883(13)
C31_3 C 0.29505(11) 0.75227(14) 0.13363(15)
O14_3 O 0.32792(9) 0.68056(10) 0.15965(12)
C34_3 C 0.26429(12) 0.98323(15) 0.15362(16)
H17_3 H 0.273520 0.994117 0.187904
C36_3 C 0.28861(14) 0.84204(14) 0.07766(15)
C39_3 C 0.28183(13) 0.94444(16) 0.12732(17)
H19_3 H 0.302622 0.929340 0.143740
C41_3 C 0.26426(12) 0.78317(16) 0.14187(18)
H21_3 H 0.245352 0.773632 0.166615
C42_3 C 0.32239(13) 0.76768(16) 0.09679(18)
H22_3 H 0.343313 0.747832 0.090368
C43_3 C 0.26824(14) 0.92810(14) 0.07620(16)
C44_3 C 0.22066(13) 0.99036(15) 0.07991(16)
C47_3 C 0.31947(14) 0.81184(16) 0.06921(17)
H26_3 H 0.338441 0.821495 0.044626
C48_3 C 0.23844(14) 0.95098(16) 0.05212(17)
H27_3 H 0.229720 0.940740 0.017288
C49_3 C 0.26101(14) 0.82684(16) 0.11482(19)
H28_3 H 0.240086 0.846660 0.121332
O15_3 O 0.26996(9) 0.69157(11) 0.19232(12)
Cd6_3 Cd 0.34237(2) 0.61298(2) 0.20645(2)
C4_3 C 0.23369(11) 0.99387(13) 0.86936(14)
H7_3 H 0.199937 0.994322 0.936399
C21_3 C 0.21412(13) 0.95181(14) 0.84029(17)
O12_3 O 0.34320(8) 0.93299(13) 0.80040(11)
C32_3 C 0.31187(11) 0.89684(14) 0.87887(14)
C35_3 C 0.29449(14) 0.89085(14) 0.99231(16)
C37_3 C 0.32330(11) 0.89971(17) 0.81806(15)
C38_3 C 0.28518(13) 0.85288(16) 0.95460(17)
H18_3 H 0.272875 0.824964 0.967628
C40_3 C 0.29403(12) 0.85674(14) 0.89936(15)
H20_3 H 0.287686 0.831289 0.875147
C45_3 C 0.32138(12) 0.93480(14) 0.91476(15)
H24_3 H 0.333623 0.962565 0.901186
C46_3 C 0.31242(14) 0.93100(14) 0.97133(16)
H25_3 H 0.318858 0.956519 0.995379
O20_3 O 0.32792(9) 0.81944(10) 0.65965(12)
O25_3 O 0.40130(10) 0.85316(19) 0.7365(2)
O26_3 O 0.40143(10) 0.9122(2) 0.6807(2)
O1_3 O 0.68957(7) 0.63379(10) 0.28568(9)
C1_4 C 0.70202(12) 0.79588(14) 0.66404(16)
O2_4 O 0.65680(8) 0.56701(13) 0.30040(11)
N1_4 N 0.71431(13) 0.61245(12) 0.54883(13)
C2_4 C 0.70495(11) 0.74773(14) 0.63363(15)
O4_4 O 0.67208(9) 0.81944(10) 0.65965(12)
C3_4 C 0.68813(11) 0.60316(14) 0.37887(14)
C4_4 C 0.76631(11) 0.49387(13) 0.63064(14)
C5_4 C 0.73571(12) 0.51677(15) 0.65362(16)
H1_4 H 0.726480 0.505883 0.687904
C6_4 C 0.70551(14) 0.60915(14) 0.49231(16)
C7_4 C 0.71139(14) 0.65796(14) 0.57766(15)
C8_4 C 0.67670(11) 0.60029(17) 0.31806(15)
C9_4 C 0.71482(13) 0.64712(16) 0.45460(17)
H2_4 H 0.727125 0.675036 0.467628
C10_4 C 0.71817(13) 0.55556(16) 0.62732(17)
H3_4 H 0.697378 0.570660 0.643740
C11_4 C 0.70597(12) 0.64326(14) 0.39936(15)
H4_4 H 0.712314 0.668711 0.375147
C12_4 C 0.73574(12) 0.71683(16) 0.64187(18)
H5_4 H 0.754648 0.726368 0.666615
C13_4 C 0.67761(13) 0.73232(16) 0.59679(18)
H6_4 H 0.656687 0.752168 0.590368
C14_4 C 0.73176(14) 0.57190(14) 0.57620(16)
C15_4 C 0.77934(13) 0.50964(15) 0.57991(16)
H7_4 H 0.800063 0.494322 0.563601
C16_4 C 0.67862(12) 0.56520(14) 0.41476(15)
H8_4 H 0.666377 0.537435 0.401186
C17_4 C 0.68758(14) 0.56900(14) 0.47133(16)
H9_4 H 0.681142 0.543481 0.495379
C18_4 C 0.68053(14) 0.68816(16) 0.56921(17)
H10_4 H 0.661559 0.678505 0.544626
C19_4 C 0.76156(14) 0.54902(16) 0.55212(17)
H11_4 H 0.770280 0.559260 0.517288
C20_4 C 0.73899(14) 0.67316(16) 0.61482(19)
H12_4 H 0.759914 0.653340 0.621332
O5_4 O 0.73004(9) 0.80843(11) 0.69232(12)
C21_4 C 0.78588(13) 0.45181(14) 0.65971(17)
C22_5 C 0.58201(15) 0.6175(2) 0.2070(3)
O7_4 O 0.59870(10) 0.64684(19) 0.2365(2)
C23_5 C 0.54060(13) 0.6187(2) 0.2068(2)
O8_4 O 0.59857(10) 0.5878(2) 0.1807(2)
C24_5 C 0.52023(17) 0.6482(3) 0.2373(4)
H13_5 H 0.532619 0.670459 0.260367
C25_5 C 0.52031(17) 0.5860(4) 0.1792(4)
H14_5 H 0.532843 0.561848 0.158850
C26_5 C 0.41799(15) 0.6175(2) 0.2070(3)
O9_5 O 0.40130(10) 0.64684(19) 0.2365(2)
C27_5 C 0.45940(13) 0.6187(2) 0.2068(2)
O10_5 O 0.40143(10) 0.5878(2) 0.1807(2)
C28_5 C 0.47977(17) 0.6482(3) 0.2373(4)
H15_5 H 0.467381 0.670459 0.260367
C29_5 C 0.47969(17) 0.5860(4) 0.1792(4)
H16_5 H 0.467157 0.561848 0.158850
C30_4 C 0.70202(12) 0.20412(14) 0.33596(16)
O12_4 O 0.65680(8) 0.43299(13) 0.69960(11)
N2_4 N 0.71431(13) 0.38755(12) 0.45117(13)
C31_4 C 0.70495(11) 0.25227(14) 0.36637(15)
O14_4 O 0.67208(9) 0.18056(10) 0.34035(12)
C32_4 C 0.68813(11) 0.39684(14) 0.62113(14)
C33_4 C 0.76631(11) 0.50613(13) 0.36936(14)
C34_4 C 0.73571(12) 0.48323(15) 0.34638(16)
H17_4 H 0.726480 0.494117 0.312096
C35_4 C 0.70551(14) 0.39085(14) 0.50769(16)
C36_4 C 0.71139(14) 0.34204(14) 0.42234(15)
C37_4 C 0.67670(11) 0.39971(17) 0.68194(15)
C38_4 C 0.71482(13) 0.35288(16) 0.54540(17)
H18_4 H 0.727125 0.324964 0.532372
C39_4 C 0.71817(13) 0.44444(16) 0.37268(17)
H19_4 H 0.697378 0.429340 0.356260
C40_4 C 0.70597(12) 0.35674(14) 0.60064(15)
H20_4 H 0.712314 0.331289 0.624853
C41_4 C 0.73574(12) 0.28317(16) 0.35813(18)
H21_4 H 0.754648 0.273632 0.333385
C42_4 C 0.67761(13) 0.26768(16) 0.40321(18)
H22_4 H 0.656687 0.247832 0.409632
C43_4 C 0.73176(14) 0.42810(14) 0.42380(16)
C44_4 C 0.77934(13) 0.49036(15) 0.42009(16)
H23_4 H 0.800063 0.505678 0.436399
C45_4 C 0.67862(12) 0.43480(14) 0.58524(15)
H24_4 H 0.666377 0.462565 0.598814
C46_4 C 0.68758(14) 0.43100(14) 0.52867(16)
H25_4 H 0.681142 0.456519 0.504621
C47_4 C 0.68053(14) 0.31184(16) 0.43079(17)
H26_4 H 0.661559 0.321495 0.455374
C48_4 C 0.76156(14) 0.45098(16) 0.44788(17)
H27_4 H 0.770280 0.440740 0.482712
C49_4 C 0.73899(14) 0.32684(16) 0.38518(19)
H28_4 H 0.759914 0.346660 0.378668
O15_4 O 0.73004(9) 0.19157(11) 0.30768(12)
O16_3 O 0.76717(10) 0.57068(11) 0.30409(14)
C50_4 C 0.78588(13) 0.54819(14) 0.34029(17)
Cd8_3 Cd 0.65763(2) 0.88702(2) 0.70645(2)
O20_4 O 0.67208(9) 0.31944(10) 0.84035(12)
O21_4 O 0.67208(9) 0.68056(10) 0.15965(12)
O22_4 O 0.76996(9) 0.69157(11) 0.30768(12)
O23_4 O 0.73004(9) 0.69157(11) 0.19232(12)
O25_4 O 0.59870(10) 0.35316(19) 0.7635(2)
O26_4 O 0.59857(10) 0.4122(2) 0.8193(2)
C22_6 C 0.41799(15) 0.8825(2) 0.7070(3)
C23_6 C 0.45940(13) 0.8813(2) 0.7068(2)
C24_6 C 0.47977(17) 0.8518(3) 0.7373(4)
H13_6 H 0.467381 0.829541 0.760367
C25_6 C 0.47969(17) 0.9140(4) 0.6792(4)
H14_6 H 0.467157 0.938152 0.658850
C26_6 C 0.58201(15) 0.8825(2) 0.7070(3)
O9_6 O 0.59870(10) 0.85316(19) 0.7365(2)
C27_6 C 0.54060(13) 0.8813(2) 0.7068(2)
O10_6 O 0.59857(10) 0.9122(2) 0.6807(2)
C28_6 C 0.52023(17) 0.8518(3) 0.7373(4)
H15_6 H 0.532619 0.829541 0.760367
C29_6 C 0.52031(17) 0.9140(4) 0.6792(4)
H16_6 H 0.532843 0.938152 0.658850
C22_7 C 0.58201(15) 0.3825(2) 0.7930(3)
C23_7 C 0.54060(13) 0.3813(2) 0.7932(2)
C24_7 C 0.52023(17) 0.3518(3) 0.7627(4)
H13_7 H 0.532619 0.329541 0.739633
C25_7 C 0.52031(17) 0.4140(4) 0.8208(4)
H14_7 H 0.532843 0.438152 0.841150
C26_7 C 0.41799(15) 0.3825(2) 0.7930(3)
O9_7 O 0.40130(10) 0.35316(19) 0.7635(2)
C27_7 C 0.45940(13) 0.3813(2) 0.7932(2)
O10_7 O 0.40143(10) 0.4122(2) 0.8193(2)
C28_7 C 0.47977(17) 0.3518(3) 0.7627(4)
H15_7 H 0.467381 0.329541 0.739633
C29_7 C 0.47969(17) 0.4140(4) 0.8208(4)
H16_7 H 0.467157 0.438152 0.841150
C26_8 C 0.08201(15) 0.6175(2) 0.2930(3)
O9_8 O 0.09870(10) 0.64684(19) 0.2635(2)
C27_8 C 0.04060(13) 0.6187(2) 0.2932(2)
O10_8 O 0.09857(10) 0.5878(2) 0.3193(2)
C28_8 C 0.02023(17) 0.6482(3) 0.2627(4)
H15_8 H 0.032619 0.670459 0.239633
C29_8 C 0.02031(17) 0.5860(4) 0.3208(4)
H16_8 H 0.032843 0.561848 0.341150
C22_8 C 0.91799(15) 0.6175(2) 0.2930(3)
C23_8 C 0.95940(13) 0.6187(2) 0.2932(2)
C24_8 C 0.97977(17) 0.6482(3) 0.2627(4)
H13_8 H 0.967381 0.670459 0.239633
C25_8 C 0.97969(17) 0.5860(4) 0.3208(4)
H14_8 H 0.967157 0.561848 0.341150
O3_3 O 0.68108(9) 0.05708(11) 0.35111(13)
C4_5 C 0.73369(11) 0.00613(13) 0.36936(14)
H7_5 H 0.699937 0.005678 0.436399
O6_3 O 0.73283(10) 0.07068(11) 0.30409(14)
C21_5 C 0.71412(13) 0.04819(14) 0.34029(17)
O11_3 O 0.81043(7) 0.13379(10) 0.28568(9)
C30_5 C 0.79798(12) 0.29588(14) 0.66404(16)
O12_5 O 0.84320(8) 0.06701(13) 0.30040(11)
N2_5 N 0.78569(13) 0.11245(12) 0.54883(13)
C31_5 C 0.79505(11) 0.24773(14) 0.63363(15)
C32_5 C 0.81187(11) 0.10316(14) 0.37887(14)
C34_5 C 0.76429(12) 0.01677(15) 0.65362(16)
H17_5 H 0.773520 0.005883 0.687904
C35_5 C 0.79449(14) 0.10915(14) 0.49231(16)
C36_5 C 0.78861(14) 0.15796(14) 0.57766(15)
C37_5 C 0.82330(11) 0.10029(17) 0.31806(15)
C38_5 C 0.78518(13) 0.14712(16) 0.45460(17)
H18_5 H 0.772875 0.175036 0.467628
C39_5 C 0.78183(13) 0.05556(16) 0.62732(17)
H19_5 H 0.802622 0.070660 0.643740
C40_5 C 0.79403(12) 0.14326(14) 0.39936(15)
H20_5 H 0.787686 0.168711 0.375147
C41_5 C 0.76426(12) 0.21683(16) 0.64187(18)
H21_5 H 0.745352 0.226368 0.666615
C42_5 C 0.82239(13) 0.23232(16) 0.59679(18)
H22_5 H 0.843313 0.252168 0.590368
C43_5 C 0.76824(14) 0.07190(14) 0.57620(16)
C44_5 C 0.72066(13) 0.00964(15) 0.57991(16)
C45_5 C 0.82138(12) 0.06520(14) 0.41476(15)
H24_5 H 0.833623 0.037435 0.401186
C46_5 C 0.81242(14) 0.06900(14) 0.47133(16)
H25_5 H 0.818858 0.043481 0.495379
C47_5 C 0.81947(14) 0.18816(16) 0.56921(17)
H26_5 H 0.838441 0.178505 0.544626
C48_5 C 0.73844(14) 0.04902(16) 0.55212(17)
H27_5 H 0.729720 0.059260 0.517288
C49_5 C 0.76101(14) 0.17316(16) 0.61482(19)
H28_5 H 0.740086 0.153340 0.621332
O18_3 O 0.81892(9) 0.05708(11) 0.14889(13)
O1_4 O 0.81043(7) 0.86621(10) 0.71432(9)
C1_5 C 0.79798(12) 0.70412(14) 0.33596(16)
O2_5 O 0.84320(8) 0.93299(13) 0.69960(11)
N1_5 N 0.78569(13) 0.88755(12) 0.45117(13)
C2_5 C 0.79505(11) 0.75227(14) 0.36637(15)
C3_5 C 0.81187(11) 0.89684(14) 0.62113(14)
C5_5 C 0.76429(12) 0.98323(15) 0.34638(16)
H1_5 H 0.773520 0.994117 0.312096
C6_5 C 0.79449(14) 0.89085(14) 0.50769(16)
C7_5 C 0.78861(14) 0.84204(14) 0.42234(15)
C8_5 C 0.82330(11) 0.89971(17) 0.68194(15)
C9_5 C 0.78518(13) 0.85288(16) 0.54540(17)
H2_5 H 0.772875 0.824964 0.532372
C10_5 C 0.78183(13) 0.94444(16) 0.37268(17)
H3_5 H 0.802622 0.929340 0.356260
C11_5 C 0.79403(12) 0.85674(14) 0.60064(15)
H4_5 H 0.787686 0.831289 0.624853
C12_5 C 0.76426(12) 0.78317(16) 0.35813(18)
H5_5 H 0.745352 0.773632 0.333385
C13_5 C 0.82239(13) 0.76768(16) 0.40321(18)
H6_5 H 0.843313 0.747832 0.409632
C14_5 C 0.76824(14) 0.92810(14) 0.42380(16)
C15_5 C 0.72066(13) 0.99036(15) 0.42009(16)
C16_5 C 0.82138(12) 0.93480(14) 0.58524(15)
H8_5 H 0.833623 0.962565 0.598814
C17_5 C 0.81242(14) 0.93100(14) 0.52867(16)
H9_5 H 0.818858 0.956519 0.504621
C18_5 C 0.81947(14) 0.81184(16) 0.43079(17)
H10_5 H 0.838441 0.821495 0.455374
C19_5 C 0.73844(14) 0.95098(16) 0.44788(17)
H11_5 H 0.729720 0.940740 0.482712
C20_5 C 0.76101(14) 0.82684(16) 0.38518(19)
H12_5 H 0.740086 0.846660 0.378668
O13_3 O 0.68108(9) 0.94292(11) 0.64889(13)
C33_5 C 0.73369(11) 0.99387(13) 0.63064(14)
H23_5 H 0.699937 0.994322 0.563601
O16_4 O 0.73283(10) 0.92932(11) 0.69591(14)
C50_5 C 0.71412(13) 0.95181(14) 0.65971(17)
O17_4 O 0.68957(7) 0.86621(10) 0.78568(9)
O19_3 O 0.81892(9) 0.94292(11) 0.85111(13)
O24_4 O 0.76717(10) 0.92932(11) 0.80409(14)
O1_5 O 0.18957(7) 0.63379(10) 0.21432(9)
O2_6 O 0.15680(8) 0.56701(13) 0.19960(11)
C3_6 C 0.18813(11) 0.60316(14) 0.12113(14)
C6_6 C 0.20551(14) 0.60915(14) 0.00769(16)
C8_6 C 0.17670(11) 0.60029(17) 0.18194(15)
C9_6 C 0.21482(13) 0.64712(16) 0.04540(17)
H2_6 H 0.227125 0.675036 0.032372
C11_6 C 0.20597(12) 0.64326(14) 0.10064(15)
H4_6 H 0.212314 0.668711 0.124853
C16_6 C 0.17862(12) 0.56520(14) 0.08524(15)
H8_6 H 0.166377 0.537435 0.098814
C17_6 C 0.18758(14) 0.56900(14) 0.02867(16)
H9_6 H 0.181142 0.543481 0.004621
C30_6 C 0.20202(12) 0.20412(14) 0.16404(16)
N2_6 N 0.21431(13) 0.38755(12) 0.04883(13)
C31_6 C 0.20495(11) 0.25227(14) 0.13363(15)
O13_4 O 0.31892(9) 0.55708(11) 0.14889(13)
C33_6 C 0.26631(11) 0.50613(13) 0.13064(14)
C34_6 C 0.23571(12) 0.48323(15) 0.15362(16)
H17_6 H 0.226480 0.494117 0.187904
C36_6 C 0.21139(14) 0.34204(14) 0.07766(15)
C39_6 C 0.21817(13) 0.44444(16) 0.12732(17)
H19_6 H 0.197378 0.429340 0.143740
C41_6 C 0.23574(12) 0.28317(16) 0.14187(18)
H21_6 H 0.254648 0.273632 0.166615
C42_6 C 0.17761(13) 0.26768(16) 0.09679(18)
H22_6 H 0.156687 0.247832 0.090368
C43_6 C 0.23176(14) 0.42810(14) 0.07620(16)
C44_6 C 0.27934(13) 0.49036(15) 0.07991(16)
H23_6 H 0.300063 0.505678 0.063601
C47_6 C 0.18053(14) 0.31184(16) 0.06921(17)
H26_6 H 0.161559 0.321495 0.044626
C48_6 C 0.26156(14) 0.45098(16) 0.05212(17)
H27_6 H 0.270280 0.440740 0.017288
C49_6 C 0.23899(14) 0.32684(16) 0.11482(19)
H28_6 H 0.259914 0.346660 0.121332
O16_5 O 0.26717(10) 0.57068(11) 0.19591(14)
C50_6 C 0.28588(13) 0.54819(14) 0.15971(17)
O17_5 O 0.31043(7) 0.63379(10) 0.28568(9)
O19_4 O 0.18108(9) 0.55708(11) 0.35111(13)
O24_5 O 0.23283(10) 0.57068(11) 0.30409(14)
C1_6 C 0.20202(12) 0.79588(14) 0.83596(16)
N1_6 N 0.21431(13) 0.61245(12) 0.95117(13)
C2_6 C 0.20495(11) 0.74773(14) 0.86637(15)
O3_4 O 0.31892(9) 0.44292(11) 0.85111(13)
C4_6 C 0.26631(11) 0.49387(13) 0.86936(14)
C5_6 C 0.23571(12) 0.51677(15) 0.84638(16)
H1_6 H 0.226480 0.505883 0.812096
C7_6 C 0.21139(14) 0.65796(14) 0.92234(15)
C10_6 C 0.21817(13) 0.55556(16) 0.87268(17)
H3_6 H 0.197378 0.570660 0.856260
C12_6 C 0.23574(12) 0.71683(16) 0.85813(18)
H5_6 H 0.254648 0.726368 0.833385
C13_6 C 0.17761(13) 0.73232(16) 0.90321(18)
H6_6 H 0.156687 0.752168 0.909632
C14_6 C 0.23176(14) 0.57190(14) 0.92380(16)
C15_6 C 0.27934(13) 0.50964(15) 0.92009(16)
H7_6 H 0.300063 0.494322 0.936399
C18_6 C 0.18053(14) 0.68816(16) 0.93079(17)
H10_6 H 0.161559 0.678505 0.955374
C19_6 C 0.26156(14) 0.54902(16) 0.94788(17)
H11_6 H 0.270280 0.559260 0.982712
C20_6 C 0.23899(14) 0.67316(16) 0.88518(19)
H12_6 H 0.259914 0.653340 0.878668
O6_4 O 0.26717(10) 0.42932(11) 0.80409(14)
C21_6 C 0.28588(13) 0.45181(14) 0.84029(17)
O11_4 O 0.18957(7) 0.36621(10) 0.78568(9)
O12_6 O 0.15680(8) 0.43299(13) 0.80040(11)
C32_6 C 0.18813(11) 0.39684(14) 0.87887(14)
C35_6 C 0.20551(14) 0.39085(14) 0.99231(16)
C37_6 C 0.17670(11) 0.39971(17) 0.81806(15)
C38_6 C 0.21482(13) 0.35288(16) 0.95460(17)
H18_6 H 0.227125 0.324964 0.967628
C40_6 C 0.20597(12) 0.35674(14) 0.89936(15)
H20_6 H 0.212314 0.331289 0.875147
C45_6 C 0.17862(12) 0.43480(14) 0.91476(15)
H24_6 H 0.166377 0.462565 0.901186
C46_6 C 0.18758(14) 0.43100(14) 0.97133(16)
H25_6 H 0.181142 0.456519 0.995379
O18_4 O 0.18108(9) 0.44292(11) 0.64889(13)
O17_6 O 0.68957(7) 0.13379(10) 0.21432(9)
O24_6 O 0.76717(10) 0.07068(11) 0.19591(14)
C4_7 C 0.76631(11) 0.00613(13) 0.13064(14)
H7_7 H 0.800063 0.005678 0.063601
C21_7 C 0.78588(13) 0.04819(14) 0.15971(17)
O12_7 O 0.65680(8) 0.06701(13) 0.19960(11)
C32_7 C 0.68813(11) 0.10316(14) 0.12113(14)
C35_7 C 0.70551(14) 0.10915(14) 0.00769(16)
C37_7 C 0.67670(11) 0.10029(17) 0.18194(15)
C38_7 C 0.71482(13) 0.14712(16) 0.04540(17)
H18_7 H 0.727125 0.175036 0.032372
C40_7 C 0.70597(12) 0.14326(14) 0.10064(15)
H20_7 H 0.712314 0.168711 0.124853
C45_7 C 0.67862(12) 0.06520(14) 0.08524(15)
H24_7 H 0.666377 0.037435 0.098814
C46_7 C 0.68758(14) 0.06900(14) 0.02867(16)
H25_7 H 0.681142 0.043481 0.004621
C30_7 C 0.70202(12) 0.29588(14) 0.83596(16)
N2_7 N 0.71431(13) 0.11245(12) 0.95117(13)
C31_7 C 0.70495(11) 0.24773(14) 0.86637(15)
C34_7 C 0.73571(12) 0.01677(15) 0.84638(16)
H17_7 H 0.726480 0.005883 0.812096
C36_7 C 0.71139(14) 0.15796(14) 0.92234(15)
C39_7 C 0.71817(13) 0.05556(16) 0.87268(17)
H19_7 H 0.697378 0.070660 0.856260
C41_7 C 0.73574(12) 0.21683(16) 0.85813(18)
H21_7 H 0.754648 0.226368 0.833385
C42_7 C 0.67761(13) 0.23232(16) 0.90321(18)
H22_7 H 0.656687 0.252168 0.909632
C43_7 C 0.73176(14) 0.07190(14) 0.92380(16)
C44_7 C 0.77934(13) 0.00964(15) 0.92009(16)
C47_7 C 0.68053(14) 0.18816(16) 0.93079(17)
H26_7 H 0.661559 0.178505 0.955374
C48_7 C 0.76156(14) 0.04902(16) 0.94788(17)
H27_7 H 0.770280 0.059260 0.982712
C49_7 C 0.73899(14) 0.17316(16) 0.88518(19)
H28_7 H 0.759914 0.153340 0.878668
C1_7 C 0.70202(12) 0.70412(14) 0.16404(16)
N1_7 N 0.71431(13) 0.88755(12) 0.04883(13)
C2_7 C 0.70495(11) 0.75227(14) 0.13363(15)
C5_7 C 0.73571(12) 0.98323(15) 0.15362(16)
H1_7 H 0.726480 0.994117 0.187904
C7_7 C 0.71139(14) 0.84204(14) 0.07766(15)
C10_7 C 0.71817(13) 0.94444(16) 0.12732(17)
H3_7 H 0.697378 0.929340 0.143740
C12_7 C 0.73574(12) 0.78317(16) 0.14187(18)
H5_7 H 0.754648 0.773632 0.166615
C13_7 C 0.67761(13) 0.76768(16) 0.09679(18)
H6_7 H 0.656687 0.747832 0.090368
C14_7 C 0.73176(14) 0.92810(14) 0.07620(16)
C15_7 C 0.77934(13) 0.99036(15) 0.07991(16)
C18_7 C 0.68053(14) 0.81184(16) 0.06921(17)
H10_7 H 0.661559 0.821495 0.044626
C19_7 C 0.76156(14) 0.95098(16) 0.05212(17)
H11_7 H 0.770280 0.940740 0.017288
C20_7 C 0.73899(14) 0.82684(16) 0.11482(19)
H12_7 H 0.759914 0.846660 0.121332
O2_7 O 0.65680(8) 0.93299(13) 0.80040(11)
C3_7 C 0.68813(11) 0.89684(14) 0.87887(14)
C6_7 C 0.70551(14) 0.89085(14) 0.99231(16)
C8_7 C 0.67670(11) 0.89971(17) 0.81806(15)
C9_7 C 0.71482(13) 0.85288(16) 0.95460(17)
H2_7 H 0.727125 0.824964 0.967628
C11_7 C 0.70597(12) 0.85674(14) 0.89936(15)
H4_7 H 0.712314 0.831289 0.875147
C16_7 C 0.67862(12) 0.93480(14) 0.91476(15)
H8_7 H 0.666377 0.962565 0.901186
C17_7 C 0.68758(14) 0.93100(14) 0.97133(16)
H9_7 H 0.681142 0.956519 0.995379
C33_7 C 0.76631(11) 0.99387(13) 0.86936(14)
H23_7 H 0.800063 0.994322 0.936399
C50_7 C 0.78588(13) 0.95181(14) 0.84029(17)
O1_6 O 0.31043(7) 0.36621(10) 0.71432(9)
C1_8 C 0.29798(12) 0.20412(14) 0.33596(16)
O2_8 O 0.34320(8) 0.43299(13) 0.69960(11)
N1_8 N 0.28569(13) 0.38755(12) 0.45117(13)
C2_8 C 0.29505(11) 0.25227(14) 0.36637(15)
C3_8 C 0.31187(11) 0.39684(14) 0.62113(14)
C4_8 C 0.23369(11) 0.50613(13) 0.36936(14)
C5_8 C 0.26429(12) 0.48323(15) 0.34638(16)
H1_8 H 0.273520 0.494117 0.312096
C6_8 C 0.29449(14) 0.39085(14) 0.50769(16)
C7_8 C 0.28861(14) 0.34204(14) 0.42234(15)
C8_8 C 0.32330(11) 0.39971(17) 0.68194(15)
C9_8 C 0.28518(13) 0.35288(16) 0.54540(17)
H2_8 H 0.272875 0.324964 0.532372
C10_8 C 0.28183(13) 0.44444(16) 0.37268(17)
H3_8 H 0.302622 0.429340 0.356260
C11_8 C 0.29403(12) 0.35674(14) 0.60064(15)
H4_8 H 0.287686 0.331289 0.624853
C12_8 C 0.26426(12) 0.28317(16) 0.35813(18)
H5_8 H 0.245352 0.273632 0.333385
C13_8 C 0.32239(13) 0.26768(16) 0.40321(18)
H6_8 H 0.343313 0.247832 0.409632
C14_8 C 0.26824(14) 0.42810(14) 0.42380(16)
C15_8 C 0.22066(13) 0.49036(15) 0.42009(16)
H7_8 H 0.199937 0.505678 0.436399
C16_8 C 0.32138(12) 0.43480(14) 0.58524(15)
H8_8 H 0.333623 0.462565 0.598814
C17_8 C 0.31242(14) 0.43100(14) 0.52867(16)
H9_8 H 0.318858 0.456519 0.504621
C18_8 C 0.31947(14) 0.31184(16) 0.43079(17)
H10_8 H 0.338441 0.321495 0.455374
C19_8 C 0.23844(14) 0.45098(16) 0.44788(17)
H11_8 H 0.229720 0.440740 0.482712
C20_8 C 0.26101(14) 0.32684(16) 0.38518(19)
H12_8 H 0.240086 0.346660 0.378668
C21_8 C 0.21412(13) 0.54819(14) 0.34029(17)
C30_8 C 0.29798(12) 0.79588(14) 0.66404(16)
O12_8 O 0.34320(8) 0.56701(13) 0.30040(11)
N2_8 N 0.28569(13) 0.61245(12) 0.54883(13)
C31_8 C 0.29505(11) 0.74773(14) 0.63363(15)
C32_8 C 0.31187(11) 0.60316(14) 0.37887(14)
C33_8 C 0.23369(11) 0.49387(13) 0.63064(14)
C34_8 C 0.26429(12) 0.51677(15) 0.65362(16)
H17_8 H 0.273520 0.505883 0.687904
C35_8 C 0.29449(14) 0.60915(14) 0.49231(16)
C36_8 C 0.28861(14) 0.65796(14) 0.57766(15)
C37_8 C 0.32330(11) 0.60029(17) 0.31806(15)
C38_8 C 0.28518(13) 0.64712(16) 0.45460(17)
H18_8 H 0.272875 0.675036 0.467628
C39_8 C 0.28183(13) 0.55556(16) 0.62732(17)
H19_8 H 0.302622 0.570660 0.643740
C40_8 C 0.29403(12) 0.64326(14) 0.39936(15)
H20_8 H 0.287686 0.668711 0.375147
C41_8 C 0.26426(12) 0.71683(16) 0.64187(18)
H21_8 H 0.245352 0.726368 0.666615
C42_8 C 0.32239(13) 0.73232(16) 0.59679(18)
H22_8 H 0.343313 0.752168 0.590368
C43_8 C 0.26824(14) 0.57190(14) 0.57620(16)
C44_8 C 0.22066(13) 0.50964(15) 0.57991(16)
H23_8 H 0.199937 0.494322 0.563601
C45_8 C 0.32138(12) 0.56520(14) 0.41476(15)
H24_8 H 0.333623 0.537435 0.401186
C46_8 C 0.31242(14) 0.56900(14) 0.47133(16)
H25_8 H 0.318858 0.543481 0.495379
C47_8 C 0.31947(14) 0.68816(16) 0.56921(17)
H26_8 H 0.338441 0.678505 0.544626
C48_8 C 0.23844(14) 0.54902(16) 0.55212(17)
H27_8 H 0.229720 0.559260 0.517288
C49_8 C 0.26101(14) 0.67316(16) 0.61482(19)
H28_8 H 0.240086 0.653340 0.621332
O16_6 O 0.23283(10) 0.42932(11) 0.69591(14)
C50_8 C 0.21412(13) 0.45181(14) 0.65971(17)
loop_
_geom_bond_atom_site_label_1
_geom_bond_atom_site_label_2
_geom_bond_site_symmetry_1
_geom_bond_site_symmetry_2
Cd1 O1 1_555 1_555
Cd2 O1 1_555 1_555
O1 C8 1_555 1_555
C1 C2 1_555 1_555
O2 Cd1 1_555 1_555
N1 C6 1_555 1_555
C2 C12 1_555 1_555
O4 C1 1_555 1_555
C3 C8 1_555 1_555
C5 H1 1_555 1_555
C6 C9 1_555 1_555
C7 N1 1_555 1_555
C8 O2 1_555 1_555
C9 H2 1_555 1_555
C10 C5 1_555 1_555
H3 C10 1_555 1_555
C11 C3 1_555 1_555
H4 C11 1_555 1_555
C12 H5 1_555 1_555
C13 C2 1_555 1_555
H6 C13 1_555 1_555
C14 N1 1_555 1_555
C16 C3 1_555 1_555
H8 C16 1_555 1_555
C17 C6 1_555 1_555
H9 C17 1_555 1_555
C18 C7 1_555 1_555
H10 C18 1_555 1_555
C19 C14 1_555 1_555
H11 C19 1_555 1_555
C20 C7 1_555 1_555
H12 C20 1_555 1_555
O5 C1 1_555 1_555
C22 O7 1_555 1_555
O7 Cd1 1_555 1_555
C23 C22 1_555 1_555
O8 Cd1 1_555 1_555
C24 C23 1_555 1_555
H13 C24 1_555 1_555
C25 C23 1_555 1_555
H14 C25 1_555 1_555
O13 C50 1_555 1_555
O16 Cd2 1_555 1_555
C50 C33 1_555 1_555
Cd4 O13 1_555 1_555
Cd8 O4 1_555 1_555
Cd11 O5 1_555 1_555
O17 Cd2 1_555 1_555
O19 Cd1 1_555 1_555
O21 Cd1 1_555 1_555
O22 Cd2 1_555 1_555
O23 Cd2 1_555 1_555
O24 Cd2 1_555 1_555
C9 C11 1_555 1_555
C10 C14 1_555 1_555
C12 C20 1_555 1_555
C13 C18 1_555 1_555
C15 C19 1_555 1_555
C16 C17 1_555 1_555
C22 O8 1_555 1_555
O16 C50 1_555 1_555
Cd4 O17 1_555 1_555
O3 C21 1_555 1_555
O6 C21 1_555 1_555
C21 C4 1_555 1_555
Cd3 O11 1_555 1_555
O11 C37 1_555 1_555
C30 C31 1_555 1_555
O12 Cd3 1_555 1_555
N2 C35 1_555 1_555
C31 C41 1_555 1_555
O14 C30 1_555 1_555
C32 C37 1_555 1_555
C34 H17 1_555 1_555
C35 C38 1_555 1_555
C36 N2 1_555 1_555
C37 O12 1_555 1_555
C38 H18 1_555 1_555
C39 C34 1_555 1_555
H19 C39 1_555 1_555
C40 C32 1_555 1_555
H20 C40 1_555 1_555
C41 H21 1_555 1_555
C42 C31 1_555 1_555
H22 C42 1_555 1_555
C43 N2 1_555 1_555
C45 C32 1_555 1_555
H24 C45 1_555 1_555
C46 C35 1_555 1_555
H25 C46 1_555 1_555
C47 C36 1_555 1_555
H26 C47 1_555 1_555
C48 C43 1_555 1_555
H27 C48 1_555 1_555
C49 C36 1_555 1_555
H28 C49 1_555 1_555
O15 C30 1_555 1_555
Cd5 O3 1_555 1_555
Cd6 O14 1_555 1_555
Cd9 O6 1_555 1_555
Cd10 O15 1_555 1_555
O18 Cd3 1_555 1_555
O20 Cd3 1_555 1_555
O25 Cd3 1_555 1_555
O26 Cd3 1_555 1_555
O11 Cd9 1_555 1_555
C38 C40 1_555 1_555
C39 C43 1_555 1_555
C41 C49 1_555 1_555
C42 C47 1_555 1_555
C44 C48 1_555 1_555
C45 C46 1_555 1_555
C26 O9 1_555 1_555
O9 Cd7 1_555 1_555
C27 C26 1_555 1_555
O10 C26 1_555 1_555
H15 C28 1_555 1_555
H16 C29 1_555 1_555
Cd7 O10 1_555 1_555
C27 C28 1_555 1_555
C27 C29 1_555 1_555
C26_2 O9_2 1_555 1_555
O9_2 Cd8 1_555 1_555
C27_2 C26_2 1_555 1_555
O10_2 C26_2 1_555 1_555
H15_2 C28_2 1_555 1_555
H16_2 C29_2 1_555 1_555
Cd8 O10_2 1_555 1_555
C27_2 C28_2 1_555 1_555
C27_2 C29_2 1_555 1_555
C1_2 C2_2 1_555 1_555
C2_2 C12_2 1_555 1_555
O3_2 C21_2 1_555 1_555
O4_2 C1_2 1_555 1_555
C4_2 C5_2 1_555 1_555
C5_2 H1_2 1_555 1_555
C7_2 N1_2 1_555 1_555
C10_2 C5_2 1_555 1_555
H3_2 C10_2 1_555 1_555
C12_2 H5_2 1_555 1_555
C13_2 C2_2 1_555 1_555
H6_2 C13_2 1_555 1_555
C14_2 N1_2 1_555 1_555
C15_2 C4_2 1_555 1_555
H7_2 C15_2 1_555 1_555
C18_2 C7_2 1_555 1_555
H10_2 C18_2 1_555 1_555
C19_2 C14_2 1_555 1_555
H11_2 C19_2 1_555 1_555
C20_2 C7_2 1_555 1_555
H12_2 C20_2 1_555 1_555
O5_2 C1_2 1_555 1_555
O6_2 C21_2 1_555 1_555
C21_2 C4_2 1_555 1_555
Cd3_2 O11_2 1_555 1_555
O11_2 C37_2 1_555 1_555
O12_2 Cd3_2 1_555 1_555
C32_2 C37_2 1_555 1_555
C35_2 C38_2 1_555 1_555
C37_2 O12_2 1_555 1_555
C38_2 H18_2 1_555 1_555
C40_2 C32_2 1_555 1_555
H20_2 C40_2 1_555 1_555
C45_2 C32_2 1_555 1_555
H24_2 C45_2 1_555 1_555
C46_2 C35_2 1_555 1_555
H25_2 C46_2 1_555 1_555
Cd5_2 O3_2 1_555 1_555
Cd7 O4_2 1_555 1_555
Cd9_2 O6_2 1_555 1_555
Cd11_2 O5_2 1_555 1_555
O18_2 Cd3_2 1_555 1_555
O20_2 Cd3_2 1_555 1_555
O25_2 Cd3_2 1_555 1_555
O26_2 Cd3_2 1_555 1_555
C10_2 C14_2 1_555 1_555
C12_2 C20_2 1_555 1_555
C13_2 C18_2 1_555 1_555
C15_2 C19_2 1_555 1_555
O11_2 Cd9_2 1_555 1_555
C38_2 C40_2 1_555 1_555
C45_2 C46_2 1_555 1_555
Cd1_2 O1_2 1_555 1_555
Cd2_2 O1_2 1_555 1_555
O1_2 C8_2 1_555 1_555
O2_2 Cd1_2 1_555 1_555
C3_2 C8_2 1_555 1_555
C6_2 C9_2 1_555 1_555
C8_2 O2_2 1_555 1_555
C9_2 H2_2 1_555 1_555
C11_2 C3_2 1_555 1_555
H4_2 C11_2 1_555 1_555
C16_2 C3_2 1_555 1_555
H8_2 C16_2 1_555 1_555
C17_2 C6_2 1_555 1_555
H9_2 C17_2 1_555 1_555
C22_2 O7_2 1_555 1_555
O7_2 Cd1_2 1_555 1_555
C23_2 C22_2 1_555 1_555
O8_2 Cd1_2 1_555 1_555
C24_2 C23_2 1_555 1_555
H13_2 C24_2 1_555 1_555
C25_2 C23_2 1_555 1_555
H14_2 C25_2 1_555 1_555
C30_2 C31_2 1_555 1_555
C31_2 C41_2 1_555 1_555
O13_2 C50_2 1_555 1_555
O14_2 C30_2 1_555 1_555
C33_2 C34_2 1_555 1_555
C34_2 H17_2 1_555 1_555
C36_2 N2_2 1_555 1_555
C39_2 C34_2 1_555 1_555
H19_2 C39_2 1_555 1_555
C41_2 H21_2 1_555 1_555
C42_2 C31_2 1_555 1_555
H22_2 C42_2 1_555 1_555
C43_2 N2_2 1_555 1_555
C44_2 C33_2 1_555 1_555
H23_2 C44_2 1_555 1_555
C47_2 C36_2 1_555 1_555
H26_2 C47_2 1_555 1_555
C48_2 C43_2 1_555 1_555
H27_2 C48_2 1_555 1_555
C49_2 C36_2 1_555 1_555
H28_2 C49_2 1_555 1_555
O15_2 C30_2 1_555 1_555
O16_2 Cd2_2 1_555 1_555
C50_2 C33_2 1_555 1_555
Cd4_2 O13_2 1_555 1_555
Cd6_2 O14_2 1_555 1_555
Cd10_2 O15_2 1_555 1_555
O17_2 Cd2_2 1_555 1_555
O19_2 Cd1_2 1_555 1_555
O21_2 Cd1_2 1_555 1_555
O22_2 Cd2_2 1_555 1_555
O23_2 Cd2_2 1_555 1_555
O24_2 Cd2_2 1_555 1_555
C9_2 C11_2 1_555 1_555
C16_2 C17_2 1_555 1_555
C22_2 O8_2 1_555 1_555
C39_2 C43_2 1_555 1_555
C41_2 C49_2 1_555 1_555
C42_2 C47_2 1_555 1_555
C44_2 C48_2 1_555 1_555
O16_2 C50_2 1_555 1_555
Cd4_2 O17_2 1_555 1_555
C22_3 O25 1_555 1_555
C23_3 C22_3 1_555 1_555
C24_3 C23_3 1_555 1_555
H13_3 C24_3 1_555 1_555
C25_3 C23_3 1_555 1_555
H14_3 C25_3 1_555 1_555
O17_3 Cd9 1_555 1_555
O22_3 Cd9 1_555 1_555
O23_3 Cd9 1_555 1_555
O24_3 Cd9 1_555 1_555
C22_3 O26 1_555 1_555
Cd5 O17_3 1_555 1_555
C26_3 O9_3 1_555 1_555
O9_3 Cd6_2 1_555 1_555
C27_3 C26_3 1_555 1_555
O10_3 C26_3 1_555 1_555
H15_3 C28_3 1_555 1_555
H16_3 C29_3 1_555 1_555
Cd6_2 O10_3 1_555 1_555
C27_3 C28_3 1_555 1_555
C27_3 C29_3 1_555 1_555
O17 C8_3 1_555 1_555
O2_3 Cd4 1_555 1_555
C3_3 C8_3 1_555 1_555
C6_3 C9_3 1_555 1_555
C8_3 O2_3 1_555 1_555
C9_3 H2_3 1_555 1_555
C11_3 C3_3 1_555 1_555
H4_3 C11_3 1_555 1_555
C16_3 C3_3 1_555 1_555
H8_3 C16_3 1_555 1_555
C17_3 C6_3 1_555 1_555
H9_3 C17_3 1_555 1_555
C22_4 O7_3 1_555 1_555
O7_3 Cd4 1_555 1_555
C23_4 C22_4 1_555 1_555
O8_3 Cd4 1_555 1_555
C24_4 C23_4 1_555 1_555
H13_4 C24_4 1_555 1_555
C25_4 C23_4 1_555 1_555
H14_4 C25_4 1_555 1_555
C26_4 O9_4 1_555 1_555
O9_4 Cd7_2 1_555 1_555
C27_4 C26_4 1_555 1_555
O10_4 C26_4 1_555 1_555
C28_4 C24_4 1_555 1_555
H15_4 C28_4 1_555 1_555
C29_4 C25_4 1_555 1_555
H16_4 C29_4 1_555 1_555
O19 C50_3 1_555 1_555
C50_3 C33_3 1_555 1_555
Cd7_2 O10_4 1_555 1_555
O21_3 Cd4 1_555 1_555
C9_3 C11_3 1_555 1_555
C16_3 C17_3 1_555 1_555
C22_4 O8_3 1_555 1_555
C27_4 C28_4 1_555 1_555
C27_4 C29_4 1_555 1_555
O24 C50_3 1_555 1_555
C1_3 C2_3 1_555 1_555
C2_3 C12_3 1_555 1_555
O4_3 C1_3 1_555 1_555
C5_3 H1_3 1_555 1_555
C7_3 N1_3 1_555 1_555
C10_3 C5_3 1_555 1_555
H3_3 C10_3 1_555 1_555
C12_3 H5_3 1_555 1_555
C13_3 C2_3 1_555 1_555
H6_3 C13_3 1_555 1_555
C14_3 N1_3 1_555 1_555
C18_3 C7_3 1_555 1_555
H10_3 C18_3 1_555 1_555
C19_3 C14_3 1_555 1_555
H11_3 C19_3 1_555 1_555
C20_3 C7_3 1_555 1_555
H12_3 C20_3 1_555 1_555
O5_3 C1_3 1_555 1_555
Cd8_2 O4_3 1_555 1_555
Cd11 O5_3 1_555 1_555
C10_3 C14_3 1_555 1_555
C12_3 C20_3 1_555 1_555
C13_3 C18_3 1_555 1_555
C15_3 C19_3 1_555 1_555
C30_3 C31_3 1_555 1_555
C31_3 C41_3 1_555 1_555
O14_3 C30_3 1_555 1_555
C34_3 H17_3 1_555 1_555
C36_3 N2_3 1_555 1_555
C39_3 C34_3 1_555 1_555
H19_3 C39_3 1_555 1_555
C41_3 H21_3 1_555 1_555
C42_3 C31_3 1_555 1_555
H22_3 C42_3 1_555 1_555
C43_3 N2_3 1_555 1_555
C47_3 C36_3 1_555 1_555
H26_3 C47_3 1_555 1_555
C48_3 C43_3 1_555 1_555
H27_3 C48_3 1_555 1_555
C49_3 C36_3 1_555 1_555
H28_3 C49_3 1_555 1_555
O15_3 C30_3 1_555 1_555
Cd6_3 O14_3 1_555 1_555
Cd10 O15_3 1_555 1_555
C39_3 C43_3 1_555 1_555
C41_3 C49_3 1_555 1_555
C42_3 C47_3 1_555 1_555
C44_3 C48_3 1_555 1_555
O18 C21_3 1_555 1_555
O24_3 C21_3 1_555 1_555
C21_3 C4_3 1_555 1_555
O17_3 C37_3 1_555 1_555
O12_3 Cd5 1_555 1_555
C32_3 C37_3 1_555 1_555
C35_3 C38_3 1_555 1_555
C37_3 O12_3 1_555 1_555
C38_3 H18_3 1_555 1_555
C40_3 C32_3 1_555 1_555
H20_3 C40_3 1_555 1_555
C45_3 C32_3 1_555 1_555
H24_3 C45_3 1_555 1_555
C46_3 C35_3 1_555 1_555
H25_3 C46_3 1_555 1_555
O20_3 Cd5 1_555 1_555
O25_3 Cd5 1_555 1_555
O26_3 Cd5 1_555 1_555
C38_3 C40_3 1_555 1_555
C45_3 C46_3 1_555 1_555
Cd5_2 O1_3 1_555 1_555
Cd9_2 O1_3 1_555 1_555
O1_3 C8_4 1_555 1_555
C1_4 C2_4 1_555 1_555
O2_4 Cd5_2 1_555 1_555
N1_4 C6_4 1_555 1_555
C2_4 C12_4 1_555 1_555
O19_2 C21_4 1_555 1_555
O4_4 C1_4 1_555 1_555
C3_4 C8_4 1_555 1_555
C4_4 C5_4 1_555 1_555
C5_4 H1_4 1_555 1_555
C6_4 C9_4 1_555 1_555
C7_4 N1_4 1_555 1_555
C8_4 O2_4 1_555 1_555
C9_4 H2_4 1_555 1_555
C10_4 C5_4 1_555 1_555
H3_4 C10_4 1_555 1_555
C11_4 C3_4 1_555 1_555
H4_4 C11_4 1_555 1_555
C12_4 H5_4 1_555 1_555
C13_4 C2_4 1_555 1_555
H6_4 C13_4 1_555 1_555
C14_4 N1_4 1_555 1_555
C15_4 C4_4 1_555 1_555
H7_4 C15_4 1_555 1_555
C16_4 C3_4 1_555 1_555
H8_4 C16_4 1_555 1_555
C17_4 C6_4 1_555 1_555
H9_4 C17_4 1_555 1_555
C18_4 C7_4 1_555 1_555
H10_4 C18_4 1_555 1_555
C19_4 C14_4 1_555 1_555
H11_4 C19_4 1_555 1_555
C20_4 C7_4 1_555 1_555
H12_4 C20_4 1_555 1_555
O5_4 C1_4 1_555 1_555
O24_2 C21_4 1_555 1_555
C21_4 C4_4 1_555 1_555
C22_5 O7_4 1_555 1_555
O7_4 Cd5_2 1_555 1_555
C23_5 C22_5 1_555 1_555
O8_4 Cd5_2 1_555 1_555
C24_5 C23_5 1_555 1_555
H13_5 C24_5 1_555 1_555
C25_5 C23_5 1_555 1_555
H14_5 C25_5 1_555 1_555
C26_5 O9_5 1_555 1_555
O9_5 Cd6_3 1_555 1_555
C27_5 C26_5 1_555 1_555
O10_5 C26_5 1_555 1_555
C28_5 C24_5 1_555 1_555
H15_5 C28_5 1_555 1_555
C29_5 C25_5 1_555 1_555
H16_5 C29_5 1_555 1_555
O17_2 C37_4 1_555 1_555
C30_4 C31_4 1_555 1_555
O12_4 Cd4_2 1_555 1_555
N2_4 C35_4 1_555 1_555
C31_4 C41_4 1_555 1_555
O18_2 C50_4 1_555 1_555
O14_4 C30_4 1_555 1_555
C32_4 C37_4 1_555 1_555
C33_4 C34_4 1_555 1_555
C34_4 H17_4 1_555 1_555
C35_4 C38_4 1_555 1_555
C36_4 N2_4 1_555 1_555
C37_4 O12_4 1_555 1_555
C38_4 H18_4 1_555 1_555
C39_4 C34_4 1_555 1_555
H19_4 C39_4 1_555 1_555
C40_4 C32_4 1_555 1_555
H20_4 C40_4 1_555 1_555
C41_4 H21_4 1_555 1_555
C42_4 C31_4 1_555 1_555
H22_4 C42_4 1_555 1_555
C43_4 N2_4 1_555 1_555
C44_4 C33_4 1_555 1_555
H23_4 C44_4 1_555 1_555
C45_4 C32_4 1_555 1_555
H24_4 C45_4 1_555 1_555
C46_4 C35_4 1_555 1_555
H25_4 C46_4 1_555 1_555
C47_4 C36_4 1_555 1_555
H26_4 C47_4 1_555 1_555
C48_4 C43_4 1_555 1_555
H27_4 C48_4 1_555 1_555
C49_4 C36_4 1_555 1_555
H28_4 C49_4 1_555 1_555
O15_4 C30_4 1_555 1_555
O16_3 Cd9_2 1_555 1_555
C50_4 C33_4 1_555 1_555
Cd7_2 O14_4 1_555 1_555
Cd6_3 O10_5 1_555 1_555
Cd8_3 O4_4 1_555 1_555
Cd11_2 O15_4 1_555 1_555
Cd10_2 O5_4 1_555 1_555
O20_4 Cd4_2 1_555 1_555
O21_4 Cd5_2 1_555 1_555
O22_4 Cd9_2 1_555 1_555
O23_4 Cd9_2 1_555 1_555
O25_4 Cd4_2 1_555 1_555
O26_4 Cd4_2 1_555 1_555
C9_4 C11_4 1_555 1_555
C10_4 C14_4 1_555 1_555
C12_4 C20_4 1_555 1_555
C13_4 C18_4 1_555 1_555
C15_4 C19_4 1_555 1_555
C16_4 C17_4 1_555 1_555
C22_5 O8_4 1_555 1_555
C27_5 C28_5 1_555 1_555
C27_5 C29_5 1_555 1_555
C38_4 C40_4 1_555 1_555
C39_4 C43_4 1_555 1_555
C41_4 C49_4 1_555 1_555
C42_4 C47_4 1_555 1_555
C44_4 C48_4 1_555 1_555
C45_4 C46_4 1_555 1_555
O16_3 C50_4 1_555 1_555
C22_6 O25_3 1_555 1_555
C23_6 C22_6 1_555 1_555
C24_6 C23_6 1_555 1_555
H13_6 C24_6 1_555 1_555
C25_6 C23_6 1_555 1_555
H14_6 C25_6 1_555 1_555
C26_6 O9_6 1_555 1_555
O9_6 Cd8_3 1_555 1_555
C27_6 C26_6 1_555 1_555
O10_6 C26_6 1_555 1_555
C28_6 C24_6 1_555 1_555
H15_6 C28_6 1_555 1_555
C29_6 C25_6 1_555 1_555
H16_6 C29_6 1_555 1_555
Cd8_3 O10_6 1_555 1_555
C22_6 O26_3 1_555 1_555
C27_6 C28_6 1_555 1_555
C27_6 C29_6 1_555 1_555
C22_7 O25_4 1_555 1_555
C23_7 C22_7 1_555 1_555
C24_7 C23_7 1_555 1_555
H13_7 C24_7 1_555 1_555
C25_7 C23_7 1_555 1_555
H14_7 C25_7 1_555 1_555
C26_7 O9_7 1_555 1_555
O9_7 Cd8_2 1_555 1_555
C27_7 C26_7 1_555 1_555
O10_7 C26_7 1_555 1_555
C28_7 C24_7 1_555 1_555
H15_7 C28_7 1_555 1_555
C29_7 C25_7 1_555 1_555
H16_7 C29_7 1_555 1_555
Cd8_2 O10_7 1_555 1_555
C22_7 O26_4 1_555 1_555
C27_7 C28_7 1_555 1_555
C27_7 C29_7 1_555 1_555
C26_8 O9_8 1_555 1_555
O9_8 Cd6 1_555 1_555
C27_8 C26_8 1_555 1_555
O10_8 C26_8 1_555 1_555
H15_8 C28_8 1_555 1_555
H16_8 C29_8 1_555 1_555
Cd6 O10_8 1_555 1_555
C27_8 C28_8 1_555 1_555
C27_8 C29_8 1_555 1_555
C22_8 O25_2 1_555 1_555
C23_8 C22_8 1_555 1_555
C24_8 C23_8 1_555 1_555
H13_8 C24_8 1_555 1_555
C25_8 C23_8 1_555 1_555
H14_8 C25_8 1_555 1_555
C22_8 O26_2 1_555 1_555
O3_3 C21_5 1_555 1_555
O6_3 C21_5 1_555 1_555
C21_5 C4_5 1_555 1_555
Cd7 O11_3 1_555 1_555
O11_3 C37_5 1_555 1_555
C30_5 C31_5 1_555 1_555
O12_5 Cd7 1_555 1_555
N2_5 C35_5 1_555 1_555
C31_5 C41_5 1_555 1_555
O21_2 C30_5 1_555 1_555
C32_5 C37_5 1_555 1_555
C34_5 H17_5 1_555 1_555
C35_5 C38_5 1_555 1_555
C36_5 N2_5 1_555 1_555
C37_5 O12_5 1_555 1_555
C38_5 H18_5 1_555 1_555
C39_5 C34_5 1_555 1_555
H19_5 C39_5 1_555 1_555
C40_5 C32_5 1_555 1_555
H20_5 C40_5 1_555 1_555
C41_5 H21_5 1_555 1_555
C42_5 C31_5 1_555 1_555
H22_5 C42_5 1_555 1_555
C43_5 N2_5 1_555 1_555
C45_5 C32_5 1_555 1_555
H24_5 C45_5 1_555 1_555
C46_5 C35_5 1_555 1_555
H25_5 C46_5 1_555 1_555
C47_5 C36_5 1_555 1_555
H26_5 C47_5 1_555 1_555
C48_5 C43_5 1_555 1_555
H27_5 C48_5 1_555 1_555
C49_5 C36_5 1_555 1_555
H28_5 C49_5 1_555 1_555
O23_2 C30_5 1_555 1_555
Cd7_2 O3_3 1_555 1_555
Cd11_2 O6_3 1_555 1_555
O18_3 Cd7 1_555 1_555
O11_3 Cd11_2 1_555 1_555
C38_5 C40_5 1_555 1_555
C39_5 C43_5 1_555 1_555
C41_5 C49_5 1_555 1_555
C42_5 C47_5 1_555 1_555
C44_5 C48_5 1_555 1_555
C45_5 C46_5 1_555 1_555
Cd6_2 O1_4 1_555 1_555
Cd10_2 O1_4 1_555 1_555
O1_4 C8_5 1_555 1_555
C1_5 C2_5 1_555 1_555
O2_5 Cd6_2 1_555 1_555
N1_5 C6_5 1_555 1_555
C2_5 C12_5 1_555 1_555
O20_2 C1_5 1_555 1_555
C3_5 C8_5 1_555 1_555
C5_5 H1_5 1_555 1_555
C6_5 C9_5 1_555 1_555
C7_5 N1_5 1_555 1_555
C8_5 O2_5 1_555 1_555
C9_5 H2_5 1_555 1_555
C10_5 C5_5 1_555 1_555
H3_5 C10_5 1_555 1_555
C11_5 C3_5 1_555 1_555
H4_5 C11_5 1_555 1_555
C12_5 H5_5 1_555 1_555
C13_5 C2_5 1_555 1_555
H6_5 C13_5 1_555 1_555
C14_5 N1_5 1_555 1_555
C16_5 C3_5 1_555 1_555
H8_5 C16_5 1_555 1_555
C17_5 C6_5 1_555 1_555
H9_5 C17_5 1_555 1_555
C18_5 C7_5 1_555 1_555
H10_5 C18_5 1_555 1_555
C19_5 C14_5 1_555 1_555
H11_5 C19_5 1_555 1_555
C20_5 C7_5 1_555 1_555
H12_5 C20_5 1_555 1_555
O22_4 C1_5 1_555 1_555
O13_3 C50_5 1_555 1_555
O16_4 Cd10_2 1_555 1_555
C50_5 C33_5 1_555 1_555
Cd8_3 O13_3 1_555 1_555
O17_4 Cd10_2 1_555 1_555
O19_3 Cd6_2 1_555 1_555
O24_4 Cd10_2 1_555 1_555
C9_5 C11_5 1_555 1_555
C10_5 C14_5 1_555 1_555
C12_5 C20_5 1_555 1_555
C13_5 C18_5 1_555 1_555
C15_5 C19_5 1_555 1_555
C16_5 C17_5 1_555 1_555
O16_4 C50_5 1_555 1_555
Cd8_3 O17_4 1_555 1_555
Cd6 O1_5 1_555 1_555
Cd10 O1_5 1_555 1_555
O1_5 C8_6 1_555 1_555
O2_6 Cd6 1_555 1_555
C3_6 C8_6 1_555 1_555
C6_6 C9_6 1_555 1_555
C8_6 O2_6 1_555 1_555
C9_6 H2_6 1_555 1_555
C11_6 C3_6 1_555 1_555
H4_6 C11_6 1_555 1_555
C16_6 C3_6 1_555 1_555
H8_6 C16_6 1_555 1_555
C17_6 C6_6 1_555 1_555
H9_6 C17_6 1_555 1_555
C30_6 C31_6 1_555 1_555
C31_6 C41_6 1_555 1_555
O13_4 C50_6 1_555 1_555
O21 C30_6 1_555 1_555
C33_6 C34_6 1_555 1_555
C34_6 H17_6 1_555 1_555
C36_6 N2_6 1_555 1_555
C39_6 C34_6 1_555 1_555
H19_6 C39_6 1_555 1_555
C41_6 H21_6 1_555 1_555
C42_6 C31_6 1_555 1_555
H22_6 C42_6 1_555 1_555
C43_6 N2_6 1_555 1_555
C44_6 C33_6 1_555 1_555
H23_6 C44_6 1_555 1_555
C47_6 C36_6 1_555 1_555
H26_6 C47_6 1_555 1_555
C48_6 C43_6 1_555 1_555
H27_6 C48_6 1_555 1_555
C49_6 C36_6 1_555 1_555
H28_6 C49_6 1_555 1_555
O23 C30_6 1_555 1_555
O16_5 Cd10 1_555 1_555
C50_6 C33_6 1_555 1_555
Cd6_3 O13_4 1_555 1_555
O17_5 Cd10 1_555 1_555
O19_4 Cd6 1_555 1_555
O24_5 Cd10 1_555 1_555
C9_6 C11_6 1_555 1_555
C16_6 C17_6 1_555 1_555
C39_6 C43_6 1_555 1_555
C41_6 C49_6 1_555 1_555
C42_6 C47_6 1_555 1_555
C44_6 C48_6 1_555 1_555
O16_5 C50_6 1_555 1_555
Cd6_3 O17_5 1_555 1_555
C1_6 C2_6 1_555 1_555
C2_6 C12_6 1_555 1_555
O3_4 C21_6 1_555 1_555
O20 C1_6 1_555 1_555
C4_6 C5_6 1_555 1_555
C5_6 H1_6 1_555 1_555
C7_6 N1_6 1_555 1_555
C10_6 C5_6 1_555 1_555
H3_6 C10_6 1_555 1_555
C12_6 H5_6 1_555 1_555
C13_6 C2_6 1_555 1_555
H6_6 C13_6 1_555 1_555
C14_6 N1_6 1_555 1_555
C15_6 C4_6 1_555 1_555
H7_6 C15_6 1_555 1_555
C18_6 C7_6 1_555 1_555
H10_6 C18_6 1_555 1_555
C19_6 C14_6 1_555 1_555
H11_6 C19_6 1_555 1_555
C20_6 C7_6 1_555 1_555
H12_6 C20_6 1_555 1_555
O23_3 C1_6 1_555 1_555
O6_4 C21_6 1_555 1_555
C21_6 C4_6 1_555 1_555
Cd8 O11_4 1_555 1_555
O11_4 C37_6 1_555 1_555
O12_6 Cd8 1_555 1_555
C32_6 C37_6 1_555 1_555
C35_6 C38_6 1_555 1_555
C37_6 O12_6 1_555 1_555
C38_6 H18_6 1_555 1_555
C40_6 C32_6 1_555 1_555
H20_6 C40_6 1_555 1_555
C45_6 C32_6 1_555 1_555
H24_6 C45_6 1_555 1_555
C46_6 C35_6 1_555 1_555
H25_6 C46_6 1_555 1_555
Cd8_2 O3_4 1_555 1_555
Cd11 O6_4 1_555 1_555
O18_4 Cd8 1_555 1_555
C10_6 C14_6 1_555 1_555
C12_6 C20_6 1_555 1_555
C13_6 C18_6 1_555 1_555
C15_6 C19_6 1_555 1_555
O11_4 Cd11 1_555 1_555
C38_6 C40_6 1_555 1_555
C45_6 C46_6 1_555 1_555
O17_6 Cd11_2 1_555 1_555
O24_6 Cd11_2 1_555 1_555
Cd7_2 O17_6 1_555 1_555
O18_3 C21_7 1_555 1_555
O24_6 C21_7 1_555 1_555
C21_7 C4_7 1_555 1_555
O17_6 C37_7 1_555 1_555
O12_7 Cd7_2 1_555 1_555
C32_7 C37_7 1_555 1_555
C35_7 C38_7 1_555 1_555
C37_7 O12_7 1_555 1_555
C38_7 H18_7 1_555 1_555
C40_7 C32_7 1_555 1_555
H20_7 C40_7 1_555 1_555
C45_7 C32_7 1_555 1_555
H24_7 C45_7 1_555 1_555
C46_7 C35_7 1_555 1_555
H25_7 C46_7 1_555 1_555
C38_7 C40_7 1_555 1_555
C45_7 C46_7 1_555 1_555
C30_7 C31_7 1_555 1_555
C31_7 C41_7 1_555 1_555
O20_4 C30_7 1_555 1_555
C34_7 H17_7 1_555 1_555
C36_7 N2_7 1_555 1_555
C39_7 C34_7 1_555 1_555
H19_7 C39_7 1_555 1_555
C41_7 H21_7 1_555 1_555
C42_7 C31_7 1_555 1_555
H22_7 C42_7 1_555 1_555
C43_7 N2_7 1_555 1_555
C47_7 C36_7 1_555 1_555
H26_7 C47_7 1_555 1_555
C48_7 C43_7 1_555 1_555
H27_7 C48_7 1_555 1_555
C49_7 C36_7 1_555 1_555
H28_7 C49_7 1_555 1_555
O22_2 C30_7 1_555 1_555
C39_7 C43_7 1_555 1_555
C41_7 C49_7 1_555 1_555
C42_7 C47_7 1_555 1_555
C44_7 C48_7 1_555 1_555
C1_7 C2_7 1_555 1_555
C2_7 C12_7 1_555 1_555
O21_4 C1_7 1_555 1_555
C5_7 H1_7 1_555 1_555
C7_7 N1_7 1_555 1_555
C10_7 C5_7 1_555 1_555
H3_7 C10_7 1_555 1_555
C12_7 H5_7 1_555 1_555
C13_7 C2_7 1_555 1_555
H6_7 C13_7 1_555 1_555
C14_7 N1_7 1_555 1_555
C18_7 C7_7 1_555 1_555
H10_7 C18_7 1_555 1_555
C19_7 C14_7 1_555 1_555
H11_7 C19_7 1_555 1_555
C20_7 C7_7 1_555 1_555
H12_7 C20_7 1_555 1_555
O23_4 C1_7 1_555 1_555
C10_7 C14_7 1_555 1_555
C12_7 C20_7 1_555 1_555
C13_7 C18_7 1_555 1_555
C15_7 C19_7 1_555 1_555
O17_4 C8_7 1_555 1_555
O2_7 Cd8_3 1_555 1_555
C3_7 C8_7 1_555 1_555
C6_7 C9_7 1_555 1_555
C8_7 O2_7 1_555 1_555
C9_7 H2_7 1_555 1_555
C11_7 C3_7 1_555 1_555
H4_7 C11_7 1_555 1_555
C16_7 C3_7 1_555 1_555
H8_7 C16_7 1_555 1_555
C17_7 C6_7 1_555 1_555
H9_7 C17_7 1_555 1_555
O19_3 C50_7 1_555 1_555
C50_7 C33_7 1_555 1_555
C9_7 C11_7 1_555 1_555
C16_7 C17_7 1_555 1_555
O24_4 C50_7 1_555 1_555
Cd8_2 O1_6 1_555 1_555
Cd11 O1_6 1_555 1_555
O1_6 C8_8 1_555 1_555
C1_8 C2_8 1_555 1_555
O2_8 Cd8_2 1_555 1_555
N1_8 C6_8 1_555 1_555
C2_8 C12_8 1_555 1_555
O19_4 C21_8 1_555 1_555
O21_3 C1_8 1_555 1_555
C3_8 C8_8 1_555 1_555
C4_8 C5_8 1_555 1_555
C5_8 H1_8 1_555 1_555
C6_8 C9_8 1_555 1_555
C7_8 N1_8 1_555 1_555
C8_8 O2_8 1_555 1_555
C9_8 H2_8 1_555 1_555
C10_8 C5_8 1_555 1_555
H3_8 C10_8 1_555 1_555
C11_8 C3_8 1_555 1_555
H4_8 C11_8 1_555 1_555
C12_8 H5_8 1_555 1_555
C13_8 C2_8 1_555 1_555
H6_8 C13_8 1_555 1_555
C14_8 N1_8 1_555 1_555
C15_8 C4_8 1_555 1_555
H7_8 C15_8 1_555 1_555
C16_8 C3_8 1_555 1_555
H8_8 C16_8 1_555 1_555
C17_8 C6_8 1_555 1_555
H9_8 C17_8 1_555 1_555
C18_8 C7_8 1_555 1_555
H10_8 C18_8 1_555 1_555
C19_8 C14_8 1_555 1_555
H11_8 C19_8 1_555 1_555
C20_8 C7_8 1_555 1_555
H12_8 C20_8 1_555 1_555
O22 C1_8 1_555 1_555
O24_5 C21_8 1_555 1_555
C21_8 C4_8 1_555 1_555
O17_5 C37_8 1_555 1_555
C30_8 C31_8 1_555 1_555
O12_8 Cd6_3 1_555 1_555
N2_8 C35_8 1_555 1_555
C31_8 C41_8 1_555 1_555
O18_4 C50_8 1_555 1_555
O20_3 C30_8 1_555 1_555
C32_8 C37_8 1_555 1_555
C33_8 C34_8 1_555 1_555
C34_8 H17_8 1_555 1_555
C35_8 C38_8 1_555 1_555
C36_8 N2_8 1_555 1_555
C37_8 O12_8 1_555 1_555
C38_8 H18_8 1_555 1_555
C39_8 C34_8 1_555 1_555
H19_8 C39_8 1_555 1_555
C40_8 C32_8 1_555 1_555
H20_8 C40_8 1_555 1_555
C41_8 H21_8 1_555 1_555
C42_8 C31_8 1_555 1_555
H22_8 C42_8 1_555 1_555
C43_8 N2_8 1_555 1_555
C44_8 C33_8 1_555 1_555
H23_8 C44_8 1_555 1_555
C45_8 C32_8 1_555 1_555
H24_8 C45_8 1_555 1_555
C46_8 C35_8 1_555 1_555
H25_8 C46_8 1_555 1_555
C47_8 C36_8 1_555 1_555
H26_8 C47_8 1_555 1_555
C48_8 C43_8 1_555 1_555
H27_8 C48_8 1_555 1_555
C49_8 C36_8 1_555 1_555
H28_8 C49_8 1_555 1_555
O22_3 C30_8 1_555 1_555
O16_6 Cd11 1_555 1_555
C50_8 C33_8 1_555 1_555
C9_8 C11_8 1_555 1_555
C10_8 C14_8 1_555 1_555
C12_8 C20_8 1_555 1_555
C13_8 C18_8 1_555 1_555
C15_8 C19_8 1_555 1_555
C16_8 C17_8 1_555 1_555
C38_8 C40_8 1_555 1_555
C39_8 C43_8 1_555 1_555
C41_8 C49_8 1_555 1_555
C42_8 C47_8 1_555 1_555
C44_8 C48_8 1_555 1_555
C45_8 C46_8 1_555 1_555
O16_6 C50_8 1_555 1_555

#END
