
###############################################################################
#
# This file contains modified crystal structure data generated from the
# MOF subset of the Cambridge Structural Database (CSD) v543 
# hosted by the Cambridge Crystallographic Data Centre (CCDC).
#
# This work is licensed under the Creative Commons
# Attribution-NonCommercial-ShareAlike 4.0 International License.
# To view a copy of this license, visit
# http://creativecommons.org/licenses/by-nc-sa/4.0/
# or send a letter to
# Creative Commons, PO Box 1866, Mountain View, CA 94042, USA.
#
# CIF created using the CSD Python API on 29 September 2022
# The structure has been converted into the P1 space group
# The structure has a 3D framework
# The original CSD entry JIXWUJ02 is in the monoclinic crystal system
# The framework has been calculated to contain at least 10.0% void space
# The void calculation uses a probe of radius 1.32A, grid spacing 0.4
#
###############################################################################

data_JIXWUJ02
_chemical_formula_moiety         '(C24 H24 Mn20 O47)n'
_symmetry_cell_setting           triclinic
_symmetry_space_group_name_H-M   'P 1'
_symmetry_Int_Tables_number      1
_space_group_name_Hall           'P 1'
loop_
_symmetry_equiv_pos_site_id
_symmetry_equiv_pos_as_xyz
1 x,y,z
_cell_length_a                   11.6575(14)
_cell_length_b                   10.1053(11)
_cell_length_c                   14.8790(16)
_cell_angle_alpha                90
_cell_angle_beta                 91.633(3)
_cell_angle_gamma                90
_cell_volume                     1752.07
loop_
_atom_site_label
_atom_site_type_symbol
_atom_site_fract_x
_atom_site_fract_y
_atom_site_fract_z
Mn1 Mn -0.0000 0.5000 0.0000
O11 O 0.0129(2) 0.6116(2) 0.12341(17)
Mn5 Mn 0.5000 0.5000 0.0000
O34 O 0.1538(2) 0.3926(2) 0.03776(17)
C12 C 0.2588(2) 0.3972(3) 0.0322(2)
H11 H 0.3081 0.3358 0.0727
Mn1_2 Mn -0.0000 0.5000 1.0000
Mn4 Mn 0.24317(4) 0.58462(4) 0.86883(3)
O1 O 0.09858(18) 0.6626(2) 0.93979(14)
O7 O 0.10660(19) 0.8796(2) 0.90936(14)
C5 C 0.0654(2) 0.7823(3) 0.9473(2)
H1 H 0.0188 0.7822 0.9777
Mn5_2 Mn 0.5000 0.5000 1.0000
Mn6 Mn 0.26053(4) 0.40056(4) 0.68491(3)
Mn7 Mn 0.23947(4) 0.90056(4) 0.81509(3)
O14 O 0.31388(18) 0.4712(2) 0.97843(13)
O16 O 0.14835(18) 0.4240(2) 0.80250(13)
O18 O 0.37296(18) 0.5019(2) 0.78040(13)
O21 O 0.19174(18) 0.7081(2) 0.75249(13)
O22 O 0.30826(18) 0.2081(2) 0.74751(13)
O25 O 0.39340(19) 0.3796(2) 0.59064(14)
O28 O 0.34653(18) 0.7633(2) 0.89315(13)
O29 O 0.15347(18) 0.2633(2) 0.60685(13)
O32 O 0.1842(2) 0.5753(2) 0.63167(14)
C7 C 0.0523(2) 0.3690(3) 0.8140(2)
H12 H 0.0206 0.3183 0.7681
Mn9 Mn 0.76053(4) 0.09944(4) 0.18491(3)
Mn1_3 Mn 1.0000 0.5000 0.0000
Mn3 Mn 0.73947(4) 0.59944(4) 0.31509(3)
O2 O 0.68612(18) 0.5288(2) 0.02157(13)
O3 O 0.85165(18) 0.5760(2) 0.19750(13)
O4 O 0.62704(18) 0.4981(2) 0.21960(13)
O5 O 0.5190(2) 0.2876(2) 0.00203(16)
O6 O 0.69174(18) 0.7919(2) 0.25249(13)
O8 O 0.65347(18) 0.2367(2) 0.10685(13)
O9 O 0.46123(19) 0.4977(2) 0.14117(14)
O10 O 0.6842(2) 0.9247(2) 0.13167(14)
C1 C 0.9477(2) 0.6310(3) 0.1860(2)
C2 C 0.6694(2) 0.8172(3) 0.1700(2)
C3 C 0.5735(2) 0.2081(3) 0.0495(2)
C4 C 0.5186(2) 0.5092(3) 0.2117(2)
H2 H 0.5540 0.1131 0.0421
H3 H 0.6457 0.7490 0.1344
H4 H 0.4781 0.5130 0.2704
H6 H 0.9794 0.6817 0.2319
Mn12 Mn 0.75683(4) 0.41538(4) 0.13117(3)
Mn13 Mn 0.74317(4) 0.91538(4) 0.36883(3)
O13 O 0.90142(18) 0.3374(2) 0.06021(14)
O20 O 0.80826(18) 0.2919(2) 0.24751(13)
O23 O 0.89340(19) 0.1204(2) 0.09064(14)
O24 O 0.60660(19) 0.6204(2) 0.40936(14)
O27 O 0.84653(18) 0.7367(2) 0.39315(13)
O31 O 0.8158(2) 0.4247(2) 0.36833(14)
C8 C 0.8306(2) 0.3172(3) 0.3300(2)
C11 C 0.9346(2) 0.2177(3) 0.0527(2)
H7 H 0.9812 0.2178 0.0223
H9 H 0.8543 0.2490 0.3656
Mn1_4 Mn 1.0000 0.5000 1.0000
O12 O 0.8462(2) 0.6074(2) 0.96224(17)
C6 C 0.7412(2) 0.6028(3) 0.9678(2)
H5 H 0.6919 0.6642 0.9273
O19 O 0.4810(2) 0.7124(2) 0.99797(16)
O30 O 0.53877(19) 0.5023(2) 0.85883(14)
O33 O 0.9871(2) 0.3884(2) 0.87659(17)
C9 C 0.4265(2) 0.7919(3) 0.9505(2)
C10 C 0.4814(2) 0.4908(3) 0.7883(2)
H8 H 0.4460 0.8869 0.9579
H10 H 0.5219 0.4870 0.7296
Mn2 Mn 0.0000 -0.0000 0.5000
H4_2 H 0.0219 0.0130 0.2296
Mn14 Mn 0.25683(4) 0.08462(4) 0.63117(3)
O17 O 0.12704(18) 0.0019(2) 0.71960(13)
O19_2 O 0.0190(2) 0.2124(2) 0.50203(16)
C9_2 C 0.0735(2) 0.2919(3) 0.5495(2)
H8_2 H 0.0540 0.3869 0.5421
Mn2_2 Mn 0.0000 1.0000 0.5000
O9_2 O 0.03877(19) 0.9977(2) 0.35883(14)
O15 O 0.18612(18) 0.9712(2) 0.52157(13)
C10_2 C 0.0186(2) 0.9908(3) 0.7117(2)
Mn1_5 Mn 0.5000 -0.0000 0.5000
Mn2_3 Mn 1.0000 -0.0000 0.5000
O1_2 O 0.40142(18) 0.1626(2) 0.56021(14)
O2_2 O 0.81388(18) 0.0288(2) 0.47843(13)
O3_2 O 0.64835(18) 0.0760(2) 0.30250(13)
O11_2 O 0.4871(2) 0.1116(2) 0.37659(17)
O12_2 O 0.6538(2) 0.1074(2) 0.53776(17)
C1_2 C 0.5523(2) 0.1310(3) 0.3140(2)
C4_2 C 0.9814(2) 0.0092(3) 0.2883(2)
C5_2 C 0.4346(2) 0.2823(3) 0.5527(2)
C6_2 C 0.7588(2) 0.1028(3) 0.5322(2)
H1_2 H 0.4812 0.2822 0.5223
H5_2 H 0.8081 0.1642 0.5727
H6_2 H 0.5206 0.1817 0.2681
O30_2 O 0.96123(19) 0.0023(2) 0.64117(14)
O32_2 O 0.3158(2) 0.0753(2) 0.86833(14)
Mn1_6 Mn 0.5000 1.0000 0.5000
Mn2_4 Mn 1.0000 1.0000 0.5000
O4_2 O 0.87296(18) 0.9981(2) 0.28040(13)
O5_2 O 0.9810(2) 0.7876(2) 0.49797(16)
C3_2 C 0.9265(2) 0.7081(3) 0.4505(2)
H2_2 H 0.9460 0.6131 0.4579
O13_2 O 0.59858(18) 0.8374(2) 0.43979(14)
O16_2 O 0.35165(18) 0.9240(2) 0.69750(13)
O33_2 O 0.5129(2) 0.8884(2) 0.62341(17)
O34_2 O 0.3462(2) 0.8926(2) 0.46224(17)
C7_2 C 0.4477(2) 0.8690(3) 0.6860(2)
C11_2 C 0.5654(2) 0.7177(3) 0.4473(2)
C12_2 C 0.2412(2) 0.8972(3) 0.4678(2)
H7_2 H 0.5188 0.7178 0.4777
H10_2 H 0.9781 0.9870 0.7704
H11_2 H 0.1919 0.8358 0.4273
H12_2 H 0.4794 0.8183 0.7319
C2_2 C 0.3306(2) 0.1828(3) 0.8300(2)
H3_2 H 0.3543 0.2510 0.8656
C8_2 C 0.1694(2) 0.6828(3) 0.6700(2)
H9_2 H 0.1457 0.7510 0.6344
loop_
_geom_bond_atom_site_label_1
_geom_bond_atom_site_label_2
_geom_bond_site_symmetry_1
_geom_bond_site_symmetry_2
O11 Mn1 1_555 1_555
O34 Mn1 1_555 1_555
H11 C12 1_555 1_555
O34 C12 1_555 1_555
Mn1_2 O1 1_555 1_555
Mn4 O1 1_555 1_555
O1 C5 1_555 1_555
O7 C5 1_555 1_555
C5 H1 1_555 1_555
Mn5_2 O14 1_555 1_555
Mn6 O16 1_555 1_555
Mn7 O7 1_555 1_555
O14 Mn4 1_555 1_555
O16 Mn4 1_555 1_555
O18 Mn4 1_555 1_555
O21 Mn4 1_555 1_555
O22 Mn6 1_555 1_555
O25 Mn6 1_555 1_555
O28 Mn4 1_555 1_555
O29 Mn6 1_555 1_555
O32 Mn6 1_555 1_555
C7 O16 1_555 1_555
H12 C7 1_555 1_555
Mn6 O18 1_555 1_555
Mn7 O21 1_555 1_555
Mn7 O28 1_555 1_555
Mn5 O2 1_555 1_555
Mn3 O3 1_555 1_555
O3 C1 1_555 1_555
O4 Mn3 1_555 1_555
O5 Mn5 1_555 1_555
O6 Mn3 1_555 1_555
O8 C3 1_555 1_555
O9 Mn5 1_555 1_555
O10 C2 1_555 1_555
C2 O6 1_555 1_555
C3 O5 1_555 1_555
C4 O4 1_555 1_555
H2 C3 1_555 1_555
H3 C2 1_555 1_555
H4 C4 1_555 1_555
H6 C1 1_555 1_555
Mn9 O8 1_555 1_555
Mn12 O2 1_555 1_555
Mn13 O6 1_555 1_555
O13 Mn1_3 1_555 1_555
O20 Mn9 1_555 1_555
O23 Mn9 1_555 1_555
O24 Mn3 1_555 1_555
O27 Mn3 1_555 1_555
O31 Mn3 1_555 1_555
C8 O20 1_555 1_555
C11 O13 1_555 1_555
H7 C11 1_555 1_555
H9 C8 1_555 1_555
O3 Mn12 1_555 1_555
O4 Mn12 1_555 1_555
O8 Mn12 1_555 1_555
O9 C4 1_555 1_555
Mn12 O13 1_555 1_555
Mn12 O20 1_555 1_555
Mn13 O27 1_555 1_555
O23 C11 1_555 1_555
O31 C8 1_555 1_555
O12 Mn1_4 1_555 1_555
C6 O12 1_555 1_555
H5 C6 1_555 1_555
O19 Mn5_2 1_555 1_555
O30 Mn5_2 1_555 1_555
O33 Mn1_4 1_555 1_555
C9 O19 1_555 1_555
C10 O18 1_555 1_555
H8 C9 1_555 1_555
H10 C10 1_555 1_555
O28 C9 1_555 1_555
O30 C10 1_555 1_555
O17 Mn14 1_555 1_555
O19_2 Mn2 1_555 1_555
O29 Mn14 1_555 1_555
C9_2 O19_2 1_555 1_555
H8_2 C9_2 1_555 1_555
O29 C9_2 1_555 1_555
O9_2 Mn2_2 1_555 1_555
O15 Mn2_2 1_555 1_555
Mn1_5 O1_2 1_555 1_555
Mn2_3 O2_2 1_555 1_555
Mn9 O3_2 1_555 1_555
Mn14 O1_2 1_555 1_555
O1_2 C5_2 1_555 1_555
O2_2 C6_2 1_555 1_555
O3_2 C1_2 1_555 1_555
O25 C5_2 1_555 1_555
O11_2 Mn1_5 1_555 1_555
O12_2 Mn1_5 1_555 1_555
C1_2 O11_2 1_555 1_555
C5_2 H1_2 1_555 1_555
C6_2 O12_2 1_555 1_555
H5_2 C6_2 1_555 1_555
H6_2 C1_2 1_555 1_555
O22 Mn14 1_555 1_555
O30_2 Mn2_3 1_555 1_555
O5_2 Mn2_4 1_555 1_555
O27 C3_2 1_555 1_555
C3_2 O5_2 1_555 1_555
H2_2 C3_2 1_555 1_555
Mn7 O16_2 1_555 1_555
O13_2 Mn1_6 1_555 1_555
O33_2 Mn1_6 1_555 1_555
O34_2 Mn1_6 1_555 1_555
C7_2 O16_2 1_555 1_555
C11_2 O13_2 1_555 1_555
C12_2 O15 1_555 1_555
H7_2 C11_2 1_555 1_555
H11_2 C12_2 1_555 1_555
H12_2 C7_2 1_555 1_555
O4_2 Mn13 1_555 1_555
Mn13 O13_2 1_555 1_555
O24 C11_2 1_555 1_555
O33_2 C7_2 1_555 1_555
O34_2 C12_2 1_555 1_555
O32_2 C2_2 1_555 1_555
C2_2 O22 1_555 1_555
H3_2 C2_2 1_555 1_555
C8_2 O21 1_555 1_555
H9_2 C8_2 1_555 1_555
O32 C8_2 1_555 1_555

#END
