
###############################################################################
#
# This file contains modified crystal structure data generated from the
# MOF subset of the Cambridge Structural Database (CSD) v543 
# hosted by the Cambridge Crystallographic Data Centre (CCDC).
#
# This work is licensed under the Creative Commons
# Attribution-NonCommercial-ShareAlike 4.0 International License.
# To view a copy of this license, visit
# http://creativecommons.org/licenses/by-nc-sa/4.0/
# or send a letter to
# Creative Commons, PO Box 1866, Mountain View, CA 94042, USA.
#
# CIF created using the CSD Python API on 29 September 2022
# The structure has been converted into the P1 space group
# The structure has a 3D framework
# The original CSD entry JIYSUI is in the orthorhombic crystal system
# The framework has been calculated to contain at least 10.0% void space
# The void calculation uses a probe of radius 1.32A, grid spacing 0.4
# H atom positions have been added when not included in the experimental data
#
###############################################################################

data_JIYSUI
_chemical_formula_moiety         '(C512 H288 Cd8 N32 O120)n'
_symmetry_cell_setting           triclinic
_symmetry_space_group_name_H-M   'P 1'
_symmetry_Int_Tables_number      1
_space_group_name_Hall           'P 1'
loop_
_symmetry_equiv_pos_site_id
_symmetry_equiv_pos_as_xyz
1 x,y,z
_cell_length_a                   12.850(4)
_cell_length_b                   18.906(6)
_cell_length_c                   61.98(3)
_cell_angle_alpha                90
_cell_angle_beta                 90
_cell_angle_gamma                90
_cell_volume                     15057.6
loop_
_atom_site_label
_atom_site_type_symbol
_atom_site_fract_x
_atom_site_fract_y
_atom_site_fract_z
Cd1 Cd 0.3750 0.8750 0.65445(2)
O1 O 0.46360(13) 0.58625(10) 0.41964(3)
O2 O 0.53770(13) 0.68094(9) 0.43371(3)
O3 O 0.28475(13) 0.81659(9) 0.62908(2)
O4 O 0.43241(13) 0.75928(10) 0.62494(3)
N1 N 0.22474(13) 0.65033(9) 0.52400(2)
C1 C 0.46935(19) 0.63453(13) 0.43388(3)
C2 C 0.34257(17) 0.77420(11) 0.61902(3)
C3 C 0.29932(16) 0.74078(11) 0.59893(3)
C4 C 0.36480(16) 0.71177(13) 0.58349(4)
H1 H 0.4365 0.7132 0.5855
C5 C 0.32459(16) 0.68071(13) 0.56505(3)
H2 H 0.3693 0.6623 0.5547
C6 C 0.21810(15) 0.67692(10) 0.56201(3)
C7 C 0.17295(15) 0.64305(10) 0.54257(3)
C8 C 0.17830(15) 0.63313(10) 0.50533(3)
C9 C 0.24891(16) 0.63316(11) 0.48629(3)
C10 C 0.33308(18) 0.67922(12) 0.48606(3)
H3 H 0.3431 0.7100 0.4976
C11 C 0.40221(18) 0.68003(12) 0.46899(4)
H4 H 0.4574 0.7119 0.4690
C12 C 0.39006(17) 0.63394(12) 0.45186(3)
C13 C 0.3073(2) 0.58733(13) 0.45209(3)
H5 H 0.2988 0.5558 0.4407
C14 C 0.23681(19) 0.58674(13) 0.46903(4)
H6 H 0.1812 0.5552 0.4689
C15 C 0.15277(15) 0.70759(10) 0.57725(3)
H7 H 0.0811 0.7064 0.5752
C16 C 0.19277(16) 0.73966(11) 0.59536(3)
H8 H 0.1481 0.7607 0.6053
N2 N 0.02526(13) 0.59967(9) 0.52400(2)
C22 C 0.03190(15) 0.57308(10) 0.56201(3)
C23 C 0.07705(15) 0.60695(10) 0.54257(3)
C24 C 0.07170(15) 0.61687(10) 0.50533(3)
C25 C 0.00109(16) 0.61684(11) 0.48629(3)
C30 C 0.01319(19) 0.66326(13) 0.46903(4)
H14 H 0.0688 0.6948 0.4689
C31 C 0.09723(15) 0.54241(10) 0.57725(3)
H15 H 0.1689 0.5436 0.5752
C32 C 0.05723(16) 0.51034(11) 0.59536(3)
H16 H 0.1019 0.4893 0.6053
Cd4 Cd 0.6250 0.6250 0.40445(2)
O9 O 0.53640(13) 0.83625(10) 0.66964(3)
O10 O 0.21360(13) 0.91375(10) 0.66964(3)
O11 O 0.46230(13) 0.93094(9) 0.68371(3)
O12 O 0.28770(13) 0.81906(9) 0.68371(3)
O13 O 0.46525(13) 0.93341(9) 0.62908(2)
O5 O 0.78640(13) 0.66375(10) 0.41964(3)
O6 O 0.71230(13) 0.56906(9) 0.43371(3)
O7 O 0.96525(13) 0.43341(9) 0.62908(2)
O8 O 0.81759(13) 0.49072(10) 0.62494(3)
C17 C 0.78065(19) 0.61547(13) 0.43388(3)
C18 C 0.90743(17) 0.47580(11) 0.61902(3)
C19 C 0.95068(16) 0.50922(11) 0.59893(3)
C20 C 0.88520(16) 0.53823(13) 0.58349(4)
H9 H 0.8135 0.5368 0.5855
C21 C 0.92541(16) 0.56929(13) 0.56505(3)
H10 H 0.8807 0.5877 0.5547
C26 C 0.91692(18) 0.57078(12) 0.48606(3)
H11 H 0.9069 0.5400 0.4976
C27 C 0.84779(18) 0.56997(12) 0.46899(4)
H12 H 0.7926 0.5381 0.4690
C28 C 0.85994(17) 0.61606(12) 0.45186(3)
C29 C 0.9427(2) 0.66267(13) 0.45209(3)
H13 H 0.9512 0.6942 0.4407
Cd2 Cd 0.8750 0.3750 0.65445(2)
H17 H 0.81993 0.511996 0.63958
O10_2 O 0.03640(13) 0.33625(10) 0.66964(3)
H17_2 H 0.43007 0.738004 0.63958
O9_2 O 0.71360(13) 0.41375(10) 0.66964(3)
O11_2 O 0.78770(13) 0.31906(9) 0.68371(3)
O12_2 O 0.96230(13) 0.43094(9) 0.68371(3)
O13_2 O 0.78475(13) 0.31659(9) 0.62908(2)
Cd1_2 Cd 0.3750 0.3750 0.15445(2)
O3_2 O 0.28475(13) 0.31659(9) 0.12908(2)
O4_2 O 0.43241(13) 0.25928(10) 0.12494(3)
N1_2 N 0.22474(13) 0.15033(9) 0.02400(2)
C2_2 C 0.34257(17) 0.27420(11) 0.11902(3)
C3_2 C 0.29932(16) 0.24078(11) 0.09893(3)
C4_2 C 0.36480(16) 0.21177(13) 0.08349(4)
H1_2 H 0.4365 0.2132 0.0855
C5_2 C 0.32459(16) 0.18071(13) 0.06505(3)
H2_2 H 0.3693 0.1623 0.0547
C6_2 C 0.21810(15) 0.17692(10) 0.06201(3)
C7_2 C 0.17295(15) 0.14305(10) 0.04257(3)
C8_2 C 0.17830(15) 0.13313(10) 0.00533(3)
C15_2 C 0.15277(15) 0.20759(10) 0.07725(3)
H7_2 H 0.0811 0.2064 0.0752
C16_2 C 0.19277(16) 0.23966(11) 0.09536(3)
H8_2 H 0.1481 0.2607 0.1053
N2_2 N 0.02526(13) 0.09967(9) 0.02400(2)
C22_2 C 0.03190(15) 0.07308(10) 0.06201(3)
C23_2 C 0.07705(15) 0.10695(10) 0.04257(3)
C24_2 C 0.07170(15) 0.11687(10) 0.00533(3)
C31_2 C 0.09723(15) 0.04241(10) 0.07725(3)
H15_2 H 0.1689 0.0436 0.0752
C32_2 C 0.05723(16) 0.01034(11) 0.09536(3)
O9_3 O 0.53640(13) 0.33625(10) 0.16964(3)
O10_3 O 0.21360(13) 0.41375(10) 0.16964(3)
O11_3 O 0.46230(13) 0.43094(9) 0.18371(3)
O12_3 O 0.28770(13) 0.31906(9) 0.18371(3)
O13_3 O 0.46525(13) 0.43341(9) 0.12908(2)
O1_2 O 0.46360(13) 0.08625(10) 0.91964(3)
O2_2 O 0.53770(13) 0.18094(9) 0.93371(3)
C1_2 C 0.46935(19) 0.13453(13) 0.93388(3)
C9_2 C 0.24891(16) 0.13316(11) 0.98629(3)
C10_2 C 0.33308(18) 0.17922(12) 0.98606(3)
H3_2 H 0.3431 0.2100 0.9976
C11_2 C 0.40221(18) 0.18003(12) 0.96899(4)
H4_2 H 0.4574 0.2119 0.9690
C12_2 C 0.39006(17) 0.13394(12) 0.95186(3)
C13_2 C 0.3073(2) 0.08733(13) 0.95209(3)
H5_2 H 0.2988 0.0558 0.9407
C14_2 C 0.23681(19) 0.08674(13) 0.96903(4)
H6_2 H 0.1812 0.0552 0.9689
C25_2 C 0.00109(16) 0.11684(11) 0.98629(3)
C30_2 C 0.01319(19) 0.16326(13) 0.96903(4)
H14_2 H 0.0688 0.1948 0.9689
Cd4_2 Cd 0.6250 0.1250 0.90445(2)
H16_2 H 0.1019 0.9893 0.1053
O5_2 O 0.78640(13) 0.16375(10) 0.91964(3)
O6_2 O 0.71230(13) 0.06906(9) 0.93371(3)
C17_2 C 0.78065(19) 0.11547(13) 0.93388(3)
C26_2 C 0.91692(18) 0.07078(12) 0.98606(3)
H11_2 H 0.9069 0.0400 0.9976
C27_2 C 0.84779(18) 0.06997(12) 0.96899(4)
H12_2 H 0.7926 0.0381 0.9690
C28_2 C 0.85994(17) 0.11606(12) 0.95186(3)
C29_2 C 0.9427(2) 0.16267(13) 0.95209(3)
H13_2 H 0.9512 0.1942 0.9407
O7_2 O 0.96525(13) 0.93341(9) 0.12908(2)
O8_2 O 0.81759(13) 0.99072(10) 0.12494(3)
C18_2 C 0.90743(17) 0.97580(11) 0.11902(3)
Cd2_2 Cd 0.8750 0.8750 0.15445(2)
H17_3 H 0.43007 0.238004 0.13958
O10_4 O 0.03640(13) 0.83625(10) 0.16964(3)
O9_4 O 0.71360(13) 0.91375(10) 0.16964(3)
O11_4 O 0.78770(13) 0.81906(9) 0.18371(3)
O12_4 O 0.96230(13) 0.93094(9) 0.18371(3)
O13_4 O 0.78475(13) 0.81659(9) 0.12908(2)
O2_3 O 0.03770(13) 0.68094(9) 0.93371(3)
Cd4_3 Cd 0.1250 0.6250 0.90445(2)
O4_3 O 0.93241(13) 0.75928(10) 0.12494(3)
N1_3 N 0.72474(13) 0.65033(9) 0.02400(2)
C2_3 C 0.84257(17) 0.77420(11) 0.11902(3)
C3_3 C 0.79932(16) 0.74078(11) 0.09893(3)
C4_3 C 0.86480(16) 0.71177(13) 0.08349(4)
H1_3 H 0.9365 0.7132 0.0855
C5_3 C 0.82459(16) 0.68071(13) 0.06505(3)
H2_3 H 0.8693 0.6623 0.0547
C6_3 C 0.71810(15) 0.67692(10) 0.06201(3)
C7_3 C 0.67295(15) 0.64305(10) 0.04257(3)
C8_3 C 0.67830(15) 0.63313(10) 0.00533(3)
C15_3 C 0.65277(15) 0.70759(10) 0.07725(3)
H7_3 H 0.5811 0.7064 0.0752
C16_3 C 0.69277(16) 0.73966(11) 0.09536(3)
H8_3 H 0.6481 0.7607 0.1053
O8_3 O 0.31759(13) 0.49072(10) 0.12494(3)
N2_3 N 0.52526(13) 0.59967(9) 0.02400(2)
C18_3 C 0.40743(17) 0.47580(11) 0.11902(3)
C19_2 C 0.45068(16) 0.50922(11) 0.09893(3)
C20_2 C 0.38520(16) 0.53823(13) 0.08349(4)
H9_2 H 0.3135 0.5368 0.0855
C21_2 C 0.42541(16) 0.56929(13) 0.06505(3)
H10_2 H 0.3807 0.5877 0.0547
C22_3 C 0.53190(15) 0.57308(10) 0.06201(3)
C23_3 C 0.57705(15) 0.60695(10) 0.04257(3)
C24_3 C 0.57170(15) 0.61687(10) 0.00533(3)
C31_3 C 0.59723(15) 0.54241(10) 0.07725(3)
H15_3 H 0.6689 0.5436 0.0752
C32_3 C 0.55723(16) 0.51034(11) 0.09536(3)
H16_3 H 0.6019 0.4893 0.1053
H17_4 H 0.31993 0.511996 0.13958
O1_3 O 0.96360(13) 0.58625(10) 0.91964(3)
C1_3 C 0.96935(19) 0.63453(13) 0.93388(3)
C9_3 C 0.74891(16) 0.63316(11) 0.98629(3)
C10_3 C 0.83308(18) 0.67922(12) 0.98606(3)
H3_3 H 0.8431 0.7100 0.9976
C11_3 C 0.90221(18) 0.68003(12) 0.96899(4)
H4_3 H 0.9574 0.7119 0.9690
C12_3 C 0.89006(17) 0.63394(12) 0.95186(3)
C13_3 C 0.8073(2) 0.58733(13) 0.95209(3)
H5_3 H 0.7988 0.5558 0.9407
C14_3 C 0.73681(19) 0.58674(13) 0.96903(4)
H6_3 H 0.6812 0.5552 0.9689
O5_3 O 0.28640(13) 0.66375(10) 0.91964(3)
O6_3 O 0.21230(13) 0.56906(9) 0.93371(3)
C17_3 C 0.28065(19) 0.61547(13) 0.93388(3)
C25_3 C 0.50109(16) 0.61684(11) 0.98629(3)
C26_3 C 0.41692(18) 0.57078(12) 0.98606(3)
H11_3 H 0.4069 0.5400 0.9976
C27_3 C 0.34779(18) 0.56997(12) 0.96899(4)
H12_3 H 0.2926 0.5381 0.9690
C28_3 C 0.35994(17) 0.61606(12) 0.95186(3)
C29_3 C 0.4427(2) 0.66267(13) 0.95209(3)
H13_3 H 0.4512 0.6942 0.9407
C30_3 C 0.51319(19) 0.66326(13) 0.96903(4)
H14_3 H 0.5688 0.6948 0.9689
H17_5 H 0.93007 0.738004 0.13958
O2_4 O 0.03770(13) 0.18094(9) 0.43371(3)
Cd4_4 Cd 0.1250 0.1250 0.40445(2)
O1_4 O 0.96360(13) 0.08625(10) 0.41964(3)
O4_4 O 0.93241(13) 0.25928(10) 0.62494(3)
N1_4 N 0.72474(13) 0.15033(9) 0.52400(2)
C1_4 C 0.96935(19) 0.13453(13) 0.43388(3)
C2_4 C 0.84257(17) 0.27420(11) 0.61902(3)
C3_4 C 0.79932(16) 0.24078(11) 0.59893(3)
C4_4 C 0.86480(16) 0.21177(13) 0.58349(4)
H1_4 H 0.9365 0.2132 0.5855
C5_4 C 0.82459(16) 0.18071(13) 0.56505(3)
H2_4 H 0.8693 0.1623 0.5547
C6_4 C 0.71810(15) 0.17692(10) 0.56201(3)
C7_4 C 0.67295(15) 0.14305(10) 0.54257(3)
C8_4 C 0.67830(15) 0.13313(10) 0.50533(3)
C9_4 C 0.74891(16) 0.13316(11) 0.48629(3)
C10_4 C 0.83308(18) 0.17922(12) 0.48606(3)
H3_4 H 0.8431 0.2100 0.4976
C11_4 C 0.90221(18) 0.18003(12) 0.46899(4)
H4_4 H 0.9574 0.2119 0.4690
C12_4 C 0.89006(17) 0.13394(12) 0.45186(3)
C13_4 C 0.8073(2) 0.08733(13) 0.45209(3)
H5_4 H 0.7988 0.0558 0.4407
C14_4 C 0.73681(19) 0.08674(13) 0.46903(4)
H6_4 H 0.6812 0.0552 0.4689
C15_4 C 0.65277(15) 0.20759(10) 0.57725(3)
H7_4 H 0.5811 0.2064 0.5752
C16_4 C 0.69277(16) 0.23966(11) 0.59536(3)
H8_4 H 0.6481 0.2607 0.6053
O5_4 O 0.28640(13) 0.16375(10) 0.41964(3)
O6_4 O 0.21230(13) 0.06906(9) 0.43371(3)
N2_4 N 0.52526(13) 0.09967(9) 0.52400(2)
C17_4 C 0.28065(19) 0.11547(13) 0.43388(3)
C19_3 C 0.45068(16) 0.00922(11) 0.59893(3)
C20_3 C 0.38520(16) 0.03823(13) 0.58349(4)
H9_3 H 0.3135 0.0368 0.5855
C21_3 C 0.42541(16) 0.06929(13) 0.56505(3)
H10_3 H 0.3807 0.0877 0.5547
C22_4 C 0.53190(15) 0.07308(10) 0.56201(3)
C23_4 C 0.57705(15) 0.10695(10) 0.54257(3)
C24_4 C 0.57170(15) 0.11687(10) 0.50533(3)
C25_4 C 0.50109(16) 0.11684(11) 0.48629(3)
C26_4 C 0.41692(18) 0.07078(12) 0.48606(3)
H11_4 H 0.4069 0.0400 0.4976
C27_4 C 0.34779(18) 0.06997(12) 0.46899(4)
H12_4 H 0.2926 0.0381 0.4690
C28_4 C 0.35994(17) 0.11606(12) 0.45186(3)
C29_4 C 0.4427(2) 0.16267(13) 0.45209(3)
H13_4 H 0.4512 0.1942 0.4407
C30_4 C 0.51319(19) 0.16326(13) 0.46903(4)
H14_4 H 0.5688 0.1948 0.4689
C31_4 C 0.59723(15) 0.04241(10) 0.57725(3)
H15_4 H 0.6689 0.0436 0.5752
C32_4 C 0.55723(16) 0.01034(11) 0.59536(3)
H17_6 H 0.31993 0.011996 0.63958
O8_4 O 0.31759(13) 0.99072(10) 0.62494(3)
C18_4 C 0.40743(17) 0.97580(11) 0.61902(3)
H16_4 H 0.6019 0.9893 0.6053
H17_7 H 0.93007 0.238004 0.63958
O7_3 O 0.03475(13) 0.18341(9) 0.37908(2)
O8_5 O 0.18241(13) 0.24072(10) 0.37494(3)
C17_5 C 0.21935(19) 0.36547(13) 0.18388(3)
C18_5 C 0.09257(17) 0.22580(11) 0.36902(3)
C19_4 C 0.04932(16) 0.25922(11) 0.34893(3)
C20_4 C 0.11480(16) 0.28823(13) 0.33349(4)
H9_4 H 0.1865 0.2868 0.3355
C21_4 C 0.07459(16) 0.31929(13) 0.31505(3)
H10_4 H 0.1193 0.3377 0.3047
C26_5 C 0.08308(18) 0.32078(12) 0.23606(3)
H11_5 H 0.0931 0.2900 0.2476
C27_5 C 0.15221(18) 0.31997(12) 0.21899(4)
H12_5 H 0.2074 0.2881 0.2190
C28_5 C 0.14006(17) 0.36606(12) 0.20186(3)
C29_5 C 0.0573(2) 0.41267(13) 0.20209(3)
H13_5 H 0.0488 0.4442 0.1907
H17_8 H 0.18007 0.261996 0.38958
O3_3 O 0.71525(13) 0.56659(9) 0.37908(2)
O4_5 O 0.56759(13) 0.50928(10) 0.37494(3)
N1_5 N 0.77526(13) 0.40033(9) 0.27400(2)
C1_5 C 0.53065(19) 0.38453(13) 0.18388(3)
C2_5 C 0.65743(17) 0.52420(11) 0.36902(3)
C3_5 C 0.70068(16) 0.49078(11) 0.34893(3)
C4_5 C 0.63520(16) 0.46177(13) 0.33349(4)
H1_5 H 0.5635 0.4632 0.3355
C5_5 C 0.67541(16) 0.43071(13) 0.31505(3)
H2_5 H 0.6307 0.4123 0.3047
C6_5 C 0.78190(15) 0.42692(10) 0.31201(3)
C7_5 C 0.82705(15) 0.39305(10) 0.29257(3)
C8_5 C 0.82170(15) 0.38313(10) 0.25533(3)
C9_5 C 0.75109(16) 0.38316(11) 0.23629(3)
C10_5 C 0.66692(18) 0.42922(12) 0.23606(3)
H3_5 H 0.6569 0.4600 0.2476
C11_5 C 0.59779(18) 0.43003(12) 0.21899(4)
H4_5 H 0.5426 0.4619 0.2190
C12_5 C 0.60994(17) 0.38394(12) 0.20186(3)
C13_5 C 0.6927(2) 0.33733(13) 0.20209(3)
H5_5 H 0.7012 0.3058 0.1907
C14_5 C 0.76319(19) 0.33674(13) 0.21903(4)
H6_5 H 0.8188 0.3052 0.2189
C15_5 C 0.84723(15) 0.45759(10) 0.32725(3)
H7_5 H 0.9189 0.4564 0.3252
C16_5 C 0.80723(16) 0.48966(11) 0.34536(3)
H8_5 H 0.8519 0.5107 0.3553
N2_5 N 0.97474(13) 0.34967(9) 0.27400(2)
C22_5 C 0.96810(15) 0.32308(10) 0.31201(3)
C23_5 C 0.92295(15) 0.35695(10) 0.29257(3)
C24_5 C 0.92830(15) 0.36687(10) 0.25533(3)
C25_5 C 0.99891(16) 0.36684(11) 0.23629(3)
C30_5 C 0.98681(19) 0.41326(13) 0.21903(4)
H14_5 H 0.9312 0.4448 0.2189
C31_5 C 0.90277(15) 0.29241(10) 0.32725(3)
H15_5 H 0.8311 0.2936 0.3252
C32_5 C 0.94277(16) 0.26034(11) 0.34536(3)
H16_5 H 0.8981 0.2393 0.3553
O13_5 O 0.53475(13) 0.68341(9) 0.37908(2)
O13_6 O 0.21525(13) 0.06659(9) 0.37908(2)
H17_9 H 0.56993 0.488004 0.38958
O7_4 O 0.03475(13) 0.68341(9) 0.87908(2)
O8_6 O 0.18241(13) 0.74072(10) 0.87494(3)
C17_6 C 0.21935(19) 0.86547(13) 0.68388(3)
C18_6 C 0.09257(17) 0.72580(11) 0.86902(3)
C19_5 C 0.04932(16) 0.75922(11) 0.84893(3)
C20_5 C 0.11480(16) 0.78823(13) 0.83349(4)
H9_5 H 0.1865 0.7868 0.8355
C21_5 C 0.07459(16) 0.81929(13) 0.81505(3)
H10_5 H 0.1193 0.8377 0.8047
C26_6 C 0.08308(18) 0.82078(12) 0.73606(3)
H11_6 H 0.0931 0.7900 0.7476
C27_6 C 0.15221(18) 0.81997(12) 0.71899(4)
H12_6 H 0.2074 0.7881 0.7190
C28_6 C 0.14006(17) 0.86606(12) 0.70186(3)
C29_6 C 0.0573(2) 0.91267(13) 0.70209(3)
H13_6 H 0.0488 0.9442 0.6907
H17_10 H 0.18007 0.761996 0.88958
O3_4 O 0.71525(13) 0.06659(9) 0.87908(2)
O4_6 O 0.56759(13) 0.00928(10) 0.87494(3)
C2_6 C 0.65743(17) 0.02420(11) 0.86902(3)
H8_6 H 0.8519 0.0107 0.8553
O13_7 O 0.53475(13) 0.18341(9) 0.87908(2)
N1_6 N 0.77526(13) 0.90033(9) 0.77400(2)
C1_6 C 0.53065(19) 0.88453(13) 0.68388(3)
C3_6 C 0.70068(16) 0.99078(11) 0.84893(3)
C4_6 C 0.63520(16) 0.96177(13) 0.83349(4)
H1_6 H 0.5635 0.9632 0.8355
C5_6 C 0.67541(16) 0.93071(13) 0.81505(3)
H2_6 H 0.6307 0.9123 0.8047
C6_6 C 0.78190(15) 0.92692(10) 0.81201(3)
C7_6 C 0.82705(15) 0.89305(10) 0.79257(3)
C8_6 C 0.82170(15) 0.88313(10) 0.75533(3)
C9_6 C 0.75109(16) 0.88316(11) 0.73629(3)
C10_6 C 0.66692(18) 0.92922(12) 0.73606(3)
H3_6 H 0.6569 0.9600 0.7476
C11_6 C 0.59779(18) 0.93003(12) 0.71899(4)
H4_6 H 0.5426 0.9619 0.7190
C12_6 C 0.60994(17) 0.88394(12) 0.70186(3)
C13_6 C 0.6927(2) 0.83733(13) 0.70209(3)
H5_6 H 0.7012 0.8058 0.6907
C14_6 C 0.76319(19) 0.83674(13) 0.71903(4)
H6_6 H 0.8188 0.8052 0.7189
C15_6 C 0.84723(15) 0.95759(10) 0.82725(3)
H7_6 H 0.9189 0.9564 0.8252
C16_6 C 0.80723(16) 0.98966(11) 0.84536(3)
N2_6 N 0.97474(13) 0.84967(9) 0.77400(2)
C22_6 C 0.96810(15) 0.82308(10) 0.81201(3)
C23_6 C 0.92295(15) 0.85695(10) 0.79257(3)
C24_6 C 0.92830(15) 0.86687(10) 0.75533(3)
C25_6 C 0.99891(16) 0.86684(11) 0.73629(3)
C30_6 C 0.98681(19) 0.91326(13) 0.71903(4)
H14_6 H 0.9312 0.9448 0.7189
C31_6 C 0.90277(15) 0.79241(10) 0.82725(3)
H15_6 H 0.8311 0.7936 0.8252
C32_6 C 0.94277(16) 0.76034(11) 0.84536(3)
H16_6 H 0.8981 0.7393 0.8553
O13_8 O 0.21525(13) 0.56659(9) 0.87908(2)
H17_11 H 0.56993 0.988004 0.88958
O4_7 O 0.06759(13) 0.50928(10) 0.87494(3)
N1_7 N 0.27526(13) 0.40033(9) 0.77400(2)
C1_7 C 0.03065(19) 0.38453(13) 0.68388(3)
C2_7 C 0.15743(17) 0.52420(11) 0.86902(3)
C3_7 C 0.20068(16) 0.49078(11) 0.84893(3)
C4_7 C 0.13520(16) 0.46177(13) 0.83349(4)
H1_7 H 0.0635 0.4632 0.8355
C5_7 C 0.17541(16) 0.43071(13) 0.81505(3)
H2_7 H 0.1307 0.4123 0.8047
C6_7 C 0.28190(15) 0.42692(10) 0.81201(3)
C7_7 C 0.32705(15) 0.39305(10) 0.79257(3)
C8_7 C 0.32170(15) 0.38313(10) 0.75533(3)
C9_7 C 0.25109(16) 0.38316(11) 0.73629(3)
C10_7 C 0.16692(18) 0.42922(12) 0.73606(3)
H3_7 H 0.1569 0.4600 0.7476
C11_7 C 0.09779(18) 0.43003(12) 0.71899(4)
H4_7 H 0.0426 0.4619 0.7190
C12_7 C 0.10994(17) 0.38394(12) 0.70186(3)
C13_7 C 0.1927(2) 0.33733(13) 0.70209(3)
H5_7 H 0.2012 0.3058 0.6907
C14_7 C 0.26319(19) 0.33674(13) 0.71903(4)
H6_7 H 0.3188 0.3052 0.7189
C15_7 C 0.34723(15) 0.45759(10) 0.82725(3)
H7_7 H 0.4189 0.4564 0.8252
C16_7 C 0.30723(16) 0.48966(11) 0.84536(3)
H8_7 H 0.3519 0.5107 0.8553
O8_7 O 0.68241(13) 0.24072(10) 0.87494(3)
N2_7 N 0.47474(13) 0.34967(9) 0.77400(2)
C17_7 C 0.71935(19) 0.36547(13) 0.68388(3)
C18_7 C 0.59257(17) 0.22580(11) 0.86902(3)
C19_6 C 0.54932(16) 0.25922(11) 0.84893(3)
C20_6 C 0.61480(16) 0.28823(13) 0.83349(4)
H9_6 H 0.6865 0.2868 0.8355
C21_6 C 0.57459(16) 0.31929(13) 0.81505(3)
H10_6 H 0.6193 0.3377 0.8047
C22_7 C 0.46810(15) 0.32308(10) 0.81201(3)
C23_7 C 0.42295(15) 0.35695(10) 0.79257(3)
C24_7 C 0.42830(15) 0.36687(10) 0.75533(3)
C25_7 C 0.49891(16) 0.36684(11) 0.73629(3)
C26_7 C 0.58308(18) 0.32078(12) 0.73606(3)
H11_7 H 0.5931 0.2900 0.7476
C27_7 C 0.65221(18) 0.31997(12) 0.71899(4)
H12_7 H 0.7074 0.2881 0.7190
C28_7 C 0.64006(17) 0.36606(12) 0.70186(3)
C29_7 C 0.5573(2) 0.41267(13) 0.70209(3)
H13_7 H 0.5488 0.4442 0.6907
C30_7 C 0.48681(19) 0.41326(13) 0.71903(4)
H14_7 H 0.4312 0.4448 0.7189
C31_7 C 0.40277(15) 0.29241(10) 0.82725(3)
H15_7 H 0.3311 0.2936 0.8252
C32_7 C 0.44277(16) 0.26034(11) 0.84536(3)
H16_7 H 0.3981 0.2393 0.8553
H17_12 H 0.68007 0.261996 0.88958
H17_13 H 0.0699303 0.488004 0.88958
O4_8 O 0.06759(13) 0.00928(10) 0.37494(3)
C2_8 C 0.15743(17) 0.02420(11) 0.36902(3)
H8_8 H 0.3519 0.0107 0.3553
N1_8 N 0.27526(13) 0.90033(9) 0.27400(2)
C1_8 C 0.03065(19) 0.88453(13) 0.18388(3)
C3_8 C 0.20068(16) 0.99078(11) 0.34893(3)
C4_8 C 0.13520(16) 0.96177(13) 0.33349(4)
H1_8 H 0.0635 0.9632 0.3355
C5_8 C 0.17541(16) 0.93071(13) 0.31505(3)
H2_8 H 0.1307 0.9123 0.3047
C6_8 C 0.28190(15) 0.92692(10) 0.31201(3)
C7_8 C 0.32705(15) 0.89305(10) 0.29257(3)
C8_8 C 0.32170(15) 0.88313(10) 0.25533(3)
C9_8 C 0.25109(16) 0.88316(11) 0.23629(3)
C10_8 C 0.16692(18) 0.92922(12) 0.23606(3)
H3_8 H 0.1569 0.9600 0.2476
C11_8 C 0.09779(18) 0.93003(12) 0.21899(4)
H4_8 H 0.0426 0.9619 0.2190
C12_8 C 0.10994(17) 0.88394(12) 0.20186(3)
C13_8 C 0.1927(2) 0.83733(13) 0.20209(3)
H5_8 H 0.2012 0.8058 0.1907
C14_8 C 0.26319(19) 0.83674(13) 0.21903(4)
H6_8 H 0.3188 0.8052 0.2189
C15_8 C 0.34723(15) 0.95759(10) 0.32725(3)
H7_8 H 0.4189 0.9564 0.3252
C16_8 C 0.30723(16) 0.98966(11) 0.34536(3)
O8_8 O 0.68241(13) 0.74072(10) 0.37494(3)
N2_8 N 0.47474(13) 0.84967(9) 0.27400(2)
C17_8 C 0.71935(19) 0.86547(13) 0.18388(3)
C18_8 C 0.59257(17) 0.72580(11) 0.36902(3)
C19_7 C 0.54932(16) 0.75922(11) 0.34893(3)
C20_7 C 0.61480(16) 0.78823(13) 0.33349(4)
H9_7 H 0.6865 0.7868 0.3355
C21_7 C 0.57459(16) 0.81929(13) 0.31505(3)
H10_7 H 0.6193 0.8377 0.3047
C22_8 C 0.46810(15) 0.82308(10) 0.31201(3)
C23_8 C 0.42295(15) 0.85695(10) 0.29257(3)
C24_8 C 0.42830(15) 0.86687(10) 0.25533(3)
C25_8 C 0.49891(16) 0.86684(11) 0.23629(3)
C26_8 C 0.58308(18) 0.82078(12) 0.23606(3)
H11_8 H 0.5931 0.7900 0.2476
C27_8 C 0.65221(18) 0.81997(12) 0.21899(4)
H12_8 H 0.7074 0.7881 0.2190
C28_8 C 0.64006(17) 0.86606(12) 0.20186(3)
C29_8 C 0.5573(2) 0.91267(13) 0.20209(3)
H13_8 H 0.5488 0.9442 0.1907
C30_8 C 0.48681(19) 0.91326(13) 0.21903(4)
H14_8 H 0.4312 0.9448 0.2189
C31_8 C 0.40277(15) 0.79241(10) 0.32725(3)
H15_8 H 0.3311 0.7936 0.3252
C32_8 C 0.44277(16) 0.76034(11) 0.34536(3)
H16_8 H 0.3981 0.7393 0.3553
H17_14 H 0.68007 0.761996 0.38958
H17_15 H 0.0699303 0.988004 0.38958
Cd1_3 Cd 0.3750 0.3750 0.59555(2)
O1_5 O 0.46360(13) 0.66375(10) 0.83036(3)
O2_5 O 0.53770(13) 0.56906(9) 0.81629(3)
O3_5 O 0.28475(13) 0.43341(9) 0.62092(2)
O4_9 O 0.43241(13) 0.49072(10) 0.62506(3)
N1_9 N 0.22474(13) 0.59967(9) 0.72600(2)
C1_9 C 0.46935(19) 0.61547(13) 0.81612(3)
C2_9 C 0.34257(17) 0.47580(11) 0.63098(3)
C3_9 C 0.29932(16) 0.50922(11) 0.65107(3)
C4_9 C 0.36480(16) 0.53823(13) 0.66651(4)
H1_9 H 0.4365 0.5368 0.6645
C5_9 C 0.32459(16) 0.56929(13) 0.68495(3)
H2_9 H 0.3693 0.5877 0.6953
C6_9 C 0.21810(15) 0.57308(10) 0.68799(3)
C7_9 C 0.17295(15) 0.60695(10) 0.70743(3)
C8_9 C 0.17830(15) 0.61687(10) 0.74467(3)
C9_9 C 0.24891(16) 0.61684(11) 0.76371(3)
C10_9 C 0.33308(18) 0.57078(12) 0.76394(3)
H3_9 H 0.3431 0.5400 0.7524
C11_9 C 0.40221(18) 0.56997(12) 0.78101(4)
H4_9 H 0.4574 0.5381 0.7810
C12_9 C 0.39006(17) 0.61606(12) 0.79814(3)
C13_9 C 0.3073(2) 0.66267(13) 0.79791(3)
H5_9 H 0.2988 0.6942 0.8093
C14_9 C 0.23681(19) 0.66326(13) 0.78097(4)
H6_9 H 0.1812 0.6948 0.7811
C15_9 C 0.15277(15) 0.54241(10) 0.67275(3)
H7_9 H 0.0811 0.5436 0.6748
C16_9 C 0.19277(16) 0.51034(11) 0.65464(3)
H8_9 H 0.1481 0.4893 0.6447
N2_9 N 0.02526(13) 0.65033(9) 0.72600(2)
C22_9 C 0.03190(15) 0.67692(10) 0.68799(3)
C23_9 C 0.07705(15) 0.64305(10) 0.70743(3)
C24_9 C 0.07170(15) 0.63313(10) 0.74467(3)
C25_9 C 0.00109(16) 0.63316(11) 0.76371(3)
C30_9 C 0.01319(19) 0.58674(13) 0.78097(4)
H14_9 H 0.0688 0.5552 0.7811
C31_9 C 0.09723(15) 0.70759(10) 0.67275(3)
H15_9 H 0.1689 0.7064 0.6748
C32_9 C 0.05723(16) 0.73966(11) 0.65464(3)
H16_9 H 0.1019 0.7607 0.6447
Cd4_5 Cd 0.6250 0.6250 0.84555(2)
O9_5 O 0.53640(13) 0.41375(10) 0.58036(3)
O10_5 O 0.21360(13) 0.33625(10) 0.58036(3)
O11_5 O 0.46230(13) 0.31906(9) 0.56629(3)
O12_5 O 0.28770(13) 0.43094(9) 0.56629(3)
O13_9 O 0.46525(13) 0.31659(9) 0.62092(2)
O5_5 O 0.78640(13) 0.58625(10) 0.83036(3)
O6_5 O 0.71230(13) 0.68094(9) 0.81629(3)
O7_5 O 0.96525(13) 0.81659(9) 0.62092(2)
O8_9 O 0.81759(13) 0.75928(10) 0.62506(3)
C17_9 C 0.78065(19) 0.63453(13) 0.81612(3)
C18_9 C 0.90743(17) 0.77420(11) 0.63098(3)
C19_8 C 0.95068(16) 0.74078(11) 0.65107(3)
C20_8 C 0.88520(16) 0.71177(13) 0.66651(4)
H9_8 H 0.8135 0.7132 0.6645
C21_8 C 0.92541(16) 0.68071(13) 0.68495(3)
H10_8 H 0.8807 0.6623 0.6953
C26_9 C 0.91692(18) 0.67922(12) 0.76394(3)
H11_9 H 0.9069 0.7100 0.7524
C27_9 C 0.84779(18) 0.68003(12) 0.78101(4)
H12_9 H 0.7926 0.7119 0.7810
C28_9 C 0.85994(17) 0.63394(12) 0.79814(3)
C29_9 C 0.9427(2) 0.58733(13) 0.79791(3)
H13_9 H 0.9512 0.5558 0.8093
Cd2_3 Cd 0.8750 0.8750 0.59555(2)
H17_16 H 0.81993 0.738004 0.61042
O10_6 O 0.03640(13) 0.91375(10) 0.58036(3)
H17_17 H 0.43007 0.511996 0.61042
O9_6 O 0.71360(13) 0.83625(10) 0.58036(3)
O11_6 O 0.78770(13) 0.93094(9) 0.56629(3)
O12_6 O 0.96230(13) 0.81906(9) 0.56629(3)
O13_10 O 0.78475(13) 0.93341(9) 0.62092(2)
O1_6 O 0.46360(13) 0.16375(10) 0.33036(3)
O2_6 O 0.53770(13) 0.06906(9) 0.31629(3)
N1_10 N 0.22474(13) 0.09967(9) 0.22600(2)
C1_10 C 0.46935(19) 0.11547(13) 0.31612(3)
C3_10 C 0.29932(16) 0.00922(11) 0.15107(3)
C4_10 C 0.36480(16) 0.03823(13) 0.16651(4)
H1_10 H 0.4365 0.0368 0.1645
C5_10 C 0.32459(16) 0.06929(13) 0.18495(3)
H2_10 H 0.3693 0.0877 0.1953
C6_10 C 0.21810(15) 0.07308(10) 0.18799(3)
C7_10 C 0.17295(15) 0.10695(10) 0.20743(3)
C8_10 C 0.17830(15) 0.11687(10) 0.24467(3)
C9_10 C 0.24891(16) 0.11684(11) 0.26371(3)
C10_10 C 0.33308(18) 0.07078(12) 0.26394(3)
H3_10 H 0.3431 0.0400 0.2524
C11_10 C 0.40221(18) 0.06997(12) 0.28101(4)
H4_10 H 0.4574 0.0381 0.2810
C12_10 C 0.39006(17) 0.11606(12) 0.29814(3)
C13_10 C 0.3073(2) 0.16267(13) 0.29791(3)
H5_10 H 0.2988 0.1942 0.3093
C14_10 C 0.23681(19) 0.16326(13) 0.28097(4)
H6_10 H 0.1812 0.1948 0.2811
C15_10 C 0.15277(15) 0.04241(10) 0.17275(3)
H7_10 H 0.0811 0.0436 0.1748
C16_10 C 0.19277(16) 0.01034(11) 0.15464(3)
N2_10 N 0.02526(13) 0.15033(9) 0.22600(2)
C22_10 C 0.03190(15) 0.17692(10) 0.18799(3)
C23_10 C 0.07705(15) 0.14305(10) 0.20743(3)
C24_10 C 0.07170(15) 0.13313(10) 0.24467(3)
C25_10 C 0.00109(16) 0.13316(11) 0.26371(3)
C30_10 C 0.01319(19) 0.08674(13) 0.28097(4)
H14_10 H 0.0688 0.0552 0.2811
C31_10 C 0.09723(15) 0.20759(10) 0.17275(3)
H15_10 H 0.1689 0.2064 0.1748
C32_10 C 0.05723(16) 0.23966(11) 0.15464(3)
H16_10 H 0.1019 0.2607 0.1447
Cd4_6 Cd 0.6250 0.1250 0.34555(2)
Cd1_4 Cd 0.3750 0.8750 0.09555(2)
O3_6 O 0.28475(13) 0.93341(9) 0.12092(2)
O4_10 O 0.43241(13) 0.99072(10) 0.12506(3)
C2_10 C 0.34257(17) 0.97580(11) 0.13098(3)
H8_10 H 0.1481 0.9893 0.1447
O9_7 O 0.53640(13) 0.91375(10) 0.08036(3)
O10_7 O 0.21360(13) 0.83625(10) 0.08036(3)
O11_7 O 0.46230(13) 0.81906(9) 0.06629(3)
O12_7 O 0.28770(13) 0.93094(9) 0.06629(3)
O13_11 O 0.46525(13) 0.81659(9) 0.12092(2)
O5_6 O 0.78640(13) 0.08625(10) 0.33036(3)
O6_6 O 0.71230(13) 0.18094(9) 0.31629(3)
O7_6 O 0.96525(13) 0.31659(9) 0.12092(2)
O8_10 O 0.81759(13) 0.25928(10) 0.12506(3)
C17_10 C 0.78065(19) 0.13453(13) 0.31612(3)
C18_10 C 0.90743(17) 0.27420(11) 0.13098(3)
C19_9 C 0.95068(16) 0.24078(11) 0.15107(3)
C20_9 C 0.88520(16) 0.21177(13) 0.16651(4)
H9_9 H 0.8135 0.2132 0.1645
C21_9 C 0.92541(16) 0.18071(13) 0.18495(3)
H10_9 H 0.8807 0.1623 0.1953
C26_10 C 0.91692(18) 0.17922(12) 0.26394(3)
H11_10 H 0.9069 0.2100 0.2524
C27_10 C 0.84779(18) 0.18003(12) 0.28101(4)
H12_10 H 0.7926 0.2119 0.2810
C28_10 C 0.85994(17) 0.13394(12) 0.29814(3)
C29_10 C 0.9427(2) 0.08733(13) 0.29791(3)
H13_10 H 0.9512 0.0558 0.3093
Cd2_4 Cd 0.8750 0.3750 0.09555(2)
H17_18 H 0.81993 0.238004 0.11042
O10_8 O 0.03640(13) 0.41375(10) 0.08036(3)
H17_19 H 0.43007 0.011996 0.11042
O9_8 O 0.71360(13) 0.33625(10) 0.08036(3)
O11_8 O 0.78770(13) 0.43094(9) 0.06629(3)
O12_8 O 0.96230(13) 0.31906(9) 0.06629(3)
O13_12 O 0.78475(13) 0.43341(9) 0.12092(2)
O2_7 O 0.03770(13) 0.56906(9) 0.31629(3)
Cd4_7 Cd 0.1250 0.6250 0.34555(2)
O1_7 O 0.96360(13) 0.66375(10) 0.33036(3)
O4_11 O 0.93241(13) 0.49072(10) 0.12506(3)
N1_11 N 0.72474(13) 0.59967(9) 0.22600(2)
C1_11 C 0.96935(19) 0.61547(13) 0.31612(3)
C2_11 C 0.84257(17) 0.47580(11) 0.13098(3)
C3_11 C 0.79932(16) 0.50922(11) 0.15107(3)
C4_11 C 0.86480(16) 0.53823(13) 0.16651(4)
H1_11 H 0.9365 0.5368 0.1645
C5_11 C 0.82459(16) 0.56929(13) 0.18495(3)
H2_11 H 0.8693 0.5877 0.1953
C6_11 C 0.71810(15) 0.57308(10) 0.18799(3)
C7_11 C 0.67295(15) 0.60695(10) 0.20743(3)
C8_11 C 0.67830(15) 0.61687(10) 0.24467(3)
C9_11 C 0.74891(16) 0.61684(11) 0.26371(3)
C10_11 C 0.83308(18) 0.57078(12) 0.26394(3)
H3_11 H 0.8431 0.5400 0.2524
C11_11 C 0.90221(18) 0.56997(12) 0.28101(4)
H4_11 H 0.9574 0.5381 0.2810
C12_11 C 0.89006(17) 0.61606(12) 0.29814(3)
C13_11 C 0.8073(2) 0.66267(13) 0.29791(3)
H5_11 H 0.7988 0.6942 0.3093
C14_11 C 0.73681(19) 0.66326(13) 0.28097(4)
H6_11 H 0.6812 0.6948 0.2811
C15_11 C 0.65277(15) 0.54241(10) 0.17275(3)
H7_11 H 0.5811 0.5436 0.1748
C16_11 C 0.69277(16) 0.51034(11) 0.15464(3)
H8_11 H 0.6481 0.4893 0.1447
O5_7 O 0.28640(13) 0.58625(10) 0.33036(3)
O6_7 O 0.21230(13) 0.68094(9) 0.31629(3)
O8_11 O 0.31759(13) 0.75928(10) 0.12506(3)
N2_11 N 0.52526(13) 0.65033(9) 0.22600(2)
C17_11 C 0.28065(19) 0.63453(13) 0.31612(3)
C18_11 C 0.40743(17) 0.77420(11) 0.13098(3)
C19_10 C 0.45068(16) 0.74078(11) 0.15107(3)
C20_10 C 0.38520(16) 0.71177(13) 0.16651(4)
H9_10 H 0.3135 0.7132 0.1645
C21_10 C 0.42541(16) 0.68071(13) 0.18495(3)
H10_10 H 0.3807 0.6623 0.1953
C22_11 C 0.53190(15) 0.67692(10) 0.18799(3)
C23_11 C 0.57705(15) 0.64305(10) 0.20743(3)
C24_11 C 0.57170(15) 0.63313(10) 0.24467(3)
C25_11 C 0.50109(16) 0.63316(11) 0.26371(3)
C26_11 C 0.41692(18) 0.67922(12) 0.26394(3)
H11_11 H 0.4069 0.7100 0.2524
C27_11 C 0.34779(18) 0.68003(12) 0.28101(4)
H12_11 H 0.2926 0.7119 0.2810
C28_11 C 0.35994(17) 0.63394(12) 0.29814(3)
C29_11 C 0.4427(2) 0.58733(13) 0.29791(3)
H13_11 H 0.4512 0.5558 0.3093
C30_11 C 0.51319(19) 0.58674(13) 0.28097(4)
H14_11 H 0.5688 0.5552 0.2811
C31_11 C 0.59723(15) 0.70759(10) 0.17275(3)
H15_11 H 0.6689 0.7064 0.1748
C32_11 C 0.55723(16) 0.73966(11) 0.15464(3)
H16_11 H 0.6019 0.7607 0.1447
H17_20 H 0.31993 0.738004 0.11042
H17_21 H 0.93007 0.511996 0.11042
O2_8 O 0.03770(13) 0.06906(9) 0.81629(3)
Cd4_8 Cd 0.1250 0.1250 0.84555(2)
O1_8 O 0.96360(13) 0.16375(10) 0.83036(3)
N1_12 N 0.72474(13) 0.09967(9) 0.72600(2)
C1_12 C 0.96935(19) 0.11547(13) 0.81612(3)
C3_12 C 0.79932(16) 0.00922(11) 0.65107(3)
C4_12 C 0.86480(16) 0.03823(13) 0.66651(4)
H1_12 H 0.9365 0.0368 0.6645
C5_12 C 0.82459(16) 0.06929(13) 0.68495(3)
H2_12 H 0.8693 0.0877 0.6953
C6_12 C 0.71810(15) 0.07308(10) 0.68799(3)
C7_12 C 0.67295(15) 0.10695(10) 0.70743(3)
C8_12 C 0.67830(15) 0.11687(10) 0.74467(3)
C9_12 C 0.74891(16) 0.11684(11) 0.76371(3)
C10_12 C 0.83308(18) 0.07078(12) 0.76394(3)
H3_12 H 0.8431 0.0400 0.7524
C11_12 C 0.90221(18) 0.06997(12) 0.78101(4)
H4_12 H 0.9574 0.0381 0.7810
C12_12 C 0.89006(17) 0.11606(12) 0.79814(3)
C13_12 C 0.8073(2) 0.16267(13) 0.79791(3)
H5_12 H 0.7988 0.1942 0.8093
C14_12 C 0.73681(19) 0.16326(13) 0.78097(4)
H6_12 H 0.6812 0.1948 0.7811
C15_12 C 0.65277(15) 0.04241(10) 0.67275(3)
H7_12 H 0.5811 0.0436 0.6748
C16_12 C 0.69277(16) 0.01034(11) 0.65464(3)
O5_8 O 0.28640(13) 0.08625(10) 0.83036(3)
O6_8 O 0.21230(13) 0.18094(9) 0.81629(3)
O8_12 O 0.31759(13) 0.25928(10) 0.62506(3)
N2_12 N 0.52526(13) 0.15033(9) 0.72600(2)
C17_12 C 0.28065(19) 0.13453(13) 0.81612(3)
C18_12 C 0.40743(17) 0.27420(11) 0.63098(3)
C19_11 C 0.45068(16) 0.24078(11) 0.65107(3)
C20_11 C 0.38520(16) 0.21177(13) 0.66651(4)
H9_11 H 0.3135 0.2132 0.6645
C21_11 C 0.42541(16) 0.18071(13) 0.68495(3)
H10_11 H 0.3807 0.1623 0.6953
C22_12 C 0.53190(15) 0.17692(10) 0.68799(3)
C23_12 C 0.57705(15) 0.14305(10) 0.70743(3)
C24_12 C 0.57170(15) 0.13313(10) 0.74467(3)
C25_12 C 0.50109(16) 0.13316(11) 0.76371(3)
C26_12 C 0.41692(18) 0.17922(12) 0.76394(3)
H11_12 H 0.4069 0.2100 0.7524
C27_12 C 0.34779(18) 0.18003(12) 0.78101(4)
H12_12 H 0.2926 0.2119 0.7810
C28_12 C 0.35994(17) 0.13394(12) 0.79814(3)
C29_12 C 0.4427(2) 0.08733(13) 0.79791(3)
H13_12 H 0.4512 0.0558 0.8093
C30_12 C 0.51319(19) 0.08674(13) 0.78097(4)
H14_12 H 0.5688 0.0552 0.7811
C31_12 C 0.59723(15) 0.20759(10) 0.67275(3)
H15_12 H 0.6689 0.2064 0.6748
C32_12 C 0.55723(16) 0.23966(11) 0.65464(3)
H16_12 H 0.6019 0.2607 0.6447
H17_22 H 0.31993 0.238004 0.61042
O4_12 O 0.93241(13) 0.99072(10) 0.62506(3)
C2_12 C 0.84257(17) 0.97580(11) 0.63098(3)
H8_12 H 0.6481 0.9893 0.6447
H17_23 H 0.93007 0.011996 0.61042
O7_7 O 0.03475(13) 0.56659(9) 0.37092(2)
O8_13 O 0.18241(13) 0.50928(10) 0.37506(3)
C17_13 C 0.21935(19) 0.38453(13) 0.56612(3)
C18_13 C 0.09257(17) 0.52420(11) 0.38098(3)
C19_12 C 0.04932(16) 0.49078(11) 0.40107(3)
C20_12 C 0.11480(16) 0.46177(13) 0.41651(4)
H9_12 H 0.1865 0.4632 0.4145
C21_12 C 0.07459(16) 0.43071(13) 0.43495(3)
H10_12 H 0.1193 0.4123 0.4453
C26_13 C 0.08308(18) 0.42922(12) 0.51394(3)
H11_13 H 0.0931 0.4600 0.5024
C27_13 C 0.15221(18) 0.43003(12) 0.53101(4)
H12_13 H 0.2074 0.4619 0.5310
C28_13 C 0.14006(17) 0.38394(12) 0.54814(3)
C29_13 C 0.0573(2) 0.33733(13) 0.54791(3)
H13_13 H 0.0488 0.3058 0.5593
H17_24 H 0.18007 0.488004 0.36042
O3_7 O 0.71525(13) 0.18341(9) 0.37092(2)
O4_13 O 0.56759(13) 0.24072(10) 0.37506(3)
N1_13 N 0.77526(13) 0.34967(9) 0.47600(2)
C1_13 C 0.53065(19) 0.36547(13) 0.56612(3)
C2_13 C 0.65743(17) 0.22580(11) 0.38098(3)
C3_13 C 0.70068(16) 0.25922(11) 0.40107(3)
C4_13 C 0.63520(16) 0.28823(13) 0.41651(4)
H1_13 H 0.5635 0.2868 0.4145
C5_13 C 0.67541(16) 0.31929(13) 0.43495(3)
H2_13 H 0.6307 0.3377 0.4453
C6_13 C 0.78190(15) 0.32308(10) 0.43799(3)
C7_13 C 0.82705(15) 0.35695(10) 0.45743(3)
C8_13 C 0.82170(15) 0.36687(10) 0.49467(3)
C9_13 C 0.75109(16) 0.36684(11) 0.51371(3)
C10_13 C 0.66692(18) 0.32078(12) 0.51394(3)
H3_13 H 0.6569 0.2900 0.5024
C11_13 C 0.59779(18) 0.31997(12) 0.53101(4)
H4_13 H 0.5426 0.2881 0.5310
C12_13 C 0.60994(17) 0.36606(12) 0.54814(3)
C13_13 C 0.6927(2) 0.41267(13) 0.54791(3)
H5_13 H 0.7012 0.4442 0.5593
C14_13 C 0.76319(19) 0.41326(13) 0.53097(4)
H6_13 H 0.8188 0.4448 0.5311
C15_13 C 0.84723(15) 0.29241(10) 0.42275(3)
H7_13 H 0.9189 0.2936 0.4248
C16_13 C 0.80723(16) 0.26034(11) 0.40464(3)
H8_13 H 0.8519 0.2393 0.3947
N2_13 N 0.97474(13) 0.40033(9) 0.47600(2)
C22_13 C 0.96810(15) 0.42692(10) 0.43799(3)
C23_13 C 0.92295(15) 0.39305(10) 0.45743(3)
C24_13 C 0.92830(15) 0.38313(10) 0.49467(3)
C25_13 C 0.99891(16) 0.38316(11) 0.51371(3)
C30_13 C 0.98681(19) 0.33674(13) 0.53097(4)
H14_13 H 0.9312 0.3052 0.5311
C31_13 C 0.90277(15) 0.45759(10) 0.42275(3)
H15_13 H 0.8311 0.4564 0.4248
C32_13 C 0.94277(16) 0.48966(11) 0.40464(3)
H16_13 H 0.8981 0.5107 0.3947
O13_13 O 0.53475(13) 0.06659(9) 0.37092(2)
O13_14 O 0.21525(13) 0.68341(9) 0.37092(2)
H17_25 H 0.56993 0.261996 0.36042
O7_8 O 0.03475(13) 0.06659(9) 0.87092(2)
O8_14 O 0.18241(13) 0.00928(10) 0.87506(3)
C18_14 C 0.09257(17) 0.02420(11) 0.88098(3)
C17_14 C 0.21935(19) 0.88453(13) 0.06612(3)
C26_14 C 0.08308(18) 0.92922(12) 0.01394(3)
H11_14 H 0.0931 0.9600 0.0024
C27_14 C 0.15221(18) 0.93003(12) 0.03101(4)
H12_14 H 0.2074 0.9619 0.0310
C28_14 C 0.14006(17) 0.88394(12) 0.04814(3)
C29_14 C 0.0573(2) 0.83733(13) 0.04791(3)
H13_14 H 0.0488 0.8058 0.0593
H16_14 H 0.8981 0.0107 0.8947
C1_14 C 0.53065(19) 0.86547(13) 0.06612(3)
C9_14 C 0.75109(16) 0.86684(11) 0.01371(3)
C10_14 C 0.66692(18) 0.82078(12) 0.01394(3)
H3_14 H 0.6569 0.7900 0.0024
C11_14 C 0.59779(18) 0.81997(12) 0.03101(4)
H4_14 H 0.5426 0.7881 0.0310
C12_14 C 0.60994(17) 0.86606(12) 0.04814(3)
C13_14 C 0.6927(2) 0.91267(13) 0.04791(3)
H5_14 H 0.7012 0.9442 0.0593
C14_14 C 0.76319(19) 0.91326(13) 0.03097(4)
H6_14 H 0.8188 0.9448 0.0311
C25_14 C 0.99891(16) 0.88316(11) 0.01371(3)
C30_14 C 0.98681(19) 0.83674(13) 0.03097(4)
H14_14 H 0.9312 0.8052 0.0311
O3_8 O 0.71525(13) 0.68341(9) 0.87092(2)
O4_14 O 0.56759(13) 0.74072(10) 0.87506(3)
N1_14 N 0.77526(13) 0.84967(9) 0.97600(2)
C2_14 C 0.65743(17) 0.72580(11) 0.88098(3)
C3_14 C 0.70068(16) 0.75922(11) 0.90107(3)
C4_14 C 0.63520(16) 0.78823(13) 0.91651(4)
H1_14 H 0.5635 0.7868 0.9145
C5_14 C 0.67541(16) 0.81929(13) 0.93495(3)
H2_14 H 0.6307 0.8377 0.9453
C6_14 C 0.78190(15) 0.82308(10) 0.93799(3)
C7_14 C 0.82705(15) 0.85695(10) 0.95743(3)
C8_14 C 0.82170(15) 0.86687(10) 0.99467(3)
C15_14 C 0.84723(15) 0.79241(10) 0.92275(3)
H7_14 H 0.9189 0.7936 0.9248
C16_14 C 0.80723(16) 0.76034(11) 0.90464(3)
H8_14 H 0.8519 0.7393 0.8947
N2_14 N 0.97474(13) 0.90033(9) 0.97600(2)
C22_14 C 0.96810(15) 0.92692(10) 0.93799(3)
C23_14 C 0.92295(15) 0.89305(10) 0.95743(3)
C24_14 C 0.92830(15) 0.88313(10) 0.99467(3)
C31_14 C 0.90277(15) 0.95759(10) 0.92275(3)
H15_14 H 0.8311 0.9564 0.9248
C32_14 C 0.94277(16) 0.98966(11) 0.90464(3)
O13_15 O 0.53475(13) 0.56659(9) 0.87092(2)
O13_16 O 0.21525(13) 0.18341(9) 0.87092(2)
H17_26 H 0.56993 0.761996 0.86042
C1_15 C 0.03065(19) 0.36547(13) 0.06612(3)
C9_15 C 0.25109(16) 0.36684(11) 0.01371(3)
C10_15 C 0.16692(18) 0.32078(12) 0.01394(3)
H3_15 H 0.1569 0.2900 0.0024
C11_15 C 0.09779(18) 0.31997(12) 0.03101(4)
H4_15 H 0.0426 0.2881 0.0310
C12_15 C 0.10994(17) 0.36606(12) 0.04814(3)
C13_15 C 0.1927(2) 0.41267(13) 0.04791(3)
H5_15 H 0.2012 0.4442 0.0593
C14_15 C 0.26319(19) 0.41326(13) 0.03097(4)
H6_15 H 0.3188 0.4448 0.0311
C17_15 C 0.71935(19) 0.38453(13) 0.06612(3)
C25_15 C 0.49891(16) 0.38316(11) 0.01371(3)
C26_15 C 0.58308(18) 0.42922(12) 0.01394(3)
H11_15 H 0.5931 0.4600 0.0024
C27_15 C 0.65221(18) 0.43003(12) 0.03101(4)
H12_15 H 0.7074 0.4619 0.0310
C28_15 C 0.64006(17) 0.38394(12) 0.04814(3)
C29_15 C 0.5573(2) 0.33733(13) 0.04791(3)
H13_15 H 0.5488 0.3058 0.0593
C30_15 C 0.48681(19) 0.33674(13) 0.03097(4)
H14_15 H 0.4312 0.3052 0.0311
O4_15 O 0.06759(13) 0.24072(10) 0.87506(3)
N1_15 N 0.27526(13) 0.34967(9) 0.97600(2)
C2_15 C 0.15743(17) 0.22580(11) 0.88098(3)
C3_15 C 0.20068(16) 0.25922(11) 0.90107(3)
C4_15 C 0.13520(16) 0.28823(13) 0.91651(4)
H1_15 H 0.0635 0.2868 0.9145
C5_15 C 0.17541(16) 0.31929(13) 0.93495(3)
H2_15 H 0.1307 0.3377 0.9453
C6_15 C 0.28190(15) 0.32308(10) 0.93799(3)
C7_15 C 0.32705(15) 0.35695(10) 0.95743(3)
C8_15 C 0.32170(15) 0.36687(10) 0.99467(3)
C15_15 C 0.34723(15) 0.29241(10) 0.92275(3)
H7_15 H 0.4189 0.2936 0.9248
C16_15 C 0.30723(16) 0.26034(11) 0.90464(3)
H8_15 H 0.3519 0.2393 0.8947
O8_15 O 0.68241(13) 0.50928(10) 0.87506(3)
N2_15 N 0.47474(13) 0.40033(9) 0.97600(2)
C18_15 C 0.59257(17) 0.52420(11) 0.88098(3)
C19_13 C 0.54932(16) 0.49078(11) 0.90107(3)
C20_13 C 0.61480(16) 0.46177(13) 0.91651(4)
H9_13 H 0.6865 0.4632 0.9145
C21_13 C 0.57459(16) 0.43071(13) 0.93495(3)
H10_13 H 0.6193 0.4123 0.9453
C22_15 C 0.46810(15) 0.42692(10) 0.93799(3)
C23_15 C 0.42295(15) 0.39305(10) 0.95743(3)
C24_15 C 0.42830(15) 0.38313(10) 0.99467(3)
C31_15 C 0.40277(15) 0.45759(10) 0.92275(3)
H15_15 H 0.3311 0.4564 0.9248
C32_15 C 0.44277(16) 0.48966(11) 0.90464(3)
H16_15 H 0.3981 0.5107 0.8947
H17_27 H 0.68007 0.488004 0.86042
H17_28 H 0.0699303 0.261996 0.86042
O8_16 O 0.68241(13) 0.00928(10) 0.37506(3)
C18_16 C 0.59257(17) 0.02420(11) 0.38098(3)
H16_16 H 0.3981 0.0107 0.3947
O4_16 O 0.06759(13) 0.74072(10) 0.37506(3)
N1_16 N 0.27526(13) 0.84967(9) 0.47600(2)
C1_16 C 0.03065(19) 0.86547(13) 0.56612(3)
C2_16 C 0.15743(17) 0.72580(11) 0.38098(3)
C3_16 C 0.20068(16) 0.75922(11) 0.40107(3)
C4_16 C 0.13520(16) 0.78823(13) 0.41651(4)
H1_16 H 0.0635 0.7868 0.4145
C5_16 C 0.17541(16) 0.81929(13) 0.43495(3)
H2_16 H 0.1307 0.8377 0.4453
C6_16 C 0.28190(15) 0.82308(10) 0.43799(3)
C7_16 C 0.32705(15) 0.85695(10) 0.45743(3)
C8_16 C 0.32170(15) 0.86687(10) 0.49467(3)
C9_16 C 0.25109(16) 0.86684(11) 0.51371(3)
C10_16 C 0.16692(18) 0.82078(12) 0.51394(3)
H3_16 H 0.1569 0.7900 0.5024
C11_16 C 0.09779(18) 0.81997(12) 0.53101(4)
H4_16 H 0.0426 0.7881 0.5310
C12_16 C 0.10994(17) 0.86606(12) 0.54814(3)
C13_16 C 0.1927(2) 0.91267(13) 0.54791(3)
H5_16 H 0.2012 0.9442 0.5593
C14_16 C 0.26319(19) 0.91326(13) 0.53097(4)
H6_16 H 0.3188 0.9448 0.5311
C15_16 C 0.34723(15) 0.79241(10) 0.42275(3)
H7_16 H 0.4189 0.7936 0.4248
C16_16 C 0.30723(16) 0.76034(11) 0.40464(3)
H8_16 H 0.3519 0.7393 0.3947
N2_16 N 0.47474(13) 0.90033(9) 0.47600(2)
C17_16 C 0.71935(19) 0.88453(13) 0.56612(3)
C19_14 C 0.54932(16) 0.99078(11) 0.40107(3)
C20_14 C 0.61480(16) 0.96177(13) 0.41651(4)
H9_14 H 0.6865 0.9632 0.4145
C21_14 C 0.57459(16) 0.93071(13) 0.43495(3)
H10_14 H 0.6193 0.9123 0.4453
C22_16 C 0.46810(15) 0.92692(10) 0.43799(3)
C23_16 C 0.42295(15) 0.89305(10) 0.45743(3)
C24_16 C 0.42830(15) 0.88313(10) 0.49467(3)
C25_16 C 0.49891(16) 0.88316(11) 0.51371(3)
C26_16 C 0.58308(18) 0.92922(12) 0.51394(3)
H11_16 H 0.5931 0.9600 0.5024
C27_16 C 0.65221(18) 0.93003(12) 0.53101(4)
H12_16 H 0.7074 0.9619 0.5310
C28_16 C 0.64006(17) 0.88394(12) 0.54814(3)
C29_16 C 0.5573(2) 0.83733(13) 0.54791(3)
H13_16 H 0.5488 0.8058 0.5593
C30_16 C 0.48681(19) 0.83674(13) 0.53097(4)
H14_16 H 0.4312 0.8052 0.5311
C31_16 C 0.40277(15) 0.95759(10) 0.42275(3)
H15_16 H 0.3311 0.9564 0.4248
C32_16 C 0.44277(16) 0.98966(11) 0.40464(3)
H17_29 H 0.68007 0.988004 0.36042
H17_30 H 0.0699303 0.761996 0.36042
C19_15 C 0.95068(16) 0.00922(11) 0.09893(3)
C20_15 C 0.88520(16) 0.03823(13) 0.08349(4)
H9_15 H 0.8135 0.0368 0.0855
C21_15 C 0.92541(16) 0.06929(13) 0.06505(3)
H10_15 H 0.8807 0.0877 0.0547
H17_31 H 0.81993 0.011996 0.13958
C19_16 C 0.04932(16) 0.99078(11) 0.90107(3)
C20_16 C 0.11480(16) 0.96177(13) 0.91651(4)
H9_16 H 0.1865 0.9632 0.9145
C21_16 C 0.07459(16) 0.93071(13) 0.93495(3)
H10_16 H 0.1193 0.9123 0.9453
H17_32 H 0.18007 0.988004 0.86042
loop_
_geom_bond_atom_site_label_1
_geom_bond_atom_site_label_2
_geom_bond_site_symmetry_1
_geom_bond_site_symmetry_2
Cd1 O3 1_555 1_555
O1 C1 1_555 1_555
O2 C1 1_555 1_555
O3 C2 1_555 1_555
O4 C2 1_555 1_555
N1 C7 1_555 1_555
C1 C12 1_555 1_555
C2 C3 1_555 1_555
C3 C4 1_555 1_555
C4 H1 1_555 1_555
C5 C4 1_555 1_555
H2 C5 1_555 1_555
C6 C5 1_555 1_555
C7 C6 1_555 1_555
C8 N1 1_555 1_555
C9 C8 1_555 1_555
C10 C9 1_555 1_555
H3 C10 1_555 1_555
C11 C10 1_555 1_555
H4 C11 1_555 1_555
C12 C11 1_555 1_555
C13 C12 1_555 1_555
H5 C13 1_555 1_555
C14 C9 1_555 1_555
H6 C14 1_555 1_555
C15 C6 1_555 1_555
H7 C15 1_555 1_555
C16 C3 1_555 1_555
H8 C16 1_555 1_555
N2 C23 1_555 1_555
C23 C7 1_555 1_555
C24 C8 1_555 1_555
C25 C24 1_555 1_555
C30 C25 1_555 1_555
H14 C30 1_555 1_555
C31 C22 1_555 1_555
H15 C31 1_555 1_555
H16 C32 1_555 1_555
Cd4 O1 1_555 1_555
O9 Cd1 1_555 1_555
O10 Cd1 1_555 1_555
O11 Cd1 1_555 1_555
O12 Cd1 1_555 1_555
O13 Cd1 1_555 1_555
O2 Cd4 1_555 1_555
C13 C14 1_555 1_555
C15 C16 1_555 1_555
N2 C24 1_555 1_555
C22 C23 1_555 1_555
C31 C32 1_555 1_555
O5 C17 1_555 1_555
O6 C17 1_555 1_555
O7 C18 1_555 1_555
O8 C18 1_555 1_555
C17 C28 1_555 1_555
C18 C19 1_555 1_555
C19 C20 1_555 1_555
C20 H9 1_555 1_555
C21 C20 1_555 1_555
H10 C21 1_555 1_555
H11 C26 1_555 1_555
C27 C26 1_555 1_555
H12 C27 1_555 1_555
C28 C27 1_555 1_555
C29 C28 1_555 1_555
H13 C29 1_555 1_555
Cd2 O7 1_555 1_555
Cd4 O5 1_555 1_555
O6 Cd4 1_555 1_555
O8 H17 1_555 1_555
O4 H17_2 1_555 1_555
O9_2 Cd2 1_555 1_555
O11_2 Cd2 1_555 1_555
O12_2 Cd2 1_555 1_555
O13_2 Cd2 1_555 1_555
Cd1_2 O3_2 1_555 1_555
O3_2 C2_2 1_555 1_555
O4_2 C2_2 1_555 1_555
N1_2 C7_2 1_555 1_555
C2_2 C3_2 1_555 1_555
C3_2 C4_2 1_555 1_555
C4_2 H1_2 1_555 1_555
C5_2 C4_2 1_555 1_555
H2_2 C5_2 1_555 1_555
C6_2 C5_2 1_555 1_555
C7_2 C6_2 1_555 1_555
C8_2 N1_2 1_555 1_555
C15_2 C6_2 1_555 1_555
H7_2 C15_2 1_555 1_555
C16_2 C3_2 1_555 1_555
H8_2 C16_2 1_555 1_555
N2_2 C23_2 1_555 1_555
C23_2 C7_2 1_555 1_555
C24_2 C8_2 1_555 1_555
C31_2 C22_2 1_555 1_555
H15_2 C31_2 1_555 1_555
O9_3 Cd1_2 1_555 1_555
O10_3 Cd1_2 1_555 1_555
O11_3 Cd1_2 1_555 1_555
O12_3 Cd1_2 1_555 1_555
O13_3 Cd1_2 1_555 1_555
C15_2 C16_2 1_555 1_555
N2_2 C24_2 1_555 1_555
C22_2 C23_2 1_555 1_555
C31_2 C32_2 1_555 1_555
O1_2 C1_2 1_555 1_555
O2_2 C1_2 1_555 1_555
C1_2 C12_2 1_555 1_555
C10_2 C9_2 1_555 1_555
H3_2 C10_2 1_555 1_555
C11_2 C10_2 1_555 1_555
H4_2 C11_2 1_555 1_555
C12_2 C11_2 1_555 1_555
C13_2 C12_2 1_555 1_555
H5_2 C13_2 1_555 1_555
C14_2 C9_2 1_555 1_555
H6_2 C14_2 1_555 1_555
C30_2 C25_2 1_555 1_555
H14_2 C30_2 1_555 1_555
Cd4_2 O1_2 1_555 1_555
O2_2 Cd4_2 1_555 1_555
C13_2 C14_2 1_555 1_555
O5_2 C17_2 1_555 1_555
O6_2 C17_2 1_555 1_555
C17_2 C28_2 1_555 1_555
H11_2 C26_2 1_555 1_555
C27_2 C26_2 1_555 1_555
H12_2 C27_2 1_555 1_555
C28_2 C27_2 1_555 1_555
C29_2 C28_2 1_555 1_555
H13_2 C29_2 1_555 1_555
Cd4_2 O5_2 1_555 1_555
O6_2 Cd4_2 1_555 1_555
O7_2 C18_2 1_555 1_555
O8_2 C18_2 1_555 1_555
Cd2_2 O7_2 1_555 1_555
O4_2 H17_3 1_555 1_555
O9_4 Cd2_2 1_555 1_555
O11_4 Cd2_2 1_555 1_555
O12_4 Cd2_2 1_555 1_555
O13_4 Cd2_2 1_555 1_555
O2_3 Cd4_3 1_555 1_555
O13_4 C2_3 1_555 1_555
O4_3 C2_3 1_555 1_555
N1_3 C7_3 1_555 1_555
C2_3 C3_3 1_555 1_555
C3_3 C4_3 1_555 1_555
C4_3 H1_3 1_555 1_555
C5_3 C4_3 1_555 1_555
H2_3 C5_3 1_555 1_555
C6_3 C5_3 1_555 1_555
C7_3 C6_3 1_555 1_555
C8_3 N1_3 1_555 1_555
C15_3 C6_3 1_555 1_555
H7_3 C15_3 1_555 1_555
C16_3 C3_3 1_555 1_555
H8_3 C16_3 1_555 1_555
O13_3 C18_3 1_555 1_555
O8_3 C18_3 1_555 1_555
N2_3 C23_3 1_555 1_555
C18_3 C19_2 1_555 1_555
C19_2 C20_2 1_555 1_555
C20_2 H9_2 1_555 1_555
C21_2 C20_2 1_555 1_555
H10_2 C21_2 1_555 1_555
C22_3 C21_2 1_555 1_555
C23_3 C7_3 1_555 1_555
C24_3 C8_3 1_555 1_555
C31_3 C22_3 1_555 1_555
H15_3 C31_3 1_555 1_555
C32_3 C19_2 1_555 1_555
H16_3 C32_3 1_555 1_555
C15_3 C16_3 1_555 1_555
N2_3 C24_3 1_555 1_555
C22_3 C23_3 1_555 1_555
C31_3 C32_3 1_555 1_555
O8_3 H17_4 1_555 1_555
O1_3 C1_3 1_555 1_555
C1_3 C12_3 1_555 1_555
C10_3 C9_3 1_555 1_555
H3_3 C10_3 1_555 1_555
C11_3 C10_3 1_555 1_555
H4_3 C11_3 1_555 1_555
C12_3 C11_3 1_555 1_555
C13_3 C12_3 1_555 1_555
H5_3 C13_3 1_555 1_555
C14_3 C9_3 1_555 1_555
H6_3 C14_3 1_555 1_555
O5_3 C17_3 1_555 1_555
O6_3 C17_3 1_555 1_555
C17_3 C28_3 1_555 1_555
C26_3 C25_3 1_555 1_555
H11_3 C26_3 1_555 1_555
C27_3 C26_3 1_555 1_555
H12_3 C27_3 1_555 1_555
C28_3 C27_3 1_555 1_555
C29_3 C28_3 1_555 1_555
H13_3 C29_3 1_555 1_555
C30_3 C25_3 1_555 1_555
H14_3 C30_3 1_555 1_555
Cd4_3 O5_3 1_555 1_555
C13_3 C14_3 1_555 1_555
O6_3 Cd4_3 1_555 1_555
C29_3 C30_3 1_555 1_555
O4_3 H17_5 1_555 1_555
O2_4 Cd4_4 1_555 1_555
O1_4 C1_4 1_555 1_555
O13_2 C2_4 1_555 1_555
O4_4 C2_4 1_555 1_555
N1_4 C7_4 1_555 1_555
C1_4 C12_4 1_555 1_555
C2_4 C3_4 1_555 1_555
C3_4 C4_4 1_555 1_555
C4_4 H1_4 1_555 1_555
C5_4 C4_4 1_555 1_555
H2_4 C5_4 1_555 1_555
C6_4 C5_4 1_555 1_555
C7_4 C6_4 1_555 1_555
C8_4 N1_4 1_555 1_555
C9_4 C8_4 1_555 1_555
C10_4 C9_4 1_555 1_555
H3_4 C10_4 1_555 1_555
C11_4 C10_4 1_555 1_555
H4_4 C11_4 1_555 1_555
C12_4 C11_4 1_555 1_555
C13_4 C12_4 1_555 1_555
H5_4 C13_4 1_555 1_555
C14_4 C9_4 1_555 1_555
H6_4 C14_4 1_555 1_555
C15_4 C6_4 1_555 1_555
H7_4 C15_4 1_555 1_555
C16_4 C3_4 1_555 1_555
H8_4 C16_4 1_555 1_555
O5_4 C17_4 1_555 1_555
O6_4 C17_4 1_555 1_555
N2_4 C23_4 1_555 1_555
C17_4 C28_4 1_555 1_555
C19_3 C20_3 1_555 1_555
C20_3 H9_3 1_555 1_555
C21_3 C20_3 1_555 1_555
H10_3 C21_3 1_555 1_555
C22_4 C21_3 1_555 1_555
C23_4 C7_4 1_555 1_555
C24_4 C8_4 1_555 1_555
C25_4 C24_4 1_555 1_555
C26_4 C25_4 1_555 1_555
H11_4 C26_4 1_555 1_555
C27_4 C26_4 1_555 1_555
H12_4 C27_4 1_555 1_555
C28_4 C27_4 1_555 1_555
C29_4 C28_4 1_555 1_555
H13_4 C29_4 1_555 1_555
C30_4 C25_4 1_555 1_555
H14_4 C30_4 1_555 1_555
C31_4 C22_4 1_555 1_555
H15_4 C31_4 1_555 1_555
C32_4 C19_3 1_555 1_555
Cd4_4 O5_4 1_555 1_555
C13_4 C14_4 1_555 1_555
C15_4 C16_4 1_555 1_555
O6_4 Cd4_4 1_555 1_555
N2_4 C24_4 1_555 1_555
C22_4 C23_4 1_555 1_555
C29_4 C30_4 1_555 1_555
C31_4 C32_4 1_555 1_555
O13 C18_4 1_555 1_555
O8_4 C18_4 1_555 1_555
O4_4 H17_7 1_555 1_555
O10_3 C17_5 1_555 1_555
O12_3 C17_5 1_555 1_555
O7_3 C18_5 1_555 1_555
O8_5 C18_5 1_555 1_555
C17_5 C28_5 1_555 1_555
C18_5 C19_4 1_555 1_555
C19_4 C20_4 1_555 1_555
C20_4 H9_4 1_555 1_555
C21_4 C20_4 1_555 1_555
H10_4 C21_4 1_555 1_555
H11_5 C26_5 1_555 1_555
C27_5 C26_5 1_555 1_555
H12_5 C27_5 1_555 1_555
C28_5 C27_5 1_555 1_555
C29_5 C28_5 1_555 1_555
H13_5 C29_5 1_555 1_555
Cd4_4 O7_3 1_555 1_555
O8_5 H17_8 1_555 1_555
Cd4 O3_3 1_555 1_555
O9_3 C1_5 1_555 1_555
O11_3 C1_5 1_555 1_555
O3_3 C2_5 1_555 1_555
O4_5 C2_5 1_555 1_555
N1_5 C7_5 1_555 1_555
C1_5 C12_5 1_555 1_555
C2_5 C3_5 1_555 1_555
C3_5 C4_5 1_555 1_555
C4_5 H1_5 1_555 1_555
C5_5 C4_5 1_555 1_555
H2_5 C5_5 1_555 1_555
C6_5 C5_5 1_555 1_555
C7_5 C6_5 1_555 1_555
C8_5 N1_5 1_555 1_555
C9_5 C8_5 1_555 1_555
C10_5 C9_5 1_555 1_555
H3_5 C10_5 1_555 1_555
C11_5 C10_5 1_555 1_555
H4_5 C11_5 1_555 1_555
C12_5 C11_5 1_555 1_555
C13_5 C12_5 1_555 1_555
H5_5 C13_5 1_555 1_555
C14_5 C9_5 1_555 1_555
H6_5 C14_5 1_555 1_555
C15_5 C6_5 1_555 1_555
H7_5 C15_5 1_555 1_555
C16_5 C3_5 1_555 1_555
H8_5 C16_5 1_555 1_555
N2_5 C23_5 1_555 1_555
C23_5 C7_5 1_555 1_555
C24_5 C8_5 1_555 1_555
C25_5 C24_5 1_555 1_555
C30_5 C25_5 1_555 1_555
H14_5 C30_5 1_555 1_555
C31_5 C22_5 1_555 1_555
H15_5 C31_5 1_555 1_555
H16_5 C32_5 1_555 1_555
O13_5 Cd4 1_555 1_555
C13_5 C14_5 1_555 1_555
C15_5 C16_5 1_555 1_555
N2_5 C24_5 1_555 1_555
C22_5 C23_5 1_555 1_555
C31_5 C32_5 1_555 1_555
O13_6 Cd4_4 1_555 1_555
O4_5 H17_9 1_555 1_555
O10 C17_6 1_555 1_555
O12 C17_6 1_555 1_555
O7_4 C18_6 1_555 1_555
O8_6 C18_6 1_555 1_555
C17_6 C28_6 1_555 1_555
C18_6 C19_5 1_555 1_555
C19_5 C20_5 1_555 1_555
C20_5 H9_5 1_555 1_555
C21_5 C20_5 1_555 1_555
H10_5 C21_5 1_555 1_555
H11_6 C26_6 1_555 1_555
C27_6 C26_6 1_555 1_555
H12_6 C27_6 1_555 1_555
C28_6 C27_6 1_555 1_555
C29_6 C28_6 1_555 1_555
H13_6 C29_6 1_555 1_555
Cd4_3 O7_4 1_555 1_555
O8_6 H17_10 1_555 1_555
Cd4_2 O3_4 1_555 1_555
O3_4 C2_6 1_555 1_555
O4_6 C2_6 1_555 1_555
O13_7 Cd4_2 1_555 1_555
O9 C1_6 1_555 1_555
O11 C1_6 1_555 1_555
N1_6 C7_6 1_555 1_555
C1_6 C12_6 1_555 1_555
C3_6 C4_6 1_555 1_555
C4_6 H1_6 1_555 1_555
C5_6 C4_6 1_555 1_555
H2_6 C5_6 1_555 1_555
C6_6 C5_6 1_555 1_555
C7_6 C6_6 1_555 1_555
C8_6 N1_6 1_555 1_555
C9_6 C8_6 1_555 1_555
C10_6 C9_6 1_555 1_555
H3_6 C10_6 1_555 1_555
C11_6 C10_6 1_555 1_555
H4_6 C11_6 1_555 1_555
C12_6 C11_6 1_555 1_555
C13_6 C12_6 1_555 1_555
H5_6 C13_6 1_555 1_555
C14_6 C9_6 1_555 1_555
H6_6 C14_6 1_555 1_555
C15_6 C6_6 1_555 1_555
H7_6 C15_6 1_555 1_555
C16_6 C3_6 1_555 1_555
N2_6 C23_6 1_555 1_555
C23_6 C7_6 1_555 1_555
C24_6 C8_6 1_555 1_555
C25_6 C24_6 1_555 1_555
C30_6 C25_6 1_555 1_555
H14_6 C30_6 1_555 1_555
C31_6 C22_6 1_555 1_555
H15_6 C31_6 1_555 1_555
H16_6 C32_6 1_555 1_555
C13_6 C14_6 1_555 1_555
C15_6 C16_6 1_555 1_555
N2_6 C24_6 1_555 1_555
C22_6 C23_6 1_555 1_555
C31_6 C32_6 1_555 1_555
O13_8 Cd4_3 1_555 1_555
O10_2 C1_7 1_555 1_555
O13_8 C2_7 1_555 1_555
O4_7 C2_7 1_555 1_555
N1_7 C7_7 1_555 1_555
C1_7 C12_7 1_555 1_555
C2_7 C3_7 1_555 1_555
C3_7 C4_7 1_555 1_555
C4_7 H1_7 1_555 1_555
C5_7 C4_7 1_555 1_555
H2_7 C5_7 1_555 1_555
C6_7 C5_7 1_555 1_555
C7_7 C6_7 1_555 1_555
C8_7 N1_7 1_555 1_555
C9_7 C8_7 1_555 1_555
C10_7 C9_7 1_555 1_555
H3_7 C10_7 1_555 1_555
C11_7 C10_7 1_555 1_555
H4_7 C11_7 1_555 1_555
C12_7 C11_7 1_555 1_555
C13_7 C12_7 1_555 1_555
H5_7 C13_7 1_555 1_555
C14_7 C9_7 1_555 1_555
H6_7 C14_7 1_555 1_555
C15_7 C6_7 1_555 1_555
H7_7 C15_7 1_555 1_555
C16_7 C3_7 1_555 1_555
H8_7 C16_7 1_555 1_555
O9_2 C17_7 1_555 1_555
O11_2 C17_7 1_555 1_555
O13_7 C18_7 1_555 1_555
O8_7 C18_7 1_555 1_555
N2_7 C23_7 1_555 1_555
C17_7 C28_7 1_555 1_555
C18_7 C19_6 1_555 1_555
C19_6 C20_6 1_555 1_555
C20_6 H9_6 1_555 1_555
C21_6 C20_6 1_555 1_555
H10_6 C21_6 1_555 1_555
C22_7 C21_6 1_555 1_555
C23_7 C7_7 1_555 1_555
C24_7 C8_7 1_555 1_555
C25_7 C24_7 1_555 1_555
C26_7 C25_7 1_555 1_555
H11_7 C26_7 1_555 1_555
C27_7 C26_7 1_555 1_555
H12_7 C27_7 1_555 1_555
C28_7 C27_7 1_555 1_555
C29_7 C28_7 1_555 1_555
H13_7 C29_7 1_555 1_555
C30_7 C25_7 1_555 1_555
H14_7 C30_7 1_555 1_555
C31_7 C22_7 1_555 1_555
H15_7 C31_7 1_555 1_555
C32_7 C19_6 1_555 1_555
H16_7 C32_7 1_555 1_555
C13_7 C14_7 1_555 1_555
C15_7 C16_7 1_555 1_555
N2_7 C24_7 1_555 1_555
C22_7 C23_7 1_555 1_555
C29_7 C30_7 1_555 1_555
C31_7 C32_7 1_555 1_555
O8_7 H17_12 1_555 1_555
O4_7 H17_13 1_555 1_555
O13_6 C2_8 1_555 1_555
O4_8 C2_8 1_555 1_555
O10_4 C1_8 1_555 1_555
N1_8 C7_8 1_555 1_555
C1_8 C12_8 1_555 1_555
C3_8 C4_8 1_555 1_555
C4_8 H1_8 1_555 1_555
C5_8 C4_8 1_555 1_555
H2_8 C5_8 1_555 1_555
C6_8 C5_8 1_555 1_555
C7_8 C6_8 1_555 1_555
C8_8 N1_8 1_555 1_555
C9_8 C8_8 1_555 1_555
C10_8 C9_8 1_555 1_555
H3_8 C10_8 1_555 1_555
C11_8 C10_8 1_555 1_555
H4_8 C11_8 1_555 1_555
C12_8 C11_8 1_555 1_555
C13_8 C12_8 1_555 1_555
H5_8 C13_8 1_555 1_555
C14_8 C9_8 1_555 1_555
H6_8 C14_8 1_555 1_555
C15_8 C6_8 1_555 1_555
H7_8 C15_8 1_555 1_555
C16_8 C3_8 1_555 1_555
O9_4 C17_8 1_555 1_555
O11_4 C17_8 1_555 1_555
O13_5 C18_8 1_555 1_555
O8_8 C18_8 1_555 1_555
N2_8 C23_8 1_555 1_555
C17_8 C28_8 1_555 1_555
C18_8 C19_7 1_555 1_555
C19_7 C20_7 1_555 1_555
C20_7 H9_7 1_555 1_555
C21_7 C20_7 1_555 1_555
H10_7 C21_7 1_555 1_555
C22_8 C21_7 1_555 1_555
C23_8 C7_8 1_555 1_555
C24_8 C8_8 1_555 1_555
C25_8 C24_8 1_555 1_555
C26_8 C25_8 1_555 1_555
H11_8 C26_8 1_555 1_555
C27_8 C26_8 1_555 1_555
H12_8 C27_8 1_555 1_555
C28_8 C27_8 1_555 1_555
C29_8 C28_8 1_555 1_555
H13_8 C29_8 1_555 1_555
C30_8 C25_8 1_555 1_555
H14_8 C30_8 1_555 1_555
C31_8 C22_8 1_555 1_555
H15_8 C31_8 1_555 1_555
C32_8 C19_7 1_555 1_555
H16_8 C32_8 1_555 1_555
C13_8 C14_8 1_555 1_555
C15_8 C16_8 1_555 1_555
N2_8 C24_8 1_555 1_555
C22_8 C23_8 1_555 1_555
C29_8 C30_8 1_555 1_555
C31_8 C32_8 1_555 1_555
O8_8 H17_14 1_555 1_555
Cd1_3 O3_5 1_555 1_555
O1_5 C1_9 1_555 1_555
O2_5 C1_9 1_555 1_555
O3_5 C2_9 1_555 1_555
O4_9 C2_9 1_555 1_555
N1_9 C7_9 1_555 1_555
C1_9 C12_9 1_555 1_555
C2_9 C3_9 1_555 1_555
C3_9 C4_9 1_555 1_555
C4_9 H1_9 1_555 1_555
C5_9 C4_9 1_555 1_555
H2_9 C5_9 1_555 1_555
C6_9 C5_9 1_555 1_555
C7_9 C6_9 1_555 1_555
C8_9 N1_9 1_555 1_555
C9_9 C8_9 1_555 1_555
C10_9 C9_9 1_555 1_555
H3_9 C10_9 1_555 1_555
C11_9 C10_9 1_555 1_555
H4_9 C11_9 1_555 1_555
C12_9 C11_9 1_555 1_555
C13_9 C12_9 1_555 1_555
H5_9 C13_9 1_555 1_555
C14_9 C9_9 1_555 1_555
H6_9 C14_9 1_555 1_555
C15_9 C6_9 1_555 1_555
H7_9 C15_9 1_555 1_555
C16_9 C3_9 1_555 1_555
H8_9 C16_9 1_555 1_555
N2_9 C23_9 1_555 1_555
C23_9 C7_9 1_555 1_555
C24_9 C8_9 1_555 1_555
C25_9 C24_9 1_555 1_555
C30_9 C25_9 1_555 1_555
H14_9 C30_9 1_555 1_555
C31_9 C22_9 1_555 1_555
H15_9 C31_9 1_555 1_555
H16_9 C32_9 1_555 1_555
Cd4_5 O1_5 1_555 1_555
O9_5 Cd1_3 1_555 1_555
O10_5 Cd1_3 1_555 1_555
O11_5 Cd1_3 1_555 1_555
O12_5 Cd1_3 1_555 1_555
O13_9 Cd1_3 1_555 1_555
O2_5 Cd4_5 1_555 1_555
C13_9 C14_9 1_555 1_555
C15_9 C16_9 1_555 1_555
N2_9 C24_9 1_555 1_555
C22_9 C23_9 1_555 1_555
C31_9 C32_9 1_555 1_555
O5_5 C17_9 1_555 1_555
O6_5 C17_9 1_555 1_555
O7_5 C18_9 1_555 1_555
O8_9 C18_9 1_555 1_555
C17_9 C28_9 1_555 1_555
C18_9 C19_8 1_555 1_555
C19_8 C20_8 1_555 1_555
C20_8 H9_8 1_555 1_555
C21_8 C20_8 1_555 1_555
H10_8 C21_8 1_555 1_555
H11_9 C26_9 1_555 1_555
C27_9 C26_9 1_555 1_555
H12_9 C27_9 1_555 1_555
C28_9 C27_9 1_555 1_555
C29_9 C28_9 1_555 1_555
H13_9 C29_9 1_555 1_555
Cd2_3 O7_5 1_555 1_555
Cd4_5 O5_5 1_555 1_555
O6_5 Cd4_5 1_555 1_555
O8_9 H17_16 1_555 1_555
O4_9 H17_17 1_555 1_555
O9_6 Cd2_3 1_555 1_555
O11_6 Cd2_3 1_555 1_555
O12_6 Cd2_3 1_555 1_555
O13_10 Cd2_3 1_555 1_555
O1_6 C1_10 1_555 1_555
O2_6 C1_10 1_555 1_555
N1_10 C7_10 1_555 1_555
C1_10 C12_10 1_555 1_555
C3_10 C4_10 1_555 1_555
C4_10 H1_10 1_555 1_555
C5_10 C4_10 1_555 1_555
H2_10 C5_10 1_555 1_555
C6_10 C5_10 1_555 1_555
C7_10 C6_10 1_555 1_555
C8_10 N1_10 1_555 1_555
C9_10 C8_10 1_555 1_555
C10_10 C9_10 1_555 1_555
H3_10 C10_10 1_555 1_555
C11_10 C10_10 1_555 1_555
H4_10 C11_10 1_555 1_555
C12_10 C11_10 1_555 1_555
C13_10 C12_10 1_555 1_555
H5_10 C13_10 1_555 1_555
C14_10 C9_10 1_555 1_555
H6_10 C14_10 1_555 1_555
C15_10 C6_10 1_555 1_555
H7_10 C15_10 1_555 1_555
C16_10 C3_10 1_555 1_555
N2_10 C23_10 1_555 1_555
C23_10 C7_10 1_555 1_555
C24_10 C8_10 1_555 1_555
C25_10 C24_10 1_555 1_555
C30_10 C25_10 1_555 1_555
H14_10 C30_10 1_555 1_555
C31_10 C22_10 1_555 1_555
H15_10 C31_10 1_555 1_555
H16_10 C32_10 1_555 1_555
Cd4_6 O1_6 1_555 1_555
O2_6 Cd4_6 1_555 1_555
C13_10 C14_10 1_555 1_555
C15_10 C16_10 1_555 1_555
N2_10 C24_10 1_555 1_555
C22_10 C23_10 1_555 1_555
C31_10 C32_10 1_555 1_555
Cd1_4 O3_6 1_555 1_555
O3_6 C2_10 1_555 1_555
O4_10 C2_10 1_555 1_555
O9_7 Cd1_4 1_555 1_555
O10_7 Cd1_4 1_555 1_555
O11_7 Cd1_4 1_555 1_555
O12_7 Cd1_4 1_555 1_555
O13_11 Cd1_4 1_555 1_555
O5_6 C17_10 1_555 1_555
O6_6 C17_10 1_555 1_555
O7_6 C18_10 1_555 1_555
O8_10 C18_10 1_555 1_555
C17_10 C28_10 1_555 1_555
C18_10 C19_9 1_555 1_555
C19_9 C20_9 1_555 1_555
C20_9 H9_9 1_555 1_555
C21_9 C20_9 1_555 1_555
H10_9 C21_9 1_555 1_555
H11_10 C26_10 1_555 1_555
C27_10 C26_10 1_555 1_555
H12_10 C27_10 1_555 1_555
C28_10 C27_10 1_555 1_555
C29_10 C28_10 1_555 1_555
H13_10 C29_10 1_555 1_555
Cd2_4 O7_6 1_555 1_555
Cd4_6 O5_6 1_555 1_555
O6_6 Cd4_6 1_555 1_555
O8_10 H17_18 1_555 1_555
O9_8 Cd2_4 1_555 1_555
O11_8 Cd2_4 1_555 1_555
O12_8 Cd2_4 1_555 1_555
O13_12 Cd2_4 1_555 1_555
O2_7 Cd4_7 1_555 1_555
O1_7 C1_11 1_555 1_555
O13_12 C2_11 1_555 1_555
O4_11 C2_11 1_555 1_555
N1_11 C7_11 1_555 1_555
C1_11 C12_11 1_555 1_555
C2_11 C3_11 1_555 1_555
C3_11 C4_11 1_555 1_555
C4_11 H1_11 1_555 1_555
C5_11 C4_11 1_555 1_555
H2_11 C5_11 1_555 1_555
C6_11 C5_11 1_555 1_555
C7_11 C6_11 1_555 1_555
C8_11 N1_11 1_555 1_555
C9_11 C8_11 1_555 1_555
C10_11 C9_11 1_555 1_555
H3_11 C10_11 1_555 1_555
C11_11 C10_11 1_555 1_555
H4_11 C11_11 1_555 1_555
C12_11 C11_11 1_555 1_555
C13_11 C12_11 1_555 1_555
H5_11 C13_11 1_555 1_555
C14_11 C9_11 1_555 1_555
H6_11 C14_11 1_555 1_555
C15_11 C6_11 1_555 1_555
H7_11 C15_11 1_555 1_555
C16_11 C3_11 1_555 1_555
H8_11 C16_11 1_555 1_555
O5_7 C17_11 1_555 1_555
O6_7 C17_11 1_555 1_555
O13_11 C18_11 1_555 1_555
O8_11 C18_11 1_555 1_555
N2_11 C23_11 1_555 1_555
C17_11 C28_11 1_555 1_555
C18_11 C19_10 1_555 1_555
C19_10 C20_10 1_555 1_555
C20_10 H9_10 1_555 1_555
C21_10 C20_10 1_555 1_555
H10_10 C21_10 1_555 1_555
C22_11 C21_10 1_555 1_555
C23_11 C7_11 1_555 1_555
C24_11 C8_11 1_555 1_555
C25_11 C24_11 1_555 1_555
C26_11 C25_11 1_555 1_555
H11_11 C26_11 1_555 1_555
C27_11 C26_11 1_555 1_555
H12_11 C27_11 1_555 1_555
C28_11 C27_11 1_555 1_555
C29_11 C28_11 1_555 1_555
H13_11 C29_11 1_555 1_555
C30_11 C25_11 1_555 1_555
H14_11 C30_11 1_555 1_555
C31_11 C22_11 1_555 1_555
H15_11 C31_11 1_555 1_555
C32_11 C19_10 1_555 1_555
H16_11 C32_11 1_555 1_555
Cd4_7 O5_7 1_555 1_555
C13_11 C14_11 1_555 1_555
C15_11 C16_11 1_555 1_555
O6_7 Cd4_7 1_555 1_555
N2_11 C24_11 1_555 1_555
C22_11 C23_11 1_555 1_555
C29_11 C30_11 1_555 1_555
C31_11 C32_11 1_555 1_555
O8_11 H17_20 1_555 1_555
O4_11 H17_21 1_555 1_555
O2_8 Cd4_8 1_555 1_555
O1_8 C1_12 1_555 1_555
N1_12 C7_12 1_555 1_555
C1_12 C12_12 1_555 1_555
C3_12 C4_12 1_555 1_555
C4_12 H1_12 1_555 1_555
C5_12 C4_12 1_555 1_555
H2_12 C5_12 1_555 1_555
C6_12 C5_12 1_555 1_555
C7_12 C6_12 1_555 1_555
C8_12 N1_12 1_555 1_555
C9_12 C8_12 1_555 1_555
C10_12 C9_12 1_555 1_555
H3_12 C10_12 1_555 1_555
C11_12 C10_12 1_555 1_555
H4_12 C11_12 1_555 1_555
C12_12 C11_12 1_555 1_555
C13_12 C12_12 1_555 1_555
H5_12 C13_12 1_555 1_555
C14_12 C9_12 1_555 1_555
H6_12 C14_12 1_555 1_555
C15_12 C6_12 1_555 1_555
H7_12 C15_12 1_555 1_555
C16_12 C3_12 1_555 1_555
O5_8 C17_12 1_555 1_555
O6_8 C17_12 1_555 1_555
O13_9 C18_12 1_555 1_555
O8_12 C18_12 1_555 1_555
N2_12 C23_12 1_555 1_555
C17_12 C28_12 1_555 1_555
C18_12 C19_11 1_555 1_555
C19_11 C20_11 1_555 1_555
C20_11 H9_11 1_555 1_555
C21_11 C20_11 1_555 1_555
H10_11 C21_11 1_555 1_555
C22_12 C21_11 1_555 1_555
C23_12 C7_12 1_555 1_555
C24_12 C8_12 1_555 1_555
C25_12 C24_12 1_555 1_555
C26_12 C25_12 1_555 1_555
H11_12 C26_12 1_555 1_555
C27_12 C26_12 1_555 1_555
H12_12 C27_12 1_555 1_555
C28_12 C27_12 1_555 1_555
C29_12 C28_12 1_555 1_555
H13_12 C29_12 1_555 1_555
C30_12 C25_12 1_555 1_555
H14_12 C30_12 1_555 1_555
C31_12 C22_12 1_555 1_555
H15_12 C31_12 1_555 1_555
C32_12 C19_11 1_555 1_555
H16_12 C32_12 1_555 1_555
Cd4_8 O5_8 1_555 1_555
C13_12 C14_12 1_555 1_555
C15_12 C16_12 1_555 1_555
O6_8 Cd4_8 1_555 1_555
N2_12 C24_12 1_555 1_555
C22_12 C23_12 1_555 1_555
C29_12 C30_12 1_555 1_555
C31_12 C32_12 1_555 1_555
O8_12 H17_22 1_555 1_555
O13_10 C2_12 1_555 1_555
O4_12 C2_12 1_555 1_555
O10_5 C17_13 1_555 1_555
O12_5 C17_13 1_555 1_555
O7_7 C18_13 1_555 1_555
O8_13 C18_13 1_555 1_555
C17_13 C28_13 1_555 1_555
C18_13 C19_12 1_555 1_555
C19_12 C20_12 1_555 1_555
C20_12 H9_12 1_555 1_555
C21_12 C20_12 1_555 1_555
H10_12 C21_12 1_555 1_555
H11_13 C26_13 1_555 1_555
C27_13 C26_13 1_555 1_555
H12_13 C27_13 1_555 1_555
C28_13 C27_13 1_555 1_555
C29_13 C28_13 1_555 1_555
H13_13 C29_13 1_555 1_555
Cd4_7 O7_7 1_555 1_555
O8_13 H17_24 1_555 1_555
Cd4_6 O3_7 1_555 1_555
O9_5 C1_13 1_555 1_555
O11_5 C1_13 1_555 1_555
O3_7 C2_13 1_555 1_555
O4_13 C2_13 1_555 1_555
N1_13 C7_13 1_555 1_555
C1_13 C12_13 1_555 1_555
C2_13 C3_13 1_555 1_555
C3_13 C4_13 1_555 1_555
C4_13 H1_13 1_555 1_555
C5_13 C4_13 1_555 1_555
H2_13 C5_13 1_555 1_555
C6_13 C5_13 1_555 1_555
C7_13 C6_13 1_555 1_555
C8_13 N1_13 1_555 1_555
C9_13 C8_13 1_555 1_555
C10_13 C9_13 1_555 1_555
H3_13 C10_13 1_555 1_555
C11_13 C10_13 1_555 1_555
H4_13 C11_13 1_555 1_555
C12_13 C11_13 1_555 1_555
C13_13 C12_13 1_555 1_555
H5_13 C13_13 1_555 1_555
C14_13 C9_13 1_555 1_555
H6_13 C14_13 1_555 1_555
C15_13 C6_13 1_555 1_555
H7_13 C15_13 1_555 1_555
C16_13 C3_13 1_555 1_555
H8_13 C16_13 1_555 1_555
N2_13 C23_13 1_555 1_555
C23_13 C7_13 1_555 1_555
C24_13 C8_13 1_555 1_555
C25_13 C24_13 1_555 1_555
C30_13 C25_13 1_555 1_555
H14_13 C30_13 1_555 1_555
C31_13 C22_13 1_555 1_555
H15_13 C31_13 1_555 1_555
H16_13 C32_13 1_555 1_555
O13_13 Cd4_6 1_555 1_555
C13_13 C14_13 1_555 1_555
C15_13 C16_13 1_555 1_555
N2_13 C24_13 1_555 1_555
C22_13 C23_13 1_555 1_555
C31_13 C32_13 1_555 1_555
O13_14 Cd4_7 1_555 1_555
O4_13 H17_25 1_555 1_555
O7_8 C18_14 1_555 1_555
O8_14 C18_14 1_555 1_555
Cd4_8 O7_8 1_555 1_555
O10_7 C17_14 1_555 1_555
O12_7 C17_14 1_555 1_555
C17_14 C28_14 1_555 1_555
H11_14 C26_14 1_555 1_555
C27_14 C26_14 1_555 1_555
H12_14 C27_14 1_555 1_555
C28_14 C27_14 1_555 1_555
C29_14 C28_14 1_555 1_555
H13_14 C29_14 1_555 1_555
O9_7 C1_14 1_555 1_555
O11_7 C1_14 1_555 1_555
C1_14 C12_14 1_555 1_555
C10_14 C9_14 1_555 1_555
H3_14 C10_14 1_555 1_555
C11_14 C10_14 1_555 1_555
H4_14 C11_14 1_555 1_555
C12_14 C11_14 1_555 1_555
C13_14 C12_14 1_555 1_555
H5_14 C13_14 1_555 1_555
C14_14 C9_14 1_555 1_555
H6_14 C14_14 1_555 1_555
C30_14 C25_14 1_555 1_555
H14_14 C30_14 1_555 1_555
C13_14 C14_14 1_555 1_555
Cd4_5 O3_8 1_555 1_555
O3_8 C2_14 1_555 1_555
O4_14 C2_14 1_555 1_555
N1_14 C7_14 1_555 1_555
C2_14 C3_14 1_555 1_555
C3_14 C4_14 1_555 1_555
C4_14 H1_14 1_555 1_555
C5_14 C4_14 1_555 1_555
H2_14 C5_14 1_555 1_555
C6_14 C5_14 1_555 1_555
C7_14 C6_14 1_555 1_555
C8_14 N1_14 1_555 1_555
C15_14 C6_14 1_555 1_555
H7_14 C15_14 1_555 1_555
C16_14 C3_14 1_555 1_555
H8_14 C16_14 1_555 1_555
N2_14 C23_14 1_555 1_555
C23_14 C7_14 1_555 1_555
C24_14 C8_14 1_555 1_555
C31_14 C22_14 1_555 1_555
H15_14 C31_14 1_555 1_555
O13_15 Cd4_5 1_555 1_555
C15_14 C16_14 1_555 1_555
N2_14 C24_14 1_555 1_555
C22_14 C23_14 1_555 1_555
C31_14 C32_14 1_555 1_555
O13_16 Cd4_8 1_555 1_555
O4_14 H17_26 1_555 1_555
O10_8 C1_15 1_555 1_555
C1_15 C12_15 1_555 1_555
C10_15 C9_15 1_555 1_555
H3_15 C10_15 1_555 1_555
C11_15 C10_15 1_555 1_555
H4_15 C11_15 1_555 1_555
C12_15 C11_15 1_555 1_555
C13_15 C12_15 1_555 1_555
H5_15 C13_15 1_555 1_555
C14_15 C9_15 1_555 1_555
H6_15 C14_15 1_555 1_555
O9_8 C17_15 1_555 1_555
O11_8 C17_15 1_555 1_555
C17_15 C28_15 1_555 1_555
C26_15 C25_15 1_555 1_555
H11_15 C26_15 1_555 1_555
C27_15 C26_15 1_555 1_555
H12_15 C27_15 1_555 1_555
C28_15 C27_15 1_555 1_555
C29_15 C28_15 1_555 1_555
H13_15 C29_15 1_555 1_555
C30_15 C25_15 1_555 1_555
H14_15 C30_15 1_555 1_555
C13_15 C14_15 1_555 1_555
C29_15 C30_15 1_555 1_555
O13_16 C2_15 1_555 1_555
O4_15 C2_15 1_555 1_555
N1_15 C7_15 1_555 1_555
C2_15 C3_15 1_555 1_555
C3_15 C4_15 1_555 1_555
C4_15 H1_15 1_555 1_555
C5_15 C4_15 1_555 1_555
H2_15 C5_15 1_555 1_555
C6_15 C5_15 1_555 1_555
C7_15 C6_15 1_555 1_555
C8_15 N1_15 1_555 1_555
C15_15 C6_15 1_555 1_555
H7_15 C15_15 1_555 1_555
C16_15 C3_15 1_555 1_555
H8_15 C16_15 1_555 1_555
O13_15 C18_15 1_555 1_555
O8_15 C18_15 1_555 1_555
N2_15 C23_15 1_555 1_555
C18_15 C19_13 1_555 1_555
C19_13 C20_13 1_555 1_555
C20_13 H9_13 1_555 1_555
C21_13 C20_13 1_555 1_555
H10_13 C21_13 1_555 1_555
C22_15 C21_13 1_555 1_555
C23_15 C7_15 1_555 1_555
C24_15 C8_15 1_555 1_555
C31_15 C22_15 1_555 1_555
H15_15 C31_15 1_555 1_555
C32_15 C19_13 1_555 1_555
H16_15 C32_15 1_555 1_555
C15_15 C16_15 1_555 1_555
N2_15 C24_15 1_555 1_555
C22_15 C23_15 1_555 1_555
C31_15 C32_15 1_555 1_555
O8_15 H17_27 1_555 1_555
O4_15 H17_28 1_555 1_555
O13_13 C18_16 1_555 1_555
O8_16 C18_16 1_555 1_555
O10_6 C1_16 1_555 1_555
O13_14 C2_16 1_555 1_555
O4_16 C2_16 1_555 1_555
N1_16 C7_16 1_555 1_555
C1_16 C12_16 1_555 1_555
C2_16 C3_16 1_555 1_555
C3_16 C4_16 1_555 1_555
C4_16 H1_16 1_555 1_555
C5_16 C4_16 1_555 1_555
H2_16 C5_16 1_555 1_555
C6_16 C5_16 1_555 1_555
C7_16 C6_16 1_555 1_555
C8_16 N1_16 1_555 1_555
C9_16 C8_16 1_555 1_555
C10_16 C9_16 1_555 1_555
H3_16 C10_16 1_555 1_555
C11_16 C10_16 1_555 1_555
H4_16 C11_16 1_555 1_555
C12_16 C11_16 1_555 1_555
C13_16 C12_16 1_555 1_555
H5_16 C13_16 1_555 1_555
C14_16 C9_16 1_555 1_555
H6_16 C14_16 1_555 1_555
C15_16 C6_16 1_555 1_555
H7_16 C15_16 1_555 1_555
C16_16 C3_16 1_555 1_555
H8_16 C16_16 1_555 1_555
O9_6 C17_16 1_555 1_555
O11_6 C17_16 1_555 1_555
N2_16 C23_16 1_555 1_555
C17_16 C28_16 1_555 1_555
C19_14 C20_14 1_555 1_555
C20_14 H9_14 1_555 1_555
C21_14 C20_14 1_555 1_555
H10_14 C21_14 1_555 1_555
C22_16 C21_14 1_555 1_555
C23_16 C7_16 1_555 1_555
C24_16 C8_16 1_555 1_555
C25_16 C24_16 1_555 1_555
C26_16 C25_16 1_555 1_555
H11_16 C26_16 1_555 1_555
C27_16 C26_16 1_555 1_555
H12_16 C27_16 1_555 1_555
C28_16 C27_16 1_555 1_555
C29_16 C28_16 1_555 1_555
H13_16 C29_16 1_555 1_555
C30_16 C25_16 1_555 1_555
H14_16 C30_16 1_555 1_555
C31_16 C22_16 1_555 1_555
H15_16 C31_16 1_555 1_555
C32_16 C19_14 1_555 1_555
C13_16 C14_16 1_555 1_555
C15_16 C16_16 1_555 1_555
N2_16 C24_16 1_555 1_555
C22_16 C23_16 1_555 1_555
C29_16 C30_16 1_555 1_555
C31_16 C32_16 1_555 1_555
O4_16 H17_30 1_555 1_555
C19_15 C20_15 1_555 1_555
C20_15 H9_15 1_555 1_555
C21_15 C20_15 1_555 1_555
H10_15 C21_15 1_555 1_555
C19_16 C20_16 1_555 1_555
C20_16 H9_16 1_555 1_555
C21_16 C20_16 1_555 1_555
H10_16 C21_16 1_555 1_555

#END
