
###############################################################################
#
# This file contains modified crystal structure data generated from the
# MOF subset of the Cambridge Structural Database (CSD) v543 
# hosted by the Cambridge Crystallographic Data Centre (CCDC).
#
# This work is licensed under the Creative Commons
# Attribution-NonCommercial-ShareAlike 4.0 International License.
# To view a copy of this license, visit
# http://creativecommons.org/licenses/by-nc-sa/4.0/
# or send a letter to
# Creative Commons, PO Box 1866, Mountain View, CA 94042, USA.
#
# CIF created using the CSD Python API on 29 September 2022
# The structure has been converted into the P1 space group
# The structure has a 3D framework
# The original CSD entry JIZJUZ is in the tetragonal crystal system
# The framework has been calculated to contain at least 10.0% void space
# The void calculation uses a probe of radius 1.32A, grid spacing 0.4
#
###############################################################################

data_JIZJUZ
_chemical_formula_moiety         '(C120 H96 Co10 N8 O40)n'
_symmetry_cell_setting           triclinic
_symmetry_space_group_name_H-M   'P 1'
_symmetry_Int_Tables_number      1
_space_group_name_Hall           'P 1'
loop_
_symmetry_equiv_pos_site_id
_symmetry_equiv_pos_as_xyz
1 x,y,z
_cell_length_a                   17.5310(9)
_cell_length_b                   17.5310(9)
_cell_length_c                   15.0883(15)
_cell_angle_alpha                90
_cell_angle_beta                 90
_cell_angle_gamma                90
_cell_volume                     4637.18
loop_
_atom_site_label
_atom_site_type_symbol
_atom_site_fract_x
_atom_site_fract_y
_atom_site_fract_z
Co1 Co 0.35919(2) 0.40050(2) 0.02995(3)
Co2 Co 0.35121(2) 0.35121(2) 0.2500
O1 O 0.35061(13) 0.25100(13) 0.19172(16)
O2 O 0.35630(13) 0.28276(13) 0.04659(15)
O3 O 0.38737(14) 0.62209(13) 0.10577(14)
O4 O 0.35946(12) 0.42580(12) 0.15839(13)
O5 O 0.37760(12) 0.51929(11) 0.02308(13)
C2 C 0.3664(2) 0.15294(18) 0.0869(2)
C3 C 0.35661(16) 0.23523(17) 0.1098(2)
C4 C 0.3542(2) 0.50389(19) 0.1798(2)
H2 H 0.3902 0.5158 0.2294
C5 C 0.37585(19) 0.55159(18) 0.09771(19)
C9 C 0.3680(2) 0.09901(19) 0.1544(3)
H5 H 0.3632 0.1141 0.2146
C11 C 0.3772(2) 0.02070(19) 0.1316(2)
C15 C 0.2735(3) 0.5267(2) 0.2066(3)
H10 H 0.2580 0.4974 0.2589
H11 H 0.2384 0.5159 0.1576
H12 H 0.2722 0.5813 0.2203
O11 O 0.25100(13) 0.35061(13) 0.30828(16)
O14 O 0.42580(12) 0.35946(12) 0.34161(13)
N3 N 0.24015(15) 0.40399(15) 0.01358(16)
C1 C 0.3844(2) 0.0539(2) 0.9774(2)
H1 H 0.3905 0.0395 0.9171
C7 C 0.3738(3) 0.1300(2) 0.9993(2)
H3 H 0.3716 0.1671 0.9535
Co6 Co 0.40050(2) 0.64081(2) 0.97005(3)
O13 O 0.37791(13) 0.38737(14) 0.89423(14)
O16 O 0.48071(11) 0.37760(12) 0.97692(13)
C6 C 0.38622(19) 0.99859(18) 0.0439(2)
C10 C 0.39443(19) 0.91658(19) 0.0231(2)
H6 H 0.3771 0.9831 0.1770
C12 C 0.4321(2) 0.86678(18) 0.0791(2)
H7 H 0.4557 0.8853 0.1316
C13 C 0.43553(19) 0.78994(18) 0.0587(2)
H8 H 0.4617 0.7569 0.0983
C16 C 0.0539(2) 0.6156(2) 0.0226(2)
H13 H 0.0395 0.6095 0.0829
C22 C 0.1300(2) 0.6262(3) 0.0007(2)
H15 H 0.1671 0.6284 0.0465
Co5 Co 0.64081(2) 0.59950(2) 0.02995(3)
C8 C 0.3696(2) 0.8084(2) 0.9313(2)
H4 H 0.3489 0.7888 0.8778
C14 C 0.3624(3) 0.8849(2) 0.9476(3)
H9 H 0.3355 0.9163 0.9070
N1 N 0.40399(15) 0.75985(15) 0.98642(16)
O6 O 0.25100(13) 0.64939(13) 0.80828(16)
O7 O 0.28276(13) 0.64370(13) 0.95341(15)
O8 O 0.62209(13) 0.61263(14) 0.89423(14)
O9 O 0.42580(12) 0.64054(12) 0.84161(13)
O10 O 0.51929(11) 0.62240(12) 0.97692(13)
C17 C 0.15294(18) 0.6336(2) 0.9131(2)
C18 C 0.23523(17) 0.64339(16) 0.8902(2)
C19 C 0.50389(19) 0.6458(2) 0.8202(2)
H14 H 0.5158 0.6098 0.7706
C20 C 0.55159(18) 0.62415(19) 0.90229(19)
C24 C 0.09901(19) 0.6320(2) 0.8456(3)
H17 H 0.1141 0.6368 0.7854
C26 C 0.02070(19) 0.6228(2) 0.8684(2)
C30 C 0.5267(2) 0.7265(3) 0.7934(3)
H22 H 0.4974 0.7420 0.7411
H23 H 0.5159 0.7616 0.8424
H24 H 0.5813 0.7278 0.7797
Co7 Co 0.35121(2) 0.64879(2) 0.7500
C23 C 0.8084(2) 0.6304(2) 0.0687(2)
H16 H 0.7888 0.6511 0.1222
C29 C 0.8849(2) 0.6376(3) 0.0524(3)
H21 H 0.9163 0.6645 0.0930
N2 N 0.75985(15) 0.59601(15) 0.01358(16)
C21 C 0.99859(18) 0.61378(19) 0.9561(2)
C25 C 0.91658(19) 0.60557(19) 0.9769(2)
H18 H 0.9831 0.6229 0.8230
C27 C 0.86678(18) 0.5679(2) 0.9209(2)
H19 H 0.8853 0.5443 0.8684
C28 C 0.78994(18) 0.56447(19) 0.9413(2)
H20 H 0.7569 0.5383 0.9017
C23_2 C 0.1916(2) 0.3696(2) 0.0687(2)
H16_2 H 0.2112 0.3489 0.1222
C29_2 C 0.1151(2) 0.3624(3) 0.0524(3)
H21_2 H 0.0837 0.3355 0.0930
C21_2 C 0.00141(18) 0.38622(19) 0.9561(2)
C25_2 C 0.08342(19) 0.39443(19) 0.9769(2)
H18_2 H 0.0169 0.3771 0.8230
C27_2 C 0.13322(18) 0.4321(2) 0.9209(2)
H19_2 H 0.1147 0.4557 0.8684
C28_2 C 0.21006(18) 0.43553(19) 0.9413(2)
H20_2 H 0.2431 0.4617 0.9017
C6_2 C 0.61378(19) 0.00141(18) 0.0439(2)
C10_2 C 0.60557(19) 0.08342(19) 0.0231(2)
H6_2 H 0.6229 0.0169 0.1770
C12_2 C 0.5679(2) 0.13322(18) 0.0791(2)
H7_2 H 0.5443 0.1147 0.1316
C13_2 C 0.56447(19) 0.21006(18) 0.0587(2)
H8_2 H 0.5383 0.2431 0.0983
C16_2 C 0.9461(2) 0.3844(2) 0.0226(2)
H13_2 H 0.9605 0.3905 0.0829
C22_2 C 0.8700(2) 0.3738(3) 0.0007(2)
H15_2 H 0.8329 0.3716 0.0465
O12 O 0.61263(14) 0.37791(13) 0.10577(14)
O15 O 0.62240(12) 0.48071(11) 0.02308(13)
C8_2 C 0.6304(2) 0.1916(2) 0.9313(2)
H4_2 H 0.6511 0.2112 0.8778
C14_2 C 0.6376(3) 0.1151(2) 0.9476(3)
H9_2 H 0.6645 0.0837 0.9070
N1_2 N 0.59601(15) 0.24015(15) 0.98642(16)
Co3 Co 0.59950(2) 0.35919(2) 0.97005(3)
O6_2 O 0.74900(13) 0.35061(13) 0.80828(16)
O7_2 O 0.71724(13) 0.35630(13) 0.95341(15)
O9_2 O 0.57420(12) 0.35946(12) 0.84161(13)
C17_2 C 0.84706(18) 0.3664(2) 0.9131(2)
C18_2 C 0.76477(17) 0.35661(16) 0.8902(2)
C19_2 C 0.49611(19) 0.3542(2) 0.8202(2)
H14_2 H 0.4842 0.3902 0.7706
C20_2 C 0.44841(18) 0.37585(19) 0.90229(19)
C24_2 C 0.90099(19) 0.3680(2) 0.8456(3)
H17_2 H 0.8859 0.3632 0.7854
C26_2 C 0.97930(19) 0.3772(2) 0.8684(2)
C30_2 C 0.4733(2) 0.2735(3) 0.7934(3)
H22_2 H 0.5026 0.2580 0.7411
H23_2 H 0.4841 0.2384 0.8424
H24_2 H 0.4187 0.2722 0.7797
Co7_2 Co 0.64879(2) 0.35121(2) 0.7500
Co2_2 Co 0.64879(2) 0.64879(2) 0.2500
O1_2 O 0.64939(13) 0.74900(13) 0.19172(16)
O2_2 O 0.64370(13) 0.71724(13) 0.04659(15)
O4_2 O 0.64054(12) 0.57420(12) 0.15839(13)
C2_2 C 0.6336(2) 0.84706(18) 0.0869(2)
C3_2 C 0.64339(16) 0.76477(17) 0.1098(2)
C4_2 C 0.6458(2) 0.49611(19) 0.1798(2)
H2_2 H 0.6098 0.4842 0.2294
C5_2 C 0.62415(19) 0.44841(18) 0.09771(19)
C9_2 C 0.6320(2) 0.90099(19) 0.1544(3)
H5_2 H 0.6368 0.8859 0.2146
C11_2 C 0.6228(2) 0.97930(19) 0.1316(2)
C15_2 C 0.7265(3) 0.4733(2) 0.2066(3)
H10_2 H 0.7420 0.5026 0.2589
H11_2 H 0.7616 0.4841 0.1576
H12_2 H 0.7278 0.4187 0.2203
O11_2 O 0.74900(13) 0.64939(13) 0.30828(16)
O14_2 O 0.57420(12) 0.64054(12) 0.34161(13)
C1_2 C 0.6156(2) 0.9461(2) 0.9774(2)
H1_2 H 0.6095 0.9605 0.9171
C7_2 C 0.6262(3) 0.8700(2) 0.9993(2)
H3_2 H 0.6284 0.8329 0.9535
O11_3 O 0.35061(13) 0.74900(13) 0.69172(16)
O14_3 O 0.35946(12) 0.57420(12) 0.65839(13)
O11_4 O 0.64939(13) 0.25100(13) 0.69172(16)
O14_4 O 0.64054(12) 0.42580(12) 0.65839(13)
C6_3 C 0.38622(19) 0.00141(18) 0.5439(2)
C8_3 C 0.3696(2) 0.1916(2) 0.4313(2)
H4_3 H 0.3489 0.2112 0.3778
C10_3 C 0.39443(19) 0.08342(19) 0.5231(2)
H6_3 H 0.3771 0.0169 0.6770
C12_3 C 0.4321(2) 0.13322(18) 0.5791(2)
H7_3 H 0.4557 0.1147 0.6316
C13_3 C 0.43553(19) 0.21006(18) 0.5587(2)
H8_3 H 0.4617 0.2431 0.5983
C14_3 C 0.3624(3) 0.1151(2) 0.4476(3)
H9_3 H 0.3355 0.0837 0.4070
N1_3 N 0.40399(15) 0.24015(15) 0.48642(16)
Co3_2 Co 0.40050(2) 0.35919(2) 0.47005(3)
O7_3 O 0.28276(13) 0.35630(13) 0.45341(15)
O8_2 O 0.62209(13) 0.38737(14) 0.39423(14)
O10_2 O 0.51929(11) 0.37760(12) 0.47692(13)
C16_3 C 0.0539(2) 0.3844(2) 0.5226(2)
H13_3 H 0.0395 0.3905 0.5829
C17_3 C 0.15294(18) 0.3664(2) 0.4131(2)
C18_3 C 0.23523(17) 0.35661(16) 0.3902(2)
C19_3 C 0.50389(19) 0.3542(2) 0.3202(2)
H14_3 H 0.5158 0.3902 0.2706
C20_3 C 0.55159(18) 0.37585(19) 0.40229(19)
C22_3 C 0.1300(2) 0.3738(3) 0.5007(2)
H15_3 H 0.1671 0.3716 0.5465
C24_3 C 0.09901(19) 0.3680(2) 0.3456(3)
H17_3 H 0.1141 0.3632 0.2854
C26_3 C 0.02070(19) 0.3772(2) 0.3684(2)
C30_3 C 0.5267(2) 0.2735(3) 0.2934(3)
H22_3 H 0.4974 0.2580 0.2411
H23_3 H 0.5159 0.2384 0.3424
H24_3 H 0.5813 0.2722 0.2797
Co5_2 Co 0.64081(2) 0.40050(2) 0.52995(3)
O12_2 O 0.38737(14) 0.37791(13) 0.60577(14)
O15_2 O 0.37760(12) 0.48071(11) 0.52308(13)
Co1_2 Co 0.35919(2) 0.59950(2) 0.52995(3)
O2_3 O 0.35630(13) 0.71724(13) 0.54659(15)
C1_3 C 0.3844(2) 0.9461(2) 0.4774(2)
H1_3 H 0.3905 0.9605 0.4171
C2_3 C 0.3664(2) 0.84706(18) 0.5869(2)
C3_3 C 0.35661(16) 0.76477(17) 0.6098(2)
C4_3 C 0.3542(2) 0.49611(19) 0.6798(2)
H2_3 H 0.3902 0.4842 0.7294
C5_3 C 0.37585(19) 0.44841(18) 0.59771(19)
C7_3 C 0.3738(3) 0.8700(2) 0.4993(2)
H3_3 H 0.3716 0.8329 0.4535
C9_3 C 0.3680(2) 0.90099(19) 0.6544(3)
H5_3 H 0.3632 0.8859 0.7146
C11_3 C 0.3772(2) 0.97930(19) 0.6316(2)
C15_3 C 0.2735(3) 0.4733(2) 0.7066(3)
H10_3 H 0.2580 0.5026 0.7589
H11_3 H 0.2384 0.4841 0.6576
H12_3 H 0.2722 0.4187 0.7203
O13_2 O 0.37791(13) 0.61263(14) 0.39423(14)
O16_2 O 0.48071(11) 0.62240(12) 0.47692(13)
N3_2 N 0.24015(15) 0.59601(15) 0.51358(16)
C21_3 C 0.99859(18) 0.38622(19) 0.4561(2)
C23_3 C 0.8084(2) 0.3696(2) 0.5687(2)
H16_3 H 0.7888 0.3489 0.6222
C25_3 C 0.91658(19) 0.39443(19) 0.4769(2)
H18_3 H 0.9831 0.3771 0.3230
C27_3 C 0.86678(18) 0.4321(2) 0.4209(2)
H19_3 H 0.8853 0.4557 0.3684
C28_3 C 0.78994(18) 0.43553(19) 0.4413(2)
H20_3 H 0.7569 0.4617 0.4017
C29_3 C 0.8849(2) 0.3624(3) 0.5524(3)
H21_3 H 0.9163 0.3355 0.5930
N2_2 N 0.75985(15) 0.40399(15) 0.51358(16)
C21_4 C 0.00141(18) 0.61378(19) 0.4561(2)
C23_4 C 0.1916(2) 0.6304(2) 0.5687(2)
H16_4 H 0.2112 0.6511 0.6222
C25_4 C 0.08342(19) 0.60557(19) 0.4769(2)
H18_4 H 0.0169 0.6229 0.3230
C27_4 C 0.13322(18) 0.5679(2) 0.4209(2)
H19_4 H 0.1147 0.5443 0.3684
C28_4 C 0.21006(18) 0.56447(19) 0.4413(2)
H20_4 H 0.2431 0.5383 0.4017
C29_4 C 0.1151(2) 0.6376(3) 0.5524(3)
H21_4 H 0.0837 0.6645 0.5930
O2_4 O 0.64370(13) 0.28276(13) 0.54659(15)
O3_2 O 0.61263(14) 0.62209(13) 0.60577(14)
O5_2 O 0.62240(12) 0.51929(11) 0.52308(13)
C1_4 C 0.6156(2) 0.0539(2) 0.4774(2)
H1_4 H 0.6095 0.0395 0.4171
C2_4 C 0.6336(2) 0.15294(18) 0.5869(2)
C3_4 C 0.64339(16) 0.23523(17) 0.6098(2)
C4_4 C 0.6458(2) 0.50389(19) 0.6798(2)
H2_4 H 0.6098 0.5158 0.7294
C5_4 C 0.62415(19) 0.55159(18) 0.59771(19)
C7_4 C 0.6262(3) 0.1300(2) 0.4993(2)
H3_4 H 0.6284 0.1671 0.4535
C9_4 C 0.6320(2) 0.09901(19) 0.6544(3)
H5_4 H 0.6368 0.1141 0.7146
C11_4 C 0.6228(2) 0.02070(19) 0.6316(2)
C15_4 C 0.7265(3) 0.5267(2) 0.7066(3)
H10_4 H 0.7420 0.4974 0.7589
H11_4 H 0.7616 0.5159 0.6576
H12_4 H 0.7278 0.5813 0.7203
Co6_2 Co 0.59950(2) 0.64081(2) 0.47005(3)
C6_4 C 0.61378(19) 0.99859(18) 0.5439(2)
C8_4 C 0.6304(2) 0.8084(2) 0.4313(2)
H4_4 H 0.6511 0.7888 0.3778
C10_4 C 0.60557(19) 0.91658(19) 0.5231(2)
H6_4 H 0.6229 0.9831 0.6770
C12_4 C 0.5679(2) 0.86678(18) 0.5791(2)
H7_4 H 0.5443 0.8853 0.6316
C13_4 C 0.56447(19) 0.78994(18) 0.5587(2)
H8_4 H 0.5383 0.7569 0.5983
C14_4 C 0.6376(3) 0.8849(2) 0.4476(3)
H9_4 H 0.6645 0.9163 0.4070
N1_4 N 0.59601(15) 0.75985(15) 0.48642(16)
O7_4 O 0.71724(13) 0.64370(13) 0.45341(15)
C16_4 C 0.9461(2) 0.6156(2) 0.5226(2)
H13_4 H 0.9605 0.6095 0.5829
C17_4 C 0.84706(18) 0.6336(2) 0.4131(2)
C18_4 C 0.76477(17) 0.64339(16) 0.3902(2)
C19_4 C 0.49611(19) 0.6458(2) 0.3202(2)
H14_4 H 0.4842 0.6098 0.2706
C20_4 C 0.44841(18) 0.62415(19) 0.40229(19)
C22_4 C 0.8700(2) 0.6262(3) 0.5007(2)
H15_4 H 0.8329 0.6284 0.5465
C24_4 C 0.90099(19) 0.6320(2) 0.3456(3)
H17_4 H 0.8859 0.6368 0.2854
C26_4 C 0.97930(19) 0.6228(2) 0.3684(2)
C30_4 C 0.4733(2) 0.7265(3) 0.2934(3)
H22_4 H 0.5026 0.7420 0.2411
H23_4 H 0.4841 0.7616 0.3424
H24_4 H 0.4187 0.7278 0.2797
loop_
_geom_bond_atom_site_label_1
_geom_bond_atom_site_label_2
_geom_bond_site_symmetry_1
_geom_bond_site_symmetry_2
Co1 O2 1_555 1_555
Co2 O1 1_555 1_555
O1 C3 1_555 1_555
O2 C3 1_555 1_555
O3 C5 1_555 1_555
O4 Co1 1_555 1_555
O5 Co1 1_555 1_555
C2 C3 1_555 1_555
C4 O4 1_555 1_555
H2 C4 1_555 1_555
C5 O5 1_555 1_555
C9 C2 1_555 1_555
H5 C9 1_555 1_555
C15 C4 1_555 1_555
H10 C15 1_555 1_555
H11 C15 1_555 1_555
H12 C15 1_555 1_555
O11 Co2 1_555 1_555
O14 Co2 1_555 1_555
N3 Co1 1_555 1_555
Co2 O4 1_555 1_555
C4 C5 1_555 1_555
C9 C11 1_555 1_555
C1 H1 1_555 1_555
C7 C1 1_555 1_555
H3 C7 1_555 1_555
C10 C6 1_555 1_555
C12 C10 1_555 1_555
H7 C12 1_555 1_555
C13 C12 1_555 1_555
H8 C13 1_555 1_555
C16 H13 1_555 1_555
C22 C16 1_555 1_555
H15 C22 1_555 1_555
C8 H4 1_555 1_555
C14 C8 1_555 1_555
H9 C14 1_555 1_555
N1 C8 1_555 1_555
Co6 N1 1_555 1_555
O6 C18 1_555 1_555
O7 Co6 1_555 1_555
O8 C20 1_555 1_555
O9 Co6 1_555 1_555
O10 Co6 1_555 1_555
C17 C18 1_555 1_555
C18 O7 1_555 1_555
C19 O9 1_555 1_555
H14 C19 1_555 1_555
C20 O10 1_555 1_555
C24 C17 1_555 1_555
H17 C24 1_555 1_555
C30 C19 1_555 1_555
H22 C30 1_555 1_555
H23 C30 1_555 1_555
H24 C30 1_555 1_555
Co7 O6 1_555 1_555
O9 Co7 1_555 1_555
C19 C20 1_555 1_555
C24 C26 1_555 1_555
C23 H16 1_555 1_555
C29 C23 1_555 1_555
H21 C29 1_555 1_555
N2 C23 1_555 1_555
Co5 N2 1_555 1_555
C25 C21 1_555 1_555
C27 C25 1_555 1_555
H19 C27 1_555 1_555
C28 C27 1_555 1_555
H20 C28 1_555 1_555
C23_2 H16_2 1_555 1_555
C29_2 C23_2 1_555 1_555
H21_2 C29_2 1_555 1_555
N3 C23_2 1_555 1_555
C25_2 C21_2 1_555 1_555
C27_2 C25_2 1_555 1_555
H19_2 C27_2 1_555 1_555
C28_2 C27_2 1_555 1_555
H20_2 C28_2 1_555 1_555
C10_2 C6_2 1_555 1_555
C12_2 C10_2 1_555 1_555
H7_2 C12_2 1_555 1_555
C13_2 C12_2 1_555 1_555
H8_2 C13_2 1_555 1_555
C16_2 H13_2 1_555 1_555
C22_2 C16_2 1_555 1_555
H15_2 C22_2 1_555 1_555
C8_2 H4_2 1_555 1_555
C14_2 C8_2 1_555 1_555
H9_2 C14_2 1_555 1_555
N1_2 C8_2 1_555 1_555
Co3 N1_2 1_555 1_555
O6_2 C18_2 1_555 1_555
O7_2 Co3 1_555 1_555
O13 C20_2 1_555 1_555
O9_2 Co3 1_555 1_555
O16 Co3 1_555 1_555
C17_2 C18_2 1_555 1_555
C18_2 O7_2 1_555 1_555
C19_2 O9_2 1_555 1_555
H14_2 C19_2 1_555 1_555
C20_2 O16 1_555 1_555
C24_2 C17_2 1_555 1_555
H17_2 C24_2 1_555 1_555
C30_2 C19_2 1_555 1_555
H22_2 C30_2 1_555 1_555
H23_2 C30_2 1_555 1_555
H24_2 C30_2 1_555 1_555
Co7_2 O6_2 1_555 1_555
O9_2 Co7_2 1_555 1_555
C19_2 C20_2 1_555 1_555
C24_2 C26_2 1_555 1_555
Co5 O2_2 1_555 1_555
Co2_2 O1_2 1_555 1_555
O1_2 C3_2 1_555 1_555
O2_2 C3_2 1_555 1_555
O12 C5_2 1_555 1_555
O4_2 Co5 1_555 1_555
O15 Co5 1_555 1_555
C2_2 C3_2 1_555 1_555
C4_2 O4_2 1_555 1_555
H2_2 C4_2 1_555 1_555
C5_2 O15 1_555 1_555
C9_2 C2_2 1_555 1_555
H5_2 C9_2 1_555 1_555
C15_2 C4_2 1_555 1_555
H10_2 C15_2 1_555 1_555
H11_2 C15_2 1_555 1_555
H12_2 C15_2 1_555 1_555
O11_2 Co2_2 1_555 1_555
O14_2 Co2_2 1_555 1_555
Co2_2 O4_2 1_555 1_555
C4_2 C5_2 1_555 1_555
C9_2 C11_2 1_555 1_555
C1_2 H1_2 1_555 1_555
C7_2 C1_2 1_555 1_555
H3_2 C7_2 1_555 1_555
O11_3 Co7 1_555 1_555
O14_3 Co7 1_555 1_555
O11_4 Co7_2 1_555 1_555
O14_4 Co7_2 1_555 1_555
C8_3 H4_3 1_555 1_555
C10_3 C6_3 1_555 1_555
C12_3 C10_3 1_555 1_555
H7_3 C12_3 1_555 1_555
C13_3 C12_3 1_555 1_555
H8_3 C13_3 1_555 1_555
C14_3 C8_3 1_555 1_555
H9_3 C14_3 1_555 1_555
N1_3 C8_3 1_555 1_555
Co3_2 N1_3 1_555 1_555
O11 C18_3 1_555 1_555
O7_3 Co3_2 1_555 1_555
O8_2 C20_3 1_555 1_555
O14 Co3_2 1_555 1_555
O10_2 Co3_2 1_555 1_555
C16_3 H13_3 1_555 1_555
C17_3 C18_3 1_555 1_555
C18_3 O7_3 1_555 1_555
C19_3 O14 1_555 1_555
H14_3 C19_3 1_555 1_555
C20_3 O10_2 1_555 1_555
C22_3 C16_3 1_555 1_555
H15_3 C22_3 1_555 1_555
C24_3 C17_3 1_555 1_555
H17_3 C24_3 1_555 1_555
C30_3 C19_3 1_555 1_555
H22_3 C30_3 1_555 1_555
H23_3 C30_3 1_555 1_555
H24_3 C30_3 1_555 1_555
Co5_2 O8_2 1_555 1_555
O12_2 Co3_2 1_555 1_555
O15_2 Co3_2 1_555 1_555
C10_3 C14_3 1_555 1_555
C13_3 N1_3 1_555 1_555
O10_2 Co5_2 1_555 1_555
C17_3 C22_3 1_555 1_555
C19_3 C20_3 1_555 1_555
C24_3 C26_3 1_555 1_555
Co1_2 O2_3 1_555 1_555
O11_3 C3_3 1_555 1_555
O2_3 C3_3 1_555 1_555
O12_2 C5_3 1_555 1_555
O14_3 Co1_2 1_555 1_555
O15_2 Co1_2 1_555 1_555
C1_3 H1_3 1_555 1_555
C2_3 C3_3 1_555 1_555
C4_3 O14_3 1_555 1_555
H2_3 C4_3 1_555 1_555
C5_3 O15_2 1_555 1_555
C7_3 C1_3 1_555 1_555
H3_3 C7_3 1_555 1_555
C9_3 C2_3 1_555 1_555
H5_3 C9_3 1_555 1_555
C15_3 C4_3 1_555 1_555
H10_3 C15_3 1_555 1_555
H11_3 C15_3 1_555 1_555
H12_3 C15_3 1_555 1_555
O13_2 Co1_2 1_555 1_555
O16_2 Co1_2 1_555 1_555
N3_2 Co1_2 1_555 1_555
C2_3 C7_3 1_555 1_555
C4_3 C5_3 1_555 1_555
C9_3 C11_3 1_555 1_555
C23_3 H16_3 1_555 1_555
C25_3 C21_3 1_555 1_555
C27_3 C25_3 1_555 1_555
H19_3 C27_3 1_555 1_555
C28_3 C27_3 1_555 1_555
H20_3 C28_3 1_555 1_555
C29_3 C23_3 1_555 1_555
H21_3 C29_3 1_555 1_555
N2_2 C23_3 1_555 1_555
Co5_2 N2_2 1_555 1_555
C25_3 C29_3 1_555 1_555
C28_3 N2_2 1_555 1_555
C23_4 H16_4 1_555 1_555
C25_4 C21_4 1_555 1_555
C27_4 C25_4 1_555 1_555
H19_4 C27_4 1_555 1_555
C28_4 C27_4 1_555 1_555
H20_4 C28_4 1_555 1_555
C29_4 C23_4 1_555 1_555
H21_4 C29_4 1_555 1_555
N3_2 C23_4 1_555 1_555
C25_4 C29_4 1_555 1_555
C28_4 N3_2 1_555 1_555
Co5_2 O2_4 1_555 1_555
O11_4 C3_4 1_555 1_555
O2_4 C3_4 1_555 1_555
O3_2 C5_4 1_555 1_555
O14_4 Co5_2 1_555 1_555
O5_2 Co5_2 1_555 1_555
C1_4 H1_4 1_555 1_555
C2_4 C3_4 1_555 1_555
C4_4 O14_4 1_555 1_555
H2_4 C4_4 1_555 1_555
C5_4 O5_2 1_555 1_555
C7_4 C1_4 1_555 1_555
H3_4 C7_4 1_555 1_555
C9_4 C2_4 1_555 1_555
H5_4 C9_4 1_555 1_555
C15_4 C4_4 1_555 1_555
H10_4 C15_4 1_555 1_555
H11_4 C15_4 1_555 1_555
H12_4 C15_4 1_555 1_555
Co6_2 O3_2 1_555 1_555
O5_2 Co6_2 1_555 1_555
C2_4 C7_4 1_555 1_555
C4_4 C5_4 1_555 1_555
C9_4 C11_4 1_555 1_555
C8_4 H4_4 1_555 1_555
C10_4 C6_4 1_555 1_555
C12_4 C10_4 1_555 1_555
H7_4 C12_4 1_555 1_555
C13_4 C12_4 1_555 1_555
H8_4 C13_4 1_555 1_555
C14_4 C8_4 1_555 1_555
H9_4 C14_4 1_555 1_555
N1_4 C8_4 1_555 1_555
Co6_2 N1_4 1_555 1_555
O11_2 C18_4 1_555 1_555
O7_4 Co6_2 1_555 1_555
O13_2 C20_4 1_555 1_555
O14_2 Co6_2 1_555 1_555
O16_2 Co6_2 1_555 1_555
C16_4 H13_4 1_555 1_555
C17_4 C18_4 1_555 1_555
C18_4 O7_4 1_555 1_555
C19_4 O14_2 1_555 1_555
H14_4 C19_4 1_555 1_555
C20_4 O16_2 1_555 1_555
C22_4 C16_4 1_555 1_555
H15_4 C22_4 1_555 1_555
C24_4 C17_4 1_555 1_555
H17_4 C24_4 1_555 1_555
C30_4 C19_4 1_555 1_555
H22_4 C30_4 1_555 1_555
H23_4 C30_4 1_555 1_555
H24_4 C30_4 1_555 1_555
C10_4 C14_4 1_555 1_555
C13_4 N1_4 1_555 1_555
C17_4 C22_4 1_555 1_555
C19_4 C20_4 1_555 1_555
C24_4 C26_4 1_555 1_555

#END
