
###############################################################################
#
# This file contains modified crystal structure data generated from the
# MOF subset of the Cambridge Structural Database (CSD) v543 
# hosted by the Cambridge Crystallographic Data Centre (CCDC).
#
# This work is licensed under the Creative Commons
# Attribution-NonCommercial-ShareAlike 4.0 International License.
# To view a copy of this license, visit
# http://creativecommons.org/licenses/by-nc-sa/4.0/
# or send a letter to
# Creative Commons, PO Box 1866, Mountain View, CA 94042, USA.
#
# CIF created using the CSD Python API on 29 September 2022
# The structure has been converted into the P1 space group
# The structure has a 3D framework
# The original CSD entry JIZJOT is in the tetragonal crystal system
# The framework has been calculated to contain at least 10.0% void space
# The void calculation uses a probe of radius 1.32A, grid spacing 0.4
#
###############################################################################

data_JIZJOT
_chemical_formula_moiety         '(C120 H96 Co10 N8 O40)n'
_symmetry_cell_setting           triclinic
_symmetry_space_group_name_H-M   'P 1'
_symmetry_Int_Tables_number      1
_space_group_name_Hall           'P 1'
loop_
_symmetry_equiv_pos_site_id
_symmetry_equiv_pos_as_xyz
1 x,y,z
_cell_length_a                   17.5096(4)
_cell_length_b                   17.5096(4)
_cell_length_c                   15.1902(7)
_cell_angle_alpha                90
_cell_angle_beta                 90
_cell_angle_gamma                90
_cell_volume                     4657.1
loop_
_atom_site_label
_atom_site_type_symbol
_atom_site_fract_x
_atom_site_fract_y
_atom_site_fract_z
Co6 Co 0.13965(4) 0.10233(4) 0.03218(5)
C1 C 0.0496(3) 0.1278(4) 0.9039(4)
C2 C 0.0029(4) 0.1456(5) 0.8218(4)
H1 H 0.0169 0.1093 0.7737
C3 C 0.0254(5) 0.2299(6) 0.7938(6)
H3 H 0.0802 0.2322 0.7814
H4 H 0.0130 0.2652 0.8417
O1 O 0.1205(2) 0.1192(3) 0.8979(3)
O2 O 0.0167(2) 0.1223(2) 0.9771(3)
H5 H 0.6637 0.1303 0.0450
C7 C 0.5509(4) 0.1200(4) 0.0182(5)
H6 H 0.5352 0.1174 0.0780
C14 C 0.3054(4) 0.1373(3) 0.0656(5)
H11 H 0.2858 0.1610 0.1171
C15 C 0.3845(4) 0.1442(4) 0.0480(5)
H12 H 0.4166 0.1726 0.0863
N1 N 0.2573(3) 0.0996(3) 0.0140(3)
H14 H 0.2443 0.0032 0.2591
C19 C 0.1421(3) 0.2657(3) 0.1158(5)
C20 C 0.1323(4) 0.3477(4) 0.0884(5)
C21 C 0.1279(5) 0.3726(4) 0.0015(5)
C23 C 0.1159(3) 0.5029(3) 0.0471(4)
C24 C 0.1207(4) 0.4805(4) 0.1329(4)
H19 H 0.1163 0.5179 0.1779
C25 C 0.1319(4) 0.4038(4) 0.1567(5)
H20 H 0.1390 0.3896 0.2165
C26 C 0.1089(3) 0.5857(3) 0.0258(4)
C27 C 0.0680(4) 0.6348(3) 0.0786(4)
H21 H 0.0424 0.6161 0.1293
C28 C 0.0644(3) 0.7124(3) 0.0570(4)
H22 H 0.0358 0.7455 0.0941
O8 O 0.1386(3) 0.0749(2) 0.1590(3)
O9 O 0.1485(3) 0.2502(2) 0.1933(3)
O10 O 0.1404(3) 0.2187(3) 0.0508(3)
Co7 Co 0.14943(4) 0.14943(4) 0.2500
O12 O 0.8808(3) 0.1205(2) 0.1021(3)
O14 O 0.8777(2) 0.0167(2) 0.0229(3)
Co1 Co 0.89767(4) 0.13965(4) 0.96782(5)
Co2 Co 0.85057(4) 0.14943(4) 0.7500
H2 H 0.9968 0.2443 0.7409
C4 C 0.7343(3) 0.1421(3) 0.8842(5)
C5 C 0.6523(4) 0.1323(4) 0.9116(5)
C6 C 0.6274(4) 0.1279(5) 0.9985(5)
C8 C 0.4971(3) 0.1159(3) 0.9529(4)
C9 C 0.5195(4) 0.1207(4) 0.8671(4)
H7 H 0.4821 0.1163 0.8221
C10 C 0.5962(4) 0.1319(4) 0.8433(5)
H8 H 0.6104 0.1390 0.7835
C11 C 0.4143(3) 0.1089(3) 0.9742(4)
C12 C 0.3652(3) 0.0680(4) 0.9214(4)
H9 H 0.3839 0.0424 0.8707
C13 C 0.2876(3) 0.0644(3) 0.9430(4)
H10 H 0.2545 0.0358 0.9059
O3 O 0.9251(2) 0.1386(3) 0.8410(3)
O4 O 0.7498(2) 0.1485(3) 0.8067(3)
O5 O 0.7813(3) 0.1404(3) 0.9492(3)
H17 H 0.1303 0.3363 0.9550
C22 C 0.1200(4) 0.4491(4) 0.9818(5)
H18 H 0.1174 0.4648 0.9220
C29 C 0.1373(3) 0.6946(4) 0.9344(5)
H23 H 0.1610 0.7142 0.8829
C30 C 0.1442(4) 0.6155(4) 0.9520(5)
H24 H 0.1726 0.5834 0.9137
N2 N 0.0996(3) 0.7427(3) 0.9860(3)
Co5 Co 0.10233(4) 0.86035(4) 0.96782(5)
N3 N 0.9004(3) 0.2573(3) 0.9860(3)
O15 O 0.8614(3) 0.0749(2) 0.6590(3)
O16 O 0.8515(3) 0.2502(2) 0.6933(3)
C16 C 0.1278(4) 0.9504(3) 0.0961(4)
C17 C 0.1456(5) 0.9971(4) 0.1782(4)
H13 H 0.1093 0.9831 0.2263
C18 C 0.2299(6) 0.9746(5) 0.2062(6)
H15 H 0.2322 0.9198 0.2186
H16 H 0.2652 0.9870 0.1583
O6 O 0.1192(3) 0.8795(2) 0.1021(3)
O7 O 0.1223(2) 0.9833(2) 0.0229(3)
C16_2 C 0.8722(4) 0.0496(3) 0.0961(4)
C17_2 C 0.8544(5) 0.0029(4) 0.1782(4)
H13_2 H 0.8907 0.0169 0.2263
C18_2 C 0.7701(6) 0.0254(5) 0.2062(6)
H15_2 H 0.7678 0.0802 0.2186
H16_2 H 0.7348 0.0130 0.1583
H5_2 H 0.3363 0.8697 0.0450
C7_2 C 0.4491(4) 0.8800(4) 0.0182(5)
H6_2 H 0.4648 0.8826 0.0780
C14_2 C 0.6946(4) 0.8627(3) 0.0656(5)
H11_2 H 0.7142 0.8390 0.1171
C15_2 C 0.6155(4) 0.8558(4) 0.0480(5)
H12_2 H 0.5834 0.8274 0.0863
N1_2 N 0.7427(3) 0.9004(3) 0.0140(3)
Co3 Co 0.86035(4) 0.89767(4) 0.03218(5)
H14_2 H 0.7557 0.9968 0.2591
C19_2 C 0.8579(3) 0.7343(3) 0.1158(5)
C20_2 C 0.8677(4) 0.6523(4) 0.0884(5)
C21_2 C 0.8721(5) 0.6274(4) 0.0015(5)
C23_2 C 0.8841(3) 0.4971(3) 0.0471(4)
C24_2 C 0.8793(4) 0.5195(4) 0.1329(4)
H19_2 H 0.8837 0.4821 0.1779
C25_2 C 0.8681(4) 0.5962(4) 0.1567(5)
H20_2 H 0.8610 0.6104 0.2165
C26_2 C 0.8911(3) 0.4143(3) 0.0258(4)
C27_2 C 0.9320(4) 0.3652(3) 0.0786(4)
H21_2 H 0.9576 0.3839 0.1293
C28_2 C 0.9356(3) 0.2876(3) 0.0570(4)
H22_2 H 0.9642 0.2545 0.0941
O8_2 O 0.8614(3) 0.9251(2) 0.1590(3)
O9_2 O 0.8515(3) 0.7498(2) 0.1933(3)
O10_2 O 0.8596(3) 0.7813(3) 0.0508(3)
Co7_2 Co 0.85057(4) 0.85057(4) 0.2500
Co2_2 Co 0.14943(4) 0.85057(4) 0.7500
H2_2 H 0.0032 0.7557 0.7409
C4_2 C 0.2657(3) 0.8579(3) 0.8842(5)
C5_2 C 0.3477(4) 0.8677(4) 0.9116(5)
C6_2 C 0.3726(4) 0.8721(5) 0.9985(5)
C8_2 C 0.5029(3) 0.8841(3) 0.9529(4)
C9_2 C 0.4805(4) 0.8793(4) 0.8671(4)
H7_2 H 0.5179 0.8837 0.8221
C10_2 C 0.4038(4) 0.8681(4) 0.8433(5)
H8_2 H 0.3896 0.8610 0.7835
C11_2 C 0.5857(3) 0.8911(3) 0.9742(4)
C12_2 C 0.6348(3) 0.9320(4) 0.9214(4)
H9_2 H 0.6161 0.9576 0.8707
C13_2 C 0.7124(3) 0.9356(3) 0.9430(4)
H10_2 H 0.7455 0.9642 0.9059
O3_2 O 0.0749(2) 0.8614(3) 0.8410(3)
O4_2 O 0.2502(2) 0.8515(3) 0.8067(3)
O5_2 O 0.2187(3) 0.8596(3) 0.9492(3)
H17_2 H 0.8697 0.6637 0.9550
C22_2 C 0.8800(4) 0.5509(4) 0.9818(5)
H18_2 H 0.8826 0.5352 0.9220
C29_2 C 0.8627(3) 0.3054(4) 0.9344(5)
H23_2 H 0.8390 0.2858 0.8829
C30_2 C 0.8558(4) 0.3845(4) 0.9520(5)
H24_2 H 0.8274 0.4166 0.9137
O11 O 0.8795(2) 0.8808(3) 0.8979(3)
O13 O 0.9833(2) 0.8777(2) 0.9771(3)
O15_2 O 0.1386(3) 0.9251(2) 0.6590(3)
O16_2 O 0.1485(3) 0.7498(2) 0.6933(3)
C1_2 C 0.9504(3) 0.8722(4) 0.9039(4)
C2_2 C 0.9971(4) 0.8544(5) 0.8218(4)
H1_2 H 0.9831 0.8907 0.7737
C3_2 C 0.9746(5) 0.7701(6) 0.7938(6)
H3_2 H 0.9198 0.7678 0.7814
H4_2 H 0.9870 0.7348 0.8417
O15_3 O 0.0749(2) 0.1386(3) 0.3410(3)
O16_3 O 0.2502(2) 0.1485(3) 0.3067(3)
O15_4 O 0.9251(2) 0.8614(3) 0.3410(3)
O16_4 O 0.7498(2) 0.8515(3) 0.3067(3)
C1_3 C 0.0496(3) 0.8722(4) 0.4039(4)
C2_3 C 0.0029(4) 0.8544(5) 0.3218(4)
H1_3 H 0.0169 0.8907 0.2737
C3_3 C 0.0254(5) 0.7701(6) 0.2938(6)
H3_3 H 0.0802 0.7678 0.2814
H4_3 H 0.0130 0.7348 0.3417
O1_2 O 0.1205(2) 0.8808(3) 0.3979(3)
O2_2 O 0.0167(2) 0.8777(2) 0.4771(3)
Co6_2 Co 0.13965(4) 0.89767(4) 0.53218(5)
C16_3 C 0.1278(4) 0.0496(3) 0.5961(4)
C17_3 C 0.1456(5) 0.0029(4) 0.6782(4)
H13_3 H 0.1093 0.0169 0.7263
C18_3 C 0.2299(6) 0.0254(5) 0.7062(6)
H15_3 H 0.2322 0.0802 0.7186
H16_3 H 0.2652 0.0130 0.6583
O6_2 O 0.1192(3) 0.1205(2) 0.6021(3)
O7_2 O 0.1223(2) 0.0167(2) 0.5229(3)
Co4 Co 0.10233(4) 0.13965(4) 0.46782(5)
Co1_2 Co 0.89767(4) 0.86035(4) 0.46782(5)
H2_3 H 0.9968 0.7557 0.2409
C4_3 C 0.7343(3) 0.8579(3) 0.3842(5)
C5_3 C 0.6523(4) 0.8677(4) 0.4116(5)
C6_3 C 0.6274(4) 0.8721(5) 0.4985(5)
H5_3 H 0.6637 0.8697 0.5450
C7_3 C 0.5509(4) 0.8800(4) 0.5182(5)
H6_3 H 0.5352 0.8826 0.5780
C8_3 C 0.4971(3) 0.8841(3) 0.4529(4)
C9_3 C 0.5195(4) 0.8793(4) 0.3671(4)
H7_3 H 0.4821 0.8837 0.3221
C10_3 C 0.5962(4) 0.8681(4) 0.3433(5)
H8_3 H 0.6104 0.8610 0.2835
C11_3 C 0.4143(3) 0.8911(3) 0.4742(4)
C12_3 C 0.3652(3) 0.9320(4) 0.4214(4)
H9_3 H 0.3839 0.9576 0.3707
C13_3 C 0.2876(3) 0.9356(3) 0.4430(4)
H10_3 H 0.2545 0.9642 0.4059
C14_3 C 0.3054(4) 0.8627(3) 0.5656(5)
H11_3 H 0.2858 0.8390 0.6171
C15_3 C 0.3845(4) 0.8558(4) 0.5480(5)
H12_3 H 0.4166 0.8274 0.5863
N1_3 N 0.2573(3) 0.9004(3) 0.5140(3)
O5_3 O 0.7813(3) 0.8596(3) 0.4492(3)
H14_3 H 0.2443 0.9968 0.7591
C19_3 C 0.1421(3) 0.7343(3) 0.6158(5)
C20_3 C 0.1323(4) 0.6523(4) 0.5884(5)
C21_3 C 0.1279(5) 0.6274(4) 0.5015(5)
H17_3 H 0.1303 0.6637 0.4550
C22_3 C 0.1200(4) 0.5509(4) 0.4818(5)
H18_3 H 0.1174 0.5352 0.4220
C23_3 C 0.1159(3) 0.4971(3) 0.5471(4)
C24_3 C 0.1207(4) 0.5195(4) 0.6329(4)
H19_3 H 0.1163 0.4821 0.6779
C25_3 C 0.1319(4) 0.5962(4) 0.6567(5)
H20_3 H 0.1390 0.6104 0.7165
C26_3 C 0.1089(3) 0.4143(3) 0.5258(4)
C27_3 C 0.0680(4) 0.3652(3) 0.5786(4)
H21_3 H 0.0424 0.3839 0.6293
C28_3 C 0.0644(3) 0.2876(3) 0.5570(4)
H22_3 H 0.0358 0.2545 0.5941
C29_3 C 0.1373(3) 0.3054(4) 0.4344(5)
H23_3 H 0.1610 0.2858 0.3829
C30_3 C 0.1442(4) 0.3845(4) 0.4520(5)
H24_3 H 0.1726 0.4166 0.4137
N2_2 N 0.0996(3) 0.2573(3) 0.4860(3)
O10_3 O 0.1404(3) 0.7813(3) 0.5508(3)
N3_2 N 0.9004(3) 0.7427(3) 0.4860(3)
O12_2 O 0.8808(3) 0.8795(2) 0.6021(3)
O14_2 O 0.8777(2) 0.9833(2) 0.5229(3)
H2_4 H 0.0032 0.2443 0.2409
C4_4 C 0.2657(3) 0.1421(3) 0.3842(5)
C5_4 C 0.3477(4) 0.1323(4) 0.4116(5)
C6_4 C 0.3726(4) 0.1279(5) 0.4985(5)
H5_4 H 0.3363 0.1303 0.5450
C7_4 C 0.4491(4) 0.1200(4) 0.5182(5)
H6_4 H 0.4648 0.1174 0.5780
C8_4 C 0.5029(3) 0.1159(3) 0.4529(4)
C9_4 C 0.4805(4) 0.1207(4) 0.3671(4)
H7_4 H 0.5179 0.1163 0.3221
C10_4 C 0.4038(4) 0.1319(4) 0.3433(5)
H8_4 H 0.3896 0.1390 0.2835
C11_4 C 0.5857(3) 0.1089(3) 0.4742(4)
C12_4 C 0.6348(3) 0.0680(4) 0.4214(4)
H9_4 H 0.6161 0.0424 0.3707
C13_4 C 0.7124(3) 0.0644(3) 0.4430(4)
H10_4 H 0.7455 0.0358 0.4059
C14_4 C 0.6946(4) 0.1373(3) 0.5656(5)
H11_4 H 0.7142 0.1610 0.6171
C15_4 C 0.6155(4) 0.1442(4) 0.5480(5)
H12_4 H 0.5834 0.1726 0.5863
N1_4 N 0.7427(3) 0.0996(3) 0.5140(3)
O5_4 O 0.2187(3) 0.1404(3) 0.4492(3)
Co3_2 Co 0.86035(4) 0.10233(4) 0.53218(5)
H14_4 H 0.7557 0.0032 0.7591
C19_4 C 0.8579(3) 0.2657(3) 0.6158(5)
C20_4 C 0.8677(4) 0.3477(4) 0.5884(5)
C21_4 C 0.8721(5) 0.3726(4) 0.5015(5)
H17_4 H 0.8697 0.3363 0.4550
C22_4 C 0.8800(4) 0.4491(4) 0.4818(5)
H18_4 H 0.8826 0.4648 0.4220
C23_4 C 0.8841(3) 0.5029(3) 0.5471(4)
C24_4 C 0.8793(4) 0.4805(4) 0.6329(4)
H19_4 H 0.8837 0.5179 0.6779
C25_4 C 0.8681(4) 0.4038(4) 0.6567(5)
H20_4 H 0.8610 0.3896 0.7165
C26_4 C 0.8911(3) 0.5857(3) 0.5258(4)
C27_4 C 0.9320(4) 0.6348(3) 0.5786(4)
H21_4 H 0.9576 0.6161 0.6293
C28_4 C 0.9356(3) 0.7124(3) 0.5570(4)
H22_4 H 0.9642 0.7455 0.5941
C29_4 C 0.8627(3) 0.6946(4) 0.4344(5)
H23_4 H 0.8390 0.7142 0.3829
C30_4 C 0.8558(4) 0.6155(4) 0.4520(5)
H24_4 H 0.8274 0.5834 0.4137
O10_4 O 0.8596(3) 0.2187(3) 0.5508(3)
O11_2 O 0.8795(2) 0.1192(3) 0.3979(3)
O13_2 O 0.9833(2) 0.1223(2) 0.4771(3)
C16_4 C 0.8722(4) 0.9504(3) 0.5961(4)
C17_4 C 0.8544(5) 0.9971(4) 0.6782(4)
H13_4 H 0.8907 0.9831 0.7263
C18_4 C 0.7701(6) 0.9746(5) 0.7062(6)
H15_4 H 0.7678 0.9198 0.7186
H16_4 H 0.7348 0.9870 0.6583
C1_4 C 0.9504(3) 0.1278(4) 0.4039(4)
C2_4 C 0.9971(4) 0.1456(5) 0.3218(4)
H1_4 H 0.9831 0.1093 0.2737
C3_4 C 0.9746(5) 0.2299(6) 0.2938(6)
H3_4 H 0.9198 0.2322 0.2814
H4_4 H 0.9870 0.2652 0.3417
loop_
_geom_bond_atom_site_label_1
_geom_bond_atom_site_label_2
_geom_bond_site_symmetry_1
_geom_bond_site_symmetry_2
C1 C2 1_555 1_555
C2 H1 1_555 1_555
C3 C2 1_555 1_555
H3 C3 1_555 1_555
H4 C3 1_555 1_555
O1 C1 1_555 1_555
O2 C1 1_555 1_555
H6 C7 1_555 1_555
C14 H11 1_555 1_555
H12 C15 1_555 1_555
Co6 N1 1_555 1_555
C19 C20 1_555 1_555
C20 C21 1_555 1_555
C24 C23 1_555 1_555
H19 C24 1_555 1_555
C25 C20 1_555 1_555
H20 C25 1_555 1_555
C26 C23 1_555 1_555
C27 C26 1_555 1_555
H21 C27 1_555 1_555
C28 C27 1_555 1_555
H22 C28 1_555 1_555
O8 Co6 1_555 1_555
O9 C19 1_555 1_555
O10 Co6 1_555 1_555
Co7 O8 1_555 1_555
C14 C15 1_555 1_555
C14 N1 1_555 1_555
C19 O10 1_555 1_555
C24 C25 1_555 1_555
O9 Co7 1_555 1_555
Co2 O3 1_555 1_555
C4 C5 1_555 1_555
C5 C6 1_555 1_555
C9 C8 1_555 1_555
H7 C9 1_555 1_555
C10 C5 1_555 1_555
H8 C10 1_555 1_555
C11 C8 1_555 1_555
C12 C11 1_555 1_555
H9 C12 1_555 1_555
C13 C12 1_555 1_555
H10 C13 1_555 1_555
O3 Co1 1_555 1_555
O4 Co2 1_555 1_555
O5 Co1 1_555 1_555
H18 C22 1_555 1_555
C29 H23 1_555 1_555
H24 C30 1_555 1_555
Co5 N2 1_555 1_555
N3 Co1 1_555 1_555
O15 Co2 1_555 1_555
O16 Co2 1_555 1_555
C4 O4 1_555 1_555
C4 O5 1_555 1_555
C9 C10 1_555 1_555
C29 C30 1_555 1_555
C29 N2 1_555 1_555
C16 C17 1_555 1_555
C17 H13 1_555 1_555
C18 C17 1_555 1_555
H15 C18 1_555 1_555
H16 C18 1_555 1_555
O6 C16 1_555 1_555
C16 O7 1_555 1_555
C16_2 C17_2 1_555 1_555
C17_2 H13_2 1_555 1_555
C18_2 C17_2 1_555 1_555
H15_2 C18_2 1_555 1_555
H16_2 C18_2 1_555 1_555
O12 C16_2 1_555 1_555
C16_2 O14 1_555 1_555
H6_2 C7_2 1_555 1_555
C14_2 H11_2 1_555 1_555
H12_2 C15_2 1_555 1_555
Co3 N1_2 1_555 1_555
C19_2 C20_2 1_555 1_555
C20_2 C21_2 1_555 1_555
C24_2 C23_2 1_555 1_555
H19_2 C24_2 1_555 1_555
C25_2 C20_2 1_555 1_555
H20_2 C25_2 1_555 1_555
C26_2 C23_2 1_555 1_555
C27_2 C26_2 1_555 1_555
H21_2 C27_2 1_555 1_555
C28_2 C27_2 1_555 1_555
H22_2 C28_2 1_555 1_555
O8_2 Co3 1_555 1_555
O9_2 C19_2 1_555 1_555
O10_2 Co3 1_555 1_555
Co7_2 O8_2 1_555 1_555
C14_2 C15_2 1_555 1_555
C14_2 N1_2 1_555 1_555
C19_2 O10_2 1_555 1_555
C24_2 C25_2 1_555 1_555
O9_2 Co7_2 1_555 1_555
Co2_2 O3_2 1_555 1_555
C4_2 C5_2 1_555 1_555
C5_2 C6_2 1_555 1_555
C9_2 C8_2 1_555 1_555
H7_2 C9_2 1_555 1_555
C10_2 C5_2 1_555 1_555
H8_2 C10_2 1_555 1_555
C11_2 C8_2 1_555 1_555
C12_2 C11_2 1_555 1_555
H9_2 C12_2 1_555 1_555
C13_2 C12_2 1_555 1_555
H10_2 C13_2 1_555 1_555
O3_2 Co5 1_555 1_555
O4_2 Co2_2 1_555 1_555
O5_2 Co5 1_555 1_555
H18_2 C22_2 1_555 1_555
C29_2 H23_2 1_555 1_555
H24_2 C30_2 1_555 1_555
O15_2 Co2_2 1_555 1_555
O16_2 Co2_2 1_555 1_555
C4_2 O4_2 1_555 1_555
C4_2 O5_2 1_555 1_555
C9_2 C10_2 1_555 1_555
C29_2 C30_2 1_555 1_555
C29_2 N3 1_555 1_555
C1_2 C2_2 1_555 1_555
C2_2 H1_2 1_555 1_555
C3_2 C2_2 1_555 1_555
H3_2 C3_2 1_555 1_555
H4_2 C3_2 1_555 1_555
O11 C1_2 1_555 1_555
O13 C1_2 1_555 1_555
O15_3 Co7 1_555 1_555
O16_3 Co7 1_555 1_555
O15_4 Co7_2 1_555 1_555
O16_4 Co7_2 1_555 1_555
C1_3 C2_3 1_555 1_555
C2_3 H1_3 1_555 1_555
C3_3 C2_3 1_555 1_555
H3_3 C3_3 1_555 1_555
H4_3 C3_3 1_555 1_555
O1_2 C1_3 1_555 1_555
O2_2 C1_3 1_555 1_555
Co6_2 O1_2 1_555 1_555
O2_2 Co6_2 1_555 1_555
C16_3 C17_3 1_555 1_555
C17_3 H13_3 1_555 1_555
C18_3 C17_3 1_555 1_555
H15_3 C18_3 1_555 1_555
H16_3 C18_3 1_555 1_555
O6_2 C16_3 1_555 1_555
Co4 O6_2 1_555 1_555
C16_3 O7_2 1_555 1_555
O7_2 Co4 1_555 1_555
C4_3 C5_3 1_555 1_555
C5_3 C6_3 1_555 1_555
C6_3 H5_3 1_555 1_555
C7_3 C6_3 1_555 1_555
H6_3 C7_3 1_555 1_555
C8_3 C7_3 1_555 1_555
C9_3 C8_3 1_555 1_555
H7_3 C9_3 1_555 1_555
C10_3 C5_3 1_555 1_555
H8_3 C10_3 1_555 1_555
C11_3 C8_3 1_555 1_555
C12_3 C11_3 1_555 1_555
H9_3 C12_3 1_555 1_555
C13_3 C12_3 1_555 1_555
H10_3 C13_3 1_555 1_555
C14_3 H11_3 1_555 1_555
C15_3 C11_3 1_555 1_555
H12_3 C15_3 1_555 1_555
N1_3 C13_3 1_555 1_555
O15_4 Co1_2 1_555 1_555
O5_3 Co1_2 1_555 1_555
Co6_2 N1_3 1_555 1_555
C19_3 C20_3 1_555 1_555
C20_3 C21_3 1_555 1_555
C21_3 H17_3 1_555 1_555
C22_3 C21_3 1_555 1_555
H18_3 C22_3 1_555 1_555
C23_3 C22_3 1_555 1_555
C24_3 C23_3 1_555 1_555
H19_3 C24_3 1_555 1_555
C25_3 C20_3 1_555 1_555
H20_3 C25_3 1_555 1_555
C26_3 C23_3 1_555 1_555
C27_3 C26_3 1_555 1_555
H21_3 C27_3 1_555 1_555
C28_3 C27_3 1_555 1_555
H22_3 C28_3 1_555 1_555
C29_3 H23_3 1_555 1_555
C30_3 C26_3 1_555 1_555
H24_3 C30_3 1_555 1_555
N2_2 C28_3 1_555 1_555
O15_2 Co6_2 1_555 1_555
O16_2 C19_3 1_555 1_555
O10_3 Co6_2 1_555 1_555
Co4 N2_2 1_555 1_555
N3_2 Co1_2 1_555 1_555
O12_2 Co1_2 1_555 1_555
O14_2 Co1_2 1_555 1_555
C4_3 O16_4 1_555 1_555
C4_3 O5_3 1_555 1_555
C9_3 C10_3 1_555 1_555
C14_3 C15_3 1_555 1_555
C14_3 N1_3 1_555 1_555
C19_3 O10_3 1_555 1_555
C24_3 C25_3 1_555 1_555
C29_3 C30_3 1_555 1_555
C29_3 N2_2 1_555 1_555
C4_4 C5_4 1_555 1_555
C5_4 C6_4 1_555 1_555
C6_4 H5_4 1_555 1_555
C7_4 C6_4 1_555 1_555
H6_4 C7_4 1_555 1_555
C8_4 C7_4 1_555 1_555
C9_4 C8_4 1_555 1_555
H7_4 C9_4 1_555 1_555
C10_4 C5_4 1_555 1_555
H8_4 C10_4 1_555 1_555
C11_4 C8_4 1_555 1_555
C12_4 C11_4 1_555 1_555
H9_4 C12_4 1_555 1_555
C13_4 C12_4 1_555 1_555
H10_4 C13_4 1_555 1_555
C14_4 H11_4 1_555 1_555
C15_4 C11_4 1_555 1_555
H12_4 C15_4 1_555 1_555
N1_4 C13_4 1_555 1_555
O15_3 Co4 1_555 1_555
O5_4 Co4 1_555 1_555
Co3_2 N1_4 1_555 1_555
C19_4 C20_4 1_555 1_555
C20_4 C21_4 1_555 1_555
C21_4 H17_4 1_555 1_555
C22_4 C21_4 1_555 1_555
H18_4 C22_4 1_555 1_555
C23_4 C22_4 1_555 1_555
C24_4 C23_4 1_555 1_555
H19_4 C24_4 1_555 1_555
C25_4 C20_4 1_555 1_555
H20_4 C25_4 1_555 1_555
C26_4 C23_4 1_555 1_555
C27_4 C26_4 1_555 1_555
H21_4 C27_4 1_555 1_555
C28_4 C27_4 1_555 1_555
H22_4 C28_4 1_555 1_555
C29_4 H23_4 1_555 1_555
C30_4 C26_4 1_555 1_555
H24_4 C30_4 1_555 1_555
N3_2 C28_4 1_555 1_555
O15 Co3_2 1_555 1_555
O16 C19_4 1_555 1_555
O10_4 Co3_2 1_555 1_555
O11_2 Co3_2 1_555 1_555
O13_2 Co3_2 1_555 1_555
C4_4 O16_3 1_555 1_555
C4_4 O5_4 1_555 1_555
C9_4 C10_4 1_555 1_555
C14_4 C15_4 1_555 1_555
C14_4 N1_4 1_555 1_555
C19_4 O10_4 1_555 1_555
C24_4 C25_4 1_555 1_555
C29_4 C30_4 1_555 1_555
C29_4 N3_2 1_555 1_555
C16_4 C17_4 1_555 1_555
C17_4 H13_4 1_555 1_555
C18_4 C17_4 1_555 1_555
H15_4 C18_4 1_555 1_555
H16_4 C18_4 1_555 1_555
O12_2 C16_4 1_555 1_555
C16_4 O14_2 1_555 1_555
C1_4 C2_4 1_555 1_555
C2_4 H1_4 1_555 1_555
C3_4 C2_4 1_555 1_555
H3_4 C3_4 1_555 1_555
H4_4 C3_4 1_555 1_555
O11_2 C1_4 1_555 1_555
O13_2 C1_4 1_555 1_555

#END
