
###############################################################################
#
# This file contains modified crystal structure data generated from the
# MOF subset of the Cambridge Structural Database (CSD) v543 
# hosted by the Cambridge Crystallographic Data Centre (CCDC).
#
# This work is licensed under the Creative Commons
# Attribution-NonCommercial-ShareAlike 4.0 International License.
# To view a copy of this license, visit
# http://creativecommons.org/licenses/by-nc-sa/4.0/
# or send a letter to
# Creative Commons, PO Box 1866, Mountain View, CA 94042, USA.
#
# CIF created using the CSD Python API on 29 September 2022
# The structure has been converted into the P1 space group
# The structure has a 3D framework
# The original CSD entry JIZJIN is in the tetragonal crystal system
# The framework has been calculated to contain at least 10.0% void space
# The void calculation uses a probe of radius 1.32A, grid spacing 0.4
#
###############################################################################

data_JIZJIN
_chemical_formula_moiety         '(C120 H96 Co10 N8 O40)n'
_symmetry_cell_setting           triclinic
_symmetry_space_group_name_H-M   'P 1'
_symmetry_Int_Tables_number      1
_space_group_name_Hall           'P 1'
loop_
_symmetry_equiv_pos_site_id
_symmetry_equiv_pos_as_xyz
1 x,y,z
_cell_length_a                   17.5748(10)
_cell_length_b                   17.5748(10)
_cell_length_c                   15.2896(18)
_cell_angle_alpha                90
_cell_angle_beta                 90
_cell_angle_gamma                90
_cell_volume                     4722.55
loop_
_atom_site_label
_atom_site_type_symbol
_atom_site_fract_x
_atom_site_fract_y
_atom_site_fract_z
C19 C 0.0472(2) 0.1267(2) 0.0939(3)
O9 O 0.01217(15) 0.12505(14) 0.02192(18)
C20 C 0.0012(2) 0.1418(3) 0.1766(3)
H13 H 0.0122 0.1010 0.2185
C30 C 0.0267(3) 0.2152(4) 0.2156(4)
H23 H 0.0799 0.2122 0.2296
H24 H 0.0185 0.2556 0.1744
O10 O 0.11728(16) 0.11796(19) 0.09869(18)
Co5 Co 0.14025(3) 0.10519(3) 0.96780(4)
Co6 Co 0.89481(3) 0.14025(3) 0.03220(4)
C4 C 0.8733(2) 0.0472(2) 0.9061(3)
O4 O 0.87495(14) 0.01217(15) 0.97808(18)
C5 C 0.8582(3) 0.0012(2) 0.8234(3)
H1 H 0.8990 0.0122 0.7815
C15 C 0.7848(4) 0.0267(3) 0.7844(4)
H11 H 0.7878 0.0799 0.7704
H12 H 0.7444 0.0185 0.8256
O5 O 0.88204(19) 0.11728(16) 0.90131(18)
H3 H 0.8759 0.6642 0.0354
C10 C 0.8631(3) 0.3084(3) 0.0640(3)
H6 H 0.8403 0.2903 0.1147
C12 C 0.8603(3) 0.3857(3) 0.0477(4)
H7 H 0.8389 0.4182 0.0889
C14 C 0.8823(3) 0.5516(3) 0.0134(3)
H9 H 0.8868 0.5375 0.0718
N1 N 0.8961(2) 0.25904(19) 0.0119(2)
O6 O 0.77964(16) 0.13860(17) 0.0538(2)
C16 C 0.7329(2) 0.1408(2) 0.1154(3)
O7 O 0.74848(15) 0.14874(18) 0.1950(2)
O8 O 0.92346(14) 0.14037(14) 0.15830(15)
C17 C 0.4969(2) 0.1171(3) 0.0507(3)
C18 C 0.6510(2) 0.1327(2) 0.0937(3)
C21 C 0.5957(3) 0.1323(3) 0.1575(4)
H14 H 0.6096 0.1368 0.2159
C22 C 0.6278(3) 0.1248(3) 0.0087(3)
C23 C 0.5190(3) 0.1251(3) 0.1354(3)
H16 H 0.4824 0.1257 0.1793
C24 C 0.3636(2) 0.0761(3) 0.0809(3)
H17 H 0.3802 0.0533 0.1324
C26 C 0.4143(2) 0.1114(3) 0.0278(3)
C28 C 0.2877(3) 0.0738(3) 0.0591(3)
H20 H 0.2546 0.0494 0.0973
H22 H 0.9981 0.2252 0.2679
Co7 Co 0.85009(3) 0.14991(3) 0.2500
O14 O 0.98783(15) 0.87495(14) 0.02192(18)
O16 O 0.88272(16) 0.88204(19) 0.09869(18)
Co1 Co 0.85975(3) 0.89481(3) 0.96780(4)
Co2 Co 0.85009(3) 0.85009(3) 0.7500
O1 O 0.86140(17) 0.77964(16) 0.9462(2)
C1 C 0.8592(2) 0.7329(2) 0.8846(3)
O2 O 0.85126(18) 0.74848(15) 0.8050(2)
O3 O 0.85963(14) 0.92346(14) 0.84170(15)
C2 C 0.8829(3) 0.4969(2) 0.9493(3)
C3 C 0.8673(2) 0.6510(2) 0.9063(3)
C6 C 0.8677(3) 0.5957(3) 0.8425(4)
H2 H 0.8632 0.6096 0.7841
C7 C 0.8752(3) 0.6278(3) 0.9913(3)
C8 C 0.8749(3) 0.5190(3) 0.8646(3)
H4 H 0.8743 0.4824 0.8207
C9 C 0.9239(3) 0.3636(2) 0.9191(3)
H5 H 0.9467 0.3802 0.8676
C11 C 0.8886(3) 0.4143(2) 0.9722(3)
C13 C 0.9262(3) 0.2877(3) 0.9409(3)
H8 H 0.9506 0.2546 0.9027
H10 H 0.7748 0.9981 0.7321
H15 H 0.6642 0.1241 0.9646
C25 C 0.3084(3) 0.1369(3) 0.9360(3)
H18 H 0.2903 0.1597 0.8853
C27 C 0.3857(3) 0.1397(3) 0.9523(4)
H19 H 0.4182 0.1611 0.9111
C29 C 0.5516(3) 0.1177(3) 0.9866(3)
H21 H 0.5375 0.1132 0.9282
N2 N 0.25904(19) 0.1039(2) 0.9881(2)
O11 O 0.74848(15) 0.85126(18) 0.6950(2)
O12 O 0.92346(14) 0.85963(14) 0.65830(15)
N3 N 0.74096(19) 0.8961(2) 0.9881(2)
H3_2 H 0.1241 0.3358 0.0354
C10_2 C 0.1369(3) 0.6916(3) 0.0640(3)
H6_2 H 0.1597 0.7097 0.1147
C12_2 C 0.1397(3) 0.6143(3) 0.0477(4)
H7_2 H 0.1611 0.5818 0.0889
C14_2 C 0.1177(3) 0.4484(3) 0.0134(3)
H9_2 H 0.1132 0.4625 0.0718
N1_2 N 0.1039(2) 0.74096(19) 0.0119(2)
Co3 Co 0.10519(3) 0.85975(3) 0.03220(4)
O6_2 O 0.22036(16) 0.86140(17) 0.0538(2)
C16_2 C 0.2671(2) 0.8592(2) 0.1154(3)
O7_2 O 0.25152(15) 0.85126(18) 0.1950(2)
O8_2 O 0.07654(14) 0.85963(14) 0.15830(15)
C17_2 C 0.5031(2) 0.8829(3) 0.0507(3)
C18_2 C 0.3490(2) 0.8673(2) 0.0937(3)
C21_2 C 0.4043(3) 0.8677(3) 0.1575(4)
H14_2 H 0.3904 0.8632 0.2159
C22_2 C 0.3722(3) 0.8752(3) 0.0087(3)
C23_2 C 0.4810(3) 0.8749(3) 0.1354(3)
H16_2 H 0.5176 0.8743 0.1793
C24_2 C 0.6364(2) 0.9239(3) 0.0809(3)
H17_2 H 0.6198 0.9467 0.1324
C26_2 C 0.5857(2) 0.8886(3) 0.0278(3)
C28_2 C 0.7123(3) 0.9262(3) 0.0591(3)
H20_2 H 0.7454 0.9506 0.0973
H22_2 H 0.0019 0.7748 0.2679
Co7_2 Co 0.14991(3) 0.85009(3) 0.2500
Co2_2 Co 0.14991(3) 0.14991(3) 0.7500
O1_2 O 0.13860(17) 0.22036(16) 0.9462(2)
C1_2 C 0.1408(2) 0.2671(2) 0.8846(3)
O2_2 O 0.14874(18) 0.25152(15) 0.8050(2)
O3_2 O 0.14037(14) 0.07654(14) 0.84170(15)
C2_2 C 0.1171(3) 0.5031(2) 0.9493(3)
C3_2 C 0.1327(2) 0.3490(2) 0.9063(3)
C6_2 C 0.1323(3) 0.4043(3) 0.8425(4)
H2_2 H 0.1368 0.3904 0.7841
C7_2 C 0.1248(3) 0.3722(3) 0.9913(3)
C8_2 C 0.1251(3) 0.4810(3) 0.8646(3)
H4_2 H 0.1257 0.5176 0.8207
C9_2 C 0.0761(3) 0.6364(2) 0.9191(3)
H5_2 H 0.0533 0.6198 0.8676
C11_2 C 0.1114(3) 0.5857(2) 0.9722(3)
C13_2 C 0.0738(3) 0.7123(3) 0.9409(3)
H8_2 H 0.0494 0.7454 0.9027
H10_2 H 0.2252 0.0019 0.7321
H15_2 H 0.3358 0.8759 0.9646
C25_2 C 0.6916(3) 0.8631(3) 0.9360(3)
H18_2 H 0.7097 0.8403 0.8853
C27_2 C 0.6143(3) 0.8603(3) 0.9523(4)
H19_2 H 0.5818 0.8389 0.9111
C29_2 C 0.4484(3) 0.8823(3) 0.9866(3)
H21_2 H 0.4625 0.8868 0.9282
O11_2 O 0.25152(15) 0.14874(18) 0.6950(2)
O12_2 O 0.07654(14) 0.14037(14) 0.65830(15)
O13 O 0.12505(14) 0.98783(15) 0.97808(18)
O15 O 0.11796(19) 0.88272(16) 0.90131(18)
C4_2 C 0.1267(2) 0.9528(2) 0.9061(3)
C5_2 C 0.1418(3) 0.9988(2) 0.8234(3)
H1_2 H 0.1010 0.9878 0.7815
C15_2 C 0.2152(4) 0.9733(3) 0.7844(4)
H11_2 H 0.2122 0.9201 0.7704
H12_2 H 0.2556 0.9815 0.8256
C19_2 C 0.9528(2) 0.8733(2) 0.0939(3)
C20_2 C 0.9988(2) 0.8582(3) 0.1766(3)
H13_2 H 0.9878 0.8990 0.2185
C30_2 C 0.9733(3) 0.7848(4) 0.2156(4)
H23_2 H 0.9201 0.7878 0.2296
H24_2 H 0.9815 0.7444 0.1744
O11_3 O 0.85126(18) 0.25152(15) 0.3050(2)
O12_3 O 0.85963(14) 0.07654(14) 0.34170(15)
O11_4 O 0.14874(18) 0.74848(15) 0.3050(2)
O12_4 O 0.14037(14) 0.92346(14) 0.34170(15)
C19_3 C 0.0472(2) 0.8733(2) 0.5939(3)
O9_2 O 0.01217(15) 0.87495(14) 0.52192(18)
C20_3 C 0.0012(2) 0.8582(3) 0.6766(3)
H13_3 H 0.0122 0.8990 0.7185
C30_3 C 0.0267(3) 0.7848(4) 0.7156(4)
H23_3 H 0.0799 0.7878 0.7296
H24_3 H 0.0185 0.7444 0.6744
O10_2 O 0.11728(16) 0.88204(19) 0.59869(18)
Co5_2 Co 0.14025(3) 0.89481(3) 0.46780(4)
Co1_2 Co 0.85975(3) 0.10519(3) 0.46780(4)
O1_3 O 0.86140(17) 0.22036(16) 0.4462(2)
C1_3 C 0.8592(2) 0.2671(2) 0.3846(3)
C2_3 C 0.8829(3) 0.5031(2) 0.4493(3)
C3_3 C 0.8673(2) 0.3490(2) 0.4063(3)
C6_3 C 0.8677(3) 0.4043(3) 0.3425(4)
H2_3 H 0.8632 0.3904 0.2841
C7_3 C 0.8752(3) 0.3722(3) 0.4913(3)
H3_3 H 0.8759 0.3358 0.5354
C8_3 C 0.8749(3) 0.4810(3) 0.3646(3)
H4_3 H 0.8743 0.5176 0.3207
C9_3 C 0.9239(3) 0.6364(2) 0.4191(3)
H5_3 H 0.9467 0.6198 0.3676
C10_3 C 0.8631(3) 0.6916(3) 0.5640(3)
H6_3 H 0.8403 0.7097 0.6147
C11_3 C 0.8886(3) 0.5857(2) 0.4722(3)
C12_3 C 0.8603(3) 0.6143(3) 0.5477(4)
H7_3 H 0.8389 0.5818 0.5889
C13_3 C 0.9262(3) 0.7123(3) 0.4409(3)
H8_3 H 0.9506 0.7454 0.4027
C14_3 C 0.8823(3) 0.4484(3) 0.5134(3)
H9_3 H 0.8868 0.4625 0.5718
H10_3 H 0.7748 0.0019 0.2321
N1_3 N 0.8961(2) 0.74096(19) 0.5119(2)
Co3_2 Co 0.89481(3) 0.85975(3) 0.53220(4)
O6_3 O 0.77964(16) 0.86140(17) 0.5538(2)
C16_3 C 0.7329(2) 0.8592(2) 0.6154(3)
C17_3 C 0.4969(2) 0.8829(3) 0.5507(3)
C18_3 C 0.6510(2) 0.8673(2) 0.5937(3)
C21_3 C 0.5957(3) 0.8677(3) 0.6575(4)
H14_3 H 0.6096 0.8632 0.7159
C22_3 C 0.6278(3) 0.8752(3) 0.5087(3)
H15_3 H 0.6642 0.8759 0.4646
C23_3 C 0.5190(3) 0.8749(3) 0.6354(3)
H16_3 H 0.4824 0.8743 0.6793
C24_3 C 0.3636(2) 0.9239(3) 0.5809(3)
H17_3 H 0.3802 0.9467 0.6324
C25_3 C 0.3084(3) 0.8631(3) 0.4360(3)
H18_3 H 0.2903 0.8403 0.3853
C26_3 C 0.4143(2) 0.8886(3) 0.5278(3)
C27_3 C 0.3857(3) 0.8603(3) 0.4523(4)
H19_3 H 0.4182 0.8389 0.4111
C28_3 C 0.2877(3) 0.9262(3) 0.5591(3)
H20_3 H 0.2546 0.9506 0.5973
C29_3 C 0.5516(3) 0.8823(3) 0.4866(3)
H21_3 H 0.5375 0.8868 0.4282
H22_3 H 0.9981 0.7748 0.7679
N2_2 N 0.25904(19) 0.8961(2) 0.4881(2)
O13_2 O 0.87495(14) 0.98783(15) 0.47808(18)
O14_2 O 0.98783(15) 0.12505(14) 0.52192(18)
N3_2 N 0.74096(19) 0.1039(2) 0.4881(2)
O15_2 O 0.88204(19) 0.88272(16) 0.40131(18)
O16_2 O 0.88272(16) 0.11796(19) 0.59869(18)
C4_3 C 0.8733(2) 0.9528(2) 0.4061(3)
C5_3 C 0.8582(3) 0.9988(2) 0.3234(3)
H1_3 H 0.8990 0.9878 0.2815
C15_3 C 0.7848(4) 0.9733(3) 0.2844(4)
H11_3 H 0.7878 0.9201 0.2704
H12_3 H 0.7444 0.9815 0.3256
C4_4 C 0.1267(2) 0.0472(2) 0.4061(3)
O4_2 O 0.12505(14) 0.01217(15) 0.47808(18)
C5_4 C 0.1418(3) 0.0012(2) 0.3234(3)
H1_4 H 0.1010 0.0122 0.2815
C15_4 C 0.2152(4) 0.0267(3) 0.2844(4)
H11_4 H 0.2122 0.0799 0.2704
H12_4 H 0.2556 0.0185 0.3256
O5_2 O 0.11796(19) 0.11728(16) 0.40131(18)
Co6_2 Co 0.10519(3) 0.14025(3) 0.53220(4)
O1_4 O 0.13860(17) 0.77964(16) 0.4462(2)
C1_4 C 0.1408(2) 0.7329(2) 0.3846(3)
C2_4 C 0.1171(3) 0.4969(2) 0.4493(3)
C3_4 C 0.1327(2) 0.6510(2) 0.4063(3)
C6_4 C 0.1323(3) 0.5957(3) 0.3425(4)
H2_4 H 0.1368 0.6096 0.2841
C7_4 C 0.1248(3) 0.6278(3) 0.4913(3)
H3_4 H 0.1241 0.6642 0.5354
C8_4 C 0.1251(3) 0.5190(3) 0.3646(3)
H4_4 H 0.1257 0.4824 0.3207
C9_4 C 0.0761(3) 0.3636(2) 0.4191(3)
H5_4 H 0.0533 0.3802 0.3676
C10_4 C 0.1369(3) 0.3084(3) 0.5640(3)
H6_4 H 0.1597 0.2903 0.6147
C11_4 C 0.1114(3) 0.4143(2) 0.4722(3)
C12_4 C 0.1397(3) 0.3857(3) 0.5477(4)
H7_4 H 0.1611 0.4182 0.5889
C13_4 C 0.0738(3) 0.2877(3) 0.4409(3)
H8_4 H 0.0494 0.2546 0.4027
C14_4 C 0.1177(3) 0.5516(3) 0.5134(3)
H9_4 H 0.1132 0.5375 0.5718
H10_4 H 0.2252 0.9981 0.2321
N1_4 N 0.1039(2) 0.25904(19) 0.5119(2)
O6_4 O 0.22036(16) 0.13860(17) 0.5538(2)
C16_4 C 0.2671(2) 0.1408(2) 0.6154(3)
C17_4 C 0.5031(2) 0.1171(3) 0.5507(3)
C18_4 C 0.3490(2) 0.1327(2) 0.5937(3)
C21_4 C 0.4043(3) 0.1323(3) 0.6575(4)
H14_4 H 0.3904 0.1368 0.7159
C22_4 C 0.3722(3) 0.1248(3) 0.5087(3)
H15_4 H 0.3358 0.1241 0.4646
C23_4 C 0.4810(3) 0.1251(3) 0.6354(3)
H16_4 H 0.5176 0.1257 0.6793
C24_4 C 0.6364(2) 0.0761(3) 0.5809(3)
H17_4 H 0.6198 0.0533 0.6324
C25_4 C 0.6916(3) 0.1369(3) 0.4360(3)
H18_4 H 0.7097 0.1597 0.3853
C26_4 C 0.5857(2) 0.1114(3) 0.5278(3)
C27_4 C 0.6143(3) 0.1397(3) 0.4523(4)
H19_4 H 0.5818 0.1611 0.4111
C28_4 C 0.7123(3) 0.0738(3) 0.5591(3)
H20_4 H 0.7454 0.0494 0.5973
C29_4 C 0.4484(3) 0.1177(3) 0.4866(3)
H21_4 H 0.4625 0.1132 0.4282
H22_4 H 0.0019 0.2252 0.7679
C19_4 C 0.9528(2) 0.1267(2) 0.5939(3)
C20_4 C 0.9988(2) 0.1418(3) 0.6766(3)
H13_4 H 0.9878 0.1010 0.7185
C30_4 C 0.9733(3) 0.2152(4) 0.7156(4)
H23_4 H 0.9201 0.2122 0.7296
H24_4 H 0.9815 0.2556 0.6744
loop_
_geom_bond_atom_site_label_1
_geom_bond_atom_site_label_2
_geom_bond_site_symmetry_1
_geom_bond_site_symmetry_2
C19 O9 1_555 1_555
H13 C20 1_555 1_555
C30 C20 1_555 1_555
H23 C30 1_555 1_555
H24 C30 1_555 1_555
O10 C19 1_555 1_555
C19 C20 1_555 1_555
C4 O4 1_555 1_555
H1 C5 1_555 1_555
C15 C5 1_555 1_555
H11 C15 1_555 1_555
H12 C15 1_555 1_555
O5 C4 1_555 1_555
C4 C5 1_555 1_555
C10 H6 1_555 1_555
C12 C10 1_555 1_555
H7 C12 1_555 1_555
H9 C14 1_555 1_555
N1 C10 1_555 1_555
Co6 N1 1_555 1_555
O6 Co6 1_555 1_555
C16 O6 1_555 1_555
O7 C16 1_555 1_555
O8 Co6 1_555 1_555
C17 C23 1_555 1_555
C18 C16 1_555 1_555
C21 C18 1_555 1_555
H14 C21 1_555 1_555
C22 C18 1_555 1_555
C23 C21 1_555 1_555
H16 C23 1_555 1_555
C24 H17 1_555 1_555
C26 C17 1_555 1_555
C28 C24 1_555 1_555
H20 C28 1_555 1_555
Co7 O7 1_555 1_555
O8 Co7 1_555 1_555
C24 C26 1_555 1_555
Co1 O1 1_555 1_555
Co2 O2 1_555 1_555
O1 C1 1_555 1_555
C1 O2 1_555 1_555
O3 Co1 1_555 1_555
C2 C8 1_555 1_555
C3 C1 1_555 1_555
C6 C3 1_555 1_555
H2 C6 1_555 1_555
C7 C3 1_555 1_555
C8 C6 1_555 1_555
H4 C8 1_555 1_555
C9 H5 1_555 1_555
C11 C2 1_555 1_555
C13 C9 1_555 1_555
H8 C13 1_555 1_555
C25 H18 1_555 1_555
C27 C25 1_555 1_555
H19 C27 1_555 1_555
H21 C29 1_555 1_555
N2 C25 1_555 1_555
Co5 N2 1_555 1_555
O11 Co2 1_555 1_555
O12 Co2 1_555 1_555
N3 Co1 1_555 1_555
Co2 O3 1_555 1_555
C9 C11 1_555 1_555
C10_2 H6_2 1_555 1_555
C12_2 C10_2 1_555 1_555
H7_2 C12_2 1_555 1_555
H9_2 C14_2 1_555 1_555
N1_2 C10_2 1_555 1_555
Co3 N1_2 1_555 1_555
O6_2 Co3 1_555 1_555
C16_2 O6_2 1_555 1_555
O7_2 C16_2 1_555 1_555
O8_2 Co3 1_555 1_555
C17_2 C23_2 1_555 1_555
C18_2 C16_2 1_555 1_555
C21_2 C18_2 1_555 1_555
H14_2 C21_2 1_555 1_555
C22_2 C18_2 1_555 1_555
C23_2 C21_2 1_555 1_555
H16_2 C23_2 1_555 1_555
C24_2 H17_2 1_555 1_555
C26_2 C17_2 1_555 1_555
C28_2 C24_2 1_555 1_555
H20_2 C28_2 1_555 1_555
Co7_2 O7_2 1_555 1_555
O8_2 Co7_2 1_555 1_555
C24_2 C26_2 1_555 1_555
Co5 O1_2 1_555 1_555
Co2_2 O2_2 1_555 1_555
O1_2 C1_2 1_555 1_555
C1_2 O2_2 1_555 1_555
O3_2 Co5 1_555 1_555
C2_2 C8_2 1_555 1_555
C3_2 C1_2 1_555 1_555
C6_2 C3_2 1_555 1_555
H2_2 C6_2 1_555 1_555
C7_2 C3_2 1_555 1_555
C8_2 C6_2 1_555 1_555
H4_2 C8_2 1_555 1_555
C9_2 H5_2 1_555 1_555
C11_2 C2_2 1_555 1_555
C13_2 C9_2 1_555 1_555
H8_2 C13_2 1_555 1_555
C25_2 H18_2 1_555 1_555
C27_2 C25_2 1_555 1_555
H19_2 C27_2 1_555 1_555
H21_2 C29_2 1_555 1_555
N3 C25_2 1_555 1_555
O11_2 Co2_2 1_555 1_555
O12_2 Co2_2 1_555 1_555
Co2_2 O3_2 1_555 1_555
C9_2 C11_2 1_555 1_555
C4_2 O13 1_555 1_555
H1_2 C5_2 1_555 1_555
C15_2 C5_2 1_555 1_555
H11_2 C15_2 1_555 1_555
H12_2 C15_2 1_555 1_555
O15 C4_2 1_555 1_555
C4_2 C5_2 1_555 1_555
C19_2 O14 1_555 1_555
H13_2 C20_2 1_555 1_555
C30_2 C20_2 1_555 1_555
H23_2 C30_2 1_555 1_555
H24_2 C30_2 1_555 1_555
O16 C19_2 1_555 1_555
C19_2 C20_2 1_555 1_555
O11_3 Co7 1_555 1_555
O12_3 Co7 1_555 1_555
O11_4 Co7_2 1_555 1_555
O12_4 Co7_2 1_555 1_555
C19_3 O9_2 1_555 1_555
H13_3 C20_3 1_555 1_555
C30_3 C20_3 1_555 1_555
H23_3 C30_3 1_555 1_555
H24_3 C30_3 1_555 1_555
O10_2 C19_3 1_555 1_555
Co5_2 O9_2 1_555 1_555
C19_3 C20_3 1_555 1_555
O10_2 Co5_2 1_555 1_555
Co1_2 O1_3 1_555 1_555
O1_3 C1_3 1_555 1_555
C1_3 O11_3 1_555 1_555
O12_3 Co1_2 1_555 1_555
C2_3 C8_3 1_555 1_555
C3_3 C1_3 1_555 1_555
C6_3 C3_3 1_555 1_555
H2_3 C6_3 1_555 1_555
C7_3 C3_3 1_555 1_555
H3_3 C7_3 1_555 1_555
C8_3 C6_3 1_555 1_555
H4_3 C8_3 1_555 1_555
C9_3 H5_3 1_555 1_555
C10_3 H6_3 1_555 1_555
C11_3 C2_3 1_555 1_555
C12_3 C10_3 1_555 1_555
H7_3 C12_3 1_555 1_555
C13_3 C9_3 1_555 1_555
H8_3 C13_3 1_555 1_555
C14_3 C2_3 1_555 1_555
H9_3 C14_3 1_555 1_555
N1_3 C10_3 1_555 1_555
Co3_2 N1_3 1_555 1_555
O6_3 Co3_2 1_555 1_555
C16_3 O6_3 1_555 1_555
O11 C16_3 1_555 1_555
O12 Co3_2 1_555 1_555
C17_3 C23_3 1_555 1_555
C18_3 C16_3 1_555 1_555
C21_3 C18_3 1_555 1_555
H14_3 C21_3 1_555 1_555
C22_3 C18_3 1_555 1_555
H15_3 C22_3 1_555 1_555
C23_3 C21_3 1_555 1_555
H16_3 C23_3 1_555 1_555
C24_3 H17_3 1_555 1_555
C25_3 H18_3 1_555 1_555
C26_3 C17_3 1_555 1_555
C27_3 C25_3 1_555 1_555
H19_3 C27_3 1_555 1_555
C28_3 C24_3 1_555 1_555
H20_3 C28_3 1_555 1_555
C29_3 C17_3 1_555 1_555
H21_3 C29_3 1_555 1_555
N2_2 C25_3 1_555 1_555
Co5_2 N2_2 1_555 1_555
O13_2 Co3_2 1_555 1_555
O14_2 Co1_2 1_555 1_555
N3_2 Co1_2 1_555 1_555
O15_2 Co3_2 1_555 1_555
O16_2 Co1_2 1_555 1_555
C7_3 C14_3 1_555 1_555
C9_3 C11_3 1_555 1_555
C11_3 C12_3 1_555 1_555
C13_3 N1_3 1_555 1_555
C22_3 C29_3 1_555 1_555
C24_3 C26_3 1_555 1_555
C26_3 C27_3 1_555 1_555
C28_3 N2_2 1_555 1_555
C4_3 O13_2 1_555 1_555
H1_3 C5_3 1_555 1_555
C15_3 C5_3 1_555 1_555
H11_3 C15_3 1_555 1_555
H12_3 C15_3 1_555 1_555
O15_2 C4_3 1_555 1_555
C4_3 C5_3 1_555 1_555
C4_4 O4_2 1_555 1_555
H1_4 C5_4 1_555 1_555
C15_4 C5_4 1_555 1_555
H11_4 C15_4 1_555 1_555
H12_4 C15_4 1_555 1_555
O5_2 C4_4 1_555 1_555
Co6_2 O4_2 1_555 1_555
C4_4 C5_4 1_555 1_555
O5_2 Co6_2 1_555 1_555
Co5_2 O1_4 1_555 1_555
O1_4 C1_4 1_555 1_555
C1_4 O11_4 1_555 1_555
O12_4 Co5_2 1_555 1_555
C2_4 C8_4 1_555 1_555
C3_4 C1_4 1_555 1_555
C6_4 C3_4 1_555 1_555
H2_4 C6_4 1_555 1_555
C7_4 C3_4 1_555 1_555
H3_4 C7_4 1_555 1_555
C8_4 C6_4 1_555 1_555
H4_4 C8_4 1_555 1_555
C9_4 H5_4 1_555 1_555
C10_4 H6_4 1_555 1_555
C11_4 C2_4 1_555 1_555
C12_4 C10_4 1_555 1_555
H7_4 C12_4 1_555 1_555
C13_4 C9_4 1_555 1_555
H8_4 C13_4 1_555 1_555
C14_4 C2_4 1_555 1_555
H9_4 C14_4 1_555 1_555
N1_4 C10_4 1_555 1_555
Co6_2 N1_4 1_555 1_555
O6_4 Co6_2 1_555 1_555
C16_4 O6_4 1_555 1_555
O11_2 C16_4 1_555 1_555
O12_2 Co6_2 1_555 1_555
C17_4 C23_4 1_555 1_555
C18_4 C16_4 1_555 1_555
C21_4 C18_4 1_555 1_555
H14_4 C21_4 1_555 1_555
C22_4 C18_4 1_555 1_555
H15_4 C22_4 1_555 1_555
C23_4 C21_4 1_555 1_555
H16_4 C23_4 1_555 1_555
C24_4 H17_4 1_555 1_555
C25_4 H18_4 1_555 1_555
C26_4 C17_4 1_555 1_555
C27_4 C25_4 1_555 1_555
H19_4 C27_4 1_555 1_555
C28_4 C24_4 1_555 1_555
H20_4 C28_4 1_555 1_555
C29_4 C17_4 1_555 1_555
H21_4 C29_4 1_555 1_555
N3_2 C25_4 1_555 1_555
C7_4 C14_4 1_555 1_555
C9_4 C11_4 1_555 1_555
C11_4 C12_4 1_555 1_555
C13_4 N1_4 1_555 1_555
C22_4 C29_4 1_555 1_555
C24_4 C26_4 1_555 1_555
C26_4 C27_4 1_555 1_555
C28_4 N3_2 1_555 1_555
C19_4 O14_2 1_555 1_555
H13_4 C20_4 1_555 1_555
C30_4 C20_4 1_555 1_555
H23_4 C30_4 1_555 1_555
H24_4 C30_4 1_555 1_555
O16_2 C19_4 1_555 1_555
C19_4 C20_4 1_555 1_555

#END
