
###############################################################################
#
# This file contains modified crystal structure data generated from the
# MOF subset of the Cambridge Structural Database (CSD) v543 
# hosted by the Cambridge Crystallographic Data Centre (CCDC).
#
# This work is licensed under the Creative Commons
# Attribution-NonCommercial-ShareAlike 4.0 International License.
# To view a copy of this license, visit
# http://creativecommons.org/licenses/by-nc-sa/4.0/
# or send a letter to
# Creative Commons, PO Box 1866, Mountain View, CA 94042, USA.
#
# CIF created using the CSD Python API on 29 September 2022
# The structure has been converted into the P1 space group
# The structure has a 3D framework
# The original CSD entry JIZWEW is in the monoclinic crystal system
# The original CSD entry JIZWEW is in a Sohncke space group
# The framework has been calculated to contain at least 10.0% void space
# The void calculation uses a probe of radius 1.32A, grid spacing 0.4
# H atom positions have been added when not included in the experimental data
#
###############################################################################

data_JIZWEW
_chemical_formula_moiety         '(C32 H40 Al4 O14)n'
_symmetry_cell_setting           triclinic
_symmetry_space_group_name_H-M   'P 1'
_symmetry_Int_Tables_number      1
_space_group_name_Hall           'P 1'
loop_
_symmetry_equiv_pos_site_id
_symmetry_equiv_pos_as_xyz
1 x,y,z
_cell_length_a                   6.61029(34)
_cell_length_b                   17.89844(85)
_cell_length_c                   11.09887(47)
_cell_angle_alpha                90
_cell_angle_beta                 91.2461(36)
_cell_angle_gamma                90
_cell_volume                     1312.84
loop_
_atom_site_label
_atom_site_type_symbol
_atom_site_fract_x
_atom_site_fract_y
_atom_site_fract_z
_atom_site_U_iso_or_equiv
_atom_site_thermal_displace_type
O3 O 0.3645(28) 0.1452(13) 0.1683(24) 0.1013 Uiso
O9 O 0.6815(26) 0.1397(11) 0.1575(25) 0.0177 Uiso
C2 C 0.332834 0.004988 0.050824 0.0013 Uiso
C3 C 0.703380 0.016744 0.019758 0.0203 Uiso
C6 C 0.505448 0.058967 0.027023 0.0013 Uiso
C8 C 0.511914 0.12283 0.115262 0.1013 Uiso
Al5 Al 0.2297(18) 0.22389(64) 0.2543(11) 0.0053 Uiso
Al7 Al 0.7543(21) 0.22322(67) 0.2457(12) 0.0013 Uiso
H2 H 0.190792 0.0358293 0.0493197 . .
O4 O 0.1660(27) 0.3083(11) 0.3557(19) 0.0241 Uiso
O5 O 0.6714(29) 0.7965(10) 0.8585(24) 0.0013 Uiso
Al2 Al 0.2457(21) 0.72322(67) 0.7543(12) 0.0013 Uiso
O6 O 0.4971(18) 0.7324(26) 0.6793(16) 0.0013 Uiso
O7 O 0.3637(29) 0.79573(99) 0.8605(16) 0.0013 Uiso
O10 O 0.1818(25) 0.6505(12) 0.6368(19) 0.0013 Uiso
C1 C 0.321032 0.943579 0.956442 0.1013 Uiso
C4 C 0.688864 0.956366 0.924283 0.0013 Uiso
C5 C 0.520119 0.901301 0.950407 0.1013 Uiso
C7 C 0.516006 0.840255 0.857511 0.0013 Uiso
C11 C 0.167989 0.458244 0.416208 0.0291 Uiso
C12 C 0.195685 0.528747 0.492194 0.0013 Uiso
C14 C 0.024889 0.403703 0.475704 0.0101 Uiso
C15 C 0.009094 0.633775 0.598667 0.0253 Uiso
C16 C 0.016241 0.329246 0.412606 0.0013 Uiso
Al4 Al 0.7703(18) 0.72389(64) 0.7457(11) 0.0053 Uiso
O11 O 0.0126(20) 0.7210(32) 0.8449(17) 0.0013 Uiso
O12 O 0.1760(24) 0.1492(12) 0.3793(21) 0.0013 Uiso
O14 O 0.3286(29) 0.2965(10) 0.1415(24) 0.0013 Uiso
O15 O 0.5029(18) 0.2324(26) 0.3207(16) 0.0013 Uiso
O16 O 0.1152(34) 0.7985(11) 0.6560(20) 0.1013 Uiso
O17 O 0.3185(26) 0.6397(11) 0.8425(25) 0.0177 Uiso
H4 H 0.832015 0.926333 0.922145 . .
H5 H 0.658754 0.982328 0.836986 . .
H8 H 0.314468 0.431454 0.405714 . .
H9 H 0.105913 0.473587 0.327947 . .
H10 H 0.291519 0.567718 0.444228 . .
H11 H 0.268528 0.513748 0.577759 . .
H12 H 0.286853 0.968441 0.86879 . .
H13 H 0.201215 0.9047 0.979512 . .
H20 H 0.0849482 0.393523 0.566364 . .
O1 O 0.9874(20) 0.2210(32) 0.1551(17) 0.0013 Uiso
O2 O 0.8240(24) 0.6492(12) 0.6207(21) 0.0013 Uiso
O8 O 0.8848(34) 0.2985(11) 0.3440(20) 0.1013 Uiso
C9 C 0.845981 0.510304 0.567570 0.1013 Uiso
C10 C 0.821676 0.441297 0.488997 0.0899 Uiso
C13 C 0.994777 0.566488 0.516936 0.0013 Uiso
H15 H 0.900168 0.493076 0.65667 . .
H16 H 0.699043 0.537234 0.574949 . .
H17 H 0.762476 0.457503 0.400471 . .
H18 H 0.716951 0.402645 0.530693 . .
H19 H 0.932383 0.585547 0.430675 . .
C9_2 C 0.154019 0.010304 0.432430 0.1013 Uiso
C13_2 C 0.005223 0.066488 0.483064 0.0013 Uiso
H16_2 H 0.300957 0.0372339 0.425051 . .
H19_2 H 0.0676169 0.0855467 0.569325 . .
C10_2 C 0.178324 0.941297 0.511003 0.0899 Uiso
H15_2 H 0.0998317 0.993076 0.34333 . .
H17_2 H 0.237524 0.957503 0.599529 . .
H18_2 H 0.283049 0.902645 0.469307 . .
O7_2 O 0.6363(29) 0.29573(99) 0.1395(16) 0.0013 Uiso
O10_2 O 0.8182(25) 0.1505(12) 0.3632(19) 0.0013 Uiso
C1_2 C 0.678968 0.443579 0.043558 0.1013 Uiso
C4_2 C 0.311136 0.456366 0.075717 0.0013 Uiso
C5_2 C 0.479881 0.401301 0.049593 0.1013 Uiso
C7_2 C 0.483994 0.340255 0.142489 0.0013 Uiso
C12_2 C 0.804315 0.028747 0.507806 0.0013 Uiso
C15_2 C 0.990906 0.133775 0.401333 0.0253 Uiso
H3 H 0.524129 0.583138 0.0616641 . .
H4_2 H 0.167985 0.426333 0.0778552 . .
H5_2 H 0.341246 0.482328 0.163014 . .
H6 H 0.176517 0.555585 0.00296511 . .
H10_2 H 0.708481 0.0677178 0.555772 . .
H11_2 H 0.731472 0.013748 0.422241 . .
H12_2 H 0.713147 0.468441 0.13121 . .
H13_2 H 0.798785 0.4047 0.0204882 . .
O3_2 O 0.6355(28) 0.6452(13) 0.8317(24) 0.1013 Uiso
C2_2 C 0.667166 0.504988 0.949176 0.0013 Uiso
C3_2 C 0.296620 0.516744 0.980242 0.0203 Uiso
C6_2 C 0.494552 0.558967 0.972977 0.0013 Uiso
C8_2 C 0.488086 0.62283 0.884738 0.1013 Uiso
H1 H 0.643131 0.479701 0.860777 . .
H2_2 H 0.809208 0.535829 0.95068 . .
H7 H 0.261857 0.491123 0.893238 . .
H14 H 0.44873 0.37613 0.961809 . .
O4_2 O 0.8340(27) 0.8083(11) 0.6443(19) 0.0241 Uiso
C11_2 C 0.832011 0.958244 0.583792 0.0291 Uiso
C14_2 C 0.975111 0.903703 0.524296 0.0101 Uiso
C16_2 C 0.983759 0.829246 0.587394 0.0013 Uiso
H8_2 H 0.685532 0.931454 0.594286 . .
H9_2 H 0.894087 0.973587 0.672053 . .
H20_2 H 0.915052 0.893523 0.433636 . .
H3_2 H 0.475871 0.0831383 0.938336 . .
H6_2 H 0.823483 0.0555853 0.997035 . .
H1_2 H 0.356869 0.979701 0.139223 . .
H7_2 H 0.738143 0.991123 0.106762 . .
H14_2 H 0.55127 0.87613 0.0381911 . .
loop_
_geom_bond_atom_site_label_1
_geom_bond_atom_site_label_2
_geom_bond_site_symmetry_1
_geom_bond_site_symmetry_2
O3 C8 1_555 1_555
O9 C8 1_555 1_555
C2 C6 1_555 1_555
C6 C3 1_555 1_555
C8 C6 1_555 1_555
Al5 O3 1_555 1_555
Al7 O9 1_555 1_555
C2 H2 1_555 1_555
O4 Al5 1_555 1_555
O5 C7 1_555 1_555
Al2 O6 1_555 1_555
O6 Al4 1_555 1_555
O7 Al2 1_555 1_555
O10 Al2 1_555 1_555
C4 C5 1_555 1_555
C5 C1 1_555 1_555
C7 O7 1_555 1_555
C11 C12 1_555 1_555
C14 C11 1_555 1_555
C15 O10 1_555 1_555
C16 O4 1_555 1_555
Al4 O5 1_555 1_555
O11 Al2 1_555 1_555
O12 Al5 1_555 1_555
O14 Al5 1_555 1_555
O15 Al5 1_555 1_555
O16 Al2 1_555 1_555
O17 Al2 1_555 1_555
C5 C7 1_555 1_555
C14 C16 1_555 1_555
C4 H4 1_555 1_555
C4 H5 1_555 1_555
C11 H8 1_555 1_555
C11 H9 1_555 1_555
C12 H10 1_555 1_555
C12 H11 1_555 1_555
C1 H12 1_555 1_555
C1 H13 1_555 1_555
C14 H20 1_555 1_555
O1 Al7 1_555 1_555
C9 C10 1_555 1_555
C13 C9 1_555 1_555
Al4 O2 1_555 1_555
Al7 O8 1_555 1_555
C9 H15 1_555 1_555
C9 H16 1_555 1_555
C10 H17 1_555 1_555
C10 H18 1_555 1_555
C13 H19 1_555 1_555
C13_2 C9_2 1_555 1_555
C9_2 H16_2 1_555 1_555
C13_2 H19_2 1_555 1_555
C10_2 H17_2 1_555 1_555
C10_2 H18_2 1_555 1_555
O14 C7_2 1_555 1_555
Al7 O15 1_555 1_555
O7_2 Al7 1_555 1_555
O10_2 Al7 1_555 1_555
C4_2 C5_2 1_555 1_555
C5_2 C1_2 1_555 1_555
C7_2 O7_2 1_555 1_555
C15_2 O10_2 1_555 1_555
C5_2 C7_2 1_555 1_555
C4_2 H4_2 1_555 1_555
C4_2 H5_2 1_555 1_555
C12_2 H10_2 1_555 1_555
C12_2 H11_2 1_555 1_555
C1_2 H12_2 1_555 1_555
C1_2 H13_2 1_555 1_555
O3_2 C8_2 1_555 1_555
O17 C8_2 1_555 1_555
C2_2 C6_2 1_555 1_555
C6_2 C3_2 1_555 1_555
C8_2 C6_2 1_555 1_555
Al4 O3_2 1_555 1_555
C2_2 H1 1_555 1_555
C2_2 H2_2 1_555 1_555
C3_2 H7 1_555 1_555
O4_2 Al4 1_555 1_555
C14_2 C11_2 1_555 1_555
C16_2 O4_2 1_555 1_555
C14_2 C16_2 1_555 1_555
C11_2 H8_2 1_555 1_555
C11_2 H9_2 1_555 1_555
C14_2 H20_2 1_555 1_555

#END
