
###############################################################################
#
# This file contains modified crystal structure data generated from the
# MOF subset of the Cambridge Structural Database (CSD) v543 
# hosted by the Cambridge Crystallographic Data Centre (CCDC).
#
# This work is licensed under the Creative Commons
# Attribution-NonCommercial-ShareAlike 4.0 International License.
# To view a copy of this license, visit
# http://creativecommons.org/licenses/by-nc-sa/4.0/
# or send a letter to
# Creative Commons, PO Box 1866, Mountain View, CA 94042, USA.
#
# CIF created using the CSD Python API on 29 September 2022
# The structure has been converted into the P1 space group
# The structure has a 3D framework
# The original CSD entry JIZWIA is in the monoclinic crystal system
# The original CSD entry JIZWIA is in a Sohncke space group
# The framework has been calculated to contain at least 10.0% void space
# The void calculation uses a probe of radius 1.32A, grid spacing 0.4
# H atom positions have been added when not included in the experimental data
#
###############################################################################

data_JIZWIA
_chemical_formula_moiety         '(C32 H40 Al4 O16)n'
_symmetry_cell_setting           triclinic
_symmetry_space_group_name_H-M   'P 1'
_symmetry_Int_Tables_number      1
_space_group_name_Hall           'P 1'
loop_
_symmetry_equiv_pos_site_id
_symmetry_equiv_pos_as_xyz
1 x,y,z
_cell_length_a                   6.60306(75)
_cell_length_b                   18.0599(16)
_cell_length_c                   10.85793(70)
_cell_angle_alpha                90
_cell_angle_beta                 90.3736(87)
_cell_angle_gamma                90
_cell_volume                     1294.79
loop_
_atom_site_label
_atom_site_type_symbol
_atom_site_fract_x
_atom_site_fract_y
_atom_site_fract_z
_atom_site_U_iso_or_equiv
_atom_site_thermal_displace_type
O3 O 0.3235(54) 0.1584(18) 0.1335(40) 0.0684 Uiso
O9 O 0.6754(64) 0.1445(21) 0.1662(47) 0.0013 Uiso
C10 C 0.314356 0.026395 0.024744 0.0912 Uiso
C11 C 0.682661 0.017812 0.066289 0.0013 Uiso
C14 C 0.511977 0.069347 0.02833 0.1013 Uiso
C16 C 0.501679 0.134513 0.114689 0.0013 Uiso
Al5 Al 0.2366(36) 0.2346(14) 0.2440(21) 0.0013 Uiso
Al7 Al 0.7454(44) 0.2365(15) 0.2449(26) 0.0443 Uiso
H1 H 0.275173 0.0112258 0.118689 . .
H5 H 0.824598 0.0483591 0.0616141 . .
H6 H 0.656695 0.000124816 0.160761 . .
O4 O 0.1618(51) 0.3079(21) 0.3548(37) 0.0557 Uiso
O5 O 0.6812(42) 0.8048(14) 0.8803(40) 0.0013 Uiso
Al2 Al 0.2546(44) 0.7365(15) 0.7551(26) 0.0443 Uiso
O6 O 0.5075(35) 0.7305(40) 0.6830(35) 0.0988 Uiso
O7 O 0.3651(49) 0.8022(22) 0.8730(32) 0.0013 Uiso
O10 O 0.1594(38) 0.6501(18) 0.6570(36) 0.0013 Uiso
C3 C 0.204230 0.438759 0.479071 0.0849 Uiso
C4 C 0.199476 0.512123 0.550768 0.0013 Uiso
C5 C 0.005809 0.556519 0.531366 0.1013 Uiso
C6 C 0.013228 0.392601 0.491386 0.0013 Uiso
C8 C 0.018338 0.32484 0.410533 0.1013 Uiso
C9 C 0.322097 0.955363 0.946925 0.0013 Uiso
C12 C 0.700907 0.949210 0.985996 0.0836 Uiso
C13 C 0.506066 0.906970 0.973619 0.0013 Uiso
C15 C 0.522847 0.839360 0.893219 0.1013 Uiso
Al4 Al 0.7634(36) 0.7346(14) 0.7560(21) 0.0013 Uiso
O11 O 0.0109(34) 0.7321(63) 0.8402(38) 0.0013 Uiso
O12 O 0.1646(40) 0.1611(15) 0.3641(27) 0.1013 Uiso
O14 O 0.3188(42) 0.3048(14) 0.1197(40) 0.0013 Uiso
O15 O 0.4925(35) 0.2305(40) 0.3170(35) 0.0988 Uiso
O16 O 0.1498(64) 0.7999(24) 0.6343(44) 0.0013 Uiso
O17 O 0.3246(64) 0.6445(21) 0.8338(47) 0.0013 Uiso
H3 H 0.327025 0.545854 0.521355 . .
H4 H 0.214799 0.499779 0.648557 . .
H7 H 0.324638 0.970992 0.85008 . .
H8 H 0.186246 0.923117 0.965292 . .
H9 H 0.000396096 0.374749 0.586816 . .
H13 H 0.749201 0.966223 0.894558 . .
H14 H 0.331685 0.406142 0.512869 . .
H15 H 0.225829 0.451335 0.38195 . .
H16 H 0.0146905 0.57576 0.436503 . .
O1 O 0.9891(34) 0.2321(63) 0.1598(38) 0.0013 Uiso
O2 O 0.8354(40) 0.6611(15) 0.6359(27) 0.1013 Uiso
O8 O 0.8502(64) 0.2999(24) 0.3657(44) 0.0013 Uiso
C1 C 0.816048 0.510818 0.534718 0.0393 Uiso
C2 C 0.830509 0.439974 0.459694 0.0013 Uiso
C7 C 0.992974 0.626402 0.606482 0.1013 Uiso
H10 H 0.83858 0.454838 0.36265 . .
H11 H 0.694452 0.407377 0.475704 . .
H17 H 0.785264 0.496164 0.630067 . .
H18 H 0.691512 0.543935 0.498315 . .
C1_2 C 0.183952 0.010818 0.465282 0.0393 Uiso
C7_2 C 0.007026 0.126402 0.393518 0.1013 Uiso
H18_2 H 0.308488 0.0439355 0.501685 . .
C2_2 C 0.169491 0.939974 0.540306 0.0013 Uiso
H10_2 H 0.16142 0.954838 0.63735 . .
H11_2 H 0.305548 0.907377 0.524296 . .
H17_2 H 0.214736 0.996164 0.369933 . .
O7_2 O 0.6349(49) 0.3022(22) 0.1270(32) 0.0013 Uiso
O10_2 O 0.8406(38) 0.1501(18) 0.3430(36) 0.0013 Uiso
C4_2 C 0.800524 0.012123 0.449232 0.0013 Uiso
C5_2 C 0.994191 0.056519 0.468634 0.1013 Uiso
C9_2 C 0.677903 0.455363 0.053075 0.0013 Uiso
C12_2 C 0.299093 0.449210 0.014004 0.0836 Uiso
C13_2 C 0.493934 0.406970 0.026381 0.0013 Uiso
C15_2 C 0.477153 0.339360 0.106781 0.1013 Uiso
H2 H 0.802802 0.56229 0.0133862 . .
H3_2 H 0.672975 0.0458538 0.478645 . .
H7_2 H 0.675362 0.470992 0.14992 . .
H8_2 H 0.813754 0.423117 0.0347082 . .
H13_2 H 0.250799 0.466223 0.105442 . .
H16_2 H 0.98531 0.0757602 0.563497 . .
H20 H 0.457208 0.589886 0.063965 . .
O3_2 O 0.6765(54) 0.6584(18) 0.8665(40) 0.0684 Uiso
C10_2 C 0.685644 0.526395 0.975256 0.0912 Uiso
C11_2 C 0.317339 0.517812 0.933711 0.0013 Uiso
C14_2 C 0.488023 0.569347 0.97167 0.1013 Uiso
C16_2 C 0.498321 0.634513 0.885311 0.0013 Uiso
H1_2 H 0.724827 0.511226 0.881311 . .
H5_2 H 0.175402 0.548359 0.938386 . .
H6_2 H 0.343305 0.500125 0.839239 . .
H12 H 0.185346 0.412788 0.973497 . .
H19 H 0.520905 0.384992 0.934543 . .
O4_2 O 0.8382(51) 0.8079(21) 0.6452(37) 0.0557 Uiso
C3_2 C 0.795770 0.938759 0.520929 0.0849 Uiso
C6_2 C 0.986772 0.892601 0.508614 0.0013 Uiso
C8_2 C 0.981662 0.82484 0.589467 0.1013 Uiso
H4_2 H 0.785201 0.999779 0.351443 . .
H9_2 H 0.999604 0.874749 0.413184 . .
H14_2 H 0.668315 0.906142 0.487131 . .
H15_2 H 0.774171 0.951335 0.61805 . .
H2_2 H 0.197198 0.0622896 0.986614 . .
H20_2 H 0.542792 0.089886 0.936035 . .
H12_2 H 0.814654 0.912788 0.0265032 . .
H19_2 H 0.479095 0.884992 0.065457 . .
loop_
_geom_bond_atom_site_label_1
_geom_bond_atom_site_label_2
_geom_bond_site_symmetry_1
_geom_bond_site_symmetry_2
O3 C16 1_555 1_555
O9 C16 1_555 1_555
C10 C14 1_555 1_555
C14 C11 1_555 1_555
C16 C14 1_555 1_555
Al5 O3 1_555 1_555
Al7 O9 1_555 1_555
C10 H1 1_555 1_555
C11 H5 1_555 1_555
C11 H6 1_555 1_555
O4 Al5 1_555 1_555
O5 C15 1_555 1_555
Al2 O6 1_555 1_555
O6 Al4 1_555 1_555
O7 Al2 1_555 1_555
O10 Al2 1_555 1_555
C3 C4 1_555 1_555
C4 C5 1_555 1_555
C6 C3 1_555 1_555
C8 O4 1_555 1_555
C12 C13 1_555 1_555
C13 C9 1_555 1_555
C15 O7 1_555 1_555
Al4 O5 1_555 1_555
O11 Al2 1_555 1_555
O12 Al5 1_555 1_555
O14 Al5 1_555 1_555
O15 Al5 1_555 1_555
O16 Al2 1_555 1_555
O17 Al2 1_555 1_555
C6 C8 1_555 1_555
C13 C15 1_555 1_555
C4 H3 1_555 1_555
C4 H4 1_555 1_555
C9 H7 1_555 1_555
C9 H8 1_555 1_555
C6 H9 1_555 1_555
C12 H13 1_555 1_555
C3 H14 1_555 1_555
C3 H15 1_555 1_555
C5 H16 1_555 1_555
O1 Al7 1_555 1_555
O2 C7 1_555 1_555
C1 C2 1_555 1_555
Al4 O2 1_555 1_555
Al7 O8 1_555 1_555
C2 H10 1_555 1_555
C2 H11 1_555 1_555
C1 H17 1_555 1_555
C1 H18 1_555 1_555
O12 C7_2 1_555 1_555
C1_2 H18_2 1_555 1_555
C2_2 H10_2 1_555 1_555
C2_2 H11_2 1_555 1_555
O14 C15_2 1_555 1_555
Al7 O15 1_555 1_555
O7_2 Al7 1_555 1_555
O10_2 Al7 1_555 1_555
C4_2 C5_2 1_555 1_555
C12_2 C13_2 1_555 1_555
C13_2 C9_2 1_555 1_555
C15_2 O7_2 1_555 1_555
C13_2 C15_2 1_555 1_555
C4_2 H3_2 1_555 1_555
C9_2 H7_2 1_555 1_555
C9_2 H8_2 1_555 1_555
C12_2 H13_2 1_555 1_555
C5_2 H16_2 1_555 1_555
O3_2 C16_2 1_555 1_555
O17 C16_2 1_555 1_555
C10_2 C14_2 1_555 1_555
C14_2 C11_2 1_555 1_555
C16_2 C14_2 1_555 1_555
Al4 O3_2 1_555 1_555
C10_2 H1_2 1_555 1_555
C11_2 H5_2 1_555 1_555
C11_2 H6_2 1_555 1_555
O4_2 Al4 1_555 1_555
C6_2 C3_2 1_555 1_555
C8_2 O4_2 1_555 1_555
C6_2 C8_2 1_555 1_555
C6_2 H9_2 1_555 1_555
C3_2 H14_2 1_555 1_555
C3_2 H15_2 1_555 1_555

#END
