
###############################################################################
#
# This file contains modified crystal structure data generated from the
# MOF subset of the Cambridge Structural Database (CSD) v543 
# hosted by the Cambridge Crystallographic Data Centre (CCDC).
#
# This work is licensed under the Creative Commons
# Attribution-NonCommercial-ShareAlike 4.0 International License.
# To view a copy of this license, visit
# http://creativecommons.org/licenses/by-nc-sa/4.0/
# or send a letter to
# Creative Commons, PO Box 1866, Mountain View, CA 94042, USA.
#
# CIF created using the CSD Python API on 29 September 2022
# The structure has been converted into the P1 space group
# The structure has a 3D framework
# The original CSD entry JIZWAS is in the triclinic crystal system
# The framework has been calculated to contain at least 10.0% void space
# The void calculation uses a probe of radius 1.32A, grid spacing 0.4
# H atom positions have been added when not included in the experimental data
#
###############################################################################

data_JIZWAS
_chemical_formula_moiety         '(C16 H20 Al6 O9)n'
_symmetry_cell_setting           triclinic
_symmetry_space_group_name_H-M   'P 1'
_symmetry_Int_Tables_number      1
_space_group_name_Hall           'P 1'
loop_
_symmetry_equiv_pos_site_id
_symmetry_equiv_pos_as_xyz
1 x,y,z
_cell_length_a                   6.6237(3)
_cell_length_b                   9.4227(3)
_cell_length_c                   9.7034(5)
_cell_angle_alpha                108.362(2)
_cell_angle_beta                 93.685(3)
_cell_angle_gamma                107.395(5)
_cell_volume                     540.038
loop_
_atom_site_label
_atom_site_type_symbol
_atom_site_fract_x
_atom_site_fract_y
_atom_site_fract_z
_atom_site_U_iso_or_equiv
_atom_site_thermal_displace_type
Al5 Al 0.00000 -0.00000 -0.00000 0.0153 Uiso
Al5_2 Al 0.00000 -0.00000 1.00000 0.0153 Uiso
Al8 Al 0.50000 0.00000 -0.00000 0.0153 Uiso
Al8_2 Al 0.50000 -0.00000 1.00000 0.0153 Uiso
Al5_3 Al -0.00000 1.00000 -0.00000 0.0153 Uiso
O8 O 0.3527(37) 0.8519(29) 0.0786(28) 0.0162 Uiso
C13 C 0.1739(60) 0.7713(19) 0.1030(24) 0.0138 Uiso
C14 C 0.0971(23) 0.6105(17) 0.1251(26) 0.0138 Uiso
C15 C 0.2366(28) 0.5162(26) 0.0454(18) 0.0138 Uiso
O9 O 0.0316(40) 0.8442(31) 0.0781(28) 0.0162 Uiso
Al5_4 Al -0.00000 1.00000 1.00000 0.0153 Uiso
Al8_3 Al 0.50000 1.00000 -0.00000 0.0153 Uiso
H6 H 0.158556 0.640835 0.241239 . .
H17 H 0.403167 0.593151 0.065518 . .
H18 H 0.228511 0.417364 0.0826772 . .
C8 C 0.1419(27) 0.4565(3) 0.8848(17) 0.0138 Uiso
Al8_4 Al 0.50000 1.00000 1.00000 0.0153 Uiso
H11 H 0.181768 0.553523 0.842075 . .
H12 H 0.20229 0.364472 0.822456 . .
Al5_5 Al 1.00000 -0.00000 -0.00000 0.0153 Uiso
Al5_6 Al 1.00000 -0.00000 1.00000 0.0153 Uiso
Al5_7 Al 1.00000 1.00000 -0.00000 0.0153 Uiso
O2 O 0.5019(44) 0.1815(29) 0.1646(28) 0.0162 Uiso
O3 O 0.1798(39) 0.1645(30) 0.1768(29) 0.0162 Uiso
C1 C 0.3709(80) 0.2250(45) 0.2441(37) 0.0138 Uiso
C2 C 0.4611(31) 0.3957(34) 0.3493(25) 0.0138 Uiso
C3 C 0.6369(38) 0.3956(14) 0.4580(2) 0.0138 Uiso
C4 C 0.2805(33) 0.4373(14) 0.4239(19) 0.0138 Uiso
O6 O 0.4981(44) 0.8185(29) 0.8354(28) 0.0162 Uiso
O7 O 0.8202(39) 0.8355(30) 0.8232(29) 0.0162 Uiso
C9 C 0.6291(80) 0.7750(45) 0.7559(37) 0.0138 Uiso
C10 C 0.5389(31) 0.6043(34) 0.6507(25) 0.0138 Uiso
C11 C 0.3631(38) 0.6044(14) 0.5420(2) 0.0138 Uiso
C12 C 0.7195(33) 0.5627(14) 0.5761(19) 0.0138 Uiso
C16 C 0.8581(27) 0.5435(3) 0.1152(17) 0.0138 Uiso
Al5_8 Al 1.00000 1.00000 1.00000 0.0153 Uiso
H1 H 0.472611 0.524417 0.709244 . .
H2 H 0.78863 0.648841 0.524275 . .
H3 H 0.842576 0.567457 0.659078 . .
H4 H 0.233537 0.629688 0.597679 . .
H5 H 0.427919 0.693071 0.491972 . .
H8 H 0.21137 0.351159 0.475725 . .
H9 H 0.157424 0.432543 0.340922 . .
H10 H 0.527389 0.475583 0.290756 . .
H13 H 0.766463 0.370312 0.402321 . .
H14 H 0.572081 0.306929 0.508028 . .
H19 H 0.818232 0.446477 0.157925 . .
H20 H 0.79771 0.635528 0.177544 . .
O1 O 0.2336(39) 0.0013(35) 0.9107(26) 0.0162 Uiso
O4 O 0.9684(40) 0.1558(31) 0.9219(28) 0.0162 Uiso
O5 O 0.6473(37) 0.1481(29) 0.9214(28) 0.0162 Uiso
C5 C 0.8261(60) 0.2287(19) 0.8970(24) 0.0138 Uiso
C6 C 0.9029(23) 0.3895(17) 0.8749(26) 0.0138 Uiso
C7 C 0.7634(28) 0.4838(26) 0.9546(18) 0.0138 Uiso
H7 H 0.841444 0.359165 0.758761 . .
H15 H 0.596833 0.406849 0.934482 . .
H16 H 0.771489 0.582636 0.917323 . .
O11 O 0.7664(39) 0.9987(35) 0.0893(26) 0.0162 Uiso
loop_
_geom_bond_atom_site_label_1
_geom_bond_atom_site_label_2
_geom_bond_site_symmetry_1
_geom_bond_site_symmetry_2
O8 C13 1_555 1_555
C13 C14 1_555 1_555
C14 C15 1_555 1_555
O9 C13 1_555 1_555
Al5_3 O9 1_555 1_555
Al8_3 O8 1_555 1_555
C14 H6 1_555 1_555
C15 H17 1_555 1_555
C15 H18 1_555 1_555
C8 H11 1_555 1_555
C8 H12 1_555 1_555
O2 Al8 1_555 1_555
O3 Al5 1_555 1_555
C1 O2 1_555 1_555
C2 C1 1_555 1_555
C3 C2 1_555 1_555
C4 C2 1_555 1_555
O6 C9 1_555 1_555
O7 C9 1_555 1_555
C9 C10 1_555 1_555
C10 C11 1_555 1_555
C11 C4 1_555 1_555
C12 C3 1_555 1_555
Al5_8 O7 1_555 1_555
Al8_4 O6 1_555 1_555
O3 C1 1_555 1_555
C10 C12 1_555 1_555
C10 H1 1_555 1_555
C12 H2 1_555 1_555
C12 H3 1_555 1_555
C11 H4 1_555 1_555
C11 H5 1_555 1_555
C4 H8 1_555 1_555
C4 H9 1_555 1_555
C2 H10 1_555 1_555
C3 H13 1_555 1_555
C3 H14 1_555 1_555
C16 H19 1_555 1_555
C16 H20 1_555 1_555
Al5_2 O1 1_555 1_555
Al8_2 O1 1_555 1_555
O4 C5 1_555 1_555
O5 Al8_2 1_555 1_555
C5 O5 1_555 1_555
C6 C5 1_555 1_555
C7 C6 1_555 1_555
Al5_6 O4 1_555 1_555
C6 H7 1_555 1_555
C7 H15 1_555 1_555
C7 H16 1_555 1_555
O11 Al8_3 1_555 1_555
Al5_7 O11 1_555 1_555

#END
