
###############################################################################
#
# This file contains modified crystal structure data generated from the
# MOF subset of the Cambridge Structural Database (CSD) v543 
# hosted by the Cambridge Crystallographic Data Centre (CCDC).
#
# This work is licensed under the Creative Commons
# Attribution-NonCommercial-ShareAlike 4.0 International License.
# To view a copy of this license, visit
# http://creativecommons.org/licenses/by-nc-sa/4.0/
# or send a letter to
# Creative Commons, PO Box 1866, Mountain View, CA 94042, USA.
#
# CIF created using the CSD Python API on 29 September 2022
# The structure has been converted into the P1 space group
# The structure has a 3D framework
# The original CSD entry JIZWOG is in the monoclinic crystal system
# The original CSD entry JIZWOG is in a Sohncke space group
# The framework has been calculated to contain at least 10.0% void space
# The void calculation uses a probe of radius 1.32A, grid spacing 0.4
# H atom positions have been added when not included in the experimental data
#
###############################################################################

data_JIZWOG
_chemical_formula_moiety         '(C64 H80 Al8 O34)n'
_symmetry_cell_setting           triclinic
_symmetry_space_group_name_H-M   'P 1'
_symmetry_Int_Tables_number      1
_space_group_name_Hall           'P 1'
loop_
_symmetry_equiv_pos_site_id
_symmetry_equiv_pos_as_xyz
1 x,y,z
_cell_length_a                   13.2246(16)
_cell_length_b                   17.8923(18)
_cell_length_c                   11.08364(92)
_cell_angle_alpha                90
_cell_angle_beta                 89.801(18)
_cell_angle_gamma                90
_cell_volume                     2622.58
loop_
_atom_site_label
_atom_site_type_symbol
_atom_site_fract_x
_atom_site_fract_y
_atom_site_fract_z
_atom_site_U_iso_or_equiv
_atom_site_thermal_displace_type
O2 O 0.1639(42) 0.1618(34) 0.1365(74) 0.0013 Uiso
O10 O 0.3304(43) 0.1619(31) 0.1432(54) 0.0228 Uiso
C3 C 0.344204 0.014903 0.048148 0.0000 Uiso
C6 C 0.241669 0.05369 0.060779 0.0633 Uiso
C8 C 0.246776 0.124583 0.133195 0.1013 Uiso
Al6 Al 0.1162(26) 0.2372(32) 0.2416(42) 0.0266 Uiso
Al13 Al 0.3722(26) 0.2340(25) 0.2649(38) 0.0013 Uiso
H4 H 0.0915006 0.0270375 0.118253 . .
H9 H 0.399462 0.0539984 0.0115373 . .
O3 O 0.1000(43) 0.3331(44) 0.3262(91) 0.0291 Uiso
O4 O 0.3273(37) 0.7946(40) 0.8876(46) 0.1013 Uiso
Al2 Al 0.1310(27) 0.7338(26) 0.7544(36) 0.0013 Uiso
O5 O 0.0067(32) 0.722(15) 0.8334(53) 0.0152 Uiso
O6 O 0.2559(30) 0.7390(61) 0.6812(47) 0.0355 Uiso
O7 O 0.1640(45) 0.8108(40) 0.8666(46) 0.0013 Uiso
O9 O 0.0960(40) 0.6609(35) 0.6277(53) 0.1013 Uiso
C4 C 0.332957 0.948653 0.963076 0.0127 Uiso
C7 C 0.245748 0.827617 0.921986 0.1013 Uiso
C11 C 0.100635 0.466841 0.405208 0.0000 Uiso
C12 C 0.108228 0.531965 0.493496 0.0887 Uiso
C13 C 0.005527 0.571675 0.506058 0.0013 Uiso
C14 C 0.019316 0.411350 0.443693 0.0000 Uiso
C15 C 0.010408 0.634395 0.596623 0.0000 Uiso
C16 C 0.015675 0.342849 0.364940 0.0127 Uiso
O11 O 0.1760(44) 0.2772(34) 0.0970(72) 0.1013 Uiso
O12 O 0.5606(26) 0.1630(21) 0.3584(39) 0.1013 Uiso
O16 O 0.4931(28) 0.2325(89) 0.1894(52) 0.0013 Uiso
O17 O 0.2418(32) 0.2547(78) 0.3115(48) 0.0557 Uiso
O18 O 0.3307(32) 0.3052(34) 0.1409(51) 0.1013 Uiso
O20 O 0.3935(32) 0.1620(34) 0.3809(42) 0.1013 Uiso
C17 C 0.336334 0.429832 0.007548 0.0000 Uiso
C20 C 0.155566 0.448956 0.067781 0.0000 Uiso
C21 C 0.234085 0.391385 0.027885 0.1013 Uiso
C23 C 0.241766 0.328912 0.118323 0.1013 Uiso
C25 C 0.569053 0.018409 0.464344 0.0633 Uiso
C28 C 0.383270 0.032203 0.504447 0.1013 Uiso
C29 C 0.484965 0.073675 0.495812 0.0000 Uiso
C31 C 0.480662 0.136142 0.404750 0.0000 Uiso
O21 O 0.0573(49) 0.1835(35) 0.3812(63) 0.1013 Uiso
O26 O 0.0559(43) 0.7963(39) 0.6495(61) 0.0291 Uiso
Al9 Al 0.6254(27) 0.2273(27) 0.2391(35) 0.0608 Uiso
Al11 Al 0.3746(27) 0.7273(27) 0.7609(35) 0.0608 Uiso
O30 O 0.1572(42) 0.6474(30) 0.8616(73) 0.0013 Uiso
O32 O 0.4316(34) 0.3175(37) 0.3605(71) 0.0013 Uiso
H1 H 0.124851 0.951865 0.937069 . .
H5 H 0.405557 0.920264 0.955712 . .
H6 H 0.310504 0.969231 0.874668 . .
H11 H 0.164287 0.571656 0.460488 . .
H12 H 0.13132 0.510915 0.581377 . .
H13 H 0.0380305 0.392777 0.534478 . .
H15 H 0.082726 0.421187 0.077619 . .
H16 H 0.1784 0.472126 0.154361 . .
H17 H 0.271828 0.568539 0.0506113 . .
H19 H 0.640915 0.0481213 0.462941 . .
H22 H 0.363756 0.451943 0.0929277 . .
H26 H 0.173208 0.438163 0.401379 . .
H27 H 0.0821183 0.488508 0.316166 . .
H35 H 0.0899125 0.553 0.0110815 . .
H37 H 0.325066 0.0709586 0.534964 . .
H38 H 0.363363 0.0106103 0.415791 . .
H39 H 0.501454 0.0978236 0.58376 . .
O13 O 0.3295(48) 0.6486(35) 0.8597(70) 0.0013 Uiso
C18 C 0.324641 0.493637 0.917549 0.0000 Uiso
C19 C 0.144734 0.512552 0.977513 0.1013 Uiso
C22 C 0.247592 0.550396 0.961495 0.0253 Uiso
C24 C 0.242970 0.618989 0.883478 0.1013 Uiso
H14 H 0.209628 0.367663 0.942338 . .
H20 H 0.299816 0.470973 0.83141 . .
H21 H 0.39739 0.521263 0.905828 . .
H23 H 0.390358 0.389342 0.972306 . .
H36 H 0.119265 0.490489 0.891238 . .
O14 O 0.4061(54) 0.7979(32) 0.6470(49) 0.0013 Uiso
O19 O 0.5684(34) 0.8175(37) 0.6395(71) 0.0013 Uiso
C26 C 0.575806 0.954748 0.554865 0.1013 Uiso
C27 C 0.390423 0.967376 0.593357 0.0000 Uiso
C30 C 0.47452 0.913257 0.558470 0.1013 Uiso
C32 C 0.478104 0.844970 0.637707 0.0887 Uiso
O28 O 0.4394(26) 0.6630(21) 0.6416(39) 0.1013 Uiso
Al12 Al 0.6278(26) 0.7340(25) 0.7351(38) 0.0013 Uiso
O31 O 0.5069(28) 0.7325(89) 0.8106(52) 0.0013 Uiso
H18 H 0.554274 0.995106 0.375368 . .
H29 H 0.592515 0.977157 0.643945 . .
H30 H 0.635567 0.916325 0.527744 . .
H31 H 0.318724 0.937446 0.594417 . .
H32 H 0.405707 0.989507 0.682986 . .
H40 H 0.458989 0.894212 0.467074 . .
O1 O 0.9427(49) 0.6835(35) 0.6188(63) 0.1013 Uiso
O8 O 0.9441(43) 0.2963(39) 0.3505(61) 0.0291 Uiso
C9 C 0.924157 0.515031 0.541130 0.0013 Uiso
C10 C 0.916880 0.451075 0.451211 0.0507 Uiso
Al5 Al 0.8838(26) 0.7372(32) 0.7584(42) 0.0266 Uiso
Al7 Al 0.8690(27) 0.2338(26) 0.2456(36) 0.0013 Uiso
O24 O 0.9933(32) 0.222(15) 0.1666(53) 0.0152 Uiso
H24 H 0.896945 0.472995 0.362774 . .
H25 H 0.859158 0.411683 0.480888 . .
H28 H 0.98579 0.595341 0.418736 . .
H33 H 0.942187 0.492183 0.629545 . .
H34 H 0.851438 0.543489 0.545308 . .
C9_2 C 0.075843 0.015031 0.458870 0.0013 Uiso
H28_2 H 0.0142103 0.0953414 0.581264 . .
H34_2 H 0.148562 0.0434889 0.454692 . .
C10_2 C 0.083120 0.951075 0.548789 0.0507 Uiso
H24_2 H 0.103055 0.972995 0.637226 . .
H25_2 H 0.140842 0.911683 0.519112 . .
H33_2 H 0.057813 0.992183 0.370455 . .
O13_2 O 0.6705(48) 0.1486(35) 0.1403(70) 0.0013 Uiso
O15 O 0.8428(42) 0.1474(30) 0.1384(73) 0.0013 Uiso
C19_2 C 0.855266 0.012552 0.022487 0.1013 Uiso
C22_2 C 0.752408 0.050396 0.038505 0.0253 Uiso
C24_2 C 0.757030 0.118989 0.116522 0.1013 Uiso
H21_2 H 0.60261 0.0212629 0.0941715 . .
O4_2 O 0.6727(37) 0.2946(40) 0.1124(46) 0.1013 Uiso
O6_2 O 0.7441(30) 0.2390(61) 0.3188(47) 0.0355 Uiso
O7_2 O 0.8360(45) 0.3108(40) 0.1334(46) 0.0013 Uiso
O9_2 O 0.9040(40) 0.1609(35) 0.3723(53) 0.1013 Uiso
C4_2 C 0.667043 0.448653 0.036924 0.0127 Uiso
C7_2 C 0.754252 0.327617 0.078014 0.1013 Uiso
C12_2 C 0.891772 0.031965 0.506504 0.0887 Uiso
C13_2 C 0.994473 0.071675 0.493942 0.0013 Uiso
C15_2 C 0.989592 0.134395 0.403377 0.0000 Uiso
H1_2 H 0.875149 0.451865 0.062931 . .
H5_2 H 0.594443 0.420264 0.0442879 . .
H6_2 H 0.689496 0.469231 0.125332 . .
H8 H 0.782228 0.569175 0.0297626 . .
H11_2 H 0.835713 0.0716563 0.539512 . .
H12_2 H 0.86868 0.0109152 0.418623 . .
H17_2 H 0.728172 0.0685388 0.949389 . .
H35_2 H 0.910088 0.0529999 0.988919 . .
O2_2 O 0.8361(42) 0.6618(34) 0.8635(74) 0.0013 Uiso
O10_2 O 0.6696(43) 0.6619(31) 0.8568(54) 0.0228 Uiso
C1 C 0.848096 0.432286 0.975792 0.0013 Uiso
C2 C 0.835986 0.498733 0.891002 0.0000 Uiso
C3_2 C 0.655796 0.514903 0.951852 0.0000 Uiso
C5 C 0.746168 0.392765 0.992691 0.0633 Uiso
C6_2 C 0.758331 0.55369 0.939221 0.0633 Uiso
C8_2 C 0.753224 0.624583 0.866805 0.1013 Uiso
H2 H 0.90256 0.393196 0.937504 . .
H3 H 0.811537 0.478637 0.803068 . .
H4_2 H 0.908499 0.527038 0.881747 . .
H7 H 0.722095 0.371595 0.905265 . .
H9_2 H 0.600538 0.553998 0.988463 . .
H10 H 0.630697 0.495409 0.863828 . .
O3_2 O 0.9000(43) 0.8331(44) 0.6738(91) 0.0291 Uiso
C11_2 C 0.899365 0.966841 0.594792 0.0000 Uiso
C14_2 C 0.980684 0.911350 0.556307 0.0000 Uiso
C16_2 C 0.984325 0.842849 0.635060 0.0127 Uiso
O11_2 O 0.8240(44) 0.7772(34) 0.9030(72) 0.1013 Uiso
O14_2 O 0.5939(54) 0.2979(32) 0.3530(49) 0.0013 Uiso
O17_2 O 0.7582(32) 0.7547(78) 0.6885(48) 0.0557 Uiso
O18_2 O 0.6693(32) 0.8052(34) 0.8591(51) 0.1013 Uiso
O20_2 O 0.6065(32) 0.6620(34) 0.6191(42) 0.1013 Uiso
C17_2 C 0.663666 0.929832 0.992452 0.0000 Uiso
C20_2 C 0.844434 0.948956 0.932219 0.0000 Uiso
C21_2 C 0.765915 0.891385 0.972115 0.1013 Uiso
C23_2 C 0.758234 0.828912 0.881677 0.1013 Uiso
C25_2 C 0.430947 0.518409 0.535656 0.0633 Uiso
C26_2 C 0.424194 0.454748 0.445135 0.1013 Uiso
C27_2 C 0.609577 0.467376 0.406643 0.0000 Uiso
C28_2 C 0.616730 0.532203 0.495553 0.1013 Uiso
C29_2 C 0.515035 0.573675 0.504188 0.0000 Uiso
C30_2 C 0.52548 0.413257 0.441530 0.1013 Uiso
C31_2 C 0.519338 0.636142 0.595250 0.0000 Uiso
C32_2 C 0.521896 0.344970 0.362293 0.0887 Uiso
H13_2 H 0.96197 0.892777 0.465522 . .
H15_2 H 0.917274 0.921187 0.922381 . .
H16_2 H 0.8216 0.972126 0.845639 . .
H18_2 H 0.445726 0.495106 0.624632 . .
H19_2 H 0.359085 0.548121 0.537059 . .
H22_2 H 0.636244 0.951943 0.907072 . .
H26_2 H 0.826792 0.938163 0.598621 . .
H27_2 H 0.917882 0.988508 0.683834 . .
H29_2 H 0.407485 0.477157 0.356055 . .
H30_2 H 0.364433 0.416325 0.472256 . .
H31_2 H 0.681276 0.437446 0.405583 . .
H32_2 H 0.594293 0.489507 0.317014 . .
H37_2 H 0.674934 0.570959 0.465036 . .
H38_2 H 0.636637 0.51061 0.584209 . .
H39_2 H 0.498546 0.597824 0.41624 . .
H40_2 H 0.541011 0.394212 0.532926 . .
H8_2 H 0.217772 0.0691755 0.970237 . .
C1_2 C 0.151904 0.932286 0.024208 0.0013 Uiso
C2_2 C 0.164014 0.998733 0.108998 0.0000 Uiso
C5_2 C 0.253832 0.892765 0.007309 0.0633 Uiso
H2_2 H 0.0974398 0.893196 0.062496 . .
H3_2 H 0.188463 0.978637 0.196932 . .
H7_2 H 0.277905 0.871595 0.0947351 . .
H10_2 H 0.369303 0.995409 0.136172 . .
C18_2 C 0.675359 0.993637 0.082451 0.0000 Uiso
H14_2 H 0.790372 0.867663 0.0576618 . .
H20_2 H 0.700184 0.970973 0.16859 . .
H23_2 H 0.609642 0.889342 0.027694 . .
H36_2 H 0.880735 0.990489 0.108762 . .
loop_
_geom_bond_atom_site_label_1
_geom_bond_atom_site_label_2
_geom_bond_site_symmetry_1
_geom_bond_site_symmetry_2
O2 C8 1_555 1_555
O10 C8 1_555 1_555
C6 C3 1_555 1_555
C8 C6 1_555 1_555
Al6 O2 1_555 1_555
Al13 O10 1_555 1_555
C3 H9 1_555 1_555
Al6 O3 1_555 1_555
O3 C16 1_555 1_555
O4 C7 1_555 1_555
Al2 O5 1_555 1_555
O6 Al2 1_555 1_555
O7 Al2 1_555 1_555
O9 Al2 1_555 1_555
C7 O7 1_555 1_555
C11 C12 1_555 1_555
C12 C13 1_555 1_555
C14 C11 1_555 1_555
C15 O9 1_555 1_555
C16 C14 1_555 1_555
O11 Al6 1_555 1_555
O12 C31 1_555 1_555
Al13 O16 1_555 1_555
O16 Al9 1_555 1_555
O17 Al6 1_555 1_555
O18 Al13 1_555 1_555
O20 Al13 1_555 1_555
C20 C21 1_555 1_555
C21 C17 1_555 1_555
C23 O11 1_555 1_555
C28 C29 1_555 1_555
C29 C25 1_555 1_555
C31 O20 1_555 1_555
O21 Al6 1_555 1_555
O26 Al2 1_555 1_555
Al9 O12 1_555 1_555
Al11 O4 1_555 1_555
O30 Al2 1_555 1_555
O32 Al13 1_555 1_555
O6 Al11 1_555 1_555
C13 C15 1_555 1_555
Al13 O17 1_555 1_555
O18 C23 1_555 1_555
C21 C23 1_555 1_555
C29 C31 1_555 1_555
C4 H5 1_555 1_555
C4 H6 1_555 1_555
C12 H11 1_555 1_555
C12 H12 1_555 1_555
C14 H13 1_555 1_555
C20 H15 1_555 1_555
C20 H16 1_555 1_555
C25 H19 1_555 1_555
C17 H22 1_555 1_555
C11 H26 1_555 1_555
C11 H27 1_555 1_555
C28 H37 1_555 1_555
C28 H38 1_555 1_555
C29 H39 1_555 1_555
O13 C24 1_555 1_555
O30 C24 1_555 1_555
C18 C22 1_555 1_555
C22 C19 1_555 1_555
C24 C22 1_555 1_555
Al11 O13 1_555 1_555
C18 H20 1_555 1_555
C18 H21 1_555 1_555
C19 H36 1_555 1_555
Al11 O14 1_555 1_555
O14 C32 1_555 1_555
O19 C32 1_555 1_555
C26 C30 1_555 1_555
C30 C27 1_555 1_555
C32 C30 1_555 1_555
O28 Al11 1_555 1_555
Al12 O19 1_555 1_555
O31 Al11 1_555 1_555
Al12 O31 1_555 1_555
C26 H29 1_555 1_555
C26 H30 1_555 1_555
C27 H31 1_555 1_555
C27 H32 1_555 1_555
C30 H40 1_555 1_555
C9 C10 1_555 1_555
Al5 O1 1_555 1_555
Al7 O8 1_555 1_555
Al7 O24 1_555 1_555
C10 H24 1_555 1_555
C10 H25 1_555 1_555
C9 H33 1_555 1_555
C9 H34 1_555 1_555
C9_2 H34_2 1_555 1_555
C10_2 H24_2 1_555 1_555
C10_2 H25_2 1_555 1_555
O13_2 C24_2 1_555 1_555
O15 C24_2 1_555 1_555
C22_2 C19_2 1_555 1_555
C24_2 C22_2 1_555 1_555
Al7 O15 1_555 1_555
Al9 O13_2 1_555 1_555
O4_2 C7_2 1_555 1_555
O6_2 Al7 1_555 1_555
O7_2 Al7 1_555 1_555
O9_2 Al7 1_555 1_555
C7_2 O7_2 1_555 1_555
C12_2 C13_2 1_555 1_555
C15_2 O9_2 1_555 1_555
Al9 O4_2 1_555 1_555
O6_2 Al9 1_555 1_555
C13_2 C15_2 1_555 1_555
C4_2 H5_2 1_555 1_555
C4_2 H6_2 1_555 1_555
C12_2 H11_2 1_555 1_555
C12_2 H12_2 1_555 1_555
O2_2 C8_2 1_555 1_555
O10_2 C8_2 1_555 1_555
C1 C2 1_555 1_555
C2 C6_2 1_555 1_555
C5 C1 1_555 1_555
C6_2 C3_2 1_555 1_555
C8_2 C6_2 1_555 1_555
Al5 O2_2 1_555 1_555
Al12 O10_2 1_555 1_555
C1 H2 1_555 1_555
C2 H3 1_555 1_555
C2 H4_2 1_555 1_555
C5 H7 1_555 1_555
C3_2 H9_2 1_555 1_555
C3_2 H10 1_555 1_555
Al5 O3_2 1_555 1_555
O3_2 C16_2 1_555 1_555
C14_2 C11_2 1_555 1_555
C16_2 C14_2 1_555 1_555
O11_2 Al5 1_555 1_555
Al9 O14_2 1_555 1_555
O28 C31_2 1_555 1_555
O14_2 C32_2 1_555 1_555
O17_2 Al5 1_555 1_555
O18_2 Al12 1_555 1_555
O32 C32_2 1_555 1_555
O20_2 Al12 1_555 1_555
C20_2 C21_2 1_555 1_555
C21_2 C17_2 1_555 1_555
C23_2 O11_2 1_555 1_555
C25_2 C26_2 1_555 1_555
C26_2 C30_2 1_555 1_555
C27_2 C28_2 1_555 1_555
C28_2 C29_2 1_555 1_555
C29_2 C25_2 1_555 1_555
C30_2 C27_2 1_555 1_555
C31_2 O20_2 1_555 1_555
C32_2 C30_2 1_555 1_555
Al12 O17_2 1_555 1_555
O18_2 C23_2 1_555 1_555
C21_2 C23_2 1_555 1_555
C29_2 C31_2 1_555 1_555
C14_2 H13_2 1_555 1_555
C20_2 H15_2 1_555 1_555
C20_2 H16_2 1_555 1_555
C25_2 H18_2 1_555 1_555
C25_2 H19_2 1_555 1_555
C17_2 H22_2 1_555 1_555
C11_2 H26_2 1_555 1_555
C11_2 H27_2 1_555 1_555
C26_2 H29_2 1_555 1_555
C26_2 H30_2 1_555 1_555
C27_2 H31_2 1_555 1_555
C27_2 H32_2 1_555 1_555
C28_2 H37_2 1_555 1_555
C28_2 H38_2 1_555 1_555
C29_2 H39_2 1_555 1_555
C30_2 H40_2 1_555 1_555
C1_2 C2_2 1_555 1_555
C5_2 C1_2 1_555 1_555
C1_2 H2_2 1_555 1_555
C2_2 H3_2 1_555 1_555
C5_2 H7_2 1_555 1_555
C18_2 H20_2 1_555 1_555

#END
