
###############################################################################
#
# This file contains modified crystal structure data generated from the
# MOF subset of the Cambridge Structural Database (CSD) v543 
# hosted by the Cambridge Crystallographic Data Centre (CCDC).
#
# This work is licensed under the Creative Commons
# Attribution-NonCommercial-ShareAlike 4.0 International License.
# To view a copy of this license, visit
# http://creativecommons.org/licenses/by-nc-sa/4.0/
# or send a letter to
# Creative Commons, PO Box 1866, Mountain View, CA 94042, USA.
#
# CIF created using the CSD Python API on 29 September 2022
# The structure has been converted into the P1 space group
# The structure has a 3D framework
# The original CSD entry JOBGIS is in the tetragonal crystal system
# The original CSD entry JOBGIS is in a Sohncke space group
# The framework has been calculated to contain at least 10.0% void space
# The void calculation uses a probe of radius 1.32A, grid spacing 0.4
#
###############################################################################

data_JOBGIS
_chemical_formula_moiety         '(C394 H250 N40 O8 Zn8)n'
_symmetry_cell_setting           triclinic
_symmetry_space_group_name_H-M   'P 1'
_symmetry_Int_Tables_number      1
_space_group_name_Hall           'P 1'
loop_
_symmetry_equiv_pos_site_id
_symmetry_equiv_pos_as_xyz
1 x,y,z
_cell_length_a                   17.809(2)
_cell_length_b                   17.809(2)
_cell_length_c                   27.080(8)
_cell_angle_alpha                90
_cell_angle_beta                 90
_cell_angle_gamma                90
_cell_volume                     8588.71
loop_
_atom_site_label
_atom_site_type_symbol
_atom_site_fract_x
_atom_site_fract_y
_atom_site_fract_z
H25 H 0.8756 0.0220 0.6790
C43 C 0.7966(7) 0.0393(7) 0.7309(5)
H26 H 0.8103 0.0893 0.7392
C44 C 0.7372(5) 0.0032(6) 0.7543(4)
H27 H 0.7116 0.0294 0.7798
C34 C 0.6323(6) 0.8567(7) 0.0083(4)
C35 C 0.6648(6) 0.8554(8) 0.0558(5)
H19 H 0.6633 0.8985 0.0764
C36 C 0.7003(6) 0.7872(11) 0.0723(6)
H20 H 0.7235 0.7836 0.1038
C37 C 0.6987(8) 0.7289(10) 0.0410(6)
H21 H 0.7249 0.6846 0.0501
C83 C 0.3677(6) 0.1433(7) 0.0083(4)
C84 C 0.3352(6) 0.1446(8) 0.0558(5)
H50 H 0.3367 0.1015 0.0764
C85 C 0.2997(6) 0.2128(11) 0.0723(6)
H51 H 0.2765 0.2164 0.1038
C86 C 0.3013(8) 0.2711(10) 0.0410(6)
H52 H 0.2751 0.3154 0.0501
Zn1 Zn 0.49893(6) 0.79936(5) 0.81786(4)
N1 N 0.5256(4) 0.8369(4) 0.7497(3)
N2 N 0.4185(4) 0.7315(4) 0.7868(3)
N3 N 0.4863(5) 0.7410(4) 0.8840(3)
N4 N 0.5958(4) 0.8448(3) 0.8440(2)
C1 C 0.5876(5) 0.8814(4) 0.7382(3)
C2 C 0.4810(5) 0.8360(5) 0.7087(4)
C3 C 0.3859(5) 0.7431(5) 0.7405(4)
C4 C 0.3734(6) 0.6811(5) 0.8117(6)
C5 C 0.4316(7) 0.6898(5) 0.8940(4)
C6 C 0.5260(6) 0.7503(6) 0.9268(4)
C7 C 0.6235(5) 0.8394(5) 0.8900(4)
C8 C 0.6517(4) 0.8811(4) 0.8190(3)
C9 C 0.5803(6) 0.9050(5) 0.6868(4)
H1 H 0.6153 0.9343 0.6687
C10 C 0.5141(5) 0.8773(5) 0.6697(4)
H2 H 0.4939 0.8844 0.6376
C11 C 0.3214(6) 0.6955(6) 0.7357(4)
H3 H 0.2902 0.6914 0.7074
C12 C 0.3133(6) 0.6586(6) 0.7773(4)
H4 H 0.2748 0.6231 0.7842
C13 C 0.4370(6) 0.6696(6) 0.9422(5)
H5 H 0.4061 0.6334 0.9580
C14 C 0.4928(6) 0.7086(5) 0.9647(5)
H6 H 0.5064 0.7077 0.9986
C15 C 0.6961(6) 0.8747(4) 0.8955(3)
H7 H 0.7250 0.8792 0.9249
C16 C 0.7138(5) 0.8993(5) 0.8508(4)
H8 H 0.7588 0.9243 0.8416
C17 C 0.4159(6) 0.7909(5) 0.7050(4)
C18 C 0.3835(8) 0.6592(6) 0.8631(6)
C19 C 0.5902(5) 0.7959(5) 0.9310(4)
C20 C 0.6479(5) 0.8982(4) 0.7686(3)
C21 C 0.3719(5) 0.8001(4) 0.6599(4)
C22 C 0.3301(6) 0.8642(7) 0.6485(5)
H9 H 0.3312 0.9050 0.6711
C23 C 0.2892(7) 0.8711(6) 0.6080(6)
H10 H 0.2608 0.9155 0.6027
C24 C 0.2875(5) 0.8143(6) 0.5734(6)
H11 H 0.2571 0.8202 0.5449
C25 C 0.3290(4) 0.7486(5) 0.5791(3)
H12 H 0.3285 0.7093 0.5553
C26 C 0.3713(4) 0.7448(4) 0.6224(3)
C27 C 0.3212(4) 0.6053(4) 0.8827(2)
C28 C 0.2584(4) 0.6275(4) 0.9095(4)
H13 H 0.2498 0.6792 0.9158
C29 C 0.2084(4) 0.5739(4) 0.9271(3)
H14 H 0.1654 0.5891 0.9454
C30 C 0.2210(4) 0.4982(4) 0.9179(3)
H15 H 0.1868 0.4616 0.9299
C31 C 0.2838(5) 0.4760(4) 0.8912(4)
H16 H 0.2925 0.4242 0.8849
C32 C 0.3339(5) 0.5295(4) 0.8736(4)
H17 H 0.3768 0.5144 0.8553
C33 C 0.6290(5) 0.7951(6) 0.9787(4)
H18 H 0.6119 0.9026 0.9966
C38 C 0.6599(7) 0.7291(7) 0.9943(5)
H22 H 0.6559 0.6848 0.9750
C39 C 0.7145(5) 0.9354(5) 0.7434(3)
C40 C 0.7531(6) 0.8937(6) 0.7090(4)
H23 H 0.7399 0.8429 0.7024
C41 C 0.8127(6) 0.9287(7) 0.6839(4)
H24 H 0.8383 0.9024 0.6585
C42 C 0.8341(5) 0.9997(7) 0.6956(5)
C45 C 0.4163(5) 0.6087(5) 0.6169(3)
C46 C 0.4614(4) 0.5548(4) 0.6447(3)
C47 C 0.5000 0.5000 0.6169(4)
H28 H 0.5000 0.5000 0.5818
C48 C 0.4612(5) 0.5544(4) 0.6952(3)
H29 H 0.4343 0.5917 0.7130
C49 C 0.5000 0.5000 0.7197(4)
H30 H 0.5000 0.5000 0.7548
N5 N 0.4159(4) 0.6799(3) 0.6330(2)
H31 H 0.4510 0.6887 0.6551
O1 O 0.3819(3) 0.5918(3) 0.5777(2)
N6 N 0.4744(4) 0.1631(4) 0.7497(3)
N7 N 0.5815(4) 0.2685(4) 0.7868(3)
N8 N 0.5137(5) 0.2590(4) 0.8840(3)
N9 N 0.4042(4) 0.1552(3) 0.8440(2)
C50 C 0.4124(5) 0.1186(4) 0.7382(3)
C51 C 0.5190(5) 0.1640(5) 0.7087(4)
C52 C 0.6141(5) 0.2569(5) 0.7405(4)
C53 C 0.6266(6) 0.3189(5) 0.8117(6)
C54 C 0.5684(7) 0.3102(5) 0.8940(4)
C55 C 0.4740(6) 0.2497(6) 0.9268(4)
C56 C 0.3765(5) 0.1606(5) 0.8900(4)
C57 C 0.3483(4) 0.1189(4) 0.8190(3)
C58 C 0.4197(6) 0.0950(5) 0.6868(4)
H32 H 0.3847 0.0657 0.6687
C59 C 0.4859(5) 0.1227(5) 0.6697(4)
H33 H 0.5061 0.1156 0.6376
C60 C 0.6786(6) 0.3045(6) 0.7357(4)
H34 H 0.7098 0.3086 0.7074
C61 C 0.6867(6) 0.3414(6) 0.7773(4)
H35 H 0.7252 0.3769 0.7842
C62 C 0.5630(6) 0.3304(6) 0.9422(5)
H36 H 0.5939 0.3666 0.9580
C63 C 0.5072(6) 0.2914(5) 0.9647(5)
H37 H 0.4936 0.2923 0.9986
C64 C 0.3039(6) 0.1253(4) 0.8955(3)
H38 H 0.2750 0.1208 0.9249
C65 C 0.2862(5) 0.1007(5) 0.8508(4)
H39 H 0.2412 0.0757 0.8416
C66 C 0.5841(6) 0.2091(5) 0.7050(4)
C67 C 0.6165(8) 0.3408(6) 0.8631(6)
C68 C 0.4098(5) 0.2041(5) 0.9310(4)
C69 C 0.3521(5) 0.1018(4) 0.7686(3)
C70 C 0.6281(5) 0.1999(4) 0.6599(4)
C71 C 0.6699(6) 0.1358(7) 0.6485(5)
H40 H 0.6688 0.0950 0.6711
C72 C 0.7108(7) 0.1289(6) 0.6080(6)
H41 H 0.7392 0.0845 0.6027
C73 C 0.7125(5) 0.1857(6) 0.5734(6)
H42 H 0.7429 0.1798 0.5449
C74 C 0.6710(4) 0.2514(5) 0.5791(3)
H43 H 0.6715 0.2907 0.5553
C75 C 0.6287(4) 0.2552(4) 0.6224(3)
C76 C 0.6788(4) 0.3947(4) 0.8827(2)
C77 C 0.7416(4) 0.3725(4) 0.9095(4)
H44 H 0.7502 0.3208 0.9158
C78 C 0.7916(4) 0.4261(4) 0.9271(3)
H45 H 0.8346 0.4109 0.9454
C79 C 0.7790(4) 0.5018(4) 0.9179(3)
H46 H 0.8132 0.5384 0.9299
C80 C 0.7162(5) 0.5240(4) 0.8912(4)
H47 H 0.7075 0.5758 0.8849
C81 C 0.6661(5) 0.4705(4) 0.8736(4)
H48 H 0.6232 0.4856 0.8553
C82 C 0.3710(5) 0.2049(6) 0.9787(4)
H49 H 0.3881 0.0974 0.9966
C87 C 0.3401(7) 0.2709(7) 0.9943(5)
H53 H 0.3441 0.3152 0.9750
C88 C 0.2855(5) 0.0646(5) 0.7434(3)
C89 C 0.2469(6) 0.1063(6) 0.7090(4)
H54 H 0.2601 0.1571 0.7024
C90 C 0.1873(6) 0.0713(7) 0.6839(4)
H55 H 0.1617 0.0976 0.6585
C91 C 0.1659(5) 0.0003(7) 0.6956(5)
C94 C 0.5837(5) 0.3913(5) 0.6169(3)
C95 C 0.5386(4) 0.4452(4) 0.6447(3)
C96 C 0.5388(5) 0.4456(4) 0.6952(3)
H59 H 0.5657 0.4083 0.7130
N10 N 0.5841(4) 0.3201(3) 0.6330(2)
H60 H 0.5490 0.3113 0.6551
O2 O 0.6181(3) 0.4082(3) 0.5777(2)
Zn2 Zn 0.50107(6) 0.20064(5) 0.81786(4)
Zn3 Zn 0.29936(5) 0.50107(6) 0.56786(4)
Zn4 Zn 0.70064(5) 0.49893(6) 0.56786(4)
O3 O 0.4082(3) 0.8819(3) 0.8277(2)
O4 O 0.5918(3) 0.1181(3) 0.8277(2)
N4_2 N 0.1552(3) 0.0958(4) 0.0940(2)
C6_2 C 0.2497(6) 0.0260(6) 0.1768(4)
C7_2 C 0.1606(5) 0.1235(5) 0.1400(4)
C8_2 C 0.1189(4) 0.1517(4) 0.0690(3)
H6_2 H 0.2923 0.0064 0.2486
C15_2 C 0.1253(4) 0.1961(6) 0.1455(3)
H7_2 H 0.1208 0.2250 0.1749
C16_2 C 0.1007(5) 0.2138(5) 0.1008(4)
H8_2 H 0.0757 0.2588 0.0916
C19_2 C 0.2041(5) 0.0902(5) 0.1810(4)
C20_2 C 0.1018(4) 0.1479(5) 0.0186(3)
C33_2 C 0.2049(6) 0.1290(5) 0.2287(4)
C34_2 C 0.1433(7) 0.1323(6) 0.2583(4)
H18_2 H 0.0974 0.1119 0.2466
C35_2 C 0.1446(8) 0.1648(6) 0.3058(5)
H19_2 H 0.1015 0.1633 0.3264
C36_2 C 0.2128(11) 0.2003(6) 0.3223(6)
H20_2 H 0.2164 0.2235 0.3538
C37_2 C 0.2711(10) 0.1987(8) 0.2910(6)
H21_2 H 0.3154 0.2249 0.3001
C38_2 C 0.2709(7) 0.1599(7) 0.2443(5)
H22_2 H 0.3152 0.1559 0.2250
H30_2 H 0.5000 -0.0000 0.0048
N7_2 N 0.7315(4) 0.0815(4) 0.0368(3)
N8_2 N 0.7410(4) 0.0137(5) 0.1340(3)
C53_2 C 0.6811(5) 0.1266(6) 0.0617(6)
C54_2 C 0.6898(5) 0.0684(7) 0.1440(4)
C61_2 C 0.6586(6) 0.1867(6) 0.0273(4)
H35_2 H 0.6231 0.2252 0.0342
C62_2 C 0.6696(6) 0.0630(6) 0.1922(5)
H36_2 H 0.6334 0.0939 0.2080
C63_2 C 0.7086(5) 0.0072(6) 0.2147(5)
C67_2 C 0.6592(6) 0.1165(8) 0.1131(6)
C76_2 C 0.6053(4) 0.1788(4) 0.1327(2)
C77_2 C 0.6275(4) 0.2416(4) 0.1595(4)
H44_2 H 0.6792 0.2502 0.1658
C78_2 C 0.5739(4) 0.2916(4) 0.1771(3)
H45_2 H 0.5891 0.3346 0.1954
C79_2 C 0.4982(4) 0.2790(4) 0.1679(3)
H46_2 H 0.4616 0.3132 0.1799
C80_2 C 0.4760(4) 0.2162(5) 0.1412(4)
H47_2 H 0.4242 0.2075 0.1349
C81_2 C 0.5295(4) 0.1661(5) 0.1236(4)
H48_2 H 0.5144 0.1232 0.1053
Zn2_2 Zn 0.79936(5) 0.00107(6) 0.06786(4)
O4_2 O 0.8819(3) 0.0918(3) 0.0777(2)
N1_2 N 0.1631(4) 0.0256(4) 0.9997(3)
C1_2 C 0.1186(4) 0.0876(5) 0.9882(3)
C9_2 C 0.0950(5) 0.0803(6) 0.9368(4)
H1_2 H 0.0657 0.1153 0.9187
C10_2 C 0.1227(5) 0.0141(5) 0.9197(4)
C39_2 C 0.0646(5) 0.2145(5) 0.9934(3)
C40_2 C 0.1063(6) 0.2531(6) 0.9590(4)
H23_2 H 0.1571 0.2399 0.9524
C41_2 C 0.0713(7) 0.3127(6) 0.9339(4)
H24_2 H 0.0976 0.3383 0.9085
C42_2 C 0.0003(7) 0.3341(5) 0.9456(5)
C47_2 C 0.5000 0.0000 0.8669(4)
H28_2 H 0.5000 0.0000 0.8318
C49_2 C 0.5000 -0.0000 0.9697(4)
C51_2 C 0.8360(5) 0.0190(5) 0.9587(4)
C52_2 C 0.7431(5) 0.1141(5) 0.9905(4)
H33_2 H 0.8844 0.0061 0.8876
C60_2 C 0.6955(6) 0.1786(6) 0.9857(4)
H34_2 H 0.6914 0.2098 0.9574
C66_2 C 0.7909(5) 0.0841(6) 0.9550(4)
C70_2 C 0.8001(4) 0.1281(5) 0.9099(4)
C71_2 C 0.8642(7) 0.1699(6) 0.8985(5)
H40_2 H 0.9050 0.1688 0.9211
C72_2 C 0.8711(6) 0.2108(7) 0.8580(6)
H41_2 H 0.9155 0.2392 0.8527
C73_2 C 0.8143(6) 0.2125(5) 0.8234(6)
H42_2 H 0.8202 0.2429 0.7949
C74_2 C 0.7486(5) 0.1710(4) 0.8291(3)
H43_2 H 0.7093 0.1715 0.8053
C75_2 C 0.7448(4) 0.1287(4) 0.8724(3)
C94_2 C 0.6087(5) 0.0837(5) 0.8669(3)
C95_2 C 0.5548(4) 0.0386(4) 0.8947(3)
C96_2 C 0.5544(4) 0.0388(5) 0.9452(3)
H59_2 H 0.5917 0.0657 0.9630
N10_2 N 0.6799(3) 0.0841(4) 0.8830(2)
H60_2 H 0.6887 0.0490 0.9051
Zn1_2 Zn 0.20064(5) 0.99893(6) 0.06786(4)
N2_2 N 0.2685(4) 0.9185(4) 0.0368(3)
N3_2 N 0.2590(4) 0.9863(5) 0.1340(3)
C4_2 C 0.3189(5) 0.8734(6) 0.0617(6)
C5_2 C 0.3102(5) 0.9316(7) 0.1440(4)
C12_2 C 0.3414(6) 0.8133(6) 0.0273(4)
H4_2 H 0.3769 0.7748 0.0342
C13_2 C 0.3304(6) 0.9370(6) 0.1922(5)
H5_2 H 0.3666 0.9061 0.2080
C14_2 C 0.2914(5) 0.9928(6) 0.2147(5)
C18_2 C 0.3408(6) 0.8835(8) 0.1131(6)
C27_2 C 0.3947(4) 0.8212(4) 0.1327(2)
C28_2 C 0.3725(4) 0.7584(4) 0.1595(4)
H13_2 H 0.3208 0.7498 0.1658
C29_2 C 0.4261(4) 0.7084(4) 0.1771(3)
H14_2 H 0.4109 0.6654 0.1954
C30_2 C 0.5018(4) 0.7210(4) 0.1679(3)
H15_2 H 0.5384 0.6868 0.1799
C31_2 C 0.5240(4) 0.7838(5) 0.1412(4)
H16_2 H 0.5758 0.7925 0.1349
C32_2 C 0.4705(4) 0.8339(5) 0.1236(4)
H17_2 H 0.4856 0.8768 0.1053
H30_3 H 0.5000 1.0000 0.0048
N9_2 N 0.8448(3) 0.9042(4) 0.0940(2)
C55_2 C 0.7503(6) 0.9740(6) 0.1768(4)
C56_2 C 0.8394(5) 0.8765(5) 0.1400(4)
C57_2 C 0.8811(4) 0.8483(4) 0.0690(3)
H37_2 H 0.7077 0.9936 0.2486
C64_2 C 0.8747(4) 0.8039(6) 0.1455(3)
H38_2 H 0.8792 0.7750 0.1749
C65_2 C 0.8993(5) 0.7862(5) 0.1008(4)
H39_2 H 0.9243 0.7412 0.0916
C68_2 C 0.7959(5) 0.9098(5) 0.1810(4)
C69_2 C 0.8982(4) 0.8521(5) 0.0186(3)
C82_2 C 0.7951(6) 0.8710(5) 0.2287(4)
C83_2 C 0.8567(7) 0.8677(6) 0.2583(4)
H49_2 H 0.9026 0.8881 0.2466
C84_2 C 0.8554(8) 0.8352(6) 0.3058(5)
H50_2 H 0.8985 0.8367 0.3264
C85_2 C 0.7872(11) 0.7997(6) 0.3223(6)
H51_2 H 0.7836 0.7765 0.3538
C86_2 C 0.7289(10) 0.8013(8) 0.2910(6)
H52_2 H 0.6846 0.7751 0.3001
C87_2 C 0.7291(7) 0.8401(7) 0.2443(5)
H53_2 H 0.6848 0.8441 0.2250
O3_2 O 0.1181(3) 0.9082(3) 0.0777(2)
C2_2 C 0.1640(5) 0.9810(5) 0.9587(4)
C3_2 C 0.2569(5) 0.8859(5) 0.9905(4)
H2_2 H 0.1156 0.9939 0.8876
C11_2 C 0.3045(6) 0.8214(6) 0.9857(4)
H3_2 H 0.3086 0.7902 0.9574
C17_2 C 0.2091(5) 0.9159(6) 0.9550(4)
C21_2 C 0.1999(4) 0.8719(5) 0.9099(4)
C22_2 C 0.1358(7) 0.8301(6) 0.8985(5)
H9_2 H 0.0950 0.8312 0.9211
C23_2 C 0.1289(6) 0.7892(7) 0.8580(6)
H10_2 H 0.0845 0.7608 0.8527
C24_2 C 0.1857(6) 0.7875(5) 0.8234(6)
H11_2 H 0.1798 0.7571 0.7949
C25_2 C 0.2514(5) 0.8290(4) 0.8291(3)
H12_2 H 0.2907 0.8285 0.8053
C26_2 C 0.2552(4) 0.8713(4) 0.8724(3)
C45_2 C 0.3913(5) 0.9163(5) 0.8669(3)
C46_2 C 0.4452(4) 0.9614(4) 0.8947(3)
C47_3 C 0.5000 1.0000 0.8669(4)
H28_3 H 0.5000 1.0000 0.8318
C48_2 C 0.4456(4) 0.9612(5) 0.9452(3)
H29_2 H 0.4083 0.9343 0.9630
C49_3 C 0.5000 1.0000 0.9697(4)
N5_2 N 0.3201(3) 0.9159(4) 0.8830(2)
H31_2 H 0.3113 0.9510 0.9051
N6_2 N 0.8369(4) 0.9744(4) 0.9997(3)
C50_2 C 0.8814(4) 0.9124(5) 0.9882(3)
C58_2 C 0.9050(5) 0.9197(6) 0.9368(4)
H32_2 H 0.9343 0.8847 0.9187
C59_2 C 0.8773(5) 0.9859(5) 0.9197(4)
C88_2 C 0.9354(5) 0.7855(5) 0.9934(3)
C89_2 C 0.8937(6) 0.7469(6) 0.9590(4)
H54_2 H 0.8429 0.7601 0.9524
C90_2 C 0.9287(7) 0.6873(6) 0.9339(4)
H55_2 H 0.9024 0.6617 0.9085
C91_2 C 0.9997(7) 0.6659(5) 0.9456(5)
Zn1_3 Zn 0.00107(6) 0.70064(5) 0.31786(4)
N2_3 N 0.0815(4) 0.7685(4) 0.2868(3)
N3_3 N 0.0137(5) 0.7590(4) 0.3840(3)
C2_3 C 0.0190(5) 0.6640(5) 0.2087(4)
C3_3 C 0.1141(5) 0.7569(5) 0.2405(4)
C4_3 C 0.1266(6) 0.8189(5) 0.3117(6)
C5_3 C 0.0684(7) 0.8102(5) 0.3940(4)
H2_3 H 0.0061 0.6156 0.1376
C11_3 C 0.1786(6) 0.8045(6) 0.2357(4)
H3_3 H 0.2098 0.8086 0.2074
C12_3 C 0.1867(6) 0.8414(6) 0.2773(4)
H4_3 H 0.2252 0.8769 0.2842
C13_3 C 0.0630(6) 0.8304(6) 0.4422(5)
H5_3 H 0.0939 0.8666 0.4580
C14_3 C 0.0072(6) 0.7914(5) 0.4647(5)
C17_3 C 0.0841(6) 0.7091(5) 0.2050(4)
C18_3 C 0.1165(8) 0.8408(6) 0.3631(6)
C21_3 C 0.1281(5) 0.6999(4) 0.1599(4)
C22_3 C 0.1699(6) 0.6358(7) 0.1485(5)
H9_3 H 0.1688 0.5950 0.1711
C23_3 C 0.2108(7) 0.6289(6) 0.1080(6)
H10_3 H 0.2392 0.5845 0.1027
C24_3 C 0.2125(5) 0.6857(6) 0.0734(6)
H11_3 H 0.2429 0.6798 0.0449
C25_3 C 0.1710(4) 0.7514(5) 0.0791(3)
H12_3 H 0.1715 0.7907 0.0553
C26_3 C 0.1287(4) 0.7552(4) 0.1224(3)
C27_3 C 0.1788(4) 0.8947(4) 0.3827(2)
C28_3 C 0.2416(4) 0.8725(4) 0.4095(4)
H13_3 H 0.2502 0.8208 0.4158
C29_3 C 0.2916(4) 0.9261(4) 0.4271(3)
H14_3 H 0.3346 0.9109 0.4454
C32_3 C 0.1661(5) 0.9705(4) 0.3736(4)
H17_3 H 0.1232 0.9856 0.3553
C45_3 C 0.0837(5) 0.8913(5) 0.1169(3)
C46_3 C 0.0386(4) 0.9452(4) 0.1447(3)
C47_4 C -0.0000 1.0000 0.1169(4)
H28_4 H -0.0000 1.0000 0.0818
C48_3 C 0.0388(5) 0.9456(4) 0.1952(3)
H29_3 H 0.0657 0.9083 0.2130
C49_4 C -0.0000 1.0000 0.2197(4)
H30_4 H -0.0000 1.0000 0.2548
N5_3 N 0.0841(4) 0.8201(3) 0.1330(2)
H31_3 H 0.0490 0.8113 0.1551
O3_3 O 0.0918(3) 0.6181(3) 0.3277(2)
C47_5 C 1.0000 0.0000 0.1169(4)
H28_5 H 1.0000 -0.0000 0.0818
C49_5 C 1.0000 0.0000 0.2197(4)
H30_5 H 1.0000 -0.0000 0.2548
N7_3 N 0.9185(4) 0.2315(4) 0.2868(3)
N8_3 N 0.9863(5) 0.2410(4) 0.3840(3)
C51_3 C 0.9810(5) 0.3360(5) 0.2087(4)
C52_3 C 0.8859(5) 0.2431(5) 0.2405(4)
C53_3 C 0.8734(6) 0.1811(5) 0.3117(6)
C54_3 C 0.9316(7) 0.1898(5) 0.3940(4)
H33_3 H 0.9939 0.3844 0.1376
C60_3 C 0.8214(6) 0.1955(6) 0.2357(4)
H34_3 H 0.7902 0.1914 0.2074
C61_3 C 0.8133(6) 0.1586(6) 0.2773(4)
H35_3 H 0.7748 0.1231 0.2842
C62_3 C 0.9370(6) 0.1696(6) 0.4422(5)
H36_3 H 0.9061 0.1334 0.4580
C63_3 C 0.9928(6) 0.2086(5) 0.4647(5)
C66_3 C 0.9159(6) 0.2909(5) 0.2050(4)
C67_3 C 0.8835(8) 0.1592(6) 0.3631(6)
C70_3 C 0.8719(5) 0.3001(4) 0.1599(4)
C71_3 C 0.8301(6) 0.3642(7) 0.1485(5)
H40_3 H 0.8312 0.4050 0.1711
C72_3 C 0.7892(7) 0.3711(6) 0.1080(6)
H41_3 H 0.7608 0.4155 0.1027
C73_3 C 0.7875(5) 0.3143(6) 0.0734(6)
H42_3 H 0.7571 0.3202 0.0449
C74_3 C 0.8290(4) 0.2486(5) 0.0791(3)
H43_3 H 0.8285 0.2093 0.0553
C75_3 C 0.8713(4) 0.2448(4) 0.1224(3)
C76_3 C 0.8212(4) 0.1053(4) 0.3827(2)
C77_3 C 0.7584(4) 0.1275(4) 0.4095(4)
H44_3 H 0.7498 0.1792 0.4158
C78_3 C 0.7084(4) 0.0739(4) 0.4271(3)
H45_3 H 0.6654 0.0891 0.4454
C81_3 C 0.8339(5) 0.0295(4) 0.3736(4)
H48_3 H 0.8768 0.0144 0.3553
C94_3 C 0.9163(5) 0.1087(5) 0.1169(3)
C95_3 C 0.9614(4) 0.0548(4) 0.1447(3)
C96_3 C 0.9612(5) 0.0544(4) 0.1952(3)
H59_3 H 0.9343 0.0917 0.2130
N10_3 N 0.9159(4) 0.1799(3) 0.1330(2)
H60_3 H 0.9510 0.1887 0.1551
Zn2_3 Zn 0.99893(6) 0.29936(5) 0.31786(4)
O4_3 O 0.9082(3) 0.3819(3) 0.3277(2)
N1_3 N 0.3369(4) 0.4744(4) 0.4997(3)
N2_4 N 0.2315(4) 0.5815(4) 0.5368(3)
N3_4 N 0.2410(4) 0.5137(5) 0.6340(3)
N4_3 N 0.3448(3) 0.4042(4) 0.5940(2)
C1_3 C 0.3814(4) 0.4124(5) 0.4882(3)
C2_4 C 0.3360(5) 0.5190(5) 0.4587(4)
C3_4 C 0.2431(5) 0.6141(5) 0.4905(4)
C4_4 C 0.1811(5) 0.6266(6) 0.5617(6)
C5_4 C 0.1898(5) 0.5684(7) 0.6440(4)
C6_3 C 0.2503(6) 0.4740(6) 0.6768(4)
C7_3 C 0.3394(5) 0.3765(5) 0.6400(4)
C8_3 C 0.3811(4) 0.3483(4) 0.5690(3)
C9_3 C 0.4050(5) 0.4197(6) 0.4368(4)
H1_3 H 0.4343 0.3847 0.4187
C10_3 C 0.3773(5) 0.4859(5) 0.4197(4)
H2_4 H 0.3844 0.5061 0.3876
C11_4 C 0.1955(6) 0.6786(6) 0.4857(4)
H3_4 H 0.1914 0.7098 0.4574
C12_4 C 0.1586(6) 0.6867(6) 0.5273(4)
H4_4 H 0.1231 0.7252 0.5342
C13_4 C 0.1696(6) 0.5630(6) 0.6922(5)
H5_4 H 0.1334 0.5939 0.7080
C14_4 C 0.2086(5) 0.5072(6) 0.7147(5)
H6_3 H 0.2077 0.4936 0.7486
C15_3 C 0.3747(4) 0.3039(6) 0.6455(3)
H7_3 H 0.3792 0.2750 0.6749
C16_3 C 0.3993(5) 0.2862(5) 0.6008(4)
H8_3 H 0.4243 0.2412 0.5916
C17_4 C 0.2909(5) 0.5841(6) 0.4550(4)
C18_4 C 0.1592(6) 0.6165(8) 0.6131(6)
C19_3 C 0.2959(5) 0.4098(5) 0.6810(4)
C20_3 C 0.3982(4) 0.3521(5) 0.5186(3)
C21_4 C 0.3001(4) 0.6281(5) 0.4099(4)
C22_4 C 0.3642(7) 0.6699(6) 0.3985(5)
H9_4 H 0.4050 0.6688 0.4211
C23_4 C 0.3711(6) 0.7108(7) 0.3580(6)
H10_4 H 0.4155 0.7392 0.3527
C24_4 C 0.3143(6) 0.7125(5) 0.3234(6)
H11_4 H 0.3202 0.7429 0.2949
C25_4 C 0.2486(5) 0.6710(4) 0.3291(3)
H12_4 H 0.2093 0.6715 0.3053
C26_4 C 0.2448(4) 0.6287(4) 0.3724(3)
C27_4 C 0.1053(4) 0.6788(4) 0.6327(2)
C28_4 C 0.1275(4) 0.7416(4) 0.6595(4)
H13_4 H 0.1792 0.7502 0.6658
C29_4 C 0.0739(4) 0.7916(4) 0.6771(3)
H14_4 H 0.0891 0.8346 0.6954
C32_4 C 0.0295(4) 0.6661(5) 0.6236(4)
H17_4 H 0.0144 0.6232 0.6053
C33_3 C 0.2951(6) 0.3710(5) 0.7287(4)
C34_3 C 0.3567(7) 0.3677(6) 0.7583(4)
H18_3 H 0.4026 0.3881 0.7466
C35_3 C 0.3554(8) 0.3352(6) 0.8058(5)
H19_3 H 0.3985 0.3367 0.8264
C36_3 C 0.2872(11) 0.2997(6) 0.8223(6)
H20_3 H 0.2836 0.2765 0.8538
C37_3 C 0.2289(10) 0.3013(8) 0.7910(6)
H21_3 H 0.1846 0.2751 0.8001
C38_3 C 0.2291(7) 0.3401(7) 0.7443(5)
H22_3 H 0.1848 0.3441 0.7250
C39_3 C 0.4354(5) 0.2855(5) 0.4934(3)
C40_3 C 0.3937(6) 0.2469(6) 0.4590(4)
H23_3 H 0.3429 0.2601 0.4524
C41_3 C 0.4287(7) 0.1873(6) 0.4339(4)
H24_3 H 0.4024 0.1617 0.4085
C42_3 C 0.4997(7) 0.1659(5) 0.4456(5)
H25_2 H 0.5220 0.1244 0.4290
C43_2 C 0.5393(7) 0.2034(7) 0.4809(5)
H26_2 H 0.5893 0.1897 0.4892
C44_2 C 0.5032(6) 0.2628(5) 0.5043(4)
H27_2 H 0.5294 0.2884 0.5298
C45_4 C 0.1087(5) 0.5837(5) 0.3669(3)
C46_4 C 0.0548(4) 0.5386(4) 0.3947(3)
C47_6 C 0.0000 0.5000 0.3669(4)
H28_6 H 0.0000 0.5000 0.3318
C48_4 C 0.0544(4) 0.5388(5) 0.4452(3)
H29_4 H 0.0917 0.5657 0.4630
C49_6 C -0.0000 0.5000 0.4697(4)
H30_6 H 0.0000 0.5000 0.5048
N5_4 N 0.1799(3) 0.5841(4) 0.3830(2)
H31_4 H 0.1887 0.5490 0.4051
C79_3 C 0.0018(4) 0.2210(4) 0.6679(3)
H46_3 H 0.0384 0.1868 0.6799
C80_3 C 0.0240(4) 0.2838(5) 0.6412(4)
H47_3 H 0.0758 0.2925 0.6349
C30_3 C 0.9982(4) 0.7790(4) 0.6679(3)
H15_3 H 0.9616 0.8132 0.6799
C31_3 C 0.9760(4) 0.7162(5) 0.6412(4)
H16_3 H 0.9242 0.7075 0.6349
C47_7 C 1.0000 0.5000 0.3669(4)
H28_7 H 1.0000 0.5000 0.3318
C49_7 C 1.0000 0.5000 0.4697(4)
H30_7 H 1.0000 0.5000 0.5048
N6_3 N 0.6631(4) 0.5256(4) 0.4997(3)
N7_4 N 0.7685(4) 0.4185(4) 0.5368(3)
N8_4 N 0.7590(4) 0.4863(5) 0.6340(3)
N9_3 N 0.6552(3) 0.5958(4) 0.5940(2)
C50_3 C 0.6186(4) 0.5876(5) 0.4882(3)
C51_4 C 0.6640(5) 0.4810(5) 0.4587(4)
C52_4 C 0.7569(5) 0.3859(5) 0.4905(4)
C53_4 C 0.8189(5) 0.3734(6) 0.5617(6)
C54_4 C 0.8102(5) 0.4316(7) 0.6440(4)
C55_3 C 0.7497(6) 0.5260(6) 0.6768(4)
C56_3 C 0.6606(5) 0.6235(5) 0.6400(4)
C57_3 C 0.6189(4) 0.6517(4) 0.5690(3)
C58_3 C 0.5950(5) 0.5803(6) 0.4368(4)
H32_3 H 0.5657 0.6153 0.4187
C59_3 C 0.6227(5) 0.5141(5) 0.4197(4)
H33_4 H 0.6156 0.4939 0.3876
C60_4 C 0.8045(6) 0.3214(6) 0.4857(4)
H34_4 H 0.8086 0.2902 0.4574
C61_4 C 0.8414(6) 0.3133(6) 0.5273(4)
H35_4 H 0.8769 0.2748 0.5342
C62_4 C 0.8304(6) 0.4370(6) 0.6922(5)
H36_4 H 0.8666 0.4061 0.7080
C63_4 C 0.7914(5) 0.4928(6) 0.7147(5)
H37_3 H 0.7923 0.5064 0.7486
C64_3 C 0.6253(4) 0.6961(6) 0.6455(3)
H38_3 H 0.6208 0.7250 0.6749
C65_3 C 0.6007(5) 0.7138(5) 0.6008(4)
H39_3 H 0.5757 0.7588 0.5916
C66_4 C 0.7091(5) 0.4159(6) 0.4550(4)
C67_4 C 0.8408(6) 0.3835(8) 0.6131(6)
C68_3 C 0.7041(5) 0.5902(5) 0.6810(4)
C69_3 C 0.6018(4) 0.6479(5) 0.5186(3)
C70_4 C 0.6999(4) 0.3719(5) 0.4099(4)
C71_4 C 0.6358(7) 0.3301(6) 0.3985(5)
H40_4 H 0.5950 0.3312 0.4211
C72_4 C 0.6289(6) 0.2892(7) 0.3580(6)
H41_4 H 0.5845 0.2608 0.3527
C73_4 C 0.6857(6) 0.2875(5) 0.3234(6)
H42_4 H 0.6798 0.2571 0.2949
C74_4 C 0.7514(5) 0.3290(4) 0.3291(3)
H43_4 H 0.7907 0.3285 0.3053
C75_4 C 0.7552(4) 0.3713(4) 0.3724(3)
C76_4 C 0.8947(4) 0.3212(4) 0.6327(2)
C77_4 C 0.8725(4) 0.2584(4) 0.6595(4)
H44_4 H 0.8208 0.2498 0.6658
C78_4 C 0.9261(4) 0.2084(4) 0.6771(3)
H45_4 H 0.9109 0.1654 0.6954
C81_4 C 0.9705(4) 0.3339(5) 0.6236(4)
H48_4 H 0.9856 0.3768 0.6053
C82_3 C 0.7049(6) 0.6290(5) 0.7287(4)
C83_3 C 0.6433(7) 0.6323(6) 0.7583(4)
H49_3 H 0.5974 0.6119 0.7466
C84_3 C 0.6446(8) 0.6648(6) 0.8058(5)
H50_3 H 0.6015 0.6633 0.8264
C85_3 C 0.7128(11) 0.7003(6) 0.8223(6)
H51_3 H 0.7164 0.7235 0.8538
C86_3 C 0.7711(10) 0.6987(8) 0.7910(6)
H52_3 H 0.8154 0.7249 0.8001
C87_3 C 0.7709(7) 0.6599(7) 0.7443(5)
H53_3 H 0.8152 0.6559 0.7250
C88_3 C 0.5646(5) 0.7145(5) 0.4934(3)
C89_3 C 0.6063(6) 0.7531(6) 0.4590(4)
H54_3 H 0.6571 0.7399 0.4524
C90_3 C 0.5713(7) 0.8127(6) 0.4339(4)
H55_3 H 0.5976 0.8383 0.4085
C91_3 C 0.5003(7) 0.8341(5) 0.4456(5)
H56 H 0.4780 0.8756 0.4290
C92 C 0.4607(7) 0.7966(7) 0.4809(5)
H57 H 0.4107 0.8103 0.4892
C93 C 0.4968(6) 0.7372(5) 0.5043(4)
H58 H 0.4706 0.7116 0.5298
C94_4 C 0.8913(5) 0.4163(5) 0.3669(3)
C95_4 C 0.9452(4) 0.4614(4) 0.3947(3)
C96_4 C 0.9456(4) 0.4612(5) 0.4452(3)
H59_4 H 0.9083 0.4343 0.4630
N10_4 N 0.8201(3) 0.4159(4) 0.3830(2)
H60_4 H 0.8113 0.4510 0.4051
H56_2 H 0.1244 0.9780 0.6790
C92_2 C 0.2034(7) 0.9607(7) 0.7309(5)
H57_2 H 0.1897 0.9107 0.7392
C93_2 C 0.2628(5) 0.9968(6) 0.7543(4)
H58_2 H 0.2884 0.9706 0.7798
C93_3 C 0.0032(6) 0.7628(5) 0.0043(4)
H58_3 H 0.0294 0.7884 0.0298
H56_3 H 0.0220 0.6244 0.9290
C92_3 C 0.0393(7) 0.7034(7) 0.9809(5)
H57_3 H 0.0893 0.6897 0.9892
C44_3 C 0.9968(6) 0.2372(5) 0.0043(4)
H27_3 H 0.9706 0.2116 0.0298
H25_3 H 0.9780 0.3756 0.9290
C43_3 C 0.9607(7) 0.2966(7) 0.9809(5)
H26_3 H 0.9107 0.3103 0.9892
C30_4 C 0.2790(4) 0.0018(4) 0.4179(3)
H15_4 H 0.3132 0.0384 0.4299
C31_4 C 0.2162(5) 0.0240(4) 0.3912(4)
H16_4 H 0.2075 0.0758 0.3849
C47_8 C 0.0000 0.0000 0.1169(4)
H28_8 H -0.0000 -0.0000 0.0818
C49_8 C 0.0000 0.0000 0.2197(4)
H30_8 H -0.0000 -0.0000 0.2548
N6_4 N 0.0256(4) 0.3369(4) 0.2497(3)
N9_4 N 0.0958(4) 0.3448(3) 0.3440(2)
C50_4 C 0.0876(5) 0.3814(4) 0.2382(3)
C55_4 C 0.0260(6) 0.2503(6) 0.4268(4)
C56_4 C 0.1235(5) 0.3394(5) 0.3900(4)
C57_4 C 0.1517(4) 0.3811(4) 0.3190(3)
C58_4 C 0.0803(6) 0.4050(5) 0.1868(4)
H32_4 H 0.1153 0.4343 0.1687
C59_4 C 0.0141(5) 0.3773(5) 0.1697(4)
H37_4 H 0.0064 0.2077 0.4986
C64_4 C 0.1961(6) 0.3747(4) 0.3955(3)
H38_4 H 0.2250 0.3792 0.4249
C65_4 C 0.2138(5) 0.3993(5) 0.3508(4)
H39_4 H 0.2588 0.4243 0.3416
C68_4 C 0.0902(5) 0.2959(5) 0.4310(4)
C69_4 C 0.1479(5) 0.3982(4) 0.2686(3)
C82_4 C 0.1290(5) 0.2951(6) 0.4787(4)
C83_4 C 0.1323(6) 0.3567(7) 0.5083(4)
H49_4 H 0.1119 0.4026 0.4966
C84_4 C 0.1648(6) 0.3554(8) 0.5558(5)
H50_4 H 0.1633 0.3985 0.5764
C85_4 C 0.2003(6) 0.2872(11) 0.5723(6)
H51_4 H 0.2235 0.2836 0.6038
C86_4 C 0.1987(8) 0.2289(10) 0.5410(6)
H52_4 H 0.2249 0.1846 0.5501
C87_4 C 0.1599(7) 0.2291(7) 0.4943(5)
H53_4 H 0.1559 0.1848 0.4750
C88_4 C 0.2145(5) 0.4354(5) 0.2434(3)
C89_4 C 0.2531(6) 0.3937(6) 0.2090(4)
H54_4 H 0.2399 0.3429 0.2024
C90_4 C 0.3127(6) 0.4287(7) 0.1839(4)
H55_4 H 0.3383 0.4024 0.1585
C91_4 C 0.3341(5) 0.4997(7) 0.1956(5)
H56_4 H 0.3756 0.5220 0.1790
C92_4 C 0.2966(7) 0.5393(7) 0.2309(5)
H57_4 H 0.3103 0.5893 0.2392
C93_4 C 0.2372(5) 0.5032(6) 0.2543(4)
H58_4 H 0.2116 0.5294 0.2798
N1_4 N 0.9744(4) 0.6631(4) 0.2497(3)
N4_4 N 0.9042(4) 0.6552(3) 0.3440(2)
C1_4 C 0.9124(5) 0.6186(4) 0.2382(3)
C6_4 C 0.9740(6) 0.7497(6) 0.4268(4)
C7_4 C 0.8765(5) 0.6606(5) 0.3900(4)
C8_4 C 0.8483(4) 0.6189(4) 0.3190(3)
C9_4 C 0.9197(6) 0.5950(5) 0.1868(4)
H1_4 H 0.8847 0.5657 0.1687
C10_4 C 0.9859(5) 0.6227(5) 0.1697(4)
H6_4 H 0.9936 0.7923 0.4986
C15_4 C 0.8039(6) 0.6253(4) 0.3955(3)
H7_4 H 0.7750 0.6208 0.4249
C16_4 C 0.7862(5) 0.6007(5) 0.3508(4)
H8_4 H 0.7412 0.5757 0.3416
C19_4 C 0.9098(5) 0.7041(5) 0.4310(4)
C20_4 C 0.8521(5) 0.6018(4) 0.2686(3)
C33_4 C 0.8710(5) 0.7049(6) 0.4787(4)
C34_4 C 0.8677(6) 0.6433(7) 0.5083(4)
H18_4 H 0.8881 0.5974 0.4966
C35_4 C 0.8352(6) 0.6446(8) 0.5558(5)
H19_4 H 0.8367 0.6015 0.5764
C36_4 C 0.7997(6) 0.7128(11) 0.5723(6)
H20_4 H 0.7765 0.7164 0.6038
C37_4 C 0.8013(8) 0.7711(10) 0.5410(6)
H21_4 H 0.7751 0.8154 0.5501
C38_4 C 0.8401(7) 0.7709(7) 0.4943(5)
H22_4 H 0.8441 0.8152 0.4750
C39_4 C 0.7855(5) 0.5646(5) 0.2434(3)
C40_4 C 0.7469(6) 0.6063(6) 0.2090(4)
H23_4 H 0.7601 0.6571 0.2024
C41_4 C 0.6873(6) 0.5713(7) 0.1839(4)
H24_4 H 0.6617 0.5976 0.1585
C42_4 C 0.6659(5) 0.5003(7) 0.1956(5)
H25_4 H 0.6244 0.4780 0.1790
C43_4 C 0.7034(7) 0.4607(7) 0.2309(5)
H26_4 H 0.6897 0.4107 0.2392
C44_4 C 0.7628(5) 0.4968(6) 0.2543(4)
H27_4 H 0.7884 0.4706 0.2798
C47_9 C 1.0000 1.0000 0.1169(4)
H28_9 H 1.0000 1.0000 0.0818
C49_9 C 1.0000 1.0000 0.2197(4)
H30_9 H 1.0000 1.0000 0.2548
C79_4 C 0.7210(4) 0.9982(4) 0.4179(3)
H46_4 H 0.6868 0.9616 0.4299
C80_4 C 0.7838(5) 0.9760(4) 0.3912(4)
H47_4 H 0.7925 0.9242 0.3849
loop_
_geom_bond_atom_site_label_1
_geom_bond_atom_site_label_2
_geom_bond_site_symmetry_1
_geom_bond_site_symmetry_2
H26 C43 1_555 1_555
H27 C44 1_555 1_555
C43 C44 1_555 1_555
C35 C34 1_555 1_555
H19 C35 1_555 1_555
C36 C35 1_555 1_555
H20 C36 1_555 1_555
C37 C36 1_555 1_555
H21 C37 1_555 1_555
C84 C83 1_555 1_555
H50 C84 1_555 1_555
C85 C84 1_555 1_555
H51 C85 1_555 1_555
C86 C85 1_555 1_555
H52 C86 1_555 1_555
Zn1 N1 1_555 1_555
N1 C1 1_555 1_555
N2 Zn1 1_555 1_555
N3 Zn1 1_555 1_555
N4 Zn1 1_555 1_555
C1 C9 1_555 1_555
C2 N1 1_555 1_555
C3 N2 1_555 1_555
C4 N2 1_555 1_555
C5 N3 1_555 1_555
C6 N3 1_555 1_555
C7 N4 1_555 1_555
C8 N4 1_555 1_555
C9 H1 1_555 1_555
C10 C2 1_555 1_555
H2 C10 1_555 1_555
C11 C3 1_555 1_555
H3 C11 1_555 1_555
C12 C4 1_555 1_555
H4 C12 1_555 1_555
C13 C5 1_555 1_555
H5 C13 1_555 1_555
C14 C6 1_555 1_555
H6 C14 1_555 1_555
C15 C7 1_555 1_555
H7 C15 1_555 1_555
C16 C8 1_555 1_555
H8 C16 1_555 1_555
C17 C2 1_555 1_555
C18 C4 1_555 1_555
C19 C6 1_555 1_555
C20 C1 1_555 1_555
C21 C17 1_555 1_555
C22 C21 1_555 1_555
H9 C22 1_555 1_555
C23 C22 1_555 1_555
H10 C23 1_555 1_555
C24 C23 1_555 1_555
H11 C24 1_555 1_555
C25 C24 1_555 1_555
H12 C25 1_555 1_555
C26 C21 1_555 1_555
C27 C18 1_555 1_555
C28 C27 1_555 1_555
H13 C28 1_555 1_555
C29 C28 1_555 1_555
H14 C29 1_555 1_555
C30 C29 1_555 1_555
H15 C30 1_555 1_555
C31 C30 1_555 1_555
H16 C31 1_555 1_555
C32 C27 1_555 1_555
H17 C32 1_555 1_555
C33 C19 1_555 1_555
C38 C33 1_555 1_555
H22 C38 1_555 1_555
C39 C20 1_555 1_555
C40 C39 1_555 1_555
H23 C40 1_555 1_555
C41 C40 1_555 1_555
H24 C41 1_555 1_555
C42 C41 1_555 1_555
C45 C46 1_555 1_555
C46 C47 1_555 1_555
C47 H28 1_555 1_555
C48 C46 1_555 1_555
H29 C48 1_555 1_555
C49 C48 1_555 1_555
H30 C49 1_555 1_555
N5 C26 1_555 1_555
H31 N5 1_555 1_555
O1 C45 1_555 1_555
N6 C50 1_555 1_555
N7 C52 1_555 1_555
N8 C54 1_555 1_555
N9 C56 1_555 1_555
C50 C58 1_555 1_555
C51 N6 1_555 1_555
C52 C60 1_555 1_555
C53 N7 1_555 1_555
C54 C62 1_555 1_555
C55 N8 1_555 1_555
C56 C64 1_555 1_555
C57 N9 1_555 1_555
C58 H32 1_555 1_555
C59 C51 1_555 1_555
H33 C59 1_555 1_555
C60 H34 1_555 1_555
C61 C53 1_555 1_555
H35 C61 1_555 1_555
C62 H36 1_555 1_555
C63 C55 1_555 1_555
H37 C63 1_555 1_555
C64 H38 1_555 1_555
C65 C57 1_555 1_555
H39 C65 1_555 1_555
C66 C51 1_555 1_555
C67 C53 1_555 1_555
C68 C55 1_555 1_555
C69 C50 1_555 1_555
C70 C66 1_555 1_555
C71 C70 1_555 1_555
H40 C71 1_555 1_555
C72 C71 1_555 1_555
H41 C72 1_555 1_555
C73 C72 1_555 1_555
H42 C73 1_555 1_555
C74 C73 1_555 1_555
H43 C74 1_555 1_555
C75 C70 1_555 1_555
C76 C67 1_555 1_555
C77 C76 1_555 1_555
H44 C77 1_555 1_555
C78 C77 1_555 1_555
H45 C78 1_555 1_555
C79 C78 1_555 1_555
H46 C79 1_555 1_555
C80 C79 1_555 1_555
H47 C80 1_555 1_555
C81 C76 1_555 1_555
H48 C81 1_555 1_555
C82 C68 1_555 1_555
C87 C82 1_555 1_555
H53 C87 1_555 1_555
C88 C69 1_555 1_555
C89 C88 1_555 1_555
H54 C89 1_555 1_555
C90 C89 1_555 1_555
H55 C90 1_555 1_555
C91 C90 1_555 1_555
C94 C95 1_555 1_555
C95 C47 1_555 1_555
C96 C49 1_555 1_555
H59 C96 1_555 1_555
N10 C75 1_555 1_555
H60 N10 1_555 1_555
O2 C94 1_555 1_555
Zn2 N6 1_555 1_555
Zn3 O1 1_555 1_555
Zn4 O2 1_555 1_555
O3 Zn1 1_555 1_555
O4 Zn2 1_555 1_555
C3 C17 1_555 1_555
C5 C18 1_555 1_555
C7 C19 1_555 1_555
C8 C20 1_555 1_555
C9 C10 1_555 1_555
C11 C12 1_555 1_555
C13 C14 1_555 1_555
C15 C16 1_555 1_555
C25 C26 1_555 1_555
C31 C32 1_555 1_555
C45 N5 1_555 1_555
N7 Zn2 1_555 1_555
N8 Zn2 1_555 1_555
N9 Zn2 1_555 1_555
C52 C66 1_555 1_555
C54 C67 1_555 1_555
C56 C68 1_555 1_555
C57 C69 1_555 1_555
C58 C59 1_555 1_555
C60 C61 1_555 1_555
C62 C63 1_555 1_555
C64 C65 1_555 1_555
C74 C75 1_555 1_555
C80 C81 1_555 1_555
C94 N10 1_555 1_555
C95 C96 1_555 1_555
C7_2 N4_2 1_555 1_555
C8_2 N4_2 1_555 1_555
C15_2 C7_2 1_555 1_555
H7_2 C15_2 1_555 1_555
C16_2 C8_2 1_555 1_555
H8_2 C16_2 1_555 1_555
C19_2 C6_2 1_555 1_555
C33_2 C19_2 1_555 1_555
C34_2 C33_2 1_555 1_555
H18_2 C34_2 1_555 1_555
C35_2 C34_2 1_555 1_555
H19_2 C35_2 1_555 1_555
C36_2 C35_2 1_555 1_555
H20_2 C36_2 1_555 1_555
C37_2 C36_2 1_555 1_555
H21_2 C37_2 1_555 1_555
C38_2 C33_2 1_555 1_555
H22_2 C38_2 1_555 1_555
N8_2 C54_2 1_555 1_555
C53_2 N7_2 1_555 1_555
C54_2 C62_2 1_555 1_555
C61_2 C53_2 1_555 1_555
H35_2 C61_2 1_555 1_555
C62_2 H36_2 1_555 1_555
C67_2 C53_2 1_555 1_555
C76_2 C67_2 1_555 1_555
C77_2 C76_2 1_555 1_555
H44_2 C77_2 1_555 1_555
C78_2 C77_2 1_555 1_555
H45_2 C78_2 1_555 1_555
C79_2 C78_2 1_555 1_555
H46_2 C79_2 1_555 1_555
C80_2 C79_2 1_555 1_555
H47_2 C80_2 1_555 1_555
C81_2 C76_2 1_555 1_555
H48_2 C81_2 1_555 1_555
O4_2 Zn2_2 1_555 1_555
C7_2 C19_2 1_555 1_555
C8_2 C20_2 1_555 1_555
C15_2 C16_2 1_555 1_555
C37_2 C38_2 1_555 1_555
N7_2 Zn2_2 1_555 1_555
N8_2 Zn2_2 1_555 1_555
C54_2 C67_2 1_555 1_555
C62_2 C63_2 1_555 1_555
C80_2 C81_2 1_555 1_555
N1_2 C1_2 1_555 1_555
C1_2 C9_2 1_555 1_555
C9_2 H1_2 1_555 1_555
C40_2 C39_2 1_555 1_555
H23_2 C40_2 1_555 1_555
C41_2 C40_2 1_555 1_555
H24_2 C41_2 1_555 1_555
C42_2 C41_2 1_555 1_555
C47_2 H28_2 1_555 1_555
C52_2 C60_2 1_555 1_555
C60_2 H34_2 1_555 1_555
C66_2 C51_2 1_555 1_555
C70_2 C66_2 1_555 1_555
C71_2 C70_2 1_555 1_555
H40_2 C71_2 1_555 1_555
C72_2 C71_2 1_555 1_555
H41_2 C72_2 1_555 1_555
C73_2 C72_2 1_555 1_555
H42_2 C73_2 1_555 1_555
C74_2 C73_2 1_555 1_555
H43_2 C74_2 1_555 1_555
C75_2 C70_2 1_555 1_555
C94_2 C95_2 1_555 1_555
C95_2 C47_2 1_555 1_555
C96_2 C49_2 1_555 1_555
H59_2 C96_2 1_555 1_555
N10_2 C75_2 1_555 1_555
H60_2 N10_2 1_555 1_555
O4 C94_2 1_555 1_555
C9_2 C10_2 1_555 1_555
C52_2 C66_2 1_555 1_555
C74_2 C75_2 1_555 1_555
C94_2 N10_2 1_555 1_555
C95_2 C96_2 1_555 1_555
N2_2 Zn1_2 1_555 1_555
N3_2 Zn1_2 1_555 1_555
C4_2 N2_2 1_555 1_555
C5_2 N3_2 1_555 1_555
C12_2 C4_2 1_555 1_555
H4_2 C12_2 1_555 1_555
C13_2 C5_2 1_555 1_555
H5_2 C13_2 1_555 1_555
C18_2 C4_2 1_555 1_555
C27_2 C18_2 1_555 1_555
C28_2 C27_2 1_555 1_555
H13_2 C28_2 1_555 1_555
C29_2 C28_2 1_555 1_555
H14_2 C29_2 1_555 1_555
C30_2 C29_2 1_555 1_555
H15_2 C30_2 1_555 1_555
C31_2 C30_2 1_555 1_555
H16_2 C31_2 1_555 1_555
C32_2 C27_2 1_555 1_555
H17_2 C32_2 1_555 1_555
N9_2 C56_2 1_555 1_555
C56_2 C64_2 1_555 1_555
C57_2 N9_2 1_555 1_555
C64_2 H38_2 1_555 1_555
C65_2 C57_2 1_555 1_555
H39_2 C65_2 1_555 1_555
C68_2 C55_2 1_555 1_555
C82_2 C68_2 1_555 1_555
C83_2 C82_2 1_555 1_555
H49_2 C83_2 1_555 1_555
C84_2 C83_2 1_555 1_555
H50_2 C84_2 1_555 1_555
C85_2 C84_2 1_555 1_555
H51_2 C85_2 1_555 1_555
C86_2 C85_2 1_555 1_555
H52_2 C86_2 1_555 1_555
C87_2 C82_2 1_555 1_555
H53_2 C87_2 1_555 1_555
O3_2 Zn1_2 1_555 1_555
C5_2 C18_2 1_555 1_555
C13_2 C14_2 1_555 1_555
C31_2 C32_2 1_555 1_555
C56_2 C68_2 1_555 1_555
C57_2 C69_2 1_555 1_555
C64_2 C65_2 1_555 1_555
C86_2 C87_2 1_555 1_555
C11_2 C3_2 1_555 1_555
H3_2 C11_2 1_555 1_555
C17_2 C2_2 1_555 1_555
C21_2 C17_2 1_555 1_555
C22_2 C21_2 1_555 1_555
H9_2 C22_2 1_555 1_555
C23_2 C22_2 1_555 1_555
H10_2 C23_2 1_555 1_555
C24_2 C23_2 1_555 1_555
H11_2 C24_2 1_555 1_555
C25_2 C24_2 1_555 1_555
H12_2 C25_2 1_555 1_555
C26_2 C21_2 1_555 1_555
C45_2 C46_2 1_555 1_555
C46_2 C47_3 1_555 1_555
C47_3 H28_3 1_555 1_555
C48_2 C46_2 1_555 1_555
H29_2 C48_2 1_555 1_555
C49_3 C48_2 1_555 1_555
N5_2 C26_2 1_555 1_555
H31_2 N5_2 1_555 1_555
O3 C45_2 1_555 1_555
N6_2 C50_2 1_555 1_555
C50_2 C58_2 1_555 1_555
C58_2 H32_2 1_555 1_555
C89_2 C88_2 1_555 1_555
H54_2 C89_2 1_555 1_555
C90_2 C89_2 1_555 1_555
H55_2 C90_2 1_555 1_555
C91_2 C90_2 1_555 1_555
C3_2 C17_2 1_555 1_555
C25_2 C26_2 1_555 1_555
C45_2 N5_2 1_555 1_555
C58_2 C59_2 1_555 1_555
N2_3 Zn1_3 1_555 1_555
N3_3 Zn1_3 1_555 1_555
C3_3 N2_3 1_555 1_555
C4_3 N2_3 1_555 1_555
C5_3 N3_3 1_555 1_555
C11_3 C3_3 1_555 1_555
H3_3 C11_3 1_555 1_555
C12_3 C4_3 1_555 1_555
H4_3 C12_3 1_555 1_555
C13_3 C5_3 1_555 1_555
H5_3 C13_3 1_555 1_555
C17_3 C2_3 1_555 1_555
C18_3 C4_3 1_555 1_555
C21_3 C17_3 1_555 1_555
C22_3 C21_3 1_555 1_555
H9_3 C22_3 1_555 1_555
C23_3 C22_3 1_555 1_555
H10_3 C23_3 1_555 1_555
C24_3 C23_3 1_555 1_555
H11_3 C24_3 1_555 1_555
C25_3 C24_3 1_555 1_555
H12_3 C25_3 1_555 1_555
C26_3 C21_3 1_555 1_555
C27_3 C18_3 1_555 1_555
C28_3 C27_3 1_555 1_555
H13_3 C28_3 1_555 1_555
C29_3 C28_3 1_555 1_555
H14_3 C29_3 1_555 1_555
C32_3 C27_3 1_555 1_555
H17_3 C32_3 1_555 1_555
C45_3 C46_3 1_555 1_555
C46_3 C47_4 1_555 1_555
C47_4 H28_4 1_555 1_555
C48_3 C46_3 1_555 1_555
H29_3 C48_3 1_555 1_555
C49_4 C48_3 1_555 1_555
H30_4 C49_4 1_555 1_555
N5_3 C26_3 1_555 1_555
H31_3 N5_3 1_555 1_555
O3_2 C45_3 1_555 1_555
O3_3 Zn1_3 1_555 1_555
C3_3 C17_3 1_555 1_555
C5_3 C18_3 1_555 1_555
C11_3 C12_3 1_555 1_555
C13_3 C14_3 1_555 1_555
C25_3 C26_3 1_555 1_555
C45_3 N5_3 1_555 1_555
C47_5 H28_5 1_555 1_555
H30_5 C49_5 1_555 1_555
N7_3 C52_3 1_555 1_555
N8_3 C54_3 1_555 1_555
C52_3 C60_3 1_555 1_555
C53_3 N7_3 1_555 1_555
C54_3 C62_3 1_555 1_555
C60_3 H34_3 1_555 1_555
C61_3 C53_3 1_555 1_555
H35_3 C61_3 1_555 1_555
C62_3 H36_3 1_555 1_555
C66_3 C51_3 1_555 1_555
C67_3 C53_3 1_555 1_555
C70_3 C66_3 1_555 1_555
C71_3 C70_3 1_555 1_555
H40_3 C71_3 1_555 1_555
C72_3 C71_3 1_555 1_555
H41_3 C72_3 1_555 1_555
C73_3 C72_3 1_555 1_555
H42_3 C73_3 1_555 1_555
C74_3 C73_3 1_555 1_555
H43_3 C74_3 1_555 1_555
C75_3 C70_3 1_555 1_555
C76_3 C67_3 1_555 1_555
C77_3 C76_3 1_555 1_555
H44_3 C77_3 1_555 1_555
C78_3 C77_3 1_555 1_555
H45_3 C78_3 1_555 1_555
C81_3 C76_3 1_555 1_555
H48_3 C81_3 1_555 1_555
C94_3 C95_3 1_555 1_555
C95_3 C47_5 1_555 1_555
C96_3 C49_5 1_555 1_555
H59_3 C96_3 1_555 1_555
N10_3 C75_3 1_555 1_555
H60_3 N10_3 1_555 1_555
O4_2 C94_3 1_555 1_555
O4_3 Zn2_3 1_555 1_555
N7_3 Zn2_3 1_555 1_555
N8_3 Zn2_3 1_555 1_555
C52_3 C66_3 1_555 1_555
C54_3 C67_3 1_555 1_555
C60_3 C61_3 1_555 1_555
C62_3 C63_3 1_555 1_555
C74_3 C75_3 1_555 1_555
C94_3 N10_3 1_555 1_555
C95_3 C96_3 1_555 1_555
Zn3 N1_3 1_555 1_555
N1_3 C1_3 1_555 1_555
N2_4 Zn3 1_555 1_555
N3_4 Zn3 1_555 1_555
N4_3 Zn3 1_555 1_555
C1_3 C9_3 1_555 1_555
C2_4 N1_3 1_555 1_555
C3_4 N2_4 1_555 1_555
C4_4 N2_4 1_555 1_555
C5_4 N3_4 1_555 1_555
C6_3 N3_4 1_555 1_555
C7_3 N4_3 1_555 1_555
C8_3 N4_3 1_555 1_555
C9_3 H1_3 1_555 1_555
C10_3 C2_4 1_555 1_555
H2_4 C10_3 1_555 1_555
C11_4 C3_4 1_555 1_555
H3_4 C11_4 1_555 1_555
C12_4 C4_4 1_555 1_555
H4_4 C12_4 1_555 1_555
C13_4 C5_4 1_555 1_555
H5_4 C13_4 1_555 1_555
C14_4 C6_3 1_555 1_555
H6_3 C14_4 1_555 1_555
C15_3 C7_3 1_555 1_555
H7_3 C15_3 1_555 1_555
C16_3 C8_3 1_555 1_555
H8_3 C16_3 1_555 1_555
C17_4 C2_4 1_555 1_555
C18_4 C4_4 1_555 1_555
C19_3 C6_3 1_555 1_555
C20_3 C1_3 1_555 1_555
C21_4 C17_4 1_555 1_555
C22_4 C21_4 1_555 1_555
H9_4 C22_4 1_555 1_555
C23_4 C22_4 1_555 1_555
H10_4 C23_4 1_555 1_555
C24_4 C23_4 1_555 1_555
H11_4 C24_4 1_555 1_555
C25_4 C24_4 1_555 1_555
H12_4 C25_4 1_555 1_555
C26_4 C21_4 1_555 1_555
C27_4 C18_4 1_555 1_555
C28_4 C27_4 1_555 1_555
H13_4 C28_4 1_555 1_555
C29_4 C28_4 1_555 1_555
H14_4 C29_4 1_555 1_555
C32_4 C27_4 1_555 1_555
H17_4 C32_4 1_555 1_555
C33_3 C19_3 1_555 1_555
C34_3 C33_3 1_555 1_555
H18_3 C34_3 1_555 1_555
C35_3 C34_3 1_555 1_555
H19_3 C35_3 1_555 1_555
C36_3 C35_3 1_555 1_555
H20_3 C36_3 1_555 1_555
C37_3 C36_3 1_555 1_555
H21_3 C37_3 1_555 1_555
C38_3 C33_3 1_555 1_555
H22_3 C38_3 1_555 1_555
C39_3 C20_3 1_555 1_555
C40_3 C39_3 1_555 1_555
H23_3 C40_3 1_555 1_555
C41_3 C40_3 1_555 1_555
H24_3 C41_3 1_555 1_555
C42_3 C41_3 1_555 1_555
H25_2 C42_3 1_555 1_555
C43_2 C42_3 1_555 1_555
H26_2 C43_2 1_555 1_555
C44_2 C39_3 1_555 1_555
H27_2 C44_2 1_555 1_555
C45_4 C46_4 1_555 1_555
C46_4 C47_6 1_555 1_555
C47_6 H28_6 1_555 1_555
C48_4 C46_4 1_555 1_555
H29_4 C48_4 1_555 1_555
C49_6 C48_4 1_555 1_555
H30_6 C49_6 1_555 1_555
N5_4 C26_4 1_555 1_555
H31_4 N5_4 1_555 1_555
O3_3 C45_4 1_555 1_555
H46_3 C79_3 1_555 1_555
C80_3 C79_3 1_555 1_555
H47_3 C80_3 1_555 1_555
C3_4 C17_4 1_555 1_555
C5_4 C18_4 1_555 1_555
C7_3 C19_3 1_555 1_555
C8_3 C20_3 1_555 1_555
C9_3 C10_3 1_555 1_555
C11_4 C12_4 1_555 1_555
C13_4 C14_4 1_555 1_555
C15_3 C16_3 1_555 1_555
C25_4 C26_4 1_555 1_555
C37_3 C38_3 1_555 1_555
C43_2 C44_2 1_555 1_555
C45_4 N5_4 1_555 1_555
H15_3 C30_3 1_555 1_555
C31_3 C30_3 1_555 1_555
H16_3 C31_3 1_555 1_555
C47_7 H28_7 1_555 1_555
H30_7 C49_7 1_555 1_555
N6_3 C50_3 1_555 1_555
N7_4 C52_4 1_555 1_555
N8_4 C54_4 1_555 1_555
N9_3 C56_3 1_555 1_555
C50_3 C58_3 1_555 1_555
C51_4 N6_3 1_555 1_555
C52_4 C60_4 1_555 1_555
C53_4 N7_4 1_555 1_555
C54_4 C62_4 1_555 1_555
C55_3 N8_4 1_555 1_555
C56_3 C64_3 1_555 1_555
C57_3 N9_3 1_555 1_555
C58_3 H32_3 1_555 1_555
C59_3 C51_4 1_555 1_555
H33_4 C59_3 1_555 1_555
C60_4 H34_4 1_555 1_555
C61_4 C53_4 1_555 1_555
H35_4 C61_4 1_555 1_555
C62_4 H36_4 1_555 1_555
C63_4 C55_3 1_555 1_555
H37_3 C63_4 1_555 1_555
C64_3 H38_3 1_555 1_555
C65_3 C57_3 1_555 1_555
H39_3 C65_3 1_555 1_555
C66_4 C51_4 1_555 1_555
C67_4 C53_4 1_555 1_555
C68_3 C55_3 1_555 1_555
C69_3 C50_3 1_555 1_555
C70_4 C66_4 1_555 1_555
C71_4 C70_4 1_555 1_555
H40_4 C71_4 1_555 1_555
C72_4 C71_4 1_555 1_555
H41_4 C72_4 1_555 1_555
C73_4 C72_4 1_555 1_555
H42_4 C73_4 1_555 1_555
C74_4 C73_4 1_555 1_555
H43_4 C74_4 1_555 1_555
C75_4 C70_4 1_555 1_555
C76_4 C67_4 1_555 1_555
C77_4 C76_4 1_555 1_555
H44_4 C77_4 1_555 1_555
C78_4 C77_4 1_555 1_555
H45_4 C78_4 1_555 1_555
C81_4 C76_4 1_555 1_555
H48_4 C81_4 1_555 1_555
C82_3 C68_3 1_555 1_555
C83_3 C82_3 1_555 1_555
H49_3 C83_3 1_555 1_555
C84_3 C83_3 1_555 1_555
H50_3 C84_3 1_555 1_555
C85_3 C84_3 1_555 1_555
H51_3 C85_3 1_555 1_555
C86_3 C85_3 1_555 1_555
H52_3 C86_3 1_555 1_555
C87_3 C82_3 1_555 1_555
H53_3 C87_3 1_555 1_555
C88_3 C69_3 1_555 1_555
C89_3 C88_3 1_555 1_555
H54_3 C89_3 1_555 1_555
C90_3 C89_3 1_555 1_555
H55_3 C90_3 1_555 1_555
C91_3 C90_3 1_555 1_555
H56 C91_3 1_555 1_555
C92 C91_3 1_555 1_555
H57 C92 1_555 1_555
C93 C88_3 1_555 1_555
H58 C93 1_555 1_555
C94_4 C95_4 1_555 1_555
C95_4 C47_7 1_555 1_555
C96_4 C49_7 1_555 1_555
H59_4 C96_4 1_555 1_555
N10_4 C75_4 1_555 1_555
H60_4 N10_4 1_555 1_555
O4_3 C94_4 1_555 1_555
Zn4 N6_3 1_555 1_555
N7_4 Zn4 1_555 1_555
N8_4 Zn4 1_555 1_555
N9_3 Zn4 1_555 1_555
C52_4 C66_4 1_555 1_555
C54_4 C67_4 1_555 1_555
C56_3 C68_3 1_555 1_555
C57_3 C69_3 1_555 1_555
C58_3 C59_3 1_555 1_555
C60_4 C61_4 1_555 1_555
C62_4 C63_4 1_555 1_555
C64_3 C65_3 1_555 1_555
C74_4 C75_4 1_555 1_555
C86_3 C87_3 1_555 1_555
C92 C93 1_555 1_555
C94_4 N10_4 1_555 1_555
C95_4 C96_4 1_555 1_555
H57_2 C92_2 1_555 1_555
H58_2 C93_2 1_555 1_555
C92_2 C93_2 1_555 1_555
H58_3 C93_3 1_555 1_555
H57_3 C92_3 1_555 1_555
H27_3 C44_3 1_555 1_555
H26_3 C43_3 1_555 1_555
H15_4 C30_4 1_555 1_555
C31_4 C30_4 1_555 1_555
H16_4 C31_4 1_555 1_555
C47_8 H28_8 1_555 1_555
H30_8 C49_8 1_555 1_555
N6_4 C50_4 1_555 1_555
N9_4 C56_4 1_555 1_555
C50_4 C58_4 1_555 1_555
C56_4 C64_4 1_555 1_555
C57_4 N9_4 1_555 1_555
C58_4 H32_4 1_555 1_555
C64_4 H38_4 1_555 1_555
C65_4 C57_4 1_555 1_555
H39_4 C65_4 1_555 1_555
C68_4 C55_4 1_555 1_555
C69_4 C50_4 1_555 1_555
C82_4 C68_4 1_555 1_555
C83_4 C82_4 1_555 1_555
H49_4 C83_4 1_555 1_555
C84_4 C83_4 1_555 1_555
H50_4 C84_4 1_555 1_555
C85_4 C84_4 1_555 1_555
H51_4 C85_4 1_555 1_555
C86_4 C85_4 1_555 1_555
H52_4 C86_4 1_555 1_555
C87_4 C82_4 1_555 1_555
H53_4 C87_4 1_555 1_555
C88_4 C69_4 1_555 1_555
C89_4 C88_4 1_555 1_555
H54_4 C89_4 1_555 1_555
C90_4 C89_4 1_555 1_555
H55_4 C90_4 1_555 1_555
C91_4 C90_4 1_555 1_555
H56_4 C91_4 1_555 1_555
C92_4 C91_4 1_555 1_555
H57_4 C92_4 1_555 1_555
C93_4 C88_4 1_555 1_555
H58_4 C93_4 1_555 1_555
C56_4 C68_4 1_555 1_555
C57_4 C69_4 1_555 1_555
C58_4 C59_4 1_555 1_555
C64_4 C65_4 1_555 1_555
C86_4 C87_4 1_555 1_555
C92_4 C93_4 1_555 1_555
N1_4 C1_4 1_555 1_555
C1_4 C9_4 1_555 1_555
C7_4 N4_4 1_555 1_555
C8_4 N4_4 1_555 1_555
C9_4 H1_4 1_555 1_555
C15_4 C7_4 1_555 1_555
H7_4 C15_4 1_555 1_555
C16_4 C8_4 1_555 1_555
H8_4 C16_4 1_555 1_555
C19_4 C6_4 1_555 1_555
C20_4 C1_4 1_555 1_555
C33_4 C19_4 1_555 1_555
C34_4 C33_4 1_555 1_555
H18_4 C34_4 1_555 1_555
C35_4 C34_4 1_555 1_555
H19_4 C35_4 1_555 1_555
C36_4 C35_4 1_555 1_555
H20_4 C36_4 1_555 1_555
C37_4 C36_4 1_555 1_555
H21_4 C37_4 1_555 1_555
C38_4 C33_4 1_555 1_555
H22_4 C38_4 1_555 1_555
C39_4 C20_4 1_555 1_555
C40_4 C39_4 1_555 1_555
H23_4 C40_4 1_555 1_555
C41_4 C40_4 1_555 1_555
H24_4 C41_4 1_555 1_555
C42_4 C41_4 1_555 1_555
H25_4 C42_4 1_555 1_555
C43_4 C42_4 1_555 1_555
H26_4 C43_4 1_555 1_555
C44_4 C39_4 1_555 1_555
H27_4 C44_4 1_555 1_555
C47_9 H28_9 1_555 1_555
H30_9 C49_9 1_555 1_555
H46_4 C79_4 1_555 1_555
C80_4 C79_4 1_555 1_555
H47_4 C80_4 1_555 1_555
C7_4 C19_4 1_555 1_555
C8_4 C20_4 1_555 1_555
C9_4 C10_4 1_555 1_555
C15_4 C16_4 1_555 1_555
C37_4 C38_4 1_555 1_555
C43_4 C44_4 1_555 1_555

#END
