
###############################################################################
#
# This file contains modified crystal structure data generated from the
# MOF subset of the Cambridge Structural Database (CSD) v543 
# hosted by the Cambridge Crystallographic Data Centre (CCDC).
#
# This work is licensed under the Creative Commons
# Attribution-NonCommercial-ShareAlike 4.0 International License.
# To view a copy of this license, visit
# http://creativecommons.org/licenses/by-nc-sa/4.0/
# or send a letter to
# Creative Commons, PO Box 1866, Mountain View, CA 94042, USA.
#
# CIF created using the CSD Python API on 29 September 2022
# The structure has been converted into the P1 space group
# The structure has a 3D framework
# The original CSD entry JOCGEQ is in the monoclinic crystal system
# The framework has been calculated to contain at least 10.0% void space
# The void calculation uses a probe of radius 1.32A, grid spacing 0.4
#
###############################################################################

data_JOCGEQ
_chemical_formula_moiety         '(C176 H112 Cu7 N8 O40)n'
_symmetry_cell_setting           triclinic
_symmetry_space_group_name_H-M   'P 1'
_symmetry_Int_Tables_number      1
_space_group_name_Hall           'P 1'
loop_
_symmetry_equiv_pos_site_id
_symmetry_equiv_pos_as_xyz
1 x,y,z
_cell_length_a                   26.9835(11)
_cell_length_b                   7.842(2)
_cell_length_c                   24.013(4)
_cell_angle_alpha                90
_cell_angle_beta                 100.827(4)
_cell_angle_gamma                90
_cell_volume                     4990.81
loop_
_atom_site_label
_atom_site_type_symbol
_atom_site_fract_x
_atom_site_fract_y
_atom_site_fract_z
N2 N 0.09516(19) 0.1997(8) 0.5136(3)
C23 C 0.0940(3) 0.0390(10) 0.5325(3)
H15 H 0.065642 0.004802 0.546431
H17 H 0.252898 0.023491 0.469036
C29 C 0.1374(3) 0.2490(11) 0.4961(4)
H19 H 0.140036 0.360910 0.484182
C30 C 0.1768(3) 0.1382(12) 0.4953(5)
H20 H 0.205771 0.175984 0.483325
Cu4 Cu 0.53783(3) 0.13529(11) 0.00560(3)
Cu7 Cu 0.03783(3) 0.36471(11) 0.50560(3)
Cu1 Cu 0.46217(3) 0.13529(11) 0.49440(3)
O1 O 0.50896(19) 0.2476(7) 0.4498(2)
O2 O 0.5653(2) 0.9892(7) 0.0755(2)
N1 N 0.40484(19) 0.3003(8) 0.4864(3)
O3 O 0.5086(2) 0.7829(8) 0.0689(2)
O4 O 0.5654(2) 0.0423(8) 0.4559(2)
O5 O 0.6528(2) 0.5745(13) 0.3015(3)
C1 C 0.5477(3) 0.8584(11) 0.0933(3)
C2 C 0.4060(3) 0.4610(10) 0.4675(3)
H1 H 0.434358 0.495198 0.453569
C3 C 0.3682(3) 0.5786(11) 0.4674(4)
H2 H 0.370818 0.688871 0.453941
C4 C 0.5749(3) 0.7786(12) 0.1484(3)
C5 C 0.5773(3) 0.2869(11) 0.4035(3)
C6 C 0.5483(3) 0.1871(10) 0.4394(3)
C7 C 0.3265(3) 0.5269(11) 0.4879(4)
C8 C 0.5634(3) 0.4568(12) 0.3911(4)
H3 H 0.537378 0.505636 0.406158
C9 C 0.2850(3) 0.6497(10) 0.4939(4)
C10 C 0.2470(3) 0.5895(13) 0.5192(5)
H4 H 0.247102 0.476509 0.530964
C11 C 0.6273(3) 0.4739(17) 0.3357(4)
C12 C 0.2883(3) 0.8112(10) 0.4736(5)
H5 H 0.314438 0.845748 0.455911
C13 C 0.6181(3) 0.2206(15) 0.3839(4)
H6 H 0.628764 0.110209 0.394091
C14 C 0.3626(3) 0.2510(11) 0.5039(4)
H7 H 0.359964 0.139090 0.515818
C15 C 0.5884(4) 0.5516(14) 0.3566(4)
H8 H 0.579463 0.664204 0.347593
C16 C 0.6433(4) 0.3131(17) 0.3500(4)
H9 H 0.670699 0.266924 0.336938
C17 C 0.3232(3) 0.3618(12) 0.5047(5)
H10 H 0.294229 0.324016 0.516675
C18 C 0.5593(4) 0.6348(14) 0.1706(4)
H11 H 0.530565 0.580392 0.151164
C19 C 0.6162(4) 0.8594(16) 0.1797(4)
H12 H 0.627360 0.961849 0.166959
C20 C 0.6250(3) 0.6418(16) 0.2513(4)
C21 C 0.5841(4) 0.5643(16) 0.2211(4)
H13 H 0.572454 0.463011 0.234207
C22 C 0.6419(4) 0.787(2) 0.2313(5)
H14 H 0.670518 0.840685 0.251370
C24 C 0.1318(3) 0.9214(11) 0.5326(4)
H16 H 0.129182 0.811129 0.546059
C25 C 0.1735(3) 0.9731(11) 0.5121(4)
C26 C 0.2150(3) 0.8503(10) 0.5061(4)
C27 C 0.2530(3) 0.9105(13) 0.4808(5)
C28 C 0.2117(3) 0.6888(10) 0.5264(5)
H18 H 0.185562 0.654252 0.544089
O12 O 0.5653(2) 0.0108(7) 0.5755(2)
O14 O 0.5086(2) 0.2171(8) 0.5689(2)
Cu6 Cu 0.46217(3) 0.86471(11) 0.99440(3)
Cu2 Cu 0.53783(3) 0.86471(11) 0.50560(3)
O6 O 0.49104(19) 0.7524(7) 0.5502(2)
O7 O 0.4347(2) 0.0108(7) 0.9245(2)
O8 O 0.4914(2) 0.2171(8) 0.9311(2)
O9 O 0.4346(2) 0.9577(8) 0.5441(2)
O10 O 0.3472(2) 0.4255(13) 0.6985(3)
C31 C 0.4523(3) 0.1416(11) 0.9067(3)
C32 C 0.4251(3) 0.2214(12) 0.8516(3)
C33 C 0.4227(3) 0.7131(11) 0.5965(3)
C34 C 0.4517(3) 0.8129(10) 0.5606(3)
C35 C 0.4366(3) 0.5432(12) 0.6089(4)
H21 H 0.462622 0.494364 0.593842
C36 C 0.3727(3) 0.5261(17) 0.6643(4)
C37 C 0.3819(3) 0.7794(15) 0.6161(4)
H22 H 0.371236 0.889791 0.605909
C38 C 0.4116(4) 0.4484(14) 0.6434(4)
H23 H 0.420537 0.335796 0.652407
C39 C 0.3567(4) 0.6869(17) 0.6500(4)
H24 H 0.329301 0.733076 0.663062
C40 C 0.4407(4) 0.3652(14) 0.8294(4)
H25 H 0.469435 0.419608 0.848836
C41 C 0.3838(4) 0.1406(16) 0.8203(4)
H26 H 0.372640 0.038151 0.833041
C42 C 0.3750(3) 0.3582(16) 0.7487(4)
C43 C 0.4159(4) 0.4357(16) 0.7789(4)
H27 H 0.427546 0.536989 0.765793
C44 C 0.3581(4) 0.213(2) 0.7687(5)
H28 H 0.329482 0.159315 0.748630
O11 O 0.4347(2) 0.9892(7) 0.4245(2)
N3 N 0.59516(19) 0.6997(8) 0.5136(3)
O13 O 0.4914(2) 0.7829(8) 0.4311(2)
H17_2 H 0.747102 0.023491 0.030964
C29_2 C 0.8626(3) 0.2490(11) 0.0039(4)
H19_2 H 0.859964 0.360910 0.015818
C30_2 C 0.8232(3) 0.1382(12) 0.0047(5)
H20_2 H 0.794229 0.175984 0.016675
O1_2 O 0.49104(19) 0.2476(7) 0.0502(2)
N1_2 N 0.59516(19) 0.3003(8) 0.0136(3)
O4_2 O 0.4346(2) 0.0423(8) 0.0441(2)
O5_2 O 0.3472(2) 0.5745(13) 0.1985(3)
C1_2 C 0.4523(3) 0.8584(11) 0.4067(3)
C2_2 C 0.5940(3) 0.4610(10) 0.0325(3)
H1_2 H 0.565642 0.495198 0.046431
C3_2 C 0.6318(3) 0.5786(11) 0.0326(4)
H2_2 H 0.629182 0.688871 0.046059
C4_2 C 0.4251(3) 0.7786(12) 0.3516(3)
C5_2 C 0.4227(3) 0.2869(11) 0.0965(3)
C6_2 C 0.4517(3) 0.1871(10) 0.0606(3)
C7_2 C 0.6735(3) 0.5269(11) 0.0121(4)
C8_2 C 0.4366(3) 0.4568(12) 0.1089(4)
H3_2 H 0.462622 0.505636 0.093842
C9_2 C 0.7150(3) 0.6497(10) 0.0061(4)
C11_2 C 0.3727(3) 0.4739(17) 0.1643(4)
C12_2 C 0.7117(3) 0.8112(10) 0.0264(5)
H5_2 H 0.685562 0.845748 0.044089
C13_2 C 0.3819(3) 0.2206(15) 0.1161(4)
H6_2 H 0.371236 0.110209 0.105909
C15_2 C 0.4116(4) 0.5516(14) 0.1434(4)
H8_2 H 0.420537 0.664204 0.152407
C16_2 C 0.3567(4) 0.3131(17) 0.1500(4)
H9_2 H 0.329301 0.266924 0.163062
C18_2 C 0.4407(4) 0.6348(14) 0.3294(4)
H11_2 H 0.469435 0.580392 0.348836
C19_2 C 0.3838(4) 0.8594(16) 0.3203(4)
H12_2 H 0.372640 0.961849 0.333041
C20_2 C 0.3750(3) 0.6418(16) 0.2487(4)
C21_2 C 0.4159(4) 0.5643(16) 0.2789(4)
H13_2 H 0.427546 0.463011 0.265793
C22_2 C 0.3581(4) 0.787(2) 0.2687(5)
H14_2 H 0.329482 0.840685 0.248630
C27_2 C 0.7470(3) 0.9105(13) 0.0192(5)
C10_2 C 0.7530(3) 0.5895(13) 0.9808(5)
H4_2 H 0.752898 0.476509 0.969036
C14_2 C 0.6374(3) 0.2510(11) 0.9961(4)
H7_2 H 0.640036 0.139090 0.984182
C17_2 C 0.6768(3) 0.3618(12) 0.9953(5)
H10_2 H 0.705771 0.324016 0.983325
C24_2 C 0.8682(3) 0.9214(11) 0.9674(4)
H16_2 H 0.870818 0.811129 0.953941
C25_2 C 0.8265(3) 0.9731(11) 0.9879(4)
C26_2 C 0.7850(3) 0.8503(10) 0.9939(4)
C28_2 C 0.7883(3) 0.6888(10) 0.9736(5)
H18_2 H 0.814438 0.654252 0.955911
O6_2 O 0.50896(19) 0.7524(7) 0.9498(2)
O9_2 O 0.5654(2) 0.9577(8) 0.9559(2)
O10_2 O 0.6528(2) 0.4255(13) 0.8015(3)
C31_2 C 0.5477(3) 0.1416(11) 0.5933(3)
C32_2 C 0.5749(3) 0.2214(12) 0.6484(3)
C33_2 C 0.5773(3) 0.7131(11) 0.9035(3)
C34_2 C 0.5483(3) 0.8129(10) 0.9394(3)
C35_2 C 0.5634(3) 0.5432(12) 0.8911(4)
H21_2 H 0.537378 0.494364 0.906158
C36_2 C 0.6273(3) 0.5261(17) 0.8357(4)
C37_2 C 0.6181(3) 0.7794(15) 0.8839(4)
H22_2 H 0.628764 0.889791 0.894091
C38_2 C 0.5884(4) 0.4484(14) 0.8566(4)
H23_2 H 0.579463 0.335796 0.847593
C39_2 C 0.6433(4) 0.6869(17) 0.8500(4)
H24_2 H 0.670699 0.733076 0.836938
C40_2 C 0.5593(4) 0.3652(14) 0.6706(4)
H25_2 H 0.530565 0.419608 0.651164
C41_2 C 0.6162(4) 0.1406(16) 0.6797(4)
H26_2 H 0.627360 0.038151 0.666959
C42_2 C 0.6250(3) 0.3582(16) 0.7513(4)
C43_2 C 0.5841(4) 0.4357(16) 0.7211(4)
H27_2 H 0.572454 0.536989 0.734207
C44_2 C 0.6419(4) 0.213(2) 0.7313(5)
H28_2 H 0.670518 0.159315 0.751370
N3_2 N 0.40484(19) 0.6997(8) 0.9864(3)
O1_3 O 0.00896(19) 0.7476(7) 0.4498(2)
O4_3 O 0.0654(2) 0.5423(8) 0.4559(2)
C5_3 C 0.0773(3) 0.7869(11) 0.4035(3)
C6_3 C 0.0483(3) 0.6871(10) 0.4394(3)
C8_3 C 0.0634(3) 0.9568(12) 0.3911(4)
C11_3 C 0.1273(3) 0.9739(17) 0.3357(4)
C13_3 C 0.1181(3) 0.7206(15) 0.3839(4)
H6_3 H 0.128764 0.610209 0.394091
C16_3 C 0.1433(4) 0.8131(17) 0.3500(4)
H9_3 H 0.170699 0.766924 0.336938
H13_3 H 0.072454 0.963011 0.234207
O12_2 O 0.0653(2) 0.5108(7) 0.5755(2)
O14_2 O 0.0086(2) 0.7171(8) 0.5689(2)
C3_3 C 0.8682(3) 0.0786(11) 0.4674(4)
H2_3 H 0.870818 0.188871 0.453941
C7_3 C 0.8265(3) 0.0269(11) 0.4879(4)
C9_3 C 0.7850(3) 0.1497(10) 0.4939(4)
C10_3 C 0.7470(3) 0.0895(13) 0.5192(5)
C12_3 C 0.7883(3) 0.3112(10) 0.4736(5)
H5_3 H 0.814438 0.345748 0.455911
C23_2 C 0.5940(3) 0.5390(10) 0.5325(3)
H15_2 H 0.565642 0.504802 0.546431
C24_3 C 0.6318(3) 0.4214(11) 0.5326(4)
H16_3 H 0.629182 0.311129 0.546059
C25_3 C 0.6735(3) 0.4731(11) 0.5121(4)
C26_3 C 0.7150(3) 0.3503(10) 0.5061(4)
C27_3 C 0.7530(3) 0.4105(13) 0.4808(5)
H17_3 H 0.752898 0.523491 0.469036
C28_3 C 0.7117(3) 0.1888(10) 0.5264(5)
H18_3 H 0.685562 0.154252 0.544089
C29_3 C 0.6374(3) 0.7490(11) 0.4961(4)
H19_3 H 0.640036 0.860910 0.484182
C30_3 C 0.6768(3) 0.6382(12) 0.4953(5)
H20_3 H 0.705771 0.675984 0.483325
Cu1_2 Cu 0.96217(3) 0.63529(11) 0.49440(3)
N1_3 N 0.90484(19) 0.8003(8) 0.4864(3)
C2_3 C 0.9060(3) 0.9610(10) 0.4675(3)
H1_3 H 0.934358 0.995198 0.453569
H4_3 H 0.747102 0.976509 0.530964
C14_3 C 0.8626(3) 0.7510(11) 0.5039(4)
H7_3 H 0.859964 0.639090 0.515818
C17_3 C 0.8232(3) 0.8618(12) 0.5047(5)
H10_3 H 0.794229 0.824016 0.516675
O6_3 O 0.99104(19) 0.2524(7) 0.5502(2)
O9_3 O 0.9346(2) 0.4577(8) 0.5441(2)
C33_3 C 0.9227(3) 0.2131(11) 0.5965(3)
C34_3 C 0.9517(3) 0.3129(10) 0.5606(3)
C35_3 C 0.9366(3) 0.0432(12) 0.6089(4)
C36_3 C 0.8727(3) 0.0261(17) 0.6643(4)
C37_3 C 0.8819(3) 0.2794(15) 0.6161(4)
H22_3 H 0.871236 0.389791 0.605909
C39_3 C 0.8567(4) 0.1869(17) 0.6500(4)
H24_3 H 0.829301 0.233076 0.663062
H27_3 H 0.927546 0.036989 0.765793
O11_2 O 0.9347(2) 0.4892(7) 0.4245(2)
O13_2 O 0.9914(2) 0.2829(8) 0.4311(2)
C3_4 C 0.1318(3) 0.0786(11) 0.0326(4)
H2_4 H 0.129182 0.188871 0.046059
C7_4 C 0.1735(3) 0.0269(11) 0.0121(4)
C9_4 C 0.2150(3) 0.1497(10) 0.0061(4)
C12_4 C 0.2117(3) 0.3112(10) 0.0264(5)
H5_4 H 0.185562 0.345748 0.044089
C27_4 C 0.2470(3) 0.4105(13) 0.0192(5)
H17_4 H 0.247102 0.523491 0.030964
C29_4 C 0.3626(3) 0.7490(11) 0.0039(4)
H19_4 H 0.359964 0.860910 0.015818
C30_4 C 0.3232(3) 0.6382(12) 0.0047(5)
H20_4 H 0.294229 0.675984 0.016675
C10_4 C 0.2530(3) 0.0895(13) 0.9808(5)
C23_3 C 0.4060(3) 0.5390(10) 0.9675(3)
H15_3 H 0.434358 0.504802 0.953569
C24_4 C 0.3682(3) 0.4214(11) 0.9674(4)
H16_4 H 0.370818 0.311129 0.953941
C25_4 C 0.3265(3) 0.4731(11) 0.9879(4)
C26_4 C 0.2850(3) 0.3503(10) 0.9939(4)
C28_4 C 0.2883(3) 0.1888(10) 0.9736(5)
H18_4 H 0.314438 0.154252 0.955911
H4_4 H 0.252898 0.976509 0.969036
C14_4 C 0.1374(3) 0.7510(11) 0.9961(4)
H7_4 H 0.140036 0.639090 0.984182
C17_4 C 0.1768(3) 0.8618(12) 0.9953(5)
H10_4 H 0.205771 0.824016 0.983325
O6_4 O 0.00896(19) 0.2524(7) 0.9498(2)
O9_4 O 0.0654(2) 0.4577(8) 0.9559(2)
C33_4 C 0.0773(3) 0.2131(11) 0.9035(3)
C34_4 C 0.0483(3) 0.3129(10) 0.9394(3)
C35_4 C 0.0634(3) 0.0432(12) 0.8911(4)
C36_4 C 0.1273(3) 0.0261(17) 0.8357(4)
C37_4 C 0.1181(3) 0.2794(15) 0.8839(4)
H22_4 H 0.128764 0.389791 0.894091
C39_4 C 0.1433(4) 0.1869(17) 0.8500(4)
H24_4 H 0.170699 0.233076 0.836938
H27_4 H 0.072454 0.036989 0.734207
O10_3 O 0.1528(2) 0.9255(13) 0.8015(3)
C31_3 C 0.0477(3) 0.6416(11) 0.5933(3)
C32_3 C 0.0749(3) 0.7214(12) 0.6484(3)
H21_3 H 0.037378 0.994364 0.906158
C38_3 C 0.0884(4) 0.9484(14) 0.8566(4)
H23_3 H 0.079463 0.835796 0.847593
C40_3 C 0.0593(4) 0.8652(14) 0.6706(4)
H25_3 H 0.030565 0.919608 0.651164
C41_3 C 0.1162(4) 0.6406(16) 0.6797(4)
H26_3 H 0.127360 0.538151 0.666959
C42_3 C 0.1250(3) 0.8582(16) 0.7513(4)
C43_3 C 0.0841(4) 0.9357(16) 0.7211(4)
C44_3 C 0.1419(4) 0.713(2) 0.7313(5)
H28_3 H 0.170518 0.659315 0.751370
O5_3 O 0.8472(2) 0.0745(13) 0.1985(3)
C1_3 C 0.9523(3) 0.3584(11) 0.4067(3)
C4_3 C 0.9251(3) 0.2786(12) 0.3516(3)
H3_3 H 0.962622 0.005636 0.093842
C15_3 C 0.9116(4) 0.0516(14) 0.1434(4)
H8_3 H 0.920537 0.164204 0.152407
C18_3 C 0.9407(4) 0.1348(14) 0.3294(4)
H11_3 H 0.969435 0.080392 0.348836
C19_3 C 0.8838(4) 0.3594(16) 0.3203(4)
H12_3 H 0.872640 0.461849 0.333041
C20_3 C 0.8750(3) 0.1418(16) 0.2487(4)
C21_3 C 0.9159(4) 0.0643(16) 0.2789(4)
C22_3 C 0.8581(4) 0.287(2) 0.2687(5)
H14_3 H 0.829482 0.340685 0.248630
O1_4 O 0.99104(19) 0.7476(7) 0.0502(2)
O4_4 O 0.9346(2) 0.5423(8) 0.0441(2)
C5_4 C 0.9227(3) 0.7869(11) 0.0965(3)
C6_4 C 0.9517(3) 0.6871(10) 0.0606(3)
C8_4 C 0.9366(3) 0.9568(12) 0.1089(4)
C11_4 C 0.8727(3) 0.9739(17) 0.1643(4)
C13_4 C 0.8819(3) 0.7206(15) 0.1161(4)
H6_4 H 0.871236 0.610209 0.105909
C16_4 C 0.8567(4) 0.8131(17) 0.1500(4)
H9_4 H 0.829301 0.766924 0.163062
H13_4 H 0.927546 0.963011 0.265793
N2_2 N 0.90484(19) 0.1997(8) 0.9864(3)
C23_4 C 0.9060(3) 0.0390(10) 0.9675(3)
H15_4 H 0.934358 0.004802 0.953569
Cu7_2 Cu 0.96217(3) 0.36471(11) 0.99440(3)
O7_2 O 0.9347(2) 0.5108(7) 0.9245(2)
O8_2 O 0.9914(2) 0.7171(8) 0.9311(2)
O10_4 O 0.8472(2) 0.9255(13) 0.6985(3)
C31_4 C 0.9523(3) 0.6416(11) 0.9067(3)
C32_4 C 0.9251(3) 0.7214(12) 0.8516(3)
H21_4 H 0.962622 0.994364 0.593842
C38_4 C 0.9116(4) 0.9484(14) 0.6434(4)
H23_4 H 0.920537 0.835796 0.652407
C40_4 C 0.9407(4) 0.8652(14) 0.8294(4)
H25_4 H 0.969435 0.919608 0.848836
C41_4 C 0.8838(4) 0.6406(16) 0.8203(4)
H26_4 H 0.872640 0.538151 0.833041
C42_4 C 0.8750(3) 0.8582(16) 0.7487(4)
C43_4 C 0.9159(4) 0.9357(16) 0.7789(4)
C44_4 C 0.8581(4) 0.713(2) 0.7687(5)
H28_4 H 0.829482 0.659315 0.748630
O2_2 O 0.0653(2) 0.4892(7) 0.0755(2)
O3_2 O 0.0086(2) 0.2829(8) 0.0689(2)
O5_4 O 0.1528(2) 0.0745(13) 0.3015(3)
C1_4 C 0.0477(3) 0.3584(11) 0.0933(3)
C4_4 C 0.0749(3) 0.2786(12) 0.1484(3)
H3_4 H 0.037378 0.005636 0.406158
C15_4 C 0.0884(4) 0.0516(14) 0.3566(4)
H8_4 H 0.079463 0.164204 0.347593
C18_4 C 0.0593(4) 0.1348(14) 0.1706(4)
H11_4 H 0.030565 0.080392 0.151164
C19_4 C 0.1162(4) 0.3594(16) 0.1797(4)
H12_4 H 0.127360 0.461849 0.166959
C20_4 C 0.1250(3) 0.1418(16) 0.2513(4)
C21_4 C 0.0841(4) 0.0643(16) 0.2211(4)
C22_4 C 0.1419(4) 0.287(2) 0.2313(5)
H14_4 H 0.170518 0.340685 0.251370
Cu4_2 Cu 0.03783(3) 0.63529(11) 0.00560(3)
N1_4 N 0.09516(19) 0.8003(8) 0.0136(3)
C2_4 C 0.0940(3) 0.9610(10) 0.0325(3)
H1_4 H 0.065642 0.995198 0.046431
loop_
_geom_bond_atom_site_label_1
_geom_bond_atom_site_label_2
_geom_bond_site_symmetry_1
_geom_bond_site_symmetry_2
N2 C23 1_555 1_555
C23 H15 1_555 1_555
C29 N2 1_555 1_555
H19 C29 1_555 1_555
H20 C30 1_555 1_555
Cu7 N2 1_555 1_555
C29 C30 1_555 1_555
Cu1 O1 1_555 1_555
O1 C6 1_555 1_555
O2 C1 1_555 1_555
N1 Cu1 1_555 1_555
O3 C1 1_555 1_555
O4 C6 1_555 1_555
O5 C11 1_555 1_555
C1 C4 1_555 1_555
C2 N1 1_555 1_555
H1 C2 1_555 1_555
C3 C2 1_555 1_555
H2 C3 1_555 1_555
C4 C18 1_555 1_555
C5 C6 1_555 1_555
C7 C3 1_555 1_555
C8 C5 1_555 1_555
H3 C8 1_555 1_555
C9 C7 1_555 1_555
C10 C9 1_555 1_555
H4 C10 1_555 1_555
C11 C15 1_555 1_555
C12 C9 1_555 1_555
H5 C12 1_555 1_555
C13 C5 1_555 1_555
H6 C13 1_555 1_555
C14 N1 1_555 1_555
H7 C14 1_555 1_555
C15 C8 1_555 1_555
H8 C15 1_555 1_555
C16 C11 1_555 1_555
H9 C16 1_555 1_555
C17 C7 1_555 1_555
H10 C17 1_555 1_555
C18 H11 1_555 1_555
C19 C4 1_555 1_555
H12 C19 1_555 1_555
C20 O5 1_555 1_555
C21 C18 1_555 1_555
H13 C21 1_555 1_555
C22 C19 1_555 1_555
H14 C22 1_555 1_555
H16 C24 1_555 1_555
C25 C24 1_555 1_555
C26 C25 1_555 1_555
C27 C12 1_555 1_555
C28 C10 1_555 1_555
H18 C28 1_555 1_555
O14 Cu1 1_555 1_555
C13 C16 1_555 1_555
C14 C17 1_555 1_555
C20 C21 1_555 1_555
C20 C22 1_555 1_555
C26 C27 1_555 1_555
C26 C28 1_555 1_555
O6 Cu2 1_555 1_555
O7 C31 1_555 1_555
O8 C31 1_555 1_555
O10 C36 1_555 1_555
C31 C32 1_555 1_555
C32 C40 1_555 1_555
C33 C34 1_555 1_555
C34 O6 1_555 1_555
C35 C33 1_555 1_555
H21 C35 1_555 1_555
C36 C38 1_555 1_555
C37 C33 1_555 1_555
H22 C37 1_555 1_555
C38 C35 1_555 1_555
H23 C38 1_555 1_555
C39 C36 1_555 1_555
H24 C39 1_555 1_555
C40 H25 1_555 1_555
C41 C32 1_555 1_555
H26 C41 1_555 1_555
C42 O10 1_555 1_555
C43 C40 1_555 1_555
H27 C43 1_555 1_555
C44 C41 1_555 1_555
H28 C44 1_555 1_555
N3 Cu2 1_555 1_555
O13 Cu2 1_555 1_555
O9 C34 1_555 1_555
C37 C39 1_555 1_555
C42 C43 1_555 1_555
C42 C44 1_555 1_555
H19_2 C29_2 1_555 1_555
H20_2 C30_2 1_555 1_555
C29_2 C30_2 1_555 1_555
Cu4 O1_2 1_555 1_555
O1_2 C6_2 1_555 1_555
O11 C1_2 1_555 1_555
N1_2 Cu4 1_555 1_555
O13 C1_2 1_555 1_555
O4_2 C6_2 1_555 1_555
O5_2 C11_2 1_555 1_555
C1_2 C4_2 1_555 1_555
C2_2 N1_2 1_555 1_555
H1_2 C2_2 1_555 1_555
C3_2 C2_2 1_555 1_555
H2_2 C3_2 1_555 1_555
C4_2 C18_2 1_555 1_555
C5_2 C6_2 1_555 1_555
C7_2 C3_2 1_555 1_555
C8_2 C5_2 1_555 1_555
H3_2 C8_2 1_555 1_555
C9_2 C7_2 1_555 1_555
C11_2 C15_2 1_555 1_555
C12_2 C9_2 1_555 1_555
H5_2 C12_2 1_555 1_555
C13_2 C5_2 1_555 1_555
H6_2 C13_2 1_555 1_555
C15_2 C8_2 1_555 1_555
H8_2 C15_2 1_555 1_555
C16_2 C11_2 1_555 1_555
H9_2 C16_2 1_555 1_555
C18_2 H11_2 1_555 1_555
C19_2 C4_2 1_555 1_555
H12_2 C19_2 1_555 1_555
C20_2 O5_2 1_555 1_555
C21_2 C18_2 1_555 1_555
H13_2 C21_2 1_555 1_555
C22_2 C19_2 1_555 1_555
H14_2 C22_2 1_555 1_555
C27_2 C12_2 1_555 1_555
C13_2 C16_2 1_555 1_555
C20_2 C21_2 1_555 1_555
C20_2 C22_2 1_555 1_555
H4_2 C10_2 1_555 1_555
H7_2 C14_2 1_555 1_555
H10_2 C17_2 1_555 1_555
H16_2 C24_2 1_555 1_555
C25_2 C24_2 1_555 1_555
C26_2 C25_2 1_555 1_555
C28_2 C10_2 1_555 1_555
H18_2 C28_2 1_555 1_555
C14_2 C17_2 1_555 1_555
C26_2 C28_2 1_555 1_555
O6_2 Cu6 1_555 1_555
O12 C31_2 1_555 1_555
O14 C31_2 1_555 1_555
O10_2 C36_2 1_555 1_555
C31_2 C32_2 1_555 1_555
C32_2 C40_2 1_555 1_555
C33_2 C34_2 1_555 1_555
C34_2 O6_2 1_555 1_555
C35_2 C33_2 1_555 1_555
H21_2 C35_2 1_555 1_555
C36_2 C38_2 1_555 1_555
C37_2 C33_2 1_555 1_555
H22_2 C37_2 1_555 1_555
C38_2 C35_2 1_555 1_555
H23_2 C38_2 1_555 1_555
C39_2 C36_2 1_555 1_555
H24_2 C39_2 1_555 1_555
C40_2 H25_2 1_555 1_555
C41_2 C32_2 1_555 1_555
H26_2 C41_2 1_555 1_555
C42_2 O10_2 1_555 1_555
C43_2 C40_2 1_555 1_555
H27_2 C43_2 1_555 1_555
C44_2 C41_2 1_555 1_555
H28_2 C44_2 1_555 1_555
N3_2 Cu6 1_555 1_555
O9_2 C34_2 1_555 1_555
C37_2 C39_2 1_555 1_555
C42_2 C43_2 1_555 1_555
C42_2 C44_2 1_555 1_555
O1_3 C6_3 1_555 1_555
O4_3 C6_3 1_555 1_555
C5_3 C6_3 1_555 1_555
C8_3 C5_3 1_555 1_555
C13_3 C5_3 1_555 1_555
H6_3 C13_3 1_555 1_555
C16_3 C11_3 1_555 1_555
H9_3 C16_3 1_555 1_555
Cu7 O4_3 1_555 1_555
O12_2 Cu7 1_555 1_555
C13_3 C16_3 1_555 1_555
H2_3 C3_3 1_555 1_555
C7_3 C3_3 1_555 1_555
C9_3 C7_3 1_555 1_555
C10_3 C9_3 1_555 1_555
C12_3 C9_3 1_555 1_555
H5_3 C12_3 1_555 1_555
N3 C23_2 1_555 1_555
C23_2 H15_2 1_555 1_555
C24_3 C23_2 1_555 1_555
H16_3 C24_3 1_555 1_555
C25_3 C24_3 1_555 1_555
C26_3 C25_3 1_555 1_555
C27_3 C12_3 1_555 1_555
H17_3 C27_3 1_555 1_555
C28_3 C10_3 1_555 1_555
H18_3 C28_3 1_555 1_555
C29_3 N3 1_555 1_555
H19_3 C29_3 1_555 1_555
C30_3 C25_3 1_555 1_555
H20_3 C30_3 1_555 1_555
C26_3 C27_3 1_555 1_555
C26_3 C28_3 1_555 1_555
C29_3 C30_3 1_555 1_555
N1_3 Cu1_2 1_555 1_555
C2_3 N1_3 1_555 1_555
H1_3 C2_3 1_555 1_555
C14_3 N1_3 1_555 1_555
H7_3 C14_3 1_555 1_555
H10_3 C17_3 1_555 1_555
O9_3 Cu1_2 1_555 1_555
C33_3 C34_3 1_555 1_555
C34_3 O6_3 1_555 1_555
C35_3 C33_3 1_555 1_555
C37_3 C33_3 1_555 1_555
H22_3 C37_3 1_555 1_555
C39_3 C36_3 1_555 1_555
H24_3 C39_3 1_555 1_555
O11_2 Cu1_2 1_555 1_555
C14_3 C17_3 1_555 1_555
O9_3 C34_3 1_555 1_555
C37_3 C39_3 1_555 1_555
H2_4 C3_4 1_555 1_555
C7_4 C3_4 1_555 1_555
C9_4 C7_4 1_555 1_555
C12_4 C9_4 1_555 1_555
H5_4 C12_4 1_555 1_555
C27_4 C12_4 1_555 1_555
H17_4 C27_4 1_555 1_555
H19_4 C29_4 1_555 1_555
H20_4 C30_4 1_555 1_555
C29_4 C30_4 1_555 1_555
N3_2 C23_3 1_555 1_555
C23_3 H15_3 1_555 1_555
C24_4 C23_3 1_555 1_555
H16_4 C24_4 1_555 1_555
C25_4 C24_4 1_555 1_555
C26_4 C25_4 1_555 1_555
C28_4 C10_4 1_555 1_555
H18_4 C28_4 1_555 1_555
C26_4 C28_4 1_555 1_555
H7_4 C14_4 1_555 1_555
H10_4 C17_4 1_555 1_555
C33_4 C34_4 1_555 1_555
C34_4 O6_4 1_555 1_555
C35_4 C33_4 1_555 1_555
C37_4 C33_4 1_555 1_555
H22_4 C37_4 1_555 1_555
C39_4 C36_4 1_555 1_555
H24_4 C39_4 1_555 1_555
C14_4 C17_4 1_555 1_555
O9_4 C34_4 1_555 1_555
C37_4 C39_4 1_555 1_555
O12_2 C31_3 1_555 1_555
O14_2 C31_3 1_555 1_555
C31_3 C32_3 1_555 1_555
C32_3 C40_3 1_555 1_555
H23_3 C38_3 1_555 1_555
C40_3 H25_3 1_555 1_555
C41_3 C32_3 1_555 1_555
H26_3 C41_3 1_555 1_555
C42_3 O10_3 1_555 1_555
C43_3 C40_3 1_555 1_555
C44_3 C41_3 1_555 1_555
H28_3 C44_3 1_555 1_555
C42_3 C43_3 1_555 1_555
C42_3 C44_3 1_555 1_555
O11_2 C1_3 1_555 1_555
O13_2 C1_3 1_555 1_555
C1_3 C4_3 1_555 1_555
C4_3 C18_3 1_555 1_555
H8_3 C15_3 1_555 1_555
C18_3 H11_3 1_555 1_555
C19_3 C4_3 1_555 1_555
H12_3 C19_3 1_555 1_555
C20_3 O5_3 1_555 1_555
C21_3 C18_3 1_555 1_555
C22_3 C19_3 1_555 1_555
H14_3 C22_3 1_555 1_555
C20_3 C21_3 1_555 1_555
C20_3 C22_3 1_555 1_555
O1_4 C6_4 1_555 1_555
O4_4 C6_4 1_555 1_555
C5_4 C6_4 1_555 1_555
C8_4 C5_4 1_555 1_555
C13_4 C5_4 1_555 1_555
H6_4 C13_4 1_555 1_555
C16_4 C11_4 1_555 1_555
H9_4 C16_4 1_555 1_555
C13_4 C16_4 1_555 1_555
N2_2 C23_4 1_555 1_555
C23_4 H15_4 1_555 1_555
Cu7_2 N2_2 1_555 1_555
O7_2 C31_4 1_555 1_555
O8_2 C31_4 1_555 1_555
C31_4 C32_4 1_555 1_555
C32_4 C40_4 1_555 1_555
H23_4 C38_4 1_555 1_555
C40_4 H25_4 1_555 1_555
C41_4 C32_4 1_555 1_555
H26_4 C41_4 1_555 1_555
C42_4 O10_4 1_555 1_555
C43_4 C40_4 1_555 1_555
C44_4 C41_4 1_555 1_555
H28_4 C44_4 1_555 1_555
Cu7_2 O7_2 1_555 1_555
C42_4 C43_4 1_555 1_555
C42_4 C44_4 1_555 1_555
O2_2 C1_4 1_555 1_555
O3_2 C1_4 1_555 1_555
C1_4 C4_4 1_555 1_555
C4_4 C18_4 1_555 1_555
H8_4 C15_4 1_555 1_555
C18_4 H11_4 1_555 1_555
C19_4 C4_4 1_555 1_555
H12_4 C19_4 1_555 1_555
C20_4 O5_4 1_555 1_555
C21_4 C18_4 1_555 1_555
C22_4 C19_4 1_555 1_555
H14_4 C22_4 1_555 1_555
Cu4_2 O2_2 1_555 1_555
C20_4 C21_4 1_555 1_555
C20_4 C22_4 1_555 1_555
N1_4 Cu4_2 1_555 1_555
C2_4 N1_4 1_555 1_555
H1_4 C2_4 1_555 1_555

#END
