
###############################################################################
#
# This file contains modified crystal structure data generated from the
# MOF subset of the Cambridge Structural Database (CSD) v543 
# hosted by the Cambridge Crystallographic Data Centre (CCDC).
#
# This work is licensed under the Creative Commons
# Attribution-NonCommercial-ShareAlike 4.0 International License.
# To view a copy of this license, visit
# http://creativecommons.org/licenses/by-nc-sa/4.0/
# or send a letter to
# Creative Commons, PO Box 1866, Mountain View, CA 94042, USA.
#
# CIF created using the CSD Python API on 29 September 2022
# The structure has been converted into the P1 space group
# The structure has a 3D framework
# The original CSD entry JOCGIU is in the monoclinic crystal system
# The framework has been calculated to contain at least 10.0% void space
# The void calculation uses a probe of radius 1.32A, grid spacing 0.4
# The framework is charged, counterions have been retained in the structure
#
###############################################################################

data_JOCGIU
_chemical_formula_moiety         '(C120 H118 F8 N40 O47 Zn16 2+)n'
_symmetry_cell_setting           triclinic
_symmetry_space_group_name_H-M   'P 1'
_symmetry_Int_Tables_number      1
_space_group_name_Hall           'P 1'
loop_
_symmetry_equiv_pos_site_id
_symmetry_equiv_pos_as_xyz
1 x,y,z
_cell_length_a                   14.2135(6)
_cell_length_b                   21.9687(12)
_cell_length_c                   17.8526(10)
_cell_angle_alpha                90
_cell_angle_beta                 103.995(4)
_cell_angle_gamma                90
_cell_volume                     5409.04
loop_
_atom_site_label
_atom_site_type_symbol
_atom_site_fract_x
_atom_site_fract_y
_atom_site_fract_z
O1 O 0.3682(5) 0.3775(3) 0.1379(4)
O2 O 0.3473(5) 0.4703(3) 0.1714(4)
N1 N 0.3322(6) 0.4299(4) 0.1267(5)
O3 O 0.2661(6) 0.4331(4) 0.0620(5)
O1_2 O 0.1318(5) 0.8775(3) 0.3621(4)
O2_2 O 0.1527(5) 0.9703(3) 0.3286(4)
N1_2 N 0.1678(6) 0.9299(4) 0.3733(5)
O3_2 O 0.2339(6) 0.9331(4) 0.4380(5)
O1_3 O 0.6318(5) 0.6225(3) 0.8621(4)
O2_3 O 0.6527(5) 0.5297(3) 0.8286(4)
N1_3 N 0.6678(6) 0.5701(4) 0.8733(5)
O3_3 O 0.7339(6) 0.5669(4) 0.9380(5)
O1_4 O 0.8682(5) 0.1225(3) 0.6379(4)
O2_4 O 0.8473(5) 0.0297(3) 0.6714(4)
N1_4 N 0.8322(6) 0.0701(4) 0.6267(5)
O3_4 O 0.7661(6) 0.0669(4) 0.5620(5)
Zn12 Zn 0.00090(4) 0.13660(3) 0.02742(4)
Zn16 Zn 0.04865(4) 0.10372(3) 0.85154(4)
Zn1 Zn 0.500000 0.500000 0.500000
Zn2 Zn 0.50090(4) 0.36340(3) 0.52742(4)
Zn3 Zn 0.54865(4) 0.39628(3) 0.35154(4)
Zn4 Zn 0.45612(5) 0.44035(3) 0.68094(4)
F1 F 0.4445(2) 0.44041(16) 0.5663(2)
F2 F 0.5608(2) 0.42423(16) 0.4624(2)
O5 O 0.4658(2) 0.47508(17) 0.3054(2)
H1 H 0.412184 0.478893 0.329948
H2 H 0.438402 0.468446 0.250751
O6 O 0.5715(3) 0.29070(18) 0.4925(2)
O7 O 0.4198(3) 0.30947(18) 0.5809(2)
O8 O 0.6239(3) 0.31692(18) 0.3891(2)
O9 O 0.3839(3) 0.35869(19) 0.6801(2)
N2 N 0.9160(3) 0.1454(2) 0.8556(3)
N3 N 0.7713(3) 0.1812(2) 0.8366(3)
N4 N 0.0898(3) 0.1050(2) 0.1948(3)
N5 N 0.2314(3) 0.1462(2) 0.2291(3)
N6 N 0.1095(3) 0.1329(2) 0.1305(3)
N7 N 0.3284(3) 0.4921(2) 0.6650(3)
N8 N 0.8942(3) 0.1512(2) 0.9266(3)
N9 N 0.3251(3) 0.5547(2) 0.6537(3)
N10 N 0.1818(3) 0.5230(2) 0.6515(3)
C1 C 0.5996(3) 0.2792(2) 0.4340(3)
C2 C 0.5038(3) 0.1959(2) 0.3633(3)
C3 C 0.1944(4) 0.1572(2) 0.1527(3)
H3 H 0.225576 0.179100 0.121169
C5 C 0.8421(4) 0.1642(3) 0.8027(3)
H4 H 0.838627 0.165712 0.749994
C6 C 0.8073(4) 0.1727(3) 0.9142(3)
H5 H 0.774327 0.181209 0.952046
C7 C 0.3361(4) 0.1747(2) 0.3536(3)
H6 H 0.283777 0.171338 0.376104
C8 C 0.3237(3) 0.1639(2) 0.2748(3)
C9 C 0.6768(3) 0.2018(2) 0.7987(3)
C11 C 0.4881(4) 0.1866(3) 0.2838(4)
H7 H 0.539532 0.191530 0.260624
C12 C 0.1641(4) 0.1136(3) 0.2532(3)
H8 H 0.169686 0.099501 0.303159
C13 C 0.4910(4) 0.2335(3) 0.7246(3)
C14 C 0.2419(3) 0.4745(3) 0.6640(3)
H9 H 0.223525 0.434656 0.670895
C15 C 0.3974(4) 0.3117(3) 0.6444(3)
C16 C 0.3907(4) 0.2510(3) 0.6833(3)
H10 H 0.349930 0.254618 0.719544
H11 H 0.362993 0.220410 0.645193
C17 C 0.0819(3) 0.5222(3) 0.6514(3)
C18 C 0.6017(4) 0.2125(2) 0.4107(4)
H12 H 0.649915 0.206438 0.381100
H13 H 0.618578 0.186930 0.456349
C19 C 0.4263(4) 0.1902(2) 0.3978(3)
H14 H 0.435405 0.196877 0.450470
C21 C 0.2366(4) 0.5711(3) 0.6450(3)
H17 H 0.213809 0.610710 0.635547
C23 C 0.0238(4) 0.4760(3) 0.6121(4)
H19 H 0.048463 0.447072 0.583878
C24 C 0.5596(4) 0.2223(3) 0.6829(4)
H20 H 0.542716 0.225365 0.629364
C25 C 0.3984(4) 0.1703(3) 0.2388(3)
H21 H 0.388831 0.163823 0.185991
C27 C 0.6530(4) 0.2066(3) 0.7208(3)
H23 H 0.699301 0.199292 0.692975
C28 C 0.0468(4) 0.5651(3) 0.6933(4)
H24 H 0.086864 0.595534 0.719768
C29 C 0.6124(4) 0.2137(4) 0.8419(4)
H25 H 0.630524 0.210895 0.895438
C30 C 0.5192(4) 0.2302(4) 0.8041(4)
H26 H 0.474480 0.239228 0.832887
O11 O 0.5332(3) 0.3702(3) 0.2402(3)
H27 H 0.514906 0.400056 0.208772
H28 H 0.486550 0.344804 0.227230
O12 O 0.4764(4) 0.4374(3) 0.7984(3)
H29 H 0.459194 0.403043 0.811623
H30 H 0.438751 0.462197 0.812387
O13 O 0.3708(2) 0.49177(17) 0.4095(2)
O19 O 0.2625(3) 0.4691(2) 0.4740(2)
C34 C 0.1080(3) 0.4832(3) 0.3431(3)
C40 C 0.2861(3) 0.4824(2) 0.4135(3)
C50 C 0.2112(4) 0.4874(3) 0.3372(3)
H45 H 0.222922 0.455392 0.303245
H46 H 0.220068 0.526061 0.313518
C52 C 0.0703(4) 0.5256(3) 0.3839(4)
H48 H 0.110320 0.556427 0.409590
C56 C 0.0494(4) 0.4379(3) 0.3049(3)
H52 H 0.074789 0.408906 0.277311
Zn15 Zn 0.45135(4) 0.60372(3) 0.64846(4)
Zn18 Zn 0.04388(5) 0.94035(3) 0.81906(4)
Zn19 Zn 0.54388(5) 0.55965(3) 0.31906(4)
F5 F 0.5555(2) 0.55959(16) 0.4337(2)
O22 O 0.6292(2) 0.50823(17) 0.5905(2)
F6 F 0.4392(2) 0.57577(16) 0.5376(2)
O24 O 0.5342(2) 0.52492(17) 0.6946(2)
N21 N 0.4160(3) 0.3546(2) 0.3556(3)
N23 N 0.5898(3) 0.3950(2) 0.6948(3)
N25 N 0.6095(3) 0.3671(2) 0.6305(3)
N27 N 0.3942(3) 0.3488(2) 0.4266(3)
N29 N 0.6749(3) 0.4453(2) 0.3463(3)
O10 O 0.7375(3) 0.5309(2) 0.5260(2)
C4 C 0.8920(3) 0.5168(3) 0.6569(3)
C10 C 0.7139(3) 0.5176(2) 0.5865(3)
C20 C 0.7888(4) 0.5126(3) 0.6628(3)
H15 H 0.777078 0.544608 0.696755
H16 H 0.779932 0.473939 0.686482
C22 C 0.9297(4) 0.4744(3) 0.6161(4)
H18 H 0.889680 0.443573 0.590410
C26 C 0.9506(4) 0.5621(3) 0.6951(3)
H22 H 0.925211 0.591094 0.722689
Zn5 Zn 0.49910(4) 0.63660(3) 0.47258(4)
H31 H 0.587816 0.521107 0.670052
H32 H 0.561598 0.531554 0.749249
O15 O 0.4285(3) 0.70930(18) 0.5075(2)
O16 O 0.5802(3) 0.69053(18) 0.4191(2)
O17 O 0.3761(3) 0.68308(18) 0.6109(2)
O18 O 0.6161(3) 0.64131(19) 0.3199(2)
N11 N 0.0840(3) 0.8546(2) 0.1444(3)
N12 N 0.2287(3) 0.8188(2) 0.1634(3)
N13 N 0.9102(3) 0.8950(2) 0.8052(3)
N14 N 0.7686(3) 0.8538(2) 0.7709(3)
N15 N 0.8905(3) 0.8671(2) 0.8695(3)
N16 N 0.6716(3) 0.5079(2) 0.3350(3)
N17 N 0.1058(3) 0.8488(2) 0.0734(3)
N19 N 0.8182(3) 0.4770(2) 0.3485(3)
C31 C 0.4004(3) 0.7208(2) 0.5660(3)
C32 C 0.4962(3) 0.8041(2) 0.6367(3)
C33 C 0.8056(4) 0.8428(2) 0.8473(3)
H33 H 0.774424 0.820900 0.878831
C35 C 0.1579(4) 0.8358(3) 0.1973(3)
H34 H 0.161373 0.834288 0.250006
C36 C 0.1927(4) 0.8273(3) 0.0858(3)
H35 H 0.225673 0.818791 0.047954
C37 C 0.6639(4) 0.8253(2) 0.6464(3)
H36 H 0.716223 0.828662 0.623896
C38 C 0.6763(3) 0.8361(2) 0.7252(3)
C39 C 0.3232(3) 0.7982(2) 0.2013(3)
C41 C 0.5119(4) 0.8134(3) 0.7162(4)
H37 H 0.460468 0.808470 0.739376
C42 C 0.8359(4) 0.8864(3) 0.7468(3)
H38 H 0.830314 0.900499 0.696841
C43 C 0.5090(4) 0.7665(3) 0.2754(3)
C44 C 0.7581(3) 0.5255(3) 0.3360(3)
H39 H 0.776475 0.565344 0.329105
C45 C 0.6026(4) 0.6883(3) 0.3556(3)
C46 C 0.6093(4) 0.7490(3) 0.3167(3)
H40 H 0.650070 0.745382 0.280456
H41 H 0.637007 0.779590 0.354807
C47 C 0.9181(3) 0.4778(3) 0.3486(3)
C48 C 0.3983(4) 0.7875(2) 0.5893(4)
H42 H 0.350085 0.793562 0.618900
H43 H 0.381422 0.813070 0.543651
C49 C 0.5737(4) 0.8098(2) 0.6022(3)
H44 H 0.564595 0.803123 0.549530
C51 C 0.7634(4) 0.4289(3) 0.3550(3)
H47 H 0.786191 0.389290 0.364453
C53 C 0.9762(4) 0.5240(3) 0.3879(4)
H49 H 0.951537 0.552928 0.416122
C54 C 0.4404(4) 0.7777(3) 0.3171(4)
H50 H 0.457284 0.774635 0.370636
C55 C 0.6016(4) 0.8297(3) 0.7612(3)
H51 H 0.611169 0.836177 0.814009
C57 C 0.3470(4) 0.7934(3) 0.2792(3)
H53 H 0.300699 0.800708 0.307025
C58 C 0.9532(4) 0.4349(3) 0.3067(4)
H54 H 0.913136 0.404466 0.280232
C59 C 0.3876(4) 0.7863(4) 0.1581(4)
H55 H 0.369476 0.789105 0.104562
C60 C 0.4808(4) 0.7698(4) 0.1959(4)
H56 H 0.525520 0.760772 0.167113
O20 O 0.4668(3) 0.6298(3) 0.7598(3)
H57 H 0.485094 0.599944 0.791228
H58 H 0.513450 0.655196 0.772770
O21 O 0.5236(4) 0.5626(3) 0.2016(3)
H59 H 0.540806 0.596957 0.188377
H60 H 0.561249 0.537803 0.187613
Zn10 Zn 0.99910(4) 0.86340(3) 0.97258(4)
Zn20 Zn 0.95612(5) 0.05965(3) 0.18094(4)
N20 N 0.5840(3) 0.6454(2) 0.6444(3)
N22 N 0.4102(3) 0.6050(2) 0.3052(3)
N24 N 0.3905(3) 0.6329(2) 0.3695(3)
N26 N 0.6058(3) 0.6512(2) 0.5734(3)
Zn14 Zn 0.95135(4) 0.89628(3) 0.14846(4)
N12_2 N 0.2713(3) 0.3188(2) 0.3366(3)
C35_2 C 0.3421(4) 0.3358(3) 0.3027(3)
H34_2 H 0.338627 0.334288 0.249994
C36_2 C 0.3073(4) 0.3273(3) 0.4142(3)
H35_2 H 0.274327 0.318791 0.452046
C39_2 C 0.1768(3) 0.2982(2) 0.2987(3)
C54_2 C 0.0596(4) 0.2777(3) 0.1829(4)
H50_2 H 0.042716 0.274635 0.129364
C57_2 C 0.1530(4) 0.2934(3) 0.2208(3)
H53_2 H 0.199301 0.300708 0.192975
C59_2 C 0.1124(4) 0.2863(4) 0.3419(4)
H55_2 H 0.130524 0.289105 0.395438
C60_2 C 0.0192(4) 0.2698(4) 0.3041(4)
Zn8 Zn -0.000000 -0.000000 0.000000
F4 F 0.0608(2) 0.07577(16) 0.9624(2)
O15_2 O 0.0715(3) 0.20930(18) 0.9925(2)
O17_2 O 0.1239(3) 0.18308(18) 0.8891(2)
C31_2 C 0.0996(3) 0.2208(2) 0.9340(3)
C32_2 C 0.0038(3) 0.3041(2) 0.8633(3)
H37_2 H 0.039532 0.308470 0.760624
C48_2 C 0.1017(4) 0.2875(2) 0.9107(4)
H42_2 H 0.149915 0.293562 0.881100
H43_2 H 0.118578 0.313070 0.956349
O20_2 O 0.0332(3) 0.1298(3) 0.7402(3)
H57_2 H 0.014906 0.099944 0.708772
Zn8_2 Zn -0.000000 -0.000000 1.000000
N28 N 0.1749(3) 0.0547(2) 0.8463(3)
Zn8_3 Zn -0.000000 1.000000 0.000000
O23 O 0.0342(2) 0.97508(17) 0.1946(2)
Zn8_4 Zn -0.000000 1.000000 1.000000
F3 F 0.9445(2) 0.05959(16) 0.0663(2)
O16_2 O 0.9198(3) 0.19053(18) 0.0809(2)
O18_2 O 0.8839(3) 0.14131(19) 0.1801(2)
N16_2 N 0.8284(3) 0.0079(2) 0.1650(3)
C43_2 C 0.9910(4) 0.2665(3) 0.2246(3)
C44_2 C 0.7419(3) 0.0255(3) 0.1640(3)
H39_2 H 0.723525 0.065344 0.170895
C45_2 C 0.8974(4) 0.1883(3) 0.1444(3)
C46_2 C 0.8907(4) 0.2490(3) 0.1833(3)
H40_2 H 0.849930 0.245382 0.219544
H41_2 H 0.862993 0.279590 0.145193
H46_2 H 0.279932 0.026061 0.186482
C52_2 C 0.4297(4) 0.0256(3) 0.1161(4)
H48_2 H 0.389680 0.056427 0.090410
C53_2 C 0.5238(4) 0.0240(3) 0.1121(4)
H49_2 H 0.548463 0.052928 0.083878
H56_2 H 0.974480 0.260772 0.332887
O21_2 O 0.9764(4) 0.0626(3) 0.2984(3)
H59_2 H 0.959194 0.096957 0.311623
H60_2 H 0.938751 0.037803 0.312387
Zn8_5 Zn 1.000000 -0.000000 0.000000
O4 O 0.8708(2) 0.00823(17) 0.9095(2)
O10_2 O 0.7625(3) 0.0309(2) 0.9740(2)
N10_2 N 0.3182(3) 0.0230(2) 0.8485(3)
C4_2 C 0.6080(3) 0.0168(3) 0.8431(3)
C10_2 C 0.7861(3) 0.0176(2) 0.9135(3)
C17_2 C 0.4181(3) 0.0222(3) 0.8486(3)
C20_2 C 0.7112(4) 0.0126(3) 0.8372(3)
H15_2 H 0.722922 0.044608 0.803245
C21_2 C 0.2634(4) 0.0711(3) 0.8550(3)
H17_2 H 0.286191 0.110710 0.864453
C26_2 C 0.5494(4) 0.0621(3) 0.8049(3)
H22_2 H 0.574789 0.091094 0.777311
C28_2 C 0.4532(4) 0.0651(3) 0.8067(4)
H24_2 H 0.413136 0.095534 0.780232
O14 O 0.9658(2) 0.02492(17) 0.8054(2)
H31_2 H 0.912184 0.021107 0.829948
H32_2 H 0.938402 0.031554 0.750751
N14_2 N 0.7314(3) 0.3538(2) 0.7291(3)
C33_2 C 0.6944(4) 0.3428(2) 0.6527(3)
H33_2 H 0.725576 0.320900 0.621169
C37_2 C 0.8361(4) 0.3253(2) 0.8536(3)
H36_2 H 0.783777 0.328662 0.876104
C38_2 C 0.8237(3) 0.3361(2) 0.7748(3)
C41_2 C 0.9881(4) 0.3134(3) 0.7838(4)
C42_2 C 0.6641(4) 0.3864(3) 0.7532(3)
H38_2 H 0.669686 0.400499 0.803159
C49_2 C 0.9263(4) 0.3098(2) 0.8978(3)
H44_2 H 0.935405 0.303123 0.950470
C55_2 C 0.8984(4) 0.3297(3) 0.7388(3)
H51_2 H 0.888831 0.336177 0.685991
H58_2 H 0.986550 0.155196 0.727230
Zn8_6 Zn 1.000000 -0.000000 1.000000
H1_2 H 0.087816 0.978893 0.170052
H2_2 H 0.061598 0.968446 0.249249
N5_2 N 0.2686(3) 0.6462(2) 0.2709(3)
C3_2 C 0.3056(4) 0.6572(2) 0.3473(3)
H3_2 H 0.274424 0.679100 0.378831
C7_2 C 0.1639(4) 0.6747(2) 0.1464(3)
H6_2 H 0.216223 0.671338 0.123896
C8_2 C 0.1763(3) 0.6639(2) 0.2252(3)
C11_2 C 0.0119(4) 0.6866(3) 0.2162(4)
C12_2 C 0.3359(4) 0.6136(3) 0.2468(3)
H8_2 H 0.330314 0.599501 0.196841
C19_2 C 0.0737(4) 0.6902(2) 0.1022(3)
H14_2 H 0.064595 0.696877 0.049530
C25_2 C 0.1016(4) 0.6703(3) 0.2612(3)
H21_2 H 0.111169 0.663823 0.314009
H28_2 H 0.013450 0.844804 0.272770
O13_2 O 0.1292(2) 0.99177(17) 0.0905(2)
O19_2 O 0.2375(3) 0.9691(2) 0.0260(2)
N18 N 0.8251(3) 0.9453(2) 0.1537(3)
N19_2 N 0.6818(3) 0.9770(2) 0.1515(3)
C34_2 C 0.3920(3) 0.9832(3) 0.1569(3)
C40_2 C 0.2139(3) 0.9824(2) 0.0865(3)
C47_2 C 0.5819(3) 0.9778(3) 0.1514(3)
C50_2 C 0.2888(4) 0.9874(3) 0.1628(3)
H45_2 H 0.277078 0.955392 0.196755
C51_2 C 0.7366(4) 0.9289(3) 0.1450(3)
H47_2 H 0.713809 0.889290 0.135547
C56_2 C 0.4506(4) 0.9379(3) 0.1951(3)
H52_2 H 0.425211 0.908906 0.222689
C58_2 C 0.5468(4) 0.9349(3) 0.1933(4)
H54_2 H 0.586864 0.904466 0.219768
Zn8_7 Zn 1.000000 1.000000 0.000000
F1_2 F 0.0555(2) 0.94041(16) 0.9337(2)
O7_2 O 0.0802(3) 0.80947(18) 0.9191(2)
O9_2 O 0.1161(3) 0.85869(19) 0.8199(2)
N7_2 N 0.1716(3) 0.9921(2) 0.8350(3)
C13_2 C 0.0090(4) 0.7335(3) 0.7754(3)
C14_2 C 0.2581(3) 0.9745(3) 0.8360(3)
H9_2 H 0.276475 0.934656 0.829105
C15_2 C 0.1026(4) 0.8117(3) 0.8556(3)
C16_2 C 0.1093(4) 0.7510(3) 0.8167(3)
H10_2 H 0.150070 0.754618 0.780456
H11_2 H 0.137007 0.720410 0.854807
H16_2 H 0.720068 0.973939 0.813518
C22_2 C 0.5703(4) 0.9744(3) 0.8839(4)
H18_2 H 0.610320 0.943573 0.909590
C23_2 C 0.4762(4) 0.9760(3) 0.8879(4)
H19_2 H 0.451537 0.947072 0.916122
H26_2 H 0.025520 0.739228 0.667113
O12_2 O 0.0236(4) 0.9374(3) 0.7016(3)
H29_2 H 0.040806 0.903043 0.688377
H30_2 H 0.061249 0.962197 0.687613
Zn8_8 Zn 1.000000 1.000000 1.000000
F2_2 F 0.9392(2) 0.92423(16) 0.0376(2)
O6_2 O 0.9285(3) 0.79070(18) 0.0075(2)
O8_2 O 0.8761(3) 0.81692(18) 0.1109(2)
C1_2 C 0.9004(3) 0.7792(2) 0.0660(3)
C2_2 C 0.9962(3) 0.6959(2) 0.1367(3)
H7_2 H 0.960468 0.691530 0.239376
C18_2 C 0.8983(4) 0.7125(2) 0.0893(4)
H12_2 H 0.850085 0.706438 0.118900
H13_2 H 0.881422 0.686930 0.043651
O11_2 O 0.9668(3) 0.8702(3) 0.2598(3)
H27_2 H 0.985094 0.900056 0.291228
N3_2 N 0.7287(3) 0.6812(2) 0.6634(3)
C5_2 C 0.6579(4) 0.6642(3) 0.6973(3)
H4_2 H 0.661373 0.665712 0.750006
C6_2 C 0.6927(4) 0.6727(3) 0.5858(3)
H5_2 H 0.725673 0.681209 0.547954
C9_2 C 0.8232(3) 0.7018(2) 0.7013(3)
C24_2 C 0.9404(4) 0.7223(3) 0.8171(4)
H20_2 H 0.957284 0.725365 0.870636
C27_2 C 0.8470(4) 0.7066(3) 0.7792(3)
H23_2 H 0.800699 0.699292 0.807025
C29_2 C 0.8876(4) 0.7137(4) 0.6581(4)
H25_2 H 0.869476 0.710895 0.604562
C30_2 C 0.9808(4) 0.7302(4) 0.6959(4)
loop_
_geom_bond_atom_site_label_1
_geom_bond_atom_site_label_2
_geom_bond_site_symmetry_1
_geom_bond_site_symmetry_2
O1 N1 1_555 1_555
O2 N1 1_555 1_555
N1 O3 1_555 1_555
O1_2 N1_2 1_555 1_555
O2_2 N1_2 1_555 1_555
N1_2 O3_2 1_555 1_555
O1_3 N1_3 1_555 1_555
O2_3 N1_3 1_555 1_555
N1_3 O3_3 1_555 1_555
O1_4 N1_4 1_555 1_555
O2_4 N1_4 1_555 1_555
N1_4 O3_4 1_555 1_555
Zn1 F1 1_555 1_555
Zn2 F1 1_555 1_555
Zn3 F2 1_555 1_555
Zn4 F1 1_555 1_555
F2 Zn1 1_555 1_555
O5 Zn3 1_555 1_555
H1 O5 1_555 1_555
H2 O5 1_555 1_555
O6 Zn2 1_555 1_555
O7 Zn2 1_555 1_555
O8 Zn3 1_555 1_555
O9 Zn4 1_555 1_555
N2 N8 1_555 1_555
N3 C5 1_555 1_555
N4 N6 1_555 1_555
N5 C3 1_555 1_555
N6 C3 1_555 1_555
N7 Zn4 1_555 1_555
N8 C6 1_555 1_555
N9 N7 1_555 1_555
N10 C14 1_555 1_555
C1 O6 1_555 1_555
C2 C11 1_555 1_555
C3 H3 1_555 1_555
C5 N2 1_555 1_555
H4 C5 1_555 1_555
C6 N3 1_555 1_555
H5 C6 1_555 1_555
C7 H6 1_555 1_555
C8 N5 1_555 1_555
C9 N3 1_555 1_555
C11 H7 1_555 1_555
C12 N4 1_555 1_555
H8 C12 1_555 1_555
C13 C16 1_555 1_555
C14 N7 1_555 1_555
H9 C14 1_555 1_555
C15 O7 1_555 1_555
C16 C15 1_555 1_555
H10 C16 1_555 1_555
H11 C16 1_555 1_555
C17 N10 1_555 1_555
C18 C1 1_555 1_555
H12 C18 1_555 1_555
H13 C18 1_555 1_555
C19 C2 1_555 1_555
H14 C19 1_555 1_555
C21 N9 1_555 1_555
H17 C21 1_555 1_555
C23 C17 1_555 1_555
H19 C23 1_555 1_555
C24 C13 1_555 1_555
H20 C24 1_555 1_555
C25 C8 1_555 1_555
H21 C25 1_555 1_555
C27 C9 1_555 1_555
H23 C27 1_555 1_555
C28 C17 1_555 1_555
H24 C28 1_555 1_555
C29 C9 1_555 1_555
H25 C29 1_555 1_555
C30 C13 1_555 1_555
H26 C30 1_555 1_555
O11 Zn3 1_555 1_555
H27 O11 1_555 1_555
H28 O11 1_555 1_555
O12 Zn4 1_555 1_555
H29 O12 1_555 1_555
H30 O12 1_555 1_555
O13 Zn1 1_555 1_555
O19 C40 1_555 1_555
C34 C50 1_555 1_555
C40 O13 1_555 1_555
C50 C40 1_555 1_555
H45 C50 1_555 1_555
H46 C50 1_555 1_555
C52 C34 1_555 1_555
H48 C52 1_555 1_555
C56 C34 1_555 1_555
H52 C56 1_555 1_555
Zn12 N6 1_555 1_555
Zn15 N9 1_555 1_555
Zn19 O5 1_555 1_555
F5 Zn1 1_555 1_555
O22 Zn1 1_555 1_555
F6 Zn1 1_555 1_555
O24 Zn4 1_555 1_555
N21 Zn3 1_555 1_555
N23 Zn4 1_555 1_555
N25 Zn2 1_555 1_555
N27 Zn2 1_555 1_555
N29 Zn3 1_555 1_555
Zn2 F2 1_555 1_555
O8 C1 1_555 1_555
O9 C15 1_555 1_555
N5 C12 1_555 1_555
N10 C21 1_555 1_555
C2 C18 1_555 1_555
C7 C8 1_555 1_555
C7 C19 1_555 1_555
C11 C25 1_555 1_555
C24 C27 1_555 1_555
C29 C30 1_555 1_555
Zn15 F6 1_555 1_555
Zn15 O24 1_555 1_555
Zn19 F5 1_555 1_555
N21 N27 1_555 1_555
N23 N25 1_555 1_555
O22 C10 1_555 1_555
O10 C10 1_555 1_555
C4 C20 1_555 1_555
C10 C20 1_555 1_555
C20 H15 1_555 1_555
H16 C20 1_555 1_555
C22 C4 1_555 1_555
H18 C22 1_555 1_555
C26 C4 1_555 1_555
H22 C26 1_555 1_555
Zn5 F5 1_555 1_555
F6 Zn5 1_555 1_555
H31 O24 1_555 1_555
H32 O24 1_555 1_555
O15 Zn5 1_555 1_555
O16 Zn5 1_555 1_555
O17 Zn15 1_555 1_555
O18 Zn19 1_555 1_555
N11 N17 1_555 1_555
N12 C35 1_555 1_555
N13 N15 1_555 1_555
N14 C33 1_555 1_555
N15 C33 1_555 1_555
N16 Zn19 1_555 1_555
N17 C36 1_555 1_555
N29 N16 1_555 1_555
N19 C44 1_555 1_555
C31 O15 1_555 1_555
C32 C41 1_555 1_555
C33 H33 1_555 1_555
C35 N11 1_555 1_555
H34 C35 1_555 1_555
C36 N12 1_555 1_555
H35 C36 1_555 1_555
C37 H36 1_555 1_555
C38 N14 1_555 1_555
C39 N12 1_555 1_555
C41 H37 1_555 1_555
C42 N13 1_555 1_555
H38 C42 1_555 1_555
C43 C46 1_555 1_555
C44 N16 1_555 1_555
H39 C44 1_555 1_555
C45 O16 1_555 1_555
C46 C45 1_555 1_555
H40 C46 1_555 1_555
H41 C46 1_555 1_555
C47 N19 1_555 1_555
C48 C31 1_555 1_555
H42 C48 1_555 1_555
H43 C48 1_555 1_555
C49 C32 1_555 1_555
H44 C49 1_555 1_555
C51 N29 1_555 1_555
H47 C51 1_555 1_555
C53 C47 1_555 1_555
H49 C53 1_555 1_555
C54 C43 1_555 1_555
H50 C54 1_555 1_555
C55 C38 1_555 1_555
H51 C55 1_555 1_555
C57 C39 1_555 1_555
H53 C57 1_555 1_555
C58 C47 1_555 1_555
H54 C58 1_555 1_555
C59 C39 1_555 1_555
H55 C59 1_555 1_555
C60 C43 1_555 1_555
H56 C60 1_555 1_555
O20 Zn15 1_555 1_555
H57 O20 1_555 1_555
H58 O20 1_555 1_555
O21 Zn19 1_555 1_555
H59 O21 1_555 1_555
H60 O21 1_555 1_555
Zn10 N15 1_555 1_555
N20 Zn15 1_555 1_555
N22 Zn19 1_555 1_555
N24 Zn5 1_555 1_555
N26 Zn5 1_555 1_555
O17 C31 1_555 1_555
O18 C45 1_555 1_555
N14 C42 1_555 1_555
N19 C51 1_555 1_555
C32 C48 1_555 1_555
C37 C38 1_555 1_555
C37 C49 1_555 1_555
C41 C55 1_555 1_555
C54 C57 1_555 1_555
C59 C60 1_555 1_555
N20 N26 1_555 1_555
N22 N24 1_555 1_555
N12_2 C35_2 1_555 1_555
N27 C36_2 1_555 1_555
C35_2 N21 1_555 1_555
H34_2 C35_2 1_555 1_555
C36_2 N12_2 1_555 1_555
H35_2 C36_2 1_555 1_555
C39_2 N12_2 1_555 1_555
H50_2 C54_2 1_555 1_555
C57_2 C39_2 1_555 1_555
H53_2 C57_2 1_555 1_555
C59_2 C39_2 1_555 1_555
H55_2 C59_2 1_555 1_555
C54_2 C57_2 1_555 1_555
C59_2 C60_2 1_555 1_555
Zn16 F4 1_555 1_555
O17_2 Zn16 1_555 1_555
C31_2 O15_2 1_555 1_555
C48_2 C31_2 1_555 1_555
H42_2 C48_2 1_555 1_555
H43_2 C48_2 1_555 1_555
O20_2 Zn16 1_555 1_555
H57_2 O20_2 1_555 1_555
N28 Zn16 1_555 1_555
F4 Zn8_2 1_555 1_555
O17_2 C31_2 1_555 1_555
C32_2 C48_2 1_555 1_555
Zn20 F3 1_555 1_555
F3 Zn8_5 1_555 1_555
O18_2 Zn20 1_555 1_555
N16_2 Zn20 1_555 1_555
C43_2 C46_2 1_555 1_555
C44_2 N16_2 1_555 1_555
H39_2 C44_2 1_555 1_555
C45_2 O16_2 1_555 1_555
C46_2 C45_2 1_555 1_555
H40_2 C46_2 1_555 1_555
H41_2 C46_2 1_555 1_555
H48_2 C52_2 1_555 1_555
H49_2 C53_2 1_555 1_555
O21_2 Zn20 1_555 1_555
H59_2 O21_2 1_555 1_555
H60_2 O21_2 1_555 1_555
O18_2 C45_2 1_555 1_555
C52_2 C53_2 1_555 1_555
O4 C10_2 1_555 1_555
O10_2 C10_2 1_555 1_555
C4_2 C20_2 1_555 1_555
C10_2 C20_2 1_555 1_555
C17_2 N10_2 1_555 1_555
C20_2 H15_2 1_555 1_555
C21_2 N28 1_555 1_555
H17_2 C21_2 1_555 1_555
C26_2 C4_2 1_555 1_555
H22_2 C26_2 1_555 1_555
C28_2 C17_2 1_555 1_555
H24_2 C28_2 1_555 1_555
H31_2 O14 1_555 1_555
H32_2 O14 1_555 1_555
N14_2 C33_2 1_555 1_555
N25 C33_2 1_555 1_555
C33_2 H33_2 1_555 1_555
C37_2 H36_2 1_555 1_555
C38_2 N14_2 1_555 1_555
C42_2 N23 1_555 1_555
H38_2 C42_2 1_555 1_555
H44_2 C49_2 1_555 1_555
C55_2 C38_2 1_555 1_555
H51_2 C55_2 1_555 1_555
Zn8_6 O4 1_555 1_555
N10_2 C21_2 1_555 1_555
C26_2 C28_2 1_555 1_555
N14_2 C42_2 1_555 1_555
C37_2 C38_2 1_555 1_555
C37_2 C49_2 1_555 1_555
C41_2 C55_2 1_555 1_555
H1_2 O23 1_555 1_555
H2_2 O23 1_555 1_555
N5_2 C3_2 1_555 1_555
N24 C3_2 1_555 1_555
C3_2 H3_2 1_555 1_555
C7_2 H6_2 1_555 1_555
C8_2 N5_2 1_555 1_555
C12_2 N22 1_555 1_555
H8_2 C12_2 1_555 1_555
H14_2 C19_2 1_555 1_555
C25_2 C8_2 1_555 1_555
H21_2 C25_2 1_555 1_555
O13_2 Zn8_3 1_555 1_555
O19_2 C40_2 1_555 1_555
C34_2 C50_2 1_555 1_555
C40_2 O13_2 1_555 1_555
C47_2 N19_2 1_555 1_555
C50_2 C40_2 1_555 1_555
H45_2 C50_2 1_555 1_555
C51_2 N18 1_555 1_555
H47_2 C51_2 1_555 1_555
C56_2 C34_2 1_555 1_555
H52_2 C56_2 1_555 1_555
C58_2 C47_2 1_555 1_555
H54_2 C58_2 1_555 1_555
Zn14 N18 1_555 1_555
N5_2 C12_2 1_555 1_555
C7_2 C8_2 1_555 1_555
C7_2 C19_2 1_555 1_555
C11_2 C25_2 1_555 1_555
N19_2 C51_2 1_555 1_555
C56_2 C58_2 1_555 1_555
Zn8_4 F1_2 1_555 1_555
Zn18 F1_2 1_555 1_555
O9_2 Zn18 1_555 1_555
N7_2 Zn18 1_555 1_555
C13_2 C16_2 1_555 1_555
C14_2 N7_2 1_555 1_555
H9_2 C14_2 1_555 1_555
C15_2 O7_2 1_555 1_555
C16_2 C15_2 1_555 1_555
H10_2 C16_2 1_555 1_555
H11_2 C16_2 1_555 1_555
H18_2 C22_2 1_555 1_555
H19_2 C23_2 1_555 1_555
O12_2 Zn18 1_555 1_555
H29_2 O12_2 1_555 1_555
H30_2 O12_2 1_555 1_555
O9_2 C15_2 1_555 1_555
C22_2 C23_2 1_555 1_555
Zn14 F2_2 1_555 1_555
F2_2 Zn8_7 1_555 1_555
O8_2 Zn14 1_555 1_555
C1_2 O6_2 1_555 1_555
C18_2 C1_2 1_555 1_555
H12_2 C18_2 1_555 1_555
H13_2 C18_2 1_555 1_555
O11_2 Zn14 1_555 1_555
H27_2 O11_2 1_555 1_555
O8_2 C1_2 1_555 1_555
C2_2 C18_2 1_555 1_555
N3_2 C5_2 1_555 1_555
N26 C6_2 1_555 1_555
C5_2 N20 1_555 1_555
H4_2 C5_2 1_555 1_555
C6_2 N3_2 1_555 1_555
H5_2 C6_2 1_555 1_555
C9_2 N3_2 1_555 1_555
H20_2 C24_2 1_555 1_555
C27_2 C9_2 1_555 1_555
H23_2 C27_2 1_555 1_555
C29_2 C9_2 1_555 1_555
H25_2 C29_2 1_555 1_555
C24_2 C27_2 1_555 1_555
C29_2 C30_2 1_555 1_555

#END
