
###############################################################################
#
# This file contains modified crystal structure data generated from the
# MOF subset of the Cambridge Structural Database (CSD) v543 
# hosted by the Cambridge Crystallographic Data Centre (CCDC).
#
# This work is licensed under the Creative Commons
# Attribution-NonCommercial-ShareAlike 4.0 International License.
# To view a copy of this license, visit
# http://creativecommons.org/licenses/by-nc-sa/4.0/
# or send a letter to
# Creative Commons, PO Box 1866, Mountain View, CA 94042, USA.
#
# CIF created using the CSD Python API on 29 September 2022
# The structure has been converted into the P1 space group
# The structure has a 3D framework
# The original CSD entry JOCLOD is in the tetragonal crystal system
# The framework has been calculated to contain at least 10.0% void space
# The void calculation uses a probe of radius 1.32A, grid spacing 0.4
# The framework is charged, counterions have been retained in the structure
#
###############################################################################

data_JOCLOD
_chemical_formula_moiety         '(C160 H160 Co12 N32 O16 24+)n'
_symmetry_cell_setting           triclinic
_symmetry_space_group_name_H-M   'P 1'
_symmetry_Int_Tables_number      1
_space_group_name_Hall           'P 1'
loop_
_symmetry_equiv_pos_site_id
_symmetry_equiv_pos_as_xyz
1 x,y,z
_cell_length_a                   15.645(8)
_cell_length_b                   15.645(8)
_cell_length_c                   19.75(2)
_cell_angle_alpha                90
_cell_angle_beta                 90
_cell_angle_gamma                90
_cell_volume                     4834.13
loop_
_atom_site_label
_atom_site_type_symbol
_atom_site_fract_x
_atom_site_fract_y
_atom_site_fract_z
Co1 Co -0.0000 0.2500 0.1250
O1 O 0.09420(13) 0.34420(13) 0.1250
H1 H 0.1312(17) 0.355(2) 0.0935(14)
N1 N 0.06777(13) 0.18031(14) 0.04619(11)
C5 C 0.15343(16) 0.17433(15) 0.04816(12)
H5 H 0.1815 0.1957 0.0861
H6 H 0.105(2) 0.3812(17) 0.1565(14)
N3 N 0.06969(14) 0.18223(13) 0.20381(11)
C6 C 0.47177(18) 0.14756(19) 0.00864(14)
C7 C 0.10244(19) 0.22177(18) 0.25864(14)
H9 H 0.5311 0.1503 0.0108
H10 H 0.0997 0.2811 0.2608
C9 C 0.42835(19) 0.1102(2) 0.06151(15)
C10 C 0.1398(2) 0.17835(19) 0.31151(15)
H12 H 0.4580 0.0880 0.0983
H13 H 0.1620 0.2080 0.3483
C12 C 0.34009(18) 0.10613(19) 0.05934(15)
C13 C 0.14387(19) 0.09009(18) 0.30934(15)
H15 H 0.3097 0.0822 0.0951
H16 H 0.1678 0.0597 0.3451
C15 C 0.29739(15) 0.13821(14) 0.00298(12)
C16 C 0.11179(14) 0.04739(15) 0.25298(12)
C19 C 0.07567(15) 0.09657(16) 0.20184(12)
H19 H 0.0543 0.0685 0.1639
C1 C 0.02823(18) 0.14756(19) 0.99136(14)
C2 C 0.07165(19) 0.1102(2) 0.93849(15)
H3 H 0.0420 0.0880 0.9017
C3 C 0.15991(18) 0.10613(19) 0.94066(15)
H4 H 0.1903 0.0822 0.9049
C4 C 0.20261(15) 0.13821(14) 0.99702(12)
Co2 Co 0.5000 0.2500 0.8750
N2 N 0.43223(13) 0.18031(14) 0.95381(11)
C18 C 0.34657(16) 0.17433(15) 0.95184(12)
H18 H 0.3185 0.1957 0.9139
Co3 Co -0.0000 0.7500 0.3750
N4 N 0.06969(14) 0.81777(13) 0.29619(11)
C8 C 0.10244(19) 0.77823(18) 0.24136(14)
H11 H 0.0997 0.7189 0.2392
C11 C 0.1398(2) 0.82165(19) 0.18849(15)
H14 H 0.1620 0.7920 0.1517
C14 C 0.14387(19) 0.90991(18) 0.19066(15)
H17 H 0.1678 0.9403 0.1549
C17 C 0.11179(14) 0.95261(15) 0.24702(12)
C20 C 0.07567(15) 0.90343(16) 0.29816(12)
H20 H 0.0543 0.9315 0.3361
Co1_2 Co 1.0000 0.2500 0.1250
O2 O 0.90580(13) 0.15580(13) 0.1250
H7 H 0.895(2) 0.1188(17) 0.1565(14)
H8 H 0.8688(17) 0.145(2) 0.0935(14)
N5 N 0.93031(14) 0.31777(13) 0.20381(11)
N6 N 0.93223(13) 0.31969(14) 0.04619(11)
Co3_2 Co 1.0000 0.7500 0.3750
Co3_3 Co 0.5000 0.7500 0.6250
O2_2 O 0.09420(13) 0.65580(13) 0.3750
H7_2 H 0.1312(17) 0.645(2) 0.4065(14)
H8_2 H 0.105(2) 0.6188(17) 0.3435(14)
N3_2 N 0.06777(13) 0.81969(14) 0.45381(11)
N4_2 N 0.43223(13) 0.81969(14) 0.54619(11)
C7_2 C 0.02823(18) 0.85244(19) 0.50864(14)
C8_2 C 0.47177(18) 0.85244(19) 0.49136(14)
H11_2 H 0.5311 0.8497 0.4892
C10_2 C 0.07165(19) 0.8898(2) 0.56151(15)
C11_2 C 0.42835(19) 0.8898(2) 0.43849(15)
H13_2 H 0.0420 0.9120 0.5983
H14_2 H 0.4580 0.9120 0.4017
C13_2 C 0.15991(18) 0.89387(19) 0.55934(15)
C14_2 C 0.34009(18) 0.89387(19) 0.44066(15)
H16_2 H 0.1903 0.9178 0.5951
H17_2 H 0.3097 0.9178 0.4049
C16_2 C 0.20261(15) 0.86179(14) 0.50298(12)
C17_2 C 0.29739(15) 0.86179(14) 0.49702(12)
C19_2 C 0.15343(16) 0.82567(15) 0.45184(12)
C20_2 C 0.34657(16) 0.82567(15) 0.54816(12)
H19_2 H 0.1815 0.8043 0.4139
H20_2 H 0.3185 0.8043 0.5861
O1_2 O 0.90580(13) 0.84420(13) 0.3750
H1_2 H 0.895(2) 0.8812(17) 0.3435(14)
H6_2 H 0.8688(17) 0.855(2) 0.4065(14)
N5_2 N 0.93223(13) 0.68031(14) 0.45381(11)
N6_2 N 0.93031(14) 0.68223(13) 0.29619(11)
H10_2 H 0.9689 0.8497 0.5108
O1_3 O 0.59420(13) 0.15580(13) 0.8750
H1_3 H 0.605(2) 0.1188(17) 0.8435(14)
N1_2 N 0.43031(14) 0.18223(13) 0.79619(11)
C1_2 C 0.39756(19) 0.22177(18) 0.74136(14)
H2 H 0.4003 0.2811 0.7392
C2_2 C 0.3602(2) 0.17835(19) 0.68849(15)
H3_2 H 0.3380 0.2080 0.6517
C3_2 C 0.35613(19) 0.09009(18) 0.69066(15)
H4_2 H 0.3322 0.0597 0.6549
C4_2 C 0.38821(14) 0.04739(15) 0.74702(12)
C5_2 C 0.42433(15) 0.09657(16) 0.79816(12)
H5_2 H 0.4457 0.0685 0.8361
O2_3 O 0.40580(13) 0.34420(13) 0.8750
H6_3 H 0.6312(17) 0.145(2) 0.9065(14)
H7_3 H 0.3688(17) 0.355(2) 0.9065(14)
H8_3 H 0.395(2) 0.3812(17) 0.8435(14)
N5_3 N 0.56777(13) 0.31969(14) 0.95381(11)
N6_3 N 0.56969(14) 0.31777(13) 0.79619(11)
N2_2 N 0.43031(14) 0.81777(13) 0.70381(11)
C6_2 C 0.39756(19) 0.77823(18) 0.75864(14)
H9_2 H 0.4003 0.7189 0.7608
C9_2 C 0.3602(2) 0.82165(19) 0.81151(15)
H12_2 H 0.3380 0.7920 0.8483
C12_2 C 0.35613(19) 0.90991(18) 0.80934(15)
H15_2 H 0.3322 0.9403 0.8451
C15_2 C 0.38821(14) 0.95261(15) 0.75298(12)
C18_2 C 0.42433(15) 0.90343(16) 0.70184(12)
H18_2 H 0.4457 0.9315 0.6639
O1_4 O 0.59420(13) 0.84420(13) 0.6250
H1_4 H 0.605(2) 0.8812(17) 0.6565(14)
O2_4 O 0.40580(13) 0.65580(13) 0.6250
H6_4 H 0.6312(17) 0.855(2) 0.5935(14)
H7_4 H 0.3688(17) 0.645(2) 0.5935(14)
H8_4 H 0.395(2) 0.6188(17) 0.6565(14)
N5_4 N 0.56777(13) 0.68031(14) 0.54619(11)
N6_4 N 0.56969(14) 0.68223(13) 0.70381(11)
H9_3 H 0.0311 0.6503 0.5108
C1_3 C 0.52823(18) 0.64756(19) 0.49136(14)
H2_2 H 0.4689 0.6503 0.4892
C2_3 C 0.57165(19) 0.6102(2) 0.43849(15)
H3_3 H 0.5420 0.5880 0.4017
C3_3 C 0.65991(18) 0.60613(19) 0.44066(15)
H4_3 H 0.6903 0.5822 0.4049
C4_3 C 0.70261(15) 0.63821(14) 0.49702(12)
C5_3 C 0.65343(16) 0.67433(15) 0.54816(12)
H5_3 H 0.6815 0.6957 0.5861
C6_3 C 0.97177(18) 0.64756(19) 0.50864(14)
C7_3 C 0.60244(19) 0.72177(18) 0.75864(14)
C8_3 C 0.60244(19) 0.27823(18) 0.74136(14)
H10_3 H 0.5997 0.7811 0.7608
H11_3 H 0.5997 0.2189 0.7392
C9_3 C 0.92835(19) 0.6102(2) 0.56151(15)
C10_3 C 0.6398(2) 0.67835(19) 0.81151(15)
C11_3 C 0.6398(2) 0.32165(19) 0.68849(15)
H12_3 H 0.9580 0.5880 0.5983
H13_3 H 0.6620 0.7080 0.8483
H14_3 H 0.6620 0.2920 0.6517
C12_3 C 0.84009(18) 0.60613(19) 0.55934(15)
C13_3 C 0.64387(19) 0.59009(18) 0.80934(15)
C14_3 C 0.64387(19) 0.40991(18) 0.69066(15)
H15_3 H 0.8097 0.5822 0.5951
H16_3 H 0.6678 0.5597 0.8451
H17_3 H 0.6678 0.4403 0.6549
C15_3 C 0.79739(15) 0.63821(14) 0.50298(12)
C16_3 C 0.61179(14) 0.54739(15) 0.75298(12)
C17_3 C 0.61179(14) 0.45261(15) 0.74702(12)
C18_3 C 0.84657(16) 0.67433(15) 0.45184(12)
C19_3 C 0.57567(15) 0.59657(16) 0.70184(12)
C20_3 C 0.57567(15) 0.40343(16) 0.79816(12)
H18_3 H 0.8185 0.6957 0.4139
H19_3 H 0.5543 0.5685 0.6639
H20_3 H 0.5543 0.4315 0.8361
C7_4 C 0.52823(18) 0.35244(19) 0.00864(14)
H10_4 H 0.4689 0.3497 0.0108
C10_4 C 0.57165(19) 0.3898(2) 0.06151(15)
H13_4 H 0.5420 0.4120 0.0983
C13_4 C 0.65991(18) 0.39387(19) 0.05934(15)
H16_4 H 0.6903 0.4178 0.0951
C16_4 C 0.70261(15) 0.36179(14) 0.00298(12)
C20_4 C 0.84657(16) 0.32567(15) 0.04816(12)
H20_4 H 0.8185 0.3043 0.0861
C8_4 C 0.97177(18) 0.35244(19) 0.99136(14)
C11_4 C 0.92835(19) 0.3898(2) 0.93849(15)
H14_4 H 0.9580 0.4120 0.9017
C14_4 C 0.84009(18) 0.39387(19) 0.94066(15)
H17_4 H 0.8097 0.4178 0.9049
C17_4 C 0.79739(15) 0.36179(14) 0.99702(12)
C19_4 C 0.65343(16) 0.32567(15) 0.95184(12)
H19_4 H 0.6815 0.3043 0.9139
C1_4 C 0.89756(19) 0.72177(18) 0.24136(14)
H2_3 H 0.9003 0.7811 0.2392
C2_4 C 0.8602(2) 0.67835(19) 0.18849(15)
H3_4 H 0.8380 0.7080 0.1517
C3_4 C 0.85613(19) 0.59009(18) 0.19066(15)
H4_4 H 0.8322 0.5597 0.1549
C4_4 C 0.88821(14) 0.54739(15) 0.24702(12)
C5_4 C 0.92433(15) 0.59657(16) 0.29816(12)
H5_4 H 0.9457 0.5685 0.3361
C6_4 C 0.89756(19) 0.27823(18) 0.25864(14)
H9_4 H 0.9003 0.2189 0.2608
C9_4 C 0.8602(2) 0.32165(19) 0.31151(15)
H12_4 H 0.8380 0.2920 0.3483
C12_4 C 0.85613(19) 0.40991(18) 0.30934(15)
H15_4 H 0.8322 0.4403 0.3451
C15_4 C 0.88821(14) 0.45261(15) 0.25298(12)
C18_4 C 0.92433(15) 0.40343(16) 0.20184(12)
H18_4 H 0.9457 0.4315 0.1639
H2_4 H 0.9689 0.1503 0.9892
H11_4 H 0.0311 0.3497 0.9892
Co3_4 Co 0.0000 0.2500 0.6250
Co1_3 Co 0.0000 0.7500 0.8750
O2_5 O 0.09420(13) 0.84420(13) 0.8750
H7_5 H 0.105(2) 0.8812(17) 0.8435(14)
H8_5 H 0.1312(17) 0.855(2) 0.9065(14)
N5_5 N 0.06969(14) 0.68223(13) 0.79619(11)
N6_5 N 0.06777(13) 0.68031(14) 0.95381(11)
Co3_5 Co 1.0000 0.2500 0.6250
N4_3 N 0.93031(14) 0.18223(13) 0.70381(11)
C8_5 C 0.89756(19) 0.22177(18) 0.75864(14)
H11_5 H 0.9003 0.2811 0.7608
C11_5 C 0.8602(2) 0.17835(19) 0.81151(15)
H14_5 H 0.8380 0.2080 0.8483
C14_5 C 0.85613(19) 0.09009(18) 0.80934(15)
H17_5 H 0.8322 0.0597 0.8451
C17_5 C 0.88821(14) 0.04739(15) 0.75298(12)
C20_5 C 0.92433(15) 0.09657(16) 0.70184(12)
H20_5 H 0.9457 0.0685 0.6639
C1_5 C 0.97177(18) 0.85244(19) 0.00864(14)
C2_5 C 0.92835(19) 0.8898(2) 0.06151(15)
H3_5 H 0.9580 0.9120 0.0983
C3_5 C 0.84009(18) 0.89387(19) 0.05934(15)
H4_5 H 0.8097 0.9178 0.0951
C4_5 C 0.79739(15) 0.86179(14) 0.00298(12)
Co2_2 Co 0.5000 0.7500 0.1250
N2_3 N 0.56777(13) 0.81969(14) 0.04619(11)
C18_5 C 0.65343(16) 0.82567(15) 0.04816(12)
H18_5 H 0.6815 0.8043 0.0861
Co1_4 Co 1.0000 0.7500 0.8750
O1_5 O 0.90580(13) 0.65580(13) 0.8750
H1_5 H 0.8688(17) 0.645(2) 0.9065(14)
N1_3 N 0.93223(13) 0.81969(14) 0.95381(11)
C5_5 C 0.84657(16) 0.82567(15) 0.95184(12)
H5_5 H 0.8185 0.8043 0.9139
H6_5 H 0.895(2) 0.6188(17) 0.8435(14)
N3_3 N 0.93031(14) 0.81777(13) 0.79619(11)
C6_5 C 0.52823(18) 0.85244(19) 0.99136(14)
C7_5 C 0.89756(19) 0.77823(18) 0.74136(14)
H9_5 H 0.4689 0.8497 0.9892
H10_5 H 0.9003 0.7189 0.7392
C9_5 C 0.57165(19) 0.8898(2) 0.93849(15)
C10_5 C 0.8602(2) 0.82165(19) 0.68849(15)
H12_5 H 0.5420 0.9120 0.9017
H13_5 H 0.8380 0.7920 0.6517
C12_5 C 0.65991(18) 0.89387(19) 0.94066(15)
C13_5 C 0.85613(19) 0.90991(18) 0.69066(15)
H15_5 H 0.6903 0.9178 0.9049
H16_5 H 0.8322 0.9403 0.6549
C15_5 C 0.70261(15) 0.86179(14) 0.99702(12)
C16_5 C 0.88821(14) 0.95261(15) 0.74702(12)
C19_5 C 0.92433(15) 0.90343(16) 0.79816(12)
H19_5 H 0.9457 0.9315 0.8361
O1_6 O 0.09420(13) 0.15580(13) 0.6250
H1_6 H 0.105(2) 0.1188(17) 0.6565(14)
H6_6 H 0.1312(17) 0.145(2) 0.5935(14)
N5_6 N 0.06777(13) 0.31969(14) 0.54619(11)
N6_6 N 0.06969(14) 0.31777(13) 0.70381(11)
H10_6 H 0.0311 0.1503 0.4892
Co3_6 Co 0.5000 0.2500 0.3750
O2_6 O 0.90580(13) 0.34420(13) 0.6250
H7_6 H 0.8688(17) 0.355(2) 0.5935(14)
H8_6 H 0.895(2) 0.3812(17) 0.6565(14)
N3_4 N 0.93223(13) 0.18031(14) 0.54619(11)
N4_4 N 0.56777(13) 0.18031(14) 0.45381(11)
C7_6 C 0.97177(18) 0.14756(19) 0.49136(14)
C8_6 C 0.52823(18) 0.14756(19) 0.50864(14)
H11_6 H 0.4689 0.1503 0.5108
C10_6 C 0.92835(19) 0.1102(2) 0.43849(15)
C11_6 C 0.57165(19) 0.1102(2) 0.56151(15)
H13_6 H 0.9580 0.0880 0.4017
H14_6 H 0.5420 0.0880 0.5983
C13_6 C 0.84009(18) 0.10613(19) 0.44066(15)
C14_6 C 0.65991(18) 0.10613(19) 0.55934(15)
H16_6 H 0.8097 0.0822 0.4049
H17_6 H 0.6903 0.0822 0.5951
C16_6 C 0.79739(15) 0.13821(14) 0.49702(12)
C17_6 C 0.70261(15) 0.13821(14) 0.50298(12)
C19_6 C 0.84657(16) 0.17433(15) 0.54816(12)
C20_6 C 0.65343(16) 0.17433(15) 0.45184(12)
H19_6 H 0.8185 0.1957 0.5861
H20_6 H 0.6815 0.1957 0.4139
N2_4 N 0.56969(14) 0.18223(13) 0.29619(11)
C6_6 C 0.60244(19) 0.22177(18) 0.24136(14)
H9_6 H 0.5997 0.2811 0.2392
C9_6 C 0.6398(2) 0.17835(19) 0.18849(15)
H12_6 H 0.6620 0.2080 0.1517
C12_6 C 0.64387(19) 0.09009(18) 0.19066(15)
H15_6 H 0.6678 0.0597 0.1549
C15_6 C 0.61179(14) 0.04739(15) 0.24702(12)
C18_6 C 0.57567(15) 0.09657(16) 0.29816(12)
H18_6 H 0.5543 0.0685 0.3361
O1_7 O 0.40580(13) 0.84420(13) 0.1250
H1_7 H 0.395(2) 0.8812(17) 0.1565(14)
N1_4 N 0.56969(14) 0.81777(13) 0.20381(11)
C1_6 C 0.60244(19) 0.77823(18) 0.25864(14)
H2_5 H 0.5997 0.7189 0.2608
C2_6 C 0.6398(2) 0.82165(19) 0.31151(15)
H3_6 H 0.6620 0.7920 0.3483
C3_6 C 0.64387(19) 0.90991(18) 0.30934(15)
H4_6 H 0.6678 0.9403 0.3451
C4_6 C 0.61179(14) 0.95261(15) 0.25298(12)
C5_6 C 0.57567(15) 0.90343(16) 0.20184(12)
H5_6 H 0.5543 0.9315 0.1639
O2_7 O 0.59420(13) 0.65580(13) 0.1250
H6_7 H 0.3688(17) 0.855(2) 0.0935(14)
H7_7 H 0.6312(17) 0.645(2) 0.0935(14)
H8_7 H 0.605(2) 0.6188(17) 0.1565(14)
N5_7 N 0.43223(13) 0.68031(14) 0.04619(11)
N6_7 N 0.43031(14) 0.68223(13) 0.20381(11)
O1_8 O 0.40580(13) 0.15580(13) 0.3750
H1_8 H 0.395(2) 0.1188(17) 0.3435(14)
O2_8 O 0.59420(13) 0.34420(13) 0.3750
H6_8 H 0.3688(17) 0.145(2) 0.4065(14)
H7_8 H 0.6312(17) 0.355(2) 0.4065(14)
H8_8 H 0.605(2) 0.3812(17) 0.3435(14)
N5_8 N 0.43223(13) 0.31969(14) 0.45381(11)
N6_8 N 0.43031(14) 0.31777(13) 0.29619(11)
C1_7 C 0.47177(18) 0.35244(19) 0.50864(14)
H2_6 H 0.5311 0.3497 0.5108
C2_7 C 0.42835(19) 0.3898(2) 0.56151(15)
H3_7 H 0.4580 0.4120 0.5983
C3_7 C 0.34009(18) 0.39387(19) 0.55934(15)
H4_7 H 0.3097 0.4178 0.5951
C4_7 C 0.29739(15) 0.36179(14) 0.50298(12)
C5_7 C 0.34657(16) 0.32567(15) 0.45184(12)
H5_7 H 0.3185 0.3043 0.4139
C6_7 C 0.02823(18) 0.35244(19) 0.49136(14)
C7_7 C 0.39756(19) 0.27823(18) 0.24136(14)
C8_7 C 0.39756(19) 0.72177(18) 0.25864(14)
H10_7 H 0.4003 0.2189 0.2392
H11_7 H 0.4003 0.7811 0.2608
C9_7 C 0.07165(19) 0.3898(2) 0.43849(15)
C10_7 C 0.3602(2) 0.32165(19) 0.18849(15)
C11_7 C 0.3602(2) 0.67835(19) 0.31151(15)
H12_7 H 0.0420 0.4120 0.4017
H13_7 H 0.3380 0.2920 0.1517
H14_7 H 0.3380 0.7080 0.3483
C12_7 C 0.15991(18) 0.39387(19) 0.44066(15)
C13_7 C 0.35613(19) 0.40991(18) 0.19066(15)
C14_7 C 0.35613(19) 0.59009(18) 0.30934(15)
H15_7 H 0.1903 0.4178 0.4049
H16_7 H 0.3322 0.4403 0.1549
H17_7 H 0.3322 0.5597 0.3451
C15_7 C 0.20261(15) 0.36179(14) 0.49702(12)
C16_7 C 0.38821(14) 0.45261(15) 0.24702(12)
C17_7 C 0.38821(14) 0.54739(15) 0.25298(12)
C18_7 C 0.15343(16) 0.32567(15) 0.54816(12)
C19_7 C 0.42433(15) 0.40343(16) 0.29816(12)
C20_7 C 0.42433(15) 0.59657(16) 0.20184(12)
H18_7 H 0.1815 0.3043 0.5861
H19_7 H 0.4457 0.4315 0.3361
H20_7 H 0.4457 0.5685 0.1639
H9_7 H 0.9689 0.3497 0.4892
C8_8 C 0.02823(18) 0.64756(19) 0.00864(14)
C11_8 C 0.07165(19) 0.6102(2) 0.06151(15)
H14_8 H 0.0420 0.5880 0.0983
C14_8 C 0.15991(18) 0.60613(19) 0.05934(15)
H17_8 H 0.1903 0.5822 0.0951
C17_8 C 0.20261(15) 0.63821(14) 0.00298(12)
C19_8 C 0.34657(16) 0.67433(15) 0.04816(12)
H19_8 H 0.3185 0.6957 0.0861
C7_8 C 0.47177(18) 0.64756(19) 0.99136(14)
H10_8 H 0.5311 0.6503 0.9892
C10_8 C 0.42835(19) 0.6102(2) 0.93849(15)
H13_8 H 0.4580 0.5880 0.9017
C13_8 C 0.34009(18) 0.60613(19) 0.94066(15)
H16_8 H 0.3097 0.5822 0.9049
C16_8 C 0.29739(15) 0.63821(14) 0.99702(12)
C20_8 C 0.15343(16) 0.67433(15) 0.95184(12)
H20_8 H 0.1815 0.6957 0.9139
C1_8 C 0.10244(19) 0.27823(18) 0.75864(14)
H2_7 H 0.0997 0.2189 0.7608
C2_8 C 0.1398(2) 0.32165(19) 0.81151(15)
H3_8 H 0.1620 0.2920 0.8483
C3_8 C 0.14387(19) 0.40991(18) 0.80934(15)
H4_8 H 0.1678 0.4403 0.8451
C4_8 C 0.11179(14) 0.45261(15) 0.75298(12)
C5_8 C 0.07567(15) 0.40343(16) 0.70184(12)
H5_8 H 0.0543 0.4315 0.6639
C6_8 C 0.10244(19) 0.72177(18) 0.74136(14)
H9_8 H 0.0997 0.7811 0.7392
C9_8 C 0.1398(2) 0.67835(19) 0.68849(15)
H12_8 H 0.1620 0.7080 0.6517
C12_8 C 0.14387(19) 0.59009(18) 0.69066(15)
H15_8 H 0.1678 0.5597 0.6549
C15_8 C 0.11179(14) 0.54739(15) 0.74702(12)
C18_8 C 0.07567(15) 0.59657(16) 0.79816(12)
H18_8 H 0.0543 0.5685 0.8361
H2_8 H 0.0311 0.8497 0.0108
H11_8 H 0.9689 0.6503 0.0108
loop_
_geom_bond_atom_site_label_1
_geom_bond_atom_site_label_2
_geom_bond_site_symmetry_1
_geom_bond_site_symmetry_2
Co1 O1 1_555 1_555
O1 H1 1_555 1_555
N1 Co1 1_555 1_555
C5 N1 1_555 1_555
H5 C5 1_555 1_555
H6 O1 1_555 1_555
N3 Co1 1_555 1_555
C6 H9 1_555 1_555
C7 N3 1_555 1_555
H10 C7 1_555 1_555
C9 C6 1_555 1_555
C10 C7 1_555 1_555
H12 C9 1_555 1_555
H13 C10 1_555 1_555
C12 C9 1_555 1_555
C13 C10 1_555 1_555
H15 C12 1_555 1_555
H16 C13 1_555 1_555
C16 C13 1_555 1_555
C19 N3 1_555 1_555
H19 C19 1_555 1_555
C12 C15 1_555 1_555
C16 C19 1_555 1_555
C2 C1 1_555 1_555
H3 C2 1_555 1_555
C3 C2 1_555 1_555
H4 C3 1_555 1_555
C4 C3 1_555 1_555
Co2 N2 1_555 1_555
C18 N2 1_555 1_555
H18 C18 1_555 1_555
Co3 N4 1_555 1_555
N4 C8 1_555 1_555
C8 H11 1_555 1_555
C11 C8 1_555 1_555
H14 C11 1_555 1_555
C14 C11 1_555 1_555
H17 C14 1_555 1_555
C17 C14 1_555 1_555
C20 N4 1_555 1_555
H20 C20 1_555 1_555
C17 C20 1_555 1_555
O2 Co1_2 1_555 1_555
H7 O2 1_555 1_555
H8 O2 1_555 1_555
N5 Co1_2 1_555 1_555
N6 Co1_2 1_555 1_555
Co3_3 N4_2 1_555 1_555
O2_2 Co3 1_555 1_555
H7_2 O2_2 1_555 1_555
H8_2 O2_2 1_555 1_555
N3_2 Co3 1_555 1_555
N4_2 C8_2 1_555 1_555
C7_2 N3_2 1_555 1_555
C8_2 H11_2 1_555 1_555
C10_2 C7_2 1_555 1_555
C11_2 C8_2 1_555 1_555
H13_2 C10_2 1_555 1_555
H14_2 C11_2 1_555 1_555
C13_2 C10_2 1_555 1_555
C14_2 C11_2 1_555 1_555
H16_2 C13_2 1_555 1_555
H17_2 C14_2 1_555 1_555
C16_2 C13_2 1_555 1_555
C17_2 C14_2 1_555 1_555
C19_2 N3_2 1_555 1_555
C20_2 N4_2 1_555 1_555
H19_2 C19_2 1_555 1_555
H20_2 C20_2 1_555 1_555
C16_2 C17_2 1_555 1_555
C16_2 C19_2 1_555 1_555
C17_2 C20_2 1_555 1_555
Co3_2 O1_2 1_555 1_555
O1_2 H1_2 1_555 1_555
H6_2 O1_2 1_555 1_555
N5_2 Co3_2 1_555 1_555
N6_2 Co3_2 1_555 1_555
Co2 O1_3 1_555 1_555
O1_3 H1_3 1_555 1_555
N1_2 Co2 1_555 1_555
C1_2 N1_2 1_555 1_555
H2 C1_2 1_555 1_555
C2_2 C1_2 1_555 1_555
H3_2 C2_2 1_555 1_555
C3_2 C2_2 1_555 1_555
H4_2 C3_2 1_555 1_555
C4_2 C3_2 1_555 1_555
C5_2 N1_2 1_555 1_555
H5_2 C5_2 1_555 1_555
O2_3 Co2 1_555 1_555
H6_3 O1_3 1_555 1_555
H7_3 O2_3 1_555 1_555
H8_3 O2_3 1_555 1_555
N5_3 Co2 1_555 1_555
N6_3 Co2 1_555 1_555
C4_2 C5_2 1_555 1_555
Co3_3 N2_2 1_555 1_555
N2_2 C6_2 1_555 1_555
C6_2 H9_2 1_555 1_555
C9_2 C6_2 1_555 1_555
H12_2 C9_2 1_555 1_555
C12_2 C9_2 1_555 1_555
H15_2 C12_2 1_555 1_555
C18_2 N2_2 1_555 1_555
H18_2 C18_2 1_555 1_555
C12_2 C15_2 1_555 1_555
C15_2 C18_2 1_555 1_555
Co3_3 O1_4 1_555 1_555
O1_4 H1_4 1_555 1_555
O2_4 Co3_3 1_555 1_555
H6_4 O1_4 1_555 1_555
H7_4 O2_4 1_555 1_555
H8_4 O2_4 1_555 1_555
N5_4 Co3_3 1_555 1_555
N6_4 Co3_3 1_555 1_555
C1_3 N5_4 1_555 1_555
H2_2 C1_3 1_555 1_555
C2_3 C1_3 1_555 1_555
H3_3 C2_3 1_555 1_555
C3_3 C2_3 1_555 1_555
H4_3 C3_3 1_555 1_555
C4_3 C3_3 1_555 1_555
C5_3 N5_4 1_555 1_555
H5_3 C5_3 1_555 1_555
N5_2 C6_3 1_555 1_555
N6_3 C8_3 1_555 1_555
C7_3 N6_4 1_555 1_555
C8_3 H11_3 1_555 1_555
H10_3 C7_3 1_555 1_555
C9_3 C6_3 1_555 1_555
C10_3 C7_3 1_555 1_555
C11_3 C8_3 1_555 1_555
H12_3 C9_3 1_555 1_555
H13_3 C10_3 1_555 1_555
H14_3 C11_3 1_555 1_555
C12_3 C9_3 1_555 1_555
C13_3 C10_3 1_555 1_555
C14_3 C11_3 1_555 1_555
H15_3 C12_3 1_555 1_555
H16_3 C13_3 1_555 1_555
H17_3 C14_3 1_555 1_555
C15_3 C4_3 1_555 1_555
C16_3 C13_3 1_555 1_555
C17_3 C14_3 1_555 1_555
C18_3 N5_2 1_555 1_555
C19_3 N6_4 1_555 1_555
C20_3 N6_3 1_555 1_555
H18_3 C18_3 1_555 1_555
H19_3 C19_3 1_555 1_555
H20_3 C20_3 1_555 1_555
C4_3 C5_3 1_555 1_555
C12_3 C15_3 1_555 1_555
C15_3 C18_3 1_555 1_555
C16_3 C17_3 1_555 1_555
C16_3 C19_3 1_555 1_555
C17_3 C20_3 1_555 1_555
H10_4 C7_4 1_555 1_555
C10_4 C7_4 1_555 1_555
H13_4 C10_4 1_555 1_555
C13_4 C10_4 1_555 1_555
H16_4 C13_4 1_555 1_555
C16_4 C13_4 1_555 1_555
C20_4 N6 1_555 1_555
H20_4 C20_4 1_555 1_555
C11_4 C8_4 1_555 1_555
H14_4 C11_4 1_555 1_555
C14_4 C11_4 1_555 1_555
H17_4 C14_4 1_555 1_555
C17_4 C14_4 1_555 1_555
C19_4 N5_3 1_555 1_555
H19_4 C19_4 1_555 1_555
C1_4 N6_2 1_555 1_555
H2_3 C1_4 1_555 1_555
C2_4 C1_4 1_555 1_555
H3_4 C2_4 1_555 1_555
C3_4 C2_4 1_555 1_555
H4_4 C3_4 1_555 1_555
C4_4 C3_4 1_555 1_555
C5_4 N6_2 1_555 1_555
H5_4 C5_4 1_555 1_555
N5 C6_4 1_555 1_555
C6_4 H9_4 1_555 1_555
C9_4 C6_4 1_555 1_555
H12_4 C9_4 1_555 1_555
C12_4 C9_4 1_555 1_555
H15_4 C12_4 1_555 1_555
C15_4 C4_4 1_555 1_555
C18_4 N5 1_555 1_555
H18_4 C18_4 1_555 1_555
C4_4 C5_4 1_555 1_555
C12_4 C15_4 1_555 1_555
C15_4 C18_4 1_555 1_555
O2_5 Co1_3 1_555 1_555
H7_5 O2_5 1_555 1_555
H8_5 O2_5 1_555 1_555
N5_5 Co1_3 1_555 1_555
N6_5 Co1_3 1_555 1_555
Co3_5 N4_3 1_555 1_555
N4_3 C8_5 1_555 1_555
C8_5 H11_5 1_555 1_555
C11_5 C8_5 1_555 1_555
H14_5 C11_5 1_555 1_555
C14_5 C11_5 1_555 1_555
H17_5 C14_5 1_555 1_555
C17_5 C14_5 1_555 1_555
C20_5 N4_3 1_555 1_555
H20_5 C20_5 1_555 1_555
C17_5 C20_5 1_555 1_555
C2_5 C1_5 1_555 1_555
H3_5 C2_5 1_555 1_555
C3_5 C2_5 1_555 1_555
H4_5 C3_5 1_555 1_555
C4_5 C3_5 1_555 1_555
Co2_2 N2_3 1_555 1_555
C18_5 N2_3 1_555 1_555
H18_5 C18_5 1_555 1_555
Co1_4 O1_5 1_555 1_555
O1_5 H1_5 1_555 1_555
N1_3 Co1_4 1_555 1_555
C5_5 N1_3 1_555 1_555
H5_5 C5_5 1_555 1_555
H6_5 O1_5 1_555 1_555
N3_3 Co1_4 1_555 1_555
C6_5 H9_5 1_555 1_555
C7_5 N3_3 1_555 1_555
H10_5 C7_5 1_555 1_555
C9_5 C6_5 1_555 1_555
C10_5 C7_5 1_555 1_555
H12_5 C9_5 1_555 1_555
H13_5 C10_5 1_555 1_555
C12_5 C9_5 1_555 1_555
C13_5 C10_5 1_555 1_555
H15_5 C12_5 1_555 1_555
H16_5 C13_5 1_555 1_555
C16_5 C13_5 1_555 1_555
C19_5 N3_3 1_555 1_555
H19_5 C19_5 1_555 1_555
C12_5 C15_5 1_555 1_555
C16_5 C19_5 1_555 1_555
Co3_4 O1_6 1_555 1_555
O1_6 H1_6 1_555 1_555
H6_6 O1_6 1_555 1_555
N5_6 Co3_4 1_555 1_555
N6_6 Co3_4 1_555 1_555
Co3_6 N4_4 1_555 1_555
O2_6 Co3_5 1_555 1_555
H7_6 O2_6 1_555 1_555
H8_6 O2_6 1_555 1_555
N3_4 Co3_5 1_555 1_555
N4_4 C8_6 1_555 1_555
C7_6 N3_4 1_555 1_555
C8_6 H11_6 1_555 1_555
C10_6 C7_6 1_555 1_555
C11_6 C8_6 1_555 1_555
H13_6 C10_6 1_555 1_555
H14_6 C11_6 1_555 1_555
C13_6 C10_6 1_555 1_555
C14_6 C11_6 1_555 1_555
H16_6 C13_6 1_555 1_555
H17_6 C14_6 1_555 1_555
C16_6 C13_6 1_555 1_555
C17_6 C14_6 1_555 1_555
C19_6 N3_4 1_555 1_555
C20_6 N4_4 1_555 1_555
H19_6 C19_6 1_555 1_555
H20_6 C20_6 1_555 1_555
C16_6 C17_6 1_555 1_555
C16_6 C19_6 1_555 1_555
C17_6 C20_6 1_555 1_555
Co3_6 N2_4 1_555 1_555
N2_4 C6_6 1_555 1_555
C6_6 H9_6 1_555 1_555
C9_6 C6_6 1_555 1_555
H12_6 C9_6 1_555 1_555
C12_6 C9_6 1_555 1_555
H15_6 C12_6 1_555 1_555
C18_6 N2_4 1_555 1_555
H18_6 C18_6 1_555 1_555
C12_6 C15_6 1_555 1_555
C15_6 C18_6 1_555 1_555
Co2_2 O1_7 1_555 1_555
O1_7 H1_7 1_555 1_555
N1_4 Co2_2 1_555 1_555
C1_6 N1_4 1_555 1_555
H2_5 C1_6 1_555 1_555
C2_6 C1_6 1_555 1_555
H3_6 C2_6 1_555 1_555
C3_6 C2_6 1_555 1_555
H4_6 C3_6 1_555 1_555
C4_6 C3_6 1_555 1_555
C5_6 N1_4 1_555 1_555
H5_6 C5_6 1_555 1_555
O2_7 Co2_2 1_555 1_555
H6_7 O1_7 1_555 1_555
H7_7 O2_7 1_555 1_555
H8_7 O2_7 1_555 1_555
N5_7 Co2_2 1_555 1_555
N6_7 Co2_2 1_555 1_555
C4_6 C5_6 1_555 1_555
Co3_6 O1_8 1_555 1_555
O1_8 H1_8 1_555 1_555
O2_8 Co3_6 1_555 1_555
H6_8 O1_8 1_555 1_555
H7_8 O2_8 1_555 1_555
H8_8 O2_8 1_555 1_555
N5_8 Co3_6 1_555 1_555
N6_8 Co3_6 1_555 1_555
C1_7 N5_8 1_555 1_555
H2_6 C1_7 1_555 1_555
C2_7 C1_7 1_555 1_555
H3_7 C2_7 1_555 1_555
C3_7 C2_7 1_555 1_555
H4_7 C3_7 1_555 1_555
C4_7 C3_7 1_555 1_555
C5_7 N5_8 1_555 1_555
H5_7 C5_7 1_555 1_555
N5_6 C6_7 1_555 1_555
N6_7 C8_7 1_555 1_555
C7_7 N6_8 1_555 1_555
C8_7 H11_7 1_555 1_555
H10_7 C7_7 1_555 1_555
C9_7 C6_7 1_555 1_555
C10_7 C7_7 1_555 1_555
C11_7 C8_7 1_555 1_555
H12_7 C9_7 1_555 1_555
H13_7 C10_7 1_555 1_555
H14_7 C11_7 1_555 1_555
C12_7 C9_7 1_555 1_555
C13_7 C10_7 1_555 1_555
C14_7 C11_7 1_555 1_555
H15_7 C12_7 1_555 1_555
H16_7 C13_7 1_555 1_555
H17_7 C14_7 1_555 1_555
C15_7 C4_7 1_555 1_555
C16_7 C13_7 1_555 1_555
C17_7 C14_7 1_555 1_555
C18_7 N5_6 1_555 1_555
C19_7 N6_8 1_555 1_555
C20_7 N6_7 1_555 1_555
H18_7 C18_7 1_555 1_555
H19_7 C19_7 1_555 1_555
H20_7 C20_7 1_555 1_555
C4_7 C5_7 1_555 1_555
C12_7 C15_7 1_555 1_555
C15_7 C18_7 1_555 1_555
C16_7 C17_7 1_555 1_555
C16_7 C19_7 1_555 1_555
C17_7 C20_7 1_555 1_555
C11_8 C8_8 1_555 1_555
H14_8 C11_8 1_555 1_555
C14_8 C11_8 1_555 1_555
H17_8 C14_8 1_555 1_555
C17_8 C14_8 1_555 1_555
C19_8 N5_7 1_555 1_555
H19_8 C19_8 1_555 1_555
H10_8 C7_8 1_555 1_555
C10_8 C7_8 1_555 1_555
H13_8 C10_8 1_555 1_555
C13_8 C10_8 1_555 1_555
H16_8 C13_8 1_555 1_555
C16_8 C13_8 1_555 1_555
C20_8 N6_5 1_555 1_555
H20_8 C20_8 1_555 1_555
C1_8 N6_6 1_555 1_555
H2_7 C1_8 1_555 1_555
C2_8 C1_8 1_555 1_555
H3_8 C2_8 1_555 1_555
C3_8 C2_8 1_555 1_555
H4_8 C3_8 1_555 1_555
C4_8 C3_8 1_555 1_555
C5_8 N6_6 1_555 1_555
H5_8 C5_8 1_555 1_555
N5_5 C6_8 1_555 1_555
C6_8 H9_8 1_555 1_555
C9_8 C6_8 1_555 1_555
H12_8 C9_8 1_555 1_555
C12_8 C9_8 1_555 1_555
H15_8 C12_8 1_555 1_555
C15_8 C4_8 1_555 1_555
C18_8 N5_5 1_555 1_555
H18_8 C18_8 1_555 1_555
C4_8 C5_8 1_555 1_555
C12_8 C15_8 1_555 1_555
C15_8 C18_8 1_555 1_555

#END
