
###############################################################################
#
# This file contains modified crystal structure data generated from the
# MOF subset of the Cambridge Structural Database (CSD) v543 
# hosted by the Cambridge Crystallographic Data Centre (CCDC).
#
# This work is licensed under the Creative Commons
# Attribution-NonCommercial-ShareAlike 4.0 International License.
# To view a copy of this license, visit
# http://creativecommons.org/licenses/by-nc-sa/4.0/
# or send a letter to
# Creative Commons, PO Box 1866, Mountain View, CA 94042, USA.
#
# CIF created using the CSD Python API on 29 September 2022
# The structure has been converted into the P1 space group
# The structure has a 3D framework
# The original CSD entry JOCNAT is in the orthorhombic crystal system
# The framework has been calculated to contain at least 10.0% void space
# The void calculation uses a probe of radius 1.32A, grid spacing 0.4
#
###############################################################################

data_JOCNAT
_chemical_formula_moiety         '(C152 H120 Cu24 F48 N56 O76 S16)n'
_symmetry_cell_setting           triclinic
_symmetry_space_group_name_H-M   'P 1'
_symmetry_Int_Tables_number      1
_space_group_name_Hall           'P 1'
loop_
_symmetry_equiv_pos_site_id
_symmetry_equiv_pos_as_xyz
1 x,y,z
_cell_length_a                   17.9892(13)
_cell_length_b                   17.989
_cell_length_c                   24.2893(17)
_cell_angle_alpha                90
_cell_angle_beta                 90
_cell_angle_gamma                90
_cell_volume                     7860.2
loop_
_atom_site_label
_atom_site_type_symbol
_atom_site_fract_x
_atom_site_fract_y
_atom_site_fract_z
Cu1 Cu 0.55851(3) 0.62016(3) 0.64768(2)
Cu2 Cu 0.37590(3) 0.58473(4) 0.62124(3)
Cu3 Cu 0.46910(3) 0.49021(3) 0.71604(3)
Cu4 Cu 0.08844(4) 0.44280(4) 0.37275(3)
Cu5 Cu 0.06864(4) 0.62557(4) 0.38767(3)
S1 S 0.48669(11) 0.42684(11) 0.58065(8)
S3 S 0.32811(9) 0.71759(9) 0.71946(8)
O1 O 0.4595(2) 0.58592(19) 0.67433(15)
H1 H 0.444988 0.622642 0.702127
O2 O 0.1123(2) 0.4594(2) 0.73676(19)
O3 O 0.2908(2) 0.5867(2) 0.56673(17)
O4 O 0.0709(2) 0.5405(2) 0.33484(14)
H2 H 0.113860 0.548795 0.310764
N1 N 0.5077(3) 0.6622(3) 0.58131(19)
O5 O 0.5431(3) 0.8018(3) 0.44799(19)
O6 O 0.0237(2) 0.8951(2) 0.25614(18)
N2 N 0.4329(2) 0.6507(3) 0.57135(19)
N3 N 0.5699(3) 0.5166(3) 0.7380(2)
N5 N 0.6054(3) 0.5724(3) 0.7103(2)
N6 N 0.6555(3) 0.6260(3) 0.60626(19)
N7 N 0.0287(3) 0.3950(3) 0.3146(2)
O8 O 0.5409(4) 0.4127(5) 0.5386(3)
N8 N 0.3621(3) 0.4765(3) 0.7076(2)
O9 O 0.7968(3) 0.5615(3) 0.8163(2)
N9 N 0.0188(3) 0.6837(3) 0.3302(2)
N10 N 0.1286(3) 0.5694(3) 0.4393(2)
N12 N 0.3223(2) 0.5168(3) 0.6699(2)
C1 C 0.6708(3) 0.5824(4) 0.7348(3)
H3 H 0.705745 0.617782 0.724433
N13 N 0.1438(3) 0.4973(3) 0.4296(2)
O12 O 0.3938(3) 0.6860(3) 0.7427(2)
C2 C 0.5320(3) 0.7075(4) 0.5428(3)
H4 H 0.580764 0.724359 0.540260
O13 O 0.4291(3) 0.4799(4) 0.5666(3)
C3 C 0.7024(4) 0.6849(5) 0.6117(3)
H5 H 0.693025 0.720472 0.638661
O14 O 0.3207(4) 0.7953(3) 0.7212(3)
C4 C 0.4836(4) 0.7714(4) 0.4603(3)
H6 H 0.442466 0.778781 0.437777
C5 C 0.4150(4) 0.6869(4) 0.5266(3)
H7 H 0.368212 0.686335 0.510265
O15 O 0.3115(3) 0.6837(3) 0.6665(2)
O16 O 0.5158(3) 0.4362(4) 0.6341(2)
C6 C 0.0193(4) 0.3231(4) 0.3039(3)
H8 H 0.038807 0.284026 0.324351
C7 C 0.6796(4) 0.5327(4) 0.7782(2)
C8 C 0.4764(4) 0.7266(4) 0.5066(2)
C9 C 0.1756(3) 0.4368(3) 0.7508(3)
H9 H 0.179214 0.405898 0.781355
C10 C 0.7389(4) 0.5241(5) 0.8150(4)
H10 H 0.734347 0.486611 0.841210
F1 F 0.2591(7) 0.6178(4) 0.7744(3)
C16 C 0.0253(4) 0.7552(3) 0.3198(3)
H14 H 0.047121 0.789975 0.343075
C17 C 0.1730(4) 0.5936(4) 0.4791(3)
H15 H 0.174757 0.641814 0.492806
C18 C 0.2497(3) 0.5049(3) 0.6767(2)
H16 H 0.211688 0.524826 0.655329
C19 C 0.6728(5) 0.5771(5) 0.5690(4)
H17 H 0.639710 0.537930 0.563945
C20 C 0.2408(4) 0.4557(3) 0.7229(3)
C21 C 0.6126(4) 0.4946(4) 0.7776(3)
H18 H 0.599935 0.457631 0.802668
C22 C 0.3137(3) 0.4407(3) 0.7390(3)
H19 H 0.326646 0.409712 0.768120
C24 C 0.2723(4) 0.5337(4) 0.5394(3)
H21 H 0.296066 0.488810 0.546454
C25 C 0.1934(4) 0.4749(4) 0.4659(3)
H22 H 0.210227 0.426334 0.469897
N14 N 0.1082(4) 0.3442(3) 0.4087(2)
C26 C 0.1673(6) 0.3052(5) 0.3952(5)
H23 H 0.199122 0.324008 0.368440
F2 F 0.4785(10) 0.2848(4) 0.6007(6)
F3 F 0.4057(5) 0.3206(6) 0.5413(4)
C27 C 0.2164(3) 0.5341(4) 0.4967(2)
F4 F 0.3827(7) 0.3467(5) 0.6219(5)
F5 F 0.1925(4) 0.6853(10) 0.7364(7)
F6 F 0.2487(8) 0.7150(6) 0.8087(4)
C28 C 0.7332(6) 0.5776(6) 0.5372(5)
H24 H 0.742204 0.539261 0.512379
C29 C 0.7625(5) 0.6927(7) 0.5784(4)
H25 H 0.791113 0.735706 0.579717
C30 C 0.7809(5) 0.6349(8) 0.5419(5)
H26 H 0.824705 0.636289 0.521592
C31 C 0.2549(5) 0.6860(7) 0.7641(5)
C32 C 0.4347(8) 0.3409(8) 0.5864(7)
C33 C 0.0793(12) 0.2596(12) 0.4814(7)
H27 H 0.050226 0.246305 0.511520
C34 C 0.1841(11) 0.2377(9) 0.4190(8)
H28 H 0.220799 0.208668 0.402717
C35 C 0.1515(18) 0.2123(11) 0.4630(8)
H29 H 0.168206 0.170717 0.482062
C37 C 0.0635(8) 0.3212(6) 0.4493(5)
H30 H 0.020158 0.347642 0.456293
C38 C 0.2944(5) 0.7397(7) 0.3791(4)
F10 F 0.3542(6) 0.7721(10) 0.3578(7)
F11 F 0.3174(6) 0.6803(9) 0.4070(6)
F12 F 0.2637(11) 0.7862(9) 0.4148(5)
S4 S 0.2288(4) 0.7131(4) 0.3254(3)
O18 O 0.2077(6) 0.7827(6) 0.3008(5)
O19 O 0.2722(9) 0.6650(8) 0.2908(5)
O20 O 0.1703(5) 0.6764(7) 0.3557(5)
Cu8 Cu 0.03090(3) 0.99021(3) 0.21604(3)
Cu9 Cu 0.91156(4) 0.55720(4) 0.87275(3)
Cu10 Cu 0.56864(4) 0.87443(4) 0.38767(3)
Cu11 Cu 0.01920(4) 0.45772(4) 0.78621(3)
O22 O 0.0431(3) 0.6982(3) 0.44799(19)
O23 O 0.4763(2) 0.3951(2) 0.75614(18)
O24 O 0.5677(3) 0.7374(3) 0.6864(2)
O25 O 0.2032(3) 0.4385(3) 0.3163(2)
Cu6 Cu 0.98080(4) 0.54228(4) 0.28621(3)
S2 S 0.91209(11) 0.51073(12) 0.42286(10)
N4 N 0.9832(3) 0.6500(2) 0.2866(2)
O7 O 0.9323(3) 0.2374(3) 0.1864(2)
O10 O 0.9762(3) 0.4649(5) 0.4305(3)
N11 N 0.9877(3) 0.4357(3) 0.2778(2)
O11 O 0.8895(4) 0.5516(6) 0.4693(4)
C11 C 0.9682(4) 0.7003(4) 0.2489(3)
H11 H 0.944745 0.691774 0.215391
C12 C 0.9564(4) 0.3888(3) 0.2420(3)
H12 H 0.926811 0.402065 0.212203
C13 C 0.9944(4) 0.7705(3) 0.2687(3)
C14 C 0.9917(4) 0.8384(4) 0.2394(3)
H13 H 0.965214 0.840572 0.206527
C15 C 0.9757(3) 0.3162(4) 0.2571(3)
C23 C 0.9573(4) 0.2462(4) 0.2308(3)
H20 H 0.966225 0.203363 0.251199
O17 O 0.9086(6) 0.5474(6) 0.3706(4)
F7 F 0.7765(5) 0.4722(11) 0.4077(7)
F8 F 0.8552(8) 0.4011(11) 0.3726(7)
F9 F 0.8283(10) 0.4068(8) 0.4586(7)
C36 C 0.8383(8) 0.4483(12) 0.4139(7)
Cu7 Cu 0.94149(3) 0.12016(3) 0.14768(2)
O21 O 0.8877(2) 0.5406(2) 0.23676(19)
S2_2 S 0.08791(11) 0.48927(12) 0.92286(10)
N4_2 N 0.0168(3) 0.3500(2) 0.7866(2)
O7_2 O 0.0677(3) 0.7626(3) 0.6864(2)
O10_2 O 0.0238(3) 0.5351(5) 0.9305(3)
N11_2 N 0.0123(3) 0.5643(3) 0.7778(2)
O11_2 O 0.1105(4) 0.4484(6) 0.9693(4)
C11_2 C 0.0318(4) 0.2997(4) 0.7489(3)
H11_2 H 0.055255 0.308226 0.715391
C12_2 C 0.0436(4) 0.6112(3) 0.7420(3)
H12_2 H 0.073189 0.597935 0.712203
C13_2 C 0.0056(4) 0.2295(3) 0.7687(3)
C14_2 C 0.0083(4) 0.1616(4) 0.7394(3)
H13_2 H 0.034786 0.159428 0.706527
C15_2 C 0.0243(3) 0.6838(4) 0.7571(3)
C23_2 C 0.0427(4) 0.7538(4) 0.7308(3)
H20_2 H 0.033775 0.796637 0.751199
O17_2 O 0.0914(6) 0.4526(6) 0.8706(4)
F7_2 F 0.2235(5) 0.5278(11) 0.9077(7)
F8_2 F 0.1448(8) 0.5989(11) 0.8726(7)
F9_2 F 0.1717(10) 0.5932(8) 0.9586(7)
C36_2 C 0.1617(8) 0.5517(12) 0.9139(7)
Cu7_2 Cu 0.05851(3) 0.87984(3) 0.64768(2)
Cu1_2 Cu 0.44149(3) 0.37984(3) 0.14768(2)
Cu2_2 Cu 0.62410(3) 0.41527(4) 0.12124(3)
Cu3_2 Cu 0.53090(3) 0.50979(3) 0.21604(3)
S1_2 S 0.51331(11) 0.57316(11) 0.08065(8)
S3_2 S 0.67189(9) 0.28241(9) 0.21946(8)
O1_2 O 0.5405(2) 0.41408(19) 0.17433(15)
H1_2 H 0.555012 0.377358 0.202127
O3_2 O 0.7092(2) 0.4133(2) 0.06673(17)
N1_2 N 0.4923(3) 0.3378(3) 0.08131(19)
N2_2 N 0.5671(2) 0.3493(3) 0.07135(19)
N3_2 N 0.4301(3) 0.4834(3) 0.2380(2)
N5_2 N 0.3946(3) 0.4276(3) 0.2103(2)
N6_2 N 0.3445(3) 0.3740(3) 0.10626(19)
O8_2 O 0.4591(4) 0.5873(5) 0.0386(3)
N8_2 N 0.6379(3) 0.5235(3) 0.2076(2)
N12_2 N 0.6777(2) 0.4832(3) 0.1699(2)
C1_2 C 0.3292(3) 0.4176(4) 0.2348(3)
H3_2 H 0.294255 0.382218 0.224433
O12_2 O 0.6062(3) 0.3140(3) 0.2427(2)
C2_2 C 0.4680(3) 0.2925(4) 0.0428(3)
H4_2 H 0.419236 0.275641 0.040260
O13_2 O 0.5709(3) 0.5201(4) 0.0666(3)
C3_2 C 0.2976(4) 0.3151(5) 0.1117(3)
H5_2 H 0.306975 0.279528 0.138661
O14_2 O 0.6793(4) 0.2047(3) 0.2212(3)
C5_2 C 0.5850(4) 0.3131(4) 0.0266(3)
H7_2 H 0.631788 0.313665 0.010265
O15_2 O 0.6885(3) 0.3163(3) 0.1665(2)
O16_2 O 0.4842(3) 0.5638(4) 0.1341(2)
C7_2 C 0.3204(4) 0.4673(4) 0.2782(2)
C8_2 C 0.5236(4) 0.2734(4) 0.0066(2)
C9_2 C 0.8244(3) 0.5632(3) 0.2508(3)
H9_2 H 0.820786 0.594102 0.281355
C10_2 C 0.2611(4) 0.4759(5) 0.3150(4)
H10_2 H 0.265653 0.513389 0.341210
F1_2 F 0.7409(7) 0.3822(4) 0.2744(3)
C18_2 C 0.7503(3) 0.4951(3) 0.1767(2)
H16_2 H 0.788312 0.475174 0.155329
C19_2 C 0.3272(5) 0.4229(5) 0.0690(4)
H17_2 H 0.360290 0.462070 0.063945
C20_2 C 0.7592(4) 0.5443(3) 0.2229(3)
C21_2 C 0.3874(4) 0.5054(4) 0.2776(3)
H18_2 H 0.400065 0.542369 0.302668
C22_2 C 0.6863(3) 0.5593(3) 0.2390(3)
H19_2 H 0.673354 0.590288 0.268120
C24_2 C 0.7277(4) 0.4663(4) 0.0394(3)
H21_2 H 0.703934 0.511190 0.046454
F2_2 F 0.5215(10) 0.7152(4) 0.1007(6)
F3_2 F 0.5943(5) 0.6794(6) 0.0413(4)
F4_2 F 0.6173(7) 0.6533(5) 0.1219(5)
F5_2 F 0.8075(4) 0.3147(10) 0.2364(7)
F6_2 F 0.7513(8) 0.2850(6) 0.3087(4)
C28_2 C 0.2668(6) 0.4224(6) 0.0372(5)
H24_2 H 0.257796 0.460739 0.012379
C29_2 C 0.2375(5) 0.3073(7) 0.0784(4)
H25_2 H 0.208887 0.264294 0.079717
C30_2 C 0.2191(5) 0.3651(8) 0.0419(5)
H26_2 H 0.175295 0.363711 0.021592
C31_2 C 0.7451(5) 0.3140(7) 0.2641(5)
C32_2 C 0.5653(8) 0.6591(8) 0.0864(7)
H27_2 H 0.949774 0.753695 0.011520
O23_2 O 0.5237(2) 0.6049(2) 0.25614(18)
O24_2 O 0.4323(3) 0.2626(3) 0.1864(2)
Cu5_2 Cu 0.93136(4) 0.37443(4) 0.88767(3)
O4_2 O 0.9291(2) 0.4595(2) 0.83484(14)
H2_2 H 0.886140 0.451205 0.810764
O5_2 O 0.4569(3) 0.1982(3) 0.94799(19)
O6_2 O 0.9763(2) 0.1049(2) 0.75614(18)
N7_2 N 0.9713(3) 0.6050(3) 0.8146(2)
N9_2 N 0.9812(3) 0.3163(3) 0.8302(2)
N10_2 N 0.8714(3) 0.4306(3) 0.9393(2)
N13_2 N 0.8562(3) 0.5027(3) 0.9296(2)
C4_2 C 0.5164(4) 0.2286(4) 0.9603(3)
H6_2 H 0.557534 0.221219 0.937777
C6_2 C 0.9807(4) 0.6769(4) 0.8039(3)
H8_2 H 0.961193 0.715974 0.824351
C16_2 C 0.9747(4) 0.2448(3) 0.8198(3)
H14_2 H 0.952879 0.210025 0.843075
C17_2 C 0.8270(4) 0.4064(4) 0.9791(3)
H15_2 H 0.825243 0.358186 0.992806
C25_2 C 0.8066(4) 0.5251(4) 0.9659(3)
H22_2 H 0.789773 0.573666 0.969897
N14_2 N 0.8918(4) 0.6558(3) 0.9087(2)
C26_2 C 0.8327(6) 0.6948(5) 0.8952(5)
H23_2 H 0.800878 0.675992 0.868440
C27_2 C 0.7836(3) 0.4659(4) 0.9967(2)
C33_2 C 0.9207(12) 0.7404(12) 0.9814(7)
C34_2 C 0.8159(11) 0.7623(9) 0.9190(8)
H28_2 H 0.779201 0.791332 0.902717
C35_2 C 0.8485(18) 0.7877(11) 0.9630(8)
H29_2 H 0.831794 0.829283 0.982062
C37_2 C 0.9365(8) 0.6788(6) 0.9493(5)
H30_2 H 0.979842 0.652358 0.956293
C38_2 C 0.7056(5) 0.2603(7) 0.8791(4)
F10_2 F 0.6458(6) 0.2279(10) 0.8578(7)
F11_2 F 0.6826(6) 0.3197(9) 0.9070(6)
F12_2 F 0.7363(11) 0.2138(9) 0.9148(5)
S4_2 S 0.7712(4) 0.2869(4) 0.8254(3)
O18_2 O 0.7923(6) 0.2173(6) 0.8008(5)
O19_2 O 0.7278(9) 0.3350(8) 0.7908(5)
O20_2 O 0.8297(5) 0.3236(7) 0.8557(5)
Cu8_2 Cu 0.96910(3) 0.00979(3) 0.71604(3)
Cu10_2 Cu 0.43136(4) 0.12557(4) 0.88767(3)
O22_2 O 0.9569(3) 0.3018(3) 0.94799(19)
N1_3 N 0.0077(3) 0.8378(3) 0.58131(19)
N3_3 N 0.0699(3) 0.9834(3) 0.7380(2)
N5_3 N 0.1054(3) 0.9276(3) 0.7103(2)
N6_3 N 0.1555(3) 0.8740(3) 0.60626(19)
O9_2 O 0.2968(3) 0.9385(3) 0.8163(2)
C1_3 C 0.1708(3) 0.9176(4) 0.7348(3)
H3_3 H 0.205745 0.882218 0.724433
C2_3 C 0.0320(3) 0.7925(4) 0.5428(3)
H4_3 H 0.080764 0.775641 0.540260
C3_3 C 0.2024(4) 0.8151(5) 0.6117(3)
H5_3 H 0.193025 0.779528 0.638661
C7_3 C 0.1796(4) 0.9673(4) 0.7782(2)
C10_3 C 0.2389(4) 0.9759(5) 0.8150(4)
C19_3 C 0.1728(5) 0.9229(5) 0.5690(4)
H17_3 H 0.139710 0.962070 0.563945
C28_3 C 0.2332(6) 0.9224(6) 0.5372(5)
H24_3 H 0.242204 0.960739 0.512379
C29_3 C 0.2625(5) 0.8073(7) 0.5784(4)
H25_3 H 0.291113 0.764294 0.579717
C30_3 C 0.2809(5) 0.8651(8) 0.5419(5)
H26_3 H 0.324705 0.863711 0.521592
Cu9_2 Cu 0.41156(4) 0.94280(4) 0.87275(3)
Cu4_2 Cu 0.58844(4) 0.05720(4) 0.37275(3)
S1_3 S 0.98669(11) 0.07316(11) 0.58065(8)
O2_2 O 0.6123(2) 0.0406(2) 0.73676(19)
N7_3 N 0.5287(3) 0.1050(3) 0.3146(2)
N8_3 N 0.8621(3) 0.0235(3) 0.7076(2)
O10_3 O 0.4762(3) 0.0351(5) 0.4305(3)
N11_3 N 0.4877(3) 0.0643(3) 0.2778(2)
N13_3 N 0.6438(3) 0.0027(3) 0.4296(2)
O13_3 O 0.9291(3) 0.0201(4) 0.5666(3)
C6_3 C 0.5193(4) 0.1769(4) 0.3039(3)
H8_3 H 0.538807 0.215974 0.324351
C9_3 C 0.6756(3) 0.0632(3) 0.7508(3)
H9_3 H 0.679214 0.094102 0.781355
C12_3 C 0.4564(4) 0.1112(3) 0.2420(3)
H12_3 H 0.426811 0.097935 0.212203
C15_3 C 0.4757(3) 0.1838(4) 0.2571(3)
C20_3 C 0.7408(4) 0.0443(3) 0.7229(3)
C22_3 C 0.8137(3) 0.0593(3) 0.7390(3)
H19_3 H 0.826646 0.090288 0.768120
C23_3 C 0.4573(4) 0.2538(4) 0.2308(3)
H20_3 H 0.466225 0.296637 0.251199
H21_3 H 0.796066 0.011190 0.546454
C25_3 C 0.6934(4) 0.0251(4) 0.4659(3)
H22_3 H 0.710227 0.073666 0.469897
N14_3 N 0.6082(4) 0.1558(3) 0.4087(2)
C26_3 C 0.6673(6) 0.1948(5) 0.3952(5)
H23_3 H 0.699122 0.175992 0.368440
F2_3 F 0.9785(10) 0.2152(4) 0.6007(6)
F3_3 F 0.9057(5) 0.1794(6) 0.5413(4)
F4_3 F 0.8827(7) 0.1533(5) 0.6219(5)
C32_3 C 0.9347(8) 0.1591(8) 0.5864(7)
F7_3 F 0.2765(5) 0.0278(11) 0.4077(7)
C33_3 C 0.5793(12) 0.2404(12) 0.4814(7)
H27_3 H 0.550226 0.253695 0.511520
F8_3 F 0.3552(8) 0.0989(11) 0.3726(7)
F9_3 F 0.3283(10) 0.0932(8) 0.4586(7)
C34_3 C 0.6841(11) 0.2623(9) 0.4190(8)
H28_3 H 0.720799 0.291332 0.402717
C35_3 C 0.6515(18) 0.2877(11) 0.4630(8)
H29_3 H 0.668206 0.329283 0.482062
C36_3 C 0.3383(8) 0.0517(12) 0.4139(7)
C37_3 C 0.5635(8) 0.1788(6) 0.4493(5)
H30_3 H 0.520158 0.152358 0.456293
Cu11_2 Cu 0.51920(4) 0.04228(4) 0.78621(3)
O25_2 O 0.7032(3) 0.0615(3) 0.3163(2)
Cu2_3 Cu 0.87590(3) 0.91527(4) 0.62124(3)
Cu6_2 Cu 0.48080(4) 0.95772(4) 0.28621(3)
S2_3 S 0.41209(11) 0.98927(12) 0.42286(10)
S3_3 S 0.82811(9) 0.78241(9) 0.71946(8)
O1_3 O 0.9595(2) 0.91408(19) 0.67433(15)
H1_3 H 0.944988 0.877358 0.702127
O3_3 O 0.7908(2) 0.9133(2) 0.56673(17)
O4_3 O 0.5709(2) 0.9595(2) 0.33484(14)
H2_3 H 0.613860 0.951205 0.310764
N2_3 N 0.9329(2) 0.8493(3) 0.57135(19)
N4_3 N 0.4832(3) 0.8500(2) 0.2866(2)
N9_3 N 0.5188(3) 0.8163(3) 0.3302(2)
N10_3 N 0.6286(3) 0.9306(3) 0.4393(2)
N12_3 N 0.8223(2) 0.9832(3) 0.6699(2)
O11_3 O 0.3895(4) 0.9484(6) 0.4693(4)
O12_3 O 0.8938(3) 0.8140(3) 0.7427(2)
O14_3 O 0.8207(4) 0.7047(3) 0.7212(3)
C4_3 C 0.9836(4) 0.7286(4) 0.4603(3)
H6_3 H 0.942466 0.721219 0.437777
C5_3 C 0.9150(4) 0.8131(4) 0.5266(3)
H7_3 H 0.868212 0.813665 0.510265
O15_3 O 0.8115(3) 0.8163(3) 0.6665(2)
C8_3 C 0.9764(4) 0.7734(4) 0.5066(2)
C11_3 C 0.4682(4) 0.7997(4) 0.2489(3)
H11_3 H 0.444745 0.808226 0.215391
F1_3 F 0.7591(7) 0.8822(4) 0.7744(3)
C13_3 C 0.4944(4) 0.7295(3) 0.2687(3)
C14_3 C 0.4917(4) 0.6616(4) 0.2394(3)
H13_3 H 0.465214 0.659428 0.206527
C16_3 C 0.5253(4) 0.7448(3) 0.3198(3)
H14_3 H 0.547121 0.710025 0.343075
C17_3 C 0.6730(4) 0.9064(4) 0.4791(3)
H15_3 H 0.674757 0.858186 0.492806
C18_3 C 0.7497(3) 0.9951(3) 0.6767(2)
H16_3 H 0.711688 0.975174 0.655329
C24_3 C 0.7723(4) 0.9663(4) 0.5394(3)
C27_3 C 0.7164(3) 0.9659(4) 0.4967(2)
F5_3 F 0.6925(4) 0.8147(10) 0.7364(7)
F6_3 F 0.7487(8) 0.7850(6) 0.8087(4)
O17_3 O 0.4086(6) 0.9526(6) 0.3706(4)
C31_3 C 0.7549(5) 0.8140(7) 0.7641(5)
C38_3 C 0.7944(5) 0.7603(7) 0.3791(4)
F10_3 F 0.8542(6) 0.7279(10) 0.3578(7)
F11_3 F 0.8174(6) 0.8197(9) 0.4070(6)
F12_3 F 0.7637(11) 0.7138(9) 0.4148(5)
S4_3 S 0.7288(4) 0.7869(4) 0.3254(3)
O18_3 O 0.7077(6) 0.7173(6) 0.3008(5)
O19_3 O 0.7722(9) 0.8350(8) 0.2908(5)
O20_3 O 0.6703(5) 0.8236(7) 0.3557(5)
O21_2 O 0.3877(2) 0.9594(2) 0.23676(19)
S2_4 S 0.58791(11) 0.01073(12) 0.92286(10)
O4_4 O 0.4291(2) 0.0405(2) 0.83484(14)
H2_4 H 0.386140 0.048795 0.810764
N4_4 N 0.5168(3) 0.1500(2) 0.7866(2)
N9_4 N 0.4812(3) 0.1837(3) 0.8302(2)
N10_4 N 0.3714(3) 0.0694(3) 0.9393(2)
O11_4 O 0.6105(4) 0.0516(6) 0.9693(4)
C4_4 C 0.0164(4) 0.2714(4) 0.9603(3)
H6_4 H 0.057534 0.278781 0.937777
C11_4 C 0.5318(4) 0.2003(4) 0.7489(3)
H11_4 H 0.555255 0.191774 0.715391
C13_4 C 0.5056(4) 0.2705(3) 0.7687(3)
C14_4 C 0.5083(4) 0.3384(4) 0.7394(3)
H13_4 H 0.534786 0.340572 0.706527
C16_4 C 0.4747(4) 0.2552(3) 0.8198(3)
H14_4 H 0.452879 0.289975 0.843075
C17_4 C 0.3270(4) 0.0936(4) 0.9791(3)
H15_4 H 0.325243 0.141814 0.992806
C27_4 C 0.2836(3) 0.0341(4) 0.9967(2)
O17_4 O 0.5914(6) 0.0474(6) 0.8706(4)
C38_4 C 0.2056(5) 0.2397(7) 0.8791(4)
F10_4 F 0.1458(6) 0.2721(10) 0.8578(7)
F11_4 F 0.1826(6) 0.1803(9) 0.9070(6)
F12_4 F 0.2363(11) 0.2862(9) 0.9148(5)
S4_4 S 0.2712(4) 0.2131(4) 0.8254(3)
O18_4 O 0.2923(6) 0.2827(6) 0.8008(5)
O19_4 O 0.2278(9) 0.1650(8) 0.7908(5)
O20_4 O 0.3297(5) 0.1764(7) 0.8557(5)
S1_4 S 0.01331(11) 0.92684(11) 0.08065(8)
N8_4 N 0.1379(3) 0.9765(3) 0.2076(2)
O13_4 O 0.0709(3) 0.9799(4) 0.0666(3)
C9_4 C 0.3244(3) 0.9368(3) 0.2508(3)
H9_4 H 0.320786 0.905898 0.281355
C20_4 C 0.2592(4) 0.9557(3) 0.2229(3)
C22_4 C 0.1863(3) 0.9407(3) 0.2390(3)
H19_4 H 0.173354 0.909712 0.268120
H21_4 H 0.203934 0.988810 0.046454
F2_4 F 0.0215(10) 0.7848(4) 0.1007(6)
F3_4 F 0.0943(5) 0.8206(6) 0.0413(4)
F4_4 F 0.1173(7) 0.8467(5) 0.1219(5)
C32_4 C 0.0653(8) 0.8409(8) 0.0864(7)
H27_4 H 0.449774 0.746305 0.011520
N7_4 N 0.4713(3) 0.8950(3) 0.8146(2)
O10_4 O 0.5238(3) 0.9649(5) 0.9305(3)
N11_4 N 0.5123(3) 0.9357(3) 0.7778(2)
N13_4 N 0.3562(3) 0.9973(3) 0.9296(2)
C6_4 C 0.4807(4) 0.8231(4) 0.8039(3)
H8_4 H 0.461193 0.784026 0.824351
C12_4 C 0.5436(4) 0.8888(3) 0.7420(3)
H12_4 H 0.573189 0.902065 0.712203
C15_4 C 0.5243(3) 0.8162(4) 0.7571(3)
C23_4 C 0.5427(4) 0.7462(4) 0.7308(3)
H20_4 H 0.533775 0.703363 0.751199
C25_4 C 0.3066(4) 0.9749(4) 0.9659(3)
H22_4 H 0.289773 0.926334 0.969897
N14_4 N 0.3918(4) 0.8442(3) 0.9087(2)
C26_4 C 0.3327(6) 0.8052(5) 0.8952(5)
H23_4 H 0.300878 0.824008 0.868440
F7_4 F 0.7235(5) 0.9722(11) 0.9077(7)
C33_4 C 0.4207(12) 0.7596(12) 0.9814(7)
F8_4 F 0.6448(8) 0.9011(11) 0.8726(7)
F9_4 F 0.6717(10) 0.9068(8) 0.9586(7)
C34_4 C 0.3159(11) 0.7377(9) 0.9190(8)
H28_4 H 0.279201 0.708668 0.902717
C35_4 C 0.3485(18) 0.7123(11) 0.9630(8)
H29_4 H 0.331794 0.670717 0.982062
C36_4 C 0.6617(8) 0.9483(12) 0.9139(7)
C37_4 C 0.4365(8) 0.8212(6) 0.9493(5)
H30_4 H 0.479842 0.847642 0.956293
N1_4 N 0.9923(3) 0.1622(3) 0.08131(19)
N3_4 N 0.9301(3) 0.0166(3) 0.2380(2)
N5_4 N 0.8946(3) 0.0724(3) 0.2103(2)
N6_4 N 0.8445(3) 0.1260(3) 0.10626(19)
C1_4 C 0.8292(3) 0.0824(4) 0.2348(3)
H3_4 H 0.794255 0.117782 0.224433
C2_4 C 0.9680(3) 0.2075(4) 0.0428(3)
H4_4 H 0.919236 0.224359 0.040260
C3_4 C 0.7976(4) 0.1849(5) 0.1117(3)
H5_4 H 0.806975 0.220472 0.138661
C7_4 C 0.8204(4) 0.0327(4) 0.2782(2)
C10_4 C 0.7611(4) 0.0241(5) 0.3150(4)
C19_4 C 0.8272(5) 0.0771(5) 0.0690(4)
H17_4 H 0.860290 0.037930 0.063945
C28_4 C 0.7668(6) 0.0776(6) 0.0372(5)
H24_4 H 0.757796 0.039261 0.012379
C29_4 C 0.7375(5) 0.1927(7) 0.0784(4)
H25_4 H 0.708887 0.235706 0.079717
C30_4 C 0.7191(5) 0.1349(8) 0.0419(5)
H26_4 H 0.675295 0.136289 0.021592
O8_3 O 0.0409(4) 0.0873(5) 0.5386(3)
O16_3 O 0.0158(3) 0.0638(4) 0.6341(2)
H10_3 H 0.234347 0.013389 0.841210
C21_3 C 0.1126(4) 0.0054(4) 0.7776(3)
H18_3 H 0.099935 0.042369 0.802668
Cu2_4 Cu 0.12410(3) 0.08473(4) 0.12124(3)
S3_4 S 0.17189(9) 0.21759(9) 0.21946(8)
O1_4 O 0.0405(2) 0.08592(19) 0.17433(15)
H1_4 H 0.055012 0.122642 0.202127
O3_4 O 0.2092(2) 0.0867(2) 0.06673(17)
N2_4 N 0.0671(2) 0.1507(3) 0.07135(19)
N12_4 N 0.1777(2) 0.0168(3) 0.1699(2)
O12_4 O 0.1062(3) 0.1860(3) 0.2427(2)
O14_4 O 0.1793(4) 0.2953(3) 0.2212(3)
C5_4 C 0.0850(4) 0.1869(4) 0.0266(3)
H7_4 H 0.131788 0.186335 0.010265
O15_4 O 0.1885(3) 0.1837(3) 0.1665(2)
C8_4 C 0.0236(4) 0.2266(4) 0.0066(2)
F1_4 F 0.2409(7) 0.1178(4) 0.2744(3)
C18_4 C 0.2503(3) 0.0049(3) 0.1767(2)
H16_4 H 0.288312 0.024826 0.155329
C24_4 C 0.2277(4) 0.0337(4) 0.0394(3)
F5_4 F 0.3075(4) 0.1853(10) 0.2364(7)
F6_4 F 0.2513(8) 0.2150(6) 0.3087(4)
C31_4 C 0.2451(5) 0.1860(7) 0.2641(5)
O8_4 O 0.9591(4) 0.9127(5) 0.0386(3)
O16_4 O 0.9842(3) 0.9362(4) 0.1341(2)
H10_4 H 0.765653 0.986611 0.341210
C21_4 C 0.8874(4) 0.9946(4) 0.2776(3)
H18_4 H 0.900065 0.957631 0.302668
loop_
_geom_bond_atom_site_label_1
_geom_bond_atom_site_label_2
_geom_bond_site_symmetry_1
_geom_bond_site_symmetry_2
Cu1 O1 1_555 1_555
Cu2 O1 1_555 1_555
Cu3 O1 1_555 1_555
Cu4 O4 1_555 1_555
Cu5 O4 1_555 1_555
S1 O8 1_555 1_555
S3 O12 1_555 1_555
O1 H1 1_555 1_555
O2 C9 1_555 1_555
O3 Cu2 1_555 1_555
O4 H2 1_555 1_555
N1 Cu1 1_555 1_555
O5 C4 1_555 1_555
N2 Cu2 1_555 1_555
N3 Cu3 1_555 1_555
N5 Cu1 1_555 1_555
N6 Cu1 1_555 1_555
N7 Cu4 1_555 1_555
N8 Cu3 1_555 1_555
O9 C10 1_555 1_555
N9 Cu5 1_555 1_555
N10 Cu5 1_555 1_555
N12 Cu2 1_555 1_555
C1 N5 1_555 1_555
H3 C1 1_555 1_555
N13 Cu4 1_555 1_555
C2 N1 1_555 1_555
H4 C2 1_555 1_555
O13 Cu2 1_555 1_555
C3 N6 1_555 1_555
H5 C3 1_555 1_555
O14 S3 1_555 1_555
C4 H6 1_555 1_555
C5 N2 1_555 1_555
H7 C5 1_555 1_555
O15 Cu2 1_555 1_555
O16 Cu3 1_555 1_555
C6 N7 1_555 1_555
H8 C6 1_555 1_555
C7 C1 1_555 1_555
C8 C2 1_555 1_555
C9 H9 1_555 1_555
C10 C7 1_555 1_555
H10 C10 1_555 1_555
F1 C31 1_555 1_555
C16 N9 1_555 1_555
H14 C16 1_555 1_555
C17 N10 1_555 1_555
H15 C17 1_555 1_555
C18 N12 1_555 1_555
H16 C18 1_555 1_555
C19 N6 1_555 1_555
H17 C19 1_555 1_555
C20 C9 1_555 1_555
C21 N3 1_555 1_555
H18 C21 1_555 1_555
C22 N8 1_555 1_555
H19 C22 1_555 1_555
C24 O3 1_555 1_555
H21 C24 1_555 1_555
C25 N13 1_555 1_555
H22 C25 1_555 1_555
N14 Cu4 1_555 1_555
C26 N14 1_555 1_555
H23 C26 1_555 1_555
F2 C32 1_555 1_555
F3 C32 1_555 1_555
C27 C17 1_555 1_555
F4 C32 1_555 1_555
F5 C31 1_555 1_555
F6 C31 1_555 1_555
C28 C19 1_555 1_555
H24 C28 1_555 1_555
C29 C3 1_555 1_555
H25 C29 1_555 1_555
C30 C28 1_555 1_555
H26 C30 1_555 1_555
C31 S3 1_555 1_555
C32 S1 1_555 1_555
C33 H27 1_555 1_555
C34 C26 1_555 1_555
H28 C34 1_555 1_555
C35 C33 1_555 1_555
H29 C35 1_555 1_555
C37 N14 1_555 1_555
H30 C37 1_555 1_555
C38 F10 1_555 1_555
F11 C38 1_555 1_555
F12 C38 1_555 1_555
S4 C38 1_555 1_555
O18 S4 1_555 1_555
O19 S4 1_555 1_555
O20 Cu5 1_555 1_555
Cu8 O6 1_555 1_555
Cu9 O9 1_555 1_555
Cu10 O5 1_555 1_555
Cu11 O2 1_555 1_555
O22 Cu5 1_555 1_555
O23 Cu3 1_555 1_555
O24 Cu1 1_555 1_555
O25 Cu4 1_555 1_555
S1 O13 1_555 1_555
S1 O16 1_555 1_555
S3 O15 1_555 1_555
N1 N2 1_555 1_555
N3 N5 1_555 1_555
N8 N12 1_555 1_555
N10 N13 1_555 1_555
C4 C8 1_555 1_555
C5 C8 1_555 1_555
C7 C21 1_555 1_555
C18 C20 1_555 1_555
C20 C22 1_555 1_555
C24 C27 1_555 1_555
C25 C27 1_555 1_555
C29 C30 1_555 1_555
C33 C37 1_555 1_555
C34 C35 1_555 1_555
S4 O20 1_555 1_555
S2 O10 1_555 1_555
N4 Cu6 1_555 1_555
O7 C23 1_555 1_555
N11 Cu6 1_555 1_555
O11 S2 1_555 1_555
C11 N4 1_555 1_555
H11 C11 1_555 1_555
C12 N11 1_555 1_555
H12 C12 1_555 1_555
C13 C11 1_555 1_555
C14 C13 1_555 1_555
H13 C14 1_555 1_555
C23 C15 1_555 1_555
H20 C23 1_555 1_555
O17 Cu6 1_555 1_555
F7 C36 1_555 1_555
F8 C36 1_555 1_555
F9 C36 1_555 1_555
C36 S2 1_555 1_555
Cu7 O7 1_555 1_555
O21 Cu6 1_555 1_555
S2 O17 1_555 1_555
C12 C15 1_555 1_555
S2_2 O10_2 1_555 1_555
N4_2 Cu11 1_555 1_555
O7_2 C23_2 1_555 1_555
N11_2 Cu11 1_555 1_555
O11_2 S2_2 1_555 1_555
C11_2 N4_2 1_555 1_555
H11_2 C11_2 1_555 1_555
C12_2 N11_2 1_555 1_555
H12_2 C12_2 1_555 1_555
C13_2 C11_2 1_555 1_555
C14_2 C13_2 1_555 1_555
H13_2 C14_2 1_555 1_555
C23_2 C15_2 1_555 1_555
H20_2 C23_2 1_555 1_555
O17_2 Cu11 1_555 1_555
F7_2 C36_2 1_555 1_555
F8_2 C36_2 1_555 1_555
F9_2 C36_2 1_555 1_555
C36_2 S2_2 1_555 1_555
Cu7_2 O7_2 1_555 1_555
S2_2 O17_2 1_555 1_555
C12_2 C15_2 1_555 1_555
Cu1_2 O1_2 1_555 1_555
Cu2_2 O1_2 1_555 1_555
Cu3_2 O1_2 1_555 1_555
S1_2 O8_2 1_555 1_555
S3_2 O12_2 1_555 1_555
O1_2 H1_2 1_555 1_555
O21 C9_2 1_555 1_555
O3_2 Cu2_2 1_555 1_555
N1_2 Cu1_2 1_555 1_555
N2_2 Cu2_2 1_555 1_555
N3_2 Cu3_2 1_555 1_555
N5_2 Cu1_2 1_555 1_555
N6_2 Cu1_2 1_555 1_555
N8_2 Cu3_2 1_555 1_555
O25 C10_2 1_555 1_555
N12_2 Cu2_2 1_555 1_555
C1_2 N5_2 1_555 1_555
H3_2 C1_2 1_555 1_555
C2_2 N1_2 1_555 1_555
H4_2 C2_2 1_555 1_555
O13_2 Cu2_2 1_555 1_555
C3_2 N6_2 1_555 1_555
H5_2 C3_2 1_555 1_555
O14_2 S3_2 1_555 1_555
C5_2 N2_2 1_555 1_555
H7_2 C5_2 1_555 1_555
O15_2 Cu2_2 1_555 1_555
O16_2 Cu3_2 1_555 1_555
C7_2 C1_2 1_555 1_555
C8_2 C2_2 1_555 1_555
C9_2 H9_2 1_555 1_555
C10_2 C7_2 1_555 1_555
H10_2 C10_2 1_555 1_555
F1_2 C31_2 1_555 1_555
C18_2 N12_2 1_555 1_555
H16_2 C18_2 1_555 1_555
C19_2 N6_2 1_555 1_555
H17_2 C19_2 1_555 1_555
C20_2 C9_2 1_555 1_555
C21_2 N3_2 1_555 1_555
H18_2 C21_2 1_555 1_555
C22_2 N8_2 1_555 1_555
H19_2 C22_2 1_555 1_555
C24_2 O3_2 1_555 1_555
H21_2 C24_2 1_555 1_555
F2_2 C32_2 1_555 1_555
F3_2 C32_2 1_555 1_555
F4_2 C32_2 1_555 1_555
F5_2 C31_2 1_555 1_555
F6_2 C31_2 1_555 1_555
C28_2 C19_2 1_555 1_555
H24_2 C28_2 1_555 1_555
C29_2 C3_2 1_555 1_555
H25_2 C29_2 1_555 1_555
C30_2 C28_2 1_555 1_555
H26_2 C30_2 1_555 1_555
C31_2 S3_2 1_555 1_555
C32_2 S1_2 1_555 1_555
O23_2 Cu3_2 1_555 1_555
O24_2 Cu1_2 1_555 1_555
S1_2 O13_2 1_555 1_555
S1_2 O16_2 1_555 1_555
S3_2 O15_2 1_555 1_555
N1_2 N2_2 1_555 1_555
N3_2 N5_2 1_555 1_555
N8_2 N12_2 1_555 1_555
C5_2 C8_2 1_555 1_555
C7_2 C21_2 1_555 1_555
C18_2 C20_2 1_555 1_555
C20_2 C22_2 1_555 1_555
C29_2 C30_2 1_555 1_555
Cu9 O4_2 1_555 1_555
Cu5_2 O4_2 1_555 1_555
O4_2 H2_2 1_555 1_555
O5_2 C4_2 1_555 1_555
N7_2 Cu9 1_555 1_555
N9_2 Cu5_2 1_555 1_555
N10_2 Cu5_2 1_555 1_555
N13_2 Cu9 1_555 1_555
C4_2 H6_2 1_555 1_555
C6_2 N7_2 1_555 1_555
H8_2 C6_2 1_555 1_555
C16_2 N9_2 1_555 1_555
H14_2 C16_2 1_555 1_555
C17_2 N10_2 1_555 1_555
H15_2 C17_2 1_555 1_555
C25_2 N13_2 1_555 1_555
H22_2 C25_2 1_555 1_555
N14_2 Cu9 1_555 1_555
C26_2 N14_2 1_555 1_555
H23_2 C26_2 1_555 1_555
C27_2 C17_2 1_555 1_555
C34_2 C26_2 1_555 1_555
H28_2 C34_2 1_555 1_555
C35_2 C33_2 1_555 1_555
H29_2 C35_2 1_555 1_555
C37_2 N14_2 1_555 1_555
H30_2 C37_2 1_555 1_555
C38_2 F10_2 1_555 1_555
F11_2 C38_2 1_555 1_555
F12_2 C38_2 1_555 1_555
S4_2 C38_2 1_555 1_555
O18_2 S4_2 1_555 1_555
O19_2 S4_2 1_555 1_555
O20_2 Cu5_2 1_555 1_555
Cu8_2 O6_2 1_555 1_555
Cu10_2 O5_2 1_555 1_555
O22_2 Cu5_2 1_555 1_555
N10_2 N13_2 1_555 1_555
C25_2 C27_2 1_555 1_555
C33_2 C37_2 1_555 1_555
C34_2 C35_2 1_555 1_555
S4_2 O20_2 1_555 1_555
N1_3 Cu7_2 1_555 1_555
N5_3 Cu7_2 1_555 1_555
N6_3 Cu7_2 1_555 1_555
O9_2 C10_3 1_555 1_555
C1_3 N5_3 1_555 1_555
H3_3 C1_3 1_555 1_555
C2_3 N1_3 1_555 1_555
H4_3 C2_3 1_555 1_555
C3_3 N6_3 1_555 1_555
H5_3 C3_3 1_555 1_555
C7_3 C1_3 1_555 1_555
C10_3 C7_3 1_555 1_555
C19_3 N6_3 1_555 1_555
H17_3 C19_3 1_555 1_555
C28_3 C19_3 1_555 1_555
H24_3 C28_3 1_555 1_555
C29_3 C3_3 1_555 1_555
H25_3 C29_3 1_555 1_555
C30_3 C28_3 1_555 1_555
H26_3 C30_3 1_555 1_555
Cu9_2 O9_2 1_555 1_555
N3_3 N5_3 1_555 1_555
C29_3 C30_3 1_555 1_555
O2_2 C9_3 1_555 1_555
O24_2 C23_3 1_555 1_555
N7_3 Cu4_2 1_555 1_555
N8_3 Cu8_2 1_555 1_555
O10_3 Cu4_2 1_555 1_555
N13_3 Cu4_2 1_555 1_555
C6_3 N7_3 1_555 1_555
H8_3 C6_3 1_555 1_555
C9_3 H9_3 1_555 1_555
C12_3 N11_3 1_555 1_555
H12_3 C12_3 1_555 1_555
C15_3 C6_3 1_555 1_555
C20_3 C9_3 1_555 1_555
C22_3 N8_3 1_555 1_555
H19_3 C22_3 1_555 1_555
C23_3 C15_3 1_555 1_555
H20_3 C23_3 1_555 1_555
C25_3 N13_3 1_555 1_555
H22_3 C25_3 1_555 1_555
N14_3 Cu4_2 1_555 1_555
C26_3 N14_3 1_555 1_555
H23_3 C26_3 1_555 1_555
F2_3 C32_3 1_555 1_555
F3_3 C32_3 1_555 1_555
F4_3 C32_3 1_555 1_555
C32_3 S1_3 1_555 1_555
F7_3 C36_3 1_555 1_555
C33_3 H27_3 1_555 1_555
F8_3 C36_3 1_555 1_555
F9_3 C36_3 1_555 1_555
C34_3 C26_3 1_555 1_555
H28_3 C34_3 1_555 1_555
C35_3 C33_3 1_555 1_555
H29_3 C35_3 1_555 1_555
C37_3 N14_3 1_555 1_555
H30_3 C37_3 1_555 1_555
Cu11_2 O2_2 1_555 1_555
O25_2 Cu4_2 1_555 1_555
S1_3 O13_3 1_555 1_555
N7_3 N11_3 1_555 1_555
C12_3 C15_3 1_555 1_555
C20_3 C22_3 1_555 1_555
C33_3 C37_3 1_555 1_555
C34_3 C35_3 1_555 1_555
Cu2_3 O1_3 1_555 1_555
Cu10 O4_3 1_555 1_555
Cu6_2 O4_3 1_555 1_555
S3_3 O12_3 1_555 1_555
O1_3 H1_3 1_555 1_555
O3_3 Cu2_3 1_555 1_555
O4_3 H2_3 1_555 1_555
O23_2 C14_3 1_555 1_555
N2_3 Cu2_3 1_555 1_555
N4_3 Cu6_2 1_555 1_555
N9_3 Cu10 1_555 1_555
N10_3 Cu10 1_555 1_555
N12_3 Cu2_3 1_555 1_555
O11_3 S2_3 1_555 1_555
O14_3 S3_3 1_555 1_555
C4_3 H6_3 1_555 1_555
C5_3 N2_3 1_555 1_555
H7_3 C5_3 1_555 1_555
O15_3 Cu2_3 1_555 1_555
C11_3 N4_3 1_555 1_555
H11_3 C11_3 1_555 1_555
F1_3 C31_3 1_555 1_555
C13_3 C11_3 1_555 1_555
C14_3 C13_3 1_555 1_555
H13_3 C14_3 1_555 1_555
C16_3 N9_3 1_555 1_555
H14_3 C16_3 1_555 1_555
C17_3 N10_3 1_555 1_555
H15_3 C17_3 1_555 1_555
C18_3 N12_3 1_555 1_555
H16_3 C18_3 1_555 1_555
C24_3 O3_3 1_555 1_555
C27_3 C17_3 1_555 1_555
F5_3 C31_3 1_555 1_555
F6_3 C31_3 1_555 1_555
O17_3 Cu6_2 1_555 1_555
C31_3 S3_3 1_555 1_555
C38_3 F10_3 1_555 1_555
F11_3 C38_3 1_555 1_555
F12_3 C38_3 1_555 1_555
S4_3 C38_3 1_555 1_555
O18_3 S4_3 1_555 1_555
O19_3 S4_3 1_555 1_555
O20_3 Cu10 1_555 1_555
O21_2 Cu6_2 1_555 1_555
S2_3 O17_3 1_555 1_555
S3_3 O15_3 1_555 1_555
N4_3 N9_3 1_555 1_555
C4_3 C8_3 1_555 1_555
C5_3 C8_3 1_555 1_555
C13_3 C16_3 1_555 1_555
C24_3 C27_3 1_555 1_555
S4_3 O20_3 1_555 1_555
Cu10_2 O4_4 1_555 1_555
Cu11_2 O4_4 1_555 1_555
O4_4 H2_4 1_555 1_555
O23 C14_4 1_555 1_555
N4_4 Cu11_2 1_555 1_555
N9_4 Cu10_2 1_555 1_555
N10_4 Cu10_2 1_555 1_555
O11_4 S2_4 1_555 1_555
C4_4 H6_4 1_555 1_555
C11_4 N4_4 1_555 1_555
H11_4 C11_4 1_555 1_555
C13_4 C11_4 1_555 1_555
C14_4 C13_4 1_555 1_555
H13_4 C14_4 1_555 1_555
C16_4 N9_4 1_555 1_555
H14_4 C16_4 1_555 1_555
C17_4 N10_4 1_555 1_555
H15_4 C17_4 1_555 1_555
C27_4 C17_4 1_555 1_555
O17_4 Cu11_2 1_555 1_555
C38_4 F10_4 1_555 1_555
F11_4 C38_4 1_555 1_555
F12_4 C38_4 1_555 1_555
S4_4 C38_4 1_555 1_555
O18_4 S4_4 1_555 1_555
O19_4 S4_4 1_555 1_555
O20_4 Cu10_2 1_555 1_555
S2_4 O17_4 1_555 1_555
N4_4 N9_4 1_555 1_555
C13_4 C16_4 1_555 1_555
S4_4 O20_4 1_555 1_555
O21_2 C9_4 1_555 1_555
N8_4 Cu8 1_555 1_555
C9_4 H9_4 1_555 1_555
C20_4 C9_4 1_555 1_555
C22_4 N8_4 1_555 1_555
H19_4 C22_4 1_555 1_555
F2_4 C32_4 1_555 1_555
F3_4 C32_4 1_555 1_555
F4_4 C32_4 1_555 1_555
C32_4 S1_4 1_555 1_555
S1_4 O13_4 1_555 1_555
C20_4 C22_4 1_555 1_555
O24 C23_4 1_555 1_555
N7_4 Cu9_2 1_555 1_555
O10_4 Cu9_2 1_555 1_555
N13_4 Cu9_2 1_555 1_555
C6_4 N7_4 1_555 1_555
H8_4 C6_4 1_555 1_555
C12_4 N11_4 1_555 1_555
H12_4 C12_4 1_555 1_555
C15_4 C6_4 1_555 1_555
C23_4 C15_4 1_555 1_555
H20_4 C23_4 1_555 1_555
C25_4 N13_4 1_555 1_555
H22_4 C25_4 1_555 1_555
N14_4 Cu9_2 1_555 1_555
C26_4 N14_4 1_555 1_555
H23_4 C26_4 1_555 1_555
F7_4 C36_4 1_555 1_555
F8_4 C36_4 1_555 1_555
F9_4 C36_4 1_555 1_555
C34_4 C26_4 1_555 1_555
H28_4 C34_4 1_555 1_555
C35_4 C33_4 1_555 1_555
H29_4 C35_4 1_555 1_555
C37_4 N14_4 1_555 1_555
H30_4 C37_4 1_555 1_555
N7_4 N11_4 1_555 1_555
C12_4 C15_4 1_555 1_555
C33_4 C37_4 1_555 1_555
C34_4 C35_4 1_555 1_555
N1_4 Cu7 1_555 1_555
N5_4 Cu7 1_555 1_555
N6_4 Cu7 1_555 1_555
O25_2 C10_4 1_555 1_555
C1_4 N5_4 1_555 1_555
H3_4 C1_4 1_555 1_555
C2_4 N1_4 1_555 1_555
H4_4 C2_4 1_555 1_555
C3_4 N6_4 1_555 1_555
H5_4 C3_4 1_555 1_555
C7_4 C1_4 1_555 1_555
C10_4 C7_4 1_555 1_555
C19_4 N6_4 1_555 1_555
H17_4 C19_4 1_555 1_555
C28_4 C19_4 1_555 1_555
H24_4 C28_4 1_555 1_555
C29_4 C3_4 1_555 1_555
H25_4 C29_4 1_555 1_555
C30_4 C28_4 1_555 1_555
H26_4 C30_4 1_555 1_555
N3_4 N5_4 1_555 1_555
C29_4 C30_4 1_555 1_555
H18_3 C21_3 1_555 1_555
Cu2_4 O1_4 1_555 1_555
S3_4 O12_4 1_555 1_555
O1_4 H1_4 1_555 1_555
O3_4 Cu2_4 1_555 1_555
N2_4 Cu2_4 1_555 1_555
N12_4 Cu2_4 1_555 1_555
O14_4 S3_4 1_555 1_555
C5_4 N2_4 1_555 1_555
H7_4 C5_4 1_555 1_555
O15_4 Cu2_4 1_555 1_555
F1_4 C31_4 1_555 1_555
C18_4 N12_4 1_555 1_555
H16_4 C18_4 1_555 1_555
C24_4 O3_4 1_555 1_555
F5_4 C31_4 1_555 1_555
F6_4 C31_4 1_555 1_555
C31_4 S3_4 1_555 1_555
S3_4 O15_4 1_555 1_555
C5_4 C8_4 1_555 1_555
H18_4 C21_4 1_555 1_555

#END
