
###############################################################################
#
# This file contains modified crystal structure data generated from the
# MOF subset of the Cambridge Structural Database (CSD) v543 
# hosted by the Cambridge Crystallographic Data Centre (CCDC).
#
# This work is licensed under the Creative Commons
# Attribution-NonCommercial-ShareAlike 4.0 International License.
# To view a copy of this license, visit
# http://creativecommons.org/licenses/by-nc-sa/4.0/
# or send a letter to
# Creative Commons, PO Box 1866, Mountain View, CA 94042, USA.
#
# CIF created using the CSD Python API on 29 September 2022
# The structure has been converted into the P1 space group
# The structure has a 3D framework
# The original CSD entry JOCWIJ is in the cubic crystal system
# The framework has been calculated to contain at least 10.0% void space
# The void calculation uses a probe of radius 1.32A, grid spacing 0.4
# The framework is charged, counterions have been retained in the structure
#
###############################################################################

data_JOCWIJ
_chemical_formula_moiety         '(C96 H152 Cu24 N72 O128 S24 4-)n'
_symmetry_cell_setting           triclinic
_symmetry_space_group_name_H-M   'P 1'
_symmetry_Int_Tables_number      1
_space_group_name_Hall           'P 1'
loop_
_symmetry_equiv_pos_site_id
_symmetry_equiv_pos_as_xyz
1 x,y,z
_cell_length_a                   21.1373(3)
_cell_length_b                   21.1373(3)
_cell_length_c                   21.1373(3)
_cell_angle_alpha                90
_cell_angle_beta                 90
_cell_angle_gamma                90
_cell_volume                     9443.84
loop_
_atom_site_label
_atom_site_type_symbol
_atom_site_fract_x
_atom_site_fract_y
_atom_site_fract_z
Cu1 Cu 0.19330(3) 0.30688(4) 0.19330(3)
N1 N 0.13138(19) 0.3089(2) 0.26276(18)
N2 N 0.0530(2) 0.32554(18) 0.32554(18)
O1 O 0.2432(3) 0.2432(3) 0.2432(3)
C1 C 0.0822(2) 0.3454(2) 0.2735(2)
H1 H 0.0698 0.3795 0.2486
H3 H 0.2670 0.2670 0.2670
O4 O 0.1352(3) 0.2398(3) 0.1352(3)
H4 H 0.1424 0.2475 0.0963
N3 N 0.13138(19) 0.26276(18) 0.3089(2)
C4 C 0.0822(2) 0.2735(2) 0.3454(2)
H5 H 0.0698 0.2486 0.3795
H7 H 0.0963 0.2475 0.1424
Cu2 Cu 0.19330(3) 0.19330(3) 0.30688(4)
N4 N 0.26276(18) 0.13138(19) 0.3089(2)
N5 N 0.32554(18) 0.0530(2) 0.32554(18)
C5 C 0.2735(2) 0.0822(2) 0.3454(2)
H8 H 0.2486 0.0698 0.3795
O7 O 0.1352(3) 0.1352(3) 0.2398(3)
H10 H 0.0963 0.1424 0.2475
N6 N 0.3089(2) 0.13138(19) 0.26276(18)
C8 C 0.3454(2) 0.0822(2) 0.2735(2)
H11 H 0.3795 0.0698 0.2486
H13 H 0.1424 0.0963 0.2475
Cu3 Cu 0.30688(4) 0.19330(3) 0.19330(3)
N7 N 0.3089(2) 0.26276(18) 0.13138(19)
N8 N 0.32554(18) 0.32554(18) 0.0530(2)
C9 C 0.3454(2) 0.2735(2) 0.0822(2)
H14 H 0.3795 0.2486 0.0698
O10 O 0.2398(3) 0.1352(3) 0.1352(3)
H16 H 0.2475 0.0963 0.1424
N9 N 0.26276(18) 0.3089(2) 0.13138(19)
C12 C 0.2735(2) 0.3454(2) 0.0822(2)
H17 H 0.2486 0.3795 0.0698
H19 H 0.2475 0.1424 0.0963
O11 O 0.3842(2) 0.15667(16) 0.15667(16)
O12 O 0.15667(16) 0.3842(2) 0.15667(16)
O13 O 0.15667(16) 0.15667(16) 0.3842(2)
O8 O 0.28035(18) 0.28035(18) 0.9404(3)
O9 O 0.34333(16) 0.34333(16) 0.8842(2)
C10 C 0.3515(2) 0.3515(2) 0.9932(3)
H15 H 0.3963 0.3438 0.9921
C11 C 0.3217(3) 0.3217(3) 0.9356(3)
H18 H 0.3438 0.3963 0.9921
Cu5 Cu 0.30670(3) 0.30670(3) 0.80688(4)
O5 O 0.28035(18) 0.9404(3) 0.28035(18)
O6 O 0.34333(16) 0.8842(2) 0.34333(16)
C6 C 0.3515(2) 0.9932(3) 0.3515(2)
H9 H 0.3438 0.9921 0.3963
C7 C 0.3217(3) 0.9356(3) 0.3217(3)
H12 H 0.3963 0.9921 0.3438
Cu4 Cu 0.30670(3) 0.80688(4) 0.30670(3)
O2 O 0.9404(3) 0.28035(18) 0.28035(18)
O3 O 0.8842(2) 0.34333(16) 0.34333(16)
C2 C 0.9932(3) 0.3515(2) 0.3515(2)
H2 H 0.9921 0.3963 0.3438
C3 C 0.9356(3) 0.3217(3) 0.3217(3)
H6 H 0.9921 0.3438 0.3963
Cu6 Cu 0.80688(4) 0.30670(3) 0.30670(3)
O2_2 O 0.0596(3) 0.71965(18) 0.28035(18)
O3_2 O 0.1158(2) 0.65667(16) 0.34333(16)
C2_2 C 0.0068(3) 0.6485(2) 0.3515(2)
H2_2 H 0.0079 0.6037 0.3438
C3_2 C 0.0644(3) 0.6783(3) 0.3217(3)
H6_2 H 0.0079 0.6562 0.3963
Cu6_2 Cu 0.19312(4) 0.69330(3) 0.30670(3)
O5_2 O 0.71965(18) 0.0596(3) 0.28035(18)
O6_2 O 0.65667(16) 0.1158(2) 0.34333(16)
C6_2 C 0.6485(2) 0.0068(3) 0.3515(2)
H9_2 H 0.6562 0.0079 0.3963
C7_2 C 0.6783(3) 0.0644(3) 0.3217(3)
H12_2 H 0.6037 0.0079 0.3438
Cu4_2 Cu 0.69330(3) 0.19312(4) 0.30670(3)
Cu1_2 Cu 0.80670(3) 0.69312(4) 0.19330(3)
N1_2 N 0.86862(19) 0.6911(2) 0.26276(18)
N2_2 N 0.9470(2) 0.67446(18) 0.32554(18)
O1_2 O 0.7568(3) 0.7568(3) 0.2432(3)
C1_2 C 0.9178(2) 0.6546(2) 0.2735(2)
H1_2 H 0.9302 0.6205 0.2486
H3_2 H 0.7330 0.7330 0.2670
O4_2 O 0.8648(3) 0.7602(3) 0.1352(3)
H4_2 H 0.8576 0.7525 0.0963
N3_2 N 0.86862(19) 0.73724(18) 0.3089(2)
C4_2 C 0.9178(2) 0.7265(2) 0.3454(2)
H5_2 H 0.9302 0.7514 0.3795
H7_2 H 0.9037 0.7525 0.1424
Cu2_2 Cu 0.80670(3) 0.80670(3) 0.30688(4)
N4_2 N 0.73724(18) 0.86862(19) 0.3089(2)
N5_2 N 0.67446(18) 0.9470(2) 0.32554(18)
C5_2 C 0.7265(2) 0.9178(2) 0.3454(2)
H8_2 H 0.7514 0.9302 0.3795
O7_2 O 0.8648(3) 0.8648(3) 0.2398(3)
H10_2 H 0.9037 0.8576 0.2475
N6_2 N 0.6911(2) 0.86862(19) 0.26276(18)
C8_2 C 0.6546(2) 0.9178(2) 0.2735(2)
H11_2 H 0.6205 0.9302 0.2486
H13_2 H 0.8576 0.9037 0.2475
Cu3_2 Cu 0.69312(4) 0.80670(3) 0.19330(3)
N7_2 N 0.6911(2) 0.73724(18) 0.13138(19)
N8_2 N 0.67446(18) 0.67446(18) 0.0530(2)
C9_2 C 0.6546(2) 0.7265(2) 0.0822(2)
H14_2 H 0.6205 0.7514 0.0698
O10_2 O 0.7602(3) 0.8648(3) 0.1352(3)
H16_2 H 0.7525 0.9037 0.1424
N9_2 N 0.73724(18) 0.6911(2) 0.13138(19)
C12_2 C 0.7265(2) 0.6546(2) 0.0822(2)
H17_2 H 0.7514 0.6205 0.0698
H19_2 H 0.7525 0.8576 0.0963
O11_2 O 0.6158(2) 0.84333(16) 0.15667(16)
O12_2 O 0.84333(16) 0.6158(2) 0.15667(16)
O13_2 O 0.84333(16) 0.84333(16) 0.3842(2)
O8_2 O 0.71965(18) 0.71965(18) 0.9404(3)
O9_2 O 0.65667(16) 0.65667(16) 0.8842(2)
C10_2 C 0.6485(2) 0.6485(2) 0.9932(3)
H15_2 H 0.6037 0.6562 0.9921
C11_2 C 0.6783(3) 0.6783(3) 0.9356(3)
H18_2 H 0.6562 0.6037 0.9921
Cu5_2 Cu 0.69330(3) 0.69330(3) 0.80688(4)
O2_3 O 0.0596(3) 0.28035(18) 0.71965(18)
O3_3 O 0.1158(2) 0.34333(16) 0.65667(16)
C2_3 C 0.0068(3) 0.3515(2) 0.6485(2)
H2_3 H 0.0079 0.3963 0.6562
C3_3 C 0.0644(3) 0.3217(3) 0.6783(3)
H6_3 H 0.0079 0.3438 0.6037
Cu6_3 Cu 0.19312(4) 0.30670(3) 0.69330(3)
O8_3 O 0.71965(18) 0.28035(18) 0.0596(3)
O9_3 O 0.65667(16) 0.34333(16) 0.1158(2)
C10_3 C 0.6485(2) 0.3515(2) 0.0068(3)
H15_3 H 0.6037 0.3438 0.0079
C11_3 C 0.6783(3) 0.3217(3) 0.0644(3)
H18_3 H 0.6562 0.3963 0.0079
Cu5_3 Cu 0.69330(3) 0.30670(3) 0.19312(4)
Cu1_3 Cu 0.80670(3) 0.30688(4) 0.80670(3)
N1_3 N 0.86862(19) 0.3089(2) 0.73724(18)
N2_3 N 0.9470(2) 0.32554(18) 0.67446(18)
O1_3 O 0.7568(3) 0.2432(3) 0.7568(3)
C1_3 C 0.9178(2) 0.3454(2) 0.7265(2)
H1_3 H 0.9302 0.3795 0.7514
H3_3 H 0.7330 0.2670 0.7330
O4_3 O 0.8648(3) 0.2398(3) 0.8648(3)
H4_3 H 0.8576 0.2475 0.9037
N3_3 N 0.86862(19) 0.26276(18) 0.6911(2)
C4_3 C 0.9178(2) 0.2735(2) 0.6546(2)
H5_3 H 0.9302 0.2486 0.6205
H7_3 H 0.9037 0.2475 0.8576
Cu2_3 Cu 0.80670(3) 0.19330(3) 0.69312(4)
N4_3 N 0.73724(18) 0.13138(19) 0.6911(2)
N5_3 N 0.67446(18) 0.0530(2) 0.67446(18)
C5_3 C 0.7265(2) 0.0822(2) 0.6546(2)
H8_3 H 0.7514 0.0698 0.6205
O7_3 O 0.8648(3) 0.1352(3) 0.7602(3)
H10_3 H 0.9037 0.1424 0.7525
N6_3 N 0.6911(2) 0.13138(19) 0.73724(18)
C8_3 C 0.6546(2) 0.0822(2) 0.7265(2)
H11_3 H 0.6205 0.0698 0.7514
H13_3 H 0.8576 0.0963 0.7525
Cu3_3 Cu 0.69312(4) 0.19330(3) 0.80670(3)
N7_3 N 0.6911(2) 0.26276(18) 0.86862(19)
N8_3 N 0.67446(18) 0.32554(18) 0.9470(2)
C9_3 C 0.6546(2) 0.2735(2) 0.9178(2)
H14_3 H 0.6205 0.2486 0.9302
O10_3 O 0.7602(3) 0.1352(3) 0.8648(3)
H16_3 H 0.7525 0.0963 0.8576
N9_3 N 0.73724(18) 0.3089(2) 0.86862(19)
C12_3 C 0.7265(2) 0.3454(2) 0.9178(2)
H17_3 H 0.7514 0.3795 0.9302
H19_3 H 0.7525 0.1424 0.9037
O11_3 O 0.6158(2) 0.15667(16) 0.84333(16)
O12_3 O 0.84333(16) 0.3842(2) 0.84333(16)
O13_3 O 0.84333(16) 0.15667(16) 0.6158(2)
O5_3 O 0.71965(18) 0.9404(3) 0.71965(18)
O6_3 O 0.65667(16) 0.8842(2) 0.65667(16)
C6_3 C 0.6485(2) 0.9932(3) 0.6485(2)
H9_3 H 0.6562 0.9921 0.6037
C7_3 C 0.6783(3) 0.9356(3) 0.6783(3)
H12_3 H 0.6037 0.9921 0.6562
Cu4_3 Cu 0.69330(3) 0.80688(4) 0.69330(3)
O5_4 O 0.28035(18) 0.0596(3) 0.71965(18)
O6_4 O 0.34333(16) 0.1158(2) 0.65667(16)
C6_4 C 0.3515(2) 0.0068(3) 0.6485(2)
H9_4 H 0.3438 0.0079 0.6037
C7_4 C 0.3217(3) 0.0644(3) 0.6783(3)
H12_4 H 0.3963 0.0079 0.6562
Cu4_4 Cu 0.30670(3) 0.19312(4) 0.69330(3)
O8_4 O 0.28035(18) 0.71965(18) 0.0596(3)
O9_4 O 0.34333(16) 0.65667(16) 0.1158(2)
C10_4 C 0.3515(2) 0.6485(2) 0.0068(3)
H15_4 H 0.3963 0.6562 0.0079
C11_4 C 0.3217(3) 0.6783(3) 0.0644(3)
H18_4 H 0.3438 0.6037 0.0079
Cu5_4 Cu 0.30670(3) 0.69330(3) 0.19312(4)
Cu1_4 Cu 0.19330(3) 0.69312(4) 0.80670(3)
N1_4 N 0.13138(19) 0.6911(2) 0.73724(18)
N2_4 N 0.0530(2) 0.67446(18) 0.67446(18)
O1_4 O 0.2432(3) 0.7568(3) 0.7568(3)
C1_4 C 0.0822(2) 0.6546(2) 0.7265(2)
H1_4 H 0.0698 0.6205 0.7514
H3_4 H 0.2670 0.7330 0.7330
O4_4 O 0.1352(3) 0.7602(3) 0.8648(3)
H4_4 H 0.1424 0.7525 0.9037
N3_4 N 0.13138(19) 0.73724(18) 0.6911(2)
C4_4 C 0.0822(2) 0.7265(2) 0.6546(2)
H5_4 H 0.0698 0.7514 0.6205
H7_4 H 0.0963 0.7525 0.8576
Cu2_4 Cu 0.19330(3) 0.80670(3) 0.69312(4)
N4_4 N 0.26276(18) 0.86862(19) 0.6911(2)
N5_4 N 0.32554(18) 0.9470(2) 0.67446(18)
C5_4 C 0.2735(2) 0.9178(2) 0.6546(2)
H8_4 H 0.2486 0.9302 0.6205
O7_4 O 0.1352(3) 0.8648(3) 0.7602(3)
H10_4 H 0.0963 0.8576 0.7525
N6_4 N 0.3089(2) 0.86862(19) 0.73724(18)
C8_4 C 0.3454(2) 0.9178(2) 0.7265(2)
H11_4 H 0.3795 0.9302 0.7514
H13_4 H 0.1424 0.9037 0.7525
Cu3_4 Cu 0.30688(4) 0.80670(3) 0.80670(3)
N7_4 N 0.3089(2) 0.73724(18) 0.86862(19)
N8_4 N 0.32554(18) 0.67446(18) 0.9470(2)
C9_4 C 0.3454(2) 0.7265(2) 0.9178(2)
H14_4 H 0.3795 0.7514 0.9302
O10_4 O 0.2398(3) 0.8648(3) 0.8648(3)
H16_4 H 0.2475 0.9037 0.8576
N9_4 N 0.26276(18) 0.6911(2) 0.86862(19)
C12_4 C 0.2735(2) 0.6546(2) 0.9178(2)
H17_4 H 0.2486 0.6205 0.9302
H19_4 H 0.2475 0.8576 0.9037
O11_4 O 0.3842(2) 0.84333(16) 0.84333(16)
O12_4 O 0.15667(16) 0.6158(2) 0.84333(16)
O13_4 O 0.15667(16) 0.84333(16) 0.6158(2)
O2_4 O 0.9404(3) 0.71965(18) 0.71965(18)
O3_4 O 0.8842(2) 0.65667(16) 0.65667(16)
C2_4 C 0.9932(3) 0.6485(2) 0.6485(2)
H2_4 H 0.9921 0.6037 0.6562
C3_4 C 0.9356(3) 0.6783(3) 0.6783(3)
H6_4 H 0.9921 0.6562 0.6037
Cu6_4 Cu 0.80688(4) 0.69330(3) 0.69330(3)
N1_5 N 0.63138(19) 0.8089(2) 0.76276(18)
N2_5 N 0.5530(2) 0.82554(18) 0.82554(18)
O1_5 O 0.7432(3) 0.7432(3) 0.7432(3)
O2_5 O 0.4404(3) 0.78035(18) 0.78035(18)
C1_5 C 0.5822(2) 0.8454(2) 0.7735(2)
H1_5 H 0.5698 0.8795 0.7486
C2_5 C 0.4932(3) 0.8515(2) 0.8515(2)
H2_5 H 0.4921 0.8963 0.8438
C3_5 C 0.4356(3) 0.8217(3) 0.8217(3)
H3_5 H 0.7670 0.7670 0.7670
O4_5 O 0.6352(3) 0.7398(3) 0.6352(3)
H4_5 H 0.6424 0.7475 0.5963
N3_5 N 0.63138(19) 0.76276(18) 0.8089(2)
C4_5 C 0.5822(2) 0.7735(2) 0.8454(2)
H5_5 H 0.5698 0.7486 0.8795
H6_5 H 0.4921 0.8438 0.8963
H7_5 H 0.5963 0.7475 0.6424
N4_5 N 0.76276(18) 0.63138(19) 0.8089(2)
N5_5 N 0.82554(18) 0.5530(2) 0.82554(18)
O5_5 O 0.78035(18) 0.4404(3) 0.78035(18)
C5_5 C 0.7735(2) 0.5822(2) 0.8454(2)
H8_5 H 0.7486 0.5698 0.8795
C6_5 C 0.8515(2) 0.4932(3) 0.8515(2)
H9_5 H 0.8438 0.4921 0.8963
C7_5 C 0.8217(3) 0.4356(3) 0.8217(3)
O7_5 O 0.6352(3) 0.6352(3) 0.7398(3)
H10_5 H 0.5963 0.6424 0.7475
N6_5 N 0.8089(2) 0.63138(19) 0.76276(18)
C8_5 C 0.8454(2) 0.5822(2) 0.7735(2)
H11_5 H 0.8795 0.5698 0.7486
H12_5 H 0.8963 0.4921 0.8438
H13_5 H 0.6424 0.5963 0.7475
N7_5 N 0.8089(2) 0.76276(18) 0.63138(19)
N8_5 N 0.82554(18) 0.82554(18) 0.5530(2)
O8_5 O 0.78035(18) 0.78035(18) 0.4404(3)
C9_5 C 0.8454(2) 0.7735(2) 0.5822(2)
H14_5 H 0.8795 0.7486 0.5698
C10_5 C 0.8515(2) 0.8515(2) 0.4932(3)
H15_5 H 0.8963 0.8438 0.4921
C11_5 C 0.8217(3) 0.8217(3) 0.4356(3)
O10_5 O 0.7398(3) 0.6352(3) 0.6352(3)
H16_5 H 0.7475 0.5963 0.6424
N9_5 N 0.76276(18) 0.8089(2) 0.63138(19)
C12_5 C 0.7735(2) 0.8454(2) 0.5822(2)
H17_5 H 0.7486 0.8795 0.5698
H18_5 H 0.8438 0.8963 0.4921
H19_5 H 0.7475 0.6424 0.5963
N1_6 N 0.36862(19) 0.1911(2) 0.76276(18)
N2_6 N 0.4470(2) 0.17446(18) 0.82554(18)
O1_6 O 0.2568(3) 0.2568(3) 0.7432(3)
O2_6 O 0.5596(3) 0.21965(18) 0.78035(18)
C1_6 C 0.4178(2) 0.1546(2) 0.7735(2)
H1_6 H 0.4302 0.1205 0.7486
C2_6 C 0.5068(3) 0.1485(2) 0.8515(2)
H2_6 H 0.5079 0.1037 0.8438
C3_6 C 0.5644(3) 0.1783(3) 0.8217(3)
H3_6 H 0.2330 0.2330 0.7670
O4_6 O 0.3648(3) 0.2602(3) 0.6352(3)
H4_6 H 0.3576 0.2525 0.5963
N3_6 N 0.36862(19) 0.23724(18) 0.8089(2)
C4_6 C 0.4178(2) 0.2265(2) 0.8454(2)
H5_6 H 0.4302 0.2514 0.8795
H6_6 H 0.5079 0.1562 0.8963
H7_6 H 0.4037 0.2525 0.6424
N4_6 N 0.23724(18) 0.36862(19) 0.8089(2)
N5_6 N 0.17446(18) 0.4470(2) 0.82554(18)
O5_6 O 0.21965(18) 0.5596(3) 0.78035(18)
C5_6 C 0.2265(2) 0.4178(2) 0.8454(2)
H8_6 H 0.2514 0.4302 0.8795
C6_6 C 0.1485(2) 0.5068(3) 0.8515(2)
H9_6 H 0.1562 0.5079 0.8963
C7_6 C 0.1783(3) 0.5644(3) 0.8217(3)
O7_6 O 0.3648(3) 0.3648(3) 0.7398(3)
H10_6 H 0.4037 0.3576 0.7475
N6_6 N 0.1911(2) 0.36862(19) 0.76276(18)
C8_6 C 0.1546(2) 0.4178(2) 0.7735(2)
H11_6 H 0.1205 0.4302 0.7486
H12_6 H 0.1037 0.5079 0.8438
H13_6 H 0.3576 0.4037 0.7475
N7_6 N 0.1911(2) 0.23724(18) 0.63138(19)
N8_6 N 0.17446(18) 0.17446(18) 0.5530(2)
O8_6 O 0.21965(18) 0.21965(18) 0.4404(3)
C9_6 C 0.1546(2) 0.2265(2) 0.5822(2)
H14_6 H 0.1205 0.2514 0.5698
C10_6 C 0.1485(2) 0.1485(2) 0.4932(3)
H15_6 H 0.1037 0.1562 0.4921
C11_6 C 0.1783(3) 0.1783(3) 0.4356(3)
O10_6 O 0.2602(3) 0.3648(3) 0.6352(3)
H16_6 H 0.2525 0.4037 0.6424
N9_6 N 0.23724(18) 0.1911(2) 0.63138(19)
C12_6 C 0.2265(2) 0.1546(2) 0.5822(2)
H17_6 H 0.2514 0.1205 0.5698
H18_6 H 0.1562 0.1037 0.4921
H19_6 H 0.2525 0.3576 0.5963
N1_7 N 0.36862(19) 0.8089(2) 0.23724(18)
N2_7 N 0.4470(2) 0.82554(18) 0.17446(18)
O1_7 O 0.2568(3) 0.7432(3) 0.2568(3)
O2_7 O 0.5596(3) 0.78035(18) 0.21965(18)
C1_7 C 0.4178(2) 0.8454(2) 0.2265(2)
H1_7 H 0.4302 0.8795 0.2514
C2_7 C 0.5068(3) 0.8515(2) 0.1485(2)
H2_7 H 0.5079 0.8963 0.1562
C3_7 C 0.5644(3) 0.8217(3) 0.1783(3)
H3_7 H 0.2330 0.7670 0.2330
O4_7 O 0.3648(3) 0.7398(3) 0.3648(3)
H4_7 H 0.3576 0.7475 0.4037
N3_7 N 0.36862(19) 0.76276(18) 0.1911(2)
C4_7 C 0.4178(2) 0.7735(2) 0.1546(2)
H5_7 H 0.4302 0.7486 0.1205
H6_7 H 0.5079 0.8438 0.1037
H7_7 H 0.4037 0.7475 0.3576
N4_7 N 0.23724(18) 0.63138(19) 0.1911(2)
N5_7 N 0.17446(18) 0.5530(2) 0.17446(18)
O5_7 O 0.21965(18) 0.4404(3) 0.21965(18)
C5_7 C 0.2265(2) 0.5822(2) 0.1546(2)
H8_7 H 0.2514 0.5698 0.1205
C6_7 C 0.1485(2) 0.4932(3) 0.1485(2)
H9_7 H 0.1562 0.4921 0.1037
C7_7 C 0.1783(3) 0.4356(3) 0.1783(3)
O7_7 O 0.3648(3) 0.6352(3) 0.2602(3)
H10_7 H 0.4037 0.6424 0.2525
N6_7 N 0.1911(2) 0.63138(19) 0.23724(18)
C8_7 C 0.1546(2) 0.5822(2) 0.2265(2)
H11_7 H 0.1205 0.5698 0.2514
H12_7 H 0.1037 0.4921 0.1562
H13_7 H 0.3576 0.5963 0.2525
N7_7 N 0.1911(2) 0.76276(18) 0.36862(19)
N8_7 N 0.17446(18) 0.82554(18) 0.4470(2)
O8_7 O 0.21965(18) 0.78035(18) 0.5596(3)
C9_7 C 0.1546(2) 0.7735(2) 0.4178(2)
H14_7 H 0.1205 0.7486 0.4302
C10_7 C 0.1485(2) 0.8515(2) 0.5068(3)
H15_7 H 0.1037 0.8438 0.5079
C11_7 C 0.1783(3) 0.8217(3) 0.5644(3)
O10_7 O 0.2602(3) 0.6352(3) 0.3648(3)
H16_7 H 0.2525 0.5963 0.3576
N9_7 N 0.23724(18) 0.8089(2) 0.36862(19)
C12_7 C 0.2265(2) 0.8454(2) 0.4178(2)
H17_7 H 0.2514 0.8795 0.4302
H18_7 H 0.1562 0.8963 0.5079
H19_7 H 0.2525 0.6424 0.4037
N1_8 N 0.63138(19) 0.1911(2) 0.23724(18)
N2_8 N 0.5530(2) 0.17446(18) 0.17446(18)
O1_8 O 0.7432(3) 0.2568(3) 0.2568(3)
O2_8 O 0.4404(3) 0.21965(18) 0.21965(18)
C1_8 C 0.5822(2) 0.1546(2) 0.2265(2)
H1_8 H 0.5698 0.1205 0.2514
C2_8 C 0.4932(3) 0.1485(2) 0.1485(2)
H2_8 H 0.4921 0.1037 0.1562
C3_8 C 0.4356(3) 0.1783(3) 0.1783(3)
H3_8 H 0.7670 0.2330 0.2330
O4_8 O 0.6352(3) 0.2602(3) 0.3648(3)
H4_8 H 0.6424 0.2525 0.4037
N3_8 N 0.63138(19) 0.23724(18) 0.1911(2)
C4_8 C 0.5822(2) 0.2265(2) 0.1546(2)
H5_8 H 0.5698 0.2514 0.1205
H6_8 H 0.4921 0.1562 0.1037
H7_8 H 0.5963 0.2525 0.3576
N4_8 N 0.76276(18) 0.36862(19) 0.1911(2)
N5_8 N 0.82554(18) 0.4470(2) 0.17446(18)
O5_8 O 0.78035(18) 0.5596(3) 0.21965(18)
C5_8 C 0.7735(2) 0.4178(2) 0.1546(2)
H8_8 H 0.7486 0.4302 0.1205
C6_8 C 0.8515(2) 0.5068(3) 0.1485(2)
H9_8 H 0.8438 0.5079 0.1037
C7_8 C 0.8217(3) 0.5644(3) 0.1783(3)
O7_8 O 0.6352(3) 0.3648(3) 0.2602(3)
H10_8 H 0.5963 0.3576 0.2525
N6_8 N 0.8089(2) 0.36862(19) 0.23724(18)
C8_8 C 0.8454(2) 0.4178(2) 0.2265(2)
H11_8 H 0.8795 0.4302 0.2514
H12_8 H 0.8963 0.5079 0.1562
H13_8 H 0.6424 0.4037 0.2525
N7_8 N 0.8089(2) 0.23724(18) 0.36862(19)
N8_8 N 0.82554(18) 0.17446(18) 0.4470(2)
O8_8 O 0.78035(18) 0.21965(18) 0.5596(3)
C9_8 C 0.8454(2) 0.2265(2) 0.4178(2)
H14_8 H 0.8795 0.2514 0.4302
C10_8 C 0.8515(2) 0.1485(2) 0.5068(3)
H15_8 H 0.8963 0.1562 0.5079
C11_8 C 0.8217(3) 0.1783(3) 0.5644(3)
O10_8 O 0.7398(3) 0.3648(3) 0.3648(3)
H16_8 H 0.7475 0.4037 0.3576
N9_8 N 0.76276(18) 0.1911(2) 0.36862(19)
C12_8 C 0.7735(2) 0.1546(2) 0.4178(2)
H17_8 H 0.7486 0.1205 0.4302
H18_8 H 0.8438 0.1037 0.5079
H19_8 H 0.7475 0.3576 0.4037
O14 O 0.00870(19) 0.55704(17) 0.2107(2)
S1 S 0.0000 0.5000 0.2500
O16 O 0.05704(17) 0.49130(19) 0.2893(2)
S1_2 S 1.0000 0.5000 0.2500
O15 O 0.99130(19) 0.44296(17) 0.2107(2)
O17 O 0.94296(17) 0.50870(19) 0.2893(2)
S1_3 S -0.0000 0.5000 0.7500
O15_2 O 0.00870(19) 0.44296(17) 0.7893(2)
O17_2 O 0.05704(17) 0.50870(19) 0.7107(2)
O14_2 O 0.99130(19) 0.55704(17) 0.7893(2)
S1_4 S 1.0000 0.5000 0.7500
O16_2 O 0.94296(17) 0.49130(19) 0.7107(2)
O14_3 O 0.2107(2) 0.00870(19) 0.55704(17)
S1_5 S 0.2500 0.0000 0.5000
O16_3 O 0.2893(2) 0.05704(17) 0.49130(19)
S1_6 S 0.2500 1.0000 0.5000
O15_3 O 0.2107(2) 0.99130(19) 0.44296(17)
O17_3 O 0.2893(2) 0.94296(17) 0.50870(19)
S1_7 S 0.7500 -0.0000 0.5000
O15_4 O 0.7893(2) 0.00870(19) 0.44296(17)
O17_4 O 0.7107(2) 0.05704(17) 0.50870(19)
O14_4 O 0.7893(2) 0.99130(19) 0.55704(17)
S1_8 S 0.7500 1.0000 0.5000
O16_4 O 0.7107(2) 0.94296(17) 0.49130(19)
O14_5 O 0.55704(17) 0.2107(2) 0.00870(19)
S1_9 S 0.5000 0.2500 0.0000
O16_5 O 0.49130(19) 0.2893(2) 0.05704(17)
S1_10 S 0.5000 0.2500 1.0000
O15_5 O 0.44296(17) 0.2107(2) 0.99130(19)
O17_5 O 0.50870(19) 0.2893(2) 0.94296(17)
S1_11 S 0.5000 0.7500 -0.0000
O15_6 O 0.44296(17) 0.7893(2) 0.00870(19)
O17_6 O 0.50870(19) 0.7107(2) 0.05704(17)
O14_6 O 0.55704(17) 0.7893(2) 0.99130(19)
S1_12 S 0.5000 0.7500 1.0000
O16_6 O 0.49130(19) 0.7107(2) 0.94296(17)
O14_7 O 0.55704(17) 0.00870(19) 0.2107(2)
S1_13 S 0.5000 0.0000 0.2500
O16_7 O 0.49130(19) 0.05704(17) 0.2893(2)
S1_14 S 0.5000 1.0000 0.2500
O15_7 O 0.44296(17) 0.99130(19) 0.2107(2)
O17_7 O 0.50870(19) 0.94296(17) 0.2893(2)
S1_15 S 0.5000 0.0000 0.7500
O15_8 O 0.44296(17) 0.00870(19) 0.7893(2)
O17_8 O 0.50870(19) 0.05704(17) 0.7107(2)
O14_8 O 0.55704(17) 0.99130(19) 0.7893(2)
S1_16 S 0.5000 1.0000 0.7500
O16_8 O 0.49130(19) 0.94296(17) 0.7107(2)
O14_9 O 0.00870(19) 0.2107(2) 0.55704(17)
S1_17 S 0.0000 0.2500 0.5000
O16_9 O 0.05704(17) 0.2893(2) 0.49130(19)
S1_18 S 1.0000 0.2500 0.5000
O15_9 O 0.99130(19) 0.2107(2) 0.44296(17)
O17_9 O 0.94296(17) 0.2893(2) 0.50870(19)
S1_19 S 0.0000 0.7500 0.5000
O15_10 O 0.00870(19) 0.7893(2) 0.44296(17)
O17_10 O 0.05704(17) 0.7107(2) 0.50870(19)
O14_10 O 0.99130(19) 0.7893(2) 0.55704(17)
S1_20 S 1.0000 0.7500 0.5000
O16_10 O 0.94296(17) 0.7107(2) 0.49130(19)
O14_11 O 0.2107(2) 0.55704(17) 0.00870(19)
S1_21 S 0.2500 0.5000 0.0000
O16_11 O 0.2893(2) 0.49130(19) 0.05704(17)
S1_22 S 0.2500 0.5000 1.0000
O15_11 O 0.2107(2) 0.44296(17) 0.99130(19)
O17_11 O 0.2893(2) 0.50870(19) 0.94296(17)
S1_23 S 0.7500 0.5000 -0.0000
O15_12 O 0.7893(2) 0.44296(17) 0.00870(19)
O17_12 O 0.7107(2) 0.50870(19) 0.05704(17)
O14_12 O 0.7893(2) 0.55704(17) 0.99130(19)
S1_24 S 0.7500 0.5000 1.0000
O16_12 O 0.7107(2) 0.49130(19) 0.94296(17)
loop_
_geom_bond_atom_site_label_1
_geom_bond_atom_site_label_2
_geom_bond_site_symmetry_1
_geom_bond_site_symmetry_2
Cu1 N1 1_555 1_555
N1 C1 1_555 1_555
N2 C1 1_555 1_555
O1 Cu1 1_555 1_555
C1 H1 1_555 1_555
H3 O1 1_555 1_555
O4 Cu1 1_555 1_555
H4 O4 1_555 1_555
N3 N1 1_555 1_555
C4 N2 1_555 1_555
H5 C4 1_555 1_555
H7 O4 1_555 1_555
Cu2 O1 1_555 1_555
N4 Cu2 1_555 1_555
N5 C5 1_555 1_555
C5 N4 1_555 1_555
H8 C5 1_555 1_555
O7 Cu2 1_555 1_555
H10 O7 1_555 1_555
N6 N4 1_555 1_555
C8 N5 1_555 1_555
H11 C8 1_555 1_555
H13 O7 1_555 1_555
Cu3 O1 1_555 1_555
N7 Cu3 1_555 1_555
N8 C9 1_555 1_555
C9 N7 1_555 1_555
H14 C9 1_555 1_555
O10 Cu3 1_555 1_555
H16 O10 1_555 1_555
N9 Cu1 1_555 1_555
C12 N8 1_555 1_555
H17 C12 1_555 1_555
H19 O10 1_555 1_555
O11 Cu3 1_555 1_555
O12 Cu1 1_555 1_555
O13 Cu2 1_555 1_555
N3 C4 1_555 1_555
N3 Cu2 1_555 1_555
N6 C8 1_555 1_555
N6 Cu3 1_555 1_555
N7 N9 1_555 1_555
N9 C12 1_555 1_555
O8 C11 1_555 1_555
O9 C11 1_555 1_555
H15 C10 1_555 1_555
C11 C10 1_555 1_555
H18 C10 1_555 1_555
Cu5 O9 1_555 1_555
O5 C7 1_555 1_555
O6 C7 1_555 1_555
H9 C6 1_555 1_555
C7 C6 1_555 1_555
H12 C6 1_555 1_555
Cu4 O6 1_555 1_555
O2 C3 1_555 1_555
O3 C3 1_555 1_555
H2 C2 1_555 1_555
C3 C2 1_555 1_555
H6 C2 1_555 1_555
Cu6 O3 1_555 1_555
O2_2 C3_2 1_555 1_555
O3_2 C3_2 1_555 1_555
H2_2 C2_2 1_555 1_555
C3_2 C2_2 1_555 1_555
H6_2 C2_2 1_555 1_555
Cu6_2 O3_2 1_555 1_555
O5_2 C7_2 1_555 1_555
O6_2 C7_2 1_555 1_555
H9_2 C6_2 1_555 1_555
C7_2 C6_2 1_555 1_555
H12_2 C6_2 1_555 1_555
Cu4_2 O6_2 1_555 1_555
Cu1_2 N1_2 1_555 1_555
N1_2 C1_2 1_555 1_555
N2_2 C1_2 1_555 1_555
O1_2 Cu1_2 1_555 1_555
C1_2 H1_2 1_555 1_555
H3_2 O1_2 1_555 1_555
O4_2 Cu1_2 1_555 1_555
H4_2 O4_2 1_555 1_555
N3_2 N1_2 1_555 1_555
C4_2 N2_2 1_555 1_555
H5_2 C4_2 1_555 1_555
H7_2 O4_2 1_555 1_555
Cu2_2 O1_2 1_555 1_555
N4_2 Cu2_2 1_555 1_555
N5_2 C5_2 1_555 1_555
C5_2 N4_2 1_555 1_555
H8_2 C5_2 1_555 1_555
O7_2 Cu2_2 1_555 1_555
H10_2 O7_2 1_555 1_555
N6_2 N4_2 1_555 1_555
C8_2 N5_2 1_555 1_555
H11_2 C8_2 1_555 1_555
H13_2 O7_2 1_555 1_555
Cu3_2 O1_2 1_555 1_555
N7_2 Cu3_2 1_555 1_555
N8_2 C9_2 1_555 1_555
C9_2 N7_2 1_555 1_555
H14_2 C9_2 1_555 1_555
O10_2 Cu3_2 1_555 1_555
H16_2 O10_2 1_555 1_555
N9_2 Cu1_2 1_555 1_555
C12_2 N8_2 1_555 1_555
H17_2 C12_2 1_555 1_555
H19_2 O10_2 1_555 1_555
O11_2 Cu3_2 1_555 1_555
O12_2 Cu1_2 1_555 1_555
O13_2 Cu2_2 1_555 1_555
N3_2 C4_2 1_555 1_555
N3_2 Cu2_2 1_555 1_555
N6_2 C8_2 1_555 1_555
N6_2 Cu3_2 1_555 1_555
N7_2 N9_2 1_555 1_555
N9_2 C12_2 1_555 1_555
O8_2 C11_2 1_555 1_555
O9_2 C11_2 1_555 1_555
H15_2 C10_2 1_555 1_555
C11_2 C10_2 1_555 1_555
H18_2 C10_2 1_555 1_555
Cu5_2 O9_2 1_555 1_555
O2_3 C3_3 1_555 1_555
O3_3 C3_3 1_555 1_555
H2_3 C2_3 1_555 1_555
C3_3 C2_3 1_555 1_555
H6_3 C2_3 1_555 1_555
Cu6_3 O3_3 1_555 1_555
O8_3 C11_3 1_555 1_555
O9_3 C11_3 1_555 1_555
H15_3 C10_3 1_555 1_555
C11_3 C10_3 1_555 1_555
H18_3 C10_3 1_555 1_555
Cu5_3 O9_3 1_555 1_555
Cu1_3 N1_3 1_555 1_555
N1_3 C1_3 1_555 1_555
N2_3 C1_3 1_555 1_555
O1_3 Cu1_3 1_555 1_555
C1_3 H1_3 1_555 1_555
H3_3 O1_3 1_555 1_555
O4_3 Cu1_3 1_555 1_555
H4_3 O4_3 1_555 1_555
N3_3 N1_3 1_555 1_555
C4_3 N2_3 1_555 1_555
H5_3 C4_3 1_555 1_555
H7_3 O4_3 1_555 1_555
Cu2_3 O1_3 1_555 1_555
N4_3 Cu2_3 1_555 1_555
N5_3 C5_3 1_555 1_555
C5_3 N4_3 1_555 1_555
H8_3 C5_3 1_555 1_555
O7_3 Cu2_3 1_555 1_555
H10_3 O7_3 1_555 1_555
N6_3 N4_3 1_555 1_555
C8_3 N5_3 1_555 1_555
H11_3 C8_3 1_555 1_555
H13_3 O7_3 1_555 1_555
Cu3_3 O1_3 1_555 1_555
N7_3 Cu3_3 1_555 1_555
N8_3 C9_3 1_555 1_555
C9_3 N7_3 1_555 1_555
H14_3 C9_3 1_555 1_555
O10_3 Cu3_3 1_555 1_555
H16_3 O10_3 1_555 1_555
N9_3 Cu1_3 1_555 1_555
C12_3 N8_3 1_555 1_555
H17_3 C12_3 1_555 1_555
H19_3 O10_3 1_555 1_555
O11_3 Cu3_3 1_555 1_555
O12_3 Cu1_3 1_555 1_555
O13_3 Cu2_3 1_555 1_555
N3_3 C4_3 1_555 1_555
N3_3 Cu2_3 1_555 1_555
N6_3 C8_3 1_555 1_555
N6_3 Cu3_3 1_555 1_555
N7_3 N9_3 1_555 1_555
N9_3 C12_3 1_555 1_555
O5_3 C7_3 1_555 1_555
O6_3 C7_3 1_555 1_555
H9_3 C6_3 1_555 1_555
C7_3 C6_3 1_555 1_555
H12_3 C6_3 1_555 1_555
Cu4_3 O6_3 1_555 1_555
O5_4 C7_4 1_555 1_555
O6_4 C7_4 1_555 1_555
H9_4 C6_4 1_555 1_555
C7_4 C6_4 1_555 1_555
H12_4 C6_4 1_555 1_555
Cu4_4 O6_4 1_555 1_555
O8_4 C11_4 1_555 1_555
O9_4 C11_4 1_555 1_555
H15_4 C10_4 1_555 1_555
C11_4 C10_4 1_555 1_555
H18_4 C10_4 1_555 1_555
Cu5_4 O9_4 1_555 1_555
Cu1_4 N1_4 1_555 1_555
N1_4 C1_4 1_555 1_555
N2_4 C1_4 1_555 1_555
O1_4 Cu1_4 1_555 1_555
C1_4 H1_4 1_555 1_555
H3_4 O1_4 1_555 1_555
O4_4 Cu1_4 1_555 1_555
H4_4 O4_4 1_555 1_555
N3_4 N1_4 1_555 1_555
C4_4 N2_4 1_555 1_555
H5_4 C4_4 1_555 1_555
H7_4 O4_4 1_555 1_555
Cu2_4 O1_4 1_555 1_555
N4_4 Cu2_4 1_555 1_555
N5_4 C5_4 1_555 1_555
C5_4 N4_4 1_555 1_555
H8_4 C5_4 1_555 1_555
O7_4 Cu2_4 1_555 1_555
H10_4 O7_4 1_555 1_555
N6_4 N4_4 1_555 1_555
C8_4 N5_4 1_555 1_555
H11_4 C8_4 1_555 1_555
H13_4 O7_4 1_555 1_555
Cu3_4 O1_4 1_555 1_555
N7_4 Cu3_4 1_555 1_555
N8_4 C9_4 1_555 1_555
C9_4 N7_4 1_555 1_555
H14_4 C9_4 1_555 1_555
O10_4 Cu3_4 1_555 1_555
H16_4 O10_4 1_555 1_555
N9_4 Cu1_4 1_555 1_555
C12_4 N8_4 1_555 1_555
H17_4 C12_4 1_555 1_555
H19_4 O10_4 1_555 1_555
O11_4 Cu3_4 1_555 1_555
O12_4 Cu1_4 1_555 1_555
O13_4 Cu2_4 1_555 1_555
N3_4 C4_4 1_555 1_555
N3_4 Cu2_4 1_555 1_555
N6_4 C8_4 1_555 1_555
N6_4 Cu3_4 1_555 1_555
N7_4 N9_4 1_555 1_555
N9_4 C12_4 1_555 1_555
O2_4 C3_4 1_555 1_555
O3_4 C3_4 1_555 1_555
H2_4 C2_4 1_555 1_555
C3_4 C2_4 1_555 1_555
H6_4 C2_4 1_555 1_555
Cu6_4 O3_4 1_555 1_555
Cu4_3 N1_5 1_555 1_555
N1_5 C1_5 1_555 1_555
N2_5 C1_5 1_555 1_555
O1_5 Cu4_3 1_555 1_555
O2_5 C3_5 1_555 1_555
O11_4 C3_5 1_555 1_555
C1_5 H1_5 1_555 1_555
C2_5 N2_5 1_555 1_555
H2_5 C2_5 1_555 1_555
C3_5 C2_5 1_555 1_555
H3_5 O1_5 1_555 1_555
O4_5 Cu4_3 1_555 1_555
H4_5 O4_5 1_555 1_555
N3_5 N1_5 1_555 1_555
C4_5 N2_5 1_555 1_555
H5_5 C4_5 1_555 1_555
H6_5 C2_5 1_555 1_555
H7_5 O4_5 1_555 1_555
Cu5_2 O1_5 1_555 1_555
N4_5 Cu5_2 1_555 1_555
N5_5 C5_5 1_555 1_555
O5_5 C7_5 1_555 1_555
O12_3 C7_5 1_555 1_555
C5_5 N4_5 1_555 1_555
H8_5 C5_5 1_555 1_555
C6_5 N5_5 1_555 1_555
H9_5 C6_5 1_555 1_555
C7_5 C6_5 1_555 1_555
O7_5 Cu5_2 1_555 1_555
H10_5 O7_5 1_555 1_555
N6_5 N4_5 1_555 1_555
C8_5 N5_5 1_555 1_555
H11_5 C8_5 1_555 1_555
H12_5 C6_5 1_555 1_555
H13_5 O7_5 1_555 1_555
Cu6_4 O1_5 1_555 1_555
N7_5 Cu6_4 1_555 1_555
N8_5 C9_5 1_555 1_555
O8_5 C11_5 1_555 1_555
O13_2 C11_5 1_555 1_555
C9_5 N7_5 1_555 1_555
H14_5 C9_5 1_555 1_555
C10_5 N8_5 1_555 1_555
H15_5 C10_5 1_555 1_555
C11_5 C10_5 1_555 1_555
O10_5 Cu6_4 1_555 1_555
H16_5 O10_5 1_555 1_555
N9_5 Cu4_3 1_555 1_555
C12_5 N8_5 1_555 1_555
H17_5 C12_5 1_555 1_555
H18_5 C10_5 1_555 1_555
H19_5 O10_5 1_555 1_555
N3_5 C4_5 1_555 1_555
N3_5 Cu5_2 1_555 1_555
N6_5 C8_5 1_555 1_555
N6_5 Cu6_4 1_555 1_555
N7_5 N9_5 1_555 1_555
N9_5 C12_5 1_555 1_555
Cu4_4 N1_6 1_555 1_555
N1_6 C1_6 1_555 1_555
N2_6 C1_6 1_555 1_555
O1_6 Cu4_4 1_555 1_555
O2_6 C3_6 1_555 1_555
O11_3 C3_6 1_555 1_555
C1_6 H1_6 1_555 1_555
C2_6 N2_6 1_555 1_555
H2_6 C2_6 1_555 1_555
C3_6 C2_6 1_555 1_555
H3_6 O1_6 1_555 1_555
O4_6 Cu4_4 1_555 1_555
H4_6 O4_6 1_555 1_555
N3_6 N1_6 1_555 1_555
C4_6 N2_6 1_555 1_555
H5_6 C4_6 1_555 1_555
H6_6 C2_6 1_555 1_555
H7_6 O4_6 1_555 1_555
Cu5 O1_6 1_555 1_555
N4_6 Cu5 1_555 1_555
N5_6 C5_6 1_555 1_555
O5_6 C7_6 1_555 1_555
O12_4 C7_6 1_555 1_555
C5_6 N4_6 1_555 1_555
H8_6 C5_6 1_555 1_555
C6_6 N5_6 1_555 1_555
H9_6 C6_6 1_555 1_555
C7_6 C6_6 1_555 1_555
O7_6 Cu5 1_555 1_555
H10_6 O7_6 1_555 1_555
N6_6 N4_6 1_555 1_555
C8_6 N5_6 1_555 1_555
H11_6 C8_6 1_555 1_555
H12_6 C6_6 1_555 1_555
H13_6 O7_6 1_555 1_555
Cu6_3 O1_6 1_555 1_555
N7_6 Cu6_3 1_555 1_555
N8_6 C9_6 1_555 1_555
O8_6 C11_6 1_555 1_555
O13 C11_6 1_555 1_555
C9_6 N7_6 1_555 1_555
H14_6 C9_6 1_555 1_555
C10_6 N8_6 1_555 1_555
H15_6 C10_6 1_555 1_555
C11_6 C10_6 1_555 1_555
O10_6 Cu6_3 1_555 1_555
H16_6 O10_6 1_555 1_555
N9_6 Cu4_4 1_555 1_555
C12_6 N8_6 1_555 1_555
H17_6 C12_6 1_555 1_555
H18_6 C10_6 1_555 1_555
H19_6 O10_6 1_555 1_555
N3_6 C4_6 1_555 1_555
N3_6 Cu5 1_555 1_555
N6_6 C8_6 1_555 1_555
N6_6 Cu6_3 1_555 1_555
N7_6 N9_6 1_555 1_555
N9_6 C12_6 1_555 1_555
Cu4 N1_7 1_555 1_555
N1_7 C1_7 1_555 1_555
N2_7 C1_7 1_555 1_555
O1_7 Cu4 1_555 1_555
O2_7 C3_7 1_555 1_555
O11_2 C3_7 1_555 1_555
C1_7 H1_7 1_555 1_555
C2_7 N2_7 1_555 1_555
H2_7 C2_7 1_555 1_555
C3_7 C2_7 1_555 1_555
H3_7 O1_7 1_555 1_555
O4_7 Cu4 1_555 1_555
H4_7 O4_7 1_555 1_555
N3_7 N1_7 1_555 1_555
C4_7 N2_7 1_555 1_555
H5_7 C4_7 1_555 1_555
H6_7 C2_7 1_555 1_555
H7_7 O4_7 1_555 1_555
Cu5_4 O1_7 1_555 1_555
N4_7 Cu5_4 1_555 1_555
N5_7 C5_7 1_555 1_555
O5_7 C7_7 1_555 1_555
O12 C7_7 1_555 1_555
C5_7 N4_7 1_555 1_555
H8_7 C5_7 1_555 1_555
C6_7 N5_7 1_555 1_555
H9_7 C6_7 1_555 1_555
C7_7 C6_7 1_555 1_555
O7_7 Cu5_4 1_555 1_555
H10_7 O7_7 1_555 1_555
N6_7 N4_7 1_555 1_555
C8_7 N5_7 1_555 1_555
H11_7 C8_7 1_555 1_555
H12_7 C6_7 1_555 1_555
H13_7 O7_7 1_555 1_555
Cu6_2 O1_7 1_555 1_555
N7_7 Cu6_2 1_555 1_555
N8_7 C9_7 1_555 1_555
O8_7 C11_7 1_555 1_555
O13_4 C11_7 1_555 1_555
C9_7 N7_7 1_555 1_555
H14_7 C9_7 1_555 1_555
C10_7 N8_7 1_555 1_555
H15_7 C10_7 1_555 1_555
C11_7 C10_7 1_555 1_555
O10_7 Cu6_2 1_555 1_555
H16_7 O10_7 1_555 1_555
N9_7 Cu4 1_555 1_555
C12_7 N8_7 1_555 1_555
H17_7 C12_7 1_555 1_555
H18_7 C10_7 1_555 1_555
H19_7 O10_7 1_555 1_555
N3_7 C4_7 1_555 1_555
N3_7 Cu5_4 1_555 1_555
N6_7 C8_7 1_555 1_555
N6_7 Cu6_2 1_555 1_555
N7_7 N9_7 1_555 1_555
N9_7 C12_7 1_555 1_555
Cu4_2 N1_8 1_555 1_555
N1_8 C1_8 1_555 1_555
N2_8 C1_8 1_555 1_555
O1_8 Cu4_2 1_555 1_555
O2_8 C3_8 1_555 1_555
O11 C3_8 1_555 1_555
C1_8 H1_8 1_555 1_555
C2_8 N2_8 1_555 1_555
H2_8 C2_8 1_555 1_555
C3_8 C2_8 1_555 1_555
H3_8 O1_8 1_555 1_555
O4_8 Cu4_2 1_555 1_555
H4_8 O4_8 1_555 1_555
N3_8 N1_8 1_555 1_555
C4_8 N2_8 1_555 1_555
H5_8 C4_8 1_555 1_555
H6_8 C2_8 1_555 1_555
H7_8 O4_8 1_555 1_555
Cu5_3 O1_8 1_555 1_555
N4_8 Cu5_3 1_555 1_555
N5_8 C5_8 1_555 1_555
O5_8 C7_8 1_555 1_555
O12_2 C7_8 1_555 1_555
C5_8 N4_8 1_555 1_555
H8_8 C5_8 1_555 1_555
C6_8 N5_8 1_555 1_555
H9_8 C6_8 1_555 1_555
C7_8 C6_8 1_555 1_555
O7_8 Cu5_3 1_555 1_555
H10_8 O7_8 1_555 1_555
N6_8 N4_8 1_555 1_555
C8_8 N5_8 1_555 1_555
H11_8 C8_8 1_555 1_555
H12_8 C6_8 1_555 1_555
H13_8 O7_8 1_555 1_555
Cu6 O1_8 1_555 1_555
N7_8 Cu6 1_555 1_555
N8_8 C9_8 1_555 1_555
O8_8 C11_8 1_555 1_555
O13_3 C11_8 1_555 1_555
C9_8 N7_8 1_555 1_555
H14_8 C9_8 1_555 1_555
C10_8 N8_8 1_555 1_555
H15_8 C10_8 1_555 1_555
C11_8 C10_8 1_555 1_555
O10_8 Cu6 1_555 1_555
H16_8 O10_8 1_555 1_555
N9_8 Cu4_2 1_555 1_555
C12_8 N8_8 1_555 1_555
H17_8 C12_8 1_555 1_555
H18_8 C10_8 1_555 1_555
H19_8 O10_8 1_555 1_555
N3_8 C4_8 1_555 1_555
N3_8 Cu5_3 1_555 1_555
N6_8 C8_8 1_555 1_555
N6_8 Cu6 1_555 1_555
N7_8 N9_8 1_555 1_555
N9_8 C12_8 1_555 1_555
O14 S1 1_555 1_555
O16 S1 1_555 1_555
S1_2 O15 1_555 1_555
O17 S1_2 1_555 1_555
S1_3 O15_2 1_555 1_555
O17_2 S1_3 1_555 1_555
O14_2 S1_4 1_555 1_555
O16_2 S1_4 1_555 1_555
O14_3 S1_5 1_555 1_555
O16_3 S1_5 1_555 1_555
S1_6 O15_3 1_555 1_555
O17_3 S1_6 1_555 1_555
S1_7 O15_4 1_555 1_555
O17_4 S1_7 1_555 1_555
O14_4 S1_8 1_555 1_555
O16_4 S1_8 1_555 1_555
O14_5 S1_9 1_555 1_555
O16_5 S1_9 1_555 1_555
S1_10 O15_5 1_555 1_555
O17_5 S1_10 1_555 1_555
S1_11 O15_6 1_555 1_555
O17_6 S1_11 1_555 1_555
O14_6 S1_12 1_555 1_555
O16_6 S1_12 1_555 1_555
O14_7 S1_13 1_555 1_555
O16_7 S1_13 1_555 1_555
S1_14 O15_7 1_555 1_555
O17_7 S1_14 1_555 1_555
S1_15 O15_8 1_555 1_555
O17_8 S1_15 1_555 1_555
O14_8 S1_16 1_555 1_555
O16_8 S1_16 1_555 1_555
O14_9 S1_17 1_555 1_555
O16_9 S1_17 1_555 1_555
S1_18 O15_9 1_555 1_555
O17_9 S1_18 1_555 1_555
S1_19 O15_10 1_555 1_555
O17_10 S1_19 1_555 1_555
O14_10 S1_20 1_555 1_555
O16_10 S1_20 1_555 1_555
O14_11 S1_21 1_555 1_555
O16_11 S1_21 1_555 1_555
S1_22 O15_11 1_555 1_555
O17_11 S1_22 1_555 1_555
S1_23 O15_12 1_555 1_555
O17_12 S1_23 1_555 1_555
O14_12 S1_24 1_555 1_555
O16_12 S1_24 1_555 1_555

#END
