
###############################################################################
#
# This file contains modified crystal structure data generated from the
# MOF subset of the Cambridge Structural Database (CSD) v543 
# hosted by the Cambridge Crystallographic Data Centre (CCDC).
#
# This work is licensed under the Creative Commons
# Attribution-NonCommercial-ShareAlike 4.0 International License.
# To view a copy of this license, visit
# http://creativecommons.org/licenses/by-nc-sa/4.0/
# or send a letter to
# Creative Commons, PO Box 1866, Mountain View, CA 94042, USA.
#
# CIF created using the CSD Python API on 29 September 2022
# The structure has been converted into the P1 space group
# The structure has a 3D framework
# The original CSD entry JODFAL is in the monoclinic crystal system
# The framework has been calculated to contain at least 10.0% void space
# The void calculation uses a probe of radius 1.32A, grid spacing 0.4
#
###############################################################################

data_JODFAL
_chemical_formula_moiety         '(C44 H32 N12 Nd4 O26)n'
_symmetry_cell_setting           triclinic
_symmetry_space_group_name_H-M   'P 1'
_symmetry_Int_Tables_number      1
_space_group_name_Hall           'P 1'
loop_
_symmetry_equiv_pos_site_id
_symmetry_equiv_pos_as_xyz
1 x,y,z
_cell_length_a                   8.2878(4)
_cell_length_b                   15.1480(5)
_cell_length_c                   11.6746(5)
_cell_angle_alpha                90
_cell_angle_beta                 90.868(4)
_cell_angle_gamma                90
_cell_volume                     1465.5
loop_
_atom_site_label
_atom_site_type_symbol
_atom_site_fract_x
_atom_site_fract_y
_atom_site_fract_z
Nd1 Nd 0.28382(3) 0.131505(15) 0.43119(2)
O1 O 0.2829(4) 0.16730(19) 0.2275(3)
O2 O 0.2880(4) 0.2656(2) 0.0870(3)
O3 O 0.5020(4) 0.4114(2) 0.0502(3)
O4 O 0.6023(5) 0.5088(2) 0.1755(3)
O6 O 0.0510(5) 0.0422(3) 0.3684(3)
O7 O 0.0622(5) 0.2371(2) 0.3979(3)
H1 H -0.000(6) 0.224(4) 0.345(3)
H2 H 0.051(7) 0.2895(12) 0.412(5)
N1 N 0.4719(4) 0.2611(2) 0.3682(3)
N2 N 0.5895(5) 0.3911(3) 0.3492(3)
H3 H 0.640(6) 0.435(3) 0.365(4)
N3 N 0.8348(5) 0.2943(3) 0.7317(4)
C1 C 0.3283(5) 0.2397(3) 0.1851(4)
C2 C 0.4354(5) 0.2947(3) 0.2605(4)
C3 C 0.5090(5) 0.3756(3) 0.2471(4)
C4 C 0.5354(6) 0.4370(3) 0.1498(4)
C5 C 0.5683(6) 0.3209(3) 0.4181(4)
C6 C 0.6546(6) 0.3120(3) 0.5290(4)
C7 C 0.6535(6) 0.3775(3) 0.6124(4)
H4 H 0.5937 0.4288 0.6013
C8 C 0.7425(6) 0.3651(4) 0.7120(4)
H5 H 0.7379 0.4083 0.7683
C9 C 0.8361(6) 0.2324(4) 0.6515(5)
H6 H 0.8999 0.1827 0.6638
C10 C 0.7472(6) 0.2379(3) 0.5505(4)
H7 H 0.7499 0.1921 0.4975
O8 O 0.1444(4) 0.0512(2) 0.5874(3)
C12 C 0.0249(6) 0.0027(3) 0.5590(5)
Nd4 Nd 0.71618(3) 0.631505(15) 0.06881(2)
O16 O 0.2880(4) 0.2344(2) 0.5870(3)
O18 O 0.5020(4) 0.0886(2) 0.5502(3)
O19 O 0.3977(5) 0.0088(2) 0.3245(3)
Nd6 Nd 0.28382(3) 0.368495(15) 0.93119(2)
O5 O 0.8556(4) 0.9488(2) 0.4126(3)
C11 C 0.9751(6) 0.9973(3) 0.4410(5)
O9 O 0.9490(5) 0.9578(3) 0.6316(3)
Nd2 Nd 0.71618(3) 0.868495(15) 0.56881(2)
O10 O 0.7171(4) 0.83270(19) 0.7725(3)
O11 O 0.7120(4) 0.7344(2) 0.9130(3)
O12 O 0.4980(4) 0.5886(2) 0.9498(3)
O13 O 0.3977(5) 0.4912(2) 0.8245(3)
O14 O 0.9378(5) 0.7629(2) 0.6021(3)
H8 H 1.000(6) 0.776(4) 0.655(3)
H9 H 0.949(7) 0.7105(12) 0.588(5)
N4 N 0.5281(4) 0.7389(2) 0.6318(3)
N5 N 0.4105(5) 0.6089(3) 0.6508(3)
H10 H 0.360(6) 0.565(3) 0.635(4)
N6 N 0.1652(5) 0.7057(3) 0.2683(4)
C13 C 0.6717(5) 0.7603(3) 0.8149(4)
C14 C 0.5646(5) 0.7053(3) 0.7395(4)
C15 C 0.4910(5) 0.6244(3) 0.7529(4)
C16 C 0.4646(6) 0.5630(3) 0.8502(4)
C17 C 0.4317(6) 0.6791(3) 0.5819(4)
C18 C 0.3454(6) 0.6880(3) 0.4710(4)
C19 C 0.3465(6) 0.6225(3) 0.3876(4)
H11 H 0.4063 0.5712 0.3987
C20 C 0.2575(6) 0.6349(4) 0.2880(4)
H12 H 0.2621 0.5917 0.2317
C21 C 0.1639(6) 0.7676(4) 0.3485(5)
H13 H 0.1001 0.8173 0.3362
C22 C 0.2528(6) 0.7621(3) 0.4495(4)
H14 H 0.2501 0.8079 0.5025
O15 O 0.7120(4) 0.7656(2) 0.4130(3)
O17 O 0.4980(4) 0.9114(2) 0.4498(3)
O20 O 0.6023(5) 0.9912(2) 0.6755(3)
O5_2 O 0.1444(4) 0.4488(2) 0.0874(3)
H1_2 H 0.000(6) 0.724(4) 0.155(3)
C11_2 C 0.0249(6) 0.4973(3) 0.0590(5)
N6_2 N 0.8348(5) 0.2057(3) 0.2317(4)
C18_2 C 0.6546(6) 0.1880(3) 0.0290(4)
C19_2 C 0.6535(6) 0.1225(3) 0.1124(4)
H11_2 H 0.5937 0.0712 0.1013
C20_2 C 0.7425(6) 0.1349(4) 0.2120(4)
H12_2 H 0.7379 0.0917 0.2683
C21_2 C 0.8361(6) 0.2676(4) 0.1515(5)
H13_2 H 0.8999 0.3173 0.1638
C22_2 C 0.7472(6) 0.2621(3) 0.0505(4)
O9_2 O 0.0510(5) 0.4578(3) 0.8684(3)
O10_2 O 0.2829(4) 0.33270(19) 0.7275(3)
O14_2 O 0.0622(5) 0.2629(2) 0.8979(3)
H8_2 H 0.000(6) 0.276(4) 0.845(3)
H9_2 H 0.051(7) 0.2105(12) 0.912(5)
N4_2 N 0.4719(4) 0.2389(2) 0.8682(3)
N5_2 N 0.5895(5) 0.1089(3) 0.8492(3)
H10_2 H 0.640(6) 0.065(3) 0.865(4)
C13_2 C 0.3283(5) 0.2603(3) 0.6851(4)
C14_2 C 0.4354(5) 0.2053(3) 0.7605(4)
C15_2 C 0.5090(5) 0.1244(3) 0.7471(4)
C16_2 C 0.5354(6) 0.0630(3) 0.6498(4)
C17_2 C 0.5683(6) 0.1791(3) 0.9181(4)
H14_2 H 0.7499 0.3079 0.9975
O1_2 O 0.7171(4) 0.66730(19) 0.2725(3)
O6_2 O 0.9490(5) 0.5422(3) 0.1316(3)
O7_2 O 0.9378(5) 0.7371(2) 0.1021(3)
H1_3 H 1.000(6) 0.724(4) 0.155(3)
H2_2 H 0.949(7) 0.7895(12) 0.088(5)
N1_2 N 0.5281(4) 0.7611(2) 0.1318(3)
N2_2 N 0.4105(5) 0.8911(3) 0.1508(3)
H3_2 H 0.360(6) 0.935(3) 0.135(4)
C1_2 C 0.6717(5) 0.7397(3) 0.3149(4)
C2_2 C 0.5646(5) 0.7947(3) 0.2395(4)
C3_2 C 0.4910(5) 0.8756(3) 0.2529(4)
C4_2 C 0.4646(6) 0.9370(3) 0.3502(4)
C5_2 C 0.4317(6) 0.8209(3) 0.0819(4)
H7_2 H 0.2501 0.6921 0.0025
N3_2 N 0.1652(5) 0.7943(3) 0.7683(4)
C6_2 C 0.3454(6) 0.8120(3) 0.9710(4)
C7_2 C 0.3465(6) 0.8775(3) 0.8876(4)
H4_2 H 0.4063 0.9288 0.8987
C8_2 C 0.2575(6) 0.8651(4) 0.7880(4)
H5_2 H 0.2621 0.9083 0.7317
C9_2 C 0.1639(6) 0.7324(4) 0.8485(5)
H6_2 H 0.1001 0.6827 0.8362
C10_2 C 0.2528(6) 0.7379(3) 0.9495(4)
O8_2 O 0.8556(4) 0.5512(2) 0.9126(3)
C12_2 C 0.9751(6) 0.5027(3) 0.9410(5)
H8_3 H 1.000(6) 0.276(4) 0.845(3)
H8_4 H -0.000(6) 0.776(4) 0.655(3)
H1_4 H 1.000(6) 0.224(4) 0.345(3)
loop_
_geom_bond_atom_site_label_1
_geom_bond_atom_site_label_2
_geom_bond_site_symmetry_1
_geom_bond_site_symmetry_2
Nd1 O1 1_555 1_555
O1 C1 1_555 1_555
O2 C1 1_555 1_555
O3 C4 1_555 1_555
O4 C4 1_555 1_555
O6 Nd1 1_555 1_555
O7 Nd1 1_555 1_555
H1 O7 1_555 1_555
H2 O7 1_555 1_555
N1 Nd1 1_555 1_555
N2 H3 1_555 1_555
N3 C8 1_555 1_555
C1 C2 1_555 1_555
C2 N1 1_555 1_555
C3 N2 1_555 1_555
C4 C3 1_555 1_555
C5 N1 1_555 1_555
C6 C5 1_555 1_555
C7 C6 1_555 1_555
H4 C7 1_555 1_555
C8 C7 1_555 1_555
H5 C8 1_555 1_555
C9 N3 1_555 1_555
H6 C9 1_555 1_555
C10 C6 1_555 1_555
H7 C10 1_555 1_555
O8 Nd1 1_555 1_555
Nd4 O4 1_555 1_555
O16 Nd1 1_555 1_555
O18 Nd1 1_555 1_555
O19 Nd1 1_555 1_555
N2 C5 1_555 1_555
C2 C3 1_555 1_555
C9 C10 1_555 1_555
O8 C12 1_555 1_555
O5 C11 1_555 1_555
Nd2 O5 1_555 1_555
O10 Nd2 1_555 1_555
O11 C13 1_555 1_555
O12 C16 1_555 1_555
O13 C16 1_555 1_555
O14 Nd2 1_555 1_555
H8 O14 1_555 1_555
H9 O14 1_555 1_555
N4 Nd2 1_555 1_555
N5 H10 1_555 1_555
N6 C20 1_555 1_555
C13 O10 1_555 1_555
C14 N4 1_555 1_555
C15 N5 1_555 1_555
C16 C15 1_555 1_555
C17 N4 1_555 1_555
C18 C17 1_555 1_555
C19 C18 1_555 1_555
H11 C19 1_555 1_555
C20 C19 1_555 1_555
H12 C20 1_555 1_555
C21 N6 1_555 1_555
H13 C21 1_555 1_555
C22 C18 1_555 1_555
H14 C22 1_555 1_555
Nd6 O13 1_555 1_555
O15 Nd2 1_555 1_555
O17 Nd2 1_555 1_555
O20 Nd2 1_555 1_555
O9 Nd2 1_555 1_555
N5 C17 1_555 1_555
C13 C14 1_555 1_555
C14 C15 1_555 1_555
C21 C22 1_555 1_555
O5_2 C11_2 1_555 1_555
N6_2 C20_2 1_555 1_555
C19_2 C18_2 1_555 1_555
H11_2 C19_2 1_555 1_555
C20_2 C19_2 1_555 1_555
H12_2 C20_2 1_555 1_555
C21_2 N6_2 1_555 1_555
H13_2 C21_2 1_555 1_555
C22_2 C18_2 1_555 1_555
C21_2 C22_2 1_555 1_555
O10_2 Nd6 1_555 1_555
O16 C13_2 1_555 1_555
O18 C16_2 1_555 1_555
O14_2 Nd6 1_555 1_555
H8_2 O14_2 1_555 1_555
H9_2 O14_2 1_555 1_555
N4_2 Nd6 1_555 1_555
N5_2 H10_2 1_555 1_555
C13_2 O10_2 1_555 1_555
C14_2 N4_2 1_555 1_555
C15_2 N5_2 1_555 1_555
C16_2 C15_2 1_555 1_555
C17_2 N4_2 1_555 1_555
O9_2 Nd6 1_555 1_555
N5_2 C17_2 1_555 1_555
C13_2 C14_2 1_555 1_555
C14_2 C15_2 1_555 1_555
Nd4 O1_2 1_555 1_555
O1_2 C1_2 1_555 1_555
O15 C1_2 1_555 1_555
O17 C4_2 1_555 1_555
O6_2 Nd4 1_555 1_555
O7_2 Nd4 1_555 1_555
H1_3 O7_2 1_555 1_555
H2_2 O7_2 1_555 1_555
N1_2 Nd4 1_555 1_555
N2_2 H3_2 1_555 1_555
C1_2 C2_2 1_555 1_555
C2_2 N1_2 1_555 1_555
C3_2 N2_2 1_555 1_555
C4_2 C3_2 1_555 1_555
C5_2 N1_2 1_555 1_555
N2_2 C5_2 1_555 1_555
C2_2 C3_2 1_555 1_555
N3_2 C8_2 1_555 1_555
C7_2 C6_2 1_555 1_555
H4_2 C7_2 1_555 1_555
C8_2 C7_2 1_555 1_555
H5_2 C8_2 1_555 1_555
C9_2 N3_2 1_555 1_555
H6_2 C9_2 1_555 1_555
C10_2 C6_2 1_555 1_555
C9_2 C10_2 1_555 1_555
O8_2 C12_2 1_555 1_555

#END
