
###############################################################################
#
# This file contains modified crystal structure data generated from the
# MOF subset of the Cambridge Structural Database (CSD) v543 
# hosted by the Cambridge Crystallographic Data Centre (CCDC).
#
# This work is licensed under the Creative Commons
# Attribution-NonCommercial-ShareAlike 4.0 International License.
# To view a copy of this license, visit
# http://creativecommons.org/licenses/by-nc-sa/4.0/
# or send a letter to
# Creative Commons, PO Box 1866, Mountain View, CA 94042, USA.
#
# CIF created using the CSD Python API on 29 September 2022
# The structure has been converted into the P1 space group
# The structure has a 3D framework
# The original CSD entry JODGEQ is in the tetragonal crystal system
# The original CSD entry JODGEQ is in a Sohncke space group
# The framework has been calculated to contain at least 10.0% void space
# The void calculation uses a probe of radius 1.32A, grid spacing 0.4
#
###############################################################################

data_JODGEQ
_chemical_formula_moiety         '(C192 H144 Co16 N24 O48)n'
_symmetry_cell_setting           triclinic
_symmetry_space_group_name_H-M   'P 1'
_symmetry_Int_Tables_number      1
_space_group_name_Hall           'P 1'
loop_
_symmetry_equiv_pos_site_id
_symmetry_equiv_pos_as_xyz
1 x,y,z
_cell_length_a                   17.4848(8)
_cell_length_b                   17.4848(8)
_cell_length_c                   20.2126(9)
_cell_angle_alpha                90
_cell_angle_beta                 90
_cell_angle_gamma                90
_cell_volume                     6179.36
loop_
_atom_site_label
_atom_site_type_symbol
_atom_site_fract_x
_atom_site_fract_y
_atom_site_fract_z
C20 C 0.0320(7) 0.7270(7) 0.8032(6)
C21 C 0.0604(8) 0.6656(8) 0.7711(6)
H15 H 0.0362 0.6176 0.7781
C22 C 0.1210(8) 0.6679(8) 0.7297(6)
H16 H 0.1420 0.6228 0.7108
C23 C 0.1231(7) 0.7972(7) 0.7470(6)
H17 H 0.1511 0.8434 0.7420
C24 C 0.0576(8) 0.7985(8) 0.7847(6)
H18 H 0.0323 0.8445 0.7970
N3 N 0.1491(7) 0.7353(6) 0.7173(5)
Co7 Co 0.25788(9) 0.74479(9) 0.66584(7)
H10 H 0.7042 0.5882 0.9908
C17 C 0.8534(7) 0.7609(6) 0.9124(6)
C18 C 0.9163(7) 0.7710(9) 0.8649(6)
H13 H 0.9213 0.8202 0.8454
C19 C 0.9655(7) 0.7197(8) 0.8469(6)
H14 H 0.9573 0.6700 0.8647
O1 O 0.8331(6) 0.6968(6) 0.9333(5)
O6 O 0.8264(6) 0.8222(6) 0.9356(4)
Co1 Co 0.75611(9) 0.75611(9) 1.0000
C25 C 0.2503(8) 0.3726(5) 0.3874(4)
C26 C 0.2456(8) 0.4451(6) 0.4258(4)
H19 H 0.2407 0.4929 0.4038
C27 C 0.2485(9) 0.4419(6) 0.4910(4)
H20 H 0.2494 0.3935 0.5123
C28 C 0.2502(9) 0.5118(5) 0.5313(5)
C29 C 0.2676(8) 0.5135(6) 0.5986(4)
H21 H 0.2808 0.4663 0.6189
C30 C 0.2675(8) 0.5773(5) 0.6380(5)
H22 H 0.2795 0.5732 0.6837
C31 C 0.2262(8) 0.6487(6) 0.5505(4)
H23 H 0.2084 0.6961 0.5335
C32 C 0.2273(8) 0.5822(6) 0.5107(5)
H24 H 0.2107 0.5871 0.4661
C33 C 0.3829(5) 0.7419(8) 0.7188(4)
C34 C 0.4561(6) 0.7422(8) 0.7561(5)
H25 H 0.5023 0.7453 0.7315
C35 C 0.4609(6) 0.7386(9) 0.8198(5)
H26 H 0.4138 0.7327 0.8426
C36 C 0.5300(5) 0.7423(8) 0.8621(4)
C37 C 0.5235(6) 0.7209(7) 0.9287(4)
H27 H 0.4756 0.7087 0.9483
C38 C 0.5915(5) 0.7188(7) 0.9640(5)
C39 C 0.6638(6) 0.7554(7) 0.8766(4)
H29 H 0.7106 0.7745 0.8593
C40 C 0.6023(5) 0.7502(9) 0.8344(5)
H30 H 0.6091 0.7519 0.7878
N4 N 0.2507(6) 0.6429(5) 0.6125(4)
N5 N 0.6620(4) 0.7353(6) 0.9407(3)
O8 O 0.2610(7) 0.3099(5) 0.4174(4)
O9 O 0.2400(5) 0.3752(4) 0.3266(3)
O10 O 0.3829(4) 0.7495(5) 0.6582(3)
O11 O 0.3242(5) 0.7245(6) 0.7487(4)
O13 O 0.2390(7) 0.8099(5) 0.5826(4)
O15 O 0.2600(5) 0.8752(4) 0.6734(3)
Co5 Co 0.24212(9) 0.24479(9) 0.33416(7)
C4 C 0.2498(9) 0.0118(5) 0.4687(5)
C5 C 0.2324(8) 0.0135(6) 0.4014(4)
C6 C 0.2325(8) 0.0773(5) 0.3620(5)
H4 H 0.2205 0.0732 0.3163
C7 C 0.2738(8) 0.1487(6) 0.4495(4)
H5 H 0.2916 0.1961 0.4665
C8 C 0.2727(8) 0.0822(6) 0.4893(5)
H6 H 0.2893 0.0871 0.5339
C9 C 0.1171(5) 0.2419(8) 0.2812(4)
C10 C 0.0439(6) 0.2422(8) 0.2439(5)
C11 C 0.0391(6) 0.2386(9) 0.1802(5)
H8 H 0.0862 0.2327 0.1574
H9 H 0.0244 0.2087 0.0517
N1 N 0.2493(6) 0.1429(5) 0.3875(4)
O4 O 0.1171(4) 0.2495(5) 0.3418(3)
O5 O 0.1758(5) 0.2245(6) 0.2513(4)
N8 N 0.3509(7) 0.2353(6) 0.2827(5)
C1 C 0.2497(8) 0.8726(5) 0.6126(4)
C2 C 0.2544(8) 0.9451(6) 0.5742(4)
H1 H 0.2593 0.9929 0.5962
C3 C 0.2515(9) 0.9419(6) 0.5090(4)
H2 H 0.2506 0.8935 0.4877
H3 H 0.2192 0.9663 0.3811
H7 H 0.9977 0.2453 0.2685
C12 C 0.9700(5) 0.2423(8) 0.1379(4)
C13 C 0.9765(6) 0.2209(7) 0.0713(4)
C14 C 0.9085(5) 0.2188(7) 0.0360(5)
C15 C 0.8362(6) 0.2554(7) 0.1234(4)
H11 H 0.7894 0.2745 0.1407
C16 C 0.8977(5) 0.2502(9) 0.1656(5)
H12 H 0.8909 0.2519 0.2122
N2 N 0.8380(4) 0.2353(6) 0.0593(3)
Co1_2 Co 0.74389(9) 0.25611(9) 0.0000
H28 H 0.7958 0.0882 0.0092
C41 C 0.6466(7) 0.2609(6) 0.0876(6)
C42 C 0.5837(7) 0.2710(9) 0.1351(6)
H31 H 0.5787 0.3202 0.1546
C43 C 0.5345(7) 0.2197(8) 0.1531(6)
H32 H 0.5427 0.1700 0.1353
C44 C 0.4680(7) 0.2270(7) 0.1968(6)
C45 C 0.4396(8) 0.1656(8) 0.2289(6)
H33 H 0.4638 0.1176 0.2219
C46 C 0.3790(8) 0.1679(8) 0.2703(6)
H34 H 0.3580 0.1228 0.2892
C47 C 0.3769(7) 0.2972(7) 0.2530(6)
H35 H 0.3489 0.3434 0.2580
C48 C 0.4424(8) 0.2985(8) 0.2153(6)
H36 H 0.4677 0.3445 0.2030
O7 O 0.6669(6) 0.1968(6) 0.0667(5)
O12 O 0.6736(6) 0.3222(6) 0.0644(4)
C44_2 C 0.7270(7) 0.0320(7) 0.1968(6)
C45_2 C 0.6656(8) 0.0604(8) 0.2289(6)
H33_2 H 0.6176 0.0362 0.2219
C46_2 C 0.6679(8) 0.1210(8) 0.2703(6)
H34_2 H 0.6228 0.1420 0.2892
C47_2 C 0.7972(7) 0.1231(7) 0.2530(6)
H35_2 H 0.8434 0.1511 0.2580
C48_2 C 0.7985(8) 0.0576(8) 0.2153(6)
H36_2 H 0.8445 0.0323 0.2030
N6 N 0.7353(6) 0.1491(7) 0.2827(5)
Co4 Co 0.74479(9) 0.25788(9) 0.33416(7)
C1_2 C 0.3726(5) 0.2503(8) 0.6126(4)
C2_2 C 0.4451(6) 0.2456(8) 0.5742(4)
H1_2 H 0.4929 0.2407 0.5962
C3_2 C 0.4419(6) 0.2485(9) 0.5090(4)
H2_2 H 0.3935 0.2494 0.4877
C4_2 C 0.5118(5) 0.2502(9) 0.4687(5)
C5_2 C 0.5135(6) 0.2676(8) 0.4014(4)
H3_2 H 0.4663 0.2808 0.3811
C6_2 C 0.5773(5) 0.2675(8) 0.3620(5)
H4_2 H 0.5732 0.2795 0.3163
C7_2 C 0.6487(6) 0.2262(8) 0.4495(4)
H5_2 H 0.6961 0.2084 0.4665
C8_2 C 0.5822(6) 0.2273(8) 0.4893(5)
H6_2 H 0.5871 0.2107 0.5339
C9_2 C 0.7419(8) 0.3829(5) 0.2812(4)
C10_2 C 0.7422(8) 0.4561(6) 0.2439(5)
H7_2 H 0.7453 0.5023 0.2685
C11_2 C 0.7386(9) 0.4609(6) 0.1802(5)
H8_2 H 0.7327 0.4138 0.1574
C12_2 C 0.7423(8) 0.5300(5) 0.1379(4)
C13_2 C 0.7209(7) 0.5235(6) 0.0713(4)
H9_2 H 0.7087 0.4756 0.0517
C14_2 C 0.7188(7) 0.5915(5) 0.0360(5)
C15_2 C 0.7554(7) 0.6638(6) 0.1234(4)
H11_2 H 0.7745 0.7106 0.1407
C16_2 C 0.7502(9) 0.6023(5) 0.1656(5)
H12_2 H 0.7519 0.6091 0.2122
N1_2 N 0.6429(5) 0.2507(6) 0.3875(4)
N2_2 N 0.7353(6) 0.6620(4) 0.0593(3)
O2 O 0.3099(5) 0.2610(7) 0.5826(4)
O3 O 0.3752(4) 0.2400(5) 0.6734(3)
O4_2 O 0.7495(5) 0.3829(4) 0.3418(3)
O5_2 O 0.7245(6) 0.3242(5) 0.2513(4)
Co1_3 Co 0.75611(9) 0.75611(9) 0.0000
H28_2 H 0.5882 0.7042 0.0092
C41_2 C 0.7609(6) 0.8534(7) 0.0876(6)
C42_2 C 0.7710(9) 0.9163(7) 0.1351(6)
H31_2 H 0.8202 0.9213 0.1546
C43_2 C 0.7197(8) 0.9655(7) 0.1531(6)
H32_2 H 0.6700 0.9573 0.1353
O7_2 O 0.6968(6) 0.8331(6) 0.0667(5)
O12_2 O 0.8222(6) 0.8264(6) 0.0644(4)
O14 O 0.8099(5) 0.2390(7) 0.4174(4)
O16 O 0.8752(4) 0.2600(5) 0.3266(3)
Co6 Co 0.24479(9) 0.24212(9) 0.66584(7)
C28_2 C 0.0118(5) 0.2498(9) 0.5313(5)
C29_2 C 0.0135(6) 0.2324(8) 0.5986(4)
C30_2 C 0.0773(5) 0.2325(8) 0.6380(5)
H22_2 H 0.0732 0.2205 0.6837
C31_2 C 0.1487(6) 0.2738(8) 0.5505(4)
H23_2 H 0.1961 0.2916 0.5335
C32_2 C 0.0822(6) 0.2727(8) 0.5107(5)
H24_2 H 0.0871 0.2893 0.4661
C33_2 C 0.2419(8) 0.1171(5) 0.7188(4)
C34_2 C 0.2422(8) 0.0439(6) 0.7561(5)
C35_2 C 0.2386(9) 0.0391(6) 0.8198(5)
H26_2 H 0.2327 0.0862 0.8426
H27_2 H 0.2087 0.0244 0.9483
N4_2 N 0.1429(5) 0.2493(6) 0.6125(4)
O10_2 O 0.2495(5) 0.1171(4) 0.6582(3)
O11_2 O 0.2245(6) 0.1758(5) 0.7487(4)
N7 N 0.2353(6) 0.3509(7) 0.7173(5)
H10_2 H 0.0882 0.7958 0.9908
C17_2 C 0.2609(6) 0.6466(7) 0.9124(6)
C18_2 C 0.2710(9) 0.5837(7) 0.8649(6)
H13_2 H 0.3202 0.5787 0.8454
C19_2 C 0.2197(8) 0.5345(7) 0.8469(6)
H14_2 H 0.1700 0.5427 0.8647
C20_2 C 0.2270(7) 0.4680(7) 0.8032(6)
C21_2 C 0.1656(8) 0.4396(8) 0.7711(6)
H15_2 H 0.1176 0.4638 0.7781
C22_2 C 0.1679(8) 0.3790(8) 0.7297(6)
H16_2 H 0.1228 0.3580 0.7108
C23_2 C 0.2972(7) 0.3769(7) 0.7470(6)
H17_2 H 0.3434 0.3489 0.7420
C24_2 C 0.2985(8) 0.4424(8) 0.7847(6)
H18_2 H 0.3445 0.4677 0.7970
O1_2 O 0.1968(6) 0.6669(6) 0.9333(5)
O6_2 O 0.3222(6) 0.6736(6) 0.9356(4)
Co1_4 Co 0.25611(9) 0.74389(9) 1.0000
H25_2 H 0.2453 0.9977 0.7315
C36_2 C 0.2423(8) 0.9700(5) 0.8621(4)
C37_2 C 0.2209(7) 0.9765(6) 0.9287(4)
C38_2 C 0.2188(7) 0.9085(5) 0.9640(5)
C39_2 C 0.2554(7) 0.8362(6) 0.8766(4)
H29_2 H 0.2745 0.7894 0.8593
C40_2 C 0.2502(9) 0.8977(5) 0.8344(5)
H30_2 H 0.2519 0.8909 0.7878
N5_2 N 0.2353(6) 0.8380(4) 0.9407(3)
C25_2 C 0.8726(5) 0.2497(8) 0.3874(4)
C26_2 C 0.9451(6) 0.2544(8) 0.4258(4)
H19_2 H 0.9929 0.2593 0.4038
C27_2 C 0.9419(6) 0.2515(9) 0.4910(4)
H20_2 H 0.8935 0.2506 0.5123
H21_2 H 0.9663 0.2192 0.6189
C25_3 C 0.1274(5) 0.7503(8) 0.3874(4)
C26_3 C 0.0549(6) 0.7456(8) 0.4258(4)
H19_3 H 0.0071 0.7407 0.4038
C27_3 C 0.0581(6) 0.7485(9) 0.4910(4)
H20_3 H 0.1065 0.7494 0.5123
H21_3 H 0.0337 0.7808 0.6189
O8_2 O 0.1901(5) 0.7610(7) 0.4174(4)
O9_2 O 0.1248(4) 0.7400(5) 0.3266(3)
Co5_2 Co 0.25521(9) 0.74212(9) 0.33416(7)
H10_3 H 0.9118 0.2042 0.9908
C17_3 C 0.7391(6) 0.3534(7) 0.9124(6)
C18_3 C 0.7290(9) 0.4163(7) 0.8649(6)
H13_3 H 0.6798 0.4213 0.8454
C19_3 C 0.7803(8) 0.4655(7) 0.8469(6)
H14_3 H 0.8300 0.4573 0.8647
C20_3 C 0.7730(7) 0.5320(7) 0.8032(6)
C21_3 C 0.8344(8) 0.5604(8) 0.7711(6)
H15_3 H 0.8824 0.5362 0.7781
C22_3 C 0.8321(8) 0.6210(8) 0.7297(6)
H16_3 H 0.8772 0.6420 0.7108
C23_3 C 0.7028(7) 0.6231(7) 0.7470(6)
H17_3 H 0.6566 0.6511 0.7420
C24_3 C 0.7015(8) 0.5576(8) 0.7847(6)
H18_3 H 0.6555 0.5323 0.7970
N3_2 N 0.7647(6) 0.6491(7) 0.7173(5)
O1_3 O 0.8032(6) 0.3331(6) 0.9333(5)
O6_3 O 0.6778(6) 0.3264(6) 0.9356(4)
Co1_5 Co 0.74389(9) 0.25611(9) 1.0000
H25_3 H 0.7547 0.0023 0.7315
C36_3 C 0.7577(8) 0.0300(5) 0.8621(4)
C37_3 C 0.7791(7) 0.0235(6) 0.9287(4)
C38_3 C 0.7812(7) 0.0915(5) 0.9640(5)
C39_3 C 0.7446(7) 0.1638(6) 0.8766(4)
H29_3 H 0.7255 0.2106 0.8593
C40_3 C 0.7498(9) 0.1023(5) 0.8344(5)
H30_3 H 0.7481 0.1091 0.7878
N5_3 N 0.7647(6) 0.1620(4) 0.9407(3)
Co7_2 Co 0.75521(9) 0.75788(9) 0.66584(7)
C28_3 C 0.9882(5) 0.7502(9) 0.5313(5)
C29_3 C 0.9865(6) 0.7676(8) 0.5986(4)
C30_3 C 0.9227(5) 0.7675(8) 0.6380(5)
H22_3 H 0.9268 0.7795 0.6837
C31_3 C 0.8513(6) 0.7262(8) 0.5505(4)
H23_3 H 0.8039 0.7084 0.5335
C32_3 C 0.9178(6) 0.7273(8) 0.5107(5)
H24_3 H 0.9129 0.7107 0.4661
C33_3 C 0.7581(8) 0.8829(5) 0.7188(4)
C34_3 C 0.7578(8) 0.9561(6) 0.7561(5)
C35_3 C 0.7614(9) 0.9609(6) 0.8198(5)
H26_3 H 0.7673 0.9138 0.8426
H27_3 H 0.7913 0.9756 0.9483
N4_3 N 0.8571(5) 0.7507(6) 0.6125(4)
O10_3 O 0.7505(5) 0.8829(4) 0.6582(3)
O11_3 O 0.7755(6) 0.8242(5) 0.7487(4)
O13_2 O 0.6901(5) 0.7390(7) 0.5826(4)
O15_2 O 0.6248(4) 0.7600(5) 0.6734(3)
C1_3 C 0.6274(5) 0.7497(8) 0.6126(4)
C2_3 C 0.5549(6) 0.7544(8) 0.5742(4)
H1_3 H 0.5071 0.7593 0.5962
C3_3 C 0.5581(6) 0.7515(9) 0.5090(4)
H2_3 H 0.6065 0.7506 0.4877
C4_3 C 0.4882(5) 0.7498(9) 0.4687(5)
C5_3 C 0.4865(6) 0.7324(8) 0.4014(4)
H3_3 H 0.5337 0.7192 0.3811
C6_3 C 0.4227(5) 0.7325(8) 0.3620(5)
H4_3 H 0.4268 0.7205 0.3163
C7_3 C 0.3513(6) 0.7738(8) 0.4495(4)
H5_3 H 0.3039 0.7916 0.4665
C8_3 C 0.4178(6) 0.7727(8) 0.4893(5)
H6_3 H 0.4129 0.7893 0.5339
C9_3 C 0.2581(8) 0.6171(5) 0.2812(4)
C10_3 C 0.2578(8) 0.5439(6) 0.2439(5)
H7_3 H 0.2547 0.4977 0.2685
C11_3 C 0.2614(9) 0.5391(6) 0.1802(5)
H8_3 H 0.2673 0.5862 0.1574
C12_3 C 0.2577(8) 0.4700(5) 0.1379(4)
C13_3 C 0.2791(7) 0.4765(6) 0.0713(4)
H9_3 H 0.2913 0.5244 0.0517
C14_3 C 0.2812(7) 0.4085(5) 0.0360(5)
C15_3 C 0.2446(7) 0.3362(6) 0.1234(4)
H11_3 H 0.2255 0.2894 0.1407
C16_3 C 0.2498(9) 0.3977(5) 0.1656(5)
H12_3 H 0.2481 0.3909 0.2122
N1_3 N 0.3571(5) 0.7493(6) 0.3875(4)
N2_3 N 0.2647(6) 0.3380(4) 0.0593(3)
O4_3 O 0.2505(5) 0.6171(4) 0.3418(3)
O5_3 O 0.2755(6) 0.6758(5) 0.2513(4)
Co1_6 Co 0.24389(9) 0.24389(9) 0.0000
H28_3 H 0.4118 0.2958 0.0092
C41_3 C 0.2391(6) 0.1466(7) 0.0876(6)
C42_3 C 0.2290(9) 0.0837(7) 0.1351(6)
H31_3 H 0.1798 0.0787 0.1546
C43_3 C 0.2803(8) 0.0345(7) 0.1531(6)
H32_3 H 0.3300 0.0427 0.1353
O7_3 O 0.3032(6) 0.1669(6) 0.0667(5)
O12_3 O 0.1778(6) 0.1736(6) 0.0644(4)
N8_2 N 0.2647(6) 0.8509(7) 0.2827(5)
C44_3 C 0.2730(7) 0.9680(7) 0.1968(6)
C45_3 C 0.3344(8) 0.9396(8) 0.2289(6)
H33_3 H 0.3824 0.9638 0.2219
C46_3 C 0.3321(8) 0.8790(8) 0.2703(6)
H34_3 H 0.3772 0.8580 0.2892
C47_3 C 0.2028(7) 0.8769(7) 0.2530(6)
H35_3 H 0.1566 0.8489 0.2580
C48_3 C 0.2015(8) 0.9424(8) 0.2153(6)
H36_3 H 0.1555 0.9677 0.2030
H10_4 H 0.2958 0.4118 0.9908
C17_4 C 0.1466(7) 0.2391(6) 0.9124(6)
C18_4 C 0.0837(7) 0.2290(9) 0.8649(6)
H13_4 H 0.0787 0.1798 0.8454
C19_4 C 0.0345(7) 0.2803(8) 0.8469(6)
H14_4 H 0.0427 0.3300 0.8647
O1_4 O 0.1669(6) 0.3032(6) 0.9333(5)
O6_4 O 0.1736(6) 0.1778(6) 0.9356(4)
Co1_7 Co 0.24389(9) 0.24389(9) 1.0000
C25_4 C 0.7497(8) 0.6274(5) 0.3874(4)
C26_4 C 0.7544(8) 0.5549(6) 0.4258(4)
H19_4 H 0.7593 0.5071 0.4038
C27_4 C 0.7515(9) 0.5581(6) 0.4910(4)
H20_4 H 0.7506 0.6065 0.5123
C28_4 C 0.7498(9) 0.4882(5) 0.5313(5)
C29_4 C 0.7324(8) 0.4865(6) 0.5986(4)
H21_4 H 0.7192 0.5337 0.6189
C30_4 C 0.7325(8) 0.4227(5) 0.6380(5)
H22_4 H 0.7205 0.4268 0.6837
C31_4 C 0.7738(8) 0.3513(6) 0.5505(4)
H23_4 H 0.7916 0.3039 0.5335
C32_4 C 0.7727(8) 0.4178(6) 0.5107(5)
H24_4 H 0.7893 0.4129 0.4661
C33_4 C 0.6171(5) 0.2581(8) 0.7188(4)
C34_4 C 0.5439(6) 0.2578(8) 0.7561(5)
H25_4 H 0.4977 0.2547 0.7315
C35_4 C 0.5391(6) 0.2614(9) 0.8198(5)
H26_4 H 0.5862 0.2673 0.8426
C36_4 C 0.4700(5) 0.2577(8) 0.8621(4)
C37_4 C 0.4765(6) 0.2791(7) 0.9287(4)
H27_4 H 0.5244 0.2913 0.9483
C38_4 C 0.4085(5) 0.2812(7) 0.9640(5)
C39_4 C 0.3362(6) 0.2446(7) 0.8766(4)
H29_4 H 0.2894 0.2255 0.8593
C40_4 C 0.3977(5) 0.2498(9) 0.8344(5)
H30_4 H 0.3909 0.2481 0.7878
N4_4 N 0.7493(6) 0.3571(5) 0.6125(4)
N5_4 N 0.3380(4) 0.2647(6) 0.9407(3)
O8_3 O 0.7390(7) 0.6901(5) 0.4174(4)
O9_3 O 0.7600(5) 0.6248(4) 0.3266(3)
O10_4 O 0.6171(4) 0.2505(5) 0.6582(3)
O11_4 O 0.6758(5) 0.2755(6) 0.7487(4)
Co3 Co 0.74212(9) 0.25521(9) 0.66584(7)
N7_2 N 0.8509(7) 0.2647(6) 0.7173(5)
O13_3 O 0.7610(7) 0.1901(5) 0.5826(4)
O15_3 O 0.7400(5) 0.1248(4) 0.6734(3)
Co5_3 Co 0.75788(9) 0.75521(9) 0.33416(7)
C20_4 C 0.9680(7) 0.2730(7) 0.8032(6)
C21_4 C 0.9396(8) 0.3344(8) 0.7711(6)
H15_4 H 0.9638 0.3824 0.7781
C22_4 C 0.8790(8) 0.3321(8) 0.7297(6)
H16_4 H 0.8580 0.3772 0.7108
C23_4 C 0.8769(7) 0.2028(7) 0.7470(6)
H17_4 H 0.8489 0.1566 0.7420
C24_4 C 0.9424(8) 0.2015(8) 0.7847(6)
H18_4 H 0.9677 0.1555 0.7970
H7_4 H 0.0023 0.7547 0.2685
C12_4 C 0.0300(5) 0.7577(8) 0.1379(4)
C13_4 C 0.0235(6) 0.7791(7) 0.0713(4)
C14_4 C 0.0915(5) 0.7812(7) 0.0360(5)
C15_4 C 0.1638(6) 0.7446(7) 0.1234(4)
H11_4 H 0.2106 0.7255 0.1407
C16_4 C 0.1023(5) 0.7498(9) 0.1656(5)
H12_4 H 0.1091 0.7481 0.2122
N2_4 N 0.1620(4) 0.7647(6) 0.0593(3)
Co1_8 Co 0.25611(9) 0.74389(9) 0.0000
H28_4 H 0.2042 0.9118 0.0092
C41_4 C 0.3534(7) 0.7391(6) 0.0876(6)
C42_4 C 0.4163(7) 0.7290(9) 0.1351(6)
H31_4 H 0.4213 0.6798 0.1546
C43_4 C 0.4655(7) 0.7803(8) 0.1531(6)
H32_4 H 0.4573 0.8300 0.1353
C44_4 C 0.5320(7) 0.7730(7) 0.1968(6)
C45_4 C 0.5604(8) 0.8344(8) 0.2289(6)
H33_4 H 0.5362 0.8824 0.2219
C46_4 C 0.6210(8) 0.8321(8) 0.2703(6)
H34_4 H 0.6420 0.8772 0.2892
C47_4 C 0.6231(7) 0.7028(7) 0.2530(6)
H35_4 H 0.6511 0.6566 0.2580
C48_4 C 0.5576(8) 0.7015(8) 0.2153(6)
H36_4 H 0.5323 0.6555 0.2030
N6_2 N 0.6491(7) 0.7647(6) 0.2827(5)
O7_4 O 0.3331(6) 0.8032(6) 0.0667(5)
O12_4 O 0.3264(6) 0.6778(6) 0.0644(4)
C1_4 C 0.7503(8) 0.1274(5) 0.6126(4)
C2_4 C 0.7456(8) 0.0549(6) 0.5742(4)
H1_4 H 0.7407 0.0071 0.5962
C3_4 C 0.7485(9) 0.0581(6) 0.5090(4)
H2_4 H 0.7494 0.1065 0.4877
H3_4 H 0.7808 0.0337 0.3811
C4_4 C 0.7502(9) 0.9882(5) 0.4687(5)
C5_4 C 0.7676(8) 0.9865(6) 0.4014(4)
C6_4 C 0.7675(8) 0.9227(5) 0.3620(5)
H4_4 H 0.7795 0.9268 0.3163
C7_4 C 0.7262(8) 0.8513(6) 0.4495(4)
H5_4 H 0.7084 0.8039 0.4665
C8_4 C 0.7273(8) 0.9178(6) 0.4893(5)
H6_4 H 0.7107 0.9129 0.5339
C9_4 C 0.8829(5) 0.7581(8) 0.2812(4)
C10_4 C 0.9561(6) 0.7578(8) 0.2439(5)
C11_4 C 0.9609(6) 0.7614(9) 0.1802(5)
H8_4 H 0.9138 0.7673 0.1574
H9_4 H 0.9756 0.7913 0.0517
N1_4 N 0.7507(6) 0.8571(5) 0.3875(4)
O4_4 O 0.8829(4) 0.7505(5) 0.3418(3)
O5_4 O 0.8242(5) 0.7755(6) 0.2513(4)
loop_
_geom_bond_atom_site_label_1
_geom_bond_atom_site_label_2
_geom_bond_site_symmetry_1
_geom_bond_site_symmetry_2
C21 C20 1_555 1_555
H15 C21 1_555 1_555
C22 C21 1_555 1_555
H16 C22 1_555 1_555
C23 H17 1_555 1_555
C24 C20 1_555 1_555
H18 C24 1_555 1_555
N3 C22 1_555 1_555
Co7 N3 1_555 1_555
C23 C24 1_555 1_555
C23 N3 1_555 1_555
C17 C18 1_555 1_555
C18 H13 1_555 1_555
C19 C18 1_555 1_555
H14 C19 1_555 1_555
O1 C17 1_555 1_555
O6 C17 1_555 1_555
C25 C26 1_555 1_555
C26 H19 1_555 1_555
C27 C26 1_555 1_555
H20 C27 1_555 1_555
C28 C27 1_555 1_555
C29 C28 1_555 1_555
H21 C29 1_555 1_555
C30 C29 1_555 1_555
H22 C30 1_555 1_555
C31 H23 1_555 1_555
C32 C28 1_555 1_555
H24 C32 1_555 1_555
C33 C34 1_555 1_555
C34 H25 1_555 1_555
C35 C34 1_555 1_555
H26 C35 1_555 1_555
C36 C35 1_555 1_555
C37 C36 1_555 1_555
H27 C37 1_555 1_555
C38 C37 1_555 1_555
C39 H29 1_555 1_555
C40 C36 1_555 1_555
H30 C40 1_555 1_555
N4 C30 1_555 1_555
N5 Co1 1_555 1_555
O8 C25 1_555 1_555
O9 C25 1_555 1_555
O10 C33 1_555 1_555
O11 C33 1_555 1_555
Co7 N4 1_555 1_555
O13 Co7 1_555 1_555
O15 Co7 1_555 1_555
Co5 O8 1_555 1_555
O1 Co1 1_555 1_555
O6 Co1 1_555 1_555
C31 C32 1_555 1_555
C31 N4 1_555 1_555
C38 N5 1_555 1_555
C39 C40 1_555 1_555
C39 N5 1_555 1_555
O9 Co5 1_555 1_555
O10 Co7 1_555 1_555
O11 Co7 1_555 1_555
C5 C4 1_555 1_555
C6 C5 1_555 1_555
H4 C6 1_555 1_555
C7 H5 1_555 1_555
C8 C4 1_555 1_555
H6 C8 1_555 1_555
C9 C10 1_555 1_555
C11 C10 1_555 1_555
H8 C11 1_555 1_555
N1 C6 1_555 1_555
O4 C9 1_555 1_555
O5 C9 1_555 1_555
Co5 N1 1_555 1_555
N8 Co5 1_555 1_555
C7 C8 1_555 1_555
C7 N1 1_555 1_555
O4 Co5 1_555 1_555
O5 Co5 1_555 1_555
C1 C2 1_555 1_555
C2 H1 1_555 1_555
C3 C2 1_555 1_555
H2 C3 1_555 1_555
O13 C1 1_555 1_555
O15 C1 1_555 1_555
C13 C12 1_555 1_555
C14 C13 1_555 1_555
C15 H11 1_555 1_555
C16 C12 1_555 1_555
H12 C16 1_555 1_555
N2 C14 1_555 1_555
Co1_2 N2 1_555 1_555
C41 C42 1_555 1_555
C42 H31 1_555 1_555
C43 C42 1_555 1_555
H32 C43 1_555 1_555
C44 C43 1_555 1_555
C45 C44 1_555 1_555
H33 C45 1_555 1_555
C46 C45 1_555 1_555
H34 C46 1_555 1_555
C47 H35 1_555 1_555
C48 C44 1_555 1_555
H36 C48 1_555 1_555
N8 C46 1_555 1_555
O7 Co1_2 1_555 1_555
O12 Co1_2 1_555 1_555
C15 C16 1_555 1_555
C15 N2 1_555 1_555
C41 O7 1_555 1_555
C41 O12 1_555 1_555
C47 C48 1_555 1_555
C47 N8 1_555 1_555
C45_2 C44_2 1_555 1_555
H33_2 C45_2 1_555 1_555
C46_2 C45_2 1_555 1_555
H34_2 C46_2 1_555 1_555
C47_2 H35_2 1_555 1_555
C48_2 C44_2 1_555 1_555
H36_2 C48_2 1_555 1_555
N6 C46_2 1_555 1_555
Co4 N6 1_555 1_555
C47_2 C48_2 1_555 1_555
C47_2 N6 1_555 1_555
C1_2 C2_2 1_555 1_555
C2_2 H1_2 1_555 1_555
C3_2 C2_2 1_555 1_555
H2_2 C3_2 1_555 1_555
C4_2 C3_2 1_555 1_555
C5_2 C4_2 1_555 1_555
H3_2 C5_2 1_555 1_555
C6_2 C5_2 1_555 1_555
H4_2 C6_2 1_555 1_555
C7_2 H5_2 1_555 1_555
C8_2 C4_2 1_555 1_555
H6_2 C8_2 1_555 1_555
C9_2 C10_2 1_555 1_555
C10_2 H7_2 1_555 1_555
C11_2 C10_2 1_555 1_555
H8_2 C11_2 1_555 1_555
C12_2 C11_2 1_555 1_555
C13_2 C12_2 1_555 1_555
H9_2 C13_2 1_555 1_555
C14_2 C13_2 1_555 1_555
C15_2 H11_2 1_555 1_555
C16_2 C12_2 1_555 1_555
H12_2 C16_2 1_555 1_555
N1_2 C6_2 1_555 1_555
N2_2 C14_2 1_555 1_555
O2 C1_2 1_555 1_555
O3 C1_2 1_555 1_555
O4_2 C9_2 1_555 1_555
O5_2 C9_2 1_555 1_555
Co1_3 N2_2 1_555 1_555
Co4 N1_2 1_555 1_555
C41_2 C42_2 1_555 1_555
C42_2 H31_2 1_555 1_555
C43_2 C42_2 1_555 1_555
H32_2 C43_2 1_555 1_555
O7_2 Co1_3 1_555 1_555
O12_2 Co1_3 1_555 1_555
O14 Co4 1_555 1_555
O16 Co4 1_555 1_555
Co6 O2 1_555 1_555
C7_2 C8_2 1_555 1_555
C7_2 N1_2 1_555 1_555
C15_2 C16_2 1_555 1_555
C15_2 N2_2 1_555 1_555
O3 Co6 1_555 1_555
O4_2 Co4 1_555 1_555
O5_2 Co4 1_555 1_555
C41_2 O7_2 1_555 1_555
C41_2 O12_2 1_555 1_555
C29_2 C28_2 1_555 1_555
C30_2 C29_2 1_555 1_555
H22_2 C30_2 1_555 1_555
C31_2 H23_2 1_555 1_555
C32_2 C28_2 1_555 1_555
H24_2 C32_2 1_555 1_555
C33_2 C34_2 1_555 1_555
C35_2 C34_2 1_555 1_555
H26_2 C35_2 1_555 1_555
N4_2 C30_2 1_555 1_555
O10_2 C33_2 1_555 1_555
O11_2 C33_2 1_555 1_555
Co6 N4_2 1_555 1_555
N7 Co6 1_555 1_555
C31_2 C32_2 1_555 1_555
C31_2 N4_2 1_555 1_555
O10_2 Co6 1_555 1_555
O11_2 Co6 1_555 1_555
C17_2 C18_2 1_555 1_555
C18_2 H13_2 1_555 1_555
C19_2 C18_2 1_555 1_555
H14_2 C19_2 1_555 1_555
C20_2 C19_2 1_555 1_555
C21_2 C20_2 1_555 1_555
H15_2 C21_2 1_555 1_555
C22_2 C21_2 1_555 1_555
H16_2 C22_2 1_555 1_555
C23_2 H17_2 1_555 1_555
C24_2 C20_2 1_555 1_555
H18_2 C24_2 1_555 1_555
N7 C22_2 1_555 1_555
O1_2 C17_2 1_555 1_555
O6_2 C17_2 1_555 1_555
C37_2 C36_2 1_555 1_555
C38_2 C37_2 1_555 1_555
C39_2 H29_2 1_555 1_555
C40_2 C36_2 1_555 1_555
H30_2 C40_2 1_555 1_555
N5_2 Co1_4 1_555 1_555
C23_2 C24_2 1_555 1_555
C23_2 N7 1_555 1_555
O1_2 Co1_4 1_555 1_555
O6_2 Co1_4 1_555 1_555
C38_2 N5_2 1_555 1_555
C39_2 C40_2 1_555 1_555
C39_2 N5_2 1_555 1_555
C25_2 C26_2 1_555 1_555
C26_2 H19_2 1_555 1_555
C27_2 C26_2 1_555 1_555
H20_2 C27_2 1_555 1_555
O14 C25_2 1_555 1_555
O16 C25_2 1_555 1_555
C25_3 C26_3 1_555 1_555
C26_3 H19_3 1_555 1_555
C27_3 C26_3 1_555 1_555
H20_3 C27_3 1_555 1_555
O8_2 C25_3 1_555 1_555
O9_2 C25_3 1_555 1_555
Co5_2 O8_2 1_555 1_555
O9_2 Co5_2 1_555 1_555
C17_3 C18_3 1_555 1_555
C18_3 H13_3 1_555 1_555
C19_3 C18_3 1_555 1_555
H14_3 C19_3 1_555 1_555
C20_3 C19_3 1_555 1_555
C21_3 C20_3 1_555 1_555
H15_3 C21_3 1_555 1_555
C22_3 C21_3 1_555 1_555
H16_3 C22_3 1_555 1_555
C23_3 H17_3 1_555 1_555
C24_3 C20_3 1_555 1_555
H18_3 C24_3 1_555 1_555
N3_2 C22_3 1_555 1_555
O1_3 C17_3 1_555 1_555
O6_3 C17_3 1_555 1_555
C37_3 C36_3 1_555 1_555
C38_3 C37_3 1_555 1_555
C39_3 H29_3 1_555 1_555
C40_3 C36_3 1_555 1_555
H30_3 C40_3 1_555 1_555
N5_3 Co1_5 1_555 1_555
Co7_2 N3_2 1_555 1_555
C23_3 C24_3 1_555 1_555
C23_3 N3_2 1_555 1_555
O1_3 Co1_5 1_555 1_555
O6_3 Co1_5 1_555 1_555
C38_3 N5_3 1_555 1_555
C39_3 C40_3 1_555 1_555
C39_3 N5_3 1_555 1_555
C29_3 C28_3 1_555 1_555
C30_3 C29_3 1_555 1_555
H22_3 C30_3 1_555 1_555
C31_3 H23_3 1_555 1_555
C32_3 C28_3 1_555 1_555
H24_3 C32_3 1_555 1_555
C33_3 C34_3 1_555 1_555
C35_3 C34_3 1_555 1_555
H26_3 C35_3 1_555 1_555
N4_3 C30_3 1_555 1_555
O10_3 C33_3 1_555 1_555
O11_3 C33_3 1_555 1_555
Co7_2 N4_3 1_555 1_555
O13_2 Co7_2 1_555 1_555
O15_2 Co7_2 1_555 1_555
C31_3 C32_3 1_555 1_555
C31_3 N4_3 1_555 1_555
O10_3 Co7_2 1_555 1_555
O11_3 Co7_2 1_555 1_555
C1_3 C2_3 1_555 1_555
C2_3 H1_3 1_555 1_555
C3_3 C2_3 1_555 1_555
H2_3 C3_3 1_555 1_555
C4_3 C3_3 1_555 1_555
C5_3 C4_3 1_555 1_555
H3_3 C5_3 1_555 1_555
C6_3 C5_3 1_555 1_555
H4_3 C6_3 1_555 1_555
C7_3 H5_3 1_555 1_555
C8_3 C4_3 1_555 1_555
H6_3 C8_3 1_555 1_555
C9_3 C10_3 1_555 1_555
C10_3 H7_3 1_555 1_555
C11_3 C10_3 1_555 1_555
H8_3 C11_3 1_555 1_555
C12_3 C11_3 1_555 1_555
C13_3 C12_3 1_555 1_555
H9_3 C13_3 1_555 1_555
C14_3 C13_3 1_555 1_555
C15_3 H11_3 1_555 1_555
C16_3 C12_3 1_555 1_555
H12_3 C16_3 1_555 1_555
N1_3 C6_3 1_555 1_555
N2_3 C14_3 1_555 1_555
O13_2 C1_3 1_555 1_555
O15_2 C1_3 1_555 1_555
O4_3 C9_3 1_555 1_555
O5_3 C9_3 1_555 1_555
Co1_6 N2_3 1_555 1_555
Co5_2 N1_3 1_555 1_555
C41_3 C42_3 1_555 1_555
C42_3 H31_3 1_555 1_555
C43_3 C42_3 1_555 1_555
H32_3 C43_3 1_555 1_555
O7_3 Co1_6 1_555 1_555
O12_3 Co1_6 1_555 1_555
N8_2 Co5_2 1_555 1_555
C7_3 C8_3 1_555 1_555
C7_3 N1_3 1_555 1_555
C15_3 C16_3 1_555 1_555
C15_3 N2_3 1_555 1_555
O4_3 Co5_2 1_555 1_555
O5_3 Co5_2 1_555 1_555
C41_3 O7_3 1_555 1_555
C41_3 O12_3 1_555 1_555
C45_3 C44_3 1_555 1_555
H33_3 C45_3 1_555 1_555
C46_3 C45_3 1_555 1_555
H34_3 C46_3 1_555 1_555
C47_3 H35_3 1_555 1_555
C48_3 C44_3 1_555 1_555
H36_3 C48_3 1_555 1_555
N8_2 C46_3 1_555 1_555
C47_3 C48_3 1_555 1_555
C47_3 N8_2 1_555 1_555
C17_4 C18_4 1_555 1_555
C18_4 H13_4 1_555 1_555
C19_4 C18_4 1_555 1_555
H14_4 C19_4 1_555 1_555
O1_4 C17_4 1_555 1_555
O6_4 C17_4 1_555 1_555
C25_4 C26_4 1_555 1_555
C26_4 H19_4 1_555 1_555
C27_4 C26_4 1_555 1_555
H20_4 C27_4 1_555 1_555
C28_4 C27_4 1_555 1_555
C29_4 C28_4 1_555 1_555
H21_4 C29_4 1_555 1_555
C30_4 C29_4 1_555 1_555
H22_4 C30_4 1_555 1_555
C31_4 H23_4 1_555 1_555
C32_4 C28_4 1_555 1_555
H24_4 C32_4 1_555 1_555
C33_4 C34_4 1_555 1_555
C34_4 H25_4 1_555 1_555
C35_4 C34_4 1_555 1_555
H26_4 C35_4 1_555 1_555
C36_4 C35_4 1_555 1_555
C37_4 C36_4 1_555 1_555
H27_4 C37_4 1_555 1_555
C38_4 C37_4 1_555 1_555
C39_4 H29_4 1_555 1_555
C40_4 C36_4 1_555 1_555
H30_4 C40_4 1_555 1_555
N4_4 C30_4 1_555 1_555
N5_4 Co1_7 1_555 1_555
O8_3 C25_4 1_555 1_555
O9_3 C25_4 1_555 1_555
O10_4 C33_4 1_555 1_555
O11_4 C33_4 1_555 1_555
Co3 N4_4 1_555 1_555
N7_2 Co3 1_555 1_555
O13_3 Co3 1_555 1_555
O15_3 Co3 1_555 1_555
Co5_3 O8_3 1_555 1_555
O1_4 Co1_7 1_555 1_555
O6_4 Co1_7 1_555 1_555
C31_4 C32_4 1_555 1_555
C31_4 N4_4 1_555 1_555
C38_4 N5_4 1_555 1_555
C39_4 C40_4 1_555 1_555
C39_4 N5_4 1_555 1_555
O9_3 Co5_3 1_555 1_555
O10_4 Co3 1_555 1_555
O11_4 Co3 1_555 1_555
C21_4 C20_4 1_555 1_555
H15_4 C21_4 1_555 1_555
C22_4 C21_4 1_555 1_555
H16_4 C22_4 1_555 1_555
C23_4 H17_4 1_555 1_555
C24_4 C20_4 1_555 1_555
H18_4 C24_4 1_555 1_555
N7_2 C22_4 1_555 1_555
C23_4 C24_4 1_555 1_555
C23_4 N7_2 1_555 1_555
C13_4 C12_4 1_555 1_555
C14_4 C13_4 1_555 1_555
C15_4 H11_4 1_555 1_555
C16_4 C12_4 1_555 1_555
H12_4 C16_4 1_555 1_555
N2_4 C14_4 1_555 1_555
Co1_8 N2_4 1_555 1_555
C41_4 C42_4 1_555 1_555
C42_4 H31_4 1_555 1_555
C43_4 C42_4 1_555 1_555
H32_4 C43_4 1_555 1_555
C44_4 C43_4 1_555 1_555
C45_4 C44_4 1_555 1_555
H33_4 C45_4 1_555 1_555
C46_4 C45_4 1_555 1_555
H34_4 C46_4 1_555 1_555
C47_4 H35_4 1_555 1_555
C48_4 C44_4 1_555 1_555
H36_4 C48_4 1_555 1_555
N6_2 C46_4 1_555 1_555
O7_4 Co1_8 1_555 1_555
O12_4 Co1_8 1_555 1_555
Co5_3 N6_2 1_555 1_555
C15_4 C16_4 1_555 1_555
C15_4 N2_4 1_555 1_555
C41_4 O7_4 1_555 1_555
C41_4 O12_4 1_555 1_555
C47_4 C48_4 1_555 1_555
C47_4 N6_2 1_555 1_555
C1_4 C2_4 1_555 1_555
C2_4 H1_4 1_555 1_555
C3_4 C2_4 1_555 1_555
H2_4 C3_4 1_555 1_555
O13_3 C1_4 1_555 1_555
O15_3 C1_4 1_555 1_555
C5_4 C4_4 1_555 1_555
C6_4 C5_4 1_555 1_555
H4_4 C6_4 1_555 1_555
C7_4 H5_4 1_555 1_555
C8_4 C4_4 1_555 1_555
H6_4 C8_4 1_555 1_555
C9_4 C10_4 1_555 1_555
C11_4 C10_4 1_555 1_555
H8_4 C11_4 1_555 1_555
N1_4 C6_4 1_555 1_555
O4_4 C9_4 1_555 1_555
O5_4 C9_4 1_555 1_555
Co5_3 N1_4 1_555 1_555
C7_4 C8_4 1_555 1_555
C7_4 N1_4 1_555 1_555
O4_4 Co5_3 1_555 1_555
O5_4 Co5_3 1_555 1_555

#END
