
###############################################################################
#
# This file contains modified crystal structure data generated from the
# MOF subset of the Cambridge Structural Database (CSD) v543 
# hosted by the Cambridge Crystallographic Data Centre (CCDC).
#
# This work is licensed under the Creative Commons
# Attribution-NonCommercial-ShareAlike 4.0 International License.
# To view a copy of this license, visit
# http://creativecommons.org/licenses/by-nc-sa/4.0/
# or send a letter to
# Creative Commons, PO Box 1866, Mountain View, CA 94042, USA.
#
# CIF created using the CSD Python API on 29 September 2022
# The structure has been converted into the P1 space group
# The structure has a 3D framework
# The original CSD entry JODGIU is in the tetragonal crystal system
# The original CSD entry JODGIU is in a Sohncke space group
# The framework has been calculated to contain at least 10.0% void space
# The void calculation uses a probe of radius 1.32A, grid spacing 0.4
#
###############################################################################

data_JODGIU
_chemical_formula_moiety         '(C192 H128 Co8 N16 O32)n'
_symmetry_cell_setting           triclinic
_symmetry_space_group_name_H-M   'P 1'
_symmetry_Int_Tables_number      1
_space_group_name_Hall           'P 1'
loop_
_symmetry_equiv_pos_site_id
_symmetry_equiv_pos_as_xyz
1 x,y,z
_cell_length_a                   22.6250(7)
_cell_length_b                   22.6250(7)
_cell_length_c                   12.7634(5)
_cell_angle_alpha                90
_cell_angle_beta                 90
_cell_angle_gamma                90
_cell_volume                     6533.46
loop_
_atom_site_label
_atom_site_type_symbol
_atom_site_fract_x
_atom_site_fract_y
_atom_site_fract_z
C13 C 0.2818(4) 0.6385(4) 0.1816(9)
C14 C 0.2863(4) 0.5780(4) 0.1269(9)
C15 C 0.2931(4) 0.5767(4) 0.0213(9)
C17 C 0.2827(3) 0.4726(4) 0.0113(9)
C18 C 0.2772(4) 0.4727(4) 0.1265(8)
H11 H 0.2738 0.4375 0.1651
C19 C 0.2774(3) 0.5256(4) 0.1728(7)
H12 H 0.2704 0.5261 0.2454
C24 C 0.2423(3) 0.3719(3) 0.0003(9)
H16 H 0.2256 0.3745 0.0675
O3 O 0.2828(2) 0.6843(2) 0.1276(5)
O4 O 0.2748(3) 0.6384(2) 0.2765(5)
Co3 Co 0.25660(4) 0.73656(4) 0.24752(12)
C1 C 0.1592(4) 0.7267(4) 0.3352(8)
C2 C 0.1026(4) 0.7224(4) 0.4028(9)
C3 C 0.0565(4) 0.6919(4) 0.3639(9)
H1 H 0.0581 0.6710 0.3003
C4 C 0.0041(4) 0.6939(4) 0.4290(9)
C5 C 0.0006(4) 0.7243(4) 0.5153(8)
C6 C 0.0501(4) 0.7545(4) 0.5535(7)
H3 H 0.0488 0.7743 0.6183
C7 C 0.0992(4) 0.7545(4) 0.4958(10)
H4 H 0.1321 0.7765 0.5182
O1 O 0.2041(2) 0.7532(2) 0.3779(5)
O2 O 0.1597(2) 0.7080(2) 0.2419(5)
H2 H 0.9708 0.6721 0.4077
C8 C 0.9420(3) 0.7269(3) 0.5760(8)
C9 C 0.9412(4) 0.7320(4) 0.6872(8)
H5 H 0.9761 0.7305 0.7270
C10 C 0.8869(3) 0.7391(3) 0.7332(8)
H6 H 0.8858 0.7439 0.8063
C11 C 0.8373(4) 0.7340(4) 0.5769(8)
H7 H 0.8019 0.7342 0.5384
C12 C 0.8894(3) 0.7278(3) 0.5229(8)
H8 H 0.8889 0.7241 0.4495
H9 H 0.7029 0.3873 0.9852
C16 C 0.7056(4) 0.4772(4) 0.9628(8)
H10 H 0.6966 0.4768 0.8909
C20 C 0.7228(4) 0.5837(4) 0.9571(8)
C21 C 0.6953(3) 0.5935(4) 0.8634(8)
H13 H 0.6688 0.5648 0.8383
C22 C 0.7043(4) 0.6430(4) 0.8045(8)
H14 H 0.6853 0.6465 0.7393
C23 C 0.7658(4) 0.6790(4) 0.9320(9)
H15 H 0.7914 0.7090 0.9553
Co1 Co 0.75660(4) 0.76344(4) 0.75248(12)
N1 N 0.8340(3) 0.7397(3) 0.6808(6)
N2 N 0.7395(3) 0.6867(3) 0.8374(6)
O5 O 0.7041(2) 0.7468(2) 0.6221(5)
O6 O 0.6597(2) 0.7920(2) 0.7581(5)
O7 O 0.7828(2) 0.8157(2) 0.8724(5)
O8 O 0.7748(3) 0.8616(2) 0.7235(5)
C13_2 C 0.7818(4) 0.8615(4) 0.8184(9)
C14_2 C 0.7863(4) 0.9220(4) 0.8731(9)
C15_2 C 0.7931(4) 0.9233(4) 0.9787(9)
C19_2 C 0.7774(3) 0.9744(4) 0.8272(7)
H12_2 H 0.7704 0.9739 0.7546
C1_2 C 0.6592(4) 0.7733(4) 0.6648(8)
C2_2 C 0.6026(4) 0.7776(4) 0.5972(9)
C3_2 C 0.5565(4) 0.8081(4) 0.6361(9)
H1_2 H 0.5581 0.8290 0.6997
C4_2 C 0.5041(4) 0.8061(4) 0.5710(9)
H2_2 H 0.4708 0.8279 0.5923
C5_2 C 0.5006(4) 0.7757(4) 0.4847(8)
C6_2 C 0.5501(4) 0.7455(4) 0.4465(7)
H3_2 H 0.5488 0.7257 0.3817
C7_2 C 0.5992(4) 0.7455(4) 0.5042(10)
H4_2 H 0.6321 0.7235 0.4818
C8_2 C 0.4420(3) 0.7731(3) 0.4240(8)
C9_2 C 0.4412(4) 0.7680(4) 0.3128(8)
H5_2 H 0.4761 0.7695 0.2730
C10_2 C 0.3869(3) 0.7609(3) 0.2668(8)
H6_2 H 0.3858 0.7561 0.1937
C11_2 C 0.3373(4) 0.7660(4) 0.4231(8)
H7_2 H 0.3019 0.7658 0.4616
C12_2 C 0.3894(3) 0.7722(3) 0.4771(8)
H8_2 H 0.3889 0.7759 0.5505
C20_2 C 0.2228(4) 0.9163(4) 0.0429(8)
C21_2 C 0.1953(3) 0.9065(4) 0.1366(8)
H13_2 H 0.1688 0.9352 0.1617
C22_2 C 0.2043(4) 0.8570(4) 0.1955(8)
H14_2 H 0.1853 0.8535 0.2607
C23_2 C 0.2658(4) 0.8210(4) 0.0680(9)
H15_2 H 0.2914 0.7910 0.0447
N1_2 N 0.3340(3) 0.7603(3) 0.3192(6)
N2_2 N 0.2395(3) 0.8133(3) 0.1626(6)
H2_3 H 0.0292 0.3279 0.4077
C8_3 C 0.0580(3) 0.2731(3) 0.5760(8)
C9_3 C 0.0588(4) 0.2680(4) 0.6872(8)
H5_3 H 0.0239 0.2695 0.7270
C10_3 C 0.1131(3) 0.2609(3) 0.7332(8)
H6_3 H 0.1142 0.2561 0.8063
C11_3 C 0.1627(4) 0.2660(4) 0.5769(8)
H7_3 H 0.1981 0.2658 0.5384
C12_3 C 0.1106(3) 0.2722(3) 0.5229(8)
H8_3 H 0.1111 0.2759 0.4495
H9_2 H 0.2971 0.6127 0.9852
C16_2 C 0.2944(4) 0.5228(4) 0.9628(8)
H10_2 H 0.3034 0.5232 0.8909
C20_3 C 0.2772(4) 0.4163(4) 0.9571(8)
C21_3 C 0.3047(3) 0.4065(4) 0.8634(8)
H13_3 H 0.3312 0.4352 0.8383
C22_3 C 0.2957(4) 0.3570(4) 0.8045(8)
H14_3 H 0.3147 0.3535 0.7393
C23_3 C 0.2342(4) 0.3210(4) 0.9320(9)
H15_3 H 0.2086 0.2910 0.9553
Co1_2 Co 0.24340(4) 0.23656(4) 0.75248(12)
N1_3 N 0.1660(3) 0.2603(3) 0.6808(6)
N2_3 N 0.2605(3) 0.3133(3) 0.8374(6)
O5_2 O 0.2959(2) 0.2532(2) 0.6221(5)
O6_2 O 0.3403(2) 0.2080(2) 0.7581(5)
O7_2 O 0.2172(2) 0.1843(2) 0.8724(5)
O8_2 O 0.2252(3) 0.1384(2) 0.7235(5)
C1_3 C 0.8408(4) 0.2733(4) 0.3352(8)
C2_3 C 0.8974(4) 0.2776(4) 0.4028(9)
C3_3 C 0.9435(4) 0.3081(4) 0.3639(9)
H1_3 H 0.9419 0.3290 0.3003
C4_3 C 0.9959(4) 0.3061(4) 0.4290(9)
C5_3 C 0.9994(4) 0.2757(4) 0.5153(8)
C6_3 C 0.9499(4) 0.2455(4) 0.5535(7)
H3_3 H 0.9512 0.2257 0.6183
C7_3 C 0.9008(4) 0.2455(4) 0.4958(10)
H4_3 H 0.8679 0.2235 0.5182
O1_2 O 0.7959(2) 0.2468(2) 0.3779(5)
O2_2 O 0.8403(2) 0.2920(2) 0.2419(5)
Co2 Co 0.74340(4) 0.26344(4) 0.24752(12)
C13_3 C 0.7182(4) 0.3615(4) 0.1816(9)
C14_3 C 0.7137(4) 0.4220(4) 0.1269(9)
C15_3 C 0.7069(4) 0.4233(4) 0.0213(9)
C17_2 C 0.7173(3) 0.5274(4) 0.0113(9)
C18_2 C 0.7228(4) 0.5273(4) 0.1265(8)
H11_2 H 0.7262 0.5625 0.1651
C19_3 C 0.7226(3) 0.4744(4) 0.1728(7)
H12_3 H 0.7296 0.4739 0.2454
C24_2 C 0.7577(3) 0.6281(3) 0.0003(9)
H16_2 H 0.7744 0.6255 0.0675
O3_2 O 0.7172(2) 0.3157(2) 0.1276(5)
O4_2 O 0.7252(3) 0.3616(2) 0.2765(5)
C1_4 C 0.3408(4) 0.2267(4) 0.6648(8)
C2_4 C 0.3974(4) 0.2224(4) 0.5972(9)
C3_4 C 0.4435(4) 0.1919(4) 0.6361(9)
H1_4 H 0.4419 0.1710 0.6997
C4_4 C 0.4959(4) 0.1939(4) 0.5710(9)
H2_4 H 0.5292 0.1721 0.5923
C5_4 C 0.4994(4) 0.2243(4) 0.4847(8)
C6_4 C 0.4499(4) 0.2545(4) 0.4465(7)
H3_4 H 0.4512 0.2743 0.3817
C7_4 C 0.4008(4) 0.2545(4) 0.5042(10)
H4_4 H 0.3679 0.2765 0.4818
C8_4 C 0.5580(3) 0.2269(3) 0.4240(8)
C9_4 C 0.5588(4) 0.2320(4) 0.3128(8)
H5_4 H 0.5239 0.2305 0.2730
C10_4 C 0.6131(3) 0.2391(3) 0.2668(8)
H6_4 H 0.6142 0.2439 0.1937
C11_4 C 0.6627(4) 0.2340(4) 0.4231(8)
H7_4 H 0.6981 0.2342 0.4616
C12_4 C 0.6106(3) 0.2278(3) 0.4771(8)
H8_4 H 0.6111 0.2241 0.5505
C20_4 C 0.7772(4) 0.0837(4) 0.0429(8)
C21_4 C 0.8047(3) 0.0935(4) 0.1366(8)
H13_4 H 0.8312 0.0648 0.1617
C22_4 C 0.7957(4) 0.1430(4) 0.1955(8)
H14_4 H 0.8147 0.1465 0.2607
C23_4 C 0.7342(4) 0.1790(4) 0.0680(9)
H15_4 H 0.7086 0.2090 0.0447
N1_4 N 0.6660(3) 0.2397(3) 0.3192(6)
N2_4 N 0.7605(3) 0.1867(3) 0.1626(6)
C13_4 C 0.2182(4) 0.1385(4) 0.8184(9)
C14_4 C 0.2137(4) 0.0780(4) 0.8731(9)
C15_4 C 0.2069(4) 0.0767(4) 0.9787(9)
C19_4 C 0.2226(3) 0.0256(4) 0.8272(7)
H12_4 H 0.2296 0.0261 0.7546
C17_3 C 0.7827(3) 0.0274(4) 0.9887(9)
C18_3 C 0.7772(4) 0.0273(4) 0.8735(8)
H11_3 H 0.7738 0.0625 0.8349
C24_3 C 0.7423(3) 0.1281(3) 0.9997(9)
H16_3 H 0.7256 0.1255 0.9325
H9_3 H 0.7971 0.8873 0.0148
C16_3 C 0.7944(4) 0.9772(4) 0.0372(8)
H10_3 H 0.8034 0.9768 0.1091
H9_4 H 0.2029 0.1127 0.0148
C16_4 C 0.2056(4) 0.0228(4) 0.0372(8)
H10_4 H 0.1966 0.0232 0.1091
C17_4 C 0.2173(3) 0.9726(4) 0.9887(9)
C18_4 C 0.2228(4) 0.9727(4) 0.8735(8)
H11_4 H 0.2262 0.9375 0.8349
C24_4 C 0.2577(3) 0.8719(3) 0.9997(9)
H16_4 H 0.2744 0.8745 0.9325
C1_5 C 0.7267(4) 0.1592(4) 0.6648(8)
C2_5 C 0.7224(4) 0.1026(4) 0.5972(9)
C3_5 C 0.6919(4) 0.0565(4) 0.6361(9)
H1_5 H 0.6710 0.0581 0.6997
C4_5 C 0.6939(4) 0.0041(4) 0.5710(9)
C5_5 C 0.7243(4) 0.0006(4) 0.4847(8)
C6_5 C 0.7545(4) 0.0501(4) 0.4465(7)
H3_5 H 0.7743 0.0488 0.3817
C7_5 C 0.7545(4) 0.0992(4) 0.5042(10)
H4_5 H 0.7765 0.1321 0.4818
O1_3 O 0.7532(2) 0.2041(2) 0.6221(5)
O2_3 O 0.7080(2) 0.1597(2) 0.7581(5)
Co2_2 Co 0.73656(4) 0.25660(4) 0.75248(12)
H2_5 H 0.6721 0.9708 0.5923
C8_5 C 0.7269(3) 0.9420(3) 0.4240(8)
C9_5 C 0.7320(4) 0.9412(4) 0.3128(8)
H5_5 H 0.7305 0.9761 0.2730
C10_5 C 0.7391(3) 0.8869(3) 0.2668(8)
H6_5 H 0.7439 0.8858 0.1937
C11_5 C 0.7340(4) 0.8373(4) 0.4231(8)
H7_5 H 0.7342 0.8019 0.4616
C12_5 C 0.7278(3) 0.8894(3) 0.4771(8)
H8_5 H 0.7241 0.8889 0.5505
H9_5 H 0.3873 0.7029 0.0148
C16_5 C 0.4772(4) 0.7056(4) 0.0372(8)
H10_5 H 0.4768 0.6966 0.1091
C20_5 C 0.5837(4) 0.7228(4) 0.0429(8)
C21_5 C 0.5935(4) 0.6953(3) 0.1366(8)
H13_5 H 0.5648 0.6688 0.1617
C22_5 C 0.6430(4) 0.7043(4) 0.1955(8)
H14_5 H 0.6465 0.6853 0.2607
C23_5 C 0.6790(4) 0.7658(4) 0.0680(9)
H15_5 H 0.7090 0.7914 0.0447
Co1_3 Co 0.76344(4) 0.75660(4) 0.24752(12)
N1_5 N 0.7397(3) 0.8340(3) 0.3192(6)
N2_5 N 0.6867(3) 0.7395(3) 0.1626(6)
O5_3 O 0.7468(2) 0.7041(2) 0.3779(5)
O6_3 O 0.7920(2) 0.6597(2) 0.2419(5)
O7_3 O 0.8157(2) 0.7828(2) 0.1276(5)
O8_3 O 0.8616(2) 0.7748(3) 0.2765(5)
C13_5 C 0.6385(4) 0.2818(4) 0.8184(9)
C14_5 C 0.5780(4) 0.2863(4) 0.8731(9)
C15_5 C 0.5767(4) 0.2931(4) 0.9787(9)
C17_5 C 0.4726(4) 0.2827(3) 0.9887(9)
C18_5 C 0.4727(4) 0.2772(4) 0.8735(8)
H11_5 H 0.4375 0.2738 0.8349
C19_5 C 0.5256(4) 0.2774(3) 0.8272(7)
H12_5 H 0.5261 0.2704 0.7546
C24_5 C 0.3719(3) 0.2423(3) 0.9997(9)
H16_5 H 0.3745 0.2256 0.9325
O3_3 O 0.6843(2) 0.2828(2) 0.8724(5)
O4_3 O 0.6384(2) 0.2748(3) 0.7235(5)
C1_6 C 0.7733(4) 0.6592(4) 0.3352(8)
C2_6 C 0.7776(4) 0.6026(4) 0.4028(9)
C3_6 C 0.8081(4) 0.5565(4) 0.3639(9)
H1_6 H 0.8290 0.5581 0.3003
C4_6 C 0.8061(4) 0.5041(4) 0.4290(9)
H2_6 H 0.8279 0.4708 0.4077
C5_6 C 0.7757(4) 0.5006(4) 0.5153(8)
C6_6 C 0.7455(4) 0.5501(4) 0.5535(7)
H3_6 H 0.7257 0.5488 0.6183
C7_6 C 0.7455(4) 0.5992(4) 0.4958(10)
H4_6 H 0.7235 0.6321 0.5182
C8_6 C 0.7731(3) 0.4420(3) 0.5760(8)
C9_6 C 0.7680(4) 0.4412(4) 0.6872(8)
H5_6 H 0.7695 0.4761 0.7270
C10_6 C 0.7609(3) 0.3869(3) 0.7332(8)
H6_6 H 0.7561 0.3858 0.8063
C11_6 C 0.7660(4) 0.3373(4) 0.5769(8)
H7_6 H 0.7658 0.3019 0.5384
C12_6 C 0.7722(3) 0.3894(3) 0.5229(8)
H8_6 H 0.7759 0.3889 0.4495
C20_6 C 0.9163(4) 0.2228(4) 0.9571(8)
C21_6 C 0.9065(4) 0.1953(3) 0.8634(8)
H13_6 H 0.9352 0.1688 0.8383
C22_6 C 0.8570(4) 0.2043(4) 0.8045(8)
H14_6 H 0.8535 0.1853 0.7393
C23_6 C 0.8210(4) 0.2658(4) 0.9320(9)
H15_6 H 0.7910 0.2914 0.9553
N1_6 N 0.7603(3) 0.3340(3) 0.6808(6)
N2_6 N 0.8133(3) 0.2395(3) 0.8374(6)
C13_6 C 0.8615(4) 0.7818(4) 0.1816(9)
C14_6 C 0.9220(4) 0.7863(4) 0.1269(9)
C15_6 C 0.9233(4) 0.7931(4) 0.0213(9)
C19_6 C 0.9744(4) 0.7774(3) 0.1728(7)
H12_6 H 0.9739 0.7704 0.2454
C13_7 C 0.3615(4) 0.7182(4) 0.8184(9)
C14_7 C 0.4220(4) 0.7137(4) 0.8731(9)
C15_7 C 0.4233(4) 0.7069(4) 0.9787(9)
C17_6 C 0.5274(4) 0.7173(3) 0.9887(9)
C18_6 C 0.5273(4) 0.7228(4) 0.8735(8)
H11_6 H 0.5625 0.7262 0.8349
C19_7 C 0.4744(4) 0.7226(3) 0.8272(7)
H12_7 H 0.4739 0.7296 0.7546
C24_6 C 0.6281(3) 0.7577(3) 0.9997(9)
H16_6 H 0.6255 0.7744 0.9325
O3_4 O 0.3157(2) 0.7172(2) 0.8724(5)
O4_4 O 0.3616(2) 0.7252(3) 0.7235(5)
Co3_2 Co 0.26344(4) 0.74340(4) 0.75248(12)
H2_7 H 0.3279 0.0292 0.5923
C8_7 C 0.2731(3) 0.0580(3) 0.4240(8)
C9_7 C 0.2680(4) 0.0588(4) 0.3128(8)
H5_7 H 0.2695 0.0239 0.2730
C10_7 C 0.2609(3) 0.1131(3) 0.2668(8)
H6_7 H 0.2561 0.1142 0.1937
C11_7 C 0.2660(4) 0.1627(4) 0.4231(8)
H7_7 H 0.2658 0.1981 0.4616
C12_7 C 0.2722(3) 0.1106(3) 0.4771(8)
H8_7 H 0.2759 0.1111 0.5505
H9_6 H 0.6127 0.2971 0.0148
C16_6 C 0.5228(4) 0.2944(4) 0.0372(8)
H10_6 H 0.5232 0.3034 0.1091
C20_7 C 0.4163(4) 0.2772(4) 0.0429(8)
C21_7 C 0.4065(4) 0.3047(3) 0.1366(8)
H13_7 H 0.4352 0.3312 0.1617
C22_7 C 0.3570(4) 0.2957(4) 0.1955(8)
H14_7 H 0.3535 0.3147 0.2607
C23_7 C 0.3210(4) 0.2342(4) 0.0680(9)
H15_7 H 0.2910 0.2086 0.0447
Co1_4 Co 0.23656(4) 0.24340(4) 0.24752(12)
N1_7 N 0.2603(3) 0.1660(3) 0.3192(6)
N2_7 N 0.3133(3) 0.2605(3) 0.1626(6)
O5_4 O 0.2532(2) 0.2959(2) 0.3779(5)
O6_4 O 0.2080(2) 0.3403(2) 0.2419(5)
O7_4 O 0.1843(2) 0.2172(2) 0.1276(5)
O8_4 O 0.1384(2) 0.2252(3) 0.2765(5)
C1_7 C 0.2733(4) 0.8408(4) 0.6648(8)
C2_7 C 0.2776(4) 0.8974(4) 0.5972(9)
C3_7 C 0.3081(4) 0.9435(4) 0.6361(9)
H1_7 H 0.3290 0.9419 0.6997
C4_7 C 0.3061(4) 0.9959(4) 0.5710(9)
C5_7 C 0.2757(4) 0.9994(4) 0.4847(8)
C6_7 C 0.2455(4) 0.9499(4) 0.4465(7)
H3_7 H 0.2257 0.9512 0.3817
C7_7 C 0.2455(4) 0.9008(4) 0.5042(10)
H4_7 H 0.2235 0.8679 0.4818
O1_4 O 0.2468(2) 0.7959(2) 0.6221(5)
O2_4 O 0.2920(2) 0.8403(2) 0.7581(5)
C13_8 C 0.1385(4) 0.2182(4) 0.1816(9)
C14_8 C 0.0780(4) 0.2137(4) 0.1269(9)
C15_8 C 0.0767(4) 0.2069(4) 0.0213(9)
C19_8 C 0.0256(4) 0.2226(3) 0.1728(7)
H12_8 H 0.0261 0.2296 0.2454
C1_8 C 0.2267(4) 0.3408(4) 0.3352(8)
C2_8 C 0.2224(4) 0.3974(4) 0.4028(9)
C3_8 C 0.1919(4) 0.4435(4) 0.3639(9)
H1_8 H 0.1710 0.4419 0.3003
C4_8 C 0.1939(4) 0.4959(4) 0.4290(9)
H2_8 H 0.1721 0.5292 0.4077
C5_8 C 0.2243(4) 0.4994(4) 0.5153(8)
C6_8 C 0.2545(4) 0.4499(4) 0.5535(7)
H3_8 H 0.2743 0.4512 0.6183
C7_8 C 0.2545(4) 0.4008(4) 0.4958(10)
H4_8 H 0.2765 0.3679 0.5182
C8_8 C 0.2269(3) 0.5580(3) 0.5760(8)
C9_8 C 0.2320(4) 0.5588(4) 0.6872(8)
H5_8 H 0.2305 0.5239 0.7270
C10_8 C 0.2391(3) 0.6131(3) 0.7332(8)
H6_8 H 0.2439 0.6142 0.8063
C11_8 C 0.2340(4) 0.6627(4) 0.5769(8)
H7_8 H 0.2342 0.6981 0.5384
C12_8 C 0.2278(3) 0.6106(3) 0.5229(8)
H8_8 H 0.2241 0.6111 0.4495
C20_8 C 0.0837(4) 0.7772(4) 0.9571(8)
C21_8 C 0.0935(4) 0.8047(3) 0.8634(8)
H13_8 H 0.0648 0.8312 0.8383
C22_8 C 0.1430(4) 0.7957(4) 0.8045(8)
H14_8 H 0.1465 0.8147 0.7393
C23_8 C 0.1790(4) 0.7342(4) 0.9320(9)
H15_8 H 0.2090 0.7086 0.9553
N1_8 N 0.2397(3) 0.6660(3) 0.6808(6)
N2_8 N 0.1867(3) 0.7605(3) 0.8374(6)
H9_7 H 0.1127 0.2029 0.9852
C16_7 C 0.0228(4) 0.2056(4) 0.9628(8)
H10_7 H 0.0232 0.1966 0.8909
C17_7 C 0.9726(4) 0.2173(3) 0.0113(9)
C18_7 C 0.9727(4) 0.2228(4) 0.1265(8)
H11_7 H 0.9375 0.2262 0.1651
C24_7 C 0.8719(3) 0.2577(3) 0.0003(9)
H16_7 H 0.8745 0.2744 0.0675
C17_8 C 0.0274(4) 0.7827(3) 0.0113(9)
C18_8 C 0.0273(4) 0.7772(4) 0.1265(8)
H11_8 H 0.0625 0.7738 0.1651
C24_8 C 0.1281(3) 0.7423(3) 0.0003(9)
H16_8 H 0.1255 0.7256 0.0675
H9_8 H 0.8873 0.7971 0.9852
C16_8 C 0.9772(4) 0.7944(4) 0.9628(8)
H10_8 H 0.9768 0.8034 0.8909
loop_
_geom_bond_atom_site_label_1
_geom_bond_atom_site_label_2
_geom_bond_site_symmetry_1
_geom_bond_site_symmetry_2
C13 C14 1_555 1_555
C14 C15 1_555 1_555
C18 C17 1_555 1_555
H11 C18 1_555 1_555
C19 C14 1_555 1_555
H12 C19 1_555 1_555
H16 C24 1_555 1_555
O3 C13 1_555 1_555
O4 C13 1_555 1_555
Co3 O3 1_555 1_555
C18 C19 1_555 1_555
O4 Co3 1_555 1_555
C1 C2 1_555 1_555
C2 C3 1_555 1_555
C3 H1 1_555 1_555
C4 C3 1_555 1_555
C5 C4 1_555 1_555
C6 C5 1_555 1_555
H3 C6 1_555 1_555
C7 C2 1_555 1_555
H4 C7 1_555 1_555
O1 C1 1_555 1_555
O2 C1 1_555 1_555
Co3 O1 1_555 1_555
C6 C7 1_555 1_555
O2 Co3 1_555 1_555
C9 C8 1_555 1_555
H5 C9 1_555 1_555
C10 C9 1_555 1_555
H6 C10 1_555 1_555
C11 H7 1_555 1_555
C12 C8 1_555 1_555
H8 C12 1_555 1_555
H10 C16 1_555 1_555
C21 C20 1_555 1_555
H13 C21 1_555 1_555
C22 C21 1_555 1_555
H14 C22 1_555 1_555
C23 H15 1_555 1_555
Co1 N1 1_555 1_555
N1 C10 1_555 1_555
N2 C22 1_555 1_555
O5 Co1 1_555 1_555
O6 Co1 1_555 1_555
O7 Co1 1_555 1_555
O8 Co1 1_555 1_555
C11 C12 1_555 1_555
C11 N1 1_555 1_555
C23 N2 1_555 1_555
Co1 N2 1_555 1_555
C13_2 C14_2 1_555 1_555
C14_2 C15_2 1_555 1_555
C19_2 C14_2 1_555 1_555
H12_2 C19_2 1_555 1_555
O7 C13_2 1_555 1_555
O8 C13_2 1_555 1_555
C1_2 C2_2 1_555 1_555
C2_2 C3_2 1_555 1_555
C3_2 H1_2 1_555 1_555
C4_2 C3_2 1_555 1_555
H2_2 C4_2 1_555 1_555
C5_2 C4_2 1_555 1_555
C6_2 C5_2 1_555 1_555
H3_2 C6_2 1_555 1_555
C7_2 C2_2 1_555 1_555
H4_2 C7_2 1_555 1_555
C8_2 C5_2 1_555 1_555
C9_2 C8_2 1_555 1_555
H5_2 C9_2 1_555 1_555
C10_2 C9_2 1_555 1_555
H6_2 C10_2 1_555 1_555
C11_2 H7_2 1_555 1_555
C12_2 C8_2 1_555 1_555
H8_2 C12_2 1_555 1_555
C21_2 C20_2 1_555 1_555
H13_2 C21_2 1_555 1_555
C22_2 C21_2 1_555 1_555
H14_2 C22_2 1_555 1_555
C23_2 H15_2 1_555 1_555
Co3 N1_2 1_555 1_555
N1_2 C10_2 1_555 1_555
N2_2 C22_2 1_555 1_555
O5 C1_2 1_555 1_555
O6 C1_2 1_555 1_555
C6_2 C7_2 1_555 1_555
C11_2 C12_2 1_555 1_555
C11_2 N1_2 1_555 1_555
C23_2 N2_2 1_555 1_555
Co3 N2_2 1_555 1_555
C9_3 C8_3 1_555 1_555
H5_3 C9_3 1_555 1_555
C10_3 C9_3 1_555 1_555
H6_3 C10_3 1_555 1_555
C11_3 H7_3 1_555 1_555
C12_3 C8_3 1_555 1_555
H8_3 C12_3 1_555 1_555
H10_2 C16_2 1_555 1_555
C21_3 C20_3 1_555 1_555
H13_3 C21_3 1_555 1_555
C22_3 C21_3 1_555 1_555
H14_3 C22_3 1_555 1_555
C23_3 H15_3 1_555 1_555
Co1_2 N1_3 1_555 1_555
N1_3 C10_3 1_555 1_555
N2_3 C22_3 1_555 1_555
O5_2 Co1_2 1_555 1_555
O6_2 Co1_2 1_555 1_555
O7_2 Co1_2 1_555 1_555
O8_2 Co1_2 1_555 1_555
C11_3 C12_3 1_555 1_555
C11_3 N1_3 1_555 1_555
C23_3 N2_3 1_555 1_555
Co1_2 N2_3 1_555 1_555
C1_3 C2_3 1_555 1_555
C2_3 C3_3 1_555 1_555
C3_3 H1_3 1_555 1_555
C4_3 C3_3 1_555 1_555
C5_3 C4_3 1_555 1_555
C6_3 C5_3 1_555 1_555
H3_3 C6_3 1_555 1_555
C7_3 C2_3 1_555 1_555
H4_3 C7_3 1_555 1_555
O1_2 C1_3 1_555 1_555
O2_2 C1_3 1_555 1_555
Co2 O1_2 1_555 1_555
C6_3 C7_3 1_555 1_555
O2_2 Co2 1_555 1_555
C13_3 C14_3 1_555 1_555
C14_3 C15_3 1_555 1_555
C18_2 C17_2 1_555 1_555
H11_2 C18_2 1_555 1_555
C19_3 C14_3 1_555 1_555
H12_3 C19_3 1_555 1_555
H16_2 C24_2 1_555 1_555
O3_2 C13_3 1_555 1_555
O4_2 C13_3 1_555 1_555
Co2 O3_2 1_555 1_555
C18_2 C19_3 1_555 1_555
O4_2 Co2 1_555 1_555
C1_4 C2_4 1_555 1_555
C2_4 C3_4 1_555 1_555
C3_4 H1_4 1_555 1_555
C4_4 C3_4 1_555 1_555
H2_4 C4_4 1_555 1_555
C5_4 C4_4 1_555 1_555
C6_4 C5_4 1_555 1_555
H3_4 C6_4 1_555 1_555
C7_4 C2_4 1_555 1_555
H4_4 C7_4 1_555 1_555
C8_4 C5_4 1_555 1_555
C9_4 C8_4 1_555 1_555
H5_4 C9_4 1_555 1_555
C10_4 C9_4 1_555 1_555
H6_4 C10_4 1_555 1_555
C11_4 H7_4 1_555 1_555
C12_4 C8_4 1_555 1_555
H8_4 C12_4 1_555 1_555
C21_4 C20_4 1_555 1_555
H13_4 C21_4 1_555 1_555
C22_4 C21_4 1_555 1_555
H14_4 C22_4 1_555 1_555
C23_4 H15_4 1_555 1_555
Co2 N1_4 1_555 1_555
N1_4 C10_4 1_555 1_555
N2_4 C22_4 1_555 1_555
O5_2 C1_4 1_555 1_555
O6_2 C1_4 1_555 1_555
C6_4 C7_4 1_555 1_555
C11_4 C12_4 1_555 1_555
C11_4 N1_4 1_555 1_555
C23_4 N2_4 1_555 1_555
Co2 N2_4 1_555 1_555
C13_4 C14_4 1_555 1_555
C14_4 C15_4 1_555 1_555
C19_4 C14_4 1_555 1_555
H12_4 C19_4 1_555 1_555
O7_2 C13_4 1_555 1_555
O8_2 C13_4 1_555 1_555
C18_3 C17_3 1_555 1_555
H11_3 C18_3 1_555 1_555
H16_3 C24_3 1_555 1_555
H10_3 C16_3 1_555 1_555
H10_4 C16_4 1_555 1_555
C18_4 C17_4 1_555 1_555
H11_4 C18_4 1_555 1_555
H16_4 C24_4 1_555 1_555
C1_5 C2_5 1_555 1_555
C2_5 C3_5 1_555 1_555
C3_5 H1_5 1_555 1_555
C4_5 C3_5 1_555 1_555
C5_5 C4_5 1_555 1_555
C6_5 C5_5 1_555 1_555
H3_5 C6_5 1_555 1_555
C7_5 C2_5 1_555 1_555
H4_5 C7_5 1_555 1_555
O1_3 C1_5 1_555 1_555
O2_3 C1_5 1_555 1_555
Co2_2 O1_3 1_555 1_555
C6_5 C7_5 1_555 1_555
O2_3 Co2_2 1_555 1_555
C9_5 C8_5 1_555 1_555
H5_5 C9_5 1_555 1_555
C10_5 C9_5 1_555 1_555
H6_5 C10_5 1_555 1_555
C11_5 H7_5 1_555 1_555
C12_5 C8_5 1_555 1_555
H8_5 C12_5 1_555 1_555
H10_5 C16_5 1_555 1_555
C21_5 C20_5 1_555 1_555
H13_5 C21_5 1_555 1_555
C22_5 C21_5 1_555 1_555
H14_5 C22_5 1_555 1_555
C23_5 H15_5 1_555 1_555
Co1_3 N1_5 1_555 1_555
N1_5 C10_5 1_555 1_555
N2_5 C22_5 1_555 1_555
O5_3 Co1_3 1_555 1_555
O6_3 Co1_3 1_555 1_555
O7_3 Co1_3 1_555 1_555
O8_3 Co1_3 1_555 1_555
C11_5 C12_5 1_555 1_555
C11_5 N1_5 1_555 1_555
C23_5 N2_5 1_555 1_555
Co1_3 N2_5 1_555 1_555
C13_5 C14_5 1_555 1_555
C14_5 C15_5 1_555 1_555
C18_5 C17_5 1_555 1_555
H11_5 C18_5 1_555 1_555
C19_5 C14_5 1_555 1_555
H12_5 C19_5 1_555 1_555
H16_5 C24_5 1_555 1_555
O3_3 C13_5 1_555 1_555
O4_3 C13_5 1_555 1_555
Co2_2 O3_3 1_555 1_555
C18_5 C19_5 1_555 1_555
O4_3 Co2_2 1_555 1_555
C1_6 C2_6 1_555 1_555
C2_6 C3_6 1_555 1_555
C3_6 H1_6 1_555 1_555
C4_6 C3_6 1_555 1_555
H2_6 C4_6 1_555 1_555
C5_6 C4_6 1_555 1_555
C6_6 C5_6 1_555 1_555
H3_6 C6_6 1_555 1_555
C7_6 C2_6 1_555 1_555
H4_6 C7_6 1_555 1_555
C8_6 C5_6 1_555 1_555
C9_6 C8_6 1_555 1_555
H5_6 C9_6 1_555 1_555
C10_6 C9_6 1_555 1_555
H6_6 C10_6 1_555 1_555
C11_6 H7_6 1_555 1_555
C12_6 C8_6 1_555 1_555
H8_6 C12_6 1_555 1_555
C21_6 C20_6 1_555 1_555
H13_6 C21_6 1_555 1_555
C22_6 C21_6 1_555 1_555
H14_6 C22_6 1_555 1_555
C23_6 H15_6 1_555 1_555
Co2_2 N1_6 1_555 1_555
N1_6 C10_6 1_555 1_555
N2_6 C22_6 1_555 1_555
O5_3 C1_6 1_555 1_555
O6_3 C1_6 1_555 1_555
C6_6 C7_6 1_555 1_555
C11_6 C12_6 1_555 1_555
C11_6 N1_6 1_555 1_555
C23_6 N2_6 1_555 1_555
Co2_2 N2_6 1_555 1_555
C13_6 C14_6 1_555 1_555
C14_6 C15_6 1_555 1_555
C19_6 C14_6 1_555 1_555
H12_6 C19_6 1_555 1_555
O7_3 C13_6 1_555 1_555
O8_3 C13_6 1_555 1_555
C13_7 C14_7 1_555 1_555
C14_7 C15_7 1_555 1_555
C18_6 C17_6 1_555 1_555
H11_6 C18_6 1_555 1_555
C19_7 C14_7 1_555 1_555
H12_7 C19_7 1_555 1_555
H16_6 C24_6 1_555 1_555
O3_4 C13_7 1_555 1_555
O4_4 C13_7 1_555 1_555
Co3_2 O3_4 1_555 1_555
C18_6 C19_7 1_555 1_555
O4_4 Co3_2 1_555 1_555
C9_7 C8_7 1_555 1_555
H5_7 C9_7 1_555 1_555
C10_7 C9_7 1_555 1_555
H6_7 C10_7 1_555 1_555
C11_7 H7_7 1_555 1_555
C12_7 C8_7 1_555 1_555
H8_7 C12_7 1_555 1_555
H10_6 C16_6 1_555 1_555
C21_7 C20_7 1_555 1_555
H13_7 C21_7 1_555 1_555
C22_7 C21_7 1_555 1_555
H14_7 C22_7 1_555 1_555
C23_7 H15_7 1_555 1_555
Co1_4 N1_7 1_555 1_555
N1_7 C10_7 1_555 1_555
N2_7 C22_7 1_555 1_555
O5_4 Co1_4 1_555 1_555
O6_4 Co1_4 1_555 1_555
O7_4 Co1_4 1_555 1_555
O8_4 Co1_4 1_555 1_555
C11_7 C12_7 1_555 1_555
C11_7 N1_7 1_555 1_555
C23_7 N2_7 1_555 1_555
Co1_4 N2_7 1_555 1_555
C1_7 C2_7 1_555 1_555
C2_7 C3_7 1_555 1_555
C3_7 H1_7 1_555 1_555
C4_7 C3_7 1_555 1_555
C5_7 C4_7 1_555 1_555
C6_7 C5_7 1_555 1_555
H3_7 C6_7 1_555 1_555
C7_7 C2_7 1_555 1_555
H4_7 C7_7 1_555 1_555
O1_4 C1_7 1_555 1_555
O2_4 C1_7 1_555 1_555
Co3_2 O1_4 1_555 1_555
C6_7 C7_7 1_555 1_555
O2_4 Co3_2 1_555 1_555
C13_8 C14_8 1_555 1_555
C14_8 C15_8 1_555 1_555
C19_8 C14_8 1_555 1_555
H12_8 C19_8 1_555 1_555
O7_4 C13_8 1_555 1_555
O8_4 C13_8 1_555 1_555
C1_8 C2_8 1_555 1_555
C2_8 C3_8 1_555 1_555
C3_8 H1_8 1_555 1_555
C4_8 C3_8 1_555 1_555
H2_8 C4_8 1_555 1_555
C5_8 C4_8 1_555 1_555
C6_8 C5_8 1_555 1_555
H3_8 C6_8 1_555 1_555
C7_8 C2_8 1_555 1_555
H4_8 C7_8 1_555 1_555
C8_8 C5_8 1_555 1_555
C9_8 C8_8 1_555 1_555
H5_8 C9_8 1_555 1_555
C10_8 C9_8 1_555 1_555
H6_8 C10_8 1_555 1_555
C11_8 H7_8 1_555 1_555
C12_8 C8_8 1_555 1_555
H8_8 C12_8 1_555 1_555
C21_8 C20_8 1_555 1_555
H13_8 C21_8 1_555 1_555
C22_8 C21_8 1_555 1_555
H14_8 C22_8 1_555 1_555
C23_8 H15_8 1_555 1_555
Co3_2 N1_8 1_555 1_555
N1_8 C10_8 1_555 1_555
N2_8 C22_8 1_555 1_555
O5_4 C1_8 1_555 1_555
O6_4 C1_8 1_555 1_555
C6_8 C7_8 1_555 1_555
C11_8 C12_8 1_555 1_555
C11_8 N1_8 1_555 1_555
C23_8 N2_8 1_555 1_555
Co3_2 N2_8 1_555 1_555
H10_7 C16_7 1_555 1_555
C18_7 C17_7 1_555 1_555
H11_7 C18_7 1_555 1_555
H16_7 C24_7 1_555 1_555
C18_8 C17_8 1_555 1_555
H11_8 C18_8 1_555 1_555
H16_8 C24_8 1_555 1_555
H10_8 C16_8 1_555 1_555

#END
