
###############################################################################
#
# This file contains modified crystal structure data generated from the
# MOF subset of the Cambridge Structural Database (CSD) v543 
# hosted by the Cambridge Crystallographic Data Centre (CCDC).
#
# This work is licensed under the Creative Commons
# Attribution-NonCommercial-ShareAlike 4.0 International License.
# To view a copy of this license, visit
# http://creativecommons.org/licenses/by-nc-sa/4.0/
# or send a letter to
# Creative Commons, PO Box 1866, Mountain View, CA 94042, USA.
#
# CIF created using the CSD Python API on 29 September 2022
# The structure has been converted into the P1 space group
# The structure has a 3D framework
# The original CSD entry JODGAM is in the orthorhombic crystal system
# The framework has been calculated to contain at least 10.0% void space
# The void calculation uses a probe of radius 1.32A, grid spacing 0.4
#
###############################################################################

data_JODGAM
_chemical_formula_moiety         '(C64 H48 Co6 N8 O16)n'
_symmetry_cell_setting           triclinic
_symmetry_space_group_name_H-M   'P 1'
_symmetry_Int_Tables_number      1
_space_group_name_Hall           'P 1'
loop_
_symmetry_equiv_pos_site_id
_symmetry_equiv_pos_as_xyz
1 x,y,z
_cell_length_a                   12.4892(15)
_cell_length_b                   13.6324(15)
_cell_length_c                   12.1687(15)
_cell_angle_alpha                90
_cell_angle_beta                 90
_cell_angle_gamma                90
_cell_volume                     2071.82
loop_
_atom_site_label
_atom_site_type_symbol
_atom_site_fract_x
_atom_site_fract_y
_atom_site_fract_z
H4 H 0.6242 0.0049 0.4831
Co3 Co 0.7500 0.0000 0.70186(9)
H7 H 0.9841 0.4120 0.4559
C12 C 0.9514(6) 0.2199(4) 0.4644(6)
C13 C 0.9407(5) 0.1223(4) 0.4378(6)
H9 H 0.9749 0.0972 0.3750
C14 C 0.8802(5) 0.0616(4) 0.5027(6)
C15 C 0.8338(8) 0.1862(5) 0.6152(7)
H11 H 0.7952 0.2106 0.6756
C16 C 0.8953(8) 0.2514(5) 0.5541(8)
H12 H 0.8983 0.3178 0.5747
N2 N 0.8271(4) 0.0913(3) 0.5922(4)
O2 O 0.8894(5) 0.0261(3) 0.8493(5)
C9 C 0.6015(6) 0.0620(4) 0.8344(5)
C10 C 0.5267(6) 0.1209(5) 0.9041(6)
H7_2 H 0.4841 0.0880 0.9559
C11 C 0.5181(6) 0.2158(4) 0.8962(6)
H8 H 0.5588 0.2463 0.8409
C12_2 C 0.4514(6) 0.2801(4) 0.9644(6)
C13_2 C 0.4407(5) 0.3777(4) 0.9378(6)
H9_2 H 0.4749 0.4028 0.8750
H10 H 0.3758 0.5049 0.9831
O3 O 0.6562(3) 0.1049(3) 0.7623(3)
C1 C 0.3985(6) 0.5620(4) 0.3344(5)
C2 C 0.4733(6) 0.6209(5) 0.4041(6)
H1 H 0.5159 0.5880 0.4559
C3 C 0.4819(6) 0.7158(4) 0.3962(6)
H2 H 0.4412 0.7463 0.3409
C4 C 0.5486(6) 0.7801(4) 0.4644(6)
C5 C 0.5593(5) 0.8777(4) 0.4378(6)
H3 H 0.5251 0.9028 0.3750
C6 C 0.6198(5) 0.9384(4) 0.5027(6)
C7 C 0.6662(8) 0.8138(5) 0.6152(7)
H5 H 0.7048 0.7894 0.6756
C8 C 0.6047(8) 0.7486(5) 0.5541(8)
H6 H 0.6017 0.6822 0.5747
N1 N 0.6729(4) 0.9087(3) 0.5922(4)
O1 O 0.3438(3) 0.6049(3) 0.2623(3)
O2_2 O 0.3894(5) 0.4739(3) 0.3493(5)
Co1 Co 0.2500 0.5000 0.20186(9)
C9_2 C 0.1015(6) 0.4380(4) 0.3344(5)
C10_2 C 0.0267(6) 0.3791(5) 0.4041(6)
C11_2 C 0.0181(6) 0.2842(4) 0.3962(6)
H8_2 H 0.0588 0.2537 0.3409
O3_2 O 0.1562(3) 0.3951(3) 0.2623(3)
O4 O 0.1106(5) 0.5261(3) 0.3493(5)
N3 N 0.1729(4) 0.5913(3) 0.0922(4)
N4 N 0.3271(4) 0.4087(3) 0.0922(4)
Co3_2 Co 0.7500 1.0000 0.70186(9)
H10_2 H 0.8758 0.9951 0.4831
C6_2 C 0.1198(5) 0.5616(4) 0.0027(6)
C7_2 C 0.1662(8) 0.6862(5) 0.1152(7)
H5_2 H 0.2048 0.7106 0.1756
C8_2 C 0.1047(8) 0.7514(5) 0.0541(8)
H6_2 H 0.1017 0.8178 0.0747
C14_2 C 0.3802(5) 0.4384(4) 0.0027(6)
C15_2 C 0.3338(8) 0.3138(5) 0.1152(7)
H11_2 H 0.2952 0.2894 0.1756
C16_2 C 0.3953(8) 0.2486(5) 0.0541(8)
H12_2 H 0.3983 0.1822 0.0747
C1_2 C 0.8985(6) 0.9380(4) 0.8344(5)
C2_2 C 0.9733(6) 0.8791(5) 0.9041(6)
C3_2 C 0.9819(6) 0.7842(4) 0.8962(6)
H2_2 H 0.9412 0.7537 0.8409
O1_2 O 0.8438(3) 0.8951(3) 0.7623(3)
O4_2 O 0.6106(5) 0.9739(3) 0.8493(5)
C1_3 C 0.1015(6) 0.0620(4) 0.1656(5)
C2_3 C 0.0267(6) 0.1209(5) 0.0959(6)
C3_3 C 0.0181(6) 0.2158(4) 0.1038(6)
H2_3 H 0.0588 0.2463 0.1591
O1_3 O 0.1562(3) 0.1049(3) 0.2377(3)
Co1_2 Co 0.2500 0.0000 0.29814(9)
O4_3 O 0.3894(5) 0.0261(3) 0.1507(5)
N3_2 N 0.3271(4) 0.0913(3) 0.4078(4)
C14_3 C 0.6198(5) 0.5616(4) 0.9973(6)
C15_3 C 0.6662(8) 0.6862(5) 0.8848(7)
H11_3 H 0.7048 0.7106 0.8244
C16_3 C 0.6047(8) 0.7514(5) 0.9459(8)
H12_3 H 0.6017 0.8178 0.9253
N2_2 N 0.6729(4) 0.5913(3) 0.9078(4)
Co2 Co 0.7500 0.5000 0.79814(9)
C6_3 C 0.8802(5) 0.4384(4) 0.9973(6)
C7_3 C 0.8338(8) 0.3138(5) 0.8848(7)
H5_3 H 0.7952 0.2894 0.8244
C8_3 C 0.8953(8) 0.2486(5) 0.9459(8)
H6_3 H 0.8983 0.1822 0.9253
N1_2 N 0.8271(4) 0.4087(3) 0.9078(4)
H10_3 H 0.1242 0.0049 0.5169
C1_4 C 0.6015(6) 0.4380(4) 0.6656(5)
C2_4 C 0.5267(6) 0.3791(5) 0.5959(6)
H1_2 H 0.4841 0.4120 0.5441
C3_4 C 0.5181(6) 0.2842(4) 0.6038(6)
H2_4 H 0.5588 0.2537 0.6591
C4_2 C 0.4514(6) 0.2199(4) 0.5356(6)
C5_2 C 0.4407(5) 0.1223(4) 0.5622(6)
H3_2 H 0.4749 0.0972 0.6250
C6_4 C 0.3802(5) 0.0616(4) 0.4973(6)
C7_4 C 0.3338(8) 0.1862(5) 0.3848(7)
H5_4 H 0.2952 0.2106 0.3244
C8_4 C 0.3953(8) 0.2514(5) 0.4459(8)
H6_4 H 0.3983 0.3178 0.4253
O1_4 O 0.6562(3) 0.3951(3) 0.7377(3)
O2_3 O 0.6106(5) 0.5261(3) 0.6507(5)
C9_3 C 0.8985(6) 0.5620(4) 0.6656(5)
C10_3 C 0.9733(6) 0.6209(5) 0.5959(6)
C11_3 C 0.9819(6) 0.7158(4) 0.6038(6)
H8_3 H 0.9412 0.7463 0.6591
O3_3 O 0.8438(3) 0.6049(3) 0.7377(3)
O4_4 O 0.8894(5) 0.4739(3) 0.6507(5)
O2_4 O 0.1106(5) 0.9739(3) 0.1507(5)
Co1_3 Co 0.2500 1.0000 0.29814(9)
C9_4 C 0.3985(6) 0.9380(4) 0.1656(5)
C10_4 C 0.4733(6) 0.8791(5) 0.0959(6)
H7_3 H 0.5159 0.9120 0.0441
C11_4 C 0.4819(6) 0.7842(4) 0.1038(6)
H8_4 H 0.4412 0.7537 0.1591
C12_3 C 0.5486(6) 0.7199(4) 0.0356(6)
C13_3 C 0.5593(5) 0.6223(4) 0.0622(6)
H9_3 H 0.5251 0.5972 0.1250
H10_4 H 0.6242 0.4951 0.0169
O3_4 O 0.3438(3) 0.8951(3) 0.2377(3)
N4_2 N 0.1729(4) 0.9087(3) 0.4078(4)
H7_4 H 0.0159 0.5880 0.5441
C12_4 C 0.0486(6) 0.7801(4) 0.5356(6)
C13_4 C 0.0593(5) 0.8777(4) 0.5622(6)
H9_4 H 0.0251 0.9028 0.6250
C14_4 C 0.1198(5) 0.9384(4) 0.4973(6)
C15_4 C 0.1662(8) 0.8138(5) 0.3848(7)
H11_4 H 0.2048 0.7894 0.3244
C16_4 C 0.1047(8) 0.7486(5) 0.4459(8)
H12_4 H 0.1017 0.6822 0.4253
H4_2 H 0.3758 0.9951 0.5169
H1_3 H 0.9841 0.0880 0.0441
C4_3 C 0.9514(6) 0.2801(4) 0.0356(6)
C5_3 C 0.9407(5) 0.3777(4) 0.0622(6)
H3_3 H 0.9749 0.4028 0.1250
H4_3 H 0.8758 0.5049 0.0169
H1_4 H 0.0159 0.9120 0.9559
C4_4 C 0.0486(6) 0.7199(4) 0.9644(6)
C5_4 C 0.0593(5) 0.6223(4) 0.9378(6)
H3_4 H 0.0251 0.5972 0.8750
H4_4 H 0.1242 0.4951 0.9831
loop_
_geom_bond_atom_site_label_1
_geom_bond_atom_site_label_2
_geom_bond_site_symmetry_1
_geom_bond_site_symmetry_2
C13 C12 1_555 1_555
H9 C13 1_555 1_555
C14 C13 1_555 1_555
C15 H11 1_555 1_555
C16 C12 1_555 1_555
H12 C16 1_555 1_555
N2 C14 1_555 1_555
Co3 N2 1_555 1_555
C15 C16 1_555 1_555
C15 N2 1_555 1_555
C9 C10 1_555 1_555
C10 H7_2 1_555 1_555
C11 C10 1_555 1_555
H8 C11 1_555 1_555
C12_2 C11 1_555 1_555
C13_2 C12_2 1_555 1_555
H9_2 C13_2 1_555 1_555
O3 Co3 1_555 1_555
C9 O3 1_555 1_555
C1 C2 1_555 1_555
C2 H1 1_555 1_555
C3 C2 1_555 1_555
H2 C3 1_555 1_555
C4 C3 1_555 1_555
C5 C4 1_555 1_555
H3 C5 1_555 1_555
C6 C5 1_555 1_555
C7 H5 1_555 1_555
C8 C4 1_555 1_555
H6 C8 1_555 1_555
N1 C6 1_555 1_555
O1 C1 1_555 1_555
O2_2 C1 1_555 1_555
Co1 O1 1_555 1_555
C9_2 C10_2 1_555 1_555
C11_2 C10_2 1_555 1_555
H8_2 C11_2 1_555 1_555
O3_2 Co1 1_555 1_555
O4 C9_2 1_555 1_555
N3 Co1 1_555 1_555
N4 Co1 1_555 1_555
Co3_2 N1 1_555 1_555
C7 C8 1_555 1_555
C7 N1 1_555 1_555
C9_2 O3_2 1_555 1_555
C7_2 H5_2 1_555 1_555
H6_2 C8_2 1_555 1_555
N3 C6_2 1_555 1_555
C7_2 C8_2 1_555 1_555
C7_2 N3 1_555 1_555
C15_2 H11_2 1_555 1_555
H12_2 C16_2 1_555 1_555
N4 C14_2 1_555 1_555
C15_2 C16_2 1_555 1_555
C15_2 N4 1_555 1_555
C1_2 C2_2 1_555 1_555
C3_2 C2_2 1_555 1_555
H2_2 C3_2 1_555 1_555
O1_2 C1_2 1_555 1_555
Co3_2 O1_2 1_555 1_555
C1_3 C2_3 1_555 1_555
C3_3 C2_3 1_555 1_555
H2_3 C3_3 1_555 1_555
O1_3 C1_3 1_555 1_555
Co1_2 O1_3 1_555 1_555
N3_2 Co1_2 1_555 1_555
C15_3 H11_3 1_555 1_555
H12_3 C16_3 1_555 1_555
N2_2 C14_3 1_555 1_555
Co2 N2_2 1_555 1_555
C15_3 C16_3 1_555 1_555
C15_3 N2_2 1_555 1_555
C7_3 H5_3 1_555 1_555
H6_3 C8_3 1_555 1_555
N1_2 C6_3 1_555 1_555
Co2 N1_2 1_555 1_555
C7_3 C8_3 1_555 1_555
C7_3 N1_2 1_555 1_555
C1_4 C2_4 1_555 1_555
C2_4 H1_2 1_555 1_555
C3_4 C2_4 1_555 1_555
H2_4 C3_4 1_555 1_555
C4_2 C3_4 1_555 1_555
C5_2 C4_2 1_555 1_555
H3_2 C5_2 1_555 1_555
C6_4 C5_2 1_555 1_555
C7_4 H5_4 1_555 1_555
C8_4 C4_2 1_555 1_555
H6_4 C8_4 1_555 1_555
N3_2 C6_4 1_555 1_555
O1_4 C1_4 1_555 1_555
O2_3 C1_4 1_555 1_555
Co2 O1_4 1_555 1_555
C9_3 C10_3 1_555 1_555
C11_3 C10_3 1_555 1_555
H8_3 C11_3 1_555 1_555
O3_3 Co2 1_555 1_555
O4_4 C9_3 1_555 1_555
C7_4 C8_4 1_555 1_555
C7_4 N3_2 1_555 1_555
C9_3 O3_3 1_555 1_555
C9_4 C10_4 1_555 1_555
C10_4 H7_3 1_555 1_555
C11_4 C10_4 1_555 1_555
H8_4 C11_4 1_555 1_555
C12_3 C11_4 1_555 1_555
C13_3 C12_3 1_555 1_555
H9_3 C13_3 1_555 1_555
O3_4 Co1_3 1_555 1_555
N4_2 Co1_3 1_555 1_555
C9_4 O3_4 1_555 1_555
C13_4 C12_4 1_555 1_555
H9_4 C13_4 1_555 1_555
C14_4 C13_4 1_555 1_555
C15_4 H11_4 1_555 1_555
C16_4 C12_4 1_555 1_555
H12_4 C16_4 1_555 1_555
N4_2 C14_4 1_555 1_555
C15_4 C16_4 1_555 1_555
C15_4 N4_2 1_555 1_555
C5_3 C4_3 1_555 1_555
H3_3 C5_3 1_555 1_555
C5_4 C4_4 1_555 1_555
H3_4 C5_4 1_555 1_555

#END
