
###############################################################################
#
# This file contains modified crystal structure data generated from the
# MOF subset of the Cambridge Structural Database (CSD) v543 
# hosted by the Cambridge Crystallographic Data Centre (CCDC).
#
# This work is licensed under the Creative Commons
# Attribution-NonCommercial-ShareAlike 4.0 International License.
# To view a copy of this license, visit
# http://creativecommons.org/licenses/by-nc-sa/4.0/
# or send a letter to
# Creative Commons, PO Box 1866, Mountain View, CA 94042, USA.
#
# CIF created using the CSD Python API on 29 September 2022
# The structure has been converted into the P1 space group
# The structure has a 3D framework
# The original CSD entry JOFCEO is in the rhombohedral crystal system
# The framework has been calculated to contain at least 10.0% void space
# The void calculation uses a probe of radius 1.32A, grid spacing 0.4
#
###############################################################################

data_JOFCEO
_chemical_formula_moiety         '(C504 H288 Cu36 N72 O180)n'
_symmetry_cell_setting           triclinic
_symmetry_space_group_name_H-M   'P 1'
_symmetry_Int_Tables_number      1
_space_group_name_Hall           'P 1'
loop_
_symmetry_equiv_pos_site_id
_symmetry_equiv_pos_as_xyz
1 x,y,z
_cell_length_a                   18.4310(17)
_cell_length_b                   18.4310(17)
_cell_length_c                   69.911(15)
_cell_angle_alpha                90
_cell_angle_beta                 90
_cell_angle_gamma                120
_cell_volume                     20567.1
loop_
_atom_site_label
_atom_site_type_symbol
_atom_site_fract_x
_atom_site_fract_y
_atom_site_fract_z
Cu1 Cu 0.28408(3) 0.12300(3) 0.901319(7)
O1 O 0.3009(2) 0.0563(2) 0.94107(5)
O2 O 0.2213(2) 0.0182(2) 0.91489(4)
C1 C 0.2384(3) 0.0063(3) 0.93164(7)
Cu4 Cu 0.38259(3) 0.17225(4) 0.932014(7)
N3 N 0.2096(4) 0.0776(3) 0.87533(5)
O6 O 0.3658(2) 0.0887(3) 0.89226(5)
O7 O 0.2249(2) 0.1686(3) 0.91626(5)
O8 O 0.3579(2) 0.2342(2) 0.89136(5)
N1 N 0.2014(3) 0.7443(3) 0.04200(5)
C9 C 0.2022(6) 0.7471(7) 0.00804(9)
C10 C 0.1993(7) 0.6704(8) 0.00780(10)
C11 C 0.1982(6) 0.6323(5) 0.02452(11)
H5 H 0.1951 0.5804 0.0245
C12 C 0.2017(4) 0.6722(4) 0.04136(7)
H6 H 0.2043 0.6479 0.0528
C13 C 0.2028(5) 0.7798(5) 0.02561(8)
H7 H 0.2043 0.8310 0.0260
Cu5 Cu 0.17225(4) 0.78967(3) 0.067986(7)
O3 O 0.9437(2) 0.7751(2) 0.91626(5)
O4 O 0.9009(2) 0.6912(2) 0.94197(5)
C8 C 0.9558(3) 0.7531(3) 0.93225(7)
Cu2 Cu 0.83892(4) 0.71592(3) 0.901319(7)
Cu3 Cu 0.78967(3) 0.61741(3) 0.932014(7)
N1_2 N 0.2557(3) 0.4571(4) 0.04200(5)
C9_2 C 0.2529(7) 0.4551(9) 0.00804(9)
C10_2 C 0.3296(8) 0.5289(11) 0.00780(10)
C11_2 C 0.3677(5) 0.5659(8) 0.02452(11)
H5_2 H 0.4196 0.6147 0.0245
C12_2 C 0.3278(4) 0.5295(6) 0.04136(7)
H6_2 H 0.3521 0.5564 0.0528
C13_2 C 0.2202(5) 0.4230(7) 0.02561(8)
H7_2 H 0.1690 0.3733 0.0260
Cu5_2 Cu 0.21033(3) 0.38259(5) 0.067986(7)
O4_2 O 0.3088(2) 0.2097(3) 0.94197(5)
C2 C 0.0758(3) 0.2538(4) 0.94058(7)
C3 C 0.1222(3) 0.2217(4) 0.93251(7)
H1 H 0.1034 0.1894 0.9214
C4 C 0.1976(3) 0.2377(4) 0.94104(8)
C5 C 0.2252(4) 0.2859(6) 0.95736(9)
H2 H 0.2750 0.2961 0.9631
C6 C 0.1791(4) 0.3193(6) 0.96535(10)
C7 C 0.1035(4) 0.3032(6) 0.95687(8)
H3 H 0.0725 0.3256 0.9621
C8_2 C 0.2469(3) 0.2027(4) 0.93225(7)
H4 H 0.3548 0.5530 0.9962
C14 C 0.1897(7) 0.4102(9) 0.99175(15)
O5 O 0.1070(5) 0.3785(7) 0.99203(10)
N2 N 0.2081(4) 0.3646(6) 0.98247(11)
H8 H 0.2475 0.3594 0.9877
Cu1_2 Cu 0.87700(3) 0.16108(4) 0.901319(7)
O1_2 O 0.9437(2) 0.2446(3) 0.94107(5)
O2_2 O 0.9818(2) 0.2031(3) 0.91489(4)
C1_2 C 0.9937(3) 0.2321(4) 0.93164(7)
Cu4_2 Cu 0.82775(4) 0.21033(5) 0.932014(7)
N3_2 N 0.9224(3) 0.1319(5) 0.87533(5)
O6_2 O 0.9113(3) 0.2770(4) 0.89226(5)
O7_2 O 0.8314(3) 0.0563(4) 0.91626(5)
O8_2 O 0.7658(2) 0.1236(3) 0.89136(5)
O4_3 O 0.7903(3) 0.0991(2) 0.94197(5)
C8_3 C 0.7973(4) 0.0442(3) 0.93225(7)
N1_3 N 0.5429(4) 0.7986(3) 0.04200(5)
C9_3 C 0.5449(9) 0.7978(6) 0.00804(9)
C10_3 C 0.4711(11) 0.8007(7) 0.00780(10)
C11_3 C 0.4341(8) 0.8018(6) 0.02452(11)
H5_3 H 0.3853 0.8049 0.0245
C12_3 C 0.4705(6) 0.7983(4) 0.04136(7)
H6_3 H 0.4436 0.7957 0.0528
C13_3 C 0.5770(7) 0.7972(5) 0.02561(8)
H7_3 H 0.6267 0.7957 0.0260
Cu5_3 Cu 0.61741(5) 0.82775(4) 0.067986(7)
O1_3 O 0.7554(3) 0.6991(2) 0.94107(5)
O2_3 O 0.7969(3) 0.7787(2) 0.91489(4)
C1_3 C 0.7679(4) 0.7616(3) 0.93164(7)
C2_2 C 0.7462(4) 0.8220(3) 0.94058(7)
C3_2 C 0.7783(4) 0.9005(3) 0.93251(7)
H1_2 H 0.8106 0.9140 0.9214
C4_2 C 0.7623(4) 0.9599(3) 0.94104(8)
C5_2 C 0.7141(6) 0.9393(4) 0.95736(9)
H2_2 H 0.7039 0.9789 0.9631
C6_2 C 0.6807(6) 0.8598(4) 0.96535(10)
C7_2 C 0.6968(6) 0.8003(4) 0.95687(8)
H3_2 H 0.6744 0.7469 0.9621
H4_2 H 0.4470 0.8018 0.9962
C14_2 C 0.5898(9) 0.7795(6) 0.99175(15)
O5_2 O 0.6215(7) 0.7285(5) 0.99203(10)
N2_2 N 0.6354(6) 0.8435(4) 0.98247(11)
H8_2 H 0.6406 0.8881 0.9877
N3_3 N 0.8681(5) 0.7904(4) 0.87533(5)
O6_3 O 0.7230(4) 0.6342(2) 0.89226(5)
O8_3 O 0.8764(3) 0.6421(2) 0.89136(5)
Cu1_3 Cu 0.12300(3) 0.28408(3) 0.598681(7)
O1_4 O 0.0563(2) 0.3009(2) 0.55893(5)
O2_4 O 0.0182(2) 0.2213(2) 0.58511(4)
C1_4 C 0.0063(3) 0.2384(3) 0.56836(7)
Cu4_3 Cu 0.17225(4) 0.38259(3) 0.567986(7)
N3_4 N 0.0776(3) 0.2096(4) 0.62467(5)
O6_4 O 0.0887(3) 0.3658(2) 0.60774(5)
O7_3 O 0.1686(3) 0.2249(2) 0.58374(5)
O8_4 O 0.2342(2) 0.3579(2) 0.60864(5)
N1_4 N 0.7443(3) 0.2014(3) 0.45800(5)
C2_3 C 0.9242(3) 0.1780(3) 0.55942(7)
C3_3 C 0.8778(3) 0.0995(3) 0.56749(7)
H1_3 H 0.8966 0.0860 0.5786
C4_3 C 0.8024(3) 0.0401(3) 0.55896(8)
C5_3 C 0.7748(4) 0.0607(4) 0.54264(9)
H2_3 H 0.7250 0.0211 0.5369
C6_3 C 0.8209(4) 0.1402(4) 0.53465(10)
C7_3 C 0.8965(4) 0.1997(4) 0.54313(8)
H3_3 H 0.9275 0.2531 0.5379
C9_4 C 0.7471(7) 0.2022(6) 0.49196(9)
C10_4 C 0.6704(8) 0.1993(7) 0.49220(10)
H4_3 H 0.6452 0.1982 0.5038
C11_4 C 0.6323(5) 0.1982(6) 0.47548(11)
H5_4 H 0.5804 0.1951 0.4755
C12_4 C 0.6722(4) 0.2017(4) 0.45864(7)
H6_4 H 0.6479 0.2043 0.4472
C13_4 C 0.7798(5) 0.2028(5) 0.47439(8)
H7_4 H 0.8310 0.2043 0.4740
C14_3 C 0.8103(7) 0.2205(6) 0.50825(15)
O5_3 O 0.8930(5) 0.2715(5) 0.50797(10)
N2_3 N 0.7919(4) 0.1565(4) 0.51753(11)
H8_3 H 0.7525 0.1119 0.5123
Cu5_4 Cu 0.78967(3) 0.17225(4) 0.432014(7)
O3_2 O 0.7751(2) 0.9437(2) 0.58374(5)
O4_4 O 0.6912(2) 0.9009(2) 0.55803(5)
C8_4 C 0.7531(3) 0.9558(3) 0.56775(7)
Cu2_2 Cu 0.71592(3) 0.83892(4) 0.598681(7)
Cu3_2 Cu 0.61741(3) 0.78967(3) 0.567986(7)
O3_3 O 0.0563(2) 0.8314(3) 0.58374(5)
O4_5 O 0.0991(2) 0.7903(3) 0.55803(5)
C8_5 C 0.0442(3) 0.7973(4) 0.56775(7)
Cu2_3 Cu 0.16108(4) 0.87700(5) 0.598681(7)
Cu3_3 Cu 0.21033(3) 0.82775(4) 0.567986(7)
N1_5 N 0.7986(3) 0.5429(4) 0.45800(5)
O1_5 O 0.6991(2) 0.7554(3) 0.55893(5)
O2_5 O 0.7787(2) 0.7969(3) 0.58511(4)
C1_5 C 0.7616(3) 0.7679(4) 0.56836(7)
C2_4 C 0.8220(3) 0.7462(4) 0.55942(7)
C3_4 C 0.9005(3) 0.7783(4) 0.56749(7)
H1_4 H 0.9140 0.8106 0.5786
C4_4 C 0.9599(3) 0.7623(4) 0.55896(8)
C5_4 C 0.9393(4) 0.7141(6) 0.54264(9)
H2_4 H 0.9789 0.7039 0.5369
C6_4 C 0.8598(4) 0.6807(6) 0.53465(10)
C7_4 C 0.8003(4) 0.6968(6) 0.54313(8)
H3_4 H 0.7469 0.6744 0.5379
C9_5 C 0.7978(6) 0.5449(9) 0.49196(9)
C10_5 C 0.8007(7) 0.4711(11) 0.49220(10)
H4_4 H 0.8018 0.4470 0.5038
C11_5 C 0.8018(6) 0.4341(8) 0.47548(11)
H5_5 H 0.8049 0.3853 0.4755
C12_5 C 0.7983(4) 0.4705(6) 0.45864(7)
H6_5 H 0.7957 0.4436 0.4472
C13_5 C 0.7972(5) 0.5770(7) 0.47439(8)
H7_5 H 0.7957 0.6267 0.4740
C14_4 C 0.7795(6) 0.5898(9) 0.50825(15)
O5_4 O 0.7285(5) 0.6215(7) 0.50797(10)
N2_4 N 0.8435(4) 0.6354(6) 0.51753(11)
H8_4 H 0.8881 0.6406 0.5123
Cu5_5 Cu 0.82775(4) 0.61741(5) 0.432014(7)
N3_5 N 0.7904(4) 0.8681(5) 0.62467(5)
O6_5 O 0.6342(2) 0.7230(4) 0.60774(5)
O8_5 O 0.6421(2) 0.8764(3) 0.60864(5)
N1_6 N 0.4571(4) 0.2557(3) 0.45800(5)
O4_6 O 0.2097(3) 0.3088(2) 0.55803(5)
C2_5 C 0.2538(4) 0.0758(3) 0.55942(7)
C3_5 C 0.2217(4) 0.1222(3) 0.56749(7)
H1_5 H 0.1894 0.1034 0.5786
C4_5 C 0.2377(4) 0.1976(3) 0.55896(8)
C5_5 C 0.2859(6) 0.2252(4) 0.54264(9)
H2_5 H 0.2961 0.2750 0.5369
C6_5 C 0.3193(6) 0.1791(4) 0.53465(10)
C7_5 C 0.3032(6) 0.1035(4) 0.54313(8)
H3_5 H 0.3256 0.0725 0.5379
C8_6 C 0.2027(4) 0.2469(3) 0.56775(7)
C9_6 C 0.4551(9) 0.2529(7) 0.49196(9)
C10_6 C 0.5289(11) 0.3296(8) 0.49220(10)
H4_5 H 0.5530 0.3548 0.5038
C11_6 C 0.5659(8) 0.3677(5) 0.47548(11)
H5_6 H 0.6147 0.4196 0.4755
C12_6 C 0.5295(6) 0.3278(4) 0.45864(7)
H6_6 H 0.5564 0.3521 0.4472
C13_6 C 0.4230(7) 0.2202(5) 0.47439(8)
H7_6 H 0.3733 0.1690 0.4740
C14_5 C 0.4102(9) 0.1897(7) 0.50825(15)
O5_5 O 0.3785(7) 0.1070(5) 0.50797(10)
N2_5 N 0.3646(6) 0.2081(4) 0.51753(11)
H8_5 H 0.3594 0.2475 0.5123
Cu5_6 Cu 0.38259(5) 0.21033(3) 0.432014(7)
O1_6 O 0.2446(3) 0.9437(2) 0.55893(5)
O2_6 O 0.2031(3) 0.9818(2) 0.58511(4)
C1_6 C 0.2321(4) 0.9937(3) 0.56836(7)
N3_6 N 0.1319(5) 0.9224(3) 0.62467(5)
O6_6 O 0.2770(4) 0.9113(3) 0.60774(5)
O8_6 O 0.1236(3) 0.7658(2) 0.60864(5)
Cu4_4 Cu 0.04925(3) 0.50559(4) 0.265348(7)
O6_7 O 0.0324(2) 0.4221(3) 0.22560(5)
O8_7 O 0.0245(2) 0.5676(2) 0.22470(5)
Cu1_4 Cu 0.95075(3) 0.45633(3) 0.234652(7)
N1_7 N 0.8681(3) 0.0776(3) 0.37533(5)
O1_7 O 0.9676(2) 0.3896(2) 0.27440(5)
O2_7 O 0.8880(2) 0.3515(2) 0.24822(4)
O3_4 O 0.6104(2) 0.1084(2) 0.24959(5)
O4_7 O 0.5676(2) 0.0245(2) 0.27530(5)
C1_7 C 0.9051(3) 0.3396(3) 0.26497(7)
C2_6 C 0.8447(3) 0.2575(3) 0.27391(7)
C3_6 C 0.7662(3) 0.2111(3) 0.26584(7)
H1_6 H 0.7527 0.2299 0.2547
C4_6 C 0.7068(3) 0.1357(3) 0.27437(8)
C5_6 C 0.7274(4) 0.1081(4) 0.29069(9)
H2_6 H 0.6878 0.0583 0.2964
C6_6 C 0.8069(4) 0.1542(4) 0.29868(10)
C7_6 C 0.8664(4) 0.2298(4) 0.29020(8)
H3_6 H 0.9198 0.2608 0.2954
C8_7 C 0.6225(3) 0.0864(3) 0.26558(7)
C9_7 C 0.8689(6) 0.0804(7) 0.34137(9)
C10_7 C 0.8660(7) 0.0037(8) 0.34113(10)
C12_7 C 0.8684(4) 0.0055(4) 0.37469(7)
C13_7 C 0.8695(5) 0.1131(5) 0.35894(8)
H7_7 H 0.8710 0.1643 0.3593
C14_6 C 0.8872(6) 0.1436(7) 0.32508(15)
O5_6 O 0.9382(5) 0.2263(5) 0.32536(10)
N2_6 N 0.8232(4) 0.1252(4) 0.31580(11)
H8_6 H 0.7786 0.0858 0.3210
Cu2_4 Cu 0.50559(4) 0.04925(3) 0.234652(7)
Cu5_7 Cu 0.83892(4) 0.12300(3) 0.401319(7)
N3_7 N 0.8762(4) 0.4110(3) 0.20867(5)
O7_4 O 0.8916(2) 0.5019(3) 0.24959(5)
H4_6 H 0.8649 0.9785 0.3295
C11_7 C 0.8649(6) 0.9656(5) 0.35785(11)
H5_7 H 0.8618 0.9137 0.3578
H6_7 H 0.8710 0.9812 0.3861
Cu3_4 Cu 0.45633(3) 0.95075(3) 0.265348(7)
H4_7 H 0.0215 0.8863 0.3295
C11_8 C 0.0344(5) 0.8992(8) 0.35785(11)
H5_8 H 0.0863 0.9480 0.3578
H6_8 H 0.0188 0.8897 0.3861
Cu1_5 Cu 0.54367(3) 0.49441(4) 0.234652(7)
N1_8 N 0.9224(3) 0.7904(4) 0.37533(5)
O1_8 O 0.6104(2) 0.5779(3) 0.27440(5)
O2_8 O 0.6485(2) 0.5364(3) 0.24822(4)
O4_8 O 0.9755(2) 0.5430(3) 0.27530(5)
C1_8 C 0.6604(3) 0.5654(4) 0.26497(7)
C2_7 C 0.7425(3) 0.5871(4) 0.27391(7)
C3_7 C 0.7889(3) 0.5550(4) 0.26584(7)
H1_7 H 0.7701 0.5227 0.2547
C4_7 C 0.8643(3) 0.5710(4) 0.27437(8)
C5_7 C 0.8919(4) 0.6192(6) 0.29069(9)
H2_7 H 0.9417 0.6294 0.2964
C6_7 C 0.8458(4) 0.6526(6) 0.29868(10)
C7_7 C 0.7702(4) 0.6365(6) 0.29020(8)
H3_7 H 0.7392 0.6589 0.2954
C8_8 C 0.9136(3) 0.5360(4) 0.26558(7)
C9_8 C 0.9196(7) 0.7884(9) 0.34137(9)
C10_8 C 0.9963(8) 0.8622(11) 0.34113(10)
C12_8 C 0.9945(4) 0.8628(6) 0.37469(7)
C13_8 C 0.8869(5) 0.7563(7) 0.35894(8)
H7_8 H 0.8357 0.7066 0.3593
C14_7 C 0.8564(7) 0.7435(9) 0.32508(15)
O5_7 O 0.7737(5) 0.7118(7) 0.32536(10)
N2_7 N 0.8748(4) 0.6979(6) 0.31580(11)
H8_7 H 0.9142 0.6927 0.3210
Cu4_5 Cu 0.49441(4) 0.54367(5) 0.265348(7)
Cu5_8 Cu 0.87700(3) 0.71592(5) 0.401319(7)
N3_8 N 0.5890(3) 0.4653(5) 0.20867(5)
O6_8 O 0.5779(3) 0.6104(4) 0.22560(5)
O7_5 O 0.4981(3) 0.3896(4) 0.24959(5)
O8_8 O 0.4324(2) 0.4570(3) 0.22470(5)
N1_9 N 0.2096(4) 0.1319(3) 0.37533(5)
O1_9 O 0.4221(3) 0.0324(2) 0.27440(5)
O2_9 O 0.4636(3) 0.1120(2) 0.24822(4)
O4_9 O 0.4570(3) 0.4324(2) 0.27530(5)
C1_9 C 0.4346(4) 0.0949(3) 0.26497(7)
C2_8 C 0.4129(4) 0.1553(3) 0.27391(7)
C3_8 C 0.4450(4) 0.2338(3) 0.26584(7)
H1_8 H 0.4773 0.2473 0.2547
C4_8 C 0.4290(4) 0.2932(3) 0.27437(8)
C5_8 C 0.3808(6) 0.2726(4) 0.29069(9)
H2_8 H 0.3706 0.3122 0.2964
C6_8 C 0.3474(6) 0.1931(4) 0.29868(10)
C7_8 C 0.3635(6) 0.1336(4) 0.29020(8)
H3_8 H 0.3411 0.0802 0.2954
C8_9 C 0.4640(4) 0.3775(3) 0.26558(7)
C9_9 C 0.2116(9) 0.1311(6) 0.34137(9)
C10_9 C 0.1378(11) 0.1340(7) 0.34113(10)
H4_8 H 0.1137 0.1351 0.3295
C11_9 C 0.1008(8) 0.1351(6) 0.35785(11)
H5_9 H 0.0520 0.1382 0.3578
C12_9 C 0.1372(6) 0.1316(4) 0.37469(7)
H6_9 H 0.1103 0.1290 0.3861
C13_9 C 0.2437(7) 0.1305(5) 0.35894(8)
H7_9 H 0.2934 0.1290 0.3593
C14_8 C 0.2565(9) 0.1128(6) 0.32508(15)
O5_8 O 0.2882(7) 0.0618(5) 0.32536(10)
N2_8 N 0.3021(6) 0.1768(4) 0.31580(11)
H8_8 H 0.3073 0.2214 0.3210
Cu5_9 Cu 0.28408(5) 0.16108(4) 0.401319(7)
N3_9 N 0.5347(5) 0.1238(4) 0.20867(5)
O6_9 O 0.3896(4) 0.9676(2) 0.22560(5)
O8_9 O 0.5430(3) 0.9755(2) 0.22470(5)
N1_10 N 0.4110(3) 0.5347(3) 0.79133(5)
O2_10 O 0.6849(2) 0.5546(2) 0.91844(4)
O3_5 O 0.4418(2) 0.2770(2) 0.91707(5)
C1_10 C 0.6730(3) 0.5717(3) 0.90169(7)
C2_9 C 0.5909(3) 0.5113(3) 0.89275(7)
C3_9 C 0.5445(3) 0.4328(3) 0.90082(7)
H1_9 H 0.5633 0.4193 0.9119
C4_9 C 0.4691(3) 0.3734(3) 0.89229(8)
C5_9 C 0.4415(4) 0.3940(4) 0.87597(9)
H2_9 H 0.3917 0.3544 0.8702
C6_9 C 0.4876(4) 0.4735(4) 0.86798(10)
C7_9 C 0.5632(4) 0.5330(4) 0.87646(8)
H3_9 H 0.5942 0.5864 0.8712
C8_10 C 0.4198(3) 0.2891(3) 0.90108(7)
C9_10 C 0.4138(7) 0.5355(6) 0.82529(9)
C10_10 C 0.3371(8) 0.5326(7) 0.82553(10)
H4_9 H 0.3119 0.5315 0.8371
C11_10 C 0.2990(5) 0.5315(6) 0.80881(11)
H5_10 H 0.2471 0.5284 0.8088
C12_10 C 0.3389(4) 0.5350(4) 0.79197(7)
H6_10 H 0.3146 0.5376 0.7805
C13_10 C 0.4465(5) 0.5361(5) 0.80772(8)
H7_10 H 0.4977 0.5376 0.8073
C14_9 C 0.4770(7) 0.5538(6) 0.84158(15)
O5_9 O 0.5597(5) 0.6048(5) 0.84130(10)
N2_9 N 0.4586(4) 0.4898(4) 0.85086(11)
H8_9 H 0.4192 0.4452 0.8456
Cu5_10 Cu 0.45633(3) 0.50559(4) 0.765348(7)
N3_10 N 0.7443(3) 0.5429(4) 0.95800(5)
O7_6 O 0.8353(3) 0.5582(2) 0.91707(5)
O2_11 O 0.4454(2) 0.1302(3) 0.91844(4)
O3_6 O 0.7230(2) 0.1647(3) 0.91707(5)
C1_11 C 0.4283(3) 0.1012(4) 0.90169(7)
C2_10 C 0.4887(3) 0.0795(4) 0.89275(7)
C3_10 C 0.5672(3) 0.1116(4) 0.90082(7)
H1_10 H 0.5807 0.1439 0.9119
C4_10 C 0.6266(3) 0.0956(4) 0.89229(8)
C5_10 C 0.6060(4) 0.0474(6) 0.87597(9)
H2_10 H 0.6456 0.0372 0.8702
C6_10 C 0.5265(4) 0.0140(6) 0.86798(10)
C7_10 C 0.4670(4) 0.0301(6) 0.87646(8)
H3_10 H 0.4136 0.0077 0.8712
C8_11 C 0.7109(3) 0.1306(4) 0.90108(7)
N3_11 N 0.4571(4) 0.2014(5) 0.95800(5)
N1_11 N 0.4653(3) 0.8762(4) 0.79133(5)
C9_11 C 0.4645(6) 0.8782(9) 0.82529(9)
C10_11 C 0.4674(7) 0.8044(11) 0.82553(10)
H4_10 H 0.4685 0.7803 0.8371
C11_11 C 0.4685(6) 0.7674(8) 0.80881(11)
H5_11 H 0.4716 0.7186 0.8088
C12_11 C 0.4650(4) 0.8038(6) 0.79197(7)
H6_11 H 0.4624 0.7769 0.7805
C13_11 C 0.4639(5) 0.9103(7) 0.80772(8)
H7_11 H 0.4624 0.9600 0.8073
C14_10 C 0.4462(6) 0.9231(9) 0.84158(15)
O5_10 O 0.3952(5) 0.9548(7) 0.84130(10)
N2_10 N 0.5102(4) 0.9687(6) 0.85086(11)
H8_10 H 0.5548 0.9739 0.8456
Cu5_11 Cu 0.49441(4) 0.95075(5) 0.765348(7)
N1_12 N 0.1238(4) 0.5890(3) 0.79133(5)
C9_12 C 0.1218(9) 0.5862(7) 0.82529(9)
C10_12 C 0.1956(11) 0.6629(8) 0.82553(10)
H4_11 H 0.2197 0.6881 0.8371
C11_12 C 0.2326(8) 0.7010(5) 0.80881(11)
H5_12 H 0.2814 0.7529 0.8088
C12_12 C 0.1962(6) 0.6611(4) 0.79197(7)
H6_12 H 0.2231 0.6854 0.7805
C13_12 C 0.0897(7) 0.5535(5) 0.80772(8)
H7_12 H 0.0400 0.5023 0.8073
C14_11 C 0.0769(9) 0.5230(7) 0.84158(15)
O5_11 O 0.0452(7) 0.4403(5) 0.84130(10)
N2_11 N 0.0313(6) 0.5414(4) 0.85086(11)
H8_11 H 0.0261 0.5808 0.8456
Cu5_12 Cu 0.04925(5) 0.54367(3) 0.765348(7)
O2_12 O 0.8698(3) 0.3151(2) 0.91844(4)
C1_12 C 0.8988(4) 0.3270(3) 0.90169(7)
C2_11 C 0.9205(4) 0.4091(3) 0.89275(7)
C3_11 C 0.8884(4) 0.4555(3) 0.90082(7)
H1_11 H 0.8561 0.4367 0.9119
C4_11 C 0.9044(4) 0.5309(3) 0.89229(8)
C5_11 C 0.9526(6) 0.5585(4) 0.87597(9)
H2_11 H 0.9628 0.6083 0.8702
C6_11 C 0.9860(6) 0.5124(4) 0.86798(10)
C7_11 C 0.9699(6) 0.4368(4) 0.87646(8)
H3_11 H 0.9923 0.4058 0.8712
C8_12 C 0.8694(4) 0.5802(3) 0.90108(7)
N3_12 N 0.7986(5) 0.2557(3) 0.95800(5)
N1_13 N 0.5347(3) 0.4110(3) 0.70867(5)
O2_13 O 0.5546(2) 0.6849(2) 0.58156(4)
O3_7 O 0.2770(2) 0.4418(2) 0.58293(5)
C1_13 C 0.5717(3) 0.6730(3) 0.59831(7)
C2_12 C 0.5113(3) 0.5909(3) 0.60725(7)
C3_12 C 0.4328(3) 0.5445(3) 0.59918(7)
H1_12 H 0.4193 0.5633 0.5881
C4_12 C 0.3734(3) 0.4691(3) 0.60771(8)
C5_12 C 0.3940(4) 0.4415(4) 0.62403(9)
H2_12 H 0.3544 0.3917 0.6298
C6_12 C 0.4735(4) 0.4876(4) 0.63202(10)
C7_12 C 0.5330(4) 0.5632(4) 0.62354(8)
H3_12 H 0.5864 0.5942 0.6288
C8_13 C 0.2891(3) 0.4198(3) 0.59892(7)
C9_13 C 0.5355(6) 0.4138(7) 0.67471(9)
C10_13 C 0.5326(7) 0.3371(8) 0.67447(10)
H4_12 H 0.5315 0.3119 0.6629
C11_13 C 0.5315(6) 0.2990(5) 0.69119(11)
H5_13 H 0.5284 0.2471 0.6912
C12_13 C 0.5350(4) 0.3389(4) 0.70803(7)
H6_13 H 0.5376 0.3146 0.7195
C13_13 C 0.5361(5) 0.4465(5) 0.69228(8)
H7_13 H 0.5376 0.4977 0.6927
C14_12 C 0.5538(6) 0.4770(7) 0.65842(15)
O5_12 O 0.6048(5) 0.5597(5) 0.65870(10)
N2_12 N 0.4898(4) 0.4586(4) 0.64914(11)
H8_12 H 0.4452 0.4192 0.6544
Cu5_13 Cu 0.50559(4) 0.45633(3) 0.734652(7)
N3_13 N 0.5429(4) 0.7443(3) 0.54200(5)
O7_7 O 0.5582(2) 0.8353(3) 0.58293(5)
N1_14 N 0.5890(3) 0.1238(4) 0.70867(5)
C9_14 C 0.5862(7) 0.1218(9) 0.67471(9)
C10_14 C 0.6629(8) 0.1956(11) 0.67447(10)
H4_13 H 0.6881 0.2197 0.6629
C11_14 C 0.7010(5) 0.2326(8) 0.69119(11)
H5_14 H 0.7529 0.2814 0.6912
C12_14 C 0.6611(4) 0.1962(6) 0.70803(7)
H6_14 H 0.6854 0.2231 0.7195
C13_14 C 0.5535(5) 0.0897(7) 0.69228(8)
H7_14 H 0.5023 0.0400 0.6927
C14_13 C 0.5230(7) 0.0769(9) 0.65842(15)
O5_13 O 0.4403(5) 0.0452(7) 0.65870(10)
N2_13 N 0.5414(4) 0.0313(6) 0.64914(11)
H8_13 H 0.5808 0.0261 0.6544
Cu5_14 Cu 0.54367(3) 0.04925(5) 0.734652(7)
O2_14 O 0.3151(2) 0.8698(3) 0.58156(4)
C1_14 C 0.3270(3) 0.8988(4) 0.59831(7)
C2_13 C 0.4091(3) 0.9205(4) 0.60725(7)
C3_13 C 0.4555(3) 0.8884(4) 0.59918(7)
H1_13 H 0.4367 0.8561 0.5881
C4_13 C 0.5309(3) 0.9044(4) 0.60771(8)
C5_13 C 0.5585(4) 0.9526(6) 0.62403(9)
H2_13 H 0.6083 0.9628 0.6298
C6_13 C 0.5124(4) 0.9860(6) 0.63202(10)
C7_13 C 0.4368(4) 0.9699(6) 0.62354(8)
H3_13 H 0.4058 0.9923 0.6288
C8_14 C 0.5802(3) 0.8694(4) 0.59892(7)
N3_14 N 0.2557(3) 0.7986(5) 0.54200(5)
O7_8 O 0.1647(3) 0.7230(4) 0.58293(5)
O2_15 O 0.1302(3) 0.4454(2) 0.58156(4)
C1_15 C 0.1012(4) 0.4283(3) 0.59831(7)
C2_14 C 0.0795(4) 0.4887(3) 0.60725(7)
C3_14 C 0.1116(4) 0.5672(3) 0.59918(7)
H1_14 H 0.1439 0.5807 0.5881
C4_14 C 0.0956(4) 0.6266(3) 0.60771(8)
C5_14 C 0.0474(6) 0.6060(4) 0.62403(9)
H2_14 H 0.0372 0.6456 0.6298
C6_14 C 0.0140(6) 0.5265(4) 0.63202(10)
C7_14 C 0.0301(6) 0.4670(4) 0.62354(8)
H3_14 H 0.0077 0.4136 0.6288
C8_15 C 0.1306(4) 0.7109(3) 0.59892(7)
N3_15 N 0.2014(5) 0.4571(4) 0.54200(5)
N1_15 N 0.8762(4) 0.4653(3) 0.70867(5)
C9_15 C 0.8782(9) 0.4645(6) 0.67471(9)
C10_15 C 0.8044(11) 0.4674(7) 0.67447(10)
H4_14 H 0.7803 0.4685 0.6629
C11_15 C 0.7674(8) 0.4685(6) 0.69119(11)
H5_15 H 0.7186 0.4716 0.6912
C12_15 C 0.8038(6) 0.4650(4) 0.70803(7)
H6_15 H 0.7769 0.4624 0.7195
C13_15 C 0.9103(7) 0.4639(5) 0.69228(8)
H7_15 H 0.9600 0.4624 0.6927
C14_14 C 0.9231(9) 0.4462(6) 0.65842(15)
O5_14 O 0.9548(7) 0.3952(5) 0.65870(10)
N2_14 N 0.9687(6) 0.5102(4) 0.64914(11)
H8_14 H 0.9739 0.5548 0.6544
Cu5_15 Cu 0.95075(5) 0.49441(4) 0.734652(7)
N1_16 N 0.0776(3) 0.8681(3) 0.12467(5)
O2_16 O 0.3515(2) 0.8880(2) 0.25178(4)
O3_8 O 0.1084(2) 0.6104(2) 0.25041(5)
C1_16 C 0.3396(3) 0.9051(3) 0.23503(7)
C2_15 C 0.2575(3) 0.8447(3) 0.22609(7)
C3_15 C 0.2111(3) 0.7662(3) 0.23416(7)
H1_15 H 0.2299 0.7527 0.2453
C4_15 C 0.1357(3) 0.7068(3) 0.22563(8)
C5_15 C 0.1081(4) 0.7274(4) 0.20931(9)
H2_15 H 0.0583 0.6878 0.2036
C6_15 C 0.1542(4) 0.8069(4) 0.20132(10)
C7_15 C 0.2298(4) 0.8664(4) 0.20980(8)
H3_15 H 0.2608 0.9198 0.2046
C8_16 C 0.0864(3) 0.6225(3) 0.23442(7)
C9_16 C 0.0804(7) 0.8689(6) 0.15863(9)
C10_16 C 0.0037(8) 0.8660(7) 0.15887(10)
C12_16 C 0.0055(4) 0.8684(4) 0.12531(7)
C13_16 C 0.1131(5) 0.8695(5) 0.14106(8)
H7_16 H 0.1643 0.8710 0.1407
C14_15 C 0.1436(7) 0.8872(6) 0.17492(15)
O5_15 O 0.2263(5) 0.9382(5) 0.17464(10)
N2_15 N 0.1252(4) 0.8232(4) 0.18420(11)
H8_15 H 0.0858 0.7786 0.1790
Cu5_16 Cu 0.12300(3) 0.83892(4) 0.098681(7)
N3_16 N 0.4110(3) 0.8762(4) 0.29133(5)
O7_9 O 0.5019(3) 0.8916(2) 0.25041(5)
H4_15 H 0.9785 0.8649 0.1705
C11_16 C 0.9656(5) 0.8649(6) 0.14215(11)
H5_16 H 0.9137 0.8618 0.1422
H6_16 H 0.9812 0.8710 0.1139
N1_17 N 0.1319(3) 0.2096(4) 0.12467(5)
O2_17 O 0.1120(2) 0.4636(3) 0.25178(4)
O3_9 O 0.3896(2) 0.4981(3) 0.25041(5)
C1_17 C 0.0949(3) 0.4346(4) 0.23503(7)
C2_16 C 0.1553(3) 0.4129(4) 0.22609(7)
C3_16 C 0.2338(3) 0.4450(4) 0.23416(7)
H1_16 H 0.2473 0.4773 0.2453
C4_16 C 0.2932(3) 0.4290(4) 0.22563(8)
C5_16 C 0.2726(4) 0.3808(6) 0.20931(9)
H2_16 H 0.3122 0.3706 0.2036
C6_16 C 0.1931(4) 0.3474(6) 0.20132(10)
C7_16 C 0.1336(4) 0.3635(6) 0.20980(8)
H3_16 H 0.0802 0.3411 0.2046
C8_17 C 0.3775(3) 0.4640(4) 0.23442(7)
C9_17 C 0.1311(6) 0.2116(9) 0.15863(9)
C10_17 C 0.1340(7) 0.1378(11) 0.15887(10)
H4_16 H 0.1351 0.1137 0.1705
C11_17 C 0.1351(6) 0.1008(8) 0.14215(11)
H5_17 H 0.1382 0.0520 0.1422
C12_17 C 0.1316(4) 0.1372(6) 0.12531(7)
H6_17 H 0.1290 0.1103 0.1139
C13_17 C 0.1305(5) 0.2437(7) 0.14106(8)
H7_17 H 0.1290 0.2934 0.1407
C14_16 C 0.1128(6) 0.2565(9) 0.17492(15)
O5_16 O 0.0618(5) 0.2882(7) 0.17464(10)
N2_16 N 0.1768(4) 0.3021(6) 0.18420(11)
H8_16 H 0.2214 0.3073 0.1790
Cu5_17 Cu 0.16108(4) 0.28408(5) 0.098681(7)
N3_17 N 0.1238(4) 0.5347(5) 0.29133(5)
H4_17 H 0.8863 0.0215 0.1705
C11_18 C 0.8992(8) 0.0344(5) 0.14215(11)
H5_18 H 0.9480 0.0863 0.1422
H6_18 H 0.8897 0.0188 0.1139
N1_18 N 0.7904(4) 0.9224(3) 0.12467(5)
O2_18 O 0.5364(3) 0.6485(2) 0.25178(4)
C1_18 C 0.5654(4) 0.6604(3) 0.23503(7)
C2_17 C 0.5871(4) 0.7425(3) 0.22609(7)
C3_17 C 0.5550(4) 0.7889(3) 0.23416(7)
H1_17 H 0.5227 0.7701 0.2453
C4_17 C 0.5710(4) 0.8643(3) 0.22563(8)
C5_17 C 0.6192(6) 0.8919(4) 0.20931(9)
H2_17 H 0.6294 0.9417 0.2036
C6_17 C 0.6526(6) 0.8458(4) 0.20132(10)
C7_17 C 0.6365(6) 0.7702(4) 0.20980(8)
H3_17 H 0.6589 0.7392 0.2046
C8_18 C 0.5360(4) 0.9136(3) 0.23442(7)
C9_18 C 0.7884(9) 0.9196(7) 0.15863(9)
C10_18 C 0.8622(11) 0.9963(8) 0.15887(10)
C12_18 C 0.8628(6) 0.9945(4) 0.12531(7)
C13_18 C 0.7563(7) 0.8869(5) 0.14106(8)
H7_18 H 0.7066 0.8357 0.1407
C14_17 C 0.7435(9) 0.8564(7) 0.17492(15)
O5_17 O 0.7118(7) 0.7737(5) 0.17464(10)
N2_17 N 0.6979(6) 0.8748(4) 0.18420(11)
H8_17 H 0.6927 0.9142 0.1790
Cu5_18 Cu 0.71592(5) 0.87700(3) 0.098681(7)
N3_18 N 0.4653(5) 0.5890(3) 0.29133(5)
O3_10 O 0.0563(2) 0.2249(2) 0.08374(5)
O4_10 O 0.0991(2) 0.3088(2) 0.05803(5)
C8_19 C 0.0442(3) 0.2469(3) 0.06775(7)
C9_19 C 0.7978(6) 0.2529(7) 0.99196(9)
C10_19 C 0.8007(7) 0.3296(8) 0.99220(10)
C11_19 C 0.8018(6) 0.3677(5) 0.97548(11)
H5_19 H 0.8049 0.4196 0.9755
C12_19 C 0.7983(4) 0.3278(4) 0.95864(7)
H6_19 H 0.7957 0.3521 0.9472
C13_19 C 0.7972(5) 0.2202(5) 0.97439(8)
H7_19 H 0.7957 0.1690 0.9740
O1_10 O 0.6991(2) 0.9437(2) 0.05893(5)
O2_19 O 0.7787(2) 0.9818(2) 0.08511(4)
C1_19 C 0.7616(3) 0.9937(3) 0.06836(7)
O6_10 O 0.6342(2) 0.9113(3) 0.10774(5)
O7_10 O 0.7751(2) 0.8314(3) 0.08374(5)
O8_10 O 0.6421(2) 0.7658(2) 0.10864(5)
O1_11 O 0.0563(2) 0.7554(3) 0.05893(5)
O2_20 O 0.0182(2) 0.7969(3) 0.08511(4)
C1_20 C 0.0063(3) 0.7679(4) 0.06836(7)
O6_11 O 0.0887(3) 0.7230(4) 0.10774(5)
O7_11 O 0.1686(3) 0.9437(4) 0.08374(5)
O8_11 O 0.2342(2) 0.8764(3) 0.10864(5)
O4_11 O 0.6912(2) 0.7903(3) 0.05803(5)
C2_18 C 0.9242(3) 0.7462(4) 0.05942(7)
C3_18 C 0.8778(3) 0.7783(4) 0.06749(7)
H1_18 H 0.8966 0.8106 0.0786
C4_18 C 0.8024(3) 0.7623(4) 0.05896(8)
C5_18 C 0.7748(4) 0.7141(6) 0.04264(9)
H2_18 H 0.7250 0.7039 0.0369
C6_18 C 0.8209(4) 0.6807(6) 0.03465(10)
C7_18 C 0.8965(4) 0.6968(6) 0.04313(8)
H3_18 H 0.9275 0.6744 0.0379
C8_20 C 0.7531(3) 0.7973(4) 0.06775(7)
H4_18 H 0.6452 0.4470 0.0038
C14_18 C 0.8103(7) 0.5898(9) 0.00825(15)
O5_18 O 0.8930(5) 0.6215(7) 0.00797(10)
N2_18 N 0.7919(4) 0.6354(6) 0.01753(11)
H8_18 H 0.7525 0.6406 0.0123
C9_20 C 0.7471(7) 0.5449(9) 0.99196(9)
C10_20 C 0.6704(8) 0.4711(11) 0.99220(10)
C11_20 C 0.6323(5) 0.4341(8) 0.97548(11)
H5_20 H 0.5804 0.3853 0.9755
C12_20 C 0.6722(4) 0.4705(6) 0.95864(7)
H6_20 H 0.6479 0.4436 0.9472
C13_20 C 0.7798(5) 0.5770(7) 0.97439(8)
H7_20 H 0.8310 0.6267 0.9740
O1_12 O 0.2446(3) 0.3009(2) 0.05893(5)
O2_21 O 0.2031(3) 0.2213(2) 0.08511(4)
C1_21 C 0.2321(4) 0.2384(3) 0.06836(7)
C2_19 C 0.2538(4) 0.1780(3) 0.05942(7)
C3_19 C 0.2217(4) 0.0995(3) 0.06749(7)
H1_19 H 0.1894 0.0860 0.0786
C4_19 C 0.2377(4) 0.0401(3) 0.05896(8)
C5_19 C 0.2859(6) 0.0607(4) 0.04264(9)
H2_19 H 0.2961 0.0211 0.0369
C6_19 C 0.3193(6) 0.1402(4) 0.03465(10)
C7_19 C 0.3032(6) 0.1997(4) 0.04313(8)
H3_19 H 0.3256 0.2531 0.0379
H4_19 H 0.5530 0.1982 0.0038
C14_19 C 0.4102(9) 0.2205(6) 0.00825(15)
O5_19 O 0.3785(7) 0.2715(5) 0.00797(10)
N2_19 N 0.3646(6) 0.1565(4) 0.01753(11)
H8_19 H 0.3594 0.1119 0.0123
O6_12 O 0.2770(4) 0.3658(2) 0.10774(5)
O8_12 O 0.1236(3) 0.3579(2) 0.10864(5)
C9_21 C 0.4551(9) 0.2022(6) 0.99196(9)
C10_21 C 0.5289(11) 0.1993(7) 0.99220(10)
C11_21 C 0.5659(8) 0.1982(6) 0.97548(11)
H5_21 H 0.6147 0.1951 0.9755
C12_21 C 0.5295(6) 0.2017(4) 0.95864(7)
H6_21 H 0.5564 0.2043 0.9472
C13_21 C 0.4230(7) 0.2028(5) 0.97439(8)
H7_21 H 0.3733 0.2043 0.9740
O4_12 O 0.2097(3) 0.9009(2) 0.05803(5)
C8_21 C 0.2027(4) 0.9558(3) 0.06775(7)
O3_11 O 0.2249(2) 0.0563(2) 0.41626(5)
O4_13 O 0.3088(2) 0.0991(2) 0.44197(5)
C8_22 C 0.2469(3) 0.0442(3) 0.43225(7)
C2_20 C 0.0758(3) 0.8220(3) 0.44058(7)
C3_20 C 0.1222(3) 0.9005(3) 0.43251(7)
H1_20 H 0.1034 0.9140 0.4214
C4_20 C 0.1976(3) 0.9599(3) 0.44104(8)
C5_20 C 0.2252(4) 0.9393(4) 0.45736(9)
H2_20 H 0.2750 0.9789 0.4631
C6_20 C 0.1791(4) 0.8598(4) 0.46535(10)
C7_20 C 0.1035(4) 0.8003(4) 0.45687(8)
H3_20 H 0.0725 0.7469 0.4621
C9_22 C 0.2529(7) 0.7978(6) 0.50804(9)
C10_22 C 0.3296(8) 0.8007(7) 0.50780(10)
H4_20 H 0.3548 0.8018 0.4962
C11_22 C 0.3677(5) 0.8018(6) 0.52452(11)
H5_22 H 0.4196 0.8049 0.5245
C12_22 C 0.3278(4) 0.7983(4) 0.54136(7)
H6_22 H 0.3521 0.7957 0.5528
C13_22 C 0.2202(5) 0.7972(5) 0.52561(8)
H7_22 H 0.1690 0.7957 0.5260
C14_20 C 0.1897(7) 0.7795(6) 0.49175(15)
O5_20 O 0.1070(5) 0.7285(5) 0.49203(10)
N2_20 N 0.2081(4) 0.8435(4) 0.48247(11)
H8_20 H 0.2475 0.8881 0.4877
O1_13 O 0.9437(2) 0.6991(2) 0.44107(5)
O2_22 O 0.9818(2) 0.7787(2) 0.41489(4)
C1_22 C 0.9937(3) 0.7616(3) 0.43164(7)
O6_13 O 0.9113(3) 0.6342(2) 0.39226(5)
O7_12 O 0.8314(3) 0.7751(2) 0.41626(5)
O8_13 O 0.7658(2) 0.6421(2) 0.39136(5)
O1_14 O 0.3009(2) 0.2446(3) 0.44107(5)
O2_23 O 0.2213(2) 0.2031(3) 0.41489(4)
C1_23 C 0.2384(3) 0.2321(4) 0.43164(7)
C2_21 C 0.1780(3) 0.2538(4) 0.44058(7)
C3_21 C 0.0995(3) 0.2217(4) 0.43251(7)
H1_21 H 0.0860 0.1894 0.4214
C4_21 C 0.0401(3) 0.2377(4) 0.44104(8)
C5_21 C 0.0607(4) 0.2859(6) 0.45736(9)
H2_21 H 0.0211 0.2961 0.4631
C6_21 C 0.1402(4) 0.3193(6) 0.46535(10)
C7_21 C 0.1997(4) 0.3032(6) 0.45687(8)
H3_21 H 0.2531 0.3256 0.4621
C9_23 C 0.2022(6) 0.4551(9) 0.50804(9)
C10_23 C 0.1993(7) 0.5289(11) 0.50780(10)
H4_21 H 0.1982 0.5530 0.4962
C11_23 C 0.1982(6) 0.5659(8) 0.52452(11)
H5_23 H 0.1951 0.6147 0.5245
C12_23 C 0.2017(4) 0.5295(6) 0.54136(7)
H6_23 H 0.2043 0.5564 0.5528
C13_23 C 0.2028(5) 0.4230(7) 0.52561(8)
H7_23 H 0.2043 0.3733 0.5260
C14_21 C 0.2205(6) 0.4102(9) 0.49175(15)
O5_21 O 0.2715(5) 0.3785(7) 0.49203(10)
N2_21 N 0.1565(4) 0.3646(6) 0.48247(11)
H8_21 H 0.1119 0.3594 0.4877
O6_14 O 0.3658(2) 0.2770(4) 0.39226(5)
O8_14 O 0.3579(2) 0.1236(3) 0.39136(5)
O3_12 O 0.9437(2) 0.1686(3) 0.41626(5)
O4_14 O 0.9009(2) 0.2097(3) 0.44197(5)
C8_23 C 0.9558(3) 0.2027(4) 0.43225(7)
O1_15 O 0.7554(3) 0.0563(2) 0.44107(5)
O2_24 O 0.7969(3) 0.0182(2) 0.41489(4)
C1_24 C 0.7679(4) 0.0063(3) 0.43164(7)
O6_15 O 0.7230(4) 0.0887(3) 0.39226(5)
O8_15 O 0.8764(3) 0.2342(2) 0.39136(5)
O4_15 O 0.7903(3) 0.6912(2) 0.44197(5)
C2_22 C 0.7462(4) 0.9242(3) 0.44058(7)
C3_22 C 0.7783(4) 0.8778(3) 0.43251(7)
H1_22 H 0.8106 0.8966 0.4214
C4_22 C 0.7623(4) 0.8024(3) 0.44104(8)
C5_22 C 0.7141(6) 0.7748(4) 0.45736(9)
H2_22 H 0.7039 0.7250 0.4631
C6_22 C 0.6807(6) 0.8209(4) 0.46535(10)
C7_22 C 0.6968(6) 0.8965(4) 0.45687(8)
H3_22 H 0.6744 0.9275 0.4621
C8_24 C 0.7973(4) 0.7531(3) 0.43225(7)
C9_24 C 0.5449(9) 0.7471(7) 0.50804(9)
C10_24 C 0.4711(11) 0.6704(8) 0.50780(10)
H4_22 H 0.4470 0.6452 0.4962
C11_24 C 0.4341(8) 0.6323(5) 0.52452(11)
H5_24 H 0.3853 0.5804 0.5245
C12_24 C 0.4705(6) 0.6722(4) 0.54136(7)
H6_24 H 0.4436 0.6479 0.5528
C13_24 C 0.5770(7) 0.7798(5) 0.52561(8)
H7_24 H 0.6267 0.8310 0.5260
C14_22 C 0.5898(9) 0.8103(7) 0.49175(15)
O5_22 O 0.6215(7) 0.8930(5) 0.49203(10)
N2_22 N 0.6354(6) 0.7919(4) 0.48247(11)
H8_22 H 0.6406 0.7525 0.4877
H4_23 H 0.1351 0.0215 0.6705
C11_25 C 0.1351(6) 0.0344(5) 0.64215(11)
H5_25 H 0.1382 0.0863 0.6422
H6_25 H 0.1290 0.0188 0.6139
O1_16 O 0.0324(2) 0.6104(2) 0.72560(5)
O2_25 O 0.1120(2) 0.6485(2) 0.75178(4)
O3_13 O 0.3896(2) 0.8916(2) 0.75041(5)
O4_16 O 0.4324(2) 0.9755(2) 0.72470(5)
C1_25 C 0.0949(3) 0.6604(3) 0.73503(7)
C2_23 C 0.1553(3) 0.7425(3) 0.72609(7)
C3_23 C 0.2338(3) 0.7889(3) 0.73416(7)
H1_23 H 0.2473 0.7701 0.7453
C4_23 C 0.2932(3) 0.8643(3) 0.72563(8)
C5_23 C 0.2726(4) 0.8919(4) 0.70931(9)
H2_23 H 0.3122 0.9417 0.7036
C6_23 C 0.1931(4) 0.8458(4) 0.70132(10)
C7_23 C 0.1336(4) 0.7702(4) 0.70980(8)
H3_23 H 0.0802 0.7392 0.7046
C8_25 C 0.3775(3) 0.9136(3) 0.73442(7)
C9_25 C 0.1311(6) 0.9196(7) 0.65863(9)
C10_25 C 0.1340(7) 0.9963(8) 0.65887(10)
C12_25 C 0.1316(4) 0.9945(4) 0.62531(7)
C13_25 C 0.1305(5) 0.8869(5) 0.64106(8)
H7_25 H 0.1290 0.8357 0.6407
C14_23 C 0.1128(6) 0.8564(7) 0.67492(15)
O5_23 O 0.0618(5) 0.7737(5) 0.67464(10)
N2_23 N 0.1768(4) 0.8748(4) 0.68420(11)
H8_23 H 0.2214 0.9142 0.6790
O7_13 O 0.1084(2) 0.4981(3) 0.75041(5)
O6_16 O 0.9676(2) 0.5779(3) 0.77440(5)
O8_16 O 0.9755(2) 0.4324(2) 0.77530(5)
O1_17 O 0.3896(2) 0.4221(3) 0.72560(5)
O2_26 O 0.3515(2) 0.4636(3) 0.75178(4)
O4_17 O 0.0245(2) 0.4570(3) 0.72470(5)
C1_26 C 0.3396(3) 0.4346(4) 0.73503(7)
C2_24 C 0.2575(3) 0.4129(4) 0.72609(7)
C3_24 C 0.2111(3) 0.4450(4) 0.73416(7)
H1_24 H 0.2299 0.4773 0.7453
C4_24 C 0.1357(3) 0.4290(4) 0.72563(8)
C5_24 C 0.1081(4) 0.3808(6) 0.70931(9)
H2_24 H 0.0583 0.3706 0.7036
C6_24 C 0.1542(4) 0.3474(6) 0.70132(10)
C7_24 C 0.2298(4) 0.3635(6) 0.70980(8)
H3_24 H 0.2608 0.3411 0.7046
C8_26 C 0.0864(3) 0.4640(4) 0.73442(7)
C9_26 C 0.0804(7) 0.2116(9) 0.65863(9)
C10_26 C 0.0037(8) 0.1378(11) 0.65887(10)
C12_26 C 0.0055(4) 0.1372(6) 0.62531(7)
C13_26 C 0.1131(5) 0.2437(7) 0.64106(8)
H7_26 H 0.1643 0.2934 0.6407
C14_24 C 0.1436(7) 0.2565(9) 0.67492(15)
O5_24 O 0.2263(5) 0.2882(7) 0.67464(10)
N2_24 N 0.1252(4) 0.3021(6) 0.68420(11)
H8_24 H 0.0858 0.3073 0.6790
O6_17 O 0.4221(3) 0.3896(4) 0.77440(5)
O7_14 O 0.5019(3) 0.6104(4) 0.75041(5)
O8_17 O 0.5676(2) 0.5430(3) 0.77530(5)
H4_24 H 0.9785 0.1137 0.6705
C11_26 C 0.9656(5) 0.1008(8) 0.64215(11)
H5_26 H 0.9137 0.0520 0.6422
H6_26 H 0.9812 0.1103 0.6139
O6_18 O 0.6104(4) 0.0324(2) 0.77440(5)
O8_18 O 0.4570(3) 0.0245(2) 0.77530(5)
O1_18 O 0.5779(3) 0.9676(2) 0.72560(5)
O2_27 O 0.5364(3) 0.8880(2) 0.75178(4)
O4_18 O 0.5430(3) 0.5676(2) 0.72470(5)
C1_27 C 0.5654(4) 0.9051(3) 0.73503(7)
C2_25 C 0.5871(4) 0.8447(3) 0.72609(7)
C3_25 C 0.5550(4) 0.7662(3) 0.73416(7)
H1_25 H 0.5227 0.7527 0.7453
C4_25 C 0.5710(4) 0.7068(3) 0.72563(8)
C5_25 C 0.6192(6) 0.7274(4) 0.70931(9)
H2_25 H 0.6294 0.6878 0.7036
C6_25 C 0.6526(6) 0.8069(4) 0.70132(10)
C7_25 C 0.6365(6) 0.8664(4) 0.70980(8)
H3_25 H 0.6589 0.9198 0.7046
C8_27 C 0.5360(4) 0.6225(3) 0.73442(7)
C9_27 C 0.7884(9) 0.8689(6) 0.65863(9)
C10_27 C 0.8622(11) 0.8660(7) 0.65887(10)
H4_25 H 0.8863 0.8649 0.6705
C11_27 C 0.8992(8) 0.8649(6) 0.64215(11)
H5_27 H 0.9480 0.8618 0.6422
C12_27 C 0.8628(6) 0.8684(4) 0.62531(7)
H6_27 H 0.8897 0.8710 0.6139
C13_27 C 0.7563(7) 0.8695(5) 0.64106(8)
H7_27 H 0.7066 0.8710 0.6407
C14_25 C 0.7435(9) 0.8872(6) 0.67492(15)
O5_25 O 0.7118(7) 0.9382(5) 0.67464(10)
N2_25 N 0.6979(6) 0.8232(4) 0.68420(11)
H8_25 H 0.6927 0.7786 0.6790
O2_28 O 0.3151(2) 0.4454(2) 0.08156(4)
O3_14 O 0.5582(2) 0.7230(2) 0.08293(5)
C1_28 C 0.3270(3) 0.4283(3) 0.09831(7)
C2_26 C 0.4091(3) 0.4887(3) 0.10725(7)
C3_26 C 0.4555(3) 0.5672(3) 0.09918(7)
H1_26 H 0.4367 0.5807 0.0881
C4_26 C 0.5309(3) 0.6266(3) 0.10771(8)
C5_26 C 0.5585(4) 0.6060(4) 0.12403(9)
H2_26 H 0.6083 0.6456 0.1298
C6_26 C 0.5124(4) 0.5265(4) 0.13202(10)
C7_26 C 0.4368(4) 0.4670(4) 0.12354(8)
H3_26 H 0.4058 0.4136 0.1288
C8_28 C 0.5802(3) 0.7109(3) 0.09892(7)
C9_28 C 0.5862(7) 0.4645(6) 0.17471(9)
C10_28 C 0.6629(8) 0.4674(7) 0.17447(10)
H4_26 H 0.6881 0.4685 0.1629
C11_28 C 0.7010(5) 0.4685(6) 0.19119(11)
H5_28 H 0.7529 0.4716 0.1912
C12_28 C 0.6611(4) 0.4650(4) 0.20803(7)
H6_28 H 0.6854 0.4624 0.2195
C13_28 C 0.5535(5) 0.4639(5) 0.19228(8)
H7_28 H 0.5023 0.4624 0.1927
C14_26 C 0.5230(7) 0.4462(6) 0.15842(15)
O5_26 O 0.4403(5) 0.3952(5) 0.15870(10)
N2_26 N 0.5414(4) 0.5102(4) 0.14914(11)
H8_26 H 0.5808 0.5548 0.1544
O7_15 O 0.1647(3) 0.4418(2) 0.08293(5)
C9_29 C 0.5355(6) 0.1218(9) 0.17471(9)
C10_29 C 0.5326(7) 0.1956(11) 0.17447(10)
H4_27 H 0.5315 0.2197 0.1629
C11_29 C 0.5315(6) 0.2326(8) 0.19119(11)
H5_29 H 0.5284 0.2814 0.1912
C12_29 C 0.5350(4) 0.1962(6) 0.20803(7)
H6_29 H 0.5376 0.2231 0.2195
C13_29 C 0.5361(5) 0.0897(7) 0.19228(8)
H7_29 H 0.5376 0.0400 0.1927
C14_27 C 0.5538(6) 0.0769(9) 0.15842(15)
O5_27 O 0.6048(5) 0.0452(7) 0.15870(10)
N2_27 N 0.4898(4) 0.0313(6) 0.14914(11)
H8_27 H 0.4452 0.0261 0.1544
O2_29 O 0.5546(2) 0.8698(3) 0.08156(4)
O3_15 O 0.2770(2) 0.8353(3) 0.08293(5)
C1_29 C 0.5717(3) 0.8988(4) 0.09831(7)
C2_27 C 0.5113(3) 0.9205(4) 0.10725(7)
C3_27 C 0.4328(3) 0.8884(4) 0.09918(7)
H1_27 H 0.4193 0.8561 0.0881
C4_27 C 0.3734(3) 0.9044(4) 0.10771(8)
C5_27 C 0.3940(4) 0.9526(6) 0.12403(9)
H2_27 H 0.3544 0.9628 0.1298
C6_27 C 0.4735(4) 0.9860(6) 0.13202(10)
C7_27 C 0.5330(4) 0.9699(6) 0.12354(8)
H3_27 H 0.5864 0.9923 0.1288
C8_29 C 0.2891(3) 0.8694(4) 0.09892(7)
O2_30 O 0.1302(3) 0.6849(2) 0.08156(4)
C1_30 C 0.1012(4) 0.6730(3) 0.09831(7)
C2_28 C 0.0795(4) 0.5909(3) 0.10725(7)
C3_28 C 0.1116(4) 0.5445(3) 0.09918(7)
H1_28 H 0.1439 0.5633 0.0881
C4_28 C 0.0956(4) 0.4691(3) 0.10771(8)
C5_28 C 0.0474(6) 0.4415(4) 0.12403(9)
H2_28 H 0.0372 0.3917 0.1298
C6_28 C 0.0140(6) 0.4876(4) 0.13202(10)
C7_28 C 0.0301(6) 0.5632(4) 0.12354(8)
H3_28 H 0.0077 0.5942 0.1288
C8_30 C 0.1306(4) 0.4198(3) 0.09892(7)
C9_30 C 0.8782(9) 0.4138(7) 0.17471(9)
C10_30 C 0.8044(11) 0.3371(8) 0.17447(10)
H4_28 H 0.7803 0.3119 0.1629
C11_30 C 0.7674(8) 0.2990(5) 0.19119(11)
H5_30 H 0.7186 0.2471 0.1912
C12_30 C 0.8038(6) 0.3389(4) 0.20803(7)
H6_30 H 0.7769 0.3146 0.2195
C13_30 C 0.9103(7) 0.4465(5) 0.19228(8)
H7_30 H 0.9600 0.4977 0.1927
C14_28 C 0.9231(9) 0.4770(7) 0.15842(15)
O5_28 O 0.9548(7) 0.5597(5) 0.15870(10)
N2_28 N 0.9687(6) 0.4586(4) 0.14914(11)
H8_28 H 0.9739 0.4192 0.1544
O2_31 O 0.4454(2) 0.3151(2) 0.41844(4)
O3_16 O 0.7230(2) 0.5582(2) 0.41707(5)
C1_31 C 0.4283(3) 0.3270(3) 0.40169(7)
C2_29 C 0.4887(3) 0.4091(3) 0.39275(7)
C3_29 C 0.5672(3) 0.4555(3) 0.40082(7)
H1_29 H 0.5807 0.4367 0.4119
C4_29 C 0.6266(3) 0.5309(3) 0.39229(8)
C5_29 C 0.6060(4) 0.5585(4) 0.37597(9)
H2_29 H 0.6456 0.6083 0.3702
C6_29 C 0.5265(4) 0.5124(4) 0.36798(10)
C7_29 C 0.4670(4) 0.4368(4) 0.37646(8)
H3_29 H 0.4136 0.4058 0.3712
C8_31 C 0.7109(3) 0.5802(3) 0.40108(7)
C9_31 C 0.4645(6) 0.5862(7) 0.32529(9)
C10_31 C 0.4674(7) 0.6629(8) 0.32553(10)
H4_29 H 0.4685 0.6881 0.3371
C11_31 C 0.4685(6) 0.7010(5) 0.30881(11)
H5_31 H 0.4716 0.7529 0.3088
C12_31 C 0.4650(4) 0.6611(4) 0.29197(7)
H6_31 H 0.4624 0.6854 0.2805
C13_31 C 0.4639(5) 0.5535(5) 0.30772(8)
H7_31 H 0.4624 0.5023 0.3073
C14_29 C 0.4462(6) 0.5230(7) 0.34158(15)
O5_29 O 0.3952(5) 0.4403(5) 0.34130(10)
N2_29 N 0.5102(4) 0.5414(4) 0.35086(11)
H8_29 H 0.5548 0.5808 0.3456
O7_16 O 0.4418(2) 0.1647(3) 0.41707(5)
O2_32 O 0.6849(2) 0.1302(3) 0.41844(4)
C1_32 C 0.6730(3) 0.1012(4) 0.40169(7)
C2_30 C 0.5909(3) 0.0795(4) 0.39275(7)
C3_30 C 0.5445(3) 0.1116(4) 0.40082(7)
H1_30 H 0.5633 0.1439 0.4119
C4_30 C 0.4691(3) 0.0956(4) 0.39229(8)
C5_30 C 0.4415(4) 0.0474(6) 0.37597(9)
H2_30 H 0.3917 0.0372 0.3702
C6_30 C 0.4876(4) 0.0140(6) 0.36798(10)
C7_30 C 0.5632(4) 0.0301(6) 0.37646(8)
H3_30 H 0.5942 0.0077 0.3712
C8_32 C 0.4198(3) 0.1306(4) 0.40108(7)
O7_17 O 0.8353(3) 0.2770(4) 0.41707(5)
C9_32 C 0.4138(7) 0.8782(9) 0.32529(9)
C10_32 C 0.3371(8) 0.8044(11) 0.32553(10)
H4_30 H 0.3119 0.7803 0.3371
C11_32 C 0.2990(5) 0.7674(8) 0.30881(11)
H5_32 H 0.2471 0.7186 0.3088
C12_32 C 0.3389(4) 0.8038(6) 0.29197(7)
H6_32 H 0.3146 0.7769 0.2805
C13_32 C 0.4465(5) 0.9103(7) 0.30772(8)
H7_32 H 0.4977 0.9600 0.3073
C14_30 C 0.4770(7) 0.9231(9) 0.34158(15)
O5_30 O 0.5597(5) 0.9548(7) 0.34130(10)
N2_30 N 0.4586(4) 0.9687(6) 0.35086(11)
H8_30 H 0.4192 0.9739 0.3456
C9_33 C 0.1218(9) 0.5355(6) 0.32529(9)
C10_33 C 0.1956(11) 0.5326(7) 0.32553(10)
H4_31 H 0.2197 0.5315 0.3371
C11_33 C 0.2326(8) 0.5315(6) 0.30881(11)
H5_33 H 0.2814 0.5284 0.3088
C12_33 C 0.1962(6) 0.5350(4) 0.29197(7)
H6_33 H 0.2231 0.5376 0.2805
C13_33 C 0.0897(7) 0.5361(5) 0.30772(8)
H7_33 H 0.0400 0.5376 0.3073
C14_31 C 0.0769(9) 0.5538(6) 0.34158(15)
O5_31 O 0.0452(7) 0.6048(5) 0.34130(10)
N2_31 N 0.0313(6) 0.4898(4) 0.35086(11)
H8_31 H 0.0261 0.4452 0.3456
O2_33 O 0.8698(3) 0.5546(2) 0.41844(4)
C1_33 C 0.8988(4) 0.5717(3) 0.40169(7)
C2_31 C 0.9205(4) 0.5113(3) 0.39275(7)
C3_31 C 0.8884(4) 0.4328(3) 0.40082(7)
H1_31 H 0.8561 0.4193 0.4119
C4_31 C 0.9044(4) 0.3734(3) 0.39229(8)
C5_31 C 0.9526(6) 0.3940(4) 0.37597(9)
H2_31 H 0.9628 0.3544 0.3702
C6_31 C 0.9860(6) 0.4735(4) 0.36798(10)
C7_31 C 0.9699(6) 0.5330(4) 0.37646(8)
H3_31 H 0.9923 0.5864 0.3712
C8_33 C 0.8694(4) 0.2891(3) 0.40108(7)
H4_32 H 0.0215 0.1351 0.8295
C11_34 C 0.0344(5) 0.1351(6) 0.85785(11)
H5_34 H 0.0863 0.1382 0.8578
H6_34 H 0.0188 0.1290 0.8861
O2_34 O 0.6485(2) 0.1120(2) 0.74822(4)
O3_17 O 0.8916(2) 0.3896(2) 0.74959(5)
C1_34 C 0.6604(3) 0.0949(3) 0.76497(7)
C2_32 C 0.7425(3) 0.1553(3) 0.77391(7)
C3_32 C 0.7889(3) 0.2338(3) 0.76584(7)
H1_32 H 0.7701 0.2473 0.7547
C4_32 C 0.8643(3) 0.2932(3) 0.77437(8)
C5_32 C 0.8919(4) 0.2726(4) 0.79069(9)
H2_32 H 0.9417 0.3122 0.7964
C6_32 C 0.8458(4) 0.1931(4) 0.79868(10)
C7_32 C 0.7702(4) 0.1336(4) 0.79020(8)
H3_32 H 0.7392 0.0802 0.7954
C8_34 C 0.9136(3) 0.3775(3) 0.76558(7)
C9_34 C 0.9196(7) 0.1311(6) 0.84137(9)
C10_34 C 0.9963(8) 0.1340(7) 0.84113(10)
C12_34 C 0.9945(4) 0.1316(4) 0.87469(7)
C13_34 C 0.8869(5) 0.1305(5) 0.85894(8)
H7_34 H 0.8357 0.1290 0.8593
C14_32 C 0.8564(7) 0.1128(6) 0.82508(15)
O5_32 O 0.7737(5) 0.0618(5) 0.82536(10)
N2_32 N 0.8748(4) 0.1768(4) 0.81580(11)
H8_32 H 0.9142 0.2214 0.8210
O7_18 O 0.4981(3) 0.1084(2) 0.74959(5)
O2_35 O 0.8880(2) 0.5364(3) 0.74822(4)
O3_18 O 0.6104(2) 0.5019(3) 0.74959(5)
C1_35 C 0.9051(3) 0.5654(4) 0.76497(7)
C2_33 C 0.8447(3) 0.5871(4) 0.77391(7)
C3_33 C 0.7662(3) 0.5550(4) 0.76584(7)
H1_33 H 0.7527 0.5227 0.7547
C4_33 C 0.7068(3) 0.5710(4) 0.77437(8)
C5_33 C 0.7274(4) 0.6192(6) 0.79069(9)
H2_33 H 0.6878 0.6294 0.7964
C6_33 C 0.8069(4) 0.6526(6) 0.79868(10)
C7_33 C 0.8664(4) 0.6365(6) 0.79020(8)
H3_33 H 0.9198 0.6589 0.7954
C8_35 C 0.6225(3) 0.5360(4) 0.76558(7)
C9_35 C 0.8689(6) 0.7884(9) 0.84137(9)
C10_35 C 0.8660(7) 0.8622(11) 0.84113(10)
H4_33 H 0.8649 0.8863 0.8295
C11_35 C 0.8649(6) 0.8992(8) 0.85785(11)
H5_35 H 0.8618 0.9480 0.8578
C12_35 C 0.8684(4) 0.8628(6) 0.87469(7)
H6_35 H 0.8710 0.8897 0.8861
C13_35 C 0.8695(5) 0.7563(7) 0.85894(8)
H7_35 H 0.8710 0.7066 0.8593
C14_33 C 0.8872(6) 0.7435(9) 0.82508(15)
O5_33 O 0.9382(5) 0.7118(7) 0.82536(10)
N2_33 N 0.8232(4) 0.6979(6) 0.81580(11)
H8_33 H 0.7786 0.6927 0.8210
O2_36 O 0.4636(3) 0.3515(2) 0.74822(4)
C1_36 C 0.4346(4) 0.3396(3) 0.76497(7)
C2_34 C 0.4129(4) 0.2575(3) 0.77391(7)
C3_34 C 0.4450(4) 0.2111(3) 0.76584(7)
H1_34 H 0.4773 0.2299 0.7547
C4_34 C 0.4290(4) 0.1357(3) 0.77437(8)
C5_34 C 0.3808(6) 0.1081(4) 0.79069(9)
H2_34 H 0.3706 0.0583 0.7964
C6_34 C 0.3474(6) 0.1542(4) 0.79868(10)
C7_34 C 0.3635(6) 0.2298(4) 0.79020(8)
H3_34 H 0.3411 0.2608 0.7954
C8_36 C 0.4640(4) 0.0864(3) 0.76558(7)
C9_36 C 0.2116(9) 0.0804(7) 0.84137(9)
C10_36 C 0.1378(11) 0.0037(8) 0.84113(10)
C12_36 C 0.1372(6) 0.0055(4) 0.87469(7)
C13_36 C 0.2437(7) 0.1131(5) 0.85894(8)
H7_36 H 0.2934 0.1643 0.8593
C14_34 C 0.2565(9) 0.1436(7) 0.82508(15)
O5_34 O 0.2882(7) 0.2263(5) 0.82536(10)
N2_34 N 0.3021(6) 0.1252(4) 0.81580(11)
H8_34 H 0.3073 0.0858 0.8210
H4_34 H 0.1137 0.9785 0.8295
C11_36 C 0.1008(8) 0.9656(5) 0.85785(11)
H5_36 H 0.0520 0.9137 0.8578
H6_36 H 0.1103 0.9812 0.8861
C2_35 C 0.1780(3) 0.9242(3) 0.94058(7)
C3_35 C 0.0995(3) 0.8778(3) 0.93251(7)
H1_35 H 0.0860 0.8966 0.9214
C4_35 C 0.0401(3) 0.8024(3) 0.94104(8)
C5_35 C 0.0607(4) 0.7748(4) 0.95736(9)
H2_35 H 0.0211 0.7250 0.9631
C6_35 C 0.1402(4) 0.8209(4) 0.96535(10)
C7_35 C 0.1997(4) 0.8965(4) 0.95687(8)
H3_35 H 0.2531 0.9275 0.9621
H4_35 H 0.1982 0.6452 0.9962
C14_35 C 0.2205(6) 0.8103(7) 0.99175(15)
O5_35 O 0.2715(5) 0.8930(5) 0.99203(10)
N2_35 N 0.1565(4) 0.7919(4) 0.98247(11)
H8_35 H 0.1119 0.7525 0.9877
C2_36 C 0.8220(3) 0.0758(3) 0.05942(7)
C3_36 C 0.9005(3) 0.1222(3) 0.06749(7)
H1_36 H 0.9140 0.1034 0.0786
C4_36 C 0.9599(3) 0.1976(3) 0.05896(8)
C5_36 C 0.9393(4) 0.2252(4) 0.04264(9)
H2_36 H 0.9789 0.2750 0.0369
C6_36 C 0.8598(4) 0.1791(4) 0.03465(10)
C7_36 C 0.8003(4) 0.1035(4) 0.04313(8)
H3_36 H 0.7469 0.0725 0.0379
H4_36 H 0.8018 0.3548 0.0038
C14_36 C 0.7795(6) 0.1897(7) 0.00825(15)
O5_36 O 0.7285(5) 0.1070(5) 0.00797(10)
N2_36 N 0.8435(4) 0.2081(4) 0.01753(11)
H8_36 H 0.8881 0.2475 0.0123
loop_
_geom_bond_atom_site_label_1
_geom_bond_atom_site_label_2
_geom_bond_site_symmetry_1
_geom_bond_site_symmetry_2
Cu1 O2 1_555 1_555
O1 C1 1_555 1_555
O2 C1 1_555 1_555
Cu4 Cu1 1_555 1_555
N3 Cu1 1_555 1_555
O6 Cu1 1_555 1_555
O7 Cu1 1_555 1_555
O8 Cu1 1_555 1_555
O1 Cu4 1_555 1_555
N1 C12 1_555 1_555
C9 C10 1_555 1_555
C11 C10 1_555 1_555
H5 C11 1_555 1_555
C12 C11 1_555 1_555
H6 C12 1_555 1_555
C13 N1 1_555 1_555
H7 C13 1_555 1_555
Cu5 N1 1_555 1_555
C9 C13 1_555 1_555
O3 C8 1_555 1_555
O4 C8 1_555 1_555
Cu2 O3 1_555 1_555
Cu3 O4 1_555 1_555
Cu2 Cu3 1_555 1_555
N1_2 C12_2 1_555 1_555
C9_2 C10_2 1_555 1_555
C11_2 C10_2 1_555 1_555
H5_2 C11_2 1_555 1_555
C12_2 C11_2 1_555 1_555
H6_2 C12_2 1_555 1_555
C13_2 N1_2 1_555 1_555
H7_2 C13_2 1_555 1_555
Cu5_2 N1_2 1_555 1_555
C9_2 C13_2 1_555 1_555
O7 C8_2 1_555 1_555
O4_2 C8_2 1_555 1_555
C2 C3 1_555 1_555
C3 H1 1_555 1_555
C4 C3 1_555 1_555
C5 C4 1_555 1_555
H2 C5 1_555 1_555
C6 C5 1_555 1_555
C7 C2 1_555 1_555
H3 C7 1_555 1_555
C8_2 C4 1_555 1_555
O5 C14 1_555 1_555
N2 C6 1_555 1_555
H8 N2 1_555 1_555
Cu4 O4_2 1_555 1_555
C6 C7 1_555 1_555
C14 N2 1_555 1_555
Cu1_2 O2_2 1_555 1_555
O1_2 C1_2 1_555 1_555
O2_2 C1_2 1_555 1_555
Cu4_2 Cu1_2 1_555 1_555
N3_2 Cu1_2 1_555 1_555
O6_2 Cu1_2 1_555 1_555
O7_2 Cu1_2 1_555 1_555
O8_2 Cu1_2 1_555 1_555
O1_2 Cu4_2 1_555 1_555
O7_2 C8_3 1_555 1_555
O4_3 C8_3 1_555 1_555
Cu4_2 O4_3 1_555 1_555
N1_3 C12_3 1_555 1_555
C9_3 C10_3 1_555 1_555
C11_3 C10_3 1_555 1_555
H5_3 C11_3 1_555 1_555
C12_3 C11_3 1_555 1_555
H6_3 C12_3 1_555 1_555
C13_3 N1_3 1_555 1_555
H7_3 C13_3 1_555 1_555
Cu5_3 N1_3 1_555 1_555
C9_3 C13_3 1_555 1_555
Cu2 O2_3 1_555 1_555
O1_3 C1_3 1_555 1_555
O2_3 C1_3 1_555 1_555
C1_3 C2_2 1_555 1_555
C2_2 C3_2 1_555 1_555
C3_2 H1_2 1_555 1_555
C4_2 C3_2 1_555 1_555
C5_2 C4_2 1_555 1_555
H2_2 C5_2 1_555 1_555
C6_2 C5_2 1_555 1_555
C7_2 C2_2 1_555 1_555
H3_2 C7_2 1_555 1_555
O5_2 C14_2 1_555 1_555
N2_2 C6_2 1_555 1_555
H8_2 N2_2 1_555 1_555
N3_3 Cu2 1_555 1_555
O6_3 Cu2 1_555 1_555
O8_3 Cu2 1_555 1_555
O1_3 Cu3 1_555 1_555
C6_2 C7_2 1_555 1_555
C14_2 N2_2 1_555 1_555
Cu1_3 O2_4 1_555 1_555
O1_4 C1_4 1_555 1_555
O2_4 C1_4 1_555 1_555
Cu4_3 Cu1_3 1_555 1_555
N3_4 Cu1_3 1_555 1_555
O6_4 Cu1_3 1_555 1_555
O7_3 Cu1_3 1_555 1_555
O8_4 Cu1_3 1_555 1_555
O1_4 Cu4_3 1_555 1_555
N1_4 C12_4 1_555 1_555
C2_3 C3_3 1_555 1_555
C3_3 H1_3 1_555 1_555
C4_3 C3_3 1_555 1_555
C5_3 C4_3 1_555 1_555
H2_3 C5_3 1_555 1_555
C6_3 C5_3 1_555 1_555
C7_3 C2_3 1_555 1_555
H3_3 C7_3 1_555 1_555
C9_4 C10_4 1_555 1_555
C10_4 H4_3 1_555 1_555
C11_4 C10_4 1_555 1_555
H5_4 C11_4 1_555 1_555
C12_4 C11_4 1_555 1_555
H6_4 C12_4 1_555 1_555
C13_4 N1_4 1_555 1_555
H7_4 C13_4 1_555 1_555
C14_3 C9_4 1_555 1_555
O5_3 C14_3 1_555 1_555
N2_3 C6_3 1_555 1_555
H8_3 N2_3 1_555 1_555
Cu5_4 N1_4 1_555 1_555
C6_3 C7_3 1_555 1_555
C9_4 C13_4 1_555 1_555
C14_3 N2_3 1_555 1_555
O3_2 C8_4 1_555 1_555
O4_4 C8_4 1_555 1_555
Cu2_2 O3_2 1_555 1_555
Cu3_2 O4_4 1_555 1_555
Cu2_2 Cu3_2 1_555 1_555
O3_3 C8_5 1_555 1_555
O4_5 C8_5 1_555 1_555
Cu2_3 O3_3 1_555 1_555
Cu3_3 O4_5 1_555 1_555
Cu2_3 Cu3_3 1_555 1_555
Cu2_2 O2_5 1_555 1_555
N1_5 C12_5 1_555 1_555
O1_5 C1_5 1_555 1_555
O2_5 C1_5 1_555 1_555
C1_5 C2_4 1_555 1_555
C2_4 C3_4 1_555 1_555
C3_4 H1_4 1_555 1_555
C4_4 C3_4 1_555 1_555
C5_4 C4_4 1_555 1_555
H2_4 C5_4 1_555 1_555
C6_4 C5_4 1_555 1_555
C7_4 C2_4 1_555 1_555
H3_4 C7_4 1_555 1_555
C9_5 C10_5 1_555 1_555
C10_5 H4_4 1_555 1_555
C11_5 C10_5 1_555 1_555
H5_5 C11_5 1_555 1_555
C12_5 C11_5 1_555 1_555
H6_5 C12_5 1_555 1_555
C13_5 N1_5 1_555 1_555
H7_5 C13_5 1_555 1_555
C14_4 C9_5 1_555 1_555
O5_4 C14_4 1_555 1_555
N2_4 C6_4 1_555 1_555
H8_4 N2_4 1_555 1_555
Cu5_5 N1_5 1_555 1_555
N3_5 Cu2_2 1_555 1_555
O6_5 Cu2_2 1_555 1_555
O8_5 Cu2_2 1_555 1_555
O1_5 Cu3_2 1_555 1_555
C6_4 C7_4 1_555 1_555
C9_5 C13_5 1_555 1_555
C14_4 N2_4 1_555 1_555
N1_6 C12_6 1_555 1_555
O7_3 C8_6 1_555 1_555
O4_6 C8_6 1_555 1_555
C2_5 C3_5 1_555 1_555
C3_5 H1_5 1_555 1_555
C4_5 C3_5 1_555 1_555
C5_5 C4_5 1_555 1_555
H2_5 C5_5 1_555 1_555
C6_5 C5_5 1_555 1_555
C7_5 C2_5 1_555 1_555
H3_5 C7_5 1_555 1_555
C8_6 C4_5 1_555 1_555
C9_6 C10_6 1_555 1_555
C10_6 H4_5 1_555 1_555
C11_6 C10_6 1_555 1_555
H5_6 C11_6 1_555 1_555
C12_6 C11_6 1_555 1_555
H6_6 C12_6 1_555 1_555
C13_6 N1_6 1_555 1_555
H7_6 C13_6 1_555 1_555
C14_5 C9_6 1_555 1_555
O5_5 C14_5 1_555 1_555
N2_5 C6_5 1_555 1_555
H8_5 N2_5 1_555 1_555
Cu4_3 O4_6 1_555 1_555
Cu5_6 N1_6 1_555 1_555
C6_5 C7_5 1_555 1_555
C9_6 C13_6 1_555 1_555
C14_5 N2_5 1_555 1_555
Cu2_3 O2_6 1_555 1_555
O1_6 C1_6 1_555 1_555
O2_6 C1_6 1_555 1_555
N3_6 Cu2_3 1_555 1_555
O6_6 Cu2_3 1_555 1_555
O8_6 Cu2_3 1_555 1_555
O1_6 Cu3_3 1_555 1_555
Cu1_4 O2_7 1_555 1_555
N1_7 C12_7 1_555 1_555
O1_7 C1_7 1_555 1_555
O2_7 C1_7 1_555 1_555
O3_4 C8_7 1_555 1_555
O4_7 C8_7 1_555 1_555
C1_7 C2_6 1_555 1_555
C2_6 C3_6 1_555 1_555
C3_6 H1_6 1_555 1_555
C4_6 C3_6 1_555 1_555
C5_6 C4_6 1_555 1_555
H2_6 C5_6 1_555 1_555
C6_6 C5_6 1_555 1_555
C7_6 C2_6 1_555 1_555
H3_6 C7_6 1_555 1_555
C8_7 C4_6 1_555 1_555
C9_7 C10_7 1_555 1_555
C13_7 N1_7 1_555 1_555
H7_7 C13_7 1_555 1_555
C14_6 C9_7 1_555 1_555
O5_6 C14_6 1_555 1_555
N2_6 C6_6 1_555 1_555
H8_6 N2_6 1_555 1_555
Cu2_4 O3_4 1_555 1_555
Cu5_7 N1_7 1_555 1_555
N3_7 Cu1_4 1_555 1_555
O7_4 Cu1_4 1_555 1_555
C6_6 C7_6 1_555 1_555
C9_7 C13_7 1_555 1_555
C14_6 N2_6 1_555 1_555
H5_7 C11_7 1_555 1_555
H5_8 C11_8 1_555 1_555
Cu1_5 O2_8 1_555 1_555
N1_8 C12_8 1_555 1_555
O1_8 C1_8 1_555 1_555
O2_8 C1_8 1_555 1_555
O7_4 C8_8 1_555 1_555
O4_8 C8_8 1_555 1_555
C1_8 C2_7 1_555 1_555
C2_7 C3_7 1_555 1_555
C3_7 H1_7 1_555 1_555
C4_7 C3_7 1_555 1_555
C5_7 C4_7 1_555 1_555
H2_7 C5_7 1_555 1_555
C6_7 C5_7 1_555 1_555
C7_7 C2_7 1_555 1_555
H3_7 C7_7 1_555 1_555
C8_8 C4_7 1_555 1_555
C9_8 C10_8 1_555 1_555
C13_8 N1_8 1_555 1_555
H7_8 C13_8 1_555 1_555
C14_7 C9_8 1_555 1_555
O5_7 C14_7 1_555 1_555
N2_7 C6_7 1_555 1_555
H8_7 N2_7 1_555 1_555
Cu4_5 Cu1_5 1_555 1_555
Cu5_8 N1_8 1_555 1_555
N3_8 Cu1_5 1_555 1_555
O6_8 Cu1_5 1_555 1_555
O7_5 Cu1_5 1_555 1_555
O8_8 Cu1_5 1_555 1_555
O1_8 Cu4_5 1_555 1_555
C6_7 C7_7 1_555 1_555
C9_8 C13_8 1_555 1_555
C14_7 N2_7 1_555 1_555
Cu2_4 O2_9 1_555 1_555
N1_9 C12_9 1_555 1_555
O1_9 C1_9 1_555 1_555
O2_9 C1_9 1_555 1_555
O7_5 C8_9 1_555 1_555
O4_9 C8_9 1_555 1_555
C1_9 C2_8 1_555 1_555
C2_8 C3_8 1_555 1_555
C3_8 H1_8 1_555 1_555
C4_8 C3_8 1_555 1_555
C5_8 C4_8 1_555 1_555
H2_8 C5_8 1_555 1_555
C6_8 C5_8 1_555 1_555
C7_8 C2_8 1_555 1_555
H3_8 C7_8 1_555 1_555
C8_9 C4_8 1_555 1_555
C9_9 C10_9 1_555 1_555
C10_9 H4_8 1_555 1_555
C11_9 C10_9 1_555 1_555
H5_9 C11_9 1_555 1_555
C12_9 C11_9 1_555 1_555
H6_9 C12_9 1_555 1_555
C13_9 N1_9 1_555 1_555
H7_9 C13_9 1_555 1_555
C14_8 C9_9 1_555 1_555
O5_8 C14_8 1_555 1_555
N2_8 C6_8 1_555 1_555
H8_8 N2_8 1_555 1_555
Cu4_5 O4_9 1_555 1_555
Cu5_9 N1_9 1_555 1_555
N3_9 Cu2_4 1_555 1_555
C6_8 C7_8 1_555 1_555
C9_9 C13_9 1_555 1_555
C14_8 N2_8 1_555 1_555
Cu3 O2_10 1_555 1_555
N1_10 C12_10 1_555 1_555
O6_3 C1_10 1_555 1_555
O2_10 C1_10 1_555 1_555
O3_5 C8_10 1_555 1_555
O8 C8_10 1_555 1_555
C1_10 C2_9 1_555 1_555
C2_9 C3_9 1_555 1_555
C3_9 H1_9 1_555 1_555
C4_9 C3_9 1_555 1_555
C5_9 C4_9 1_555 1_555
H2_9 C5_9 1_555 1_555
C6_9 C5_9 1_555 1_555
C7_9 C2_9 1_555 1_555
H3_9 C7_9 1_555 1_555
C8_10 C4_9 1_555 1_555
C9_10 C10_10 1_555 1_555
C10_10 H4_9 1_555 1_555
C11_10 C10_10 1_555 1_555
H5_10 C11_10 1_555 1_555
C12_10 C11_10 1_555 1_555
H6_10 C12_10 1_555 1_555
C13_10 N1_10 1_555 1_555
H7_10 C13_10 1_555 1_555
C14_9 C9_10 1_555 1_555
O5_9 C14_9 1_555 1_555
N2_9 C6_9 1_555 1_555
H8_9 N2_9 1_555 1_555
Cu4 O3_5 1_555 1_555
Cu5_10 N1_10 1_555 1_555
N3_10 Cu3 1_555 1_555
O7_6 Cu3 1_555 1_555
C6_9 C7_9 1_555 1_555
C9_10 C13_10 1_555 1_555
C14_9 N2_9 1_555 1_555
Cu4 O2_11 1_555 1_555
O6 C1_11 1_555 1_555
O2_11 C1_11 1_555 1_555
O3_6 C8_11 1_555 1_555
O8_2 C8_11 1_555 1_555
C1_11 C2_10 1_555 1_555
C2_10 C3_10 1_555 1_555
C3_10 H1_10 1_555 1_555
C4_10 C3_10 1_555 1_555
C5_10 C4_10 1_555 1_555
H2_10 C5_10 1_555 1_555
C6_10 C5_10 1_555 1_555
C7_10 C2_10 1_555 1_555
H3_10 C7_10 1_555 1_555
C8_11 C4_10 1_555 1_555
Cu4_2 O3_6 1_555 1_555
N3_11 Cu4 1_555 1_555
C6_10 C7_10 1_555 1_555
N1_11 C12_11 1_555 1_555
C9_11 C10_11 1_555 1_555
C10_11 H4_10 1_555 1_555
C11_11 C10_11 1_555 1_555
H5_11 C11_11 1_555 1_555
C12_11 C11_11 1_555 1_555
H6_11 C12_11 1_555 1_555
C13_11 N1_11 1_555 1_555
H7_11 C13_11 1_555 1_555
C14_10 C9_11 1_555 1_555
O5_10 C14_10 1_555 1_555
H8_10 N2_10 1_555 1_555
Cu5_11 N1_11 1_555 1_555
C9_11 C13_11 1_555 1_555
C14_10 N2_10 1_555 1_555
N1_12 C12_12 1_555 1_555
C9_12 C10_12 1_555 1_555
C10_12 H4_11 1_555 1_555
C11_12 C10_12 1_555 1_555
H5_12 C11_12 1_555 1_555
C12_12 C11_12 1_555 1_555
H6_12 C12_12 1_555 1_555
C13_12 N1_12 1_555 1_555
H7_12 C13_12 1_555 1_555
C14_11 C9_12 1_555 1_555
O5_11 C14_11 1_555 1_555
H8_11 N2_11 1_555 1_555
Cu5_12 N1_12 1_555 1_555
C9_12 C13_12 1_555 1_555
C14_11 N2_11 1_555 1_555
Cu4_2 O2_12 1_555 1_555
O6_2 C1_12 1_555 1_555
O2_12 C1_12 1_555 1_555
O7_6 C8_12 1_555 1_555
O8_3 C8_12 1_555 1_555
C1_12 C2_11 1_555 1_555
C2_11 C3_11 1_555 1_555
C3_11 H1_11 1_555 1_555
C4_11 C3_11 1_555 1_555
C5_11 C4_11 1_555 1_555
H2_11 C5_11 1_555 1_555
C6_11 C5_11 1_555 1_555
C7_11 C2_11 1_555 1_555
H3_11 C7_11 1_555 1_555
C8_12 C4_11 1_555 1_555
N3_12 Cu4_2 1_555 1_555
C6_11 C7_11 1_555 1_555
Cu3_2 O2_13 1_555 1_555
N1_13 C12_13 1_555 1_555
O6_5 C1_13 1_555 1_555
O2_13 C1_13 1_555 1_555
O3_7 C8_13 1_555 1_555
O8_4 C8_13 1_555 1_555
C1_13 C2_12 1_555 1_555
C2_12 C3_12 1_555 1_555
C3_12 H1_12 1_555 1_555
C4_12 C3_12 1_555 1_555
C5_12 C4_12 1_555 1_555
H2_12 C5_12 1_555 1_555
C6_12 C5_12 1_555 1_555
C7_12 C2_12 1_555 1_555
H3_12 C7_12 1_555 1_555
C8_13 C4_12 1_555 1_555
C9_13 C10_13 1_555 1_555
C10_13 H4_12 1_555 1_555
C11_13 C10_13 1_555 1_555
H5_13 C11_13 1_555 1_555
C12_13 C11_13 1_555 1_555
H6_13 C12_13 1_555 1_555
C13_13 N1_13 1_555 1_555
H7_13 C13_13 1_555 1_555
C14_12 C9_13 1_555 1_555
O5_12 C14_12 1_555 1_555
N2_12 C6_12 1_555 1_555
H8_12 N2_12 1_555 1_555
Cu4_3 O3_7 1_555 1_555
Cu5_13 N1_13 1_555 1_555
N3_13 Cu3_2 1_555 1_555
O7_7 Cu3_2 1_555 1_555
C6_12 C7_12 1_555 1_555
C9_13 C13_13 1_555 1_555
C14_12 N2_12 1_555 1_555
N1_14 C12_14 1_555 1_555
C9_14 C10_14 1_555 1_555
C10_14 H4_13 1_555 1_555
C11_14 C10_14 1_555 1_555
H5_14 C11_14 1_555 1_555
C12_14 C11_14 1_555 1_555
H6_14 C12_14 1_555 1_555
C13_14 N1_14 1_555 1_555
H7_14 C13_14 1_555 1_555
C14_13 C9_14 1_555 1_555
O5_13 C14_13 1_555 1_555
H8_13 N2_13 1_555 1_555
Cu5_14 N1_14 1_555 1_555
C9_14 C13_14 1_555 1_555
C14_13 N2_13 1_555 1_555
Cu3_3 O2_14 1_555 1_555
O6_6 C1_14 1_555 1_555
O2_14 C1_14 1_555 1_555
O7_7 C8_14 1_555 1_555
O8_5 C8_14 1_555 1_555
C1_14 C2_13 1_555 1_555
C2_13 C3_13 1_555 1_555
C3_13 H1_13 1_555 1_555
C4_13 C3_13 1_555 1_555
C5_13 C4_13 1_555 1_555
H2_13 C5_13 1_555 1_555
C6_13 C5_13 1_555 1_555
C7_13 C2_13 1_555 1_555
H3_13 C7_13 1_555 1_555
C8_14 C4_13 1_555 1_555
N3_14 Cu3_3 1_555 1_555
O7_8 Cu3_3 1_555 1_555
C6_13 C7_13 1_555 1_555
Cu4_3 O2_15 1_555 1_555
O6_4 C1_15 1_555 1_555
O2_15 C1_15 1_555 1_555
O7_8 C8_15 1_555 1_555
O8_6 C8_15 1_555 1_555
C1_15 C2_14 1_555 1_555
C2_14 C3_14 1_555 1_555
C3_14 H1_14 1_555 1_555
C4_14 C3_14 1_555 1_555
C5_14 C4_14 1_555 1_555
H2_14 C5_14 1_555 1_555
C6_14 C5_14 1_555 1_555
C7_14 C2_14 1_555 1_555
H3_14 C7_14 1_555 1_555
C8_15 C4_14 1_555 1_555
N3_15 Cu4_3 1_555 1_555
C6_14 C7_14 1_555 1_555
N1_15 C12_15 1_555 1_555
C9_15 C10_15 1_555 1_555
C10_15 H4_14 1_555 1_555
C11_15 C10_15 1_555 1_555
H5_15 C11_15 1_555 1_555
C12_15 C11_15 1_555 1_555
H6_15 C12_15 1_555 1_555
C13_15 N1_15 1_555 1_555
H7_15 C13_15 1_555 1_555
C14_14 C9_15 1_555 1_555
O5_14 C14_14 1_555 1_555
H8_14 N2_14 1_555 1_555
Cu5_15 N1_15 1_555 1_555
C9_15 C13_15 1_555 1_555
C14_14 N2_14 1_555 1_555
Cu3_4 O2_16 1_555 1_555
N1_16 C12_16 1_555 1_555
O6_9 C1_16 1_555 1_555
O2_16 C1_16 1_555 1_555
O3_8 C8_16 1_555 1_555
O8_7 C8_16 1_555 1_555
C1_16 C2_15 1_555 1_555
C2_15 C3_15 1_555 1_555
C3_15 H1_15 1_555 1_555
C4_15 C3_15 1_555 1_555
C5_15 C4_15 1_555 1_555
H2_15 C5_15 1_555 1_555
C6_15 C5_15 1_555 1_555
C7_15 C2_15 1_555 1_555
H3_15 C7_15 1_555 1_555
C8_16 C4_15 1_555 1_555
C9_16 C10_16 1_555 1_555
C13_16 N1_16 1_555 1_555
H7_16 C13_16 1_555 1_555
C14_15 C9_16 1_555 1_555
O5_15 C14_15 1_555 1_555
N2_15 C6_15 1_555 1_555
H8_15 N2_15 1_555 1_555
Cu4_4 O3_8 1_555 1_555
Cu5_16 N1_16 1_555 1_555
N3_16 Cu3_4 1_555 1_555
O7_9 Cu3_4 1_555 1_555
C6_15 C7_15 1_555 1_555
C9_16 C13_16 1_555 1_555
C14_15 N2_15 1_555 1_555
H5_16 C11_16 1_555 1_555
Cu4_4 O2_17 1_555 1_555
N1_17 C12_17 1_555 1_555
O6_7 C1_17 1_555 1_555
O2_17 C1_17 1_555 1_555
O3_9 C8_17 1_555 1_555
O8_8 C8_17 1_555 1_555
C1_17 C2_16 1_555 1_555
C2_16 C3_16 1_555 1_555
C3_16 H1_16 1_555 1_555
C4_16 C3_16 1_555 1_555
C5_16 C4_16 1_555 1_555
H2_16 C5_16 1_555 1_555
C6_16 C5_16 1_555 1_555
C7_16 C2_16 1_555 1_555
H3_16 C7_16 1_555 1_555
C8_17 C4_16 1_555 1_555
C9_17 C10_17 1_555 1_555
C10_17 H4_16 1_555 1_555
C11_17 C10_17 1_555 1_555
H5_17 C11_17 1_555 1_555
C12_17 C11_17 1_555 1_555
H6_17 C12_17 1_555 1_555
C13_17 N1_17 1_555 1_555
H7_17 C13_17 1_555 1_555
C14_16 C9_17 1_555 1_555
O5_16 C14_16 1_555 1_555
N2_16 C6_16 1_555 1_555
H8_16 N2_16 1_555 1_555
Cu4_5 O3_9 1_555 1_555
Cu5_17 N1_17 1_555 1_555
N3_17 Cu4_4 1_555 1_555
C6_16 C7_16 1_555 1_555
C9_17 C13_17 1_555 1_555
C14_16 N2_16 1_555 1_555
H5_18 C11_18 1_555 1_555
Cu4_5 O2_18 1_555 1_555
N1_18 C12_18 1_555 1_555
O6_8 C1_18 1_555 1_555
O2_18 C1_18 1_555 1_555
O7_9 C8_18 1_555 1_555
O8_9 C8_18 1_555 1_555
C1_18 C2_17 1_555 1_555
C2_17 C3_17 1_555 1_555
C3_17 H1_17 1_555 1_555
C4_17 C3_17 1_555 1_555
C5_17 C4_17 1_555 1_555
H2_17 C5_17 1_555 1_555
C6_17 C5_17 1_555 1_555
C7_17 C2_17 1_555 1_555
H3_17 C7_17 1_555 1_555
C8_18 C4_17 1_555 1_555
C9_18 C10_18 1_555 1_555
C13_18 N1_18 1_555 1_555
H7_18 C13_18 1_555 1_555
C14_17 C9_18 1_555 1_555
O5_17 C14_17 1_555 1_555
N2_17 C6_17 1_555 1_555
H8_17 N2_17 1_555 1_555
Cu5_18 N1_18 1_555 1_555
N3_18 Cu4_5 1_555 1_555
C6_17 C7_17 1_555 1_555
C9_18 C13_18 1_555 1_555
C14_17 N2_17 1_555 1_555
O3_10 C8_19 1_555 1_555
O4_10 C8_19 1_555 1_555
Cu5_17 O3_10 1_555 1_555
Cu5_2 O4_10 1_555 1_555
Cu5_17 Cu5_2 1_555 1_555
N3_12 C12_19 1_555 1_555
C9_19 C10_19 1_555 1_555
C11_19 C10_19 1_555 1_555
H5_19 C11_19 1_555 1_555
C12_19 C11_19 1_555 1_555
H6_19 C12_19 1_555 1_555
C13_19 N3_12 1_555 1_555
H7_19 C13_19 1_555 1_555
C9_19 C13_19 1_555 1_555
Cu5_18 O2_19 1_555 1_555
O1_10 C1_19 1_555 1_555
O2_19 C1_19 1_555 1_555
Cu5_3 Cu5_18 1_555 1_555
O6_10 Cu5_18 1_555 1_555
O7_10 Cu5_18 1_555 1_555
O8_10 Cu5_18 1_555 1_555
O1_10 Cu5_3 1_555 1_555
Cu5_16 O2_20 1_555 1_555
O1_11 C1_20 1_555 1_555
O2_20 C1_20 1_555 1_555
Cu5 Cu5_16 1_555 1_555
O6_11 Cu5_16 1_555 1_555
O7_11 Cu5_16 1_555 1_555
O8_11 Cu5_16 1_555 1_555
O1_11 Cu5 1_555 1_555
O7_10 C8_20 1_555 1_555
O4_11 C8_20 1_555 1_555
C2_18 C3_18 1_555 1_555
C3_18 H1_18 1_555 1_555
C4_18 C3_18 1_555 1_555
C5_18 C4_18 1_555 1_555
H2_18 C5_18 1_555 1_555
C6_18 C5_18 1_555 1_555
C7_18 C2_18 1_555 1_555
H3_18 C7_18 1_555 1_555
C8_20 C4_18 1_555 1_555
O5_18 C14_18 1_555 1_555
N2_18 C6_18 1_555 1_555
H8_18 N2_18 1_555 1_555
Cu5_3 O4_11 1_555 1_555
C6_18 C7_18 1_555 1_555
C14_18 N2_18 1_555 1_555
N3_10 C12_20 1_555 1_555
C9_20 C10_20 1_555 1_555
C11_20 C10_20 1_555 1_555
H5_20 C11_20 1_555 1_555
C12_20 C11_20 1_555 1_555
H6_20 C12_20 1_555 1_555
C13_20 N3_10 1_555 1_555
H7_20 C13_20 1_555 1_555
C9_20 C13_20 1_555 1_555
Cu5_17 O2_21 1_555 1_555
O1_12 C1_21 1_555 1_555
O2_21 C1_21 1_555 1_555
C1_21 C2_19 1_555 1_555
C2_19 C3_19 1_555 1_555
C3_19 H1_19 1_555 1_555
C4_19 C3_19 1_555 1_555
C5_19 C4_19 1_555 1_555
H2_19 C5_19 1_555 1_555
C6_19 C5_19 1_555 1_555
C7_19 C2_19 1_555 1_555
H3_19 C7_19 1_555 1_555
O5_19 C14_19 1_555 1_555
N2_19 C6_19 1_555 1_555
H8_19 N2_19 1_555 1_555
O6_12 Cu5_17 1_555 1_555
O8_12 Cu5_17 1_555 1_555
O1_12 Cu5_2 1_555 1_555
C6_19 C7_19 1_555 1_555
C14_19 N2_19 1_555 1_555
N3_11 C12_21 1_555 1_555
C9_21 C10_21 1_555 1_555
C11_21 C10_21 1_555 1_555
H5_21 C11_21 1_555 1_555
C12_21 C11_21 1_555 1_555
H6_21 C12_21 1_555 1_555
C13_21 N3_11 1_555 1_555
H7_21 C13_21 1_555 1_555
C9_21 C13_21 1_555 1_555
O7_11 C8_21 1_555 1_555
O4_12 C8_21 1_555 1_555
Cu5 O4_12 1_555 1_555
O3_11 C8_22 1_555 1_555
O4_13 C8_22 1_555 1_555
Cu5_9 O3_11 1_555 1_555
Cu5_6 O4_13 1_555 1_555
Cu5_9 Cu5_6 1_555 1_555
N3_14 C12_22 1_555 1_555
C2_20 C3_20 1_555 1_555
C3_20 H1_20 1_555 1_555
C4_20 C3_20 1_555 1_555
C5_20 C4_20 1_555 1_555
H2_20 C5_20 1_555 1_555
C6_20 C5_20 1_555 1_555
C7_20 C2_20 1_555 1_555
H3_20 C7_20 1_555 1_555
C9_22 C10_22 1_555 1_555
C10_22 H4_20 1_555 1_555
C11_22 C10_22 1_555 1_555
H5_22 C11_22 1_555 1_555
C12_22 C11_22 1_555 1_555
H6_22 C12_22 1_555 1_555
C13_22 N3_14 1_555 1_555
H7_22 C13_22 1_555 1_555
C14_20 C9_22 1_555 1_555
O5_20 C14_20 1_555 1_555
N2_20 C6_20 1_555 1_555
H8_20 N2_20 1_555 1_555
C6_20 C7_20 1_555 1_555
C9_22 C13_22 1_555 1_555
C14_20 N2_20 1_555 1_555
Cu5_8 O2_22 1_555 1_555
O1_13 C1_22 1_555 1_555
O2_22 C1_22 1_555 1_555
Cu5_5 Cu5_8 1_555 1_555
O6_13 Cu5_8 1_555 1_555
O7_12 Cu5_8 1_555 1_555
O8_13 Cu5_8 1_555 1_555
O1_13 Cu5_5 1_555 1_555
Cu5_9 O2_23 1_555 1_555
N3_15 C12_23 1_555 1_555
O1_14 C1_23 1_555 1_555
O2_23 C1_23 1_555 1_555
C1_23 C2_21 1_555 1_555
C2_21 C3_21 1_555 1_555
C3_21 H1_21 1_555 1_555
C4_21 C3_21 1_555 1_555
C5_21 C4_21 1_555 1_555
H2_21 C5_21 1_555 1_555
C6_21 C5_21 1_555 1_555
C7_21 C2_21 1_555 1_555
H3_21 C7_21 1_555 1_555
C9_23 C10_23 1_555 1_555
C10_23 H4_21 1_555 1_555
C11_23 C10_23 1_555 1_555
H5_23 C11_23 1_555 1_555
C12_23 C11_23 1_555 1_555
H6_23 C12_23 1_555 1_555
C13_23 N3_15 1_555 1_555
H7_23 C13_23 1_555 1_555
C14_21 C9_23 1_555 1_555
O5_21 C14_21 1_555 1_555
N2_21 C6_21 1_555 1_555
H8_21 N2_21 1_555 1_555
O6_14 Cu5_9 1_555 1_555
O8_14 Cu5_9 1_555 1_555
O1_14 Cu5_6 1_555 1_555
C6_21 C7_21 1_555 1_555
C9_23 C13_23 1_555 1_555
C14_21 N2_21 1_555 1_555
O3_12 C8_23 1_555 1_555
O4_14 C8_23 1_555 1_555
Cu5_7 O3_12 1_555 1_555
Cu5_4 O4_14 1_555 1_555
Cu5_7 Cu5_4 1_555 1_555
Cu5_7 O2_24 1_555 1_555
O1_15 C1_24 1_555 1_555
O2_24 C1_24 1_555 1_555
O6_15 Cu5_7 1_555 1_555
O8_15 Cu5_7 1_555 1_555
O1_15 Cu5_4 1_555 1_555
N3_13 C12_24 1_555 1_555
O7_12 C8_24 1_555 1_555
O4_15 C8_24 1_555 1_555
C2_22 C3_22 1_555 1_555
C3_22 H1_22 1_555 1_555
C4_22 C3_22 1_555 1_555
C5_22 C4_22 1_555 1_555
H2_22 C5_22 1_555 1_555
C6_22 C5_22 1_555 1_555
C7_22 C2_22 1_555 1_555
H3_22 C7_22 1_555 1_555
C8_24 C4_22 1_555 1_555
C9_24 C10_24 1_555 1_555
C10_24 H4_22 1_555 1_555
C11_24 C10_24 1_555 1_555
H5_24 C11_24 1_555 1_555
C12_24 C11_24 1_555 1_555
H6_24 C12_24 1_555 1_555
C13_24 N3_13 1_555 1_555
H7_24 C13_24 1_555 1_555
C14_22 C9_24 1_555 1_555
O5_22 C14_22 1_555 1_555
N2_22 C6_22 1_555 1_555
H8_22 N2_22 1_555 1_555
Cu5_5 O4_15 1_555 1_555
C6_22 C7_22 1_555 1_555
C9_24 C13_24 1_555 1_555
C14_22 N2_22 1_555 1_555
H5_25 C11_25 1_555 1_555
Cu5_12 O2_25 1_555 1_555
N3_6 C12_25 1_555 1_555
O1_16 C1_25 1_555 1_555
O2_25 C1_25 1_555 1_555
O3_13 C8_25 1_555 1_555
O4_16 C8_25 1_555 1_555
C1_25 C2_23 1_555 1_555
C2_23 C3_23 1_555 1_555
C3_23 H1_23 1_555 1_555
C4_23 C3_23 1_555 1_555
C5_23 C4_23 1_555 1_555
H2_23 C5_23 1_555 1_555
C6_23 C5_23 1_555 1_555
C7_23 C2_23 1_555 1_555
H3_23 C7_23 1_555 1_555
C8_25 C4_23 1_555 1_555
C9_25 C10_25 1_555 1_555
C13_25 N3_6 1_555 1_555
H7_25 C13_25 1_555 1_555
C14_23 C9_25 1_555 1_555
O5_23 C14_23 1_555 1_555
N2_23 C6_23 1_555 1_555
H8_23 N2_23 1_555 1_555
Cu5_11 O3_13 1_555 1_555
O7_13 Cu5_12 1_555 1_555
C6_23 C7_23 1_555 1_555
C9_25 C13_25 1_555 1_555
C14_23 N2_23 1_555 1_555
Cu5_10 O2_26 1_555 1_555
N3_4 C12_26 1_555 1_555
O1_17 C1_26 1_555 1_555
O2_26 C1_26 1_555 1_555
O7_13 C8_26 1_555 1_555
O4_17 C8_26 1_555 1_555
C1_26 C2_24 1_555 1_555
C2_24 C3_24 1_555 1_555
C3_24 H1_24 1_555 1_555
C4_24 C3_24 1_555 1_555
C5_24 C4_24 1_555 1_555
H2_24 C5_24 1_555 1_555
C6_24 C5_24 1_555 1_555
C7_24 C2_24 1_555 1_555
H3_24 C7_24 1_555 1_555
C8_26 C4_24 1_555 1_555
C9_26 C10_26 1_555 1_555
C13_26 N3_4 1_555 1_555
H7_26 C13_26 1_555 1_555
C14_24 C9_26 1_555 1_555
O5_24 C14_24 1_555 1_555
N2_24 C6_24 1_555 1_555
H8_24 N2_24 1_555 1_555
Cu5_13 Cu5_10 1_555 1_555
O6_17 Cu5_10 1_555 1_555
O7_14 Cu5_10 1_555 1_555
O8_17 Cu5_10 1_555 1_555
O1_17 Cu5_13 1_555 1_555
C6_24 C7_24 1_555 1_555
C9_26 C13_26 1_555 1_555
C14_24 N2_24 1_555 1_555
H5_26 C11_26 1_555 1_555
Cu5_11 O2_27 1_555 1_555
N3_5 C12_27 1_555 1_555
O1_18 C1_27 1_555 1_555
O2_27 C1_27 1_555 1_555
O7_14 C8_27 1_555 1_555
O4_18 C8_27 1_555 1_555
C1_27 C2_25 1_555 1_555
C2_25 C3_25 1_555 1_555
C3_25 H1_25 1_555 1_555
C4_25 C3_25 1_555 1_555
C5_25 C4_25 1_555 1_555
H2_25 C5_25 1_555 1_555
C6_25 C5_25 1_555 1_555
C7_25 C2_25 1_555 1_555
H3_25 C7_25 1_555 1_555
C8_27 C4_25 1_555 1_555
C9_27 C10_27 1_555 1_555
C10_27 H4_25 1_555 1_555
C11_27 C10_27 1_555 1_555
H5_27 C11_27 1_555 1_555
C12_27 C11_27 1_555 1_555
H6_27 C12_27 1_555 1_555
C13_27 N3_5 1_555 1_555
H7_27 C13_27 1_555 1_555
C14_25 C9_27 1_555 1_555
O5_25 C14_25 1_555 1_555
N2_25 C6_25 1_555 1_555
H8_25 N2_25 1_555 1_555
Cu5_13 O4_18 1_555 1_555
C6_25 C7_25 1_555 1_555
C9_27 C13_27 1_555 1_555
C14_25 N2_25 1_555 1_555
Cu5_2 O2_28 1_555 1_555
N3_8 C12_28 1_555 1_555
O6_12 C1_28 1_555 1_555
O2_28 C1_28 1_555 1_555
O3_14 C8_28 1_555 1_555
O8_10 C8_28 1_555 1_555
C1_28 C2_26 1_555 1_555
C2_26 C3_26 1_555 1_555
C3_26 H1_26 1_555 1_555
C4_26 C3_26 1_555 1_555
C5_26 C4_26 1_555 1_555
H2_26 C5_26 1_555 1_555
C6_26 C5_26 1_555 1_555
C7_26 C2_26 1_555 1_555
H3_26 C7_26 1_555 1_555
C8_28 C4_26 1_555 1_555
C9_28 C10_28 1_555 1_555
C10_28 H4_26 1_555 1_555
C11_28 C10_28 1_555 1_555
H5_28 C11_28 1_555 1_555
C12_28 C11_28 1_555 1_555
H6_28 C12_28 1_555 1_555
C13_28 N3_8 1_555 1_555
H7_28 C13_28 1_555 1_555
C14_26 C9_28 1_555 1_555
O5_26 C14_26 1_555 1_555
N2_26 C6_26 1_555 1_555
H8_26 N2_26 1_555 1_555
Cu5_3 O3_14 1_555 1_555
O7_15 Cu5_2 1_555 1_555
C6_26 C7_26 1_555 1_555
C9_28 C13_28 1_555 1_555
C14_26 N2_26 1_555 1_555
N3_9 C12_29 1_555 1_555
C9_29 C10_29 1_555 1_555
C10_29 H4_27 1_555 1_555
C11_29 C10_29 1_555 1_555
H5_29 C11_29 1_555 1_555
C12_29 C11_29 1_555 1_555
H6_29 C12_29 1_555 1_555
C13_29 N3_9 1_555 1_555
H7_29 C13_29 1_555 1_555
C14_27 C9_29 1_555 1_555
O5_27 C14_27 1_555 1_555
H8_27 N2_27 1_555 1_555
C9_29 C13_29 1_555 1_555
C14_27 N2_27 1_555 1_555
Cu5_3 O2_29 1_555 1_555
O6_10 C1_29 1_555 1_555
O2_29 C1_29 1_555 1_555
O3_15 C8_29 1_555 1_555
O8_11 C8_29 1_555 1_555
C1_29 C2_27 1_555 1_555
C2_27 C3_27 1_555 1_555
C3_27 H1_27 1_555 1_555
C4_27 C3_27 1_555 1_555
C5_27 C4_27 1_555 1_555
H2_27 C5_27 1_555 1_555
C6_27 C5_27 1_555 1_555
C7_27 C2_27 1_555 1_555
H3_27 C7_27 1_555 1_555
C8_29 C4_27 1_555 1_555
Cu5 O3_15 1_555 1_555
C6_27 C7_27 1_555 1_555
Cu5 O2_30 1_555 1_555
O6_11 C1_30 1_555 1_555
O2_30 C1_30 1_555 1_555
O7_15 C8_30 1_555 1_555
O8_12 C8_30 1_555 1_555
C1_30 C2_28 1_555 1_555
C2_28 C3_28 1_555 1_555
C3_28 H1_28 1_555 1_555
C4_28 C3_28 1_555 1_555
C5_28 C4_28 1_555 1_555
H2_28 C5_28 1_555 1_555
C6_28 C5_28 1_555 1_555
C7_28 C2_28 1_555 1_555
H3_28 C7_28 1_555 1_555
C8_30 C4_28 1_555 1_555
C6_28 C7_28 1_555 1_555
N3_7 C12_30 1_555 1_555
C9_30 C10_30 1_555 1_555
C10_30 H4_28 1_555 1_555
C11_30 C10_30 1_555 1_555
H5_30 C11_30 1_555 1_555
C12_30 C11_30 1_555 1_555
H6_30 C12_30 1_555 1_555
C13_30 N3_7 1_555 1_555
H7_30 C13_30 1_555 1_555
C14_28 C9_30 1_555 1_555
O5_28 C14_28 1_555 1_555
H8_28 N2_28 1_555 1_555
C9_30 C13_30 1_555 1_555
C14_28 N2_28 1_555 1_555
Cu5_6 O2_31 1_555 1_555
N3_18 C12_31 1_555 1_555
O6_14 C1_31 1_555 1_555
O2_31 C1_31 1_555 1_555
O3_16 C8_31 1_555 1_555
O8_13 C8_31 1_555 1_555
C1_31 C2_29 1_555 1_555
C2_29 C3_29 1_555 1_555
C3_29 H1_29 1_555 1_555
C4_29 C3_29 1_555 1_555
C5_29 C4_29 1_555 1_555
H2_29 C5_29 1_555 1_555
C6_29 C5_29 1_555 1_555
C7_29 C2_29 1_555 1_555
H3_29 C7_29 1_555 1_555
C8_31 C4_29 1_555 1_555
C9_31 C10_31 1_555 1_555
C10_31 H4_29 1_555 1_555
C11_31 C10_31 1_555 1_555
H5_31 C11_31 1_555 1_555
C12_31 C11_31 1_555 1_555
H6_31 C12_31 1_555 1_555
C13_31 N3_18 1_555 1_555
H7_31 C13_31 1_555 1_555
C14_29 C9_31 1_555 1_555
O5_29 C14_29 1_555 1_555
N2_29 C6_29 1_555 1_555
H8_29 N2_29 1_555 1_555
Cu5_5 O3_16 1_555 1_555
O7_16 Cu5_6 1_555 1_555
C6_29 C7_29 1_555 1_555
C9_31 C13_31 1_555 1_555
C14_29 N2_29 1_555 1_555
Cu5_4 O2_32 1_555 1_555
O6_15 C1_32 1_555 1_555
O2_32 C1_32 1_555 1_555
O7_16 C8_32 1_555 1_555
O8_14 C8_32 1_555 1_555
C1_32 C2_30 1_555 1_555
C2_30 C3_30 1_555 1_555
C3_30 H1_30 1_555 1_555
C4_30 C3_30 1_555 1_555
C5_30 C4_30 1_555 1_555
H2_30 C5_30 1_555 1_555
C6_30 C5_30 1_555 1_555
C7_30 C2_30 1_555 1_555
H3_30 C7_30 1_555 1_555
C8_32 C4_30 1_555 1_555
O7_17 Cu5_4 1_555 1_555
C6_30 C7_30 1_555 1_555
N3_16 C12_32 1_555 1_555
C9_32 C10_32 1_555 1_555
C10_32 H4_30 1_555 1_555
C11_32 C10_32 1_555 1_555
H5_32 C11_32 1_555 1_555
C12_32 C11_32 1_555 1_555
H6_32 C12_32 1_555 1_555
C13_32 N3_16 1_555 1_555
H7_32 C13_32 1_555 1_555
C14_30 C9_32 1_555 1_555
O5_30 C14_30 1_555 1_555
H8_30 N2_30 1_555 1_555
C9_32 C13_32 1_555 1_555
C14_30 N2_30 1_555 1_555
N3_17 C12_33 1_555 1_555
C9_33 C10_33 1_555 1_555
C10_33 H4_31 1_555 1_555
C11_33 C10_33 1_555 1_555
H5_33 C11_33 1_555 1_555
C12_33 C11_33 1_555 1_555
H6_33 C12_33 1_555 1_555
C13_33 N3_17 1_555 1_555
H7_33 C13_33 1_555 1_555
C14_31 C9_33 1_555 1_555
O5_31 C14_31 1_555 1_555
H8_31 N2_31 1_555 1_555
C9_33 C13_33 1_555 1_555
C14_31 N2_31 1_555 1_555
Cu5_5 O2_33 1_555 1_555
O6_13 C1_33 1_555 1_555
O2_33 C1_33 1_555 1_555
O7_17 C8_33 1_555 1_555
O8_15 C8_33 1_555 1_555
C1_33 C2_31 1_555 1_555
C2_31 C3_31 1_555 1_555
C3_31 H1_31 1_555 1_555
C4_31 C3_31 1_555 1_555
C5_31 C4_31 1_555 1_555
H2_31 C5_31 1_555 1_555
C6_31 C5_31 1_555 1_555
C7_31 C2_31 1_555 1_555
H3_31 C7_31 1_555 1_555
C8_33 C4_31 1_555 1_555
C6_31 C7_31 1_555 1_555
H5_34 C11_34 1_555 1_555
Cu5_14 O2_34 1_555 1_555
N3_2 C12_34 1_555 1_555
O6_18 C1_34 1_555 1_555
O2_34 C1_34 1_555 1_555
O3_17 C8_34 1_555 1_555
O8_16 C8_34 1_555 1_555
C1_34 C2_32 1_555 1_555
C2_32 C3_32 1_555 1_555
C3_32 H1_32 1_555 1_555
C4_32 C3_32 1_555 1_555
C5_32 C4_32 1_555 1_555
H2_32 C5_32 1_555 1_555
C6_32 C5_32 1_555 1_555
C7_32 C2_32 1_555 1_555
H3_32 C7_32 1_555 1_555
C8_34 C4_32 1_555 1_555
C9_34 C10_34 1_555 1_555
C13_34 N3_2 1_555 1_555
H7_34 C13_34 1_555 1_555
C14_32 C9_34 1_555 1_555
O5_32 C14_32 1_555 1_555
N2_32 C6_32 1_555 1_555
H8_32 N2_32 1_555 1_555
Cu5_15 O3_17 1_555 1_555
O7_18 Cu5_14 1_555 1_555
C6_32 C7_32 1_555 1_555
C9_34 C13_34 1_555 1_555
C14_32 N2_32 1_555 1_555
Cu5_15 O2_35 1_555 1_555
N3_3 C12_35 1_555 1_555
O6_16 C1_35 1_555 1_555
O2_35 C1_35 1_555 1_555
O3_18 C8_35 1_555 1_555
O8_17 C8_35 1_555 1_555
C1_35 C2_33 1_555 1_555
C2_33 C3_33 1_555 1_555
C3_33 H1_33 1_555 1_555
C4_33 C3_33 1_555 1_555
C5_33 C4_33 1_555 1_555
H2_33 C5_33 1_555 1_555
C6_33 C5_33 1_555 1_555
C7_33 C2_33 1_555 1_555
H3_33 C7_33 1_555 1_555
C8_35 C4_33 1_555 1_555
C9_35 C10_35 1_555 1_555
C10_35 H4_33 1_555 1_555
C11_35 C10_35 1_555 1_555
H5_35 C11_35 1_555 1_555
C12_35 C11_35 1_555 1_555
H6_35 C12_35 1_555 1_555
C13_35 N3_3 1_555 1_555
H7_35 C13_35 1_555 1_555
C14_33 C9_35 1_555 1_555
O5_33 C14_33 1_555 1_555
N2_33 C6_33 1_555 1_555
H8_33 N2_33 1_555 1_555
Cu5_13 O3_18 1_555 1_555
C6_33 C7_33 1_555 1_555
C9_35 C13_35 1_555 1_555
C14_33 N2_33 1_555 1_555
Cu5_13 O2_36 1_555 1_555
N3 C12_36 1_555 1_555
O6_17 C1_36 1_555 1_555
O2_36 C1_36 1_555 1_555
O7_18 C8_36 1_555 1_555
O8_18 C8_36 1_555 1_555
C1_36 C2_34 1_555 1_555
C2_34 C3_34 1_555 1_555
C3_34 H1_34 1_555 1_555
C4_34 C3_34 1_555 1_555
C5_34 C4_34 1_555 1_555
H2_34 C5_34 1_555 1_555
C6_34 C5_34 1_555 1_555
C7_34 C2_34 1_555 1_555
H3_34 C7_34 1_555 1_555
C8_36 C4_34 1_555 1_555
C9_36 C10_36 1_555 1_555
C13_36 N3 1_555 1_555
H7_36 C13_36 1_555 1_555
C14_34 C9_36 1_555 1_555
O5_34 C14_34 1_555 1_555
N2_34 C6_34 1_555 1_555
H8_34 N2_34 1_555 1_555
C6_34 C7_34 1_555 1_555
C9_36 C13_36 1_555 1_555
C14_34 N2_34 1_555 1_555
H5_36 C11_36 1_555 1_555
C2_35 C3_35 1_555 1_555
C3_35 H1_35 1_555 1_555
C4_35 C3_35 1_555 1_555
C5_35 C4_35 1_555 1_555
H2_35 C5_35 1_555 1_555
C6_35 C5_35 1_555 1_555
C7_35 C2_35 1_555 1_555
H3_35 C7_35 1_555 1_555
O5_35 C14_35 1_555 1_555
N2_35 C6_35 1_555 1_555
H8_35 N2_35 1_555 1_555
C6_35 C7_35 1_555 1_555
C14_35 N2_35 1_555 1_555
C2_36 C3_36 1_555 1_555
C3_36 H1_36 1_555 1_555
C4_36 C3_36 1_555 1_555
C5_36 C4_36 1_555 1_555
H2_36 C5_36 1_555 1_555
C6_36 C5_36 1_555 1_555
C7_36 C2_36 1_555 1_555
H3_36 C7_36 1_555 1_555
O5_36 C14_36 1_555 1_555
N2_36 C6_36 1_555 1_555
H8_36 N2_36 1_555 1_555
C6_36 C7_36 1_555 1_555
C14_36 N2_36 1_555 1_555

#END
