
###############################################################################
#
# This file contains modified crystal structure data generated from the
# MOF subset of the Cambridge Structural Database (CSD) v543 
# hosted by the Cambridge Crystallographic Data Centre (CCDC).
#
# This work is licensed under the Creative Commons
# Attribution-NonCommercial-ShareAlike 4.0 International License.
# To view a copy of this license, visit
# http://creativecommons.org/licenses/by-nc-sa/4.0/
# or send a letter to
# Creative Commons, PO Box 1866, Mountain View, CA 94042, USA.
#
# CIF created using the CSD Python API on 29 September 2022
# The structure has been converted into the P1 space group
# The structure has a 3D framework
# The original CSD entry JOFGOC is in the tetragonal crystal system
# The framework has been calculated to contain at least 10.0% void space
# The void calculation uses a probe of radius 1.32A, grid spacing 0.4
# H atom positions have been added when not included in the experimental data
#
###############################################################################

data_JOFGOC
_chemical_formula_moiety         '(C208 H192 Cd8 N32 O36)n'
_symmetry_cell_setting           triclinic
_symmetry_space_group_name_H-M   'P 1'
_symmetry_Int_Tables_number      1
_space_group_name_Hall           'P 1'
loop_
_symmetry_equiv_pos_site_id
_symmetry_equiv_pos_as_xyz
1 x,y,z
_cell_length_a                   20.7937(16)
_cell_length_b                   20.7937(16)
_cell_length_c                   13.515(2)
_cell_angle_alpha                90
_cell_angle_beta                 90
_cell_angle_gamma                90
_cell_volume                     5843.59
loop_
_atom_site_label
_atom_site_type_symbol
_atom_site_fract_x
_atom_site_fract_y
_atom_site_fract_z
C9 C 0.31607(16) 0.92949(16) 0.0548(3)
H8 H 0.3488 0.9360 0.1006
C11 C 0.20560(17) 0.93382(19) 0.0100(3)
H10 H 0.1630 0.9427 0.0258
C12 C 0.25321(17) 0.94245(15) 0.0829(2)
C13 C 0.23682(19) 0.96467(16) 0.1840(3)
O3 O 0.17744(13) 0.97321(14) 0.2078(2)
O5 O 0.28063(13) 0.97412(13) 0.24776(17)
Cd2 Cd 0.206794(11) 0.998765(11) 0.381541(16)
C1 C 0.72055(15) 0.87020(17) 0.3226(2)
H1 H 0.6860 0.8977 0.3335
C2 C 0.70847(17) 0.80740(18) 0.2967(3)
H2 H 0.6664 0.7932 0.2887
C3 C 0.75940(16) 0.76547(16) 0.2825(2)
H3 H 0.7518 0.7229 0.2650
C4 C 0.82991(15) 0.85209(16) 0.3187(2)
H4 H 0.8715 0.8678 0.3257
C5 C 0.82212(15) 0.78763(15) 0.2945(2)
C6 C 0.87957(17) 0.74322(17) 0.2872(2)
H5 H 0.8822 0.7180 0.3475
H6 H 0.9183 0.7691 0.2829
C7 C 0.89909(14) 0.71656(14) 0.1112(3)
C8 C 0.90755(16) 0.66825(16) 0.0375(2)
H7 H 0.8981 0.6256 0.0524
C10 C 0.91253(18) 0.77986(16) 0.0842(3)
H9 H 0.9071 0.8127 0.1302
N1 N 0.78038(13) 0.89327(13) 0.3328(2)
N2 N 0.87801(14) 0.69987(13) 0.2039(2)
H21 H 0.8631 0.6617 0.2128
O6 O 0.79907(15) 0.96811(13) 0.5521(2)
O7 O 0.69897(15) 0.97881(13) 0.4993(2)
H23 H 0.918082 0.973159 0.454712
C14 C 0.29408(16) 0.87775(17) 0.4325(2)
H11 H 0.3228 0.9116 0.4241
C15 C 0.19005(17) 0.84149(17) 0.4358(2)
H12 H 0.1462 0.8496 0.4304
C16 C 0.2097(2) 0.77999(18) 0.4548(3)
H13 H 0.1796 0.7472 0.4617
C17 C 0.2758(2) 0.76673(18) 0.4639(2)
H14 H 0.2900 0.7252 0.4772
C18 C 0.31925(17) 0.81698(16) 0.4525(2)
C19 C 0.39128(19) 0.8094(2) 0.4577(3)
H15 H 0.4099 0.8229 0.3952
H16 H 0.4015 0.7643 0.4671
C20 C 0.42939(15) 0.82549(18) 0.6320(2)
C21 C 0.45884(17) 0.86678(19) 0.7026(3)
H17 H 0.4706 0.9082 0.6839
C22 C 0.47034(16) 0.84657(19) 0.7985(3)
H18 H 0.4894 0.8745 0.8435
C23 C 0.41112(17) 0.7639(2) 0.6635(3)
H19 H 0.3898 0.7365 0.6201
C24 C 0.42472(17) 0.7434(2) 0.7599(3)
H20 H 0.4143 0.7016 0.7786
C25 C 0.45349(15) 0.7844(2) 0.8283(2)
C26 C 0.46710(16) 0.7612(2) 0.9315(3)
N3 N 0.23099(13) 0.89052(13) 0.4247(2)
N4 N 0.42043(15) 0.84671(17) 0.5374(2)
H22 H 0.4329 0.8851 0.5238
O1 O 0.46811(13) 0.70093(15) 0.9479(2)
O4 O 0.09475(14) 0.99523(16) 0.4033(3)
H24 H 0.0818201 0.951371 0.424494
C20_2 C 0.67451(18) 0.92939(15) 0.8680(2)
C21_2 C 0.63322(19) 0.95884(17) 0.7974(3)
H17_2 H 0.5918 0.9706 0.8161
C22_2 C 0.65343(19) 0.97034(16) 0.7015(3)
H18_2 H 0.6255 0.9894 0.6565
C23_2 C 0.7361(2) 0.91112(17) 0.8365(3)
H19_2 H 0.7635 0.8898 0.8799
C24_2 C 0.7566(2) 0.92472(17) 0.7401(3)
H20_2 H 0.7984 0.9143 0.7214
C25_2 C 0.7156(2) 0.95349(15) 0.6717(2)
C26_2 C 0.7388(2) 0.96710(16) 0.5685(3)
N4_2 N 0.65329(17) 0.92043(15) 0.9626(2)
H22_2 H 0.6149 0.9329 0.9762
C1_2 C 0.12980(17) 0.72055(15) 0.6774(2)
H1_2 H 0.1023 0.6860 0.6665
C2_2 C 0.19260(18) 0.70847(17) 0.7033(3)
H2_2 H 0.2068 0.6664 0.7113
C3_2 C 0.23453(16) 0.75940(16) 0.7175(2)
H3_2 H 0.2771 0.7518 0.7350
C4_2 C 0.14791(16) 0.82991(15) 0.6813(2)
H4_2 H 0.1322 0.8715 0.6743
C5_2 C 0.21237(15) 0.82212(15) 0.7055(2)
C6_2 C 0.25678(17) 0.87957(17) 0.7128(2)
H5_2 H 0.2820 0.8822 0.6525
H6_2 H 0.2309 0.9183 0.7171
C7_2 C 0.28344(14) 0.89909(14) 0.8888(3)
C8_2 C 0.33175(16) 0.90755(16) 0.9625(2)
H7_2 H 0.3744 0.8981 0.9476
C10_2 C 0.22014(16) 0.91253(18) 0.9158(3)
H9_2 H 0.1873 0.9071 0.8698
N1_2 N 0.10673(13) 0.78038(13) 0.6672(2)
N2_2 N 0.30013(13) 0.87801(14) 0.7961(2)
H21_2 H 0.3383 0.8631 0.7872
O6_2 O 0.03189(13) 0.79907(15) 0.4479(2)
O7_2 O 0.02119(13) 0.69897(15) 0.5007(2)
H23_2 H 0.0268409 0.918082 0.545288
Cd1 Cd 0.001235(11) 0.206794(11) 0.618459(16)
C14_2 C 0.12225(17) 0.29408(16) 0.5675(2)
H11_2 H 0.0884 0.3228 0.5759
C15_2 C 0.15851(17) 0.19005(17) 0.5642(2)
H12_2 H 0.1504 0.1462 0.5696
C16_2 C 0.22001(18) 0.2097(2) 0.5452(3)
H13_2 H 0.2528 0.1796 0.5383
C17_2 C 0.23327(18) 0.2758(2) 0.5361(2)
H14_2 H 0.2748 0.2900 0.5228
C18_2 C 0.18302(16) 0.31925(17) 0.5475(2)
C19_2 C 0.1906(2) 0.39128(19) 0.5423(3)
H15_2 H 0.1771 0.4099 0.6048
H16_2 H 0.2357 0.4015 0.5329
C20_3 C 0.17451(18) 0.42939(15) 0.3680(2)
C21_3 C 0.13322(19) 0.45884(17) 0.2974(3)
H17_3 H 0.0918 0.4706 0.3161
C22_3 C 0.15343(19) 0.47034(16) 0.2015(3)
H18_3 H 0.1255 0.4894 0.1565
C23_3 C 0.2361(2) 0.41112(17) 0.3365(3)
H19_3 H 0.2635 0.3898 0.3799
C24_3 C 0.2566(2) 0.42472(17) 0.2401(3)
H20_3 H 0.2984 0.4143 0.2214
C25_3 C 0.2156(2) 0.45349(15) 0.1717(2)
C26_3 C 0.2388(2) 0.46710(16) 0.0685(3)
N3_2 N 0.10948(13) 0.23099(13) 0.5753(2)
N4_3 N 0.15329(17) 0.42043(15) 0.4626(2)
H22_3 H 0.1149 0.4329 0.4762
O1_2 O 0.29907(15) 0.46811(13) 0.0521(2)
O4_2 O 0.00477(16) 0.09475(14) 0.5967(3)
O8 O 0.02679(14) 0.17744(13) 0.7922(2)
O9 O 0.02588(13) 0.28063(13) 0.75224(17)
H24_2 H 0.0486286 0.0818201 0.575506
C9_2 C 0.07051(16) 0.31607(16) 0.9452(3)
H8_2 H 0.0640 0.3488 0.8994
C11_2 C 0.06618(19) 0.20560(17) 0.9900(3)
H10_2 H 0.0573 0.1630 0.9742
C12_2 C 0.05755(15) 0.25321(17) 0.9171(2)
C13_2 C 0.03533(16) 0.23682(19) 0.8160(3)
C20_4 C 0.07061(15) 0.67451(18) 0.1320(2)
C21_4 C 0.04116(17) 0.63322(19) 0.2026(3)
H17_4 H 0.0294 0.5918 0.1839
C22_4 C 0.02966(16) 0.65343(19) 0.2985(3)
H18_4 H 0.0106 0.6255 0.3435
C23_4 C 0.08888(17) 0.7361(2) 0.1635(3)
H19_4 H 0.1102 0.7635 0.1201
C24_4 C 0.07528(17) 0.7566(2) 0.2599(3)
H20_4 H 0.0857 0.7984 0.2786
C25_4 C 0.04651(15) 0.7156(2) 0.3283(2)
C26_4 C 0.03290(16) 0.7388(2) 0.4315(3)
N4_4 N 0.07957(15) 0.65329(17) 0.0374(2)
H22_4 H 0.0671 0.6149 0.0238
Cd1_2 Cd 0.998765(11) 0.793206(11) 0.618459(16)
C14_3 C 0.87775(17) 0.70592(16) 0.5675(2)
H11_3 H 0.9116 0.6772 0.5759
C15_3 C 0.84149(17) 0.80995(17) 0.5642(2)
H12_3 H 0.8496 0.8538 0.5696
C16_3 C 0.77999(18) 0.7903(2) 0.5452(3)
H13_3 H 0.7472 0.8204 0.5383
C17_3 C 0.76673(18) 0.7242(2) 0.5361(2)
H14_3 H 0.7252 0.7100 0.5228
C18_3 C 0.81698(16) 0.68075(17) 0.5475(2)
C19_3 C 0.8094(2) 0.60872(19) 0.5423(3)
H15_3 H 0.8229 0.5901 0.6048
H16_3 H 0.7643 0.5985 0.5329
C20_5 C 0.82549(18) 0.57061(15) 0.3680(2)
C21_5 C 0.86678(19) 0.54116(17) 0.2974(3)
H17_5 H 0.9082 0.5294 0.3161
C22_5 C 0.84657(19) 0.52966(16) 0.2015(3)
H18_5 H 0.8745 0.5106 0.1565
C23_5 C 0.7639(2) 0.58888(17) 0.3365(3)
H19_5 H 0.7365 0.6102 0.3799
C24_5 C 0.7434(2) 0.57528(17) 0.2401(3)
H20_5 H 0.7016 0.5857 0.2214
C25_5 C 0.7844(2) 0.54651(15) 0.1717(2)
C26_5 C 0.7612(2) 0.53290(16) 0.0685(3)
N3_3 N 0.89052(13) 0.76901(13) 0.5753(2)
N4_5 N 0.84671(17) 0.57957(15) 0.4626(2)
H22_5 H 0.8851 0.5671 0.4762
O1_3 O 0.70093(15) 0.53189(13) 0.0521(2)
O4_3 O 0.99523(16) 0.90525(14) 0.5967(3)
O8_2 O 0.97321(14) 0.82256(13) 0.7922(2)
O9_2 O 0.97412(13) 0.71937(13) 0.75224(17)
H24_3 H 0.951371 0.91818 0.575506
C1_3 C 0.87020(17) 0.27945(15) 0.6774(2)
H1_3 H 0.8977 0.3140 0.6665
C2_3 C 0.80740(18) 0.29153(17) 0.7033(3)
H2_3 H 0.7932 0.3336 0.7113
C3_3 C 0.76547(16) 0.24060(16) 0.7175(2)
H3_3 H 0.7229 0.2482 0.7350
C4_3 C 0.85209(16) 0.17009(15) 0.6813(2)
H4_3 H 0.8678 0.1285 0.6743
C5_3 C 0.78763(15) 0.17788(15) 0.7055(2)
C6_3 C 0.74322(17) 0.12043(17) 0.7128(2)
H5_3 H 0.7180 0.1178 0.6525
H6_3 H 0.7691 0.0817 0.7171
C7_3 C 0.71656(14) 0.10091(14) 0.8888(3)
C8_3 C 0.66825(16) 0.09245(16) 0.9625(2)
H7_3 H 0.6256 0.1019 0.9476
C10_3 C 0.77986(16) 0.08747(18) 0.9158(3)
H9_3 H 0.8127 0.0929 0.8698
N1_3 N 0.89327(13) 0.21962(13) 0.6672(2)
N2_3 N 0.69987(13) 0.12199(14) 0.7961(2)
H21_3 H 0.6617 0.1369 0.7872
O6_3 O 0.96811(13) 0.20093(15) 0.4479(2)
O7_3 O 0.97881(13) 0.30103(15) 0.5007(2)
H23_3 H 0.973159 0.081918 0.545288
C9_3 C 0.92949(16) 0.68393(16) 0.9452(3)
H8_3 H 0.9360 0.6512 0.8994
C11_3 C 0.93382(19) 0.79440(17) 0.9900(3)
H10_3 H 0.9427 0.8370 0.9742
C12_3 C 0.94245(15) 0.74679(17) 0.9171(2)
C13_3 C 0.96467(16) 0.76318(19) 0.8160(3)
C20_6 C 0.92939(15) 0.32549(18) 0.1320(2)
C21_6 C 0.95884(17) 0.36678(19) 0.2026(3)
H17_6 H 0.9706 0.4082 0.1839
C22_6 C 0.97034(16) 0.34657(19) 0.2985(3)
H18_6 H 0.9894 0.3745 0.3435
C23_6 C 0.91112(17) 0.2639(2) 0.1635(3)
H19_6 H 0.8898 0.2365 0.1201
C24_6 C 0.92472(17) 0.2434(2) 0.2599(3)
H20_6 H 0.9143 0.2016 0.2786
C25_6 C 0.95349(15) 0.2844(2) 0.3283(2)
C26_6 C 0.96710(16) 0.2612(2) 0.4315(3)
N4_6 N 0.92043(15) 0.34671(17) 0.0374(2)
H22_6 H 0.9329 0.3851 0.0238
O2 O 0.80103(15) 0.52119(13) 0.9993(2)
Cd3 Cd 0.706794(11) 0.498765(11) 0.881541(16)
O2_2 O 0.19897(15) 0.47881(13) 0.9993(2)
Cd3_2 Cd 0.293206(11) 0.501235(11) 0.881541(16)
O2_3 O 0.52119(13) 0.19897(15) 0.0007(2)
Cd3_3 Cd 0.498765(11) 0.293206(11) 0.118459(16)
O2_4 O 0.47881(13) 0.80103(15) 0.0007(2)
Cd3_4 Cd 0.501235(11) 0.706794(11) 0.118459(16)
C1_4 C 0.62980(17) 0.22055(15) 0.1774(2)
H1_4 H 0.6023 0.1860 0.1665
C2_4 C 0.69260(18) 0.20847(17) 0.2033(3)
H2_4 H 0.7068 0.1664 0.2113
C3_4 C 0.73453(16) 0.25940(16) 0.2175(2)
H3_4 H 0.7771 0.2518 0.2350
C4_4 C 0.64791(16) 0.32991(15) 0.1813(2)
H4_4 H 0.6322 0.3715 0.1743
C5_4 C 0.71237(15) 0.32212(15) 0.2055(2)
C6_4 C 0.75678(17) 0.37957(17) 0.2128(2)
H5_4 H 0.7820 0.3822 0.1525
H6_4 H 0.7309 0.4183 0.2171
C7_4 C 0.78344(14) 0.39909(14) 0.3888(3)
C8_4 C 0.83175(16) 0.40755(16) 0.4625(2)
H7_4 H 0.8744 0.3981 0.4476
C9_4 C 0.81607(16) 0.42949(16) 0.5548(3)
H8_4 H 0.8488 0.4360 0.6006
C10_4 C 0.72014(16) 0.41253(18) 0.4158(3)
H9_4 H 0.6873 0.4071 0.3698
C11_4 C 0.70560(17) 0.43382(19) 0.5100(3)
H10_4 H 0.6630 0.4427 0.5258
C12_4 C 0.75321(17) 0.44245(15) 0.5829(2)
C13_4 C 0.73682(19) 0.46467(16) 0.6840(3)
C14_4 C 0.37775(17) 0.20592(16) 0.0675(2)
H11_4 H 0.4116 0.1772 0.0759
C15_4 C 0.34149(17) 0.30995(17) 0.0642(2)
H12_4 H 0.3496 0.3538 0.0696
C16_4 C 0.27999(18) 0.2903(2) 0.0452(3)
H13_4 H 0.2472 0.3204 0.0383
C17_4 C 0.26673(18) 0.2242(2) 0.0361(2)
H14_4 H 0.2252 0.2100 0.0228
C18_4 C 0.31698(16) 0.18075(17) 0.0475(2)
C19_4 C 0.3094(2) 0.10872(19) 0.0423(3)
H15_4 H 0.3229 0.0901 0.1048
H16_4 H 0.2643 0.0985 0.0329
N1_4 N 0.60673(13) 0.28038(13) 0.1672(2)
N2_4 N 0.80013(13) 0.37801(14) 0.2961(2)
H21_4 H 0.8383 0.3631 0.2872
N3_4 N 0.39052(13) 0.26901(13) 0.0753(2)
O3_2 O 0.67744(13) 0.47321(14) 0.7078(2)
O4_4 O 0.49523(16) 0.40525(14) 0.0967(3)
O5_2 O 0.78063(13) 0.47412(13) 0.74776(17)
O8_3 O 0.47321(14) 0.32256(13) 0.2922(2)
O9_3 O 0.47412(13) 0.21937(13) 0.25224(17)
H23_4 H 0.526841 0.418082 0.0452876
H24_4 H 0.451371 0.41818 0.0755055
C1_5 C 0.37020(17) 0.77945(15) 0.1774(2)
H1_5 H 0.3977 0.8140 0.1665
C2_5 C 0.30740(18) 0.79153(17) 0.2033(3)
H2_5 H 0.2932 0.8336 0.2113
C3_5 C 0.26547(16) 0.74060(16) 0.2175(2)
H3_5 H 0.2229 0.7482 0.2350
C4_5 C 0.35209(16) 0.67009(15) 0.1813(2)
H4_5 H 0.3678 0.6285 0.1743
C5_5 C 0.28763(15) 0.67788(15) 0.2055(2)
C6_5 C 0.24322(17) 0.62043(17) 0.2128(2)
H5_5 H 0.2180 0.6178 0.1525
H6_5 H 0.2691 0.5817 0.2171
C7_5 C 0.21656(14) 0.60091(14) 0.3888(3)
C8_5 C 0.16825(16) 0.59245(16) 0.4625(2)
H7_5 H 0.1256 0.6019 0.4476
C9_5 C 0.18393(16) 0.57051(16) 0.5548(3)
H8_5 H 0.1512 0.5640 0.6006
C10_5 C 0.27986(16) 0.58747(18) 0.4158(3)
H9_5 H 0.3127 0.5929 0.3698
C11_5 C 0.29440(17) 0.56618(19) 0.5100(3)
H10_5 H 0.3370 0.5573 0.5258
C12_5 C 0.24679(17) 0.55755(15) 0.5829(2)
C13_5 C 0.26318(19) 0.53533(16) 0.6840(3)
C14_5 C 0.62225(17) 0.79408(16) 0.0675(2)
H11_5 H 0.5884 0.8228 0.0759
C15_5 C 0.65851(17) 0.69005(17) 0.0642(2)
H12_5 H 0.6504 0.6462 0.0696
C16_5 C 0.72001(18) 0.7097(2) 0.0452(3)
H13_5 H 0.7528 0.6796 0.0383
C17_5 C 0.73327(18) 0.7758(2) 0.0361(2)
H14_5 H 0.7748 0.7900 0.0228
C18_5 C 0.68302(16) 0.81925(17) 0.0475(2)
C19_5 C 0.6906(2) 0.89128(19) 0.0423(3)
H15_5 H 0.6771 0.9099 0.1048
H16_5 H 0.7357 0.9015 0.0329
N1_5 N 0.39327(13) 0.71962(13) 0.1672(2)
N2_5 N 0.19987(13) 0.62199(14) 0.2961(2)
H21_5 H 0.1617 0.6369 0.2872
N3_5 N 0.60948(13) 0.73099(13) 0.0753(2)
O3_3 O 0.32256(13) 0.52679(14) 0.7078(2)
O4_5 O 0.50477(16) 0.59475(14) 0.0967(3)
O5_3 O 0.21937(13) 0.52588(13) 0.74776(17)
O8_4 O 0.52679(14) 0.67744(13) 0.2922(2)
O9_4 O 0.52588(13) 0.78063(13) 0.25224(17)
H23_5 H 0.473159 0.581918 0.0452876
H24_5 H 0.548629 0.58182 0.0755055
C1_6 C 0.22055(15) 0.37020(17) 0.8226(2)
H1_6 H 0.1860 0.3977 0.8335
C2_6 C 0.20847(17) 0.30740(18) 0.7967(3)
H2_6 H 0.1664 0.2932 0.7887
C3_6 C 0.25940(16) 0.26547(16) 0.7825(2)
H3_6 H 0.2518 0.2229 0.7650
C4_6 C 0.32991(15) 0.35209(16) 0.8187(2)
H4_6 H 0.3715 0.3678 0.8257
C5_6 C 0.32212(15) 0.28763(15) 0.7945(2)
C6_6 C 0.37957(17) 0.24322(17) 0.7872(2)
H5_6 H 0.3822 0.2180 0.8475
H6_6 H 0.4183 0.2691 0.7829
C7_6 C 0.39909(14) 0.21656(14) 0.6112(3)
C8_6 C 0.40755(16) 0.16825(16) 0.5375(2)
H7_6 H 0.3981 0.1256 0.5524
C9_6 C 0.42949(16) 0.18393(16) 0.4452(3)
H8_6 H 0.4360 0.1512 0.3994
C10_6 C 0.41253(18) 0.27986(16) 0.5842(3)
H9_6 H 0.4071 0.3127 0.6302
C11_6 C 0.43382(19) 0.29440(17) 0.4900(3)
H10_6 H 0.4427 0.3370 0.4742
C12_6 C 0.44245(15) 0.24679(17) 0.4171(2)
C13_6 C 0.46467(16) 0.26318(19) 0.3160(3)
C14_6 C 0.20592(16) 0.62225(17) 0.9325(2)
H11_6 H 0.1772 0.5884 0.9241
C15_6 C 0.30995(17) 0.65851(17) 0.9358(2)
H12_6 H 0.3538 0.6504 0.9304
C16_6 C 0.2903(2) 0.72001(18) 0.9548(3)
H13_6 H 0.3204 0.7528 0.9617
C17_6 C 0.2242(2) 0.73327(18) 0.9639(2)
H14_6 H 0.2100 0.7748 0.9772
C18_6 C 0.18075(17) 0.68302(16) 0.9525(2)
C19_6 C 0.10872(19) 0.6906(2) 0.9577(3)
H15_6 H 0.0901 0.6771 0.8952
H16_6 H 0.0985 0.7357 0.9671
N1_6 N 0.28038(13) 0.39327(13) 0.8328(2)
N2_6 N 0.37801(14) 0.19987(13) 0.7039(2)
H21_6 H 0.3631 0.1617 0.7128
N3_6 N 0.26901(13) 0.60948(13) 0.9247(2)
O4_6 O 0.40525(14) 0.50477(16) 0.9033(3)
H23_6 H 0.418082 0.473159 0.954712
H24_6 H 0.41818 0.548629 0.924494
C1_7 C 0.77945(15) 0.62980(17) 0.8226(2)
H1_7 H 0.8140 0.6023 0.8335
C2_7 C 0.79153(17) 0.69260(18) 0.7967(3)
H2_7 H 0.8336 0.7068 0.7887
C3_7 C 0.74060(16) 0.73453(16) 0.7825(2)
H3_7 H 0.7482 0.7771 0.7650
C4_7 C 0.67009(15) 0.64791(16) 0.8187(2)
H4_7 H 0.6285 0.6322 0.8257
C5_7 C 0.67788(15) 0.71237(15) 0.7945(2)
C6_7 C 0.62043(17) 0.75678(17) 0.7872(2)
H5_7 H 0.6178 0.7820 0.8475
H6_7 H 0.5817 0.7309 0.7829
C7_7 C 0.60091(14) 0.78344(14) 0.6112(3)
C8_7 C 0.59245(16) 0.83175(16) 0.5375(2)
H7_7 H 0.6019 0.8744 0.5524
C9_7 C 0.57051(16) 0.81607(16) 0.4452(3)
H8_7 H 0.5640 0.8488 0.3994
C10_7 C 0.58747(18) 0.72014(16) 0.5842(3)
H9_7 H 0.5929 0.6873 0.6302
C11_7 C 0.56618(19) 0.70560(17) 0.4900(3)
H10_7 H 0.5573 0.6630 0.4742
C12_7 C 0.55755(15) 0.75321(17) 0.4171(2)
C13_7 C 0.53533(16) 0.73682(19) 0.3160(3)
C14_7 C 0.79408(16) 0.37775(17) 0.9325(2)
H11_7 H 0.8228 0.4116 0.9241
C15_7 C 0.69005(17) 0.34149(17) 0.9358(2)
H12_7 H 0.6462 0.3496 0.9304
C16_7 C 0.7097(2) 0.27999(18) 0.9548(3)
H13_7 H 0.6796 0.2472 0.9617
C17_7 C 0.7758(2) 0.26673(18) 0.9639(2)
H14_7 H 0.7900 0.2252 0.9772
C18_7 C 0.81925(17) 0.31698(16) 0.9525(2)
C19_7 C 0.89128(19) 0.3094(2) 0.9577(3)
H15_7 H 0.9099 0.3229 0.8952
H16_7 H 0.9015 0.2643 0.9671
N1_7 N 0.71962(13) 0.60673(13) 0.8328(2)
N2_7 N 0.62199(14) 0.80013(13) 0.7039(2)
H21_7 H 0.6369 0.8383 0.7128
N3_7 N 0.73099(13) 0.39052(13) 0.9247(2)
O4_7 O 0.59475(14) 0.49523(16) 0.9033(3)
H23_7 H 0.581918 0.526841 0.954712
H24_7 H 0.58182 0.451371 0.924494
C9_8 C 0.68393(16) 0.07051(16) 0.0548(3)
H8_8 H 0.6512 0.0640 0.1006
C11_8 C 0.79440(17) 0.06618(19) 0.0100(3)
H10_8 H 0.8370 0.0573 0.0258
C12_8 C 0.74679(17) 0.05755(15) 0.0829(2)
C13_8 C 0.76318(19) 0.03533(16) 0.1840(3)
O3_4 O 0.82256(13) 0.02679(14) 0.2078(2)
O5_4 O 0.71937(13) 0.02588(13) 0.24776(17)
Cd2_2 Cd 0.793206(11) 0.001235(11) 0.381541(16)
C14_8 C 0.70592(16) 0.12225(17) 0.4325(2)
H11_8 H 0.6772 0.0884 0.4241
C15_8 C 0.80995(17) 0.15851(17) 0.4358(2)
H12_8 H 0.8538 0.1504 0.4304
C16_8 C 0.7903(2) 0.22001(18) 0.4548(3)
H13_8 H 0.8204 0.2528 0.4617
C17_8 C 0.7242(2) 0.23327(18) 0.4639(2)
H14_8 H 0.7100 0.2748 0.4772
C18_8 C 0.68075(17) 0.18302(16) 0.4525(2)
C19_8 C 0.60872(19) 0.1906(2) 0.4577(3)
H15_8 H 0.5901 0.1771 0.3952
H16_8 H 0.5985 0.2357 0.4671
C20_7 C 0.57061(15) 0.17451(18) 0.6320(2)
C21_7 C 0.54116(17) 0.13322(19) 0.7026(3)
H17_7 H 0.5294 0.0918 0.6839
C22_7 C 0.52966(16) 0.15343(19) 0.7985(3)
H18_7 H 0.5106 0.1255 0.8435
C23_7 C 0.58888(17) 0.2361(2) 0.6635(3)
H19_7 H 0.6102 0.2635 0.6201
C24_7 C 0.57528(17) 0.2566(2) 0.7599(3)
H20_7 H 0.5857 0.2984 0.7786
C25_7 C 0.54651(15) 0.2156(2) 0.8283(2)
C26_7 C 0.53290(16) 0.2388(2) 0.9315(3)
N3_8 N 0.76901(13) 0.10948(13) 0.4247(2)
N4_7 N 0.57957(15) 0.15329(17) 0.5374(2)
H22_7 H 0.5671 0.1149 0.5238
O1_4 O 0.53189(13) 0.29907(15) 0.9479(2)
O4_8 O 0.90525(14) 0.00477(16) 0.4033(3)
H24_8 H 0.91818 0.0486286 0.424494
C1_8 C 0.27945(15) 0.12980(17) 0.3226(2)
H1_8 H 0.3140 0.1023 0.3335
C2_8 C 0.29153(17) 0.19260(18) 0.2967(3)
H2_8 H 0.3336 0.2068 0.2887
C3_8 C 0.24060(16) 0.23453(16) 0.2825(2)
H3_8 H 0.2482 0.2771 0.2650
C4_8 C 0.17009(15) 0.14791(16) 0.3187(2)
H4_8 H 0.1285 0.1322 0.3257
C5_8 C 0.17788(15) 0.21237(15) 0.2945(2)
C6_8 C 0.12043(17) 0.25678(17) 0.2872(2)
H5_8 H 0.1178 0.2820 0.3475
H6_8 H 0.0817 0.2309 0.2829
C7_8 C 0.10091(14) 0.28344(14) 0.1112(3)
C8_8 C 0.09245(16) 0.33175(16) 0.0375(2)
H7_8 H 0.1019 0.3744 0.0524
C10_8 C 0.08747(18) 0.22014(16) 0.0842(3)
H9_8 H 0.0929 0.1873 0.1302
N1_8 N 0.21962(13) 0.10673(13) 0.3328(2)
N2_8 N 0.12199(14) 0.30013(13) 0.2039(2)
H21_8 H 0.1369 0.3383 0.2128
O6_4 O 0.20093(15) 0.03189(13) 0.5521(2)
O7_4 O 0.30103(15) 0.02119(13) 0.4993(2)
H23_8 H 0.081918 0.0268409 0.454712
C20_8 C 0.32549(18) 0.07061(15) 0.8680(2)
C21_8 C 0.36678(19) 0.04116(17) 0.7974(3)
H17_8 H 0.4082 0.0294 0.8161
C22_8 C 0.34657(19) 0.02966(16) 0.7015(3)
H18_8 H 0.3745 0.0106 0.6565
C23_8 C 0.2639(2) 0.08888(17) 0.8365(3)
H19_8 H 0.2365 0.1102 0.8799
C24_8 C 0.2434(2) 0.07528(17) 0.7401(3)
H20_8 H 0.2016 0.0857 0.7214
C25_8 C 0.2844(2) 0.04651(15) 0.6717(2)
C26_8 C 0.2612(2) 0.03290(16) 0.5685(3)
N4_8 N 0.34671(17) 0.07957(15) 0.9626(2)
H22_8 H 0.3851 0.0671 0.9762
loop_
_geom_bond_atom_site_label_1
_geom_bond_atom_site_label_2
_geom_bond_site_symmetry_1
_geom_bond_site_symmetry_2
H8 C9 1_555 1_555
H10 C11 1_555 1_555
C12 C9 1_555 1_555
C13 C12 1_555 1_555
O3 C13 1_555 1_555
O5 C13 1_555 1_555
Cd2 O3 1_555 1_555
C11 C12 1_555 1_555
O5 Cd2 1_555 1_555
C1 H1 1_555 1_555
C2 C1 1_555 1_555
H2 C2 1_555 1_555
C3 C2 1_555 1_555
H3 C3 1_555 1_555
C4 H4 1_555 1_555
C5 C3 1_555 1_555
C6 C5 1_555 1_555
H5 C6 1_555 1_555
H6 C6 1_555 1_555
C7 C8 1_555 1_555
C8 H7 1_555 1_555
C10 C7 1_555 1_555
H9 C10 1_555 1_555
N1 C1 1_555 1_555
N2 C6 1_555 1_555
H21 N2 1_555 1_555
C4 C5 1_555 1_555
C4 N1 1_555 1_555
C7 N2 1_555 1_555
C14 H11 1_555 1_555
C15 H12 1_555 1_555
C16 C15 1_555 1_555
H13 C16 1_555 1_555
C17 C16 1_555 1_555
H14 C17 1_555 1_555
C18 C14 1_555 1_555
C19 C18 1_555 1_555
H15 C19 1_555 1_555
H16 C19 1_555 1_555
C20 C21 1_555 1_555
C21 H17 1_555 1_555
C22 C21 1_555 1_555
H18 C22 1_555 1_555
C23 C20 1_555 1_555
H19 C23 1_555 1_555
C24 C23 1_555 1_555
H20 C24 1_555 1_555
C25 C22 1_555 1_555
C26 C25 1_555 1_555
N3 Cd2 1_555 1_555
N4 C19 1_555 1_555
H22 N4 1_555 1_555
O1 C26 1_555 1_555
O4 Cd2 1_555 1_555
C14 N3 1_555 1_555
C15 N3 1_555 1_555
C17 C18 1_555 1_555
C20 N4 1_555 1_555
C24 C25 1_555 1_555
O4 H24 1_555 1_555
C20_2 C21_2 1_555 1_555
C21_2 H17_2 1_555 1_555
C22_2 C21_2 1_555 1_555
H18_2 C22_2 1_555 1_555
C23_2 C20_2 1_555 1_555
H19_2 C23_2 1_555 1_555
C24_2 C23_2 1_555 1_555
H20_2 C24_2 1_555 1_555
C25_2 C22_2 1_555 1_555
C26_2 C25_2 1_555 1_555
H22_2 N4_2 1_555 1_555
O6 C26_2 1_555 1_555
O7 C26_2 1_555 1_555
C20_2 N4_2 1_555 1_555
C24_2 C25_2 1_555 1_555
C1_2 H1_2 1_555 1_555
C2_2 C1_2 1_555 1_555
H2_2 C2_2 1_555 1_555
C3_2 C2_2 1_555 1_555
H3_2 C3_2 1_555 1_555
C4_2 H4_2 1_555 1_555
C5_2 C3_2 1_555 1_555
C6_2 C5_2 1_555 1_555
H5_2 C6_2 1_555 1_555
H6_2 C6_2 1_555 1_555
C7_2 C8_2 1_555 1_555
C8_2 H7_2 1_555 1_555
C10_2 C7_2 1_555 1_555
H9_2 C10_2 1_555 1_555
N1_2 C1_2 1_555 1_555
N2_2 C6_2 1_555 1_555
H21_2 N2_2 1_555 1_555
C4_2 C5_2 1_555 1_555
C4_2 N1_2 1_555 1_555
C7_2 N2_2 1_555 1_555
C14_2 H11_2 1_555 1_555
C15_2 H12_2 1_555 1_555
C16_2 C15_2 1_555 1_555
H13_2 C16_2 1_555 1_555
C17_2 C16_2 1_555 1_555
H14_2 C17_2 1_555 1_555
C18_2 C14_2 1_555 1_555
C19_2 C18_2 1_555 1_555
H15_2 C19_2 1_555 1_555
H16_2 C19_2 1_555 1_555
C20_3 C21_3 1_555 1_555
C21_3 H17_3 1_555 1_555
C22_3 C21_3 1_555 1_555
H18_3 C22_3 1_555 1_555
C23_3 C20_3 1_555 1_555
H19_3 C23_3 1_555 1_555
C24_3 C23_3 1_555 1_555
H20_3 C24_3 1_555 1_555
C25_3 C22_3 1_555 1_555
C26_3 C25_3 1_555 1_555
N3_2 Cd1 1_555 1_555
N4_3 C19_2 1_555 1_555
H22_3 N4_3 1_555 1_555
O1_2 C26_3 1_555 1_555
O4_2 Cd1 1_555 1_555
O8 Cd1 1_555 1_555
O9 Cd1 1_555 1_555
C14_2 N3_2 1_555 1_555
C15_2 N3_2 1_555 1_555
C17_2 C18_2 1_555 1_555
C20_3 N4_3 1_555 1_555
C24_3 C25_3 1_555 1_555
O4_2 H24_2 1_555 1_555
H8_2 C9_2 1_555 1_555
H10_2 C11_2 1_555 1_555
C12_2 C9_2 1_555 1_555
C13_2 C12_2 1_555 1_555
O8 C13_2 1_555 1_555
O9 C13_2 1_555 1_555
C11_2 C12_2 1_555 1_555
C20_4 C21_4 1_555 1_555
C21_4 H17_4 1_555 1_555
C22_4 C21_4 1_555 1_555
H18_4 C22_4 1_555 1_555
C23_4 C20_4 1_555 1_555
H19_4 C23_4 1_555 1_555
C24_4 C23_4 1_555 1_555
H20_4 C24_4 1_555 1_555
C25_4 C22_4 1_555 1_555
C26_4 C25_4 1_555 1_555
H22_4 N4_4 1_555 1_555
O6_2 C26_4 1_555 1_555
O7_2 C26_4 1_555 1_555
C20_4 N4_4 1_555 1_555
C24_4 C25_4 1_555 1_555
C14_3 H11_3 1_555 1_555
C15_3 H12_3 1_555 1_555
C16_3 C15_3 1_555 1_555
H13_3 C16_3 1_555 1_555
C17_3 C16_3 1_555 1_555
H14_3 C17_3 1_555 1_555
C18_3 C14_3 1_555 1_555
C19_3 C18_3 1_555 1_555
H15_3 C19_3 1_555 1_555
H16_3 C19_3 1_555 1_555
C20_5 C21_5 1_555 1_555
C21_5 H17_5 1_555 1_555
C22_5 C21_5 1_555 1_555
H18_5 C22_5 1_555 1_555
C23_5 C20_5 1_555 1_555
H19_5 C23_5 1_555 1_555
C24_5 C23_5 1_555 1_555
H20_5 C24_5 1_555 1_555
C25_5 C22_5 1_555 1_555
C26_5 C25_5 1_555 1_555
N3_3 Cd1_2 1_555 1_555
N4_5 C19_3 1_555 1_555
H22_5 N4_5 1_555 1_555
O1_3 C26_5 1_555 1_555
O4_3 Cd1_2 1_555 1_555
O8_2 Cd1_2 1_555 1_555
O9_2 Cd1_2 1_555 1_555
C14_3 N3_3 1_555 1_555
C15_3 N3_3 1_555 1_555
C17_3 C18_3 1_555 1_555
C20_5 N4_5 1_555 1_555
C24_5 C25_5 1_555 1_555
O4_3 H24_3 1_555 1_555
C1_3 H1_3 1_555 1_555
C2_3 C1_3 1_555 1_555
H2_3 C2_3 1_555 1_555
C3_3 C2_3 1_555 1_555
H3_3 C3_3 1_555 1_555
C4_3 H4_3 1_555 1_555
C5_3 C3_3 1_555 1_555
C6_3 C5_3 1_555 1_555
H5_3 C6_3 1_555 1_555
H6_3 C6_3 1_555 1_555
C7_3 C8_3 1_555 1_555
C8_3 H7_3 1_555 1_555
C10_3 C7_3 1_555 1_555
H9_3 C10_3 1_555 1_555
N1_3 C1_3 1_555 1_555
N2_3 C6_3 1_555 1_555
H21_3 N2_3 1_555 1_555
C4_3 C5_3 1_555 1_555
C4_3 N1_3 1_555 1_555
C7_3 N2_3 1_555 1_555
H8_3 C9_3 1_555 1_555
H10_3 C11_3 1_555 1_555
C12_3 C9_3 1_555 1_555
C13_3 C12_3 1_555 1_555
O8_2 C13_3 1_555 1_555
O9_2 C13_3 1_555 1_555
C11_3 C12_3 1_555 1_555
C20_6 C21_6 1_555 1_555
C21_6 H17_6 1_555 1_555
C22_6 C21_6 1_555 1_555
H18_6 C22_6 1_555 1_555
C23_6 C20_6 1_555 1_555
H19_6 C23_6 1_555 1_555
C24_6 C23_6 1_555 1_555
H20_6 C24_6 1_555 1_555
C25_6 C22_6 1_555 1_555
C26_6 C25_6 1_555 1_555
H22_6 N4_6 1_555 1_555
O6_3 C26_6 1_555 1_555
O7_3 C26_6 1_555 1_555
C20_6 N4_6 1_555 1_555
C24_6 C25_6 1_555 1_555
O2 Cd3 1_555 1_555
O2_2 Cd3_2 1_555 1_555
O2_3 Cd3_3 1_555 1_555
O2_4 Cd3_4 1_555 1_555
Cd3_3 N1_4 1_555 1_555
C1_4 H1_4 1_555 1_555
C2_4 C1_4 1_555 1_555
H2_4 C2_4 1_555 1_555
C3_4 C2_4 1_555 1_555
H3_4 C3_4 1_555 1_555
C4_4 H4_4 1_555 1_555
C5_4 C3_4 1_555 1_555
C6_4 C5_4 1_555 1_555
H5_4 C6_4 1_555 1_555
H6_4 C6_4 1_555 1_555
C7_4 C8_4 1_555 1_555
C8_4 H7_4 1_555 1_555
C9_4 C8_4 1_555 1_555
H8_4 C9_4 1_555 1_555
C10_4 C7_4 1_555 1_555
H9_4 C10_4 1_555 1_555
C11_4 C10_4 1_555 1_555
H10_4 C11_4 1_555 1_555
C12_4 C9_4 1_555 1_555
C13_4 C12_4 1_555 1_555
C14_4 H11_4 1_555 1_555
C15_4 H12_4 1_555 1_555
C16_4 C15_4 1_555 1_555
H13_4 C16_4 1_555 1_555
C17_4 C16_4 1_555 1_555
H14_4 C17_4 1_555 1_555
C18_4 C14_4 1_555 1_555
C19_4 C18_4 1_555 1_555
H15_4 C19_4 1_555 1_555
H16_4 C19_4 1_555 1_555
N1_4 C1_4 1_555 1_555
N2_4 C6_4 1_555 1_555
H21_4 N2_4 1_555 1_555
N3_4 Cd3_3 1_555 1_555
O3_2 C13_4 1_555 1_555
O4_4 Cd3_3 1_555 1_555
O5_2 C13_4 1_555 1_555
Cd3 O3_2 1_555 1_555
O8_3 Cd3_3 1_555 1_555
O9_3 Cd3_3 1_555 1_555
C4_4 C5_4 1_555 1_555
C4_4 N1_4 1_555 1_555
C7_4 N2_4 1_555 1_555
C11_4 C12_4 1_555 1_555
C14_4 N3_4 1_555 1_555
C15_4 N3_4 1_555 1_555
C17_4 C18_4 1_555 1_555
O5_2 Cd3 1_555 1_555
O4_4 H23_4 1_555 1_555
O4_4 H24_4 1_555 1_555
Cd3_4 N1_5 1_555 1_555
C1_5 H1_5 1_555 1_555
C2_5 C1_5 1_555 1_555
H2_5 C2_5 1_555 1_555
C3_5 C2_5 1_555 1_555
H3_5 C3_5 1_555 1_555
C4_5 H4_5 1_555 1_555
C5_5 C3_5 1_555 1_555
C6_5 C5_5 1_555 1_555
H5_5 C6_5 1_555 1_555
H6_5 C6_5 1_555 1_555
C7_5 C8_5 1_555 1_555
C8_5 H7_5 1_555 1_555
C9_5 C8_5 1_555 1_555
H8_5 C9_5 1_555 1_555
C10_5 C7_5 1_555 1_555
H9_5 C10_5 1_555 1_555
C11_5 C10_5 1_555 1_555
H10_5 C11_5 1_555 1_555
C12_5 C9_5 1_555 1_555
C13_5 C12_5 1_555 1_555
C14_5 H11_5 1_555 1_555
C15_5 H12_5 1_555 1_555
C16_5 C15_5 1_555 1_555
H13_5 C16_5 1_555 1_555
C17_5 C16_5 1_555 1_555
H14_5 C17_5 1_555 1_555
C18_5 C14_5 1_555 1_555
C19_5 C18_5 1_555 1_555
H15_5 C19_5 1_555 1_555
H16_5 C19_5 1_555 1_555
N1_5 C1_5 1_555 1_555
N2_5 C6_5 1_555 1_555
H21_5 N2_5 1_555 1_555
N3_5 Cd3_4 1_555 1_555
O3_3 C13_5 1_555 1_555
O4_5 Cd3_4 1_555 1_555
O5_3 C13_5 1_555 1_555
Cd3_2 O3_3 1_555 1_555
O8_4 Cd3_4 1_555 1_555
O9_4 Cd3_4 1_555 1_555
C4_5 C5_5 1_555 1_555
C4_5 N1_5 1_555 1_555
C7_5 N2_5 1_555 1_555
C11_5 C12_5 1_555 1_555
C14_5 N3_5 1_555 1_555
C15_5 N3_5 1_555 1_555
C17_5 C18_5 1_555 1_555
O5_3 Cd3_2 1_555 1_555
O4_5 H23_5 1_555 1_555
O4_5 H24_5 1_555 1_555
Cd3_2 N1_6 1_555 1_555
C1_6 H1_6 1_555 1_555
C2_6 C1_6 1_555 1_555
H2_6 C2_6 1_555 1_555
C3_6 C2_6 1_555 1_555
H3_6 C3_6 1_555 1_555
C4_6 H4_6 1_555 1_555
C5_6 C3_6 1_555 1_555
C6_6 C5_6 1_555 1_555
H5_6 C6_6 1_555 1_555
H6_6 C6_6 1_555 1_555
C7_6 C8_6 1_555 1_555
C8_6 H7_6 1_555 1_555
C9_6 C8_6 1_555 1_555
H8_6 C9_6 1_555 1_555
C10_6 C7_6 1_555 1_555
H9_6 C10_6 1_555 1_555
C11_6 C10_6 1_555 1_555
H10_6 C11_6 1_555 1_555
C12_6 C9_6 1_555 1_555
C13_6 C12_6 1_555 1_555
C14_6 H11_6 1_555 1_555
C15_6 H12_6 1_555 1_555
C16_6 C15_6 1_555 1_555
H13_6 C16_6 1_555 1_555
C17_6 C16_6 1_555 1_555
H14_6 C17_6 1_555 1_555
C18_6 C14_6 1_555 1_555
C19_6 C18_6 1_555 1_555
H15_6 C19_6 1_555 1_555
H16_6 C19_6 1_555 1_555
N1_6 C1_6 1_555 1_555
N2_6 C6_6 1_555 1_555
H21_6 N2_6 1_555 1_555
N3_6 Cd3_2 1_555 1_555
O8_3 C13_6 1_555 1_555
O4_6 Cd3_2 1_555 1_555
O9_3 C13_6 1_555 1_555
C4_6 C5_6 1_555 1_555
C4_6 N1_6 1_555 1_555
C7_6 N2_6 1_555 1_555
C11_6 C12_6 1_555 1_555
C14_6 N3_6 1_555 1_555
C15_6 N3_6 1_555 1_555
C17_6 C18_6 1_555 1_555
O4_6 H23_6 1_555 1_555
O4_6 H24_6 1_555 1_555
Cd3 N1_7 1_555 1_555
C1_7 H1_7 1_555 1_555
C2_7 C1_7 1_555 1_555
H2_7 C2_7 1_555 1_555
C3_7 C2_7 1_555 1_555
H3_7 C3_7 1_555 1_555
C4_7 H4_7 1_555 1_555
C5_7 C3_7 1_555 1_555
C6_7 C5_7 1_555 1_555
H5_7 C6_7 1_555 1_555
H6_7 C6_7 1_555 1_555
C7_7 C8_7 1_555 1_555
C8_7 H7_7 1_555 1_555
C9_7 C8_7 1_555 1_555
H8_7 C9_7 1_555 1_555
C10_7 C7_7 1_555 1_555
H9_7 C10_7 1_555 1_555
C11_7 C10_7 1_555 1_555
H10_7 C11_7 1_555 1_555
C12_7 C9_7 1_555 1_555
C13_7 C12_7 1_555 1_555
C14_7 H11_7 1_555 1_555
C15_7 H12_7 1_555 1_555
C16_7 C15_7 1_555 1_555
H13_7 C16_7 1_555 1_555
C17_7 C16_7 1_555 1_555
H14_7 C17_7 1_555 1_555
C18_7 C14_7 1_555 1_555
C19_7 C18_7 1_555 1_555
H15_7 C19_7 1_555 1_555
H16_7 C19_7 1_555 1_555
N1_7 C1_7 1_555 1_555
N2_7 C6_7 1_555 1_555
H21_7 N2_7 1_555 1_555
N3_7 Cd3 1_555 1_555
O8_4 C13_7 1_555 1_555
O4_7 Cd3 1_555 1_555
O9_4 C13_7 1_555 1_555
C4_7 C5_7 1_555 1_555
C4_7 N1_7 1_555 1_555
C7_7 N2_7 1_555 1_555
C11_7 C12_7 1_555 1_555
C14_7 N3_7 1_555 1_555
C15_7 N3_7 1_555 1_555
C17_7 C18_7 1_555 1_555
O4_7 H23_7 1_555 1_555
O4_7 H24_7 1_555 1_555
H8_8 C9_8 1_555 1_555
H10_8 C11_8 1_555 1_555
C12_8 C9_8 1_555 1_555
C13_8 C12_8 1_555 1_555
O3_4 C13_8 1_555 1_555
O5_4 C13_8 1_555 1_555
Cd2_2 O3_4 1_555 1_555
C11_8 C12_8 1_555 1_555
O5_4 Cd2_2 1_555 1_555
C14_8 H11_8 1_555 1_555
C15_8 H12_8 1_555 1_555
C16_8 C15_8 1_555 1_555
H13_8 C16_8 1_555 1_555
C17_8 C16_8 1_555 1_555
H14_8 C17_8 1_555 1_555
C18_8 C14_8 1_555 1_555
C19_8 C18_8 1_555 1_555
H15_8 C19_8 1_555 1_555
H16_8 C19_8 1_555 1_555
C20_7 C21_7 1_555 1_555
C21_7 H17_7 1_555 1_555
C22_7 C21_7 1_555 1_555
H18_7 C22_7 1_555 1_555
C23_7 C20_7 1_555 1_555
H19_7 C23_7 1_555 1_555
C24_7 C23_7 1_555 1_555
H20_7 C24_7 1_555 1_555
C25_7 C22_7 1_555 1_555
C26_7 C25_7 1_555 1_555
N3_8 Cd2_2 1_555 1_555
N4_7 C19_8 1_555 1_555
H22_7 N4_7 1_555 1_555
O1_4 C26_7 1_555 1_555
O4_8 Cd2_2 1_555 1_555
C14_8 N3_8 1_555 1_555
C15_8 N3_8 1_555 1_555
C17_8 C18_8 1_555 1_555
C20_7 N4_7 1_555 1_555
C24_7 C25_7 1_555 1_555
O4_8 H24_8 1_555 1_555
C1_8 H1_8 1_555 1_555
C2_8 C1_8 1_555 1_555
H2_8 C2_8 1_555 1_555
C3_8 C2_8 1_555 1_555
H3_8 C3_8 1_555 1_555
C4_8 H4_8 1_555 1_555
C5_8 C3_8 1_555 1_555
C6_8 C5_8 1_555 1_555
H5_8 C6_8 1_555 1_555
H6_8 C6_8 1_555 1_555
C7_8 C8_8 1_555 1_555
C8_8 H7_8 1_555 1_555
C10_8 C7_8 1_555 1_555
H9_8 C10_8 1_555 1_555
N1_8 C1_8 1_555 1_555
N2_8 C6_8 1_555 1_555
H21_8 N2_8 1_555 1_555
C4_8 C5_8 1_555 1_555
C4_8 N1_8 1_555 1_555
C7_8 N2_8 1_555 1_555
C20_8 C21_8 1_555 1_555
C21_8 H17_8 1_555 1_555
C22_8 C21_8 1_555 1_555
H18_8 C22_8 1_555 1_555
C23_8 C20_8 1_555 1_555
H19_8 C23_8 1_555 1_555
C24_8 C23_8 1_555 1_555
H20_8 C24_8 1_555 1_555
C25_8 C22_8 1_555 1_555
C26_8 C25_8 1_555 1_555
H22_8 N4_8 1_555 1_555
O6_4 C26_8 1_555 1_555
O7_4 C26_8 1_555 1_555
C20_8 N4_8 1_555 1_555
C24_8 C25_8 1_555 1_555

#END
