
###############################################################################
#
# This file contains modified crystal structure data generated from the
# MOF subset of the Cambridge Structural Database (CSD) v543 
# hosted by the Cambridge Crystallographic Data Centre (CCDC).
#
# This work is licensed under the Creative Commons
# Attribution-NonCommercial-ShareAlike 4.0 International License.
# To view a copy of this license, visit
# http://creativecommons.org/licenses/by-nc-sa/4.0/
# or send a letter to
# Creative Commons, PO Box 1866, Mountain View, CA 94042, USA.
#
# CIF created using the CSD Python API on 29 September 2022
# The structure has been converted into the P1 space group
# The structure has a 3D framework
# The original CSD entry JOFKIA01 is in the rhombohedral crystal system
# The framework has been calculated to contain at least 10.0% void space
# The void calculation uses a probe of radius 1.32A, grid spacing 0.4
#
###############################################################################

data_JOFKIA01
_chemical_formula_moiety         '(C54 H72 Cu18 N68 O54)n'
_symmetry_cell_setting           triclinic
_symmetry_space_group_name_H-M   'P 1'
_symmetry_Int_Tables_number      1
_space_group_name_Hall           'P 1'
loop_
_symmetry_equiv_pos_site_id
_symmetry_equiv_pos_as_xyz
1 x,y,z
_cell_length_a                   21.5373(5)
_cell_length_b                   21.5373(5)
_cell_length_c                   8.8753(7)
_cell_angle_alpha                90
_cell_angle_beta                 90
_cell_angle_gamma                120
_cell_volume                     3565.3
loop_
_atom_site_label
_atom_site_type_symbol
_atom_site_fract_x
_atom_site_fract_y
_atom_site_fract_z
Cu1 Cu 0.29680(2) 0.174452(19) 0.46447(4)
C1 C 0.26583(16) 0.00983(16) 0.7500(4)
C2 C 0.24627(16) 0.03249(16) 0.5304(4)
C3 C 0.21595(18) 0.03069(18) 0.3796(4)
H1 H 0.399(2) 0.224(2) 0.212(2)
H2 H 0.4279(16) 0.220(2) 0.351(4)
N1 N 0.30355(14) 0.08123(13) 0.7343(3)
N3 N 0.29009(14) 0.09467(14) 0.5901(3)
O1 O 0.23797(13) 0.09324(12) 0.3251(3)
O3 O 0.39332(15) 0.21320(16) 0.3023(3)
Cu3 Cu 0.36987(2) 0.158881(19) 0.86886(4)
N5 N 0.36312(14) 0.25210(13) 0.5990(3)
N6 N 0.25313(19) 0.23016(14) 0.3765(3)
N2 N 0.26587(16) 0.97481(15) 0.8773(3)
H3 H 0.2911 0.9986 0.9537
H4 H 0.2407 0.9288 0.8815
N4 N 0.23016(14) 0.97703(13) 0.6235(3)
O2 O 0.17315(16) 0.97309(13) 0.3221(3)
Cu2 Cu 0.174452(19) 0.877652(28) 0.53553(4)
N2_2 N 0.02519(15) 0.29106(22) 0.8773(3)
H3_2 H 0.0014 0.2925 0.9537
H4_2 H 0.0712 0.3119 0.8815
N4_2 N 0.02297(13) 0.25313(19) 0.6235(3)
O2_2 O 0.02691(13) 0.20006(21) 0.3221(3)
Cu2_2 Cu 0.122348(28) 0.296800(34) 0.53553(4)
Cu1_2 Cu 0.825548(19) 0.122348(28) 0.46447(4)
C1_2 C 0.99017(16) 0.25600(23) 0.7500(4)
C2_2 C 0.96751(16) 0.21378(23) 0.5304(4)
C3_2 C 0.96931(18) 0.18526(25) 0.3796(4)
H1_2 H 0.776(2) 0.175(3) 0.212(2)
H2_2 H 0.780(2) 0.2079(26) 0.351(4)
N1_2 N 0.91877(13) 0.22232(19) 0.7343(3)
N3_2 N 0.90533(14) 0.19542(20) 0.5901(3)
O1_2 O 0.90676(12) 0.14473(18) 0.3251(3)
O3_2 O 0.78680(16) 0.18012(22) 0.3023(3)
Cu3_2 Cu 0.841119(19) 0.210985(28) 0.86886(4)
N5_2 N 0.74790(13) 0.11101(19) 0.5990(3)
N6_2 N 0.76984(14) 0.02297(24) 0.3765(3)
Cu1_3 Cu 0.877652(28) 0.70320(2) 0.46447(4)
C1_3 C 0.74400(23) 0.73417(16) 0.7500(4)
C2_3 C 0.78622(23) 0.75373(16) 0.5304(4)
C3_3 C 0.81474(25) 0.78405(18) 0.3796(4)
H1_3 H 0.825(3) 0.601(2) 0.212(2)
H2_3 H 0.7921(26) 0.5721(16) 0.351(4)
N1_3 N 0.77768(19) 0.69645(14) 0.7343(3)
N2_3 N 0.70894(22) 0.73413(16) 0.8773(3)
H3_3 H 0.7075 0.7089 0.9537
H4_3 H 0.6881 0.7593 0.8815
N3_3 N 0.80458(20) 0.70991(14) 0.5901(3)
N4_3 N 0.74687(19) 0.76984(14) 0.6235(3)
O1_3 O 0.85527(18) 0.76203(13) 0.3251(3)
O2_3 O 0.79994(21) 0.82685(16) 0.3221(3)
O3_3 O 0.81988(22) 0.60668(15) 0.3023(3)
Cu2_3 Cu 0.703200(34) 0.825548(19) 0.53553(4)
Cu3_3 Cu 0.789015(28) 0.63013(2) 0.86886(4)
N5_3 N 0.88899(19) 0.63688(14) 0.5990(3)
N6_3 N 0.97703(24) 0.74687(19) 0.3765(3)
Cu3_4 Cu 0.03653(2) 0.492215(19) 0.20220(4)
Cu1_4 Cu 0.96347(2) 0.507785(19) 0.79780(4)
C2_4 C 0.91294(16) 0.36582(16) 0.8637(4)
C3_4 C 0.88262(18) 0.36402(18) 0.7129(4)
N3_4 N 0.95676(14) 0.42800(14) 0.9234(3)
N4_4 N 0.89683(14) 0.31036(13) 0.9568(3)
O1_4 O 0.90464(13) 0.42657(12) 0.6584(3)
O2_4 O 0.83982(16) 0.30642(13) 0.6554(3)
N6_4 N 0.91980(19) 0.56349(14) 0.7098(3)
C1_4 C 0.65684(16) 0.58933(23) 0.0833(4)
N1_4 N 0.58544(13) 0.55565(19) 0.0676(3)
N2_4 N 0.69186(15) 0.62439(22) 0.2106(3)
H3_4 H 0.6681 0.6258 0.2870
H4_4 H 0.7379 0.6452 0.2148
Cu3_5 Cu 0.507785(19) 0.544319(28) 0.20220(4)
Cu1_5 Cu 0.492215(19) 0.455681(28) 0.79780(4)
C2_5 C 0.63418(16) 0.54711(23) 0.8637(4)
C3_5 C 0.63598(18) 0.51859(25) 0.7129(4)
H1_4 H 0.443(2) 0.508(3) 0.545(2)
H2_4 H 0.447(2) 0.5412(26) 0.684(4)
N3_5 N 0.57200(14) 0.52875(20) 0.9234(3)
N4_5 N 0.68964(13) 0.58646(19) 0.9568(3)
O1_5 O 0.57343(12) 0.47806(18) 0.6584(3)
O2_5 O 0.69358(13) 0.53339(21) 0.6554(3)
O3_4 O 0.45347(16) 0.51345(22) 0.6356(3)
N5_4 N 0.41456(13) 0.44435(19) 0.9324(3)
N6_5 N 0.43651(14) 0.35630(24) 0.7098(3)
Cu1_6 Cu 0.544319(28) 0.03653(2) 0.79780(4)
C2_6 C 0.45289(23) 0.08706(16) 0.8637(4)
C3_6 C 0.48141(25) 0.11738(18) 0.7129(4)
N3_6 N 0.47125(20) 0.04324(14) 0.9234(3)
N4_6 N 0.41354(19) 0.10317(14) 0.9568(3)
O1_6 O 0.52194(18) 0.09536(13) 0.6584(3)
O2_6 O 0.46661(21) 0.16018(16) 0.6554(3)
N6_6 N 0.64370(24) 0.08020(19) 0.7098(3)
Cu3_6 Cu 0.455681(28) 0.96347(2) 0.20220(4)
Cu1_7 Cu 0.63013(2) 0.841119(19) 0.13114(4)
C1_5 C 0.59916(16) 0.67650(16) 0.4167(4)
C2_7 C 0.57960(16) 0.69916(16) 0.1971(4)
C3_7 C 0.54928(18) 0.69736(18) 0.0463(4)
H2_5 H 0.7612(16) 0.887(2) 0.018(4)
N1_5 N 0.63688(14) 0.74790(13) 0.4010(3)
N2_5 N 0.59920(16) 0.64148(15) 0.5440(3)
H3_5 H 0.6244 0.6653 0.6204
H4_5 H 0.5740 0.5955 0.5482
N3_7 N 0.62342(14) 0.76134(14) 0.2568(3)
N4_7 N 0.56349(14) 0.64370(13) 0.2902(3)
N5_5 N 0.69645(14) 0.91877(13) 0.2657(3)
N6_7 N 0.58646(19) 0.89683(14) 0.0432(3)
Cu1_8 Cu 0.158881(19) 0.789015(28) 0.13114(4)
C1_6 C 0.32350(16) 0.92267(23) 0.4167(4)
C2_8 C 0.30084(16) 0.88045(23) 0.1971(4)
C3_8 C 0.30264(18) 0.85193(25) 0.0463(4)
H2_6 H 0.113(2) 0.8746(26) 0.018(4)
N1_6 N 0.25210(13) 0.88899(19) 0.4010(3)
N2_6 N 0.35852(15) 0.95773(22) 0.5440(3)
H3_6 H 0.3347 0.9592 0.6204
H4_6 H 0.4045 0.9786 0.5482
N3_8 N 0.23866(14) 0.86209(20) 0.2568(3)
N4_8 N 0.35630(13) 0.91980(19) 0.2902(3)
N5_6 N 0.08123(13) 0.77768(19) 0.2657(3)
N6_8 N 0.10317(14) 0.68964(24) 0.0432(3)
Cu1_9 Cu 0.210985(28) 0.36987(2) 0.13114(4)
C1_7 C 0.07733(23) 0.40084(16) 0.4167(4)
C2_9 C 0.11955(23) 0.42040(16) 0.1971(4)
C3_9 C 0.14807(25) 0.45072(18) 0.0463(4)
H2_7 H 0.1254(26) 0.2388(16) 0.018(4)
N1_7 N 0.11101(19) 0.36312(14) 0.4010(3)
N2_7 N 0.04227(22) 0.40080(16) 0.5440(3)
H3_7 H 0.0408 0.3756 0.6204
H4_7 H 0.0214 0.4260 0.5482
N3_9 N 0.13791(20) 0.37658(14) 0.2568(3)
N4_9 N 0.08020(19) 0.43651(14) 0.2902(3)
N5_7 N 0.22232(19) 0.30355(14) 0.2657(3)
N6_9 N 0.31036(24) 0.41354(19) 0.0432(3)
N2_8 N 0.73413(16) 0.02519(15) 0.1227(3)
H3_8 H 0.7089 0.0014 0.0463
H4_8 H 0.7593 0.0712 0.1185
O2_7 O 0.82685(16) 0.02691(13) 0.6779(3)
C1_8 C 0.73417(16) 0.99017(16) 0.2500(4)
C2_10 C 0.75373(16) 0.96751(16) 0.4696(4)
C3_10 C 0.78405(18) 0.96931(18) 0.6204(4)
H1_5 H 0.601(2) 0.776(2) 0.788(2)
H2_8 H 0.5721(16) 0.780(2) 0.649(4)
N3_10 N 0.70991(14) 0.90533(14) 0.4099(3)
O1_7 O 0.76203(13) 0.90676(12) 0.6749(3)
O3_5 O 0.60668(15) 0.78680(16) 0.6977(3)
C1_9 C 0.00983(16) 0.74400(23) 0.2500(4)
C2_11 C 0.03249(16) 0.78622(23) 0.4696(4)
C3_11 C 0.03069(18) 0.81474(25) 0.6204(4)
H1_6 H 0.224(2) 0.825(3) 0.788(2)
H2_9 H 0.220(2) 0.7921(26) 0.649(4)
N3_11 N 0.09467(14) 0.80458(20) 0.4099(3)
O1_8 O 0.09324(12) 0.85527(18) 0.6749(3)
O3_6 O 0.21320(16) 0.81988(22) 0.6977(3)
N2_9 N 0.97481(15) 0.70894(22) 0.1227(3)
H3_9 H 0.9986 0.7075 0.0463
H4_9 H 0.9288 0.6881 0.1185
O2_8 O 0.97309(13) 0.79994(21) 0.6779(3)
C1_10 C 0.25600(23) 0.26583(16) 0.2500(4)
C2_12 C 0.21378(23) 0.24627(16) 0.4696(4)
C3_12 C 0.18526(25) 0.21595(18) 0.6204(4)
H1_7 H 0.175(3) 0.399(2) 0.788(2)
H2_10 H 0.2079(26) 0.4279(16) 0.649(4)
N2_10 N 0.29106(22) 0.26587(16) 0.1227(3)
H3_10 H 0.2925 0.2911 0.0463
H4_10 H 0.3119 0.2407 0.1185
N3_12 N 0.19542(20) 0.29009(14) 0.4099(3)
O1_9 O 0.14473(18) 0.23797(13) 0.6749(3)
O2_9 O 0.20006(21) 0.17315(16) 0.6779(3)
O3_7 O 0.18012(22) 0.39332(15) 0.6977(3)
C2_13 C 0.08706(16) 0.63418(16) 0.1363(4)
C3_13 C 0.11738(18) 0.63598(18) 0.2871(4)
N3_13 N 0.04324(14) 0.57200(14) 0.0766(3)
O1_10 O 0.09536(13) 0.57343(12) 0.3416(3)
O2_10 O 0.16018(16) 0.69358(13) 0.3446(3)
C2_14 C 0.36582(16) 0.45289(23) 0.1363(4)
C3_14 C 0.36402(18) 0.48141(25) 0.2871(4)
H1_8 H 0.557(2) 0.492(3) 0.455(2)
H2_11 H 0.553(2) 0.4588(26) 0.316(4)
N3_14 N 0.42800(14) 0.47125(20) 0.0766(3)
O1_11 O 0.42657(12) 0.52194(18) 0.3416(3)
O2_11 O 0.30642(13) 0.46661(21) 0.3446(3)
O3_8 O 0.54653(16) 0.48655(22) 0.3644(3)
C1_11 C 0.34316(16) 0.41067(23) 0.9167(4)
N2_11 N 0.30814(15) 0.37561(22) 0.7894(3)
H3_11 H 0.3319 0.3742 0.7130
H4_11 H 0.2621 0.3548 0.7852
C2_15 C 0.54711(23) 0.91294(16) 0.1363(4)
C3_15 C 0.51859(25) 0.88262(18) 0.2871(4)
N3_15 N 0.52875(20) 0.95676(14) 0.0766(3)
O1_12 O 0.47806(18) 0.90464(13) 0.3416(3)
O2_12 O 0.53339(21) 0.83982(16) 0.3446(3)
C1_12 C 0.40084(16) 0.32350(16) 0.5833(4)
C2_16 C 0.42040(16) 0.30084(16) 0.8029(4)
C3_16 C 0.45072(18) 0.30264(18) 0.9537(4)
H2_12 H 0.2388(16) 0.113(2) 0.982(4)
N2_12 N 0.40080(16) 0.35852(15) 0.4560(3)
H3_12 H 0.3756 0.3347 0.3796
H4_12 H 0.4260 0.4045 0.4518
N3_16 N 0.37658(14) 0.23866(14) 0.7432(3)
C1_13 C 0.67650(16) 0.07733(23) 0.5833(4)
C2_17 C 0.69916(16) 0.11955(23) 0.8029(4)
C3_17 C 0.69736(18) 0.14807(25) 0.9537(4)
H2_13 H 0.887(2) 0.1254(26) 0.982(4)
N2_13 N 0.64148(15) 0.04227(22) 0.4560(3)
H3_13 H 0.6653 0.0408 0.3796
H4_13 H 0.5955 0.0214 0.4518
N3_17 N 0.76134(14) 0.13791(20) 0.7432(3)
C1_14 C 0.92267(23) 0.59916(16) 0.5833(4)
C2_18 C 0.88045(23) 0.57960(16) 0.8029(4)
C3_18 C 0.85193(25) 0.54928(18) 0.9537(4)
H2_14 H 0.8746(26) 0.7612(16) 0.982(4)
N2_14 N 0.95773(22) 0.59920(16) 0.4560(3)
H3_14 H 0.9592 0.6244 0.3796
H4_14 H 0.9786 0.5740 0.4518
N3_18 N 0.86209(20) 0.62342(14) 0.7432(3)
H1_9 H 0.066(2) 0.557(2) 0.545(2)
H2_15 H 0.0946(16) 0.553(2) 0.684(4)
O3_9 O 0.05999(15) 0.54653(16) 0.6356(3)
N5_8 N 0.02978(14) 0.58544(13) 0.9324(3)
C1_15 C 0.06750(16) 0.65684(16) 0.9167(4)
N2_15 N 0.06746(16) 0.69186(15) 0.7894(3)
H3_15 H 0.0422 0.6681 0.7130
H4_15 H 0.0926 0.7379 0.7852
C1_16 C 0.93250(16) 0.34316(16) 0.0833(4)
N1_8 N 0.97022(14) 0.41456(13) 0.0676(3)
N2_16 N 0.93254(16) 0.30814(15) 0.2106(3)
H3_16 H 0.9578 0.3319 0.2870
H4_16 H 0.9074 0.2621 0.2148
H1_10 H 0.934(2) 0.443(2) 0.455(2)
H2_16 H 0.9054(16) 0.447(2) 0.316(4)
O3_10 O 0.94001(15) 0.45347(16) 0.3644(3)
C1_17 C 0.41067(23) 0.06750(16) 0.0833(4)
N1_9 N 0.44435(19) 0.02978(14) 0.0676(3)
N2_17 N 0.37561(22) 0.06746(16) 0.2106(3)
H3_17 H 0.3742 0.0422 0.2870
H4_17 H 0.3548 0.0926 0.2148
H1_11 H 0.508(3) 0.066(2) 0.455(2)
H2_17 H 0.5412(26) 0.0946(16) 0.316(4)
O3_11 O 0.51345(22) 0.05999(15) 0.3644(3)
H1_12 H 0.492(3) 0.934(2) 0.545(2)
H2_18 H 0.4588(26) 0.9054(16) 0.684(4)
O3_12 O 0.48655(22) 0.94001(15) 0.6356(3)
N5_9 N 0.55565(19) 0.97022(14) 0.9324(3)
C1_18 C 0.58933(23) 0.93250(16) 0.9167(4)
N2_18 N 0.62439(22) 0.93254(16) 0.7894(3)
H3_18 H 0.6258 0.9578 0.7130
H4_18 H 0.6452 0.9074 0.7852
H1_13 H 0.732(2) 0.891(2) 0.879(2)
O1_13 O 0.57130(13) 0.75991(12) 0.9918(3)
O2_13 O 0.50648(16) 0.63976(13) 0.9888(3)
O3_13 O 0.72665(15) 0.87987(16) 0.9690(3)
H1_14 H 0.109(2) 0.842(3) 0.879(2)
O1_14 O 0.24009(12) 0.81140(18) 0.9918(3)
O2_14 O 0.36024(13) 0.86673(21) 0.9888(3)
O3_14 O 0.12013(16) 0.84679(22) 0.9690(3)
H1_15 H 0.158(3) 0.268(2) 0.879(2)
O1_15 O 0.18860(18) 0.42870(13) 0.9918(3)
O2_15 O 0.13327(21) 0.49352(16) 0.9888(3)
O3_15 O 0.15321(22) 0.27335(15) 0.9690(3)
H1_16 H 0.268(2) 0.109(2) 0.121(2)
O1_16 O 0.42870(13) 0.24009(12) 0.0082(3)
O2_16 O 0.49352(16) 0.36024(13) 0.0112(3)
O3_16 O 0.27335(15) 0.12013(16) 0.0310(3)
H1_17 H 0.891(2) 0.158(3) 0.121(2)
O1_17 O 0.75991(12) 0.18860(18) 0.0082(3)
O2_17 O 0.63976(13) 0.13327(21) 0.0112(3)
O3_17 O 0.87987(16) 0.15321(22) 0.0310(3)
H1_18 H 0.842(3) 0.732(2) 0.121(2)
O1_18 O 0.81140(18) 0.57130(13) 0.0082(3)
O2_18 O 0.86673(21) 0.50648(16) 0.0112(3)
O3_18 O 0.84679(22) 0.72665(15) 0.0310(3)
loop_
_geom_bond_atom_site_label_1
_geom_bond_atom_site_label_2
_geom_bond_site_symmetry_1
_geom_bond_site_symmetry_2
Cu1 N3 1_555 1_555
C1 N1 1_555 1_555
C2 C3 1_555 1_555
C3 O1 1_555 1_555
H1 O3 1_555 1_555
H2 O3 1_555 1_555
N1 N3 1_555 1_555
N3 C2 1_555 1_555
O1 Cu1 1_555 1_555
O3 Cu1 1_555 1_555
Cu3 N1 1_555 1_555
N5 Cu1 1_555 1_555
N6 Cu1 1_555 1_555
H3 N2 1_555 1_555
H4 N2 1_555 1_555
Cu2 N4 1_555 1_555
H3_2 N2_2 1_555 1_555
H4_2 N2_2 1_555 1_555
Cu2_2 N4_2 1_555 1_555
Cu1_2 N3_2 1_555 1_555
C1_2 N1_2 1_555 1_555
C2_2 C3_2 1_555 1_555
C3_2 O1_2 1_555 1_555
H1_2 O3_2 1_555 1_555
H2_2 O3_2 1_555 1_555
N1_2 N3_2 1_555 1_555
N3_2 C2_2 1_555 1_555
O1_2 Cu1_2 1_555 1_555
O3_2 Cu1_2 1_555 1_555
Cu3_2 N1_2 1_555 1_555
N5_2 Cu1_2 1_555 1_555
N6_2 Cu1_2 1_555 1_555
Cu1_3 N3_3 1_555 1_555
C1_3 N1_3 1_555 1_555
C2_3 C3_3 1_555 1_555
C3_3 O1_3 1_555 1_555
H1_3 O3_3 1_555 1_555
H2_3 O3_3 1_555 1_555
N1_3 N3_3 1_555 1_555
N2_3 C1_3 1_555 1_555
H3_3 N2_3 1_555 1_555
H4_3 N2_3 1_555 1_555
N3_3 C2_3 1_555 1_555
N4_3 C1_3 1_555 1_555
O1_3 Cu1_3 1_555 1_555
O2_3 C3_3 1_555 1_555
O3_3 Cu1_3 1_555 1_555
Cu2_3 N4_3 1_555 1_555
Cu3_3 N1_3 1_555 1_555
N5_3 Cu1_3 1_555 1_555
N6_3 Cu1_3 1_555 1_555
C2_3 N4_3 1_555 1_555
Cu1_4 N3_4 1_555 1_555
C2_4 C3_4 1_555 1_555
C3_4 O1_4 1_555 1_555
N3_4 C2_4 1_555 1_555
O1_4 Cu1_4 1_555 1_555
O2_4 C3_4 1_555 1_555
Cu3_2 N4_4 1_555 1_555
N6_4 Cu1_4 1_555 1_555
C2_4 N4_4 1_555 1_555
C1_4 N1_4 1_555 1_555
N2_4 C1_4 1_555 1_555
H3_4 N2_4 1_555 1_555
H4_4 N2_4 1_555 1_555
Cu3_5 N1_4 1_555 1_555
Cu1_5 N3_5 1_555 1_555
C2_5 C3_5 1_555 1_555
C3_5 O1_5 1_555 1_555
H1_4 O3_4 1_555 1_555
H2_4 O3_4 1_555 1_555
N3_5 C2_5 1_555 1_555
O1_5 Cu1_5 1_555 1_555
O2_5 C3_5 1_555 1_555
O3_4 Cu1_5 1_555 1_555
Cu3_3 N4_5 1_555 1_555
N5_4 Cu1_5 1_555 1_555
N6_5 Cu1_5 1_555 1_555
C2_5 N4_5 1_555 1_555
Cu1_6 N3_6 1_555 1_555
C2_6 C3_6 1_555 1_555
C3_6 O1_6 1_555 1_555
N3_6 C2_6 1_555 1_555
O1_6 Cu1_6 1_555 1_555
O2_6 C3_6 1_555 1_555
Cu3 N4_6 1_555 1_555
N6_6 Cu1_6 1_555 1_555
C2_6 N4_6 1_555 1_555
Cu1_7 N3_7 1_555 1_555
C1_5 N1_5 1_555 1_555
C2_7 C3_7 1_555 1_555
N1_5 N3_7 1_555 1_555
N2_5 C1_5 1_555 1_555
H3_5 N2_5 1_555 1_555
H4_5 N2_5 1_555 1_555
N3_7 C2_7 1_555 1_555
N4_7 C1_5 1_555 1_555
Cu3_5 N4_7 1_555 1_555
Cu2_3 N1_5 1_555 1_555
N5_5 Cu1_7 1_555 1_555
N6_7 Cu1_7 1_555 1_555
C2_7 N4_7 1_555 1_555
Cu1_8 N3_8 1_555 1_555
C1_6 N1_6 1_555 1_555
C2_8 C3_8 1_555 1_555
N1_6 N3_8 1_555 1_555
N2_6 C1_6 1_555 1_555
H3_6 N2_6 1_555 1_555
H4_6 N2_6 1_555 1_555
N3_8 C2_8 1_555 1_555
N4_8 C1_6 1_555 1_555
Cu3_6 N4_8 1_555 1_555
Cu2 N1_6 1_555 1_555
N5_6 Cu1_8 1_555 1_555
N6_8 Cu1_8 1_555 1_555
C2_8 N4_8 1_555 1_555
Cu1_9 N3_9 1_555 1_555
C1_7 N1_7 1_555 1_555
C2_9 C3_9 1_555 1_555
N1_7 N3_9 1_555 1_555
N2_7 C1_7 1_555 1_555
H3_7 N2_7 1_555 1_555
H4_7 N2_7 1_555 1_555
N3_9 C2_9 1_555 1_555
N4_9 C1_7 1_555 1_555
Cu3_4 N4_9 1_555 1_555
Cu2_2 N1_7 1_555 1_555
N5_7 Cu1_9 1_555 1_555
N6_9 Cu1_9 1_555 1_555
C2_9 N4_9 1_555 1_555
H3_8 N2_8 1_555 1_555
H4_8 N2_8 1_555 1_555
Cu2_3 N3_10 1_555 1_555
C1_8 N5_5 1_555 1_555
C2_10 C3_10 1_555 1_555
C3_10 O1_7 1_555 1_555
H1_5 O3_5 1_555 1_555
H2_8 O3_5 1_555 1_555
N5_5 N3_10 1_555 1_555
N3_10 C2_10 1_555 1_555
O1_7 Cu2_3 1_555 1_555
O3_5 Cu2_3 1_555 1_555
Cu2 N3_11 1_555 1_555
C1_9 N5_6 1_555 1_555
C2_11 C3_11 1_555 1_555
C3_11 O1_8 1_555 1_555
H1_6 O3_6 1_555 1_555
H2_9 O3_6 1_555 1_555
N5_6 N3_11 1_555 1_555
N3_11 C2_11 1_555 1_555
O1_8 Cu2 1_555 1_555
O3_6 Cu2 1_555 1_555
H3_9 N2_9 1_555 1_555
H4_9 N2_9 1_555 1_555
Cu2_2 N3_12 1_555 1_555
C1_10 N5_7 1_555 1_555
C2_12 C3_12 1_555 1_555
C3_12 O1_9 1_555 1_555
H1_7 O3_7 1_555 1_555
H2_10 O3_7 1_555 1_555
N5_7 N3_12 1_555 1_555
N2_10 C1_10 1_555 1_555
H3_10 N2_10 1_555 1_555
H4_10 N2_10 1_555 1_555
N3_12 C2_12 1_555 1_555
N6 C1_10 1_555 1_555
O1_9 Cu2_2 1_555 1_555
O2_9 C3_12 1_555 1_555
O3_7 Cu2_2 1_555 1_555
C2_12 N6 1_555 1_555
Cu3_4 N3_13 1_555 1_555
C2_13 C3_13 1_555 1_555
C3_13 O1_10 1_555 1_555
N3_13 C2_13 1_555 1_555
O1_10 Cu3_4 1_555 1_555
O2_10 C3_13 1_555 1_555
C2_13 N6_8 1_555 1_555
Cu3_5 N3_14 1_555 1_555
C2_14 C3_14 1_555 1_555
C3_14 O1_11 1_555 1_555
H1_8 O3_8 1_555 1_555
H2_11 O3_8 1_555 1_555
N3_14 C2_14 1_555 1_555
O1_11 Cu3_5 1_555 1_555
O2_11 C3_14 1_555 1_555
O3_8 Cu3_5 1_555 1_555
C2_14 N6_9 1_555 1_555
C1_11 N5_4 1_555 1_555
N2_11 C1_11 1_555 1_555
H3_11 N2_11 1_555 1_555
H4_11 N2_11 1_555 1_555
Cu3_6 N3_15 1_555 1_555
C2_15 C3_15 1_555 1_555
C3_15 O1_12 1_555 1_555
N3_15 C2_15 1_555 1_555
O1_12 Cu3_6 1_555 1_555
O2_12 C3_15 1_555 1_555
C2_15 N6_7 1_555 1_555
Cu3 N3_16 1_555 1_555
C1_12 N5 1_555 1_555
C2_16 C3_16 1_555 1_555
N5 N3_16 1_555 1_555
N2_12 C1_12 1_555 1_555
H3_12 N2_12 1_555 1_555
H4_12 N2_12 1_555 1_555
N3_16 C2_16 1_555 1_555
N6_5 C1_12 1_555 1_555
C2_16 N6_5 1_555 1_555
Cu3_2 N3_17 1_555 1_555
C1_13 N5_2 1_555 1_555
C2_17 C3_17 1_555 1_555
N5_2 N3_17 1_555 1_555
N2_13 C1_13 1_555 1_555
H3_13 N2_13 1_555 1_555
H4_13 N2_13 1_555 1_555
N3_17 C2_17 1_555 1_555
N6_6 C1_13 1_555 1_555
C2_17 N6_6 1_555 1_555
Cu3_3 N3_18 1_555 1_555
C1_14 N5_3 1_555 1_555
C2_18 C3_18 1_555 1_555
N5_3 N3_18 1_555 1_555
N2_14 C1_14 1_555 1_555
H3_14 N2_14 1_555 1_555
H4_14 N2_14 1_555 1_555
N3_18 C2_18 1_555 1_555
N6_4 C1_14 1_555 1_555
C2_18 N6_4 1_555 1_555
H1_9 O3_9 1_555 1_555
H2_15 O3_9 1_555 1_555
C1_15 N5_8 1_555 1_555
N2_15 C1_15 1_555 1_555
H3_15 N2_15 1_555 1_555
H4_15 N2_15 1_555 1_555
C1_16 N1_8 1_555 1_555
N2_16 C1_16 1_555 1_555
H3_16 N2_16 1_555 1_555
H4_16 N2_16 1_555 1_555
H1_10 O3_10 1_555 1_555
H2_16 O3_10 1_555 1_555
C1_17 N1_9 1_555 1_555
N2_17 C1_17 1_555 1_555
H3_17 N2_17 1_555 1_555
H4_17 N2_17 1_555 1_555
H1_11 O3_11 1_555 1_555
H2_17 O3_11 1_555 1_555
H1_12 O3_12 1_555 1_555
H2_18 O3_12 1_555 1_555
C1_18 N5_9 1_555 1_555
N2_18 C1_18 1_555 1_555
H3_18 N2_18 1_555 1_555
H4_18 N2_18 1_555 1_555
H1_13 O3_13 1_555 1_555
H1_14 O3_14 1_555 1_555
H1_15 O3_15 1_555 1_555
H1_16 O3_16 1_555 1_555
H1_17 O3_17 1_555 1_555
H1_18 O3_18 1_555 1_555

#END
