
###############################################################################
#
# This file contains modified crystal structure data generated from the
# MOF subset of the Cambridge Structural Database (CSD) v543 
# hosted by the Cambridge Crystallographic Data Centre (CCDC).
#
# This work is licensed under the Creative Commons
# Attribution-NonCommercial-ShareAlike 4.0 International License.
# To view a copy of this license, visit
# http://creativecommons.org/licenses/by-nc-sa/4.0/
# or send a letter to
# Creative Commons, PO Box 1866, Mountain View, CA 94042, USA.
#
# CIF created using the CSD Python API on 29 September 2022
# The structure has been converted into the P1 space group
# The structure has a 3D framework
# The original CSD entry JOFLUO is in the monoclinic crystal system
# The framework has been calculated to contain at least 10.0% void space
# The void calculation uses a probe of radius 1.32A, grid spacing 0.4
#
###############################################################################

data_JOFLUO
_chemical_formula_moiety         '(C160 H144 Cd8 N8 O38)n'
_symmetry_cell_setting           triclinic
_symmetry_space_group_name_H-M   'P 1'
_symmetry_Int_Tables_number      1
_space_group_name_Hall           'P 1'
loop_
_symmetry_equiv_pos_site_id
_symmetry_equiv_pos_as_xyz
1 x,y,z
_cell_length_a                   19.276(4)
_cell_length_b                   13.237(3)
_cell_length_c                   19.747(4)
_cell_angle_alpha                90
_cell_angle_beta                 95.04(3)
_cell_angle_gamma                90
_cell_volume                     5019.09
loop_
_atom_site_label
_atom_site_type_symbol
_atom_site_fract_x
_atom_site_fract_y
_atom_site_fract_z
O7 O 0.2726(4) 0.3494(5) 0.1253(4)
O8 O 0.2528(5) 0.5020(5) 0.1616(4)
C36 C 0.3576(5) 0.4259(8) 0.0257(5)
H34 H 0.348879 0.355273 0.025475
C37 C 0.3290(5) 0.4835(7) 0.0731(4)
C38 C 0.3444(6) 0.5886(8) 0.0734(5)
H35 H 0.327031 0.631816 0.106358
C39 C 0.3847(5) 0.6268(8) 0.0256(5)
H36 H 0.394664 0.697057 0.026226
C40 C 0.2832(6) 0.4413(7) 0.1223(5)
Cd3 Cd 0.20124(4) 0.64582(5) 0.20342(4)
Cd8 Cd 0.19750(4) 0.36727(5) 0.21066(4)
Cd1 Cd 0.29876(4) 0.14582(5) 0.29658(4)
Cd2 Cd 0.69750(4) 0.13273(5) 0.71066(4)
O1 O 0.2813(4) 0.3433(5) 0.3030(3)
O2 O 0.2771(4) 0.2336(6) 0.3874(4)
O5 O 0.6131(4) 0.2269(6) 0.7464(5)
O6 O 0.6968(3) 0.3368(5) 0.7246(4)
O9 O 0.4021(7) 0.1067(14) 0.3735(6)
H1 H 0.404(3) 0.122(8) 0.4149(13)
H2 H 0.4415(7) 0.0846(19) 0.3655(17)
O10 O 0.6078(6) 0.1028(13) 0.6143(6)
H3 H 0.5646(10) 0.110(14) 0.615(3)
H4 H 0.6154(16) 0.084(2) 0.5750(7)
N1 N 0.1489(4) 0.6233(6) 0.5855(4)
N2 N 0.4070(4) 0.6214(6) 0.8572(4)
C1 C 0.1393(5) 0.7018(7) 0.6367(5)
H5 H 0.094356 0.690370 0.656326
H6 H 0.137046 0.768757 0.614338
C2 C 0.1965(5) 0.7022(7) 0.6926(5)
C3 C 0.2180(6) 0.6151(8) 0.7261(6)
H7 H 0.196542 0.553066 0.711896
C4 C 0.2685(6) 0.6136(8) 0.7789(5)
H8 H 0.280802 0.550730 0.799792
C5 C 0.3024(5) 0.6992(8) 0.8030(5)
C6 C 0.2812(7) 0.7902(7) 0.7685(7)
H9 H 0.302971 0.852265 0.782009
C7 C 0.2284(7) 0.7886(7) 0.7148(6)
H10 H 0.214578 0.850455 0.693258
C8 C 0.3561(5) 0.6993(8) 0.8612(5)
H11 H 0.379864 0.765686 0.863373
H12 H 0.333114 0.690742 0.903740
C9 C 0.2069(5) 0.6469(7) 0.5464(5)
H13 H 0.248344 0.662316 0.577898
H14 H 0.195513 0.708038 0.518706
C10 C 0.2245(5) 0.5603(7) 0.4992(5)
C11 C 0.2452(5) 0.5826(8) 0.4353(5)
H15 H 0.248444 0.651007 0.421440
C12 C 0.2612(6) 0.5061(7) 0.3918(5)
H16 H 0.274848 0.522420 0.348064
C13 C 0.2576(5) 0.4072(8) 0.4110(5)
C14 C 0.2389(5) 0.3824(8) 0.4762(5)
H17 H 0.236375 0.313765 0.489924
C15 C 0.2241(5) 0.4602(8) 0.5207(4)
H18 H 0.213835 0.444669 0.565679
C16 C 0.2719(6) 0.3230(8) 0.3642(5)
C17 C 0.0829(5) 0.6086(8) 0.5398(4)
H19 H 0.066394 0.674457 0.520869
H20 H 0.091974 0.563632 0.501485
C18 C 0.0287(4) 0.5629(7) 0.5798(4)
C19 C 0.0332(6) 0.4624(8) 0.6012(6)
H21 H 0.070252 0.421678 0.587821
C25 C 0.4493(5) 0.6420(8) 0.8002(5)
H25 H 0.477866 0.703119 0.810712
H26 H 0.417932 0.656256 0.758895
C26 C 0.4975(5) 0.5542(8) 0.7855(5)
C27 C 0.4756(5) 0.4536(7) 0.7912(5)
H27 H 0.430318 0.438590 0.804011
C28 C 0.5211(5) 0.3769(8) 0.7780(5)
H28 H 0.507935 0.308292 0.782982
C29 C 0.5867(5) 0.4006(8) 0.7571(5)
C30 C 0.6074(6) 0.4972(7) 0.7496(6)
H29 H 0.652046 0.511574 0.735138
C31 C 0.5613(6) 0.5771(7) 0.7637(5)
H30 H 0.574577 0.645458 0.758066
C32 C 0.6358(6) 0.3150(8) 0.7429(5)
C33 C 0.4521(5) 0.6147(8) 0.9209(5)
H31 H 0.468841 0.682911 0.934874
H32 H 0.493207 0.572214 0.913962
C34 C 0.4112(5) 0.5680(8) 0.9772(5)
C35 C 0.3982(5) 0.4643(8) 0.9784(5)
H33 H 0.417502 0.420734 0.946755
Cd5 Cd 0.79876(4) 0.35418(5) 0.79658(4)
O11 O 0.7813(4) 0.1567(5) 0.8030(3)
O12 O 0.3840(4) 0.1595(6) 0.2201(5)
O14 O 0.3413(4) 0.0106(5) 0.2351(4)
O15 O 0.1968(3) 0.1632(5) 0.2246(4)
O16 O 0.7726(4) 0.1506(5) 0.6253(4)
O17 O 0.2472(5) 0.0020(5) 0.3384(4)
O13 O 0.6587(4) 0.9894(5) 0.7649(4)
O18 O 0.7528(5) 0.9980(5) 0.6616(4)
O3 O 0.8840(4) 0.3405(6) 0.7201(5)
O4 O 0.8413(4) 0.4894(5) 0.7351(4)
C20 C 0.9860(6) 0.4211(8) 0.6407(6)
H22 H 0.990441 0.352363 0.654213
C21 C 0.9317(5) 0.4785(7) 0.6612(5)
C22 C 0.9234(5) 0.5756(8) 0.6381(5)
H23 H 0.884932 0.614754 0.649818
C23 C 0.9710(5) 0.6163(7) 0.5980(5)
H24 H 0.964193 0.683580 0.581975
C24 C 0.8819(5) 0.4324(8) 0.7085(5)
Cd6 Cd 0.80250(4) 0.63273(5) 0.78934(4)
N1_2 N 0.3511(4) 0.1233(6) 0.9145(4)
N2_2 N 0.0930(4) 0.1214(6) 0.6428(4)
C1_2 C 0.3607(5) 0.2018(7) 0.8633(5)
H5_2 H 0.405644 0.190370 0.843674
H6_2 H 0.362954 0.268757 0.885662
C2_2 C 0.3035(5) 0.2022(7) 0.8074(5)
C3_2 C 0.2820(6) 0.1151(8) 0.7739(6)
H7_2 H 0.303458 0.053066 0.788104
C4_2 C 0.2315(6) 0.1136(8) 0.7211(5)
H8_2 H 0.219198 0.050730 0.700208
C5_2 C 0.1976(5) 0.1992(8) 0.6970(5)
C6_2 C 0.2188(7) 0.2902(7) 0.7315(7)
H9_2 H 0.197029 0.352265 0.717991
C7_2 C 0.2716(7) 0.2886(7) 0.7852(6)
H10_2 H 0.285422 0.350455 0.806742
C8_2 C 0.1439(5) 0.1993(8) 0.6388(5)
H11_2 H 0.120136 0.265686 0.636627
H12_2 H 0.166886 0.190742 0.596260
C9_2 C 0.2931(5) 0.1469(7) 0.9536(5)
H13_2 H 0.251656 0.162316 0.922102
H14_2 H 0.304487 0.208038 0.981294
C17_2 C 0.4171(5) 0.1086(8) 0.9602(4)
H19_2 H 0.433606 0.174457 0.979131
H20_2 H 0.408026 0.063632 0.998515
C18_2 C 0.4713(4) 0.0629(7) 0.9202(4)
C22_2 C 0.5766(5) 0.0756(8) 0.8619(5)
H23_2 H 0.615068 0.114754 0.850182
C23_2 C 0.5290(5) 0.1163(7) 0.9020(5)
H24_2 H 0.535807 0.183580 0.918025
C25_2 C 0.0507(5) 0.1420(8) 0.6998(5)
H25_2 H 0.022134 0.203119 0.689288
H26_2 H 0.082068 0.156256 0.741105
C26_2 C 0.0025(5) 0.0542(8) 0.7145(5)
C33_2 C 0.0479(5) 0.1147(8) 0.5791(5)
H31_2 H 0.031159 0.182911 0.565126
H32_2 H 0.006793 0.072214 0.586038
C34_2 C 0.0888(5) 0.0680(8) 0.5228(5)
C38_2 C 0.1556(6) 0.0886(8) 0.4266(5)
H35_2 H 0.172969 0.131816 0.393642
C39_2 C 0.1153(5) 0.1268(8) 0.4744(5)
H36_2 H 0.105336 0.197057 0.473774
O1_2 O 0.2187(4) 0.8433(5) 0.1970(3)
O2_2 O 0.2229(4) 0.7336(6) 0.1126(4)
O9_2 O 0.0979(7) 0.6067(14) 0.1265(6)
H1_2 H 0.096(3) 0.622(8) 0.0851(13)
H2_2 H 0.0585(7) 0.5846(19) 0.1345(17)
C13_2 C 0.2424(5) 0.9072(8) 0.0890(5)
C14_2 C 0.2611(5) 0.8824(8) 0.0238(5)
H17_2 H 0.263625 0.813765 0.010076
C16_2 C 0.2281(6) 0.8230(8) 0.1358(5)
Cd7 Cd 0.30250(4) 0.86727(5) 0.28934(4)
O12_2 O 0.1160(4) 0.6595(6) 0.2799(5)
O14_2 O 0.1587(4) 0.5106(5) 0.2649(4)
O15_2 O 0.3032(3) 0.6632(5) 0.2754(4)
O3_2 O 0.6160(4) 0.8405(6) 0.7799(5)
O7_2 O 0.2274(4) 0.8494(5) 0.3747(4)
C15_2 C 0.2759(5) 0.9602(8) 0.9793(4)
H18_2 H 0.286165 0.944669 0.934321
C19_2 C 0.4668(6) 0.9624(8) 0.8988(6)
H21_2 H 0.429748 0.921678 0.912179
C20_2 C 0.5140(6) 0.9211(8) 0.8593(6)
H22_2 H 0.509559 0.852363 0.845787
C21_2 C 0.5683(5) 0.9785(7) 0.8388(5)
C24_2 C 0.6181(5) 0.9324(8) 0.7915(5)
C27_2 C 0.0244(5) 0.9536(7) 0.7088(5)
H27_2 H 0.069682 0.938590 0.695989
C35_2 C 0.1018(5) 0.9643(8) 0.5216(5)
H33_2 H 0.082498 0.920734 0.553245
C36_2 C 0.1424(5) 0.9259(8) 0.4743(5)
H34_2 H 0.151121 0.855273 0.474525
C37_2 C 0.1710(5) 0.9835(7) 0.4269(4)
C40_2 C 0.2168(6) 0.9413(7) 0.3777(5)
Cd4 Cd 0.70124(4) 0.85418(5) 0.70342(4)
O5_2 O 0.8869(4) 0.7269(6) 0.7536(5)
O6_2 O 0.8032(3) 0.8368(5) 0.7754(4)
O10_2 O 0.8922(6) 0.6028(13) 0.8857(6)
H3_2 H 0.9354(10) 0.610(14) 0.885(3)
H4_2 H 0.8846(16) 0.584(2) 0.9250(7)
C28_2 C 0.9789(5) 0.8769(8) 0.7220(5)
H28_2 H 0.992065 0.808292 0.717018
C29_2 C 0.9133(5) 0.9006(8) 0.7429(5)
C30_2 C 0.8926(6) 0.9972(7) 0.7504(6)
C32_2 C 0.8642(6) 0.8150(8) 0.7571(5)
O11_2 O 0.7187(4) 0.6567(5) 0.6970(3)
O16_2 O 0.7274(4) 0.6506(5) 0.8747(4)
O18_2 O 0.7472(5) 0.4980(5) 0.8384(4)
C20_3 C 0.0140(6) 0.5789(8) 0.3593(6)
H22_3 H 0.009559 0.647637 0.345787
C21_3 C 0.0683(5) 0.5215(7) 0.3388(5)
C22_3 C 0.0766(5) 0.4244(8) 0.3619(5)
H23_3 H 0.115068 0.385246 0.350182
C23_3 C 0.0290(5) 0.3837(7) 0.4020(5)
H24_3 H 0.035807 0.316420 0.418025
C24_3 C 0.1181(5) 0.5676(8) 0.2915(5)
O2_3 O 0.7229(4) 0.7664(6) 0.6126(4)
O5_3 O 0.3869(4) 0.7731(6) 0.2536(5)
O9_3 O 0.5979(7) 0.8933(14) 0.6265(6)
H1_3 H 0.596(3) 0.878(8) 0.5851(13)
H2_3 H 0.5585(7) 0.9154(19) 0.6345(17)
O10_3 O 0.3922(6) 0.8972(13) 0.3857(6)
H3_3 H 0.4354(10) 0.890(14) 0.385(3)
H4_3 H 0.3846(16) 0.916(2) 0.4250(7)
N1_3 N 0.8511(4) 0.3767(6) 0.4145(4)
N2_3 N 0.5930(4) 0.3786(6) 0.1428(4)
C1_3 C 0.8607(5) 0.2982(7) 0.3633(5)
H5_3 H 0.905644 0.309630 0.343674
H6_3 H 0.862954 0.231243 0.385662
C2_3 C 0.8035(5) 0.2978(7) 0.3074(5)
C3_3 C 0.7820(6) 0.3849(8) 0.2739(6)
H7_3 H 0.803458 0.446934 0.288104
C4_3 C 0.7315(6) 0.3864(8) 0.2211(5)
H8_3 H 0.719198 0.449270 0.200208
C5_3 C 0.6976(5) 0.3008(8) 0.1970(5)
C6_3 C 0.7188(7) 0.2098(7) 0.2315(7)
H9_3 H 0.697029 0.147735 0.217991
C7_3 C 0.7716(7) 0.2114(7) 0.2852(6)
H10_3 H 0.785422 0.149545 0.306742
C8_3 C 0.6439(5) 0.3007(8) 0.1388(5)
H11_3 H 0.620136 0.234314 0.136627
H12_3 H 0.666886 0.309258 0.096260
C9_3 C 0.7931(5) 0.3531(7) 0.4536(5)
H13_3 H 0.751656 0.337684 0.422102
H14_3 H 0.804487 0.291962 0.481294
C10_2 C 0.7755(5) 0.4397(7) 0.5008(5)
C11_2 C 0.7548(5) 0.4174(8) 0.5647(5)
H15_2 H 0.751556 0.348993 0.578560
C12_2 C 0.7388(6) 0.4939(7) 0.6082(5)
H16_2 H 0.725152 0.477580 0.651936
C13_3 C 0.7424(5) 0.5928(8) 0.5890(5)
C14_3 C 0.7611(5) 0.6176(8) 0.5238(5)
H17_3 H 0.763625 0.686235 0.510076
C15_3 C 0.7759(5) 0.5398(8) 0.4793(4)
H18_3 H 0.786165 0.555331 0.434321
C16_3 C 0.7281(6) 0.6770(8) 0.6358(5)
C17_3 C 0.9171(5) 0.3914(8) 0.4602(4)
H19_3 H 0.933606 0.325543 0.479131
H20_3 H 0.908026 0.436368 0.498515
C18_3 C 0.9713(4) 0.4371(7) 0.4202(4)
C19_3 C 0.9668(6) 0.5376(8) 0.3988(6)
H21_3 H 0.929748 0.578322 0.412179
C25_3 C 0.5507(5) 0.3580(8) 0.1998(5)
H25_3 H 0.522134 0.296881 0.189288
H26_3 H 0.582068 0.343744 0.241105
C26_3 C 0.5025(5) 0.4458(8) 0.2145(5)
C27_3 C 0.5244(5) 0.5464(7) 0.2088(5)
H27_3 H 0.569682 0.561410 0.195989
C28_3 C 0.4789(5) 0.6231(8) 0.2220(5)
H28_3 H 0.492065 0.691708 0.217018
C29_3 C 0.4133(5) 0.5994(8) 0.2429(5)
C30_3 C 0.3926(6) 0.5028(7) 0.2504(6)
H29_2 H 0.347954 0.488426 0.264862
C31_2 C 0.4387(6) 0.4229(7) 0.2363(5)
H30_2 H 0.425423 0.354542 0.241934
C32_3 C 0.3642(6) 0.6850(8) 0.2571(5)
C33_3 C 0.5479(5) 0.3853(8) 0.0791(5)
H31_3 H 0.531159 0.317089 0.065126
H32_3 H 0.506793 0.427786 0.086038
C34_3 C 0.5888(5) 0.4320(8) 0.0228(5)
C35_3 C 0.6018(5) 0.5357(8) 0.0216(5)
H33_3 H 0.582498 0.579266 0.053245
C36_3 C 0.6424(5) 0.5741(8) 0.9743(5)
H34_3 H 0.651121 0.644727 0.974525
C37_3 C 0.6710(5) 0.5165(7) 0.9269(4)
C38_3 C 0.6556(6) 0.4114(8) 0.9266(5)
H35_3 H 0.672969 0.368184 0.893642
C39_3 C 0.6153(5) 0.3732(8) 0.9744(5)
H36_3 H 0.605336 0.302943 0.973774
C40_3 C 0.7168(6) 0.5587(7) 0.8777(5)
O5_4 O 0.1131(4) 0.2731(6) 0.2464(5)
O10_4 O 0.1078(6) 0.3972(13) 0.1143(6)
H3_4 H 0.0646(10) 0.390(14) 0.115(3)
H4_4 H 0.1154(16) 0.416(2) 0.0750(7)
C28_4 C 0.0211(5) 0.1231(8) 0.2780(5)
H28_4 H 0.007935 0.191708 0.282982
C29_4 C 0.0867(5) 0.0994(8) 0.2571(5)
C30_4 C 0.1074(6) 0.0028(7) 0.2496(6)
C32_4 C 0.1358(6) 0.1850(8) 0.2429(5)
C15_4 C 0.7241(5) 0.0398(8) 0.0207(4)
H18_4 H 0.713835 0.055331 0.065679
C19_4 C 0.5332(6) 0.0376(8) 0.1012(6)
H21_4 H 0.570252 0.078322 0.087821
C20_4 C 0.4860(6) 0.0789(8) 0.1407(6)
H22_4 H 0.490441 0.147637 0.154213
C21_4 C 0.4317(5) 0.0215(7) 0.1612(5)
C24_4 C 0.3819(5) 0.0676(8) 0.2085(5)
C27_4 C 0.9756(5) 0.0464(7) 0.2912(5)
H27_4 H 0.930318 0.061410 0.304011
C35_4 C 0.8982(5) 0.0357(8) 0.4784(5)
H33_4 H 0.917502 0.079266 0.446755
C36_4 C 0.8576(5) 0.0741(8) 0.5257(5)
H34_4 H 0.848879 0.144727 0.525475
C37_4 C 0.8290(5) 0.0165(7) 0.5731(4)
C40_4 C 0.7832(6) 0.0587(7) 0.6223(5)
O2_4 O 0.7771(4) 0.2664(6) 0.8874(4)
O9_4 O 0.9021(7) 0.3933(14) 0.8735(6)
H1_4 H 0.904(3) 0.378(8) 0.9149(13)
H2_4 H 0.9415(7) 0.4154(19) 0.8655(17)
C13_4 C 0.7576(5) 0.0928(8) 0.9110(5)
C14_4 C 0.7389(5) 0.1176(8) 0.9762(5)
H17_4 H 0.736375 0.186235 0.989924
C16_4 C 0.7719(6) 0.1770(8) 0.8642(5)
N1_4 N 0.6489(4) 0.8767(6) 0.0855(4)
N2_4 N 0.9070(4) 0.8786(6) 0.3572(4)
C1_4 C 0.6393(5) 0.7982(7) 0.1367(5)
H5_4 H 0.594356 0.809630 0.156326
H6_4 H 0.637046 0.731243 0.114338
C2_4 C 0.6965(5) 0.7978(7) 0.1926(5)
C3_4 C 0.7180(6) 0.8849(8) 0.2261(6)
H7_4 H 0.696542 0.946934 0.211896
C4_4 C 0.7685(6) 0.8864(8) 0.2789(5)
H8_4 H 0.780802 0.949270 0.299792
C5_4 C 0.8024(5) 0.8008(8) 0.3030(5)
C6_4 C 0.7812(7) 0.7098(7) 0.2685(7)
H9_4 H 0.802971 0.647735 0.282009
C7_4 C 0.7284(7) 0.7114(7) 0.2148(6)
H10_4 H 0.714578 0.649545 0.193258
C8_4 C 0.8561(5) 0.8007(8) 0.3612(5)
H11_4 H 0.879864 0.734314 0.363373
H12_4 H 0.833114 0.809258 0.403740
C9_4 C 0.7069(5) 0.8531(7) 0.0464(5)
H13_4 H 0.748344 0.837684 0.077898
H14_4 H 0.695513 0.791962 0.018706
C17_4 C 0.5829(5) 0.8914(8) 0.0398(4)
H19_4 H 0.566394 0.825543 0.020869
H20_4 H 0.591974 0.936368 0.001485
C18_4 C 0.5287(4) 0.9371(7) 0.0798(4)
C22_4 C 0.4234(5) 0.9244(8) 0.1381(5)
H23_4 H 0.384932 0.885246 0.149818
C23_4 C 0.4710(5) 0.8837(7) 0.0980(5)
H24_4 H 0.464193 0.816420 0.081975
C25_4 C 0.9493(5) 0.8580(8) 0.3002(5)
H25_4 H 0.977866 0.796881 0.310712
H26_4 H 0.917932 0.843744 0.258895
C26_4 C 0.9975(5) 0.9458(8) 0.2855(5)
C33_4 C 0.9521(5) 0.8853(8) 0.4209(5)
H31_4 H 0.968841 0.817089 0.434874
H32_4 H 0.993207 0.927786 0.413962
C34_4 C 0.9112(5) 0.9320(8) 0.4772(5)
C38_4 C 0.8444(6) 0.9114(8) 0.5734(5)
H35_4 H 0.827031 0.868184 0.606358
C39_4 C 0.8847(5) 0.8732(8) 0.5256(5)
H36_4 H 0.894664 0.802943 0.526226
C10_3 C 0.2755(5) 0.0603(7) 0.0008(5)
C11_3 C 0.2548(5) 0.0826(8) 0.0647(5)
H15_3 H 0.251556 0.151007 0.078560
C12_3 C 0.2388(6) 0.0061(7) 0.1082(5)
H16_3 H 0.225152 0.022420 0.151936
H29_3 H 0.847954 0.011574 0.764862
C31_3 C 0.9387(6) 0.0771(7) 0.7363(5)
H30_3 H 0.925423 0.145458 0.741934
H29_4 H 0.152046 0.988426 0.235138
C31_4 C 0.0613(6) 0.9229(7) 0.2637(5)
H30_4 H 0.074577 0.854542 0.258066
C10_4 C 0.7245(5) 0.9397(7) 0.9992(5)
C11_4 C 0.7452(5) 0.9174(8) 0.9353(5)
H15_4 H 0.748444 0.848993 0.921440
C12_4 C 0.7612(6) 0.9939(7) 0.8918(5)
H16_4 H 0.774848 0.977580 0.848064
loop_
_geom_bond_atom_site_label_1
_geom_bond_atom_site_label_2
_geom_bond_site_symmetry_1
_geom_bond_site_symmetry_2
O7 C40 1_555 1_555
O8 C40 1_555 1_555
H34 C36 1_555 1_555
C37 C36 1_555 1_555
C38 C37 1_555 1_555
H35 C38 1_555 1_555
H36 C39 1_555 1_555
C40 C37 1_555 1_555
Cd3 O8 1_555 1_555
Cd8 O7 1_555 1_555
O8 Cd8 1_555 1_555
C38 C39 1_555 1_555
Cd1 O1 1_555 1_555
Cd2 O5 1_555 1_555
O1 C16 1_555 1_555
O2 Cd1 1_555 1_555
O5 C32 1_555 1_555
O6 Cd2 1_555 1_555
O9 Cd1 1_555 1_555
H1 O9 1_555 1_555
H2 O9 1_555 1_555
O10 Cd2 1_555 1_555
H3 O10 1_555 1_555
H4 O10 1_555 1_555
N1 C1 1_555 1_555
N2 C8 1_555 1_555
C1 H5 1_555 1_555
H6 C1 1_555 1_555
C2 C1 1_555 1_555
C3 C2 1_555 1_555
H7 C3 1_555 1_555
C4 C3 1_555 1_555
H8 C4 1_555 1_555
C5 C4 1_555 1_555
C6 C5 1_555 1_555
H9 C6 1_555 1_555
C7 C2 1_555 1_555
H10 C7 1_555 1_555
C8 C5 1_555 1_555
H11 C8 1_555 1_555
H12 C8 1_555 1_555
C9 N1 1_555 1_555
H13 C9 1_555 1_555
H14 C9 1_555 1_555
C10 C9 1_555 1_555
C11 C10 1_555 1_555
H15 C11 1_555 1_555
C12 C11 1_555 1_555
H16 C12 1_555 1_555
C13 C12 1_555 1_555
C14 C13 1_555 1_555
H17 C14 1_555 1_555
C15 C10 1_555 1_555
H18 C15 1_555 1_555
C16 O2 1_555 1_555
C17 N1 1_555 1_555
H19 C17 1_555 1_555
H20 C17 1_555 1_555
C18 C17 1_555 1_555
C19 C18 1_555 1_555
H21 C19 1_555 1_555
C25 N2 1_555 1_555
H25 C25 1_555 1_555
H26 C25 1_555 1_555
C26 C25 1_555 1_555
C27 C26 1_555 1_555
H27 C27 1_555 1_555
C28 C27 1_555 1_555
H28 C28 1_555 1_555
C29 C28 1_555 1_555
C30 C29 1_555 1_555
H29 C30 1_555 1_555
C31 C26 1_555 1_555
H30 C31 1_555 1_555
C32 O6 1_555 1_555
C33 N2 1_555 1_555
H31 C33 1_555 1_555
H32 C33 1_555 1_555
C34 C33 1_555 1_555
C35 C34 1_555 1_555
H33 C35 1_555 1_555
Cd5 O6 1_555 1_555
Cd8 O1 1_555 1_555
O11 Cd2 1_555 1_555
O12 Cd1 1_555 1_555
O14 Cd1 1_555 1_555
O15 Cd1 1_555 1_555
O16 Cd2 1_555 1_555
O17 Cd1 1_555 1_555
C6 C7 1_555 1_555
C13 C16 1_555 1_555
C14 C15 1_555 1_555
C29 C32 1_555 1_555
C30 C31 1_555 1_555
Cd5 O11 1_555 1_555
Cd8 O15 1_555 1_555
O3 C24 1_555 1_555
O4 C24 1_555 1_555
H22 C20 1_555 1_555
C21 C20 1_555 1_555
C22 C21 1_555 1_555
H23 C22 1_555 1_555
H24 C23 1_555 1_555
C24 C21 1_555 1_555
Cd5 O3 1_555 1_555
Cd6 O4 1_555 1_555
O4 Cd5 1_555 1_555
C22 C23 1_555 1_555
N1_2 C1_2 1_555 1_555
N2_2 C8_2 1_555 1_555
C1_2 H5_2 1_555 1_555
H6_2 C1_2 1_555 1_555
C2_2 C1_2 1_555 1_555
C3_2 C2_2 1_555 1_555
H7_2 C3_2 1_555 1_555
C4_2 C3_2 1_555 1_555
H8_2 C4_2 1_555 1_555
C5_2 C4_2 1_555 1_555
C6_2 C5_2 1_555 1_555
H9_2 C6_2 1_555 1_555
C7_2 C2_2 1_555 1_555
H10_2 C7_2 1_555 1_555
C8_2 C5_2 1_555 1_555
H11_2 C8_2 1_555 1_555
H12_2 C8_2 1_555 1_555
C9_2 N1_2 1_555 1_555
H13_2 C9_2 1_555 1_555
H14_2 C9_2 1_555 1_555
C17_2 N1_2 1_555 1_555
H19_2 C17_2 1_555 1_555
H20_2 C17_2 1_555 1_555
C18_2 C17_2 1_555 1_555
H23_2 C22_2 1_555 1_555
C23_2 C18_2 1_555 1_555
H24_2 C23_2 1_555 1_555
C25_2 N2_2 1_555 1_555
H25_2 C25_2 1_555 1_555
H26_2 C25_2 1_555 1_555
C26_2 C25_2 1_555 1_555
C33_2 N2_2 1_555 1_555
H31_2 C33_2 1_555 1_555
H32_2 C33_2 1_555 1_555
C34_2 C33_2 1_555 1_555
H35_2 C38_2 1_555 1_555
C39_2 C34_2 1_555 1_555
H36_2 C39_2 1_555 1_555
C6_2 C7_2 1_555 1_555
C22_2 C23_2 1_555 1_555
C38_2 C39_2 1_555 1_555
Cd3 O1_2 1_555 1_555
O1_2 C16_2 1_555 1_555
O2_2 Cd3 1_555 1_555
O9_2 Cd3 1_555 1_555
H1_2 O9_2 1_555 1_555
H2_2 O9_2 1_555 1_555
C14_2 C13_2 1_555 1_555
H17_2 C14_2 1_555 1_555
C16_2 O2_2 1_555 1_555
Cd7 O1_2 1_555 1_555
O12_2 Cd3 1_555 1_555
O14_2 Cd3 1_555 1_555
O15_2 Cd3 1_555 1_555
C13_2 C16_2 1_555 1_555
Cd7 O15_2 1_555 1_555
O3_2 C24_2 1_555 1_555
O13 C24_2 1_555 1_555
O7_2 C40_2 1_555 1_555
H18_2 C15_2 1_555 1_555
H21_2 C19_2 1_555 1_555
C20_2 C19_2 1_555 1_555
H22_2 C20_2 1_555 1_555
C21_2 C20_2 1_555 1_555
C24_2 C21_2 1_555 1_555
H27_2 C27_2 1_555 1_555
H33_2 C35_2 1_555 1_555
C36_2 C35_2 1_555 1_555
H34_2 C36_2 1_555 1_555
C37_2 C36_2 1_555 1_555
C40_2 C37_2 1_555 1_555
Cd4 O3_2 1_555 1_555
Cd7 O7_2 1_555 1_555
O13 Cd4 1_555 1_555
Cd6 O5_2 1_555 1_555
O5_2 C32_2 1_555 1_555
O6_2 Cd6 1_555 1_555
O10_2 Cd6 1_555 1_555
H3_2 O10_2 1_555 1_555
H4_2 O10_2 1_555 1_555
H28_2 C28_2 1_555 1_555
C29_2 C28_2 1_555 1_555
C30_2 C29_2 1_555 1_555
C32_2 O6_2 1_555 1_555
Cd4 O6_2 1_555 1_555
O11_2 Cd6 1_555 1_555
O16_2 Cd6 1_555 1_555
O18_2 Cd6 1_555 1_555
C29_2 C32_2 1_555 1_555
Cd4 O11_2 1_555 1_555
O12_2 C24_3 1_555 1_555
O14_2 C24_3 1_555 1_555
H22_3 C20_3 1_555 1_555
C21_3 C20_3 1_555 1_555
C22_3 C21_3 1_555 1_555
H23_3 C22_3 1_555 1_555
H24_3 C23_3 1_555 1_555
C24_3 C21_3 1_555 1_555
Cd8 O14_2 1_555 1_555
C22_3 C23_3 1_555 1_555
Cd7 O5_3 1_555 1_555
O11_2 C16_3 1_555 1_555
O2_3 Cd4 1_555 1_555
O5_3 C32_3 1_555 1_555
O9_3 Cd4 1_555 1_555
H1_3 O9_3 1_555 1_555
H2_3 O9_3 1_555 1_555
O10_3 Cd7 1_555 1_555
H3_3 O10_3 1_555 1_555
H4_3 O10_3 1_555 1_555
N1_3 C1_3 1_555 1_555
N2_3 C8_3 1_555 1_555
C1_3 H5_3 1_555 1_555
H6_3 C1_3 1_555 1_555
C2_3 C1_3 1_555 1_555
C3_3 C2_3 1_555 1_555
H7_3 C3_3 1_555 1_555
C4_3 C3_3 1_555 1_555
H8_3 C4_3 1_555 1_555
C5_3 C4_3 1_555 1_555
C6_3 C5_3 1_555 1_555
H9_3 C6_3 1_555 1_555
C7_3 C2_3 1_555 1_555
H10_3 C7_3 1_555 1_555
C8_3 C5_3 1_555 1_555
H11_3 C8_3 1_555 1_555
H12_3 C8_3 1_555 1_555
C9_3 N1_3 1_555 1_555
H13_3 C9_3 1_555 1_555
H14_3 C9_3 1_555 1_555
C10_2 C9_3 1_555 1_555
C11_2 C10_2 1_555 1_555
H15_2 C11_2 1_555 1_555
C12_2 C11_2 1_555 1_555
H16_2 C12_2 1_555 1_555
C13_3 C12_2 1_555 1_555
C14_3 C13_3 1_555 1_555
H17_3 C14_3 1_555 1_555
C15_3 C10_2 1_555 1_555
H18_3 C15_3 1_555 1_555
C16_3 O2_3 1_555 1_555
C17_3 N1_3 1_555 1_555
H19_3 C17_3 1_555 1_555
H20_3 C17_3 1_555 1_555
C18_3 C17_3 1_555 1_555
C19_3 C18_3 1_555 1_555
H21_3 C19_3 1_555 1_555
C25_3 N2_3 1_555 1_555
H25_3 C25_3 1_555 1_555
H26_3 C25_3 1_555 1_555
C26_3 C25_3 1_555 1_555
C27_3 C26_3 1_555 1_555
H27_3 C27_3 1_555 1_555
C28_3 C27_3 1_555 1_555
H28_3 C28_3 1_555 1_555
C29_3 C28_3 1_555 1_555
C30_3 C29_3 1_555 1_555
H29_2 C30_3 1_555 1_555
C31_2 C26_3 1_555 1_555
H30_2 C31_2 1_555 1_555
C32_3 O15_2 1_555 1_555
C33_3 N2_3 1_555 1_555
H31_3 C33_3 1_555 1_555
H32_3 C33_3 1_555 1_555
C34_3 C33_3 1_555 1_555
C35_3 C34_3 1_555 1_555
H33_3 C35_3 1_555 1_555
O18 Cd4 1_555 1_555
C6_3 C7_3 1_555 1_555
C13_3 C16_3 1_555 1_555
C14_3 C15_3 1_555 1_555
C29_3 C32_3 1_555 1_555
C30_3 C31_2 1_555 1_555
O16_2 C40_3 1_555 1_555
O18_2 C40_3 1_555 1_555
H34_3 C36_3 1_555 1_555
C37_3 C36_3 1_555 1_555
C38_3 C37_3 1_555 1_555
H35_3 C38_3 1_555 1_555
H36_3 C39_3 1_555 1_555
C40_3 C37_3 1_555 1_555
Cd5 O18_2 1_555 1_555
C38_3 C39_3 1_555 1_555
Cd8 O5_4 1_555 1_555
O5_4 C32_4 1_555 1_555
O10_4 Cd8 1_555 1_555
H3_4 O10_4 1_555 1_555
H4_4 O10_4 1_555 1_555
H28_4 C28_4 1_555 1_555
C29_4 C28_4 1_555 1_555
C30_4 C29_4 1_555 1_555
C32_4 O15 1_555 1_555
C29_4 C32_4 1_555 1_555
O12 C24_4 1_555 1_555
O14 C24_4 1_555 1_555
O16 C40_4 1_555 1_555
H18_4 C15_4 1_555 1_555
H21_4 C19_4 1_555 1_555
C20_4 C19_4 1_555 1_555
H22_4 C20_4 1_555 1_555
C21_4 C20_4 1_555 1_555
C24_4 C21_4 1_555 1_555
H27_4 C27_4 1_555 1_555
H33_4 C35_4 1_555 1_555
C36_4 C35_4 1_555 1_555
H34_4 C36_4 1_555 1_555
C37_4 C36_4 1_555 1_555
C40_4 C37_4 1_555 1_555
O11 C16_4 1_555 1_555
O2_4 Cd5 1_555 1_555
O9_4 Cd5 1_555 1_555
H1_4 O9_4 1_555 1_555
H2_4 O9_4 1_555 1_555
C14_4 C13_4 1_555 1_555
H17_4 C14_4 1_555 1_555
C16_4 O2_4 1_555 1_555
C13_4 C16_4 1_555 1_555
N1_4 C1_4 1_555 1_555
N2_4 C8_4 1_555 1_555
C1_4 H5_4 1_555 1_555
H6_4 C1_4 1_555 1_555
C2_4 C1_4 1_555 1_555
C3_4 C2_4 1_555 1_555
H7_4 C3_4 1_555 1_555
C4_4 C3_4 1_555 1_555
H8_4 C4_4 1_555 1_555
C5_4 C4_4 1_555 1_555
C6_4 C5_4 1_555 1_555
H9_4 C6_4 1_555 1_555
C7_4 C2_4 1_555 1_555
H10_4 C7_4 1_555 1_555
C8_4 C5_4 1_555 1_555
H11_4 C8_4 1_555 1_555
H12_4 C8_4 1_555 1_555
C9_4 N1_4 1_555 1_555
H13_4 C9_4 1_555 1_555
H14_4 C9_4 1_555 1_555
C17_4 N1_4 1_555 1_555
H19_4 C17_4 1_555 1_555
H20_4 C17_4 1_555 1_555
C18_4 C17_4 1_555 1_555
H23_4 C22_4 1_555 1_555
C23_4 C18_4 1_555 1_555
H24_4 C23_4 1_555 1_555
C25_4 N2_4 1_555 1_555
H25_4 C25_4 1_555 1_555
H26_4 C25_4 1_555 1_555
C26_4 C25_4 1_555 1_555
C33_4 N2_4 1_555 1_555
H31_4 C33_4 1_555 1_555
H32_4 C33_4 1_555 1_555
C34_4 C33_4 1_555 1_555
H35_4 C38_4 1_555 1_555
C39_4 C34_4 1_555 1_555
H36_4 C39_4 1_555 1_555
C6_4 C7_4 1_555 1_555
C22_4 C23_4 1_555 1_555
C38_4 C39_4 1_555 1_555
C11_3 C10_3 1_555 1_555
H15_3 C11_3 1_555 1_555
C12_3 C11_3 1_555 1_555
H16_3 C12_3 1_555 1_555
H30_3 C31_3 1_555 1_555
H30_4 C31_4 1_555 1_555
C11_4 C10_4 1_555 1_555
H15_4 C11_4 1_555 1_555
C12_4 C11_4 1_555 1_555
H16_4 C12_4 1_555 1_555

#END
