
###############################################################################
#
# This file contains modified crystal structure data generated from the
# MOF subset of the Cambridge Structural Database (CSD) v543 
# hosted by the Cambridge Crystallographic Data Centre (CCDC).
#
# This work is licensed under the Creative Commons
# Attribution-NonCommercial-ShareAlike 4.0 International License.
# To view a copy of this license, visit
# http://creativecommons.org/licenses/by-nc-sa/4.0/
# or send a letter to
# Creative Commons, PO Box 1866, Mountain View, CA 94042, USA.
#
# CIF created using the CSD Python API on 29 September 2022
# The structure has been converted into the P1 space group
# The structure has a 3D framework
# The original CSD entry JOGBIR is in the trigonal crystal system
# The original CSD entry JOGBIR is in a Sohncke space group
# The framework has been calculated to contain at least 10.0% void space
# The void calculation uses a probe of radius 1.32A, grid spacing 0.4
#
###############################################################################

data_JOGBIR
_chemical_formula_moiety         '(C33 H60 Br11 Cu11 N6)n'
_symmetry_cell_setting           triclinic
_symmetry_space_group_name_H-M   'P 1'
_symmetry_Int_Tables_number      1
_space_group_name_Hall           'P 1'
loop_
_symmetry_equiv_pos_site_id
_symmetry_equiv_pos_as_xyz
1 x,y,z
_cell_length_a                   15.2582(18)
_cell_length_b                   15.2582(18)
_cell_length_c                   6.6579(9)
_cell_angle_alpha                90
_cell_angle_beta                 90
_cell_angle_gamma                120
_cell_volume                     1342.38
loop_
_atom_site_label
_atom_site_type_symbol
_atom_site_fract_x
_atom_site_fract_y
_atom_site_fract_z
H38 H 0.2871 0.2885 0.0233
H40 H 0.3275 0.4049 0.0019
Cu7 Cu -0.0000 0.0000 0.1429(3)
Br1 Br 0.0000 0.0000 0.7784(2)
Br2 Br 0.17179(10) 0.10906(8) 0.28696(15)
C6 C 0.2608(10) 0.0351(8) 0.7474(19)
H11 H 0.2198 0.0670 0.7595
H12 H 0.2765 0.0239 0.8829
C7 C 0.3543(9) 0.1071(8) 0.6552(14)
H13 H 0.3897 0.0891 0.5665
C8 C 0.3848(9) 0.1998(9) 0.7071(18)
H14 H 0.3466 0.2140 0.7964
H15 H 0.4448 0.2521 0.6551
C13 C 0.1354(7) 0.2856(10) 0.8211(13)
H22 H 0.1134 0.2253 0.9021
H24 H 0.1338 0.3369 0.9044
C15 C 0.2435(7) 0.3237(10) 0.7469(16)
H26 H 0.2434 0.2702 0.6650
C17 C 0.2064(9) 0.3844(11) 0.4525(17)
H28 H 0.1996 0.3255 0.3830
H30 H 0.2291 0.4397 0.3573
C19 C 0.1077(6) 0.3616(10) 0.5461(18)
H32 H 0.1178 0.4146 0.6396
H34 H 0.0602 0.3566 0.4435
C21 C 0.3170(6) 0.3451(9) 0.9330(14)
H36 H 0.3807 0.3548 0.8859
C29 C 0.3921(6) 0.4589(9) 0.5560(13)
H52 H 0.4095 0.5131 0.4602
H54 H 0.4368 0.4864 0.6709
C31 C 0.4042(7) 0.3740(10) 0.4585(13)
H56 H 0.3466 0.3159 0.4141
C33 C 0.4959(6) 0.3808(9) 0.4349(13)
H58 H 0.5543 0.4383 0.4784
H60 H 0.5003 0.3280 0.3753
Cu6 Cu 0.05151(10) 0.13569(15) 0.4884(2)
Cu9 Cu 0.28821(9) 0.53063(13) 0.78351(19)
N4 N 0.0682(6) 0.2629(9) 0.6535(12)
N6 N 0.2797(6) 0.4132(8) 0.6239(11)
Br4 Br 0.37473(8) 0.83580(8) 0.01127(15)
H9 H 0.0014 0.7129 0.0233
H10 H 0.0774 0.6725 0.0019
Cu4 Cu 0.3333 0.6667 0.1269(3)
Br8 Br 0.3333 0.6667 0.5102(2)
Br9 Br 0.16420(8) 0.53893(11) 0.01127(15)
Br10 Br 0.46107(11) 0.62527(8) 0.01127(15)
Cu7_2 Cu 0.0000 1.0000 0.1429(3)
Br1_2 Br 0.0000 1.0000 0.7784(2)
C1 C 0.1502(7) 0.8646(7) 0.8211(13)
H1 H 0.1119 0.8866 0.9021
H2 H 0.2031 0.8662 0.9044
C2 C 0.0802(7) 0.7565(7) 0.7469(16)
H3 H 0.0268 0.7566 0.6650
C3 C 0.1780(7) 0.7936(9) 0.4525(17)
H4 H 0.1259 0.8004 0.3830
H5 H 0.2106 0.7709 0.3573
C4 C 0.2539(8) 0.8923(6) 0.5461(18)
H6 H 0.2968 0.8822 0.6396
H7 H 0.2964 0.9398 0.4435
C5 C 0.0281(7) 0.6830(6) 0.9330(14)
C9 C 0.0668(7) 0.6079(6) 0.5560(13)
H16 H 0.1036 0.5905 0.4602
H17 H 0.0496 0.5632 0.6709
Cu1 Cu 0.08418(11) 0.94849(10) 0.4884(2)
Cu3 Cu 0.24242(10) 0.71179(9) 0.78351(19)
N1 N 0.1947(7) 0.9318(6) 0.6535(12)
N2 N 0.1335(6) 0.7203(6) 0.6239(11)
Cu11 Cu 0.46937(13) 0.75758(10) 0.78351(19)
N7 N 0.5868(8) 0.8665(6) 0.6239(11)
H37 H 0.7115 0.9986 0.0233
H39 H 0.5951 0.9226 0.0019
Cu7_3 Cu 1.0000 1.0000 0.1429(3)
Br1_3 Br 1.0000 1.0000 0.7784(2)
H8 H 0.9741 0.6193 0.8859
C10 C 0.9698(7) 0.5958(7) 0.4585(13)
H18 H 0.9693 0.6534 0.4141
C11 C 0.8849(7) 0.5041(6) 0.4349(13)
H19 H 0.8840 0.4457 0.4784
H20 H 0.8277 0.4997 0.3753
Br6 Br 0.93727(13) 0.82821(10) 0.28696(15)
C12 C 0.7144(10) 0.8498(7) 0.8211(13)
H21 H 0.7747 0.8881 0.9021
H23 H 0.6631 0.7969 0.9044
C14 C 0.6763(10) 0.9198(7) 0.7469(16)
H25 H 0.7298 0.9732 0.6650
C16 C 0.6156(11) 0.8220(7) 0.4525(17)
H27 H 0.6745 0.8741 0.3830
H29 H 0.5603 0.7894 0.3573
C18 C 0.6384(10) 0.7461(8) 0.5461(18)
H31 H 0.5854 0.7032 0.6396
H33 H 0.6434 0.7036 0.4435
C20 C 0.6549(9) 0.9719(7) 0.9330(14)
C22 C 0.7743(13) 0.7392(10) 0.7474(19)
H41 H 0.8472 0.7802 0.7595
H43 H 0.7474 0.7235 0.8829
C24 C 0.7528(12) 0.6457(9) 0.6552(14)
H45 H 0.6994 0.6103 0.5665
C26 C 0.8150(13) 0.6152(9) 0.7071(18)
H47 H 0.8674 0.6534 0.7964
H49 H 0.8073 0.5552 0.6551
C28 C 0.5411(9) 0.9332(7) 0.5560(13)
H51 H 0.4869 0.8964 0.4602
H53 H 0.5136 0.9504 0.6709
Cu5 Cu 0.86431(15) 0.91582(11) 0.4884(2)
N3 N 0.7371(9) 0.8053(7) 0.6535(12)
Cu7_4 Cu 1.0000 0.0000 0.1429(3)
Br1_4 Br 1.0000 0.0000 0.7784(2)
Br7 Br 0.89094(8) 0.06273(13) 0.28696(15)
H35 H 0.6452 0.0259 0.8859
C23 C 0.9649(8) 0.2257(13) 0.7474(19)
H42 H 0.9330 0.1528 0.7595
H44 H 0.9761 0.2526 0.8829
C25 C 0.8929(8) 0.2472(12) 0.6552(14)
H46 H 0.9109 0.3006 0.5665
C27 C 0.8002(9) 0.1850(13) 0.7071(18)
H48 H 0.7860 0.1326 0.7964
H50 H 0.7479 0.1927 0.6551
C30 C 0.6260(10) 0.0302(7) 0.4585(13)
H55 H 0.6841 0.0307 0.4141
C32 C 0.6192(9) 0.1151(7) 0.4349(13)
H57 H 0.5617 0.1160 0.4784
H59 H 0.6720 0.1723 0.3753
loop_
_geom_bond_atom_site_label_1
_geom_bond_atom_site_label_2
_geom_bond_site_symmetry_1
_geom_bond_site_symmetry_2
C6 H11 1_555 1_555
H12 C6 1_555 1_555
C7 C6 1_555 1_555
H13 C7 1_555 1_555
C8 C7 1_555 1_555
H14 C8 1_555 1_555
H15 C8 1_555 1_555
Cu7 Br2 1_555 1_555
C13 H22 1_555 1_555
H24 C13 1_555 1_555
C15 C13 1_555 1_555
H26 C15 1_555 1_555
C17 H28 1_555 1_555
H30 C17 1_555 1_555
C19 C17 1_555 1_555
H32 C19 1_555 1_555
H34 C19 1_555 1_555
C21 C15 1_555 1_555
H36 C21 1_555 1_555
C29 H52 1_555 1_555
H54 C29 1_555 1_555
C31 C29 1_555 1_555
H56 C31 1_555 1_555
C33 C31 1_555 1_555
H58 C33 1_555 1_555
H60 C33 1_555 1_555
Cu6 Br1 1_555 1_555
Cu9 N6 1_555 1_555
N4 C13 1_555 1_555
N6 C15 1_555 1_555
Br2 Cu6 1_555 1_555
C17 N6 1_555 1_555
C19 N4 1_555 1_555
C29 N6 1_555 1_555
Cu6 N4 1_555 1_555
Cu4 Br4 1_555 1_555
Br8 Cu4 1_555 1_555
Br10 Cu4 1_555 1_555
Cu4 Br9 1_555 1_555
Br1_2 Cu1 1_555 1_555
Br8 Cu3 1_555 1_555
C1 H1 1_555 1_555
H2 C1 1_555 1_555
C2 C1 1_555 1_555
H3 C2 1_555 1_555
C3 H4 1_555 1_555
H5 C3 1_555 1_555
C4 C3 1_555 1_555
H6 C4 1_555 1_555
H7 C4 1_555 1_555
C5 C2 1_555 1_555
C9 H16 1_555 1_555
H17 C9 1_555 1_555
Cu1 N1 1_555 1_555
Cu3 N2 1_555 1_555
N1 C1 1_555 1_555
N2 C2 1_555 1_555
Cu9 Br8 1_555 1_555
Cu11 Br8 1_555 1_555
N7 Cu11 1_555 1_555
C3 N2 1_555 1_555
C4 N1 1_555 1_555
C9 N2 1_555 1_555
H18 C10 1_555 1_555
C11 C10 1_555 1_555
H19 C11 1_555 1_555
H20 C11 1_555 1_555
C12 H21 1_555 1_555
H23 C12 1_555 1_555
C14 C12 1_555 1_555
H25 C14 1_555 1_555
C16 H27 1_555 1_555
H29 C16 1_555 1_555
C18 C16 1_555 1_555
H31 C18 1_555 1_555
H33 C18 1_555 1_555
C20 C14 1_555 1_555
C22 H41 1_555 1_555
H43 C22 1_555 1_555
C24 C22 1_555 1_555
H45 C24 1_555 1_555
C26 C24 1_555 1_555
H47 C26 1_555 1_555
H49 C26 1_555 1_555
C28 H51 1_555 1_555
H53 C28 1_555 1_555
Cu5 Br1_3 1_555 1_555
N3 C12 1_555 1_555
N7 C14 1_555 1_555
Cu7_3 Br6 1_555 1_555
Br6 Cu5 1_555 1_555
C16 N7 1_555 1_555
C18 N3 1_555 1_555
C22 N3 1_555 1_555
C28 N7 1_555 1_555
Cu5 N3 1_555 1_555
Br7 Cu7_4 1_555 1_555
C23 H42 1_555 1_555
H44 C23 1_555 1_555
C25 C23 1_555 1_555
H46 C25 1_555 1_555
C27 C25 1_555 1_555
H48 C27 1_555 1_555
H50 C27 1_555 1_555
H55 C30 1_555 1_555
C32 C30 1_555 1_555
H57 C32 1_555 1_555
H59 C32 1_555 1_555

#END
