
###############################################################################
#
# This file contains modified crystal structure data generated from the
# MOF subset of the Cambridge Structural Database (CSD) v543 
# hosted by the Cambridge Crystallographic Data Centre (CCDC).
#
# This work is licensed under the Creative Commons
# Attribution-NonCommercial-ShareAlike 4.0 International License.
# To view a copy of this license, visit
# http://creativecommons.org/licenses/by-nc-sa/4.0/
# or send a letter to
# Creative Commons, PO Box 1866, Mountain View, CA 94042, USA.
#
# CIF created using the CSD Python API on 29 September 2022
# The structure has been converted into the P1 space group
# The structure has a 3D framework
# The original CSD entry JOGHUL is in the monoclinic crystal system
# The framework has been calculated to contain at least 10.0% void space
# The void calculation uses a probe of radius 1.32A, grid spacing 0.4
# H atom positions have been added when not included in the experimental data
#
###############################################################################

data_JOGHUL
_chemical_formula_moiety         '(C372 H240 Ce12 Cl48 O102 P12)n'
_symmetry_cell_setting           triclinic
_symmetry_space_group_name_H-M   'P 1'
_symmetry_Int_Tables_number      1
_space_group_name_Hall           'P 1'
loop_
_symmetry_equiv_pos_site_id
_symmetry_equiv_pos_as_xyz
1 x,y,z
_cell_length_a                   17.31600(10)
_cell_length_b                   36.7219(2)
_cell_length_c                   18.53590(10)
_cell_angle_alpha                90
_cell_angle_beta                 100.0320(10)
_cell_angle_gamma                90
_cell_volume                     11606.3
loop_
_atom_site_label
_atom_site_type_symbol
_atom_site_fract_x
_atom_site_fract_y
_atom_site_fract_z
O26 O 0.0047(3) 0.61764(15) 0.0465(3)
H60 H 0.0310148 0.641097 0.0396287
Ce1 Ce 0.47125(2) 0.51006(2) 0.16561(2)
Ce2 Ce 0.25728(2) 0.63648(2) 0.49392(2)
Ce3 Ce 0.88117(2) 0.62968(2) 0.09539(2)
Cl1 Cl 0.53478(8) 0.61962(3) 0.68880(7)
Cl2 Cl 0.24138(8) 0.51328(3) 0.65792(7)
Cl4 Cl 0.04363(8) 0.71842(3) 0.31499(7)
Cl5 Cl 0.74121(8) 0.49794(4) 0.05128(7)
Cl6 Cl 0.19034(8) 0.75630(4) 0.64547(7)
Cl7 Cl 0.45952(8) 0.53104(3) 0.45467(7)
Cl8 Cl 0.44619(9) 0.75101(4) 0.43750(8)
Cl9 Cl 0.65255(9) 0.62842(3) 0.24701(9)
Cl10 Cl 0.27056(11) 0.62736(4) 0.19838(7)
Cl11 Cl 0.17152(10) 0.45770(6) 0.14648(9)
Cl12 Cl 0.08883(14) 0.54791(4) 0.28619(11)
O1 O 0.3716(2) 0.63032(9) 0.59979(19)
O2 O 0.5899(2) 0.51157(10) 0.1026(2)
O3 O 0.4440(2) 0.45740(10) 0.07941(19)
O4 O 0.8357(2) 0.56445(10) 0.1039(2)
O5 O 0.5217(2) 0.54855(10) 0.7630(2)
O6 O 0.3354(2) 0.48438(11) 0.1484(2)
O7 O 0.4371(2) 0.53543(10) 0.0307(2)
H1 H 0.408792 0.554858 0.029694
H2 H 0.407104 0.520228 0.003492
O8 O 0.4594(2) 0.52437(10) 0.2925(2)
O9 O 0.3788(2) 0.56306(10) 0.1856(2)
O10 O 0.2377(2) 0.69296(10) 0.5627(2)
O12 O 0.1521(2) 0.66985(10) 0.4101(2)
O13 O 0.3999(2) 0.50485(10) 0.7513(2)
O14 O 0.5540(2) 0.56533(9) 0.1857(2)
O15 O 0.2581(2) 0.58135(10) 0.5729(2)
O16 O 0.3043(2) 0.81456(10) 0.6191(2)
O17 O 0.3603(3) 0.59533(11) 0.4648(2)
O18 O 0.2876(3) 0.63735(10) 0.3600(2)
O20 O 0.8048(2) 0.61535(10) 0.1943(2)
O22 O 0.3456(3) 0.69038(10) 0.4778(2)
O23 O 0.4006(2) 0.81445(10) 0.5235(2)
O24 O 0.1563(3) 0.39708(13) 0.0348(2)
O25 O 0.1658(3) 0.59811(11) 0.4049(3)
O27 O 0.1352(3) 0.63260(14) 0.5522(3)
H3 H 0.106735 0.651705 0.567889
H4 H 0.108809 0.611482 0.562343
C1 C 0.1103(3) 0.65419(14) 0.3580(3)
C2 C 0.0118(3) 0.65348(14) 0.2461(3)
C3 C 0.6446(3) 0.53375(13) 0.1257(3)
C4 C 0.0548(3) 0.67198(14) 0.3054(3)
C5 C 0.3850(3) 0.59996(13) 0.6312(3)
C6 C 0.3178(3) 0.57269(14) 0.6191(3)
C7 C 0.4623(3) 0.55773(14) 0.7173(3)
C8 C 0.3626(3) 0.40914(14) 0.0287(3)
C9 C 0.6789(4) 0.59155(14) 0.1977(3)
C10 C 0.3232(3) 0.54098(13) 0.6616(3)
C11 C 0.2218(3) 0.41103(17) 0.0517(3)
C12 C 0.7193(3) 0.53235(14) 0.1086(3)
C13 C 0.6232(3) 0.56528(14) 0.1736(3)
C14 C 0.4206(3) 0.55040(13) 0.3116(3)
C15 C 0.4550(3) 0.59003(13) 0.6758(3)
C16 C 0.0224(3) 0.61197(14) 0.2406(3)
C17 C 0.7525(3) 0.59173(14) 0.1772(3)
C18 C 0.7729(4) 0.56069(14) 0.1268(3)
C19 C 0.2862(4) 0.39542(14) 0.0125(3)
C20 C 0.4147(4) 0.55874(14) 0.3844(3)
C21 C 0.1192(4) 0.61279(15) 0.3538(3)
C22 C 0.3743(3) 0.57321(14) 0.2495(3)
C23 C 0.3923(3) 0.53222(13) 0.7107(3)
C24 C 0.2736(3) 0.72206(14) 0.5561(3)
C25 C 0.0770(4) 0.59431(15) 0.2942(4)
C26 C 0.3685(4) 0.58734(14) 0.4008(3)
C27 C 0.2616(3) 0.75480(14) 0.5910(3)
C28 C 0.3815(3) 0.44012(14) 0.0720(3)
C29 C 0.2433(4) 0.43935(17) 0.1026(3)
C30 C 0.3253(4) 0.61133(15) 0.3397(3)
C31 C 0.3165(3) 0.45586(16) 0.1107(3)
C32 C 0.3078(3) 0.78548(14) 0.5844(3)
C33 C 0.3370(3) 0.72059(14) 0.5073(3)
C34 C 0.3785(3) 0.75218(14) 0.4969(3)
C35 C 0.3669(3) 0.78497(15) 0.5317(3)
C36 C 0.3278(4) 0.60221(15) 0.2668(3)
Ce4 Ce 0.52875(2) 0.48994(2) 0.83439(2)
Ce7 Ce 0.38117(2) 0.87032(2) 0.59539(2)
O28 O 0.4783(2) 0.45145(10) 0.2370(2)
O29 O 0.9623(2) 0.66754(10) 0.1956(2)
O30 O 0.6001(2) 0.49515(10) 0.2487(2)
O31 O 0.8043(2) 0.68544(10) 0.1191(2)
O32 O 0.7363(3) 0.62859(10) 0.0346(2)
O33 O 0.9805(3) 0.59677(11) 0.1879(2)
O34 O 0.9006(2) 0.68555(10) 0.0235(2)
Cl3 Cl 0.43418(8) 0.39182(3) 0.98364(7)
O19 O 0.2637(3) 0.37141(10) 0.9654(2)
Ce6 Ce 0.11883(2) 0.37032(2) 0.90461(2)
O35 O 0.8437(3) 0.60292(13) 0.9652(2)
H59 H 0.991839 0.604827 0.998739
Ce1_2 Ce 0.02875(2) 0.01006(2) 0.33439(2)
Ce2_2 Ce 0.24272(2) 0.13648(2) 0.00608(2)
Cl4_2 Cl 0.45637(8) 0.21842(3) 0.18501(7)
Cl7_2 Cl 0.04048(8) 0.03104(3) 0.04533(7)
Cl8_2 Cl 0.05381(9) 0.25101(4) 0.06250(8)
Cl10_2 Cl 0.22944(11) 0.12736(4) 0.30162(7)
Cl12_2 Cl 0.41117(14) 0.04791(4) 0.21381(11)
O7_2 O 0.0629(2) 0.03543(10) 0.4693(2)
H1_2 H 0.091208 0.054858 0.470306
H2_2 H 0.092896 0.020228 0.496508
O8_2 O 0.0406(2) 0.02437(10) 0.2075(2)
O9_2 O 0.1212(2) 0.06306(10) 0.3144(2)
O11 O 0.5377(2) 0.16754(10) 0.3044(2)
O12_2 O 0.3479(2) 0.16985(10) 0.0899(2)
O17_2 O 0.1397(3) 0.09533(11) 0.0352(2)
O18_2 O 0.2124(3) 0.13735(10) 0.1400(2)
O21 O 0.5195(3) 0.09677(11) 0.3121(2)
O22_2 O 0.1544(3) 0.19038(10) 0.0222(2)
O25_2 O 0.3342(3) 0.09811(11) 0.0951(3)
C1_2 C 0.3897(3) 0.15419(14) 0.1420(3)
C2_2 C 0.4882(3) 0.15348(14) 0.2539(3)
C4_2 C 0.4452(3) 0.17198(14) 0.1946(3)
C14_2 C 0.0794(3) 0.05040(13) 0.1884(3)
C16_2 C 0.4776(3) 0.11197(14) 0.2594(3)
C20_2 C 0.0853(4) 0.05874(14) 0.1156(3)
C21_2 C 0.3808(4) 0.11279(15) 0.1462(3)
C22_2 C 0.1257(3) 0.07321(14) 0.2505(3)
C25_2 C 0.4230(4) 0.09431(15) 0.2058(4)
C26_2 C 0.1315(4) 0.08734(14) 0.0992(3)
C30_2 C 0.1747(4) 0.11133(15) 0.1603(3)
C34_2 C 0.1215(3) 0.25218(14) 0.0031(3)
C36_2 C 0.1722(4) 0.10221(15) 0.2332(3)
Ce5 Ce 0.61883(2) 0.12968(2) 0.40461(2)
Cl2_2 Cl 0.25862(8) 0.01328(3) 0.84208(7)
Cl6_2 Cl 0.30966(8) 0.25630(4) 0.85453(7)
O1_2 O 0.1284(2) 0.13032(9) 0.90021(19)
O10_2 O 0.2623(2) 0.19296(10) 0.9373(2)
O13_2 O 0.1001(2) 0.00485(10) 0.7487(2)
O15_2 O 0.2419(2) 0.08135(10) 0.9271(2)
O16_2 O 0.1957(2) 0.31456(10) 0.8809(2)
O23_2 O 0.0994(2) 0.31445(10) 0.9765(2)
O27_2 O 0.3648(3) 0.13260(14) 0.9478(3)
H3_2 H 0.393265 0.151705 0.932111
H4_2 H 0.391191 0.111482 0.937657
C5_2 C 0.1150(3) 0.09996(13) 0.8688(3)
C6_2 C 0.1822(3) 0.07269(14) 0.8809(3)
C7_2 C 0.0377(3) 0.05773(14) 0.7827(3)
C10_2 C 0.1768(3) 0.04098(13) 0.8384(3)
C15_2 C 0.0450(3) 0.09003(13) 0.8242(3)
C23_2 C 0.1077(3) 0.03222(13) 0.7893(3)
C24_2 C 0.2264(3) 0.22206(14) 0.9439(3)
C27_2 C 0.2384(3) 0.25480(14) 0.9090(3)
C32_2 C 0.1922(3) 0.28548(14) 0.9156(3)
C33_2 C 0.1630(3) 0.22059(14) 0.9927(3)
C35_2 C 0.1331(3) 0.28497(15) 0.9683(3)
Cl3_2 Cl 0.06582(8) 0.89182(3) 0.51636(7)
Cl11_2 Cl 0.32848(10) 0.95770(6) 0.35352(9)
O3_2 O 0.0560(2) 0.95740(10) 0.42059(19)
O6_2 O 0.1646(2) 0.98438(11) 0.3516(2)
O19_2 O 0.2363(3) 0.87141(10) 0.5346(2)
O24_2 O 0.3437(3) 0.89708(13) 0.4652(2)
C8_2 C 0.1374(3) 0.90914(14) 0.4713(3)
C11_2 C 0.2782(3) 0.91103(17) 0.4483(3)
C19_2 C 0.2138(4) 0.89542(14) 0.4875(3)
C28_2 C 0.1185(3) 0.94012(14) 0.4280(3)
C29_2 C 0.2567(4) 0.93935(17) 0.3974(3)
C31_2 C 0.1835(3) 0.95586(16) 0.3893(3)
O28_2 O 0.0217(2) 0.95145(10) 0.2630(2)
Cl9_2 Cl 0.84745(9) 0.12842(3) 0.25299(9)
O2_2 O 0.9101(2) 0.01157(10) 0.3974(2)
O4_2 O 0.6643(2) 0.06445(10) 0.3961(2)
O14_2 O 0.9460(2) 0.06533(9) 0.3143(2)
O20_2 O 0.6952(2) 0.11535(10) 0.3057(2)
O26_2 O 0.4953(3) 0.11764(15) 0.4535(3)
C3_2 C 0.8554(3) 0.03375(13) 0.3743(3)
C9_2 C 0.8211(4) 0.09155(14) 0.3023(3)
C12_2 C 0.7807(3) 0.03235(14) 0.3914(3)
C13_2 C 0.8768(3) 0.06528(14) 0.3264(3)
C17_2 C 0.7475(3) 0.09173(14) 0.3228(3)
C18_2 C 0.7271(4) 0.06069(14) 0.3732(3)
O31_2 O 0.6957(2) 0.18544(10) 0.3809(2)
O32_2 O 0.7637(3) 0.12859(10) 0.4654(2)
O34_2 O 0.5994(2) 0.18555(10) 0.4765(2)
O35_2 O 0.6563(3) 0.10292(13) 0.5348(2)
H59_2 H 0.508161 0.104827 0.501261
H60_2 H 0.468985 0.141097 0.460371
Cl1_2 Cl 0.96522(8) 0.11962(3) 0.81120(7)
O5_2 O 0.9783(2) 0.04855(10) 0.7370(2)
Cl5_2 Cl 0.75879(8) 0.99794(4) 0.44872(7)
O30_2 O 0.8999(2) 0.99515(10) 0.2513(2)
Ce4_2 Ce 0.97125(2) 0.98994(2) 0.66561(2)
O11_2 O 0.0377(2) 0.33246(10) 0.8044(2)
O21_2 O 0.0195(3) 0.40323(11) 0.8121(2)
Cl3_3 Cl 0.56582(8) 0.60818(3) 0.01636(7)
H59_3 H 0.00816097 0.395173 0.00126135
Ce2_3 Ce 0.74272(2) 0.36352(2) 0.50608(2)
Cl1_3 Cl 0.46522(8) 0.38038(3) 0.31120(7)
Cl2_3 Cl 0.75862(8) 0.48672(3) 0.34208(7)
Cl4_3 Cl 0.95637(8) 0.28158(3) 0.68501(7)
Cl5_3 Cl 0.25879(8) 0.50206(4) 0.94872(7)
Cl6_3 Cl 0.80966(8) 0.24370(4) 0.35453(7)
Cl7_3 Cl 0.54048(8) 0.46896(3) 0.54533(7)
Cl8_3 Cl 0.55381(9) 0.24899(4) 0.56250(8)
Cl9_3 Cl 0.34745(9) 0.37158(3) 0.75299(9)
Cl10_3 Cl 0.72944(11) 0.37264(4) 0.80162(7)
Cl11_3 Cl 0.82848(10) 0.54230(6) 0.85352(9)
Cl12_3 Cl 0.91117(14) 0.45209(4) 0.71381(11)
O1_3 O 0.6284(2) 0.36968(9) 0.40021(19)
O2_3 O 0.4101(2) 0.48843(10) 0.8974(2)
O3_3 O 0.5560(2) 0.54260(10) 0.92059(19)
O4_3 O 0.1643(2) 0.43555(10) 0.8961(2)
O6_3 O 0.6646(2) 0.51562(11) 0.8516(2)
O7_3 O 0.5629(2) 0.46457(10) 0.9693(2)
H1_3 H 0.591208 0.445142 0.970306
H2_3 H 0.592896 0.479772 0.996508
O8_3 O 0.5406(2) 0.47563(10) 0.7075(2)
O9_3 O 0.6212(2) 0.43694(10) 0.8144(2)
O10_3 O 0.7623(2) 0.30704(10) 0.4373(2)
O12_3 O 0.8479(2) 0.33015(10) 0.5899(2)
O14_3 O 0.4460(2) 0.43467(9) 0.8143(2)
O15_3 O 0.7419(2) 0.41865(10) 0.4271(2)
O17_3 O 0.6397(3) 0.40467(11) 0.5352(2)
O18_3 O 0.7124(3) 0.36265(10) 0.6400(2)
O20_3 O 0.1952(2) 0.38465(10) 0.8057(2)
O22_3 O 0.6544(3) 0.30962(10) 0.5222(2)
O25_3 O 0.8342(3) 0.40189(11) 0.5951(3)
O27_3 O 0.8648(3) 0.36740(14) 0.4478(3)
H3_3 H 0.893265 0.348295 0.432111
H4_3 H 0.891191 0.388518 0.437657
C1_3 C 0.8897(3) 0.34581(14) 0.6420(3)
C2_3 C 0.9882(3) 0.34652(14) 0.7539(3)
C3_3 C 0.3554(3) 0.46625(13) 0.8743(3)
C4_3 C 0.9452(3) 0.32802(14) 0.6946(3)
C5_3 C 0.6150(3) 0.40004(13) 0.3688(3)
C6_3 C 0.6822(3) 0.42731(14) 0.3809(3)
C7_3 C 0.5377(3) 0.44227(14) 0.2827(3)
C8_3 C 0.6374(3) 0.59086(14) 0.9713(3)
C9_3 C 0.3211(4) 0.40845(14) 0.8023(3)
C10_3 C 0.6768(3) 0.45902(13) 0.3384(3)
C11_3 C 0.7782(3) 0.58897(17) 0.9483(3)
C12_3 C 0.2807(3) 0.46765(14) 0.8914(3)
C13_3 C 0.3768(3) 0.43472(14) 0.8264(3)
C14_3 C 0.5794(3) 0.44960(13) 0.6884(3)
C15_3 C 0.5450(3) 0.40997(13) 0.3242(3)
C16_3 C 0.9776(3) 0.38803(14) 0.7594(3)
C17_3 C 0.2475(3) 0.40827(14) 0.8228(3)
C18_3 C 0.2271(4) 0.43931(14) 0.8732(3)
C19_3 C 0.7138(4) 0.60458(14) 0.9875(3)
C20_3 C 0.5853(4) 0.44126(14) 0.6156(3)
C21_3 C 0.8808(4) 0.38721(15) 0.6462(3)
C22_3 C 0.6257(3) 0.42679(14) 0.7505(3)
C23_3 C 0.6077(3) 0.46778(13) 0.2893(3)
C24_3 C 0.7264(3) 0.27794(14) 0.4439(3)
C25_3 C 0.9230(4) 0.40569(15) 0.7058(4)
C26_3 C 0.6315(4) 0.41266(14) 0.5992(3)
C27_3 C 0.7384(3) 0.24520(14) 0.4090(3)
C28_3 C 0.6185(3) 0.55988(14) 0.9280(3)
C29_3 C 0.7567(4) 0.56065(17) 0.8974(3)
C30_3 C 0.6747(4) 0.38867(15) 0.6603(3)
C31_3 C 0.6835(3) 0.54414(16) 0.8893(3)
C32_3 C 0.6922(3) 0.21452(14) 0.4156(3)
C33_3 C 0.6630(3) 0.27941(14) 0.4927(3)
C34_3 C 0.6215(3) 0.24782(14) 0.5031(3)
C35_3 C 0.6331(3) 0.21503(15) 0.4683(3)
C36_3 C 0.6722(4) 0.39779(15) 0.7332(3)
Cl5_4 Cl 0.24121(8) 0.00206(4) 0.55128(7)
Cl1_4 Cl 0.03478(8) 0.88038(3) 0.18880(7)
Cl9_4 Cl 0.15255(9) 0.87158(3) 0.74701(9)
O2_4 O 0.0899(2) 0.98843(10) 0.6026(2)
O4_4 O 0.3357(2) 0.93555(10) 0.6039(2)
O14_4 O 0.0540(2) 0.93467(9) 0.6857(2)
O20_4 O 0.3048(2) 0.88465(10) 0.6943(2)
O26_3 O 0.5047(3) 0.88236(15) 0.5465(3)
C3_4 C 0.1446(3) 0.96625(13) 0.6257(3)
C9_4 C 0.1789(4) 0.90845(14) 0.6977(3)
C12_4 C 0.2193(3) 0.96765(14) 0.6086(3)
C13_4 C 0.1232(3) 0.93472(14) 0.6736(3)
C17_4 C 0.2525(3) 0.90827(14) 0.6772(3)
C18_4 C 0.2729(4) 0.93931(14) 0.6268(3)
O29_2 O 0.4623(2) 0.83246(10) 0.6956(2)
O33_2 O 0.4805(3) 0.90323(11) 0.6879(2)
H59_4 H 0.491839 0.895173 0.498739
H60_3 H 0.531015 0.858903 0.539629
Cl3_4 Cl 0.93418(8) 0.10818(3) 0.48364(7)
Cl11_4 Cl 0.67152(10) 0.04230(6) 0.64648(9)
O3_4 O 0.9440(2) 0.04260(10) 0.57941(19)
O6_4 O 0.8354(2) 0.01562(11) 0.6484(2)
C8_4 C 0.8626(3) 0.09086(14) 0.5287(3)
C11_4 C 0.7218(3) 0.08897(17) 0.5517(3)
C19_4 C 0.7862(4) 0.10458(14) 0.5125(3)
C28_4 C 0.8815(3) 0.05988(14) 0.5720(3)
C29_4 C 0.7433(4) 0.06065(17) 0.6026(3)
C31_4 C 0.8165(3) 0.04414(16) 0.6107(3)
Cl2_4 Cl 0.74138(8) 0.98672(3) 0.15792(7)
Cl6_4 Cl 0.69034(8) 0.74370(4) 0.14547(7)
O1_4 O 0.8716(2) 0.86968(9) 0.09979(19)
O10_4 O 0.7377(2) 0.80704(10) 0.0627(2)
O15_4 O 0.7581(2) 0.91865(10) 0.0729(2)
O27_4 O 0.6352(3) 0.86740(14) 0.0522(3)
H3_4 H 0.606735 0.848295 0.067889
H4_4 H 0.608809 0.888518 0.062343
C5_4 C 0.8850(3) 0.90004(13) 0.1312(3)
C6_4 C 0.8178(3) 0.92731(14) 0.1191(3)
C7_4 C 0.9623(3) 0.94227(14) 0.2173(3)
C10_4 C 0.8232(3) 0.95902(13) 0.1616(3)
C15_4 C 0.9550(3) 0.90997(13) 0.1758(3)
C23_4 C 0.8923(3) 0.96778(13) 0.2107(3)
C24_4 C 0.7736(3) 0.77794(14) 0.0561(3)
C27_4 C 0.7616(3) 0.74520(14) 0.0910(3)
C32_4 C 0.8078(3) 0.71452(14) 0.0844(3)
C33_4 C 0.8370(3) 0.77941(14) 0.0073(3)
C35_4 C 0.8669(3) 0.71503(15) 0.0317(3)
Ce2_4 Ce 0.75728(2) 0.86352(2) 0.99392(2)
Cl4_4 Cl 0.54363(8) 0.78158(3) 0.81499(7)
Cl7_4 Cl 0.95952(8) 0.96896(3) 0.95467(7)
Cl8_4 Cl 0.94619(9) 0.74899(4) 0.93750(8)
Cl10_4 Cl 0.77056(11) 0.87264(4) 0.69838(7)
Cl12_4 Cl 0.58883(14) 0.95209(4) 0.78619(11)
O7_4 O 0.9371(2) 0.96457(10) 0.5307(2)
H1_4 H 0.908792 0.945142 0.529694
H2_4 H 0.907104 0.979772 0.503492
O8_4 O 0.9594(2) 0.97563(10) 0.7925(2)
O9_4 O 0.8788(2) 0.93694(10) 0.6856(2)
O12_4 O 0.6521(2) 0.83015(10) 0.9101(2)
O17_4 O 0.8603(3) 0.90467(11) 0.9648(2)
O18_4 O 0.7876(3) 0.86265(10) 0.8600(2)
O22_4 O 0.8456(3) 0.80962(10) 0.9778(2)
O25_4 O 0.6658(3) 0.90189(11) 0.9049(3)
C1_4 C 0.6103(3) 0.84581(14) 0.8580(3)
C2_4 C 0.5118(3) 0.84652(14) 0.7461(3)
C4_4 C 0.5548(3) 0.82802(14) 0.8054(3)
C14_4 C 0.9206(3) 0.94960(13) 0.8116(3)
C16_4 C 0.5224(3) 0.88803(14) 0.7406(3)
C20_4 C 0.9147(4) 0.94126(14) 0.8844(3)
C21_4 C 0.6192(4) 0.88721(15) 0.8538(3)
C22_4 C 0.8743(3) 0.92679(14) 0.7495(3)
C25_4 C 0.5770(4) 0.90569(15) 0.7942(4)
C26_4 C 0.8685(4) 0.91266(14) 0.9008(3)
C30_4 C 0.8253(4) 0.88867(15) 0.8397(3)
C34_4 C 0.8785(3) 0.74782(14) 0.9969(3)
C36_4 C 0.8278(4) 0.89779(15) 0.7668(3)
O26_4 O 0.9953(3) 0.38236(15) 0.9535(3)
H60_4 H 0.968985 0.358903 0.960371
C48 C 0.1131(18) 0.8038(5) 0.4639(9)
H15 H 0.156839 0.805367 0.500841
C50 C 0.0589(10) 0.8132(4) 0.3441(10)
H17 H 0.062888 0.821108 0.297200
C51 C 0.1242(8) 0.8149(4) 0.4004(12)
H18 H 0.172587 0.823384 0.392571
C55 C 0.0493(13) 0.7905(5) 0.4849(10)
H22 H 0.047318 0.783387 0.532738
P1 P 0.90600(10) 0.80152(4) 0.28918(8)
C37 C 0.8482(4) 0.73086(16) 0.2790(4)
H5 H 0.884442 0.726606 0.248351
C38 C 0.8981(5) 0.87251(16) 0.3393(3)
H6 H 0.947964 0.868680 0.366173
C39 C 0.8419(4) 0.76562(16) 0.3086(3)
C40 C 0.9254(4) 0.79547(17) 0.1982(3)
H7 H 0.951934 0.772710 0.195132
H8 H 0.957915 0.815032 0.186481
H9 H 0.876849 0.795437 0.164076
C41 C 0.7497(5) 0.8842(2) 0.2576(5)
H10 H 0.700610 0.888847 0.229777
C42 C 0.7883(6) 0.91175(18) 0.3030(5)
H11 H 0.763852 0.934124 0.305907
C43 C 0.9887(13) 0.8000(5) 0.3585(8)
C44 C 0.8592(4) 0.84498(15) 0.2950(3)
C45 C 0.8600(6) 0.90598(18) 0.3420(4)
H12 H 0.884861 0.924526 0.371450
C46 C 0.7839(4) 0.85050(19) 0.2538(4)
H13 H 0.757958 0.832005 0.225003
C47 C 0.8010(4) 0.70303(16) 0.2954(3)
H14 H 0.804727 0.680053 0.275123
C49 C 0.7888(9) 0.7721(2) 0.3540(6)
H16 H 0.784428 0.795189 0.373760
C52 C 0.7489(7) 0.7091(2) 0.3411(5)
H19 H 0.718002 0.690093 0.353111
C53 C 0.9874(13) 0.7883(6) 0.4295(9)
H20 H 0.940986 0.778454 0.439619
C54 C 0.7418(10) 0.7439(3) 0.3700(8)
H21 H 0.705188 0.747987 0.400250
P1_2 P 0.59400(10) 0.30152(4) 0.21082(8)
C37_2 C 0.6518(4) 0.23086(16) 0.2210(4)
H5_2 H 0.615558 0.226606 0.251649
C38_2 C 0.6019(5) 0.37251(16) 0.1607(3)
H6_2 H 0.552036 0.368680 0.133827
C39_2 C 0.6581(4) 0.26562(16) 0.1914(3)
C40_2 C 0.5746(4) 0.29547(17) 0.3018(3)
H7_2 H 0.548066 0.272710 0.304868
H8_2 H 0.542085 0.315032 0.313519
H9_2 H 0.623151 0.295437 0.335924
C41_2 C 0.7503(5) 0.3842(2) 0.2424(5)
H10_2 H 0.799390 0.388847 0.270223
C42_2 C 0.7117(6) 0.41175(18) 0.1970(5)
H11_2 H 0.736148 0.434124 0.194093
C43_2 C 0.5113(13) 0.3000(5) 0.1415(8)
C44_2 C 0.6408(4) 0.34498(15) 0.2050(3)
C45_2 C 0.6400(6) 0.40598(18) 0.1580(4)
H12_2 H 0.615139 0.424526 0.128550
C46_2 C 0.7161(4) 0.35050(19) 0.2462(4)
H13_2 H 0.742042 0.332005 0.274997
C47_2 C 0.6990(4) 0.20303(16) 0.2046(3)
H14_2 H 0.695273 0.180053 0.224877
C48_2 C 0.3869(18) 0.3038(5) 0.0361(9)
C49_2 C 0.7112(9) 0.2721(2) 0.1460(6)
H16_2 H 0.715572 0.295189 0.126240
C50_2 C 0.4411(10) 0.3132(4) 0.1559(10)
H17_2 H 0.437112 0.321108 0.202800
C51_2 C 0.3758(8) 0.3149(4) 0.0996(12)
H18_2 H 0.327413 0.323384 0.107429
C52_2 C 0.7511(7) 0.2091(2) 0.1589(5)
H19_2 H 0.781998 0.190093 0.146889
C53_2 C 0.5126(13) 0.2883(6) 0.0705(9)
H20_2 H 0.559014 0.278454 0.060381
C54_2 C 0.7582(10) 0.2439(3) 0.1300(8)
H21_2 H 0.794812 0.247987 0.099750
C55_2 C 0.4507(13) 0.2905(5) 0.0151(10)
H15_2 H 0.343161 0.305367 0.999159
H22_2 H 0.452682 0.283387 0.967262
P1_3 P 0.09400(10) 0.19848(4) 0.71082(8)
C37_3 C 0.1518(4) 0.26914(16) 0.7210(4)
H5_3 H 0.115558 0.273394 0.751649
C38_3 C 0.1019(5) 0.12749(16) 0.6607(3)
H6_3 H 0.052036 0.131320 0.633827
C39_3 C 0.1581(4) 0.23438(16) 0.6914(3)
C40_3 C 0.0746(4) 0.20453(17) 0.8018(3)
H7_3 H 0.048066 0.227290 0.804868
H8_3 H 0.042085 0.184968 0.813519
H9_3 H 0.123151 0.204563 0.835924
C41_3 C 0.2503(5) 0.1158(2) 0.7424(5)
H10_3 H 0.299390 0.111153 0.770223
C42_3 C 0.2117(6) 0.08825(18) 0.6970(5)
H11_3 H 0.236148 0.065876 0.694093
C43_3 C 0.0113(13) 0.2000(5) 0.6415(8)
C44_3 C 0.1408(4) 0.15502(15) 0.7050(3)
C45_3 C 0.1400(6) 0.09402(18) 0.6580(4)
H12_3 H 0.115139 0.075474 0.628550
C46_3 C 0.2161(4) 0.14950(19) 0.7462(4)
H13_3 H 0.242042 0.167995 0.774997
C47_3 C 0.1990(4) 0.29697(16) 0.7046(3)
H14_3 H 0.195273 0.319947 0.724877
C49_3 C 0.2112(9) 0.2279(2) 0.6460(6)
H16_3 H 0.215572 0.204811 0.626240
C52_3 C 0.2511(7) 0.2909(2) 0.6589(5)
H19_3 H 0.281998 0.309907 0.646889
C53_3 C 0.0126(13) 0.2117(6) 0.5705(9)
H20_3 H 0.059014 0.221546 0.560381
C54_3 C 0.2582(10) 0.2561(3) 0.6300(8)
H21_3 H 0.294812 0.252013 0.599750
C48_3 C 0.8869(18) 0.1962(5) 0.5361(9)
H15_3 H 0.843161 0.194633 0.499159
C50_3 C 0.9411(10) 0.1868(4) 0.6559(10)
H17_3 H 0.937112 0.178892 0.702800
C51_3 C 0.8758(8) 0.1851(4) 0.5996(12)
H18_3 H 0.827413 0.176616 0.607429
C55_3 C 0.9507(13) 0.2095(5) 0.5151(10)
H22_3 H 0.952682 0.216613 0.467262
H15_4 H 0.656839 0.694633 0.000841
H22_4 H 0.547318 0.716613 0.032738
P1_4 P 0.40600(10) 0.69848(4) 0.78918(8)
C37_4 C 0.3482(4) 0.76914(16) 0.7790(4)
H5_4 H 0.384442 0.773394 0.748351
C38_4 C 0.3981(5) 0.62749(16) 0.8393(3)
H6_4 H 0.447964 0.631320 0.866173
C39_4 C 0.3419(4) 0.73438(16) 0.8086(3)
C40_4 C 0.4254(4) 0.70453(17) 0.6982(3)
H7_4 H 0.451934 0.727290 0.695132
H8_4 H 0.457915 0.684968 0.686481
H9_4 H 0.376849 0.704563 0.664076
C41_4 C 0.2497(5) 0.6158(2) 0.7576(5)
H10_4 H 0.200610 0.611153 0.729777
C42_4 C 0.2883(6) 0.58825(18) 0.8030(5)
H11_4 H 0.263852 0.565876 0.805907
C43_4 C 0.4887(13) 0.7000(5) 0.8585(8)
C44_4 C 0.3592(4) 0.65502(15) 0.7950(3)
C45_4 C 0.3600(6) 0.59402(18) 0.8420(4)
H12_4 H 0.384861 0.575474 0.871450
C46_4 C 0.2839(4) 0.64950(19) 0.7538(4)
H13_4 H 0.257958 0.667995 0.725003
C47_4 C 0.3010(4) 0.79697(16) 0.7954(3)
H14_4 H 0.304727 0.819947 0.775123
C48_4 C 0.6131(18) 0.6962(5) 0.9639(9)
C49_4 C 0.2888(9) 0.7279(2) 0.8540(6)
H16_4 H 0.284428 0.704811 0.873760
C50_4 C 0.5589(10) 0.6868(4) 0.8441(10)
H17_4 H 0.562888 0.678892 0.797200
C51_4 C 0.6242(8) 0.6851(4) 0.9004(12)
H18_4 H 0.672587 0.676616 0.892571
C52_4 C 0.2489(7) 0.7909(2) 0.8411(5)
H19_4 H 0.218002 0.809907 0.853111
C53_4 C 0.4874(13) 0.7117(6) 0.9295(9)
H20_4 H 0.440986 0.721546 0.939619
C54_4 C 0.2418(10) 0.7561(3) 0.8700(8)
H21_4 H 0.205188 0.752013 0.900250
C55_4 C 0.5493(13) 0.7095(5) 0.9849(10)
P2 P 0.68998(9) 0.57686(5) 0.46272(8)
C56 C 0.6954(4) 0.54735(16) 0.5410(3)
C57 C 0.6681(4) 0.55836(16) 0.6039(3)
H23 H 0.641328 0.580283 0.604458
C58 C 0.5641(8) 0.6195(4) 0.4926(7)
H24 H 0.537853 0.597284 0.489712
C59 C 0.6811(4) 0.53655(16) 0.6655(3)
H25 H 0.661860 0.543334 0.707343
C60 C 0.7336(5) 0.5139(2) 0.5392(4)
H26 H 0.749936 0.506097 0.496590
C61 C 0.6422(8) 0.6212(4) 0.4819(9)
C62 C 0.6318(4) 0.55676(18) 0.3836(3)
H27 H 0.654799 0.534046 0.372924
H28 H 0.629617 0.572912 0.342608
H29 H 0.579680 0.552531 0.392897
C63 C 0.7234(4) 0.50419(17) 0.6645(4)
H30 H 0.735758 0.490412 0.707050
C64 C 0.7468(5) 0.49255(19) 0.6014(4)
H31 H 0.771729 0.470159 0.600533
C65 C 0.5267(8) 0.6507(4) 0.5073(8)
H32 H 0.474723 0.649891 0.513926
C66 C 0.8107(13) 0.5795(5) 0.3779(12)
H33 H 0.771528 0.581706 0.336935
C67 C 0.7898(9) 0.5769(5) 0.4478(9)
C68 C 0.6793(11) 0.6543(4) 0.4865(6)
H34 H 0.730783 0.655296 0.478503
C69 C 0.5675(14) 0.6839(3) 0.5124(6)
H35 H 0.542411 0.705125 0.522995
C70 C 0.6444(15) 0.6854(4) 0.5019(7)
H36 H 0.671463 0.707392 0.505456
C71 C 0.8870(10) 0.5787(5) 0.3692(8)
H37 H 0.899281 0.580492 0.322469
C72 C 0.8506(9) 0.5743(4) 0.5084(7)
H38 H 0.839310 0.573259 0.555588
C73 C 0.9442(10) 0.5755(5) 0.4267(9)
H39 H 0.996127 0.574705 0.419805
C74 C 0.9272(10) 0.5732(5) 0.4974(9)
H40 H 0.967755 0.570889 0.537224
H32_2 H 0.025277 0.149891 0.986074
P2_2 P 0.81002(9) 0.07686(5) 0.03728(8)
C58_2 C 0.9359(8) 0.1195(4) 0.0074(7)
H24_2 H 0.962147 0.097284 0.010288
H26_2 H 0.750064 0.006097 0.003410
C61_2 C 0.8578(8) 0.1212(4) 0.0181(9)
C62_2 C 0.8682(4) 0.05676(18) 0.1164(3)
H27_2 H 0.845201 0.034046 0.127076
H28_2 H 0.870383 0.072912 0.157392
H29_2 H 0.920320 0.052531 0.107103
C66_2 C 0.6893(13) 0.0795(5) 0.1221(12)
H33_2 H 0.728472 0.081706 0.163065
C67_2 C 0.7102(9) 0.0769(5) 0.0522(9)
C68_2 C 0.8207(11) 0.1543(4) 0.0135(6)
H34_2 H 0.769217 0.155296 0.021497
C71_2 C 0.6130(10) 0.0787(5) 0.1308(8)
H37_2 H 0.600719 0.080492 0.177531
C73_2 C 0.5558(10) 0.0755(5) 0.0733(9)
H39_2 H 0.503873 0.074705 0.080195
C74_2 C 0.5728(10) 0.0732(5) 0.0026(9)
C56_2 C 0.8046(4) 0.04735(16) 0.9590(3)
C57_2 C 0.8319(4) 0.05836(16) 0.8961(3)
H23_2 H 0.858672 0.080283 0.895542
C59_2 C 0.8189(4) 0.03655(16) 0.8345(3)
H25_2 H 0.838140 0.043334 0.792657
C60_2 C 0.7664(5) 0.0139(2) 0.9608(4)
C63_2 C 0.7766(4) 0.00419(17) 0.8355(4)
C65_2 C 0.9733(8) 0.1507(4) 0.9927(8)
C69_2 C 0.9325(14) 0.1839(3) 0.9876(6)
H35_2 H 0.957589 0.205125 0.977005
C70_2 C 0.8556(15) 0.1854(4) 0.9981(7)
H36_2 H 0.828537 0.207392 0.994544
C72_2 C 0.6494(9) 0.0743(4) 0.9916(7)
H38_2 H 0.660690 0.073259 0.944412
H40_2 H 0.532245 0.070889 0.962776
H30_2 H 0.764242 0.990412 0.792950
C64_2 C 0.7532(5) 0.99255(19) 0.8986(4)
H31_2 H 0.728271 0.970159 0.899467
P2_3 P 0.31002(9) 0.42314(5) 0.53728(8)
C56_3 C 0.3046(4) 0.45265(16) 0.4590(3)
C57_3 C 0.3319(4) 0.44164(16) 0.3961(3)
H23_3 H 0.358672 0.419717 0.395542
C58_3 C 0.4359(8) 0.3805(4) 0.5074(7)
H24_3 H 0.462147 0.402716 0.510288
C59_3 C 0.3189(4) 0.46345(16) 0.3345(3)
H25_3 H 0.338140 0.456666 0.292657
C60_3 C 0.2664(5) 0.4861(2) 0.4608(4)
H26_3 H 0.250064 0.493903 0.503410
C61_3 C 0.3578(8) 0.3788(4) 0.5181(9)
C62_3 C 0.3682(4) 0.44324(18) 0.6164(3)
H27_3 H 0.345201 0.465954 0.627076
H28_3 H 0.370383 0.427088 0.657392
H29_3 H 0.420320 0.447469 0.607103
C63_3 C 0.2766(4) 0.49581(17) 0.3355(4)
H30_3 H 0.264242 0.509588 0.292950
C64_3 C 0.2532(5) 0.50745(19) 0.3986(4)
H31_3 H 0.228271 0.529841 0.399467
C65_3 C 0.4733(8) 0.3493(4) 0.4927(8)
H32_3 H 0.525277 0.350109 0.486074
C66_3 C 0.1893(13) 0.4205(5) 0.6221(12)
H33_3 H 0.228472 0.418294 0.663065
C67_3 C 0.2102(9) 0.4231(5) 0.5522(9)
C68_3 C 0.3207(11) 0.3457(4) 0.5135(6)
H34_3 H 0.269217 0.344704 0.521497
C69_3 C 0.4325(14) 0.3161(3) 0.4876(6)
H35_3 H 0.457589 0.294875 0.477005
C70_3 C 0.3556(15) 0.3146(4) 0.4981(7)
H36_3 H 0.328537 0.292608 0.494544
C71_3 C 0.1130(10) 0.4213(5) 0.6308(8)
H37_3 H 0.100719 0.419508 0.677531
C72_3 C 0.1494(9) 0.4257(4) 0.4916(7)
H38_3 H 0.160690 0.426741 0.444412
C73_3 C 0.0558(10) 0.4245(5) 0.5733(9)
H39_3 H 0.003873 0.425295 0.580195
C74_3 C 0.0728(10) 0.4268(5) 0.5026(9)
H40_3 H 0.032245 0.429111 0.462776
H30_4 H 0.235758 0.009588 0.207050
C64_4 C 0.2468(5) 0.00745(19) 0.1014(4)
H31_4 H 0.271729 0.029841 0.100533
C56_4 C 0.1954(4) 0.95265(16) 0.0410(3)
C57_4 C 0.1681(4) 0.94164(16) 0.1039(3)
H23_4 H 0.141328 0.919717 0.104458
C59_4 C 0.1811(4) 0.96345(16) 0.1655(3)
H25_4 H 0.161860 0.956666 0.207343
C60_4 C 0.2336(5) 0.9861(2) 0.0392(4)
C63_4 C 0.2234(4) 0.99581(17) 0.1645(4)
C65_4 C 0.0267(8) 0.8493(4) 0.0073(8)
C69_4 C 0.0675(14) 0.8161(3) 0.0124(6)
H35_4 H 0.042411 0.794875 0.022995
C70_4 C 0.1444(15) 0.8146(4) 0.0019(7)
H36_4 H 0.171463 0.792608 0.005456
C72_4 C 0.3506(9) 0.9257(4) 0.0084(7)
H38_4 H 0.339310 0.926741 0.055588
H40_4 H 0.467755 0.929111 0.037224
P2_4 P 0.18998(9) 0.92314(5) 0.96272(8)
C58_4 C 0.0641(8) 0.8805(4) 0.9926(7)
H24_4 H 0.037853 0.902716 0.989712
H26_4 H 0.249936 0.993903 0.996590
C61_4 C 0.1422(8) 0.8788(4) 0.9819(9)
C62_4 C 0.1318(4) 0.94324(18) 0.8836(3)
H27_4 H 0.154799 0.965954 0.872924
H28_4 H 0.129617 0.927088 0.842608
H29_4 H 0.079680 0.947469 0.892897
C66_4 C 0.3107(13) 0.9205(5) 0.8779(12)
H33_4 H 0.271528 0.918294 0.836935
C67_4 C 0.2898(9) 0.9231(5) 0.9478(9)
C68_4 C 0.1793(11) 0.8457(4) 0.9865(6)
H34_4 H 0.230783 0.844704 0.978503
C71_4 C 0.3870(10) 0.9213(5) 0.8692(8)
H37_4 H 0.399281 0.919508 0.822469
C73_4 C 0.4442(10) 0.9245(5) 0.9267(9)
H39_4 H 0.496127 0.925295 0.919805
C74_4 C 0.4272(10) 0.9268(5) 0.9974(9)
H32_4 H 0.974723 0.850109 0.013926
C89 C 0.0427(8) 0.7881(3) 0.7528(10)
H54 H 0.094777 0.794701 0.753812
H56 H 0.014876 0.830137 0.812384
C93 C 0.0135(8) 0.7565(3) 0.7174(10)
H58 H 0.045547 0.742427 0.693101
P3 P 0.78625(9) 0.75734(4) 0.74033(9)
C75 C 0.7804(4) 0.70870(18) 0.7422(4)
C76 C 0.7543(4) 0.77523(18) 0.8193(3)
H41 H 0.701319 0.767599 0.819724
H42 H 0.756483 0.801345 0.818291
H43 H 0.787736 0.766407 0.862561
C77 C 0.7320(5) 0.6893(2) 0.6887(4)
H44 H 0.703165 0.701877 0.649545
C78 C 0.7247(4) 0.77383(17) 0.6596(4)
C79 C 0.7248(5) 0.6525(2) 0.6910(5)
H45 H 0.691412 0.640355 0.654130
C80 C 0.8873(15) 0.7695(7) 0.7432(13)
C81 C 0.7539(5) 0.7824(2) 0.5966(4)
H46 H 0.807025 0.779580 0.595161
C82 C 0.6251(6) 0.7991(2) 0.5358(5)
H47 H 0.592171 0.806900 0.493553
C83 C 0.5951(6) 0.7916(3) 0.5975(4)
H48 H 0.542051 0.795046 0.598283
C84 C 0.7034(7) 0.7952(3) 0.5363(5)
H49 H 0.723375 0.801288 0.494435
C85 C 0.6451(5) 0.7787(3) 0.6594(4)
H50 H 0.624758 0.773310 0.701422
C86 C 0.9147(13) 0.8005(5) 0.7803(12)
H51 H 0.887(9) 0.817(4) 0.812(8)
C87 C 0.8239(6) 0.6894(2) 0.8019(6)
H52 H 0.856764 0.701904 0.838620
C88 C 0.7680(7) 0.6331(2) 0.7493(7)
H53 H 0.763997 0.607894 0.750573
C90 C 0.9383(10) 0.7457(4) 0.7179(11)
H55 H 0.921583 0.722634 0.701478
C91 C 0.9949(8) 0.8096(3) 0.7861(10)
C92 C 0.8176(8) 0.6515(3) 0.8059(7)
H57 H 0.845645 0.638656 0.845253
H47_2 H 0.907829 0.306900 0.006447
H49_2 H 0.776625 0.301288 0.005565
P3_2 P 0.71375(9) 0.25734(4) 0.75967(9)
C75_2 C 0.7196(4) 0.20870(18) 0.7578(4)
C76_2 C 0.7457(4) 0.27523(18) 0.6807(3)
H41_2 H 0.798681 0.267599 0.680276
H42_2 H 0.743517 0.301345 0.681709
H43_2 H 0.712264 0.266407 0.637439
C77_2 C 0.7680(5) 0.1893(2) 0.8113(4)
H44_2 H 0.796835 0.201877 0.850455
C78_2 C 0.7753(4) 0.27383(17) 0.8404(4)
C79_2 C 0.7752(5) 0.1525(2) 0.8090(5)
H45_2 H 0.808588 0.140355 0.845870
C80_2 C 0.6127(15) 0.2695(7) 0.7568(13)
C81_2 C 0.7461(5) 0.2824(2) 0.9034(4)
H46_2 H 0.692975 0.279580 0.904839
C82_2 C 0.8749(6) 0.2991(2) 0.9642(5)
C83_2 C 0.9049(6) 0.2916(3) 0.9025(4)
H48_2 H 0.957949 0.295046 0.901717
C84_2 C 0.7966(7) 0.2952(3) 0.9637(5)
C85_2 C 0.8549(5) 0.2787(3) 0.8406(4)
H50_2 H 0.875242 0.273310 0.798578
C86_2 C 0.5853(13) 0.3005(5) 0.7197(12)
H51_2 H 0.613(9) 0.317(4) 0.688(8)
C87_2 C 0.6761(6) 0.1894(2) 0.6981(6)
H52_2 H 0.643236 0.201904 0.661380
C88_2 C 0.7320(7) 0.1331(2) 0.7507(7)
H53_2 H 0.736003 0.107894 0.749427
C89_2 C 0.4573(8) 0.2881(3) 0.7472(10)
H54_2 H 0.405223 0.294701 0.746188
C90_2 C 0.5617(10) 0.2457(4) 0.7821(11)
H55_2 H 0.578417 0.222634 0.798522
C91_2 C 0.5051(8) 0.3096(3) 0.7139(10)
H56_2 H 0.485124 0.330137 0.687616
C92_2 C 0.6824(8) 0.1515(3) 0.6941(7)
H57_2 H 0.654355 0.138656 0.654747
C93_2 C 0.4865(8) 0.2565(3) 0.7826(10)
H58_2 H 0.454453 0.242427 0.806899
P3_3 P 0.21375(9) 0.24266(4) 0.25967(9)
C75_3 C 0.2196(4) 0.29130(18) 0.2578(4)
C76_3 C 0.2457(4) 0.22477(18) 0.1807(3)
H41_3 H 0.298681 0.232401 0.180276
H42_3 H 0.243517 0.198655 0.181709
H43_3 H 0.212264 0.233593 0.137439
C77_3 C 0.2680(5) 0.3107(2) 0.3113(4)
H44_3 H 0.296835 0.298123 0.350455
C78_3 C 0.2753(4) 0.22617(17) 0.3404(4)
C79_3 C 0.2752(5) 0.3475(2) 0.3090(5)
H45_3 H 0.308588 0.359645 0.345870
C80_3 C 0.1127(15) 0.2305(7) 0.2568(13)
C81_3 C 0.2461(5) 0.2176(2) 0.4034(4)
H46_3 H 0.192975 0.220420 0.404839
C82_3 C 0.3749(6) 0.2009(2) 0.4642(5)
H47_3 H 0.407829 0.193100 0.506447
C83_3 C 0.4049(6) 0.2084(3) 0.4025(4)
H48_3 H 0.457949 0.204954 0.401717
C84_3 C 0.2966(7) 0.2048(3) 0.4637(5)
H49_3 H 0.276625 0.198712 0.505565
C85_3 C 0.3549(5) 0.2213(3) 0.3406(4)
H50_3 H 0.375242 0.226690 0.298578
C86_3 C 0.0853(13) 0.1995(5) 0.2197(12)
H51_3 H 0.113(9) 0.183(4) 0.188(8)
C87_3 C 0.1761(6) 0.3106(2) 0.1981(6)
H52_3 H 0.143236 0.298096 0.161380
C88_3 C 0.2320(7) 0.3669(2) 0.2507(7)
H53_3 H 0.236003 0.392106 0.249427
C90_3 C 0.0617(10) 0.2543(4) 0.2821(11)
H55_3 H 0.078417 0.277366 0.298522
C91_3 C 0.0051(8) 0.1904(3) 0.2139(10)
C92_3 C 0.1824(8) 0.3485(3) 0.1941(7)
H57_3 H 0.154355 0.361344 0.154747
C89_3 C 0.9573(8) 0.2119(3) 0.2472(10)
H54_3 H 0.905223 0.205299 0.246188
H56_3 H 0.985124 0.169863 0.187616
C93_3 C 0.9865(8) 0.2435(3) 0.2826(10)
H58_3 H 0.954453 0.257573 0.306899
P3_4 P 0.28625(9) 0.74266(4) 0.24033(9)
C75_4 C 0.2804(4) 0.79130(18) 0.2422(4)
C76_4 C 0.2543(4) 0.72477(18) 0.3193(3)
H41_4 H 0.201319 0.732401 0.319724
H42_4 H 0.256483 0.698655 0.318291
H43_4 H 0.287736 0.733593 0.362561
C77_4 C 0.2320(5) 0.8107(2) 0.1887(4)
H44_4 H 0.203165 0.798123 0.149545
C78_4 C 0.2247(4) 0.72617(17) 0.1596(4)
C79_4 C 0.2248(5) 0.8475(2) 0.1910(5)
H45_4 H 0.191412 0.859645 0.154130
C80_4 C 0.3873(15) 0.7305(7) 0.2432(13)
C81_4 C 0.2539(5) 0.7176(2) 0.0966(4)
H46_4 H 0.307025 0.720420 0.095161
C82_4 C 0.1251(6) 0.7009(2) 0.0358(5)
C83_4 C 0.0951(6) 0.7084(3) 0.0975(4)
H48_4 H 0.042051 0.704954 0.098283
C84_4 C 0.2034(7) 0.7048(3) 0.0363(5)
C85_4 C 0.1451(5) 0.7213(3) 0.1594(4)
H50_4 H 0.124758 0.726690 0.201422
C86_4 C 0.4147(13) 0.6995(5) 0.2803(12)
H51_4 H 0.387(9) 0.683(4) 0.312(8)
C87_4 C 0.3239(6) 0.8106(2) 0.3019(6)
H52_4 H 0.356764 0.798096 0.338620
C88_4 C 0.2680(7) 0.8669(2) 0.2493(7)
H53_4 H 0.263997 0.892106 0.250573
C89_4 C 0.5427(8) 0.7119(3) 0.2528(10)
H54_4 H 0.594777 0.705299 0.253812
C90_4 C 0.4383(10) 0.7543(4) 0.2179(11)
H55_4 H 0.421583 0.777366 0.201478
C91_4 C 0.4949(8) 0.6904(3) 0.2861(10)
H56_4 H 0.514876 0.669863 0.312384
C92_4 C 0.3176(8) 0.8485(3) 0.3059(7)
H57_4 H 0.345645 0.861344 0.345253
C93_4 C 0.5135(8) 0.7435(3) 0.2174(10)
H58_4 H 0.545547 0.757573 0.193101
H47_4 H 0.092171 0.693100 0.993553
H49_4 H 0.223375 0.698712 0.994435
loop_
_geom_bond_atom_site_label_1
_geom_bond_atom_site_label_2
_geom_bond_site_symmetry_1
_geom_bond_site_symmetry_2
O26 H60 1_555 1_555
Ce1 O2 1_555 1_555
Ce2 O1 1_555 1_555
Ce3 O4 1_555 1_555
Cl1 C15 1_555 1_555
Cl2 C10 1_555 1_555
Cl4 C4 1_555 1_555
Cl5 C12 1_555 1_555
Cl6 C27 1_555 1_555
Cl7 C20 1_555 1_555
Cl8 C34 1_555 1_555
Cl9 C9 1_555 1_555
Cl10 C36 1_555 1_555
Cl11 C29 1_555 1_555
Cl12 C25 1_555 1_555
O1 C5 1_555 1_555
O2 C3 1_555 1_555
O3 Ce1 1_555 1_555
O4 C18 1_555 1_555
O5 C7 1_555 1_555
O6 Ce1 1_555 1_555
O7 Ce1 1_555 1_555
H1 O7 1_555 1_555
H2 O7 1_555 1_555
O8 Ce1 1_555 1_555
O9 Ce1 1_555 1_555
O10 Ce2 1_555 1_555
O12 Ce2 1_555 1_555
O13 C23 1_555 1_555
O14 Ce1 1_555 1_555
O15 Ce2 1_555 1_555
O16 C32 1_555 1_555
O17 Ce2 1_555 1_555
O18 Ce2 1_555 1_555
O20 Ce3 1_555 1_555
O22 Ce2 1_555 1_555
O23 C35 1_555 1_555
O24 C11 1_555 1_555
O25 Ce2 1_555 1_555
O27 Ce2 1_555 1_555
H3 O27 1_555 1_555
H4 O27 1_555 1_555
C1 O12 1_555 1_555
C2 C4 1_555 1_555
C3 C12 1_555 1_555
C4 C1 1_555 1_555
C5 C6 1_555 1_555
C6 O15 1_555 1_555
C7 C15 1_555 1_555
C8 C19 1_555 1_555
C9 C13 1_555 1_555
C10 C6 1_555 1_555
C11 C19 1_555 1_555
C12 C18 1_555 1_555
C13 O14 1_555 1_555
C14 O8 1_555 1_555
C15 C5 1_555 1_555
C16 C2 1_555 1_555
C17 O20 1_555 1_555
C18 C17 1_555 1_555
C20 C14 1_555 1_555
C21 O25 1_555 1_555
C22 O9 1_555 1_555
C23 C7 1_555 1_555
C24 O10 1_555 1_555
C25 C16 1_555 1_555
C26 O17 1_555 1_555
C27 C24 1_555 1_555
C28 O3 1_555 1_555
C29 C11 1_555 1_555
C30 O18 1_555 1_555
C31 O6 1_555 1_555
C32 C27 1_555 1_555
C33 O22 1_555 1_555
C34 C33 1_555 1_555
C35 C32 1_555 1_555
C36 C22 1_555 1_555
Ce4 O5 1_555 1_555
Ce7 O16 1_555 1_555
O28 Ce1 1_555 1_555
O29 Ce3 1_555 1_555
O30 Ce1 1_555 1_555
O31 Ce3 1_555 1_555
O32 Ce3 1_555 1_555
O33 Ce3 1_555 1_555
O34 Ce3 1_555 1_555
O13 Ce4 1_555 1_555
O23 Ce7 1_555 1_555
C1 C21 1_555 1_555
C3 C13 1_555 1_555
C8 C28 1_555 1_555
C9 C17 1_555 1_555
C10 C23 1_555 1_555
C14 C22 1_555 1_555
C20 C26 1_555 1_555
C21 C25 1_555 1_555
C24 C33 1_555 1_555
C26 C30 1_555 1_555
C28 C31 1_555 1_555
C29 C31 1_555 1_555
C30 C36 1_555 1_555
C34 C35 1_555 1_555
Ce6 O19 1_555 1_555
Cl4_2 C4_2 1_555 1_555
Cl7_2 C20_2 1_555 1_555
Cl8_2 C34_2 1_555 1_555
Cl10_2 C36_2 1_555 1_555
Cl12_2 C25_2 1_555 1_555
O7_2 Ce1_2 1_555 1_555
H1_2 O7_2 1_555 1_555
H2_2 O7_2 1_555 1_555
O8_2 Ce1_2 1_555 1_555
O9_2 Ce1_2 1_555 1_555
O11 C2_2 1_555 1_555
O12_2 Ce2_2 1_555 1_555
O17_2 Ce2_2 1_555 1_555
O18_2 Ce2_2 1_555 1_555
O21 C16_2 1_555 1_555
O22_2 Ce2_2 1_555 1_555
O25_2 Ce2_2 1_555 1_555
C1_2 O12_2 1_555 1_555
C2_2 C4_2 1_555 1_555
C4_2 C1_2 1_555 1_555
C14_2 O8_2 1_555 1_555
C16_2 C2_2 1_555 1_555
C20_2 C14_2 1_555 1_555
C21_2 O25_2 1_555 1_555
C22_2 O9_2 1_555 1_555
C25_2 C16_2 1_555 1_555
C26_2 O17_2 1_555 1_555
C30_2 O18_2 1_555 1_555
C36_2 C22_2 1_555 1_555
Ce5 O11 1_555 1_555
O21 Ce5 1_555 1_555
C1_2 C21_2 1_555 1_555
C14_2 C22_2 1_555 1_555
C20_2 C26_2 1_555 1_555
C21_2 C25_2 1_555 1_555
C26_2 C30_2 1_555 1_555
C30_2 C36_2 1_555 1_555
Cl2_2 C10_2 1_555 1_555
Cl6_2 C27_2 1_555 1_555
O1_2 C5_2 1_555 1_555
O13_2 C23_2 1_555 1_555
O16_2 C32_2 1_555 1_555
O23_2 C35_2 1_555 1_555
H3_2 O27_2 1_555 1_555
H4_2 O27_2 1_555 1_555
C5_2 C6_2 1_555 1_555
C6_2 O15_2 1_555 1_555
C7_2 C15_2 1_555 1_555
C10_2 C6_2 1_555 1_555
C15_2 C5_2 1_555 1_555
C23_2 C7_2 1_555 1_555
C24_2 O10_2 1_555 1_555
C27_2 C24_2 1_555 1_555
C32_2 C27_2 1_555 1_555
C35_2 C32_2 1_555 1_555
Ce6 O16_2 1_555 1_555
O23_2 Ce6 1_555 1_555
C10_2 C23_2 1_555 1_555
C24_2 C33_2 1_555 1_555
Cl3_2 C8_2 1_555 1_555
Cl11_2 C29_2 1_555 1_555
O19_2 C19_2 1_555 1_555
O24_2 C11_2 1_555 1_555
C8_2 C19_2 1_555 1_555
C11_2 C19_2 1_555 1_555
C28_2 O3_2 1_555 1_555
C29_2 C11_2 1_555 1_555
C31_2 O6_2 1_555 1_555
Ce7 O19_2 1_555 1_555
O24_2 Ce7 1_555 1_555
C8_2 C28_2 1_555 1_555
C28_2 C31_2 1_555 1_555
C29_2 C31_2 1_555 1_555
Ce5 O4_2 1_555 1_555
Cl9_2 C9_2 1_555 1_555
O2_2 C3_2 1_555 1_555
O4_2 C18_2 1_555 1_555
O20_2 Ce5 1_555 1_555
O26_2 Ce5 1_555 1_555
C3_2 C12_2 1_555 1_555
C9_2 C13_2 1_555 1_555
C12_2 C18_2 1_555 1_555
C13_2 O14_2 1_555 1_555
C17_2 O20_2 1_555 1_555
C18_2 C17_2 1_555 1_555
O31_2 Ce5 1_555 1_555
O32_2 Ce5 1_555 1_555
O34_2 Ce5 1_555 1_555
O35_2 Ce5 1_555 1_555
C3_2 C13_2 1_555 1_555
C9_2 C17_2 1_555 1_555
O26_2 H59_2 1_555 1_555
O26_2 H60_2 1_555 1_555
Ce6 O11_2 1_555 1_555
O21_2 Ce6 1_555 1_555
Ce4 O2_3 1_555 1_555
Ce2_3 O1_3 1_555 1_555
Ce6 O4_3 1_555 1_555
Cl1_3 C15_3 1_555 1_555
Cl2_3 C10_3 1_555 1_555
Cl4_3 C4_3 1_555 1_555
Cl5_3 C12_3 1_555 1_555
Cl6_3 C27_3 1_555 1_555
Cl7_3 C20_3 1_555 1_555
Cl8_3 C34_3 1_555 1_555
Cl9_3 C9_3 1_555 1_555
Cl10_3 C36_3 1_555 1_555
Cl11_3 C29_3 1_555 1_555
Cl12_3 C25_3 1_555 1_555
O1_3 C5_3 1_555 1_555
O2_3 C3_3 1_555 1_555
O3_3 Ce4 1_555 1_555
O4_3 C18_3 1_555 1_555
O28 C7_3 1_555 1_555
O6_3 Ce4 1_555 1_555
O7_3 Ce4 1_555 1_555
H1_3 O7_3 1_555 1_555
H2_3 O7_3 1_555 1_555
O8_3 Ce4 1_555 1_555
O9_3 Ce4 1_555 1_555
O10_3 Ce2_3 1_555 1_555
O12_3 Ce2_3 1_555 1_555
O30 C23_3 1_555 1_555
O14_3 Ce4 1_555 1_555
O15_3 Ce2_3 1_555 1_555
O31_2 C32_3 1_555 1_555
O17_3 Ce2_3 1_555 1_555
O18_3 Ce2_3 1_555 1_555
O20_3 Ce6 1_555 1_555
O22_3 Ce2_3 1_555 1_555
O34_2 C35_3 1_555 1_555
O35 C11_3 1_555 1_555
O25_3 Ce2_3 1_555 1_555
O27_3 Ce2_3 1_555 1_555
H3_3 O27_3 1_555 1_555
H4_3 O27_3 1_555 1_555
C1_3 O12_3 1_555 1_555
C2_3 C4_3 1_555 1_555
C3_3 C12_3 1_555 1_555
C4_3 C1_3 1_555 1_555
C5_3 C6_3 1_555 1_555
C6_3 O15_3 1_555 1_555
C7_3 C15_3 1_555 1_555
C8_3 C19_3 1_555 1_555
C9_3 C13_3 1_555 1_555
C10_3 C6_3 1_555 1_555
C11_3 C19_3 1_555 1_555
C12_3 C18_3 1_555 1_555
C13_3 O14_3 1_555 1_555
C14_3 O8_3 1_555 1_555
C15_3 C5_3 1_555 1_555
C16_3 C2_3 1_555 1_555
C17_3 O20_3 1_555 1_555
C18_3 C17_3 1_555 1_555
C20_3 C14_3 1_555 1_555
C21_3 O25_3 1_555 1_555
C22_3 O9_3 1_555 1_555
C23_3 C7_3 1_555 1_555
C24_3 O10_3 1_555 1_555
C25_3 C16_3 1_555 1_555
C26_3 O17_3 1_555 1_555
C27_3 C24_3 1_555 1_555
C28_3 O3_3 1_555 1_555
C29_3 C11_3 1_555 1_555
C30_3 O18_3 1_555 1_555
C31_3 O6_3 1_555 1_555
C32_3 C27_3 1_555 1_555
C33_3 O22_3 1_555 1_555
C34_3 C33_3 1_555 1_555
C35_3 C32_3 1_555 1_555
C36_3 C22_3 1_555 1_555
C1_3 C21_3 1_555 1_555
C3_3 C13_3 1_555 1_555
C8_3 C28_3 1_555 1_555
C9_3 C17_3 1_555 1_555
C10_3 C23_3 1_555 1_555
C14_3 C22_3 1_555 1_555
C20_3 C26_3 1_555 1_555
C21_3 C25_3 1_555 1_555
C24_3 C33_3 1_555 1_555
C26_3 C30_3 1_555 1_555
C28_3 C31_3 1_555 1_555
C29_3 C31_3 1_555 1_555
C30_3 C36_3 1_555 1_555
C34_3 C35_3 1_555 1_555
Ce7 O4_4 1_555 1_555
Cl9_4 C9_4 1_555 1_555
O2_4 C3_4 1_555 1_555
O4_4 C18_4 1_555 1_555
O20_4 Ce7 1_555 1_555
O26_3 Ce7 1_555 1_555
C3_4 C12_4 1_555 1_555
C9_4 C13_4 1_555 1_555
C12_4 C18_4 1_555 1_555
C13_4 O14_4 1_555 1_555
C17_4 O20_4 1_555 1_555
C18_4 C17_4 1_555 1_555
O29_2 Ce7 1_555 1_555
O33_2 Ce7 1_555 1_555
C3_4 C13_4 1_555 1_555
C9_4 C17_4 1_555 1_555
O26_3 H59_4 1_555 1_555
O26_3 H60_3 1_555 1_555
Cl3_4 C8_4 1_555 1_555
Cl11_4 C29_4 1_555 1_555
O32_2 C19_4 1_555 1_555
O35_2 C11_4 1_555 1_555
C8_4 C19_4 1_555 1_555
C11_4 C19_4 1_555 1_555
C28_4 O3_4 1_555 1_555
C29_4 C11_4 1_555 1_555
C31_4 O6_4 1_555 1_555
C8_4 C28_4 1_555 1_555
C28_4 C31_4 1_555 1_555
C29_4 C31_4 1_555 1_555
Cl2_4 C10_4 1_555 1_555
Cl6_4 C27_4 1_555 1_555
O1_4 C5_4 1_555 1_555
O30_2 C23_4 1_555 1_555
O31 C32_4 1_555 1_555
O34 C35_4 1_555 1_555
H3_4 O27_4 1_555 1_555
H4_4 O27_4 1_555 1_555
C5_4 C6_4 1_555 1_555
C6_4 O15_4 1_555 1_555
C7_4 C15_4 1_555 1_555
C10_4 C6_4 1_555 1_555
C15_4 C5_4 1_555 1_555
C23_4 C7_4 1_555 1_555
C24_4 O10_4 1_555 1_555
C27_4 C24_4 1_555 1_555
C32_4 C27_4 1_555 1_555
C35_4 C32_4 1_555 1_555
C10_4 C23_4 1_555 1_555
C24_4 C33_4 1_555 1_555
Cl4_4 C4_4 1_555 1_555
Cl7_4 C20_4 1_555 1_555
Cl8_4 C34_4 1_555 1_555
Cl10_4 C36_4 1_555 1_555
Cl12_4 C25_4 1_555 1_555
O7_4 Ce4_2 1_555 1_555
H1_4 O7_4 1_555 1_555
H2_4 O7_4 1_555 1_555
O8_4 Ce4_2 1_555 1_555
O9_4 Ce4_2 1_555 1_555
O29_2 C2_4 1_555 1_555
O12_4 Ce2_4 1_555 1_555
O17_4 Ce2_4 1_555 1_555
O18_4 Ce2_4 1_555 1_555
O33_2 C16_4 1_555 1_555
O22_4 Ce2_4 1_555 1_555
O25_4 Ce2_4 1_555 1_555
C1_4 O12_4 1_555 1_555
C2_4 C4_4 1_555 1_555
C4_4 C1_4 1_555 1_555
C14_4 O8_4 1_555 1_555
C16_4 C2_4 1_555 1_555
C20_4 C14_4 1_555 1_555
C21_4 O25_4 1_555 1_555
C22_4 O9_4 1_555 1_555
C25_4 C16_4 1_555 1_555
C26_4 O17_4 1_555 1_555
C30_4 O18_4 1_555 1_555
C36_4 C22_4 1_555 1_555
C1_4 C21_4 1_555 1_555
C14_4 C22_4 1_555 1_555
C20_4 C26_4 1_555 1_555
C21_4 C25_4 1_555 1_555
C26_4 C30_4 1_555 1_555
C30_4 C36_4 1_555 1_555
O26_4 H60_4 1_555 1_555
C48 H15 1_555 1_555
H17 C50 1_555 1_555
C51 C48 1_555 1_555
H18 C51 1_555 1_555
C55 C48 1_555 1_555
H22 C55 1_555 1_555
C50 C51 1_555 1_555
P1 C39 1_555 1_555
C37 H5 1_555 1_555
C38 H6 1_555 1_555
C39 C37 1_555 1_555
C40 P1 1_555 1_555
H7 C40 1_555 1_555
H8 C40 1_555 1_555
H9 C40 1_555 1_555
C41 H10 1_555 1_555
C42 C41 1_555 1_555
H11 C42 1_555 1_555
C43 P1 1_555 1_555
C44 P1 1_555 1_555
C45 C38 1_555 1_555
H12 C45 1_555 1_555
C46 C41 1_555 1_555
H13 C46 1_555 1_555
C47 C37 1_555 1_555
H14 C47 1_555 1_555
C49 C39 1_555 1_555
H16 C49 1_555 1_555
C52 C47 1_555 1_555
H19 C52 1_555 1_555
C53 C43 1_555 1_555
H20 C53 1_555 1_555
C54 C49 1_555 1_555
H21 C54 1_555 1_555
C38 C44 1_555 1_555
C42 C45 1_555 1_555
C44 C46 1_555 1_555
C52 C54 1_555 1_555
P1_2 C39_2 1_555 1_555
C37_2 H5_2 1_555 1_555
C38_2 H6_2 1_555 1_555
C39_2 C37_2 1_555 1_555
C40_2 P1_2 1_555 1_555
H7_2 C40_2 1_555 1_555
H8_2 C40_2 1_555 1_555
H9_2 C40_2 1_555 1_555
C41_2 H10_2 1_555 1_555
C42_2 C41_2 1_555 1_555
H11_2 C42_2 1_555 1_555
C43_2 P1_2 1_555 1_555
C44_2 P1_2 1_555 1_555
C45_2 C38_2 1_555 1_555
H12_2 C45_2 1_555 1_555
C46_2 C41_2 1_555 1_555
H13_2 C46_2 1_555 1_555
C47_2 C37_2 1_555 1_555
H14_2 C47_2 1_555 1_555
C49_2 C39_2 1_555 1_555
H16_2 C49_2 1_555 1_555
C50_2 C43_2 1_555 1_555
H17_2 C50_2 1_555 1_555
C51_2 C48_2 1_555 1_555
H18_2 C51_2 1_555 1_555
C52_2 C47_2 1_555 1_555
H19_2 C52_2 1_555 1_555
C53_2 C43_2 1_555 1_555
H20_2 C53_2 1_555 1_555
C54_2 C49_2 1_555 1_555
H21_2 C54_2 1_555 1_555
C55_2 C48_2 1_555 1_555
C38_2 C44_2 1_555 1_555
C42_2 C45_2 1_555 1_555
C44_2 C46_2 1_555 1_555
C50_2 C51_2 1_555 1_555
C52_2 C54_2 1_555 1_555
C53_2 C55_2 1_555 1_555
P1_3 C39_3 1_555 1_555
C37_3 H5_3 1_555 1_555
C38_3 H6_3 1_555 1_555
C39_3 C37_3 1_555 1_555
C40_3 P1_3 1_555 1_555
H7_3 C40_3 1_555 1_555
H8_3 C40_3 1_555 1_555
H9_3 C40_3 1_555 1_555
C41_3 H10_3 1_555 1_555
C42_3 C41_3 1_555 1_555
H11_3 C42_3 1_555 1_555
C43_3 P1_3 1_555 1_555
C44_3 P1_3 1_555 1_555
C45_3 C38_3 1_555 1_555
H12_3 C45_3 1_555 1_555
C46_3 C41_3 1_555 1_555
H13_3 C46_3 1_555 1_555
C47_3 C37_3 1_555 1_555
H14_3 C47_3 1_555 1_555
C49_3 C39_3 1_555 1_555
H16_3 C49_3 1_555 1_555
C52_3 C47_3 1_555 1_555
H19_3 C52_3 1_555 1_555
C53_3 C43_3 1_555 1_555
H20_3 C53_3 1_555 1_555
C54_3 C49_3 1_555 1_555
H21_3 C54_3 1_555 1_555
C38_3 C44_3 1_555 1_555
C42_3 C45_3 1_555 1_555
C44_3 C46_3 1_555 1_555
C52_3 C54_3 1_555 1_555
C48_3 H15_3 1_555 1_555
H17_3 C50_3 1_555 1_555
C51_3 C48_3 1_555 1_555
H18_3 C51_3 1_555 1_555
C55_3 C48_3 1_555 1_555
H22_3 C55_3 1_555 1_555
C50_3 C51_3 1_555 1_555
P1_4 C39_4 1_555 1_555
C37_4 H5_4 1_555 1_555
C38_4 H6_4 1_555 1_555
C39_4 C37_4 1_555 1_555
C40_4 P1_4 1_555 1_555
H7_4 C40_4 1_555 1_555
H8_4 C40_4 1_555 1_555
H9_4 C40_4 1_555 1_555
C41_4 H10_4 1_555 1_555
C42_4 C41_4 1_555 1_555
H11_4 C42_4 1_555 1_555
C43_4 P1_4 1_555 1_555
C44_4 P1_4 1_555 1_555
C45_4 C38_4 1_555 1_555
H12_4 C45_4 1_555 1_555
C46_4 C41_4 1_555 1_555
H13_4 C46_4 1_555 1_555
C47_4 C37_4 1_555 1_555
H14_4 C47_4 1_555 1_555
C49_4 C39_4 1_555 1_555
H16_4 C49_4 1_555 1_555
C50_4 C43_4 1_555 1_555
H17_4 C50_4 1_555 1_555
C51_4 C48_4 1_555 1_555
H18_4 C51_4 1_555 1_555
C52_4 C47_4 1_555 1_555
H19_4 C52_4 1_555 1_555
C53_4 C43_4 1_555 1_555
H20_4 C53_4 1_555 1_555
C54_4 C49_4 1_555 1_555
H21_4 C54_4 1_555 1_555
C55_4 C48_4 1_555 1_555
C38_4 C44_4 1_555 1_555
C42_4 C45_4 1_555 1_555
C44_4 C46_4 1_555 1_555
C50_4 C51_4 1_555 1_555
C52_4 C54_4 1_555 1_555
C53_4 C55_4 1_555 1_555
P2 C56 1_555 1_555
C56 C57 1_555 1_555
C57 H23 1_555 1_555
C58 H24 1_555 1_555
C59 C57 1_555 1_555
H25 C59 1_555 1_555
C60 C56 1_555 1_555
H26 C60 1_555 1_555
C61 P2 1_555 1_555
C62 P2 1_555 1_555
H27 C62 1_555 1_555
H28 C62 1_555 1_555
H29 C62 1_555 1_555
C63 C59 1_555 1_555
H30 C63 1_555 1_555
C64 C60 1_555 1_555
H31 C64 1_555 1_555
C65 C58 1_555 1_555
H32 C65 1_555 1_555
C66 H33 1_555 1_555
C67 P2 1_555 1_555
C68 C61 1_555 1_555
H34 C68 1_555 1_555
C69 C65 1_555 1_555
H35 C69 1_555 1_555
C70 C68 1_555 1_555
H36 C70 1_555 1_555
C71 C66 1_555 1_555
H37 C71 1_555 1_555
C72 C67 1_555 1_555
H38 C72 1_555 1_555
C73 C71 1_555 1_555
H39 C73 1_555 1_555
C74 C72 1_555 1_555
H40 C74 1_555 1_555
C58 C61 1_555 1_555
C63 C64 1_555 1_555
C66 C67 1_555 1_555
C69 C70 1_555 1_555
C73 C74 1_555 1_555
C58_2 H24_2 1_555 1_555
C61_2 P2_2 1_555 1_555
C62_2 P2_2 1_555 1_555
H27_2 C62_2 1_555 1_555
H28_2 C62_2 1_555 1_555
H29_2 C62_2 1_555 1_555
C66_2 H33_2 1_555 1_555
C67_2 P2_2 1_555 1_555
C68_2 C61_2 1_555 1_555
H34_2 C68_2 1_555 1_555
C71_2 C66_2 1_555 1_555
H37_2 C71_2 1_555 1_555
C73_2 C71_2 1_555 1_555
H39_2 C73_2 1_555 1_555
C58_2 C61_2 1_555 1_555
C66_2 C67_2 1_555 1_555
C73_2 C74_2 1_555 1_555
C56_2 C57_2 1_555 1_555
C57_2 H23_2 1_555 1_555
C59_2 C57_2 1_555 1_555
H25_2 C59_2 1_555 1_555
C60_2 C56_2 1_555 1_555
C63_2 C59_2 1_555 1_555
C69_2 C65_2 1_555 1_555
H35_2 C69_2 1_555 1_555
H36_2 C70_2 1_555 1_555
H38_2 C72_2 1_555 1_555
C69_2 C70_2 1_555 1_555
H31_2 C64_2 1_555 1_555
P2_3 C56_3 1_555 1_555
C56_3 C57_3 1_555 1_555
C57_3 H23_3 1_555 1_555
C58_3 H24_3 1_555 1_555
C59_3 C57_3 1_555 1_555
H25_3 C59_3 1_555 1_555
C60_3 C56_3 1_555 1_555
H26_3 C60_3 1_555 1_555
C61_3 P2_3 1_555 1_555
C62_3 P2_3 1_555 1_555
H27_3 C62_3 1_555 1_555
H28_3 C62_3 1_555 1_555
H29_3 C62_3 1_555 1_555
C63_3 C59_3 1_555 1_555
H30_3 C63_3 1_555 1_555
C64_3 C60_3 1_555 1_555
H31_3 C64_3 1_555 1_555
C65_3 C58_3 1_555 1_555
H32_3 C65_3 1_555 1_555
C66_3 H33_3 1_555 1_555
C67_3 P2_3 1_555 1_555
C68_3 C61_3 1_555 1_555
H34_3 C68_3 1_555 1_555
C69_3 C65_3 1_555 1_555
H35_3 C69_3 1_555 1_555
C70_3 C68_3 1_555 1_555
H36_3 C70_3 1_555 1_555
C71_3 C66_3 1_555 1_555
H37_3 C71_3 1_555 1_555
C72_3 C67_3 1_555 1_555
H38_3 C72_3 1_555 1_555
C73_3 C71_3 1_555 1_555
H39_3 C73_3 1_555 1_555
C74_3 C72_3 1_555 1_555
H40_3 C74_3 1_555 1_555
C58_3 C61_3 1_555 1_555
C63_3 C64_3 1_555 1_555
C66_3 C67_3 1_555 1_555
C69_3 C70_3 1_555 1_555
C73_3 C74_3 1_555 1_555
H31_4 C64_4 1_555 1_555
C56_4 C57_4 1_555 1_555
C57_4 H23_4 1_555 1_555
C59_4 C57_4 1_555 1_555
H25_4 C59_4 1_555 1_555
C60_4 C56_4 1_555 1_555
C63_4 C59_4 1_555 1_555
C69_4 C65_4 1_555 1_555
H35_4 C69_4 1_555 1_555
H36_4 C70_4 1_555 1_555
H38_4 C72_4 1_555 1_555
C69_4 C70_4 1_555 1_555
C58_4 H24_4 1_555 1_555
C61_4 P2_4 1_555 1_555
C62_4 P2_4 1_555 1_555
H27_4 C62_4 1_555 1_555
H28_4 C62_4 1_555 1_555
H29_4 C62_4 1_555 1_555
C66_4 H33_4 1_555 1_555
C67_4 P2_4 1_555 1_555
C68_4 C61_4 1_555 1_555
H34_4 C68_4 1_555 1_555
C71_4 C66_4 1_555 1_555
H37_4 C71_4 1_555 1_555
C73_4 C71_4 1_555 1_555
H39_4 C73_4 1_555 1_555
C58_4 C61_4 1_555 1_555
C66_4 C67_4 1_555 1_555
C73_4 C74_4 1_555 1_555
C89 H54 1_555 1_555
C93 C89 1_555 1_555
H58 C93 1_555 1_555
P3 C75 1_555 1_555
C75 C77 1_555 1_555
C76 P3 1_555 1_555
H41 C76 1_555 1_555
H42 C76 1_555 1_555
H43 C76 1_555 1_555
C77 H44 1_555 1_555
C78 P3 1_555 1_555
C79 C77 1_555 1_555
H45 C79 1_555 1_555
C80 P3 1_555 1_555
C81 C78 1_555 1_555
H46 C81 1_555 1_555
C82 H47 1_555 1_555
C83 C82 1_555 1_555
H48 C83 1_555 1_555
C84 C81 1_555 1_555
H49 C84 1_555 1_555
C85 C78 1_555 1_555
H50 C85 1_555 1_555
C86 C80 1_555 1_555
H51 C86 1_555 1_555
C87 C75 1_555 1_555
H52 C87 1_555 1_555
C88 C79 1_555 1_555
H53 C88 1_555 1_555
C90 C80 1_555 1_555
H55 C90 1_555 1_555
C91 C86 1_555 1_555
C92 C87 1_555 1_555
H57 C92 1_555 1_555
C82 C84 1_555 1_555
C83 C85 1_555 1_555
C88 C92 1_555 1_555
P3_2 C75_2 1_555 1_555
C75_2 C77_2 1_555 1_555
C76_2 P3_2 1_555 1_555
H41_2 C76_2 1_555 1_555
H42_2 C76_2 1_555 1_555
H43_2 C76_2 1_555 1_555
C77_2 H44_2 1_555 1_555
C78_2 P3_2 1_555 1_555
C79_2 C77_2 1_555 1_555
H45_2 C79_2 1_555 1_555
C80_2 P3_2 1_555 1_555
C81_2 C78_2 1_555 1_555
H46_2 C81_2 1_555 1_555
C83_2 C82_2 1_555 1_555
H48_2 C83_2 1_555 1_555
C84_2 C81_2 1_555 1_555
C85_2 C78_2 1_555 1_555
H50_2 C85_2 1_555 1_555
C86_2 C80_2 1_555 1_555
H51_2 C86_2 1_555 1_555
C87_2 C75_2 1_555 1_555
H52_2 C87_2 1_555 1_555
C88_2 C79_2 1_555 1_555
H53_2 C88_2 1_555 1_555
C89_2 H54_2 1_555 1_555
C90_2 C80_2 1_555 1_555
H55_2 C90_2 1_555 1_555
C91_2 C86_2 1_555 1_555
H56_2 C91_2 1_555 1_555
C92_2 C87_2 1_555 1_555
H57_2 C92_2 1_555 1_555
C93_2 C89_2 1_555 1_555
H58_2 C93_2 1_555 1_555
C82_2 C84_2 1_555 1_555
C83_2 C85_2 1_555 1_555
C88_2 C92_2 1_555 1_555
C89_2 C91_2 1_555 1_555
C90_2 C93_2 1_555 1_555
P3_3 C75_3 1_555 1_555
C75_3 C77_3 1_555 1_555
C76_3 P3_3 1_555 1_555
H41_3 C76_3 1_555 1_555
H42_3 C76_3 1_555 1_555
H43_3 C76_3 1_555 1_555
C77_3 H44_3 1_555 1_555
C78_3 P3_3 1_555 1_555
C79_3 C77_3 1_555 1_555
H45_3 C79_3 1_555 1_555
C80_3 P3_3 1_555 1_555
C81_3 C78_3 1_555 1_555
H46_3 C81_3 1_555 1_555
C82_3 H47_3 1_555 1_555
C83_3 C82_3 1_555 1_555
H48_3 C83_3 1_555 1_555
C84_3 C81_3 1_555 1_555
H49_3 C84_3 1_555 1_555
C85_3 C78_3 1_555 1_555
H50_3 C85_3 1_555 1_555
C86_3 C80_3 1_555 1_555
H51_3 C86_3 1_555 1_555
C87_3 C75_3 1_555 1_555
H52_3 C87_3 1_555 1_555
C88_3 C79_3 1_555 1_555
H53_3 C88_3 1_555 1_555
C90_3 C80_3 1_555 1_555
H55_3 C90_3 1_555 1_555
C91_3 C86_3 1_555 1_555
C92_3 C87_3 1_555 1_555
H57_3 C92_3 1_555 1_555
C82_3 C84_3 1_555 1_555
C83_3 C85_3 1_555 1_555
C88_3 C92_3 1_555 1_555
C89_3 H54_3 1_555 1_555
C93_3 C89_3 1_555 1_555
H58_3 C93_3 1_555 1_555
P3_4 C75_4 1_555 1_555
C75_4 C77_4 1_555 1_555
C76_4 P3_4 1_555 1_555
H41_4 C76_4 1_555 1_555
H42_4 C76_4 1_555 1_555
H43_4 C76_4 1_555 1_555
C77_4 H44_4 1_555 1_555
C78_4 P3_4 1_555 1_555
C79_4 C77_4 1_555 1_555
H45_4 C79_4 1_555 1_555
C80_4 P3_4 1_555 1_555
C81_4 C78_4 1_555 1_555
H46_4 C81_4 1_555 1_555
C83_4 C82_4 1_555 1_555
H48_4 C83_4 1_555 1_555
C84_4 C81_4 1_555 1_555
C85_4 C78_4 1_555 1_555
H50_4 C85_4 1_555 1_555
C86_4 C80_4 1_555 1_555
H51_4 C86_4 1_555 1_555
C87_4 C75_4 1_555 1_555
H52_4 C87_4 1_555 1_555
C88_4 C79_4 1_555 1_555
H53_4 C88_4 1_555 1_555
C89_4 H54_4 1_555 1_555
C90_4 C80_4 1_555 1_555
H55_4 C90_4 1_555 1_555
C91_4 C86_4 1_555 1_555
H56_4 C91_4 1_555 1_555
C92_4 C87_4 1_555 1_555
H57_4 C92_4 1_555 1_555
C93_4 C89_4 1_555 1_555
H58_4 C93_4 1_555 1_555
C82_4 C84_4 1_555 1_555
C83_4 C85_4 1_555 1_555
C88_4 C92_4 1_555 1_555
C89_4 C91_4 1_555 1_555
C90_4 C93_4 1_555 1_555

#END
