
###############################################################################
#
# This file contains modified crystal structure data generated from the
# MOF subset of the Cambridge Structural Database (CSD) v543 
# hosted by the Cambridge Crystallographic Data Centre (CCDC).
#
# This work is licensed under the Creative Commons
# Attribution-NonCommercial-ShareAlike 4.0 International License.
# To view a copy of this license, visit
# http://creativecommons.org/licenses/by-nc-sa/4.0/
# or send a letter to
# Creative Commons, PO Box 1866, Mountain View, CA 94042, USA.
#
# CIF created using the CSD Python API on 29 September 2022
# The structure has been converted into the P1 space group
# The structure has a 3D framework
# The original CSD entry JOGHOF is in the monoclinic crystal system
# The framework has been calculated to contain at least 10.0% void space
# The void calculation uses a probe of radius 1.32A, grid spacing 0.4
# The framework is charged, counterions have been retained in the structure
#
###############################################################################

data_JOGHOF
_chemical_formula_moiety         '(C288 H176 Ce8 Cl32 O72 P8)n'
_symmetry_cell_setting           triclinic
_symmetry_space_group_name_H-M   'P 1'
_symmetry_Int_Tables_number      1
_space_group_name_Hall           'P 1'
loop_
_symmetry_equiv_pos_site_id
_symmetry_equiv_pos_as_xyz
1 x,y,z
_cell_length_a                   25.8876(2)
_cell_length_b                   15.68090(10)
_cell_length_c                   20.2420(2)
_cell_angle_alpha                90
_cell_angle_beta                 96.9340(10)
_cell_angle_gamma                90
_cell_volume                     8156.95
loop_
_atom_site_label
_atom_site_type_symbol
_atom_site_fract_x
_atom_site_fract_y
_atom_site_fract_z
Cl2 Cl 0.56623(3) 0.09000(4) 0.39717(3)
O8 O 0.49529(9) 0.17039(13) 0.48613(11)
C11 C 0.52994(11) 0.04065(18) 0.45311(14)
C12 C 0.49924(11) 0.09132(18) 0.48998(14)
O12 O 0.43995(8) 0.09621(13) 0.57068(10)
C16 C 0.46706(11) 0.04735(19) 0.53985(14)
Ce4 Ce 0.42473(2) 0.25003(2) 0.53689(2)
Ce1 Ce 0.57527(2) 0.74997(2) 0.46311(2)
Cl1 Cl 0.75069(3) 0.93428(4) 0.43531(3)
Cl3 Cl 0.48196(3) 0.56529(5) 0.64417(3)
Cl4 Cl 0.61114(3) 0.73815(5) 0.19876(4)
O1 O 0.65961(7) 0.82190(12) 0.44953(10)
O2 O 0.54002(8) 0.65153(12) 0.54324(10)
O3 O 0.84173(7) 0.83222(12) 0.49995(10)
O4 O 0.58608(8) 0.74443(12) 0.34070(11)
O5 O 0.44410(8) 0.40302(13) 0.57495(10)
O6 O 0.50701(9) 0.74271(12) 0.11877(11)
O7 O 0.56005(8) 0.90379(13) 0.42932(10)
O9 O 0.60884(11) 0.81382(16) 0.57573(12)
H1 H 0.589047 0.830130 0.610128
H2 H 0.643786 0.826566 0.592366
C1 C 0.75047(11) 0.83408(17) 0.47173(13)
C2 C 0.52059(10) 0.58005(18) 0.52677(14)
C3 C 0.49290(11) 0.52874(18) 0.56632(13)
C4 C 0.50626(12) 0.74016(17) 0.18016(15)
C5 C 0.47099(11) 0.45111(18) 0.54349(14)
C6 C 0.79767(11) 0.79804(17) 0.49786(13)
C7 C 0.70292(11) 0.79246(17) 0.47219(13)
C8 C 0.53294(11) 0.95265(19) 0.46015(14)
C9 C 0.54790(12) 0.74051(16) 0.29558(16)
C10 C 0.55072(12) 0.73794(19) 0.22751(16)
Cl5 Cl 0.74931(3) 0.56572(4) 0.56469(3)
O10 O 0.84039(7) 0.67810(12) 0.55047(10)
O11 O 0.65827(7) 0.66778(12) 0.50005(10)
C13 C 0.74953(11) 0.66592(17) 0.52827(13)
C14 C 0.70233(11) 0.70196(17) 0.50214(13)
C15 C 0.79708(11) 0.70754(17) 0.52781(13)
Cl6 Cl 0.43377(3) 0.91000(4) 0.60283(3)
O13 O 0.50471(9) 0.82961(13) 0.51387(11)
C17 C 0.47006(11) 0.95935(18) 0.54689(14)
C18 C 0.50076(11) 0.90868(18) 0.51002(14)
Cl7 Cl 0.51804(3) 0.43471(5) 0.35583(3)
O14 O 0.45998(8) 0.34847(12) 0.45676(10)
O15 O 0.55590(8) 0.59698(13) 0.42505(10)
C19 C 0.47941(10) 0.41995(18) 0.47323(14)
C20 C 0.50710(11) 0.47126(18) 0.43368(13)
C21 C 0.52901(11) 0.54889(18) 0.45651(14)
Cl8 Cl 0.38886(3) 0.73815(5) 0.30124(4)
O16 O 0.41392(8) 0.74443(12) 0.15930(11)
O17 O 0.49299(9) 0.74271(12) 0.38123(11)
C22 C 0.49374(12) 0.74016(17) 0.31984(15)
C23 C 0.45210(12) 0.74051(16) 0.20442(16)
C24 C 0.44928(12) 0.73794(19) 0.27249(16)
Ce2 Ce 0.42473(2) 0.74997(2) 0.03689(2)
Ce5 Ce 0.92473(2) 0.75003(2) 0.53689(2)
O19 O 0.34039(7) 0.82190(12) 0.05047(10)
O22 O 0.44410(8) 0.59698(13) 0.07495(10)
O23 O 0.43995(8) 0.90379(13) 0.07068(10)
O18 O 0.39116(11) 0.81382(16) 0.92427(12)
H3 H 0.410953 0.830130 0.889872
H4 H 0.356214 0.826566 0.907634
O20 O 0.45998(8) 0.65153(12) 0.95676(10)
O21 O 0.34173(7) 0.66778(12) 0.99995(10)
O24 O 0.49529(9) 0.82961(13) 0.98613(11)
Cl2_2 Cl 0.43377(3) 0.09000(4) 0.10283(3)
O8_2 O 0.50471(9) 0.17039(13) 0.01387(11)
C11_2 C 0.47006(11) 0.04065(18) 0.04689(14)
C12_2 C 0.50076(11) 0.09132(18) 0.01002(14)
O12_2 O 0.56005(8) 0.09621(13) 0.92932(10)
C16_2 C 0.53294(11) 0.04735(19) 0.96015(14)
Ce4_2 Ce 0.57527(2) 0.25003(2) 0.96311(2)
Cl1_2 Cl 0.24931(3) 0.93428(4) 0.06469(3)
O3_2 O 0.15827(7) 0.83222(12) 0.00005(10)
C1_2 C 0.24953(11) 0.83408(17) 0.02827(13)
C6_2 C 0.20233(11) 0.79804(17) 0.00214(13)
C7_2 C 0.29708(11) 0.79246(17) 0.02781(13)
C8_2 C 0.46706(11) 0.95265(19) 0.03985(14)
Cl7_2 Cl 0.48196(3) 0.43471(5) 0.14417(3)
O14_2 O 0.54002(8) 0.34847(12) 0.04324(10)
C19_2 C 0.52059(10) 0.41995(18) 0.02677(14)
C20_2 C 0.49290(11) 0.47126(18) 0.06632(13)
C21_2 C 0.47099(11) 0.54889(18) 0.04349(14)
Cl3_2 Cl 0.51804(3) 0.56529(5) 0.85583(3)
O5_2 O 0.55590(8) 0.40302(13) 0.92505(10)
C2_2 C 0.47941(10) 0.58005(18) 0.97323(14)
C3_2 C 0.50710(11) 0.52874(18) 0.93368(13)
C5_2 C 0.52901(11) 0.45111(18) 0.95651(14)
Cl5_2 Cl 0.25069(3) 0.56572(4) 0.93531(3)
O10_2 O 0.15961(7) 0.67810(12) 0.94953(10)
C13_2 C 0.25047(11) 0.66592(17) 0.97173(13)
C14_2 C 0.29767(11) 0.70196(17) 0.99786(13)
C15_2 C 0.20292(11) 0.70754(17) 0.97219(13)
Cl6_2 Cl 0.56623(3) 0.91000(4) 0.89717(3)
C17_2 C 0.52994(11) 0.95935(18) 0.95311(14)
C18_2 C 0.49924(11) 0.90868(18) 0.98998(14)
Ce5_2 Ce 0.07527(2) 0.75003(2) 0.96311(2)
Ce1_2 Ce 0.07527(2) 0.24997(2) 0.46311(2)
Cl1_3 Cl 0.25069(3) 0.43428(4) 0.43531(3)
Cl2_3 Cl 0.06623(3) 0.59000(4) 0.39717(3)
Cl4_2 Cl 0.11114(3) 0.23815(5) 0.19876(4)
O1_2 O 0.15961(7) 0.32190(12) 0.44953(10)
O2_2 O 0.04002(8) 0.15153(12) 0.54324(10)
O3_3 O 0.34173(7) 0.33222(12) 0.49995(10)
O4_2 O 0.08608(8) 0.24443(12) 0.34070(11)
O6_2 O 0.00701(9) 0.24271(12) 0.11877(11)
O7_2 O 0.06005(8) 0.40379(13) 0.42932(10)
O9_2 O 0.10884(11) 0.31382(16) 0.57573(12)
H1_2 H 0.089047 0.330130 0.610128
H2_2 H 0.143786 0.326566 0.592366
C1_3 C 0.25047(11) 0.33408(17) 0.47173(13)
C2_3 C 0.02059(10) 0.08005(18) 0.52677(14)
C4_2 C 0.00626(12) 0.24016(17) 0.18016(15)
C6_3 C 0.29767(11) 0.29804(17) 0.49786(13)
C7_3 C 0.20292(11) 0.29246(17) 0.47219(13)
C8_3 C 0.03294(11) 0.45265(19) 0.46015(14)
C9_2 C 0.04790(12) 0.24051(16) 0.29558(16)
C10_2 C 0.05072(12) 0.23794(19) 0.22751(16)
C11_3 C 0.02994(11) 0.54065(18) 0.45311(14)
Cl5_3 Cl 0.24931(3) 0.06572(4) 0.56469(3)
O10_3 O 0.34039(7) 0.17810(12) 0.55047(10)
O11_2 O 0.15827(7) 0.16778(12) 0.50005(10)
C13_3 C 0.24953(11) 0.16592(17) 0.52827(13)
C14_3 C 0.20233(11) 0.20196(17) 0.50214(13)
C15_3 C 0.29708(11) 0.20754(17) 0.52781(13)
O13_2 O 0.00471(9) 0.32961(13) 0.51387(11)
C18_3 C 0.00076(11) 0.40868(18) 0.51002(14)
O15_2 O 0.05590(8) 0.09698(13) 0.42505(10)
C21_3 C 0.02901(11) 0.04889(18) 0.45651(14)
Cl7_3 Cl 0.01804(3) 0.93471(5) 0.35583(3)
C20_3 C 0.00710(11) 0.97126(18) 0.43368(13)
Cl3_3 Cl 0.98196(3) 0.06529(5) 0.64417(3)
O8_3 O 0.99529(9) 0.67039(13) 0.48613(11)
C3_3 C 0.99290(11) 0.02874(18) 0.56632(13)
C12_3 C 0.99924(11) 0.59132(18) 0.48998(14)
Cl6_3 Cl 0.93377(3) 0.41000(4) 0.60283(3)
O12_3 O 0.93995(8) 0.59621(13) 0.57068(10)
C16_3 C 0.96706(11) 0.54735(19) 0.53985(14)
C17_3 C 0.97006(11) 0.45935(18) 0.54689(14)
Cl8_2 Cl 0.88886(3) 0.23815(5) 0.30124(4)
O16_2 O 0.91392(8) 0.24443(12) 0.15930(11)
O17_2 O 0.99299(9) 0.24271(12) 0.38123(11)
C22_2 C 0.99374(12) 0.24016(17) 0.31984(15)
C23_2 C 0.95210(12) 0.24051(16) 0.20442(16)
C24_2 C 0.94928(12) 0.23794(19) 0.27249(16)
Ce2_2 Ce 0.92473(2) 0.24997(2) 0.03689(2)
O19_2 O 0.84039(7) 0.32190(12) 0.05047(10)
O22_2 O 0.94410(8) 0.09698(13) 0.07495(10)
O23_2 O 0.93995(8) 0.40379(13) 0.07068(10)
O18_2 O 0.89116(11) 0.31382(16) 0.92427(12)
H3_2 H 0.910953 0.330130 0.889872
H4_2 H 0.856214 0.326566 0.907634
O20_2 O 0.95998(8) 0.15153(12) 0.95676(10)
O21_2 O 0.84173(7) 0.16778(12) 0.99995(10)
O24_2 O 0.99529(9) 0.32961(13) 0.98613(11)
O5_3 O 0.94410(8) 0.90302(13) 0.57495(10)
C5_3 C 0.97099(11) 0.95111(18) 0.54349(14)
O14_3 O 0.95998(8) 0.84847(12) 0.45676(10)
C19_3 C 0.97941(10) 0.91995(18) 0.47323(14)
O8_4 O 0.00471(9) 0.67039(13) 0.01387(11)
C12_4 C 0.00076(11) 0.59132(18) 0.01002(14)
Cl3_4 Cl 0.01804(3) 0.06529(5) 0.85583(3)
C3_4 C 0.00710(11) 0.02874(18) 0.93368(13)
Cl6_4 Cl 0.06623(3) 0.41000(4) 0.89717(3)
O12_4 O 0.06005(8) 0.59621(13) 0.92932(10)
C16_4 C 0.03294(11) 0.54735(19) 0.96015(14)
C17_4 C 0.02994(11) 0.45935(18) 0.95311(14)
O14_4 O 0.04002(8) 0.84847(12) 0.04324(10)
C19_4 C 0.02059(10) 0.91995(18) 0.02677(14)
O5_4 O 0.05590(8) 0.90302(13) 0.92505(10)
C5_4 C 0.02901(11) 0.95111(18) 0.95651(14)
Cl1_4 Cl 0.74931(3) 0.43428(4) 0.06469(3)
Cl2_4 Cl 0.93377(3) 0.59000(4) 0.10283(3)
O3_4 O 0.65827(7) 0.33222(12) 0.00005(10)
C1_4 C 0.74953(11) 0.33408(17) 0.02827(13)
C6_4 C 0.70233(11) 0.29804(17) 0.00214(13)
C7_4 C 0.79708(11) 0.29246(17) 0.02781(13)
C8_4 C 0.96706(11) 0.45265(19) 0.03985(14)
C11_4 C 0.97006(11) 0.54065(18) 0.04689(14)
C21_4 C 0.97099(11) 0.04889(18) 0.04349(14)
C2_4 C 0.97941(10) 0.08005(18) 0.97323(14)
Cl5_4 Cl 0.75069(3) 0.06572(4) 0.93531(3)
O10_4 O 0.65961(7) 0.17810(12) 0.94953(10)
C13_4 C 0.75047(11) 0.16592(17) 0.97173(13)
C14_4 C 0.79767(11) 0.20196(17) 0.99786(13)
C15_4 C 0.70292(11) 0.20754(17) 0.97219(13)
C18_4 C 0.99924(11) 0.40868(18) 0.98998(14)
Cl7_4 Cl 0.98196(3) 0.93471(5) 0.14417(3)
C20_4 C 0.99290(11) 0.97126(18) 0.06632(13)
O18_3 O 0.60884(11) 0.18618(16) 0.07573(12)
H3_3 H 0.589047 0.169870 0.110128
H4_3 H 0.643786 0.173434 0.092366
Cl4_3 Cl 0.38886(3) 0.26185(5) 0.80124(4)
O4_3 O 0.41392(8) 0.25557(12) 0.65930(11)
O6_3 O 0.49299(9) 0.25729(12) 0.88123(11)
O9_3 O 0.39116(11) 0.18618(16) 0.42427(12)
H1_3 H 0.410953 0.169870 0.389872
H2_3 H 0.356214 0.173434 0.407634
C4_3 C 0.49374(12) 0.25984(17) 0.81984(15)
C9_3 C 0.45210(12) 0.25949(16) 0.70442(16)
C10_3 C 0.44928(12) 0.26206(19) 0.77249(16)
Cl8_3 Cl 0.61114(3) 0.26185(5) 0.69876(4)
O16_3 O 0.58608(8) 0.25557(12) 0.84070(11)
O17_3 O 0.50701(9) 0.25729(12) 0.61877(11)
C22_3 C 0.50626(12) 0.25984(17) 0.68016(15)
C23_3 C 0.54790(12) 0.25949(16) 0.79558(16)
C24_3 C 0.55072(12) 0.26206(19) 0.72751(16)
O18_4 O 0.10884(11) 0.68618(16) 0.07573(12)
H3_4 H 0.089047 0.669870 0.110128
H4_4 H 0.143786 0.673434 0.092366
Cl8_4 Cl 0.11114(3) 0.76185(5) 0.69876(4)
O16_4 O 0.08608(8) 0.75557(12) 0.84070(11)
O17_4 O 0.00701(9) 0.75729(12) 0.61877(11)
C22_4 C 0.00626(12) 0.75984(17) 0.68016(15)
C23_4 C 0.04790(12) 0.75949(16) 0.79558(16)
C24_4 C 0.05072(12) 0.76206(19) 0.72751(16)
Cl4_4 Cl 0.88886(3) 0.76185(5) 0.80124(4)
O4_4 O 0.91392(8) 0.75557(12) 0.65930(11)
O6_4 O 0.99299(9) 0.75729(12) 0.88123(11)
O9_4 O 0.89116(11) 0.68618(16) 0.42427(12)
H1_4 H 0.910953 0.669870 0.389872
H2_4 H 0.856214 0.673434 0.407634
C4_4 C 0.99374(12) 0.75984(17) 0.81984(15)
C9_4 C 0.95210(12) 0.75949(16) 0.70442(16)
C10_4 C 0.94928(12) 0.76206(19) 0.77249(16)
P1 P 0.79925(3) 0.15495(5) 0.63251(3)
C25 C 0.86960(11) 0.06296(19) 0.47868(14)
H5 H 0.872324 0.011129 0.457042
C26 C 0.89595(12) 0.1340(2) 0.45886(15)
H6 H 0.916669 0.129108 0.424584
C27 C 0.83501(11) 0.14777(19) 0.56205(14)
C28 C 0.65671(13) 0.0620(2) 0.65367(17)
H7 H 0.636906 0.054125 0.688582
C29 C 0.83385(12) 0.0999(2) 0.70277(15)
C30 C 0.83472(13) 0.3074(2) 0.69028(15)
H8 H 0.866051 0.279146 0.702106
C31 C 0.86503(12) 0.0306(2) 0.69278(15)
H9 H 0.868354 0.011871 0.649922
C32 C 0.73545(11) 0.10960(19) 0.61316(15)
C33 C 0.83923(11) 0.06886(19) 0.53059(14)
H10 H 0.821970 0.021194 0.544263
C34 C 0.86094(13) 0.2194(2) 0.54122(15)
H11 H 0.857662 0.271889 0.561752
C35 C 0.70595(13) 0.0969(2) 0.66571(15)
H12 H 0.719439 0.112011 0.708799
C36 C 0.74532(13) 0.3065(2) 0.63801(15)
H13 H 0.717373 0.277956 0.614637
C37 C 0.79225(13) 0.26465(19) 0.65545(15)
C38 C 0.89151(13) 0.2118(2) 0.48986(15)
H14 H 0.909087 0.259142 0.476194
C39 C 0.71488(13) 0.0886(2) 0.54857(16)
H15 H 0.733830 0.099015 0.513197
C40 C 0.63691(13) 0.0387(2) 0.58977(18)
H16 H 0.604055 0.014112 0.581869
C41 C 0.74050(14) 0.3918(2) 0.65588(16)
H17 H 0.709168 0.420320 0.644787
C42 C 0.85508(15) 0.0860(2) 0.82126(16)
H18 H 0.851802 0.104392 0.864241
C43 C 0.82827(13) 0.1282(2) 0.76703(15)
H19 H 0.806979 0.174491 0.773454
C44 C 0.78247(15) 0.4337(2) 0.69016(16)
H20 H 0.779178 0.490541 0.702202
C45 C 0.82932(15) 0.3919(2) 0.70669(16)
H21 H 0.857418 0.421118 0.729082
C46 C 0.66590(13) 0.0520(3) 0.53737(17)
H22 H 0.652380 0.036231 0.494459
C48 C 0.88643(13) 0.0172(2) 0.81157(17)
C47 C 0.89153(13) 0.9892(2) 0.74800(17)
H23 H 0.912666 0.942611 0.741873
H24 H 0.904250 0.989512 0.848059
C25_2 C 0.13040(11) 0.06296(19) 0.02132(14)
H5_2 H 0.127676 0.011129 0.042958
C26_2 C 0.10405(12) 0.1340(2) 0.04114(15)
H6_2 H 0.083331 0.129108 0.075416
C38_2 C 0.10849(13) 0.2118(2) 0.01014(15)
H14_2 H 0.090913 0.259142 0.023806
H22_2 H 0.347620 0.036231 0.005541
P1_2 P 0.20075(3) 0.15495(5) 0.86749(3)
C27_2 C 0.16499(11) 0.14777(19) 0.93795(14)
C28_2 C 0.34329(13) 0.0620(2) 0.84633(17)
H7_2 H 0.363094 0.054125 0.811418
C29_2 C 0.16615(12) 0.0999(2) 0.79723(15)
C30_2 C 0.16528(13) 0.3074(2) 0.80972(15)
H8_2 H 0.133949 0.279146 0.797894
C31_2 C 0.13497(12) 0.0306(2) 0.80722(15)
H9_2 H 0.131646 0.011871 0.850078
C32_2 C 0.26455(11) 0.10960(19) 0.88684(15)
C33_2 C 0.16077(11) 0.06886(19) 0.96941(14)
H10_2 H 0.178030 0.021194 0.955737
C34_2 C 0.13906(13) 0.2194(2) 0.95878(15)
H11_2 H 0.142338 0.271889 0.938248
C35_2 C 0.29405(13) 0.0969(2) 0.83429(15)
H12_2 H 0.280561 0.112011 0.791201
C36_2 C 0.25468(13) 0.3065(2) 0.86199(15)
H13_2 H 0.282627 0.277956 0.885363
C37_2 C 0.20775(13) 0.26465(19) 0.84455(15)
C39_2 C 0.28512(13) 0.0886(2) 0.95143(16)
H15_2 H 0.266170 0.099015 0.986803
C40_2 C 0.36309(13) 0.0387(2) 0.91023(18)
H16_2 H 0.395945 0.014112 0.918131
C41_2 C 0.25950(14) 0.3918(2) 0.84412(16)
H17_2 H 0.290832 0.420320 0.855213
C42_2 C 0.14492(15) 0.0860(2) 0.67874(16)
H18_2 H 0.148198 0.104392 0.635759
C43_2 C 0.17173(13) 0.1282(2) 0.73297(15)
H19_2 H 0.193021 0.174491 0.726546
C44_2 C 0.21753(15) 0.4337(2) 0.80984(16)
H20_2 H 0.220822 0.490541 0.797798
C45_2 C 0.17068(15) 0.3919(2) 0.79331(16)
H21_2 H 0.142582 0.421118 0.770918
C46_2 C 0.33410(13) 0.0520(3) 0.96263(17)
C48_2 C 0.11357(13) 0.0172(2) 0.68843(17)
C47_2 C 0.10847(13) 0.9892(2) 0.75200(17)
H23_2 H 0.087334 0.942611 0.758127
H24_2 H 0.095750 0.989512 0.651941
P1_3 P 0.29925(3) 0.65495(5) 0.63251(3)
C25_3 C 0.36960(11) 0.56296(19) 0.47868(14)
H5_3 H 0.372324 0.511129 0.457042
C26_3 C 0.39595(12) 0.6340(2) 0.45886(15)
H6_3 H 0.416669 0.629108 0.424584
C27_3 C 0.33501(11) 0.64777(19) 0.56205(14)
C28_3 C 0.15671(13) 0.5620(2) 0.65367(17)
H7_3 H 0.136906 0.554125 0.688582
C29_3 C 0.33385(12) 0.5999(2) 0.70277(15)
C30_3 C 0.33472(13) 0.8074(2) 0.69028(15)
H8_3 H 0.366051 0.779146 0.702106
C31_3 C 0.36503(12) 0.5306(2) 0.69278(15)
H9_3 H 0.368354 0.511871 0.649922
C32_3 C 0.23545(11) 0.60960(19) 0.61316(15)
C33_3 C 0.33923(11) 0.56886(19) 0.53059(14)
H10_3 H 0.321970 0.521194 0.544263
C34_3 C 0.36094(13) 0.7194(2) 0.54122(15)
H11_3 H 0.357662 0.771889 0.561752
C35_3 C 0.20595(13) 0.5969(2) 0.66571(15)
H12_3 H 0.219439 0.612011 0.708799
C36_3 C 0.24532(13) 0.8065(2) 0.63801(15)
H13_3 H 0.217373 0.777956 0.614637
C37_3 C 0.29225(13) 0.76465(19) 0.65545(15)
C38_3 C 0.39151(13) 0.7118(2) 0.48986(15)
H14_3 H 0.409087 0.759142 0.476194
C39_3 C 0.21488(13) 0.5886(2) 0.54857(16)
H15_3 H 0.233830 0.599015 0.513197
C40_3 C 0.13691(13) 0.5387(2) 0.58977(18)
H16_3 H 0.104055 0.514112 0.581869
C41_3 C 0.24050(14) 0.8918(2) 0.65588(16)
H17_3 H 0.209168 0.920320 0.644787
C42_3 C 0.35508(15) 0.5860(2) 0.82126(16)
H18_3 H 0.351802 0.604392 0.864241
C43_3 C 0.32827(13) 0.6282(2) 0.76703(15)
H19_3 H 0.306979 0.674491 0.773454
C44_3 C 0.28247(15) 0.9337(2) 0.69016(16)
H20_3 H 0.279178 0.990541 0.702202
C45_3 C 0.32932(15) 0.8919(2) 0.70669(16)
H21_3 H 0.357418 0.921118 0.729082
C46_3 C 0.16590(13) 0.5520(3) 0.53737(17)
H22_3 H 0.152380 0.536231 0.494459
C47_3 C 0.39153(13) 0.4892(2) 0.74800(17)
H23_3 H 0.412666 0.442611 0.741873
C48_3 C 0.38643(13) 0.5172(2) 0.81157(17)
H24_3 H 0.404250 0.489512 0.848059
C25_4 C 0.63040(11) 0.56296(19) 0.02132(14)
H5_4 H 0.627676 0.511129 0.042958
C26_4 C 0.60405(12) 0.6340(2) 0.04114(15)
H6_4 H 0.583331 0.629108 0.075416
C38_4 C 0.60849(13) 0.7118(2) 0.01014(15)
H14_4 H 0.590913 0.759142 0.023806
H22_4 H 0.847620 0.536231 0.005541
P1_4 P 0.70075(3) 0.65495(5) 0.86749(3)
C27_4 C 0.66499(11) 0.64777(19) 0.93795(14)
C28_4 C 0.84329(13) 0.5620(2) 0.84633(17)
H7_4 H 0.863094 0.554125 0.811418
C29_4 C 0.66615(12) 0.5999(2) 0.79723(15)
C30_4 C 0.66528(13) 0.8074(2) 0.80972(15)
H8_4 H 0.633949 0.779146 0.797894
C31_4 C 0.63497(12) 0.5306(2) 0.80722(15)
H9_4 H 0.631646 0.511871 0.850078
C32_4 C 0.76455(11) 0.60960(19) 0.88684(15)
C33_4 C 0.66077(11) 0.56886(19) 0.96941(14)
H10_4 H 0.678030 0.521194 0.955737
C34_4 C 0.63906(13) 0.7194(2) 0.95878(15)
H11_4 H 0.642338 0.771889 0.938248
C35_4 C 0.79405(13) 0.5969(2) 0.83429(15)
H12_4 H 0.780561 0.612011 0.791201
C36_4 C 0.75468(13) 0.8065(2) 0.86199(15)
H13_4 H 0.782627 0.777956 0.885363
C37_4 C 0.70775(13) 0.76465(19) 0.84455(15)
C39_4 C 0.78512(13) 0.5886(2) 0.95143(16)
H15_4 H 0.766170 0.599015 0.986803
C40_4 C 0.86309(13) 0.5387(2) 0.91023(18)
H16_4 H 0.895945 0.514112 0.918131
C41_4 C 0.75950(14) 0.8918(2) 0.84412(16)
H17_4 H 0.790832 0.920320 0.855213
C42_4 C 0.64492(15) 0.5860(2) 0.67874(16)
H18_4 H 0.648198 0.604392 0.635759
C43_4 C 0.67173(13) 0.6282(2) 0.73297(15)
H19_4 H 0.693021 0.674491 0.726546
C44_4 C 0.71753(15) 0.9337(2) 0.80984(16)
H20_4 H 0.720822 0.990541 0.797798
C45_4 C 0.67068(15) 0.8919(2) 0.79331(16)
H21_4 H 0.642582 0.921118 0.770918
C46_4 C 0.83410(13) 0.5520(3) 0.96263(17)
C47_4 C 0.60847(13) 0.4892(2) 0.75200(17)
H23_4 H 0.587334 0.442611 0.758127
C48_4 C 0.61357(13) 0.5172(2) 0.68843(17)
H24_4 H 0.595750 0.489512 0.651941
C47_5 C 0.10847(13) 0.0108(2) 0.25200(17)
H23_5 H 0.087334 0.057389 0.258127
H24_5 H 0.095750 0.010488 0.151941
P1_5 P 0.20075(3) 0.84505(5) 0.36749(3)
C25_5 C 0.13040(11) 0.93704(19) 0.52132(14)
H5_5 H 0.127676 0.988871 0.542958
C26_5 C 0.10405(12) 0.8660(2) 0.54114(15)
H6_5 H 0.083331 0.870892 0.575416
C27_5 C 0.16499(11) 0.85223(19) 0.43795(14)
C28_5 C 0.34329(13) 0.9380(2) 0.34633(17)
H7_5 H 0.363094 0.945875 0.311418
C29_5 C 0.16615(12) 0.9001(2) 0.29723(15)
C30_5 C 0.16528(13) 0.6926(2) 0.30972(15)
H8_5 H 0.133949 0.720854 0.297894
C31_5 C 0.13497(12) 0.9694(2) 0.30722(15)
H9_5 H 0.131646 0.988129 0.350078
C32_5 C 0.26455(11) 0.89040(19) 0.38684(15)
C33_5 C 0.16077(11) 0.93114(19) 0.46941(14)
H10_5 H 0.178030 0.978806 0.455737
C34_5 C 0.13906(13) 0.7806(2) 0.45878(15)
H11_5 H 0.142338 0.728111 0.438248
C35_5 C 0.29405(13) 0.9031(2) 0.33429(15)
H12_5 H 0.280561 0.887989 0.291201
C36_5 C 0.25468(13) 0.6935(2) 0.36199(15)
H13_5 H 0.282627 0.722044 0.385363
C37_5 C 0.20775(13) 0.73535(19) 0.34455(15)
C38_5 C 0.10849(13) 0.7882(2) 0.51014(15)
H14_5 H 0.090913 0.740858 0.523806
C39_5 C 0.28512(13) 0.9114(2) 0.45143(16)
H15_5 H 0.266170 0.900985 0.486803
C40_5 C 0.36309(13) 0.9613(2) 0.41023(18)
H16_5 H 0.395945 0.985888 0.418131
C41_5 C 0.25950(14) 0.6082(2) 0.34412(16)
H17_5 H 0.290832 0.579680 0.355213
C42_5 C 0.14492(15) 0.9140(2) 0.17874(16)
H18_5 H 0.148198 0.895608 0.135759
C43_5 C 0.17173(13) 0.8718(2) 0.23297(15)
H19_5 H 0.193021 0.825509 0.226546
C44_5 C 0.21753(15) 0.5663(2) 0.30984(16)
H20_5 H 0.220822 0.509459 0.297798
C45_5 C 0.17068(15) 0.6081(2) 0.29331(16)
H21_5 H 0.142582 0.578882 0.270918
C46_5 C 0.33410(13) 0.9480(3) 0.46263(17)
H22_5 H 0.347620 0.963769 0.505541
C48_5 C 0.11357(13) 0.9828(2) 0.18843(17)
C47_6 C 0.89153(13) 0.0108(2) 0.24800(17)
H23_6 H 0.912666 0.057389 0.241873
H24_6 H 0.904250 0.010488 0.348059
P1_6 P 0.79925(3) 0.84505(5) 0.13251(3)
C27_6 C 0.83501(11) 0.85223(19) 0.06205(14)
C28_6 C 0.65671(13) 0.9380(2) 0.15367(17)
H7_6 H 0.636906 0.945875 0.188582
C29_6 C 0.83385(12) 0.9001(2) 0.20277(15)
C30_6 C 0.83472(13) 0.6926(2) 0.19028(15)
H8_6 H 0.866051 0.720854 0.202106
C31_6 C 0.86503(12) 0.9694(2) 0.19278(15)
H9_6 H 0.868354 0.988129 0.149922
C32_6 C 0.73545(11) 0.89040(19) 0.11316(15)
C33_6 C 0.83923(11) 0.93114(19) 0.03059(14)
H10_6 H 0.821970 0.978806 0.044263
C34_6 C 0.86094(13) 0.7806(2) 0.04122(15)
H11_6 H 0.857662 0.728111 0.061752
C35_6 C 0.70595(13) 0.9031(2) 0.16571(15)
H12_6 H 0.719439 0.887989 0.208799
C36_6 C 0.74532(13) 0.6935(2) 0.13801(15)
H13_6 H 0.717373 0.722044 0.114637
C37_6 C 0.79225(13) 0.73535(19) 0.15545(15)
C39_6 C 0.71488(13) 0.9114(2) 0.04857(16)
H15_6 H 0.733830 0.900985 0.013197
C40_6 C 0.63691(13) 0.9613(2) 0.08977(18)
H16_6 H 0.604055 0.985888 0.081869
C41_6 C 0.74050(14) 0.6082(2) 0.15588(16)
H17_6 H 0.709168 0.579680 0.144787
C42_6 C 0.85508(15) 0.9140(2) 0.32126(16)
H18_6 H 0.851802 0.895608 0.364241
C43_6 C 0.82827(13) 0.8718(2) 0.26703(15)
H19_6 H 0.806979 0.825509 0.273454
C44_6 C 0.78247(15) 0.5663(2) 0.19016(16)
H20_6 H 0.779178 0.509459 0.202202
C45_6 C 0.82932(15) 0.6081(2) 0.20669(16)
H21_6 H 0.857418 0.578882 0.229082
C46_6 C 0.66590(13) 0.9480(3) 0.03737(17)
C48_6 C 0.88643(13) 0.9828(2) 0.31157(17)
C25_6 C 0.86960(11) 0.93704(19) 0.97868(14)
H5_6 H 0.872324 0.988871 0.957042
C26_6 C 0.89595(12) 0.8660(2) 0.95886(15)
H6_6 H 0.916669 0.870892 0.924584
C38_6 C 0.89151(13) 0.7882(2) 0.98986(15)
H14_6 H 0.909087 0.740858 0.976194
H22_6 H 0.652380 0.963769 0.994459
P1_7 P 0.70075(3) 0.34505(5) 0.36749(3)
C25_7 C 0.63040(11) 0.43704(19) 0.52132(14)
H5_7 H 0.627676 0.488871 0.542958
C26_7 C 0.60405(12) 0.3660(2) 0.54114(15)
H6_7 H 0.583331 0.370892 0.575416
C27_7 C 0.66499(11) 0.35223(19) 0.43795(14)
C28_7 C 0.84329(13) 0.4380(2) 0.34633(17)
H7_7 H 0.863094 0.445875 0.311418
C29_7 C 0.66615(12) 0.4001(2) 0.29723(15)
C30_7 C 0.66528(13) 0.1926(2) 0.30972(15)
H8_7 H 0.633949 0.220854 0.297894
C31_7 C 0.63497(12) 0.4694(2) 0.30722(15)
H9_7 H 0.631646 0.488129 0.350078
C32_7 C 0.76455(11) 0.39040(19) 0.38684(15)
C33_7 C 0.66077(11) 0.43114(19) 0.46941(14)
H10_7 H 0.678030 0.478806 0.455737
C34_7 C 0.63906(13) 0.2806(2) 0.45878(15)
H11_7 H 0.642338 0.228111 0.438248
C35_7 C 0.79405(13) 0.4031(2) 0.33429(15)
H12_7 H 0.780561 0.387989 0.291201
C36_7 C 0.75468(13) 0.1935(2) 0.36199(15)
H13_7 H 0.782627 0.222044 0.385363
C37_7 C 0.70775(13) 0.23535(19) 0.34455(15)
C38_7 C 0.60849(13) 0.2882(2) 0.51014(15)
H14_7 H 0.590913 0.240858 0.523806
C39_7 C 0.78512(13) 0.4114(2) 0.45143(16)
H15_7 H 0.766170 0.400985 0.486803
C40_7 C 0.86309(13) 0.4613(2) 0.41023(18)
H16_7 H 0.895945 0.485888 0.418131
C41_7 C 0.75950(14) 0.1082(2) 0.34412(16)
H17_7 H 0.790832 0.079680 0.355213
C42_7 C 0.64492(15) 0.4140(2) 0.17874(16)
H18_7 H 0.648198 0.395608 0.135759
C43_7 C 0.67173(13) 0.3718(2) 0.23297(15)
H19_7 H 0.693021 0.325509 0.226546
C44_7 C 0.71753(15) 0.0663(2) 0.30984(16)
H20_7 H 0.720822 0.009459 0.297798
C45_7 C 0.67068(15) 0.1081(2) 0.29331(16)
H21_7 H 0.642582 0.078882 0.270918
C46_7 C 0.83410(13) 0.4480(3) 0.46263(17)
H22_7 H 0.847620 0.463769 0.505541
C47_7 C 0.60847(13) 0.5108(2) 0.25200(17)
H23_7 H 0.587334 0.557389 0.258127
C48_7 C 0.61357(13) 0.4828(2) 0.18843(17)
H24_7 H 0.595750 0.510488 0.151941
P1_8 P 0.29925(3) 0.34505(5) 0.13251(3)
C27_8 C 0.33501(11) 0.35223(19) 0.06205(14)
C28_8 C 0.15671(13) 0.4380(2) 0.15367(17)
H7_8 H 0.136906 0.445875 0.188582
C29_8 C 0.33385(12) 0.4001(2) 0.20277(15)
C30_8 C 0.33472(13) 0.1926(2) 0.19028(15)
H8_8 H 0.366051 0.220854 0.202106
C31_8 C 0.36503(12) 0.4694(2) 0.19278(15)
H9_8 H 0.368354 0.488129 0.149922
C32_8 C 0.23545(11) 0.39040(19) 0.11316(15)
C33_8 C 0.33923(11) 0.43114(19) 0.03059(14)
H10_8 H 0.321970 0.478806 0.044263
C34_8 C 0.36094(13) 0.2806(2) 0.04122(15)
H11_8 H 0.357662 0.228111 0.061752
C35_8 C 0.20595(13) 0.4031(2) 0.16571(15)
H12_8 H 0.219439 0.387989 0.208799
C36_8 C 0.24532(13) 0.1935(2) 0.13801(15)
H13_8 H 0.217373 0.222044 0.114637
C37_8 C 0.29225(13) 0.23535(19) 0.15545(15)
C39_8 C 0.21488(13) 0.4114(2) 0.04857(16)
H15_8 H 0.233830 0.400985 0.013197
C40_8 C 0.13691(13) 0.4613(2) 0.08977(18)
H16_8 H 0.104055 0.485888 0.081869
C41_8 C 0.24050(14) 0.1082(2) 0.15588(16)
H17_8 H 0.209168 0.079680 0.144787
C42_8 C 0.35508(15) 0.4140(2) 0.32126(16)
H18_8 H 0.351802 0.395608 0.364241
C43_8 C 0.32827(13) 0.3718(2) 0.26703(15)
H19_8 H 0.306979 0.325509 0.273454
C44_8 C 0.28247(15) 0.0663(2) 0.19016(16)
H20_8 H 0.279178 0.009459 0.202202
C45_8 C 0.32932(15) 0.1081(2) 0.20669(16)
H21_8 H 0.357418 0.078882 0.229082
C46_8 C 0.16590(13) 0.4480(3) 0.03737(17)
C47_8 C 0.39153(13) 0.5108(2) 0.24800(17)
H23_8 H 0.412666 0.557389 0.241873
C48_8 C 0.38643(13) 0.4828(2) 0.31157(17)
H24_8 H 0.404250 0.510488 0.348059
C25_8 C 0.36960(11) 0.43704(19) 0.97868(14)
H5_8 H 0.372324 0.488871 0.957042
C26_8 C 0.39595(12) 0.3660(2) 0.95886(15)
H6_8 H 0.416669 0.370892 0.924584
C38_8 C 0.39151(13) 0.2882(2) 0.98986(15)
H14_8 H 0.409087 0.240858 0.976194
H22_8 H 0.152380 0.463769 0.994459
loop_
_geom_bond_atom_site_label_1
_geom_bond_atom_site_label_2
_geom_bond_site_symmetry_1
_geom_bond_site_symmetry_2
Cl2 C11 1_555 1_555
O8 C12 1_555 1_555
C12 C11 1_555 1_555
O12 C16 1_555 1_555
C16 C12 1_555 1_555
Ce4 O8 1_555 1_555
O12 Ce4 1_555 1_555
Ce1 O1 1_555 1_555
Cl1 C1 1_555 1_555
Cl3 C3 1_555 1_555
Cl4 C10 1_555 1_555
O1 C7 1_555 1_555
O2 Ce1 1_555 1_555
O3 C6 1_555 1_555
O4 Ce1 1_555 1_555
O5 C5 1_555 1_555
O6 C4 1_555 1_555
O7 Ce1 1_555 1_555
O9 Ce1 1_555 1_555
H1 O9 1_555 1_555
H2 O9 1_555 1_555
C1 C6 1_555 1_555
C2 O2 1_555 1_555
C3 C2 1_555 1_555
C4 C10 1_555 1_555
C5 C3 1_555 1_555
C6 C15 1_555 1_555
C7 C1 1_555 1_555
C8 O7 1_555 1_555
C9 O4 1_555 1_555
C10 C9 1_555 1_555
Cl5 C13 1_555 1_555
O10 C15 1_555 1_555
O11 Ce1 1_555 1_555
C13 C14 1_555 1_555
C14 C7 1_555 1_555
C15 C13 1_555 1_555
Cl6 C17 1_555 1_555
O13 Ce1 1_555 1_555
C18 C8 1_555 1_555
Cl7 C20 1_555 1_555
O14 C19 1_555 1_555
O15 Ce1 1_555 1_555
C19 C5 1_555 1_555
C20 C19 1_555 1_555
C21 C2 1_555 1_555
Cl8 C24 1_555 1_555
O16 C23 1_555 1_555
O17 Ce1 1_555 1_555
C22 C9 1_555 1_555
C23 C4 1_555 1_555
C24 C22 1_555 1_555
Ce2 O6 1_555 1_555
Ce4 O5 1_555 1_555
Ce5 O3 1_555 1_555
O19 Ce2 1_555 1_555
O22 Ce2 1_555 1_555
O23 Ce2 1_555 1_555
O10 Ce5 1_555 1_555
O11 C14 1_555 1_555
O13 C18 1_555 1_555
C17 C18 1_555 1_555
O14 Ce4 1_555 1_555
O15 C21 1_555 1_555
C20 C21 1_555 1_555
O16 Ce2 1_555 1_555
O17 C22 1_555 1_555
C23 C24 1_555 1_555
H3 O18 1_555 1_555
H4 O18 1_555 1_555
Cl2_2 C11_2 1_555 1_555
O8_2 C12_2 1_555 1_555
C12_2 C11_2 1_555 1_555
O12_2 C16_2 1_555 1_555
O12_2 Ce4_2 1_555 1_555
Cl1_2 C1_2 1_555 1_555
O19 C7_2 1_555 1_555
O3_2 C6_2 1_555 1_555
C1_2 C6_2 1_555 1_555
C7_2 C1_2 1_555 1_555
C8_2 O23 1_555 1_555
Cl7_2 C20_2 1_555 1_555
O14_2 C19_2 1_555 1_555
C20_2 C19_2 1_555 1_555
O22 C21_2 1_555 1_555
C20_2 C21_2 1_555 1_555
Cl3_2 C3_2 1_555 1_555
O5_2 C5_2 1_555 1_555
C2_2 O20 1_555 1_555
C3_2 C2_2 1_555 1_555
C5_2 C3_2 1_555 1_555
Cl5_2 C13_2 1_555 1_555
O10_2 C15_2 1_555 1_555
C13_2 C14_2 1_555 1_555
C15_2 C13_2 1_555 1_555
Cl6_2 C17_2 1_555 1_555
Ce4_2 O5_2 1_555 1_555
O10_2 Ce5_2 1_555 1_555
O21 C14_2 1_555 1_555
O24 C18_2 1_555 1_555
C17_2 C18_2 1_555 1_555
Ce1_2 O1_2 1_555 1_555
Cl1_3 C1_3 1_555 1_555
Cl2_3 C11_3 1_555 1_555
Cl4_2 C10_2 1_555 1_555
O1_2 C7_3 1_555 1_555
O2_2 Ce1_2 1_555 1_555
O3_3 C6_3 1_555 1_555
O4_2 Ce1_2 1_555 1_555
O6_2 C4_2 1_555 1_555
O7_2 Ce1_2 1_555 1_555
O9_2 Ce1_2 1_555 1_555
H1_2 O9_2 1_555 1_555
H2_2 O9_2 1_555 1_555
C1_3 C6_3 1_555 1_555
C2_3 O2_2 1_555 1_555
C4_2 C10_2 1_555 1_555
C6_3 C15_3 1_555 1_555
C7_3 C1_3 1_555 1_555
C8_3 O7_2 1_555 1_555
C9_2 O4_2 1_555 1_555
C10_2 C9_2 1_555 1_555
C11_3 C8_3 1_555 1_555
Cl5_3 C13_3 1_555 1_555
O10_3 C15_3 1_555 1_555
O11_2 Ce1_2 1_555 1_555
C13_3 C14_3 1_555 1_555
C14_3 C7_3 1_555 1_555
C15_3 C13_3 1_555 1_555
O13_2 Ce1_2 1_555 1_555
C18_3 C8_3 1_555 1_555
O15_2 Ce1_2 1_555 1_555
C21_3 C2_3 1_555 1_555
Ce4 O3_3 1_555 1_555
O10_3 Ce4 1_555 1_555
O11_2 C14_3 1_555 1_555
O13_2 C18_3 1_555 1_555
O15_2 C21_3 1_555 1_555
Cl7_3 C20_3 1_555 1_555
Cl3_3 C3_3 1_555 1_555
O8_3 C12_3 1_555 1_555
Cl6_3 C17_3 1_555 1_555
O12_3 C16_3 1_555 1_555
C16_3 C12_3 1_555 1_555
C17_3 C16_3 1_555 1_555
Cl8_2 C24_2 1_555 1_555
O16_2 C23_2 1_555 1_555
C24_2 C22_2 1_555 1_555
Ce5 O8_3 1_555 1_555
O19_2 Ce2_2 1_555 1_555
O22_2 Ce2_2 1_555 1_555
O23_2 Ce2_2 1_555 1_555
O12_3 Ce5 1_555 1_555
O16_2 Ce2_2 1_555 1_555
O17_2 C22_2 1_555 1_555
C23_2 C24_2 1_555 1_555
H3_2 O18_2 1_555 1_555
H4_2 O18_2 1_555 1_555
O5_3 C5_3 1_555 1_555
O14_3 C19_3 1_555 1_555
C19_3 C5_3 1_555 1_555
Ce5 O5_3 1_555 1_555
O14_3 Ce5 1_555 1_555
O8_4 C12_4 1_555 1_555
Cl3_4 C3_4 1_555 1_555
Cl6_4 C17_4 1_555 1_555
O12_4 C16_4 1_555 1_555
C17_4 C16_4 1_555 1_555
O12_4 Ce5_2 1_555 1_555
O14_4 C19_4 1_555 1_555
O5_4 C5_4 1_555 1_555
Ce5_2 O5_4 1_555 1_555
Cl1_4 C1_4 1_555 1_555
Cl2_4 C11_4 1_555 1_555
O19_2 C7_4 1_555 1_555
O3_4 C6_4 1_555 1_555
C1_4 C6_4 1_555 1_555
C7_4 C1_4 1_555 1_555
C8_4 O23_2 1_555 1_555
C11_4 C8_4 1_555 1_555
O22_2 C21_4 1_555 1_555
C2_4 O20_2 1_555 1_555
Cl5_4 C13_4 1_555 1_555
O10_4 C15_4 1_555 1_555
C13_4 C14_4 1_555 1_555
C15_4 C13_4 1_555 1_555
O10_4 Ce4_2 1_555 1_555
O21_2 C14_4 1_555 1_555
O24_2 C18_4 1_555 1_555
Cl7_4 C20_4 1_555 1_555
H3_3 O18_3 1_555 1_555
H4_3 O18_3 1_555 1_555
Cl4_3 C10_3 1_555 1_555
O4_3 Ce4 1_555 1_555
O6_3 C4_3 1_555 1_555
O9_3 Ce4 1_555 1_555
H1_3 O9_3 1_555 1_555
H2_3 O9_3 1_555 1_555
C4_3 C10_3 1_555 1_555
C9_3 O4_3 1_555 1_555
C10_3 C9_3 1_555 1_555
Cl8_3 C24_3 1_555 1_555
O16_3 C23_3 1_555 1_555
O17_3 Ce4 1_555 1_555
C22_3 C9_3 1_555 1_555
C23_3 C4_3 1_555 1_555
C24_3 C22_3 1_555 1_555
Ce4_2 O6_3 1_555 1_555
O16_3 Ce4_2 1_555 1_555
O17_3 C22_3 1_555 1_555
C23_3 C24_3 1_555 1_555
H3_4 O18_4 1_555 1_555
H4_4 O18_4 1_555 1_555
Cl8_4 C24_4 1_555 1_555
O16_4 C23_4 1_555 1_555
C24_4 C22_4 1_555 1_555
O16_4 Ce5_2 1_555 1_555
O17_4 C22_4 1_555 1_555
C23_4 C24_4 1_555 1_555
Cl4_4 C10_4 1_555 1_555
O4_4 Ce5 1_555 1_555
O6_4 C4_4 1_555 1_555
O9_4 Ce5 1_555 1_555
H1_4 O9_4 1_555 1_555
H2_4 O9_4 1_555 1_555
C4_4 C10_4 1_555 1_555
C9_4 O4_4 1_555 1_555
C10_4 C9_4 1_555 1_555
P1 C27 1_555 1_555
C25 H5 1_555 1_555
C26 C25 1_555 1_555
H6 C26 1_555 1_555
C27 C33 1_555 1_555
C28 H7 1_555 1_555
C29 P1 1_555 1_555
C30 H8 1_555 1_555
C31 C29 1_555 1_555
H9 C31 1_555 1_555
C32 P1 1_555 1_555
C33 C25 1_555 1_555
H10 C33 1_555 1_555
C34 C27 1_555 1_555
H11 C34 1_555 1_555
C35 C28 1_555 1_555
H12 C35 1_555 1_555
C36 H13 1_555 1_555
C37 P1 1_555 1_555
C38 C26 1_555 1_555
H14 C38 1_555 1_555
C39 C32 1_555 1_555
H15 C39 1_555 1_555
C40 C28 1_555 1_555
H16 C40 1_555 1_555
C41 C36 1_555 1_555
H17 C41 1_555 1_555
C42 H18 1_555 1_555
C43 C29 1_555 1_555
H19 C43 1_555 1_555
C44 C41 1_555 1_555
H20 C44 1_555 1_555
C45 C30 1_555 1_555
H21 C45 1_555 1_555
C46 C39 1_555 1_555
H22 C46 1_555 1_555
C48 C42 1_555 1_555
C30 C37 1_555 1_555
C32 C35 1_555 1_555
C34 C38 1_555 1_555
C36 C37 1_555 1_555
C40 C46 1_555 1_555
C42 C43 1_555 1_555
C44 C45 1_555 1_555
H23 C47 1_555 1_555
C25_2 H5_2 1_555 1_555
C26_2 C25_2 1_555 1_555
H6_2 C26_2 1_555 1_555
C38_2 C26_2 1_555 1_555
H14_2 C38_2 1_555 1_555
P1_2 C27_2 1_555 1_555
C27_2 C33_2 1_555 1_555
C28_2 H7_2 1_555 1_555
C29_2 P1_2 1_555 1_555
C30_2 H8_2 1_555 1_555
C31_2 C29_2 1_555 1_555
H9_2 C31_2 1_555 1_555
C32_2 P1_2 1_555 1_555
H10_2 C33_2 1_555 1_555
C34_2 C27_2 1_555 1_555
H11_2 C34_2 1_555 1_555
C35_2 C28_2 1_555 1_555
H12_2 C35_2 1_555 1_555
C36_2 H13_2 1_555 1_555
C37_2 P1_2 1_555 1_555
C39_2 C32_2 1_555 1_555
H15_2 C39_2 1_555 1_555
C40_2 C28_2 1_555 1_555
H16_2 C40_2 1_555 1_555
C41_2 C36_2 1_555 1_555
H17_2 C41_2 1_555 1_555
C42_2 H18_2 1_555 1_555
C43_2 C29_2 1_555 1_555
H19_2 C43_2 1_555 1_555
C44_2 C41_2 1_555 1_555
H20_2 C44_2 1_555 1_555
C45_2 C30_2 1_555 1_555
H21_2 C45_2 1_555 1_555
C46_2 C39_2 1_555 1_555
C48_2 C42_2 1_555 1_555
C30_2 C37_2 1_555 1_555
C32_2 C35_2 1_555 1_555
C36_2 C37_2 1_555 1_555
C40_2 C46_2 1_555 1_555
C42_2 C43_2 1_555 1_555
C44_2 C45_2 1_555 1_555
H23_2 C47_2 1_555 1_555
P1_3 C27_3 1_555 1_555
C25_3 H5_3 1_555 1_555
C26_3 C25_3 1_555 1_555
H6_3 C26_3 1_555 1_555
C27_3 C33_3 1_555 1_555
C28_3 H7_3 1_555 1_555
C29_3 P1_3 1_555 1_555
C30_3 H8_3 1_555 1_555
C31_3 C29_3 1_555 1_555
H9_3 C31_3 1_555 1_555
C32_3 P1_3 1_555 1_555
C33_3 C25_3 1_555 1_555
H10_3 C33_3 1_555 1_555
C34_3 C27_3 1_555 1_555
H11_3 C34_3 1_555 1_555
C35_3 C28_3 1_555 1_555
H12_3 C35_3 1_555 1_555
C36_3 H13_3 1_555 1_555
C37_3 P1_3 1_555 1_555
C38_3 C26_3 1_555 1_555
H14_3 C38_3 1_555 1_555
C39_3 C32_3 1_555 1_555
H15_3 C39_3 1_555 1_555
C40_3 C28_3 1_555 1_555
H16_3 C40_3 1_555 1_555
C41_3 C36_3 1_555 1_555
H17_3 C41_3 1_555 1_555
C42_3 H18_3 1_555 1_555
C43_3 C29_3 1_555 1_555
H19_3 C43_3 1_555 1_555
C44_3 C41_3 1_555 1_555
H20_3 C44_3 1_555 1_555
C45_3 C30_3 1_555 1_555
H21_3 C45_3 1_555 1_555
C46_3 C39_3 1_555 1_555
H22_3 C46_3 1_555 1_555
C47_3 C31_3 1_555 1_555
H23_3 C47_3 1_555 1_555
C48_3 C42_3 1_555 1_555
H24_3 C48_3 1_555 1_555
C30_3 C37_3 1_555 1_555
C32_3 C35_3 1_555 1_555
C34_3 C38_3 1_555 1_555
C36_3 C37_3 1_555 1_555
C40_3 C46_3 1_555 1_555
C42_3 C43_3 1_555 1_555
C44_3 C45_3 1_555 1_555
C47_3 C48_3 1_555 1_555
C25_4 H5_4 1_555 1_555
C26_4 C25_4 1_555 1_555
H6_4 C26_4 1_555 1_555
C38_4 C26_4 1_555 1_555
H14_4 C38_4 1_555 1_555
P1_4 C27_4 1_555 1_555
C27_4 C33_4 1_555 1_555
C28_4 H7_4 1_555 1_555
C29_4 P1_4 1_555 1_555
C30_4 H8_4 1_555 1_555
C31_4 C29_4 1_555 1_555
H9_4 C31_4 1_555 1_555
C32_4 P1_4 1_555 1_555
H10_4 C33_4 1_555 1_555
C34_4 C27_4 1_555 1_555
H11_4 C34_4 1_555 1_555
C35_4 C28_4 1_555 1_555
H12_4 C35_4 1_555 1_555
C36_4 H13_4 1_555 1_555
C37_4 P1_4 1_555 1_555
C39_4 C32_4 1_555 1_555
H15_4 C39_4 1_555 1_555
C40_4 C28_4 1_555 1_555
H16_4 C40_4 1_555 1_555
C41_4 C36_4 1_555 1_555
H17_4 C41_4 1_555 1_555
C42_4 H18_4 1_555 1_555
C43_4 C29_4 1_555 1_555
H19_4 C43_4 1_555 1_555
C44_4 C41_4 1_555 1_555
H20_4 C44_4 1_555 1_555
C45_4 C30_4 1_555 1_555
H21_4 C45_4 1_555 1_555
C46_4 C39_4 1_555 1_555
C47_4 C31_4 1_555 1_555
H23_4 C47_4 1_555 1_555
C48_4 C42_4 1_555 1_555
H24_4 C48_4 1_555 1_555
C30_4 C37_4 1_555 1_555
C32_4 C35_4 1_555 1_555
C36_4 C37_4 1_555 1_555
C40_4 C46_4 1_555 1_555
C42_4 C43_4 1_555 1_555
C44_4 C45_4 1_555 1_555
C47_4 C48_4 1_555 1_555
H23_5 C47_5 1_555 1_555
P1_5 C27_5 1_555 1_555
C25_5 H5_5 1_555 1_555
C26_5 C25_5 1_555 1_555
H6_5 C26_5 1_555 1_555
C27_5 C33_5 1_555 1_555
C28_5 H7_5 1_555 1_555
C29_5 P1_5 1_555 1_555
C30_5 H8_5 1_555 1_555
C31_5 C29_5 1_555 1_555
H9_5 C31_5 1_555 1_555
C32_5 P1_5 1_555 1_555
C33_5 C25_5 1_555 1_555
H10_5 C33_5 1_555 1_555
C34_5 C27_5 1_555 1_555
H11_5 C34_5 1_555 1_555
C35_5 C28_5 1_555 1_555
H12_5 C35_5 1_555 1_555
C36_5 H13_5 1_555 1_555
C37_5 P1_5 1_555 1_555
C38_5 C26_5 1_555 1_555
H14_5 C38_5 1_555 1_555
C39_5 C32_5 1_555 1_555
H15_5 C39_5 1_555 1_555
C40_5 C28_5 1_555 1_555
H16_5 C40_5 1_555 1_555
C41_5 C36_5 1_555 1_555
H17_5 C41_5 1_555 1_555
C42_5 H18_5 1_555 1_555
C43_5 C29_5 1_555 1_555
H19_5 C43_5 1_555 1_555
C44_5 C41_5 1_555 1_555
H20_5 C44_5 1_555 1_555
C45_5 C30_5 1_555 1_555
H21_5 C45_5 1_555 1_555
C46_5 C39_5 1_555 1_555
H22_5 C46_5 1_555 1_555
C48_5 C42_5 1_555 1_555
C30_5 C37_5 1_555 1_555
C32_5 C35_5 1_555 1_555
C34_5 C38_5 1_555 1_555
C36_5 C37_5 1_555 1_555
C40_5 C46_5 1_555 1_555
C42_5 C43_5 1_555 1_555
C44_5 C45_5 1_555 1_555
H23_6 C47_6 1_555 1_555
P1_6 C27_6 1_555 1_555
C27_6 C33_6 1_555 1_555
C28_6 H7_6 1_555 1_555
C29_6 P1_6 1_555 1_555
C30_6 H8_6 1_555 1_555
C31_6 C29_6 1_555 1_555
H9_6 C31_6 1_555 1_555
C32_6 P1_6 1_555 1_555
H10_6 C33_6 1_555 1_555
C34_6 C27_6 1_555 1_555
H11_6 C34_6 1_555 1_555
C35_6 C28_6 1_555 1_555
H12_6 C35_6 1_555 1_555
C36_6 H13_6 1_555 1_555
C37_6 P1_6 1_555 1_555
C39_6 C32_6 1_555 1_555
H15_6 C39_6 1_555 1_555
C40_6 C28_6 1_555 1_555
H16_6 C40_6 1_555 1_555
C41_6 C36_6 1_555 1_555
H17_6 C41_6 1_555 1_555
C42_6 H18_6 1_555 1_555
C43_6 C29_6 1_555 1_555
H19_6 C43_6 1_555 1_555
C44_6 C41_6 1_555 1_555
H20_6 C44_6 1_555 1_555
C45_6 C30_6 1_555 1_555
H21_6 C45_6 1_555 1_555
C46_6 C39_6 1_555 1_555
C48_6 C42_6 1_555 1_555
C30_6 C37_6 1_555 1_555
C32_6 C35_6 1_555 1_555
C36_6 C37_6 1_555 1_555
C40_6 C46_6 1_555 1_555
C42_6 C43_6 1_555 1_555
C44_6 C45_6 1_555 1_555
C25_6 H5_6 1_555 1_555
C26_6 C25_6 1_555 1_555
H6_6 C26_6 1_555 1_555
C38_6 C26_6 1_555 1_555
H14_6 C38_6 1_555 1_555
P1_7 C27_7 1_555 1_555
C25_7 H5_7 1_555 1_555
C26_7 C25_7 1_555 1_555
H6_7 C26_7 1_555 1_555
C27_7 C33_7 1_555 1_555
C28_7 H7_7 1_555 1_555
C29_7 P1_7 1_555 1_555
C30_7 H8_7 1_555 1_555
C31_7 C29_7 1_555 1_555
H9_7 C31_7 1_555 1_555
C32_7 P1_7 1_555 1_555
C33_7 C25_7 1_555 1_555
H10_7 C33_7 1_555 1_555
C34_7 C27_7 1_555 1_555
H11_7 C34_7 1_555 1_555
C35_7 C28_7 1_555 1_555
H12_7 C35_7 1_555 1_555
C36_7 H13_7 1_555 1_555
C37_7 P1_7 1_555 1_555
C38_7 C26_7 1_555 1_555
H14_7 C38_7 1_555 1_555
C39_7 C32_7 1_555 1_555
H15_7 C39_7 1_555 1_555
C40_7 C28_7 1_555 1_555
H16_7 C40_7 1_555 1_555
C41_7 C36_7 1_555 1_555
H17_7 C41_7 1_555 1_555
C42_7 H18_7 1_555 1_555
C43_7 C29_7 1_555 1_555
H19_7 C43_7 1_555 1_555
C44_7 C41_7 1_555 1_555
H20_7 C44_7 1_555 1_555
C45_7 C30_7 1_555 1_555
H21_7 C45_7 1_555 1_555
C46_7 C39_7 1_555 1_555
H22_7 C46_7 1_555 1_555
C47_7 C31_7 1_555 1_555
H23_7 C47_7 1_555 1_555
C48_7 C42_7 1_555 1_555
H24_7 C48_7 1_555 1_555
C30_7 C37_7 1_555 1_555
C32_7 C35_7 1_555 1_555
C34_7 C38_7 1_555 1_555
C36_7 C37_7 1_555 1_555
C40_7 C46_7 1_555 1_555
C42_7 C43_7 1_555 1_555
C44_7 C45_7 1_555 1_555
C47_7 C48_7 1_555 1_555
P1_8 C27_8 1_555 1_555
C27_8 C33_8 1_555 1_555
C28_8 H7_8 1_555 1_555
C29_8 P1_8 1_555 1_555
C30_8 H8_8 1_555 1_555
C31_8 C29_8 1_555 1_555
H9_8 C31_8 1_555 1_555
C32_8 P1_8 1_555 1_555
H10_8 C33_8 1_555 1_555
C34_8 C27_8 1_555 1_555
H11_8 C34_8 1_555 1_555
C35_8 C28_8 1_555 1_555
H12_8 C35_8 1_555 1_555
C36_8 H13_8 1_555 1_555
C37_8 P1_8 1_555 1_555
C39_8 C32_8 1_555 1_555
H15_8 C39_8 1_555 1_555
C40_8 C28_8 1_555 1_555
H16_8 C40_8 1_555 1_555
C41_8 C36_8 1_555 1_555
H17_8 C41_8 1_555 1_555
C42_8 H18_8 1_555 1_555
C43_8 C29_8 1_555 1_555
H19_8 C43_8 1_555 1_555
C44_8 C41_8 1_555 1_555
H20_8 C44_8 1_555 1_555
C45_8 C30_8 1_555 1_555
H21_8 C45_8 1_555 1_555
C46_8 C39_8 1_555 1_555
C47_8 C31_8 1_555 1_555
H23_8 C47_8 1_555 1_555
C48_8 C42_8 1_555 1_555
H24_8 C48_8 1_555 1_555
C30_8 C37_8 1_555 1_555
C32_8 C35_8 1_555 1_555
C36_8 C37_8 1_555 1_555
C40_8 C46_8 1_555 1_555
C42_8 C43_8 1_555 1_555
C44_8 C45_8 1_555 1_555
C47_8 C48_8 1_555 1_555
C25_8 H5_8 1_555 1_555
C26_8 C25_8 1_555 1_555
H6_8 C26_8 1_555 1_555
C38_8 C26_8 1_555 1_555
H14_8 C38_8 1_555 1_555

#END
