
###############################################################################
#
# This file contains modified crystal structure data generated from the
# MOF subset of the Cambridge Structural Database (CSD) v543 
# hosted by the Cambridge Crystallographic Data Centre (CCDC).
#
# This work is licensed under the Creative Commons
# Attribution-NonCommercial-ShareAlike 4.0 International License.
# To view a copy of this license, visit
# http://creativecommons.org/licenses/by-nc-sa/4.0/
# or send a letter to
# Creative Commons, PO Box 1866, Mountain View, CA 94042, USA.
#
# CIF created using the CSD Python API on 29 September 2022
# The structure has been converted into the P1 space group
# The structure has a 3D framework
# The original CSD entry JOGJEX is in the monoclinic crystal system
# The framework has been calculated to contain at least 10.0% void space
# The void calculation uses a probe of radius 1.32A, grid spacing 0.4
# The framework is charged, counterions have been retained in the structure
# H atom positions have been added when not included in the experimental data
# Generated hydrogen atom positions removed from atoms on special positions
#
###############################################################################

data_JOGJEX
_chemical_formula_moiety         '(C250 H156 Cl32 Er8 O68 P8)n'
_symmetry_cell_setting           triclinic
_symmetry_space_group_name_H-M   'P 1'
_symmetry_Int_Tables_number      1
_space_group_name_Hall           'P 1'
loop_
_symmetry_equiv_pos_site_id
_symmetry_equiv_pos_as_xyz
1 x,y,z
_cell_length_a                   16.58380(10)
_cell_length_b                   19.67230(10)
_cell_length_c                   26.00730(10)
_cell_angle_alpha                90
_cell_angle_beta                 104.1510(10)
_cell_angle_gamma                90
_cell_volume                     8227.19
loop_
_atom_site_label
_atom_site_type_symbol
_atom_site_fract_x
_atom_site_fract_y
_atom_site_fract_z
H17 H 0.013416 0.505561 0.647638
C19 C 0.0170(2) 0.4088(2) 0.67171(16)
H18 H 0.074426 0.406714 0.684725
P1 P 0.73621(4) 0.41722(3) 0.60510(3)
C1 C 0.75097(17) 0.33689(15) 0.52205(11)
H1 H 0.786519 0.370614 0.515558
C2 C 0.68100(17) 0.41430(14) 0.65636(11)
C3 C 0.71073(17) 0.34434(14) 0.56300(11)
C4 C 0.73732(18) 0.27865(15) 0.49122(11)
H2 H 0.765162 0.272463 0.464566
C5 C 0.84625(17) 0.41502(15) 0.63253(11)
C6 C 0.59656(18) 0.43090(17) 0.64434(13)
H3 H 0.569892 0.445582 0.610459
C7 C 0.7206(2) 0.39288(16) 0.70726(12)
H4 H 0.777055 0.382459 0.715623
C8 C 0.6551(2) 0.29561(16) 0.57180(12)
H5 H 0.628213 0.301142 0.599009
C9 C 0.8835(2) 0.35433(17) 0.65458(12)
H6 H 0.851260 0.315905 0.655667
C10 C 0.6822(2) 0.22949(15) 0.50002(12)
H7 H 0.673486 0.190334 0.479363
C11 C 0.70855(18) 0.49281(14) 0.56698(11)
H8 H 0.649803 0.492838 0.551261
H9 H 0.738133 0.494514 0.539556
H10 H 0.722837 0.531768 0.589611
C12 C 0.8949(2) 0.47210(17) 0.62994(13)
H11 H 0.870447 0.512452 0.615281
C13 C 0.5918(2) 0.40293(18) 0.73357(14)
H12 H 0.561875 0.398462 0.759316
C14 C 0.6399(2) 0.23838(16) 0.53940(13)
H13 H 0.601467 0.206080 0.544183
C15 C 0.5528(2) 0.42538(19) 0.68319(15)
H14 H 0.496695 0.436856 0.675364
C16 C 0.6755(2) 0.38719(17) 0.74538(13)
H15 H 0.701925 0.372603 0.779338
C17 C 0.9689(2) 0.3523(2) 0.67478(14)
H16 H 0.994025 0.312627 0.690474
C18 C 0.9805(2) 0.4678(2) 0.64955(16)
H10_2 H 0.277163 0.031768 0.910389
H11_2 H 0.129553 0.012452 0.884719
C4_2 C 0.26268(18) 0.77865(15) 0.00878(11)
H2_2 H 0.234838 0.772463 0.035434
C10_2 C 0.3178(2) 0.72949(15) -0.00002(12)
H7_2 H 0.326514 0.690334 0.020637
P1_2 P 0.26379(4) 0.91722(3) 0.89490(3)
C1_2 C 0.24903(17) 0.83689(15) 0.97795(11)
H1_2 H 0.213481 0.870614 0.984442
C2_2 C 0.31900(17) 0.91430(14) 0.84364(11)
C3_2 C 0.28927(17) 0.84434(14) 0.93700(11)
C5_2 C 0.15375(17) 0.91502(15) 0.86747(11)
C6_2 C 0.40344(18) 0.93090(17) 0.85566(13)
H3_2 H 0.430108 0.945582 0.889541
C7_2 C 0.2794(2) 0.89288(16) 0.79274(12)
H4_2 H 0.222945 0.882459 0.784377
C8_2 C 0.3449(2) 0.79561(16) 0.92820(12)
H5_2 H 0.371787 0.801142 0.900991
C9_2 C 0.1165(2) 0.85433(17) 0.84542(12)
H6_2 H 0.148740 0.815905 0.844333
C10_3 C 0.3178(2) 0.72949(15) 0.99998(12)
C11_2 C 0.29145(18) 0.99281(14) 0.93302(11)
H8_2 H 0.350197 0.992838 0.948739
H9_2 H 0.261867 0.994514 0.960444
C12_2 C 0.1051(2) 0.97210(17) 0.87006(13)
C13_2 C 0.4082(2) 0.90293(18) 0.76643(14)
H12_2 H 0.438125 0.898462 0.740684
C14_2 C 0.3601(2) 0.73838(16) 0.96060(13)
H13_2 H 0.398533 0.706080 0.955817
C15_2 C 0.4472(2) 0.92538(19) 0.81681(15)
H14_2 H 0.503305 0.936856 0.824636
C16_2 C 0.3245(2) 0.88719(17) 0.75462(13)
H15_2 H 0.298075 0.872603 0.720662
C17_2 C 0.0311(2) 0.8523(2) 0.82522(14)
H16_2 H 0.005975 0.812627 0.809526
C18_2 C 0.0195(2) 0.9678(2) 0.85045(16)
H17_2 H 0.986584 0.005561 0.852362
C19_2 C 0.9830(2) 0.9088(2) 0.82829(16)
H18_2 H 0.925574 0.906714 0.815275
P1_3 P 0.26379(4) 0.58278(3) 0.39490(3)
C1_3 C 0.24903(17) 0.66311(15) 0.47795(11)
H1_3 H 0.213481 0.629386 0.484442
C2_3 C 0.31900(17) 0.58570(14) 0.34364(11)
C3_3 C 0.28927(17) 0.65566(14) 0.43700(11)
C4_3 C 0.26268(18) 0.72135(15) 0.50878(11)
H2_3 H 0.234838 0.727537 0.535434
C5_3 C 0.15375(17) 0.58498(15) 0.36747(11)
C6_3 C 0.40344(18) 0.56910(17) 0.35566(13)
H3_3 H 0.430108 0.554418 0.389541
C7_3 C 0.2794(2) 0.60712(16) 0.29274(12)
H4_3 H 0.222945 0.617541 0.284377
C8_3 C 0.3449(2) 0.70439(16) 0.42820(12)
H5_3 H 0.371787 0.698858 0.400991
C9_3 C 0.1165(2) 0.64567(17) 0.34542(12)
H6_3 H 0.148740 0.684095 0.344333
C10_4 C 0.3178(2) 0.77051(15) 0.49998(12)
H7_3 H 0.326514 0.809666 0.520637
C11_3 C 0.29145(18) 0.50719(14) 0.43302(11)
H8_3 H 0.350197 0.507162 0.448739
H9_3 H 0.261867 0.505486 0.460444
H10_3 H 0.277163 0.468232 0.410389
C12_3 C 0.1051(2) 0.52790(17) 0.37006(13)
H11_3 H 0.129553 0.487548 0.384719
C13_3 C 0.4082(2) 0.59707(18) 0.26643(14)
H12_3 H 0.438125 0.601538 0.240684
C14_3 C 0.3601(2) 0.76162(16) 0.46060(13)
H13_3 H 0.398533 0.793920 0.455817
C15_3 C 0.4472(2) 0.57462(19) 0.31681(15)
H14_3 H 0.503305 0.563144 0.324636
C16_3 C 0.3245(2) 0.61281(17) 0.25462(13)
H15_3 H 0.298075 0.627397 0.220662
C17_3 C 0.0311(2) 0.6477(2) 0.32522(14)
H16_3 H 0.005975 0.687373 0.309526
C18_3 C 0.0195(2) 0.5322(2) 0.35045(16)
H17_3 H 0.986584 0.494439 0.352362
C19_3 C 0.9830(2) 0.5912(2) 0.32829(16)
H18_3 H 0.925574 0.593286 0.315275
C19_4 C 0.0170(2) 0.0912(2) 0.17171(16)
H18_4 H 0.074426 0.093286 0.184725
H17_4 H 0.013416 0.994439 0.147638
P1_4 P 0.73621(4) 0.08278(3) 0.10510(3)
C1_4 C 0.75097(17) 0.16311(15) 0.02205(11)
H1_4 H 0.786519 0.129386 0.015558
C2_4 C 0.68100(17) 0.08570(14) 0.15636(11)
C3_4 C 0.71073(17) 0.15566(14) 0.06300(11)
C5_4 C 0.84625(17) 0.08498(15) 0.13253(11)
C6_4 C 0.59656(18) 0.06910(17) 0.14434(13)
H3_4 H 0.569892 0.054418 0.110459
C7_4 C 0.7206(2) 0.10712(16) 0.20726(12)
H4_4 H 0.777055 0.117541 0.215623
C8_4 C 0.6551(2) 0.20439(16) 0.07180(12)
H5_4 H 0.628213 0.198858 0.099009
C9_4 C 0.8835(2) 0.14567(17) 0.15458(12)
H6_4 H 0.851260 0.184095 0.155667
C10_5 C 0.6822(2) 0.27051(15) 0.00002(12)
C11_4 C 0.70855(18) 0.00719(14) 0.06698(11)
H8_4 H 0.649803 0.007162 0.051261
H9_4 H 0.738133 0.005486 0.039556
C12_4 C 0.8949(2) 0.02790(17) 0.12994(13)
C13_4 C 0.5918(2) 0.09707(18) 0.23357(14)
H12_4 H 0.561875 0.101538 0.259316
C14_4 C 0.6399(2) 0.26162(16) 0.03940(13)
H13_4 H 0.601467 0.293920 0.044183
C15_4 C 0.5528(2) 0.07462(19) 0.18319(15)
H14_4 H 0.496695 0.063144 0.175364
C16_4 C 0.6755(2) 0.11281(17) 0.24538(13)
H15_4 H 0.701925 0.127397 0.279338
C17_4 C 0.9689(2) 0.1477(2) 0.17478(14)
H16_4 H 0.994025 0.187373 0.190474
C18_4 C 0.9805(2) 0.0322(2) 0.14955(16)
C4_4 C 0.73732(18) 0.22135(15) 0.99122(11)
H2_4 H 0.765162 0.227537 0.964566
C10_6 C 0.6822(2) 0.27051(15) 1.00002(12)
H7_4 H 0.673486 0.309666 0.979363
H10_4 H 0.722837 0.968232 0.089611
H11_4 H 0.870447 0.987548 0.115281
C26 C 0.6591(2) 0.04671(15) 0.38301(12)
H26 H 0.602233 0.038836 0.376490
C27 C 0.6901(3) 0.11274(16) 0.38794(12)
H27 H 0.653787 0.149340 0.384882
C33 C 0.7999(3) 0.00364(18) 0.39714(15)
C36 C 0.7739(3) 0.12406(17) 0.39727(14)
H34 H 0.793878 0.168417 0.400762
C38 C 0.8296(3) 0.0702(2) 0.40161(17)
H36 H 0.886335 0.078549 0.407456
P2 P 0.67501(5) 0.90733(4) 0.37824(3)
C20 C 0.6536(2) 0.88760(15) 0.30875(12)
C21 C 0.7775(2) 0.79382(16) 0.39120(13)
H19 H 0.757352 0.786686 0.354977
C22 C 0.5832(2) 0.90109(16) 0.40189(12)
H20 H 0.544486 0.935661 0.385527
H21 H 0.597056 0.907107 0.439661
H22 H 0.558434 0.857129 0.393217
C23 C 0.6034(2) 0.83185(17) 0.28870(13)
H23 H 0.578421 0.806560 0.310775
C24 C 0.8651(2) 0.76002(18) 0.47521(15)
H24 H 0.903735 0.730155 0.495302
C25 C 0.8350(2) 0.74844(17) 0.42149(15)
H25 H 0.852813 0.710817 0.405621
C28 C 0.7149(2) 0.99235(15) 0.38803(12)
C29 C 0.7508(2) 0.84911(15) 0.41514(12)
C30 C 0.5910(2) 0.81451(17) 0.23544(14)
H28 H 0.557928 0.777415 0.221783
C31 C 0.6278(2) 0.85219(18) 0.20326(13)
H29 H 0.620402 0.839915 0.167878
C32 C 0.8387(2) 0.81526(19) 0.49949(15)
H30 H 0.859872 0.822548 0.535603
H31 H 0.836565 0.967236 0.400223
C34 C 0.7801(3) 0.86028(18) 0.46983(14)
H32 H 0.760929 0.896944 0.486053
C35 C 0.6889(3) 0.92611(17) 0.27574(13)
H33 H 0.721331 0.963778 0.288856
C37 C 0.6756(3) 0.90810(19) 0.22262(14)
H35 H 0.699028 0.933932 0.200070
P2_2 P 0.32499(5) 0.40733(4) 0.12176(3)
C20_2 C 0.3464(2) 0.38760(15) 0.19125(12)
C21_2 C 0.2225(2) 0.29382(16) 0.10880(13)
H19_2 H 0.242648 0.286686 0.145023
C22_2 C 0.4168(2) 0.40109(16) 0.09811(12)
H20_2 H 0.455514 0.435661 0.114473
H21_2 H 0.402944 0.407107 0.060339
H22_2 H 0.441566 0.357129 0.106783
C23_2 C 0.3966(2) 0.33185(17) 0.21130(13)
H23_2 H 0.421579 0.306560 0.189225
C24_2 C 0.1349(2) 0.26002(18) 0.02479(15)
H24_2 H 0.096265 0.230155 0.004698
C25_2 C 0.1650(2) 0.24844(17) 0.07851(15)
H25_2 H 0.147187 0.210817 0.094379
C26_2 C 0.3409(2) 0.54671(15) 0.11699(12)
H26_2 H 0.397767 0.538836 0.123510
C27_2 C 0.3099(3) 0.61274(16) 0.11206(12)
H27_2 H 0.346213 0.649340 0.115118
C28_2 C 0.2851(2) 0.49235(15) 0.11197(12)
C29_2 C 0.2492(2) 0.34911(15) 0.08486(12)
C30_2 C 0.4090(2) 0.31451(17) 0.26456(14)
H28_2 H 0.442072 0.277415 0.278217
C31_2 C 0.3722(2) 0.35219(18) 0.29674(13)
H29_2 H 0.379598 0.339915 0.332122
C32_2 C 0.1613(2) 0.31526(19) 0.00051(15)
C33_2 C 0.2001(3) 0.50364(18) 0.10286(15)
H31_2 H 0.163435 0.467236 0.099777
C34_2 C 0.2199(3) 0.36028(18) 0.03017(14)
H32_2 H 0.239071 0.396944 0.013947
C35_2 C 0.3111(3) 0.42611(17) 0.22426(13)
H33_2 H 0.278669 0.463778 0.211144
C36_2 C 0.2261(3) 0.62406(17) 0.10273(14)
H34_2 H 0.206122 0.668417 0.099238
C37_2 C 0.3244(3) 0.40810(19) 0.27738(14)
H35_2 H 0.300972 0.433932 0.299930
C38_2 C 0.1704(3) 0.5702(2) 0.09839(17)
H36_2 H 0.113665 0.578549 0.092544
H30_2 H 0.140128 0.322548 0.964397
P2_3 P 0.32499(5) 0.09267(4) 0.62176(3)
C20_3 C 0.3464(2) 0.11240(15) 0.69125(12)
C21_3 C 0.2225(2) 0.20618(16) 0.60880(13)
H19_3 H 0.242648 0.213314 0.645023
C22_3 C 0.4168(2) 0.09891(16) 0.59811(12)
H20_3 H 0.455514 0.064339 0.614473
H21_3 H 0.402944 0.092893 0.560339
H22_3 H 0.441566 0.142871 0.606783
C23_3 C 0.3966(2) 0.16815(17) 0.71130(13)
H23_3 H 0.421579 0.193440 0.689225
C24_3 C 0.1349(2) 0.23998(18) 0.52479(15)
H24_3 H 0.096265 0.269845 0.504698
C25_3 C 0.1650(2) 0.25156(17) 0.57851(15)
H25_3 H 0.147187 0.289183 0.594379
C28_3 C 0.2851(2) 0.00765(15) 0.61197(12)
C29_3 C 0.2492(2) 0.15089(15) 0.58486(12)
C30_3 C 0.4090(2) 0.18549(17) 0.76456(14)
H28_3 H 0.442072 0.222585 0.778217
C31_3 C 0.3722(2) 0.14781(18) 0.79674(13)
H29_3 H 0.379598 0.160085 0.832122
C32_3 C 0.1613(2) 0.18474(19) 0.50051(15)
H30_3 H 0.140128 0.177452 0.464397
H31_3 H 0.163435 0.032764 0.599777
C34_3 C 0.2199(3) 0.13972(18) 0.53017(14)
H32_3 H 0.239071 0.103056 0.513947
C35_3 C 0.3111(3) 0.07389(17) 0.72426(13)
H33_3 H 0.278669 0.036222 0.711144
C37_3 C 0.3244(3) 0.09190(19) 0.77738(14)
H35_3 H 0.300972 0.066068 0.799930
C26_3 C 0.3409(2) 0.95329(15) 0.61699(12)
H26_3 H 0.397767 0.961164 0.623510
C27_3 C 0.3099(3) 0.88726(16) 0.61206(12)
H27_3 H 0.346213 0.850660 0.615118
C33_3 C 0.2001(3) 0.99636(18) 0.60286(15)
C36_3 C 0.2261(3) 0.87594(17) 0.60273(14)
H34_3 H 0.206122 0.831583 0.599238
C38_3 C 0.1704(3) 0.9298(2) 0.59839(17)
H36_3 H 0.113665 0.921451 0.592544
H30_4 H 0.859872 0.677452 0.035603
P2_4 P 0.67501(5) 0.59267(4) 0.87824(3)
C20_4 C 0.6536(2) 0.61240(15) 0.80875(12)
C21_4 C 0.7775(2) 0.70618(16) 0.89120(13)
H19_4 H 0.757352 0.713314 0.854977
C22_4 C 0.5832(2) 0.59891(16) 0.90189(12)
H20_4 H 0.544486 0.564339 0.885527
H21_4 H 0.597056 0.592893 0.939661
H22_4 H 0.558434 0.642871 0.893217
C23_4 C 0.6034(2) 0.66815(17) 0.78870(13)
H23_4 H 0.578421 0.693440 0.810775
C24_4 C 0.8651(2) 0.73998(18) 0.97521(15)
H24_4 H 0.903735 0.769845 0.995302
C25_4 C 0.8350(2) 0.75156(17) 0.92149(15)
H25_4 H 0.852813 0.789183 0.905621
C26_4 C 0.6591(2) 0.45329(15) 0.88301(12)
H26_4 H 0.602233 0.461164 0.876490
C27_4 C 0.6901(3) 0.38726(16) 0.88794(12)
H27_4 H 0.653787 0.350660 0.884882
C28_4 C 0.7149(2) 0.50765(15) 0.88803(12)
C29_4 C 0.7508(2) 0.65089(15) 0.91514(12)
C30_4 C 0.5910(2) 0.68549(17) 0.73544(14)
H28_4 H 0.557928 0.722585 0.721783
C31_4 C 0.6278(2) 0.64781(18) 0.70326(13)
H29_4 H 0.620402 0.660085 0.667878
C32_4 C 0.8387(2) 0.68474(19) 0.99949(15)
C33_4 C 0.7999(3) 0.49636(18) 0.89714(15)
H31_4 H 0.836565 0.532764 0.900223
C34_4 C 0.7801(3) 0.63972(18) 0.96983(14)
H32_4 H 0.760929 0.603056 0.986053
C35_4 C 0.6889(3) 0.57389(17) 0.77574(13)
H33_4 H 0.721331 0.536222 0.788856
C36_4 C 0.7739(3) 0.37594(17) 0.89727(14)
H34_4 H 0.793878 0.331583 0.900762
C37_4 C 0.6756(3) 0.59190(19) 0.72262(14)
H35_4 H 0.699028 0.566068 0.700070
C38_4 C 0.8296(3) 0.4298(2) 0.90161(17)
H36_4 H 0.886335 0.421451 0.907456
O4 O 0.11287(12) 0.06891(11) 0.07273(8)
C62 C 0.05820(17) 0.04021(16) 0.03761(11)
Er7 Er 0.24547(2) 0.01973(2) 0.10176(2)
O19 O 0.15326(12) 0.94951(11) 0.04201(8)
C63 C 0.08011(17) 0.96898(16) 0.02171(11)
Cl2 Cl 0.52974(4) 0.01937(3) 0.71718(3)
O9 O 0.37939(15) 0.08365(10) 0.44679(8)
O10 O 0.84674(12) 0.05049(11) 0.95799(8)
O17 O 0.83300(14) 0.03000(14) 0.84085(9)
C49 C 0.91989(17) 0.03102(16) 0.97829(11)
C57 C 0.4333(2) 0.04174(14) 0.47118(10)
Cl10 Cl 0.68931(5) 0.04604(4) 0.52213(3)
O20 O 0.53594(14) 0.12094(10) 0.46299(8)
C67 C 0.5863(2) 0.02147(14) 0.51045(12)
C68 C 0.5236(2) 0.06425(14) 0.48175(10)
Er4 Er 0.42481(2) 0.18426(2) 0.41488(2)
Cl11 Cl 0.46913(4) 0.27868(3) 0.61491(2)
Cl13 Cl 0.50627(4) 0.42867(3) 0.48117(3)
Cl14 Cl 0.20278(5) 0.21901(4) 0.23440(3)
Cl15 Cl 0.17601(5) 0.34711(4) 0.41314(3)
Cl16 Cl 0.66545(7) 0.26749(4) 0.31896(3)
O22 O 0.34232(12) 0.38983(10) 0.60129(7)
O23 O 0.65109(12) 0.47186(9) 0.43513(7)
O24 O 0.71956(12) 0.40063(10) 0.37305(8)
O25 O 0.30380(14) 0.23637(10) 0.42580(8)
O26 O 0.52732(15) 0.22323(10) 0.37158(8)
O27 O 0.34744(12) 0.01244(10) 0.18167(7)
O28 O 0.33513(15) 0.19397(10) 0.33398(8)
O29 O 0.22744(12) 0.42223(10) 0.51788(7)
O30 O 0.45818(12) 0.29661(9) 0.43099(8)
O31 O 0.23008(12) 0.10486(11) 0.16328(8)
O32 O 0.44215(14) 0.09491(9) 0.35580(8)
O33 O 0.42808(15) 0.21061(10) 0.50640(8)
C69 C 0.27865(18) 0.15645(15) 0.24677(11)
C70 C 0.40048(16) 0.04767(14) 0.26995(10)
C71 C 0.61854(16) 0.41495(14) 0.42137(10)
C72 C 0.26944(17) 0.37137(14) 0.51268(10)
C73 C 0.34668(16) 0.05190(14) 0.21932(10)
C74 C 0.55195(17) 0.38662(13) 0.43770(11)
C75 C 0.33894(16) 0.35255(13) 0.56177(10)
C76 C 0.30990(18) 0.27543(14) 0.46501(11)
C77 C 0.65738(17) 0.37429(14) 0.38334(10)
C78 C 0.27984(16) 0.10784(14) 0.20783(10)
C79 C 0.39713(18) 0.09510(13) 0.30943(10)
C80 C 0.55861(19) 0.28170(14) 0.38222(10)
C81 C 0.51975(17) 0.32350(13) 0.41899(10)
C82 C 0.39008(18) 0.29759(14) 0.55922(10)
C83 C 0.38214(19) 0.25913(13) 0.51290(11)
C84 C 0.25830(18) 0.33053(15) 0.46751(11)
C85 C 0.33325(18) 0.15275(14) 0.29656(11)
C86 C 0.6222(2) 0.31070(14) 0.36347(11)
Er6 Er 0.24547(2) 0.48027(2) 0.60176(2)
Er9 Er 0.75453(2) 0.51973(2) 0.39824(2)
O35 O 0.34232(12) 0.11017(10) 0.10129(7)
O37 O 0.65109(12) 0.02814(9) 0.93513(7)
O39 O 0.71956(12) 0.09937(10) 0.87305(8)
O43 O 0.22744(12) 0.07777(10) 0.01788(7)
H37 H 0.16755 0.00125588 0.189215
H39 H 0.80756 0.0740883 0.826972
H40 H 0.891267 0.037623 0.861187
Er1 Er 0.75453(2) 0.98027(2) 0.89824(2)
Er2 Er 0.57519(2) 0.81574(2) 0.58512(2)
Cl1 Cl 0.53087(4) 0.72132(3) 0.38509(2)
Cl3 Cl 0.49373(4) 0.57133(3) 0.51883(3)
Cl5 Cl 0.79722(5) 0.78099(4) 0.76560(3)
Cl6 Cl 0.82399(5) 0.65289(4) 0.58686(3)
Cl7 Cl 0.31069(5) 0.95396(4) 0.47787(3)
Cl8 Cl 0.33455(7) 0.73251(4) 0.68104(3)
O1 O 0.65768(12) 0.61017(10) 0.39871(7)
O2 O 0.34891(12) 0.52814(9) 0.56487(7)
O3 O 0.28044(12) 0.59937(10) 0.62695(8)
O5 O 0.69620(14) 0.76363(10) 0.57420(8)
O6 O 0.46406(14) 0.87906(10) 0.53701(8)
O7 O 0.47268(15) 0.77677(10) 0.62842(8)
O8 O 0.65256(12) 0.98756(10) 0.81833(7)
O11 O 0.66487(15) 0.80603(10) 0.66602(8)
O12 O 0.77256(12) 0.57777(10) 0.48212(7)
O13 O 0.54182(12) 0.70339(9) 0.56901(8)
O14 O 0.76992(12) 0.89514(11) 0.83672(8)
O15 O 0.55785(14) 0.90509(9) 0.64420(8)
O16 O 0.57192(15) 0.78939(10) 0.49360(8)
C39 C 0.72135(18) 0.84355(15) 0.75323(11)
C40 C 0.59952(16) 0.95233(14) 0.73005(10)
C41 C 0.38146(16) 0.58505(14) 0.57863(10)
C42 C 0.73056(17) 0.62863(14) 0.48732(10)
C43 C 0.65332(16) 0.94810(14) 0.78068(10)
C44 C 0.44805(17) 0.61338(13) 0.56230(11)
C45 C 0.66106(16) 0.64745(13) 0.43823(10)
C46 C 0.69010(18) 0.72457(14) 0.53499(11)
C47 C 0.34262(17) 0.62571(14) 0.61666(10)
C48 C 0.72016(16) 0.89216(14) 0.79217(10)
C50 C 0.60287(18) 0.90490(13) 0.69057(10)
C51 C 0.44139(19) 0.71830(14) 0.61778(10)
C52 C 0.48025(17) 0.67650(13) 0.58101(10)
C53 C 0.60992(18) 0.70241(14) 0.44078(10)
C55 C 0.61786(19) 0.74087(13) 0.48710(11)
C56 C 0.74170(18) 0.66947(15) 0.53249(11)
C58 C 0.66675(18) 0.84725(14) 0.70344(11)
C59 C 0.3778(2) 0.68930(14) 0.63653(11)
C60 C 0.4137(2) 0.97853(14) 0.48955(12)
C61 C 0.4764(2) 0.93575(14) 0.51825(10)
O18 O 0.88713(12) 0.93109(11) 0.92727(8)
C65 C 0.94180(17) 0.95979(16) 0.96239(11)
O21 O 0.62061(15) 0.91635(10) 0.55321(8)
C66 C 0.5667(2) 0.95826(14) 0.52882(10)
Cl12 Cl 0.47026(4) 0.98063(3) 0.28282(3)
O34 O 0.16700(14) 0.97000(14) 0.15915(9)
O36 O 0.65768(12) 0.88983(10) 0.89871(7)
O38 O 0.34891(12) 0.97186(9) 0.06487(7)
O40 O 0.28044(12) 0.90063(10) 0.12695(8)
O44 O 0.77256(12) 0.92223(10) 0.98212(7)
H38 H 0.108733 0.962377 0.138813
Cl1_2 Cl 0.46913(4) 0.22132(3) 0.11491(2)
Cl7_2 Cl 0.68931(5) 0.45396(4) 0.02213(3)
O9_2 O 0.62061(15) 0.58365(10) 0.05321(8)
O16_2 O 0.42808(15) 0.28939(10) 0.00640(8)
C42_2 C 0.26944(17) 0.12863(14) 0.01268(10)
C45_2 C 0.33894(16) 0.14745(13) 0.06177(10)
C53_2 C 0.39008(18) 0.20241(14) 0.05922(10)
C55_2 C 0.38214(19) 0.24087(13) 0.01290(11)
C57_2 C 0.5667(2) 0.54174(14) 0.02882(10)
C60_2 C 0.5863(2) 0.47853(14) 0.01045(12)
O20_2 O 0.46406(14) 0.62094(10) 0.03701(8)
C68_2 C 0.4764(2) 0.56425(14) 0.01825(10)
Er4_2 Er 0.57519(2) 0.68426(2) 0.08512(2)
Cl12_2 Cl 0.52974(4) 0.48063(3) 0.21718(3)
Cl13_2 Cl 0.49373(4) 0.92867(3) 0.01883(3)
Cl14_2 Cl 0.79722(5) 0.71901(4) 0.26560(3)
Cl15_2 Cl 0.82399(5) 0.84711(4) 0.08686(3)
Cl16_2 Cl 0.33455(7) 0.76749(4) 0.18104(3)
O25_2 O 0.69620(14) 0.73637(10) 0.07420(8)
O26_2 O 0.47268(15) 0.72323(10) 0.12842(8)
O27_2 O 0.65256(12) 0.51244(10) 0.31833(7)
O28_2 O 0.66487(15) 0.69397(10) 0.16602(8)
O30_2 O 0.54182(12) 0.79661(9) 0.06901(8)
O31_2 O 0.76992(12) 0.60486(11) 0.33672(8)
O32_2 O 0.55785(14) 0.59491(9) 0.14420(8)
O34_2 O 0.83300(14) 0.47000(14) 0.34085(9)
C69_2 C 0.72135(18) 0.65645(15) 0.25323(11)
C70_2 C 0.59952(16) 0.54767(14) 0.23005(10)
C71_2 C 0.38146(16) 0.91495(14) 0.07863(10)
C73_2 C 0.65332(16) 0.55190(14) 0.28068(10)
C74_2 C 0.44805(17) 0.88662(13) 0.06230(11)
C76_2 C 0.69010(18) 0.77543(14) 0.03499(11)
C77_2 C 0.34262(17) 0.87429(14) 0.11666(10)
C78_2 C 0.72016(16) 0.60784(14) 0.29217(10)
C79_2 C 0.60287(18) 0.59510(13) 0.19057(10)
C80_2 C 0.44139(19) 0.78170(14) 0.11778(10)
C81_2 C 0.48025(17) 0.82350(13) 0.08101(10)
C84_2 C 0.74170(18) 0.83053(15) 0.03249(11)
C85_2 C 0.66675(18) 0.65275(14) 0.20344(11)
C86_2 C 0.3778(2) 0.81070(14) 0.13653(11)
O41 O 0.88713(12) 0.56891(11) 0.42727(8)
O42 O 0.84674(12) 0.44951(11) 0.45799(8)
Er2_2 Er 0.42481(2) 0.31574(2) 0.91488(2)
Cl2_2 Cl 0.47026(4) 0.51937(3) 0.78282(3)
Cl3_2 Cl 0.50627(4) 0.07133(3) 0.98117(3)
Cl4 Cl 0.04109(4) 0.64991(4) 0.46855(3)
Cl5_2 Cl 0.20278(5) 0.28099(4) 0.73440(3)
Cl6_2 Cl 0.17601(5) 0.15289(4) 0.91314(3)
Cl8_2 Cl 0.66545(7) 0.23251(4) 0.81896(3)
O5_2 O 0.30380(14) 0.26363(10) 0.92580(8)
O6_2 O 0.53594(14) 0.37906(10) 0.96299(8)
O7_2 O 0.52732(15) 0.27677(10) 0.87158(8)
O8_2 O 0.34744(12) 0.48756(10) 0.68167(7)
O10_2 O 0.15326(12) 0.55049(11) 0.54201(8)
O11_2 O 0.33513(15) 0.30603(10) 0.83398(8)
O13_2 O 0.45818(12) 0.20339(9) 0.93099(8)
O14_2 O 0.23008(12) 0.39514(11) 0.66328(8)
O15_2 O 0.44215(14) 0.40509(9) 0.85580(8)
O17_2 O 0.16700(14) 0.53000(14) 0.65915(9)
C39_2 C 0.27865(18) 0.34355(15) 0.74677(11)
C40_2 C 0.40048(16) 0.45233(14) 0.76995(10)
C41_2 C 0.61854(16) 0.08505(14) 0.92137(10)
C43_2 C 0.34668(16) 0.44810(14) 0.71932(10)
C44_2 C 0.55195(17) 0.11338(13) 0.93770(11)
C46_2 C 0.30990(18) 0.22457(14) 0.96501(11)
C47_2 C 0.65738(17) 0.12571(14) 0.88334(10)
C48_2 C 0.27984(16) 0.39216(14) 0.70783(10)
C49_2 C 0.08011(17) 0.53102(16) 0.52171(11)
C50_2 C 0.39713(18) 0.40490(13) 0.80943(10)
C51_2 C 0.55861(19) 0.21830(14) 0.88222(10)
C52_2 C 0.51975(17) 0.17650(13) 0.91899(10)
C54 C 0.01963(17) 0.56854(15) 0.48626(11)
C56_2 C 0.25830(18) 0.16947(15) 0.96751(11)
C58_2 C 0.33325(18) 0.34725(14) 0.79656(11)
C59_2 C 0.6222(2) 0.18930(14) 0.86347(11)
C61_2 C 0.5236(2) 0.43575(14) 0.98175(10)
O18_2 O 0.11287(12) 0.43109(11) 0.57273(8)
C65_2 C 0.05820(17) 0.45979(16) 0.53761(11)
Cl10_2 Cl 0.31069(5) 0.54604(4) 0.97787(3)
O21_2 O 0.37939(15) 0.41635(10) 0.94679(8)
C66_2 C 0.4333(2) 0.45826(14) 0.97118(10)
C67_2 C 0.4137(2) 0.52147(14) 0.98955(12)
Cl11_2 Cl 0.53087(4) 0.77868(3) 0.88509(2)
O33_2 O 0.57192(15) 0.71061(10) 0.99360(8)
C72_2 C 0.73056(17) 0.87137(14) 0.98732(10)
C75_2 C 0.66106(16) 0.85255(13) 0.93823(10)
C82_2 C 0.60992(18) 0.79759(14) 0.94078(10)
C83_2 C 0.61786(19) 0.75913(13) 0.98710(11)
C62_2 C 0.94180(17) 0.54021(16) 0.46239(11)
Cl9 Cl 0.95891(4) 0.35009(4) 0.53145(3)
C63_2 C 0.91989(17) 0.46898(16) 0.47829(11)
C64 C 0.98037(17) 0.43146(15) 0.51374(11)
H37_2 H 0.83245 0.998744 0.810785
H39_2 H 0.19244 0.925912 0.173028
Cl9_2 Cl 0.04109(4) 0.85009(4) 0.96855(3)
C64_2 C 0.01963(17) 0.93146(15) 0.98626(11)
Cl4_2 Cl 0.95891(4) 0.14991(4) 0.03145(3)
C54_2 C 0.98037(17) 0.06854(15) 0.01374(11)
loop_
_geom_bond_atom_site_label_1
_geom_bond_atom_site_label_2
_geom_bond_site_symmetry_1
_geom_bond_site_symmetry_2
H18 C19 1_555 1_555
P1 C2 1_555 1_555
C1 H1 1_555 1_555
C2 C6 1_555 1_555
C3 P1 1_555 1_555
C4 C1 1_555 1_555
H2 C4 1_555 1_555
C5 P1 1_555 1_555
C6 H3 1_555 1_555
C7 C2 1_555 1_555
H4 C7 1_555 1_555
C8 C3 1_555 1_555
H5 C8 1_555 1_555
C9 C5 1_555 1_555
H6 C9 1_555 1_555
C10 C4 1_555 1_555
H7 C10 1_555 1_555
C11 P1 1_555 1_555
H8 C11 1_555 1_555
H9 C11 1_555 1_555
H10 C11 1_555 1_555
C12 C5 1_555 1_555
H11 C12 1_555 1_555
C13 H12 1_555 1_555
C14 C8 1_555 1_555
H13 C14 1_555 1_555
C15 C6 1_555 1_555
H14 C15 1_555 1_555
C16 C7 1_555 1_555
H15 C16 1_555 1_555
C17 C9 1_555 1_555
H16 C17 1_555 1_555
C18 C12 1_555 1_555
C1 C3 1_555 1_555
C10 C14 1_555 1_555
C13 C15 1_555 1_555
C13 C16 1_555 1_555
H2_2 C4_2 1_555 1_555
C10_2 C4_2 1_555 1_555
H7_2 C10_2 1_555 1_555
P1_2 C2_2 1_555 1_555
C1_2 H1_2 1_555 1_555
C2_2 C6_2 1_555 1_555
C3_2 P1_2 1_555 1_555
C5_2 P1_2 1_555 1_555
C6_2 H3_2 1_555 1_555
C7_2 C2_2 1_555 1_555
H4_2 C7_2 1_555 1_555
C8_2 C3_2 1_555 1_555
H5_2 C8_2 1_555 1_555
C9_2 C5_2 1_555 1_555
H6_2 C9_2 1_555 1_555
C11_2 P1_2 1_555 1_555
H8_2 C11_2 1_555 1_555
H9_2 C11_2 1_555 1_555
C12_2 C5_2 1_555 1_555
C13_2 H12_2 1_555 1_555
C14_2 C8_2 1_555 1_555
H13_2 C14_2 1_555 1_555
C15_2 C6_2 1_555 1_555
H14_2 C15_2 1_555 1_555
C16_2 C7_2 1_555 1_555
H15_2 C16_2 1_555 1_555
C17_2 C9_2 1_555 1_555
H16_2 C17_2 1_555 1_555
C18_2 C12_2 1_555 1_555
C1_2 C3_2 1_555 1_555
C10_3 C14_2 1_555 1_555
C13_2 C15_2 1_555 1_555
C13_2 C16_2 1_555 1_555
H18_2 C19_2 1_555 1_555
P1_3 C2_3 1_555 1_555
C1_3 H1_3 1_555 1_555
C2_3 C6_3 1_555 1_555
C3_3 P1_3 1_555 1_555
C4_3 C1_3 1_555 1_555
H2_3 C4_3 1_555 1_555
C5_3 P1_3 1_555 1_555
C6_3 H3_3 1_555 1_555
C7_3 C2_3 1_555 1_555
H4_3 C7_3 1_555 1_555
C8_3 C3_3 1_555 1_555
H5_3 C8_3 1_555 1_555
C9_3 C5_3 1_555 1_555
H6_3 C9_3 1_555 1_555
C10_4 C4_3 1_555 1_555
H7_3 C10_4 1_555 1_555
C11_3 P1_3 1_555 1_555
H8_3 C11_3 1_555 1_555
H9_3 C11_3 1_555 1_555
H10_3 C11_3 1_555 1_555
C12_3 C5_3 1_555 1_555
H11_3 C12_3 1_555 1_555
C13_3 H12_3 1_555 1_555
C14_3 C8_3 1_555 1_555
H13_3 C14_3 1_555 1_555
C15_3 C6_3 1_555 1_555
H14_3 C15_3 1_555 1_555
C16_3 C7_3 1_555 1_555
H15_3 C16_3 1_555 1_555
C17_3 C9_3 1_555 1_555
H16_3 C17_3 1_555 1_555
C18_3 C12_3 1_555 1_555
C1_3 C3_3 1_555 1_555
C10_4 C14_3 1_555 1_555
C13_3 C15_3 1_555 1_555
C13_3 C16_3 1_555 1_555
H18_3 C19_3 1_555 1_555
H18_4 C19_4 1_555 1_555
P1_4 C2_4 1_555 1_555
C1_4 H1_4 1_555 1_555
C2_4 C6_4 1_555 1_555
C3_4 P1_4 1_555 1_555
C5_4 P1_4 1_555 1_555
C6_4 H3_4 1_555 1_555
C7_4 C2_4 1_555 1_555
H4_4 C7_4 1_555 1_555
C8_4 C3_4 1_555 1_555
H5_4 C8_4 1_555 1_555
C9_4 C5_4 1_555 1_555
H6_4 C9_4 1_555 1_555
C11_4 P1_4 1_555 1_555
H8_4 C11_4 1_555 1_555
H9_4 C11_4 1_555 1_555
C12_4 C5_4 1_555 1_555
C13_4 H12_4 1_555 1_555
C14_4 C8_4 1_555 1_555
H13_4 C14_4 1_555 1_555
C15_4 C6_4 1_555 1_555
H14_4 C15_4 1_555 1_555
C16_4 C7_4 1_555 1_555
H15_4 C16_4 1_555 1_555
C17_4 C9_4 1_555 1_555
H16_4 C17_4 1_555 1_555
C18_4 C12_4 1_555 1_555
C1_4 C3_4 1_555 1_555
C10_5 C14_4 1_555 1_555
C13_4 C15_4 1_555 1_555
C13_4 C16_4 1_555 1_555
H2_4 C4_4 1_555 1_555
C10_6 C4_4 1_555 1_555
H7_4 C10_6 1_555 1_555
C26 H26 1_555 1_555
C27 C26 1_555 1_555
H27 C27 1_555 1_555
C36 C27 1_555 1_555
H34 C36 1_555 1_555
C38 C33 1_555 1_555
H36 C38 1_555 1_555
C36 C38 1_555 1_555
P2 C20 1_555 1_555
C20 C23 1_555 1_555
C21 H19 1_555 1_555
C22 P2 1_555 1_555
H20 C22 1_555 1_555
H21 C22 1_555 1_555
H22 C22 1_555 1_555
C23 H23 1_555 1_555
C24 H24 1_555 1_555
C25 C21 1_555 1_555
H25 C25 1_555 1_555
C28 P2 1_555 1_555
C29 P2 1_555 1_555
C30 C23 1_555 1_555
H28 C30 1_555 1_555
C31 C30 1_555 1_555
H29 C31 1_555 1_555
C32 C24 1_555 1_555
H30 C32 1_555 1_555
C34 C29 1_555 1_555
H32 C34 1_555 1_555
C35 C20 1_555 1_555
H33 C35 1_555 1_555
C37 C31 1_555 1_555
H35 C37 1_555 1_555
C21 C29 1_555 1_555
C24 C25 1_555 1_555
C32 C34 1_555 1_555
C35 C37 1_555 1_555
P2_2 C20_2 1_555 1_555
C20_2 C23_2 1_555 1_555
C21_2 H19_2 1_555 1_555
C22_2 P2_2 1_555 1_555
H20_2 C22_2 1_555 1_555
H21_2 C22_2 1_555 1_555
H22_2 C22_2 1_555 1_555
C23_2 H23_2 1_555 1_555
C24_2 H24_2 1_555 1_555
C25_2 C21_2 1_555 1_555
H25_2 C25_2 1_555 1_555
C26_2 H26_2 1_555 1_555
C27_2 C26_2 1_555 1_555
H27_2 C27_2 1_555 1_555
C28_2 P2_2 1_555 1_555
C29_2 P2_2 1_555 1_555
C30_2 C23_2 1_555 1_555
H28_2 C30_2 1_555 1_555
C31_2 C30_2 1_555 1_555
H29_2 C31_2 1_555 1_555
C32_2 C24_2 1_555 1_555
C33_2 C28_2 1_555 1_555
H31_2 C33_2 1_555 1_555
C34_2 C29_2 1_555 1_555
H32_2 C34_2 1_555 1_555
C35_2 C20_2 1_555 1_555
H33_2 C35_2 1_555 1_555
C36_2 C27_2 1_555 1_555
H34_2 C36_2 1_555 1_555
C37_2 C31_2 1_555 1_555
H35_2 C37_2 1_555 1_555
C38_2 C33_2 1_555 1_555
H36_2 C38_2 1_555 1_555
C21_2 C29_2 1_555 1_555
C24_2 C25_2 1_555 1_555
C26_2 C28_2 1_555 1_555
C32_2 C34_2 1_555 1_555
C35_2 C37_2 1_555 1_555
C36_2 C38_2 1_555 1_555
P2_3 C20_3 1_555 1_555
C20_3 C23_3 1_555 1_555
C21_3 H19_3 1_555 1_555
C22_3 P2_3 1_555 1_555
H20_3 C22_3 1_555 1_555
H21_3 C22_3 1_555 1_555
H22_3 C22_3 1_555 1_555
C23_3 H23_3 1_555 1_555
C24_3 H24_3 1_555 1_555
C25_3 C21_3 1_555 1_555
H25_3 C25_3 1_555 1_555
C28_3 P2_3 1_555 1_555
C29_3 P2_3 1_555 1_555
C30_3 C23_3 1_555 1_555
H28_3 C30_3 1_555 1_555
C31_3 C30_3 1_555 1_555
H29_3 C31_3 1_555 1_555
C32_3 C24_3 1_555 1_555
H30_3 C32_3 1_555 1_555
C34_3 C29_3 1_555 1_555
H32_3 C34_3 1_555 1_555
C35_3 C20_3 1_555 1_555
H33_3 C35_3 1_555 1_555
C37_3 C31_3 1_555 1_555
H35_3 C37_3 1_555 1_555
C21_3 C29_3 1_555 1_555
C24_3 C25_3 1_555 1_555
C32_3 C34_3 1_555 1_555
C35_3 C37_3 1_555 1_555
C26_3 H26_3 1_555 1_555
C27_3 C26_3 1_555 1_555
H27_3 C27_3 1_555 1_555
C36_3 C27_3 1_555 1_555
H34_3 C36_3 1_555 1_555
C38_3 C33_3 1_555 1_555
H36_3 C38_3 1_555 1_555
C36_3 C38_3 1_555 1_555
P2_4 C20_4 1_555 1_555
C20_4 C23_4 1_555 1_555
C21_4 H19_4 1_555 1_555
C22_4 P2_4 1_555 1_555
H20_4 C22_4 1_555 1_555
H21_4 C22_4 1_555 1_555
H22_4 C22_4 1_555 1_555
C23_4 H23_4 1_555 1_555
C24_4 H24_4 1_555 1_555
C25_4 C21_4 1_555 1_555
H25_4 C25_4 1_555 1_555
C26_4 H26_4 1_555 1_555
C27_4 C26_4 1_555 1_555
H27_4 C27_4 1_555 1_555
C28_4 P2_4 1_555 1_555
C29_4 P2_4 1_555 1_555
C30_4 C23_4 1_555 1_555
H28_4 C30_4 1_555 1_555
C31_4 C30_4 1_555 1_555
H29_4 C31_4 1_555 1_555
C32_4 C24_4 1_555 1_555
C33_4 C28_4 1_555 1_555
H31_4 C33_4 1_555 1_555
C34_4 C29_4 1_555 1_555
H32_4 C34_4 1_555 1_555
C35_4 C20_4 1_555 1_555
H33_4 C35_4 1_555 1_555
C36_4 C27_4 1_555 1_555
H34_4 C36_4 1_555 1_555
C37_4 C31_4 1_555 1_555
H35_4 C37_4 1_555 1_555
C38_4 C33_4 1_555 1_555
H36_4 C38_4 1_555 1_555
C21_4 C29_4 1_555 1_555
C24_4 C25_4 1_555 1_555
C26_4 C28_4 1_555 1_555
C32_4 C34_4 1_555 1_555
C35_4 C37_4 1_555 1_555
C36_4 C38_4 1_555 1_555
O4 C62 1_555 1_555
Er7 O4 1_555 1_555
O19 C63 1_555 1_555
O9 C57 1_555 1_555
C49 O10 1_555 1_555
Cl10 C67 1_555 1_555
O20 C68 1_555 1_555
C68 C57 1_555 1_555
Er7 O27 1_555 1_555
Er4 O9 1_555 1_555
Cl11 C82 1_555 1_555
Cl13 C74 1_555 1_555
Cl14 C69 1_555 1_555
Cl15 C84 1_555 1_555
Cl16 C86 1_555 1_555
O22 C75 1_555 1_555
O23 C71 1_555 1_555
O24 C77 1_555 1_555
O25 Er4 1_555 1_555
O26 Er4 1_555 1_555
O27 C73 1_555 1_555
O28 Er4 1_555 1_555
O29 C72 1_555 1_555
O30 Er4 1_555 1_555
O31 Er7 1_555 1_555
O32 Er4 1_555 1_555
O33 Er4 1_555 1_555
C69 C78 1_555 1_555
C70 C73 1_555 1_555
C71 C74 1_555 1_555
C72 C75 1_555 1_555
C73 C78 1_555 1_555
C74 C81 1_555 1_555
C75 C82 1_555 1_555
C76 O25 1_555 1_555
C77 C71 1_555 1_555
C78 O31 1_555 1_555
C79 O32 1_555 1_555
C80 O26 1_555 1_555
C81 O30 1_555 1_555
C82 C83 1_555 1_555
C83 O33 1_555 1_555
C84 C72 1_555 1_555
C85 O28 1_555 1_555
C86 C77 1_555 1_555
Er6 O22 1_555 1_555
Er9 O23 1_555 1_555
O35 Er7 1_555 1_555
O43 Er7 1_555 1_555
O20 Er4 1_555 1_555
C67 C68 1_555 1_555
O24 Er9 1_555 1_555
O29 Er6 1_555 1_555
C69 C85 1_555 1_555
C70 C79 1_555 1_555
C76 C83 1_555 1_555
C76 C84 1_555 1_555
C79 C85 1_555 1_555
C80 C81 1_555 1_555
C80 C86 1_555 1_555
O17 H39 1_555 1_555
O17 H40 1_555 1_555
Er1 O8 1_555 1_555
Er2 O5 1_555 1_555
Cl1 C53 1_555 1_555
Cl3 C44 1_555 1_555
Cl5 C39 1_555 1_555
Cl6 C56 1_555 1_555
Cl7 C60 1_555 1_555
Cl8 C59 1_555 1_555
O1 C45 1_555 1_555
O2 C41 1_555 1_555
O3 C47 1_555 1_555
O5 C46 1_555 1_555
O6 Er2 1_555 1_555
O7 Er2 1_555 1_555
O8 C43 1_555 1_555
O11 Er2 1_555 1_555
O12 C42 1_555 1_555
O13 Er2 1_555 1_555
O14 Er1 1_555 1_555
O15 Er2 1_555 1_555
O16 Er2 1_555 1_555
C39 C48 1_555 1_555
C40 C43 1_555 1_555
C41 C44 1_555 1_555
C42 C45 1_555 1_555
C43 C48 1_555 1_555
C44 C52 1_555 1_555
C45 C53 1_555 1_555
C46 C55 1_555 1_555
C47 C41 1_555 1_555
C48 O14 1_555 1_555
C50 O15 1_555 1_555
C51 O7 1_555 1_555
C52 O13 1_555 1_555
C53 C55 1_555 1_555
C55 O16 1_555 1_555
C56 C42 1_555 1_555
C58 O11 1_555 1_555
C59 C47 1_555 1_555
C60 C61 1_555 1_555
C61 O6 1_555 1_555
O18 Er1 1_555 1_555
O21 Er2 1_555 1_555
C66 C61 1_555 1_555
Er6 O2 1_555 1_555
Er9 O1 1_555 1_555
O36 Er1 1_555 1_555
O44 Er1 1_555 1_555
O3 Er6 1_555 1_555
O12 Er9 1_555 1_555
C39 C58 1_555 1_555
C40 C50 1_555 1_555
C46 C56 1_555 1_555
C50 C58 1_555 1_555
C51 C52 1_555 1_555
C51 C59 1_555 1_555
O18 C65 1_555 1_555
O21 C66 1_555 1_555
O34 H38 1_555 1_555
Cl1_2 C53_2 1_555 1_555
Cl7_2 C60_2 1_555 1_555
O35 C45_2 1_555 1_555
O9_2 C57_2 1_555 1_555
O43 C42_2 1_555 1_555
C42_2 C45_2 1_555 1_555
C45_2 C53_2 1_555 1_555
C53_2 C55_2 1_555 1_555
C55_2 O16_2 1_555 1_555
C57_2 C60_2 1_555 1_555
O20_2 C68_2 1_555 1_555
C68_2 C57_2 1_555 1_555
Er9 O27_2 1_555 1_555
Er4_2 O9_2 1_555 1_555
Cl12_2 C70_2 1_555 1_555
Cl13_2 C74_2 1_555 1_555
Cl14_2 C69_2 1_555 1_555
Cl15_2 C84_2 1_555 1_555
Cl16_2 C86_2 1_555 1_555
O38 C71_2 1_555 1_555
O40 C77_2 1_555 1_555
O25_2 Er4_2 1_555 1_555
O26_2 Er4_2 1_555 1_555
O27_2 C73_2 1_555 1_555
O28_2 Er4_2 1_555 1_555
O30_2 Er4_2 1_555 1_555
O31_2 Er9 1_555 1_555
O32_2 Er4_2 1_555 1_555
O34_2 Er9 1_555 1_555
C69_2 C78_2 1_555 1_555
C70_2 C73_2 1_555 1_555
C71_2 C74_2 1_555 1_555
C73_2 C78_2 1_555 1_555
C74_2 C81_2 1_555 1_555
C76_2 O25_2 1_555 1_555
C77_2 C71_2 1_555 1_555
C78_2 O31_2 1_555 1_555
C79_2 O32_2 1_555 1_555
C80_2 O26_2 1_555 1_555
C81_2 O30_2 1_555 1_555
C85_2 O28_2 1_555 1_555
C86_2 C77_2 1_555 1_555
O41 Er9 1_555 1_555
O42 Er9 1_555 1_555
O20_2 Er4_2 1_555 1_555
C69_2 C85_2 1_555 1_555
C70_2 C79_2 1_555 1_555
C76_2 C84_2 1_555 1_555
C79_2 C85_2 1_555 1_555
C80_2 C81_2 1_555 1_555
C80_2 C86_2 1_555 1_555
Er6 O8_2 1_555 1_555
Er2_2 O5_2 1_555 1_555
Cl2_2 C40_2 1_555 1_555
Cl3_2 C44_2 1_555 1_555
Cl4 C54 1_555 1_555
Cl5_2 C39_2 1_555 1_555
Cl6_2 C56_2 1_555 1_555
Cl8_2 C59_2 1_555 1_555
O37 C41_2 1_555 1_555
O39 C47_2 1_555 1_555
O5_2 C46_2 1_555 1_555
O6_2 Er2_2 1_555 1_555
O7_2 Er2_2 1_555 1_555
O8_2 C43_2 1_555 1_555
O10_2 Er6 1_555 1_555
O11_2 Er2_2 1_555 1_555
O13_2 Er2_2 1_555 1_555
O14_2 Er6 1_555 1_555
O15_2 Er2_2 1_555 1_555
O17_2 Er6 1_555 1_555
C39_2 C48_2 1_555 1_555
C40_2 C43_2 1_555 1_555
C41_2 C44_2 1_555 1_555
C43_2 C48_2 1_555 1_555
C44_2 C52_2 1_555 1_555
C47_2 C41_2 1_555 1_555
C48_2 O14_2 1_555 1_555
C49_2 O10_2 1_555 1_555
C50_2 O15_2 1_555 1_555
C51_2 O7_2 1_555 1_555
C52_2 O13_2 1_555 1_555
C54 C49_2 1_555 1_555
C58_2 O11_2 1_555 1_555
C59_2 C47_2 1_555 1_555
C61_2 O6_2 1_555 1_555
O18_2 Er6 1_555 1_555
C65_2 C49_2 1_555 1_555
Cl10_2 C67_2 1_555 1_555
O21_2 Er2_2 1_555 1_555
C66_2 C61_2 1_555 1_555
C67_2 C66_2 1_555 1_555
Cl11_2 C82_2 1_555 1_555
O36 C75_2 1_555 1_555
O44 C72_2 1_555 1_555
C72_2 C75_2 1_555 1_555
C75_2 C82_2 1_555 1_555
C82_2 C83_2 1_555 1_555
C83_2 O33_2 1_555 1_555
C39_2 C58_2 1_555 1_555
C40_2 C50_2 1_555 1_555
C46_2 C56_2 1_555 1_555
C50_2 C58_2 1_555 1_555
C51_2 C52_2 1_555 1_555
C51_2 C59_2 1_555 1_555
O18_2 C65_2 1_555 1_555
O21_2 C66_2 1_555 1_555
O41 C62_2 1_555 1_555
Cl9 C64 1_555 1_555
O42 C63_2 1_555 1_555
C63_2 C62_2 1_555 1_555
C64 C63_2 1_555 1_555
O34 H39_2 1_555 1_555
Cl9_2 C64_2 1_555 1_555
Cl4_2 C54_2 1_555 1_555

#END
