
###############################################################################
#
# This file contains modified crystal structure data generated from the
# MOF subset of the Cambridge Structural Database (CSD) v543 
# hosted by the Cambridge Crystallographic Data Centre (CCDC).
#
# This work is licensed under the Creative Commons
# Attribution-NonCommercial-ShareAlike 4.0 International License.
# To view a copy of this license, visit
# http://creativecommons.org/licenses/by-nc-sa/4.0/
# or send a letter to
# Creative Commons, PO Box 1866, Mountain View, CA 94042, USA.
#
# CIF created using the CSD Python API on 29 September 2022
# The structure has been converted into the P1 space group
# The structure has a 3D framework
# The original CSD entry JOGQED is in the triclinic crystal system
# The framework has been calculated to contain at least 10.0% void space
# The void calculation uses a probe of radius 1.32A, grid spacing 0.4
#
###############################################################################

data_JOGQED
_chemical_formula_moiety         '(C68 H52 Cd2 N8 O12)n'
_symmetry_cell_setting           triclinic
_symmetry_space_group_name_H-M   'P 1'
_symmetry_Int_Tables_number      1
_space_group_name_Hall           'P 1'
loop_
_symmetry_equiv_pos_site_id
_symmetry_equiv_pos_as_xyz
1 x,y,z
_cell_length_a                   9.4740(8)
_cell_length_b                   11.2487(10)
_cell_length_c                   16.5633(15)
_cell_angle_alpha                84.0930(10)
_cell_angle_beta                 89.4220(10)
_cell_angle_gamma                83.414(2)
_cell_volume                     1744.19
loop_
_atom_site_label
_atom_site_type_symbol
_atom_site_fract_x
_atom_site_fract_y
_atom_site_fract_z
_atom_site_U_iso_or_equiv
_atom_site_thermal_displace_type
C23 C 0.3732(11) 0.3930(12) 0.0549(6) 0.0916 Uani
H14 H 0.3584 0.4520 0.0930 0.1370 Uiso
H15 H 0.4714 0.3839 0.0393 0.1370 Uiso
H16 H 0.3479 0.3173 0.0795 0.1370 Uiso
C51 C 0.0775(8) 0.4644(7) 0.0691(4) 0.0485 Uani
H38 H 0.1304 0.4390 0.1159 0.0590 Uiso
H39 H 0.0319 0.5734 0.2057 0.0650 Uiso
C9 C 0.0399(9) 0.8835(7) 0.9844(5) 0.0549 Uani
H5 H 0.0668 0.8040 0.9750 0.0660 Uiso
H28 H 0.0786 0.8193 0.8309 0.0630 Uiso
C61 C 0.0022(7) 0.1448(6) 0.6011(4) 0.0399 Uani
C62 C 0.0087(8) 0.0261(6) 0.6307(5) 0.0520 Uani
C63 C 0.0982(8) 0.1825(6) 0.5450(5) 0.0497 Uani
H47 H 0.0922 0.2633 0.5250 0.0600 Uiso
C67 C 0.2050(8) 0.1011(6) 0.5174(5) 0.0517 Uani
H51 H 0.2711 0.1265 0.4794 0.0620 Uiso
Cd1 Cd 0.36707(4) 0.42304(3) 0.43691(2) 0.0280 Uani
O2 O 0.3882(6) 0.3355(5) 0.3086(3) 0.0587 Uani
O3 O 0.1911(6) 0.3238(5) 0.3783(3) 0.0542 Uani
O4 O 0.4218(5) 0.4928(5) 0.5852(3) 0.0568 Uani
O5 O 0.2250(6) 0.4368(5) 0.5499(3) 0.0520 Uani
O6 O 0.2883(6) 0.4306(6) 0.9858(3) 0.0712 Uani
N3 N 0.1075(6) 0.7676(5) 0.3747(4) 0.0399 Uani
N4 N 0.2614(6) 0.6050(5) 0.3817(4) 0.0425 Uani
C2 C 0.2662(8) 0.2995(6) 0.3184(4) 0.0426 Uani
C3 C 0.3044(10) 0.1557(8) 0.2136(5) 0.0628 Uani
H1 H 0.4015 0.1492 0.2234 0.0750 Uiso
C4 C 0.2128(8) 0.2293(6) 0.2573(4) 0.0447 Uani
C5 C 0.0179(9) 0.1736(7) 0.1812(5) 0.0526 Uani
C6 C 0.2536(10) 0.0912(8) 0.1552(5) 0.0640 Uani
H3 H 0.3164 0.0408 0.1271 0.0770 Uiso
C7 C 0.0688(9) 0.2364(7) 0.2429(4) 0.0492 Uani
H4 H 0.0052 0.2823 0.2736 0.0600 Uiso
C8 C 0.1142(8) 0.1018(6) 0.1396(4) 0.0461 Uani
C10 C 0.0547(9) 0.0473(7) 0.0669(5) 0.0538 Uani
C13 C 0.2997(7) 0.4722(5) 0.5999(4) 0.0331 Uani
C14 C 0.2393(7) 0.4840(6) 0.6837(4) 0.0368 Uani
C15 C 0.1074(8) 0.4477(7) 0.7028(4) 0.0487 Uani
H9 H 0.0539 0.4196 0.6635 0.0590 Uiso
C16 C 0.2604(7) 0.5376(7) 0.8197(4) 0.0464 Uani
H10 H 0.3113 0.5692 0.8585 0.0550 Uiso
C17 C 0.3147(7) 0.5303(7) 0.7419(4) 0.0445 Uani
H11 H 0.4024 0.5568 0.7289 0.0530 Uiso
C19 C 0.1279(7) 0.4970(6) 0.8397(4) 0.0425 Uani
C20 C 0.0666(7) 0.5006(6) 0.9238(4) 0.0425 Uani
C21 C 0.1463(8) 0.4659(7) 0.9946(4) 0.0486 Uani
C22 C 0.0555(8) 0.4535(8) 0.7814(5) 0.0542 Uani
C24 C 0.2721(9) 0.6667(7) 0.3074(5) 0.0519 Uani
H17 H 0.3348 0.6433 0.2669 0.0620 Uiso
C25 C 0.1781(9) 0.7675(7) 0.3010(5) 0.0494 Uani
H18 H 0.1639 0.8248 0.2564 0.0590 Uiso
C26 C 0.1633(7) 0.6694(6) 0.4218(4) 0.0398 Uani
H19 H 0.1369 0.6493 0.4753 0.0480 Uiso
H20 H 0.0581 0.9990 0.3317 0.0630 Uiso
Cd7 Cd 0.63293(4) 0.57696(3) 0.56309(2) 0.0280 Uani
O15 O 0.5782(5) 0.5072(5) 0.4148(3) 0.0568 Uani
N9 N 0.5114(6) 0.2535(5) 0.4840(4) 0.0446 Uani
C57 C 0.2105(7) 0.9830(6) 0.5476(5) 0.0399 Uani
N5 N 0.3198(6) 0.8989(5) 0.5181(4) 0.0446 Uani
N6 N 0.4886(6) 0.7465(5) 0.5160(4) 0.0446 Uani
C64 C 0.4749(8) 0.8084(7) 0.4415(5) 0.0497 Uani
H48 H 0.5278 0.7881 0.3963 0.0600 Uiso
C65 C 0.3947(8) 0.8033(6) 0.5613(5) 0.0476 Uani
H49 H 0.3810 0.7810 0.6163 0.0570 Uiso
C66 C 0.3757(8) 0.9022(7) 0.4415(5) 0.0510 Uani
H50 H 0.3495 0.9591 0.3979 0.0610 Uiso
C68 C 0.1140(8) 0.9438(6) 0.6049(5) 0.0553 Uani
H52 H 0.1203 0.8633 0.6256 0.0660 Uiso
C1 C 0.7895(7) 0.0170(6) 0.4524(5) 0.0399 Uani
N1 N 0.6802(6) 0.1011(5) 0.4819(4) 0.0446 Uani
C30 C 0.5251(8) 0.1916(7) 0.5585(5) 0.0497 Uani
H22 H 0.4722 0.2119 0.6037 0.0600 Uiso
C31 C 0.6053(8) 0.1967(6) 0.4387(5) 0.0476 Uani
H23 H 0.6190 0.2190 0.3837 0.0570 Uiso
C32 C 0.6243(8) 0.0978(7) 0.5585(5) 0.0510 Uani
H24 H 0.6505 0.0409 0.6021 0.0610 Uiso
C34 C 0.8860(8) 0.0562(6) 0.3951(5) 0.0553 Uani
H26 H 0.8797 0.1367 0.3744 0.0660 Uiso
O11 O 0.7750(6) 0.5632(5) 0.4501(3) 0.0520 Uani
O12 O 0.7117(6) 0.5694(6) 0.0142(3) 0.0712 Uani
C46 C 0.7003(7) 0.5278(5) 0.4001(4) 0.0331 Uani
C47 C 0.7607(7) 0.5160(6) 0.3163(4) 0.0368 Uani
C48 C 0.8926(8) 0.5523(7) 0.2972(4) 0.0487 Uani
H35 H 0.9461 0.5804 0.3365 0.0590 Uiso
C49 C 0.7396(7) 0.4624(7) 0.1803(4) 0.0464 Uani
H36 H 0.6887 0.4308 0.1415 0.0550 Uiso
C50 C 0.6853(7) 0.4697(7) 0.2581(4) 0.0445 Uani
H37 H 0.5976 0.4432 0.2711 0.0530 Uiso
C52 C 0.8721(7) 0.5030(6) 0.1603(4) 0.0425 Uani
C53 C 0.9334(7) 0.4994(6) 0.0762(4) 0.0425 Uani
C54 C 0.8537(8) 0.5341(7) 0.0054(4) 0.0486 Uani
C55 C 0.9445(8) 0.5465(8) 0.2186(5) 0.0542 Uani
O8 O 0.6118(6) 0.6645(5) 0.6914(3) 0.0587 Uani
O9 O 0.8089(6) 0.6762(5) 0.6217(3) 0.0542 Uani
C35 C 0.7338(8) 0.7005(6) 0.6816(4) 0.0426 Uani
C36 C 0.6956(10) 0.8443(8) 0.7864(5) 0.0628 Uani
H27 H 0.5985 0.8508 0.7766 0.0750 Uiso
C37 C 0.7872(8) 0.7707(6) 0.7427(4) 0.0447 Uani
C38 C 0.9821(9) 0.8264(7) 0.8188(5) 0.0526 Uani
C39 C 0.7464(10) 0.9088(8) 0.8448(5) 0.0640 Uani
H29 H 0.6836 0.9592 0.8729 0.0770 Uiso
C40 C 0.9312(9) 0.7636(7) 0.7571(4) 0.0492 Uani
H30 H 0.9948 0.7177 0.7264 0.0600 Uiso
C41 C 0.8858(8) 0.8982(6) 0.8604(4) 0.0461 Uani
C43 C 0.9453(9) 0.9527(7) 0.9331(5) 0.0538 Uani
N7 N 0.8925(6) 0.2324(5) 0.6253(4) 0.0399 Uani
N8 N 0.7386(6) 0.3950(5) 0.6183(4) 0.0425 Uani
C58 C 0.7279(9) 0.3333(7) 0.6926(5) 0.0519 Uani
H43 H 0.6652 0.3567 0.7331 0.0620 Uiso
C59 C 0.8219(9) 0.2325(7) 0.6990(5) 0.0494 Uani
H44 H 0.8361 0.1752 0.7436 0.0590 Uiso
C60 C 0.8367(7) 0.3306(6) 0.5782(4) 0.0398 Uani
H45 H 0.8631 0.3507 0.5247 0.0480 Uiso
H46 H 0.9419 0.0010 0.6683 0.0630 Uiso
O1 O 0.1922(8) 0.8598(6) 0.1028(4) 0.0812 Uani
C11 C 0.0977(9) 0.9282(7) 0.0506(5) 0.0541 Uani
C12 C 0.2567(16) 0.7495(10) 0.0816(7) 0.1051 Uani
H6 H 0.1903 0.6909 0.0889 0.1580 Uiso
H7 H 0.3383 0.7235 0.1155 0.1580 Uiso
H8 H 0.2858 0.7583 0.0258 0.1580 Uiso
H2 H 0.9214 0.1807 0.1691 0.0630 Uiso
C18 C 0.9225(8) 0.5356(7) 0.9309(4) 0.0485 Uani
H12 H 0.8696 0.5610 0.8841 0.0590 Uiso
H13 H 0.9681 0.4266 0.7943 0.0650 Uiso
C27 C 0.9978(7) 0.8552(6) 0.3989(4) 0.0399 Uani
C28 C 0.9913(8) 0.9739(6) 0.3693(5) 0.0520 Uani
C29 C 0.9018(8) 0.8175(6) 0.4550(5) 0.0497 Uani
H21 H 0.9078 0.7367 0.4750 0.0600 Uiso
C33 C 0.7950(8) 0.8989(6) 0.4826(5) 0.0517 Uani
H25 H 0.7289 0.8735 0.5206 0.0620 Uiso
C42 C 0.9601(9) 0.1165(7) 0.0156(5) 0.0549 Uani
H31 H 0.9332 0.1960 0.0250 0.0660 Uiso
C56 C 0.6268(11) 0.6070(12) 0.9451(6) 0.0916 Uani
H40 H 0.6416 0.5480 0.9070 0.1370 Uiso
H41 H 0.5286 0.6161 0.9607 0.1370 Uiso
H42 H 0.6521 0.6827 0.9205 0.1370 Uiso
O7 O 0.8078(8) 0.1402(6) 0.8972(4) 0.0812 Uani
C44 C 0.9023(9) 0.0718(7) 0.9494(5) 0.0541 Uani
C45 C 0.7433(16) 0.2505(10) 0.9184(7) 0.1051 Uani
H32 H 0.8097 0.3091 0.9111 0.1580 Uiso
H33 H 0.6617 0.2765 0.8845 0.1580 Uiso
H34 H 0.7142 0.2417 0.9742 0.1580 Uiso
loop_
_atom_site_aniso_label
_atom_site_aniso_U_11
_atom_site_aniso_U_22
_atom_site_aniso_U_33
_atom_site_aniso_U_23
_atom_site_aniso_U_13
_atom_site_aniso_U_12
C23 0.065 0.137 0.062 0.011 0.014 0.014
C51 0.05 0.067 0.028 -0.004 0.002 -0.006
C9 0.076 0.049 0.042 -0.01 -0.007 -0.011
C61 0.04 0.03 0.046 0.007 -0.002 0.002
C62 0.05 0.042 0.058 0.01 0.004 0.006
C63 0.051 0.026 0.069 0 0.001 0.004
C67 0.039 0.041 0.071 0.005 0.009 0.002
Cd1 0.0313 0.0295 0.0227 -0.0057 0.0001 0.00184
O2 0.067 0.073 0.044 -0.025 -0.002 -0.025
O3 0.072 0.062 0.035 -0.019 -0.005 -0.022
O4 0.047 0.077 0.052 -0.018 0.027 -0.023
O5 0.058 0.072 0.03 -0.019 0.009 -0.013
O6 0.049 0.124 0.035 0 0.007 0.006
N3 0.042 0.032 0.042 0.004 -0.003 0.005
N4 0.048 0.036 0.039 0.004 -0.003 0.008
C2 0.061 0.036 0.031 -0.003 -0.009 -0.006
C3 0.056 0.082 0.053 -0.022 -0.007 -0.005
C4 0.066 0.042 0.029 -0.009 -0.005 -0.013
C5 0.064 0.057 0.039 -0.003 -0.013 -0.017
C6 0.074 0.068 0.055 -0.029 0.002 -0.009
C7 0.066 0.047 0.034 -0.004 0.005 -0.004
C8 0.07 0.036 0.036 -0.015 0.001 -0.012
C10 0.07 0.058 0.037 -0.012 -0.01 -0.016
C13 0.037 0.027 0.033 -0.001 0.009 0.003
C14 0.037 0.045 0.031 -0.012 0.007 -0.009
C15 0.056 0.068 0.027 -0.017 0.012 -0.018
C16 0.047 0.073 0.024 -0.016 0.002 -0.018
C17 0.034 0.064 0.037 -0.008 0.006 -0.01
C19 0.047 0.05 0.032 -0.008 0.013 -0.01
C20 0.05 0.056 0.024 -0.009 0.008 -0.013
C21 0.048 0.063 0.035 -0.009 0.012 -0.005
C22 0.049 0.084 0.037 -0.017 0.024 -0.032
C24 0.06 0.054 0.036 0.001 0.001 0.013
C25 0.063 0.042 0.038 0.004 -0.004 0.009
C26 0.042 0.035 0.039 -0.002 -0.001 0.009
Cd7 0.0313 0.0295 0.0227 -0.0057 0.0001 0.00184
O15 0.047 0.077 0.052 -0.018 0.027 -0.023
N9 0.045 0.037 0.049 -0.007 0.001 0.01
C57 0.036 0.028 0.052 0.001 -0.008 0.008
N5 0.041 0.038 0.052 -0.005 -0.006 0.008
N6 0.045 0.037 0.049 -0.007 0.001 0.01
C64 0.048 0.053 0.045 0 0.001 0.003
C65 0.049 0.039 0.048 0.008 0.002 0.013
C66 0.057 0.041 0.05 0.006 -0.003 0.006
C68 0.055 0.03 0.074 0.013 0.005 0.008
C1 0.036 0.028 0.052 0.001 -0.008 0.008
N1 0.041 0.038 0.052 -0.005 -0.006 0.008
C30 0.048 0.053 0.045 0 0.001 0.003
C31 0.049 0.039 0.048 0.008 0.002 0.013
C32 0.057 0.041 0.05 0.006 -0.003 0.006
C34 0.055 0.03 0.074 0.013 0.005 0.008
O11 0.058 0.072 0.03 -0.019 0.009 -0.013
O12 0.049 0.124 0.035 0 0.007 0.006
C46 0.037 0.027 0.033 -0.001 0.009 0.003
C47 0.037 0.045 0.031 -0.012 0.007 -0.009
C48 0.056 0.068 0.027 -0.017 0.012 -0.018
C49 0.047 0.073 0.024 -0.016 0.002 -0.018
C50 0.034 0.064 0.037 -0.008 0.006 -0.01
C52 0.047 0.05 0.032 -0.008 0.013 -0.01
C53 0.05 0.056 0.024 -0.009 0.008 -0.013
C54 0.048 0.063 0.035 -0.009 0.012 -0.005
C55 0.049 0.084 0.037 -0.017 0.024 -0.032
O8 0.067 0.073 0.044 -0.025 -0.002 -0.025
O9 0.072 0.062 0.035 -0.019 -0.005 -0.022
C35 0.061 0.036 0.031 -0.003 -0.009 -0.006
C36 0.056 0.082 0.053 -0.022 -0.007 -0.005
C37 0.066 0.042 0.029 -0.009 -0.005 -0.013
C38 0.064 0.057 0.039 -0.003 -0.013 -0.017
C39 0.074 0.068 0.055 -0.029 0.002 -0.009
C40 0.066 0.047 0.034 -0.004 0.005 -0.004
C41 0.07 0.036 0.036 -0.015 0.001 -0.012
C43 0.07 0.058 0.037 -0.012 -0.01 -0.016
N7 0.042 0.032 0.042 0.004 -0.003 0.005
N8 0.048 0.036 0.039 0.004 -0.003 0.008
C58 0.06 0.054 0.036 0.001 0.001 0.013
C59 0.063 0.042 0.038 0.004 -0.004 0.009
C60 0.042 0.035 0.039 -0.002 -0.001 0.009
O1 0.121 0.066 0.054 -0.015 -0.042 0.012
C11 0.072 0.053 0.039 -0.009 -0.012 -0.01
C12 0.164 0.074 0.07 -0.02 -0.04 0.032
C18 0.05 0.067 0.028 -0.004 0.002 -0.006
C27 0.04 0.03 0.046 0.007 -0.002 0.002
C28 0.05 0.042 0.058 0.01 0.004 0.006
C29 0.051 0.026 0.069 0 0.001 0.004
C33 0.039 0.041 0.071 0.005 0.009 0.002
C42 0.076 0.049 0.042 -0.01 -0.007 -0.011
C56 0.065 0.137 0.062 0.011 0.014 0.014
O7 0.121 0.066 0.054 -0.015 -0.042 0.012
C44 0.072 0.053 0.039 -0.009 -0.012 -0.01
C45 0.164 0.074 0.07 -0.02 -0.04 0.032
loop_
_geom_bond_atom_site_label_1
_geom_bond_atom_site_label_2
_geom_bond_site_symmetry_1
_geom_bond_site_symmetry_2
H14 C23 1_555 1_555
H15 C23 1_555 1_555
H16 C23 1_555 1_555
H38 C51 1_555 1_555
C9 H5 1_555 1_555
C62 C61 1_555 1_555
C63 C61 1_555 1_555
H47 C63 1_555 1_555
H51 C67 1_555 1_555
C63 C67 1_555 1_555
Cd1 O2 1_555 1_555
O2 C2 1_555 1_555
O3 Cd1 1_555 1_555
O4 Cd1 1_555 1_555
O5 Cd1 1_555 1_555
O6 C21 1_555 1_555
N3 C25 1_555 1_555
N4 Cd1 1_555 1_555
C2 O3 1_555 1_555
C3 H1 1_555 1_555
C4 C2 1_555 1_555
C6 C3 1_555 1_555
H3 C6 1_555 1_555
C7 C4 1_555 1_555
H4 C7 1_555 1_555
C8 C5 1_555 1_555
C10 C8 1_555 1_555
C13 O4 1_555 1_555
C14 C13 1_555 1_555
C15 C14 1_555 1_555
H9 C15 1_555 1_555
C16 H10 1_555 1_555
C17 C14 1_555 1_555
H11 C17 1_555 1_555
C19 C16 1_555 1_555
C21 C20 1_555 1_555
C22 C15 1_555 1_555
C24 N4 1_555 1_555
H17 C24 1_555 1_555
C25 C24 1_555 1_555
H18 C25 1_555 1_555
C26 N3 1_555 1_555
H19 C26 1_555 1_555
Cd7 O4 1_555 1_555
O15 Cd1 1_555 1_555
N9 Cd1 1_555 1_555
O5 C13 1_555 1_555
N4 C26 1_555 1_555
C3 C4 1_555 1_555
C5 C7 1_555 1_555
C6 C8 1_555 1_555
C16 C17 1_555 1_555
C19 C20 1_555 1_555
C19 C22 1_555 1_555
Cd7 O15 1_555 1_555
C57 N5 1_555 1_555
N5 C65 1_555 1_555
N6 C64 1_555 1_555
C64 H48 1_555 1_555
C65 N6 1_555 1_555
H49 C65 1_555 1_555
C66 N5 1_555 1_555
H50 C66 1_555 1_555
C68 C57 1_555 1_555
H52 C68 1_555 1_555
Cd7 N6 1_555 1_555
C64 C66 1_555 1_555
C1 N1 1_555 1_555
N1 C31 1_555 1_555
N9 C30 1_555 1_555
C30 H22 1_555 1_555
C31 N9 1_555 1_555
H23 C31 1_555 1_555
C32 N1 1_555 1_555
H24 C32 1_555 1_555
C34 C1 1_555 1_555
H26 C34 1_555 1_555
C30 C32 1_555 1_555
O15 C46 1_555 1_555
O11 C46 1_555 1_555
O12 C54 1_555 1_555
C46 C47 1_555 1_555
C47 C48 1_555 1_555
C48 H35 1_555 1_555
C49 H36 1_555 1_555
C50 C47 1_555 1_555
H37 C50 1_555 1_555
C52 C49 1_555 1_555
C55 C48 1_555 1_555
O11 Cd7 1_555 1_555
C49 C50 1_555 1_555
C52 C53 1_555 1_555
C52 C55 1_555 1_555
C53 C54 1_555 1_555
O8 C35 1_555 1_555
O9 C35 1_555 1_555
C35 C37 1_555 1_555
C36 H27 1_555 1_555
C37 C36 1_555 1_555
C39 C36 1_555 1_555
H29 C39 1_555 1_555
C40 C37 1_555 1_555
H30 C40 1_555 1_555
C41 C38 1_555 1_555
Cd7 O8 1_555 1_555
N7 C59 1_555 1_555
N8 Cd7 1_555 1_555
C58 N8 1_555 1_555
H43 C58 1_555 1_555
C59 C58 1_555 1_555
H44 C59 1_555 1_555
C60 N7 1_555 1_555
H45 C60 1_555 1_555
O9 Cd7 1_555 1_555
C38 C40 1_555 1_555
C39 C41 1_555 1_555
C41 C43 1_555 1_555
N8 C60 1_555 1_555
O1 C11 1_555 1_555
C12 O1 1_555 1_555
H6 C12 1_555 1_555
H7 C12 1_555 1_555
H8 C12 1_555 1_555
C18 H12 1_555 1_555
C28 C27 1_555 1_555
C29 C27 1_555 1_555
H21 C29 1_555 1_555
H25 C33 1_555 1_555
H31 C42 1_555 1_555
H40 C56 1_555 1_555
H41 C56 1_555 1_555
H42 C56 1_555 1_555
C29 C33 1_555 1_555
O7 C44 1_555 1_555
C45 O7 1_555 1_555
H32 C45 1_555 1_555
H33 C45 1_555 1_555
H34 C45 1_555 1_555

#END
