
###############################################################################
#
# This file contains modified crystal structure data generated from the
# MOF subset of the Cambridge Structural Database (CSD) v543 
# hosted by the Cambridge Crystallographic Data Centre (CCDC).
#
# This work is licensed under the Creative Commons
# Attribution-NonCommercial-ShareAlike 4.0 International License.
# To view a copy of this license, visit
# http://creativecommons.org/licenses/by-nc-sa/4.0/
# or send a letter to
# Creative Commons, PO Box 1866, Mountain View, CA 94042, USA.
#
# CIF created using the CSD Python API on 29 September 2022
# The structure has been converted into the P1 space group
# The structure has a 3D framework
# The original CSD entry JOGRUT is in the monoclinic crystal system
# The framework has been calculated to contain at least 10.0% void space
# The void calculation uses a probe of radius 1.32A, grid spacing 0.4
# The framework is charged, counterions have been retained in the structure
# H atom positions have been added when not included in the experimental data
#
###############################################################################

data_JOGRUT
_chemical_formula_moiety         '(C104 H96 Co4 N20 O136 P4 W36)n'
_symmetry_cell_setting           triclinic
_symmetry_space_group_name_H-M   'P 1'
_symmetry_Int_Tables_number      1
_space_group_name_Hall           'P 1'
loop_
_symmetry_equiv_pos_site_id
_symmetry_equiv_pos_as_xyz
1 x,y,z
_cell_length_a                   15.1832(7)
_cell_length_b                   24.7499(11)
_cell_length_c                   15.3308(7)
_cell_angle_alpha                90
_cell_angle_beta                 111.3380(10)
_cell_angle_gamma                90
_cell_volume                     5366.13
loop_
_atom_site_label
_atom_site_type_symbol
_atom_site_fract_x
_atom_site_fract_y
_atom_site_fract_z
Co5 Co 0.39763(9) 0.47944(6) 0.60971(10)
C27 C 0.1904(8) 0.4727(5) 0.4861(9)
H23 H 0.2167 0.4600 0.4439
C28 C 0.0933(7) 0.4772(5) 0.4560(9)
H24 H 0.0559 0.4663 0.3958
C29 C 0.0522(7) 0.4976(4) 0.5150(9)
C30 C 0.1110(8) 0.5131(5) 0.6036(10)
H25 H 0.0865 0.5283 0.6454
C31 C 0.2092(8) 0.5053(6) 0.6290(9)
H26 H 0.2486 0.5145 0.6894
N8 N 0.2480(6) 0.4856(4) 0.5715(7)
Co1 Co 0.60237(9) 0.52056(6) 0.39029(10)
C1 C 0.6784(10) 0.6356(5) 0.4130(13)
H1 H 0.7358 0.6174 0.4295
C2 C 0.6812(9) 0.6920(6) 0.4165(14)
H2 H 0.7384 0.7100 0.4436
C3 C 0.5986(7) 0.7201(4) 0.3794(8)
C4 C 0.5190(9) 0.6898(5) 0.3474(14)
H3 H 0.4605 0.7065 0.3202
C5 C 0.5243(9) 0.6338(5) 0.3549(13)
H4 H 0.4680 0.6144 0.3344
C6 C 0.5877(9) 0.5551(5) 0.1905(9)
H5 H 0.6258 0.5842 0.2196
C7 C 0.5654(10) 0.5484(5) 0.0977(9)
H6 H 0.5886 0.5729 0.0654
C8 C 0.5089(7) 0.5060(4) 0.0487(8)
C9 C 0.4762(9) 0.4730(5) 0.1034(9)
H7 H 0.4366 0.4443 0.0749
C10 C 0.4997(9) 0.4809(6) 0.1977(9)
H8 H 0.4752 0.4577 0.2309
C11 C 0.8096(8) 0.5273(5) 0.5139(9)
H9 H 0.7833 0.5400 0.5561
C12 C 0.9067(7) 0.5228(5) 0.5440(9)
H10 H 0.9441 0.5337 0.6042
C13 C 0.9478(7) 0.5024(4) 0.4850(9)
C14 C 0.8890(8) 0.4869(5) 0.3964(10)
H11 H 0.9135 0.4717 0.3546
C15 C 0.7908(8) 0.4947(6) 0.3710(9)
H12 H 0.7514 0.4855 0.3106
C16 C 0.5467(7) 0.5018(4) 0.5445(7)
N1 N 0.6034(6) 0.6069(3) 0.3890(7)
N2 N 0.5573(6) 0.5215(4) 0.2437(6)
N3 N 0.7520(6) 0.5144(4) 0.4285(7)
O1 O 0.5387(5) 0.4887(3) 0.6205(5)
O2 O 0.6199(5) 0.5162(3) 0.5327(5)
O3 O 0.6066(6) 0.4343(3) 0.3908(7)
H13 H 0.5659 0.4093 0.3815
H14 H 0.6524 0.4257 0.3743
Co3 Co 0.60237(9) 0.97944(6) 0.39029(10)
C17 C 0.6784(10) 0.8644(5) 0.4130(13)
H15 H 0.7358 0.8826 0.4295
C18 C 0.6812(9) 0.8080(6) 0.4165(14)
H16 H 0.7384 0.7900 0.4436
C19 C 0.5986(7) 0.7799(4) 0.3794(8)
C20 C 0.5190(9) 0.8102(5) 0.3474(14)
H17 H 0.4605 0.7935 0.3202
C21 C 0.5243(9) 0.8662(5) 0.3549(13)
H18 H 0.4680 0.8856 0.3344
C32 C 0.4533(7) 0.4982(4) 0.4555(7)
N4 N 0.6034(6) 0.8931(3) 0.3890(7)
N5 N 0.3966(6) 0.3931(3) 0.6110(7)
N7 N 0.4427(6) 0.4785(4) 0.7563(6)
O4 O 0.4613(5) 0.5113(3) 0.3795(5)
O5 O 0.3801(5) 0.4838(3) 0.4673(5)
O6 O 0.3934(6) 0.5657(3) 0.6092(7)
H27 H 0.4341 0.5907 0.6185
H28 H 0.3476 0.5743 0.6257
C22 C 0.4123(9) 0.4449(5) 0.8095(9)
H19 H 0.3742 0.4158 0.7804
C23 C 0.4346(10) 0.4516(5) 0.9023(9)
H20 H 0.4114 0.4271 0.9346
C24 C 0.4911(7) 0.4940(4) 0.9513(8)
C25 C 0.5238(9) 0.5270(5) 0.8966(9)
H21 H 0.5634 0.5557 0.9251
C26 C 0.5003(9) 0.5191(6) 0.8023(9)
H22 H 0.5248 0.5423 0.7691
C25_2 C 0.4762(9) 0.0270(5) 0.1034(9)
H21_2 H 0.4366 0.0557 0.0749
C26_2 C 0.4997(9) 0.0191(6) 0.1977(9)
H22_2 H 0.4752 0.0423 0.2309
Co1_2 Co 0.39763(9) 0.02056(6) 0.60971(10)
C1_2 C 0.3216(10) 0.1356(5) 0.5870(13)
H1_2 H 0.2642 0.1174 0.5705
C2_2 C 0.3188(9) 0.1920(6) 0.5835(14)
H2_2 H 0.2616 0.2100 0.5564
C3_2 C 0.4014(7) 0.2201(4) 0.6206(8)
C4_2 C 0.4810(9) 0.1898(5) 0.6526(14)
H3_2 H 0.5395 0.2065 0.6798
C5_2 C 0.4757(9) 0.1338(5) 0.6451(13)
H4_2 H 0.5320 0.1144 0.6656
C6_2 C 0.4123(9) 0.0551(5) 0.8095(9)
H5_2 H 0.3742 0.0842 0.7804
C7_2 C 0.4346(10) 0.0484(5) 0.9023(9)
H6_2 H 0.4114 0.0729 0.9346
C8_2 C 0.4911(7) 0.0060(4) 0.9513(8)
C11_2 C 0.1904(8) 0.0273(5) 0.4861(9)
H9_2 H 0.2167 0.0400 0.4439
C12_2 C 0.0933(7) 0.0228(5) 0.4560(9)
H10_2 H 0.0559 0.0337 0.3958
C13_2 C 0.0522(7) 0.0024(4) 0.5150(9)
C16_2 C 0.4533(7) 0.0018(4) 0.4555(7)
N1_2 N 0.3966(6) 0.1069(3) 0.6110(7)
N2_2 N 0.4427(6) 0.0215(4) 0.7563(6)
N3_2 N 0.2480(6) 0.0144(4) 0.5715(7)
O2_2 O 0.3801(5) 0.0162(3) 0.4673(5)
C17_2 C 0.3216(10) 0.3644(5) 0.5870(13)
H15_2 H 0.2642 0.3826 0.5705
C18_2 C 0.3188(9) 0.3080(6) 0.5835(14)
H16_2 H 0.2616 0.2900 0.5564
C19_2 C 0.4014(7) 0.2799(4) 0.6206(8)
C20_2 C 0.4810(9) 0.3102(5) 0.6526(14)
H17_2 H 0.5395 0.2935 0.6798
C21_2 C 0.4757(9) 0.3662(5) 0.6451(13)
H18_2 H 0.5320 0.3856 0.6656
O4_2 O 0.5387(5) 0.0113(3) 0.6205(5)
O6_2 O 0.6066(6) 0.0657(3) 0.3908(7)
H27_2 H 0.5659 0.0907 0.3815
H28_2 H 0.6524 0.0743 0.3743
C22_2 C 0.5877(9) 0.9449(5) 0.1905(9)
H19_2 H 0.6258 0.9158 0.2196
C23_2 C 0.5654(10) 0.9516(5) 0.0977(9)
H20_2 H 0.5886 0.9271 0.0654
C24_2 C 0.5089(7) 0.9940(4) 0.0487(8)
N6 N 0.5573(6) 0.9785(4) 0.2437(6)
C9_2 C 0.5238(9) 0.9730(5) 0.8966(9)
H7_2 H 0.5634 0.9443 0.9251
C10_2 C 0.5003(9) 0.9809(6) 0.8023(9)
H8_2 H 0.5248 0.9577 0.7691
C14_2 C 0.1110(8) 0.9869(5) 0.6036(10)
H11_2 H 0.0865 0.9717 0.6454
C15_2 C 0.2092(8) 0.9947(6) 0.6290(9)
H12_2 H 0.2486 0.9855 0.6894
O1_2 O 0.4613(5) 0.9887(3) 0.3795(5)
O3_2 O 0.3934(6) 0.9343(3) 0.6092(7)
H13_2 H 0.4341 0.9093 0.6185
H14_2 H 0.3476 0.9257 0.6257
C32_2 C 0.5467(7) 0.9982(4) 0.5445(7)
N9 N 0.7520(6) 0.9856(4) 0.4285(7)
O5_2 O 0.6199(5) 0.9838(3) 0.5327(5)
C30_2 C 0.8890(8) 0.0131(5) 0.3964(10)
H25_2 H 0.9135 0.0283 0.3546
C31_2 C 0.7908(8) 0.0053(6) 0.3710(9)
H26_2 H 0.7514 0.0145 0.3106
C27_2 C 0.8096(8) 0.9727(5) 0.5139(9)
H23_2 H 0.7833 0.9600 0.5561
C28_2 C 0.9067(7) 0.9772(5) 0.5440(9)
H24_2 H 0.9441 0.9663 0.6042
C29_2 C 0.9478(7) 0.9976(4) 0.4850(9)
P2 P 0.0043(2) 0.2500 0.1977(3)
W8 W 0.02653(3) 0.317848(18) 0.40577(4)
W9 W 0.19248(5) 0.2500 0.11186(6)
W10 W 0.21808(3) 0.318339(19) 0.31026(5)
O31 O 0.0197(6) 0.4595(3) 0.2132(6)
O34 O 0.0620(6) 0.3599(3) 0.5004(6)
O35 O 0.0546(7) 0.2500 0.4713(8)
O36 O 0.0979(6) 0.3019(3) 0.0503(7)
O37 O 0.1143(6) 0.2500 0.2214(8)
O38 O 0.1247(5) 0.3654(3) 0.2344(6)
O39 O 0.1460(5) 0.3139(3) 0.3871(6)
O40 O 0.2602(9) 0.2500 0.0451(11)
O41 O 0.2543(5) 0.3041(3) 0.2052(6)
O42 O 0.3058(5) 0.3629(3) 0.3701(8)
O43 O 0.2764(7) 0.2500 0.3613(10)
W17 W 0.02653(3) 0.182152(18) 0.40577(4)
W18 W 0.21808(3) 0.181661(19) 0.31026(5)
O61 O 0.0197(6) 0.0405(3) 0.2132(6)
O63 O 0.0620(6) 0.1401(3) 0.5004(6)
O64 O 0.0979(6) 0.1981(3) 0.0503(7)
O65 O 0.1247(5) 0.1346(3) 0.2344(6)
O66 O 0.1460(5) 0.1861(3) 0.3871(6)
O67 O 0.2543(5) 0.1959(3) 0.2052(6)
O68 O 0.3058(5) 0.1371(3) 0.3701(8)
P1 P 0.7270(2) 0.2500 0.1332(3)
W2 W 0.52979(3) 0.31817(2) 0.15088(4)
W4 W 0.73203(3) 0.392339(19) 0.12714(4)
W5 W 0.76401(3) 0.317955(19) 0.34372(4)
W7 W 0.99521(3) 0.392470(18) 0.18850(4)
O8 O 0.4642(5) 0.3038(3) 0.0222(6)
O9 O 0.4866(7) 0.2500 0.1791(9)
O10 O 0.4516(5) 0.3599(3) 0.1744(7)
O12 O 0.6161(6) 0.2500 0.1056(8)
O13 O 0.6099(5) 0.3665(3) 0.1176(6)
O14 O 0.6319(5) 0.3139(3) 0.2679(6)
O18 O 0.7509(5) 0.3011(3) 0.0898(6)
O19 O 0.7162(6) 0.4584(3) 0.1426(6)
O20 O 0.7745(5) 0.3661(3) 0.2523(5)
O21 O 0.7720(6) 0.2500 0.2381(7)
O22 O 0.7559(5) 0.3608(3) 0.4278(6)
O23 O 0.7550(7) 0.2500 0.4000(8)
O25 O 0.8626(5) 0.3965(3) 0.1390(6)
O26 O 0.8978(5) 0.3104(3) 0.3903(6)
O29 O 0.9965(5) 0.3887(3) 0.0654(6)
O30 O 0.9656(5) 0.3013(3) 0.1398(6)
O32 O 0.9898(5) 0.3670(3) 0.3040(6)
O33 O 0.9875(7) 0.2500 0.2907(8)
W11 W 0.52979(3) 0.18183(2) 0.15088(4)
W13 W 0.73203(3) 0.107661(19) 0.12714(4)
W14 W 0.76401(3) 0.182045(19) 0.34372(4)
W16 W 0.99521(3) 0.107530(18) 0.18850(4)
O44 O 0.4642(5) 0.1962(3) 0.0222(6)
O45 O 0.4516(5) 0.1401(3) 0.1744(7)
O47 O 0.6099(5) 0.1335(3) 0.1176(6)
O48 O 0.6319(5) 0.1861(3) 0.2679(6)
O51 O 0.7509(5) 0.1989(3) 0.0898(6)
O52 O 0.7162(6) 0.0416(3) 0.1426(6)
O53 O 0.7745(5) 0.1339(3) 0.2523(5)
O54 O 0.7559(5) 0.1392(3) 0.4278(6)
O56 O 0.8626(5) 0.1035(3) 0.1390(6)
O57 O 0.8978(5) 0.1896(3) 0.3903(6)
O59 O 0.9965(5) 0.1113(3) 0.0654(6)
O60 O 0.9656(5) 0.1987(3) 0.1398(6)
O62 O 0.9898(5) 0.1330(3) 0.3040(6)
W1 W 0.50200(5) 0.2500 0.95066(6)
W3 W 0.70504(4) 0.32445(2) 0.92947(4)
W6 W 0.96894(4) 0.32434(2) 0.99155(4)
O7 O 0.4064(8) 0.2500 0.8478(10)
O11 O 0.5823(5) 0.3023(3) 0.9289(7)
O15 O 0.6712(6) 0.3491(4) 0.8193(6)
O16 O 0.7259(8) 0.2500 0.9118(8)
O17 O 0.6975(6) 0.3887(3) 0.9959(6)
O24 O 0.8378(5) 0.3357(3) 0.9654(6)
O27 O 0.9406(8) 0.2500 0.9653(9)
O28 O 0.9750(6) 0.3484(3) 0.8899(6)
W12 W 0.70504(4) 0.17555(2) 0.92947(4)
W15 W 0.96894(4) 0.17566(2) 0.99155(4)
O46 O 0.5823(5) 0.1977(3) 0.9289(7)
O49 O 0.6712(6) 0.1509(4) 0.8193(6)
O50 O 0.6975(6) 0.1113(3) 0.9959(6)
O55 O 0.8378(5) 0.1643(3) 0.9654(6)
O58 O 0.9750(6) 0.1516(3) 0.8899(6)
W1_2 W 0.49800(5) 0.7500 0.04934(6)
W3_2 W 0.29496(4) 0.82445(2) 0.07053(4)
W6_2 W 0.03106(4) 0.82434(2) 0.00845(4)
O7_2 O 0.5936(8) 0.7500 0.1522(10)
O11_2 O 0.4177(5) 0.8023(3) 0.0711(7)
O15_2 O 0.3288(6) 0.8491(4) 0.1807(6)
O16_2 O 0.2741(8) 0.7500 0.0882(8)
O17_2 O 0.3025(6) 0.8887(3) 0.0041(6)
O24_2 O 0.1622(5) 0.8357(3) 0.0346(6)
O27_2 O 0.0594(8) 0.7500 0.0347(9)
O28_2 O 0.0250(6) 0.8484(3) 0.1101(6)
W12_2 W 0.29496(4) 0.67555(2) 0.07053(4)
W15_2 W 0.03106(4) 0.67566(2) 0.00845(4)
O46_2 O 0.4177(5) 0.6977(3) 0.0711(7)
O49_2 O 0.3288(6) 0.6509(4) 0.1807(6)
O50_2 O 0.3025(6) 0.6113(3) 0.0041(6)
O55_2 O 0.1622(5) 0.6643(3) 0.0346(6)
O58_2 O 0.0250(6) 0.6516(3) 0.1101(6)
P1_2 P 0.2730(2) 0.7500 0.8668(3)
W2_2 W 0.47021(3) 0.81817(2) 0.84912(4)
W4_2 W 0.26797(3) 0.892339(19) 0.87286(4)
W5_2 W 0.23599(3) 0.817955(19) 0.65628(4)
W7_2 W 0.00479(3) 0.892470(18) 0.81150(4)
O8_2 O 0.5358(5) 0.8038(3) 0.9778(6)
O9_2 O 0.5134(7) 0.7500 0.8209(9)
O10_2 O 0.5484(5) 0.8599(3) 0.8256(7)
O12_2 O 0.3839(6) 0.7500 0.8944(8)
O13_2 O 0.3901(5) 0.8665(3) 0.8824(6)
O14_2 O 0.3681(5) 0.8139(3) 0.7321(6)
O18_2 O 0.2491(5) 0.8011(3) 0.9102(6)
O19_2 O 0.2838(6) 0.9584(3) 0.8574(6)
O20_2 O 0.2255(5) 0.8661(3) 0.7477(5)
O21_2 O 0.2280(6) 0.7500 0.7619(7)
O22_2 O 0.2441(5) 0.8608(3) 0.5722(6)
O23_2 O 0.2450(7) 0.7500 0.6000(8)
O25_2 O 0.1374(5) 0.8965(3) 0.8610(6)
O26_2 O 0.1022(5) 0.8104(3) 0.6097(6)
O29_2 O 0.0035(5) 0.8887(3) 0.9346(6)
O30_2 O 0.0344(5) 0.8013(3) 0.8602(6)
O32_2 O 0.0102(5) 0.8670(3) 0.6960(6)
O33_2 O 0.0125(7) 0.7500 0.7093(8)
W11_2 W 0.47021(3) 0.68183(2) 0.84912(4)
W13_2 W 0.26797(3) 0.607661(19) 0.87286(4)
W14_2 W 0.23599(3) 0.682045(19) 0.65628(4)
W16_2 W 0.00479(3) 0.607530(18) 0.81150(4)
O44_2 O 0.5358(5) 0.6962(3) 0.9778(6)
O45_2 O 0.5484(5) 0.6401(3) 0.8256(7)
O47_2 O 0.3901(5) 0.6335(3) 0.8824(6)
O48_2 O 0.3681(5) 0.6861(3) 0.7321(6)
O51_2 O 0.2491(5) 0.6989(3) 0.9102(6)
O52_2 O 0.2838(6) 0.5416(3) 0.8574(6)
O53_2 O 0.2255(5) 0.6339(3) 0.7477(5)
O54_2 O 0.2441(5) 0.6392(3) 0.5722(6)
O56_2 O 0.1374(5) 0.6035(3) 0.8610(6)
O57_2 O 0.1022(5) 0.6896(3) 0.6097(6)
O59_2 O 0.0035(5) 0.6113(3) 0.9346(6)
O60_2 O 0.0344(5) 0.6987(3) 0.8602(6)
O62_2 O 0.0102(5) 0.6330(3) 0.6960(6)
P2_2 P 0.9957(2) 0.7500 0.8023(3)
W8_2 W 0.97347(3) 0.817848(18) 0.59423(4)
W9_2 W 0.80752(5) 0.7500 0.88814(6)
W10_2 W 0.78192(3) 0.818339(19) 0.68974(5)
O31_2 O 0.9803(6) 0.9595(3) 0.7868(6)
O34_2 O 0.9380(6) 0.8599(3) 0.4996(6)
O35_2 O 0.9454(7) 0.7500 0.5287(8)
O36_2 O 0.9021(6) 0.8019(3) 0.9497(7)
O37_2 O 0.8857(6) 0.7500 0.7786(8)
O38_2 O 0.8753(5) 0.8654(3) 0.7656(6)
O39_2 O 0.8540(5) 0.8139(3) 0.6129(6)
O40_2 O 0.7398(9) 0.7500 0.9549(11)
O41_2 O 0.7457(5) 0.8041(3) 0.7948(6)
O42_2 O 0.6942(5) 0.8629(3) 0.6299(8)
O43_2 O 0.7236(7) 0.7500 0.6387(10)
W17_2 W 0.97347(3) 0.682152(18) 0.59423(4)
W18_2 W 0.78192(3) 0.681661(19) 0.68974(5)
O61_2 O 0.9803(6) 0.5405(3) 0.7868(6)
O63_2 O 0.9380(6) 0.6401(3) 0.4996(6)
O64_2 O 0.9021(6) 0.6981(3) 0.9497(7)
O65_2 O 0.8753(5) 0.6346(3) 0.7656(6)
O66_2 O 0.8540(5) 0.6861(3) 0.6129(6)
O67_2 O 0.7457(5) 0.6959(3) 0.7948(6)
O68_2 O 0.6942(5) 0.6371(3) 0.6299(8)
C33 C 0.1825(17) 0.5455(7) 0.1361(13)
H29 H 0.1590 0.5806 0.1276
C34 C 0.1740(14) 0.5150(7) 0.0579(11)
C35 C 0.2058(12) 0.4605(6) 0.0662(10)
C36 C 0.2490(10) 0.4410(5) 0.1582(10)
H31 H 0.2736 0.4061 0.1671
H32 H 0.2831 0.4551 0.2961
C37 C 0.2562(13) 0.4715(6) 0.2349(10)
H36 H 0.2844 0.3705 0.0525
N10 N 0.2251(11) 0.5256(6) 0.2281(10)
H38 H 0.232846 0.548525 0.28532
H30 H 0.1471 0.5304 0.9988
C38 C 0.1956(11) 0.4301(6) 0.9908(10)
C39 C 0.1350(14) 0.4459(8) 0.9041(12)
H33 H 0.1005 0.4777 0.8979
C40 C 0.1248(12) 0.4159(7) 0.8281(11)
H34 H 0.0819 0.4272 0.7704
C41 C 0.2368(12) 0.3550(6) 0.9184(11)
H35 H 0.2745 0.3246 0.9240
C42 C 0.2444(11) 0.3832(6) 0.9945(10)
N11 N 0.1743(14) 0.3699(7) 0.8317(11)
H37 H 0.165677 0.347668 0.77353
H30_2 H 0.8529 0.0304 0.0012
C33_2 C 0.8175(17) 0.0455(7) 0.8639(13)
H29_2 H 0.8410 0.0806 0.8724
C34_2 C 0.8260(14) 0.0150(7) 0.9421(11)
N10_2 N 0.7749(11) 0.0256(6) 0.7719(10)
H38_2 H 0.767154 0.0485255 0.71468
C38_2 C 0.8044(11) 0.9301(6) 0.0092(10)
C39_2 C 0.8650(14) 0.9459(8) 0.0959(12)
H33_2 H 0.8995 0.9777 0.1021
C40_2 C 0.8752(12) 0.9159(7) 0.1719(11)
H34_2 H 0.9181 0.9272 0.2296
C41_2 C 0.7632(12) 0.8550(6) 0.0816(11)
H35_2 H 0.7255 0.8246 0.0760
C42_2 C 0.7556(11) 0.8832(6) 0.0055(10)
N11_2 N 0.8257(14) 0.8699(7) 0.1683(11)
H37_2 H 0.834323 0.847668 0.22647
C35_2 C 0.7942(12) 0.9605(6) 0.9338(10)
C36_2 C 0.7510(10) 0.9410(5) 0.8418(10)
H31_2 H 0.7264 0.9061 0.8329
H32_2 H 0.7169 0.9551 0.7039
C37_2 C 0.7438(13) 0.9715(6) 0.7651(10)
H36_2 H 0.7156 0.8705 0.9475
H30_3 H 0.8529 0.4696 0.0012
C38_3 C 0.8044(11) 0.5699(6) 0.0092(10)
C39_3 C 0.8650(14) 0.5541(8) 0.0959(12)
H33_3 H 0.8995 0.5223 0.1021
C40_3 C 0.8752(12) 0.5841(7) 0.1719(11)
H34_3 H 0.9181 0.5728 0.2296
C41_3 C 0.7632(12) 0.6450(6) 0.0816(11)
H35_3 H 0.7255 0.6754 0.0760
C42_3 C 0.7556(11) 0.6168(6) 0.0055(10)
N11_3 N 0.8257(14) 0.6301(7) 0.1683(11)
H37_3 H 0.834323 0.652332 0.22647
C33_3 C 0.8175(17) 0.4545(7) 0.8639(13)
H29_3 H 0.8410 0.4194 0.8724
C34_3 C 0.8260(14) 0.4850(7) 0.9421(11)
C35_3 C 0.7942(12) 0.5395(6) 0.9338(10)
C36_3 C 0.7510(10) 0.5590(5) 0.8418(10)
H31_3 H 0.7264 0.5939 0.8329
H32_3 H 0.7169 0.5449 0.7039
C37_3 C 0.7438(13) 0.5285(6) 0.7651(10)
H36_3 H 0.7156 0.6295 0.9475
N10_3 N 0.7749(11) 0.4744(6) 0.7719(10)
H38_3 H 0.767154 0.451475 0.71468
C35_4 C 0.2058(12) 0.0395(6) 0.0662(10)
C36_4 C 0.2490(10) 0.0590(5) 0.1582(10)
H31_4 H 0.2736 0.0939 0.1671
H32_4 H 0.2831 0.0449 0.2961
C37_4 C 0.2562(13) 0.0285(6) 0.2349(10)
H36_4 H 0.2844 0.1295 0.0525
C38_4 C 0.1956(11) 0.0699(6) 0.9908(10)
C39_4 C 0.1350(14) 0.0541(8) 0.9041(12)
H33_4 H 0.1005 0.0223 0.8979
C40_4 C 0.1248(12) 0.0841(7) 0.8281(11)
H34_4 H 0.0819 0.0728 0.7704
C41_4 C 0.2368(12) 0.1450(6) 0.9184(11)
H35_4 H 0.2745 0.1754 0.9240
C42_4 C 0.2444(11) 0.1168(6) 0.9945(10)
N11_4 N 0.1743(14) 0.1301(7) 0.8317(11)
H37_4 H 0.165677 0.152332 0.77353
C33_4 C 0.1825(17) 0.9545(7) 0.1361(13)
H29_4 H 0.1590 0.9194 0.1276
C34_4 C 0.1740(14) 0.9850(7) 0.0579(11)
N10_4 N 0.2251(11) 0.9744(6) 0.2281(10)
H38_4 H 0.232846 0.951475 0.28532
H30_4 H 0.1471 0.9696 0.9988
loop_
_geom_bond_atom_site_label_1
_geom_bond_atom_site_label_2
_geom_bond_site_symmetry_1
_geom_bond_site_symmetry_2
Co5 N8 1_555 1_555
C27 H23 1_555 1_555
C28 C27 1_555 1_555
H24 C28 1_555 1_555
C30 C29 1_555 1_555
H25 C30 1_555 1_555
C31 C30 1_555 1_555
H26 C31 1_555 1_555
N8 C27 1_555 1_555
C28 C29 1_555 1_555
C31 N8 1_555 1_555
Co1 N1 1_555 1_555
C1 H1 1_555 1_555
C2 C1 1_555 1_555
H2 C2 1_555 1_555
C3 C2 1_555 1_555
C4 C3 1_555 1_555
H3 C4 1_555 1_555
C5 C4 1_555 1_555
H4 C5 1_555 1_555
C6 H5 1_555 1_555
C7 C6 1_555 1_555
H6 C7 1_555 1_555
C8 C7 1_555 1_555
C9 C8 1_555 1_555
H7 C9 1_555 1_555
C10 C9 1_555 1_555
H8 C10 1_555 1_555
C11 H9 1_555 1_555
C12 C11 1_555 1_555
H10 C12 1_555 1_555
C13 C12 1_555 1_555
C14 C13 1_555 1_555
H11 C14 1_555 1_555
C15 C14 1_555 1_555
H12 C15 1_555 1_555
C16 O1 1_555 1_555
N1 C1 1_555 1_555
N2 Co1 1_555 1_555
N3 Co1 1_555 1_555
O1 Co5 1_555 1_555
O2 Co1 1_555 1_555
O3 Co1 1_555 1_555
H13 O3 1_555 1_555
H14 O3 1_555 1_555
Co5 N5 1_555 1_555
Co3 N4 1_555 1_555
C17 H15 1_555 1_555
C18 C17 1_555 1_555
H16 C18 1_555 1_555
C19 C3 1_555 1_555
C20 C19 1_555 1_555
H17 C20 1_555 1_555
C21 C20 1_555 1_555
H18 C21 1_555 1_555
C32 C16 1_555 1_555
N4 C17 1_555 1_555
N7 Co5 1_555 1_555
O4 Co1 1_555 1_555
O5 Co5 1_555 1_555
O6 Co5 1_555 1_555
H27 O6 1_555 1_555
H28 O6 1_555 1_555
C5 N1 1_555 1_555
C6 N2 1_555 1_555
C10 N2 1_555 1_555
C11 N3 1_555 1_555
C15 N3 1_555 1_555
C16 O2 1_555 1_555
C18 C19 1_555 1_555
C21 N4 1_555 1_555
C32 O4 1_555 1_555
C32 O5 1_555 1_555
C22 H19 1_555 1_555
C23 C22 1_555 1_555
H20 C23 1_555 1_555
C25 C24 1_555 1_555
H21 C25 1_555 1_555
C26 C25 1_555 1_555
H22 C26 1_555 1_555
N7 C22 1_555 1_555
C23 C24 1_555 1_555
C26 N7 1_555 1_555
H21_2 C25_2 1_555 1_555
C26_2 C25_2 1_555 1_555
H22_2 C26_2 1_555 1_555
Co1_2 N1_2 1_555 1_555
C1_2 H1_2 1_555 1_555
C2_2 C1_2 1_555 1_555
H2_2 C2_2 1_555 1_555
C3_2 C2_2 1_555 1_555
C4_2 C3_2 1_555 1_555
H3_2 C4_2 1_555 1_555
C5_2 C4_2 1_555 1_555
H4_2 C5_2 1_555 1_555
C6_2 H5_2 1_555 1_555
C7_2 C6_2 1_555 1_555
H6_2 C7_2 1_555 1_555
C8_2 C7_2 1_555 1_555
C11_2 H9_2 1_555 1_555
C12_2 C11_2 1_555 1_555
H10_2 C12_2 1_555 1_555
C13_2 C12_2 1_555 1_555
N1_2 C1_2 1_555 1_555
N2_2 Co1_2 1_555 1_555
N3_2 Co1_2 1_555 1_555
O2_2 Co1_2 1_555 1_555
C17_2 H15_2 1_555 1_555
C18_2 C17_2 1_555 1_555
H16_2 C18_2 1_555 1_555
C19_2 C3_2 1_555 1_555
C20_2 C19_2 1_555 1_555
H17_2 C20_2 1_555 1_555
C21_2 C20_2 1_555 1_555
H18_2 C21_2 1_555 1_555
N5 C17_2 1_555 1_555
O4_2 Co1_2 1_555 1_555
H27_2 O6_2 1_555 1_555
H28_2 O6_2 1_555 1_555
C5_2 N1_2 1_555 1_555
C6_2 N2_2 1_555 1_555
C11_2 N3_2 1_555 1_555
C16_2 O2_2 1_555 1_555
C18_2 C19_2 1_555 1_555
C21_2 N5 1_555 1_555
Co3 N6 1_555 1_555
C22_2 H19_2 1_555 1_555
C23_2 C22_2 1_555 1_555
H20_2 C23_2 1_555 1_555
N6 C22_2 1_555 1_555
C23_2 C24_2 1_555 1_555
H7_2 C9_2 1_555 1_555
C10_2 C9_2 1_555 1_555
H8_2 C10_2 1_555 1_555
H11_2 C14_2 1_555 1_555
C15_2 C14_2 1_555 1_555
H12_2 C15_2 1_555 1_555
O1_2 Co3 1_555 1_555
H13_2 O3_2 1_555 1_555
H14_2 O3_2 1_555 1_555
N9 Co3 1_555 1_555
O5_2 Co3 1_555 1_555
C32_2 O5_2 1_555 1_555
H25_2 C30_2 1_555 1_555
C31_2 C30_2 1_555 1_555
H26_2 C31_2 1_555 1_555
C27_2 H23_2 1_555 1_555
C28_2 C27_2 1_555 1_555
H24_2 C28_2 1_555 1_555
N9 C27_2 1_555 1_555
C28_2 C29_2 1_555 1_555
W9 O36 1_555 1_555
W10 O37 1_555 1_555
O34 W8 1_555 1_555
O35 W8 1_555 1_555
O37 P2 1_555 1_555
O39 W8 1_555 1_555
O40 W9 1_555 1_555
O41 W9 1_555 1_555
O42 W10 1_555 1_555
O43 W10 1_555 1_555
W18 O37 1_555 1_555
O63 W17 1_555 1_555
O64 W9 1_555 1_555
O66 W17 1_555 1_555
O67 W9 1_555 1_555
O68 W18 1_555 1_555
W9 O37 1_555 1_555
W10 O38 1_555 1_555
W10 O39 1_555 1_555
W10 O41 1_555 1_555
O35 W17 1_555 1_555
O43 W18 1_555 1_555
W18 O65 1_555 1_555
W18 O66 1_555 1_555
W18 O67 1_555 1_555
P1 O12 1_555 1_555
W2 O8 1_555 1_555
W4 O13 1_555 1_555
W5 O14 1_555 1_555
W7 O25 1_555 1_555
O9 W2 1_555 1_555
O10 W2 1_555 1_555
O13 W2 1_555 1_555
O14 W2 1_555 1_555
O18 P1 1_555 1_555
O19 W4 1_555 1_555
O20 W4 1_555 1_555
O21 P1 1_555 1_555
O22 W5 1_555 1_555
O23 W5 1_555 1_555
O25 W4 1_555 1_555
O26 W5 1_555 1_555
O32 W7 1_555 1_555
W11 O9 1_555 1_555
W13 O47 1_555 1_555
W14 O21 1_555 1_555
W16 O56 1_555 1_555
O45 W11 1_555 1_555
O47 W11 1_555 1_555
O48 W11 1_555 1_555
O51 P1 1_555 1_555
O52 W13 1_555 1_555
O53 W13 1_555 1_555
O54 W14 1_555 1_555
O56 W13 1_555 1_555
O57 W14 1_555 1_555
O62 W16 1_555 1_555
W2 O12 1_555 1_555
W4 O18 1_555 1_555
W5 O20 1_555 1_555
W5 O21 1_555 1_555
W7 O29 1_555 1_555
W7 O30 1_555 1_555
O12 W11 1_555 1_555
O23 W14 1_555 1_555
W11 O44 1_555 1_555
W13 O51 1_555 1_555
W14 O48 1_555 1_555
W14 O53 1_555 1_555
W16 O59 1_555 1_555
W16 O60 1_555 1_555
W1 O7 1_555 1_555
W3 O11 1_555 1_555
W6 O24 1_555 1_555
O11 W1 1_555 1_555
O15 W3 1_555 1_555
O16 W3 1_555 1_555
O17 W3 1_555 1_555
O24 W3 1_555 1_555
O27 W6 1_555 1_555
O28 W6 1_555 1_555
W12 O16 1_555 1_555
W15 O27 1_555 1_555
O46 W1 1_555 1_555
O49 W12 1_555 1_555
O50 W12 1_555 1_555
O55 W12 1_555 1_555
O58 W15 1_555 1_555
W12 O46 1_555 1_555
W15 O55 1_555 1_555
W1_2 O7_2 1_555 1_555
W3_2 O11_2 1_555 1_555
W6_2 O24_2 1_555 1_555
O11_2 W1_2 1_555 1_555
O15_2 W3_2 1_555 1_555
O16_2 W3_2 1_555 1_555
O17_2 W3_2 1_555 1_555
O24_2 W3_2 1_555 1_555
O27_2 W6_2 1_555 1_555
O28_2 W6_2 1_555 1_555
W12_2 O16_2 1_555 1_555
W15_2 O27_2 1_555 1_555
O46_2 W1_2 1_555 1_555
O49_2 W12_2 1_555 1_555
O50_2 W12_2 1_555 1_555
O55_2 W12_2 1_555 1_555
O58_2 W15_2 1_555 1_555
W12_2 O46_2 1_555 1_555
W15_2 O55_2 1_555 1_555
P1_2 O12_2 1_555 1_555
W2_2 O8_2 1_555 1_555
W4_2 O13_2 1_555 1_555
W5_2 O14_2 1_555 1_555
W7_2 O25_2 1_555 1_555
O9_2 W2_2 1_555 1_555
O10_2 W2_2 1_555 1_555
O13_2 W2_2 1_555 1_555
O14_2 W2_2 1_555 1_555
O18_2 P1_2 1_555 1_555
O19_2 W4_2 1_555 1_555
O20_2 W4_2 1_555 1_555
O21_2 P1_2 1_555 1_555
O22_2 W5_2 1_555 1_555
O23_2 W5_2 1_555 1_555
O25_2 W4_2 1_555 1_555
O26_2 W5_2 1_555 1_555
O32_2 W7_2 1_555 1_555
W11_2 O9_2 1_555 1_555
W13_2 O47_2 1_555 1_555
W14_2 O21_2 1_555 1_555
W16_2 O56_2 1_555 1_555
O45_2 W11_2 1_555 1_555
O47_2 W11_2 1_555 1_555
O48_2 W11_2 1_555 1_555
O51_2 P1_2 1_555 1_555
O52_2 W13_2 1_555 1_555
O53_2 W13_2 1_555 1_555
O54_2 W14_2 1_555 1_555
O56_2 W13_2 1_555 1_555
O57_2 W14_2 1_555 1_555
O62_2 W16_2 1_555 1_555
W2_2 O12_2 1_555 1_555
W4_2 O18_2 1_555 1_555
W5_2 O20_2 1_555 1_555
W5_2 O21_2 1_555 1_555
W7_2 O29_2 1_555 1_555
W7_2 O30_2 1_555 1_555
O12_2 W11_2 1_555 1_555
O23_2 W14_2 1_555 1_555
W11_2 O44_2 1_555 1_555
W13_2 O51_2 1_555 1_555
W14_2 O48_2 1_555 1_555
W14_2 O53_2 1_555 1_555
W16_2 O59_2 1_555 1_555
W16_2 O60_2 1_555 1_555
W9_2 O36_2 1_555 1_555
W10_2 O37_2 1_555 1_555
O34_2 W8_2 1_555 1_555
O35_2 W8_2 1_555 1_555
O37_2 P2_2 1_555 1_555
O39_2 W8_2 1_555 1_555
O40_2 W9_2 1_555 1_555
O41_2 W9_2 1_555 1_555
O42_2 W10_2 1_555 1_555
O43_2 W10_2 1_555 1_555
W18_2 O37_2 1_555 1_555
O63_2 W17_2 1_555 1_555
O64_2 W9_2 1_555 1_555
O66_2 W17_2 1_555 1_555
O67_2 W9_2 1_555 1_555
O68_2 W18_2 1_555 1_555
W9_2 O37_2 1_555 1_555
W10_2 O38_2 1_555 1_555
W10_2 O39_2 1_555 1_555
W10_2 O41_2 1_555 1_555
O35_2 W17_2 1_555 1_555
O43_2 W18_2 1_555 1_555
W18_2 O65_2 1_555 1_555
W18_2 O66_2 1_555 1_555
W18_2 O67_2 1_555 1_555
C33 H29 1_555 1_555
C34 C33 1_555 1_555
C35 C34 1_555 1_555
C36 C35 1_555 1_555
H31 C36 1_555 1_555
H32 C37 1_555 1_555
C37 C36 1_555 1_555
N10 C33 1_555 1_555
C37 N10 1_555 1_555
N10 H38 1_555 1_555
C39 C38 1_555 1_555
H33 C39 1_555 1_555
C40 C39 1_555 1_555
H34 C40 1_555 1_555
C41 H35 1_555 1_555
C42 C38 1_555 1_555
N11 C40 1_555 1_555
C41 C42 1_555 1_555
C41 N11 1_555 1_555
N11 H37 1_555 1_555
C33_2 H29_2 1_555 1_555
C34_2 C33_2 1_555 1_555
N10_2 C33_2 1_555 1_555
N10_2 H38_2 1_555 1_555
C39_2 C38_2 1_555 1_555
H33_2 C39_2 1_555 1_555
C40_2 C39_2 1_555 1_555
H34_2 C40_2 1_555 1_555
C41_2 H35_2 1_555 1_555
C42_2 C38_2 1_555 1_555
N11_2 C40_2 1_555 1_555
C41_2 C42_2 1_555 1_555
C41_2 N11_2 1_555 1_555
N11_2 H37_2 1_555 1_555
C36_2 C35_2 1_555 1_555
H31_2 C36_2 1_555 1_555
H32_2 C37_2 1_555 1_555
C37_2 C36_2 1_555 1_555
C39_3 C38_3 1_555 1_555
H33_3 C39_3 1_555 1_555
C40_3 C39_3 1_555 1_555
H34_3 C40_3 1_555 1_555
C41_3 H35_3 1_555 1_555
C42_3 C38_3 1_555 1_555
N11_3 C40_3 1_555 1_555
C41_3 C42_3 1_555 1_555
C41_3 N11_3 1_555 1_555
N11_3 H37_3 1_555 1_555
C33_3 H29_3 1_555 1_555
C34_3 C33_3 1_555 1_555
C35_3 C34_3 1_555 1_555
C36_3 C35_3 1_555 1_555
H31_3 C36_3 1_555 1_555
H32_3 C37_3 1_555 1_555
C37_3 C36_3 1_555 1_555
N10_3 C33_3 1_555 1_555
C37_3 N10_3 1_555 1_555
N10_3 H38_3 1_555 1_555
C36_4 C35_4 1_555 1_555
H31_4 C36_4 1_555 1_555
H32_4 C37_4 1_555 1_555
C37_4 C36_4 1_555 1_555
C39_4 C38_4 1_555 1_555
H33_4 C39_4 1_555 1_555
C40_4 C39_4 1_555 1_555
H34_4 C40_4 1_555 1_555
C41_4 H35_4 1_555 1_555
C42_4 C38_4 1_555 1_555
N11_4 C40_4 1_555 1_555
C41_4 C42_4 1_555 1_555
C41_4 N11_4 1_555 1_555
N11_4 H37_4 1_555 1_555
C33_4 H29_4 1_555 1_555
C34_4 C33_4 1_555 1_555
N10_4 C33_4 1_555 1_555
N10_4 H38_4 1_555 1_555

#END
