
###############################################################################
#
# This file contains modified crystal structure data generated from the
# MOF subset of the Cambridge Structural Database (CSD) v543 
# hosted by the Cambridge Crystallographic Data Centre (CCDC).
#
# This work is licensed under the Creative Commons
# Attribution-NonCommercial-ShareAlike 4.0 International License.
# To view a copy of this license, visit
# http://creativecommons.org/licenses/by-nc-sa/4.0/
# or send a letter to
# Creative Commons, PO Box 1866, Mountain View, CA 94042, USA.
#
# CIF created using the CSD Python API on 29 September 2022
# The structure has been converted into the P1 space group
# The structure has a 3D framework
# The original CSD entry JOGSAA is in the monoclinic crystal system
# The framework has been calculated to contain at least 10.0% void space
# The void calculation uses a probe of radius 1.32A, grid spacing 0.4
# The framework is charged, counterions have been retained in the structure
# H atom positions have been added when not included in the experimental data
#
###############################################################################

data_JOGSAA
_chemical_formula_moiety         '(C104 H96 N19 Ni4 O136 P4 W36)n'
_symmetry_cell_setting           triclinic
_symmetry_space_group_name_H-M   'P 1'
_symmetry_Int_Tables_number      1
_space_group_name_Hall           'P 1'
loop_
_symmetry_equiv_pos_site_id
_symmetry_equiv_pos_as_xyz
1 x,y,z
_cell_length_a                   15.0721(9)
_cell_length_b                   24.7694(14)
_cell_length_c                   15.1707(9)
_cell_angle_alpha                90
_cell_angle_beta                 110.5410(10)
_cell_angle_gamma                90
_cell_volume                     5303.54
loop_
_atom_site_label
_atom_site_type_symbol
_atom_site_fract_x
_atom_site_fract_y
_atom_site_fract_z
Ni1 Ni 0.39621(10) 0.52227(6) 0.10812(11)
C1 C 0.2095(9) 0.4959(6) 0.1301(11)
H1 H 0.2483 0.4843 0.1894
C2 C 0.1107(9) 0.4904(6) 0.1040(11)
H2 H 0.0848 0.4778 0.1474
C3 C 0.0527(8) 0.5035(5) 0.0144(9)
C6 C 0.3227(11) 0.6363(6) 0.0807(15)
C7 C 0.3223(10) 0.6918(6) 0.0819(14)
H5 H 0.2652 0.7101 0.0562
C8 C 0.4040(8) 0.7202(4) 0.1198(9)
C9 C 0.4797(10) 0.6917(7) 0.1505(15)
H6 H 0.5381 0.7091 0.1728
C10 C 0.4768(11) 0.6332(5) 0.1515(14)
H7 H 0.5323 0.6141 0.1821
C11 C 0.5465(8) 0.4983(5) 0.0440(9)
C12 C 0.4953(10) 0.4796(5) 0.2983(10)
H8 H 0.5172 0.4556 0.2634
C13 C 0.5207(9) 0.4728(5) 0.3942(10)
H9 H 0.5616 0.4447 0.4226
C14 C 0.4890(8) 0.5054(4) 0.4499(8)
C15 C 0.4334(10) 0.5487(5) 0.4019(10)
H10 H 0.4105 0.5735 0.4348
C16 C 0.4123(9) 0.5550(5) 0.3070(10)
H11 H 0.3774 0.5852 0.2782
N1 N 0.4380(7) 0.5213(4) 0.2547(7)
N2 N 0.2485(6) 0.5172(4) 0.0730(8)
N3 N 0.3985(7) 0.6066(4) 0.1107(7)
O1 O 0.6204(6) 0.4827(4) 0.0348(6)
O2 O 0.5366(5) 0.5126(3) 0.1201(6)
O3 O 0.3889(6) 0.4370(4) 0.1052(8)
H12 H 0.3693 0.4206 0.1439
H13 H 0.4257 0.4126 0.0985
Ni4 Ni 0.39621(10) 0.97773(6) 0.10812(11)
Ni5 Ni 0.60379(10) 0.47773(6) 0.89188(11)
C22 C 0.3227(11) 0.8637(6) 0.0807(15)
C23 C 0.3223(10) 0.8082(6) 0.0819(14)
H18 H 0.2652 0.7899 0.0562
C24 C 0.4040(8) 0.7798(4) 0.1198(9)
C25 C 0.4797(10) 0.8083(7) 0.1505(15)
H19 H 0.5381 0.7909 0.1728
C26 C 0.4768(11) 0.8668(5) 0.1515(14)
H20 H 0.5323 0.8859 0.1821
C28 C 0.5047(10) 0.5204(5) 0.7017(10)
H21 H 0.4828 0.5444 0.7366
C29 C 0.4793(9) 0.5272(5) 0.6058(10)
H22 H 0.4384 0.5553 0.5774
C30 C 0.5110(8) 0.4946(4) 0.5501(8)
C31 C 0.5666(10) 0.4513(5) 0.5981(10)
H23 H 0.5895 0.4265 0.5652
C32 C 0.5877(9) 0.4450(5) 0.6930(10)
H24 H 0.6226 0.4148 0.7218
N4 N 0.5620(7) 0.4787(4) 0.7453(7)
N8 N 0.3985(7) 0.8934(4) 0.1107(7)
H35 H 0.254638 0.615764 0.0526041
H36 H 0.254638 0.884236 0.0526041
C4 C 0.0945(8) 0.5225(6) 0.9560(10)
H3 H 0.0571 0.5317 0.8948
C5 C 0.1927(8) 0.5289(5) 0.9842(10)
H4 H 0.2196 0.5413 0.9414
C27 C 0.4535(8) 0.5017(5) 0.9560(9)
N7 N 0.7515(6) 0.4828(4) 0.9270(8)
N9 N 0.6015(7) 0.3934(4) 0.8893(7)
O4 O 0.3796(6) 0.5173(4) 0.9652(6)
O5 O 0.4634(5) 0.4874(3) 0.8799(6)
O6 O 0.6111(6) 0.5630(4) 0.8948(8)
H25 H 0.6307 0.5794 0.8561
H26 H 0.5743 0.5874 0.9015
C20 C 0.9055(8) 0.4775(6) 0.0440(10)
H16 H 0.9429 0.4683 0.1052
C21 C 0.8073(8) 0.4711(5) 0.0158(10)
H17 H 0.7804 0.4587 0.0586
C17 C 0.7905(9) 0.5041(6) 0.8699(11)
H14 H 0.7517 0.5157 0.8106
C18 C 0.8893(9) 0.5096(6) 0.8960(11)
H15 H 0.9152 0.5222 0.8526
C19 C 0.9473(8) 0.4965(5) 0.9856(9)
C17_2 C 0.2095(9) 0.0041(6) 0.1301(11)
H14_2 H 0.2483 0.0157 0.1894
C18_2 C 0.1107(9) 0.0096(6) 0.1040(11)
H15_2 H 0.0848 0.0222 0.1474
C19_2 C 0.0527(8) 0.9965(5) 0.0144(9)
N6 N 0.2485(6) 0.9828(4) 0.0730(8)
C20_2 C 0.0945(8) 0.9775(6) 0.9560(10)
H16_2 H 0.0571 0.9683 0.8948
C21_2 C 0.1927(8) 0.9711(5) 0.9842(10)
H17_2 H 0.2196 0.9587 0.9414
C4_2 C 0.9055(8) 0.0225(6) 0.0440(10)
H3_2 H 0.9429 0.0317 0.1052
C5_2 C 0.8073(8) 0.0289(5) 0.0158(10)
H4_2 H 0.7804 0.0413 0.0586
C27_2 C 0.5465(8) 0.0017(5) 0.0440(9)
O4_2 O 0.6204(6) 0.0173(4) 0.0348(6)
O6_2 O 0.3889(6) 0.0630(4) 0.1052(8)
H25_2 H 0.3693 0.0794 0.1439
H26_2 H 0.4257 0.0874 0.0985
Ni1_2 Ni 0.60379(10) 0.02227(6) 0.89188(11)
C3_2 C 0.9473(8) 0.0035(5) 0.9856(9)
C6_2 C 0.6773(11) 0.1363(6) 0.9193(15)
C7_2 C 0.6777(10) 0.1918(6) 0.9181(14)
H5_2 H 0.7348 0.2101 0.9438
C8_2 C 0.5960(8) 0.2202(4) 0.8802(9)
C9_2 C 0.5203(10) 0.1917(7) 0.8495(15)
H6_2 H 0.4619 0.2091 0.8272
C10_2 C 0.5232(11) 0.1332(5) 0.8485(14)
H7_2 H 0.4677 0.1141 0.8179
C14_2 C 0.5110(8) 0.0054(4) 0.5501(8)
C15_2 C 0.5666(10) 0.0487(5) 0.5981(10)
H10_2 H 0.5895 0.0735 0.5652
C16_2 C 0.5877(9) 0.0550(5) 0.6930(10)
H11_2 H 0.6226 0.0852 0.7218
N1_2 N 0.5620(7) 0.0213(4) 0.7453(7)
N2_2 N 0.7515(6) 0.0172(4) 0.9270(8)
N3_2 N 0.6015(7) 0.1066(4) 0.8893(7)
O2_2 O 0.4634(5) 0.0126(3) 0.8799(6)
C22_2 C 0.6773(11) 0.3637(6) 0.9193(15)
C23_2 C 0.6777(10) 0.3082(6) 0.9181(14)
H18_2 H 0.7348 0.2899 0.9438
C24_2 C 0.5960(8) 0.2798(4) 0.8802(9)
C25_2 C 0.5203(10) 0.3083(7) 0.8495(15)
H19_2 H 0.4619 0.2909 0.8272
C26_2 C 0.5232(11) 0.3668(5) 0.8485(14)
H20_2 H 0.4677 0.3859 0.8179
C28_2 C 0.4953(10) 0.0204(5) 0.2983(10)
H21_2 H 0.5172 0.0444 0.2634
C29_2 C 0.5207(9) 0.0272(5) 0.3942(10)
H22_2 H 0.5616 0.0553 0.4226
H35_2 H 0.745362 0.115764 0.947396
H36_2 H 0.745362 0.384236 0.947396
N5 N 0.4380(7) 0.9787(4) 0.2547(7)
O5_2 O 0.5366(5) 0.9874(3) 0.1201(6)
C1_2 C 0.7905(9) 0.9959(6) 0.8699(11)
H1_2 H 0.7517 0.9843 0.8106
C2_2 C 0.8893(9) 0.9904(6) 0.8960(11)
H2_2 H 0.9152 0.9778 0.8526
C11_2 C 0.4535(8) 0.9983(5) 0.9560(9)
C12_2 C 0.5047(10) 0.9796(5) 0.7017(10)
H8_2 H 0.4828 0.9556 0.7366
C13_2 C 0.4793(9) 0.9728(5) 0.6058(10)
H9_2 H 0.4384 0.9447 0.5774
O1_2 O 0.3796(6) 0.9827(4) 0.9652(6)
O3_2 O 0.6111(6) 0.9370(4) 0.8948(8)
H12_2 H 0.6307 0.9206 0.8561
H13_2 H 0.5743 0.9126 0.9015
C30_2 C 0.4890(8) 0.9946(4) 0.4499(8)
C31_2 C 0.4334(10) 0.9513(5) 0.4019(10)
H23_2 H 0.4105 0.9265 0.4348
C32_2 C 0.4123(9) 0.9450(5) 0.3070(10)
H24_2 H 0.3774 0.9148 0.2782
P2 P 0.2726(3) 0.2500 0.3658(3)
W1 W 0.00316(3) 0.39247(2) 0.31425(4)
W2 W 0.26698(3) 0.39229(2) 0.37189(4)
W3 W 0.23487(4) 0.31799(2) 0.15398(4)
W5 W 0.03013(4) 0.32422(2) 0.51272(5)
W6 W 0.46971(3) 0.31818(2) 0.34490(5)
W7 W 0.29438(4) 0.32442(2) 0.57069(4)
W9 W 0.49788(5) 0.2500 0.54668(6)
O7 O 0.0021(6) 0.3888(3) 0.4384(7)
O8 O 0.1008(5) 0.3106(3) 0.1101(6)
O9 O 0.1371(5) 0.3963(3) 0.3608(7)
O10 O 0.3886(5) 0.3664(3) 0.3795(6)
O11 O 0.2260(7) 0.2500 0.2613(8)
O12 O 0.0111(7) 0.2500 0.2121(9)
O13 O 0.1613(6) 0.3352(3) 0.5371(6)
O14 O 0.0327(5) 0.3009(3) 0.3625(6)
O16 O 0.2426(8) 0.2500 0.0967(9)
O17 O 0.3025(6) 0.3887(3) 0.5032(7)
O18 O 0.0082(5) 0.3666(3) 0.1978(6)
O19 O 0.2739(8) 0.2500 0.5874(9)
O20 O 0.4165(6) 0.3016(4) 0.5697(6)
O21 O 0.3668(5) 0.3139(3) 0.2270(7)
O22 O 0.0598(8) 0.2500 0.5419(10)
O24 O 0.2831(6) 0.4592(3) 0.3567(7)
O27 O 0.0239(7) 0.3481(4) 0.6150(8)
O28 O 0.5351(5) 0.3048(3) 0.4739(7)
O29 O 0.2427(6) 0.3612(4) 0.0699(6)
O31 O 0.3288(7) 0.3493(4) 0.6821(7)
O33 O 0.5927(9) 0.2500 0.6487(12)
O34 O 0.5122(7) 0.2500 0.3150(9)
O39 O 0.2250(5) 0.3656(3) 0.2469(6)
O40 O 0.3832(7) 0.2500 0.3920(8)
O42 O 0.2481(5) 0.3013(3) 0.4094(6)
O43 O 0.5476(6) 0.3592(4) 0.3208(7)
W11 W 0.00316(3) 0.10753(2) 0.31425(4)
W12 W 0.26698(3) 0.10771(2) 0.37189(4)
W13 W 0.23487(4) 0.18201(2) 0.15398(4)
W15 W 0.03013(4) 0.17578(2) 0.51272(5)
W16 W 0.46971(3) 0.18182(2) 0.34490(5)
W17 W 0.29438(4) 0.17558(2) 0.57069(4)
O44 O 0.0021(6) 0.1112(3) 0.4384(7)
O45 O 0.1008(5) 0.1894(3) 0.1101(6)
O46 O 0.1371(5) 0.1037(3) 0.3608(7)
O47 O 0.3886(5) 0.1336(3) 0.3795(6)
O48 O 0.1613(6) 0.1648(3) 0.5371(6)
O49 O 0.0327(5) 0.1991(3) 0.3625(6)
O51 O 0.3025(6) 0.1113(3) 0.5032(7)
O52 O 0.0082(5) 0.1334(3) 0.1978(6)
O53 O 0.4165(6) 0.1984(4) 0.5697(6)
O54 O 0.3668(5) 0.1861(3) 0.2270(7)
O55 O 0.2831(6) 0.0408(3) 0.3567(7)
O58 O 0.0239(7) 0.1519(4) 0.6150(8)
O59 O 0.5351(5) 0.1952(3) 0.4739(7)
O60 O 0.2427(6) 0.1388(4) 0.0699(6)
O62 O 0.3288(7) 0.1507(4) 0.6821(7)
O66 O 0.2250(5) 0.1344(3) 0.2469(6)
O67 O 0.2481(5) 0.1987(3) 0.4094(6)
O68 O 0.5476(6) 0.1408(4) 0.3208(7)
P1 P 0.9937(3) 0.2500 0.3050(4)
W4 W 0.97161(4) 0.31780(2) 0.09569(4)
W8 W 0.77976(4) 0.31830(2) 0.19557(5)
W10 W 0.80613(5) 0.2500 0.39535(8)
O15 O 0.9774(6) 0.4595(3) 0.2900(7)
O23 O 0.8839(7) 0.2500 0.2826(10)
O25 O 0.8738(6) 0.3658(3) 0.2699(7)
O26 O 0.9005(6) 0.3019(3) 0.4555(8)
O30 O 0.8522(6) 0.3134(3) 0.1161(7)
O32 O 0.6931(6) 0.3626(4) 0.1375(9)
O36 O 0.7222(8) 0.2500 0.1475(10)
O37 O 0.7452(6) 0.3041(3) 0.3039(8)
O38 O 0.7393(10) 0.2500 0.4646(12)
O41 O 0.9435(8) 0.2500 0.0312(9)
W14 W 0.97161(4) 0.18220(2) 0.09569(4)
W18 W 0.77976(4) 0.18170(2) 0.19557(5)
O50 O 0.9774(6) 0.0405(3) 0.2900(7)
O56 O 0.8738(6) 0.1342(3) 0.2699(7)
O57 O 0.9005(6) 0.1981(3) 0.4555(8)
O61 O 0.8522(6) 0.1866(3) 0.1161(7)
O63 O 0.6931(6) 0.1374(4) 0.1375(9)
O65 O 0.7452(6) 0.1959(3) 0.3039(8)
O35 O 0.9353(7) 0.3595(4) 0.9995(7)
O64 O 0.9353(7) 0.1405(4) 0.9995(7)
O35_2 O 0.0647(7) 0.8595(4) 0.0005(7)
O64_2 O 0.0647(7) 0.6405(4) 0.0005(7)
P1_2 P 0.0063(3) 0.7500 0.6950(4)
W4_2 W 0.02839(4) 0.81780(2) 0.90431(4)
W8_2 W 0.22024(4) 0.81830(2) 0.80443(5)
W10_2 W 0.19387(5) 0.7500 0.60465(8)
O15_2 O 0.0226(6) 0.9595(3) 0.7100(7)
O23_2 O 0.1161(7) 0.7500 0.7174(10)
O25_2 O 0.1262(6) 0.8658(3) 0.7301(7)
O26_2 O 0.0995(6) 0.8019(3) 0.5445(8)
O30_2 O 0.1478(6) 0.8134(3) 0.8839(7)
O32_2 O 0.3069(6) 0.8626(4) 0.8625(9)
O36_2 O 0.2778(8) 0.7500 0.8525(10)
O37_2 O 0.2548(6) 0.8041(3) 0.6961(8)
O38_2 O 0.2607(10) 0.7500 0.5354(12)
O41_2 O 0.0565(8) 0.7500 0.9688(9)
W14_2 W 0.02839(4) 0.68220(2) 0.90431(4)
W18_2 W 0.22024(4) 0.68170(2) 0.80443(5)
O50_2 O 0.0226(6) 0.5405(3) 0.7100(7)
O56_2 O 0.1262(6) 0.6342(3) 0.7301(7)
O57_2 O 0.0995(6) 0.6981(3) 0.5445(8)
O61_2 O 0.1478(6) 0.6866(3) 0.8839(7)
O63_2 O 0.3069(6) 0.6374(4) 0.8625(9)
O65_2 O 0.2548(6) 0.6959(3) 0.6961(8)
P2_2 P 0.7274(3) 0.7500 0.6342(3)
W1_2 W 0.99684(3) 0.89247(2) 0.68575(4)
W2_2 W 0.73302(3) 0.89229(2) 0.62811(4)
W3_2 W 0.76513(4) 0.81799(2) 0.84602(4)
W5_2 W 0.96987(4) 0.82422(2) 0.48728(5)
W6_2 W 0.53029(3) 0.81818(2) 0.65510(5)
W7_2 W 0.70562(4) 0.82442(2) 0.42931(4)
W9_2 W 0.50212(5) 0.7500 0.45332(6)
O7_2 O 0.9979(6) 0.8888(3) 0.5616(7)
O8_2 O 0.8992(5) 0.8106(3) 0.8899(6)
O9_2 O 0.8629(5) 0.8963(3) 0.6392(7)
O10_2 O 0.6114(5) 0.8664(3) 0.6205(6)
O11_2 O 0.7740(7) 0.7500 0.7387(8)
O12_2 O 0.9889(7) 0.7500 0.7879(9)
O13_2 O 0.8387(6) 0.8352(3) 0.4629(6)
O14_2 O 0.9673(5) 0.8009(3) 0.6375(6)
O16_2 O 0.7574(8) 0.7500 0.9033(9)
O17_2 O 0.6975(6) 0.8887(3) 0.4968(7)
O18_2 O 0.9918(5) 0.8666(3) 0.8022(6)
O19_2 O 0.7261(8) 0.7500 0.4126(9)
O20_2 O 0.5835(6) 0.8016(4) 0.4303(6)
O21_2 O 0.6332(5) 0.8139(3) 0.7730(7)
O22_2 O 0.9402(8) 0.7500 0.4581(10)
O24_2 O 0.7169(6) 0.9592(3) 0.6433(7)
O27_2 O 0.9761(7) 0.8481(4) 0.3850(8)
O28_2 O 0.4649(5) 0.8048(3) 0.5261(7)
O29_2 O 0.7573(6) 0.8612(4) 0.9301(6)
O31_2 O 0.6712(7) 0.8493(4) 0.3179(7)
O33_2 O 0.4073(9) 0.7500 0.3513(12)
O34_2 O 0.4878(7) 0.7500 0.6850(9)
O39_2 O 0.7750(5) 0.8656(3) 0.7531(6)
O40_2 O 0.6168(7) 0.7500 0.6080(8)
O42_2 O 0.7519(5) 0.8013(3) 0.5906(6)
O43_2 O 0.4524(6) 0.8592(4) 0.6792(7)
W11_2 W 0.99684(3) 0.60753(2) 0.68575(4)
W12_2 W 0.73302(3) 0.60771(2) 0.62811(4)
W13_2 W 0.76513(4) 0.68201(2) 0.84602(4)
W15_2 W 0.96987(4) 0.67578(2) 0.48728(5)
W16_2 W 0.53029(3) 0.68182(2) 0.65510(5)
W17_2 W 0.70562(4) 0.67558(2) 0.42931(4)
O44_2 O 0.9979(6) 0.6112(3) 0.5616(7)
O45_2 O 0.8992(5) 0.6894(3) 0.8899(6)
O46_2 O 0.8629(5) 0.6037(3) 0.6392(7)
O47_2 O 0.6114(5) 0.6336(3) 0.6205(6)
O48_2 O 0.8387(6) 0.6648(3) 0.4629(6)
O49_2 O 0.9673(5) 0.6991(3) 0.6375(6)
O51_2 O 0.6975(6) 0.6113(3) 0.4968(7)
O52_2 O 0.9918(5) 0.6334(3) 0.8022(6)
O53_2 O 0.5835(6) 0.6984(4) 0.4303(6)
O54_2 O 0.6332(5) 0.6861(3) 0.7730(7)
O55_2 O 0.7169(6) 0.5408(3) 0.6433(7)
O58_2 O 0.9761(7) 0.6519(4) 0.3850(8)
O59_2 O 0.4649(5) 0.6952(3) 0.5261(7)
O60_2 O 0.7573(6) 0.6388(4) 0.9301(6)
O62_2 O 0.6712(7) 0.6507(4) 0.3179(7)
O66_2 O 0.7750(5) 0.6344(3) 0.7531(6)
O67_2 O 0.7519(5) 0.6987(3) 0.5906(6)
O68_2 O 0.4524(6) 0.6408(4) 0.6792(7)
C33 C 0.7471(11) 0.4424(6) 0.3411(10)
H27 H 0.7225 0.4076 0.3348
C34 C 0.7363(13) 0.4722(7) 0.2606(11)
H28 H 0.7046 0.4575 0.2016
C35 C 0.8182(17) 0.5457(7) 0.3578(13)
H29 H 0.8430 0.5805 0.3640
C36 C 0.8273(13) 0.5165(7) 0.4376(11)
H30 H 0.8560 0.5322 0.4965
C37 C 0.8659(14) 0.4461(8) 0.5972(13)
H31 H 0.9008 0.4777 0.6035
C38 C 0.8774(13) 0.4148(8) 0.6721(12)
H32 H 0.9234 0.4245 0.7291
C39 C 0.7620(12) 0.3552(6) 0.5836(12)
H33 H 0.7240 0.3249 0.5783
C40 C 0.7542(12) 0.3847(7) 0.5065(11)
H34 H 0.7142 0.3725 0.4481
C41 C 0.7935(13) 0.4629(6) 0.4308(11)
C42 C 0.8022(11) 0.4314(6) 0.5107(11)
N10 N 0.8256(14) 0.3697(8) 0.6695(12)
N11 N 0.7733(11) 0.5248(6) 0.2686(11)
H37 H 0.83362 0.347799 0.728349
H38 H 0.767235 0.546892 0.210419
C35_2 C 0.1818(17) 0.0457(7) 0.6422(13)
H29_2 H 0.1570 0.0805 0.6360
C36_2 C 0.1727(13) 0.0165(7) 0.5624(11)
H30_2 H 0.1440 0.0322 0.5035
N11_2 N 0.2267(11) 0.0248(6) 0.7314(11)
H38_2 H 0.232765 0.0468916 0.789581
C33_2 C 0.2529(11) 0.9424(6) 0.6589(10)
H27_2 H 0.2775 0.9076 0.6652
C34_2 C 0.2637(13) 0.9722(7) 0.7394(11)
H28_2 H 0.2954 0.9575 0.7984
C37_2 C 0.1341(14) 0.9461(8) 0.4028(13)
H31_2 H 0.0992 0.9777 0.3965
C38_2 C 0.1226(13) 0.9148(8) 0.3279(12)
H32_2 H 0.0766 0.9245 0.2709
C39_2 C 0.2380(12) 0.8552(6) 0.4164(12)
H33_2 H 0.2760 0.8249 0.4217
C40_2 C 0.2458(12) 0.8847(7) 0.4935(11)
H34_2 H 0.2858 0.8725 0.5519
C41_2 C 0.2065(13) 0.9629(6) 0.5692(11)
C42_2 C 0.1978(11) 0.9314(6) 0.4893(11)
N10_2 N 0.1744(14) 0.8697(8) 0.3305(12)
H37_2 H 0.16638 0.847799 0.271651
C33_3 C 0.2529(11) 0.5576(6) 0.6589(10)
H27_3 H 0.2775 0.5924 0.6652
C34_3 C 0.2637(13) 0.5278(7) 0.7394(11)
H28_3 H 0.2954 0.5425 0.7984
C35_3 C 0.1818(17) 0.4543(7) 0.6422(13)
H29_3 H 0.1570 0.4195 0.6360
C36_3 C 0.1727(13) 0.4835(7) 0.5624(11)
H30_3 H 0.1440 0.4678 0.5035
C37_3 C 0.1341(14) 0.5539(8) 0.4028(13)
H31_3 H 0.0992 0.5223 0.3965
C38_3 C 0.1226(13) 0.5852(8) 0.3279(12)
H32_3 H 0.0766 0.5755 0.2709
C39_3 C 0.2380(12) 0.6448(6) 0.4164(12)
H33_3 H 0.2760 0.6751 0.4217
C40_3 C 0.2458(12) 0.6153(7) 0.4935(11)
H34_3 H 0.2858 0.6275 0.5519
C41_3 C 0.2065(13) 0.5371(6) 0.5692(11)
C42_3 C 0.1978(11) 0.5686(6) 0.4893(11)
N10_3 N 0.1744(14) 0.6303(8) 0.3305(12)
N11_3 N 0.2267(11) 0.4752(6) 0.7314(11)
H37_3 H 0.16638 0.652201 0.271651
H38_3 H 0.232765 0.453108 0.789581
C33_4 C 0.7471(11) 0.0576(6) 0.3411(10)
H27_4 H 0.7225 0.0924 0.3348
C34_4 C 0.7363(13) 0.0278(7) 0.2606(11)
H28_4 H 0.7046 0.0425 0.2016
C37_4 C 0.8659(14) 0.0539(8) 0.5972(13)
H31_4 H 0.9008 0.0223 0.6035
C38_4 C 0.8774(13) 0.0852(8) 0.6721(12)
H32_4 H 0.9234 0.0755 0.7291
C39_4 C 0.7620(12) 0.1448(6) 0.5836(12)
H33_4 H 0.7240 0.1751 0.5783
C40_4 C 0.7542(12) 0.1153(7) 0.5065(11)
H34_4 H 0.7142 0.1275 0.4481
C41_4 C 0.7935(13) 0.0371(6) 0.4308(11)
C42_4 C 0.8022(11) 0.0686(6) 0.5107(11)
N10_4 N 0.8256(14) 0.1303(8) 0.6695(12)
H37_4 H 0.83362 0.152201 0.728349
C35_4 C 0.8182(17) 0.9543(7) 0.3578(13)
H29_4 H 0.8430 0.9195 0.3640
C36_4 C 0.8273(13) 0.9835(7) 0.4376(11)
H30_4 H 0.8560 0.9678 0.4965
N11_4 N 0.7733(11) 0.9752(6) 0.2686(11)
H38_4 H 0.767235 0.953108 0.210419
loop_
_geom_bond_atom_site_label_1
_geom_bond_atom_site_label_2
_geom_bond_site_symmetry_1
_geom_bond_site_symmetry_2
Ni1 N1 1_555 1_555
C1 H1 1_555 1_555
C2 C1 1_555 1_555
H2 C2 1_555 1_555
C3 C2 1_555 1_555
C6 C7 1_555 1_555
C7 H5 1_555 1_555
C8 C7 1_555 1_555
C9 C8 1_555 1_555
H6 C9 1_555 1_555
C10 C9 1_555 1_555
H7 C10 1_555 1_555
C11 O1 1_555 1_555
C12 H8 1_555 1_555
C13 C12 1_555 1_555
H9 C13 1_555 1_555
C14 C13 1_555 1_555
C15 C14 1_555 1_555
H10 C15 1_555 1_555
C16 C15 1_555 1_555
H11 C16 1_555 1_555
N1 C12 1_555 1_555
N2 Ni1 1_555 1_555
N3 Ni1 1_555 1_555
O2 Ni1 1_555 1_555
O3 Ni1 1_555 1_555
H12 O3 1_555 1_555
H13 O3 1_555 1_555
Ni4 N8 1_555 1_555
Ni5 N4 1_555 1_555
C22 C23 1_555 1_555
C23 H18 1_555 1_555
C24 C8 1_555 1_555
C25 C24 1_555 1_555
H19 C25 1_555 1_555
C26 C25 1_555 1_555
H20 C26 1_555 1_555
C28 H21 1_555 1_555
C29 C28 1_555 1_555
H22 C29 1_555 1_555
C30 C14 1_555 1_555
C31 C30 1_555 1_555
H23 C31 1_555 1_555
C32 C31 1_555 1_555
H24 C32 1_555 1_555
N4 C28 1_555 1_555
N8 C22 1_555 1_555
C1 N2 1_555 1_555
C6 N3 1_555 1_555
C10 N3 1_555 1_555
C11 O2 1_555 1_555
C16 N1 1_555 1_555
C23 C24 1_555 1_555
C26 N8 1_555 1_555
C29 C30 1_555 1_555
C32 N4 1_555 1_555
C6 H35 1_555 1_555
C22 H36 1_555 1_555
H3 C4 1_555 1_555
C5 C4 1_555 1_555
H4 C5 1_555 1_555
N7 Ni5 1_555 1_555
N9 Ni5 1_555 1_555
O5 Ni5 1_555 1_555
O6 Ni5 1_555 1_555
H25 O6 1_555 1_555
H26 O6 1_555 1_555
C27 O4 1_555 1_555
C27 O5 1_555 1_555
H16 C20 1_555 1_555
C21 C20 1_555 1_555
H17 C21 1_555 1_555
C17 H14 1_555 1_555
C18 C17 1_555 1_555
H15 C18 1_555 1_555
N7 C17 1_555 1_555
C18 C19 1_555 1_555
C17_2 H14_2 1_555 1_555
C18_2 C17_2 1_555 1_555
H15_2 C18_2 1_555 1_555
Ni4 N6 1_555 1_555
H16_2 C20_2 1_555 1_555
C21_2 C20_2 1_555 1_555
H17_2 C21_2 1_555 1_555
H3_2 C4_2 1_555 1_555
C5_2 C4_2 1_555 1_555
H4_2 C5_2 1_555 1_555
H25_2 O6_2 1_555 1_555
H26_2 O6_2 1_555 1_555
C27_2 O4_2 1_555 1_555
Ni1_2 N1_2 1_555 1_555
C6_2 C7_2 1_555 1_555
C7_2 H5_2 1_555 1_555
C8_2 C7_2 1_555 1_555
C9_2 C8_2 1_555 1_555
H6_2 C9_2 1_555 1_555
C10_2 C9_2 1_555 1_555
H7_2 C10_2 1_555 1_555
C15_2 C14_2 1_555 1_555
H10_2 C15_2 1_555 1_555
C16_2 C15_2 1_555 1_555
H11_2 C16_2 1_555 1_555
N2_2 Ni1_2 1_555 1_555
N3_2 Ni1_2 1_555 1_555
O2_2 Ni1_2 1_555 1_555
C22_2 C23_2 1_555 1_555
C23_2 H18_2 1_555 1_555
C24_2 C8_2 1_555 1_555
C25_2 C24_2 1_555 1_555
H19_2 C25_2 1_555 1_555
C26_2 C25_2 1_555 1_555
H20_2 C26_2 1_555 1_555
C28_2 H21_2 1_555 1_555
C29_2 C28_2 1_555 1_555
H22_2 C29_2 1_555 1_555
N9 C22_2 1_555 1_555
C6_2 N3_2 1_555 1_555
C10_2 N3_2 1_555 1_555
C16_2 N1_2 1_555 1_555
C23_2 C24_2 1_555 1_555
C26_2 N9 1_555 1_555
C6_2 H35_2 1_555 1_555
C22_2 H36_2 1_555 1_555
Ni4 N5 1_555 1_555
O5_2 Ni4 1_555 1_555
C1_2 H1_2 1_555 1_555
C2_2 C1_2 1_555 1_555
H2_2 C2_2 1_555 1_555
C11_2 O1_2 1_555 1_555
C12_2 H8_2 1_555 1_555
C13_2 C12_2 1_555 1_555
H9_2 C13_2 1_555 1_555
H12_2 O3_2 1_555 1_555
H13_2 O3_2 1_555 1_555
C31_2 C30_2 1_555 1_555
H23_2 C31_2 1_555 1_555
C32_2 C31_2 1_555 1_555
H24_2 C32_2 1_555 1_555
C32_2 N5 1_555 1_555
P2 O11 1_555 1_555
W1 O7 1_555 1_555
W2 O9 1_555 1_555
W3 O8 1_555 1_555
W5 O7 1_555 1_555
W6 O10 1_555 1_555
W7 O13 1_555 1_555
W9 O20 1_555 1_555
O9 W1 1_555 1_555
O10 W2 1_555 1_555
O11 W3 1_555 1_555
O13 W5 1_555 1_555
O16 W3 1_555 1_555
O17 W2 1_555 1_555
O18 W1 1_555 1_555
O19 W7 1_555 1_555
O20 W7 1_555 1_555
O21 W3 1_555 1_555
O22 W5 1_555 1_555
O24 W2 1_555 1_555
O27 W5 1_555 1_555
O28 W6 1_555 1_555
O29 W3 1_555 1_555
O31 W7 1_555 1_555
O33 W9 1_555 1_555
O34 W6 1_555 1_555
O39 W2 1_555 1_555
O40 P2 1_555 1_555
O42 P2 1_555 1_555
O43 W6 1_555 1_555
W11 O44 1_555 1_555
W12 O46 1_555 1_555
W13 O11 1_555 1_555
W15 O22 1_555 1_555
W16 O34 1_555 1_555
W17 O19 1_555 1_555
O44 W15 1_555 1_555
O45 W13 1_555 1_555
O46 W11 1_555 1_555
O47 W12 1_555 1_555
O48 W15 1_555 1_555
O51 W12 1_555 1_555
O52 W11 1_555 1_555
O53 W9 1_555 1_555
O54 W13 1_555 1_555
O55 W12 1_555 1_555
O58 W15 1_555 1_555
O59 W9 1_555 1_555
O60 W13 1_555 1_555
O62 W17 1_555 1_555
O66 W12 1_555 1_555
O67 P2 1_555 1_555
O68 W16 1_555 1_555
W1 O14 1_555 1_555
W2 O42 1_555 1_555
W3 O39 1_555 1_555
W5 O14 1_555 1_555
W6 O21 1_555 1_555
W6 O40 1_555 1_555
W7 O17 1_555 1_555
W7 O42 1_555 1_555
W9 O28 1_555 1_555
W9 O40 1_555 1_555
O16 W13 1_555 1_555
O40 W16 1_555 1_555
W11 O49 1_555 1_555
W12 O67 1_555 1_555
W13 O66 1_555 1_555
W15 O49 1_555 1_555
W16 O47 1_555 1_555
W16 O54 1_555 1_555
W16 O59 1_555 1_555
W17 O48 1_555 1_555
W17 O51 1_555 1_555
W17 O53 1_555 1_555
W17 O67 1_555 1_555
W8 O23 1_555 1_555
W10 O23 1_555 1_555
O23 P1 1_555 1_555
O30 W4 1_555 1_555
O32 W8 1_555 1_555
O36 W8 1_555 1_555
O37 W8 1_555 1_555
O38 W10 1_555 1_555
O41 W4 1_555 1_555
W18 O23 1_555 1_555
O57 W10 1_555 1_555
O61 W14 1_555 1_555
O63 W18 1_555 1_555
O65 W10 1_555 1_555
W8 O25 1_555 1_555
W8 O30 1_555 1_555
W10 O26 1_555 1_555
W10 O37 1_555 1_555
O36 W18 1_555 1_555
O41 W14 1_555 1_555
W18 O56 1_555 1_555
W18 O61 1_555 1_555
W18 O65 1_555 1_555
W8_2 O23_2 1_555 1_555
W10_2 O23_2 1_555 1_555
O23_2 P1_2 1_555 1_555
O30_2 W4_2 1_555 1_555
O32_2 W8_2 1_555 1_555
O36_2 W8_2 1_555 1_555
O37_2 W8_2 1_555 1_555
O38_2 W10_2 1_555 1_555
O41_2 W4_2 1_555 1_555
W18_2 O23_2 1_555 1_555
O57_2 W10_2 1_555 1_555
O61_2 W14_2 1_555 1_555
O63_2 W18_2 1_555 1_555
O65_2 W10_2 1_555 1_555
W8_2 O25_2 1_555 1_555
W8_2 O30_2 1_555 1_555
W10_2 O26_2 1_555 1_555
W10_2 O37_2 1_555 1_555
O36_2 W18_2 1_555 1_555
O41_2 W14_2 1_555 1_555
W18_2 O56_2 1_555 1_555
W18_2 O61_2 1_555 1_555
W18_2 O65_2 1_555 1_555
P2_2 O11_2 1_555 1_555
W1_2 O7_2 1_555 1_555
W2_2 O9_2 1_555 1_555
W3_2 O8_2 1_555 1_555
W5_2 O7_2 1_555 1_555
W6_2 O10_2 1_555 1_555
W7_2 O13_2 1_555 1_555
W9_2 O20_2 1_555 1_555
O9_2 W1_2 1_555 1_555
O10_2 W2_2 1_555 1_555
O11_2 W3_2 1_555 1_555
O13_2 W5_2 1_555 1_555
O16_2 W3_2 1_555 1_555
O17_2 W2_2 1_555 1_555
O18_2 W1_2 1_555 1_555
O19_2 W7_2 1_555 1_555
O20_2 W7_2 1_555 1_555
O21_2 W3_2 1_555 1_555
O22_2 W5_2 1_555 1_555
O24_2 W2_2 1_555 1_555
O27_2 W5_2 1_555 1_555
O28_2 W6_2 1_555 1_555
O29_2 W3_2 1_555 1_555
O31_2 W7_2 1_555 1_555
O33_2 W9_2 1_555 1_555
O34_2 W6_2 1_555 1_555
O39_2 W2_2 1_555 1_555
O40_2 P2_2 1_555 1_555
O42_2 P2_2 1_555 1_555
O43_2 W6_2 1_555 1_555
W11_2 O44_2 1_555 1_555
W12_2 O46_2 1_555 1_555
W13_2 O11_2 1_555 1_555
W15_2 O22_2 1_555 1_555
W16_2 O34_2 1_555 1_555
W17_2 O19_2 1_555 1_555
O44_2 W15_2 1_555 1_555
O45_2 W13_2 1_555 1_555
O46_2 W11_2 1_555 1_555
O47_2 W12_2 1_555 1_555
O48_2 W15_2 1_555 1_555
O51_2 W12_2 1_555 1_555
O52_2 W11_2 1_555 1_555
O53_2 W9_2 1_555 1_555
O54_2 W13_2 1_555 1_555
O55_2 W12_2 1_555 1_555
O58_2 W15_2 1_555 1_555
O59_2 W9_2 1_555 1_555
O60_2 W13_2 1_555 1_555
O62_2 W17_2 1_555 1_555
O66_2 W12_2 1_555 1_555
O67_2 P2_2 1_555 1_555
O68_2 W16_2 1_555 1_555
W1_2 O14_2 1_555 1_555
W2_2 O42_2 1_555 1_555
W3_2 O39_2 1_555 1_555
W5_2 O14_2 1_555 1_555
W6_2 O21_2 1_555 1_555
W6_2 O40_2 1_555 1_555
W7_2 O17_2 1_555 1_555
W7_2 O42_2 1_555 1_555
W9_2 O28_2 1_555 1_555
W9_2 O40_2 1_555 1_555
O16_2 W13_2 1_555 1_555
O40_2 W16_2 1_555 1_555
W11_2 O49_2 1_555 1_555
W12_2 O67_2 1_555 1_555
W13_2 O66_2 1_555 1_555
W15_2 O49_2 1_555 1_555
W16_2 O47_2 1_555 1_555
W16_2 O54_2 1_555 1_555
W16_2 O59_2 1_555 1_555
W17_2 O48_2 1_555 1_555
W17_2 O51_2 1_555 1_555
W17_2 O53_2 1_555 1_555
W17_2 O67_2 1_555 1_555
C33 H27 1_555 1_555
C34 C33 1_555 1_555
H28 C34 1_555 1_555
C35 H29 1_555 1_555
C36 C35 1_555 1_555
H30 C36 1_555 1_555
C37 H31 1_555 1_555
C38 C37 1_555 1_555
H32 C38 1_555 1_555
C39 H33 1_555 1_555
C40 C39 1_555 1_555
H34 C40 1_555 1_555
C41 C33 1_555 1_555
C42 C37 1_555 1_555
N10 C38 1_555 1_555
N11 C34 1_555 1_555
C35 N11 1_555 1_555
C36 C41 1_555 1_555
C39 N10 1_555 1_555
C40 C42 1_555 1_555
C41 C42 1_555 1_555
N10 H37 1_555 1_555
N11 H38 1_555 1_555
C35_2 H29_2 1_555 1_555
C36_2 C35_2 1_555 1_555
H30_2 C36_2 1_555 1_555
C35_2 N11_2 1_555 1_555
N11_2 H38_2 1_555 1_555
C33_2 H27_2 1_555 1_555
C34_2 C33_2 1_555 1_555
H28_2 C34_2 1_555 1_555
C37_2 H31_2 1_555 1_555
C38_2 C37_2 1_555 1_555
H32_2 C38_2 1_555 1_555
C39_2 H33_2 1_555 1_555
C40_2 C39_2 1_555 1_555
H34_2 C40_2 1_555 1_555
C41_2 C33_2 1_555 1_555
C42_2 C37_2 1_555 1_555
N10_2 C38_2 1_555 1_555
C39_2 N10_2 1_555 1_555
C40_2 C42_2 1_555 1_555
C41_2 C42_2 1_555 1_555
N10_2 H37_2 1_555 1_555
C33_3 H27_3 1_555 1_555
C34_3 C33_3 1_555 1_555
H28_3 C34_3 1_555 1_555
C35_3 H29_3 1_555 1_555
C36_3 C35_3 1_555 1_555
H30_3 C36_3 1_555 1_555
C37_3 H31_3 1_555 1_555
C38_3 C37_3 1_555 1_555
H32_3 C38_3 1_555 1_555
C39_3 H33_3 1_555 1_555
C40_3 C39_3 1_555 1_555
H34_3 C40_3 1_555 1_555
C41_3 C33_3 1_555 1_555
C42_3 C37_3 1_555 1_555
N10_3 C38_3 1_555 1_555
N11_3 C34_3 1_555 1_555
C35_3 N11_3 1_555 1_555
C36_3 C41_3 1_555 1_555
C39_3 N10_3 1_555 1_555
C40_3 C42_3 1_555 1_555
C41_3 C42_3 1_555 1_555
N10_3 H37_3 1_555 1_555
N11_3 H38_3 1_555 1_555
C33_4 H27_4 1_555 1_555
C34_4 C33_4 1_555 1_555
H28_4 C34_4 1_555 1_555
C37_4 H31_4 1_555 1_555
C38_4 C37_4 1_555 1_555
H32_4 C38_4 1_555 1_555
C39_4 H33_4 1_555 1_555
C40_4 C39_4 1_555 1_555
H34_4 C40_4 1_555 1_555
C41_4 C33_4 1_555 1_555
C42_4 C37_4 1_555 1_555
N10_4 C38_4 1_555 1_555
C39_4 N10_4 1_555 1_555
C40_4 C42_4 1_555 1_555
C41_4 C42_4 1_555 1_555
N10_4 H37_4 1_555 1_555
C35_4 H29_4 1_555 1_555
C36_4 C35_4 1_555 1_555
H30_4 C36_4 1_555 1_555
C35_4 N11_4 1_555 1_555
N11_4 H38_4 1_555 1_555

#END
