
###############################################################################
#
# This file contains modified crystal structure data generated from the
# MOF subset of the Cambridge Structural Database (CSD) v543 
# hosted by the Cambridge Crystallographic Data Centre (CCDC).
#
# This work is licensed under the Creative Commons
# Attribution-NonCommercial-ShareAlike 4.0 International License.
# To view a copy of this license, visit
# http://creativecommons.org/licenses/by-nc-sa/4.0/
# or send a letter to
# Creative Commons, PO Box 1866, Mountain View, CA 94042, USA.
#
# CIF created using the CSD Python API on 29 September 2022
# The structure has been converted into the P1 space group
# The structure has a 3D framework
# The original CSD entry JOHDUI is in the tetragonal crystal system
# The framework has been calculated to contain at least 10.0% void space
# The void calculation uses a probe of radius 1.32A, grid spacing 0.4
#
###############################################################################

data_JOHDUI
_chemical_formula_moiety         '(C1088 H1232 Co32 N64 O96)n'
_symmetry_cell_setting           triclinic
_symmetry_space_group_name_H-M   'P 1'
_symmetry_Int_Tables_number      1
_space_group_name_Hall           'P 1'
loop_
_symmetry_equiv_pos_site_id
_symmetry_equiv_pos_as_xyz
1 x,y,z
_cell_length_a                   30.630(2)
_cell_length_b                   30.630(2)
_cell_length_c                   53.381(4)
_cell_angle_alpha                90
_cell_angle_beta                 90
_cell_angle_gamma                90
_cell_volume                     50081.9
loop_
_atom_site_label
_atom_site_type_symbol
_atom_site_fract_x
_atom_site_fract_y
_atom_site_fract_z
Co1 Co 0.57217(13) 0.2748(2) 0.37287(10)
Co2 Co 0.47312(16) 0.27691(19) 0.37696(11)
O1 O 0.5252(5) 0.2859(6) 0.4018(3)
O2 O 0.5209(7) 0.2877(6) 0.3507(4)
O3 O 0.4633(5) 0.3379(5) 0.3845(3)
O4 O 0.5831(6) 0.3395(7) 0.3680(5)
C1 C 0.6286(8) 0.2355(7) 0.4139(5)
H1 H 0.6096 0.2111 0.4122
O5 O 0.5563(6) 0.2119(6) 0.3759(4)
C2 C 0.5571(7) 0.3562(7) 0.3504(4)
C3 C 0.3525(12) 0.2770(12) 0.2643(6)
H2 H 0.3696 0.3013 0.2711
H3 H 0.3469 0.2821 0.2465
H4 H 0.3689 0.2497 0.2663
C4 C 0.3145(7) 0.2710(6) 0.3033(5)
C5 C 0.7760(10) 0.2579(7) 0.4060(5)
H5 H 0.8071 0.2586 0.4017
H6 H 0.7610 0.2820 0.3976
H7 H 0.7634 0.2301 0.4006
C6 C 0.8110(6) 0.2606(4) 0.4465(4)
C7 C 0.5235(7) 0.3264(8) 0.3413(4)
C8 C 0.8544(6) 0.2553(7) 0.4355(3)
C9 C 0.4962(7) 0.3411(9) 0.3212(4)
H8 H 0.4741 0.3224 0.3149
C10 C 0.6642(8) 0.2340(7) 0.4310(5)
H9 H 0.6675 0.2099 0.4420
C11 C 0.1751(7) 0.2889(6) 0.3310(4)
H10 H 0.1887 0.3168 0.3315
C12 C 0.1932(6) 0.2550(8) 0.3162(4)
C13 C 0.1887(11) 0.2709(11) 0.2607(6)
H11 H 0.1811 0.2419 0.2541
H12 H 0.1924 0.2913 0.2467
H13 H 0.1653 0.2812 0.2717
C14 C 0.3142(8) 0.2740(7) 0.2767(5)
C15 C 0.5909(10) 0.4278(13) 0.3805(5)
H14 H 0.6094 0.4057 0.3884
H15 H 0.5603 0.4224 0.3847
H16 H 0.5994 0.4568 0.3865
C16 C 0.6947(6) 0.2690(6) 0.4314(4)
C17 C 0.2352(7) 0.2611(9) 0.3029(6)
C18 C 0.8682(7) 0.2884(6) 0.4189(4)
H17 H 0.8534 0.3156 0.4184
C19 C 0.5348(9) 0.4115(9) 0.3199(5)
H18 H 0.5382 0.4397 0.3126
C20 C 0.4585(9) 0.4349(11) 0.3766(5)
H19 H 0.4848 0.4529 0.3749
H20 H 0.4334 0.4506 0.3697
H21 H 0.4626 0.4074 0.3675
C21 C 0.1349(8) 0.2052(7) 0.3292(4)
H22 H 0.1213 0.1773 0.3287
C22 C 0.8114(6) 0.2639(5) 0.4731(4)
C23 C 0.4766(8) 0.4016(10) 0.2906(5)
C24 C 0.4846(6) 0.3944(6) 0.4132(3)
C25 C 0.4898(7) 0.3547(6) 0.4022(4)
C26 C 0.5105(8) 0.4084(8) 0.4331(4)
H23 H 0.5058 0.4364 0.4402
C27 C 0.5228(7) 0.3265(7) 0.4114(4)
C28 C 0.1734(7) 0.2132(7) 0.3151(4)
H24 H 0.1858 0.1908 0.3050
C29 C 0.5721(14) 0.3936(18) 0.4638(6)
C30 C 0.3595(7) 0.3117(7) 0.3333(4)
H25 H 0.3403 0.3359 0.3316
C31 C 0.4500(12) 0.4671(8) 0.4196(6)
H26 H 0.4800 0.4749 0.4242
H27 H 0.4328 0.4625 0.4349
H28 H 0.4371 0.4908 0.4098
C32 C 0.5927(14) 0.4708(10) 0.3388(8)
H29 H 0.5981 0.4693 0.3207
H30 H 0.6141 0.4904 0.3465
H31 H 0.5632 0.4819 0.3418
C33 C 0.4463(12) 0.4375(11) 0.2987(7)
H32 H 0.4228 0.4252 0.3090
H33 H 0.4338 0.4517 0.2839
H34 H 0.4626 0.4590 0.3086
C34 C 0.8528(8) 0.2656(9) 0.4881(5)
H35 H 0.8457 0.2708 0.5058
H36 H 0.8712 0.2894 0.4819
H37 H 0.8684 0.2379 0.4865
C35 C 0.6393(9) 0.4045(11) 0.3455(5)
H38 H 0.6417 0.3969 0.3277
H39 H 0.6414 0.3779 0.3556
H40 H 0.6630 0.4245 0.3500
C36 C 0.3969(8) 0.3147(8) 0.3491(4)
H41 H 0.4030 0.3410 0.3579
C37 C 0.4442(12) 0.3606(10) 0.2793(7)
H42 H 0.4251 0.3499 0.2927
H43 H 0.4625 0.3367 0.2732
H44 H 0.4263 0.3719 0.2655
C38 C 0.2747(10) 0.2647(7) 0.3163(4)
C39 C 0.7709(8) 0.2625(4) 0.4333(3)
C40 C 0.2744(11) 0.2573(10) 0.3456(5)
H45 H 0.2953 0.2343 0.3499
H46 H 0.2451 0.2485 0.3509
H47 H 0.2826 0.2845 0.3541
C41 C 0.7308(6) 0.2676(4) 0.4464(4)
C42 C 0.2745(11) 0.2713(9) 0.2635(4)
C43 C 0.6913(8) 0.2768(9) 0.4861(5)
H48 H 0.6766 0.3029 0.4797
H49 H 0.6973 0.2804 0.5040
H50 H 0.6726 0.2513 0.4835
N1 N 0.4251(7) 0.2781(9) 0.3514(4)
C44 C 0.2344(8) 0.2677(7) 0.2765(6)
N2 N 0.1170(6) 0.2390(9) 0.3439(4)
C45 C 0.6881(7) 0.3068(6) 0.4165(5)
H51 H 0.7085 0.3302 0.4170
C46 C 0.5020(8) 0.3829(10) 0.3108(4)
C47 C 0.1364(7) 0.2805(7) 0.3450(3)
H52 H 0.1238 0.3029 0.3551
C48 C 0.5213(11) 0.1446(7) 0.3686(8)
H53 H 0.5425 0.1379 0.3554
H54 H 0.4921 0.1354 0.3632
H55 H 0.5293 0.1289 0.3840
O6 O 0.4876(7) 0.2135(7) 0.3731(5)
C49 C 0.5435(7) 0.3814(9) 0.4428(4)
C50 C 0.6095(16) 0.3669(17) 0.4741(10)
H56 H 0.5995 0.3371 0.4775
H57 H 0.6200 0.3802 0.4897
H58 H 0.6333 0.3661 0.4619
C51 C 0.588(2) 0.4369(16) 0.4534(10)
H59 H 0.5985 0.4552 0.4671
H60 H 0.5635 0.4517 0.4449
H61 H 0.6114 0.4317 0.4413
C52 C 0.5390(16) 0.397(2) 0.4850(10)
H62 H 0.5134 0.4132 0.4793
H63 H 0.5523 0.4119 0.4993
H64 H 0.5301 0.3674 0.4901
C53 C 0.9124(8) 0.2067(7) 0.4207(5)
H65 H 0.9273 0.1795 0.4213
N3 N 0.6216(5) 0.2737(8) 0.3995(3)
C54 C 0.4504(8) 0.4251(7) 0.4041(4)
C55 C 0.5971(8) 0.4257(7) 0.3501(6)
N4 N 0.9261(6) 0.2396(8) 0.4042(4)
C56 C 0.3511(6) 0.2726(7) 0.3203(3)
C57 C 0.6504(9) 0.3095(7) 0.4009(5)
H66 H 0.6448 0.3352 0.3915
C58 C 0.5626(7) 0.3981(8) 0.3398(4)
C59 C 0.9047(8) 0.2804(8) 0.4028(4)
H67 H 0.9143 0.3022 0.3914
C60 C 0.4073(11) 0.4010(12) 0.4064(7)
H68 H 0.3846 0.4169 0.3973
H69 H 0.3991 0.3988 0.4241
H70 H 0.4103 0.3716 0.3994
C61 C 0.7714(8) 0.2689(5) 0.4862(3)
C62 C 0.3791(7) 0.2361(6) 0.3225(4)
H71 H 0.3728 0.2099 0.3137
C63 C 0.4168(7) 0.2389(8) 0.3382(4)
H72 H 0.4361 0.2148 0.3398
C64 C 0.7312(6) 0.2708(5) 0.4730(4)
C65 C 0.8758(8) 0.2146(7) 0.4368(4)
H73 H 0.8660 0.1927 0.4481
C66 C 0.5486(8) 0.3409(9) 0.4314(4)
H74 H 0.5708 0.3220 0.4375
C67 C 0.5059(13) 0.4184(14) 0.2661(7)
H75 H 0.5138 0.4491 0.2684
H76 H 0.4886 0.4151 0.2508
H77 H 0.5325 0.4007 0.2648
C68 C 0.5213(10) 0.1937(10) 0.3737(12)
C69 C 0.7355(7) 0.1286(8) 0.5861(5)
H78 H 0.7111 0.1096 0.5878
C70 C 0.7579(7) 0.2760(10) 0.5940(5)
H79 H 0.7586 0.3071 0.5983
H80 H 0.7820 0.2610 0.6024
H81 H 0.7301 0.2634 0.5994
C71 C 0.7606(4) 0.3110(6) 0.5535(4)
C72 C 0.7553(7) 0.3544(6) 0.5645(3)
C73 C 0.7340(7) 0.1642(8) 0.5690(5)
H82 H 0.7099 0.1675 0.5580
C74 C 0.7690(6) 0.1947(6) 0.5686(4)
C75 C 0.7884(6) 0.3682(7) 0.5811(4)
H83 H 0.8156 0.3534 0.5816
C76 C 0.7639(5) 0.3114(6) 0.5269(4)
C77 C 0.7656(9) 0.3528(8) 0.5119(5)
H84 H 0.7708 0.3457 0.4942
H85 H 0.7894 0.3712 0.5181
H86 H 0.7379 0.3684 0.5135
C78 C 0.7625(4) 0.2709(8) 0.5667(3)
C79 C 0.7676(4) 0.2308(6) 0.5536(4)
C80 C 0.7768(9) 0.1913(8) 0.5139(5)
H87 H 0.8029 0.1766 0.5203
H88 H 0.7804 0.1973 0.4960
H89 H 0.7513 0.1726 0.5165
C81 C 0.8068(6) 0.1881(7) 0.5835(5)
H90 H 0.8302 0.2085 0.5830
C82 C 0.7067(7) 0.4124(8) 0.5793(5)
H91 H 0.6795 0.4273 0.5787
N5 N 0.7737(8) 0.1216(5) 0.6005(3)
N6 N 0.7396(8) 0.4261(6) 0.5958(4)
C83 C 0.8095(7) 0.1504(9) 0.5991(5)
H92 H 0.8352 0.1448 0.6085
C84 C 0.7804(8) 0.4047(8) 0.5972(4)
H93 H 0.8022 0.4143 0.6086
C85 C 0.7689(5) 0.2714(8) 0.5138(3)
C86 C 0.7708(5) 0.2312(6) 0.5270(4)
C87 C 0.7146(7) 0.3758(8) 0.5632(4)
H94 H 0.6927 0.3660 0.5519
C88 C 0.2770(12) 0.3525(12) 0.2357(6)
H95 H 0.3013 0.3696 0.2289
H96 H 0.2821 0.3469 0.2535
H97 H 0.2497 0.3689 0.2337
C89 C 0.2710(6) 0.3145(7) 0.1967(5)
C90 C 0.2889(6) 0.1751(7) 0.1690(4)
H98 H 0.3168 0.1887 0.1685
C91 C 0.2550(8) 0.1932(6) 0.1838(4)
C92 C 0.2709(11) 0.1887(11) 0.2393(6)
H99 H 0.2419 0.1811 0.2459
H100 H 0.2913 0.1924 0.2533
H101 H 0.2812 0.1653 0.2283
C93 C 0.2740(7) 0.3142(8) 0.2233(5)
C94 C 0.2611(9) 0.2352(7) 0.1971(6)
C95 C 0.2052(7) 0.1349(8) 0.1708(4)
H102 H 0.1773 0.1213 0.1713
C96 C 0.2132(7) 0.1734(7) 0.1849(4)
H103 H 0.1908 0.1858 0.1950
C97 C 0.3117(7) 0.3595(7) 0.1667(4)
H104 H 0.3359 0.3403 0.1684
C98 C 0.3147(8) 0.3969(8) 0.1509(4)
H105 H 0.3410 0.4030 0.1421
C99 C 0.2647(7) 0.2747(10) 0.1837(4)
C100 C 0.2573(10) 0.2744(11) 0.1544(5)
H106 H 0.2343 0.2953 0.1501
H107 H 0.2485 0.2451 0.1491
H108 H 0.2845 0.2826 0.1459
C101 C 0.2713(9) 0.2745(11) 0.2365(4)
N7 N 0.2781(9) 0.4251(7) 0.1486(4)
C102 C 0.2677(7) 0.2344(8) 0.2235(6)
N8 N 0.2390(9) 0.1170(6) 0.1561(4)
C103 C 0.2805(7) 0.1364(7) 0.1550(3)
H109 H 0.3029 0.1238 0.1449
C104 C 0.2726(7) 0.3511(6) 0.1797(3)
C105 C 0.2361(6) 0.3791(7) 0.1775(4)
H110 H 0.2099 0.3728 0.1863
C106 C 0.2389(8) 0.4168(7) 0.1618(4)
H111 H 0.2148 0.4361 0.1602
Co3 Co 0.07217(13) 0.2252(2) 0.37287(10)
O7 O 0.0252(5) 0.2141(6) 0.4018(3)
O8 O 0.0209(7) 0.2123(6) 0.3507(4)
O10 O 0.0831(6) 0.1605(7) 0.3680(5)
O11 O 0.0563(6) 0.2881(6) 0.3759(4)
C107 C 0.0571(7) 0.1438(7) 0.3504(4)
C108 C 0.0235(7) 0.1736(8) 0.3413(4)
C110 C 0.0909(10) 0.0722(13) 0.3805(5)
H113 H 0.1094 0.0943 0.3884
H114 H 0.0603 0.0776 0.3847
H115 H 0.0994 0.0432 0.3865
C111 C 0.0348(9) 0.0885(9) 0.3199(5)
H116 H 0.0382 0.0603 0.3126
C116 C 0.0105(8) 0.0916(8) 0.4331(4)
H120 H 0.0058 0.0636 0.4402
C117 C 0.0228(7) 0.1735(7) 0.4114(4)
C118 C 0.0721(14) 0.1064(18) 0.4638(6)
C120 C 0.0927(14) 0.0292(10) 0.3388(8)
H124 H 0.0981 0.0307 0.3207
H125 H 0.1141 0.0096 0.3465
H126 H 0.0632 0.0181 0.3418
C122 C 0.1393(9) 0.0955(11) 0.3455(5)
H130 H 0.1417 0.1031 0.3277
H131 H 0.1414 0.1221 0.3556
H132 H 0.1630 0.0755 0.3500
C124 C 0.0020(8) 0.1171(10) 0.3108(4)
C125 C 0.0213(11) 0.3554(7) 0.3686(8)
H136 H 0.0425 0.3621 0.3554
H138 H 0.0293 0.3711 0.3840
C126 C 0.0435(7) 0.1186(9) 0.4428(4)
C127 C 0.1095(16) 0.1331(17) 0.4741(10)
H139 H 0.0995 0.1629 0.4775
H140 H 0.1200 0.1198 0.4897
H141 H 0.1333 0.1339 0.4619
C128 C 0.088(2) 0.0631(16) 0.4534(10)
H142 H 0.0985 0.0448 0.4671
H143 H 0.0635 0.0483 0.4449
H144 H 0.1114 0.0683 0.4413
C129 C 0.0390(16) 0.103(2) 0.4850(10)
H145 H 0.0134 0.0868 0.4793
H146 H 0.0523 0.0881 0.4993
H147 H 0.0301 0.1326 0.4901
C131 C 0.0971(8) 0.0743(7) 0.3501(6)
C132 C 0.0626(7) 0.1019(8) 0.3398(4)
C134 C 0.0486(8) 0.1591(9) 0.4314(4)
H151 H 0.0708 0.1780 0.4375
C135 C 0.0059(13) 0.0816(14) 0.2661(7)
H152 H 0.0138 0.0509 0.2684
H154 H 0.0325 0.0993 0.2648
C136 C 0.0213(10) 0.3063(10) 0.3737(12)
Co5 Co 0.2252(2) 0.07217(13) 0.12713(10)
Co6 Co 0.7748(2) 0.07217(13) 0.62713(10)
Co7 Co 0.72309(19) 0.47312(16) 0.62304(11)
Co8 Co 0.27691(19) 0.47312(16) 0.12304(11)
Co9 Co 0.97312(16) 0.22309(19) 0.37696(11)
N10 N 0.6170(6) 0.2610(9) 0.3439(4)
N11 N 0.1216(5) 0.2263(8) 0.3995(3)
N13 N 0.4261(6) 0.2604(8) 0.4042(4)
O9 O 0.9633(5) 0.1621(5) 0.3845(3)
C109 C 0.9962(7) 0.1589(9) 0.3212(4)
H112 H 0.9741 0.1776 0.3149
C112 C 0.9585(9) 0.0651(11) 0.3766(5)
H117 H 0.9848 0.0471 0.3749
H118 H 0.9334 0.0494 0.3697
H119 H 0.9626 0.0926 0.3675
C113 C 0.9766(8) 0.0984(10) 0.2906(5)
C114 C 0.9846(6) 0.1056(6) 0.4132(3)
C115 C 0.9898(7) 0.1453(6) 0.4022(4)
C119 C 0.9500(12) 0.0329(8) 0.4196(6)
H121 H 0.9800 0.0251 0.4242
H122 H 0.9328 0.0375 0.4349
H123 H 0.9371 0.0092 0.4098
C121 C 0.9463(12) 0.0625(11) 0.2987(7)
H127 H 0.9228 0.0748 0.3090
H128 H 0.9338 0.0483 0.2839
H129 H 0.9626 0.0410 0.3086
C123 C 0.9442(12) 0.1394(10) 0.2793(7)
H133 H 0.9251 0.1501 0.2927
H134 H 0.9625 0.1633 0.2732
H135 H 0.9263 0.1281 0.2655
H137 H 0.9921 0.3646 0.3632
O12 O 0.9876(7) 0.2865(7) 0.3731(5)
C130 C 0.9504(8) 0.0749(7) 0.4041(4)
C133 C 0.9073(11) 0.0990(12) 0.4064(7)
H148 H 0.8846 0.0831 0.3973
H149 H 0.8991 0.1012 0.4241
H150 H 0.9103 0.1284 0.3994
H153 H 0.9886 0.0849 0.2508
N9 N 0.9251(7) 0.2219(9) 0.3514(4)
Co4 Co 0.02688(16) 0.77691(19) 0.37696(11)
O9_2 O 0.0367(5) 0.8379(5) 0.3845(3)
C109_2 C 0.0038(7) 0.8411(9) 0.3212(4)
H112_2 H 0.0259 0.8224 0.3149
C112_2 C 0.0415(9) 0.9349(11) 0.3766(5)
H117_2 H 0.0152 0.9529 0.3749
H118_2 H 0.0666 0.9506 0.3697
H119_2 H 0.0374 0.9074 0.3675
C113_2 C 0.0234(8) 0.9016(10) 0.2906(5)
C114_2 C 0.0154(6) 0.8944(6) 0.4132(3)
C115_2 C 0.0102(7) 0.8547(6) 0.4022(4)
C119_2 C 0.0500(12) 0.9671(8) 0.4196(6)
H121_2 H 0.0200 0.9749 0.4242
H122_2 H 0.0672 0.9625 0.4349
H123_2 H 0.0629 0.9908 0.4098
C121_2 C 0.0537(12) 0.9375(11) 0.2987(7)
H127_2 H 0.0772 0.9252 0.3090
H128_2 H 0.0662 0.9517 0.2839
H129_2 H 0.0374 0.9590 0.3086
C123_2 C 0.0558(12) 0.8606(10) 0.2793(7)
H133_2 H 0.0749 0.8499 0.2927
H134_2 H 0.0375 0.8367 0.2732
H135_2 H 0.0737 0.8719 0.2655
H137_2 H 0.0079 0.6354 0.3632
O12_2 O 0.0124(7) 0.7135(7) 0.3731(5)
C130_2 C 0.0496(8) 0.9251(7) 0.4041(4)
C133_2 C 0.0927(11) 0.9010(12) 0.4064(7)
H148_2 H 0.1154 0.9169 0.3973
H149_2 H 0.1009 0.8988 0.4241
H150_2 H 0.0897 0.8716 0.3994
H153_2 H 0.0114 0.9151 0.2508
N9_2 N 0.0749(7) 0.7781(9) 0.3514(4)
N12 N 0.0739(6) 0.7604(8) 0.4042(4)
Co1_2 Co 0.42783(13) 0.7252(2) 0.37287(10)
Co2_2 Co 0.52688(16) 0.72309(19) 0.37696(11)
O1_2 O 0.4748(5) 0.7141(6) 0.4018(3)
O2_2 O 0.4791(7) 0.7123(6) 0.3507(4)
O3_2 O 0.5367(5) 0.6621(5) 0.3845(3)
O4_2 O 0.4169(6) 0.6605(7) 0.3680(5)
C1_2 C 0.3714(8) 0.7645(7) 0.4139(5)
H1_2 H 0.3904 0.7889 0.4122
O5_2 O 0.4437(6) 0.7881(6) 0.3759(4)
C2_2 C 0.4429(7) 0.6438(7) 0.3504(4)
C3_2 C 0.6475(12) 0.7230(12) 0.2643(6)
H2_2 H 0.6304 0.6987 0.2711
H3_2 H 0.6531 0.7179 0.2465
H4_2 H 0.6311 0.7503 0.2663
C4_2 C 0.6855(7) 0.7290(6) 0.3033(5)
C5_2 C 0.2240(10) 0.7421(7) 0.4060(5)
H5_2 H 0.1929 0.7414 0.4017
H6_2 H 0.2390 0.7180 0.3976
H7_2 H 0.2366 0.7699 0.4006
C6_2 C 0.1890(6) 0.7394(4) 0.4465(4)
C7_2 C 0.4765(7) 0.6736(8) 0.3413(4)
C8_2 C 0.1456(6) 0.7447(7) 0.4355(3)
C9_2 C 0.5038(7) 0.6589(9) 0.3212(4)
H8_2 H 0.5259 0.6776 0.3149
C10_2 C 0.3358(8) 0.7660(7) 0.4310(5)
H9_2 H 0.3325 0.7901 0.4420
C11_2 C 0.8249(7) 0.7111(6) 0.3310(4)
H10_2 H 0.8113 0.6832 0.3315
C12_2 C 0.8068(6) 0.7450(8) 0.3162(4)
C13_2 C 0.8113(11) 0.7291(11) 0.2607(6)
H11_2 H 0.8189 0.7581 0.2541
H12_2 H 0.8076 0.7087 0.2467
H13_2 H 0.8347 0.7188 0.2717
C14_2 C 0.6858(8) 0.7260(7) 0.2767(5)
C15_2 C 0.4091(10) 0.5722(13) 0.3805(5)
H14_2 H 0.3906 0.5943 0.3884
H15_2 H 0.4397 0.5776 0.3847
H16_2 H 0.4006 0.5432 0.3865
C16_2 C 0.3053(6) 0.7310(6) 0.4314(4)
C17_2 C 0.7648(7) 0.7389(9) 0.3029(6)
C18_2 C 0.1318(7) 0.7116(6) 0.4189(4)
H17_2 H 0.1466 0.6844 0.4184
C19_2 C 0.4652(9) 0.5885(9) 0.3199(5)
H18_2 H 0.4618 0.5603 0.3126
C20_2 C 0.5415(9) 0.5651(11) 0.3766(5)
H19_2 H 0.5152 0.5471 0.3749
H20_2 H 0.5666 0.5494 0.3697
H21_2 H 0.5374 0.5926 0.3675
C21_2 C 0.8651(8) 0.7948(7) 0.3292(4)
H22_2 H 0.8787 0.8227 0.3287
C22_2 C 0.1886(6) 0.7361(5) 0.4731(4)
C23_2 C 0.5234(8) 0.5984(10) 0.2906(5)
C24_2 C 0.5154(6) 0.6056(6) 0.4132(3)
C25_2 C 0.5102(7) 0.6453(6) 0.4022(4)
C26_2 C 0.4895(8) 0.5916(8) 0.4331(4)
H23_2 H 0.4942 0.5636 0.4402
C27_2 C 0.4772(7) 0.6735(7) 0.4114(4)
C28_2 C 0.8266(7) 0.7868(7) 0.3151(4)
H24_2 H 0.8142 0.8092 0.3050
C29_2 C 0.4279(14) 0.6064(18) 0.4638(6)
C30_2 C 0.6405(7) 0.6883(7) 0.3333(4)
H25_2 H 0.6597 0.6641 0.3316
C31_2 C 0.5500(12) 0.5329(8) 0.4196(6)
H26_2 H 0.5200 0.5251 0.4242
H27_2 H 0.5672 0.5375 0.4349
H28_2 H 0.5629 0.5092 0.4098
C32_2 C 0.4073(14) 0.5292(10) 0.3388(8)
H29_2 H 0.4019 0.5307 0.3207
H30_2 H 0.3859 0.5096 0.3465
H31_2 H 0.4368 0.5181 0.3418
C33_2 C 0.5537(12) 0.5625(11) 0.2987(7)
H32_2 H 0.5772 0.5748 0.3090
H33_2 H 0.5662 0.5483 0.2839
H34_2 H 0.5374 0.5410 0.3086
C34_2 C 0.1472(8) 0.7344(9) 0.4881(5)
H35_2 H 0.1543 0.7292 0.5058
H36_2 H 0.1288 0.7106 0.4819
H37_2 H 0.1316 0.7621 0.4865
C35_2 C 0.3607(9) 0.5955(11) 0.3455(5)
H38_2 H 0.3583 0.6031 0.3277
H39_2 H 0.3586 0.6221 0.3556
H40_2 H 0.3370 0.5755 0.3500
C36_2 C 0.6031(8) 0.6853(8) 0.3491(4)
H41_2 H 0.5970 0.6590 0.3579
C37_2 C 0.5558(12) 0.6394(10) 0.2793(7)
H42_2 H 0.5749 0.6501 0.2927
H43_2 H 0.5375 0.6633 0.2732
H44_2 H 0.5737 0.6281 0.2655
C38_2 C 0.7253(10) 0.7353(7) 0.3163(4)
C39_2 C 0.2291(8) 0.7375(4) 0.4333(3)
C40_2 C 0.7256(11) 0.7427(10) 0.3456(5)
H45_2 H 0.7047 0.7657 0.3499
H46_2 H 0.7549 0.7515 0.3509
H47_2 H 0.7174 0.7155 0.3541
C41_2 C 0.2692(6) 0.7324(4) 0.4464(4)
C42_2 C 0.7255(11) 0.7287(9) 0.2635(4)
C43_2 C 0.3087(8) 0.7232(9) 0.4861(5)
H48_2 H 0.3234 0.6971 0.4797
H49_2 H 0.3027 0.7196 0.5040
H50_2 H 0.3274 0.7487 0.4835
N1_2 N 0.5749(7) 0.7219(9) 0.3514(4)
C44_2 C 0.7656(8) 0.7323(7) 0.2765(6)
N2_2 N 0.8830(6) 0.7610(9) 0.3439(4)
C45_2 C 0.3119(7) 0.6932(6) 0.4165(5)
H51_2 H 0.2915 0.6698 0.4170
C46_2 C 0.4980(8) 0.6171(10) 0.3108(4)
C47_2 C 0.8636(7) 0.7195(7) 0.3450(3)
H52_2 H 0.8762 0.6971 0.3551
C48_2 C 0.4787(11) 0.8554(7) 0.3686(8)
H53_2 H 0.4575 0.8621 0.3554
H54_2 H 0.5079 0.8646 0.3632
H55_2 H 0.4707 0.8711 0.3840
O6_2 O 0.5124(7) 0.7865(7) 0.3731(5)
C49_2 C 0.4565(7) 0.6186(9) 0.4428(4)
C50_2 C 0.3905(16) 0.6331(17) 0.4741(10)
H56_2 H 0.4005 0.6629 0.4775
H57_2 H 0.3800 0.6198 0.4897
H58_2 H 0.3667 0.6339 0.4619
C51_2 C 0.412(2) 0.5631(16) 0.4534(10)
H59_2 H 0.4015 0.5448 0.4671
H60_2 H 0.4365 0.5483 0.4449
H61_2 H 0.3886 0.5683 0.4413
C52_2 C 0.4610(16) 0.603(2) 0.4850(10)
H62_2 H 0.4866 0.5868 0.4793
H63_2 H 0.4477 0.5881 0.4993
H64_2 H 0.4699 0.6326 0.4901
C53_2 C 0.0876(8) 0.7933(7) 0.4207(5)
H65_2 H 0.0727 0.8205 0.4213
N3_2 N 0.3784(5) 0.7263(8) 0.3995(3)
C54_2 C 0.5496(8) 0.5749(7) 0.4041(4)
C55_2 C 0.4029(8) 0.5743(7) 0.3501(6)
C56_2 C 0.6489(6) 0.7274(7) 0.3203(3)
C57_2 C 0.3496(9) 0.6905(7) 0.4009(5)
H66_2 H 0.3552 0.6648 0.3915
C58_2 C 0.4374(7) 0.6019(8) 0.3398(4)
C59_2 C 0.0953(8) 0.7196(8) 0.4028(4)
H67_2 H 0.0857 0.6978 0.3914
C60_2 C 0.5927(11) 0.5990(12) 0.4064(7)
H68_2 H 0.6154 0.5831 0.3973
H69_2 H 0.6009 0.6012 0.4241
H70_2 H 0.5897 0.6284 0.3994
C61_2 C 0.2286(8) 0.7311(5) 0.4862(3)
C62_2 C 0.6209(7) 0.7639(6) 0.3225(4)
H71_2 H 0.6272 0.7901 0.3137
C63_2 C 0.5832(7) 0.7611(8) 0.3382(4)
H72_2 H 0.5639 0.7852 0.3398
C64_2 C 0.2688(6) 0.7292(5) 0.4730(4)
C65_2 C 0.1242(8) 0.7854(7) 0.4368(4)
H73_2 H 0.1340 0.8073 0.4481
C66_2 C 0.4514(8) 0.6591(9) 0.4314(4)
H74_2 H 0.4292 0.6780 0.4375
C67_2 C 0.4941(13) 0.5816(14) 0.2661(7)
H75_2 H 0.4862 0.5509 0.2684
H76_2 H 0.5114 0.5849 0.2508
H77_2 H 0.4675 0.5993 0.2648
C68_2 C 0.4787(10) 0.8063(10) 0.3737(12)
C69_2 C 0.2645(7) 0.8714(8) 0.5861(5)
H78_2 H 0.2889 0.8904 0.5878
C70_2 C 0.2421(7) 0.7240(10) 0.5940(5)
H79_2 H 0.2414 0.6929 0.5983
H80_2 H 0.2180 0.7390 0.6024
H81_2 H 0.2699 0.7366 0.5994
C71_2 C 0.2394(4) 0.6890(6) 0.5535(4)
C72_2 C 0.2447(7) 0.6456(6) 0.5645(3)
C73_2 C 0.2660(7) 0.8358(8) 0.5690(5)
H82_2 H 0.2901 0.8325 0.5580
C74_2 C 0.2310(6) 0.8053(6) 0.5686(4)
C75_2 C 0.2116(6) 0.6318(7) 0.5811(4)
H83_2 H 0.1844 0.6466 0.5816
C76_2 C 0.2361(5) 0.6886(6) 0.5269(4)
C77_2 C 0.2344(9) 0.6472(8) 0.5119(5)
H84_2 H 0.2292 0.6543 0.4942
H85_2 H 0.2106 0.6288 0.5181
H86_2 H 0.2621 0.6316 0.5135
C78_2 C 0.2375(4) 0.7291(8) 0.5667(3)
C79_2 C 0.2324(4) 0.7692(6) 0.5536(4)
C80_2 C 0.2232(9) 0.8087(8) 0.5139(5)
H87_2 H 0.1971 0.8234 0.5203
H88_2 H 0.2196 0.8027 0.4960
H89_2 H 0.2487 0.8274 0.5165
C81_2 C 0.1932(6) 0.8119(7) 0.5835(5)
H90_2 H 0.1698 0.7915 0.5830
C82_2 C 0.2933(7) 0.5876(8) 0.5793(5)
H91_2 H 0.3205 0.5727 0.5787
N5_2 N 0.2263(8) 0.8784(5) 0.6005(3)
N6_2 N 0.2604(8) 0.5739(6) 0.5958(4)
C83_2 C 0.1905(7) 0.8496(9) 0.5991(5)
H92_2 H 0.1648 0.8552 0.6085
C84_2 C 0.2196(8) 0.5953(8) 0.5972(4)
H93_2 H 0.1978 0.5857 0.6086
C85_2 C 0.2311(5) 0.7286(8) 0.5138(3)
C86_2 C 0.2292(5) 0.7688(6) 0.5270(4)
C87_2 C 0.2854(7) 0.6242(8) 0.5632(4)
H94_2 H 0.3073 0.6340 0.5519
C88_2 C 0.7230(12) 0.6475(12) 0.2357(6)
H95_2 H 0.6987 0.6304 0.2289
H96_2 H 0.7179 0.6531 0.2535
H97_2 H 0.7503 0.6311 0.2337
C89_2 C 0.7290(6) 0.6855(7) 0.1967(5)
C90_2 C 0.7111(6) 0.8249(7) 0.1690(4)
H98_2 H 0.6832 0.8113 0.1685
C91_2 C 0.7450(8) 0.8068(6) 0.1838(4)
C92_2 C 0.7291(11) 0.8113(11) 0.2393(6)
H99_2 H 0.7581 0.8189 0.2459
H100_2 H 0.7087 0.8076 0.2533
H101_2 H 0.7188 0.8347 0.2283
C93_2 C 0.7260(7) 0.6858(8) 0.2233(5)
C94_2 C 0.7389(9) 0.7648(7) 0.1971(6)
C95_2 C 0.7948(7) 0.8651(8) 0.1708(4)
H102_2 H 0.8227 0.8787 0.1713
C96_2 C 0.7868(7) 0.8266(7) 0.1849(4)
H103_2 H 0.8092 0.8142 0.1950
C97_2 C 0.6883(7) 0.6405(7) 0.1667(4)
H104_2 H 0.6641 0.6597 0.1684
C98_2 C 0.6853(8) 0.6031(8) 0.1509(4)
H105_2 H 0.6590 0.5970 0.1421
C99_2 C 0.7353(7) 0.7253(10) 0.1837(4)
C100_2 C 0.7427(10) 0.7256(11) 0.1544(5)
H106_2 H 0.7657 0.7047 0.1501
H107_2 H 0.7515 0.7549 0.1491
H108_2 H 0.7155 0.7174 0.1459
C101_2 C 0.7287(9) 0.7255(11) 0.2365(4)
N7_2 N 0.7219(9) 0.5749(7) 0.1486(4)
C102_2 C 0.7323(7) 0.7656(8) 0.2235(6)
N8_2 N 0.7610(9) 0.8830(6) 0.1561(4)
C103_2 C 0.7195(7) 0.8636(7) 0.1550(3)
H109_2 H 0.6971 0.8762 0.1449
C104_2 C 0.7274(7) 0.6489(6) 0.1797(3)
C105_2 C 0.7639(6) 0.6209(7) 0.1775(4)
H110_2 H 0.7901 0.6272 0.1863
C106_2 C 0.7611(8) 0.5832(7) 0.1618(4)
H111_2 H 0.7852 0.5639 0.1602
Co3_2 Co 0.92783(13) 0.7748(2) 0.37287(10)
O7_2 O 0.9748(5) 0.7859(6) 0.4018(3)
O8_2 O 0.9791(7) 0.7877(6) 0.3507(4)
O10_2 O 0.9169(6) 0.8395(7) 0.3680(5)
O11_2 O 0.9437(6) 0.7119(6) 0.3759(4)
C107_2 C 0.9429(7) 0.8562(7) 0.3504(4)
C108_2 C 0.9765(7) 0.8264(8) 0.3413(4)
C110_2 C 0.9091(10) 0.9278(13) 0.3805(5)
H113_2 H 0.8906 0.9057 0.3884
H114_2 H 0.9397 0.9224 0.3847
H115_2 H 0.9006 0.9568 0.3865
C111_2 C 0.9652(9) 0.9115(9) 0.3199(5)
H116_2 H 0.9618 0.9397 0.3126
C116_2 C 0.9895(8) 0.9084(8) 0.4331(4)
H120_2 H 0.9942 0.9364 0.4402
C117_2 C 0.9772(7) 0.8265(7) 0.4114(4)
C118_2 C 0.9279(14) 0.8936(18) 0.4638(6)
C120_2 C 0.9073(14) 0.9708(10) 0.3388(8)
H124_2 H 0.9019 0.9693 0.3207
H125_2 H 0.8859 0.9904 0.3465
H126_2 H 0.9368 0.9819 0.3418
C122_2 C 0.8607(9) 0.9045(11) 0.3455(5)
H130_2 H 0.8583 0.8969 0.3277
H131_2 H 0.8586 0.8779 0.3556
H132_2 H 0.8370 0.9245 0.3500
C124_2 C 0.9980(8) 0.8829(10) 0.3108(4)
C125_2 C 0.9787(11) 0.6446(7) 0.3686(8)
H136_2 H 0.9575 0.6379 0.3554
H138_2 H 0.9707 0.6289 0.3840
C126_2 C 0.9565(7) 0.8814(9) 0.4428(4)
C127_2 C 0.8905(16) 0.8669(17) 0.4741(10)
H139_2 H 0.9005 0.8371 0.4775
H140_2 H 0.8800 0.8802 0.4897
H141_2 H 0.8667 0.8661 0.4619
C128_2 C 0.912(2) 0.9369(16) 0.4534(10)
H142_2 H 0.9015 0.9552 0.4671
H143_2 H 0.9365 0.9517 0.4449
H144_2 H 0.8886 0.9317 0.4413
C129_2 C 0.9610(16) 0.897(2) 0.4850(10)
H145_2 H 0.9866 0.9132 0.4793
H146_2 H 0.9477 0.9119 0.4993
H147_2 H 0.9699 0.8674 0.4901
C131_2 C 0.9029(8) 0.9257(7) 0.3501(6)
C132_2 C 0.9374(7) 0.8981(8) 0.3398(4)
C134_2 C 0.9514(8) 0.8409(9) 0.4314(4)
H151_2 H 0.9292 0.8220 0.4375
C135_2 C 0.9941(13) 0.9184(14) 0.2661(7)
H152_2 H 0.9862 0.9491 0.2684
H154_2 H 0.9675 0.9007 0.2648
C136_2 C 0.9787(10) 0.6937(10) 0.3737(12)
Co5_2 Co 0.7748(2) 0.92783(13) 0.12713(10)
Co6_2 Co 0.2252(2) 0.92783(13) 0.62713(10)
Co7_2 Co 0.27691(19) 0.52688(16) 0.62304(11)
Co8_2 Co 0.72309(19) 0.52688(16) 0.12304(11)
N10_2 N 0.3830(6) 0.7390(9) 0.3439(4)
N11_2 N 0.8784(5) 0.7737(8) 0.3995(3)
N13_2 N 0.5739(6) 0.7396(8) 0.4042(4)
Co4_2 Co 0.22309(19) 0.02688(16) 0.62304(11)
O9_3 O 0.1621(5) 0.0367(5) 0.6155(3)
C109_3 C 0.1589(9) 0.0038(7) 0.6788(4)
H112_3 H 0.1776 0.0259 0.6851
C112_3 C 0.0651(11) 0.0415(9) 0.6234(5)
H117_3 H 0.0471 0.0152 0.6251
H118_3 H 0.0494 0.0666 0.6303
H119_3 H 0.0926 0.0374 0.6325
C113_3 C 0.0984(10) 0.0234(8) 0.7094(5)
C114_3 C 0.1056(6) 0.0154(6) 0.5868(3)
C115_3 C 0.1453(6) 0.0102(7) 0.5978(4)
C119_3 C 0.0329(8) 0.0500(12) 0.5804(6)
H121_3 H 0.0251 0.0200 0.5758
H122_3 H 0.0375 0.0672 0.5651
H123_3 H 0.0092 0.0629 0.5902
C121_3 C 0.0625(11) 0.0537(12) 0.7013(7)
H127_3 H 0.0748 0.0772 0.6910
H128_3 H 0.0483 0.0662 0.7161
H129_3 H 0.0410 0.0374 0.6914
C123_3 C 0.1394(10) 0.0558(12) 0.7207(7)
H133_3 H 0.1501 0.0749 0.7073
H134_3 H 0.1633 0.0375 0.7268
H135_3 H 0.1281 0.0737 0.7345
H137_3 H 0.3646 0.0079 0.6368
O12_3 O 0.2865(7) 0.0124(7) 0.6269(5)
C130_3 C 0.0749(7) 0.0496(8) 0.5959(4)
C133_3 C 0.0990(12) 0.0927(11) 0.5936(7)
H148_3 H 0.0831 0.1154 0.6027
H149_3 H 0.1012 0.1009 0.5759
H150_3 H 0.1284 0.0897 0.6006
H153_3 H 0.0849 0.0114 0.7492
N9_3 N 0.2219(9) 0.0749(7) 0.6486(4)
N12_2 N 0.2396(8) 0.0739(6) 0.5958(4)
Co1_3 Co 0.2748(2) 0.42783(13) 0.62713(10)
O1_3 O 0.2859(6) 0.4748(5) 0.5982(3)
O2_3 O 0.2877(6) 0.4791(7) 0.6493(4)
O3_3 O 0.3379(5) 0.5367(5) 0.6155(3)
O4_3 O 0.3395(7) 0.4169(6) 0.6320(5)
C1_3 C 0.2355(7) 0.3714(8) 0.5861(5)
H1_3 H 0.2111 0.3904 0.5878
O5_3 O 0.2119(6) 0.4437(6) 0.6241(4)
C2_3 C 0.3562(7) 0.4429(7) 0.6496(4)
C3_3 C 0.2770(12) 0.6475(12) 0.7357(6)
H2_3 H 0.3013 0.6304 0.7289
H3_3 H 0.2821 0.6531 0.7535
H4_3 H 0.2497 0.6311 0.7337
C4_3 C 0.2710(6) 0.6855(7) 0.6967(5)
C5_3 C 0.2579(7) 0.2240(10) 0.5940(5)
H5_3 H 0.2586 0.1929 0.5983
H6_3 H 0.2820 0.2390 0.6024
H7_3 H 0.2301 0.2366 0.5994
C6_3 C 0.2606(4) 0.1890(6) 0.5535(4)
C7_3 C 0.3264(8) 0.4765(7) 0.6587(4)
C8_3 C 0.2553(7) 0.1456(6) 0.5645(3)
C9_3 C 0.3411(9) 0.5038(7) 0.6788(4)
H8_3 H 0.3224 0.5259 0.6851
C10_3 C 0.2340(7) 0.3358(8) 0.5690(5)
H9_3 H 0.2099 0.3325 0.5580
C11_3 C 0.2889(6) 0.8249(7) 0.6690(4)
H10_3 H 0.3168 0.8113 0.6685
C12_3 C 0.2550(8) 0.8068(6) 0.6838(4)
C13_3 C 0.2709(11) 0.8113(11) 0.7393(6)
H11_3 H 0.2419 0.8189 0.7459
H12_3 H 0.2913 0.8076 0.7533
H13_3 H 0.2812 0.8347 0.7283
C14_3 C 0.2740(7) 0.6858(8) 0.7233(5)
C15_3 C 0.4278(13) 0.4091(10) 0.6195(5)
H14_3 H 0.4057 0.3906 0.6116
H15_3 H 0.4224 0.4397 0.6153
H16_3 H 0.4568 0.4006 0.6135
C16_3 C 0.2690(6) 0.3053(6) 0.5686(4)
C17_3 C 0.2611(9) 0.7648(7) 0.6971(6)
C18_3 C 0.2884(6) 0.1318(7) 0.5811(4)
H17_3 H 0.3156 0.1466 0.5816
C19_3 C 0.4115(9) 0.4652(9) 0.6801(5)
H18_3 H 0.4397 0.4618 0.6874
C20_3 C 0.4349(11) 0.5415(9) 0.6234(5)
H19_3 H 0.4529 0.5152 0.6251
H20_3 H 0.4506 0.5666 0.6303
H21_3 H 0.4074 0.5374 0.6325
C21_3 C 0.2052(7) 0.8651(8) 0.6708(4)
H22_3 H 0.1773 0.8787 0.6713
C22_3 C 0.2639(5) 0.1886(6) 0.5269(4)
C23_3 C 0.4016(10) 0.5234(8) 0.7094(5)
C24_3 C 0.3944(6) 0.5154(6) 0.5868(3)
C25_3 C 0.3547(6) 0.5102(7) 0.5978(4)
C26_3 C 0.4084(8) 0.4895(8) 0.5669(4)
H23_3 H 0.4364 0.4942 0.5598
C27_3 C 0.3265(7) 0.4772(7) 0.5886(4)
C28_3 C 0.2132(7) 0.8266(7) 0.6849(4)
H24_3 H 0.1908 0.8142 0.6950
C29_3 C 0.3936(18) 0.4279(14) 0.5362(6)
C30_3 C 0.3117(7) 0.6405(7) 0.6667(4)
H25_3 H 0.3359 0.6597 0.6684
C31_3 C 0.4671(8) 0.5500(12) 0.5804(6)
H26_3 H 0.4749 0.5200 0.5758
H27_3 H 0.4625 0.5672 0.5651
H28_3 H 0.4908 0.5629 0.5902
C32_3 C 0.4708(10) 0.4073(14) 0.6612(8)
H29_3 H 0.4693 0.4019 0.6793
H30_3 H 0.4904 0.3859 0.6535
H31_3 H 0.4819 0.4368 0.6582
C33_3 C 0.4375(11) 0.5537(12) 0.7013(7)
H32_3 H 0.4252 0.5772 0.6910
H33_3 H 0.4517 0.5662 0.7161
H34_3 H 0.4590 0.5374 0.6914
C34_3 C 0.2656(9) 0.1472(8) 0.5119(5)
H35_3 H 0.2708 0.1543 0.4942
H36_3 H 0.2894 0.1288 0.5181
H37_3 H 0.2379 0.1316 0.5135
C35_3 C 0.4045(11) 0.3607(9) 0.6545(5)
H38_3 H 0.3969 0.3583 0.6723
H39_3 H 0.3779 0.3586 0.6444
H40_3 H 0.4245 0.3370 0.6500
C36_3 C 0.3147(8) 0.6031(8) 0.6509(4)
H41_3 H 0.3410 0.5970 0.6421
C37_3 C 0.3606(10) 0.5558(12) 0.7207(7)
H42_3 H 0.3499 0.5749 0.7073
H43_3 H 0.3367 0.5375 0.7268
H44_3 H 0.3719 0.5737 0.7345
C38_3 C 0.2647(7) 0.7253(10) 0.6837(4)
C39_3 C 0.2625(4) 0.2291(8) 0.5667(3)
C40_3 C 0.2573(10) 0.7256(11) 0.6544(5)
H45_3 H 0.2343 0.7047 0.6501
H46_3 H 0.2485 0.7549 0.6491
H47_3 H 0.2845 0.7174 0.6459
C41_3 C 0.2676(4) 0.2692(6) 0.5536(4)
C42_3 C 0.2713(9) 0.7255(11) 0.7365(4)
C43_3 C 0.2768(9) 0.3087(8) 0.5139(5)
H48_3 H 0.3029 0.3234 0.5203
H49_3 H 0.2804 0.3027 0.4960
H50_3 H 0.2513 0.3274 0.5165
N1_3 N 0.2781(9) 0.5749(7) 0.6486(4)
C44_3 C 0.2677(7) 0.7656(8) 0.7235(6)
N2_3 N 0.2390(9) 0.8830(6) 0.6561(4)
C45_3 C 0.3068(6) 0.3119(7) 0.5835(5)
H51_3 H 0.3302 0.2915 0.5830
C46_3 C 0.3829(10) 0.4980(8) 0.6892(4)
C47_3 C 0.2805(7) 0.8636(7) 0.6550(3)
H52_3 H 0.3029 0.8762 0.6449
C48_3 C 0.1446(7) 0.4787(11) 0.6314(8)
H53_3 H 0.1379 0.4575 0.6446
H54_3 H 0.1354 0.5079 0.6368
H55_3 H 0.1289 0.4707 0.6160
O6_3 O 0.2135(7) 0.5124(7) 0.6269(5)
C49_3 C 0.3814(9) 0.4565(7) 0.5572(4)
C50_3 C 0.3669(17) 0.3905(16) 0.5259(10)
H56_3 H 0.3371 0.4005 0.5225
H57_3 H 0.3802 0.3800 0.5103
H58_3 H 0.3661 0.3667 0.5381
C51_3 C 0.4369(16) 0.412(2) 0.5466(10)
H59_3 H 0.4552 0.4015 0.5329
H60_3 H 0.4517 0.4365 0.5551
H61_3 H 0.4317 0.3886 0.5587
C52_3 C 0.397(2) 0.4610(16) 0.5150(10)
H62_3 H 0.4132 0.4866 0.5207
H63_3 H 0.4119 0.4477 0.5007
H64_3 H 0.3674 0.4699 0.5099
C53_3 C 0.2067(7) 0.0876(8) 0.5793(5)
H65_3 H 0.1795 0.0727 0.5787
N3_3 N 0.2737(8) 0.3784(5) 0.6005(3)
C54_3 C 0.4251(7) 0.5496(8) 0.5959(4)
C55_3 C 0.4257(7) 0.4029(8) 0.6499(6)
C56_3 C 0.2726(7) 0.6489(6) 0.6797(3)
C57_3 C 0.3095(7) 0.3496(9) 0.5991(5)
H66_3 H 0.3352 0.3552 0.6085
C58_3 C 0.3981(8) 0.4374(7) 0.6602(4)
C59_3 C 0.2804(8) 0.0953(8) 0.5972(4)
H67_3 H 0.3022 0.0857 0.6086
C60_3 C 0.4010(12) 0.5927(11) 0.5936(7)
H68_3 H 0.4169 0.6154 0.6027
H69_3 H 0.3988 0.6009 0.5759
H70_3 H 0.3716 0.5897 0.6006
C61_3 C 0.2689(5) 0.2286(8) 0.5138(3)
C62_3 C 0.2361(6) 0.6209(7) 0.6775(4)
H71_3 H 0.2099 0.6272 0.6863
C63_3 C 0.2389(8) 0.5832(7) 0.6618(4)
H72_3 H 0.2148 0.5639 0.6602
C64_3 C 0.2708(5) 0.2688(6) 0.5270(4)
C65_3 C 0.2146(7) 0.1242(8) 0.5632(4)
H73_3 H 0.1927 0.1340 0.5519
C66_3 C 0.3409(9) 0.4514(8) 0.5686(4)
H74_3 H 0.3220 0.4292 0.5625
C67_3 C 0.4184(14) 0.4941(13) 0.7339(7)
H75_3 H 0.4491 0.4862 0.7316
H76_3 H 0.4151 0.5114 0.7492
H77_3 H 0.4007 0.4675 0.7352
C68_3 C 0.1937(10) 0.4787(10) 0.6263(12)
C69_3 C 0.1286(8) 0.2645(7) 0.4139(5)
H78_3 H 0.1096 0.2889 0.4122
C70_3 C 0.2760(10) 0.2421(7) 0.4060(5)
H79_3 H 0.3071 0.2414 0.4017
H80_3 H 0.2610 0.2180 0.3976
H81_3 H 0.2634 0.2699 0.4006
C71_3 C 0.3110(6) 0.2394(4) 0.4465(4)
C72_3 C 0.3544(6) 0.2447(7) 0.4355(3)
C73_3 C 0.1642(8) 0.2660(7) 0.4310(5)
H82_3 H 0.1675 0.2901 0.4420
C74_3 C 0.1947(6) 0.2310(6) 0.4314(4)
C75_3 C 0.3682(7) 0.2116(6) 0.4189(4)
H83_3 H 0.3534 0.1844 0.4184
C76_3 C 0.3114(6) 0.2361(5) 0.4731(4)
C77_3 C 0.3528(8) 0.2344(9) 0.4881(5)
H84_3 H 0.3457 0.2292 0.5058
H85_3 H 0.3712 0.2106 0.4819
H86_3 H 0.3684 0.2621 0.4865
C78_3 C 0.2709(8) 0.2375(4) 0.4333(3)
C79_3 C 0.2308(6) 0.2324(4) 0.4464(4)
C80_3 C 0.1913(8) 0.2232(9) 0.4861(5)
H87_3 H 0.1766 0.1971 0.4797
H88_3 H 0.1973 0.2196 0.5040
H89_3 H 0.1726 0.2487 0.4835
C81_3 C 0.1881(7) 0.1932(6) 0.4165(5)
H90_3 H 0.2085 0.1698 0.4170
C82_3 C 0.4124(8) 0.2933(7) 0.4207(5)
H91_3 H 0.4273 0.3205 0.4213
C83_3 C 0.1504(9) 0.1905(7) 0.4009(5)
H92_3 H 0.1448 0.1648 0.3915
C84_3 C 0.4047(8) 0.2196(8) 0.4028(4)
H93_3 H 0.4143 0.1978 0.3914
C85_3 C 0.2714(8) 0.2311(5) 0.4862(3)
C86_3 C 0.2312(6) 0.2292(5) 0.4730(4)
C87_3 C 0.3758(8) 0.2854(7) 0.4368(4)
H94_3 H 0.3660 0.3073 0.4481
C88_3 C 0.3525(12) 0.7230(12) 0.7643(6)
H95_3 H 0.3696 0.6987 0.7711
H96_3 H 0.3469 0.7179 0.7465
H97_3 H 0.3689 0.7503 0.7663
C89_3 C 0.3145(7) 0.7290(6) 0.8033(5)
C90_3 C 0.1751(7) 0.7111(6) 0.8310(4)
H98_3 H 0.1887 0.6832 0.8315
C91_3 C 0.1932(6) 0.7450(8) 0.8162(4)
C92_3 C 0.1887(11) 0.7291(11) 0.7607(6)
H99_3 H 0.1811 0.7581 0.7541
H100_3 H 0.1924 0.7087 0.7467
H101_3 H 0.1653 0.7188 0.7717
C93_3 C 0.3142(8) 0.7260(7) 0.7767(5)
C94_3 C 0.2352(7) 0.7389(9) 0.8029(6)
C95_3 C 0.1349(8) 0.7948(7) 0.8292(4)
H102_3 H 0.1213 0.8227 0.8287
C96_3 C 0.1734(7) 0.7868(7) 0.8151(4)
H103_3 H 0.1858 0.8092 0.8050
C97_3 C 0.3595(7) 0.6883(7) 0.8333(4)
H104_3 H 0.3403 0.6641 0.8316
C98_3 C 0.3969(8) 0.6853(8) 0.8491(4)
H105_3 H 0.4030 0.6590 0.8579
C99_3 C 0.2747(10) 0.7353(7) 0.8163(4)
C100_3 C 0.2744(11) 0.7427(10) 0.8456(5)
H106_3 H 0.2953 0.7657 0.8499
H107_3 H 0.2451 0.7515 0.8509
H108_3 H 0.2826 0.7155 0.8541
C101_3 C 0.2745(11) 0.7287(9) 0.7635(4)
N7_3 N 0.4251(7) 0.7219(9) 0.8514(4)
C102_3 C 0.2344(8) 0.7323(7) 0.7765(6)
N8_3 N 0.1170(6) 0.7610(9) 0.8439(4)
C103_3 C 0.1364(7) 0.7195(7) 0.8450(3)
H109_3 H 0.1238 0.6971 0.8551
C104_3 C 0.3511(6) 0.7274(7) 0.8203(3)
C105_3 C 0.3791(7) 0.7639(6) 0.8225(4)
H110_3 H 0.3728 0.7901 0.8137
C106_3 C 0.4168(7) 0.7611(8) 0.8382(4)
H111_3 H 0.4361 0.7852 0.8398
O7_3 O 0.2141(6) 0.9748(5) 0.5982(3)
O8_3 O 0.2123(6) 0.9791(7) 0.6493(4)
O10_3 O 0.1605(7) 0.9169(6) 0.6320(5)
O11_3 O 0.2881(6) 0.9437(6) 0.6241(4)
C107_3 C 0.1438(7) 0.9429(7) 0.6496(4)
C108_3 C 0.1736(8) 0.9765(7) 0.6587(4)
C110_3 C 0.0722(13) 0.9091(10) 0.6195(5)
H113_3 H 0.0943 0.8906 0.6116
H114_3 H 0.0776 0.9397 0.6153
H115_3 H 0.0432 0.9006 0.6135
C111_3 C 0.0885(9) 0.9652(9) 0.6801(5)
H116_3 H 0.0603 0.9618 0.6874
C116_3 C 0.0916(8) 0.9895(8) 0.5669(4)
H120_3 H 0.0636 0.9942 0.5598
C117_3 C 0.1735(7) 0.9772(7) 0.5886(4)
C118_3 C 0.1064(18) 0.9279(14) 0.5362(6)
C120_3 C 0.0292(10) 0.9073(14) 0.6612(8)
H124_3 H 0.0307 0.9019 0.6793
H125_3 H 0.0096 0.8859 0.6535
H126_3 H 0.0181 0.9368 0.6582
C122_3 C 0.0955(11) 0.8607(9) 0.6545(5)
H130_3 H 0.1031 0.8583 0.6723
H131_3 H 0.1221 0.8586 0.6444
H132_3 H 0.0755 0.8370 0.6500
C124_3 C 0.1171(10) 0.9980(8) 0.6892(4)
C125_3 C 0.3554(7) 0.9787(11) 0.6314(8)
H136_3 H 0.3621 0.9575 0.6446
H138_3 H 0.3711 0.9707 0.6160
C126_3 C 0.1186(9) 0.9565(7) 0.5572(4)
C127_3 C 0.1331(17) 0.8905(16) 0.5259(10)
H139_3 H 0.1629 0.9005 0.5225
H140_3 H 0.1198 0.8800 0.5103
H141_3 H 0.1339 0.8667 0.5381
C128_3 C 0.0631(16) 0.912(2) 0.5466(10)
H142_3 H 0.0448 0.9015 0.5329
H143_3 H 0.0483 0.9365 0.5551
H144_3 H 0.0683 0.8886 0.5587
C129_3 C 0.103(2) 0.9610(16) 0.5150(10)
H145_3 H 0.0868 0.9866 0.5207
H146_3 H 0.0881 0.9477 0.5007
H147_3 H 0.1326 0.9699 0.5099
C131_3 C 0.0743(7) 0.9029(8) 0.6499(6)
C132_3 C 0.1019(8) 0.9374(7) 0.6602(4)
C134_3 C 0.1591(9) 0.9514(8) 0.5686(4)
H151_3 H 0.1780 0.9292 0.5625
C135_3 C 0.0816(14) 0.9941(13) 0.7339(7)
H152_3 H 0.0509 0.9862 0.7316
H154_3 H 0.0993 0.9675 0.7352
C136_3 C 0.3063(10) 0.9787(10) 0.6263(12)
Co5_3 Co 0.07217(13) 0.7748(2) 0.87287(10)
Co8_3 Co 0.47312(16) 0.72309(19) 0.87696(11)
N10_3 N 0.2610(9) 0.3830(6) 0.6561(4)
Co1_4 Co 0.7252(2) 0.57217(13) 0.62713(10)
O1_4 O 0.7141(6) 0.5252(5) 0.5982(3)
O2_4 O 0.7123(6) 0.5209(7) 0.6493(4)
O3_4 O 0.6621(5) 0.4633(5) 0.6155(3)
O4_4 O 0.6605(7) 0.5831(6) 0.6320(5)
C1_4 C 0.7645(7) 0.6286(8) 0.5861(5)
H1_4 H 0.7889 0.6096 0.5878
O5_4 O 0.7881(6) 0.5563(6) 0.6241(4)
C2_4 C 0.6438(7) 0.5571(7) 0.6496(4)
C3_4 C 0.7230(12) 0.3525(12) 0.7357(6)
H2_4 H 0.6987 0.3696 0.7289
H3_4 H 0.7179 0.3469 0.7535
H4_4 H 0.7503 0.3689 0.7337
C4_4 C 0.7290(6) 0.3145(7) 0.6967(5)
C5_4 C 0.7421(7) 0.7760(10) 0.5940(5)
H5_4 H 0.7414 0.8071 0.5983
H6_4 H 0.7180 0.7610 0.6024
H7_4 H 0.7699 0.7634 0.5994
C6_4 C 0.7394(4) 0.8110(6) 0.5535(4)
C7_4 C 0.6736(8) 0.5235(7) 0.6587(4)
C8_4 C 0.7447(7) 0.8544(6) 0.5645(3)
C9_4 C 0.6589(9) 0.4962(7) 0.6788(4)
H8_4 H 0.6776 0.4741 0.6851
C10_4 C 0.7660(7) 0.6642(8) 0.5690(5)
H9_4 H 0.7901 0.6675 0.5580
C11_4 C 0.7111(6) 0.1751(7) 0.6690(4)
H10_4 H 0.6832 0.1887 0.6685
C12_4 C 0.7450(8) 0.1932(6) 0.6838(4)
C13_4 C 0.7291(11) 0.1887(11) 0.7393(6)
H11_4 H 0.7581 0.1811 0.7459
H12_4 H 0.7087 0.1924 0.7533
H13_4 H 0.7188 0.1653 0.7283
C14_4 C 0.7260(7) 0.3142(8) 0.7233(5)
C15_4 C 0.5722(13) 0.5909(10) 0.6195(5)
H14_4 H 0.5943 0.6094 0.6116
H15_4 H 0.5776 0.5603 0.6153
H16_4 H 0.5432 0.5994 0.6135
C16_4 C 0.7310(6) 0.6947(6) 0.5686(4)
C17_4 C 0.7389(9) 0.2352(7) 0.6971(6)
C18_4 C 0.7116(6) 0.8682(7) 0.5811(4)
H17_4 H 0.6844 0.8534 0.5816
C19_4 C 0.5885(9) 0.5348(9) 0.6801(5)
H18_4 H 0.5603 0.5382 0.6874
C20_4 C 0.5651(11) 0.4585(9) 0.6234(5)
H19_4 H 0.5471 0.4848 0.6251
H20_4 H 0.5494 0.4334 0.6303
H21_4 H 0.5926 0.4626 0.6325
C21_4 C 0.7948(7) 0.1349(8) 0.6708(4)
H22_4 H 0.8227 0.1213 0.6713
C22_4 C 0.7361(5) 0.8114(6) 0.5269(4)
C23_4 C 0.5984(10) 0.4766(8) 0.7094(5)
C24_4 C 0.6056(6) 0.4846(6) 0.5868(3)
C25_4 C 0.6453(6) 0.4898(7) 0.5978(4)
C26_4 C 0.5916(8) 0.5105(8) 0.5669(4)
H23_4 H 0.5636 0.5058 0.5598
C27_4 C 0.6735(7) 0.5228(7) 0.5886(4)
C28_4 C 0.7868(7) 0.1734(7) 0.6849(4)
H24_4 H 0.8092 0.1858 0.6950
C29_4 C 0.6064(18) 0.5721(14) 0.5362(6)
C30_4 C 0.6883(7) 0.3595(7) 0.6667(4)
H25_4 H 0.6641 0.3403 0.6684
C31_4 C 0.5329(8) 0.4500(12) 0.5804(6)
H26_4 H 0.5251 0.4800 0.5758
H27_4 H 0.5375 0.4328 0.5651
H28_4 H 0.5092 0.4371 0.5902
C32_4 C 0.5292(10) 0.5927(14) 0.6612(8)
H29_4 H 0.5307 0.5981 0.6793
H30_4 H 0.5096 0.6141 0.6535
H31_4 H 0.5181 0.5632 0.6582
C33_4 C 0.5625(11) 0.4463(12) 0.7013(7)
H32_4 H 0.5748 0.4228 0.6910
H33_4 H 0.5483 0.4338 0.7161
H34_4 H 0.5410 0.4626 0.6914
C34_4 C 0.7344(9) 0.8528(8) 0.5119(5)
H35_4 H 0.7292 0.8457 0.4942
H36_4 H 0.7106 0.8712 0.5181
H37_4 H 0.7621 0.8684 0.5135
C35_4 C 0.5955(11) 0.6393(9) 0.6545(5)
H38_4 H 0.6031 0.6417 0.6723
H39_4 H 0.6221 0.6414 0.6444
H40_4 H 0.5755 0.6630 0.6500
C36_4 C 0.6853(8) 0.3969(8) 0.6509(4)
H41_4 H 0.6590 0.4030 0.6421
C37_4 C 0.6394(10) 0.4442(12) 0.7207(7)
H42_4 H 0.6501 0.4251 0.7073
H43_4 H 0.6633 0.4625 0.7268
H44_4 H 0.6281 0.4263 0.7345
C38_4 C 0.7353(7) 0.2747(10) 0.6837(4)
C39_4 C 0.7375(4) 0.7709(8) 0.5667(3)
C40_4 C 0.7427(10) 0.2744(11) 0.6544(5)
H45_4 H 0.7657 0.2953 0.6501
H46_4 H 0.7515 0.2451 0.6491
H47_4 H 0.7155 0.2826 0.6459
C41_4 C 0.7324(4) 0.7308(6) 0.5536(4)
C42_4 C 0.7287(9) 0.2745(11) 0.7365(4)
C43_4 C 0.7232(9) 0.6913(8) 0.5139(5)
H48_4 H 0.6971 0.6766 0.5203
H49_4 H 0.7196 0.6973 0.4960
H50_4 H 0.7487 0.6726 0.5165
N1_4 N 0.7219(9) 0.4251(7) 0.6486(4)
C44_4 C 0.7323(7) 0.2344(8) 0.7235(6)
N2_4 N 0.7610(9) 0.1170(6) 0.6561(4)
C45_4 C 0.6932(6) 0.6881(7) 0.5835(5)
H51_4 H 0.6698 0.7085 0.5830
C46_4 C 0.6171(10) 0.5020(8) 0.6892(4)
C47_4 C 0.7195(7) 0.1364(7) 0.6550(3)
H52_4 H 0.6971 0.1238 0.6449
C48_4 C 0.8554(7) 0.5213(11) 0.6314(8)
H53_4 H 0.8621 0.5425 0.6446
H54_4 H 0.8646 0.4921 0.6368
H55_4 H 0.8711 0.5293 0.6160
O6_4 O 0.7865(7) 0.4876(7) 0.6269(5)
C49_4 C 0.6186(9) 0.5435(7) 0.5572(4)
C50_4 C 0.6331(17) 0.6095(16) 0.5259(10)
H56_4 H 0.6629 0.5995 0.5225
H57_4 H 0.6198 0.6200 0.5103
H58_4 H 0.6339 0.6333 0.5381
C51_4 C 0.5631(16) 0.588(2) 0.5466(10)
H59_4 H 0.5448 0.5985 0.5329
H60_4 H 0.5483 0.5635 0.5551
H61_4 H 0.5683 0.6114 0.5587
C52_4 C 0.603(2) 0.5390(16) 0.5150(10)
H62_4 H 0.5868 0.5134 0.5207
H63_4 H 0.5881 0.5523 0.5007
H64_4 H 0.6326 0.5301 0.5099
C53_4 C 0.7933(7) 0.9124(8) 0.5793(5)
H65_4 H 0.8205 0.9273 0.5787
N3_4 N 0.7263(8) 0.6216(5) 0.6005(3)
C54_4 C 0.5749(7) 0.4504(8) 0.5959(4)
C55_4 C 0.5743(7) 0.5971(8) 0.6499(6)
N4_2 N 0.7604(8) 0.9261(6) 0.5958(4)
C56_4 C 0.7274(7) 0.3511(6) 0.6797(3)
C57_4 C 0.6905(7) 0.6504(9) 0.5991(5)
H66_4 H 0.6648 0.6448 0.6085
C58_4 C 0.6019(8) 0.5626(7) 0.6602(4)
C59_4 C 0.7196(8) 0.9047(8) 0.5972(4)
H67_4 H 0.6978 0.9143 0.6086
C60_4 C 0.5990(12) 0.4073(11) 0.5936(7)
H68_4 H 0.5831 0.3846 0.6027
H69_4 H 0.6012 0.3991 0.5759
H70_4 H 0.6284 0.4103 0.6006
C61_4 C 0.7311(5) 0.7714(8) 0.5138(3)
C62_4 C 0.7639(6) 0.3791(7) 0.6775(4)
H71_4 H 0.7901 0.3728 0.6863
C63_4 C 0.7611(8) 0.4168(7) 0.6618(4)
H72_4 H 0.7852 0.4361 0.6602
C64_4 C 0.7292(5) 0.7312(6) 0.5270(4)
C65_4 C 0.7854(7) 0.8758(8) 0.5632(4)
H73_4 H 0.8073 0.8660 0.5519
C66_4 C 0.6591(9) 0.5486(8) 0.5686(4)
H74_4 H 0.6780 0.5708 0.5625
C67_4 C 0.5816(14) 0.5059(13) 0.7339(7)
H75_4 H 0.5509 0.5138 0.7316
H76_4 H 0.5849 0.4886 0.7492
H77_4 H 0.5993 0.5325 0.7352
C68_4 C 0.8063(10) 0.5213(10) 0.6263(12)
C69_4 C 0.8714(8) 0.7355(7) 0.4139(5)
H78_4 H 0.8904 0.7111 0.4122
C70_4 C 0.7240(10) 0.7579(7) 0.4060(5)
H79_4 H 0.6929 0.7586 0.4017
H80_4 H 0.7390 0.7820 0.3976
H81_4 H 0.7366 0.7301 0.4006
C71_4 C 0.6890(6) 0.7606(4) 0.4465(4)
C72_4 C 0.6456(6) 0.7553(7) 0.4355(3)
C73_4 C 0.8358(8) 0.7340(7) 0.4310(5)
H82_4 H 0.8325 0.7099 0.4420
C74_4 C 0.8053(6) 0.7690(6) 0.4314(4)
C75_4 C 0.6318(7) 0.7884(6) 0.4189(4)
H83_4 H 0.6466 0.8156 0.4184
C76_4 C 0.6886(6) 0.7639(5) 0.4731(4)
C77_4 C 0.6472(8) 0.7656(9) 0.4881(5)
H84_4 H 0.6543 0.7708 0.5058
H85_4 H 0.6288 0.7894 0.4819
H86_4 H 0.6316 0.7379 0.4865
C78_4 C 0.7291(8) 0.7625(4) 0.4333(3)
C79_4 C 0.7692(6) 0.7676(4) 0.4464(4)
C80_4 C 0.8087(8) 0.7768(9) 0.4861(5)
H87_4 H 0.8234 0.8029 0.4797
H88_4 H 0.8027 0.7804 0.5040
H89_4 H 0.8274 0.7513 0.4835
C81_4 C 0.8119(7) 0.8068(6) 0.4165(5)
H90_4 H 0.7915 0.8302 0.4170
C82_4 C 0.5876(8) 0.7067(7) 0.4207(5)
H91_4 H 0.5727 0.6795 0.4213
C83_4 C 0.8496(9) 0.8095(7) 0.4009(5)
H92_4 H 0.8552 0.8352 0.3915
C84_4 C 0.5953(8) 0.7804(8) 0.4028(4)
H93_4 H 0.5857 0.8022 0.3914
C85_4 C 0.7286(8) 0.7689(5) 0.4862(3)
C86_4 C 0.7688(6) 0.7708(5) 0.4730(4)
C87_4 C 0.6242(8) 0.7146(7) 0.4368(4)
H94_4 H 0.6340 0.6927 0.4481
C88_4 C 0.6475(12) 0.2770(12) 0.7643(6)
H95_4 H 0.6304 0.3013 0.7711
H96_4 H 0.6531 0.2821 0.7465
H97_4 H 0.6311 0.2497 0.7663
C89_4 C 0.6855(7) 0.2710(6) 0.8033(5)
C90_4 C 0.8249(7) 0.2889(6) 0.8310(4)
H98_4 H 0.8113 0.3168 0.8315
C91_4 C 0.8068(6) 0.2550(8) 0.8162(4)
C92_4 C 0.8113(11) 0.2709(11) 0.7607(6)
H99_4 H 0.8189 0.2419 0.7541
H100_4 H 0.8076 0.2913 0.7467
H101_4 H 0.8347 0.2812 0.7717
C93_4 C 0.6858(8) 0.2740(7) 0.7767(5)
C94_4 C 0.7648(7) 0.2611(9) 0.8029(6)
C95_4 C 0.8651(8) 0.2052(7) 0.8292(4)
H102_4 H 0.8787 0.1773 0.8287
C96_4 C 0.8266(7) 0.2132(7) 0.8151(4)
H103_4 H 0.8142 0.1908 0.8050
C97_4 C 0.6405(7) 0.3117(7) 0.8333(4)
H104_4 H 0.6597 0.3359 0.8316
C98_4 C 0.6031(8) 0.3147(8) 0.8491(4)
H105_4 H 0.5970 0.3410 0.8579
C99_4 C 0.7253(10) 0.2647(7) 0.8163(4)
C100_4 C 0.7256(11) 0.2573(10) 0.8456(5)
H106_4 H 0.7047 0.2343 0.8499
H107_4 H 0.7549 0.2485 0.8509
H108_4 H 0.7174 0.2845 0.8541
C101_4 C 0.7255(11) 0.2713(9) 0.7635(4)
N7_4 N 0.5749(7) 0.2781(9) 0.8514(4)
C102_4 C 0.7656(8) 0.2677(7) 0.7765(6)
N8_4 N 0.8830(6) 0.2390(9) 0.8439(4)
C103_4 C 0.8636(7) 0.2805(7) 0.8450(3)
H109_4 H 0.8762 0.3029 0.8551
C104_4 C 0.6489(6) 0.2726(7) 0.8203(3)
C105_4 C 0.6209(7) 0.2361(6) 0.8225(4)
H110_4 H 0.6272 0.2099 0.8137
C106_4 C 0.5832(7) 0.2389(8) 0.8382(4)
H111_4 H 0.5639 0.2148 0.8398
O7_4 O 0.7859(6) 0.0252(5) 0.5982(3)
O8_4 O 0.7877(6) 0.0209(7) 0.6493(4)
O10_4 O 0.8395(7) 0.0831(6) 0.6320(5)
O11_4 O 0.7119(6) 0.0563(6) 0.6241(4)
C107_4 C 0.8562(7) 0.0571(7) 0.6496(4)
C108_4 C 0.8264(8) 0.0235(7) 0.6587(4)
C110_4 C 0.9278(13) 0.0909(10) 0.6195(5)
H113_4 H 0.9057 0.1094 0.6116
H114_4 H 0.9224 0.0603 0.6153
H115_4 H 0.9568 0.0994 0.6135
C111_4 C 0.9115(9) 0.0348(9) 0.6801(5)
H116_4 H 0.9397 0.0382 0.6874
C116_4 C 0.9084(8) 0.0105(8) 0.5669(4)
H120_4 H 0.9364 0.0058 0.5598
C117_4 C 0.8265(7) 0.0228(7) 0.5886(4)
C118_4 C 0.8936(18) 0.0721(14) 0.5362(6)
C120_4 C 0.9708(10) 0.0927(14) 0.6612(8)
H124_4 H 0.9693 0.0981 0.6793
H125_4 H 0.9904 0.1141 0.6535
H126_4 H 0.9819 0.0632 0.6582
C122_4 C 0.9045(11) 0.1393(9) 0.6545(5)
H130_4 H 0.8969 0.1417 0.6723
H131_4 H 0.8779 0.1414 0.6444
H132_4 H 0.9245 0.1630 0.6500
C124_4 C 0.8829(10) 0.0020(8) 0.6892(4)
C125_4 C 0.6446(7) 0.0213(11) 0.6314(8)
H136_4 H 0.6379 0.0425 0.6446
H138_4 H 0.6289 0.0293 0.6160
C126_4 C 0.8814(9) 0.0435(7) 0.5572(4)
C127_4 C 0.8669(17) 0.1095(16) 0.5259(10)
H139_4 H 0.8371 0.0995 0.5225
H140_4 H 0.8802 0.1200 0.5103
H141_4 H 0.8661 0.1333 0.5381
C128_4 C 0.9369(16) 0.088(2) 0.5466(10)
H142_4 H 0.9552 0.0985 0.5329
H143_4 H 0.9517 0.0635 0.5551
H144_4 H 0.9317 0.1114 0.5587
C129_4 C 0.897(2) 0.0390(16) 0.5150(10)
H145_4 H 0.9132 0.0134 0.5207
H146_4 H 0.9119 0.0523 0.5007
H147_4 H 0.8674 0.0301 0.5099
C131_4 C 0.9257(7) 0.0971(8) 0.6499(6)
C132_4 C 0.8981(8) 0.0626(7) 0.6602(4)
C134_4 C 0.8409(9) 0.0486(8) 0.5686(4)
H151_4 H 0.8220 0.0708 0.5625
C135_4 C 0.9184(14) 0.0059(13) 0.7339(7)
H152_4 H 0.9491 0.0138 0.7316
H154_4 H 0.9007 0.0325 0.7352
C136_4 C 0.6937(10) 0.0213(10) 0.6263(12)
Co5_4 Co 0.92783(13) 0.2252(2) 0.87287(10)
Co8_4 Co 0.52688(16) 0.27691(19) 0.87696(11)
Co9_2 Co 0.77691(19) 0.97312(16) 0.62304(11)
N10_4 N 0.7390(9) 0.6170(6) 0.6561(4)
O9_4 O 0.8379(5) 0.9633(5) 0.6155(3)
C109_4 C 0.8411(9) 0.9962(7) 0.6788(4)
H112_4 H 0.8224 0.9741 0.6851
C112_4 C 0.9349(11) 0.9585(9) 0.6234(5)
H117_4 H 0.9529 0.9848 0.6251
H118_4 H 0.9506 0.9334 0.6303
H119_4 H 0.9074 0.9626 0.6325
C113_4 C 0.9016(10) 0.9766(8) 0.7094(5)
C114_4 C 0.8944(6) 0.9846(6) 0.5868(3)
C115_4 C 0.8547(6) 0.9898(7) 0.5978(4)
C119_4 C 0.9671(8) 0.9500(12) 0.5804(6)
H121_4 H 0.9749 0.9800 0.5758
H122_4 H 0.9625 0.9328 0.5651
H123_4 H 0.9908 0.9371 0.5902
C121_4 C 0.9375(11) 0.9463(12) 0.7013(7)
H127_4 H 0.9252 0.9228 0.6910
H128_4 H 0.9517 0.9338 0.7161
H129_4 H 0.9590 0.9626 0.6914
C123_4 C 0.8606(10) 0.9442(12) 0.7207(7)
H133_4 H 0.8499 0.9251 0.7073
H134_4 H 0.8367 0.9625 0.7268
H135_4 H 0.8719 0.9263 0.7345
H137_4 H 0.6354 0.9921 0.6368
O12_4 O 0.7135(7) 0.9876(7) 0.6269(5)
C130_4 C 0.9251(7) 0.9504(8) 0.5959(4)
C133_4 C 0.9010(12) 0.9073(11) 0.5936(7)
H148_4 H 0.9169 0.8846 0.6027
H149_4 H 0.8988 0.8991 0.5759
H150_4 H 0.8716 0.9103 0.6006
H153_4 H 0.9151 0.9886 0.7492
N9_4 N 0.7781(9) 0.9251(7) 0.6486(4)
H35_5 H 0.8457 0.7292 0.0058
H49_5 H 0.6973 0.7196 0.0040
C69_5 C 0.7355(7) 0.8714(8) 0.0861(5)
H78_5 H 0.7111 0.8904 0.0878
C70_5 C 0.7579(7) 0.7240(10) 0.0940(5)
H79_5 H 0.7586 0.6929 0.0983
H80_5 H 0.7820 0.7390 0.1024
H81_5 H 0.7301 0.7366 0.0994
C71_5 C 0.7606(4) 0.6890(6) 0.0535(4)
C72_5 C 0.7553(7) 0.6456(6) 0.0645(3)
C73_5 C 0.7340(7) 0.8358(8) 0.0690(5)
H82_5 H 0.7099 0.8325 0.0580
C74_5 C 0.7690(6) 0.8053(6) 0.0686(4)
C75_5 C 0.7884(6) 0.6318(7) 0.0811(4)
H83_5 H 0.8156 0.6466 0.0816
C76_5 C 0.7639(5) 0.6886(6) 0.0269(4)
C77_5 C 0.7656(9) 0.6472(8) 0.0119(5)
H85_5 H 0.7894 0.6288 0.0181
H86_5 H 0.7379 0.6316 0.0135
C78_5 C 0.7625(4) 0.7291(8) 0.0667(3)
C79_5 C 0.7676(4) 0.7692(6) 0.0536(4)
C80_5 C 0.7768(9) 0.8087(8) 0.0139(5)
H87_5 H 0.8029 0.8234 0.0203
H89_5 H 0.7513 0.8274 0.0165
C81_5 C 0.8068(6) 0.8119(7) 0.0835(5)
H90_5 H 0.8302 0.7915 0.0830
C82_5 C 0.7067(7) 0.5876(8) 0.0793(5)
H91_5 H 0.6795 0.5727 0.0787
N5_3 N 0.7737(8) 0.8784(5) 0.1005(3)
N6_3 N 0.7396(8) 0.5739(6) 0.0958(4)
C83_5 C 0.8095(7) 0.8496(9) 0.0991(5)
H92_5 H 0.8352 0.8552 0.1085
C84_5 C 0.7804(8) 0.5953(8) 0.0972(4)
H93_5 H 0.8022 0.5857 0.1086
C85_5 C 0.7689(5) 0.7286(8) 0.0138(3)
C86_5 C 0.7708(5) 0.7688(6) 0.0270(4)
C87_5 C 0.7146(7) 0.6242(8) 0.0632(4)
H94_5 H 0.6927 0.6340 0.0519
Co1_5 Co 0.57217(13) 0.7252(2) 0.87287(10)
O1_5 O 0.5252(5) 0.7141(6) 0.9018(3)
O2_5 O 0.5209(7) 0.7123(6) 0.8507(4)
O3_5 O 0.4633(5) 0.6621(5) 0.8845(3)
O4_5 O 0.5831(6) 0.6605(7) 0.8680(5)
C1_5 C 0.6286(8) 0.7645(7) 0.9139(5)
H1_5 H 0.6096 0.7889 0.9122
O5_5 O 0.5563(6) 0.7881(6) 0.8759(4)
C2_5 C 0.5571(7) 0.6438(7) 0.8504(4)
C5_5 C 0.7760(10) 0.7421(7) 0.9060(5)
H5_5 H 0.8071 0.7414 0.9017
H6_5 H 0.7610 0.7180 0.8976
H7_5 H 0.7634 0.7699 0.9006
C6_5 C 0.8110(6) 0.7394(4) 0.9465(4)
C7_5 C 0.5235(7) 0.6736(8) 0.8413(4)
C8_5 C 0.8544(6) 0.7447(7) 0.9355(3)
C9_5 C 0.4962(7) 0.6589(9) 0.8212(4)
H8_5 H 0.4741 0.6776 0.8149
C10_5 C 0.6642(8) 0.7660(7) 0.9310(5)
H9_5 H 0.6675 0.7901 0.9420
C15_5 C 0.5909(10) 0.5722(13) 0.8805(5)
H14_5 H 0.6094 0.5943 0.8884
H15_5 H 0.5603 0.5776 0.8847
H16_5 H 0.5994 0.5432 0.8865
C16_5 C 0.6947(6) 0.7310(6) 0.9314(4)
C18_5 C 0.8682(7) 0.7116(6) 0.9189(4)
H17_5 H 0.8534 0.6844 0.9184
C19_5 C 0.5348(9) 0.5885(9) 0.8199(5)
H18_5 H 0.5382 0.5603 0.8126
C20_5 C 0.4585(9) 0.5651(11) 0.8766(5)
H19_5 H 0.4848 0.5471 0.8749
H20_5 H 0.4334 0.5494 0.8697
H21_5 H 0.4626 0.5926 0.8675
C22_5 C 0.8114(6) 0.7361(5) 0.9731(4)
C23_5 C 0.4766(8) 0.5984(10) 0.7906(5)
C24_5 C 0.4846(6) 0.6056(6) 0.9132(3)
C25_5 C 0.4898(7) 0.6453(6) 0.9022(4)
C26_5 C 0.5105(8) 0.5916(8) 0.9331(4)
H23_5 H 0.5058 0.5636 0.9402
C27_5 C 0.5228(7) 0.6735(7) 0.9114(4)
C29_5 C 0.5721(14) 0.6064(18) 0.9638(6)
C31_5 C 0.4500(12) 0.5329(8) 0.9196(6)
H26_5 H 0.4800 0.5251 0.9242
H27_5 H 0.4328 0.5375 0.9349
H28_5 H 0.4371 0.5092 0.9098
C32_5 C 0.5927(14) 0.5292(10) 0.8388(8)
H29_5 H 0.5981 0.5307 0.8207
H30_5 H 0.6141 0.5096 0.8465
H31_5 H 0.5632 0.5181 0.8418
C33_5 C 0.4463(12) 0.5625(11) 0.7987(7)
H32_5 H 0.4228 0.5748 0.8090
H33_5 H 0.4338 0.5483 0.7839
H34_5 H 0.4626 0.5410 0.8086
C34_5 C 0.8528(8) 0.7344(9) 0.9881(5)
H36_5 H 0.8712 0.7106 0.9819
H37_5 H 0.8684 0.7621 0.9865
C35_5 C 0.6393(9) 0.5955(11) 0.8455(5)
H38_5 H 0.6417 0.6031 0.8277
H39_5 H 0.6414 0.6221 0.8556
H40_5 H 0.6630 0.5755 0.8500
C37_5 C 0.4442(12) 0.6394(10) 0.7793(7)
H42_5 H 0.4251 0.6501 0.7927
H43_5 H 0.4625 0.6633 0.7732
H44_5 H 0.4263 0.6281 0.7655
C39_5 C 0.7709(8) 0.7375(4) 0.9333(3)
C41_5 C 0.7308(6) 0.7324(4) 0.9464(4)
C43_5 C 0.6913(8) 0.7232(9) 0.9861(5)
H48_5 H 0.6766 0.6971 0.9797
H50_5 H 0.6726 0.7487 0.9835
C45_5 C 0.6881(7) 0.6932(6) 0.9165(5)
H51_5 H 0.7085 0.6698 0.9170
C46_5 C 0.5020(8) 0.6171(10) 0.8108(4)
C48_5 C 0.5213(11) 0.8554(7) 0.8686(8)
H53_5 H 0.5425 0.8621 0.8554
H54_5 H 0.4921 0.8646 0.8632
H55_5 H 0.5293 0.8711 0.8840
O6_5 O 0.4876(7) 0.7865(7) 0.8731(5)
C49_5 C 0.5435(7) 0.6186(9) 0.9428(4)
C50_5 C 0.6095(16) 0.6331(17) 0.9741(10)
H56_5 H 0.5995 0.6629 0.9775
H57_5 H 0.6200 0.6198 0.9897
H58_5 H 0.6333 0.6339 0.9619
C51_5 C 0.588(2) 0.5631(16) 0.9534(10)
H59_5 H 0.5985 0.5448 0.9671
H60_5 H 0.5635 0.5483 0.9449
H61_5 H 0.6114 0.5683 0.9413
C52_5 C 0.5390(16) 0.603(2) 0.9850(10)
H62_5 H 0.5134 0.5868 0.9793
H63_5 H 0.5523 0.5881 0.9993
H64_5 H 0.5301 0.6326 0.9901
C53_5 C 0.9124(8) 0.7933(7) 0.9207(5)
H65_5 H 0.9273 0.8205 0.9213
N3_5 N 0.6216(5) 0.7263(8) 0.8995(3)
C54_5 C 0.4504(8) 0.5749(7) 0.9041(4)
C55_5 C 0.5971(8) 0.5743(7) 0.8501(6)
N4_3 N 0.9261(6) 0.7604(8) 0.9042(4)
C57_5 C 0.6504(9) 0.6905(7) 0.9009(5)
H66_5 H 0.6448 0.6648 0.8915
C58_5 C 0.5626(7) 0.6019(8) 0.8398(4)
C59_5 C 0.9047(8) 0.7196(8) 0.9028(4)
H67_5 H 0.9143 0.6978 0.8914
C60_5 C 0.4073(11) 0.5990(12) 0.9064(7)
H68_5 H 0.3846 0.5831 0.8973
H69_5 H 0.3991 0.6012 0.9241
H70_5 H 0.4103 0.6284 0.8994
C61_5 C 0.7714(8) 0.7311(5) 0.9862(3)
C64_5 C 0.7312(6) 0.7292(5) 0.9730(4)
C65_5 C 0.8758(8) 0.7854(7) 0.9368(4)
H73_5 H 0.8660 0.8073 0.9481
C66_5 C 0.5486(8) 0.6591(9) 0.9314(4)
H74_5 H 0.5708 0.6780 0.9375
C67_5 C 0.5059(13) 0.5816(14) 0.7661(7)
H75_5 H 0.5138 0.5509 0.7684
H76_5 H 0.4886 0.5849 0.7508
H77_5 H 0.5325 0.5993 0.7648
C68_5 C 0.5213(10) 0.8063(10) 0.8737(12)
H84_5 H 0.7708 0.6543 0.9942
H88_5 H 0.7804 0.8027 0.9960
O7_5 O 0.0252(5) 0.7859(6) 0.9018(3)
O8_5 O 0.0209(7) 0.7877(6) 0.8507(4)
O10_5 O 0.0831(6) 0.8395(7) 0.8680(5)
O11_5 O 0.0563(6) 0.7119(6) 0.8759(4)
C107_5 C 0.0571(7) 0.8562(7) 0.8504(4)
C108_5 C 0.0235(7) 0.8264(8) 0.8413(4)
C110_5 C 0.0909(10) 0.9278(13) 0.8805(5)
H113_5 H 0.1094 0.9057 0.8884
H114_5 H 0.0603 0.9224 0.8847
H115_5 H 0.0994 0.9568 0.8865
C111_5 C 0.0348(9) 0.9115(9) 0.8199(5)
H116_5 H 0.0382 0.9397 0.8126
C116_5 C 0.0105(8) 0.9084(8) 0.9331(4)
H120_5 H 0.0058 0.9364 0.9402
C117_5 C 0.0228(7) 0.8265(7) 0.9114(4)
C118_5 C 0.0721(14) 0.8936(18) 0.9638(6)
C120_5 C 0.0927(14) 0.9708(10) 0.8388(8)
H124_5 H 0.0981 0.9693 0.8207
H125_5 H 0.1141 0.9904 0.8465
H126_5 H 0.0632 0.9819 0.8418
C122_5 C 0.1393(9) 0.9045(11) 0.8455(5)
H130_5 H 0.1417 0.8969 0.8277
H131_5 H 0.1414 0.8779 0.8556
H132_5 H 0.1630 0.9245 0.8500
C124_5 C 0.0020(8) 0.8829(10) 0.8108(4)
C125_5 C 0.0213(11) 0.6446(7) 0.8686(8)
H136_5 H 0.0425 0.6379 0.8554
H138_5 H 0.0293 0.6289 0.8840
C126_5 C 0.0435(7) 0.8814(9) 0.9428(4)
C127_5 C 0.1095(16) 0.8669(17) 0.9741(10)
H139_5 H 0.0995 0.8371 0.9775
H140_5 H 0.1200 0.8802 0.9897
H141_5 H 0.1333 0.8661 0.9619
C128_5 C 0.088(2) 0.9369(16) 0.9534(10)
H142_5 H 0.0985 0.9552 0.9671
H143_5 H 0.0635 0.9517 0.9449
H144_5 H 0.1114 0.9317 0.9413
C129_5 C 0.0390(16) 0.897(2) 0.9850(10)
H145_5 H 0.0134 0.9132 0.9793
H146_5 H 0.0523 0.9119 0.9993
H147_5 H 0.0301 0.8674 0.9901
C131_5 C 0.0971(8) 0.9257(7) 0.8501(6)
C132_5 C 0.0626(7) 0.8981(8) 0.8398(4)
C134_5 C 0.0486(8) 0.8409(9) 0.9314(4)
H151_5 H 0.0708 0.8220 0.9375
C135_5 C 0.0059(13) 0.9184(14) 0.7661(7)
H152_5 H 0.0138 0.9491 0.7684
H154_5 H 0.0325 0.9007 0.7648
C136_5 C 0.0213(10) 0.6937(10) 0.8737(12)
Co9_3 Co 0.97312(16) 0.77691(19) 0.87696(11)
N10_5 N 0.6170(6) 0.7390(9) 0.8439(4)
N11_3 N 0.1216(5) 0.7737(8) 0.8995(3)
N13_3 N 0.4261(6) 0.7396(8) 0.9042(4)
O9_5 O 0.9633(5) 0.8379(5) 0.8845(3)
C109_5 C 0.9962(7) 0.8411(9) 0.8212(4)
H112_5 H 0.9741 0.8224 0.8149
C112_5 C 0.9585(9) 0.9349(11) 0.8766(5)
H117_5 H 0.9848 0.9529 0.8749
H118_5 H 0.9334 0.9506 0.8697
H119_5 H 0.9626 0.9074 0.8675
C113_5 C 0.9766(8) 0.9016(10) 0.7906(5)
C114_5 C 0.9846(6) 0.8944(6) 0.9132(3)
C115_5 C 0.9898(7) 0.8547(6) 0.9022(4)
C119_5 C 0.9500(12) 0.9671(8) 0.9196(6)
H121_5 H 0.9800 0.9749 0.9242
H122_5 H 0.9328 0.9625 0.9349
H123_5 H 0.9371 0.9908 0.9098
C121_5 C 0.9463(12) 0.9375(11) 0.7987(7)
H127_5 H 0.9228 0.9252 0.8090
H128_5 H 0.9338 0.9517 0.7839
H129_5 H 0.9626 0.9590 0.8086
C123_5 C 0.9442(12) 0.8606(10) 0.7793(7)
H133_5 H 0.9251 0.8499 0.7927
H134_5 H 0.9625 0.8367 0.7732
H135_5 H 0.9263 0.8719 0.7655
H137_5 H 0.9921 0.6354 0.8632
O12_5 O 0.9876(7) 0.7135(7) 0.8731(5)
C130_5 C 0.9504(8) 0.9251(7) 0.9041(4)
C133_5 C 0.9073(11) 0.9010(12) 0.9064(7)
H148_5 H 0.8846 0.9169 0.8973
H149_5 H 0.8991 0.8988 0.9241
H150_5 H 0.9103 0.8716 0.8994
H153_5 H 0.9886 0.9151 0.7508
N9_5 N 0.9251(7) 0.7781(9) 0.8514(4)
Co4_3 Co 0.02688(16) 0.22309(19) 0.87696(11)
O9_6 O 0.0367(5) 0.1621(5) 0.8845(3)
C109_6 C 0.0038(7) 0.1589(9) 0.8212(4)
H112_6 H 0.0259 0.1776 0.8149
C112_6 C 0.0415(9) 0.0651(11) 0.8766(5)
H117_6 H 0.0152 0.0471 0.8749
H118_6 H 0.0666 0.0494 0.8697
H119_6 H 0.0374 0.0926 0.8675
C113_6 C 0.0234(8) 0.0984(10) 0.7906(5)
C114_6 C 0.0154(6) 0.1056(6) 0.9132(3)
C115_6 C 0.0102(7) 0.1453(6) 0.9022(4)
C119_6 C 0.0500(12) 0.0329(8) 0.9196(6)
H121_6 H 0.0200 0.0251 0.9242
H122_6 H 0.0672 0.0375 0.9349
H123_6 H 0.0629 0.0092 0.9098
C121_6 C 0.0537(12) 0.0625(11) 0.7987(7)
H127_6 H 0.0772 0.0748 0.8090
H128_6 H 0.0662 0.0483 0.7839
H129_6 H 0.0374 0.0410 0.8086
C123_6 C 0.0558(12) 0.1394(10) 0.7793(7)
H133_6 H 0.0749 0.1501 0.7927
H134_6 H 0.0375 0.1633 0.7732
H135_6 H 0.0737 0.1281 0.7655
H137_6 H 0.0079 0.3646 0.8632
O12_6 O 0.0124(7) 0.2865(7) 0.8731(5)
C130_6 C 0.0496(8) 0.0749(7) 0.9041(4)
C133_6 C 0.0927(11) 0.0990(12) 0.9064(7)
H148_6 H 0.1154 0.0831 0.8973
H149_6 H 0.1009 0.1012 0.9241
H150_6 H 0.0897 0.1284 0.8994
H153_6 H 0.0114 0.0849 0.7508
N9_6 N 0.0749(7) 0.2219(9) 0.8514(4)
N12_3 N 0.0739(6) 0.2396(8) 0.9042(4)
H35_6 H 0.1543 0.2708 0.0058
H49_6 H 0.3027 0.2804 0.0040
C69_6 C 0.2645(7) 0.1286(8) 0.0861(5)
H78_6 H 0.2889 0.1096 0.0878
C70_6 C 0.2421(7) 0.2760(10) 0.0940(5)
H79_6 H 0.2414 0.3071 0.0983
H80_6 H 0.2180 0.2610 0.1024
H81_6 H 0.2699 0.2634 0.0994
C71_6 C 0.2394(4) 0.3110(6) 0.0535(4)
C72_6 C 0.2447(7) 0.3544(6) 0.0645(3)
C73_6 C 0.2660(7) 0.1642(8) 0.0690(5)
H82_6 H 0.2901 0.1675 0.0580
C74_6 C 0.2310(6) 0.1947(6) 0.0686(4)
C75_6 C 0.2116(6) 0.3682(7) 0.0811(4)
H83_6 H 0.1844 0.3534 0.0816
C76_6 C 0.2361(5) 0.3114(6) 0.0269(4)
C77_6 C 0.2344(9) 0.3528(8) 0.0119(5)
H85_6 H 0.2106 0.3712 0.0181
H86_6 H 0.2621 0.3684 0.0135
C78_6 C 0.2375(4) 0.2709(8) 0.0667(3)
C79_6 C 0.2324(4) 0.2308(6) 0.0536(4)
C80_6 C 0.2232(9) 0.1913(8) 0.0139(5)
H87_6 H 0.1971 0.1766 0.0203
H89_6 H 0.2487 0.1726 0.0165
C81_6 C 0.1932(6) 0.1881(7) 0.0835(5)
H90_6 H 0.1698 0.2085 0.0830
C82_6 C 0.2933(7) 0.4124(8) 0.0793(5)
H91_6 H 0.3205 0.4273 0.0787
N5_4 N 0.2263(8) 0.1216(5) 0.1005(3)
N6_4 N 0.2604(8) 0.4261(6) 0.0958(4)
C83_6 C 0.1905(7) 0.1504(9) 0.0991(5)
H92_6 H 0.1648 0.1448 0.1085
C84_6 C 0.2196(8) 0.4047(8) 0.0972(4)
H93_6 H 0.1978 0.4143 0.1086
C85_6 C 0.2311(5) 0.2714(8) 0.0138(3)
C86_6 C 0.2292(5) 0.2312(6) 0.0270(4)
C87_6 C 0.2854(7) 0.3758(8) 0.0632(4)
H94_6 H 0.3073 0.3660 0.0519
Co1_6 Co 0.42783(13) 0.2748(2) 0.87287(10)
O1_6 O 0.4748(5) 0.2859(6) 0.9018(3)
O2_6 O 0.4791(7) 0.2877(6) 0.8507(4)
O3_6 O 0.5367(5) 0.3379(5) 0.8845(3)
O4_6 O 0.4169(6) 0.3395(7) 0.8680(5)
C1_6 C 0.3714(8) 0.2355(7) 0.9139(5)
H1_6 H 0.3904 0.2111 0.9122
O5_6 O 0.4437(6) 0.2119(6) 0.8759(4)
C2_6 C 0.4429(7) 0.3562(7) 0.8504(4)
C5_6 C 0.2240(10) 0.2579(7) 0.9060(5)
H5_6 H 0.1929 0.2586 0.9017
H6_6 H 0.2390 0.2820 0.8976
H7_6 H 0.2366 0.2301 0.9006
C6_6 C 0.1890(6) 0.2606(4) 0.9465(4)
C7_6 C 0.4765(7) 0.3264(8) 0.8413(4)
C8_6 C 0.1456(6) 0.2553(7) 0.9355(3)
C9_6 C 0.5038(7) 0.3411(9) 0.8212(4)
H8_6 H 0.5259 0.3224 0.8149
C10_6 C 0.3358(8) 0.2340(7) 0.9310(5)
H9_6 H 0.3325 0.2099 0.9420
C15_6 C 0.4091(10) 0.4278(13) 0.8805(5)
H14_6 H 0.3906 0.4057 0.8884
H15_6 H 0.4397 0.4224 0.8847
H16_6 H 0.4006 0.4568 0.8865
C16_6 C 0.3053(6) 0.2690(6) 0.9314(4)
C18_6 C 0.1318(7) 0.2884(6) 0.9189(4)
H17_6 H 0.1466 0.3156 0.9184
C19_6 C 0.4652(9) 0.4115(9) 0.8199(5)
H18_6 H 0.4618 0.4397 0.8126
C20_6 C 0.5415(9) 0.4349(11) 0.8766(5)
H19_6 H 0.5152 0.4529 0.8749
H20_6 H 0.5666 0.4506 0.8697
H21_6 H 0.5374 0.4074 0.8675
C22_6 C 0.1886(6) 0.2639(5) 0.9731(4)
C23_6 C 0.5234(8) 0.4016(10) 0.7906(5)
C24_6 C 0.5154(6) 0.3944(6) 0.9132(3)
C25_6 C 0.5102(7) 0.3547(6) 0.9022(4)
C26_6 C 0.4895(8) 0.4084(8) 0.9331(4)
H23_6 H 0.4942 0.4364 0.9402
C27_6 C 0.4772(7) 0.3265(7) 0.9114(4)
C29_6 C 0.4279(14) 0.3936(18) 0.9638(6)
C31_6 C 0.5500(12) 0.4671(8) 0.9196(6)
H26_6 H 0.5200 0.4749 0.9242
H27_6 H 0.5672 0.4625 0.9349
H28_6 H 0.5629 0.4908 0.9098
C32_6 C 0.4073(14) 0.4708(10) 0.8388(8)
H29_6 H 0.4019 0.4693 0.8207
H30_6 H 0.3859 0.4904 0.8465
H31_6 H 0.4368 0.4819 0.8418
C33_6 C 0.5537(12) 0.4375(11) 0.7987(7)
H32_6 H 0.5772 0.4252 0.8090
H33_6 H 0.5662 0.4517 0.7839
H34_6 H 0.5374 0.4590 0.8086
C34_6 C 0.1472(8) 0.2656(9) 0.9881(5)
H36_6 H 0.1288 0.2894 0.9819
H37_6 H 0.1316 0.2379 0.9865
C35_6 C 0.3607(9) 0.4045(11) 0.8455(5)
H38_6 H 0.3583 0.3969 0.8277
H39_6 H 0.3586 0.3779 0.8556
H40_6 H 0.3370 0.4245 0.8500
C37_6 C 0.5558(12) 0.3606(10) 0.7793(7)
H42_6 H 0.5749 0.3499 0.7927
H43_6 H 0.5375 0.3367 0.7732
H44_6 H 0.5737 0.3719 0.7655
C39_6 C 0.2291(8) 0.2625(4) 0.9333(3)
C41_6 C 0.2692(6) 0.2676(4) 0.9464(4)
C43_6 C 0.3087(8) 0.2768(9) 0.9861(5)
H48_6 H 0.3234 0.3029 0.9797
H50_6 H 0.3274 0.2513 0.9835
C45_6 C 0.3119(7) 0.3068(6) 0.9165(5)
H51_6 H 0.2915 0.3302 0.9170
C46_6 C 0.4980(8) 0.3829(10) 0.8108(4)
C48_6 C 0.4787(11) 0.1446(7) 0.8686(8)
H53_6 H 0.4575 0.1379 0.8554
H54_6 H 0.5079 0.1354 0.8632
H55_6 H 0.4707 0.1289 0.8840
O6_6 O 0.5124(7) 0.2135(7) 0.8731(5)
C49_6 C 0.4565(7) 0.3814(9) 0.9428(4)
C50_6 C 0.3905(16) 0.3669(17) 0.9741(10)
H56_6 H 0.4005 0.3371 0.9775
H57_6 H 0.3800 0.3802 0.9897
H58_6 H 0.3667 0.3661 0.9619
C51_6 C 0.412(2) 0.4369(16) 0.9534(10)
H59_6 H 0.4015 0.4552 0.9671
H60_6 H 0.4365 0.4517 0.9449
H61_6 H 0.3886 0.4317 0.9413
C52_6 C 0.4610(16) 0.397(2) 0.9850(10)
H62_6 H 0.4866 0.4132 0.9793
H63_6 H 0.4477 0.4119 0.9993
H64_6 H 0.4699 0.3674 0.9901
C53_6 C 0.0876(8) 0.2067(7) 0.9207(5)
H65_6 H 0.0727 0.1795 0.9213
N3_6 N 0.3784(5) 0.2737(8) 0.8995(3)
C54_6 C 0.5496(8) 0.4251(7) 0.9041(4)
C55_6 C 0.4029(8) 0.4257(7) 0.8501(6)
C57_6 C 0.3496(9) 0.3095(7) 0.9009(5)
H66_6 H 0.3552 0.3352 0.8915
C58_6 C 0.4374(7) 0.3981(8) 0.8398(4)
C59_6 C 0.0953(8) 0.2804(8) 0.9028(4)
H67_6 H 0.0857 0.3022 0.8914
C60_6 C 0.5927(11) 0.4010(12) 0.9064(7)
H68_6 H 0.6154 0.4169 0.8973
H69_6 H 0.6009 0.3988 0.9241
H70_6 H 0.5897 0.3716 0.8994
C61_6 C 0.2286(8) 0.2689(5) 0.9862(3)
C64_6 C 0.2688(6) 0.2708(5) 0.9730(4)
C65_6 C 0.1242(8) 0.2146(7) 0.9368(4)
H73_6 H 0.1340 0.1927 0.9481
C66_6 C 0.4514(8) 0.3409(9) 0.9314(4)
H74_6 H 0.4292 0.3220 0.9375
C67_6 C 0.4941(13) 0.4184(14) 0.7661(7)
H75_6 H 0.4862 0.4491 0.7684
H76_6 H 0.5114 0.4151 0.7508
H77_6 H 0.4675 0.4007 0.7648
C68_6 C 0.4787(10) 0.1937(10) 0.8737(12)
H84_6 H 0.2292 0.3457 0.9942
H88_6 H 0.2196 0.1973 0.9960
O7_6 O 0.9748(5) 0.2141(6) 0.9018(3)
O8_6 O 0.9791(7) 0.2123(6) 0.8507(4)
O10_6 O 0.9169(6) 0.1605(7) 0.8680(5)
O11_6 O 0.9437(6) 0.2881(6) 0.8759(4)
C107_6 C 0.9429(7) 0.1438(7) 0.8504(4)
C108_6 C 0.9765(7) 0.1736(8) 0.8413(4)
C110_6 C 0.9091(10) 0.0722(13) 0.8805(5)
H113_6 H 0.8906 0.0943 0.8884
H114_6 H 0.9397 0.0776 0.8847
H115_6 H 0.9006 0.0432 0.8865
C111_6 C 0.9652(9) 0.0885(9) 0.8199(5)
H116_6 H 0.9618 0.0603 0.8126
C116_6 C 0.9895(8) 0.0916(8) 0.9331(4)
H120_6 H 0.9942 0.0636 0.9402
C117_6 C 0.9772(7) 0.1735(7) 0.9114(4)
C118_6 C 0.9279(14) 0.1064(18) 0.9638(6)
C120_6 C 0.9073(14) 0.0292(10) 0.8388(8)
H124_6 H 0.9019 0.0307 0.8207
H125_6 H 0.8859 0.0096 0.8465
H126_6 H 0.9368 0.0181 0.8418
C122_6 C 0.8607(9) 0.0955(11) 0.8455(5)
H130_6 H 0.8583 0.1031 0.8277
H131_6 H 0.8586 0.1221 0.8556
H132_6 H 0.8370 0.0755 0.8500
C124_6 C 0.9980(8) 0.1171(10) 0.8108(4)
C125_6 C 0.9787(11) 0.3554(7) 0.8686(8)
H136_6 H 0.9575 0.3621 0.8554
H138_6 H 0.9707 0.3711 0.8840
C126_6 C 0.9565(7) 0.1186(9) 0.9428(4)
C127_6 C 0.8905(16) 0.1331(17) 0.9741(10)
H139_6 H 0.9005 0.1629 0.9775
H140_6 H 0.8800 0.1198 0.9897
H141_6 H 0.8667 0.1339 0.9619
C128_6 C 0.912(2) 0.0631(16) 0.9534(10)
H142_6 H 0.9015 0.0448 0.9671
H143_6 H 0.9365 0.0483 0.9449
H144_6 H 0.8886 0.0683 0.9413
C129_6 C 0.9610(16) 0.103(2) 0.9850(10)
H145_6 H 0.9866 0.0868 0.9793
H146_6 H 0.9477 0.0881 0.9993
H147_6 H 0.9699 0.1326 0.9901
C131_6 C 0.9029(8) 0.0743(7) 0.8501(6)
C132_6 C 0.9374(7) 0.1019(8) 0.8398(4)
C134_6 C 0.9514(8) 0.1591(9) 0.9314(4)
H151_6 H 0.9292 0.1780 0.9375
C135_6 C 0.9941(13) 0.0816(14) 0.7661(7)
H152_6 H 0.9862 0.0509 0.7684
H154_6 H 0.9675 0.0993 0.7648
C136_6 C 0.9787(10) 0.3063(10) 0.8737(12)
N10_6 N 0.3830(6) 0.2610(9) 0.8439(4)
N11_4 N 0.8784(5) 0.2263(8) 0.8995(3)
N13_4 N 0.5739(6) 0.2604(8) 0.9042(4)
Co1_7 Co 0.2748(2) 0.57217(13) 0.12713(10)
O1_7 O 0.2859(6) 0.5252(5) 0.0982(3)
O2_7 O 0.2877(6) 0.5209(7) 0.1493(4)
O3_7 O 0.3379(5) 0.4633(5) 0.1155(3)
O4_7 O 0.3395(7) 0.5831(6) 0.1320(5)
C1_7 C 0.2355(7) 0.6286(8) 0.0861(5)
H1_7 H 0.2111 0.6096 0.0878
O5_7 O 0.2119(6) 0.5563(6) 0.1241(4)
C2_7 C 0.3562(7) 0.5571(7) 0.1496(4)
C5_7 C 0.2579(7) 0.7760(10) 0.0940(5)
H5_7 H 0.2586 0.8071 0.0983
H6_7 H 0.2820 0.7610 0.1024
H7_7 H 0.2301 0.7634 0.0994
C6_7 C 0.2606(4) 0.8110(6) 0.0535(4)
C7_7 C 0.3264(8) 0.5235(7) 0.1587(4)
C8_7 C 0.2553(7) 0.8544(6) 0.0645(3)
C9_7 C 0.3411(9) 0.4962(7) 0.1788(4)
H8_7 H 0.3224 0.4741 0.1851
C10_7 C 0.2340(7) 0.6642(8) 0.0690(5)
H9_7 H 0.2099 0.6675 0.0580
C15_7 C 0.4278(13) 0.5909(10) 0.1195(5)
H14_7 H 0.4057 0.6094 0.1116
H15_7 H 0.4224 0.5603 0.1153
H16_7 H 0.4568 0.5994 0.1135
C16_7 C 0.2690(6) 0.6947(6) 0.0686(4)
C18_7 C 0.2884(6) 0.8682(7) 0.0811(4)
H17_7 H 0.3156 0.8534 0.0816
C19_7 C 0.4115(9) 0.5348(9) 0.1801(5)
H18_7 H 0.4397 0.5382 0.1874
C20_7 C 0.4349(11) 0.4585(9) 0.1234(5)
H19_7 H 0.4529 0.4848 0.1251
H20_7 H 0.4506 0.4334 0.1303
H21_7 H 0.4074 0.4626 0.1325
C22_7 C 0.2639(5) 0.8114(6) 0.0269(4)
C23_7 C 0.4016(10) 0.4766(8) 0.2094(5)
C24_7 C 0.3944(6) 0.4846(6) 0.0868(3)
C25_7 C 0.3547(6) 0.4898(7) 0.0978(4)
C26_7 C 0.4084(8) 0.5105(8) 0.0669(4)
H23_7 H 0.4364 0.5058 0.0598
C27_7 C 0.3265(7) 0.5228(7) 0.0886(4)
C29_7 C 0.3936(18) 0.5721(14) 0.0362(6)
C31_7 C 0.4671(8) 0.4500(12) 0.0804(6)
H26_7 H 0.4749 0.4800 0.0758
H27_7 H 0.4625 0.4328 0.0651
H28_7 H 0.4908 0.4371 0.0902
C32_7 C 0.4708(10) 0.5927(14) 0.1612(8)
H29_7 H 0.4693 0.5981 0.1793
H30_7 H 0.4904 0.6141 0.1535
H31_7 H 0.4819 0.5632 0.1582
C33_7 C 0.4375(11) 0.4463(12) 0.2013(7)
H32_7 H 0.4252 0.4228 0.1910
H33_7 H 0.4517 0.4338 0.2161
H34_7 H 0.4590 0.4626 0.1914
C34_7 C 0.2656(9) 0.8528(8) 0.0119(5)
H36_7 H 0.2894 0.8712 0.0181
H37_7 H 0.2379 0.8684 0.0135
C35_7 C 0.4045(11) 0.6393(9) 0.1545(5)
H38_7 H 0.3969 0.6417 0.1723
H39_7 H 0.3779 0.6414 0.1444
H40_7 H 0.4245 0.6630 0.1500
C37_7 C 0.3606(10) 0.4442(12) 0.2207(7)
H42_7 H 0.3499 0.4251 0.2073
H43_7 H 0.3367 0.4625 0.2268
H44_7 H 0.3719 0.4263 0.2345
C39_7 C 0.2625(4) 0.7709(8) 0.0667(3)
C41_7 C 0.2676(4) 0.7308(6) 0.0536(4)
C43_7 C 0.2768(9) 0.6913(8) 0.0139(5)
H48_7 H 0.3029 0.6766 0.0203
H50_7 H 0.2513 0.6726 0.0165
C45_7 C 0.3068(6) 0.6881(7) 0.0835(5)
H51_7 H 0.3302 0.7085 0.0830
C46_7 C 0.3829(10) 0.5020(8) 0.1892(4)
C48_7 C 0.1446(7) 0.5213(11) 0.1314(8)
H53_7 H 0.1379 0.5425 0.1446
H54_7 H 0.1354 0.4921 0.1368
H55_7 H 0.1289 0.5293 0.1160
O6_7 O 0.2135(7) 0.4876(7) 0.1269(5)
C49_7 C 0.3814(9) 0.5435(7) 0.0572(4)
C50_7 C 0.3669(17) 0.6095(16) 0.0259(10)
H56_7 H 0.3371 0.5995 0.0225
H57_7 H 0.3802 0.6200 0.0103
H58_7 H 0.3661 0.6333 0.0381
C51_7 C 0.4369(16) 0.588(2) 0.0466(10)
H59_7 H 0.4552 0.5985 0.0329
H60_7 H 0.4517 0.5635 0.0551
H61_7 H 0.4317 0.6114 0.0587
C52_7 C 0.397(2) 0.5390(16) 0.0150(10)
H62_7 H 0.4132 0.5134 0.0207
H63_7 H 0.4119 0.5523 0.0007
H64_7 H 0.3674 0.5301 0.0099
C53_7 C 0.2067(7) 0.9124(8) 0.0793(5)
H65_7 H 0.1795 0.9273 0.0787
N3_7 N 0.2737(8) 0.6216(5) 0.1005(3)
C54_7 C 0.4251(7) 0.4504(8) 0.0959(4)
C55_7 C 0.4257(7) 0.5971(8) 0.1499(6)
N4_4 N 0.2396(8) 0.9261(6) 0.0958(4)
C57_7 C 0.3095(7) 0.6504(9) 0.0991(5)
H66_7 H 0.3352 0.6448 0.1085
C58_7 C 0.3981(8) 0.5626(7) 0.1602(4)
C59_7 C 0.2804(8) 0.9047(8) 0.0972(4)
H67_7 H 0.3022 0.9143 0.1086
C60_7 C 0.4010(12) 0.4073(11) 0.0936(7)
H68_7 H 0.4169 0.3846 0.1027
H69_7 H 0.3988 0.3991 0.0759
H70_7 H 0.3716 0.4103 0.1006
C61_7 C 0.2689(5) 0.7714(8) 0.0138(3)
C64_7 C 0.2708(5) 0.7312(6) 0.0270(4)
C65_7 C 0.2146(7) 0.8758(8) 0.0632(4)
H73_7 H 0.1927 0.8660 0.0519
C66_7 C 0.3409(9) 0.5486(8) 0.0686(4)
H74_7 H 0.3220 0.5708 0.0625
C67_7 C 0.4184(14) 0.5059(13) 0.2339(7)
H75_7 H 0.4491 0.5138 0.2316
H76_7 H 0.4151 0.4886 0.2492
H77_7 H 0.4007 0.5325 0.2352
C68_7 C 0.1937(10) 0.5213(10) 0.1263(12)
H84_7 H 0.3457 0.7708 0.0058
H88_7 H 0.1973 0.7804 0.0040
O7_7 O 0.2141(6) 0.0252(5) 0.0982(3)
O8_7 O 0.2123(6) 0.0209(7) 0.1493(4)
O10_7 O 0.1605(7) 0.0831(6) 0.1320(5)
O11_7 O 0.2881(6) 0.0563(6) 0.1241(4)
C107_7 C 0.1438(7) 0.0571(7) 0.1496(4)
C108_7 C 0.1736(8) 0.0235(7) 0.1587(4)
C110_7 C 0.0722(13) 0.0909(10) 0.1195(5)
H113_7 H 0.0943 0.1094 0.1116
H114_7 H 0.0776 0.0603 0.1153
H115_7 H 0.0432 0.0994 0.1135
C111_7 C 0.0885(9) 0.0348(9) 0.1801(5)
H116_7 H 0.0603 0.0382 0.1874
C116_7 C 0.0916(8) 0.0105(8) 0.0669(4)
H120_7 H 0.0636 0.0058 0.0598
C117_7 C 0.1735(7) 0.0228(7) 0.0886(4)
C118_7 C 0.1064(18) 0.0721(14) 0.0362(6)
C120_7 C 0.0292(10) 0.0927(14) 0.1612(8)
H124_7 H 0.0307 0.0981 0.1793
H125_7 H 0.0096 0.1141 0.1535
H126_7 H 0.0181 0.0632 0.1582
C122_7 C 0.0955(11) 0.1393(9) 0.1545(5)
H130_7 H 0.1031 0.1417 0.1723
H131_7 H 0.1221 0.1414 0.1444
H132_7 H 0.0755 0.1630 0.1500
C124_7 C 0.1171(10) 0.0020(8) 0.1892(4)
C125_7 C 0.3554(7) 0.0213(11) 0.1314(8)
H136_7 H 0.3621 0.0425 0.1446
H138_7 H 0.3711 0.0293 0.1160
C126_7 C 0.1186(9) 0.0435(7) 0.0572(4)
C127_7 C 0.1331(17) 0.1095(16) 0.0259(10)
H139_7 H 0.1629 0.0995 0.0225
H140_7 H 0.1198 0.1200 0.0103
H141_7 H 0.1339 0.1333 0.0381
C128_7 C 0.0631(16) 0.088(2) 0.0466(10)
H142_7 H 0.0448 0.0985 0.0329
H143_7 H 0.0483 0.0635 0.0551
H144_7 H 0.0683 0.1114 0.0587
C129_7 C 0.103(2) 0.0390(16) 0.0150(10)
H145_7 H 0.0868 0.0134 0.0207
H146_7 H 0.0881 0.0523 0.0007
H147_7 H 0.1326 0.0301 0.0099
C131_7 C 0.0743(7) 0.0971(8) 0.1499(6)
C132_7 C 0.1019(8) 0.0626(7) 0.1602(4)
C134_7 C 0.1591(9) 0.0486(8) 0.0686(4)
H151_7 H 0.1780 0.0708 0.0625
C135_7 C 0.0816(14) 0.0059(13) 0.2339(7)
H152_7 H 0.0509 0.0138 0.2316
H154_7 H 0.0993 0.0325 0.2352
C136_7 C 0.3063(10) 0.0213(10) 0.1263(12)
Co9_4 Co 0.22309(19) 0.97312(16) 0.12304(11)
N10_7 N 0.2610(9) 0.6170(6) 0.1561(4)
H35_7 H 0.2708 0.8457 0.9942
H49_7 H 0.2804 0.6973 0.9960
C69_7 C 0.1286(8) 0.7355(7) 0.9139(5)
H78_7 H 0.1096 0.7111 0.9122
C70_7 C 0.2760(10) 0.7579(7) 0.9060(5)
H79_7 H 0.3071 0.7586 0.9017
H80_7 H 0.2610 0.7820 0.8976
H81_7 H 0.2634 0.7301 0.9006
C71_7 C 0.3110(6) 0.7606(4) 0.9465(4)
C72_7 C 0.3544(6) 0.7553(7) 0.9355(3)
C73_7 C 0.1642(8) 0.7340(7) 0.9310(5)
H82_7 H 0.1675 0.7099 0.9420
C74_7 C 0.1947(6) 0.7690(6) 0.9314(4)
C75_7 C 0.3682(7) 0.7884(6) 0.9189(4)
H83_7 H 0.3534 0.8156 0.9184
C76_7 C 0.3114(6) 0.7639(5) 0.9731(4)
C77_7 C 0.3528(8) 0.7656(9) 0.9881(5)
H85_7 H 0.3712 0.7894 0.9819
H86_7 H 0.3684 0.7379 0.9865
C78_7 C 0.2709(8) 0.7625(4) 0.9333(3)
C79_7 C 0.2308(6) 0.7676(4) 0.9464(4)
C80_7 C 0.1913(8) 0.7768(9) 0.9861(5)
H87_7 H 0.1766 0.8029 0.9797
H89_7 H 0.1726 0.7513 0.9835
C81_7 C 0.1881(7) 0.8068(6) 0.9165(5)
H90_7 H 0.2085 0.8302 0.9170
C82_7 C 0.4124(8) 0.7067(7) 0.9207(5)
H91_7 H 0.4273 0.6795 0.9213
C83_7 C 0.1504(9) 0.8095(7) 0.9009(5)
H92_7 H 0.1448 0.8352 0.8915
C84_7 C 0.4047(8) 0.7804(8) 0.9028(4)
H93_7 H 0.4143 0.8022 0.8914
C85_7 C 0.2714(8) 0.7689(5) 0.9862(3)
C86_7 C 0.2312(6) 0.7708(5) 0.9730(4)
C87_7 C 0.3758(8) 0.7146(7) 0.9368(4)
H94_7 H 0.3660 0.6927 0.9481
O9_7 O 0.1621(5) 0.9633(5) 0.1155(3)
C109_7 C 0.1589(9) 0.9962(7) 0.1788(4)
H112_7 H 0.1776 0.9741 0.1851
C112_7 C 0.0651(11) 0.9585(9) 0.1234(5)
H117_7 H 0.0471 0.9848 0.1251
H118_7 H 0.0494 0.9334 0.1303
H119_7 H 0.0926 0.9626 0.1325
C113_7 C 0.0984(10) 0.9766(8) 0.2094(5)
C114_7 C 0.1056(6) 0.9846(6) 0.0868(3)
C115_7 C 0.1453(6) 0.9898(7) 0.0978(4)
C119_7 C 0.0329(8) 0.9500(12) 0.0804(6)
H121_7 H 0.0251 0.9800 0.0758
H122_7 H 0.0375 0.9328 0.0651
H123_7 H 0.0092 0.9371 0.0902
C121_7 C 0.0625(11) 0.9463(12) 0.2013(7)
H127_7 H 0.0748 0.9228 0.1910
H128_7 H 0.0483 0.9338 0.2161
H129_7 H 0.0410 0.9626 0.1914
C123_7 C 0.1394(10) 0.9442(12) 0.2207(7)
H133_7 H 0.1501 0.9251 0.2073
H134_7 H 0.1633 0.9625 0.2268
H135_7 H 0.1281 0.9263 0.2345
H137_7 H 0.3646 0.9921 0.1368
O12_7 O 0.2865(7) 0.9876(7) 0.1269(5)
C130_7 C 0.0749(7) 0.9504(8) 0.0959(4)
C133_7 C 0.0990(12) 0.9073(11) 0.0936(7)
H148_7 H 0.0831 0.8846 0.1027
H149_7 H 0.1012 0.8991 0.0759
H150_7 H 0.1284 0.9103 0.1006
H153_7 H 0.0849 0.9886 0.2492
N9_7 N 0.2219(9) 0.9251(7) 0.1486(4)
Co4_4 Co 0.77691(19) 0.02688(16) 0.12304(11)
O9_8 O 0.8379(5) 0.0367(5) 0.1155(3)
C109_8 C 0.8411(9) 0.0038(7) 0.1788(4)
H112_8 H 0.8224 0.0259 0.1851
C112_8 C 0.9349(11) 0.0415(9) 0.1234(5)
H117_8 H 0.9529 0.0152 0.1251
H118_8 H 0.9506 0.0666 0.1303
H119_8 H 0.9074 0.0374 0.1325
C113_8 C 0.9016(10) 0.0234(8) 0.2094(5)
C114_8 C 0.8944(6) 0.0154(6) 0.0868(3)
C115_8 C 0.8547(6) 0.0102(7) 0.0978(4)
C119_8 C 0.9671(8) 0.0500(12) 0.0804(6)
H121_8 H 0.9749 0.0200 0.0758
H122_8 H 0.9625 0.0672 0.0651
H123_8 H 0.9908 0.0629 0.0902
C121_8 C 0.9375(11) 0.0537(12) 0.2013(7)
H127_8 H 0.9252 0.0772 0.1910
H128_8 H 0.9517 0.0662 0.2161
H129_8 H 0.9590 0.0374 0.1914
C123_8 C 0.8606(10) 0.0558(12) 0.2207(7)
H133_8 H 0.8499 0.0749 0.2073
H134_8 H 0.8367 0.0375 0.2268
H135_8 H 0.8719 0.0737 0.2345
H137_8 H 0.6354 0.0079 0.1368
O12_8 O 0.7135(7) 0.0124(7) 0.1269(5)
C130_8 C 0.9251(7) 0.0496(8) 0.0959(4)
C133_8 C 0.9010(12) 0.0927(11) 0.0936(7)
H148_8 H 0.9169 0.1154 0.1027
H149_8 H 0.8988 0.1009 0.0759
H150_8 H 0.8716 0.0897 0.1006
H153_8 H 0.9151 0.0114 0.2492
N9_8 N 0.7781(9) 0.0749(7) 0.1486(4)
N12_4 N 0.7604(8) 0.0739(6) 0.0958(4)
Co1_8 Co 0.7252(2) 0.42783(13) 0.12713(10)
O1_8 O 0.7141(6) 0.4748(5) 0.0982(3)
O2_8 O 0.7123(6) 0.4791(7) 0.1493(4)
O3_8 O 0.6621(5) 0.5367(5) 0.1155(3)
O4_8 O 0.6605(7) 0.4169(6) 0.1320(5)
C1_8 C 0.7645(7) 0.3714(8) 0.0861(5)
H1_8 H 0.7889 0.3904 0.0878
O5_8 O 0.7881(6) 0.4437(6) 0.1241(4)
C2_8 C 0.6438(7) 0.4429(7) 0.1496(4)
C5_8 C 0.7421(7) 0.2240(10) 0.0940(5)
H5_8 H 0.7414 0.1929 0.0983
H6_8 H 0.7180 0.2390 0.1024
H7_8 H 0.7699 0.2366 0.0994
C6_8 C 0.7394(4) 0.1890(6) 0.0535(4)
C7_8 C 0.6736(8) 0.4765(7) 0.1587(4)
C8_8 C 0.7447(7) 0.1456(6) 0.0645(3)
C9_8 C 0.6589(9) 0.5038(7) 0.1788(4)
H8_8 H 0.6776 0.5259 0.1851
C10_8 C 0.7660(7) 0.3358(8) 0.0690(5)
H9_8 H 0.7901 0.3325 0.0580
C15_8 C 0.5722(13) 0.4091(10) 0.1195(5)
H14_8 H 0.5943 0.3906 0.1116
H15_8 H 0.5776 0.4397 0.1153
H16_8 H 0.5432 0.4006 0.1135
C16_8 C 0.7310(6) 0.3053(6) 0.0686(4)
C18_8 C 0.7116(6) 0.1318(7) 0.0811(4)
H17_8 H 0.6844 0.1466 0.0816
C19_8 C 0.5885(9) 0.4652(9) 0.1801(5)
H18_8 H 0.5603 0.4618 0.1874
C20_8 C 0.5651(11) 0.5415(9) 0.1234(5)
H19_8 H 0.5471 0.5152 0.1251
H20_8 H 0.5494 0.5666 0.1303
H21_8 H 0.5926 0.5374 0.1325
C22_8 C 0.7361(5) 0.1886(6) 0.0269(4)
C23_8 C 0.5984(10) 0.5234(8) 0.2094(5)
C24_8 C 0.6056(6) 0.5154(6) 0.0868(3)
C25_8 C 0.6453(6) 0.5102(7) 0.0978(4)
C26_8 C 0.5916(8) 0.4895(8) 0.0669(4)
H23_8 H 0.5636 0.4942 0.0598
C27_8 C 0.6735(7) 0.4772(7) 0.0886(4)
C29_8 C 0.6064(18) 0.4279(14) 0.0362(6)
C31_8 C 0.5329(8) 0.5500(12) 0.0804(6)
H26_8 H 0.5251 0.5200 0.0758
H27_8 H 0.5375 0.5672 0.0651
H28_8 H 0.5092 0.5629 0.0902
C32_8 C 0.5292(10) 0.4073(14) 0.1612(8)
H29_8 H 0.5307 0.4019 0.1793
H30_8 H 0.5096 0.3859 0.1535
H31_8 H 0.5181 0.4368 0.1582
C33_8 C 0.5625(11) 0.5537(12) 0.2013(7)
H32_8 H 0.5748 0.5772 0.1910
H33_8 H 0.5483 0.5662 0.2161
H34_8 H 0.5410 0.5374 0.1914
C34_8 C 0.7344(9) 0.1472(8) 0.0119(5)
H36_8 H 0.7106 0.1288 0.0181
H37_8 H 0.7621 0.1316 0.0135
C35_8 C 0.5955(11) 0.3607(9) 0.1545(5)
H38_8 H 0.6031 0.3583 0.1723
H39_8 H 0.6221 0.3586 0.1444
H40_8 H 0.5755 0.3370 0.1500
C37_8 C 0.6394(10) 0.5558(12) 0.2207(7)
H42_8 H 0.6501 0.5749 0.2073
H43_8 H 0.6633 0.5375 0.2268
H44_8 H 0.6281 0.5737 0.2345
C39_8 C 0.7375(4) 0.2291(8) 0.0667(3)
C41_8 C 0.7324(4) 0.2692(6) 0.0536(4)
C43_8 C 0.7232(9) 0.3087(8) 0.0139(5)
H48_8 H 0.6971 0.3234 0.0203
H50_8 H 0.7487 0.3274 0.0165
C45_8 C 0.6932(6) 0.3119(7) 0.0835(5)
H51_8 H 0.6698 0.2915 0.0830
C46_8 C 0.6171(10) 0.4980(8) 0.1892(4)
C48_8 C 0.8554(7) 0.4787(11) 0.1314(8)
H53_8 H 0.8621 0.4575 0.1446
H54_8 H 0.8646 0.5079 0.1368
H55_8 H 0.8711 0.4707 0.1160
O6_8 O 0.7865(7) 0.5124(7) 0.1269(5)
C49_8 C 0.6186(9) 0.4565(7) 0.0572(4)
C50_8 C 0.6331(17) 0.3905(16) 0.0259(10)
H56_8 H 0.6629 0.4005 0.0225
H57_8 H 0.6198 0.3800 0.0103
H58_8 H 0.6339 0.3667 0.0381
C51_8 C 0.5631(16) 0.412(2) 0.0466(10)
H59_8 H 0.5448 0.4015 0.0329
H60_8 H 0.5483 0.4365 0.0551
H61_8 H 0.5683 0.3886 0.0587
C52_8 C 0.603(2) 0.4610(16) 0.0150(10)
H62_8 H 0.5868 0.4866 0.0207
H63_8 H 0.5881 0.4477 0.0007
H64_8 H 0.6326 0.4699 0.0099
C53_8 C 0.7933(7) 0.0876(8) 0.0793(5)
H65_8 H 0.8205 0.0727 0.0787
N3_8 N 0.7263(8) 0.3784(5) 0.1005(3)
C54_8 C 0.5749(7) 0.5496(8) 0.0959(4)
C55_8 C 0.5743(7) 0.4029(8) 0.1499(6)
C57_8 C 0.6905(7) 0.3496(9) 0.0991(5)
H66_8 H 0.6648 0.3552 0.1085
C58_8 C 0.6019(8) 0.4374(7) 0.1602(4)
C59_8 C 0.7196(8) 0.0953(8) 0.0972(4)
H67_8 H 0.6978 0.0857 0.1086
C60_8 C 0.5990(12) 0.5927(11) 0.0936(7)
H68_8 H 0.5831 0.6154 0.1027
H69_8 H 0.6012 0.6009 0.0759
H70_8 H 0.6284 0.5897 0.1006
C61_8 C 0.7311(5) 0.2286(8) 0.0138(3)
C64_8 C 0.7292(5) 0.2688(6) 0.0270(4)
C65_8 C 0.7854(7) 0.1242(8) 0.0632(4)
H73_8 H 0.8073 0.1340 0.0519
C66_8 C 0.6591(9) 0.4514(8) 0.0686(4)
H74_8 H 0.6780 0.4292 0.0625
C67_8 C 0.5816(14) 0.4941(13) 0.2339(7)
H75_8 H 0.5509 0.4862 0.2316
H76_8 H 0.5849 0.5114 0.2492
H77_8 H 0.5993 0.4675 0.2352
C68_8 C 0.8063(10) 0.4787(10) 0.1263(12)
H84_8 H 0.6543 0.2292 0.0058
H88_8 H 0.8027 0.2196 0.0040
O7_8 O 0.7859(6) 0.9748(5) 0.0982(3)
O8_8 O 0.7877(6) 0.9791(7) 0.1493(4)
O10_8 O 0.8395(7) 0.9169(6) 0.1320(5)
O11_8 O 0.7119(6) 0.9437(6) 0.1241(4)
C107_8 C 0.8562(7) 0.9429(7) 0.1496(4)
C108_8 C 0.8264(8) 0.9765(7) 0.1587(4)
C110_8 C 0.9278(13) 0.9091(10) 0.1195(5)
H113_8 H 0.9057 0.8906 0.1116
H114_8 H 0.9224 0.9397 0.1153
H115_8 H 0.9568 0.9006 0.1135
C111_8 C 0.9115(9) 0.9652(9) 0.1801(5)
H116_8 H 0.9397 0.9618 0.1874
C116_8 C 0.9084(8) 0.9895(8) 0.0669(4)
H120_8 H 0.9364 0.9942 0.0598
C117_8 C 0.8265(7) 0.9772(7) 0.0886(4)
C118_8 C 0.8936(18) 0.9279(14) 0.0362(6)
C120_8 C 0.9708(10) 0.9073(14) 0.1612(8)
H124_8 H 0.9693 0.9019 0.1793
H125_8 H 0.9904 0.8859 0.1535
H126_8 H 0.9819 0.9368 0.1582
C122_8 C 0.9045(11) 0.8607(9) 0.1545(5)
H130_8 H 0.8969 0.8583 0.1723
H131_8 H 0.8779 0.8586 0.1444
H132_8 H 0.9245 0.8370 0.1500
C124_8 C 0.8829(10) 0.9980(8) 0.1892(4)
C125_8 C 0.6446(7) 0.9787(11) 0.1314(8)
H136_8 H 0.6379 0.9575 0.1446
H138_8 H 0.6289 0.9707 0.1160
C126_8 C 0.8814(9) 0.9565(7) 0.0572(4)
C127_8 C 0.8669(17) 0.8905(16) 0.0259(10)
H139_8 H 0.8371 0.9005 0.0225
H140_8 H 0.8802 0.8800 0.0103
H141_8 H 0.8661 0.8667 0.0381
C128_8 C 0.9369(16) 0.912(2) 0.0466(10)
H142_8 H 0.9552 0.9015 0.0329
H143_8 H 0.9517 0.9365 0.0551
H144_8 H 0.9317 0.8886 0.0587
C129_8 C 0.897(2) 0.9610(16) 0.0150(10)
H145_8 H 0.9132 0.9866 0.0207
H146_8 H 0.9119 0.9477 0.0007
H147_8 H 0.8674 0.9699 0.0099
C131_8 C 0.9257(7) 0.9029(8) 0.1499(6)
C132_8 C 0.8981(8) 0.9374(7) 0.1602(4)
C134_8 C 0.8409(9) 0.9514(8) 0.0686(4)
H151_8 H 0.8220 0.9292 0.0625
C135_8 C 0.9184(14) 0.9941(13) 0.2339(7)
H152_8 H 0.9491 0.9862 0.2316
H154_8 H 0.9007 0.9675 0.2352
C136_8 C 0.6937(10) 0.9787(10) 0.1263(12)
N10_8 N 0.7390(9) 0.3830(6) 0.1561(4)
H35_8 H 0.7292 0.1543 0.9942
H49_8 H 0.7196 0.3027 0.9960
C69_8 C 0.8714(8) 0.2645(7) 0.9139(5)
H78_8 H 0.8904 0.2889 0.9122
C70_8 C 0.7240(10) 0.2421(7) 0.9060(5)
H79_8 H 0.6929 0.2414 0.9017
H80_8 H 0.7390 0.2180 0.8976
H81_8 H 0.7366 0.2699 0.9006
C71_8 C 0.6890(6) 0.2394(4) 0.9465(4)
C72_8 C 0.6456(6) 0.2447(7) 0.9355(3)
C73_8 C 0.8358(8) 0.2660(7) 0.9310(5)
H82_8 H 0.8325 0.2901 0.9420
C74_8 C 0.8053(6) 0.2310(6) 0.9314(4)
C75_8 C 0.6318(7) 0.2116(6) 0.9189(4)
H83_8 H 0.6466 0.1844 0.9184
C76_8 C 0.6886(6) 0.2361(5) 0.9731(4)
C77_8 C 0.6472(8) 0.2344(9) 0.9881(5)
H85_8 H 0.6288 0.2106 0.9819
H86_8 H 0.6316 0.2621 0.9865
C78_8 C 0.7291(8) 0.2375(4) 0.9333(3)
C79_8 C 0.7692(6) 0.2324(4) 0.9464(4)
C80_8 C 0.8087(8) 0.2232(9) 0.9861(5)
H87_8 H 0.8234 0.1971 0.9797
H89_8 H 0.8274 0.2487 0.9835
C81_8 C 0.8119(7) 0.1932(6) 0.9165(5)
H90_8 H 0.7915 0.1698 0.9170
C82_8 C 0.5876(8) 0.2933(7) 0.9207(5)
H91_8 H 0.5727 0.3205 0.9213
C83_8 C 0.8496(9) 0.1905(7) 0.9009(5)
H92_8 H 0.8552 0.1648 0.8915
C84_8 C 0.5953(8) 0.2196(8) 0.9028(4)
H93_8 H 0.5857 0.1978 0.8914
C85_8 C 0.7286(8) 0.2311(5) 0.9862(3)
C86_8 C 0.7688(6) 0.2292(5) 0.9730(4)
C87_8 C 0.6242(8) 0.2854(7) 0.9368(4)
H94_8 H 0.6340 0.3073 0.9481
C3_5 C 0.8525(12) 0.7770(12) 0.7643(6)
H2_5 H 0.8696 0.8013 0.7711
H3_5 H 0.8469 0.7821 0.7465
H4_5 H 0.8689 0.7497 0.7663
C4_5 C 0.8145(7) 0.7710(6) 0.8033(5)
C11_5 C 0.6751(7) 0.7889(6) 0.8310(4)
H10_5 H 0.6887 0.8168 0.8315
C12_5 C 0.6932(6) 0.7550(8) 0.8162(4)
C13_5 C 0.6887(11) 0.7709(11) 0.7607(6)
H11_5 H 0.6811 0.7419 0.7541
H12_5 H 0.6924 0.7913 0.7467
H13_5 H 0.6653 0.7812 0.7717
C14_5 C 0.8142(8) 0.7740(7) 0.7767(5)
C17_5 C 0.7352(7) 0.7611(9) 0.8029(6)
C21_5 C 0.6349(8) 0.7052(7) 0.8292(4)
H22_5 H 0.6213 0.6773 0.8287
C28_5 C 0.6734(7) 0.7132(7) 0.8151(4)
H24_5 H 0.6858 0.6908 0.8050
C30_5 C 0.8595(7) 0.8117(7) 0.8333(4)
H25_5 H 0.8403 0.8359 0.8316
C36_5 C 0.8969(8) 0.8147(8) 0.8491(4)
H41_5 H 0.9030 0.8410 0.8579
C38_5 C 0.7747(10) 0.7647(7) 0.8163(4)
C40_5 C 0.7744(11) 0.7573(10) 0.8456(5)
H45_5 H 0.7953 0.7343 0.8499
H46_5 H 0.7451 0.7485 0.8509
H47_5 H 0.7826 0.7845 0.8541
C42_5 C 0.7745(11) 0.7713(9) 0.7635(4)
C44_5 C 0.7344(8) 0.7677(7) 0.7765(6)
C47_5 C 0.6364(7) 0.7805(7) 0.8450(3)
H52_5 H 0.6238 0.8029 0.8551
C56_5 C 0.8511(6) 0.7726(7) 0.8203(3)
C62_5 C 0.8791(7) 0.7361(6) 0.8225(4)
H71_5 H 0.8728 0.7099 0.8137
C63_5 C 0.9168(7) 0.7389(8) 0.8382(4)
H72_5 H 0.9361 0.7148 0.8398
C88_5 C 0.7770(12) 0.8525(12) 0.7357(6)
H95_5 H 0.8013 0.8696 0.7289
H96_5 H 0.7821 0.8469 0.7535
H97_5 H 0.7497 0.8689 0.7337
C89_5 C 0.7710(6) 0.8145(7) 0.6967(5)
C90_5 C 0.7889(6) 0.6751(7) 0.6690(4)
H98_5 H 0.8168 0.6887 0.6685
C91_5 C 0.7550(8) 0.6932(6) 0.6838(4)
C92_5 C 0.7709(11) 0.6887(11) 0.7393(6)
H99_5 H 0.7419 0.6811 0.7459
H100_5 H 0.7913 0.6924 0.7533
H101_5 H 0.7812 0.6653 0.7283
C93_5 C 0.7740(7) 0.8142(8) 0.7233(5)
C94_5 C 0.7611(9) 0.7352(7) 0.6971(6)
C95_5 C 0.7052(7) 0.6349(8) 0.6708(4)
H102_5 H 0.6773 0.6213 0.6713
C96_5 C 0.7132(7) 0.6734(7) 0.6849(4)
H103_5 H 0.6908 0.6858 0.6950
C97_5 C 0.8117(7) 0.8595(7) 0.6667(4)
H104_5 H 0.8359 0.8403 0.6684
C98_5 C 0.8147(8) 0.8969(8) 0.6509(4)
H105_5 H 0.8410 0.9030 0.6421
C99_5 C 0.7647(7) 0.7747(10) 0.6837(4)
C100_5 C 0.7573(10) 0.7744(11) 0.6544(5)
H106_5 H 0.7343 0.7953 0.6501
H107_5 H 0.7485 0.7451 0.6491
H108_5 H 0.7845 0.7826 0.6459
C101_5 C 0.7713(9) 0.7745(11) 0.7365(4)
C102_5 C 0.7677(7) 0.7344(8) 0.7235(6)
C103_5 C 0.7805(7) 0.6364(7) 0.6550(3)
H109_5 H 0.8029 0.6238 0.6449
C104_5 C 0.7726(7) 0.8511(6) 0.6797(3)
C105_5 C 0.7361(6) 0.8791(7) 0.6775(4)
H110_5 H 0.7099 0.8728 0.6863
C106_5 C 0.7389(8) 0.9168(7) 0.6618(4)
H111_5 H 0.7148 0.9361 0.6602
C3_6 C 0.1475(12) 0.2230(12) 0.7643(6)
H2_6 H 0.1304 0.1987 0.7711
H3_6 H 0.1531 0.2179 0.7465
H4_6 H 0.1311 0.2503 0.7663
C4_6 C 0.1855(7) 0.2290(6) 0.8033(5)
C11_6 C 0.3249(7) 0.2111(6) 0.8310(4)
H10_6 H 0.3113 0.1832 0.8315
C12_6 C 0.3068(6) 0.2450(8) 0.8162(4)
C13_6 C 0.3113(11) 0.2291(11) 0.7607(6)
H11_6 H 0.3189 0.2581 0.7541
H12_6 H 0.3076 0.2087 0.7467
H13_6 H 0.3347 0.2188 0.7717
C14_6 C 0.1858(8) 0.2260(7) 0.7767(5)
C17_6 C 0.2648(7) 0.2389(9) 0.8029(6)
C21_6 C 0.3651(8) 0.2948(7) 0.8292(4)
H22_6 H 0.3787 0.3227 0.8287
C28_6 C 0.3266(7) 0.2868(7) 0.8151(4)
H24_6 H 0.3142 0.3092 0.8050
C30_6 C 0.1405(7) 0.1883(7) 0.8333(4)
H25_6 H 0.1597 0.1641 0.8316
C36_6 C 0.1031(8) 0.1853(8) 0.8491(4)
H41_6 H 0.0970 0.1590 0.8579
C38_6 C 0.2253(10) 0.2353(7) 0.8163(4)
C40_6 C 0.2256(11) 0.2427(10) 0.8456(5)
H45_6 H 0.2047 0.2657 0.8499
H46_6 H 0.2549 0.2515 0.8509
H47_6 H 0.2174 0.2155 0.8541
C42_6 C 0.2255(11) 0.2287(9) 0.7635(4)
C44_6 C 0.2656(8) 0.2323(7) 0.7765(6)
C47_6 C 0.3636(7) 0.2195(7) 0.8450(3)
H52_6 H 0.3762 0.1971 0.8551
C56_6 C 0.1489(6) 0.2274(7) 0.8203(3)
C62_6 C 0.1209(7) 0.2639(6) 0.8225(4)
H71_6 H 0.1272 0.2901 0.8137
C63_6 C 0.0832(7) 0.2611(8) 0.8382(4)
H72_6 H 0.0639 0.2852 0.8398
C88_6 C 0.2230(12) 0.1475(12) 0.7357(6)
H95_6 H 0.1987 0.1304 0.7289
H96_6 H 0.2179 0.1531 0.7535
H97_6 H 0.2503 0.1311 0.7337
C89_6 C 0.2290(6) 0.1855(7) 0.6967(5)
C90_6 C 0.2111(6) 0.3249(7) 0.6690(4)
H98_6 H 0.1832 0.3113 0.6685
C91_6 C 0.2450(8) 0.3068(6) 0.6838(4)
C92_6 C 0.2291(11) 0.3113(11) 0.7393(6)
H99_6 H 0.2581 0.3189 0.7459
H100_6 H 0.2087 0.3076 0.7533
H101_6 H 0.2188 0.3347 0.7283
C93_6 C 0.2260(7) 0.1858(8) 0.7233(5)
C94_6 C 0.2389(9) 0.2648(7) 0.6971(6)
C95_6 C 0.2948(7) 0.3651(8) 0.6708(4)
H102_6 H 0.3227 0.3787 0.6713
C96_6 C 0.2868(7) 0.3266(7) 0.6849(4)
H103_6 H 0.3092 0.3142 0.6950
C97_6 C 0.1883(7) 0.1405(7) 0.6667(4)
H104_6 H 0.1641 0.1597 0.6684
C98_6 C 0.1853(8) 0.1031(8) 0.6509(4)
H105_6 H 0.1590 0.0970 0.6421
C99_6 C 0.2353(7) 0.2253(10) 0.6837(4)
C100_6 C 0.2427(10) 0.2256(11) 0.6544(5)
H106_6 H 0.2657 0.2047 0.6501
H107_6 H 0.2515 0.2549 0.6491
H108_6 H 0.2155 0.2174 0.6459
C101_6 C 0.2287(9) 0.2255(11) 0.7365(4)
C102_6 C 0.2323(7) 0.2656(8) 0.7235(6)
C103_6 C 0.2195(7) 0.3636(7) 0.6550(3)
H109_6 H 0.1971 0.3762 0.6449
C104_6 C 0.2274(7) 0.1489(6) 0.6797(3)
C105_6 C 0.2639(6) 0.1209(7) 0.6775(4)
H110_6 H 0.2901 0.1272 0.6863
C106_6 C 0.2611(8) 0.0832(7) 0.6618(4)
H111_6 H 0.2852 0.0639 0.6602
C3_7 C 0.7770(12) 0.1475(12) 0.2357(6)
H2_7 H 0.8013 0.1304 0.2289
H3_7 H 0.7821 0.1531 0.2535
H4_7 H 0.7497 0.1311 0.2337
C4_7 C 0.7710(6) 0.1855(7) 0.1967(5)
C11_7 C 0.7889(6) 0.3249(7) 0.1690(4)
H10_7 H 0.8168 0.3113 0.1685
C12_7 C 0.7550(8) 0.3068(6) 0.1838(4)
C13_7 C 0.7709(11) 0.3113(11) 0.2393(6)
H11_7 H 0.7419 0.3189 0.2459
H12_7 H 0.7913 0.3076 0.2533
H13_7 H 0.7812 0.3347 0.2283
C14_7 C 0.7740(7) 0.1858(8) 0.2233(5)
C17_7 C 0.7611(9) 0.2648(7) 0.1971(6)
C21_7 C 0.7052(7) 0.3651(8) 0.1708(4)
H22_7 H 0.6773 0.3787 0.1713
C28_7 C 0.7132(7) 0.3266(7) 0.1849(4)
H24_7 H 0.6908 0.3142 0.1950
C30_7 C 0.8117(7) 0.1405(7) 0.1667(4)
H25_7 H 0.8359 0.1597 0.1684
C36_7 C 0.8147(8) 0.1031(8) 0.1509(4)
H41_7 H 0.8410 0.0970 0.1421
C38_7 C 0.7647(7) 0.2253(10) 0.1837(4)
C40_7 C 0.7573(10) 0.2256(11) 0.1544(5)
H45_7 H 0.7343 0.2047 0.1501
H46_7 H 0.7485 0.2549 0.1491
H47_7 H 0.7845 0.2174 0.1459
C42_7 C 0.7713(9) 0.2255(11) 0.2365(4)
C44_7 C 0.7677(7) 0.2656(8) 0.2235(6)
C47_7 C 0.7805(7) 0.3636(7) 0.1550(3)
H52_7 H 0.8029 0.3762 0.1449
C56_7 C 0.7726(7) 0.1489(6) 0.1797(3)
C62_7 C 0.7361(6) 0.1209(7) 0.1775(4)
H71_7 H 0.7099 0.1272 0.1863
C63_7 C 0.7389(8) 0.0832(7) 0.1618(4)
H72_7 H 0.7148 0.0639 0.1602
C88_7 C 0.8525(12) 0.2230(12) 0.2643(6)
H95_7 H 0.8696 0.1987 0.2711
H96_7 H 0.8469 0.2179 0.2465
H97_7 H 0.8689 0.2503 0.2663
C89_7 C 0.8145(7) 0.2290(6) 0.3033(5)
C90_7 C 0.6751(7) 0.2111(6) 0.3310(4)
H98_7 H 0.6887 0.1832 0.3315
C91_7 C 0.6932(6) 0.2450(8) 0.3162(4)
C92_7 C 0.6887(11) 0.2291(11) 0.2607(6)
H99_7 H 0.6811 0.2581 0.2541
H100_7 H 0.6924 0.2087 0.2467
H101_7 H 0.6653 0.2188 0.2717
C93_7 C 0.8142(8) 0.2260(7) 0.2767(5)
C94_7 C 0.7352(7) 0.2389(9) 0.3029(6)
C95_7 C 0.6349(8) 0.2948(7) 0.3292(4)
H102_7 H 0.6213 0.3227 0.3287
C96_7 C 0.6734(7) 0.2868(7) 0.3151(4)
H103_7 H 0.6858 0.3092 0.3050
C97_7 C 0.8595(7) 0.1883(7) 0.3333(4)
H104_7 H 0.8403 0.1641 0.3316
C98_7 C 0.8969(8) 0.1853(8) 0.3491(4)
H105_7 H 0.9030 0.1590 0.3579
C99_7 C 0.7747(10) 0.2353(7) 0.3163(4)
C100_7 C 0.7744(11) 0.2427(10) 0.3456(5)
H106_7 H 0.7953 0.2657 0.3499
H107_7 H 0.7451 0.2515 0.3509
H108_7 H 0.7826 0.2155 0.3541
C101_7 C 0.7745(11) 0.2287(9) 0.2635(4)
C102_7 C 0.7344(8) 0.2323(7) 0.2765(6)
C103_7 C 0.6364(7) 0.2195(7) 0.3450(3)
H109_7 H 0.6238 0.1971 0.3551
C104_7 C 0.8511(6) 0.2274(7) 0.3203(3)
C105_7 C 0.8791(7) 0.2639(6) 0.3225(4)
H110_7 H 0.8728 0.2901 0.3137
C106_7 C 0.9168(7) 0.2611(8) 0.3382(4)
H111_7 H 0.9361 0.2852 0.3398
C3_8 C 0.2230(12) 0.8525(12) 0.2357(6)
H2_8 H 0.1987 0.8696 0.2289
H3_8 H 0.2179 0.8469 0.2535
H4_8 H 0.2503 0.8689 0.2337
C4_8 C 0.2290(6) 0.8145(7) 0.1967(5)
C11_8 C 0.2111(6) 0.6751(7) 0.1690(4)
H10_8 H 0.1832 0.6887 0.1685
C12_8 C 0.2450(8) 0.6932(6) 0.1838(4)
C13_8 C 0.2291(11) 0.6887(11) 0.2393(6)
H11_8 H 0.2581 0.6811 0.2459
H12_8 H 0.2087 0.6924 0.2533
H13_8 H 0.2188 0.6653 0.2283
C14_8 C 0.2260(7) 0.8142(8) 0.2233(5)
C17_8 C 0.2389(9) 0.7352(7) 0.1971(6)
C21_8 C 0.2948(7) 0.6349(8) 0.1708(4)
H22_8 H 0.3227 0.6213 0.1713
C28_8 C 0.2868(7) 0.6734(7) 0.1849(4)
H24_8 H 0.3092 0.6858 0.1950
C30_8 C 0.1883(7) 0.8595(7) 0.1667(4)
H25_8 H 0.1641 0.8403 0.1684
C36_8 C 0.1853(8) 0.8969(8) 0.1509(4)
H41_8 H 0.1590 0.9030 0.1421
C38_8 C 0.2353(7) 0.7747(10) 0.1837(4)
C40_8 C 0.2427(10) 0.7744(11) 0.1544(5)
H45_8 H 0.2657 0.7953 0.1501
H46_8 H 0.2515 0.7451 0.1491
H47_8 H 0.2155 0.7826 0.1459
C42_8 C 0.2287(9) 0.7745(11) 0.2365(4)
C44_8 C 0.2323(7) 0.7344(8) 0.2235(6)
C47_8 C 0.2195(7) 0.6364(7) 0.1550(3)
H52_8 H 0.1971 0.6238 0.1449
C56_8 C 0.2274(7) 0.8511(6) 0.1797(3)
C62_8 C 0.2639(6) 0.8791(7) 0.1775(4)
H71_8 H 0.2901 0.8728 0.1863
C63_8 C 0.2611(8) 0.9168(7) 0.1618(4)
H72_8 H 0.2852 0.9361 0.1602
C88_8 C 0.1475(12) 0.7770(12) 0.2643(6)
H95_8 H 0.1304 0.8013 0.2711
H96_8 H 0.1531 0.7821 0.2465
H97_8 H 0.1311 0.7497 0.2663
C89_8 C 0.1855(7) 0.7710(6) 0.3033(5)
C90_8 C 0.3249(7) 0.7889(6) 0.3310(4)
H98_8 H 0.3113 0.8168 0.3315
C91_8 C 0.3068(6) 0.7550(8) 0.3162(4)
C92_8 C 0.3113(11) 0.7709(11) 0.2607(6)
H99_8 H 0.3189 0.7419 0.2541
H100_8 H 0.3076 0.7913 0.2467
H101_8 H 0.3347 0.7812 0.2717
C93_8 C 0.1858(8) 0.7740(7) 0.2767(5)
C94_8 C 0.2648(7) 0.7611(9) 0.3029(6)
C95_8 C 0.3651(8) 0.7052(7) 0.3292(4)
H102_8 H 0.3787 0.6773 0.3287
C96_8 C 0.3266(7) 0.7132(7) 0.3151(4)
H103_8 H 0.3142 0.6908 0.3050
C97_8 C 0.1405(7) 0.8117(7) 0.3333(4)
H104_8 H 0.1597 0.8359 0.3316
C98_8 C 0.1031(8) 0.8147(8) 0.3491(4)
H105_8 H 0.0970 0.8410 0.3579
C99_8 C 0.2253(10) 0.7647(7) 0.3163(4)
C100_8 C 0.2256(11) 0.7573(10) 0.3456(5)
H106_8 H 0.2047 0.7343 0.3499
H107_8 H 0.2549 0.7485 0.3509
H108_8 H 0.2174 0.7845 0.3541
C101_8 C 0.2255(11) 0.7713(9) 0.2635(4)
C102_8 C 0.2656(8) 0.7677(7) 0.2765(6)
C103_8 C 0.3636(7) 0.7805(7) 0.3450(3)
H109_8 H 0.3762 0.8029 0.3551
C104_8 C 0.1489(6) 0.7726(7) 0.3203(3)
C105_8 C 0.1209(7) 0.7361(6) 0.3225(4)
H110_8 H 0.1272 0.7099 0.3137
C106_8 C 0.0832(7) 0.7389(8) 0.3382(4)
H111_8 H 0.0639 0.7148 0.3398
loop_
_geom_bond_atom_site_label_1
_geom_bond_atom_site_label_2
_geom_bond_site_symmetry_1
_geom_bond_site_symmetry_2
Co1 O1 1_555 1_555
Co2 O1 1_555 1_555
O1 C27 1_555 1_555
O2 Co1 1_555 1_555
O3 Co2 1_555 1_555
O4 Co1 1_555 1_555
C1 H1 1_555 1_555
O5 Co1 1_555 1_555
C2 O4 1_555 1_555
C3 H2 1_555 1_555
H3 C3 1_555 1_555
H4 C3 1_555 1_555
C4 C14 1_555 1_555
C5 H5 1_555 1_555
H6 C5 1_555 1_555
H7 C5 1_555 1_555
C6 C8 1_555 1_555
C7 O2 1_555 1_555
C8 C18 1_555 1_555
C9 C7 1_555 1_555
H8 C9 1_555 1_555
C10 C1 1_555 1_555
H9 C10 1_555 1_555
C11 H10 1_555 1_555
C12 C11 1_555 1_555
C13 H11 1_555 1_555
H12 C13 1_555 1_555
H13 C13 1_555 1_555
C14 C3 1_555 1_555
C15 H14 1_555 1_555
H15 C15 1_555 1_555
H16 C15 1_555 1_555
C16 C10 1_555 1_555
C17 C12 1_555 1_555
C18 H17 1_555 1_555
C19 H18 1_555 1_555
C20 H19 1_555 1_555
H20 C20 1_555 1_555
H21 C20 1_555 1_555
C21 H22 1_555 1_555
C22 C6 1_555 1_555
C23 C33 1_555 1_555
C24 C25 1_555 1_555
C25 O3 1_555 1_555
C26 C24 1_555 1_555
H23 C26 1_555 1_555
C27 C25 1_555 1_555
C28 C12 1_555 1_555
H24 C28 1_555 1_555
C29 C49 1_555 1_555
C30 H25 1_555 1_555
C31 H26 1_555 1_555
H27 C31 1_555 1_555
H28 C31 1_555 1_555
C32 H29 1_555 1_555
H30 C32 1_555 1_555
H31 C32 1_555 1_555
C33 H32 1_555 1_555
H33 C33 1_555 1_555
H34 C33 1_555 1_555
C34 C22 1_555 1_555
H35 C34 1_555 1_555
H36 C34 1_555 1_555
H37 C34 1_555 1_555
C35 H38 1_555 1_555
H39 C35 1_555 1_555
H40 C35 1_555 1_555
C36 C30 1_555 1_555
H41 C36 1_555 1_555
C37 C23 1_555 1_555
H42 C37 1_555 1_555
H43 C37 1_555 1_555
H44 C37 1_555 1_555
C38 C4 1_555 1_555
C39 C5 1_555 1_555
C40 C38 1_555 1_555
H45 C40 1_555 1_555
H46 C40 1_555 1_555
H47 C40 1_555 1_555
C41 C16 1_555 1_555
C42 C14 1_555 1_555
C43 H48 1_555 1_555
H49 C43 1_555 1_555
H50 C43 1_555 1_555
N1 Co2 1_555 1_555
C44 C13 1_555 1_555
N2 C21 1_555 1_555
C45 C16 1_555 1_555
H51 C45 1_555 1_555
C46 C9 1_555 1_555
C47 C11 1_555 1_555
H52 C47 1_555 1_555
C48 H53 1_555 1_555
H54 C48 1_555 1_555
H55 C48 1_555 1_555
O6 Co2 1_555 1_555
C49 C26 1_555 1_555
C50 C29 1_555 1_555
H56 C50 1_555 1_555
H57 C50 1_555 1_555
H58 C50 1_555 1_555
C51 C29 1_555 1_555
H59 C51 1_555 1_555
H60 C51 1_555 1_555
H61 C51 1_555 1_555
C52 C29 1_555 1_555
H62 C52 1_555 1_555
H63 C52 1_555 1_555
H64 C52 1_555 1_555
C53 H65 1_555 1_555
N3 Co1 1_555 1_555
C54 C20 1_555 1_555
C55 C15 1_555 1_555
N4 C53 1_555 1_555
C56 C4 1_555 1_555
C57 C45 1_555 1_555
H66 C57 1_555 1_555
C58 C2 1_555 1_555
C59 C18 1_555 1_555
H67 C59 1_555 1_555
C60 C54 1_555 1_555
H68 C60 1_555 1_555
H69 C60 1_555 1_555
H70 C60 1_555 1_555
C61 C22 1_555 1_555
C62 C56 1_555 1_555
H71 C62 1_555 1_555
C63 N1 1_555 1_555
H72 C63 1_555 1_555
C64 C41 1_555 1_555
C65 C8 1_555 1_555
H73 C65 1_555 1_555
C66 C27 1_555 1_555
H74 C66 1_555 1_555
C67 C23 1_555 1_555
H75 C67 1_555 1_555
H76 C67 1_555 1_555
H77 C67 1_555 1_555
C68 O5 1_555 1_555
C69 H78 1_555 1_555
C70 H79 1_555 1_555
H80 C70 1_555 1_555
H81 C70 1_555 1_555
C71 C72 1_555 1_555
C72 C75 1_555 1_555
C73 C69 1_555 1_555
H82 C73 1_555 1_555
C74 C73 1_555 1_555
C75 H83 1_555 1_555
C76 C71 1_555 1_555
C77 C76 1_555 1_555
H84 C77 1_555 1_555
H85 C77 1_555 1_555
H86 C77 1_555 1_555
C78 C70 1_555 1_555
C79 C74 1_555 1_555
C80 H87 1_555 1_555
H88 C80 1_555 1_555
H89 C80 1_555 1_555
C81 C74 1_555 1_555
H90 C81 1_555 1_555
C82 H91 1_555 1_555
N5 C69 1_555 1_555
N6 C82 1_555 1_555
C83 C81 1_555 1_555
H92 C83 1_555 1_555
C84 C75 1_555 1_555
H93 C84 1_555 1_555
C85 C61 1_555 1_555
C86 C79 1_555 1_555
C87 C72 1_555 1_555
H94 C87 1_555 1_555
C88 H95 1_555 1_555
H96 C88 1_555 1_555
H97 C88 1_555 1_555
C89 C93 1_555 1_555
C90 H98 1_555 1_555
C91 C90 1_555 1_555
C92 H99 1_555 1_555
H100 C92 1_555 1_555
H101 C92 1_555 1_555
C93 C88 1_555 1_555
C94 C91 1_555 1_555
C95 H102 1_555 1_555
C96 C91 1_555 1_555
H103 C96 1_555 1_555
C97 H104 1_555 1_555
C98 C97 1_555 1_555
H105 C98 1_555 1_555
C99 C89 1_555 1_555
C100 C99 1_555 1_555
H106 C100 1_555 1_555
H107 C100 1_555 1_555
H108 C100 1_555 1_555
C101 C42 1_555 1_555
N7 C98 1_555 1_555
C102 C92 1_555 1_555
N8 C95 1_555 1_555
C103 C90 1_555 1_555
H109 C103 1_555 1_555
C104 C89 1_555 1_555
C105 C104 1_555 1_555
H110 C105 1_555 1_555
C106 N7 1_555 1_555
H111 C106 1_555 1_555
Co3 N2 1_555 1_555
O7 Co3 1_555 1_555
O8 Co3 1_555 1_555
O10 Co3 1_555 1_555
O11 Co3 1_555 1_555
C107 O10 1_555 1_555
C108 O8 1_555 1_555
C110 H113 1_555 1_555
H114 C110 1_555 1_555
H115 C110 1_555 1_555
C111 H116 1_555 1_555
H120 C116 1_555 1_555
C117 O7 1_555 1_555
C118 C126 1_555 1_555
C120 H124 1_555 1_555
H125 C120 1_555 1_555
H126 C120 1_555 1_555
C122 H130 1_555 1_555
H131 C122 1_555 1_555
H132 C122 1_555 1_555
C125 H136 1_555 1_555
H138 C125 1_555 1_555
C126 C116 1_555 1_555
C127 C118 1_555 1_555
H139 C127 1_555 1_555
H140 C127 1_555 1_555
H141 C127 1_555 1_555
C128 C118 1_555 1_555
H142 C128 1_555 1_555
H143 C128 1_555 1_555
H144 C128 1_555 1_555
C129 C118 1_555 1_555
H145 C129 1_555 1_555
H146 C129 1_555 1_555
H147 C129 1_555 1_555
C131 C110 1_555 1_555
C132 C107 1_555 1_555
C134 C117 1_555 1_555
H151 C134 1_555 1_555
H152 C135 1_555 1_555
H154 C135 1_555 1_555
C136 O11 1_555 1_555
Co5 N8 1_555 1_555
Co6 N5 1_555 1_555
Co7 N6 1_555 1_555
Co8 N7 1_555 1_555
Co9 N4 1_555 1_555
N10 Co1 1_555 1_555
N11 Co3 1_555 1_555
N13 Co2 1_555 1_555
Co2 O2 1_555 1_555
C1 N3 1_555 1_555
C2 C7 1_555 1_555
C6 C39 1_555 1_555
C17 C38 1_555 1_555
C17 C44 1_555 1_555
C19 C46 1_555 1_555
C19 C58 1_555 1_555
C21 C28 1_555 1_555
C23 C46 1_555 1_555
C24 C54 1_555 1_555
C30 C56 1_555 1_555
C31 C54 1_555 1_555
C32 C55 1_555 1_555
C35 C55 1_555 1_555
C36 N1 1_555 1_555
C39 C41 1_555 1_555
C42 C44 1_555 1_555
C43 C64 1_555 1_555
N2 C47 1_555 1_555
C48 C68 1_555 1_555
O6 C68 1_555 1_555
C49 C66 1_555 1_555
C53 C65 1_555 1_555
N3 C57 1_555 1_555
C55 C58 1_555 1_555
N4 C59 1_555 1_555
C61 C64 1_555 1_555
C62 C63 1_555 1_555
C71 C78 1_555 1_555
C76 C85 1_555 1_555
C78 C79 1_555 1_555
C80 C86 1_555 1_555
C82 C87 1_555 1_555
N5 C83 1_555 1_555
N6 C84 1_555 1_555
C85 C86 1_555 1_555
C93 C101 1_555 1_555
C94 C99 1_555 1_555
C94 C102 1_555 1_555
C95 C96 1_555 1_555
C97 C104 1_555 1_555
C101 C102 1_555 1_555
N8 C103 1_555 1_555
C105 C106 1_555 1_555
C107 C108 1_555 1_555
C111 C124 1_555 1_555
C111 C132 1_555 1_555
C120 C131 1_555 1_555
C122 C131 1_555 1_555
C125 C136 1_555 1_555
C126 C134 1_555 1_555
C131 C132 1_555 1_555
O9 Co9 1_555 1_555
H112 C109 1_555 1_555
C112 H117 1_555 1_555
H118 C112 1_555 1_555
H119 C112 1_555 1_555
C113 C121 1_555 1_555
C114 C115 1_555 1_555
C115 O9 1_555 1_555
C119 H121 1_555 1_555
H122 C119 1_555 1_555
H123 C119 1_555 1_555
C121 H127 1_555 1_555
H128 C121 1_555 1_555
H129 C121 1_555 1_555
C123 C113 1_555 1_555
H133 C123 1_555 1_555
H134 C123 1_555 1_555
H135 C123 1_555 1_555
O12 Co9 1_555 1_555
C130 C112 1_555 1_555
C133 C130 1_555 1_555
H148 C133 1_555 1_555
H149 C133 1_555 1_555
H150 C133 1_555 1_555
N9 Co9 1_555 1_555
C114 C130 1_555 1_555
C119 C130 1_555 1_555
O9_2 Co4 1_555 1_555
H112_2 C109_2 1_555 1_555
C112_2 H117_2 1_555 1_555
H118_2 C112_2 1_555 1_555
H119_2 C112_2 1_555 1_555
C113_2 C121_2 1_555 1_555
C114_2 C115_2 1_555 1_555
C115_2 O9_2 1_555 1_555
C119_2 H121_2 1_555 1_555
H122_2 C119_2 1_555 1_555
H123_2 C119_2 1_555 1_555
C121_2 H127_2 1_555 1_555
H128_2 C121_2 1_555 1_555
H129_2 C121_2 1_555 1_555
C123_2 C113_2 1_555 1_555
H133_2 C123_2 1_555 1_555
H134_2 C123_2 1_555 1_555
H135_2 C123_2 1_555 1_555
O12_2 Co4 1_555 1_555
C130_2 C112_2 1_555 1_555
C133_2 C130_2 1_555 1_555
H148_2 C133_2 1_555 1_555
H149_2 C133_2 1_555 1_555
H150_2 C133_2 1_555 1_555
N9_2 Co4 1_555 1_555
N12 Co4 1_555 1_555
C114_2 C130_2 1_555 1_555
C119_2 C130_2 1_555 1_555
Co1_2 O1_2 1_555 1_555
Co2_2 O1_2 1_555 1_555
O1_2 C27_2 1_555 1_555
O2_2 Co1_2 1_555 1_555
O3_2 Co2_2 1_555 1_555
O4_2 Co1_2 1_555 1_555
C1_2 H1_2 1_555 1_555
O5_2 Co1_2 1_555 1_555
C2_2 O4_2 1_555 1_555
C3_2 H2_2 1_555 1_555
H3_2 C3_2 1_555 1_555
H4_2 C3_2 1_555 1_555
C4_2 C14_2 1_555 1_555
C5_2 H5_2 1_555 1_555
H6_2 C5_2 1_555 1_555
H7_2 C5_2 1_555 1_555
C6_2 C8_2 1_555 1_555
C7_2 O2_2 1_555 1_555
C8_2 C18_2 1_555 1_555
C9_2 C7_2 1_555 1_555
H8_2 C9_2 1_555 1_555
C10_2 C1_2 1_555 1_555
H9_2 C10_2 1_555 1_555
C11_2 H10_2 1_555 1_555
C12_2 C11_2 1_555 1_555
C13_2 H11_2 1_555 1_555
H12_2 C13_2 1_555 1_555
H13_2 C13_2 1_555 1_555
C14_2 C3_2 1_555 1_555
C15_2 H14_2 1_555 1_555
H15_2 C15_2 1_555 1_555
H16_2 C15_2 1_555 1_555
C16_2 C10_2 1_555 1_555
C17_2 C12_2 1_555 1_555
C18_2 H17_2 1_555 1_555
C19_2 H18_2 1_555 1_555
C20_2 H19_2 1_555 1_555
H20_2 C20_2 1_555 1_555
H21_2 C20_2 1_555 1_555
C21_2 H22_2 1_555 1_555
C22_2 C6_2 1_555 1_555
C23_2 C33_2 1_555 1_555
C24_2 C25_2 1_555 1_555
C25_2 O3_2 1_555 1_555
C26_2 C24_2 1_555 1_555
H23_2 C26_2 1_555 1_555
C27_2 C25_2 1_555 1_555
C28_2 C12_2 1_555 1_555
H24_2 C28_2 1_555 1_555
C29_2 C49_2 1_555 1_555
C30_2 H25_2 1_555 1_555
C31_2 H26_2 1_555 1_555
H27_2 C31_2 1_555 1_555
H28_2 C31_2 1_555 1_555
C32_2 H29_2 1_555 1_555
H30_2 C32_2 1_555 1_555
H31_2 C32_2 1_555 1_555
C33_2 H32_2 1_555 1_555
H33_2 C33_2 1_555 1_555
H34_2 C33_2 1_555 1_555
C34_2 C22_2 1_555 1_555
H35_2 C34_2 1_555 1_555
H36_2 C34_2 1_555 1_555
H37_2 C34_2 1_555 1_555
C35_2 H38_2 1_555 1_555
H39_2 C35_2 1_555 1_555
H40_2 C35_2 1_555 1_555
C36_2 C30_2 1_555 1_555
H41_2 C36_2 1_555 1_555
C37_2 C23_2 1_555 1_555
H42_2 C37_2 1_555 1_555
H43_2 C37_2 1_555 1_555
H44_2 C37_2 1_555 1_555
C38_2 C4_2 1_555 1_555
C39_2 C5_2 1_555 1_555
C40_2 C38_2 1_555 1_555
H45_2 C40_2 1_555 1_555
H46_2 C40_2 1_555 1_555
H47_2 C40_2 1_555 1_555
C41_2 C16_2 1_555 1_555
C42_2 C14_2 1_555 1_555
C43_2 H48_2 1_555 1_555
H49_2 C43_2 1_555 1_555
H50_2 C43_2 1_555 1_555
N1_2 Co2_2 1_555 1_555
C44_2 C13_2 1_555 1_555
N2_2 C21_2 1_555 1_555
C45_2 C16_2 1_555 1_555
H51_2 C45_2 1_555 1_555
C46_2 C9_2 1_555 1_555
C47_2 C11_2 1_555 1_555
H52_2 C47_2 1_555 1_555
C48_2 H53_2 1_555 1_555
H54_2 C48_2 1_555 1_555
H55_2 C48_2 1_555 1_555
O6_2 Co2_2 1_555 1_555
C49_2 C26_2 1_555 1_555
C50_2 C29_2 1_555 1_555
H56_2 C50_2 1_555 1_555
H57_2 C50_2 1_555 1_555
H58_2 C50_2 1_555 1_555
C51_2 C29_2 1_555 1_555
H59_2 C51_2 1_555 1_555
H60_2 C51_2 1_555 1_555
H61_2 C51_2 1_555 1_555
C52_2 C29_2 1_555 1_555
H62_2 C52_2 1_555 1_555
H63_2 C52_2 1_555 1_555
H64_2 C52_2 1_555 1_555
C53_2 H65_2 1_555 1_555
N3_2 Co1_2 1_555 1_555
C54_2 C20_2 1_555 1_555
C55_2 C15_2 1_555 1_555
N12 C53_2 1_555 1_555
C56_2 C4_2 1_555 1_555
C57_2 C45_2 1_555 1_555
H66_2 C57_2 1_555 1_555
C58_2 C2_2 1_555 1_555
C59_2 C18_2 1_555 1_555
H67_2 C59_2 1_555 1_555
C60_2 C54_2 1_555 1_555
H68_2 C60_2 1_555 1_555
H69_2 C60_2 1_555 1_555
H70_2 C60_2 1_555 1_555
C61_2 C22_2 1_555 1_555
C62_2 C56_2 1_555 1_555
H71_2 C62_2 1_555 1_555
C63_2 N1_2 1_555 1_555
H72_2 C63_2 1_555 1_555
C64_2 C41_2 1_555 1_555
C65_2 C8_2 1_555 1_555
H73_2 C65_2 1_555 1_555
C66_2 C27_2 1_555 1_555
H74_2 C66_2 1_555 1_555
C67_2 C23_2 1_555 1_555
H75_2 C67_2 1_555 1_555
H76_2 C67_2 1_555 1_555
H77_2 C67_2 1_555 1_555
C68_2 O5_2 1_555 1_555
C69_2 H78_2 1_555 1_555
C70_2 H79_2 1_555 1_555
H80_2 C70_2 1_555 1_555
H81_2 C70_2 1_555 1_555
C71_2 C72_2 1_555 1_555
C72_2 C75_2 1_555 1_555
C73_2 C69_2 1_555 1_555
H82_2 C73_2 1_555 1_555
C74_2 C73_2 1_555 1_555
C75_2 H83_2 1_555 1_555
C76_2 C71_2 1_555 1_555
C77_2 C76_2 1_555 1_555
H84_2 C77_2 1_555 1_555
H85_2 C77_2 1_555 1_555
H86_2 C77_2 1_555 1_555
C78_2 C70_2 1_555 1_555
C79_2 C74_2 1_555 1_555
C80_2 H87_2 1_555 1_555
H88_2 C80_2 1_555 1_555
H89_2 C80_2 1_555 1_555
C81_2 C74_2 1_555 1_555
H90_2 C81_2 1_555 1_555
C82_2 H91_2 1_555 1_555
N5_2 C69_2 1_555 1_555
N6_2 C82_2 1_555 1_555
C83_2 C81_2 1_555 1_555
H92_2 C83_2 1_555 1_555
C84_2 C75_2 1_555 1_555
H93_2 C84_2 1_555 1_555
C85_2 C61_2 1_555 1_555
C86_2 C79_2 1_555 1_555
C87_2 C72_2 1_555 1_555
H94_2 C87_2 1_555 1_555
C88_2 H95_2 1_555 1_555
H96_2 C88_2 1_555 1_555
H97_2 C88_2 1_555 1_555
C89_2 C93_2 1_555 1_555
C90_2 H98_2 1_555 1_555
C91_2 C90_2 1_555 1_555
C92_2 H99_2 1_555 1_555
H100_2 C92_2 1_555 1_555
H101_2 C92_2 1_555 1_555
C93_2 C88_2 1_555 1_555
C94_2 C91_2 1_555 1_555
C95_2 H102_2 1_555 1_555
C96_2 C91_2 1_555 1_555
H103_2 C96_2 1_555 1_555
C97_2 H104_2 1_555 1_555
C98_2 C97_2 1_555 1_555
H105_2 C98_2 1_555 1_555
C99_2 C89_2 1_555 1_555
C100_2 C99_2 1_555 1_555
H106_2 C100_2 1_555 1_555
H107_2 C100_2 1_555 1_555
H108_2 C100_2 1_555 1_555
C101_2 C42_2 1_555 1_555
N7_2 C98_2 1_555 1_555
C102_2 C92_2 1_555 1_555
N8_2 C95_2 1_555 1_555
C103_2 C90_2 1_555 1_555
H109_2 C103_2 1_555 1_555
C104_2 C89_2 1_555 1_555
C105_2 C104_2 1_555 1_555
H110_2 C105_2 1_555 1_555
C106_2 N7_2 1_555 1_555
H111_2 C106_2 1_555 1_555
Co3_2 N2_2 1_555 1_555
O7_2 Co3_2 1_555 1_555
O8_2 Co3_2 1_555 1_555
O10_2 Co3_2 1_555 1_555
O11_2 Co3_2 1_555 1_555
C107_2 O10_2 1_555 1_555
C108_2 O8_2 1_555 1_555
C110_2 H113_2 1_555 1_555
H114_2 C110_2 1_555 1_555
H115_2 C110_2 1_555 1_555
C111_2 H116_2 1_555 1_555
H120_2 C116_2 1_555 1_555
C117_2 O7_2 1_555 1_555
C118_2 C126_2 1_555 1_555
C120_2 H124_2 1_555 1_555
H125_2 C120_2 1_555 1_555
H126_2 C120_2 1_555 1_555
C122_2 H130_2 1_555 1_555
H131_2 C122_2 1_555 1_555
H132_2 C122_2 1_555 1_555
C125_2 H136_2 1_555 1_555
H138_2 C125_2 1_555 1_555
C126_2 C116_2 1_555 1_555
C127_2 C118_2 1_555 1_555
H139_2 C127_2 1_555 1_555
H140_2 C127_2 1_555 1_555
H141_2 C127_2 1_555 1_555
C128_2 C118_2 1_555 1_555
H142_2 C128_2 1_555 1_555
H143_2 C128_2 1_555 1_555
H144_2 C128_2 1_555 1_555
C129_2 C118_2 1_555 1_555
H145_2 C129_2 1_555 1_555
H146_2 C129_2 1_555 1_555
H147_2 C129_2 1_555 1_555
C131_2 C110_2 1_555 1_555
C132_2 C107_2 1_555 1_555
C134_2 C117_2 1_555 1_555
H151_2 C134_2 1_555 1_555
H152_2 C135_2 1_555 1_555
H154_2 C135_2 1_555 1_555
C136_2 O11_2 1_555 1_555
Co5_2 N8_2 1_555 1_555
Co6_2 N5_2 1_555 1_555
Co7_2 N6_2 1_555 1_555
Co8_2 N7_2 1_555 1_555
N10_2 Co1_2 1_555 1_555
N11_2 Co3_2 1_555 1_555
N13_2 Co2_2 1_555 1_555
Co2_2 O2_2 1_555 1_555
C1_2 N3_2 1_555 1_555
C2_2 C7_2 1_555 1_555
C6_2 C39_2 1_555 1_555
C17_2 C38_2 1_555 1_555
C17_2 C44_2 1_555 1_555
C19_2 C46_2 1_555 1_555
C19_2 C58_2 1_555 1_555
C21_2 C28_2 1_555 1_555
C23_2 C46_2 1_555 1_555
C24_2 C54_2 1_555 1_555
C30_2 C56_2 1_555 1_555
C31_2 C54_2 1_555 1_555
C32_2 C55_2 1_555 1_555
C35_2 C55_2 1_555 1_555
C36_2 N1_2 1_555 1_555
C39_2 C41_2 1_555 1_555
C42_2 C44_2 1_555 1_555
C43_2 C64_2 1_555 1_555
N2_2 C47_2 1_555 1_555
C48_2 C68_2 1_555 1_555
O6_2 C68_2 1_555 1_555
C49_2 C66_2 1_555 1_555
C53_2 C65_2 1_555 1_555
N3_2 C57_2 1_555 1_555
C55_2 C58_2 1_555 1_555
N12 C59_2 1_555 1_555
C61_2 C64_2 1_555 1_555
C62_2 C63_2 1_555 1_555
C71_2 C78_2 1_555 1_555
C76_2 C85_2 1_555 1_555
C78_2 C79_2 1_555 1_555
C80_2 C86_2 1_555 1_555
C82_2 C87_2 1_555 1_555
N5_2 C83_2 1_555 1_555
N6_2 C84_2 1_555 1_555
C85_2 C86_2 1_555 1_555
C93_2 C101_2 1_555 1_555
C94_2 C99_2 1_555 1_555
C94_2 C102_2 1_555 1_555
C95_2 C96_2 1_555 1_555
C97_2 C104_2 1_555 1_555
C101_2 C102_2 1_555 1_555
N8_2 C103_2 1_555 1_555
C105_2 C106_2 1_555 1_555
C107_2 C108_2 1_555 1_555
C111_2 C124_2 1_555 1_555
C111_2 C132_2 1_555 1_555
C120_2 C131_2 1_555 1_555
C122_2 C131_2 1_555 1_555
C125_2 C136_2 1_555 1_555
C126_2 C134_2 1_555 1_555
C131_2 C132_2 1_555 1_555
O9_3 Co4_2 1_555 1_555
H112_3 C109_3 1_555 1_555
C112_3 H117_3 1_555 1_555
H118_3 C112_3 1_555 1_555
H119_3 C112_3 1_555 1_555
C113_3 C121_3 1_555 1_555
C114_3 C115_3 1_555 1_555
C115_3 O9_3 1_555 1_555
C119_3 H121_3 1_555 1_555
H122_3 C119_3 1_555 1_555
H123_3 C119_3 1_555 1_555
C121_3 H127_3 1_555 1_555
H128_3 C121_3 1_555 1_555
H129_3 C121_3 1_555 1_555
C123_3 C113_3 1_555 1_555
H133_3 C123_3 1_555 1_555
H134_3 C123_3 1_555 1_555
H135_3 C123_3 1_555 1_555
O12_3 Co4_2 1_555 1_555
C130_3 C112_3 1_555 1_555
C133_3 C130_3 1_555 1_555
H148_3 C133_3 1_555 1_555
H149_3 C133_3 1_555 1_555
H150_3 C133_3 1_555 1_555
N9_3 Co4_2 1_555 1_555
N12_2 Co4_2 1_555 1_555
C114_3 C130_3 1_555 1_555
C119_3 C130_3 1_555 1_555
Co1_3 O1_3 1_555 1_555
Co7_2 O1_3 1_555 1_555
O1_3 C27_3 1_555 1_555
O2_3 Co1_3 1_555 1_555
O3_3 Co7_2 1_555 1_555
O4_3 Co1_3 1_555 1_555
C1_3 H1_3 1_555 1_555
O5_3 Co1_3 1_555 1_555
C2_3 O4_3 1_555 1_555
C3_3 H2_3 1_555 1_555
H3_3 C3_3 1_555 1_555
H4_3 C3_3 1_555 1_555
C4_3 C14_3 1_555 1_555
C5_3 H5_3 1_555 1_555
H6_3 C5_3 1_555 1_555
H7_3 C5_3 1_555 1_555
C6_3 C8_3 1_555 1_555
C7_3 O2_3 1_555 1_555
C8_3 C18_3 1_555 1_555
C9_3 C7_3 1_555 1_555
H8_3 C9_3 1_555 1_555
C10_3 C1_3 1_555 1_555
H9_3 C10_3 1_555 1_555
C11_3 H10_3 1_555 1_555
C12_3 C11_3 1_555 1_555
C13_3 H11_3 1_555 1_555
H12_3 C13_3 1_555 1_555
H13_3 C13_3 1_555 1_555
C14_3 C3_3 1_555 1_555
C15_3 H14_3 1_555 1_555
H15_3 C15_3 1_555 1_555
H16_3 C15_3 1_555 1_555
C16_3 C10_3 1_555 1_555
C17_3 C12_3 1_555 1_555
C18_3 H17_3 1_555 1_555
C19_3 H18_3 1_555 1_555
C20_3 H19_3 1_555 1_555
H20_3 C20_3 1_555 1_555
H21_3 C20_3 1_555 1_555
C21_3 H22_3 1_555 1_555
C22_3 C6_3 1_555 1_555
C23_3 C33_3 1_555 1_555
C24_3 C25_3 1_555 1_555
C25_3 O3_3 1_555 1_555
C26_3 C24_3 1_555 1_555
H23_3 C26_3 1_555 1_555
C27_3 C25_3 1_555 1_555
C28_3 C12_3 1_555 1_555
H24_3 C28_3 1_555 1_555
C29_3 C49_3 1_555 1_555
C30_3 H25_3 1_555 1_555
C31_3 H26_3 1_555 1_555
H27_3 C31_3 1_555 1_555
H28_3 C31_3 1_555 1_555
C32_3 H29_3 1_555 1_555
H30_3 C32_3 1_555 1_555
H31_3 C32_3 1_555 1_555
C33_3 H32_3 1_555 1_555
H33_3 C33_3 1_555 1_555
H34_3 C33_3 1_555 1_555
C34_3 C22_3 1_555 1_555
H35_3 C34_3 1_555 1_555
H36_3 C34_3 1_555 1_555
H37_3 C34_3 1_555 1_555
C35_3 H38_3 1_555 1_555
H39_3 C35_3 1_555 1_555
H40_3 C35_3 1_555 1_555
C36_3 C30_3 1_555 1_555
H41_3 C36_3 1_555 1_555
C37_3 C23_3 1_555 1_555
H42_3 C37_3 1_555 1_555
H43_3 C37_3 1_555 1_555
H44_3 C37_3 1_555 1_555
C38_3 C4_3 1_555 1_555
C39_3 C5_3 1_555 1_555
C40_3 C38_3 1_555 1_555
H45_3 C40_3 1_555 1_555
H46_3 C40_3 1_555 1_555
H47_3 C40_3 1_555 1_555
C41_3 C16_3 1_555 1_555
C42_3 C14_3 1_555 1_555
C43_3 H48_3 1_555 1_555
H49_3 C43_3 1_555 1_555
H50_3 C43_3 1_555 1_555
N1_3 Co7_2 1_555 1_555
C44_3 C13_3 1_555 1_555
N2_3 C21_3 1_555 1_555
C45_3 C16_3 1_555 1_555
H51_3 C45_3 1_555 1_555
C46_3 C9_3 1_555 1_555
C47_3 C11_3 1_555 1_555
H52_3 C47_3 1_555 1_555
C48_3 H53_3 1_555 1_555
H54_3 C48_3 1_555 1_555
H55_3 C48_3 1_555 1_555
O6_3 Co7_2 1_555 1_555
C49_3 C26_3 1_555 1_555
C50_3 C29_3 1_555 1_555
H56_3 C50_3 1_555 1_555
H57_3 C50_3 1_555 1_555
H58_3 C50_3 1_555 1_555
C51_3 C29_3 1_555 1_555
H59_3 C51_3 1_555 1_555
H60_3 C51_3 1_555 1_555
H61_3 C51_3 1_555 1_555
C52_3 C29_3 1_555 1_555
H62_3 C52_3 1_555 1_555
H63_3 C52_3 1_555 1_555
H64_3 C52_3 1_555 1_555
C53_3 H65_3 1_555 1_555
N3_3 Co1_3 1_555 1_555
C54_3 C20_3 1_555 1_555
C55_3 C15_3 1_555 1_555
N12_2 C53_3 1_555 1_555
C56_3 C4_3 1_555 1_555
C57_3 C45_3 1_555 1_555
H66_3 C57_3 1_555 1_555
C58_3 C2_3 1_555 1_555
C59_3 C18_3 1_555 1_555
H67_3 C59_3 1_555 1_555
C60_3 C54_3 1_555 1_555
H68_3 C60_3 1_555 1_555
H69_3 C60_3 1_555 1_555
H70_3 C60_3 1_555 1_555
C61_3 C22_3 1_555 1_555
C62_3 C56_3 1_555 1_555
H71_3 C62_3 1_555 1_555
C63_3 N1_3 1_555 1_555
H72_3 C63_3 1_555 1_555
C64_3 C41_3 1_555 1_555
C65_3 C8_3 1_555 1_555
H73_3 C65_3 1_555 1_555
C66_3 C27_3 1_555 1_555
H74_3 C66_3 1_555 1_555
C67_3 C23_3 1_555 1_555
H75_3 C67_3 1_555 1_555
H76_3 C67_3 1_555 1_555
H77_3 C67_3 1_555 1_555
C68_3 O5_3 1_555 1_555
C69_3 H78_3 1_555 1_555
C70_3 H79_3 1_555 1_555
H80_3 C70_3 1_555 1_555
H81_3 C70_3 1_555 1_555
C71_3 C72_3 1_555 1_555
C72_3 C75_3 1_555 1_555
C73_3 C69_3 1_555 1_555
H82_3 C73_3 1_555 1_555
C74_3 C73_3 1_555 1_555
C75_3 H83_3 1_555 1_555
C76_3 C71_3 1_555 1_555
C77_3 C76_3 1_555 1_555
H84_3 C77_3 1_555 1_555
H85_3 C77_3 1_555 1_555
H86_3 C77_3 1_555 1_555
C78_3 C70_3 1_555 1_555
C79_3 C74_3 1_555 1_555
C80_3 H87_3 1_555 1_555
H88_3 C80_3 1_555 1_555
H89_3 C80_3 1_555 1_555
C81_3 C74_3 1_555 1_555
H90_3 C81_3 1_555 1_555
C82_3 H91_3 1_555 1_555
N11 C69_3 1_555 1_555
N13 C82_3 1_555 1_555
C83_3 C81_3 1_555 1_555
H92_3 C83_3 1_555 1_555
C84_3 C75_3 1_555 1_555
H93_3 C84_3 1_555 1_555
C85_3 C61_3 1_555 1_555
C86_3 C79_3 1_555 1_555
C87_3 C72_3 1_555 1_555
H94_3 C87_3 1_555 1_555
C88_3 H95_3 1_555 1_555
H96_3 C88_3 1_555 1_555
H97_3 C88_3 1_555 1_555
C89_3 C93_3 1_555 1_555
C90_3 H98_3 1_555 1_555
C91_3 C90_3 1_555 1_555
C92_3 H99_3 1_555 1_555
H100_3 C92_3 1_555 1_555
H101_3 C92_3 1_555 1_555
C93_3 C88_3 1_555 1_555
C94_3 C91_3 1_555 1_555
C95_3 H102_3 1_555 1_555
C96_3 C91_3 1_555 1_555
H103_3 C96_3 1_555 1_555
C97_3 H104_3 1_555 1_555
C98_3 C97_3 1_555 1_555
H105_3 C98_3 1_555 1_555
C99_3 C89_3 1_555 1_555
C100_3 C99_3 1_555 1_555
H106_3 C100_3 1_555 1_555
H107_3 C100_3 1_555 1_555
H108_3 C100_3 1_555 1_555
C101_3 C42_3 1_555 1_555
N7_3 C98_3 1_555 1_555
C102_3 C92_3 1_555 1_555
N8_3 C95_3 1_555 1_555
C103_3 C90_3 1_555 1_555
H109_3 C103_3 1_555 1_555
C104_3 C89_3 1_555 1_555
C105_3 C104_3 1_555 1_555
H110_3 C105_3 1_555 1_555
C106_3 N7_3 1_555 1_555
H111_3 C106_3 1_555 1_555
Co6_2 N2_3 1_555 1_555
O7_3 Co6_2 1_555 1_555
O8_3 Co6_2 1_555 1_555
O10_3 Co6_2 1_555 1_555
O11_3 Co6_2 1_555 1_555
C107_3 O10_3 1_555 1_555
C108_3 O8_3 1_555 1_555
C110_3 H113_3 1_555 1_555
H114_3 C110_3 1_555 1_555
H115_3 C110_3 1_555 1_555
C111_3 H116_3 1_555 1_555
H120_3 C116_3 1_555 1_555
C117_3 O7_3 1_555 1_555
C118_3 C126_3 1_555 1_555
C120_3 H124_3 1_555 1_555
H125_3 C120_3 1_555 1_555
H126_3 C120_3 1_555 1_555
C122_3 H130_3 1_555 1_555
H131_3 C122_3 1_555 1_555
H132_3 C122_3 1_555 1_555
C125_3 H136_3 1_555 1_555
H138_3 C125_3 1_555 1_555
C126_3 C116_3 1_555 1_555
C127_3 C118_3 1_555 1_555
H139_3 C127_3 1_555 1_555
H140_3 C127_3 1_555 1_555
H141_3 C127_3 1_555 1_555
C128_3 C118_3 1_555 1_555
H142_3 C128_3 1_555 1_555
H143_3 C128_3 1_555 1_555
H144_3 C128_3 1_555 1_555
C129_3 C118_3 1_555 1_555
H145_3 C129_3 1_555 1_555
H146_3 C129_3 1_555 1_555
H147_3 C129_3 1_555 1_555
C131_3 C110_3 1_555 1_555
C132_3 C107_3 1_555 1_555
C134_3 C117_3 1_555 1_555
H151_3 C134_3 1_555 1_555
H152_3 C135_3 1_555 1_555
H154_3 C135_3 1_555 1_555
C136_3 O11_3 1_555 1_555
Co5_3 N8_3 1_555 1_555
Co8_3 N7_3 1_555 1_555
N10_3 Co1_3 1_555 1_555
Co7_2 O2_3 1_555 1_555
C1_3 N3_3 1_555 1_555
C2_3 C7_3 1_555 1_555
C6_3 C39_3 1_555 1_555
C17_3 C38_3 1_555 1_555
C17_3 C44_3 1_555 1_555
C19_3 C46_3 1_555 1_555
C19_3 C58_3 1_555 1_555
C21_3 C28_3 1_555 1_555
C23_3 C46_3 1_555 1_555
C24_3 C54_3 1_555 1_555
C30_3 C56_3 1_555 1_555
C31_3 C54_3 1_555 1_555
C32_3 C55_3 1_555 1_555
C35_3 C55_3 1_555 1_555
C36_3 N1_3 1_555 1_555
C39_3 C41_3 1_555 1_555
C42_3 C44_3 1_555 1_555
C43_3 C64_3 1_555 1_555
N2_3 C47_3 1_555 1_555
C48_3 C68_3 1_555 1_555
O6_3 C68_3 1_555 1_555
C49_3 C66_3 1_555 1_555
C53_3 C65_3 1_555 1_555
N3_3 C57_3 1_555 1_555
C55_3 C58_3 1_555 1_555
N12_2 C59_3 1_555 1_555
C61_3 C64_3 1_555 1_555
C62_3 C63_3 1_555 1_555
C71_3 C78_3 1_555 1_555
C76_3 C85_3 1_555 1_555
C78_3 C79_3 1_555 1_555
C80_3 C86_3 1_555 1_555
C82_3 C87_3 1_555 1_555
N11 C83_3 1_555 1_555
N13 C84_3 1_555 1_555
C85_3 C86_3 1_555 1_555
C93_3 C101_3 1_555 1_555
C94_3 C99_3 1_555 1_555
C94_3 C102_3 1_555 1_555
C95_3 C96_3 1_555 1_555
C97_3 C104_3 1_555 1_555
C101_3 C102_3 1_555 1_555
N8_3 C103_3 1_555 1_555
C105_3 C106_3 1_555 1_555
C107_3 C108_3 1_555 1_555
C111_3 C124_3 1_555 1_555
C111_3 C132_3 1_555 1_555
C120_3 C131_3 1_555 1_555
C122_3 C131_3 1_555 1_555
C125_3 C136_3 1_555 1_555
C126_3 C134_3 1_555 1_555
C131_3 C132_3 1_555 1_555
Co1_4 O1_4 1_555 1_555
Co7 O1_4 1_555 1_555
O1_4 C27_4 1_555 1_555
O2_4 Co1_4 1_555 1_555
O3_4 Co7 1_555 1_555
O4_4 Co1_4 1_555 1_555
C1_4 H1_4 1_555 1_555
O5_4 Co1_4 1_555 1_555
C2_4 O4_4 1_555 1_555
C3_4 H2_4 1_555 1_555
H3_4 C3_4 1_555 1_555
H4_4 C3_4 1_555 1_555
C4_4 C14_4 1_555 1_555
C5_4 H5_4 1_555 1_555
H6_4 C5_4 1_555 1_555
H7_4 C5_4 1_555 1_555
C6_4 C8_4 1_555 1_555
C7_4 O2_4 1_555 1_555
C8_4 C18_4 1_555 1_555
C9_4 C7_4 1_555 1_555
H8_4 C9_4 1_555 1_555
C10_4 C1_4 1_555 1_555
H9_4 C10_4 1_555 1_555
C11_4 H10_4 1_555 1_555
C12_4 C11_4 1_555 1_555
C13_4 H11_4 1_555 1_555
H12_4 C13_4 1_555 1_555
H13_4 C13_4 1_555 1_555
C14_4 C3_4 1_555 1_555
C15_4 H14_4 1_555 1_555
H15_4 C15_4 1_555 1_555
H16_4 C15_4 1_555 1_555
C16_4 C10_4 1_555 1_555
C17_4 C12_4 1_555 1_555
C18_4 H17_4 1_555 1_555
C19_4 H18_4 1_555 1_555
C20_4 H19_4 1_555 1_555
H20_4 C20_4 1_555 1_555
H21_4 C20_4 1_555 1_555
C21_4 H22_4 1_555 1_555
C22_4 C6_4 1_555 1_555
C23_4 C33_4 1_555 1_555
C24_4 C25_4 1_555 1_555
C25_4 O3_4 1_555 1_555
C26_4 C24_4 1_555 1_555
H23_4 C26_4 1_555 1_555
C27_4 C25_4 1_555 1_555
C28_4 C12_4 1_555 1_555
H24_4 C28_4 1_555 1_555
C29_4 C49_4 1_555 1_555
C30_4 H25_4 1_555 1_555
C31_4 H26_4 1_555 1_555
H27_4 C31_4 1_555 1_555
H28_4 C31_4 1_555 1_555
C32_4 H29_4 1_555 1_555
H30_4 C32_4 1_555 1_555
H31_4 C32_4 1_555 1_555
C33_4 H32_4 1_555 1_555
H33_4 C33_4 1_555 1_555
H34_4 C33_4 1_555 1_555
C34_4 C22_4 1_555 1_555
H35_4 C34_4 1_555 1_555
H36_4 C34_4 1_555 1_555
H37_4 C34_4 1_555 1_555
C35_4 H38_4 1_555 1_555
H39_4 C35_4 1_555 1_555
H40_4 C35_4 1_555 1_555
C36_4 C30_4 1_555 1_555
H41_4 C36_4 1_555 1_555
C37_4 C23_4 1_555 1_555
H42_4 C37_4 1_555 1_555
H43_4 C37_4 1_555 1_555
H44_4 C37_4 1_555 1_555
C38_4 C4_4 1_555 1_555
C39_4 C5_4 1_555 1_555
C40_4 C38_4 1_555 1_555
H45_4 C40_4 1_555 1_555
H46_4 C40_4 1_555 1_555
H47_4 C40_4 1_555 1_555
C41_4 C16_4 1_555 1_555
C42_4 C14_4 1_555 1_555
C43_4 H48_4 1_555 1_555
H49_4 C43_4 1_555 1_555
H50_4 C43_4 1_555 1_555
N1_4 Co7 1_555 1_555
C44_4 C13_4 1_555 1_555
N2_4 C21_4 1_555 1_555
C45_4 C16_4 1_555 1_555
H51_4 C45_4 1_555 1_555
C46_4 C9_4 1_555 1_555
C47_4 C11_4 1_555 1_555
H52_4 C47_4 1_555 1_555
C48_4 H53_4 1_555 1_555
H54_4 C48_4 1_555 1_555
H55_4 C48_4 1_555 1_555
O6_4 Co7 1_555 1_555
C49_4 C26_4 1_555 1_555
C50_4 C29_4 1_555 1_555
H56_4 C50_4 1_555 1_555
H57_4 C50_4 1_555 1_555
H58_4 C50_4 1_555 1_555
C51_4 C29_4 1_555 1_555
H59_4 C51_4 1_555 1_555
H60_4 C51_4 1_555 1_555
H61_4 C51_4 1_555 1_555
C52_4 C29_4 1_555 1_555
H62_4 C52_4 1_555 1_555
H63_4 C52_4 1_555 1_555
H64_4 C52_4 1_555 1_555
C53_4 H65_4 1_555 1_555
N3_4 Co1_4 1_555 1_555
C54_4 C20_4 1_555 1_555
C55_4 C15_4 1_555 1_555
N4_2 C53_4 1_555 1_555
C56_4 C4_4 1_555 1_555
C57_4 C45_4 1_555 1_555
H66_4 C57_4 1_555 1_555
C58_4 C2_4 1_555 1_555
C59_4 C18_4 1_555 1_555
H67_4 C59_4 1_555 1_555
C60_4 C54_4 1_555 1_555
H68_4 C60_4 1_555 1_555
H69_4 C60_4 1_555 1_555
H70_4 C60_4 1_555 1_555
C61_4 C22_4 1_555 1_555
C62_4 C56_4 1_555 1_555
H71_4 C62_4 1_555 1_555
C63_4 N1_4 1_555 1_555
H72_4 C63_4 1_555 1_555
C64_4 C41_4 1_555 1_555
C65_4 C8_4 1_555 1_555
H73_4 C65_4 1_555 1_555
C66_4 C27_4 1_555 1_555
H74_4 C66_4 1_555 1_555
C67_4 C23_4 1_555 1_555
H75_4 C67_4 1_555 1_555
H76_4 C67_4 1_555 1_555
H77_4 C67_4 1_555 1_555
C68_4 O5_4 1_555 1_555
C69_4 H78_4 1_555 1_555
C70_4 H79_4 1_555 1_555
H80_4 C70_4 1_555 1_555
H81_4 C70_4 1_555 1_555
C71_4 C72_4 1_555 1_555
C72_4 C75_4 1_555 1_555
C73_4 C69_4 1_555 1_555
H82_4 C73_4 1_555 1_555
C74_4 C73_4 1_555 1_555
C75_4 H83_4 1_555 1_555
C76_4 C71_4 1_555 1_555
C77_4 C76_4 1_555 1_555
H84_4 C77_4 1_555 1_555
H85_4 C77_4 1_555 1_555
H86_4 C77_4 1_555 1_555
C78_4 C70_4 1_555 1_555
C79_4 C74_4 1_555 1_555
C80_4 H87_4 1_555 1_555
H88_4 C80_4 1_555 1_555
H89_4 C80_4 1_555 1_555
C81_4 C74_4 1_555 1_555
H90_4 C81_4 1_555 1_555
C82_4 H91_4 1_555 1_555
N11_2 C69_4 1_555 1_555
N13_2 C82_4 1_555 1_555
C83_4 C81_4 1_555 1_555
H92_4 C83_4 1_555 1_555
C84_4 C75_4 1_555 1_555
H93_4 C84_4 1_555 1_555
C85_4 C61_4 1_555 1_555
C86_4 C79_4 1_555 1_555
C87_4 C72_4 1_555 1_555
H94_4 C87_4 1_555 1_555
C88_4 H95_4 1_555 1_555
H96_4 C88_4 1_555 1_555
H97_4 C88_4 1_555 1_555
C89_4 C93_4 1_555 1_555
C90_4 H98_4 1_555 1_555
C91_4 C90_4 1_555 1_555
C92_4 H99_4 1_555 1_555
H100_4 C92_4 1_555 1_555
H101_4 C92_4 1_555 1_555
C93_4 C88_4 1_555 1_555
C94_4 C91_4 1_555 1_555
C95_4 H102_4 1_555 1_555
C96_4 C91_4 1_555 1_555
H103_4 C96_4 1_555 1_555
C97_4 H104_4 1_555 1_555
C98_4 C97_4 1_555 1_555
H105_4 C98_4 1_555 1_555
C99_4 C89_4 1_555 1_555
C100_4 C99_4 1_555 1_555
H106_4 C100_4 1_555 1_555
H107_4 C100_4 1_555 1_555
H108_4 C100_4 1_555 1_555
C101_4 C42_4 1_555 1_555
N7_4 C98_4 1_555 1_555
C102_4 C92_4 1_555 1_555
N8_4 C95_4 1_555 1_555
C103_4 C90_4 1_555 1_555
H109_4 C103_4 1_555 1_555
C104_4 C89_4 1_555 1_555
C105_4 C104_4 1_555 1_555
H110_4 C105_4 1_555 1_555
C106_4 N7_4 1_555 1_555
H111_4 C106_4 1_555 1_555
Co6 N2_4 1_555 1_555
O7_4 Co6 1_555 1_555
O8_4 Co6 1_555 1_555
O10_4 Co6 1_555 1_555
O11_4 Co6 1_555 1_555
C107_4 O10_4 1_555 1_555
C108_4 O8_4 1_555 1_555
C110_4 H113_4 1_555 1_555
H114_4 C110_4 1_555 1_555
H115_4 C110_4 1_555 1_555
C111_4 H116_4 1_555 1_555
H120_4 C116_4 1_555 1_555
C117_4 O7_4 1_555 1_555
C118_4 C126_4 1_555 1_555
C120_4 H124_4 1_555 1_555
H125_4 C120_4 1_555 1_555
H126_4 C120_4 1_555 1_555
C122_4 H130_4 1_555 1_555
H131_4 C122_4 1_555 1_555
H132_4 C122_4 1_555 1_555
C125_4 H136_4 1_555 1_555
H138_4 C125_4 1_555 1_555
C126_4 C116_4 1_555 1_555
C127_4 C118_4 1_555 1_555
H139_4 C127_4 1_555 1_555
H140_4 C127_4 1_555 1_555
H141_4 C127_4 1_555 1_555
C128_4 C118_4 1_555 1_555
H142_4 C128_4 1_555 1_555
H143_4 C128_4 1_555 1_555
H144_4 C128_4 1_555 1_555
C129_4 C118_4 1_555 1_555
H145_4 C129_4 1_555 1_555
H146_4 C129_4 1_555 1_555
H147_4 C129_4 1_555 1_555
C131_4 C110_4 1_555 1_555
C132_4 C107_4 1_555 1_555
C134_4 C117_4 1_555 1_555
H151_4 C134_4 1_555 1_555
H152_4 C135_4 1_555 1_555
H154_4 C135_4 1_555 1_555
C136_4 O11_4 1_555 1_555
Co5_4 N8_4 1_555 1_555
Co8_4 N7_4 1_555 1_555
Co9_2 N4_2 1_555 1_555
N10_4 Co1_4 1_555 1_555
Co7 O2_4 1_555 1_555
C1_4 N3_4 1_555 1_555
C2_4 C7_4 1_555 1_555
C6_4 C39_4 1_555 1_555
C17_4 C38_4 1_555 1_555
C17_4 C44_4 1_555 1_555
C19_4 C46_4 1_555 1_555
C19_4 C58_4 1_555 1_555
C21_4 C28_4 1_555 1_555
C23_4 C46_4 1_555 1_555
C24_4 C54_4 1_555 1_555
C30_4 C56_4 1_555 1_555
C31_4 C54_4 1_555 1_555
C32_4 C55_4 1_555 1_555
C35_4 C55_4 1_555 1_555
C36_4 N1_4 1_555 1_555
C39_4 C41_4 1_555 1_555
C42_4 C44_4 1_555 1_555
C43_4 C64_4 1_555 1_555
N2_4 C47_4 1_555 1_555
C48_4 C68_4 1_555 1_555
O6_4 C68_4 1_555 1_555
C49_4 C66_4 1_555 1_555
C53_4 C65_4 1_555 1_555
N3_4 C57_4 1_555 1_555
C55_4 C58_4 1_555 1_555
N4_2 C59_4 1_555 1_555
C61_4 C64_4 1_555 1_555
C62_4 C63_4 1_555 1_555
C71_4 C78_4 1_555 1_555
C76_4 C85_4 1_555 1_555
C78_4 C79_4 1_555 1_555
C80_4 C86_4 1_555 1_555
C82_4 C87_4 1_555 1_555
N11_2 C83_4 1_555 1_555
N13_2 C84_4 1_555 1_555
C85_4 C86_4 1_555 1_555
C93_4 C101_4 1_555 1_555
C94_4 C99_4 1_555 1_555
C94_4 C102_4 1_555 1_555
C95_4 C96_4 1_555 1_555
C97_4 C104_4 1_555 1_555
C101_4 C102_4 1_555 1_555
N8_4 C103_4 1_555 1_555
C105_4 C106_4 1_555 1_555
C107_4 C108_4 1_555 1_555
C111_4 C124_4 1_555 1_555
C111_4 C132_4 1_555 1_555
C120_4 C131_4 1_555 1_555
C122_4 C131_4 1_555 1_555
C125_4 C136_4 1_555 1_555
C126_4 C134_4 1_555 1_555
C131_4 C132_4 1_555 1_555
O9_4 Co9_2 1_555 1_555
H112_4 C109_4 1_555 1_555
C112_4 H117_4 1_555 1_555
H118_4 C112_4 1_555 1_555
H119_4 C112_4 1_555 1_555
C113_4 C121_4 1_555 1_555
C114_4 C115_4 1_555 1_555
C115_4 O9_4 1_555 1_555
C119_4 H121_4 1_555 1_555
H122_4 C119_4 1_555 1_555
H123_4 C119_4 1_555 1_555
C121_4 H127_4 1_555 1_555
H128_4 C121_4 1_555 1_555
H129_4 C121_4 1_555 1_555
C123_4 C113_4 1_555 1_555
H133_4 C123_4 1_555 1_555
H134_4 C123_4 1_555 1_555
H135_4 C123_4 1_555 1_555
O12_4 Co9_2 1_555 1_555
C130_4 C112_4 1_555 1_555
C133_4 C130_4 1_555 1_555
H148_4 C133_4 1_555 1_555
H149_4 C133_4 1_555 1_555
H150_4 C133_4 1_555 1_555
N9_4 Co9_2 1_555 1_555
C114_4 C130_4 1_555 1_555
C119_4 C130_4 1_555 1_555
C69_5 H78_5 1_555 1_555
C70_5 H79_5 1_555 1_555
H80_5 C70_5 1_555 1_555
H81_5 C70_5 1_555 1_555
C71_5 C72_5 1_555 1_555
C72_5 C75_5 1_555 1_555
C73_5 C69_5 1_555 1_555
H82_5 C73_5 1_555 1_555
C74_5 C73_5 1_555 1_555
C75_5 H83_5 1_555 1_555
C76_5 C71_5 1_555 1_555
C77_5 C76_5 1_555 1_555
H85_5 C77_5 1_555 1_555
H86_5 C77_5 1_555 1_555
C78_5 C70_5 1_555 1_555
C79_5 C74_5 1_555 1_555
C80_5 H87_5 1_555 1_555
H89_5 C80_5 1_555 1_555
C81_5 C74_5 1_555 1_555
H90_5 C81_5 1_555 1_555
C82_5 H91_5 1_555 1_555
N5_3 C69_5 1_555 1_555
N6_3 C82_5 1_555 1_555
C83_5 C81_5 1_555 1_555
H92_5 C83_5 1_555 1_555
C84_5 C75_5 1_555 1_555
H93_5 C84_5 1_555 1_555
C86_5 C79_5 1_555 1_555
C87_5 C72_5 1_555 1_555
H94_5 C87_5 1_555 1_555
Co5_2 N5_3 1_555 1_555
Co8_2 N6_3 1_555 1_555
C71_5 C78_5 1_555 1_555
C76_5 C85_5 1_555 1_555
C78_5 C79_5 1_555 1_555
C80_5 C86_5 1_555 1_555
C82_5 C87_5 1_555 1_555
N5_3 C83_5 1_555 1_555
N6_3 C84_5 1_555 1_555
C85_5 C86_5 1_555 1_555
Co1_5 O1_5 1_555 1_555
Co8_3 O1_5 1_555 1_555
O1_5 C27_5 1_555 1_555
O2_5 Co1_5 1_555 1_555
O3_5 Co8_3 1_555 1_555
O4_5 Co1_5 1_555 1_555
C1_5 H1_5 1_555 1_555
O5_5 Co1_5 1_555 1_555
C2_5 O4_5 1_555 1_555
C5_5 H5_5 1_555 1_555
H6_5 C5_5 1_555 1_555
H7_5 C5_5 1_555 1_555
C6_5 C8_5 1_555 1_555
C7_5 O2_5 1_555 1_555
C8_5 C18_5 1_555 1_555
C9_5 C7_5 1_555 1_555
H8_5 C9_5 1_555 1_555
C10_5 C1_5 1_555 1_555
H9_5 C10_5 1_555 1_555
C15_5 H14_5 1_555 1_555
H15_5 C15_5 1_555 1_555
H16_5 C15_5 1_555 1_555
C16_5 C10_5 1_555 1_555
C18_5 H17_5 1_555 1_555
C19_5 H18_5 1_555 1_555
C20_5 H19_5 1_555 1_555
H20_5 C20_5 1_555 1_555
H21_5 C20_5 1_555 1_555
C22_5 C6_5 1_555 1_555
C23_5 C33_5 1_555 1_555
C24_5 C25_5 1_555 1_555
C25_5 O3_5 1_555 1_555
C26_5 C24_5 1_555 1_555
H23_5 C26_5 1_555 1_555
C27_5 C25_5 1_555 1_555
C29_5 C49_5 1_555 1_555
C31_5 H26_5 1_555 1_555
H27_5 C31_5 1_555 1_555
H28_5 C31_5 1_555 1_555
C32_5 H29_5 1_555 1_555
H30_5 C32_5 1_555 1_555
H31_5 C32_5 1_555 1_555
C33_5 H32_5 1_555 1_555
H33_5 C33_5 1_555 1_555
H34_5 C33_5 1_555 1_555
C34_5 C22_5 1_555 1_555
H36_5 C34_5 1_555 1_555
H37_5 C34_5 1_555 1_555
C35_5 H38_5 1_555 1_555
H39_5 C35_5 1_555 1_555
H40_5 C35_5 1_555 1_555
C37_5 C23_5 1_555 1_555
H42_5 C37_5 1_555 1_555
H43_5 C37_5 1_555 1_555
H44_5 C37_5 1_555 1_555
C39_5 C5_5 1_555 1_555
C41_5 C16_5 1_555 1_555
C43_5 H48_5 1_555 1_555
H50_5 C43_5 1_555 1_555
C45_5 C16_5 1_555 1_555
H51_5 C45_5 1_555 1_555
C46_5 C9_5 1_555 1_555
C48_5 H53_5 1_555 1_555
H54_5 C48_5 1_555 1_555
H55_5 C48_5 1_555 1_555
O6_5 Co8_3 1_555 1_555
C49_5 C26_5 1_555 1_555
C50_5 C29_5 1_555 1_555
H56_5 C50_5 1_555 1_555
H57_5 C50_5 1_555 1_555
H58_5 C50_5 1_555 1_555
C51_5 C29_5 1_555 1_555
H59_5 C51_5 1_555 1_555
H60_5 C51_5 1_555 1_555
H61_5 C51_5 1_555 1_555
C52_5 C29_5 1_555 1_555
H62_5 C52_5 1_555 1_555
H63_5 C52_5 1_555 1_555
H64_5 C52_5 1_555 1_555
C53_5 H65_5 1_555 1_555
N3_5 Co1_5 1_555 1_555
C54_5 C20_5 1_555 1_555
C55_5 C15_5 1_555 1_555
N4_3 C53_5 1_555 1_555
C57_5 C45_5 1_555 1_555
H66_5 C57_5 1_555 1_555
C58_5 C2_5 1_555 1_555
C59_5 C18_5 1_555 1_555
H67_5 C59_5 1_555 1_555
C60_5 C54_5 1_555 1_555
H68_5 C60_5 1_555 1_555
H69_5 C60_5 1_555 1_555
H70_5 C60_5 1_555 1_555
C61_5 C22_5 1_555 1_555
C64_5 C41_5 1_555 1_555
C65_5 C8_5 1_555 1_555
H73_5 C65_5 1_555 1_555
C66_5 C27_5 1_555 1_555
H74_5 C66_5 1_555 1_555
C67_5 C23_5 1_555 1_555
H75_5 C67_5 1_555 1_555
H76_5 C67_5 1_555 1_555
H77_5 C67_5 1_555 1_555
C68_5 O5_5 1_555 1_555
O7_5 Co5_3 1_555 1_555
O8_5 Co5_3 1_555 1_555
O10_5 Co5_3 1_555 1_555
O11_5 Co5_3 1_555 1_555
C107_5 O10_5 1_555 1_555
C108_5 O8_5 1_555 1_555
C110_5 H113_5 1_555 1_555
H114_5 C110_5 1_555 1_555
H115_5 C110_5 1_555 1_555
C111_5 H116_5 1_555 1_555
H120_5 C116_5 1_555 1_555
C117_5 O7_5 1_555 1_555
C118_5 C126_5 1_555 1_555
C120_5 H124_5 1_555 1_555
H125_5 C120_5 1_555 1_555
H126_5 C120_5 1_555 1_555
C122_5 H130_5 1_555 1_555
H131_5 C122_5 1_555 1_555
H132_5 C122_5 1_555 1_555
C125_5 H136_5 1_555 1_555
H138_5 C125_5 1_555 1_555
C126_5 C116_5 1_555 1_555
C127_5 C118_5 1_555 1_555
H139_5 C127_5 1_555 1_555
H140_5 C127_5 1_555 1_555
H141_5 C127_5 1_555 1_555
C128_5 C118_5 1_555 1_555
H142_5 C128_5 1_555 1_555
H143_5 C128_5 1_555 1_555
H144_5 C128_5 1_555 1_555
C129_5 C118_5 1_555 1_555
H145_5 C129_5 1_555 1_555
H146_5 C129_5 1_555 1_555
H147_5 C129_5 1_555 1_555
C131_5 C110_5 1_555 1_555
C132_5 C107_5 1_555 1_555
C134_5 C117_5 1_555 1_555
H151_5 C134_5 1_555 1_555
H152_5 C135_5 1_555 1_555
H154_5 C135_5 1_555 1_555
C136_5 O11_5 1_555 1_555
Co9_3 N4_3 1_555 1_555
N10_5 Co1_5 1_555 1_555
N11_3 Co5_3 1_555 1_555
N13_3 Co8_3 1_555 1_555
Co8_3 O2_5 1_555 1_555
C1_5 N3_5 1_555 1_555
C2_5 C7_5 1_555 1_555
C6_5 C39_5 1_555 1_555
C19_5 C46_5 1_555 1_555
C19_5 C58_5 1_555 1_555
C23_5 C46_5 1_555 1_555
C24_5 C54_5 1_555 1_555
C31_5 C54_5 1_555 1_555
C32_5 C55_5 1_555 1_555
C35_5 C55_5 1_555 1_555
C39_5 C41_5 1_555 1_555
C43_5 C64_5 1_555 1_555
C48_5 C68_5 1_555 1_555
O6_5 C68_5 1_555 1_555
C49_5 C66_5 1_555 1_555
C53_5 C65_5 1_555 1_555
N3_5 C57_5 1_555 1_555
C55_5 C58_5 1_555 1_555
N4_3 C59_5 1_555 1_555
C61_5 C64_5 1_555 1_555
C107_5 C108_5 1_555 1_555
C111_5 C124_5 1_555 1_555
C111_5 C132_5 1_555 1_555
C120_5 C131_5 1_555 1_555
C122_5 C131_5 1_555 1_555
C125_5 C136_5 1_555 1_555
C126_5 C134_5 1_555 1_555
C131_5 C132_5 1_555 1_555
O9_5 Co9_3 1_555 1_555
H112_5 C109_5 1_555 1_555
C112_5 H117_5 1_555 1_555
H118_5 C112_5 1_555 1_555
H119_5 C112_5 1_555 1_555
C113_5 C121_5 1_555 1_555
C114_5 C115_5 1_555 1_555
C115_5 O9_5 1_555 1_555
C119_5 H121_5 1_555 1_555
H122_5 C119_5 1_555 1_555
H123_5 C119_5 1_555 1_555
C121_5 H127_5 1_555 1_555
H128_5 C121_5 1_555 1_555
H129_5 C121_5 1_555 1_555
C123_5 C113_5 1_555 1_555
H133_5 C123_5 1_555 1_555
H134_5 C123_5 1_555 1_555
H135_5 C123_5 1_555 1_555
O12_5 Co9_3 1_555 1_555
C130_5 C112_5 1_555 1_555
C133_5 C130_5 1_555 1_555
H148_5 C133_5 1_555 1_555
H149_5 C133_5 1_555 1_555
H150_5 C133_5 1_555 1_555
N9_5 Co9_3 1_555 1_555
C114_5 C130_5 1_555 1_555
C119_5 C130_5 1_555 1_555
O9_6 Co4_3 1_555 1_555
H112_6 C109_6 1_555 1_555
C112_6 H117_6 1_555 1_555
H118_6 C112_6 1_555 1_555
H119_6 C112_6 1_555 1_555
C113_6 C121_6 1_555 1_555
C114_6 C115_6 1_555 1_555
C115_6 O9_6 1_555 1_555
C119_6 H121_6 1_555 1_555
H122_6 C119_6 1_555 1_555
H123_6 C119_6 1_555 1_555
C121_6 H127_6 1_555 1_555
H128_6 C121_6 1_555 1_555
H129_6 C121_6 1_555 1_555
C123_6 C113_6 1_555 1_555
H133_6 C123_6 1_555 1_555
H134_6 C123_6 1_555 1_555
H135_6 C123_6 1_555 1_555
O12_6 Co4_3 1_555 1_555
C130_6 C112_6 1_555 1_555
C133_6 C130_6 1_555 1_555
H148_6 C133_6 1_555 1_555
H149_6 C133_6 1_555 1_555
H150_6 C133_6 1_555 1_555
N9_6 Co4_3 1_555 1_555
N12_3 Co4_3 1_555 1_555
C114_6 C130_6 1_555 1_555
C119_6 C130_6 1_555 1_555
C69_6 H78_6 1_555 1_555
C70_6 H79_6 1_555 1_555
H80_6 C70_6 1_555 1_555
H81_6 C70_6 1_555 1_555
C71_6 C72_6 1_555 1_555
C72_6 C75_6 1_555 1_555
C73_6 C69_6 1_555 1_555
H82_6 C73_6 1_555 1_555
C74_6 C73_6 1_555 1_555
C75_6 H83_6 1_555 1_555
C76_6 C71_6 1_555 1_555
C77_6 C76_6 1_555 1_555
H85_6 C77_6 1_555 1_555
H86_6 C77_6 1_555 1_555
C78_6 C70_6 1_555 1_555
C79_6 C74_6 1_555 1_555
C80_6 H87_6 1_555 1_555
H89_6 C80_6 1_555 1_555
C81_6 C74_6 1_555 1_555
H90_6 C81_6 1_555 1_555
C82_6 H91_6 1_555 1_555
N5_4 C69_6 1_555 1_555
N6_4 C82_6 1_555 1_555
C83_6 C81_6 1_555 1_555
H92_6 C83_6 1_555 1_555
C84_6 C75_6 1_555 1_555
H93_6 C84_6 1_555 1_555
C86_6 C79_6 1_555 1_555
C87_6 C72_6 1_555 1_555
H94_6 C87_6 1_555 1_555
Co5 N5_4 1_555 1_555
Co8 N6_4 1_555 1_555
C71_6 C78_6 1_555 1_555
C76_6 C85_6 1_555 1_555
C78_6 C79_6 1_555 1_555
C80_6 C86_6 1_555 1_555
C82_6 C87_6 1_555 1_555
N5_4 C83_6 1_555 1_555
N6_4 C84_6 1_555 1_555
C85_6 C86_6 1_555 1_555
Co1_6 O1_6 1_555 1_555
Co8_4 O1_6 1_555 1_555
O1_6 C27_6 1_555 1_555
O2_6 Co1_6 1_555 1_555
O3_6 Co8_4 1_555 1_555
O4_6 Co1_6 1_555 1_555
C1_6 H1_6 1_555 1_555
O5_6 Co1_6 1_555 1_555
C2_6 O4_6 1_555 1_555
C5_6 H5_6 1_555 1_555
H6_6 C5_6 1_555 1_555
H7_6 C5_6 1_555 1_555
C6_6 C8_6 1_555 1_555
C7_6 O2_6 1_555 1_555
C8_6 C18_6 1_555 1_555
C9_6 C7_6 1_555 1_555
H8_6 C9_6 1_555 1_555
C10_6 C1_6 1_555 1_555
H9_6 C10_6 1_555 1_555
C15_6 H14_6 1_555 1_555
H15_6 C15_6 1_555 1_555
H16_6 C15_6 1_555 1_555
C16_6 C10_6 1_555 1_555
C18_6 H17_6 1_555 1_555
C19_6 H18_6 1_555 1_555
C20_6 H19_6 1_555 1_555
H20_6 C20_6 1_555 1_555
H21_6 C20_6 1_555 1_555
C22_6 C6_6 1_555 1_555
C23_6 C33_6 1_555 1_555
C24_6 C25_6 1_555 1_555
C25_6 O3_6 1_555 1_555
C26_6 C24_6 1_555 1_555
H23_6 C26_6 1_555 1_555
C27_6 C25_6 1_555 1_555
C29_6 C49_6 1_555 1_555
C31_6 H26_6 1_555 1_555
H27_6 C31_6 1_555 1_555
H28_6 C31_6 1_555 1_555
C32_6 H29_6 1_555 1_555
H30_6 C32_6 1_555 1_555
H31_6 C32_6 1_555 1_555
C33_6 H32_6 1_555 1_555
H33_6 C33_6 1_555 1_555
H34_6 C33_6 1_555 1_555
C34_6 C22_6 1_555 1_555
H36_6 C34_6 1_555 1_555
H37_6 C34_6 1_555 1_555
C35_6 H38_6 1_555 1_555
H39_6 C35_6 1_555 1_555
H40_6 C35_6 1_555 1_555
C37_6 C23_6 1_555 1_555
H42_6 C37_6 1_555 1_555
H43_6 C37_6 1_555 1_555
H44_6 C37_6 1_555 1_555
C39_6 C5_6 1_555 1_555
C41_6 C16_6 1_555 1_555
C43_6 H48_6 1_555 1_555
H50_6 C43_6 1_555 1_555
C45_6 C16_6 1_555 1_555
H51_6 C45_6 1_555 1_555
C46_6 C9_6 1_555 1_555
C48_6 H53_6 1_555 1_555
H54_6 C48_6 1_555 1_555
H55_6 C48_6 1_555 1_555
O6_6 Co8_4 1_555 1_555
C49_6 C26_6 1_555 1_555
C50_6 C29_6 1_555 1_555
H56_6 C50_6 1_555 1_555
H57_6 C50_6 1_555 1_555
H58_6 C50_6 1_555 1_555
C51_6 C29_6 1_555 1_555
H59_6 C51_6 1_555 1_555
H60_6 C51_6 1_555 1_555
H61_6 C51_6 1_555 1_555
C52_6 C29_6 1_555 1_555
H62_6 C52_6 1_555 1_555
H63_6 C52_6 1_555 1_555
H64_6 C52_6 1_555 1_555
C53_6 H65_6 1_555 1_555
N3_6 Co1_6 1_555 1_555
C54_6 C20_6 1_555 1_555
C55_6 C15_6 1_555 1_555
N12_3 C53_6 1_555 1_555
C57_6 C45_6 1_555 1_555
H66_6 C57_6 1_555 1_555
C58_6 C2_6 1_555 1_555
C59_6 C18_6 1_555 1_555
H67_6 C59_6 1_555 1_555
C60_6 C54_6 1_555 1_555
H68_6 C60_6 1_555 1_555
H69_6 C60_6 1_555 1_555
H70_6 C60_6 1_555 1_555
C61_6 C22_6 1_555 1_555
C64_6 C41_6 1_555 1_555
C65_6 C8_6 1_555 1_555
H73_6 C65_6 1_555 1_555
C66_6 C27_6 1_555 1_555
H74_6 C66_6 1_555 1_555
C67_6 C23_6 1_555 1_555
H75_6 C67_6 1_555 1_555
H76_6 C67_6 1_555 1_555
H77_6 C67_6 1_555 1_555
C68_6 O5_6 1_555 1_555
O7_6 Co5_4 1_555 1_555
O8_6 Co5_4 1_555 1_555
O10_6 Co5_4 1_555 1_555
O11_6 Co5_4 1_555 1_555
C107_6 O10_6 1_555 1_555
C108_6 O8_6 1_555 1_555
C110_6 H113_6 1_555 1_555
H114_6 C110_6 1_555 1_555
H115_6 C110_6 1_555 1_555
C111_6 H116_6 1_555 1_555
H120_6 C116_6 1_555 1_555
C117_6 O7_6 1_555 1_555
C118_6 C126_6 1_555 1_555
C120_6 H124_6 1_555 1_555
H125_6 C120_6 1_555 1_555
H126_6 C120_6 1_555 1_555
C122_6 H130_6 1_555 1_555
H131_6 C122_6 1_555 1_555
H132_6 C122_6 1_555 1_555
C125_6 H136_6 1_555 1_555
H138_6 C125_6 1_555 1_555
C126_6 C116_6 1_555 1_555
C127_6 C118_6 1_555 1_555
H139_6 C127_6 1_555 1_555
H140_6 C127_6 1_555 1_555
H141_6 C127_6 1_555 1_555
C128_6 C118_6 1_555 1_555
H142_6 C128_6 1_555 1_555
H143_6 C128_6 1_555 1_555
H144_6 C128_6 1_555 1_555
C129_6 C118_6 1_555 1_555
H145_6 C129_6 1_555 1_555
H146_6 C129_6 1_555 1_555
H147_6 C129_6 1_555 1_555
C131_6 C110_6 1_555 1_555
C132_6 C107_6 1_555 1_555
C134_6 C117_6 1_555 1_555
H151_6 C134_6 1_555 1_555
H152_6 C135_6 1_555 1_555
H154_6 C135_6 1_555 1_555
C136_6 O11_6 1_555 1_555
N10_6 Co1_6 1_555 1_555
N11_4 Co5_4 1_555 1_555
N13_4 Co8_4 1_555 1_555
Co8_4 O2_6 1_555 1_555
C1_6 N3_6 1_555 1_555
C2_6 C7_6 1_555 1_555
C6_6 C39_6 1_555 1_555
C19_6 C46_6 1_555 1_555
C19_6 C58_6 1_555 1_555
C23_6 C46_6 1_555 1_555
C24_6 C54_6 1_555 1_555
C31_6 C54_6 1_555 1_555
C32_6 C55_6 1_555 1_555
C35_6 C55_6 1_555 1_555
C39_6 C41_6 1_555 1_555
C43_6 C64_6 1_555 1_555
C48_6 C68_6 1_555 1_555
O6_6 C68_6 1_555 1_555
C49_6 C66_6 1_555 1_555
C53_6 C65_6 1_555 1_555
N3_6 C57_6 1_555 1_555
C55_6 C58_6 1_555 1_555
N12_3 C59_6 1_555 1_555
C61_6 C64_6 1_555 1_555
C107_6 C108_6 1_555 1_555
C111_6 C124_6 1_555 1_555
C111_6 C132_6 1_555 1_555
C120_6 C131_6 1_555 1_555
C122_6 C131_6 1_555 1_555
C125_6 C136_6 1_555 1_555
C126_6 C134_6 1_555 1_555
C131_6 C132_6 1_555 1_555
Co1_7 O1_7 1_555 1_555
Co8 O1_7 1_555 1_555
O1_7 C27_7 1_555 1_555
O2_7 Co1_7 1_555 1_555
O3_7 Co8 1_555 1_555
O4_7 Co1_7 1_555 1_555
C1_7 H1_7 1_555 1_555
O5_7 Co1_7 1_555 1_555
C2_7 O4_7 1_555 1_555
C5_7 H5_7 1_555 1_555
H6_7 C5_7 1_555 1_555
H7_7 C5_7 1_555 1_555
C6_7 C8_7 1_555 1_555
C7_7 O2_7 1_555 1_555
C8_7 C18_7 1_555 1_555
C9_7 C7_7 1_555 1_555
H8_7 C9_7 1_555 1_555
C10_7 C1_7 1_555 1_555
H9_7 C10_7 1_555 1_555
C15_7 H14_7 1_555 1_555
H15_7 C15_7 1_555 1_555
H16_7 C15_7 1_555 1_555
C16_7 C10_7 1_555 1_555
C18_7 H17_7 1_555 1_555
C19_7 H18_7 1_555 1_555
C20_7 H19_7 1_555 1_555
H20_7 C20_7 1_555 1_555
H21_7 C20_7 1_555 1_555
C22_7 C6_7 1_555 1_555
C23_7 C33_7 1_555 1_555
C24_7 C25_7 1_555 1_555
C25_7 O3_7 1_555 1_555
C26_7 C24_7 1_555 1_555
H23_7 C26_7 1_555 1_555
C27_7 C25_7 1_555 1_555
C29_7 C49_7 1_555 1_555
C31_7 H26_7 1_555 1_555
H27_7 C31_7 1_555 1_555
H28_7 C31_7 1_555 1_555
C32_7 H29_7 1_555 1_555
H30_7 C32_7 1_555 1_555
H31_7 C32_7 1_555 1_555
C33_7 H32_7 1_555 1_555
H33_7 C33_7 1_555 1_555
H34_7 C33_7 1_555 1_555
C34_7 C22_7 1_555 1_555
H36_7 C34_7 1_555 1_555
H37_7 C34_7 1_555 1_555
C35_7 H38_7 1_555 1_555
H39_7 C35_7 1_555 1_555
H40_7 C35_7 1_555 1_555
C37_7 C23_7 1_555 1_555
H42_7 C37_7 1_555 1_555
H43_7 C37_7 1_555 1_555
H44_7 C37_7 1_555 1_555
C39_7 C5_7 1_555 1_555
C41_7 C16_7 1_555 1_555
C43_7 H48_7 1_555 1_555
H50_7 C43_7 1_555 1_555
C45_7 C16_7 1_555 1_555
H51_7 C45_7 1_555 1_555
C46_7 C9_7 1_555 1_555
C48_7 H53_7 1_555 1_555
H54_7 C48_7 1_555 1_555
H55_7 C48_7 1_555 1_555
O6_7 Co8 1_555 1_555
C49_7 C26_7 1_555 1_555
C50_7 C29_7 1_555 1_555
H56_7 C50_7 1_555 1_555
H57_7 C50_7 1_555 1_555
H58_7 C50_7 1_555 1_555
C51_7 C29_7 1_555 1_555
H59_7 C51_7 1_555 1_555
H60_7 C51_7 1_555 1_555
H61_7 C51_7 1_555 1_555
C52_7 C29_7 1_555 1_555
H62_7 C52_7 1_555 1_555
H63_7 C52_7 1_555 1_555
H64_7 C52_7 1_555 1_555
C53_7 H65_7 1_555 1_555
N3_7 Co1_7 1_555 1_555
C54_7 C20_7 1_555 1_555
C55_7 C15_7 1_555 1_555
N4_4 C53_7 1_555 1_555
C57_7 C45_7 1_555 1_555
H66_7 C57_7 1_555 1_555
C58_7 C2_7 1_555 1_555
C59_7 C18_7 1_555 1_555
H67_7 C59_7 1_555 1_555
C60_7 C54_7 1_555 1_555
H68_7 C60_7 1_555 1_555
H69_7 C60_7 1_555 1_555
H70_7 C60_7 1_555 1_555
C61_7 C22_7 1_555 1_555
C64_7 C41_7 1_555 1_555
C65_7 C8_7 1_555 1_555
H73_7 C65_7 1_555 1_555
C66_7 C27_7 1_555 1_555
H74_7 C66_7 1_555 1_555
C67_7 C23_7 1_555 1_555
H75_7 C67_7 1_555 1_555
H76_7 C67_7 1_555 1_555
H77_7 C67_7 1_555 1_555
C68_7 O5_7 1_555 1_555
O7_7 Co5 1_555 1_555
O8_7 Co5 1_555 1_555
O10_7 Co5 1_555 1_555
O11_7 Co5 1_555 1_555
C107_7 O10_7 1_555 1_555
C108_7 O8_7 1_555 1_555
C110_7 H113_7 1_555 1_555
H114_7 C110_7 1_555 1_555
H115_7 C110_7 1_555 1_555
C111_7 H116_7 1_555 1_555
H120_7 C116_7 1_555 1_555
C117_7 O7_7 1_555 1_555
C118_7 C126_7 1_555 1_555
C120_7 H124_7 1_555 1_555
H125_7 C120_7 1_555 1_555
H126_7 C120_7 1_555 1_555
C122_7 H130_7 1_555 1_555
H131_7 C122_7 1_555 1_555
H132_7 C122_7 1_555 1_555
C125_7 H136_7 1_555 1_555
H138_7 C125_7 1_555 1_555
C126_7 C116_7 1_555 1_555
C127_7 C118_7 1_555 1_555
H139_7 C127_7 1_555 1_555
H140_7 C127_7 1_555 1_555
H141_7 C127_7 1_555 1_555
C128_7 C118_7 1_555 1_555
H142_7 C128_7 1_555 1_555
H143_7 C128_7 1_555 1_555
H144_7 C128_7 1_555 1_555
C129_7 C118_7 1_555 1_555
H145_7 C129_7 1_555 1_555
H146_7 C129_7 1_555 1_555
H147_7 C129_7 1_555 1_555
C131_7 C110_7 1_555 1_555
C132_7 C107_7 1_555 1_555
C134_7 C117_7 1_555 1_555
H151_7 C134_7 1_555 1_555
H152_7 C135_7 1_555 1_555
H154_7 C135_7 1_555 1_555
C136_7 O11_7 1_555 1_555
Co9_4 N4_4 1_555 1_555
N10_7 Co1_7 1_555 1_555
Co8 O2_7 1_555 1_555
C1_7 N3_7 1_555 1_555
C2_7 C7_7 1_555 1_555
C6_7 C39_7 1_555 1_555
C19_7 C46_7 1_555 1_555
C19_7 C58_7 1_555 1_555
C23_7 C46_7 1_555 1_555
C24_7 C54_7 1_555 1_555
C31_7 C54_7 1_555 1_555
C32_7 C55_7 1_555 1_555
C35_7 C55_7 1_555 1_555
C39_7 C41_7 1_555 1_555
C43_7 C64_7 1_555 1_555
C48_7 C68_7 1_555 1_555
O6_7 C68_7 1_555 1_555
C49_7 C66_7 1_555 1_555
C53_7 C65_7 1_555 1_555
N3_7 C57_7 1_555 1_555
C55_7 C58_7 1_555 1_555
N4_4 C59_7 1_555 1_555
C61_7 C64_7 1_555 1_555
C107_7 C108_7 1_555 1_555
C111_7 C124_7 1_555 1_555
C111_7 C132_7 1_555 1_555
C120_7 C131_7 1_555 1_555
C122_7 C131_7 1_555 1_555
C125_7 C136_7 1_555 1_555
C126_7 C134_7 1_555 1_555
C131_7 C132_7 1_555 1_555
C69_7 H78_7 1_555 1_555
C70_7 H79_7 1_555 1_555
H80_7 C70_7 1_555 1_555
H81_7 C70_7 1_555 1_555
C71_7 C72_7 1_555 1_555
C72_7 C75_7 1_555 1_555
C73_7 C69_7 1_555 1_555
H82_7 C73_7 1_555 1_555
C74_7 C73_7 1_555 1_555
C75_7 H83_7 1_555 1_555
C76_7 C71_7 1_555 1_555
C77_7 C76_7 1_555 1_555
H85_7 C77_7 1_555 1_555
H86_7 C77_7 1_555 1_555
C78_7 C70_7 1_555 1_555
C79_7 C74_7 1_555 1_555
C80_7 H87_7 1_555 1_555
H89_7 C80_7 1_555 1_555
C81_7 C74_7 1_555 1_555
H90_7 C81_7 1_555 1_555
C82_7 H91_7 1_555 1_555
N11_3 C69_7 1_555 1_555
N13_3 C82_7 1_555 1_555
C83_7 C81_7 1_555 1_555
H92_7 C83_7 1_555 1_555
C84_7 C75_7 1_555 1_555
H93_7 C84_7 1_555 1_555
C86_7 C79_7 1_555 1_555
C87_7 C72_7 1_555 1_555
H94_7 C87_7 1_555 1_555
C71_7 C78_7 1_555 1_555
C76_7 C85_7 1_555 1_555
C78_7 C79_7 1_555 1_555
C80_7 C86_7 1_555 1_555
C82_7 C87_7 1_555 1_555
N11_3 C83_7 1_555 1_555
N13_3 C84_7 1_555 1_555
C85_7 C86_7 1_555 1_555
O9_7 Co9_4 1_555 1_555
H112_7 C109_7 1_555 1_555
C112_7 H117_7 1_555 1_555
H118_7 C112_7 1_555 1_555
H119_7 C112_7 1_555 1_555
C113_7 C121_7 1_555 1_555
C114_7 C115_7 1_555 1_555
C115_7 O9_7 1_555 1_555
C119_7 H121_7 1_555 1_555
H122_7 C119_7 1_555 1_555
H123_7 C119_7 1_555 1_555
C121_7 H127_7 1_555 1_555
H128_7 C121_7 1_555 1_555
H129_7 C121_7 1_555 1_555
C123_7 C113_7 1_555 1_555
H133_7 C123_7 1_555 1_555
H134_7 C123_7 1_555 1_555
H135_7 C123_7 1_555 1_555
O12_7 Co9_4 1_555 1_555
C130_7 C112_7 1_555 1_555
C133_7 C130_7 1_555 1_555
H148_7 C133_7 1_555 1_555
H149_7 C133_7 1_555 1_555
H150_7 C133_7 1_555 1_555
N9_7 Co9_4 1_555 1_555
C114_7 C130_7 1_555 1_555
C119_7 C130_7 1_555 1_555
O9_8 Co4_4 1_555 1_555
H112_8 C109_8 1_555 1_555
C112_8 H117_8 1_555 1_555
H118_8 C112_8 1_555 1_555
H119_8 C112_8 1_555 1_555
C113_8 C121_8 1_555 1_555
C114_8 C115_8 1_555 1_555
C115_8 O9_8 1_555 1_555
C119_8 H121_8 1_555 1_555
H122_8 C119_8 1_555 1_555
H123_8 C119_8 1_555 1_555
C121_8 H127_8 1_555 1_555
H128_8 C121_8 1_555 1_555
H129_8 C121_8 1_555 1_555
C123_8 C113_8 1_555 1_555
H133_8 C123_8 1_555 1_555
H134_8 C123_8 1_555 1_555
H135_8 C123_8 1_555 1_555
O12_8 Co4_4 1_555 1_555
C130_8 C112_8 1_555 1_555
C133_8 C130_8 1_555 1_555
H148_8 C133_8 1_555 1_555
H149_8 C133_8 1_555 1_555
H150_8 C133_8 1_555 1_555
N9_8 Co4_4 1_555 1_555
N12_4 Co4_4 1_555 1_555
C114_8 C130_8 1_555 1_555
C119_8 C130_8 1_555 1_555
Co1_8 O1_8 1_555 1_555
Co8_2 O1_8 1_555 1_555
O1_8 C27_8 1_555 1_555
O2_8 Co1_8 1_555 1_555
O3_8 Co8_2 1_555 1_555
O4_8 Co1_8 1_555 1_555
C1_8 H1_8 1_555 1_555
O5_8 Co1_8 1_555 1_555
C2_8 O4_8 1_555 1_555
C5_8 H5_8 1_555 1_555
H6_8 C5_8 1_555 1_555
H7_8 C5_8 1_555 1_555
C6_8 C8_8 1_555 1_555
C7_8 O2_8 1_555 1_555
C8_8 C18_8 1_555 1_555
C9_8 C7_8 1_555 1_555
H8_8 C9_8 1_555 1_555
C10_8 C1_8 1_555 1_555
H9_8 C10_8 1_555 1_555
C15_8 H14_8 1_555 1_555
H15_8 C15_8 1_555 1_555
H16_8 C15_8 1_555 1_555
C16_8 C10_8 1_555 1_555
C18_8 H17_8 1_555 1_555
C19_8 H18_8 1_555 1_555
C20_8 H19_8 1_555 1_555
H20_8 C20_8 1_555 1_555
H21_8 C20_8 1_555 1_555
C22_8 C6_8 1_555 1_555
C23_8 C33_8 1_555 1_555
C24_8 C25_8 1_555 1_555
C25_8 O3_8 1_555 1_555
C26_8 C24_8 1_555 1_555
H23_8 C26_8 1_555 1_555
C27_8 C25_8 1_555 1_555
C29_8 C49_8 1_555 1_555
C31_8 H26_8 1_555 1_555
H27_8 C31_8 1_555 1_555
H28_8 C31_8 1_555 1_555
C32_8 H29_8 1_555 1_555
H30_8 C32_8 1_555 1_555
H31_8 C32_8 1_555 1_555
C33_8 H32_8 1_555 1_555
H33_8 C33_8 1_555 1_555
H34_8 C33_8 1_555 1_555
C34_8 C22_8 1_555 1_555
H36_8 C34_8 1_555 1_555
H37_8 C34_8 1_555 1_555
C35_8 H38_8 1_555 1_555
H39_8 C35_8 1_555 1_555
H40_8 C35_8 1_555 1_555
C37_8 C23_8 1_555 1_555
H42_8 C37_8 1_555 1_555
H43_8 C37_8 1_555 1_555
H44_8 C37_8 1_555 1_555
C39_8 C5_8 1_555 1_555
C41_8 C16_8 1_555 1_555
C43_8 H48_8 1_555 1_555
H50_8 C43_8 1_555 1_555
C45_8 C16_8 1_555 1_555
H51_8 C45_8 1_555 1_555
C46_8 C9_8 1_555 1_555
C48_8 H53_8 1_555 1_555
H54_8 C48_8 1_555 1_555
H55_8 C48_8 1_555 1_555
O6_8 Co8_2 1_555 1_555
C49_8 C26_8 1_555 1_555
C50_8 C29_8 1_555 1_555
H56_8 C50_8 1_555 1_555
H57_8 C50_8 1_555 1_555
H58_8 C50_8 1_555 1_555
C51_8 C29_8 1_555 1_555
H59_8 C51_8 1_555 1_555
H60_8 C51_8 1_555 1_555
H61_8 C51_8 1_555 1_555
C52_8 C29_8 1_555 1_555
H62_8 C52_8 1_555 1_555
H63_8 C52_8 1_555 1_555
H64_8 C52_8 1_555 1_555
C53_8 H65_8 1_555 1_555
N3_8 Co1_8 1_555 1_555
C54_8 C20_8 1_555 1_555
C55_8 C15_8 1_555 1_555
N12_4 C53_8 1_555 1_555
C57_8 C45_8 1_555 1_555
H66_8 C57_8 1_555 1_555
C58_8 C2_8 1_555 1_555
C59_8 C18_8 1_555 1_555
H67_8 C59_8 1_555 1_555
C60_8 C54_8 1_555 1_555
H68_8 C60_8 1_555 1_555
H69_8 C60_8 1_555 1_555
H70_8 C60_8 1_555 1_555
C61_8 C22_8 1_555 1_555
C64_8 C41_8 1_555 1_555
C65_8 C8_8 1_555 1_555
H73_8 C65_8 1_555 1_555
C66_8 C27_8 1_555 1_555
H74_8 C66_8 1_555 1_555
C67_8 C23_8 1_555 1_555
H75_8 C67_8 1_555 1_555
H76_8 C67_8 1_555 1_555
H77_8 C67_8 1_555 1_555
C68_8 O5_8 1_555 1_555
O7_8 Co5_2 1_555 1_555
O8_8 Co5_2 1_555 1_555
O10_8 Co5_2 1_555 1_555
O11_8 Co5_2 1_555 1_555
C107_8 O10_8 1_555 1_555
C108_8 O8_8 1_555 1_555
C110_8 H113_8 1_555 1_555
H114_8 C110_8 1_555 1_555
H115_8 C110_8 1_555 1_555
C111_8 H116_8 1_555 1_555
H120_8 C116_8 1_555 1_555
C117_8 O7_8 1_555 1_555
C118_8 C126_8 1_555 1_555
C120_8 H124_8 1_555 1_555
H125_8 C120_8 1_555 1_555
H126_8 C120_8 1_555 1_555
C122_8 H130_8 1_555 1_555
H131_8 C122_8 1_555 1_555
H132_8 C122_8 1_555 1_555
C125_8 H136_8 1_555 1_555
H138_8 C125_8 1_555 1_555
C126_8 C116_8 1_555 1_555
C127_8 C118_8 1_555 1_555
H139_8 C127_8 1_555 1_555
H140_8 C127_8 1_555 1_555
H141_8 C127_8 1_555 1_555
C128_8 C118_8 1_555 1_555
H142_8 C128_8 1_555 1_555
H143_8 C128_8 1_555 1_555
H144_8 C128_8 1_555 1_555
C129_8 C118_8 1_555 1_555
H145_8 C129_8 1_555 1_555
H146_8 C129_8 1_555 1_555
H147_8 C129_8 1_555 1_555
C131_8 C110_8 1_555 1_555
C132_8 C107_8 1_555 1_555
C134_8 C117_8 1_555 1_555
H151_8 C134_8 1_555 1_555
H152_8 C135_8 1_555 1_555
H154_8 C135_8 1_555 1_555
C136_8 O11_8 1_555 1_555
N10_8 Co1_8 1_555 1_555
Co8_2 O2_8 1_555 1_555
C1_8 N3_8 1_555 1_555
C2_8 C7_8 1_555 1_555
C6_8 C39_8 1_555 1_555
C19_8 C46_8 1_555 1_555
C19_8 C58_8 1_555 1_555
C23_8 C46_8 1_555 1_555
C24_8 C54_8 1_555 1_555
C31_8 C54_8 1_555 1_555
C32_8 C55_8 1_555 1_555
C35_8 C55_8 1_555 1_555
C39_8 C41_8 1_555 1_555
C43_8 C64_8 1_555 1_555
C48_8 C68_8 1_555 1_555
O6_8 C68_8 1_555 1_555
C49_8 C66_8 1_555 1_555
C53_8 C65_8 1_555 1_555
N3_8 C57_8 1_555 1_555
C55_8 C58_8 1_555 1_555
N12_4 C59_8 1_555 1_555
C61_8 C64_8 1_555 1_555
C107_8 C108_8 1_555 1_555
C111_8 C124_8 1_555 1_555
C111_8 C132_8 1_555 1_555
C120_8 C131_8 1_555 1_555
C122_8 C131_8 1_555 1_555
C125_8 C136_8 1_555 1_555
C126_8 C134_8 1_555 1_555
C131_8 C132_8 1_555 1_555
C69_8 H78_8 1_555 1_555
C70_8 H79_8 1_555 1_555
H80_8 C70_8 1_555 1_555
H81_8 C70_8 1_555 1_555
C71_8 C72_8 1_555 1_555
C72_8 C75_8 1_555 1_555
C73_8 C69_8 1_555 1_555
H82_8 C73_8 1_555 1_555
C74_8 C73_8 1_555 1_555
C75_8 H83_8 1_555 1_555
C76_8 C71_8 1_555 1_555
C77_8 C76_8 1_555 1_555
H85_8 C77_8 1_555 1_555
H86_8 C77_8 1_555 1_555
C78_8 C70_8 1_555 1_555
C79_8 C74_8 1_555 1_555
C80_8 H87_8 1_555 1_555
H89_8 C80_8 1_555 1_555
C81_8 C74_8 1_555 1_555
H90_8 C81_8 1_555 1_555
C82_8 H91_8 1_555 1_555
N11_4 C69_8 1_555 1_555
N13_4 C82_8 1_555 1_555
C83_8 C81_8 1_555 1_555
H92_8 C83_8 1_555 1_555
C84_8 C75_8 1_555 1_555
H93_8 C84_8 1_555 1_555
C86_8 C79_8 1_555 1_555
C87_8 C72_8 1_555 1_555
H94_8 C87_8 1_555 1_555
C71_8 C78_8 1_555 1_555
C76_8 C85_8 1_555 1_555
C78_8 C79_8 1_555 1_555
C80_8 C86_8 1_555 1_555
C82_8 C87_8 1_555 1_555
N11_4 C83_8 1_555 1_555
N13_4 C84_8 1_555 1_555
C85_8 C86_8 1_555 1_555
C3_5 H2_5 1_555 1_555
H3_5 C3_5 1_555 1_555
H4_5 C3_5 1_555 1_555
C4_5 C14_5 1_555 1_555
C11_5 H10_5 1_555 1_555
C12_5 C11_5 1_555 1_555
C13_5 H11_5 1_555 1_555
H12_5 C13_5 1_555 1_555
H13_5 C13_5 1_555 1_555
C14_5 C3_5 1_555 1_555
C17_5 C12_5 1_555 1_555
C21_5 H22_5 1_555 1_555
C28_5 C12_5 1_555 1_555
H24_5 C28_5 1_555 1_555
C30_5 H25_5 1_555 1_555
C36_5 C30_5 1_555 1_555
H41_5 C36_5 1_555 1_555
C38_5 C4_5 1_555 1_555
C40_5 C38_5 1_555 1_555
H45_5 C40_5 1_555 1_555
H46_5 C40_5 1_555 1_555
H47_5 C40_5 1_555 1_555
C42_5 C14_5 1_555 1_555
C44_5 C13_5 1_555 1_555
N10_5 C21_5 1_555 1_555
C47_5 C11_5 1_555 1_555
H52_5 C47_5 1_555 1_555
C56_5 C4_5 1_555 1_555
C62_5 C56_5 1_555 1_555
H71_5 C62_5 1_555 1_555
C63_5 N9_5 1_555 1_555
H72_5 C63_5 1_555 1_555
C88_5 H95_5 1_555 1_555
H96_5 C88_5 1_555 1_555
H97_5 C88_5 1_555 1_555
C89_5 C93_5 1_555 1_555
C90_5 H98_5 1_555 1_555
C91_5 C90_5 1_555 1_555
C92_5 H99_5 1_555 1_555
H100_5 C92_5 1_555 1_555
H101_5 C92_5 1_555 1_555
C93_5 C88_5 1_555 1_555
C94_5 C91_5 1_555 1_555
C95_5 H102_5 1_555 1_555
C96_5 C91_5 1_555 1_555
H103_5 C96_5 1_555 1_555
C97_5 H104_5 1_555 1_555
C98_5 C97_5 1_555 1_555
H105_5 C98_5 1_555 1_555
C99_5 C89_5 1_555 1_555
C100_5 C99_5 1_555 1_555
H106_5 C100_5 1_555 1_555
H107_5 C100_5 1_555 1_555
H108_5 C100_5 1_555 1_555
C101_5 C42_5 1_555 1_555
N9_4 C98_5 1_555 1_555
C102_5 C92_5 1_555 1_555
N10_4 C95_5 1_555 1_555
C103_5 C90_5 1_555 1_555
H109_5 C103_5 1_555 1_555
C104_5 C89_5 1_555 1_555
C105_5 C104_5 1_555 1_555
H110_5 C105_5 1_555 1_555
C106_5 N9_4 1_555 1_555
H111_5 C106_5 1_555 1_555
C17_5 C38_5 1_555 1_555
C17_5 C44_5 1_555 1_555
C21_5 C28_5 1_555 1_555
C30_5 C56_5 1_555 1_555
C36_5 N9_5 1_555 1_555
C42_5 C44_5 1_555 1_555
N10_5 C47_5 1_555 1_555
C62_5 C63_5 1_555 1_555
C93_5 C101_5 1_555 1_555
C94_5 C99_5 1_555 1_555
C94_5 C102_5 1_555 1_555
C95_5 C96_5 1_555 1_555
C97_5 C104_5 1_555 1_555
C101_5 C102_5 1_555 1_555
N10_4 C103_5 1_555 1_555
C105_5 C106_5 1_555 1_555
C3_6 H2_6 1_555 1_555
H3_6 C3_6 1_555 1_555
H4_6 C3_6 1_555 1_555
C4_6 C14_6 1_555 1_555
C11_6 H10_6 1_555 1_555
C12_6 C11_6 1_555 1_555
C13_6 H11_6 1_555 1_555
H12_6 C13_6 1_555 1_555
H13_6 C13_6 1_555 1_555
C14_6 C3_6 1_555 1_555
C17_6 C12_6 1_555 1_555
C21_6 H22_6 1_555 1_555
C28_6 C12_6 1_555 1_555
H24_6 C28_6 1_555 1_555
C30_6 H25_6 1_555 1_555
C36_6 C30_6 1_555 1_555
H41_6 C36_6 1_555 1_555
C38_6 C4_6 1_555 1_555
C40_6 C38_6 1_555 1_555
H45_6 C40_6 1_555 1_555
H46_6 C40_6 1_555 1_555
H47_6 C40_6 1_555 1_555
C42_6 C14_6 1_555 1_555
C44_6 C13_6 1_555 1_555
N10_6 C21_6 1_555 1_555
C47_6 C11_6 1_555 1_555
H52_6 C47_6 1_555 1_555
C56_6 C4_6 1_555 1_555
C62_6 C56_6 1_555 1_555
H71_6 C62_6 1_555 1_555
C63_6 N9_6 1_555 1_555
H72_6 C63_6 1_555 1_555
C88_6 H95_6 1_555 1_555
H96_6 C88_6 1_555 1_555
H97_6 C88_6 1_555 1_555
C89_6 C93_6 1_555 1_555
C90_6 H98_6 1_555 1_555
C91_6 C90_6 1_555 1_555
C92_6 H99_6 1_555 1_555
H100_6 C92_6 1_555 1_555
H101_6 C92_6 1_555 1_555
C93_6 C88_6 1_555 1_555
C94_6 C91_6 1_555 1_555
C95_6 H102_6 1_555 1_555
C96_6 C91_6 1_555 1_555
H103_6 C96_6 1_555 1_555
C97_6 H104_6 1_555 1_555
C98_6 C97_6 1_555 1_555
H105_6 C98_6 1_555 1_555
C99_6 C89_6 1_555 1_555
C100_6 C99_6 1_555 1_555
H106_6 C100_6 1_555 1_555
H107_6 C100_6 1_555 1_555
H108_6 C100_6 1_555 1_555
C101_6 C42_6 1_555 1_555
N9_3 C98_6 1_555 1_555
C102_6 C92_6 1_555 1_555
N10_3 C95_6 1_555 1_555
C103_6 C90_6 1_555 1_555
H109_6 C103_6 1_555 1_555
C104_6 C89_6 1_555 1_555
C105_6 C104_6 1_555 1_555
H110_6 C105_6 1_555 1_555
C106_6 N9_3 1_555 1_555
H111_6 C106_6 1_555 1_555
C17_6 C38_6 1_555 1_555
C17_6 C44_6 1_555 1_555
C21_6 C28_6 1_555 1_555
C30_6 C56_6 1_555 1_555
C36_6 N9_6 1_555 1_555
C42_6 C44_6 1_555 1_555
N10_6 C47_6 1_555 1_555
C62_6 C63_6 1_555 1_555
C93_6 C101_6 1_555 1_555
C94_6 C99_6 1_555 1_555
C94_6 C102_6 1_555 1_555
C95_6 C96_6 1_555 1_555
C97_6 C104_6 1_555 1_555
C101_6 C102_6 1_555 1_555
N10_3 C103_6 1_555 1_555
C105_6 C106_6 1_555 1_555
C3_7 H2_7 1_555 1_555
H3_7 C3_7 1_555 1_555
H4_7 C3_7 1_555 1_555
C4_7 C14_7 1_555 1_555
C11_7 H10_7 1_555 1_555
C12_7 C11_7 1_555 1_555
C13_7 H11_7 1_555 1_555
H12_7 C13_7 1_555 1_555
H13_7 C13_7 1_555 1_555
C14_7 C3_7 1_555 1_555
C17_7 C12_7 1_555 1_555
C21_7 H22_7 1_555 1_555
C28_7 C12_7 1_555 1_555
H24_7 C28_7 1_555 1_555
C30_7 H25_7 1_555 1_555
C36_7 C30_7 1_555 1_555
H41_7 C36_7 1_555 1_555
C38_7 C4_7 1_555 1_555
C40_7 C38_7 1_555 1_555
H45_7 C40_7 1_555 1_555
H46_7 C40_7 1_555 1_555
H47_7 C40_7 1_555 1_555
C42_7 C14_7 1_555 1_555
C44_7 C13_7 1_555 1_555
N10_8 C21_7 1_555 1_555
C47_7 C11_7 1_555 1_555
H52_7 C47_7 1_555 1_555
C56_7 C4_7 1_555 1_555
C62_7 C56_7 1_555 1_555
H71_7 C62_7 1_555 1_555
C63_7 N9_8 1_555 1_555
H72_7 C63_7 1_555 1_555
C88_7 H95_7 1_555 1_555
H96_7 C88_7 1_555 1_555
H97_7 C88_7 1_555 1_555
C89_7 C93_7 1_555 1_555
C90_7 H98_7 1_555 1_555
C91_7 C90_7 1_555 1_555
C92_7 H99_7 1_555 1_555
H100_7 C92_7 1_555 1_555
H101_7 C92_7 1_555 1_555
C93_7 C88_7 1_555 1_555
C94_7 C91_7 1_555 1_555
C95_7 H102_7 1_555 1_555
C96_7 C91_7 1_555 1_555
H103_7 C96_7 1_555 1_555
C97_7 H104_7 1_555 1_555
C98_7 C97_7 1_555 1_555
H105_7 C98_7 1_555 1_555
C99_7 C89_7 1_555 1_555
C100_7 C99_7 1_555 1_555
H106_7 C100_7 1_555 1_555
H107_7 C100_7 1_555 1_555
H108_7 C100_7 1_555 1_555
C101_7 C42_7 1_555 1_555
N9 C98_7 1_555 1_555
C102_7 C92_7 1_555 1_555
N10 C95_7 1_555 1_555
C103_7 C90_7 1_555 1_555
H109_7 C103_7 1_555 1_555
C104_7 C89_7 1_555 1_555
C105_7 C104_7 1_555 1_555
H110_7 C105_7 1_555 1_555
C106_7 N9 1_555 1_555
H111_7 C106_7 1_555 1_555
C17_7 C38_7 1_555 1_555
C17_7 C44_7 1_555 1_555
C21_7 C28_7 1_555 1_555
C30_7 C56_7 1_555 1_555
C36_7 N9_8 1_555 1_555
C42_7 C44_7 1_555 1_555
N10_8 C47_7 1_555 1_555
C62_7 C63_7 1_555 1_555
C93_7 C101_7 1_555 1_555
C94_7 C99_7 1_555 1_555
C94_7 C102_7 1_555 1_555
C95_7 C96_7 1_555 1_555
C97_7 C104_7 1_555 1_555
C101_7 C102_7 1_555 1_555
N10 C103_7 1_555 1_555
C105_7 C106_7 1_555 1_555
C3_8 H2_8 1_555 1_555
H3_8 C3_8 1_555 1_555
H4_8 C3_8 1_555 1_555
C4_8 C14_8 1_555 1_555
C11_8 H10_8 1_555 1_555
C12_8 C11_8 1_555 1_555
C13_8 H11_8 1_555 1_555
H12_8 C13_8 1_555 1_555
H13_8 C13_8 1_555 1_555
C14_8 C3_8 1_555 1_555
C17_8 C12_8 1_555 1_555
C21_8 H22_8 1_555 1_555
C28_8 C12_8 1_555 1_555
H24_8 C28_8 1_555 1_555
C30_8 H25_8 1_555 1_555
C36_8 C30_8 1_555 1_555
H41_8 C36_8 1_555 1_555
C38_8 C4_8 1_555 1_555
C40_8 C38_8 1_555 1_555
H45_8 C40_8 1_555 1_555
H46_8 C40_8 1_555 1_555
H47_8 C40_8 1_555 1_555
C42_8 C14_8 1_555 1_555
C44_8 C13_8 1_555 1_555
N10_7 C21_8 1_555 1_555
C47_8 C11_8 1_555 1_555
H52_8 C47_8 1_555 1_555
C56_8 C4_8 1_555 1_555
C62_8 C56_8 1_555 1_555
H71_8 C62_8 1_555 1_555
C63_8 N9_7 1_555 1_555
H72_8 C63_8 1_555 1_555
C88_8 H95_8 1_555 1_555
H96_8 C88_8 1_555 1_555
H97_8 C88_8 1_555 1_555
C89_8 C93_8 1_555 1_555
C90_8 H98_8 1_555 1_555
C91_8 C90_8 1_555 1_555
C92_8 H99_8 1_555 1_555
H100_8 C92_8 1_555 1_555
H101_8 C92_8 1_555 1_555
C93_8 C88_8 1_555 1_555
C94_8 C91_8 1_555 1_555
C95_8 H102_8 1_555 1_555
C96_8 C91_8 1_555 1_555
H103_8 C96_8 1_555 1_555
C97_8 H104_8 1_555 1_555
C98_8 C97_8 1_555 1_555
H105_8 C98_8 1_555 1_555
C99_8 C89_8 1_555 1_555
C100_8 C99_8 1_555 1_555
H106_8 C100_8 1_555 1_555
H107_8 C100_8 1_555 1_555
H108_8 C100_8 1_555 1_555
C101_8 C42_8 1_555 1_555
N9_2 C98_8 1_555 1_555
C102_8 C92_8 1_555 1_555
N10_2 C95_8 1_555 1_555
C103_8 C90_8 1_555 1_555
H109_8 C103_8 1_555 1_555
C104_8 C89_8 1_555 1_555
C105_8 C104_8 1_555 1_555
H110_8 C105_8 1_555 1_555
C106_8 N9_2 1_555 1_555
H111_8 C106_8 1_555 1_555
C17_8 C38_8 1_555 1_555
C17_8 C44_8 1_555 1_555
C21_8 C28_8 1_555 1_555
C30_8 C56_8 1_555 1_555
C36_8 N9_7 1_555 1_555
C42_8 C44_8 1_555 1_555
N10_7 C47_8 1_555 1_555
C62_8 C63_8 1_555 1_555
C93_8 C101_8 1_555 1_555
C94_8 C99_8 1_555 1_555
C94_8 C102_8 1_555 1_555
C95_8 C96_8 1_555 1_555
C97_8 C104_8 1_555 1_555
C101_8 C102_8 1_555 1_555
N10_2 C103_8 1_555 1_555
C105_8 C106_8 1_555 1_555

#END
