
###############################################################################
#
# This file contains modified crystal structure data generated from the
# MOF subset of the Cambridge Structural Database (CSD) v543 
# hosted by the Cambridge Crystallographic Data Centre (CCDC).
#
# This work is licensed under the Creative Commons
# Attribution-NonCommercial-ShareAlike 4.0 International License.
# To view a copy of this license, visit
# http://creativecommons.org/licenses/by-nc-sa/4.0/
# or send a letter to
# Creative Commons, PO Box 1866, Mountain View, CA 94042, USA.
#
# CIF created using the CSD Python API on 29 September 2022
# The structure has been converted into the P1 space group
# The structure has a 3D framework
# The original CSD entry JOHDOC is in the tetragonal crystal system
# The framework has been calculated to contain at least 10.0% void space
# The void calculation uses a probe of radius 1.32A, grid spacing 0.4
#
###############################################################################

data_JOHDOC
_chemical_formula_moiety         '(C1088 H1232 Co32 N64 O96)n'
_symmetry_cell_setting           triclinic
_symmetry_space_group_name_H-M   'P 1'
_symmetry_Int_Tables_number      1
_space_group_name_Hall           'P 1'
loop_
_symmetry_equiv_pos_site_id
_symmetry_equiv_pos_as_xyz
1 x,y,z
_cell_length_a                   30.049(2)
_cell_length_b                   30.049(2)
_cell_length_c                   53.137(4)
_cell_angle_alpha                90
_cell_angle_beta                 90
_cell_angle_gamma                90
_cell_volume                     47979.7
loop_
_atom_site_label
_atom_site_type_symbol
_atom_site_fract_x
_atom_site_fract_y
_atom_site_fract_z
Co1 Co 0.56958(8) 0.27242(9) 0.37250(5)
Co2 Co 0.47384(8) 0.27516(10) 0.37758(5)
O1 O 0.5254(3) 0.2819(4) 0.40007(19)
O2 O 0.5181(3) 0.2826(3) 0.35075(17)
O3 O 0.4631(3) 0.3340(4) 0.38230(19)
O4 O 0.5806(3) 0.3338(4) 0.3690(2)
C1 C 0.6201(4) 0.2335(4) 0.4141(2)
H1 H 0.5967 0.2123 0.4144
O5 O 0.5569(4) 0.2097(4) 0.37548(17)
C2 C 0.5562(4) 0.3532(5) 0.3505(2)
C3 C 0.3540(5) 0.2772(6) 0.2655(3)
H2 H 0.3726 0.2988 0.2745
H3 H 0.3499 0.2871 0.2481
H4 H 0.3687 0.2481 0.2656
C4 C 0.3083(6) 0.2669(5) 0.3043(3)
C5 C 0.7726(6) 0.2517(5) 0.4059(3)
H5 H 0.8036 0.2507 0.4002
H6 H 0.7574 0.2769 0.3980
H7 H 0.7575 0.2239 0.4013
C6 C 0.8110(4) 0.2568(3) 0.4481(2)
C7 C 0.5237(5) 0.3249(4) 0.3418(3)
C8 C 0.8541(4) 0.2532(4) 0.4350(2)
C9 C 0.4950(5) 0.3388(6) 0.3220(3)
H8 H 0.4725 0.3199 0.3154
C10 C 0.6559(5) 0.2296(5) 0.4315(2)
H9 H 0.6562 0.2067 0.4438
C11 C 0.1749(4) 0.2918(4) 0.3339(2)
H10 H 0.1909 0.3187 0.3363
C12 C 0.1892(4) 0.2601(5) 0.3157(2)
C13 C 0.1847(5) 0.2743(5) 0.2638(3)
H11 H 0.1853 0.2594 0.2475
H12 H 0.1771 0.3058 0.2615
H13 H 0.1623 0.2602 0.2746
C14 C 0.3118(5) 0.2739(5) 0.2776(3)
C15 C 0.5927(6) 0.4286(6) 0.3808(3)
H14 H 0.6144 0.4501 0.3872
H15 H 0.5978 0.3996 0.3887
H16 H 0.5625 0.4389 0.3848
C16 C 0.6914(5) 0.2609(4) 0.4299(3)
C17 C 0.2309(5) 0.2641(4) 0.3016(3)
C18 C 0.8656(5) 0.2864(4) 0.4171(3)
H17 H 0.8477 0.3123 0.4153
C19 C 0.5346(6) 0.4102(6) 0.3215(3)
H18 H 0.5383 0.4391 0.3146
C20 C 0.4535(6) 0.4390(6) 0.3761(3)
H19 H 0.4849 0.4392 0.3711
H20 H 0.4416 0.4693 0.3754
H21 H 0.4366 0.4198 0.3646
C21 C 0.1259(5) 0.2113(4) 0.3270(2)
H22 H 0.1094 0.1847 0.3246
C22 C 0.8088(5) 0.2600(4) 0.4748(2)
C23 C 0.4704(7) 0.3931(8) 0.2925(4)
C24 C 0.4845(5) 0.3912(6) 0.4117(3)
C25 C 0.4884(5) 0.3499(6) 0.4007(3)
C26 C 0.5118(5) 0.4056(6) 0.4313(3)
H23 H 0.5082 0.4348 0.4378
C27 C 0.5211(6) 0.3220(5) 0.4102(3)
C28 C 0.1645(5) 0.2198(5) 0.3123(2)
H24 H 0.1740 0.1985 0.3002
C29 C 0.5739(12) 0.3903(12) 0.4629(6)
C30 C 0.3565(4) 0.3052(5) 0.3366(3)
H25 H 0.3347 0.3281 0.3372
O6 O 0.4846(4) 0.2100(3) 0.3731(2)
C31 C 0.4441(8) 0.4663(7) 0.4192(5)
H26 H 0.4638 0.4895 0.4125
H27 H 0.4522 0.4600 0.4367
H28 H 0.4132 0.4766 0.4184
C32 C 0.5954(8) 0.4718(5) 0.3404(3)
H29 H 0.5649 0.4829 0.3419
H30 H 0.6042 0.4718 0.3226
H31 H 0.6155 0.4912 0.3499
C33 C 0.4297(8) 0.4174(9) 0.3010(5)
H32 H 0.4106 0.4237 0.2865
H33 H 0.4385 0.4455 0.3090
H34 H 0.4134 0.3991 0.3132
C34 C 0.8503(4) 0.2630(5) 0.4917(2)
H35 H 0.8605 0.2329 0.4959
H36 H 0.8429 0.2791 0.5071
H37 H 0.8739 0.2789 0.4827
C35 C 0.6433(5) 0.4037(6) 0.3456(4)
H38 H 0.6666 0.4246 0.3506
H39 H 0.6459 0.3973 0.3276
H40 H 0.6465 0.3760 0.3552
C36 C 0.3944(6) 0.3067(6) 0.3527(3)
H41 H 0.3977 0.3309 0.3641
C37 C 0.4537(11) 0.3556(9) 0.2701(5)
H42 H 0.4356 0.3323 0.2780
H43 H 0.4799 0.3421 0.2622
H44 H 0.4360 0.3710 0.2572
C38 C 0.2696(6) 0.2640(5) 0.3171(3)
C39 C 0.7715(4) 0.2571(2) 0.4339(2)
C40 C 0.2716(6) 0.2542(6) 0.3444(3)
H45 H 0.2947 0.2319 0.3476
H46 H 0.2427 0.2427 0.3501
H47 H 0.2786 0.2815 0.3537
C41 C 0.7297(4) 0.2608(3) 0.4463(2)
C42 C 0.2730(5) 0.2737(5) 0.2642(2)
C43 C 0.6848(5) 0.2680(5) 0.4863(3)
H48 H 0.6711 0.2969 0.4827
H49 H 0.6903 0.2654 0.5044
H50 H 0.6647 0.2441 0.4809
N1 N 0.4269(4) 0.2732(5) 0.3522(2)
C44 C 0.2315(5) 0.2706(4) 0.2766(3)
N2 N 0.1125(3) 0.2426(4) 0.34509(19)
C45 C 0.6879(5) 0.2979(5) 0.4134(3)
H51 H 0.7105 0.3200 0.4134
C46 C 0.5021(6) 0.3830(7) 0.3126(3)
C47 C 0.1366(5) 0.2826(4) 0.3483(2)
H52 H 0.1267 0.3037 0.3603
C48 C 0.5196(6) 0.1398(5) 0.3738(4)
H53 H 0.5446 0.1295 0.3635
H54 H 0.4916 0.1296 0.3663
H55 H 0.5224 0.1278 0.3909
C49 C 0.5199(6) 0.1899(6) 0.3749(3)
C50 C 0.5441(6) 0.3778(8) 0.4412(3)
C51 C 0.5942(11) 0.3594(11) 0.4747(5)
H56 H 0.5731 0.3356 0.4789
H57 H 0.6072 0.3713 0.4902
H58 H 0.6179 0.3473 0.4640
C52 C 0.5871(11) 0.4367(10) 0.4552(5)
H59 H 0.5849 0.4566 0.4697
H60 H 0.5672 0.4471 0.4418
H61 H 0.6178 0.4364 0.4490
C53 C 0.5470(10) 0.4059(10) 0.4888(5)
H62 H 0.5299 0.4330 0.4854
H63 H 0.5685 0.4118 0.5023
H64 H 0.5267 0.3821 0.4941
C54 C 0.9195(4) 0.2091(5) 0.4226(3)
H65 H 0.9376 0.1834 0.4245
N3 N 0.6187(4) 0.2681(4) 0.3967(2)
C55 C 0.4495(6) 0.4215(6) 0.4025(3)
C56 C 0.5981(6) 0.4240(5) 0.3509(4)
N4 N 0.9307(4) 0.2419(5) 0.4050(2)
C57 C 0.3517(5) 0.2690(7) 0.3196(3)
C58 C 0.6513(6) 0.3023(5) 0.3970(3)
H66 H 0.6485 0.3275 0.3864
C59 C 0.5628(5) 0.3954(6) 0.3411(3)
C60 C 0.9042(6) 0.2804(5) 0.4022(2)
H67 H 0.9122 0.3024 0.3901
C61 C 0.4038(6) 0.4006(7) 0.4084(4)
H68 H 0.3828 0.4241 0.4131
H69 H 0.4069 0.3795 0.4224
H70 H 0.3928 0.3849 0.3935
C62 C 0.7673(6) 0.2638(4) 0.4869(2)
C63 C 0.3846(6) 0.2352(6) 0.3191(3)
H71 H 0.3813 0.2109 0.3078
C64 C 0.4222(5) 0.2370(5) 0.3351(3)
H72 H 0.4441 0.2143 0.3345
C65 C 0.7270(5) 0.2643(4) 0.4727(3)
C66 C 0.8806(5) 0.2149(4) 0.4378(2)
H73 H 0.8726 0.1928 0.4497
C67 C 0.5487(6) 0.3355(7) 0.4301(4)
H74 H 0.5709 0.3157 0.4362
C68 C 0.5025(9) 0.4283(11) 0.2761(5)
H75 H 0.4884 0.4348 0.2598
H76 H 0.5317 0.4148 0.2732
H77 H 0.5062 0.4561 0.2855
C69 C 0.7335(4) 0.1201(4) 0.5859(2)
H78 H 0.7123 0.0967 0.5856
C70 C 0.7517(5) 0.2726(6) 0.5941(3)
H79 H 0.7507 0.3036 0.5998
H80 H 0.7769 0.2574 0.6020
H81 H 0.7239 0.2575 0.5987
C71 C 0.7568(3) 0.3110(4) 0.5519(2)
C72 C 0.7532(4) 0.3541(4) 0.5650(2)
C73 C 0.7296(5) 0.1559(5) 0.5685(2)
H82 H 0.7067 0.1562 0.5562
C74 C 0.7609(4) 0.1914(5) 0.5701(3)
C75 C 0.7864(4) 0.3656(5) 0.5829(3)
H83 H 0.8123 0.3477 0.5847
C76 C 0.7600(4) 0.3088(5) 0.5252(2)
C77 C 0.7630(5) 0.3503(4) 0.5083(2)
H84 H 0.7329 0.3605 0.5041
H85 H 0.7791 0.3429 0.4929
H86 H 0.7789 0.3739 0.5173
C78 C 0.7571(2) 0.2715(4) 0.5661(2)
C79 C 0.7608(3) 0.2297(4) 0.5537(2)
C80 C 0.7680(5) 0.1848(5) 0.5137(3)
H87 H 0.7969 0.1711 0.5173
H88 H 0.7654 0.1903 0.4956
H89 H 0.7441 0.1647 0.5191
C81 C 0.7979(5) 0.1879(5) 0.5866(3)
H90 H 0.8200 0.2105 0.5866
C82 C 0.7091(5) 0.4195(4) 0.5774(3)
H91 H 0.6834 0.4376 0.5755
N5 N 0.7681(4) 0.1187(4) 0.6033(2)
N6 N 0.7419(5) 0.4307(4) 0.5950(2)
C83 C 0.8023(5) 0.1513(6) 0.6030(3)
H92 H 0.8275 0.1485 0.6136
C84 C 0.7804(5) 0.4042(6) 0.5978(2)
H93 H 0.8024 0.4122 0.6099
C85 C 0.7638(4) 0.2673(6) 0.5131(2)
C86 C 0.7643(4) 0.2270(5) 0.5273(3)
C87 C 0.7149(4) 0.3806(5) 0.5622(2)
H94 H 0.6928 0.3726 0.5503
C88 C 0.2772(6) 0.3540(5) 0.2345(3)
H95 H 0.2988 0.3726 0.2255
H96 H 0.2871 0.3499 0.2519
H97 H 0.2481 0.3687 0.2344
C89 C 0.2669(5) 0.3083(6) 0.1957(3)
C90 C 0.2918(4) 0.1749(4) 0.1661(2)
H98 H 0.3187 0.1909 0.1637
C91 C 0.2601(5) 0.1892(4) 0.1843(2)
C92 C 0.2743(5) 0.1847(5) 0.2362(3)
H99 H 0.2594 0.1853 0.2525
H100 H 0.3058 0.1771 0.2385
H101 H 0.2602 0.1623 0.2254
C93 C 0.2739(5) 0.3118(5) 0.2224(3)
C94 C 0.2641(4) 0.2309(5) 0.1984(3)
C95 C 0.2113(4) 0.1259(5) 0.1730(2)
H102 H 0.1847 0.1094 0.1754
C96 C 0.2198(5) 0.1645(5) 0.1877(2)
H103 H 0.1985 0.1740 0.1998
C97 C 0.3052(5) 0.3565(4) 0.1634(3)
H104 H 0.3281 0.3347 0.1628
C98 C 0.3067(6) 0.3944(6) 0.1473(3)
H105 H 0.3309 0.3977 0.1359
C99 C 0.2640(5) 0.2696(6) 0.1829(3)
C100 C 0.2542(6) 0.2716(6) 0.1556(3)
H106 H 0.2319 0.2947 0.1524
H107 H 0.2427 0.2427 0.1499
H108 H 0.2815 0.2786 0.1463
C101 C 0.2737(5) 0.2730(5) 0.2358(2)
N7 N 0.2732(5) 0.4269(4) 0.1478(2)
C102 C 0.2706(4) 0.2315(5) 0.2234(3)
N8 N 0.2426(4) 0.1125(3) 0.15491(19)
C103 C 0.2826(4) 0.1366(5) 0.1517(2)
H109 H 0.3037 0.1267 0.1397
C104 C 0.2690(7) 0.3517(5) 0.1804(3)
C105 C 0.2352(6) 0.3846(6) 0.1809(3)
H110 H 0.2109 0.3813 0.1922
C106 C 0.2370(5) 0.4222(5) 0.1649(3)
H111 H 0.2143 0.4441 0.1655
Co3 Co 0.06958(8) 0.22758(9) 0.37250(5)
O7 O 0.0254(3) 0.2181(4) 0.40007(19)
O8 O 0.0181(3) 0.2174(3) 0.35075(17)
O10 O 0.0806(3) 0.1662(4) 0.3690(2)
O11 O 0.0569(4) 0.2903(4) 0.37548(17)
C107 C 0.0562(4) 0.1468(5) 0.3505(2)
C108 C 0.0237(5) 0.1751(4) 0.3418(3)
C110 C 0.0927(6) 0.0714(6) 0.3808(3)
H113 H 0.1144 0.0499 0.3872
H114 H 0.0978 0.1004 0.3887
H115 H 0.0625 0.0611 0.3848
C111 C 0.0346(6) 0.0898(6) 0.3215(3)
H116 H 0.0383 0.0609 0.3146
C116 C 0.0118(5) 0.0944(6) 0.4313(3)
H120 H 0.0082 0.0652 0.4378
C117 C 0.0211(6) 0.1780(5) 0.4102(3)
C118 C 0.0739(12) 0.1097(12) 0.4629(6)
C120 C 0.0954(8) 0.0282(5) 0.3404(3)
H124 H 0.0649 0.0171 0.3419
H125 H 0.1042 0.0282 0.3226
H126 H 0.1155 0.0088 0.3499
C122 C 0.1433(5) 0.0963(6) 0.3456(4)
H130 H 0.1666 0.0754 0.3506
H131 H 0.1459 0.1027 0.3276
H132 H 0.1465 0.1240 0.3552
C124 C 0.0021(6) 0.1170(7) 0.3126(3)
C125 C 0.0196(6) 0.3602(5) 0.3738(4)
H136 H 0.0446 0.3705 0.3635
H138 H 0.0224 0.3722 0.3909
C126 C 0.0199(6) 0.3101(6) 0.3749(3)
C127 C 0.0441(6) 0.1222(8) 0.4412(3)
C128 C 0.0942(11) 0.1406(11) 0.4747(5)
H139 H 0.0731 0.1644 0.4789
H140 H 0.1072 0.1287 0.4902
H141 H 0.1179 0.1527 0.4640
C129 C 0.0871(11) 0.0633(10) 0.4552(5)
H142 H 0.0849 0.0434 0.4697
H143 H 0.0672 0.0529 0.4418
H144 H 0.1178 0.0636 0.4490
C130 C 0.0470(10) 0.0941(10) 0.4888(5)
H145 H 0.0299 0.0670 0.4854
H146 H 0.0685 0.0882 0.5023
H147 H 0.0267 0.1179 0.4941
C132 C 0.0981(6) 0.0760(5) 0.3509(4)
C133 C 0.0628(5) 0.1046(6) 0.3411(3)
C135 C 0.0487(6) 0.1645(7) 0.4301(4)
H151 H 0.0709 0.1843 0.4362
C136 C 0.0025(9) 0.0717(11) 0.2761(5)
H153 H 0.0317 0.0852 0.2732
H154 H 0.0062 0.0439 0.2855
Co5 Co 0.22758(9) 0.06958(8) 0.12750(5)
Co6 Co 0.77242(9) 0.06958(8) 0.62750(5)
Co7 Co 0.72484(10) 0.47384(8) 0.62242(5)
Co8 Co 0.27516(10) 0.47384(8) 0.12242(5)
Co9 Co 0.97384(8) 0.22484(10) 0.37758(5)
N10 N 0.6125(3) 0.2574(4) 0.34509(19)
N11 N 0.1187(4) 0.2319(4) 0.3967(2)
N13 N 0.4307(4) 0.2581(5) 0.4050(2)
O9 O 0.9631(3) 0.1660(4) 0.38230(19)
C109 C 0.9950(5) 0.1612(6) 0.3220(3)
H112 H 0.9725 0.1801 0.3154
C112 C 0.9535(6) 0.0610(6) 0.3761(3)
H117 H 0.9849 0.0608 0.3711
H118 H 0.9416 0.0307 0.3754
H119 H 0.9366 0.0802 0.3646
C113 C 0.9704(7) 0.1069(8) 0.2925(4)
C114 C 0.9845(5) 0.1088(6) 0.4117(3)
C115 C 0.9884(5) 0.1501(6) 0.4007(3)
O12 O 0.9846(4) 0.2900(3) 0.3731(2)
C119 C 0.9441(8) 0.0337(7) 0.4192(5)
H121 H 0.9638 0.0105 0.4125
H122 H 0.9522 0.0400 0.4367
H123 H 0.9132 0.0234 0.4184
C121 C 0.9297(8) 0.0826(9) 0.3010(5)
H127 H 0.9106 0.0763 0.2865
H128 H 0.9385 0.0545 0.3090
H129 H 0.9134 0.1009 0.3132
C123 C 0.9537(11) 0.1444(9) 0.2701(5)
H133 H 0.9356 0.1677 0.2780
H134 H 0.9799 0.1579 0.2622
H135 H 0.9360 0.1290 0.2572
H137 H 0.9916 0.3704 0.3663
C131 C 0.9495(6) 0.0785(6) 0.4025(3)
C134 C 0.9038(6) 0.0994(7) 0.4084(4)
H148 H 0.8828 0.0759 0.4131
H149 H 0.9069 0.1205 0.4224
H150 H 0.8928 0.1151 0.3935
H152 H 0.9884 0.0652 0.2598
N9 N 0.9269(4) 0.2268(5) 0.3522(2)
Co4 Co 0.02616(8) 0.77516(10) 0.37758(5)
O9_2 O 0.0369(3) 0.8340(4) 0.38230(19)
C109_2 C 0.0050(5) 0.8388(6) 0.3220(3)
H112_2 H 0.0275 0.8199 0.3154
C112_2 C 0.0465(6) 0.9390(6) 0.3761(3)
H117_2 H 0.0151 0.9392 0.3711
H118_2 H 0.0584 0.9693 0.3754
H119_2 H 0.0634 0.9198 0.3646
C113_2 C 0.0296(7) 0.8931(8) 0.2925(4)
C114_2 C 0.0155(5) 0.8912(6) 0.4117(3)
C115_2 C 0.0116(5) 0.8499(6) 0.4007(3)
O12_2 O 0.0154(4) 0.7100(3) 0.3731(2)
C119_2 C 0.0559(8) 0.9663(7) 0.4192(5)
H121_2 H 0.0362 0.9895 0.4125
H122_2 H 0.0478 0.9600 0.4367
H123_2 H 0.0868 0.9766 0.4184
C121_2 C 0.0703(8) 0.9174(9) 0.3010(5)
H127_2 H 0.0894 0.9237 0.2865
H128_2 H 0.0615 0.9455 0.3090
H129_2 H 0.0866 0.8991 0.3132
C123_2 C 0.0463(11) 0.8556(9) 0.2701(5)
H133_2 H 0.0644 0.8323 0.2780
H134_2 H 0.0201 0.8421 0.2622
H135_2 H 0.0640 0.8710 0.2572
H137_2 H 0.0084 0.6296 0.3663
C131_2 C 0.0505(6) 0.9215(6) 0.4025(3)
C134_2 C 0.0962(6) 0.9006(7) 0.4084(4)
H148_2 H 0.1172 0.9241 0.4131
H149_2 H 0.0931 0.8795 0.4224
H150_2 H 0.1072 0.8849 0.3935
H152_2 H 0.0116 0.9348 0.2598
N9_2 N 0.0731(4) 0.7732(5) 0.3522(2)
N12 N 0.0693(4) 0.7581(5) 0.4050(2)
Co1_2 Co 0.43042(8) 0.72758(9) 0.37250(5)
Co2_2 Co 0.52616(8) 0.72484(10) 0.37758(5)
O1_2 O 0.4746(3) 0.7181(4) 0.40007(19)
O2_2 O 0.4819(3) 0.7174(3) 0.35075(17)
O3_2 O 0.5369(3) 0.6660(4) 0.38230(19)
O4_2 O 0.4194(3) 0.6662(4) 0.3690(2)
C1_2 C 0.3799(4) 0.7665(4) 0.4141(2)
H1_2 H 0.4033 0.7877 0.4144
O5_2 O 0.4431(4) 0.7903(4) 0.37548(17)
C2_2 C 0.4438(4) 0.6468(5) 0.3505(2)
C3_2 C 0.6460(5) 0.7228(6) 0.2655(3)
H2_2 H 0.6274 0.7012 0.2745
H3_2 H 0.6501 0.7129 0.2481
H4_2 H 0.6313 0.7519 0.2656
C4_2 C 0.6917(6) 0.7331(5) 0.3043(3)
C5_2 C 0.2274(6) 0.7483(5) 0.4059(3)
H5_2 H 0.1964 0.7493 0.4002
H6_2 H 0.2426 0.7231 0.3980
H7_2 H 0.2425 0.7761 0.4013
C6_2 C 0.1890(4) 0.7432(3) 0.4481(2)
C7_2 C 0.4763(5) 0.6751(4) 0.3418(3)
C8_2 C 0.1459(4) 0.7468(4) 0.4350(2)
C9_2 C 0.5050(5) 0.6612(6) 0.3220(3)
H8_2 H 0.5275 0.6801 0.3154
C10_2 C 0.3441(5) 0.7704(5) 0.4315(2)
H9_2 H 0.3438 0.7933 0.4438
C11_2 C 0.8251(4) 0.7082(4) 0.3339(2)
H10_2 H 0.8091 0.6813 0.3363
C12_2 C 0.8108(4) 0.7399(5) 0.3157(2)
C13_2 C 0.8153(5) 0.7257(5) 0.2638(3)
H11_2 H 0.8147 0.7406 0.2475
H12_2 H 0.8229 0.6942 0.2615
H13_2 H 0.8377 0.7398 0.2746
C14_2 C 0.6882(5) 0.7261(5) 0.2776(3)
C15_2 C 0.4073(6) 0.5714(6) 0.3808(3)
H14_2 H 0.3856 0.5499 0.3872
H15_2 H 0.4022 0.6004 0.3887
H16_2 H 0.4375 0.5611 0.3848
C16_2 C 0.3086(5) 0.7391(4) 0.4299(3)
C17_2 C 0.7691(5) 0.7359(4) 0.3016(3)
C18_2 C 0.1344(5) 0.7136(4) 0.4171(3)
H17_2 H 0.1523 0.6877 0.4153
C19_2 C 0.4654(6) 0.5898(6) 0.3215(3)
H18_2 H 0.4617 0.5609 0.3146
C20_2 C 0.5465(6) 0.5610(6) 0.3761(3)
H19_2 H 0.5151 0.5608 0.3711
H20_2 H 0.5584 0.5307 0.3754
H21_2 H 0.5634 0.5802 0.3646
C21_2 C 0.8741(5) 0.7887(4) 0.3270(2)
H22_2 H 0.8906 0.8153 0.3246
C22_2 C 0.1912(5) 0.7400(4) 0.4748(2)
C23_2 C 0.5296(7) 0.6069(8) 0.2925(4)
C24_2 C 0.5155(5) 0.6088(6) 0.4117(3)
C25_2 C 0.5116(5) 0.6501(6) 0.4007(3)
C26_2 C 0.4882(5) 0.5944(6) 0.4313(3)
H23_2 H 0.4918 0.5652 0.4378
C27_2 C 0.4789(6) 0.6780(5) 0.4102(3)
C28_2 C 0.8355(5) 0.7802(5) 0.3123(2)
H24_2 H 0.8260 0.8015 0.3002
C29_2 C 0.4261(12) 0.6097(12) 0.4629(6)
C30_2 C 0.6435(4) 0.6948(5) 0.3366(3)
H25_2 H 0.6653 0.6719 0.3372
O6_2 O 0.5154(4) 0.7900(3) 0.3731(2)
C31_2 C 0.5559(8) 0.5337(7) 0.4192(5)
H26_2 H 0.5362 0.5105 0.4125
H27_2 H 0.5478 0.5400 0.4367
H28_2 H 0.5868 0.5234 0.4184
C32_2 C 0.4046(8) 0.5282(5) 0.3404(3)
H29_2 H 0.4351 0.5171 0.3419
H30_2 H 0.3958 0.5282 0.3226
H31_2 H 0.3845 0.5088 0.3499
C33_2 C 0.5703(8) 0.5826(9) 0.3010(5)
H32_2 H 0.5894 0.5763 0.2865
H33_2 H 0.5615 0.5545 0.3090
H34_2 H 0.5866 0.6009 0.3132
C34_2 C 0.1497(4) 0.7370(5) 0.4917(2)
H35_2 H 0.1395 0.7671 0.4959
H36_2 H 0.1571 0.7209 0.5071
H37_2 H 0.1261 0.7211 0.4827
C35_2 C 0.3567(5) 0.5963(6) 0.3456(4)
H38_2 H 0.3334 0.5754 0.3506
H39_2 H 0.3541 0.6027 0.3276
H40_2 H 0.3535 0.6240 0.3552
C36_2 C 0.6056(6) 0.6933(6) 0.3527(3)
H41_2 H 0.6023 0.6691 0.3641
C37_2 C 0.5463(11) 0.6444(9) 0.2701(5)
H42_2 H 0.5644 0.6677 0.2780
H43_2 H 0.5201 0.6579 0.2622
H44_2 H 0.5640 0.6290 0.2572
C38_2 C 0.7304(6) 0.7360(5) 0.3171(3)
C39_2 C 0.2285(4) 0.7429(2) 0.4339(2)
C40_2 C 0.7284(6) 0.7458(6) 0.3444(3)
H45_2 H 0.7053 0.7681 0.3476
H46_2 H 0.7573 0.7573 0.3501
H47_2 H 0.7214 0.7185 0.3537
C41_2 C 0.2703(4) 0.7392(3) 0.4463(2)
C42_2 C 0.7270(5) 0.7263(5) 0.2642(2)
C43_2 C 0.3152(5) 0.7320(5) 0.4863(3)
H48_2 H 0.3289 0.7031 0.4827
H49_2 H 0.3097 0.7346 0.5044
H50_2 H 0.3353 0.7559 0.4809
N1_2 N 0.5731(4) 0.7268(5) 0.3522(2)
C44_2 C 0.7685(5) 0.7294(4) 0.2766(3)
N2_2 N 0.8875(3) 0.7574(4) 0.34509(19)
C45_2 C 0.3121(5) 0.7021(5) 0.4134(3)
H51_2 H 0.2895 0.6800 0.4134
C46_2 C 0.4979(6) 0.6170(7) 0.3126(3)
C47_2 C 0.8634(5) 0.7174(4) 0.3483(2)
H52_2 H 0.8733 0.6963 0.3603
C48_2 C 0.4804(6) 0.8602(5) 0.3738(4)
H53_2 H 0.4554 0.8705 0.3635
H54_2 H 0.5084 0.8704 0.3663
H55_2 H 0.4776 0.8722 0.3909
C49_2 C 0.4801(6) 0.8101(6) 0.3749(3)
C50_2 C 0.4559(6) 0.6222(8) 0.4412(3)
C51_2 C 0.4058(11) 0.6406(11) 0.4747(5)
H56_2 H 0.4269 0.6644 0.4789
H57_2 H 0.3928 0.6287 0.4902
H58_2 H 0.3821 0.6527 0.4640
C52_2 C 0.4129(11) 0.5633(10) 0.4552(5)
H59_2 H 0.4151 0.5434 0.4697
H60_2 H 0.4328 0.5529 0.4418
H61_2 H 0.3822 0.5636 0.4490
C53_2 C 0.4530(10) 0.5941(10) 0.4888(5)
H62_2 H 0.4701 0.5670 0.4854
H63_2 H 0.4315 0.5882 0.5023
H64_2 H 0.4733 0.6179 0.4941
C54_2 C 0.0805(4) 0.7909(5) 0.4226(3)
H65_2 H 0.0624 0.8166 0.4245
N3_2 N 0.3813(4) 0.7319(4) 0.3967(2)
C55_2 C 0.5505(6) 0.5785(6) 0.4025(3)
C56_2 C 0.4019(6) 0.5760(5) 0.3509(4)
C57_2 C 0.6483(5) 0.7310(7) 0.3196(3)
C58_2 C 0.3487(6) 0.6977(5) 0.3970(3)
H66_2 H 0.3515 0.6725 0.3864
C59_2 C 0.4372(5) 0.6046(6) 0.3411(3)
C60_2 C 0.0958(6) 0.7196(5) 0.4022(2)
H67_2 H 0.0878 0.6976 0.3901
C61_2 C 0.5962(6) 0.5994(7) 0.4084(4)
H68_2 H 0.6172 0.5759 0.4131
H69_2 H 0.5931 0.6205 0.4224
H70_2 H 0.6072 0.6151 0.3935
C62_2 C 0.2327(6) 0.7362(4) 0.4869(2)
C63_2 C 0.6154(6) 0.7648(6) 0.3191(3)
H71_2 H 0.6187 0.7891 0.3078
C64_2 C 0.5778(5) 0.7630(5) 0.3351(3)
H72_2 H 0.5559 0.7857 0.3345
C65_2 C 0.2730(5) 0.7357(4) 0.4727(3)
C66_2 C 0.1194(5) 0.7851(4) 0.4378(2)
H73_2 H 0.1274 0.8072 0.4497
C67_2 C 0.4513(6) 0.6645(7) 0.4301(4)
H74_2 H 0.4291 0.6843 0.4362
C68_2 C 0.4975(9) 0.5717(11) 0.2761(5)
H75_2 H 0.5116 0.5652 0.2598
H76_2 H 0.4683 0.5852 0.2732
H77_2 H 0.4938 0.5439 0.2855
C69_2 C 0.2665(4) 0.8799(4) 0.5859(2)
H78_2 H 0.2877 0.9033 0.5856
C70_2 C 0.2483(5) 0.7274(6) 0.5941(3)
H79_2 H 0.2493 0.6964 0.5998
H80_2 H 0.2231 0.7426 0.6020
H81_2 H 0.2761 0.7425 0.5987
C71_2 C 0.2432(3) 0.6890(4) 0.5519(2)
C72_2 C 0.2468(4) 0.6459(4) 0.5650(2)
C73_2 C 0.2704(5) 0.8441(5) 0.5685(2)
H82_2 H 0.2933 0.8438 0.5562
C74_2 C 0.2391(4) 0.8086(5) 0.5701(3)
C75_2 C 0.2136(4) 0.6344(5) 0.5829(3)
H83_2 H 0.1877 0.6523 0.5847
C76_2 C 0.2400(4) 0.6912(5) 0.5252(2)
C77_2 C 0.2370(5) 0.6497(4) 0.5083(2)
H84_2 H 0.2671 0.6395 0.5041
H85_2 H 0.2209 0.6571 0.4929
H86_2 H 0.2211 0.6261 0.5173
C78_2 C 0.2429(2) 0.7285(4) 0.5661(2)
C79_2 C 0.2392(3) 0.7703(4) 0.5537(2)
C80_2 C 0.2320(5) 0.8152(5) 0.5137(3)
H87_2 H 0.2031 0.8289 0.5173
H88_2 H 0.2346 0.8097 0.4956
H89_2 H 0.2559 0.8353 0.5191
C81_2 C 0.2021(5) 0.8121(5) 0.5866(3)
H90_2 H 0.1800 0.7895 0.5866
C82_2 C 0.2909(5) 0.5805(4) 0.5774(3)
H91_2 H 0.3166 0.5624 0.5755
N5_2 N 0.2319(4) 0.8813(4) 0.6033(2)
N6_2 N 0.2581(5) 0.5693(4) 0.5950(2)
C83_2 C 0.1977(5) 0.8487(6) 0.6030(3)
H92_2 H 0.1725 0.8515 0.6136
C84_2 C 0.2196(5) 0.5958(6) 0.5978(2)
H93_2 H 0.1976 0.5878 0.6099
C85_2 C 0.2362(4) 0.7327(6) 0.5131(2)
C86_2 C 0.2357(4) 0.7730(5) 0.5273(3)
C87_2 C 0.2851(4) 0.6194(5) 0.5622(2)
H94_2 H 0.3072 0.6274 0.5503
C88_2 C 0.7228(6) 0.6460(5) 0.2345(3)
H95_2 H 0.7012 0.6274 0.2255
H96_2 H 0.7129 0.6501 0.2519
H97_2 H 0.7519 0.6313 0.2344
C89_2 C 0.7331(5) 0.6917(6) 0.1957(3)
C90_2 C 0.7082(4) 0.8251(4) 0.1661(2)
H98_2 H 0.6813 0.8091 0.1637
C91_2 C 0.7399(5) 0.8108(4) 0.1843(2)
C92_2 C 0.7257(5) 0.8153(5) 0.2362(3)
H99_2 H 0.7406 0.8147 0.2525
H100_2 H 0.6942 0.8229 0.2385
H101_2 H 0.7398 0.8377 0.2254
C93_2 C 0.7261(5) 0.6882(5) 0.2224(3)
C94_2 C 0.7359(4) 0.7691(5) 0.1984(3)
C95_2 C 0.7887(4) 0.8741(5) 0.1730(2)
H102_2 H 0.8153 0.8906 0.1754
C96_2 C 0.7802(5) 0.8355(5) 0.1877(2)
H103_2 H 0.8015 0.8260 0.1998
C97_2 C 0.6948(5) 0.6435(4) 0.1634(3)
H104_2 H 0.6719 0.6653 0.1628
C98_2 C 0.6933(6) 0.6056(6) 0.1473(3)
H105_2 H 0.6691 0.6023 0.1359
C99_2 C 0.7360(5) 0.7304(6) 0.1829(3)
C100_2 C 0.7458(6) 0.7284(6) 0.1556(3)
H106_2 H 0.7681 0.7053 0.1524
H107_2 H 0.7573 0.7573 0.1499
H108_2 H 0.7185 0.7214 0.1463
C101_2 C 0.7263(5) 0.7270(5) 0.2358(2)
N7_2 N 0.7268(5) 0.5731(4) 0.1478(2)
C102_2 C 0.7294(4) 0.7685(5) 0.2234(3)
N8_2 N 0.7574(4) 0.8875(3) 0.15491(19)
C103_2 C 0.7174(4) 0.8634(5) 0.1517(2)
H109_2 H 0.6963 0.8733 0.1397
C104_2 C 0.7310(7) 0.6483(5) 0.1804(3)
C105_2 C 0.7648(6) 0.6154(6) 0.1809(3)
H110_2 H 0.7891 0.6187 0.1922
C106_2 C 0.7630(5) 0.5778(5) 0.1649(3)
H111_2 H 0.7857 0.5559 0.1655
Co3_2 Co 0.93042(8) 0.77242(9) 0.37250(5)
O7_2 O 0.9746(3) 0.7819(4) 0.40007(19)
O8_2 O 0.9819(3) 0.7826(3) 0.35075(17)
O10_2 O 0.9194(3) 0.8338(4) 0.3690(2)
O11_2 O 0.9431(4) 0.7097(4) 0.37548(17)
C107_2 C 0.9438(4) 0.8532(5) 0.3505(2)
C108_2 C 0.9763(5) 0.8249(4) 0.3418(3)
C110_2 C 0.9073(6) 0.9286(6) 0.3808(3)
H113_2 H 0.8856 0.9501 0.3872
H114_2 H 0.9022 0.8996 0.3887
H115_2 H 0.9375 0.9389 0.3848
C111_2 C 0.9654(6) 0.9102(6) 0.3215(3)
H116_2 H 0.9617 0.9391 0.3146
C116_2 C 0.9882(5) 0.9056(6) 0.4313(3)
H120_2 H 0.9918 0.9348 0.4378
C117_2 C 0.9789(6) 0.8220(5) 0.4102(3)
C118_2 C 0.9261(12) 0.8903(12) 0.4629(6)
C120_2 C 0.9046(8) 0.9718(5) 0.3404(3)
H124_2 H 0.9351 0.9829 0.3419
H125_2 H 0.8958 0.9718 0.3226
H126_2 H 0.8845 0.9912 0.3499
C122_2 C 0.8567(5) 0.9037(6) 0.3456(4)
H130_2 H 0.8334 0.9246 0.3506
H131_2 H 0.8541 0.8973 0.3276
H132_2 H 0.8535 0.8760 0.3552
C124_2 C 0.9979(6) 0.8830(7) 0.3126(3)
C125_2 C 0.9804(6) 0.6398(5) 0.3738(4)
H136_2 H 0.9554 0.6295 0.3635
H138_2 H 0.9776 0.6278 0.3909
C126_2 C 0.9801(6) 0.6899(6) 0.3749(3)
C127_2 C 0.9559(6) 0.8778(8) 0.4412(3)
C128_2 C 0.9058(11) 0.8594(11) 0.4747(5)
H139_2 H 0.9269 0.8356 0.4789
H140_2 H 0.8928 0.8713 0.4902
H141_2 H 0.8821 0.8473 0.4640
C129_2 C 0.9129(11) 0.9367(10) 0.4552(5)
H142_2 H 0.9151 0.9566 0.4697
H143_2 H 0.9328 0.9471 0.4418
H144_2 H 0.8822 0.9364 0.4490
C130_2 C 0.9530(10) 0.9059(10) 0.4888(5)
H145_2 H 0.9701 0.9330 0.4854
H146_2 H 0.9315 0.9118 0.5023
H147_2 H 0.9733 0.8821 0.4941
C132_2 C 0.9019(6) 0.9240(5) 0.3509(4)
C133_2 C 0.9372(5) 0.8954(6) 0.3411(3)
C135_2 C 0.9513(6) 0.8355(7) 0.4301(4)
H151_2 H 0.9291 0.8157 0.4362
C136_2 C 0.9975(9) 0.9283(11) 0.2761(5)
H153_2 H 0.9683 0.9148 0.2732
H154_2 H 0.9938 0.9561 0.2855
Co5_2 Co 0.77242(9) 0.93042(8) 0.12750(5)
Co6_2 Co 0.22758(9) 0.93042(8) 0.62750(5)
Co7_2 Co 0.27516(10) 0.52616(8) 0.62242(5)
Co8_2 Co 0.72484(10) 0.52616(8) 0.12242(5)
N10_2 N 0.3875(3) 0.7426(4) 0.34509(19)
N11_2 N 0.8813(4) 0.7681(4) 0.3967(2)
N13_2 N 0.5693(4) 0.7419(5) 0.4050(2)
Co4_2 Co 0.22484(10) 0.02616(8) 0.62242(5)
O9_3 O 0.1660(4) 0.0369(3) 0.61770(19)
C109_3 C 0.1612(6) 0.0050(5) 0.6780(3)
H112_3 H 0.1801 0.0275 0.6846
C112_3 C 0.0610(6) 0.0465(6) 0.6239(3)
H117_3 H 0.0608 0.0151 0.6289
H118_3 H 0.0307 0.0584 0.6246
H119_3 H 0.0802 0.0634 0.6354
C113_3 C 0.1069(8) 0.0296(7) 0.7075(4)
C114_3 C 0.1088(6) 0.0155(5) 0.5883(3)
C115_3 C 0.1501(6) 0.0116(5) 0.5993(3)
O12_3 O 0.2900(3) 0.0154(4) 0.6269(2)
C119_3 C 0.0337(7) 0.0559(8) 0.5808(5)
H121_3 H 0.0105 0.0362 0.5875
H122_3 H 0.0400 0.0478 0.5633
H123_3 H 0.0234 0.0868 0.5816
C121_3 C 0.0826(9) 0.0703(8) 0.6990(5)
H127_3 H 0.0763 0.0894 0.7135
H128_3 H 0.0545 0.0615 0.6910
H129_3 H 0.1009 0.0866 0.6868
C123_3 C 0.1444(9) 0.0463(11) 0.7299(5)
H133_3 H 0.1677 0.0644 0.7220
H134_3 H 0.1579 0.0201 0.7378
H135_3 H 0.1290 0.0640 0.7428
H137_3 H 0.3704 0.0084 0.6337
C131_3 C 0.0785(6) 0.0505(6) 0.5975(3)
C134_3 C 0.0994(7) 0.0962(6) 0.5916(4)
H148_3 H 0.0759 0.1172 0.5869
H149_3 H 0.1205 0.0931 0.5776
H150_3 H 0.1151 0.1072 0.6065
H152_3 H 0.0652 0.0116 0.7402
N9_3 N 0.2268(5) 0.0731(4) 0.6478(2)
N12_2 N 0.2419(5) 0.0693(4) 0.5950(2)
Co1_3 Co 0.27242(9) 0.43042(8) 0.62750(5)
O1_3 O 0.2819(4) 0.4746(3) 0.59993(19)
O2_3 O 0.2826(3) 0.4819(3) 0.64925(17)
O3_3 O 0.3340(4) 0.5369(3) 0.61770(19)
O4_3 O 0.3338(4) 0.4194(3) 0.6310(2)
C1_3 C 0.2335(4) 0.3799(4) 0.5859(2)
H1_3 H 0.2123 0.4033 0.5856
O5_3 O 0.2097(4) 0.4431(4) 0.62452(17)
C2_3 C 0.3532(5) 0.4438(4) 0.6495(2)
C3_3 C 0.2772(6) 0.6460(5) 0.7345(3)
H2_3 H 0.2988 0.6274 0.7255
H3_3 H 0.2871 0.6501 0.7519
H4_3 H 0.2481 0.6313 0.7344
C4_3 C 0.2669(5) 0.6917(6) 0.6957(3)
C5_3 C 0.2517(5) 0.2274(6) 0.5941(3)
H5_3 H 0.2507 0.1964 0.5998
H6_3 H 0.2769 0.2426 0.6020
H7_3 H 0.2239 0.2425 0.5987
C6_3 C 0.2568(3) 0.1890(4) 0.5519(2)
C7_3 C 0.3249(4) 0.4763(5) 0.6582(3)
C8_3 C 0.2532(4) 0.1459(4) 0.5650(2)
C9_3 C 0.3388(6) 0.5050(5) 0.6780(3)
H8_3 H 0.3199 0.5275 0.6846
C10_3 C 0.2296(5) 0.3441(5) 0.5685(2)
H9_3 H 0.2067 0.3438 0.5562
C11_3 C 0.2918(4) 0.8251(4) 0.6661(2)
H10_3 H 0.3187 0.8091 0.6637
C12_3 C 0.2601(5) 0.8108(4) 0.6843(2)
C13_3 C 0.2743(5) 0.8153(5) 0.7362(3)
H11_3 H 0.2594 0.8147 0.7525
H12_3 H 0.3058 0.8229 0.7385
H13_3 H 0.2602 0.8377 0.7254
C14_3 C 0.2739(5) 0.6882(5) 0.7224(3)
C15_3 C 0.4286(6) 0.4073(6) 0.6192(3)
H14_3 H 0.4501 0.3856 0.6128
H15_3 H 0.3996 0.4022 0.6113
H16_3 H 0.4389 0.4375 0.6152
C16_3 C 0.2609(4) 0.3086(5) 0.5701(3)
C17_3 C 0.2641(4) 0.7691(5) 0.6984(3)
C18_3 C 0.2864(4) 0.1344(5) 0.5829(3)
H17_3 H 0.3123 0.1523 0.5847
C19_3 C 0.4102(6) 0.4654(6) 0.6785(3)
H18_3 H 0.4391 0.4617 0.6854
C20_3 C 0.4390(6) 0.5465(6) 0.6239(3)
H19_3 H 0.4392 0.5151 0.6289
H20_3 H 0.4693 0.5584 0.6246
H21_3 H 0.4198 0.5634 0.6354
C21_3 C 0.2113(4) 0.8741(5) 0.6730(2)
H22_3 H 0.1847 0.8906 0.6754
C22_3 C 0.2600(4) 0.1912(5) 0.5252(2)
C23_3 C 0.3931(8) 0.5296(7) 0.7075(4)
C24_3 C 0.3912(6) 0.5155(5) 0.5883(3)
C25_3 C 0.3499(6) 0.5116(5) 0.5993(3)
C26_3 C 0.4056(6) 0.4882(5) 0.5687(3)
H23_3 H 0.4348 0.4918 0.5622
C27_3 C 0.3220(5) 0.4789(6) 0.5898(3)
C28_3 C 0.2198(5) 0.8355(5) 0.6877(2)
H24_3 H 0.1985 0.8260 0.6998
C29_3 C 0.3903(12) 0.4261(12) 0.5371(6)
C30_3 C 0.3052(5) 0.6435(4) 0.6634(3)
H25_3 H 0.3281 0.6653 0.6628
O6_3 O 0.2100(3) 0.5154(4) 0.6269(2)
C31_3 C 0.4663(7) 0.5559(8) 0.5808(5)
H26_3 H 0.4895 0.5362 0.5875
H27_3 H 0.4600 0.5478 0.5633
H28_3 H 0.4766 0.5868 0.5816
C32_3 C 0.4718(5) 0.4046(8) 0.6596(3)
H29_3 H 0.4829 0.4351 0.6581
H30_3 H 0.4718 0.3958 0.6774
H31_3 H 0.4912 0.3845 0.6501
C33_3 C 0.4174(9) 0.5703(8) 0.6990(5)
H32_3 H 0.4237 0.5894 0.7135
H33_3 H 0.4455 0.5615 0.6910
H34_3 H 0.3991 0.5866 0.6868
C34_3 C 0.2630(5) 0.1497(4) 0.5083(2)
H35_3 H 0.2329 0.1395 0.5041
H36_3 H 0.2791 0.1571 0.4929
H37_3 H 0.2789 0.1261 0.5173
C35_3 C 0.4037(6) 0.3567(5) 0.6544(4)
H38_3 H 0.4246 0.3334 0.6494
H39_3 H 0.3973 0.3541 0.6724
H40_3 H 0.3760 0.3535 0.6448
C36_3 C 0.3067(6) 0.6056(6) 0.6473(3)
H41_3 H 0.3309 0.6023 0.6359
C37_3 C 0.3556(9) 0.5463(11) 0.7299(5)
H42_3 H 0.3323 0.5644 0.7220
H43_3 H 0.3421 0.5201 0.7378
H44_3 H 0.3710 0.5640 0.7428
C38_3 C 0.2640(5) 0.7304(6) 0.6829(3)
C39_3 C 0.2571(2) 0.2285(4) 0.5661(2)
C40_3 C 0.2542(6) 0.7284(6) 0.6556(3)
H45_3 H 0.2319 0.7053 0.6524
H46_3 H 0.2427 0.7573 0.6499
H47_3 H 0.2815 0.7214 0.6463
C41_3 C 0.2608(3) 0.2703(4) 0.5537(2)
C42_3 C 0.2737(5) 0.7270(5) 0.7358(2)
C43_3 C 0.2680(5) 0.3152(5) 0.5137(3)
H48_3 H 0.2969 0.3289 0.5173
H49_3 H 0.2654 0.3097 0.4956
H50_3 H 0.2441 0.3353 0.5191
N1_3 N 0.2732(5) 0.5731(4) 0.6478(2)
C44_3 C 0.2706(4) 0.7685(5) 0.7234(3)
N2_3 N 0.2426(4) 0.8875(3) 0.65491(19)
C45_3 C 0.2979(5) 0.3121(5) 0.5866(3)
H51_3 H 0.3200 0.2895 0.5866
C46_3 C 0.3830(7) 0.4979(6) 0.6874(3)
C47_3 C 0.2826(4) 0.8634(5) 0.6517(2)
H52_3 H 0.3037 0.8733 0.6397
C48_3 C 0.1398(5) 0.4804(6) 0.6262(4)
H53_3 H 0.1295 0.4554 0.6365
H54_3 H 0.1296 0.5084 0.6337
H55_3 H 0.1278 0.4776 0.6091
C49_3 C 0.1899(6) 0.4801(6) 0.6251(3)
C50_3 C 0.3778(8) 0.4559(6) 0.5588(3)
C51_3 C 0.3594(11) 0.4058(11) 0.5253(5)
H56_3 H 0.3356 0.4269 0.5211
H57_3 H 0.3713 0.3928 0.5098
H58_3 H 0.3473 0.3821 0.5360
C52_3 C 0.4367(10) 0.4129(11) 0.5448(5)
H59_3 H 0.4566 0.4151 0.5303
H60_3 H 0.4471 0.4328 0.5582
H61_3 H 0.4364 0.3822 0.5510
C53_3 C 0.4059(10) 0.4530(10) 0.5112(5)
H62_3 H 0.4330 0.4701 0.5146
H63_3 H 0.4118 0.4315 0.4977
H64_3 H 0.3821 0.4733 0.5059
C54_3 C 0.2091(5) 0.0805(4) 0.5774(3)
H65_3 H 0.1834 0.0624 0.5755
N3_3 N 0.2681(4) 0.3813(4) 0.6033(2)
C55_3 C 0.4215(6) 0.5505(6) 0.5975(3)
C56_3 C 0.4240(5) 0.4019(6) 0.6491(4)
C57_3 C 0.2690(7) 0.6483(5) 0.6804(3)
C58_3 C 0.3023(5) 0.3487(6) 0.6030(3)
H66_3 H 0.3275 0.3515 0.6136
C59_3 C 0.3954(6) 0.4372(5) 0.6589(3)
C60_3 C 0.2804(5) 0.0958(6) 0.5978(2)
H67_3 H 0.3024 0.0878 0.6099
C61_3 C 0.4006(7) 0.5962(6) 0.5916(4)
H68_3 H 0.4241 0.6172 0.5869
H69_3 H 0.3795 0.5931 0.5776
H70_3 H 0.3849 0.6072 0.6065
C62_3 C 0.2638(4) 0.2327(6) 0.5131(2)
C63_3 C 0.2352(6) 0.6154(6) 0.6809(3)
H71_3 H 0.2109 0.6187 0.6922
C64_3 C 0.2370(5) 0.5778(5) 0.6649(3)
H72_3 H 0.2143 0.5559 0.6655
C65_3 C 0.2643(4) 0.2730(5) 0.5273(3)
C66_3 C 0.2149(4) 0.1194(5) 0.5622(2)
H73_3 H 0.1928 0.1274 0.5503
C67_3 C 0.3355(7) 0.4513(6) 0.5699(4)
H74_3 H 0.3157 0.4291 0.5638
C68_3 C 0.4283(11) 0.4975(9) 0.7239(5)
H75_3 H 0.4348 0.5116 0.7402
H76_3 H 0.4148 0.4683 0.7268
H77_3 H 0.4561 0.4938 0.7145
C69_3 C 0.1201(4) 0.2665(4) 0.4141(2)
H78_3 H 0.0967 0.2877 0.4144
C70_3 C 0.2726(6) 0.2483(5) 0.4059(3)
H79_3 H 0.3036 0.2493 0.4002
H80_3 H 0.2574 0.2231 0.3980
H81_3 H 0.2575 0.2761 0.4013
C71_3 C 0.3110(4) 0.2432(3) 0.4481(2)
C72_3 C 0.3541(4) 0.2468(4) 0.4350(2)
C73_3 C 0.1559(5) 0.2704(5) 0.4315(2)
H82_3 H 0.1562 0.2933 0.4438
C74_3 C 0.1914(5) 0.2391(4) 0.4299(3)
C75_3 C 0.3656(5) 0.2136(4) 0.4171(3)
H83_3 H 0.3477 0.1877 0.4153
C76_3 C 0.3088(5) 0.2400(4) 0.4748(2)
C77_3 C 0.3503(4) 0.2370(5) 0.4917(2)
H84_3 H 0.3605 0.2671 0.4959
H85_3 H 0.3429 0.2209 0.5071
H86_3 H 0.3739 0.2211 0.4827
C78_3 C 0.2715(4) 0.2429(2) 0.4339(2)
C79_3 C 0.2297(4) 0.2392(3) 0.4463(2)
C80_3 C 0.1848(5) 0.2320(5) 0.4863(3)
H87_3 H 0.1711 0.2031 0.4827
H88_3 H 0.1903 0.2346 0.5044
H89_3 H 0.1647 0.2559 0.4809
C81_3 C 0.1879(5) 0.2021(5) 0.4134(3)
H90_3 H 0.2105 0.1800 0.4134
C82_3 C 0.4195(4) 0.2909(5) 0.4226(3)
H91_3 H 0.4376 0.3166 0.4245
C83_3 C 0.1513(6) 0.1977(5) 0.3970(3)
H92_3 H 0.1485 0.1725 0.3864
C84_3 C 0.4042(6) 0.2196(5) 0.4022(2)
H93_3 H 0.4122 0.1976 0.3901
C85_3 C 0.2673(6) 0.2362(4) 0.4869(2)
C86_3 C 0.2270(5) 0.2357(4) 0.4727(3)
C87_3 C 0.3806(5) 0.2851(4) 0.4378(2)
H94_3 H 0.3726 0.3072 0.4497
C88_3 C 0.3540(5) 0.7228(6) 0.7655(3)
H95_3 H 0.3726 0.7012 0.7745
H96_3 H 0.3499 0.7129 0.7481
H97_3 H 0.3687 0.7519 0.7656
C89_3 C 0.3083(6) 0.7331(5) 0.8043(3)
C90_3 C 0.1749(4) 0.7082(4) 0.8339(2)
H98_3 H 0.1909 0.6813 0.8363
C91_3 C 0.1892(4) 0.7399(5) 0.8157(2)
C92_3 C 0.1847(5) 0.7257(5) 0.7638(3)
H99_3 H 0.1853 0.7406 0.7475
H100_3 H 0.1771 0.6942 0.7615
H101_3 H 0.1623 0.7398 0.7746
C93_3 C 0.3118(5) 0.7261(5) 0.7776(3)
C94_3 C 0.2309(5) 0.7359(4) 0.8016(3)
C95_3 C 0.1259(5) 0.7887(4) 0.8270(2)
H102_3 H 0.1094 0.8153 0.8246
C96_3 C 0.1645(5) 0.7802(5) 0.8123(2)
H103_3 H 0.1740 0.8015 0.8002
C97_3 C 0.3565(4) 0.6948(5) 0.8366(3)
H104_3 H 0.3347 0.6719 0.8372
C98_3 C 0.3944(6) 0.6933(6) 0.8527(3)
H105_3 H 0.3977 0.6691 0.8641
C99_3 C 0.2696(6) 0.7360(5) 0.8171(3)
C100_3 C 0.2716(6) 0.7458(6) 0.8444(3)
H106_3 H 0.2947 0.7681 0.8476
H107_3 H 0.2427 0.7573 0.8501
H108_3 H 0.2786 0.7185 0.8537
C101_3 C 0.2730(5) 0.7263(5) 0.7642(2)
N7_3 N 0.4269(4) 0.7268(5) 0.8522(2)
C102_3 C 0.2315(5) 0.7294(4) 0.7766(3)
N8_3 N 0.1125(3) 0.7574(4) 0.84509(19)
C103_3 C 0.1366(5) 0.7174(4) 0.8483(2)
H109_3 H 0.1267 0.6963 0.8603
C104_3 C 0.3517(5) 0.7310(7) 0.8196(3)
C105_3 C 0.3846(6) 0.7648(6) 0.8191(3)
H110_3 H 0.3813 0.7891 0.8078
C106_3 C 0.4222(5) 0.7630(5) 0.8351(3)
H111_3 H 0.4441 0.7857 0.8345
O7_3 O 0.2181(4) 0.9746(3) 0.59993(19)
O8_3 O 0.2174(3) 0.9819(3) 0.64925(17)
O10_3 O 0.1662(4) 0.9194(3) 0.6310(2)
O11_3 O 0.2903(4) 0.9431(4) 0.62452(17)
C107_3 C 0.1468(5) 0.9438(4) 0.6495(2)
C108_3 C 0.1751(4) 0.9763(5) 0.6582(3)
C110_3 C 0.0714(6) 0.9073(6) 0.6192(3)
H113_3 H 0.0499 0.8856 0.6128
H114_3 H 0.1004 0.9022 0.6113
H115_3 H 0.0611 0.9375 0.6152
C111_3 C 0.0898(6) 0.9654(6) 0.6785(3)
H116_3 H 0.0609 0.9617 0.6854
C116_3 C 0.0944(6) 0.9882(5) 0.5687(3)
H120_3 H 0.0652 0.9918 0.5622
C117_3 C 0.1780(5) 0.9789(6) 0.5898(3)
C118_3 C 0.1097(12) 0.9261(12) 0.5371(6)
C120_3 C 0.0282(5) 0.9046(8) 0.6596(3)
H124_3 H 0.0171 0.9351 0.6581
H125_3 H 0.0282 0.8958 0.6774
H126_3 H 0.0088 0.8845 0.6501
C122_3 C 0.0963(6) 0.8567(5) 0.6544(4)
H130_3 H 0.0754 0.8334 0.6494
H131_3 H 0.1027 0.8541 0.6724
H132_3 H 0.1240 0.8535 0.6448
C124_3 C 0.1170(7) 0.9979(6) 0.6874(3)
C125_3 C 0.3602(5) 0.9804(6) 0.6262(4)
H136_3 H 0.3705 0.9554 0.6365
H138_3 H 0.3722 0.9776 0.6091
C126_3 C 0.3101(6) 0.9801(6) 0.6251(3)
C127_3 C 0.1222(8) 0.9559(6) 0.5588(3)
C128_3 C 0.1406(11) 0.9058(11) 0.5253(5)
H139_3 H 0.1644 0.9269 0.5211
H140_3 H 0.1287 0.8928 0.5098
H141_3 H 0.1527 0.8821 0.5360
C129_3 C 0.0633(10) 0.9129(11) 0.5448(5)
H142_3 H 0.0434 0.9151 0.5303
H143_3 H 0.0529 0.9328 0.5582
H144_3 H 0.0636 0.8822 0.5510
C130_3 C 0.0941(10) 0.9530(10) 0.5112(5)
H145_3 H 0.0670 0.9701 0.5146
H146_3 H 0.0882 0.9315 0.4977
H147_3 H 0.1179 0.9733 0.5059
C132_3 C 0.0760(5) 0.9019(6) 0.6491(4)
C133_3 C 0.1046(6) 0.9372(5) 0.6589(3)
C135_3 C 0.1645(7) 0.9513(6) 0.5699(4)
H151_3 H 0.1843 0.9291 0.5638
C136_3 C 0.0717(11) 0.9975(9) 0.7239(5)
H153_3 H 0.0852 0.9683 0.7268
H154_3 H 0.0439 0.9938 0.7145
Co5_3 Co 0.06958(8) 0.77242(9) 0.87250(5)
Co8_3 Co 0.47384(8) 0.72484(10) 0.87758(5)
N10_3 N 0.2574(4) 0.3875(3) 0.65491(19)
Co1_4 Co 0.72758(9) 0.56958(8) 0.62750(5)
O1_4 O 0.7181(4) 0.5254(3) 0.59993(19)
O2_4 O 0.7174(3) 0.5181(3) 0.64925(17)
O3_4 O 0.6660(4) 0.4631(3) 0.61770(19)
O4_4 O 0.6662(4) 0.5806(3) 0.6310(2)
C1_4 C 0.7665(4) 0.6201(4) 0.5859(2)
H1_4 H 0.7877 0.5967 0.5856
O5_4 O 0.7903(4) 0.5569(4) 0.62452(17)
C2_4 C 0.6468(5) 0.5562(4) 0.6495(2)
C3_4 C 0.7228(6) 0.3540(5) 0.7345(3)
H2_4 H 0.7012 0.3726 0.7255
H3_4 H 0.7129 0.3499 0.7519
H4_4 H 0.7519 0.3687 0.7344
C4_4 C 0.7331(5) 0.3083(6) 0.6957(3)
C5_4 C 0.7483(5) 0.7726(6) 0.5941(3)
H5_4 H 0.7493 0.8036 0.5998
H6_4 H 0.7231 0.7574 0.6020
H7_4 H 0.7761 0.7575 0.5987
C6_4 C 0.7432(3) 0.8110(4) 0.5519(2)
C7_4 C 0.6751(4) 0.5237(5) 0.6582(3)
C8_4 C 0.7468(4) 0.8541(4) 0.5650(2)
C9_4 C 0.6612(6) 0.4950(5) 0.6780(3)
H8_4 H 0.6801 0.4725 0.6846
C10_4 C 0.7704(5) 0.6559(5) 0.5685(2)
H9_4 H 0.7933 0.6562 0.5562
C11_4 C 0.7082(4) 0.1749(4) 0.6661(2)
H10_4 H 0.6813 0.1909 0.6637
C12_4 C 0.7399(5) 0.1892(4) 0.6843(2)
C13_4 C 0.7257(5) 0.1847(5) 0.7362(3)
H11_4 H 0.7406 0.1853 0.7525
H12_4 H 0.6942 0.1771 0.7385
H13_4 H 0.7398 0.1623 0.7254
C14_4 C 0.7261(5) 0.3118(5) 0.7224(3)
C15_4 C 0.5714(6) 0.5927(6) 0.6192(3)
H14_4 H 0.5499 0.6144 0.6128
H15_4 H 0.6004 0.5978 0.6113
H16_4 H 0.5611 0.5625 0.6152
C16_4 C 0.7391(4) 0.6914(5) 0.5701(3)
C17_4 C 0.7359(4) 0.2309(5) 0.6984(3)
C18_4 C 0.7136(4) 0.8656(5) 0.5829(3)
H17_4 H 0.6877 0.8477 0.5847
C19_4 C 0.5898(6) 0.5346(6) 0.6785(3)
H18_4 H 0.5609 0.5383 0.6854
C20_4 C 0.5610(6) 0.4535(6) 0.6239(3)
H19_4 H 0.5608 0.4849 0.6289
H20_4 H 0.5307 0.4416 0.6246
H21_4 H 0.5802 0.4366 0.6354
C21_4 C 0.7887(4) 0.1259(5) 0.6730(2)
H22_4 H 0.8153 0.1094 0.6754
C22_4 C 0.7400(4) 0.8088(5) 0.5252(2)
C23_4 C 0.6069(8) 0.4704(7) 0.7075(4)
C24_4 C 0.6088(6) 0.4845(5) 0.5883(3)
C25_4 C 0.6501(6) 0.4884(5) 0.5993(3)
C26_4 C 0.5944(6) 0.5118(5) 0.5687(3)
H23_4 H 0.5652 0.5082 0.5622
C27_4 C 0.6780(5) 0.5211(6) 0.5898(3)
C28_4 C 0.7802(5) 0.1645(5) 0.6877(2)
H24_4 H 0.8015 0.1740 0.6998
C29_4 C 0.6097(12) 0.5739(12) 0.5371(6)
C30_4 C 0.6948(5) 0.3565(4) 0.6634(3)
H25_4 H 0.6719 0.3347 0.6628
O6_4 O 0.7900(3) 0.4846(4) 0.6269(2)
C31_4 C 0.5337(7) 0.4441(8) 0.5808(5)
H26_4 H 0.5105 0.4638 0.5875
H27_4 H 0.5400 0.4522 0.5633
H28_4 H 0.5234 0.4132 0.5816
C32_4 C 0.5282(5) 0.5954(8) 0.6596(3)
H29_4 H 0.5171 0.5649 0.6581
H30_4 H 0.5282 0.6042 0.6774
H31_4 H 0.5088 0.6155 0.6501
C33_4 C 0.5826(9) 0.4297(8) 0.6990(5)
H32_4 H 0.5763 0.4106 0.7135
H33_4 H 0.5545 0.4385 0.6910
H34_4 H 0.6009 0.4134 0.6868
C34_4 C 0.7370(5) 0.8503(4) 0.5083(2)
H35_4 H 0.7671 0.8605 0.5041
H36_4 H 0.7209 0.8429 0.4929
H37_4 H 0.7211 0.8739 0.5173
C35_4 C 0.5963(6) 0.6433(5) 0.6544(4)
H38_4 H 0.5754 0.6666 0.6494
H39_4 H 0.6027 0.6459 0.6724
H40_4 H 0.6240 0.6465 0.6448
C36_4 C 0.6933(6) 0.3944(6) 0.6473(3)
H41_4 H 0.6691 0.3977 0.6359
C37_4 C 0.6444(9) 0.4537(11) 0.7299(5)
H42_4 H 0.6677 0.4356 0.7220
H43_4 H 0.6579 0.4799 0.7378
H44_4 H 0.6290 0.4360 0.7428
C38_4 C 0.7360(5) 0.2696(6) 0.6829(3)
C39_4 C 0.7429(2) 0.7715(4) 0.5661(2)
C40_4 C 0.7458(6) 0.2716(6) 0.6556(3)
H45_4 H 0.7681 0.2947 0.6524
H46_4 H 0.7573 0.2427 0.6499
H47_4 H 0.7185 0.2786 0.6463
C41_4 C 0.7392(3) 0.7297(4) 0.5537(2)
C42_4 C 0.7263(5) 0.2730(5) 0.7358(2)
C43_4 C 0.7320(5) 0.6848(5) 0.5137(3)
H48_4 H 0.7031 0.6711 0.5173
H49_4 H 0.7346 0.6903 0.4956
H50_4 H 0.7559 0.6647 0.5191
N1_4 N 0.7268(5) 0.4269(4) 0.6478(2)
C44_4 C 0.7294(4) 0.2315(5) 0.7234(3)
N2_4 N 0.7574(4) 0.1125(3) 0.65491(19)
C45_4 C 0.7021(5) 0.6879(5) 0.5866(3)
H51_4 H 0.6800 0.7105 0.5866
C46_4 C 0.6170(7) 0.5021(6) 0.6874(3)
C47_4 C 0.7174(4) 0.1366(5) 0.6517(2)
H52_4 H 0.6963 0.1267 0.6397
C48_4 C 0.8602(5) 0.5196(6) 0.6262(4)
H53_4 H 0.8705 0.5446 0.6365
H54_4 H 0.8704 0.4916 0.6337
H55_4 H 0.8722 0.5224 0.6091
C49_4 C 0.8101(6) 0.5199(6) 0.6251(3)
C50_4 C 0.6222(8) 0.5441(6) 0.5588(3)
C51_4 C 0.6406(11) 0.5942(11) 0.5253(5)
H56_4 H 0.6644 0.5731 0.5211
H57_4 H 0.6287 0.6072 0.5098
H58_4 H 0.6527 0.6179 0.5360
C52_4 C 0.5633(10) 0.5871(11) 0.5448(5)
H59_4 H 0.5434 0.5849 0.5303
H60_4 H 0.5529 0.5672 0.5582
H61_4 H 0.5636 0.6178 0.5510
C53_4 C 0.5941(10) 0.5470(10) 0.5112(5)
H62_4 H 0.5670 0.5299 0.5146
H63_4 H 0.5882 0.5685 0.4977
H64_4 H 0.6179 0.5267 0.5059
C54_4 C 0.7909(5) 0.9195(4) 0.5774(3)
H65_4 H 0.8166 0.9376 0.5755
N3_4 N 0.7319(4) 0.6187(4) 0.6033(2)
C55_4 C 0.5785(6) 0.4495(6) 0.5975(3)
C56_4 C 0.5760(5) 0.5981(6) 0.6491(4)
N4_2 N 0.7581(5) 0.9307(4) 0.5950(2)
C57_4 C 0.7310(7) 0.3517(5) 0.6804(3)
C58_4 C 0.6977(5) 0.6513(6) 0.6030(3)
H66_4 H 0.6725 0.6485 0.6136
C59_4 C 0.6046(6) 0.5628(5) 0.6589(3)
C60_4 C 0.7196(5) 0.9042(6) 0.5978(2)
H67_4 H 0.6976 0.9122 0.6099
C61_4 C 0.5994(7) 0.4038(6) 0.5916(4)
H68_4 H 0.5759 0.3828 0.5869
H69_4 H 0.6205 0.4069 0.5776
H70_4 H 0.6151 0.3928 0.6065
C62_4 C 0.7362(4) 0.7673(6) 0.5131(2)
C63_4 C 0.7648(6) 0.3846(6) 0.6809(3)
H71_4 H 0.7891 0.3813 0.6922
C64_4 C 0.7630(5) 0.4222(5) 0.6649(3)
H72_4 H 0.7857 0.4441 0.6655
C65_4 C 0.7357(4) 0.7270(5) 0.5273(3)
C66_4 C 0.7851(4) 0.8806(5) 0.5622(2)
H73_4 H 0.8072 0.8726 0.5503
C67_4 C 0.6645(7) 0.5487(6) 0.5699(4)
H74_4 H 0.6843 0.5709 0.5638
C68_4 C 0.5717(11) 0.5025(9) 0.7239(5)
H75_4 H 0.5652 0.4884 0.7402
H76_4 H 0.5852 0.5317 0.7268
H77_4 H 0.5439 0.5062 0.7145
C69_4 C 0.8799(4) 0.7335(4) 0.4141(2)
H78_4 H 0.9033 0.7123 0.4144
C70_4 C 0.7274(6) 0.7517(5) 0.4059(3)
H79_4 H 0.6964 0.7507 0.4002
H80_4 H 0.7426 0.7769 0.3980
H81_4 H 0.7425 0.7239 0.4013
C71_4 C 0.6890(4) 0.7568(3) 0.4481(2)
C72_4 C 0.6459(4) 0.7532(4) 0.4350(2)
C73_4 C 0.8441(5) 0.7296(5) 0.4315(2)
H82_4 H 0.8438 0.7067 0.4438
C74_4 C 0.8086(5) 0.7609(4) 0.4299(3)
C75_4 C 0.6344(5) 0.7864(4) 0.4171(3)
H83_4 H 0.6523 0.8123 0.4153
C76_4 C 0.6912(5) 0.7600(4) 0.4748(2)
C77_4 C 0.6497(4) 0.7630(5) 0.4917(2)
H84_4 H 0.6395 0.7329 0.4959
H85_4 H 0.6571 0.7791 0.5071
H86_4 H 0.6261 0.7789 0.4827
C78_4 C 0.7285(4) 0.7571(2) 0.4339(2)
C79_4 C 0.7703(4) 0.7608(3) 0.4463(2)
C80_4 C 0.8152(5) 0.7680(5) 0.4863(3)
H87_4 H 0.8289 0.7969 0.4827
H88_4 H 0.8097 0.7654 0.5044
H89_4 H 0.8353 0.7441 0.4809
C81_4 C 0.8121(5) 0.7979(5) 0.4134(3)
H90_4 H 0.7895 0.8200 0.4134
C82_4 C 0.5805(4) 0.7091(5) 0.4226(3)
H91_4 H 0.5624 0.6834 0.4245
C83_4 C 0.8487(6) 0.8023(5) 0.3970(3)
H92_4 H 0.8515 0.8275 0.3864
C84_4 C 0.5958(6) 0.7804(5) 0.4022(2)
H93_4 H 0.5878 0.8024 0.3901
C85_4 C 0.7327(6) 0.7638(4) 0.4869(2)
C86_4 C 0.7730(5) 0.7643(4) 0.4727(3)
C87_4 C 0.6194(5) 0.7149(4) 0.4378(2)
H94_4 H 0.6274 0.6928 0.4497
C88_4 C 0.6460(5) 0.2772(6) 0.7655(3)
H95_4 H 0.6274 0.2988 0.7745
H96_4 H 0.6501 0.2871 0.7481
H97_4 H 0.6313 0.2481 0.7656
C89_4 C 0.6917(6) 0.2669(5) 0.8043(3)
C90_4 C 0.8251(4) 0.2918(4) 0.8339(2)
H98_4 H 0.8091 0.3187 0.8363
C91_4 C 0.8108(4) 0.2601(5) 0.8157(2)
C92_4 C 0.8153(5) 0.2743(5) 0.7638(3)
H99_4 H 0.8147 0.2594 0.7475
H100_4 H 0.8229 0.3058 0.7615
H101_4 H 0.8377 0.2602 0.7746
C93_4 C 0.6882(5) 0.2739(5) 0.7776(3)
C94_4 C 0.7691(5) 0.2641(4) 0.8016(3)
C95_4 C 0.8741(5) 0.2113(4) 0.8270(2)
H102_4 H 0.8906 0.1847 0.8246
C96_4 C 0.8355(5) 0.2198(5) 0.8123(2)
H103_4 H 0.8260 0.1985 0.8002
C97_4 C 0.6435(4) 0.3052(5) 0.8366(3)
H104_4 H 0.6653 0.3281 0.8372
C98_4 C 0.6056(6) 0.3067(6) 0.8527(3)
H105_4 H 0.6023 0.3309 0.8641
C99_4 C 0.7304(6) 0.2640(5) 0.8171(3)
C100_4 C 0.7284(6) 0.2542(6) 0.8444(3)
H106_4 H 0.7053 0.2319 0.8476
H107_4 H 0.7573 0.2427 0.8501
H108_4 H 0.7214 0.2815 0.8537
C101_4 C 0.7270(5) 0.2737(5) 0.7642(2)
N7_4 N 0.5731(4) 0.2732(5) 0.8522(2)
C102_4 C 0.7685(5) 0.2706(4) 0.7766(3)
N8_4 N 0.8875(3) 0.2426(4) 0.84509(19)
C103_4 C 0.8634(5) 0.2826(4) 0.8483(2)
H109_4 H 0.8733 0.3037 0.8603
C104_4 C 0.6483(5) 0.2690(7) 0.8196(3)
C105_4 C 0.6154(6) 0.2352(6) 0.8191(3)
H110_4 H 0.6187 0.2109 0.8078
C106_4 C 0.5778(5) 0.2370(5) 0.8351(3)
H111_4 H 0.5559 0.2143 0.8345
O7_4 O 0.7819(4) 0.0254(3) 0.59993(19)
O8_4 O 0.7826(3) 0.0181(3) 0.64925(17)
O10_4 O 0.8338(4) 0.0806(3) 0.6310(2)
O11_4 O 0.7097(4) 0.0569(4) 0.62452(17)
C107_4 C 0.8532(5) 0.0562(4) 0.6495(2)
C108_4 C 0.8249(4) 0.0237(5) 0.6582(3)
C110_4 C 0.9286(6) 0.0927(6) 0.6192(3)
H113_4 H 0.9501 0.1144 0.6128
H114_4 H 0.8996 0.0978 0.6113
H115_4 H 0.9389 0.0625 0.6152
C111_4 C 0.9102(6) 0.0346(6) 0.6785(3)
H116_4 H 0.9391 0.0383 0.6854
C116_4 C 0.9056(6) 0.0118(5) 0.5687(3)
H120_4 H 0.9348 0.0082 0.5622
C117_4 C 0.8220(5) 0.0211(6) 0.5898(3)
C118_4 C 0.8903(12) 0.0739(12) 0.5371(6)
C120_4 C 0.9718(5) 0.0954(8) 0.6596(3)
H124_4 H 0.9829 0.0649 0.6581
H125_4 H 0.9718 0.1042 0.6774
H126_4 H 0.9912 0.1155 0.6501
C122_4 C 0.9037(6) 0.1433(5) 0.6544(4)
H130_4 H 0.9246 0.1666 0.6494
H131_4 H 0.8973 0.1459 0.6724
H132_4 H 0.8760 0.1465 0.6448
C124_4 C 0.8830(7) 0.0021(6) 0.6874(3)
C125_4 C 0.6398(5) 0.0196(6) 0.6262(4)
H136_4 H 0.6295 0.0446 0.6365
H138_4 H 0.6278 0.0224 0.6091
C126_4 C 0.6899(6) 0.0199(6) 0.6251(3)
C127_4 C 0.8778(8) 0.0441(6) 0.5588(3)
C128_4 C 0.8594(11) 0.0942(11) 0.5253(5)
H139_4 H 0.8356 0.0731 0.5211
H140_4 H 0.8713 0.1072 0.5098
H141_4 H 0.8473 0.1179 0.5360
C129_4 C 0.9367(10) 0.0871(11) 0.5448(5)
H142_4 H 0.9566 0.0849 0.5303
H143_4 H 0.9471 0.0672 0.5582
H144_4 H 0.9364 0.1178 0.5510
C130_4 C 0.9059(10) 0.0470(10) 0.5112(5)
H145_4 H 0.9330 0.0299 0.5146
H146_4 H 0.9118 0.0685 0.4977
H147_4 H 0.8821 0.0267 0.5059
C132_4 C 0.9240(5) 0.0981(6) 0.6491(4)
C133_4 C 0.8954(6) 0.0628(5) 0.6589(3)
C135_4 C 0.8355(7) 0.0487(6) 0.5699(4)
H151_4 H 0.8157 0.0709 0.5638
C136_4 C 0.9283(11) 0.0025(9) 0.7239(5)
H153_4 H 0.9148 0.0317 0.7268
H154_4 H 0.9561 0.0062 0.7145
Co5_4 Co 0.93042(8) 0.22758(9) 0.87250(5)
Co8_4 Co 0.52616(8) 0.27516(10) 0.87758(5)
Co9_2 Co 0.77516(10) 0.97384(8) 0.62242(5)
N10_4 N 0.7426(4) 0.6125(3) 0.65491(19)
O9_4 O 0.8340(4) 0.9631(3) 0.61770(19)
C109_4 C 0.8388(6) 0.9950(5) 0.6780(3)
H112_4 H 0.8199 0.9725 0.6846
C112_4 C 0.9390(6) 0.9535(6) 0.6239(3)
H117_4 H 0.9392 0.9849 0.6289
H118_4 H 0.9693 0.9416 0.6246
H119_4 H 0.9198 0.9366 0.6354
C113_4 C 0.8931(8) 0.9704(7) 0.7075(4)
C114_4 C 0.8912(6) 0.9845(5) 0.5883(3)
C115_4 C 0.8499(6) 0.9884(5) 0.5993(3)
O12_4 O 0.7100(3) 0.9846(4) 0.6269(2)
C119_4 C 0.9663(7) 0.9441(8) 0.5808(5)
H121_4 H 0.9895 0.9638 0.5875
H122_4 H 0.9600 0.9522 0.5633
H123_4 H 0.9766 0.9132 0.5816
C121_4 C 0.9174(9) 0.9297(8) 0.6990(5)
H127_4 H 0.9237 0.9106 0.7135
H128_4 H 0.9455 0.9385 0.6910
H129_4 H 0.8991 0.9134 0.6868
C123_4 C 0.8556(9) 0.9537(11) 0.7299(5)
H133_4 H 0.8323 0.9356 0.7220
H134_4 H 0.8421 0.9799 0.7378
H135_4 H 0.8710 0.9360 0.7428
H137_4 H 0.6296 0.9916 0.6337
C131_4 C 0.9215(6) 0.9495(6) 0.5975(3)
C134_4 C 0.9006(7) 0.9038(6) 0.5916(4)
H148_4 H 0.9241 0.8828 0.5869
H149_4 H 0.8795 0.9069 0.5776
H150_4 H 0.8849 0.8928 0.6065
H152_4 H 0.9348 0.9884 0.7402
N9_4 N 0.7732(5) 0.9269(4) 0.6478(2)
H36_5 H 0.8429 0.7209 0.0071
H49_5 H 0.6903 0.7346 0.0044
H63_5 H 0.5685 0.5882 0.0023
C69_5 C 0.7335(4) 0.8799(4) 0.0859(2)
H78_5 H 0.7123 0.9033 0.0856
C70_5 C 0.7517(5) 0.7274(6) 0.0941(3)
H79_5 H 0.7507 0.6964 0.0998
H80_5 H 0.7769 0.7426 0.1020
H81_5 H 0.7239 0.7425 0.0987
C71_5 C 0.7568(3) 0.6890(4) 0.0519(2)
C72_5 C 0.7532(4) 0.6459(4) 0.0650(2)
C73_5 C 0.7296(5) 0.8441(5) 0.0685(2)
H82_5 H 0.7067 0.8438 0.0562
C74_5 C 0.7609(4) 0.8086(5) 0.0701(3)
C75_5 C 0.7864(4) 0.6344(5) 0.0829(3)
H83_5 H 0.8123 0.6523 0.0847
C76_5 C 0.7600(4) 0.6912(5) 0.0252(2)
C77_5 C 0.7630(5) 0.6497(4) 0.0083(2)
H84_5 H 0.7329 0.6395 0.0041
H86_5 H 0.7789 0.6261 0.0173
C78_5 C 0.7571(2) 0.7285(4) 0.0661(2)
C79_5 C 0.7608(3) 0.7703(4) 0.0537(2)
C80_5 C 0.7680(5) 0.8152(5) 0.0137(3)
H87_5 H 0.7969 0.8289 0.0173
H89_5 H 0.7441 0.8353 0.0191
C81_5 C 0.7979(5) 0.8121(5) 0.0866(3)
H90_5 H 0.8200 0.7895 0.0866
C82_5 C 0.7091(5) 0.5805(4) 0.0774(3)
H91_5 H 0.6834 0.5624 0.0755
N5_3 N 0.7681(4) 0.8813(4) 0.1033(2)
N6_3 N 0.7419(5) 0.5693(4) 0.0950(2)
C83_5 C 0.8023(5) 0.8487(6) 0.1030(3)
H92_5 H 0.8275 0.8515 0.1136
C84_5 C 0.7804(5) 0.5958(6) 0.0978(2)
H93_5 H 0.8024 0.5878 0.1099
C85_5 C 0.7638(4) 0.7327(6) 0.0131(2)
C86_5 C 0.7643(4) 0.7730(5) 0.0273(3)
C87_5 C 0.7149(4) 0.6194(5) 0.0622(2)
H94_5 H 0.6928 0.6274 0.0503
H146_5 H 0.0685 0.9118 0.0023
Co1_5 Co 0.56958(8) 0.72758(9) 0.87250(5)
O1_5 O 0.5254(3) 0.7181(4) 0.90007(19)
O2_5 O 0.5181(3) 0.7174(3) 0.85075(17)
O3_5 O 0.4631(3) 0.6660(4) 0.88230(19)
O4_5 O 0.5806(3) 0.6662(4) 0.8690(2)
C1_5 C 0.6201(4) 0.7665(4) 0.9141(2)
H1_5 H 0.5967 0.7877 0.9144
O5_5 O 0.5569(4) 0.7903(4) 0.87548(17)
C2_5 C 0.5562(4) 0.6468(5) 0.8505(2)
C5_5 C 0.7726(6) 0.7483(5) 0.9059(3)
H5_5 H 0.8036 0.7493 0.9002
H6_5 H 0.7574 0.7231 0.8980
H7_5 H 0.7575 0.7761 0.9013
C6_5 C 0.8110(4) 0.7432(3) 0.9481(2)
C7_5 C 0.5237(5) 0.6751(4) 0.8418(3)
C8_5 C 0.8541(4) 0.7468(4) 0.9350(2)
C9_5 C 0.4950(5) 0.6612(6) 0.8220(3)
H8_5 H 0.4725 0.6801 0.8154
C10_5 C 0.6559(5) 0.7704(5) 0.9315(2)
H9_5 H 0.6562 0.7933 0.9438
C15_5 C 0.5927(6) 0.5714(6) 0.8808(3)
H14_5 H 0.6144 0.5499 0.8872
H15_5 H 0.5978 0.6004 0.8887
H16_5 H 0.5625 0.5611 0.8848
C16_5 C 0.6914(5) 0.7391(4) 0.9299(3)
C18_5 C 0.8656(5) 0.7136(4) 0.9171(3)
H17_5 H 0.8477 0.6877 0.9153
C19_5 C 0.5346(6) 0.5898(6) 0.8215(3)
H18_5 H 0.5383 0.5609 0.8146
C20_5 C 0.4535(6) 0.5610(6) 0.8761(3)
H19_5 H 0.4849 0.5608 0.8711
H20_5 H 0.4416 0.5307 0.8754
H21_5 H 0.4366 0.5802 0.8646
C22_5 C 0.8088(5) 0.7400(4) 0.9748(2)
C23_5 C 0.4704(7) 0.6069(8) 0.7925(4)
C24_5 C 0.4845(5) 0.6088(6) 0.9117(3)
C25_5 C 0.4884(5) 0.6501(6) 0.9007(3)
C26_5 C 0.5118(5) 0.5944(6) 0.9313(3)
H23_5 H 0.5082 0.5652 0.9378
C27_5 C 0.5211(6) 0.6780(5) 0.9102(3)
C29_5 C 0.5739(12) 0.6097(12) 0.9629(6)
O6_5 O 0.4846(4) 0.7900(3) 0.8731(2)
C31_5 C 0.4441(8) 0.5337(7) 0.9192(5)
H26_5 H 0.4638 0.5105 0.9125
H27_5 H 0.4522 0.5400 0.9367
H28_5 H 0.4132 0.5234 0.9184
C32_5 C 0.5954(8) 0.5282(5) 0.8404(3)
H29_5 H 0.5649 0.5171 0.8419
H30_5 H 0.6042 0.5282 0.8226
H31_5 H 0.6155 0.5088 0.8499
C33_5 C 0.4297(8) 0.5826(9) 0.8010(5)
H32_5 H 0.4106 0.5763 0.7865
H33_5 H 0.4385 0.5545 0.8090
H34_5 H 0.4134 0.6009 0.8132
C34_5 C 0.8503(4) 0.7370(5) 0.9917(2)
H35_5 H 0.8605 0.7671 0.9959
H37_5 H 0.8739 0.7211 0.9827
C35_5 C 0.6433(5) 0.5963(6) 0.8456(4)
H38_5 H 0.6666 0.5754 0.8506
H39_5 H 0.6459 0.6027 0.8276
H40_5 H 0.6465 0.6240 0.8552
C37_5 C 0.4537(11) 0.6444(9) 0.7701(5)
H42_5 H 0.4356 0.6677 0.7780
H43_5 H 0.4799 0.6579 0.7622
H44_5 H 0.4360 0.6290 0.7572
C39_5 C 0.7715(4) 0.7429(2) 0.9339(2)
C41_5 C 0.7297(4) 0.7392(3) 0.9463(2)
C43_5 C 0.6848(5) 0.7320(5) 0.9863(3)
H48_5 H 0.6711 0.7031 0.9827
H50_5 H 0.6647 0.7559 0.9809
C45_5 C 0.6879(5) 0.7021(5) 0.9134(3)
H51_5 H 0.7105 0.6800 0.9134
C46_5 C 0.5021(6) 0.6170(7) 0.8126(3)
C48_5 C 0.5196(6) 0.8602(5) 0.8738(4)
H53_5 H 0.5446 0.8705 0.8635
H54_5 H 0.4916 0.8704 0.8663
H55_5 H 0.5224 0.8722 0.8909
C49_5 C 0.5199(6) 0.8101(6) 0.8749(3)
C50_5 C 0.5441(6) 0.6222(8) 0.9412(3)
C51_5 C 0.5942(11) 0.6406(11) 0.9747(5)
H56_5 H 0.5731 0.6644 0.9789
H57_5 H 0.6072 0.6287 0.9902
H58_5 H 0.6179 0.6527 0.9640
C52_5 C 0.5871(11) 0.5633(10) 0.9552(5)
H59_5 H 0.5849 0.5434 0.9697
H60_5 H 0.5672 0.5529 0.9418
H61_5 H 0.6178 0.5636 0.9490
C53_5 C 0.5470(10) 0.5941(10) 0.9888(5)
H62_5 H 0.5299 0.5670 0.9854
H64_5 H 0.5267 0.6179 0.9941
C54_5 C 0.9195(4) 0.7909(5) 0.9226(3)
H65_5 H 0.9376 0.8166 0.9245
N3_5 N 0.6187(4) 0.7319(4) 0.8967(2)
C55_5 C 0.4495(6) 0.5785(6) 0.9025(3)
C56_5 C 0.5981(6) 0.5760(5) 0.8509(4)
N4_3 N 0.9307(4) 0.7581(5) 0.9050(2)
C58_5 C 0.6513(6) 0.6977(5) 0.8970(3)
H66_5 H 0.6485 0.6725 0.8864
C59_5 C 0.5628(5) 0.6046(6) 0.8411(3)
C60_5 C 0.9042(6) 0.7196(5) 0.9022(2)
H67_5 H 0.9122 0.6976 0.8901
C61_5 C 0.4038(6) 0.5994(7) 0.9084(4)
H68_5 H 0.3828 0.5759 0.9131
H69_5 H 0.4069 0.6205 0.9224
H70_5 H 0.3928 0.6151 0.8935
C62_5 C 0.7673(6) 0.7362(4) 0.9869(2)
C65_5 C 0.7270(5) 0.7357(4) 0.9727(3)
C66_5 C 0.8806(5) 0.7851(4) 0.9378(2)
H73_5 H 0.8726 0.8072 0.9497
C67_5 C 0.5487(6) 0.6645(7) 0.9301(4)
H74_5 H 0.5709 0.6843 0.9362
C68_5 C 0.5025(9) 0.5717(11) 0.7761(5)
H75_5 H 0.4884 0.5652 0.7598
H76_5 H 0.5317 0.5852 0.7732
H77_5 H 0.5062 0.5439 0.7855
H85_5 H 0.7791 0.6571 0.9929
H88_5 H 0.7654 0.8097 0.9956
O7_5 O 0.0254(3) 0.7819(4) 0.90007(19)
O8_5 O 0.0181(3) 0.7826(3) 0.85075(17)
O10_5 O 0.0806(3) 0.8338(4) 0.8690(2)
O11_5 O 0.0569(4) 0.7097(4) 0.87548(17)
C107_5 C 0.0562(4) 0.8532(5) 0.8505(2)
C108_5 C 0.0237(5) 0.8249(4) 0.8418(3)
C110_5 C 0.0927(6) 0.9286(6) 0.8808(3)
H113_5 H 0.1144 0.9501 0.8872
H114_5 H 0.0978 0.8996 0.8887
H115_5 H 0.0625 0.9389 0.8848
C111_5 C 0.0346(6) 0.9102(6) 0.8215(3)
H116_5 H 0.0383 0.9391 0.8146
C116_5 C 0.0118(5) 0.9056(6) 0.9313(3)
H120_5 H 0.0082 0.9348 0.9378
C117_5 C 0.0211(6) 0.8220(5) 0.9102(3)
C118_5 C 0.0739(12) 0.8903(12) 0.9629(6)
C120_5 C 0.0954(8) 0.9718(5) 0.8404(3)
H124_5 H 0.0649 0.9829 0.8419
H125_5 H 0.1042 0.9718 0.8226
H126_5 H 0.1155 0.9912 0.8499
C122_5 C 0.1433(5) 0.9037(6) 0.8456(4)
H130_5 H 0.1666 0.9246 0.8506
H131_5 H 0.1459 0.8973 0.8276
H132_5 H 0.1465 0.8760 0.8552
C124_5 C 0.0021(6) 0.8830(7) 0.8126(3)
C125_5 C 0.0196(6) 0.6398(5) 0.8738(4)
H136_5 H 0.0446 0.6295 0.8635
H138_5 H 0.0224 0.6278 0.8909
C126_5 C 0.0199(6) 0.6899(6) 0.8749(3)
C127_5 C 0.0441(6) 0.8778(8) 0.9412(3)
C128_5 C 0.0942(11) 0.8594(11) 0.9747(5)
H139_5 H 0.0731 0.8356 0.9789
H140_5 H 0.1072 0.8713 0.9902
H141_5 H 0.1179 0.8473 0.9640
C129_5 C 0.0871(11) 0.9367(10) 0.9552(5)
H142_5 H 0.0849 0.9566 0.9697
H143_5 H 0.0672 0.9471 0.9418
H144_5 H 0.1178 0.9364 0.9490
C130_5 C 0.0470(10) 0.9059(10) 0.9888(5)
H145_5 H 0.0299 0.9330 0.9854
H147_5 H 0.0267 0.8821 0.9941
C132_5 C 0.0981(6) 0.9240(5) 0.8509(4)
C133_5 C 0.0628(5) 0.8954(6) 0.8411(3)
C135_5 C 0.0487(6) 0.8355(7) 0.9301(4)
H151_5 H 0.0709 0.8157 0.9362
C136_5 C 0.0025(9) 0.9283(11) 0.7761(5)
H153_5 H 0.0317 0.9148 0.7732
H154_5 H 0.0062 0.9561 0.7855
Co9_3 Co 0.97384(8) 0.77516(10) 0.87758(5)
N10_5 N 0.6125(3) 0.7426(4) 0.84509(19)
N11_3 N 0.1187(4) 0.7681(4) 0.8967(2)
N13_3 N 0.4307(4) 0.7419(5) 0.9050(2)
O9_5 O 0.9631(3) 0.8340(4) 0.88230(19)
C109_5 C 0.9950(5) 0.8388(6) 0.8220(3)
H112_5 H 0.9725 0.8199 0.8154
C112_5 C 0.9535(6) 0.9390(6) 0.8761(3)
H117_5 H 0.9849 0.9392 0.8711
H118_5 H 0.9416 0.9693 0.8754
H119_5 H 0.9366 0.9198 0.8646
C113_5 C 0.9704(7) 0.8931(8) 0.7925(4)
C114_5 C 0.9845(5) 0.8912(6) 0.9117(3)
C115_5 C 0.9884(5) 0.8499(6) 0.9007(3)
O12_5 O 0.9846(4) 0.7100(3) 0.8731(2)
C119_5 C 0.9441(8) 0.9663(7) 0.9192(5)
H121_5 H 0.9638 0.9895 0.9125
H122_5 H 0.9522 0.9600 0.9367
H123_5 H 0.9132 0.9766 0.9184
C121_5 C 0.9297(8) 0.9174(9) 0.8010(5)
H127_5 H 0.9106 0.9237 0.7865
H128_5 H 0.9385 0.9455 0.8090
H129_5 H 0.9134 0.8991 0.8132
C123_5 C 0.9537(11) 0.8556(9) 0.7701(5)
H133_5 H 0.9356 0.8323 0.7780
H134_5 H 0.9799 0.8421 0.7622
H135_5 H 0.9360 0.8710 0.7572
H137_5 H 0.9916 0.6296 0.8663
C131_5 C 0.9495(6) 0.9215(6) 0.9025(3)
C134_5 C 0.9038(6) 0.9006(7) 0.9084(4)
H148_5 H 0.8828 0.9241 0.9131
H149_5 H 0.9069 0.8795 0.9224
H150_5 H 0.8928 0.8849 0.8935
H152_5 H 0.9884 0.9348 0.7598
N9_5 N 0.9269(4) 0.7732(5) 0.8522(2)
Co4_3 Co 0.02616(8) 0.22484(10) 0.87758(5)
O9_6 O 0.0369(3) 0.1660(4) 0.88230(19)
C109_6 C 0.0050(5) 0.1612(6) 0.8220(3)
H112_6 H 0.0275 0.1801 0.8154
C112_6 C 0.0465(6) 0.0610(6) 0.8761(3)
H117_6 H 0.0151 0.0608 0.8711
H118_6 H 0.0584 0.0307 0.8754
H119_6 H 0.0634 0.0802 0.8646
C113_6 C 0.0296(7) 0.1069(8) 0.7925(4)
C114_6 C 0.0155(5) 0.1088(6) 0.9117(3)
C115_6 C 0.0116(5) 0.1501(6) 0.9007(3)
O12_6 O 0.0154(4) 0.2900(3) 0.8731(2)
C119_6 C 0.0559(8) 0.0337(7) 0.9192(5)
H121_6 H 0.0362 0.0105 0.9125
H122_6 H 0.0478 0.0400 0.9367
H123_6 H 0.0868 0.0234 0.9184
C121_6 C 0.0703(8) 0.0826(9) 0.8010(5)
H127_6 H 0.0894 0.0763 0.7865
H128_6 H 0.0615 0.0545 0.8090
H129_6 H 0.0866 0.1009 0.8132
C123_6 C 0.0463(11) 0.1444(9) 0.7701(5)
H133_6 H 0.0644 0.1677 0.7780
H134_6 H 0.0201 0.1579 0.7622
H135_6 H 0.0640 0.1290 0.7572
H137_6 H 0.0084 0.3704 0.8663
C131_6 C 0.0505(6) 0.0785(6) 0.9025(3)
C134_6 C 0.0962(6) 0.0994(7) 0.9084(4)
H148_6 H 0.1172 0.0759 0.9131
H149_6 H 0.0931 0.1205 0.9224
H150_6 H 0.1072 0.1151 0.8935
H152_6 H 0.0116 0.0652 0.7598
N9_6 N 0.0731(4) 0.2268(5) 0.8522(2)
N12_3 N 0.0693(4) 0.2419(5) 0.9050(2)
H36_6 H 0.1571 0.2791 0.0071
H49_6 H 0.3097 0.2654 0.0044
H63_6 H 0.4315 0.4118 0.0023
C69_6 C 0.2665(4) 0.1201(4) 0.0859(2)
H78_6 H 0.2877 0.0967 0.0856
C70_6 C 0.2483(5) 0.2726(6) 0.0941(3)
H79_6 H 0.2493 0.3036 0.0998
H80_6 H 0.2231 0.2574 0.1020
H81_6 H 0.2761 0.2575 0.0987
C71_6 C 0.2432(3) 0.3110(4) 0.0519(2)
C72_6 C 0.2468(4) 0.3541(4) 0.0650(2)
C73_6 C 0.2704(5) 0.1559(5) 0.0685(2)
H82_6 H 0.2933 0.1562 0.0562
C74_6 C 0.2391(4) 0.1914(5) 0.0701(3)
C75_6 C 0.2136(4) 0.3656(5) 0.0829(3)
H83_6 H 0.1877 0.3477 0.0847
C76_6 C 0.2400(4) 0.3088(5) 0.0252(2)
C77_6 C 0.2370(5) 0.3503(4) 0.0083(2)
H84_6 H 0.2671 0.3605 0.0041
H86_6 H 0.2211 0.3739 0.0173
C78_6 C 0.2429(2) 0.2715(4) 0.0661(2)
C79_6 C 0.2392(3) 0.2297(4) 0.0537(2)
C80_6 C 0.2320(5) 0.1848(5) 0.0137(3)
H87_6 H 0.2031 0.1711 0.0173
H89_6 H 0.2559 0.1647 0.0191
C81_6 C 0.2021(5) 0.1879(5) 0.0866(3)
H90_6 H 0.1800 0.2105 0.0866
C82_6 C 0.2909(5) 0.4195(4) 0.0774(3)
H91_6 H 0.3166 0.4376 0.0755
N5_4 N 0.2319(4) 0.1187(4) 0.1033(2)
N6_4 N 0.2581(5) 0.4307(4) 0.0950(2)
C83_6 C 0.1977(5) 0.1513(6) 0.1030(3)
H92_6 H 0.1725 0.1485 0.1136
C84_6 C 0.2196(5) 0.4042(6) 0.0978(2)
H93_6 H 0.1976 0.4122 0.1099
C85_6 C 0.2362(4) 0.2673(6) 0.0131(2)
C86_6 C 0.2357(4) 0.2270(5) 0.0273(3)
C87_6 C 0.2851(4) 0.3806(5) 0.0622(2)
H94_6 H 0.3072 0.3726 0.0503
H146_6 H 0.9315 0.0882 0.0023
Co1_6 Co 0.43042(8) 0.27242(9) 0.87250(5)
O1_6 O 0.4746(3) 0.2819(4) 0.90007(19)
O2_6 O 0.4819(3) 0.2826(3) 0.85075(17)
O3_6 O 0.5369(3) 0.3340(4) 0.88230(19)
O4_6 O 0.4194(3) 0.3338(4) 0.8690(2)
C1_6 C 0.3799(4) 0.2335(4) 0.9141(2)
H1_6 H 0.4033 0.2123 0.9144
O5_6 O 0.4431(4) 0.2097(4) 0.87548(17)
C2_6 C 0.4438(4) 0.3532(5) 0.8505(2)
C5_6 C 0.2274(6) 0.2517(5) 0.9059(3)
H5_6 H 0.1964 0.2507 0.9002
H6_6 H 0.2426 0.2769 0.8980
H7_6 H 0.2425 0.2239 0.9013
C6_6 C 0.1890(4) 0.2568(3) 0.9481(2)
C7_6 C 0.4763(5) 0.3249(4) 0.8418(3)
C8_6 C 0.1459(4) 0.2532(4) 0.9350(2)
C9_6 C 0.5050(5) 0.3388(6) 0.8220(3)
H8_6 H 0.5275 0.3199 0.8154
C10_6 C 0.3441(5) 0.2296(5) 0.9315(2)
H9_6 H 0.3438 0.2067 0.9438
C15_6 C 0.4073(6) 0.4286(6) 0.8808(3)
H14_6 H 0.3856 0.4501 0.8872
H15_6 H 0.4022 0.3996 0.8887
H16_6 H 0.4375 0.4389 0.8848
C16_6 C 0.3086(5) 0.2609(4) 0.9299(3)
C18_6 C 0.1344(5) 0.2864(4) 0.9171(3)
H17_6 H 0.1523 0.3123 0.9153
C19_6 C 0.4654(6) 0.4102(6) 0.8215(3)
H18_6 H 0.4617 0.4391 0.8146
C20_6 C 0.5465(6) 0.4390(6) 0.8761(3)
H19_6 H 0.5151 0.4392 0.8711
H20_6 H 0.5584 0.4693 0.8754
H21_6 H 0.5634 0.4198 0.8646
C22_6 C 0.1912(5) 0.2600(4) 0.9748(2)
C23_6 C 0.5296(7) 0.3931(8) 0.7925(4)
C24_6 C 0.5155(5) 0.3912(6) 0.9117(3)
C25_6 C 0.5116(5) 0.3499(6) 0.9007(3)
C26_6 C 0.4882(5) 0.4056(6) 0.9313(3)
H23_6 H 0.4918 0.4348 0.9378
C27_6 C 0.4789(6) 0.3220(5) 0.9102(3)
C29_6 C 0.4261(12) 0.3903(12) 0.9629(6)
O6_6 O 0.5154(4) 0.2100(3) 0.8731(2)
C31_6 C 0.5559(8) 0.4663(7) 0.9192(5)
H26_6 H 0.5362 0.4895 0.9125
H27_6 H 0.5478 0.4600 0.9367
H28_6 H 0.5868 0.4766 0.9184
C32_6 C 0.4046(8) 0.4718(5) 0.8404(3)
H29_6 H 0.4351 0.4829 0.8419
H30_6 H 0.3958 0.4718 0.8226
H31_6 H 0.3845 0.4912 0.8499
C33_6 C 0.5703(8) 0.4174(9) 0.8010(5)
H32_6 H 0.5894 0.4237 0.7865
H33_6 H 0.5615 0.4455 0.8090
H34_6 H 0.5866 0.3991 0.8132
C34_6 C 0.1497(4) 0.2630(5) 0.9917(2)
H35_6 H 0.1395 0.2329 0.9959
H37_6 H 0.1261 0.2789 0.9827
C35_6 C 0.3567(5) 0.4037(6) 0.8456(4)
H38_6 H 0.3334 0.4246 0.8506
H39_6 H 0.3541 0.3973 0.8276
H40_6 H 0.3535 0.3760 0.8552
C37_6 C 0.5463(11) 0.3556(9) 0.7701(5)
H42_6 H 0.5644 0.3323 0.7780
H43_6 H 0.5201 0.3421 0.7622
H44_6 H 0.5640 0.3710 0.7572
C39_6 C 0.2285(4) 0.2571(2) 0.9339(2)
C41_6 C 0.2703(4) 0.2608(3) 0.9463(2)
C43_6 C 0.3152(5) 0.2680(5) 0.9863(3)
H48_6 H 0.3289 0.2969 0.9827
H50_6 H 0.3353 0.2441 0.9809
C45_6 C 0.3121(5) 0.2979(5) 0.9134(3)
H51_6 H 0.2895 0.3200 0.9134
C46_6 C 0.4979(6) 0.3830(7) 0.8126(3)
C48_6 C 0.4804(6) 0.1398(5) 0.8738(4)
H53_6 H 0.4554 0.1295 0.8635
H54_6 H 0.5084 0.1296 0.8663
H55_6 H 0.4776 0.1278 0.8909
C49_6 C 0.4801(6) 0.1899(6) 0.8749(3)
C50_6 C 0.4559(6) 0.3778(8) 0.9412(3)
C51_6 C 0.4058(11) 0.3594(11) 0.9747(5)
H56_6 H 0.4269 0.3356 0.9789
H57_6 H 0.3928 0.3713 0.9902
H58_6 H 0.3821 0.3473 0.9640
C52_6 C 0.4129(11) 0.4367(10) 0.9552(5)
H59_6 H 0.4151 0.4566 0.9697
H60_6 H 0.4328 0.4471 0.9418
H61_6 H 0.3822 0.4364 0.9490
C53_6 C 0.4530(10) 0.4059(10) 0.9888(5)
H62_6 H 0.4701 0.4330 0.9854
H64_6 H 0.4733 0.3821 0.9941
C54_6 C 0.0805(4) 0.2091(5) 0.9226(3)
H65_6 H 0.0624 0.1834 0.9245
N3_6 N 0.3813(4) 0.2681(4) 0.8967(2)
C55_6 C 0.5505(6) 0.4215(6) 0.9025(3)
C56_6 C 0.4019(6) 0.4240(5) 0.8509(4)
C58_6 C 0.3487(6) 0.3023(5) 0.8970(3)
H66_6 H 0.3515 0.3275 0.8864
C59_6 C 0.4372(5) 0.3954(6) 0.8411(3)
C60_6 C 0.0958(6) 0.2804(5) 0.9022(2)
H67_6 H 0.0878 0.3024 0.8901
C61_6 C 0.5962(6) 0.4006(7) 0.9084(4)
H68_6 H 0.6172 0.4241 0.9131
H69_6 H 0.5931 0.3795 0.9224
H70_6 H 0.6072 0.3849 0.8935
C62_6 C 0.2327(6) 0.2638(4) 0.9869(2)
C65_6 C 0.2730(5) 0.2643(4) 0.9727(3)
C66_6 C 0.1194(5) 0.2149(4) 0.9378(2)
H73_6 H 0.1274 0.1928 0.9497
C67_6 C 0.4513(6) 0.3355(7) 0.9301(4)
H74_6 H 0.4291 0.3157 0.9362
C68_6 C 0.4975(9) 0.4283(11) 0.7761(5)
H75_6 H 0.5116 0.4348 0.7598
H76_6 H 0.4683 0.4148 0.7732
H77_6 H 0.4938 0.4561 0.7855
H85_6 H 0.2209 0.3429 0.9929
H88_6 H 0.2346 0.1903 0.9956
O7_6 O 0.9746(3) 0.2181(4) 0.90007(19)
O8_6 O 0.9819(3) 0.2174(3) 0.85075(17)
O10_6 O 0.9194(3) 0.1662(4) 0.8690(2)
O11_6 O 0.9431(4) 0.2903(4) 0.87548(17)
C107_6 C 0.9438(4) 0.1468(5) 0.8505(2)
C108_6 C 0.9763(5) 0.1751(4) 0.8418(3)
C110_6 C 0.9073(6) 0.0714(6) 0.8808(3)
H113_6 H 0.8856 0.0499 0.8872
H114_6 H 0.9022 0.1004 0.8887
H115_6 H 0.9375 0.0611 0.8848
C111_6 C 0.9654(6) 0.0898(6) 0.8215(3)
H116_6 H 0.9617 0.0609 0.8146
C116_6 C 0.9882(5) 0.0944(6) 0.9313(3)
H120_6 H 0.9918 0.0652 0.9378
C117_6 C 0.9789(6) 0.1780(5) 0.9102(3)
C118_6 C 0.9261(12) 0.1097(12) 0.9629(6)
C120_6 C 0.9046(8) 0.0282(5) 0.8404(3)
H124_6 H 0.9351 0.0171 0.8419
H125_6 H 0.8958 0.0282 0.8226
H126_6 H 0.8845 0.0088 0.8499
C122_6 C 0.8567(5) 0.0963(6) 0.8456(4)
H130_6 H 0.8334 0.0754 0.8506
H131_6 H 0.8541 0.1027 0.8276
H132_6 H 0.8535 0.1240 0.8552
C124_6 C 0.9979(6) 0.1170(7) 0.8126(3)
C125_6 C 0.9804(6) 0.3602(5) 0.8738(4)
H136_6 H 0.9554 0.3705 0.8635
H138_6 H 0.9776 0.3722 0.8909
C126_6 C 0.9801(6) 0.3101(6) 0.8749(3)
C127_6 C 0.9559(6) 0.1222(8) 0.9412(3)
C128_6 C 0.9058(11) 0.1406(11) 0.9747(5)
H139_6 H 0.9269 0.1644 0.9789
H140_6 H 0.8928 0.1287 0.9902
H141_6 H 0.8821 0.1527 0.9640
C129_6 C 0.9129(11) 0.0633(10) 0.9552(5)
H142_6 H 0.9151 0.0434 0.9697
H143_6 H 0.9328 0.0529 0.9418
H144_6 H 0.8822 0.0636 0.9490
C130_6 C 0.9530(10) 0.0941(10) 0.9888(5)
H145_6 H 0.9701 0.0670 0.9854
H147_6 H 0.9733 0.1179 0.9941
C132_6 C 0.9019(6) 0.0760(5) 0.8509(4)
C133_6 C 0.9372(5) 0.1046(6) 0.8411(3)
C135_6 C 0.9513(6) 0.1645(7) 0.9301(4)
H151_6 H 0.9291 0.1843 0.9362
C136_6 C 0.9975(9) 0.0717(11) 0.7761(5)
H153_6 H 0.9683 0.0852 0.7732
H154_6 H 0.9938 0.0439 0.7855
N10_6 N 0.3875(3) 0.2574(4) 0.84509(19)
N11_4 N 0.8813(4) 0.2319(4) 0.8967(2)
N13_4 N 0.5693(4) 0.2581(5) 0.9050(2)
Co1_7 Co 0.27242(9) 0.56958(8) 0.12750(5)
O1_7 O 0.2819(4) 0.5254(3) 0.09993(19)
O2_7 O 0.2826(3) 0.5181(3) 0.14925(17)
O3_7 O 0.3340(4) 0.4631(3) 0.11770(19)
O4_7 O 0.3338(4) 0.5806(3) 0.1310(2)
C1_7 C 0.2335(4) 0.6201(4) 0.0859(2)
H1_7 H 0.2123 0.5967 0.0856
O5_7 O 0.2097(4) 0.5569(4) 0.12452(17)
C2_7 C 0.3532(5) 0.5562(4) 0.1495(2)
C5_7 C 0.2517(5) 0.7726(6) 0.0941(3)
H5_7 H 0.2507 0.8036 0.0998
H6_7 H 0.2769 0.7574 0.1020
H7_7 H 0.2239 0.7575 0.0987
C6_7 C 0.2568(3) 0.8110(4) 0.0519(2)
C7_7 C 0.3249(4) 0.5237(5) 0.1582(3)
C8_7 C 0.2532(4) 0.8541(4) 0.0650(2)
C9_7 C 0.3388(6) 0.4950(5) 0.1780(3)
H8_7 H 0.3199 0.4725 0.1846
C10_7 C 0.2296(5) 0.6559(5) 0.0685(2)
H9_7 H 0.2067 0.6562 0.0562
C15_7 C 0.4286(6) 0.5927(6) 0.1192(3)
H14_7 H 0.4501 0.6144 0.1128
H15_7 H 0.3996 0.5978 0.1113
H16_7 H 0.4389 0.5625 0.1152
C16_7 C 0.2609(4) 0.6914(5) 0.0701(3)
C18_7 C 0.2864(4) 0.8656(5) 0.0829(3)
H17_7 H 0.3123 0.8477 0.0847
C19_7 C 0.4102(6) 0.5346(6) 0.1785(3)
H18_7 H 0.4391 0.5383 0.1854
C20_7 C 0.4390(6) 0.4535(6) 0.1239(3)
H19_7 H 0.4392 0.4849 0.1289
H20_7 H 0.4693 0.4416 0.1246
H21_7 H 0.4198 0.4366 0.1354
C22_7 C 0.2600(4) 0.8088(5) 0.0252(2)
C23_7 C 0.3931(8) 0.4704(7) 0.2075(4)
C24_7 C 0.3912(6) 0.4845(5) 0.0883(3)
C25_7 C 0.3499(6) 0.4884(5) 0.0993(3)
C26_7 C 0.4056(6) 0.5118(5) 0.0687(3)
H23_7 H 0.4348 0.5082 0.0622
C27_7 C 0.3220(5) 0.5211(6) 0.0898(3)
C29_7 C 0.3903(12) 0.5739(12) 0.0371(6)
O6_7 O 0.2100(3) 0.4846(4) 0.1269(2)
C31_7 C 0.4663(7) 0.4441(8) 0.0808(5)
H26_7 H 0.4895 0.4638 0.0875
H27_7 H 0.4600 0.4522 0.0633
H28_7 H 0.4766 0.4132 0.0816
C32_7 C 0.4718(5) 0.5954(8) 0.1596(3)
H29_7 H 0.4829 0.5649 0.1581
H30_7 H 0.4718 0.6042 0.1774
H31_7 H 0.4912 0.6155 0.1501
C33_7 C 0.4174(9) 0.4297(8) 0.1990(5)
H32_7 H 0.4237 0.4106 0.2135
H33_7 H 0.4455 0.4385 0.1910
H34_7 H 0.3991 0.4134 0.1868
C34_7 C 0.2630(5) 0.8503(4) 0.0083(2)
H35_7 H 0.2329 0.8605 0.0041
H37_7 H 0.2789 0.8739 0.0173
C35_7 C 0.4037(6) 0.6433(5) 0.1544(4)
H38_7 H 0.4246 0.6666 0.1494
H39_7 H 0.3973 0.6459 0.1724
H40_7 H 0.3760 0.6465 0.1448
C37_7 C 0.3556(9) 0.4537(11) 0.2299(5)
H42_7 H 0.3323 0.4356 0.2220
H43_7 H 0.3421 0.4799 0.2378
H44_7 H 0.3710 0.4360 0.2428
C39_7 C 0.2571(2) 0.7715(4) 0.0661(2)
C41_7 C 0.2608(3) 0.7297(4) 0.0537(2)
C43_7 C 0.2680(5) 0.6848(5) 0.0137(3)
H48_7 H 0.2969 0.6711 0.0173
H50_7 H 0.2441 0.6647 0.0191
C45_7 C 0.2979(5) 0.6879(5) 0.0866(3)
H51_7 H 0.3200 0.7105 0.0866
C46_7 C 0.3830(7) 0.5021(6) 0.1874(3)
C48_7 C 0.1398(5) 0.5196(6) 0.1262(4)
H53_7 H 0.1295 0.5446 0.1365
H54_7 H 0.1296 0.4916 0.1337
H55_7 H 0.1278 0.5224 0.1091
C49_7 C 0.1899(6) 0.5199(6) 0.1251(3)
C50_7 C 0.3778(8) 0.5441(6) 0.0588(3)
C51_7 C 0.3594(11) 0.5942(11) 0.0253(5)
H56_7 H 0.3356 0.5731 0.0211
H57_7 H 0.3713 0.6072 0.0098
H58_7 H 0.3473 0.6179 0.0360
C52_7 C 0.4367(10) 0.5871(11) 0.0448(5)
H59_7 H 0.4566 0.5849 0.0303
H60_7 H 0.4471 0.5672 0.0582
H61_7 H 0.4364 0.6178 0.0510
C53_7 C 0.4059(10) 0.5470(10) 0.0112(5)
H62_7 H 0.4330 0.5299 0.0146
H64_7 H 0.3821 0.5267 0.0059
C54_7 C 0.2091(5) 0.9195(4) 0.0774(3)
H65_7 H 0.1834 0.9376 0.0755
N3_7 N 0.2681(4) 0.6187(4) 0.1033(2)
C55_7 C 0.4215(6) 0.4495(6) 0.0975(3)
C56_7 C 0.4240(5) 0.5981(6) 0.1491(4)
N4_4 N 0.2419(5) 0.9307(4) 0.0950(2)
C58_7 C 0.3023(5) 0.6513(6) 0.1030(3)
H66_7 H 0.3275 0.6485 0.1136
C59_7 C 0.3954(6) 0.5628(5) 0.1589(3)
C60_7 C 0.2804(5) 0.9042(6) 0.0978(2)
H67_7 H 0.3024 0.9122 0.1099
C61_7 C 0.4006(7) 0.4038(6) 0.0916(4)
H68_7 H 0.4241 0.3828 0.0869
H69_7 H 0.3795 0.4069 0.0776
H70_7 H 0.3849 0.3928 0.1065
C62_7 C 0.2638(4) 0.7673(6) 0.0131(2)
C65_7 C 0.2643(4) 0.7270(5) 0.0273(3)
C66_7 C 0.2149(4) 0.8806(5) 0.0622(2)
H73_7 H 0.1928 0.8726 0.0503
C67_7 C 0.3355(7) 0.5487(6) 0.0699(4)
H74_7 H 0.3157 0.5709 0.0638
C68_7 C 0.4283(11) 0.5025(9) 0.2239(5)
H75_7 H 0.4348 0.4884 0.2402
H76_7 H 0.4148 0.5317 0.2268
H77_7 H 0.4561 0.5062 0.2145
H85_7 H 0.3429 0.7791 0.0071
H88_7 H 0.1903 0.7654 0.0044
O7_7 O 0.2181(4) 0.0254(3) 0.09993(19)
O8_7 O 0.2174(3) 0.0181(3) 0.14925(17)
O10_7 O 0.1662(4) 0.0806(3) 0.1310(2)
O11_7 O 0.2903(4) 0.0569(4) 0.12452(17)
C107_7 C 0.1468(5) 0.0562(4) 0.1495(2)
C108_7 C 0.1751(4) 0.0237(5) 0.1582(3)
C110_7 C 0.0714(6) 0.0927(6) 0.1192(3)
H113_7 H 0.0499 0.1144 0.1128
H114_7 H 0.1004 0.0978 0.1113
H115_7 H 0.0611 0.0625 0.1152
C111_7 C 0.0898(6) 0.0346(6) 0.1785(3)
H116_7 H 0.0609 0.0383 0.1854
C116_7 C 0.0944(6) 0.0118(5) 0.0687(3)
H120_7 H 0.0652 0.0082 0.0622
C117_7 C 0.1780(5) 0.0211(6) 0.0898(3)
C118_7 C 0.1097(12) 0.0739(12) 0.0371(6)
C120_7 C 0.0282(5) 0.0954(8) 0.1596(3)
H124_7 H 0.0171 0.0649 0.1581
H125_7 H 0.0282 0.1042 0.1774
H126_7 H 0.0088 0.1155 0.1501
C122_7 C 0.0963(6) 0.1433(5) 0.1544(4)
H130_7 H 0.0754 0.1666 0.1494
H131_7 H 0.1027 0.1459 0.1724
H132_7 H 0.1240 0.1465 0.1448
C124_7 C 0.1170(7) 0.0021(6) 0.1874(3)
C125_7 C 0.3602(5) 0.0196(6) 0.1262(4)
H136_7 H 0.3705 0.0446 0.1365
H138_7 H 0.3722 0.0224 0.1091
C126_7 C 0.3101(6) 0.0199(6) 0.1251(3)
C127_7 C 0.1222(8) 0.0441(6) 0.0588(3)
C128_7 C 0.1406(11) 0.0942(11) 0.0253(5)
H139_7 H 0.1644 0.0731 0.0211
H140_7 H 0.1287 0.1072 0.0098
H141_7 H 0.1527 0.1179 0.0360
C129_7 C 0.0633(10) 0.0871(11) 0.0448(5)
H142_7 H 0.0434 0.0849 0.0303
H143_7 H 0.0529 0.0672 0.0582
H144_7 H 0.0636 0.1178 0.0510
C130_7 C 0.0941(10) 0.0470(10) 0.0112(5)
H145_7 H 0.0670 0.0299 0.0146
H147_7 H 0.1179 0.0267 0.0059
C132_7 C 0.0760(5) 0.0981(6) 0.1491(4)
C133_7 C 0.1046(6) 0.0628(5) 0.1589(3)
C135_7 C 0.1645(7) 0.0487(6) 0.0699(4)
H151_7 H 0.1843 0.0709 0.0638
C136_7 C 0.0717(11) 0.0025(9) 0.2239(5)
H153_7 H 0.0852 0.0317 0.2268
H154_7 H 0.0439 0.0062 0.2145
Co9_4 Co 0.22484(10) 0.97384(8) 0.12242(5)
N10_7 N 0.2574(4) 0.6125(3) 0.15491(19)
H36_7 H 0.2791 0.8429 0.9929
H49_7 H 0.2654 0.6903 0.9956
H63_7 H 0.4118 0.5685 0.9977
C69_7 C 0.1201(4) 0.7335(4) 0.9141(2)
H78_7 H 0.0967 0.7123 0.9144
C70_7 C 0.2726(6) 0.7517(5) 0.9059(3)
H79_7 H 0.3036 0.7507 0.9002
H80_7 H 0.2574 0.7769 0.8980
H81_7 H 0.2575 0.7239 0.9013
C71_7 C 0.3110(4) 0.7568(3) 0.9481(2)
C72_7 C 0.3541(4) 0.7532(4) 0.9350(2)
C73_7 C 0.1559(5) 0.7296(5) 0.9315(2)
H82_7 H 0.1562 0.7067 0.9438
C74_7 C 0.1914(5) 0.7609(4) 0.9299(3)
C75_7 C 0.3656(5) 0.7864(4) 0.9171(3)
H83_7 H 0.3477 0.8123 0.9153
C76_7 C 0.3088(5) 0.7600(4) 0.9748(2)
C77_7 C 0.3503(4) 0.7630(5) 0.9917(2)
H84_7 H 0.3605 0.7329 0.9959
H86_7 H 0.3739 0.7789 0.9827
C78_7 C 0.2715(4) 0.7571(2) 0.9339(2)
C79_7 C 0.2297(4) 0.7608(3) 0.9463(2)
C80_7 C 0.1848(5) 0.7680(5) 0.9863(3)
H87_7 H 0.1711 0.7969 0.9827
H89_7 H 0.1647 0.7441 0.9809
C81_7 C 0.1879(5) 0.7979(5) 0.9134(3)
H90_7 H 0.2105 0.8200 0.9134
C82_7 C 0.4195(4) 0.7091(5) 0.9226(3)
H91_7 H 0.4376 0.6834 0.9245
C83_7 C 0.1513(6) 0.8023(5) 0.8970(3)
H92_7 H 0.1485 0.8275 0.8864
C84_7 C 0.4042(6) 0.7804(5) 0.9022(2)
H93_7 H 0.4122 0.8024 0.8901
C85_7 C 0.2673(6) 0.7638(4) 0.9869(2)
C86_7 C 0.2270(5) 0.7643(4) 0.9727(3)
C87_7 C 0.3806(5) 0.7149(4) 0.9378(2)
H94_7 H 0.3726 0.6928 0.9497
H146_7 H 0.0882 0.0685 0.9977
O9_7 O 0.1660(4) 0.9631(3) 0.11770(19)
C109_7 C 0.1612(6) 0.9950(5) 0.1780(3)
H112_7 H 0.1801 0.9725 0.1846
C112_7 C 0.0610(6) 0.9535(6) 0.1239(3)
H117_7 H 0.0608 0.9849 0.1289
H118_7 H 0.0307 0.9416 0.1246
H119_7 H 0.0802 0.9366 0.1354
C113_7 C 0.1069(8) 0.9704(7) 0.2075(4)
C114_7 C 0.1088(6) 0.9845(5) 0.0883(3)
C115_7 C 0.1501(6) 0.9884(5) 0.0993(3)
O12_7 O 0.2900(3) 0.9846(4) 0.1269(2)
C119_7 C 0.0337(7) 0.9441(8) 0.0808(5)
H121_7 H 0.0105 0.9638 0.0875
H122_7 H 0.0400 0.9522 0.0633
H123_7 H 0.0234 0.9132 0.0816
C121_7 C 0.0826(9) 0.9297(8) 0.1990(5)
H127_7 H 0.0763 0.9106 0.2135
H128_7 H 0.0545 0.9385 0.1910
H129_7 H 0.1009 0.9134 0.1868
C123_7 C 0.1444(9) 0.9537(11) 0.2299(5)
H133_7 H 0.1677 0.9356 0.2220
H134_7 H 0.1579 0.9799 0.2378
H135_7 H 0.1290 0.9360 0.2428
H137_7 H 0.3704 0.9916 0.1337
C131_7 C 0.0785(6) 0.9495(6) 0.0975(3)
C134_7 C 0.0994(7) 0.9038(6) 0.0916(4)
H148_7 H 0.0759 0.8828 0.0869
H149_7 H 0.1205 0.9069 0.0776
H150_7 H 0.1151 0.8928 0.1065
H152_7 H 0.0652 0.9884 0.2402
N9_7 N 0.2268(5) 0.9269(4) 0.1478(2)
Co4_4 Co 0.77516(10) 0.02616(8) 0.12242(5)
O9_8 O 0.8340(4) 0.0369(3) 0.11770(19)
C109_8 C 0.8388(6) 0.0050(5) 0.1780(3)
H112_8 H 0.8199 0.0275 0.1846
C112_8 C 0.9390(6) 0.0465(6) 0.1239(3)
H117_8 H 0.9392 0.0151 0.1289
H118_8 H 0.9693 0.0584 0.1246
H119_8 H 0.9198 0.0634 0.1354
C113_8 C 0.8931(8) 0.0296(7) 0.2075(4)
C114_8 C 0.8912(6) 0.0155(5) 0.0883(3)
C115_8 C 0.8499(6) 0.0116(5) 0.0993(3)
O12_8 O 0.7100(3) 0.0154(4) 0.1269(2)
C119_8 C 0.9663(7) 0.0559(8) 0.0808(5)
H121_8 H 0.9895 0.0362 0.0875
H122_8 H 0.9600 0.0478 0.0633
H123_8 H 0.9766 0.0868 0.0816
C121_8 C 0.9174(9) 0.0703(8) 0.1990(5)
H127_8 H 0.9237 0.0894 0.2135
H128_8 H 0.9455 0.0615 0.1910
H129_8 H 0.8991 0.0866 0.1868
C123_8 C 0.8556(9) 0.0463(11) 0.2299(5)
H133_8 H 0.8323 0.0644 0.2220
H134_8 H 0.8421 0.0201 0.2378
H135_8 H 0.8710 0.0640 0.2428
H137_8 H 0.6296 0.0084 0.1337
C131_8 C 0.9215(6) 0.0505(6) 0.0975(3)
C134_8 C 0.9006(7) 0.0962(6) 0.0916(4)
H148_8 H 0.9241 0.1172 0.0869
H149_8 H 0.8795 0.0931 0.0776
H150_8 H 0.8849 0.1072 0.1065
H152_8 H 0.9348 0.0116 0.2402
N9_8 N 0.7732(5) 0.0731(4) 0.1478(2)
N12_4 N 0.7581(5) 0.0693(4) 0.0950(2)
Co1_8 Co 0.72758(9) 0.43042(8) 0.12750(5)
O1_8 O 0.7181(4) 0.4746(3) 0.09993(19)
O2_8 O 0.7174(3) 0.4819(3) 0.14925(17)
O3_8 O 0.6660(4) 0.5369(3) 0.11770(19)
O4_8 O 0.6662(4) 0.4194(3) 0.1310(2)
C1_8 C 0.7665(4) 0.3799(4) 0.0859(2)
H1_8 H 0.7877 0.4033 0.0856
O5_8 O 0.7903(4) 0.4431(4) 0.12452(17)
C2_8 C 0.6468(5) 0.4438(4) 0.1495(2)
C5_8 C 0.7483(5) 0.2274(6) 0.0941(3)
H5_8 H 0.7493 0.1964 0.0998
H6_8 H 0.7231 0.2426 0.1020
H7_8 H 0.7761 0.2425 0.0987
C6_8 C 0.7432(3) 0.1890(4) 0.0519(2)
C7_8 C 0.6751(4) 0.4763(5) 0.1582(3)
C8_8 C 0.7468(4) 0.1459(4) 0.0650(2)
C9_8 C 0.6612(6) 0.5050(5) 0.1780(3)
H8_8 H 0.6801 0.5275 0.1846
C10_8 C 0.7704(5) 0.3441(5) 0.0685(2)
H9_8 H 0.7933 0.3438 0.0562
C15_8 C 0.5714(6) 0.4073(6) 0.1192(3)
H14_8 H 0.5499 0.3856 0.1128
H15_8 H 0.6004 0.4022 0.1113
H16_8 H 0.5611 0.4375 0.1152
C16_8 C 0.7391(4) 0.3086(5) 0.0701(3)
C18_8 C 0.7136(4) 0.1344(5) 0.0829(3)
H17_8 H 0.6877 0.1523 0.0847
C19_8 C 0.5898(6) 0.4654(6) 0.1785(3)
H18_8 H 0.5609 0.4617 0.1854
C20_8 C 0.5610(6) 0.5465(6) 0.1239(3)
H19_8 H 0.5608 0.5151 0.1289
H20_8 H 0.5307 0.5584 0.1246
H21_8 H 0.5802 0.5634 0.1354
C22_8 C 0.7400(4) 0.1912(5) 0.0252(2)
C23_8 C 0.6069(8) 0.5296(7) 0.2075(4)
C24_8 C 0.6088(6) 0.5155(5) 0.0883(3)
C25_8 C 0.6501(6) 0.5116(5) 0.0993(3)
C26_8 C 0.5944(6) 0.4882(5) 0.0687(3)
H23_8 H 0.5652 0.4918 0.0622
C27_8 C 0.6780(5) 0.4789(6) 0.0898(3)
C29_8 C 0.6097(12) 0.4261(12) 0.0371(6)
O6_8 O 0.7900(3) 0.5154(4) 0.1269(2)
C31_8 C 0.5337(7) 0.5559(8) 0.0808(5)
H26_8 H 0.5105 0.5362 0.0875
H27_8 H 0.5400 0.5478 0.0633
H28_8 H 0.5234 0.5868 0.0816
C32_8 C 0.5282(5) 0.4046(8) 0.1596(3)
H29_8 H 0.5171 0.4351 0.1581
H30_8 H 0.5282 0.3958 0.1774
H31_8 H 0.5088 0.3845 0.1501
C33_8 C 0.5826(9) 0.5703(8) 0.1990(5)
H32_8 H 0.5763 0.5894 0.2135
H33_8 H 0.5545 0.5615 0.1910
H34_8 H 0.6009 0.5866 0.1868
C34_8 C 0.7370(5) 0.1497(4) 0.0083(2)
H35_8 H 0.7671 0.1395 0.0041
H37_8 H 0.7211 0.1261 0.0173
C35_8 C 0.5963(6) 0.3567(5) 0.1544(4)
H38_8 H 0.5754 0.3334 0.1494
H39_8 H 0.6027 0.3541 0.1724
H40_8 H 0.6240 0.3535 0.1448
C37_8 C 0.6444(9) 0.5463(11) 0.2299(5)
H42_8 H 0.6677 0.5644 0.2220
H43_8 H 0.6579 0.5201 0.2378
H44_8 H 0.6290 0.5640 0.2428
C39_8 C 0.7429(2) 0.2285(4) 0.0661(2)
C41_8 C 0.7392(3) 0.2703(4) 0.0537(2)
C43_8 C 0.7320(5) 0.3152(5) 0.0137(3)
H48_8 H 0.7031 0.3289 0.0173
H50_8 H 0.7559 0.3353 0.0191
C45_8 C 0.7021(5) 0.3121(5) 0.0866(3)
H51_8 H 0.6800 0.2895 0.0866
C46_8 C 0.6170(7) 0.4979(6) 0.1874(3)
C48_8 C 0.8602(5) 0.4804(6) 0.1262(4)
H53_8 H 0.8705 0.4554 0.1365
H54_8 H 0.8704 0.5084 0.1337
H55_8 H 0.8722 0.4776 0.1091
C49_8 C 0.8101(6) 0.4801(6) 0.1251(3)
C50_8 C 0.6222(8) 0.4559(6) 0.0588(3)
C51_8 C 0.6406(11) 0.4058(11) 0.0253(5)
H56_8 H 0.6644 0.4269 0.0211
H57_8 H 0.6287 0.3928 0.0098
H58_8 H 0.6527 0.3821 0.0360
C52_8 C 0.5633(10) 0.4129(11) 0.0448(5)
H59_8 H 0.5434 0.4151 0.0303
H60_8 H 0.5529 0.4328 0.0582
H61_8 H 0.5636 0.3822 0.0510
C53_8 C 0.5941(10) 0.4530(10) 0.0112(5)
H62_8 H 0.5670 0.4701 0.0146
H64_8 H 0.6179 0.4733 0.0059
C54_8 C 0.7909(5) 0.0805(4) 0.0774(3)
H65_8 H 0.8166 0.0624 0.0755
N3_8 N 0.7319(4) 0.3813(4) 0.1033(2)
C55_8 C 0.5785(6) 0.5505(6) 0.0975(3)
C56_8 C 0.5760(5) 0.4019(6) 0.1491(4)
C58_8 C 0.6977(5) 0.3487(6) 0.1030(3)
H66_8 H 0.6725 0.3515 0.1136
C59_8 C 0.6046(6) 0.4372(5) 0.1589(3)
C60_8 C 0.7196(5) 0.0958(6) 0.0978(2)
H67_8 H 0.6976 0.0878 0.1099
C61_8 C 0.5994(7) 0.5962(6) 0.0916(4)
H68_8 H 0.5759 0.6172 0.0869
H69_8 H 0.6205 0.5931 0.0776
H70_8 H 0.6151 0.6072 0.1065
C62_8 C 0.7362(4) 0.2327(6) 0.0131(2)
C65_8 C 0.7357(4) 0.2730(5) 0.0273(3)
C66_8 C 0.7851(4) 0.1194(5) 0.0622(2)
H73_8 H 0.8072 0.1274 0.0503
C67_8 C 0.6645(7) 0.4513(6) 0.0699(4)
H74_8 H 0.6843 0.4291 0.0638
C68_8 C 0.5717(11) 0.4975(9) 0.2239(5)
H75_8 H 0.5652 0.5116 0.2402
H76_8 H 0.5852 0.4683 0.2268
H77_8 H 0.5439 0.4938 0.2145
H85_8 H 0.6571 0.2209 0.0071
H88_8 H 0.8097 0.2346 0.0044
O7_8 O 0.7819(4) 0.9746(3) 0.09993(19)
O8_8 O 0.7826(3) 0.9819(3) 0.14925(17)
O10_8 O 0.8338(4) 0.9194(3) 0.1310(2)
O11_8 O 0.7097(4) 0.9431(4) 0.12452(17)
C107_8 C 0.8532(5) 0.9438(4) 0.1495(2)
C108_8 C 0.8249(4) 0.9763(5) 0.1582(3)
C110_8 C 0.9286(6) 0.9073(6) 0.1192(3)
H113_8 H 0.9501 0.8856 0.1128
H114_8 H 0.8996 0.9022 0.1113
H115_8 H 0.9389 0.9375 0.1152
C111_8 C 0.9102(6) 0.9654(6) 0.1785(3)
H116_8 H 0.9391 0.9617 0.1854
C116_8 C 0.9056(6) 0.9882(5) 0.0687(3)
H120_8 H 0.9348 0.9918 0.0622
C117_8 C 0.8220(5) 0.9789(6) 0.0898(3)
C118_8 C 0.8903(12) 0.9261(12) 0.0371(6)
C120_8 C 0.9718(5) 0.9046(8) 0.1596(3)
H124_8 H 0.9829 0.9351 0.1581
H125_8 H 0.9718 0.8958 0.1774
H126_8 H 0.9912 0.8845 0.1501
C122_8 C 0.9037(6) 0.8567(5) 0.1544(4)
H130_8 H 0.9246 0.8334 0.1494
H131_8 H 0.8973 0.8541 0.1724
H132_8 H 0.8760 0.8535 0.1448
C124_8 C 0.8830(7) 0.9979(6) 0.1874(3)
C125_8 C 0.6398(5) 0.9804(6) 0.1262(4)
H136_8 H 0.6295 0.9554 0.1365
H138_8 H 0.6278 0.9776 0.1091
C126_8 C 0.6899(6) 0.9801(6) 0.1251(3)
C127_8 C 0.8778(8) 0.9559(6) 0.0588(3)
C128_8 C 0.8594(11) 0.9058(11) 0.0253(5)
H139_8 H 0.8356 0.9269 0.0211
H140_8 H 0.8713 0.8928 0.0098
H141_8 H 0.8473 0.8821 0.0360
C129_8 C 0.9367(10) 0.9129(11) 0.0448(5)
H142_8 H 0.9566 0.9151 0.0303
H143_8 H 0.9471 0.9328 0.0582
H144_8 H 0.9364 0.8822 0.0510
C130_8 C 0.9059(10) 0.9530(10) 0.0112(5)
H145_8 H 0.9330 0.9701 0.0146
H147_8 H 0.8821 0.9733 0.0059
C132_8 C 0.9240(5) 0.9019(6) 0.1491(4)
C133_8 C 0.8954(6) 0.9372(5) 0.1589(3)
C135_8 C 0.8355(7) 0.9513(6) 0.0699(4)
H151_8 H 0.8157 0.9291 0.0638
C136_8 C 0.9283(11) 0.9975(9) 0.2239(5)
H153_8 H 0.9148 0.9683 0.2268
H154_8 H 0.9561 0.9938 0.2145
N10_8 N 0.7426(4) 0.3875(3) 0.15491(19)
H36_8 H 0.7209 0.1571 0.9929
H49_8 H 0.7346 0.3097 0.9956
H63_8 H 0.5882 0.4315 0.9977
C69_8 C 0.8799(4) 0.2665(4) 0.9141(2)
H78_8 H 0.9033 0.2877 0.9144
C70_8 C 0.7274(6) 0.2483(5) 0.9059(3)
H79_8 H 0.6964 0.2493 0.9002
H80_8 H 0.7426 0.2231 0.8980
H81_8 H 0.7425 0.2761 0.9013
C71_8 C 0.6890(4) 0.2432(3) 0.9481(2)
C72_8 C 0.6459(4) 0.2468(4) 0.9350(2)
C73_8 C 0.8441(5) 0.2704(5) 0.9315(2)
H82_8 H 0.8438 0.2933 0.9438
C74_8 C 0.8086(5) 0.2391(4) 0.9299(3)
C75_8 C 0.6344(5) 0.2136(4) 0.9171(3)
H83_8 H 0.6523 0.1877 0.9153
C76_8 C 0.6912(5) 0.2400(4) 0.9748(2)
C77_8 C 0.6497(4) 0.2370(5) 0.9917(2)
H84_8 H 0.6395 0.2671 0.9959
H86_8 H 0.6261 0.2211 0.9827
C78_8 C 0.7285(4) 0.2429(2) 0.9339(2)
C79_8 C 0.7703(4) 0.2392(3) 0.9463(2)
C80_8 C 0.8152(5) 0.2320(5) 0.9863(3)
H87_8 H 0.8289 0.2031 0.9827
H89_8 H 0.8353 0.2559 0.9809
C81_8 C 0.8121(5) 0.2021(5) 0.9134(3)
H90_8 H 0.7895 0.1800 0.9134
C82_8 C 0.5805(4) 0.2909(5) 0.9226(3)
H91_8 H 0.5624 0.3166 0.9245
C83_8 C 0.8487(6) 0.1977(5) 0.8970(3)
H92_8 H 0.8515 0.1725 0.8864
C84_8 C 0.5958(6) 0.2196(5) 0.9022(2)
H93_8 H 0.5878 0.1976 0.8901
C85_8 C 0.7327(6) 0.2362(4) 0.9869(2)
C86_8 C 0.7730(5) 0.2357(4) 0.9727(3)
C87_8 C 0.6194(5) 0.2851(4) 0.9378(2)
H94_8 H 0.6274 0.3072 0.9497
H146_8 H 0.9118 0.9315 0.9977
C3_5 C 0.8540(5) 0.7772(6) 0.7655(3)
H2_5 H 0.8726 0.7988 0.7745
H3_5 H 0.8499 0.7871 0.7481
H4_5 H 0.8687 0.7481 0.7656
C4_5 C 0.8083(6) 0.7669(5) 0.8043(3)
C11_5 C 0.6749(4) 0.7918(4) 0.8339(2)
H10_5 H 0.6909 0.8187 0.8363
C12_5 C 0.6892(4) 0.7601(5) 0.8157(2)
C13_5 C 0.6847(5) 0.7743(5) 0.7638(3)
H11_5 H 0.6853 0.7594 0.7475
H12_5 H 0.6771 0.8058 0.7615
H13_5 H 0.6623 0.7602 0.7746
C14_5 C 0.8118(5) 0.7739(5) 0.7776(3)
C17_5 C 0.7309(5) 0.7641(4) 0.8016(3)
C21_5 C 0.6259(5) 0.7113(4) 0.8270(2)
H22_5 H 0.6094 0.6847 0.8246
C28_5 C 0.6645(5) 0.7198(5) 0.8123(2)
H24_5 H 0.6740 0.6985 0.8002
C30_5 C 0.8565(4) 0.8052(5) 0.8366(3)
H25_5 H 0.8347 0.8281 0.8372
C36_5 C 0.8944(6) 0.8067(6) 0.8527(3)
H41_5 H 0.8977 0.8309 0.8641
C38_5 C 0.7696(6) 0.7640(5) 0.8171(3)
C40_5 C 0.7716(6) 0.7542(6) 0.8444(3)
H45_5 H 0.7947 0.7319 0.8476
H46_5 H 0.7427 0.7427 0.8501
H47_5 H 0.7786 0.7815 0.8537
C42_5 C 0.7730(5) 0.7737(5) 0.7642(2)
C44_5 C 0.7315(5) 0.7706(4) 0.7766(3)
C47_5 C 0.6366(5) 0.7826(4) 0.8483(2)
H52_5 H 0.6267 0.8037 0.8603
C57_5 C 0.8517(5) 0.7690(7) 0.8196(3)
C63_5 C 0.8846(6) 0.7352(6) 0.8191(3)
H71_5 H 0.8813 0.7109 0.8078
C64_5 C 0.9222(5) 0.7370(5) 0.8351(3)
H72_5 H 0.9441 0.7143 0.8345
C88_5 C 0.7772(6) 0.8540(5) 0.7345(3)
H95_5 H 0.7988 0.8726 0.7255
H96_5 H 0.7871 0.8499 0.7519
H97_5 H 0.7481 0.8687 0.7344
C89_5 C 0.7669(5) 0.8083(6) 0.6957(3)
C90_5 C 0.7918(4) 0.6749(4) 0.6661(2)
H98_5 H 0.8187 0.6909 0.6637
C91_5 C 0.7601(5) 0.6892(4) 0.6843(2)
C92_5 C 0.7743(5) 0.6847(5) 0.7362(3)
H99_5 H 0.7594 0.6853 0.7525
H100_5 H 0.8058 0.6771 0.7385
H101_5 H 0.7602 0.6623 0.7254
C93_5 C 0.7739(5) 0.8118(5) 0.7224(3)
C94_5 C 0.7641(4) 0.7309(5) 0.6984(3)
C95_5 C 0.7113(4) 0.6259(5) 0.6730(2)
H102_5 H 0.6847 0.6094 0.6754
C96_5 C 0.7198(5) 0.6645(5) 0.6877(2)
H103_5 H 0.6985 0.6740 0.6998
C97_5 C 0.8052(5) 0.8565(4) 0.6634(3)
H104_5 H 0.8281 0.8347 0.6628
C98_5 C 0.8067(6) 0.8944(6) 0.6473(3)
H105_5 H 0.8309 0.8977 0.6359
C99_5 C 0.7640(5) 0.7696(6) 0.6829(3)
C100_5 C 0.7542(6) 0.7716(6) 0.6556(3)
H106_5 H 0.7319 0.7947 0.6524
H107_5 H 0.7427 0.7427 0.6499
H108_5 H 0.7815 0.7786 0.6463
C101_5 C 0.7737(5) 0.7730(5) 0.7358(2)
C102_5 C 0.7706(4) 0.7315(5) 0.7234(3)
C103_5 C 0.7826(4) 0.6366(5) 0.6517(2)
H109_5 H 0.8037 0.6267 0.6397
C104_5 C 0.7690(7) 0.8517(5) 0.6804(3)
C105_5 C 0.7352(6) 0.8846(6) 0.6809(3)
H110_5 H 0.7109 0.8813 0.6922
C106_5 C 0.7370(5) 0.9222(5) 0.6649(3)
H111_5 H 0.7143 0.9441 0.6655
C3_6 C 0.1460(5) 0.2228(6) 0.7655(3)
H2_6 H 0.1274 0.2012 0.7745
H3_6 H 0.1501 0.2129 0.7481
H4_6 H 0.1313 0.2519 0.7656
C4_6 C 0.1917(6) 0.2331(5) 0.8043(3)
C11_6 C 0.3251(4) 0.2082(4) 0.8339(2)
H10_6 H 0.3091 0.1813 0.8363
C12_6 C 0.3108(4) 0.2399(5) 0.8157(2)
C13_6 C 0.3153(5) 0.2257(5) 0.7638(3)
H11_6 H 0.3147 0.2406 0.7475
H12_6 H 0.3229 0.1942 0.7615
H13_6 H 0.3377 0.2398 0.7746
C14_6 C 0.1882(5) 0.2261(5) 0.7776(3)
C17_6 C 0.2691(5) 0.2359(4) 0.8016(3)
C21_6 C 0.3741(5) 0.2887(4) 0.8270(2)
H22_6 H 0.3906 0.3153 0.8246
C28_6 C 0.3355(5) 0.2802(5) 0.8123(2)
H24_6 H 0.3260 0.3015 0.8002
C30_6 C 0.1435(4) 0.1948(5) 0.8366(3)
H25_6 H 0.1653 0.1719 0.8372
C36_6 C 0.1056(6) 0.1933(6) 0.8527(3)
H41_6 H 0.1023 0.1691 0.8641
C38_6 C 0.2304(6) 0.2360(5) 0.8171(3)
C40_6 C 0.2284(6) 0.2458(6) 0.8444(3)
H45_6 H 0.2053 0.2681 0.8476
H46_6 H 0.2573 0.2573 0.8501
H47_6 H 0.2214 0.2185 0.8537
C42_6 C 0.2270(5) 0.2263(5) 0.7642(2)
C44_6 C 0.2685(5) 0.2294(4) 0.7766(3)
C47_6 C 0.3634(5) 0.2174(4) 0.8483(2)
H52_6 H 0.3733 0.1963 0.8603
C57_6 C 0.1483(5) 0.2310(7) 0.8196(3)
C63_6 C 0.1154(6) 0.2648(6) 0.8191(3)
H71_6 H 0.1187 0.2891 0.8078
C64_6 C 0.0778(5) 0.2630(5) 0.8351(3)
H72_6 H 0.0559 0.2857 0.8345
C88_6 C 0.2228(6) 0.1460(5) 0.7345(3)
H95_6 H 0.2012 0.1274 0.7255
H96_6 H 0.2129 0.1501 0.7519
H97_6 H 0.2519 0.1313 0.7344
C89_6 C 0.2331(5) 0.1917(6) 0.6957(3)
C90_6 C 0.2082(4) 0.3251(4) 0.6661(2)
H98_6 H 0.1813 0.3091 0.6637
C91_6 C 0.2399(5) 0.3108(4) 0.6843(2)
C92_6 C 0.2257(5) 0.3153(5) 0.7362(3)
H99_6 H 0.2406 0.3147 0.7525
H100_6 H 0.1942 0.3229 0.7385
H101_6 H 0.2398 0.3377 0.7254
C93_6 C 0.2261(5) 0.1882(5) 0.7224(3)
C94_6 C 0.2359(4) 0.2691(5) 0.6984(3)
C95_6 C 0.2887(4) 0.3741(5) 0.6730(2)
H102_6 H 0.3153 0.3906 0.6754
C96_6 C 0.2802(5) 0.3355(5) 0.6877(2)
H103_6 H 0.3015 0.3260 0.6998
C97_6 C 0.1948(5) 0.1435(4) 0.6634(3)
H104_6 H 0.1719 0.1653 0.6628
C98_6 C 0.1933(6) 0.1056(6) 0.6473(3)
H105_6 H 0.1691 0.1023 0.6359
C99_6 C 0.2360(5) 0.2304(6) 0.6829(3)
C100_6 C 0.2458(6) 0.2284(6) 0.6556(3)
H106_6 H 0.2681 0.2053 0.6524
H107_6 H 0.2573 0.2573 0.6499
H108_6 H 0.2185 0.2214 0.6463
C101_6 C 0.2263(5) 0.2270(5) 0.7358(2)
C102_6 C 0.2294(4) 0.2685(5) 0.7234(3)
C103_6 C 0.2174(4) 0.3634(5) 0.6517(2)
H109_6 H 0.1963 0.3733 0.6397
C104_6 C 0.2310(7) 0.1483(5) 0.6804(3)
C105_6 C 0.2648(6) 0.1154(6) 0.6809(3)
H110_6 H 0.2891 0.1187 0.6922
C106_6 C 0.2630(5) 0.0778(5) 0.6649(3)
H111_6 H 0.2857 0.0559 0.6655
C3_7 C 0.7772(6) 0.1460(5) 0.2345(3)
H2_7 H 0.7988 0.1274 0.2255
H3_7 H 0.7871 0.1501 0.2519
H4_7 H 0.7481 0.1313 0.2344
C4_7 C 0.7669(5) 0.1917(6) 0.1957(3)
C11_7 C 0.7918(4) 0.3251(4) 0.1661(2)
H10_7 H 0.8187 0.3091 0.1637
C12_7 C 0.7601(5) 0.3108(4) 0.1843(2)
C13_7 C 0.7743(5) 0.3153(5) 0.2362(3)
H11_7 H 0.7594 0.3147 0.2525
H12_7 H 0.8058 0.3229 0.2385
H13_7 H 0.7602 0.3377 0.2254
C14_7 C 0.7739(5) 0.1882(5) 0.2224(3)
C17_7 C 0.7641(4) 0.2691(5) 0.1984(3)
C21_7 C 0.7113(4) 0.3741(5) 0.1730(2)
H22_7 H 0.6847 0.3906 0.1754
C28_7 C 0.7198(5) 0.3355(5) 0.1877(2)
H24_7 H 0.6985 0.3260 0.1998
C30_7 C 0.8052(5) 0.1435(4) 0.1634(3)
H25_7 H 0.8281 0.1653 0.1628
C36_7 C 0.8067(6) 0.1056(6) 0.1473(3)
H41_7 H 0.8309 0.1023 0.1359
C38_7 C 0.7640(5) 0.2304(6) 0.1829(3)
C40_7 C 0.7542(6) 0.2284(6) 0.1556(3)
H45_7 H 0.7319 0.2053 0.1524
H46_7 H 0.7427 0.2573 0.1499
H47_7 H 0.7815 0.2214 0.1463
C42_7 C 0.7737(5) 0.2270(5) 0.2358(2)
C44_7 C 0.7706(4) 0.2685(5) 0.2234(3)
C47_7 C 0.7826(4) 0.3634(5) 0.1517(2)
H52_7 H 0.8037 0.3733 0.1397
C57_7 C 0.7690(7) 0.1483(5) 0.1804(3)
C63_7 C 0.7352(6) 0.1154(6) 0.1809(3)
H71_7 H 0.7109 0.1187 0.1922
C64_7 C 0.7370(5) 0.0778(5) 0.1649(3)
H72_7 H 0.7143 0.0559 0.1655
C88_7 C 0.8540(5) 0.2228(6) 0.2655(3)
H95_7 H 0.8726 0.2012 0.2745
H96_7 H 0.8499 0.2129 0.2481
H97_7 H 0.8687 0.2519 0.2656
C89_7 C 0.8083(6) 0.2331(5) 0.3043(3)
C90_7 C 0.6749(4) 0.2082(4) 0.3339(2)
H98_7 H 0.6909 0.1813 0.3363
C91_7 C 0.6892(4) 0.2399(5) 0.3157(2)
C92_7 C 0.6847(5) 0.2257(5) 0.2638(3)
H99_7 H 0.6853 0.2406 0.2475
H100_7 H 0.6771 0.1942 0.2615
H101_7 H 0.6623 0.2398 0.2746
C93_7 C 0.8118(5) 0.2261(5) 0.2776(3)
C94_7 C 0.7309(5) 0.2359(4) 0.3016(3)
C95_7 C 0.6259(5) 0.2887(4) 0.3270(2)
H102_7 H 0.6094 0.3153 0.3246
C96_7 C 0.6645(5) 0.2802(5) 0.3123(2)
H103_7 H 0.6740 0.3015 0.3002
C97_7 C 0.8565(4) 0.1948(5) 0.3366(3)
H104_7 H 0.8347 0.1719 0.3372
C98_7 C 0.8944(6) 0.1933(6) 0.3527(3)
H105_7 H 0.8977 0.1691 0.3641
C99_7 C 0.7696(6) 0.2360(5) 0.3171(3)
C100_7 C 0.7716(6) 0.2458(6) 0.3444(3)
H106_7 H 0.7947 0.2681 0.3476
H107_7 H 0.7427 0.2573 0.3501
H108_7 H 0.7786 0.2185 0.3537
C101_7 C 0.7730(5) 0.2263(5) 0.2642(2)
C102_7 C 0.7315(5) 0.2294(4) 0.2766(3)
C103_7 C 0.6366(5) 0.2174(4) 0.3483(2)
H109_7 H 0.6267 0.1963 0.3603
C104_7 C 0.8517(5) 0.2310(7) 0.3196(3)
C105_7 C 0.8846(6) 0.2648(6) 0.3191(3)
H110_7 H 0.8813 0.2891 0.3078
C106_7 C 0.9222(5) 0.2630(5) 0.3351(3)
H111_7 H 0.9441 0.2857 0.3345
C3_8 C 0.2228(6) 0.8540(5) 0.2345(3)
H2_8 H 0.2012 0.8726 0.2255
H3_8 H 0.2129 0.8499 0.2519
H4_8 H 0.2519 0.8687 0.2344
C4_8 C 0.2331(5) 0.8083(6) 0.1957(3)
C11_8 C 0.2082(4) 0.6749(4) 0.1661(2)
H10_8 H 0.1813 0.6909 0.1637
C12_8 C 0.2399(5) 0.6892(4) 0.1843(2)
C13_8 C 0.2257(5) 0.6847(5) 0.2362(3)
H11_8 H 0.2406 0.6853 0.2525
H12_8 H 0.1942 0.6771 0.2385
H13_8 H 0.2398 0.6623 0.2254
C14_8 C 0.2261(5) 0.8118(5) 0.2224(3)
C17_8 C 0.2359(4) 0.7309(5) 0.1984(3)
C21_8 C 0.2887(4) 0.6259(5) 0.1730(2)
H22_8 H 0.3153 0.6094 0.1754
C28_8 C 0.2802(5) 0.6645(5) 0.1877(2)
H24_8 H 0.3015 0.6740 0.1998
C30_8 C 0.1948(5) 0.8565(4) 0.1634(3)
H25_8 H 0.1719 0.8347 0.1628
C36_8 C 0.1933(6) 0.8944(6) 0.1473(3)
H41_8 H 0.1691 0.8977 0.1359
C38_8 C 0.2360(5) 0.7696(6) 0.1829(3)
C40_8 C 0.2458(6) 0.7716(6) 0.1556(3)
H45_8 H 0.2681 0.7947 0.1524
H46_8 H 0.2573 0.7427 0.1499
H47_8 H 0.2185 0.7786 0.1463
C42_8 C 0.2263(5) 0.7730(5) 0.2358(2)
C44_8 C 0.2294(4) 0.7315(5) 0.2234(3)
C47_8 C 0.2174(4) 0.6366(5) 0.1517(2)
H52_8 H 0.1963 0.6267 0.1397
C57_8 C 0.2310(7) 0.8517(5) 0.1804(3)
C63_8 C 0.2648(6) 0.8846(6) 0.1809(3)
H71_8 H 0.2891 0.8813 0.1922
C64_8 C 0.2630(5) 0.9222(5) 0.1649(3)
H72_8 H 0.2857 0.9441 0.1655
C88_8 C 0.1460(5) 0.7772(6) 0.2655(3)
H95_8 H 0.1274 0.7988 0.2745
H96_8 H 0.1501 0.7871 0.2481
H97_8 H 0.1313 0.7481 0.2656
C89_8 C 0.1917(6) 0.7669(5) 0.3043(3)
C90_8 C 0.3251(4) 0.7918(4) 0.3339(2)
H98_8 H 0.3091 0.8187 0.3363
C91_8 C 0.3108(4) 0.7601(5) 0.3157(2)
C92_8 C 0.3153(5) 0.7743(5) 0.2638(3)
H99_8 H 0.3147 0.7594 0.2475
H100_8 H 0.3229 0.8058 0.2615
H101_8 H 0.3377 0.7602 0.2746
C93_8 C 0.1882(5) 0.7739(5) 0.2776(3)
C94_8 C 0.2691(5) 0.7641(4) 0.3016(3)
C95_8 C 0.3741(5) 0.7113(4) 0.3270(2)
H102_8 H 0.3906 0.6847 0.3246
C96_8 C 0.3355(5) 0.7198(5) 0.3123(2)
H103_8 H 0.3260 0.6985 0.3002
C97_8 C 0.1435(4) 0.8052(5) 0.3366(3)
H104_8 H 0.1653 0.8281 0.3372
C98_8 C 0.1056(6) 0.8067(6) 0.3527(3)
H105_8 H 0.1023 0.8309 0.3641
C99_8 C 0.2304(6) 0.7640(5) 0.3171(3)
C100_8 C 0.2284(6) 0.7542(6) 0.3444(3)
H106_8 H 0.2053 0.7319 0.3476
H107_8 H 0.2573 0.7427 0.3501
H108_8 H 0.2214 0.7815 0.3537
C101_8 C 0.2270(5) 0.7737(5) 0.2642(2)
C102_8 C 0.2685(5) 0.7706(4) 0.2766(3)
C103_8 C 0.3634(5) 0.7826(4) 0.3483(2)
H109_8 H 0.3733 0.8037 0.3603
C104_8 C 0.1483(5) 0.7690(7) 0.3196(3)
C105_8 C 0.1154(6) 0.7352(6) 0.3191(3)
H110_8 H 0.1187 0.7109 0.3078
C106_8 C 0.0778(5) 0.7370(5) 0.3351(3)
H111_8 H 0.0559 0.7143 0.3345
loop_
_geom_bond_atom_site_label_1
_geom_bond_atom_site_label_2
_geom_bond_site_symmetry_1
_geom_bond_site_symmetry_2
Co1 O1 1_555 1_555
Co2 O1 1_555 1_555
O1 C27 1_555 1_555
O2 Co1 1_555 1_555
O3 Co2 1_555 1_555
O4 Co1 1_555 1_555
C1 H1 1_555 1_555
O5 Co1 1_555 1_555
C2 O4 1_555 1_555
C3 H2 1_555 1_555
H3 C3 1_555 1_555
H4 C3 1_555 1_555
C4 C14 1_555 1_555
C5 H5 1_555 1_555
H6 C5 1_555 1_555
H7 C5 1_555 1_555
C6 C8 1_555 1_555
C7 O2 1_555 1_555
C8 C18 1_555 1_555
C9 C7 1_555 1_555
H8 C9 1_555 1_555
C10 C1 1_555 1_555
H9 C10 1_555 1_555
C11 H10 1_555 1_555
C12 C11 1_555 1_555
C13 H11 1_555 1_555
H12 C13 1_555 1_555
H13 C13 1_555 1_555
C14 C3 1_555 1_555
C15 H14 1_555 1_555
H15 C15 1_555 1_555
H16 C15 1_555 1_555
C16 C10 1_555 1_555
C17 C12 1_555 1_555
C18 H17 1_555 1_555
C19 H18 1_555 1_555
C20 H19 1_555 1_555
H20 C20 1_555 1_555
H21 C20 1_555 1_555
C21 H22 1_555 1_555
C22 C6 1_555 1_555
C23 C33 1_555 1_555
C24 C25 1_555 1_555
C25 O3 1_555 1_555
C26 C24 1_555 1_555
H23 C26 1_555 1_555
C27 C25 1_555 1_555
C28 C12 1_555 1_555
H24 C28 1_555 1_555
C29 C50 1_555 1_555
C30 H25 1_555 1_555
O6 Co2 1_555 1_555
C31 H26 1_555 1_555
H27 C31 1_555 1_555
H28 C31 1_555 1_555
C32 H29 1_555 1_555
H30 C32 1_555 1_555
H31 C32 1_555 1_555
C33 H32 1_555 1_555
H33 C33 1_555 1_555
H34 C33 1_555 1_555
C34 C22 1_555 1_555
H35 C34 1_555 1_555
H36 C34 1_555 1_555
H37 C34 1_555 1_555
C35 H38 1_555 1_555
H39 C35 1_555 1_555
H40 C35 1_555 1_555
C36 C30 1_555 1_555
H41 C36 1_555 1_555
C37 C23 1_555 1_555
H42 C37 1_555 1_555
H43 C37 1_555 1_555
H44 C37 1_555 1_555
C38 C4 1_555 1_555
C39 C5 1_555 1_555
C40 C38 1_555 1_555
H45 C40 1_555 1_555
H46 C40 1_555 1_555
H47 C40 1_555 1_555
C41 C16 1_555 1_555
C42 C14 1_555 1_555
C43 H48 1_555 1_555
H49 C43 1_555 1_555
H50 C43 1_555 1_555
N1 Co2 1_555 1_555
C44 C13 1_555 1_555
N2 C21 1_555 1_555
C45 C16 1_555 1_555
H51 C45 1_555 1_555
C46 C9 1_555 1_555
C47 C11 1_555 1_555
H52 C47 1_555 1_555
C48 H53 1_555 1_555
H54 C48 1_555 1_555
H55 C48 1_555 1_555
C49 O5 1_555 1_555
C50 C26 1_555 1_555
C51 C29 1_555 1_555
H56 C51 1_555 1_555
H57 C51 1_555 1_555
H58 C51 1_555 1_555
C52 C29 1_555 1_555
H59 C52 1_555 1_555
H60 C52 1_555 1_555
H61 C52 1_555 1_555
C53 C29 1_555 1_555
H62 C53 1_555 1_555
H63 C53 1_555 1_555
H64 C53 1_555 1_555
C54 H65 1_555 1_555
N3 Co1 1_555 1_555
C55 C20 1_555 1_555
C56 C15 1_555 1_555
N4 C54 1_555 1_555
C57 C4 1_555 1_555
C58 C45 1_555 1_555
H66 C58 1_555 1_555
C59 C2 1_555 1_555
C60 C18 1_555 1_555
H67 C60 1_555 1_555
C61 C55 1_555 1_555
H68 C61 1_555 1_555
H69 C61 1_555 1_555
H70 C61 1_555 1_555
C62 C22 1_555 1_555
C63 C57 1_555 1_555
H71 C63 1_555 1_555
C64 N1 1_555 1_555
H72 C64 1_555 1_555
C65 C41 1_555 1_555
C66 C8 1_555 1_555
H73 C66 1_555 1_555
C67 C27 1_555 1_555
H74 C67 1_555 1_555
C68 C23 1_555 1_555
H75 C68 1_555 1_555
H76 C68 1_555 1_555
H77 C68 1_555 1_555
C69 H78 1_555 1_555
C70 H79 1_555 1_555
H80 C70 1_555 1_555
H81 C70 1_555 1_555
C71 C72 1_555 1_555
C72 C75 1_555 1_555
C73 C69 1_555 1_555
H82 C73 1_555 1_555
C74 C73 1_555 1_555
C75 H83 1_555 1_555
C76 C71 1_555 1_555
C77 C76 1_555 1_555
H84 C77 1_555 1_555
H85 C77 1_555 1_555
H86 C77 1_555 1_555
C78 C70 1_555 1_555
C79 C74 1_555 1_555
C80 H87 1_555 1_555
H88 C80 1_555 1_555
H89 C80 1_555 1_555
C81 C74 1_555 1_555
H90 C81 1_555 1_555
C82 H91 1_555 1_555
N5 C69 1_555 1_555
N6 C82 1_555 1_555
C83 C81 1_555 1_555
H92 C83 1_555 1_555
C84 C75 1_555 1_555
H93 C84 1_555 1_555
C85 C62 1_555 1_555
C86 C79 1_555 1_555
C87 C72 1_555 1_555
H94 C87 1_555 1_555
C88 H95 1_555 1_555
H96 C88 1_555 1_555
H97 C88 1_555 1_555
C89 C93 1_555 1_555
C90 H98 1_555 1_555
C91 C90 1_555 1_555
C92 H99 1_555 1_555
H100 C92 1_555 1_555
H101 C92 1_555 1_555
C93 C88 1_555 1_555
C94 C91 1_555 1_555
C95 H102 1_555 1_555
C96 C91 1_555 1_555
H103 C96 1_555 1_555
C97 H104 1_555 1_555
C98 C97 1_555 1_555
H105 C98 1_555 1_555
C99 C89 1_555 1_555
C100 C99 1_555 1_555
H106 C100 1_555 1_555
H107 C100 1_555 1_555
H108 C100 1_555 1_555
C101 C42 1_555 1_555
N7 C98 1_555 1_555
C102 C92 1_555 1_555
N8 C95 1_555 1_555
C103 C90 1_555 1_555
H109 C103 1_555 1_555
C104 C89 1_555 1_555
C105 C104 1_555 1_555
H110 C105 1_555 1_555
C106 N7 1_555 1_555
H111 C106 1_555 1_555
Co3 N2 1_555 1_555
O7 Co3 1_555 1_555
O8 Co3 1_555 1_555
O10 Co3 1_555 1_555
O11 Co3 1_555 1_555
C107 O10 1_555 1_555
C108 O8 1_555 1_555
C110 H113 1_555 1_555
H114 C110 1_555 1_555
H115 C110 1_555 1_555
C111 H116 1_555 1_555
H120 C116 1_555 1_555
C117 O7 1_555 1_555
C118 C127 1_555 1_555
C120 H124 1_555 1_555
H125 C120 1_555 1_555
H126 C120 1_555 1_555
C122 H130 1_555 1_555
H131 C122 1_555 1_555
H132 C122 1_555 1_555
C125 H136 1_555 1_555
H138 C125 1_555 1_555
C126 O11 1_555 1_555
C127 C116 1_555 1_555
C128 C118 1_555 1_555
H139 C128 1_555 1_555
H140 C128 1_555 1_555
H141 C128 1_555 1_555
C129 C118 1_555 1_555
H142 C129 1_555 1_555
H143 C129 1_555 1_555
H144 C129 1_555 1_555
C130 C118 1_555 1_555
H145 C130 1_555 1_555
H146 C130 1_555 1_555
H147 C130 1_555 1_555
C132 C110 1_555 1_555
C133 C107 1_555 1_555
C135 C117 1_555 1_555
H151 C135 1_555 1_555
H153 C136 1_555 1_555
H154 C136 1_555 1_555
Co5 N8 1_555 1_555
Co6 N5 1_555 1_555
Co7 N6 1_555 1_555
Co8 N7 1_555 1_555
Co9 N4 1_555 1_555
N10 Co1 1_555 1_555
N11 Co3 1_555 1_555
N13 Co2 1_555 1_555
Co2 O2 1_555 1_555
C1 N3 1_555 1_555
C2 C7 1_555 1_555
C6 C39 1_555 1_555
C17 C38 1_555 1_555
C17 C44 1_555 1_555
C19 C46 1_555 1_555
C19 C59 1_555 1_555
C21 C28 1_555 1_555
C23 C46 1_555 1_555
C24 C55 1_555 1_555
C30 C57 1_555 1_555
O6 C49 1_555 1_555
C31 C55 1_555 1_555
C32 C56 1_555 1_555
C35 C56 1_555 1_555
C36 N1 1_555 1_555
C39 C41 1_555 1_555
C42 C44 1_555 1_555
C43 C65 1_555 1_555
N2 C47 1_555 1_555
C48 C49 1_555 1_555
C50 C67 1_555 1_555
C54 C66 1_555 1_555
N3 C58 1_555 1_555
C56 C59 1_555 1_555
N4 C60 1_555 1_555
C62 C65 1_555 1_555
C63 C64 1_555 1_555
C71 C78 1_555 1_555
C76 C85 1_555 1_555
C78 C79 1_555 1_555
C80 C86 1_555 1_555
C82 C87 1_555 1_555
N5 C83 1_555 1_555
N6 C84 1_555 1_555
C85 C86 1_555 1_555
C93 C101 1_555 1_555
C94 C99 1_555 1_555
C94 C102 1_555 1_555
C95 C96 1_555 1_555
C97 C104 1_555 1_555
C101 C102 1_555 1_555
N8 C103 1_555 1_555
C105 C106 1_555 1_555
C107 C108 1_555 1_555
C111 C124 1_555 1_555
C111 C133 1_555 1_555
C120 C132 1_555 1_555
C122 C132 1_555 1_555
C125 C126 1_555 1_555
C127 C135 1_555 1_555
C132 C133 1_555 1_555
O9 Co9 1_555 1_555
H112 C109 1_555 1_555
C112 H117 1_555 1_555
H118 C112 1_555 1_555
H119 C112 1_555 1_555
C113 C121 1_555 1_555
C114 C115 1_555 1_555
C115 O9 1_555 1_555
O12 Co9 1_555 1_555
C119 H121 1_555 1_555
H122 C119 1_555 1_555
H123 C119 1_555 1_555
C121 H127 1_555 1_555
H128 C121 1_555 1_555
H129 C121 1_555 1_555
C123 C113 1_555 1_555
H133 C123 1_555 1_555
H134 C123 1_555 1_555
H135 C123 1_555 1_555
C131 C112 1_555 1_555
C134 C131 1_555 1_555
H148 C134 1_555 1_555
H149 C134 1_555 1_555
H150 C134 1_555 1_555
N9 Co9 1_555 1_555
C114 C131 1_555 1_555
C119 C131 1_555 1_555
O9_2 Co4 1_555 1_555
H112_2 C109_2 1_555 1_555
C112_2 H117_2 1_555 1_555
H118_2 C112_2 1_555 1_555
H119_2 C112_2 1_555 1_555
C113_2 C121_2 1_555 1_555
C114_2 C115_2 1_555 1_555
C115_2 O9_2 1_555 1_555
O12_2 Co4 1_555 1_555
C119_2 H121_2 1_555 1_555
H122_2 C119_2 1_555 1_555
H123_2 C119_2 1_555 1_555
C121_2 H127_2 1_555 1_555
H128_2 C121_2 1_555 1_555
H129_2 C121_2 1_555 1_555
C123_2 C113_2 1_555 1_555
H133_2 C123_2 1_555 1_555
H134_2 C123_2 1_555 1_555
H135_2 C123_2 1_555 1_555
C131_2 C112_2 1_555 1_555
C134_2 C131_2 1_555 1_555
H148_2 C134_2 1_555 1_555
H149_2 C134_2 1_555 1_555
H150_2 C134_2 1_555 1_555
N9_2 Co4 1_555 1_555
N12 Co4 1_555 1_555
C114_2 C131_2 1_555 1_555
C119_2 C131_2 1_555 1_555
Co1_2 O1_2 1_555 1_555
Co2_2 O1_2 1_555 1_555
O1_2 C27_2 1_555 1_555
O2_2 Co1_2 1_555 1_555
O3_2 Co2_2 1_555 1_555
O4_2 Co1_2 1_555 1_555
C1_2 H1_2 1_555 1_555
O5_2 Co1_2 1_555 1_555
C2_2 O4_2 1_555 1_555
C3_2 H2_2 1_555 1_555
H3_2 C3_2 1_555 1_555
H4_2 C3_2 1_555 1_555
C4_2 C14_2 1_555 1_555
C5_2 H5_2 1_555 1_555
H6_2 C5_2 1_555 1_555
H7_2 C5_2 1_555 1_555
C6_2 C8_2 1_555 1_555
C7_2 O2_2 1_555 1_555
C8_2 C18_2 1_555 1_555
C9_2 C7_2 1_555 1_555
H8_2 C9_2 1_555 1_555
C10_2 C1_2 1_555 1_555
H9_2 C10_2 1_555 1_555
C11_2 H10_2 1_555 1_555
C12_2 C11_2 1_555 1_555
C13_2 H11_2 1_555 1_555
H12_2 C13_2 1_555 1_555
H13_2 C13_2 1_555 1_555
C14_2 C3_2 1_555 1_555
C15_2 H14_2 1_555 1_555
H15_2 C15_2 1_555 1_555
H16_2 C15_2 1_555 1_555
C16_2 C10_2 1_555 1_555
C17_2 C12_2 1_555 1_555
C18_2 H17_2 1_555 1_555
C19_2 H18_2 1_555 1_555
C20_2 H19_2 1_555 1_555
H20_2 C20_2 1_555 1_555
H21_2 C20_2 1_555 1_555
C21_2 H22_2 1_555 1_555
C22_2 C6_2 1_555 1_555
C23_2 C33_2 1_555 1_555
C24_2 C25_2 1_555 1_555
C25_2 O3_2 1_555 1_555
C26_2 C24_2 1_555 1_555
H23_2 C26_2 1_555 1_555
C27_2 C25_2 1_555 1_555
C28_2 C12_2 1_555 1_555
H24_2 C28_2 1_555 1_555
C29_2 C50_2 1_555 1_555
C30_2 H25_2 1_555 1_555
O6_2 Co2_2 1_555 1_555
C31_2 H26_2 1_555 1_555
H27_2 C31_2 1_555 1_555
H28_2 C31_2 1_555 1_555
C32_2 H29_2 1_555 1_555
H30_2 C32_2 1_555 1_555
H31_2 C32_2 1_555 1_555
C33_2 H32_2 1_555 1_555
H33_2 C33_2 1_555 1_555
H34_2 C33_2 1_555 1_555
C34_2 C22_2 1_555 1_555
H35_2 C34_2 1_555 1_555
H36_2 C34_2 1_555 1_555
H37_2 C34_2 1_555 1_555
C35_2 H38_2 1_555 1_555
H39_2 C35_2 1_555 1_555
H40_2 C35_2 1_555 1_555
C36_2 C30_2 1_555 1_555
H41_2 C36_2 1_555 1_555
C37_2 C23_2 1_555 1_555
H42_2 C37_2 1_555 1_555
H43_2 C37_2 1_555 1_555
H44_2 C37_2 1_555 1_555
C38_2 C4_2 1_555 1_555
C39_2 C5_2 1_555 1_555
C40_2 C38_2 1_555 1_555
H45_2 C40_2 1_555 1_555
H46_2 C40_2 1_555 1_555
H47_2 C40_2 1_555 1_555
C41_2 C16_2 1_555 1_555
C42_2 C14_2 1_555 1_555
C43_2 H48_2 1_555 1_555
H49_2 C43_2 1_555 1_555
H50_2 C43_2 1_555 1_555
N1_2 Co2_2 1_555 1_555
C44_2 C13_2 1_555 1_555
N2_2 C21_2 1_555 1_555
C45_2 C16_2 1_555 1_555
H51_2 C45_2 1_555 1_555
C46_2 C9_2 1_555 1_555
C47_2 C11_2 1_555 1_555
H52_2 C47_2 1_555 1_555
C48_2 H53_2 1_555 1_555
H54_2 C48_2 1_555 1_555
H55_2 C48_2 1_555 1_555
C49_2 O5_2 1_555 1_555
C50_2 C26_2 1_555 1_555
C51_2 C29_2 1_555 1_555
H56_2 C51_2 1_555 1_555
H57_2 C51_2 1_555 1_555
H58_2 C51_2 1_555 1_555
C52_2 C29_2 1_555 1_555
H59_2 C52_2 1_555 1_555
H60_2 C52_2 1_555 1_555
H61_2 C52_2 1_555 1_555
C53_2 C29_2 1_555 1_555
H62_2 C53_2 1_555 1_555
H63_2 C53_2 1_555 1_555
H64_2 C53_2 1_555 1_555
C54_2 H65_2 1_555 1_555
N3_2 Co1_2 1_555 1_555
C55_2 C20_2 1_555 1_555
C56_2 C15_2 1_555 1_555
N12 C54_2 1_555 1_555
C57_2 C4_2 1_555 1_555
C58_2 C45_2 1_555 1_555
H66_2 C58_2 1_555 1_555
C59_2 C2_2 1_555 1_555
C60_2 C18_2 1_555 1_555
H67_2 C60_2 1_555 1_555
C61_2 C55_2 1_555 1_555
H68_2 C61_2 1_555 1_555
H69_2 C61_2 1_555 1_555
H70_2 C61_2 1_555 1_555
C62_2 C22_2 1_555 1_555
C63_2 C57_2 1_555 1_555
H71_2 C63_2 1_555 1_555
C64_2 N1_2 1_555 1_555
H72_2 C64_2 1_555 1_555
C65_2 C41_2 1_555 1_555
C66_2 C8_2 1_555 1_555
H73_2 C66_2 1_555 1_555
C67_2 C27_2 1_555 1_555
H74_2 C67_2 1_555 1_555
C68_2 C23_2 1_555 1_555
H75_2 C68_2 1_555 1_555
H76_2 C68_2 1_555 1_555
H77_2 C68_2 1_555 1_555
C69_2 H78_2 1_555 1_555
C70_2 H79_2 1_555 1_555
H80_2 C70_2 1_555 1_555
H81_2 C70_2 1_555 1_555
C71_2 C72_2 1_555 1_555
C72_2 C75_2 1_555 1_555
C73_2 C69_2 1_555 1_555
H82_2 C73_2 1_555 1_555
C74_2 C73_2 1_555 1_555
C75_2 H83_2 1_555 1_555
C76_2 C71_2 1_555 1_555
C77_2 C76_2 1_555 1_555
H84_2 C77_2 1_555 1_555
H85_2 C77_2 1_555 1_555
H86_2 C77_2 1_555 1_555
C78_2 C70_2 1_555 1_555
C79_2 C74_2 1_555 1_555
C80_2 H87_2 1_555 1_555
H88_2 C80_2 1_555 1_555
H89_2 C80_2 1_555 1_555
C81_2 C74_2 1_555 1_555
H90_2 C81_2 1_555 1_555
C82_2 H91_2 1_555 1_555
N5_2 C69_2 1_555 1_555
N6_2 C82_2 1_555 1_555
C83_2 C81_2 1_555 1_555
H92_2 C83_2 1_555 1_555
C84_2 C75_2 1_555 1_555
H93_2 C84_2 1_555 1_555
C85_2 C62_2 1_555 1_555
C86_2 C79_2 1_555 1_555
C87_2 C72_2 1_555 1_555
H94_2 C87_2 1_555 1_555
C88_2 H95_2 1_555 1_555
H96_2 C88_2 1_555 1_555
H97_2 C88_2 1_555 1_555
C89_2 C93_2 1_555 1_555
C90_2 H98_2 1_555 1_555
C91_2 C90_2 1_555 1_555
C92_2 H99_2 1_555 1_555
H100_2 C92_2 1_555 1_555
H101_2 C92_2 1_555 1_555
C93_2 C88_2 1_555 1_555
C94_2 C91_2 1_555 1_555
C95_2 H102_2 1_555 1_555
C96_2 C91_2 1_555 1_555
H103_2 C96_2 1_555 1_555
C97_2 H104_2 1_555 1_555
C98_2 C97_2 1_555 1_555
H105_2 C98_2 1_555 1_555
C99_2 C89_2 1_555 1_555
C100_2 C99_2 1_555 1_555
H106_2 C100_2 1_555 1_555
H107_2 C100_2 1_555 1_555
H108_2 C100_2 1_555 1_555
C101_2 C42_2 1_555 1_555
N7_2 C98_2 1_555 1_555
C102_2 C92_2 1_555 1_555
N8_2 C95_2 1_555 1_555
C103_2 C90_2 1_555 1_555
H109_2 C103_2 1_555 1_555
C104_2 C89_2 1_555 1_555
C105_2 C104_2 1_555 1_555
H110_2 C105_2 1_555 1_555
C106_2 N7_2 1_555 1_555
H111_2 C106_2 1_555 1_555
Co3_2 N2_2 1_555 1_555
O7_2 Co3_2 1_555 1_555
O8_2 Co3_2 1_555 1_555
O10_2 Co3_2 1_555 1_555
O11_2 Co3_2 1_555 1_555
C107_2 O10_2 1_555 1_555
C108_2 O8_2 1_555 1_555
C110_2 H113_2 1_555 1_555
H114_2 C110_2 1_555 1_555
H115_2 C110_2 1_555 1_555
C111_2 H116_2 1_555 1_555
H120_2 C116_2 1_555 1_555
C117_2 O7_2 1_555 1_555
C118_2 C127_2 1_555 1_555
C120_2 H124_2 1_555 1_555
H125_2 C120_2 1_555 1_555
H126_2 C120_2 1_555 1_555
C122_2 H130_2 1_555 1_555
H131_2 C122_2 1_555 1_555
H132_2 C122_2 1_555 1_555
C125_2 H136_2 1_555 1_555
H138_2 C125_2 1_555 1_555
C126_2 O11_2 1_555 1_555
C127_2 C116_2 1_555 1_555
C128_2 C118_2 1_555 1_555
H139_2 C128_2 1_555 1_555
H140_2 C128_2 1_555 1_555
H141_2 C128_2 1_555 1_555
C129_2 C118_2 1_555 1_555
H142_2 C129_2 1_555 1_555
H143_2 C129_2 1_555 1_555
H144_2 C129_2 1_555 1_555
C130_2 C118_2 1_555 1_555
H145_2 C130_2 1_555 1_555
H146_2 C130_2 1_555 1_555
H147_2 C130_2 1_555 1_555
C132_2 C110_2 1_555 1_555
C133_2 C107_2 1_555 1_555
C135_2 C117_2 1_555 1_555
H151_2 C135_2 1_555 1_555
H153_2 C136_2 1_555 1_555
H154_2 C136_2 1_555 1_555
Co5_2 N8_2 1_555 1_555
Co6_2 N5_2 1_555 1_555
Co7_2 N6_2 1_555 1_555
Co8_2 N7_2 1_555 1_555
N10_2 Co1_2 1_555 1_555
N11_2 Co3_2 1_555 1_555
N13_2 Co2_2 1_555 1_555
Co2_2 O2_2 1_555 1_555
C1_2 N3_2 1_555 1_555
C2_2 C7_2 1_555 1_555
C6_2 C39_2 1_555 1_555
C17_2 C38_2 1_555 1_555
C17_2 C44_2 1_555 1_555
C19_2 C46_2 1_555 1_555
C19_2 C59_2 1_555 1_555
C21_2 C28_2 1_555 1_555
C23_2 C46_2 1_555 1_555
C24_2 C55_2 1_555 1_555
C30_2 C57_2 1_555 1_555
O6_2 C49_2 1_555 1_555
C31_2 C55_2 1_555 1_555
C32_2 C56_2 1_555 1_555
C35_2 C56_2 1_555 1_555
C36_2 N1_2 1_555 1_555
C39_2 C41_2 1_555 1_555
C42_2 C44_2 1_555 1_555
C43_2 C65_2 1_555 1_555
N2_2 C47_2 1_555 1_555
C48_2 C49_2 1_555 1_555
C50_2 C67_2 1_555 1_555
C54_2 C66_2 1_555 1_555
N3_2 C58_2 1_555 1_555
C56_2 C59_2 1_555 1_555
N12 C60_2 1_555 1_555
C62_2 C65_2 1_555 1_555
C63_2 C64_2 1_555 1_555
C71_2 C78_2 1_555 1_555
C76_2 C85_2 1_555 1_555
C78_2 C79_2 1_555 1_555
C80_2 C86_2 1_555 1_555
C82_2 C87_2 1_555 1_555
N5_2 C83_2 1_555 1_555
N6_2 C84_2 1_555 1_555
C85_2 C86_2 1_555 1_555
C93_2 C101_2 1_555 1_555
C94_2 C99_2 1_555 1_555
C94_2 C102_2 1_555 1_555
C95_2 C96_2 1_555 1_555
C97_2 C104_2 1_555 1_555
C101_2 C102_2 1_555 1_555
N8_2 C103_2 1_555 1_555
C105_2 C106_2 1_555 1_555
C107_2 C108_2 1_555 1_555
C111_2 C124_2 1_555 1_555
C111_2 C133_2 1_555 1_555
C120_2 C132_2 1_555 1_555
C122_2 C132_2 1_555 1_555
C125_2 C126_2 1_555 1_555
C127_2 C135_2 1_555 1_555
C132_2 C133_2 1_555 1_555
O9_3 Co4_2 1_555 1_555
H112_3 C109_3 1_555 1_555
C112_3 H117_3 1_555 1_555
H118_3 C112_3 1_555 1_555
H119_3 C112_3 1_555 1_555
C113_3 C121_3 1_555 1_555
C114_3 C115_3 1_555 1_555
C115_3 O9_3 1_555 1_555
O12_3 Co4_2 1_555 1_555
C119_3 H121_3 1_555 1_555
H122_3 C119_3 1_555 1_555
H123_3 C119_3 1_555 1_555
C121_3 H127_3 1_555 1_555
H128_3 C121_3 1_555 1_555
H129_3 C121_3 1_555 1_555
C123_3 C113_3 1_555 1_555
H133_3 C123_3 1_555 1_555
H134_3 C123_3 1_555 1_555
H135_3 C123_3 1_555 1_555
C131_3 C112_3 1_555 1_555
C134_3 C131_3 1_555 1_555
H148_3 C134_3 1_555 1_555
H149_3 C134_3 1_555 1_555
H150_3 C134_3 1_555 1_555
N9_3 Co4_2 1_555 1_555
N12_2 Co4_2 1_555 1_555
C114_3 C131_3 1_555 1_555
C119_3 C131_3 1_555 1_555
Co1_3 O1_3 1_555 1_555
Co7_2 O1_3 1_555 1_555
O1_3 C27_3 1_555 1_555
O2_3 Co1_3 1_555 1_555
O3_3 Co7_2 1_555 1_555
O4_3 Co1_3 1_555 1_555
C1_3 H1_3 1_555 1_555
O5_3 Co1_3 1_555 1_555
C2_3 O4_3 1_555 1_555
C3_3 H2_3 1_555 1_555
H3_3 C3_3 1_555 1_555
H4_3 C3_3 1_555 1_555
C4_3 C14_3 1_555 1_555
C5_3 H5_3 1_555 1_555
H6_3 C5_3 1_555 1_555
H7_3 C5_3 1_555 1_555
C6_3 C8_3 1_555 1_555
C7_3 O2_3 1_555 1_555
C8_3 C18_3 1_555 1_555
C9_3 C7_3 1_555 1_555
H8_3 C9_3 1_555 1_555
C10_3 C1_3 1_555 1_555
H9_3 C10_3 1_555 1_555
C11_3 H10_3 1_555 1_555
C12_3 C11_3 1_555 1_555
C13_3 H11_3 1_555 1_555
H12_3 C13_3 1_555 1_555
H13_3 C13_3 1_555 1_555
C14_3 C3_3 1_555 1_555
C15_3 H14_3 1_555 1_555
H15_3 C15_3 1_555 1_555
H16_3 C15_3 1_555 1_555
C16_3 C10_3 1_555 1_555
C17_3 C12_3 1_555 1_555
C18_3 H17_3 1_555 1_555
C19_3 H18_3 1_555 1_555
C20_3 H19_3 1_555 1_555
H20_3 C20_3 1_555 1_555
H21_3 C20_3 1_555 1_555
C21_3 H22_3 1_555 1_555
C22_3 C6_3 1_555 1_555
C23_3 C33_3 1_555 1_555
C24_3 C25_3 1_555 1_555
C25_3 O3_3 1_555 1_555
C26_3 C24_3 1_555 1_555
H23_3 C26_3 1_555 1_555
C27_3 C25_3 1_555 1_555
C28_3 C12_3 1_555 1_555
H24_3 C28_3 1_555 1_555
C29_3 C50_3 1_555 1_555
C30_3 H25_3 1_555 1_555
O6_3 Co7_2 1_555 1_555
C31_3 H26_3 1_555 1_555
H27_3 C31_3 1_555 1_555
H28_3 C31_3 1_555 1_555
C32_3 H29_3 1_555 1_555
H30_3 C32_3 1_555 1_555
H31_3 C32_3 1_555 1_555
C33_3 H32_3 1_555 1_555
H33_3 C33_3 1_555 1_555
H34_3 C33_3 1_555 1_555
C34_3 C22_3 1_555 1_555
H35_3 C34_3 1_555 1_555
H36_3 C34_3 1_555 1_555
H37_3 C34_3 1_555 1_555
C35_3 H38_3 1_555 1_555
H39_3 C35_3 1_555 1_555
H40_3 C35_3 1_555 1_555
C36_3 C30_3 1_555 1_555
H41_3 C36_3 1_555 1_555
C37_3 C23_3 1_555 1_555
H42_3 C37_3 1_555 1_555
H43_3 C37_3 1_555 1_555
H44_3 C37_3 1_555 1_555
C38_3 C4_3 1_555 1_555
C39_3 C5_3 1_555 1_555
C40_3 C38_3 1_555 1_555
H45_3 C40_3 1_555 1_555
H46_3 C40_3 1_555 1_555
H47_3 C40_3 1_555 1_555
C41_3 C16_3 1_555 1_555
C42_3 C14_3 1_555 1_555
C43_3 H48_3 1_555 1_555
H49_3 C43_3 1_555 1_555
H50_3 C43_3 1_555 1_555
N1_3 Co7_2 1_555 1_555
C44_3 C13_3 1_555 1_555
N2_3 C21_3 1_555 1_555
C45_3 C16_3 1_555 1_555
H51_3 C45_3 1_555 1_555
C46_3 C9_3 1_555 1_555
C47_3 C11_3 1_555 1_555
H52_3 C47_3 1_555 1_555
C48_3 H53_3 1_555 1_555
H54_3 C48_3 1_555 1_555
H55_3 C48_3 1_555 1_555
C49_3 O5_3 1_555 1_555
C50_3 C26_3 1_555 1_555
C51_3 C29_3 1_555 1_555
H56_3 C51_3 1_555 1_555
H57_3 C51_3 1_555 1_555
H58_3 C51_3 1_555 1_555
C52_3 C29_3 1_555 1_555
H59_3 C52_3 1_555 1_555
H60_3 C52_3 1_555 1_555
H61_3 C52_3 1_555 1_555
C53_3 C29_3 1_555 1_555
H62_3 C53_3 1_555 1_555
H63_3 C53_3 1_555 1_555
H64_3 C53_3 1_555 1_555
C54_3 H65_3 1_555 1_555
N3_3 Co1_3 1_555 1_555
C55_3 C20_3 1_555 1_555
C56_3 C15_3 1_555 1_555
N12_2 C54_3 1_555 1_555
C57_3 C4_3 1_555 1_555
C58_3 C45_3 1_555 1_555
H66_3 C58_3 1_555 1_555
C59_3 C2_3 1_555 1_555
C60_3 C18_3 1_555 1_555
H67_3 C60_3 1_555 1_555
C61_3 C55_3 1_555 1_555
H68_3 C61_3 1_555 1_555
H69_3 C61_3 1_555 1_555
H70_3 C61_3 1_555 1_555
C62_3 C22_3 1_555 1_555
C63_3 C57_3 1_555 1_555
H71_3 C63_3 1_555 1_555
C64_3 N1_3 1_555 1_555
H72_3 C64_3 1_555 1_555
C65_3 C41_3 1_555 1_555
C66_3 C8_3 1_555 1_555
H73_3 C66_3 1_555 1_555
C67_3 C27_3 1_555 1_555
H74_3 C67_3 1_555 1_555
C68_3 C23_3 1_555 1_555
H75_3 C68_3 1_555 1_555
H76_3 C68_3 1_555 1_555
H77_3 C68_3 1_555 1_555
C69_3 H78_3 1_555 1_555
C70_3 H79_3 1_555 1_555
H80_3 C70_3 1_555 1_555
H81_3 C70_3 1_555 1_555
C71_3 C72_3 1_555 1_555
C72_3 C75_3 1_555 1_555
C73_3 C69_3 1_555 1_555
H82_3 C73_3 1_555 1_555
C74_3 C73_3 1_555 1_555
C75_3 H83_3 1_555 1_555
C76_3 C71_3 1_555 1_555
C77_3 C76_3 1_555 1_555
H84_3 C77_3 1_555 1_555
H85_3 C77_3 1_555 1_555
H86_3 C77_3 1_555 1_555
C78_3 C70_3 1_555 1_555
C79_3 C74_3 1_555 1_555
C80_3 H87_3 1_555 1_555
H88_3 C80_3 1_555 1_555
H89_3 C80_3 1_555 1_555
C81_3 C74_3 1_555 1_555
H90_3 C81_3 1_555 1_555
C82_3 H91_3 1_555 1_555
N11 C69_3 1_555 1_555
N13 C82_3 1_555 1_555
C83_3 C81_3 1_555 1_555
H92_3 C83_3 1_555 1_555
C84_3 C75_3 1_555 1_555
H93_3 C84_3 1_555 1_555
C85_3 C62_3 1_555 1_555
C86_3 C79_3 1_555 1_555
C87_3 C72_3 1_555 1_555
H94_3 C87_3 1_555 1_555
C88_3 H95_3 1_555 1_555
H96_3 C88_3 1_555 1_555
H97_3 C88_3 1_555 1_555
C89_3 C93_3 1_555 1_555
C90_3 H98_3 1_555 1_555
C91_3 C90_3 1_555 1_555
C92_3 H99_3 1_555 1_555
H100_3 C92_3 1_555 1_555
H101_3 C92_3 1_555 1_555
C93_3 C88_3 1_555 1_555
C94_3 C91_3 1_555 1_555
C95_3 H102_3 1_555 1_555
C96_3 C91_3 1_555 1_555
H103_3 C96_3 1_555 1_555
C97_3 H104_3 1_555 1_555
C98_3 C97_3 1_555 1_555
H105_3 C98_3 1_555 1_555
C99_3 C89_3 1_555 1_555
C100_3 C99_3 1_555 1_555
H106_3 C100_3 1_555 1_555
H107_3 C100_3 1_555 1_555
H108_3 C100_3 1_555 1_555
C101_3 C42_3 1_555 1_555
N7_3 C98_3 1_555 1_555
C102_3 C92_3 1_555 1_555
N8_3 C95_3 1_555 1_555
C103_3 C90_3 1_555 1_555
H109_3 C103_3 1_555 1_555
C104_3 C89_3 1_555 1_555
C105_3 C104_3 1_555 1_555
H110_3 C105_3 1_555 1_555
C106_3 N7_3 1_555 1_555
H111_3 C106_3 1_555 1_555
Co6_2 N2_3 1_555 1_555
O7_3 Co6_2 1_555 1_555
O8_3 Co6_2 1_555 1_555
O10_3 Co6_2 1_555 1_555
O11_3 Co6_2 1_555 1_555
C107_3 O10_3 1_555 1_555
C108_3 O8_3 1_555 1_555
C110_3 H113_3 1_555 1_555
H114_3 C110_3 1_555 1_555
H115_3 C110_3 1_555 1_555
C111_3 H116_3 1_555 1_555
H120_3 C116_3 1_555 1_555
C117_3 O7_3 1_555 1_555
C118_3 C127_3 1_555 1_555
C120_3 H124_3 1_555 1_555
H125_3 C120_3 1_555 1_555
H126_3 C120_3 1_555 1_555
C122_3 H130_3 1_555 1_555
H131_3 C122_3 1_555 1_555
H132_3 C122_3 1_555 1_555
C125_3 H136_3 1_555 1_555
H138_3 C125_3 1_555 1_555
C126_3 O11_3 1_555 1_555
C127_3 C116_3 1_555 1_555
C128_3 C118_3 1_555 1_555
H139_3 C128_3 1_555 1_555
H140_3 C128_3 1_555 1_555
H141_3 C128_3 1_555 1_555
C129_3 C118_3 1_555 1_555
H142_3 C129_3 1_555 1_555
H143_3 C129_3 1_555 1_555
H144_3 C129_3 1_555 1_555
C130_3 C118_3 1_555 1_555
H145_3 C130_3 1_555 1_555
H146_3 C130_3 1_555 1_555
H147_3 C130_3 1_555 1_555
C132_3 C110_3 1_555 1_555
C133_3 C107_3 1_555 1_555
C135_3 C117_3 1_555 1_555
H151_3 C135_3 1_555 1_555
H153_3 C136_3 1_555 1_555
H154_3 C136_3 1_555 1_555
Co5_3 N8_3 1_555 1_555
Co8_3 N7_3 1_555 1_555
N10_3 Co1_3 1_555 1_555
Co7_2 O2_3 1_555 1_555
C1_3 N3_3 1_555 1_555
C2_3 C7_3 1_555 1_555
C6_3 C39_3 1_555 1_555
C17_3 C38_3 1_555 1_555
C17_3 C44_3 1_555 1_555
C19_3 C46_3 1_555 1_555
C19_3 C59_3 1_555 1_555
C21_3 C28_3 1_555 1_555
C23_3 C46_3 1_555 1_555
C24_3 C55_3 1_555 1_555
C30_3 C57_3 1_555 1_555
O6_3 C49_3 1_555 1_555
C31_3 C55_3 1_555 1_555
C32_3 C56_3 1_555 1_555
C35_3 C56_3 1_555 1_555
C36_3 N1_3 1_555 1_555
C39_3 C41_3 1_555 1_555
C42_3 C44_3 1_555 1_555
C43_3 C65_3 1_555 1_555
N2_3 C47_3 1_555 1_555
C48_3 C49_3 1_555 1_555
C50_3 C67_3 1_555 1_555
C54_3 C66_3 1_555 1_555
N3_3 C58_3 1_555 1_555
C56_3 C59_3 1_555 1_555
N12_2 C60_3 1_555 1_555
C62_3 C65_3 1_555 1_555
C63_3 C64_3 1_555 1_555
C71_3 C78_3 1_555 1_555
C76_3 C85_3 1_555 1_555
C78_3 C79_3 1_555 1_555
C80_3 C86_3 1_555 1_555
C82_3 C87_3 1_555 1_555
N11 C83_3 1_555 1_555
N13 C84_3 1_555 1_555
C85_3 C86_3 1_555 1_555
C93_3 C101_3 1_555 1_555
C94_3 C99_3 1_555 1_555
C94_3 C102_3 1_555 1_555
C95_3 C96_3 1_555 1_555
C97_3 C104_3 1_555 1_555
C101_3 C102_3 1_555 1_555
N8_3 C103_3 1_555 1_555
C105_3 C106_3 1_555 1_555
C107_3 C108_3 1_555 1_555
C111_3 C124_3 1_555 1_555
C111_3 C133_3 1_555 1_555
C120_3 C132_3 1_555 1_555
C122_3 C132_3 1_555 1_555
C125_3 C126_3 1_555 1_555
C127_3 C135_3 1_555 1_555
C132_3 C133_3 1_555 1_555
Co1_4 O1_4 1_555 1_555
Co7 O1_4 1_555 1_555
O1_4 C27_4 1_555 1_555
O2_4 Co1_4 1_555 1_555
O3_4 Co7 1_555 1_555
O4_4 Co1_4 1_555 1_555
C1_4 H1_4 1_555 1_555
O5_4 Co1_4 1_555 1_555
C2_4 O4_4 1_555 1_555
C3_4 H2_4 1_555 1_555
H3_4 C3_4 1_555 1_555
H4_4 C3_4 1_555 1_555
C4_4 C14_4 1_555 1_555
C5_4 H5_4 1_555 1_555
H6_4 C5_4 1_555 1_555
H7_4 C5_4 1_555 1_555
C6_4 C8_4 1_555 1_555
C7_4 O2_4 1_555 1_555
C8_4 C18_4 1_555 1_555
C9_4 C7_4 1_555 1_555
H8_4 C9_4 1_555 1_555
C10_4 C1_4 1_555 1_555
H9_4 C10_4 1_555 1_555
C11_4 H10_4 1_555 1_555
C12_4 C11_4 1_555 1_555
C13_4 H11_4 1_555 1_555
H12_4 C13_4 1_555 1_555
H13_4 C13_4 1_555 1_555
C14_4 C3_4 1_555 1_555
C15_4 H14_4 1_555 1_555
H15_4 C15_4 1_555 1_555
H16_4 C15_4 1_555 1_555
C16_4 C10_4 1_555 1_555
C17_4 C12_4 1_555 1_555
C18_4 H17_4 1_555 1_555
C19_4 H18_4 1_555 1_555
C20_4 H19_4 1_555 1_555
H20_4 C20_4 1_555 1_555
H21_4 C20_4 1_555 1_555
C21_4 H22_4 1_555 1_555
C22_4 C6_4 1_555 1_555
C23_4 C33_4 1_555 1_555
C24_4 C25_4 1_555 1_555
C25_4 O3_4 1_555 1_555
C26_4 C24_4 1_555 1_555
H23_4 C26_4 1_555 1_555
C27_4 C25_4 1_555 1_555
C28_4 C12_4 1_555 1_555
H24_4 C28_4 1_555 1_555
C29_4 C50_4 1_555 1_555
C30_4 H25_4 1_555 1_555
O6_4 Co7 1_555 1_555
C31_4 H26_4 1_555 1_555
H27_4 C31_4 1_555 1_555
H28_4 C31_4 1_555 1_555
C32_4 H29_4 1_555 1_555
H30_4 C32_4 1_555 1_555
H31_4 C32_4 1_555 1_555
C33_4 H32_4 1_555 1_555
H33_4 C33_4 1_555 1_555
H34_4 C33_4 1_555 1_555
C34_4 C22_4 1_555 1_555
H35_4 C34_4 1_555 1_555
H36_4 C34_4 1_555 1_555
H37_4 C34_4 1_555 1_555
C35_4 H38_4 1_555 1_555
H39_4 C35_4 1_555 1_555
H40_4 C35_4 1_555 1_555
C36_4 C30_4 1_555 1_555
H41_4 C36_4 1_555 1_555
C37_4 C23_4 1_555 1_555
H42_4 C37_4 1_555 1_555
H43_4 C37_4 1_555 1_555
H44_4 C37_4 1_555 1_555
C38_4 C4_4 1_555 1_555
C39_4 C5_4 1_555 1_555
C40_4 C38_4 1_555 1_555
H45_4 C40_4 1_555 1_555
H46_4 C40_4 1_555 1_555
H47_4 C40_4 1_555 1_555
C41_4 C16_4 1_555 1_555
C42_4 C14_4 1_555 1_555
C43_4 H48_4 1_555 1_555
H49_4 C43_4 1_555 1_555
H50_4 C43_4 1_555 1_555
N1_4 Co7 1_555 1_555
C44_4 C13_4 1_555 1_555
N2_4 C21_4 1_555 1_555
C45_4 C16_4 1_555 1_555
H51_4 C45_4 1_555 1_555
C46_4 C9_4 1_555 1_555
C47_4 C11_4 1_555 1_555
H52_4 C47_4 1_555 1_555
C48_4 H53_4 1_555 1_555
H54_4 C48_4 1_555 1_555
H55_4 C48_4 1_555 1_555
C49_4 O5_4 1_555 1_555
C50_4 C26_4 1_555 1_555
C51_4 C29_4 1_555 1_555
H56_4 C51_4 1_555 1_555
H57_4 C51_4 1_555 1_555
H58_4 C51_4 1_555 1_555
C52_4 C29_4 1_555 1_555
H59_4 C52_4 1_555 1_555
H60_4 C52_4 1_555 1_555
H61_4 C52_4 1_555 1_555
C53_4 C29_4 1_555 1_555
H62_4 C53_4 1_555 1_555
H63_4 C53_4 1_555 1_555
H64_4 C53_4 1_555 1_555
C54_4 H65_4 1_555 1_555
N3_4 Co1_4 1_555 1_555
C55_4 C20_4 1_555 1_555
C56_4 C15_4 1_555 1_555
N4_2 C54_4 1_555 1_555
C57_4 C4_4 1_555 1_555
C58_4 C45_4 1_555 1_555
H66_4 C58_4 1_555 1_555
C59_4 C2_4 1_555 1_555
C60_4 C18_4 1_555 1_555
H67_4 C60_4 1_555 1_555
C61_4 C55_4 1_555 1_555
H68_4 C61_4 1_555 1_555
H69_4 C61_4 1_555 1_555
H70_4 C61_4 1_555 1_555
C62_4 C22_4 1_555 1_555
C63_4 C57_4 1_555 1_555
H71_4 C63_4 1_555 1_555
C64_4 N1_4 1_555 1_555
H72_4 C64_4 1_555 1_555
C65_4 C41_4 1_555 1_555
C66_4 C8_4 1_555 1_555
H73_4 C66_4 1_555 1_555
C67_4 C27_4 1_555 1_555
H74_4 C67_4 1_555 1_555
C68_4 C23_4 1_555 1_555
H75_4 C68_4 1_555 1_555
H76_4 C68_4 1_555 1_555
H77_4 C68_4 1_555 1_555
C69_4 H78_4 1_555 1_555
C70_4 H79_4 1_555 1_555
H80_4 C70_4 1_555 1_555
H81_4 C70_4 1_555 1_555
C71_4 C72_4 1_555 1_555
C72_4 C75_4 1_555 1_555
C73_4 C69_4 1_555 1_555
H82_4 C73_4 1_555 1_555
C74_4 C73_4 1_555 1_555
C75_4 H83_4 1_555 1_555
C76_4 C71_4 1_555 1_555
C77_4 C76_4 1_555 1_555
H84_4 C77_4 1_555 1_555
H85_4 C77_4 1_555 1_555
H86_4 C77_4 1_555 1_555
C78_4 C70_4 1_555 1_555
C79_4 C74_4 1_555 1_555
C80_4 H87_4 1_555 1_555
H88_4 C80_4 1_555 1_555
H89_4 C80_4 1_555 1_555
C81_4 C74_4 1_555 1_555
H90_4 C81_4 1_555 1_555
C82_4 H91_4 1_555 1_555
N11_2 C69_4 1_555 1_555
N13_2 C82_4 1_555 1_555
C83_4 C81_4 1_555 1_555
H92_4 C83_4 1_555 1_555
C84_4 C75_4 1_555 1_555
H93_4 C84_4 1_555 1_555
C85_4 C62_4 1_555 1_555
C86_4 C79_4 1_555 1_555
C87_4 C72_4 1_555 1_555
H94_4 C87_4 1_555 1_555
C88_4 H95_4 1_555 1_555
H96_4 C88_4 1_555 1_555
H97_4 C88_4 1_555 1_555
C89_4 C93_4 1_555 1_555
C90_4 H98_4 1_555 1_555
C91_4 C90_4 1_555 1_555
C92_4 H99_4 1_555 1_555
H100_4 C92_4 1_555 1_555
H101_4 C92_4 1_555 1_555
C93_4 C88_4 1_555 1_555
C94_4 C91_4 1_555 1_555
C95_4 H102_4 1_555 1_555
C96_4 C91_4 1_555 1_555
H103_4 C96_4 1_555 1_555
C97_4 H104_4 1_555 1_555
C98_4 C97_4 1_555 1_555
H105_4 C98_4 1_555 1_555
C99_4 C89_4 1_555 1_555
C100_4 C99_4 1_555 1_555
H106_4 C100_4 1_555 1_555
H107_4 C100_4 1_555 1_555
H108_4 C100_4 1_555 1_555
C101_4 C42_4 1_555 1_555
N7_4 C98_4 1_555 1_555
C102_4 C92_4 1_555 1_555
N8_4 C95_4 1_555 1_555
C103_4 C90_4 1_555 1_555
H109_4 C103_4 1_555 1_555
C104_4 C89_4 1_555 1_555
C105_4 C104_4 1_555 1_555
H110_4 C105_4 1_555 1_555
C106_4 N7_4 1_555 1_555
H111_4 C106_4 1_555 1_555
Co6 N2_4 1_555 1_555
O7_4 Co6 1_555 1_555
O8_4 Co6 1_555 1_555
O10_4 Co6 1_555 1_555
O11_4 Co6 1_555 1_555
C107_4 O10_4 1_555 1_555
C108_4 O8_4 1_555 1_555
C110_4 H113_4 1_555 1_555
H114_4 C110_4 1_555 1_555
H115_4 C110_4 1_555 1_555
C111_4 H116_4 1_555 1_555
H120_4 C116_4 1_555 1_555
C117_4 O7_4 1_555 1_555
C118_4 C127_4 1_555 1_555
C120_4 H124_4 1_555 1_555
H125_4 C120_4 1_555 1_555
H126_4 C120_4 1_555 1_555
C122_4 H130_4 1_555 1_555
H131_4 C122_4 1_555 1_555
H132_4 C122_4 1_555 1_555
C125_4 H136_4 1_555 1_555
H138_4 C125_4 1_555 1_555
C126_4 O11_4 1_555 1_555
C127_4 C116_4 1_555 1_555
C128_4 C118_4 1_555 1_555
H139_4 C128_4 1_555 1_555
H140_4 C128_4 1_555 1_555
H141_4 C128_4 1_555 1_555
C129_4 C118_4 1_555 1_555
H142_4 C129_4 1_555 1_555
H143_4 C129_4 1_555 1_555
H144_4 C129_4 1_555 1_555
C130_4 C118_4 1_555 1_555
H145_4 C130_4 1_555 1_555
H146_4 C130_4 1_555 1_555
H147_4 C130_4 1_555 1_555
C132_4 C110_4 1_555 1_555
C133_4 C107_4 1_555 1_555
C135_4 C117_4 1_555 1_555
H151_4 C135_4 1_555 1_555
H153_4 C136_4 1_555 1_555
H154_4 C136_4 1_555 1_555
Co5_4 N8_4 1_555 1_555
Co8_4 N7_4 1_555 1_555
Co9_2 N4_2 1_555 1_555
N10_4 Co1_4 1_555 1_555
Co7 O2_4 1_555 1_555
C1_4 N3_4 1_555 1_555
C2_4 C7_4 1_555 1_555
C6_4 C39_4 1_555 1_555
C17_4 C38_4 1_555 1_555
C17_4 C44_4 1_555 1_555
C19_4 C46_4 1_555 1_555
C19_4 C59_4 1_555 1_555
C21_4 C28_4 1_555 1_555
C23_4 C46_4 1_555 1_555
C24_4 C55_4 1_555 1_555
C30_4 C57_4 1_555 1_555
O6_4 C49_4 1_555 1_555
C31_4 C55_4 1_555 1_555
C32_4 C56_4 1_555 1_555
C35_4 C56_4 1_555 1_555
C36_4 N1_4 1_555 1_555
C39_4 C41_4 1_555 1_555
C42_4 C44_4 1_555 1_555
C43_4 C65_4 1_555 1_555
N2_4 C47_4 1_555 1_555
C48_4 C49_4 1_555 1_555
C50_4 C67_4 1_555 1_555
C54_4 C66_4 1_555 1_555
N3_4 C58_4 1_555 1_555
C56_4 C59_4 1_555 1_555
N4_2 C60_4 1_555 1_555
C62_4 C65_4 1_555 1_555
C63_4 C64_4 1_555 1_555
C71_4 C78_4 1_555 1_555
C76_4 C85_4 1_555 1_555
C78_4 C79_4 1_555 1_555
C80_4 C86_4 1_555 1_555
C82_4 C87_4 1_555 1_555
N11_2 C83_4 1_555 1_555
N13_2 C84_4 1_555 1_555
C85_4 C86_4 1_555 1_555
C93_4 C101_4 1_555 1_555
C94_4 C99_4 1_555 1_555
C94_4 C102_4 1_555 1_555
C95_4 C96_4 1_555 1_555
C97_4 C104_4 1_555 1_555
C101_4 C102_4 1_555 1_555
N8_4 C103_4 1_555 1_555
C105_4 C106_4 1_555 1_555
C107_4 C108_4 1_555 1_555
C111_4 C124_4 1_555 1_555
C111_4 C133_4 1_555 1_555
C120_4 C132_4 1_555 1_555
C122_4 C132_4 1_555 1_555
C125_4 C126_4 1_555 1_555
C127_4 C135_4 1_555 1_555
C132_4 C133_4 1_555 1_555
O9_4 Co9_2 1_555 1_555
H112_4 C109_4 1_555 1_555
C112_4 H117_4 1_555 1_555
H118_4 C112_4 1_555 1_555
H119_4 C112_4 1_555 1_555
C113_4 C121_4 1_555 1_555
C114_4 C115_4 1_555 1_555
C115_4 O9_4 1_555 1_555
O12_4 Co9_2 1_555 1_555
C119_4 H121_4 1_555 1_555
H122_4 C119_4 1_555 1_555
H123_4 C119_4 1_555 1_555
C121_4 H127_4 1_555 1_555
H128_4 C121_4 1_555 1_555
H129_4 C121_4 1_555 1_555
C123_4 C113_4 1_555 1_555
H133_4 C123_4 1_555 1_555
H134_4 C123_4 1_555 1_555
H135_4 C123_4 1_555 1_555
C131_4 C112_4 1_555 1_555
C134_4 C131_4 1_555 1_555
H148_4 C134_4 1_555 1_555
H149_4 C134_4 1_555 1_555
H150_4 C134_4 1_555 1_555
N9_4 Co9_2 1_555 1_555
C114_4 C131_4 1_555 1_555
C119_4 C131_4 1_555 1_555
C69_5 H78_5 1_555 1_555
C70_5 H79_5 1_555 1_555
H80_5 C70_5 1_555 1_555
H81_5 C70_5 1_555 1_555
C71_5 C72_5 1_555 1_555
C72_5 C75_5 1_555 1_555
C73_5 C69_5 1_555 1_555
H82_5 C73_5 1_555 1_555
C74_5 C73_5 1_555 1_555
C75_5 H83_5 1_555 1_555
C76_5 C71_5 1_555 1_555
C77_5 C76_5 1_555 1_555
H84_5 C77_5 1_555 1_555
H86_5 C77_5 1_555 1_555
C78_5 C70_5 1_555 1_555
C79_5 C74_5 1_555 1_555
C80_5 H87_5 1_555 1_555
H89_5 C80_5 1_555 1_555
C81_5 C74_5 1_555 1_555
H90_5 C81_5 1_555 1_555
C82_5 H91_5 1_555 1_555
N5_3 C69_5 1_555 1_555
N6_3 C82_5 1_555 1_555
C83_5 C81_5 1_555 1_555
H92_5 C83_5 1_555 1_555
C84_5 C75_5 1_555 1_555
H93_5 C84_5 1_555 1_555
C86_5 C79_5 1_555 1_555
C87_5 C72_5 1_555 1_555
H94_5 C87_5 1_555 1_555
Co5_2 N5_3 1_555 1_555
Co8_2 N6_3 1_555 1_555
C71_5 C78_5 1_555 1_555
C76_5 C85_5 1_555 1_555
C78_5 C79_5 1_555 1_555
C80_5 C86_5 1_555 1_555
C82_5 C87_5 1_555 1_555
N5_3 C83_5 1_555 1_555
N6_3 C84_5 1_555 1_555
C85_5 C86_5 1_555 1_555
Co1_5 O1_5 1_555 1_555
Co8_3 O1_5 1_555 1_555
O1_5 C27_5 1_555 1_555
O2_5 Co1_5 1_555 1_555
O3_5 Co8_3 1_555 1_555
O4_5 Co1_5 1_555 1_555
C1_5 H1_5 1_555 1_555
O5_5 Co1_5 1_555 1_555
C2_5 O4_5 1_555 1_555
C5_5 H5_5 1_555 1_555
H6_5 C5_5 1_555 1_555
H7_5 C5_5 1_555 1_555
C6_5 C8_5 1_555 1_555
C7_5 O2_5 1_555 1_555
C8_5 C18_5 1_555 1_555
C9_5 C7_5 1_555 1_555
H8_5 C9_5 1_555 1_555
C10_5 C1_5 1_555 1_555
H9_5 C10_5 1_555 1_555
C15_5 H14_5 1_555 1_555
H15_5 C15_5 1_555 1_555
H16_5 C15_5 1_555 1_555
C16_5 C10_5 1_555 1_555
C18_5 H17_5 1_555 1_555
C19_5 H18_5 1_555 1_555
C20_5 H19_5 1_555 1_555
H20_5 C20_5 1_555 1_555
H21_5 C20_5 1_555 1_555
C22_5 C6_5 1_555 1_555
C23_5 C33_5 1_555 1_555
C24_5 C25_5 1_555 1_555
C25_5 O3_5 1_555 1_555
C26_5 C24_5 1_555 1_555
H23_5 C26_5 1_555 1_555
C27_5 C25_5 1_555 1_555
C29_5 C50_5 1_555 1_555
O6_5 Co8_3 1_555 1_555
C31_5 H26_5 1_555 1_555
H27_5 C31_5 1_555 1_555
H28_5 C31_5 1_555 1_555
C32_5 H29_5 1_555 1_555
H30_5 C32_5 1_555 1_555
H31_5 C32_5 1_555 1_555
C33_5 H32_5 1_555 1_555
H33_5 C33_5 1_555 1_555
H34_5 C33_5 1_555 1_555
C34_5 C22_5 1_555 1_555
H35_5 C34_5 1_555 1_555
H37_5 C34_5 1_555 1_555
C35_5 H38_5 1_555 1_555
H39_5 C35_5 1_555 1_555
H40_5 C35_5 1_555 1_555
C37_5 C23_5 1_555 1_555
H42_5 C37_5 1_555 1_555
H43_5 C37_5 1_555 1_555
H44_5 C37_5 1_555 1_555
C39_5 C5_5 1_555 1_555
C41_5 C16_5 1_555 1_555
C43_5 H48_5 1_555 1_555
H50_5 C43_5 1_555 1_555
C45_5 C16_5 1_555 1_555
H51_5 C45_5 1_555 1_555
C46_5 C9_5 1_555 1_555
C48_5 H53_5 1_555 1_555
H54_5 C48_5 1_555 1_555
H55_5 C48_5 1_555 1_555
C49_5 O5_5 1_555 1_555
C50_5 C26_5 1_555 1_555
C51_5 C29_5 1_555 1_555
H56_5 C51_5 1_555 1_555
H57_5 C51_5 1_555 1_555
H58_5 C51_5 1_555 1_555
C52_5 C29_5 1_555 1_555
H59_5 C52_5 1_555 1_555
H60_5 C52_5 1_555 1_555
H61_5 C52_5 1_555 1_555
C53_5 C29_5 1_555 1_555
H62_5 C53_5 1_555 1_555
H64_5 C53_5 1_555 1_555
C54_5 H65_5 1_555 1_555
N3_5 Co1_5 1_555 1_555
C55_5 C20_5 1_555 1_555
C56_5 C15_5 1_555 1_555
N4_3 C54_5 1_555 1_555
C58_5 C45_5 1_555 1_555
H66_5 C58_5 1_555 1_555
C59_5 C2_5 1_555 1_555
C60_5 C18_5 1_555 1_555
H67_5 C60_5 1_555 1_555
C61_5 C55_5 1_555 1_555
H68_5 C61_5 1_555 1_555
H69_5 C61_5 1_555 1_555
H70_5 C61_5 1_555 1_555
C62_5 C22_5 1_555 1_555
C65_5 C41_5 1_555 1_555
C66_5 C8_5 1_555 1_555
H73_5 C66_5 1_555 1_555
C67_5 C27_5 1_555 1_555
H74_5 C67_5 1_555 1_555
C68_5 C23_5 1_555 1_555
H75_5 C68_5 1_555 1_555
H76_5 C68_5 1_555 1_555
H77_5 C68_5 1_555 1_555
O7_5 Co5_3 1_555 1_555
O8_5 Co5_3 1_555 1_555
O10_5 Co5_3 1_555 1_555
O11_5 Co5_3 1_555 1_555
C107_5 O10_5 1_555 1_555
C108_5 O8_5 1_555 1_555
C110_5 H113_5 1_555 1_555
H114_5 C110_5 1_555 1_555
H115_5 C110_5 1_555 1_555
C111_5 H116_5 1_555 1_555
H120_5 C116_5 1_555 1_555
C117_5 O7_5 1_555 1_555
C118_5 C127_5 1_555 1_555
C120_5 H124_5 1_555 1_555
H125_5 C120_5 1_555 1_555
H126_5 C120_5 1_555 1_555
C122_5 H130_5 1_555 1_555
H131_5 C122_5 1_555 1_555
H132_5 C122_5 1_555 1_555
C125_5 H136_5 1_555 1_555
H138_5 C125_5 1_555 1_555
C126_5 O11_5 1_555 1_555
C127_5 C116_5 1_555 1_555
C128_5 C118_5 1_555 1_555
H139_5 C128_5 1_555 1_555
H140_5 C128_5 1_555 1_555
H141_5 C128_5 1_555 1_555
C129_5 C118_5 1_555 1_555
H142_5 C129_5 1_555 1_555
H143_5 C129_5 1_555 1_555
H144_5 C129_5 1_555 1_555
C130_5 C118_5 1_555 1_555
H145_5 C130_5 1_555 1_555
H147_5 C130_5 1_555 1_555
C132_5 C110_5 1_555 1_555
C133_5 C107_5 1_555 1_555
C135_5 C117_5 1_555 1_555
H151_5 C135_5 1_555 1_555
H153_5 C136_5 1_555 1_555
H154_5 C136_5 1_555 1_555
Co9_3 N4_3 1_555 1_555
N10_5 Co1_5 1_555 1_555
N11_3 Co5_3 1_555 1_555
N13_3 Co8_3 1_555 1_555
Co8_3 O2_5 1_555 1_555
C1_5 N3_5 1_555 1_555
C2_5 C7_5 1_555 1_555
C6_5 C39_5 1_555 1_555
C19_5 C46_5 1_555 1_555
C19_5 C59_5 1_555 1_555
C23_5 C46_5 1_555 1_555
C24_5 C55_5 1_555 1_555
O6_5 C49_5 1_555 1_555
C31_5 C55_5 1_555 1_555
C32_5 C56_5 1_555 1_555
C35_5 C56_5 1_555 1_555
C39_5 C41_5 1_555 1_555
C43_5 C65_5 1_555 1_555
C48_5 C49_5 1_555 1_555
C50_5 C67_5 1_555 1_555
C54_5 C66_5 1_555 1_555
N3_5 C58_5 1_555 1_555
C56_5 C59_5 1_555 1_555
N4_3 C60_5 1_555 1_555
C62_5 C65_5 1_555 1_555
C107_5 C108_5 1_555 1_555
C111_5 C124_5 1_555 1_555
C111_5 C133_5 1_555 1_555
C120_5 C132_5 1_555 1_555
C122_5 C132_5 1_555 1_555
C125_5 C126_5 1_555 1_555
C127_5 C135_5 1_555 1_555
C132_5 C133_5 1_555 1_555
O9_5 Co9_3 1_555 1_555
H112_5 C109_5 1_555 1_555
C112_5 H117_5 1_555 1_555
H118_5 C112_5 1_555 1_555
H119_5 C112_5 1_555 1_555
C113_5 C121_5 1_555 1_555
C114_5 C115_5 1_555 1_555
C115_5 O9_5 1_555 1_555
O12_5 Co9_3 1_555 1_555
C119_5 H121_5 1_555 1_555
H122_5 C119_5 1_555 1_555
H123_5 C119_5 1_555 1_555
C121_5 H127_5 1_555 1_555
H128_5 C121_5 1_555 1_555
H129_5 C121_5 1_555 1_555
C123_5 C113_5 1_555 1_555
H133_5 C123_5 1_555 1_555
H134_5 C123_5 1_555 1_555
H135_5 C123_5 1_555 1_555
C131_5 C112_5 1_555 1_555
C134_5 C131_5 1_555 1_555
H148_5 C134_5 1_555 1_555
H149_5 C134_5 1_555 1_555
H150_5 C134_5 1_555 1_555
N9_5 Co9_3 1_555 1_555
C114_5 C131_5 1_555 1_555
C119_5 C131_5 1_555 1_555
O9_6 Co4_3 1_555 1_555
H112_6 C109_6 1_555 1_555
C112_6 H117_6 1_555 1_555
H118_6 C112_6 1_555 1_555
H119_6 C112_6 1_555 1_555
C113_6 C121_6 1_555 1_555
C114_6 C115_6 1_555 1_555
C115_6 O9_6 1_555 1_555
O12_6 Co4_3 1_555 1_555
C119_6 H121_6 1_555 1_555
H122_6 C119_6 1_555 1_555
H123_6 C119_6 1_555 1_555
C121_6 H127_6 1_555 1_555
H128_6 C121_6 1_555 1_555
H129_6 C121_6 1_555 1_555
C123_6 C113_6 1_555 1_555
H133_6 C123_6 1_555 1_555
H134_6 C123_6 1_555 1_555
H135_6 C123_6 1_555 1_555
C131_6 C112_6 1_555 1_555
C134_6 C131_6 1_555 1_555
H148_6 C134_6 1_555 1_555
H149_6 C134_6 1_555 1_555
H150_6 C134_6 1_555 1_555
N9_6 Co4_3 1_555 1_555
N12_3 Co4_3 1_555 1_555
C114_6 C131_6 1_555 1_555
C119_6 C131_6 1_555 1_555
C69_6 H78_6 1_555 1_555
C70_6 H79_6 1_555 1_555
H80_6 C70_6 1_555 1_555
H81_6 C70_6 1_555 1_555
C71_6 C72_6 1_555 1_555
C72_6 C75_6 1_555 1_555
C73_6 C69_6 1_555 1_555
H82_6 C73_6 1_555 1_555
C74_6 C73_6 1_555 1_555
C75_6 H83_6 1_555 1_555
C76_6 C71_6 1_555 1_555
C77_6 C76_6 1_555 1_555
H84_6 C77_6 1_555 1_555
H86_6 C77_6 1_555 1_555
C78_6 C70_6 1_555 1_555
C79_6 C74_6 1_555 1_555
C80_6 H87_6 1_555 1_555
H89_6 C80_6 1_555 1_555
C81_6 C74_6 1_555 1_555
H90_6 C81_6 1_555 1_555
C82_6 H91_6 1_555 1_555
N5_4 C69_6 1_555 1_555
N6_4 C82_6 1_555 1_555
C83_6 C81_6 1_555 1_555
H92_6 C83_6 1_555 1_555
C84_6 C75_6 1_555 1_555
H93_6 C84_6 1_555 1_555
C86_6 C79_6 1_555 1_555
C87_6 C72_6 1_555 1_555
H94_6 C87_6 1_555 1_555
Co5 N5_4 1_555 1_555
Co8 N6_4 1_555 1_555
C71_6 C78_6 1_555 1_555
C76_6 C85_6 1_555 1_555
C78_6 C79_6 1_555 1_555
C80_6 C86_6 1_555 1_555
C82_6 C87_6 1_555 1_555
N5_4 C83_6 1_555 1_555
N6_4 C84_6 1_555 1_555
C85_6 C86_6 1_555 1_555
Co1_6 O1_6 1_555 1_555
Co8_4 O1_6 1_555 1_555
O1_6 C27_6 1_555 1_555
O2_6 Co1_6 1_555 1_555
O3_6 Co8_4 1_555 1_555
O4_6 Co1_6 1_555 1_555
C1_6 H1_6 1_555 1_555
O5_6 Co1_6 1_555 1_555
C2_6 O4_6 1_555 1_555
C5_6 H5_6 1_555 1_555
H6_6 C5_6 1_555 1_555
H7_6 C5_6 1_555 1_555
C6_6 C8_6 1_555 1_555
C7_6 O2_6 1_555 1_555
C8_6 C18_6 1_555 1_555
C9_6 C7_6 1_555 1_555
H8_6 C9_6 1_555 1_555
C10_6 C1_6 1_555 1_555
H9_6 C10_6 1_555 1_555
C15_6 H14_6 1_555 1_555
H15_6 C15_6 1_555 1_555
H16_6 C15_6 1_555 1_555
C16_6 C10_6 1_555 1_555
C18_6 H17_6 1_555 1_555
C19_6 H18_6 1_555 1_555
C20_6 H19_6 1_555 1_555
H20_6 C20_6 1_555 1_555
H21_6 C20_6 1_555 1_555
C22_6 C6_6 1_555 1_555
C23_6 C33_6 1_555 1_555
C24_6 C25_6 1_555 1_555
C25_6 O3_6 1_555 1_555
C26_6 C24_6 1_555 1_555
H23_6 C26_6 1_555 1_555
C27_6 C25_6 1_555 1_555
C29_6 C50_6 1_555 1_555
O6_6 Co8_4 1_555 1_555
C31_6 H26_6 1_555 1_555
H27_6 C31_6 1_555 1_555
H28_6 C31_6 1_555 1_555
C32_6 H29_6 1_555 1_555
H30_6 C32_6 1_555 1_555
H31_6 C32_6 1_555 1_555
C33_6 H32_6 1_555 1_555
H33_6 C33_6 1_555 1_555
H34_6 C33_6 1_555 1_555
C34_6 C22_6 1_555 1_555
H35_6 C34_6 1_555 1_555
H37_6 C34_6 1_555 1_555
C35_6 H38_6 1_555 1_555
H39_6 C35_6 1_555 1_555
H40_6 C35_6 1_555 1_555
C37_6 C23_6 1_555 1_555
H42_6 C37_6 1_555 1_555
H43_6 C37_6 1_555 1_555
H44_6 C37_6 1_555 1_555
C39_6 C5_6 1_555 1_555
C41_6 C16_6 1_555 1_555
C43_6 H48_6 1_555 1_555
H50_6 C43_6 1_555 1_555
C45_6 C16_6 1_555 1_555
H51_6 C45_6 1_555 1_555
C46_6 C9_6 1_555 1_555
C48_6 H53_6 1_555 1_555
H54_6 C48_6 1_555 1_555
H55_6 C48_6 1_555 1_555
C49_6 O5_6 1_555 1_555
C50_6 C26_6 1_555 1_555
C51_6 C29_6 1_555 1_555
H56_6 C51_6 1_555 1_555
H57_6 C51_6 1_555 1_555
H58_6 C51_6 1_555 1_555
C52_6 C29_6 1_555 1_555
H59_6 C52_6 1_555 1_555
H60_6 C52_6 1_555 1_555
H61_6 C52_6 1_555 1_555
C53_6 C29_6 1_555 1_555
H62_6 C53_6 1_555 1_555
H64_6 C53_6 1_555 1_555
C54_6 H65_6 1_555 1_555
N3_6 Co1_6 1_555 1_555
C55_6 C20_6 1_555 1_555
C56_6 C15_6 1_555 1_555
N12_3 C54_6 1_555 1_555
C58_6 C45_6 1_555 1_555
H66_6 C58_6 1_555 1_555
C59_6 C2_6 1_555 1_555
C60_6 C18_6 1_555 1_555
H67_6 C60_6 1_555 1_555
C61_6 C55_6 1_555 1_555
H68_6 C61_6 1_555 1_555
H69_6 C61_6 1_555 1_555
H70_6 C61_6 1_555 1_555
C62_6 C22_6 1_555 1_555
C65_6 C41_6 1_555 1_555
C66_6 C8_6 1_555 1_555
H73_6 C66_6 1_555 1_555
C67_6 C27_6 1_555 1_555
H74_6 C67_6 1_555 1_555
C68_6 C23_6 1_555 1_555
H75_6 C68_6 1_555 1_555
H76_6 C68_6 1_555 1_555
H77_6 C68_6 1_555 1_555
O7_6 Co5_4 1_555 1_555
O8_6 Co5_4 1_555 1_555
O10_6 Co5_4 1_555 1_555
O11_6 Co5_4 1_555 1_555
C107_6 O10_6 1_555 1_555
C108_6 O8_6 1_555 1_555
C110_6 H113_6 1_555 1_555
H114_6 C110_6 1_555 1_555
H115_6 C110_6 1_555 1_555
C111_6 H116_6 1_555 1_555
H120_6 C116_6 1_555 1_555
C117_6 O7_6 1_555 1_555
C118_6 C127_6 1_555 1_555
C120_6 H124_6 1_555 1_555
H125_6 C120_6 1_555 1_555
H126_6 C120_6 1_555 1_555
C122_6 H130_6 1_555 1_555
H131_6 C122_6 1_555 1_555
H132_6 C122_6 1_555 1_555
C125_6 H136_6 1_555 1_555
H138_6 C125_6 1_555 1_555
C126_6 O11_6 1_555 1_555
C127_6 C116_6 1_555 1_555
C128_6 C118_6 1_555 1_555
H139_6 C128_6 1_555 1_555
H140_6 C128_6 1_555 1_555
H141_6 C128_6 1_555 1_555
C129_6 C118_6 1_555 1_555
H142_6 C129_6 1_555 1_555
H143_6 C129_6 1_555 1_555
H144_6 C129_6 1_555 1_555
C130_6 C118_6 1_555 1_555
H145_6 C130_6 1_555 1_555
H147_6 C130_6 1_555 1_555
C132_6 C110_6 1_555 1_555
C133_6 C107_6 1_555 1_555
C135_6 C117_6 1_555 1_555
H151_6 C135_6 1_555 1_555
H153_6 C136_6 1_555 1_555
H154_6 C136_6 1_555 1_555
N10_6 Co1_6 1_555 1_555
N11_4 Co5_4 1_555 1_555
N13_4 Co8_4 1_555 1_555
Co8_4 O2_6 1_555 1_555
C1_6 N3_6 1_555 1_555
C2_6 C7_6 1_555 1_555
C6_6 C39_6 1_555 1_555
C19_6 C46_6 1_555 1_555
C19_6 C59_6 1_555 1_555
C23_6 C46_6 1_555 1_555
C24_6 C55_6 1_555 1_555
O6_6 C49_6 1_555 1_555
C31_6 C55_6 1_555 1_555
C32_6 C56_6 1_555 1_555
C35_6 C56_6 1_555 1_555
C39_6 C41_6 1_555 1_555
C43_6 C65_6 1_555 1_555
C48_6 C49_6 1_555 1_555
C50_6 C67_6 1_555 1_555
C54_6 C66_6 1_555 1_555
N3_6 C58_6 1_555 1_555
C56_6 C59_6 1_555 1_555
N12_3 C60_6 1_555 1_555
C62_6 C65_6 1_555 1_555
C107_6 C108_6 1_555 1_555
C111_6 C124_6 1_555 1_555
C111_6 C133_6 1_555 1_555
C120_6 C132_6 1_555 1_555
C122_6 C132_6 1_555 1_555
C125_6 C126_6 1_555 1_555
C127_6 C135_6 1_555 1_555
C132_6 C133_6 1_555 1_555
Co1_7 O1_7 1_555 1_555
Co8 O1_7 1_555 1_555
O1_7 C27_7 1_555 1_555
O2_7 Co1_7 1_555 1_555
O3_7 Co8 1_555 1_555
O4_7 Co1_7 1_555 1_555
C1_7 H1_7 1_555 1_555
O5_7 Co1_7 1_555 1_555
C2_7 O4_7 1_555 1_555
C5_7 H5_7 1_555 1_555
H6_7 C5_7 1_555 1_555
H7_7 C5_7 1_555 1_555
C6_7 C8_7 1_555 1_555
C7_7 O2_7 1_555 1_555
C8_7 C18_7 1_555 1_555
C9_7 C7_7 1_555 1_555
H8_7 C9_7 1_555 1_555
C10_7 C1_7 1_555 1_555
H9_7 C10_7 1_555 1_555
C15_7 H14_7 1_555 1_555
H15_7 C15_7 1_555 1_555
H16_7 C15_7 1_555 1_555
C16_7 C10_7 1_555 1_555
C18_7 H17_7 1_555 1_555
C19_7 H18_7 1_555 1_555
C20_7 H19_7 1_555 1_555
H20_7 C20_7 1_555 1_555
H21_7 C20_7 1_555 1_555
C22_7 C6_7 1_555 1_555
C23_7 C33_7 1_555 1_555
C24_7 C25_7 1_555 1_555
C25_7 O3_7 1_555 1_555
C26_7 C24_7 1_555 1_555
H23_7 C26_7 1_555 1_555
C27_7 C25_7 1_555 1_555
C29_7 C50_7 1_555 1_555
O6_7 Co8 1_555 1_555
C31_7 H26_7 1_555 1_555
H27_7 C31_7 1_555 1_555
H28_7 C31_7 1_555 1_555
C32_7 H29_7 1_555 1_555
H30_7 C32_7 1_555 1_555
H31_7 C32_7 1_555 1_555
C33_7 H32_7 1_555 1_555
H33_7 C33_7 1_555 1_555
H34_7 C33_7 1_555 1_555
C34_7 C22_7 1_555 1_555
H35_7 C34_7 1_555 1_555
H37_7 C34_7 1_555 1_555
C35_7 H38_7 1_555 1_555
H39_7 C35_7 1_555 1_555
H40_7 C35_7 1_555 1_555
C37_7 C23_7 1_555 1_555
H42_7 C37_7 1_555 1_555
H43_7 C37_7 1_555 1_555
H44_7 C37_7 1_555 1_555
C39_7 C5_7 1_555 1_555
C41_7 C16_7 1_555 1_555
C43_7 H48_7 1_555 1_555
H50_7 C43_7 1_555 1_555
C45_7 C16_7 1_555 1_555
H51_7 C45_7 1_555 1_555
C46_7 C9_7 1_555 1_555
C48_7 H53_7 1_555 1_555
H54_7 C48_7 1_555 1_555
H55_7 C48_7 1_555 1_555
C49_7 O5_7 1_555 1_555
C50_7 C26_7 1_555 1_555
C51_7 C29_7 1_555 1_555
H56_7 C51_7 1_555 1_555
H57_7 C51_7 1_555 1_555
H58_7 C51_7 1_555 1_555
C52_7 C29_7 1_555 1_555
H59_7 C52_7 1_555 1_555
H60_7 C52_7 1_555 1_555
H61_7 C52_7 1_555 1_555
C53_7 C29_7 1_555 1_555
H62_7 C53_7 1_555 1_555
H64_7 C53_7 1_555 1_555
C54_7 H65_7 1_555 1_555
N3_7 Co1_7 1_555 1_555
C55_7 C20_7 1_555 1_555
C56_7 C15_7 1_555 1_555
N4_4 C54_7 1_555 1_555
C58_7 C45_7 1_555 1_555
H66_7 C58_7 1_555 1_555
C59_7 C2_7 1_555 1_555
C60_7 C18_7 1_555 1_555
H67_7 C60_7 1_555 1_555
C61_7 C55_7 1_555 1_555
H68_7 C61_7 1_555 1_555
H69_7 C61_7 1_555 1_555
H70_7 C61_7 1_555 1_555
C62_7 C22_7 1_555 1_555
C65_7 C41_7 1_555 1_555
C66_7 C8_7 1_555 1_555
H73_7 C66_7 1_555 1_555
C67_7 C27_7 1_555 1_555
H74_7 C67_7 1_555 1_555
C68_7 C23_7 1_555 1_555
H75_7 C68_7 1_555 1_555
H76_7 C68_7 1_555 1_555
H77_7 C68_7 1_555 1_555
O7_7 Co5 1_555 1_555
O8_7 Co5 1_555 1_555
O10_7 Co5 1_555 1_555
O11_7 Co5 1_555 1_555
C107_7 O10_7 1_555 1_555
C108_7 O8_7 1_555 1_555
C110_7 H113_7 1_555 1_555
H114_7 C110_7 1_555 1_555
H115_7 C110_7 1_555 1_555
C111_7 H116_7 1_555 1_555
H120_7 C116_7 1_555 1_555
C117_7 O7_7 1_555 1_555
C118_7 C127_7 1_555 1_555
C120_7 H124_7 1_555 1_555
H125_7 C120_7 1_555 1_555
H126_7 C120_7 1_555 1_555
C122_7 H130_7 1_555 1_555
H131_7 C122_7 1_555 1_555
H132_7 C122_7 1_555 1_555
C125_7 H136_7 1_555 1_555
H138_7 C125_7 1_555 1_555
C126_7 O11_7 1_555 1_555
C127_7 C116_7 1_555 1_555
C128_7 C118_7 1_555 1_555
H139_7 C128_7 1_555 1_555
H140_7 C128_7 1_555 1_555
H141_7 C128_7 1_555 1_555
C129_7 C118_7 1_555 1_555
H142_7 C129_7 1_555 1_555
H143_7 C129_7 1_555 1_555
H144_7 C129_7 1_555 1_555
C130_7 C118_7 1_555 1_555
H145_7 C130_7 1_555 1_555
H147_7 C130_7 1_555 1_555
C132_7 C110_7 1_555 1_555
C133_7 C107_7 1_555 1_555
C135_7 C117_7 1_555 1_555
H151_7 C135_7 1_555 1_555
H153_7 C136_7 1_555 1_555
H154_7 C136_7 1_555 1_555
Co9_4 N4_4 1_555 1_555
N10_7 Co1_7 1_555 1_555
Co8 O2_7 1_555 1_555
C1_7 N3_7 1_555 1_555
C2_7 C7_7 1_555 1_555
C6_7 C39_7 1_555 1_555
C19_7 C46_7 1_555 1_555
C19_7 C59_7 1_555 1_555
C23_7 C46_7 1_555 1_555
C24_7 C55_7 1_555 1_555
O6_7 C49_7 1_555 1_555
C31_7 C55_7 1_555 1_555
C32_7 C56_7 1_555 1_555
C35_7 C56_7 1_555 1_555
C39_7 C41_7 1_555 1_555
C43_7 C65_7 1_555 1_555
C48_7 C49_7 1_555 1_555
C50_7 C67_7 1_555 1_555
C54_7 C66_7 1_555 1_555
N3_7 C58_7 1_555 1_555
C56_7 C59_7 1_555 1_555
N4_4 C60_7 1_555 1_555
C62_7 C65_7 1_555 1_555
C107_7 C108_7 1_555 1_555
C111_7 C124_7 1_555 1_555
C111_7 C133_7 1_555 1_555
C120_7 C132_7 1_555 1_555
C122_7 C132_7 1_555 1_555
C125_7 C126_7 1_555 1_555
C127_7 C135_7 1_555 1_555
C132_7 C133_7 1_555 1_555
C69_7 H78_7 1_555 1_555
C70_7 H79_7 1_555 1_555
H80_7 C70_7 1_555 1_555
H81_7 C70_7 1_555 1_555
C71_7 C72_7 1_555 1_555
C72_7 C75_7 1_555 1_555
C73_7 C69_7 1_555 1_555
H82_7 C73_7 1_555 1_555
C74_7 C73_7 1_555 1_555
C75_7 H83_7 1_555 1_555
C76_7 C71_7 1_555 1_555
C77_7 C76_7 1_555 1_555
H84_7 C77_7 1_555 1_555
H86_7 C77_7 1_555 1_555
C78_7 C70_7 1_555 1_555
C79_7 C74_7 1_555 1_555
C80_7 H87_7 1_555 1_555
H89_7 C80_7 1_555 1_555
C81_7 C74_7 1_555 1_555
H90_7 C81_7 1_555 1_555
C82_7 H91_7 1_555 1_555
N11_3 C69_7 1_555 1_555
N13_3 C82_7 1_555 1_555
C83_7 C81_7 1_555 1_555
H92_7 C83_7 1_555 1_555
C84_7 C75_7 1_555 1_555
H93_7 C84_7 1_555 1_555
C86_7 C79_7 1_555 1_555
C87_7 C72_7 1_555 1_555
H94_7 C87_7 1_555 1_555
C71_7 C78_7 1_555 1_555
C76_7 C85_7 1_555 1_555
C78_7 C79_7 1_555 1_555
C80_7 C86_7 1_555 1_555
C82_7 C87_7 1_555 1_555
N11_3 C83_7 1_555 1_555
N13_3 C84_7 1_555 1_555
C85_7 C86_7 1_555 1_555
O9_7 Co9_4 1_555 1_555
H112_7 C109_7 1_555 1_555
C112_7 H117_7 1_555 1_555
H118_7 C112_7 1_555 1_555
H119_7 C112_7 1_555 1_555
C113_7 C121_7 1_555 1_555
C114_7 C115_7 1_555 1_555
C115_7 O9_7 1_555 1_555
O12_7 Co9_4 1_555 1_555
C119_7 H121_7 1_555 1_555
H122_7 C119_7 1_555 1_555
H123_7 C119_7 1_555 1_555
C121_7 H127_7 1_555 1_555
H128_7 C121_7 1_555 1_555
H129_7 C121_7 1_555 1_555
C123_7 C113_7 1_555 1_555
H133_7 C123_7 1_555 1_555
H134_7 C123_7 1_555 1_555
H135_7 C123_7 1_555 1_555
C131_7 C112_7 1_555 1_555
C134_7 C131_7 1_555 1_555
H148_7 C134_7 1_555 1_555
H149_7 C134_7 1_555 1_555
H150_7 C134_7 1_555 1_555
N9_7 Co9_4 1_555 1_555
C114_7 C131_7 1_555 1_555
C119_7 C131_7 1_555 1_555
O9_8 Co4_4 1_555 1_555
H112_8 C109_8 1_555 1_555
C112_8 H117_8 1_555 1_555
H118_8 C112_8 1_555 1_555
H119_8 C112_8 1_555 1_555
C113_8 C121_8 1_555 1_555
C114_8 C115_8 1_555 1_555
C115_8 O9_8 1_555 1_555
O12_8 Co4_4 1_555 1_555
C119_8 H121_8 1_555 1_555
H122_8 C119_8 1_555 1_555
H123_8 C119_8 1_555 1_555
C121_8 H127_8 1_555 1_555
H128_8 C121_8 1_555 1_555
H129_8 C121_8 1_555 1_555
C123_8 C113_8 1_555 1_555
H133_8 C123_8 1_555 1_555
H134_8 C123_8 1_555 1_555
H135_8 C123_8 1_555 1_555
C131_8 C112_8 1_555 1_555
C134_8 C131_8 1_555 1_555
H148_8 C134_8 1_555 1_555
H149_8 C134_8 1_555 1_555
H150_8 C134_8 1_555 1_555
N9_8 Co4_4 1_555 1_555
N12_4 Co4_4 1_555 1_555
C114_8 C131_8 1_555 1_555
C119_8 C131_8 1_555 1_555
Co1_8 O1_8 1_555 1_555
Co8_2 O1_8 1_555 1_555
O1_8 C27_8 1_555 1_555
O2_8 Co1_8 1_555 1_555
O3_8 Co8_2 1_555 1_555
O4_8 Co1_8 1_555 1_555
C1_8 H1_8 1_555 1_555
O5_8 Co1_8 1_555 1_555
C2_8 O4_8 1_555 1_555
C5_8 H5_8 1_555 1_555
H6_8 C5_8 1_555 1_555
H7_8 C5_8 1_555 1_555
C6_8 C8_8 1_555 1_555
C7_8 O2_8 1_555 1_555
C8_8 C18_8 1_555 1_555
C9_8 C7_8 1_555 1_555
H8_8 C9_8 1_555 1_555
C10_8 C1_8 1_555 1_555
H9_8 C10_8 1_555 1_555
C15_8 H14_8 1_555 1_555
H15_8 C15_8 1_555 1_555
H16_8 C15_8 1_555 1_555
C16_8 C10_8 1_555 1_555
C18_8 H17_8 1_555 1_555
C19_8 H18_8 1_555 1_555
C20_8 H19_8 1_555 1_555
H20_8 C20_8 1_555 1_555
H21_8 C20_8 1_555 1_555
C22_8 C6_8 1_555 1_555
C23_8 C33_8 1_555 1_555
C24_8 C25_8 1_555 1_555
C25_8 O3_8 1_555 1_555
C26_8 C24_8 1_555 1_555
H23_8 C26_8 1_555 1_555
C27_8 C25_8 1_555 1_555
C29_8 C50_8 1_555 1_555
O6_8 Co8_2 1_555 1_555
C31_8 H26_8 1_555 1_555
H27_8 C31_8 1_555 1_555
H28_8 C31_8 1_555 1_555
C32_8 H29_8 1_555 1_555
H30_8 C32_8 1_555 1_555
H31_8 C32_8 1_555 1_555
C33_8 H32_8 1_555 1_555
H33_8 C33_8 1_555 1_555
H34_8 C33_8 1_555 1_555
C34_8 C22_8 1_555 1_555
H35_8 C34_8 1_555 1_555
H37_8 C34_8 1_555 1_555
C35_8 H38_8 1_555 1_555
H39_8 C35_8 1_555 1_555
H40_8 C35_8 1_555 1_555
C37_8 C23_8 1_555 1_555
H42_8 C37_8 1_555 1_555
H43_8 C37_8 1_555 1_555
H44_8 C37_8 1_555 1_555
C39_8 C5_8 1_555 1_555
C41_8 C16_8 1_555 1_555
C43_8 H48_8 1_555 1_555
H50_8 C43_8 1_555 1_555
C45_8 C16_8 1_555 1_555
H51_8 C45_8 1_555 1_555
C46_8 C9_8 1_555 1_555
C48_8 H53_8 1_555 1_555
H54_8 C48_8 1_555 1_555
H55_8 C48_8 1_555 1_555
C49_8 O5_8 1_555 1_555
C50_8 C26_8 1_555 1_555
C51_8 C29_8 1_555 1_555
H56_8 C51_8 1_555 1_555
H57_8 C51_8 1_555 1_555
H58_8 C51_8 1_555 1_555
C52_8 C29_8 1_555 1_555
H59_8 C52_8 1_555 1_555
H60_8 C52_8 1_555 1_555
H61_8 C52_8 1_555 1_555
C53_8 C29_8 1_555 1_555
H62_8 C53_8 1_555 1_555
H64_8 C53_8 1_555 1_555
C54_8 H65_8 1_555 1_555
N3_8 Co1_8 1_555 1_555
C55_8 C20_8 1_555 1_555
C56_8 C15_8 1_555 1_555
N12_4 C54_8 1_555 1_555
C58_8 C45_8 1_555 1_555
H66_8 C58_8 1_555 1_555
C59_8 C2_8 1_555 1_555
C60_8 C18_8 1_555 1_555
H67_8 C60_8 1_555 1_555
C61_8 C55_8 1_555 1_555
H68_8 C61_8 1_555 1_555
H69_8 C61_8 1_555 1_555
H70_8 C61_8 1_555 1_555
C62_8 C22_8 1_555 1_555
C65_8 C41_8 1_555 1_555
C66_8 C8_8 1_555 1_555
H73_8 C66_8 1_555 1_555
C67_8 C27_8 1_555 1_555
H74_8 C67_8 1_555 1_555
C68_8 C23_8 1_555 1_555
H75_8 C68_8 1_555 1_555
H76_8 C68_8 1_555 1_555
H77_8 C68_8 1_555 1_555
O7_8 Co5_2 1_555 1_555
O8_8 Co5_2 1_555 1_555
O10_8 Co5_2 1_555 1_555
O11_8 Co5_2 1_555 1_555
C107_8 O10_8 1_555 1_555
C108_8 O8_8 1_555 1_555
C110_8 H113_8 1_555 1_555
H114_8 C110_8 1_555 1_555
H115_8 C110_8 1_555 1_555
C111_8 H116_8 1_555 1_555
H120_8 C116_8 1_555 1_555
C117_8 O7_8 1_555 1_555
C118_8 C127_8 1_555 1_555
C120_8 H124_8 1_555 1_555
H125_8 C120_8 1_555 1_555
H126_8 C120_8 1_555 1_555
C122_8 H130_8 1_555 1_555
H131_8 C122_8 1_555 1_555
H132_8 C122_8 1_555 1_555
C125_8 H136_8 1_555 1_555
H138_8 C125_8 1_555 1_555
C126_8 O11_8 1_555 1_555
C127_8 C116_8 1_555 1_555
C128_8 C118_8 1_555 1_555
H139_8 C128_8 1_555 1_555
H140_8 C128_8 1_555 1_555
H141_8 C128_8 1_555 1_555
C129_8 C118_8 1_555 1_555
H142_8 C129_8 1_555 1_555
H143_8 C129_8 1_555 1_555
H144_8 C129_8 1_555 1_555
C130_8 C118_8 1_555 1_555
H145_8 C130_8 1_555 1_555
H147_8 C130_8 1_555 1_555
C132_8 C110_8 1_555 1_555
C133_8 C107_8 1_555 1_555
C135_8 C117_8 1_555 1_555
H151_8 C135_8 1_555 1_555
H153_8 C136_8 1_555 1_555
H154_8 C136_8 1_555 1_555
N10_8 Co1_8 1_555 1_555
Co8_2 O2_8 1_555 1_555
C1_8 N3_8 1_555 1_555
C2_8 C7_8 1_555 1_555
C6_8 C39_8 1_555 1_555
C19_8 C46_8 1_555 1_555
C19_8 C59_8 1_555 1_555
C23_8 C46_8 1_555 1_555
C24_8 C55_8 1_555 1_555
O6_8 C49_8 1_555 1_555
C31_8 C55_8 1_555 1_555
C32_8 C56_8 1_555 1_555
C35_8 C56_8 1_555 1_555
C39_8 C41_8 1_555 1_555
C43_8 C65_8 1_555 1_555
C48_8 C49_8 1_555 1_555
C50_8 C67_8 1_555 1_555
C54_8 C66_8 1_555 1_555
N3_8 C58_8 1_555 1_555
C56_8 C59_8 1_555 1_555
N12_4 C60_8 1_555 1_555
C62_8 C65_8 1_555 1_555
C107_8 C108_8 1_555 1_555
C111_8 C124_8 1_555 1_555
C111_8 C133_8 1_555 1_555
C120_8 C132_8 1_555 1_555
C122_8 C132_8 1_555 1_555
C125_8 C126_8 1_555 1_555
C127_8 C135_8 1_555 1_555
C132_8 C133_8 1_555 1_555
C69_8 H78_8 1_555 1_555
C70_8 H79_8 1_555 1_555
H80_8 C70_8 1_555 1_555
H81_8 C70_8 1_555 1_555
C71_8 C72_8 1_555 1_555
C72_8 C75_8 1_555 1_555
C73_8 C69_8 1_555 1_555
H82_8 C73_8 1_555 1_555
C74_8 C73_8 1_555 1_555
C75_8 H83_8 1_555 1_555
C76_8 C71_8 1_555 1_555
C77_8 C76_8 1_555 1_555
H84_8 C77_8 1_555 1_555
H86_8 C77_8 1_555 1_555
C78_8 C70_8 1_555 1_555
C79_8 C74_8 1_555 1_555
C80_8 H87_8 1_555 1_555
H89_8 C80_8 1_555 1_555
C81_8 C74_8 1_555 1_555
H90_8 C81_8 1_555 1_555
C82_8 H91_8 1_555 1_555
N11_4 C69_8 1_555 1_555
N13_4 C82_8 1_555 1_555
C83_8 C81_8 1_555 1_555
H92_8 C83_8 1_555 1_555
C84_8 C75_8 1_555 1_555
H93_8 C84_8 1_555 1_555
C86_8 C79_8 1_555 1_555
C87_8 C72_8 1_555 1_555
H94_8 C87_8 1_555 1_555
C71_8 C78_8 1_555 1_555
C76_8 C85_8 1_555 1_555
C78_8 C79_8 1_555 1_555
C80_8 C86_8 1_555 1_555
C82_8 C87_8 1_555 1_555
N11_4 C83_8 1_555 1_555
N13_4 C84_8 1_555 1_555
C85_8 C86_8 1_555 1_555
C3_5 H2_5 1_555 1_555
H3_5 C3_5 1_555 1_555
H4_5 C3_5 1_555 1_555
C4_5 C14_5 1_555 1_555
C11_5 H10_5 1_555 1_555
C12_5 C11_5 1_555 1_555
C13_5 H11_5 1_555 1_555
H12_5 C13_5 1_555 1_555
H13_5 C13_5 1_555 1_555
C14_5 C3_5 1_555 1_555
C17_5 C12_5 1_555 1_555
C21_5 H22_5 1_555 1_555
C28_5 C12_5 1_555 1_555
H24_5 C28_5 1_555 1_555
C30_5 H25_5 1_555 1_555
C36_5 C30_5 1_555 1_555
H41_5 C36_5 1_555 1_555
C38_5 C4_5 1_555 1_555
C40_5 C38_5 1_555 1_555
H45_5 C40_5 1_555 1_555
H46_5 C40_5 1_555 1_555
H47_5 C40_5 1_555 1_555
C42_5 C14_5 1_555 1_555
C44_5 C13_5 1_555 1_555
N10_5 C21_5 1_555 1_555
C47_5 C11_5 1_555 1_555
H52_5 C47_5 1_555 1_555
C57_5 C4_5 1_555 1_555
C63_5 C57_5 1_555 1_555
H71_5 C63_5 1_555 1_555
C64_5 N9_5 1_555 1_555
H72_5 C64_5 1_555 1_555
C88_5 H95_5 1_555 1_555
H96_5 C88_5 1_555 1_555
H97_5 C88_5 1_555 1_555
C89_5 C93_5 1_555 1_555
C90_5 H98_5 1_555 1_555
C91_5 C90_5 1_555 1_555
C92_5 H99_5 1_555 1_555
H100_5 C92_5 1_555 1_555
H101_5 C92_5 1_555 1_555
C93_5 C88_5 1_555 1_555
C94_5 C91_5 1_555 1_555
C95_5 H102_5 1_555 1_555
C96_5 C91_5 1_555 1_555
H103_5 C96_5 1_555 1_555
C97_5 H104_5 1_555 1_555
C98_5 C97_5 1_555 1_555
H105_5 C98_5 1_555 1_555
C99_5 C89_5 1_555 1_555
C100_5 C99_5 1_555 1_555
H106_5 C100_5 1_555 1_555
H107_5 C100_5 1_555 1_555
H108_5 C100_5 1_555 1_555
C101_5 C42_5 1_555 1_555
N9_4 C98_5 1_555 1_555
C102_5 C92_5 1_555 1_555
N10_4 C95_5 1_555 1_555
C103_5 C90_5 1_555 1_555
H109_5 C103_5 1_555 1_555
C104_5 C89_5 1_555 1_555
C105_5 C104_5 1_555 1_555
H110_5 C105_5 1_555 1_555
C106_5 N9_4 1_555 1_555
H111_5 C106_5 1_555 1_555
C17_5 C38_5 1_555 1_555
C17_5 C44_5 1_555 1_555
C21_5 C28_5 1_555 1_555
C30_5 C57_5 1_555 1_555
C36_5 N9_5 1_555 1_555
C42_5 C44_5 1_555 1_555
N10_5 C47_5 1_555 1_555
C63_5 C64_5 1_555 1_555
C93_5 C101_5 1_555 1_555
C94_5 C99_5 1_555 1_555
C94_5 C102_5 1_555 1_555
C95_5 C96_5 1_555 1_555
C97_5 C104_5 1_555 1_555
C101_5 C102_5 1_555 1_555
N10_4 C103_5 1_555 1_555
C105_5 C106_5 1_555 1_555
C3_6 H2_6 1_555 1_555
H3_6 C3_6 1_555 1_555
H4_6 C3_6 1_555 1_555
C4_6 C14_6 1_555 1_555
C11_6 H10_6 1_555 1_555
C12_6 C11_6 1_555 1_555
C13_6 H11_6 1_555 1_555
H12_6 C13_6 1_555 1_555
H13_6 C13_6 1_555 1_555
C14_6 C3_6 1_555 1_555
C17_6 C12_6 1_555 1_555
C21_6 H22_6 1_555 1_555
C28_6 C12_6 1_555 1_555
H24_6 C28_6 1_555 1_555
C30_6 H25_6 1_555 1_555
C36_6 C30_6 1_555 1_555
H41_6 C36_6 1_555 1_555
C38_6 C4_6 1_555 1_555
C40_6 C38_6 1_555 1_555
H45_6 C40_6 1_555 1_555
H46_6 C40_6 1_555 1_555
H47_6 C40_6 1_555 1_555
C42_6 C14_6 1_555 1_555
C44_6 C13_6 1_555 1_555
N10_6 C21_6 1_555 1_555
C47_6 C11_6 1_555 1_555
H52_6 C47_6 1_555 1_555
C57_6 C4_6 1_555 1_555
C63_6 C57_6 1_555 1_555
H71_6 C63_6 1_555 1_555
C64_6 N9_6 1_555 1_555
H72_6 C64_6 1_555 1_555
C88_6 H95_6 1_555 1_555
H96_6 C88_6 1_555 1_555
H97_6 C88_6 1_555 1_555
C89_6 C93_6 1_555 1_555
C90_6 H98_6 1_555 1_555
C91_6 C90_6 1_555 1_555
C92_6 H99_6 1_555 1_555
H100_6 C92_6 1_555 1_555
H101_6 C92_6 1_555 1_555
C93_6 C88_6 1_555 1_555
C94_6 C91_6 1_555 1_555
C95_6 H102_6 1_555 1_555
C96_6 C91_6 1_555 1_555
H103_6 C96_6 1_555 1_555
C97_6 H104_6 1_555 1_555
C98_6 C97_6 1_555 1_555
H105_6 C98_6 1_555 1_555
C99_6 C89_6 1_555 1_555
C100_6 C99_6 1_555 1_555
H106_6 C100_6 1_555 1_555
H107_6 C100_6 1_555 1_555
H108_6 C100_6 1_555 1_555
C101_6 C42_6 1_555 1_555
N9_3 C98_6 1_555 1_555
C102_6 C92_6 1_555 1_555
N10_3 C95_6 1_555 1_555
C103_6 C90_6 1_555 1_555
H109_6 C103_6 1_555 1_555
C104_6 C89_6 1_555 1_555
C105_6 C104_6 1_555 1_555
H110_6 C105_6 1_555 1_555
C106_6 N9_3 1_555 1_555
H111_6 C106_6 1_555 1_555
C17_6 C38_6 1_555 1_555
C17_6 C44_6 1_555 1_555
C21_6 C28_6 1_555 1_555
C30_6 C57_6 1_555 1_555
C36_6 N9_6 1_555 1_555
C42_6 C44_6 1_555 1_555
N10_6 C47_6 1_555 1_555
C63_6 C64_6 1_555 1_555
C93_6 C101_6 1_555 1_555
C94_6 C99_6 1_555 1_555
C94_6 C102_6 1_555 1_555
C95_6 C96_6 1_555 1_555
C97_6 C104_6 1_555 1_555
C101_6 C102_6 1_555 1_555
N10_3 C103_6 1_555 1_555
C105_6 C106_6 1_555 1_555
C3_7 H2_7 1_555 1_555
H3_7 C3_7 1_555 1_555
H4_7 C3_7 1_555 1_555
C4_7 C14_7 1_555 1_555
C11_7 H10_7 1_555 1_555
C12_7 C11_7 1_555 1_555
C13_7 H11_7 1_555 1_555
H12_7 C13_7 1_555 1_555
H13_7 C13_7 1_555 1_555
C14_7 C3_7 1_555 1_555
C17_7 C12_7 1_555 1_555
C21_7 H22_7 1_555 1_555
C28_7 C12_7 1_555 1_555
H24_7 C28_7 1_555 1_555
C30_7 H25_7 1_555 1_555
C36_7 C30_7 1_555 1_555
H41_7 C36_7 1_555 1_555
C38_7 C4_7 1_555 1_555
C40_7 C38_7 1_555 1_555
H45_7 C40_7 1_555 1_555
H46_7 C40_7 1_555 1_555
H47_7 C40_7 1_555 1_555
C42_7 C14_7 1_555 1_555
C44_7 C13_7 1_555 1_555
N10_8 C21_7 1_555 1_555
C47_7 C11_7 1_555 1_555
H52_7 C47_7 1_555 1_555
C57_7 C4_7 1_555 1_555
C63_7 C57_7 1_555 1_555
H71_7 C63_7 1_555 1_555
C64_7 N9_8 1_555 1_555
H72_7 C64_7 1_555 1_555
C88_7 H95_7 1_555 1_555
H96_7 C88_7 1_555 1_555
H97_7 C88_7 1_555 1_555
C89_7 C93_7 1_555 1_555
C90_7 H98_7 1_555 1_555
C91_7 C90_7 1_555 1_555
C92_7 H99_7 1_555 1_555
H100_7 C92_7 1_555 1_555
H101_7 C92_7 1_555 1_555
C93_7 C88_7 1_555 1_555
C94_7 C91_7 1_555 1_555
C95_7 H102_7 1_555 1_555
C96_7 C91_7 1_555 1_555
H103_7 C96_7 1_555 1_555
C97_7 H104_7 1_555 1_555
C98_7 C97_7 1_555 1_555
H105_7 C98_7 1_555 1_555
C99_7 C89_7 1_555 1_555
C100_7 C99_7 1_555 1_555
H106_7 C100_7 1_555 1_555
H107_7 C100_7 1_555 1_555
H108_7 C100_7 1_555 1_555
C101_7 C42_7 1_555 1_555
N9 C98_7 1_555 1_555
C102_7 C92_7 1_555 1_555
N10 C95_7 1_555 1_555
C103_7 C90_7 1_555 1_555
H109_7 C103_7 1_555 1_555
C104_7 C89_7 1_555 1_555
C105_7 C104_7 1_555 1_555
H110_7 C105_7 1_555 1_555
C106_7 N9 1_555 1_555
H111_7 C106_7 1_555 1_555
C17_7 C38_7 1_555 1_555
C17_7 C44_7 1_555 1_555
C21_7 C28_7 1_555 1_555
C30_7 C57_7 1_555 1_555
C36_7 N9_8 1_555 1_555
C42_7 C44_7 1_555 1_555
N10_8 C47_7 1_555 1_555
C63_7 C64_7 1_555 1_555
C93_7 C101_7 1_555 1_555
C94_7 C99_7 1_555 1_555
C94_7 C102_7 1_555 1_555
C95_7 C96_7 1_555 1_555
C97_7 C104_7 1_555 1_555
C101_7 C102_7 1_555 1_555
N10 C103_7 1_555 1_555
C105_7 C106_7 1_555 1_555
C3_8 H2_8 1_555 1_555
H3_8 C3_8 1_555 1_555
H4_8 C3_8 1_555 1_555
C4_8 C14_8 1_555 1_555
C11_8 H10_8 1_555 1_555
C12_8 C11_8 1_555 1_555
C13_8 H11_8 1_555 1_555
H12_8 C13_8 1_555 1_555
H13_8 C13_8 1_555 1_555
C14_8 C3_8 1_555 1_555
C17_8 C12_8 1_555 1_555
C21_8 H22_8 1_555 1_555
C28_8 C12_8 1_555 1_555
H24_8 C28_8 1_555 1_555
C30_8 H25_8 1_555 1_555
C36_8 C30_8 1_555 1_555
H41_8 C36_8 1_555 1_555
C38_8 C4_8 1_555 1_555
C40_8 C38_8 1_555 1_555
H45_8 C40_8 1_555 1_555
H46_8 C40_8 1_555 1_555
H47_8 C40_8 1_555 1_555
C42_8 C14_8 1_555 1_555
C44_8 C13_8 1_555 1_555
N10_7 C21_8 1_555 1_555
C47_8 C11_8 1_555 1_555
H52_8 C47_8 1_555 1_555
C57_8 C4_8 1_555 1_555
C63_8 C57_8 1_555 1_555
H71_8 C63_8 1_555 1_555
C64_8 N9_7 1_555 1_555
H72_8 C64_8 1_555 1_555
C88_8 H95_8 1_555 1_555
H96_8 C88_8 1_555 1_555
H97_8 C88_8 1_555 1_555
C89_8 C93_8 1_555 1_555
C90_8 H98_8 1_555 1_555
C91_8 C90_8 1_555 1_555
C92_8 H99_8 1_555 1_555
H100_8 C92_8 1_555 1_555
H101_8 C92_8 1_555 1_555
C93_8 C88_8 1_555 1_555
C94_8 C91_8 1_555 1_555
C95_8 H102_8 1_555 1_555
C96_8 C91_8 1_555 1_555
H103_8 C96_8 1_555 1_555
C97_8 H104_8 1_555 1_555
C98_8 C97_8 1_555 1_555
H105_8 C98_8 1_555 1_555
C99_8 C89_8 1_555 1_555
C100_8 C99_8 1_555 1_555
H106_8 C100_8 1_555 1_555
H107_8 C100_8 1_555 1_555
H108_8 C100_8 1_555 1_555
C101_8 C42_8 1_555 1_555
N9_2 C98_8 1_555 1_555
C102_8 C92_8 1_555 1_555
N10_2 C95_8 1_555 1_555
C103_8 C90_8 1_555 1_555
H109_8 C103_8 1_555 1_555
C104_8 C89_8 1_555 1_555
C105_8 C104_8 1_555 1_555
H110_8 C105_8 1_555 1_555
C106_8 N9_2 1_555 1_555
H111_8 C106_8 1_555 1_555
C17_8 C38_8 1_555 1_555
C17_8 C44_8 1_555 1_555
C21_8 C28_8 1_555 1_555
C30_8 C57_8 1_555 1_555
C36_8 N9_7 1_555 1_555
C42_8 C44_8 1_555 1_555
N10_7 C47_8 1_555 1_555
C63_8 C64_8 1_555 1_555
C93_8 C101_8 1_555 1_555
C94_8 C99_8 1_555 1_555
C94_8 C102_8 1_555 1_555
C95_8 C96_8 1_555 1_555
C97_8 C104_8 1_555 1_555
C101_8 C102_8 1_555 1_555
N10_2 C103_8 1_555 1_555
C105_8 C106_8 1_555 1_555

#END
