
###############################################################################
#
# This file contains modified crystal structure data generated from the
# MOF subset of the Cambridge Structural Database (CSD) v543 
# hosted by the Cambridge Crystallographic Data Centre (CCDC).
#
# This work is licensed under the Creative Commons
# Attribution-NonCommercial-ShareAlike 4.0 International License.
# To view a copy of this license, visit
# http://creativecommons.org/licenses/by-nc-sa/4.0/
# or send a letter to
# Creative Commons, PO Box 1866, Mountain View, CA 94042, USA.
#
# CIF created using the CSD Python API on 29 September 2022
# The structure has been converted into the P1 space group
# The structure has a 3D framework
# The original CSD entry JOHFAQ is in the tetragonal crystal system
# The framework has been calculated to contain at least 10.0% void space
# The void calculation uses a probe of radius 1.32A, grid spacing 0.4
#
###############################################################################

data_JOHFAQ
_chemical_formula_moiety         '(C1088 H1232 Co32 N64 O96)n'
_symmetry_cell_setting           triclinic
_symmetry_space_group_name_H-M   'P 1'
_symmetry_Int_Tables_number      1
_space_group_name_Hall           'P 1'
loop_
_symmetry_equiv_pos_site_id
_symmetry_equiv_pos_as_xyz
1 x,y,z
_cell_length_a                   31.034(2)
_cell_length_b                   31.034(2)
_cell_length_c                   53.217(4)
_cell_angle_alpha                90
_cell_angle_beta                 90
_cell_angle_gamma                90
_cell_volume                     51253.8
loop_
_atom_site_label
_atom_site_type_symbol
_atom_site_fract_x
_atom_site_fract_y
_atom_site_fract_z
Co1 Co 0.5737(4) 0.2727(5) 0.3742(3)
Co2 Co 0.4754(4) 0.2767(4) 0.3770(3)
O1 O 0.5240(16) 0.2836(12) 0.4028(10)
O2 O 0.5238(13) 0.2826(11) 0.3470(8)
O3 O 0.4663(13) 0.3396(10) 0.3828(7)
O4 O 0.5813(12) 0.3394(13) 0.3699(7)
C1 C 0.6308(14) 0.2283(15) 0.4156(10)
H1 H 0.6147 0.2025 0.4139
O5 O 0.5582(12) 0.2103(12) 0.3774(8)
C2 C 0.5607(9) 0.3519(10) 0.3496(5)
C3 C 0.3503(18) 0.2815(17) 0.2630(11)
H2 H 0.3554 0.3123 0.2601
H3 H 0.3452 0.2671 0.2469
H4 H 0.3756 0.2688 0.2712
C4 C 0.3149(9) 0.2713(10) 0.3045(8)
C5 C 0.7763(18) 0.2564(13) 0.4077(7)
H5 H 0.8062 0.2604 0.4023
H6 H 0.7578 0.2773 0.3992
H7 H 0.7669 0.2271 0.4034
C6 C 0.8119(11) 0.2636(9) 0.4495(9)
C7 C 0.5269(10) 0.3249(11) 0.3392(6)
C8 C 0.8554(12) 0.2583(13) 0.4335(7)
C9 C 0.4995(10) 0.3418(14) 0.3201(6)
H8 H 0.4775 0.3240 0.3134
C10 C 0.6647(14) 0.2310(11) 0.4337(9)
H9 H 0.6675 0.2097 0.4464
C11 C 0.1742(13) 0.2891(11) 0.3329(7)
H10 H 0.1872 0.3167 0.3341
C12 C 0.1925(10) 0.2571(14) 0.3171(6)
C13 C 0.1950(13) 0.2675(18) 0.2643(11)
H11 H 0.1996 0.2664 0.2460
H12 H 0.1781 0.2932 0.2685
H13 H 0.1794 0.2417 0.2697
C14 C 0.3155(13) 0.2764(11) 0.2780(8)
C15 C 0.5919(17) 0.432(2) 0.3784(9)
H14 H 0.5877 0.4631 0.3801
H15 H 0.6170 0.4232 0.3884
H16 H 0.5663 0.4168 0.3845
C16 C 0.6941(10) 0.2659(10) 0.4324(6)
C17 C 0.2359(9) 0.2654(15) 0.3036(8)
C18 C 0.8767(16) 0.2886(10) 0.4179(8)
H17 H 0.8657 0.3171 0.4164
C19 C 0.5375(13) 0.4107(13) 0.3211(6)
H18 H 0.5412 0.4393 0.3152
C20 C 0.4600(17) 0.4309(19) 0.3786(8)
H19 H 0.4905 0.4387 0.3768
H20 H 0.4419 0.4546 0.3725
H21 H 0.4541 0.4049 0.3687
C21 C 0.1354(14) 0.2065(12) 0.3295(8)
H22 H 0.1224 0.1788 0.3283
C22 C 0.8100(12) 0.2690(10) 0.4760(9)
C23 C 0.4766(12) 0.4030(14) 0.2912(6)
C24 C 0.4834(9) 0.3916(9) 0.4149(5)
C25 C 0.4887(10) 0.3525(9) 0.4036(6)
C26 C 0.5089(11) 0.4042(13) 0.4352(6)
H23 H 0.5045 0.4316 0.4427
C27 C 0.5206(10) 0.3241(11) 0.4127(7)
C28 C 0.1732(13) 0.2157(12) 0.3153(7)
H24 H 0.1854 0.1943 0.3047
C29 C 0.5697(16) 0.385(2) 0.4658(8)
C30 C 0.3616(12) 0.3136(10) 0.3322(7)
H25 H 0.3430 0.3376 0.3300
C31 C 0.4494(17) 0.4640(12) 0.4211(10)
H26 H 0.4786 0.4758 0.4223
H27 H 0.4384 0.4581 0.4380
H28 H 0.4305 0.4850 0.4128
C32 C 0.591(2) 0.4663(15) 0.3423(11)
H29 H 0.5603 0.4730 0.3443
H30 H 0.5989 0.4689 0.3245
H31 H 0.6081 0.4864 0.3523
C33 C 0.4405(15) 0.4337(15) 0.2974(10)
H32 H 0.4260 0.4425 0.2819
H33 H 0.4523 0.4591 0.3059
H34 H 0.4197 0.4193 0.3085
C34 C 0.859(2) 0.2738(18) 0.4910(12)
H35 H 0.8680 0.2454 0.4969
H36 H 0.8554 0.2932 0.5054
H37 H 0.8799 0.2856 0.4794
C35 C 0.6423(16) 0.403(2) 0.3470(11)
H38 H 0.6603 0.4084 0.3618
H39 H 0.6554 0.4161 0.3322
H40 H 0.6401 0.3716 0.3444
C36 C 0.3989(14) 0.3175(14) 0.3475(6)
H41 H 0.4057 0.3439 0.3556
C37 C 0.4580(17) 0.3602(13) 0.2775(11)
H42 H 0.4492 0.3392 0.2902
H43 H 0.4805 0.3476 0.2669
H44 H 0.4331 0.3679 0.2671
C38 C 0.2753(12) 0.2652(10) 0.3173(6)
C39 C 0.7732(13) 0.2626(7) 0.4351(6)
C40 C 0.2755(18) 0.2582(18) 0.3442(7)
H45 H 0.2994 0.2390 0.3487
H46 H 0.2482 0.2450 0.3493
H47 H 0.2791 0.2858 0.3529
C41 C 0.7327(10) 0.2670(7) 0.4473(6)
C42 C 0.2762(17) 0.2753(13) 0.2643(6)
C43 C 0.6896(14) 0.2762(18) 0.4863(9)
H48 H 0.6802 0.3064 0.4861
H49 H 0.6924 0.2666 0.5038
H50 H 0.6682 0.2583 0.4777
N1 N 0.4261(11) 0.2804(17) 0.3503(7)
C44 C 0.2365(13) 0.2695(11) 0.2770(8)
N2 N 0.1172(10) 0.2384(17) 0.3453(7)
C45 C 0.6864(12) 0.3011(10) 0.4160(7)
H51 H 0.7054 0.3251 0.4158
C46 C 0.5040(11) 0.3846(16) 0.3107(5)
C47 C 0.1364(13) 0.2798(15) 0.3471(6)
H52 H 0.1241 0.3011 0.3576
C48 C 0.5228(16) 0.1431(11) 0.3685(10)
H53 H 0.5410 0.1370 0.3539
H54 H 0.4932 0.1339 0.3649
H55 H 0.5338 0.1275 0.3831
O6 O 0.4888(12) 0.2109(12) 0.3748(9)
C49 C 0.5408(10) 0.3767(16) 0.4448(6)
C50 C 0.6112(19) 0.365(2) 0.4751(12)
H56 H 0.6130 0.3684 0.4934
H57 H 0.6357 0.3797 0.4671
H58 H 0.6117 0.3344 0.4708
C51 C 0.593(2) 0.425(2) 0.4575(14)
H59 H 0.6031 0.4217 0.4403
H60 H 0.6171 0.4307 0.4687
H61 H 0.5726 0.4497 0.4583
C52 C 0.5396(18) 0.392(2) 0.4881(13)
H62 H 0.5296 0.4216 0.4883
H63 H 0.5550 0.3853 0.5037
H64 H 0.5147 0.3723 0.4865
C53 C 0.9093(16) 0.2035(13) 0.4223(10)
H65 H 0.9202 0.1750 0.4237
N3 N 0.6215(13) 0.2646(18) 0.4002(8)
C54 C 0.4502(11) 0.4223(10) 0.4059(7)
C55 C 0.5994(13) 0.4208(12) 0.3510(8)
N4 N 0.9306(11) 0.234(2) 0.4066(8)
C56 C 0.3521(10) 0.2737(11) 0.3203(6)
C57 C 0.6501(14) 0.3002(14) 0.3996(7)
H66 H 0.6450 0.3235 0.3884
C58 C 0.5650(10) 0.3952(11) 0.3399(6)
C59 C 0.9143(16) 0.2765(18) 0.4044(7)
H67 H 0.9285 0.2968 0.3939
C60 C 0.4074(17) 0.3987(17) 0.4077(11)
H68 H 0.3895 0.4123 0.4207
H69 H 0.4126 0.3685 0.4122
H70 H 0.3925 0.4001 0.3915
C61 C 0.7693(15) 0.2733(12) 0.4882(6)
C62 C 0.3791(13) 0.2374(10) 0.3232(7)
H71 H 0.3720 0.2110 0.3151
C63 C 0.4170(12) 0.2403(15) 0.3384(8)
H72 H 0.4355 0.2162 0.3405
C64 C 0.7308(12) 0.2724(10) 0.4737(6)
C65 C 0.8717(16) 0.2156(12) 0.4357(7)
H73 H 0.8574 0.1953 0.4462
C66 C 0.5461(11) 0.3370(15) 0.4332(7)
H74 H 0.5677 0.3179 0.4393
C67 C 0.5017(16) 0.4226(17) 0.2657(9)
H75 H 0.4820 0.4415 0.2565
H76 H 0.5105 0.3987 0.2549
H77 H 0.5271 0.4390 0.2710
C68 C 0.5233(14) 0.1909(12) 0.3738(7)
C69 C 0.7283(15) 0.1308(14) 0.5844(10)
H78 H 0.7025 0.1147 0.5861
C70 C 0.7564(13) 0.2763(18) 0.5923(7)
H79 H 0.7604 0.3062 0.5977
H80 H 0.7773 0.2578 0.6008
H81 H 0.7271 0.2669 0.5966
C71 C 0.7636(9) 0.3119(11) 0.5505(9)
C72 C 0.7583(13) 0.3554(12) 0.5665(7)
C73 C 0.7310(11) 0.1647(14) 0.5663(9)
H82 H 0.7097 0.1675 0.5536
C74 C 0.7659(10) 0.1941(10) 0.5676(6)
C75 C 0.7886(10) 0.3767(16) 0.5821(8)
H83 H 0.8171 0.3657 0.5836
C76 C 0.7690(10) 0.3100(12) 0.5240(9)
C77 C 0.7738(18) 0.359(2) 0.5090(12)
H84 H 0.7454 0.3680 0.5031
H85 H 0.7932 0.3554 0.4946
H86 H 0.7856 0.3799 0.5206
C78 C 0.7626(7) 0.2732(13) 0.5649(6)
C79 C 0.7670(7) 0.2327(10) 0.5527(6)
C80 C 0.7762(18) 0.1896(14) 0.5137(9)
H87 H 0.8064 0.1802 0.5139
H88 H 0.7666 0.1924 0.4962
H89 H 0.7583 0.1682 0.5223
C81 C 0.8011(10) 0.1864(12) 0.5840(7)
H90 H 0.8251 0.2054 0.5842
C82 C 0.7035(13) 0.4093(16) 0.5777(10)
H91 H 0.6750 0.4202 0.5763
N5 N 0.7646(18) 0.1215(13) 0.5998(8)
N6 N 0.734(2) 0.4306(11) 0.5934(8)
C83 C 0.8002(14) 0.1501(14) 0.6004(7)
H92 H 0.8235 0.1450 0.6116
C84 C 0.7765(18) 0.4143(16) 0.5956(7)
H93 H 0.7968 0.4285 0.6061
C85 C 0.7733(12) 0.2693(15) 0.5118(6)
C86 C 0.7724(10) 0.2308(12) 0.5263(6)
C87 C 0.7156(12) 0.3717(16) 0.5643(7)
H94 H 0.6953 0.3574 0.5538
C88 C 0.2815(17) 0.3503(18) 0.2370(11)
H95 H 0.3123 0.3554 0.2399
H96 H 0.2671 0.3452 0.2531
H97 H 0.2688 0.3756 0.2288
C89 C 0.2713(10) 0.3149(9) 0.1955(8)
C90 C 0.2891(11) 0.1742(13) 0.1671(7)
H98 H 0.3167 0.1872 0.1659
C91 C 0.2571(14) 0.1925(10) 0.1829(6)
C92 C 0.2675(18) 0.1950(13) 0.2357(11)
H99 H 0.2664 0.1996 0.2540
H100 H 0.2932 0.1781 0.2315
H101 H 0.2417 0.1794 0.2303
C93 C 0.2764(11) 0.3155(13) 0.2220(8)
C94 C 0.2654(15) 0.2359(9) 0.1964(8)
C95 C 0.2065(12) 0.1354(14) 0.1705(8)
H102 H 0.1788 0.1224 0.1717
C96 C 0.2157(12) 0.1732(13) 0.1847(7)
H103 H 0.1943 0.1854 0.1953
C97 C 0.3136(10) 0.3616(12) 0.1678(7)
H104 H 0.3376 0.3430 0.1700
C98 C 0.3175(14) 0.3989(14) 0.1525(6)
H105 H 0.3439 0.4057 0.1444
C99 C 0.2652(10) 0.2753(12) 0.1827(6)
C100 C 0.2582(18) 0.2755(18) 0.1558(7)
H106 H 0.2390 0.2994 0.1513
H107 H 0.2450 0.2482 0.1507
H108 H 0.2858 0.2791 0.1471
C101 C 0.2753(13) 0.2762(17) 0.2357(6)
N7 N 0.2804(17) 0.4261(11) 0.1497(7)
C102 C 0.2695(11) 0.2365(13) 0.2230(8)
N8 N 0.2384(17) 0.1172(10) 0.1547(7)
C103 C 0.2798(15) 0.1364(13) 0.1529(6)
H109 H 0.3011 0.1241 0.1424
C104 C 0.2737(11) 0.3521(10) 0.1797(6)
C105 C 0.2374(10) 0.3791(13) 0.1768(7)
H110 H 0.2110 0.3720 0.1849
C106 C 0.2403(15) 0.4170(12) 0.1616(8)
H111 H 0.2162 0.4355 0.1595
Co3 Co 0.0737(4) 0.2273(5) 0.3742(3)
O7 O 0.0240(16) 0.2164(12) 0.4028(10)
O8 O 0.0238(13) 0.2174(11) 0.3470(8)
O10 O 0.0813(12) 0.1606(13) 0.3699(7)
O11 O 0.0582(12) 0.2897(12) 0.3774(8)
C107 C 0.0607(9) 0.1481(10) 0.3496(5)
C108 C 0.0269(10) 0.1751(11) 0.3392(6)
C110 C 0.0919(17) 0.068(2) 0.3784(9)
H113 H 0.0877 0.0369 0.3801
H114 H 0.1170 0.0768 0.3884
H115 H 0.0663 0.0832 0.3845
C111 C 0.0375(13) 0.0893(13) 0.3211(6)
H116 H 0.0412 0.0607 0.3152
C116 C 0.0089(11) 0.0958(13) 0.4352(6)
H120 H 0.0045 0.0684 0.4427
C117 C 0.0206(10) 0.1759(11) 0.4127(7)
C118 C 0.0697(16) 0.115(2) 0.4658(8)
C120 C 0.091(2) 0.0337(15) 0.3423(11)
H124 H 0.0603 0.0270 0.3443
H125 H 0.0989 0.0311 0.3245
H126 H 0.1081 0.0136 0.3523
C122 C 0.1423(16) 0.097(2) 0.3470(11)
H130 H 0.1603 0.0916 0.3618
H131 H 0.1554 0.0839 0.3322
H132 H 0.1401 0.1284 0.3444
C124 C 0.0040(11) 0.1154(16) 0.3107(5)
C125 C 0.0228(16) 0.3569(11) 0.3685(10)
H136 H 0.0410 0.3630 0.3539
H138 H 0.0338 0.3725 0.3831
C126 C 0.0408(10) 0.1233(16) 0.4448(6)
C127 C 0.1112(19) 0.135(2) 0.4751(12)
H139 H 0.1130 0.1316 0.4934
H140 H 0.1357 0.1203 0.4671
H141 H 0.1117 0.1656 0.4708
C128 C 0.093(2) 0.075(2) 0.4575(14)
H142 H 0.1031 0.0783 0.4403
H143 H 0.1171 0.0693 0.4687
H144 H 0.0726 0.0503 0.4583
C129 C 0.0396(18) 0.108(2) 0.4881(13)
H145 H 0.0296 0.0784 0.4883
H146 H 0.0550 0.1147 0.5037
H147 H 0.0147 0.1277 0.4865
C131 C 0.0994(13) 0.0792(12) 0.3510(8)
C132 C 0.0650(10) 0.1048(11) 0.3399(6)
C134 C 0.0461(11) 0.1630(15) 0.4332(7)
H151 H 0.0677 0.1821 0.4393
C135 C 0.0017(16) 0.0774(17) 0.2657(9)
H153 H 0.0105 0.1013 0.2549
H154 H 0.0271 0.0610 0.2710
C136 C 0.0233(14) 0.3091(12) 0.3738(7)
Co5 Co 0.2273(5) 0.0737(4) 0.1258(3)
Co6 Co 0.7727(5) 0.0737(4) 0.6258(3)
Co7 Co 0.7233(4) 0.4754(4) 0.6230(3)
Co8 Co 0.2767(4) 0.4754(4) 0.1230(3)
Co9 Co 0.9754(4) 0.2233(4) 0.3770(3)
N10 N 0.6172(10) 0.2616(17) 0.3453(7)
N11 N 0.1215(13) 0.2354(18) 0.4002(8)
N13 N 0.4306(11) 0.266(2) 0.4066(8)
O9 O 0.9663(13) 0.1604(10) 0.3828(7)
C109 C 0.9995(10) 0.1582(14) 0.3201(6)
H112 H 0.9775 0.1760 0.3134
C112 C 0.9600(17) 0.0691(19) 0.3786(8)
H117 H 0.9905 0.0613 0.3768
H118 H 0.9419 0.0454 0.3725
H119 H 0.9541 0.0951 0.3687
C113 C 0.9766(12) 0.0970(14) 0.2912(6)
C114 C 0.9834(9) 0.1084(9) 0.4149(5)
C115 C 0.9887(10) 0.1475(9) 0.4036(6)
C119 C 0.9494(17) 0.0360(12) 0.4211(10)
H121 H 0.9786 0.0242 0.4223
H122 H 0.9384 0.0419 0.4380
H123 H 0.9305 0.0150 0.4128
C121 C 0.9405(15) 0.0663(15) 0.2974(10)
H127 H 0.9260 0.0575 0.2819
H128 H 0.9523 0.0409 0.3059
H129 H 0.9197 0.0807 0.3085
C123 C 0.9580(17) 0.1398(13) 0.2775(11)
H133 H 0.9492 0.1608 0.2902
H134 H 0.9805 0.1524 0.2669
H135 H 0.9331 0.1321 0.2671
H137 H 0.9932 0.3661 0.3649
O12 O 0.9888(12) 0.2891(12) 0.3748(9)
C130 C 0.9502(11) 0.0777(10) 0.4059(7)
C133 C 0.9074(17) 0.1013(17) 0.4077(11)
H148 H 0.8895 0.0877 0.4207
H149 H 0.9126 0.1315 0.4122
H150 H 0.8925 0.0999 0.3915
H152 H 0.9820 0.0585 0.2565
N9 N 0.9261(11) 0.2196(17) 0.3503(7)
Co4 Co 0.0246(4) 0.7767(4) 0.3770(3)
O9_2 O 0.0337(13) 0.8396(10) 0.3828(7)
C109_2 C 0.0005(10) 0.8418(14) 0.3201(6)
H112_2 H 0.0225 0.8240 0.3134
C112_2 C 0.0400(17) 0.9309(19) 0.3786(8)
H117_2 H 0.0095 0.9387 0.3768
H118_2 H 0.0581 0.9546 0.3725
H119_2 H 0.0459 0.9049 0.3687
C113_2 C 0.0234(12) 0.9030(14) 0.2912(6)
C114_2 C 0.0166(9) 0.8916(9) 0.4149(5)
C115_2 C 0.0113(10) 0.8525(9) 0.4036(6)
C119_2 C 0.0506(17) 0.9640(12) 0.4211(10)
H121_2 H 0.0214 0.9758 0.4223
H122_2 H 0.0616 0.9581 0.4380
H123_2 H 0.0695 0.9850 0.4128
C121_2 C 0.0595(15) 0.9337(15) 0.2974(10)
H127_2 H 0.0740 0.9425 0.2819
H128_2 H 0.0477 0.9591 0.3059
H129_2 H 0.0803 0.9193 0.3085
C123_2 C 0.0420(17) 0.8602(13) 0.2775(11)
H133_2 H 0.0508 0.8392 0.2902
H134_2 H 0.0195 0.8476 0.2669
H135_2 H 0.0669 0.8679 0.2671
H137_2 H 0.0068 0.6339 0.3649
O12_2 O 0.0112(12) 0.7109(12) 0.3748(9)
C130_2 C 0.0498(11) 0.9223(10) 0.4059(7)
C133_2 C 0.0926(17) 0.8987(17) 0.4077(11)
H148_2 H 0.1105 0.9123 0.4207
H149_2 H 0.0874 0.8685 0.4122
H150_2 H 0.1075 0.9001 0.3915
H152_2 H 0.0180 0.9415 0.2565
N9_2 N 0.0739(11) 0.7804(17) 0.3503(7)
N12 N 0.0694(11) 0.766(2) 0.4066(8)
Co1_2 Co 0.4263(4) 0.7273(5) 0.3742(3)
Co2_2 Co 0.5246(4) 0.7233(4) 0.3770(3)
O1_2 O 0.4760(16) 0.7164(12) 0.4028(10)
O2_2 O 0.4762(13) 0.7174(11) 0.3470(8)
O3_2 O 0.5337(13) 0.6604(10) 0.3828(7)
O4_2 O 0.4187(12) 0.6606(13) 0.3699(7)
C1_2 C 0.3692(14) 0.7717(15) 0.4156(10)
H1_2 H 0.3853 0.7975 0.4139
O5_2 O 0.4418(12) 0.7897(12) 0.3774(8)
C2_2 C 0.4393(9) 0.6481(10) 0.3496(5)
C3_2 C 0.6497(18) 0.7185(17) 0.2630(11)
H2_2 H 0.6446 0.6877 0.2601
H3_2 H 0.6548 0.7329 0.2469
H4_2 H 0.6244 0.7312 0.2712
C4_2 C 0.6851(9) 0.7287(10) 0.3045(8)
C5_2 C 0.2237(18) 0.7436(13) 0.4077(7)
H5_2 H 0.1938 0.7396 0.4023
H6_2 H 0.2422 0.7227 0.3992
H7_2 H 0.2331 0.7729 0.4034
C6_2 C 0.1881(11) 0.7364(9) 0.4495(9)
C7_2 C 0.4731(10) 0.6751(11) 0.3392(6)
C8_2 C 0.1446(12) 0.7417(13) 0.4335(7)
C9_2 C 0.5005(10) 0.6582(14) 0.3201(6)
H8_2 H 0.5225 0.6760 0.3134
C10_2 C 0.3353(14) 0.7690(11) 0.4337(9)
H9_2 H 0.3325 0.7903 0.4464
C11_2 C 0.8258(13) 0.7109(11) 0.3329(7)
H10_2 H 0.8128 0.6833 0.3341
C12_2 C 0.8075(10) 0.7429(14) 0.3171(6)
C13_2 C 0.8050(13) 0.7325(18) 0.2643(11)
H11_2 H 0.8004 0.7336 0.2460
H12_2 H 0.8219 0.7068 0.2685
H13_2 H 0.8206 0.7583 0.2697
C14_2 C 0.6845(13) 0.7236(11) 0.2780(8)
C15_2 C 0.4081(17) 0.568(2) 0.3784(9)
H14_2 H 0.4123 0.5369 0.3801
H15_2 H 0.3830 0.5768 0.3884
H16_2 H 0.4337 0.5832 0.3845
C16_2 C 0.3059(10) 0.7341(10) 0.4324(6)
C17_2 C 0.7641(9) 0.7346(15) 0.3036(8)
C18_2 C 0.1233(16) 0.7114(10) 0.4179(8)
H17_2 H 0.1343 0.6829 0.4164
C19_2 C 0.4625(13) 0.5893(13) 0.3211(6)
H18_2 H 0.4588 0.5607 0.3152
C20_2 C 0.5400(17) 0.5691(19) 0.3786(8)
H19_2 H 0.5095 0.5613 0.3768
H20_2 H 0.5581 0.5454 0.3725
H21_2 H 0.5459 0.5951 0.3687
C21_2 C 0.8646(14) 0.7935(12) 0.3295(8)
H22_2 H 0.8776 0.8212 0.3283
C22_2 C 0.1900(12) 0.7310(10) 0.4760(9)
C23_2 C 0.5234(12) 0.5970(14) 0.2912(6)
C24_2 C 0.5166(9) 0.6084(9) 0.4149(5)
C25_2 C 0.5113(10) 0.6475(9) 0.4036(6)
C26_2 C 0.4911(11) 0.5958(13) 0.4352(6)
H23_2 H 0.4955 0.5684 0.4427
C27_2 C 0.4794(10) 0.6759(11) 0.4127(7)
C28_2 C 0.8268(13) 0.7843(12) 0.3153(7)
H24_2 H 0.8146 0.8057 0.3047
C29_2 C 0.4303(16) 0.615(2) 0.4658(8)
C30_2 C 0.6384(12) 0.6864(10) 0.3322(7)
H25_2 H 0.6570 0.6624 0.3300
C31_2 C 0.5506(17) 0.5360(12) 0.4211(10)
H26_2 H 0.5214 0.5242 0.4223
H27_2 H 0.5616 0.5419 0.4380
H28_2 H 0.5695 0.5150 0.4128
C32_2 C 0.409(2) 0.5337(15) 0.3423(11)
H29_2 H 0.4397 0.5270 0.3443
H30_2 H 0.4011 0.5311 0.3245
H31_2 H 0.3919 0.5136 0.3523
C33_2 C 0.5595(15) 0.5663(15) 0.2974(10)
H32_2 H 0.5740 0.5575 0.2819
H33_2 H 0.5477 0.5409 0.3059
H34_2 H 0.5803 0.5807 0.3085
C34_2 C 0.141(2) 0.7262(18) 0.4910(12)
H35_2 H 0.1320 0.7546 0.4969
H36_2 H 0.1446 0.7068 0.5054
H37_2 H 0.1201 0.7144 0.4794
C35_2 C 0.3577(16) 0.597(2) 0.3470(11)
H38_2 H 0.3397 0.5916 0.3618
H39_2 H 0.3446 0.5839 0.3322
H40_2 H 0.3599 0.6284 0.3444
C36_2 C 0.6011(14) 0.6825(14) 0.3475(6)
H41_2 H 0.5943 0.6561 0.3556
C37_2 C 0.5420(17) 0.6398(13) 0.2775(11)
H42_2 H 0.5508 0.6608 0.2902
H43_2 H 0.5195 0.6524 0.2669
H44_2 H 0.5669 0.6321 0.2671
C38_2 C 0.7247(12) 0.7348(10) 0.3173(6)
C39_2 C 0.2268(13) 0.7374(7) 0.4351(6)
C40_2 C 0.7245(18) 0.7418(18) 0.3442(7)
H45_2 H 0.7006 0.7610 0.3487
H46_2 H 0.7518 0.7550 0.3493
H47_2 H 0.7209 0.7142 0.3529
C41_2 C 0.2673(10) 0.7330(7) 0.4473(6)
C42_2 C 0.7238(17) 0.7247(13) 0.2643(6)
C43_2 C 0.3104(14) 0.7238(18) 0.4863(9)
H48_2 H 0.3198 0.6936 0.4861
H49_2 H 0.3076 0.7334 0.5038
H50_2 H 0.3318 0.7417 0.4777
N1_2 N 0.5739(11) 0.7196(17) 0.3503(7)
C44_2 C 0.7635(13) 0.7305(11) 0.2770(8)
N2_2 N 0.8828(10) 0.7616(17) 0.3453(7)
C45_2 C 0.3136(12) 0.6989(10) 0.4160(7)
H51_2 H 0.2946 0.6749 0.4158
C46_2 C 0.4960(11) 0.6154(16) 0.3107(5)
C47_2 C 0.8636(13) 0.7202(15) 0.3471(6)
H52_2 H 0.8759 0.6989 0.3576
C48_2 C 0.4772(16) 0.8569(11) 0.3685(10)
H53_2 H 0.4590 0.8630 0.3539
H54_2 H 0.5068 0.8661 0.3649
H55_2 H 0.4662 0.8725 0.3831
O6_2 O 0.5112(12) 0.7891(12) 0.3748(9)
C49_2 C 0.4592(10) 0.6233(16) 0.4448(6)
C50_2 C 0.3888(19) 0.635(2) 0.4751(12)
H56_2 H 0.3870 0.6316 0.4934
H57_2 H 0.3643 0.6203 0.4671
H58_2 H 0.3883 0.6656 0.4708
C51_2 C 0.407(2) 0.575(2) 0.4575(14)
H59_2 H 0.3969 0.5783 0.4403
H60_2 H 0.3829 0.5693 0.4687
H61_2 H 0.4274 0.5503 0.4583
C52_2 C 0.4604(18) 0.608(2) 0.4881(13)
H62_2 H 0.4704 0.5784 0.4883
H63_2 H 0.4450 0.6147 0.5037
H64_2 H 0.4853 0.6277 0.4865
C53_2 C 0.0907(16) 0.7965(13) 0.4223(10)
H65_2 H 0.0798 0.8250 0.4237
N3_2 N 0.3785(13) 0.7354(18) 0.4002(8)
C54_2 C 0.5498(11) 0.5777(10) 0.4059(7)
C55_2 C 0.4006(13) 0.5792(12) 0.3510(8)
C56_2 C 0.6479(10) 0.7263(11) 0.3203(6)
C57_2 C 0.3499(14) 0.6998(14) 0.3996(7)
H66_2 H 0.3550 0.6765 0.3884
C58_2 C 0.4350(10) 0.6048(11) 0.3399(6)
C59_2 C 0.0857(16) 0.7235(18) 0.4044(7)
H67_2 H 0.0715 0.7032 0.3939
C60_2 C 0.5926(17) 0.6013(17) 0.4077(11)
H68_2 H 0.6105 0.5877 0.4207
H69_2 H 0.5874 0.6315 0.4122
H70_2 H 0.6075 0.5999 0.3915
C61_2 C 0.2307(15) 0.7267(12) 0.4882(6)
C62_2 C 0.6209(13) 0.7626(10) 0.3232(7)
H71_2 H 0.6280 0.7890 0.3151
C63_2 C 0.5830(12) 0.7597(15) 0.3384(8)
H72_2 H 0.5645 0.7838 0.3405
C64_2 C 0.2692(12) 0.7276(10) 0.4737(6)
C65_2 C 0.1283(16) 0.7844(12) 0.4357(7)
H73_2 H 0.1426 0.8047 0.4462
C66_2 C 0.4539(11) 0.6630(15) 0.4332(7)
H74_2 H 0.4323 0.6821 0.4393
C67_2 C 0.4983(16) 0.5774(17) 0.2657(9)
H75_2 H 0.5180 0.5585 0.2565
H76_2 H 0.4895 0.6013 0.2549
H77_2 H 0.4729 0.5610 0.2710
C68_2 C 0.4767(14) 0.8091(12) 0.3738(7)
C69_2 C 0.2717(15) 0.8692(14) 0.5844(10)
H78_2 H 0.2975 0.8853 0.5861
C70_2 C 0.2436(13) 0.7237(18) 0.5923(7)
H79_2 H 0.2396 0.6938 0.5977
H80_2 H 0.2227 0.7422 0.6008
H81_2 H 0.2729 0.7331 0.5966
C71_2 C 0.2364(9) 0.6881(11) 0.5505(9)
C72_2 C 0.2417(13) 0.6446(12) 0.5665(7)
C73_2 C 0.2690(11) 0.8353(14) 0.5663(9)
H82_2 H 0.2903 0.8325 0.5536
C74_2 C 0.2341(10) 0.8059(10) 0.5676(6)
C75_2 C 0.2114(10) 0.6233(16) 0.5821(8)
H83_2 H 0.1829 0.6343 0.5836
C76_2 C 0.2310(10) 0.6900(12) 0.5240(9)
C77_2 C 0.2262(18) 0.641(2) 0.5090(12)
H84_2 H 0.2546 0.6320 0.5031
H85_2 H 0.2068 0.6446 0.4946
H86_2 H 0.2144 0.6201 0.5206
C78_2 C 0.2374(7) 0.7268(13) 0.5649(6)
C79_2 C 0.2330(7) 0.7673(10) 0.5527(6)
C80_2 C 0.2238(18) 0.8104(14) 0.5137(9)
H87_2 H 0.1936 0.8198 0.5139
H88_2 H 0.2334 0.8076 0.4962
H89_2 H 0.2417 0.8318 0.5223
C81_2 C 0.1989(10) 0.8136(12) 0.5840(7)
H90_2 H 0.1749 0.7946 0.5842
C82_2 C 0.2965(13) 0.5907(16) 0.5777(10)
H91_2 H 0.3250 0.5798 0.5763
N5_2 N 0.2354(18) 0.8785(13) 0.5998(8)
N6_2 N 0.266(2) 0.5694(11) 0.5934(8)
C83_2 C 0.1998(14) 0.8499(14) 0.6004(7)
H92_2 H 0.1765 0.8550 0.6116
C84_2 C 0.2235(18) 0.5857(16) 0.5956(7)
H93_2 H 0.2032 0.5715 0.6061
C85_2 C 0.2267(12) 0.7307(15) 0.5118(6)
C86_2 C 0.2276(10) 0.7692(12) 0.5263(6)
C87_2 C 0.2844(12) 0.6283(16) 0.5643(7)
H94_2 H 0.3047 0.6426 0.5538
C88_2 C 0.7185(17) 0.6497(18) 0.2370(11)
H95_2 H 0.6877 0.6446 0.2399
H96_2 H 0.7329 0.6548 0.2531
H97_2 H 0.7312 0.6244 0.2288
C89_2 C 0.7287(10) 0.6851(9) 0.1955(8)
C90_2 C 0.7109(11) 0.8258(13) 0.1671(7)
H98_2 H 0.6833 0.8128 0.1659
C91_2 C 0.7429(14) 0.8075(10) 0.1829(6)
C92_2 C 0.7325(18) 0.8050(13) 0.2357(11)
H99_2 H 0.7336 0.8004 0.2540
H100_2 H 0.7068 0.8219 0.2315
H101_2 H 0.7583 0.8206 0.2303
C93_2 C 0.7236(11) 0.6845(13) 0.2220(8)
C94_2 C 0.7346(15) 0.7641(9) 0.1964(8)
C95_2 C 0.7935(12) 0.8646(14) 0.1705(8)
H102_2 H 0.8212 0.8776 0.1717
C96_2 C 0.7843(12) 0.8268(13) 0.1847(7)
H103_2 H 0.8057 0.8146 0.1953
C97_2 C 0.6864(10) 0.6384(12) 0.1678(7)
H104_2 H 0.6624 0.6570 0.1700
C98_2 C 0.6825(14) 0.6011(14) 0.1525(6)
H105_2 H 0.6561 0.5943 0.1444
C99_2 C 0.7348(10) 0.7247(12) 0.1827(6)
C100_2 C 0.7418(18) 0.7245(18) 0.1558(7)
H106_2 H 0.7610 0.7006 0.1513
H107_2 H 0.7550 0.7518 0.1507
H108_2 H 0.7142 0.7209 0.1471
C101_2 C 0.7247(13) 0.7238(17) 0.2357(6)
N7_2 N 0.7196(17) 0.5739(11) 0.1497(7)
C102_2 C 0.7305(11) 0.7635(13) 0.2230(8)
N8_2 N 0.7616(17) 0.8828(10) 0.1547(7)
C103_2 C 0.7202(15) 0.8636(13) 0.1529(6)
H109_2 H 0.6989 0.8759 0.1424
C104_2 C 0.7263(11) 0.6479(10) 0.1797(6)
C105_2 C 0.7626(10) 0.6209(13) 0.1768(7)
H110_2 H 0.7890 0.6280 0.1849
C106_2 C 0.7597(15) 0.5830(12) 0.1616(8)
H111_2 H 0.7838 0.5645 0.1595
Co3_2 Co 0.9263(4) 0.7727(5) 0.3742(3)
O7_2 O 0.9760(16) 0.7836(12) 0.4028(10)
O8_2 O 0.9762(13) 0.7826(11) 0.3470(8)
O10_2 O 0.9187(12) 0.8394(13) 0.3699(7)
O11_2 O 0.9418(12) 0.7103(12) 0.3774(8)
C107_2 C 0.9393(9) 0.8519(10) 0.3496(5)
C108_2 C 0.9731(10) 0.8249(11) 0.3392(6)
C110_2 C 0.9081(17) 0.932(2) 0.3784(9)
H113_2 H 0.9123 0.9631 0.3801
H114_2 H 0.8830 0.9232 0.3884
H115_2 H 0.9337 0.9168 0.3845
C111_2 C 0.9625(13) 0.9107(13) 0.3211(6)
H116_2 H 0.9588 0.9393 0.3152
C116_2 C 0.9911(11) 0.9042(13) 0.4352(6)
H120_2 H 0.9955 0.9316 0.4427
C117_2 C 0.9794(10) 0.8241(11) 0.4127(7)
C118_2 C 0.9303(16) 0.885(2) 0.4658(8)
C120_2 C 0.909(2) 0.9663(15) 0.3423(11)
H124_2 H 0.9397 0.9730 0.3443
H125_2 H 0.9011 0.9689 0.3245
H126_2 H 0.8919 0.9864 0.3523
C122_2 C 0.8577(16) 0.903(2) 0.3470(11)
H130_2 H 0.8397 0.9084 0.3618
H131_2 H 0.8446 0.9161 0.3322
H132_2 H 0.8599 0.8716 0.3444
C124_2 C 0.9960(11) 0.8846(16) 0.3107(5)
C125_2 C 0.9772(16) 0.6431(11) 0.3685(10)
H136_2 H 0.9590 0.6370 0.3539
H138_2 H 0.9662 0.6275 0.3831
C126_2 C 0.9592(10) 0.8767(16) 0.4448(6)
C127_2 C 0.8888(19) 0.865(2) 0.4751(12)
H139_2 H 0.8870 0.8684 0.4934
H140_2 H 0.8643 0.8797 0.4671
H141_2 H 0.8883 0.8344 0.4708
C128_2 C 0.907(2) 0.925(2) 0.4575(14)
H142_2 H 0.8969 0.9217 0.4403
H143_2 H 0.8829 0.9307 0.4687
H144_2 H 0.9274 0.9497 0.4583
C129_2 C 0.9604(18) 0.892(2) 0.4881(13)
H145_2 H 0.9704 0.9216 0.4883
H146_2 H 0.9450 0.8853 0.5037
H147_2 H 0.9853 0.8723 0.4865
C131_2 C 0.9006(13) 0.9208(12) 0.3510(8)
C132_2 C 0.9350(10) 0.8952(11) 0.3399(6)
C134_2 C 0.9539(11) 0.8370(15) 0.4332(7)
H151_2 H 0.9323 0.8179 0.4393
C135_2 C 0.9983(16) 0.9226(17) 0.2657(9)
H153_2 H 0.9895 0.8987 0.2549
H154_2 H 0.9729 0.9390 0.2710
C136_2 C 0.9767(14) 0.6909(12) 0.3738(7)
Co5_2 Co 0.7727(5) 0.9263(4) 0.1258(3)
Co6_2 Co 0.2273(5) 0.9263(4) 0.6258(3)
Co7_2 Co 0.2767(4) 0.5246(4) 0.6230(3)
Co8_2 Co 0.7233(4) 0.5246(4) 0.1230(3)
N10_2 N 0.3828(10) 0.7384(17) 0.3453(7)
N11_2 N 0.8785(13) 0.7646(18) 0.4002(8)
N13_2 N 0.5694(11) 0.734(2) 0.4066(8)
Co4_2 Co 0.2233(4) 0.0246(4) 0.6230(3)
O9_3 O 0.1604(10) 0.0337(13) 0.6172(7)
C109_3 C 0.1582(14) 0.0005(10) 0.6799(6)
H112_3 H 0.1760 0.0225 0.6866
C112_3 C 0.0691(19) 0.0400(17) 0.6214(8)
H117_3 H 0.0613 0.0095 0.6232
H118_3 H 0.0454 0.0581 0.6275
H119_3 H 0.0951 0.0459 0.6313
C113_3 C 0.0970(14) 0.0234(12) 0.7088(6)
C114_3 C 0.1084(9) 0.0166(9) 0.5851(5)
C115_3 C 0.1475(9) 0.0113(10) 0.5964(6)
C119_3 C 0.0360(12) 0.0506(17) 0.5789(10)
H121_3 H 0.0242 0.0214 0.5777
H122_3 H 0.0419 0.0616 0.5620
H123_3 H 0.0150 0.0695 0.5872
C121_3 C 0.0663(15) 0.0595(15) 0.7026(10)
H127_3 H 0.0575 0.0740 0.7181
H128_3 H 0.0409 0.0477 0.6941
H129_3 H 0.0807 0.0803 0.6915
C123_3 C 0.1398(13) 0.0420(17) 0.7225(11)
H133_3 H 0.1608 0.0508 0.7098
H134_3 H 0.1524 0.0195 0.7331
H135_3 H 0.1321 0.0669 0.7329
H137_3 H 0.3661 0.0068 0.6351
O12_3 O 0.2891(12) 0.0112(12) 0.6252(9)
C130_3 C 0.0777(10) 0.0498(11) 0.5941(7)
C133_3 C 0.1013(17) 0.0926(17) 0.5923(11)
H148_3 H 0.0877 0.1105 0.5793
H149_3 H 0.1315 0.0874 0.5878
H150_3 H 0.0999 0.1075 0.6085
H152_3 H 0.0585 0.0180 0.7435
N9_3 N 0.2196(17) 0.0739(11) 0.6497(7)
N12_2 N 0.234(2) 0.0694(11) 0.5934(8)
Co1_3 Co 0.2727(5) 0.4263(4) 0.6258(3)
O1_3 O 0.2836(12) 0.4760(16) 0.5972(10)
O2_3 O 0.2826(11) 0.4762(13) 0.6530(8)
O3_3 O 0.3396(10) 0.5337(13) 0.6172(7)
O4_3 O 0.3394(13) 0.4187(12) 0.6301(7)
C1_3 C 0.2283(15) 0.3692(14) 0.5844(10)
H1_3 H 0.2025 0.3853 0.5861
O5_3 O 0.2103(12) 0.4418(12) 0.6226(8)
C2_3 C 0.3519(10) 0.4393(9) 0.6504(5)
C3_3 C 0.2815(17) 0.6497(18) 0.7370(11)
H2_3 H 0.3123 0.6446 0.7399
H3_3 H 0.2671 0.6548 0.7531
H4_3 H 0.2688 0.6244 0.7288
C4_3 C 0.2713(10) 0.6851(9) 0.6955(8)
C5_3 C 0.2564(13) 0.2237(18) 0.5923(7)
H5_3 H 0.2604 0.1938 0.5977
H6_3 H 0.2773 0.2422 0.6008
H7_3 H 0.2271 0.2331 0.5966
C6_3 C 0.2636(9) 0.1881(11) 0.5505(9)
C7_3 C 0.3249(11) 0.4731(10) 0.6608(6)
C8_3 C 0.2583(13) 0.1446(12) 0.5665(7)
C9_3 C 0.3418(14) 0.5005(10) 0.6799(6)
H8_3 H 0.3240 0.5225 0.6866
C10_3 C 0.2310(11) 0.3353(14) 0.5663(9)
H9_3 H 0.2097 0.3325 0.5536
C11_3 C 0.2891(11) 0.8258(13) 0.6671(7)
H10_3 H 0.3167 0.8128 0.6659
C12_3 C 0.2571(14) 0.8075(10) 0.6829(6)
C13_3 C 0.2675(18) 0.8050(13) 0.7357(11)
H11_3 H 0.2664 0.8004 0.7540
H12_3 H 0.2932 0.8219 0.7315
H13_3 H 0.2417 0.8206 0.7303
C14_3 C 0.2764(11) 0.6845(13) 0.7220(8)
C15_3 C 0.432(2) 0.4081(17) 0.6216(9)
H14_3 H 0.4631 0.4123 0.6199
H15_3 H 0.4232 0.3830 0.6116
H16_3 H 0.4168 0.4337 0.6155
C16_3 C 0.2659(10) 0.3059(10) 0.5676(6)
C17_3 C 0.2654(15) 0.7641(9) 0.6964(8)
C18_3 C 0.2886(10) 0.1233(16) 0.5821(8)
H17_3 H 0.3171 0.1343 0.5836
C19_3 C 0.4107(13) 0.4625(13) 0.6789(6)
H18_3 H 0.4393 0.4588 0.6848
C20_3 C 0.4309(19) 0.5400(17) 0.6214(8)
H19_3 H 0.4387 0.5095 0.6232
H20_3 H 0.4546 0.5581 0.6275
H21_3 H 0.4049 0.5459 0.6313
C21_3 C 0.2065(12) 0.8646(14) 0.6705(8)
H22_3 H 0.1788 0.8776 0.6717
C22_3 C 0.2690(10) 0.1900(12) 0.5240(9)
C23_3 C 0.4030(14) 0.5234(12) 0.7088(6)
C24_3 C 0.3916(9) 0.5166(9) 0.5851(5)
C25_3 C 0.3525(9) 0.5113(10) 0.5964(6)
C26_3 C 0.4042(13) 0.4911(11) 0.5648(6)
H23_3 H 0.4316 0.4955 0.5573
C27_3 C 0.3241(11) 0.4794(10) 0.5873(7)
C28_3 C 0.2157(12) 0.8268(13) 0.6847(7)
H24_3 H 0.1943 0.8146 0.6953
C29_3 C 0.385(2) 0.4303(16) 0.5342(8)
C30_3 C 0.3136(10) 0.6384(12) 0.6678(7)
H25_3 H 0.3376 0.6570 0.6700
C31_3 C 0.4640(12) 0.5506(17) 0.5789(10)
H26_3 H 0.4758 0.5214 0.5777
H27_3 H 0.4581 0.5616 0.5620
H28_3 H 0.4850 0.5695 0.5872
C32_3 C 0.4663(15) 0.409(2) 0.6577(11)
H29_3 H 0.4730 0.4397 0.6557
H30_3 H 0.4689 0.4011 0.6755
H31_3 H 0.4864 0.3919 0.6477
C33_3 C 0.4337(15) 0.5595(15) 0.7026(10)
H32_3 H 0.4425 0.5740 0.7181
H33_3 H 0.4591 0.5477 0.6941
H34_3 H 0.4193 0.5803 0.6915
C34_3 C 0.2738(18) 0.141(2) 0.5090(12)
H35_3 H 0.2454 0.1320 0.5031
H36_3 H 0.2932 0.1446 0.4946
H37_3 H 0.2856 0.1201 0.5206
C35_3 C 0.403(2) 0.3577(16) 0.6530(11)
H38_3 H 0.4084 0.3397 0.6382
H39_3 H 0.4161 0.3446 0.6678
H40_3 H 0.3716 0.3599 0.6556
C36_3 C 0.3175(14) 0.6011(14) 0.6525(6)
H41_3 H 0.3439 0.5943 0.6444
C37_3 C 0.3602(13) 0.5420(17) 0.7225(11)
H42_3 H 0.3392 0.5508 0.7098
H43_3 H 0.3476 0.5195 0.7331
H44_3 H 0.3679 0.5669 0.7329
C38_3 C 0.2652(10) 0.7247(12) 0.6827(6)
C39_3 C 0.2626(7) 0.2268(13) 0.5649(6)
C40_3 C 0.2582(18) 0.7245(18) 0.6558(7)
H45_3 H 0.2390 0.7006 0.6513
H46_3 H 0.2450 0.7518 0.6507
H47_3 H 0.2858 0.7209 0.6471
C41_3 C 0.2670(7) 0.2673(10) 0.5527(6)
C42_3 C 0.2753(13) 0.7238(17) 0.7357(6)
C43_3 C 0.2762(18) 0.3104(14) 0.5137(9)
H48_3 H 0.3064 0.3198 0.5139
H49_3 H 0.2666 0.3076 0.4962
H50_3 H 0.2583 0.3318 0.5223
N1_3 N 0.2804(17) 0.5739(11) 0.6497(7)
C44_3 C 0.2695(11) 0.7635(13) 0.7230(8)
N2_3 N 0.2384(17) 0.8828(10) 0.6547(7)
C45_3 C 0.3011(10) 0.3136(12) 0.5840(7)
H51_3 H 0.3251 0.2946 0.5842
C46_3 C 0.3846(16) 0.4960(11) 0.6893(5)
C47_3 C 0.2798(15) 0.8636(13) 0.6529(6)
H52_3 H 0.3011 0.8759 0.6424
C48_3 C 0.1431(11) 0.4772(16) 0.6315(10)
H53_3 H 0.1370 0.4590 0.6461
H54_3 H 0.1339 0.5068 0.6351
H55_3 H 0.1275 0.4662 0.6169
O6_3 O 0.2109(12) 0.5112(12) 0.6252(9)
C49_3 C 0.3767(16) 0.4592(10) 0.5552(6)
C50_3 C 0.365(2) 0.3888(19) 0.5249(12)
H56_3 H 0.3684 0.3870 0.5066
H57_3 H 0.3797 0.3643 0.5329
H58_3 H 0.3344 0.3883 0.5292
C51_3 C 0.425(2) 0.407(2) 0.5425(14)
H59_3 H 0.4217 0.3969 0.5597
H60_3 H 0.4307 0.3829 0.5313
H61_3 H 0.4497 0.4274 0.5417
C52_3 C 0.392(2) 0.4604(18) 0.5119(13)
H62_3 H 0.4216 0.4704 0.5117
H63_3 H 0.3853 0.4450 0.4963
H64_3 H 0.3723 0.4853 0.5135
C53_3 C 0.2035(13) 0.0907(16) 0.5777(10)
H65_3 H 0.1750 0.0798 0.5763
N3_3 N 0.2646(18) 0.3785(13) 0.5998(8)
C54_3 C 0.4223(10) 0.5498(11) 0.5941(7)
C55_3 C 0.4208(12) 0.4006(13) 0.6490(8)
C56_3 C 0.2737(11) 0.6479(10) 0.6797(6)
C57_3 C 0.3002(14) 0.3499(14) 0.6004(7)
H66_3 H 0.3235 0.3550 0.6116
C58_3 C 0.3952(11) 0.4350(10) 0.6601(6)
C59_3 C 0.2765(18) 0.0857(16) 0.5956(7)
H67_3 H 0.2968 0.0715 0.6061
C60_3 C 0.3987(17) 0.5926(17) 0.5923(11)
H68_3 H 0.4123 0.6105 0.5793
H69_3 H 0.3685 0.5874 0.5878
H70_3 H 0.4001 0.6075 0.6085
C61_3 C 0.2733(12) 0.2307(15) 0.5118(6)
C62_3 C 0.2374(10) 0.6209(13) 0.6768(7)
H71_3 H 0.2110 0.6280 0.6849
C63_3 C 0.2403(15) 0.5830(12) 0.6616(8)
H72_3 H 0.2162 0.5645 0.6595
C64_3 C 0.2724(10) 0.2692(12) 0.5263(6)
C65_3 C 0.2156(12) 0.1283(16) 0.5643(7)
H73_3 H 0.1953 0.1426 0.5538
C66_3 C 0.3370(15) 0.4539(11) 0.5668(7)
H74_3 H 0.3179 0.4323 0.5607
C67_3 C 0.4226(17) 0.4983(16) 0.7343(9)
H75_3 H 0.4415 0.5180 0.7435
H76_3 H 0.3987 0.4895 0.7451
H77_3 H 0.4390 0.4729 0.7290
C68_3 C 0.1909(12) 0.4767(14) 0.6262(7)
C69_3 C 0.1308(14) 0.2717(15) 0.4156(10)
H78_3 H 0.1147 0.2975 0.4139
C70_3 C 0.2763(18) 0.2436(13) 0.4077(7)
H79_3 H 0.3062 0.2396 0.4023
H80_3 H 0.2578 0.2227 0.3992
H81_3 H 0.2669 0.2729 0.4034
C71_3 C 0.3119(11) 0.2364(9) 0.4495(9)
C72_3 C 0.3554(12) 0.2417(13) 0.4335(7)
C73_3 C 0.1647(14) 0.2690(11) 0.4337(9)
H82_3 H 0.1675 0.2903 0.4464
C74_3 C 0.1941(10) 0.2341(10) 0.4324(6)
C75_3 C 0.3767(16) 0.2114(10) 0.4179(8)
H83_3 H 0.3657 0.1829 0.4164
C76_3 C 0.3100(12) 0.2310(10) 0.4760(9)
C77_3 C 0.359(2) 0.2262(18) 0.4910(12)
H84_3 H 0.3680 0.2546 0.4969
H85_3 H 0.3554 0.2068 0.5054
H86_3 H 0.3799 0.2144 0.4794
C78_3 C 0.2732(13) 0.2374(7) 0.4351(6)
C79_3 C 0.2327(10) 0.2330(7) 0.4473(6)
C80_3 C 0.1896(14) 0.2238(18) 0.4863(9)
H87_3 H 0.1802 0.1936 0.4861
H88_3 H 0.1924 0.2334 0.5038
H89_3 H 0.1682 0.2417 0.4777
C81_3 C 0.1864(12) 0.1989(10) 0.4160(7)
H90_3 H 0.2054 0.1749 0.4158
C82_3 C 0.4093(16) 0.2965(13) 0.4223(10)
H91_3 H 0.4202 0.3250 0.4237
C83_3 C 0.1501(14) 0.1998(14) 0.3996(7)
H92_3 H 0.1450 0.1765 0.3884
C84_3 C 0.4143(16) 0.2235(18) 0.4044(7)
H93_3 H 0.4285 0.2032 0.3939
C85_3 C 0.2693(15) 0.2267(12) 0.4882(6)
C86_3 C 0.2308(12) 0.2276(10) 0.4737(6)
C87_3 C 0.3717(16) 0.2844(12) 0.4357(7)
H94_3 H 0.3574 0.3047 0.4462
C88_3 C 0.3503(18) 0.7185(17) 0.7630(11)
H95_3 H 0.3554 0.6877 0.7601
H96_3 H 0.3452 0.7329 0.7469
H97_3 H 0.3756 0.7312 0.7712
C89_3 C 0.3149(9) 0.7287(10) 0.8045(8)
C90_3 C 0.1742(13) 0.7109(11) 0.8329(7)
H98_3 H 0.1872 0.6833 0.8341
C91_3 C 0.1925(10) 0.7429(14) 0.8171(6)
C92_3 C 0.1950(13) 0.7325(18) 0.7643(11)
H99_3 H 0.1996 0.7336 0.7460
H100_3 H 0.1781 0.7068 0.7685
H101_3 H 0.1794 0.7583 0.7697
C93_3 C 0.3155(13) 0.7236(11) 0.7780(8)
C94_3 C 0.2359(9) 0.7346(15) 0.8036(8)
C95_3 C 0.1354(14) 0.7935(12) 0.8295(8)
H102_3 H 0.1224 0.8212 0.8283
C96_3 C 0.1732(13) 0.7843(12) 0.8153(7)
H103_3 H 0.1854 0.8057 0.8047
C97_3 C 0.3616(12) 0.6864(10) 0.8322(7)
H104_3 H 0.3430 0.6624 0.8300
C98_3 C 0.3989(14) 0.6825(14) 0.8475(6)
H105_3 H 0.4057 0.6561 0.8556
C99_3 C 0.2753(12) 0.7348(10) 0.8173(6)
C100_3 C 0.2755(18) 0.7418(18) 0.8442(7)
H106_3 H 0.2994 0.7610 0.8487
H107_3 H 0.2482 0.7550 0.8493
H108_3 H 0.2791 0.7142 0.8529
C101_3 C 0.2762(17) 0.7247(13) 0.7643(6)
N7_3 N 0.4261(11) 0.7196(17) 0.8503(7)
C102_3 C 0.2365(13) 0.7305(11) 0.7770(8)
N8_3 N 0.1172(10) 0.7616(17) 0.8453(7)
C103_3 C 0.1364(13) 0.7202(15) 0.8471(6)
H109_3 H 0.1241 0.6989 0.8576
C104_3 C 0.3521(10) 0.7263(11) 0.8203(6)
C105_3 C 0.3791(13) 0.7626(10) 0.8232(7)
H110_3 H 0.3720 0.7890 0.8151
C106_3 C 0.4170(12) 0.7597(15) 0.8384(8)
H111_3 H 0.4355 0.7838 0.8405
O7_3 O 0.2164(12) 0.9760(16) 0.5972(10)
O8_3 O 0.2174(11) 0.9762(13) 0.6530(8)
O10_3 O 0.1606(13) 0.9187(12) 0.6301(7)
O11_3 O 0.2897(12) 0.9418(12) 0.6226(8)
C107_3 C 0.1481(10) 0.9393(9) 0.6504(5)
C108_3 C 0.1751(11) 0.9731(10) 0.6608(6)
C110_3 C 0.068(2) 0.9081(17) 0.6216(9)
H113_3 H 0.0369 0.9123 0.6199
H114_3 H 0.0768 0.8830 0.6116
H115_3 H 0.0832 0.9337 0.6155
C111_3 C 0.0893(13) 0.9625(13) 0.6789(6)
H116_3 H 0.0607 0.9588 0.6848
C116_3 C 0.0958(13) 0.9911(11) 0.5648(6)
H120_3 H 0.0684 0.9955 0.5573
C117_3 C 0.1759(11) 0.9794(10) 0.5873(7)
C118_3 C 0.115(2) 0.9303(16) 0.5342(8)
C120_3 C 0.0337(15) 0.909(2) 0.6577(11)
H124_3 H 0.0270 0.9397 0.6557
H125_3 H 0.0311 0.9011 0.6755
H126_3 H 0.0136 0.8919 0.6477
C122_3 C 0.097(2) 0.8577(16) 0.6530(11)
H130_3 H 0.0916 0.8397 0.6382
H131_3 H 0.0839 0.8446 0.6678
H132_3 H 0.1284 0.8599 0.6556
C124_3 C 0.1154(16) 0.9960(11) 0.6893(5)
C125_3 C 0.3569(11) 0.9772(16) 0.6315(10)
H136_3 H 0.3630 0.9590 0.6461
H138_3 H 0.3725 0.9662 0.6169
C126_3 C 0.1233(16) 0.9592(10) 0.5552(6)
C127_3 C 0.135(2) 0.8888(19) 0.5249(12)
H139_3 H 0.1316 0.8870 0.5066
H140_3 H 0.1203 0.8643 0.5329
H141_3 H 0.1656 0.8883 0.5292
C128_3 C 0.075(2) 0.907(2) 0.5425(14)
H142_3 H 0.0783 0.8969 0.5597
H143_3 H 0.0693 0.8829 0.5313
H144_3 H 0.0503 0.9274 0.5417
C129_3 C 0.108(2) 0.9604(18) 0.5119(13)
H145_3 H 0.0784 0.9704 0.5117
H146_3 H 0.1147 0.9450 0.4963
H147_3 H 0.1277 0.9853 0.5135
C131_3 C 0.0792(12) 0.9006(13) 0.6490(8)
C132_3 C 0.1048(11) 0.9350(10) 0.6601(6)
C134_3 C 0.1630(15) 0.9539(11) 0.5668(7)
H151_3 H 0.1821 0.9323 0.5607
C135_3 C 0.0774(17) 0.9983(16) 0.7343(9)
H153_3 H 0.1013 0.9895 0.7451
H154_3 H 0.0610 0.9729 0.7290
C136_3 C 0.3091(12) 0.9767(14) 0.6262(7)
Co5_3 Co 0.0737(4) 0.7727(5) 0.8742(3)
Co8_3 Co 0.4754(4) 0.7233(4) 0.8770(3)
N10_3 N 0.2616(17) 0.3828(10) 0.6547(7)
Co1_4 Co 0.7273(5) 0.5737(4) 0.6258(3)
O1_4 O 0.7164(12) 0.5240(16) 0.5972(10)
O2_4 O 0.7174(11) 0.5238(13) 0.6530(8)
O3_4 O 0.6604(10) 0.4663(13) 0.6172(7)
O4_4 O 0.6606(13) 0.5813(12) 0.6301(7)
C1_4 C 0.7717(15) 0.6308(14) 0.5844(10)
H1_4 H 0.7975 0.6147 0.5861
O5_4 O 0.7897(12) 0.5582(12) 0.6226(8)
C2_4 C 0.6481(10) 0.5607(9) 0.6504(5)
C3_4 C 0.7185(17) 0.3503(18) 0.7370(11)
H2_4 H 0.6877 0.3554 0.7399
H3_4 H 0.7329 0.3452 0.7531
H4_4 H 0.7312 0.3756 0.7288
C4_4 C 0.7287(10) 0.3149(9) 0.6955(8)
C5_4 C 0.7436(13) 0.7763(18) 0.5923(7)
H5_4 H 0.7396 0.8062 0.5977
H6_4 H 0.7227 0.7578 0.6008
H7_4 H 0.7729 0.7669 0.5966
C6_4 C 0.7364(9) 0.8119(11) 0.5505(9)
C7_4 C 0.6751(11) 0.5269(10) 0.6608(6)
C8_4 C 0.7417(13) 0.8554(12) 0.5665(7)
C9_4 C 0.6582(14) 0.4995(10) 0.6799(6)
H8_4 H 0.6760 0.4775 0.6866
C10_4 C 0.7690(11) 0.6647(14) 0.5663(9)
H9_4 H 0.7903 0.6675 0.5536
C11_4 C 0.7109(11) 0.1742(13) 0.6671(7)
H10_4 H 0.6833 0.1872 0.6659
C12_4 C 0.7429(14) 0.1925(10) 0.6829(6)
C13_4 C 0.7325(18) 0.1950(13) 0.7357(11)
H11_4 H 0.7336 0.1996 0.7540
H12_4 H 0.7068 0.1781 0.7315
H13_4 H 0.7583 0.1794 0.7303
C14_4 C 0.7236(11) 0.3155(13) 0.7220(8)
C15_4 C 0.568(2) 0.5919(17) 0.6216(9)
H14_4 H 0.5369 0.5877 0.6199
H15_4 H 0.5768 0.6170 0.6116
H16_4 H 0.5832 0.5663 0.6155
C16_4 C 0.7341(10) 0.6941(10) 0.5676(6)
C17_4 C 0.7346(15) 0.2359(9) 0.6964(8)
C18_4 C 0.7114(10) 0.8767(16) 0.5821(8)
H17_4 H 0.6829 0.8657 0.5836
C19_4 C 0.5893(13) 0.5375(13) 0.6789(6)
H18_4 H 0.5607 0.5412 0.6848
C20_4 C 0.5691(19) 0.4600(17) 0.6214(8)
H19_4 H 0.5613 0.4905 0.6232
H20_4 H 0.5454 0.4419 0.6275
H21_4 H 0.5951 0.4541 0.6313
C21_4 C 0.7935(12) 0.1354(14) 0.6705(8)
H22_4 H 0.8212 0.1224 0.6717
C22_4 C 0.7310(10) 0.8100(12) 0.5240(9)
C23_4 C 0.5970(14) 0.4766(12) 0.7088(6)
C24_4 C 0.6084(9) 0.4834(9) 0.5851(5)
C25_4 C 0.6475(9) 0.4887(10) 0.5964(6)
C26_4 C 0.5958(13) 0.5089(11) 0.5648(6)
H23_4 H 0.5684 0.5045 0.5573
C27_4 C 0.6759(11) 0.5206(10) 0.5873(7)
C28_4 C 0.7843(12) 0.1732(13) 0.6847(7)
H24_4 H 0.8057 0.1854 0.6953
C29_4 C 0.615(2) 0.5697(16) 0.5342(8)
C30_4 C 0.6864(10) 0.3616(12) 0.6678(7)
H25_4 H 0.6624 0.3430 0.6700
C31_4 C 0.5360(12) 0.4494(17) 0.5789(10)
H26_4 H 0.5242 0.4786 0.5777
H27_4 H 0.5419 0.4384 0.5620
H28_4 H 0.5150 0.4305 0.5872
C32_4 C 0.5337(15) 0.591(2) 0.6577(11)
H29_4 H 0.5270 0.5603 0.6557
H30_4 H 0.5311 0.5989 0.6755
H31_4 H 0.5136 0.6081 0.6477
C33_4 C 0.5663(15) 0.4405(15) 0.7026(10)
H32_4 H 0.5575 0.4260 0.7181
H33_4 H 0.5409 0.4523 0.6941
H34_4 H 0.5807 0.4197 0.6915
C34_4 C 0.7262(18) 0.859(2) 0.5090(12)
H35_4 H 0.7546 0.8680 0.5031
H36_4 H 0.7068 0.8554 0.4946
H37_4 H 0.7144 0.8799 0.5206
C35_4 C 0.597(2) 0.6423(16) 0.6530(11)
H38_4 H 0.5916 0.6603 0.6382
H39_4 H 0.5839 0.6554 0.6678
H40_4 H 0.6284 0.6401 0.6556
C36_4 C 0.6825(14) 0.3989(14) 0.6525(6)
H41_4 H 0.6561 0.4057 0.6444
C37_4 C 0.6398(13) 0.4580(17) 0.7225(11)
H42_4 H 0.6608 0.4492 0.7098
H43_4 H 0.6524 0.4805 0.7331
H44_4 H 0.6321 0.4331 0.7329
C38_4 C 0.7348(10) 0.2753(12) 0.6827(6)
C39_4 C 0.7374(7) 0.7732(13) 0.5649(6)
C40_4 C 0.7418(18) 0.2755(18) 0.6558(7)
H45_4 H 0.7610 0.2994 0.6513
H46_4 H 0.7550 0.2482 0.6507
H47_4 H 0.7142 0.2791 0.6471
C41_4 C 0.7330(7) 0.7327(10) 0.5527(6)
C42_4 C 0.7247(13) 0.2762(17) 0.7357(6)
C43_4 C 0.7238(18) 0.6896(14) 0.5137(9)
H48_4 H 0.6936 0.6802 0.5139
H49_4 H 0.7334 0.6924 0.4962
H50_4 H 0.7417 0.6682 0.5223
N1_4 N 0.7196(17) 0.4261(11) 0.6497(7)
C44_4 C 0.7305(11) 0.2365(13) 0.7230(8)
N2_4 N 0.7616(17) 0.1172(10) 0.6547(7)
C45_4 C 0.6989(10) 0.6864(12) 0.5840(7)
H51_4 H 0.6749 0.7054 0.5842
C46_4 C 0.6154(16) 0.5040(11) 0.6893(5)
C47_4 C 0.7202(15) 0.1364(13) 0.6529(6)
H52_4 H 0.6989 0.1241 0.6424
C48_4 C 0.8569(11) 0.5228(16) 0.6315(10)
H53_4 H 0.8630 0.5410 0.6461
H54_4 H 0.8661 0.4932 0.6351
H55_4 H 0.8725 0.5338 0.6169
O6_4 O 0.7891(12) 0.4888(12) 0.6252(9)
C49_4 C 0.6233(16) 0.5408(10) 0.5552(6)
C50_4 C 0.635(2) 0.6112(19) 0.5249(12)
H56_4 H 0.6316 0.6130 0.5066
H57_4 H 0.6203 0.6357 0.5329
H58_4 H 0.6656 0.6117 0.5292
C51_4 C 0.575(2) 0.593(2) 0.5425(14)
H59_4 H 0.5783 0.6031 0.5597
H60_4 H 0.5693 0.6171 0.5313
H61_4 H 0.5503 0.5726 0.5417
C52_4 C 0.608(2) 0.5396(18) 0.5119(13)
H62_4 H 0.5784 0.5296 0.5117
H63_4 H 0.6147 0.5550 0.4963
H64_4 H 0.6277 0.5147 0.5135
C53_4 C 0.7965(13) 0.9093(16) 0.5777(10)
H65_4 H 0.8250 0.9202 0.5763
N3_4 N 0.7354(18) 0.6215(13) 0.5998(8)
C54_4 C 0.5777(10) 0.4502(11) 0.5941(7)
C55_4 C 0.5792(12) 0.5994(13) 0.6490(8)
N4_2 N 0.766(2) 0.9306(11) 0.5934(8)
C56_4 C 0.7263(11) 0.3521(10) 0.6797(6)
C57_4 C 0.6998(14) 0.6501(14) 0.6004(7)
H66_4 H 0.6765 0.6450 0.6116
C58_4 C 0.6048(11) 0.5650(10) 0.6601(6)
C59_4 C 0.7235(18) 0.9143(16) 0.5956(7)
H67_4 H 0.7032 0.9285 0.6061
C60_4 C 0.6013(17) 0.4074(17) 0.5923(11)
H68_4 H 0.5877 0.3895 0.5793
H69_4 H 0.6315 0.4126 0.5878
H70_4 H 0.5999 0.3925 0.6085
C61_4 C 0.7267(12) 0.7693(15) 0.5118(6)
C62_4 C 0.7626(10) 0.3791(13) 0.6768(7)
H71_4 H 0.7890 0.3720 0.6849
C63_4 C 0.7597(15) 0.4170(12) 0.6616(8)
H72_4 H 0.7838 0.4355 0.6595
C64_4 C 0.7276(10) 0.7308(12) 0.5263(6)
C65_4 C 0.7844(12) 0.8717(16) 0.5643(7)
H73_4 H 0.8047 0.8574 0.5538
C66_4 C 0.6630(15) 0.5461(11) 0.5668(7)
H74_4 H 0.6821 0.5677 0.5607
C67_4 C 0.5774(17) 0.5017(16) 0.7343(9)
H75_4 H 0.5585 0.4820 0.7435
H76_4 H 0.6013 0.5105 0.7451
H77_4 H 0.5610 0.5271 0.7290
C68_4 C 0.8091(12) 0.5233(14) 0.6262(7)
C69_4 C 0.8692(14) 0.7283(15) 0.4156(10)
H78_4 H 0.8853 0.7025 0.4139
C70_4 C 0.7237(18) 0.7564(13) 0.4077(7)
H79_4 H 0.6938 0.7604 0.4023
H80_4 H 0.7422 0.7773 0.3992
H81_4 H 0.7331 0.7271 0.4034
C71_4 C 0.6881(11) 0.7636(9) 0.4495(9)
C72_4 C 0.6446(12) 0.7583(13) 0.4335(7)
C73_4 C 0.8353(14) 0.7310(11) 0.4337(9)
H82_4 H 0.8325 0.7097 0.4464
C74_4 C 0.8059(10) 0.7659(10) 0.4324(6)
C75_4 C 0.6233(16) 0.7886(10) 0.4179(8)
H83_4 H 0.6343 0.8171 0.4164
C76_4 C 0.6900(12) 0.7690(10) 0.4760(9)
C77_4 C 0.641(2) 0.7738(18) 0.4910(12)
H84_4 H 0.6320 0.7454 0.4969
H85_4 H 0.6446 0.7932 0.5054
H86_4 H 0.6201 0.7856 0.4794
C78_4 C 0.7268(13) 0.7626(7) 0.4351(6)
C79_4 C 0.7673(10) 0.7670(7) 0.4473(6)
C80_4 C 0.8104(14) 0.7762(18) 0.4863(9)
H87_4 H 0.8198 0.8064 0.4861
H88_4 H 0.8076 0.7666 0.5038
H89_4 H 0.8318 0.7583 0.4777
C81_4 C 0.8136(12) 0.8011(10) 0.4160(7)
H90_4 H 0.7946 0.8251 0.4158
C82_4 C 0.5907(16) 0.7035(13) 0.4223(10)
H91_4 H 0.5798 0.6750 0.4237
C83_4 C 0.8499(14) 0.8002(14) 0.3996(7)
H92_4 H 0.8550 0.8235 0.3884
C84_4 C 0.5857(16) 0.7765(18) 0.4044(7)
H93_4 H 0.5715 0.7968 0.3939
C85_4 C 0.7307(15) 0.7733(12) 0.4882(6)
C86_4 C 0.7692(12) 0.7724(10) 0.4737(6)
C87_4 C 0.6283(16) 0.7156(12) 0.4357(7)
H94_4 H 0.6426 0.6953 0.4462
C88_4 C 0.6497(18) 0.2815(17) 0.7630(11)
H95_4 H 0.6446 0.3123 0.7601
H96_4 H 0.6548 0.2671 0.7469
H97_4 H 0.6244 0.2688 0.7712
C89_4 C 0.6851(9) 0.2713(10) 0.8045(8)
C90_4 C 0.8258(13) 0.2891(11) 0.8329(7)
H98_4 H 0.8128 0.3167 0.8341
C91_4 C 0.8075(10) 0.2571(14) 0.8171(6)
C92_4 C 0.8050(13) 0.2675(18) 0.7643(11)
H99_4 H 0.8004 0.2664 0.7460
H100_4 H 0.8219 0.2932 0.7685
H101_4 H 0.8206 0.2417 0.7697
C93_4 C 0.6845(13) 0.2764(11) 0.7780(8)
C94_4 C 0.7641(9) 0.2654(15) 0.8036(8)
C95_4 C 0.8646(14) 0.2065(12) 0.8295(8)
H102_4 H 0.8776 0.1788 0.8283
C96_4 C 0.8268(13) 0.2157(12) 0.8153(7)
H103_4 H 0.8146 0.1943 0.8047
C97_4 C 0.6384(12) 0.3136(10) 0.8322(7)
H104_4 H 0.6570 0.3376 0.8300
C98_4 C 0.6011(14) 0.3175(14) 0.8475(6)
H105_4 H 0.5943 0.3439 0.8556
C99_4 C 0.7247(12) 0.2652(10) 0.8173(6)
C100_4 C 0.7245(18) 0.2582(18) 0.8442(7)
H106_4 H 0.7006 0.2390 0.8487
H107_4 H 0.7518 0.2450 0.8493
H108_4 H 0.7209 0.2858 0.8529
C101_4 C 0.7238(17) 0.2753(13) 0.7643(6)
N7_4 N 0.5739(11) 0.2804(17) 0.8503(7)
C102_4 C 0.7635(13) 0.2695(11) 0.7770(8)
N8_4 N 0.8828(10) 0.2384(17) 0.8453(7)
C103_4 C 0.8636(13) 0.2798(15) 0.8471(6)
H109_4 H 0.8759 0.3011 0.8576
C104_4 C 0.6479(10) 0.2737(11) 0.8203(6)
C105_4 C 0.6209(13) 0.2374(10) 0.8232(7)
H110_4 H 0.6280 0.2110 0.8151
C106_4 C 0.5830(12) 0.2403(15) 0.8384(8)
H111_4 H 0.5645 0.2162 0.8405
O7_4 O 0.7836(12) 0.0240(16) 0.5972(10)
O8_4 O 0.7826(11) 0.0238(13) 0.6530(8)
O10_4 O 0.8394(13) 0.0813(12) 0.6301(7)
O11_4 O 0.7103(12) 0.0582(12) 0.6226(8)
C107_4 C 0.8519(10) 0.0607(9) 0.6504(5)
C108_4 C 0.8249(11) 0.0269(10) 0.6608(6)
C110_4 C 0.932(2) 0.0919(17) 0.6216(9)
H113_4 H 0.9631 0.0877 0.6199
H114_4 H 0.9232 0.1170 0.6116
H115_4 H 0.9168 0.0663 0.6155
C111_4 C 0.9107(13) 0.0375(13) 0.6789(6)
H116_4 H 0.9393 0.0412 0.6848
C116_4 C 0.9042(13) 0.0089(11) 0.5648(6)
H120_4 H 0.9316 0.0045 0.5573
C117_4 C 0.8241(11) 0.0206(10) 0.5873(7)
C118_4 C 0.885(2) 0.0697(16) 0.5342(8)
C120_4 C 0.9663(15) 0.091(2) 0.6577(11)
H124_4 H 0.9730 0.0603 0.6557
H125_4 H 0.9689 0.0989 0.6755
H126_4 H 0.9864 0.1081 0.6477
C122_4 C 0.903(2) 0.1423(16) 0.6530(11)
H130_4 H 0.9084 0.1603 0.6382
H131_4 H 0.9161 0.1554 0.6678
H132_4 H 0.8716 0.1401 0.6556
C124_4 C 0.8846(16) 0.0040(11) 0.6893(5)
C125_4 C 0.6431(11) 0.0228(16) 0.6315(10)
H136_4 H 0.6370 0.0410 0.6461
H138_4 H 0.6275 0.0338 0.6169
C126_4 C 0.8767(16) 0.0408(10) 0.5552(6)
C127_4 C 0.865(2) 0.1112(19) 0.5249(12)
H139_4 H 0.8684 0.1130 0.5066
H140_4 H 0.8797 0.1357 0.5329
H141_4 H 0.8344 0.1117 0.5292
C128_4 C 0.925(2) 0.093(2) 0.5425(14)
H142_4 H 0.9217 0.1031 0.5597
H143_4 H 0.9307 0.1171 0.5313
H144_4 H 0.9497 0.0726 0.5417
C129_4 C 0.892(2) 0.0396(18) 0.5119(13)
H145_4 H 0.9216 0.0296 0.5117
H146_4 H 0.8853 0.0550 0.4963
H147_4 H 0.8723 0.0147 0.5135
C131_4 C 0.9208(12) 0.0994(13) 0.6490(8)
C132_4 C 0.8952(11) 0.0650(10) 0.6601(6)
C134_4 C 0.8370(15) 0.0461(11) 0.5668(7)
H151_4 H 0.8179 0.0677 0.5607
C135_4 C 0.9226(17) 0.0017(16) 0.7343(9)
H153_4 H 0.8987 0.0105 0.7451
H154_4 H 0.9390 0.0271 0.7290
C136_4 C 0.6909(12) 0.0233(14) 0.6262(7)
Co5_4 Co 0.9263(4) 0.2273(5) 0.8742(3)
Co8_4 Co 0.5246(4) 0.2767(4) 0.8770(3)
Co9_2 Co 0.7767(4) 0.9754(4) 0.6230(3)
N10_4 N 0.7384(17) 0.6172(10) 0.6547(7)
O9_4 O 0.8396(10) 0.9663(13) 0.6172(7)
C109_4 C 0.8418(14) 0.9995(10) 0.6799(6)
H112_4 H 0.8240 0.9775 0.6866
C112_4 C 0.9309(19) 0.9600(17) 0.6214(8)
H117_4 H 0.9387 0.9905 0.6232
H118_4 H 0.9546 0.9419 0.6275
H119_4 H 0.9049 0.9541 0.6313
C113_4 C 0.9030(14) 0.9766(12) 0.7088(6)
C114_4 C 0.8916(9) 0.9834(9) 0.5851(5)
C115_4 C 0.8525(9) 0.9887(10) 0.5964(6)
C119_4 C 0.9640(12) 0.9494(17) 0.5789(10)
H121_4 H 0.9758 0.9786 0.5777
H122_4 H 0.9581 0.9384 0.5620
H123_4 H 0.9850 0.9305 0.5872
C121_4 C 0.9337(15) 0.9405(15) 0.7026(10)
H127_4 H 0.9425 0.9260 0.7181
H128_4 H 0.9591 0.9523 0.6941
H129_4 H 0.9193 0.9197 0.6915
C123_4 C 0.8602(13) 0.9580(17) 0.7225(11)
H133_4 H 0.8392 0.9492 0.7098
H134_4 H 0.8476 0.9805 0.7331
H135_4 H 0.8679 0.9331 0.7329
H137_4 H 0.6339 0.9932 0.6351
O12_4 O 0.7109(12) 0.9888(12) 0.6252(9)
C130_4 C 0.9223(10) 0.9502(11) 0.5941(7)
C133_4 C 0.8987(17) 0.9074(17) 0.5923(11)
H148_4 H 0.9123 0.8895 0.5793
H149_4 H 0.8685 0.9126 0.5878
H150_4 H 0.9001 0.8925 0.6085
H152_4 H 0.9415 0.9820 0.7435
N9_4 N 0.7804(17) 0.9261(11) 0.6497(7)
H36_5 H 0.8554 0.7068 0.0054
H49_5 H 0.6924 0.7334 0.0038
H63_5 H 0.5550 0.6147 0.0037
C69_5 C 0.7283(15) 0.8692(14) 0.0844(10)
H78_5 H 0.7025 0.8853 0.0861
C70_5 C 0.7564(13) 0.7237(18) 0.0923(7)
H79_5 H 0.7604 0.6938 0.0977
H80_5 H 0.7773 0.7422 0.1008
H81_5 H 0.7271 0.7331 0.0966
C71_5 C 0.7636(9) 0.6881(11) 0.0505(9)
C72_5 C 0.7583(13) 0.6446(12) 0.0665(7)
C73_5 C 0.7310(11) 0.8353(14) 0.0663(9)
H82_5 H 0.7097 0.8325 0.0536
C74_5 C 0.7659(10) 0.8059(10) 0.0676(6)
C75_5 C 0.7886(10) 0.6233(16) 0.0821(8)
H83_5 H 0.8171 0.6343 0.0836
C76_5 C 0.7690(10) 0.6900(12) 0.0240(9)
C77_5 C 0.7738(18) 0.641(2) 0.0090(12)
H84_5 H 0.7454 0.6320 0.0031
H86_5 H 0.7856 0.6201 0.0206
C78_5 C 0.7626(7) 0.7268(13) 0.0649(6)
C79_5 C 0.7670(7) 0.7673(10) 0.0527(6)
C80_5 C 0.7762(18) 0.8104(14) 0.0137(9)
H87_5 H 0.8064 0.8198 0.0139
H89_5 H 0.7583 0.8318 0.0223
C81_5 C 0.8011(10) 0.8136(12) 0.0840(7)
H90_5 H 0.8251 0.7946 0.0842
C82_5 C 0.7035(13) 0.5907(16) 0.0777(10)
H91_5 H 0.6750 0.5798 0.0763
N5_3 N 0.7646(18) 0.8785(13) 0.0998(8)
N6_3 N 0.734(2) 0.5694(11) 0.0934(8)
C83_5 C 0.8002(14) 0.8499(14) 0.1004(7)
H92_5 H 0.8235 0.8550 0.1116
C84_5 C 0.7765(18) 0.5857(16) 0.0956(7)
H93_5 H 0.7968 0.5715 0.1061
C85_5 C 0.7733(12) 0.7307(15) 0.0118(6)
C86_5 C 0.7724(10) 0.7692(12) 0.0263(6)
C87_5 C 0.7156(12) 0.6283(16) 0.0643(7)
H94_5 H 0.6953 0.6426 0.0538
H146_5 H 0.0550 0.8853 0.0037
Co1_5 Co 0.5737(4) 0.7273(5) 0.8742(3)
O1_5 O 0.5240(16) 0.7164(12) 0.9028(10)
O2_5 O 0.5238(13) 0.7174(11) 0.8470(8)
O3_5 O 0.4663(13) 0.6604(10) 0.8828(7)
O4_5 O 0.5813(12) 0.6606(13) 0.8699(7)
C1_5 C 0.6308(14) 0.7717(15) 0.9156(10)
H1_5 H 0.6147 0.7975 0.9139
O5_5 O 0.5582(12) 0.7897(12) 0.8774(8)
C2_5 C 0.5607(9) 0.6481(10) 0.8496(5)
C5_5 C 0.7763(18) 0.7436(13) 0.9077(7)
H5_5 H 0.8062 0.7396 0.9023
H6_5 H 0.7578 0.7227 0.8992
H7_5 H 0.7669 0.7729 0.9034
C6_5 C 0.8119(11) 0.7364(9) 0.9495(9)
C7_5 C 0.5269(10) 0.6751(11) 0.8392(6)
C8_5 C 0.8554(12) 0.7417(13) 0.9335(7)
C9_5 C 0.4995(10) 0.6582(14) 0.8201(6)
H8_5 H 0.4775 0.6760 0.8134
C10_5 C 0.6647(14) 0.7690(11) 0.9337(9)
H9_5 H 0.6675 0.7903 0.9464
C15_5 C 0.5919(17) 0.568(2) 0.8784(9)
H14_5 H 0.5877 0.5369 0.8801
H15_5 H 0.6170 0.5768 0.8884
H16_5 H 0.5663 0.5832 0.8845
C16_5 C 0.6941(10) 0.7341(10) 0.9324(6)
C18_5 C 0.8767(16) 0.7114(10) 0.9179(8)
H17_5 H 0.8657 0.6829 0.9164
C19_5 C 0.5375(13) 0.5893(13) 0.8211(6)
H18_5 H 0.5412 0.5607 0.8152
C20_5 C 0.4600(17) 0.5691(19) 0.8786(8)
H19_5 H 0.4905 0.5613 0.8768
H20_5 H 0.4419 0.5454 0.8725
H21_5 H 0.4541 0.5951 0.8687
C22_5 C 0.8100(12) 0.7310(10) 0.9760(9)
C23_5 C 0.4766(12) 0.5970(14) 0.7912(6)
C24_5 C 0.4834(9) 0.6084(9) 0.9149(5)
C25_5 C 0.4887(10) 0.6475(9) 0.9036(6)
C26_5 C 0.5089(11) 0.5958(13) 0.9352(6)
H23_5 H 0.5045 0.5684 0.9427
C27_5 C 0.5206(10) 0.6759(11) 0.9127(7)
C29_5 C 0.5697(16) 0.615(2) 0.9658(8)
C31_5 C 0.4494(17) 0.5360(12) 0.9211(10)
H26_5 H 0.4786 0.5242 0.9223
H27_5 H 0.4384 0.5419 0.9380
H28_5 H 0.4305 0.5150 0.9128
C32_5 C 0.591(2) 0.5337(15) 0.8423(11)
H29_5 H 0.5603 0.5270 0.8443
H30_5 H 0.5989 0.5311 0.8245
H31_5 H 0.6081 0.5136 0.8523
C33_5 C 0.4405(15) 0.5663(15) 0.7974(10)
H32_5 H 0.4260 0.5575 0.7819
H33_5 H 0.4523 0.5409 0.8059
H34_5 H 0.4197 0.5807 0.8085
C34_5 C 0.859(2) 0.7262(18) 0.9910(12)
H35_5 H 0.8680 0.7546 0.9969
H37_5 H 0.8799 0.7144 0.9794
C35_5 C 0.6423(16) 0.597(2) 0.8470(11)
H38_5 H 0.6603 0.5916 0.8618
H39_5 H 0.6554 0.5839 0.8322
H40_5 H 0.6401 0.6284 0.8444
C37_5 C 0.4580(17) 0.6398(13) 0.7775(11)
H42_5 H 0.4492 0.6608 0.7902
H43_5 H 0.4805 0.6524 0.7669
H44_5 H 0.4331 0.6321 0.7671
C39_5 C 0.7732(13) 0.7374(7) 0.9351(6)
C41_5 C 0.7327(10) 0.7330(7) 0.9473(6)
C43_5 C 0.6896(14) 0.7238(18) 0.9863(9)
H48_5 H 0.6802 0.6936 0.9861
H50_5 H 0.6682 0.7417 0.9777
C45_5 C 0.6864(12) 0.6989(10) 0.9160(7)
H51_5 H 0.7054 0.6749 0.9158
C46_5 C 0.5040(11) 0.6154(16) 0.8107(5)
C48_5 C 0.5228(16) 0.8569(11) 0.8685(10)
H53_5 H 0.5410 0.8630 0.8539
H54_5 H 0.4932 0.8661 0.8649
H55_5 H 0.5338 0.8725 0.8831
O6_5 O 0.4888(12) 0.7891(12) 0.8748(9)
C49_5 C 0.5408(10) 0.6233(16) 0.9448(6)
C50_5 C 0.6112(19) 0.635(2) 0.9751(12)
H56_5 H 0.6130 0.6316 0.9934
H57_5 H 0.6357 0.6203 0.9671
H58_5 H 0.6117 0.6656 0.9708
C51_5 C 0.593(2) 0.575(2) 0.9575(14)
H59_5 H 0.6031 0.5783 0.9403
H60_5 H 0.6171 0.5693 0.9687
H61_5 H 0.5726 0.5503 0.9583
C52_5 C 0.5396(18) 0.608(2) 0.9881(13)
H62_5 H 0.5296 0.5784 0.9883
H64_5 H 0.5147 0.6277 0.9865
C53_5 C 0.9093(16) 0.7965(13) 0.9223(10)
H65_5 H 0.9202 0.8250 0.9237
N3_5 N 0.6215(13) 0.7354(18) 0.9002(8)
C54_5 C 0.4502(11) 0.5777(10) 0.9059(7)
C55_5 C 0.5994(13) 0.5792(12) 0.8510(8)
N4_3 N 0.9306(11) 0.766(2) 0.9066(8)
C57_5 C 0.6501(14) 0.6998(14) 0.8996(7)
H66_5 H 0.6450 0.6765 0.8884
C58_5 C 0.5650(10) 0.6048(11) 0.8399(6)
C59_5 C 0.9143(16) 0.7235(18) 0.9044(7)
H67_5 H 0.9285 0.7032 0.8939
C60_5 C 0.4074(17) 0.6013(17) 0.9077(11)
H68_5 H 0.3895 0.5877 0.9207
H69_5 H 0.4126 0.6315 0.9122
H70_5 H 0.3925 0.5999 0.8915
C61_5 C 0.7693(15) 0.7267(12) 0.9882(6)
C64_5 C 0.7308(12) 0.7276(10) 0.9737(6)
C65_5 C 0.8717(16) 0.7844(12) 0.9357(7)
H73_5 H 0.8574 0.8047 0.9462
C66_5 C 0.5461(11) 0.6630(15) 0.9332(7)
H74_5 H 0.5677 0.6821 0.9393
C67_5 C 0.5017(16) 0.5774(17) 0.7657(9)
H75_5 H 0.4820 0.5585 0.7565
H76_5 H 0.5105 0.6013 0.7549
H77_5 H 0.5271 0.5610 0.7710
C68_5 C 0.5233(14) 0.8091(12) 0.8738(7)
H85_5 H 0.7932 0.6446 0.9946
H88_5 H 0.7666 0.8076 0.9962
O7_5 O 0.0240(16) 0.7836(12) 0.9028(10)
O8_5 O 0.0238(13) 0.7826(11) 0.8470(8)
O10_5 O 0.0813(12) 0.8394(13) 0.8699(7)
O11_5 O 0.0582(12) 0.7103(12) 0.8774(8)
C107_5 C 0.0607(9) 0.8519(10) 0.8496(5)
C108_5 C 0.0269(10) 0.8249(11) 0.8392(6)
C110_5 C 0.0919(17) 0.932(2) 0.8784(9)
H113_5 H 0.0877 0.9631 0.8801
H114_5 H 0.1170 0.9232 0.8884
H115_5 H 0.0663 0.9168 0.8845
C111_5 C 0.0375(13) 0.9107(13) 0.8211(6)
H116_5 H 0.0412 0.9393 0.8152
C116_5 C 0.0089(11) 0.9042(13) 0.9352(6)
H120_5 H 0.0045 0.9316 0.9427
C117_5 C 0.0206(10) 0.8241(11) 0.9127(7)
C118_5 C 0.0697(16) 0.885(2) 0.9658(8)
C120_5 C 0.091(2) 0.9663(15) 0.8423(11)
H124_5 H 0.0603 0.9730 0.8443
H125_5 H 0.0989 0.9689 0.8245
H126_5 H 0.1081 0.9864 0.8523
C122_5 C 0.1423(16) 0.903(2) 0.8470(11)
H130_5 H 0.1603 0.9084 0.8618
H131_5 H 0.1554 0.9161 0.8322
H132_5 H 0.1401 0.8716 0.8444
C124_5 C 0.0040(11) 0.8846(16) 0.8107(5)
C125_5 C 0.0228(16) 0.6431(11) 0.8685(10)
H136_5 H 0.0410 0.6370 0.8539
H138_5 H 0.0338 0.6275 0.8831
C126_5 C 0.0408(10) 0.8767(16) 0.9448(6)
C127_5 C 0.1112(19) 0.865(2) 0.9751(12)
H139_5 H 0.1130 0.8684 0.9934
H140_5 H 0.1357 0.8797 0.9671
H141_5 H 0.1117 0.8344 0.9708
C128_5 C 0.093(2) 0.925(2) 0.9575(14)
H142_5 H 0.1031 0.9217 0.9403
H143_5 H 0.1171 0.9307 0.9687
H144_5 H 0.0726 0.9497 0.9583
C129_5 C 0.0396(18) 0.892(2) 0.9881(13)
H145_5 H 0.0296 0.9216 0.9883
H147_5 H 0.0147 0.8723 0.9865
C131_5 C 0.0994(13) 0.9208(12) 0.8510(8)
C132_5 C 0.0650(10) 0.8952(11) 0.8399(6)
C134_5 C 0.0461(11) 0.8370(15) 0.9332(7)
H151_5 H 0.0677 0.8179 0.9393
C135_5 C 0.0017(16) 0.9226(17) 0.7657(9)
H153_5 H 0.0105 0.8987 0.7549
H154_5 H 0.0271 0.9390 0.7710
C136_5 C 0.0233(14) 0.6909(12) 0.8738(7)
Co9_3 Co 0.9754(4) 0.7767(4) 0.8770(3)
N10_5 N 0.6172(10) 0.7384(17) 0.8453(7)
N11_3 N 0.1215(13) 0.7646(18) 0.9002(8)
N13_3 N 0.4306(11) 0.734(2) 0.9066(8)
O9_5 O 0.9663(13) 0.8396(10) 0.8828(7)
C109_5 C 0.9995(10) 0.8418(14) 0.8201(6)
H112_5 H 0.9775 0.8240 0.8134
C112_5 C 0.9600(17) 0.9309(19) 0.8786(8)
H117_5 H 0.9905 0.9387 0.8768
H118_5 H 0.9419 0.9546 0.8725
H119_5 H 0.9541 0.9049 0.8687
C113_5 C 0.9766(12) 0.9030(14) 0.7912(6)
C114_5 C 0.9834(9) 0.8916(9) 0.9149(5)
C115_5 C 0.9887(10) 0.8525(9) 0.9036(6)
C119_5 C 0.9494(17) 0.9640(12) 0.9211(10)
H121_5 H 0.9786 0.9758 0.9223
H122_5 H 0.9384 0.9581 0.9380
H123_5 H 0.9305 0.9850 0.9128
C121_5 C 0.9405(15) 0.9337(15) 0.7974(10)
H127_5 H 0.9260 0.9425 0.7819
H128_5 H 0.9523 0.9591 0.8059
H129_5 H 0.9197 0.9193 0.8085
C123_5 C 0.9580(17) 0.8602(13) 0.7775(11)
H133_5 H 0.9492 0.8392 0.7902
H134_5 H 0.9805 0.8476 0.7669
H135_5 H 0.9331 0.8679 0.7671
H137_5 H 0.9932 0.6339 0.8649
O12_5 O 0.9888(12) 0.7109(12) 0.8748(9)
C130_5 C 0.9502(11) 0.9223(10) 0.9059(7)
C133_5 C 0.9074(17) 0.8987(17) 0.9077(11)
H148_5 H 0.8895 0.9123 0.9207
H149_5 H 0.9126 0.8685 0.9122
H150_5 H 0.8925 0.9001 0.8915
H152_5 H 0.9820 0.9415 0.7565
N9_5 N 0.9261(11) 0.7804(17) 0.8503(7)
Co4_3 Co 0.0246(4) 0.2233(4) 0.8770(3)
O9_6 O 0.0337(13) 0.1604(10) 0.8828(7)
C109_6 C 0.0005(10) 0.1582(14) 0.8201(6)
H112_6 H 0.0225 0.1760 0.8134
C112_6 C 0.0400(17) 0.0691(19) 0.8786(8)
H117_6 H 0.0095 0.0613 0.8768
H118_6 H 0.0581 0.0454 0.8725
H119_6 H 0.0459 0.0951 0.8687
C113_6 C 0.0234(12) 0.0970(14) 0.7912(6)
C114_6 C 0.0166(9) 0.1084(9) 0.9149(5)
C115_6 C 0.0113(10) 0.1475(9) 0.9036(6)
C119_6 C 0.0506(17) 0.0360(12) 0.9211(10)
H121_6 H 0.0214 0.0242 0.9223
H122_6 H 0.0616 0.0419 0.9380
H123_6 H 0.0695 0.0150 0.9128
C121_6 C 0.0595(15) 0.0663(15) 0.7974(10)
H127_6 H 0.0740 0.0575 0.7819
H128_6 H 0.0477 0.0409 0.8059
H129_6 H 0.0803 0.0807 0.8085
C123_6 C 0.0420(17) 0.1398(13) 0.7775(11)
H133_6 H 0.0508 0.1608 0.7902
H134_6 H 0.0195 0.1524 0.7669
H135_6 H 0.0669 0.1321 0.7671
H137_6 H 0.0068 0.3661 0.8649
O12_6 O 0.0112(12) 0.2891(12) 0.8748(9)
C130_6 C 0.0498(11) 0.0777(10) 0.9059(7)
C133_6 C 0.0926(17) 0.1013(17) 0.9077(11)
H148_6 H 0.1105 0.0877 0.9207
H149_6 H 0.0874 0.1315 0.9122
H150_6 H 0.1075 0.0999 0.8915
H152_6 H 0.0180 0.0585 0.7565
N9_6 N 0.0739(11) 0.2196(17) 0.8503(7)
N12_3 N 0.0694(11) 0.234(2) 0.9066(8)
H36_6 H 0.1446 0.2932 0.0054
H49_6 H 0.3076 0.2666 0.0038
H63_6 H 0.4450 0.3853 0.0037
C69_6 C 0.2717(15) 0.1308(14) 0.0844(10)
H78_6 H 0.2975 0.1147 0.0861
C70_6 C 0.2436(13) 0.2763(18) 0.0923(7)
H79_6 H 0.2396 0.3062 0.0977
H80_6 H 0.2227 0.2578 0.1008
H81_6 H 0.2729 0.2669 0.0966
C71_6 C 0.2364(9) 0.3119(11) 0.0505(9)
C72_6 C 0.2417(13) 0.3554(12) 0.0665(7)
C73_6 C 0.2690(11) 0.1647(14) 0.0663(9)
H82_6 H 0.2903 0.1675 0.0536
C74_6 C 0.2341(10) 0.1941(10) 0.0676(6)
C75_6 C 0.2114(10) 0.3767(16) 0.0821(8)
H83_6 H 0.1829 0.3657 0.0836
C76_6 C 0.2310(10) 0.3100(12) 0.0240(9)
C77_6 C 0.2262(18) 0.359(2) 0.0090(12)
H84_6 H 0.2546 0.3680 0.0031
H86_6 H 0.2144 0.3799 0.0206
C78_6 C 0.2374(7) 0.2732(13) 0.0649(6)
C79_6 C 0.2330(7) 0.2327(10) 0.0527(6)
C80_6 C 0.2238(18) 0.1896(14) 0.0137(9)
H87_6 H 0.1936 0.1802 0.0139
H89_6 H 0.2417 0.1682 0.0223
C81_6 C 0.1989(10) 0.1864(12) 0.0840(7)
H90_6 H 0.1749 0.2054 0.0842
C82_6 C 0.2965(13) 0.4093(16) 0.0777(10)
H91_6 H 0.3250 0.4202 0.0763
N5_4 N 0.2354(18) 0.1215(13) 0.0998(8)
N6_4 N 0.266(2) 0.4306(11) 0.0934(8)
C83_6 C 0.1998(14) 0.1501(14) 0.1004(7)
H92_6 H 0.1765 0.1450 0.1116
C84_6 C 0.2235(18) 0.4143(16) 0.0956(7)
H93_6 H 0.2032 0.4285 0.1061
C85_6 C 0.2267(12) 0.2693(15) 0.0118(6)
C86_6 C 0.2276(10) 0.2308(12) 0.0263(6)
C87_6 C 0.2844(12) 0.3717(16) 0.0643(7)
H94_6 H 0.3047 0.3574 0.0538
H146_6 H 0.9450 0.1147 0.0037
Co1_6 Co 0.4263(4) 0.2727(5) 0.8742(3)
O1_6 O 0.4760(16) 0.2836(12) 0.9028(10)
O2_6 O 0.4762(13) 0.2826(11) 0.8470(8)
O3_6 O 0.5337(13) 0.3396(10) 0.8828(7)
O4_6 O 0.4187(12) 0.3394(13) 0.8699(7)
C1_6 C 0.3692(14) 0.2283(15) 0.9156(10)
H1_6 H 0.3853 0.2025 0.9139
O5_6 O 0.4418(12) 0.2103(12) 0.8774(8)
C2_6 C 0.4393(9) 0.3519(10) 0.8496(5)
C5_6 C 0.2237(18) 0.2564(13) 0.9077(7)
H5_6 H 0.1938 0.2604 0.9023
H6_6 H 0.2422 0.2773 0.8992
H7_6 H 0.2331 0.2271 0.9034
C6_6 C 0.1881(11) 0.2636(9) 0.9495(9)
C7_6 C 0.4731(10) 0.3249(11) 0.8392(6)
C8_6 C 0.1446(12) 0.2583(13) 0.9335(7)
C9_6 C 0.5005(10) 0.3418(14) 0.8201(6)
H8_6 H 0.5225 0.3240 0.8134
C10_6 C 0.3353(14) 0.2310(11) 0.9337(9)
H9_6 H 0.3325 0.2097 0.9464
C15_6 C 0.4081(17) 0.432(2) 0.8784(9)
H14_6 H 0.4123 0.4631 0.8801
H15_6 H 0.3830 0.4232 0.8884
H16_6 H 0.4337 0.4168 0.8845
C16_6 C 0.3059(10) 0.2659(10) 0.9324(6)
C18_6 C 0.1233(16) 0.2886(10) 0.9179(8)
H17_6 H 0.1343 0.3171 0.9164
C19_6 C 0.4625(13) 0.4107(13) 0.8211(6)
H18_6 H 0.4588 0.4393 0.8152
C20_6 C 0.5400(17) 0.4309(19) 0.8786(8)
H19_6 H 0.5095 0.4387 0.8768
H20_6 H 0.5581 0.4546 0.8725
H21_6 H 0.5459 0.4049 0.8687
C22_6 C 0.1900(12) 0.2690(10) 0.9760(9)
C23_6 C 0.5234(12) 0.4030(14) 0.7912(6)
C24_6 C 0.5166(9) 0.3916(9) 0.9149(5)
C25_6 C 0.5113(10) 0.3525(9) 0.9036(6)
C26_6 C 0.4911(11) 0.4042(13) 0.9352(6)
H23_6 H 0.4955 0.4316 0.9427
C27_6 C 0.4794(10) 0.3241(11) 0.9127(7)
C29_6 C 0.4303(16) 0.385(2) 0.9658(8)
C31_6 C 0.5506(17) 0.4640(12) 0.9211(10)
H26_6 H 0.5214 0.4758 0.9223
H27_6 H 0.5616 0.4581 0.9380
H28_6 H 0.5695 0.4850 0.9128
C32_6 C 0.409(2) 0.4663(15) 0.8423(11)
H29_6 H 0.4397 0.4730 0.8443
H30_6 H 0.4011 0.4689 0.8245
H31_6 H 0.3919 0.4864 0.8523
C33_6 C 0.5595(15) 0.4337(15) 0.7974(10)
H32_6 H 0.5740 0.4425 0.7819
H33_6 H 0.5477 0.4591 0.8059
H34_6 H 0.5803 0.4193 0.8085
C34_6 C 0.141(2) 0.2738(18) 0.9910(12)
H35_6 H 0.1320 0.2454 0.9969
H37_6 H 0.1201 0.2856 0.9794
C35_6 C 0.3577(16) 0.403(2) 0.8470(11)
H38_6 H 0.3397 0.4084 0.8618
H39_6 H 0.3446 0.4161 0.8322
H40_6 H 0.3599 0.3716 0.8444
C37_6 C 0.5420(17) 0.3602(13) 0.7775(11)
H42_6 H 0.5508 0.3392 0.7902
H43_6 H 0.5195 0.3476 0.7669
H44_6 H 0.5669 0.3679 0.7671
C39_6 C 0.2268(13) 0.2626(7) 0.9351(6)
C41_6 C 0.2673(10) 0.2670(7) 0.9473(6)
C43_6 C 0.3104(14) 0.2762(18) 0.9863(9)
H48_6 H 0.3198 0.3064 0.9861
H50_6 H 0.3318 0.2583 0.9777
C45_6 C 0.3136(12) 0.3011(10) 0.9160(7)
H51_6 H 0.2946 0.3251 0.9158
C46_6 C 0.4960(11) 0.3846(16) 0.8107(5)
C48_6 C 0.4772(16) 0.1431(11) 0.8685(10)
H53_6 H 0.4590 0.1370 0.8539
H54_6 H 0.5068 0.1339 0.8649
H55_6 H 0.4662 0.1275 0.8831
O6_6 O 0.5112(12) 0.2109(12) 0.8748(9)
C49_6 C 0.4592(10) 0.3767(16) 0.9448(6)
C50_6 C 0.3888(19) 0.365(2) 0.9751(12)
H56_6 H 0.3870 0.3684 0.9934
H57_6 H 0.3643 0.3797 0.9671
H58_6 H 0.3883 0.3344 0.9708
C51_6 C 0.407(2) 0.425(2) 0.9575(14)
H59_6 H 0.3969 0.4217 0.9403
H60_6 H 0.3829 0.4307 0.9687
H61_6 H 0.4274 0.4497 0.9583
C52_6 C 0.4604(18) 0.392(2) 0.9881(13)
H62_6 H 0.4704 0.4216 0.9883
H64_6 H 0.4853 0.3723 0.9865
C53_6 C 0.0907(16) 0.2035(13) 0.9223(10)
H65_6 H 0.0798 0.1750 0.9237
N3_6 N 0.3785(13) 0.2646(18) 0.9002(8)
C54_6 C 0.5498(11) 0.4223(10) 0.9059(7)
C55_6 C 0.4006(13) 0.4208(12) 0.8510(8)
C57_6 C 0.3499(14) 0.3002(14) 0.8996(7)
H66_6 H 0.3550 0.3235 0.8884
C58_6 C 0.4350(10) 0.3952(11) 0.8399(6)
C59_6 C 0.0857(16) 0.2765(18) 0.9044(7)
H67_6 H 0.0715 0.2968 0.8939
C60_6 C 0.5926(17) 0.3987(17) 0.9077(11)
H68_6 H 0.6105 0.4123 0.9207
H69_6 H 0.5874 0.3685 0.9122
H70_6 H 0.6075 0.4001 0.8915
C61_6 C 0.2307(15) 0.2733(12) 0.9882(6)
C64_6 C 0.2692(12) 0.2724(10) 0.9737(6)
C65_6 C 0.1283(16) 0.2156(12) 0.9357(7)
H73_6 H 0.1426 0.1953 0.9462
C66_6 C 0.4539(11) 0.3370(15) 0.9332(7)
H74_6 H 0.4323 0.3179 0.9393
C67_6 C 0.4983(16) 0.4226(17) 0.7657(9)
H75_6 H 0.5180 0.4415 0.7565
H76_6 H 0.4895 0.3987 0.7549
H77_6 H 0.4729 0.4390 0.7710
C68_6 C 0.4767(14) 0.1909(12) 0.8738(7)
H85_6 H 0.2068 0.3554 0.9946
H88_6 H 0.2334 0.1924 0.9962
O7_6 O 0.9760(16) 0.2164(12) 0.9028(10)
O8_6 O 0.9762(13) 0.2174(11) 0.8470(8)
O10_6 O 0.9187(12) 0.1606(13) 0.8699(7)
O11_6 O 0.9418(12) 0.2897(12) 0.8774(8)
C107_6 C 0.9393(9) 0.1481(10) 0.8496(5)
C108_6 C 0.9731(10) 0.1751(11) 0.8392(6)
C110_6 C 0.9081(17) 0.068(2) 0.8784(9)
H113_6 H 0.9123 0.0369 0.8801
H114_6 H 0.8830 0.0768 0.8884
H115_6 H 0.9337 0.0832 0.8845
C111_6 C 0.9625(13) 0.0893(13) 0.8211(6)
H116_6 H 0.9588 0.0607 0.8152
C116_6 C 0.9911(11) 0.0958(13) 0.9352(6)
H120_6 H 0.9955 0.0684 0.9427
C117_6 C 0.9794(10) 0.1759(11) 0.9127(7)
C118_6 C 0.9303(16) 0.115(2) 0.9658(8)
C120_6 C 0.909(2) 0.0337(15) 0.8423(11)
H124_6 H 0.9397 0.0270 0.8443
H125_6 H 0.9011 0.0311 0.8245
H126_6 H 0.8919 0.0136 0.8523
C122_6 C 0.8577(16) 0.097(2) 0.8470(11)
H130_6 H 0.8397 0.0916 0.8618
H131_6 H 0.8446 0.0839 0.8322
H132_6 H 0.8599 0.1284 0.8444
C124_6 C 0.9960(11) 0.1154(16) 0.8107(5)
C125_6 C 0.9772(16) 0.3569(11) 0.8685(10)
H136_6 H 0.9590 0.3630 0.8539
H138_6 H 0.9662 0.3725 0.8831
C126_6 C 0.9592(10) 0.1233(16) 0.9448(6)
C127_6 C 0.8888(19) 0.135(2) 0.9751(12)
H139_6 H 0.8870 0.1316 0.9934
H140_6 H 0.8643 0.1203 0.9671
H141_6 H 0.8883 0.1656 0.9708
C128_6 C 0.907(2) 0.075(2) 0.9575(14)
H142_6 H 0.8969 0.0783 0.9403
H143_6 H 0.8829 0.0693 0.9687
H144_6 H 0.9274 0.0503 0.9583
C129_6 C 0.9604(18) 0.108(2) 0.9881(13)
H145_6 H 0.9704 0.0784 0.9883
H147_6 H 0.9853 0.1277 0.9865
C131_6 C 0.9006(13) 0.0792(12) 0.8510(8)
C132_6 C 0.9350(10) 0.1048(11) 0.8399(6)
C134_6 C 0.9539(11) 0.1630(15) 0.9332(7)
H151_6 H 0.9323 0.1821 0.9393
C135_6 C 0.9983(16) 0.0774(17) 0.7657(9)
H153_6 H 0.9895 0.1013 0.7549
H154_6 H 0.9729 0.0610 0.7710
C136_6 C 0.9767(14) 0.3091(12) 0.8738(7)
N10_6 N 0.3828(10) 0.2616(17) 0.8453(7)
N11_4 N 0.8785(13) 0.2354(18) 0.9002(8)
N13_4 N 0.5694(11) 0.266(2) 0.9066(8)
Co1_7 Co 0.2727(5) 0.5737(4) 0.1258(3)
O1_7 O 0.2836(12) 0.5240(16) 0.0972(10)
O2_7 O 0.2826(11) 0.5238(13) 0.1530(8)
O3_7 O 0.3396(10) 0.4663(13) 0.1172(7)
O4_7 O 0.3394(13) 0.5813(12) 0.1301(7)
C1_7 C 0.2283(15) 0.6308(14) 0.0844(10)
H1_7 H 0.2025 0.6147 0.0861
O5_7 O 0.2103(12) 0.5582(12) 0.1226(8)
C2_7 C 0.3519(10) 0.5607(9) 0.1504(5)
C5_7 C 0.2564(13) 0.7763(18) 0.0923(7)
H5_7 H 0.2604 0.8062 0.0977
H6_7 H 0.2773 0.7578 0.1008
H7_7 H 0.2271 0.7669 0.0966
C6_7 C 0.2636(9) 0.8119(11) 0.0505(9)
C7_7 C 0.3249(11) 0.5269(10) 0.1608(6)
C8_7 C 0.2583(13) 0.8554(12) 0.0665(7)
C9_7 C 0.3418(14) 0.4995(10) 0.1799(6)
H8_7 H 0.3240 0.4775 0.1866
C10_7 C 0.2310(11) 0.6647(14) 0.0663(9)
H9_7 H 0.2097 0.6675 0.0536
C15_7 C 0.432(2) 0.5919(17) 0.1216(9)
H14_7 H 0.4631 0.5877 0.1199
H15_7 H 0.4232 0.6170 0.1116
H16_7 H 0.4168 0.5663 0.1155
C16_7 C 0.2659(10) 0.6941(10) 0.0676(6)
C18_7 C 0.2886(10) 0.8767(16) 0.0821(8)
H17_7 H 0.3171 0.8657 0.0836
C19_7 C 0.4107(13) 0.5375(13) 0.1789(6)
H18_7 H 0.4393 0.5412 0.1848
C20_7 C 0.4309(19) 0.4600(17) 0.1214(8)
H19_7 H 0.4387 0.4905 0.1232
H20_7 H 0.4546 0.4419 0.1275
H21_7 H 0.4049 0.4541 0.1313
C22_7 C 0.2690(10) 0.8100(12) 0.0240(9)
C23_7 C 0.4030(14) 0.4766(12) 0.2088(6)
C24_7 C 0.3916(9) 0.4834(9) 0.0851(5)
C25_7 C 0.3525(9) 0.4887(10) 0.0964(6)
C26_7 C 0.4042(13) 0.5089(11) 0.0648(6)
H23_7 H 0.4316 0.5045 0.0573
C27_7 C 0.3241(11) 0.5206(10) 0.0873(7)
C29_7 C 0.385(2) 0.5697(16) 0.0342(8)
C31_7 C 0.4640(12) 0.4494(17) 0.0789(10)
H26_7 H 0.4758 0.4786 0.0777
H27_7 H 0.4581 0.4384 0.0620
H28_7 H 0.4850 0.4305 0.0872
C32_7 C 0.4663(15) 0.591(2) 0.1577(11)
H29_7 H 0.4730 0.5603 0.1557
H30_7 H 0.4689 0.5989 0.1755
H31_7 H 0.4864 0.6081 0.1477
C33_7 C 0.4337(15) 0.4405(15) 0.2026(10)
H32_7 H 0.4425 0.4260 0.2181
H33_7 H 0.4591 0.4523 0.1941
H34_7 H 0.4193 0.4197 0.1915
C34_7 C 0.2738(18) 0.859(2) 0.0090(12)
H35_7 H 0.2454 0.8680 0.0031
H37_7 H 0.2856 0.8799 0.0206
C35_7 C 0.403(2) 0.6423(16) 0.1530(11)
H38_7 H 0.4084 0.6603 0.1382
H39_7 H 0.4161 0.6554 0.1678
H40_7 H 0.3716 0.6401 0.1556
C37_7 C 0.3602(13) 0.4580(17) 0.2225(11)
H42_7 H 0.3392 0.4492 0.2098
H43_7 H 0.3476 0.4805 0.2331
H44_7 H 0.3679 0.4331 0.2329
C39_7 C 0.2626(7) 0.7732(13) 0.0649(6)
C41_7 C 0.2670(7) 0.7327(10) 0.0527(6)
C43_7 C 0.2762(18) 0.6896(14) 0.0137(9)
H48_7 H 0.3064 0.6802 0.0139
H50_7 H 0.2583 0.6682 0.0223
C45_7 C 0.3011(10) 0.6864(12) 0.0840(7)
H51_7 H 0.3251 0.7054 0.0842
C46_7 C 0.3846(16) 0.5040(11) 0.1893(5)
C48_7 C 0.1431(11) 0.5228(16) 0.1315(10)
H53_7 H 0.1370 0.5410 0.1461
H54_7 H 0.1339 0.4932 0.1351
H55_7 H 0.1275 0.5338 0.1169
O6_7 O 0.2109(12) 0.4888(12) 0.1252(9)
C49_7 C 0.3767(16) 0.5408(10) 0.0552(6)
C50_7 C 0.365(2) 0.6112(19) 0.0249(12)
H56_7 H 0.3684 0.6130 0.0066
H57_7 H 0.3797 0.6357 0.0329
H58_7 H 0.3344 0.6117 0.0292
C51_7 C 0.425(2) 0.593(2) 0.0425(14)
H59_7 H 0.4217 0.6031 0.0597
H60_7 H 0.4307 0.6171 0.0313
H61_7 H 0.4497 0.5726 0.0417
C52_7 C 0.392(2) 0.5396(18) 0.0119(13)
H62_7 H 0.4216 0.5296 0.0117
H64_7 H 0.3723 0.5147 0.0135
C53_7 C 0.2035(13) 0.9093(16) 0.0777(10)
H65_7 H 0.1750 0.9202 0.0763
N3_7 N 0.2646(18) 0.6215(13) 0.0998(8)
C54_7 C 0.4223(10) 0.4502(11) 0.0941(7)
C55_7 C 0.4208(12) 0.5994(13) 0.1490(8)
N4_4 N 0.234(2) 0.9306(11) 0.0934(8)
C57_7 C 0.3002(14) 0.6501(14) 0.1004(7)
H66_7 H 0.3235 0.6450 0.1116
C58_7 C 0.3952(11) 0.5650(10) 0.1601(6)
C59_7 C 0.2765(18) 0.9143(16) 0.0956(7)
H67_7 H 0.2968 0.9285 0.1061
C60_7 C 0.3987(17) 0.4074(17) 0.0923(11)
H68_7 H 0.4123 0.3895 0.0793
H69_7 H 0.3685 0.4126 0.0878
H70_7 H 0.4001 0.3925 0.1085
C61_7 C 0.2733(12) 0.7693(15) 0.0118(6)
C64_7 C 0.2724(10) 0.7308(12) 0.0263(6)
C65_7 C 0.2156(12) 0.8717(16) 0.0643(7)
H73_7 H 0.1953 0.8574 0.0538
C66_7 C 0.3370(15) 0.5461(11) 0.0668(7)
H74_7 H 0.3179 0.5677 0.0607
C67_7 C 0.4226(17) 0.5017(16) 0.2343(9)
H75_7 H 0.4415 0.4820 0.2435
H76_7 H 0.3987 0.5105 0.2451
H77_7 H 0.4390 0.5271 0.2290
C68_7 C 0.1909(12) 0.5233(14) 0.1262(7)
H85_7 H 0.3554 0.7932 0.0054
H88_7 H 0.1924 0.7666 0.0038
O7_7 O 0.2164(12) 0.0240(16) 0.0972(10)
O8_7 O 0.2174(11) 0.0238(13) 0.1530(8)
O10_7 O 0.1606(13) 0.0813(12) 0.1301(7)
O11_7 O 0.2897(12) 0.0582(12) 0.1226(8)
C107_7 C 0.1481(10) 0.0607(9) 0.1504(5)
C108_7 C 0.1751(11) 0.0269(10) 0.1608(6)
C110_7 C 0.068(2) 0.0919(17) 0.1216(9)
H113_7 H 0.0369 0.0877 0.1199
H114_7 H 0.0768 0.1170 0.1116
H115_7 H 0.0832 0.0663 0.1155
C111_7 C 0.0893(13) 0.0375(13) 0.1789(6)
H116_7 H 0.0607 0.0412 0.1848
C116_7 C 0.0958(13) 0.0089(11) 0.0648(6)
H120_7 H 0.0684 0.0045 0.0573
C117_7 C 0.1759(11) 0.0206(10) 0.0873(7)
C118_7 C 0.115(2) 0.0697(16) 0.0342(8)
C120_7 C 0.0337(15) 0.091(2) 0.1577(11)
H124_7 H 0.0270 0.0603 0.1557
H125_7 H 0.0311 0.0989 0.1755
H126_7 H 0.0136 0.1081 0.1477
C122_7 C 0.097(2) 0.1423(16) 0.1530(11)
H130_7 H 0.0916 0.1603 0.1382
H131_7 H 0.0839 0.1554 0.1678
H132_7 H 0.1284 0.1401 0.1556
C124_7 C 0.1154(16) 0.0040(11) 0.1893(5)
C125_7 C 0.3569(11) 0.0228(16) 0.1315(10)
H136_7 H 0.3630 0.0410 0.1461
H138_7 H 0.3725 0.0338 0.1169
C126_7 C 0.1233(16) 0.0408(10) 0.0552(6)
C127_7 C 0.135(2) 0.1112(19) 0.0249(12)
H139_7 H 0.1316 0.1130 0.0066
H140_7 H 0.1203 0.1357 0.0329
H141_7 H 0.1656 0.1117 0.0292
C128_7 C 0.075(2) 0.093(2) 0.0425(14)
H142_7 H 0.0783 0.1031 0.0597
H143_7 H 0.0693 0.1171 0.0313
H144_7 H 0.0503 0.0726 0.0417
C129_7 C 0.108(2) 0.0396(18) 0.0119(13)
H145_7 H 0.0784 0.0296 0.0117
H147_7 H 0.1277 0.0147 0.0135
C131_7 C 0.0792(12) 0.0994(13) 0.1490(8)
C132_7 C 0.1048(11) 0.0650(10) 0.1601(6)
C134_7 C 0.1630(15) 0.0461(11) 0.0668(7)
H151_7 H 0.1821 0.0677 0.0607
C135_7 C 0.0774(17) 0.0017(16) 0.2343(9)
H153_7 H 0.1013 0.0105 0.2451
H154_7 H 0.0610 0.0271 0.2290
C136_7 C 0.3091(12) 0.0233(14) 0.1262(7)
Co9_4 Co 0.2233(4) 0.9754(4) 0.1230(3)
N10_7 N 0.2616(17) 0.6172(10) 0.1547(7)
H36_7 H 0.2932 0.8554 0.9946
H49_7 H 0.2666 0.6924 0.9962
H63_7 H 0.3853 0.5550 0.9963
C69_7 C 0.1308(14) 0.7283(15) 0.9156(10)
H78_7 H 0.1147 0.7025 0.9139
C70_7 C 0.2763(18) 0.7564(13) 0.9077(7)
H79_7 H 0.3062 0.7604 0.9023
H80_7 H 0.2578 0.7773 0.8992
H81_7 H 0.2669 0.7271 0.9034
C71_7 C 0.3119(11) 0.7636(9) 0.9495(9)
C72_7 C 0.3554(12) 0.7583(13) 0.9335(7)
C73_7 C 0.1647(14) 0.7310(11) 0.9337(9)
H82_7 H 0.1675 0.7097 0.9464
C74_7 C 0.1941(10) 0.7659(10) 0.9324(6)
C75_7 C 0.3767(16) 0.7886(10) 0.9179(8)
H83_7 H 0.3657 0.8171 0.9164
C76_7 C 0.3100(12) 0.7690(10) 0.9760(9)
C77_7 C 0.359(2) 0.7738(18) 0.9910(12)
H84_7 H 0.3680 0.7454 0.9969
H86_7 H 0.3799 0.7856 0.9794
C78_7 C 0.2732(13) 0.7626(7) 0.9351(6)
C79_7 C 0.2327(10) 0.7670(7) 0.9473(6)
C80_7 C 0.1896(14) 0.7762(18) 0.9863(9)
H87_7 H 0.1802 0.8064 0.9861
H89_7 H 0.1682 0.7583 0.9777
C81_7 C 0.1864(12) 0.8011(10) 0.9160(7)
H90_7 H 0.2054 0.8251 0.9158
C82_7 C 0.4093(16) 0.7035(13) 0.9223(10)
H91_7 H 0.4202 0.6750 0.9237
C83_7 C 0.1501(14) 0.8002(14) 0.8996(7)
H92_7 H 0.1450 0.8235 0.8884
C84_7 C 0.4143(16) 0.7765(18) 0.9044(7)
H93_7 H 0.4285 0.7968 0.8939
C85_7 C 0.2693(15) 0.7733(12) 0.9882(6)
C86_7 C 0.2308(12) 0.7724(10) 0.9737(6)
C87_7 C 0.3717(16) 0.7156(12) 0.9357(7)
H94_7 H 0.3574 0.6953 0.9462
H146_7 H 0.1147 0.0550 0.9963
O9_7 O 0.1604(10) 0.9663(13) 0.1172(7)
C109_7 C 0.1582(14) 0.9995(10) 0.1799(6)
H112_7 H 0.1760 0.9775 0.1866
C112_7 C 0.0691(19) 0.9600(17) 0.1214(8)
H117_7 H 0.0613 0.9905 0.1232
H118_7 H 0.0454 0.9419 0.1275
H119_7 H 0.0951 0.9541 0.1313
C113_7 C 0.0970(14) 0.9766(12) 0.2088(6)
C114_7 C 0.1084(9) 0.9834(9) 0.0851(5)
C115_7 C 0.1475(9) 0.9887(10) 0.0964(6)
C119_7 C 0.0360(12) 0.9494(17) 0.0789(10)
H121_7 H 0.0242 0.9786 0.0777
H122_7 H 0.0419 0.9384 0.0620
H123_7 H 0.0150 0.9305 0.0872
C121_7 C 0.0663(15) 0.9405(15) 0.2026(10)
H127_7 H 0.0575 0.9260 0.2181
H128_7 H 0.0409 0.9523 0.1941
H129_7 H 0.0807 0.9197 0.1915
C123_7 C 0.1398(13) 0.9580(17) 0.2225(11)
H133_7 H 0.1608 0.9492 0.2098
H134_7 H 0.1524 0.9805 0.2331
H135_7 H 0.1321 0.9331 0.2329
H137_7 H 0.3661 0.9932 0.1351
O12_7 O 0.2891(12) 0.9888(12) 0.1252(9)
C130_7 C 0.0777(10) 0.9502(11) 0.0941(7)
C133_7 C 0.1013(17) 0.9074(17) 0.0923(11)
H148_7 H 0.0877 0.8895 0.0793
H149_7 H 0.1315 0.9126 0.0878
H150_7 H 0.0999 0.8925 0.1085
H152_7 H 0.0585 0.9820 0.2435
N9_7 N 0.2196(17) 0.9261(11) 0.1497(7)
Co4_4 Co 0.7767(4) 0.0246(4) 0.1230(3)
O9_8 O 0.8396(10) 0.0337(13) 0.1172(7)
C109_8 C 0.8418(14) 0.0005(10) 0.1799(6)
H112_8 H 0.8240 0.0225 0.1866
C112_8 C 0.9309(19) 0.0400(17) 0.1214(8)
H117_8 H 0.9387 0.0095 0.1232
H118_8 H 0.9546 0.0581 0.1275
H119_8 H 0.9049 0.0459 0.1313
C113_8 C 0.9030(14) 0.0234(12) 0.2088(6)
C114_8 C 0.8916(9) 0.0166(9) 0.0851(5)
C115_8 C 0.8525(9) 0.0113(10) 0.0964(6)
C119_8 C 0.9640(12) 0.0506(17) 0.0789(10)
H121_8 H 0.9758 0.0214 0.0777
H122_8 H 0.9581 0.0616 0.0620
H123_8 H 0.9850 0.0695 0.0872
C121_8 C 0.9337(15) 0.0595(15) 0.2026(10)
H127_8 H 0.9425 0.0740 0.2181
H128_8 H 0.9591 0.0477 0.1941
H129_8 H 0.9193 0.0803 0.1915
C123_8 C 0.8602(13) 0.0420(17) 0.2225(11)
H133_8 H 0.8392 0.0508 0.2098
H134_8 H 0.8476 0.0195 0.2331
H135_8 H 0.8679 0.0669 0.2329
H137_8 H 0.6339 0.0068 0.1351
O12_8 O 0.7109(12) 0.0112(12) 0.1252(9)
C130_8 C 0.9223(10) 0.0498(11) 0.0941(7)
C133_8 C 0.8987(17) 0.0926(17) 0.0923(11)
H148_8 H 0.9123 0.1105 0.0793
H149_8 H 0.8685 0.0874 0.0878
H150_8 H 0.9001 0.1075 0.1085
H152_8 H 0.9415 0.0180 0.2435
N9_8 N 0.7804(17) 0.0739(11) 0.1497(7)
N12_4 N 0.766(2) 0.0694(11) 0.0934(8)
Co1_8 Co 0.7273(5) 0.4263(4) 0.1258(3)
O1_8 O 0.7164(12) 0.4760(16) 0.0972(10)
O2_8 O 0.7174(11) 0.4762(13) 0.1530(8)
O3_8 O 0.6604(10) 0.5337(13) 0.1172(7)
O4_8 O 0.6606(13) 0.4187(12) 0.1301(7)
C1_8 C 0.7717(15) 0.3692(14) 0.0844(10)
H1_8 H 0.7975 0.3853 0.0861
O5_8 O 0.7897(12) 0.4418(12) 0.1226(8)
C2_8 C 0.6481(10) 0.4393(9) 0.1504(5)
C5_8 C 0.7436(13) 0.2237(18) 0.0923(7)
H5_8 H 0.7396 0.1938 0.0977
H6_8 H 0.7227 0.2422 0.1008
H7_8 H 0.7729 0.2331 0.0966
C6_8 C 0.7364(9) 0.1881(11) 0.0505(9)
C7_8 C 0.6751(11) 0.4731(10) 0.1608(6)
C8_8 C 0.7417(13) 0.1446(12) 0.0665(7)
C9_8 C 0.6582(14) 0.5005(10) 0.1799(6)
H8_8 H 0.6760 0.5225 0.1866
C10_8 C 0.7690(11) 0.3353(14) 0.0663(9)
H9_8 H 0.7903 0.3325 0.0536
C15_8 C 0.568(2) 0.4081(17) 0.1216(9)
H14_8 H 0.5369 0.4123 0.1199
H15_8 H 0.5768 0.3830 0.1116
H16_8 H 0.5832 0.4337 0.1155
C16_8 C 0.7341(10) 0.3059(10) 0.0676(6)
C18_8 C 0.7114(10) 0.1233(16) 0.0821(8)
H17_8 H 0.6829 0.1343 0.0836
C19_8 C 0.5893(13) 0.4625(13) 0.1789(6)
H18_8 H 0.5607 0.4588 0.1848
C20_8 C 0.5691(19) 0.5400(17) 0.1214(8)
H19_8 H 0.5613 0.5095 0.1232
H20_8 H 0.5454 0.5581 0.1275
H21_8 H 0.5951 0.5459 0.1313
C22_8 C 0.7310(10) 0.1900(12) 0.0240(9)
C23_8 C 0.5970(14) 0.5234(12) 0.2088(6)
C24_8 C 0.6084(9) 0.5166(9) 0.0851(5)
C25_8 C 0.6475(9) 0.5113(10) 0.0964(6)
C26_8 C 0.5958(13) 0.4911(11) 0.0648(6)
H23_8 H 0.5684 0.4955 0.0573
C27_8 C 0.6759(11) 0.4794(10) 0.0873(7)
C29_8 C 0.615(2) 0.4303(16) 0.0342(8)
C31_8 C 0.5360(12) 0.5506(17) 0.0789(10)
H26_8 H 0.5242 0.5214 0.0777
H27_8 H 0.5419 0.5616 0.0620
H28_8 H 0.5150 0.5695 0.0872
C32_8 C 0.5337(15) 0.409(2) 0.1577(11)
H29_8 H 0.5270 0.4397 0.1557
H30_8 H 0.5311 0.4011 0.1755
H31_8 H 0.5136 0.3919 0.1477
C33_8 C 0.5663(15) 0.5595(15) 0.2026(10)
H32_8 H 0.5575 0.5740 0.2181
H33_8 H 0.5409 0.5477 0.1941
H34_8 H 0.5807 0.5803 0.1915
C34_8 C 0.7262(18) 0.141(2) 0.0090(12)
H35_8 H 0.7546 0.1320 0.0031
H37_8 H 0.7144 0.1201 0.0206
C35_8 C 0.597(2) 0.3577(16) 0.1530(11)
H38_8 H 0.5916 0.3397 0.1382
H39_8 H 0.5839 0.3446 0.1678
H40_8 H 0.6284 0.3599 0.1556
C37_8 C 0.6398(13) 0.5420(17) 0.2225(11)
H42_8 H 0.6608 0.5508 0.2098
H43_8 H 0.6524 0.5195 0.2331
H44_8 H 0.6321 0.5669 0.2329
C39_8 C 0.7374(7) 0.2268(13) 0.0649(6)
C41_8 C 0.7330(7) 0.2673(10) 0.0527(6)
C43_8 C 0.7238(18) 0.3104(14) 0.0137(9)
H48_8 H 0.6936 0.3198 0.0139
H50_8 H 0.7417 0.3318 0.0223
C45_8 C 0.6989(10) 0.3136(12) 0.0840(7)
H51_8 H 0.6749 0.2946 0.0842
C46_8 C 0.6154(16) 0.4960(11) 0.1893(5)
C48_8 C 0.8569(11) 0.4772(16) 0.1315(10)
H53_8 H 0.8630 0.4590 0.1461
H54_8 H 0.8661 0.5068 0.1351
H55_8 H 0.8725 0.4662 0.1169
O6_8 O 0.7891(12) 0.5112(12) 0.1252(9)
C49_8 C 0.6233(16) 0.4592(10) 0.0552(6)
C50_8 C 0.635(2) 0.3888(19) 0.0249(12)
H56_8 H 0.6316 0.3870 0.0066
H57_8 H 0.6203 0.3643 0.0329
H58_8 H 0.6656 0.3883 0.0292
C51_8 C 0.575(2) 0.407(2) 0.0425(14)
H59_8 H 0.5783 0.3969 0.0597
H60_8 H 0.5693 0.3829 0.0313
H61_8 H 0.5503 0.4274 0.0417
C52_8 C 0.608(2) 0.4604(18) 0.0119(13)
H62_8 H 0.5784 0.4704 0.0117
H64_8 H 0.6277 0.4853 0.0135
C53_8 C 0.7965(13) 0.0907(16) 0.0777(10)
H65_8 H 0.8250 0.0798 0.0763
N3_8 N 0.7354(18) 0.3785(13) 0.0998(8)
C54_8 C 0.5777(10) 0.5498(11) 0.0941(7)
C55_8 C 0.5792(12) 0.4006(13) 0.1490(8)
C57_8 C 0.6998(14) 0.3499(14) 0.1004(7)
H66_8 H 0.6765 0.3550 0.1116
C58_8 C 0.6048(11) 0.4350(10) 0.1601(6)
C59_8 C 0.7235(18) 0.0857(16) 0.0956(7)
H67_8 H 0.7032 0.0715 0.1061
C60_8 C 0.6013(17) 0.5926(17) 0.0923(11)
H68_8 H 0.5877 0.6105 0.0793
H69_8 H 0.6315 0.5874 0.0878
H70_8 H 0.5999 0.6075 0.1085
C61_8 C 0.7267(12) 0.2307(15) 0.0118(6)
C64_8 C 0.7276(10) 0.2692(12) 0.0263(6)
C65_8 C 0.7844(12) 0.1283(16) 0.0643(7)
H73_8 H 0.8047 0.1426 0.0538
C66_8 C 0.6630(15) 0.4539(11) 0.0668(7)
H74_8 H 0.6821 0.4323 0.0607
C67_8 C 0.5774(17) 0.4983(16) 0.2343(9)
H75_8 H 0.5585 0.5180 0.2435
H76_8 H 0.6013 0.4895 0.2451
H77_8 H 0.5610 0.4729 0.2290
C68_8 C 0.8091(12) 0.4767(14) 0.1262(7)
H85_8 H 0.6446 0.2068 0.0054
H88_8 H 0.8076 0.2334 0.0038
O7_8 O 0.7836(12) 0.9760(16) 0.0972(10)
O8_8 O 0.7826(11) 0.9762(13) 0.1530(8)
O10_8 O 0.8394(13) 0.9187(12) 0.1301(7)
O11_8 O 0.7103(12) 0.9418(12) 0.1226(8)
C107_8 C 0.8519(10) 0.9393(9) 0.1504(5)
C108_8 C 0.8249(11) 0.9731(10) 0.1608(6)
C110_8 C 0.932(2) 0.9081(17) 0.1216(9)
H113_8 H 0.9631 0.9123 0.1199
H114_8 H 0.9232 0.8830 0.1116
H115_8 H 0.9168 0.9337 0.1155
C111_8 C 0.9107(13) 0.9625(13) 0.1789(6)
H116_8 H 0.9393 0.9588 0.1848
C116_8 C 0.9042(13) 0.9911(11) 0.0648(6)
H120_8 H 0.9316 0.9955 0.0573
C117_8 C 0.8241(11) 0.9794(10) 0.0873(7)
C118_8 C 0.885(2) 0.9303(16) 0.0342(8)
C120_8 C 0.9663(15) 0.909(2) 0.1577(11)
H124_8 H 0.9730 0.9397 0.1557
H125_8 H 0.9689 0.9011 0.1755
H126_8 H 0.9864 0.8919 0.1477
C122_8 C 0.903(2) 0.8577(16) 0.1530(11)
H130_8 H 0.9084 0.8397 0.1382
H131_8 H 0.9161 0.8446 0.1678
H132_8 H 0.8716 0.8599 0.1556
C124_8 C 0.8846(16) 0.9960(11) 0.1893(5)
C125_8 C 0.6431(11) 0.9772(16) 0.1315(10)
H136_8 H 0.6370 0.9590 0.1461
H138_8 H 0.6275 0.9662 0.1169
C126_8 C 0.8767(16) 0.9592(10) 0.0552(6)
C127_8 C 0.865(2) 0.8888(19) 0.0249(12)
H139_8 H 0.8684 0.8870 0.0066
H140_8 H 0.8797 0.8643 0.0329
H141_8 H 0.8344 0.8883 0.0292
C128_8 C 0.925(2) 0.907(2) 0.0425(14)
H142_8 H 0.9217 0.8969 0.0597
H143_8 H 0.9307 0.8829 0.0313
H144_8 H 0.9497 0.9274 0.0417
C129_8 C 0.892(2) 0.9604(18) 0.0119(13)
H145_8 H 0.9216 0.9704 0.0117
H147_8 H 0.8723 0.9853 0.0135
C131_8 C 0.9208(12) 0.9006(13) 0.1490(8)
C132_8 C 0.8952(11) 0.9350(10) 0.1601(6)
C134_8 C 0.8370(15) 0.9539(11) 0.0668(7)
H151_8 H 0.8179 0.9323 0.0607
C135_8 C 0.9226(17) 0.9983(16) 0.2343(9)
H153_8 H 0.8987 0.9895 0.2451
H154_8 H 0.9390 0.9729 0.2290
C136_8 C 0.6909(12) 0.9767(14) 0.1262(7)
N10_8 N 0.7384(17) 0.3828(10) 0.1547(7)
H36_8 H 0.7068 0.1446 0.9946
H49_8 H 0.7334 0.3076 0.9962
H63_8 H 0.6147 0.4450 0.9963
C69_8 C 0.8692(14) 0.2717(15) 0.9156(10)
H78_8 H 0.8853 0.2975 0.9139
C70_8 C 0.7237(18) 0.2436(13) 0.9077(7)
H79_8 H 0.6938 0.2396 0.9023
H80_8 H 0.7422 0.2227 0.8992
H81_8 H 0.7331 0.2729 0.9034
C71_8 C 0.6881(11) 0.2364(9) 0.9495(9)
C72_8 C 0.6446(12) 0.2417(13) 0.9335(7)
C73_8 C 0.8353(14) 0.2690(11) 0.9337(9)
H82_8 H 0.8325 0.2903 0.9464
C74_8 C 0.8059(10) 0.2341(10) 0.9324(6)
C75_8 C 0.6233(16) 0.2114(10) 0.9179(8)
H83_8 H 0.6343 0.1829 0.9164
C76_8 C 0.6900(12) 0.2310(10) 0.9760(9)
C77_8 C 0.641(2) 0.2262(18) 0.9910(12)
H84_8 H 0.6320 0.2546 0.9969
H86_8 H 0.6201 0.2144 0.9794
C78_8 C 0.7268(13) 0.2374(7) 0.9351(6)
C79_8 C 0.7673(10) 0.2330(7) 0.9473(6)
C80_8 C 0.8104(14) 0.2238(18) 0.9863(9)
H87_8 H 0.8198 0.1936 0.9861
H89_8 H 0.8318 0.2417 0.9777
C81_8 C 0.8136(12) 0.1989(10) 0.9160(7)
H90_8 H 0.7946 0.1749 0.9158
C82_8 C 0.5907(16) 0.2965(13) 0.9223(10)
H91_8 H 0.5798 0.3250 0.9237
C83_8 C 0.8499(14) 0.1998(14) 0.8996(7)
H92_8 H 0.8550 0.1765 0.8884
C84_8 C 0.5857(16) 0.2235(18) 0.9044(7)
H93_8 H 0.5715 0.2032 0.8939
C85_8 C 0.7307(15) 0.2267(12) 0.9882(6)
C86_8 C 0.7692(12) 0.2276(10) 0.9737(6)
C87_8 C 0.6283(16) 0.2844(12) 0.9357(7)
H94_8 H 0.6426 0.3047 0.9462
H146_8 H 0.8853 0.9450 0.9963
C3_5 C 0.8503(18) 0.7815(17) 0.7630(11)
H2_5 H 0.8554 0.8123 0.7601
H3_5 H 0.8452 0.7671 0.7469
H4_5 H 0.8756 0.7688 0.7712
C4_5 C 0.8149(9) 0.7713(10) 0.8045(8)
C11_5 C 0.6742(13) 0.7891(11) 0.8329(7)
H10_5 H 0.6872 0.8167 0.8341
C12_5 C 0.6925(10) 0.7571(14) 0.8171(6)
C13_5 C 0.6950(13) 0.7675(18) 0.7643(11)
H11_5 H 0.6996 0.7664 0.7460
H12_5 H 0.6781 0.7932 0.7685
H13_5 H 0.6794 0.7417 0.7697
C14_5 C 0.8155(13) 0.7764(11) 0.7780(8)
C17_5 C 0.7359(9) 0.7654(15) 0.8036(8)
C21_5 C 0.6354(14) 0.7065(12) 0.8295(8)
H22_5 H 0.6224 0.6788 0.8283
C28_5 C 0.6732(13) 0.7157(12) 0.8153(7)
H24_5 H 0.6854 0.6943 0.8047
C30_5 C 0.8616(12) 0.8136(10) 0.8322(7)
H25_5 H 0.8430 0.8376 0.8300
C36_5 C 0.8989(14) 0.8175(14) 0.8475(6)
H41_5 H 0.9057 0.8439 0.8556
C38_5 C 0.7753(12) 0.7652(10) 0.8173(6)
C40_5 C 0.7755(18) 0.7582(18) 0.8442(7)
H45_5 H 0.7994 0.7390 0.8487
H46_5 H 0.7482 0.7450 0.8493
H47_5 H 0.7791 0.7858 0.8529
C42_5 C 0.7762(17) 0.7753(13) 0.7643(6)
C44_5 C 0.7365(13) 0.7695(11) 0.7770(8)
C47_5 C 0.6364(13) 0.7798(15) 0.8471(6)
H52_5 H 0.6241 0.8011 0.8576
C56_5 C 0.8521(10) 0.7737(11) 0.8203(6)
C62_5 C 0.8791(13) 0.7374(10) 0.8232(7)
H71_5 H 0.8720 0.7110 0.8151
C63_5 C 0.9170(12) 0.7403(15) 0.8384(8)
H72_5 H 0.9355 0.7162 0.8405
C88_5 C 0.7815(17) 0.8503(18) 0.7370(11)
H95_5 H 0.8123 0.8554 0.7399
H96_5 H 0.7671 0.8452 0.7531
H97_5 H 0.7688 0.8756 0.7288
C89_5 C 0.7713(10) 0.8149(9) 0.6955(8)
C90_5 C 0.7891(11) 0.6742(13) 0.6671(7)
H98_5 H 0.8167 0.6872 0.6659
C91_5 C 0.7571(14) 0.6925(10) 0.6829(6)
C92_5 C 0.7675(18) 0.6950(13) 0.7357(11)
H99_5 H 0.7664 0.6996 0.7540
H100_5 H 0.7932 0.6781 0.7315
H101_5 H 0.7417 0.6794 0.7303
C93_5 C 0.7764(11) 0.8155(13) 0.7220(8)
C94_5 C 0.7654(15) 0.7359(9) 0.6964(8)
C95_5 C 0.7065(12) 0.6354(14) 0.6705(8)
H102_5 H 0.6788 0.6224 0.6717
C96_5 C 0.7157(12) 0.6732(13) 0.6847(7)
H103_5 H 0.6943 0.6854 0.6953
C97_5 C 0.8136(10) 0.8616(12) 0.6678(7)
H104_5 H 0.8376 0.8430 0.6700
C98_5 C 0.8175(14) 0.8989(14) 0.6525(6)
H105_5 H 0.8439 0.9057 0.6444
C99_5 C 0.7652(10) 0.7753(12) 0.6827(6)
C100_5 C 0.7582(18) 0.7755(18) 0.6558(7)
H106_5 H 0.7390 0.7994 0.6513
H107_5 H 0.7450 0.7482 0.6507
H108_5 H 0.7858 0.7791 0.6471
C101_5 C 0.7753(13) 0.7762(17) 0.7357(6)
C102_5 C 0.7695(11) 0.7365(13) 0.7230(8)
C103_5 C 0.7798(15) 0.6364(13) 0.6529(6)
H109_5 H 0.8011 0.6241 0.6424
C104_5 C 0.7737(11) 0.8521(10) 0.6797(6)
C105_5 C 0.7374(10) 0.8791(13) 0.6768(7)
H110_5 H 0.7110 0.8720 0.6849
C106_5 C 0.7403(15) 0.9170(12) 0.6616(8)
H111_5 H 0.7162 0.9355 0.6595
C3_6 C 0.1497(18) 0.2185(17) 0.7630(11)
H2_6 H 0.1446 0.1877 0.7601
H3_6 H 0.1548 0.2329 0.7469
H4_6 H 0.1244 0.2312 0.7712
C4_6 C 0.1851(9) 0.2287(10) 0.8045(8)
C11_6 C 0.3258(13) 0.2109(11) 0.8329(7)
H10_6 H 0.3128 0.1833 0.8341
C12_6 C 0.3075(10) 0.2429(14) 0.8171(6)
C13_6 C 0.3050(13) 0.2325(18) 0.7643(11)
H11_6 H 0.3004 0.2336 0.7460
H12_6 H 0.3219 0.2068 0.7685
H13_6 H 0.3206 0.2583 0.7697
C14_6 C 0.1845(13) 0.2236(11) 0.7780(8)
C17_6 C 0.2641(9) 0.2346(15) 0.8036(8)
C21_6 C 0.3646(14) 0.2935(12) 0.8295(8)
H22_6 H 0.3776 0.3212 0.8283
C28_6 C 0.3268(13) 0.2843(12) 0.8153(7)
H24_6 H 0.3146 0.3057 0.8047
C30_6 C 0.1384(12) 0.1864(10) 0.8322(7)
H25_6 H 0.1570 0.1624 0.8300
C36_6 C 0.1011(14) 0.1825(14) 0.8475(6)
H41_6 H 0.0943 0.1561 0.8556
C38_6 C 0.2247(12) 0.2348(10) 0.8173(6)
C40_6 C 0.2245(18) 0.2418(18) 0.8442(7)
H45_6 H 0.2006 0.2610 0.8487
H46_6 H 0.2518 0.2550 0.8493
H47_6 H 0.2209 0.2142 0.8529
C42_6 C 0.2238(17) 0.2247(13) 0.7643(6)
C44_6 C 0.2635(13) 0.2305(11) 0.7770(8)
C47_6 C 0.3636(13) 0.2202(15) 0.8471(6)
H52_6 H 0.3759 0.1989 0.8576
C56_6 C 0.1479(10) 0.2263(11) 0.8203(6)
C62_6 C 0.1209(13) 0.2626(10) 0.8232(7)
H71_6 H 0.1280 0.2890 0.8151
C63_6 C 0.0830(12) 0.2597(15) 0.8384(8)
H72_6 H 0.0645 0.2838 0.8405
C88_6 C 0.2185(17) 0.1497(18) 0.7370(11)
H95_6 H 0.1877 0.1446 0.7399
H96_6 H 0.2329 0.1548 0.7531
H97_6 H 0.2312 0.1244 0.7288
C89_6 C 0.2287(10) 0.1851(9) 0.6955(8)
C90_6 C 0.2109(11) 0.3258(13) 0.6671(7)
H98_6 H 0.1833 0.3128 0.6659
C91_6 C 0.2429(14) 0.3075(10) 0.6829(6)
C92_6 C 0.2325(18) 0.3050(13) 0.7357(11)
H99_6 H 0.2336 0.3004 0.7540
H100_6 H 0.2068 0.3219 0.7315
H101_6 H 0.2583 0.3206 0.7303
C93_6 C 0.2236(11) 0.1845(13) 0.7220(8)
C94_6 C 0.2346(15) 0.2641(9) 0.6964(8)
C95_6 C 0.2935(12) 0.3646(14) 0.6705(8)
H102_6 H 0.3212 0.3776 0.6717
C96_6 C 0.2843(12) 0.3268(13) 0.6847(7)
H103_6 H 0.3057 0.3146 0.6953
C97_6 C 0.1864(10) 0.1384(12) 0.6678(7)
H104_6 H 0.1624 0.1570 0.6700
C98_6 C 0.1825(14) 0.1011(14) 0.6525(6)
H105_6 H 0.1561 0.0943 0.6444
C99_6 C 0.2348(10) 0.2247(12) 0.6827(6)
C100_6 C 0.2418(18) 0.2245(18) 0.6558(7)
H106_6 H 0.2610 0.2006 0.6513
H107_6 H 0.2550 0.2518 0.6507
H108_6 H 0.2142 0.2209 0.6471
C101_6 C 0.2247(13) 0.2238(17) 0.7357(6)
C102_6 C 0.2305(11) 0.2635(13) 0.7230(8)
C103_6 C 0.2202(15) 0.3636(13) 0.6529(6)
H109_6 H 0.1989 0.3759 0.6424
C104_6 C 0.2263(11) 0.1479(10) 0.6797(6)
C105_6 C 0.2626(10) 0.1209(13) 0.6768(7)
H110_6 H 0.2890 0.1280 0.6849
C106_6 C 0.2597(15) 0.0830(12) 0.6616(8)
H111_6 H 0.2838 0.0645 0.6595
C3_7 C 0.7815(17) 0.1497(18) 0.2370(11)
H2_7 H 0.8123 0.1446 0.2399
H3_7 H 0.7671 0.1548 0.2531
H4_7 H 0.7688 0.1244 0.2288
C4_7 C 0.7713(10) 0.1851(9) 0.1955(8)
C11_7 C 0.7891(11) 0.3258(13) 0.1671(7)
H10_7 H 0.8167 0.3128 0.1659
C12_7 C 0.7571(14) 0.3075(10) 0.1829(6)
C13_7 C 0.7675(18) 0.3050(13) 0.2357(11)
H11_7 H 0.7664 0.3004 0.2540
H12_7 H 0.7932 0.3219 0.2315
H13_7 H 0.7417 0.3206 0.2303
C14_7 C 0.7764(11) 0.1845(13) 0.2220(8)
C17_7 C 0.7654(15) 0.2641(9) 0.1964(8)
C21_7 C 0.7065(12) 0.3646(14) 0.1705(8)
H22_7 H 0.6788 0.3776 0.1717
C28_7 C 0.7157(12) 0.3268(13) 0.1847(7)
H24_7 H 0.6943 0.3146 0.1953
C30_7 C 0.8136(10) 0.1384(12) 0.1678(7)
H25_7 H 0.8376 0.1570 0.1700
C36_7 C 0.8175(14) 0.1011(14) 0.1525(6)
H41_7 H 0.8439 0.0943 0.1444
C38_7 C 0.7652(10) 0.2247(12) 0.1827(6)
C40_7 C 0.7582(18) 0.2245(18) 0.1558(7)
H45_7 H 0.7390 0.2006 0.1513
H46_7 H 0.7450 0.2518 0.1507
H47_7 H 0.7858 0.2209 0.1471
C42_7 C 0.7753(13) 0.2238(17) 0.2357(6)
C44_7 C 0.7695(11) 0.2635(13) 0.2230(8)
C47_7 C 0.7798(15) 0.3636(13) 0.1529(6)
H52_7 H 0.8011 0.3759 0.1424
C56_7 C 0.7737(11) 0.1479(10) 0.1797(6)
C62_7 C 0.7374(10) 0.1209(13) 0.1768(7)
H71_7 H 0.7110 0.1280 0.1849
C63_7 C 0.7403(15) 0.0830(12) 0.1616(8)
H72_7 H 0.7162 0.0645 0.1595
C88_7 C 0.8503(18) 0.2185(17) 0.2630(11)
H95_7 H 0.8554 0.1877 0.2601
H96_7 H 0.8452 0.2329 0.2469
H97_7 H 0.8756 0.2312 0.2712
C89_7 C 0.8149(9) 0.2287(10) 0.3045(8)
C90_7 C 0.6742(13) 0.2109(11) 0.3329(7)
H98_7 H 0.6872 0.1833 0.3341
C91_7 C 0.6925(10) 0.2429(14) 0.3171(6)
C92_7 C 0.6950(13) 0.2325(18) 0.2643(11)
H99_7 H 0.6996 0.2336 0.2460
H100_7 H 0.6781 0.2068 0.2685
H101_7 H 0.6794 0.2583 0.2697
C93_7 C 0.8155(13) 0.2236(11) 0.2780(8)
C94_7 C 0.7359(9) 0.2346(15) 0.3036(8)
C95_7 C 0.6354(14) 0.2935(12) 0.3295(8)
H102_7 H 0.6224 0.3212 0.3283
C96_7 C 0.6732(13) 0.2843(12) 0.3153(7)
H103_7 H 0.6854 0.3057 0.3047
C97_7 C 0.8616(12) 0.1864(10) 0.3322(7)
H104_7 H 0.8430 0.1624 0.3300
C98_7 C 0.8989(14) 0.1825(14) 0.3475(6)
H105_7 H 0.9057 0.1561 0.3556
C99_7 C 0.7753(12) 0.2348(10) 0.3173(6)
C100_7 C 0.7755(18) 0.2418(18) 0.3442(7)
H106_7 H 0.7994 0.2610 0.3487
H107_7 H 0.7482 0.2550 0.3493
H108_7 H 0.7791 0.2142 0.3529
C101_7 C 0.7762(17) 0.2247(13) 0.2643(6)
C102_7 C 0.7365(13) 0.2305(11) 0.2770(8)
C103_7 C 0.6364(13) 0.2202(15) 0.3471(6)
H109_7 H 0.6241 0.1989 0.3576
C104_7 C 0.8521(10) 0.2263(11) 0.3203(6)
C105_7 C 0.8791(13) 0.2626(10) 0.3232(7)
H110_7 H 0.8720 0.2890 0.3151
C106_7 C 0.9170(12) 0.2597(15) 0.3384(8)
H111_7 H 0.9355 0.2838 0.3405
C3_8 C 0.2185(17) 0.8503(18) 0.2370(11)
H2_8 H 0.1877 0.8554 0.2399
H3_8 H 0.2329 0.8452 0.2531
H4_8 H 0.2312 0.8756 0.2288
C4_8 C 0.2287(10) 0.8149(9) 0.1955(8)
C11_8 C 0.2109(11) 0.6742(13) 0.1671(7)
H10_8 H 0.1833 0.6872 0.1659
C12_8 C 0.2429(14) 0.6925(10) 0.1829(6)
C13_8 C 0.2325(18) 0.6950(13) 0.2357(11)
H11_8 H 0.2336 0.6996 0.2540
H12_8 H 0.2068 0.6781 0.2315
H13_8 H 0.2583 0.6794 0.2303
C14_8 C 0.2236(11) 0.8155(13) 0.2220(8)
C17_8 C 0.2346(15) 0.7359(9) 0.1964(8)
C21_8 C 0.2935(12) 0.6354(14) 0.1705(8)
H22_8 H 0.3212 0.6224 0.1717
C28_8 C 0.2843(12) 0.6732(13) 0.1847(7)
H24_8 H 0.3057 0.6854 0.1953
C30_8 C 0.1864(10) 0.8616(12) 0.1678(7)
H25_8 H 0.1624 0.8430 0.1700
C36_8 C 0.1825(14) 0.8989(14) 0.1525(6)
H41_8 H 0.1561 0.9057 0.1444
C38_8 C 0.2348(10) 0.7753(12) 0.1827(6)
C40_8 C 0.2418(18) 0.7755(18) 0.1558(7)
H45_8 H 0.2610 0.7994 0.1513
H46_8 H 0.2550 0.7482 0.1507
H47_8 H 0.2142 0.7791 0.1471
C42_8 C 0.2247(13) 0.7762(17) 0.2357(6)
C44_8 C 0.2305(11) 0.7365(13) 0.2230(8)
C47_8 C 0.2202(15) 0.6364(13) 0.1529(6)
H52_8 H 0.1989 0.6241 0.1424
C56_8 C 0.2263(11) 0.8521(10) 0.1797(6)
C62_8 C 0.2626(10) 0.8791(13) 0.1768(7)
H71_8 H 0.2890 0.8720 0.1849
C63_8 C 0.2597(15) 0.9170(12) 0.1616(8)
H72_8 H 0.2838 0.9355 0.1595
C88_8 C 0.1497(18) 0.7815(17) 0.2630(11)
H95_8 H 0.1446 0.8123 0.2601
H96_8 H 0.1548 0.7671 0.2469
H97_8 H 0.1244 0.7688 0.2712
C89_8 C 0.1851(9) 0.7713(10) 0.3045(8)
C90_8 C 0.3258(13) 0.7891(11) 0.3329(7)
H98_8 H 0.3128 0.8167 0.3341
C91_8 C 0.3075(10) 0.7571(14) 0.3171(6)
C92_8 C 0.3050(13) 0.7675(18) 0.2643(11)
H99_8 H 0.3004 0.7664 0.2460
H100_8 H 0.3219 0.7932 0.2685
H101_8 H 0.3206 0.7417 0.2697
C93_8 C 0.1845(13) 0.7764(11) 0.2780(8)
C94_8 C 0.2641(9) 0.7654(15) 0.3036(8)
C95_8 C 0.3646(14) 0.7065(12) 0.3295(8)
H102_8 H 0.3776 0.6788 0.3283
C96_8 C 0.3268(13) 0.7157(12) 0.3153(7)
H103_8 H 0.3146 0.6943 0.3047
C97_8 C 0.1384(12) 0.8136(10) 0.3322(7)
H104_8 H 0.1570 0.8376 0.3300
C98_8 C 0.1011(14) 0.8175(14) 0.3475(6)
H105_8 H 0.0943 0.8439 0.3556
C99_8 C 0.2247(12) 0.7652(10) 0.3173(6)
C100_8 C 0.2245(18) 0.7582(18) 0.3442(7)
H106_8 H 0.2006 0.7390 0.3487
H107_8 H 0.2518 0.7450 0.3493
H108_8 H 0.2209 0.7858 0.3529
C101_8 C 0.2238(17) 0.7753(13) 0.2643(6)
C102_8 C 0.2635(13) 0.7695(11) 0.2770(8)
C103_8 C 0.3636(13) 0.7798(15) 0.3471(6)
H109_8 H 0.3759 0.8011 0.3576
C104_8 C 0.1479(10) 0.7737(11) 0.3203(6)
C105_8 C 0.1209(13) 0.7374(10) 0.3232(7)
H110_8 H 0.1280 0.7110 0.3151
C106_8 C 0.0830(12) 0.7403(15) 0.3384(8)
H111_8 H 0.0645 0.7162 0.3405
loop_
_geom_bond_atom_site_label_1
_geom_bond_atom_site_label_2
_geom_bond_site_symmetry_1
_geom_bond_site_symmetry_2
Co1 O1 1_555 1_555
Co2 O1 1_555 1_555
O1 C27 1_555 1_555
O2 Co1 1_555 1_555
O3 Co2 1_555 1_555
O4 Co1 1_555 1_555
C1 H1 1_555 1_555
O5 Co1 1_555 1_555
C2 O4 1_555 1_555
C3 H2 1_555 1_555
H3 C3 1_555 1_555
H4 C3 1_555 1_555
C4 C14 1_555 1_555
C5 H5 1_555 1_555
H6 C5 1_555 1_555
H7 C5 1_555 1_555
C6 C8 1_555 1_555
C7 O2 1_555 1_555
C8 C18 1_555 1_555
C9 C7 1_555 1_555
H8 C9 1_555 1_555
C10 C1 1_555 1_555
H9 C10 1_555 1_555
C11 H10 1_555 1_555
C12 C11 1_555 1_555
C13 H11 1_555 1_555
H12 C13 1_555 1_555
H13 C13 1_555 1_555
C14 C3 1_555 1_555
C15 H14 1_555 1_555
H15 C15 1_555 1_555
H16 C15 1_555 1_555
C16 C10 1_555 1_555
C17 C12 1_555 1_555
C18 H17 1_555 1_555
C19 H18 1_555 1_555
C20 H19 1_555 1_555
H20 C20 1_555 1_555
H21 C20 1_555 1_555
C21 H22 1_555 1_555
C22 C6 1_555 1_555
C23 C33 1_555 1_555
C24 C25 1_555 1_555
C25 O3 1_555 1_555
C26 C24 1_555 1_555
H23 C26 1_555 1_555
C27 C25 1_555 1_555
C28 C12 1_555 1_555
H24 C28 1_555 1_555
C29 C49 1_555 1_555
C30 H25 1_555 1_555
C31 H26 1_555 1_555
H27 C31 1_555 1_555
H28 C31 1_555 1_555
C32 H29 1_555 1_555
H30 C32 1_555 1_555
H31 C32 1_555 1_555
C33 H32 1_555 1_555
H33 C33 1_555 1_555
H34 C33 1_555 1_555
C34 C22 1_555 1_555
H35 C34 1_555 1_555
H36 C34 1_555 1_555
H37 C34 1_555 1_555
C35 H38 1_555 1_555
H39 C35 1_555 1_555
H40 C35 1_555 1_555
C36 C30 1_555 1_555
H41 C36 1_555 1_555
C37 C23 1_555 1_555
H42 C37 1_555 1_555
H43 C37 1_555 1_555
H44 C37 1_555 1_555
C38 C4 1_555 1_555
C39 C5 1_555 1_555
C40 C38 1_555 1_555
H45 C40 1_555 1_555
H46 C40 1_555 1_555
H47 C40 1_555 1_555
C41 C16 1_555 1_555
C42 C14 1_555 1_555
C43 H48 1_555 1_555
H49 C43 1_555 1_555
H50 C43 1_555 1_555
N1 Co2 1_555 1_555
C44 C13 1_555 1_555
N2 C21 1_555 1_555
C45 C16 1_555 1_555
H51 C45 1_555 1_555
C46 C9 1_555 1_555
C47 C11 1_555 1_555
H52 C47 1_555 1_555
C48 H53 1_555 1_555
H54 C48 1_555 1_555
H55 C48 1_555 1_555
O6 Co2 1_555 1_555
C49 C26 1_555 1_555
C50 C29 1_555 1_555
H56 C50 1_555 1_555
H57 C50 1_555 1_555
H58 C50 1_555 1_555
C51 C29 1_555 1_555
H59 C51 1_555 1_555
H60 C51 1_555 1_555
H61 C51 1_555 1_555
C52 C29 1_555 1_555
H62 C52 1_555 1_555
H63 C52 1_555 1_555
H64 C52 1_555 1_555
C53 H65 1_555 1_555
N3 Co1 1_555 1_555
C54 C20 1_555 1_555
C55 C15 1_555 1_555
N4 C53 1_555 1_555
C56 C4 1_555 1_555
C57 C45 1_555 1_555
H66 C57 1_555 1_555
C58 C2 1_555 1_555
C59 C18 1_555 1_555
H67 C59 1_555 1_555
C60 C54 1_555 1_555
H68 C60 1_555 1_555
H69 C60 1_555 1_555
H70 C60 1_555 1_555
C61 C22 1_555 1_555
C62 C56 1_555 1_555
H71 C62 1_555 1_555
C63 N1 1_555 1_555
H72 C63 1_555 1_555
C64 C41 1_555 1_555
C65 C8 1_555 1_555
H73 C65 1_555 1_555
C66 C27 1_555 1_555
H74 C66 1_555 1_555
C67 C23 1_555 1_555
H75 C67 1_555 1_555
H76 C67 1_555 1_555
H77 C67 1_555 1_555
C68 O5 1_555 1_555
C69 H78 1_555 1_555
C70 H79 1_555 1_555
H80 C70 1_555 1_555
H81 C70 1_555 1_555
C71 C72 1_555 1_555
C72 C75 1_555 1_555
C73 C69 1_555 1_555
H82 C73 1_555 1_555
C74 C73 1_555 1_555
C75 H83 1_555 1_555
C76 C71 1_555 1_555
C77 C76 1_555 1_555
H84 C77 1_555 1_555
H85 C77 1_555 1_555
H86 C77 1_555 1_555
C78 C70 1_555 1_555
C79 C74 1_555 1_555
C80 H87 1_555 1_555
H88 C80 1_555 1_555
H89 C80 1_555 1_555
C81 C74 1_555 1_555
H90 C81 1_555 1_555
C82 H91 1_555 1_555
N5 C69 1_555 1_555
N6 C82 1_555 1_555
C83 C81 1_555 1_555
H92 C83 1_555 1_555
C84 C75 1_555 1_555
H93 C84 1_555 1_555
C85 C61 1_555 1_555
C86 C79 1_555 1_555
C87 C72 1_555 1_555
H94 C87 1_555 1_555
C88 H95 1_555 1_555
H96 C88 1_555 1_555
H97 C88 1_555 1_555
C89 C93 1_555 1_555
C90 H98 1_555 1_555
C91 C90 1_555 1_555
C92 H99 1_555 1_555
H100 C92 1_555 1_555
H101 C92 1_555 1_555
C93 C88 1_555 1_555
C94 C91 1_555 1_555
C95 H102 1_555 1_555
C96 C91 1_555 1_555
H103 C96 1_555 1_555
C97 H104 1_555 1_555
C98 C97 1_555 1_555
H105 C98 1_555 1_555
C99 C89 1_555 1_555
C100 C99 1_555 1_555
H106 C100 1_555 1_555
H107 C100 1_555 1_555
H108 C100 1_555 1_555
C101 C42 1_555 1_555
N7 C98 1_555 1_555
C102 C92 1_555 1_555
N8 C95 1_555 1_555
C103 C90 1_555 1_555
H109 C103 1_555 1_555
C104 C89 1_555 1_555
C105 C104 1_555 1_555
H110 C105 1_555 1_555
C106 N7 1_555 1_555
H111 C106 1_555 1_555
Co3 N2 1_555 1_555
O7 Co3 1_555 1_555
O8 Co3 1_555 1_555
O10 Co3 1_555 1_555
O11 Co3 1_555 1_555
C107 O10 1_555 1_555
C108 O8 1_555 1_555
C110 H113 1_555 1_555
H114 C110 1_555 1_555
H115 C110 1_555 1_555
C111 H116 1_555 1_555
H120 C116 1_555 1_555
C117 O7 1_555 1_555
C118 C126 1_555 1_555
C120 H124 1_555 1_555
H125 C120 1_555 1_555
H126 C120 1_555 1_555
C122 H130 1_555 1_555
H131 C122 1_555 1_555
H132 C122 1_555 1_555
C125 H136 1_555 1_555
H138 C125 1_555 1_555
C126 C116 1_555 1_555
C127 C118 1_555 1_555
H139 C127 1_555 1_555
H140 C127 1_555 1_555
H141 C127 1_555 1_555
C128 C118 1_555 1_555
H142 C128 1_555 1_555
H143 C128 1_555 1_555
H144 C128 1_555 1_555
C129 C118 1_555 1_555
H145 C129 1_555 1_555
H146 C129 1_555 1_555
H147 C129 1_555 1_555
C131 C110 1_555 1_555
C132 C107 1_555 1_555
C134 C117 1_555 1_555
H151 C134 1_555 1_555
H153 C135 1_555 1_555
H154 C135 1_555 1_555
C136 O11 1_555 1_555
Co5 N8 1_555 1_555
Co6 N5 1_555 1_555
Co7 N6 1_555 1_555
Co8 N7 1_555 1_555
Co9 N4 1_555 1_555
N10 Co1 1_555 1_555
N11 Co3 1_555 1_555
N13 Co2 1_555 1_555
Co2 O2 1_555 1_555
C1 N3 1_555 1_555
C2 C7 1_555 1_555
C6 C39 1_555 1_555
C17 C38 1_555 1_555
C17 C44 1_555 1_555
C19 C46 1_555 1_555
C19 C58 1_555 1_555
C21 C28 1_555 1_555
C23 C46 1_555 1_555
C24 C54 1_555 1_555
C30 C56 1_555 1_555
C31 C54 1_555 1_555
C32 C55 1_555 1_555
C35 C55 1_555 1_555
C36 N1 1_555 1_555
C39 C41 1_555 1_555
C42 C44 1_555 1_555
C43 C64 1_555 1_555
N2 C47 1_555 1_555
C48 C68 1_555 1_555
O6 C68 1_555 1_555
C49 C66 1_555 1_555
C53 C65 1_555 1_555
N3 C57 1_555 1_555
C55 C58 1_555 1_555
N4 C59 1_555 1_555
C61 C64 1_555 1_555
C62 C63 1_555 1_555
C71 C78 1_555 1_555
C76 C85 1_555 1_555
C78 C79 1_555 1_555
C80 C86 1_555 1_555
C82 C87 1_555 1_555
N5 C83 1_555 1_555
N6 C84 1_555 1_555
C85 C86 1_555 1_555
C93 C101 1_555 1_555
C94 C99 1_555 1_555
C94 C102 1_555 1_555
C95 C96 1_555 1_555
C97 C104 1_555 1_555
C101 C102 1_555 1_555
N8 C103 1_555 1_555
C105 C106 1_555 1_555
C107 C108 1_555 1_555
C111 C124 1_555 1_555
C111 C132 1_555 1_555
C120 C131 1_555 1_555
C122 C131 1_555 1_555
C125 C136 1_555 1_555
C126 C134 1_555 1_555
C131 C132 1_555 1_555
O9 Co9 1_555 1_555
H112 C109 1_555 1_555
C112 H117 1_555 1_555
H118 C112 1_555 1_555
H119 C112 1_555 1_555
C113 C121 1_555 1_555
C114 C115 1_555 1_555
C115 O9 1_555 1_555
C119 H121 1_555 1_555
H122 C119 1_555 1_555
H123 C119 1_555 1_555
C121 H127 1_555 1_555
H128 C121 1_555 1_555
H129 C121 1_555 1_555
C123 C113 1_555 1_555
H133 C123 1_555 1_555
H134 C123 1_555 1_555
H135 C123 1_555 1_555
O12 Co9 1_555 1_555
C130 C112 1_555 1_555
C133 C130 1_555 1_555
H148 C133 1_555 1_555
H149 C133 1_555 1_555
H150 C133 1_555 1_555
N9 Co9 1_555 1_555
C114 C130 1_555 1_555
C119 C130 1_555 1_555
O9_2 Co4 1_555 1_555
H112_2 C109_2 1_555 1_555
C112_2 H117_2 1_555 1_555
H118_2 C112_2 1_555 1_555
H119_2 C112_2 1_555 1_555
C113_2 C121_2 1_555 1_555
C114_2 C115_2 1_555 1_555
C115_2 O9_2 1_555 1_555
C119_2 H121_2 1_555 1_555
H122_2 C119_2 1_555 1_555
H123_2 C119_2 1_555 1_555
C121_2 H127_2 1_555 1_555
H128_2 C121_2 1_555 1_555
H129_2 C121_2 1_555 1_555
C123_2 C113_2 1_555 1_555
H133_2 C123_2 1_555 1_555
H134_2 C123_2 1_555 1_555
H135_2 C123_2 1_555 1_555
O12_2 Co4 1_555 1_555
C130_2 C112_2 1_555 1_555
C133_2 C130_2 1_555 1_555
H148_2 C133_2 1_555 1_555
H149_2 C133_2 1_555 1_555
H150_2 C133_2 1_555 1_555
N9_2 Co4 1_555 1_555
N12 Co4 1_555 1_555
C114_2 C130_2 1_555 1_555
C119_2 C130_2 1_555 1_555
Co1_2 O1_2 1_555 1_555
Co2_2 O1_2 1_555 1_555
O1_2 C27_2 1_555 1_555
O2_2 Co1_2 1_555 1_555
O3_2 Co2_2 1_555 1_555
O4_2 Co1_2 1_555 1_555
C1_2 H1_2 1_555 1_555
O5_2 Co1_2 1_555 1_555
C2_2 O4_2 1_555 1_555
C3_2 H2_2 1_555 1_555
H3_2 C3_2 1_555 1_555
H4_2 C3_2 1_555 1_555
C4_2 C14_2 1_555 1_555
C5_2 H5_2 1_555 1_555
H6_2 C5_2 1_555 1_555
H7_2 C5_2 1_555 1_555
C6_2 C8_2 1_555 1_555
C7_2 O2_2 1_555 1_555
C8_2 C18_2 1_555 1_555
C9_2 C7_2 1_555 1_555
H8_2 C9_2 1_555 1_555
C10_2 C1_2 1_555 1_555
H9_2 C10_2 1_555 1_555
C11_2 H10_2 1_555 1_555
C12_2 C11_2 1_555 1_555
C13_2 H11_2 1_555 1_555
H12_2 C13_2 1_555 1_555
H13_2 C13_2 1_555 1_555
C14_2 C3_2 1_555 1_555
C15_2 H14_2 1_555 1_555
H15_2 C15_2 1_555 1_555
H16_2 C15_2 1_555 1_555
C16_2 C10_2 1_555 1_555
C17_2 C12_2 1_555 1_555
C18_2 H17_2 1_555 1_555
C19_2 H18_2 1_555 1_555
C20_2 H19_2 1_555 1_555
H20_2 C20_2 1_555 1_555
H21_2 C20_2 1_555 1_555
C21_2 H22_2 1_555 1_555
C22_2 C6_2 1_555 1_555
C23_2 C33_2 1_555 1_555
C24_2 C25_2 1_555 1_555
C25_2 O3_2 1_555 1_555
C26_2 C24_2 1_555 1_555
H23_2 C26_2 1_555 1_555
C27_2 C25_2 1_555 1_555
C28_2 C12_2 1_555 1_555
H24_2 C28_2 1_555 1_555
C29_2 C49_2 1_555 1_555
C30_2 H25_2 1_555 1_555
C31_2 H26_2 1_555 1_555
H27_2 C31_2 1_555 1_555
H28_2 C31_2 1_555 1_555
C32_2 H29_2 1_555 1_555
H30_2 C32_2 1_555 1_555
H31_2 C32_2 1_555 1_555
C33_2 H32_2 1_555 1_555
H33_2 C33_2 1_555 1_555
H34_2 C33_2 1_555 1_555
C34_2 C22_2 1_555 1_555
H35_2 C34_2 1_555 1_555
H36_2 C34_2 1_555 1_555
H37_2 C34_2 1_555 1_555
C35_2 H38_2 1_555 1_555
H39_2 C35_2 1_555 1_555
H40_2 C35_2 1_555 1_555
C36_2 C30_2 1_555 1_555
H41_2 C36_2 1_555 1_555
C37_2 C23_2 1_555 1_555
H42_2 C37_2 1_555 1_555
H43_2 C37_2 1_555 1_555
H44_2 C37_2 1_555 1_555
C38_2 C4_2 1_555 1_555
C39_2 C5_2 1_555 1_555
C40_2 C38_2 1_555 1_555
H45_2 C40_2 1_555 1_555
H46_2 C40_2 1_555 1_555
H47_2 C40_2 1_555 1_555
C41_2 C16_2 1_555 1_555
C42_2 C14_2 1_555 1_555
C43_2 H48_2 1_555 1_555
H49_2 C43_2 1_555 1_555
H50_2 C43_2 1_555 1_555
N1_2 Co2_2 1_555 1_555
C44_2 C13_2 1_555 1_555
N2_2 C21_2 1_555 1_555
C45_2 C16_2 1_555 1_555
H51_2 C45_2 1_555 1_555
C46_2 C9_2 1_555 1_555
C47_2 C11_2 1_555 1_555
H52_2 C47_2 1_555 1_555
C48_2 H53_2 1_555 1_555
H54_2 C48_2 1_555 1_555
H55_2 C48_2 1_555 1_555
O6_2 Co2_2 1_555 1_555
C49_2 C26_2 1_555 1_555
C50_2 C29_2 1_555 1_555
H56_2 C50_2 1_555 1_555
H57_2 C50_2 1_555 1_555
H58_2 C50_2 1_555 1_555
C51_2 C29_2 1_555 1_555
H59_2 C51_2 1_555 1_555
H60_2 C51_2 1_555 1_555
H61_2 C51_2 1_555 1_555
C52_2 C29_2 1_555 1_555
H62_2 C52_2 1_555 1_555
H63_2 C52_2 1_555 1_555
H64_2 C52_2 1_555 1_555
C53_2 H65_2 1_555 1_555
N3_2 Co1_2 1_555 1_555
C54_2 C20_2 1_555 1_555
C55_2 C15_2 1_555 1_555
N12 C53_2 1_555 1_555
C56_2 C4_2 1_555 1_555
C57_2 C45_2 1_555 1_555
H66_2 C57_2 1_555 1_555
C58_2 C2_2 1_555 1_555
C59_2 C18_2 1_555 1_555
H67_2 C59_2 1_555 1_555
C60_2 C54_2 1_555 1_555
H68_2 C60_2 1_555 1_555
H69_2 C60_2 1_555 1_555
H70_2 C60_2 1_555 1_555
C61_2 C22_2 1_555 1_555
C62_2 C56_2 1_555 1_555
H71_2 C62_2 1_555 1_555
C63_2 N1_2 1_555 1_555
H72_2 C63_2 1_555 1_555
C64_2 C41_2 1_555 1_555
C65_2 C8_2 1_555 1_555
H73_2 C65_2 1_555 1_555
C66_2 C27_2 1_555 1_555
H74_2 C66_2 1_555 1_555
C67_2 C23_2 1_555 1_555
H75_2 C67_2 1_555 1_555
H76_2 C67_2 1_555 1_555
H77_2 C67_2 1_555 1_555
C68_2 O5_2 1_555 1_555
C69_2 H78_2 1_555 1_555
C70_2 H79_2 1_555 1_555
H80_2 C70_2 1_555 1_555
H81_2 C70_2 1_555 1_555
C71_2 C72_2 1_555 1_555
C72_2 C75_2 1_555 1_555
C73_2 C69_2 1_555 1_555
H82_2 C73_2 1_555 1_555
C74_2 C73_2 1_555 1_555
C75_2 H83_2 1_555 1_555
C76_2 C71_2 1_555 1_555
C77_2 C76_2 1_555 1_555
H84_2 C77_2 1_555 1_555
H85_2 C77_2 1_555 1_555
H86_2 C77_2 1_555 1_555
C78_2 C70_2 1_555 1_555
C79_2 C74_2 1_555 1_555
C80_2 H87_2 1_555 1_555
H88_2 C80_2 1_555 1_555
H89_2 C80_2 1_555 1_555
C81_2 C74_2 1_555 1_555
H90_2 C81_2 1_555 1_555
C82_2 H91_2 1_555 1_555
N5_2 C69_2 1_555 1_555
N6_2 C82_2 1_555 1_555
C83_2 C81_2 1_555 1_555
H92_2 C83_2 1_555 1_555
C84_2 C75_2 1_555 1_555
H93_2 C84_2 1_555 1_555
C85_2 C61_2 1_555 1_555
C86_2 C79_2 1_555 1_555
C87_2 C72_2 1_555 1_555
H94_2 C87_2 1_555 1_555
C88_2 H95_2 1_555 1_555
H96_2 C88_2 1_555 1_555
H97_2 C88_2 1_555 1_555
C89_2 C93_2 1_555 1_555
C90_2 H98_2 1_555 1_555
C91_2 C90_2 1_555 1_555
C92_2 H99_2 1_555 1_555
H100_2 C92_2 1_555 1_555
H101_2 C92_2 1_555 1_555
C93_2 C88_2 1_555 1_555
C94_2 C91_2 1_555 1_555
C95_2 H102_2 1_555 1_555
C96_2 C91_2 1_555 1_555
H103_2 C96_2 1_555 1_555
C97_2 H104_2 1_555 1_555
C98_2 C97_2 1_555 1_555
H105_2 C98_2 1_555 1_555
C99_2 C89_2 1_555 1_555
C100_2 C99_2 1_555 1_555
H106_2 C100_2 1_555 1_555
H107_2 C100_2 1_555 1_555
H108_2 C100_2 1_555 1_555
C101_2 C42_2 1_555 1_555
N7_2 C98_2 1_555 1_555
C102_2 C92_2 1_555 1_555
N8_2 C95_2 1_555 1_555
C103_2 C90_2 1_555 1_555
H109_2 C103_2 1_555 1_555
C104_2 C89_2 1_555 1_555
C105_2 C104_2 1_555 1_555
H110_2 C105_2 1_555 1_555
C106_2 N7_2 1_555 1_555
H111_2 C106_2 1_555 1_555
Co3_2 N2_2 1_555 1_555
O7_2 Co3_2 1_555 1_555
O8_2 Co3_2 1_555 1_555
O10_2 Co3_2 1_555 1_555
O11_2 Co3_2 1_555 1_555
C107_2 O10_2 1_555 1_555
C108_2 O8_2 1_555 1_555
C110_2 H113_2 1_555 1_555
H114_2 C110_2 1_555 1_555
H115_2 C110_2 1_555 1_555
C111_2 H116_2 1_555 1_555
H120_2 C116_2 1_555 1_555
C117_2 O7_2 1_555 1_555
C118_2 C126_2 1_555 1_555
C120_2 H124_2 1_555 1_555
H125_2 C120_2 1_555 1_555
H126_2 C120_2 1_555 1_555
C122_2 H130_2 1_555 1_555
H131_2 C122_2 1_555 1_555
H132_2 C122_2 1_555 1_555
C125_2 H136_2 1_555 1_555
H138_2 C125_2 1_555 1_555
C126_2 C116_2 1_555 1_555
C127_2 C118_2 1_555 1_555
H139_2 C127_2 1_555 1_555
H140_2 C127_2 1_555 1_555
H141_2 C127_2 1_555 1_555
C128_2 C118_2 1_555 1_555
H142_2 C128_2 1_555 1_555
H143_2 C128_2 1_555 1_555
H144_2 C128_2 1_555 1_555
C129_2 C118_2 1_555 1_555
H145_2 C129_2 1_555 1_555
H146_2 C129_2 1_555 1_555
H147_2 C129_2 1_555 1_555
C131_2 C110_2 1_555 1_555
C132_2 C107_2 1_555 1_555
C134_2 C117_2 1_555 1_555
H151_2 C134_2 1_555 1_555
H153_2 C135_2 1_555 1_555
H154_2 C135_2 1_555 1_555
C136_2 O11_2 1_555 1_555
Co5_2 N8_2 1_555 1_555
Co6_2 N5_2 1_555 1_555
Co7_2 N6_2 1_555 1_555
Co8_2 N7_2 1_555 1_555
N10_2 Co1_2 1_555 1_555
N11_2 Co3_2 1_555 1_555
N13_2 Co2_2 1_555 1_555
Co2_2 O2_2 1_555 1_555
C1_2 N3_2 1_555 1_555
C2_2 C7_2 1_555 1_555
C6_2 C39_2 1_555 1_555
C17_2 C38_2 1_555 1_555
C17_2 C44_2 1_555 1_555
C19_2 C46_2 1_555 1_555
C19_2 C58_2 1_555 1_555
C21_2 C28_2 1_555 1_555
C23_2 C46_2 1_555 1_555
C24_2 C54_2 1_555 1_555
C30_2 C56_2 1_555 1_555
C31_2 C54_2 1_555 1_555
C32_2 C55_2 1_555 1_555
C35_2 C55_2 1_555 1_555
C36_2 N1_2 1_555 1_555
C39_2 C41_2 1_555 1_555
C42_2 C44_2 1_555 1_555
C43_2 C64_2 1_555 1_555
N2_2 C47_2 1_555 1_555
C48_2 C68_2 1_555 1_555
O6_2 C68_2 1_555 1_555
C49_2 C66_2 1_555 1_555
C53_2 C65_2 1_555 1_555
N3_2 C57_2 1_555 1_555
C55_2 C58_2 1_555 1_555
N12 C59_2 1_555 1_555
C61_2 C64_2 1_555 1_555
C62_2 C63_2 1_555 1_555
C71_2 C78_2 1_555 1_555
C76_2 C85_2 1_555 1_555
C78_2 C79_2 1_555 1_555
C80_2 C86_2 1_555 1_555
C82_2 C87_2 1_555 1_555
N5_2 C83_2 1_555 1_555
N6_2 C84_2 1_555 1_555
C85_2 C86_2 1_555 1_555
C93_2 C101_2 1_555 1_555
C94_2 C99_2 1_555 1_555
C94_2 C102_2 1_555 1_555
C95_2 C96_2 1_555 1_555
C97_2 C104_2 1_555 1_555
C101_2 C102_2 1_555 1_555
N8_2 C103_2 1_555 1_555
C105_2 C106_2 1_555 1_555
C107_2 C108_2 1_555 1_555
C111_2 C124_2 1_555 1_555
C111_2 C132_2 1_555 1_555
C120_2 C131_2 1_555 1_555
C122_2 C131_2 1_555 1_555
C125_2 C136_2 1_555 1_555
C126_2 C134_2 1_555 1_555
C131_2 C132_2 1_555 1_555
O9_3 Co4_2 1_555 1_555
H112_3 C109_3 1_555 1_555
C112_3 H117_3 1_555 1_555
H118_3 C112_3 1_555 1_555
H119_3 C112_3 1_555 1_555
C113_3 C121_3 1_555 1_555
C114_3 C115_3 1_555 1_555
C115_3 O9_3 1_555 1_555
C119_3 H121_3 1_555 1_555
H122_3 C119_3 1_555 1_555
H123_3 C119_3 1_555 1_555
C121_3 H127_3 1_555 1_555
H128_3 C121_3 1_555 1_555
H129_3 C121_3 1_555 1_555
C123_3 C113_3 1_555 1_555
H133_3 C123_3 1_555 1_555
H134_3 C123_3 1_555 1_555
H135_3 C123_3 1_555 1_555
O12_3 Co4_2 1_555 1_555
C130_3 C112_3 1_555 1_555
C133_3 C130_3 1_555 1_555
H148_3 C133_3 1_555 1_555
H149_3 C133_3 1_555 1_555
H150_3 C133_3 1_555 1_555
N9_3 Co4_2 1_555 1_555
N12_2 Co4_2 1_555 1_555
C114_3 C130_3 1_555 1_555
C119_3 C130_3 1_555 1_555
Co1_3 O1_3 1_555 1_555
Co7_2 O1_3 1_555 1_555
O1_3 C27_3 1_555 1_555
O2_3 Co1_3 1_555 1_555
O3_3 Co7_2 1_555 1_555
O4_3 Co1_3 1_555 1_555
C1_3 H1_3 1_555 1_555
O5_3 Co1_3 1_555 1_555
C2_3 O4_3 1_555 1_555
C3_3 H2_3 1_555 1_555
H3_3 C3_3 1_555 1_555
H4_3 C3_3 1_555 1_555
C4_3 C14_3 1_555 1_555
C5_3 H5_3 1_555 1_555
H6_3 C5_3 1_555 1_555
H7_3 C5_3 1_555 1_555
C6_3 C8_3 1_555 1_555
C7_3 O2_3 1_555 1_555
C8_3 C18_3 1_555 1_555
C9_3 C7_3 1_555 1_555
H8_3 C9_3 1_555 1_555
C10_3 C1_3 1_555 1_555
H9_3 C10_3 1_555 1_555
C11_3 H10_3 1_555 1_555
C12_3 C11_3 1_555 1_555
C13_3 H11_3 1_555 1_555
H12_3 C13_3 1_555 1_555
H13_3 C13_3 1_555 1_555
C14_3 C3_3 1_555 1_555
C15_3 H14_3 1_555 1_555
H15_3 C15_3 1_555 1_555
H16_3 C15_3 1_555 1_555
C16_3 C10_3 1_555 1_555
C17_3 C12_3 1_555 1_555
C18_3 H17_3 1_555 1_555
C19_3 H18_3 1_555 1_555
C20_3 H19_3 1_555 1_555
H20_3 C20_3 1_555 1_555
H21_3 C20_3 1_555 1_555
C21_3 H22_3 1_555 1_555
C22_3 C6_3 1_555 1_555
C23_3 C33_3 1_555 1_555
C24_3 C25_3 1_555 1_555
C25_3 O3_3 1_555 1_555
C26_3 C24_3 1_555 1_555
H23_3 C26_3 1_555 1_555
C27_3 C25_3 1_555 1_555
C28_3 C12_3 1_555 1_555
H24_3 C28_3 1_555 1_555
C29_3 C49_3 1_555 1_555
C30_3 H25_3 1_555 1_555
C31_3 H26_3 1_555 1_555
H27_3 C31_3 1_555 1_555
H28_3 C31_3 1_555 1_555
C32_3 H29_3 1_555 1_555
H30_3 C32_3 1_555 1_555
H31_3 C32_3 1_555 1_555
C33_3 H32_3 1_555 1_555
H33_3 C33_3 1_555 1_555
H34_3 C33_3 1_555 1_555
C34_3 C22_3 1_555 1_555
H35_3 C34_3 1_555 1_555
H36_3 C34_3 1_555 1_555
H37_3 C34_3 1_555 1_555
C35_3 H38_3 1_555 1_555
H39_3 C35_3 1_555 1_555
H40_3 C35_3 1_555 1_555
C36_3 C30_3 1_555 1_555
H41_3 C36_3 1_555 1_555
C37_3 C23_3 1_555 1_555
H42_3 C37_3 1_555 1_555
H43_3 C37_3 1_555 1_555
H44_3 C37_3 1_555 1_555
C38_3 C4_3 1_555 1_555
C39_3 C5_3 1_555 1_555
C40_3 C38_3 1_555 1_555
H45_3 C40_3 1_555 1_555
H46_3 C40_3 1_555 1_555
H47_3 C40_3 1_555 1_555
C41_3 C16_3 1_555 1_555
C42_3 C14_3 1_555 1_555
C43_3 H48_3 1_555 1_555
H49_3 C43_3 1_555 1_555
H50_3 C43_3 1_555 1_555
N1_3 Co7_2 1_555 1_555
C44_3 C13_3 1_555 1_555
N2_3 C21_3 1_555 1_555
C45_3 C16_3 1_555 1_555
H51_3 C45_3 1_555 1_555
C46_3 C9_3 1_555 1_555
C47_3 C11_3 1_555 1_555
H52_3 C47_3 1_555 1_555
C48_3 H53_3 1_555 1_555
H54_3 C48_3 1_555 1_555
H55_3 C48_3 1_555 1_555
O6_3 Co7_2 1_555 1_555
C49_3 C26_3 1_555 1_555
C50_3 C29_3 1_555 1_555
H56_3 C50_3 1_555 1_555
H57_3 C50_3 1_555 1_555
H58_3 C50_3 1_555 1_555
C51_3 C29_3 1_555 1_555
H59_3 C51_3 1_555 1_555
H60_3 C51_3 1_555 1_555
H61_3 C51_3 1_555 1_555
C52_3 C29_3 1_555 1_555
H62_3 C52_3 1_555 1_555
H63_3 C52_3 1_555 1_555
H64_3 C52_3 1_555 1_555
C53_3 H65_3 1_555 1_555
N3_3 Co1_3 1_555 1_555
C54_3 C20_3 1_555 1_555
C55_3 C15_3 1_555 1_555
N12_2 C53_3 1_555 1_555
C56_3 C4_3 1_555 1_555
C57_3 C45_3 1_555 1_555
H66_3 C57_3 1_555 1_555
C58_3 C2_3 1_555 1_555
C59_3 C18_3 1_555 1_555
H67_3 C59_3 1_555 1_555
C60_3 C54_3 1_555 1_555
H68_3 C60_3 1_555 1_555
H69_3 C60_3 1_555 1_555
H70_3 C60_3 1_555 1_555
C61_3 C22_3 1_555 1_555
C62_3 C56_3 1_555 1_555
H71_3 C62_3 1_555 1_555
C63_3 N1_3 1_555 1_555
H72_3 C63_3 1_555 1_555
C64_3 C41_3 1_555 1_555
C65_3 C8_3 1_555 1_555
H73_3 C65_3 1_555 1_555
C66_3 C27_3 1_555 1_555
H74_3 C66_3 1_555 1_555
C67_3 C23_3 1_555 1_555
H75_3 C67_3 1_555 1_555
H76_3 C67_3 1_555 1_555
H77_3 C67_3 1_555 1_555
C68_3 O5_3 1_555 1_555
C69_3 H78_3 1_555 1_555
C70_3 H79_3 1_555 1_555
H80_3 C70_3 1_555 1_555
H81_3 C70_3 1_555 1_555
C71_3 C72_3 1_555 1_555
C72_3 C75_3 1_555 1_555
C73_3 C69_3 1_555 1_555
H82_3 C73_3 1_555 1_555
C74_3 C73_3 1_555 1_555
C75_3 H83_3 1_555 1_555
C76_3 C71_3 1_555 1_555
C77_3 C76_3 1_555 1_555
H84_3 C77_3 1_555 1_555
H85_3 C77_3 1_555 1_555
H86_3 C77_3 1_555 1_555
C78_3 C70_3 1_555 1_555
C79_3 C74_3 1_555 1_555
C80_3 H87_3 1_555 1_555
H88_3 C80_3 1_555 1_555
H89_3 C80_3 1_555 1_555
C81_3 C74_3 1_555 1_555
H90_3 C81_3 1_555 1_555
C82_3 H91_3 1_555 1_555
N11 C69_3 1_555 1_555
N13 C82_3 1_555 1_555
C83_3 C81_3 1_555 1_555
H92_3 C83_3 1_555 1_555
C84_3 C75_3 1_555 1_555
H93_3 C84_3 1_555 1_555
C85_3 C61_3 1_555 1_555
C86_3 C79_3 1_555 1_555
C87_3 C72_3 1_555 1_555
H94_3 C87_3 1_555 1_555
C88_3 H95_3 1_555 1_555
H96_3 C88_3 1_555 1_555
H97_3 C88_3 1_555 1_555
C89_3 C93_3 1_555 1_555
C90_3 H98_3 1_555 1_555
C91_3 C90_3 1_555 1_555
C92_3 H99_3 1_555 1_555
H100_3 C92_3 1_555 1_555
H101_3 C92_3 1_555 1_555
C93_3 C88_3 1_555 1_555
C94_3 C91_3 1_555 1_555
C95_3 H102_3 1_555 1_555
C96_3 C91_3 1_555 1_555
H103_3 C96_3 1_555 1_555
C97_3 H104_3 1_555 1_555
C98_3 C97_3 1_555 1_555
H105_3 C98_3 1_555 1_555
C99_3 C89_3 1_555 1_555
C100_3 C99_3 1_555 1_555
H106_3 C100_3 1_555 1_555
H107_3 C100_3 1_555 1_555
H108_3 C100_3 1_555 1_555
C101_3 C42_3 1_555 1_555
N7_3 C98_3 1_555 1_555
C102_3 C92_3 1_555 1_555
N8_3 C95_3 1_555 1_555
C103_3 C90_3 1_555 1_555
H109_3 C103_3 1_555 1_555
C104_3 C89_3 1_555 1_555
C105_3 C104_3 1_555 1_555
H110_3 C105_3 1_555 1_555
C106_3 N7_3 1_555 1_555
H111_3 C106_3 1_555 1_555
Co6_2 N2_3 1_555 1_555
O7_3 Co6_2 1_555 1_555
O8_3 Co6_2 1_555 1_555
O10_3 Co6_2 1_555 1_555
O11_3 Co6_2 1_555 1_555
C107_3 O10_3 1_555 1_555
C108_3 O8_3 1_555 1_555
C110_3 H113_3 1_555 1_555
H114_3 C110_3 1_555 1_555
H115_3 C110_3 1_555 1_555
C111_3 H116_3 1_555 1_555
H120_3 C116_3 1_555 1_555
C117_3 O7_3 1_555 1_555
C118_3 C126_3 1_555 1_555
C120_3 H124_3 1_555 1_555
H125_3 C120_3 1_555 1_555
H126_3 C120_3 1_555 1_555
C122_3 H130_3 1_555 1_555
H131_3 C122_3 1_555 1_555
H132_3 C122_3 1_555 1_555
C125_3 H136_3 1_555 1_555
H138_3 C125_3 1_555 1_555
C126_3 C116_3 1_555 1_555
C127_3 C118_3 1_555 1_555
H139_3 C127_3 1_555 1_555
H140_3 C127_3 1_555 1_555
H141_3 C127_3 1_555 1_555
C128_3 C118_3 1_555 1_555
H142_3 C128_3 1_555 1_555
H143_3 C128_3 1_555 1_555
H144_3 C128_3 1_555 1_555
C129_3 C118_3 1_555 1_555
H145_3 C129_3 1_555 1_555
H146_3 C129_3 1_555 1_555
H147_3 C129_3 1_555 1_555
C131_3 C110_3 1_555 1_555
C132_3 C107_3 1_555 1_555
C134_3 C117_3 1_555 1_555
H151_3 C134_3 1_555 1_555
H153_3 C135_3 1_555 1_555
H154_3 C135_3 1_555 1_555
C136_3 O11_3 1_555 1_555
Co5_3 N8_3 1_555 1_555
Co8_3 N7_3 1_555 1_555
N10_3 Co1_3 1_555 1_555
Co7_2 O2_3 1_555 1_555
C1_3 N3_3 1_555 1_555
C2_3 C7_3 1_555 1_555
C6_3 C39_3 1_555 1_555
C17_3 C38_3 1_555 1_555
C17_3 C44_3 1_555 1_555
C19_3 C46_3 1_555 1_555
C19_3 C58_3 1_555 1_555
C21_3 C28_3 1_555 1_555
C23_3 C46_3 1_555 1_555
C24_3 C54_3 1_555 1_555
C30_3 C56_3 1_555 1_555
C31_3 C54_3 1_555 1_555
C32_3 C55_3 1_555 1_555
C35_3 C55_3 1_555 1_555
C36_3 N1_3 1_555 1_555
C39_3 C41_3 1_555 1_555
C42_3 C44_3 1_555 1_555
C43_3 C64_3 1_555 1_555
N2_3 C47_3 1_555 1_555
C48_3 C68_3 1_555 1_555
O6_3 C68_3 1_555 1_555
C49_3 C66_3 1_555 1_555
C53_3 C65_3 1_555 1_555
N3_3 C57_3 1_555 1_555
C55_3 C58_3 1_555 1_555
N12_2 C59_3 1_555 1_555
C61_3 C64_3 1_555 1_555
C62_3 C63_3 1_555 1_555
C71_3 C78_3 1_555 1_555
C76_3 C85_3 1_555 1_555
C78_3 C79_3 1_555 1_555
C80_3 C86_3 1_555 1_555
C82_3 C87_3 1_555 1_555
N11 C83_3 1_555 1_555
N13 C84_3 1_555 1_555
C85_3 C86_3 1_555 1_555
C93_3 C101_3 1_555 1_555
C94_3 C99_3 1_555 1_555
C94_3 C102_3 1_555 1_555
C95_3 C96_3 1_555 1_555
C97_3 C104_3 1_555 1_555
C101_3 C102_3 1_555 1_555
N8_3 C103_3 1_555 1_555
C105_3 C106_3 1_555 1_555
C107_3 C108_3 1_555 1_555
C111_3 C124_3 1_555 1_555
C111_3 C132_3 1_555 1_555
C120_3 C131_3 1_555 1_555
C122_3 C131_3 1_555 1_555
C125_3 C136_3 1_555 1_555
C126_3 C134_3 1_555 1_555
C131_3 C132_3 1_555 1_555
Co1_4 O1_4 1_555 1_555
Co7 O1_4 1_555 1_555
O1_4 C27_4 1_555 1_555
O2_4 Co1_4 1_555 1_555
O3_4 Co7 1_555 1_555
O4_4 Co1_4 1_555 1_555
C1_4 H1_4 1_555 1_555
O5_4 Co1_4 1_555 1_555
C2_4 O4_4 1_555 1_555
C3_4 H2_4 1_555 1_555
H3_4 C3_4 1_555 1_555
H4_4 C3_4 1_555 1_555
C4_4 C14_4 1_555 1_555
C5_4 H5_4 1_555 1_555
H6_4 C5_4 1_555 1_555
H7_4 C5_4 1_555 1_555
C6_4 C8_4 1_555 1_555
C7_4 O2_4 1_555 1_555
C8_4 C18_4 1_555 1_555
C9_4 C7_4 1_555 1_555
H8_4 C9_4 1_555 1_555
C10_4 C1_4 1_555 1_555
H9_4 C10_4 1_555 1_555
C11_4 H10_4 1_555 1_555
C12_4 C11_4 1_555 1_555
C13_4 H11_4 1_555 1_555
H12_4 C13_4 1_555 1_555
H13_4 C13_4 1_555 1_555
C14_4 C3_4 1_555 1_555
C15_4 H14_4 1_555 1_555
H15_4 C15_4 1_555 1_555
H16_4 C15_4 1_555 1_555
C16_4 C10_4 1_555 1_555
C17_4 C12_4 1_555 1_555
C18_4 H17_4 1_555 1_555
C19_4 H18_4 1_555 1_555
C20_4 H19_4 1_555 1_555
H20_4 C20_4 1_555 1_555
H21_4 C20_4 1_555 1_555
C21_4 H22_4 1_555 1_555
C22_4 C6_4 1_555 1_555
C23_4 C33_4 1_555 1_555
C24_4 C25_4 1_555 1_555
C25_4 O3_4 1_555 1_555
C26_4 C24_4 1_555 1_555
H23_4 C26_4 1_555 1_555
C27_4 C25_4 1_555 1_555
C28_4 C12_4 1_555 1_555
H24_4 C28_4 1_555 1_555
C29_4 C49_4 1_555 1_555
C30_4 H25_4 1_555 1_555
C31_4 H26_4 1_555 1_555
H27_4 C31_4 1_555 1_555
H28_4 C31_4 1_555 1_555
C32_4 H29_4 1_555 1_555
H30_4 C32_4 1_555 1_555
H31_4 C32_4 1_555 1_555
C33_4 H32_4 1_555 1_555
H33_4 C33_4 1_555 1_555
H34_4 C33_4 1_555 1_555
C34_4 C22_4 1_555 1_555
H35_4 C34_4 1_555 1_555
H36_4 C34_4 1_555 1_555
H37_4 C34_4 1_555 1_555
C35_4 H38_4 1_555 1_555
H39_4 C35_4 1_555 1_555
H40_4 C35_4 1_555 1_555
C36_4 C30_4 1_555 1_555
H41_4 C36_4 1_555 1_555
C37_4 C23_4 1_555 1_555
H42_4 C37_4 1_555 1_555
H43_4 C37_4 1_555 1_555
H44_4 C37_4 1_555 1_555
C38_4 C4_4 1_555 1_555
C39_4 C5_4 1_555 1_555
C40_4 C38_4 1_555 1_555
H45_4 C40_4 1_555 1_555
H46_4 C40_4 1_555 1_555
H47_4 C40_4 1_555 1_555
C41_4 C16_4 1_555 1_555
C42_4 C14_4 1_555 1_555
C43_4 H48_4 1_555 1_555
H49_4 C43_4 1_555 1_555
H50_4 C43_4 1_555 1_555
N1_4 Co7 1_555 1_555
C44_4 C13_4 1_555 1_555
N2_4 C21_4 1_555 1_555
C45_4 C16_4 1_555 1_555
H51_4 C45_4 1_555 1_555
C46_4 C9_4 1_555 1_555
C47_4 C11_4 1_555 1_555
H52_4 C47_4 1_555 1_555
C48_4 H53_4 1_555 1_555
H54_4 C48_4 1_555 1_555
H55_4 C48_4 1_555 1_555
O6_4 Co7 1_555 1_555
C49_4 C26_4 1_555 1_555
C50_4 C29_4 1_555 1_555
H56_4 C50_4 1_555 1_555
H57_4 C50_4 1_555 1_555
H58_4 C50_4 1_555 1_555
C51_4 C29_4 1_555 1_555
H59_4 C51_4 1_555 1_555
H60_4 C51_4 1_555 1_555
H61_4 C51_4 1_555 1_555
C52_4 C29_4 1_555 1_555
H62_4 C52_4 1_555 1_555
H63_4 C52_4 1_555 1_555
H64_4 C52_4 1_555 1_555
C53_4 H65_4 1_555 1_555
N3_4 Co1_4 1_555 1_555
C54_4 C20_4 1_555 1_555
C55_4 C15_4 1_555 1_555
N4_2 C53_4 1_555 1_555
C56_4 C4_4 1_555 1_555
C57_4 C45_4 1_555 1_555
H66_4 C57_4 1_555 1_555
C58_4 C2_4 1_555 1_555
C59_4 C18_4 1_555 1_555
H67_4 C59_4 1_555 1_555
C60_4 C54_4 1_555 1_555
H68_4 C60_4 1_555 1_555
H69_4 C60_4 1_555 1_555
H70_4 C60_4 1_555 1_555
C61_4 C22_4 1_555 1_555
C62_4 C56_4 1_555 1_555
H71_4 C62_4 1_555 1_555
C63_4 N1_4 1_555 1_555
H72_4 C63_4 1_555 1_555
C64_4 C41_4 1_555 1_555
C65_4 C8_4 1_555 1_555
H73_4 C65_4 1_555 1_555
C66_4 C27_4 1_555 1_555
H74_4 C66_4 1_555 1_555
C67_4 C23_4 1_555 1_555
H75_4 C67_4 1_555 1_555
H76_4 C67_4 1_555 1_555
H77_4 C67_4 1_555 1_555
C68_4 O5_4 1_555 1_555
C69_4 H78_4 1_555 1_555
C70_4 H79_4 1_555 1_555
H80_4 C70_4 1_555 1_555
H81_4 C70_4 1_555 1_555
C71_4 C72_4 1_555 1_555
C72_4 C75_4 1_555 1_555
C73_4 C69_4 1_555 1_555
H82_4 C73_4 1_555 1_555
C74_4 C73_4 1_555 1_555
C75_4 H83_4 1_555 1_555
C76_4 C71_4 1_555 1_555
C77_4 C76_4 1_555 1_555
H84_4 C77_4 1_555 1_555
H85_4 C77_4 1_555 1_555
H86_4 C77_4 1_555 1_555
C78_4 C70_4 1_555 1_555
C79_4 C74_4 1_555 1_555
C80_4 H87_4 1_555 1_555
H88_4 C80_4 1_555 1_555
H89_4 C80_4 1_555 1_555
C81_4 C74_4 1_555 1_555
H90_4 C81_4 1_555 1_555
C82_4 H91_4 1_555 1_555
N11_2 C69_4 1_555 1_555
N13_2 C82_4 1_555 1_555
C83_4 C81_4 1_555 1_555
H92_4 C83_4 1_555 1_555
C84_4 C75_4 1_555 1_555
H93_4 C84_4 1_555 1_555
C85_4 C61_4 1_555 1_555
C86_4 C79_4 1_555 1_555
C87_4 C72_4 1_555 1_555
H94_4 C87_4 1_555 1_555
C88_4 H95_4 1_555 1_555
H96_4 C88_4 1_555 1_555
H97_4 C88_4 1_555 1_555
C89_4 C93_4 1_555 1_555
C90_4 H98_4 1_555 1_555
C91_4 C90_4 1_555 1_555
C92_4 H99_4 1_555 1_555
H100_4 C92_4 1_555 1_555
H101_4 C92_4 1_555 1_555
C93_4 C88_4 1_555 1_555
C94_4 C91_4 1_555 1_555
C95_4 H102_4 1_555 1_555
C96_4 C91_4 1_555 1_555
H103_4 C96_4 1_555 1_555
C97_4 H104_4 1_555 1_555
C98_4 C97_4 1_555 1_555
H105_4 C98_4 1_555 1_555
C99_4 C89_4 1_555 1_555
C100_4 C99_4 1_555 1_555
H106_4 C100_4 1_555 1_555
H107_4 C100_4 1_555 1_555
H108_4 C100_4 1_555 1_555
C101_4 C42_4 1_555 1_555
N7_4 C98_4 1_555 1_555
C102_4 C92_4 1_555 1_555
N8_4 C95_4 1_555 1_555
C103_4 C90_4 1_555 1_555
H109_4 C103_4 1_555 1_555
C104_4 C89_4 1_555 1_555
C105_4 C104_4 1_555 1_555
H110_4 C105_4 1_555 1_555
C106_4 N7_4 1_555 1_555
H111_4 C106_4 1_555 1_555
Co6 N2_4 1_555 1_555
O7_4 Co6 1_555 1_555
O8_4 Co6 1_555 1_555
O10_4 Co6 1_555 1_555
O11_4 Co6 1_555 1_555
C107_4 O10_4 1_555 1_555
C108_4 O8_4 1_555 1_555
C110_4 H113_4 1_555 1_555
H114_4 C110_4 1_555 1_555
H115_4 C110_4 1_555 1_555
C111_4 H116_4 1_555 1_555
H120_4 C116_4 1_555 1_555
C117_4 O7_4 1_555 1_555
C118_4 C126_4 1_555 1_555
C120_4 H124_4 1_555 1_555
H125_4 C120_4 1_555 1_555
H126_4 C120_4 1_555 1_555
C122_4 H130_4 1_555 1_555
H131_4 C122_4 1_555 1_555
H132_4 C122_4 1_555 1_555
C125_4 H136_4 1_555 1_555
H138_4 C125_4 1_555 1_555
C126_4 C116_4 1_555 1_555
C127_4 C118_4 1_555 1_555
H139_4 C127_4 1_555 1_555
H140_4 C127_4 1_555 1_555
H141_4 C127_4 1_555 1_555
C128_4 C118_4 1_555 1_555
H142_4 C128_4 1_555 1_555
H143_4 C128_4 1_555 1_555
H144_4 C128_4 1_555 1_555
C129_4 C118_4 1_555 1_555
H145_4 C129_4 1_555 1_555
H146_4 C129_4 1_555 1_555
H147_4 C129_4 1_555 1_555
C131_4 C110_4 1_555 1_555
C132_4 C107_4 1_555 1_555
C134_4 C117_4 1_555 1_555
H151_4 C134_4 1_555 1_555
H153_4 C135_4 1_555 1_555
H154_4 C135_4 1_555 1_555
C136_4 O11_4 1_555 1_555
Co5_4 N8_4 1_555 1_555
Co8_4 N7_4 1_555 1_555
Co9_2 N4_2 1_555 1_555
N10_4 Co1_4 1_555 1_555
Co7 O2_4 1_555 1_555
C1_4 N3_4 1_555 1_555
C2_4 C7_4 1_555 1_555
C6_4 C39_4 1_555 1_555
C17_4 C38_4 1_555 1_555
C17_4 C44_4 1_555 1_555
C19_4 C46_4 1_555 1_555
C19_4 C58_4 1_555 1_555
C21_4 C28_4 1_555 1_555
C23_4 C46_4 1_555 1_555
C24_4 C54_4 1_555 1_555
C30_4 C56_4 1_555 1_555
C31_4 C54_4 1_555 1_555
C32_4 C55_4 1_555 1_555
C35_4 C55_4 1_555 1_555
C36_4 N1_4 1_555 1_555
C39_4 C41_4 1_555 1_555
C42_4 C44_4 1_555 1_555
C43_4 C64_4 1_555 1_555
N2_4 C47_4 1_555 1_555
C48_4 C68_4 1_555 1_555
O6_4 C68_4 1_555 1_555
C49_4 C66_4 1_555 1_555
C53_4 C65_4 1_555 1_555
N3_4 C57_4 1_555 1_555
C55_4 C58_4 1_555 1_555
N4_2 C59_4 1_555 1_555
C61_4 C64_4 1_555 1_555
C62_4 C63_4 1_555 1_555
C71_4 C78_4 1_555 1_555
C76_4 C85_4 1_555 1_555
C78_4 C79_4 1_555 1_555
C80_4 C86_4 1_555 1_555
C82_4 C87_4 1_555 1_555
N11_2 C83_4 1_555 1_555
N13_2 C84_4 1_555 1_555
C85_4 C86_4 1_555 1_555
C93_4 C101_4 1_555 1_555
C94_4 C99_4 1_555 1_555
C94_4 C102_4 1_555 1_555
C95_4 C96_4 1_555 1_555
C97_4 C104_4 1_555 1_555
C101_4 C102_4 1_555 1_555
N8_4 C103_4 1_555 1_555
C105_4 C106_4 1_555 1_555
C107_4 C108_4 1_555 1_555
C111_4 C124_4 1_555 1_555
C111_4 C132_4 1_555 1_555
C120_4 C131_4 1_555 1_555
C122_4 C131_4 1_555 1_555
C125_4 C136_4 1_555 1_555
C126_4 C134_4 1_555 1_555
C131_4 C132_4 1_555 1_555
O9_4 Co9_2 1_555 1_555
H112_4 C109_4 1_555 1_555
C112_4 H117_4 1_555 1_555
H118_4 C112_4 1_555 1_555
H119_4 C112_4 1_555 1_555
C113_4 C121_4 1_555 1_555
C114_4 C115_4 1_555 1_555
C115_4 O9_4 1_555 1_555
C119_4 H121_4 1_555 1_555
H122_4 C119_4 1_555 1_555
H123_4 C119_4 1_555 1_555
C121_4 H127_4 1_555 1_555
H128_4 C121_4 1_555 1_555
H129_4 C121_4 1_555 1_555
C123_4 C113_4 1_555 1_555
H133_4 C123_4 1_555 1_555
H134_4 C123_4 1_555 1_555
H135_4 C123_4 1_555 1_555
O12_4 Co9_2 1_555 1_555
C130_4 C112_4 1_555 1_555
C133_4 C130_4 1_555 1_555
H148_4 C133_4 1_555 1_555
H149_4 C133_4 1_555 1_555
H150_4 C133_4 1_555 1_555
N9_4 Co9_2 1_555 1_555
C114_4 C130_4 1_555 1_555
C119_4 C130_4 1_555 1_555
C69_5 H78_5 1_555 1_555
C70_5 H79_5 1_555 1_555
H80_5 C70_5 1_555 1_555
H81_5 C70_5 1_555 1_555
C71_5 C72_5 1_555 1_555
C72_5 C75_5 1_555 1_555
C73_5 C69_5 1_555 1_555
H82_5 C73_5 1_555 1_555
C74_5 C73_5 1_555 1_555
C75_5 H83_5 1_555 1_555
C76_5 C71_5 1_555 1_555
C77_5 C76_5 1_555 1_555
H84_5 C77_5 1_555 1_555
H86_5 C77_5 1_555 1_555
C78_5 C70_5 1_555 1_555
C79_5 C74_5 1_555 1_555
C80_5 H87_5 1_555 1_555
H89_5 C80_5 1_555 1_555
C81_5 C74_5 1_555 1_555
H90_5 C81_5 1_555 1_555
C82_5 H91_5 1_555 1_555
N5_3 C69_5 1_555 1_555
N6_3 C82_5 1_555 1_555
C83_5 C81_5 1_555 1_555
H92_5 C83_5 1_555 1_555
C84_5 C75_5 1_555 1_555
H93_5 C84_5 1_555 1_555
C86_5 C79_5 1_555 1_555
C87_5 C72_5 1_555 1_555
H94_5 C87_5 1_555 1_555
Co5_2 N5_3 1_555 1_555
Co8_2 N6_3 1_555 1_555
C71_5 C78_5 1_555 1_555
C76_5 C85_5 1_555 1_555
C78_5 C79_5 1_555 1_555
C80_5 C86_5 1_555 1_555
C82_5 C87_5 1_555 1_555
N5_3 C83_5 1_555 1_555
N6_3 C84_5 1_555 1_555
C85_5 C86_5 1_555 1_555
Co1_5 O1_5 1_555 1_555
Co8_3 O1_5 1_555 1_555
O1_5 C27_5 1_555 1_555
O2_5 Co1_5 1_555 1_555
O3_5 Co8_3 1_555 1_555
O4_5 Co1_5 1_555 1_555
C1_5 H1_5 1_555 1_555
O5_5 Co1_5 1_555 1_555
C2_5 O4_5 1_555 1_555
C5_5 H5_5 1_555 1_555
H6_5 C5_5 1_555 1_555
H7_5 C5_5 1_555 1_555
C6_5 C8_5 1_555 1_555
C7_5 O2_5 1_555 1_555
C8_5 C18_5 1_555 1_555
C9_5 C7_5 1_555 1_555
H8_5 C9_5 1_555 1_555
C10_5 C1_5 1_555 1_555
H9_5 C10_5 1_555 1_555
C15_5 H14_5 1_555 1_555
H15_5 C15_5 1_555 1_555
H16_5 C15_5 1_555 1_555
C16_5 C10_5 1_555 1_555
C18_5 H17_5 1_555 1_555
C19_5 H18_5 1_555 1_555
C20_5 H19_5 1_555 1_555
H20_5 C20_5 1_555 1_555
H21_5 C20_5 1_555 1_555
C22_5 C6_5 1_555 1_555
C23_5 C33_5 1_555 1_555
C24_5 C25_5 1_555 1_555
C25_5 O3_5 1_555 1_555
C26_5 C24_5 1_555 1_555
H23_5 C26_5 1_555 1_555
C27_5 C25_5 1_555 1_555
C29_5 C49_5 1_555 1_555
C31_5 H26_5 1_555 1_555
H27_5 C31_5 1_555 1_555
H28_5 C31_5 1_555 1_555
C32_5 H29_5 1_555 1_555
H30_5 C32_5 1_555 1_555
H31_5 C32_5 1_555 1_555
C33_5 H32_5 1_555 1_555
H33_5 C33_5 1_555 1_555
H34_5 C33_5 1_555 1_555
C34_5 C22_5 1_555 1_555
H35_5 C34_5 1_555 1_555
H37_5 C34_5 1_555 1_555
C35_5 H38_5 1_555 1_555
H39_5 C35_5 1_555 1_555
H40_5 C35_5 1_555 1_555
C37_5 C23_5 1_555 1_555
H42_5 C37_5 1_555 1_555
H43_5 C37_5 1_555 1_555
H44_5 C37_5 1_555 1_555
C39_5 C5_5 1_555 1_555
C41_5 C16_5 1_555 1_555
C43_5 H48_5 1_555 1_555
H50_5 C43_5 1_555 1_555
C45_5 C16_5 1_555 1_555
H51_5 C45_5 1_555 1_555
C46_5 C9_5 1_555 1_555
C48_5 H53_5 1_555 1_555
H54_5 C48_5 1_555 1_555
H55_5 C48_5 1_555 1_555
O6_5 Co8_3 1_555 1_555
C49_5 C26_5 1_555 1_555
C50_5 C29_5 1_555 1_555
H56_5 C50_5 1_555 1_555
H57_5 C50_5 1_555 1_555
H58_5 C50_5 1_555 1_555
C51_5 C29_5 1_555 1_555
H59_5 C51_5 1_555 1_555
H60_5 C51_5 1_555 1_555
H61_5 C51_5 1_555 1_555
C52_5 C29_5 1_555 1_555
H62_5 C52_5 1_555 1_555
H64_5 C52_5 1_555 1_555
C53_5 H65_5 1_555 1_555
N3_5 Co1_5 1_555 1_555
C54_5 C20_5 1_555 1_555
C55_5 C15_5 1_555 1_555
N4_3 C53_5 1_555 1_555
C57_5 C45_5 1_555 1_555
H66_5 C57_5 1_555 1_555
C58_5 C2_5 1_555 1_555
C59_5 C18_5 1_555 1_555
H67_5 C59_5 1_555 1_555
C60_5 C54_5 1_555 1_555
H68_5 C60_5 1_555 1_555
H69_5 C60_5 1_555 1_555
H70_5 C60_5 1_555 1_555
C61_5 C22_5 1_555 1_555
C64_5 C41_5 1_555 1_555
C65_5 C8_5 1_555 1_555
H73_5 C65_5 1_555 1_555
C66_5 C27_5 1_555 1_555
H74_5 C66_5 1_555 1_555
C67_5 C23_5 1_555 1_555
H75_5 C67_5 1_555 1_555
H76_5 C67_5 1_555 1_555
H77_5 C67_5 1_555 1_555
C68_5 O5_5 1_555 1_555
O7_5 Co5_3 1_555 1_555
O8_5 Co5_3 1_555 1_555
O10_5 Co5_3 1_555 1_555
O11_5 Co5_3 1_555 1_555
C107_5 O10_5 1_555 1_555
C108_5 O8_5 1_555 1_555
C110_5 H113_5 1_555 1_555
H114_5 C110_5 1_555 1_555
H115_5 C110_5 1_555 1_555
C111_5 H116_5 1_555 1_555
H120_5 C116_5 1_555 1_555
C117_5 O7_5 1_555 1_555
C118_5 C126_5 1_555 1_555
C120_5 H124_5 1_555 1_555
H125_5 C120_5 1_555 1_555
H126_5 C120_5 1_555 1_555
C122_5 H130_5 1_555 1_555
H131_5 C122_5 1_555 1_555
H132_5 C122_5 1_555 1_555
C125_5 H136_5 1_555 1_555
H138_5 C125_5 1_555 1_555
C126_5 C116_5 1_555 1_555
C127_5 C118_5 1_555 1_555
H139_5 C127_5 1_555 1_555
H140_5 C127_5 1_555 1_555
H141_5 C127_5 1_555 1_555
C128_5 C118_5 1_555 1_555
H142_5 C128_5 1_555 1_555
H143_5 C128_5 1_555 1_555
H144_5 C128_5 1_555 1_555
C129_5 C118_5 1_555 1_555
H145_5 C129_5 1_555 1_555
H147_5 C129_5 1_555 1_555
C131_5 C110_5 1_555 1_555
C132_5 C107_5 1_555 1_555
C134_5 C117_5 1_555 1_555
H151_5 C134_5 1_555 1_555
H153_5 C135_5 1_555 1_555
H154_5 C135_5 1_555 1_555
C136_5 O11_5 1_555 1_555
Co9_3 N4_3 1_555 1_555
N10_5 Co1_5 1_555 1_555
N11_3 Co5_3 1_555 1_555
N13_3 Co8_3 1_555 1_555
Co8_3 O2_5 1_555 1_555
C1_5 N3_5 1_555 1_555
C2_5 C7_5 1_555 1_555
C6_5 C39_5 1_555 1_555
C19_5 C46_5 1_555 1_555
C19_5 C58_5 1_555 1_555
C23_5 C46_5 1_555 1_555
C24_5 C54_5 1_555 1_555
C31_5 C54_5 1_555 1_555
C32_5 C55_5 1_555 1_555
C35_5 C55_5 1_555 1_555
C39_5 C41_5 1_555 1_555
C43_5 C64_5 1_555 1_555
C48_5 C68_5 1_555 1_555
O6_5 C68_5 1_555 1_555
C49_5 C66_5 1_555 1_555
C53_5 C65_5 1_555 1_555
N3_5 C57_5 1_555 1_555
C55_5 C58_5 1_555 1_555
N4_3 C59_5 1_555 1_555
C61_5 C64_5 1_555 1_555
C107_5 C108_5 1_555 1_555
C111_5 C124_5 1_555 1_555
C111_5 C132_5 1_555 1_555
C120_5 C131_5 1_555 1_555
C122_5 C131_5 1_555 1_555
C125_5 C136_5 1_555 1_555
C126_5 C134_5 1_555 1_555
C131_5 C132_5 1_555 1_555
O9_5 Co9_3 1_555 1_555
H112_5 C109_5 1_555 1_555
C112_5 H117_5 1_555 1_555
H118_5 C112_5 1_555 1_555
H119_5 C112_5 1_555 1_555
C113_5 C121_5 1_555 1_555
C114_5 C115_5 1_555 1_555
C115_5 O9_5 1_555 1_555
C119_5 H121_5 1_555 1_555
H122_5 C119_5 1_555 1_555
H123_5 C119_5 1_555 1_555
C121_5 H127_5 1_555 1_555
H128_5 C121_5 1_555 1_555
H129_5 C121_5 1_555 1_555
C123_5 C113_5 1_555 1_555
H133_5 C123_5 1_555 1_555
H134_5 C123_5 1_555 1_555
H135_5 C123_5 1_555 1_555
O12_5 Co9_3 1_555 1_555
C130_5 C112_5 1_555 1_555
C133_5 C130_5 1_555 1_555
H148_5 C133_5 1_555 1_555
H149_5 C133_5 1_555 1_555
H150_5 C133_5 1_555 1_555
N9_5 Co9_3 1_555 1_555
C114_5 C130_5 1_555 1_555
C119_5 C130_5 1_555 1_555
O9_6 Co4_3 1_555 1_555
H112_6 C109_6 1_555 1_555
C112_6 H117_6 1_555 1_555
H118_6 C112_6 1_555 1_555
H119_6 C112_6 1_555 1_555
C113_6 C121_6 1_555 1_555
C114_6 C115_6 1_555 1_555
C115_6 O9_6 1_555 1_555
C119_6 H121_6 1_555 1_555
H122_6 C119_6 1_555 1_555
H123_6 C119_6 1_555 1_555
C121_6 H127_6 1_555 1_555
H128_6 C121_6 1_555 1_555
H129_6 C121_6 1_555 1_555
C123_6 C113_6 1_555 1_555
H133_6 C123_6 1_555 1_555
H134_6 C123_6 1_555 1_555
H135_6 C123_6 1_555 1_555
O12_6 Co4_3 1_555 1_555
C130_6 C112_6 1_555 1_555
C133_6 C130_6 1_555 1_555
H148_6 C133_6 1_555 1_555
H149_6 C133_6 1_555 1_555
H150_6 C133_6 1_555 1_555
N9_6 Co4_3 1_555 1_555
N12_3 Co4_3 1_555 1_555
C114_6 C130_6 1_555 1_555
C119_6 C130_6 1_555 1_555
C69_6 H78_6 1_555 1_555
C70_6 H79_6 1_555 1_555
H80_6 C70_6 1_555 1_555
H81_6 C70_6 1_555 1_555
C71_6 C72_6 1_555 1_555
C72_6 C75_6 1_555 1_555
C73_6 C69_6 1_555 1_555
H82_6 C73_6 1_555 1_555
C74_6 C73_6 1_555 1_555
C75_6 H83_6 1_555 1_555
C76_6 C71_6 1_555 1_555
C77_6 C76_6 1_555 1_555
H84_6 C77_6 1_555 1_555
H86_6 C77_6 1_555 1_555
C78_6 C70_6 1_555 1_555
C79_6 C74_6 1_555 1_555
C80_6 H87_6 1_555 1_555
H89_6 C80_6 1_555 1_555
C81_6 C74_6 1_555 1_555
H90_6 C81_6 1_555 1_555
C82_6 H91_6 1_555 1_555
N5_4 C69_6 1_555 1_555
N6_4 C82_6 1_555 1_555
C83_6 C81_6 1_555 1_555
H92_6 C83_6 1_555 1_555
C84_6 C75_6 1_555 1_555
H93_6 C84_6 1_555 1_555
C86_6 C79_6 1_555 1_555
C87_6 C72_6 1_555 1_555
H94_6 C87_6 1_555 1_555
Co5 N5_4 1_555 1_555
Co8 N6_4 1_555 1_555
C71_6 C78_6 1_555 1_555
C76_6 C85_6 1_555 1_555
C78_6 C79_6 1_555 1_555
C80_6 C86_6 1_555 1_555
C82_6 C87_6 1_555 1_555
N5_4 C83_6 1_555 1_555
N6_4 C84_6 1_555 1_555
C85_6 C86_6 1_555 1_555
Co1_6 O1_6 1_555 1_555
Co8_4 O1_6 1_555 1_555
O1_6 C27_6 1_555 1_555
O2_6 Co1_6 1_555 1_555
O3_6 Co8_4 1_555 1_555
O4_6 Co1_6 1_555 1_555
C1_6 H1_6 1_555 1_555
O5_6 Co1_6 1_555 1_555
C2_6 O4_6 1_555 1_555
C5_6 H5_6 1_555 1_555
H6_6 C5_6 1_555 1_555
H7_6 C5_6 1_555 1_555
C6_6 C8_6 1_555 1_555
C7_6 O2_6 1_555 1_555
C8_6 C18_6 1_555 1_555
C9_6 C7_6 1_555 1_555
H8_6 C9_6 1_555 1_555
C10_6 C1_6 1_555 1_555
H9_6 C10_6 1_555 1_555
C15_6 H14_6 1_555 1_555
H15_6 C15_6 1_555 1_555
H16_6 C15_6 1_555 1_555
C16_6 C10_6 1_555 1_555
C18_6 H17_6 1_555 1_555
C19_6 H18_6 1_555 1_555
C20_6 H19_6 1_555 1_555
H20_6 C20_6 1_555 1_555
H21_6 C20_6 1_555 1_555
C22_6 C6_6 1_555 1_555
C23_6 C33_6 1_555 1_555
C24_6 C25_6 1_555 1_555
C25_6 O3_6 1_555 1_555
C26_6 C24_6 1_555 1_555
H23_6 C26_6 1_555 1_555
C27_6 C25_6 1_555 1_555
C29_6 C49_6 1_555 1_555
C31_6 H26_6 1_555 1_555
H27_6 C31_6 1_555 1_555
H28_6 C31_6 1_555 1_555
C32_6 H29_6 1_555 1_555
H30_6 C32_6 1_555 1_555
H31_6 C32_6 1_555 1_555
C33_6 H32_6 1_555 1_555
H33_6 C33_6 1_555 1_555
H34_6 C33_6 1_555 1_555
C34_6 C22_6 1_555 1_555
H35_6 C34_6 1_555 1_555
H37_6 C34_6 1_555 1_555
C35_6 H38_6 1_555 1_555
H39_6 C35_6 1_555 1_555
H40_6 C35_6 1_555 1_555
C37_6 C23_6 1_555 1_555
H42_6 C37_6 1_555 1_555
H43_6 C37_6 1_555 1_555
H44_6 C37_6 1_555 1_555
C39_6 C5_6 1_555 1_555
C41_6 C16_6 1_555 1_555
C43_6 H48_6 1_555 1_555
H50_6 C43_6 1_555 1_555
C45_6 C16_6 1_555 1_555
H51_6 C45_6 1_555 1_555
C46_6 C9_6 1_555 1_555
C48_6 H53_6 1_555 1_555
H54_6 C48_6 1_555 1_555
H55_6 C48_6 1_555 1_555
O6_6 Co8_4 1_555 1_555
C49_6 C26_6 1_555 1_555
C50_6 C29_6 1_555 1_555
H56_6 C50_6 1_555 1_555
H57_6 C50_6 1_555 1_555
H58_6 C50_6 1_555 1_555
C51_6 C29_6 1_555 1_555
H59_6 C51_6 1_555 1_555
H60_6 C51_6 1_555 1_555
H61_6 C51_6 1_555 1_555
C52_6 C29_6 1_555 1_555
H62_6 C52_6 1_555 1_555
H64_6 C52_6 1_555 1_555
C53_6 H65_6 1_555 1_555
N3_6 Co1_6 1_555 1_555
C54_6 C20_6 1_555 1_555
C55_6 C15_6 1_555 1_555
N12_3 C53_6 1_555 1_555
C57_6 C45_6 1_555 1_555
H66_6 C57_6 1_555 1_555
C58_6 C2_6 1_555 1_555
C59_6 C18_6 1_555 1_555
H67_6 C59_6 1_555 1_555
C60_6 C54_6 1_555 1_555
H68_6 C60_6 1_555 1_555
H69_6 C60_6 1_555 1_555
H70_6 C60_6 1_555 1_555
C61_6 C22_6 1_555 1_555
C64_6 C41_6 1_555 1_555
C65_6 C8_6 1_555 1_555
H73_6 C65_6 1_555 1_555
C66_6 C27_6 1_555 1_555
H74_6 C66_6 1_555 1_555
C67_6 C23_6 1_555 1_555
H75_6 C67_6 1_555 1_555
H76_6 C67_6 1_555 1_555
H77_6 C67_6 1_555 1_555
C68_6 O5_6 1_555 1_555
O7_6 Co5_4 1_555 1_555
O8_6 Co5_4 1_555 1_555
O10_6 Co5_4 1_555 1_555
O11_6 Co5_4 1_555 1_555
C107_6 O10_6 1_555 1_555
C108_6 O8_6 1_555 1_555
C110_6 H113_6 1_555 1_555
H114_6 C110_6 1_555 1_555
H115_6 C110_6 1_555 1_555
C111_6 H116_6 1_555 1_555
H120_6 C116_6 1_555 1_555
C117_6 O7_6 1_555 1_555
C118_6 C126_6 1_555 1_555
C120_6 H124_6 1_555 1_555
H125_6 C120_6 1_555 1_555
H126_6 C120_6 1_555 1_555
C122_6 H130_6 1_555 1_555
H131_6 C122_6 1_555 1_555
H132_6 C122_6 1_555 1_555
C125_6 H136_6 1_555 1_555
H138_6 C125_6 1_555 1_555
C126_6 C116_6 1_555 1_555
C127_6 C118_6 1_555 1_555
H139_6 C127_6 1_555 1_555
H140_6 C127_6 1_555 1_555
H141_6 C127_6 1_555 1_555
C128_6 C118_6 1_555 1_555
H142_6 C128_6 1_555 1_555
H143_6 C128_6 1_555 1_555
H144_6 C128_6 1_555 1_555
C129_6 C118_6 1_555 1_555
H145_6 C129_6 1_555 1_555
H147_6 C129_6 1_555 1_555
C131_6 C110_6 1_555 1_555
C132_6 C107_6 1_555 1_555
C134_6 C117_6 1_555 1_555
H151_6 C134_6 1_555 1_555
H153_6 C135_6 1_555 1_555
H154_6 C135_6 1_555 1_555
C136_6 O11_6 1_555 1_555
N10_6 Co1_6 1_555 1_555
N11_4 Co5_4 1_555 1_555
N13_4 Co8_4 1_555 1_555
Co8_4 O2_6 1_555 1_555
C1_6 N3_6 1_555 1_555
C2_6 C7_6 1_555 1_555
C6_6 C39_6 1_555 1_555
C19_6 C46_6 1_555 1_555
C19_6 C58_6 1_555 1_555
C23_6 C46_6 1_555 1_555
C24_6 C54_6 1_555 1_555
C31_6 C54_6 1_555 1_555
C32_6 C55_6 1_555 1_555
C35_6 C55_6 1_555 1_555
C39_6 C41_6 1_555 1_555
C43_6 C64_6 1_555 1_555
C48_6 C68_6 1_555 1_555
O6_6 C68_6 1_555 1_555
C49_6 C66_6 1_555 1_555
C53_6 C65_6 1_555 1_555
N3_6 C57_6 1_555 1_555
C55_6 C58_6 1_555 1_555
N12_3 C59_6 1_555 1_555
C61_6 C64_6 1_555 1_555
C107_6 C108_6 1_555 1_555
C111_6 C124_6 1_555 1_555
C111_6 C132_6 1_555 1_555
C120_6 C131_6 1_555 1_555
C122_6 C131_6 1_555 1_555
C125_6 C136_6 1_555 1_555
C126_6 C134_6 1_555 1_555
C131_6 C132_6 1_555 1_555
Co1_7 O1_7 1_555 1_555
Co8 O1_7 1_555 1_555
O1_7 C27_7 1_555 1_555
O2_7 Co1_7 1_555 1_555
O3_7 Co8 1_555 1_555
O4_7 Co1_7 1_555 1_555
C1_7 H1_7 1_555 1_555
O5_7 Co1_7 1_555 1_555
C2_7 O4_7 1_555 1_555
C5_7 H5_7 1_555 1_555
H6_7 C5_7 1_555 1_555
H7_7 C5_7 1_555 1_555
C6_7 C8_7 1_555 1_555
C7_7 O2_7 1_555 1_555
C8_7 C18_7 1_555 1_555
C9_7 C7_7 1_555 1_555
H8_7 C9_7 1_555 1_555
C10_7 C1_7 1_555 1_555
H9_7 C10_7 1_555 1_555
C15_7 H14_7 1_555 1_555
H15_7 C15_7 1_555 1_555
H16_7 C15_7 1_555 1_555
C16_7 C10_7 1_555 1_555
C18_7 H17_7 1_555 1_555
C19_7 H18_7 1_555 1_555
C20_7 H19_7 1_555 1_555
H20_7 C20_7 1_555 1_555
H21_7 C20_7 1_555 1_555
C22_7 C6_7 1_555 1_555
C23_7 C33_7 1_555 1_555
C24_7 C25_7 1_555 1_555
C25_7 O3_7 1_555 1_555
C26_7 C24_7 1_555 1_555
H23_7 C26_7 1_555 1_555
C27_7 C25_7 1_555 1_555
C29_7 C49_7 1_555 1_555
C31_7 H26_7 1_555 1_555
H27_7 C31_7 1_555 1_555
H28_7 C31_7 1_555 1_555
C32_7 H29_7 1_555 1_555
H30_7 C32_7 1_555 1_555
H31_7 C32_7 1_555 1_555
C33_7 H32_7 1_555 1_555
H33_7 C33_7 1_555 1_555
H34_7 C33_7 1_555 1_555
C34_7 C22_7 1_555 1_555
H35_7 C34_7 1_555 1_555
H37_7 C34_7 1_555 1_555
C35_7 H38_7 1_555 1_555
H39_7 C35_7 1_555 1_555
H40_7 C35_7 1_555 1_555
C37_7 C23_7 1_555 1_555
H42_7 C37_7 1_555 1_555
H43_7 C37_7 1_555 1_555
H44_7 C37_7 1_555 1_555
C39_7 C5_7 1_555 1_555
C41_7 C16_7 1_555 1_555
C43_7 H48_7 1_555 1_555
H50_7 C43_7 1_555 1_555
C45_7 C16_7 1_555 1_555
H51_7 C45_7 1_555 1_555
C46_7 C9_7 1_555 1_555
C48_7 H53_7 1_555 1_555
H54_7 C48_7 1_555 1_555
H55_7 C48_7 1_555 1_555
O6_7 Co8 1_555 1_555
C49_7 C26_7 1_555 1_555
C50_7 C29_7 1_555 1_555
H56_7 C50_7 1_555 1_555
H57_7 C50_7 1_555 1_555
H58_7 C50_7 1_555 1_555
C51_7 C29_7 1_555 1_555
H59_7 C51_7 1_555 1_555
H60_7 C51_7 1_555 1_555
H61_7 C51_7 1_555 1_555
C52_7 C29_7 1_555 1_555
H62_7 C52_7 1_555 1_555
H64_7 C52_7 1_555 1_555
C53_7 H65_7 1_555 1_555
N3_7 Co1_7 1_555 1_555
C54_7 C20_7 1_555 1_555
C55_7 C15_7 1_555 1_555
N4_4 C53_7 1_555 1_555
C57_7 C45_7 1_555 1_555
H66_7 C57_7 1_555 1_555
C58_7 C2_7 1_555 1_555
C59_7 C18_7 1_555 1_555
H67_7 C59_7 1_555 1_555
C60_7 C54_7 1_555 1_555
H68_7 C60_7 1_555 1_555
H69_7 C60_7 1_555 1_555
H70_7 C60_7 1_555 1_555
C61_7 C22_7 1_555 1_555
C64_7 C41_7 1_555 1_555
C65_7 C8_7 1_555 1_555
H73_7 C65_7 1_555 1_555
C66_7 C27_7 1_555 1_555
H74_7 C66_7 1_555 1_555
C67_7 C23_7 1_555 1_555
H75_7 C67_7 1_555 1_555
H76_7 C67_7 1_555 1_555
H77_7 C67_7 1_555 1_555
C68_7 O5_7 1_555 1_555
O7_7 Co5 1_555 1_555
O8_7 Co5 1_555 1_555
O10_7 Co5 1_555 1_555
O11_7 Co5 1_555 1_555
C107_7 O10_7 1_555 1_555
C108_7 O8_7 1_555 1_555
C110_7 H113_7 1_555 1_555
H114_7 C110_7 1_555 1_555
H115_7 C110_7 1_555 1_555
C111_7 H116_7 1_555 1_555
H120_7 C116_7 1_555 1_555
C117_7 O7_7 1_555 1_555
C118_7 C126_7 1_555 1_555
C120_7 H124_7 1_555 1_555
H125_7 C120_7 1_555 1_555
H126_7 C120_7 1_555 1_555
C122_7 H130_7 1_555 1_555
H131_7 C122_7 1_555 1_555
H132_7 C122_7 1_555 1_555
C125_7 H136_7 1_555 1_555
H138_7 C125_7 1_555 1_555
C126_7 C116_7 1_555 1_555
C127_7 C118_7 1_555 1_555
H139_7 C127_7 1_555 1_555
H140_7 C127_7 1_555 1_555
H141_7 C127_7 1_555 1_555
C128_7 C118_7 1_555 1_555
H142_7 C128_7 1_555 1_555
H143_7 C128_7 1_555 1_555
H144_7 C128_7 1_555 1_555
C129_7 C118_7 1_555 1_555
H145_7 C129_7 1_555 1_555
H147_7 C129_7 1_555 1_555
C131_7 C110_7 1_555 1_555
C132_7 C107_7 1_555 1_555
C134_7 C117_7 1_555 1_555
H151_7 C134_7 1_555 1_555
H153_7 C135_7 1_555 1_555
H154_7 C135_7 1_555 1_555
C136_7 O11_7 1_555 1_555
Co9_4 N4_4 1_555 1_555
N10_7 Co1_7 1_555 1_555
Co8 O2_7 1_555 1_555
C1_7 N3_7 1_555 1_555
C2_7 C7_7 1_555 1_555
C6_7 C39_7 1_555 1_555
C19_7 C46_7 1_555 1_555
C19_7 C58_7 1_555 1_555
C23_7 C46_7 1_555 1_555
C24_7 C54_7 1_555 1_555
C31_7 C54_7 1_555 1_555
C32_7 C55_7 1_555 1_555
C35_7 C55_7 1_555 1_555
C39_7 C41_7 1_555 1_555
C43_7 C64_7 1_555 1_555
C48_7 C68_7 1_555 1_555
O6_7 C68_7 1_555 1_555
C49_7 C66_7 1_555 1_555
C53_7 C65_7 1_555 1_555
N3_7 C57_7 1_555 1_555
C55_7 C58_7 1_555 1_555
N4_4 C59_7 1_555 1_555
C61_7 C64_7 1_555 1_555
C107_7 C108_7 1_555 1_555
C111_7 C124_7 1_555 1_555
C111_7 C132_7 1_555 1_555
C120_7 C131_7 1_555 1_555
C122_7 C131_7 1_555 1_555
C125_7 C136_7 1_555 1_555
C126_7 C134_7 1_555 1_555
C131_7 C132_7 1_555 1_555
C69_7 H78_7 1_555 1_555
C70_7 H79_7 1_555 1_555
H80_7 C70_7 1_555 1_555
H81_7 C70_7 1_555 1_555
C71_7 C72_7 1_555 1_555
C72_7 C75_7 1_555 1_555
C73_7 C69_7 1_555 1_555
H82_7 C73_7 1_555 1_555
C74_7 C73_7 1_555 1_555
C75_7 H83_7 1_555 1_555
C76_7 C71_7 1_555 1_555
C77_7 C76_7 1_555 1_555
H84_7 C77_7 1_555 1_555
H86_7 C77_7 1_555 1_555
C78_7 C70_7 1_555 1_555
C79_7 C74_7 1_555 1_555
C80_7 H87_7 1_555 1_555
H89_7 C80_7 1_555 1_555
C81_7 C74_7 1_555 1_555
H90_7 C81_7 1_555 1_555
C82_7 H91_7 1_555 1_555
N11_3 C69_7 1_555 1_555
N13_3 C82_7 1_555 1_555
C83_7 C81_7 1_555 1_555
H92_7 C83_7 1_555 1_555
C84_7 C75_7 1_555 1_555
H93_7 C84_7 1_555 1_555
C86_7 C79_7 1_555 1_555
C87_7 C72_7 1_555 1_555
H94_7 C87_7 1_555 1_555
C71_7 C78_7 1_555 1_555
C76_7 C85_7 1_555 1_555
C78_7 C79_7 1_555 1_555
C80_7 C86_7 1_555 1_555
C82_7 C87_7 1_555 1_555
N11_3 C83_7 1_555 1_555
N13_3 C84_7 1_555 1_555
C85_7 C86_7 1_555 1_555
O9_7 Co9_4 1_555 1_555
H112_7 C109_7 1_555 1_555
C112_7 H117_7 1_555 1_555
H118_7 C112_7 1_555 1_555
H119_7 C112_7 1_555 1_555
C113_7 C121_7 1_555 1_555
C114_7 C115_7 1_555 1_555
C115_7 O9_7 1_555 1_555
C119_7 H121_7 1_555 1_555
H122_7 C119_7 1_555 1_555
H123_7 C119_7 1_555 1_555
C121_7 H127_7 1_555 1_555
H128_7 C121_7 1_555 1_555
H129_7 C121_7 1_555 1_555
C123_7 C113_7 1_555 1_555
H133_7 C123_7 1_555 1_555
H134_7 C123_7 1_555 1_555
H135_7 C123_7 1_555 1_555
O12_7 Co9_4 1_555 1_555
C130_7 C112_7 1_555 1_555
C133_7 C130_7 1_555 1_555
H148_7 C133_7 1_555 1_555
H149_7 C133_7 1_555 1_555
H150_7 C133_7 1_555 1_555
N9_7 Co9_4 1_555 1_555
C114_7 C130_7 1_555 1_555
C119_7 C130_7 1_555 1_555
O9_8 Co4_4 1_555 1_555
H112_8 C109_8 1_555 1_555
C112_8 H117_8 1_555 1_555
H118_8 C112_8 1_555 1_555
H119_8 C112_8 1_555 1_555
C113_8 C121_8 1_555 1_555
C114_8 C115_8 1_555 1_555
C115_8 O9_8 1_555 1_555
C119_8 H121_8 1_555 1_555
H122_8 C119_8 1_555 1_555
H123_8 C119_8 1_555 1_555
C121_8 H127_8 1_555 1_555
H128_8 C121_8 1_555 1_555
H129_8 C121_8 1_555 1_555
C123_8 C113_8 1_555 1_555
H133_8 C123_8 1_555 1_555
H134_8 C123_8 1_555 1_555
H135_8 C123_8 1_555 1_555
O12_8 Co4_4 1_555 1_555
C130_8 C112_8 1_555 1_555
C133_8 C130_8 1_555 1_555
H148_8 C133_8 1_555 1_555
H149_8 C133_8 1_555 1_555
H150_8 C133_8 1_555 1_555
N9_8 Co4_4 1_555 1_555
N12_4 Co4_4 1_555 1_555
C114_8 C130_8 1_555 1_555
C119_8 C130_8 1_555 1_555
Co1_8 O1_8 1_555 1_555
Co8_2 O1_8 1_555 1_555
O1_8 C27_8 1_555 1_555
O2_8 Co1_8 1_555 1_555
O3_8 Co8_2 1_555 1_555
O4_8 Co1_8 1_555 1_555
C1_8 H1_8 1_555 1_555
O5_8 Co1_8 1_555 1_555
C2_8 O4_8 1_555 1_555
C5_8 H5_8 1_555 1_555
H6_8 C5_8 1_555 1_555
H7_8 C5_8 1_555 1_555
C6_8 C8_8 1_555 1_555
C7_8 O2_8 1_555 1_555
C8_8 C18_8 1_555 1_555
C9_8 C7_8 1_555 1_555
H8_8 C9_8 1_555 1_555
C10_8 C1_8 1_555 1_555
H9_8 C10_8 1_555 1_555
C15_8 H14_8 1_555 1_555
H15_8 C15_8 1_555 1_555
H16_8 C15_8 1_555 1_555
C16_8 C10_8 1_555 1_555
C18_8 H17_8 1_555 1_555
C19_8 H18_8 1_555 1_555
C20_8 H19_8 1_555 1_555
H20_8 C20_8 1_555 1_555
H21_8 C20_8 1_555 1_555
C22_8 C6_8 1_555 1_555
C23_8 C33_8 1_555 1_555
C24_8 C25_8 1_555 1_555
C25_8 O3_8 1_555 1_555
C26_8 C24_8 1_555 1_555
H23_8 C26_8 1_555 1_555
C27_8 C25_8 1_555 1_555
C29_8 C49_8 1_555 1_555
C31_8 H26_8 1_555 1_555
H27_8 C31_8 1_555 1_555
H28_8 C31_8 1_555 1_555
C32_8 H29_8 1_555 1_555
H30_8 C32_8 1_555 1_555
H31_8 C32_8 1_555 1_555
C33_8 H32_8 1_555 1_555
H33_8 C33_8 1_555 1_555
H34_8 C33_8 1_555 1_555
C34_8 C22_8 1_555 1_555
H35_8 C34_8 1_555 1_555
H37_8 C34_8 1_555 1_555
C35_8 H38_8 1_555 1_555
H39_8 C35_8 1_555 1_555
H40_8 C35_8 1_555 1_555
C37_8 C23_8 1_555 1_555
H42_8 C37_8 1_555 1_555
H43_8 C37_8 1_555 1_555
H44_8 C37_8 1_555 1_555
C39_8 C5_8 1_555 1_555
C41_8 C16_8 1_555 1_555
C43_8 H48_8 1_555 1_555
H50_8 C43_8 1_555 1_555
C45_8 C16_8 1_555 1_555
H51_8 C45_8 1_555 1_555
C46_8 C9_8 1_555 1_555
C48_8 H53_8 1_555 1_555
H54_8 C48_8 1_555 1_555
H55_8 C48_8 1_555 1_555
O6_8 Co8_2 1_555 1_555
C49_8 C26_8 1_555 1_555
C50_8 C29_8 1_555 1_555
H56_8 C50_8 1_555 1_555
H57_8 C50_8 1_555 1_555
H58_8 C50_8 1_555 1_555
C51_8 C29_8 1_555 1_555
H59_8 C51_8 1_555 1_555
H60_8 C51_8 1_555 1_555
H61_8 C51_8 1_555 1_555
C52_8 C29_8 1_555 1_555
H62_8 C52_8 1_555 1_555
H64_8 C52_8 1_555 1_555
C53_8 H65_8 1_555 1_555
N3_8 Co1_8 1_555 1_555
C54_8 C20_8 1_555 1_555
C55_8 C15_8 1_555 1_555
N12_4 C53_8 1_555 1_555
C57_8 C45_8 1_555 1_555
H66_8 C57_8 1_555 1_555
C58_8 C2_8 1_555 1_555
C59_8 C18_8 1_555 1_555
H67_8 C59_8 1_555 1_555
C60_8 C54_8 1_555 1_555
H68_8 C60_8 1_555 1_555
H69_8 C60_8 1_555 1_555
H70_8 C60_8 1_555 1_555
C61_8 C22_8 1_555 1_555
C64_8 C41_8 1_555 1_555
C65_8 C8_8 1_555 1_555
H73_8 C65_8 1_555 1_555
C66_8 C27_8 1_555 1_555
H74_8 C66_8 1_555 1_555
C67_8 C23_8 1_555 1_555
H75_8 C67_8 1_555 1_555
H76_8 C67_8 1_555 1_555
H77_8 C67_8 1_555 1_555
C68_8 O5_8 1_555 1_555
O7_8 Co5_2 1_555 1_555
O8_8 Co5_2 1_555 1_555
O10_8 Co5_2 1_555 1_555
O11_8 Co5_2 1_555 1_555
C107_8 O10_8 1_555 1_555
C108_8 O8_8 1_555 1_555
C110_8 H113_8 1_555 1_555
H114_8 C110_8 1_555 1_555
H115_8 C110_8 1_555 1_555
C111_8 H116_8 1_555 1_555
H120_8 C116_8 1_555 1_555
C117_8 O7_8 1_555 1_555
C118_8 C126_8 1_555 1_555
C120_8 H124_8 1_555 1_555
H125_8 C120_8 1_555 1_555
H126_8 C120_8 1_555 1_555
C122_8 H130_8 1_555 1_555
H131_8 C122_8 1_555 1_555
H132_8 C122_8 1_555 1_555
C125_8 H136_8 1_555 1_555
H138_8 C125_8 1_555 1_555
C126_8 C116_8 1_555 1_555
C127_8 C118_8 1_555 1_555
H139_8 C127_8 1_555 1_555
H140_8 C127_8 1_555 1_555
H141_8 C127_8 1_555 1_555
C128_8 C118_8 1_555 1_555
H142_8 C128_8 1_555 1_555
H143_8 C128_8 1_555 1_555
H144_8 C128_8 1_555 1_555
C129_8 C118_8 1_555 1_555
H145_8 C129_8 1_555 1_555
H147_8 C129_8 1_555 1_555
C131_8 C110_8 1_555 1_555
C132_8 C107_8 1_555 1_555
C134_8 C117_8 1_555 1_555
H151_8 C134_8 1_555 1_555
H153_8 C135_8 1_555 1_555
H154_8 C135_8 1_555 1_555
C136_8 O11_8 1_555 1_555
N10_8 Co1_8 1_555 1_555
Co8_2 O2_8 1_555 1_555
C1_8 N3_8 1_555 1_555
C2_8 C7_8 1_555 1_555
C6_8 C39_8 1_555 1_555
C19_8 C46_8 1_555 1_555
C19_8 C58_8 1_555 1_555
C23_8 C46_8 1_555 1_555
C24_8 C54_8 1_555 1_555
C31_8 C54_8 1_555 1_555
C32_8 C55_8 1_555 1_555
C35_8 C55_8 1_555 1_555
C39_8 C41_8 1_555 1_555
C43_8 C64_8 1_555 1_555
C48_8 C68_8 1_555 1_555
O6_8 C68_8 1_555 1_555
C49_8 C66_8 1_555 1_555
C53_8 C65_8 1_555 1_555
N3_8 C57_8 1_555 1_555
C55_8 C58_8 1_555 1_555
N12_4 C59_8 1_555 1_555
C61_8 C64_8 1_555 1_555
C107_8 C108_8 1_555 1_555
C111_8 C124_8 1_555 1_555
C111_8 C132_8 1_555 1_555
C120_8 C131_8 1_555 1_555
C122_8 C131_8 1_555 1_555
C125_8 C136_8 1_555 1_555
C126_8 C134_8 1_555 1_555
C131_8 C132_8 1_555 1_555
C69_8 H78_8 1_555 1_555
C70_8 H79_8 1_555 1_555
H80_8 C70_8 1_555 1_555
H81_8 C70_8 1_555 1_555
C71_8 C72_8 1_555 1_555
C72_8 C75_8 1_555 1_555
C73_8 C69_8 1_555 1_555
H82_8 C73_8 1_555 1_555
C74_8 C73_8 1_555 1_555
C75_8 H83_8 1_555 1_555
C76_8 C71_8 1_555 1_555
C77_8 C76_8 1_555 1_555
H84_8 C77_8 1_555 1_555
H86_8 C77_8 1_555 1_555
C78_8 C70_8 1_555 1_555
C79_8 C74_8 1_555 1_555
C80_8 H87_8 1_555 1_555
H89_8 C80_8 1_555 1_555
C81_8 C74_8 1_555 1_555
H90_8 C81_8 1_555 1_555
C82_8 H91_8 1_555 1_555
N11_4 C69_8 1_555 1_555
N13_4 C82_8 1_555 1_555
C83_8 C81_8 1_555 1_555
H92_8 C83_8 1_555 1_555
C84_8 C75_8 1_555 1_555
H93_8 C84_8 1_555 1_555
C86_8 C79_8 1_555 1_555
C87_8 C72_8 1_555 1_555
H94_8 C87_8 1_555 1_555
C71_8 C78_8 1_555 1_555
C76_8 C85_8 1_555 1_555
C78_8 C79_8 1_555 1_555
C80_8 C86_8 1_555 1_555
C82_8 C87_8 1_555 1_555
N11_4 C83_8 1_555 1_555
N13_4 C84_8 1_555 1_555
C85_8 C86_8 1_555 1_555
C3_5 H2_5 1_555 1_555
H3_5 C3_5 1_555 1_555
H4_5 C3_5 1_555 1_555
C4_5 C14_5 1_555 1_555
C11_5 H10_5 1_555 1_555
C12_5 C11_5 1_555 1_555
C13_5 H11_5 1_555 1_555
H12_5 C13_5 1_555 1_555
H13_5 C13_5 1_555 1_555
C14_5 C3_5 1_555 1_555
C17_5 C12_5 1_555 1_555
C21_5 H22_5 1_555 1_555
C28_5 C12_5 1_555 1_555
H24_5 C28_5 1_555 1_555
C30_5 H25_5 1_555 1_555
C36_5 C30_5 1_555 1_555
H41_5 C36_5 1_555 1_555
C38_5 C4_5 1_555 1_555
C40_5 C38_5 1_555 1_555
H45_5 C40_5 1_555 1_555
H46_5 C40_5 1_555 1_555
H47_5 C40_5 1_555 1_555
C42_5 C14_5 1_555 1_555
C44_5 C13_5 1_555 1_555
N10_5 C21_5 1_555 1_555
C47_5 C11_5 1_555 1_555
H52_5 C47_5 1_555 1_555
C56_5 C4_5 1_555 1_555
C62_5 C56_5 1_555 1_555
H71_5 C62_5 1_555 1_555
C63_5 N9_5 1_555 1_555
H72_5 C63_5 1_555 1_555
C88_5 H95_5 1_555 1_555
H96_5 C88_5 1_555 1_555
H97_5 C88_5 1_555 1_555
C89_5 C93_5 1_555 1_555
C90_5 H98_5 1_555 1_555
C91_5 C90_5 1_555 1_555
C92_5 H99_5 1_555 1_555
H100_5 C92_5 1_555 1_555
H101_5 C92_5 1_555 1_555
C93_5 C88_5 1_555 1_555
C94_5 C91_5 1_555 1_555
C95_5 H102_5 1_555 1_555
C96_5 C91_5 1_555 1_555
H103_5 C96_5 1_555 1_555
C97_5 H104_5 1_555 1_555
C98_5 C97_5 1_555 1_555
H105_5 C98_5 1_555 1_555
C99_5 C89_5 1_555 1_555
C100_5 C99_5 1_555 1_555
H106_5 C100_5 1_555 1_555
H107_5 C100_5 1_555 1_555
H108_5 C100_5 1_555 1_555
C101_5 C42_5 1_555 1_555
N9_4 C98_5 1_555 1_555
C102_5 C92_5 1_555 1_555
N10_4 C95_5 1_555 1_555
C103_5 C90_5 1_555 1_555
H109_5 C103_5 1_555 1_555
C104_5 C89_5 1_555 1_555
C105_5 C104_5 1_555 1_555
H110_5 C105_5 1_555 1_555
C106_5 N9_4 1_555 1_555
H111_5 C106_5 1_555 1_555
C17_5 C38_5 1_555 1_555
C17_5 C44_5 1_555 1_555
C21_5 C28_5 1_555 1_555
C30_5 C56_5 1_555 1_555
C36_5 N9_5 1_555 1_555
C42_5 C44_5 1_555 1_555
N10_5 C47_5 1_555 1_555
C62_5 C63_5 1_555 1_555
C93_5 C101_5 1_555 1_555
C94_5 C99_5 1_555 1_555
C94_5 C102_5 1_555 1_555
C95_5 C96_5 1_555 1_555
C97_5 C104_5 1_555 1_555
C101_5 C102_5 1_555 1_555
N10_4 C103_5 1_555 1_555
C105_5 C106_5 1_555 1_555
C3_6 H2_6 1_555 1_555
H3_6 C3_6 1_555 1_555
H4_6 C3_6 1_555 1_555
C4_6 C14_6 1_555 1_555
C11_6 H10_6 1_555 1_555
C12_6 C11_6 1_555 1_555
C13_6 H11_6 1_555 1_555
H12_6 C13_6 1_555 1_555
H13_6 C13_6 1_555 1_555
C14_6 C3_6 1_555 1_555
C17_6 C12_6 1_555 1_555
C21_6 H22_6 1_555 1_555
C28_6 C12_6 1_555 1_555
H24_6 C28_6 1_555 1_555
C30_6 H25_6 1_555 1_555
C36_6 C30_6 1_555 1_555
H41_6 C36_6 1_555 1_555
C38_6 C4_6 1_555 1_555
C40_6 C38_6 1_555 1_555
H45_6 C40_6 1_555 1_555
H46_6 C40_6 1_555 1_555
H47_6 C40_6 1_555 1_555
C42_6 C14_6 1_555 1_555
C44_6 C13_6 1_555 1_555
N10_6 C21_6 1_555 1_555
C47_6 C11_6 1_555 1_555
H52_6 C47_6 1_555 1_555
C56_6 C4_6 1_555 1_555
C62_6 C56_6 1_555 1_555
H71_6 C62_6 1_555 1_555
C63_6 N9_6 1_555 1_555
H72_6 C63_6 1_555 1_555
C88_6 H95_6 1_555 1_555
H96_6 C88_6 1_555 1_555
H97_6 C88_6 1_555 1_555
C89_6 C93_6 1_555 1_555
C90_6 H98_6 1_555 1_555
C91_6 C90_6 1_555 1_555
C92_6 H99_6 1_555 1_555
H100_6 C92_6 1_555 1_555
H101_6 C92_6 1_555 1_555
C93_6 C88_6 1_555 1_555
C94_6 C91_6 1_555 1_555
C95_6 H102_6 1_555 1_555
C96_6 C91_6 1_555 1_555
H103_6 C96_6 1_555 1_555
C97_6 H104_6 1_555 1_555
C98_6 C97_6 1_555 1_555
H105_6 C98_6 1_555 1_555
C99_6 C89_6 1_555 1_555
C100_6 C99_6 1_555 1_555
H106_6 C100_6 1_555 1_555
H107_6 C100_6 1_555 1_555
H108_6 C100_6 1_555 1_555
C101_6 C42_6 1_555 1_555
N9_3 C98_6 1_555 1_555
C102_6 C92_6 1_555 1_555
N10_3 C95_6 1_555 1_555
C103_6 C90_6 1_555 1_555
H109_6 C103_6 1_555 1_555
C104_6 C89_6 1_555 1_555
C105_6 C104_6 1_555 1_555
H110_6 C105_6 1_555 1_555
C106_6 N9_3 1_555 1_555
H111_6 C106_6 1_555 1_555
C17_6 C38_6 1_555 1_555
C17_6 C44_6 1_555 1_555
C21_6 C28_6 1_555 1_555
C30_6 C56_6 1_555 1_555
C36_6 N9_6 1_555 1_555
C42_6 C44_6 1_555 1_555
N10_6 C47_6 1_555 1_555
C62_6 C63_6 1_555 1_555
C93_6 C101_6 1_555 1_555
C94_6 C99_6 1_555 1_555
C94_6 C102_6 1_555 1_555
C95_6 C96_6 1_555 1_555
C97_6 C104_6 1_555 1_555
C101_6 C102_6 1_555 1_555
N10_3 C103_6 1_555 1_555
C105_6 C106_6 1_555 1_555
C3_7 H2_7 1_555 1_555
H3_7 C3_7 1_555 1_555
H4_7 C3_7 1_555 1_555
C4_7 C14_7 1_555 1_555
C11_7 H10_7 1_555 1_555
C12_7 C11_7 1_555 1_555
C13_7 H11_7 1_555 1_555
H12_7 C13_7 1_555 1_555
H13_7 C13_7 1_555 1_555
C14_7 C3_7 1_555 1_555
C17_7 C12_7 1_555 1_555
C21_7 H22_7 1_555 1_555
C28_7 C12_7 1_555 1_555
H24_7 C28_7 1_555 1_555
C30_7 H25_7 1_555 1_555
C36_7 C30_7 1_555 1_555
H41_7 C36_7 1_555 1_555
C38_7 C4_7 1_555 1_555
C40_7 C38_7 1_555 1_555
H45_7 C40_7 1_555 1_555
H46_7 C40_7 1_555 1_555
H47_7 C40_7 1_555 1_555
C42_7 C14_7 1_555 1_555
C44_7 C13_7 1_555 1_555
N10_8 C21_7 1_555 1_555
C47_7 C11_7 1_555 1_555
H52_7 C47_7 1_555 1_555
C56_7 C4_7 1_555 1_555
C62_7 C56_7 1_555 1_555
H71_7 C62_7 1_555 1_555
C63_7 N9_8 1_555 1_555
H72_7 C63_7 1_555 1_555
C88_7 H95_7 1_555 1_555
H96_7 C88_7 1_555 1_555
H97_7 C88_7 1_555 1_555
C89_7 C93_7 1_555 1_555
C90_7 H98_7 1_555 1_555
C91_7 C90_7 1_555 1_555
C92_7 H99_7 1_555 1_555
H100_7 C92_7 1_555 1_555
H101_7 C92_7 1_555 1_555
C93_7 C88_7 1_555 1_555
C94_7 C91_7 1_555 1_555
C95_7 H102_7 1_555 1_555
C96_7 C91_7 1_555 1_555
H103_7 C96_7 1_555 1_555
C97_7 H104_7 1_555 1_555
C98_7 C97_7 1_555 1_555
H105_7 C98_7 1_555 1_555
C99_7 C89_7 1_555 1_555
C100_7 C99_7 1_555 1_555
H106_7 C100_7 1_555 1_555
H107_7 C100_7 1_555 1_555
H108_7 C100_7 1_555 1_555
C101_7 C42_7 1_555 1_555
N9 C98_7 1_555 1_555
C102_7 C92_7 1_555 1_555
N10 C95_7 1_555 1_555
C103_7 C90_7 1_555 1_555
H109_7 C103_7 1_555 1_555
C104_7 C89_7 1_555 1_555
C105_7 C104_7 1_555 1_555
H110_7 C105_7 1_555 1_555
C106_7 N9 1_555 1_555
H111_7 C106_7 1_555 1_555
C17_7 C38_7 1_555 1_555
C17_7 C44_7 1_555 1_555
C21_7 C28_7 1_555 1_555
C30_7 C56_7 1_555 1_555
C36_7 N9_8 1_555 1_555
C42_7 C44_7 1_555 1_555
N10_8 C47_7 1_555 1_555
C62_7 C63_7 1_555 1_555
C93_7 C101_7 1_555 1_555
C94_7 C99_7 1_555 1_555
C94_7 C102_7 1_555 1_555
C95_7 C96_7 1_555 1_555
C97_7 C104_7 1_555 1_555
C101_7 C102_7 1_555 1_555
N10 C103_7 1_555 1_555
C105_7 C106_7 1_555 1_555
C3_8 H2_8 1_555 1_555
H3_8 C3_8 1_555 1_555
H4_8 C3_8 1_555 1_555
C4_8 C14_8 1_555 1_555
C11_8 H10_8 1_555 1_555
C12_8 C11_8 1_555 1_555
C13_8 H11_8 1_555 1_555
H12_8 C13_8 1_555 1_555
H13_8 C13_8 1_555 1_555
C14_8 C3_8 1_555 1_555
C17_8 C12_8 1_555 1_555
C21_8 H22_8 1_555 1_555
C28_8 C12_8 1_555 1_555
H24_8 C28_8 1_555 1_555
C30_8 H25_8 1_555 1_555
C36_8 C30_8 1_555 1_555
H41_8 C36_8 1_555 1_555
C38_8 C4_8 1_555 1_555
C40_8 C38_8 1_555 1_555
H45_8 C40_8 1_555 1_555
H46_8 C40_8 1_555 1_555
H47_8 C40_8 1_555 1_555
C42_8 C14_8 1_555 1_555
C44_8 C13_8 1_555 1_555
N10_7 C21_8 1_555 1_555
C47_8 C11_8 1_555 1_555
H52_8 C47_8 1_555 1_555
C56_8 C4_8 1_555 1_555
C62_8 C56_8 1_555 1_555
H71_8 C62_8 1_555 1_555
C63_8 N9_7 1_555 1_555
H72_8 C63_8 1_555 1_555
C88_8 H95_8 1_555 1_555
H96_8 C88_8 1_555 1_555
H97_8 C88_8 1_555 1_555
C89_8 C93_8 1_555 1_555
C90_8 H98_8 1_555 1_555
C91_8 C90_8 1_555 1_555
C92_8 H99_8 1_555 1_555
H100_8 C92_8 1_555 1_555
H101_8 C92_8 1_555 1_555
C93_8 C88_8 1_555 1_555
C94_8 C91_8 1_555 1_555
C95_8 H102_8 1_555 1_555
C96_8 C91_8 1_555 1_555
H103_8 C96_8 1_555 1_555
C97_8 H104_8 1_555 1_555
C98_8 C97_8 1_555 1_555
H105_8 C98_8 1_555 1_555
C99_8 C89_8 1_555 1_555
C100_8 C99_8 1_555 1_555
H106_8 C100_8 1_555 1_555
H107_8 C100_8 1_555 1_555
H108_8 C100_8 1_555 1_555
C101_8 C42_8 1_555 1_555
N9_2 C98_8 1_555 1_555
C102_8 C92_8 1_555 1_555
N10_2 C95_8 1_555 1_555
C103_8 C90_8 1_555 1_555
H109_8 C103_8 1_555 1_555
C104_8 C89_8 1_555 1_555
C105_8 C104_8 1_555 1_555
H110_8 C105_8 1_555 1_555
C106_8 N9_2 1_555 1_555
H111_8 C106_8 1_555 1_555
C17_8 C38_8 1_555 1_555
C17_8 C44_8 1_555 1_555
C21_8 C28_8 1_555 1_555
C30_8 C56_8 1_555 1_555
C36_8 N9_7 1_555 1_555
C42_8 C44_8 1_555 1_555
N10_7 C47_8 1_555 1_555
C62_8 C63_8 1_555 1_555
C93_8 C101_8 1_555 1_555
C94_8 C99_8 1_555 1_555
C94_8 C102_8 1_555 1_555
C95_8 C96_8 1_555 1_555
C97_8 C104_8 1_555 1_555
C101_8 C102_8 1_555 1_555
N10_2 C103_8 1_555 1_555
C105_8 C106_8 1_555 1_555

#END
