
###############################################################################
#
# This file contains modified crystal structure data generated from the
# MOF subset of the Cambridge Structural Database (CSD) v543 
# hosted by the Cambridge Crystallographic Data Centre (CCDC).
#
# This work is licensed under the Creative Commons
# Attribution-NonCommercial-ShareAlike 4.0 International License.
# To view a copy of this license, visit
# http://creativecommons.org/licenses/by-nc-sa/4.0/
# or send a letter to
# Creative Commons, PO Box 1866, Mountain View, CA 94042, USA.
#
# CIF created using the CSD Python API on 29 September 2022
# The structure has been converted into the P1 space group
# The structure has a 3D framework
# The original CSD entry JOKJUR is in the monoclinic crystal system
# The framework has been calculated to contain at least 10.0% void space
# The void calculation uses a probe of radius 1.32A, grid spacing 0.4
#
###############################################################################

data_JOKJUR
_chemical_formula_moiety         '(C160 H118 Cl8 Co16 N96 O6)n'
_symmetry_cell_setting           triclinic
_symmetry_space_group_name_H-M   'P 1'
_symmetry_Int_Tables_number      1
_space_group_name_Hall           'P 1'
loop_
_symmetry_equiv_pos_site_id
_symmetry_equiv_pos_as_xyz
1 x,y,z
_cell_length_a                   32.117(4)
_cell_length_b                   6.5151(8)
_cell_length_c                   25.559(3)
_cell_angle_alpha                90
_cell_angle_beta                 113.333(3)
_cell_angle_gamma                90
_cell_volume                     4910.73
loop_
_atom_site_label
_atom_site_type_symbol
_atom_site_fract_x
_atom_site_fract_y
_atom_site_fract_z
Co3 Co 0.091807(18) 0.03289(8) 0.49393(2)
Cl1 Cl 0.02314(3) 0.02044(16) 0.40095(5)
N1 N 0.08312(11) 0.3686(5) 0.48467(16)
N2 N 0.04238(11) 0.4351(5) 0.48052(15)
N3 N 0.04362(11) 0.6320(5) 0.49018(15)
N4 N 0.08553(11) 0.7009(5) 0.50018(15)
C1 C 0.33368(16) 0.5408(9) 0.6114(2)
H1 H 0.3302 0.5573 0.6456
C2 C 0.37294(17) 0.5298(9) 0.6043(2)
H2 H 0.4017 0.5393 0.6334
N5 N 0.36431(12) 0.5024(5) 0.54765(17)
C3 C 0.31982(15) 0.5019(6) 0.5209(2)
H3 H 0.3044 0.4888 0.4817
N11 N 0.29963(12) 0.5229(5) 0.55786(17)
C7 C 0.25142(14) 0.5264(6) 0.5423(2)
C8 C 0.22229(15) 0.4821(7) 0.4867(2)
H7 H 0.2339 0.4508 0.4597
C9 C 0.17607(14) 0.4844(7) 0.4716(2)
H8 H 0.1566 0.4527 0.4345
C10 C 0.15839(14) 0.5336(6) 0.5114(2)
C11 C 0.18768(15) 0.5811(7) 0.5662(2)
H9 H 0.1759 0.6172 0.5928
C12 C 0.23451(15) 0.5764(8) 0.5826(2)
H10 H 0.2539 0.6063 0.6199
C13 C 0.10909(14) 0.5354(6) 0.49734(18)
O1 O 0.04424(9) 0.0515(4) 0.52993(13)
H15 H 0.0555 0.1310 0.5654
Co4 Co 0.408193(18) 0.46711(8) 0.50607(2)
Co7 Co 0.008274(18) 0.79719(8) 0.53540(2)
N16 N 0.14408(12) 0.0964(6) 0.57681(17)
N15 N 0.13569(12) 0.9976(5) 0.45235(17)
Co2 Co 0.991726(18) 0.20281(8) 0.46460(2)
C4 C 0.91704(18) 0.5222(9) 0.3098(2)
H4 H 0.9139 0.6148 0.2808
C5 C 0.95428(17) 0.4976(8) 0.3591(2)
H5 H 0.9811 0.5719 0.3698
N6 N 0.94562(12) 0.3435(6) 0.39077(16)
C6 C 0.90378(15) 0.2815(7) 0.3600(2)
H6 H 0.8890 0.1782 0.3710
N7 N 0.68903(12) 0.4241(6) 0.09746(17)
N8 N 0.64408(12) 0.4036(6) 0.07681(17)
N9 N 0.63081(13) 0.3134(6) 0.11318(18)
N10 N 0.66778(14) 0.2766(7) 0.16071(18)
N12 N 0.88527(13) 0.3857(7) 0.31093(17)
C14 C 0.83960(16) 0.3634(8) 0.2690(2)
C15 C 0.80616(17) 0.2909(8) 0.2854(2)
H11 H 0.8134 0.2503 0.3229
C16 C 0.76176(16) 0.2789(8) 0.2457(2)
H12 H 0.7394 0.2282 0.2567
C17 C 0.82902(17) 0.4174(9) 0.2129(2)
H13 H 0.8517 0.4605 0.2015
C18 C 0.78484(17) 0.4070(9) 0.1741(2)
H14 H 0.7778 0.4447 0.1365
C19 C 0.75030(16) 0.3410(8) 0.1902(2)
C20 C 0.70290(16) 0.3450(8) 0.1496(2)
N13 N 0.95638(11) 0.3680(5) 0.50982(15)
Co5 Co 0.591807(18) 0.46711(8) 0.99393(2)
O2 O 0.95576(9) 0.9485(4) 0.47007(13)
Co2_2 Co 0.008274(18) 0.20281(8) 0.03540(2)
C4_2 C 0.08296(18) 0.5222(9) 0.1902(2)
H4_2 H 0.0861 0.6148 0.2192
C5_2 C 0.04572(17) 0.4976(8) 0.1409(2)
H5_2 H 0.0189 0.5719 0.1302
N6_2 N 0.05438(12) 0.3435(6) 0.10923(16)
C6_2 C 0.09622(15) 0.2815(7) 0.1400(2)
H6_2 H 0.1110 0.1782 0.1290
N7_2 N 0.31097(12) 0.4241(6) 0.40254(17)
N8_2 N 0.35592(12) 0.4036(6) 0.42319(17)
N9_2 N 0.36919(13) 0.3134(6) 0.38682(18)
N10_2 N 0.33222(14) 0.2766(7) 0.33929(18)
N12_2 N 0.11473(13) 0.3857(7) 0.18907(17)
C14_2 C 0.16040(16) 0.3634(8) 0.2310(2)
C15_2 C 0.19384(17) 0.2909(8) 0.2146(2)
H11_2 H 0.1866 0.2503 0.1771
C16_2 C 0.23824(16) 0.2789(8) 0.2543(2)
H12_2 H 0.2606 0.2282 0.2433
C17_2 C 0.17098(17) 0.4174(9) 0.2871(2)
H13_2 H 0.1483 0.4605 0.2985
C18_2 C 0.21516(17) 0.4070(9) 0.3259(2)
H14_2 H 0.2222 0.4447 0.3635
C19_2 C 0.24970(16) 0.3410(8) 0.3098(2)
C20_2 C 0.29710(16) 0.3450(8) 0.3504(2)
N13_2 N 0.04362(11) 0.3680(5) 0.99018(15)
O2_2 O 0.04424(9) 0.9485(4) 0.02993(13)
Co3_2 Co 0.908193(18) 0.03289(8) 0.00607(2)
Cl1_2 Cl 0.97686(3) 0.02044(16) 0.09905(5)
N1_2 N 0.91688(11) 0.3686(5) 0.01533(16)
N2_2 N 0.95762(11) 0.4351(5) 0.01948(15)
N3_2 N 0.95638(11) 0.6320(5) 0.00982(15)
H3_2 H 0.6956 0.4888 0.0183
C8_2 C 0.77771(15) 0.4821(7) 0.0133(2)
H7_2 H 0.7661 0.4508 0.0403
C9_2 C 0.82393(14) 0.4844(7) 0.0284(2)
H8_2 H 0.8434 0.4527 0.0655
C13_2 C 0.89091(14) 0.5354(6) 0.00266(18)
N4_2 N 0.91447(11) 0.7009(5) 0.99982(15)
C1_2 C 0.66632(16) 0.5408(9) 0.8886(2)
H1_2 H 0.6698 0.5573 0.8544
C2_2 C 0.62706(17) 0.5298(9) 0.8957(2)
H2_2 H 0.5983 0.5393 0.8666
N5_2 N 0.63569(12) 0.5024(5) 0.95235(17)
C3_2 C 0.68018(15) 0.5019(6) 0.9791(2)
N11_2 N 0.70037(12) 0.5229(5) 0.94214(17)
C7_2 C 0.74858(14) 0.5264(6) 0.9577(2)
C10_2 C 0.84161(14) 0.5336(6) 0.9886(2)
C11_2 C 0.81232(15) 0.5811(7) 0.9338(2)
H9_2 H 0.8241 0.6172 0.9072
C12_2 C 0.76549(15) 0.5764(8) 0.9174(2)
H10_2 H 0.7461 0.6063 0.8801
O1_2 O 0.95576(9) 0.0515(4) 0.97007(13)
H15_2 H 0.9445 0.1310 0.9346
Co7_2 Co 0.991726(18) 0.79719(8) 0.96460(2)
N16_2 N 0.85592(12) 0.0964(6) 0.92319(17)
N15_2 N 0.86431(12) 0.9976(5) 0.04765(17)
N3_3 N 0.54362(11) 0.1320(5) 0.49018(15)
N4_3 N 0.58553(11) 0.2009(5) 0.50018(15)
C1_3 C 0.83368(16) 0.0408(9) 0.6114(2)
H1_3 H 0.8302 0.0573 0.6456
C2_3 C 0.87294(17) 0.0298(9) 0.6043(2)
H2_3 H 0.9017 0.0393 0.6334
N5_3 N 0.86431(12) 0.0024(5) 0.54765(17)
C3_3 C 0.81982(15) 0.0019(6) 0.5209(2)
C4_3 C 0.41704(18) 0.0222(9) 0.3098(2)
H4_3 H 0.4139 0.1148 0.2808
H5_3 H 0.4811 0.0719 0.3698
N11_3 N 0.79963(12) 0.0229(5) 0.55786(17)
C7_3 C 0.75142(14) 0.0264(6) 0.5423(2)
C10_3 C 0.65839(14) 0.0336(6) 0.5114(2)
C11_3 C 0.68768(15) 0.0811(7) 0.5662(2)
H9_3 H 0.6759 0.1172 0.5928
C12_3 C 0.73451(15) 0.0764(8) 0.5826(2)
H10_3 H 0.7539 0.1063 0.6199
C13_3 C 0.60909(14) 0.0354(6) 0.49734(18)
Co3_3 Co 0.591807(18) 0.53289(8) 0.49393(2)
Co7_3 Co 0.508274(18) 0.29719(8) 0.53540(2)
Co2_3 Co 0.491726(18) 0.70281(8) 0.46460(2)
Cl1_3 Cl 0.52314(3) 0.52044(16) 0.40095(5)
N1_3 N 0.58312(11) 0.8686(5) 0.48467(16)
N2_3 N 0.54238(11) 0.9351(5) 0.48052(15)
H3_3 H 0.8044 0.9888 0.4817
C5_3 C 0.45428(17) 0.9976(8) 0.3591(2)
N6_3 N 0.44562(12) 0.8435(6) 0.39077(16)
C6_3 C 0.40378(15) 0.7815(7) 0.3600(2)
H6_3 H 0.3890 0.6782 0.3710
N7_3 N 0.18903(12) 0.9241(6) 0.09746(17)
N8_3 N 0.14408(12) 0.9036(6) 0.07681(17)
N9_3 N 0.13081(13) 0.8134(6) 0.11318(18)
N10_3 N 0.16778(14) 0.7766(7) 0.16071(18)
C8_3 C 0.72229(15) 0.9821(7) 0.4867(2)
H7_3 H 0.7339 0.9508 0.4597
C9_3 C 0.67607(14) 0.9844(7) 0.4716(2)
H8_3 H 0.6566 0.9527 0.4345
N12_3 N 0.38527(13) 0.8857(7) 0.31093(17)
C14_3 C 0.33960(16) 0.8634(8) 0.2690(2)
C15_3 C 0.30616(17) 0.7909(8) 0.2854(2)
H11_3 H 0.3134 0.7503 0.3229
C16_3 C 0.26176(16) 0.7789(8) 0.2457(2)
H12_3 H 0.2394 0.7282 0.2567
C17_3 C 0.32902(17) 0.9174(9) 0.2129(2)
H13_3 H 0.3517 0.9605 0.2015
C18_3 C 0.28484(17) 0.9070(9) 0.1741(2)
H14_3 H 0.2778 0.9447 0.1365
C19_3 C 0.25030(16) 0.8410(8) 0.1902(2)
C20_3 C 0.20290(16) 0.8450(8) 0.1496(2)
O1_3 O 0.54424(9) 0.5515(4) 0.52993(13)
H15_3 H 0.5555 0.6310 0.5654
Co4_2 Co 0.908193(18) 0.96711(8) 0.50607(2)
N13_3 N 0.45638(11) 0.8680(5) 0.50982(15)
N15_3 N 0.63569(12) 0.4976(5) 0.45235(17)
N16_3 N 0.64408(12) 0.5964(6) 0.57681(17)
O2_3 O 0.45576(9) 0.4485(4) 0.47007(13)
Co5_2 Co 0.091807(18) 0.96711(8) 0.99393(2)
N3_4 N 0.45638(11) 0.1320(5) 0.00982(15)
C4_4 C 0.58296(18) 0.0222(9) 0.1902(2)
H4_4 H 0.5861 0.1148 0.2192
H5_4 H 0.5189 0.0719 0.1302
C13_4 C 0.39091(14) 0.0354(6) 0.00266(18)
Co3_4 Co 0.408193(18) 0.53289(8) 0.00607(2)
N4_4 N 0.41447(11) 0.2009(5) 0.99982(15)
C1_4 C 0.16632(16) 0.0408(9) 0.8886(2)
H1_4 H 0.1698 0.0573 0.8544
C2_4 C 0.12706(17) 0.0298(9) 0.8957(2)
H2_4 H 0.0983 0.0393 0.8666
N5_4 N 0.13569(12) 0.0024(5) 0.95235(17)
C3_4 C 0.18018(15) 0.0019(6) 0.9791(2)
N11_4 N 0.20037(12) 0.0229(5) 0.94214(17)
C7_4 C 0.24858(14) 0.0264(6) 0.9577(2)
C10_4 C 0.34161(14) 0.0336(6) 0.9886(2)
C11_4 C 0.31232(15) 0.0811(7) 0.9338(2)
H9_4 H 0.3241 0.1172 0.9072
C12_4 C 0.26549(15) 0.0764(8) 0.9174(2)
H10_4 H 0.2461 0.1063 0.8801
Co7_4 Co 0.491726(18) 0.29719(8) 0.96460(2)
Co2_4 Co 0.508274(18) 0.70281(8) 0.03540(2)
Cl1_4 Cl 0.47686(3) 0.52044(16) 0.09905(5)
N1_4 N 0.41688(11) 0.8686(5) 0.01533(16)
N2_4 N 0.45762(11) 0.9351(5) 0.01948(15)
H3_4 H 0.1956 0.9888 0.0183
C5_4 C 0.54572(17) 0.9976(8) 0.1409(2)
N6_4 N 0.55438(12) 0.8435(6) 0.10923(16)
C6_4 C 0.59622(15) 0.7815(7) 0.1400(2)
H6_4 H 0.6110 0.6782 0.1290
N7_4 N 0.81097(12) 0.9241(6) 0.40254(17)
N8_4 N 0.85592(12) 0.9036(6) 0.42319(17)
N9_4 N 0.86919(13) 0.8134(6) 0.38682(18)
N10_4 N 0.83222(14) 0.7766(7) 0.33929(18)
C8_4 C 0.27771(15) 0.9821(7) 0.0133(2)
H7_4 H 0.2661 0.9508 0.0403
C9_4 C 0.32393(14) 0.9844(7) 0.0284(2)
H8_4 H 0.3434 0.9527 0.0655
N12_4 N 0.61473(13) 0.8857(7) 0.18907(17)
C14_4 C 0.66040(16) 0.8634(8) 0.2310(2)
C15_4 C 0.69384(17) 0.7909(8) 0.2146(2)
H11_4 H 0.6866 0.7503 0.1771
C16_4 C 0.73824(16) 0.7789(8) 0.2543(2)
H12_4 H 0.7606 0.7282 0.2433
C17_4 C 0.67098(17) 0.9174(9) 0.2871(2)
H13_4 H 0.6483 0.9605 0.2985
C18_4 C 0.71516(17) 0.9070(9) 0.3259(2)
H14_4 H 0.7222 0.9447 0.3635
C19_4 C 0.74970(16) 0.8410(8) 0.3098(2)
C20_4 C 0.79710(16) 0.8450(8) 0.3504(2)
N15_4 N 0.36431(12) 0.4976(5) 0.04765(17)
O2_4 O 0.54424(9) 0.4485(4) 0.02993(13)
O1_4 O 0.45576(9) 0.5515(4) 0.97007(13)
H15_4 H 0.4445 0.6310 0.9346
N13_4 N 0.54362(11) 0.8680(5) 0.99018(15)
N16_4 N 0.35592(12) 0.5964(6) 0.92319(17)
C4_5 C 0.08296(18) 0.4778(9) 0.6902(2)
H4_5 H 0.0861 0.3852 0.7192
C5_5 C 0.04572(17) 0.5024(8) 0.6409(2)
H5_5 H 0.0189 0.4281 0.6302
N6_5 N 0.05438(12) 0.6565(6) 0.60923(16)
C6_5 C 0.09622(15) 0.7185(7) 0.6400(2)
H6_5 H 0.1110 0.8218 0.6290
N7_5 N 0.31097(12) 0.5759(6) 0.90254(17)
N9_5 N 0.36919(13) 0.6866(6) 0.88682(18)
N10_5 N 0.33222(14) 0.7234(7) 0.83929(18)
N12_5 N 0.11473(13) 0.6143(7) 0.68907(17)
C14_5 C 0.16040(16) 0.6366(8) 0.7310(2)
C15_5 C 0.19384(17) 0.7091(8) 0.7146(2)
H11_5 H 0.1866 0.7497 0.6771
C16_5 C 0.23824(16) 0.7211(8) 0.7543(2)
H12_5 H 0.2606 0.7718 0.7433
C17_5 C 0.17098(17) 0.5826(9) 0.7871(2)
H13_5 H 0.1483 0.5395 0.7985
C18_5 C 0.21516(17) 0.5930(9) 0.8259(2)
H14_5 H 0.2222 0.5553 0.8635
C19_5 C 0.24970(16) 0.6590(8) 0.8098(2)
C20_5 C 0.29710(16) 0.6550(8) 0.8504(2)
N14 N 0.91447(11) 0.2991(5) 0.49982(15)
Cl1_5 Cl 0.97686(3) 0.97956(16) 0.59905(5)
N1_5 N 0.91688(11) 0.6314(5) 0.51533(16)
N2_5 N 0.95762(11) 0.5649(5) 0.51948(15)
C1_5 C 0.66632(16) 0.4592(9) 0.3886(2)
H1_5 H 0.6698 0.4427 0.3544
C2_5 C 0.62706(17) 0.4702(9) 0.3957(2)
H2_5 H 0.5983 0.4607 0.3666
C3_5 C 0.68018(15) 0.4981(6) 0.4791(2)
H3_5 H 0.6956 0.5112 0.5183
N11_5 N 0.70037(12) 0.4771(5) 0.44214(17)
C7_5 C 0.74858(14) 0.4736(6) 0.4577(2)
C8_5 C 0.77771(15) 0.5179(7) 0.5133(2)
H7_5 H 0.7661 0.5492 0.5403
C9_5 C 0.82393(14) 0.5156(7) 0.5284(2)
H8_5 H 0.8434 0.5473 0.5655
C10_5 C 0.84161(14) 0.4664(6) 0.4886(2)
C11_5 C 0.81232(15) 0.4189(7) 0.4338(2)
H9_5 H 0.8241 0.3828 0.4072
C12_5 C 0.76549(15) 0.4236(8) 0.4174(2)
H10_5 H 0.7461 0.3937 0.3801
C13_5 C 0.89091(14) 0.4646(6) 0.50266(18)
H15_5 H 0.9445 0.8690 0.4346
N14_2 N 0.08553(11) 0.2991(5) 0.00018(15)
C1_6 C 0.33368(16) 0.4592(9) 0.1114(2)
H1_6 H 0.3302 0.4427 0.1456
C2_6 C 0.37294(17) 0.4702(9) 0.1043(2)
H2_6 H 0.4017 0.4607 0.1334
C3_6 C 0.31982(15) 0.4981(6) 0.0209(2)
N11_6 N 0.29963(12) 0.4771(5) 0.05786(17)
C7_6 C 0.25142(14) 0.4736(6) 0.0423(2)
C10_6 C 0.15839(14) 0.4664(6) 0.0114(2)
C11_6 C 0.18768(15) 0.4189(7) 0.0662(2)
H9_6 H 0.1759 0.3828 0.0928
C12_6 C 0.23451(15) 0.4236(8) 0.0826(2)
H10_6 H 0.2539 0.3937 0.1199
H15_6 H 0.0555 0.8690 0.0654
Cl1_6 Cl 0.02314(3) 0.97956(16) 0.90095(5)
N1_6 N 0.08312(11) 0.6314(5) 0.98467(16)
N2_6 N 0.04238(11) 0.5649(5) 0.98052(15)
H3_6 H 0.3044 0.5112 0.9817
C8_6 C 0.22229(15) 0.5179(7) 0.9867(2)
H7_6 H 0.2339 0.5492 0.9597
C9_6 C 0.17607(14) 0.5156(7) 0.9716(2)
H8_6 H 0.1566 0.5473 0.9345
C13_6 C 0.10909(14) 0.4646(6) 0.99734(18)
C4_6 C 0.91704(18) 0.4778(9) 0.8098(2)
H4_6 H 0.9139 0.3852 0.7808
C5_6 C 0.95428(17) 0.5024(8) 0.8591(2)
H5_6 H 0.9811 0.4281 0.8698
N6_6 N 0.94562(12) 0.6565(6) 0.89077(16)
C6_6 C 0.90378(15) 0.7185(7) 0.8600(2)
H6_6 H 0.8890 0.8218 0.8710
N7_6 N 0.68903(12) 0.5759(6) 0.59746(17)
N9_6 N 0.63081(13) 0.6866(6) 0.61318(18)
N10_6 N 0.66778(14) 0.7234(7) 0.66071(18)
N12_6 N 0.88527(13) 0.6143(7) 0.81093(17)
C14_6 C 0.83960(16) 0.6366(8) 0.7690(2)
C15_6 C 0.80616(17) 0.7091(8) 0.7854(2)
H11_6 H 0.8134 0.7497 0.8229
C16_6 C 0.76176(16) 0.7211(8) 0.7457(2)
H12_6 H 0.7394 0.7718 0.7567
C17_6 C 0.82902(17) 0.5826(9) 0.7129(2)
H13_6 H 0.8517 0.5395 0.7015
C18_6 C 0.78484(17) 0.5930(9) 0.6741(2)
H14_6 H 0.7778 0.5553 0.6365
C19_6 C 0.75030(16) 0.6590(8) 0.6902(2)
C20_6 C 0.70290(16) 0.6550(8) 0.6496(2)
Cl1_7 Cl 0.47686(3) 0.47956(16) 0.59905(5)
N1_7 N 0.41688(11) 0.1314(5) 0.51533(16)
N2_7 N 0.45762(11) 0.0649(5) 0.51948(15)
H3_7 H 0.1956 0.0112 0.5183
C5_7 C 0.54572(17) 0.0024(8) 0.6409(2)
N6_7 N 0.55438(12) 0.1565(6) 0.60923(16)
C6_7 C 0.59622(15) 0.2185(7) 0.6400(2)
H6_7 H 0.6110 0.3218 0.6290
N7_7 N 0.81097(12) 0.0759(6) 0.90254(17)
N9_7 N 0.86919(13) 0.1866(6) 0.88682(18)
N10_7 N 0.83222(14) 0.2234(7) 0.83929(18)
C8_7 C 0.27771(15) 0.0179(7) 0.5133(2)
H7_7 H 0.2661 0.0492 0.5403
C9_7 C 0.32393(14) 0.0156(7) 0.5284(2)
H8_7 H 0.3434 0.0473 0.5655
N12_7 N 0.61473(13) 0.1143(7) 0.68907(17)
C14_7 C 0.66040(16) 0.1366(8) 0.7310(2)
C15_7 C 0.69384(17) 0.2091(8) 0.7146(2)
H11_7 H 0.6866 0.2497 0.6771
C16_7 C 0.73824(16) 0.2211(8) 0.7543(2)
H12_7 H 0.7606 0.2718 0.7433
C17_7 C 0.67098(17) 0.0826(9) 0.7871(2)
H13_7 H 0.6483 0.0395 0.7985
C18_7 C 0.71516(17) 0.0930(9) 0.8259(2)
H14_7 H 0.7222 0.0553 0.8635
C19_7 C 0.74970(16) 0.1590(8) 0.8098(2)
C20_7 C 0.79710(16) 0.1550(8) 0.8504(2)
H15_7 H 0.4445 0.3690 0.4346
N14_3 N 0.41447(11) 0.7991(5) 0.49982(15)
C1_7 C 0.16632(16) 0.9592(9) 0.3886(2)
H1_7 H 0.1698 0.9427 0.3544
C2_7 C 0.12706(17) 0.9702(9) 0.3957(2)
H2_7 H 0.0983 0.9607 0.3666
C3_7 C 0.18018(15) 0.9981(6) 0.4791(2)
C4_7 C 0.58296(18) 0.9778(9) 0.6902(2)
H4_7 H 0.5861 0.8852 0.7192
H5_7 H 0.5189 0.9281 0.6302
N11_7 N 0.20037(12) 0.9771(5) 0.44214(17)
C7_7 C 0.24858(14) 0.9736(6) 0.4577(2)
C10_7 C 0.34161(14) 0.9664(6) 0.4886(2)
C11_7 C 0.31232(15) 0.9189(7) 0.4338(2)
H9_7 H 0.3241 0.8828 0.4072
C12_7 C 0.26549(15) 0.9236(8) 0.4174(2)
H10_7 H 0.2461 0.8937 0.3801
C13_7 C 0.39091(14) 0.9646(6) 0.50266(18)
H15_8 H 0.5555 0.3690 0.0654
N14_4 N 0.58553(11) 0.7991(5) 0.00018(15)
Cl1_8 Cl 0.52314(3) 0.47956(16) 0.90095(5)
N1_8 N 0.58312(11) 0.1314(5) 0.98467(16)
N2_8 N 0.54238(11) 0.0649(5) 0.98052(15)
H3_8 H 0.8044 0.0112 0.9817
C5_8 C 0.45428(17) 0.0024(8) 0.8591(2)
N6_8 N 0.44562(12) 0.1565(6) 0.89077(16)
C6_8 C 0.40378(15) 0.2185(7) 0.8600(2)
H6_8 H 0.3890 0.3218 0.8710
N7_8 N 0.18903(12) 0.0759(6) 0.59746(17)
N9_8 N 0.13081(13) 0.1866(6) 0.61318(18)
N10_8 N 0.16778(14) 0.2234(7) 0.66071(18)
C8_8 C 0.72229(15) 0.0179(7) 0.9867(2)
H7_8 H 0.7339 0.0492 0.9597
C9_8 C 0.67607(14) 0.0156(7) 0.9716(2)
H8_8 H 0.6566 0.0473 0.9345
N12_8 N 0.38527(13) 0.1143(7) 0.81093(17)
C14_8 C 0.33960(16) 0.1366(8) 0.7690(2)
C15_8 C 0.30616(17) 0.2091(8) 0.7854(2)
H11_8 H 0.3134 0.2497 0.8229
C16_8 C 0.26176(16) 0.2211(8) 0.7457(2)
H12_8 H 0.2394 0.2718 0.7567
C17_8 C 0.32902(17) 0.0826(9) 0.7129(2)
H13_8 H 0.3517 0.0395 0.7015
C18_8 C 0.28484(17) 0.0930(9) 0.6741(2)
H14_8 H 0.2778 0.0553 0.6365
C19_8 C 0.25030(16) 0.1590(8) 0.6902(2)
C20_8 C 0.20290(16) 0.1550(8) 0.6496(2)
C1_8 C 0.83368(16) 0.9592(9) 0.1114(2)
H1_8 H 0.8302 0.9427 0.1456
C2_8 C 0.87294(17) 0.9702(9) 0.1043(2)
H2_8 H 0.9017 0.9607 0.1334
C3_8 C 0.81982(15) 0.9981(6) 0.0209(2)
N11_8 N 0.79963(12) 0.9771(5) 0.05786(17)
C7_8 C 0.75142(14) 0.9736(6) 0.0423(2)
C10_8 C 0.65839(14) 0.9664(6) 0.0114(2)
C11_8 C 0.68768(15) 0.9189(7) 0.0662(2)
H9_8 H 0.6759 0.8828 0.0928
C12_8 C 0.73451(15) 0.9236(8) 0.0826(2)
H10_8 H 0.7539 0.8937 0.1199
C4_8 C 0.41704(18) 0.9778(9) 0.8098(2)
H4_8 H 0.4139 0.8852 0.7808
H5_8 H 0.4811 0.9281 0.8698
C13_8 C 0.60909(14) 0.9646(6) 0.99734(18)
loop_
_geom_bond_atom_site_label_1
_geom_bond_atom_site_label_2
_geom_bond_site_symmetry_1
_geom_bond_site_symmetry_2
Co3 Cl1 1_555 1_555
N1 Co3 1_555 1_555
N3 N2 1_555 1_555
N4 N3 1_555 1_555
C1 H1 1_555 1_555
C2 C1 1_555 1_555
H2 C2 1_555 1_555
N5 C2 1_555 1_555
C3 N5 1_555 1_555
H3 C3 1_555 1_555
N11 C1 1_555 1_555
C7 N11 1_555 1_555
C8 C7 1_555 1_555
H7 C8 1_555 1_555
C9 C8 1_555 1_555
H8 C9 1_555 1_555
C10 C9 1_555 1_555
C11 C10 1_555 1_555
H9 C11 1_555 1_555
C12 C7 1_555 1_555
H10 C12 1_555 1_555
C13 N1 1_555 1_555
O1 Co3 1_555 1_555
H15 O1 1_555 1_555
Co4 N5 1_555 1_555
Co7 N3 1_555 1_555
N16 Co3 1_555 1_555
N1 N2 1_555 1_555
N4 C13 1_555 1_555
C3 N11 1_555 1_555
C10 C13 1_555 1_555
C11 C12 1_555 1_555
C4 H4 1_555 1_555
C5 C4 1_555 1_555
H5 C5 1_555 1_555
N6 Co2 1_555 1_555
C6 N6 1_555 1_555
H6 C6 1_555 1_555
N7 N8 1_555 1_555
N8 N9 1_555 1_555
N9 N10 1_555 1_555
N10 C20 1_555 1_555
N12 C4 1_555 1_555
C14 N12 1_555 1_555
C15 C14 1_555 1_555
H11 C15 1_555 1_555
C16 C15 1_555 1_555
H12 C16 1_555 1_555
C17 C14 1_555 1_555
H13 C17 1_555 1_555
C18 C17 1_555 1_555
H14 C18 1_555 1_555
C19 C16 1_555 1_555
C20 N7 1_555 1_555
N13 Co2 1_555 1_555
C5 N6 1_555 1_555
C6 N12 1_555 1_555
C18 C19 1_555 1_555
C19 C20 1_555 1_555
C4_2 H4_2 1_555 1_555
C5_2 C4_2 1_555 1_555
H5_2 C5_2 1_555 1_555
N6_2 Co2_2 1_555 1_555
C6_2 N6_2 1_555 1_555
H6_2 C6_2 1_555 1_555
N7_2 N8_2 1_555 1_555
N8_2 N9_2 1_555 1_555
N9_2 N10_2 1_555 1_555
N10_2 C20_2 1_555 1_555
N12_2 C4_2 1_555 1_555
C14_2 N12_2 1_555 1_555
C15_2 C14_2 1_555 1_555
H11_2 C15_2 1_555 1_555
C16_2 C15_2 1_555 1_555
H12_2 C16_2 1_555 1_555
C17_2 C14_2 1_555 1_555
H13_2 C17_2 1_555 1_555
C18_2 C17_2 1_555 1_555
H14_2 C18_2 1_555 1_555
C19_2 C16_2 1_555 1_555
C20_2 N7_2 1_555 1_555
Co4 N8_2 1_555 1_555
C5_2 N6_2 1_555 1_555
C6_2 N12_2 1_555 1_555
C18_2 C19_2 1_555 1_555
C19_2 C20_2 1_555 1_555
Co3_2 Cl1_2 1_555 1_555
N1_2 Co3_2 1_555 1_555
N3_2 N2_2 1_555 1_555
H7_2 C8_2 1_555 1_555
C9_2 C8_2 1_555 1_555
H8_2 C9_2 1_555 1_555
C13_2 N1_2 1_555 1_555
N1_2 N2_2 1_555 1_555
C1_2 H1_2 1_555 1_555
C2_2 C1_2 1_555 1_555
H2_2 C2_2 1_555 1_555
N5_2 C2_2 1_555 1_555
C3_2 N5_2 1_555 1_555
N11_2 C1_2 1_555 1_555
C7_2 N11_2 1_555 1_555
C11_2 C10_2 1_555 1_555
H9_2 C11_2 1_555 1_555
C12_2 C7_2 1_555 1_555
H10_2 C12_2 1_555 1_555
H15_2 O1_2 1_555 1_555
Co5 N5_2 1_555 1_555
C3_2 N11_2 1_555 1_555
C11_2 C12_2 1_555 1_555
N4_3 N3_3 1_555 1_555
C1_3 H1_3 1_555 1_555
C2_3 C1_3 1_555 1_555
H2_3 C2_3 1_555 1_555
N5_3 C2_3 1_555 1_555
C3_3 N5_3 1_555 1_555
C4_3 H4_3 1_555 1_555
N11_3 C1_3 1_555 1_555
C7_3 N11_3 1_555 1_555
C11_3 C10_3 1_555 1_555
H9_3 C11_3 1_555 1_555
C12_3 C7_3 1_555 1_555
H10_3 C12_3 1_555 1_555
Co3_3 N4_3 1_555 1_555
Co7_3 N3_3 1_555 1_555
N4_3 C13_3 1_555 1_555
C3_3 N11_3 1_555 1_555
C10_3 C13_3 1_555 1_555
C11_3 C12_3 1_555 1_555
Co3_3 Cl1_3 1_555 1_555
Co2_3 Cl1_3 1_555 1_555
N1_3 Co3_3 1_555 1_555
N2_3 Co2_3 1_555 1_555
N6_3 Co2_3 1_555 1_555
C6_3 N6_3 1_555 1_555
H6_3 C6_3 1_555 1_555
N7_3 N8_3 1_555 1_555
N8_3 N9_3 1_555 1_555
N9_3 N10_3 1_555 1_555
N10_3 C20_3 1_555 1_555
H7_3 C8_3 1_555 1_555
C9_3 C8_3 1_555 1_555
H8_3 C9_3 1_555 1_555
C14_3 N12_3 1_555 1_555
C15_3 C14_3 1_555 1_555
H11_3 C15_3 1_555 1_555
C16_3 C15_3 1_555 1_555
H12_3 C16_3 1_555 1_555
C17_3 C14_3 1_555 1_555
H13_3 C17_3 1_555 1_555
C18_3 C17_3 1_555 1_555
H14_3 C18_3 1_555 1_555
C19_3 C16_3 1_555 1_555
C20_3 N7_3 1_555 1_555
O1_3 Co3_3 1_555 1_555
H15_3 O1_3 1_555 1_555
Co7_3 O1_3 1_555 1_555
N13_3 Co2_3 1_555 1_555
N15_3 Co3_3 1_555 1_555
N16_3 Co3_3 1_555 1_555
O2_3 Co2_3 1_555 1_555
Co2_3 O1_3 1_555 1_555
N1_3 N2_3 1_555 1_555
C5_3 N6_3 1_555 1_555
C6_3 N12_3 1_555 1_555
C18_3 C19_3 1_555 1_555
C19_3 C20_3 1_555 1_555
Co7_3 O2_3 1_555 1_555
C4_4 H4_4 1_555 1_555
C1_4 H1_4 1_555 1_555
C2_4 C1_4 1_555 1_555
H2_4 C2_4 1_555 1_555
N5_4 C2_4 1_555 1_555
C3_4 N5_4 1_555 1_555
N11_4 C1_4 1_555 1_555
C7_4 N11_4 1_555 1_555
C11_4 C10_4 1_555 1_555
H9_4 C11_4 1_555 1_555
C12_4 C7_4 1_555 1_555
H10_4 C12_4 1_555 1_555
C3_4 N11_4 1_555 1_555
C11_4 C12_4 1_555 1_555
Co3_4 Cl1_4 1_555 1_555
Co2_4 Cl1_4 1_555 1_555
N1_4 Co3_4 1_555 1_555
N2_4 Co2_4 1_555 1_555
N6_4 Co2_4 1_555 1_555
C6_4 N6_4 1_555 1_555
H6_4 C6_4 1_555 1_555
N7_4 N8_4 1_555 1_555
N8_4 N9_4 1_555 1_555
N9_4 N10_4 1_555 1_555
N10_4 C20_4 1_555 1_555
H7_4 C8_4 1_555 1_555
C9_4 C8_4 1_555 1_555
H8_4 C9_4 1_555 1_555
C14_4 N12_4 1_555 1_555
C15_4 C14_4 1_555 1_555
H11_4 C15_4 1_555 1_555
C16_4 C15_4 1_555 1_555
H12_4 C16_4 1_555 1_555
C17_4 C14_4 1_555 1_555
H13_4 C17_4 1_555 1_555
C18_4 C17_4 1_555 1_555
H14_4 C18_4 1_555 1_555
C19_4 C16_4 1_555 1_555
C20_4 N7_4 1_555 1_555
Co4_2 N8_4 1_555 1_555
N15_4 Co3_4 1_555 1_555
O2_4 Co2_4 1_555 1_555
N1_4 N2_4 1_555 1_555
C5_4 N6_4 1_555 1_555
C6_4 N12_4 1_555 1_555
C18_4 C19_4 1_555 1_555
C19_4 C20_4 1_555 1_555
H15_4 O1_4 1_555 1_555
Co7_4 O1_4 1_555 1_555
C4_5 H4_5 1_555 1_555
C5_5 C4_5 1_555 1_555
H5_5 C5_5 1_555 1_555
N6_5 Co7 1_555 1_555
C6_5 N6_5 1_555 1_555
H6_5 C6_5 1_555 1_555
N7_5 N16_4 1_555 1_555
N16_4 N9_5 1_555 1_555
N9_5 N10_5 1_555 1_555
N10_5 C20_5 1_555 1_555
N12_5 C4_5 1_555 1_555
C14_5 N12_5 1_555 1_555
C15_5 C14_5 1_555 1_555
H11_5 C15_5 1_555 1_555
C16_5 C15_5 1_555 1_555
H12_5 C16_5 1_555 1_555
C17_5 C14_5 1_555 1_555
H13_5 C17_5 1_555 1_555
C18_5 C17_5 1_555 1_555
H14_5 C18_5 1_555 1_555
C19_5 C16_5 1_555 1_555
C20_5 N7_5 1_555 1_555
C5_5 N6_5 1_555 1_555
C6_5 N12_5 1_555 1_555
C18_5 C19_5 1_555 1_555
C19_5 C20_5 1_555 1_555
Co4_2 Cl1_5 1_555 1_555
N1_5 Co4_2 1_555 1_555
N13 N2_5 1_555 1_555
N14 N13 1_555 1_555
C1_5 H1_5 1_555 1_555
C2_5 C1_5 1_555 1_555
H2_5 C2_5 1_555 1_555
N15_3 C2_5 1_555 1_555
C3_5 N15_3 1_555 1_555
H3_5 C3_5 1_555 1_555
N11_5 C1_5 1_555 1_555
C7_5 N11_5 1_555 1_555
C8_5 C7_5 1_555 1_555
H7_5 C8_5 1_555 1_555
C9_5 C8_5 1_555 1_555
H8_5 C9_5 1_555 1_555
C10_5 C9_5 1_555 1_555
C11_5 C10_5 1_555 1_555
H9_5 C11_5 1_555 1_555
C12_5 C7_5 1_555 1_555
H10_5 C12_5 1_555 1_555
C13_5 N1_5 1_555 1_555
O2 Co4_2 1_555 1_555
H15_5 O2 1_555 1_555
N1_5 N2_5 1_555 1_555
N14 C13_5 1_555 1_555
C3_5 N11_5 1_555 1_555
C10_5 C13_5 1_555 1_555
C11_5 C12_5 1_555 1_555
C1_6 H1_6 1_555 1_555
C2_6 C1_6 1_555 1_555
H2_6 C2_6 1_555 1_555
N15_4 C2_6 1_555 1_555
C3_6 N15_4 1_555 1_555
N11_6 C1_6 1_555 1_555
C7_6 N11_6 1_555 1_555
C11_6 C10_6 1_555 1_555
H9_6 C11_6 1_555 1_555
C12_6 C7_6 1_555 1_555
H10_6 C12_6 1_555 1_555
H15_6 O2_2 1_555 1_555
C3_6 N11_6 1_555 1_555
C11_6 C12_6 1_555 1_555
Co5_2 Cl1_6 1_555 1_555
N1_6 Co5_2 1_555 1_555
N13_2 N2_6 1_555 1_555
H7_6 C8_6 1_555 1_555
C9_6 C8_6 1_555 1_555
H8_6 C9_6 1_555 1_555
C13_6 N1_6 1_555 1_555
N1_6 N2_6 1_555 1_555
C4_6 H4_6 1_555 1_555
C5_6 C4_6 1_555 1_555
H5_6 C5_6 1_555 1_555
N6_6 Co7_2 1_555 1_555
C6_6 N6_6 1_555 1_555
H6_6 C6_6 1_555 1_555
N7_6 N16_3 1_555 1_555
N16_3 N9_6 1_555 1_555
N9_6 N10_6 1_555 1_555
N10_6 C20_6 1_555 1_555
N12_6 C4_6 1_555 1_555
C14_6 N12_6 1_555 1_555
C15_6 C14_6 1_555 1_555
H11_6 C15_6 1_555 1_555
C16_6 C15_6 1_555 1_555
H12_6 C16_6 1_555 1_555
C17_6 C14_6 1_555 1_555
H13_6 C17_6 1_555 1_555
C18_6 C17_6 1_555 1_555
H14_6 C18_6 1_555 1_555
C19_6 C16_6 1_555 1_555
C20_6 N7_6 1_555 1_555
C5_6 N6_6 1_555 1_555
C6_6 N12_6 1_555 1_555
C18_6 C19_6 1_555 1_555
C19_6 C20_6 1_555 1_555
Co4 Cl1_7 1_555 1_555
Co7_3 Cl1_7 1_555 1_555
N1_7 Co4 1_555 1_555
N2_7 Co7_3 1_555 1_555
N6_7 Co7_3 1_555 1_555
C6_7 N6_7 1_555 1_555
H6_7 C6_7 1_555 1_555
N7_7 N16_2 1_555 1_555
N16_2 N9_7 1_555 1_555
N9_7 N10_7 1_555 1_555
N10_7 C20_7 1_555 1_555
H7_7 C8_7 1_555 1_555
C9_7 C8_7 1_555 1_555
H8_7 C9_7 1_555 1_555
C14_7 N12_7 1_555 1_555
C15_7 C14_7 1_555 1_555
H11_7 C15_7 1_555 1_555
C16_7 C15_7 1_555 1_555
H12_7 C16_7 1_555 1_555
C17_7 C14_7 1_555 1_555
H13_7 C17_7 1_555 1_555
C18_7 C17_7 1_555 1_555
H14_7 C18_7 1_555 1_555
C19_7 C16_7 1_555 1_555
C20_7 N7_7 1_555 1_555
O2_3 Co4 1_555 1_555
H15_7 O2_3 1_555 1_555
N14_3 Co4 1_555 1_555
N1_7 N2_7 1_555 1_555
C5_7 N6_7 1_555 1_555
C6_7 N12_7 1_555 1_555
C18_7 C19_7 1_555 1_555
C19_7 C20_7 1_555 1_555
N14_3 N13_3 1_555 1_555
C1_7 H1_7 1_555 1_555
C2_7 C1_7 1_555 1_555
H2_7 C2_7 1_555 1_555
N15 C2_7 1_555 1_555
C3_7 N15 1_555 1_555
C4_7 H4_7 1_555 1_555
N11_7 C1_7 1_555 1_555
C7_7 N11_7 1_555 1_555
C11_7 C10_7 1_555 1_555
H9_7 C11_7 1_555 1_555
C12_7 C7_7 1_555 1_555
H10_7 C12_7 1_555 1_555
N14_3 C13_7 1_555 1_555
C3_7 N11_7 1_555 1_555
C10_7 C13_7 1_555 1_555
C11_7 C12_7 1_555 1_555
H15_8 O2_4 1_555 1_555
Co5 Cl1_8 1_555 1_555
Co7_4 Cl1_8 1_555 1_555
N1_8 Co5 1_555 1_555
N2_8 Co7_4 1_555 1_555
N6_8 Co7_4 1_555 1_555
C6_8 N6_8 1_555 1_555
H6_8 C6_8 1_555 1_555
N7_8 N16 1_555 1_555
N16 N9_8 1_555 1_555
N9_8 N10_8 1_555 1_555
N10_8 C20_8 1_555 1_555
H7_8 C8_8 1_555 1_555
C9_8 C8_8 1_555 1_555
H8_8 C9_8 1_555 1_555
C14_8 N12_8 1_555 1_555
C15_8 C14_8 1_555 1_555
H11_8 C15_8 1_555 1_555
C16_8 C15_8 1_555 1_555
H12_8 C16_8 1_555 1_555
C17_8 C14_8 1_555 1_555
H13_8 C17_8 1_555 1_555
C18_8 C17_8 1_555 1_555
H14_8 C18_8 1_555 1_555
C19_8 C16_8 1_555 1_555
C20_8 N7_8 1_555 1_555
N1_8 N2_8 1_555 1_555
C5_8 N6_8 1_555 1_555
C6_8 N12_8 1_555 1_555
C18_8 C19_8 1_555 1_555
C19_8 C20_8 1_555 1_555
C1_8 H1_8 1_555 1_555
C2_8 C1_8 1_555 1_555
H2_8 C2_8 1_555 1_555
N15_2 C2_8 1_555 1_555
C3_8 N15_2 1_555 1_555
N11_8 C1_8 1_555 1_555
C7_8 N11_8 1_555 1_555
C11_8 C10_8 1_555 1_555
H9_8 C11_8 1_555 1_555
C12_8 C7_8 1_555 1_555
H10_8 C12_8 1_555 1_555
C3_8 N11_8 1_555 1_555
C11_8 C12_8 1_555 1_555
C4_8 H4_8 1_555 1_555

#END
