
###############################################################################
#
# This file contains modified crystal structure data generated from the
# MOF subset of the Cambridge Structural Database (CSD) v543 
# hosted by the Cambridge Crystallographic Data Centre (CCDC).
#
# This work is licensed under the Creative Commons
# Attribution-NonCommercial-ShareAlike 4.0 International License.
# To view a copy of this license, visit
# http://creativecommons.org/licenses/by-nc-sa/4.0/
# or send a letter to
# Creative Commons, PO Box 1866, Mountain View, CA 94042, USA.
#
# CIF created using the CSD Python API on 29 September 2022
# The structure has been converted into the P1 space group
# The structure has a 3D framework
# The original CSD entry JOLVOY is in the cubic crystal system
# The framework has been calculated to contain at least 10.0% void space
# The void calculation uses a probe of radius 1.32A, grid spacing 0.4
# H atom positions have been added when not included in the experimental data
#
###############################################################################

data_JOLVOY
_chemical_formula_moiety         '(C852 H1680 Ag171 N180 S324)n'
_symmetry_cell_setting           triclinic
_symmetry_space_group_name_H-M   'P 1'
_symmetry_Int_Tables_number      1
_space_group_name_Hall           'P 1'
loop_
_symmetry_equiv_pos_site_id
_symmetry_equiv_pos_as_xyz
1 x,y,z
_cell_length_a                   36.5504(7)
_cell_length_b                   36.5504(7)
_cell_length_c                   36.5504(7)
_cell_angle_alpha                90
_cell_angle_beta                 90
_cell_angle_gamma                90
_cell_volume                     48828.8
loop_
_atom_site_label
_atom_site_type_symbol
_atom_site_fract_x
_atom_site_fract_y
_atom_site_fract_z
Ag1 Ag 0.63046(2) 0.58136(2) 0.55018(3)
Ag2 Ag 0.59265(3) 0.51182(2) 0.55619(2)
Ag3 Ag 0.76146(3) 0.46657(3) 0.53577(3)
Ag4 Ag 0.68023(2) 0.50804(3) 0.52652(3)
Ag5 Ag 0.7500 0.3750 0.5000
S1 S 0.64740(9) 0.48511(9) 0.58498(9)
S2 S 0.64701(8) 0.56316(9) 0.61383(9)
S3 S 0.71805(9) 0.41464(8) 0.54791(8)
S4 S 0.67489(8) 0.45056(9) 0.48684(9)
S5 S 0.57803(9) 0.53058(9) 0.49200(8)
S6 S 0.65425(9) 0.56325(9) 0.48929(9)
S7 S 0.74484(8) 0.53277(8) 0.54175(8)
N1 N 0.6209(3) 0.5275(3) 0.4347(3)
N2 N 0.7500 0.5920(4) 0.5000
N3 N 0.6927(3) 0.5116(4) 0.6341(3)
C1 C 0.5929(4) 0.5102(5) 0.4149(4)
H1 H 0.5949 0.5170 0.3893
H2 H 0.5694 0.5186 0.4238
C2 C 0.7101(4) 0.5389(5) 0.6590(4)
H3 H 0.6916 0.5562 0.6668
H4 H 0.7188 0.5262 0.6806
N4 N 0.6510(3) 0.3966(3) 0.5276(4)
C3 C 0.6184(3) 0.5395(3) 0.4694(3)
C4 C 0.7400(5) 0.5590(7) 0.6435(5)
H5 H 0.7307 0.5786 0.6287
H6 H 0.7545 0.5429 0.6285
H7 H 0.7549 0.5688 0.6627
C5 C 0.7534(4) 0.6136(4) 0.5337(5)
H8 H 0.7758 0.6194 0.5444
C6 C 0.6646(3) 0.5189(4) 0.6127(3)
C7 C 0.7067(5) 0.4717(5) 0.6370(4)
H9 H 0.7250 0.4620 0.6223
C8 C 0.6583(5) 0.5691(6) 0.3941(5)
H10 H 0.6409 0.5700 0.3744
H11 H 0.6825 0.5721 0.3845
H12 H 0.6532 0.5885 0.4111
C9 C 0.6799(3) 0.4193(4) 0.5216(3)
C10 C 0.6157(4) 0.3940(4) 0.5022(5)
H13 H 0.6215 0.4003 0.4771
H14 H 0.6051 0.3697 0.5029
C11 C 0.6554(4) 0.5326(5) 0.4134(4)
H15 H 0.6572 0.5132 0.3953
H16 H 0.6761 0.5301 0.4299
C12 C 0.7197(5) 0.6245(5) 0.5482(5)
H17 H 0.7063 0.6380 0.5301
H18 H 0.7237 0.6397 0.5693
H19 H 0.7059 0.6032 0.5553
C13 C 0.6525(5) 0.3660(5) 0.5541(6)
H20 H 0.6772 0.3563 0.5555
H21 H 0.6362 0.3465 0.5465
C14 C 0.5923(6) 0.4198(6) 0.5180(7)
H22 H 0.5875 0.4390 0.5007
H23 H 0.6035 0.4299 0.5395
H24 H 0.5697 0.4082 0.5246
C15 C 0.7500 0.5554(5) 0.5000
C16 C 0.5949(6) 0.4680(5) 0.4184(5)
H25 H 0.6147 0.4589 0.4037
H26 H 0.5723 0.4575 0.4101
H27 H 0.5989 0.4615 0.4435
C17 C 0.6889(7) 0.4527(6) 0.6635(6)
H28 H 0.6661 0.4439 0.6541
H29 H 0.6845 0.4684 0.6840
H30 H 0.7037 0.4324 0.6710
C18 C 0.6405(8) 0.3812(6) 0.5922(6)
H31 H 0.6157 0.3899 0.5908
H32 H 0.6563 0.4010 0.5991
H33 H 0.6420 0.3621 0.6102
S8 S 0.75516(8) 0.53277(8) 0.45825(8)
C19 C 0.7466(4) 0.6136(4) 0.4663(5)
H34 H 0.7242 0.6194 0.4556
C20 C 0.7803(5) 0.6245(5) 0.4518(5)
H35 H 0.7937 0.6380 0.4699
H36 H 0.7763 0.6397 0.4307
H37 H 0.7941 0.6032 0.4447
Ag6 Ag 0.55018(3) 0.63046(2) 0.58136(2)
Ag7 Ag 0.55619(2) 0.59265(3) 0.51182(2)
Ag8 Ag 0.53577(3) 0.76146(3) 0.46657(3)
Ag9 Ag 0.52652(3) 0.68023(2) 0.50804(3)
S9 S 0.58498(9) 0.64740(9) 0.48511(9)
S10 S 0.61383(9) 0.64701(8) 0.56316(9)
S11 S 0.54791(8) 0.71805(9) 0.41464(8)
S12 S 0.48684(9) 0.67489(8) 0.45056(9)
S13 S 0.49200(8) 0.57803(9) 0.53058(9)
S14 S 0.48929(9) 0.65425(9) 0.56325(9)
N5 N 0.4347(3) 0.6209(3) 0.5275(3)
N6 N 0.6341(3) 0.6927(3) 0.5116(4)
C21 C 0.4149(4) 0.5929(4) 0.5102(5)
H38 H 0.3893 0.5949 0.5170
H39 H 0.4238 0.5694 0.5186
C22 C 0.6590(4) 0.7101(4) 0.5389(5)
H40 H 0.6668 0.6916 0.5562
H41 H 0.6806 0.7188 0.5262
N7 N 0.5276(4) 0.6510(3) 0.3966(3)
C23 C 0.4694(3) 0.6184(3) 0.5395(3)
C24 C 0.6435(5) 0.7400(5) 0.5590(7)
H42 H 0.6287 0.7307 0.5786
H43 H 0.6285 0.7545 0.5429
H44 H 0.6627 0.7549 0.5688
C25 C 0.6127(3) 0.6646(3) 0.5189(4)
C26 C 0.6370(4) 0.7067(5) 0.4717(5)
H45 H 0.6223 0.7250 0.4620
C27 C 0.3941(5) 0.6583(5) 0.5691(6)
H46 H 0.3744 0.6409 0.5700
H47 H 0.3845 0.6825 0.5721
H48 H 0.4111 0.6532 0.5885
C28 C 0.5216(3) 0.6799(3) 0.4193(4)
C29 C 0.5022(5) 0.6157(4) 0.3940(4)
H49 H 0.4771 0.6215 0.4003
H50 H 0.5029 0.6051 0.3697
C30 C 0.4134(4) 0.6554(4) 0.5326(5)
H51 H 0.3953 0.6572 0.5132
H52 H 0.4299 0.6761 0.5301
C31 C 0.5541(6) 0.6525(5) 0.3660(5)
H53 H 0.5555 0.6772 0.3563
H54 H 0.5465 0.6362 0.3465
C32 C 0.5180(7) 0.5923(6) 0.4198(6)
H55 H 0.5007 0.5875 0.4390
H56 H 0.5395 0.6035 0.4299
H57 H 0.5246 0.5697 0.4082
C33 C 0.4184(5) 0.5949(6) 0.4680(5)
H58 H 0.4037 0.6147 0.4589
H59 H 0.4101 0.5723 0.4575
H60 H 0.4435 0.5989 0.4615
C34 C 0.6635(6) 0.6889(7) 0.4527(6)
H61 H 0.6541 0.6661 0.4439
H62 H 0.6840 0.6845 0.4684
H63 H 0.6710 0.7037 0.4324
C35 C 0.5922(6) 0.6405(8) 0.3812(6)
H64 H 0.5908 0.6157 0.3899
H65 H 0.5991 0.6563 0.4010
H66 H 0.6102 0.6420 0.3621
Ag10 Ag 0.58136(2) 0.55018(3) 0.63046(2)
Ag11 Ag 0.51182(2) 0.55619(2) 0.59265(3)
Ag12 Ag 0.46657(3) 0.53577(3) 0.76146(3)
Ag13 Ag 0.50804(3) 0.52652(3) 0.68023(2)
S15 S 0.48511(9) 0.58498(9) 0.64740(9)
S16 S 0.56316(9) 0.61383(9) 0.64701(8)
S17 S 0.41464(8) 0.54791(8) 0.71805(9)
S18 S 0.45056(9) 0.48684(9) 0.67489(8)
S19 S 0.53058(9) 0.49200(8) 0.57803(9)
S20 S 0.56325(9) 0.48929(9) 0.65425(9)
N8 N 0.5275(3) 0.4347(3) 0.6209(3)
N9 N 0.5116(4) 0.6341(3) 0.6927(3)
C36 C 0.5102(5) 0.4149(4) 0.5929(4)
H67 H 0.5170 0.3893 0.5949
H68 H 0.5186 0.4238 0.5694
C37 C 0.5389(5) 0.6590(4) 0.7101(4)
H69 H 0.5562 0.6668 0.6916
H70 H 0.5262 0.6806 0.7188
N10 N 0.3966(3) 0.5276(4) 0.6510(3)
C38 C 0.5395(3) 0.4694(3) 0.6184(3)
C39 C 0.5590(7) 0.6435(5) 0.7400(5)
H71 H 0.5786 0.6287 0.7307
H72 H 0.5429 0.6285 0.7545
H73 H 0.5688 0.6627 0.7549
C40 C 0.5189(4) 0.6127(3) 0.6646(3)
C41 C 0.4717(5) 0.6370(4) 0.7067(5)
H74 H 0.4620 0.6223 0.7250
C42 C 0.5691(6) 0.3941(5) 0.6583(5)
H75 H 0.5700 0.3744 0.6409
H76 H 0.5721 0.3845 0.6825
H77 H 0.5885 0.4111 0.6532
C43 C 0.4193(4) 0.5216(3) 0.6799(3)
C44 C 0.3940(4) 0.5022(5) 0.6157(4)
H78 H 0.4003 0.4771 0.6215
H79 H 0.3697 0.5029 0.6051
C45 C 0.5326(5) 0.4134(4) 0.6554(4)
H80 H 0.5132 0.3953 0.6572
H81 H 0.5301 0.4299 0.6761
C46 C 0.3660(5) 0.5541(6) 0.6525(5)
H82 H 0.3563 0.5555 0.6772
H83 H 0.3465 0.5465 0.6362
C47 C 0.4198(6) 0.5180(7) 0.5923(6)
H84 H 0.4390 0.5007 0.5875
H85 H 0.4299 0.5395 0.6035
H86 H 0.4082 0.5246 0.5697
C48 C 0.4680(5) 0.4184(5) 0.5949(6)
H87 H 0.4589 0.4037 0.6147
H88 H 0.4575 0.4101 0.5723
H89 H 0.4615 0.4435 0.5989
C49 C 0.4527(6) 0.6635(6) 0.6889(7)
H90 H 0.4439 0.6541 0.6661
H91 H 0.4684 0.6840 0.6845
H92 H 0.4324 0.6710 0.7037
C50 C 0.3812(6) 0.5922(6) 0.6405(8)
H93 H 0.3899 0.5908 0.6157
H94 H 0.4010 0.5991 0.6563
H95 H 0.3621 0.6102 0.6420
Ag14 Ag 0.69982(3) 0.16864(2) 0.38046(2)
Ag15 Ag 0.69381(2) 0.23818(2) 0.34265(3)
Ag16 Ag 0.71423(3) 0.28343(3) 0.51146(3)
Ag17 Ag 0.72348(3) 0.24196(3) 0.43023(2)
S21 S 0.66502(9) 0.26489(9) 0.39740(9)
S22 S 0.63617(9) 0.18684(9) 0.39701(8)
S23 S 0.70209(8) 0.33536(8) 0.46805(9)
S24 S 0.76316(9) 0.29944(9) 0.42489(8)
S25 S 0.75800(8) 0.21942(9) 0.32803(9)
S26 S 0.76071(9) 0.18675(9) 0.40425(9)
S27 S 0.70825(8) 0.21723(8) 0.49484(8)
N11 N 0.8153(3) 0.2225(3) 0.3709(3)
N12 N 0.7500 0.1580(4) 0.5000
N13 N 0.6159(3) 0.2384(4) 0.4427(3)
C51 C 0.8351(4) 0.2398(5) 0.3429(4)
H96 H 0.8607 0.2330 0.3449
H97 H 0.8262 0.2314 0.3194
C52 C 0.5910(4) 0.2111(5) 0.4601(4)
H98 H 0.5832 0.1938 0.4416
H99 H 0.5694 0.2238 0.4688
N14 N 0.7224(4) 0.3534(3) 0.4010(3)
C53 C 0.7806(3) 0.2105(3) 0.3684(3)
C54 C 0.6065(5) 0.1910(7) 0.4900(5)
H100 H 0.6213 0.1714 0.4807
H101 H 0.6215 0.2071 0.5045
H102 H 0.5873 0.1812 0.5049
C55 C 0.7163(5) 0.1364(4) 0.5034(4)
H103 H 0.7056 0.1306 0.5258
C56 C 0.6373(3) 0.2311(4) 0.4146(3)
C57 C 0.6130(4) 0.2783(5) 0.4567(5)
H104 H 0.6277 0.2880 0.4750
C58 C 0.8559(5) 0.1809(6) 0.4083(5)
H105 H 0.8756 0.1800 0.3909
H106 H 0.8655 0.1779 0.4325
H107 H 0.8389 0.1615 0.4032
C59 C 0.7284(3) 0.3307(4) 0.4299(3)
C60 C 0.7478(5) 0.3560(4) 0.3657(4)
H108 H 0.7729 0.3497 0.3715
H109 H 0.7471 0.3803 0.3551
C61 C 0.8366(4) 0.2174(5) 0.4054(4)
H110 H 0.8547 0.2368 0.4072
H111 H 0.8201 0.2199 0.4261
C62 C 0.7018(5) 0.1255(5) 0.4697(5)
H112 H 0.7199 0.1120 0.4563
H113 H 0.6807 0.1103 0.4737
H114 H 0.6947 0.1468 0.4559
C63 C 0.6959(6) 0.3840(5) 0.4025(5)
H115 H 0.6945 0.3937 0.4272
H116 H 0.7035 0.4035 0.3862
C64 C 0.7320(7) 0.3302(6) 0.3423(6)
H117 H 0.7493 0.3110 0.3375
H118 H 0.7105 0.3201 0.3535
H119 H 0.7254 0.3418 0.3197
C65 C 0.7500 0.1946(5) 0.5000
C66 C 0.8316(5) 0.2820(5) 0.3449(6)
H120 H 0.8463 0.2911 0.3647
H121 H 0.8399 0.2925 0.3223
H122 H 0.8065 0.2885 0.3489
C67 C 0.5865(6) 0.2973(6) 0.4389(7)
H123 H 0.5959 0.3061 0.4161
H124 H 0.5660 0.2816 0.4345
H125 H 0.5790 0.3176 0.4537
C68 C 0.6578(6) 0.3688(6) 0.3905(8)
H126 H 0.6592 0.3601 0.3657
H127 H 0.6509 0.3490 0.4063
H128 H 0.6398 0.3879 0.3920
S28 S 0.79175(8) 0.21723(8) 0.50516(8)
C69 C 0.7837(5) 0.1364(4) 0.4966(4)
H129 H 0.7944 0.1306 0.4742
C70 C 0.7982(5) 0.1255(5) 0.5303(5)
H130 H 0.7801 0.1120 0.5437
H131 H 0.8193 0.1103 0.5263
H132 H 0.8053 0.1468 0.5441
Ag18 Ag 0.61954(2) 0.19982(3) 0.33136(2)
Ag19 Ag 0.73818(2) 0.15735(3) 0.30619(2)
Ag20 Ag 0.73854(3) 0.46657(3) 0.46423(3)
Ag21 Ag 0.46423(3) 0.73854(3) 0.46657(3)
Ag22 Ag 0.46657(3) 0.46423(3) 0.73854(3)
Ag23 Ag 0.78577(3) 0.28343(3) 0.48854(3)
Ag24 Ag 0.81977(2) 0.50804(3) 0.47348(3)
Ag25 Ag 0.77652(3) 0.24196(3) 0.56977(2)
Ag26 Ag 0.5000 0.7500 0.3750
Ag27 Ag 0.3750 0.5000 0.7500
S29 S 0.68684(9) 0.10299(8) 0.36383(9)
S30 S 0.78195(9) 0.41464(8) 0.45209(8)
S31 S 0.79791(8) 0.33536(8) 0.53195(9)
S32 S 0.82511(8) 0.45056(9) 0.51316(9)
S33 S 0.51316(9) 0.82511(8) 0.45056(9)
S34 S 0.45056(9) 0.51316(9) 0.82511(8)
S35 S 0.73684(9) 0.29944(9) 0.57511(8)
S36 S 0.67197(9) 0.25800(8) 0.28058(9)
S37 S 0.54175(8) 0.74484(8) 0.53277(8)
S38 S 0.53277(8) 0.54175(8) 0.74484(8)
H133 H 0.754589 0.638625 0.517575
H134 H 0.727172 0.480294 0.656869
H135 H 0.745411 0.638625 0.482425
H136 H 0.656869 0.727172 0.480294
H137 H 0.480294 0.656869 0.727172
H138 H 0.732425 0.111375 0.504589
H139 H 0.593131 0.269706 0.477172
H140 H 0.767575 0.111375 0.495411
S13_2 S 0.00800(8) 0.42197(9) 0.03058(9)
S14_2 S 0.01071(9) 0.34575(9) 0.06325(9)
N5_2 N 0.0653(3) 0.3791(3) 0.0275(3)
C21_2 C 0.0851(4) 0.4071(4) 0.0102(5)
H38_2 H 0.1107 0.4051 0.0170
H39_2 H 0.0762 0.4306 0.0186
C23_2 C 0.0306(3) 0.3816(3) 0.0395(3)
C27_2 C 0.1059(5) 0.3417(5) 0.0691(6)
H46_2 H 0.1256 0.3591 0.0700
H47_2 H 0.1155 0.3175 0.0721
H48_2 H 0.0889 0.3468 0.0885
C30_2 C 0.0866(4) 0.3446(4) 0.0326(5)
H51_2 H 0.1047 0.3428 0.0132
H52_2 H 0.0701 0.3239 0.0301
Ag12_2 Ag 0.03343(3) 0.46423(3) 0.26146(3)
S15_2 S 0.01489(9) 0.41502(9) 0.14740(9)
S17_2 S 0.08536(8) 0.45209(8) 0.21805(9)
S18_2 S 0.04944(9) 0.51316(9) 0.17489(8)
N10_2 N 0.1034(3) 0.4724(4) 0.1510(3)
C41_2 C 0.0283(5) 0.3630(4) 0.2067(5)
H74_2 H 0.0380 0.3777 0.2250
C43_2 C 0.0807(4) 0.4784(3) 0.1799(3)
C44_2 C 0.1060(4) 0.4978(5) 0.1157(4)
H78_2 H 0.0997 0.5229 0.1215
H79_2 H 0.1303 0.4971 0.1051
C46_2 C 0.1340(5) 0.4459(6) 0.1525(5)
H82_2 H 0.1437 0.4445 0.1772
H83_2 H 0.1535 0.4535 0.1362
C47_2 C 0.0802(6) 0.4820(7) 0.0923(6)
H84_2 H 0.0610 0.4993 0.0875
H85_2 H 0.0701 0.4605 0.1035
H86_2 H 0.0918 0.4754 0.0697
C48_2 C 0.0320(5) 0.5816(5) 0.0949(6)
H87_2 H 0.0411 0.5963 0.1147
H88_2 H 0.0425 0.5899 0.0723
H89_2 H 0.0385 0.5565 0.0989
C49_2 C 0.0473(6) 0.3365(6) 0.1889(7)
H90_2 H 0.0561 0.3459 0.1661
H91_2 H 0.0316 0.3160 0.1845
H92_2 H 0.0676 0.3290 0.2037
C50_2 C 0.1188(6) 0.4078(6) 0.1405(8)
H93_2 H 0.1101 0.4092 0.1157
H94_2 H 0.0990 0.4009 0.1563
H95_2 H 0.1379 0.3898 0.1420
Ag22_2 Ag 0.03343(3) 0.53577(3) 0.23854(3)
Ag27_2 Ag 0.1250 0.5000 0.2500
S34_2 S 0.04944(9) 0.48684(9) 0.32511(8)
H137_2 H 0.0197061 0.343131 0.227172
S12_2 S 0.01316(9) 0.32511(8) 0.95056(9)
H49_2 H 0.0229 0.3785 0.9003
C33_2 C 0.0816(5) 0.4051(6) 0.9680(5)
H58_2 H 0.0963 0.3853 0.9589
H59_2 H 0.0899 0.4277 0.9575
H60_2 H 0.0565 0.4011 0.9615
Ag21_2 Ag 0.03577(3) 0.26146(3) 0.96657(3)
Ag26_2 Ag 0.0000 0.2500 0.8750
Ag1_2 Ag 0.86954(2) 0.41864(2) 0.05018(3)
Ag2_2 Ag 0.90735(3) 0.48818(2) 0.05619(2)
Ag3_2 Ag 0.73854(3) 0.53343(3) 0.03577(3)
Ag4_2 Ag 0.81977(2) 0.49196(3) 0.02652(3)
Ag5_2 Ag 0.7500 0.6250 -0.0000
S1_2 S 0.85260(9) 0.51489(9) 0.08498(9)
S2_2 S 0.85299(8) 0.43684(9) 0.11383(9)
S3_2 S 0.78195(9) 0.58536(8) 0.04791(8)
S7_2 S 0.75516(8) 0.46723(8) 0.04175(8)
N2_2 N 0.7500 0.4080(4) -0.0000
N3_2 N 0.8073(3) 0.4884(4) 0.1341(3)
C2_2 C 0.7899(4) 0.4611(5) 0.1590(4)
H3_2 H 0.8084 0.4438 0.1668
H4_2 H 0.7812 0.4738 0.1806
N4_2 N 0.8490(3) 0.6034(3) 0.0276(4)
C4_2 C 0.7600(5) 0.4410(7) 0.1435(5)
H5_2 H 0.7693 0.4214 0.1287
H6_2 H 0.7455 0.4571 0.1285
H7_2 H 0.7451 0.4312 0.1627
C5_2 C 0.7466(4) 0.3864(4) 0.0337(5)
H8_2 H 0.7242 0.3806 0.0444
C6_2 C 0.8354(3) 0.4811(4) 0.1127(3)
C7_2 C 0.7933(5) 0.5283(5) 0.1370(4)
H9_2 H 0.7750 0.5380 0.1223
C9_2 C 0.8201(3) 0.5807(4) 0.0216(3)
C10_2 C 0.8843(4) 0.6060(4) 0.0022(5)
H14_2 H 0.8949 0.6303 0.0029
C12_2 C 0.7803(5) 0.3755(5) 0.0482(5)
H17_2 H 0.7937 0.3620 0.0301
H18_2 H 0.7763 0.3603 0.0693
H19_2 H 0.7941 0.3968 0.0553
C13_2 C 0.8475(5) 0.6340(5) 0.0541(6)
H20_2 H 0.8228 0.6437 0.0555
H21_2 H 0.8638 0.6535 0.0465
C14_2 C 0.9077(6) 0.5802(6) 0.0180(7)
H22_2 H 0.9125 0.5610 0.0007
H23_2 H 0.8965 0.5701 0.0395
H24_2 H 0.9303 0.5918 0.0246
C15_2 C 0.7500 0.4446(5) -0.0000
C17_2 C 0.8111(7) 0.5473(6) 0.1635(6)
H28_2 H 0.8339 0.5561 0.1541
H29_2 H 0.8155 0.5316 0.1840
H30_2 H 0.7963 0.5676 0.1710
C18_2 C 0.8595(8) 0.6188(6) 0.0922(6)
H31_2 H 0.8843 0.6101 0.0908
H32_2 H 0.8437 0.5990 0.0991
H33_2 H 0.8580 0.6379 0.1102
Ag6_2 Ag 0.94982(3) 0.36954(2) 0.08136(2)
Ag7_2 Ag 0.94381(2) 0.40735(3) 0.01182(2)
Ag9_2 Ag 0.97348(3) 0.31977(2) 0.00804(3)
S10_2 S 0.88617(9) 0.35299(8) 0.06316(9)
N6_2 N 0.8659(3) 0.3073(3) 0.0116(4)
C22_2 C 0.8410(4) 0.2899(4) 0.0389(5)
H40_2 H 0.8332 0.3084 0.0562
H41_2 H 0.8194 0.2812 0.0262
C24_2 C 0.8565(5) 0.2600(5) 0.0590(7)
H42_2 H 0.8713 0.2693 0.0786
H43_2 H 0.8715 0.2455 0.0429
H44_2 H 0.8373 0.2451 0.0688
C25_2 C 0.8873(3) 0.3354(3) 0.0189(4)
Ag10_2 Ag 0.91864(2) 0.44982(3) 0.13046(2)
Ag11_2 Ag 0.98818(2) 0.44381(2) 0.09265(3)
Ag13_2 Ag 0.99196(3) 0.47348(3) 0.18023(2)
S16_2 S 0.93684(9) 0.38617(9) 0.14701(8)
S19_2 S 0.96942(9) 0.50800(8) 0.07803(9)
S20_2 S 0.93675(9) 0.51071(9) 0.15425(9)
N8_2 N 0.9725(3) 0.5653(3) 0.1209(3)
N9_2 N 0.9884(4) 0.3659(3) 0.1927(3)
C36_2 C 0.9898(5) 0.5851(4) 0.0929(4)
H67_2 H 0.9830 0.6107 0.0949
H68_2 H 0.9814 0.5762 0.0694
C37_2 C 0.9611(5) 0.3410(4) 0.2101(4)
H69_2 H 0.9438 0.3332 0.1916
H70_2 H 0.9738 0.3194 0.2188
C38_2 C 0.9605(3) 0.5306(3) 0.1184(3)
C39_2 C 0.9410(7) 0.3565(5) 0.2400(5)
H71_2 H 0.9214 0.3713 0.2307
H72_2 H 0.9571 0.3715 0.2545
H73_2 H 0.9312 0.3373 0.2549
C40_2 C 0.9811(4) 0.3873(3) 0.1646(3)
C42_2 C 0.9309(6) 0.6059(5) 0.1583(5)
H75_2 H 0.9300 0.6256 0.1409
H76_2 H 0.9279 0.6155 0.1825
H77_2 H 0.9115 0.5889 0.1532
C45_2 C 0.9674(5) 0.5866(4) 0.1554(4)
H80_2 H 0.9868 0.6047 0.1572
H81_2 H 0.9699 0.5701 0.1761
Ag16_2 Ag 0.78577(3) 0.71657(3) 0.01146(3)
N12_2 N 0.7500 0.8420(4) -0.0000
H101_2 H 0.8785 0.7929 0.0045
H102_2 H 0.9127 0.8188 0.0049
C55_2 C 0.7837(5) 0.8636(4) 0.0034(4)
H103_2 H 0.7944 0.8694 0.0258
C65_2 C 0.7500 0.8054(5) -0.0000
S28_2 S 0.70825(8) 0.78277(8) 0.00516(8)
C70_2 C 0.7018(5) 0.8745(5) 0.0303(5)
H130_2 H 0.7199 0.8880 0.0437
H131_2 H 0.6807 0.8897 0.0263
H132_2 H 0.6947 0.8532 0.0441
Ag25_2 Ag 0.72348(3) 0.75804(3) 0.06977(2)
S31_2 S 0.70209(8) 0.66464(8) 0.03195(9)
S32_2 S 0.67489(8) 0.54944(9) 0.01316(9)
S35_2 S 0.76316(9) 0.70056(9) 0.07511(8)
S37_2 S 0.95825(8) 0.25516(8) 0.03277(8)
S38_2 S 0.96723(8) 0.45825(8) 0.24484(8)
H133_2 H 0.745411 0.361375 0.0175749
H134_2 H 0.772828 0.519706 0.156869
H138_2 H 0.767575 0.888625 0.00458947
Ag5_3 Ag 0.7500 0.6250 1.0000
S4_2 S 0.82511(8) 0.54944(9) 0.98684(9)
S5_2 S 0.92197(9) 0.46942(9) 0.99200(8)
S6_2 S 0.84575(9) 0.43675(9) 0.98929(9)
N1_2 N 0.8791(3) 0.4725(3) 0.9347(3)
N2_3 N 0.7500 0.4080(4) 1.0000
C1_2 C 0.9071(4) 0.4898(5) 0.9149(4)
H1_2 H 0.9051 0.4830 0.8893
H2_2 H 0.9306 0.4814 0.9238
C3_2 C 0.8816(3) 0.4605(3) 0.9694(3)
C8_2 C 0.8417(5) 0.4309(6) 0.8941(5)
H10_2 H 0.8591 0.4300 0.8744
H11_2 H 0.8175 0.4279 0.8845
H12_2 H 0.8468 0.4115 0.9111
H13_2 H 0.8785 0.5997 0.9771
C11_2 C 0.8446(4) 0.4674(5) 0.9134(4)
H15_2 H 0.8428 0.4868 0.8953
H16_2 H 0.8239 0.4699 0.9299
C15_3 C 0.7500 0.4446(5) 1.0000
C16_2 C 0.9051(6) 0.5320(5) 0.9184(5)
H25_2 H 0.8853 0.5411 0.9037
H26_2 H 0.9277 0.5425 0.9101
H27_2 H 0.9011 0.5385 0.9435
S8_2 S 0.74484(8) 0.46723(8) 0.95825(8)
C19_2 C 0.7534(4) 0.3864(4) 0.9663(5)
H34_2 H 0.7758 0.3806 0.9556
C20_2 C 0.7197(5) 0.3755(5) 0.9518(5)
H35_2 H 0.7063 0.3620 0.9699
H36_2 H 0.7237 0.3603 0.9307
H37_2 H 0.7059 0.3968 0.9447
Ag8_2 Ag 0.96423(3) 0.23854(3) 0.96657(3)
S9_2 S 0.91502(9) 0.35260(9) 0.98511(9)
S11_2 S 0.95209(8) 0.28195(9) 0.91464(8)
N7_2 N 0.9724(4) 0.3490(3) 0.8966(3)
C26_2 C 0.8630(4) 0.2933(5) 0.9717(5)
H45_2 H 0.8777 0.2750 0.9620
C28_2 C 0.9784(3) 0.3201(3) 0.9193(4)
C29_2 C 0.9978(5) 0.3843(4) 0.8940(4)
H50_2 H 0.9971 0.3949 0.8697
C31_2 C 0.9459(6) 0.3475(5) 0.8660(5)
H53_2 H 0.9445 0.3228 0.8563
H54_2 H 0.9535 0.3638 0.8465
C32_2 C 0.9820(7) 0.4077(6) 0.9198(6)
H55_2 H 0.9993 0.4125 0.9390
H56_2 H 0.9605 0.3965 0.9299
H57_2 H 0.9754 0.4303 0.9082
C34_2 C 0.8365(6) 0.3111(7) 0.9527(6)
H61_2 H 0.8459 0.3339 0.9439
H62_2 H 0.8160 0.3155 0.9684
H63_2 H 0.8290 0.2963 0.9324
C35_2 C 0.9078(6) 0.3595(8) 0.8812(6)
H64_2 H 0.9092 0.3843 0.8899
H65_2 H 0.9009 0.3437 0.9010
H66_2 H 0.8898 0.3580 0.8621
Ag14_2 Ag 0.80018(3) 0.83136(2) 0.88046(2)
Ag15_2 Ag 0.80619(2) 0.76182(2) 0.84265(3)
Ag17_2 Ag 0.77652(3) 0.75804(3) 0.93023(2)
S21_2 S 0.83498(9) 0.73511(9) 0.89740(9)
S22_2 S 0.86383(9) 0.81316(9) 0.89701(8)
S23_2 S 0.79791(8) 0.66464(8) 0.96805(9)
S24_2 S 0.73684(9) 0.70056(9) 0.92489(8)
S25_2 S 0.74200(8) 0.78058(9) 0.82803(9)
S26_2 S 0.73929(9) 0.81325(9) 0.90425(9)
S27_2 S 0.79175(8) 0.78277(8) 0.99484(8)
N11_2 N 0.6847(3) 0.7775(3) 0.8709(3)
N12_3 N 0.7500 0.8420(4) 1.0000
N13_2 N 0.8841(3) 0.7616(4) 0.9427(3)
C51_2 C 0.6649(4) 0.7602(5) 0.8429(4)
H96_2 H 0.6393 0.7670 0.8449
H97_2 H 0.6738 0.7686 0.8194
C52_2 C 0.9090(4) 0.7889(5) 0.9601(4)
H98_2 H 0.9168 0.8062 0.9416
H99_2 H 0.9306 0.7762 0.9688
N14_2 N 0.7776(4) 0.6466(3) 0.9010(3)
C53_2 C 0.7194(3) 0.7895(3) 0.8684(3)
C54_2 C 0.8935(5) 0.8090(7) 0.9900(5)
H100_2 H 0.8787 0.8286 0.9807
C56_2 C 0.8627(3) 0.7689(4) 0.9146(3)
C57_2 C 0.8870(4) 0.7217(5) 0.9567(5)
H104_2 H 0.8723 0.7120 0.9750
C58_2 C 0.6441(5) 0.8191(6) 0.9083(5)
H105_2 H 0.6244 0.8200 0.8909
H106_2 H 0.6345 0.8221 0.9325
H107_2 H 0.6611 0.8385 0.9032
C59_2 C 0.7716(3) 0.6693(4) 0.9299(3)
C60_2 C 0.7522(5) 0.6440(4) 0.8657(4)
H108_2 H 0.7271 0.6503 0.8715
H109_2 H 0.7529 0.6197 0.8551
C61_2 C 0.6634(4) 0.7826(5) 0.9054(4)
H110_2 H 0.6453 0.7632 0.9072
H111_2 H 0.6799 0.7801 0.9261
C62_2 C 0.7982(5) 0.8745(5) 0.9697(5)
H112_2 H 0.7801 0.8880 0.9563
H113_2 H 0.8193 0.8897 0.9737
H114_2 H 0.8053 0.8532 0.9559
C63_2 C 0.8041(6) 0.6160(5) 0.9025(5)
H115_2 H 0.8055 0.6063 0.9272
H116_2 H 0.7965 0.5965 0.8862
C64_2 C 0.7680(7) 0.6698(6) 0.8423(6)
H117_2 H 0.7507 0.6890 0.8375
H118_2 H 0.7895 0.6799 0.8535
H119_2 H 0.7746 0.6582 0.8197
C65_3 C 0.7500 0.8054(5) 1.0000
C66_2 C 0.6684(5) 0.7180(5) 0.8449(6)
H120_2 H 0.6537 0.7089 0.8647
H121_2 H 0.6601 0.7075 0.8223
H122_2 H 0.6935 0.7115 0.8489
C67_2 C 0.9135(6) 0.7027(6) 0.9389(7)
H123_2 H 0.9041 0.6939 0.9161
H124_2 H 0.9340 0.7184 0.9345
H125_2 H 0.9210 0.6824 0.9537
C68_2 C 0.8422(6) 0.6312(6) 0.8905(8)
H126_2 H 0.8408 0.6399 0.8657
H127_2 H 0.8491 0.6510 0.9063
H128_2 H 0.8602 0.6121 0.8920
C69_2 C 0.7163(5) 0.8636(4) 0.9966(4)
H129_2 H 0.7056 0.8694 0.9742
Ag18_2 Ag 0.88046(2) 0.80018(3) 0.83136(2)
Ag19_2 Ag 0.76182(2) 0.84265(3) 0.80619(2)
Ag20_2 Ag 0.76146(3) 0.53343(3) 0.96423(3)
Ag23_2 Ag 0.71423(3) 0.71657(3) 0.98854(3)
Ag24_2 Ag 0.68023(2) 0.49196(3) 0.97348(3)
Ag26_3 Ag 1.0000 0.2500 0.8750
S29_2 S 0.81316(9) 0.89701(8) 0.86383(9)
S30_2 S 0.71805(9) 0.58536(8) 0.95209(8)
S33_2 S 0.98684(9) 0.17489(8) 0.95056(9)
S36_2 S 0.82803(9) 0.74200(8) 0.78058(9)
H135_2 H 0.754589 0.361375 0.982425
H136_2 H 0.843131 0.272828 0.980294
H139_2 H 0.906869 0.730294 0.977172
H140_2 H 0.732425 0.888625 0.995411
S5_3 S 0.42197(9) 0.03058(9) 0.00800(8)
S6_3 S 0.34575(9) 0.06325(9) 0.01071(9)
N1_3 N 0.3791(3) 0.0275(3) 0.0653(3)
N2_4 N 0.2500 0.0920(4) 0.0000
C1_3 C 0.4071(4) 0.0102(5) 0.0851(4)
H1_3 H 0.4051 0.0170 0.1107
H2_3 H 0.4306 0.0186 0.0762
C3_3 C 0.3816(3) 0.0395(3) 0.0306(3)
C8_3 C 0.3417(5) 0.0691(6) 0.1059(5)
H10_3 H 0.3591 0.0700 0.1256
H11_3 H 0.3175 0.0721 0.1155
H12_3 H 0.3468 0.0885 0.0889
C11_3 C 0.3446(4) 0.0326(5) 0.0866(4)
H15_3 H 0.3428 0.0132 0.1047
H16_3 H 0.3239 0.0301 0.0701
C15_4 C 0.2500 0.0554(5) 0.0000
S8_3 S 0.24484(8) 0.03277(8) 0.04175(8)
C19_3 C 0.2534(4) 0.1136(4) 0.0337(5)
H34_3 H 0.2758 0.1194 0.0444
C20_3 C 0.2197(5) 0.1245(5) 0.0482(5)
H35_3 H 0.2063 0.1380 0.0301
H36_3 H 0.2237 0.1397 0.0693
H37_3 H 0.2059 0.1032 0.0553
Ag8_3 Ag 0.46423(3) 0.26146(3) 0.03343(3)
S9_3 S 0.41502(9) 0.14740(9) 0.01489(9)
S11_3 S 0.45209(8) 0.21805(9) 0.08536(8)
S12_3 S 0.51316(9) 0.17489(8) 0.04944(9)
N7_3 N 0.4724(4) 0.1510(3) 0.1034(3)
C26_3 C 0.3630(4) 0.2067(5) 0.0283(5)
H45_3 H 0.3777 0.2250 0.0380
C28_3 C 0.4784(3) 0.1799(3) 0.0807(4)
C29_3 C 0.4978(5) 0.1157(4) 0.1060(4)
H49_3 H 0.5229 0.1215 0.0997
H50_3 H 0.4971 0.1051 0.1303
C31_3 C 0.4459(6) 0.1525(5) 0.1340(5)
H53_3 H 0.4445 0.1772 0.1437
H54_3 H 0.4535 0.1362 0.1535
C32_3 C 0.4820(7) 0.0923(6) 0.0802(6)
H55_3 H 0.4993 0.0875 0.0610
H56_3 H 0.4605 0.1035 0.0701
H57_3 H 0.4754 0.0697 0.0918
C33_3 C 0.5816(5) 0.0949(6) 0.0320(5)
H58_3 H 0.5963 0.1147 0.0411
H59_3 H 0.5899 0.0723 0.0425
H60_3 H 0.5565 0.0989 0.0385
C34_3 C 0.3365(6) 0.1889(7) 0.0473(6)
H61_3 H 0.3459 0.1661 0.0561
H62_3 H 0.3160 0.1845 0.0316
H63_3 H 0.3290 0.2037 0.0676
C35_3 C 0.4078(6) 0.1405(8) 0.1188(6)
H64_3 H 0.4092 0.1157 0.1101
H65_3 H 0.4009 0.1563 0.0990
H66_3 H 0.3898 0.1420 0.1379
Ag21_3 Ag 0.53577(3) 0.23854(3) 0.03343(3)
Ag24_3 Ag 0.18023(2) 0.00804(3) 0.02652(3)
Ag26_4 Ag 0.5000 0.2500 0.1250
S33_3 S 0.48684(9) 0.32511(8) 0.04944(9)
H135_3 H 0.254589 0.138625 0.0175749
H136_3 H 0.343131 0.227172 0.0197061
Ag1_3 Ag 0.36954(2) 0.08136(2) 0.94982(3)
Ag2_3 Ag 0.40735(3) 0.01182(2) 0.94381(2)
Ag4_3 Ag 0.31977(2) 0.00804(3) 0.97348(3)
S2_3 S 0.35299(8) 0.06316(9) 0.88617(9)
S7_3 S 0.25516(8) 0.03277(8) 0.95825(8)
N2_5 N 0.2500 0.0920(4) 1.0000
N3_3 N 0.3073(3) 0.0116(4) 0.8659(3)
C2_3 C 0.2899(4) 0.0389(5) 0.8410(4)
H3_3 H 0.3084 0.0562 0.8332
H4_3 H 0.2812 0.0262 0.8194
C4_3 C 0.2600(5) 0.0590(7) 0.8565(5)
H5_3 H 0.2693 0.0786 0.8713
H6_3 H 0.2455 0.0429 0.8715
H7_3 H 0.2451 0.0688 0.8373
C5_3 C 0.2466(4) 0.1136(4) 0.9663(5)
H8_3 H 0.2242 0.1194 0.9556
C6_3 C 0.3354(3) 0.0189(4) 0.8873(3)
C12_3 C 0.2803(5) 0.1245(5) 0.9518(5)
H17_3 H 0.2937 0.1380 0.9699
H18_3 H 0.2763 0.1397 0.9307
H19_3 H 0.2941 0.1032 0.9447
C15_5 C 0.2500 0.0554(5) 1.0000
Ag6_3 Ag 0.44982(3) 0.13046(2) 0.91864(2)
Ag7_3 Ag 0.44381(2) 0.09265(3) 0.98818(2)
Ag9_3 Ag 0.47348(3) 0.18023(2) 0.99196(3)
S10_3 S 0.38617(9) 0.14701(8) 0.93684(9)
S13_3 S 0.50800(8) 0.07803(9) 0.96942(9)
S14_3 S 0.51071(9) 0.15425(9) 0.93675(9)
N5_3 N 0.5653(3) 0.1209(3) 0.9725(3)
N6_3 N 0.3659(3) 0.1927(3) 0.9884(4)
C21_3 C 0.5851(4) 0.0929(4) 0.9898(5)
H38_3 H 0.6107 0.0949 0.9830
H39_3 H 0.5762 0.0694 0.9814
C22_3 C 0.3410(4) 0.2101(4) 0.9611(5)
H40_3 H 0.3332 0.1916 0.9438
H41_3 H 0.3194 0.2188 0.9738
C23_3 C 0.5306(3) 0.1184(3) 0.9605(3)
C24_3 C 0.3565(5) 0.2400(5) 0.9410(7)
H42_3 H 0.3713 0.2307 0.9214
H43_3 H 0.3715 0.2545 0.9571
H44_3 H 0.3373 0.2549 0.9312
C25_3 C 0.3873(3) 0.1646(3) 0.9811(4)
C27_3 C 0.6059(5) 0.1583(5) 0.9309(6)
H46_3 H 0.6256 0.1409 0.9300
H47_3 H 0.6155 0.1825 0.9279
H48_3 H 0.5889 0.1532 0.9115
C30_3 C 0.5866(4) 0.1554(4) 0.9674(5)
H51_3 H 0.6047 0.1572 0.9868
H52_3 H 0.5701 0.1761 0.9699
Ag10_3 Ag 0.41864(2) 0.05018(3) 0.86954(2)
Ag11_3 Ag 0.48818(2) 0.05619(2) 0.90735(3)
Ag12_3 Ag 0.53343(3) 0.03577(3) 0.73854(3)
Ag13_3 Ag 0.49196(3) 0.02652(3) 0.81977(2)
S15_3 S 0.51489(9) 0.08498(9) 0.85260(9)
S16_3 S 0.43684(9) 0.11383(9) 0.85299(8)
S17_3 S 0.58536(8) 0.04791(8) 0.78195(9)
N9_3 N 0.4884(4) 0.1341(3) 0.8073(3)
C37_3 C 0.4611(5) 0.1590(4) 0.7899(4)
H69_3 H 0.4438 0.1668 0.8084
H70_3 H 0.4738 0.1806 0.7812
N10_3 N 0.6034(3) 0.0276(4) 0.8490(3)
C39_3 C 0.4410(7) 0.1435(5) 0.7600(5)
H71_3 H 0.4214 0.1287 0.7693
H72_3 H 0.4571 0.1285 0.7455
H73_3 H 0.4312 0.1627 0.7451
C40_3 C 0.4811(4) 0.1127(3) 0.8354(3)
C41_3 C 0.5283(5) 0.1370(4) 0.7933(5)
H74_3 H 0.5380 0.1223 0.7750
C43_3 C 0.5807(4) 0.0216(3) 0.8201(3)
C44_3 C 0.6060(4) 0.0022(5) 0.8843(4)
H79_3 H 0.6303 0.0029 0.8949
C46_3 C 0.6340(5) 0.0541(6) 0.8475(5)
H82_3 H 0.6437 0.0555 0.8228
H83_3 H 0.6535 0.0465 0.8638
C47_3 C 0.5802(6) 0.0180(7) 0.9077(6)
H84_3 H 0.5610 0.0007 0.9125
H85_3 H 0.5701 0.0395 0.8965
H86_3 H 0.5918 0.0246 0.9303
C49_3 C 0.5473(6) 0.1635(6) 0.8111(7)
H90_3 H 0.5561 0.1541 0.8339
H91_3 H 0.5316 0.1840 0.8155
H92_3 H 0.5676 0.1710 0.7963
C50_3 C 0.6188(6) 0.0922(6) 0.8595(8)
H93_3 H 0.6101 0.0908 0.8843
H94_3 H 0.5990 0.0991 0.8437
H95_3 H 0.6379 0.1102 0.8580
Ag27_3 Ag 0.6250 -0.0000 0.7500
S34_3 S 0.54944(9) 0.01316(9) 0.67489(8)
S37_3 S 0.45825(8) 0.24484(8) 0.96723(8)
S38_3 S 0.46723(8) 0.04175(8) 0.75516(8)
H133_3 H 0.245411 0.138625 0.982425
H137_3 H 0.519706 0.156869 0.772828
Ag5_4 Ag 0.2500 0.8750 0.0000
S4_3 S 0.32511(8) 0.95056(9) 0.01316(9)
H13_3 H 0.3785 0.9003 0.0229
C16_3 C 0.4051(6) 0.9680(5) 0.0816(5)
H25_3 H 0.3853 0.9589 0.0963
H26_3 H 0.4277 0.9575 0.0899
H27_3 H 0.4011 0.9615 0.0565
Ag14_3 Ag 0.30018(3) 0.66864(2) 0.11954(2)
Ag15_3 Ag 0.30619(2) 0.73818(2) 0.15735(3)
Ag17_3 Ag 0.27652(3) 0.74196(3) 0.06977(2)
S21_3 S 0.33498(9) 0.76489(9) 0.10260(9)
S22_3 S 0.36383(9) 0.68684(9) 0.10299(8)
S23_3 S 0.29791(8) 0.83536(8) 0.03195(9)
S24_3 S 0.23684(9) 0.79944(9) 0.07511(8)
S25_3 S 0.24200(8) 0.71942(9) 0.17197(9)
S26_3 S 0.23929(9) 0.68675(9) 0.09575(9)
S27_3 S 0.29175(8) 0.71723(8) 0.00516(8)
N11_3 N 0.1847(3) 0.7225(3) 0.1291(3)
N12_4 N 0.2500 0.6580(4) 0.0000
N13_3 N 0.3841(3) 0.7384(4) 0.0573(3)
C51_3 C 0.1649(4) 0.7398(5) 0.1571(4)
H96_3 H 0.1393 0.7330 0.1551
H97_3 H 0.1738 0.7314 0.1806
C52_3 C 0.4090(4) 0.7111(5) 0.0399(4)
H98_3 H 0.4168 0.6938 0.0584
H99_3 H 0.4306 0.7238 0.0312
N14_3 N 0.2776(4) 0.8534(3) 0.0990(3)
C53_3 C 0.2194(3) 0.7105(3) 0.1316(3)
C54_3 C 0.3935(5) 0.6910(7) 0.0100(5)
H100_3 H 0.3787 0.6714 0.0193
C56_3 C 0.3627(3) 0.7311(4) 0.0854(3)
C57_3 C 0.3870(4) 0.7783(5) 0.0433(5)
H104_3 H 0.3723 0.7880 0.0250
C58_3 C 0.1441(5) 0.6809(6) 0.0917(5)
H105_3 H 0.1244 0.6800 0.1091
H106_3 H 0.1345 0.6779 0.0675
H107_3 H 0.1611 0.6615 0.0968
C59_3 C 0.2716(3) 0.8307(4) 0.0701(3)
C60_3 C 0.2522(5) 0.8560(4) 0.1343(4)
H108_3 H 0.2271 0.8497 0.1285
H109_3 H 0.2529 0.8803 0.1449
C61_3 C 0.1634(4) 0.7174(5) 0.0946(4)
H110_3 H 0.1453 0.7368 0.0928
H111_3 H 0.1799 0.7199 0.0739
C62_3 C 0.2982(5) 0.6255(5) 0.0303(5)
H112_3 H 0.2801 0.6120 0.0437
H113_3 H 0.3193 0.6103 0.0263
H114_3 H 0.3053 0.6468 0.0441
C63_3 C 0.3041(6) 0.8840(5) 0.0975(5)
H115_3 H 0.3055 0.8937 0.0728
H116_3 H 0.2965 0.9035 0.1138
C64_3 C 0.2680(7) 0.8302(6) 0.1577(6)
H117_3 H 0.2507 0.8110 0.1625
H118_3 H 0.2895 0.8201 0.1465
H119_3 H 0.2746 0.8418 0.1803
C65_4 C 0.2500 0.6946(5) 0.0000
C66_3 C 0.1684(5) 0.7820(5) 0.1551(6)
H120_3 H 0.1537 0.7911 0.1353
H121_3 H 0.1601 0.7925 0.1777
H122_3 H 0.1935 0.7885 0.1511
C67_3 C 0.4135(6) 0.7973(6) 0.0611(7)
H123_3 H 0.4041 0.8061 0.0839
H124_3 H 0.4340 0.7816 0.0655
H125_3 H 0.4210 0.8176 0.0463
C68_3 C 0.3422(6) 0.8688(6) 0.1095(8)
H126_3 H 0.3408 0.8601 0.1343
H127_3 H 0.3491 0.8490 0.0937
H128_3 H 0.3602 0.8879 0.1080
C69_3 C 0.2163(5) 0.6364(4) 0.0034(4)
H129_3 H 0.2056 0.6306 0.0258
Ag18_3 Ag 0.38046(2) 0.69982(3) 0.16864(2)
Ag19_3 Ag 0.26182(2) 0.65735(3) 0.19381(2)
Ag20_3 Ag 0.26146(3) 0.96657(3) 0.03577(3)
Ag23_3 Ag 0.21423(3) 0.78343(3) 0.01146(3)
S29_3 S 0.31316(9) 0.60299(8) 0.13617(9)
S30_3 S 0.21805(9) 0.91464(8) 0.04791(8)
S36_3 S 0.32803(9) 0.75800(8) 0.21942(9)
H139_3 H 0.406869 0.769706 0.0228282
H140_3 H 0.232425 0.611375 0.00458947
Ag3_3 Ag 0.23854(3) 0.96657(3) 0.96423(3)
Ag5_5 Ag 0.2500 0.8750 1.0000
S1_3 S 0.35260(9) 0.98511(9) 0.91502(9)
S3_3 S 0.28195(9) 0.91464(8) 0.95209(8)
N4_3 N 0.3490(3) 0.8966(3) 0.9724(4)
C7_3 C 0.2933(5) 0.9717(5) 0.8630(4)
H9_3 H 0.2750 0.9620 0.8777
C9_3 C 0.3201(3) 0.9193(4) 0.9784(3)
C10_3 C 0.3843(4) 0.8940(4) 0.9978(5)
H14_3 H 0.3949 0.8697 0.9971
C13_3 C 0.3475(5) 0.8660(5) 0.9459(6)
H20_3 H 0.3228 0.8563 0.9445
H21_3 H 0.3638 0.8465 0.9535
C14_3 C 0.4077(6) 0.9198(6) 0.9820(7)
H22_3 H 0.4125 0.9390 0.9993
H23_3 H 0.3965 0.9299 0.9605
H24_3 H 0.4303 0.9082 0.9754
C17_3 C 0.3111(7) 0.9527(6) 0.8365(6)
H28_3 H 0.3339 0.9439 0.8459
H29_3 H 0.3155 0.9684 0.8160
H30_3 H 0.2963 0.9324 0.8290
C18_3 C 0.3595(8) 0.8812(6) 0.9078(6)
H31_3 H 0.3843 0.8899 0.9092
H32_3 H 0.3437 0.9010 0.9009
H33_3 H 0.3580 0.8621 0.8898
S18_3 S 0.54944(9) 0.98684(9) 0.82511(8)
S19_3 S 0.46942(9) 0.99200(8) 0.92197(9)
S20_3 S 0.43675(9) 0.98929(9) 0.84575(9)
N8_3 N 0.4725(3) 0.9347(3) 0.8791(3)
C36_3 C 0.4898(5) 0.9149(4) 0.9071(4)
H67_3 H 0.4830 0.8893 0.9051
H68_3 H 0.4814 0.9238 0.9306
C38_3 C 0.4605(3) 0.9694(3) 0.8816(3)
C42_3 C 0.4309(6) 0.8941(5) 0.8417(5)
H75_3 H 0.4300 0.8744 0.8591
H76_3 H 0.4279 0.8845 0.8175
H77_3 H 0.4115 0.9111 0.8468
H78_3 H 0.5997 0.9771 0.8785
C45_3 C 0.4674(5) 0.9134(4) 0.8446(4)
H80_3 H 0.4868 0.8953 0.8428
H81_3 H 0.4699 0.9299 0.8239
C48_3 C 0.5320(5) 0.9184(5) 0.9051(6)
H87_3 H 0.5411 0.9037 0.8853
H88_3 H 0.5425 0.9101 0.9277
H89_3 H 0.5385 0.9435 0.9011
Ag16_3 Ag 0.28577(3) 0.78343(3) 0.98854(3)
N12_5 N 0.2500 0.6580(4) 1.0000
H101_3 H 0.3785 0.7071 0.9955
H102_3 H 0.4127 0.6812 0.9951
C55_3 C 0.2837(5) 0.6364(4) 0.9966(4)
H103_3 H 0.2944 0.6306 0.9742
C65_5 C 0.2500 0.6946(5) 1.0000
S28_3 S 0.20825(8) 0.71723(8) 0.99484(8)
C70_3 C 0.2018(5) 0.6255(5) 0.9697(5)
H130_3 H 0.2199 0.6120 0.9563
H131_3 H 0.1807 0.6103 0.9737
H132_3 H 0.1947 0.6468 0.9559
Ag22_3 Ag 0.53343(3) 0.96423(3) 0.76146(3)
Ag25_3 Ag 0.22348(3) 0.74196(3) 0.93023(2)
Ag27_4 Ag 0.6250 1.0000 0.7500
S31_3 S 0.20209(8) 0.83536(8) 0.96805(9)
S32_3 S 0.17489(8) 0.95056(9) 0.98684(9)
S35_3 S 0.26316(9) 0.79944(9) 0.92489(8)
H134_3 H 0.272828 0.980294 0.843131
H138_3 H 0.267575 0.611375 0.995411
Ag3_4 Ag 0.26146(3) 0.03343(3) 0.46423(3)
Ag5_6 Ag 0.2500 0.1250 0.5000
S1_4 S 0.14740(9) 0.01489(9) 0.41502(9)
S3_4 S 0.21805(9) 0.08536(8) 0.45209(8)
S4_4 S 0.17489(8) 0.04944(9) 0.51316(9)
N4_4 N 0.1510(3) 0.1034(3) 0.4724(4)
C7_4 C 0.2067(5) 0.0283(5) 0.3630(4)
H9_4 H 0.2250 0.0380 0.3777
C9_4 C 0.1799(3) 0.0807(4) 0.4784(3)
C10_4 C 0.1157(4) 0.1060(4) 0.4978(5)
H13_4 H 0.1215 0.0997 0.5229
H14_4 H 0.1051 0.1303 0.4971
C13_4 C 0.1525(5) 0.1340(5) 0.4459(6)
H20_4 H 0.1772 0.1437 0.4445
H21_4 H 0.1362 0.1535 0.4535
C14_4 C 0.0923(6) 0.0802(6) 0.4820(7)
H22_4 H 0.0875 0.0610 0.4993
H23_4 H 0.1035 0.0701 0.4605
H24_4 H 0.0697 0.0918 0.4754
C16_4 C 0.0949(6) 0.0320(5) 0.5816(5)
H25_4 H 0.1147 0.0411 0.5963
H26_4 H 0.0723 0.0425 0.5899
H27_4 H 0.0989 0.0385 0.5565
C17_4 C 0.1889(7) 0.0473(6) 0.3365(6)
H28_4 H 0.1661 0.0561 0.3459
H29_4 H 0.1845 0.0316 0.3160
H30_4 H 0.2037 0.0676 0.3290
C18_4 C 0.1405(8) 0.1188(6) 0.4078(6)
H31_4 H 0.1157 0.1101 0.4092
H32_4 H 0.1563 0.0990 0.4009
H33_4 H 0.1420 0.1379 0.3898
S19_4 S 0.03058(9) 0.00800(8) 0.42197(9)
S20_4 S 0.06325(9) 0.01071(9) 0.34575(9)
N8_4 N 0.0275(3) 0.0653(3) 0.3791(3)
C36_4 C 0.0102(5) 0.0851(4) 0.4071(4)
H67_4 H 0.0170 0.1107 0.4051
H68_4 H 0.0186 0.0762 0.4306
C38_4 C 0.0395(3) 0.0306(3) 0.3816(3)
C42_4 C 0.0691(6) 0.1059(5) 0.3417(5)
H75_4 H 0.0700 0.1256 0.3591
H76_4 H 0.0721 0.1155 0.3175
H77_4 H 0.0885 0.0889 0.3468
C45_4 C 0.0326(5) 0.0866(4) 0.3446(4)
H80_4 H 0.0132 0.1047 0.3428
H81_4 H 0.0301 0.0701 0.3239
Ag14_4 Ag 0.19982(3) 0.33136(2) 0.61954(2)
Ag15_4 Ag 0.19381(2) 0.26182(2) 0.65735(3)
Ag16_4 Ag 0.21423(3) 0.21657(3) 0.48854(3)
Ag17_4 Ag 0.22348(3) 0.25804(3) 0.56977(2)
S21_4 S 0.16502(9) 0.23511(9) 0.60260(9)
S22_4 S 0.13617(9) 0.31316(9) 0.60299(8)
S23_4 S 0.20209(8) 0.16464(8) 0.53195(9)
S24_4 S 0.26316(9) 0.20056(9) 0.57511(8)
S25_4 S 0.25800(8) 0.28058(9) 0.67197(9)
S26_4 S 0.26071(9) 0.31325(9) 0.59575(9)
S27_4 S 0.20825(8) 0.28277(8) 0.50516(8)
N11_4 N 0.3153(3) 0.2775(3) 0.6291(3)
N12_6 N 0.2500 0.3420(4) 0.5000
N13_4 N 0.1159(3) 0.2616(4) 0.5573(3)
C51_4 C 0.3351(4) 0.2602(5) 0.6571(4)
H96_4 H 0.3607 0.2670 0.6551
H97_4 H 0.3262 0.2686 0.6806
C52_4 C 0.0910(4) 0.2889(5) 0.5399(4)
H98_4 H 0.0832 0.3062 0.5584
H99_4 H 0.0694 0.2762 0.5312
N14_4 N 0.2224(4) 0.1466(3) 0.5990(3)
C53_4 C 0.2806(3) 0.2895(3) 0.6316(3)
C54_4 C 0.1065(5) 0.3090(7) 0.5100(5)
H100_4 H 0.1213 0.3286 0.5193
H101_4 H 0.1215 0.2929 0.4955
H102_4 H 0.0873 0.3188 0.4951
C55_4 C 0.2163(5) 0.3636(4) 0.4966(4)
H103_4 H 0.2056 0.3694 0.4742
C56_4 C 0.1373(3) 0.2689(4) 0.5854(3)
C57_4 C 0.1130(4) 0.2217(5) 0.5433(5)
H104_4 H 0.1277 0.2120 0.5250
C58_4 C 0.3559(5) 0.3191(6) 0.5917(5)
H105_4 H 0.3756 0.3200 0.6091
H106_4 H 0.3655 0.3221 0.5675
H107_4 H 0.3389 0.3385 0.5968
C59_4 C 0.2284(3) 0.1693(4) 0.5701(3)
C60_4 C 0.2478(5) 0.1440(4) 0.6343(4)
H108_4 H 0.2729 0.1503 0.6285
H109_4 H 0.2471 0.1197 0.6449
C61_4 C 0.3366(4) 0.2826(5) 0.5946(4)
H110_4 H 0.3547 0.2632 0.5928
H111_4 H 0.3201 0.2801 0.5739
C62_4 C 0.2018(5) 0.3745(5) 0.5303(5)
H112_4 H 0.2199 0.3880 0.5437
H113_4 H 0.1807 0.3897 0.5263
H114_4 H 0.1947 0.3532 0.5441
C63_4 C 0.1959(6) 0.1160(5) 0.5975(5)
H115_4 H 0.1945 0.1063 0.5728
H116_4 H 0.2035 0.0965 0.6138
C64_4 C 0.2320(7) 0.1698(6) 0.6577(6)
H117_4 H 0.2493 0.1890 0.6625
H118_4 H 0.2105 0.1799 0.6465
H119_4 H 0.2254 0.1582 0.6803
C65_6 C 0.2500 0.3054(5) 0.5000
C66_4 C 0.3316(5) 0.2180(5) 0.6551(6)
H120_4 H 0.3463 0.2089 0.6353
H121_4 H 0.3399 0.2075 0.6777
H122_4 H 0.3065 0.2115 0.6511
C67_4 C 0.0865(6) 0.2027(6) 0.5611(7)
H123_4 H 0.0959 0.1939 0.5839
H124_4 H 0.0660 0.2184 0.5655
H125_4 H 0.0790 0.1824 0.5463
C68_4 C 0.1578(6) 0.1312(6) 0.6095(8)
H126_4 H 0.1592 0.1399 0.6343
H127_4 H 0.1509 0.1510 0.5937
H128_4 H 0.1398 0.1121 0.6080
S28_4 S 0.29175(8) 0.28277(8) 0.49484(8)
C69_4 C 0.2837(5) 0.3636(4) 0.5034(4)
H129_4 H 0.2944 0.3694 0.5258
C70_4 C 0.2982(5) 0.3745(5) 0.4697(5)
H130_4 H 0.2801 0.3880 0.4563
H131_4 H 0.3193 0.3897 0.4737
H132_4 H 0.3053 0.3532 0.4559
Ag18_4 Ag 0.11954(2) 0.30018(3) 0.66864(2)
Ag19_4 Ag 0.23818(2) 0.34265(3) 0.69381(2)
Ag20_4 Ag 0.23854(3) 0.03343(3) 0.53577(3)
Ag23_4 Ag 0.28577(3) 0.21657(3) 0.51146(3)
Ag25_4 Ag 0.27652(3) 0.25804(3) 0.43023(2)
S29_4 S 0.18684(9) 0.39701(8) 0.63617(9)
S30_4 S 0.28195(9) 0.08536(8) 0.54791(8)
S31_4 S 0.29791(8) 0.16464(8) 0.46805(9)
S32_4 S 0.32511(8) 0.04944(9) 0.48684(9)
S35_4 S 0.23684(9) 0.20056(9) 0.42489(8)
S36_4 S 0.17197(9) 0.24200(8) 0.71942(9)
H134_4 H 0.227172 0.0197061 0.343131
H138_4 H 0.232425 0.388625 0.495411
H139_4 H 0.0931314 0.230294 0.522828
H140_4 H 0.267575 0.388625 0.504589
Ag1_4 Ag 0.13046(2) 0.91864(2) 0.44982(3)
Ag2_4 Ag 0.09265(3) 0.98818(2) 0.44381(2)
Ag4_4 Ag 0.18023(2) 0.99196(3) 0.47348(3)
S2_4 S 0.14701(8) 0.93684(9) 0.38617(9)
S5_4 S 0.07803(9) 0.96942(9) 0.50800(8)
S6_4 S 0.15425(9) 0.93675(9) 0.51071(9)
S7_4 S 0.24484(8) 0.96723(8) 0.45825(8)
N1_4 N 0.1209(3) 0.9725(3) 0.5653(3)
N2_6 N 0.2500 0.9080(4) 0.5000
N3_4 N 0.1927(3) 0.9884(4) 0.3659(3)
C1_4 C 0.0929(4) 0.9898(5) 0.5851(4)
H1_4 H 0.0949 0.9830 0.6107
H2_4 H 0.0694 0.9814 0.5762
C2_4 C 0.2101(4) 0.9611(5) 0.3410(4)
H3_4 H 0.1916 0.9438 0.3332
H4_4 H 0.2188 0.9738 0.3194
C3_4 C 0.1184(3) 0.9605(3) 0.5306(3)
C4_4 C 0.2400(5) 0.9410(7) 0.3565(5)
H5_4 H 0.2307 0.9214 0.3713
H6_4 H 0.2545 0.9571 0.3715
H7_4 H 0.2549 0.9312 0.3373
C5_4 C 0.2534(4) 0.8864(4) 0.4663(5)
H8_4 H 0.2758 0.8806 0.4556
C6_4 C 0.1646(3) 0.9811(4) 0.3873(3)
C8_4 C 0.1583(5) 0.9309(6) 0.6059(5)
H10_4 H 0.1409 0.9300 0.6256
H11_4 H 0.1825 0.9279 0.6155
H12_4 H 0.1532 0.9115 0.5889
C11_4 C 0.1554(4) 0.9674(5) 0.5866(4)
H15_4 H 0.1572 0.9868 0.6047
H16_4 H 0.1761 0.9699 0.5701
C12_4 C 0.2197(5) 0.8755(5) 0.4518(5)
H17_4 H 0.2063 0.8620 0.4699
H18_4 H 0.2237 0.8603 0.4307
H19_4 H 0.2059 0.8968 0.4447
C15_6 C 0.2500 0.9446(5) 0.5000
S8_4 S 0.25516(8) 0.96723(8) 0.54175(8)
C19_4 C 0.2466(4) 0.8864(4) 0.5337(5)
H34_4 H 0.2242 0.8806 0.5444
C20_4 C 0.2803(5) 0.8755(5) 0.5482(5)
H35_4 H 0.2937 0.8620 0.5301
H36_4 H 0.2763 0.8603 0.5693
H37_4 H 0.2941 0.8968 0.5553
Ag6_4 Ag 0.05018(3) 0.86954(2) 0.41864(2)
Ag7_4 Ag 0.05619(2) 0.90735(3) 0.48818(2)
Ag8_4 Ag 0.03577(3) 0.73854(3) 0.53343(3)
Ag9_4 Ag 0.02652(3) 0.81977(2) 0.49196(3)
S9_4 S 0.08498(9) 0.85260(9) 0.51489(9)
S10_4 S 0.11383(9) 0.85299(8) 0.43684(9)
S11_4 S 0.04791(8) 0.78195(9) 0.58536(8)
N6_4 N 0.1341(3) 0.8073(3) 0.4884(4)
C22_4 C 0.1590(4) 0.7899(4) 0.4611(5)
H40_4 H 0.1668 0.8084 0.4438
H41_4 H 0.1806 0.7812 0.4738
N7_4 N 0.0276(4) 0.8490(3) 0.6034(3)
C24_4 C 0.1435(5) 0.7600(5) 0.4410(7)
H42_4 H 0.1287 0.7693 0.4214
H43_4 H 0.1285 0.7455 0.4571
H44_4 H 0.1627 0.7451 0.4312
C25_4 C 0.1127(3) 0.8354(3) 0.4811(4)
C26_4 C 0.1370(4) 0.7933(5) 0.5283(5)
H45_4 H 0.1223 0.7750 0.5380
C28_4 C 0.0216(3) 0.8201(3) 0.5807(4)
C29_4 C 0.0022(5) 0.8843(4) 0.6060(4)
H50_4 H 0.0029 0.8949 0.6303
C31_4 C 0.0541(6) 0.8475(5) 0.6340(5)
H53_4 H 0.0555 0.8228 0.6437
H54_4 H 0.0465 0.8638 0.6535
C32_4 C 0.0180(7) 0.9077(6) 0.5802(6)
H55_4 H 0.0007 0.9125 0.5610
H56_4 H 0.0395 0.8965 0.5701
H57_4 H 0.0246 0.9303 0.5918
C34_4 C 0.1635(6) 0.8111(7) 0.5473(6)
H61_4 H 0.1541 0.8339 0.5561
H62_4 H 0.1840 0.8155 0.5316
H63_4 H 0.1710 0.7963 0.5676
C35_4 C 0.0922(6) 0.8595(8) 0.6188(6)
H64_4 H 0.0908 0.8843 0.6101
H65_4 H 0.0991 0.8437 0.5990
H66_4 H 0.1102 0.8580 0.6379
Ag10_4 Ag 0.08136(2) 0.94982(3) 0.36954(2)
Ag11_4 Ag 0.01182(2) 0.94381(2) 0.40735(3)
Ag13_4 Ag 0.00804(3) 0.97348(3) 0.31977(2)
S16_4 S 0.06316(9) 0.88617(9) 0.35299(8)
N9_4 N 0.0116(4) 0.8659(3) 0.3073(3)
C37_4 C 0.0389(5) 0.8410(4) 0.2899(4)
H69_4 H 0.0562 0.8332 0.3084
H70_4 H 0.0262 0.8194 0.2812
C39_4 C 0.0590(7) 0.8565(5) 0.2600(5)
H71_4 H 0.0786 0.8713 0.2693
H72_4 H 0.0429 0.8715 0.2455
H73_4 H 0.0688 0.8373 0.2451
C40_4 C 0.0189(4) 0.8873(3) 0.3354(3)
Ag24_4 Ag 0.31977(2) 0.99196(3) 0.52652(3)
Ag26_5 Ag -0.0000 0.7500 0.6250
S33_4 S 0.01316(9) 0.67489(8) 0.54944(9)
S37_4 S 0.04175(8) 0.75516(8) 0.46723(8)
S38_4 S 0.03277(8) 0.95825(8) 0.25516(8)
H133_4 H 0.254589 0.861375 0.482425
H135_4 H 0.245411 0.861375 0.517575
H136_4 H 0.156869 0.772828 0.519706
S18_4 S 0.95056(9) 0.01316(9) 0.32511(8)
H78_4 H 0.9003 0.0229 0.3785
C48_4 C 0.9680(5) 0.0816(5) 0.4051(6)
H87_4 H 0.9589 0.0963 0.3853
H88_4 H 0.9575 0.0899 0.4277
H89_4 H 0.9615 0.0565 0.4011
Ag22_4 Ag 0.96657(3) 0.03577(3) 0.26146(3)
Ag27_5 Ag 0.8750 0.0000 0.2500
S12_4 S 0.98684(9) 0.82511(8) 0.54944(9)
S13_4 S 0.99200(8) 0.92197(9) 0.46942(9)
S14_4 S 0.98929(9) 0.84575(9) 0.43675(9)
N5_4 N 0.9347(3) 0.8791(3) 0.4725(3)
C21_4 C 0.9149(4) 0.9071(4) 0.4898(5)
H38_4 H 0.8893 0.9051 0.4830
H39_4 H 0.9238 0.9306 0.4814
C23_4 C 0.9694(3) 0.8816(3) 0.4605(3)
C27_4 C 0.8941(5) 0.8417(5) 0.4309(6)
H46_4 H 0.8744 0.8591 0.4300
H47_4 H 0.8845 0.8175 0.4279
H48_4 H 0.9111 0.8468 0.4115
H49_4 H 0.9771 0.8785 0.5997
C30_4 C 0.9134(4) 0.8446(4) 0.4674(5)
H51_4 H 0.8953 0.8428 0.4868
H52_4 H 0.9299 0.8239 0.4699
C33_4 C 0.9184(5) 0.9051(6) 0.5320(5)
H58_4 H 0.9037 0.8853 0.5411
H59_4 H 0.9101 0.9277 0.5425
H60_4 H 0.9435 0.9011 0.5385
Ag12_4 Ag 0.96657(3) 0.96423(3) 0.23854(3)
S15_4 S 0.98511(9) 0.91502(9) 0.35260(9)
S17_4 S 0.91464(8) 0.95209(8) 0.28195(9)
N10_4 N 0.8966(3) 0.9724(4) 0.3490(3)
C41_4 C 0.9717(5) 0.8630(4) 0.2933(5)
H74_4 H 0.9620 0.8777 0.2750
C43_4 C 0.9193(4) 0.9784(3) 0.3201(3)
C44_4 C 0.8940(4) 0.9978(5) 0.3843(4)
H79_4 H 0.8697 0.9971 0.3949
C46_4 C 0.8660(5) 0.9459(6) 0.3475(5)
H82_4 H 0.8563 0.9445 0.3228
H83_4 H 0.8465 0.9535 0.3638
C47_4 C 0.9198(6) 0.9820(7) 0.4077(6)
H84_4 H 0.9390 0.9993 0.4125
H85_4 H 0.9299 0.9605 0.3965
H86_4 H 0.9082 0.9754 0.4303
C49_4 C 0.9527(6) 0.8365(6) 0.3111(7)
H90_4 H 0.9439 0.8459 0.3339
H91_4 H 0.9684 0.8160 0.3155
H92_4 H 0.9324 0.8290 0.2963
C50_4 C 0.8812(6) 0.9078(6) 0.3595(8)
H93_4 H 0.8899 0.9092 0.3843
H94_4 H 0.9010 0.9009 0.3437
H95_4 H 0.8621 0.8898 0.3580
Ag21_4 Ag 0.96423(3) 0.76146(3) 0.53343(3)
Ag26_6 Ag 1.0000 0.7500 0.6250
Ag27_6 Ag 0.8750 1.0000 0.2500
S34_4 S 0.95056(9) 0.98684(9) 0.17489(8)
H137_4 H 0.980294 0.843131 0.272828
N2_7 N 0.5000 0.7500 0.5920(4)
C5_5 C 0.5337(5) 0.7534(4) 0.6136(4)
H8_5 H 0.5444 0.7758 0.6194
C12_5 C 0.5482(5) 0.7197(5) 0.6245(5)
H17_5 H 0.5301 0.7063 0.6380
H18_5 H 0.5693 0.7237 0.6397
H19_5 H 0.5553 0.7059 0.6032
C15_7 C 0.5000 0.7500 0.5554(5)
S8_5 S 0.45825(8) 0.75516(8) 0.53277(8)
C19_5 C 0.4663(5) 0.7466(4) 0.6136(4)
H34_5 H 0.4556 0.7242 0.6194
C20_5 C 0.4518(5) 0.7803(5) 0.6245(5)
H35_5 H 0.4699 0.7937 0.6380
H36_5 H 0.4307 0.7763 0.6397
H37_5 H 0.4447 0.7941 0.6032
Ag15_5 Ag 0.34265(3) 0.69381(2) 0.23818(2)
Ag16_5 Ag 0.51146(3) 0.71423(3) 0.28343(3)
Ag17_5 Ag 0.43023(2) 0.72348(3) 0.24196(3)
S21_5 S 0.39740(9) 0.66502(9) 0.26489(9)
S22_5 S 0.39701(8) 0.63617(9) 0.18684(9)
S23_5 S 0.46805(9) 0.70209(8) 0.33536(8)
S24_5 S 0.42489(8) 0.76316(9) 0.29944(9)
S26_5 S 0.40425(9) 0.76071(9) 0.18675(9)
S27_5 S 0.49484(8) 0.70825(8) 0.21723(8)
N11_5 N 0.3709(3) 0.8153(3) 0.2225(3)
N12_7 N 0.5000 0.7500 0.1580(4)
N13_5 N 0.4427(3) 0.6159(3) 0.2384(4)
C51_5 C 0.3429(4) 0.8351(4) 0.2398(5)
H96_5 H 0.3449 0.8607 0.2330
H97_5 H 0.3194 0.8262 0.2314
C52_5 C 0.4601(4) 0.5910(4) 0.2111(5)
H98_5 H 0.4416 0.5832 0.1938
H99_5 H 0.4688 0.5694 0.2238
N14_5 N 0.4010(3) 0.7224(4) 0.3534(3)
C53_5 C 0.3684(3) 0.7806(3) 0.2105(3)
C54_5 C 0.4900(5) 0.6065(5) 0.1910(7)
H100_5 H 0.4807 0.6213 0.1714
H101_5 H 0.5045 0.6215 0.2071
H102_5 H 0.5049 0.5873 0.1812
C55_5 C 0.5034(4) 0.7163(5) 0.1364(4)
H103_5 H 0.5258 0.7056 0.1306
C56_5 C 0.4146(3) 0.6373(3) 0.2311(4)
C57_5 C 0.4567(5) 0.6130(4) 0.2783(5)
H104_5 H 0.4750 0.6277 0.2880
C58_5 C 0.4083(5) 0.8559(5) 0.1809(6)
H105_5 H 0.3909 0.8756 0.1800
H106_5 H 0.4325 0.8655 0.1779
H107_5 H 0.4032 0.8389 0.1615
C59_5 C 0.4299(3) 0.7284(3) 0.3307(4)
C60_5 C 0.3657(4) 0.7478(5) 0.3560(4)
H108_5 H 0.3715 0.7729 0.3497
H109_5 H 0.3551 0.7471 0.3803
C61_5 C 0.4054(4) 0.8366(4) 0.2174(5)
H110_5 H 0.4072 0.8547 0.2368
H111_5 H 0.4261 0.8201 0.2199
C62_5 C 0.4697(5) 0.7018(5) 0.1255(5)
H112_5 H 0.4563 0.7199 0.1120
H113_5 H 0.4737 0.6807 0.1103
H114_5 H 0.4559 0.6947 0.1468
C63_5 C 0.4025(5) 0.6959(6) 0.3840(5)
H115_5 H 0.4272 0.6945 0.3937
H116_5 H 0.3862 0.7035 0.4035
C64_5 C 0.3423(6) 0.7320(7) 0.3302(6)
H117_5 H 0.3375 0.7493 0.3110
H118_5 H 0.3535 0.7105 0.3201
H119_5 H 0.3197 0.7254 0.3418
C65_7 C 0.5000 0.7500 0.1946(5)
C66_5 C 0.3449(6) 0.8316(5) 0.2820(5)
H120_5 H 0.3647 0.8463 0.2911
H121_5 H 0.3223 0.8399 0.2925
H122_5 H 0.3489 0.8065 0.2885
C67_5 C 0.4389(7) 0.5865(6) 0.2973(6)
H123_5 H 0.4161 0.5959 0.3061
H124_5 H 0.4345 0.5660 0.2816
H125_5 H 0.4537 0.5790 0.3176
C68_5 C 0.3905(8) 0.6578(6) 0.3688(6)
H126_5 H 0.3657 0.6592 0.3601
H127_5 H 0.4063 0.6509 0.3490
H128_5 H 0.3920 0.6398 0.3879
S28_5 S 0.50516(8) 0.79175(8) 0.21723(8)
C69_5 C 0.4966(4) 0.7837(5) 0.1364(4)
H129_5 H 0.4742 0.7944 0.1306
C70_5 C 0.5303(5) 0.7982(5) 0.1255(5)
H130_5 H 0.5437 0.7801 0.1120
H131_5 H 0.5263 0.8193 0.1103
H132_5 H 0.5441 0.8053 0.1468
Ag18_5 Ag 0.33136(2) 0.61954(2) 0.19982(3)
Ag23_5 Ag 0.48854(3) 0.78577(3) 0.28343(3)
Ag24_5 Ag 0.47348(3) 0.81977(2) 0.50804(3)
Ag25_5 Ag 0.56977(2) 0.77652(3) 0.24196(3)
S30_5 S 0.45209(8) 0.78195(9) 0.41464(8)
S31_5 S 0.53195(9) 0.79791(8) 0.33536(8)
S35_5 S 0.57511(8) 0.73684(9) 0.29944(9)
S36_5 S 0.28058(9) 0.67197(9) 0.25800(8)
H133_5 H 0.517575 0.754589 0.638625
H135_5 H 0.482425 0.745411 0.638625
H138_5 H 0.504589 0.732425 0.111375
H139_5 H 0.477172 0.593131 0.269706
H140_5 H 0.495411 0.767575 0.111375
N2_8 N -0.0000 0.7500 0.4080(4)
C5_6 C 0.0337(5) 0.7466(4) 0.3864(4)
H8_6 H 0.0444 0.7242 0.3806
C12_6 C 0.0482(5) 0.7803(5) 0.3755(5)
H17_6 H 0.0301 0.7937 0.3620
H18_6 H 0.0693 0.7763 0.3603
H19_6 H 0.0553 0.7941 0.3968
C15_8 C -0.0000 0.7500 0.4446(5)
Ag16_6 Ag 0.01146(3) 0.78577(3) 0.71657(3)
N12_8 N -0.0000 0.7500 0.8420(4)
H101_6 H 0.0045 0.8785 0.7929
H102_6 H 0.0049 0.9127 0.8188
C55_6 C 0.0034(4) 0.7837(5) 0.8636(4)
H103_6 H 0.0258 0.7944 0.8694
C65_8 C -0.0000 0.7500 0.8054(5)
S28_6 S 0.00516(8) 0.70825(8) 0.78277(8)
C70_6 C 0.0303(5) 0.7018(5) 0.8745(5)
H130_6 H 0.0437 0.7199 0.8880
H131_6 H 0.0263 0.6807 0.8897
H132_6 H 0.0441 0.6947 0.8532
Ag25_6 Ag 0.06977(2) 0.72348(3) 0.75804(3)
S31_6 S 0.03195(9) 0.70209(8) 0.66464(8)
S35_6 S 0.07511(8) 0.76316(9) 0.70056(9)
H133_6 H 0.0175749 0.745411 0.361375
H138_6 H 0.00458947 0.767575 0.888625
N2_9 N 1.0000 0.7500 0.4080(4)
C15_9 C 1.0000 0.7500 0.4446(5)
S8_6 S 0.95825(8) 0.74484(8) 0.46723(8)
C19_6 C 0.9663(5) 0.7534(4) 0.3864(4)
H34_6 H 0.9556 0.7758 0.3806
C20_6 C 0.9518(5) 0.7197(5) 0.3755(5)
H35_6 H 0.9699 0.7063 0.3620
H36_6 H 0.9307 0.7237 0.3603
H37_6 H 0.9447 0.7059 0.3968
Ag15_6 Ag 0.84265(3) 0.80619(2) 0.76182(2)
Ag17_6 Ag 0.93023(2) 0.77652(3) 0.75804(3)
S21_6 S 0.89740(9) 0.83498(9) 0.73511(9)
S22_6 S 0.89701(8) 0.86383(9) 0.81316(9)
S23_6 S 0.96805(9) 0.79791(8) 0.66464(8)
S24_6 S 0.92489(8) 0.73684(9) 0.70056(9)
S26_6 S 0.90425(9) 0.73929(9) 0.81325(9)
S27_6 S 0.99484(8) 0.79175(8) 0.78277(8)
N11_6 N 0.8709(3) 0.6847(3) 0.7775(3)
N12_9 N 1.0000 0.7500 0.8420(4)
N13_6 N 0.9427(3) 0.8841(3) 0.7616(4)
C51_6 C 0.8429(4) 0.6649(4) 0.7602(5)
H96_6 H 0.8449 0.6393 0.7670
H97_6 H 0.8194 0.6738 0.7686
C52_6 C 0.9601(4) 0.9090(4) 0.7889(5)
H98_6 H 0.9416 0.9168 0.8062
H99_6 H 0.9688 0.9306 0.7762
N14_6 N 0.9010(3) 0.7776(4) 0.6466(3)
C53_6 C 0.8684(3) 0.7194(3) 0.7895(3)
C54_6 C 0.9900(5) 0.8935(5) 0.8090(7)
H100_6 H 0.9807 0.8787 0.8286
C56_6 C 0.9146(3) 0.8627(3) 0.7689(4)
C57_6 C 0.9567(5) 0.8870(4) 0.7217(5)
H104_6 H 0.9750 0.8723 0.7120
C58_6 C 0.9083(5) 0.6441(5) 0.8191(6)
H105_6 H 0.8909 0.6244 0.8200
H106_6 H 0.9325 0.6345 0.8221
H107_6 H 0.9032 0.6611 0.8385
C59_6 C 0.9299(3) 0.7716(3) 0.6693(4)
C60_6 C 0.8657(4) 0.7522(5) 0.6440(4)
H108_6 H 0.8715 0.7271 0.6503
H109_6 H 0.8551 0.7529 0.6197
C61_6 C 0.9054(4) 0.6634(4) 0.7826(5)
H110_6 H 0.9072 0.6453 0.7632
H111_6 H 0.9261 0.6799 0.7801
C62_6 C 0.9697(5) 0.7982(5) 0.8745(5)
H112_6 H 0.9563 0.7801 0.8880
H113_6 H 0.9737 0.8193 0.8897
H114_6 H 0.9559 0.8053 0.8532
C63_6 C 0.9025(5) 0.8041(6) 0.6160(5)
H115_6 H 0.9272 0.8055 0.6063
H116_6 H 0.8862 0.7965 0.5965
C64_6 C 0.8423(6) 0.7680(7) 0.6698(6)
H117_6 H 0.8375 0.7507 0.6890
H118_6 H 0.8535 0.7895 0.6799
H119_6 H 0.8197 0.7746 0.6582
C65_9 C 1.0000 0.7500 0.8054(5)
C66_6 C 0.8449(6) 0.6684(5) 0.7180(5)
H120_6 H 0.8647 0.6537 0.7089
H121_6 H 0.8223 0.6601 0.7075
H122_6 H 0.8489 0.6935 0.7115
C67_6 C 0.9389(7) 0.9135(6) 0.7027(6)
H123_6 H 0.9161 0.9041 0.6939
H124_6 H 0.9345 0.9340 0.7184
H125_6 H 0.9537 0.9210 0.6824
C68_6 C 0.8905(8) 0.8422(6) 0.6312(6)
H126_6 H 0.8657 0.8408 0.6399
H127_6 H 0.9063 0.8491 0.6510
H128_6 H 0.8920 0.8602 0.6121
C69_6 C 0.9966(4) 0.7163(5) 0.8636(4)
H129_6 H 0.9742 0.7056 0.8694
Ag18_6 Ag 0.83136(2) 0.88046(2) 0.80018(3)
Ag23_6 Ag 0.98854(3) 0.71423(3) 0.71657(3)
Ag24_6 Ag 0.97348(3) 0.68023(2) 0.49196(3)
S30_6 S 0.95209(8) 0.71805(9) 0.58536(8)
S36_6 S 0.78058(9) 0.82803(9) 0.74200(8)
H135_6 H 0.982425 0.754589 0.361375
H139_6 H 0.977172 0.906869 0.730294
H140_6 H 0.995411 0.732425 0.888625
N2_10 N 0.0000 0.2500 0.0920(4)
C15_10 C 0.0000 0.2500 0.0554(5)
S8_7 S 0.04175(8) 0.24484(8) 0.03277(8)
C19_7 C 0.0337(5) 0.2534(4) 0.1136(4)
H34_7 H 0.0444 0.2758 0.1194
C20_7 C 0.0482(5) 0.2197(5) 0.1245(5)
H35_7 H 0.0301 0.2063 0.1380
H36_7 H 0.0693 0.2237 0.1397
H37_7 H 0.0553 0.2059 0.1032
Ag24_7 Ag 0.02652(3) 0.18023(2) 0.00804(3)
H135_7 H 0.0175749 0.254589 0.138625
Ag15_7 Ag 0.15735(3) 0.30619(2) 0.73818(2)
Ag17_7 Ag 0.06977(2) 0.27652(3) 0.74196(3)
S21_7 S 0.10260(9) 0.33498(9) 0.76489(9)
S22_7 S 0.10299(8) 0.36383(9) 0.68684(9)
S23_7 S 0.03195(9) 0.29791(8) 0.83536(8)
S24_7 S 0.07511(8) 0.23684(9) 0.79944(9)
S26_7 S 0.09575(9) 0.23929(9) 0.68675(9)
S27_7 S 0.00516(8) 0.29175(8) 0.71723(8)
N11_7 N 0.1291(3) 0.1847(3) 0.7225(3)
N12_10 N 0.0000 0.2500 0.6580(4)
N13_7 N 0.0573(3) 0.3841(3) 0.7384(4)
C51_7 C 0.1571(4) 0.1649(4) 0.7398(5)
H96_7 H 0.1551 0.1393 0.7330
H97_7 H 0.1806 0.1738 0.7314
C52_7 C 0.0399(4) 0.4090(4) 0.7111(5)
H98_7 H 0.0584 0.4168 0.6938
H99_7 H 0.0312 0.4306 0.7238
N14_7 N 0.0990(3) 0.2776(4) 0.8534(3)
C53_7 C 0.1316(3) 0.2194(3) 0.7105(3)
C54_7 C 0.0100(5) 0.3935(5) 0.6910(7)
H100_7 H 0.0193 0.3787 0.6714
C56_7 C 0.0854(3) 0.3627(3) 0.7311(4)
C57_7 C 0.0433(5) 0.3870(4) 0.7783(5)
H104_7 H 0.0250 0.3723 0.7880
C58_7 C 0.0917(5) 0.1441(5) 0.6809(6)
H105_7 H 0.1091 0.1244 0.6800
H106_7 H 0.0675 0.1345 0.6779
H107_7 H 0.0968 0.1611 0.6615
C59_7 C 0.0701(3) 0.2716(3) 0.8307(4)
C60_7 C 0.1343(4) 0.2522(5) 0.8560(4)
H108_7 H 0.1285 0.2271 0.8497
H109_7 H 0.1449 0.2529 0.8803
C61_7 C 0.0946(4) 0.1634(4) 0.7174(5)
H110_7 H 0.0928 0.1453 0.7368
H111_7 H 0.0739 0.1799 0.7199
C62_7 C 0.0303(5) 0.2982(5) 0.6255(5)
H112_7 H 0.0437 0.2801 0.6120
H113_7 H 0.0263 0.3193 0.6103
H114_7 H 0.0441 0.3053 0.6468
C63_7 C 0.0975(5) 0.3041(6) 0.8840(5)
H115_7 H 0.0728 0.3055 0.8937
H116_7 H 0.1138 0.2965 0.9035
C64_7 C 0.1577(6) 0.2680(7) 0.8302(6)
H117_7 H 0.1625 0.2507 0.8110
H118_7 H 0.1465 0.2895 0.8201
H119_7 H 0.1803 0.2746 0.8418
C65_10 C 0.0000 0.2500 0.6946(5)
C66_7 C 0.1551(6) 0.1684(5) 0.7820(5)
H120_7 H 0.1353 0.1537 0.7911
H121_7 H 0.1777 0.1601 0.7925
H122_7 H 0.1511 0.1935 0.7885
C67_7 C 0.0611(7) 0.4135(6) 0.7973(6)
H123_7 H 0.0839 0.4041 0.8061
H124_7 H 0.0655 0.4340 0.7816
H125_7 H 0.0463 0.4210 0.8176
C68_7 C 0.1095(8) 0.3422(6) 0.8688(6)
H126_7 H 0.1343 0.3408 0.8601
H127_7 H 0.0937 0.3491 0.8490
H128_7 H 0.1080 0.3602 0.8879
C69_7 C 0.0034(4) 0.2163(5) 0.6364(4)
H129_7 H 0.0258 0.2056 0.6306
Ag18_7 Ag 0.16864(2) 0.38046(2) 0.69982(3)
Ag23_7 Ag 0.01146(3) 0.21423(3) 0.78343(3)
S30_7 S 0.04791(8) 0.21805(9) 0.91464(8)
S36_7 S 0.21942(9) 0.32803(9) 0.75800(8)
H139_7 H 0.0228282 0.406869 0.769706
H140_7 H 0.00458947 0.232425 0.611375
N2_11 N 1.0000 0.2500 0.0920(4)
C5_7 C 0.9663(5) 0.2466(4) 0.1136(4)
H8_7 H 0.9556 0.2242 0.1194
C12_7 C 0.9518(5) 0.2803(5) 0.1245(5)
H17_7 H 0.9699 0.2937 0.1380
H18_7 H 0.9307 0.2763 0.1397
H19_7 H 0.9447 0.2941 0.1032
C15_11 C 1.0000 0.2500 0.0554(5)
H133_7 H 0.982425 0.245411 0.138625
Ag16_7 Ag 0.98854(3) 0.28577(3) 0.78343(3)
N12_11 N 1.0000 0.2500 0.6580(4)
H101_7 H 0.9955 0.3785 0.7071
H102_7 H 0.9951 0.4127 0.6812
C55_7 C 0.9966(4) 0.2837(5) 0.6364(4)
H103_7 H 0.9742 0.2944 0.6306
C65_11 C 1.0000 0.2500 0.6946(5)
S28_7 S 0.99484(8) 0.20825(8) 0.71723(8)
C70_7 C 0.9697(5) 0.2018(5) 0.6255(5)
H130_7 H 0.9563 0.2199 0.6120
H131_7 H 0.9737 0.1807 0.6103
H132_7 H 0.9559 0.1947 0.6468
Ag25_7 Ag 0.93023(2) 0.22348(3) 0.74196(3)
S31_7 S 0.96805(9) 0.20209(8) 0.83536(8)
S35_7 S 0.92489(8) 0.26316(9) 0.79944(9)
H138_7 H 0.995411 0.267575 0.611375
Ag15_8 Ag 0.65735(3) 0.19381(2) 0.26182(2)
Ag16_8 Ag 0.48854(3) 0.21423(3) 0.21657(3)
Ag17_8 Ag 0.56977(2) 0.22348(3) 0.25804(3)
S21_8 S 0.60260(9) 0.16502(9) 0.23511(9)
S22_8 S 0.60299(8) 0.13617(9) 0.31316(9)
S23_8 S 0.53195(9) 0.20209(8) 0.16464(8)
S24_8 S 0.57511(8) 0.26316(9) 0.20056(9)
S26_8 S 0.59575(9) 0.26071(9) 0.31325(9)
S27_8 S 0.50516(8) 0.20825(8) 0.28277(8)
N11_8 N 0.6291(3) 0.3153(3) 0.2775(3)
N12_12 N 0.5000 0.2500 0.3420(4)
N13_8 N 0.5573(3) 0.1159(3) 0.2616(4)
C51_8 C 0.6571(4) 0.3351(4) 0.2602(5)
H96_8 H 0.6551 0.3607 0.2670
H97_8 H 0.6806 0.3262 0.2686
C52_8 C 0.5399(4) 0.0910(4) 0.2889(5)
H98_8 H 0.5584 0.0832 0.3062
H99_8 H 0.5312 0.0694 0.2762
N14_8 N 0.5990(3) 0.2224(4) 0.1466(3)
C53_8 C 0.6316(3) 0.2806(3) 0.2895(3)
C54_8 C 0.5100(5) 0.1065(5) 0.3090(7)
H100_8 H 0.5193 0.1213 0.3286
H101_8 H 0.4955 0.1215 0.2929
H102_8 H 0.4951 0.0873 0.3188
C55_8 C 0.4966(4) 0.2163(5) 0.3636(4)
H103_8 H 0.4742 0.2056 0.3694
C56_8 C 0.5854(3) 0.1373(3) 0.2689(4)
C57_8 C 0.5433(5) 0.1130(4) 0.2217(5)
H104_8 H 0.5250 0.1277 0.2120
C58_8 C 0.5917(5) 0.3559(5) 0.3191(6)
H105_8 H 0.6091 0.3756 0.3200
H106_8 H 0.5675 0.3655 0.3221
H107_8 H 0.5968 0.3389 0.3385
C59_8 C 0.5701(3) 0.2284(3) 0.1693(4)
C60_8 C 0.6343(4) 0.2478(5) 0.1440(4)
H108_8 H 0.6285 0.2729 0.1503
H109_8 H 0.6449 0.2471 0.1197
C61_8 C 0.5946(4) 0.3366(4) 0.2826(5)
H110_8 H 0.5928 0.3547 0.2632
H111_8 H 0.5739 0.3201 0.2801
C62_8 C 0.5303(5) 0.2018(5) 0.3745(5)
H112_8 H 0.5437 0.2199 0.3880
H113_8 H 0.5263 0.1807 0.3897
H114_8 H 0.5441 0.1947 0.3532
C63_8 C 0.5975(5) 0.1959(6) 0.1160(5)
H115_8 H 0.5728 0.1945 0.1063
H116_8 H 0.6138 0.2035 0.0965
C64_8 C 0.6577(6) 0.2320(7) 0.1698(6)
H117_8 H 0.6625 0.2493 0.1890
H118_8 H 0.6465 0.2105 0.1799
H119_8 H 0.6803 0.2254 0.1582
C65_12 C 0.5000 0.2500 0.3054(5)
C66_8 C 0.6551(6) 0.3316(5) 0.2180(5)
H120_8 H 0.6353 0.3463 0.2089
H121_8 H 0.6777 0.3399 0.2075
H122_8 H 0.6511 0.3065 0.2115
C67_8 C 0.5611(7) 0.0865(6) 0.2027(6)
H123_8 H 0.5839 0.0959 0.1939
H124_8 H 0.5655 0.0660 0.2184
H125_8 H 0.5463 0.0790 0.1824
C68_8 C 0.6095(8) 0.1578(6) 0.1312(6)
H126_8 H 0.6343 0.1592 0.1399
H127_8 H 0.5937 0.1509 0.1510
H128_8 H 0.6080 0.1398 0.1121
S28_8 S 0.49484(8) 0.29175(8) 0.28277(8)
C69_8 C 0.5034(4) 0.2837(5) 0.3636(4)
H129_8 H 0.5258 0.2944 0.3694
C70_8 C 0.4697(5) 0.2982(5) 0.3745(5)
H130_8 H 0.4563 0.2801 0.3880
H131_8 H 0.4737 0.3193 0.3897
H132_8 H 0.4559 0.3053 0.3532
Ag18_8 Ag 0.66864(2) 0.11954(2) 0.30018(3)
Ag23_8 Ag 0.51146(3) 0.28577(3) 0.21657(3)
Ag25_8 Ag 0.43023(2) 0.27652(3) 0.25804(3)
S30_8 S 0.54791(8) 0.28195(9) 0.08536(8)
S31_8 S 0.46805(9) 0.29791(8) 0.16464(8)
S35_8 S 0.42489(8) 0.23684(9) 0.20056(9)
S36_8 S 0.71942(9) 0.17197(9) 0.24200(8)
H138_8 H 0.495411 0.232425 0.388625
H139_8 H 0.522828 0.0931314 0.230294
H140_8 H 0.504589 0.267575 0.388625
N2_12 N 0.5000 0.2500 0.9080(4)
C5_8 C 0.4663(5) 0.2534(4) 0.8864(4)
H8_8 H 0.4556 0.2758 0.8806
C12_8 C 0.4518(5) 0.2197(5) 0.8755(5)
H17_8 H 0.4699 0.2063 0.8620
H18_8 H 0.4307 0.2237 0.8603
H19_8 H 0.4447 0.2059 0.8968
C15_12 C 0.5000 0.2500 0.9446(5)
S8_8 S 0.54175(8) 0.25516(8) 0.96723(8)
C19_8 C 0.5337(5) 0.2466(4) 0.8864(4)
H34_8 H 0.5444 0.2242 0.8806
C20_8 C 0.5482(5) 0.2803(5) 0.8755(5)
H35_8 H 0.5301 0.2937 0.8620
H36_8 H 0.5693 0.2763 0.8603
H37_8 H 0.5553 0.2941 0.8968
Ag24_8 Ag 0.52652(3) 0.31977(2) 0.99196(3)
H133_8 H 0.482425 0.254589 0.861375
H135_8 H 0.517575 0.245411 0.861375
N2_13 N 0.5920(4) 0.5000 0.7500
C5_9 C 0.6136(4) 0.5337(5) 0.7534(4)
H8_9 H 0.6194 0.5444 0.7758
C12_9 C 0.6245(5) 0.5482(5) 0.7197(5)
H17_9 H 0.6380 0.5301 0.7063
H18_9 H 0.6397 0.5693 0.7237
H19_9 H 0.6032 0.5553 0.7059
C15_13 C 0.5554(5) 0.5000 0.7500
S8_9 S 0.53277(8) 0.45825(8) 0.75516(8)
C19_9 C 0.6136(4) 0.4663(5) 0.7466(4)
H34_9 H 0.6194 0.4556 0.7242
C20_9 C 0.6245(5) 0.4518(5) 0.7803(5)
H35_9 H 0.6380 0.4699 0.7937
H36_9 H 0.6397 0.4307 0.7763
H37_9 H 0.6032 0.4447 0.7941
Ag16_9 Ag 0.28343(3) 0.51146(3) 0.71423(3)
Ag17_9 Ag 0.24196(3) 0.43023(2) 0.72348(3)
S21_9 S 0.26489(9) 0.39740(9) 0.66502(9)
S23_9 S 0.33536(8) 0.46805(9) 0.70209(8)
S24_9 S 0.29944(9) 0.42489(8) 0.76316(9)
S26_9 S 0.18675(9) 0.40425(9) 0.76071(9)
S27_9 S 0.21723(8) 0.49484(8) 0.70825(8)
N11_9 N 0.2225(3) 0.3709(3) 0.8153(3)
N12_13 N 0.1580(4) 0.5000 0.7500
N13_9 N 0.2384(4) 0.4427(3) 0.6159(3)
C51_9 C 0.2398(5) 0.3429(4) 0.8351(4)
H96_9 H 0.2330 0.3449 0.8607
H97_9 H 0.2314 0.3194 0.8262
C52_9 C 0.2111(5) 0.4601(4) 0.5910(4)
H98_9 H 0.1938 0.4416 0.5832
H99_9 H 0.2238 0.4688 0.5694
N14_9 N 0.3534(3) 0.4010(3) 0.7224(4)
C53_9 C 0.2105(3) 0.3684(3) 0.7806(3)
C54_9 C 0.1910(7) 0.4900(5) 0.6065(5)
H100_9 H 0.1714 0.4807 0.6213
H101_9 H 0.2071 0.5045 0.6215
H102_9 H 0.1812 0.5049 0.5873
C55_9 C 0.1364(4) 0.5034(4) 0.7163(5)
H103_9 H 0.1306 0.5258 0.7056
C56_9 C 0.2311(4) 0.4146(3) 0.6373(3)
C57_9 C 0.2783(5) 0.4567(5) 0.6130(4)
H104_9 H 0.2880 0.4750 0.6277
C58_9 C 0.1809(6) 0.4083(5) 0.8559(5)
H105_9 H 0.1800 0.3909 0.8756
H106_9 H 0.1779 0.4325 0.8655
H107_9 H 0.1615 0.4032 0.8389
C59_9 C 0.3307(4) 0.4299(3) 0.7284(3)
C60_9 C 0.3560(4) 0.3657(4) 0.7478(5)
H108_9 H 0.3497 0.3715 0.7729
H109_9 H 0.3803 0.3551 0.7471
C61_9 C 0.2174(5) 0.4054(4) 0.8366(4)
H110_9 H 0.2368 0.4072 0.8547
H111_9 H 0.2199 0.4261 0.8201
C62_9 C 0.1255(5) 0.4697(5) 0.7018(5)
H112_9 H 0.1120 0.4563 0.7199
H113_9 H 0.1103 0.4737 0.6807
H114_9 H 0.1468 0.4559 0.6947
C63_9 C 0.3840(5) 0.4025(5) 0.6959(6)
H115_9 H 0.3937 0.4272 0.6945
H116_9 H 0.4035 0.3862 0.7035
C64_9 C 0.3302(6) 0.3423(6) 0.7320(7)
H117_9 H 0.3110 0.3375 0.7493
H118_9 H 0.3201 0.3535 0.7105
H119_9 H 0.3418 0.3197 0.7254
C65_13 C 0.1946(5) 0.5000 0.7500
C66_9 C 0.2820(5) 0.3449(6) 0.8316(5)
H120_9 H 0.2911 0.3647 0.8463
H121_9 H 0.2925 0.3223 0.8399
H122_9 H 0.2885 0.3489 0.8065
C67_9 C 0.2973(6) 0.4389(7) 0.5865(6)
H123_9 H 0.3061 0.4161 0.5959
H124_9 H 0.2816 0.4345 0.5660
H125_9 H 0.3176 0.4537 0.5790
C68_9 C 0.3688(6) 0.3905(8) 0.6578(6)
H126_9 H 0.3601 0.3657 0.6592
H127_9 H 0.3490 0.4063 0.6509
H128_9 H 0.3879 0.3920 0.6398
S28_9 S 0.21723(8) 0.50516(8) 0.79175(8)
C69_9 C 0.1364(4) 0.4966(4) 0.7837(5)
H129_9 H 0.1306 0.4742 0.7944
C70_9 C 0.1255(5) 0.5303(5) 0.7982(5)
H130_9 H 0.1120 0.5437 0.7801
H131_9 H 0.1103 0.5263 0.8193
H132_9 H 0.1468 0.5441 0.8053
Ag23_9 Ag 0.28343(3) 0.48854(3) 0.78577(3)
Ag24_9 Ag 0.50804(3) 0.47348(3) 0.81977(2)
Ag25_9 Ag 0.24196(3) 0.56977(2) 0.77652(3)
S30_9 S 0.41464(8) 0.45209(8) 0.78195(9)
S31_9 S 0.33536(8) 0.53195(9) 0.79791(8)
S35_9 S 0.29944(9) 0.57511(8) 0.73684(9)
H133_9 H 0.638625 0.517575 0.754589
H135_9 H 0.638625 0.482425 0.745411
H138_9 H 0.111375 0.504589 0.732425
H139_9 H 0.269706 0.477172 0.593131
H140_9 H 0.111375 0.495411 0.767575
N2_14 N 0.4080(4) -0.0000 0.7500
C5_10 C 0.3864(4) 0.0337(5) 0.7466(4)
H8_10 H 0.3806 0.0444 0.7242
C12_10 C 0.3755(5) 0.0482(5) 0.7803(5)
H17_10 H 0.3620 0.0301 0.7937
H18_10 H 0.3603 0.0693 0.7763
H19_10 H 0.3968 0.0553 0.7941
C15_14 C 0.4446(5) -0.0000 0.7500
Ag16_10 Ag 0.71657(3) 0.01146(3) 0.78577(3)
N12_14 N 0.8420(4) -0.0000 0.7500
H101_10 H 0.7929 0.0045 0.8785
H102_10 H 0.8188 0.0049 0.9127
C55_10 C 0.8636(4) 0.0034(4) 0.7837(5)
H103_10 H 0.8694 0.0258 0.7944
C65_14 C 0.8054(5) -0.0000 0.7500
S28_10 S 0.78277(8) 0.00516(8) 0.70825(8)
C70_10 C 0.8745(5) 0.0303(5) 0.7018(5)
H130_10 H 0.8880 0.0437 0.7199
H131_10 H 0.8897 0.0263 0.6807
H132_10 H 0.8532 0.0441 0.6947
Ag25_10 Ag 0.75804(3) 0.06977(2) 0.72348(3)
S31_10 S 0.66464(8) 0.03195(9) 0.70209(8)
S35_10 S 0.70056(9) 0.07511(8) 0.76316(9)
H133_10 H 0.361375 0.0175749 0.745411
H138_10 H 0.888625 0.00458947 0.767575
N2_15 N 0.4080(4) 1.0000 0.7500
C15_15 C 0.4446(5) 1.0000 0.7500
S8_10 S 0.46723(8) 0.95825(8) 0.74484(8)
C19_10 C 0.3864(4) 0.9663(5) 0.7534(4)
H34_10 H 0.3806 0.9556 0.7758
C20_10 C 0.3755(5) 0.9518(5) 0.7197(5)
H35_10 H 0.3620 0.9699 0.7063
H36_10 H 0.3603 0.9307 0.7237
H37_10 H 0.3968 0.9447 0.7059
Ag17_10 Ag 0.75804(3) 0.93023(2) 0.77652(3)
S21_10 S 0.73511(9) 0.89740(9) 0.83498(9)
S23_10 S 0.66464(8) 0.96805(9) 0.79791(8)
S24_10 S 0.70056(9) 0.92489(8) 0.73684(9)
S26_10 S 0.81325(9) 0.90425(9) 0.73929(9)
S27_10 S 0.78277(8) 0.99484(8) 0.79175(8)
N11_10 N 0.7775(3) 0.8709(3) 0.6847(3)
N12_15 N 0.8420(4) 1.0000 0.7500
N13_10 N 0.7616(4) 0.9427(3) 0.8841(3)
C51_10 C 0.7602(5) 0.8429(4) 0.6649(4)
H96_10 H 0.7670 0.8449 0.6393
H97_10 H 0.7686 0.8194 0.6738
C52_10 C 0.7889(5) 0.9601(4) 0.9090(4)
H98_10 H 0.8062 0.9416 0.9168
H99_10 H 0.7762 0.9688 0.9306
N14_10 N 0.6466(3) 0.9010(3) 0.7776(4)
C53_10 C 0.7895(3) 0.8684(3) 0.7194(3)
C54_10 C 0.8090(7) 0.9900(5) 0.8935(5)
H100_10 H 0.8286 0.9807 0.8787
C56_10 C 0.7689(4) 0.9146(3) 0.8627(3)
C57_10 C 0.7217(5) 0.9567(5) 0.8870(4)
H104_10 H 0.7120 0.9750 0.8723
C58_10 C 0.8191(6) 0.9083(5) 0.6441(5)
H105_10 H 0.8200 0.8909 0.6244
H106_10 H 0.8221 0.9325 0.6345
H107_10 H 0.8385 0.9032 0.6611
C59_10 C 0.6693(4) 0.9299(3) 0.7716(3)
C60_10 C 0.6440(4) 0.8657(4) 0.7522(5)
H108_10 H 0.6503 0.8715 0.7271
H109_10 H 0.6197 0.8551 0.7529
C61_10 C 0.7826(5) 0.9054(4) 0.6634(4)
H110_10 H 0.7632 0.9072 0.6453
H111_10 H 0.7801 0.9261 0.6799
C62_10 C 0.8745(5) 0.9697(5) 0.7982(5)
H112_10 H 0.8880 0.9563 0.7801
H113_10 H 0.8897 0.9737 0.8193
H114_10 H 0.8532 0.9559 0.8053
C63_10 C 0.6160(5) 0.9025(5) 0.8041(6)
H115_10 H 0.6063 0.9272 0.8055
H116_10 H 0.5965 0.8862 0.7965
C64_10 C 0.6698(6) 0.8423(6) 0.7680(7)
H117_10 H 0.6890 0.8375 0.7507
H118_10 H 0.6799 0.8535 0.7895
H119_10 H 0.6582 0.8197 0.7746
C65_15 C 0.8054(5) 1.0000 0.7500
C66_10 C 0.7180(5) 0.8449(6) 0.6684(5)
H120_10 H 0.7089 0.8647 0.6537
H121_10 H 0.7075 0.8223 0.6601
H122_10 H 0.7115 0.8489 0.6935
C67_10 C 0.7027(6) 0.9389(7) 0.9135(6)
H123_10 H 0.6939 0.9161 0.9041
H124_10 H 0.7184 0.9345 0.9340
H125_10 H 0.6824 0.9537 0.9210
C68_10 C 0.6312(6) 0.8905(8) 0.8422(6)
H126_10 H 0.6399 0.8657 0.8408
H127_10 H 0.6510 0.9063 0.8491
H128_10 H 0.6121 0.8920 0.8602
C69_10 C 0.8636(4) 0.9966(4) 0.7163(5)
H129_10 H 0.8694 0.9742 0.7056
Ag23_10 Ag 0.71657(3) 0.98854(3) 0.71423(3)
Ag24_10 Ag 0.49196(3) 0.97348(3) 0.68023(2)
S30_10 S 0.58536(8) 0.95209(8) 0.71805(9)
H135_10 H 0.361375 0.982425 0.754589
H139_10 H 0.730294 0.977172 0.906869
H140_10 H 0.888625 0.995411 0.732425
N2_16 N 0.0920(4) 0.0000 0.2500
C15_16 C 0.0554(5) 0.0000 0.2500
S8_11 S 0.03277(8) 0.04175(8) 0.24484(8)
C19_11 C 0.1136(4) 0.0337(5) 0.2534(4)
H34_11 H 0.1194 0.0444 0.2758
C20_11 C 0.1245(5) 0.0482(5) 0.2197(5)
H35_11 H 0.1380 0.0301 0.2063
H36_11 H 0.1397 0.0693 0.2237
H37_11 H 0.1032 0.0553 0.2059
Ag24_11 Ag 0.00804(3) 0.02652(3) 0.18023(2)
H135_11 H 0.138625 0.0175749 0.254589
N2_17 N 0.0920(4) 1.0000 0.2500
C5_11 C 0.1136(4) 0.9663(5) 0.2466(4)
H8_11 H 0.1194 0.9556 0.2242
C12_11 C 0.1245(5) 0.9518(5) 0.2803(5)
H17_11 H 0.1380 0.9699 0.2937
H18_11 H 0.1397 0.9307 0.2763
H19_11 H 0.1032 0.9447 0.2941
C15_17 C 0.0554(5) 1.0000 0.2500
H133_11 H 0.138625 0.982425 0.245411
Ag17_11 Ag 0.74196(3) 0.06977(2) 0.27652(3)
S21_11 S 0.76489(9) 0.10260(9) 0.33498(9)
S23_11 S 0.83536(8) 0.03195(9) 0.29791(8)
S24_11 S 0.79944(9) 0.07511(8) 0.23684(9)
S26_11 S 0.68675(9) 0.09575(9) 0.23929(9)
S27_11 S 0.71723(8) 0.00516(8) 0.29175(8)
N11_11 N 0.7225(3) 0.1291(3) 0.1847(3)
N12_16 N 0.6580(4) 0.0000 0.2500
N13_11 N 0.7384(4) 0.0573(3) 0.3841(3)
C51_11 C 0.7398(5) 0.1571(4) 0.1649(4)
H96_11 H 0.7330 0.1551 0.1393
H97_11 H 0.7314 0.1806 0.1738
C52_11 C 0.7111(5) 0.0399(4) 0.4090(4)
H98_11 H 0.6938 0.0584 0.4168
H99_11 H 0.7238 0.0312 0.4306
N14_11 N 0.8534(3) 0.0990(3) 0.2776(4)
C53_11 C 0.7105(3) 0.1316(3) 0.2194(3)
C54_11 C 0.6910(7) 0.0100(5) 0.3935(5)
H100_11 H 0.6714 0.0193 0.3787
C56_11 C 0.7311(4) 0.0854(3) 0.3627(3)
C57_11 C 0.7783(5) 0.0433(5) 0.3870(4)
H104_11 H 0.7880 0.0250 0.3723
C58_11 C 0.6809(6) 0.0917(5) 0.1441(5)
H105_11 H 0.6800 0.1091 0.1244
H106_11 H 0.6779 0.0675 0.1345
H107_11 H 0.6615 0.0968 0.1611
C59_11 C 0.8307(4) 0.0701(3) 0.2716(3)
C60_11 C 0.8560(4) 0.1343(4) 0.2522(5)
H108_11 H 0.8497 0.1285 0.2271
H109_11 H 0.8803 0.1449 0.2529
C61_11 C 0.7174(5) 0.0946(4) 0.1634(4)
H110_11 H 0.7368 0.0928 0.1453
H111_11 H 0.7199 0.0739 0.1799
C62_11 C 0.6255(5) 0.0303(5) 0.2982(5)
H112_11 H 0.6120 0.0437 0.2801
H113_11 H 0.6103 0.0263 0.3193
H114_11 H 0.6468 0.0441 0.3053
C63_11 C 0.8840(5) 0.0975(5) 0.3041(6)
H115_11 H 0.8937 0.0728 0.3055
H116_11 H 0.9035 0.1138 0.2965
C64_11 C 0.8302(6) 0.1577(6) 0.2680(7)
H117_11 H 0.8110 0.1625 0.2507
H118_11 H 0.8201 0.1465 0.2895
H119_11 H 0.8418 0.1803 0.2746
C65_16 C 0.6946(5) 0.0000 0.2500
C66_11 C 0.7820(5) 0.1551(6) 0.1684(5)
H120_11 H 0.7911 0.1353 0.1537
H121_11 H 0.7925 0.1777 0.1601
H122_11 H 0.7885 0.1511 0.1935
C67_11 C 0.7973(6) 0.0611(7) 0.4135(6)
H123_11 H 0.8061 0.0839 0.4041
H124_11 H 0.7816 0.0655 0.4340
H125_11 H 0.8176 0.0463 0.4210
C68_11 C 0.8688(6) 0.1095(8) 0.3422(6)
H126_11 H 0.8601 0.1343 0.3408
H127_11 H 0.8490 0.0937 0.3491
H128_11 H 0.8879 0.1080 0.3602
C69_11 C 0.6364(4) 0.0034(4) 0.2163(5)
H129_11 H 0.6306 0.0258 0.2056
Ag23_11 Ag 0.78343(3) 0.01146(3) 0.21423(3)
S30_11 S 0.91464(8) 0.04791(8) 0.21805(9)
H139_11 H 0.769706 0.0228282 0.406869
H140_11 H 0.611375 0.00458947 0.232425
Ag16_11 Ag 0.78343(3) 0.98854(3) 0.28577(3)
N12_17 N 0.6580(4) 1.0000 0.2500
H101_11 H 0.7071 0.9955 0.3785
H102_11 H 0.6812 0.9951 0.4127
C55_11 C 0.6364(4) 0.9966(4) 0.2837(5)
H103_11 H 0.6306 0.9742 0.2944
C65_17 C 0.6946(5) 1.0000 0.2500
S28_11 S 0.71723(8) 0.99484(8) 0.20825(8)
C70_11 C 0.6255(5) 0.9697(5) 0.2018(5)
H130_11 H 0.6120 0.9563 0.2199
H131_11 H 0.6103 0.9737 0.1807
H132_11 H 0.6468 0.9559 0.1947
Ag25_11 Ag 0.74196(3) 0.93023(2) 0.22348(3)
S31_11 S 0.83536(8) 0.96805(9) 0.20209(8)
S35_11 S 0.79944(9) 0.92489(8) 0.26316(9)
H138_11 H 0.611375 0.995411 0.267575
Ag16_12 Ag 0.21657(3) 0.48854(3) 0.21423(3)
Ag17_12 Ag 0.25804(3) 0.56977(2) 0.22348(3)
S21_12 S 0.23511(9) 0.60260(9) 0.16502(9)
S23_12 S 0.16464(8) 0.53195(9) 0.20209(8)
S24_12 S 0.20056(9) 0.57511(8) 0.26316(9)
S26_12 S 0.31325(9) 0.59575(9) 0.26071(9)
S27_12 S 0.28277(8) 0.50516(8) 0.20825(8)
N11_12 N 0.2775(3) 0.6291(3) 0.3153(3)
N12_18 N 0.3420(4) 0.5000 0.2500
N13_12 N 0.2616(4) 0.5573(3) 0.1159(3)
C51_12 C 0.2602(5) 0.6571(4) 0.3351(4)
H96_12 H 0.2670 0.6551 0.3607
H97_12 H 0.2686 0.6806 0.3262
C52_12 C 0.2889(5) 0.5399(4) 0.0910(4)
H98_12 H 0.3062 0.5584 0.0832
H99_12 H 0.2762 0.5312 0.0694
N14_12 N 0.1466(3) 0.5990(3) 0.2224(4)
C53_12 C 0.2895(3) 0.6316(3) 0.2806(3)
C54_12 C 0.3090(7) 0.5100(5) 0.1065(5)
H100_12 H 0.3286 0.5193 0.1213
H101_12 H 0.2929 0.4955 0.1215
H102_12 H 0.3188 0.4951 0.0873
C55_12 C 0.3636(4) 0.4966(4) 0.2163(5)
H103_12 H 0.3694 0.4742 0.2056
C56_12 C 0.2689(4) 0.5854(3) 0.1373(3)
C57_12 C 0.2217(5) 0.5433(5) 0.1130(4)
H104_12 H 0.2120 0.5250 0.1277
C58_12 C 0.3191(6) 0.5917(5) 0.3559(5)
H105_12 H 0.3200 0.6091 0.3756
H106_12 H 0.3221 0.5675 0.3655
H107_12 H 0.3385 0.5968 0.3389
C59_12 C 0.1693(4) 0.5701(3) 0.2284(3)
C60_12 C 0.1440(4) 0.6343(4) 0.2478(5)
H108_12 H 0.1503 0.6285 0.2729
H109_12 H 0.1197 0.6449 0.2471
C61_12 C 0.2826(5) 0.5946(4) 0.3366(4)
H110_12 H 0.2632 0.5928 0.3547
H111_12 H 0.2801 0.5739 0.3201
C62_12 C 0.3745(5) 0.5303(5) 0.2018(5)
H112_12 H 0.3880 0.5437 0.2199
H113_12 H 0.3897 0.5263 0.1807
H114_12 H 0.3532 0.5441 0.1947
C63_12 C 0.1160(5) 0.5975(5) 0.1959(6)
H115_12 H 0.1063 0.5728 0.1945
H116_12 H 0.0965 0.6138 0.2035
C64_12 C 0.1698(6) 0.6577(6) 0.2320(7)
H117_12 H 0.1890 0.6625 0.2493
H118_12 H 0.1799 0.6465 0.2105
H119_12 H 0.1582 0.6803 0.2254
C65_18 C 0.3054(5) 0.5000 0.2500
C66_12 C 0.2180(5) 0.6551(6) 0.3316(5)
H120_12 H 0.2089 0.6353 0.3463
H121_12 H 0.2075 0.6777 0.3399
H122_12 H 0.2115 0.6511 0.3065
C67_12 C 0.2027(6) 0.5611(7) 0.0865(6)
H123_12 H 0.1939 0.5839 0.0959
H124_12 H 0.2184 0.5655 0.0660
H125_12 H 0.1824 0.5463 0.0790
C68_12 C 0.1312(6) 0.6095(8) 0.1578(6)
H126_12 H 0.1399 0.6343 0.1592
H127_12 H 0.1510 0.5937 0.1509
H128_12 H 0.1121 0.6080 0.1398
S28_12 S 0.28277(8) 0.49484(8) 0.29175(8)
C69_12 C 0.3636(4) 0.5034(4) 0.2837(5)
H129_12 H 0.3694 0.5258 0.2944
C70_12 C 0.3745(5) 0.4697(5) 0.2982(5)
H130_12 H 0.3880 0.4563 0.2801
H131_12 H 0.3897 0.4737 0.3193
H132_12 H 0.3532 0.4559 0.3053
Ag23_12 Ag 0.21657(3) 0.51146(3) 0.28577(3)
Ag25_12 Ag 0.25804(3) 0.43023(2) 0.27652(3)
S30_12 S 0.08536(8) 0.54791(8) 0.28195(9)
S31_12 S 0.16464(8) 0.46805(9) 0.29791(8)
S35_12 S 0.20056(9) 0.42489(8) 0.23684(9)
H138_12 H 0.388625 0.495411 0.232425
H139_12 H 0.230294 0.522828 0.0931314
H140_12 H 0.388625 0.504589 0.267575
N2_18 N 0.9080(4) 0.5000 0.2500
C5_12 C 0.8864(4) 0.4663(5) 0.2534(4)
H8_12 H 0.8806 0.4556 0.2758
C12_12 C 0.8755(5) 0.4518(5) 0.2197(5)
H17_12 H 0.8620 0.4699 0.2063
H18_12 H 0.8603 0.4307 0.2237
H19_12 H 0.8968 0.4447 0.2059
C15_18 C 0.9446(5) 0.5000 0.2500
S8_12 S 0.96723(8) 0.54175(8) 0.25516(8)
C19_12 C 0.8864(4) 0.5337(5) 0.2466(4)
H34_12 H 0.8806 0.5444 0.2242
C20_12 C 0.8755(5) 0.5482(5) 0.2803(5)
H35_12 H 0.8620 0.5301 0.2937
H36_12 H 0.8603 0.5693 0.2763
H37_12 H 0.8968 0.5553 0.2941
Ag24_12 Ag 0.99196(3) 0.52652(3) 0.31977(2)
H133_12 H 0.861375 0.482425 0.254589
H135_12 H 0.861375 0.517575 0.245411
S25_5 S 0.46942(9) 0.00800(8) 0.57803(9)
S26_13 S 0.43675(9) 0.01071(9) 0.65425(9)
N11_13 N 0.4725(3) 0.0653(3) 0.6209(3)
C51_13 C 0.4898(5) 0.0851(4) 0.5929(4)
H96_13 H 0.4830 0.1107 0.5949
H97_13 H 0.4814 0.0762 0.5694
C53_13 C 0.4605(3) 0.0306(3) 0.6184(3)
C58_13 C 0.4309(6) 0.1059(5) 0.6583(5)
H105_13 H 0.4300 0.1256 0.6409
H106_13 H 0.4279 0.1155 0.6825
H107_13 H 0.4115 0.0889 0.6532
H108_13 H 0.5997 0.0229 0.6215
C61_13 C 0.4674(5) 0.0866(4) 0.6554(4)
H110_13 H 0.4868 0.1047 0.6572
H111_13 H 0.4699 0.0701 0.6761
C66_13 C 0.5320(5) 0.0816(5) 0.5949(6)
H120_13 H 0.5411 0.0963 0.6147
H121_13 H 0.5425 0.0899 0.5723
H122_13 H 0.5385 0.0565 0.5989
Ag14_5 Ag 0.41864(2) 0.94982(3) 0.63046(2)
Ag15_9 Ag 0.48818(2) 0.94381(2) 0.59265(3)
S21_13 S 0.51489(9) 0.91502(9) 0.64740(9)
S22_9 S 0.43684(9) 0.88617(9) 0.64701(8)
N13_13 N 0.4884(4) 0.8659(3) 0.6927(3)
C52_13 C 0.4611(5) 0.8410(4) 0.7101(4)
H98_13 H 0.4438 0.8332 0.6916
H99_13 H 0.4738 0.8194 0.7188
N14_13 N 0.6034(3) 0.9724(4) 0.6510(3)
C54_13 C 0.4410(7) 0.8565(5) 0.7400(5)
H100_13 H 0.4214 0.8713 0.7307
H101_13 H 0.4571 0.8715 0.7545
H102_13 H 0.4312 0.8373 0.7549
C56_13 C 0.4811(4) 0.8873(3) 0.6646(3)
C57_13 C 0.5283(5) 0.8630(4) 0.7067(5)
H104_13 H 0.5380 0.8777 0.7250
C59_13 C 0.5807(4) 0.9784(3) 0.6799(3)
C60_13 C 0.6060(4) 0.9978(5) 0.6157(4)
H109_13 H 0.6303 0.9971 0.6051
C63_13 C 0.6340(5) 0.9459(6) 0.6525(5)
H115_13 H 0.6437 0.9445 0.6772
H116_13 H 0.6535 0.9535 0.6362
C64_13 C 0.5802(6) 0.9820(7) 0.5923(6)
H117_13 H 0.5610 0.9993 0.5875
H118_13 H 0.5701 0.9605 0.6035
H119_13 H 0.5918 0.9754 0.5697
C67_13 C 0.5473(6) 0.8365(6) 0.6889(7)
H123_13 H 0.5561 0.8459 0.6661
H124_13 H 0.5316 0.8160 0.6845
H125_13 H 0.5676 0.8290 0.7037
C68_13 C 0.6188(6) 0.9078(6) 0.6405(8)
H126_13 H 0.6101 0.9092 0.6157
H127_13 H 0.5990 0.9009 0.6563
H128_13 H 0.6379 0.8898 0.6420
Ag18_9 Ag 0.44982(3) 0.86954(2) 0.58136(2)
Ag19_5 Ag 0.40735(3) 0.98818(2) 0.55619(2)
S29_5 S 0.35299(8) 0.93684(9) 0.61383(9)
S36_9 S 0.50800(8) 0.92197(9) 0.53058(9)
H139_13 H 0.519706 0.843131 0.727172
Ag14_6 Ag 0.08136(2) 0.05018(3) 0.13046(2)
Ag15_10 Ag 0.01182(2) 0.05619(2) 0.09265(3)
S22_10 S 0.06316(9) 0.11383(9) 0.14701(8)
N13_14 N 0.0116(4) 0.1341(3) 0.1927(3)
C52_14 C 0.0389(5) 0.1590(4) 0.2101(4)
H98_14 H 0.0562 0.1668 0.1916
H99_14 H 0.0262 0.1806 0.2188
C54_14 C 0.0590(7) 0.1435(5) 0.2400(5)
H100_14 H 0.0786 0.1287 0.2307
H101_14 H 0.0429 0.1285 0.2545
H102_14 H 0.0688 0.1627 0.2549
C56_14 C 0.0189(4) 0.1127(3) 0.1646(3)
Ag18_10 Ag 0.05018(3) 0.13046(2) 0.08136(2)
Ag19_6 Ag 0.09265(3) 0.01182(2) 0.05619(2)
S29_6 S 0.14701(8) 0.06316(9) 0.11383(9)
S25_6 S 0.03058(9) 0.99200(8) 0.07803(9)
S26_14 S 0.06325(9) 0.98929(9) 0.15425(9)
N11_14 N 0.0275(3) 0.9347(3) 0.1209(3)
C51_14 C 0.0102(5) 0.9149(4) 0.0929(4)
H96_14 H 0.0170 0.8893 0.0949
H97_14 H 0.0186 0.9238 0.0694
C53_14 C 0.0395(3) 0.9694(3) 0.1184(3)
C58_14 C 0.0691(6) 0.8941(5) 0.1583(5)
H105_14 H 0.0700 0.8744 0.1409
H106_14 H 0.0721 0.8845 0.1825
H107_14 H 0.0885 0.9111 0.1532
C61_14 C 0.0326(5) 0.9134(4) 0.1554(4)
H110_14 H 0.0132 0.8953 0.1572
H111_14 H 0.0301 0.9299 0.1761
S21_14 S 0.98511(9) 0.08498(9) 0.14740(9)
N14_14 N 0.8966(3) 0.0276(4) 0.1510(3)
C57_14 C 0.9717(5) 0.1370(4) 0.2067(5)
H104_14 H 0.9620 0.1223 0.2250
C59_14 C 0.9193(4) 0.0216(3) 0.1799(3)
C60_14 C 0.8940(4) 0.0022(5) 0.1157(4)
H109_14 H 0.8697 0.0029 0.1051
C63_14 C 0.8660(5) 0.0541(6) 0.1525(5)
H115_14 H 0.8563 0.0555 0.1772
H116_14 H 0.8465 0.0465 0.1362
C64_14 C 0.9198(6) 0.0180(7) 0.0923(6)
H117_14 H 0.9390 0.0007 0.0875
H118_14 H 0.9299 0.0395 0.1035
H119_14 H 0.9082 0.0246 0.0697
C67_14 C 0.9527(6) 0.1635(6) 0.1889(7)
H123_14 H 0.9439 0.1541 0.1661
H124_14 H 0.9684 0.1840 0.1845
H125_14 H 0.9324 0.1710 0.2037
C68_14 C 0.8812(6) 0.0922(6) 0.1405(8)
H126_14 H 0.8899 0.0908 0.1157
H127_14 H 0.9010 0.0991 0.1563
H128_14 H 0.8621 0.1102 0.1420
S36_10 S 0.99200(8) 0.07803(9) 0.03058(9)
H139_14 H 0.980294 0.156869 0.227172
H108_14 H 0.9003 0.9771 0.1215
C66_14 C 0.9680(5) 0.9184(5) 0.0949(6)
H120_14 H 0.9589 0.9037 0.1147
H121_14 H 0.9575 0.9101 0.0723
H122_14 H 0.9615 0.9435 0.0989
S21_15 S 0.01489(9) 0.58498(9) 0.35260(9)
N14_15 N 0.1034(3) 0.5276(4) 0.3490(3)
C57_15 C 0.0283(5) 0.6370(4) 0.2933(5)
H104_15 H 0.0380 0.6223 0.2750
C59_15 C 0.0807(4) 0.5216(3) 0.3201(3)
C60_15 C 0.1060(4) 0.5022(5) 0.3843(4)
H108_15 H 0.0997 0.4771 0.3785
H109_15 H 0.1303 0.5029 0.3949
C63_15 C 0.1340(5) 0.5541(6) 0.3475(5)
H115_15 H 0.1437 0.5555 0.3228
H116_15 H 0.1535 0.5465 0.3638
C64_15 C 0.0802(6) 0.5180(7) 0.4077(6)
H117_15 H 0.0610 0.5007 0.4125
H118_15 H 0.0701 0.5395 0.3965
H119_15 H 0.0918 0.5246 0.4303
C66_15 C 0.0320(5) 0.4184(5) 0.4051(6)
H120_15 H 0.0411 0.4037 0.3853
H121_15 H 0.0425 0.4101 0.4277
H122_15 H 0.0385 0.4435 0.4011
C67_15 C 0.0473(6) 0.6635(6) 0.3111(7)
H123_15 H 0.0561 0.6541 0.3339
H124_15 H 0.0316 0.6840 0.3155
H125_15 H 0.0676 0.6710 0.2963
C68_15 C 0.1188(6) 0.5922(6) 0.3595(8)
H126_15 H 0.1101 0.5908 0.3843
H127_15 H 0.0990 0.5991 0.3437
H128_15 H 0.1379 0.6102 0.3580
S36_11 S 0.00800(8) 0.57803(9) 0.46942(9)
H139_15 H 0.0197061 0.656869 0.272828
Ag14_7 Ag 0.91864(2) 0.55018(3) 0.36954(2)
Ag15_11 Ag 0.98818(2) 0.55619(2) 0.40735(3)
S22_11 S 0.93684(9) 0.61383(9) 0.35299(8)
S25_7 S 0.96942(9) 0.49200(8) 0.42197(9)
S26_15 S 0.93675(9) 0.48929(9) 0.34575(9)
N11_15 N 0.9725(3) 0.4347(3) 0.3791(3)
N13_15 N 0.9884(4) 0.6341(3) 0.3073(3)
C51_15 C 0.9898(5) 0.4149(4) 0.4071(4)
H96_15 H 0.9830 0.3893 0.4051
H97_15 H 0.9814 0.4238 0.4306
C52_15 C 0.9611(5) 0.6590(4) 0.2899(4)
H98_15 H 0.9438 0.6668 0.3084
H99_15 H 0.9738 0.6806 0.2812
C53_15 C 0.9605(3) 0.4694(3) 0.3816(3)
C54_15 C 0.9410(7) 0.6435(5) 0.2600(5)
H100_15 H 0.9214 0.6287 0.2693
H101_15 H 0.9571 0.6285 0.2455
H102_15 H 0.9312 0.6627 0.2451
C56_15 C 0.9811(4) 0.6127(3) 0.3354(3)
C58_15 C 0.9309(6) 0.3941(5) 0.3417(5)
H105_15 H 0.9300 0.3744 0.3591
H106_15 H 0.9279 0.3845 0.3175
H107_15 H 0.9115 0.4111 0.3468
C61_15 C 0.9674(5) 0.4134(4) 0.3446(4)
H110_15 H 0.9868 0.3953 0.3428
H111_15 H 0.9699 0.4299 0.3239
Ag18_11 Ag 0.94982(3) 0.63046(2) 0.41864(2)
Ag19_7 Ag 0.90735(3) 0.51182(2) 0.44381(2)
S29_7 S 0.85299(8) 0.56316(9) 0.38617(9)
Ag14_8 Ag 0.58136(2) 0.44982(3) 0.86954(2)
Ag15_12 Ag 0.51182(2) 0.44381(2) 0.90735(3)
S21_16 S 0.48511(9) 0.41502(9) 0.85260(9)
S22_12 S 0.56316(9) 0.38617(9) 0.85299(8)
S25_8 S 0.53058(9) 0.50800(8) 0.92197(9)
S26_16 S 0.56325(9) 0.51071(9) 0.84575(9)
N11_16 N 0.5275(3) 0.5653(3) 0.8791(3)
N13_16 N 0.5116(4) 0.3659(3) 0.8073(3)
C51_16 C 0.5102(5) 0.5851(4) 0.9071(4)
H96_16 H 0.5170 0.6107 0.9051
H97_16 H 0.5186 0.5762 0.9306
C52_16 C 0.5389(5) 0.3410(4) 0.7899(4)
H98_16 H 0.5562 0.3332 0.8084
H99_16 H 0.5262 0.3194 0.7812
N14_16 N 0.3966(3) 0.4724(4) 0.8490(3)
C53_16 C 0.5395(3) 0.5306(3) 0.8816(3)
C54_16 C 0.5590(7) 0.3565(5) 0.7600(5)
H100_16 H 0.5786 0.3713 0.7693
H101_16 H 0.5429 0.3715 0.7455
H102_16 H 0.5688 0.3373 0.7451
C56_16 C 0.5189(4) 0.3873(3) 0.8354(3)
C57_16 C 0.4717(5) 0.3630(4) 0.7933(5)
H104_16 H 0.4620 0.3777 0.7750
C58_16 C 0.5691(6) 0.6059(5) 0.8417(5)
H105_16 H 0.5700 0.6256 0.8591
H106_16 H 0.5721 0.6155 0.8175
H107_16 H 0.5885 0.5889 0.8468
C59_16 C 0.4193(4) 0.4784(3) 0.8201(3)
C60_16 C 0.3940(4) 0.4978(5) 0.8843(4)
H108_16 H 0.4003 0.5229 0.8785
H109_16 H 0.3697 0.4971 0.8949
C61_16 C 0.5326(5) 0.5866(4) 0.8446(4)
H110_16 H 0.5132 0.6047 0.8428
H111_16 H 0.5301 0.5701 0.8239
C63_16 C 0.3660(5) 0.4459(6) 0.8475(5)
H115_16 H 0.3563 0.4445 0.8228
H116_16 H 0.3465 0.4535 0.8638
C64_16 C 0.4198(6) 0.4820(7) 0.9077(6)
H117_16 H 0.4390 0.4993 0.9125
H118_16 H 0.4299 0.4605 0.8965
H119_16 H 0.4082 0.4754 0.9303
C66_16 C 0.4680(5) 0.5816(5) 0.9051(6)
H120_16 H 0.4589 0.5963 0.8853
H121_16 H 0.4575 0.5899 0.9277
H122_16 H 0.4615 0.5565 0.9011
C67_16 C 0.4527(6) 0.3365(6) 0.8111(7)
H123_16 H 0.4439 0.3459 0.8339
H124_16 H 0.4684 0.3160 0.8155
H125_16 H 0.4324 0.3290 0.7963
C68_16 C 0.3812(6) 0.4078(6) 0.8595(8)
H126_16 H 0.3899 0.4092 0.8843
H127_16 H 0.4010 0.4009 0.8437
H128_16 H 0.3621 0.3898 0.8580
Ag18_12 Ag 0.55018(3) 0.36954(2) 0.91864(2)
Ag19_8 Ag 0.59265(3) 0.48818(2) 0.94381(2)
S29_8 S 0.64701(8) 0.43684(9) 0.88617(9)
S36_12 S 0.49200(8) 0.42197(9) 0.96942(9)
H139_16 H 0.480294 0.343131 0.772828
S26_17 S 0.01071(9) 0.65425(9) 0.43675(9)
N11_17 N 0.0653(3) 0.6209(3) 0.4725(3)
C51_17 C 0.0851(4) 0.5929(4) 0.4898(5)
H96_17 H 0.1107 0.5949 0.4830
H97_17 H 0.0762 0.5694 0.4814
C53_17 C 0.0306(3) 0.6184(3) 0.4605(3)
C58_17 C 0.1059(5) 0.6583(5) 0.4309(6)
H105_17 H 0.1256 0.6409 0.4300
H106_17 H 0.1155 0.6825 0.4279
H107_17 H 0.0889 0.6532 0.4115
H108_17 H 0.0229 0.6215 0.5997
C61_17 C 0.0866(4) 0.6554(4) 0.4674(5)
H110_17 H 0.1047 0.6572 0.4868
H111_17 H 0.0701 0.6761 0.4699
C66_17 C 0.0816(5) 0.5949(6) 0.5320(5)
H120_17 H 0.0963 0.6147 0.5411
H121_17 H 0.0899 0.5723 0.5425
H122_17 H 0.0565 0.5989 0.5385
Ag15_13 Ag 0.94381(2) 0.59265(3) 0.48818(2)
S21_17 S 0.91502(9) 0.64740(9) 0.51489(9)
S22_13 S 0.88617(9) 0.64701(8) 0.43684(9)
N13_17 N 0.8659(3) 0.6927(3) 0.4884(4)
C52_17 C 0.8410(4) 0.7101(4) 0.4611(5)
H98_17 H 0.8332 0.6916 0.4438
H99_17 H 0.8194 0.7188 0.4738
N14_17 N 0.9724(4) 0.6510(3) 0.6034(3)
C54_17 C 0.8565(5) 0.7400(5) 0.4410(7)
H100_17 H 0.8713 0.7307 0.4214
H101_17 H 0.8715 0.7545 0.4571
H102_17 H 0.8373 0.7549 0.4312
C56_17 C 0.8873(3) 0.6646(3) 0.4811(4)
C57_17 C 0.8630(4) 0.7067(5) 0.5283(5)
H104_17 H 0.8777 0.7250 0.5380
C59_17 C 0.9784(3) 0.6799(3) 0.5807(4)
C60_17 C 0.9978(5) 0.6157(4) 0.6060(4)
H109_17 H 0.9971 0.6051 0.6303
C63_17 C 0.9459(6) 0.6525(5) 0.6340(5)
H115_17 H 0.9445 0.6772 0.6437
H116_17 H 0.9535 0.6362 0.6535
C64_17 C 0.9820(7) 0.5923(6) 0.5802(6)
H117_17 H 0.9993 0.5875 0.5610
H118_17 H 0.9605 0.6035 0.5701
H119_17 H 0.9754 0.5697 0.5918
C67_17 C 0.8365(6) 0.6889(7) 0.5473(6)
H123_17 H 0.8459 0.6661 0.5561
H124_17 H 0.8160 0.6845 0.5316
H125_17 H 0.8290 0.7037 0.5676
C68_17 C 0.9078(6) 0.6405(8) 0.6188(6)
H126_17 H 0.9092 0.6157 0.6101
H127_17 H 0.9009 0.6563 0.5990
H128_17 H 0.8898 0.6420 0.6379
Ag18_13 Ag 0.86954(2) 0.58136(2) 0.44982(3)
S36_13 S 0.92197(9) 0.53058(9) 0.50800(8)
H139_17 H 0.843131 0.727172 0.519706
Ag15_14 Ag 0.05619(2) 0.09265(3) 0.01182(2)
S22_14 S 0.11383(9) 0.14701(8) 0.06316(9)
N13_18 N 0.1341(3) 0.1927(3) 0.0116(4)
C52_18 C 0.1590(4) 0.2101(4) 0.0389(5)
H98_18 H 0.1668 0.1916 0.0562
H99_18 H 0.1806 0.2188 0.0262
C54_18 C 0.1435(5) 0.2400(5) 0.0590(7)
H100_18 H 0.1287 0.2307 0.0786
H101_18 H 0.1285 0.2545 0.0429
H102_18 H 0.1627 0.2549 0.0688
C56_18 C 0.1127(3) 0.1646(3) 0.0189(4)
Ag18_14 Ag 0.13046(2) 0.08136(2) 0.05018(3)
S21_18 S 0.08498(9) 0.14740(9) 0.98511(9)
N14_18 N 0.0276(4) 0.1510(3) 0.8966(3)
C57_18 C 0.1370(4) 0.2067(5) 0.9717(5)
H104_18 H 0.1223 0.2250 0.9620
C59_18 C 0.0216(3) 0.1799(3) 0.9193(4)
C60_18 C 0.0022(5) 0.1157(4) 0.8940(4)
H109_18 H 0.0029 0.1051 0.8697
C63_18 C 0.0541(6) 0.1525(5) 0.8660(5)
H115_18 H 0.0555 0.1772 0.8563
H116_18 H 0.0465 0.1362 0.8465
C64_18 C 0.0180(7) 0.0923(6) 0.9198(6)
H117_18 H 0.0007 0.0875 0.9390
H118_18 H 0.0395 0.1035 0.9299
H119_18 H 0.0246 0.0697 0.9082
C67_18 C 0.1635(6) 0.1889(7) 0.9527(6)
H123_18 H 0.1541 0.1661 0.9439
H124_18 H 0.1840 0.1845 0.9684
H125_18 H 0.1710 0.2037 0.9324
C68_18 C 0.0922(6) 0.1405(8) 0.8812(6)
H126_18 H 0.0908 0.1157 0.8899
H127_18 H 0.0991 0.1563 0.9010
H128_18 H 0.1102 0.1420 0.8621
S36_14 S 0.07803(9) 0.03058(9) 0.99200(8)
H139_18 H 0.156869 0.227172 0.980294
S26_18 S 0.98929(9) 0.15425(9) 0.06325(9)
N11_18 N 0.9347(3) 0.1209(3) 0.0275(3)
C51_18 C 0.9149(4) 0.0929(4) 0.0102(5)
H96_18 H 0.8893 0.0949 0.0170
H97_18 H 0.9238 0.0694 0.0186
C53_18 C 0.9694(3) 0.1184(3) 0.0395(3)
C58_18 C 0.8941(5) 0.1583(5) 0.0691(6)
H105_18 H 0.8744 0.1409 0.0700
H106_18 H 0.8845 0.1825 0.0721
H107_18 H 0.9111 0.1532 0.0885
C61_18 C 0.9134(4) 0.1554(4) 0.0326(5)
H110_18 H 0.8953 0.1572 0.0132
H111_18 H 0.9299 0.1761 0.0301
H108_18 H 0.9771 0.1215 0.9003
C66_18 C 0.9184(5) 0.0949(6) 0.9680(5)
H120_18 H 0.9037 0.1147 0.9589
H121_18 H 0.9101 0.0723 0.9575
H122_18 H 0.9435 0.0989 0.9615
S21_19 S 0.58498(9) 0.35260(9) 0.01489(9)
N14_19 N 0.5276(4) 0.3490(3) 0.1034(3)
C57_19 C 0.6370(4) 0.2933(5) 0.0283(5)
H104_19 H 0.6223 0.2750 0.0380
C59_19 C 0.5216(3) 0.3201(3) 0.0807(4)
C60_19 C 0.5022(5) 0.3843(4) 0.1060(4)
H108_19 H 0.4771 0.3785 0.0997
H109_19 H 0.5029 0.3949 0.1303
C63_19 C 0.5541(6) 0.3475(5) 0.1340(5)
H115_19 H 0.5555 0.3228 0.1437
H116_19 H 0.5465 0.3638 0.1535
C64_19 C 0.5180(7) 0.4077(6) 0.0802(6)
H117_19 H 0.5007 0.4125 0.0610
H118_19 H 0.5395 0.3965 0.0701
H119_19 H 0.5246 0.4303 0.0918
C66_19 C 0.4184(5) 0.4051(6) 0.0320(5)
H120_19 H 0.4037 0.3853 0.0411
H121_19 H 0.4101 0.4277 0.0425
H122_19 H 0.4435 0.4011 0.0385
C67_19 C 0.6635(6) 0.3111(7) 0.0473(6)
H123_19 H 0.6541 0.3339 0.0561
H124_19 H 0.6840 0.3155 0.0316
H125_19 H 0.6710 0.2963 0.0676
C68_19 C 0.5922(6) 0.3595(8) 0.1188(6)
H126_19 H 0.5908 0.3843 0.1101
H127_19 H 0.5991 0.3437 0.0990
H128_19 H 0.6102 0.3580 0.1379
S36_15 S 0.57803(9) 0.46942(9) 0.00800(8)
H139_19 H 0.656869 0.272828 0.0197061
Ag15_15 Ag 0.55619(2) 0.40735(3) 0.98818(2)
S22_15 S 0.61383(9) 0.35299(8) 0.93684(9)
S26_19 S 0.48929(9) 0.34575(9) 0.93675(9)
N11_19 N 0.4347(3) 0.3791(3) 0.9725(3)
N13_19 N 0.6341(3) 0.3073(3) 0.9884(4)
C51_19 C 0.4149(4) 0.4071(4) 0.9898(5)
H96_19 H 0.3893 0.4051 0.9830
H97_19 H 0.4238 0.4306 0.9814
C52_19 C 0.6590(4) 0.2899(4) 0.9611(5)
H98_19 H 0.6668 0.3084 0.9438
H99_19 H 0.6806 0.2812 0.9738
C53_19 C 0.4694(3) 0.3816(3) 0.9605(3)
C54_19 C 0.6435(5) 0.2600(5) 0.9410(7)
H100_19 H 0.6287 0.2693 0.9214
H101_19 H 0.6285 0.2455 0.9571
H102_19 H 0.6627 0.2451 0.9312
C56_19 C 0.6127(3) 0.3354(3) 0.9811(4)
C58_19 C 0.3941(5) 0.3417(5) 0.9309(6)
H105_19 H 0.3744 0.3591 0.9300
H106_19 H 0.3845 0.3175 0.9279
H107_19 H 0.4111 0.3468 0.9115
C61_19 C 0.4134(4) 0.3446(4) 0.9674(5)
H110_19 H 0.3953 0.3428 0.9868
H111_19 H 0.4299 0.3239 0.9699
Ag18_15 Ag 0.63046(2) 0.41864(2) 0.94982(3)
Ag15_16 Ag 0.44381(2) 0.90735(3) 0.51182(2)
S21_20 S 0.41502(9) 0.85260(9) 0.48511(9)
S22_16 S 0.38617(9) 0.85299(8) 0.56316(9)
S26_20 S 0.51071(9) 0.84575(9) 0.56325(9)
N11_20 N 0.5653(3) 0.8791(3) 0.5275(3)
N13_20 N 0.3659(3) 0.8073(3) 0.5116(4)
C51_20 C 0.5851(4) 0.9071(4) 0.5102(5)
H96_20 H 0.6107 0.9051 0.5170
H97_20 H 0.5762 0.9306 0.5186
C52_20 C 0.3410(4) 0.7899(4) 0.5389(5)
H98_20 H 0.3332 0.8084 0.5562
H99_20 H 0.3194 0.7812 0.5262
N14_20 N 0.4724(4) 0.8490(3) 0.3966(3)
C53_20 C 0.5306(3) 0.8816(3) 0.5395(3)
C54_20 C 0.3565(5) 0.7600(5) 0.5590(7)
H100_20 H 0.3713 0.7693 0.5786
H101_20 H 0.3715 0.7455 0.5429
H102_20 H 0.3373 0.7451 0.5688
C56_20 C 0.3873(3) 0.8354(3) 0.5189(4)
C57_20 C 0.3630(4) 0.7933(5) 0.4717(5)
H104_20 H 0.3777 0.7750 0.4620
C58_20 C 0.6059(5) 0.8417(5) 0.5691(6)
H105_20 H 0.6256 0.8591 0.5700
H106_20 H 0.6155 0.8175 0.5721
H107_20 H 0.5889 0.8468 0.5885
C59_20 C 0.4784(3) 0.8201(3) 0.4193(4)
C60_20 C 0.4978(5) 0.8843(4) 0.3940(4)
H108_20 H 0.5229 0.8785 0.4003
H109_20 H 0.4971 0.8949 0.3697
C61_20 C 0.5866(4) 0.8446(4) 0.5326(5)
H110_20 H 0.6047 0.8428 0.5132
H111_20 H 0.5701 0.8239 0.5301
C63_20 C 0.4459(6) 0.8475(5) 0.3660(5)
H115_20 H 0.4445 0.8228 0.3563
H116_20 H 0.4535 0.8638 0.3465
C64_20 C 0.4820(7) 0.9077(6) 0.4198(6)
H117_20 H 0.4993 0.9125 0.4390
H118_20 H 0.4605 0.8965 0.4299
H119_20 H 0.4754 0.9303 0.4082
C66_20 C 0.5816(5) 0.9051(6) 0.4680(5)
H120_20 H 0.5963 0.8853 0.4589
H121_20 H 0.5899 0.9277 0.4575
H122_20 H 0.5565 0.9011 0.4615
C67_20 C 0.3365(6) 0.8111(7) 0.4527(6)
H123_20 H 0.3459 0.8339 0.4439
H124_20 H 0.3160 0.8155 0.4684
H125_20 H 0.3290 0.7963 0.4324
C68_20 C 0.4078(6) 0.8595(8) 0.3812(6)
H126_20 H 0.4092 0.8843 0.3899
H127_20 H 0.4009 0.8437 0.4010
H128_20 H 0.3898 0.8580 0.3621
Ag18_16 Ag 0.36954(2) 0.91864(2) 0.55018(3)
S36_16 S 0.42197(9) 0.96942(9) 0.49200(8)
H139_20 H 0.343131 0.772828 0.480294
S26_21 S 0.65425(9) 0.43675(9) 0.01071(9)
N11_21 N 0.6209(3) 0.4725(3) 0.0653(3)
C51_21 C 0.5929(4) 0.4898(5) 0.0851(4)
H96_21 H 0.5949 0.4830 0.1107
H97_21 H 0.5694 0.4814 0.0762
C53_21 C 0.6184(3) 0.4605(3) 0.0306(3)
C58_21 C 0.6583(5) 0.4309(6) 0.1059(5)
H105_21 H 0.6409 0.4300 0.1256
H106_21 H 0.6825 0.4279 0.1155
H107_21 H 0.6532 0.4115 0.0889
H108_21 H 0.6215 0.5997 0.0229
C61_21 C 0.6554(4) 0.4674(5) 0.0866(4)
H110_21 H 0.6572 0.4868 0.1047
H111_21 H 0.6761 0.4699 0.0701
C66_21 C 0.5949(6) 0.5320(5) 0.0816(5)
H120_21 H 0.6147 0.5411 0.0963
H121_21 H 0.5723 0.5425 0.0899
H122_21 H 0.5989 0.5385 0.0565
S21_21 S 0.64740(9) 0.51489(9) 0.91502(9)
N13_21 N 0.6927(3) 0.4884(4) 0.8659(3)
C52_21 C 0.7101(4) 0.4611(5) 0.8410(4)
H98_21 H 0.6916 0.4438 0.8332
H99_21 H 0.7188 0.4738 0.8194
N14_21 N 0.6510(3) 0.6034(3) 0.9724(4)
C54_21 C 0.7400(5) 0.4410(7) 0.8565(5)
H100_21 H 0.7307 0.4214 0.8713
H101_21 H 0.7545 0.4571 0.8715
H102_21 H 0.7549 0.4312 0.8373
C56_21 C 0.6646(3) 0.4811(4) 0.8873(3)
C57_21 C 0.7067(5) 0.5283(5) 0.8630(4)
H104_21 H 0.7250 0.5380 0.8777
C59_21 C 0.6799(3) 0.5807(4) 0.9784(3)
C60_21 C 0.6157(4) 0.6060(4) 0.9978(5)
H109_21 H 0.6051 0.6303 0.9971
C63_21 C 0.6525(5) 0.6340(5) 0.9459(6)
H115_21 H 0.6772 0.6437 0.9445
H116_21 H 0.6362 0.6535 0.9535
C64_21 C 0.5923(6) 0.5802(6) 0.9820(7)
H117_21 H 0.5875 0.5610 0.9993
H118_21 H 0.6035 0.5701 0.9605
H119_21 H 0.5697 0.5918 0.9754
C67_21 C 0.6889(7) 0.5473(6) 0.8365(6)
H123_21 H 0.6661 0.5561 0.8459
H124_21 H 0.6845 0.5316 0.8160
H125_21 H 0.7037 0.5676 0.8290
C68_21 C 0.6405(8) 0.6188(6) 0.9078(6)
H126_21 H 0.6157 0.6101 0.9092
H127_21 H 0.6563 0.5990 0.9009
H128_21 H 0.6420 0.6379 0.8898
H139_21 H 0.727172 0.519706 0.843131
N13_22 N 0.1927(3) 0.0116(4) 0.1341(3)
C52_22 C 0.2101(4) 0.0389(5) 0.1590(4)
H98_22 H 0.1916 0.0562 0.1668
H99_22 H 0.2188 0.0262 0.1806
C54_22 C 0.2400(5) 0.0590(7) 0.1435(5)
H100_22 H 0.2307 0.0786 0.1287
H101_22 H 0.2545 0.0429 0.1285
H102_22 H 0.2549 0.0688 0.1627
C56_22 C 0.1646(3) 0.0189(4) 0.1127(3)
S26_22 S 0.15425(9) 0.06325(9) 0.98929(9)
N11_22 N 0.1209(3) 0.0275(3) 0.9347(3)
C51_22 C 0.0929(4) 0.0102(5) 0.9149(4)
H96_22 H 0.0949 0.0170 0.8893
H97_22 H 0.0694 0.0186 0.9238
C53_22 C 0.1184(3) 0.0395(3) 0.9694(3)
C58_22 C 0.1583(5) 0.0691(6) 0.8941(5)
H105_22 H 0.1409 0.0700 0.8744
H106_22 H 0.1825 0.0721 0.8845
H107_22 H 0.1532 0.0885 0.9111
C61_22 C 0.1554(4) 0.0326(5) 0.9134(4)
H110_22 H 0.1572 0.0132 0.8953
H111_22 H 0.1761 0.0301 0.9299
S21_22 S 0.14740(9) 0.98511(9) 0.08498(9)
N14_22 N 0.1510(3) 0.8966(3) 0.0276(4)
C57_22 C 0.2067(5) 0.9717(5) 0.1370(4)
H104_22 H 0.2250 0.9620 0.1223
C59_22 C 0.1799(3) 0.9193(4) 0.0216(3)
C60_22 C 0.1157(4) 0.8940(4) 0.0022(5)
H109_22 H 0.1051 0.8697 0.0029
C63_22 C 0.1525(5) 0.8660(5) 0.0541(6)
H115_22 H 0.1772 0.8563 0.0555
H116_22 H 0.1362 0.8465 0.0465
C64_22 C 0.0923(6) 0.9198(6) 0.0180(7)
H117_22 H 0.0875 0.9390 0.0007
H118_22 H 0.1035 0.9299 0.0395
H119_22 H 0.0697 0.9082 0.0246
C67_22 C 0.1889(7) 0.9527(6) 0.1635(6)
H123_22 H 0.1661 0.9439 0.1541
H124_22 H 0.1845 0.9684 0.1840
H125_22 H 0.2037 0.9324 0.1710
C68_22 C 0.1405(8) 0.8812(6) 0.0922(6)
H126_22 H 0.1157 0.8899 0.0908
H127_22 H 0.1563 0.9010 0.0991
H128_22 H 0.1420 0.8621 0.1102
H139_22 H 0.227172 0.980294 0.156869
H108_22 H 0.1215 0.9003 0.9771
C66_22 C 0.0949(6) 0.9680(5) 0.9184(5)
H120_22 H 0.1147 0.9589 0.9037
H121_22 H 0.0723 0.9575 0.9101
H122_22 H 0.0989 0.9615 0.9435
S21_23 S 0.35260(9) 0.01489(9) 0.58498(9)
N14_23 N 0.3490(3) 0.1034(3) 0.5276(4)
C57_23 C 0.2933(5) 0.0283(5) 0.6370(4)
H104_23 H 0.2750 0.0380 0.6223
C59_23 C 0.3201(3) 0.0807(4) 0.5216(3)
C60_23 C 0.3843(4) 0.1060(4) 0.5022(5)
H108_23 H 0.3785 0.0997 0.4771
H109_23 H 0.3949 0.1303 0.5029
C63_23 C 0.3475(5) 0.1340(5) 0.5541(6)
H115_23 H 0.3228 0.1437 0.5555
H116_23 H 0.3638 0.1535 0.5465
C64_23 C 0.4077(6) 0.0802(6) 0.5180(7)
H117_23 H 0.4125 0.0610 0.5007
H118_23 H 0.3965 0.0701 0.5395
H119_23 H 0.4303 0.0918 0.5246
C66_23 C 0.4051(6) 0.0320(5) 0.4184(5)
H120_23 H 0.3853 0.0411 0.4037
H121_23 H 0.4277 0.0425 0.4101
H122_23 H 0.4011 0.0385 0.4435
C67_23 C 0.3111(7) 0.0473(6) 0.6635(6)
H123_23 H 0.3339 0.0561 0.6541
H124_23 H 0.3155 0.0316 0.6840
H125_23 H 0.2963 0.0676 0.6710
C68_23 C 0.3595(8) 0.1188(6) 0.5922(6)
H126_23 H 0.3843 0.1101 0.5908
H127_23 H 0.3437 0.0990 0.5991
H128_23 H 0.3580 0.1379 0.6102
H139_23 H 0.272828 0.0197061 0.656869
S26_23 S 0.34575(9) 0.93675(9) 0.48929(9)
N11_23 N 0.3791(3) 0.9725(3) 0.4347(3)
N13_23 N 0.3073(3) 0.9884(4) 0.6341(3)
C51_23 C 0.4071(4) 0.9898(5) 0.4149(4)
H96_23 H 0.4051 0.9830 0.3893
H97_23 H 0.4306 0.9814 0.4238
C52_23 C 0.2899(4) 0.9611(5) 0.6590(4)
H98_23 H 0.3084 0.9438 0.6668
H99_23 H 0.2812 0.9738 0.6806
C53_23 C 0.3816(3) 0.9605(3) 0.4694(3)
C54_23 C 0.2600(5) 0.9410(7) 0.6435(5)
H100_23 H 0.2693 0.9214 0.6287
H101_23 H 0.2455 0.9571 0.6285
H102_23 H 0.2451 0.9312 0.6627
C56_23 C 0.3354(3) 0.9811(4) 0.6127(3)
C58_23 C 0.3417(5) 0.9309(6) 0.3941(5)
H105_23 H 0.3591 0.9300 0.3744
H106_23 H 0.3175 0.9279 0.3845
H107_23 H 0.3468 0.9115 0.4111
C61_23 C 0.3446(4) 0.9674(5) 0.4134(4)
H110_23 H 0.3428 0.9868 0.3953
H111_23 H 0.3239 0.9699 0.4299
S21_24 S 0.85260(9) 0.48511(9) 0.41502(9)
S26_24 S 0.84575(9) 0.56325(9) 0.51071(9)
N11_24 N 0.8791(3) 0.5275(3) 0.5653(3)
N13_24 N 0.8073(3) 0.5116(4) 0.3659(3)
C51_24 C 0.9071(4) 0.5102(5) 0.5851(4)
H96_24 H 0.9051 0.5170 0.6107
H97_24 H 0.9306 0.5186 0.5762
C52_24 C 0.7899(4) 0.5389(5) 0.3410(4)
H98_24 H 0.8084 0.5562 0.3332
H99_24 H 0.7812 0.5262 0.3194
N14_24 N 0.8490(3) 0.3966(3) 0.4724(4)
C53_24 C 0.8816(3) 0.5395(3) 0.5306(3)
C54_24 C 0.7600(5) 0.5590(7) 0.3565(5)
H100_24 H 0.7693 0.5786 0.3713
H101_24 H 0.7455 0.5429 0.3715
H102_24 H 0.7451 0.5688 0.3373
C56_24 C 0.8354(3) 0.5189(4) 0.3873(3)
C57_24 C 0.7933(5) 0.4717(5) 0.3630(4)
H104_24 H 0.7750 0.4620 0.3777
C58_24 C 0.8417(5) 0.5691(6) 0.6059(5)
H105_24 H 0.8591 0.5700 0.6256
H106_24 H 0.8175 0.5721 0.6155
H107_24 H 0.8468 0.5885 0.5889
C59_24 C 0.8201(3) 0.4193(4) 0.4784(3)
C60_24 C 0.8843(4) 0.3940(4) 0.4978(5)
H108_24 H 0.8785 0.4003 0.5229
H109_24 H 0.8949 0.3697 0.4971
C61_24 C 0.8446(4) 0.5326(5) 0.5866(4)
H110_24 H 0.8428 0.5132 0.6047
H111_24 H 0.8239 0.5301 0.5701
C63_24 C 0.8475(5) 0.3660(5) 0.4459(6)
H115_24 H 0.8228 0.3563 0.4445
H116_24 H 0.8638 0.3465 0.4535
C64_24 C 0.9077(6) 0.4198(6) 0.4820(7)
H117_24 H 0.9125 0.4390 0.4993
H118_24 H 0.8965 0.4299 0.4605
H119_24 H 0.9303 0.4082 0.4754
C66_24 C 0.9051(6) 0.4680(5) 0.5816(5)
H120_24 H 0.8853 0.4589 0.5963
H121_24 H 0.9277 0.4575 0.5899
H122_24 H 0.9011 0.4615 0.5565
C67_24 C 0.8111(7) 0.4527(6) 0.3365(6)
H123_24 H 0.8339 0.4439 0.3459
H124_24 H 0.8155 0.4684 0.3160
H125_24 H 0.7963 0.4324 0.3290
C68_24 C 0.8595(8) 0.3812(6) 0.4078(6)
H126_24 H 0.8843 0.3899 0.4092
H127_24 H 0.8437 0.4010 0.4009
H128_24 H 0.8580 0.3621 0.3898
H139_24 H 0.772828 0.480294 0.343131
H101_25 H 0.1215 0.7071 0.0045
H102_25 H 0.0873 0.6812 0.0049
Ag14_9 Ag 0.19982(3) 0.66864(2) 0.88046(2)
Ag15_17 Ag 0.19381(2) 0.73818(2) 0.84265(3)
S21_25 S 0.16502(9) 0.76489(9) 0.89740(9)
S22_17 S 0.13617(9) 0.68684(9) 0.89701(8)
S25_9 S 0.25800(8) 0.71942(9) 0.82803(9)
S26_25 S 0.26071(9) 0.68675(9) 0.90425(9)
N11_25 N 0.3153(3) 0.7225(3) 0.8709(3)
N13_25 N 0.1159(3) 0.7384(4) 0.9427(3)
C51_25 C 0.3351(4) 0.7398(5) 0.8429(4)
H96_25 H 0.3607 0.7330 0.8449
H97_25 H 0.3262 0.7314 0.8194
C52_25 C 0.0910(4) 0.7111(5) 0.9601(4)
H98_25 H 0.0832 0.6938 0.9416
H99_25 H 0.0694 0.7238 0.9688
N14_25 N 0.2224(4) 0.8534(3) 0.9010(3)
C53_25 C 0.2806(3) 0.7105(3) 0.8684(3)
C54_25 C 0.1065(5) 0.6910(7) 0.9900(5)
H100_25 H 0.1213 0.6714 0.9807
C56_25 C 0.1373(3) 0.7311(4) 0.9146(3)
C57_25 C 0.1130(4) 0.7783(5) 0.9567(5)
H104_25 H 0.1277 0.7880 0.9750
C58_25 C 0.3559(5) 0.6809(6) 0.9083(5)
H105_25 H 0.3756 0.6800 0.8909
H106_25 H 0.3655 0.6779 0.9325
H107_25 H 0.3389 0.6615 0.9032
C59_25 C 0.2284(3) 0.8307(4) 0.9299(3)
C60_25 C 0.2478(5) 0.8560(4) 0.8657(4)
H108_25 H 0.2729 0.8497 0.8715
H109_25 H 0.2471 0.8803 0.8551
C61_25 C 0.3366(4) 0.7174(5) 0.9054(4)
H110_25 H 0.3547 0.7368 0.9072
H111_25 H 0.3201 0.7199 0.9261
C63_25 C 0.1959(6) 0.8840(5) 0.9025(5)
H115_25 H 0.1945 0.8937 0.9272
H116_25 H 0.2035 0.9035 0.8862
C64_25 C 0.2320(7) 0.8302(6) 0.8423(6)
H117_25 H 0.2493 0.8110 0.8375
H118_25 H 0.2105 0.8201 0.8535
H119_25 H 0.2254 0.8418 0.8197
C66_25 C 0.3316(5) 0.7820(5) 0.8449(6)
H120_25 H 0.3463 0.7911 0.8647
H121_25 H 0.3399 0.7925 0.8223
H122_25 H 0.3065 0.7885 0.8489
C67_25 C 0.0865(6) 0.7973(6) 0.9389(7)
H123_25 H 0.0959 0.8061 0.9161
H124_25 H 0.0660 0.7816 0.9345
H125_25 H 0.0790 0.8176 0.9537
C68_25 C 0.1578(6) 0.8688(6) 0.8905(8)
H126_25 H 0.1592 0.8601 0.8657
H127_25 H 0.1509 0.8490 0.9063
H128_25 H 0.1398 0.8879 0.8920
Ag18_17 Ag 0.11954(2) 0.69982(3) 0.83136(2)
Ag19_9 Ag 0.23818(2) 0.65735(3) 0.80619(2)
S29_9 S 0.18684(9) 0.60299(8) 0.86383(9)
S36_17 S 0.17197(9) 0.75800(8) 0.78058(9)
H139_25 H 0.0931314 0.769706 0.977172
Ag14_10 Ag 0.30018(3) 0.33136(2) 0.38046(2)
Ag15_18 Ag 0.30619(2) 0.26182(2) 0.34265(3)
S21_26 S 0.33498(9) 0.23511(9) 0.39740(9)
S22_18 S 0.36383(9) 0.31316(9) 0.39701(8)
S25_10 S 0.24200(8) 0.28058(9) 0.32803(9)
S26_26 S 0.23929(9) 0.31325(9) 0.40425(9)
N11_26 N 0.1847(3) 0.2775(3) 0.3709(3)
N13_26 N 0.3841(3) 0.2616(4) 0.4427(3)
C51_26 C 0.1649(4) 0.2602(5) 0.3429(4)
H96_26 H 0.1393 0.2670 0.3449
H97_26 H 0.1738 0.2686 0.3194
C52_26 C 0.4090(4) 0.2889(5) 0.4601(4)
H98_26 H 0.4168 0.3062 0.4416
H99_26 H 0.4306 0.2762 0.4688
N14_26 N 0.2776(4) 0.1466(3) 0.4010(3)
C53_26 C 0.2194(3) 0.2895(3) 0.3684(3)
C54_26 C 0.3935(5) 0.3090(7) 0.4900(5)
H100_26 H 0.3787 0.3286 0.4807
H101_26 H 0.3785 0.2929 0.5045
H102_26 H 0.4127 0.3188 0.5049
C56_26 C 0.3627(3) 0.2689(4) 0.4146(3)
C57_26 C 0.3870(4) 0.2217(5) 0.4567(5)
H104_26 H 0.3723 0.2120 0.4750
C58_26 C 0.1441(5) 0.3191(6) 0.4083(5)
H105_26 H 0.1244 0.3200 0.3909
H106_26 H 0.1345 0.3221 0.4325
H107_26 H 0.1611 0.3385 0.4032
C59_26 C 0.2716(3) 0.1693(4) 0.4299(3)
C60_26 C 0.2522(5) 0.1440(4) 0.3657(4)
H108_26 H 0.2271 0.1503 0.3715
H109_26 H 0.2529 0.1197 0.3551
C61_26 C 0.1634(4) 0.2826(5) 0.4054(4)
H110_26 H 0.1453 0.2632 0.4072
H111_26 H 0.1799 0.2801 0.4261
C63_26 C 0.3041(6) 0.1160(5) 0.4025(5)
H115_26 H 0.3055 0.1063 0.4272
H116_26 H 0.2965 0.0965 0.3862
C64_26 C 0.2680(7) 0.1698(6) 0.3423(6)
H117_26 H 0.2507 0.1890 0.3375
H118_26 H 0.2895 0.1799 0.3535
H119_26 H 0.2746 0.1582 0.3197
C66_26 C 0.1684(5) 0.2180(5) 0.3449(6)
H120_26 H 0.1537 0.2089 0.3647
H121_26 H 0.1601 0.2075 0.3223
H122_26 H 0.1935 0.2115 0.3489
C67_26 C 0.4135(6) 0.2027(6) 0.4389(7)
H123_26 H 0.4041 0.1939 0.4161
H124_26 H 0.4340 0.2184 0.4345
H125_26 H 0.4210 0.1824 0.4537
C68_26 C 0.3422(6) 0.1312(6) 0.3905(8)
H126_26 H 0.3408 0.1399 0.3657
H127_26 H 0.3491 0.1510 0.4063
H128_26 H 0.3602 0.1121 0.3920
Ag18_18 Ag 0.38046(2) 0.30018(3) 0.33136(2)
Ag19_10 Ag 0.26182(2) 0.34265(3) 0.30619(2)
S29_10 S 0.31316(9) 0.39701(8) 0.36383(9)
S36_18 S 0.32803(9) 0.24200(8) 0.28058(9)
H139_26 H 0.406869 0.230294 0.477172
Ag14_11 Ag 0.80018(3) 0.16864(2) 0.61954(2)
Ag15_19 Ag 0.80619(2) 0.23818(2) 0.65735(3)
S21_27 S 0.83498(9) 0.26489(9) 0.60260(9)
S22_19 S 0.86383(9) 0.18684(9) 0.60299(8)
S25_11 S 0.74200(8) 0.21942(9) 0.67197(9)
S26_27 S 0.73929(9) 0.18675(9) 0.59575(9)
N11_27 N 0.6847(3) 0.2225(3) 0.6291(3)
N13_27 N 0.8841(3) 0.2384(4) 0.5573(3)
C51_27 C 0.6649(4) 0.2398(5) 0.6571(4)
H96_27 H 0.6393 0.2330 0.6551
H97_27 H 0.6738 0.2314 0.6806
C52_27 C 0.9090(4) 0.2111(5) 0.5399(4)
H98_27 H 0.9168 0.1938 0.5584
H99_27 H 0.9306 0.2238 0.5312
N14_27 N 0.7776(4) 0.3534(3) 0.5990(3)
C53_27 C 0.7194(3) 0.2105(3) 0.6316(3)
C54_27 C 0.8935(5) 0.1910(7) 0.5100(5)
H100_27 H 0.8787 0.1714 0.5193
H101_27 H 0.8785 0.2071 0.4955
H102_27 H 0.9127 0.1812 0.4951
C56_27 C 0.8627(3) 0.2311(4) 0.5854(3)
C57_27 C 0.8870(4) 0.2783(5) 0.5433(5)
H104_27 H 0.8723 0.2880 0.5250
C58_27 C 0.6441(5) 0.1809(6) 0.5917(5)
H105_27 H 0.6244 0.1800 0.6091
H106_27 H 0.6345 0.1779 0.5675
H107_27 H 0.6611 0.1615 0.5968
C59_27 C 0.7716(3) 0.3307(4) 0.5701(3)
C60_27 C 0.7522(5) 0.3560(4) 0.6343(4)
H108_27 H 0.7271 0.3497 0.6285
H109_27 H 0.7529 0.3803 0.6449
C61_27 C 0.6634(4) 0.2174(5) 0.5946(4)
H110_27 H 0.6453 0.2368 0.5928
H111_27 H 0.6799 0.2199 0.5739
C63_27 C 0.8041(6) 0.3840(5) 0.5975(5)
H115_27 H 0.8055 0.3937 0.5728
H116_27 H 0.7965 0.4035 0.6138
C64_27 C 0.7680(7) 0.3302(6) 0.6577(6)
H117_27 H 0.7507 0.3110 0.6625
H118_27 H 0.7895 0.3201 0.6465
H119_27 H 0.7746 0.3418 0.6803
C66_27 C 0.6684(5) 0.2820(5) 0.6551(6)
H120_27 H 0.6537 0.2911 0.6353
H121_27 H 0.6601 0.2925 0.6777
H122_27 H 0.6935 0.2885 0.6511
C67_27 C 0.9135(6) 0.2973(6) 0.5611(7)
H123_27 H 0.9041 0.3061 0.5839
H124_27 H 0.9340 0.2816 0.5655
H125_27 H 0.9210 0.3176 0.5463
C68_27 C 0.8422(6) 0.3688(6) 0.6095(8)
H126_27 H 0.8408 0.3601 0.6343
H127_27 H 0.8491 0.3490 0.5937
H128_27 H 0.8602 0.3879 0.6080
Ag18_19 Ag 0.88046(2) 0.19982(3) 0.66864(2)
Ag19_11 Ag 0.76182(2) 0.15735(3) 0.69381(2)
S29_11 S 0.81316(9) 0.10299(8) 0.63617(9)
S36_19 S 0.82803(9) 0.25800(8) 0.71942(9)
H139_27 H 0.906869 0.269706 0.522828
Ag14_12 Ag 0.69982(3) 0.83136(2) 0.11954(2)
Ag15_20 Ag 0.69381(2) 0.76182(2) 0.15735(3)
S21_28 S 0.66502(9) 0.73511(9) 0.10260(9)
S22_20 S 0.63617(9) 0.81316(9) 0.10299(8)
S25_12 S 0.75800(8) 0.78058(9) 0.17197(9)
S26_28 S 0.76071(9) 0.81325(9) 0.09575(9)
N11_28 N 0.8153(3) 0.7775(3) 0.1291(3)
N13_28 N 0.6159(3) 0.7616(4) 0.0573(3)
C51_28 C 0.8351(4) 0.7602(5) 0.1571(4)
H96_28 H 0.8607 0.7670 0.1551
H97_28 H 0.8262 0.7686 0.1806
C52_28 C 0.5910(4) 0.7889(5) 0.0399(4)
H98_28 H 0.5832 0.8062 0.0584
H99_28 H 0.5694 0.7762 0.0312
N14_28 N 0.7224(4) 0.6466(3) 0.0990(3)
C53_28 C 0.7806(3) 0.7895(3) 0.1316(3)
C54_28 C 0.6065(5) 0.8090(7) 0.0100(5)
H100_28 H 0.6213 0.8286 0.0193
C56_28 C 0.6373(3) 0.7689(4) 0.0854(3)
C57_28 C 0.6130(4) 0.7217(5) 0.0433(5)
H104_28 H 0.6277 0.7120 0.0250
C58_28 C 0.8559(5) 0.8191(6) 0.0917(5)
H105_28 H 0.8756 0.8200 0.1091
H106_28 H 0.8655 0.8221 0.0675
H107_28 H 0.8389 0.8385 0.0968
C59_28 C 0.7284(3) 0.6693(4) 0.0701(3)
C60_28 C 0.7478(5) 0.6440(4) 0.1343(4)
H108_28 H 0.7729 0.6503 0.1285
H109_28 H 0.7471 0.6197 0.1449
C61_28 C 0.8366(4) 0.7826(5) 0.0946(4)
H110_28 H 0.8547 0.7632 0.0928
H111_28 H 0.8201 0.7801 0.0739
C63_28 C 0.6959(6) 0.6160(5) 0.0975(5)
H115_28 H 0.6945 0.6063 0.0728
H116_28 H 0.7035 0.5965 0.1138
C64_28 C 0.7320(7) 0.6698(6) 0.1577(6)
H117_28 H 0.7493 0.6890 0.1625
H118_28 H 0.7105 0.6799 0.1465
H119_28 H 0.7254 0.6582 0.1803
C66_28 C 0.8316(5) 0.7180(5) 0.1551(6)
H120_28 H 0.8463 0.7089 0.1353
H121_28 H 0.8399 0.7075 0.1777
H122_28 H 0.8065 0.7115 0.1511
C67_28 C 0.5865(6) 0.7027(6) 0.0611(7)
H123_28 H 0.5959 0.6939 0.0839
H124_28 H 0.5660 0.7184 0.0655
H125_28 H 0.5790 0.6824 0.0463
C68_28 C 0.6578(6) 0.6312(6) 0.1095(8)
H126_28 H 0.6592 0.6399 0.1343
H127_28 H 0.6509 0.6510 0.0937
H128_28 H 0.6398 0.6121 0.1080
Ag18_20 Ag 0.61954(2) 0.80018(3) 0.16864(2)
Ag19_12 Ag 0.73818(2) 0.84265(3) 0.19381(2)
S29_12 S 0.68684(9) 0.89701(8) 0.13617(9)
S36_20 S 0.67197(9) 0.74200(8) 0.21942(9)
H139_28 H 0.593131 0.730294 0.0228282
H101_28 H 0.6215 0.7929 0.9955
H102_28 H 0.5873 0.8188 0.9951
H101_29 H 0.0045 0.1215 0.7071
H102_29 H 0.0049 0.0873 0.6812
Ag15_21 Ag 0.84265(3) 0.19381(2) 0.73818(2)
S21_29 S 0.89740(9) 0.16502(9) 0.76489(9)
S22_21 S 0.89701(8) 0.13617(9) 0.68684(9)
S26_29 S 0.90425(9) 0.26071(9) 0.68675(9)
N11_29 N 0.8709(3) 0.3153(3) 0.7225(3)
N13_29 N 0.9427(3) 0.1159(3) 0.7384(4)
C51_29 C 0.8429(4) 0.3351(4) 0.7398(5)
H96_29 H 0.8449 0.3607 0.7330
H97_29 H 0.8194 0.3262 0.7314
C52_29 C 0.9601(4) 0.0910(4) 0.7111(5)
H98_29 H 0.9416 0.0832 0.6938
H99_29 H 0.9688 0.0694 0.7238
N14_29 N 0.9010(3) 0.2224(4) 0.8534(3)
C53_29 C 0.8684(3) 0.2806(3) 0.7105(3)
C54_29 C 0.9900(5) 0.1065(5) 0.6910(7)
H100_29 H 0.9807 0.1213 0.6714
C56_29 C 0.9146(3) 0.1373(3) 0.7311(4)
C57_29 C 0.9567(5) 0.1130(4) 0.7783(5)
H104_29 H 0.9750 0.1277 0.7880
C58_29 C 0.9083(5) 0.3559(5) 0.6809(6)
H105_29 H 0.8909 0.3756 0.6800
H106_29 H 0.9325 0.3655 0.6779
H107_29 H 0.9032 0.3389 0.6615
C59_29 C 0.9299(3) 0.2284(3) 0.8307(4)
C60_29 C 0.8657(4) 0.2478(5) 0.8560(4)
H108_29 H 0.8715 0.2729 0.8497
H109_29 H 0.8551 0.2471 0.8803
C61_29 C 0.9054(4) 0.3366(4) 0.7174(5)
H110_29 H 0.9072 0.3547 0.7368
H111_29 H 0.9261 0.3201 0.7199
C63_29 C 0.9025(5) 0.1959(6) 0.8840(5)
H115_29 H 0.9272 0.1945 0.8937
H116_29 H 0.8862 0.2035 0.9035
C64_29 C 0.8423(6) 0.2320(7) 0.8302(6)
H117_29 H 0.8375 0.2493 0.8110
H118_29 H 0.8535 0.2105 0.8201
H119_29 H 0.8197 0.2254 0.8418
C66_29 C 0.8449(6) 0.3316(5) 0.7820(5)
H120_29 H 0.8647 0.3463 0.7911
H121_29 H 0.8223 0.3399 0.7925
H122_29 H 0.8489 0.3065 0.7885
C67_29 C 0.9389(7) 0.0865(6) 0.7973(6)
H123_29 H 0.9161 0.0959 0.8061
H124_29 H 0.9345 0.0660 0.7816
H125_29 H 0.9537 0.0790 0.8176
C68_29 C 0.8905(8) 0.1578(6) 0.8688(6)
H126_29 H 0.8657 0.1592 0.8601
H127_29 H 0.9063 0.1509 0.8490
H128_29 H 0.8920 0.1398 0.8879
Ag18_21 Ag 0.83136(2) 0.11954(2) 0.69982(3)
S36_21 S 0.78058(9) 0.17197(9) 0.75800(8)
H139_29 H 0.977172 0.0931314 0.769706
Ag15_22 Ag 0.34265(3) 0.30619(2) 0.26182(2)
S21_30 S 0.39740(9) 0.33498(9) 0.23511(9)
S22_22 S 0.39701(8) 0.36383(9) 0.31316(9)
S26_30 S 0.40425(9) 0.23929(9) 0.31325(9)
N11_30 N 0.3709(3) 0.1847(3) 0.2775(3)
N13_30 N 0.4427(3) 0.3841(3) 0.2616(4)
C51_30 C 0.3429(4) 0.1649(4) 0.2602(5)
H96_30 H 0.3449 0.1393 0.2670
H97_30 H 0.3194 0.1738 0.2686
C52_30 C 0.4601(4) 0.4090(4) 0.2889(5)
H98_30 H 0.4416 0.4168 0.3062
H99_30 H 0.4688 0.4306 0.2762
N14_30 N 0.4010(3) 0.2776(4) 0.1466(3)
C53_30 C 0.3684(3) 0.2194(3) 0.2895(3)
C54_30 C 0.4900(5) 0.3935(5) 0.3090(7)
H100_30 H 0.4807 0.3787 0.3286
H101_30 H 0.5045 0.3785 0.2929
H102_30 H 0.5049 0.4127 0.3188
C56_30 C 0.4146(3) 0.3627(3) 0.2689(4)
C57_30 C 0.4567(5) 0.3870(4) 0.2217(5)
H104_30 H 0.4750 0.3723 0.2120
C58_30 C 0.4083(5) 0.1441(5) 0.3191(6)
H105_30 H 0.3909 0.1244 0.3200
H106_30 H 0.4325 0.1345 0.3221
H107_30 H 0.4032 0.1611 0.3385
C59_30 C 0.4299(3) 0.2716(3) 0.1693(4)
C60_30 C 0.3657(4) 0.2522(5) 0.1440(4)
H108_30 H 0.3715 0.2271 0.1503
H109_30 H 0.3551 0.2529 0.1197
C61_30 C 0.4054(4) 0.1634(4) 0.2826(5)
H110_30 H 0.4072 0.1453 0.2632
H111_30 H 0.4261 0.1799 0.2801
C63_30 C 0.4025(5) 0.3041(6) 0.1160(5)
H115_30 H 0.4272 0.3055 0.1063
H116_30 H 0.3862 0.2965 0.0965
C64_30 C 0.3423(6) 0.2680(7) 0.1698(6)
H117_30 H 0.3375 0.2507 0.1890
H118_30 H 0.3535 0.2895 0.1799
H119_30 H 0.3197 0.2746 0.1582
C66_30 C 0.3449(6) 0.1684(5) 0.2180(5)
H120_30 H 0.3647 0.1537 0.2089
H121_30 H 0.3223 0.1601 0.2075
H122_30 H 0.3489 0.1935 0.2115
C67_30 C 0.4389(7) 0.4135(6) 0.2027(6)
H123_30 H 0.4161 0.4041 0.1939
H124_30 H 0.4345 0.4340 0.2184
H125_30 H 0.4537 0.4210 0.1824
C68_30 C 0.3905(8) 0.3422(6) 0.1312(6)
H126_30 H 0.3657 0.3408 0.1399
H127_30 H 0.4063 0.3491 0.1510
H128_30 H 0.3920 0.3602 0.1121
Ag18_22 Ag 0.33136(2) 0.38046(2) 0.30018(3)
S36_22 S 0.28058(9) 0.32803(9) 0.24200(8)
H139_30 H 0.477172 0.406869 0.230294
Ag15_23 Ag 0.65735(3) 0.80619(2) 0.23818(2)
S21_31 S 0.60260(9) 0.83498(9) 0.26489(9)
S22_23 S 0.60299(8) 0.86383(9) 0.18684(9)
S26_31 S 0.59575(9) 0.73929(9) 0.18675(9)
N11_31 N 0.6291(3) 0.6847(3) 0.2225(3)
N13_31 N 0.5573(3) 0.8841(3) 0.2384(4)
C51_31 C 0.6571(4) 0.6649(4) 0.2398(5)
H96_31 H 0.6551 0.6393 0.2330
H97_31 H 0.6806 0.6738 0.2314
C52_31 C 0.5399(4) 0.9090(4) 0.2111(5)
H98_31 H 0.5584 0.9168 0.1938
H99_31 H 0.5312 0.9306 0.2238
N14_31 N 0.5990(3) 0.7776(4) 0.3534(3)
C53_31 C 0.6316(3) 0.7194(3) 0.2105(3)
C54_31 C 0.5100(5) 0.8935(5) 0.1910(7)
H100_31 H 0.5193 0.8787 0.1714
H101_31 H 0.4955 0.8785 0.2071
H102_31 H 0.4951 0.9127 0.1812
C56_31 C 0.5854(3) 0.8627(3) 0.2311(4)
C57_31 C 0.5433(5) 0.8870(4) 0.2783(5)
H104_31 H 0.5250 0.8723 0.2880
C58_31 C 0.5917(5) 0.6441(5) 0.1809(6)
H105_31 H 0.6091 0.6244 0.1800
H106_31 H 0.5675 0.6345 0.1779
H107_31 H 0.5968 0.6611 0.1615
C59_31 C 0.5701(3) 0.7716(3) 0.3307(4)
C60_31 C 0.6343(4) 0.7522(5) 0.3560(4)
H108_31 H 0.6285 0.7271 0.3497
H109_31 H 0.6449 0.7529 0.3803
C61_31 C 0.5946(4) 0.6634(4) 0.2174(5)
H110_31 H 0.5928 0.6453 0.2368
H111_31 H 0.5739 0.6799 0.2199
C63_31 C 0.5975(5) 0.8041(6) 0.3840(5)
H115_31 H 0.5728 0.8055 0.3937
H116_31 H 0.6138 0.7965 0.4035
C64_31 C 0.6577(6) 0.7680(7) 0.3302(6)
H117_31 H 0.6625 0.7507 0.3110
H118_31 H 0.6465 0.7895 0.3201
H119_31 H 0.6803 0.7746 0.3418
C66_31 C 0.6551(6) 0.6684(5) 0.2820(5)
H120_31 H 0.6353 0.6537 0.2911
H121_31 H 0.6777 0.6601 0.2925
H122_31 H 0.6511 0.6935 0.2885
C67_31 C 0.5611(7) 0.9135(6) 0.2973(6)
H123_31 H 0.5839 0.9041 0.3061
H124_31 H 0.5655 0.9340 0.2816
H125_31 H 0.5463 0.9210 0.3176
C68_31 C 0.6095(8) 0.8422(6) 0.3688(6)
H126_31 H 0.6343 0.8408 0.3601
H127_31 H 0.5937 0.8491 0.3490
H128_31 H 0.6080 0.8602 0.3879
Ag18_23 Ag 0.66864(2) 0.88046(2) 0.19982(3)
S36_23 S 0.71942(9) 0.82803(9) 0.25800(8)
H139_31 H 0.522828 0.906869 0.269706
Ag15_24 Ag 0.15735(3) 0.69381(2) 0.76182(2)
S21_32 S 0.10260(9) 0.66502(9) 0.73511(9)
S22_24 S 0.10299(8) 0.63617(9) 0.81316(9)
S26_32 S 0.09575(9) 0.76071(9) 0.81325(9)
N11_32 N 0.1291(3) 0.8153(3) 0.7775(3)
N13_32 N 0.0573(3) 0.6159(3) 0.7616(4)
C51_32 C 0.1571(4) 0.8351(4) 0.7602(5)
H96_32 H 0.1551 0.8607 0.7670
H97_32 H 0.1806 0.8262 0.7686
C52_32 C 0.0399(4) 0.5910(4) 0.7889(5)
H98_32 H 0.0584 0.5832 0.8062
H99_32 H 0.0312 0.5694 0.7762
N14_32 N 0.0990(3) 0.7224(4) 0.6466(3)
C53_32 C 0.1316(3) 0.7806(3) 0.7895(3)
C54_32 C 0.0100(5) 0.6065(5) 0.8090(7)
H100_32 H 0.0193 0.6213 0.8286
C56_32 C 0.0854(3) 0.6373(3) 0.7689(4)
C57_32 C 0.0433(5) 0.6130(4) 0.7217(5)
H104_32 H 0.0250 0.6277 0.7120
C58_32 C 0.0917(5) 0.8559(5) 0.8191(6)
H105_32 H 0.1091 0.8756 0.8200
H106_32 H 0.0675 0.8655 0.8221
H107_32 H 0.0968 0.8389 0.8385
C59_32 C 0.0701(3) 0.7284(3) 0.6693(4)
C60_32 C 0.1343(4) 0.7478(5) 0.6440(4)
H108_32 H 0.1285 0.7729 0.6503
H109_32 H 0.1449 0.7471 0.6197
C61_32 C 0.0946(4) 0.8366(4) 0.7826(5)
H110_32 H 0.0928 0.8547 0.7632
H111_32 H 0.0739 0.8201 0.7801
C63_32 C 0.0975(5) 0.6959(6) 0.6160(5)
H115_32 H 0.0728 0.6945 0.6063
H116_32 H 0.1138 0.7035 0.5965
C64_32 C 0.1577(6) 0.7320(7) 0.6698(6)
H117_32 H 0.1625 0.7493 0.6890
H118_32 H 0.1465 0.7105 0.6799
H119_32 H 0.1803 0.7254 0.6582
C66_32 C 0.1551(6) 0.8316(5) 0.7180(5)
H120_32 H 0.1353 0.8463 0.7089
H121_32 H 0.1777 0.8399 0.7075
H122_32 H 0.1511 0.8065 0.7115
C67_32 C 0.0611(7) 0.5865(6) 0.7027(6)
H123_32 H 0.0839 0.5959 0.6939
H124_32 H 0.0655 0.5660 0.7184
H125_32 H 0.0463 0.5790 0.6824
C68_32 C 0.1095(8) 0.6578(6) 0.6312(6)
H126_32 H 0.1343 0.6592 0.6399
H127_32 H 0.0937 0.6509 0.6510
H128_32 H 0.1080 0.6398 0.6121
Ag18_24 Ag 0.16864(2) 0.61954(2) 0.80018(3)
S36_24 S 0.21942(9) 0.67197(9) 0.74200(8)
H139_32 H 0.0228282 0.593131 0.730294
H101_32 H 0.9955 0.6215 0.7929
H102_32 H 0.9951 0.5873 0.8188
H101_33 H 0.7071 0.0045 0.1215
H102_33 H 0.6812 0.0049 0.0873
S21_33 S 0.76489(9) 0.89740(9) 0.16502(9)
S26_33 S 0.68675(9) 0.90425(9) 0.26071(9)
N11_33 N 0.7225(3) 0.8709(3) 0.3153(3)
N13_33 N 0.7384(4) 0.9427(3) 0.1159(3)
C51_33 C 0.7398(5) 0.8429(4) 0.3351(4)
H96_33 H 0.7330 0.8449 0.3607
H97_33 H 0.7314 0.8194 0.3262
C52_33 C 0.7111(5) 0.9601(4) 0.0910(4)
H98_33 H 0.6938 0.9416 0.0832
H99_33 H 0.7238 0.9688 0.0694
N14_33 N 0.8534(3) 0.9010(3) 0.2224(4)
C53_33 C 0.7105(3) 0.8684(3) 0.2806(3)
C54_33 C 0.6910(7) 0.9900(5) 0.1065(5)
H100_33 H 0.6714 0.9807 0.1213
C56_33 C 0.7311(4) 0.9146(3) 0.1373(3)
C57_33 C 0.7783(5) 0.9567(5) 0.1130(4)
H104_33 H 0.7880 0.9750 0.1277
C58_33 C 0.6809(6) 0.9083(5) 0.3559(5)
H105_33 H 0.6800 0.8909 0.3756
H106_33 H 0.6779 0.9325 0.3655
H107_33 H 0.6615 0.9032 0.3389
C59_33 C 0.8307(4) 0.9299(3) 0.2284(3)
C60_33 C 0.8560(4) 0.8657(4) 0.2478(5)
H108_33 H 0.8497 0.8715 0.2729
H109_33 H 0.8803 0.8551 0.2471
C61_33 C 0.7174(5) 0.9054(4) 0.3366(4)
H110_33 H 0.7368 0.9072 0.3547
H111_33 H 0.7199 0.9261 0.3201
C63_33 C 0.8840(5) 0.9025(5) 0.1959(6)
H115_33 H 0.8937 0.9272 0.1945
H116_33 H 0.9035 0.8862 0.2035
C64_33 C 0.8302(6) 0.8423(6) 0.2320(7)
H117_33 H 0.8110 0.8375 0.2493
H118_33 H 0.8201 0.8535 0.2105
H119_33 H 0.8418 0.8197 0.2254
C66_33 C 0.7820(5) 0.8449(6) 0.3316(5)
H120_33 H 0.7911 0.8647 0.3463
H121_33 H 0.7925 0.8223 0.3399
H122_33 H 0.7885 0.8489 0.3065
C67_33 C 0.7973(6) 0.9389(7) 0.0865(6)
H123_33 H 0.8061 0.9161 0.0959
H124_33 H 0.7816 0.9345 0.0660
H125_33 H 0.8176 0.9537 0.0790
C68_33 C 0.8688(6) 0.8905(8) 0.1578(6)
H126_33 H 0.8601 0.8657 0.1592
H127_33 H 0.8490 0.9063 0.1509
H128_33 H 0.8879 0.8920 0.1398
H139_33 H 0.769706 0.977172 0.0931314
S21_34 S 0.23511(9) 0.39740(9) 0.33498(9)
S26_34 S 0.31325(9) 0.40425(9) 0.23929(9)
N11_34 N 0.2775(3) 0.3709(3) 0.1847(3)
N13_34 N 0.2616(4) 0.4427(3) 0.3841(3)
C51_34 C 0.2602(5) 0.3429(4) 0.1649(4)
H96_34 H 0.2670 0.3449 0.1393
H97_34 H 0.2686 0.3194 0.1738
C52_34 C 0.2889(5) 0.4601(4) 0.4090(4)
H98_34 H 0.3062 0.4416 0.4168
H99_34 H 0.2762 0.4688 0.4306
N14_34 N 0.1466(3) 0.4010(3) 0.2776(4)
C53_34 C 0.2895(3) 0.3684(3) 0.2194(3)
C54_34 C 0.3090(7) 0.4900(5) 0.3935(5)
H100_34 H 0.3286 0.4807 0.3787
H101_34 H 0.2929 0.5045 0.3785
H102_34 H 0.3188 0.5049 0.4127
C56_34 C 0.2689(4) 0.4146(3) 0.3627(3)
C57_34 C 0.2217(5) 0.4567(5) 0.3870(4)
H104_34 H 0.2120 0.4750 0.3723
C58_34 C 0.3191(6) 0.4083(5) 0.1441(5)
H105_34 H 0.3200 0.3909 0.1244
H106_34 H 0.3221 0.4325 0.1345
H107_34 H 0.3385 0.4032 0.1611
C59_34 C 0.1693(4) 0.4299(3) 0.2716(3)
C60_34 C 0.1440(4) 0.3657(4) 0.2522(5)
H108_34 H 0.1503 0.3715 0.2271
H109_34 H 0.1197 0.3551 0.2529
C61_34 C 0.2826(5) 0.4054(4) 0.1634(4)
H110_34 H 0.2632 0.4072 0.1453
H111_34 H 0.2801 0.4261 0.1799
C63_34 C 0.1160(5) 0.4025(5) 0.3041(6)
H115_34 H 0.1063 0.4272 0.3055
H116_34 H 0.0965 0.3862 0.2965
C64_34 C 0.1698(6) 0.3423(6) 0.2680(7)
H117_34 H 0.1890 0.3375 0.2507
H118_34 H 0.1799 0.3535 0.2895
H119_34 H 0.1582 0.3197 0.2746
C66_34 C 0.2180(5) 0.3449(6) 0.1684(5)
H120_34 H 0.2089 0.3647 0.1537
H121_34 H 0.2075 0.3223 0.1601
H122_34 H 0.2115 0.3489 0.1935
C67_34 C 0.2027(6) 0.4389(7) 0.4135(6)
H123_34 H 0.1939 0.4161 0.4041
H124_34 H 0.2184 0.4345 0.4340
H125_34 H 0.1824 0.4537 0.4210
C68_34 C 0.1312(6) 0.3905(8) 0.3422(6)
H126_34 H 0.1399 0.3657 0.3408
H127_34 H 0.1510 0.4063 0.3491
H128_34 H 0.1121 0.3920 0.3602
H139_34 H 0.230294 0.477172 0.406869
S21_35 S 0.26489(9) 0.60260(9) 0.83498(9)
S26_35 S 0.18675(9) 0.59575(9) 0.73929(9)
N11_35 N 0.2225(3) 0.6291(3) 0.6847(3)
N13_35 N 0.2384(4) 0.5573(3) 0.8841(3)
C51_35 C 0.2398(5) 0.6571(4) 0.6649(4)
H96_35 H 0.2330 0.6551 0.6393
H97_35 H 0.2314 0.6806 0.6738
C52_35 C 0.2111(5) 0.5399(4) 0.9090(4)
H98_35 H 0.1938 0.5584 0.9168
H99_35 H 0.2238 0.5312 0.9306
N14_35 N 0.3534(3) 0.5990(3) 0.7776(4)
C53_35 C 0.2105(3) 0.6316(3) 0.7194(3)
C54_35 C 0.1910(7) 0.5100(5) 0.8935(5)
H100_35 H 0.1714 0.5193 0.8787
H101_35 H 0.2071 0.4955 0.8785
H102_35 H 0.1812 0.4951 0.9127
C56_35 C 0.2311(4) 0.5854(3) 0.8627(3)
C57_35 C 0.2783(5) 0.5433(5) 0.8870(4)
H104_35 H 0.2880 0.5250 0.8723
C58_35 C 0.1809(6) 0.5917(5) 0.6441(5)
H105_35 H 0.1800 0.6091 0.6244
H106_35 H 0.1779 0.5675 0.6345
H107_35 H 0.1615 0.5968 0.6611
C59_35 C 0.3307(4) 0.5701(3) 0.7716(3)
C60_35 C 0.3560(4) 0.6343(4) 0.7522(5)
H108_35 H 0.3497 0.6285 0.7271
H109_35 H 0.3803 0.6449 0.7529
C61_35 C 0.2174(5) 0.5946(4) 0.6634(4)
H110_35 H 0.2368 0.5928 0.6453
H111_35 H 0.2199 0.5739 0.6799
C63_35 C 0.3840(5) 0.5975(5) 0.8041(6)
H115_35 H 0.3937 0.5728 0.8055
H116_35 H 0.4035 0.6138 0.7965
C64_35 C 0.3302(6) 0.6577(6) 0.7680(7)
H117_35 H 0.3110 0.6625 0.7507
H118_35 H 0.3201 0.6465 0.7895
H119_35 H 0.3418 0.6803 0.7746
C66_35 C 0.2820(5) 0.6551(6) 0.6684(5)
H120_35 H 0.2911 0.6353 0.6537
H121_35 H 0.2925 0.6777 0.6601
H122_35 H 0.2885 0.6511 0.6935
C67_35 C 0.2973(6) 0.5611(7) 0.9135(6)
H123_35 H 0.3061 0.5839 0.9041
H124_35 H 0.2816 0.5655 0.9340
H125_35 H 0.3176 0.5463 0.9210
C68_35 C 0.3688(6) 0.6095(8) 0.8422(6)
H126_35 H 0.3601 0.6343 0.8408
H127_35 H 0.3490 0.5937 0.8491
H128_35 H 0.3879 0.6080 0.8602
H139_35 H 0.269706 0.522828 0.906869
S21_36 S 0.73511(9) 0.10260(9) 0.66502(9)
S26_36 S 0.81325(9) 0.09575(9) 0.76071(9)
N11_36 N 0.7775(3) 0.1291(3) 0.8153(3)
N13_36 N 0.7616(4) 0.0573(3) 0.6159(3)
C51_36 C 0.7602(5) 0.1571(4) 0.8351(4)
H96_36 H 0.7670 0.1551 0.8607
H97_36 H 0.7686 0.1806 0.8262
C52_36 C 0.7889(5) 0.0399(4) 0.5910(4)
H98_36 H 0.8062 0.0584 0.5832
H99_36 H 0.7762 0.0312 0.5694
N14_36 N 0.6466(3) 0.0990(3) 0.7224(4)
C53_36 C 0.7895(3) 0.1316(3) 0.7806(3)
C54_36 C 0.8090(7) 0.0100(5) 0.6065(5)
H100_36 H 0.8286 0.0193 0.6213
C56_36 C 0.7689(4) 0.0854(3) 0.6373(3)
C57_36 C 0.7217(5) 0.0433(5) 0.6130(4)
H104_36 H 0.7120 0.0250 0.6277
C58_36 C 0.8191(6) 0.0917(5) 0.8559(5)
H105_36 H 0.8200 0.1091 0.8756
H106_36 H 0.8221 0.0675 0.8655
H107_36 H 0.8385 0.0968 0.8389
C59_36 C 0.6693(4) 0.0701(3) 0.7284(3)
C60_36 C 0.6440(4) 0.1343(4) 0.7478(5)
H108_36 H 0.6503 0.1285 0.7729
H109_36 H 0.6197 0.1449 0.7471
C61_36 C 0.7826(5) 0.0946(4) 0.8366(4)
H110_36 H 0.7632 0.0928 0.8547
H111_36 H 0.7801 0.0739 0.8201
C63_36 C 0.6160(5) 0.0975(5) 0.6959(6)
H115_36 H 0.6063 0.0728 0.6945
H116_36 H 0.5965 0.1138 0.7035
C64_36 C 0.6698(6) 0.1577(6) 0.7320(7)
H117_36 H 0.6890 0.1625 0.7493
H118_36 H 0.6799 0.1465 0.7105
H119_36 H 0.6582 0.1803 0.7254
C66_36 C 0.7180(5) 0.1551(6) 0.8316(5)
H120_36 H 0.7089 0.1353 0.8463
H121_36 H 0.7075 0.1777 0.8399
H122_36 H 0.7115 0.1511 0.8065
C67_36 C 0.7027(6) 0.0611(7) 0.5865(6)
H123_36 H 0.6939 0.0839 0.5959
H124_36 H 0.7184 0.0655 0.5660
H125_36 H 0.6824 0.0463 0.5790
C68_36 C 0.6312(6) 0.1095(8) 0.6578(6)
H126_36 H 0.6399 0.1343 0.6592
H127_36 H 0.6510 0.0937 0.6509
H128_36 H 0.6121 0.1080 0.6398
H139_36 H 0.730294 0.0228282 0.593131
H101_36 H 0.7929 0.9955 0.6215
H102_36 H 0.8188 0.9951 0.5873
loop_
_geom_bond_atom_site_label_1
_geom_bond_atom_site_label_2
_geom_bond_site_symmetry_1
_geom_bond_site_symmetry_2
Ag1 Ag2 1_555 1_555
Ag2 S1 1_555 1_555
Ag3 S3 1_555 1_555
Ag4 S1 1_555 1_555
Ag5 S3 1_555 1_555
S1 C6 1_555 1_555
S2 Ag1 1_555 1_555
S3 C9 1_555 1_555
S4 Ag4 1_555 1_555
S5 Ag2 1_555 1_555
S6 Ag1 1_555 1_555
S7 Ag3 1_555 1_555
N1 C1 1_555 1_555
N2 C5 1_555 1_555
N3 C2 1_555 1_555
C1 H1 1_555 1_555
H2 C1 1_555 1_555
C2 H3 1_555 1_555
H4 C2 1_555 1_555
N4 C9 1_555 1_555
C3 S5 1_555 1_555
C4 C2 1_555 1_555
H5 C4 1_555 1_555
H6 C4 1_555 1_555
H7 C4 1_555 1_555
C5 H8 1_555 1_555
C6 S2 1_555 1_555
C7 N3 1_555 1_555
H9 C7 1_555 1_555
C8 H10 1_555 1_555
H11 C8 1_555 1_555
H12 C8 1_555 1_555
C9 S4 1_555 1_555
C10 N4 1_555 1_555
H13 C10 1_555 1_555
H14 C10 1_555 1_555
C11 N1 1_555 1_555
H15 C11 1_555 1_555
H16 C11 1_555 1_555
C12 C5 1_555 1_555
H17 C12 1_555 1_555
H18 C12 1_555 1_555
H19 C12 1_555 1_555
C13 N4 1_555 1_555
H20 C13 1_555 1_555
H21 C13 1_555 1_555
C14 C10 1_555 1_555
H22 C14 1_555 1_555
H23 C14 1_555 1_555
H24 C14 1_555 1_555
C15 S7 1_555 1_555
C16 C1 1_555 1_555
H25 C16 1_555 1_555
H26 C16 1_555 1_555
H27 C16 1_555 1_555
C17 C7 1_555 1_555
H28 C17 1_555 1_555
H29 C17 1_555 1_555
H30 C17 1_555 1_555
C18 C13 1_555 1_555
H31 C18 1_555 1_555
H32 C18 1_555 1_555
H33 C18 1_555 1_555
S8 C15 1_555 1_555
C19 N2 1_555 1_555
H34 C19 1_555 1_555
C20 C19 1_555 1_555
H35 C20 1_555 1_555
H36 C20 1_555 1_555
H37 C20 1_555 1_555
Ag6 Ag7 1_555 1_555
Ag7 Ag1 1_555 1_555
Ag8 S11 1_555 1_555
Ag9 S9 1_555 1_555
S9 Ag7 1_555 1_555
S10 Ag1 1_555 1_555
S11 C28 1_555 1_555
S12 Ag9 1_555 1_555
S13 Ag7 1_555 1_555
S14 Ag6 1_555 1_555
N5 C21 1_555 1_555
N6 C22 1_555 1_555
C21 H38 1_555 1_555
H39 C21 1_555 1_555
C22 H40 1_555 1_555
H41 C22 1_555 1_555
N7 C28 1_555 1_555
C23 S13 1_555 1_555
C24 C22 1_555 1_555
H42 C24 1_555 1_555
H43 C24 1_555 1_555
H44 C24 1_555 1_555
C25 S9 1_555 1_555
C26 N6 1_555 1_555
H45 C26 1_555 1_555
C27 H46 1_555 1_555
H47 C27 1_555 1_555
H48 C27 1_555 1_555
C28 S12 1_555 1_555
C29 N7 1_555 1_555
H49 C29 1_555 1_555
H50 C29 1_555 1_555
C30 N5 1_555 1_555
H51 C30 1_555 1_555
H52 C30 1_555 1_555
C31 N7 1_555 1_555
H53 C31 1_555 1_555
H54 C31 1_555 1_555
C32 C29 1_555 1_555
H55 C32 1_555 1_555
H56 C32 1_555 1_555
H57 C32 1_555 1_555
C33 C21 1_555 1_555
H58 C33 1_555 1_555
H59 C33 1_555 1_555
H60 C33 1_555 1_555
C34 C26 1_555 1_555
H61 C34 1_555 1_555
H62 C34 1_555 1_555
H63 C34 1_555 1_555
C35 C31 1_555 1_555
H64 C35 1_555 1_555
H65 C35 1_555 1_555
H66 C35 1_555 1_555
Ag10 Ag2 1_555 1_555
Ag11 Ag6 1_555 1_555
Ag12 S17 1_555 1_555
Ag13 S15 1_555 1_555
S15 Ag11 1_555 1_555
S16 Ag6 1_555 1_555
S17 C43 1_555 1_555
S18 Ag13 1_555 1_555
S19 Ag2 1_555 1_555
S20 Ag10 1_555 1_555
N8 C36 1_555 1_555
N9 C37 1_555 1_555
C36 H67 1_555 1_555
H68 C36 1_555 1_555
C37 H69 1_555 1_555
H70 C37 1_555 1_555
N10 C43 1_555 1_555
C38 S19 1_555 1_555
C39 C37 1_555 1_555
H71 C39 1_555 1_555
H72 C39 1_555 1_555
H73 C39 1_555 1_555
C40 S15 1_555 1_555
C41 N9 1_555 1_555
H74 C41 1_555 1_555
C42 H75 1_555 1_555
H76 C42 1_555 1_555
H77 C42 1_555 1_555
C43 S18 1_555 1_555
C44 N10 1_555 1_555
H78 C44 1_555 1_555
H79 C44 1_555 1_555
C45 N8 1_555 1_555
H80 C45 1_555 1_555
H81 C45 1_555 1_555
C46 N10 1_555 1_555
H82 C46 1_555 1_555
H83 C46 1_555 1_555
C47 C44 1_555 1_555
H84 C47 1_555 1_555
H85 C47 1_555 1_555
H86 C47 1_555 1_555
C48 C36 1_555 1_555
H87 C48 1_555 1_555
H88 C48 1_555 1_555
H89 C48 1_555 1_555
C49 C41 1_555 1_555
H90 C49 1_555 1_555
H91 C49 1_555 1_555
H92 C49 1_555 1_555
C50 C46 1_555 1_555
H93 C50 1_555 1_555
H94 C50 1_555 1_555
H95 C50 1_555 1_555
Ag14 Ag15 1_555 1_555
Ag15 S21 1_555 1_555
Ag16 S23 1_555 1_555
Ag17 S21 1_555 1_555
S21 C56 1_555 1_555
S22 Ag14 1_555 1_555
S23 Ag5 1_555 1_555
S24 Ag17 1_555 1_555
S25 Ag15 1_555 1_555
S26 Ag14 1_555 1_555
S27 Ag16 1_555 1_555
N11 C51 1_555 1_555
N12 C55 1_555 1_555
N13 C52 1_555 1_555
C51 H96 1_555 1_555
H97 C51 1_555 1_555
C52 H98 1_555 1_555
H99 C52 1_555 1_555
N14 C59 1_555 1_555
C53 S25 1_555 1_555
C54 C52 1_555 1_555
H100 C54 1_555 1_555
H101 C54 1_555 1_555
H102 C54 1_555 1_555
C55 H103 1_555 1_555
C56 S22 1_555 1_555
C57 N13 1_555 1_555
H104 C57 1_555 1_555
C58 H105 1_555 1_555
H106 C58 1_555 1_555
H107 C58 1_555 1_555
C59 S23 1_555 1_555
C60 N14 1_555 1_555
H108 C60 1_555 1_555
H109 C60 1_555 1_555
C61 N11 1_555 1_555
H110 C61 1_555 1_555
H111 C61 1_555 1_555
C62 C55 1_555 1_555
H112 C62 1_555 1_555
H113 C62 1_555 1_555
H114 C62 1_555 1_555
C63 N14 1_555 1_555
H115 C63 1_555 1_555
H116 C63 1_555 1_555
C64 C60 1_555 1_555
H117 C64 1_555 1_555
H118 C64 1_555 1_555
H119 C64 1_555 1_555
C65 S27 1_555 1_555
C66 C51 1_555 1_555
H120 C66 1_555 1_555
H121 C66 1_555 1_555
H122 C66 1_555 1_555
C67 C57 1_555 1_555
H123 C67 1_555 1_555
H124 C67 1_555 1_555
H125 C67 1_555 1_555
C68 C63 1_555 1_555
H126 C68 1_555 1_555
H127 C68 1_555 1_555
H128 C68 1_555 1_555
S28 C65 1_555 1_555
C69 N12 1_555 1_555
H129 C69 1_555 1_555
C70 C69 1_555 1_555
H130 C70 1_555 1_555
H131 C70 1_555 1_555
H132 C70 1_555 1_555
Ag18 Ag15 1_555 1_555
Ag19 Ag14 1_555 1_555
Ag20 Ag3 1_555 1_555
Ag21 Ag8 1_555 1_555
Ag22 Ag12 1_555 1_555
Ag23 Ag16 1_555 1_555
Ag24 S8 1_555 1_555
Ag25 S28 1_555 1_555
Ag26 S11 1_555 1_555
Ag27 S17 1_555 1_555
S29 Ag14 1_555 1_555
S30 Ag5 1_555 1_555
S31 Ag5 1_555 1_555
S32 Ag3 1_555 1_555
S33 Ag8 1_555 1_555
S34 Ag12 1_555 1_555
S35 Ag16 1_555 1_555
S36 Ag15 1_555 1_555
S37 Ag8 1_555 1_555
S38 Ag12 1_555 1_555
Ag4 S6 1_555 1_555
Ag4 S7 1_555 1_555
S2 Ag10 1_555 1_555
S4 Ag20 1_555 1_555
S5 Ag7 1_555 1_555
S6 C3 1_555 1_555
N1 C3 1_555 1_555
N2 C15 1_555 1_555
N3 C6 1_555 1_555
C8 C11 1_555 1_555
S8 Ag20 1_555 1_555
Ag6 S10 1_555 1_555
Ag9 S14 1_555 1_555
Ag9 S37 1_555 1_555
S10 C25 1_555 1_555
S12 Ag21 1_555 1_555
S13 Ag11 1_555 1_555
S14 C23 1_555 1_555
N5 C23 1_555 1_555
N6 C25 1_555 1_555
C27 C30 1_555 1_555
Ag10 Ag11 1_555 1_555
Ag10 S16 1_555 1_555
Ag11 S19 1_555 1_555
Ag13 S20 1_555 1_555
Ag13 S38 1_555 1_555
S16 C40 1_555 1_555
S18 Ag22 1_555 1_555
S20 C38 1_555 1_555
N8 C38 1_555 1_555
N9 C40 1_555 1_555
C42 C45 1_555 1_555
Ag17 S26 1_555 1_555
Ag17 S27 1_555 1_555
S22 Ag18 1_555 1_555
S24 C59 1_555 1_555
S24 Ag23 1_555 1_555
S25 Ag19 1_555 1_555
S26 C53 1_555 1_555
N11 C53 1_555 1_555
N12 C65 1_555 1_555
N13 C56 1_555 1_555
C58 C61 1_555 1_555
S28 Ag23 1_555 1_555
Ag20 S30 1_555 1_555
Ag23 S31 1_555 1_555
Ag24 S32 1_555 1_555
Ag25 S35 1_555 1_555
C5 H133 1_555 1_555
C7 H134 1_555 1_555
C19 H135 1_555 1_555
C26 H136 1_555 1_555
C41 H137 1_555 1_555
C55 H138 1_555 1_555
C57 H139 1_555 1_555
C69 H140 1_555 1_555
N5_2 C21_2 1_555 1_555
C21_2 H38_2 1_555 1_555
H39_2 C21_2 1_555 1_555
C23_2 S13_2 1_555 1_555
C27_2 H46_2 1_555 1_555
H47_2 C27_2 1_555 1_555
H48_2 C27_2 1_555 1_555
C30_2 N5_2 1_555 1_555
H51_2 C30_2 1_555 1_555
H52_2 C30_2 1_555 1_555
Ag12_2 S17_2 1_555 1_555
S17_2 C43_2 1_555 1_555
N10_2 C43_2 1_555 1_555
H74_2 C41_2 1_555 1_555
C43_2 S18_2 1_555 1_555
C44_2 N10_2 1_555 1_555
H78_2 C44_2 1_555 1_555
H79_2 C44_2 1_555 1_555
C46_2 N10_2 1_555 1_555
H82_2 C46_2 1_555 1_555
H83_2 C46_2 1_555 1_555
C47_2 C44_2 1_555 1_555
H84_2 C47_2 1_555 1_555
H85_2 C47_2 1_555 1_555
H86_2 C47_2 1_555 1_555
H87_2 C48_2 1_555 1_555
H88_2 C48_2 1_555 1_555
H89_2 C48_2 1_555 1_555
C49_2 C41_2 1_555 1_555
H90_2 C49_2 1_555 1_555
H91_2 C49_2 1_555 1_555
H92_2 C49_2 1_555 1_555
C50_2 C46_2 1_555 1_555
H93_2 C50_2 1_555 1_555
H94_2 C50_2 1_555 1_555
H95_2 C50_2 1_555 1_555
Ag22_2 Ag12_2 1_555 1_555
Ag27_2 S17_2 1_555 1_555
S34_2 Ag12_2 1_555 1_555
S14_2 C23_2 1_555 1_555
N5_2 C23_2 1_555 1_555
C27_2 C30_2 1_555 1_555
S18_2 Ag22_2 1_555 1_555
C41_2 H137_2 1_555 1_555
H58_2 C33_2 1_555 1_555
H59_2 C33_2 1_555 1_555
H60_2 C33_2 1_555 1_555
S12_2 Ag21_2 1_555 1_555
Ag1_2 Ag2_2 1_555 1_555
Ag2_2 S1_2 1_555 1_555
Ag3_2 S3_2 1_555 1_555
Ag4_2 S1_2 1_555 1_555
Ag5_2 S3_2 1_555 1_555
S1_2 C6_2 1_555 1_555
S2_2 Ag1_2 1_555 1_555
S3_2 C9_2 1_555 1_555
S7_2 Ag3_2 1_555 1_555
N2_2 C5_2 1_555 1_555
N3_2 C2_2 1_555 1_555
C2_2 H3_2 1_555 1_555
H4_2 C2_2 1_555 1_555
N4_2 C9_2 1_555 1_555
C4_2 C2_2 1_555 1_555
H5_2 C4_2 1_555 1_555
H6_2 C4_2 1_555 1_555
H7_2 C4_2 1_555 1_555
C5_2 H8_2 1_555 1_555
C6_2 S2_2 1_555 1_555
C7_2 N3_2 1_555 1_555
H9_2 C7_2 1_555 1_555
C10_2 N4_2 1_555 1_555
H14_2 C10_2 1_555 1_555
C12_2 C5_2 1_555 1_555
H17_2 C12_2 1_555 1_555
H18_2 C12_2 1_555 1_555
H19_2 C12_2 1_555 1_555
C13_2 N4_2 1_555 1_555
H20_2 C13_2 1_555 1_555
H21_2 C13_2 1_555 1_555
C14_2 C10_2 1_555 1_555
H22_2 C14_2 1_555 1_555
H23_2 C14_2 1_555 1_555
H24_2 C14_2 1_555 1_555
C15_2 S7_2 1_555 1_555
C17_2 C7_2 1_555 1_555
H28_2 C17_2 1_555 1_555
H29_2 C17_2 1_555 1_555
H30_2 C17_2 1_555 1_555
C18_2 C13_2 1_555 1_555
H31_2 C18_2 1_555 1_555
H32_2 C18_2 1_555 1_555
H33_2 C18_2 1_555 1_555
Ag6_2 Ag7_2 1_555 1_555
Ag7_2 Ag1_2 1_555 1_555
S10_2 Ag1_2 1_555 1_555
N6_2 C22_2 1_555 1_555
C22_2 H40_2 1_555 1_555
H41_2 C22_2 1_555 1_555
C24_2 C22_2 1_555 1_555
H42_2 C24_2 1_555 1_555
H43_2 C24_2 1_555 1_555
H44_2 C24_2 1_555 1_555
Ag10_2 Ag2_2 1_555 1_555
Ag11_2 Ag6_2 1_555 1_555
S16_2 Ag6_2 1_555 1_555
S19_2 Ag2_2 1_555 1_555
S20_2 Ag10_2 1_555 1_555
N8_2 C36_2 1_555 1_555
N9_2 C37_2 1_555 1_555
C36_2 H67_2 1_555 1_555
H68_2 C36_2 1_555 1_555
C37_2 H69_2 1_555 1_555
H70_2 C37_2 1_555 1_555
C38_2 S19_2 1_555 1_555
C39_2 C37_2 1_555 1_555
H71_2 C39_2 1_555 1_555
H72_2 C39_2 1_555 1_555
H73_2 C39_2 1_555 1_555
C42_2 H75_2 1_555 1_555
H76_2 C42_2 1_555 1_555
H77_2 C42_2 1_555 1_555
C45_2 N8_2 1_555 1_555
H80_2 C45_2 1_555 1_555
H81_2 C45_2 1_555 1_555
N12_2 C55_2 1_555 1_555
C55_2 H103_2 1_555 1_555
S28_2 C65_2 1_555 1_555
H130_2 C70_2 1_555 1_555
H131_2 C70_2 1_555 1_555
H132_2 C70_2 1_555 1_555
Ag25_2 S28_2 1_555 1_555
S31_2 Ag5_2 1_555 1_555
S32_2 Ag3_2 1_555 1_555
S35_2 Ag16_2 1_555 1_555
Ag4_2 S7_2 1_555 1_555
S2_2 Ag10_2 1_555 1_555
N2_2 C15_2 1_555 1_555
N3_2 C6_2 1_555 1_555
Ag6_2 S10_2 1_555 1_555
Ag9_2 S37_2 1_555 1_555
S10_2 C25_2 1_555 1_555
N6_2 C25_2 1_555 1_555
Ag10_2 Ag11_2 1_555 1_555
Ag10_2 S16_2 1_555 1_555
Ag11_2 S19_2 1_555 1_555
Ag13_2 S20_2 1_555 1_555
Ag13_2 S38_2 1_555 1_555
S16_2 C40_2 1_555 1_555
S20_2 C38_2 1_555 1_555
N8_2 C38_2 1_555 1_555
N9_2 C40_2 1_555 1_555
C42_2 C45_2 1_555 1_555
N12_2 C65_2 1_555 1_555
Ag25_2 S35_2 1_555 1_555
C5_2 H133_2 1_555 1_555
C7_2 H134_2 1_555 1_555
C55_2 H138_2 1_555 1_555
N1_2 C1_2 1_555 1_555
C1_2 H1_2 1_555 1_555
H2_2 C1_2 1_555 1_555
C3_2 S5_2 1_555 1_555
C8_2 H10_2 1_555 1_555
H11_2 C8_2 1_555 1_555
H12_2 C8_2 1_555 1_555
C11_2 N1_2 1_555 1_555
H15_2 C11_2 1_555 1_555
H16_2 C11_2 1_555 1_555
C16_2 C1_2 1_555 1_555
H25_2 C16_2 1_555 1_555
H26_2 C16_2 1_555 1_555
H27_2 C16_2 1_555 1_555
S8_2 C15_3 1_555 1_555
C19_2 N2_3 1_555 1_555
H34_2 C19_2 1_555 1_555
C20_2 C19_2 1_555 1_555
H35_2 C20_2 1_555 1_555
H36_2 C20_2 1_555 1_555
H37_2 C20_2 1_555 1_555
Ag8_2 S11_2 1_555 1_555
S11_2 C28_2 1_555 1_555
N7_2 C28_2 1_555 1_555
H45_2 C26_2 1_555 1_555
C29_2 N7_2 1_555 1_555
H50_2 C29_2 1_555 1_555
C31_2 N7_2 1_555 1_555
H53_2 C31_2 1_555 1_555
H54_2 C31_2 1_555 1_555
C32_2 C29_2 1_555 1_555
H55_2 C32_2 1_555 1_555
H56_2 C32_2 1_555 1_555
H57_2 C32_2 1_555 1_555
C34_2 C26_2 1_555 1_555
H61_2 C34_2 1_555 1_555
H62_2 C34_2 1_555 1_555
H63_2 C34_2 1_555 1_555
C35_2 C31_2 1_555 1_555
H64_2 C35_2 1_555 1_555
H65_2 C35_2 1_555 1_555
H66_2 C35_2 1_555 1_555
Ag14_2 Ag15_2 1_555 1_555
Ag15_2 S21_2 1_555 1_555
Ag17_2 S21_2 1_555 1_555
S21_2 C56_2 1_555 1_555
S22_2 Ag14_2 1_555 1_555
S23_2 Ag5_3 1_555 1_555
S24_2 Ag17_2 1_555 1_555
S25_2 Ag15_2 1_555 1_555
S26_2 Ag14_2 1_555 1_555
N11_2 C51_2 1_555 1_555
N13_2 C52_2 1_555 1_555
C51_2 H96_2 1_555 1_555
H97_2 C51_2 1_555 1_555
C52_2 H98_2 1_555 1_555
H99_2 C52_2 1_555 1_555
N14_2 C59_2 1_555 1_555
C53_2 S25_2 1_555 1_555
C54_2 C52_2 1_555 1_555
H100_2 C54_2 1_555 1_555
C56_2 S22_2 1_555 1_555
C57_2 N13_2 1_555 1_555
H104_2 C57_2 1_555 1_555
C58_2 H105_2 1_555 1_555
H106_2 C58_2 1_555 1_555
H107_2 C58_2 1_555 1_555
C59_2 S23_2 1_555 1_555
C60_2 N14_2 1_555 1_555
H108_2 C60_2 1_555 1_555
H109_2 C60_2 1_555 1_555
C61_2 N11_2 1_555 1_555
H110_2 C61_2 1_555 1_555
H111_2 C61_2 1_555 1_555
H112_2 C62_2 1_555 1_555
H113_2 C62_2 1_555 1_555
H114_2 C62_2 1_555 1_555
C63_2 N14_2 1_555 1_555
H115_2 C63_2 1_555 1_555
H116_2 C63_2 1_555 1_555
C64_2 C60_2 1_555 1_555
H117_2 C64_2 1_555 1_555
H118_2 C64_2 1_555 1_555
H119_2 C64_2 1_555 1_555
C65_3 S27_2 1_555 1_555
C66_2 C51_2 1_555 1_555
H120_2 C66_2 1_555 1_555
H121_2 C66_2 1_555 1_555
H122_2 C66_2 1_555 1_555
C67_2 C57_2 1_555 1_555
H123_2 C67_2 1_555 1_555
H124_2 C67_2 1_555 1_555
H125_2 C67_2 1_555 1_555
C68_2 C63_2 1_555 1_555
H126_2 C68_2 1_555 1_555
H127_2 C68_2 1_555 1_555
H128_2 C68_2 1_555 1_555
C69_2 N12_3 1_555 1_555
H129_2 C69_2 1_555 1_555
Ag18_2 Ag15_2 1_555 1_555
Ag19_2 Ag14_2 1_555 1_555
Ag24_2 S8_2 1_555 1_555
Ag26_3 S11_2 1_555 1_555
S29_2 Ag14_2 1_555 1_555
S30_2 Ag5_3 1_555 1_555
S33_2 Ag8_2 1_555 1_555
S36_2 Ag15_2 1_555 1_555
S4_2 Ag20_2 1_555 1_555
S6_2 C3_2 1_555 1_555
N1_2 C3_2 1_555 1_555
N2_3 C15_3 1_555 1_555
C8_2 C11_2 1_555 1_555
S8_2 Ag20_2 1_555 1_555
Ag17_2 S26_2 1_555 1_555
Ag17_2 S27_2 1_555 1_555
S22_2 Ag18_2 1_555 1_555
S24_2 C59_2 1_555 1_555
S24_2 Ag23_2 1_555 1_555
S25_2 Ag19_2 1_555 1_555
S26_2 C53_2 1_555 1_555
N11_2 C53_2 1_555 1_555
N12_3 C65_3 1_555 1_555
N13_2 C56_2 1_555 1_555
C58_2 C61_2 1_555 1_555
Ag20_2 S30_2 1_555 1_555
C19_2 H135_2 1_555 1_555
C26_2 H136_2 1_555 1_555
C57_2 H139_2 1_555 1_555
C69_2 H140_2 1_555 1_555
N1_3 C1_3 1_555 1_555
C1_3 H1_3 1_555 1_555
H2_3 C1_3 1_555 1_555
C3_3 S5_3 1_555 1_555
C8_3 H10_3 1_555 1_555
H11_3 C8_3 1_555 1_555
H12_3 C8_3 1_555 1_555
C11_3 N1_3 1_555 1_555
H15_3 C11_3 1_555 1_555
H16_3 C11_3 1_555 1_555
S8_3 C15_4 1_555 1_555
C19_3 N2_4 1_555 1_555
H34_3 C19_3 1_555 1_555
C20_3 C19_3 1_555 1_555
H35_3 C20_3 1_555 1_555
H36_3 C20_3 1_555 1_555
H37_3 C20_3 1_555 1_555
Ag8_3 S11_3 1_555 1_555
S11_3 C28_3 1_555 1_555
N7_3 C28_3 1_555 1_555
H45_3 C26_3 1_555 1_555
C28_3 S12_3 1_555 1_555
C29_3 N7_3 1_555 1_555
H49_3 C29_3 1_555 1_555
H50_3 C29_3 1_555 1_555
C31_3 N7_3 1_555 1_555
H53_3 C31_3 1_555 1_555
H54_3 C31_3 1_555 1_555
C32_3 C29_3 1_555 1_555
H55_3 C32_3 1_555 1_555
H56_3 C32_3 1_555 1_555
H57_3 C32_3 1_555 1_555
H58_3 C33_3 1_555 1_555
H59_3 C33_3 1_555 1_555
H60_3 C33_3 1_555 1_555
C34_3 C26_3 1_555 1_555
H61_3 C34_3 1_555 1_555
H62_3 C34_3 1_555 1_555
H63_3 C34_3 1_555 1_555
C35_3 C31_3 1_555 1_555
H64_3 C35_3 1_555 1_555
H65_3 C35_3 1_555 1_555
H66_3 C35_3 1_555 1_555
Ag21_3 Ag8_3 1_555 1_555
Ag24_3 S8_3 1_555 1_555
Ag26_4 S11_3 1_555 1_555
S33_3 Ag8_3 1_555 1_555
S6_3 C3_3 1_555 1_555
N1_3 C3_3 1_555 1_555
N2_4 C15_4 1_555 1_555
C8_3 C11_3 1_555 1_555
S12_3 Ag21_3 1_555 1_555
C19_3 H135_3 1_555 1_555
C26_3 H136_3 1_555 1_555
Ag1_3 Ag2_3 1_555 1_555
S2_3 Ag1_3 1_555 1_555
N2_5 C5_3 1_555 1_555
N3_3 C2_3 1_555 1_555
C2_3 H3_3 1_555 1_555
H4_3 C2_3 1_555 1_555
C4_3 C2_3 1_555 1_555
H5_3 C4_3 1_555 1_555
H6_3 C4_3 1_555 1_555
H7_3 C4_3 1_555 1_555
C5_3 H8_3 1_555 1_555
C6_3 S2_3 1_555 1_555
C12_3 C5_3 1_555 1_555
H17_3 C12_3 1_555 1_555
H18_3 C12_3 1_555 1_555
H19_3 C12_3 1_555 1_555
C15_5 S7_3 1_555 1_555
Ag6_3 Ag7_3 1_555 1_555
Ag7_3 Ag1_3 1_555 1_555
S10_3 Ag1_3 1_555 1_555
S13_3 Ag7_3 1_555 1_555
S14_3 Ag6_3 1_555 1_555
N5_3 C21_3 1_555 1_555
N6_3 C22_3 1_555 1_555
C21_3 H38_3 1_555 1_555
H39_3 C21_3 1_555 1_555
C22_3 H40_3 1_555 1_555
H41_3 C22_3 1_555 1_555
C23_3 S13_3 1_555 1_555
C24_3 C22_3 1_555 1_555
H42_3 C24_3 1_555 1_555
H43_3 C24_3 1_555 1_555
H44_3 C24_3 1_555 1_555
C27_3 H46_3 1_555 1_555
H47_3 C27_3 1_555 1_555
H48_3 C27_3 1_555 1_555
C30_3 N5_3 1_555 1_555
H51_3 C30_3 1_555 1_555
H52_3 C30_3 1_555 1_555
Ag10_3 Ag2_3 1_555 1_555
Ag11_3 Ag6_3 1_555 1_555
Ag12_3 S17_3 1_555 1_555
Ag13_3 S15_3 1_555 1_555
S15_3 Ag11_3 1_555 1_555
S16_3 Ag6_3 1_555 1_555
S17_3 C43_3 1_555 1_555
N9_3 C37_3 1_555 1_555
C37_3 H69_3 1_555 1_555
H70_3 C37_3 1_555 1_555
N10_3 C43_3 1_555 1_555
C39_3 C37_3 1_555 1_555
H71_3 C39_3 1_555 1_555
H72_3 C39_3 1_555 1_555
H73_3 C39_3 1_555 1_555
C40_3 S15_3 1_555 1_555
C41_3 N9_3 1_555 1_555
H74_3 C41_3 1_555 1_555
C44_3 N10_3 1_555 1_555
H79_3 C44_3 1_555 1_555
C46_3 N10_3 1_555 1_555
H82_3 C46_3 1_555 1_555
H83_3 C46_3 1_555 1_555
C47_3 C44_3 1_555 1_555
H84_3 C47_3 1_555 1_555
H85_3 C47_3 1_555 1_555
H86_3 C47_3 1_555 1_555
C49_3 C41_3 1_555 1_555
H90_3 C49_3 1_555 1_555
H91_3 C49_3 1_555 1_555
H92_3 C49_3 1_555 1_555
C50_3 C46_3 1_555 1_555
H93_3 C50_3 1_555 1_555
H94_3 C50_3 1_555 1_555
H95_3 C50_3 1_555 1_555
Ag27_3 S17_3 1_555 1_555
S34_3 Ag12_3 1_555 1_555
S38_3 Ag12_3 1_555 1_555
Ag4_3 S7_3 1_555 1_555
S2_3 Ag10_3 1_555 1_555
N2_5 C15_5 1_555 1_555
N3_3 C6_3 1_555 1_555
Ag6_3 S10_3 1_555 1_555
Ag9_3 S14_3 1_555 1_555
Ag9_3 S37_3 1_555 1_555
S10_3 C25_3 1_555 1_555
S13_3 Ag11_3 1_555 1_555
S14_3 C23_3 1_555 1_555
N5_3 C23_3 1_555 1_555
N6_3 C25_3 1_555 1_555
C27_3 C30_3 1_555 1_555
Ag10_3 Ag11_3 1_555 1_555
Ag10_3 S16_3 1_555 1_555
Ag13_3 S38_3 1_555 1_555
S16_3 C40_3 1_555 1_555
N9_3 C40_3 1_555 1_555
C5_3 H133_3 1_555 1_555
C41_3 H137_3 1_555 1_555
H25_3 C16_3 1_555 1_555
H26_3 C16_3 1_555 1_555
H27_3 C16_3 1_555 1_555
Ag14_3 Ag15_3 1_555 1_555
Ag15_3 S21_3 1_555 1_555
Ag17_3 S21_3 1_555 1_555
S21_3 C56_3 1_555 1_555
S22_3 Ag14_3 1_555 1_555
S23_3 Ag5_4 1_555 1_555
S24_3 Ag17_3 1_555 1_555
S25_3 Ag15_3 1_555 1_555
S26_3 Ag14_3 1_555 1_555
N11_3 C51_3 1_555 1_555
N13_3 C52_3 1_555 1_555
C51_3 H96_3 1_555 1_555
H97_3 C51_3 1_555 1_555
C52_3 H98_3 1_555 1_555
H99_3 C52_3 1_555 1_555
N14_3 C59_3 1_555 1_555
C53_3 S25_3 1_555 1_555
C54_3 C52_3 1_555 1_555
H100_3 C54_3 1_555 1_555
C56_3 S22_3 1_555 1_555
C57_3 N13_3 1_555 1_555
H104_3 C57_3 1_555 1_555
C58_3 H105_3 1_555 1_555
H106_3 C58_3 1_555 1_555
H107_3 C58_3 1_555 1_555
C59_3 S23_3 1_555 1_555
C60_3 N14_3 1_555 1_555
H108_3 C60_3 1_555 1_555
H109_3 C60_3 1_555 1_555
C61_3 N11_3 1_555 1_555
H110_3 C61_3 1_555 1_555
H111_3 C61_3 1_555 1_555
H112_3 C62_3 1_555 1_555
H113_3 C62_3 1_555 1_555
H114_3 C62_3 1_555 1_555
C63_3 N14_3 1_555 1_555
H115_3 C63_3 1_555 1_555
H116_3 C63_3 1_555 1_555
C64_3 C60_3 1_555 1_555
H117_3 C64_3 1_555 1_555
H118_3 C64_3 1_555 1_555
H119_3 C64_3 1_555 1_555
C65_4 S27_3 1_555 1_555
C66_3 C51_3 1_555 1_555
H120_3 C66_3 1_555 1_555
H121_3 C66_3 1_555 1_555
H122_3 C66_3 1_555 1_555
C67_3 C57_3 1_555 1_555
H123_3 C67_3 1_555 1_555
H124_3 C67_3 1_555 1_555
H125_3 C67_3 1_555 1_555
C68_3 C63_3 1_555 1_555
H126_3 C68_3 1_555 1_555
H127_3 C68_3 1_555 1_555
H128_3 C68_3 1_555 1_555
C69_3 N12_4 1_555 1_555
H129_3 C69_3 1_555 1_555
Ag18_3 Ag15_3 1_555 1_555
Ag19_3 Ag14_3 1_555 1_555
S29_3 Ag14_3 1_555 1_555
S30_3 Ag5_4 1_555 1_555
S36_3 Ag15_3 1_555 1_555
S4_3 Ag20_3 1_555 1_555
Ag17_3 S26_3 1_555 1_555
Ag17_3 S27_3 1_555 1_555
S22_3 Ag18_3 1_555 1_555
S24_3 C59_3 1_555 1_555
S24_3 Ag23_3 1_555 1_555
S25_3 Ag19_3 1_555 1_555
S26_3 C53_3 1_555 1_555
N11_3 C53_3 1_555 1_555
N12_4 C65_4 1_555 1_555
N13_3 C56_3 1_555 1_555
C58_3 C61_3 1_555 1_555
Ag20_3 S30_3 1_555 1_555
C57_3 H139_3 1_555 1_555
C69_3 H140_3 1_555 1_555
Ag3_3 S3_3 1_555 1_555
Ag5_5 S3_3 1_555 1_555
S3_3 C9_3 1_555 1_555
N4_3 C9_3 1_555 1_555
H9_3 C7_3 1_555 1_555
C10_3 N4_3 1_555 1_555
H14_3 C10_3 1_555 1_555
C13_3 N4_3 1_555 1_555
H20_3 C13_3 1_555 1_555
H21_3 C13_3 1_555 1_555
C14_3 C10_3 1_555 1_555
H22_3 C14_3 1_555 1_555
H23_3 C14_3 1_555 1_555
H24_3 C14_3 1_555 1_555
C17_3 C7_3 1_555 1_555
H28_3 C17_3 1_555 1_555
H29_3 C17_3 1_555 1_555
H30_3 C17_3 1_555 1_555
C18_3 C13_3 1_555 1_555
H31_3 C18_3 1_555 1_555
H32_3 C18_3 1_555 1_555
H33_3 C18_3 1_555 1_555
N8_3 C36_3 1_555 1_555
C36_3 H67_3 1_555 1_555
H68_3 C36_3 1_555 1_555
C38_3 S19_3 1_555 1_555
C42_3 H75_3 1_555 1_555
H76_3 C42_3 1_555 1_555
H77_3 C42_3 1_555 1_555
C45_3 N8_3 1_555 1_555
H80_3 C45_3 1_555 1_555
H81_3 C45_3 1_555 1_555
C48_3 C36_3 1_555 1_555
H87_3 C48_3 1_555 1_555
H88_3 C48_3 1_555 1_555
H89_3 C48_3 1_555 1_555
N12_5 C55_3 1_555 1_555
C55_3 H103_3 1_555 1_555
S28_3 C65_5 1_555 1_555
H130_3 C70_3 1_555 1_555
H131_3 C70_3 1_555 1_555
H132_3 C70_3 1_555 1_555
Ag25_3 S28_3 1_555 1_555
S31_3 Ag5_5 1_555 1_555
S32_3 Ag3_3 1_555 1_555
S35_3 Ag16_3 1_555 1_555
S18_3 Ag22_3 1_555 1_555
S20_3 C38_3 1_555 1_555
N8_3 C38_3 1_555 1_555
C42_3 C45_3 1_555 1_555
N12_5 C65_5 1_555 1_555
Ag25_3 S35_3 1_555 1_555
C7_3 H134_3 1_555 1_555
C55_3 H138_3 1_555 1_555
Ag3_4 S3_4 1_555 1_555
Ag5_6 S3_4 1_555 1_555
S3_4 C9_4 1_555 1_555
N4_4 C9_4 1_555 1_555
H9_4 C7_4 1_555 1_555
C9_4 S4_4 1_555 1_555
C10_4 N4_4 1_555 1_555
H13_4 C10_4 1_555 1_555
H14_4 C10_4 1_555 1_555
C13_4 N4_4 1_555 1_555
H20_4 C13_4 1_555 1_555
H21_4 C13_4 1_555 1_555
C14_4 C10_4 1_555 1_555
H22_4 C14_4 1_555 1_555
H23_4 C14_4 1_555 1_555
H24_4 C14_4 1_555 1_555
H25_4 C16_4 1_555 1_555
H26_4 C16_4 1_555 1_555
H27_4 C16_4 1_555 1_555
C17_4 C7_4 1_555 1_555
H28_4 C17_4 1_555 1_555
H29_4 C17_4 1_555 1_555
H30_4 C17_4 1_555 1_555
C18_4 C13_4 1_555 1_555
H31_4 C18_4 1_555 1_555
H32_4 C18_4 1_555 1_555
H33_4 C18_4 1_555 1_555
N8_4 C36_4 1_555 1_555
C36_4 H67_4 1_555 1_555
H68_4 C36_4 1_555 1_555
C38_4 S19_4 1_555 1_555
C42_4 H75_4 1_555 1_555
H76_4 C42_4 1_555 1_555
H77_4 C42_4 1_555 1_555
C45_4 N8_4 1_555 1_555
H80_4 C45_4 1_555 1_555
H81_4 C45_4 1_555 1_555
Ag14_4 Ag15_4 1_555 1_555
Ag15_4 S21_4 1_555 1_555
Ag16_4 S23_4 1_555 1_555
Ag17_4 S21_4 1_555 1_555
S21_4 C56_4 1_555 1_555
S22_4 Ag14_4 1_555 1_555
S23_4 Ag5_6 1_555 1_555
S24_4 Ag17_4 1_555 1_555
S25_4 Ag15_4 1_555 1_555
S26_4 Ag14_4 1_555 1_555
S27_4 Ag16_4 1_555 1_555
N11_4 C51_4 1_555 1_555
N12_6 C55_4 1_555 1_555
N13_4 C52_4 1_555 1_555
C51_4 H96_4 1_555 1_555
H97_4 C51_4 1_555 1_555
C52_4 H98_4 1_555 1_555
H99_4 C52_4 1_555 1_555
N14_4 C59_4 1_555 1_555
C53_4 S25_4 1_555 1_555
C54_4 C52_4 1_555 1_555
H100_4 C54_4 1_555 1_555
H101_4 C54_4 1_555 1_555
H102_4 C54_4 1_555 1_555
C55_4 H103_4 1_555 1_555
C56_4 S22_4 1_555 1_555
C57_4 N13_4 1_555 1_555
H104_4 C57_4 1_555 1_555
C58_4 H105_4 1_555 1_555
H106_4 C58_4 1_555 1_555
H107_4 C58_4 1_555 1_555
C59_4 S23_4 1_555 1_555
C60_4 N14_4 1_555 1_555
H108_4 C60_4 1_555 1_555
H109_4 C60_4 1_555 1_555
C61_4 N11_4 1_555 1_555
H110_4 C61_4 1_555 1_555
H111_4 C61_4 1_555 1_555
C62_4 C55_4 1_555 1_555
H112_4 C62_4 1_555 1_555
H113_4 C62_4 1_555 1_555
H114_4 C62_4 1_555 1_555
C63_4 N14_4 1_555 1_555
H115_4 C63_4 1_555 1_555
H116_4 C63_4 1_555 1_555
C64_4 C60_4 1_555 1_555
H117_4 C64_4 1_555 1_555
H118_4 C64_4 1_555 1_555
H119_4 C64_4 1_555 1_555
C65_6 S27_4 1_555 1_555
C66_4 C51_4 1_555 1_555
H120_4 C66_4 1_555 1_555
H121_4 C66_4 1_555 1_555
H122_4 C66_4 1_555 1_555
C67_4 C57_4 1_555 1_555
H123_4 C67_4 1_555 1_555
H124_4 C67_4 1_555 1_555
H125_4 C67_4 1_555 1_555
C68_4 C63_4 1_555 1_555
H126_4 C68_4 1_555 1_555
H127_4 C68_4 1_555 1_555
H128_4 C68_4 1_555 1_555
S28_4 C65_6 1_555 1_555
C69_4 N12_6 1_555 1_555
H129_4 C69_4 1_555 1_555
C70_4 C69_4 1_555 1_555
H130_4 C70_4 1_555 1_555
H131_4 C70_4 1_555 1_555
H132_4 C70_4 1_555 1_555
Ag18_4 Ag15_4 1_555 1_555
Ag19_4 Ag14_4 1_555 1_555
Ag20_4 Ag3_4 1_555 1_555
Ag23_4 Ag16_4 1_555 1_555
Ag25_4 S28_4 1_555 1_555
S29_4 Ag14_4 1_555 1_555
S30_4 Ag5_6 1_555 1_555
S31_4 Ag5_6 1_555 1_555
S32_4 Ag3_4 1_555 1_555
S35_4 Ag16_4 1_555 1_555
S36_4 Ag15_4 1_555 1_555
S4_4 Ag20_4 1_555 1_555
S20_4 C38_4 1_555 1_555
N8_4 C38_4 1_555 1_555
C42_4 C45_4 1_555 1_555
Ag17_4 S26_4 1_555 1_555
Ag17_4 S27_4 1_555 1_555
S22_4 Ag18_4 1_555 1_555
S24_4 C59_4 1_555 1_555
S24_4 Ag23_4 1_555 1_555
S25_4 Ag19_4 1_555 1_555
S26_4 C53_4 1_555 1_555
N11_4 C53_4 1_555 1_555
N12_6 C65_6 1_555 1_555
N13_4 C56_4 1_555 1_555
C58_4 C61_4 1_555 1_555
S28_4 Ag23_4 1_555 1_555
Ag20_4 S30_4 1_555 1_555
Ag23_4 S31_4 1_555 1_555
Ag25_4 S35_4 1_555 1_555
C7_4 H134_4 1_555 1_555
C55_4 H138_4 1_555 1_555
C57_4 H139_4 1_555 1_555
C69_4 H140_4 1_555 1_555
Ag1_4 Ag2_4 1_555 1_555
S2_4 Ag1_4 1_555 1_555
S5_4 Ag2_4 1_555 1_555
S6_4 Ag1_4 1_555 1_555
N1_4 C1_4 1_555 1_555
N2_6 C5_4 1_555 1_555
N3_4 C2_4 1_555 1_555
C1_4 H1_4 1_555 1_555
H2_4 C1_4 1_555 1_555
C2_4 H3_4 1_555 1_555
H4_4 C2_4 1_555 1_555
C3_4 S5_4 1_555 1_555
C4_4 C2_4 1_555 1_555
H5_4 C4_4 1_555 1_555
H6_4 C4_4 1_555 1_555
H7_4 C4_4 1_555 1_555
C5_4 H8_4 1_555 1_555
C6_4 S2_4 1_555 1_555
C8_4 H10_4 1_555 1_555
H11_4 C8_4 1_555 1_555
H12_4 C8_4 1_555 1_555
C11_4 N1_4 1_555 1_555
H15_4 C11_4 1_555 1_555
H16_4 C11_4 1_555 1_555
C12_4 C5_4 1_555 1_555
H17_4 C12_4 1_555 1_555
H18_4 C12_4 1_555 1_555
H19_4 C12_4 1_555 1_555
C15_6 S7_4 1_555 1_555
S8_4 C15_6 1_555 1_555
C19_4 N2_6 1_555 1_555
H34_4 C19_4 1_555 1_555
C20_4 C19_4 1_555 1_555
H35_4 C20_4 1_555 1_555
H36_4 C20_4 1_555 1_555
H37_4 C20_4 1_555 1_555
Ag6_4 Ag7_4 1_555 1_555
Ag7_4 Ag1_4 1_555 1_555
Ag8_4 S11_4 1_555 1_555
Ag9_4 S9_4 1_555 1_555
S9_4 Ag7_4 1_555 1_555
S10_4 Ag1_4 1_555 1_555
S11_4 C28_4 1_555 1_555
N6_4 C22_4 1_555 1_555
C22_4 H40_4 1_555 1_555
H41_4 C22_4 1_555 1_555
N7_4 C28_4 1_555 1_555
C24_4 C22_4 1_555 1_555
H42_4 C24_4 1_555 1_555
H43_4 C24_4 1_555 1_555
H44_4 C24_4 1_555 1_555
C25_4 S9_4 1_555 1_555
C26_4 N6_4 1_555 1_555
H45_4 C26_4 1_555 1_555
C29_4 N7_4 1_555 1_555
H50_4 C29_4 1_555 1_555
C31_4 N7_4 1_555 1_555
H53_4 C31_4 1_555 1_555
H54_4 C31_4 1_555 1_555
C32_4 C29_4 1_555 1_555
H55_4 C32_4 1_555 1_555
H56_4 C32_4 1_555 1_555
H57_4 C32_4 1_555 1_555
C34_4 C26_4 1_555 1_555
H61_4 C34_4 1_555 1_555
H62_4 C34_4 1_555 1_555
H63_4 C34_4 1_555 1_555
C35_4 C31_4 1_555 1_555
H64_4 C35_4 1_555 1_555
H65_4 C35_4 1_555 1_555
H66_4 C35_4 1_555 1_555
Ag10_4 Ag2_4 1_555 1_555
Ag11_4 Ag6_4 1_555 1_555
S16_4 Ag6_4 1_555 1_555
N9_4 C37_4 1_555 1_555
C37_4 H69_4 1_555 1_555
H70_4 C37_4 1_555 1_555
C39_4 C37_4 1_555 1_555
H71_4 C39_4 1_555 1_555
H72_4 C39_4 1_555 1_555
H73_4 C39_4 1_555 1_555
Ag24_4 S8_4 1_555 1_555
Ag26_5 S11_4 1_555 1_555
S33_4 Ag8_4 1_555 1_555
S37_4 Ag8_4 1_555 1_555
Ag4_4 S6_4 1_555 1_555
Ag4_4 S7_4 1_555 1_555
S2_4 Ag10_4 1_555 1_555
S5_4 Ag7_4 1_555 1_555
S6_4 C3_4 1_555 1_555
N1_4 C3_4 1_555 1_555
N2_6 C15_6 1_555 1_555
N3_4 C6_4 1_555 1_555
C8_4 C11_4 1_555 1_555
Ag6_4 S10_4 1_555 1_555
Ag9_4 S37_4 1_555 1_555
S10_4 C25_4 1_555 1_555
N6_4 C25_4 1_555 1_555
Ag10_4 Ag11_4 1_555 1_555
Ag10_4 S16_4 1_555 1_555
Ag13_4 S38_4 1_555 1_555
S16_4 C40_4 1_555 1_555
N9_4 C40_4 1_555 1_555
C5_4 H133_4 1_555 1_555
C19_4 H135_4 1_555 1_555
C26_4 H136_4 1_555 1_555
H87_4 C48_4 1_555 1_555
H88_4 C48_4 1_555 1_555
H89_4 C48_4 1_555 1_555
S18_4 Ag22_4 1_555 1_555
N5_4 C21_4 1_555 1_555
C21_4 H38_4 1_555 1_555
H39_4 C21_4 1_555 1_555
C23_4 S13_4 1_555 1_555
C27_4 H46_4 1_555 1_555
H47_4 C27_4 1_555 1_555
H48_4 C27_4 1_555 1_555
C30_4 N5_4 1_555 1_555
H51_4 C30_4 1_555 1_555
H52_4 C30_4 1_555 1_555
C33_4 C21_4 1_555 1_555
H58_4 C33_4 1_555 1_555
H59_4 C33_4 1_555 1_555
H60_4 C33_4 1_555 1_555
Ag12_4 S17_4 1_555 1_555
S17_4 C43_4 1_555 1_555
N10_4 C43_4 1_555 1_555
H74_4 C41_4 1_555 1_555
C44_4 N10_4 1_555 1_555
H79_4 C44_4 1_555 1_555
C46_4 N10_4 1_555 1_555
H82_4 C46_4 1_555 1_555
H83_4 C46_4 1_555 1_555
C47_4 C44_4 1_555 1_555
H84_4 C47_4 1_555 1_555
H85_4 C47_4 1_555 1_555
H86_4 C47_4 1_555 1_555
C49_4 C41_4 1_555 1_555
H90_4 C49_4 1_555 1_555
H91_4 C49_4 1_555 1_555
H92_4 C49_4 1_555 1_555
C50_4 C46_4 1_555 1_555
H93_4 C50_4 1_555 1_555
H94_4 C50_4 1_555 1_555
H95_4 C50_4 1_555 1_555
Ag27_6 S17_4 1_555 1_555
S34_4 Ag12_4 1_555 1_555
S12_4 Ag21_4 1_555 1_555
S14_4 C23_4 1_555 1_555
N5_4 C23_4 1_555 1_555
C27_4 C30_4 1_555 1_555
C41_4 H137_4 1_555 1_555
N2_7 C5_5 1_555 1_555
C5_5 H8_5 1_555 1_555
C12_5 C5_5 1_555 1_555
H17_5 C12_5 1_555 1_555
H18_5 C12_5 1_555 1_555
H19_5 C12_5 1_555 1_555
C15_7 S37 1_555 1_555
S8_5 C15_7 1_555 1_555
C19_5 N2_7 1_555 1_555
H34_5 C19_5 1_555 1_555
C20_5 C19_5 1_555 1_555
H35_5 C20_5 1_555 1_555
H36_5 C20_5 1_555 1_555
H37_5 C20_5 1_555 1_555
Ag18_3 Ag15_5 1_555 1_555
Ag15_5 S21_5 1_555 1_555
Ag16_5 S23_5 1_555 1_555
Ag17_5 S21_5 1_555 1_555
S21_5 C56_5 1_555 1_555
S22_5 Ag18_3 1_555 1_555
S23_5 Ag26 1_555 1_555
S24_5 Ag17_5 1_555 1_555
S36_3 Ag15_5 1_555 1_555
S26_5 Ag18_3 1_555 1_555
S27_5 Ag16_5 1_555 1_555
N11_5 C51_5 1_555 1_555
N12_7 C55_5 1_555 1_555
N13_5 C52_5 1_555 1_555
C51_5 H96_5 1_555 1_555
H97_5 C51_5 1_555 1_555
C52_5 H98_5 1_555 1_555
H99_5 C52_5 1_555 1_555
N14_5 C59_5 1_555 1_555
C53_5 S36_3 1_555 1_555
C54_5 C52_5 1_555 1_555
H100_5 C54_5 1_555 1_555
H101_5 C54_5 1_555 1_555
H102_5 C54_5 1_555 1_555
C55_5 H103_5 1_555 1_555
C56_5 S22_5 1_555 1_555
C57_5 N13_5 1_555 1_555
H104_5 C57_5 1_555 1_555
C58_5 H105_5 1_555 1_555
H106_5 C58_5 1_555 1_555
H107_5 C58_5 1_555 1_555
C59_5 S23_5 1_555 1_555
C60_5 N14_5 1_555 1_555
H108_5 C60_5 1_555 1_555
H109_5 C60_5 1_555 1_555
C61_5 N11_5 1_555 1_555
H110_5 C61_5 1_555 1_555
H111_5 C61_5 1_555 1_555
C62_5 C55_5 1_555 1_555
H112_5 C62_5 1_555 1_555
H113_5 C62_5 1_555 1_555
H114_5 C62_5 1_555 1_555
C63_5 N14_5 1_555 1_555
H115_5 C63_5 1_555 1_555
H116_5 C63_5 1_555 1_555
C64_5 C60_5 1_555 1_555
H117_5 C64_5 1_555 1_555
H118_5 C64_5 1_555 1_555
H119_5 C64_5 1_555 1_555
C65_7 S27_5 1_555 1_555
C66_5 C51_5 1_555 1_555
H120_5 C66_5 1_555 1_555
H121_5 C66_5 1_555 1_555
H122_5 C66_5 1_555 1_555
C67_5 C57_5 1_555 1_555
H123_5 C67_5 1_555 1_555
H124_5 C67_5 1_555 1_555
H125_5 C67_5 1_555 1_555
C68_5 C63_5 1_555 1_555
H126_5 C68_5 1_555 1_555
H127_5 C68_5 1_555 1_555
H128_5 C68_5 1_555 1_555
S28_5 C65_7 1_555 1_555
C69_5 N12_7 1_555 1_555
H129_5 C69_5 1_555 1_555
C70_5 C69_5 1_555 1_555
H130_5 C70_5 1_555 1_555
H131_5 C70_5 1_555 1_555
H132_5 C70_5 1_555 1_555
Ag18_5 Ag15_5 1_555 1_555
Ag23_5 Ag16_5 1_555 1_555
Ag24_5 S8_5 1_555 1_555
Ag25_5 S28_5 1_555 1_555
S30_5 Ag26 1_555 1_555
S31_5 Ag26 1_555 1_555
S35_5 Ag16_5 1_555 1_555
S36_5 Ag15_5 1_555 1_555
N2_7 C15_7 1_555 1_555
S8_5 Ag21 1_555 1_555
Ag17_5 S26_5 1_555 1_555
Ag17_5 S27_5 1_555 1_555
S22_5 Ag18_5 1_555 1_555
S24_5 C59_5 1_555 1_555
S24_5 Ag23_5 1_555 1_555
S26_5 C53_5 1_555 1_555
N11_5 C53_5 1_555 1_555
N12_7 C65_7 1_555 1_555
N13_5 C56_5 1_555 1_555
C58_5 C61_5 1_555 1_555
S28_5 Ag23_5 1_555 1_555
Ag21 S30_5 1_555 1_555
Ag23_5 S31_5 1_555 1_555
Ag24_5 S33 1_555 1_555
Ag25_5 S35_5 1_555 1_555
C5_5 H133_5 1_555 1_555
C19_5 H135_5 1_555 1_555
C55_5 H138_5 1_555 1_555
C57_5 H139_5 1_555 1_555
C69_5 H140_5 1_555 1_555
N2_8 C5_6 1_555 1_555
C5_6 H8_6 1_555 1_555
C12_6 C5_6 1_555 1_555
H17_6 C12_6 1_555 1_555
H18_6 C12_6 1_555 1_555
H19_6 C12_6 1_555 1_555
C15_8 S37_4 1_555 1_555
N12_8 C55_6 1_555 1_555
C55_6 H103_6 1_555 1_555
S28_6 C65_8 1_555 1_555
H130_6 C70_6 1_555 1_555
H131_6 C70_6 1_555 1_555
H132_6 C70_6 1_555 1_555
Ag25_6 S28_6 1_555 1_555
S31_6 Ag26_5 1_555 1_555
S35_6 Ag16_6 1_555 1_555
N2_8 C15_8 1_555 1_555
N12_8 C65_8 1_555 1_555
Ag25_6 S35_6 1_555 1_555
C5_6 H133_6 1_555 1_555
C55_6 H138_6 1_555 1_555
S8_6 C15_9 1_555 1_555
C19_6 N2_9 1_555 1_555
H34_6 C19_6 1_555 1_555
C20_6 C19_6 1_555 1_555
H35_6 C20_6 1_555 1_555
H36_6 C20_6 1_555 1_555
H37_6 C20_6 1_555 1_555
Ag18_2 Ag15_6 1_555 1_555
Ag15_6 S21_6 1_555 1_555
Ag17_6 S21_6 1_555 1_555
S21_6 C56_6 1_555 1_555
S22_6 Ag18_2 1_555 1_555
S23_6 Ag26_6 1_555 1_555
S24_6 Ag17_6 1_555 1_555
S36_2 Ag15_6 1_555 1_555
S26_6 Ag18_2 1_555 1_555
N11_6 C51_6 1_555 1_555
N13_6 C52_6 1_555 1_555
C51_6 H96_6 1_555 1_555
H97_6 C51_6 1_555 1_555
C52_6 H98_6 1_555 1_555
H99_6 C52_6 1_555 1_555
N14_6 C59_6 1_555 1_555
C53_6 S36_2 1_555 1_555
C54_6 C52_6 1_555 1_555
H100_6 C54_6 1_555 1_555
C56_6 S22_6 1_555 1_555
C57_6 N13_6 1_555 1_555
H104_6 C57_6 1_555 1_555
C58_6 H105_6 1_555 1_555
H106_6 C58_6 1_555 1_555
H107_6 C58_6 1_555 1_555
C59_6 S23_6 1_555 1_555
C60_6 N14_6 1_555 1_555
H108_6 C60_6 1_555 1_555
H109_6 C60_6 1_555 1_555
C61_6 N11_6 1_555 1_555
H110_6 C61_6 1_555 1_555
H111_6 C61_6 1_555 1_555
H112_6 C62_6 1_555 1_555
H113_6 C62_6 1_555 1_555
H114_6 C62_6 1_555 1_555
C63_6 N14_6 1_555 1_555
H115_6 C63_6 1_555 1_555
H116_6 C63_6 1_555 1_555
C64_6 C60_6 1_555 1_555
H117_6 C64_6 1_555 1_555
H118_6 C64_6 1_555 1_555
H119_6 C64_6 1_555 1_555
C65_9 S27_6 1_555 1_555
C66_6 C51_6 1_555 1_555
H120_6 C66_6 1_555 1_555
H121_6 C66_6 1_555 1_555
H122_6 C66_6 1_555 1_555
C67_6 C57_6 1_555 1_555
H123_6 C67_6 1_555 1_555
H124_6 C67_6 1_555 1_555
H125_6 C67_6 1_555 1_555
C68_6 C63_6 1_555 1_555
H126_6 C68_6 1_555 1_555
H127_6 C68_6 1_555 1_555
H128_6 C68_6 1_555 1_555
C69_6 N12_9 1_555 1_555
H129_6 C69_6 1_555 1_555
Ag18_6 Ag15_6 1_555 1_555
Ag24_6 S8_6 1_555 1_555
S30_6 Ag26_6 1_555 1_555
S36_6 Ag15_6 1_555 1_555
N2_9 C15_9 1_555 1_555
S8_6 Ag21_4 1_555 1_555
Ag17_6 S26_6 1_555 1_555
Ag17_6 S27_6 1_555 1_555
S22_6 Ag18_6 1_555 1_555
S24_6 C59_6 1_555 1_555
S24_6 Ag23_6 1_555 1_555
S26_6 C53_6 1_555 1_555
N11_6 C53_6 1_555 1_555
N12_9 C65_9 1_555 1_555
N13_6 C56_6 1_555 1_555
C58_6 C61_6 1_555 1_555
Ag21_4 S30_6 1_555 1_555
C19_6 H135_6 1_555 1_555
C57_6 H139_6 1_555 1_555
C69_6 H140_6 1_555 1_555
S8_7 C15_10 1_555 1_555
C19_7 N2_10 1_555 1_555
H34_7 C19_7 1_555 1_555
C20_7 C19_7 1_555 1_555
H35_7 C20_7 1_555 1_555
H36_7 C20_7 1_555 1_555
H37_7 C20_7 1_555 1_555
Ag24_7 S8_7 1_555 1_555
N2_10 C15_10 1_555 1_555
C19_7 H135_7 1_555 1_555
Ag18_4 Ag15_7 1_555 1_555
Ag15_7 S21_7 1_555 1_555
Ag17_7 S21_7 1_555 1_555
S21_7 C56_7 1_555 1_555
S22_7 Ag18_4 1_555 1_555
S23_7 Ag26_2 1_555 1_555
S24_7 Ag17_7 1_555 1_555
S36_4 Ag15_7 1_555 1_555
S26_7 Ag18_4 1_555 1_555
N11_7 C51_7 1_555 1_555
N13_7 C52_7 1_555 1_555
C51_7 H96_7 1_555 1_555
H97_7 C51_7 1_555 1_555
C52_7 H98_7 1_555 1_555
H99_7 C52_7 1_555 1_555
N14_7 C59_7 1_555 1_555
C53_7 S36_4 1_555 1_555
C54_7 C52_7 1_555 1_555
H100_7 C54_7 1_555 1_555
C56_7 S22_7 1_555 1_555
C57_7 N13_7 1_555 1_555
H104_7 C57_7 1_555 1_555
C58_7 H105_7 1_555 1_555
H106_7 C58_7 1_555 1_555
H107_7 C58_7 1_555 1_555
C59_7 S23_7 1_555 1_555
C60_7 N14_7 1_555 1_555
H108_7 C60_7 1_555 1_555
H109_7 C60_7 1_555 1_555
C61_7 N11_7 1_555 1_555
H110_7 C61_7 1_555 1_555
H111_7 C61_7 1_555 1_555
H112_7 C62_7 1_555 1_555
H113_7 C62_7 1_555 1_555
H114_7 C62_7 1_555 1_555
C63_7 N14_7 1_555 1_555
H115_7 C63_7 1_555 1_555
H116_7 C63_7 1_555 1_555
C64_7 C60_7 1_555 1_555
H117_7 C64_7 1_555 1_555
H118_7 C64_7 1_555 1_555
H119_7 C64_7 1_555 1_555
C65_10 S27_7 1_555 1_555
C66_7 C51_7 1_555 1_555
H120_7 C66_7 1_555 1_555
H121_7 C66_7 1_555 1_555
H122_7 C66_7 1_555 1_555
C67_7 C57_7 1_555 1_555
H123_7 C67_7 1_555 1_555
H124_7 C67_7 1_555 1_555
H125_7 C67_7 1_555 1_555
C68_7 C63_7 1_555 1_555
H126_7 C68_7 1_555 1_555
H127_7 C68_7 1_555 1_555
H128_7 C68_7 1_555 1_555
C69_7 N12_10 1_555 1_555
H129_7 C69_7 1_555 1_555
Ag18_7 Ag15_7 1_555 1_555
S30_7 Ag26_2 1_555 1_555
S36_7 Ag15_7 1_555 1_555
Ag17_7 S26_7 1_555 1_555
Ag17_7 S27_7 1_555 1_555
S22_7 Ag18_7 1_555 1_555
S24_7 C59_7 1_555 1_555
S24_7 Ag23_7 1_555 1_555
S26_7 C53_7 1_555 1_555
N11_7 C53_7 1_555 1_555
N12_10 C65_10 1_555 1_555
N13_7 C56_7 1_555 1_555
C58_7 C61_7 1_555 1_555
Ag21_2 S30_7 1_555 1_555
C57_7 H139_7 1_555 1_555
C69_7 H140_7 1_555 1_555
N2_11 C5_7 1_555 1_555
C5_7 H8_7 1_555 1_555
C12_7 C5_7 1_555 1_555
H17_7 C12_7 1_555 1_555
H18_7 C12_7 1_555 1_555
H19_7 C12_7 1_555 1_555
C15_11 S37_2 1_555 1_555
N2_11 C15_11 1_555 1_555
C5_7 H133_7 1_555 1_555
N12_11 C55_7 1_555 1_555
C55_7 H103_7 1_555 1_555
S28_7 C65_11 1_555 1_555
H130_7 C70_7 1_555 1_555
H131_7 C70_7 1_555 1_555
H132_7 C70_7 1_555 1_555
Ag25_7 S28_7 1_555 1_555
S31_7 Ag26_3 1_555 1_555
S35_7 Ag16_7 1_555 1_555
N12_11 C65_11 1_555 1_555
Ag25_7 S35_7 1_555 1_555
C55_7 H138_7 1_555 1_555
Ag18 Ag15_8 1_555 1_555
Ag15_8 S21_8 1_555 1_555
Ag16_8 S23_8 1_555 1_555
Ag17_8 S21_8 1_555 1_555
S21_8 C56_8 1_555 1_555
S22_8 Ag18 1_555 1_555
S23_8 Ag26_4 1_555 1_555
S24_8 Ag17_8 1_555 1_555
S36 Ag15_8 1_555 1_555
S26_8 Ag18 1_555 1_555
S27_8 Ag16_8 1_555 1_555
N11_8 C51_8 1_555 1_555
N12_12 C55_8 1_555 1_555
N13_8 C52_8 1_555 1_555
C51_8 H96_8 1_555 1_555
H97_8 C51_8 1_555 1_555
C52_8 H98_8 1_555 1_555
H99_8 C52_8 1_555 1_555
N14_8 C59_8 1_555 1_555
C53_8 S36 1_555 1_555
C54_8 C52_8 1_555 1_555
H100_8 C54_8 1_555 1_555
H101_8 C54_8 1_555 1_555
H102_8 C54_8 1_555 1_555
C55_8 H103_8 1_555 1_555
C56_8 S22_8 1_555 1_555
C57_8 N13_8 1_555 1_555
H104_8 C57_8 1_555 1_555
C58_8 H105_8 1_555 1_555
H106_8 C58_8 1_555 1_555
H107_8 C58_8 1_555 1_555
C59_8 S23_8 1_555 1_555
C60_8 N14_8 1_555 1_555
H108_8 C60_8 1_555 1_555
H109_8 C60_8 1_555 1_555
C61_8 N11_8 1_555 1_555
H110_8 C61_8 1_555 1_555
H111_8 C61_8 1_555 1_555
C62_8 C55_8 1_555 1_555
H112_8 C62_8 1_555 1_555
H113_8 C62_8 1_555 1_555
H114_8 C62_8 1_555 1_555
C63_8 N14_8 1_555 1_555
H115_8 C63_8 1_555 1_555
H116_8 C63_8 1_555 1_555
C64_8 C60_8 1_555 1_555
H117_8 C64_8 1_555 1_555
H118_8 C64_8 1_555 1_555
H119_8 C64_8 1_555 1_555
C65_12 S27_8 1_555 1_555
C66_8 C51_8 1_555 1_555
H120_8 C66_8 1_555 1_555
H121_8 C66_8 1_555 1_555
H122_8 C66_8 1_555 1_555
C67_8 C57_8 1_555 1_555
H123_8 C67_8 1_555 1_555
H124_8 C67_8 1_555 1_555
H125_8 C67_8 1_555 1_555
C68_8 C63_8 1_555 1_555
H126_8 C68_8 1_555 1_555
H127_8 C68_8 1_555 1_555
H128_8 C68_8 1_555 1_555
S28_8 C65_12 1_555 1_555
C69_8 N12_12 1_555 1_555
H129_8 C69_8 1_555 1_555
C70_8 C69_8 1_555 1_555
H130_8 C70_8 1_555 1_555
H131_8 C70_8 1_555 1_555
H132_8 C70_8 1_555 1_555
Ag18_8 Ag15_8 1_555 1_555
Ag23_8 Ag16_8 1_555 1_555
Ag25_8 S28_8 1_555 1_555
S30_8 Ag26_4 1_555 1_555
S31_8 Ag26_4 1_555 1_555
S35_8 Ag16_8 1_555 1_555
S36_8 Ag15_8 1_555 1_555
Ag17_8 S26_8 1_555 1_555
Ag17_8 S27_8 1_555 1_555
S22_8 Ag18_8 1_555 1_555
S24_8 C59_8 1_555 1_555
S24_8 Ag23_8 1_555 1_555
S26_8 C53_8 1_555 1_555
N11_8 C53_8 1_555 1_555
N12_12 C65_12 1_555 1_555
N13_8 C56_8 1_555 1_555
C58_8 C61_8 1_555 1_555
S28_8 Ag23_8 1_555 1_555
Ag21_3 S30_8 1_555 1_555
Ag23_8 S31_8 1_555 1_555
Ag25_8 S35_8 1_555 1_555
C55_8 H138_8 1_555 1_555
C57_8 H139_8 1_555 1_555
C69_8 H140_8 1_555 1_555
N2_12 C5_8 1_555 1_555
C5_8 H8_8 1_555 1_555
C12_8 C5_8 1_555 1_555
H17_8 C12_8 1_555 1_555
H18_8 C12_8 1_555 1_555
H19_8 C12_8 1_555 1_555
C15_12 S37_3 1_555 1_555
S8_8 C15_12 1_555 1_555
C19_8 N2_12 1_555 1_555
H34_8 C19_8 1_555 1_555
C20_8 C19_8 1_555 1_555
H35_8 C20_8 1_555 1_555
H36_8 C20_8 1_555 1_555
H37_8 C20_8 1_555 1_555
Ag24_8 S8_8 1_555 1_555
N2_12 C15_12 1_555 1_555
C5_8 H133_8 1_555 1_555
C19_8 H135_8 1_555 1_555
N2_13 C5_9 1_555 1_555
C5_9 H8_9 1_555 1_555
C12_9 C5_9 1_555 1_555
H17_9 C12_9 1_555 1_555
H18_9 C12_9 1_555 1_555
H19_9 C12_9 1_555 1_555
C15_13 S38 1_555 1_555
S8_9 C15_13 1_555 1_555
C19_9 N2_13 1_555 1_555
H34_9 C19_9 1_555 1_555
C20_9 C19_9 1_555 1_555
H35_9 C20_9 1_555 1_555
H36_9 C20_9 1_555 1_555
H37_9 C20_9 1_555 1_555
Ag18_7 Ag19_4 1_555 1_555
Ag19_4 S21_9 1_555 1_555
Ag16_9 S23_9 1_555 1_555
Ag17_9 S21_9 1_555 1_555
S21_9 C56_9 1_555 1_555
S29_4 Ag18_7 1_555 1_555
S23_9 Ag27 1_555 1_555
S24_9 Ag17_9 1_555 1_555
S36_7 Ag19_4 1_555 1_555
S26_9 Ag18_7 1_555 1_555
S27_9 Ag16_9 1_555 1_555
N11_9 C51_9 1_555 1_555
N12_13 C55_9 1_555 1_555
N13_9 C52_9 1_555 1_555
C51_9 H96_9 1_555 1_555
H97_9 C51_9 1_555 1_555
C52_9 H98_9 1_555 1_555
H99_9 C52_9 1_555 1_555
N14_9 C59_9 1_555 1_555
C53_9 S36_7 1_555 1_555
C54_9 C52_9 1_555 1_555
H100_9 C54_9 1_555 1_555
H101_9 C54_9 1_555 1_555
H102_9 C54_9 1_555 1_555
C55_9 H103_9 1_555 1_555
C56_9 S29_4 1_555 1_555
C57_9 N13_9 1_555 1_555
H104_9 C57_9 1_555 1_555
C58_9 H105_9 1_555 1_555
H106_9 C58_9 1_555 1_555
H107_9 C58_9 1_555 1_555
C59_9 S23_9 1_555 1_555
C60_9 N14_9 1_555 1_555
H108_9 C60_9 1_555 1_555
H109_9 C60_9 1_555 1_555
C61_9 N11_9 1_555 1_555
H110_9 C61_9 1_555 1_555
H111_9 C61_9 1_555 1_555
C62_9 C55_9 1_555 1_555
H112_9 C62_9 1_555 1_555
H113_9 C62_9 1_555 1_555
H114_9 C62_9 1_555 1_555
C63_9 N14_9 1_555 1_555
H115_9 C63_9 1_555 1_555
H116_9 C63_9 1_555 1_555
C64_9 C60_9 1_555 1_555
H117_9 C64_9 1_555 1_555
H118_9 C64_9 1_555 1_555
H119_9 C64_9 1_555 1_555
C65_13 S27_9 1_555 1_555
C66_9 C51_9 1_555 1_555
H120_9 C66_9 1_555 1_555
H121_9 C66_9 1_555 1_555
H122_9 C66_9 1_555 1_555
C67_9 C57_9 1_555 1_555
H123_9 C67_9 1_555 1_555
H124_9 C67_9 1_555 1_555
H125_9 C67_9 1_555 1_555
C68_9 C63_9 1_555 1_555
H126_9 C68_9 1_555 1_555
H127_9 C68_9 1_555 1_555
H128_9 C68_9 1_555 1_555
S28_9 C65_13 1_555 1_555
C69_9 N12_13 1_555 1_555
H129_9 C69_9 1_555 1_555
C70_9 C69_9 1_555 1_555
H130_9 C70_9 1_555 1_555
H131_9 C70_9 1_555 1_555
H132_9 C70_9 1_555 1_555
Ag23_9 Ag16_9 1_555 1_555
Ag24_9 S8_9 1_555 1_555
Ag25_9 S28_9 1_555 1_555
S30_9 Ag27 1_555 1_555
S31_9 Ag27 1_555 1_555
S35_9 Ag16_9 1_555 1_555
N2_13 C15_13 1_555 1_555
S8_9 Ag22 1_555 1_555
Ag17_9 S26_9 1_555 1_555
Ag17_9 S27_9 1_555 1_555
S24_9 C59_9 1_555 1_555
S24_9 Ag23_9 1_555 1_555
S26_9 C53_9 1_555 1_555
N11_9 C53_9 1_555 1_555
N12_13 C65_13 1_555 1_555
N13_9 C56_9 1_555 1_555
C58_9 C61_9 1_555 1_555
S28_9 Ag23_9 1_555 1_555
Ag22 S30_9 1_555 1_555
Ag23_9 S31_9 1_555 1_555
Ag24_9 S34 1_555 1_555
Ag25_9 S35_9 1_555 1_555
C5_9 H133_9 1_555 1_555
C19_9 H135_9 1_555 1_555
C55_9 H138_9 1_555 1_555
C57_9 H139_9 1_555 1_555
C69_9 H140_9 1_555 1_555
N2_14 C5_10 1_555 1_555
C5_10 H8_10 1_555 1_555
C12_10 C5_10 1_555 1_555
H17_10 C12_10 1_555 1_555
H18_10 C12_10 1_555 1_555
H19_10 C12_10 1_555 1_555
C15_14 S38_3 1_555 1_555
N12_14 C55_10 1_555 1_555
C55_10 H103_10 1_555 1_555
S28_10 C65_14 1_555 1_555
H130_10 C70_10 1_555 1_555
H131_10 C70_10 1_555 1_555
H132_10 C70_10 1_555 1_555
Ag25_10 S28_10 1_555 1_555
S31_10 Ag27_3 1_555 1_555
S35_10 Ag16_10 1_555 1_555
N2_14 C15_14 1_555 1_555
N12_14 C65_14 1_555 1_555
Ag25_10 S35_10 1_555 1_555
C5_10 H133_10 1_555 1_555
C55_10 H138_10 1_555 1_555
S8_10 C15_15 1_555 1_555
C19_10 N2_15 1_555 1_555
H34_10 C19_10 1_555 1_555
C20_10 C19_10 1_555 1_555
H35_10 C20_10 1_555 1_555
H36_10 C20_10 1_555 1_555
H37_10 C20_10 1_555 1_555
Ag18_6 Ag19_2 1_555 1_555
Ag19_2 S21_10 1_555 1_555
Ag17_10 S21_10 1_555 1_555
S21_10 C56_10 1_555 1_555
S29_2 Ag18_6 1_555 1_555
S23_10 Ag27_4 1_555 1_555
S24_10 Ag17_10 1_555 1_555
S36_6 Ag19_2 1_555 1_555
S26_10 Ag18_6 1_555 1_555
N11_10 C51_10 1_555 1_555
N13_10 C52_10 1_555 1_555
C51_10 H96_10 1_555 1_555
H97_10 C51_10 1_555 1_555
C52_10 H98_10 1_555 1_555
H99_10 C52_10 1_555 1_555
N14_10 C59_10 1_555 1_555
C53_10 S36_6 1_555 1_555
C54_10 C52_10 1_555 1_555
H100_10 C54_10 1_555 1_555
C56_10 S29_2 1_555 1_555
C57_10 N13_10 1_555 1_555
H104_10 C57_10 1_555 1_555
C58_10 H105_10 1_555 1_555
H106_10 C58_10 1_555 1_555
H107_10 C58_10 1_555 1_555
C59_10 S23_10 1_555 1_555
C60_10 N14_10 1_555 1_555
H108_10 C60_10 1_555 1_555
H109_10 C60_10 1_555 1_555
C61_10 N11_10 1_555 1_555
H110_10 C61_10 1_555 1_555
H111_10 C61_10 1_555 1_555
H112_10 C62_10 1_555 1_555
H113_10 C62_10 1_555 1_555
H114_10 C62_10 1_555 1_555
C63_10 N14_10 1_555 1_555
H115_10 C63_10 1_555 1_555
H116_10 C63_10 1_555 1_555
C64_10 C60_10 1_555 1_555
H117_10 C64_10 1_555 1_555
H118_10 C64_10 1_555 1_555
H119_10 C64_10 1_555 1_555
C65_15 S27_10 1_555 1_555
C66_10 C51_10 1_555 1_555
H120_10 C66_10 1_555 1_555
H121_10 C66_10 1_555 1_555
H122_10 C66_10 1_555 1_555
C67_10 C57_10 1_555 1_555
H123_10 C67_10 1_555 1_555
H124_10 C67_10 1_555 1_555
H125_10 C67_10 1_555 1_555
C68_10 C63_10 1_555 1_555
H126_10 C68_10 1_555 1_555
H127_10 C68_10 1_555 1_555
H128_10 C68_10 1_555 1_555
C69_10 N12_15 1_555 1_555
H129_10 C69_10 1_555 1_555
Ag24_10 S8_10 1_555 1_555
S30_10 Ag27_4 1_555 1_555
N2_15 C15_15 1_555 1_555
S8_10 Ag22_3 1_555 1_555
Ag17_10 S26_10 1_555 1_555
Ag17_10 S27_10 1_555 1_555
S24_10 C59_10 1_555 1_555
S24_10 Ag23_10 1_555 1_555
S26_10 C53_10 1_555 1_555
N11_10 C53_10 1_555 1_555
N12_15 C65_15 1_555 1_555
N13_10 C56_10 1_555 1_555
C58_10 C61_10 1_555 1_555
Ag22_3 S30_10 1_555 1_555
C19_10 H135_10 1_555 1_555
C57_10 H139_10 1_555 1_555
C69_10 H140_10 1_555 1_555
S8_11 C15_16 1_555 1_555
C19_11 N2_16 1_555 1_555
H34_11 C19_11 1_555 1_555
C20_11 C19_11 1_555 1_555
H35_11 C20_11 1_555 1_555
H36_11 C20_11 1_555 1_555
H37_11 C20_11 1_555 1_555
Ag24_11 S8_11 1_555 1_555
N2_16 C15_16 1_555 1_555
C19_11 H135_11 1_555 1_555
N2_17 C5_11 1_555 1_555
C5_11 H8_11 1_555 1_555
C12_11 C5_11 1_555 1_555
H17_11 C12_11 1_555 1_555
H18_11 C12_11 1_555 1_555
H19_11 C12_11 1_555 1_555
C15_17 S38_4 1_555 1_555
N2_17 C15_17 1_555 1_555
C5_11 H133_11 1_555 1_555
Ag18_8 Ag19 1_555 1_555
Ag19 S21_11 1_555 1_555
Ag17_11 S21_11 1_555 1_555
S21_11 C56_11 1_555 1_555
S29 Ag18_8 1_555 1_555
S23_11 Ag27_5 1_555 1_555
S24_11 Ag17_11 1_555 1_555
S36_8 Ag19 1_555 1_555
S26_11 Ag18_8 1_555 1_555
N11_11 C51_11 1_555 1_555
N13_11 C52_11 1_555 1_555
C51_11 H96_11 1_555 1_555
H97_11 C51_11 1_555 1_555
C52_11 H98_11 1_555 1_555
H99_11 C52_11 1_555 1_555
N14_11 C59_11 1_555 1_555
C53_11 S36_8 1_555 1_555
C54_11 C52_11 1_555 1_555
H100_11 C54_11 1_555 1_555
C56_11 S29 1_555 1_555
C57_11 N13_11 1_555 1_555
H104_11 C57_11 1_555 1_555
C58_11 H105_11 1_555 1_555
H106_11 C58_11 1_555 1_555
H107_11 C58_11 1_555 1_555
C59_11 S23_11 1_555 1_555
C60_11 N14_11 1_555 1_555
H108_11 C60_11 1_555 1_555
H109_11 C60_11 1_555 1_555
C61_11 N11_11 1_555 1_555
H110_11 C61_11 1_555 1_555
H111_11 C61_11 1_555 1_555
H112_11 C62_11 1_555 1_555
H113_11 C62_11 1_555 1_555
H114_11 C62_11 1_555 1_555
C63_11 N14_11 1_555 1_555
H115_11 C63_11 1_555 1_555
H116_11 C63_11 1_555 1_555
C64_11 C60_11 1_555 1_555
H117_11 C64_11 1_555 1_555
H118_11 C64_11 1_555 1_555
H119_11 C64_11 1_555 1_555
C65_16 S27_11 1_555 1_555
C66_11 C51_11 1_555 1_555
H120_11 C66_11 1_555 1_555
H121_11 C66_11 1_555 1_555
H122_11 C66_11 1_555 1_555
C67_11 C57_11 1_555 1_555
H123_11 C67_11 1_555 1_555
H124_11 C67_11 1_555 1_555
H125_11 C67_11 1_555 1_555
C68_11 C63_11 1_555 1_555
H126_11 C68_11 1_555 1_555
H127_11 C68_11 1_555 1_555
H128_11 C68_11 1_555 1_555
C69_11 N12_16 1_555 1_555
H129_11 C69_11 1_555 1_555
S30_11 Ag27_5 1_555 1_555
Ag17_11 S26_11 1_555 1_555
Ag17_11 S27_11 1_555 1_555
S24_11 C59_11 1_555 1_555
S24_11 Ag23_11 1_555 1_555
S26_11 C53_11 1_555 1_555
N11_11 C53_11 1_555 1_555
N12_16 C65_16 1_555 1_555
N13_11 C56_11 1_555 1_555
C58_11 C61_11 1_555 1_555
Ag22_4 S30_11 1_555 1_555
C57_11 H139_11 1_555 1_555
C69_11 H140_11 1_555 1_555
N12_17 C55_11 1_555 1_555
C55_11 H103_11 1_555 1_555
S28_11 C65_17 1_555 1_555
H130_11 C70_11 1_555 1_555
H131_11 C70_11 1_555 1_555
H132_11 C70_11 1_555 1_555
Ag25_11 S28_11 1_555 1_555
S31_11 Ag27_6 1_555 1_555
S35_11 Ag16_11 1_555 1_555
N12_17 C65_17 1_555 1_555
Ag25_11 S35_11 1_555 1_555
C55_11 H138_11 1_555 1_555
Ag18_5 Ag19_3 1_555 1_555
Ag19_3 S21_12 1_555 1_555
Ag16_12 S23_12 1_555 1_555
Ag17_12 S21_12 1_555 1_555
S21_12 C56_12 1_555 1_555
S29_3 Ag18_5 1_555 1_555
S23_12 Ag27_2 1_555 1_555
S24_12 Ag17_12 1_555 1_555
S36_5 Ag19_3 1_555 1_555
S26_12 Ag18_5 1_555 1_555
S27_12 Ag16_12 1_555 1_555
N11_12 C51_12 1_555 1_555
N12_18 C55_12 1_555 1_555
N13_12 C52_12 1_555 1_555
C51_12 H96_12 1_555 1_555
H97_12 C51_12 1_555 1_555
C52_12 H98_12 1_555 1_555
H99_12 C52_12 1_555 1_555
N14_12 C59_12 1_555 1_555
C53_12 S36_5 1_555 1_555
C54_12 C52_12 1_555 1_555
H100_12 C54_12 1_555 1_555
H101_12 C54_12 1_555 1_555
H102_12 C54_12 1_555 1_555
C55_12 H103_12 1_555 1_555
C56_12 S29_3 1_555 1_555
C57_12 N13_12 1_555 1_555
H104_12 C57_12 1_555 1_555
C58_12 H105_12 1_555 1_555
H106_12 C58_12 1_555 1_555
H107_12 C58_12 1_555 1_555
C59_12 S23_12 1_555 1_555
C60_12 N14_12 1_555 1_555
H108_12 C60_12 1_555 1_555
H109_12 C60_12 1_555 1_555
C61_12 N11_12 1_555 1_555
H110_12 C61_12 1_555 1_555
H111_12 C61_12 1_555 1_555
C62_12 C55_12 1_555 1_555
H112_12 C62_12 1_555 1_555
H113_12 C62_12 1_555 1_555
H114_12 C62_12 1_555 1_555
C63_12 N14_12 1_555 1_555
H115_12 C63_12 1_555 1_555
H116_12 C63_12 1_555 1_555
C64_12 C60_12 1_555 1_555
H117_12 C64_12 1_555 1_555
H118_12 C64_12 1_555 1_555
H119_12 C64_12 1_555 1_555
C65_18 S27_12 1_555 1_555
C66_12 C51_12 1_555 1_555
H120_12 C66_12 1_555 1_555
H121_12 C66_12 1_555 1_555
H122_12 C66_12 1_555 1_555
C67_12 C57_12 1_555 1_555
H123_12 C67_12 1_555 1_555
H124_12 C67_12 1_555 1_555
H125_12 C67_12 1_555 1_555
C68_12 C63_12 1_555 1_555
H126_12 C68_12 1_555 1_555
H127_12 C68_12 1_555 1_555
H128_12 C68_12 1_555 1_555
S28_12 C65_18 1_555 1_555
C69_12 N12_18 1_555 1_555
H129_12 C69_12 1_555 1_555
C70_12 C69_12 1_555 1_555
H130_12 C70_12 1_555 1_555
H131_12 C70_12 1_555 1_555
H132_12 C70_12 1_555 1_555
Ag23_12 Ag16_12 1_555 1_555
Ag25_12 S28_12 1_555 1_555
S30_12 Ag27_2 1_555 1_555
S31_12 Ag27_2 1_555 1_555
S35_12 Ag16_12 1_555 1_555
Ag17_12 S26_12 1_555 1_555
Ag17_12 S27_12 1_555 1_555
S24_12 C59_12 1_555 1_555
S24_12 Ag23_12 1_555 1_555
S26_12 C53_12 1_555 1_555
N11_12 C53_12 1_555 1_555
N12_18 C65_18 1_555 1_555
N13_12 C56_12 1_555 1_555
C58_12 C61_12 1_555 1_555
S28_12 Ag23_12 1_555 1_555
Ag22_2 S30_12 1_555 1_555
Ag23_12 S31_12 1_555 1_555
Ag25_12 S35_12 1_555 1_555
C55_12 H138_12 1_555 1_555
C57_12 H139_12 1_555 1_555
C69_12 H140_12 1_555 1_555
N2_18 C5_12 1_555 1_555
C5_12 H8_12 1_555 1_555
C12_12 C5_12 1_555 1_555
H17_12 C12_12 1_555 1_555
H18_12 C12_12 1_555 1_555
H19_12 C12_12 1_555 1_555
C15_18 S38_2 1_555 1_555
S8_12 C15_18 1_555 1_555
C19_12 N2_18 1_555 1_555
H34_12 C19_12 1_555 1_555
C20_12 C19_12 1_555 1_555
H35_12 C20_12 1_555 1_555
H36_12 C20_12 1_555 1_555
H37_12 C20_12 1_555 1_555
Ag24_12 S8_12 1_555 1_555
N2_18 C15_18 1_555 1_555
C5_12 H133_12 1_555 1_555
C19_12 H135_12 1_555 1_555
N11_13 C51_13 1_555 1_555
C51_13 H96_13 1_555 1_555
H97_13 C51_13 1_555 1_555
C53_13 S25_5 1_555 1_555
C58_13 H105_13 1_555 1_555
H106_13 C58_13 1_555 1_555
H107_13 C58_13 1_555 1_555
C61_13 N11_13 1_555 1_555
H110_13 C61_13 1_555 1_555
H111_13 C61_13 1_555 1_555
C66_13 C51_13 1_555 1_555
H120_13 C66_13 1_555 1_555
H121_13 C66_13 1_555 1_555
H122_13 C66_13 1_555 1_555
S26_13 C53_13 1_555 1_555
N11_13 C53_13 1_555 1_555
C58_13 C61_13 1_555 1_555
Ag14_5 Ag15_9 1_555 1_555
Ag15_9 S21_13 1_555 1_555
Ag24_10 S21_13 1_555 1_555
S21_13 C56_13 1_555 1_555
S22_9 Ag14_5 1_555 1_555
N13_13 C52_13 1_555 1_555
C52_13 H98_13 1_555 1_555
H99_13 C52_13 1_555 1_555
N14_13 C59_13 1_555 1_555
C54_13 C52_13 1_555 1_555
H100_13 C54_13 1_555 1_555
H101_13 C54_13 1_555 1_555
H102_13 C54_13 1_555 1_555
C56_13 S22_9 1_555 1_555
C57_13 N13_13 1_555 1_555
H104_13 C57_13 1_555 1_555
C59_13 S30_10 1_555 1_555
C60_13 N14_13 1_555 1_555
H109_13 C60_13 1_555 1_555
C63_13 N14_13 1_555 1_555
H115_13 C63_13 1_555 1_555
H116_13 C63_13 1_555 1_555
C64_13 C60_13 1_555 1_555
H117_13 C64_13 1_555 1_555
H118_13 C64_13 1_555 1_555
H119_13 C64_13 1_555 1_555
C67_13 C57_13 1_555 1_555
H123_13 C67_13 1_555 1_555
H124_13 C67_13 1_555 1_555
H125_13 C67_13 1_555 1_555
C68_13 C63_13 1_555 1_555
H126_13 C68_13 1_555 1_555
H127_13 C68_13 1_555 1_555
H128_13 C68_13 1_555 1_555
Ag18_9 Ag15_9 1_555 1_555
Ag19_5 Ag14_5 1_555 1_555
S29_5 Ag14_5 1_555 1_555
S36_9 Ag15_9 1_555 1_555
S22_9 Ag18_9 1_555 1_555
N13_13 C56_13 1_555 1_555
C57_13 H139_13 1_555 1_555
Ag14_6 Ag15_10 1_555 1_555
S22_10 Ag14_6 1_555 1_555
N13_14 C52_14 1_555 1_555
C52_14 H98_14 1_555 1_555
H99_14 C52_14 1_555 1_555
C54_14 C52_14 1_555 1_555
H100_14 C54_14 1_555 1_555
H101_14 C54_14 1_555 1_555
H102_14 C54_14 1_555 1_555
C56_14 S22_10 1_555 1_555
Ag18_10 Ag15_10 1_555 1_555
Ag19_6 Ag14_6 1_555 1_555
S29_6 Ag14_6 1_555 1_555
S22_10 Ag18_10 1_555 1_555
N13_14 C56_14 1_555 1_555
N11_14 C51_14 1_555 1_555
C51_14 H96_14 1_555 1_555
H97_14 C51_14 1_555 1_555
C53_14 S25_6 1_555 1_555
C58_14 H105_14 1_555 1_555
H106_14 C58_14 1_555 1_555
H107_14 C58_14 1_555 1_555
C61_14 N11_14 1_555 1_555
H110_14 C61_14 1_555 1_555
H111_14 C61_14 1_555 1_555
S26_14 C53_14 1_555 1_555
N11_14 C53_14 1_555 1_555
C58_14 C61_14 1_555 1_555
N14_14 C59_14 1_555 1_555
H104_14 C57_14 1_555 1_555
C59_14 S30_11 1_555 1_555
C60_14 N14_14 1_555 1_555
H109_14 C60_14 1_555 1_555
C63_14 N14_14 1_555 1_555
H115_14 C63_14 1_555 1_555
H116_14 C63_14 1_555 1_555
C64_14 C60_14 1_555 1_555
H117_14 C64_14 1_555 1_555
H118_14 C64_14 1_555 1_555
H119_14 C64_14 1_555 1_555
C67_14 C57_14 1_555 1_555
H123_14 C67_14 1_555 1_555
H124_14 C67_14 1_555 1_555
H125_14 C67_14 1_555 1_555
C68_14 C63_14 1_555 1_555
H126_14 C68_14 1_555 1_555
H127_14 C68_14 1_555 1_555
H128_14 C68_14 1_555 1_555
C57_14 H139_14 1_555 1_555
H120_14 C66_14 1_555 1_555
H121_14 C66_14 1_555 1_555
H122_14 C66_14 1_555 1_555
N14_15 C59_15 1_555 1_555
H104_15 C57_15 1_555 1_555
C59_15 S30_12 1_555 1_555
C60_15 N14_15 1_555 1_555
H108_15 C60_15 1_555 1_555
H109_15 C60_15 1_555 1_555
C63_15 N14_15 1_555 1_555
H115_15 C63_15 1_555 1_555
H116_15 C63_15 1_555 1_555
C64_15 C60_15 1_555 1_555
H117_15 C64_15 1_555 1_555
H118_15 C64_15 1_555 1_555
H119_15 C64_15 1_555 1_555
H120_15 C66_15 1_555 1_555
H121_15 C66_15 1_555 1_555
H122_15 C66_15 1_555 1_555
C67_15 C57_15 1_555 1_555
H123_15 C67_15 1_555 1_555
H124_15 C67_15 1_555 1_555
H125_15 C67_15 1_555 1_555
C68_15 C63_15 1_555 1_555
H126_15 C68_15 1_555 1_555
H127_15 C68_15 1_555 1_555
H128_15 C68_15 1_555 1_555
S34_2 C59_15 1_555 1_555
C57_15 H139_15 1_555 1_555
Ag14_7 Ag15_11 1_555 1_555
S22_11 Ag14_7 1_555 1_555
S25_7 Ag15_11 1_555 1_555
S26_15 Ag14_7 1_555 1_555
N11_15 C51_15 1_555 1_555
N13_15 C52_15 1_555 1_555
C51_15 H96_15 1_555 1_555
H97_15 C51_15 1_555 1_555
C52_15 H98_15 1_555 1_555
H99_15 C52_15 1_555 1_555
C53_15 S25_7 1_555 1_555
C54_15 C52_15 1_555 1_555
H100_15 C54_15 1_555 1_555
H101_15 C54_15 1_555 1_555
H102_15 C54_15 1_555 1_555
C56_15 S22_11 1_555 1_555
C58_15 H105_15 1_555 1_555
H106_15 C58_15 1_555 1_555
H107_15 C58_15 1_555 1_555
C61_15 N11_15 1_555 1_555
H110_15 C61_15 1_555 1_555
H111_15 C61_15 1_555 1_555
Ag18_11 Ag15_11 1_555 1_555
Ag19_7 Ag14_7 1_555 1_555
S29_7 Ag14_7 1_555 1_555
Ag24_12 S26_15 1_555 1_555
S22_11 Ag18_11 1_555 1_555
S25_7 Ag19_7 1_555 1_555
S26_15 C53_15 1_555 1_555
N11_15 C53_15 1_555 1_555
N13_15 C56_15 1_555 1_555
C58_15 C61_15 1_555 1_555
Ag14_8 Ag15_12 1_555 1_555
Ag15_12 S21_16 1_555 1_555
Ag24_9 S21_16 1_555 1_555
S21_16 C56_16 1_555 1_555
S22_12 Ag14_8 1_555 1_555
S25_8 Ag15_12 1_555 1_555
S26_16 Ag14_8 1_555 1_555
N11_16 C51_16 1_555 1_555
N13_16 C52_16 1_555 1_555
C51_16 H96_16 1_555 1_555
H97_16 C51_16 1_555 1_555
C52_16 H98_16 1_555 1_555
H99_16 C52_16 1_555 1_555
N14_16 C59_16 1_555 1_555
C53_16 S25_8 1_555 1_555
C54_16 C52_16 1_555 1_555
H100_16 C54_16 1_555 1_555
H101_16 C54_16 1_555 1_555
H102_16 C54_16 1_555 1_555
C56_16 S22_12 1_555 1_555
C57_16 N13_16 1_555 1_555
H104_16 C57_16 1_555 1_555
C58_16 H105_16 1_555 1_555
H106_16 C58_16 1_555 1_555
H107_16 C58_16 1_555 1_555
C59_16 S30_9 1_555 1_555
C60_16 N14_16 1_555 1_555
H108_16 C60_16 1_555 1_555
H109_16 C60_16 1_555 1_555
C61_16 N11_16 1_555 1_555
H110_16 C61_16 1_555 1_555
H111_16 C61_16 1_555 1_555
C63_16 N14_16 1_555 1_555
H115_16 C63_16 1_555 1_555
H116_16 C63_16 1_555 1_555
C64_16 C60_16 1_555 1_555
H117_16 C64_16 1_555 1_555
H118_16 C64_16 1_555 1_555
H119_16 C64_16 1_555 1_555
C66_16 C51_16 1_555 1_555
H120_16 C66_16 1_555 1_555
H121_16 C66_16 1_555 1_555
H122_16 C66_16 1_555 1_555
C67_16 C57_16 1_555 1_555
H123_16 C67_16 1_555 1_555
H124_16 C67_16 1_555 1_555
H125_16 C67_16 1_555 1_555
C68_16 C63_16 1_555 1_555
H126_16 C68_16 1_555 1_555
H127_16 C68_16 1_555 1_555
H128_16 C68_16 1_555 1_555
Ag18_12 Ag15_12 1_555 1_555
Ag19_8 Ag14_8 1_555 1_555
S29_8 Ag14_8 1_555 1_555
S36_12 Ag15_12 1_555 1_555
Ag24_9 S26_16 1_555 1_555
S22_12 Ag18_12 1_555 1_555
S34 C59_16 1_555 1_555
S25_8 Ag19_8 1_555 1_555
S26_16 C53_16 1_555 1_555
N11_16 C53_16 1_555 1_555
N13_16 C56_16 1_555 1_555
C58_16 C61_16 1_555 1_555
C57_16 H139_16 1_555 1_555
N11_17 C51_17 1_555 1_555
C51_17 H96_17 1_555 1_555
H97_17 C51_17 1_555 1_555
C53_17 S36_11 1_555 1_555
C58_17 H105_17 1_555 1_555
H106_17 C58_17 1_555 1_555
H107_17 C58_17 1_555 1_555
C61_17 N11_17 1_555 1_555
H110_17 C61_17 1_555 1_555
H111_17 C61_17 1_555 1_555
C66_17 C51_17 1_555 1_555
H120_17 C66_17 1_555 1_555
H121_17 C66_17 1_555 1_555
H122_17 C66_17 1_555 1_555
S26_17 C53_17 1_555 1_555
N11_17 C53_17 1_555 1_555
C58_17 C61_17 1_555 1_555
Ag18_11 Ag15_13 1_555 1_555
Ag15_13 S21_17 1_555 1_555
Ag24_6 S21_17 1_555 1_555
S21_17 C56_17 1_555 1_555
S22_13 Ag18_11 1_555 1_555
N13_17 C52_17 1_555 1_555
C52_17 H98_17 1_555 1_555
H99_17 C52_17 1_555 1_555
N14_17 C59_17 1_555 1_555
C54_17 C52_17 1_555 1_555
H100_17 C54_17 1_555 1_555
H101_17 C54_17 1_555 1_555
H102_17 C54_17 1_555 1_555
C56_17 S22_13 1_555 1_555
C57_17 N13_17 1_555 1_555
H104_17 C57_17 1_555 1_555
C59_17 S30_6 1_555 1_555
C60_17 N14_17 1_555 1_555
H109_17 C60_17 1_555 1_555
C63_17 N14_17 1_555 1_555
H115_17 C63_17 1_555 1_555
H116_17 C63_17 1_555 1_555
C64_17 C60_17 1_555 1_555
H117_17 C64_17 1_555 1_555
H118_17 C64_17 1_555 1_555
H119_17 C64_17 1_555 1_555
C67_17 C57_17 1_555 1_555
H123_17 C67_17 1_555 1_555
H124_17 C67_17 1_555 1_555
H125_17 C67_17 1_555 1_555
C68_17 C63_17 1_555 1_555
H126_17 C68_17 1_555 1_555
H127_17 C68_17 1_555 1_555
H128_17 C68_17 1_555 1_555
Ag18_13 Ag15_13 1_555 1_555
S36_13 Ag15_13 1_555 1_555
S22_13 Ag18_13 1_555 1_555
N13_17 C56_17 1_555 1_555
C57_17 H139_17 1_555 1_555
Ag18_10 Ag15_14 1_555 1_555
S22_14 Ag18_10 1_555 1_555
N13_18 C52_18 1_555 1_555
C52_18 H98_18 1_555 1_555
H99_18 C52_18 1_555 1_555
C54_18 C52_18 1_555 1_555
H100_18 C54_18 1_555 1_555
H101_18 C54_18 1_555 1_555
H102_18 C54_18 1_555 1_555
C56_18 S22_14 1_555 1_555
Ag18_14 Ag15_14 1_555 1_555
S22_14 Ag18_14 1_555 1_555
N13_18 C56_18 1_555 1_555
N14_18 C59_18 1_555 1_555
H104_18 C57_18 1_555 1_555
C59_18 S30_7 1_555 1_555
C60_18 N14_18 1_555 1_555
H109_18 C60_18 1_555 1_555
C63_18 N14_18 1_555 1_555
H115_18 C63_18 1_555 1_555
H116_18 C63_18 1_555 1_555
C64_18 C60_18 1_555 1_555
H117_18 C64_18 1_555 1_555
H118_18 C64_18 1_555 1_555
H119_18 C64_18 1_555 1_555
C67_18 C57_18 1_555 1_555
H123_18 C67_18 1_555 1_555
H124_18 C67_18 1_555 1_555
H125_18 C67_18 1_555 1_555
C68_18 C63_18 1_555 1_555
H126_18 C68_18 1_555 1_555
H127_18 C68_18 1_555 1_555
H128_18 C68_18 1_555 1_555
C57_18 H139_18 1_555 1_555
N11_18 C51_18 1_555 1_555
C51_18 H96_18 1_555 1_555
H97_18 C51_18 1_555 1_555
C53_18 S36_10 1_555 1_555
C58_18 H105_18 1_555 1_555
H106_18 C58_18 1_555 1_555
H107_18 C58_18 1_555 1_555
C61_18 N11_18 1_555 1_555
H110_18 C61_18 1_555 1_555
H111_18 C61_18 1_555 1_555
S26_18 C53_18 1_555 1_555
N11_18 C53_18 1_555 1_555
C58_18 C61_18 1_555 1_555
H120_18 C66_18 1_555 1_555
H121_18 C66_18 1_555 1_555
H122_18 C66_18 1_555 1_555
N14_19 C59_19 1_555 1_555
H104_19 C57_19 1_555 1_555
C59_19 S30_8 1_555 1_555
C60_19 N14_19 1_555 1_555
H108_19 C60_19 1_555 1_555
H109_19 C60_19 1_555 1_555
C63_19 N14_19 1_555 1_555
H115_19 C63_19 1_555 1_555
H116_19 C63_19 1_555 1_555
C64_19 C60_19 1_555 1_555
H117_19 C64_19 1_555 1_555
H118_19 C64_19 1_555 1_555
H119_19 C64_19 1_555 1_555
H120_19 C66_19 1_555 1_555
H121_19 C66_19 1_555 1_555
H122_19 C66_19 1_555 1_555
C67_19 C57_19 1_555 1_555
H123_19 C67_19 1_555 1_555
H124_19 C67_19 1_555 1_555
H125_19 C67_19 1_555 1_555
C68_19 C63_19 1_555 1_555
H126_19 C68_19 1_555 1_555
H127_19 C68_19 1_555 1_555
H128_19 C68_19 1_555 1_555
S33_3 C59_19 1_555 1_555
C57_19 H139_19 1_555 1_555
Ag18_12 Ag15_15 1_555 1_555
S22_15 Ag18_12 1_555 1_555
S36_12 Ag15_15 1_555 1_555
S26_19 Ag18_12 1_555 1_555
N11_19 C51_19 1_555 1_555
N13_19 C52_19 1_555 1_555
C51_19 H96_19 1_555 1_555
H97_19 C51_19 1_555 1_555
C52_19 H98_19 1_555 1_555
H99_19 C52_19 1_555 1_555
C53_19 S36_12 1_555 1_555
C54_19 C52_19 1_555 1_555
H100_19 C54_19 1_555 1_555
H101_19 C54_19 1_555 1_555
H102_19 C54_19 1_555 1_555
C56_19 S22_15 1_555 1_555
C58_19 H105_19 1_555 1_555
H106_19 C58_19 1_555 1_555
H107_19 C58_19 1_555 1_555
C61_19 N11_19 1_555 1_555
H110_19 C61_19 1_555 1_555
H111_19 C61_19 1_555 1_555
Ag18_15 Ag15_15 1_555 1_555
Ag24_8 S26_19 1_555 1_555
S22_15 Ag18_15 1_555 1_555
S26_19 C53_19 1_555 1_555
N11_19 C53_19 1_555 1_555
N13_19 C56_19 1_555 1_555
C58_19 C61_19 1_555 1_555
Ag18_9 Ag15_16 1_555 1_555
Ag15_16 S21_20 1_555 1_555
Ag24_5 S21_20 1_555 1_555
S21_20 C56_20 1_555 1_555
S22_16 Ag18_9 1_555 1_555
S36_9 Ag15_16 1_555 1_555
S26_20 Ag18_9 1_555 1_555
N11_20 C51_20 1_555 1_555
N13_20 C52_20 1_555 1_555
C51_20 H96_20 1_555 1_555
H97_20 C51_20 1_555 1_555
C52_20 H98_20 1_555 1_555
H99_20 C52_20 1_555 1_555
N14_20 C59_20 1_555 1_555
C53_20 S36_9 1_555 1_555
C54_20 C52_20 1_555 1_555
H100_20 C54_20 1_555 1_555
H101_20 C54_20 1_555 1_555
H102_20 C54_20 1_555 1_555
C56_20 S22_16 1_555 1_555
C57_20 N13_20 1_555 1_555
H104_20 C57_20 1_555 1_555
C58_20 H105_20 1_555 1_555
H106_20 C58_20 1_555 1_555
H107_20 C58_20 1_555 1_555
C59_20 S30_5 1_555 1_555
C60_20 N14_20 1_555 1_555
H108_20 C60_20 1_555 1_555
H109_20 C60_20 1_555 1_555
C61_20 N11_20 1_555 1_555
H110_20 C61_20 1_555 1_555
H111_20 C61_20 1_555 1_555
C63_20 N14_20 1_555 1_555
H115_20 C63_20 1_555 1_555
H116_20 C63_20 1_555 1_555
C64_20 C60_20 1_555 1_555
H117_20 C64_20 1_555 1_555
H118_20 C64_20 1_555 1_555
H119_20 C64_20 1_555 1_555
C66_20 C51_20 1_555 1_555
H120_20 C66_20 1_555 1_555
H121_20 C66_20 1_555 1_555
H122_20 C66_20 1_555 1_555
C67_20 C57_20 1_555 1_555
H123_20 C67_20 1_555 1_555
H124_20 C67_20 1_555 1_555
H125_20 C67_20 1_555 1_555
C68_20 C63_20 1_555 1_555
H126_20 C68_20 1_555 1_555
H127_20 C68_20 1_555 1_555
H128_20 C68_20 1_555 1_555
Ag18_16 Ag15_16 1_555 1_555
S36_16 Ag15_16 1_555 1_555
Ag24_5 S26_20 1_555 1_555
S22_16 Ag18_16 1_555 1_555
S33 C59_20 1_555 1_555
S26_20 C53_20 1_555 1_555
N11_20 C53_20 1_555 1_555
N13_20 C56_20 1_555 1_555
C58_20 C61_20 1_555 1_555
C57_20 H139_20 1_555 1_555
N11_21 C51_21 1_555 1_555
C51_21 H96_21 1_555 1_555
H97_21 C51_21 1_555 1_555
C53_21 S36_15 1_555 1_555
C58_21 H105_21 1_555 1_555
H106_21 C58_21 1_555 1_555
H107_21 C58_21 1_555 1_555
C61_21 N11_21 1_555 1_555
H110_21 C61_21 1_555 1_555
H111_21 C61_21 1_555 1_555
C66_21 C51_21 1_555 1_555
H120_21 C66_21 1_555 1_555
H121_21 C66_21 1_555 1_555
H122_21 C66_21 1_555 1_555
S26_21 C53_21 1_555 1_555
N11_21 C53_21 1_555 1_555
C58_21 C61_21 1_555 1_555
Ag18_15 Ag19_8 1_555 1_555
Ag19_8 S21_21 1_555 1_555
Ag24_2 S21_21 1_555 1_555
S21_21 C56_21 1_555 1_555
S29_8 Ag18_15 1_555 1_555
N13_21 C52_21 1_555 1_555
C52_21 H98_21 1_555 1_555
H99_21 C52_21 1_555 1_555
N14_21 C59_21 1_555 1_555
C54_21 C52_21 1_555 1_555
H100_21 C54_21 1_555 1_555
H101_21 C54_21 1_555 1_555
H102_21 C54_21 1_555 1_555
C56_21 S29_8 1_555 1_555
C57_21 N13_21 1_555 1_555
H104_21 C57_21 1_555 1_555
C59_21 S30_2 1_555 1_555
C60_21 N14_21 1_555 1_555
H109_21 C60_21 1_555 1_555
C63_21 N14_21 1_555 1_555
H115_21 C63_21 1_555 1_555
H116_21 C63_21 1_555 1_555
C64_21 C60_21 1_555 1_555
H117_21 C64_21 1_555 1_555
H118_21 C64_21 1_555 1_555
H119_21 C64_21 1_555 1_555
C67_21 C57_21 1_555 1_555
H123_21 C67_21 1_555 1_555
H124_21 C67_21 1_555 1_555
H125_21 C67_21 1_555 1_555
C68_21 C63_21 1_555 1_555
H126_21 C68_21 1_555 1_555
H127_21 C68_21 1_555 1_555
H128_21 C68_21 1_555 1_555
N13_21 C56_21 1_555 1_555
C57_21 H139_21 1_555 1_555
Ag18_14 Ag19_6 1_555 1_555
S29_6 Ag18_14 1_555 1_555
N13_22 C52_22 1_555 1_555
C52_22 H98_22 1_555 1_555
H99_22 C52_22 1_555 1_555
C54_22 C52_22 1_555 1_555
H100_22 C54_22 1_555 1_555
H101_22 C54_22 1_555 1_555
H102_22 C54_22 1_555 1_555
C56_22 S29_6 1_555 1_555
N13_22 C56_22 1_555 1_555
N11_22 C51_22 1_555 1_555
C51_22 H96_22 1_555 1_555
H97_22 C51_22 1_555 1_555
C53_22 S36_14 1_555 1_555
C58_22 H105_22 1_555 1_555
H106_22 C58_22 1_555 1_555
H107_22 C58_22 1_555 1_555
C61_22 N11_22 1_555 1_555
H110_22 C61_22 1_555 1_555
H111_22 C61_22 1_555 1_555
S26_22 C53_22 1_555 1_555
N11_22 C53_22 1_555 1_555
C58_22 C61_22 1_555 1_555
N14_22 C59_22 1_555 1_555
H104_22 C57_22 1_555 1_555
C59_22 S30_3 1_555 1_555
C60_22 N14_22 1_555 1_555
H109_22 C60_22 1_555 1_555
C63_22 N14_22 1_555 1_555
H115_22 C63_22 1_555 1_555
H116_22 C63_22 1_555 1_555
C64_22 C60_22 1_555 1_555
H117_22 C64_22 1_555 1_555
H118_22 C64_22 1_555 1_555
H119_22 C64_22 1_555 1_555
C67_22 C57_22 1_555 1_555
H123_22 C67_22 1_555 1_555
H124_22 C67_22 1_555 1_555
H125_22 C67_22 1_555 1_555
C68_22 C63_22 1_555 1_555
H126_22 C68_22 1_555 1_555
H127_22 C68_22 1_555 1_555
H128_22 C68_22 1_555 1_555
C57_22 H139_22 1_555 1_555
H120_22 C66_22 1_555 1_555
H121_22 C66_22 1_555 1_555
H122_22 C66_22 1_555 1_555
N14_23 C59_23 1_555 1_555
H104_23 C57_23 1_555 1_555
C59_23 S30_4 1_555 1_555
C60_23 N14_23 1_555 1_555
H108_23 C60_23 1_555 1_555
H109_23 C60_23 1_555 1_555
C63_23 N14_23 1_555 1_555
H115_23 C63_23 1_555 1_555
H116_23 C63_23 1_555 1_555
C64_23 C60_23 1_555 1_555
H117_23 C64_23 1_555 1_555
H118_23 C64_23 1_555 1_555
H119_23 C64_23 1_555 1_555
H120_23 C66_23 1_555 1_555
H121_23 C66_23 1_555 1_555
H122_23 C66_23 1_555 1_555
C67_23 C57_23 1_555 1_555
H123_23 C67_23 1_555 1_555
H124_23 C67_23 1_555 1_555
H125_23 C67_23 1_555 1_555
C68_23 C63_23 1_555 1_555
H126_23 C68_23 1_555 1_555
H127_23 C68_23 1_555 1_555
H128_23 C68_23 1_555 1_555
S32_4 C59_23 1_555 1_555
C57_23 H139_23 1_555 1_555
Ag18_16 Ag19_5 1_555 1_555
S29_5 Ag18_16 1_555 1_555
S36_16 Ag19_5 1_555 1_555
S26_23 Ag18_16 1_555 1_555
N11_23 C51_23 1_555 1_555
N13_23 C52_23 1_555 1_555
C51_23 H96_23 1_555 1_555
H97_23 C51_23 1_555 1_555
C52_23 H98_23 1_555 1_555
H99_23 C52_23 1_555 1_555
C53_23 S36_16 1_555 1_555
C54_23 C52_23 1_555 1_555
H100_23 C54_23 1_555 1_555
H101_23 C54_23 1_555 1_555
H102_23 C54_23 1_555 1_555
C56_23 S29_5 1_555 1_555
C58_23 H105_23 1_555 1_555
H106_23 C58_23 1_555 1_555
H107_23 C58_23 1_555 1_555
C61_23 N11_23 1_555 1_555
H110_23 C61_23 1_555 1_555
H111_23 C61_23 1_555 1_555
Ag24_4 S26_23 1_555 1_555
S26_23 C53_23 1_555 1_555
N11_23 C53_23 1_555 1_555
N13_23 C56_23 1_555 1_555
C58_23 C61_23 1_555 1_555
Ag18_13 Ag19_7 1_555 1_555
Ag19_7 S21_24 1_555 1_555
Ag24 S21_24 1_555 1_555
S21_24 C56_24 1_555 1_555
S29_7 Ag18_13 1_555 1_555
S36_13 Ag19_7 1_555 1_555
S26_24 Ag18_13 1_555 1_555
N11_24 C51_24 1_555 1_555
N13_24 C52_24 1_555 1_555
C51_24 H96_24 1_555 1_555
H97_24 C51_24 1_555 1_555
C52_24 H98_24 1_555 1_555
H99_24 C52_24 1_555 1_555
N14_24 C59_24 1_555 1_555
C53_24 S36_13 1_555 1_555
C54_24 C52_24 1_555 1_555
H100_24 C54_24 1_555 1_555
H101_24 C54_24 1_555 1_555
H102_24 C54_24 1_555 1_555
C56_24 S29_7 1_555 1_555
C57_24 N13_24 1_555 1_555
H104_24 C57_24 1_555 1_555
C58_24 H105_24 1_555 1_555
H106_24 C58_24 1_555 1_555
H107_24 C58_24 1_555 1_555
C59_24 S30 1_555 1_555
C60_24 N14_24 1_555 1_555
H108_24 C60_24 1_555 1_555
H109_24 C60_24 1_555 1_555
C61_24 N11_24 1_555 1_555
H110_24 C61_24 1_555 1_555
H111_24 C61_24 1_555 1_555
C63_24 N14_24 1_555 1_555
H115_24 C63_24 1_555 1_555
H116_24 C63_24 1_555 1_555
C64_24 C60_24 1_555 1_555
H117_24 C64_24 1_555 1_555
H118_24 C64_24 1_555 1_555
H119_24 C64_24 1_555 1_555
C66_24 C51_24 1_555 1_555
H120_24 C66_24 1_555 1_555
H121_24 C66_24 1_555 1_555
H122_24 C66_24 1_555 1_555
C67_24 C57_24 1_555 1_555
H123_24 C67_24 1_555 1_555
H124_24 C67_24 1_555 1_555
H125_24 C67_24 1_555 1_555
C68_24 C63_24 1_555 1_555
H126_24 C68_24 1_555 1_555
H127_24 C68_24 1_555 1_555
H128_24 C68_24 1_555 1_555
Ag24 S26_24 1_555 1_555
S32 C59_24 1_555 1_555
S26_24 C53_24 1_555 1_555
N11_24 C53_24 1_555 1_555
N13_24 C56_24 1_555 1_555
C58_24 C61_24 1_555 1_555
C57_24 H139_24 1_555 1_555
Ag14_9 Ag15_17 1_555 1_555
Ag15_17 S21_25 1_555 1_555
Ag25_3 S21_25 1_555 1_555
S21_25 C56_25 1_555 1_555
S22_17 Ag14_9 1_555 1_555
S25_9 Ag15_17 1_555 1_555
S26_25 Ag14_9 1_555 1_555
N11_25 C51_25 1_555 1_555
N13_25 C52_25 1_555 1_555
C51_25 H96_25 1_555 1_555
H97_25 C51_25 1_555 1_555
C52_25 H98_25 1_555 1_555
H99_25 C52_25 1_555 1_555
N14_25 C59_25 1_555 1_555
C53_25 S25_9 1_555 1_555
C54_25 C52_25 1_555 1_555
H100_25 C54_25 1_555 1_555
C56_25 S22_17 1_555 1_555
C57_25 N13_25 1_555 1_555
H104_25 C57_25 1_555 1_555
C58_25 H105_25 1_555 1_555
H106_25 C58_25 1_555 1_555
H107_25 C58_25 1_555 1_555
C59_25 S31_3 1_555 1_555
C60_25 N14_25 1_555 1_555
H108_25 C60_25 1_555 1_555
H109_25 C60_25 1_555 1_555
C61_25 N11_25 1_555 1_555
H110_25 C61_25 1_555 1_555
H111_25 C61_25 1_555 1_555
C63_25 N14_25 1_555 1_555
H115_25 C63_25 1_555 1_555
H116_25 C63_25 1_555 1_555
C64_25 C60_25 1_555 1_555
H117_25 C64_25 1_555 1_555
H118_25 C64_25 1_555 1_555
H119_25 C64_25 1_555 1_555
C66_25 C51_25 1_555 1_555
H120_25 C66_25 1_555 1_555
H121_25 C66_25 1_555 1_555
H122_25 C66_25 1_555 1_555
C67_25 C57_25 1_555 1_555
H123_25 C67_25 1_555 1_555
H124_25 C67_25 1_555 1_555
H125_25 C67_25 1_555 1_555
C68_25 C63_25 1_555 1_555
H126_25 C68_25 1_555 1_555
H127_25 C68_25 1_555 1_555
H128_25 C68_25 1_555 1_555
Ag18_17 Ag15_17 1_555 1_555
Ag19_9 Ag14_9 1_555 1_555
S29_9 Ag14_9 1_555 1_555
S36_17 Ag15_17 1_555 1_555
Ag25_3 S26_25 1_555 1_555
S22_17 Ag18_17 1_555 1_555
S35_3 C59_25 1_555 1_555
S25_9 Ag19_9 1_555 1_555
S26_25 C53_25 1_555 1_555
N11_25 C53_25 1_555 1_555
N13_25 C56_25 1_555 1_555
C58_25 C61_25 1_555 1_555
C57_25 H139_25 1_555 1_555
Ag14_10 Ag15_18 1_555 1_555
Ag15_18 S21_26 1_555 1_555
Ag25_4 S21_26 1_555 1_555
S21_26 C56_26 1_555 1_555
S22_18 Ag14_10 1_555 1_555
S25_10 Ag15_18 1_555 1_555
S26_26 Ag14_10 1_555 1_555
N11_26 C51_26 1_555 1_555
N13_26 C52_26 1_555 1_555
C51_26 H96_26 1_555 1_555
H97_26 C51_26 1_555 1_555
C52_26 H98_26 1_555 1_555
H99_26 C52_26 1_555 1_555
N14_26 C59_26 1_555 1_555
C53_26 S25_10 1_555 1_555
C54_26 C52_26 1_555 1_555
H100_26 C54_26 1_555 1_555
H101_26 C54_26 1_555 1_555
H102_26 C54_26 1_555 1_555
C56_26 S22_18 1_555 1_555
C57_26 N13_26 1_555 1_555
H104_26 C57_26 1_555 1_555
C58_26 H105_26 1_555 1_555
H106_26 C58_26 1_555 1_555
H107_26 C58_26 1_555 1_555
C59_26 S31_4 1_555 1_555
C60_26 N14_26 1_555 1_555
H108_26 C60_26 1_555 1_555
H109_26 C60_26 1_555 1_555
C61_26 N11_26 1_555 1_555
H110_26 C61_26 1_555 1_555
H111_26 C61_26 1_555 1_555
C63_26 N14_26 1_555 1_555
H115_26 C63_26 1_555 1_555
H116_26 C63_26 1_555 1_555
C64_26 C60_26 1_555 1_555
H117_26 C64_26 1_555 1_555
H118_26 C64_26 1_555 1_555
H119_26 C64_26 1_555 1_555
C66_26 C51_26 1_555 1_555
H120_26 C66_26 1_555 1_555
H121_26 C66_26 1_555 1_555
H122_26 C66_26 1_555 1_555
C67_26 C57_26 1_555 1_555
H123_26 C67_26 1_555 1_555
H124_26 C67_26 1_555 1_555
H125_26 C67_26 1_555 1_555
C68_26 C63_26 1_555 1_555
H126_26 C68_26 1_555 1_555
H127_26 C68_26 1_555 1_555
H128_26 C68_26 1_555 1_555
Ag18_18 Ag15_18 1_555 1_555
Ag19_10 Ag14_10 1_555 1_555
S29_10 Ag14_10 1_555 1_555
S36_18 Ag15_18 1_555 1_555
Ag25_4 S26_26 1_555 1_555
S22_18 Ag18_18 1_555 1_555
S35_4 C59_26 1_555 1_555
S25_10 Ag19_10 1_555 1_555
S26_26 C53_26 1_555 1_555
N11_26 C53_26 1_555 1_555
N13_26 C56_26 1_555 1_555
C58_26 C61_26 1_555 1_555
C57_26 H139_26 1_555 1_555
Ag14_11 Ag15_19 1_555 1_555
Ag15_19 S21_27 1_555 1_555
Ag25 S21_27 1_555 1_555
S21_27 C56_27 1_555 1_555
S22_19 Ag14_11 1_555 1_555
S25_11 Ag15_19 1_555 1_555
S26_27 Ag14_11 1_555 1_555
N11_27 C51_27 1_555 1_555
N13_27 C52_27 1_555 1_555
C51_27 H96_27 1_555 1_555
H97_27 C51_27 1_555 1_555
C52_27 H98_27 1_555 1_555
H99_27 C52_27 1_555 1_555
N14_27 C59_27 1_555 1_555
C53_27 S25_11 1_555 1_555
C54_27 C52_27 1_555 1_555
H100_27 C54_27 1_555 1_555
H101_27 C54_27 1_555 1_555
H102_27 C54_27 1_555 1_555
C56_27 S22_19 1_555 1_555
C57_27 N13_27 1_555 1_555
H104_27 C57_27 1_555 1_555
C58_27 H105_27 1_555 1_555
H106_27 C58_27 1_555 1_555
H107_27 C58_27 1_555 1_555
C59_27 S31 1_555 1_555
C60_27 N14_27 1_555 1_555
H108_27 C60_27 1_555 1_555
H109_27 C60_27 1_555 1_555
C61_27 N11_27 1_555 1_555
H110_27 C61_27 1_555 1_555
H111_27 C61_27 1_555 1_555
C63_27 N14_27 1_555 1_555
H115_27 C63_27 1_555 1_555
H116_27 C63_27 1_555 1_555
C64_27 C60_27 1_555 1_555
H117_27 C64_27 1_555 1_555
H118_27 C64_27 1_555 1_555
H119_27 C64_27 1_555 1_555
C66_27 C51_27 1_555 1_555
H120_27 C66_27 1_555 1_555
H121_27 C66_27 1_555 1_555
H122_27 C66_27 1_555 1_555
C67_27 C57_27 1_555 1_555
H123_27 C67_27 1_555 1_555
H124_27 C67_27 1_555 1_555
H125_27 C67_27 1_555 1_555
C68_27 C63_27 1_555 1_555
H126_27 C68_27 1_555 1_555
H127_27 C68_27 1_555 1_555
H128_27 C68_27 1_555 1_555
Ag18_19 Ag15_19 1_555 1_555
Ag19_11 Ag14_11 1_555 1_555
S29_11 Ag14_11 1_555 1_555
S36_19 Ag15_19 1_555 1_555
Ag25 S26_27 1_555 1_555
S22_19 Ag18_19 1_555 1_555
S35 C59_27 1_555 1_555
S25_11 Ag19_11 1_555 1_555
S26_27 C53_27 1_555 1_555
N11_27 C53_27 1_555 1_555
N13_27 C56_27 1_555 1_555
C58_27 C61_27 1_555 1_555
C57_27 H139_27 1_555 1_555
Ag14_12 Ag15_20 1_555 1_555
Ag15_20 S21_28 1_555 1_555
Ag25_2 S21_28 1_555 1_555
S21_28 C56_28 1_555 1_555
S22_20 Ag14_12 1_555 1_555
S25_12 Ag15_20 1_555 1_555
S26_28 Ag14_12 1_555 1_555
N11_28 C51_28 1_555 1_555
N13_28 C52_28 1_555 1_555
C51_28 H96_28 1_555 1_555
H97_28 C51_28 1_555 1_555
C52_28 H98_28 1_555 1_555
H99_28 C52_28 1_555 1_555
N14_28 C59_28 1_555 1_555
C53_28 S25_12 1_555 1_555
C54_28 C52_28 1_555 1_555
H100_28 C54_28 1_555 1_555
C56_28 S22_20 1_555 1_555
C57_28 N13_28 1_555 1_555
H104_28 C57_28 1_555 1_555
C58_28 H105_28 1_555 1_555
H106_28 C58_28 1_555 1_555
H107_28 C58_28 1_555 1_555
C59_28 S31_2 1_555 1_555
C60_28 N14_28 1_555 1_555
H108_28 C60_28 1_555 1_555
H109_28 C60_28 1_555 1_555
C61_28 N11_28 1_555 1_555
H110_28 C61_28 1_555 1_555
H111_28 C61_28 1_555 1_555
C63_28 N14_28 1_555 1_555
H115_28 C63_28 1_555 1_555
H116_28 C63_28 1_555 1_555
C64_28 C60_28 1_555 1_555
H117_28 C64_28 1_555 1_555
H118_28 C64_28 1_555 1_555
H119_28 C64_28 1_555 1_555
C66_28 C51_28 1_555 1_555
H120_28 C66_28 1_555 1_555
H121_28 C66_28 1_555 1_555
H122_28 C66_28 1_555 1_555
C67_28 C57_28 1_555 1_555
H123_28 C67_28 1_555 1_555
H124_28 C67_28 1_555 1_555
H125_28 C67_28 1_555 1_555
C68_28 C63_28 1_555 1_555
H126_28 C68_28 1_555 1_555
H127_28 C68_28 1_555 1_555
H128_28 C68_28 1_555 1_555
Ag18_20 Ag15_20 1_555 1_555
Ag19_12 Ag14_12 1_555 1_555
S29_12 Ag14_12 1_555 1_555
S36_20 Ag15_20 1_555 1_555
Ag25_2 S26_28 1_555 1_555
S22_20 Ag18_20 1_555 1_555
S35_2 C59_28 1_555 1_555
S25_12 Ag19_12 1_555 1_555
S26_28 C53_28 1_555 1_555
N11_28 C53_28 1_555 1_555
N13_28 C56_28 1_555 1_555
C58_28 C61_28 1_555 1_555
C57_28 H139_28 1_555 1_555
Ag18_19 Ag15_21 1_555 1_555
Ag15_21 S21_29 1_555 1_555
Ag25_7 S21_29 1_555 1_555
S21_29 C56_29 1_555 1_555
S22_21 Ag18_19 1_555 1_555
S36_19 Ag15_21 1_555 1_555
S26_29 Ag18_19 1_555 1_555
N11_29 C51_29 1_555 1_555
N13_29 C52_29 1_555 1_555
C51_29 H96_29 1_555 1_555
H97_29 C51_29 1_555 1_555
C52_29 H98_29 1_555 1_555
H99_29 C52_29 1_555 1_555
N14_29 C59_29 1_555 1_555
C53_29 S36_19 1_555 1_555
C54_29 C52_29 1_555 1_555
H100_29 C54_29 1_555 1_555
C56_29 S22_21 1_555 1_555
C57_29 N13_29 1_555 1_555
H104_29 C57_29 1_555 1_555
C58_29 H105_29 1_555 1_555
H106_29 C58_29 1_555 1_555
H107_29 C58_29 1_555 1_555
C59_29 S31_7 1_555 1_555
C60_29 N14_29 1_555 1_555
H108_29 C60_29 1_555 1_555
H109_29 C60_29 1_555 1_555
C61_29 N11_29 1_555 1_555
H110_29 C61_29 1_555 1_555
H111_29 C61_29 1_555 1_555
C63_29 N14_29 1_555 1_555
H115_29 C63_29 1_555 1_555
H116_29 C63_29 1_555 1_555
C64_29 C60_29 1_555 1_555
H117_29 C64_29 1_555 1_555
H118_29 C64_29 1_555 1_555
H119_29 C64_29 1_555 1_555
C66_29 C51_29 1_555 1_555
H120_29 C66_29 1_555 1_555
H121_29 C66_29 1_555 1_555
H122_29 C66_29 1_555 1_555
C67_29 C57_29 1_555 1_555
H123_29 C67_29 1_555 1_555
H124_29 C67_29 1_555 1_555
H125_29 C67_29 1_555 1_555
C68_29 C63_29 1_555 1_555
H126_29 C68_29 1_555 1_555
H127_29 C68_29 1_555 1_555
H128_29 C68_29 1_555 1_555
Ag18_21 Ag15_21 1_555 1_555
S36_21 Ag15_21 1_555 1_555
Ag25_7 S26_29 1_555 1_555
S22_21 Ag18_21 1_555 1_555
S35_7 C59_29 1_555 1_555
S26_29 C53_29 1_555 1_555
N11_29 C53_29 1_555 1_555
N13_29 C56_29 1_555 1_555
C58_29 C61_29 1_555 1_555
C57_29 H139_29 1_555 1_555
Ag18_18 Ag15_22 1_555 1_555
Ag15_22 S21_30 1_555 1_555
Ag25_8 S21_30 1_555 1_555
S21_30 C56_30 1_555 1_555
S22_22 Ag18_18 1_555 1_555
S36_18 Ag15_22 1_555 1_555
S26_30 Ag18_18 1_555 1_555
N11_30 C51_30 1_555 1_555
N13_30 C52_30 1_555 1_555
C51_30 H96_30 1_555 1_555
H97_30 C51_30 1_555 1_555
C52_30 H98_30 1_555 1_555
H99_30 C52_30 1_555 1_555
N14_30 C59_30 1_555 1_555
C53_30 S36_18 1_555 1_555
C54_30 C52_30 1_555 1_555
H100_30 C54_30 1_555 1_555
H101_30 C54_30 1_555 1_555
H102_30 C54_30 1_555 1_555
C56_30 S22_22 1_555 1_555
C57_30 N13_30 1_555 1_555
H104_30 C57_30 1_555 1_555
C58_30 H105_30 1_555 1_555
H106_30 C58_30 1_555 1_555
H107_30 C58_30 1_555 1_555
C59_30 S31_8 1_555 1_555
C60_30 N14_30 1_555 1_555
H108_30 C60_30 1_555 1_555
H109_30 C60_30 1_555 1_555
C61_30 N11_30 1_555 1_555
H110_30 C61_30 1_555 1_555
H111_30 C61_30 1_555 1_555
C63_30 N14_30 1_555 1_555
H115_30 C63_30 1_555 1_555
H116_30 C63_30 1_555 1_555
C64_30 C60_30 1_555 1_555
H117_30 C64_30 1_555 1_555
H118_30 C64_30 1_555 1_555
H119_30 C64_30 1_555 1_555
C66_30 C51_30 1_555 1_555
H120_30 C66_30 1_555 1_555
H121_30 C66_30 1_555 1_555
H122_30 C66_30 1_555 1_555
C67_30 C57_30 1_555 1_555
H123_30 C67_30 1_555 1_555
H124_30 C67_30 1_555 1_555
H125_30 C67_30 1_555 1_555
C68_30 C63_30 1_555 1_555
H126_30 C68_30 1_555 1_555
H127_30 C68_30 1_555 1_555
H128_30 C68_30 1_555 1_555
Ag18_22 Ag15_22 1_555 1_555
S36_22 Ag15_22 1_555 1_555
Ag25_8 S26_30 1_555 1_555
S22_22 Ag18_22 1_555 1_555
S35_8 C59_30 1_555 1_555
S26_30 C53_30 1_555 1_555
N11_30 C53_30 1_555 1_555
N13_30 C56_30 1_555 1_555
C58_30 C61_30 1_555 1_555
C57_30 H139_30 1_555 1_555
Ag18_20 Ag15_23 1_555 1_555
Ag15_23 S21_31 1_555 1_555
Ag25_5 S21_31 1_555 1_555
S21_31 C56_31 1_555 1_555
S22_23 Ag18_20 1_555 1_555
S36_20 Ag15_23 1_555 1_555
S26_31 Ag18_20 1_555 1_555
N11_31 C51_31 1_555 1_555
N13_31 C52_31 1_555 1_555
C51_31 H96_31 1_555 1_555
H97_31 C51_31 1_555 1_555
C52_31 H98_31 1_555 1_555
H99_31 C52_31 1_555 1_555
N14_31 C59_31 1_555 1_555
C53_31 S36_20 1_555 1_555
C54_31 C52_31 1_555 1_555
H100_31 C54_31 1_555 1_555
H101_31 C54_31 1_555 1_555
H102_31 C54_31 1_555 1_555
C56_31 S22_23 1_555 1_555
C57_31 N13_31 1_555 1_555
H104_31 C57_31 1_555 1_555
C58_31 H105_31 1_555 1_555
H106_31 C58_31 1_555 1_555
H107_31 C58_31 1_555 1_555
C59_31 S31_5 1_555 1_555
C60_31 N14_31 1_555 1_555
H108_31 C60_31 1_555 1_555
H109_31 C60_31 1_555 1_555
C61_31 N11_31 1_555 1_555
H110_31 C61_31 1_555 1_555
H111_31 C61_31 1_555 1_555
C63_31 N14_31 1_555 1_555
H115_31 C63_31 1_555 1_555
H116_31 C63_31 1_555 1_555
C64_31 C60_31 1_555 1_555
H117_31 C64_31 1_555 1_555
H118_31 C64_31 1_555 1_555
H119_31 C64_31 1_555 1_555
C66_31 C51_31 1_555 1_555
H120_31 C66_31 1_555 1_555
H121_31 C66_31 1_555 1_555
H122_31 C66_31 1_555 1_555
C67_31 C57_31 1_555 1_555
H123_31 C67_31 1_555 1_555
H124_31 C67_31 1_555 1_555
H125_31 C67_31 1_555 1_555
C68_31 C63_31 1_555 1_555
H126_31 C68_31 1_555 1_555
H127_31 C68_31 1_555 1_555
H128_31 C68_31 1_555 1_555
Ag18_23 Ag15_23 1_555 1_555
S36_23 Ag15_23 1_555 1_555
Ag25_5 S26_31 1_555 1_555
S22_23 Ag18_23 1_555 1_555
S35_5 C59_31 1_555 1_555
S26_31 C53_31 1_555 1_555
N11_31 C53_31 1_555 1_555
N13_31 C56_31 1_555 1_555
C58_31 C61_31 1_555 1_555
C57_31 H139_31 1_555 1_555
Ag18_17 Ag15_24 1_555 1_555
Ag15_24 S21_32 1_555 1_555
Ag25_6 S21_32 1_555 1_555
S21_32 C56_32 1_555 1_555
S22_24 Ag18_17 1_555 1_555
S36_17 Ag15_24 1_555 1_555
S26_32 Ag18_17 1_555 1_555
N11_32 C51_32 1_555 1_555
N13_32 C52_32 1_555 1_555
C51_32 H96_32 1_555 1_555
H97_32 C51_32 1_555 1_555
C52_32 H98_32 1_555 1_555
H99_32 C52_32 1_555 1_555
N14_32 C59_32 1_555 1_555
C53_32 S36_17 1_555 1_555
C54_32 C52_32 1_555 1_555
H100_32 C54_32 1_555 1_555
C56_32 S22_24 1_555 1_555
C57_32 N13_32 1_555 1_555
H104_32 C57_32 1_555 1_555
C58_32 H105_32 1_555 1_555
H106_32 C58_32 1_555 1_555
H107_32 C58_32 1_555 1_555
C59_32 S31_6 1_555 1_555
C60_32 N14_32 1_555 1_555
H108_32 C60_32 1_555 1_555
H109_32 C60_32 1_555 1_555
C61_32 N11_32 1_555 1_555
H110_32 C61_32 1_555 1_555
H111_32 C61_32 1_555 1_555
C63_32 N14_32 1_555 1_555
H115_32 C63_32 1_555 1_555
H116_32 C63_32 1_555 1_555
C64_32 C60_32 1_555 1_555
H117_32 C64_32 1_555 1_555
H118_32 C64_32 1_555 1_555
H119_32 C64_32 1_555 1_555
C66_32 C51_32 1_555 1_555
H120_32 C66_32 1_555 1_555
H121_32 C66_32 1_555 1_555
H122_32 C66_32 1_555 1_555
C67_32 C57_32 1_555 1_555
H123_32 C67_32 1_555 1_555
H124_32 C67_32 1_555 1_555
H125_32 C67_32 1_555 1_555
C68_32 C63_32 1_555 1_555
H126_32 C68_32 1_555 1_555
H127_32 C68_32 1_555 1_555
H128_32 C68_32 1_555 1_555
Ag18_24 Ag15_24 1_555 1_555
S36_24 Ag15_24 1_555 1_555
Ag25_6 S26_32 1_555 1_555
S22_24 Ag18_24 1_555 1_555
S35_6 C59_32 1_555 1_555
S26_32 C53_32 1_555 1_555
N11_32 C53_32 1_555 1_555
N13_32 C56_32 1_555 1_555
C58_32 C61_32 1_555 1_555
C57_32 H139_32 1_555 1_555
Ag18_23 Ag19_12 1_555 1_555
Ag19_12 S21_33 1_555 1_555
Ag25_11 S21_33 1_555 1_555
S21_33 C56_33 1_555 1_555
S29_12 Ag18_23 1_555 1_555
S36_23 Ag19_12 1_555 1_555
S26_33 Ag18_23 1_555 1_555
N11_33 C51_33 1_555 1_555
N13_33 C52_33 1_555 1_555
C51_33 H96_33 1_555 1_555
H97_33 C51_33 1_555 1_555
C52_33 H98_33 1_555 1_555
H99_33 C52_33 1_555 1_555
N14_33 C59_33 1_555 1_555
C53_33 S36_23 1_555 1_555
C54_33 C52_33 1_555 1_555
H100_33 C54_33 1_555 1_555
C56_33 S29_12 1_555 1_555
C57_33 N13_33 1_555 1_555
H104_33 C57_33 1_555 1_555
C58_33 H105_33 1_555 1_555
H106_33 C58_33 1_555 1_555
H107_33 C58_33 1_555 1_555
C59_33 S31_11 1_555 1_555
C60_33 N14_33 1_555 1_555
H108_33 C60_33 1_555 1_555
H109_33 C60_33 1_555 1_555
C61_33 N11_33 1_555 1_555
H110_33 C61_33 1_555 1_555
H111_33 C61_33 1_555 1_555
C63_33 N14_33 1_555 1_555
H115_33 C63_33 1_555 1_555
H116_33 C63_33 1_555 1_555
C64_33 C60_33 1_555 1_555
H117_33 C64_33 1_555 1_555
H118_33 C64_33 1_555 1_555
H119_33 C64_33 1_555 1_555
C66_33 C51_33 1_555 1_555
H120_33 C66_33 1_555 1_555
H121_33 C66_33 1_555 1_555
H122_33 C66_33 1_555 1_555
C67_33 C57_33 1_555 1_555
H123_33 C67_33 1_555 1_555
H124_33 C67_33 1_555 1_555
H125_33 C67_33 1_555 1_555
C68_33 C63_33 1_555 1_555
H126_33 C68_33 1_555 1_555
H127_33 C68_33 1_555 1_555
H128_33 C68_33 1_555 1_555
Ag25_11 S26_33 1_555 1_555
S35_11 C59_33 1_555 1_555
S26_33 C53_33 1_555 1_555
N11_33 C53_33 1_555 1_555
N13_33 C56_33 1_555 1_555
C58_33 C61_33 1_555 1_555
C57_33 H139_33 1_555 1_555
Ag18_22 Ag19_10 1_555 1_555
Ag19_10 S21_34 1_555 1_555
Ag25_12 S21_34 1_555 1_555
S21_34 C56_34 1_555 1_555
S29_10 Ag18_22 1_555 1_555
S36_22 Ag19_10 1_555 1_555
S26_34 Ag18_22 1_555 1_555
N11_34 C51_34 1_555 1_555
N13_34 C52_34 1_555 1_555
C51_34 H96_34 1_555 1_555
H97_34 C51_34 1_555 1_555
C52_34 H98_34 1_555 1_555
H99_34 C52_34 1_555 1_555
N14_34 C59_34 1_555 1_555
C53_34 S36_22 1_555 1_555
C54_34 C52_34 1_555 1_555
H100_34 C54_34 1_555 1_555
H101_34 C54_34 1_555 1_555
H102_34 C54_34 1_555 1_555
C56_34 S29_10 1_555 1_555
C57_34 N13_34 1_555 1_555
H104_34 C57_34 1_555 1_555
C58_34 H105_34 1_555 1_555
H106_34 C58_34 1_555 1_555
H107_34 C58_34 1_555 1_555
C59_34 S31_12 1_555 1_555
C60_34 N14_34 1_555 1_555
H108_34 C60_34 1_555 1_555
H109_34 C60_34 1_555 1_555
C61_34 N11_34 1_555 1_555
H110_34 C61_34 1_555 1_555
H111_34 C61_34 1_555 1_555
C63_34 N14_34 1_555 1_555
H115_34 C63_34 1_555 1_555
H116_34 C63_34 1_555 1_555
C64_34 C60_34 1_555 1_555
H117_34 C64_34 1_555 1_555
H118_34 C64_34 1_555 1_555
H119_34 C64_34 1_555 1_555
C66_34 C51_34 1_555 1_555
H120_34 C66_34 1_555 1_555
H121_34 C66_34 1_555 1_555
H122_34 C66_34 1_555 1_555
C67_34 C57_34 1_555 1_555
H123_34 C67_34 1_555 1_555
H124_34 C67_34 1_555 1_555
H125_34 C67_34 1_555 1_555
C68_34 C63_34 1_555 1_555
H126_34 C68_34 1_555 1_555
H127_34 C68_34 1_555 1_555
H128_34 C68_34 1_555 1_555
Ag25_12 S26_34 1_555 1_555
S35_12 C59_34 1_555 1_555
S26_34 C53_34 1_555 1_555
N11_34 C53_34 1_555 1_555
N13_34 C56_34 1_555 1_555
C58_34 C61_34 1_555 1_555
C57_34 H139_34 1_555 1_555
Ag18_24 Ag19_9 1_555 1_555
Ag19_9 S21_35 1_555 1_555
Ag25_9 S21_35 1_555 1_555
S21_35 C56_35 1_555 1_555
S29_9 Ag18_24 1_555 1_555
S36_24 Ag19_9 1_555 1_555
S26_35 Ag18_24 1_555 1_555
N11_35 C51_35 1_555 1_555
N13_35 C52_35 1_555 1_555
C51_35 H96_35 1_555 1_555
H97_35 C51_35 1_555 1_555
C52_35 H98_35 1_555 1_555
H99_35 C52_35 1_555 1_555
N14_35 C59_35 1_555 1_555
C53_35 S36_24 1_555 1_555
C54_35 C52_35 1_555 1_555
H100_35 C54_35 1_555 1_555
H101_35 C54_35 1_555 1_555
H102_35 C54_35 1_555 1_555
C56_35 S29_9 1_555 1_555
C57_35 N13_35 1_555 1_555
H104_35 C57_35 1_555 1_555
C58_35 H105_35 1_555 1_555
H106_35 C58_35 1_555 1_555
H107_35 C58_35 1_555 1_555
C59_35 S31_9 1_555 1_555
C60_35 N14_35 1_555 1_555
H108_35 C60_35 1_555 1_555
H109_35 C60_35 1_555 1_555
C61_35 N11_35 1_555 1_555
H110_35 C61_35 1_555 1_555
H111_35 C61_35 1_555 1_555
C63_35 N14_35 1_555 1_555
H115_35 C63_35 1_555 1_555
H116_35 C63_35 1_555 1_555
C64_35 C60_35 1_555 1_555
H117_35 C64_35 1_555 1_555
H118_35 C64_35 1_555 1_555
H119_35 C64_35 1_555 1_555
C66_35 C51_35 1_555 1_555
H120_35 C66_35 1_555 1_555
H121_35 C66_35 1_555 1_555
H122_35 C66_35 1_555 1_555
C67_35 C57_35 1_555 1_555
H123_35 C67_35 1_555 1_555
H124_35 C67_35 1_555 1_555
H125_35 C67_35 1_555 1_555
C68_35 C63_35 1_555 1_555
H126_35 C68_35 1_555 1_555
H127_35 C68_35 1_555 1_555
H128_35 C68_35 1_555 1_555
Ag25_9 S26_35 1_555 1_555
S35_9 C59_35 1_555 1_555
S26_35 C53_35 1_555 1_555
N11_35 C53_35 1_555 1_555
N13_35 C56_35 1_555 1_555
C58_35 C61_35 1_555 1_555
C57_35 H139_35 1_555 1_555
Ag18_21 Ag19_11 1_555 1_555
Ag19_11 S21_36 1_555 1_555
Ag25_10 S21_36 1_555 1_555
S21_36 C56_36 1_555 1_555
S29_11 Ag18_21 1_555 1_555
S36_21 Ag19_11 1_555 1_555
S26_36 Ag18_21 1_555 1_555
N11_36 C51_36 1_555 1_555
N13_36 C52_36 1_555 1_555
C51_36 H96_36 1_555 1_555
H97_36 C51_36 1_555 1_555
C52_36 H98_36 1_555 1_555
H99_36 C52_36 1_555 1_555
N14_36 C59_36 1_555 1_555
C53_36 S36_21 1_555 1_555
C54_36 C52_36 1_555 1_555
H100_36 C54_36 1_555 1_555
C56_36 S29_11 1_555 1_555
C57_36 N13_36 1_555 1_555
H104_36 C57_36 1_555 1_555
C58_36 H105_36 1_555 1_555
H106_36 C58_36 1_555 1_555
H107_36 C58_36 1_555 1_555
C59_36 S31_10 1_555 1_555
C60_36 N14_36 1_555 1_555
H108_36 C60_36 1_555 1_555
H109_36 C60_36 1_555 1_555
C61_36 N11_36 1_555 1_555
H110_36 C61_36 1_555 1_555
H111_36 C61_36 1_555 1_555
C63_36 N14_36 1_555 1_555
H115_36 C63_36 1_555 1_555
H116_36 C63_36 1_555 1_555
C64_36 C60_36 1_555 1_555
H117_36 C64_36 1_555 1_555
H118_36 C64_36 1_555 1_555
H119_36 C64_36 1_555 1_555
C66_36 C51_36 1_555 1_555
H120_36 C66_36 1_555 1_555
H121_36 C66_36 1_555 1_555
H122_36 C66_36 1_555 1_555
C67_36 C57_36 1_555 1_555
H123_36 C67_36 1_555 1_555
H124_36 C67_36 1_555 1_555
H125_36 C67_36 1_555 1_555
C68_36 C63_36 1_555 1_555
H126_36 C68_36 1_555 1_555
H127_36 C68_36 1_555 1_555
H128_36 C68_36 1_555 1_555
Ag25_10 S26_36 1_555 1_555
S35_10 C59_36 1_555 1_555
S26_36 C53_36 1_555 1_555
N11_36 C53_36 1_555 1_555
N13_36 C56_36 1_555 1_555
C58_36 C61_36 1_555 1_555
C57_36 H139_36 1_555 1_555

#END
