
###############################################################################
#
# This file contains modified crystal structure data generated from the
# MOF subset of the Cambridge Structural Database (CSD) v543 
# hosted by the Cambridge Crystallographic Data Centre (CCDC).
#
# This work is licensed under the Creative Commons
# Attribution-NonCommercial-ShareAlike 4.0 International License.
# To view a copy of this license, visit
# http://creativecommons.org/licenses/by-nc-sa/4.0/
# or send a letter to
# Creative Commons, PO Box 1866, Mountain View, CA 94042, USA.
#
# CIF created using the CSD Python API on 29 September 2022
# The structure has been converted into the P1 space group
# The structure has a 3D framework
# The original CSD entry JOLWIT is in the monoclinic crystal system
# The framework has been calculated to contain at least 10.0% void space
# The void calculation uses a probe of radius 1.32A, grid spacing 0.4
#
###############################################################################

data_JOLWIT
_chemical_formula_moiety         '(C216 H144 Cd8 Cl2 N32 O24 S6)n'
_symmetry_cell_setting           triclinic
_symmetry_space_group_name_H-M   'P 1'
_symmetry_Int_Tables_number      1
_space_group_name_Hall           'P 1'
loop_
_symmetry_equiv_pos_site_id
_symmetry_equiv_pos_as_xyz
1 x,y,z
_cell_length_a                   24.5840(13)
_cell_length_b                   12.5350(6)
_cell_length_c                   17.3554(9)
_cell_angle_alpha                90
_cell_angle_beta                 100.2880(10)
_cell_angle_gamma                90
_cell_volume                     5262.26
loop_
_atom_site_label
_atom_site_type_symbol
_atom_site_fract_x
_atom_site_fract_y
_atom_site_fract_z
Cd1 Cd 0.20895(2) 0.34064(2) 0.04317(2)
S1 S 0.0000 0.77536(9) 0.2500
O1 O 0.18614(8) 0.44560(16) 0.14090(12)
O2 O 0.12717(8) 0.45083(14) 0.02908(12)
N1 N 0.14986(8) 0.20891(17) 0.08300(13)
N2 N 0.06700(9) 0.14031(17) 0.09022(13)
C1 C 0.09716(10) 0.2126(2) 0.05629(16)
H1 H 0.0813 0.2600 0.0175
C2 C 0.15649(10) 0.1267(2) 0.13868(15)
C3 C 0.20440(11) 0.0855(2) 0.18376(16)
H2 H 0.2389 0.1139 0.1810
C4 C 0.19893(12) 0.0019(2) 0.23212(17)
C7 C 0.10516(10) 0.0838(2) 0.14416(15)
C8 C 0.00866(11) 0.1268(2) 0.07124(17)
C21 C 0.14268(11) 0.4788(2) 0.09875(18)
C22 C 0.10678(11) 0.55468(19) 0.13572(17)
C23 C 0.12581(13) 0.5942(3) 0.2090(2)
H15 H 0.1608 0.5756 0.2353
C24 C 0.09286(15) 0.6624(3) 0.2441(2)
H16 H 0.1056 0.6896 0.2939
C25 C 0.04184(14) 0.6887(2) 0.2048(2)
C26 C 0.02233(16) 0.6497(3) 0.1329(2)
C27 C 0.05580(14) 0.5826(3) 0.0971(2)
H18 H 0.0431 0.5571 0.0468
O6 O 0.03520(13) 0.83292(17) 0.3120(2)
H21 H 0.0131 0.6672 0.3927
N7 N 0.15900(8) 0.07696(16) 0.48545(13)
C43 C 0.01895(11) 0.0966(2) 0.37242(17)
H28 H 0.0003 0.0857 0.3215
C44 C 0.07431(12) 0.0822(2) 0.39082(18)
H29 H 0.0939 0.0607 0.3524
C45 C 0.10155(10) 0.0991(2) 0.46546(16)
C46 C 0.07243(11) 0.1313(2) 0.52156(18)
H30 H 0.0906 0.1438 0.5725
C47 C 0.01695(11) 0.1450(2) 0.50261(18)
C49 C 0.19973(11) 0.1291(2) 0.53760(16)
C50 C 0.24747(11) 0.0679(2) 0.53989(16)
C51 C 0.29652(12) 0.0981(3) 0.5876(2)
H33 H 0.3286 0.0582 0.5897
C52 C 0.29590(16) 0.1885(3) 0.6314(2)
H34 H 0.3281 0.2093 0.6648
C53 C 0.24836(16) 0.2508(3) 0.6276(2)
H35 H 0.2500 0.3129 0.6573
C54 C 0.19961(14) 0.2227(3) 0.5811(2)
H36 H 0.1679 0.2639 0.5786
Cl3 Cl 0.30027(2) 0.23902(5) 0.09597(4)
N9 N 0.26382(8) 0.48178(16) 0.01029(13)
Cl1 Cl 0.19973(2) 0.26098(5) 0.90403(4)
H9 H 0.0032 0.1667 0.9596
Cd5 Cd 0.29105(2) 0.15936(2) 0.95683(2)
H3 H 0.2304 0.9728 0.2626
C5 C 0.14705(12) 0.9587(2) 0.23705(16)
H4 H 0.1449 0.9016 0.2706
C6 C 0.09947(12) 0.9989(2) 0.19362(16)
H5 H 0.0650 0.9707 0.1970
N8 N 0.23618(8) 0.98178(16) 0.48971(13)
C48 C 0.18401(10) 0.9901(2) 0.45957(16)
H32 H 0.1655 0.9414 0.4238
Cd4 Cd 0.29105(2) 0.84064(2) 0.45683(2)
S1_2 S 1.0000 0.77536(9) 0.2500
O3 O 0.96480(13) 0.83292(17) 0.1880(2)
N3 N 0.84100(8) 0.07696(16) 0.01455(13)
C9 C 0.98105(11) 0.0966(2) 0.12758(17)
H6 H 0.9997 0.0857 0.1785
C10 C 0.92569(12) 0.0822(2) 0.10918(18)
H7 H 0.9061 0.0607 0.1476
C11 C 0.89845(10) 0.0991(2) 0.03454(16)
H17 H 0.9869 0.6672 0.1073
O4 O 0.81386(8) 0.44560(16) 0.35910(12)
O5 O 0.87283(8) 0.45083(14) 0.47092(12)
C28 C 0.85732(11) 0.4788(2) 0.40125(18)
C29 C 0.89322(11) 0.55468(19) 0.36428(17)
C30 C 0.87419(13) 0.5942(3) 0.2910(2)
H19 H 0.8392 0.5756 0.2647
C31 C 0.90714(15) 0.6624(3) 0.2559(2)
H20 H 0.8944 0.6896 0.2061
C32 C 0.95816(14) 0.6887(2) 0.2952(2)
C33 C 0.97767(16) 0.6497(3) 0.3671(2)
C34 C 0.94420(14) 0.5826(3) 0.4029(2)
H22 H 0.9569 0.5571 0.4532
Cd2 Cd 0.79105(2) 0.34064(2) 0.45683(2)
Cl2 Cl 0.80027(2) 0.26098(5) 0.59597(4)
N5 N 0.85014(8) 0.20891(17) 0.41700(13)
N6 N 0.93300(9) 0.14031(17) 0.40978(13)
C35 C 0.90284(10) 0.2126(2) 0.44371(16)
H23 H 0.9187 0.2600 0.4825
C36 C 0.84351(10) 0.1267(2) 0.36132(15)
C37 C 0.79560(11) 0.0855(2) 0.31624(16)
H24 H 0.7611 0.1139 0.3190
C38 C 0.80107(12) 0.0019(2) 0.26788(17)
C41 C 0.89484(10) 0.0838(2) 0.35584(15)
C42 C 0.99134(11) 0.1268(2) 0.42876(17)
H31 H 0.9968 0.1667 0.5404
Cd6 Cd 0.70895(2) 0.15936(2) 0.54317(2)
Cl4 Cl 0.69973(2) 0.23902(5) 0.40403(4)
N10 N 0.73618(8) 0.48178(16) 0.48971(13)
N4 N 0.76382(8) 0.98178(16) 0.01029(13)
C14 C 0.81599(10) 0.9901(2) 0.04043(16)
H10 H 0.8345 0.9414 0.0762
H25 H 0.7696 0.9728 0.2374
C39 C 0.85295(12) 0.9587(2) 0.26295(16)
H26 H 0.8551 0.9016 0.2294
C40 C 0.90053(12) 0.9989(2) 0.30638(16)
H27 H 0.9350 0.9707 0.3030
Cd3 Cd 0.70895(2) 0.84064(2) 0.04317(2)
O1_2 O 0.68614(8) 0.94560(16) 0.14090(12)
O2_2 O 0.62717(8) 0.95083(14) 0.02908(12)
N1_2 N 0.64986(8) 0.70891(17) 0.08300(13)
N2_2 N 0.56700(9) 0.64031(17) 0.09022(13)
N3_2 N 0.34100(8) 0.57696(16) 0.01455(13)
C1_2 C 0.59716(10) 0.7126(2) 0.05629(16)
H1_2 H 0.5813 0.7600 0.0175
C2_2 C 0.65649(10) 0.6267(2) 0.13868(15)
C3_2 C 0.70440(11) 0.5855(2) 0.18376(16)
H2_2 H 0.7389 0.6139 0.1810
C4_2 C 0.69893(12) 0.5019(2) 0.23212(17)
H3_2 H 0.7304 0.4728 0.2626
C5_2 C 0.64705(12) 0.4587(2) 0.23705(16)
H4_2 H 0.6449 0.4016 0.2706
C6_2 C 0.59947(12) 0.4989(2) 0.19362(16)
H5_2 H 0.5650 0.4707 0.1970
C7_2 C 0.60516(10) 0.5838(2) 0.14416(15)
C8_2 C 0.50866(11) 0.6268(2) 0.07124(17)
C9_2 C 0.48105(11) 0.5966(2) 0.12758(17)
H6_2 H 0.4997 0.5857 0.1785
C10_2 C 0.42569(12) 0.5822(2) 0.10918(18)
H7_2 H 0.4061 0.5607 0.1476
C11_2 C 0.39845(10) 0.5991(2) 0.03454(16)
C14_2 C 0.31599(10) 0.4901(2) 0.04043(16)
H10_2 H 0.3345 0.4414 0.0762
C21_2 C 0.64268(11) 0.9788(2) 0.09875(18)
O4_2 O 0.31386(8) 0.94560(16) 0.35910(12)
O5_2 O 0.37283(8) 0.95083(14) 0.47092(12)
C28_2 C 0.35732(11) 0.9788(2) 0.40125(18)
Cl2_2 Cl 0.30027(2) 0.76098(5) 0.59597(4)
N5_2 N 0.35014(8) 0.70891(17) 0.41700(13)
N6_2 N 0.43300(9) 0.64031(17) 0.40978(13)
N7_2 N 0.65900(8) 0.57696(16) 0.48545(13)
C35_2 C 0.40284(10) 0.7126(2) 0.44371(16)
H23_2 H 0.4187 0.7600 0.4825
C36_2 C 0.34351(10) 0.6267(2) 0.36132(15)
C37_2 C 0.29560(11) 0.5855(2) 0.31624(16)
H24_2 H 0.2611 0.6139 0.3190
C38_2 C 0.30107(12) 0.5019(2) 0.26788(17)
H25_2 H 0.2696 0.4728 0.2374
C39_2 C 0.35295(12) 0.4587(2) 0.26295(16)
H26_2 H 0.3551 0.4016 0.2294
C40_2 C 0.40053(12) 0.4989(2) 0.30638(16)
H27_2 H 0.4350 0.4707 0.3030
C41_2 C 0.39484(10) 0.5838(2) 0.35584(15)
C42_2 C 0.49134(11) 0.6268(2) 0.42876(17)
C43_2 C 0.51895(11) 0.5966(2) 0.37242(17)
H28_2 H 0.5003 0.5857 0.3215
C44_2 C 0.57431(12) 0.5822(2) 0.39082(18)
H29_2 H 0.5939 0.5607 0.3524
C45_2 C 0.60155(10) 0.5991(2) 0.46546(16)
C46_2 C 0.57243(11) 0.6313(2) 0.52156(18)
H30_2 H 0.5906 0.6438 0.5725
C47_2 C 0.51695(11) 0.6450(2) 0.50261(18)
H31_2 H 0.4968 0.6667 0.5404
C48_2 C 0.68401(10) 0.4901(2) 0.45957(16)
H32_2 H 0.6655 0.4414 0.4238
C49_2 C 0.69973(11) 0.6291(2) 0.53760(16)
C50_2 C 0.74747(11) 0.5679(2) 0.53989(16)
C51_2 C 0.79652(12) 0.5981(3) 0.5876(2)
H33_2 H 0.8286 0.5582 0.5897
C52_2 C 0.79590(16) 0.6885(3) 0.6314(2)
H34_2 H 0.8281 0.7093 0.6648
C53_2 C 0.74836(16) 0.7508(3) 0.6276(2)
H35_2 H 0.7500 0.8129 0.6573
C54_2 C 0.69961(14) 0.7227(3) 0.5811(2)
H36_2 H 0.6679 0.7639 0.5786
Cd6_2 Cd 0.20895(2) 0.65936(2) 0.54317(2)
Cl3_2 Cl 0.80027(2) 0.73902(5) 0.09597(4)
Cl4_2 Cl 0.19973(2) 0.73902(5) 0.40403(4)
Cl1_2 Cl 0.69973(2) 0.76098(5) 0.90403(4)
C12 C 0.42757(11) 0.6313(2) 0.97844(18)
H8 H 0.4094 0.6438 0.9275
C13 C 0.48305(11) 0.6450(2) 0.99739(18)
H9_2 H 0.5032 0.6667 0.9596
C15 C 0.30027(11) 0.6291(2) 0.96240(16)
C16 C 0.25253(11) 0.5679(2) 0.96011(16)
C17 C 0.20348(12) 0.5981(3) 0.9124(2)
H11 H 0.1714 0.5582 0.9103
C18 C 0.20410(16) 0.6885(3) 0.8686(2)
H12 H 0.1719 0.7093 0.8352
C19 C 0.25164(16) 0.7508(3) 0.8724(2)
H13 H 0.2500 0.8129 0.8427
C20 C 0.30039(14) 0.7227(3) 0.9189(2)
H14 H 0.3321 0.7639 0.9214
Cd5_2 Cd 0.79105(2) 0.65936(2) 0.95683(2)
N4_2 N 0.23618(8) 0.01822(16) 0.98971(13)
C14_3 C 0.18401(10) 0.0099(2) 0.95957(16)
H10_3 H 0.1655 0.0586 0.9238
H25_3 H 0.2304 0.0272 0.7626
C39_3 C 0.14705(12) 0.0413(2) 0.73705(16)
H26_3 H 0.1449 0.0984 0.7706
C40_3 C 0.09947(12) 0.0011(2) 0.69362(16)
H27_3 H 0.0650 0.0293 0.6970
S1_3 S 0.0000 0.22464(9) 0.7500
O3_2 O 0.03520(13) 0.16708(17) 0.8120(2)
N3_3 N 0.15900(8) 0.92304(16) 0.98545(13)
C9_3 C 0.01895(11) 0.9034(2) 0.87242(17)
H6_3 H 0.0003 0.9143 0.8215
C10_3 C 0.07431(12) 0.9178(2) 0.89082(18)
H7_3 H 0.0939 0.9393 0.8524
C11_3 C 0.10155(10) 0.9009(2) 0.96546(16)
H17_2 H 0.0131 0.3328 0.8927
O4_3 O 0.18614(8) 0.55440(16) 0.64090(12)
O5_3 O 0.12717(8) 0.54917(14) 0.52908(12)
C28_3 C 0.14268(11) 0.5212(2) 0.59875(18)
C29_2 C 0.10678(11) 0.44532(19) 0.63572(17)
C30_2 C 0.12581(13) 0.4058(3) 0.7090(2)
H19_2 H 0.1608 0.4244 0.7353
C31_2 C 0.09286(15) 0.3376(3) 0.7441(2)
H20_2 H 0.1056 0.3104 0.7939
C32_2 C 0.04184(14) 0.3113(2) 0.7048(2)
C33_2 C 0.02233(16) 0.3503(3) 0.6329(2)
C34_2 C 0.05580(14) 0.4174(3) 0.5971(2)
H22_2 H 0.0431 0.4429 0.5468
N5_3 N 0.14986(8) 0.79109(17) 0.58300(13)
N6_3 N 0.06700(9) 0.85969(17) 0.59022(13)
C35_3 C 0.09716(10) 0.7874(2) 0.55629(16)
H23_3 H 0.0813 0.7400 0.5175
C36_3 C 0.15649(10) 0.8733(2) 0.63868(15)
C37_3 C 0.20440(11) 0.9145(2) 0.68376(16)
H24_3 H 0.2389 0.8861 0.6810
C38_3 C 0.19893(12) 0.9981(2) 0.73212(17)
C41_3 C 0.10516(10) 0.9162(2) 0.64416(15)
C42_3 C 0.00866(11) 0.8732(2) 0.57124(17)
H31_3 H 0.0032 0.8333 0.4596
N10_2 N 0.26382(8) 0.51822(16) 0.51029(13)
H3_3 H 0.7696 0.0272 0.7374
C5_3 C 0.85295(12) 0.0413(2) 0.76295(16)
H4_3 H 0.8551 0.0984 0.7294
C6_3 C 0.90053(12) 0.0011(2) 0.80638(16)
H5_3 H 0.9350 0.0293 0.8030
N8_2 N 0.76382(8) 0.01822(16) 0.51029(13)
C48_3 C 0.81599(10) 0.0099(2) 0.54043(16)
H32_3 H 0.8345 0.0586 0.5762
H9_3 H 0.9968 0.8333 0.0404
S1_4 S 1.0000 0.22464(9) 0.7500
O1_3 O 0.81386(8) 0.55440(16) 0.85910(12)
O2_3 O 0.87283(8) 0.54917(14) 0.97092(12)
N1_3 N 0.85014(8) 0.79109(17) 0.91700(13)
N2_3 N 0.93300(9) 0.85969(17) 0.90978(13)
C1_3 C 0.90284(10) 0.7874(2) 0.94371(16)
H1_3 H 0.9187 0.7400 0.9825
C2_3 C 0.84351(10) 0.8733(2) 0.86132(15)
C3_3 C 0.79560(11) 0.9145(2) 0.81624(16)
H2_3 H 0.7611 0.8861 0.8190
C4_3 C 0.80107(12) 0.9981(2) 0.76788(17)
C7_3 C 0.89484(10) 0.9162(2) 0.85584(15)
C8_3 C 0.99134(11) 0.8732(2) 0.92876(17)
C21_3 C 0.85732(11) 0.5212(2) 0.90125(18)
C22_2 C 0.89322(11) 0.44532(19) 0.86428(17)
C23_2 C 0.87419(13) 0.4058(3) 0.7910(2)
H15_2 H 0.8392 0.4244 0.7647
C24_2 C 0.90714(15) 0.3376(3) 0.7559(2)
H16_2 H 0.8944 0.3104 0.7061
C25_2 C 0.95816(14) 0.3113(2) 0.7952(2)
C26_2 C 0.97767(16) 0.3503(3) 0.8671(2)
C27_2 C 0.94420(14) 0.4174(3) 0.9029(2)
H18_2 H 0.9569 0.4429 0.9532
O6_2 O 0.96480(13) 0.16708(17) 0.6880(2)
H21_2 H 0.9869 0.3328 0.6073
N7_3 N 0.84100(8) 0.92304(16) 0.51455(13)
C43_3 C 0.98105(11) 0.9034(2) 0.62758(17)
H28_3 H 0.9997 0.9143 0.6785
C44_3 C 0.92569(12) 0.9178(2) 0.60918(18)
H29_3 H 0.9061 0.9393 0.6476
C45_3 C 0.89845(10) 0.9009(2) 0.53454(16)
C46_3 C 0.92757(11) 0.8687(2) 0.47844(18)
H30_3 H 0.9094 0.8562 0.4275
C47_3 C 0.98305(11) 0.8550(2) 0.49739(18)
C49_3 C 0.80027(11) 0.8709(2) 0.46240(16)
C50_3 C 0.75253(11) 0.9321(2) 0.46011(16)
C51_3 C 0.70348(12) 0.9019(3) 0.4124(2)
H33_3 H 0.6714 0.9418 0.4103
C52_3 C 0.70410(16) 0.8115(3) 0.3686(2)
H34_3 H 0.6719 0.7907 0.3352
C53_3 C 0.75164(16) 0.7492(3) 0.3724(2)
H35_3 H 0.7500 0.6871 0.3427
C54_3 C 0.80039(14) 0.7773(3) 0.4189(2)
H36_3 H 0.8321 0.7361 0.4214
N9_2 N 0.73618(8) 0.51822(16) 0.98971(13)
C12_2 C 0.57243(11) 0.3687(2) 0.02156(18)
H8_2 H 0.5906 0.3562 0.0725
C13_2 C 0.51695(11) 0.3550(2) 0.00261(18)
H9_4 H 0.4968 0.3333 0.0404
C15_2 C 0.69973(11) 0.3709(2) 0.03760(16)
C16_2 C 0.74747(11) 0.4321(2) 0.03989(16)
C17_2 C 0.79652(12) 0.4019(3) 0.0876(2)
H11_2 H 0.8286 0.4418 0.0897
C18_2 C 0.79590(16) 0.3115(3) 0.1314(2)
H12_2 H 0.8281 0.2907 0.1648
C19_2 C 0.74836(16) 0.2492(3) 0.1276(2)
H13_2 H 0.7500 0.1871 0.1573
C20_2 C 0.69961(14) 0.2773(3) 0.0811(2)
H14_2 H 0.6679 0.2361 0.0786
O1_4 O 0.31386(8) 0.05440(16) 0.85910(12)
O2_4 O 0.37283(8) 0.04917(14) 0.97092(12)
N1_4 N 0.35014(8) 0.29109(17) 0.91700(13)
N2_4 N 0.43300(9) 0.35969(17) 0.90978(13)
N3_4 N 0.65900(8) 0.42304(16) 0.98545(13)
C1_4 C 0.40284(10) 0.2874(2) 0.94371(16)
H1_4 H 0.4187 0.2400 0.9825
C2_4 C 0.34351(10) 0.3733(2) 0.86132(15)
C3_4 C 0.29560(11) 0.4145(2) 0.81624(16)
H2_4 H 0.2611 0.3861 0.8190
C4_4 C 0.30107(12) 0.4981(2) 0.76788(17)
H3_4 H 0.2696 0.5272 0.7374
C5_4 C 0.35295(12) 0.5413(2) 0.76295(16)
H4_4 H 0.3551 0.5984 0.7294
C6_4 C 0.40053(12) 0.5011(2) 0.80638(16)
H5_4 H 0.4350 0.5293 0.8030
C7_4 C 0.39484(10) 0.4162(2) 0.85584(15)
C8_4 C 0.49134(11) 0.3732(2) 0.92876(17)
C9_4 C 0.51895(11) 0.4034(2) 0.87242(17)
H6_4 H 0.5003 0.4143 0.8215
C10_4 C 0.57431(12) 0.4178(2) 0.89082(18)
H7_4 H 0.5939 0.4393 0.8524
C11_4 C 0.60155(10) 0.4009(2) 0.96546(16)
C14_4 C 0.68401(10) 0.5099(2) 0.95957(16)
H10_4 H 0.6655 0.5586 0.9238
C21_4 C 0.35732(11) 0.0212(2) 0.90125(18)
O4_4 O 0.68614(8) 0.05440(16) 0.64090(12)
O5_4 O 0.62717(8) 0.04917(14) 0.52908(12)
C28_4 C 0.64268(11) 0.0212(2) 0.59875(18)
N5_4 N 0.64986(8) 0.29109(17) 0.58300(13)
N6_4 N 0.56700(9) 0.35969(17) 0.59022(13)
N7_4 N 0.34100(8) 0.42304(16) 0.51455(13)
C35_4 C 0.59716(10) 0.2874(2) 0.55629(16)
H23_4 H 0.5813 0.2400 0.5175
C36_4 C 0.65649(10) 0.3733(2) 0.63868(15)
C37_4 C 0.70440(11) 0.4145(2) 0.68376(16)
H24_4 H 0.7389 0.3861 0.6810
C38_4 C 0.69893(12) 0.4981(2) 0.73212(17)
H25_4 H 0.7304 0.5272 0.7626
C39_4 C 0.64705(12) 0.5413(2) 0.73705(16)
H26_4 H 0.6449 0.5984 0.7706
C40_4 C 0.59947(12) 0.5011(2) 0.69362(16)
H27_4 H 0.5650 0.5293 0.6970
C41_4 C 0.60516(10) 0.4162(2) 0.64416(15)
C42_4 C 0.50866(11) 0.3732(2) 0.57124(17)
C43_4 C 0.48105(11) 0.4034(2) 0.62758(17)
H28_4 H 0.4997 0.4143 0.6785
C44_4 C 0.42569(12) 0.4178(2) 0.60918(18)
H29_4 H 0.4061 0.4393 0.6476
C45_4 C 0.39845(10) 0.4009(2) 0.53454(16)
C46_4 C 0.42757(11) 0.3687(2) 0.47844(18)
H30_4 H 0.4094 0.3562 0.4275
C47_4 C 0.48305(11) 0.3550(2) 0.49739(18)
H31_4 H 0.5032 0.3333 0.4596
C48_4 C 0.31599(10) 0.5099(2) 0.54043(16)
H32_4 H 0.3345 0.5586 0.5762
C49_4 C 0.30027(11) 0.3709(2) 0.46240(16)
C50_4 C 0.25253(11) 0.4321(2) 0.46011(16)
C51_4 C 0.20348(12) 0.4019(3) 0.4124(2)
H33_4 H 0.1714 0.4418 0.4103
C52_4 C 0.20410(16) 0.3115(3) 0.3686(2)
H34_4 H 0.1719 0.2907 0.3352
C53_4 C 0.25164(16) 0.2492(3) 0.3724(2)
H35_4 H 0.2500 0.1871 0.3427
C54_4 C 0.30039(14) 0.2773(3) 0.4189(2)
H36_4 H 0.3321 0.2361 0.4214
C12_3 C 0.92757(11) 0.1313(2) 0.97844(18)
H8_3 H 0.9094 0.1438 0.9275
C13_3 C 0.98305(11) 0.1450(2) 0.99739(18)
C15_3 C 0.80027(11) 0.1291(2) 0.96240(16)
C16_3 C 0.75253(11) 0.0679(2) 0.96011(16)
C17_3 C 0.70348(12) 0.0981(3) 0.9124(2)
H11_3 H 0.6714 0.0582 0.9103
C18_3 C 0.70410(16) 0.1885(3) 0.8686(2)
H12_3 H 0.6719 0.2093 0.8352
C19_3 C 0.75164(16) 0.2508(3) 0.8724(2)
H13_3 H 0.7500 0.3129 0.8427
C20_3 C 0.80039(14) 0.2227(3) 0.9189(2)
H14_3 H 0.8321 0.2639 0.9214
S1_5 S 0.5000 0.27536(9) 0.2500
O3_3 O 0.46480(13) 0.33292(17) 0.1880(2)
C22_3 C 0.60678(11) 0.05468(19) 0.13572(17)
C23_3 C 0.62581(13) 0.0942(3) 0.2090(2)
H15_3 H 0.6608 0.0756 0.2353
C24_3 C 0.59286(15) 0.1624(3) 0.2441(2)
H16_3 H 0.6056 0.1896 0.2939
C25_3 C 0.54184(14) 0.1887(2) 0.2048(2)
C26_3 C 0.52233(16) 0.1497(3) 0.1329(2)
H17_3 H 0.4869 0.1672 0.1073
C27_3 C 0.55580(14) 0.0826(3) 0.0971(2)
H18_3 H 0.5431 0.0571 0.0468
O6_3 O 0.53520(13) 0.33292(17) 0.3120(2)
C29_3 C 0.39322(11) 0.05468(19) 0.36428(17)
C30_3 C 0.37419(13) 0.0942(3) 0.2910(2)
H19_3 H 0.3392 0.0756 0.2647
C31_3 C 0.40714(15) 0.1624(3) 0.2559(2)
H20_3 H 0.3944 0.1896 0.2061
C32_3 C 0.45816(14) 0.1887(2) 0.2952(2)
C33_3 C 0.47767(16) 0.1497(3) 0.3671(2)
H21_3 H 0.5131 0.1672 0.3927
C34_3 C 0.44420(14) 0.0826(3) 0.4029(2)
H22_3 H 0.4569 0.0571 0.4532
C12_4 C 0.07243(11) 0.8687(2) 0.02156(18)
H8_4 H 0.0906 0.8562 0.0725
C13_4 C 0.01695(11) 0.8550(2) 0.00261(18)
C15_4 C 0.19973(11) 0.8709(2) 0.03760(16)
C16_4 C 0.24747(11) 0.9321(2) 0.03989(16)
C17_4 C 0.29652(12) 0.9019(3) 0.0876(2)
H11_4 H 0.3286 0.9418 0.0897
C18_4 C 0.29590(16) 0.8115(3) 0.1314(2)
H12_4 H 0.3281 0.7907 0.1648
C19_4 C 0.24836(16) 0.7492(3) 0.1276(2)
H13_4 H 0.2500 0.6871 0.1573
C20_4 C 0.19961(14) 0.7773(3) 0.0811(2)
H14_4 H 0.1679 0.7361 0.0786
S1_6 S 0.5000 0.72464(9) 0.7500
O3_4 O 0.53520(13) 0.66708(17) 0.8120(2)
C22_4 C 0.39322(11) 0.94532(19) 0.86428(17)
C23_4 C 0.37419(13) 0.9058(3) 0.7910(2)
H15_4 H 0.3392 0.9244 0.7647
C24_4 C 0.40714(15) 0.8376(3) 0.7559(2)
H16_4 H 0.3944 0.8104 0.7061
C25_4 C 0.45816(14) 0.8113(2) 0.7952(2)
C26_4 C 0.47767(16) 0.8503(3) 0.8671(2)
H17_4 H 0.5131 0.8328 0.8927
C27_4 C 0.44420(14) 0.9174(3) 0.9029(2)
H18_4 H 0.4569 0.9429 0.9532
O6_4 O 0.46480(13) 0.66708(17) 0.6880(2)
C29_4 C 0.60678(11) 0.94532(19) 0.63572(17)
C30_4 C 0.62581(13) 0.9058(3) 0.7090(2)
H19_4 H 0.6608 0.9244 0.7353
C31_4 C 0.59286(15) 0.8376(3) 0.7441(2)
H20_4 H 0.6056 0.8104 0.7939
C32_4 C 0.54184(14) 0.8113(2) 0.7048(2)
C33_4 C 0.52233(16) 0.8503(3) 0.6329(2)
H21_4 H 0.4869 0.8328 0.6073
C34_4 C 0.55580(14) 0.9174(3) 0.5971(2)
H22_4 H 0.5431 0.9429 0.5468
loop_
_geom_bond_atom_site_label_1
_geom_bond_atom_site_label_2
_geom_bond_site_symmetry_1
_geom_bond_site_symmetry_2
O1 Cd1 1_555 1_555
O2 Cd1 1_555 1_555
N1 Cd1 1_555 1_555
N2 C1 1_555 1_555
C1 N1 1_555 1_555
H1 C1 1_555 1_555
C2 N1 1_555 1_555
C3 C2 1_555 1_555
H2 C3 1_555 1_555
C4 C3 1_555 1_555
C7 N2 1_555 1_555
C8 N2 1_555 1_555
C21 O1 1_555 1_555
C22 C21 1_555 1_555
C23 C22 1_555 1_555
H15 C23 1_555 1_555
C24 C23 1_555 1_555
H16 C24 1_555 1_555
C25 S1 1_555 1_555
C26 C25 1_555 1_555
C27 C22 1_555 1_555
H18 C27 1_555 1_555
O6 S1 1_555 1_555
N7 C45 1_555 1_555
H28 C43 1_555 1_555
C44 C43 1_555 1_555
H29 C44 1_555 1_555
C45 C44 1_555 1_555
C46 C45 1_555 1_555
H30 C46 1_555 1_555
C49 N7 1_555 1_555
C51 C50 1_555 1_555
H33 C51 1_555 1_555
C52 C51 1_555 1_555
H34 C52 1_555 1_555
C53 C52 1_555 1_555
H35 C53 1_555 1_555
C54 C49 1_555 1_555
H36 C54 1_555 1_555
Cl3 Cd1 1_555 1_555
N9 Cd1 1_555 1_555
O2 C21 1_555 1_555
C2 C7 1_555 1_555
C24 C25 1_555 1_555
C26 C27 1_555 1_555
C46 C47 1_555 1_555
C49 C50 1_555 1_555
C53 C54 1_555 1_555
Cl1 Cd5 1_555 1_555
H4 C5 1_555 1_555
C6 C5 1_555 1_555
H5 C6 1_555 1_555
N8 C48 1_555 1_555
H32 C48 1_555 1_555
Cd4 N8 1_555 1_555
S1_2 O3 1_555 1_555
N3 C11 1_555 1_555
H6 C9 1_555 1_555
C10 C9 1_555 1_555
H7 C10 1_555 1_555
C11 C10 1_555 1_555
O4 C28 1_555 1_555
O5 C28 1_555 1_555
C28 C29 1_555 1_555
C29 C30 1_555 1_555
C30 H19 1_555 1_555
C31 C30 1_555 1_555
H20 C31 1_555 1_555
C32 S1_2 1_555 1_555
C33 C32 1_555 1_555
C34 C29 1_555 1_555
H22 C34 1_555 1_555
Cd2 O4 1_555 1_555
Cl2 Cd2 1_555 1_555
N5 Cd2 1_555 1_555
N6 C35 1_555 1_555
C35 N5 1_555 1_555
H23 C35 1_555 1_555
C36 N5 1_555 1_555
C37 C36 1_555 1_555
H24 C37 1_555 1_555
C38 C37 1_555 1_555
C41 N6 1_555 1_555
C42 N6 1_555 1_555
Cd6 Cl2 1_555 1_555
Cl4 Cd2 1_555 1_555
N10 Cd2 1_555 1_555
O5 Cd2 1_555 1_555
C31 C32 1_555 1_555
C33 C34 1_555 1_555
C36 C41 1_555 1_555
Cd6 Cl4 1_555 1_555
N4 C14 1_555 1_555
H10 C14 1_555 1_555
H26 C39 1_555 1_555
C40 C39 1_555 1_555
H27 C40 1_555 1_555
Cd3 N4 1_555 1_555
O1_2 Cd3 1_555 1_555
O2_2 Cd3 1_555 1_555
N1_2 Cd3 1_555 1_555
N2_2 C1_2 1_555 1_555
N3_2 C11_2 1_555 1_555
N9 C14_2 1_555 1_555
C1_2 N1_2 1_555 1_555
H1_2 C1_2 1_555 1_555
C2_2 N1_2 1_555 1_555
C3_2 C2_2 1_555 1_555
H2_2 C3_2 1_555 1_555
C4_2 C3_2 1_555 1_555
H3_2 C4_2 1_555 1_555
C5_2 C4_2 1_555 1_555
H4_2 C5_2 1_555 1_555
C6_2 C5_2 1_555 1_555
H5_2 C6_2 1_555 1_555
C7_2 N2_2 1_555 1_555
C8_2 N2_2 1_555 1_555
C9_2 C8_2 1_555 1_555
H6_2 C9_2 1_555 1_555
C10_2 C9_2 1_555 1_555
H7_2 C10_2 1_555 1_555
C11_2 C10_2 1_555 1_555
C14_2 N3_2 1_555 1_555
H10_2 C14_2 1_555 1_555
C21_2 O1_2 1_555 1_555
O4_2 C28_2 1_555 1_555
O5_2 C28_2 1_555 1_555
Cd4 O4_2 1_555 1_555
Cl2_2 Cd4 1_555 1_555
N5_2 Cd4 1_555 1_555
N6_2 C35_2 1_555 1_555
N7_2 C45_2 1_555 1_555
N10 C48_2 1_555 1_555
C35_2 N5_2 1_555 1_555
H23_2 C35_2 1_555 1_555
C36_2 N5_2 1_555 1_555
C37_2 C36_2 1_555 1_555
H24_2 C37_2 1_555 1_555
C38_2 C37_2 1_555 1_555
H25_2 C38_2 1_555 1_555
C39_2 C38_2 1_555 1_555
H26_2 C39_2 1_555 1_555
C40_2 C39_2 1_555 1_555
H27_2 C40_2 1_555 1_555
C41_2 N6_2 1_555 1_555
C42_2 N6_2 1_555 1_555
C43_2 C42_2 1_555 1_555
H28_2 C43_2 1_555 1_555
C44_2 C43_2 1_555 1_555
H29_2 C44_2 1_555 1_555
C45_2 C44_2 1_555 1_555
C46_2 C45_2 1_555 1_555
H30_2 C46_2 1_555 1_555
C47_2 C42_2 1_555 1_555
H31_2 C47_2 1_555 1_555
C48_2 N7_2 1_555 1_555
H32_2 C48_2 1_555 1_555
C49_2 N7_2 1_555 1_555
C50_2 N10 1_555 1_555
C51_2 C50_2 1_555 1_555
H33_2 C51_2 1_555 1_555
C52_2 C51_2 1_555 1_555
H34_2 C52_2 1_555 1_555
C53_2 C52_2 1_555 1_555
H35_2 C53_2 1_555 1_555
C54_2 C49_2 1_555 1_555
H36_2 C54_2 1_555 1_555
Cd6_2 Cl2_2 1_555 1_555
Cl3_2 Cd3 1_555 1_555
Cl4_2 Cd4 1_555 1_555
O2_2 C21_2 1_555 1_555
C2_2 C7_2 1_555 1_555
C6_2 C7_2 1_555 1_555
O5_2 Cd4 1_555 1_555
C36_2 C41_2 1_555 1_555
C40_2 C41_2 1_555 1_555
C46_2 C47_2 1_555 1_555
C49_2 C50_2 1_555 1_555
C53_2 C54_2 1_555 1_555
Cd6_2 Cl4_2 1_555 1_555
Cl1_2 Cd5_2 1_555 1_555
H8 C12 1_555 1_555
H9_2 C13 1_555 1_555
C17 C16 1_555 1_555
H11 C17 1_555 1_555
C18 C17 1_555 1_555
H12 C18 1_555 1_555
C19 C18 1_555 1_555
H13 C19 1_555 1_555
C20 C15 1_555 1_555
H14 C20 1_555 1_555
C12 C13 1_555 1_555
C15 C16 1_555 1_555
C19 C20 1_555 1_555
N4_2 C14_3 1_555 1_555
H10_3 C14_3 1_555 1_555
H26_3 C39_3 1_555 1_555
C40_3 C39_3 1_555 1_555
H27_3 C40_3 1_555 1_555
Cd5 N4_2 1_555 1_555
S1_3 O3_2 1_555 1_555
N3_3 C11_3 1_555 1_555
H6_3 C9_3 1_555 1_555
C10_3 C9_3 1_555 1_555
H7_3 C10_3 1_555 1_555
C11_3 C10_3 1_555 1_555
O4_3 C28_3 1_555 1_555
O5_3 C28_3 1_555 1_555
C28_3 C29_2 1_555 1_555
C29_2 C30_2 1_555 1_555
C30_2 H19_2 1_555 1_555
C31_2 C30_2 1_555 1_555
H20_2 C31_2 1_555 1_555
C32_2 S1_3 1_555 1_555
C33_2 C32_2 1_555 1_555
C34_2 C29_2 1_555 1_555
H22_2 C34_2 1_555 1_555
Cd6_2 O4_3 1_555 1_555
N5_3 Cd6_2 1_555 1_555
N6_3 C35_3 1_555 1_555
C35_3 N5_3 1_555 1_555
H23_3 C35_3 1_555 1_555
C36_3 N5_3 1_555 1_555
C37_3 C36_3 1_555 1_555
H24_3 C37_3 1_555 1_555
C38_3 C37_3 1_555 1_555
C41_3 N6_3 1_555 1_555
C42_3 N6_3 1_555 1_555
N10_2 Cd6_2 1_555 1_555
O5_3 Cd6_2 1_555 1_555
C31_2 C32_2 1_555 1_555
C33_2 C34_2 1_555 1_555
C36_3 C41_3 1_555 1_555
H4_3 C5_3 1_555 1_555
C6_3 C5_3 1_555 1_555
H5_3 C6_3 1_555 1_555
N8_2 C48_3 1_555 1_555
H32_3 C48_3 1_555 1_555
Cd6 N8_2 1_555 1_555
O1_3 Cd5_2 1_555 1_555
O2_3 Cd5_2 1_555 1_555
N1_3 Cd5_2 1_555 1_555
N2_3 C1_3 1_555 1_555
C1_3 N1_3 1_555 1_555
H1_3 C1_3 1_555 1_555
C2_3 N1_3 1_555 1_555
C3_3 C2_3 1_555 1_555
H2_3 C3_3 1_555 1_555
C4_3 C3_3 1_555 1_555
C7_3 N2_3 1_555 1_555
C8_3 N2_3 1_555 1_555
C21_3 O1_3 1_555 1_555
C22_2 C21_3 1_555 1_555
C23_2 C22_2 1_555 1_555
H15_2 C23_2 1_555 1_555
C24_2 C23_2 1_555 1_555
H16_2 C24_2 1_555 1_555
C25_2 S1_4 1_555 1_555
C26_2 C25_2 1_555 1_555
C27_2 C22_2 1_555 1_555
H18_2 C27_2 1_555 1_555
O6_2 S1_4 1_555 1_555
N7_3 C45_3 1_555 1_555
H28_3 C43_3 1_555 1_555
C44_3 C43_3 1_555 1_555
H29_3 C44_3 1_555 1_555
C45_3 C44_3 1_555 1_555
C46_3 C45_3 1_555 1_555
H30_3 C46_3 1_555 1_555
C49_3 N7_3 1_555 1_555
C51_3 C50_3 1_555 1_555
H33_3 C51_3 1_555 1_555
C52_3 C51_3 1_555 1_555
H34_3 C52_3 1_555 1_555
C53_3 C52_3 1_555 1_555
H35_3 C53_3 1_555 1_555
C54_3 C49_3 1_555 1_555
H36_3 C54_3 1_555 1_555
N9_2 Cd5_2 1_555 1_555
O2_3 C21_3 1_555 1_555
C2_3 C7_3 1_555 1_555
C24_2 C25_2 1_555 1_555
C26_2 C27_2 1_555 1_555
C46_3 C47_3 1_555 1_555
C49_3 C50_3 1_555 1_555
C53_3 C54_3 1_555 1_555
H8_2 C12_2 1_555 1_555
H9_4 C13_2 1_555 1_555
C17_2 C16_2 1_555 1_555
H11_2 C17_2 1_555 1_555
C18_2 C17_2 1_555 1_555
H12_2 C18_2 1_555 1_555
C19_2 C18_2 1_555 1_555
H13_2 C19_2 1_555 1_555
C20_2 C15_2 1_555 1_555
H14_2 C20_2 1_555 1_555
C12_2 C13_2 1_555 1_555
C15_2 C16_2 1_555 1_555
C19_2 C20_2 1_555 1_555
O1_4 Cd5 1_555 1_555
O2_4 Cd5 1_555 1_555
N1_4 Cd5 1_555 1_555
N2_4 C1_4 1_555 1_555
N3_4 C11_4 1_555 1_555
N9_2 C14_4 1_555 1_555
C1_4 N1_4 1_555 1_555
H1_4 C1_4 1_555 1_555
C2_4 N1_4 1_555 1_555
C3_4 C2_4 1_555 1_555
H2_4 C3_4 1_555 1_555
C4_4 C3_4 1_555 1_555
H3_4 C4_4 1_555 1_555
C5_4 C4_4 1_555 1_555
H4_4 C5_4 1_555 1_555
C6_4 C5_4 1_555 1_555
H5_4 C6_4 1_555 1_555
C7_4 N2_4 1_555 1_555
C8_4 N2_4 1_555 1_555
C9_4 C8_4 1_555 1_555
H6_4 C9_4 1_555 1_555
C10_4 C9_4 1_555 1_555
H7_4 C10_4 1_555 1_555
C11_4 C10_4 1_555 1_555
C14_4 N3_4 1_555 1_555
H10_4 C14_4 1_555 1_555
C21_4 O1_4 1_555 1_555
O4_4 C28_4 1_555 1_555
O5_4 C28_4 1_555 1_555
Cd6 O4_4 1_555 1_555
N5_4 Cd6 1_555 1_555
N6_4 C35_4 1_555 1_555
N7_4 C45_4 1_555 1_555
N10_2 C48_4 1_555 1_555
C35_4 N5_4 1_555 1_555
H23_4 C35_4 1_555 1_555
C36_4 N5_4 1_555 1_555
C37_4 C36_4 1_555 1_555
H24_4 C37_4 1_555 1_555
C38_4 C37_4 1_555 1_555
H25_4 C38_4 1_555 1_555
C39_4 C38_4 1_555 1_555
H26_4 C39_4 1_555 1_555
C40_4 C39_4 1_555 1_555
H27_4 C40_4 1_555 1_555
C41_4 N6_4 1_555 1_555
C42_4 N6_4 1_555 1_555
C43_4 C42_4 1_555 1_555
H28_4 C43_4 1_555 1_555
C44_4 C43_4 1_555 1_555
H29_4 C44_4 1_555 1_555
C45_4 C44_4 1_555 1_555
C46_4 C45_4 1_555 1_555
H30_4 C46_4 1_555 1_555
C47_4 C42_4 1_555 1_555
H31_4 C47_4 1_555 1_555
C48_4 N7_4 1_555 1_555
H32_4 C48_4 1_555 1_555
C49_4 N7_4 1_555 1_555
C50_4 N10_2 1_555 1_555
C51_4 C50_4 1_555 1_555
H33_4 C51_4 1_555 1_555
C52_4 C51_4 1_555 1_555
H34_4 C52_4 1_555 1_555
C53_4 C52_4 1_555 1_555
H35_4 C53_4 1_555 1_555
C54_4 C49_4 1_555 1_555
H36_4 C54_4 1_555 1_555
O2_4 C21_4 1_555 1_555
C2_4 C7_4 1_555 1_555
C6_4 C7_4 1_555 1_555
O5_4 Cd6 1_555 1_555
C36_4 C41_4 1_555 1_555
C40_4 C41_4 1_555 1_555
C46_4 C47_4 1_555 1_555
C49_4 C50_4 1_555 1_555
C53_4 C54_4 1_555 1_555
H8_3 C12_3 1_555 1_555
C17_3 C16_3 1_555 1_555
H11_3 C17_3 1_555 1_555
C18_3 C17_3 1_555 1_555
H12_3 C18_3 1_555 1_555
C19_3 C18_3 1_555 1_555
H13_3 C19_3 1_555 1_555
C20_3 C15_3 1_555 1_555
H14_3 C20_3 1_555 1_555
C12_3 C13_3 1_555 1_555
C15_3 C16_3 1_555 1_555
C19_3 C20_3 1_555 1_555
S1_5 O3_3 1_555 1_555
C23_3 C22_3 1_555 1_555
H15_3 C23_3 1_555 1_555
C24_3 C23_3 1_555 1_555
H16_3 C24_3 1_555 1_555
C25_3 S1_5 1_555 1_555
C26_3 C25_3 1_555 1_555
H17_3 C26_3 1_555 1_555
C27_3 C22_3 1_555 1_555
H18_3 C27_3 1_555 1_555
O6_3 S1_5 1_555 1_555
C29_3 C30_3 1_555 1_555
C30_3 H19_3 1_555 1_555
C31_3 C30_3 1_555 1_555
H20_3 C31_3 1_555 1_555
C32_3 S1_5 1_555 1_555
C33_3 C32_3 1_555 1_555
H21_3 C33_3 1_555 1_555
C34_3 C29_3 1_555 1_555
H22_3 C34_3 1_555 1_555
C24_3 C25_3 1_555 1_555
C26_3 C27_3 1_555 1_555
C31_3 C32_3 1_555 1_555
C33_3 C34_3 1_555 1_555
H8_4 C12_4 1_555 1_555
C17_4 C16_4 1_555 1_555
H11_4 C17_4 1_555 1_555
C18_4 C17_4 1_555 1_555
H12_4 C18_4 1_555 1_555
C19_4 C18_4 1_555 1_555
H13_4 C19_4 1_555 1_555
C20_4 C15_4 1_555 1_555
H14_4 C20_4 1_555 1_555
C12_4 C13_4 1_555 1_555
C15_4 C16_4 1_555 1_555
C19_4 C20_4 1_555 1_555
S1_6 O3_4 1_555 1_555
C23_4 C22_4 1_555 1_555
H15_4 C23_4 1_555 1_555
C24_4 C23_4 1_555 1_555
H16_4 C24_4 1_555 1_555
C25_4 S1_6 1_555 1_555
C26_4 C25_4 1_555 1_555
H17_4 C26_4 1_555 1_555
C27_4 C22_4 1_555 1_555
H18_4 C27_4 1_555 1_555
O6_4 S1_6 1_555 1_555
C29_4 C30_4 1_555 1_555
C30_4 H19_4 1_555 1_555
C31_4 C30_4 1_555 1_555
H20_4 C31_4 1_555 1_555
C32_4 S1_6 1_555 1_555
C33_4 C32_4 1_555 1_555
H21_4 C33_4 1_555 1_555
C34_4 C29_4 1_555 1_555
H22_4 C34_4 1_555 1_555
C24_4 C25_4 1_555 1_555
C26_4 C27_4 1_555 1_555
C31_4 C32_4 1_555 1_555
C33_4 C34_4 1_555 1_555

#END
