
###############################################################################
#
# This file contains modified crystal structure data generated from the
# MOF subset of the Cambridge Structural Database (CSD) v543 
# hosted by the Cambridge Crystallographic Data Centre (CCDC).
#
# This work is licensed under the Creative Commons
# Attribution-NonCommercial-ShareAlike 4.0 International License.
# To view a copy of this license, visit
# http://creativecommons.org/licenses/by-nc-sa/4.0/
# or send a letter to
# Creative Commons, PO Box 1866, Mountain View, CA 94042, USA.
#
# CIF created using the CSD Python API on 29 September 2022
# The structure has been converted into the P1 space group
# The structure has a 3D framework
# The original CSD entry JOLYEQ is in the rhombohedral crystal system
# The framework has been calculated to contain at least 10.0% void space
# The void calculation uses a probe of radius 1.32A, grid spacing 0.4
# H atom positions have been added when not included in the experimental data
#
###############################################################################

data_JOLYEQ
_chemical_formula_moiety         '(C432 H468 N54 O162 P54 Zr11)n'
_symmetry_cell_setting           triclinic
_symmetry_space_group_name_H-M   'P 1'
_symmetry_Int_Tables_number      1
_space_group_name_Hall           'P 1'
loop_
_symmetry_equiv_pos_site_id
_symmetry_equiv_pos_as_xyz
1 x,y,z
_cell_length_a                   60.6741(15)
_cell_length_b                   60.6741
_cell_length_c                   5.12775(27)
_cell_angle_alpha                90
_cell_angle_beta                 90
_cell_angle_gamma                120
_cell_volume                     16348
loop_
_atom_site_label
_atom_site_type_symbol
_atom_site_fract_x
_atom_site_fract_y
_atom_site_fract_z
_atom_site_U_iso_or_equiv
_atom_site_thermal_displace_type
P1 P 0.02345(29) 0.54672(27) 0.0283(33) 0.0153 Uiso
O2 O 0.0116(5) 0.5294(5) 0.248(6) 0.0153 Uiso
C8 C 0.0587(5) 0.5715(7) 0.100(6) 0.0153 Uiso
Zr3 Zr -0.000 0.500 0.500 0.0153 Uiso
H7 H 0.0589119 0.586314 0.221706 . .
H8 H 0.0668865 0.561841 0.207647 . .
C1 C 0.1061(6) 0.5866(6) 0.542(7) 0.0153 Uiso
C2 C 0.0903(7) 0.5748(7) 0.751(7) 0.0153 Uiso
C3 C 0.0761(5) 0.5847(5) 0.861(6) 0.0153 Uiso
C4 C 0.0834(6) 0.6095(7) 0.807(8) 0.0153 Uiso
C5 C 0.1026(8) 0.6228(7) 0.615(7) 0.0153 Uiso
C6 C 0.1148(5) 0.6112(5) 0.492(6) 0.0153 Uiso
O1 O 0.0178(5) 0.5278(5) 0.788(5) 0.0153 Uiso
C7 C 0.1339(5) 0.6257(5) 0.261(5) 0.0153 Uiso
N1 N 0.1495(6) 0.6176(6) 0.131(6) 0.0153 Uiso
O3 O 0.0093(8) 0.5619(7) 0.969(7) 0.0153 Uiso
N2 N 0.1435(5) 0.6499(5) 0.260(5) 0.0153 Uiso
C9 C 0.1554(5) 0.6626(5) 0.054(5) 0.0153 Uiso
C11 C 0.1613(5) 0.6880(5) 0.072(5) 0.0153 Uiso
C12 C 0.1479(7) 0.6925(6) 0.255(6) 0.0153 Uiso
C13 C 0.1519(7) 0.7167(6) 0.307(7) 0.0153 Uiso
C14 C 0.1668(5) 0.7359(6) 0.148(6) 0.0153 Uiso
C24 C 0.1682(7) 0.7615(6) 0.193(6) 0.0153 Uiso
O22 O 0.03230(49) 0.4985(4) 0.442(6) 0.0153 Uiso
H1 H 0.111588 0.575728 0.415578 . .
H2 H 0.0746905 0.618963 0.909008 . .
H3 H 0.107834 0.642228 0.563448 . .
H4 H 0.0888865 0.557522 0.831277 . .
H6 H 0.120374 0.762708 0.162463 . .
H14 H 0.133404 0.676484 0.365785 . .
H15 H 0.188097 0.77638 0.204325 . .
H16 H 0.158705 0.760709 0.37588 . .
H17 H 0.142993 0.71999 0.475458 . .
H20 H 0.166501 0.587913 0.0293491 . .
N3 N 0.1686(6) 0.6550(5) 0.903(6) 0.0153 Uiso
C10 C 0.1638(5) 0.6306(5) 0.928(6) 0.0153 Uiso
C15 C 0.1777(8) 0.7311(7) 0.932(6) 0.0153 Uiso
C16 C 0.1767(6) 0.7067(7) 0.905(7) 0.0153 Uiso
C17 C 0.1803(5) 0.6198(6) 0.775(6) 0.0153 Uiso
C18 C 0.1872(6) 0.6242(7) 0.508(7) 0.0153 Uiso
C19 C 0.1798(6) 0.5987(6) 0.874(7) 0.0153 Uiso
C20 C 0.1971(6) 0.5905(7) 0.772(7) 0.0153 Uiso
C21 C 0.2053(5) 0.5950(6) 0.518(6) 0.0153 Uiso
C22 C 0.2041(7) 0.6148(7) 0.390(7) 0.0153 Uiso
C23 C 0.2127(5) 0.5782(7) 0.386(8) 0.0153 Uiso
P2 P 0.24285(26) 0.58427(30) 0.461(4) 0.0153 Uiso
P3 P 0.15332(33) 0.76875(29) 0.937(4) 0.0153 Uiso
O4 O 0.1563(8) 0.7557(7) 0.706(6) 0.0153 Uiso
O5 O 0.1652(4) 0.79957(29) 0.891(6) 0.0153 Uiso
O6 O 0.1229(6) 0.7559(8) 0.996(8) 0.0153 Uiso
O7 O 0.2536(7) 0.5811(7) 0.217(7) 0.0153 Uiso
O8 O 0.2586(5) 0.6091(6) 0.575(7) 0.0153 Uiso
O9 O 0.2437(7) 0.5672(7) 0.656(7) 0.0153 Uiso
Zr5 Zr 0.166667 0.833333 0.833333 0.0153 Uiso
H9 H 0.214882 0.623193 0.212142 . .
H10 H 0.203596 0.580616 0.900555 . .
H11 H 0.254089 0.593305 0.0849094 . .
H12 H 0.234072 0.549401 0.591488 . .
H13 H 0.180417 0.634321 0.386726 . .
H18 H 0.2117 0.580427 0.176342 . .
H19 H 0.199234 0.558643 0.441103 . .
H21 H 0.187815 0.703654 0.757467 . .
H22 H 0.18701 0.745646 0.782656 . .
N6 N 0.8314(6) 0.3450(5) 0.097(6) 0.0153 Uiso
C34 C 0.8362(5) 0.3694(5) 0.072(6) 0.0153 Uiso
C39 C 0.8223(8) 0.2689(7) 0.068(6) 0.0153 Uiso
C40 C 0.8233(6) 0.2933(7) 0.095(7) 0.0153 Uiso
C41 C 0.8197(5) 0.3802(6) 0.225(6) 0.0153 Uiso
C42 C 0.8128(6) 0.3758(7) 0.492(7) 0.0153 Uiso
C43 C 0.8202(6) 0.4013(6) 0.126(7) 0.0153 Uiso
C44 C 0.8029(6) 0.4095(7) 0.228(7) 0.0153 Uiso
C45 C 0.7947(5) 0.4050(6) 0.482(6) 0.0153 Uiso
C46 C 0.7959(7) 0.3852(7) 0.610(7) 0.0153 Uiso
C47 C 0.7873(5) 0.4218(7) 0.614(8) 0.0153 Uiso
P5 P 0.75715(26) 0.41573(30) 0.539(4) 0.0153 Uiso
P6 P 0.84668(33) 0.23125(29) 0.063(4) 0.0153 Uiso
O13 O 0.8437(8) 0.2443(7) 0.294(6) 0.0153 Uiso
O14 O 0.8348(4) 0.20043(29) 0.109(6) 0.0153 Uiso
O15 O 0.8771(6) 0.2441(8) 0.004(8) 0.0153 Uiso
O16 O 0.7464(7) 0.4189(7) 0.783(7) 0.0153 Uiso
O17 O 0.7414(5) 0.3909(6) 0.425(7) 0.0153 Uiso
O18 O 0.7563(7) 0.4328(7) 0.344(7) 0.0153 Uiso
Zr3_2 Zr 1.000 0.500 0.500 0.0153 Uiso
Zr4 Zr 0.833333 0.166667 0.166667 0.0153 Uiso
H26 H 0.812185 0.296346 0.242533 . .
H28 H 0.81299 0.254354 0.217344 . .
H30 H 0.819583 0.365679 0.613274 . .
H35 H 0.800766 0.441357 0.558897 . .
H36 H 0.7883 0.419573 0.823658 . .
H38 H 0.764063 0.431338 0.179147 . .
H39 H 0.757149 0.436555 0.848222 . .
H40 H 0.785118 0.376807 0.787858 . .
H42 H 0.796404 0.419384 0.099445 . .
C25 C 0.8939(6) 0.4134(6) 0.458(7) 0.0153 Uiso
C26 C 0.9097(7) 0.4252(7) 0.249(7) 0.0153 Uiso
C27 C 0.9239(5) 0.4153(5) 0.139(6) 0.0153 Uiso
C28 C 0.9166(6) 0.3905(7) 0.193(8) 0.0153 Uiso
C29 C 0.8974(8) 0.3772(7) 0.385(7) 0.0153 Uiso
C30 C 0.8852(5) 0.3888(5) 0.508(6) 0.0153 Uiso
O10 O 0.9822(5) 0.4722(5) 0.212(5) 0.0153 Uiso
C31 C 0.8661(5) 0.3743(5) 0.739(5) 0.0153 Uiso
N4 N 0.8505(6) 0.3824(6) 0.869(6) 0.0153 Uiso
O12 O 0.9907(8) 0.4381(7) 0.031(7) 0.0153 Uiso
N5 N 0.8565(5) 0.3501(5) 0.740(5) 0.0153 Uiso
C33 C 0.8446(5) 0.3374(5) 0.946(5) 0.0153 Uiso
C35 C 0.8387(5) 0.3120(5) 0.928(5) 0.0153 Uiso
C36 C 0.8521(7) 0.3075(6) 0.745(6) 0.0153 Uiso
C37 C 0.8481(7) 0.2833(6) 0.693(7) 0.0153 Uiso
C38 C 0.8332(5) 0.2641(6) 0.852(6) 0.0153 Uiso
C48 C 0.8318(7) 0.2385(6) 0.807(6) 0.0153 Uiso
O20 O 0.9884(5) 0.4706(5) 0.752(6) 0.0153 Uiso
O21 O 0.96770(49) 0.5015(4) 0.558(6) 0.0153 Uiso
H5 H 0.990761 0.54981 0.951805 . .
H23 H 0.857007 0.28001 0.524542 . .
H24 H 0.888412 0.424272 0.584422 . .
H25 H 0.911113 0.442478 0.168723 . .
H27 H 0.92531 0.381037 0.0909921 . .
H29 H 0.892166 0.357772 0.436552 . .
H33 H 0.984107 0.428456 0.196215 . .
H34 H 0.866596 0.323516 0.634215 . .
H37 H 0.833499 0.412087 0.970651 . .
H41 H 0.884823 0.262854 0.990306 . .
H43 H 0.841295 0.239291 0.62412 . .
H44 H 0.811903 0.22362 0.795675 . .
P4 P 0.97655(29) 0.45328(27) 0.9717(33) 0.0153 Uiso
C32 C 0.9413(5) 0.4285(7) 0.900(6) 0.0153 Uiso
H31 H 0.933114 0.438159 0.792353 . .
H32 H 0.941088 0.413686 0.778294 . .
P1_2 P 0.45328(27) 0.47673(40) 0.0283(33) 0.0153 Uiso
O2_2 O 0.4706(5) 0.4822(7) 0.248(6) 0.0153 Uiso
C8_2 C 0.4285(7) 0.4872(9) 0.100(6) 0.0153 Uiso
N6_2 N 0.6550(5) 0.4864(8) 0.097(6) 0.0153 Uiso
C34_2 C 0.6306(5) 0.4668(7) 0.072(6) 0.0153 Uiso
C39_2 C 0.7311(7) 0.5534(11) 0.068(6) 0.0153 Uiso
C40_2 C 0.7067(7) 0.5300(9) 0.095(7) 0.0153 Uiso
C41_2 C 0.6198(6) 0.4395(8) 0.225(6) 0.0153 Uiso
C42_2 C 0.6242(7) 0.4370(9) 0.492(7) 0.0153 Uiso
C43_2 C 0.5987(6) 0.4189(8) 0.126(7) 0.0153 Uiso
C44_2 C 0.5905(7) 0.3934(9) 0.228(7) 0.0153 Uiso
C45_2 C 0.5950(6) 0.3897(8) 0.482(6) 0.0153 Uiso
C46_2 C 0.6148(7) 0.4107(10) 0.610(7) 0.0153 Uiso
C47_2 C 0.5782(7) 0.3655(9) 0.614(8) 0.0153 Uiso
P5_2 P 0.58427(30) 0.34142(40) 0.539(4) 0.0153 Uiso
P6_2 P 0.76875(29) 0.61543(44) 0.063(4) 0.0153 Uiso
O13_2 O 0.7557(7) 0.5994(11) 0.294(6) 0.0153 Uiso
O14_2 O 0.79957(29) 0.63437(49) 0.109(6) 0.0153 Uiso
O15_2 O 0.7559(8) 0.6330(10) 0.004(8) 0.0153 Uiso
O16_2 O 0.5811(7) 0.3275(10) 0.783(7) 0.0153 Uiso
O17_2 O 0.6091(6) 0.3505(8) 0.425(7) 0.0153 Uiso
O18_2 O 0.5672(7) 0.3235(10) 0.344(7) 0.0153 Uiso
Zr3_3 Zr 0.500 0.500 0.500 0.0153 Uiso
Zr4_2 Zr 0.833333 0.666667 0.166667 0.0153 Uiso
H7_2 H 0.413686 0.472598 0.221706 . .
H8_2 H 0.438159 0.505045 0.207647 . .
H26_2 H 0.703654 0.515839 0.242533 . .
H28_2 H 0.745646 0.558636 0.217344 . .
H30_2 H 0.634321 0.453904 0.613274 . .
H35_2 H 0.558643 0.359408 0.558897 . .
H36_2 H 0.580427 0.368727 0.823658 . .
H38_2 H 0.568662 0.332724 0.179147 . .
H39_2 H 0.563445 0.320594 0.848222 . .
H40_2 H 0.623193 0.408311 0.787858 . .
H42_2 H 0.580616 0.37702 0.099445 . .
C1_2 C 0.4134(6) 0.5195(8) 0.542(7) 0.0153 Uiso
C2_2 C 0.4252(7) 0.5155(10) 0.751(7) 0.0153 Uiso
C3_2 C 0.4153(5) 0.4914(7) 0.861(6) 0.0153 Uiso
C4_2 C 0.3905(7) 0.4739(9) 0.807(8) 0.0153 Uiso
C5_2 C 0.3772(7) 0.4798(11) 0.615(7) 0.0153 Uiso
C6_2 C 0.3888(5) 0.5036(7) 0.492(6) 0.0153 Uiso
O1_2 O 0.4722(5) 0.4900(7) 0.788(5) 0.0153 Uiso
C7_2 C 0.3743(5) 0.5082(7) 0.261(5) 0.0153 Uiso
N1_2 N 0.3824(6) 0.5319(8) 0.131(6) 0.0153 Uiso
O3_2 O 0.4381(7) 0.4474(11) 0.969(7) 0.0153 Uiso
N2_2 N 0.3501(5) 0.4936(7) 0.260(5) 0.0153 Uiso
C9_2 C 0.3374(5) 0.4928(7) 0.054(5) 0.0153 Uiso
C11_2 C 0.3120(5) 0.4733(7) 0.072(5) 0.0153 Uiso
C12_2 C 0.3075(6) 0.4554(9) 0.255(6) 0.0153 Uiso
C13_2 C 0.2833(6) 0.4352(9) 0.307(7) 0.0153 Uiso
C14_2 C 0.2641(6) 0.4309(8) 0.148(6) 0.0153 Uiso
C24_2 C 0.2385(6) 0.4067(9) 0.193(6) 0.0153 Uiso
C25_2 C 0.5866(6) 0.4805(8) 0.458(7) 0.0153 Uiso
C26_2 C 0.5748(7) 0.4845(10) 0.249(7) 0.0153 Uiso
C27_2 C 0.5847(5) 0.5086(7) 0.139(6) 0.0153 Uiso
C28_2 C 0.6095(7) 0.5261(9) 0.193(8) 0.0153 Uiso
C29_2 C 0.6228(7) 0.5202(11) 0.385(7) 0.0153 Uiso
C30_2 C 0.6112(5) 0.4964(7) 0.508(6) 0.0153 Uiso
O10_2 O 0.5278(5) 0.5100(7) 0.212(5) 0.0153 Uiso
C31_2 C 0.6257(5) 0.4918(7) 0.739(5) 0.0153 Uiso
N4_2 N 0.6176(6) 0.4681(8) 0.869(6) 0.0153 Uiso
O12_2 O 0.5619(7) 0.5526(11) 0.031(7) 0.0153 Uiso
N5_2 N 0.6499(5) 0.5064(7) 0.740(5) 0.0153 Uiso
C33_2 C 0.6626(5) 0.5072(7) 0.946(5) 0.0153 Uiso
C35_2 C 0.6880(5) 0.5267(7) 0.928(5) 0.0153 Uiso
C36_2 C 0.6925(6) 0.5446(9) 0.745(6) 0.0153 Uiso
C37_2 C 0.7167(6) 0.5648(9) 0.693(7) 0.0153 Uiso
C38_2 C 0.7359(6) 0.5691(8) 0.852(6) 0.0153 Uiso
C48_2 C 0.7615(6) 0.5933(9) 0.807(6) 0.0153 Uiso
O20_2 O 0.5294(5) 0.5178(7) 0.752(6) 0.0153 Uiso
O21_2 O 0.4985(4) 0.46624(63) 0.558(6) 0.0153 Uiso
O22_2 O 0.5015(4) 0.53376(63) 0.442(6) 0.0153 Uiso
H1_2 H 0.424272 0.53586 0.415578 . .
H2_2 H 0.381037 0.455727 0.909008 . .
H3_2 H 0.357772 0.465606 0.563448 . .
H4_2 H 0.442478 0.531365 0.831277 . .
H5_2 H 0.45019 0.44095 0.951805 . .
H6_2 H 0.237292 0.357665 0.162463 . .
H14_2 H 0.323516 0.456921 0.365785 . .
H15_2 H 0.22362 0.411717 0.204325 . .
H16_2 H 0.239291 0.397996 0.37588 . .
H17_2 H 0.28001 0.423004 0.475458 . .
H20_2 H 0.412087 0.578587 0.0293491 . .
H23_2 H 0.71999 0.576996 0.524542 . .
H24_2 H 0.575728 0.46414 0.584422 . .
H25_2 H 0.557522 0.468635 0.168723 . .
H27_2 H 0.618963 0.544273 0.0909921 . .
H29_2 H 0.642228 0.534394 0.436552 . .
H33_2 H 0.571544 0.555651 0.196215 . .
H34_2 H 0.676484 0.543079 0.634215 . .
H37_2 H 0.587913 0.421413 0.970651 . .
H41_2 H 0.737146 0.62197 0.990306 . .
H43_2 H 0.760709 0.602004 0.62412 . .
H44_2 H 0.77638 0.588283 0.795675 . .
N3_2 N 0.3450(5) 0.5136(8) 0.903(6) 0.0153 Uiso
C10_2 C 0.3694(5) 0.5332(7) 0.928(6) 0.0153 Uiso
C15_2 C 0.2689(7) 0.4466(11) 0.932(6) 0.0153 Uiso
C16_2 C 0.2933(7) 0.4700(9) 0.905(7) 0.0153 Uiso
C17_2 C 0.3802(6) 0.5605(8) 0.775(6) 0.0153 Uiso
C18_2 C 0.3758(7) 0.5630(9) 0.508(7) 0.0153 Uiso
C19_2 C 0.4013(6) 0.5811(8) 0.874(7) 0.0153 Uiso
C20_2 C 0.4095(7) 0.6066(9) 0.772(7) 0.0153 Uiso
C21_2 C 0.4050(6) 0.6103(8) 0.518(6) 0.0153 Uiso
C22_2 C 0.3852(7) 0.5893(10) 0.390(7) 0.0153 Uiso
C23_2 C 0.4218(7) 0.6345(9) 0.386(8) 0.0153 Uiso
P2_2 P 0.41573(30) 0.65858(40) 0.461(4) 0.0153 Uiso
P3_2 P 0.23125(29) 0.38457(44) 0.937(4) 0.0153 Uiso
O4_2 O 0.2443(7) 0.4006(11) 0.706(6) 0.0153 Uiso
O5_2 O 0.20043(29) 0.36563(49) 0.891(6) 0.0153 Uiso
O6_2 O 0.2441(8) 0.3670(10) 0.996(8) 0.0153 Uiso
O7_2 O 0.4189(7) 0.6725(10) 0.217(7) 0.0153 Uiso
O8_2 O 0.3909(6) 0.6495(8) 0.575(7) 0.0153 Uiso
O9_2 O 0.4328(7) 0.6765(10) 0.656(7) 0.0153 Uiso
P4_2 P 0.54672(27) 0.52327(40) 0.9717(33) 0.0153 Uiso
C32_2 C 0.5715(7) 0.5128(9) 0.900(6) 0.0153 Uiso
Zr5_2 Zr 0.166667 0.333333 0.833333 0.0153 Uiso
H9_2 H 0.376807 0.591689 0.212142 . .
H10_2 H 0.419384 0.62298 0.900555 . .
H11_2 H 0.406695 0.660784 0.0849094 . .
H12_2 H 0.450599 0.684671 0.591488 . .
H13_2 H 0.365679 0.546096 0.386726 . .
H18_2 H 0.419573 0.631273 0.176342 . .
H19_2 H 0.441357 0.640592 0.441103 . .
H21_2 H 0.296346 0.484161 0.757467 . .
H22_2 H 0.254354 0.441364 0.782656 . .
H31_2 H 0.561841 0.494955 0.792353 . .
H32_2 H 0.586314 0.527402 0.778294 . .
N6_3 N 0.5136(8) 0.1686(6) 0.097(6) 0.0153 Uiso
C34_3 C 0.5332(7) 0.1638(5) 0.072(6) 0.0153 Uiso
C39_3 C 0.4466(11) 0.1777(8) 0.068(6) 0.0153 Uiso
C40_3 C 0.4700(9) 0.1767(6) 0.095(7) 0.0153 Uiso
C41_3 C 0.5605(8) 0.1803(5) 0.225(6) 0.0153 Uiso
C42_3 C 0.5630(9) 0.1872(6) 0.492(7) 0.0153 Uiso
C43_3 C 0.5811(8) 0.1798(6) 0.126(7) 0.0153 Uiso
C44_3 C 0.6066(9) 0.1971(6) 0.228(7) 0.0153 Uiso
C45_3 C 0.6103(8) 0.2053(5) 0.482(6) 0.0153 Uiso
C46_3 C 0.5893(10) 0.2041(7) 0.610(7) 0.0153 Uiso
C47_3 C 0.6345(9) 0.2127(5) 0.614(8) 0.0153 Uiso
P5_3 P 0.65858(40) 0.24285(26) 0.539(4) 0.0153 Uiso
P6_3 P 0.38457(44) 0.15332(33) 0.063(4) 0.0153 Uiso
O13_3 O 0.4006(11) 0.1563(8) 0.294(6) 0.0153 Uiso
O14_3 O 0.36563(49) 0.1652(4) 0.109(6) 0.0153 Uiso
O15_3 O 0.3670(10) 0.1229(6) 0.004(8) 0.0153 Uiso
O16_3 O 0.6725(10) 0.2536(7) 0.783(7) 0.0153 Uiso
O17_3 O 0.6495(8) 0.2586(5) 0.425(7) 0.0153 Uiso
O18_3 O 0.6765(10) 0.2437(7) 0.344(7) 0.0153 Uiso
Zr3_4 Zr 0.500 0.000 0.500 0.0153 Uiso
Zr4_3 Zr 0.333333 0.166667 0.166667 0.0153 Uiso
H26_3 H 0.484161 0.187815 0.242533 . .
H28_3 H 0.441364 0.18701 0.217344 . .
H30_3 H 0.546096 0.180417 0.613274 . .
H35_3 H 0.640592 0.199234 0.558897 . .
H36_3 H 0.631273 0.2117 0.823658 . .
H38_3 H 0.667276 0.235937 0.179147 . .
H39_3 H 0.679406 0.242851 0.848222 . .
H40_3 H 0.591689 0.214882 0.787858 . .
H42_3 H 0.62298 0.203596 0.099445 . .
C25_3 C 0.5195(8) 0.1061(6) 0.458(7) 0.0153 Uiso
C26_3 C 0.5155(10) 0.0903(7) 0.249(7) 0.0153 Uiso
C27_3 C 0.4914(7) 0.0761(5) 0.139(6) 0.0153 Uiso
C28_3 C 0.4739(9) 0.0834(6) 0.193(8) 0.0153 Uiso
C29_3 C 0.4798(11) 0.1026(8) 0.385(7) 0.0153 Uiso
C30_3 C 0.5036(7) 0.1148(5) 0.508(6) 0.0153 Uiso
O10_3 O 0.4900(7) 0.0178(5) 0.212(5) 0.0153 Uiso
C31_3 C 0.5082(7) 0.1339(5) 0.739(5) 0.0153 Uiso
N4_3 N 0.5319(8) 0.1495(6) 0.869(6) 0.0153 Uiso
O12_3 O 0.4474(11) 0.0093(8) 0.031(7) 0.0153 Uiso
N5_3 N 0.4936(7) 0.1435(5) 0.740(5) 0.0153 Uiso
C33_3 C 0.4928(7) 0.1554(5) 0.946(5) 0.0153 Uiso
C35_3 C 0.4733(7) 0.1613(5) 0.928(5) 0.0153 Uiso
C36_3 C 0.4554(9) 0.1479(7) 0.745(6) 0.0153 Uiso
C37_3 C 0.4352(9) 0.1519(7) 0.693(7) 0.0153 Uiso
C38_3 C 0.4309(8) 0.1668(5) 0.852(6) 0.0153 Uiso
C48_3 C 0.4067(9) 0.1682(7) 0.807(6) 0.0153 Uiso
O20_3 O 0.4822(7) 0.0116(5) 0.752(6) 0.0153 Uiso
O21_3 O 0.53376(63) 0.03230(49) 0.558(6) 0.0153 Uiso
H5_3 H 0.55905 0.00923949 0.951805 . .
H23_3 H 0.423004 0.142993 0.524542 . .
H24_3 H 0.53586 0.111588 0.584422 . .
H25_3 H 0.531365 0.0888865 0.168723 . .
H27_3 H 0.455727 0.0746905 0.0909921 . .
H29_3 H 0.465606 0.107834 0.436552 . .
H33_3 H 0.444349 0.015893 0.196215 . .
H34_3 H 0.456921 0.133404 0.634215 . .
H37_3 H 0.578587 0.166501 0.970651 . .
H41_3 H 0.37803 0.115177 0.990306 . .
H43_3 H 0.397996 0.158705 0.62412 . .
H44_3 H 0.411717 0.188097 0.795675 . .
P4_3 P 0.47673(40) 0.02345(29) 0.9717(33) 0.0153 Uiso
C32_3 C 0.4872(9) 0.0587(5) 0.900(6) 0.0153 Uiso
H31_3 H 0.505045 0.0668865 0.792353 . .
H32_3 H 0.472598 0.0589119 0.778294 . .
P1_3 P 0.52327(40) 0.97655(29) 0.0283(33) 0.0153 Uiso
O2_3 O 0.5178(7) 0.9884(5) 0.248(6) 0.0153 Uiso
C8_3 C 0.5128(9) 0.9413(5) 0.100(6) 0.0153 Uiso
Zr3_5 Zr 0.500 1.000 0.500 0.0153 Uiso
H7_3 H 0.527402 0.941088 0.221706 . .
H8_3 H 0.494955 0.933114 0.207647 . .
C1_3 C 0.4805(8) 0.8939(6) 0.542(7) 0.0153 Uiso
C2_3 C 0.4845(10) 0.9097(7) 0.751(7) 0.0153 Uiso
C3_3 C 0.5086(7) 0.9239(5) 0.861(6) 0.0153 Uiso
C4_3 C 0.5261(9) 0.9166(6) 0.807(8) 0.0153 Uiso
C5_3 C 0.5202(11) 0.8974(8) 0.615(7) 0.0153 Uiso
C6_3 C 0.4964(7) 0.8852(5) 0.492(6) 0.0153 Uiso
O1_3 O 0.5100(7) 0.9822(5) 0.788(5) 0.0153 Uiso
C7_3 C 0.4918(7) 0.8661(5) 0.261(5) 0.0153 Uiso
N1_3 N 0.4681(8) 0.8505(6) 0.131(6) 0.0153 Uiso
O3_3 O 0.5526(11) 0.9907(8) 0.969(7) 0.0153 Uiso
N2_3 N 0.5064(7) 0.8565(5) 0.260(5) 0.0153 Uiso
C9_3 C 0.5072(7) 0.8446(5) 0.054(5) 0.0153 Uiso
C11_3 C 0.5267(7) 0.8387(5) 0.072(5) 0.0153 Uiso
C12_3 C 0.5446(9) 0.8521(7) 0.255(6) 0.0153 Uiso
C13_3 C 0.5648(9) 0.8481(7) 0.307(7) 0.0153 Uiso
C14_3 C 0.5691(8) 0.8332(5) 0.148(6) 0.0153 Uiso
C24_3 C 0.5933(9) 0.8318(7) 0.193(6) 0.0153 Uiso
O22_3 O 0.46624(63) 0.96770(49) 0.442(6) 0.0153 Uiso
H1_3 H 0.46414 0.888412 0.415578 . .
H2_3 H 0.544273 0.92531 0.909008 . .
H3_3 H 0.534394 0.892166 0.563448 . .
H4_3 H 0.468635 0.911113 0.831277 . .
H6_3 H 0.642335 0.879626 0.162463 . .
H14_3 H 0.543079 0.866596 0.365785 . .
H15_3 H 0.588283 0.811903 0.204325 . .
H16_3 H 0.602004 0.841295 0.37588 . .
H17_3 H 0.576996 0.857007 0.475458 . .
H20_3 H 0.421413 0.833499 0.0293491 . .
N3_3 N 0.4864(8) 0.8314(6) 0.903(6) 0.0153 Uiso
C10_3 C 0.4668(7) 0.8362(5) 0.928(6) 0.0153 Uiso
C15_3 C 0.5534(11) 0.8223(8) 0.932(6) 0.0153 Uiso
C16_3 C 0.5300(9) 0.8233(6) 0.905(7) 0.0153 Uiso
C17_3 C 0.4395(8) 0.8197(5) 0.775(6) 0.0153 Uiso
C18_3 C 0.4370(9) 0.8128(6) 0.508(7) 0.0153 Uiso
C19_3 C 0.4189(8) 0.8202(6) 0.874(7) 0.0153 Uiso
C20_3 C 0.3934(9) 0.8029(6) 0.772(7) 0.0153 Uiso
C21_3 C 0.3897(8) 0.7947(5) 0.518(6) 0.0153 Uiso
C22_3 C 0.4107(10) 0.7959(7) 0.390(7) 0.0153 Uiso
C23_3 C 0.3655(9) 0.7873(5) 0.386(8) 0.0153 Uiso
P2_3 P 0.34142(40) 0.75715(26) 0.461(4) 0.0153 Uiso
P3_3 P 0.61543(44) 0.84668(33) 0.937(4) 0.0153 Uiso
O4_3 O 0.5994(11) 0.8437(8) 0.706(6) 0.0153 Uiso
O5_3 O 0.63437(49) 0.8348(4) 0.891(6) 0.0153 Uiso
O6_3 O 0.6330(10) 0.8771(6) 0.996(8) 0.0153 Uiso
O7_3 O 0.3275(10) 0.7464(7) 0.217(7) 0.0153 Uiso
O8_3 O 0.3505(8) 0.7414(5) 0.575(7) 0.0153 Uiso
O9_3 O 0.3235(10) 0.7563(7) 0.656(7) 0.0153 Uiso
Zr5_3 Zr 0.666667 0.833333 0.833333 0.0153 Uiso
H9_3 H 0.408311 0.785118 0.212142 . .
H10_3 H 0.37702 0.796404 0.900555 . .
H11_3 H 0.339216 0.745911 0.0849094 . .
H12_3 H 0.315329 0.765928 0.591488 . .
H13_3 H 0.453904 0.819583 0.386726 . .
H18_3 H 0.368727 0.7883 0.176342 . .
H19_3 H 0.359408 0.800766 0.441103 . .
H21_3 H 0.515839 0.812185 0.757467 . .
H22_3 H 0.558636 0.81299 0.782656 . .
C42_4 C 0.1461(6) 0.0425(7) 0.159(7) 0.0153 Uiso
C45_4 C 0.1280(5) 0.0717(6) 0.149(6) 0.0153 Uiso
C46_4 C 0.1292(7) 0.0519(7) 0.277(7) 0.0153 Uiso
C47_4 C 0.1206(5) 0.0885(7) 0.281(8) 0.0153 Uiso
P5_4 P 0.09048(26) 0.08240(30) 0.206(4) 0.0153 Uiso
O16_4 O 0.0797(7) 0.0856(7) 0.450(7) 0.0153 Uiso
O17_4 O 0.0747(5) 0.0576(6) 0.092(7) 0.0153 Uiso
O18_4 O 0.0896(7) 0.0995(7) 0.011(7) 0.0153 Uiso
H30_4 H 0.152916 0.0323455 0.279941 . .
H35_4 H 0.134099 0.108024 0.225563 . .
H36_4 H 0.121634 0.0862401 0.490325 . .
H39_4 H 0.0904824 0.103222 0.514889 . .
H40_4 H 0.118451 0.0434733 0.454525 . .
C1_4 C 0.4394(6) 0.2533(6) 0.209(7) 0.0153 Uiso
C2_4 C 0.4236(7) 0.2415(7) 0.418(7) 0.0153 Uiso
C3_4 C 0.4094(5) 0.2514(5) 0.528(6) 0.0153 Uiso
C4_4 C 0.4167(6) 0.2762(7) 0.474(8) 0.0153 Uiso
C5_4 C 0.4359(8) 0.2895(7) 0.282(7) 0.0153 Uiso
C6_4 C 0.4481(5) 0.2779(5) 0.159(6) 0.0153 Uiso
P1_4 P 0.35678(29) 0.21339(27) 0.6950(33) 0.0153 Uiso
O1_4 O 0.3511(5) 0.1945(5) 0.455(5) 0.0153 Uiso
O2_4 O 0.3449(5) 0.1961(5) 0.915(6) 0.0153 Uiso
O3_4 O 0.3426(8) 0.2286(7) 0.636(7) 0.0153 Uiso
C8_4 C 0.3920(5) 0.2382(7) 0.767(6) 0.0153 Uiso
C25_4 C 0.2272(6) 0.0801(6) 0.125(7) 0.0153 Uiso
C29_4 C 0.2307(8) 0.0439(7) 0.052(7) 0.0153 Uiso
C30_4 C 0.2185(5) 0.0555(5) 0.175(6) 0.0153 Uiso
C31_4 C 0.1994(5) 0.0410(5) 0.406(5) 0.0153 Uiso
N4_4 N 0.1838(6) 0.0491(6) 0.536(6) 0.0153 Uiso
N5_4 N 0.1898(5) 0.0168(5) 0.407(5) 0.0153 Uiso
C33_4 C 0.1779(5) 0.0041(5) 0.613(5) 0.0153 Uiso
N6_4 N 0.1647(6) 0.0117(5) 0.764(6) 0.0153 Uiso
C34_4 C 0.1695(5) 0.0361(5) 0.739(6) 0.0153 Uiso
C41_4 C 0.1530(5) 0.0469(6) 0.892(6) 0.0153 Uiso
C43_4 C 0.1535(6) 0.0680(6) 0.793(7) 0.0153 Uiso
C44_4 C 0.1362(6) 0.0762(7) 0.895(7) 0.0153 Uiso
O20_4 O 0.3217(5) 0.1373(5) 0.419(6) 0.0153 Uiso
O21_4 O 0.30104(49) 0.1681(4) 0.224(6) 0.0153 Uiso
H1_4 H 0.444922 0.242395 0.0822447 . .
H2_4 H 0.408024 0.28563 0.575675 . .
H3_4 H 0.441167 0.308895 0.230114 . .
H4_4 H 0.42222 0.224188 0.497944 . .
H5_4 H 0.324094 0.216477 0.618472 . .
H7_4 H 0.392245 0.25298 0.888372 . .
H8_4 H 0.40022 0.228508 0.874313 . .
H14_4 H 0.466738 0.34315 0.0324514 . .
H16_4 H 0.492039 0.427376 0.0425471 . .
H17_4 H 0.476327 0.386656 0.142125 . .
H24_4 H 0.221745 0.0909386 0.251089 . .
H29_4 H 0.225499 0.0244385 0.103219 . .
H37_4 H 0.166833 0.0787534 0.637318 . .
H38_4 H 0.0973961 0.0980051 0.845813 . .
H42_4 H 0.129737 0.0860505 0.766112 . .
C7_4 C 0.4672(5) 0.2924(5) 0.928(5) 0.0153 Uiso
N1_4 N 0.4828(6) 0.2843(6) 0.798(6) 0.0153 Uiso
N2_4 N 0.4768(5) 0.3166(5) 0.927(5) 0.0153 Uiso
C9_4 C 0.4887(5) 0.3293(5) 0.721(5) 0.0153 Uiso
N3_4 N 0.5019(6) 0.3217(5) 0.570(6) 0.0153 Uiso
C10_4 C 0.4971(5) 0.2973(5) 0.595(6) 0.0153 Uiso
C11_4 C 0.4946(5) 0.3547(5) 0.739(5) 0.0153 Uiso
C12_4 C 0.4812(7) 0.3592(6) 0.922(6) 0.0153 Uiso
C13_4 C 0.4852(7) 0.3834(6) 0.974(7) 0.0153 Uiso
C14_4 C 0.5001(5) 0.4026(6) 0.815(6) 0.0153 Uiso
C15_4 C 0.5110(8) 0.3978(7) 0.599(6) 0.0153 Uiso
C16_4 C 0.5100(6) 0.3734(7) 0.572(7) 0.0153 Uiso
C17_4 C 0.5136(5) 0.2865(6) 0.442(6) 0.0153 Uiso
C18_4 C 0.5205(6) 0.2909(7) 0.175(7) 0.0153 Uiso
C19_4 C 0.5131(6) 0.2654(6) 0.541(7) 0.0153 Uiso
C20_4 C 0.5304(6) 0.2572(7) 0.439(7) 0.0153 Uiso
C21_4 C 0.5386(5) 0.2617(6) 0.185(6) 0.0153 Uiso
C22_4 C 0.5374(7) 0.2815(7) 0.057(7) 0.0153 Uiso
C23_4 C 0.5460(5) 0.2449(7) 0.053(8) 0.0153 Uiso
P2_4 P 0.57618(26) 0.25094(30) 0.128(4) 0.0153 Uiso
C24_4 C 0.5015(7) 0.4282(6) 0.860(6) 0.0153 Uiso
P3_4 P 0.48665(33) 0.43542(29) 0.604(4) 0.0153 Uiso
O4_4 O 0.4896(8) 0.4224(7) 0.373(6) 0.0153 Uiso
O6_4 O 0.4562(6) 0.4226(8) 0.663(8) 0.0153 Uiso
O8_4 O 0.5919(5) 0.2758(6) 0.242(7) 0.0153 Uiso
O9_4 O 0.5770(7) 0.2339(7) 0.323(7) 0.0153 Uiso
C26_4 C 0.2430(7) 0.0919(7) 0.916(7) 0.0153 Uiso
C27_4 C 0.2572(5) 0.0820(5) 0.806(6) 0.0153 Uiso
C28_4 C 0.2499(6) 0.0572(7) 0.860(8) 0.0153 Uiso
P4_4 P 0.30988(29) 0.11995(27) 0.6384(33) 0.0153 Uiso
O10_4 O 0.3155(5) 0.1389(5) 0.879(5) 0.0153 Uiso
O12_4 O 0.3240(8) 0.1048(7) 0.698(7) 0.0153 Uiso
C32_4 C 0.2746(5) 0.0952(7) 0.567(6) 0.0153 Uiso
H6_4 H 0.453707 0.429375 0.829129 . .
H10_4 H 0.53693 0.247283 0.567222 . .
H12_4 H 0.567406 0.216068 0.258155 . .
H13_4 H 0.51375 0.300988 0.0533925 . .
H15_4 H 0.52143 0.443046 0.870992 . .
H19_4 H 0.532568 0.225309 0.10777 . .
H20_4 H 0.499834 0.25458 0.696016 . .
H21_4 H 0.521148 0.37032 0.424134 . .
H22_4 H 0.520343 0.412313 0.449322 . .
H25_4 H 0.244447 0.109145 0.835389 . .
H27_4 H 0.258643 0.0477037 0.757659 . .
H31_4 H 0.266447 0.104825 0.45902 . .
H32_4 H 0.274421 0.0803531 0.444961 . .
H33_4 H 0.31744 0.0951228 0.862882 . .
C35_4 C 0.1720(5) 0.9787(5) 0.595(5) 0.0153 Uiso
C36_4 C 0.1854(7) 0.9742(6) 0.412(6) 0.0153 Uiso
C37_4 C 0.1814(7) 0.9500(6) 0.360(7) 0.0153 Uiso
C38_4 C 0.1665(5) 0.9308(6) 0.519(6) 0.0153 Uiso
C39_4 C 0.1556(8) 0.9356(7) 0.735(6) 0.0153 Uiso
C40_4 C 0.1566(6) 0.9600(7) 0.762(7) 0.0153 Uiso
C48_4 C 0.1651(7) 0.9052(6) 0.474(6) 0.0153 Uiso
P6_4 P 0.18001(33) 0.89792(29) 0.730(4) 0.0153 Uiso
O13_4 O 0.1770(8) 0.9110(7) 0.961(6) 0.0153 Uiso
O14_4 O 0.1681(4) 0.86710(29) 0.776(6) 0.0153 Uiso
O15_4 O 0.2104(6) 0.9108(8) 0.671(8) 0.0153 Uiso
H23_4 H 0.19034 0.946677 0.191208 . .
H26_4 H 0.145519 0.963013 0.909199 . .
H28_4 H 0.146324 0.921021 0.884011 . .
H34_4 H 0.199929 0.990183 0.300882 . .
H41_4 H 0.218157 0.92952 0.656973 . .
H43_4 H 0.174628 0.905958 0.290786 . .
H44_4 H 0.145237 0.890287 0.462342 . .
C35_5 C 0.0213(5) 0.1934(7) 0.595(5) 0.0153 Uiso
C36_5 C 0.0258(6) 0.2113(9) 0.412(6) 0.0153 Uiso
C37_5 C 0.0500(6) 0.2315(9) 0.360(7) 0.0153 Uiso
C38_5 C 0.0692(6) 0.2358(8) 0.519(6) 0.0153 Uiso
C39_5 C 0.0644(7) 0.2201(11) 0.735(6) 0.0153 Uiso
C40_5 C 0.0400(7) 0.1967(9) 0.762(7) 0.0153 Uiso
C48_5 C 0.0948(6) 0.2600(9) 0.474(6) 0.0153 Uiso
P6_5 P 0.10208(29) 0.28210(44) 0.730(4) 0.0153 Uiso
O13_5 O 0.0890(7) 0.2661(11) 0.961(6) 0.0153 Uiso
O14_5 O 0.13290(29) 0.30104(49) 0.776(6) 0.0153 Uiso
O15_5 O 0.0892(8) 0.2997(10) 0.671(8) 0.0153 Uiso
H23_5 H 0.053323 0.243663 0.191208 . .
H26_5 H 0.0369869 0.182505 0.909199 . .
H28_5 H 0.0789795 0.225303 0.884011 . .
H34_5 H 0.0098169 0.209746 0.300882 . .
H41_5 H 0.0704796 0.288636 0.656973 . .
H43_5 H 0.0940423 0.26867 0.290786 . .
H44_5 H 0.109713 0.25495 0.462342 . .
C42_5 C 0.9575(7) 0.1037(9) 0.159(7) 0.0153 Uiso
C45_5 C 0.9283(6) 0.0564(8) 0.149(6) 0.0153 Uiso
C46_5 C 0.9481(7) 0.0774(10) 0.277(7) 0.0153 Uiso
C47_5 C 0.9115(7) 0.0322(9) 0.281(8) 0.0153 Uiso
P5_5 P 0.91760(30) 0.00809(40) 0.206(4) 0.0153 Uiso
O17_5 O 0.9424(6) 0.0172(8) 0.092(7) 0.0153 Uiso
H30_5 H 0.967655 0.120571 0.279941 . .
H35_5 H 0.891976 0.026075 0.225563 . .
H36_5 H 0.91376 0.0353937 0.490325 . .
H40_5 H 0.956527 0.0749781 0.454525 . .
C1_5 C 0.7467(6) 0.1862(8) 0.209(7) 0.0153 Uiso
C2_5 C 0.7585(7) 0.1822(10) 0.418(7) 0.0153 Uiso
C3_5 C 0.7486(5) 0.1581(7) 0.528(6) 0.0153 Uiso
C4_5 C 0.7238(7) 0.1406(9) 0.474(8) 0.0153 Uiso
C5_5 C 0.7105(7) 0.1465(11) 0.282(7) 0.0153 Uiso
C6_5 C 0.7221(5) 0.1703(7) 0.159(6) 0.0153 Uiso
P1_5 P 0.78661(27) 0.14340(40) 0.6950(33) 0.0153 Uiso
O1_5 O 0.8055(5) 0.1567(7) 0.455(5) 0.0153 Uiso
O2_5 O 0.8039(5) 0.1489(7) 0.915(6) 0.0153 Uiso
O3_5 O 0.7714(7) 0.1141(11) 0.636(7) 0.0153 Uiso
C8_5 C 0.7618(7) 0.1539(9) 0.767(6) 0.0153 Uiso
C25_5 C 0.9199(6) 0.1472(8) 0.125(7) 0.0153 Uiso
C29_5 C 0.9561(7) 0.1869(11) 0.052(7) 0.0153 Uiso
C30_5 C 0.9445(5) 0.1631(7) 0.175(6) 0.0153 Uiso
C31_5 C 0.9590(5) 0.1585(7) 0.406(5) 0.0153 Uiso
N4_5 N 0.9509(6) 0.1348(8) 0.536(6) 0.0153 Uiso
N5_5 N 0.9832(5) 0.1731(7) 0.407(5) 0.0153 Uiso
C33_5 C 0.9959(5) 0.1739(7) 0.613(5) 0.0153 Uiso
N6_5 N 0.9883(5) 0.1531(8) 0.764(6) 0.0153 Uiso
C34_5 C 0.9639(5) 0.1335(7) 0.739(6) 0.0153 Uiso
C41_5 C 0.9531(6) 0.1062(8) 0.892(6) 0.0153 Uiso
C43_5 C 0.9320(6) 0.0856(8) 0.793(7) 0.0153 Uiso
C44_5 C 0.9238(7) 0.0601(9) 0.895(7) 0.0153 Uiso
O20_5 O 0.8627(5) 0.1845(7) 0.419(6) 0.0153 Uiso
O21_5 O 0.8319(4) 0.13290(63) 0.224(6) 0.0153 Uiso
H1_5 H 0.757605 0.202527 0.0822447 . .
H2_5 H 0.71437 0.122394 0.575675 . .
H3_5 H 0.691105 0.132273 0.230114 . .
H4_5 H 0.775812 0.198031 0.497944 . .
H5_5 H 0.783523 0.107617 0.618472 . .
H7_5 H 0.74702 0.139265 0.888372 . .
H8_5 H 0.771492 0.171712 0.874313 . .
H14_5 H 0.65685 0.123587 0.0324514 . .
H16_5 H 0.572624 0.0646631 0.0425471 . .
H17_5 H 0.613344 0.0896702 0.142125 . .
H24_5 H 0.909061 0.130806 0.251089 . .
H29_5 H 0.975562 0.201061 0.103219 . .
H37_5 H 0.921247 0.0880794 0.637318 . .
H42_5 H 0.913949 0.0436864 0.766112 . .
C7_5 C 0.7076(5) 0.1749(7) 0.928(5) 0.0153 Uiso
N1_5 N 0.7157(6) 0.1986(8) 0.798(6) 0.0153 Uiso
N2_5 N 0.6834(5) 0.1603(7) 0.927(5) 0.0153 Uiso
C9_5 C 0.6707(5) 0.1595(7) 0.721(5) 0.0153 Uiso
N3_5 N 0.6783(5) 0.1803(8) 0.570(6) 0.0153 Uiso
C10_5 C 0.7027(5) 0.1999(7) 0.595(6) 0.0153 Uiso
C11_5 C 0.6453(5) 0.1400(7) 0.739(5) 0.0153 Uiso
C12_5 C 0.6408(6) 0.1221(9) 0.922(6) 0.0153 Uiso
C13_5 C 0.6166(6) 0.1019(9) 0.974(7) 0.0153 Uiso
C14_5 C 0.5974(6) 0.0976(8) 0.815(6) 0.0153 Uiso
C15_5 C 0.6022(7) 0.1133(11) 0.599(6) 0.0153 Uiso
C16_5 C 0.6266(7) 0.1367(9) 0.572(7) 0.0153 Uiso
C17_5 C 0.7135(6) 0.2272(8) 0.442(6) 0.0153 Uiso
C18_5 C 0.7091(7) 0.2297(9) 0.175(7) 0.0153 Uiso
C19_5 C 0.7346(6) 0.2478(8) 0.541(7) 0.0153 Uiso
C20_5 C 0.7428(7) 0.2733(9) 0.439(7) 0.0153 Uiso
C21_5 C 0.7383(6) 0.2770(8) 0.185(6) 0.0153 Uiso
C22_5 C 0.7185(7) 0.2560(10) 0.057(7) 0.0153 Uiso
C23_5 C 0.7551(7) 0.3012(9) 0.053(8) 0.0153 Uiso
P2_5 P 0.74906(30) 0.32525(40) 0.128(4) 0.0153 Uiso
C24_5 C 0.5718(6) 0.0734(9) 0.860(6) 0.0153 Uiso
P3_5 P 0.56458(29) 0.05124(44) 0.604(4) 0.0153 Uiso
O4_5 O 0.5776(7) 0.0673(11) 0.373(6) 0.0153 Uiso
O6_5 O 0.5774(8) 0.0337(10) 0.663(8) 0.0153 Uiso
O8_5 O 0.7242(6) 0.3162(8) 0.242(7) 0.0153 Uiso
O9_5 O 0.7661(7) 0.3432(10) 0.323(7) 0.0153 Uiso
C26_5 C 0.9081(7) 0.1512(10) 0.916(7) 0.0153 Uiso
C27_5 C 0.9180(5) 0.1753(7) 0.806(6) 0.0153 Uiso
C28_5 C 0.9428(7) 0.1928(9) 0.860(8) 0.0153 Uiso
P4_5 P 0.88005(27) 0.18994(40) 0.6384(33) 0.0153 Uiso
O10_5 O 0.8611(5) 0.1767(7) 0.879(5) 0.0153 Uiso
O12_5 O 0.8952(7) 0.2193(11) 0.698(7) 0.0153 Uiso
C32_5 C 0.9048(7) 0.1795(9) 0.567(6) 0.0153 Uiso
H6_5 H 0.570625 0.0243321 0.829129 . .
H10_5 H 0.752717 0.289647 0.567222 . .
H12_5 H 0.783932 0.351338 0.258155 . .
H13_5 H 0.699012 0.212763 0.0533925 . .
H15_5 H 0.556954 0.0783837 0.870992 . .
H19_5 H 0.774691 0.307258 0.10777 . .
H20_5 H 0.74542 0.245254 0.696016 . .
H21_5 H 0.62968 0.150828 0.424134 . .
H22_5 H 0.587687 0.10803 0.449322 . .
H25_5 H 0.890855 0.135302 0.835389 . .
H27_5 H 0.952296 0.210939 0.757659 . .
H31_5 H 0.895175 0.161622 0.45902 . .
H32_5 H 0.919647 0.194068 0.444961 . .
H33_5 H 0.904877 0.222318 0.862882 . .
C42_6 C 0.8963(9) 0.8539(6) 0.159(7) 0.0153 Uiso
C45_6 C 0.9436(8) 0.8720(5) 0.149(6) 0.0153 Uiso
C46_6 C 0.9226(10) 0.8708(7) 0.277(7) 0.0153 Uiso
C47_6 C 0.9678(9) 0.8794(5) 0.281(8) 0.0153 Uiso
P5_6 P 0.99191(40) 0.90952(26) 0.206(4) 0.0153 Uiso
O17_6 O 0.9828(8) 0.9253(5) 0.092(7) 0.0153 Uiso
H30_6 H 0.879429 0.847084 0.279941 . .
H35_6 H 0.973925 0.865901 0.225563 . .
H36_6 H 0.964606 0.878366 0.490325 . .
H40_6 H 0.925022 0.881549 0.454525 . .
C1_6 C 0.8138(8) 0.5606(6) 0.209(7) 0.0153 Uiso
C2_6 C 0.8178(10) 0.5764(7) 0.418(7) 0.0153 Uiso
C3_6 C 0.8419(7) 0.5906(5) 0.528(6) 0.0153 Uiso
C4_6 C 0.8594(9) 0.5833(6) 0.474(8) 0.0153 Uiso
C5_6 C 0.8535(11) 0.5641(8) 0.282(7) 0.0153 Uiso
C6_6 C 0.8297(7) 0.5519(5) 0.159(6) 0.0153 Uiso
P1_6 P 0.85660(40) 0.64322(29) 0.6950(33) 0.0153 Uiso
O1_6 O 0.8433(7) 0.6489(5) 0.455(5) 0.0153 Uiso
O2_6 O 0.8511(7) 0.6551(5) 0.915(6) 0.0153 Uiso
O3_6 O 0.8859(11) 0.6574(8) 0.636(7) 0.0153 Uiso
C8_6 C 0.8461(9) 0.6080(5) 0.767(6) 0.0153 Uiso
C25_6 C 0.8528(8) 0.7728(6) 0.125(7) 0.0153 Uiso
C29_6 C 0.8131(11) 0.7693(8) 0.052(7) 0.0153 Uiso
C30_6 C 0.8369(7) 0.7815(5) 0.175(6) 0.0153 Uiso
C31_6 C 0.8415(7) 0.8006(5) 0.406(5) 0.0153 Uiso
N4_6 N 0.8652(8) 0.8162(6) 0.536(6) 0.0153 Uiso
N5_6 N 0.8269(7) 0.8102(5) 0.407(5) 0.0153 Uiso
C33_6 C 0.8261(7) 0.8221(5) 0.613(5) 0.0153 Uiso
N6_6 N 0.8469(8) 0.8353(6) 0.764(6) 0.0153 Uiso
C34_6 C 0.8665(7) 0.8305(5) 0.739(6) 0.0153 Uiso
C35_6 C 0.8066(7) 0.8280(5) 0.595(5) 0.0153 Uiso
C36_6 C 0.7887(9) 0.8146(7) 0.412(6) 0.0153 Uiso
C37_6 C 0.7685(9) 0.8186(7) 0.360(7) 0.0153 Uiso
C38_6 C 0.7642(8) 0.8335(5) 0.519(6) 0.0153 Uiso
C39_6 C 0.7799(11) 0.8444(8) 0.735(6) 0.0153 Uiso
C40_6 C 0.8033(9) 0.8434(6) 0.762(7) 0.0153 Uiso
C41_6 C 0.8938(8) 0.8470(5) 0.892(6) 0.0153 Uiso
C43_6 C 0.9144(8) 0.8465(6) 0.793(7) 0.0153 Uiso
C44_6 C 0.9399(9) 0.8638(6) 0.895(7) 0.0153 Uiso
C48_6 C 0.7400(9) 0.8349(7) 0.474(6) 0.0153 Uiso
P6_6 P 0.71790(44) 0.81999(33) 0.730(4) 0.0153 Uiso
O13_6 O 0.7339(11) 0.8230(8) 0.961(6) 0.0153 Uiso
O14_6 O 0.69896(49) 0.8319(4) 0.776(6) 0.0153 Uiso
O15_6 O 0.7003(10) 0.7896(6) 0.671(8) 0.0153 Uiso
O20_6 O 0.8155(7) 0.6783(5) 0.419(6) 0.0153 Uiso
O21_6 O 0.86710(63) 0.69896(49) 0.224(6) 0.0153 Uiso
H1_6 H 0.797473 0.555078 0.0822447 . .
H2_6 H 0.877606 0.591976 0.575675 . .
H3_6 H 0.867727 0.558833 0.230114 . .
H4_6 H 0.801969 0.57778 0.497944 . .
H5_6 H 0.892383 0.675906 0.618472 . .
H7_6 H 0.860735 0.607755 0.888372 . .
H8_6 H 0.828288 0.59978 0.874313 . .
H14_6 H 0.876413 0.533262 0.0324514 . .
H16_6 H 0.935337 0.507961 0.0425471 . .
H17_6 H 0.91033 0.523673 0.142125 . .
H23_6 H 0.756337 0.80966 0.191208 . .
H24_6 H 0.869194 0.778255 0.251089 . .
H26_6 H 0.817495 0.854481 0.909199 . .
H28_6 H 0.774697 0.853676 0.884011 . .
H29_6 H 0.798939 0.774501 0.103219 . .
H34_6 H 0.790254 0.800071 0.300882 . .
H37_6 H 0.911921 0.833167 0.637318 . .
H41_6 H 0.711364 0.781843 0.656973 . .
H42_6 H 0.956314 0.870263 0.766112 . .
H43_6 H 0.73133 0.825372 0.290786 . .
H44_6 H 0.74505 0.854763 0.462342 . .
C7_6 C 0.8251(7) 0.5328(5) 0.928(5) 0.0153 Uiso
N1_6 N 0.8014(8) 0.5172(6) 0.798(6) 0.0153 Uiso
N2_6 N 0.8397(7) 0.5232(5) 0.927(5) 0.0153 Uiso
C9_6 C 0.8405(7) 0.5113(5) 0.721(5) 0.0153 Uiso
N3_6 N 0.8197(8) 0.4981(6) 0.570(6) 0.0153 Uiso
C10_6 C 0.8001(7) 0.5029(5) 0.595(6) 0.0153 Uiso
C11_6 C 0.8600(7) 0.5054(5) 0.739(5) 0.0153 Uiso
C12_6 C 0.8779(9) 0.5188(7) 0.922(6) 0.0153 Uiso
C13_6 C 0.8981(9) 0.5148(7) 0.974(7) 0.0153 Uiso
C14_6 C 0.9024(8) 0.4999(5) 0.815(6) 0.0153 Uiso
C15_6 C 0.8867(11) 0.4890(8) 0.599(6) 0.0153 Uiso
C16_6 C 0.8633(9) 0.4900(6) 0.572(7) 0.0153 Uiso
C17_6 C 0.7728(8) 0.4864(5) 0.442(6) 0.0153 Uiso
C18_6 C 0.7703(9) 0.4795(6) 0.175(7) 0.0153 Uiso
C19_6 C 0.7522(8) 0.4869(6) 0.541(7) 0.0153 Uiso
C20_6 C 0.7267(9) 0.4696(6) 0.439(7) 0.0153 Uiso
C21_6 C 0.7230(8) 0.4614(5) 0.185(6) 0.0153 Uiso
C22_6 C 0.7440(10) 0.4626(7) 0.057(7) 0.0153 Uiso
C23_6 C 0.6988(9) 0.4540(5) 0.053(8) 0.0153 Uiso
P2_6 P 0.67475(40) 0.42382(26) 0.128(4) 0.0153 Uiso
C24_6 C 0.9266(9) 0.4985(7) 0.860(6) 0.0153 Uiso
P3_6 P 0.94876(44) 0.51335(33) 0.604(4) 0.0153 Uiso
O4_6 O 0.9327(11) 0.5104(8) 0.373(6) 0.0153 Uiso
O6_6 O 0.9663(10) 0.5438(6) 0.663(8) 0.0153 Uiso
O8_6 O 0.6838(8) 0.4081(5) 0.242(7) 0.0153 Uiso
O9_6 O 0.6568(10) 0.4230(7) 0.323(7) 0.0153 Uiso
C26_6 C 0.8488(10) 0.7570(7) 0.916(7) 0.0153 Uiso
C27_6 C 0.8247(7) 0.7428(5) 0.806(6) 0.0153 Uiso
C28_6 C 0.8072(9) 0.7501(6) 0.860(8) 0.0153 Uiso
P4_6 P 0.81006(40) 0.69012(29) 0.6384(33) 0.0153 Uiso
O10_6 O 0.8233(7) 0.6845(5) 0.879(5) 0.0153 Uiso
O12_6 O 0.7807(11) 0.6760(8) 0.698(7) 0.0153 Uiso
C32_6 C 0.8205(9) 0.7254(5) 0.567(6) 0.0153 Uiso
H6_6 H 0.975668 0.546293 0.829129 . .
H10_6 H 0.710353 0.46307 0.567222 . .
H12_6 H 0.648662 0.432594 0.258155 . .
H13_6 H 0.787237 0.48625 0.0533925 . .
H15_6 H 0.921616 0.47857 0.870992 . .
H19_6 H 0.692742 0.467432 0.10777 . .
H20_6 H 0.754746 0.500166 0.696016 . .
H21_6 H 0.849172 0.478852 0.424134 . .
H22_6 H 0.89197 0.479657 0.449322 . .
H25_6 H 0.864698 0.755553 0.835389 . .
H27_6 H 0.789061 0.741357 0.757659 . .
H31_6 H 0.838378 0.733553 0.45902 . .
H32_6 H 0.805932 0.725579 0.444961 . .
H33_6 H 0.777682 0.68256 0.862882 . .
C11_7 C 0.8280(5) 0.0213(5) 0.405(5) 0.0153 Uiso
C12_7 C 0.8146(7) 0.0258(6) 0.588(6) 0.0153 Uiso
C13_7 C 0.8186(7) 0.0500(6) 0.640(7) 0.0153 Uiso
C14_7 C 0.8335(5) 0.0692(6) 0.481(6) 0.0153 Uiso
C15_7 C 0.8444(8) 0.0644(7) 0.265(6) 0.0153 Uiso
C16_7 C 0.8434(6) 0.0400(7) 0.238(7) 0.0153 Uiso
C24_7 C 0.8349(7) 0.0948(6) 0.526(6) 0.0153 Uiso
P3_7 P 0.81999(33) 0.10208(29) 0.270(4) 0.0153 Uiso
O4_7 O 0.8230(8) 0.0890(7) 0.039(6) 0.0153 Uiso
O6_7 O 0.7896(6) 0.0892(8) 0.329(8) 0.0153 Uiso
H6_7 H 0.78704 0.0960415 0.495796 . .
H14_7 H 0.800071 0.0098169 0.699118 . .
H15_7 H 0.854763 0.109713 0.537658 . .
H16_7 H 0.825372 0.0940423 0.709214 . .
H17_7 H 0.80966 0.053323 0.808792 . .
H21_7 H 0.854481 0.0369869 0.0908006 . .
H22_7 H 0.853676 0.0789795 0.115989 . .
C2_7 C 0.7570(7) 0.9081(7) 0.084(7) 0.0153 Uiso
C3_7 C 0.7428(5) 0.9180(5) 0.194(6) 0.0153 Uiso
C4_7 C 0.7501(6) 0.9428(7) 0.140(8) 0.0153 Uiso
P1_7 P 0.69012(29) 0.88005(27) 0.3616(33) 0.0153 Uiso
O1_7 O 0.6845(5) 0.8611(5) 0.121(5) 0.0153 Uiso
O2_7 O 0.6783(5) 0.8627(5) 0.581(6) 0.0153 Uiso
O3_7 O 0.6760(8) 0.8952(7) 0.302(7) 0.0153 Uiso
C8_7 C 0.7254(5) 0.9048(7) 0.433(6) 0.0153 Uiso
C31_7 C 0.5328(5) 0.7076(5) 0.072(5) 0.0153 Uiso
N4_7 N 0.5172(6) 0.7157(6) 0.202(6) 0.0153 Uiso
N5_7 N 0.5232(5) 0.6834(5) 0.073(5) 0.0153 Uiso
C33_7 C 0.5113(5) 0.6707(5) 0.279(5) 0.0153 Uiso
N6_7 N 0.4981(6) 0.6783(5) 0.430(6) 0.0153 Uiso
C34_7 C 0.5029(5) 0.7027(5) 0.405(6) 0.0153 Uiso
C35_7 C 0.5054(5) 0.6453(5) 0.261(5) 0.0153 Uiso
C36_7 C 0.5188(7) 0.6408(6) 0.078(6) 0.0153 Uiso
C37_7 C 0.5148(7) 0.6166(6) 0.026(7) 0.0153 Uiso
C38_7 C 0.4999(5) 0.5974(6) 0.185(6) 0.0153 Uiso
C39_7 C 0.4890(8) 0.6022(7) 0.401(6) 0.0153 Uiso
C40_7 C 0.4900(6) 0.6266(7) 0.428(7) 0.0153 Uiso
C41_7 C 0.4864(5) 0.7135(6) 0.558(6) 0.0153 Uiso
C42_7 C 0.4795(6) 0.7091(7) 0.825(7) 0.0153 Uiso
C43_7 C 0.4869(6) 0.7346(6) 0.459(7) 0.0153 Uiso
C44_7 C 0.4696(6) 0.7428(7) 0.561(7) 0.0153 Uiso
C45_7 C 0.4614(5) 0.7383(6) 0.815(6) 0.0153 Uiso
C46_7 C 0.4626(7) 0.7185(7) 0.943(7) 0.0153 Uiso
C47_7 C 0.4540(5) 0.7551(7) 0.947(8) 0.0153 Uiso
P5_7 P 0.42382(26) 0.74906(30) 0.872(4) 0.0153 Uiso
C48_7 C 0.4985(7) 0.5718(6) 0.140(6) 0.0153 Uiso
P6_7 P 0.51335(33) 0.56458(29) 0.396(4) 0.0153 Uiso
O13_7 O 0.5104(8) 0.5776(7) 0.627(6) 0.0153 Uiso
O15_7 O 0.5438(6) 0.5774(8) 0.337(8) 0.0153 Uiso
O17_7 O 0.4081(5) 0.7242(6) 0.758(7) 0.0153 Uiso
O18_5 O 0.4230(7) 0.7661(7) 0.677(7) 0.0153 Uiso
O20_7 O 0.6551(5) 0.8039(5) 0.085(6) 0.0153 Uiso
H2_7 H 0.741357 0.952296 0.242341 . .
H4_7 H 0.755553 0.890855 0.164611 . .
H5_7 H 0.657427 0.883143 0.285138 . .
H7_7 H 0.725579 0.919647 0.555039 . .
H8_7 H 0.733553 0.895175 0.54098 . .
H26_7 H 0.478852 0.62968 0.575866 . .
H28_7 H 0.479657 0.587687 0.550678 . .
H30_7 H 0.48625 0.699012 0.946608 . .
H35_7 H 0.467432 0.774691 0.89223 . .
H37_7 H 0.500166 0.74542 0.303984 . .
H38_5 H 0.430729 0.764672 0.51248 . .
H41_7 H 0.55149 0.596187 0.32364 . .
H42_7 H 0.46307 0.752717 0.432778 . .
H44_7 H 0.47857 0.556954 0.129008 . .
C1_7 C 0.7728(6) 0.9199(6) 0.875(7) 0.0153 Uiso
C5_7 C 0.7693(8) 0.9561(7) 0.948(7) 0.0153 Uiso
C6_7 C 0.7815(5) 0.9445(5) 0.825(6) 0.0153 Uiso
C7_7 C 0.8006(5) 0.9590(5) 0.594(5) 0.0153 Uiso
N1_7 N 0.8162(6) 0.9509(6) 0.464(6) 0.0153 Uiso
N2_7 N 0.8102(5) 0.9832(5) 0.593(5) 0.0153 Uiso
C9_7 C 0.8221(5) 0.9959(5) 0.387(5) 0.0153 Uiso
N3_7 N 0.8353(6) 0.9883(5) 0.236(6) 0.0153 Uiso
C10_7 C 0.8305(5) 0.9639(5) 0.261(6) 0.0153 Uiso
C17_7 C 0.8470(5) 0.9531(6) 0.108(6) 0.0153 Uiso
C19_7 C 0.8465(6) 0.9320(6) 0.207(7) 0.0153 Uiso
C20_7 C 0.8638(6) 0.9238(7) 0.105(7) 0.0153 Uiso
C25_7 C 0.5606(6) 0.7467(6) 0.791(7) 0.0153 Uiso
C26_7 C 0.5764(7) 0.7585(7) 0.582(7) 0.0153 Uiso
C27_7 C 0.5906(5) 0.7486(5) 0.472(6) 0.0153 Uiso
C28_7 C 0.5833(6) 0.7238(7) 0.526(8) 0.0153 Uiso
C29_7 C 0.5641(8) 0.7105(7) 0.718(7) 0.0153 Uiso
C30_7 C 0.5519(5) 0.7221(5) 0.841(6) 0.0153 Uiso
P4_7 P 0.64322(29) 0.78661(27) 0.3050(33) 0.0153 Uiso
O10_7 O 0.6489(5) 0.8055(5) 0.545(5) 0.0153 Uiso
O12_7 O 0.6574(8) 0.7714(7) 0.364(7) 0.0153 Uiso
C32_7 C 0.6080(5) 0.7618(7) 0.233(6) 0.0153 Uiso
H1_7 H 0.778255 0.909061 0.748911 . .
H3_7 H 0.774501 0.975562 0.896781 . .
H10_7 H 0.870263 0.913949 0.233888 . .
H20_7 H 0.833167 0.921247 0.362682 . .
H23_7 H 0.523673 0.613344 0.857875 . .
H24_7 H 0.555078 0.757605 0.917755 . .
H25_7 H 0.57778 0.775812 0.502056 . .
H27_7 H 0.591976 0.71437 0.424325 . .
H29_7 H 0.558833 0.691105 0.769886 . .
H31_7 H 0.59978 0.771492 0.125687 . .
H32_7 H 0.607755 0.74702 0.111628 . .
H33_7 H 0.650774 0.761789 0.529548 . .
H34_7 H 0.533262 0.65685 0.967549 . .
H43_7 H 0.507961 0.572624 0.957453 . .
C18_7 C 0.8539(6) 0.9575(7) 0.841(7) 0.0153 Uiso
C21_7 C 0.8720(5) 0.9283(6) 0.851(6) 0.0153 Uiso
C22_7 C 0.8708(7) 0.9481(7) 0.723(7) 0.0153 Uiso
C23_7 C 0.8794(5) 0.9115(7) 0.719(8) 0.0153 Uiso
P2_7 P 0.90952(26) 0.91760(30) 0.794(4) 0.0153 Uiso
O7_4 O 0.9203(7) 0.9144(7) 0.550(7) 0.0153 Uiso
O8_7 O 0.9253(5) 0.9424(6) 0.908(7) 0.0153 Uiso
O9_7 O 0.9104(7) 0.9005(7) 0.989(7) 0.0153 Uiso
H9_4 H 0.881549 0.956527 0.545475 . .
H11_4 H 0.920755 0.926638 0.418243 . .
H12_7 H 0.900739 0.882735 0.924821 . .
H13_7 H 0.847084 0.967655 0.720059 . .
H18_4 H 0.878366 0.91376 0.509675 . .
H19_7 H 0.865901 0.891976 0.774437 . .
C2_8 C 0.0919(7) 0.8488(10) 0.084(7) 0.0153 Uiso
C3_8 C 0.0820(5) 0.8247(7) 0.194(6) 0.0153 Uiso
C4_8 C 0.0572(7) 0.8072(9) 0.140(8) 0.0153 Uiso
P1_8 P 0.11995(27) 0.81006(40) 0.3616(33) 0.0153 Uiso
O1_8 O 0.1389(5) 0.8233(7) 0.121(5) 0.0153 Uiso
O2_8 O 0.1373(5) 0.8155(7) 0.581(6) 0.0153 Uiso
O3_8 O 0.1048(7) 0.7807(11) 0.302(7) 0.0153 Uiso
C8_8 C 0.0952(7) 0.8205(9) 0.433(6) 0.0153 Uiso
C31_8 C 0.2924(5) 0.8251(7) 0.072(5) 0.0153 Uiso
N4_8 N 0.2843(6) 0.8014(8) 0.202(6) 0.0153 Uiso
N5_8 N 0.3166(5) 0.8397(7) 0.073(5) 0.0153 Uiso
C33_8 C 0.3293(5) 0.8405(7) 0.279(5) 0.0153 Uiso
N6_8 N 0.3217(5) 0.8197(8) 0.430(6) 0.0153 Uiso
C34_8 C 0.2973(5) 0.8001(7) 0.405(6) 0.0153 Uiso
C35_8 C 0.3547(5) 0.8600(7) 0.261(5) 0.0153 Uiso
C36_8 C 0.3592(6) 0.8779(9) 0.078(6) 0.0153 Uiso
C37_8 C 0.3834(6) 0.8981(9) 0.026(7) 0.0153 Uiso
C38_8 C 0.4026(6) 0.9024(8) 0.185(6) 0.0153 Uiso
C39_8 C 0.3978(7) 0.8867(11) 0.401(6) 0.0153 Uiso
C40_8 C 0.3734(7) 0.8633(9) 0.428(7) 0.0153 Uiso
C41_8 C 0.2865(6) 0.7728(8) 0.558(6) 0.0153 Uiso
C42_8 C 0.2909(7) 0.7703(9) 0.825(7) 0.0153 Uiso
C43_8 C 0.2654(6) 0.7522(8) 0.459(7) 0.0153 Uiso
C44_8 C 0.2572(7) 0.7267(9) 0.561(7) 0.0153 Uiso
C45_8 C 0.2617(6) 0.7230(8) 0.815(6) 0.0153 Uiso
C46_8 C 0.2815(7) 0.7440(10) 0.943(7) 0.0153 Uiso
C47_8 C 0.2449(7) 0.6988(9) 0.947(8) 0.0153 Uiso
P5_8 P 0.25094(30) 0.67475(40) 0.872(4) 0.0153 Uiso
C48_8 C 0.4282(6) 0.9266(9) 0.140(6) 0.0153 Uiso
P6_8 P 0.43542(29) 0.94876(44) 0.396(4) 0.0153 Uiso
O13_8 O 0.4224(7) 0.9327(11) 0.627(6) 0.0153 Uiso
O15_8 O 0.4226(8) 0.9663(10) 0.337(8) 0.0153 Uiso
O17_8 O 0.2758(6) 0.6838(8) 0.758(7) 0.0153 Uiso
O18_6 O 0.2339(7) 0.6568(10) 0.677(7) 0.0153 Uiso
O20_8 O 0.1961(5) 0.8511(7) 0.085(6) 0.0153 Uiso
H2_8 H 0.0477037 0.789061 0.242341 . .
H4_8 H 0.109145 0.864698 0.164611 . .
H5_8 H 0.116857 0.774284 0.285138 . .
H7_8 H 0.0803531 0.805932 0.555039 . .
H8_8 H 0.104825 0.838378 0.54098 . .
H26_8 H 0.37032 0.849172 0.575866 . .
H28_8 H 0.412313 0.89197 0.550678 . .
H30_8 H 0.300988 0.787237 0.946608 . .
H35_8 H 0.225309 0.692742 0.89223 . .
H37_8 H 0.25458 0.754746 0.303984 . .
H38_6 H 0.235328 0.666058 0.51248 . .
H41_8 H 0.403813 0.955303 0.32364 . .
H42_8 H 0.247283 0.710353 0.432778 . .
H44_8 H 0.443046 0.921616 0.129008 . .
C1_8 C 0.0801(6) 0.8528(8) 0.875(7) 0.0153 Uiso
C5_8 C 0.0439(7) 0.8131(11) 0.948(7) 0.0153 Uiso
C6_8 C 0.0555(5) 0.8369(7) 0.825(6) 0.0153 Uiso
C7_8 C 0.0410(5) 0.8415(7) 0.594(5) 0.0153 Uiso
N1_8 N 0.0491(6) 0.8652(8) 0.464(6) 0.0153 Uiso
N2_8 N 0.0168(5) 0.8269(7) 0.593(5) 0.0153 Uiso
C9_8 C 0.0041(5) 0.8261(7) 0.387(5) 0.0153 Uiso
N3_8 N 0.0117(5) 0.8469(8) 0.236(6) 0.0153 Uiso
C10_8 C 0.0361(5) 0.8665(7) 0.261(6) 0.0153 Uiso
C17_8 C 0.0469(6) 0.8938(8) 0.108(6) 0.0153 Uiso
C19_8 C 0.0680(6) 0.9144(8) 0.207(7) 0.0153 Uiso
C20_8 C 0.0762(7) 0.9399(9) 0.105(7) 0.0153 Uiso
C25_8 C 0.2533(6) 0.8138(8) 0.791(7) 0.0153 Uiso
C26_8 C 0.2415(7) 0.8178(10) 0.582(7) 0.0153 Uiso
C27_8 C 0.2514(5) 0.8419(7) 0.472(6) 0.0153 Uiso
C28_8 C 0.2762(7) 0.8594(9) 0.526(8) 0.0153 Uiso
C29_8 C 0.2895(7) 0.8535(11) 0.718(7) 0.0153 Uiso
C30_8 C 0.2779(5) 0.8297(7) 0.841(6) 0.0153 Uiso
P4_8 P 0.21339(27) 0.85660(40) 0.3050(33) 0.0153 Uiso
O10_8 O 0.1945(5) 0.8433(7) 0.545(5) 0.0153 Uiso
O12_8 O 0.2286(7) 0.8859(11) 0.364(7) 0.0153 Uiso
C32_8 C 0.2382(7) 0.8461(9) 0.233(6) 0.0153 Uiso
H1_8 H 0.0909386 0.869194 0.748911 . .
H3_8 H 0.0244385 0.798939 0.896781 . .
H10_8 H 0.0860505 0.956314 0.233888 . .
H20_8 H 0.0787534 0.911921 0.362682 . .
H23_8 H 0.386656 0.91033 0.857875 . .
H24_8 H 0.242395 0.797473 0.917755 . .
H25_8 H 0.224188 0.801969 0.502056 . .
H27_8 H 0.28563 0.877606 0.424325 . .
H29_8 H 0.308895 0.867727 0.769886 . .
H31_8 H 0.228508 0.828288 0.125687 . .
H32_8 H 0.25298 0.860735 0.111628 . .
H33_8 H 0.238211 0.888984 0.529548 . .
H34_8 H 0.34315 0.876413 0.967549 . .
H43_8 H 0.427376 0.935337 0.957453 . .
C18_8 C 0.0425(7) 0.8963(9) 0.841(7) 0.0153 Uiso
C21_8 C 0.0717(6) 0.9436(8) 0.851(6) 0.0153 Uiso
C22_8 C 0.0519(7) 0.9226(10) 0.723(7) 0.0153 Uiso
C23_8 C 0.0885(7) 0.9678(9) 0.719(8) 0.0153 Uiso
P2_8 P 0.08240(30) 0.99191(40) 0.794(4) 0.0153 Uiso
O8_8 O 0.0576(6) 0.9828(8) 0.908(7) 0.0153 Uiso
H9_5 H 0.0434733 0.925022 0.545475 . .
H11_5 H 0.073362 0.994117 0.418243 . .
H13_8 H 0.0323455 0.879429 0.720059 . .
H18_5 H 0.0862401 0.964606 0.509675 . .
H19_8 H 0.108024 0.973925 0.774437 . .
C11_8 C 0.9787(5) 0.8066(7) 0.405(5) 0.0153 Uiso
C12_8 C 0.9742(6) 0.7887(9) 0.588(6) 0.0153 Uiso
C13_8 C 0.9500(6) 0.7685(9) 0.640(7) 0.0153 Uiso
C14_8 C 0.9308(6) 0.7642(8) 0.481(6) 0.0153 Uiso
C15_8 C 0.9356(7) 0.7799(11) 0.265(6) 0.0153 Uiso
C16_8 C 0.9600(7) 0.8033(9) 0.238(7) 0.0153 Uiso
C24_8 C 0.9052(6) 0.7400(9) 0.526(6) 0.0153 Uiso
P3_8 P 0.89792(29) 0.71790(44) 0.270(4) 0.0153 Uiso
O4_8 O 0.9110(7) 0.7339(11) 0.039(6) 0.0153 Uiso
O6_8 O 0.9108(8) 0.7003(10) 0.329(8) 0.0153 Uiso
H6_8 H 0.903958 0.690999 0.495796 . .
H14_8 H 0.990183 0.790254 0.699118 . .
H15_8 H 0.890287 0.74505 0.537658 . .
H16_8 H 0.905958 0.73133 0.709214 . .
H17_8 H 0.946677 0.756337 0.808792 . .
H21_8 H 0.963013 0.817495 0.0908006 . .
H22_8 H 0.921021 0.774697 0.115989 . .
C2_9 C 0.1512(10) 0.2430(7) 0.084(7) 0.0153 Uiso
C3_9 C 0.1753(7) 0.2572(5) 0.194(6) 0.0153 Uiso
C4_9 C 0.1928(9) 0.2499(6) 0.140(8) 0.0153 Uiso
P1_9 P 0.18994(40) 0.30988(29) 0.3616(33) 0.0153 Uiso
O1_9 O 0.1767(7) 0.3155(5) 0.121(5) 0.0153 Uiso
O2_9 O 0.1845(7) 0.3217(5) 0.581(6) 0.0153 Uiso
O3_9 O 0.2193(11) 0.3240(8) 0.302(7) 0.0153 Uiso
C8_9 C 0.1795(9) 0.2746(5) 0.433(6) 0.0153 Uiso
C31_9 C 0.1749(7) 0.4672(5) 0.072(5) 0.0153 Uiso
N4_9 N 0.1986(8) 0.4828(6) 0.202(6) 0.0153 Uiso
N5_9 N 0.1603(7) 0.4768(5) 0.073(5) 0.0153 Uiso
C33_9 C 0.1595(7) 0.4887(5) 0.279(5) 0.0153 Uiso
N6_9 N 0.1803(8) 0.5019(6) 0.430(6) 0.0153 Uiso
C34_9 C 0.1999(7) 0.4971(5) 0.405(6) 0.0153 Uiso
C35_9 C 0.1400(7) 0.4946(5) 0.261(5) 0.0153 Uiso
C36_9 C 0.1221(9) 0.4812(7) 0.078(6) 0.0153 Uiso
C37_9 C 0.1019(9) 0.4852(7) 0.026(7) 0.0153 Uiso
C38_9 C 0.0976(8) 0.5001(5) 0.185(6) 0.0153 Uiso
C39_9 C 0.1133(11) 0.5110(8) 0.401(6) 0.0153 Uiso
C40_9 C 0.1367(9) 0.5100(6) 0.428(7) 0.0153 Uiso
C41_9 C 0.2272(8) 0.5136(5) 0.558(6) 0.0153 Uiso
C42_9 C 0.2297(9) 0.5205(6) 0.825(7) 0.0153 Uiso
C43_9 C 0.2478(8) 0.5131(6) 0.459(7) 0.0153 Uiso
C44_9 C 0.2733(9) 0.5304(6) 0.561(7) 0.0153 Uiso
C45_9 C 0.2770(8) 0.5386(5) 0.815(6) 0.0153 Uiso
C46_9 C 0.2560(10) 0.5374(7) 0.943(7) 0.0153 Uiso
C47_9 C 0.3012(9) 0.5460(5) 0.947(8) 0.0153 Uiso
P5_9 P 0.32525(40) 0.57618(26) 0.872(4) 0.0153 Uiso
C48_9 C 0.0734(9) 0.5015(7) 0.140(6) 0.0153 Uiso
P6_9 P 0.05124(44) 0.48665(33) 0.396(4) 0.0153 Uiso
O13_9 O 0.0673(11) 0.4896(8) 0.627(6) 0.0153 Uiso
O15_9 O 0.0337(10) 0.4562(6) 0.337(8) 0.0153 Uiso
O17_9 O 0.3162(8) 0.5919(5) 0.758(7) 0.0153 Uiso
O18_7 O 0.3432(10) 0.5770(7) 0.677(7) 0.0153 Uiso
O20_9 O 0.1489(7) 0.3449(5) 0.085(6) 0.0153 Uiso
H2_9 H 0.210939 0.258643 0.242341 . .
H4_9 H 0.135302 0.244447 0.164611 . .
H5_9 H 0.225716 0.342573 0.285138 . .
H7_9 H 0.194068 0.274421 0.555039 . .
H8_9 H 0.161622 0.266447 0.54098 . .
H26_9 H 0.150828 0.521148 0.575866 . .
H28_9 H 0.10803 0.520343 0.550678 . .
H30_9 H 0.212763 0.51375 0.946608 . .
H35_9 H 0.307258 0.532568 0.89223 . .
H37_9 H 0.245254 0.499834 0.303984 . .
H38_7 H 0.333942 0.569271 0.51248 . .
H41_9 H 0.0446969 0.44851 0.32364 . .
H42_9 H 0.289647 0.53693 0.432778 . .
H44_9 H 0.0783837 0.52143 0.129008 . .
C1_9 C 0.1472(8) 0.2272(6) 0.875(7) 0.0153 Uiso
C5_9 C 0.1869(11) 0.2307(8) 0.948(7) 0.0153 Uiso
C6_9 C 0.1631(7) 0.2185(5) 0.825(6) 0.0153 Uiso
C7_9 C 0.1585(7) 0.1994(5) 0.594(5) 0.0153 Uiso
N1_9 N 0.1348(8) 0.1838(6) 0.464(6) 0.0153 Uiso
N2_9 N 0.1731(7) 0.1898(5) 0.593(5) 0.0153 Uiso
C9_9 C 0.1739(7) 0.1779(5) 0.387(5) 0.0153 Uiso
N3_9 N 0.1531(8) 0.1647(6) 0.236(6) 0.0153 Uiso
C10_9 C 0.1335(7) 0.1695(5) 0.261(6) 0.0153 Uiso
C11_9 C 0.1934(7) 0.1720(5) 0.405(5) 0.0153 Uiso
C12_9 C 0.2113(9) 0.1854(7) 0.588(6) 0.0153 Uiso
C13_9 C 0.2315(9) 0.1814(7) 0.640(7) 0.0153 Uiso
C14_9 C 0.2358(8) 0.1665(5) 0.481(6) 0.0153 Uiso
C15_9 C 0.2201(11) 0.1556(8) 0.265(6) 0.0153 Uiso
C16_9 C 0.1967(9) 0.1566(6) 0.238(7) 0.0153 Uiso
C17_9 C 0.1062(8) 0.1530(5) 0.108(6) 0.0153 Uiso
C19_9 C 0.0856(8) 0.1535(6) 0.207(7) 0.0153 Uiso
C20_9 C 0.0601(9) 0.1362(6) 0.105(7) 0.0153 Uiso
C24_9 C 0.2600(9) 0.1651(7) 0.526(6) 0.0153 Uiso
P3_9 P 0.28210(44) 0.18001(33) 0.270(4) 0.0153 Uiso
O4_9 O 0.2661(11) 0.1770(8) 0.039(6) 0.0153 Uiso
O6_9 O 0.2997(10) 0.2104(6) 0.329(8) 0.0153 Uiso
C25_9 C 0.1862(8) 0.4394(6) 0.791(7) 0.0153 Uiso
C26_9 C 0.1822(10) 0.4236(7) 0.582(7) 0.0153 Uiso
C27_9 C 0.1581(7) 0.4094(5) 0.472(6) 0.0153 Uiso
C28_9 C 0.1406(9) 0.4167(6) 0.526(8) 0.0153 Uiso
C29_9 C 0.1465(11) 0.4359(8) 0.718(7) 0.0153 Uiso
C30_9 C 0.1703(7) 0.4481(5) 0.841(6) 0.0153 Uiso
P4_9 P 0.14340(40) 0.35678(29) 0.3050(33) 0.0153 Uiso
O10_9 O 0.1567(7) 0.3511(5) 0.545(5) 0.0153 Uiso
O12_9 O 0.1141(11) 0.3426(8) 0.364(7) 0.0153 Uiso
C32_9 C 0.1539(9) 0.3920(5) 0.233(6) 0.0153 Uiso
H1_9 H 0.130806 0.221745 0.748911 . .
H3_9 H 0.201061 0.225499 0.896781 . .
H6_9 H 0.309001 0.21296 0.495796 . .
H10_9 H 0.0436864 0.129737 0.233888 . .
H14_9 H 0.209746 0.199929 0.699118 . .
H15_9 H 0.25495 0.145237 0.537658 . .
H16_9 H 0.26867 0.174628 0.709214 . .
H17_9 H 0.243663 0.19034 0.808792 . .
H20_9 H 0.0880794 0.166833 0.362682 . .
H21_9 H 0.182505 0.145519 0.0908006 . .
H22_9 H 0.225303 0.146324 0.115989 . .
H23_9 H 0.0896702 0.476327 0.857875 . .
H24_9 H 0.202527 0.444922 0.917755 . .
H25_9 H 0.198031 0.42222 0.502056 . .
H27_9 H 0.122394 0.408024 0.424325 . .
H29_9 H 0.132273 0.441167 0.769886 . .
H31_9 H 0.171712 0.40022 0.125687 . .
H32_9 H 0.139265 0.392245 0.111628 . .
H33_9 H 0.111016 0.349226 0.529548 . .
H34_9 H 0.123587 0.466738 0.967549 . .
H43_9 H 0.0646631 0.492039 0.957453 . .
C18_9 C 0.1037(9) 0.1461(6) 0.841(7) 0.0153 Uiso
C21_9 C 0.0564(8) 0.1280(5) 0.851(6) 0.0153 Uiso
C22_9 C 0.0774(10) 0.1292(7) 0.723(7) 0.0153 Uiso
C23_9 C 0.0322(9) 0.1206(5) 0.719(8) 0.0153 Uiso
P2_9 P 0.00809(40) 0.09048(26) 0.794(4) 0.0153 Uiso
O8_9 O 0.0172(8) 0.0747(5) 0.908(7) 0.0153 Uiso
H9_6 H 0.0749781 0.118451 0.545475 . .
H11_6 H 0.00588277 0.0792448 0.418243 . .
H13_9 H 0.120571 0.152916 0.720059 . .
H18_6 H 0.0353937 0.121634 0.509675 . .
H19_9 H 0.026075 0.134099 0.774437 . .
H5_10 H 0.00923949 0.45019 0.048195 . .
H33_10 H 0.015893 0.571544 0.803785 . .
H41_10 H 0.115177 0.737146 0.00969378 . .
H38_8 H 0.235937 0.568662 0.820853 . .
H39_5 H 0.242851 0.563445 0.151778 . .
H11_7 H 0.745911 0.406695 0.915091 . .
H12_8 H 0.765928 0.450599 0.408512 . .
H6_10 H 0.879626 0.237292 0.837537 . .
H11_8 H 0.593305 0.339216 0.915091 . .
H12_9 H 0.549401 0.315329 0.408512 . .
H5_11 H 0.54981 0.55905 0.048195 . .
H6_11 H 0.762708 0.642335 0.837537 . .
H33_11 H 0.428456 0.444349 0.803785 . .
H41_11 H 0.262854 0.37803 0.00969378 . .
H38_9 H 0.431338 0.667276 0.820853 . .
H39_6 H 0.436555 0.679406 0.151778 . .
H11_9 H 0.660784 0.254089 0.915091 . .
H12_10 H 0.684671 0.234072 0.408512 . .
H6_12 H 0.357665 0.120374 0.837537 . .
H5_12 H 0.44095 0.990761 0.048195 . .
H33_12 H 0.555651 0.984107 0.803785 . .
H41_12 H 0.62197 0.884823 0.00969378 . .
H38_10 H 0.332724 0.764063 0.820853 . .
H39_7 H 0.320594 0.757149 0.151778 . .
H41_13 H 0.781843 0.0704796 0.343027 . .
H6_13 H 0.546293 0.570625 0.170871 . .
H12_11 H 0.432594 0.783932 0.741845 . .
H33_13 H 0.68256 0.904877 0.137118 . .
H5_13 H 0.675906 0.783523 0.381528 . .
H38_11 H 0.902604 0.901995 0.154187 . .
H39_8 H 0.909518 0.896778 0.485111 . .
H6_14 H 0.429375 0.975668 0.170871 . .
H12_12 H 0.216068 0.648662 0.741845 . .
H33_14 H 0.0951228 0.777682 0.137118 . .
H5_14 H 0.216477 0.892383 0.381528 . .
H41_14 H 0.92952 0.711364 0.343027 . .
H6_15 H 0.0243321 0.453707 0.170871 . .
H12_13 H 0.351338 0.567406 0.741845 . .
H33_15 H 0.222318 0.31744 0.137118 . .
H5_15 H 0.107617 0.324094 0.381528 . .
H41_15 H 0.288636 0.218157 0.343027 . .
H11_10 H 0.0792448 0.073362 0.581757 . .
H12_14 H 0.0992612 0.117265 0.0751785 . .
H33_16 H 0.349226 0.238211 0.470452 . .
H5_16 H 0.342573 0.116857 0.714862 . .
H38_12 H 0.569271 0.235328 0.48752 . .
H41_16 H 0.44851 0.403813 0.67636 . .
H6_16 H 0.21296 0.903958 0.504204 . .
H6_17 H 0.0960415 0.309001 0.504204 . .
H11_11 H 0.926638 0.00588277 0.581757 . .
H33_17 H 0.761789 0.111016 0.470452 . .
H5_17 H 0.883143 0.225716 0.714862 . .
H38_13 H 0.764672 0.333942 0.48752 . .
H41_17 H 0.596187 0.0446969 0.67636 . .
H11_12 H 0.994117 0.920755 0.581757 . .
H6_18 H 0.690999 0.78704 0.504204 . .
H33_18 H 0.888984 0.650774 0.470452 . .
H5_18 H 0.774284 0.657427 0.714862 . .
H38_14 H 0.666058 0.430729 0.48752 . .
H41_18 H 0.955303 0.55149 0.67636 . .
O7_5 O 0.5869(7) 0.2478(7) 0.884(7) 0.0153 Uiso
H9_7 H 0.548215 0.28986 0.878808 . .
H11_13 H 0.587422 0.259971 0.751576 . .
H18_7 H 0.545033 0.247093 0.843008 . .
H39_9 H 0.576184 0.230112 0.818444 . .
O7_6 O 0.7522(7) 0.3392(10) 0.884(7) 0.0153 Uiso
H9_8 H 0.71014 0.258355 0.878808 . .
H11_14 H 0.740029 0.327451 0.751576 . .
H18_8 H 0.752907 0.29794 0.843008 . .
H39_10 H 0.769888 0.346073 0.818444 . .
O16_5 O 0.9144(7) 0.9942(10) 0.450(7) 0.0153 Uiso
O18_8 O 0.9005(7) 0.9902(10) 0.011(7) 0.0153 Uiso
H39_11 H 0.896778 0.987261 0.514889 . .
H12_15 H 0.882735 0.981996 0.0751785 . .
H38_15 H 0.901995 0.999391 0.845813 . .
O16_6 O 0.0058(10) 0.9203(7) 0.450(7) 0.0153 Uiso
O18_9 O 0.0098(10) 0.9104(7) 0.011(7) 0.0153 Uiso
H39_12 H 0.0127393 0.909518 0.514889 . .
H12_16 H 0.0180042 0.900739 0.0751785 . .
H38_16 H 0.000608983 0.902604 0.845813 . .
O7_7 O 0.6608(10) 0.4131(7) 0.884(7) 0.0153 Uiso
H9_9 H 0.741645 0.451785 0.878808 . .
H11_15 H 0.672549 0.412578 0.751576 . .
H18_9 H 0.70206 0.454967 0.843008 . .
H39_13 H 0.653927 0.423816 0.818444 . .
O16_7 O 0.4131(7) 0.7522(7) 0.116(7) 0.0153 Uiso
H36_7 H 0.454967 0.752907 0.156992 . .
H39_14 H 0.423816 0.769888 0.181556 . .
H40_7 H 0.451785 0.71014 0.121192 . .
H11_16 H 0.412578 0.740029 0.248424 . .
O7_8 O 0.0856(7) 0.0058(10) 0.550(7) 0.0153 Uiso
O9_8 O 0.0995(7) 0.0098(10) 0.989(7) 0.0153 Uiso
H12_17 H 0.117265 0.0180042 0.924821 . .
H39_15 H 0.103222 0.0127393 0.485111 . .
O16_8 O 0.2478(7) 0.6608(10) 0.116(7) 0.0153 Uiso
H36_8 H 0.247093 0.70206 0.156992 . .
H39_16 H 0.230112 0.653927 0.181556 . .
H40_8 H 0.28986 0.741645 0.121192 . .
H11_17 H 0.259971 0.672549 0.248424 . .
O16_9 O 0.3392(10) 0.5869(7) 0.116(7) 0.0153 Uiso
H36_9 H 0.29794 0.545033 0.156992 . .
H39_17 H 0.346073 0.576184 0.181556 . .
H40_9 H 0.258355 0.548215 0.121192 . .
H11_18 H 0.327451 0.587422 0.248424 . .
O7_9 O 0.9942(10) 0.0797(7) 0.550(7) 0.0153 Uiso
O9_9 O 0.9902(10) 0.0896(7) 0.989(7) 0.0153 Uiso
H12_18 H 0.981996 0.0992612 0.924821 . .
H39_18 H 0.987261 0.0904824 0.485111 . .
H38_17 H 0.0980051 0.000608983 0.154187 . .
H38_18 H 0.999391 0.0973961 0.154187 . .
loop_
_geom_bond_atom_site_label_1
_geom_bond_atom_site_label_2
_geom_bond_site_symmetry_1
_geom_bond_site_symmetry_2
O2 P1 1_555 1_555
Zr3 O2 1_555 1_555
P1 C8 1_555 1_555
C8 H7 1_555 1_555
C8 H8 1_555 1_555
C1 C2 1_555 1_555
C2 C3 1_555 1_555
C3 C4 1_555 1_555
C4 C5 1_555 1_555
C5 C6 1_555 1_555
C6 C1 1_555 1_555
O1 Zr3 1_555 1_555
C7 C6 1_555 1_555
N1 C7 1_555 1_555
N2 C7 1_555 1_555
C9 N2 1_555 1_555
C11 C9 1_555 1_555
C12 C11 1_555 1_555
C13 C12 1_555 1_555
C14 C13 1_555 1_555
C24 C14 1_555 1_555
O22 Zr3 1_555 1_555
C1 H1 1_555 1_555
C4 H2 1_555 1_555
C5 H3 1_555 1_555
C2 H4 1_555 1_555
C12 H14 1_555 1_555
C24 H15 1_555 1_555
C24 H16 1_555 1_555
C13 H17 1_555 1_555
C17 C10 1_555 1_555
C18 C17 1_555 1_555
C19 C17 1_555 1_555
C20 C19 1_555 1_555
C21 C20 1_555 1_555
C22 C18 1_555 1_555
C23 C21 1_555 1_555
P2 C23 1_555 1_555
O4 P3 1_555 1_555
O5 P3 1_555 1_555
O6 P3 1_555 1_555
O7 P2 1_555 1_555
O8 P2 1_555 1_555
O9 P2 1_555 1_555
Zr5 O5 1_555 1_555
N3 C10 1_555 1_555
C15 C16 1_555 1_555
C21 C22 1_555 1_555
C22 H9 1_555 1_555
C20 H10 1_555 1_555
O7 H11 1_555 1_555
O9 H12 1_555 1_555
C18 H13 1_555 1_555
C23 H18 1_555 1_555
C23 H19 1_555 1_555
C16 H21 1_555 1_555
C15 H22 1_555 1_555
C41 C34 1_555 1_555
C42 C41 1_555 1_555
C43 C41 1_555 1_555
C44 C43 1_555 1_555
C45 C44 1_555 1_555
C46 C42 1_555 1_555
C47 C45 1_555 1_555
P5 C47 1_555 1_555
O13 P6 1_555 1_555
O14 P6 1_555 1_555
O15 P6 1_555 1_555
O16 P5 1_555 1_555
O17 P5 1_555 1_555
O18 P5 1_555 1_555
Zr4 O14 1_555 1_555
N6 C34 1_555 1_555
C39 C40 1_555 1_555
C45 C46 1_555 1_555
C40 H26 1_555 1_555
C39 H28 1_555 1_555
C42 H30 1_555 1_555
C47 H35 1_555 1_555
C47 H36 1_555 1_555
O18 H38 1_555 1_555
O16 H39 1_555 1_555
C46 H40 1_555 1_555
C44 H42 1_555 1_555
Zr3_2 O10 1_555 1_555
C25 C26 1_555 1_555
C26 C27 1_555 1_555
C27 C28 1_555 1_555
C28 C29 1_555 1_555
C29 C30 1_555 1_555
C30 C25 1_555 1_555
C31 C30 1_555 1_555
N4 C31 1_555 1_555
N5 C31 1_555 1_555
C33 N5 1_555 1_555
C35 C33 1_555 1_555
C36 C35 1_555 1_555
C37 C36 1_555 1_555
C38 C37 1_555 1_555
C48 C38 1_555 1_555
O20 Zr3_2 1_555 1_555
O21 Zr3_2 1_555 1_555
C37 H23 1_555 1_555
C25 H24 1_555 1_555
C26 H25 1_555 1_555
C28 H27 1_555 1_555
C29 H29 1_555 1_555
O12 H33 1_555 1_555
C36 H34 1_555 1_555
C48 H43 1_555 1_555
C48 H44 1_555 1_555
O20 P4 1_555 1_555
P4 C32 1_555 1_555
C32 H31 1_555 1_555
C32 H32 1_555 1_555
O2_2 P1_2 1_555 1_555
C41_2 C34_2 1_555 1_555
C42_2 C41_2 1_555 1_555
C43_2 C41_2 1_555 1_555
C44_2 C43_2 1_555 1_555
C45_2 C44_2 1_555 1_555
C46_2 C42_2 1_555 1_555
C47_2 C45_2 1_555 1_555
P5_2 C47_2 1_555 1_555
O13_2 P6_2 1_555 1_555
O14_2 P6_2 1_555 1_555
O15_2 P6_2 1_555 1_555
O16_2 P5_2 1_555 1_555
O17_2 P5_2 1_555 1_555
O18_2 P5_2 1_555 1_555
Zr3_3 O2_2 1_555 1_555
Zr4_2 O14_2 1_555 1_555
P1_2 C8_2 1_555 1_555
N6_2 C34_2 1_555 1_555
C39_2 C40_2 1_555 1_555
C45_2 C46_2 1_555 1_555
C8_2 H7_2 1_555 1_555
C8_2 H8_2 1_555 1_555
C40_2 H26_2 1_555 1_555
C39_2 H28_2 1_555 1_555
C42_2 H30_2 1_555 1_555
C47_2 H35_2 1_555 1_555
C47_2 H36_2 1_555 1_555
O18_2 H38_2 1_555 1_555
O16_2 H39_2 1_555 1_555
C46_2 H40_2 1_555 1_555
C44_2 H42_2 1_555 1_555
C1_2 C2_2 1_555 1_555
C2_2 C3_2 1_555 1_555
C3_2 C4_2 1_555 1_555
C4_2 C5_2 1_555 1_555
C5_2 C6_2 1_555 1_555
C6_2 C1_2 1_555 1_555
O1_2 Zr3_3 1_555 1_555
C7_2 C6_2 1_555 1_555
N1_2 C7_2 1_555 1_555
N2_2 C7_2 1_555 1_555
C9_2 N2_2 1_555 1_555
C11_2 C9_2 1_555 1_555
C12_2 C11_2 1_555 1_555
C13_2 C12_2 1_555 1_555
C14_2 C13_2 1_555 1_555
C24_2 C14_2 1_555 1_555
Zr3_3 O10_2 1_555 1_555
C25_2 C26_2 1_555 1_555
C26_2 C27_2 1_555 1_555
C27_2 C28_2 1_555 1_555
C28_2 C29_2 1_555 1_555
C29_2 C30_2 1_555 1_555
C30_2 C25_2 1_555 1_555
C31_2 C30_2 1_555 1_555
N4_2 C31_2 1_555 1_555
N5_2 C31_2 1_555 1_555
C33_2 N5_2 1_555 1_555
C35_2 C33_2 1_555 1_555
C36_2 C35_2 1_555 1_555
C37_2 C36_2 1_555 1_555
C38_2 C37_2 1_555 1_555
C48_2 C38_2 1_555 1_555
O20_2 Zr3_3 1_555 1_555
O21_2 Zr3_3 1_555 1_555
O22_2 Zr3_3 1_555 1_555
C1_2 H1_2 1_555 1_555
C4_2 H2_2 1_555 1_555
C5_2 H3_2 1_555 1_555
C2_2 H4_2 1_555 1_555
O3_2 H5_2 1_555 1_555
C12_2 H14_2 1_555 1_555
C24_2 H15_2 1_555 1_555
C24_2 H16_2 1_555 1_555
C13_2 H17_2 1_555 1_555
C37_2 H23_2 1_555 1_555
C25_2 H24_2 1_555 1_555
C26_2 H25_2 1_555 1_555
C28_2 H27_2 1_555 1_555
C29_2 H29_2 1_555 1_555
O12_2 H33_2 1_555 1_555
C36_2 H34_2 1_555 1_555
C48_2 H43_2 1_555 1_555
C48_2 H44_2 1_555 1_555
C17_2 C10_2 1_555 1_555
C18_2 C17_2 1_555 1_555
C19_2 C17_2 1_555 1_555
C20_2 C19_2 1_555 1_555
C21_2 C20_2 1_555 1_555
C22_2 C18_2 1_555 1_555
C23_2 C21_2 1_555 1_555
P2_2 C23_2 1_555 1_555
O4_2 P3_2 1_555 1_555
O5_2 P3_2 1_555 1_555
O6_2 P3_2 1_555 1_555
O7_2 P2_2 1_555 1_555
O8_2 P2_2 1_555 1_555
O9_2 P2_2 1_555 1_555
O20_2 P4_2 1_555 1_555
Zr5_2 O5_2 1_555 1_555
N3_2 C10_2 1_555 1_555
C15_2 C16_2 1_555 1_555
C21_2 C22_2 1_555 1_555
P4_2 C32_2 1_555 1_555
C22_2 H9_2 1_555 1_555
C20_2 H10_2 1_555 1_555
O7_2 H11_2 1_555 1_555
O9_2 H12_2 1_555 1_555
C18_2 H13_2 1_555 1_555
C23_2 H18_2 1_555 1_555
C23_2 H19_2 1_555 1_555
C16_2 H21_2 1_555 1_555
C15_2 H22_2 1_555 1_555
C32_2 H31_2 1_555 1_555
C32_2 H32_2 1_555 1_555
C41_3 C34_3 1_555 1_555
C42_3 C41_3 1_555 1_555
C43_3 C41_3 1_555 1_555
C44_3 C43_3 1_555 1_555
C45_3 C44_3 1_555 1_555
C46_3 C42_3 1_555 1_555
C47_3 C45_3 1_555 1_555
P5_3 C47_3 1_555 1_555
O13_3 P6_3 1_555 1_555
O14_3 P6_3 1_555 1_555
O15_3 P6_3 1_555 1_555
O16_3 P5_3 1_555 1_555
O17_3 P5_3 1_555 1_555
O18_3 P5_3 1_555 1_555
Zr4_3 O14_3 1_555 1_555
N6_3 C34_3 1_555 1_555
C39_3 C40_3 1_555 1_555
C45_3 C46_3 1_555 1_555
C40_3 H26_3 1_555 1_555
C39_3 H28_3 1_555 1_555
C42_3 H30_3 1_555 1_555
C47_3 H35_3 1_555 1_555
C47_3 H36_3 1_555 1_555
O18_3 H38_3 1_555 1_555
O16_3 H39_3 1_555 1_555
C46_3 H40_3 1_555 1_555
C44_3 H42_3 1_555 1_555
Zr3_4 O10_3 1_555 1_555
C25_3 C26_3 1_555 1_555
C26_3 C27_3 1_555 1_555
C27_3 C28_3 1_555 1_555
C28_3 C29_3 1_555 1_555
C29_3 C30_3 1_555 1_555
C30_3 C25_3 1_555 1_555
C31_3 C30_3 1_555 1_555
N4_3 C31_3 1_555 1_555
N5_3 C31_3 1_555 1_555
C33_3 N5_3 1_555 1_555
C35_3 C33_3 1_555 1_555
C36_3 C35_3 1_555 1_555
C37_3 C36_3 1_555 1_555
C38_3 C37_3 1_555 1_555
C48_3 C38_3 1_555 1_555
O20_3 Zr3_4 1_555 1_555
O21_3 Zr3_4 1_555 1_555
C37_3 H23_3 1_555 1_555
C25_3 H24_3 1_555 1_555
C26_3 H25_3 1_555 1_555
C28_3 H27_3 1_555 1_555
C29_3 H29_3 1_555 1_555
O12_3 H33_3 1_555 1_555
C36_3 H34_3 1_555 1_555
C48_3 H43_3 1_555 1_555
C48_3 H44_3 1_555 1_555
O20_3 P4_3 1_555 1_555
P4_3 C32_3 1_555 1_555
C32_3 H31_3 1_555 1_555
C32_3 H32_3 1_555 1_555
O2_3 P1_3 1_555 1_555
Zr3_5 O2_3 1_555 1_555
P1_3 C8_3 1_555 1_555
C8_3 H7_3 1_555 1_555
C8_3 H8_3 1_555 1_555
C1_3 C2_3 1_555 1_555
C2_3 C3_3 1_555 1_555
C3_3 C4_3 1_555 1_555
C4_3 C5_3 1_555 1_555
C5_3 C6_3 1_555 1_555
C6_3 C1_3 1_555 1_555
O1_3 Zr3_5 1_555 1_555
C7_3 C6_3 1_555 1_555
N1_3 C7_3 1_555 1_555
N2_3 C7_3 1_555 1_555
C9_3 N2_3 1_555 1_555
C11_3 C9_3 1_555 1_555
C12_3 C11_3 1_555 1_555
C13_3 C12_3 1_555 1_555
C14_3 C13_3 1_555 1_555
C24_3 C14_3 1_555 1_555
O22_3 Zr3_5 1_555 1_555
C1_3 H1_3 1_555 1_555
C4_3 H2_3 1_555 1_555
C5_3 H3_3 1_555 1_555
C2_3 H4_3 1_555 1_555
C12_3 H14_3 1_555 1_555
C24_3 H15_3 1_555 1_555
C24_3 H16_3 1_555 1_555
C13_3 H17_3 1_555 1_555
C17_3 C10_3 1_555 1_555
C18_3 C17_3 1_555 1_555
C19_3 C17_3 1_555 1_555
C20_3 C19_3 1_555 1_555
C21_3 C20_3 1_555 1_555
C22_3 C18_3 1_555 1_555
C23_3 C21_3 1_555 1_555
P2_3 C23_3 1_555 1_555
O4_3 P3_3 1_555 1_555
O5_3 P3_3 1_555 1_555
O6_3 P3_3 1_555 1_555
O7_3 P2_3 1_555 1_555
O8_3 P2_3 1_555 1_555
O9_3 P2_3 1_555 1_555
Zr5_3 O5_3 1_555 1_555
N3_3 C10_3 1_555 1_555
C15_3 C16_3 1_555 1_555
C21_3 C22_3 1_555 1_555
C22_3 H9_3 1_555 1_555
C20_3 H10_3 1_555 1_555
O7_3 H11_3 1_555 1_555
O9_3 H12_3 1_555 1_555
C18_3 H13_3 1_555 1_555
C23_3 H18_3 1_555 1_555
C23_3 H19_3 1_555 1_555
C16_3 H21_3 1_555 1_555
C15_3 H22_3 1_555 1_555
C46_4 C42_4 1_555 1_555
C47_4 C45_4 1_555 1_555
P5_4 C47_4 1_555 1_555
O16_4 P5_4 1_555 1_555
O17_4 P5_4 1_555 1_555
O18_4 P5_4 1_555 1_555
C45_4 C46_4 1_555 1_555
C42_4 H30_4 1_555 1_555
C47_4 H35_4 1_555 1_555
C47_4 H36_4 1_555 1_555
O16_4 H39_4 1_555 1_555
C46_4 H40_4 1_555 1_555
C1_4 C2_4 1_555 1_555
C2_4 C3_4 1_555 1_555
C3_4 C4_4 1_555 1_555
C4_4 C5_4 1_555 1_555
C5_4 C6_4 1_555 1_555
C6_4 C1_4 1_555 1_555
P1_4 O1_4 1_555 1_555
O1_4 Zr4_3 1_555 1_555
O2_4 P1_4 1_555 1_555
O3_4 P1_4 1_555 1_555
C8_4 C3_4 1_555 1_555
C29_4 C30_4 1_555 1_555
C30_4 C25_4 1_555 1_555
C31_4 C30_4 1_555 1_555
N4_4 C31_4 1_555 1_555
N5_4 C31_4 1_555 1_555
C33_4 N5_4 1_555 1_555
N6_4 C33_4 1_555 1_555
C34_4 N4_4 1_555 1_555
C41_4 C34_4 1_555 1_555
C43_4 C41_4 1_555 1_555
C44_4 C43_4 1_555 1_555
O20_4 Zr4_3 1_555 1_555
O21_4 Zr4_3 1_555 1_555
P1_4 C8_4 1_555 1_555
N6_4 C34_4 1_555 1_555
C1_4 H1_4 1_555 1_555
C4_4 H2_4 1_555 1_555
C5_4 H3_4 1_555 1_555
C2_4 H4_4 1_555 1_555
O3_4 H5_4 1_555 1_555
C8_4 H7_4 1_555 1_555
C8_4 H8_4 1_555 1_555
C25_4 H24_4 1_555 1_555
C29_4 H29_4 1_555 1_555
C43_4 H37_4 1_555 1_555
C44_4 H42_4 1_555 1_555
N1_4 C7_4 1_555 1_555
N2_4 C7_4 1_555 1_555
C9_4 N2_4 1_555 1_555
N3_4 C9_4 1_555 1_555
C10_4 N1_4 1_555 1_555
C11_4 C9_4 1_555 1_555
C12_4 C11_4 1_555 1_555
C13_4 C12_4 1_555 1_555
C14_4 C13_4 1_555 1_555
C15_4 C14_4 1_555 1_555
C16_4 C11_4 1_555 1_555
C17_4 C10_4 1_555 1_555
C18_4 C17_4 1_555 1_555
C19_4 C17_4 1_555 1_555
C20_4 C19_4 1_555 1_555
C21_4 C20_4 1_555 1_555
C22_4 C18_4 1_555 1_555
C23_4 C21_4 1_555 1_555
P2_4 C23_4 1_555 1_555
C24_4 C14_4 1_555 1_555
P3_4 C24_4 1_555 1_555
O4_4 P3_4 1_555 1_555
O21_2 P3_4 1_555 1_555
O6_4 P3_4 1_555 1_555
O8_4 P2_4 1_555 1_555
O9_4 P2_4 1_555 1_555
C26_4 C27_4 1_555 1_555
C27_4 C28_4 1_555 1_555
P4_4 O10_4 1_555 1_555
O20_4 P4_4 1_555 1_555
O12_4 P4_4 1_555 1_555
C32_4 C27_4 1_555 1_555
N3_4 C10_4 1_555 1_555
C15_4 C16_4 1_555 1_555
C21_4 C22_4 1_555 1_555
P4_4 C32_4 1_555 1_555
O6_4 H6_4 1_555 1_555
C20_4 H10_4 1_555 1_555
O9_4 H12_4 1_555 1_555
C18_4 H13_4 1_555 1_555
C24_4 H15_4 1_555 1_555
C23_4 H19_4 1_555 1_555
C19_4 H20_4 1_555 1_555
C16_4 H21_4 1_555 1_555
C15_4 H22_4 1_555 1_555
C26_4 H25_4 1_555 1_555
C28_4 H27_4 1_555 1_555
C32_4 H31_4 1_555 1_555
C32_4 H32_4 1_555 1_555
O12_4 H33_4 1_555 1_555
C36_4 C35_4 1_555 1_555
C37_4 C36_4 1_555 1_555
C38_4 C37_4 1_555 1_555
C39_4 C38_4 1_555 1_555
C40_4 C35_4 1_555 1_555
C48_4 C38_4 1_555 1_555
P6_4 C48_4 1_555 1_555
O13_4 P6_4 1_555 1_555
O14_4 P6_4 1_555 1_555
O15_4 P6_4 1_555 1_555
Zr5 O14_4 1_555 1_555
C39_4 C40_4 1_555 1_555
C37_4 H23_4 1_555 1_555
C40_4 H26_4 1_555 1_555
C39_4 H28_4 1_555 1_555
C36_4 H34_4 1_555 1_555
O15_4 H41_4 1_555 1_555
C48_4 H43_4 1_555 1_555
C48_4 H44_4 1_555 1_555
C36_5 C35_5 1_555 1_555
C37_5 C36_5 1_555 1_555
C38_5 C37_5 1_555 1_555
C39_5 C38_5 1_555 1_555
C40_5 C35_5 1_555 1_555
C48_5 C38_5 1_555 1_555
P6_5 C48_5 1_555 1_555
O13_5 P6_5 1_555 1_555
O14_5 P6_5 1_555 1_555
O15_5 P6_5 1_555 1_555
Zr5_2 O14_5 1_555 1_555
C39_5 C40_5 1_555 1_555
C37_5 H23_5 1_555 1_555
C40_5 H26_5 1_555 1_555
C39_5 H28_5 1_555 1_555
C36_5 H34_5 1_555 1_555
O15_5 H41_5 1_555 1_555
C48_5 H43_5 1_555 1_555
C48_5 H44_5 1_555 1_555
C46_5 C42_5 1_555 1_555
C47_5 C45_5 1_555 1_555
P5_5 C47_5 1_555 1_555
O17_5 P5_5 1_555 1_555
C45_5 C46_5 1_555 1_555
C42_5 H30_5 1_555 1_555
C47_5 H35_5 1_555 1_555
C47_5 H36_5 1_555 1_555
C46_5 H40_5 1_555 1_555
C1_5 C2_5 1_555 1_555
C2_5 C3_5 1_555 1_555
C3_5 C4_5 1_555 1_555
C4_5 C5_5 1_555 1_555
C5_5 C6_5 1_555 1_555
C6_5 C1_5 1_555 1_555
P1_5 O1_5 1_555 1_555
O1_5 Zr4 1_555 1_555
O2_5 P1_5 1_555 1_555
O3_5 P1_5 1_555 1_555
C8_5 C3_5 1_555 1_555
C29_5 C30_5 1_555 1_555
C30_5 C25_5 1_555 1_555
C31_5 C30_5 1_555 1_555
N4_5 C31_5 1_555 1_555
N5_5 C31_5 1_555 1_555
C33_5 N5_5 1_555 1_555
N6_5 C33_5 1_555 1_555
C34_5 N4_5 1_555 1_555
C41_5 C34_5 1_555 1_555
C43_5 C41_5 1_555 1_555
C44_5 C43_5 1_555 1_555
O20_5 Zr4 1_555 1_555
O21_5 Zr4 1_555 1_555
P1_5 C8_5 1_555 1_555
N6_5 C34_5 1_555 1_555
C1_5 H1_5 1_555 1_555
C4_5 H2_5 1_555 1_555
C5_5 H3_5 1_555 1_555
C2_5 H4_5 1_555 1_555
O3_5 H5_5 1_555 1_555
C8_5 H7_5 1_555 1_555
C8_5 H8_5 1_555 1_555
C25_5 H24_5 1_555 1_555
C29_5 H29_5 1_555 1_555
C43_5 H37_5 1_555 1_555
C44_5 H42_5 1_555 1_555
N1_5 C7_5 1_555 1_555
N2_5 C7_5 1_555 1_555
C9_5 N2_5 1_555 1_555
N3_5 C9_5 1_555 1_555
C10_5 N1_5 1_555 1_555
C11_5 C9_5 1_555 1_555
C12_5 C11_5 1_555 1_555
C13_5 C12_5 1_555 1_555
C14_5 C13_5 1_555 1_555
C15_5 C14_5 1_555 1_555
C16_5 C11_5 1_555 1_555
C17_5 C10_5 1_555 1_555
C18_5 C17_5 1_555 1_555
C19_5 C17_5 1_555 1_555
C20_5 C19_5 1_555 1_555
C21_5 C20_5 1_555 1_555
C22_5 C18_5 1_555 1_555
C23_5 C21_5 1_555 1_555
P2_5 C23_5 1_555 1_555
C24_5 C14_5 1_555 1_555
P3_5 C24_5 1_555 1_555
O4_5 P3_5 1_555 1_555
O21_3 P3_5 1_555 1_555
O6_5 P3_5 1_555 1_555
O8_5 P2_5 1_555 1_555
O9_5 P2_5 1_555 1_555
C26_5 C27_5 1_555 1_555
C27_5 C28_5 1_555 1_555
P4_5 O10_5 1_555 1_555
O20_5 P4_5 1_555 1_555
O12_5 P4_5 1_555 1_555
C32_5 C27_5 1_555 1_555
N3_5 C10_5 1_555 1_555
C15_5 C16_5 1_555 1_555
C21_5 C22_5 1_555 1_555
P4_5 C32_5 1_555 1_555
O6_5 H6_5 1_555 1_555
C20_5 H10_5 1_555 1_555
O9_5 H12_5 1_555 1_555
C18_5 H13_5 1_555 1_555
C24_5 H15_5 1_555 1_555
C23_5 H19_5 1_555 1_555
C19_5 H20_5 1_555 1_555
C16_5 H21_5 1_555 1_555
C15_5 H22_5 1_555 1_555
C26_5 H25_5 1_555 1_555
C28_5 H27_5 1_555 1_555
C32_5 H31_5 1_555 1_555
C32_5 H32_5 1_555 1_555
O12_5 H33_5 1_555 1_555
C46_6 C42_6 1_555 1_555
C47_6 C45_6 1_555 1_555
P5_6 C47_6 1_555 1_555
O17_6 P5_6 1_555 1_555
C45_6 C46_6 1_555 1_555
C42_6 H30_6 1_555 1_555
C47_6 H35_6 1_555 1_555
C47_6 H36_6 1_555 1_555
C46_6 H40_6 1_555 1_555
C1_6 C2_6 1_555 1_555
C2_6 C3_6 1_555 1_555
C3_6 C4_6 1_555 1_555
C4_6 C5_6 1_555 1_555
C5_6 C6_6 1_555 1_555
C6_6 C1_6 1_555 1_555
P1_6 O1_6 1_555 1_555
O1_6 Zr4_2 1_555 1_555
O2_6 P1_6 1_555 1_555
O3_6 P1_6 1_555 1_555
C8_6 C3_6 1_555 1_555
C29_6 C30_6 1_555 1_555
C30_6 C25_6 1_555 1_555
C31_6 C30_6 1_555 1_555
N4_6 C31_6 1_555 1_555
N5_6 C31_6 1_555 1_555
C33_6 N5_6 1_555 1_555
N6_6 C33_6 1_555 1_555
C34_6 N4_6 1_555 1_555
C35_6 C33_6 1_555 1_555
C36_6 C35_6 1_555 1_555
C37_6 C36_6 1_555 1_555
C38_6 C37_6 1_555 1_555
C39_6 C38_6 1_555 1_555
C40_6 C35_6 1_555 1_555
C41_6 C34_6 1_555 1_555
C43_6 C41_6 1_555 1_555
C44_6 C43_6 1_555 1_555
C48_6 C38_6 1_555 1_555
P6_6 C48_6 1_555 1_555
O13_6 P6_6 1_555 1_555
O14_6 P6_6 1_555 1_555
O15_6 P6_6 1_555 1_555
O20_6 Zr4_2 1_555 1_555
O21_6 Zr4_2 1_555 1_555
Zr5_3 O14_6 1_555 1_555
P1_6 C8_6 1_555 1_555
N6_6 C34_6 1_555 1_555
C39_6 C40_6 1_555 1_555
C1_6 H1_6 1_555 1_555
C4_6 H2_6 1_555 1_555
C5_6 H3_6 1_555 1_555
C2_6 H4_6 1_555 1_555
O3_6 H5_6 1_555 1_555
C8_6 H7_6 1_555 1_555
C8_6 H8_6 1_555 1_555
C37_6 H23_6 1_555 1_555
C25_6 H24_6 1_555 1_555
C40_6 H26_6 1_555 1_555
C39_6 H28_6 1_555 1_555
C29_6 H29_6 1_555 1_555
C36_6 H34_6 1_555 1_555
C43_6 H37_6 1_555 1_555
O15_6 H41_6 1_555 1_555
C44_6 H42_6 1_555 1_555
C48_6 H43_6 1_555 1_555
C48_6 H44_6 1_555 1_555
N1_6 C7_6 1_555 1_555
N2_6 C7_6 1_555 1_555
C9_6 N2_6 1_555 1_555
N3_6 C9_6 1_555 1_555
C10_6 N1_6 1_555 1_555
C11_6 C9_6 1_555 1_555
C12_6 C11_6 1_555 1_555
C13_6 C12_6 1_555 1_555
C14_6 C13_6 1_555 1_555
C15_6 C14_6 1_555 1_555
C16_6 C11_6 1_555 1_555
C17_6 C10_6 1_555 1_555
C18_6 C17_6 1_555 1_555
C19_6 C17_6 1_555 1_555
C20_6 C19_6 1_555 1_555
C21_6 C20_6 1_555 1_555
C22_6 C18_6 1_555 1_555
C23_6 C21_6 1_555 1_555
P2_6 C23_6 1_555 1_555
C24_6 C14_6 1_555 1_555
P3_6 C24_6 1_555 1_555
O4_6 P3_6 1_555 1_555
O21 P3_6 1_555 1_555
O6_6 P3_6 1_555 1_555
O8_6 P2_6 1_555 1_555
O9_6 P2_6 1_555 1_555
C26_6 C27_6 1_555 1_555
C27_6 C28_6 1_555 1_555
P4_6 O10_6 1_555 1_555
O20_6 P4_6 1_555 1_555
O12_6 P4_6 1_555 1_555
C32_6 C27_6 1_555 1_555
N3_6 C10_6 1_555 1_555
C15_6 C16_6 1_555 1_555
C21_6 C22_6 1_555 1_555
P4_6 C32_6 1_555 1_555
O6_6 H6_6 1_555 1_555
C20_6 H10_6 1_555 1_555
O9_6 H12_6 1_555 1_555
C18_6 H13_6 1_555 1_555
C24_6 H15_6 1_555 1_555
C23_6 H19_6 1_555 1_555
C19_6 H20_6 1_555 1_555
C16_6 H21_6 1_555 1_555
C15_6 H22_6 1_555 1_555
C26_6 H25_6 1_555 1_555
C28_6 H27_6 1_555 1_555
C32_6 H31_6 1_555 1_555
C32_6 H32_6 1_555 1_555
O12_6 H33_6 1_555 1_555
C12_7 C11_7 1_555 1_555
C13_7 C12_7 1_555 1_555
C14_7 C13_7 1_555 1_555
C15_7 C14_7 1_555 1_555
C16_7 C11_7 1_555 1_555
C24_7 C14_7 1_555 1_555
P3_7 C24_7 1_555 1_555
O4_7 P3_7 1_555 1_555
O21_5 P3_7 1_555 1_555
O6_7 P3_7 1_555 1_555
C15_7 C16_7 1_555 1_555
O6_7 H6_7 1_555 1_555
C12_7 H14_7 1_555 1_555
C24_7 H15_7 1_555 1_555
C24_7 H16_7 1_555 1_555
C13_7 H17_7 1_555 1_555
C16_7 H21_7 1_555 1_555
C15_7 H22_7 1_555 1_555
C2_7 C3_7 1_555 1_555
C3_7 C4_7 1_555 1_555
P1_7 O1_7 1_555 1_555
O2_7 P1_7 1_555 1_555
O3_7 P1_7 1_555 1_555
C8_7 C3_7 1_555 1_555
N4_7 C31_7 1_555 1_555
N5_7 C31_7 1_555 1_555
C33_7 N5_7 1_555 1_555
N6_7 C33_7 1_555 1_555
C34_7 N4_7 1_555 1_555
C35_7 C33_7 1_555 1_555
C36_7 C35_7 1_555 1_555
C37_7 C36_7 1_555 1_555
C38_7 C37_7 1_555 1_555
C39_7 C38_7 1_555 1_555
C40_7 C35_7 1_555 1_555
C41_7 C34_7 1_555 1_555
C42_7 C41_7 1_555 1_555
C43_7 C41_7 1_555 1_555
C44_7 C43_7 1_555 1_555
C45_7 C44_7 1_555 1_555
C46_7 C42_7 1_555 1_555
C47_7 C45_7 1_555 1_555
P5_7 C47_7 1_555 1_555
C48_7 C38_7 1_555 1_555
P6_7 C48_7 1_555 1_555
O13_7 P6_7 1_555 1_555
O22_2 P6_7 1_555 1_555
O15_7 P6_7 1_555 1_555
O17_7 P5_7 1_555 1_555
O18_5 P5_7 1_555 1_555
Zr5_3 O2_7 1_555 1_555
P1_7 C8_7 1_555 1_555
N6_7 C34_7 1_555 1_555
C39_7 C40_7 1_555 1_555
C45_7 C46_7 1_555 1_555
C4_7 H2_7 1_555 1_555
C2_7 H4_7 1_555 1_555
O3_7 H5_7 1_555 1_555
C8_7 H7_7 1_555 1_555
C8_7 H8_7 1_555 1_555
C40_7 H26_7 1_555 1_555
C39_7 H28_7 1_555 1_555
C42_7 H30_7 1_555 1_555
C47_7 H35_7 1_555 1_555
C43_7 H37_7 1_555 1_555
O18_5 H38_5 1_555 1_555
O15_7 H41_7 1_555 1_555
C44_7 H42_7 1_555 1_555
C48_7 H44_7 1_555 1_555
C5_7 C6_7 1_555 1_555
C6_7 C1_7 1_555 1_555
C7_7 C6_7 1_555 1_555
N1_7 C7_7 1_555 1_555
N2_7 C7_7 1_555 1_555
C9_7 N2_7 1_555 1_555
N3_7 C9_7 1_555 1_555
C10_7 N1_7 1_555 1_555
C17_7 C10_7 1_555 1_555
C19_7 C17_7 1_555 1_555
C20_7 C19_7 1_555 1_555
Zr5_3 O10_7 1_555 1_555
C25_7 C26_7 1_555 1_555
C26_7 C27_7 1_555 1_555
C27_7 C28_7 1_555 1_555
C28_7 C29_7 1_555 1_555
C29_7 C30_7 1_555 1_555
C30_7 C25_7 1_555 1_555
P4_7 O10_7 1_555 1_555
O20_7 P4_7 1_555 1_555
O12_7 P4_7 1_555 1_555
C32_7 C27_7 1_555 1_555
N3_7 C10_7 1_555 1_555
P4_7 C32_7 1_555 1_555
C1_7 H1_7 1_555 1_555
C5_7 H3_7 1_555 1_555
C20_7 H10_7 1_555 1_555
C19_7 H20_7 1_555 1_555
C25_7 H24_7 1_555 1_555
C26_7 H25_7 1_555 1_555
C28_7 H27_7 1_555 1_555
C29_7 H29_7 1_555 1_555
C32_7 H31_7 1_555 1_555
C32_7 H32_7 1_555 1_555
O12_7 H33_7 1_555 1_555
C22_7 C18_7 1_555 1_555
C23_7 C21_7 1_555 1_555
P2_7 C23_7 1_555 1_555
O7_4 P2_7 1_555 1_555
O8_7 P2_7 1_555 1_555
O9_7 P2_7 1_555 1_555
C21_7 C22_7 1_555 1_555
C22_7 H9_4 1_555 1_555
O7_4 H11_4 1_555 1_555
O9_7 H12_7 1_555 1_555
C18_7 H13_7 1_555 1_555
C23_7 H18_4 1_555 1_555
C23_7 H19_7 1_555 1_555
C2_8 C3_8 1_555 1_555
C3_8 C4_8 1_555 1_555
P1_8 O1_8 1_555 1_555
O2_8 P1_8 1_555 1_555
O3_8 P1_8 1_555 1_555
C8_8 C3_8 1_555 1_555
N4_8 C31_8 1_555 1_555
N5_8 C31_8 1_555 1_555
C33_8 N5_8 1_555 1_555
N6_8 C33_8 1_555 1_555
C34_8 N4_8 1_555 1_555
C35_8 C33_8 1_555 1_555
C36_8 C35_8 1_555 1_555
C37_8 C36_8 1_555 1_555
C38_8 C37_8 1_555 1_555
C39_8 C38_8 1_555 1_555
C40_8 C35_8 1_555 1_555
C41_8 C34_8 1_555 1_555
C42_8 C41_8 1_555 1_555
C43_8 C41_8 1_555 1_555
C44_8 C43_8 1_555 1_555
C45_8 C44_8 1_555 1_555
C46_8 C42_8 1_555 1_555
C47_8 C45_8 1_555 1_555
P5_8 C47_8 1_555 1_555
C48_8 C38_8 1_555 1_555
P6_8 C48_8 1_555 1_555
O13_8 P6_8 1_555 1_555
O22_3 P6_8 1_555 1_555
O15_8 P6_8 1_555 1_555
O17_8 P5_8 1_555 1_555
O18_6 P5_8 1_555 1_555
Zr5 O2_8 1_555 1_555
P1_8 C8_8 1_555 1_555
N6_8 C34_8 1_555 1_555
C39_8 C40_8 1_555 1_555
C45_8 C46_8 1_555 1_555
C4_8 H2_8 1_555 1_555
C2_8 H4_8 1_555 1_555
O3_8 H5_8 1_555 1_555
C8_8 H7_8 1_555 1_555
C8_8 H8_8 1_555 1_555
C40_8 H26_8 1_555 1_555
C39_8 H28_8 1_555 1_555
C42_8 H30_8 1_555 1_555
C47_8 H35_8 1_555 1_555
C43_8 H37_8 1_555 1_555
O18_6 H38_6 1_555 1_555
O15_8 H41_8 1_555 1_555
C44_8 H42_8 1_555 1_555
C48_8 H44_8 1_555 1_555
C5_8 C6_8 1_555 1_555
C6_8 C1_8 1_555 1_555
C7_8 C6_8 1_555 1_555
N1_8 C7_8 1_555 1_555
N2_8 C7_8 1_555 1_555
C9_8 N2_8 1_555 1_555
N3_8 C9_8 1_555 1_555
C10_8 N1_8 1_555 1_555
C17_8 C10_8 1_555 1_555
C19_8 C17_8 1_555 1_555
C20_8 C19_8 1_555 1_555
Zr5 O10_8 1_555 1_555
C25_8 C26_8 1_555 1_555
C26_8 C27_8 1_555 1_555
C27_8 C28_8 1_555 1_555
C28_8 C29_8 1_555 1_555
C29_8 C30_8 1_555 1_555
C30_8 C25_8 1_555 1_555
P4_8 O10_8 1_555 1_555
O20_8 P4_8 1_555 1_555
O12_8 P4_8 1_555 1_555
C32_8 C27_8 1_555 1_555
N3_8 C10_8 1_555 1_555
P4_8 C32_8 1_555 1_555
C1_8 H1_8 1_555 1_555
C5_8 H3_8 1_555 1_555
C20_8 H10_8 1_555 1_555
C19_8 H20_8 1_555 1_555
C25_8 H24_8 1_555 1_555
C26_8 H25_8 1_555 1_555
C28_8 H27_8 1_555 1_555
C29_8 H29_8 1_555 1_555
C32_8 H31_8 1_555 1_555
C32_8 H32_8 1_555 1_555
O12_8 H33_8 1_555 1_555
C22_8 C18_8 1_555 1_555
C23_8 C21_8 1_555 1_555
P2_8 C23_8 1_555 1_555
O8_8 P2_8 1_555 1_555
C21_8 C22_8 1_555 1_555
C22_8 H9_5 1_555 1_555
C18_8 H13_8 1_555 1_555
C23_8 H18_5 1_555 1_555
C23_8 H19_8 1_555 1_555
C12_8 C11_8 1_555 1_555
C13_8 C12_8 1_555 1_555
C14_8 C13_8 1_555 1_555
C15_8 C14_8 1_555 1_555
C16_8 C11_8 1_555 1_555
C24_8 C14_8 1_555 1_555
P3_8 C24_8 1_555 1_555
O4_8 P3_8 1_555 1_555
O21_6 P3_8 1_555 1_555
O6_8 P3_8 1_555 1_555
C15_8 C16_8 1_555 1_555
O6_8 H6_8 1_555 1_555
C12_8 H14_8 1_555 1_555
C24_8 H15_8 1_555 1_555
C24_8 H16_8 1_555 1_555
C13_8 H17_8 1_555 1_555
C16_8 H21_8 1_555 1_555
C15_8 H22_8 1_555 1_555
C2_9 C3_9 1_555 1_555
C3_9 C4_9 1_555 1_555
P1_9 O1_9 1_555 1_555
O2_9 P1_9 1_555 1_555
O3_9 P1_9 1_555 1_555
C8_9 C3_9 1_555 1_555
N4_9 C31_9 1_555 1_555
N5_9 C31_9 1_555 1_555
C33_9 N5_9 1_555 1_555
N6_9 C33_9 1_555 1_555
C34_9 N4_9 1_555 1_555
C35_9 C33_9 1_555 1_555
C36_9 C35_9 1_555 1_555
C37_9 C36_9 1_555 1_555
C38_9 C37_9 1_555 1_555
C39_9 C38_9 1_555 1_555
C40_9 C35_9 1_555 1_555
C41_9 C34_9 1_555 1_555
C42_9 C41_9 1_555 1_555
C43_9 C41_9 1_555 1_555
C44_9 C43_9 1_555 1_555
C45_9 C44_9 1_555 1_555
C46_9 C42_9 1_555 1_555
C47_9 C45_9 1_555 1_555
P5_9 C47_9 1_555 1_555
C48_9 C38_9 1_555 1_555
P6_9 C48_9 1_555 1_555
O13_9 P6_9 1_555 1_555
O22 P6_9 1_555 1_555
O15_9 P6_9 1_555 1_555
O17_9 P5_9 1_555 1_555
O18_7 P5_9 1_555 1_555
Zr5_2 O2_9 1_555 1_555
P1_9 C8_9 1_555 1_555
N6_9 C34_9 1_555 1_555
C39_9 C40_9 1_555 1_555
C45_9 C46_9 1_555 1_555
C4_9 H2_9 1_555 1_555
C2_9 H4_9 1_555 1_555
O3_9 H5_9 1_555 1_555
C8_9 H7_9 1_555 1_555
C8_9 H8_9 1_555 1_555
C40_9 H26_9 1_555 1_555
C39_9 H28_9 1_555 1_555
C42_9 H30_9 1_555 1_555
C47_9 H35_9 1_555 1_555
C43_9 H37_9 1_555 1_555
O18_7 H38_7 1_555 1_555
O15_9 H41_9 1_555 1_555
C44_9 H42_9 1_555 1_555
C48_9 H44_9 1_555 1_555
C5_9 C6_9 1_555 1_555
C6_9 C1_9 1_555 1_555
C7_9 C6_9 1_555 1_555
N1_9 C7_9 1_555 1_555
N2_9 C7_9 1_555 1_555
C9_9 N2_9 1_555 1_555
N3_9 C9_9 1_555 1_555
C10_9 N1_9 1_555 1_555
C11_9 C9_9 1_555 1_555
C12_9 C11_9 1_555 1_555
C13_9 C12_9 1_555 1_555
C14_9 C13_9 1_555 1_555
C15_9 C14_9 1_555 1_555
C16_9 C11_9 1_555 1_555
C17_9 C10_9 1_555 1_555
C19_9 C17_9 1_555 1_555
C20_9 C19_9 1_555 1_555
C24_9 C14_9 1_555 1_555
P3_9 C24_9 1_555 1_555
O4_9 P3_9 1_555 1_555
O21_4 P3_9 1_555 1_555
O6_9 P3_9 1_555 1_555
Zr5_2 O10_9 1_555 1_555
C25_9 C26_9 1_555 1_555
C26_9 C27_9 1_555 1_555
C27_9 C28_9 1_555 1_555
C28_9 C29_9 1_555 1_555
C29_9 C30_9 1_555 1_555
C30_9 C25_9 1_555 1_555
P4_9 O10_9 1_555 1_555
O20_9 P4_9 1_555 1_555
O12_9 P4_9 1_555 1_555
C32_9 C27_9 1_555 1_555
N3_9 C10_9 1_555 1_555
C15_9 C16_9 1_555 1_555
P4_9 C32_9 1_555 1_555
C1_9 H1_9 1_555 1_555
C5_9 H3_9 1_555 1_555
O6_9 H6_9 1_555 1_555
C20_9 H10_9 1_555 1_555
C12_9 H14_9 1_555 1_555
C24_9 H15_9 1_555 1_555
C24_9 H16_9 1_555 1_555
C13_9 H17_9 1_555 1_555
C19_9 H20_9 1_555 1_555
C16_9 H21_9 1_555 1_555
C15_9 H22_9 1_555 1_555
C25_9 H24_9 1_555 1_555
C26_9 H25_9 1_555 1_555
C28_9 H27_9 1_555 1_555
C29_9 H29_9 1_555 1_555
C32_9 H31_9 1_555 1_555
C32_9 H32_9 1_555 1_555
O12_9 H33_9 1_555 1_555
C22_9 C18_9 1_555 1_555
C23_9 C21_9 1_555 1_555
P2_9 C23_9 1_555 1_555
O8_9 P2_9 1_555 1_555
C21_9 C22_9 1_555 1_555
C22_9 H9_6 1_555 1_555
C18_9 H13_9 1_555 1_555
C23_9 H18_6 1_555 1_555
C23_9 H19_9 1_555 1_555
O3 H33_10 1_555 1_555
O9 H38_8 1_555 1_555
O7 H39_5 1_555 1_555
O16 H11_7 1_555 1_555
O18 H12_8 1_555 1_555
O16_2 H11_8 1_555 1_555
O18_2 H12_9 1_555 1_555
O12_2 H5_11 1_555 1_555
O3_2 H33_11 1_555 1_555
O9_2 H38_9 1_555 1_555
O7_2 H39_6 1_555 1_555
O16_3 H11_9 1_555 1_555
O18_3 H12_10 1_555 1_555
O3_3 H33_12 1_555 1_555
O9_3 H38_10 1_555 1_555
O7_3 H39_7 1_555 1_555
O6_7 H41_13 1_555 1_555
O15_7 H6_13 1_555 1_555
O18_5 H12_11 1_555 1_555
O3_7 H33_13 1_555 1_555
O12_7 H5_13 1_555 1_555
O7_4 H39_8 1_555 1_555
O15_8 H6_14 1_555 1_555
O18_6 H12_12 1_555 1_555
O3_8 H33_14 1_555 1_555
O12_8 H5_14 1_555 1_555
O6_8 H41_14 1_555 1_555
O15_9 H6_15 1_555 1_555
O18_7 H12_13 1_555 1_555
O3_9 H33_15 1_555 1_555
O12_9 H5_15 1_555 1_555
O6_9 H41_15 1_555 1_555
O16_4 H11_10 1_555 1_555
O18_4 H12_14 1_555 1_555
O3_4 H33_16 1_555 1_555
O12_4 H5_16 1_555 1_555
O9_4 H38_12 1_555 1_555
O6_4 H41_16 1_555 1_555
O15_4 H6_16 1_555 1_555
O15_5 H6_17 1_555 1_555
O3_5 H33_17 1_555 1_555
O12_5 H5_17 1_555 1_555
O9_5 H38_13 1_555 1_555
O6_5 H41_17 1_555 1_555
O15_6 H6_18 1_555 1_555
O3_6 H33_18 1_555 1_555
O12_6 H5_18 1_555 1_555
O9_6 H38_14 1_555 1_555
O6_6 H41_18 1_555 1_555
O7_5 H11_13 1_555 1_555
O7_5 H39_9 1_555 1_555
O7_6 H11_14 1_555 1_555
O7_6 H39_10 1_555 1_555
O16_5 H39_11 1_555 1_555
O18_8 H12_15 1_555 1_555
O16_6 H39_12 1_555 1_555
O18_9 H12_16 1_555 1_555
O7_7 H11_15 1_555 1_555
O7_7 H39_13 1_555 1_555
O16_7 H39_14 1_555 1_555
O16_7 H11_16 1_555 1_555
O9_8 H12_17 1_555 1_555
O7_8 H39_15 1_555 1_555
O16_8 H39_16 1_555 1_555
O16_8 H11_17 1_555 1_555
O16_9 H39_17 1_555 1_555
O16_9 H11_18 1_555 1_555
O9_9 H12_18 1_555 1_555
O7_9 H39_18 1_555 1_555

#END
