
###############################################################################
#
# This file contains modified crystal structure data generated from the
# MOF subset of the Cambridge Structural Database (CSD) v543 
# hosted by the Cambridge Crystallographic Data Centre (CCDC).
#
# This work is licensed under the Creative Commons
# Attribution-NonCommercial-ShareAlike 4.0 International License.
# To view a copy of this license, visit
# http://creativecommons.org/licenses/by-nc-sa/4.0/
# or send a letter to
# Creative Commons, PO Box 1866, Mountain View, CA 94042, USA.
#
# CIF created using the CSD Python API on 29 September 2022
# The structure has been converted into the P1 space group
# The structure has a 3D framework
# The original CSD entry JOMXOB is in the trigonal crystal system
# The original CSD entry JOMXOB is in a Sohncke space group
# The framework has been calculated to contain at least 10.0% void space
# The void calculation uses a probe of radius 1.32A, grid spacing 0.4
#
###############################################################################

data_JOMXOB
_chemical_formula_moiety         '(C204 H234 Cu30 Dy6 N36 O130)n'
_symmetry_cell_setting           triclinic
_symmetry_space_group_name_H-M   'P 1'
_symmetry_Int_Tables_number      1
_space_group_name_Hall           'P 1'
loop_
_symmetry_equiv_pos_site_id
_symmetry_equiv_pos_as_xyz
1 x,y,z
_cell_length_a                   14.7078(3)
_cell_length_b                   14.7078(3)
_cell_length_c                   42.1444(8)
_cell_angle_alpha                90
_cell_angle_beta                 90
_cell_angle_gamma                120
_cell_volume                     7895.25
loop_
_atom_site_label
_atom_site_type_symbol
_atom_site_fract_x
_atom_site_fract_y
_atom_site_fract_z
C9 C 0.3943(11) 0.1070(10) 0.0174(3)
H10 H 0.4469 0.1731 0.0238
N4 N 0.3590(9) 0.0343(8) 0.0375(2)
C10 C 0.3978(16) 0.0543(13) 0.0701(4)
H11 H 0.4736 0.0983 0.0697
H12 H 0.3695 0.0928 0.0810
H14 H 0.4821 0.0027 0.1199
H15 H 0.3855 0.0111 0.1318
C16 C 0.2796(14) 0.0306(11) 0.2085(4)
H20 H 0.3158 0.0929 0.2199
C17 C 0.2158(13) 0.0227(10) 0.1841(3)
H21 H 0.2060 0.0791 0.1795
C4 C 0.2922(13) 0.0890(13) 0.9235(4)
H7 H 0.2677 0.0871 0.9030
C5 C 0.3729(12) 0.1785(13) 0.9337(4)
H8 H 0.4074 0.2362 0.9203
C6 C 0.4033(13) 0.1830(12) 0.9643(4)
H9 H 0.4559 0.2464 0.9725
C7 C 0.3570(11) 0.0939(10) 0.9840(3)
C8 C 0.2747(11) 0.0005(10) 0.9727(3)
Cu1 Cu 0.06690(10) 0.70185(10) 0.05198(3)
Cu2 Cu 0.27166(12) 0.88669(11) 0.03037(3)
Cu3 Cu 0.03255(10) 0.71770(11) 0.12161(3)
Cu5 Cu 0.25817(10) 0.75503(11) 0.10564(3)
O10 O 0.1785(6) 0.7384(6) 0.02012(17)
C1 C 0.2240(11) 0.6726(12) 0.0185(3)
H1 H 0.2783 0.6992 0.0027
H2 H 0.1709 0.6025 0.0130
H3 H 0.2535 0.6718 0.0387
C11 C 0.3712(16) 0.9620(12) 0.0874(4)
H13 H 0.4285 0.9543 0.0784
O13 O 0.2938(6) 0.8679(7) 0.07556(19)
C12 C 0.4061(14) 0.9686(12) 0.1195(3)
O14 O 0.3634(7) 0.8688(8) 0.1334(2)
C13 C 0.2902(16) 0.7606(15) 0.2335(4)
H16 H 0.3540 0.8261 0.2368
H17 H 0.3057 0.7045 0.2331
H18 H 0.2422 0.7491 0.2506
O15 O 0.2456(7) 0.7638(8) 0.2052(2)
C14 C 0.2390(10) 0.8550(13) 0.1997(3)
C15 C 0.2897(12) 0.9473(13) 0.2159(3)
H19 H 0.3329 0.9528 0.2328
C18 C 0.1632(12) 0.9300(10) 0.1652(3)
C19 C 0.1751(9) 0.8456(9) 0.1731(3)
O16 O 0.1280(6) 0.7539(6) 0.15686(17)
C20 C 0.1129(10) 0.9355(11) 0.1367(3)
H22 H 0.1147 0.9986 0.1328
N5 N 0.0660(9) 0.8633(9) 0.1163(2)
C21 C 0.0284(12) 0.8804(11) 0.0855(3)
H23 H 0.0860 0.9117 0.0705
H24 H 0.0010 0.9277 0.0883
O18 O 0.0254(7) 0.7767(7) 0.02427(17)
H36 H 0.0023 0.3952 0.1292
C34 C 0.0796(8) 0.5487(8) 0.0891(2)
H38 H 0.1260 0.5326 0.1011
H39 H 0.0671 0.5137 0.0687
O22 O 0.1309(5) 0.6587(6) 0.08396(16)
Cu7 Cu 0.13063(10) 0.62659(14) 0.17122(3)
O23 O 0.4173(7) 0.8798(8) 0.0050(3)
O26 O 0.3746(7) 0.7061(11) 0.0917(2)
O27 O 0.2399(6) 0.6525(8) 0.13943(17)
O28 O 0.0111(6) 0.5840(8) 0.20036(15)
Cu4 Cu 0.86937(10) 0.49596(10) 0.16211(3)
O8 O 0.9457(9) 0.5391(9) 0.0293(2)
N3 N 0.9424(9) 0.5068(8) 0.0021(2)
C22 C 0.9441(11) 0.7769(12) 0.0733(3)
H25 H 0.8766 0.7625 0.0822
O17 O 0.9612(6) 0.6940(6) 0.08132(16)
C23 C 0.9375(11) 0.7779(12) 0.0370(3)
H26 H 0.8735 0.7169 0.0298
H27 H 0.9368 0.8404 0.0300
C24 C 0.5395(14) 0.2927(14) 0.2636(4)
H28 H 0.4744 0.2550 0.2522
H29 H 0.5414 0.3507 0.2747
H30 H 0.5453 0.2467 0.2785
O19 O 0.6254(7) 0.3315(8) 0.2416(2)
C25 C 0.6306(10) 0.2627(11) 0.2211(3)
C26 C 0.5702(11) 0.1558(11) 0.2239(3)
H31 H 0.5204 0.1270 0.2400
C27 C 0.5832(13) 0.0886(12) 0.2023(4)
H32 H 0.5408 0.0162 0.2040
C28 C 0.6587(12) 0.1314(11) 0.1789(4)
H33 H 0.6686 0.0880 0.1650
C29 C 0.7211(10) 0.2418(10) 0.1763(3)
C30 C 0.7055(9) 0.3072(9) 0.1961(2)
O20 O 0.7601(6) 0.4126(6) 0.19390(17)
C31 C 0.7972(10) 0.2753(10) 0.1519(3)
H34 H 0.8010 0.2235 0.1403
N6 N 0.8622(7) 0.3725(7) 0.1444(2)
C32 C 0.9428(10) 0.3968(10) 0.1199(3)
H35 H 0.9142 0.3447 0.1032
C33 C 0.9780(10) 0.5055(8) 0.1063(2)
H37 H 0.9241 0.5016 0.0918
O21 O 0.9889(6) 0.5729(6) 0.13297(15)
Cu8 Cu 0.74183(10) 0.49686(15) 0.22769(3)
O24 O 0.7544(7) 0.5182(11) 0.1281(2)
O25 O 0.8720(6) 0.6259(8) 0.17647(17)
O4 O 0.9588(12) 0.8273(11) 0.9626(3)
O5 O 0.7937(11) 0.7317(12) 0.9550(3)
O6 O 0.8876(9) 0.6603(9) 0.9665(3)
N2 N 0.8767(13) 0.7387(13) 0.9609(3)
O9 O 0.8798(8) 0.4173(7) 0.9950(3)
Cu6 Cu 0.88669(11) 0.27166(12) 0.96963(3)
Dy1 Dy 0.24415(4) 0.32207(6) 0.309527(12)
Cu1_2 Cu 0.29815(10) 0.36505(14) 0.38531(3)
Cu2_2 Cu 0.11331(11) 0.38497(16) 0.36370(3)
Cu3_2 Cu 0.28230(11) 0.31485(15) 0.45494(3)
Cu4_2 Cu 0.50404(10) 0.37341(14) 0.49544(3)
Cu5_2 Cu 0.24497(11) 0.50314(15) 0.43897(3)
O1 O 0.2749(10) 0.4805(14) 0.2815(3)
O2 O 0.3478(13) 0.5253(18) 0.2350(3)
O3 O 0.3201(9) 0.3831(14) 0.2560(2)
N1 N 0.3150(11) 0.4647(19) 0.2565(3)
O4_2 O 0.1727(11) 0.1315(16) 0.2959(3)
O5_2 O 0.2683(12) 0.0620(16) 0.2883(3)
O6_2 O 0.3397(9) 0.2273(13) 0.2998(3)
N2_2 N 0.2613(13) 0.1380(18) 0.2942(3)
O7 O 0.4297(7) 0.4389(11) 0.3153(2)
O8_2 O 0.4609(9) 0.4066(13) 0.3626(2)
O9_2 O 0.5827(7) 0.4625(11) 0.3283(3)
N3_2 N 0.4932(8) 0.4356(12) 0.3354(2)
O10_2 O 0.2616(6) 0.4401(8) 0.35345(17)
C1_2 C 0.3274(12) 0.5514(16) 0.3518(3)
H1_2 H 0.3008 0.5791 0.3360
H2_2 H 0.3975 0.5684 0.3463
H3_2 H 0.3282 0.5817 0.3720
C2 C 0.1004(13) 0.1999(19) 0.2387(3)
H4 H 0.0407 0.1301 0.2384
H5 H 0.1637 0.1961 0.2388
H6 H 0.0991 0.2373 0.2202
O11 O 0.0968(8) 0.2535(12) 0.2666(2)
C3 C 0.0021(11) 0.2442(16) 0.2750(3)
O12 O 0.0863(7) 0.3119(10) 0.3230(2)
C11_2 C 0.0380(12) 0.4092(20) 0.4207(4)
H13_2 H 0.0457 0.4742 0.4117
O13_2 O 0.1321(7) 0.4259(9) 0.40889(19)
C12_2 C 0.0314(12) 0.4375(18) 0.4528(3)
O14_2 O 0.1312(8) 0.4946(11) 0.4667(2)
C13_2 C 0.2394(15) 0.5296(22) 0.5668(4)
H16_2 H 0.1739 0.5279 0.5701
H17_2 H 0.2955 0.6012 0.5664
H18_2 H 0.2509 0.4931 0.5839
O15_2 O 0.2362(8) 0.4818(11) 0.5385(2)
C14_2 C 0.1450(13) 0.3840(16) 0.5330(3)
C15_2 C 0.0527(13) 0.3424(18) 0.5492(3)
H19_2 H 0.0472 0.3801 0.5661
C18_2 C 0.0700(10) 0.2332(16) 0.4985(3)
C19_2 C 0.1544(9) 0.3295(13) 0.5064(3)
O16_2 O 0.2461(6) 0.3741(8) 0.49019(17)
C20_2 C 0.0645(11) 0.1774(15) 0.4700(3)
H22_2 H 0.0014 0.1161 0.4661
N5_2 N 0.1367(9) 0.2027(13) 0.4496(2)
C21_2 C 0.1196(11) 0.1480(16) 0.4188(3)
H23_2 H 0.0883 0.1743 0.4038
H24_2 H 0.0723 0.0733 0.4216
C22_2 C 0.2231(12) 0.1672(16) 0.4066(3)
H25_2 H 0.2375 0.1141 0.4155
O17_2 O 0.3060(6) 0.2672(8) 0.41465(16)
C23_2 C 0.2221(12) 0.1596(16) 0.3703(3)
H26_2 H 0.2831 0.1566 0.3631
H27_2 H 0.1596 0.0964 0.3633
O18_2 O 0.2233(7) 0.2487(10) 0.35760(17)
C24_2 C 0.7073(14) 0.2468(20) 0.5969(4)
H28_2 H 0.7450 0.2194 0.5855
H29_2 H 0.6493 0.1907 0.6080
H30_2 H 0.7533 0.2986 0.6118
O19_2 O 0.6685(8) 0.2939(11) 0.5749(2)
C25_2 C 0.7373(11) 0.3679(15) 0.5544(3)
C26_2 C 0.8442(11) 0.4144(16) 0.5572(3)
H31_2 H 0.8730 0.3934 0.5733
C27_2 C 0.9114(12) 0.4946(18) 0.5356(4)
H32_2 H 0.9838 0.5246 0.5373
C28_2 C 0.8686(11) 0.5273(16) 0.5122(4)
H33_2 H 0.9120 0.5806 0.4983
C29_2 C 0.7582(10) 0.4793(14) 0.5096(3)
C30_2 C 0.6928(9) 0.3983(13) 0.5294(2)
O20_2 O 0.5874(6) 0.3475(8) 0.52723(17)
C31_2 C 0.7247(10) 0.5219(14) 0.4852(3)
H34_2 H 0.7765 0.5775 0.4736
N6_2 N 0.6275(7) 0.4897(10) 0.4777(2)
C32_2 C 0.6032(10) 0.5460(14) 0.4532(3)
H35_2 H 0.6553 0.5695 0.4365
H36_2 H 0.6048 0.6071 0.4625
C33_2 C 0.4945(8) 0.4725(13) 0.4396(2)
H37_2 H 0.4984 0.4225 0.4251
O21_2 O 0.4271(6) 0.4160(8) 0.46630(15)
C34_2 C 0.4513(8) 0.5309(11) 0.4224(2)
H38_2 H 0.4674 0.5934 0.4344
H39_2 H 0.4863 0.5534 0.4020
O22_2 O 0.3413(6) 0.4722(8) 0.41729(16)
Cu6_2 Cu 0.72834(12) 0.61503(16) 0.30296(3)
Cu7_2 Cu 0.37341(14) 0.50404(17) 0.50456(3)
Cu8_2 Cu 0.50314(15) 0.24497(18) 0.56103(3)
O23_2 O 0.1202(8) 0.5375(11) 0.3383(3)
O24_2 O 0.4818(11) 0.2362(13) 0.4615(2)
O25_2 O 0.3741(8) 0.2461(10) 0.50981(17)
O26_2 O 0.2939(11) 0.6685(13) 0.4251(2)
O27_2 O 0.3475(8) 0.5874(10) 0.47277(17)
O28_2 O 0.4160(8) 0.4271(10) 0.53370(15)
Cu4_3 Cu 0.62659(14) 0.13063(10) 0.82878(3)
O4_3 O 0.8685(16) 0.0412(12) 0.6293(3)
O5_3 O 0.9380(16) 0.2063(11) 0.6217(3)
O6_3 O 0.7727(13) 0.1124(9) 0.6332(3)
N2_3 N 0.8620(18) 0.1233(13) 0.6276(3)
O8_3 O 0.5934(13) 0.0543(9) 0.6960(2)
O9_3 O 0.5375(11) 0.1202(8) 0.6617(3)
N3_3 N 0.5644(12) 0.0576(9) 0.6688(2)
C22_3 C 0.8328(16) 0.0559(11) 0.7400(3)
H25_3 H 0.8859 0.1234 0.7489
O17_3 O 0.7328(8) 0.0388(6) 0.74799(16)
C23_3 C 0.8404(16) 0.0625(11) 0.7037(3)
H26_3 H 0.8434 0.1265 0.6965
H27_3 H 0.9036 0.0632 0.6967
C24_3 C 0.7532(20) 0.4605(14) 0.9303(4)
H28_3 H 0.7806 0.5256 0.9189
H29_3 H 0.8093 0.4586 0.9414
H30_3 H 0.7014 0.4547 0.9452
O19_3 O 0.7061(11) 0.3746(7) 0.9083(2)
C25_3 C 0.6321(15) 0.3694(10) 0.8878(3)
C26_3 C 0.5856(16) 0.4298(11) 0.8906(3)
H31_3 H 0.6066 0.4796 0.9067
C27_3 C 0.5054(18) 0.4168(13) 0.8690(4)
H32_3 H 0.4754 0.4592 0.8707
C28_3 C 0.4727(16) 0.3413(12) 0.8456(4)
H33_3 H 0.4194 0.3314 0.8317
C29_3 C 0.5207(14) 0.2789(10) 0.8430(3)
C30_3 C 0.6017(13) 0.2945(9) 0.8628(2)
O20_3 O 0.6525(8) 0.2399(6) 0.86057(17)
C31_3 C 0.4781(14) 0.2028(10) 0.8186(3)
H34_3 H 0.4225 0.1990 0.8070
N6_3 N 0.5103(10) 0.1378(7) 0.8111(2)
C32_3 C 0.4540(14) 0.0572(10) 0.7866(3)
H35_3 H 0.4305 0.0858 0.7699
C33_3 C 0.5275(13) 0.0220(10) 0.7730(2)
H37_3 H 0.5775 0.0759 0.7585
O21_3 O 0.5840(8) 0.0111(6) 0.79964(15)
Cu6_3 Cu 0.38497(16) 0.11331(11) 0.63630(3)
Cu8_3 Cu 0.75503(18) 0.25817(10) 0.89436(3)
O24_3 O 0.7638(13) 0.2456(7) 0.7948(2)
O25_3 O 0.7539(10) 0.1280(6) 0.84314(17)
Dy1_2 Dy 0.67793(6) 0.92208(5) 0.642861(12)
Cu1_3 Cu 0.63495(14) 0.93310(10) 0.71865(3)
Cu2_3 Cu 0.61503(16) 0.72834(12) 0.69704(3)
Cu3_3 Cu 0.68515(15) 0.96745(10) 0.78828(3)
Cu5_3 Cu 0.49686(15) 0.74183(10) 0.77231(3)
O1_2 O 0.5195(14) 0.7944(10) 0.6149(3)
O2_2 O 0.4747(18) 0.8225(13) 0.5684(3)
O3_2 O 0.6169(14) 0.9370(11) 0.5894(2)
N1_2 N 0.5353(19) 0.8503(15) 0.5899(3)
O7_2 O 0.5611(11) 0.9908(8) 0.6487(2)
O10_3 O 0.5599(8) 0.8215(6) 0.68679(17)
C1_3 C 0.4486(16) 0.7760(11) 0.6852(3)
H1_3 H 0.4209 0.7217 0.6694
H2_3 H 0.4316 0.8291 0.6797
H3_3 H 0.4183 0.7465 0.7054
C2_2 C 0.8001(19) 0.9005(14) 0.5721(3)
H4_2 H 0.8699 0.9106 0.5718
H5_2 H 0.8039 0.9676 0.5722
H6_2 H 0.7627 0.8618 0.5536
O11_2 O 0.7465(12) 0.8433(9) 0.6000(2)
C3_2 C 0.7558(16) 0.7579(12) 0.6084(3)
C4_2 C 0.7968(18) 0.7078(13) 0.5902(4)
H7_2 H 0.8194 0.7323 0.5697
C5_2 C 0.8056(18) 0.6271(12) 0.6004(4)
H8_2 H 0.8288 0.5926 0.5870
C6_2 C 0.7797(18) 0.5967(13) 0.6310(4)
H9_2 H 0.7905 0.5441 0.6392
C7_2 C 0.7369(15) 0.6430(11) 0.6507(3)
C8_2 C 0.7258(15) 0.7253(11) 0.6394(3)
O12_2 O 0.6881(10) 0.7744(7) 0.6564(2)
C9_2 C 0.7127(15) 0.6057(11) 0.6841(3)
H10_2 H 0.7262 0.5531 0.6905
N4_2 N 0.6753(12) 0.6410(9) 0.7042(2)
C10_2 C 0.6565(21) 0.6022(16) 0.7368(4)
H11_2 H 0.6247 0.5264 0.7364
H12_2 H 0.7233 0.6305 0.7477
C11_3 C 0.5908(20) 0.6288(16) 0.7541(4)
H13_3 H 0.5258 0.5715 0.7451
O13_3 O 0.5741(9) 0.7062(6) 0.74223(19)
C12_3 C 0.5625(18) 0.5939(14) 0.7862(3)
H14_2 H 0.5206 0.5179 0.7866
H15_2 H 0.6256 0.6145 0.7985
O14_3 O 0.5054(11) 0.6366(7) 0.8001(2)
C13_3 C 0.4704(22) 0.7098(16) 0.9002(4)
H16_3 H 0.4721 0.6460 0.9035
H17_3 H 0.3988 0.6943 0.8998
H18_3 H 0.5069 0.7578 0.9173
O15_3 O 0.5182(11) 0.7544(7) 0.8719(2)
C14_3 C 0.6160(16) 0.7610(10) 0.8664(3)
C15_3 C 0.6576(18) 0.7103(12) 0.8826(3)
H19_3 H 0.6199 0.6671 0.8995
C16_2 C 0.7510(18) 0.7204(14) 0.8752(4)
H20_2 H 0.7771 0.6842 0.8866
C17_2 C 0.8069(16) 0.7842(13) 0.8508(3)
H21_2 H 0.8731 0.7940 0.8462
C18_3 C 0.7668(16) 0.8368(12) 0.8319(3)
C19_3 C 0.6705(13) 0.8249(9) 0.8398(3)
O16_3 O 0.6259(8) 0.8720(6) 0.82353(17)
C20_3 C 0.8226(15) 0.8871(10) 0.8034(3)
H22_3 H 0.8839 0.8853 0.7995
N5_3 N 0.7973(13) 0.9340(9) 0.7830(2)
C21_3 C 0.8520(16) 0.9716(12) 0.7522(3)
H23_3 H 0.8257 0.9140 0.7372
H24_3 H 0.9267 0.9990 0.7550
O18_3 O 0.7513(10) 0.9746(7) 0.69094(17)
H36_3 H 0.3929 0.9977 0.7959
C34_3 C 0.4691(11) 0.9204(8) 0.7558(2)
H38_3 H 0.4066 0.8740 0.7678
H39_3 H 0.4466 0.9329 0.7354
O22_3 O 0.5278(8) 0.8691(5) 0.75063(16)
Cu7_3 Cu 0.49596(17) 0.86937(10) 0.83789(3)
O23_3 O 0.4625(11) 0.5827(7) 0.6717(3)
O26_3 O 0.3315(13) 0.6254(7) 0.7584(2)
O27_3 O 0.4126(10) 0.7601(6) 0.80610(17)
O28_3 O 0.5729(10) 0.9889(6) 0.86703(15)
Cu1_4 Cu 0.70185(10) 0.06690(10) 0.94802(3)
Cu3_4 Cu 0.71770(11) 0.03255(10) 0.87839(3)
O10_4 O 0.7384(6) 0.1785(6) 0.97988(17)
C1_4 C 0.6726(12) 0.2240(11) 0.9815(3)
H1_4 H 0.6992 0.2783 0.9973
H2_4 H 0.6025 0.1709 0.9870
H3_4 H 0.6718 0.2535 0.9613
C11_4 C 0.9620(12) 0.3712(16) 0.9126(4)
H13_4 H 0.9543 0.4285 0.9216
O13_4 O 0.8679(7) 0.2938(6) 0.92444(19)
C12_4 C 0.9686(12) 0.4061(14) 0.8805(3)
O14_4 O 0.8688(8) 0.3634(7) 0.8666(2)
C13_4 C 0.7606(15) 0.2902(16) 0.7665(4)
H16_4 H 0.8261 0.3540 0.7632
H17_4 H 0.7045 0.3057 0.7669
H18_4 H 0.7491 0.2422 0.7494
C14_4 C 0.8550(13) 0.2390(10) 0.8003(3)
C15_4 C 0.9473(13) 0.2897(12) 0.7841(3)
H19_4 H 0.9528 0.3329 0.7672
C18_4 C 0.9300(10) 0.1632(12) 0.8348(3)
C19_4 C 0.8456(9) 0.1751(9) 0.8269(3)
C20_4 C 0.9355(11) 0.1129(10) 0.8633(3)
H22_4 H 0.9986 0.1147 0.8672
N5_4 N 0.8633(9) 0.0660(9) 0.8837(2)
C21_4 C 0.8804(11) 0.0284(12) 0.9145(3)
H23_4 H 0.9117 0.0860 0.9295
H24_4 H 0.9277 0.0010 0.9117
O18_4 O 0.7767(7) 0.0254(7) 0.97573(17)
H36_4 H 0.3952 0.0023 0.8708
C34_4 C 0.5487(8) 0.0796(8) 0.9109(2)
H38_4 H 0.5326 0.1260 0.8989
H39_4 H 0.5137 0.0671 0.9313
O22_4 O 0.6587(6) 0.1309(5) 0.91604(16)
O4_4 O 0.8273(11) 0.9588(12) 0.0374(3)
O5_4 O 0.7317(12) 0.7937(11) 0.0450(3)
O6_4 O 0.6603(9) 0.8876(9) 0.0335(3)
N2_4 N 0.7387(13) 0.8767(13) 0.0391(3)
O8_4 O 0.5391(9) 0.9457(9) 0.9707(2)
N3_4 N 0.5068(8) 0.9424(9) 0.9979(2)
C22_4 C 0.7769(12) 0.9441(11) 0.9267(3)
H25_4 H 0.7625 0.8766 0.9178
O17_4 O 0.6940(6) 0.9612(6) 0.91868(16)
C23_4 C 0.7779(12) 0.9375(11) 0.9630(3)
H26_4 H 0.7169 0.8735 0.9702
H27_4 H 0.8404 0.9368 0.9700
C24_4 C 0.2927(14) 0.5395(14) 0.7364(4)
H28_4 H 0.2550 0.4744 0.7478
H29_4 H 0.3507 0.5414 0.7253
H30_4 H 0.2467 0.5453 0.7215
C25_4 C 0.2627(11) 0.6306(10) 0.7789(3)
C26_4 C 0.1558(11) 0.5702(11) 0.7761(3)
H31_4 H 0.1270 0.5204 0.7600
C27_4 C 0.0886(12) 0.5832(13) 0.7977(4)
H32_4 H 0.0162 0.5408 0.7960
C28_4 C 0.1314(11) 0.6587(12) 0.8211(4)
H33_4 H 0.0880 0.6686 0.8350
C29_4 C 0.2418(10) 0.7211(10) 0.8237(3)
C30_4 C 0.3072(9) 0.7055(9) 0.8039(2)
C31_4 C 0.2753(10) 0.7972(10) 0.8481(3)
H34_4 H 0.2235 0.8010 0.8597
N6_4 N 0.3725(7) 0.8622(7) 0.8556(2)
C32_4 C 0.3968(10) 0.9428(10) 0.8801(3)
H35_4 H 0.3447 0.9142 0.8968
C33_4 C 0.5055(8) 0.9780(10) 0.8937(2)
H37_4 H 0.5016 0.9241 0.9082
O4_5 O 0.0412(12) 0.8685(16) 0.3707(3)
O5_5 O 0.2063(11) 0.9380(16) 0.3783(3)
O6_5 O 0.1124(9) 0.7727(13) 0.3668(3)
N2_5 N 0.1233(13) 0.8620(18) 0.3724(3)
O8_5 O 0.0543(9) 0.5934(13) 0.3040(2)
N3_5 N 0.0576(9) 0.5644(12) 0.3312(2)
C22_5 C 0.0559(11) 0.8328(16) 0.2600(3)
H25_5 H 0.1234 0.8859 0.2511
O17_5 O 0.0388(6) 0.7328(8) 0.25201(16)
C23_5 C 0.0625(11) 0.8404(16) 0.2963(3)
H26_5 H 0.1265 0.8434 0.3035
H27_5 H 0.0632 0.9036 0.3033
C24_5 C 0.4605(14) 0.7532(20) 0.0697(4)
H28_5 H 0.5256 0.7806 0.0811
H29_5 H 0.4586 0.8093 0.0586
H30_5 H 0.4547 0.7014 0.0548
C25_5 C 0.3694(10) 0.6321(15) 0.1122(3)
C26_5 C 0.4298(11) 0.5856(16) 0.1094(3)
H31_5 H 0.4796 0.6066 0.0933
C27_5 C 0.4168(13) 0.5054(18) 0.1310(4)
H32_5 H 0.4592 0.4754 0.1293
C28_5 C 0.3413(12) 0.4727(16) 0.1544(4)
H33_5 H 0.3314 0.4194 0.1683
C29_5 C 0.2789(10) 0.5207(14) 0.1570(3)
C30_5 C 0.2945(9) 0.6017(13) 0.1372(2)
C31_5 C 0.2028(10) 0.4781(14) 0.1814(3)
H34_5 H 0.1990 0.4225 0.1930
N6_5 N 0.1378(7) 0.5103(10) 0.1889(2)
C32_5 C 0.0572(10) 0.4540(14) 0.2134(3)
H35_5 H 0.0858 0.4305 0.2301
C33_5 C 0.0220(10) 0.5275(13) 0.2270(2)
H37_5 H 0.0759 0.5775 0.2415
Dy1_3 Dy 0.92208(5) 0.67793(6) 0.357139(12)
Cu1_5 Cu 0.93310(10) 0.63495(14) 0.28135(3)
Cu3_5 Cu 0.96745(10) 0.68515(15) 0.21172(3)
O1_3 O 0.7944(10) 0.5195(14) 0.3851(3)
O2_3 O 0.8225(13) 0.4747(18) 0.4316(3)
O3_3 O 0.9370(11) 0.6169(14) 0.4106(2)
N1_3 N 0.8503(15) 0.5353(19) 0.4101(3)
O7_3 O 0.9908(8) 0.5611(11) 0.3513(2)
O10_5 O 0.8215(6) 0.5599(8) 0.31321(17)
C1_5 C 0.7760(11) 0.4486(16) 0.3148(3)
H1_5 H 0.7217 0.4209 0.3306
H2_5 H 0.8291 0.4316 0.3203
H3_5 H 0.7465 0.4183 0.2946
C2_3 C 0.9005(14) 0.8001(19) 0.4279(3)
H4_3 H 0.9106 0.8699 0.4282
H5_3 H 0.9676 0.8039 0.4278
H6_3 H 0.8618 0.7627 0.4464
O11_3 O 0.8433(9) 0.7465(12) 0.4000(2)
C3_3 C 0.7579(12) 0.7558(16) 0.3916(3)
C4_3 C 0.7078(13) 0.7968(18) 0.4098(4)
H7_3 H 0.7323 0.8194 0.4303
C5_3 C 0.6271(12) 0.8056(18) 0.3996(4)
H8_3 H 0.5926 0.8288 0.4130
C6_3 C 0.5967(13) 0.7797(18) 0.3690(4)
H9_3 H 0.5441 0.7905 0.3608
C7_3 C 0.6430(11) 0.7369(15) 0.3493(3)
C8_3 C 0.7253(11) 0.7258(15) 0.3606(3)
O12_3 O 0.7744(7) 0.6881(10) 0.3436(2)
C9_3 C 0.6057(11) 0.7127(15) 0.3159(3)
H10_3 H 0.5531 0.7262 0.3095
N4_3 N 0.6410(9) 0.6753(12) 0.2958(2)
C10_3 C 0.6022(16) 0.6565(21) 0.2632(4)
H11_3 H 0.5264 0.6247 0.2636
H12_3 H 0.6305 0.7233 0.2523
C11_5 C 0.6288(16) 0.5908(20) 0.2459(4)
H13_5 H 0.5715 0.5258 0.2549
O13_5 O 0.7062(6) 0.5741(9) 0.25777(19)
C12_5 C 0.5939(14) 0.5625(18) 0.2138(3)
H14_3 H 0.5179 0.5206 0.2134
H15_3 H 0.6145 0.6256 0.2015
O14_5 O 0.6366(7) 0.5054(11) 0.1999(2)
C13_5 C 0.7098(16) 0.4704(22) 0.0998(4)
H16_5 H 0.6460 0.4721 0.0965
H17_5 H 0.6943 0.3988 0.1002
H18_5 H 0.7578 0.5069 0.0827
C14_5 C 0.7610(10) 0.6160(16) 0.1336(3)
C15_5 C 0.7103(12) 0.6576(18) 0.1174(3)
H19_5 H 0.6671 0.6199 0.1005
C16_3 C 0.7204(14) 0.7510(18) 0.1248(4)
H20_3 H 0.6842 0.7771 0.1134
C17_3 C 0.7842(13) 0.8069(16) 0.1492(3)
H21_3 H 0.7940 0.8731 0.1538
C18_5 C 0.8368(12) 0.7668(16) 0.1681(3)
C19_5 C 0.8249(9) 0.6705(13) 0.1602(3)
C20_5 C 0.8871(10) 0.8226(15) 0.1966(3)
H22_5 H 0.8853 0.8839 0.2005
N5_5 N 0.9340(9) 0.7973(13) 0.2170(2)
C21_5 C 0.9716(12) 0.8520(16) 0.2478(3)
H23_5 H 0.9140 0.8257 0.2628
H24_5 H 0.9990 0.9267 0.2450
O18_5 O 0.9746(7) 0.7513(10) 0.30906(17)
H36_5 H 0.9977 0.3929 0.2041
C34_5 C 0.9204(8) 0.4691(11) 0.2442(2)
H38_5 H 0.8740 0.4066 0.2322
H39_5 H 0.9329 0.4466 0.2646
O22_5 O 0.8691(5) 0.5278(8) 0.24937(16)
Dy1_4 Dy 0.32207(6) 0.24415(4) 0.690473(12)
Cu1_6 Cu 0.36505(14) 0.29815(10) 0.61469(3)
Cu3_6 Cu 0.31485(15) 0.28230(11) 0.54506(3)
O1_4 O 0.4805(14) 0.2749(10) 0.7185(3)
O2_4 O 0.5253(18) 0.3478(13) 0.7650(3)
O3_4 O 0.3831(14) 0.3201(9) 0.7440(2)
N1_4 N 0.4647(19) 0.3150(11) 0.7435(3)
O4_6 O 0.1315(16) 0.1727(11) 0.7041(3)
O5_6 O 0.0620(16) 0.2683(12) 0.7117(3)
O6_6 O 0.2273(13) 0.3397(9) 0.7002(3)
N2_6 N 0.1380(18) 0.2613(13) 0.7058(3)
O7_4 O 0.4389(11) 0.4297(7) 0.6847(2)
O8_6 O 0.4066(13) 0.4609(9) 0.6374(2)
N3_6 N 0.4356(12) 0.4932(8) 0.6646(2)
O10_6 O 0.4401(8) 0.2616(6) 0.64655(17)
C1_6 C 0.5514(16) 0.3274(12) 0.6482(3)
H1_6 H 0.5791 0.3008 0.6640
H2_6 H 0.5684 0.3975 0.6537
H3_6 H 0.5817 0.3282 0.6280
C2_4 C 0.1999(19) 0.1004(13) 0.7613(3)
H4_4 H 0.1301 0.0407 0.7616
H5_4 H 0.1961 0.1637 0.7612
H6_4 H 0.2373 0.0991 0.7798
O11_4 O 0.2535(12) 0.0968(8) 0.7334(2)
C3_4 C 0.2442(16) 0.0021(11) 0.7250(3)
O12_4 O 0.3119(10) 0.0863(7) 0.6770(2)
C11_6 C 0.4092(20) 0.0380(12) 0.5793(4)
H13_6 H 0.4742 0.0457 0.5883
O13_6 O 0.4259(9) 0.1321(7) 0.59111(19)
C12_6 C 0.4375(18) 0.0314(12) 0.5472(3)
O14_6 O 0.4946(11) 0.1312(8) 0.5333(2)
C13_6 C 0.5296(22) 0.2394(15) 0.4332(4)
H16_6 H 0.5279 0.1739 0.4299
H17_6 H 0.6012 0.2955 0.4336
H18_6 H 0.4931 0.2509 0.4161
C14_6 C 0.3840(16) 0.1450(13) 0.4670(3)
C15_6 C 0.3424(18) 0.0527(13) 0.4508(3)
H19_6 H 0.3801 0.0472 0.4339
C18_6 C 0.2332(16) 0.0700(10) 0.5015(3)
C19_6 C 0.3295(13) 0.1544(9) 0.4936(3)
C20_6 C 0.1774(15) 0.0645(11) 0.5300(3)
H22_6 H 0.1161 0.0014 0.5339
N5_6 N 0.2027(13) 0.1367(9) 0.5504(2)
C21_6 C 0.1480(16) 0.1196(11) 0.5812(3)
H23_6 H 0.1743 0.0883 0.5962
H24_6 H 0.0733 0.0723 0.5784
C22_6 C 0.1672(16) 0.2231(12) 0.5934(3)
H25_6 H 0.1141 0.2375 0.5845
O17_6 O 0.2672(8) 0.3060(6) 0.58535(16)
C23_6 C 0.1596(16) 0.2221(12) 0.6297(3)
H26_6 H 0.1566 0.2831 0.6369
H27_6 H 0.0964 0.1596 0.6367
O18_6 O 0.2487(10) 0.2233(7) 0.64240(17)
C24_6 C 0.2468(20) 0.7073(14) 0.4031(4)
H28_6 H 0.2194 0.7450 0.4145
H29_6 H 0.1907 0.6493 0.3920
H30_6 H 0.2986 0.7533 0.3882
C25_6 C 0.3679(15) 0.7373(11) 0.4456(3)
C26_6 C 0.4144(16) 0.8442(11) 0.4428(3)
H31_6 H 0.3934 0.8730 0.4267
C27_6 C 0.4946(18) 0.9114(12) 0.4644(4)
H32_6 H 0.5246 0.9838 0.4627
C28_6 C 0.5273(16) 0.8686(11) 0.4878(4)
H33_6 H 0.5806 0.9120 0.5017
C29_6 C 0.4793(14) 0.7582(10) 0.4904(3)
C30_6 C 0.3983(13) 0.6928(9) 0.4706(2)
C31_6 C 0.5219(14) 0.7247(10) 0.5148(3)
H34_6 H 0.5775 0.7765 0.5264
N6_6 N 0.4897(10) 0.6275(7) 0.5223(2)
C32_6 C 0.5460(14) 0.6032(10) 0.5468(3)
H35_6 H 0.5695 0.6553 0.5635
H36_6 H 0.6071 0.6048 0.5375
C33_6 C 0.4725(13) 0.4945(8) 0.5604(2)
H37_6 H 0.4225 0.4984 0.5749
C34_6 C 0.5309(11) 0.4513(8) 0.5776(2)
H38_6 H 0.5934 0.4674 0.5656
H39_6 H 0.5534 0.4863 0.5980
O22_6 O 0.4722(8) 0.3413(6) 0.58271(16)
Dy1_5 Dy 0.07792(5) 0.75585(4) 0.976194(12)
O1_5 O 0.2056(10) 0.7251(10) 0.9482(3)
O2_5 O 0.1775(13) 0.6522(13) 0.9017(3)
O3_5 O 0.0630(11) 0.6799(9) 0.9227(2)
N1_5 N 0.1497(15) 0.6850(11) 0.9232(3)
O7_5 O 0.0092(8) 0.5703(7) 0.9820(2)
C2_5 C 0.0995(14) 0.8996(13) 0.9054(3)
H4_5 H 0.0894 0.9593 0.9051
H5_5 H 0.0324 0.8363 0.9055
H6_5 H 0.1382 0.9009 0.8869
O11_5 O 0.1567(9) 0.9032(8) 0.9333(2)
C3_5 C 0.2421(12) 0.9979(11) 0.9417(3)
O12_5 O 0.2256(7) 0.9137(7) 0.9897(2)
C4_4 C 0.9110(13) 0.2032(18) 0.2568(4)
H7_4 H 0.9129 0.1806 0.2363
C5_4 C 0.8215(13) 0.1944(18) 0.2670(4)
H8_4 H 0.7638 0.1712 0.2536
C6_4 C 0.8170(12) 0.2203(18) 0.2976(4)
H9_4 H 0.7536 0.2095 0.3058
C7_4 C 0.9061(10) 0.2631(15) 0.3173(3)
C8_4 C 0.9995(10) 0.2742(15) 0.3060(3)
C9_4 C 0.8930(10) 0.2873(15) 0.3507(3)
H10_4 H 0.8269 0.2738 0.3571
N4_4 N 0.9657(8) 0.3247(12) 0.3708(2)
C10_4 C 0.9457(13) 0.3435(21) 0.4034(4)
H11_4 H 0.9017 0.3753 0.4030
H12_4 H 0.9072 0.2767 0.4143
H14_4 H 0.9973 0.4794 0.4532
H15_4 H 0.9889 0.3744 0.4651
C16_4 C 0.9694(11) 0.2490(18) 0.5418(4)
H20_4 H 0.9071 0.2229 0.5532
C17_4 C 0.9773(10) 0.1931(16) 0.5174(3)
H21_4 H 0.9209 0.1269 0.5128
C4_5 C 0.0890(13) 0.2922(13) 0.0765(4)
H7_5 H 0.0871 0.2677 0.0970
C5_5 C 0.1785(13) 0.3729(12) 0.0663(4)
H8_5 H 0.2362 0.4074 0.0797
C6_5 C 0.1830(12) 0.4033(13) 0.0357(4)
H9_5 H 0.2464 0.4559 0.0275
C7_5 C 0.0939(10) 0.3570(11) 0.0160(3)
C8_5 C 0.0005(10) 0.2747(11) 0.0273(3)
C9_5 C 0.1070(10) 0.3943(11) 0.9826(3)
H10_5 H 0.1731 0.4469 0.9762
N4_5 N 0.0343(8) 0.3590(9) 0.9625(2)
C10_5 C 0.0543(13) 0.3978(16) 0.9299(4)
H11_5 H 0.0983 0.4736 0.9303
H12_5 H 0.0928 0.3695 0.9190
H14_5 H 0.0027 0.4821 0.8801
H15_5 H 0.0111 0.3855 0.8682
C16_5 C 0.0306(11) 0.2796(14) 0.7915(4)
H20_5 H 0.0929 0.3158 0.7801
C17_5 C 0.0227(10) 0.2158(13) 0.8159(3)
H21_5 H 0.0791 0.2060 0.8205
Dy1_6 Dy 0.75585(4) 0.07792(5) 0.023806(12)
O1_6 O 0.7251(10) 0.2056(10) 0.0518(3)
O2_6 O 0.6522(13) 0.1775(13) 0.0983(3)
O3_6 O 0.6799(9) 0.0630(11) 0.0773(2)
N1_6 N 0.6850(11) 0.1497(15) 0.0768(3)
O7_6 O 0.5703(7) 0.0092(8) 0.0180(2)
C2_6 C 0.8996(13) 0.0995(14) 0.0946(3)
H4_6 H 0.9593 0.0894 0.0949
H5_6 H 0.8363 0.0324 0.0945
H6_6 H 0.9009 0.1382 0.1131
O11_6 O 0.9032(8) 0.1567(9) 0.0667(2)
C3_6 C 0.9979(11) 0.2421(12) 0.0583(3)
O12_6 O 0.9137(7) 0.2256(7) 0.0103(2)
C4_6 C 0.2032(18) 0.9110(13) 0.7432(4)
H7_6 H 0.1806 0.9129 0.7637
C5_6 C 0.1944(18) 0.8215(13) 0.7330(4)
H8_6 H 0.1712 0.7638 0.7464
C6_6 C 0.2203(18) 0.8170(12) 0.7024(4)
H9_6 H 0.2095 0.7536 0.6942
C7_6 C 0.2631(15) 0.9061(10) 0.6827(3)
C8_6 C 0.2742(15) 0.9995(10) 0.6940(3)
C9_6 C 0.2873(15) 0.8930(10) 0.6493(3)
H10_6 H 0.2738 0.8269 0.6429
N4_6 N 0.3247(12) 0.9657(8) 0.6292(2)
C10_6 C 0.3435(21) 0.9457(13) 0.5966(4)
H11_6 H 0.3753 0.9017 0.5970
H12_6 H 0.2767 0.9072 0.5857
H14_6 H 0.4794 0.9973 0.5468
H15_6 H 0.3744 0.9889 0.5349
C16_6 C 0.2490(18) 0.9694(11) 0.4582(4)
H20_6 H 0.2229 0.9071 0.4468
C17_6 C 0.1931(16) 0.9773(10) 0.4826(3)
H21_6 H 0.1269 0.9209 0.4872
loop_
_geom_bond_atom_site_label_1
_geom_bond_atom_site_label_2
_geom_bond_site_symmetry_1
_geom_bond_site_symmetry_2
H10 C9 1_555 1_555
C10 N4 1_555 1_555
H11 C10 1_555 1_555
H12 C10 1_555 1_555
H20 C16 1_555 1_555
C17 C16 1_555 1_555
H21 C17 1_555 1_555
C9 N4 1_555 1_555
H7 C4 1_555 1_555
C5 C4 1_555 1_555
H8 C5 1_555 1_555
C6 C5 1_555 1_555
H9 C6 1_555 1_555
C7 C6 1_555 1_555
C7 C8 1_555 1_555
Cu2 O10 1_555 1_555
Cu3 O16 1_555 1_555
Cu5 O13 1_555 1_555
C1 O10 1_555 1_555
H1 C1 1_555 1_555
H2 C1 1_555 1_555
H3 C1 1_555 1_555
H13 C11 1_555 1_555
O13 Cu2 1_555 1_555
C12 C11 1_555 1_555
O14 Cu5 1_555 1_555
C13 H16 1_555 1_555
H17 C13 1_555 1_555
H18 C13 1_555 1_555
O15 C13 1_555 1_555
C14 O15 1_555 1_555
C15 C14 1_555 1_555
H19 C15 1_555 1_555
C19 C14 1_555 1_555
O16 C19 1_555 1_555
C20 C18 1_555 1_555
H22 C20 1_555 1_555
N5 Cu3 1_555 1_555
C21 N5 1_555 1_555
H23 C21 1_555 1_555
H24 C21 1_555 1_555
H38 C34 1_555 1_555
H39 C34 1_555 1_555
O22 Cu1 1_555 1_555
Cu7 O15 1_555 1_555
O23 Cu2 1_555 1_555
O26 Cu5 1_555 1_555
O27 Cu5 1_555 1_555
Cu1 O10 1_555 1_555
Cu1 O18 1_555 1_555
Cu3 O22 1_555 1_555
Cu5 O22 1_555 1_555
C11 O13 1_555 1_555
C12 O14 1_555 1_555
C18 C19 1_555 1_555
O16 Cu7 1_555 1_555
C20 N5 1_555 1_555
C34 O22 1_555 1_555
Cu7 O27 1_555 1_555
Cu7 O28 1_555 1_555
Cu4 O20 1_555 1_555
O8 N3 1_555 1_555
H25 C22 1_555 1_555
C23 C22 1_555 1_555
H26 C23 1_555 1_555
H27 C23 1_555 1_555
C24 H28 1_555 1_555
H29 C24 1_555 1_555
H30 C24 1_555 1_555
O19 C24 1_555 1_555
C25 O19 1_555 1_555
C26 C25 1_555 1_555
H31 C26 1_555 1_555
C27 C26 1_555 1_555
H32 C27 1_555 1_555
C28 C27 1_555 1_555
H33 C28 1_555 1_555
C29 C28 1_555 1_555
C30 C25 1_555 1_555
O20 C30 1_555 1_555
C31 C29 1_555 1_555
H34 C31 1_555 1_555
N6 Cu4 1_555 1_555
C32 N6 1_555 1_555
H35 C32 1_555 1_555
C33 C32 1_555 1_555
H37 C33 1_555 1_555
Cu8 O19 1_555 1_555
O24 Cu4 1_555 1_555
O25 Cu4 1_555 1_555
Cu4 O21 1_555 1_555
C22 O17 1_555 1_555
C29 C30 1_555 1_555
O20 Cu8 1_555 1_555
C31 N6 1_555 1_555
C33 O21 1_555 1_555
O5 N2 1_555 1_555
N2 O4 1_555 1_555
Cu6 O9 1_555 1_555
O6 N2 1_555 1_555
Dy1 O1 1_555 1_555
Cu1_2 O8_2 1_555 1_555
Cu2_2 O10_2 1_555 1_555
Cu3_2 O16_2 1_555 1_555
Cu4_2 O20_2 1_555 1_555
Cu5_2 O13_2 1_555 1_555
O1 N1 1_555 1_555
O2 N1 1_555 1_555
O3 Dy1 1_555 1_555
N1 O3 1_555 1_555
O4_2 Dy1 1_555 1_555
O5_2 N2_2 1_555 1_555
O6_2 Dy1 1_555 1_555
N2_2 O4_2 1_555 1_555
O7 Dy1 1_555 1_555
O8_2 N3_2 1_555 1_555
O9_2 N3_2 1_555 1_555
N3_2 O7 1_555 1_555
O10_2 Dy1 1_555 1_555
C1_2 O10_2 1_555 1_555
H1_2 C1_2 1_555 1_555
H2_2 C1_2 1_555 1_555
H3_2 C1_2 1_555 1_555
C2 H4 1_555 1_555
H5 C2 1_555 1_555
H6 C2 1_555 1_555
O11 Dy1 1_555 1_555
C3 O11 1_555 1_555
O12 Dy1 1_555 1_555
H13_2 C11_2 1_555 1_555
O13_2 Cu2_2 1_555 1_555
C12_2 C11_2 1_555 1_555
O14_2 Cu5_2 1_555 1_555
C13_2 H16_2 1_555 1_555
H17_2 C13_2 1_555 1_555
H18_2 C13_2 1_555 1_555
O15_2 C13_2 1_555 1_555
C14_2 O15_2 1_555 1_555
C15_2 C14_2 1_555 1_555
H19_2 C15_2 1_555 1_555
C19_2 C14_2 1_555 1_555
O16_2 C19_2 1_555 1_555
C20_2 C18_2 1_555 1_555
H22_2 C20_2 1_555 1_555
N5_2 Cu3_2 1_555 1_555
C21_2 N5_2 1_555 1_555
H23_2 C21_2 1_555 1_555
H24_2 C21_2 1_555 1_555
C22_2 C21_2 1_555 1_555
H25_2 C22_2 1_555 1_555
O17_2 Cu1_2 1_555 1_555
C23_2 C22_2 1_555 1_555
H26_2 C23_2 1_555 1_555
H27_2 C23_2 1_555 1_555
O18_2 Dy1 1_555 1_555
C24_2 H28_2 1_555 1_555
H29_2 C24_2 1_555 1_555
H30_2 C24_2 1_555 1_555
O19_2 C24_2 1_555 1_555
C25_2 O19_2 1_555 1_555
C26_2 C25_2 1_555 1_555
H31_2 C26_2 1_555 1_555
C27_2 C26_2 1_555 1_555
H32_2 C27_2 1_555 1_555
C28_2 C27_2 1_555 1_555
H33_2 C28_2 1_555 1_555
C29_2 C28_2 1_555 1_555
C30_2 C25_2 1_555 1_555
O20_2 C30_2 1_555 1_555
C31_2 C29_2 1_555 1_555
H34_2 C31_2 1_555 1_555
N6_2 Cu4_2 1_555 1_555
C32_2 N6_2 1_555 1_555
H35_2 C32_2 1_555 1_555
H36_2 C32_2 1_555 1_555
C33_2 C32_2 1_555 1_555
H37_2 C33_2 1_555 1_555
O21_2 Cu3_2 1_555 1_555
C34_2 C33_2 1_555 1_555
H38_2 C34_2 1_555 1_555
H39_2 C34_2 1_555 1_555
O22_2 Cu1_2 1_555 1_555
Cu6_2 O9_2 1_555 1_555
Cu7_2 O15_2 1_555 1_555
Cu8_2 O19_2 1_555 1_555
O23_2 Cu2_2 1_555 1_555
O24_2 Cu4_2 1_555 1_555
O25_2 Cu4_2 1_555 1_555
O26_2 Cu5_2 1_555 1_555
O27_2 Cu5_2 1_555 1_555
O28_2 Cu4_2 1_555 1_555
Cu1_2 O10_2 1_555 1_555
Cu1_2 O18_2 1_555 1_555
Cu2_2 O12 1_555 1_555
Cu3_2 O17_2 1_555 1_555
Cu3_2 O22_2 1_555 1_555
Cu4_2 O21_2 1_555 1_555
Cu5_2 O22_2 1_555 1_555
O6_2 N2_2 1_555 1_555
C2 O11 1_555 1_555
C11_2 O13_2 1_555 1_555
C12_2 O14_2 1_555 1_555
C18_2 C19_2 1_555 1_555
O16_2 Cu7_2 1_555 1_555
C20_2 N5_2 1_555 1_555
C22_2 O17_2 1_555 1_555
C23_2 O18_2 1_555 1_555
C29_2 C30_2 1_555 1_555
O20_2 Cu8_2 1_555 1_555
C31_2 N6_2 1_555 1_555
C33_2 O21_2 1_555 1_555
O21_2 Cu7_2 1_555 1_555
C34_2 O22_2 1_555 1_555
Cu7_2 O27_2 1_555 1_555
Cu7_2 O28_2 1_555 1_555
Cu4_3 O20_3 1_555 1_555
O5_3 N2_3 1_555 1_555
N2_3 O4_3 1_555 1_555
O8_3 N3_3 1_555 1_555
O9_3 N3_3 1_555 1_555
H25_3 C22_3 1_555 1_555
C23_3 C22_3 1_555 1_555
H26_3 C23_3 1_555 1_555
H27_3 C23_3 1_555 1_555
C24_3 H28_3 1_555 1_555
H29_3 C24_3 1_555 1_555
H30_3 C24_3 1_555 1_555
O19_3 C24_3 1_555 1_555
C25_3 O19_3 1_555 1_555
C26_3 C25_3 1_555 1_555
H31_3 C26_3 1_555 1_555
C27_3 C26_3 1_555 1_555
H32_3 C27_3 1_555 1_555
C28_3 C27_3 1_555 1_555
H33_3 C28_3 1_555 1_555
C29_3 C28_3 1_555 1_555
C30_3 C25_3 1_555 1_555
O20_3 C30_3 1_555 1_555
C31_3 C29_3 1_555 1_555
H34_3 C31_3 1_555 1_555
N6_3 Cu4_3 1_555 1_555
C32_3 N6_3 1_555 1_555
H35_3 C32_3 1_555 1_555
C33_3 C32_3 1_555 1_555
H37_3 C33_3 1_555 1_555
Cu6_3 O9_3 1_555 1_555
Cu8_3 O19_3 1_555 1_555
O24_3 Cu4_3 1_555 1_555
O25_3 Cu4_3 1_555 1_555
Cu4_3 O21_3 1_555 1_555
O6_3 N2_3 1_555 1_555
C22_3 O17_3 1_555 1_555
C29_3 C30_3 1_555 1_555
O20_3 Cu8_3 1_555 1_555
C31_3 N6_3 1_555 1_555
C33_3 O21_3 1_555 1_555
Dy1_2 O1_2 1_555 1_555
Cu2_3 O10_3 1_555 1_555
Cu3_3 O16_3 1_555 1_555
Cu5_3 O13_3 1_555 1_555
O1_2 N1_2 1_555 1_555
O2_2 N1_2 1_555 1_555
O3_2 Dy1_2 1_555 1_555
N1_2 O3_2 1_555 1_555
O7_2 Dy1_2 1_555 1_555
O10_3 Dy1_2 1_555 1_555
C1_3 O10_3 1_555 1_555
H1_3 C1_3 1_555 1_555
H2_3 C1_3 1_555 1_555
H3_3 C1_3 1_555 1_555
C2_2 H4_2 1_555 1_555
H5_2 C2_2 1_555 1_555
H6_2 C2_2 1_555 1_555
O11_2 Dy1_2 1_555 1_555
C3_2 O11_2 1_555 1_555
C4_2 C3_2 1_555 1_555
H7_2 C4_2 1_555 1_555
C5_2 C4_2 1_555 1_555
H8_2 C5_2 1_555 1_555
C6_2 C5_2 1_555 1_555
H9_2 C6_2 1_555 1_555
C7_2 C6_2 1_555 1_555
C8_2 C3_2 1_555 1_555
O12_2 Dy1_2 1_555 1_555
C9_2 C7_2 1_555 1_555
H10_2 C9_2 1_555 1_555
N4_2 Cu2_3 1_555 1_555
C10_2 N4_2 1_555 1_555
H11_2 C10_2 1_555 1_555
H12_2 C10_2 1_555 1_555
C11_3 C10_2 1_555 1_555
H13_3 C11_3 1_555 1_555
O13_3 Cu2_3 1_555 1_555
C12_3 C11_3 1_555 1_555
H14_2 C12_3 1_555 1_555
H15_2 C12_3 1_555 1_555
O14_3 Cu5_3 1_555 1_555
C13_3 H16_3 1_555 1_555
H17_3 C13_3 1_555 1_555
H18_3 C13_3 1_555 1_555
O15_3 C13_3 1_555 1_555
C14_3 O15_3 1_555 1_555
C15_3 C14_3 1_555 1_555
H19_3 C15_3 1_555 1_555
C16_2 C15_3 1_555 1_555
H20_2 C16_2 1_555 1_555
C17_2 C16_2 1_555 1_555
H21_2 C17_2 1_555 1_555
C18_3 C17_2 1_555 1_555
C19_3 C14_3 1_555 1_555
O16_3 C19_3 1_555 1_555
C20_3 C18_3 1_555 1_555
H22_3 C20_3 1_555 1_555
N5_3 Cu3_3 1_555 1_555
C21_3 N5_3 1_555 1_555
H23_3 C21_3 1_555 1_555
H24_3 C21_3 1_555 1_555
O18_3 Dy1_2 1_555 1_555
H38_3 C34_3 1_555 1_555
H39_3 C34_3 1_555 1_555
O22_3 Cu1_3 1_555 1_555
Cu7_3 O15_3 1_555 1_555
O23_3 Cu2_3 1_555 1_555
O26_3 Cu5_3 1_555 1_555
O27_3 Cu5_3 1_555 1_555
Cu1_3 O10_3 1_555 1_555
Cu1_3 O18_3 1_555 1_555
Cu2_3 O12_2 1_555 1_555
Cu3_3 O22_3 1_555 1_555
Cu5_3 O22_3 1_555 1_555
C2_2 O11_2 1_555 1_555
C7_2 C8_2 1_555 1_555
C8_2 O12_2 1_555 1_555
C9_2 N4_2 1_555 1_555
C11_3 O13_3 1_555 1_555
C12_3 O14_3 1_555 1_555
C18_3 C19_3 1_555 1_555
O16_3 Cu7_3 1_555 1_555
C20_3 N5_3 1_555 1_555
C34_3 O22_3 1_555 1_555
Cu7_3 O27_3 1_555 1_555
Cu7_3 O28_3 1_555 1_555
Cu6 O10_4 1_555 1_555
Cu3_4 O25_3 1_555 1_555
Cu8_3 O13_4 1_555 1_555
C1_4 O10_4 1_555 1_555
H1_4 C1_4 1_555 1_555
H2_4 C1_4 1_555 1_555
H3_4 C1_4 1_555 1_555
H13_4 C11_4 1_555 1_555
O13_4 Cu6 1_555 1_555
C12_4 C11_4 1_555 1_555
O14_4 Cu8_3 1_555 1_555
C13_4 H16_4 1_555 1_555
H17_4 C13_4 1_555 1_555
H18_4 C13_4 1_555 1_555
O24_3 C13_4 1_555 1_555
C14_4 O24_3 1_555 1_555
C15_4 C14_4 1_555 1_555
H19_4 C15_4 1_555 1_555
C19_4 C14_4 1_555 1_555
O25_3 C19_4 1_555 1_555
C20_4 C18_4 1_555 1_555
H22_4 C20_4 1_555 1_555
N5_4 Cu3_4 1_555 1_555
C21_4 N5_4 1_555 1_555
H23_4 C21_4 1_555 1_555
H24_4 C21_4 1_555 1_555
H38_4 C34_4 1_555 1_555
H39_4 C34_4 1_555 1_555
O22_4 Cu1_4 1_555 1_555
Cu1_4 O10_4 1_555 1_555
Cu1_4 O18_4 1_555 1_555
Cu3_4 O22_4 1_555 1_555
Cu8_3 O22_4 1_555 1_555
C11_4 O13_4 1_555 1_555
C12_4 O14_4 1_555 1_555
C18_4 C19_4 1_555 1_555
C20_4 N5_4 1_555 1_555
C34_4 O22_4 1_555 1_555
O5_4 N2_4 1_555 1_555
N2_4 O4_4 1_555 1_555
O6_4 N2_4 1_555 1_555
O8_4 N3_4 1_555 1_555
H25_4 C22_4 1_555 1_555
C23_4 C22_4 1_555 1_555
H26_4 C23_4 1_555 1_555
H27_4 C23_4 1_555 1_555
C24_4 H28_4 1_555 1_555
H29_4 C24_4 1_555 1_555
H30_4 C24_4 1_555 1_555
O26_3 C24_4 1_555 1_555
C25_4 O26_3 1_555 1_555
C26_4 C25_4 1_555 1_555
H31_4 C26_4 1_555 1_555
C27_4 C26_4 1_555 1_555
H32_4 C27_4 1_555 1_555
C28_4 C27_4 1_555 1_555
H33_4 C28_4 1_555 1_555
C29_4 C28_4 1_555 1_555
C30_4 C25_4 1_555 1_555
O27_3 C30_4 1_555 1_555
C31_4 C29_4 1_555 1_555
H34_4 C31_4 1_555 1_555
N6_4 Cu7_3 1_555 1_555
C32_4 N6_4 1_555 1_555
H35_4 C32_4 1_555 1_555
C33_4 C32_4 1_555 1_555
H37_4 C33_4 1_555 1_555
C22_4 O17_4 1_555 1_555
C29_4 C30_4 1_555 1_555
C31_4 N6_4 1_555 1_555
C33_4 O28_3 1_555 1_555
O5_5 N2_5 1_555 1_555
N2_5 O4_5 1_555 1_555
O8_5 N3_5 1_555 1_555
O23_2 N3_5 1_555 1_555
H25_5 C22_5 1_555 1_555
C23_5 C22_5 1_555 1_555
H26_5 C23_5 1_555 1_555
H27_5 C23_5 1_555 1_555
C24_5 H28_5 1_555 1_555
H29_5 C24_5 1_555 1_555
H30_5 C24_5 1_555 1_555
O26 C24_5 1_555 1_555
C25_5 O26 1_555 1_555
C26_5 C25_5 1_555 1_555
H31_5 C26_5 1_555 1_555
C27_5 C26_5 1_555 1_555
H32_5 C27_5 1_555 1_555
C28_5 C27_5 1_555 1_555
H33_5 C28_5 1_555 1_555
C29_5 C28_5 1_555 1_555
C30_5 C25_5 1_555 1_555
O27 C30_5 1_555 1_555
C31_5 C29_5 1_555 1_555
H34_5 C31_5 1_555 1_555
N6_5 Cu7 1_555 1_555
C32_5 N6_5 1_555 1_555
H35_5 C32_5 1_555 1_555
C33_5 C32_5 1_555 1_555
H37_5 C33_5 1_555 1_555
O6_5 N2_5 1_555 1_555
C22_5 O17_5 1_555 1_555
C29_5 C30_5 1_555 1_555
C31_5 N6_5 1_555 1_555
C33_5 O28 1_555 1_555
Dy1_3 O1_3 1_555 1_555
Cu6_2 O10_5 1_555 1_555
Cu3_5 O25 1_555 1_555
Cu8 O13_5 1_555 1_555
O1_3 N1_3 1_555 1_555
O2_3 N1_3 1_555 1_555
O3_3 Dy1_3 1_555 1_555
N1_3 O3_3 1_555 1_555
O7_3 Dy1_3 1_555 1_555
O10_5 Dy1_3 1_555 1_555
C1_5 O10_5 1_555 1_555
H1_5 C1_5 1_555 1_555
H2_5 C1_5 1_555 1_555
H3_5 C1_5 1_555 1_555
C2_3 H4_3 1_555 1_555
H5_3 C2_3 1_555 1_555
H6_3 C2_3 1_555 1_555
O11_3 Dy1_3 1_555 1_555
C3_3 O11_3 1_555 1_555
C4_3 C3_3 1_555 1_555
H7_3 C4_3 1_555 1_555
C5_3 C4_3 1_555 1_555
H8_3 C5_3 1_555 1_555
C6_3 C5_3 1_555 1_555
H9_3 C6_3 1_555 1_555
C7_3 C6_3 1_555 1_555
C8_3 C3_3 1_555 1_555
O12_3 Dy1_3 1_555 1_555
C9_3 C7_3 1_555 1_555
H10_3 C9_3 1_555 1_555
N4_3 Cu6_2 1_555 1_555
C10_3 N4_3 1_555 1_555
H11_3 C10_3 1_555 1_555
H12_3 C10_3 1_555 1_555
C11_5 C10_3 1_555 1_555
H13_5 C11_5 1_555 1_555
O13_5 Cu6_2 1_555 1_555
C12_5 C11_5 1_555 1_555
H14_3 C12_5 1_555 1_555
H15_3 C12_5 1_555 1_555
O14_5 Cu8 1_555 1_555
C13_5 H16_5 1_555 1_555
H17_5 C13_5 1_555 1_555
H18_5 C13_5 1_555 1_555
O24 C13_5 1_555 1_555
C14_5 O24 1_555 1_555
C15_5 C14_5 1_555 1_555
H19_5 C15_5 1_555 1_555
C16_3 C15_5 1_555 1_555
H20_3 C16_3 1_555 1_555
C17_3 C16_3 1_555 1_555
H21_3 C17_3 1_555 1_555
C18_5 C17_3 1_555 1_555
C19_5 C14_5 1_555 1_555
O25 C19_5 1_555 1_555
C20_5 C18_5 1_555 1_555
H22_5 C20_5 1_555 1_555
N5_5 Cu3_5 1_555 1_555
C21_5 N5_5 1_555 1_555
H23_5 C21_5 1_555 1_555
H24_5 C21_5 1_555 1_555
O18_5 Dy1_3 1_555 1_555
H38_5 C34_5 1_555 1_555
H39_5 C34_5 1_555 1_555
O22_5 Cu1_5 1_555 1_555
Cu1_5 O10_5 1_555 1_555
Cu1_5 O18_5 1_555 1_555
Cu6_2 O12_3 1_555 1_555
Cu3_5 O22_5 1_555 1_555
Cu8 O22_5 1_555 1_555
C2_3 O11_3 1_555 1_555
C7_3 C8_3 1_555 1_555
C8_3 O12_3 1_555 1_555
C9_3 N4_3 1_555 1_555
C11_5 O13_5 1_555 1_555
C12_5 O14_5 1_555 1_555
C18_5 C19_5 1_555 1_555
C20_5 N5_5 1_555 1_555
C34_5 O22_5 1_555 1_555
Dy1_4 O1_4 1_555 1_555
Cu1_6 O8_6 1_555 1_555
Cu6_3 O10_6 1_555 1_555
Cu3_6 O25_2 1_555 1_555
Cu8_2 O13_6 1_555 1_555
O1_4 N1_4 1_555 1_555
O2_4 N1_4 1_555 1_555
O3_4 Dy1_4 1_555 1_555
N1_4 O3_4 1_555 1_555
O4_6 Dy1_4 1_555 1_555
O5_6 N2_6 1_555 1_555
O6_6 Dy1_4 1_555 1_555
N2_6 O4_6 1_555 1_555
O7_4 Dy1_4 1_555 1_555
O8_6 N3_6 1_555 1_555
O23_3 N3_6 1_555 1_555
N3_6 O7_4 1_555 1_555
O10_6 Dy1_4 1_555 1_555
C1_6 O10_6 1_555 1_555
H1_6 C1_6 1_555 1_555
H2_6 C1_6 1_555 1_555
H3_6 C1_6 1_555 1_555
C2_4 H4_4 1_555 1_555
H5_4 C2_4 1_555 1_555
H6_4 C2_4 1_555 1_555
O11_4 Dy1_4 1_555 1_555
C3_4 O11_4 1_555 1_555
O12_4 Dy1_4 1_555 1_555
H13_6 C11_6 1_555 1_555
O13_6 Cu6_3 1_555 1_555
C12_6 C11_6 1_555 1_555
O14_6 Cu8_2 1_555 1_555
C13_6 H16_6 1_555 1_555
H17_6 C13_6 1_555 1_555
H18_6 C13_6 1_555 1_555
O24_2 C13_6 1_555 1_555
C14_6 O24_2 1_555 1_555
C15_6 C14_6 1_555 1_555
H19_6 C15_6 1_555 1_555
C19_6 C14_6 1_555 1_555
O25_2 C19_6 1_555 1_555
C20_6 C18_6 1_555 1_555
H22_6 C20_6 1_555 1_555
N5_6 Cu3_6 1_555 1_555
C21_6 N5_6 1_555 1_555
H23_6 C21_6 1_555 1_555
H24_6 C21_6 1_555 1_555
C22_6 C21_6 1_555 1_555
H25_6 C22_6 1_555 1_555
O17_6 Cu1_6 1_555 1_555
C23_6 C22_6 1_555 1_555
H26_6 C23_6 1_555 1_555
H27_6 C23_6 1_555 1_555
O18_6 Dy1_4 1_555 1_555
C24_6 H28_6 1_555 1_555
H29_6 C24_6 1_555 1_555
H30_6 C24_6 1_555 1_555
O26_2 C24_6 1_555 1_555
C25_6 O26_2 1_555 1_555
C26_6 C25_6 1_555 1_555
H31_6 C26_6 1_555 1_555
C27_6 C26_6 1_555 1_555
H32_6 C27_6 1_555 1_555
C28_6 C27_6 1_555 1_555
H33_6 C28_6 1_555 1_555
C29_6 C28_6 1_555 1_555
C30_6 C25_6 1_555 1_555
O27_2 C30_6 1_555 1_555
C31_6 C29_6 1_555 1_555
H34_6 C31_6 1_555 1_555
N6_6 Cu7_2 1_555 1_555
C32_6 N6_6 1_555 1_555
H35_6 C32_6 1_555 1_555
H36_6 C32_6 1_555 1_555
C33_6 C32_6 1_555 1_555
H37_6 C33_6 1_555 1_555
O28_2 Cu3_6 1_555 1_555
C34_6 C33_6 1_555 1_555
H38_6 C34_6 1_555 1_555
H39_6 C34_6 1_555 1_555
O22_6 Cu1_6 1_555 1_555
Cu1_6 O10_6 1_555 1_555
Cu1_6 O18_6 1_555 1_555
Cu6_3 O12_4 1_555 1_555
Cu3_6 O17_6 1_555 1_555
Cu3_6 O22_6 1_555 1_555
Cu8_2 O22_6 1_555 1_555
O6_6 N2_6 1_555 1_555
C2_4 O11_4 1_555 1_555
C11_6 O13_6 1_555 1_555
C12_6 O14_6 1_555 1_555
C18_6 C19_6 1_555 1_555
C20_6 N5_6 1_555 1_555
C22_6 O17_6 1_555 1_555
C23_6 O18_6 1_555 1_555
C29_6 C30_6 1_555 1_555
C31_6 N6_6 1_555 1_555
C33_6 O28_2 1_555 1_555
C34_6 O22_6 1_555 1_555
Dy1_5 O1_5 1_555 1_555
O1_5 N1_5 1_555 1_555
O2_5 N1_5 1_555 1_555
O3_5 Dy1_5 1_555 1_555
N1_5 O3_5 1_555 1_555
O7_5 Dy1_5 1_555 1_555
C2_5 H4_5 1_555 1_555
H5_5 C2_5 1_555 1_555
H6_5 C2_5 1_555 1_555
O11_5 Dy1_5 1_555 1_555
C3_5 O11_5 1_555 1_555
O12_5 Dy1_5 1_555 1_555
C2_5 O11_5 1_555 1_555
H7_4 C4_4 1_555 1_555
C5_4 C4_4 1_555 1_555
H8_4 C5_4 1_555 1_555
C6_4 C5_4 1_555 1_555
H9_4 C6_4 1_555 1_555
C7_4 C6_4 1_555 1_555
C9_4 C7_4 1_555 1_555
H10_4 C9_4 1_555 1_555
C10_4 N4_4 1_555 1_555
H11_4 C10_4 1_555 1_555
H12_4 C10_4 1_555 1_555
H20_4 C16_4 1_555 1_555
C17_4 C16_4 1_555 1_555
H21_4 C17_4 1_555 1_555
C7_4 C8_4 1_555 1_555
C9_4 N4_4 1_555 1_555
H7_5 C4_5 1_555 1_555
C5_5 C4_5 1_555 1_555
H8_5 C5_5 1_555 1_555
C6_5 C5_5 1_555 1_555
H9_5 C6_5 1_555 1_555
C7_5 C6_5 1_555 1_555
C7_5 C8_5 1_555 1_555
H10_5 C9_5 1_555 1_555
C10_5 N4_5 1_555 1_555
H11_5 C10_5 1_555 1_555
H12_5 C10_5 1_555 1_555
H20_5 C16_5 1_555 1_555
C17_5 C16_5 1_555 1_555
H21_5 C17_5 1_555 1_555
C9_5 N4_5 1_555 1_555
Dy1_6 O1_6 1_555 1_555
O1_6 N1_6 1_555 1_555
O2_6 N1_6 1_555 1_555
O3_6 Dy1_6 1_555 1_555
N1_6 O3_6 1_555 1_555
O7_6 Dy1_6 1_555 1_555
C2_6 H4_6 1_555 1_555
H5_6 C2_6 1_555 1_555
H6_6 C2_6 1_555 1_555
O11_6 Dy1_6 1_555 1_555
C3_6 O11_6 1_555 1_555
O12_6 Dy1_6 1_555 1_555
C2_6 O11_6 1_555 1_555
H7_6 C4_6 1_555 1_555
C5_6 C4_6 1_555 1_555
H8_6 C5_6 1_555 1_555
C6_6 C5_6 1_555 1_555
H9_6 C6_6 1_555 1_555
C7_6 C6_6 1_555 1_555
C9_6 C7_6 1_555 1_555
H10_6 C9_6 1_555 1_555
C10_6 N4_6 1_555 1_555
H11_6 C10_6 1_555 1_555
H12_6 C10_6 1_555 1_555
H20_6 C16_6 1_555 1_555
C17_6 C16_6 1_555 1_555
H21_6 C17_6 1_555 1_555
C7_6 C8_6 1_555 1_555
C9_6 N4_6 1_555 1_555

#END
