
###############################################################################
#
# This file contains modified crystal structure data generated from the
# MOF subset of the Cambridge Structural Database (CSD) v543 
# hosted by the Cambridge Crystallographic Data Centre (CCDC).
#
# This work is licensed under the Creative Commons
# Attribution-NonCommercial-ShareAlike 4.0 International License.
# To view a copy of this license, visit
# http://creativecommons.org/licenses/by-nc-sa/4.0/
# or send a letter to
# Creative Commons, PO Box 1866, Mountain View, CA 94042, USA.
#
# CIF created using the CSD Python API on 29 September 2022
# The structure has been converted into the P1 space group
# The structure has a 3D framework
# The original CSD entry JOMZIX is in the hexagonal crystal system
# The framework has been calculated to contain at least 10.0% void space
# The void calculation uses a probe of radius 1.32A, grid spacing 0.4
# H atom positions have been added when not included in the experimental data
# Generated hydrogen atom positions removed from atoms on special positions
#
###############################################################################

data_JOMZIX
_chemical_formula_moiety         '(C348 H324 O186 Zr30)n'
_symmetry_cell_setting           triclinic
_symmetry_space_group_name_H-M   'P 1'
_symmetry_Int_Tables_number      1
_space_group_name_Hall           'P 1'
loop_
_symmetry_equiv_pos_site_id
_symmetry_equiv_pos_as_xyz
1 x,y,z
_cell_length_a                   32.8745(3)
_cell_length_b                   32.8745(3)
_cell_length_c                   26.6031(3)
_cell_angle_alpha                90
_cell_angle_beta                 90
_cell_angle_gamma                120
_cell_volume                     24899
loop_
_atom_site_label
_atom_site_type_symbol
_atom_site_fract_x
_atom_site_fract_y
_atom_site_fract_z
Zr4 Zr 0.59052(2) 0.07353(3) 0.18377(2)
O17 O 0.57509(11) 0.00324(14) 0.15408(10)
O20 O 0.58731(10) 0.07513(13) 0.10133(9)
O21 O 0.56025(5) 0.12050(7) 0.17339(12)
O22 O 0.60057(12) 0.11037(16) 0.250000
O23 O 0.65608(11) 0.07300(15) 0.19985(16)
O24 O 0.57342(12) 0.02614(17) 0.250000
O25 O 0.51824(5) 0.03648(7) 0.19266(12)
C46 C 0.6757(4) 0.0754(5) 0.250000
H24 H 0.705507 0.078753 0.250000
O30 O 0.65608(11) 0.07300(15) 0.30015(16)
Zr11 Zr 0.59052(2) 0.07353(3) 0.31623(2)
Zr13 Zr 0.48301(2) 0.07353(3) 0.18377(2)
Zr16 Zr 0.58015(3) 0.16031(2) 0.250000
O38 O 0.64978(11) 0.14315(8) 0.16079(9)
Zr1 Zr 0.48301(2) 0.40948(2) 0.18377(2)
Zr2 Zr 0.49365(2) 0.50635(2) 0.250000
O1 O 0.43392(9) 0.48531(10) 0.19881(9)
O2 O 0.42815(9) 0.42491(11) 0.15408(10)
O5 O 0.48782(9) 0.41269(10) 0.10133(9)
O6 O 0.56025(5) 0.43975(5) 0.17339(12)
O7 O 0.50980(10) 0.39943(12) 0.250000
O8 O 0.41692(10) 0.34392(11) 0.19985(16)
O9 O 0.45272(12) 0.42658(12) 0.250000
O10 O 0.51824(5) 0.48176(5) 0.19266(12)
C1 C 0.41605(14) 0.45459(17) 0.16490(14)
C2 C 0.37549(15) 0.45210(18) 0.13709(14)
C3 C 0.36166(15) 0.42987(18) 0.09205(14)
H1 H 0.377319 0.415527 0.078237
C4 C 0.32345(16) 0.42854(19) 0.06618(16)
H2 H 0.313336 0.412433 0.035868
C5 C 0.30130(15) 0.45093(19) 0.08567(14)
C6 C 0.31618(19) 0.4735(2) 0.13194(16)
H3 H 0.300909 0.488222 0.145835
C7 C 0.35287(18) 0.4744(2) 0.15728(16)
H4 H 0.362612 0.489998 0.187932
C8 C 0.26317(14) 0.45306(19) 0.05763(14)
C9 C 0.22438(15) 0.4488(3) 0.0830(2)
H5 H 0.221466 0.442929 0.117351
C10 C 0.26754(13) 0.46296(16) 0.00683(13)
C17 C 0.3997(3) 0.3243(4) 0.250000
H9 H 0.373246 0.294493 0.250000
O11 O 0.05139(13) 0.48531(10) 0.19881(9)
C18 C 0.03854(22) 0.45459(17) 0.16490(14)
C19 C 0.07661(23) 0.45210(18) 0.13709(14)
C20 C 0.06821(23) 0.42987(18) 0.09205(14)
H10 H 0.038208 0.415527 0.078237
C21 C 0.10509(25) 0.42854(19) 0.06618(16)
H11 H 0.099097 0.412433 0.035868
C22 C 0.14963(24) 0.45093(19) 0.08567(14)
C23 C 0.15732(28) 0.4735(2) 0.13194(16)
H12 H 0.187313 0.488222 0.145835
C24 C 0.12153(27) 0.4744(2) 0.15728(16)
H13 H 0.127386 0.489998 0.187932
C25 C 0.18989(24) 0.45306(19) 0.05763(14)
C26 C 0.19542(21) 0.46296(16) 0.00683(13)
O15 O 0.41692(10) 0.34392(11) 0.30015(16)
O16 O 0.51469(10) 0.94861(13) 0.19881(9)
C30 C 0.54541(17) 0.96146(22) 0.16490(14)
C31 C 0.54790(18) 0.92339(23) 0.13709(14)
C32 C 0.57013(18) 0.93179(23) 0.09205(14)
H16 H 0.584473 0.961792 0.078237
C33 C 0.57146(19) 0.89491(25) 0.06618(16)
H17 H 0.587567 0.900903 0.035868
C34 C 0.54907(19) 0.85037(24) 0.08567(14)
C35 C 0.5265(2) 0.84268(28) 0.13194(16)
H18 H 0.511778 0.812687 0.145835
C36 C 0.5256(2) 0.87847(27) 0.15728(16)
H19 H 0.510002 0.872614 0.187932
C37 C 0.54694(19) 0.81011(24) 0.05763(14)
C38 C 0.5512(3) 0.77558(34) 0.0830(2)
H20 H 0.557071 0.778537 0.117351
C39 C 0.53704(16) 0.80458(21) 0.00683(13)
O26 O 0.51469(10) 0.56608(9) 0.19881(9)
O27 O 0.57509(11) 0.57185(9) 0.15408(10)
C47 C 0.54541(17) 0.58395(14) 0.16490(14)
C48 C 0.54790(18) 0.62451(15) 0.13709(14)
C49 C 0.57013(18) 0.63834(15) 0.09205(14)
H25 H 0.584473 0.622681 0.078237
C50 C 0.57146(19) 0.67655(16) 0.06618(16)
H26 H 0.587567 0.686664 0.035868
C51 C 0.54907(19) 0.69870(15) 0.08567(14)
C52 C 0.5265(2) 0.68382(19) 0.13194(16)
H27 H 0.511778 0.699091 0.145835
C53 C 0.5256(2) 0.64713(18) 0.15728(16)
H28 H 0.510002 0.637388 0.187932
C54 C 0.54694(19) 0.73683(14) 0.05763(14)
C55 C 0.53704(16) 0.73246(13) 0.00683(13)
Zr6 Zr 0.59052(2) 0.51699(2) 0.18377(2)
O32 O 0.58731(10) 0.51218(9) 0.10133(9)
Zr10 Zr 0.48301(2) 0.40948(2) 0.31623(2)
Zr14 Zr 0.49365(2) 0.98730(3) 0.250000
Zr15 Zr 0.01270(3) 0.50635(2) 0.250000
Zr19 Zr 0.58016(2) 0.41985(3) 0.250000
O33 O 0.51469(10) 0.56608(9) 0.30119(9)
O34 O 0.43392(9) 0.48531(10) 0.30119(9)
O36 O 0.64978(11) 0.50663(8) 0.16079(9)
O37 O 0.49337(8) 0.35022(11) 0.16079(9)
O45 O 0.60057(12) 0.49020(10) 0.250000
O48 O 0.65608(11) 0.58308(10) 0.19985(16)
O50 O 0.57342(12) 0.54728(12) 0.250000
O51 O 0.51824(5) 0.48176(5) 0.30734(12)
Zr3 Zr 0.16031(2) 0.58016(2) 0.750000
O3 O 0.14315(8) 0.49337(8) 0.83921(9)
O4 O 0.19915(7) 0.55715(7) 0.79927(8)
H6 H 0.293090 0.465021 0.989543
C11 C 0.23497(11) 0.4699(2) 0.98080(19)
C12 C 0.24296(9) 0.48591(19) 0.92720(18)
C13 C 0.21129(11) 0.49472(12) 0.90159(12)
H7 H 0.182614 0.486604 0.916476
C14 C 0.22147(11) 0.51530(11) 0.85446(11)
C15 C 0.26378(8) 0.52755(15) 0.83120(16)
H8 H 0.271796 0.543591 0.800741
C16 C 0.18533(11) 0.52307(11) 0.82884(11)
O13 O 0.35022(11) 0.49337(8) 0.83921(9)
O14 O 0.35800(10) 0.55715(7) 0.79927(8)
H14 H 0.171931 0.465021 0.989543
C27 C 0.28343(16) 0.49472(12) 0.90159(12)
H15 H 0.303990 0.486604 0.916476
C28 C 0.29383(16) 0.51530(11) 0.85446(11)
C29 C 0.33774(16) 0.52307(11) 0.82884(11)
O18 O 0.50663(8) 0.64978(11) 0.83921(9)
O19 O 0.44285(7) 0.64200(10) 0.79927(8)
H21 H 0.534979 0.828069 0.989543
C40 C 0.5301(2) 0.76507(23) 0.98080(19)
C41 C 0.51409(19) 0.75705(21) 0.92720(18)
C42 C 0.50528(12) 0.71657(16) 0.90159(12)
H22 H 0.513396 0.696010 0.916476
C43 C 0.48470(11) 0.70617(16) 0.85446(11)
C44 C 0.47245(15) 0.73623(17) 0.83120(16)
H23 H 0.456409 0.728205 0.800741
C45 C 0.47693(11) 0.66226(16) 0.82884(11)
O28 O 0.50663(8) 0.85685(8) 0.83921(9)
O29 O 0.44285(7) 0.80085(7) 0.79927(8)
H29 H 0.534979 0.706910 0.989543
C56 C 0.50528(12) 0.78871(11) 0.90159(12)
H30 H 0.513396 0.817386 0.916476
C57 C 0.48470(11) 0.77853(11) 0.85446(11)
C58 C 0.47693(11) 0.81467(11) 0.82884(11)
Zr5 Zr 0.07353(3) 0.48301(2) 0.81623(2)
O31 O 0.07513(13) 0.48782(9) 0.89867(9)
Zr7 Zr 0.40948(2) 0.48301(2) 0.81623(2)
Zr8 Zr 0.51699(2) 0.92647(3) 0.81623(2)
Zr9 Zr 0.51699(2) 0.59052(2) 0.81623(2)
Zr17 Zr 0.41984(2) 0.58015(3) 0.750000
Zr18 Zr 0.41985(3) 0.83969(2) 0.750000
O35 O 0.00324(14) 0.42815(9) 0.84592(10)
O39 O 0.19915(7) 0.64200(10) 0.70073(8)
O40 O 0.19915(7) 0.55715(7) 0.70073(8)
O41 O 0.19915(7) 0.64200(10) 0.79927(8)
O42 O 0.12050(7) 0.56025(5) 0.67339(12)
O43 O 0.12050(7) 0.56025(5) 0.82661(12)
O44 O 0.11037(16) 0.50980(10) 0.750000
O46 O 0.11037(16) 0.60057(12) 0.750000
O47 O 0.07300(15) 0.41692(10) 0.80015(16)
O49 O 0.02614(17) 0.45272(12) 0.750000
O52 O 0.03648(7) 0.51824(5) 0.80734(12)
O12 O 0.99676(14) 0.42491(11) 0.15408(10)
Zr12 Zr 0.92647(3) 0.40948(2) 0.18377(2)
Zr1_2 Zr 0.07353(3) 0.48301(2) 0.68377(2)
O2_2 O 0.00324(14) 0.42815(9) 0.65408(10)
O5_2 O 0.07513(13) 0.48782(9) 0.60133(9)
O8_2 O 0.07300(15) 0.41692(10) 0.69985(16)
O10_2 O 0.03648(7) 0.51824(5) 0.69266(12)
C17_2 C 0.0754(5) 0.3997(3) 0.750000
H9_2 H 0.078753 0.373246 0.750000
O27_2 O 0.00324(14) 0.57509(11) 0.65408(10)
Zr6_2 Zr 0.07353(3) 0.59052(2) 0.68377(2)
O32_2 O 0.07513(13) 0.58731(10) 0.60133(9)
O36_2 O 0.14315(14) 0.64978(11) 0.66079(9)
O37_2 O 0.14315(14) 0.49337(8) 0.66079(9)
O48_2 O 0.07300(15) 0.65608(11) 0.69985(16)
O50_2 O 0.02614(17) 0.57342(12) 0.750000
Zr2_2 Zr 0.98730(3) 0.49365(2) 0.750000
O1_2 O 0.94861(13) 0.43392(9) 0.69881(9)
O3_2 O 0.64978(11) 0.14315(8) 0.33921(9)
O4_2 O 0.64200(10) 0.19915(7) 0.29927(8)
C1_2 C 0.96146(22) 0.41605(14) 0.66490(14)
C2_2 C 0.92339(23) 0.37549(15) 0.63709(14)
C3_2 C 0.93179(23) 0.36166(15) 0.59205(14)
H1_2 H 0.961792 0.377319 0.578237
C4_2 C 0.89491(25) 0.32345(16) 0.56618(16)
H2_2 H 0.900903 0.313336 0.535868
C5_2 C 0.85037(24) 0.30130(15) 0.58567(14)
C6_2 C 0.84268(28) 0.31618(19) 0.63194(16)
H3_2 H 0.812687 0.300909 0.645835
C7_2 C 0.87847(27) 0.35287(18) 0.65728(16)
H4_2 H 0.872614 0.362612 0.687932
C8_2 C 0.81011(24) 0.26317(14) 0.55763(14)
C9_2 C 0.77558(34) 0.22438(15) 0.5830(2)
H5_2 H 0.778537 0.221466 0.617351
C10_2 C 0.80458(21) 0.26754(13) 0.50683(13)
H6_2 H 0.828069 0.293090 0.489543
C11_2 C 0.76507(23) 0.23497(11) 0.48080(19)
C12_2 C 0.75705(21) 0.24296(9) 0.42720(18)
C13_2 C 0.71657(16) 0.21129(11) 0.40159(12)
H7_2 H 0.696010 0.182614 0.416476
C14_2 C 0.70617(16) 0.22147(11) 0.35446(11)
C15_2 C 0.73623(17) 0.26378(8) 0.33120(16)
H8_2 H 0.728205 0.271796 0.300741
C16_2 C 0.66226(16) 0.18533(11) 0.32884(11)
O11_2 O 0.56608(16) 0.05139(13) 0.69881(9)
O13_2 O 0.85685(14) 0.35022(11) 0.33921(9)
O14_2 O 0.80085(12) 0.35800(10) 0.29927(8)
C18_2 C 0.58395(28) 0.03854(22) 0.66490(14)
C19_2 C 0.62451(29) 0.07661(23) 0.63709(14)
C20_2 C 0.63834(29) 0.06821(23) 0.59205(14)
H10_2 H 0.622681 0.038208 0.578237
C21_2 C 0.67655(31) 0.10509(25) 0.56618(16)
H11_2 H 0.686664 0.099097 0.535868
C22_2 C 0.69870(31) 0.14963(24) 0.58567(14)
C23_2 C 0.68382(34) 0.15732(28) 0.63194(16)
H12_2 H 0.699091 0.187313 0.645835
C24_2 C 0.64713(34) 0.12153(27) 0.65728(16)
H13_2 H 0.637388 0.127386 0.687932
C25_2 C 0.73683(31) 0.18989(24) 0.55763(14)
C26_2 C 0.73246(26) 0.19542(21) 0.50683(13)
H14_2 H 0.706910 0.171931 0.489543
C27_2 C 0.78871(20) 0.28343(16) 0.40159(12)
H15_2 H 0.817386 0.303990 0.416476
C28_2 C 0.77853(19) 0.29383(16) 0.35446(11)
C29_2 C 0.81467(19) 0.33774(16) 0.32884(11)
Zr4_2 Zr 0.51699(4) 0.59052(2) 0.68377(2)
O16_2 O 0.56608(16) 0.51469(10) 0.69881(9)
O17_2 O 0.57185(18) 0.57509(11) 0.65408(10)
O18_2 O 0.85685(14) 0.50663(8) 0.33921(9)
O19_2 O 0.80085(12) 0.44285(7) 0.29927(8)
O20_2 O 0.51218(16) 0.58731(10) 0.60133(9)
O21_2 O 0.43975(9) 0.56025(5) 0.67339(12)
O22_2 O 0.49020(20) 0.60057(12) 0.750000
O23_2 O 0.58308(19) 0.65608(11) 0.69985(16)
O24_2 O 0.54728(21) 0.57342(12) 0.750000
O25_2 O 0.48176(9) 0.51824(5) 0.69266(12)
C30_2 C 0.58395(28) 0.54541(17) 0.66490(14)
C31_2 C 0.62451(29) 0.54790(18) 0.63709(14)
C32_2 C 0.63834(29) 0.57013(18) 0.59205(14)
H16_2 H 0.622681 0.584473 0.578237
C33_2 C 0.67655(31) 0.57146(19) 0.56618(16)
H17_2 H 0.686664 0.587567 0.535868
C34_2 C 0.69870(31) 0.54907(19) 0.58567(14)
C35_2 C 0.68382(34) 0.5265(2) 0.63194(16)
H18_2 H 0.699091 0.511778 0.645835
C36_2 C 0.64713(34) 0.5256(2) 0.65728(16)
H19_2 H 0.637388 0.510002 0.687932
C37_2 C 0.73683(31) 0.54694(19) 0.55763(14)
C38_2 C 0.77562(45) 0.5512(3) 0.5830(2)
H20_2 H 0.778534 0.557071 0.617351
C39_2 C 0.73246(26) 0.53704(16) 0.50683(13)
H21_2 H 0.706910 0.534979 0.489543
C40_2 C 0.76503(30) 0.5301(2) 0.48080(19)
C41_2 C 0.75704(28) 0.51409(19) 0.42720(18)
C42_2 C 0.78871(20) 0.50528(12) 0.40159(12)
H22_2 H 0.817386 0.513396 0.416476
C43_2 C 0.77853(19) 0.48470(11) 0.35446(11)
C44_2 C 0.73622(23) 0.47245(15) 0.33120(16)
H23_2 H 0.728204 0.456409 0.300741
C45_2 C 0.81467(19) 0.47693(11) 0.32884(11)
C46_2 C 0.6003(6) 0.6757(4) 0.750000
H24_2 H 0.626754 0.705507 0.750000
O26_2 O 0.94861(13) 0.51469(10) 0.69881(9)
O28_2 O 0.64978(11) 0.50663(8) 0.33921(9)
O29_2 O 0.64200(10) 0.44285(7) 0.29927(8)
C47_2 C 0.96146(22) 0.54541(17) 0.66490(14)
C48_2 C 0.92339(23) 0.54790(18) 0.63709(14)
C49_2 C 0.93179(23) 0.57013(18) 0.59205(14)
H25_2 H 0.961792 0.584473 0.578237
C50_2 C 0.89491(25) 0.57146(19) 0.56618(16)
H26_2 H 0.900903 0.587567 0.535868
C51_2 C 0.85037(24) 0.54907(19) 0.58567(14)
C52_2 C 0.84268(28) 0.5265(2) 0.63194(16)
H27_2 H 0.812687 0.511778 0.645835
C53_2 C 0.87847(27) 0.5256(2) 0.65728(16)
H28_2 H 0.872614 0.510002 0.687932
C54_2 C 0.81011(24) 0.54694(19) 0.55763(14)
C55_2 C 0.80458(21) 0.53704(16) 0.50683(13)
H29_2 H 0.828069 0.534979 0.489543
C56_2 C 0.71657(16) 0.50528(12) 0.40159(12)
H30_2 H 0.696010 0.513396 0.416476
C57_2 C 0.70617(16) 0.48470(11) 0.35446(11)
C58_2 C 0.66226(16) 0.47693(11) 0.32884(11)
O30_2 O 0.58308(19) 0.65608(11) 0.80015(16)
O31_2 O 0.58731(16) 0.07513(13) 0.39867(9)
Zr7_2 Zr 0.92647(3) 0.40948(2) 0.31623(2)
Zr8_2 Zr 0.59052(4) 0.51699(2) 0.31623(2)
Zr9_2 Zr 0.92647(3) 0.51699(2) 0.31623(2)
Zr13_2 Zr 0.40948(4) 0.48301(2) 0.68377(2)
Zr14_2 Zr 0.50635(4) 0.49365(2) 0.750000
Zr15_2 Zr 0.50635(4) 0.01270(3) 0.750000
Zr17_2 Zr 0.83969(4) 0.41984(2) 0.250000
O33_2 O 0.94861(13) 0.51469(10) 0.80119(9)
O34_2 O 0.94861(13) 0.43392(9) 0.80119(9)
O35_2 O 0.57509(17) 0.00324(14) 0.34592(10)
O38_2 O 0.50663(14) 0.64978(11) 0.66079(9)
O39_2 O 0.55715(12) 0.19915(7) 0.20073(8)
O40_2 O 0.64200(10) 0.19915(7) 0.20073(8)
O41_2 O 0.55715(12) 0.19915(7) 0.29927(8)
O43_2 O 0.56025(9) 0.12050(7) 0.32661(12)
O46_2 O 0.50980(20) 0.11037(16) 0.250000
O52_2 O 0.51824(9) 0.03648(7) 0.30734(12)
O12_2 O 0.57185(18) 0.99676(14) 0.65408(10)
Zr12_2 Zr 0.51699(4) 0.92647(3) 0.68377(2)
O27_3 O 0.42815(9) 0.00324(14) 0.15408(10)
O32_3 O 0.48782(9) 0.07513(13) 0.10133(9)
O36_3 O 0.49337(8) 0.14315(14) 0.16079(9)
O48_3 O 0.41692(10) 0.07300(15) 0.19985(16)
O50_3 O 0.45272(12) 0.02614(17) 0.250000
O16_3 O 0.05139(13) 0.56608(16) 0.19881(9)
C30_3 C 0.03854(22) 0.58395(28) 0.16490(14)
C31_3 C 0.07661(23) 0.62451(29) 0.13709(14)
C32_3 C 0.06821(23) 0.63834(29) 0.09205(14)
H16_3 H 0.038208 0.622681 0.078237
C33_3 C 0.10509(25) 0.67655(31) 0.06618(16)
H17_3 H 0.099097 0.686664 0.035868
C34_3 C 0.14963(24) 0.69870(31) 0.08567(14)
C35_3 C 0.15732(28) 0.68382(34) 0.13194(16)
H18_3 H 0.187313 0.699091 0.145835
C36_3 C 0.12153(27) 0.64713(34) 0.15728(16)
H19_3 H 0.127386 0.637388 0.187932
C37_3 C 0.18989(24) 0.73683(31) 0.05763(14)
C38_3 C 0.22442(34) 0.77562(45) 0.0830(2)
H20_3 H 0.221463 0.778534 0.117351
C39_3 C 0.19542(21) 0.73246(26) 0.00683(13)
O26_3 O 0.43392(9) 0.94861(13) 0.19881(9)
C47_3 C 0.41605(14) 0.96146(22) 0.16490(14)
C48_3 C 0.37549(15) 0.92339(23) 0.13709(14)
C49_3 C 0.36166(15) 0.93179(23) 0.09205(14)
H25_3 H 0.377319 0.961792 0.078237
C50_3 C 0.32345(16) 0.89491(25) 0.06618(16)
H26_3 H 0.313336 0.900903 0.035868
C51_3 C 0.30130(15) 0.85037(24) 0.08567(14)
C52_3 C 0.31618(19) 0.84268(28) 0.13194(16)
H27_3 H 0.300909 0.812687 0.145835
C53_3 C 0.35287(18) 0.87847(27) 0.15728(16)
H28_3 H 0.362612 0.872614 0.187932
C54_3 C 0.26317(14) 0.81011(24) 0.05763(14)
C55_3 C 0.26754(13) 0.80458(21) 0.00683(13)
O33_3 O 0.43392(9) 0.94861(13) 0.30119(9)
O34_3 O 0.51469(10) 0.94861(13) 0.30119(9)
O18_3 O 0.35022(11) 0.85685(14) 0.83921(9)
O19_3 O 0.35800(10) 0.80085(12) 0.79927(8)
H21_3 H 0.171931 0.706910 0.989543
C40_3 C 0.23493(23) 0.76503(30) 0.98080(19)
C41_3 C 0.24295(21) 0.75704(28) 0.92720(18)
C42_3 C 0.28343(16) 0.78871(20) 0.90159(12)
H22_3 H 0.303990 0.817386 0.916476
C43_3 C 0.29383(16) 0.77853(19) 0.85446(11)
C44_3 C 0.26377(17) 0.73622(23) 0.83120(16)
H23_3 H 0.271795 0.728204 0.800741
C45_3 C 0.33774(16) 0.81467(19) 0.82884(11)
O28_3 O 0.14315(8) 0.64978(11) 0.83921(9)
H29_3 H 0.293090 0.828069 0.989543
C56_3 C 0.21129(11) 0.71657(16) 0.90159(12)
H30_3 H 0.182614 0.696010 0.916476
C57_3 C 0.22147(11) 0.70617(16) 0.85446(11)
C58_3 C 0.18533(11) 0.66226(16) 0.82884(11)
O31_3 O 0.51218(9) 0.58731(16) 0.89867(9)
Zr8_3 Zr 0.07353(3) 0.59052(4) 0.81623(2)
Zr9_3 Zr 0.40948(2) 0.92647(3) 0.81623(2)
O35_3 O 0.57185(9) 0.57509(17) 0.84592(10)
O39_3 O 0.35800(10) 0.55715(12) 0.70073(8)
O40_3 O 0.44285(7) 0.64200(10) 0.70073(8)
O43_3 O 0.43975(5) 0.56025(9) 0.82661(12)
O46_3 O 0.39943(12) 0.50980(20) 0.750000
O52_3 O 0.48176(5) 0.51824(9) 0.80734(12)
Zr4_3 Zr 0.92647(3) 0.51699(4) 0.18377(2)
O17_3 O 0.99676(14) 0.57185(18) 0.15408(10)
O20_3 O 0.92487(13) 0.51218(16) 0.10133(9)
O21_3 O 0.87950(7) 0.43975(9) 0.17339(12)
O22_3 O 0.88963(16) 0.49020(20) 0.250000
O23_3 O 0.92700(15) 0.58308(19) 0.19985(16)
O24_3 O 0.97386(17) 0.54728(21) 0.250000
O25_3 O 0.96352(7) 0.48176(9) 0.19266(12)
C46_3 C 0.9246(5) 0.6003(6) 0.250000
H24_3 H 0.921247 0.626754 0.250000
O30_3 O 0.92700(15) 0.58308(19) 0.30015(16)
O38_3 O 0.85685(8) 0.50663(14) 0.16079(9)
O16_4 O 0.48531(10) 0.05139(13) 0.69881(9)
O18_4 O 0.49337(8) 0.35022(11) 0.33921(9)
O19_4 O 0.55715(7) 0.35800(10) 0.29927(8)
C30_4 C 0.45459(17) 0.03854(22) 0.66490(14)
C31_4 C 0.45210(18) 0.07661(23) 0.63709(14)
C32_4 C 0.42987(18) 0.06821(23) 0.59205(14)
H16_4 H 0.415527 0.038208 0.578237
C33_4 C 0.42854(19) 0.10509(25) 0.56618(16)
H17_4 H 0.412433 0.099097 0.535868
C34_4 C 0.45093(19) 0.14963(24) 0.58567(14)
C35_4 C 0.4735(2) 0.15732(28) 0.63194(16)
H18_4 H 0.488222 0.187313 0.645835
C36_4 C 0.4744(2) 0.12153(27) 0.65728(16)
H19_4 H 0.489998 0.127386 0.687932
C37_4 C 0.45306(19) 0.18989(24) 0.55763(14)
C38_4 C 0.4488(3) 0.22442(34) 0.5830(2)
H20_4 H 0.442929 0.221463 0.617351
C39_4 C 0.46296(16) 0.19542(21) 0.50683(13)
H21_4 H 0.465021 0.171931 0.489543
C40_4 C 0.4699(2) 0.23493(23) 0.48080(19)
C41_4 C 0.48591(19) 0.24295(21) 0.42720(18)
C42_4 C 0.49472(12) 0.28343(16) 0.40159(12)
H22_4 H 0.486604 0.303990 0.416476
C43_4 C 0.51530(11) 0.29383(16) 0.35446(11)
C44_4 C 0.52755(15) 0.26377(17) 0.33120(16)
H23_4 H 0.543591 0.271795 0.300741
C45_4 C 0.52307(11) 0.33774(16) 0.32884(11)
O26_4 O 0.48531(10) 0.43392(9) 0.69881(9)
O27_4 O 0.42491(11) 0.42815(9) 0.65408(10)
O28_4 O 0.49337(8) 0.14315(8) 0.33921(9)
C47_4 C 0.45459(17) 0.41605(14) 0.66490(14)
C48_4 C 0.45210(18) 0.37549(15) 0.63709(14)
C49_4 C 0.42987(18) 0.36166(15) 0.59205(14)
H25_4 H 0.415527 0.377319 0.578237
C50_4 C 0.42854(19) 0.32345(16) 0.56618(16)
H26_4 H 0.412433 0.313336 0.535868
C51_4 C 0.45093(19) 0.30130(15) 0.58567(14)
C52_4 C 0.4735(2) 0.31618(19) 0.63194(16)
H27_4 H 0.488222 0.300909 0.645835
C53_4 C 0.4744(2) 0.35287(18) 0.65728(16)
H28_4 H 0.489998 0.362612 0.687932
C54_4 C 0.45306(19) 0.26317(14) 0.55763(14)
C55_4 C 0.46296(16) 0.26754(13) 0.50683(13)
H29_4 H 0.465021 0.293090 0.489543
C56_4 C 0.49472(12) 0.21129(11) 0.40159(12)
H30_4 H 0.486604 0.182614 0.416476
C57_4 C 0.51530(11) 0.22147(11) 0.35446(11)
C58_4 C 0.52307(11) 0.18533(11) 0.32884(11)
O31_4 O 0.92487(13) 0.51218(9) 0.39867(9)
O32_4 O 0.41269(10) 0.48782(9) 0.60133(9)
Zr8_4 Zr 0.48301(2) 0.07353(3) 0.31623(2)
O33_4 O 0.48531(10) 0.43392(9) 0.80119(9)
O34_4 O 0.56608(9) 0.51469(10) 0.80119(9)
O35_4 O 0.99676(14) 0.57185(9) 0.34592(10)
O36_4 O 0.35022(11) 0.49337(8) 0.66079(9)
O39_4 O 0.80085(7) 0.35800(10) 0.20073(8)
O40_4 O 0.80085(7) 0.44285(7) 0.20073(8)
O43_4 O 0.87950(7) 0.43975(5) 0.32661(12)
O46_4 O 0.88963(16) 0.39943(12) 0.250000
O48_4 O 0.34392(11) 0.41692(10) 0.69985(16)
O50_4 O 0.42658(12) 0.45272(12) 0.750000
O52_4 O 0.96352(7) 0.48176(5) 0.30734(12)
Zr4_4 Zr 0.40948(2) 0.92647(3) 0.68377(2)
O17_4 O 0.42491(11) 0.99676(14) 0.65408(10)
O20_4 O 0.41269(10) 0.92487(13) 0.60133(9)
O21_4 O 0.43975(5) 0.87950(7) 0.67339(12)
O22_4 O 0.39943(12) 0.88963(16) 0.750000
O23_4 O 0.34392(11) 0.92700(15) 0.69985(16)
O24_4 O 0.42658(12) 0.97386(17) 0.750000
O25_4 O 0.48176(5) 0.96352(7) 0.69266(12)
C46_4 C 0.3243(4) 0.9246(5) 0.750000
H24_4 H 0.294493 0.921247 0.750000
O30_4 O 0.34392(11) 0.92700(15) 0.80015(16)
O38_4 O 0.35022(11) 0.85685(8) 0.66079(9)
O33_5 O 0.05139(13) 0.48531(10) 0.30119(9)
O34_5 O 0.05139(13) 0.56608(9) 0.30119(9)
O31_5 O 0.41269(16) 0.92487(13) 0.89867(9)
O35_5 O 0.42491(17) 0.99676(14) 0.84592(10)
O39_5 O 0.44285(12) 0.80085(7) 0.70073(8)
O40_5 O 0.35800(10) 0.80085(7) 0.70073(8)
O43_5 O 0.43975(9) 0.87950(7) 0.82661(12)
O46_5 O 0.49020(20) 0.88963(16) 0.750000
O52_5 O 0.48176(9) 0.96352(7) 0.80734(12)
O32_5 O 0.92487(13) 0.41269(10) 0.10133(9)
O36_5 O 0.85685(14) 0.35022(11) 0.16079(9)
O48_5 O 0.92700(15) 0.34392(11) 0.19985(16)
O50_5 O 0.97386(17) 0.42658(12) 0.250000
O31_6 O 0.48782(9) 0.41269(16) 0.39867(9)
O33_6 O 0.56608(9) 0.05139(13) 0.80119(9)
O34_6 O 0.48531(10) 0.05139(13) 0.80119(9)
O35_6 O 0.42815(9) 0.42491(17) 0.34592(10)
O39_6 O 0.64200(10) 0.44285(12) 0.20073(8)
O40_6 O 0.55715(7) 0.35800(10) 0.20073(8)
O43_6 O 0.56025(5) 0.43975(9) 0.32661(12)
O32_6 O 0.51218(9) 0.92487(13) 0.60133(9)
O36_6 O 0.50663(8) 0.85685(14) 0.66079(9)
O48_6 O 0.58308(10) 0.92700(15) 0.69985(16)
O50_6 O 0.54728(12) 0.97386(17) 0.750000
O2_3 O 0.57509(11) 0.57185(9) 0.34592(10)
O5_3 O 0.58731(10) 0.51218(9) 0.39867(9)
O8_3 O 0.65608(11) 0.58308(10) 0.30015(16)
C1_3 C 0.54541(17) 0.58395(14) 0.33510(14)
C2_3 C 0.54790(18) 0.62451(15) 0.36291(14)
C3_3 C 0.57013(18) 0.63834(15) 0.40795(14)
H1_3 H 0.584473 0.622681 0.421763
C4_3 C 0.57146(19) 0.67655(16) 0.43382(16)
H2_3 H 0.587567 0.686664 0.464132
C5_3 C 0.54907(19) 0.69870(15) 0.41433(14)
C6_3 C 0.5265(2) 0.68382(19) 0.36806(16)
H3_3 H 0.511778 0.699091 0.354165
C7_3 C 0.5256(2) 0.64713(18) 0.34272(16)
H4_3 H 0.510002 0.637388 0.312068
C8_3 C 0.54694(19) 0.73683(14) 0.44237(14)
C9_3 C 0.5512(3) 0.77562(15) 0.4170(2)
H5_3 H 0.557071 0.778534 0.382649
C10_3 C 0.53704(16) 0.73246(13) 0.49317(13)
H6_3 H 0.534979 0.706910 0.510457
C11_3 C 0.5301(2) 0.76503(11) 0.51920(19)
C12_3 C 0.51409(19) 0.75704(9) 0.57280(18)
C13_3 C 0.50528(12) 0.78871(11) 0.59841(12)
H7_3 H 0.513396 0.817386 0.583524
C14_3 C 0.48470(11) 0.77853(11) 0.64554(11)
C15_3 C 0.47245(15) 0.73622(8) 0.66880(16)
H8_3 H 0.456409 0.728204 0.699259
C16_3 C 0.47693(11) 0.81467(11) 0.67116(11)
C17_3 C 0.6757(4) 0.6003(3) 0.250000
H9_3 H 0.705507 0.626754 0.250000
C18_3 C 0.54541(17) 0.96146(22) 0.33510(14)
C19_3 C 0.54790(18) 0.92339(23) 0.36291(14)
C20_3 C 0.57013(18) 0.93179(23) 0.40795(14)
H10_3 H 0.584473 0.961792 0.421763
C21_3 C 0.57146(19) 0.89491(25) 0.43382(16)
H11_3 H 0.587567 0.900903 0.464132
C22_3 C 0.54907(19) 0.85037(24) 0.41433(14)
C23_3 C 0.5265(2) 0.84268(28) 0.36806(16)
H12_3 H 0.511778 0.812687 0.354165
C24_3 C 0.5256(2) 0.87847(27) 0.34272(16)
H13_3 H 0.510002 0.872614 0.312068
C25_3 C 0.54694(19) 0.81011(24) 0.44237(14)
C26_3 C 0.53704(16) 0.80458(21) 0.49317(13)
H14_3 H 0.534979 0.828069 0.510457
C27_3 C 0.50528(12) 0.71657(16) 0.59841(12)
H15_3 H 0.513396 0.696010 0.583524
C28_3 C 0.48470(11) 0.70617(16) 0.64554(11)
C29_3 C 0.47693(11) 0.66226(16) 0.67116(11)
C30_5 C 0.03854(22) 0.45459(17) 0.33510(14)
C31_5 C 0.07661(23) 0.45210(18) 0.36291(14)
C32_5 C 0.06821(23) 0.42987(18) 0.40795(14)
H16_5 H 0.038208 0.415527 0.421763
C33_5 C 0.10509(25) 0.42854(19) 0.43382(16)
H17_5 H 0.099097 0.412433 0.464132
C34_5 C 0.14963(24) 0.45093(19) 0.41433(14)
C35_5 C 0.15732(28) 0.4735(2) 0.36806(16)
H18_5 H 0.187313 0.488222 0.354165
C36_5 C 0.12153(27) 0.4744(2) 0.34272(16)
H19_5 H 0.127386 0.489998 0.312068
C37_5 C 0.18989(24) 0.45306(19) 0.44237(14)
C38_5 C 0.22442(34) 0.4488(3) 0.4170(2)
H20_5 H 0.221463 0.442929 0.382649
C39_5 C 0.19542(21) 0.46296(16) 0.49317(13)
H21_5 H 0.171931 0.465021 0.510457
C40_5 C 0.23493(23) 0.4699(2) 0.51920(19)
C41_5 C 0.24295(21) 0.48591(19) 0.57280(18)
C42_5 C 0.28343(16) 0.49472(12) 0.59841(12)
H22_5 H 0.303990 0.486604 0.583524
C43_5 C 0.29383(16) 0.51530(11) 0.64554(11)
C44_5 C 0.26377(17) 0.52755(15) 0.66880(16)
H23_5 H 0.271795 0.543591 0.699259
C45_5 C 0.33774(16) 0.52307(11) 0.67116(11)
C47_5 C 0.41605(14) 0.45459(17) 0.33510(14)
C48_5 C 0.37549(15) 0.45210(18) 0.36291(14)
C49_5 C 0.36166(15) 0.42987(18) 0.40795(14)
H25_5 H 0.377319 0.415527 0.421763
C50_5 C 0.32345(16) 0.42854(19) 0.43382(16)
H26_5 H 0.313336 0.412433 0.464132
C51_5 C 0.30130(15) 0.45093(19) 0.41433(14)
C52_5 C 0.31618(19) 0.4735(2) 0.36806(16)
H27_5 H 0.300909 0.488222 0.354165
C53_5 C 0.35287(18) 0.4744(2) 0.34272(16)
H28_5 H 0.362612 0.489998 0.312068
C54_5 C 0.26317(14) 0.45306(19) 0.44237(14)
C55_5 C 0.26754(13) 0.46296(16) 0.49317(13)
H29_5 H 0.293090 0.465021 0.510457
C56_5 C 0.21129(11) 0.49472(12) 0.59841(12)
H30_5 H 0.182614 0.486604 0.583524
C57_5 C 0.22147(11) 0.51530(11) 0.64554(11)
C58_5 C 0.18533(11) 0.52307(11) 0.67116(11)
O17_5 O 0.99676(14) 0.42491(11) 0.34592(10)
O20_5 O 0.92487(13) 0.41269(10) 0.39867(9)
O23_5 O 0.92700(15) 0.34392(11) 0.30015(16)
C46_5 C 0.9246(5) 0.3243(4) 0.250000
H24_5 H 0.921247 0.294493 0.250000
O2_4 O 0.00324(14) 0.57509(11) 0.84592(10)
O5_4 O 0.07513(13) 0.58731(10) 0.89867(9)
O8_4 O 0.07300(15) 0.65608(11) 0.80015(16)
C17_4 C 0.0754(5) 0.6757(4) 0.750000
H9_4 H 0.078753 0.705507 0.750000
H6_4 H 0.828069 0.534979 0.010457
C11_4 C 0.76507(23) 0.5301(2) 0.01920(19)
C12_4 C 0.75705(21) 0.51409(19) 0.07280(18)
C13_4 C 0.71657(16) 0.50528(12) 0.09841(12)
H7_4 H 0.696010 0.513396 0.083524
C14_4 C 0.70617(16) 0.48470(11) 0.14554(11)
C15_4 C 0.73623(17) 0.47245(15) 0.16880(16)
H8_4 H 0.728205 0.456409 0.199259
C16_4 C 0.66226(16) 0.47693(11) 0.17116(11)
H14_4 H 0.706910 0.534979 0.010457
C27_4 C 0.78871(20) 0.50528(12) 0.09841(12)
H15_4 H 0.817386 0.513396 0.083524
C28_4 C 0.77853(19) 0.48470(11) 0.14554(11)
C29_4 C 0.81467(19) 0.47693(11) 0.17116(11)
H21_6 H 0.706910 0.171931 0.010457
C40_6 C 0.76503(30) 0.23493(23) 0.01920(19)
C41_6 C 0.75704(28) 0.24295(21) 0.07280(18)
C42_6 C 0.78871(20) 0.28343(16) 0.09841(12)
H22_6 H 0.817386 0.303990 0.083524
C43_6 C 0.77853(19) 0.29383(16) 0.14554(11)
C44_6 C 0.73622(23) 0.26377(17) 0.16880(16)
H23_6 H 0.728204 0.271795 0.199259
C45_6 C 0.81467(19) 0.33774(16) 0.17116(11)
H29_6 H 0.828069 0.293090 0.010457
C56_6 C 0.71657(16) 0.21129(11) 0.09841(12)
H30_6 H 0.696010 0.182614 0.083524
C57_6 C 0.70617(16) 0.22147(11) 0.14554(11)
C58_6 C 0.66226(16) 0.18533(11) 0.17116(11)
C1_4 C 0.96146(22) 0.54541(17) 0.83510(14)
C2_4 C 0.92339(23) 0.54790(18) 0.86291(14)
C3_4 C 0.93179(23) 0.57013(18) 0.90795(14)
H1_4 H 0.961792 0.584473 0.921763
C4_4 C 0.89491(25) 0.57146(19) 0.93382(16)
H2_4 H 0.900903 0.587567 0.964132
C5_4 C 0.85037(24) 0.54907(19) 0.91433(14)
C6_4 C 0.84268(28) 0.5265(2) 0.86806(16)
H3_4 H 0.812687 0.511778 0.854165
C7_4 C 0.87847(27) 0.5256(2) 0.84272(16)
H4_4 H 0.872614 0.510002 0.812068
C8_4 C 0.81011(24) 0.54694(19) 0.94237(14)
C9_4 C 0.77558(34) 0.5512(3) 0.9170(2)
H5_4 H 0.778537 0.557071 0.882649
C10_4 C 0.80458(21) 0.53704(16) 0.99317(13)
C18_4 C 0.58395(28) 0.54541(17) 0.83510(14)
C19_4 C 0.62451(29) 0.54790(18) 0.86291(14)
C20_4 C 0.63834(29) 0.57013(18) 0.90795(14)
H10_4 H 0.622681 0.584473 0.921763
C21_4 C 0.67655(31) 0.57146(19) 0.93382(16)
H11_4 H 0.686664 0.587567 0.964132
C22_4 C 0.69870(31) 0.54907(19) 0.91433(14)
C23_4 C 0.68382(34) 0.5265(2) 0.86806(16)
H12_4 H 0.699091 0.511778 0.854165
C24_4 C 0.64713(34) 0.5256(2) 0.84272(16)
H13_4 H 0.637388 0.510002 0.812068
C25_4 C 0.73683(31) 0.54694(19) 0.94237(14)
C26_4 C 0.73246(26) 0.53704(16) 0.99317(13)
C30_6 C 0.58395(28) 0.03854(22) 0.83510(14)
C31_6 C 0.62451(29) 0.07661(23) 0.86291(14)
C32_6 C 0.63834(29) 0.06821(23) 0.90795(14)
H16_6 H 0.622681 0.038208 0.921763
C33_6 C 0.67655(31) 0.10509(25) 0.93382(16)
H17_6 H 0.686664 0.099097 0.964132
C34_6 C 0.69870(31) 0.14963(24) 0.91433(14)
C35_6 C 0.68382(34) 0.15732(28) 0.86806(16)
H18_6 H 0.699091 0.187313 0.854165
C36_6 C 0.64713(34) 0.12153(27) 0.84272(16)
H19_6 H 0.637388 0.127386 0.812068
C37_6 C 0.73683(31) 0.18989(24) 0.94237(14)
C38_6 C 0.77562(45) 0.22442(34) 0.9170(2)
H20_6 H 0.778534 0.221463 0.882649
C39_6 C 0.73246(26) 0.19542(21) 0.99317(13)
C47_6 C 0.96146(22) 0.41605(14) 0.83510(14)
C48_6 C 0.92339(23) 0.37549(15) 0.86291(14)
C49_6 C 0.93179(23) 0.36166(15) 0.90795(14)
H25_6 H 0.961792 0.377319 0.921763
C50_6 C 0.89491(25) 0.32345(16) 0.93382(16)
H26_6 H 0.900903 0.313336 0.964132
C51_6 C 0.85037(24) 0.30130(15) 0.91433(14)
C52_6 C 0.84268(28) 0.31618(19) 0.86806(16)
H27_6 H 0.812687 0.300909 0.854165
C53_6 C 0.87847(27) 0.35287(18) 0.84272(16)
H28_6 H 0.872614 0.362612 0.812068
C54_6 C 0.81011(24) 0.26317(14) 0.94237(14)
C55_6 C 0.80458(21) 0.26754(13) 0.99317(13)
O17_6 O 0.57185(18) 0.99676(14) 0.84592(10)
O20_6 O 0.51218(16) 0.92487(13) 0.89867(9)
O23_6 O 0.58308(19) 0.92700(15) 0.80015(16)
C46_6 C 0.6003(6) 0.9246(5) 0.750000
H24_6 H 0.626754 0.921247 0.750000
O2_5 O 0.42815(9) 0.00324(14) 0.34592(10)
O5_5 O 0.48782(9) 0.07513(13) 0.39867(9)
O8_5 O 0.41692(10) 0.07300(15) 0.30015(16)
C17_5 C 0.3997(3) 0.0754(5) 0.250000
H9_5 H 0.373246 0.078753 0.250000
C1_5 C 0.41605(14) 0.96146(22) 0.33510(14)
C2_5 C 0.37549(15) 0.92339(23) 0.36291(14)
C3_5 C 0.36166(15) 0.93179(23) 0.40795(14)
H1_5 H 0.377319 0.961792 0.421763
C4_5 C 0.32345(16) 0.89491(25) 0.43382(16)
H2_5 H 0.313336 0.900903 0.464132
C5_5 C 0.30130(15) 0.85037(24) 0.41433(14)
C6_5 C 0.31618(19) 0.84268(28) 0.36806(16)
H3_5 H 0.300909 0.812687 0.354165
C7_5 C 0.35287(18) 0.87847(27) 0.34272(16)
H4_5 H 0.362612 0.872614 0.312068
C8_5 C 0.26317(14) 0.81011(24) 0.44237(14)
C9_5 C 0.22438(15) 0.77558(34) 0.4170(2)
H5_5 H 0.221466 0.778537 0.382649
C10_5 C 0.26754(13) 0.80458(21) 0.49317(13)
H6_5 H 0.293090 0.828069 0.510457
C11_5 C 0.23497(11) 0.76507(23) 0.51920(19)
C12_5 C 0.24296(9) 0.75705(21) 0.57280(18)
C13_5 C 0.21129(11) 0.71657(16) 0.59841(12)
H7_5 H 0.182614 0.696010 0.583524
C14_5 C 0.22147(11) 0.70617(16) 0.64554(11)
C15_5 C 0.26378(8) 0.73623(17) 0.66880(16)
H8_5 H 0.271796 0.728205 0.699259
C16_5 C 0.18533(11) 0.66226(16) 0.67116(11)
C18_5 C 0.03854(22) 0.58395(28) 0.33510(14)
C19_5 C 0.07661(23) 0.62451(29) 0.36291(14)
C20_5 C 0.06821(23) 0.63834(29) 0.40795(14)
H10_5 H 0.038208 0.622681 0.421763
C21_5 C 0.10509(25) 0.67655(31) 0.43382(16)
H11_5 H 0.099097 0.686664 0.464132
C22_5 C 0.14963(24) 0.69870(31) 0.41433(14)
C23_5 C 0.15732(28) 0.68382(34) 0.36806(16)
H12_5 H 0.187313 0.699091 0.354165
C24_5 C 0.12153(27) 0.64713(34) 0.34272(16)
H13_5 H 0.127386 0.637388 0.312068
C25_5 C 0.18989(24) 0.73683(31) 0.44237(14)
C26_5 C 0.19542(21) 0.73246(26) 0.49317(13)
H14_5 H 0.171931 0.706910 0.510457
C27_5 C 0.28343(16) 0.78871(20) 0.59841(12)
H15_5 H 0.303990 0.817386 0.583524
C28_5 C 0.29383(16) 0.77853(19) 0.64554(11)
C29_5 C 0.33774(16) 0.81467(19) 0.67116(11)
H6_6 H 0.465021 0.293090 0.010457
C11_6 C 0.4699(2) 0.23497(11) 0.01920(19)
C12_6 C 0.48591(19) 0.24296(9) 0.07280(18)
C13_6 C 0.49472(12) 0.21129(11) 0.09841(12)
H7_6 H 0.486604 0.182614 0.083524
C14_6 C 0.51530(11) 0.22147(11) 0.14554(11)
C15_6 C 0.52755(15) 0.26378(8) 0.16880(16)
H8_6 H 0.543591 0.271796 0.199259
C16_6 C 0.52307(11) 0.18533(11) 0.17116(11)
H14_6 H 0.465021 0.171931 0.010457
C27_6 C 0.49472(12) 0.28343(16) 0.09841(12)
H15_6 H 0.486604 0.303990 0.083524
C28_6 C 0.51530(11) 0.29383(16) 0.14554(11)
C29_6 C 0.52307(11) 0.33774(16) 0.17116(11)
O2_6 O 0.42491(11) 0.42815(9) 0.84592(10)
O5_6 O 0.41269(10) 0.48782(9) 0.89867(9)
O8_6 O 0.34392(11) 0.41692(10) 0.80015(16)
C1_6 C 0.45459(17) 0.41605(14) 0.83510(14)
C2_6 C 0.45210(18) 0.37549(15) 0.86291(14)
C3_6 C 0.42987(18) 0.36166(15) 0.90795(14)
H1_6 H 0.415527 0.377319 0.921763
C4_6 C 0.42854(19) 0.32345(16) 0.93382(16)
H2_6 H 0.412433 0.313336 0.964132
C5_6 C 0.45093(19) 0.30130(15) 0.91433(14)
C6_6 C 0.4735(2) 0.31618(19) 0.86806(16)
H3_6 H 0.488222 0.300909 0.854165
C7_6 C 0.4744(2) 0.35287(18) 0.84272(16)
H4_6 H 0.489998 0.362612 0.812068
C8_6 C 0.45306(19) 0.26317(14) 0.94237(14)
C9_6 C 0.4488(3) 0.22438(15) 0.9170(2)
H5_6 H 0.442929 0.221466 0.882649
C10_6 C 0.46296(16) 0.26754(13) 0.99317(13)
C17_6 C 0.3243(4) 0.3997(3) 0.750000
H9_6 H 0.294493 0.373246 0.750000
C18_6 C 0.45459(17) 0.03854(22) 0.83510(14)
C19_6 C 0.45210(18) 0.07661(23) 0.86291(14)
C20_6 C 0.42987(18) 0.06821(23) 0.90795(14)
H10_6 H 0.415527 0.038208 0.921763
C21_6 C 0.42854(19) 0.10509(25) 0.93382(16)
H11_6 H 0.412433 0.099097 0.964132
C22_6 C 0.45093(19) 0.14963(24) 0.91433(14)
C23_6 C 0.4735(2) 0.15732(28) 0.86806(16)
H12_6 H 0.488222 0.187313 0.854165
C24_6 C 0.4744(2) 0.12153(27) 0.84272(16)
H13_6 H 0.489998 0.127386 0.812068
C25_6 C 0.45306(19) 0.18989(24) 0.94237(14)
C26_6 C 0.46296(16) 0.19542(21) 0.99317(13)
loop_
_geom_bond_atom_site_label_1
_geom_bond_atom_site_label_2
_geom_bond_site_symmetry_1
_geom_bond_site_symmetry_2
Zr4 O17 1_555 1_555
O20 Zr4 1_555 1_555
O21 Zr4 1_555 1_555
O22 Zr4 1_555 1_555
O23 Zr4 1_555 1_555
O24 Zr4 1_555 1_555
O25 Zr4 1_555 1_555
C46 O23 1_555 1_555
H24 C46 1_555 1_555
O30 C46 1_555 1_555
Zr11 O22 1_555 1_555
Zr13 O21 1_555 1_555
Zr16 O21 1_555 1_555
O38 Zr4 1_555 1_555
O22 Zr16 1_555 1_555
O24 Zr11 1_555 1_555
O25 Zr13 1_555 1_555
O30 Zr11 1_555 1_555
Zr1 O2 1_555 1_555
Zr2 O1 1_555 1_555
O1 C1 1_555 1_555
O2 C1 1_555 1_555
O5 Zr1 1_555 1_555
O6 Zr1 1_555 1_555
O7 Zr1 1_555 1_555
O8 Zr1 1_555 1_555
O9 Zr1 1_555 1_555
O10 Zr1 1_555 1_555
C1 C2 1_555 1_555
C2 C3 1_555 1_555
C3 H1 1_555 1_555
C4 C3 1_555 1_555
H2 C4 1_555 1_555
C5 C4 1_555 1_555
C6 C5 1_555 1_555
H3 C6 1_555 1_555
C7 C2 1_555 1_555
H4 C7 1_555 1_555
C8 C5 1_555 1_555
C9 C8 1_555 1_555
H5 C9 1_555 1_555
C10 C8 1_555 1_555
C17 O8 1_555 1_555
H9 C17 1_555 1_555
O11 C18 1_555 1_555
C18 C19 1_555 1_555
C19 C20 1_555 1_555
C20 H10 1_555 1_555
C21 C20 1_555 1_555
H11 C21 1_555 1_555
C22 C21 1_555 1_555
C23 C22 1_555 1_555
H12 C23 1_555 1_555
C24 C19 1_555 1_555
H13 C24 1_555 1_555
C25 C9 1_555 1_555
O15 C17 1_555 1_555
O16 C30 1_555 1_555
C30 C31 1_555 1_555
C31 C32 1_555 1_555
C32 H16 1_555 1_555
C33 C32 1_555 1_555
H17 C33 1_555 1_555
C34 C33 1_555 1_555
C35 C34 1_555 1_555
H18 C35 1_555 1_555
C36 C31 1_555 1_555
H19 C36 1_555 1_555
C37 C34 1_555 1_555
C38 C37 1_555 1_555
H20 C38 1_555 1_555
C39 C37 1_555 1_555
O26 Zr2 1_555 1_555
O27 C47 1_555 1_555
C47 O26 1_555 1_555
C48 C47 1_555 1_555
C49 C48 1_555 1_555
H25 C49 1_555 1_555
C50 C49 1_555 1_555
H26 C50 1_555 1_555
C51 C50 1_555 1_555
C52 C51 1_555 1_555
H27 C52 1_555 1_555
C53 C48 1_555 1_555
H28 C53 1_555 1_555
C54 C38 1_555 1_555
Zr6 O6 1_555 1_555
O32 Zr6 1_555 1_555
Zr10 O7 1_555 1_555
Zr14 O16 1_555 1_555
Zr15 O11 1_555 1_555
Zr19 O6 1_555 1_555
O33 Zr2 1_555 1_555
O34 Zr2 1_555 1_555
O36 Zr6 1_555 1_555
O37 Zr1 1_555 1_555
O45 Zr6 1_555 1_555
O48 Zr6 1_555 1_555
O50 Zr2 1_555 1_555
O51 Zr2 1_555 1_555
Zr2 O9 1_555 1_555
Zr2 O10 1_555 1_555
O7 Zr19 1_555 1_555
O9 Zr10 1_555 1_555
O10 Zr6 1_555 1_555
C6 C7 1_555 1_555
C22 C25 1_555 1_555
C23 C24 1_555 1_555
C25 C26 1_555 1_555
O15 Zr10 1_555 1_555
C35 C36 1_555 1_555
O27 Zr6 1_555 1_555
C51 C54 1_555 1_555
C52 C53 1_555 1_555
C54 C55 1_555 1_555
Zr6 O50 1_555 1_555
Zr10 O51 1_555 1_555
Zr19 O45 1_555 1_555
Zr3 O4 1_555 1_555
O3 C16 1_555 1_555
O4 C16 1_555 1_555
C12 C11 1_555 1_555
C13 C12 1_555 1_555
H7 C13 1_555 1_555
C14 C13 1_555 1_555
C15 C14 1_555 1_555
H8 C15 1_555 1_555
C16 C14 1_555 1_555
O13 C29 1_555 1_555
O14 C29 1_555 1_555
C27 C12 1_555 1_555
H15 C27 1_555 1_555
C28 C15 1_555 1_555
C29 C28 1_555 1_555
O18 C45 1_555 1_555
O19 C45 1_555 1_555
C41 C40 1_555 1_555
C42 C41 1_555 1_555
H22 C42 1_555 1_555
C43 C42 1_555 1_555
C44 C43 1_555 1_555
H23 C44 1_555 1_555
C45 C43 1_555 1_555
O28 C58 1_555 1_555
O29 C58 1_555 1_555
C56 C41 1_555 1_555
H30 C56 1_555 1_555
C57 C44 1_555 1_555
C58 C57 1_555 1_555
Zr5 O3 1_555 1_555
O31 Zr5 1_555 1_555
Zr7 O13 1_555 1_555
Zr8 O28 1_555 1_555
Zr9 O18 1_555 1_555
Zr17 O14 1_555 1_555
Zr18 O29 1_555 1_555
O35 Zr5 1_555 1_555
O39 Zr3 1_555 1_555
O40 Zr3 1_555 1_555
O41 Zr3 1_555 1_555
O42 Zr3 1_555 1_555
O43 Zr3 1_555 1_555
O44 Zr3 1_555 1_555
O46 Zr3 1_555 1_555
O47 Zr5 1_555 1_555
O49 Zr5 1_555 1_555
O52 Zr5 1_555 1_555
C27 C28 1_555 1_555
O19 Zr17 1_555 1_555
C56 C57 1_555 1_555
Zr5 O43 1_555 1_555
Zr5 O44 1_555 1_555
Zr12 O12 1_555 1_555
Zr1_2 O2_2 1_555 1_555
O5_2 Zr1_2 1_555 1_555
O42 Zr1_2 1_555 1_555
O44 Zr1_2 1_555 1_555
O8_2 Zr1_2 1_555 1_555
O49 Zr1_2 1_555 1_555
O10_2 Zr1_2 1_555 1_555
C17_2 O8_2 1_555 1_555
H9_2 C17_2 1_555 1_555
O47 C17_2 1_555 1_555
Zr6_2 O42 1_555 1_555
O32_2 Zr6_2 1_555 1_555
O36_2 Zr6_2 1_555 1_555
O37_2 Zr1_2 1_555 1_555
O46 Zr6_2 1_555 1_555
O48_2 Zr6_2 1_555 1_555
O10_2 Zr6_2 1_555 1_555
O27_2 Zr6_2 1_555 1_555
Zr6_2 O50_2 1_555 1_555
Zr2_2 O1_2 1_555 1_555
Zr16 O4_2 1_555 1_555
O1_2 C1_2 1_555 1_555
O3_2 C16_2 1_555 1_555
O4_2 C16_2 1_555 1_555
C1_2 C2_2 1_555 1_555
C2_2 C3_2 1_555 1_555
C3_2 H1_2 1_555 1_555
C4_2 C3_2 1_555 1_555
H2_2 C4_2 1_555 1_555
C5_2 C4_2 1_555 1_555
C6_2 C5_2 1_555 1_555
H3_2 C6_2 1_555 1_555
C7_2 C2_2 1_555 1_555
H4_2 C7_2 1_555 1_555
C8_2 C5_2 1_555 1_555
C9_2 C8_2 1_555 1_555
H5_2 C9_2 1_555 1_555
C10_2 C8_2 1_555 1_555
H6_2 C10_2 1_555 1_555
C11_2 C10_2 1_555 1_555
C12_2 C11_2 1_555 1_555
C13_2 C12_2 1_555 1_555
H7_2 C13_2 1_555 1_555
C14_2 C13_2 1_555 1_555
C15_2 C14_2 1_555 1_555
H8_2 C15_2 1_555 1_555
C16_2 C14_2 1_555 1_555
O11_2 C18_2 1_555 1_555
O13_2 C29_2 1_555 1_555
O14_2 C29_2 1_555 1_555
C18_2 C19_2 1_555 1_555
C19_2 C20_2 1_555 1_555
C20_2 H10_2 1_555 1_555
C21_2 C20_2 1_555 1_555
H11_2 C21_2 1_555 1_555
C22_2 C21_2 1_555 1_555
C23_2 C22_2 1_555 1_555
H12_2 C23_2 1_555 1_555
C24_2 C19_2 1_555 1_555
H13_2 C24_2 1_555 1_555
C25_2 C9_2 1_555 1_555
C26_2 C11_2 1_555 1_555
H14_2 C26_2 1_555 1_555
C27_2 C12_2 1_555 1_555
H15_2 C27_2 1_555 1_555
C28_2 C15_2 1_555 1_555
C29_2 C28_2 1_555 1_555
Zr4_2 O17_2 1_555 1_555
O16_2 C30_2 1_555 1_555
O17_2 C30_2 1_555 1_555
O18_2 C45_2 1_555 1_555
O19_2 C45_2 1_555 1_555
O20_2 Zr4_2 1_555 1_555
O21_2 Zr4_2 1_555 1_555
O22_2 Zr4_2 1_555 1_555
O23_2 Zr4_2 1_555 1_555
O24_2 Zr4_2 1_555 1_555
O25_2 Zr4_2 1_555 1_555
C30_2 C31_2 1_555 1_555
C31_2 C32_2 1_555 1_555
C32_2 H16_2 1_555 1_555
C33_2 C32_2 1_555 1_555
H17_2 C33_2 1_555 1_555
C34_2 C33_2 1_555 1_555
C35_2 C34_2 1_555 1_555
H18_2 C35_2 1_555 1_555
C36_2 C31_2 1_555 1_555
H19_2 C36_2 1_555 1_555
C37_2 C34_2 1_555 1_555
C38_2 C37_2 1_555 1_555
H20_2 C38_2 1_555 1_555
C39_2 C37_2 1_555 1_555
H21_2 C39_2 1_555 1_555
C40_2 C39_2 1_555 1_555
C41_2 C40_2 1_555 1_555
C42_2 C41_2 1_555 1_555
H22_2 C42_2 1_555 1_555
C43_2 C42_2 1_555 1_555
C44_2 C43_2 1_555 1_555
H23_2 C44_2 1_555 1_555
C45_2 C43_2 1_555 1_555
C46_2 O23_2 1_555 1_555
H24_2 C46_2 1_555 1_555
O26_2 Zr2_2 1_555 1_555
O28_2 C58_2 1_555 1_555
O29_2 C58_2 1_555 1_555
C47_2 O26_2 1_555 1_555
C48_2 C47_2 1_555 1_555
C49_2 C48_2 1_555 1_555
H25_2 C49_2 1_555 1_555
C50_2 C49_2 1_555 1_555
H26_2 C50_2 1_555 1_555
C51_2 C50_2 1_555 1_555
C52_2 C51_2 1_555 1_555
H27_2 C52_2 1_555 1_555
C53_2 C48_2 1_555 1_555
H28_2 C53_2 1_555 1_555
C54_2 C38_2 1_555 1_555
C55_2 C40_2 1_555 1_555
H29_2 C55_2 1_555 1_555
C56_2 C41_2 1_555 1_555
H30_2 C56_2 1_555 1_555
C57_2 C44_2 1_555 1_555
C58_2 C57_2 1_555 1_555
O30_2 C46_2 1_555 1_555
Zr11 O3_2 1_555 1_555
O31_2 Zr11 1_555 1_555
Zr7_2 O13_2 1_555 1_555
Zr8_2 O28_2 1_555 1_555
Zr9_2 O18_2 1_555 1_555
Zr9 O22_2 1_555 1_555
Zr13_2 O21_2 1_555 1_555
Zr14_2 O16_2 1_555 1_555
Zr15_2 O11_2 1_555 1_555
Zr17 O21_2 1_555 1_555
Zr17_2 O14_2 1_555 1_555
Zr19 O29_2 1_555 1_555
O33_2 Zr2_2 1_555 1_555
O34_2 Zr2_2 1_555 1_555
O35_2 Zr11 1_555 1_555
O38_2 Zr4_2 1_555 1_555
O39_2 Zr16 1_555 1_555
O40_2 Zr16 1_555 1_555
O41_2 Zr16 1_555 1_555
O43_2 Zr16 1_555 1_555
O46_2 Zr16 1_555 1_555
O52_2 Zr11 1_555 1_555
C6_2 C7_2 1_555 1_555
C22_2 C25_2 1_555 1_555
C23_2 C24_2 1_555 1_555
C25_2 C26_2 1_555 1_555
C27_2 C28_2 1_555 1_555
O19_2 Zr17_2 1_555 1_555
O22_2 Zr17 1_555 1_555
O24_2 Zr9 1_555 1_555
O24_2 Zr14_2 1_555 1_555
O25_2 Zr13_2 1_555 1_555
O25_2 Zr14_2 1_555 1_555
C35_2 C36_2 1_555 1_555
C51_2 C54_2 1_555 1_555
C52_2 C53_2 1_555 1_555
C54_2 C55_2 1_555 1_555
C56_2 C57_2 1_555 1_555
O30_2 Zr9 1_555 1_555
Zr11 O43_2 1_555 1_555
Zr12_2 O12_2 1_555 1_555
O32_3 Zr13 1_555 1_555
O36_3 Zr13 1_555 1_555
O46_2 Zr13 1_555 1_555
O48_3 Zr13 1_555 1_555
O27_3 Zr13 1_555 1_555
Zr13 O50_3 1_555 1_555
O16_3 C30_3 1_555 1_555
C30_3 C31_3 1_555 1_555
C31_3 C32_3 1_555 1_555
C32_3 H16_3 1_555 1_555
C33_3 C32_3 1_555 1_555
H17_3 C33_3 1_555 1_555
C34_3 C33_3 1_555 1_555
C35_3 C34_3 1_555 1_555
H18_3 C35_3 1_555 1_555
C36_3 C31_3 1_555 1_555
H19_3 C36_3 1_555 1_555
C37_3 C34_3 1_555 1_555
C38_3 C37_3 1_555 1_555
H20_3 C38_3 1_555 1_555
C39_3 C37_3 1_555 1_555
O26_3 Zr14 1_555 1_555
C47_3 O26_3 1_555 1_555
C48_3 C47_3 1_555 1_555
C49_3 C48_3 1_555 1_555
H25_3 C49_3 1_555 1_555
C50_3 C49_3 1_555 1_555
H26_3 C50_3 1_555 1_555
C51_3 C50_3 1_555 1_555
C52_3 C51_3 1_555 1_555
H27_3 C52_3 1_555 1_555
C53_3 C48_3 1_555 1_555
H28_3 C53_3 1_555 1_555
C54_3 C38_3 1_555 1_555
Zr15 O16_3 1_555 1_555
O33_3 Zr14 1_555 1_555
O34_3 Zr14 1_555 1_555
C35_3 C36_3 1_555 1_555
C51_3 C54_3 1_555 1_555
C52_3 C53_3 1_555 1_555
C54_3 C55_3 1_555 1_555
O18_3 C45_3 1_555 1_555
O19_3 C45_3 1_555 1_555
C41_3 C40_3 1_555 1_555
C42_3 C41_3 1_555 1_555
H22_3 C42_3 1_555 1_555
C43_3 C42_3 1_555 1_555
C44_3 C43_3 1_555 1_555
H23_3 C44_3 1_555 1_555
C45_3 C43_3 1_555 1_555
O28_3 C58_3 1_555 1_555
O41 C58_3 1_555 1_555
C56_3 C41_3 1_555 1_555
H30_3 C56_3 1_555 1_555
C57_3 C44_3 1_555 1_555
C58_3 C57_3 1_555 1_555
O31_3 Zr9 1_555 1_555
Zr8_3 O28_3 1_555 1_555
Zr9_3 O18_3 1_555 1_555
O35_3 Zr9 1_555 1_555
O39_3 Zr17 1_555 1_555
O40_3 Zr17 1_555 1_555
O43_3 Zr17 1_555 1_555
O46_3 Zr17 1_555 1_555
O52_3 Zr9 1_555 1_555
O19_3 Zr18 1_555 1_555
C56_3 C57_3 1_555 1_555
Zr9 O43_3 1_555 1_555
Zr4_3 O17_3 1_555 1_555
O20_3 Zr4_3 1_555 1_555
O21_3 Zr4_3 1_555 1_555
O22_3 Zr4_3 1_555 1_555
O23_3 Zr4_3 1_555 1_555
O24_3 Zr4_3 1_555 1_555
O25_3 Zr4_3 1_555 1_555
C46_3 O23_3 1_555 1_555
H24_3 C46_3 1_555 1_555
O30_3 C46_3 1_555 1_555
Zr9_2 O22_3 1_555 1_555
Zr12 O21_3 1_555 1_555
Zr17_2 O21_3 1_555 1_555
O38_3 Zr4_3 1_555 1_555
O22_3 Zr17_2 1_555 1_555
O24_3 Zr9_2 1_555 1_555
O25_3 Zr12 1_555 1_555
O30_3 Zr9_2 1_555 1_555
O16_4 C30_4 1_555 1_555
O18_4 C45_4 1_555 1_555
O19_4 C45_4 1_555 1_555
C30_4 C31_4 1_555 1_555
C31_4 C32_4 1_555 1_555
C32_4 H16_4 1_555 1_555
C33_4 C32_4 1_555 1_555
H17_4 C33_4 1_555 1_555
C34_4 C33_4 1_555 1_555
C35_4 C34_4 1_555 1_555
H18_4 C35_4 1_555 1_555
C36_4 C31_4 1_555 1_555
H19_4 C36_4 1_555 1_555
C37_4 C34_4 1_555 1_555
C38_4 C37_4 1_555 1_555
H20_4 C38_4 1_555 1_555
C39_4 C37_4 1_555 1_555
H21_4 C39_4 1_555 1_555
C40_4 C39_4 1_555 1_555
C41_4 C40_4 1_555 1_555
C42_4 C41_4 1_555 1_555
H22_4 C42_4 1_555 1_555
C43_4 C42_4 1_555 1_555
C44_4 C43_4 1_555 1_555
H23_4 C44_4 1_555 1_555
C45_4 C43_4 1_555 1_555
O26_4 Zr14_2 1_555 1_555
O27_4 C47_4 1_555 1_555
O28_4 C58_4 1_555 1_555
O41_2 C58_4 1_555 1_555
C47_4 O26_4 1_555 1_555
C48_4 C47_4 1_555 1_555
C49_4 C48_4 1_555 1_555
H25_4 C49_4 1_555 1_555
C50_4 C49_4 1_555 1_555
H26_4 C50_4 1_555 1_555
C51_4 C50_4 1_555 1_555
C52_4 C51_4 1_555 1_555
H27_4 C52_4 1_555 1_555
C53_4 C48_4 1_555 1_555
H28_4 C53_4 1_555 1_555
C54_4 C38_4 1_555 1_555
C55_4 C40_4 1_555 1_555
H29_4 C55_4 1_555 1_555
C56_4 C41_4 1_555 1_555
H30_4 C56_4 1_555 1_555
C57_4 C44_4 1_555 1_555
C58_4 C57_4 1_555 1_555
O31_4 Zr9_2 1_555 1_555
O32_4 Zr13_2 1_555 1_555
Zr8_4 O28_4 1_555 1_555
Zr10 O18_4 1_555 1_555
Zr15_2 O16_4 1_555 1_555
O33_4 Zr14_2 1_555 1_555
O34_4 Zr14_2 1_555 1_555
O35_4 Zr9_2 1_555 1_555
O36_4 Zr13_2 1_555 1_555
O39_4 Zr17_2 1_555 1_555
O40_4 Zr17_2 1_555 1_555
O43_4 Zr17_2 1_555 1_555
O46_3 Zr13_2 1_555 1_555
O46_4 Zr17_2 1_555 1_555
O48_4 Zr13_2 1_555 1_555
O50_4 Zr14_2 1_555 1_555
O52_3 Zr14_2 1_555 1_555
O52_4 Zr9_2 1_555 1_555
O19_4 Zr19 1_555 1_555
C35_4 C36_4 1_555 1_555
O27_4 Zr13_2 1_555 1_555
C51_4 C54_4 1_555 1_555
C52_4 C53_4 1_555 1_555
C54_4 C55_4 1_555 1_555
C56_4 C57_4 1_555 1_555
Zr9_2 O43_4 1_555 1_555
Zr13_2 O50_4 1_555 1_555
Zr4_4 O17_4 1_555 1_555
O20_4 Zr4_4 1_555 1_555
O21_4 Zr4_4 1_555 1_555
O22_4 Zr4_4 1_555 1_555
O23_4 Zr4_4 1_555 1_555
O24_4 Zr4_4 1_555 1_555
O25_4 Zr4_4 1_555 1_555
C46_4 O23_4 1_555 1_555
H24_4 C46_4 1_555 1_555
O30_4 C46_4 1_555 1_555
Zr9_3 O22_4 1_555 1_555
Zr12_2 O21_4 1_555 1_555
Zr18 O21_4 1_555 1_555
O38_4 Zr4_4 1_555 1_555
O22_4 Zr18 1_555 1_555
O24_4 Zr9_3 1_555 1_555
O25_4 Zr12_2 1_555 1_555
O30_4 Zr9_3 1_555 1_555
O33_5 Zr15 1_555 1_555
O34_5 Zr15 1_555 1_555
O31_5 Zr9_3 1_555 1_555
O35_5 Zr9_3 1_555 1_555
O39_5 Zr18 1_555 1_555
O40_5 Zr18 1_555 1_555
O43_5 Zr18 1_555 1_555
O46_5 Zr18 1_555 1_555
O52_5 Zr9_3 1_555 1_555
Zr9_3 O43_5 1_555 1_555
O32_5 Zr12 1_555 1_555
O36_5 Zr12 1_555 1_555
O46_4 Zr12 1_555 1_555
O48_5 Zr12 1_555 1_555
Zr12 O50_5 1_555 1_555
O31_6 Zr10 1_555 1_555
O33_6 Zr15_2 1_555 1_555
O34_6 Zr15_2 1_555 1_555
O35_6 Zr10 1_555 1_555
O39_6 Zr19 1_555 1_555
O40_6 Zr19 1_555 1_555
O43_6 Zr19 1_555 1_555
Zr10 O43_6 1_555 1_555
O32_6 Zr12_2 1_555 1_555
O36_6 Zr12_2 1_555 1_555
O46_5 Zr12_2 1_555 1_555
O48_6 Zr12_2 1_555 1_555
Zr12_2 O50_6 1_555 1_555
Zr8_2 O2_3 1_555 1_555
O33 C1_3 1_555 1_555
O2_3 C1_3 1_555 1_555
O36_6 C16_3 1_555 1_555
O39_5 C16_3 1_555 1_555
O5_3 Zr8_2 1_555 1_555
O43_6 Zr8_2 1_555 1_555
O45 Zr8_2 1_555 1_555
O8_3 Zr8_2 1_555 1_555
O50 Zr8_2 1_555 1_555
O51 Zr8_2 1_555 1_555
C1_3 C2_3 1_555 1_555
C2_3 C3_3 1_555 1_555
C3_3 H1_3 1_555 1_555
C4_3 C3_3 1_555 1_555
H2_3 C4_3 1_555 1_555
C5_3 C4_3 1_555 1_555
C6_3 C5_3 1_555 1_555
H3_3 C6_3 1_555 1_555
C7_3 C2_3 1_555 1_555
H4_3 C7_3 1_555 1_555
C8_3 C5_3 1_555 1_555
C9_3 C8_3 1_555 1_555
H5_3 C9_3 1_555 1_555
C10_3 C8_3 1_555 1_555
H6_3 C10_3 1_555 1_555
C11_3 C10_3 1_555 1_555
C12_3 C11_3 1_555 1_555
C13_3 C12_3 1_555 1_555
H7_3 C13_3 1_555 1_555
C14_3 C13_3 1_555 1_555
C15_3 C14_3 1_555 1_555
H8_3 C15_3 1_555 1_555
C16_3 C14_3 1_555 1_555
C17_3 O8_3 1_555 1_555
H9_3 C17_3 1_555 1_555
O34_3 C18_3 1_555 1_555
O38_2 C29_3 1_555 1_555
O40_3 C29_3 1_555 1_555
C18_3 C19_3 1_555 1_555
C19_3 C20_3 1_555 1_555
C20_3 H10_3 1_555 1_555
C21_3 C20_3 1_555 1_555
H11_3 C21_3 1_555 1_555
C22_3 C21_3 1_555 1_555
C23_3 C22_3 1_555 1_555
H12_3 C23_3 1_555 1_555
C24_3 C19_3 1_555 1_555
H13_3 C24_3 1_555 1_555
C25_3 C9_3 1_555 1_555
C26_3 C11_3 1_555 1_555
H14_3 C26_3 1_555 1_555
C27_3 C12_3 1_555 1_555
H15_3 C27_3 1_555 1_555
C28_3 C15_3 1_555 1_555
C29_3 C28_3 1_555 1_555
O48 C17_3 1_555 1_555
O33_5 C30_5 1_555 1_555
O36_4 C45_5 1_555 1_555
O39_3 C45_5 1_555 1_555
C30_5 C31_5 1_555 1_555
C31_5 C32_5 1_555 1_555
C32_5 H16_5 1_555 1_555
C33_5 C32_5 1_555 1_555
H17_5 C33_5 1_555 1_555
C34_5 C33_5 1_555 1_555
C35_5 C34_5 1_555 1_555
H18_5 C35_5 1_555 1_555
C36_5 C31_5 1_555 1_555
H19_5 C36_5 1_555 1_555
C37_5 C34_5 1_555 1_555
C38_5 C37_5 1_555 1_555
H20_5 C38_5 1_555 1_555
C39_5 C37_5 1_555 1_555
H21_5 C39_5 1_555 1_555
C40_5 C39_5 1_555 1_555
C41_5 C40_5 1_555 1_555
C42_5 C41_5 1_555 1_555
H22_5 C42_5 1_555 1_555
C43_5 C42_5 1_555 1_555
C44_5 C43_5 1_555 1_555
H23_5 C44_5 1_555 1_555
C45_5 C43_5 1_555 1_555
O35_6 C47_5 1_555 1_555
O37_2 C58_5 1_555 1_555
O40 C58_5 1_555 1_555
C47_5 O34 1_555 1_555
C48_5 C47_5 1_555 1_555
C49_5 C48_5 1_555 1_555
H25_5 C49_5 1_555 1_555
C50_5 C49_5 1_555 1_555
H26_5 C50_5 1_555 1_555
C51_5 C50_5 1_555 1_555
C52_5 C51_5 1_555 1_555
H27_5 C52_5 1_555 1_555
C53_5 C48_5 1_555 1_555
H28_5 C53_5 1_555 1_555
C54_5 C38_5 1_555 1_555
C55_5 C40_5 1_555 1_555
H29_5 C55_5 1_555 1_555
C56_5 C41_5 1_555 1_555
H30_5 C56_5 1_555 1_555
C57_5 C44_5 1_555 1_555
C58_5 C57_5 1_555 1_555
C6_3 C7_3 1_555 1_555
C22_3 C25_3 1_555 1_555
C23_3 C24_3 1_555 1_555
C25_3 C26_3 1_555 1_555
C27_3 C28_3 1_555 1_555
C35_5 C36_5 1_555 1_555
C51_5 C54_5 1_555 1_555
C52_5 C53_5 1_555 1_555
C54_5 C55_5 1_555 1_555
C56_5 C57_5 1_555 1_555
Zr7_2 O17_5 1_555 1_555
O20_5 Zr7_2 1_555 1_555
O43_4 Zr7_2 1_555 1_555
O46_4 Zr7_2 1_555 1_555
O23_5 Zr7_2 1_555 1_555
O50_5 Zr7_2 1_555 1_555
O52_4 Zr7_2 1_555 1_555
C46_5 O23_5 1_555 1_555
H24_5 C46_5 1_555 1_555
O48_5 C46_5 1_555 1_555
Zr8_3 O2_4 1_555 1_555
O5_4 Zr8_3 1_555 1_555
O43 Zr8_3 1_555 1_555
O46 Zr8_3 1_555 1_555
O8_4 Zr8_3 1_555 1_555
O50_2 Zr8_3 1_555 1_555
O52 Zr8_3 1_555 1_555
C17_4 O8_4 1_555 1_555
H9_4 C17_4 1_555 1_555
O48_2 C17_4 1_555 1_555
O36 C16_4 1_555 1_555
O39_6 C16_4 1_555 1_555
C12_4 C11_4 1_555 1_555
C13_4 C12_4 1_555 1_555
H7_4 C13_4 1_555 1_555
C14_4 C13_4 1_555 1_555
C15_4 C14_4 1_555 1_555
H8_4 C15_4 1_555 1_555
C16_4 C14_4 1_555 1_555
O38_3 C29_4 1_555 1_555
O40_4 C29_4 1_555 1_555
C27_4 C12_4 1_555 1_555
H15_4 C27_4 1_555 1_555
C28_4 C15_4 1_555 1_555
C29_4 C28_4 1_555 1_555
O36_5 C45_6 1_555 1_555
O39_4 C45_6 1_555 1_555
C41_6 C40_6 1_555 1_555
C42_6 C41_6 1_555 1_555
H22_6 C42_6 1_555 1_555
C43_6 C42_6 1_555 1_555
C44_6 C43_6 1_555 1_555
H23_6 C44_6 1_555 1_555
C45_6 C43_6 1_555 1_555
O38 C58_6 1_555 1_555
O40_2 C58_6 1_555 1_555
C56_6 C41_6 1_555 1_555
H30_6 C56_6 1_555 1_555
C57_6 C44_6 1_555 1_555
C58_6 C57_6 1_555 1_555
C27_4 C28_4 1_555 1_555
C56_6 C57_6 1_555 1_555
O33_2 C1_4 1_555 1_555
C1_4 C2_4 1_555 1_555
C2_4 C3_4 1_555 1_555
C3_4 H1_4 1_555 1_555
C4_4 C3_4 1_555 1_555
H2_4 C4_4 1_555 1_555
C5_4 C4_4 1_555 1_555
C6_4 C5_4 1_555 1_555
H3_4 C6_4 1_555 1_555
C7_4 C2_4 1_555 1_555
H4_4 C7_4 1_555 1_555
C8_4 C5_4 1_555 1_555
C9_4 C8_4 1_555 1_555
H5_4 C9_4 1_555 1_555
C10_4 C8_4 1_555 1_555
O34_4 C18_4 1_555 1_555
O35_3 C18_4 1_555 1_555
C18_4 C19_4 1_555 1_555
C19_4 C20_4 1_555 1_555
C20_4 H10_4 1_555 1_555
C21_4 C20_4 1_555 1_555
H11_4 C21_4 1_555 1_555
C22_4 C21_4 1_555 1_555
C23_4 C22_4 1_555 1_555
H12_4 C23_4 1_555 1_555
C24_4 C19_4 1_555 1_555
H13_4 C24_4 1_555 1_555
C25_4 C9_4 1_555 1_555
O33_6 C30_6 1_555 1_555
C30_6 C31_6 1_555 1_555
C31_6 C32_6 1_555 1_555
C32_6 H16_6 1_555 1_555
C33_6 C32_6 1_555 1_555
H17_6 C33_6 1_555 1_555
C34_6 C33_6 1_555 1_555
C35_6 C34_6 1_555 1_555
H18_6 C35_6 1_555 1_555
C36_6 C31_6 1_555 1_555
H19_6 C36_6 1_555 1_555
C37_6 C34_6 1_555 1_555
C38_6 C37_6 1_555 1_555
H20_6 C38_6 1_555 1_555
C39_6 C37_6 1_555 1_555
C47_6 O34_2 1_555 1_555
C48_6 C47_6 1_555 1_555
C49_6 C48_6 1_555 1_555
H25_6 C49_6 1_555 1_555
C50_6 C49_6 1_555 1_555
H26_6 C50_6 1_555 1_555
C51_6 C50_6 1_555 1_555
C52_6 C51_6 1_555 1_555
H27_6 C52_6 1_555 1_555
C53_6 C48_6 1_555 1_555
H28_6 C53_6 1_555 1_555
C54_6 C38_6 1_555 1_555
C6_4 C7_4 1_555 1_555
C22_4 C25_4 1_555 1_555
C23_4 C24_4 1_555 1_555
C25_4 C26_4 1_555 1_555
C35_6 C36_6 1_555 1_555
C51_6 C54_6 1_555 1_555
C52_6 C53_6 1_555 1_555
C54_6 C55_6 1_555 1_555
Zr8 O17_6 1_555 1_555
O20_6 Zr8 1_555 1_555
O43_5 Zr8 1_555 1_555
O46_5 Zr8 1_555 1_555
O23_6 Zr8 1_555 1_555
O50_6 Zr8 1_555 1_555
O52_5 Zr8 1_555 1_555
C46_6 O23_6 1_555 1_555
H24_6 C46_6 1_555 1_555
O48_6 C46_6 1_555 1_555
Zr8_4 O2_5 1_555 1_555
O5_5 Zr8_4 1_555 1_555
O43_2 Zr8_4 1_555 1_555
O46_2 Zr8_4 1_555 1_555
O8_5 Zr8_4 1_555 1_555
O50_3 Zr8_4 1_555 1_555
O52_2 Zr8_4 1_555 1_555
C17_5 O8_5 1_555 1_555
H9_5 C17_5 1_555 1_555
O48_3 C17_5 1_555 1_555
O33_3 C1_5 1_555 1_555
O36_2 C16_5 1_555 1_555
O39 C16_5 1_555 1_555
C1_5 C2_5 1_555 1_555
C2_5 C3_5 1_555 1_555
C3_5 H1_5 1_555 1_555
C4_5 C3_5 1_555 1_555
H2_5 C4_5 1_555 1_555
C5_5 C4_5 1_555 1_555
C6_5 C5_5 1_555 1_555
H3_5 C6_5 1_555 1_555
C7_5 C2_5 1_555 1_555
H4_5 C7_5 1_555 1_555
C8_5 C5_5 1_555 1_555
C9_5 C8_5 1_555 1_555
H5_5 C9_5 1_555 1_555
C10_5 C8_5 1_555 1_555
H6_5 C10_5 1_555 1_555
C11_5 C10_5 1_555 1_555
C12_5 C11_5 1_555 1_555
C13_5 C12_5 1_555 1_555
H7_5 C13_5 1_555 1_555
C14_5 C13_5 1_555 1_555
C15_5 C14_5 1_555 1_555
H8_5 C15_5 1_555 1_555
C16_5 C14_5 1_555 1_555
O34_5 C18_5 1_555 1_555
O38_4 C29_5 1_555 1_555
O40_5 C29_5 1_555 1_555
C18_5 C19_5 1_555 1_555
C19_5 C20_5 1_555 1_555
C20_5 H10_5 1_555 1_555
C21_5 C20_5 1_555 1_555
H11_5 C21_5 1_555 1_555
C22_5 C21_5 1_555 1_555
C23_5 C22_5 1_555 1_555
H12_5 C23_5 1_555 1_555
C24_5 C19_5 1_555 1_555
H13_5 C24_5 1_555 1_555
C25_5 C9_5 1_555 1_555
C26_5 C11_5 1_555 1_555
H14_5 C26_5 1_555 1_555
C27_5 C12_5 1_555 1_555
H15_5 C27_5 1_555 1_555
C28_5 C15_5 1_555 1_555
C29_5 C28_5 1_555 1_555
C6_5 C7_5 1_555 1_555
C22_5 C25_5 1_555 1_555
C23_5 C24_5 1_555 1_555
C25_5 C26_5 1_555 1_555
C27_5 C28_5 1_555 1_555
O36_3 C16_6 1_555 1_555
O39_2 C16_6 1_555 1_555
C12_6 C11_6 1_555 1_555
C13_6 C12_6 1_555 1_555
H7_6 C13_6 1_555 1_555
C14_6 C13_6 1_555 1_555
C15_6 C14_6 1_555 1_555
H8_6 C15_6 1_555 1_555
C16_6 C14_6 1_555 1_555
O37 C29_6 1_555 1_555
O40_6 C29_6 1_555 1_555
C27_6 C12_6 1_555 1_555
H15_6 C27_6 1_555 1_555
C28_6 C15_6 1_555 1_555
C29_6 C28_6 1_555 1_555
C27_6 C28_6 1_555 1_555
Zr7 O2_6 1_555 1_555
O33_4 C1_6 1_555 1_555
O2_6 C1_6 1_555 1_555
O5_6 Zr7 1_555 1_555
O43_3 Zr7 1_555 1_555
O46_3 Zr7 1_555 1_555
O8_6 Zr7 1_555 1_555
O50_4 Zr7 1_555 1_555
O52_3 Zr7 1_555 1_555
C1_6 C2_6 1_555 1_555
C2_6 C3_6 1_555 1_555
C3_6 H1_6 1_555 1_555
C4_6 C3_6 1_555 1_555
H2_6 C4_6 1_555 1_555
C5_6 C4_6 1_555 1_555
C6_6 C5_6 1_555 1_555
H3_6 C6_6 1_555 1_555
C7_6 C2_6 1_555 1_555
H4_6 C7_6 1_555 1_555
C8_6 C5_6 1_555 1_555
C9_6 C8_6 1_555 1_555
H5_6 C9_6 1_555 1_555
C10_6 C8_6 1_555 1_555
C17_6 O8_6 1_555 1_555
H9_6 C17_6 1_555 1_555
O34_6 C18_6 1_555 1_555
C18_6 C19_6 1_555 1_555
C19_6 C20_6 1_555 1_555
C20_6 H10_6 1_555 1_555
C21_6 C20_6 1_555 1_555
H11_6 C21_6 1_555 1_555
C22_6 C21_6 1_555 1_555
C23_6 C22_6 1_555 1_555
H12_6 C23_6 1_555 1_555
C24_6 C19_6 1_555 1_555
H13_6 C24_6 1_555 1_555
C25_6 C9_6 1_555 1_555
O48_4 C17_6 1_555 1_555
C6_6 C7_6 1_555 1_555
C22_6 C25_6 1_555 1_555
C23_6 C24_6 1_555 1_555
C25_6 C26_6 1_555 1_555

#END
