
###############################################################################
#
# This file contains modified crystal structure data generated from the
# MOF subset of the Cambridge Structural Database (CSD) v543 
# hosted by the Cambridge Crystallographic Data Centre (CCDC).
#
# This work is licensed under the Creative Commons
# Attribution-NonCommercial-ShareAlike 4.0 International License.
# To view a copy of this license, visit
# http://creativecommons.org/licenses/by-nc-sa/4.0/
# or send a letter to
# Creative Commons, PO Box 1866, Mountain View, CA 94042, USA.
#
# CIF created using the CSD Python API on 29 September 2022
# The structure has been converted into the P1 space group
# The structure has a 3D framework
# The original CSD entry JONDEY is in the monoclinic crystal system
# The framework has been calculated to contain at least 10.0% void space
# The void calculation uses a probe of radius 1.32A, grid spacing 0.4
#
###############################################################################

data_JONDEY
_chemical_formula_moiety         '(C344 H264 B8 Cd8 F18 N32 O32)n'
_symmetry_cell_setting           triclinic
_symmetry_space_group_name_H-M   'P 1'
_symmetry_Int_Tables_number      1
_space_group_name_Hall           'P 1'
loop_
_symmetry_equiv_pos_site_id
_symmetry_equiv_pos_as_xyz
1 x,y,z
_cell_length_a                   19.636(2)
_cell_length_b                   16.5479(17)
_cell_length_c                   28.621(3)
_cell_angle_alpha                90
_cell_angle_beta                 91.415(5)
_cell_angle_gamma                90
_cell_volume                     9297.12
loop_
_atom_site_label
_atom_site_type_symbol
_atom_site_fract_x
_atom_site_fract_y
_atom_site_fract_z
N8 N 0.2275(8) 0.1720(10) 0.0473(6)
H17 H 0.037635 0.393481 0.030568
C69 C 0.0127(9) 0.1691(16) 0.0620(9)
H47 H 0.048535 0.238298 0.143451
C72 C 0.0863(10) 0.1714(16) 0.0578(9)
C73 C 0.1236(12) 0.1049(17) 0.0462(10)
H49 H 0.101018 0.054739 0.041428
C74 C 0.1926(11) 0.1087(14) 0.0414(11)
H50 H 0.215732 0.060624 0.033126
C75 C 0.1935(12) 0.2373(16) 0.0638(9)
H51 H 0.219595 0.284247 0.070818
C76 C 0.1263(10) 0.2414(15) 0.0710(10)
H52 H 0.106005 0.287958 0.084202
Cd3 Cd 0.34255(6) 0.16484(7) 0.04465(4)
N4 N 0.2237(7) 0.3244(8) 0.9538(5)
C26 C 0.0127(10) 0.3269(15) 0.9410(8)
H14 H 0.038946 0.263795 0.862139
C29 C 0.0834(10) 0.3251(15) 0.9486(8)
C40 C 0.1919(11) 0.2624(13) 0.9407(8)
H30 H 0.217595 0.215292 0.934049
C41 C 0.1221(10) 0.2584(14) 0.9353(9)
H31 H 0.100732 0.211427 0.922756
C42 C 0.1918(10) 0.3883(13) 0.9632(9)
H32 H 0.216610 0.435378 0.972014
C43 C 0.1185(12) 0.3912(15) 0.9610(10)
H33 H 0.095244 0.439857 0.968168
H54 H 0.037717 0.113766 0.975268
Cd5 Cd 0.34047(6) 0.33482(7) 0.95575(4)
F1 F 0.8437(7) 0.4536(9) 0.0000(7)
F2 F 0.8467(6) 0.3388(13) 0.0388(5)
F3 F 0.8447(7) 0.0414(9) 0.0076(7)
O2 O 0.3419(6) 0.3055(7) 0.0400(3)
O3 O 0.3375(6) 0.4290(7) 0.0151(4)
O4 O 0.3334(6) 0.5504(7) 0.4053(4)
O5 O 0.3398(8) 0.6677(7) 0.3763(4)
O7 O 0.3381(7) 0.0491(7) 0.0950(4)
O8 O 0.3454(7) 0.1676(8) 0.1254(4)
N5 N 0.4577(5) 0.1698(8) 0.0457(4)
N6 N 0.7809(7) 0.1532(10) 0.0365(7)
N7 N 0.9061(7) 0.1507(12) 0.0384(7)
C1 C 0.3373(8) 0.3786(10) 0.0457(5)
C2 C 0.3292(8) 0.4085(9) 0.0964(5)
C3 C 0.3399(9) 0.3549(10) 0.1338(5)
H1 H 0.348120 0.298986 0.128834
C4 C 0.3378(11) 0.3865(12) 0.1770(7)
H2 H 0.348667 0.352889 0.203036
C5 C 0.3200(9) 0.4683(11) 0.1849(5)
C6 C 0.3088(10) 0.5143(11) 0.1463(6)
H3 H 0.299045 0.570194 0.149811
C7 C 0.3112(11) 0.4840(12) 0.1054(6)
H4 H 0.299341 0.517800 0.079629
C8 C 0.3186(8) 0.4981(11) 0.2342(5)
C9 C 0.3290(11) 0.5786(11) 0.2424(6)
H5 H 0.332340 0.613617 0.216268
C10 C 0.3346(11) 0.6110(11) 0.2852(6)
H6 H 0.344583 0.666822 0.289261
C11 C 0.3257(10) 0.5614(11) 0.3229(5)
C12 C 0.3341(8) 0.5951(11) 0.3710(5)
C13 C 0.3169(10) 0.4816(11) 0.3170(5)
H7 H 0.312289 0.447069 0.343266
C14 C 0.3148(11) 0.4499(12) 0.2717(6)
H8 H 0.310488 0.393169 0.267478
C30 C 0.9880(12) 0.3887(17) 0.0271(8)
H16 H 0.967469 0.442644 0.027785
H18 H 0.970554 0.356136 0.052744
C39 C 0.7021(10) 0.3893(13) 0.0303(8)
H27 H 0.738698 0.373362 0.052353
H28 H 0.658609 0.368067 0.041008
H29 H 0.699800 0.448389 0.028606
C49 C 0.3018(12) 0.0103(12) 0.3504(6)
H36 H 0.285733 0.063672 0.344825
H37 H 0.295098 0.017744 0.420830
C52 C 0.3385(11) 0.0938(12) 0.1291(6)
C53 C 0.3288(11) 0.0586(11) 0.1756(6)
C56 C 0.3326(14) 0.1108(13) 0.2134(7)
H40 H 0.339550 0.167119 0.209151
C57 C 0.3260(15) 0.0777(15) 0.2579(8)
H41 H 0.328055 0.112737 0.284208
C58 C 0.4954(9) 0.1080(12) 0.0331(8)
H42 H 0.472117 0.061202 0.022060
C59 C 0.5650(8) 0.1051(11) 0.0346(7)
H43 H 0.589232 0.059719 0.023223
C60 C 0.5990(8) 0.1731(11) 0.0539(7)
C61 C 0.5616(9) 0.2384(13) 0.0665(7)
H44 H 0.583479 0.286465 0.077159
C62 C 0.4928(8) 0.2339(12) 0.0638(6)
H45 H 0.467365 0.278196 0.075283
C63 C 0.6767(8) 0.1753(11) 0.0524(7)
C64 C 0.7182(11) 0.1425(13) 0.0226(10)
C65 C 0.7814(9) 0.1882(13) 0.0813(8)
C66 C 0.8436(9) 0.2025(13) 0.1032(9)
C67 C 0.9051(9) 0.1846(14) 0.0836(9)
C68 C 0.9705(9) 0.1477(12) 0.0219(6)
C70 C 0.9730(11) 0.1986(16) 0.0949(10)
C71 C 0.9989(11) 0.2317(18) 0.1436(10)
H46 H 0.977546 0.284092 0.149652
H48 H 0.986894 0.193458 0.168231
C78 C 0.8442(9) 0.2366(14) 0.1502(7)
C79 C 0.8430(10) 0.3202(14) 0.1552(8)
H56 H 0.843094 0.353829 0.128332
C80 C 0.8418(13) 0.3544(13) 0.1995(10)
H57 H 0.841047 0.411546 0.202921
C81 C 0.8417(13) 0.3052(19) 0.2389(7)
H58 H 0.840898 0.328622 0.269144
C82 C 0.8429(13) 0.2216(18) 0.2339(7)
H59 H 0.842794 0.187982 0.260777
C83 C 0.8441(11) 0.1874(12) 0.1896(10)
H60 H 0.844840 0.130263 0.186187
C84 C 0.7157(9) 0.2015(13) 0.0935(8)
C85 C 0.6883(12) 0.2380(14) 0.1370(8)
H61 H 0.685259 0.296741 0.133335
H62 H 0.718836 0.225108 0.163582
H63 H 0.642924 0.215922 0.142612
B2 B 0.8447(14) 0.124(2) 0.0090(15)
Cd7 Cd 0.34047(6) 0.66518(7) 0.45575(4)
F1_2 F 0.8437(7) 0.4536(9) 1.0000(7)
F4 F 0.8441(7) 0.1566(14) 0.9673(6)
N1 N 0.4557(6) 0.3301(8) 0.9566(4)
N2 N 0.7786(8) 0.3444(11) 0.9696(7)
N3 N 0.9028(8) 0.3454(13) 0.9677(7)
C15 C 0.4932(9) 0.3911(12) 0.9701(7)
H9 H 0.470714 0.437369 0.981929
C16 C 0.5638(8) 0.3931(11) 0.9685(7)
H10 H 0.589413 0.438947 0.978395
C17 C 0.5952(9) 0.3233(10) 0.9513(7)
C18 C 0.5596(8) 0.2616(10) 0.9383(7)
H11 H 0.581082 0.214155 0.927154
C19 C 0.4891(8) 0.2658(10) 0.9409(6)
H12 H 0.463125 0.220223 0.930963
C20 C 0.6709(9) 0.3232(10) 0.9515(7)
C21 C 0.7159(11) 0.3567(14) 0.9842(10)
C22 C 0.7774(9) 0.3116(13) 0.9250(8)
C23 C 0.8388(9) 0.2957(14) 0.9024(8)
C24 C 0.9019(9) 0.3125(14) 0.9245(9)
C25 C 0.9699(8) 0.3479(12) 0.9804(5)
C27 C 0.9687(10) 0.3008(15) 0.9103(9)
C28 C 0.9893(11) 0.269(2) 0.8628(11)
H13 H 0.968265 0.216028 0.857240
H15 H 0.973832 0.306742 0.838333
C31 C 0.8381(8) 0.2568(13) 0.8576(6)
C32 C 0.8384(9) 0.1731(13) 0.8538(6)
H19 H 0.841452 0.140590 0.881127
C33 C 0.8342(11) 0.1368(11) 0.8100(8)
H20 H 0.834368 0.079606 0.807403
C34 C 0.8297(12) 0.1844(17) 0.7700(6)
H21 H 0.826842 0.159597 0.740054
C35 C 0.8295(11) 0.2681(16) 0.7738(6)
H22 H 0.826399 0.300571 0.746428
C36 C 0.8337(10) 0.3043(11) 0.8176(8)
H23 H 0.833483 0.361557 0.820151
C37 C 0.7087(10) 0.2964(12) 0.9117(8)
C38 C 0.6824(12) 0.2585(15) 0.8682(8)
H24 H 0.693683 0.200827 0.868454
H25 H 0.703242 0.284431 0.841286
H26 H 0.632832 0.265137 0.865976
C77 C 0.9883(12) 0.1108(16) 0.9788(9)
H53 H 0.973931 0.054081 0.978849
H55 H 0.965402 0.139212 0.952830
C86 C 0.7007(10) 0.1109(12) 0.9766(8)
H64 H 0.725870 0.140550 0.952980
H65 H 0.651636 0.117287 0.970518
H66 H 0.712633 0.053450 0.975294
B1 B 0.8440(11) 0.3711(15) 0.9943(10)
O9 O 0.3404(5) 0.1948(7) 0.9607(4)
O10 O 0.3334(6) 0.4496(7) 0.9053(4)
O11 O 0.3398(8) 0.3323(7) 0.8763(4)
O12 O 0.3362(6) 0.0707(7) 0.9844(4)
O1 O 0.3404(5) 0.8052(7) 0.4607(4)
O6 O 0.3362(6) 0.9293(7) 0.4844(4)
C44 C 0.3337(8) 0.8774(10) 0.4526(5)
C45 C 0.3272(8) 0.9066(10) 0.4028(5)
C46 C 0.3388(10) 0.8549(11) 0.3674(5)
H34 H 0.349067 0.799654 0.373342
C47 C 0.3351(11) 0.8852(11) 0.3214(6)
H35 H 0.343609 0.850283 0.295876
C48 C 0.3192(10) 0.9647(10) 0.3132(5)
C50 C 0.3063(11) 0.9836(14) 0.3955(6)
C51 C 0.3166(11) 0.9961(12) 0.2651(5)
C54 C 0.3217(11) 0.9802(12) 0.1823(5)
H38 H 0.319081 0.944844 0.156211
C55 C 0.3181(12) 0.9487(13) 0.2274(7)
H39 H 0.316671 0.891696 0.231333
Cd4 Cd 0.34255(6) 0.83516(7) 0.54465(4)
N4_2 N 0.2237(7) 0.6756(8) 0.4538(5)
N8_2 N 0.2275(8) 0.8280(10) 0.5473(6)
C26_2 C 0.0127(10) 0.6731(15) 0.4410(8)
H14_2 H 0.038946 0.736205 0.362139
C29_2 C 0.0834(10) 0.6749(15) 0.4486(8)
H17_2 H 0.037635 0.606519 0.530568
C40_2 C 0.1919(11) 0.7376(13) 0.4407(8)
H30_2 H 0.217595 0.784708 0.434049
C41_2 C 0.1221(10) 0.7416(14) 0.4353(9)
H31_2 H 0.100732 0.788573 0.422756
C42_2 C 0.1918(10) 0.6117(13) 0.4632(9)
H32_2 H 0.216610 0.564622 0.472014
C43_2 C 0.1185(12) 0.6088(15) 0.4610(10)
H33_2 H 0.095244 0.560143 0.468168
C69_2 C 0.0127(9) 0.8309(16) 0.5620(9)
H47_2 H 0.048535 0.761702 0.643451
C72_2 C 0.0863(10) 0.8286(16) 0.5578(9)
C73_2 C 0.1236(12) 0.8951(17) 0.5462(10)
H49_2 H 0.101018 0.945261 0.541428
C74_2 C 0.1926(11) 0.8913(14) 0.5414(11)
H50_2 H 0.215732 0.939376 0.533126
C75_2 C 0.1935(12) 0.7627(16) 0.5638(9)
H51_2 H 0.219595 0.715753 0.570818
C76_2 C 0.1263(10) 0.7586(15) 0.5710(10)
H52_2 H 0.106005 0.712042 0.584202
H54_2 H 0.037717 0.886234 0.475268
C44_2 C 0.3337(8) 0.1226(10) 0.9526(5)
C45_2 C 0.3272(8) 0.0934(10) 0.9028(5)
C46_2 C 0.3388(10) 0.1451(11) 0.8674(5)
H34_2 H 0.349067 0.200346 0.873342
C47_2 C 0.3351(11) 0.1148(11) 0.8214(6)
H35_2 H 0.343609 0.149717 0.795876
C48_2 C 0.3192(10) 0.0353(10) 0.8132(5)
C50_2 C 0.3063(11) 0.0164(14) 0.8955(6)
C51_2 C 0.3166(11) 0.0039(12) 0.7651(5)
C54_2 C 0.3217(11) 0.0198(12) 0.6823(5)
H38_2 H 0.319081 0.055156 0.656211
C55_2 C 0.3181(12) 0.0513(13) 0.7274(7)
H39_2 H 0.316671 0.108304 0.731333
F1_3 F 0.8437(7) 0.5464(9) 0.5000(7)
F2_2 F 0.8467(6) 0.6612(13) 0.5388(5)
F3_2 F 0.8447(7) 0.9586(9) 0.5076(7)
F4_2 F 0.8441(7) 0.8434(14) 0.4673(6)
O2_2 O 0.3419(6) 0.6945(7) 0.5400(3)
O3_2 O 0.3375(6) 0.5710(7) 0.5151(4)
O7_2 O 0.3381(7) 0.9509(7) 0.5950(4)
O8_2 O 0.3454(7) 0.8324(8) 0.6254(4)
N1_2 N 0.4557(6) 0.6699(8) 0.4566(4)
N2_2 N 0.7786(8) 0.6556(11) 0.4696(7)
N3_2 N 0.9028(8) 0.6546(13) 0.4677(7)
N5_2 N 0.4577(5) 0.8302(8) 0.5457(4)
N6_2 N 0.7809(7) 0.8468(10) 0.5365(7)
N7_2 N 0.9061(7) 0.8493(12) 0.5384(7)
C1_2 C 0.3373(8) 0.6214(10) 0.5457(5)
C2_2 C 0.3292(8) 0.5915(9) 0.5964(5)
C3_2 C 0.3399(9) 0.6451(10) 0.6338(5)
H1_2 H 0.348120 0.701014 0.628834
C4_2 C 0.3378(11) 0.6135(12) 0.6770(7)
H2_2 H 0.348667 0.647111 0.703036
C5_2 C 0.3200(9) 0.5317(11) 0.6849(5)
C6_2 C 0.3088(10) 0.4857(11) 0.6463(6)
H3_2 H 0.299045 0.429806 0.649811
C7_2 C 0.3112(11) 0.5160(12) 0.6054(6)
H4_2 H 0.299341 0.482200 0.579629
C8_2 C 0.3186(8) 0.5019(11) 0.7342(5)
C9_2 C 0.3290(11) 0.4214(11) 0.7424(6)
H5_2 H 0.332340 0.386383 0.716268
C10_2 C 0.3346(11) 0.3890(11) 0.7852(6)
H6_2 H 0.344583 0.333178 0.789261
C11_2 C 0.3257(10) 0.4386(11) 0.8229(5)
C12_2 C 0.3341(8) 0.4049(11) 0.8710(5)
C13_2 C 0.3169(10) 0.5184(11) 0.8170(5)
H7_2 H 0.312289 0.552931 0.843266
C14_2 C 0.3148(11) 0.5501(12) 0.7717(6)
H8_2 H 0.310488 0.606831 0.767478
C15_2 C 0.4932(9) 0.6089(12) 0.4701(7)
H9_2 H 0.470714 0.562631 0.481929
C16_2 C 0.5638(8) 0.6069(11) 0.4685(7)
H10_2 H 0.589413 0.561053 0.478395
C17_2 C 0.5952(9) 0.6767(10) 0.4513(7)
C18_2 C 0.5596(8) 0.7384(10) 0.4383(7)
H11_2 H 0.581082 0.785845 0.427154
C19_2 C 0.4891(8) 0.7342(10) 0.4409(6)
H12_2 H 0.463125 0.779777 0.430963
C20_2 C 0.6709(9) 0.6768(10) 0.4515(7)
C21_2 C 0.7159(11) 0.6433(14) 0.4842(10)
C22_2 C 0.7774(9) 0.6884(13) 0.4250(8)
C23_2 C 0.8388(9) 0.7043(14) 0.4024(8)
C24_2 C 0.9019(9) 0.6875(14) 0.4245(9)
C25_2 C 0.9699(8) 0.6521(12) 0.4804(5)
C27_2 C 0.9687(10) 0.6992(15) 0.4103(9)
C28_2 C 0.9893(11) 0.731(2) 0.3628(11)
H13_2 H 0.968265 0.783972 0.357240
H15_2 H 0.973832 0.693258 0.338333
C30_2 C 0.9880(12) 0.6113(17) 0.5271(8)
H16_2 H 0.967469 0.557356 0.527785
H18_2 H 0.970554 0.643864 0.552744
C31_2 C 0.8381(8) 0.7432(13) 0.3576(6)
C32_2 C 0.8384(9) 0.8269(13) 0.3538(6)
H19_2 H 0.841452 0.859410 0.381127
C33_2 C 0.8342(11) 0.8632(11) 0.3100(8)
H20_2 H 0.834368 0.920394 0.307403
C34_2 C 0.8297(12) 0.8156(17) 0.2700(6)
H21_2 H 0.826842 0.840403 0.240054
C35_2 C 0.8295(11) 0.7319(16) 0.2738(6)
H22_2 H 0.826399 0.699429 0.246428
C36_2 C 0.8337(10) 0.6957(11) 0.3176(8)
H23_2 H 0.833483 0.638443 0.320151
C37_2 C 0.7087(10) 0.7036(12) 0.4117(8)
C38_2 C 0.6824(12) 0.7415(15) 0.3682(8)
H24_2 H 0.693683 0.799173 0.368454
H25_2 H 0.703242 0.715569 0.341286
H26_2 H 0.632832 0.734863 0.365976
C39_2 C 0.7021(10) 0.6107(13) 0.5303(8)
H27_2 H 0.738698 0.626638 0.552353
H28_2 H 0.658609 0.631933 0.541008
H29_2 H 0.699800 0.551611 0.528606
C49_2 C 0.3018(12) 0.9897(12) 0.8504(6)
H36_2 H 0.285733 0.936328 0.844825
H37_2 H 0.295098 0.982256 0.920830
C52_2 C 0.3385(11) 0.9062(12) 0.6291(6)
C53_2 C 0.3288(11) 0.9414(11) 0.6756(6)
C56_2 C 0.3326(14) 0.8892(13) 0.7134(7)
H40_2 H 0.339550 0.832881 0.709151
C57_2 C 0.3260(15) 0.9223(15) 0.7579(8)
H41_2 H 0.328055 0.887263 0.784208
C58_2 C 0.4954(9) 0.8920(12) 0.5331(8)
H42_2 H 0.472117 0.938798 0.522060
C59_2 C 0.5650(8) 0.8949(11) 0.5346(7)
H43_2 H 0.589232 0.940281 0.523223
C60_2 C 0.5990(8) 0.8269(11) 0.5539(7)
C61_2 C 0.5616(9) 0.7616(13) 0.5665(7)
H44_2 H 0.583479 0.713535 0.577159
C62_2 C 0.4928(8) 0.7661(12) 0.5638(6)
H45_2 H 0.467365 0.721804 0.575283
C63_2 C 0.6767(8) 0.8247(11) 0.5524(7)
C64_2 C 0.7182(11) 0.8575(13) 0.5226(10)
C65_2 C 0.7814(9) 0.8118(13) 0.5813(8)
C66_2 C 0.8436(9) 0.7975(13) 0.6032(9)
C67_2 C 0.9051(9) 0.8154(14) 0.5836(9)
C68_2 C 0.9705(9) 0.8523(12) 0.5219(6)
C70_2 C 0.9730(11) 0.8014(16) 0.5949(10)
C71_2 C 0.9989(11) 0.7683(18) 0.6436(10)
H46_2 H 0.977546 0.715908 0.649652
H48_2 H 0.986894 0.806542 0.668231
C77_2 C 0.9883(12) 0.8892(16) 0.4788(9)
H53_2 H 0.973931 0.945919 0.478849
H55_2 H 0.965402 0.860788 0.452830
C78_2 C 0.8442(9) 0.7634(14) 0.6502(7)
C79_2 C 0.8430(10) 0.6798(14) 0.6552(8)
H56_2 H 0.843094 0.646171 0.628332
C80_2 C 0.8418(13) 0.6456(13) 0.6995(10)
H57_2 H 0.841047 0.588454 0.702921
C81_2 C 0.8417(13) 0.6948(19) 0.7389(7)
H58_2 H 0.840898 0.671378 0.769144
C82_2 C 0.8429(13) 0.7784(18) 0.7339(7)
H59_2 H 0.842794 0.812018 0.760777
C83_2 C 0.8441(11) 0.8126(12) 0.6896(10)
H60_2 H 0.844840 0.869737 0.686187
C84_2 C 0.7157(9) 0.7985(13) 0.5935(8)
C85_2 C 0.6883(12) 0.7620(14) 0.6370(8)
H61_2 H 0.685259 0.703259 0.633335
H62_2 H 0.718836 0.774892 0.663582
H63_2 H 0.642924 0.784078 0.642612
C86_2 C 0.7007(10) 0.8891(12) 0.4766(8)
H64_2 H 0.725870 0.859450 0.452980
H65_2 H 0.651636 0.882713 0.470518
H66_2 H 0.712633 0.946550 0.475294
B1_2 B 0.8440(11) 0.6289(15) 0.4943(10)
B2_2 B 0.8447(14) 0.876(2) 0.5090(15)
Cd1 Cd 0.65745(6) 0.16484(7) 0.45535(4)
Cd2 Cd 0.65953(6) 0.33482(7) 0.54425(4)
F1_4 F 0.1563(7) 0.4536(9) 0.5000(7)
F2_3 F 0.1533(6) 0.3388(13) 0.4612(5)
F3_3 F 0.1553(7) 0.0414(9) 0.4924(7)
F4_3 F 0.1559(7) 0.1566(14) 0.5327(6)
O2_3 O 0.6581(6) 0.3055(7) 0.4600(3)
O3_3 O 0.6625(6) 0.4290(7) 0.4849(4)
O4_2 O 0.6666(6) 0.5504(7) 0.0947(4)
O5_2 O 0.6602(8) 0.6677(7) 0.1237(4)
O7_3 O 0.6619(7) 0.0491(7) 0.4050(4)
O8_3 O 0.6546(7) 0.1676(8) 0.3746(4)
N1_3 N 0.5443(6) 0.3301(8) 0.5434(4)
N2_3 N 0.2214(8) 0.3444(11) 0.5304(7)
N3_3 N 0.0972(8) 0.3454(13) 0.5323(7)
N5_3 N 0.5423(5) 0.1698(8) 0.4543(4)
N6_3 N 0.2191(7) 0.1532(10) 0.4635(7)
N7_3 N 0.0939(7) 0.1507(12) 0.4616(7)
C1_3 C 0.6627(8) 0.3786(10) 0.4543(5)
C2_3 C 0.6708(8) 0.4085(9) 0.4036(5)
C3_3 C 0.6601(9) 0.3549(10) 0.3662(5)
H1_3 H 0.651880 0.298986 0.371166
C4_3 C 0.6622(11) 0.3865(12) 0.3230(7)
H2_3 H 0.651333 0.352889 0.296964
C5_3 C 0.6800(9) 0.4683(11) 0.3151(5)
C6_3 C 0.6912(10) 0.5143(11) 0.3537(6)
H3_3 H 0.700955 0.570194 0.350189
C7_3 C 0.6888(11) 0.4840(12) 0.3946(6)
H4_3 H 0.700659 0.517800 0.420371
C8_3 C 0.6814(8) 0.4981(11) 0.2658(5)
C9_3 C 0.6710(11) 0.5786(11) 0.2576(6)
H5_3 H 0.667660 0.613617 0.283732
C10_3 C 0.6654(11) 0.6110(11) 0.2148(6)
H6_3 H 0.655417 0.666822 0.210739
C11_3 C 0.6743(10) 0.5614(11) 0.1771(5)
C12_3 C 0.6659(8) 0.5951(11) 0.1290(5)
C13_3 C 0.6831(10) 0.4816(11) 0.1830(5)
H7_3 H 0.687711 0.447069 0.156734
C14_3 C 0.6852(11) 0.4499(12) 0.2283(6)
H8_3 H 0.689512 0.393169 0.232522
C15_3 C 0.5068(9) 0.3911(12) 0.5299(7)
H9_3 H 0.529286 0.437369 0.518071
C16_3 C 0.4362(8) 0.3931(11) 0.5315(7)
H10_3 H 0.410587 0.438947 0.521605
C17_3 C 0.4048(9) 0.3233(10) 0.5487(7)
C18_3 C 0.4404(8) 0.2616(10) 0.5617(7)
H11_3 H 0.418918 0.214155 0.572846
C19_3 C 0.5109(8) 0.2658(10) 0.5591(6)
H12_3 H 0.536875 0.220223 0.569037
C20_3 C 0.3291(9) 0.3232(10) 0.5485(7)
C21_3 C 0.2841(11) 0.3567(14) 0.5158(10)
C22_3 C 0.2226(9) 0.3116(13) 0.5750(8)
C23_3 C 0.1612(9) 0.2957(14) 0.5976(8)
C24_3 C 0.0981(9) 0.3125(14) 0.5755(9)
C25_3 C 0.0301(8) 0.3479(12) 0.5196(5)
C27_3 C 0.0313(10) 0.3008(15) 0.5897(9)
C28_3 C 0.0107(11) 0.269(2) 0.6372(11)
H13_3 H 0.031735 0.216028 0.642760
H15_3 H 0.026168 0.306742 0.661667
C30_3 C 0.0120(12) 0.3887(17) 0.4729(8)
H16_3 H 0.032531 0.442644 0.472215
H18_3 H 0.029446 0.356136 0.447256
C31_3 C 0.1619(8) 0.2568(13) 0.6424(6)
C32_3 C 0.1616(9) 0.1731(13) 0.6462(6)
H19_3 H 0.158548 0.140590 0.618873
C33_3 C 0.1658(11) 0.1368(11) 0.6900(8)
H20_3 H 0.165632 0.079606 0.692597
C34_3 C 0.1703(12) 0.1844(17) 0.7300(6)
H21_3 H 0.173158 0.159597 0.759946
C35_3 C 0.1705(11) 0.2681(16) 0.7262(6)
H22_3 H 0.173601 0.300571 0.753572
C36_3 C 0.1663(10) 0.3043(11) 0.6824(8)
H23_3 H 0.166517 0.361557 0.679849
C37_3 C 0.2913(10) 0.2964(12) 0.5883(8)
C38_3 C 0.3176(12) 0.2585(15) 0.6318(8)
H24_3 H 0.306317 0.200827 0.631546
H25_3 H 0.296758 0.284431 0.658714
H26_3 H 0.367168 0.265137 0.634024
C39_3 C 0.2979(10) 0.3893(13) 0.4697(8)
H27_3 H 0.261302 0.373362 0.447647
H28_3 H 0.341391 0.368067 0.458992
H29_3 H 0.300200 0.448389 0.471394
C49_3 C 0.6982(12) 0.0103(12) 0.1496(6)
H36_3 H 0.714267 0.063672 0.155175
H37_3 H 0.704902 0.017744 0.079170
C52_3 C 0.6615(11) 0.0938(12) 0.3709(6)
C53_3 C 0.6712(11) 0.0586(11) 0.3244(6)
C56_3 C 0.6674(14) 0.1108(13) 0.2866(7)
H40_3 H 0.660450 0.167119 0.290849
C57_3 C 0.6740(15) 0.0777(15) 0.2421(8)
H41_3 H 0.671945 0.112737 0.215792
C58_3 C 0.5046(9) 0.1080(12) 0.4669(8)
H42_3 H 0.527883 0.061202 0.477940
C59_3 C 0.4350(8) 0.1051(11) 0.4654(7)
H43_3 H 0.410768 0.059719 0.476777
C60_3 C 0.4010(8) 0.1731(11) 0.4461(7)
C61_3 C 0.4384(9) 0.2384(13) 0.4335(7)
H44_3 H 0.416521 0.286465 0.422841
C62_3 C 0.5072(8) 0.2339(12) 0.4362(6)
H45_3 H 0.532635 0.278196 0.424717
C63_3 C 0.3233(8) 0.1753(11) 0.4476(7)
C64_3 C 0.2818(11) 0.1425(13) 0.4774(10)
C65_3 C 0.2186(9) 0.1882(13) 0.4187(8)
C66_3 C 0.1564(9) 0.2025(13) 0.3968(9)
C67_3 C 0.0949(9) 0.1846(14) 0.4164(9)
C68_3 C 0.0295(9) 0.1477(12) 0.4781(6)
C70_3 C 0.0270(11) 0.1986(16) 0.4051(10)
C71_3 C 0.0011(11) 0.2317(18) 0.3564(10)
H46_3 H 0.022454 0.284092 0.350348
H48_3 H 0.013106 0.193458 0.331769
C77_3 C 0.0117(12) 0.1108(16) 0.5212(9)
H53_3 H 0.026069 0.054081 0.521151
H55_3 H 0.034598 0.139212 0.547170
C78_3 C 0.1558(9) 0.2366(14) 0.3498(7)
C79_3 C 0.1570(10) 0.3202(14) 0.3448(8)
H56_3 H 0.156906 0.353829 0.371668
C80_3 C 0.1582(13) 0.3544(13) 0.3005(10)
H57_3 H 0.158953 0.411546 0.297079
C81_3 C 0.1583(13) 0.3052(19) 0.2611(7)
H58_3 H 0.159102 0.328622 0.230856
C82_3 C 0.1571(13) 0.2216(18) 0.2661(7)
H59_3 H 0.157206 0.187982 0.239223
C83_3 C 0.1559(11) 0.1874(12) 0.3104(10)
H60_3 H 0.155160 0.130263 0.313813
C84_3 C 0.2843(9) 0.2015(13) 0.4065(8)
C85_3 C 0.3117(12) 0.2380(14) 0.3630(8)
H61_3 H 0.314741 0.296741 0.366665
H62_3 H 0.281164 0.225108 0.336418
H63_3 H 0.357076 0.215922 0.357388
C86_3 C 0.2993(10) 0.1109(12) 0.5234(8)
H64_3 H 0.274130 0.140550 0.547020
H65_3 H 0.348364 0.117287 0.529482
H66_3 H 0.287367 0.053450 0.524706
B1_3 B 0.1560(11) 0.3711(15) 0.5057(10)
B2_3 B 0.1553(14) 0.124(2) 0.4910(15)
Cd7_2 Cd 0.65953(6) 0.66518(7) 0.04425(4)
O9_2 O 0.6596(5) 0.1948(7) 0.5393(4)
O10_2 O 0.6666(6) 0.4496(7) 0.5947(4)
O11_2 O 0.6602(8) 0.3323(7) 0.6237(4)
O12_2 O 0.6638(6) 0.0707(7) 0.5156(4)
N9 N 0.7763(7) 0.3244(8) 0.5462(5)
N10 N 0.7725(8) 0.1720(10) 0.4527(6)
O1_2 O 0.6596(5) 0.8052(7) 0.0393(4)
O6_2 O 0.6638(6) 0.9293(7) 0.0156(4)
C44_3 C 0.6663(8) 0.8774(10) 0.0474(5)
C45_3 C 0.6728(8) 0.9066(10) 0.0972(5)
C46_3 C 0.6612(10) 0.8549(11) 0.1326(5)
H34_3 H 0.650933 0.799654 0.126658
C47_3 C 0.6649(11) 0.8852(11) 0.1786(6)
H35_3 H 0.656391 0.850283 0.204124
C48_3 C 0.6808(10) 0.9647(10) 0.1868(5)
C50_3 C 0.6937(11) 0.9836(14) 0.1045(6)
C51_3 C 0.6834(11) 0.9961(12) 0.2349(5)
C54_3 C 0.6783(11) 0.9802(12) 0.3177(5)
H38_3 H 0.680919 0.944844 0.343789
C55_3 C 0.6819(12) 0.9487(13) 0.2726(7)
H39_3 H 0.683329 0.891696 0.268667
Cd4_2 Cd 0.65745(6) 0.83516(7) 0.95535(4)
C26_3 C 0.9873(10) 0.3269(15) 0.5590(8)
H14_3 H 0.961054 0.263795 0.637861
C29_3 C 0.9166(10) 0.3251(15) 0.5514(8)
H17_3 H 0.962365 0.393481 0.469432
C40_3 C 0.8081(11) 0.2624(13) 0.5593(8)
H30_3 H 0.782405 0.215292 0.565951
C41_3 C 0.8779(10) 0.2584(14) 0.5647(9)
H31_3 H 0.899268 0.211427 0.577244
C42_3 C 0.8082(10) 0.3883(13) 0.5368(9)
H32_3 H 0.783390 0.435378 0.527986
C43_3 C 0.8815(12) 0.3912(15) 0.5390(10)
H33_3 H 0.904756 0.439857 0.531832
C69_3 C 0.9873(9) 0.1691(16) 0.4380(9)
H47_3 H 0.951465 0.238298 0.356549
C72_3 C 0.9137(10) 0.1714(16) 0.4422(9)
C73_3 C 0.8764(12) 0.1049(17) 0.4538(10)
H49_3 H 0.898982 0.054739 0.458572
C74_3 C 0.8074(11) 0.1087(14) 0.4586(11)
H50_3 H 0.784268 0.060624 0.466874
C75_3 C 0.8065(12) 0.2373(16) 0.4362(9)
H51_3 H 0.780405 0.284247 0.429182
C76_3 C 0.8737(10) 0.2414(15) 0.4290(10)
H52_3 H 0.893995 0.287958 0.415798
H54_3 H 0.962283 0.113766 0.524732
C44_4 C 0.6663(8) 0.1226(10) 0.5474(5)
C45_4 C 0.6728(8) 0.0934(10) 0.5972(5)
C46_4 C 0.6612(10) 0.1451(11) 0.6326(5)
H34_4 H 0.650933 0.200346 0.626658
C47_4 C 0.6649(11) 0.1148(11) 0.6786(6)
H35_4 H 0.656391 0.149717 0.704124
C48_4 C 0.6808(10) 0.0353(10) 0.6868(5)
C50_4 C 0.6937(11) 0.0164(14) 0.6045(6)
C51_4 C 0.6834(11) 0.0039(12) 0.7349(5)
C54_4 C 0.6783(11) 0.0198(12) 0.8177(5)
H38_4 H 0.680919 0.055156 0.843789
C55_4 C 0.6819(12) 0.0513(13) 0.7726(7)
H39_4 H 0.683329 0.108304 0.768667
F1_5 F 0.1563(7) 0.5464(9) 0.0000(7)
F4_4 F 0.1559(7) 0.8434(14) 0.0327(6)
N1_4 N 0.5443(6) 0.6699(8) 0.0434(4)
N2_4 N 0.2214(8) 0.6556(11) 0.0304(7)
N3_4 N 0.0972(8) 0.6546(13) 0.0323(7)
C15_4 C 0.5068(9) 0.6089(12) 0.0299(7)
H9_4 H 0.529286 0.562631 0.018071
C16_4 C 0.4362(8) 0.6069(11) 0.0315(7)
H10_4 H 0.410587 0.561053 0.021605
C17_4 C 0.4048(9) 0.6767(10) 0.0487(7)
C18_4 C 0.4404(8) 0.7384(10) 0.0617(7)
H11_4 H 0.418918 0.785845 0.072846
C19_4 C 0.5109(8) 0.7342(10) 0.0591(6)
H12_4 H 0.536875 0.779777 0.069037
C20_4 C 0.3291(9) 0.6768(10) 0.0485(7)
C21_4 C 0.2841(11) 0.6433(14) 0.0158(10)
C22_4 C 0.2226(9) 0.6884(13) 0.0750(8)
C23_4 C 0.1612(9) 0.7043(14) 0.0976(8)
C24_4 C 0.0981(9) 0.6875(14) 0.0755(9)
C25_4 C 0.0301(8) 0.6521(12) 0.0196(5)
C27_4 C 0.0313(10) 0.6992(15) 0.0897(9)
C28_4 C 0.0107(11) 0.731(2) 0.1372(11)
H13_4 H 0.031735 0.783972 0.142760
H15_4 H 0.026168 0.693258 0.161667
C31_4 C 0.1619(8) 0.7432(13) 0.1424(6)
C32_4 C 0.1616(9) 0.8269(13) 0.1462(6)
H19_4 H 0.158548 0.859410 0.118873
C33_4 C 0.1658(11) 0.8632(11) 0.1900(8)
H20_4 H 0.165632 0.920394 0.192597
C34_4 C 0.1703(12) 0.8156(17) 0.2300(6)
H21_4 H 0.173158 0.840403 0.259946
C35_4 C 0.1705(11) 0.7319(16) 0.2262(6)
H22_4 H 0.173601 0.699429 0.253572
C36_4 C 0.1663(10) 0.6957(11) 0.1824(8)
H23_4 H 0.166517 0.638443 0.179849
C37_4 C 0.2913(10) 0.7036(12) 0.0883(8)
C38_4 C 0.3176(12) 0.7415(15) 0.1318(8)
H24_4 H 0.306317 0.799173 0.131546
H25_4 H 0.296758 0.715569 0.158714
H26_4 H 0.367168 0.734863 0.134024
C77_4 C 0.0117(12) 0.8892(16) 0.0212(9)
H53_4 H 0.026069 0.945919 0.021151
H55_4 H 0.034598 0.860788 0.047170
C86_4 C 0.2993(10) 0.8891(12) 0.0234(8)
H64_4 H 0.274130 0.859450 0.047020
H65_4 H 0.348364 0.882713 0.029482
H66_4 H 0.287367 0.946550 0.024706
B1_4 B 0.1560(11) 0.6289(15) 0.0057(10)
N9_2 N 0.7763(7) 0.6756(8) 0.0462(5)
F1_6 F 0.1563(7) 0.5464(9) 1.0000(7)
F2_4 F 0.1533(6) 0.6612(13) 0.9612(5)
F3_4 F 0.1553(7) 0.9586(9) 0.9924(7)
O2_4 O 0.6581(6) 0.6945(7) 0.9600(3)
O3_4 O 0.6625(6) 0.5710(7) 0.9849(4)
O7_4 O 0.6619(7) 0.9509(7) 0.9050(4)
O8_4 O 0.6546(7) 0.8324(8) 0.8746(4)
N5_4 N 0.5423(5) 0.8302(8) 0.9543(4)
N6_4 N 0.2191(7) 0.8468(10) 0.9635(7)
N7_4 N 0.0939(7) 0.8493(12) 0.9616(7)
C1_4 C 0.6627(8) 0.6214(10) 0.9543(5)
C2_4 C 0.6708(8) 0.5915(9) 0.9036(5)
C3_4 C 0.6601(9) 0.6451(10) 0.8662(5)
H1_4 H 0.651880 0.701014 0.871166
C4_4 C 0.6622(11) 0.6135(12) 0.8230(7)
H2_4 H 0.651333 0.647111 0.796964
C5_4 C 0.6800(9) 0.5317(11) 0.8151(5)
C6_4 C 0.6912(10) 0.4857(11) 0.8537(6)
H3_4 H 0.700955 0.429806 0.850189
C7_4 C 0.6888(11) 0.5160(12) 0.8946(6)
H4_4 H 0.700659 0.482200 0.920371
C8_4 C 0.6814(8) 0.5019(11) 0.7658(5)
C9_4 C 0.6710(11) 0.4214(11) 0.7576(6)
H5_4 H 0.667660 0.386383 0.783732
C10_4 C 0.6654(11) 0.3890(11) 0.7148(6)
H6_4 H 0.655417 0.333178 0.710739
C11_4 C 0.6743(10) 0.4386(11) 0.6771(5)
C12_4 C 0.6659(8) 0.4049(11) 0.6290(5)
C13_4 C 0.6831(10) 0.5184(11) 0.6830(5)
H7_4 H 0.687711 0.552931 0.656734
C14_4 C 0.6852(11) 0.5501(12) 0.7283(6)
H8_4 H 0.689512 0.606831 0.732522
C30_4 C 0.0120(12) 0.6113(17) 0.9729(8)
H16_4 H 0.032531 0.557356 0.972215
H18_4 H 0.029446 0.643864 0.947256
C39_4 C 0.2979(10) 0.6107(13) 0.9697(8)
H27_4 H 0.261302 0.626638 0.947647
H28_4 H 0.341391 0.631933 0.958992
H29_4 H 0.300200 0.551611 0.971394
C49_4 C 0.6982(12) 0.9897(12) 0.6496(6)
H36_4 H 0.714267 0.936328 0.655175
H37_4 H 0.704902 0.982256 0.579170
C52_4 C 0.6615(11) 0.9062(12) 0.8709(6)
C53_4 C 0.6712(11) 0.9414(11) 0.8244(6)
C56_4 C 0.6674(14) 0.8892(13) 0.7866(7)
H40_4 H 0.660450 0.832881 0.790849
C57_4 C 0.6740(15) 0.9223(15) 0.7421(8)
H41_4 H 0.671945 0.887263 0.715792
C58_4 C 0.5046(9) 0.8920(12) 0.9669(8)
H42_4 H 0.527883 0.938798 0.977940
C59_4 C 0.4350(8) 0.8949(11) 0.9654(7)
H43_4 H 0.410768 0.940281 0.976777
C60_4 C 0.4010(8) 0.8269(11) 0.9461(7)
C61_4 C 0.4384(9) 0.7616(13) 0.9335(7)
H44_4 H 0.416521 0.713535 0.922841
C62_4 C 0.5072(8) 0.7661(12) 0.9362(6)
H45_4 H 0.532635 0.721804 0.924717
C63_4 C 0.3233(8) 0.8247(11) 0.9476(7)
C64_4 C 0.2818(11) 0.8575(13) 0.9774(10)
C65_4 C 0.2186(9) 0.8118(13) 0.9187(8)
C66_4 C 0.1564(9) 0.7975(13) 0.8968(9)
C67_4 C 0.0949(9) 0.8154(14) 0.9164(9)
C68_4 C 0.0295(9) 0.8523(12) 0.9781(6)
C70_4 C 0.0270(11) 0.8014(16) 0.9051(10)
C71_4 C 0.0011(11) 0.7683(18) 0.8564(10)
H46_4 H 0.022454 0.715908 0.850348
H48_4 H 0.013106 0.806542 0.831769
C78_4 C 0.1558(9) 0.7634(14) 0.8498(7)
C79_4 C 0.1570(10) 0.6798(14) 0.8448(8)
H56_4 H 0.156906 0.646171 0.871668
C80_4 C 0.1582(13) 0.6456(13) 0.8005(10)
H57_4 H 0.158953 0.588454 0.797079
C81_4 C 0.1583(13) 0.6948(19) 0.7611(7)
H58_4 H 0.159102 0.671378 0.730856
C82_4 C 0.1571(13) 0.7784(18) 0.7661(7)
H59_4 H 0.157206 0.812018 0.739223
C83_4 C 0.1559(11) 0.8126(12) 0.8104(10)
H60_4 H 0.155160 0.869737 0.813813
C84_4 C 0.2843(9) 0.7985(13) 0.9065(8)
C85_4 C 0.3117(12) 0.7620(14) 0.8630(8)
H61_4 H 0.314741 0.703259 0.866665
H62_4 H 0.281164 0.774892 0.836418
H63_4 H 0.357076 0.784078 0.857388
B2_4 B 0.1553(14) 0.876(2) 0.9910(15)
N10_2 N 0.7725(8) 0.8280(10) 0.9527(6)
C26_4 C 0.9873(10) 0.6731(15) 0.0590(8)
H14_4 H 0.961054 0.736205 0.137861
C29_4 C 0.9166(10) 0.6749(15) 0.0514(8)
C40_4 C 0.8081(11) 0.7376(13) 0.0593(8)
H30_4 H 0.782405 0.784708 0.065951
C41_4 C 0.8779(10) 0.7416(14) 0.0647(9)
H31_4 H 0.899268 0.788573 0.077244
C42_4 C 0.8082(10) 0.6117(13) 0.0368(9)
H32_4 H 0.783390 0.564622 0.027986
C43_4 C 0.8815(12) 0.6088(15) 0.0390(10)
H33_4 H 0.904756 0.560143 0.031832
H54_4 H 0.962283 0.886234 0.024732
H17_4 H 0.962365 0.606519 0.969432
C69_4 C 0.9873(9) 0.8309(16) 0.9380(9)
H47_4 H 0.951465 0.761702 0.856549
C72_4 C 0.9137(10) 0.8286(16) 0.9422(9)
C73_4 C 0.8764(12) 0.8951(17) 0.9538(10)
H49_4 H 0.898982 0.945261 0.958572
C74_4 C 0.8074(11) 0.8913(14) 0.9586(11)
H50_4 H 0.784268 0.939376 0.966874
C75_4 C 0.8065(12) 0.7627(16) 0.9362(9)
H51_4 H 0.780405 0.715753 0.929182
C76_4 C 0.8737(10) 0.7586(15) 0.9290(10)
H52_4 H 0.893995 0.712042 0.915798
loop_
_geom_bond_atom_site_label_1
_geom_bond_atom_site_label_2
_geom_bond_site_symmetry_1
_geom_bond_site_symmetry_2
N8 C74 1_555 1_555
C72 C69 1_555 1_555
C73 C72 1_555 1_555
H49 C73 1_555 1_555
C74 C73 1_555 1_555
H50 C74 1_555 1_555
C75 N8 1_555 1_555
H51 C75 1_555 1_555
C76 C72 1_555 1_555
H52 C76 1_555 1_555
Cd3 N8 1_555 1_555
C75 C76 1_555 1_555
N4 C40 1_555 1_555
C29 C26 1_555 1_555
C40 H30 1_555 1_555
C41 C29 1_555 1_555
H31 C41 1_555 1_555
C42 N4 1_555 1_555
H32 C42 1_555 1_555
C43 C29 1_555 1_555
H33 C43 1_555 1_555
Cd5 N4 1_555 1_555
C40 C41 1_555 1_555
C42 C43 1_555 1_555
Cd3 O2 1_555 1_555
F3 B2 1_555 1_555
O2 C1 1_555 1_555
O4 C12 1_555 1_555
O5 C12 1_555 1_555
O7 Cd3 1_555 1_555
O8 Cd3 1_555 1_555
N5 Cd3 1_555 1_555
N6 C64 1_555 1_555
N7 C67 1_555 1_555
C1 O3 1_555 1_555
C2 C1 1_555 1_555
C3 C2 1_555 1_555
H1 C3 1_555 1_555
C4 C3 1_555 1_555
H2 C4 1_555 1_555
C5 C4 1_555 1_555
C6 C5 1_555 1_555
H3 C6 1_555 1_555
C7 C2 1_555 1_555
H4 C7 1_555 1_555
C8 C5 1_555 1_555
C9 C8 1_555 1_555
H5 C9 1_555 1_555
C10 C9 1_555 1_555
H6 C10 1_555 1_555
C11 C10 1_555 1_555
C12 C11 1_555 1_555
C13 C11 1_555 1_555
H7 C13 1_555 1_555
C14 C8 1_555 1_555
H8 C14 1_555 1_555
H16 C30 1_555 1_555
H18 C30 1_555 1_555
H27 C39 1_555 1_555
H28 C39 1_555 1_555
H29 C39 1_555 1_555
H36 C49 1_555 1_555
C52 O7 1_555 1_555
C53 C52 1_555 1_555
C56 C53 1_555 1_555
H40 C56 1_555 1_555
H41 C57 1_555 1_555
C58 N5 1_555 1_555
H42 C58 1_555 1_555
C59 C58 1_555 1_555
H43 C59 1_555 1_555
C60 C59 1_555 1_555
C61 C60 1_555 1_555
H44 C61 1_555 1_555
C62 N5 1_555 1_555
H45 C62 1_555 1_555
C63 C60 1_555 1_555
C64 C63 1_555 1_555
C65 N6 1_555 1_555
C66 C65 1_555 1_555
C67 C66 1_555 1_555
C68 N7 1_555 1_555
C70 C67 1_555 1_555
C71 C70 1_555 1_555
H46 C71 1_555 1_555
H48 C71 1_555 1_555
C78 C66 1_555 1_555
C79 C78 1_555 1_555
H56 C79 1_555 1_555
C80 C79 1_555 1_555
H57 C80 1_555 1_555
C81 C80 1_555 1_555
H58 C81 1_555 1_555
C82 C81 1_555 1_555
H59 C82 1_555 1_555
C83 C78 1_555 1_555
H60 C83 1_555 1_555
C84 C63 1_555 1_555
C85 C84 1_555 1_555
H61 C85 1_555 1_555
H62 C85 1_555 1_555
H63 C85 1_555 1_555
B2 N6 1_555 1_555
Cd7 O4 1_555 1_555
O5 Cd7 1_555 1_555
O8 C52 1_555 1_555
N7 B2 1_555 1_555
C6 C7 1_555 1_555
C13 C14 1_555 1_555
C56 C57 1_555 1_555
C61 C62 1_555 1_555
C65 C84 1_555 1_555
C82 C83 1_555 1_555
F1_2 B1 1_555 1_555
N1 Cd5 1_555 1_555
N2 C21 1_555 1_555
N3 C24 1_555 1_555
C15 N1 1_555 1_555
H9 C15 1_555 1_555
C16 C15 1_555 1_555
H10 C16 1_555 1_555
C17 C16 1_555 1_555
C18 C17 1_555 1_555
H11 C18 1_555 1_555
C19 N1 1_555 1_555
H12 C19 1_555 1_555
C20 C17 1_555 1_555
C21 C20 1_555 1_555
C22 N2 1_555 1_555
C23 C22 1_555 1_555
C24 C23 1_555 1_555
C25 N3 1_555 1_555
C27 C24 1_555 1_555
C28 C27 1_555 1_555
H13 C28 1_555 1_555
H15 C28 1_555 1_555
C31 C23 1_555 1_555
C32 C31 1_555 1_555
H19 C32 1_555 1_555
C33 C32 1_555 1_555
H20 C33 1_555 1_555
C34 C33 1_555 1_555
H21 C34 1_555 1_555
C35 C34 1_555 1_555
H22 C35 1_555 1_555
C36 C31 1_555 1_555
H23 C36 1_555 1_555
C37 C20 1_555 1_555
C38 C37 1_555 1_555
H24 C38 1_555 1_555
H25 C38 1_555 1_555
H26 C38 1_555 1_555
H53 C77 1_555 1_555
H55 C77 1_555 1_555
H64 C86 1_555 1_555
H65 C86 1_555 1_555
H66 C86 1_555 1_555
B1 N2 1_555 1_555
O10 Cd5 1_555 1_555
O11 Cd5 1_555 1_555
Cd5 O9 1_555 1_555
N3 B1 1_555 1_555
C18 C19 1_555 1_555
C22 C37 1_555 1_555
C35 C36 1_555 1_555
O1 C44 1_555 1_555
O6 C44 1_555 1_555
C44 C45 1_555 1_555
C45 C46 1_555 1_555
C46 H34 1_555 1_555
C47 C46 1_555 1_555
H35 C47 1_555 1_555
C48 C47 1_555 1_555
C50 C45 1_555 1_555
C51 C48 1_555 1_555
H38 C54 1_555 1_555
C55 C51 1_555 1_555
H39 C55 1_555 1_555
Cd4 O1 1_555 1_555
Cd7 O1 1_555 1_555
O6 Cd4 1_555 1_555
C54 C55 1_555 1_555
N4_2 C40_2 1_555 1_555
N8_2 C74_2 1_555 1_555
C29_2 C26_2 1_555 1_555
C40_2 H30_2 1_555 1_555
C41_2 C29_2 1_555 1_555
H31_2 C41_2 1_555 1_555
C42_2 N4_2 1_555 1_555
H32_2 C42_2 1_555 1_555
C43_2 C29_2 1_555 1_555
H33_2 C43_2 1_555 1_555
C72_2 C69_2 1_555 1_555
C73_2 C72_2 1_555 1_555
H49_2 C73_2 1_555 1_555
C74_2 C73_2 1_555 1_555
H50_2 C74_2 1_555 1_555
C75_2 N8_2 1_555 1_555
H51_2 C75_2 1_555 1_555
C76_2 C72_2 1_555 1_555
H52_2 C76_2 1_555 1_555
Cd4 N8_2 1_555 1_555
Cd7 N4_2 1_555 1_555
C40_2 C41_2 1_555 1_555
C42_2 C43_2 1_555 1_555
C75_2 C76_2 1_555 1_555
O9 C44_2 1_555 1_555
O12 C44_2 1_555 1_555
C44_2 C45_2 1_555 1_555
C45_2 C46_2 1_555 1_555
C46_2 H34_2 1_555 1_555
C47_2 C46_2 1_555 1_555
H35_2 C47_2 1_555 1_555
C48_2 C47_2 1_555 1_555
C50_2 C45_2 1_555 1_555
C51_2 C48_2 1_555 1_555
H38_2 C54_2 1_555 1_555
C55_2 C51_2 1_555 1_555
H39_2 C55_2 1_555 1_555
C54_2 C55_2 1_555 1_555
Cd4 O2_2 1_555 1_555
Cd7 O2_2 1_555 1_555
F1_3 B1_2 1_555 1_555
F2_2 B1_2 1_555 1_555
F3_2 B2_2 1_555 1_555
F4_2 B2_2 1_555 1_555
O2_2 C1_2 1_555 1_555
O3_2 Cd7 1_555 1_555
O10 C12_2 1_555 1_555
O11 C12_2 1_555 1_555
O7_2 Cd4 1_555 1_555
O8_2 Cd4 1_555 1_555
N1_2 Cd7 1_555 1_555
N2_2 C21_2 1_555 1_555
N3_2 C24_2 1_555 1_555
N5_2 Cd4 1_555 1_555
N6_2 C64_2 1_555 1_555
N7_2 C67_2 1_555 1_555
C1_2 O3_2 1_555 1_555
C2_2 C1_2 1_555 1_555
C3_2 C2_2 1_555 1_555
H1_2 C3_2 1_555 1_555
C4_2 C3_2 1_555 1_555
H2_2 C4_2 1_555 1_555
C5_2 C4_2 1_555 1_555
C6_2 C5_2 1_555 1_555
H3_2 C6_2 1_555 1_555
C7_2 C2_2 1_555 1_555
H4_2 C7_2 1_555 1_555
C8_2 C5_2 1_555 1_555
C9_2 C8_2 1_555 1_555
H5_2 C9_2 1_555 1_555
C10_2 C9_2 1_555 1_555
H6_2 C10_2 1_555 1_555
C11_2 C10_2 1_555 1_555
C12_2 C11_2 1_555 1_555
C13_2 C11_2 1_555 1_555
H7_2 C13_2 1_555 1_555
C14_2 C8_2 1_555 1_555
H8_2 C14_2 1_555 1_555
C15_2 N1_2 1_555 1_555
H9_2 C15_2 1_555 1_555
C16_2 C15_2 1_555 1_555
H10_2 C16_2 1_555 1_555
C17_2 C16_2 1_555 1_555
C18_2 C17_2 1_555 1_555
H11_2 C18_2 1_555 1_555
C19_2 N1_2 1_555 1_555
H12_2 C19_2 1_555 1_555
C20_2 C17_2 1_555 1_555
C21_2 C20_2 1_555 1_555
C22_2 N2_2 1_555 1_555
C23_2 C22_2 1_555 1_555
C24_2 C23_2 1_555 1_555
C25_2 N3_2 1_555 1_555
C27_2 C24_2 1_555 1_555
C28_2 C27_2 1_555 1_555
H13_2 C28_2 1_555 1_555
H15_2 C28_2 1_555 1_555
C30_2 C25_2 1_555 1_555
H16_2 C30_2 1_555 1_555
H18_2 C30_2 1_555 1_555
C31_2 C23_2 1_555 1_555
C32_2 C31_2 1_555 1_555
H19_2 C32_2 1_555 1_555
C33_2 C32_2 1_555 1_555
H20_2 C33_2 1_555 1_555
C34_2 C33_2 1_555 1_555
H21_2 C34_2 1_555 1_555
C35_2 C34_2 1_555 1_555
H22_2 C35_2 1_555 1_555
C36_2 C31_2 1_555 1_555
H23_2 C36_2 1_555 1_555
C37_2 C20_2 1_555 1_555
C38_2 C37_2 1_555 1_555
H24_2 C38_2 1_555 1_555
H25_2 C38_2 1_555 1_555
H26_2 C38_2 1_555 1_555
C39_2 C21_2 1_555 1_555
H27_2 C39_2 1_555 1_555
H28_2 C39_2 1_555 1_555
H29_2 C39_2 1_555 1_555
H36_2 C49_2 1_555 1_555
C52_2 O7_2 1_555 1_555
C53_2 C52_2 1_555 1_555
C56_2 C53_2 1_555 1_555
H40_2 C56_2 1_555 1_555
H41_2 C57_2 1_555 1_555
C58_2 N5_2 1_555 1_555
H42_2 C58_2 1_555 1_555
C59_2 C58_2 1_555 1_555
H43_2 C59_2 1_555 1_555
C60_2 C59_2 1_555 1_555
C61_2 C60_2 1_555 1_555
H44_2 C61_2 1_555 1_555
C62_2 N5_2 1_555 1_555
H45_2 C62_2 1_555 1_555
C63_2 C60_2 1_555 1_555
C64_2 C63_2 1_555 1_555
C65_2 N6_2 1_555 1_555
C66_2 C65_2 1_555 1_555
C67_2 C66_2 1_555 1_555
C68_2 N7_2 1_555 1_555
C70_2 C67_2 1_555 1_555
C71_2 C70_2 1_555 1_555
H46_2 C71_2 1_555 1_555
H48_2 C71_2 1_555 1_555
C77_2 C68_2 1_555 1_555
H53_2 C77_2 1_555 1_555
H55_2 C77_2 1_555 1_555
C78_2 C66_2 1_555 1_555
C79_2 C78_2 1_555 1_555
H56_2 C79_2 1_555 1_555
C80_2 C79_2 1_555 1_555
H57_2 C80_2 1_555 1_555
C81_2 C80_2 1_555 1_555
H58_2 C81_2 1_555 1_555
C82_2 C81_2 1_555 1_555
H59_2 C82_2 1_555 1_555
C83_2 C78_2 1_555 1_555
H60_2 C83_2 1_555 1_555
C84_2 C63_2 1_555 1_555
C85_2 C84_2 1_555 1_555
H61_2 C85_2 1_555 1_555
H62_2 C85_2 1_555 1_555
H63_2 C85_2 1_555 1_555
C86_2 C64_2 1_555 1_555
H64_2 C86_2 1_555 1_555
H65_2 C86_2 1_555 1_555
H66_2 C86_2 1_555 1_555
B1_2 N2_2 1_555 1_555
B2_2 N6_2 1_555 1_555
O8_2 C52_2 1_555 1_555
N3_2 B1_2 1_555 1_555
N7_2 B2_2 1_555 1_555
C6_2 C7_2 1_555 1_555
C13_2 C14_2 1_555 1_555
C18_2 C19_2 1_555 1_555
C22_2 C37_2 1_555 1_555
C35_2 C36_2 1_555 1_555
C56_2 C57_2 1_555 1_555
C61_2 C62_2 1_555 1_555
C65_2 C84_2 1_555 1_555
C82_2 C83_2 1_555 1_555
Cd1 O2_3 1_555 1_555
Cd2 O2_3 1_555 1_555
F1_4 B1_3 1_555 1_555
F2_3 B1_3 1_555 1_555
F3_3 B2_3 1_555 1_555
F4_3 B2_3 1_555 1_555
O2_3 C1_3 1_555 1_555
O3_3 Cd2 1_555 1_555
O4_2 C12_3 1_555 1_555
O5_2 C12_3 1_555 1_555
O7_3 Cd1 1_555 1_555
O8_3 Cd1 1_555 1_555
N1_3 Cd2 1_555 1_555
N2_3 C21_3 1_555 1_555
N3_3 C24_3 1_555 1_555
N5_3 Cd1 1_555 1_555
N6_3 C64_3 1_555 1_555
N7_3 C67_3 1_555 1_555
C1_3 O3_3 1_555 1_555
C2_3 C1_3 1_555 1_555
C3_3 C2_3 1_555 1_555
H1_3 C3_3 1_555 1_555
C4_3 C3_3 1_555 1_555
H2_3 C4_3 1_555 1_555
C5_3 C4_3 1_555 1_555
C6_3 C5_3 1_555 1_555
H3_3 C6_3 1_555 1_555
C7_3 C2_3 1_555 1_555
H4_3 C7_3 1_555 1_555
C8_3 C5_3 1_555 1_555
C9_3 C8_3 1_555 1_555
H5_3 C9_3 1_555 1_555
C10_3 C9_3 1_555 1_555
H6_3 C10_3 1_555 1_555
C11_3 C10_3 1_555 1_555
C12_3 C11_3 1_555 1_555
C13_3 C11_3 1_555 1_555
H7_3 C13_3 1_555 1_555
C14_3 C8_3 1_555 1_555
H8_3 C14_3 1_555 1_555
C15_3 N1_3 1_555 1_555
H9_3 C15_3 1_555 1_555
C16_3 C15_3 1_555 1_555
H10_3 C16_3 1_555 1_555
C17_3 C16_3 1_555 1_555
C18_3 C17_3 1_555 1_555
H11_3 C18_3 1_555 1_555
C19_3 N1_3 1_555 1_555
H12_3 C19_3 1_555 1_555
C20_3 C17_3 1_555 1_555
C21_3 C20_3 1_555 1_555
C22_3 N2_3 1_555 1_555
C23_3 C22_3 1_555 1_555
C24_3 C23_3 1_555 1_555
C25_3 N3_3 1_555 1_555
C27_3 C24_3 1_555 1_555
C28_3 C27_3 1_555 1_555
H13_3 C28_3 1_555 1_555
H15_3 C28_3 1_555 1_555
C30_3 C25_3 1_555 1_555
H16_3 C30_3 1_555 1_555
H18_3 C30_3 1_555 1_555
C31_3 C23_3 1_555 1_555
C32_3 C31_3 1_555 1_555
H19_3 C32_3 1_555 1_555
C33_3 C32_3 1_555 1_555
H20_3 C33_3 1_555 1_555
C34_3 C33_3 1_555 1_555
H21_3 C34_3 1_555 1_555
C35_3 C34_3 1_555 1_555
H22_3 C35_3 1_555 1_555
C36_3 C31_3 1_555 1_555
H23_3 C36_3 1_555 1_555
C37_3 C20_3 1_555 1_555
C38_3 C37_3 1_555 1_555
H24_3 C38_3 1_555 1_555
H25_3 C38_3 1_555 1_555
H26_3 C38_3 1_555 1_555
C39_3 C21_3 1_555 1_555
H27_3 C39_3 1_555 1_555
H28_3 C39_3 1_555 1_555
H29_3 C39_3 1_555 1_555
H36_3 C49_3 1_555 1_555
C52_3 O7_3 1_555 1_555
C53_3 C52_3 1_555 1_555
C56_3 C53_3 1_555 1_555
H40_3 C56_3 1_555 1_555
H41_3 C57_3 1_555 1_555
C58_3 N5_3 1_555 1_555
H42_3 C58_3 1_555 1_555
C59_3 C58_3 1_555 1_555
H43_3 C59_3 1_555 1_555
C60_3 C59_3 1_555 1_555
C61_3 C60_3 1_555 1_555
H44_3 C61_3 1_555 1_555
C62_3 N5_3 1_555 1_555
H45_3 C62_3 1_555 1_555
C63_3 C60_3 1_555 1_555
C64_3 C63_3 1_555 1_555
C65_3 N6_3 1_555 1_555
C66_3 C65_3 1_555 1_555
C67_3 C66_3 1_555 1_555
C68_3 N7_3 1_555 1_555
C70_3 C67_3 1_555 1_555
C71_3 C70_3 1_555 1_555
H46_3 C71_3 1_555 1_555
H48_3 C71_3 1_555 1_555
C77_3 C68_3 1_555 1_555
H53_3 C77_3 1_555 1_555
H55_3 C77_3 1_555 1_555
C78_3 C66_3 1_555 1_555
C79_3 C78_3 1_555 1_555
H56_3 C79_3 1_555 1_555
C80_3 C79_3 1_555 1_555
H57_3 C80_3 1_555 1_555
C81_3 C80_3 1_555 1_555
H58_3 C81_3 1_555 1_555
C82_3 C81_3 1_555 1_555
H59_3 C82_3 1_555 1_555
C83_3 C78_3 1_555 1_555
H60_3 C83_3 1_555 1_555
C84_3 C63_3 1_555 1_555
C85_3 C84_3 1_555 1_555
H61_3 C85_3 1_555 1_555
H62_3 C85_3 1_555 1_555
H63_3 C85_3 1_555 1_555
C86_3 C64_3 1_555 1_555
H64_3 C86_3 1_555 1_555
H65_3 C86_3 1_555 1_555
H66_3 C86_3 1_555 1_555
B1_3 N2_3 1_555 1_555
B2_3 N6_3 1_555 1_555
Cd7_2 O4_2 1_555 1_555
O9_2 Cd1 1_555 1_555
O10_2 Cd2 1_555 1_555
O11_2 Cd2 1_555 1_555
O12_2 Cd1 1_555 1_555
N9 Cd2 1_555 1_555
N10 Cd1 1_555 1_555
Cd2 O9_2 1_555 1_555
O5_2 Cd7_2 1_555 1_555
O8_3 C52_3 1_555 1_555
N3_3 B1_3 1_555 1_555
N7_3 B2_3 1_555 1_555
C6_3 C7_3 1_555 1_555
C13_3 C14_3 1_555 1_555
C18_3 C19_3 1_555 1_555
C22_3 C37_3 1_555 1_555
C35_3 C36_3 1_555 1_555
C56_3 C57_3 1_555 1_555
C61_3 C62_3 1_555 1_555
C65_3 C84_3 1_555 1_555
C82_3 C83_3 1_555 1_555
O1_2 C44_3 1_555 1_555
O6_2 C44_3 1_555 1_555
C44_3 C45_3 1_555 1_555
C45_3 C46_3 1_555 1_555
C46_3 H34_3 1_555 1_555
C47_3 C46_3 1_555 1_555
H35_3 C47_3 1_555 1_555
C48_3 C47_3 1_555 1_555
C50_3 C45_3 1_555 1_555
C51_3 C48_3 1_555 1_555
H38_3 C54_3 1_555 1_555
C55_3 C51_3 1_555 1_555
H39_3 C55_3 1_555 1_555
Cd7_2 O1_2 1_555 1_555
C54_3 C55_3 1_555 1_555
N9 C40_3 1_555 1_555
N10 C74_3 1_555 1_555
C29_3 C26_3 1_555 1_555
C40_3 H30_3 1_555 1_555
C41_3 C29_3 1_555 1_555
H31_3 C41_3 1_555 1_555
C42_3 N9 1_555 1_555
H32_3 C42_3 1_555 1_555
C43_3 C29_3 1_555 1_555
H33_3 C43_3 1_555 1_555
C72_3 C69_3 1_555 1_555
C73_3 C72_3 1_555 1_555
H49_3 C73_3 1_555 1_555
C74_3 C73_3 1_555 1_555
H50_3 C74_3 1_555 1_555
C75_3 N10 1_555 1_555
H51_3 C75_3 1_555 1_555
C76_3 C72_3 1_555 1_555
H52_3 C76_3 1_555 1_555
C40_3 C41_3 1_555 1_555
C42_3 C43_3 1_555 1_555
C75_3 C76_3 1_555 1_555
O9_2 C44_4 1_555 1_555
O12_2 C44_4 1_555 1_555
C44_4 C45_4 1_555 1_555
C45_4 C46_4 1_555 1_555
C46_4 H34_4 1_555 1_555
C47_4 C46_4 1_555 1_555
H35_4 C47_4 1_555 1_555
C48_4 C47_4 1_555 1_555
C50_4 C45_4 1_555 1_555
C51_4 C48_4 1_555 1_555
H38_4 C54_4 1_555 1_555
C55_4 C51_4 1_555 1_555
H39_4 C55_4 1_555 1_555
C54_4 C55_4 1_555 1_555
F1_5 B1_4 1_555 1_555
N1_4 Cd7_2 1_555 1_555
N2_4 C21_4 1_555 1_555
N3_4 C24_4 1_555 1_555
C15_4 N1_4 1_555 1_555
H9_4 C15_4 1_555 1_555
C16_4 C15_4 1_555 1_555
H10_4 C16_4 1_555 1_555
C17_4 C16_4 1_555 1_555
C18_4 C17_4 1_555 1_555
H11_4 C18_4 1_555 1_555
C19_4 N1_4 1_555 1_555
H12_4 C19_4 1_555 1_555
C20_4 C17_4 1_555 1_555
C21_4 C20_4 1_555 1_555
C22_4 N2_4 1_555 1_555
C23_4 C22_4 1_555 1_555
C24_4 C23_4 1_555 1_555
C25_4 N3_4 1_555 1_555
C27_4 C24_4 1_555 1_555
C28_4 C27_4 1_555 1_555
H13_4 C28_4 1_555 1_555
H15_4 C28_4 1_555 1_555
C31_4 C23_4 1_555 1_555
C32_4 C31_4 1_555 1_555
H19_4 C32_4 1_555 1_555
C33_4 C32_4 1_555 1_555
H20_4 C33_4 1_555 1_555
C34_4 C33_4 1_555 1_555
H21_4 C34_4 1_555 1_555
C35_4 C34_4 1_555 1_555
H22_4 C35_4 1_555 1_555
C36_4 C31_4 1_555 1_555
H23_4 C36_4 1_555 1_555
C37_4 C20_4 1_555 1_555
C38_4 C37_4 1_555 1_555
H24_4 C38_4 1_555 1_555
H25_4 C38_4 1_555 1_555
H26_4 C38_4 1_555 1_555
H53_4 C77_4 1_555 1_555
H55_4 C77_4 1_555 1_555
H64_4 C86_4 1_555 1_555
H65_4 C86_4 1_555 1_555
H66_4 C86_4 1_555 1_555
B1_4 N2_4 1_555 1_555
N9_2 Cd7_2 1_555 1_555
N3_4 B1_4 1_555 1_555
C18_4 C19_4 1_555 1_555
C22_4 C37_4 1_555 1_555
C35_4 C36_4 1_555 1_555
Cd4_2 O2_4 1_555 1_555
F3_4 B2_4 1_555 1_555
O2_4 C1_4 1_555 1_555
O10_2 C12_4 1_555 1_555
O11_2 C12_4 1_555 1_555
O7_4 Cd4_2 1_555 1_555
O8_4 Cd4_2 1_555 1_555
N5_4 Cd4_2 1_555 1_555
N6_4 C64_4 1_555 1_555
N7_4 C67_4 1_555 1_555
C1_4 O3_4 1_555 1_555
C2_4 C1_4 1_555 1_555
C3_4 C2_4 1_555 1_555
H1_4 C3_4 1_555 1_555
C4_4 C3_4 1_555 1_555
H2_4 C4_4 1_555 1_555
C5_4 C4_4 1_555 1_555
C6_4 C5_4 1_555 1_555
H3_4 C6_4 1_555 1_555
C7_4 C2_4 1_555 1_555
H4_4 C7_4 1_555 1_555
C8_4 C5_4 1_555 1_555
C9_4 C8_4 1_555 1_555
H5_4 C9_4 1_555 1_555
C10_4 C9_4 1_555 1_555
H6_4 C10_4 1_555 1_555
C11_4 C10_4 1_555 1_555
C12_4 C11_4 1_555 1_555
C13_4 C11_4 1_555 1_555
H7_4 C13_4 1_555 1_555
C14_4 C8_4 1_555 1_555
H8_4 C14_4 1_555 1_555
H16_4 C30_4 1_555 1_555
H18_4 C30_4 1_555 1_555
H27_4 C39_4 1_555 1_555
H28_4 C39_4 1_555 1_555
H29_4 C39_4 1_555 1_555
H36_4 C49_4 1_555 1_555
C52_4 O7_4 1_555 1_555
C53_4 C52_4 1_555 1_555
C56_4 C53_4 1_555 1_555
H40_4 C56_4 1_555 1_555
H41_4 C57_4 1_555 1_555
C58_4 N5_4 1_555 1_555
H42_4 C58_4 1_555 1_555
C59_4 C58_4 1_555 1_555
H43_4 C59_4 1_555 1_555
C60_4 C59_4 1_555 1_555
C61_4 C60_4 1_555 1_555
H44_4 C61_4 1_555 1_555
C62_4 N5_4 1_555 1_555
H45_4 C62_4 1_555 1_555
C63_4 C60_4 1_555 1_555
C64_4 C63_4 1_555 1_555
C65_4 N6_4 1_555 1_555
C66_4 C65_4 1_555 1_555
C67_4 C66_4 1_555 1_555
C68_4 N7_4 1_555 1_555
C70_4 C67_4 1_555 1_555
C71_4 C70_4 1_555 1_555
H46_4 C71_4 1_555 1_555
H48_4 C71_4 1_555 1_555
C78_4 C66_4 1_555 1_555
C79_4 C78_4 1_555 1_555
H56_4 C79_4 1_555 1_555
C80_4 C79_4 1_555 1_555
H57_4 C80_4 1_555 1_555
C81_4 C80_4 1_555 1_555
H58_4 C81_4 1_555 1_555
C82_4 C81_4 1_555 1_555
H59_4 C82_4 1_555 1_555
C83_4 C78_4 1_555 1_555
H60_4 C83_4 1_555 1_555
C84_4 C63_4 1_555 1_555
C85_4 C84_4 1_555 1_555
H61_4 C85_4 1_555 1_555
H62_4 C85_4 1_555 1_555
H63_4 C85_4 1_555 1_555
B2_4 N6_4 1_555 1_555
N10_2 Cd4_2 1_555 1_555
O8_4 C52_4 1_555 1_555
N7_4 B2_4 1_555 1_555
C6_4 C7_4 1_555 1_555
C13_4 C14_4 1_555 1_555
C56_4 C57_4 1_555 1_555
C61_4 C62_4 1_555 1_555
C65_4 C84_4 1_555 1_555
C82_4 C83_4 1_555 1_555
N9_2 C40_4 1_555 1_555
C29_4 C26_4 1_555 1_555
C40_4 H30_4 1_555 1_555
C41_4 C29_4 1_555 1_555
H31_4 C41_4 1_555 1_555
C42_4 N9_2 1_555 1_555
H32_4 C42_4 1_555 1_555
C43_4 C29_4 1_555 1_555
H33_4 C43_4 1_555 1_555
C40_4 C41_4 1_555 1_555
C42_4 C43_4 1_555 1_555
N10_2 C74_4 1_555 1_555
C72_4 C69_4 1_555 1_555
C73_4 C72_4 1_555 1_555
H49_4 C73_4 1_555 1_555
C74_4 C73_4 1_555 1_555
H50_4 C74_4 1_555 1_555
C75_4 N10_2 1_555 1_555
H51_4 C75_4 1_555 1_555
C76_4 C72_4 1_555 1_555
H52_4 C76_4 1_555 1_555
C75_4 C76_4 1_555 1_555

#END
