
###############################################################################
#
# This file contains modified crystal structure data generated from the
# MOF subset of the Cambridge Structural Database (CSD) v543 
# hosted by the Cambridge Crystallographic Data Centre (CCDC).
#
# This work is licensed under the Creative Commons
# Attribution-NonCommercial-ShareAlike 4.0 International License.
# To view a copy of this license, visit
# http://creativecommons.org/licenses/by-nc-sa/4.0/
# or send a letter to
# Creative Commons, PO Box 1866, Mountain View, CA 94042, USA.
#
# CIF created using the CSD Python API on 29 September 2022
# The structure has been converted into the P1 space group
# The structure has a 3D framework
# The original CSD entry JONDIC is in the monoclinic crystal system
# The framework has been calculated to contain at least 10.0% void space
# The void calculation uses a probe of radius 1.32A, grid spacing 0.4
#
###############################################################################

data_JONDIC
_chemical_formula_moiety         '(C688 H528 B16 Cd14 F32 N62 O96 S16)n'
_symmetry_cell_setting           triclinic
_symmetry_space_group_name_H-M   'P 1'
_symmetry_Int_Tables_number      1
_space_group_name_Hall           'P 1'
loop_
_symmetry_equiv_pos_site_id
_symmetry_equiv_pos_as_xyz
1 x,y,z
_cell_length_a                   34.889(2)
_cell_length_b                   18.9695(14)
_cell_length_c                   28.1751(16)
_cell_angle_alpha                90
_cell_angle_beta                 103.243(2)
_cell_angle_gamma                90
_cell_volume                     18151.2
loop_
_atom_site_label
_atom_site_type_symbol
_atom_site_fract_x
_atom_site_fract_y
_atom_site_fract_z
N4 N 0.4430(2) 0.0270(5) 0.0429(3)
C25 C 0.3731(3) 0.0329(7) 0.0114(4)
C26 C 0.4106(3) 0.0560(6) 0.0131(4)
Cd3 Cd 0.50583(2) 0.07704(4) 0.04806(2)
Cd7 Cd 0.01912(2) 0.07578(4) 0.46428(2)
O13 O 0.01452(19) 0.0312(3) 0.5511(2)
Cd1 Cd 0.00583(2) 0.57704(4) 0.04806(2)
S2 S 0.1113(2) 0.2111(4) 0.2202(2)
F1 F 0.2334(2) 0.9537(4) 0.1138(3)
F2 F 0.2660(2) 0.8557(5) 0.1423(3)
F3 F 0.2229(2) 0.7148(4) 0.4396(3)
F4 F 0.19280(19) 0.6104(4) 0.4376(3)
O4 O 0.0036(3) 0.6089(5) 0.1340(3)
O7 O 0.1484(3) 0.2415(7) 0.2422(4)
O8 O 0.1128(4) 0.1476(9) 0.1943(5)
O9 O 0.0402(2) 0.4840(4) 0.0788(3)
O10 O 0.0120(2) 0.3947(4) 0.0321(3)
O11 O 0.0455(2) 0.1740(4) 0.4240(2)
O12 O 0.0169(2) 0.0837(4) 0.3815(2)
N1 N 0.2140(2) 0.8442(5) 0.0707(3)
N2 N 0.2769(3) 0.9029(5) 0.0671(3)
N3 N 0.0631(2) 0.6387(4) 0.0485(3)
N5 N 0.1878(2) 0.6894(4) 0.5028(3)
N6 N 0.2504(2) 0.6291(5) 0.5015(3)
N7 N 0.0384(2) 0.8658(4) 0.5348(3)
N8 N 0.4210(2) 0.4822(4) 0.5263(3)
C1 C 0.1857(3) 0.8093(6) 0.0878(4)
C2 C 0.1611(3) 0.7746(6) 0.0487(4)
C3 C 0.1745(3) 0.7898(6) 0.0064(4)
C4 C 0.2076(3) 0.8335(6) 0.0208(4)
C6 C 0.2673(3) 0.8981(6) 0.0175(4)
C8 C 0.3279(3) 0.9478(6) 0.0405(4)
C9 C 0.3134(3) 0.9323(7) 0.0819(4)
C10 C 0.1824(3) 0.8116(7) 0.1394(4)
H1 H 0.201005 0.777993 0.158680
H2 H 0.155527 0.799029 0.141238
H3 H 0.188504 0.859232 0.152387
C11 C 0.1275(3) 0.7290(6) 0.0506(4)
C12 C 0.1285(3) 0.6779(6) 0.0857(4)
H4 H 0.151132 0.673162 0.111637
C13 C 0.0963(3) 0.6332(6) 0.0834(4)
H5 H 0.098053 0.597582 0.107481
C14 C 0.0618(3) 0.6904(6) 0.0160(4)
C15 C 0.0922(3) 0.7351(6) 0.0151(4)
C24 C 0.3674(3) 0.9762(6) 0.0404(4)
C27 C 0.4375(3) 0.9730(7) 0.0697(4)
H21 H 0.459819 0.951570 0.090218
C28 C 0.4005(3) 0.9457(7) 0.0694(4)
H22 H 0.397978 0.906124 0.089098
C29 C 0.3327(4) 0.9461(8) 0.1335(5)
H23 H 0.312928 0.961261 0.151107
H24 H 0.352478 0.983326 0.135255
H25 H 0.345538 0.902983 0.148459
C30 C 0.1540(3) 0.7272(6) 0.4890(4)
C31 C 0.1416(3) 0.7491(6) 0.5306(4)
C32 C 0.1690(3) 0.7231(6) 0.5713(4)
C33 C 0.1976(3) 0.6848(6) 0.5536(4)
C34 C 0.2308(3) 0.6480(7) 0.5789(4)
C35 C 0.2577(3) 0.6220(6) 0.5523(4)
C36 C 0.2951(3) 0.5905(6) 0.5680(4)
C37 C 0.3097(3) 0.5780(6) 0.5262(4)
C38 C 0.2815(3) 0.6021(6) 0.4857(4)
C39 C 0.1350(3) 0.7410(6) 0.4371(4)
H26 H 0.153255 0.766790 0.421719
H27 H 0.111122 0.769205 0.435148
H28 H 0.127942 0.696112 0.420088
C40 C 0.1063(3) 0.7911(6) 0.5323(4)
C41 C 0.0699(3) 0.7709(6) 0.5037(4)
H29 H 0.067675 0.731114 0.482809
C42 C 0.0371(3) 0.8098(5) 0.5064(3)
H30 H 0.012312 0.795793 0.486913
C43 C 0.0739(3) 0.8863(5) 0.5627(3)
H31 H 0.075350 0.926791 0.582900
C44 C 0.1077(3) 0.8490(6) 0.5619(4)
H32 H 0.132124 0.863527 0.581982
C45 C 0.1679(3) 0.7337(7) 0.6242(4)
H33 H 0.190089 0.763231 0.640259
H34 H 0.169617 0.687788 0.640561
H35 H 0.143112 0.756758 0.626022
C46 C 0.2201(2) 0.5923(4) 0.6503(3)
H36 H 0.203537 0.560091 0.629148
C47 C 0.2402(2) 0.6442(5) 0.6310(2)
C48 C 0.2644(2) 0.6913(4) 0.6619(3)
H37 H 0.278149 0.726827 0.648763
C49 C 0.2684(2) 0.6866(5) 0.7120(3)
H38 H 0.284935 0.718786 0.733159
C50 C 0.2483(3) 0.6347(5) 0.7313(2)
H39 H 0.251022 0.631397 0.765550
C51 C 0.2241(2) 0.5875(4) 0.7004(3)
H40 H 0.210323 0.552049 0.713545
C52 C 0.3148(3) 0.5725(7) 0.6197(4)
H41 H 0.320840 0.615997 0.638708
H42 H 0.339281 0.546808 0.620230
H43 H 0.297234 0.543032 0.633818
C53 C 0.3481(3) 0.5465(6) 0.5257(4)
C54 C 0.3821(3) 0.5654(6) 0.5585(4)
H44 H 0.381111 0.600984 0.581854
C55 C 0.4177(3) 0.5341(6) 0.5583(4)
H45 H 0.440620 0.549206 0.581216
C56 C 0.3877(3) 0.4635(6) 0.4937(4)
H46 H 0.389270 0.427399 0.470856
C57 C 0.3516(3) 0.4939(6) 0.4920(4)
H47 H 0.329139 0.479345 0.468067
C58 C 0.2834(3) 0.6022(6) 0.4341(4)
H48 H 0.262982 0.570877 0.415617
H49 H 0.309334 0.585635 0.431174
H50 H 0.279024 0.650191 0.421064
C73 C 0.0841(4) 0.2749(8) 0.1794(5)
C74 C 0.0546(4) 0.2523(7) 0.1436(4)
H59 H 0.045738 0.204861 0.142324
C75 C 0.0375(4) 0.3004(7) 0.1086(4)
H60 H 0.016540 0.285541 0.082626
C76 C 0.0498(3) 0.3690(6) 0.1100(4)
C77 C 0.0797(4) 0.3915(7) 0.1490(4)
H61 H 0.088365 0.439101 0.151218
C78 C 0.0966(4) 0.3423(8) 0.1845(5)
H62 H 0.116609 0.356117 0.211835
C79 C 0.0326(3) 0.4209(6) 0.0707(4)
C80 C 0.0865(4) 0.1949(8) 0.2674(5)
C81 C 0.0908(4) 0.2375(8) 0.3044(5)
H63 H 0.105993 0.279256 0.305186
C82 C 0.0731(4) 0.2216(8) 0.3433(5)
H64 H 0.075923 0.253348 0.369934
C83 C 0.0524(4) 0.1621(7) 0.3429(5)
C84 C 0.0503(5) 0.1178(8) 0.3045(5)
H65 H 0.037130 0.073946 0.304107
C85 C 0.0674(5) 0.1358(8) 0.2652(5)
H66 H 0.065000 0.105364 0.237926
C86 C 0.0368(4) 0.1394(7) 0.3855(5)
B1 B 0.2487(4) 0.8870(8) 0.1006(5)
B2 B 0.2131(3) 0.6595(6) 0.4707(4)
Cd5 Cd 0.48088(2) 0.42422(4) 0.53572(2)
Cd2 Cd 0.98088(2) 0.92422(4) 0.53572(2)
S1 S 0.90411(8) 0.86853(16) 0.21891(9)
O1 O 0.9047(2) 0.9357(4) 0.1956(2)
O2 O 0.8673(2) 0.8314(5) 0.2145(3)
O3 O 0.9852(2) 0.6821(4) 0.0733(2)
O5 O 0.98548(19) 0.9688(3) 0.4489(2)
O6 O 0.95332(18) 0.8734(3) 0.4614(2)
C59 C 0.9355(3) 0.8121(6) 0.1962(4)
C60 C 0.9525(3) 0.8353(6) 0.1596(4)
H51 H 0.951702 0.883794 0.151069
C61 C 0.9709(3) 0.7870(6) 0.1353(4)
H52 H 0.981747 0.802869 0.109215
C62 C 0.9740(3) 0.7182(6) 0.1476(4)
C63 C 0.9596(4) 0.6956(7) 0.1876(4)
H53 H 0.963440 0.648300 0.198845
C64 C 0.9395(4) 0.7431(6) 0.2106(4)
H54 H 0.928432 0.727476 0.236598
C65 C 0.9892(3) 0.6663(6) 0.1167(4)
C66 C 0.9246(3) 0.8788(6) 0.2818(3)
C67 C 0.9481(3) 0.9384(5) 0.2976(3)
H55 H 0.954537 0.970329 0.274591
C68 C 0.9615(3) 0.9498(5) 0.3467(3)
H56 H 0.977506 0.989645 0.357917
C69 C 0.9516(3) 0.9036(5) 0.3797(3)
C70 C 0.9291(3) 0.8445(6) 0.3641(3)
H57 H 0.923104 0.812280 0.387171
C71 C 0.9153(3) 0.8325(6) 0.3144(3)
H58 H 0.899430 0.792345 0.303246
C72 C 0.9647(3) 0.9164(5) 0.4340(3)
O15 O 0.9545(2) 0.8260(4) 0.5760(2)
O16 O 0.9831(2) 0.9163(4) 0.6185(2)
N9 N 0.9430(2) 0.5270(5) 0.0429(3)
N10 N 0.9210(2) 0.9822(4) 0.5263(3)
Cd4 Cd 0.99417(2) 0.42296(4) 0.95194(2)
O14 O 0.9880(2) 0.6053(4) 0.9679(3)
S1_2 S 0.40411(8) 0.36853(16) 0.21891(9)
F1_2 F 0.7334(2) 0.4537(4) 0.1138(3)
F2_2 F 0.7660(2) 0.3557(5) 0.1423(3)
F3_2 F 0.7229(2) 0.2148(4) 0.4396(3)
F4_2 F 0.69280(19) 0.1104(4) 0.4376(3)
O1_2 O 0.4047(2) 0.4357(4) 0.1956(2)
O2_2 O 0.3673(2) 0.3314(5) 0.2145(3)
O3_2 O 0.4852(2) 0.1821(4) 0.0733(2)
O4_2 O 0.5036(3) 0.1089(5) 0.1340(3)
O5_2 O 0.48548(19) 0.4688(3) 0.4489(2)
O6_2 O 0.45332(18) 0.3734(3) 0.4614(2)
N1_2 N 0.7140(2) 0.3442(5) 0.0707(3)
N2_2 N 0.7769(3) 0.4029(5) 0.0671(3)
N3_2 N 0.5631(2) 0.1387(4) 0.0485(3)
N5_2 N 0.6878(2) 0.1894(4) 0.5028(3)
N6_2 N 0.7504(2) 0.1291(5) 0.5015(3)
N7_2 N 0.5384(2) 0.3658(4) 0.5348(3)
C1_2 C 0.6857(3) 0.3093(6) 0.0878(4)
C2_2 C 0.6611(3) 0.2746(6) 0.0487(4)
C3_2 C 0.6745(3) 0.2898(6) 0.0064(4)
C4_2 C 0.7076(3) 0.3335(6) 0.0208(4)
C6_2 C 0.7673(3) 0.3981(6) 0.0175(4)
C8_2 C 0.8279(3) 0.4478(6) 0.0405(4)
C9_2 C 0.8134(3) 0.4323(7) 0.0819(4)
C10_2 C 0.6824(3) 0.3116(7) 0.1394(4)
H1_2 H 0.701005 0.277993 0.158680
H2_2 H 0.655527 0.299029 0.141238
H3_2 H 0.688504 0.359232 0.152387
C11_2 C 0.6275(3) 0.2290(6) 0.0506(4)
C12_2 C 0.6285(3) 0.1779(6) 0.0857(4)
H4_2 H 0.651132 0.173162 0.111637
C13_2 C 0.5963(3) 0.1332(6) 0.0834(4)
H5_2 H 0.598053 0.097582 0.107481
C14_2 C 0.5618(3) 0.1904(6) 0.0160(4)
C15_2 C 0.5922(3) 0.2351(6) 0.0151(4)
C24_2 C 0.8674(3) 0.4762(6) 0.0404(4)
C25_2 C 0.8731(3) 0.5329(7) 0.0114(4)
C26_2 C 0.9106(3) 0.5560(6) 0.0131(4)
C27_2 C 0.9375(3) 0.4730(7) 0.0697(4)
H21_2 H 0.959819 0.451570 0.090218
C28_2 C 0.9005(3) 0.4457(7) 0.0694(4)
H22_2 H 0.897978 0.406124 0.089098
C29_2 C 0.8327(4) 0.4461(8) 0.1335(5)
H23_2 H 0.812928 0.461261 0.151107
H24_2 H 0.852478 0.483326 0.135255
H25_2 H 0.845538 0.402983 0.148459
C30_2 C 0.6540(3) 0.2272(6) 0.4890(4)
C31_2 C 0.6416(3) 0.2491(6) 0.5306(4)
C32_2 C 0.6690(3) 0.2231(6) 0.5713(4)
C33_2 C 0.6976(3) 0.1848(6) 0.5536(4)
C34_2 C 0.7308(3) 0.1480(7) 0.5789(4)
C35_2 C 0.7577(3) 0.1220(6) 0.5523(4)
C36_2 C 0.7951(3) 0.0905(6) 0.5680(4)
C37_2 C 0.8097(3) 0.0780(6) 0.5262(4)
C38_2 C 0.7815(3) 0.1021(6) 0.4857(4)
C39_2 C 0.6350(3) 0.2410(6) 0.4371(4)
H26_2 H 0.653255 0.266790 0.421719
H27_2 H 0.611122 0.269205 0.435148
H28_2 H 0.627942 0.196112 0.420088
C40_2 C 0.6063(3) 0.2911(6) 0.5323(4)
C41_2 C 0.5699(3) 0.2709(6) 0.5037(4)
H29_2 H 0.567675 0.231114 0.482809
C42_2 C 0.5371(3) 0.3098(5) 0.5064(3)
H30_2 H 0.512312 0.295793 0.486913
C43_2 C 0.5739(3) 0.3863(5) 0.5627(3)
H31_2 H 0.575350 0.426791 0.582900
C44_2 C 0.6077(3) 0.3490(6) 0.5619(4)
H32_2 H 0.632124 0.363527 0.581982
C45_2 C 0.6679(3) 0.2337(7) 0.6242(4)
H33_2 H 0.690089 0.263231 0.640259
H34_2 H 0.669617 0.187788 0.640561
H35_2 H 0.643112 0.256758 0.626022
C46_2 C 0.7201(2) 0.0923(4) 0.6503(3)
H36_2 H 0.703537 0.060091 0.629148
C47_2 C 0.7402(2) 0.1442(5) 0.6310(2)
C48_2 C 0.7644(2) 0.1913(4) 0.6619(3)
H37_2 H 0.778149 0.226827 0.648763
C49_2 C 0.7684(2) 0.1866(5) 0.7120(3)
H38_2 H 0.784935 0.218786 0.733159
C50_2 C 0.7483(3) 0.1347(5) 0.7313(2)
H39_2 H 0.751022 0.131397 0.765550
C51_2 C 0.7241(2) 0.0875(4) 0.7004(3)
H40_2 H 0.710323 0.052049 0.713545
C52_2 C 0.8148(3) 0.0725(7) 0.6197(4)
H41_2 H 0.820840 0.115997 0.638708
H42_2 H 0.839281 0.046808 0.620230
H43_2 H 0.797234 0.043032 0.633818
C53_2 C 0.8481(3) 0.0465(6) 0.5257(4)
C54_2 C 0.8821(3) 0.0654(6) 0.5585(4)
H44_2 H 0.881111 0.100984 0.581854
C55_2 C 0.9177(3) 0.0341(6) 0.5583(4)
H45_2 H 0.940620 0.049206 0.581216
C58_2 C 0.7834(3) 0.1022(6) 0.4341(4)
H48_2 H 0.762982 0.070877 0.415617
H49_2 H 0.809334 0.085635 0.431174
H50_2 H 0.779024 0.150191 0.421064
C59_2 C 0.4355(3) 0.3121(6) 0.1962(4)
C60_2 C 0.4525(3) 0.3353(6) 0.1596(4)
H51_2 H 0.451702 0.383794 0.151069
C61_2 C 0.4709(3) 0.2870(6) 0.1353(4)
H52_2 H 0.481747 0.302869 0.109215
C62_2 C 0.4740(3) 0.2182(6) 0.1476(4)
C63_2 C 0.4596(4) 0.1956(7) 0.1876(4)
H53_2 H 0.463440 0.148300 0.198845
C64_2 C 0.4395(4) 0.2431(6) 0.2106(4)
H54_2 H 0.428432 0.227476 0.236598
C65_2 C 0.4892(3) 0.1663(6) 0.1167(4)
C66_2 C 0.4246(3) 0.3788(6) 0.2818(3)
C67_2 C 0.4481(3) 0.4384(5) 0.2976(3)
H55_2 H 0.454537 0.470329 0.274591
C68_2 C 0.4615(3) 0.4498(5) 0.3467(3)
H56_2 H 0.477506 0.489645 0.357917
C69_2 C 0.4516(3) 0.4036(5) 0.3797(3)
C70_2 C 0.4291(3) 0.3445(6) 0.3641(3)
H57_2 H 0.423104 0.312280 0.387171
C71_2 C 0.4153(3) 0.3325(6) 0.3144(3)
H58_2 H 0.399430 0.292345 0.303246
C72_2 C 0.4647(3) 0.4164(5) 0.4340(3)
B1_2 B 0.7487(4) 0.3870(8) 0.1006(5)
B2_2 B 0.7131(3) 0.1595(6) 0.4707(4)
Cd7_2 Cd 0.51912(2) 0.57578(4) 0.46428(2)
O13_2 O 0.51452(19) 0.5312(3) 0.5511(2)
O15_2 O 0.4545(2) 0.3260(4) 0.5760(2)
O16_2 O 0.4831(2) 0.4163(4) 0.6185(2)
C5 C 0.7323(3) 0.3643(6) 0.9928(4)
C7 C 0.7980(3) 0.4286(7) 0.9989(4)
H6 H 0.538053 0.196366 0.991915
H7 H 0.589426 0.270203 0.990574
C16 C 0.6584(3) 0.2585(6) 0.9567(4)
H8 H 0.644426 0.214626 0.959972
H9 H 0.680192 0.248529 0.941023
H10 H 0.640214 0.291968 0.936666
C17 C 0.7206(3) 0.3616(7) 0.9405(4)
C18 C 0.6891(4) 0.3991(7) 0.9141(4)
H11 H 0.675059 0.429146 0.931158
C19 C 0.6768(4) 0.3954(7) 0.8637(5)
H12 H 0.655907 0.424295 0.846591
C20 C 0.6956(4) 0.3483(8) 0.8389(5)
H13 H 0.687483 0.344438 0.804454
C21 C 0.7254(4) 0.3081(7) 0.8638(5)
H14 H 0.737651 0.275412 0.846444
C22 C 0.7387(4) 0.3135(7) 0.9146(5)
H15 H 0.759809 0.284787 0.931422
C23 C 0.8002(3) 0.4388(7) 0.9475(4)
H16 H 0.795694 0.393646 0.930217
H17 H 0.826236 0.456933 0.946320
H18 H 0.779953 0.472648 0.931837
H19 H 0.851222 0.555281 0.990622
H20 H 0.914090 0.593967 0.992598
O14_2 O 0.4880(2) 0.1053(4) 0.9679(3)
S2_2 S 0.6113(2) 0.7111(4) 0.2202(2)
O7_2 O 0.6484(3) 0.7415(7) 0.2422(4)
O8_2 O 0.6128(4) 0.6476(9) 0.1943(5)
O9_2 O 0.5402(2) 0.9840(4) 0.0788(3)
O10_2 O 0.5120(2) 0.8947(4) 0.0321(3)
O11_2 O 0.5455(2) 0.6740(4) 0.4240(2)
O12_2 O 0.5169(2) 0.5837(4) 0.3815(2)
C56_2 C 0.8877(3) 0.9635(6) 0.4937(4)
H46_2 H 0.889270 0.927399 0.470856
C57_2 C 0.8516(3) 0.9939(6) 0.4920(4)
H47_2 H 0.829139 0.979345 0.468067
C73_2 C 0.5841(4) 0.7749(8) 0.1794(5)
C74_2 C 0.5546(4) 0.7523(7) 0.1436(4)
H59_2 H 0.545738 0.704861 0.142324
C75_2 C 0.5375(4) 0.8004(7) 0.1086(4)
H60_2 H 0.516540 0.785541 0.082626
C76_2 C 0.5498(3) 0.8690(6) 0.1100(4)
C77_2 C 0.5797(4) 0.8915(7) 0.1490(4)
H61_2 H 0.588365 0.939101 0.151218
C78_2 C 0.5966(4) 0.8423(8) 0.1845(5)
H62_2 H 0.616609 0.856117 0.211835
C79_2 C 0.5326(3) 0.9209(6) 0.0707(4)
C80_2 C 0.5865(4) 0.6949(8) 0.2674(5)
C81_2 C 0.5908(4) 0.7375(8) 0.3044(5)
H63_2 H 0.605993 0.779256 0.305186
C82_2 C 0.5731(4) 0.7216(8) 0.3433(5)
H64_2 H 0.575923 0.753348 0.369934
C83_2 C 0.5524(4) 0.6621(7) 0.3429(5)
C84_2 C 0.5503(5) 0.6178(8) 0.3045(5)
H65_2 H 0.537130 0.573946 0.304107
C85_2 C 0.5674(5) 0.6358(8) 0.2652(5)
H66_2 H 0.565000 0.605364 0.237926
C86_2 C 0.5368(4) 0.6394(7) 0.3855(5)
Cd4_2 Cd 0.49417(2) 0.92296(4) 0.95194(2)
S1_3 S 0.09589(8) 0.13147(16) 0.78109(9)
O1_3 O 0.0953(2) 0.0643(4) 0.8044(2)
O2_3 O 0.1327(2) 0.1686(5) 0.7855(3)
O3_3 O 0.0148(2) 0.3179(4) 0.9267(2)
O6_3 O 0.04668(18) 0.1266(3) 0.5386(2)
C59_3 C 0.0645(3) 0.1879(6) 0.8038(4)
C60_3 C 0.0475(3) 0.1647(6) 0.8404(4)
H51_3 H 0.048298 0.116206 0.848931
C61_3 C 0.0291(3) 0.2130(6) 0.8647(4)
H52_3 H 0.018253 0.197131 0.890785
C62_3 C 0.0260(3) 0.2818(6) 0.8524(4)
C63_3 C 0.0404(4) 0.3044(7) 0.8124(4)
H53_3 H 0.036560 0.351700 0.801155
C64_3 C 0.0605(4) 0.2569(6) 0.7894(4)
H54_3 H 0.071568 0.272524 0.763402
C65_3 C 0.0108(3) 0.3337(6) 0.8833(4)
C66_3 C 0.0754(3) 0.1212(6) 0.7182(3)
C67_3 C 0.0519(3) 0.0616(5) 0.7024(3)
H55_3 H 0.045463 0.029671 0.725409
C68_3 C 0.0385(3) 0.0502(5) 0.6533(3)
H56_3 H 0.022494 0.010355 0.642083
C69_3 C 0.0484(3) 0.0964(5) 0.6203(3)
C70_3 C 0.0709(3) 0.1555(6) 0.6359(3)
H57_3 H 0.076896 0.187720 0.612829
C71_3 C 0.0847(3) 0.1675(6) 0.6856(3)
H58_3 H 0.100570 0.207655 0.696754
C72_3 C 0.0353(3) 0.0836(5) 0.5660(3)
N9_2 N 0.0570(2) 0.4730(5) 0.9571(3)
N10_2 N 0.0790(2) 0.0178(4) 0.4737(3)
S2_3 S 0.8887(2) 0.7889(4) 0.7798(2)
F1_3 F 0.7666(2) 0.0463(4) 0.8862(3)
F2_3 F 0.7340(2) 0.1443(5) 0.8577(3)
F3_3 F 0.7771(2) 0.2852(4) 0.5604(3)
F4_3 F 0.80720(19) 0.3896(4) 0.5624(3)
O4_3 O 0.9964(3) 0.3911(5) 0.8660(3)
O7_3 O 0.8516(3) 0.7585(7) 0.7578(4)
O8_3 O 0.8872(4) 0.8524(9) 0.8057(5)
O9_3 O 0.9598(2) 0.5160(4) 0.9212(3)
N1_3 N 0.7860(2) 0.1558(5) 0.9293(3)
N2_3 N 0.7231(3) 0.0971(5) 0.9329(3)
N3_3 N 0.9369(2) 0.3613(4) 0.9515(3)
N5_3 N 0.8122(2) 0.3106(4) 0.4972(3)
N6_3 N 0.7496(2) 0.3709(5) 0.4985(3)
N7_3 N 0.9616(2) 0.1342(4) 0.4652(3)
N8_2 N 0.5790(2) 0.5178(4) 0.4737(3)
C1_3 C 0.8143(3) 0.1907(6) 0.9122(4)
C2_3 C 0.8389(3) 0.2254(6) 0.9513(4)
C3_3 C 0.8255(3) 0.2102(6) 0.9936(4)
C4_3 C 0.7924(3) 0.1665(6) 0.9792(4)
C6_3 C 0.7327(3) 0.1019(6) 0.9825(4)
C8_3 C 0.6721(3) 0.0522(6) 0.9595(4)
C9_3 C 0.6866(3) 0.0677(7) 0.9181(4)
C10_3 C 0.8176(3) 0.1884(7) 0.8606(4)
H1_3 H 0.798995 0.222007 0.841320
H2_3 H 0.844473 0.200971 0.858762
H3_3 H 0.811496 0.140768 0.847613
C11_3 C 0.8725(3) 0.2710(6) 0.9494(4)
C12_3 C 0.8715(3) 0.3221(6) 0.9143(4)
H4_3 H 0.848868 0.326838 0.888363
C13_3 C 0.9037(3) 0.3668(6) 0.9166(4)
H5_3 H 0.901947 0.402418 0.892519
C14_3 C 0.9382(3) 0.3096(6) 0.9840(4)
C15_3 C 0.9078(3) 0.2649(6) 0.9849(4)
C24_3 C 0.6326(3) 0.0238(6) 0.9596(4)
C27_3 C 0.5625(3) 0.0270(7) 0.9303(4)
H21_3 H 0.540181 0.048430 0.909782
C28_3 C 0.5995(3) 0.0543(7) 0.9306(4)
H22_3 H 0.602022 0.093876 0.910902
C29_3 C 0.6673(4) 0.0539(8) 0.8665(5)
H23_3 H 0.687072 0.038739 0.848893
H24_3 H 0.647522 0.016674 0.864745
H25_3 H 0.654462 0.097017 0.851541
C30_3 C 0.8460(3) 0.2728(6) 0.5110(4)
C31_3 C 0.8584(3) 0.2509(6) 0.4694(4)
C32_3 C 0.8310(3) 0.2769(6) 0.4287(4)
C33_3 C 0.8024(3) 0.3152(6) 0.4464(4)
C34_3 C 0.7692(3) 0.3520(7) 0.4211(4)
C35_3 C 0.7423(3) 0.3780(6) 0.4477(4)
C36_3 C 0.7049(3) 0.4095(6) 0.4320(4)
C37_3 C 0.6903(3) 0.4220(6) 0.4738(4)
C38_3 C 0.7185(3) 0.3979(6) 0.5143(4)
C39_3 C 0.8650(3) 0.2590(6) 0.5629(4)
H26_3 H 0.846745 0.233210 0.578281
H27_3 H 0.888878 0.230795 0.564852
H28_3 H 0.872058 0.303888 0.579912
C40_3 C 0.8937(3) 0.2089(6) 0.4677(4)
C41_3 C 0.9301(3) 0.2291(6) 0.4963(4)
H29_3 H 0.932325 0.268886 0.517191
C42_3 C 0.9629(3) 0.1902(5) 0.4936(3)
H30_3 H 0.987688 0.204207 0.513087
C43_3 C 0.9261(3) 0.1137(5) 0.4373(3)
H31_3 H 0.924650 0.073209 0.417100
C44_3 C 0.8923(3) 0.1510(6) 0.4381(4)
H32_3 H 0.867876 0.136473 0.418018
C45_3 C 0.8321(3) 0.2663(7) 0.3758(4)
H33_3 H 0.809911 0.236769 0.359741
H34_3 H 0.830383 0.312212 0.359439
H35_3 H 0.856888 0.243242 0.373978
C46_3 C 0.7799(2) 0.4077(4) 0.3497(3)
H36_3 H 0.796463 0.439909 0.370852
C47_3 C 0.7598(2) 0.3558(5) 0.3690(2)
C48_3 C 0.7356(2) 0.3087(4) 0.3381(3)
H37_3 H 0.721851 0.273173 0.351237
C49_3 C 0.7316(2) 0.3134(5) 0.2880(3)
H38_3 H 0.715065 0.281214 0.266841
C50_3 C 0.7517(3) 0.3653(5) 0.2687(2)
H39_3 H 0.748978 0.368603 0.234450
C51_3 C 0.7759(2) 0.4125(4) 0.2996(3)
H40_3 H 0.789677 0.447951 0.286455
C52_3 C 0.6852(3) 0.4275(7) 0.3803(4)
H41_3 H 0.679160 0.384003 0.361292
H42_3 H 0.660719 0.453192 0.379770
H43_3 H 0.702766 0.456968 0.366182
C53_3 C 0.6519(3) 0.4535(6) 0.4743(4)
C54_3 C 0.6179(3) 0.4346(6) 0.4415(4)
H44_3 H 0.618889 0.399016 0.418146
C55_3 C 0.5823(3) 0.4659(6) 0.4417(4)
H45_3 H 0.559380 0.450794 0.418784
C56_3 C 0.6123(3) 0.5365(6) 0.5063(4)
H46_3 H 0.610730 0.572601 0.529144
C57_3 C 0.6484(3) 0.5061(6) 0.5080(4)
H47_3 H 0.670861 0.520655 0.531933
C58_3 C 0.7166(3) 0.3978(6) 0.5659(4)
H48_3 H 0.737018 0.429123 0.584383
H49_3 H 0.690666 0.414365 0.568826
H50_3 H 0.720976 0.349809 0.578936
C73_3 C 0.9159(4) 0.7251(8) 0.8206(5)
C74_3 C 0.9454(4) 0.7477(7) 0.8564(4)
H59_3 H 0.954262 0.795139 0.857676
C75_3 C 0.9625(4) 0.6996(7) 0.8914(4)
H60_3 H 0.983460 0.714459 0.917374
C76_3 C 0.9502(3) 0.6310(6) 0.8900(4)
C77_3 C 0.9203(4) 0.6085(7) 0.8510(4)
H61_3 H 0.911635 0.560899 0.848782
C78_3 C 0.9034(4) 0.6577(8) 0.8155(5)
H62_3 H 0.883391 0.643883 0.788165
C79_3 C 0.9674(3) 0.5791(6) 0.9293(4)
C80_3 C 0.9135(4) 0.8051(8) 0.7326(5)
C81_3 C 0.9092(4) 0.7625(8) 0.6956(5)
H63_3 H 0.894007 0.720744 0.694814
C82_3 C 0.9269(4) 0.7784(8) 0.6567(5)
H64_3 H 0.924077 0.746652 0.630066
C83_3 C 0.9476(4) 0.8379(7) 0.6571(5)
C84_3 C 0.9497(5) 0.8822(8) 0.6955(5)
H65_3 H 0.962870 0.926054 0.695893
C85_3 C 0.9326(5) 0.8642(8) 0.7348(5)
H66_3 H 0.935000 0.894636 0.762074
C86_3 C 0.9632(4) 0.8606(7) 0.6145(5)
B1_3 B 0.7513(4) 0.1130(8) 0.8994(5)
B2_3 B 0.7869(3) 0.3405(6) 0.5293(4)
N4_2 N 0.5570(2) 0.9730(5) 0.9571(3)
C25_3 C 0.6269(3) 0.9671(7) 0.9886(4)
C26_3 C 0.5894(3) 0.9440(6) 0.9869(4)
S2_4 S 0.3887(2) 0.2889(4) 0.7798(2)
O7_4 O 0.3516(3) 0.2585(7) 0.7578(4)
O8_4 O 0.3872(4) 0.3524(9) 0.8057(5)
O9_4 O 0.4598(2) 0.0160(4) 0.9212(3)
C56_4 C 0.1123(3) 0.0365(6) 0.5063(4)
H46_4 H 0.110730 0.072601 0.529144
C57_4 C 0.1484(3) 0.0061(6) 0.5080(4)
H47_4 H 0.170861 0.020655 0.531933
C73_4 C 0.4159(4) 0.2251(8) 0.8206(5)
C74_4 C 0.4454(4) 0.2477(7) 0.8564(4)
H59_4 H 0.454262 0.295139 0.857676
C75_4 C 0.4625(4) 0.1996(7) 0.8914(4)
H60_4 H 0.483460 0.214459 0.917374
C76_4 C 0.4502(3) 0.1310(6) 0.8900(4)
C77_4 C 0.4203(4) 0.1085(7) 0.8510(4)
H61_4 H 0.411635 0.060899 0.848782
C78_4 C 0.4034(4) 0.1577(8) 0.8155(5)
H62_4 H 0.383391 0.143883 0.788165
C79_4 C 0.4674(3) 0.0791(6) 0.9293(4)
C80_4 C 0.4135(4) 0.3051(8) 0.7326(5)
C81_4 C 0.4092(4) 0.2625(8) 0.6956(5)
H63_4 H 0.394007 0.220744 0.694814
C82_4 C 0.4269(4) 0.2784(8) 0.6567(5)
H64_4 H 0.424077 0.246652 0.630066
C83_4 C 0.4476(4) 0.3379(7) 0.6571(5)
C84_4 C 0.4497(5) 0.3822(8) 0.6955(5)
H65_4 H 0.462870 0.426054 0.695893
C85_4 C 0.4326(5) 0.3642(8) 0.7348(5)
H66_4 H 0.435000 0.394636 0.762074
C86_4 C 0.4632(4) 0.3606(7) 0.6145(5)
C5_2 C 0.2677(3) 0.6357(6) 0.0072(4)
C7_2 C 0.2020(3) 0.5714(7) 0.0011(4)
H6_2 H 0.461947 0.803634 0.008085
H7_2 H 0.410574 0.729797 0.009426
C16_2 C 0.3416(3) 0.7415(6) 0.0433(4)
H8_2 H 0.355574 0.785374 0.040028
H9_2 H 0.319808 0.751471 0.058977
H10_2 H 0.359786 0.708032 0.063334
C17_2 C 0.2794(3) 0.6384(7) 0.0595(4)
C18_2 C 0.3109(4) 0.6009(7) 0.0859(4)
H11_2 H 0.324941 0.570854 0.068842
C19_2 C 0.3232(4) 0.6046(7) 0.1363(5)
H12_2 H 0.344093 0.575705 0.153409
C20_2 C 0.3044(4) 0.6517(8) 0.1611(5)
H13_2 H 0.312517 0.655562 0.195546
C21_2 C 0.2746(4) 0.6919(7) 0.1362(5)
H14_2 H 0.262349 0.724588 0.153556
C22_2 C 0.2613(4) 0.6865(7) 0.0854(5)
H15_2 H 0.240191 0.715213 0.068578
C23_2 C 0.1998(3) 0.5612(7) 0.0525(4)
H16_2 H 0.204306 0.606354 0.069783
H17_2 H 0.173764 0.543067 0.053680
H18_2 H 0.220047 0.527352 0.068163
H19_2 H 0.148778 0.444719 0.009378
H20_2 H 0.085910 0.406033 0.007402
S1_4 S 0.59589(8) 0.63147(16) 0.78109(9)
F1_4 F 0.2666(2) 0.5463(4) 0.8862(3)
F2_4 F 0.2340(2) 0.6443(5) 0.8577(3)
F3_4 F 0.2771(2) 0.7852(4) 0.5604(3)
F4_4 F 0.30720(19) 0.8896(4) 0.5624(3)
O1_4 O 0.5953(2) 0.5643(4) 0.8044(2)
O2_4 O 0.6327(2) 0.6686(5) 0.7855(3)
O3_4 O 0.5148(2) 0.8179(4) 0.9267(2)
O4_4 O 0.4964(3) 0.8911(5) 0.8660(3)
O6_4 O 0.54668(18) 0.6266(3) 0.5386(2)
N1_4 N 0.2860(2) 0.6558(5) 0.9293(3)
N2_4 N 0.2231(3) 0.5971(5) 0.9329(3)
N3_4 N 0.4369(2) 0.8613(4) 0.9515(3)
N5_4 N 0.3122(2) 0.8106(4) 0.4972(3)
N6_4 N 0.2496(2) 0.8709(5) 0.4985(3)
N7_4 N 0.4616(2) 0.6342(4) 0.4652(3)
C1_4 C 0.3143(3) 0.6907(6) 0.9122(4)
C2_4 C 0.3389(3) 0.7254(6) 0.9513(4)
C3_4 C 0.3255(3) 0.7102(6) 0.9936(4)
C4_4 C 0.2924(3) 0.6665(6) 0.9792(4)
C6_4 C 0.2327(3) 0.6019(6) 0.9825(4)
C8_4 C 0.1721(3) 0.5522(6) 0.9595(4)
C9_4 C 0.1866(3) 0.5677(7) 0.9181(4)
C10_4 C 0.3176(3) 0.6884(7) 0.8606(4)
H1_4 H 0.298995 0.722007 0.841320
H2_4 H 0.344473 0.700971 0.858762
H3_4 H 0.311496 0.640768 0.847613
C11_4 C 0.3725(3) 0.7710(6) 0.9494(4)
C12_4 C 0.3715(3) 0.8221(6) 0.9143(4)
H4_4 H 0.348868 0.826838 0.888363
C13_4 C 0.4037(3) 0.8668(6) 0.9166(4)
H5_4 H 0.401947 0.902418 0.892519
C14_4 C 0.4382(3) 0.8096(6) 0.9840(4)
C15_4 C 0.4078(3) 0.7649(6) 0.9849(4)
C24_4 C 0.1326(3) 0.5238(6) 0.9596(4)
C25_4 C 0.1269(3) 0.4671(7) 0.9886(4)
C26_4 C 0.0894(3) 0.4440(6) 0.9869(4)
C27_4 C 0.0625(3) 0.5270(7) 0.9303(4)
H21_4 H 0.040181 0.548430 0.909782
C28_4 C 0.0995(3) 0.5543(7) 0.9306(4)
H22_4 H 0.102022 0.593876 0.910902
C29_4 C 0.1673(4) 0.5539(8) 0.8665(5)
H23_4 H 0.187072 0.538739 0.848893
H24_4 H 0.147522 0.516674 0.864745
H25_4 H 0.154462 0.597017 0.851541
C30_4 C 0.3460(3) 0.7728(6) 0.5110(4)
C31_4 C 0.3584(3) 0.7509(6) 0.4694(4)
C32_4 C 0.3310(3) 0.7769(6) 0.4287(4)
C33_4 C 0.3024(3) 0.8152(6) 0.4464(4)
C34_4 C 0.2692(3) 0.8520(7) 0.4211(4)
C35_4 C 0.2423(3) 0.8780(6) 0.4477(4)
C36_4 C 0.2049(3) 0.9095(6) 0.4320(4)
C37_4 C 0.1903(3) 0.9220(6) 0.4738(4)
C38_4 C 0.2185(3) 0.8979(6) 0.5143(4)
C39_4 C 0.3650(3) 0.7590(6) 0.5629(4)
H26_4 H 0.346745 0.733210 0.578281
H27_4 H 0.388878 0.730795 0.564852
H28_4 H 0.372058 0.803888 0.579912
C40_4 C 0.3937(3) 0.7089(6) 0.4677(4)
C41_4 C 0.4301(3) 0.7291(6) 0.4963(4)
H29_4 H 0.432325 0.768886 0.517191
C42_4 C 0.4629(3) 0.6902(5) 0.4936(3)
H30_4 H 0.487688 0.704207 0.513087
C43_4 C 0.4261(3) 0.6137(5) 0.4373(3)
H31_4 H 0.424650 0.573209 0.417100
C44_4 C 0.3923(3) 0.6510(6) 0.4381(4)
H32_4 H 0.367876 0.636473 0.418018
C45_4 C 0.3321(3) 0.7663(7) 0.3758(4)
H33_4 H 0.309911 0.736769 0.359741
H34_4 H 0.330383 0.812212 0.359439
H35_4 H 0.356888 0.743242 0.373978
C46_4 C 0.2799(2) 0.9077(4) 0.3497(3)
H36_4 H 0.296463 0.939909 0.370852
C47_4 C 0.2598(2) 0.8558(5) 0.3690(2)
C48_4 C 0.2356(2) 0.8087(4) 0.3381(3)
H37_4 H 0.221851 0.773173 0.351237
C49_4 C 0.2316(2) 0.8134(5) 0.2880(3)
H38_4 H 0.215065 0.781214 0.266841
C50_4 C 0.2517(3) 0.8653(5) 0.2687(2)
H39_4 H 0.248978 0.868603 0.234450
C51_4 C 0.2759(2) 0.9125(4) 0.2996(3)
H40_4 H 0.289677 0.947951 0.286455
C52_4 C 0.1852(3) 0.9275(7) 0.3803(4)
H41_4 H 0.179160 0.884003 0.361292
H42_4 H 0.160719 0.953192 0.379770
H43_4 H 0.202766 0.956968 0.366182
C53_4 C 0.1519(3) 0.9535(6) 0.4743(4)
C54_4 C 0.1179(3) 0.9346(6) 0.4415(4)
H44_4 H 0.118889 0.899016 0.418146
C55_4 C 0.0823(3) 0.9659(6) 0.4417(4)
H45_4 H 0.059380 0.950794 0.418784
C58_4 C 0.2166(3) 0.8978(6) 0.5659(4)
H48_4 H 0.237018 0.929123 0.584383
H49_4 H 0.190666 0.914365 0.568826
H50_4 H 0.220976 0.849809 0.578936
C59_4 C 0.5645(3) 0.6879(6) 0.8038(4)
C60_4 C 0.5475(3) 0.6647(6) 0.8404(4)
H51_4 H 0.548298 0.616206 0.848931
C61_4 C 0.5291(3) 0.7130(6) 0.8647(4)
H52_4 H 0.518253 0.697131 0.890785
C62_4 C 0.5260(3) 0.7818(6) 0.8524(4)
C63_4 C 0.5404(4) 0.8044(7) 0.8124(4)
H53_4 H 0.536560 0.851700 0.801155
C64_4 C 0.5605(4) 0.7569(6) 0.7894(4)
H54_4 H 0.571568 0.772524 0.763402
C65_4 C 0.5108(3) 0.8337(6) 0.8833(4)
C66_4 C 0.5754(3) 0.6212(6) 0.7182(3)
C67_4 C 0.5519(3) 0.5616(5) 0.7024(3)
H55_4 H 0.545463 0.529671 0.725409
C68_4 C 0.5385(3) 0.5502(5) 0.6533(3)
H56_4 H 0.522494 0.510355 0.642083
C69_4 C 0.5484(3) 0.5964(5) 0.6203(3)
C70_4 C 0.5709(3) 0.6555(6) 0.6359(3)
H57_4 H 0.576896 0.687720 0.612829
C71_4 C 0.5847(3) 0.6675(6) 0.6856(3)
H58_4 H 0.600570 0.707655 0.696754
C72_4 C 0.5353(3) 0.5836(5) 0.5660(3)
B1_4 B 0.2513(4) 0.6130(8) 0.8994(5)
B2_4 B 0.2869(3) 0.8405(6) 0.5293(4)
H19_3 H 0.351222 0.055281 0.990622
H20_3 H 0.414090 0.093967 0.992598
C5_3 C 0.2323(3) 0.8643(6) 0.9928(4)
C7_3 C 0.2980(3) 0.9286(7) 0.9989(4)
H6_3 H 0.038053 0.696366 0.991915
H7_3 H 0.089426 0.770203 0.990574
C16_3 C 0.1584(3) 0.7585(6) 0.9567(4)
H8_3 H 0.144426 0.714626 0.959972
H9_3 H 0.180192 0.748529 0.941023
H10_3 H 0.140214 0.791968 0.936666
C17_3 C 0.2206(3) 0.8616(7) 0.9405(4)
C18_3 C 0.1891(4) 0.8991(7) 0.9141(4)
H11_3 H 0.175059 0.929146 0.931158
C19_3 C 0.1768(4) 0.8954(7) 0.8637(5)
H12_3 H 0.155907 0.924295 0.846591
C20_3 C 0.1956(4) 0.8483(8) 0.8389(5)
H13_3 H 0.187483 0.844438 0.804454
C21_3 C 0.2254(4) 0.8081(7) 0.8638(5)
H14_3 H 0.237651 0.775412 0.846444
C22_3 C 0.2387(4) 0.8135(7) 0.9146(5)
H15_3 H 0.259809 0.784787 0.931422
C23_3 C 0.3002(3) 0.9388(7) 0.9475(4)
H16_3 H 0.295694 0.893646 0.930217
H17_3 H 0.326236 0.956933 0.946320
H18_3 H 0.279953 0.972648 0.931837
S1_5 S 0.09589(8) 0.86853(16) 0.28109(9)
O1_5 O 0.0953(2) 0.9357(4) 0.3044(2)
O2_5 O 0.1327(2) 0.8314(5) 0.2855(3)
O3_5 O 0.0148(2) 0.6821(4) 0.4267(2)
O5_3 O 0.01452(19) 0.9688(3) 0.0511(2)
O6_5 O 0.04668(18) 0.8734(3) 0.0386(2)
C59_5 C 0.0645(3) 0.8121(6) 0.3038(4)
C60_5 C 0.0475(3) 0.8353(6) 0.3404(4)
H51_5 H 0.048298 0.883794 0.348931
C61_5 C 0.0291(3) 0.7870(6) 0.3647(4)
H52_5 H 0.018253 0.802869 0.390785
C62_5 C 0.0260(3) 0.7182(6) 0.3524(4)
C63_5 C 0.0404(4) 0.6956(7) 0.3124(4)
H53_5 H 0.036560 0.648300 0.301155
C64_5 C 0.0605(4) 0.7431(6) 0.2894(4)
H54_5 H 0.071568 0.727476 0.263402
C65_5 C 0.0108(3) 0.6663(6) 0.3833(4)
C66_5 C 0.0754(3) 0.8788(6) 0.2182(3)
C67_5 C 0.0519(3) 0.9384(5) 0.2024(3)
H55_5 H 0.045463 0.970329 0.225409
C68_5 C 0.0385(3) 0.9498(5) 0.1533(3)
H56_5 H 0.022494 0.989645 0.142083
C69_5 C 0.0484(3) 0.9036(5) 0.1203(3)
C70_5 C 0.0709(3) 0.8445(6) 0.1359(3)
H57_5 H 0.076896 0.812280 0.112829
C71_5 C 0.0847(3) 0.8325(6) 0.1856(3)
H58_5 H 0.100570 0.792345 0.196754
C72_5 C 0.0353(3) 0.9164(5) 0.0660(3)
Cd4_3 Cd 0.00583(2) 0.42296(4) 0.54806(2)
O14_3 O 0.0120(2) 0.6053(4) 0.5321(3)
N9_3 N 0.0570(2) 0.5270(5) 0.4571(3)
Cd2_2 Cd 0.01912(2) 0.92422(4) 0.96428(2)
O15_3 O 0.0455(2) 0.8260(4) 0.9240(2)
O16_3 O 0.0169(2) 0.9163(4) 0.8815(2)
N10_3 N 0.0790(2) 0.9822(4) 0.9737(3)
N4_3 N 0.5570(2) 0.0270(5) 0.4571(3)
C25_5 C 0.6269(3) 0.0329(7) 0.4886(4)
H19_4 H 0.648778 0.055281 0.509378
C26_5 C 0.5894(3) 0.0560(6) 0.4869(4)
H20_4 H 0.585910 0.093967 0.507402
Cd3_2 Cd 0.49417(2) 0.07704(4) 0.45194(2)
Cd7_3 Cd 0.98088(2) 0.07578(4) 0.03572(2)
O13_3 O 0.98548(19) 0.0312(3) 0.9489(2)
Cd1_2 Cd 0.99417(2) 0.57704(4) 0.45194(2)
S2_5 S 0.8887(2) 0.2111(4) 0.2798(2)
F1_5 F 0.7666(2) 0.9537(4) 0.3862(3)
F2_5 F 0.7340(2) 0.8557(5) 0.3577(3)
F3_5 F 0.7771(2) 0.7148(4) 0.0604(3)
F4_5 F 0.80720(19) 0.6104(4) 0.0624(3)
O4_5 O 0.9964(3) 0.6089(5) 0.3660(3)
O7_5 O 0.8516(3) 0.2415(7) 0.2578(4)
O8_5 O 0.8872(4) 0.1476(9) 0.3057(5)
O9_5 O 0.9598(2) 0.4840(4) 0.4212(3)
O10_3 O 0.9880(2) 0.3947(4) 0.4679(3)
O11_3 O 0.9545(2) 0.1740(4) 0.0760(2)
O12_3 O 0.9831(2) 0.0837(4) 0.1185(2)
N1_5 N 0.7860(2) 0.8442(5) 0.4293(3)
N2_5 N 0.7231(3) 0.9029(5) 0.4329(3)
N3_5 N 0.9369(2) 0.6387(4) 0.4515(3)
C1_5 C 0.8143(3) 0.8093(6) 0.4122(4)
C2_5 C 0.8389(3) 0.7746(6) 0.4513(4)
C3_5 C 0.8255(3) 0.7898(6) 0.4936(4)
C4_5 C 0.7924(3) 0.8335(6) 0.4792(4)
C5_4 C 0.7677(3) 0.8643(6) 0.5072(4)
C6_5 C 0.7327(3) 0.8981(6) 0.4825(4)
C7_4 C 0.7020(3) 0.9286(7) 0.5011(4)
C8_5 C 0.6721(3) 0.9478(6) 0.4595(4)
C9_5 C 0.6866(3) 0.9323(7) 0.4181(4)
C10_5 C 0.8176(3) 0.8116(7) 0.3606(4)
H1_5 H 0.798995 0.777993 0.341320
H2_5 H 0.844473 0.799029 0.358762
H3_5 H 0.811496 0.859232 0.347613
C11_5 C 0.8725(3) 0.7290(6) 0.4494(4)
C12_5 C 0.8715(3) 0.6779(6) 0.4143(4)
H4_5 H 0.848868 0.673162 0.388363
C13_5 C 0.9037(3) 0.6332(6) 0.4166(4)
H5_5 H 0.901947 0.597582 0.392519
C14_5 C 0.9382(3) 0.6904(6) 0.4840(4)
H6_4 H 0.961947 0.696366 0.508085
C15_5 C 0.9078(3) 0.7351(6) 0.4849(4)
H7_4 H 0.910574 0.770203 0.509426
C16_4 C 0.8416(3) 0.7585(6) 0.5433(4)
H8_4 H 0.855574 0.714626 0.540028
H9_4 H 0.819808 0.748529 0.558977
H10_4 H 0.859786 0.791968 0.563334
C17_4 C 0.7794(3) 0.8616(7) 0.5595(4)
C18_4 C 0.8109(4) 0.8991(7) 0.5859(4)
H11_4 H 0.824941 0.929146 0.568842
C19_4 C 0.8232(4) 0.8954(7) 0.6363(5)
H12_4 H 0.844093 0.924295 0.653409
C20_4 C 0.8044(4) 0.8483(8) 0.6611(5)
H13_4 H 0.812517 0.844438 0.695546
C21_4 C 0.7746(4) 0.8081(7) 0.6362(5)
H14_4 H 0.762349 0.775412 0.653556
C22_4 C 0.7613(4) 0.8135(7) 0.5854(5)
H15_4 H 0.740191 0.784787 0.568578
C23_4 C 0.6998(3) 0.9388(7) 0.5525(4)
H16_4 H 0.704306 0.893646 0.569783
H17_4 H 0.673764 0.956933 0.553680
H18_4 H 0.720047 0.972648 0.568163
C24_5 C 0.6326(3) 0.9762(6) 0.4596(4)
C27_5 C 0.5625(3) 0.9730(7) 0.4303(4)
H21_5 H 0.540181 0.951570 0.409782
C28_5 C 0.5995(3) 0.9457(7) 0.4306(4)
H22_5 H 0.602022 0.906124 0.410902
C29_5 C 0.6673(4) 0.9461(8) 0.3665(5)
H23_5 H 0.687072 0.961261 0.348893
H24_5 H 0.647522 0.983326 0.364745
H25_5 H 0.654462 0.902983 0.351541
C30_5 C 0.8460(3) 0.7272(6) 0.0110(4)
C38_5 C 0.7185(3) 0.6021(6) 0.0143(4)
C39_5 C 0.8650(3) 0.7410(6) 0.0629(4)
H26_5 H 0.846745 0.766790 0.078281
H27_5 H 0.888878 0.769205 0.064852
H28_5 H 0.872058 0.696112 0.079912
H29_5 H 0.932325 0.731114 0.017191
H30_5 H 0.987688 0.795793 0.013087
C56_5 C 0.6123(3) 0.4635(6) 0.0063(4)
H46_5 H 0.610730 0.427399 0.029144
C57_5 C 0.6484(3) 0.4939(6) 0.0080(4)
H47_5 H 0.670861 0.479345 0.031933
C58_5 C 0.7166(3) 0.6022(6) 0.0659(4)
H48_5 H 0.737018 0.570877 0.084383
H49_5 H 0.690666 0.585635 0.068826
H50_5 H 0.720976 0.650191 0.078936
C73_5 C 0.9159(4) 0.2749(8) 0.3206(5)
C74_5 C 0.9454(4) 0.2523(7) 0.3564(4)
H59_5 H 0.954262 0.204861 0.357676
C75_5 C 0.9625(4) 0.3004(7) 0.3914(4)
H60_5 H 0.983460 0.285541 0.417374
C76_5 C 0.9502(3) 0.3690(6) 0.3900(4)
C77_5 C 0.9203(4) 0.3915(7) 0.3510(4)
H61_5 H 0.911635 0.439101 0.348782
C78_5 C 0.9034(4) 0.3423(8) 0.3155(5)
H62_5 H 0.883391 0.356117 0.288165
C79_5 C 0.9674(3) 0.4209(6) 0.4293(4)
C80_5 C 0.9135(4) 0.1949(8) 0.2326(5)
C81_5 C 0.9092(4) 0.2375(8) 0.1956(5)
H63_5 H 0.894007 0.279256 0.194814
C82_5 C 0.9269(4) 0.2216(8) 0.1567(5)
H64_5 H 0.924077 0.253348 0.130066
C83_5 C 0.9476(4) 0.1621(7) 0.1571(5)
C84_5 C 0.9497(5) 0.1178(8) 0.1955(5)
H65_5 H 0.962870 0.073946 0.195893
C85_5 C 0.9326(5) 0.1358(8) 0.2348(5)
H66_5 H 0.935000 0.105364 0.262074
C86_5 C 0.9632(4) 0.1394(7) 0.1145(5)
B1_5 B 0.7513(4) 0.8870(8) 0.3994(5)
B2_5 B 0.7869(3) 0.6595(6) 0.0293(4)
N5_5 N 0.8122(2) 0.6894(4) 0.9972(3)
N6_5 N 0.7496(2) 0.6291(5) 0.9985(3)
N7_5 N 0.9616(2) 0.8658(4) 0.9652(3)
N8_3 N 0.5790(2) 0.4822(4) 0.9737(3)
C31_5 C 0.8584(3) 0.7491(6) 0.9694(4)
C32_5 C 0.8310(3) 0.7231(6) 0.9287(4)
C33_5 C 0.8024(3) 0.6848(6) 0.9464(4)
C34_5 C 0.7692(3) 0.6480(7) 0.9211(4)
C35_5 C 0.7423(3) 0.6220(6) 0.9477(4)
C36_5 C 0.7049(3) 0.5905(6) 0.9320(4)
C37_5 C 0.6903(3) 0.5780(6) 0.9738(4)
C40_5 C 0.8937(3) 0.7911(6) 0.9677(4)
C41_5 C 0.9301(3) 0.7709(6) 0.9963(4)
C42_5 C 0.9629(3) 0.8098(5) 0.9936(3)
C43_5 C 0.9261(3) 0.8863(5) 0.9373(3)
H31_5 H 0.924650 0.926791 0.917100
C44_5 C 0.8923(3) 0.8490(6) 0.9381(4)
H32_5 H 0.867876 0.863527 0.918018
C45_5 C 0.8321(3) 0.7337(7) 0.8758(4)
H33_5 H 0.809911 0.763231 0.859741
H34_5 H 0.830383 0.687788 0.859439
H35_5 H 0.856888 0.756758 0.873978
C46_5 C 0.7799(2) 0.5923(4) 0.8497(3)
H36_5 H 0.796463 0.560091 0.870852
C47_5 C 0.7598(2) 0.6442(5) 0.8690(2)
C48_5 C 0.7356(2) 0.6913(4) 0.8381(3)
H37_5 H 0.721851 0.726827 0.851237
C49_5 C 0.7316(2) 0.6866(5) 0.7880(3)
H38_5 H 0.715065 0.718786 0.766841
C50_5 C 0.7517(3) 0.6347(5) 0.7687(2)
H39_5 H 0.748978 0.631397 0.734450
C51_5 C 0.7759(2) 0.5875(4) 0.7996(3)
H40_5 H 0.789677 0.552049 0.786455
C52_5 C 0.6852(3) 0.5725(7) 0.8803(4)
H41_5 H 0.679160 0.615997 0.861292
H42_5 H 0.660719 0.546808 0.879770
H43_5 H 0.702766 0.543032 0.866182
C53_5 C 0.6519(3) 0.5465(6) 0.9743(4)
C54_5 C 0.6179(3) 0.5654(6) 0.9415(4)
H44_5 H 0.618889 0.600984 0.918146
C55_5 C 0.5823(3) 0.5341(6) 0.9417(4)
H45_5 H 0.559380 0.549206 0.918784
Cd5_2 Cd 0.51912(2) 0.42422(4) 0.96428(2)
S1_6 S 0.59589(8) 0.36853(16) 0.28109(9)
F1_6 F 0.2666(2) 0.4537(4) 0.3862(3)
F2_6 F 0.2340(2) 0.3557(5) 0.3577(3)
F3_6 F 0.2771(2) 0.2148(4) 0.0604(3)
F4_6 F 0.30720(19) 0.1104(4) 0.0624(3)
O1_6 O 0.5953(2) 0.4357(4) 0.3044(2)
O2_6 O 0.6327(2) 0.3314(5) 0.2855(3)
O3_6 O 0.5148(2) 0.1821(4) 0.4267(2)
O4_6 O 0.4964(3) 0.1089(5) 0.3660(3)
O5_4 O 0.51452(19) 0.4688(3) 0.0511(2)
O6_6 O 0.54668(18) 0.3734(3) 0.0386(2)
N1_6 N 0.2860(2) 0.3442(5) 0.4293(3)
N2_6 N 0.2231(3) 0.4029(5) 0.4329(3)
N3_6 N 0.4369(2) 0.1387(4) 0.4515(3)
C1_6 C 0.3143(3) 0.3093(6) 0.4122(4)
C2_6 C 0.3389(3) 0.2746(6) 0.4513(4)
C3_6 C 0.3255(3) 0.2898(6) 0.4936(4)
C4_6 C 0.2924(3) 0.3335(6) 0.4792(4)
C5_5 C 0.2677(3) 0.3643(6) 0.5072(4)
C6_6 C 0.2327(3) 0.3981(6) 0.4825(4)
C7_5 C 0.2020(3) 0.4286(7) 0.5011(4)
C8_6 C 0.1721(3) 0.4478(6) 0.4595(4)
C9_6 C 0.1866(3) 0.4323(7) 0.4181(4)
C10_6 C 0.3176(3) 0.3116(7) 0.3606(4)
H1_6 H 0.298995 0.277993 0.341320
H2_6 H 0.344473 0.299029 0.358762
H3_6 H 0.311496 0.359232 0.347613
C11_6 C 0.3725(3) 0.2290(6) 0.4494(4)
C12_6 C 0.3715(3) 0.1779(6) 0.4143(4)
H4_6 H 0.348868 0.173162 0.388363
C13_6 C 0.4037(3) 0.1332(6) 0.4166(4)
H5_6 H 0.401947 0.097582 0.392519
C14_6 C 0.4382(3) 0.1904(6) 0.4840(4)
H6_5 H 0.461947 0.196366 0.508085
C15_6 C 0.4078(3) 0.2351(6) 0.4849(4)
H7_5 H 0.410574 0.270203 0.509426
C16_5 C 0.3416(3) 0.2585(6) 0.5433(4)
H8_5 H 0.355574 0.214626 0.540028
H9_5 H 0.319808 0.248529 0.558977
H10_5 H 0.359786 0.291968 0.563334
C17_5 C 0.2794(3) 0.3616(7) 0.5595(4)
C18_5 C 0.3109(4) 0.3991(7) 0.5859(4)
H11_5 H 0.324941 0.429146 0.568842
C19_5 C 0.3232(4) 0.3954(7) 0.6363(5)
H12_5 H 0.344093 0.424295 0.653409
C20_5 C 0.3044(4) 0.3483(8) 0.6611(5)
H13_5 H 0.312517 0.344438 0.695546
C21_5 C 0.2746(4) 0.3081(7) 0.6362(5)
H14_5 H 0.262349 0.275412 0.653556
C22_5 C 0.2613(4) 0.3135(7) 0.5854(5)
H15_5 H 0.240191 0.284787 0.568578
C23_5 C 0.1998(3) 0.4388(7) 0.5525(4)
H16_5 H 0.204306 0.393646 0.569783
H17_5 H 0.173764 0.456933 0.553680
H18_5 H 0.220047 0.472648 0.568163
C24_6 C 0.1326(3) 0.4762(6) 0.4596(4)
C25_6 C 0.1269(3) 0.5329(7) 0.4886(4)
H19_5 H 0.148778 0.555281 0.509378
C26_6 C 0.0894(3) 0.5560(6) 0.4869(4)
H20_5 H 0.085910 0.593967 0.507402
C27_6 C 0.0625(3) 0.4730(7) 0.4303(4)
H21_6 H 0.040181 0.451570 0.409782
C28_6 C 0.0995(3) 0.4457(7) 0.4306(4)
H22_6 H 0.102022 0.406124 0.410902
C29_6 C 0.1673(4) 0.4461(8) 0.3665(5)
H23_6 H 0.187072 0.461261 0.348893
H24_6 H 0.147522 0.483326 0.364745
H25_6 H 0.154462 0.402983 0.351541
C30_6 C 0.3460(3) 0.2272(6) 0.0110(4)
C38_6 C 0.2185(3) 0.1021(6) 0.0143(4)
C39_6 C 0.3650(3) 0.2410(6) 0.0629(4)
H26_6 H 0.346745 0.266790 0.078281
H27_6 H 0.388878 0.269205 0.064852
H28_6 H 0.372058 0.196112 0.079912
H29_6 H 0.432325 0.231114 0.017191
H30_6 H 0.487688 0.295793 0.013087
C58_6 C 0.2166(3) 0.1022(6) 0.0659(4)
H48_6 H 0.237018 0.070877 0.084383
H49_6 H 0.190666 0.085635 0.068826
H50_6 H 0.220976 0.150191 0.078936
C59_6 C 0.5645(3) 0.3121(6) 0.3038(4)
C60_6 C 0.5475(3) 0.3353(6) 0.3404(4)
H51_6 H 0.548298 0.383794 0.348931
C61_6 C 0.5291(3) 0.2870(6) 0.3647(4)
H52_6 H 0.518253 0.302869 0.390785
C62_6 C 0.5260(3) 0.2182(6) 0.3524(4)
C63_6 C 0.5404(4) 0.1956(7) 0.3124(4)
H53_6 H 0.536560 0.148300 0.301155
C64_6 C 0.5605(4) 0.2431(6) 0.2894(4)
H54_6 H 0.571568 0.227476 0.263402
C65_6 C 0.5108(3) 0.1663(6) 0.3833(4)
C66_6 C 0.5754(3) 0.3788(6) 0.2182(3)
C67_6 C 0.5519(3) 0.4384(5) 0.2024(3)
H55_6 H 0.545463 0.470329 0.225409
C68_6 C 0.5385(3) 0.4498(5) 0.1533(3)
H56_6 H 0.522494 0.489645 0.142083
C69_6 C 0.5484(3) 0.4036(5) 0.1203(3)
C70_6 C 0.5709(3) 0.3445(6) 0.1359(3)
H57_6 H 0.576896 0.312280 0.112829
C71_6 C 0.5847(3) 0.3325(6) 0.1856(3)
H58_6 H 0.600570 0.292345 0.196754
C72_6 C 0.5353(3) 0.4164(5) 0.0660(3)
B1_6 B 0.2513(4) 0.3870(8) 0.3994(5)
B2_6 B 0.2869(3) 0.1595(6) 0.0293(4)
Cd7_4 Cd 0.48088(2) 0.57578(4) 0.03572(2)
O14_4 O 0.5120(2) 0.1053(4) 0.5321(3)
N5_6 N 0.3122(2) 0.1894(4) 0.9972(3)
N6_6 N 0.2496(2) 0.1291(5) 0.9985(3)
N7_6 N 0.4616(2) 0.3658(4) 0.9652(3)
C31_6 C 0.3584(3) 0.2491(6) 0.9694(4)
C32_6 C 0.3310(3) 0.2231(6) 0.9287(4)
C33_6 C 0.3024(3) 0.1848(6) 0.9464(4)
C34_6 C 0.2692(3) 0.1480(7) 0.9211(4)
C35_6 C 0.2423(3) 0.1220(6) 0.9477(4)
C36_6 C 0.2049(3) 0.0905(6) 0.9320(4)
C37_6 C 0.1903(3) 0.0780(6) 0.9738(4)
C40_6 C 0.3937(3) 0.2911(6) 0.9677(4)
C41_6 C 0.4301(3) 0.2709(6) 0.9963(4)
C42_6 C 0.4629(3) 0.3098(5) 0.9936(3)
C43_6 C 0.4261(3) 0.3863(5) 0.9373(3)
H31_6 H 0.424650 0.426791 0.917100
C44_6 C 0.3923(3) 0.3490(6) 0.9381(4)
H32_6 H 0.367876 0.363527 0.918018
C45_6 C 0.3321(3) 0.2337(7) 0.8758(4)
H33_6 H 0.309911 0.263231 0.859741
H34_6 H 0.330383 0.187788 0.859439
H35_6 H 0.356888 0.256758 0.873978
C46_6 C 0.2799(2) 0.0923(4) 0.8497(3)
H36_6 H 0.296463 0.060091 0.870852
C47_6 C 0.2598(2) 0.1442(5) 0.8690(2)
C48_6 C 0.2356(2) 0.1913(4) 0.8381(3)
H37_6 H 0.221851 0.226827 0.851237
C49_6 C 0.2316(2) 0.1866(5) 0.7880(3)
H38_6 H 0.215065 0.218786 0.766841
C50_6 C 0.2517(3) 0.1347(5) 0.7687(2)
H39_6 H 0.248978 0.131397 0.734450
C51_6 C 0.2759(2) 0.0875(4) 0.7996(3)
H40_6 H 0.289677 0.052049 0.786455
C52_6 C 0.1852(3) 0.0725(7) 0.8803(4)
H41_6 H 0.179160 0.115997 0.861292
H42_6 H 0.160719 0.046808 0.879770
H43_6 H 0.202766 0.043032 0.866182
C53_6 C 0.1519(3) 0.0465(6) 0.9743(4)
C54_6 C 0.1179(3) 0.0654(6) 0.9415(4)
H44_6 H 0.118889 0.100984 0.918146
C55_6 C 0.0823(3) 0.0341(6) 0.9417(4)
H45_6 H 0.059380 0.049206 0.918784
O13_4 O 0.48548(19) 0.5312(3) 0.9489(2)
O15_4 O 0.5455(2) 0.3260(4) 0.9240(2)
O16_4 O 0.5169(2) 0.4163(4) 0.8815(2)
S2_6 S 0.3887(2) 0.7111(4) 0.2798(2)
O7_6 O 0.3516(3) 0.7415(7) 0.2578(4)
O8_6 O 0.3872(4) 0.6476(9) 0.3057(5)
O9_6 O 0.4598(2) 0.9840(4) 0.4212(3)
O10_4 O 0.4880(2) 0.8947(4) 0.4679(3)
O11_4 O 0.4545(2) 0.6740(4) 0.0760(2)
O12_4 O 0.4831(2) 0.5837(4) 0.1185(2)
C56_6 C 0.1123(3) 0.9635(6) 0.0063(4)
H46_6 H 0.110730 0.927399 0.029144
C57_6 C 0.1484(3) 0.9939(6) 0.0080(4)
H47_6 H 0.170861 0.979345 0.031933
C73_6 C 0.4159(4) 0.7749(8) 0.3206(5)
C74_6 C 0.4454(4) 0.7523(7) 0.3564(4)
H59_6 H 0.454262 0.704861 0.357676
C75_6 C 0.4625(4) 0.8004(7) 0.3914(4)
H60_6 H 0.483460 0.785541 0.417374
C76_6 C 0.4502(3) 0.8690(6) 0.3900(4)
C77_6 C 0.4203(4) 0.8915(7) 0.3510(4)
H61_6 H 0.411635 0.939101 0.348782
C78_6 C 0.4034(4) 0.8423(8) 0.3155(5)
H62_6 H 0.383391 0.856117 0.288165
C79_6 C 0.4674(3) 0.9209(6) 0.4293(4)
C80_6 C 0.4135(4) 0.6949(8) 0.2326(5)
C81_6 C 0.4092(4) 0.7375(8) 0.1956(5)
H63_6 H 0.394007 0.779256 0.194814
C82_6 C 0.4269(4) 0.7216(8) 0.1567(5)
H64_6 H 0.424077 0.753348 0.130066
C83_6 C 0.4476(4) 0.6621(7) 0.1571(5)
C84_6 C 0.4497(5) 0.6178(8) 0.1955(5)
H65_6 H 0.462870 0.573946 0.195893
C85_6 C 0.4326(5) 0.6358(8) 0.2348(5)
H66_6 H 0.435000 0.605364 0.262074
C86_6 C 0.4632(4) 0.6394(7) 0.1145(5)
Cd4_4 Cd 0.50583(2) 0.92296(4) 0.54806(2)
N5_7 N 0.1878(2) 0.3106(4) 0.0028(3)
N6_7 N 0.2504(2) 0.3709(5) 0.0015(3)
N7_7 N 0.0384(2) 0.1342(4) 0.0348(3)
N8_4 N 0.4210(2) 0.5178(4) 0.0263(3)
C31_7 C 0.1416(3) 0.2509(6) 0.0306(4)
C32_7 C 0.1690(3) 0.2769(6) 0.0713(4)
C33_7 C 0.1976(3) 0.3152(6) 0.0536(4)
C34_7 C 0.2308(3) 0.3520(7) 0.0789(4)
C35_7 C 0.2577(3) 0.3780(6) 0.0523(4)
C36_7 C 0.2951(3) 0.4095(6) 0.0680(4)
C37_7 C 0.3097(3) 0.4220(6) 0.0262(4)
C40_7 C 0.1063(3) 0.2089(6) 0.0323(4)
C41_7 C 0.0699(3) 0.2291(6) 0.0037(4)
C42_7 C 0.0371(3) 0.1902(5) 0.0064(3)
C43_7 C 0.0739(3) 0.1137(5) 0.0627(3)
H31_7 H 0.075350 0.073209 0.082900
C44_7 C 0.1077(3) 0.1510(6) 0.0619(4)
H32_7 H 0.132124 0.136473 0.081982
C45_7 C 0.1679(3) 0.2663(7) 0.1242(4)
H33_7 H 0.190089 0.236769 0.140259
H34_7 H 0.169617 0.312212 0.140561
H35_7 H 0.143112 0.243242 0.126022
C46_7 C 0.2201(2) 0.4077(4) 0.1503(3)
H36_7 H 0.203537 0.439909 0.129148
C47_7 C 0.2402(2) 0.3558(5) 0.1310(2)
C48_7 C 0.2644(2) 0.3087(4) 0.1619(3)
H37_7 H 0.278149 0.273173 0.148763
C49_7 C 0.2684(2) 0.3134(5) 0.2120(3)
H38_7 H 0.284935 0.281214 0.233159
C50_7 C 0.2483(3) 0.3653(5) 0.2313(2)
H39_7 H 0.251022 0.368603 0.265550
C51_7 C 0.2241(2) 0.4125(4) 0.2004(3)
H40_7 H 0.210323 0.447951 0.213545
C52_7 C 0.3148(3) 0.4275(7) 0.1197(4)
H41_7 H 0.320840 0.384003 0.138708
H42_7 H 0.339281 0.453192 0.120230
H43_7 H 0.297234 0.456968 0.133818
C53_7 C 0.3481(3) 0.4535(6) 0.0257(4)
C54_7 C 0.3821(3) 0.4346(6) 0.0585(4)
H44_7 H 0.381111 0.399016 0.081854
C55_7 C 0.4177(3) 0.4659(6) 0.0583(4)
H45_7 H 0.440620 0.450794 0.081216
S2_7 S 0.1113(2) 0.7889(4) 0.7202(2)
F1_7 F 0.2334(2) 0.0463(4) 0.6138(3)
F2_7 F 0.2660(2) 0.1443(5) 0.6423(3)
F3_7 F 0.2229(2) 0.2852(4) 0.9396(3)
F4_7 F 0.19280(19) 0.3896(4) 0.9376(3)
O4_7 O 0.0036(3) 0.3911(5) 0.6340(3)
O7_7 O 0.1484(3) 0.7585(7) 0.7422(4)
O8_7 O 0.1128(4) 0.8524(9) 0.6943(5)
O9_7 O 0.0402(2) 0.5160(4) 0.5788(3)
N1_7 N 0.2140(2) 0.1558(5) 0.5707(3)
N2_7 N 0.2769(3) 0.0971(5) 0.5671(3)
N3_7 N 0.0631(2) 0.3613(4) 0.5485(3)
C1_7 C 0.1857(3) 0.1907(6) 0.5878(4)
C2_7 C 0.1611(3) 0.2254(6) 0.5487(4)
C3_7 C 0.1745(3) 0.2102(6) 0.5064(4)
C4_7 C 0.2076(3) 0.1665(6) 0.5208(4)
C5_6 C 0.2323(3) 0.1357(6) 0.4928(4)
C6_7 C 0.2673(3) 0.1019(6) 0.5175(4)
C7_6 C 0.2980(3) 0.0714(7) 0.4989(4)
C8_7 C 0.3279(3) 0.0522(6) 0.5405(4)
C9_7 C 0.3134(3) 0.0677(7) 0.5819(4)
C10_7 C 0.1824(3) 0.1884(7) 0.6394(4)
H1_7 H 0.201005 0.222007 0.658680
H2_7 H 0.155527 0.200971 0.641238
H3_7 H 0.188504 0.140768 0.652387
C11_7 C 0.1275(3) 0.2710(6) 0.5506(4)
C12_7 C 0.1285(3) 0.3221(6) 0.5857(4)
H4_7 H 0.151132 0.326838 0.611637
C13_7 C 0.0963(3) 0.3668(6) 0.5834(4)
H5_7 H 0.098053 0.402418 0.607481
C14_7 C 0.0618(3) 0.3096(6) 0.5160(4)
H6_6 H 0.038053 0.303634 0.491915
C15_7 C 0.0922(3) 0.2649(6) 0.5151(4)
H7_6 H 0.089426 0.229797 0.490574
C16_6 C 0.1584(3) 0.2415(6) 0.4567(4)
H8_6 H 0.144426 0.285374 0.459972
H9_6 H 0.180192 0.251471 0.441023
H10_6 H 0.140214 0.208032 0.436666
C17_6 C 0.2206(3) 0.1384(7) 0.4405(4)
C18_6 C 0.1891(4) 0.1009(7) 0.4141(4)
H11_6 H 0.175059 0.070854 0.431158
C19_6 C 0.1768(4) 0.1046(7) 0.3637(5)
H12_6 H 0.155907 0.075705 0.346591
C20_6 C 0.1956(4) 0.1517(8) 0.3389(5)
H13_6 H 0.187483 0.155562 0.304454
C21_6 C 0.2254(4) 0.1919(7) 0.3638(5)
H14_6 H 0.237651 0.224588 0.346444
C22_6 C 0.2387(4) 0.1865(7) 0.4146(5)
H15_6 H 0.259809 0.215213 0.431422
C23_6 C 0.3002(3) 0.0612(7) 0.4475(4)
H16_6 H 0.295694 0.106354 0.430217
H17_6 H 0.326236 0.043067 0.446320
H18_6 H 0.279953 0.027352 0.431837
C24_7 C 0.3674(3) 0.0238(6) 0.5404(4)
C27_7 C 0.4375(3) 0.0270(7) 0.5697(4)
H21_7 H 0.459819 0.048430 0.590218
C28_7 C 0.4005(3) 0.0543(7) 0.5694(4)
H22_7 H 0.397978 0.093876 0.589098
C29_7 C 0.3327(4) 0.0539(8) 0.6335(5)
H23_7 H 0.312928 0.038739 0.651107
H24_7 H 0.352478 0.016674 0.635255
H25_7 H 0.345538 0.097017 0.648459
C30_7 C 0.1540(3) 0.2728(6) 0.9890(4)
C38_7 C 0.2815(3) 0.3979(6) 0.9857(4)
C39_7 C 0.1350(3) 0.2590(6) 0.9371(4)
H26_7 H 0.153255 0.233210 0.921719
H27_7 H 0.111122 0.230795 0.935148
H28_7 H 0.127942 0.303888 0.920088
H29_7 H 0.067675 0.268886 0.982809
H30_7 H 0.012312 0.204207 0.986913
C56_7 C 0.3877(3) 0.5365(6) 0.9937(4)
H46_7 H 0.389270 0.572601 0.970856
C57_7 C 0.3516(3) 0.5061(6) 0.9920(4)
H47_7 H 0.329139 0.520655 0.968067
C58_7 C 0.2834(3) 0.3978(6) 0.9341(4)
H48_7 H 0.262982 0.429123 0.915617
H49_7 H 0.309334 0.414365 0.931174
H50_7 H 0.279024 0.349809 0.921064
C73_7 C 0.0841(4) 0.7251(8) 0.6794(5)
C74_7 C 0.0546(4) 0.7477(7) 0.6436(4)
H59_7 H 0.045738 0.795139 0.642324
C75_7 C 0.0375(4) 0.6996(7) 0.6086(4)
H60_7 H 0.016540 0.714459 0.582626
C76_7 C 0.0498(3) 0.6310(6) 0.6100(4)
C77_7 C 0.0797(4) 0.6085(7) 0.6490(4)
H61_7 H 0.088365 0.560899 0.651218
C78_7 C 0.0966(4) 0.6577(8) 0.6845(5)
H62_7 H 0.116609 0.643883 0.711835
C79_7 C 0.0326(3) 0.5791(6) 0.5707(4)
C80_7 C 0.0865(4) 0.8051(8) 0.7674(5)
C81_7 C 0.0908(4) 0.7625(8) 0.8044(5)
H63_7 H 0.105993 0.720744 0.805186
C82_7 C 0.0731(4) 0.7784(8) 0.8433(5)
H64_7 H 0.075923 0.746652 0.869934
C83_7 C 0.0524(4) 0.8379(7) 0.8429(5)
C84_7 C 0.0503(5) 0.8822(8) 0.8045(5)
H65_7 H 0.037130 0.926054 0.804107
C85_7 C 0.0674(5) 0.8642(8) 0.7652(5)
H66_7 H 0.065000 0.894636 0.737926
C86_7 C 0.0368(4) 0.8606(7) 0.8855(5)
B1_7 B 0.2487(4) 0.1130(8) 0.6006(5)
B2_7 B 0.2131(3) 0.3405(6) 0.9707(4)
N4_4 N 0.4430(2) 0.9730(5) 0.5429(3)
C25_7 C 0.3731(3) 0.9671(7) 0.5114(4)
H19_6 H 0.351222 0.944719 0.490622
C26_7 C 0.4106(3) 0.9440(6) 0.5131(4)
H20_6 H 0.414090 0.906033 0.492598
N10_4 N 0.9210(2) 0.0178(4) 0.0263(3)
S1_7 S 0.90411(8) 0.13147(16) 0.71891(9)
O1_7 O 0.9047(2) 0.0643(4) 0.6956(2)
O2_7 O 0.8673(2) 0.1686(5) 0.7145(3)
O3_7 O 0.9852(2) 0.3179(4) 0.5733(2)
O6_7 O 0.95332(18) 0.1266(3) 0.9614(2)
C59_7 C 0.9355(3) 0.1879(6) 0.6962(4)
C60_7 C 0.9525(3) 0.1647(6) 0.6596(4)
H51_7 H 0.951702 0.116206 0.651069
C61_7 C 0.9709(3) 0.2130(6) 0.6353(4)
H52_7 H 0.981747 0.197131 0.609215
C62_7 C 0.9740(3) 0.2818(6) 0.6476(4)
C63_7 C 0.9596(4) 0.3044(7) 0.6876(4)
H53_7 H 0.963440 0.351700 0.698845
C64_7 C 0.9395(4) 0.2569(6) 0.7106(4)
H54_7 H 0.928432 0.272524 0.736598
C65_7 C 0.9892(3) 0.3337(6) 0.6167(4)
C66_7 C 0.9246(3) 0.1212(6) 0.7818(3)
C67_7 C 0.9481(3) 0.0616(5) 0.7976(3)
H55_7 H 0.954537 0.029671 0.774591
C68_7 C 0.9615(3) 0.0502(5) 0.8467(3)
H56_7 H 0.977506 0.010355 0.857917
C69_7 C 0.9516(3) 0.0964(5) 0.8797(3)
C70_7 C 0.9291(3) 0.1555(6) 0.8641(3)
H57_7 H 0.923104 0.187720 0.887171
C71_7 C 0.9153(3) 0.1675(6) 0.8144(3)
H58_7 H 0.899430 0.207655 0.803246
C72_7 C 0.9647(3) 0.0836(5) 0.9340(3)
N9_4 N 0.9430(2) 0.4730(5) 0.5429(3)
S2_8 S 0.6113(2) 0.2889(4) 0.7202(2)
O7_8 O 0.6484(3) 0.2585(7) 0.7422(4)
O8_8 O 0.6128(4) 0.3524(9) 0.6943(5)
O9_8 O 0.5402(2) 0.0160(4) 0.5788(3)
C56_8 C 0.8877(3) 0.0365(6) 0.9937(4)
H46_8 H 0.889270 0.072601 0.970856
C57_8 C 0.8516(3) 0.0061(6) 0.9920(4)
H47_8 H 0.829139 0.020655 0.968067
C73_8 C 0.5841(4) 0.2251(8) 0.6794(5)
C74_8 C 0.5546(4) 0.2477(7) 0.6436(4)
H59_8 H 0.545738 0.295139 0.642324
C75_8 C 0.5375(4) 0.1996(7) 0.6086(4)
H60_8 H 0.516540 0.214459 0.582626
C76_8 C 0.5498(3) 0.1310(6) 0.6100(4)
C77_8 C 0.5797(4) 0.1085(7) 0.6490(4)
H61_8 H 0.588365 0.060899 0.651218
C78_8 C 0.5966(4) 0.1577(8) 0.6845(5)
H62_8 H 0.616609 0.143883 0.711835
C79_8 C 0.5326(3) 0.0791(6) 0.5707(4)
C80_8 C 0.5865(4) 0.3051(8) 0.7674(5)
C81_8 C 0.5908(4) 0.2625(8) 0.8044(5)
H63_8 H 0.605993 0.220744 0.805186
C82_8 C 0.5731(4) 0.2784(8) 0.8433(5)
H64_8 H 0.575923 0.246652 0.869934
C83_8 C 0.5524(4) 0.3379(7) 0.8429(5)
C84_8 C 0.5503(5) 0.3822(8) 0.8045(5)
H65_8 H 0.537130 0.426054 0.804107
C85_8 C 0.5674(5) 0.3642(8) 0.7652(5)
H66_8 H 0.565000 0.394636 0.737926
C86_8 C 0.5368(4) 0.3606(7) 0.8855(5)
N5_8 N 0.6878(2) 0.8106(4) 0.0028(3)
N6_8 N 0.7504(2) 0.8709(5) 0.0015(3)
N7_8 N 0.5384(2) 0.6342(4) 0.0348(3)
C31_8 C 0.6416(3) 0.7509(6) 0.0306(4)
C32_8 C 0.6690(3) 0.7769(6) 0.0713(4)
C33_8 C 0.6976(3) 0.8152(6) 0.0536(4)
C34_8 C 0.7308(3) 0.8520(7) 0.0789(4)
C35_8 C 0.7577(3) 0.8780(6) 0.0523(4)
C36_8 C 0.7951(3) 0.9095(6) 0.0680(4)
C37_8 C 0.8097(3) 0.9220(6) 0.0262(4)
C40_8 C 0.6063(3) 0.7089(6) 0.0323(4)
C41_8 C 0.5699(3) 0.7291(6) 0.0037(4)
C42_8 C 0.5371(3) 0.6902(5) 0.0064(3)
C43_8 C 0.5739(3) 0.6137(5) 0.0627(3)
H31_8 H 0.575350 0.573209 0.082900
C44_8 C 0.6077(3) 0.6510(6) 0.0619(4)
H32_8 H 0.632124 0.636473 0.081982
C45_8 C 0.6679(3) 0.7663(7) 0.1242(4)
H33_8 H 0.690089 0.736769 0.140259
H34_8 H 0.669617 0.812212 0.140561
H35_8 H 0.643112 0.743242 0.126022
C46_8 C 0.7201(2) 0.9077(4) 0.1503(3)
H36_8 H 0.703537 0.939909 0.129148
C47_8 C 0.7402(2) 0.8558(5) 0.1310(2)
C48_8 C 0.7644(2) 0.8087(4) 0.1619(3)
H37_8 H 0.778149 0.773173 0.148763
C49_8 C 0.7684(2) 0.8134(5) 0.2120(3)
H38_8 H 0.784935 0.781214 0.233159
C50_8 C 0.7483(3) 0.8653(5) 0.2313(2)
H39_8 H 0.751022 0.868603 0.265550
C51_8 C 0.7241(2) 0.9125(4) 0.2004(3)
H40_8 H 0.710323 0.947951 0.213545
C52_8 C 0.8148(3) 0.9275(7) 0.1197(4)
H41_8 H 0.820840 0.884003 0.138708
H42_8 H 0.839281 0.953192 0.120230
H43_8 H 0.797234 0.956968 0.133818
C53_8 C 0.8481(3) 0.9535(6) 0.0257(4)
C54_8 C 0.8821(3) 0.9346(6) 0.0585(4)
H44_8 H 0.881111 0.899016 0.081854
C55_8 C 0.9177(3) 0.9659(6) 0.0583(4)
H45_8 H 0.940620 0.950794 0.081216
S1_8 S 0.40411(8) 0.63147(16) 0.71891(9)
F1_8 F 0.7334(2) 0.5463(4) 0.6138(3)
F2_8 F 0.7660(2) 0.6443(5) 0.6423(3)
F3_8 F 0.7229(2) 0.7852(4) 0.9396(3)
F4_8 F 0.69280(19) 0.8896(4) 0.9376(3)
O1_8 O 0.4047(2) 0.5643(4) 0.6956(2)
O2_8 O 0.3673(2) 0.6686(5) 0.7145(3)
O3_8 O 0.4852(2) 0.8179(4) 0.5733(2)
O4_8 O 0.5036(3) 0.8911(5) 0.6340(3)
O6_8 O 0.45332(18) 0.6266(3) 0.9614(2)
N1_8 N 0.7140(2) 0.6558(5) 0.5707(3)
N2_8 N 0.7769(3) 0.5971(5) 0.5671(3)
N3_8 N 0.5631(2) 0.8613(4) 0.5485(3)
C1_8 C 0.6857(3) 0.6907(6) 0.5878(4)
C2_8 C 0.6611(3) 0.7254(6) 0.5487(4)
C3_8 C 0.6745(3) 0.7102(6) 0.5064(4)
C4_8 C 0.7076(3) 0.6665(6) 0.5208(4)
C5_7 C 0.7323(3) 0.6357(6) 0.4928(4)
C6_8 C 0.7673(3) 0.6019(6) 0.5175(4)
C7_7 C 0.7980(3) 0.5714(7) 0.4989(4)
C8_8 C 0.8279(3) 0.5522(6) 0.5405(4)
C9_8 C 0.8134(3) 0.5677(7) 0.5819(4)
C10_8 C 0.6824(3) 0.6884(7) 0.6394(4)
H1_8 H 0.701005 0.722007 0.658680
H2_8 H 0.655527 0.700971 0.641238
H3_8 H 0.688504 0.640768 0.652387
C11_8 C 0.6275(3) 0.7710(6) 0.5506(4)
C12_8 C 0.6285(3) 0.8221(6) 0.5857(4)
H4_8 H 0.651132 0.826838 0.611637
C13_8 C 0.5963(3) 0.8668(6) 0.5834(4)
H5_8 H 0.598053 0.902418 0.607481
C14_8 C 0.5618(3) 0.8096(6) 0.5160(4)
H6_7 H 0.538053 0.803634 0.491915
C15_8 C 0.5922(3) 0.7649(6) 0.5151(4)
H7_7 H 0.589426 0.729797 0.490574
C16_7 C 0.6584(3) 0.7415(6) 0.4567(4)
H8_7 H 0.644426 0.785374 0.459972
H9_7 H 0.680192 0.751471 0.441023
H10_7 H 0.640214 0.708032 0.436666
C17_7 C 0.7206(3) 0.6384(7) 0.4405(4)
C18_7 C 0.6891(4) 0.6009(7) 0.4141(4)
H11_7 H 0.675059 0.570854 0.431158
C19_7 C 0.6768(4) 0.6046(7) 0.3637(5)
H12_7 H 0.655907 0.575705 0.346591
C20_7 C 0.6956(4) 0.6517(8) 0.3389(5)
H13_7 H 0.687483 0.655562 0.304454
C21_7 C 0.7254(4) 0.6919(7) 0.3638(5)
H14_7 H 0.737651 0.724588 0.346444
C22_7 C 0.7387(4) 0.6865(7) 0.4146(5)
H15_7 H 0.759809 0.715213 0.431422
C23_7 C 0.8002(3) 0.5612(7) 0.4475(4)
H16_7 H 0.795694 0.606354 0.430217
H17_7 H 0.826236 0.543067 0.446320
H18_7 H 0.779953 0.527352 0.431837
C24_8 C 0.8674(3) 0.5238(6) 0.5404(4)
C25_8 C 0.8731(3) 0.4671(7) 0.5114(4)
H19_7 H 0.851222 0.444719 0.490622
C26_8 C 0.9106(3) 0.4440(6) 0.5131(4)
H20_7 H 0.914090 0.406033 0.492598
C27_8 C 0.9375(3) 0.5270(7) 0.5697(4)
H21_8 H 0.959819 0.548430 0.590218
C28_8 C 0.9005(3) 0.5543(7) 0.5694(4)
H22_8 H 0.897978 0.593876 0.589098
C29_8 C 0.8327(4) 0.5539(8) 0.6335(5)
H23_8 H 0.812928 0.538739 0.651107
H24_8 H 0.852478 0.516674 0.635255
H25_8 H 0.845538 0.597017 0.648459
C30_8 C 0.6540(3) 0.7728(6) 0.9890(4)
C38_8 C 0.7815(3) 0.8979(6) 0.9857(4)
C39_8 C 0.6350(3) 0.7590(6) 0.9371(4)
H26_8 H 0.653255 0.733210 0.921719
H27_8 H 0.611122 0.730795 0.935148
H28_8 H 0.627942 0.803888 0.920088
H29_8 H 0.567675 0.768886 0.982809
H30_8 H 0.512312 0.704207 0.986913
C58_8 C 0.7834(3) 0.8978(6) 0.9341(4)
H48_8 H 0.762982 0.929123 0.915617
H49_8 H 0.809334 0.914365 0.931174
H50_8 H 0.779024 0.849809 0.921064
C59_8 C 0.4355(3) 0.6879(6) 0.6962(4)
C60_8 C 0.4525(3) 0.6647(6) 0.6596(4)
H51_8 H 0.451702 0.616206 0.651069
C61_8 C 0.4709(3) 0.7130(6) 0.6353(4)
H52_8 H 0.481747 0.697131 0.609215
C62_8 C 0.4740(3) 0.7818(6) 0.6476(4)
C63_8 C 0.4596(4) 0.8044(7) 0.6876(4)
H53_8 H 0.463440 0.851700 0.698845
C64_8 C 0.4395(4) 0.7569(6) 0.7106(4)
H54_8 H 0.428432 0.772524 0.736598
C65_8 C 0.4892(3) 0.8337(6) 0.6167(4)
C66_8 C 0.4246(3) 0.6212(6) 0.7818(3)
C67_8 C 0.4481(3) 0.5616(5) 0.7976(3)
H55_8 H 0.454537 0.529671 0.774591
C68_8 C 0.4615(3) 0.5502(5) 0.8467(3)
H56_8 H 0.477506 0.510355 0.857917
C69_8 C 0.4516(3) 0.5964(5) 0.8797(3)
C70_8 C 0.4291(3) 0.6555(6) 0.8641(3)
H57_8 H 0.423104 0.687720 0.887171
C71_8 C 0.4153(3) 0.6675(6) 0.8144(3)
H58_8 H 0.399430 0.707655 0.803246
C72_8 C 0.4647(3) 0.5836(5) 0.9340(3)
B1_8 B 0.7487(4) 0.6130(8) 0.6006(5)
B2_8 B 0.7131(3) 0.8405(6) 0.9707(4)
C5_8 C 0.7677(3) 0.1357(6) 0.0072(4)
C7_8 C 0.7020(3) 0.0714(7) 0.0011(4)
H6_8 H 0.961947 0.303634 0.008085
H7_8 H 0.910574 0.229797 0.009426
C16_8 C 0.8416(3) 0.2415(6) 0.0433(4)
H8_8 H 0.855574 0.285374 0.040028
H9_8 H 0.819808 0.251471 0.058977
H10_8 H 0.859786 0.208032 0.063334
C17_8 C 0.7794(3) 0.1384(7) 0.0595(4)
C18_8 C 0.8109(4) 0.1009(7) 0.0859(4)
H11_8 H 0.824941 0.070854 0.068842
C19_8 C 0.8232(4) 0.1046(7) 0.1363(5)
H12_8 H 0.844093 0.075705 0.153409
C20_8 C 0.8044(4) 0.1517(8) 0.1611(5)
H13_8 H 0.812517 0.155562 0.195546
C21_8 C 0.7746(4) 0.1919(7) 0.1362(5)
H14_8 H 0.762349 0.224588 0.153556
C22_8 C 0.7613(4) 0.1865(7) 0.0854(5)
H15_8 H 0.740191 0.215213 0.068578
C23_8 C 0.6998(3) 0.0612(7) 0.0525(4)
H16_8 H 0.704306 0.106354 0.069783
H17_8 H 0.673764 0.043067 0.053680
H18_8 H 0.720047 0.027352 0.068163
H19_8 H 0.648778 0.944719 0.009378
H20_8 H 0.585910 0.906033 0.007402
loop_
_geom_bond_atom_site_label_1
_geom_bond_atom_site_label_2
_geom_bond_site_symmetry_1
_geom_bond_site_symmetry_2
N4 C26 1_555 1_555
C26 C25 1_555 1_555
Cd3 N4 1_555 1_555
Cd7 O13 1_555 1_555
S2 O7 1_555 1_555
F1 B1 1_555 1_555
F2 B1 1_555 1_555
F3 B2 1_555 1_555
F4 B2 1_555 1_555
O4 Cd1 1_555 1_555
O8 S2 1_555 1_555
O9 Cd1 1_555 1_555
O10 C79 1_555 1_555
O11 C86 1_555 1_555
O12 C86 1_555 1_555
N1 C1 1_555 1_555
N2 C6 1_555 1_555
N3 Cd1 1_555 1_555
N5 C30 1_555 1_555
N6 C35 1_555 1_555
N8 C55 1_555 1_555
C1 C2 1_555 1_555
C2 C3 1_555 1_555
C3 C4 1_555 1_555
C4 N1 1_555 1_555
C9 N2 1_555 1_555
C10 C1 1_555 1_555
H1 C10 1_555 1_555
H2 C10 1_555 1_555
H3 C10 1_555 1_555
C11 C2 1_555 1_555
C12 C11 1_555 1_555
H4 C12 1_555 1_555
C13 N3 1_555 1_555
H5 C13 1_555 1_555
C14 N3 1_555 1_555
C15 C11 1_555 1_555
C24 C8 1_555 1_555
H21 C27 1_555 1_555
C28 C24 1_555 1_555
H22 C28 1_555 1_555
C29 C9 1_555 1_555
H23 C29 1_555 1_555
H24 C29 1_555 1_555
H25 C29 1_555 1_555
C30 C31 1_555 1_555
C31 C32 1_555 1_555
C32 C33 1_555 1_555
C33 N5 1_555 1_555
C34 C33 1_555 1_555
C35 C34 1_555 1_555
C36 C35 1_555 1_555
C37 C36 1_555 1_555
C38 N6 1_555 1_555
C39 C30 1_555 1_555
H26 C39 1_555 1_555
H27 C39 1_555 1_555
H28 C39 1_555 1_555
C40 C31 1_555 1_555
C41 C40 1_555 1_555
H29 C41 1_555 1_555
C42 N7 1_555 1_555
H30 C42 1_555 1_555
C43 N7 1_555 1_555
H31 C43 1_555 1_555
C44 C40 1_555 1_555
H32 C44 1_555 1_555
C45 C32 1_555 1_555
H33 C45 1_555 1_555
H34 C45 1_555 1_555
H35 C45 1_555 1_555
C46 H36 1_555 1_555
C47 C34 1_555 1_555
C48 C47 1_555 1_555
H37 C48 1_555 1_555
C49 C48 1_555 1_555
H38 C49 1_555 1_555
C50 C49 1_555 1_555
H39 C50 1_555 1_555
C51 C46 1_555 1_555
H40 C51 1_555 1_555
C52 C36 1_555 1_555
H41 C52 1_555 1_555
H42 C52 1_555 1_555
H43 C52 1_555 1_555
C53 C37 1_555 1_555
C54 C53 1_555 1_555
H44 C54 1_555 1_555
C55 C54 1_555 1_555
H45 C55 1_555 1_555
C56 N8 1_555 1_555
H46 C56 1_555 1_555
C57 C53 1_555 1_555
H47 C57 1_555 1_555
C58 C38 1_555 1_555
H48 C58 1_555 1_555
H49 C58 1_555 1_555
H50 C58 1_555 1_555
C73 S2 1_555 1_555
C74 C73 1_555 1_555
H59 C74 1_555 1_555
C75 C74 1_555 1_555
H60 C75 1_555 1_555
C76 C75 1_555 1_555
C77 C76 1_555 1_555
H61 C77 1_555 1_555
C78 C73 1_555 1_555
H62 C78 1_555 1_555
C79 O9 1_555 1_555
C80 S2 1_555 1_555
C81 C80 1_555 1_555
H63 C81 1_555 1_555
C82 C81 1_555 1_555
H64 C82 1_555 1_555
C83 C82 1_555 1_555
C84 C83 1_555 1_555
H65 C84 1_555 1_555
C85 C80 1_555 1_555
H66 C85 1_555 1_555
C86 C83 1_555 1_555
B1 N1 1_555 1_555
B2 N5 1_555 1_555
Cd5 N8 1_555 1_555
Cd7 O11 1_555 1_555
O12 Cd7 1_555 1_555
N2 B1 1_555 1_555
N6 B2 1_555 1_555
C8 C9 1_555 1_555
C12 C13 1_555 1_555
C14 C15 1_555 1_555
C27 C28 1_555 1_555
C37 C38 1_555 1_555
C41 C42 1_555 1_555
C43 C44 1_555 1_555
C46 C47 1_555 1_555
C50 C51 1_555 1_555
C56 C57 1_555 1_555
C76 C79 1_555 1_555
C77 C78 1_555 1_555
C84 C85 1_555 1_555
Cd2 O5 1_555 1_555
S1 O1 1_555 1_555
O2 S1 1_555 1_555
O3 C65 1_555 1_555
O5 C72 1_555 1_555
O6 Cd2 1_555 1_555
C59 S1 1_555 1_555
C60 C59 1_555 1_555
H51 C60 1_555 1_555
C61 C60 1_555 1_555
H52 C61 1_555 1_555
C62 C61 1_555 1_555
C63 C62 1_555 1_555
H53 C63 1_555 1_555
C64 C59 1_555 1_555
H54 C64 1_555 1_555
C66 S1 1_555 1_555
C67 C66 1_555 1_555
H55 C67 1_555 1_555
C68 C67 1_555 1_555
H56 C68 1_555 1_555
C69 C68 1_555 1_555
C70 C69 1_555 1_555
H57 C70 1_555 1_555
C71 C66 1_555 1_555
H58 C71 1_555 1_555
C72 O6 1_555 1_555
O15 Cd2 1_555 1_555
O16 Cd2 1_555 1_555
N10 Cd2 1_555 1_555
C62 C65 1_555 1_555
C63 C64 1_555 1_555
C69 C72 1_555 1_555
C70 C71 1_555 1_555
Cd3 O3_2 1_555 1_555
Cd5 O5_2 1_555 1_555
S1_2 O1_2 1_555 1_555
F1_2 B1_2 1_555 1_555
F2_2 B1_2 1_555 1_555
F3_2 B2_2 1_555 1_555
F4_2 B2_2 1_555 1_555
O2_2 S1_2 1_555 1_555
O3_2 C65_2 1_555 1_555
O4_2 Cd3 1_555 1_555
O5_2 C72_2 1_555 1_555
O6_2 Cd5 1_555 1_555
N1_2 C1_2 1_555 1_555
N2_2 C6_2 1_555 1_555
N3_2 Cd3 1_555 1_555
N9 C26_2 1_555 1_555
N5_2 C30_2 1_555 1_555
N6_2 C35_2 1_555 1_555
N7_2 Cd5 1_555 1_555
C1_2 C2_2 1_555 1_555
C2_2 C3_2 1_555 1_555
C3_2 C4_2 1_555 1_555
C4_2 N1_2 1_555 1_555
C9_2 N2_2 1_555 1_555
C10_2 C1_2 1_555 1_555
H1_2 C10_2 1_555 1_555
H2_2 C10_2 1_555 1_555
H3_2 C10_2 1_555 1_555
C11_2 C2_2 1_555 1_555
C12_2 C11_2 1_555 1_555
H4_2 C12_2 1_555 1_555
C13_2 N3_2 1_555 1_555
H5_2 C13_2 1_555 1_555
C14_2 N3_2 1_555 1_555
C15_2 C11_2 1_555 1_555
C24_2 C8_2 1_555 1_555
C25_2 C24_2 1_555 1_555
C26_2 C25_2 1_555 1_555
C27_2 N9 1_555 1_555
H21_2 C27_2 1_555 1_555
C28_2 C24_2 1_555 1_555
H22_2 C28_2 1_555 1_555
C29_2 C9_2 1_555 1_555
H23_2 C29_2 1_555 1_555
H24_2 C29_2 1_555 1_555
H25_2 C29_2 1_555 1_555
C30_2 C31_2 1_555 1_555
C31_2 C32_2 1_555 1_555
C32_2 C33_2 1_555 1_555
C33_2 N5_2 1_555 1_555
C34_2 C33_2 1_555 1_555
C35_2 C34_2 1_555 1_555
C36_2 C35_2 1_555 1_555
C37_2 C36_2 1_555 1_555
C38_2 N6_2 1_555 1_555
C39_2 C30_2 1_555 1_555
H26_2 C39_2 1_555 1_555
H27_2 C39_2 1_555 1_555
H28_2 C39_2 1_555 1_555
C40_2 C31_2 1_555 1_555
C41_2 C40_2 1_555 1_555
H29_2 C41_2 1_555 1_555
C42_2 N7_2 1_555 1_555
H30_2 C42_2 1_555 1_555
C43_2 N7_2 1_555 1_555
H31_2 C43_2 1_555 1_555
C44_2 C40_2 1_555 1_555
H32_2 C44_2 1_555 1_555
C45_2 C32_2 1_555 1_555
H33_2 C45_2 1_555 1_555
H34_2 C45_2 1_555 1_555
H35_2 C45_2 1_555 1_555
C46_2 H36_2 1_555 1_555
C47_2 C34_2 1_555 1_555
C48_2 C47_2 1_555 1_555
H37_2 C48_2 1_555 1_555
C49_2 C48_2 1_555 1_555
H38_2 C49_2 1_555 1_555
C50_2 C49_2 1_555 1_555
H39_2 C50_2 1_555 1_555
C51_2 C46_2 1_555 1_555
H40_2 C51_2 1_555 1_555
C52_2 C36_2 1_555 1_555
H41_2 C52_2 1_555 1_555
H42_2 C52_2 1_555 1_555
H43_2 C52_2 1_555 1_555
C53_2 C37_2 1_555 1_555
C54_2 C53_2 1_555 1_555
H44_2 C54_2 1_555 1_555
C55_2 C54_2 1_555 1_555
H45_2 C55_2 1_555 1_555
C58_2 C38_2 1_555 1_555
H48_2 C58_2 1_555 1_555
H49_2 C58_2 1_555 1_555
H50_2 C58_2 1_555 1_555
C59_2 S1_2 1_555 1_555
C60_2 C59_2 1_555 1_555
H51_2 C60_2 1_555 1_555
C61_2 C60_2 1_555 1_555
H52_2 C61_2 1_555 1_555
C62_2 C61_2 1_555 1_555
C63_2 C62_2 1_555 1_555
H53_2 C63_2 1_555 1_555
C64_2 C59_2 1_555 1_555
H54_2 C64_2 1_555 1_555
C65_2 O4_2 1_555 1_555
C66_2 S1_2 1_555 1_555
C67_2 C66_2 1_555 1_555
H55_2 C67_2 1_555 1_555
C68_2 C67_2 1_555 1_555
H56_2 C68_2 1_555 1_555
C69_2 C68_2 1_555 1_555
C70_2 C69_2 1_555 1_555
H57_2 C70_2 1_555 1_555
C71_2 C66_2 1_555 1_555
H58_2 C71_2 1_555 1_555
C72_2 O6_2 1_555 1_555
B1_2 N1_2 1_555 1_555
B2_2 N5_2 1_555 1_555
Cd7_2 O5_2 1_555 1_555
O13_2 Cd5 1_555 1_555
O15_2 Cd5 1_555 1_555
O16_2 Cd5 1_555 1_555
N2_2 B1_2 1_555 1_555
N6_2 B2_2 1_555 1_555
C8_2 C9_2 1_555 1_555
C12_2 C13_2 1_555 1_555
C14_2 C15_2 1_555 1_555
C27_2 C28_2 1_555 1_555
C37_2 C38_2 1_555 1_555
C41_2 C42_2 1_555 1_555
C43_2 C44_2 1_555 1_555
C46_2 C47_2 1_555 1_555
C50_2 C51_2 1_555 1_555
C62_2 C65_2 1_555 1_555
C63_2 C64_2 1_555 1_555
C69_2 C72_2 1_555 1_555
C70_2 C71_2 1_555 1_555
Cd7_2 O13_2 1_555 1_555
H8 C16 1_555 1_555
H9 C16 1_555 1_555
H10 C16 1_555 1_555
C17 C5 1_555 1_555
C18 C17 1_555 1_555
H11 C18 1_555 1_555
C19 C18 1_555 1_555
H12 C19 1_555 1_555
C20 C19 1_555 1_555
H13 C20 1_555 1_555
C21 C20 1_555 1_555
H14 C21 1_555 1_555
C22 C17 1_555 1_555
H15 C22 1_555 1_555
C23 C7 1_555 1_555
H16 C23 1_555 1_555
H17 C23 1_555 1_555
H18 C23 1_555 1_555
C21 C22 1_555 1_555
S2_2 O7_2 1_555 1_555
O8_2 S2_2 1_555 1_555
O10_2 C79_2 1_555 1_555
O11_2 C86_2 1_555 1_555
O12_2 C86_2 1_555 1_555
C56_2 N10 1_555 1_555
H46_2 C56_2 1_555 1_555
H47_2 C57_2 1_555 1_555
C73_2 S2_2 1_555 1_555
C74_2 C73_2 1_555 1_555
H59_2 C74_2 1_555 1_555
C75_2 C74_2 1_555 1_555
H60_2 C75_2 1_555 1_555
C76_2 C75_2 1_555 1_555
C77_2 C76_2 1_555 1_555
H61_2 C77_2 1_555 1_555
C78_2 C73_2 1_555 1_555
H62_2 C78_2 1_555 1_555
C79_2 O9_2 1_555 1_555
C80_2 S2_2 1_555 1_555
C81_2 C80_2 1_555 1_555
H63_2 C81_2 1_555 1_555
C82_2 C81_2 1_555 1_555
H64_2 C82_2 1_555 1_555
C83_2 C82_2 1_555 1_555
C84_2 C83_2 1_555 1_555
H65_2 C84_2 1_555 1_555
C85_2 C80_2 1_555 1_555
H66_2 C85_2 1_555 1_555
C86_2 C83_2 1_555 1_555
Cd7_2 O11_2 1_555 1_555
O12_2 Cd7_2 1_555 1_555
C56_2 C57_2 1_555 1_555
C76_2 C79_2 1_555 1_555
C77_2 C78_2 1_555 1_555
C84_2 C85_2 1_555 1_555
S1_3 O1_3 1_555 1_555
O2_3 S1_3 1_555 1_555
O3_3 C65_3 1_555 1_555
O13 C72_3 1_555 1_555
O6_3 Cd7 1_555 1_555
C59_3 S1_3 1_555 1_555
C60_3 C59_3 1_555 1_555
H51_3 C60_3 1_555 1_555
C61_3 C60_3 1_555 1_555
H52_3 C61_3 1_555 1_555
C62_3 C61_3 1_555 1_555
C63_3 C62_3 1_555 1_555
H53_3 C63_3 1_555 1_555
C64_3 C59_3 1_555 1_555
H54_3 C64_3 1_555 1_555
C66_3 S1_3 1_555 1_555
C67_3 C66_3 1_555 1_555
H55_3 C67_3 1_555 1_555
C68_3 C67_3 1_555 1_555
H56_3 C68_3 1_555 1_555
C69_3 C68_3 1_555 1_555
C70_3 C69_3 1_555 1_555
H57_3 C70_3 1_555 1_555
C71_3 C66_3 1_555 1_555
H58_3 C71_3 1_555 1_555
C72_3 O6_3 1_555 1_555
N10_2 Cd7 1_555 1_555
C62_3 C65_3 1_555 1_555
C63_3 C64_3 1_555 1_555
C69_3 C72_3 1_555 1_555
C70_3 C71_3 1_555 1_555
S2_3 O7_3 1_555 1_555
F1_3 B1_3 1_555 1_555
F2_3 B1_3 1_555 1_555
F3_3 B2_3 1_555 1_555
F4_3 B2_3 1_555 1_555
O4_3 Cd4 1_555 1_555
O8_3 S2_3 1_555 1_555
O9_3 Cd4 1_555 1_555
O14 C79_3 1_555 1_555
O15 C86_3 1_555 1_555
O16 C86_3 1_555 1_555
N1_3 C1_3 1_555 1_555
N2_3 C6_3 1_555 1_555
N3_3 Cd4 1_555 1_555
N5_3 C30_3 1_555 1_555
N6_3 C35_3 1_555 1_555
N8_2 C55_3 1_555 1_555
C1_3 C2_3 1_555 1_555
C2_3 C3_3 1_555 1_555
C3_3 C4_3 1_555 1_555
C4_3 N1_3 1_555 1_555
C9_3 N2_3 1_555 1_555
C10_3 C1_3 1_555 1_555
H1_3 C10_3 1_555 1_555
H2_3 C10_3 1_555 1_555
H3_3 C10_3 1_555 1_555
C11_3 C2_3 1_555 1_555
C12_3 C11_3 1_555 1_555
H4_3 C12_3 1_555 1_555
C13_3 N3_3 1_555 1_555
H5_3 C13_3 1_555 1_555
C14_3 N3_3 1_555 1_555
C15_3 C11_3 1_555 1_555
C24_3 C8_3 1_555 1_555
H21_3 C27_3 1_555 1_555
C28_3 C24_3 1_555 1_555
H22_3 C28_3 1_555 1_555
C29_3 C9_3 1_555 1_555
H23_3 C29_3 1_555 1_555
H24_3 C29_3 1_555 1_555
H25_3 C29_3 1_555 1_555
C30_3 C31_3 1_555 1_555
C31_3 C32_3 1_555 1_555
C32_3 C33_3 1_555 1_555
C33_3 N5_3 1_555 1_555
C34_3 C33_3 1_555 1_555
C35_3 C34_3 1_555 1_555
C36_3 C35_3 1_555 1_555
C37_3 C36_3 1_555 1_555
C38_3 N6_3 1_555 1_555
C39_3 C30_3 1_555 1_555
H26_3 C39_3 1_555 1_555
H27_3 C39_3 1_555 1_555
H28_3 C39_3 1_555 1_555
C40_3 C31_3 1_555 1_555
C41_3 C40_3 1_555 1_555
H29_3 C41_3 1_555 1_555
C42_3 N7_3 1_555 1_555
H30_3 C42_3 1_555 1_555
C43_3 N7_3 1_555 1_555
H31_3 C43_3 1_555 1_555
C44_3 C40_3 1_555 1_555
H32_3 C44_3 1_555 1_555
C45_3 C32_3 1_555 1_555
H33_3 C45_3 1_555 1_555
H34_3 C45_3 1_555 1_555
H35_3 C45_3 1_555 1_555
C46_3 H36_3 1_555 1_555
C47_3 C34_3 1_555 1_555
C48_3 C47_3 1_555 1_555
H37_3 C48_3 1_555 1_555
C49_3 C48_3 1_555 1_555
H38_3 C49_3 1_555 1_555
C50_3 C49_3 1_555 1_555
H39_3 C50_3 1_555 1_555
C51_3 C46_3 1_555 1_555
H40_3 C51_3 1_555 1_555
C52_3 C36_3 1_555 1_555
H41_3 C52_3 1_555 1_555
H42_3 C52_3 1_555 1_555
H43_3 C52_3 1_555 1_555
C53_3 C37_3 1_555 1_555
C54_3 C53_3 1_555 1_555
H44_3 C54_3 1_555 1_555
C55_3 C54_3 1_555 1_555
H45_3 C55_3 1_555 1_555
C56_3 N8_2 1_555 1_555
H46_3 C56_3 1_555 1_555
C57_3 C53_3 1_555 1_555
H47_3 C57_3 1_555 1_555
C58_3 C38_3 1_555 1_555
H48_3 C58_3 1_555 1_555
H49_3 C58_3 1_555 1_555
H50_3 C58_3 1_555 1_555
C73_3 S2_3 1_555 1_555
C74_3 C73_3 1_555 1_555
H59_3 C74_3 1_555 1_555
C75_3 C74_3 1_555 1_555
H60_3 C75_3 1_555 1_555
C76_3 C75_3 1_555 1_555
C77_3 C76_3 1_555 1_555
H61_3 C77_3 1_555 1_555
C78_3 C73_3 1_555 1_555
H62_3 C78_3 1_555 1_555
C79_3 O9_3 1_555 1_555
C80_3 S2_3 1_555 1_555
C81_3 C80_3 1_555 1_555
H63_3 C81_3 1_555 1_555
C82_3 C81_3 1_555 1_555
H64_3 C82_3 1_555 1_555
C83_3 C82_3 1_555 1_555
C84_3 C83_3 1_555 1_555
H65_3 C84_3 1_555 1_555
C85_3 C80_3 1_555 1_555
H66_3 C85_3 1_555 1_555
C86_3 C83_3 1_555 1_555
B1_3 N1_3 1_555 1_555
B2_3 N5_3 1_555 1_555
Cd7_2 N8_2 1_555 1_555
N2_3 B1_3 1_555 1_555
N6_3 B2_3 1_555 1_555
C8_3 C9_3 1_555 1_555
C12_3 C13_3 1_555 1_555
C14_3 C15_3 1_555 1_555
C27_3 C28_3 1_555 1_555
C37_3 C38_3 1_555 1_555
C41_3 C42_3 1_555 1_555
C43_3 C44_3 1_555 1_555
C46_3 C47_3 1_555 1_555
C50_3 C51_3 1_555 1_555
C56_3 C57_3 1_555 1_555
C76_3 C79_3 1_555 1_555
C77_3 C78_3 1_555 1_555
C84_3 C85_3 1_555 1_555
N4_2 C26_3 1_555 1_555
C26_3 C25_3 1_555 1_555
Cd4_2 N4_2 1_555 1_555
S2_4 O7_4 1_555 1_555
O8_4 S2_4 1_555 1_555
O14_2 C79_4 1_555 1_555
O15_2 C86_4 1_555 1_555
O16_2 C86_4 1_555 1_555
C56_4 N10_2 1_555 1_555
H46_4 C56_4 1_555 1_555
H47_4 C57_4 1_555 1_555
C73_4 S2_4 1_555 1_555
C74_4 C73_4 1_555 1_555
H59_4 C74_4 1_555 1_555
C75_4 C74_4 1_555 1_555
H60_4 C75_4 1_555 1_555
C76_4 C75_4 1_555 1_555
C77_4 C76_4 1_555 1_555
H61_4 C77_4 1_555 1_555
C78_4 C73_4 1_555 1_555
H62_4 C78_4 1_555 1_555
C79_4 O9_4 1_555 1_555
C80_4 S2_4 1_555 1_555
C81_4 C80_4 1_555 1_555
H63_4 C81_4 1_555 1_555
C82_4 C81_4 1_555 1_555
H64_4 C82_4 1_555 1_555
C83_4 C82_4 1_555 1_555
C84_4 C83_4 1_555 1_555
H65_4 C84_4 1_555 1_555
C85_4 C80_4 1_555 1_555
H66_4 C85_4 1_555 1_555
C86_4 C83_4 1_555 1_555
C56_4 C57_4 1_555 1_555
C76_4 C79_4 1_555 1_555
C77_4 C78_4 1_555 1_555
C84_4 C85_4 1_555 1_555
H8_2 C16_2 1_555 1_555
H9_2 C16_2 1_555 1_555
H10_2 C16_2 1_555 1_555
C17_2 C5_2 1_555 1_555
C18_2 C17_2 1_555 1_555
H11_2 C18_2 1_555 1_555
C19_2 C18_2 1_555 1_555
H12_2 C19_2 1_555 1_555
C20_2 C19_2 1_555 1_555
H13_2 C20_2 1_555 1_555
C21_2 C20_2 1_555 1_555
H14_2 C21_2 1_555 1_555
C22_2 C17_2 1_555 1_555
H15_2 C22_2 1_555 1_555
C23_2 C7_2 1_555 1_555
H16_2 C23_2 1_555 1_555
H17_2 C23_2 1_555 1_555
H18_2 C23_2 1_555 1_555
C21_2 C22_2 1_555 1_555
Cd4_2 O3_4 1_555 1_555
S1_4 O1_4 1_555 1_555
F1_4 B1_4 1_555 1_555
F2_4 B1_4 1_555 1_555
F3_4 B2_4 1_555 1_555
F4_4 B2_4 1_555 1_555
O2_4 S1_4 1_555 1_555
O3_4 C65_4 1_555 1_555
O4_4 Cd4_2 1_555 1_555
O13_2 C72_4 1_555 1_555
O6_4 Cd7_2 1_555 1_555
N1_4 C1_4 1_555 1_555
N2_4 C6_4 1_555 1_555
N3_4 Cd4_2 1_555 1_555
N9_2 C26_4 1_555 1_555
N5_4 C30_4 1_555 1_555
N6_4 C35_4 1_555 1_555
N7_4 Cd7_2 1_555 1_555
C1_4 C2_4 1_555 1_555
C2_4 C3_4 1_555 1_555
C3_4 C4_4 1_555 1_555
C4_4 N1_4 1_555 1_555
C9_4 N2_4 1_555 1_555
C10_4 C1_4 1_555 1_555
H1_4 C10_4 1_555 1_555
H2_4 C10_4 1_555 1_555
H3_4 C10_4 1_555 1_555
C11_4 C2_4 1_555 1_555
C12_4 C11_4 1_555 1_555
H4_4 C12_4 1_555 1_555
C13_4 N3_4 1_555 1_555
H5_4 C13_4 1_555 1_555
C14_4 N3_4 1_555 1_555
C15_4 C11_4 1_555 1_555
C24_4 C8_4 1_555 1_555
C25_4 C24_4 1_555 1_555
C26_4 C25_4 1_555 1_555
C27_4 N9_2 1_555 1_555
H21_4 C27_4 1_555 1_555
C28_4 C24_4 1_555 1_555
H22_4 C28_4 1_555 1_555
C29_4 C9_4 1_555 1_555
H23_4 C29_4 1_555 1_555
H24_4 C29_4 1_555 1_555
H25_4 C29_4 1_555 1_555
C30_4 C31_4 1_555 1_555
C31_4 C32_4 1_555 1_555
C32_4 C33_4 1_555 1_555
C33_4 N5_4 1_555 1_555
C34_4 C33_4 1_555 1_555
C35_4 C34_4 1_555 1_555
C36_4 C35_4 1_555 1_555
C37_4 C36_4 1_555 1_555
C38_4 N6_4 1_555 1_555
C39_4 C30_4 1_555 1_555
H26_4 C39_4 1_555 1_555
H27_4 C39_4 1_555 1_555
H28_4 C39_4 1_555 1_555
C40_4 C31_4 1_555 1_555
C41_4 C40_4 1_555 1_555
H29_4 C41_4 1_555 1_555
C42_4 N7_4 1_555 1_555
H30_4 C42_4 1_555 1_555
C43_4 N7_4 1_555 1_555
H31_4 C43_4 1_555 1_555
C44_4 C40_4 1_555 1_555
H32_4 C44_4 1_555 1_555
C45_4 C32_4 1_555 1_555
H33_4 C45_4 1_555 1_555
H34_4 C45_4 1_555 1_555
H35_4 C45_4 1_555 1_555
C46_4 H36_4 1_555 1_555
C47_4 C34_4 1_555 1_555
C48_4 C47_4 1_555 1_555
H37_4 C48_4 1_555 1_555
C49_4 C48_4 1_555 1_555
H38_4 C49_4 1_555 1_555
C50_4 C49_4 1_555 1_555
H39_4 C50_4 1_555 1_555
C51_4 C46_4 1_555 1_555
H40_4 C51_4 1_555 1_555
C52_4 C36_4 1_555 1_555
H41_4 C52_4 1_555 1_555
H42_4 C52_4 1_555 1_555
H43_4 C52_4 1_555 1_555
C53_4 C37_4 1_555 1_555
C54_4 C53_4 1_555 1_555
H44_4 C54_4 1_555 1_555
C55_4 C54_4 1_555 1_555
H45_4 C55_4 1_555 1_555
C58_4 C38_4 1_555 1_555
H48_4 C58_4 1_555 1_555
H49_4 C58_4 1_555 1_555
H50_4 C58_4 1_555 1_555
C59_4 S1_4 1_555 1_555
C60_4 C59_4 1_555 1_555
H51_4 C60_4 1_555 1_555
C61_4 C60_4 1_555 1_555
H52_4 C61_4 1_555 1_555
C62_4 C61_4 1_555 1_555
C63_4 C62_4 1_555 1_555
H53_4 C63_4 1_555 1_555
C64_4 C59_4 1_555 1_555
H54_4 C64_4 1_555 1_555
C65_4 O4_4 1_555 1_555
C66_4 S1_4 1_555 1_555
C67_4 C66_4 1_555 1_555
H55_4 C67_4 1_555 1_555
C68_4 C67_4 1_555 1_555
H56_4 C68_4 1_555 1_555
C69_4 C68_4 1_555 1_555
C70_4 C69_4 1_555 1_555
H57_4 C70_4 1_555 1_555
C71_4 C66_4 1_555 1_555
H58_4 C71_4 1_555 1_555
C72_4 O6_4 1_555 1_555
B1_4 N1_4 1_555 1_555
B2_4 N5_4 1_555 1_555
N2_4 B1_4 1_555 1_555
N6_4 B2_4 1_555 1_555
C8_4 C9_4 1_555 1_555
C12_4 C13_4 1_555 1_555
C14_4 C15_4 1_555 1_555
C27_4 C28_4 1_555 1_555
C37_4 C38_4 1_555 1_555
C41_4 C42_4 1_555 1_555
C43_4 C44_4 1_555 1_555
C46_4 C47_4 1_555 1_555
C50_4 C51_4 1_555 1_555
C62_4 C65_4 1_555 1_555
C63_4 C64_4 1_555 1_555
C69_4 C72_4 1_555 1_555
C70_4 C71_4 1_555 1_555
H8_3 C16_3 1_555 1_555
H9_3 C16_3 1_555 1_555
H10_3 C16_3 1_555 1_555
C17_3 C5_3 1_555 1_555
C18_3 C17_3 1_555 1_555
H11_3 C18_3 1_555 1_555
C19_3 C18_3 1_555 1_555
H12_3 C19_3 1_555 1_555
C20_3 C19_3 1_555 1_555
H13_3 C20_3 1_555 1_555
C21_3 C20_3 1_555 1_555
H14_3 C21_3 1_555 1_555
C22_3 C17_3 1_555 1_555
H15_3 C22_3 1_555 1_555
C23_3 C7_3 1_555 1_555
H16_3 C23_3 1_555 1_555
H17_3 C23_3 1_555 1_555
H18_3 C23_3 1_555 1_555
C21_3 C22_3 1_555 1_555
S1_5 O1_5 1_555 1_555
O2_5 S1_5 1_555 1_555
O3_5 C65_5 1_555 1_555
O5_3 C72_5 1_555 1_555
C59_5 S1_5 1_555 1_555
C60_5 C59_5 1_555 1_555
H51_5 C60_5 1_555 1_555
C61_5 C60_5 1_555 1_555
H52_5 C61_5 1_555 1_555
C62_5 C61_5 1_555 1_555
C63_5 C62_5 1_555 1_555
H53_5 C63_5 1_555 1_555
C64_5 C59_5 1_555 1_555
H54_5 C64_5 1_555 1_555
C66_5 S1_5 1_555 1_555
C67_5 C66_5 1_555 1_555
H55_5 C67_5 1_555 1_555
C68_5 C67_5 1_555 1_555
H56_5 C68_5 1_555 1_555
C69_5 C68_5 1_555 1_555
C70_5 C69_5 1_555 1_555
H57_5 C70_5 1_555 1_555
C71_5 C66_5 1_555 1_555
H58_5 C71_5 1_555 1_555
C72_5 O6_5 1_555 1_555
C62_5 C65_5 1_555 1_555
C63_5 C64_5 1_555 1_555
C69_5 C72_5 1_555 1_555
C70_5 C71_5 1_555 1_555
O15_3 Cd2_2 1_555 1_555
O16_3 Cd2_2 1_555 1_555
N10_3 Cd2_2 1_555 1_555
N4_3 C26_5 1_555 1_555
H19_4 C25_5 1_555 1_555
C26_5 C25_5 1_555 1_555
H20_4 C26_5 1_555 1_555
Cd3_2 N4_3 1_555 1_555
S2_5 O7_5 1_555 1_555
F1_5 B1_5 1_555 1_555
F2_5 B1_5 1_555 1_555
F3_5 B2_5 1_555 1_555
F4_5 B2_5 1_555 1_555
O4_5 Cd1_2 1_555 1_555
O8_5 S2_5 1_555 1_555
O9_5 Cd1_2 1_555 1_555
O10_3 C79_5 1_555 1_555
O11_3 C86_5 1_555 1_555
O12_3 C86_5 1_555 1_555
N1_5 C1_5 1_555 1_555
N2_5 C6_5 1_555 1_555
N3_5 Cd1_2 1_555 1_555
C1_5 C2_5 1_555 1_555
C2_5 C3_5 1_555 1_555
C3_5 C4_5 1_555 1_555
C4_5 N1_5 1_555 1_555
C5_4 C4_5 1_555 1_555
C6_5 C5_4 1_555 1_555
C7_4 C6_5 1_555 1_555
C8_5 C7_4 1_555 1_555
C9_5 N2_5 1_555 1_555
C10_5 C1_5 1_555 1_555
H1_5 C10_5 1_555 1_555
H2_5 C10_5 1_555 1_555
H3_5 C10_5 1_555 1_555
C11_5 C2_5 1_555 1_555
C12_5 C11_5 1_555 1_555
H4_5 C12_5 1_555 1_555
C13_5 N3_5 1_555 1_555
H5_5 C13_5 1_555 1_555
C14_5 N3_5 1_555 1_555
H6_4 C14_5 1_555 1_555
C15_5 C11_5 1_555 1_555
H7_4 C15_5 1_555 1_555
C16_4 C3_5 1_555 1_555
H8_4 C16_4 1_555 1_555
H9_4 C16_4 1_555 1_555
H10_4 C16_4 1_555 1_555
C17_4 C5_4 1_555 1_555
C18_4 C17_4 1_555 1_555
H11_4 C18_4 1_555 1_555
C19_4 C18_4 1_555 1_555
H12_4 C19_4 1_555 1_555
C20_4 C19_4 1_555 1_555
H13_4 C20_4 1_555 1_555
C21_4 C20_4 1_555 1_555
H14_4 C21_4 1_555 1_555
C22_4 C17_4 1_555 1_555
H15_4 C22_4 1_555 1_555
C23_4 C7_4 1_555 1_555
H16_4 C23_4 1_555 1_555
H17_4 C23_4 1_555 1_555
H18_4 C23_4 1_555 1_555
C24_5 C8_5 1_555 1_555
H21_5 C27_5 1_555 1_555
C28_5 C24_5 1_555 1_555
H22_5 C28_5 1_555 1_555
C29_5 C9_5 1_555 1_555
H23_5 C29_5 1_555 1_555
H24_5 C29_5 1_555 1_555
H25_5 C29_5 1_555 1_555
C39_5 C30_5 1_555 1_555
H26_5 C39_5 1_555 1_555
H27_5 C39_5 1_555 1_555
H28_5 C39_5 1_555 1_555
H46_5 C56_5 1_555 1_555
H47_5 C57_5 1_555 1_555
C58_5 C38_5 1_555 1_555
H48_5 C58_5 1_555 1_555
H49_5 C58_5 1_555 1_555
H50_5 C58_5 1_555 1_555
C73_5 S2_5 1_555 1_555
C74_5 C73_5 1_555 1_555
H59_5 C74_5 1_555 1_555
C75_5 C74_5 1_555 1_555
H60_5 C75_5 1_555 1_555
C76_5 C75_5 1_555 1_555
C77_5 C76_5 1_555 1_555
H61_5 C77_5 1_555 1_555
C78_5 C73_5 1_555 1_555
H62_5 C78_5 1_555 1_555
C79_5 O9_5 1_555 1_555
C80_5 S2_5 1_555 1_555
C81_5 C80_5 1_555 1_555
H63_5 C81_5 1_555 1_555
C82_5 C81_5 1_555 1_555
H64_5 C82_5 1_555 1_555
C83_5 C82_5 1_555 1_555
C84_5 C83_5 1_555 1_555
H65_5 C84_5 1_555 1_555
C85_5 C80_5 1_555 1_555
H66_5 C85_5 1_555 1_555
C86_5 C83_5 1_555 1_555
B1_5 N1_5 1_555 1_555
Cd7_3 O11_3 1_555 1_555
O12_3 Cd7_3 1_555 1_555
N2_5 B1_5 1_555 1_555
C8_5 C9_5 1_555 1_555
C12_5 C13_5 1_555 1_555
C14_5 C15_5 1_555 1_555
C21_4 C22_4 1_555 1_555
C27_5 C28_5 1_555 1_555
C56_5 C57_5 1_555 1_555
C76_5 C79_5 1_555 1_555
C77_5 C78_5 1_555 1_555
C84_5 C85_5 1_555 1_555
N6_5 C35_5 1_555 1_555
N8_3 C55_5 1_555 1_555
C31_5 C32_5 1_555 1_555
C32_5 C33_5 1_555 1_555
C33_5 N5_5 1_555 1_555
C34_5 C33_5 1_555 1_555
C35_5 C34_5 1_555 1_555
C36_5 C35_5 1_555 1_555
C37_5 C36_5 1_555 1_555
C40_5 C31_5 1_555 1_555
C41_5 C40_5 1_555 1_555
C42_5 N7_5 1_555 1_555
C43_5 N7_5 1_555 1_555
H31_5 C43_5 1_555 1_555
C44_5 C40_5 1_555 1_555
H32_5 C44_5 1_555 1_555
C45_5 C32_5 1_555 1_555
H33_5 C45_5 1_555 1_555
H34_5 C45_5 1_555 1_555
H35_5 C45_5 1_555 1_555
C46_5 H36_5 1_555 1_555
C47_5 C34_5 1_555 1_555
C48_5 C47_5 1_555 1_555
H37_5 C48_5 1_555 1_555
C49_5 C48_5 1_555 1_555
H38_5 C49_5 1_555 1_555
C50_5 C49_5 1_555 1_555
H39_5 C50_5 1_555 1_555
C51_5 C46_5 1_555 1_555
H40_5 C51_5 1_555 1_555
C52_5 C36_5 1_555 1_555
H41_5 C52_5 1_555 1_555
H42_5 C52_5 1_555 1_555
H43_5 C52_5 1_555 1_555
C53_5 C37_5 1_555 1_555
C54_5 C53_5 1_555 1_555
H44_5 C54_5 1_555 1_555
C55_5 C54_5 1_555 1_555
H45_5 C55_5 1_555 1_555
Cd5_2 N8_3 1_555 1_555
C41_5 C42_5 1_555 1_555
C43_5 C44_5 1_555 1_555
C46_5 C47_5 1_555 1_555
C50_5 C51_5 1_555 1_555
Cd3_2 O3_6 1_555 1_555
S1_6 O1_6 1_555 1_555
F1_6 B1_6 1_555 1_555
F2_6 B1_6 1_555 1_555
F3_6 B2_6 1_555 1_555
F4_6 B2_6 1_555 1_555
O2_6 S1_6 1_555 1_555
O3_6 C65_6 1_555 1_555
O4_6 Cd3_2 1_555 1_555
O5_4 C72_6 1_555 1_555
N1_6 C1_6 1_555 1_555
N2_6 C6_6 1_555 1_555
N3_6 Cd3_2 1_555 1_555
N9_3 C26_6 1_555 1_555
C1_6 C2_6 1_555 1_555
C2_6 C3_6 1_555 1_555
C3_6 C4_6 1_555 1_555
C4_6 N1_6 1_555 1_555
C5_5 C4_6 1_555 1_555
C6_6 C5_5 1_555 1_555
C7_5 C6_6 1_555 1_555
C8_6 C7_5 1_555 1_555
C9_6 N2_6 1_555 1_555
C10_6 C1_6 1_555 1_555
H1_6 C10_6 1_555 1_555
H2_6 C10_6 1_555 1_555
H3_6 C10_6 1_555 1_555
C11_6 C2_6 1_555 1_555
C12_6 C11_6 1_555 1_555
H4_6 C12_6 1_555 1_555
C13_6 N3_6 1_555 1_555
H5_6 C13_6 1_555 1_555
C14_6 N3_6 1_555 1_555
H6_5 C14_6 1_555 1_555
C15_6 C11_6 1_555 1_555
H7_5 C15_6 1_555 1_555
C16_5 C3_6 1_555 1_555
H8_5 C16_5 1_555 1_555
H9_5 C16_5 1_555 1_555
H10_5 C16_5 1_555 1_555
C17_5 C5_5 1_555 1_555
C18_5 C17_5 1_555 1_555
H11_5 C18_5 1_555 1_555
C19_5 C18_5 1_555 1_555
H12_5 C19_5 1_555 1_555
C20_5 C19_5 1_555 1_555
H13_5 C20_5 1_555 1_555
C21_5 C20_5 1_555 1_555
H14_5 C21_5 1_555 1_555
C22_5 C17_5 1_555 1_555
H15_5 C22_5 1_555 1_555
C23_5 C7_5 1_555 1_555
H16_5 C23_5 1_555 1_555
H17_5 C23_5 1_555 1_555
H18_5 C23_5 1_555 1_555
C24_6 C8_6 1_555 1_555
C25_6 C24_6 1_555 1_555
H19_5 C25_6 1_555 1_555
C26_6 C25_6 1_555 1_555
H20_5 C26_6 1_555 1_555
C27_6 N9_3 1_555 1_555
H21_6 C27_6 1_555 1_555
C28_6 C24_6 1_555 1_555
H22_6 C28_6 1_555 1_555
C29_6 C9_6 1_555 1_555
H23_6 C29_6 1_555 1_555
H24_6 C29_6 1_555 1_555
H25_6 C29_6 1_555 1_555
C39_6 C30_6 1_555 1_555
H26_6 C39_6 1_555 1_555
H27_6 C39_6 1_555 1_555
H28_6 C39_6 1_555 1_555
C58_6 C38_6 1_555 1_555
H48_6 C58_6 1_555 1_555
H49_6 C58_6 1_555 1_555
H50_6 C58_6 1_555 1_555
C59_6 S1_6 1_555 1_555
C60_6 C59_6 1_555 1_555
H51_6 C60_6 1_555 1_555
C61_6 C60_6 1_555 1_555
H52_6 C61_6 1_555 1_555
C62_6 C61_6 1_555 1_555
C63_6 C62_6 1_555 1_555
H53_6 C63_6 1_555 1_555
C64_6 C59_6 1_555 1_555
H54_6 C64_6 1_555 1_555
C65_6 O4_6 1_555 1_555
C66_6 S1_6 1_555 1_555
C67_6 C66_6 1_555 1_555
H55_6 C67_6 1_555 1_555
C68_6 C67_6 1_555 1_555
H56_6 C68_6 1_555 1_555
C69_6 C68_6 1_555 1_555
C70_6 C69_6 1_555 1_555
H57_6 C70_6 1_555 1_555
C71_6 C66_6 1_555 1_555
H58_6 C71_6 1_555 1_555
C72_6 O6_6 1_555 1_555
B1_6 N1_6 1_555 1_555
Cd7_4 O5_4 1_555 1_555
O14_4 Cd3_2 1_555 1_555
N2_6 B1_6 1_555 1_555
C8_6 C9_6 1_555 1_555
C12_6 C13_6 1_555 1_555
C14_6 C15_6 1_555 1_555
C21_5 C22_5 1_555 1_555
C27_6 C28_6 1_555 1_555
C62_6 C65_6 1_555 1_555
C63_6 C64_6 1_555 1_555
C69_6 C72_6 1_555 1_555
C70_6 C71_6 1_555 1_555
N6_6 C35_6 1_555 1_555
N7_6 Cd5_2 1_555 1_555
C31_6 C32_6 1_555 1_555
C32_6 C33_6 1_555 1_555
C33_6 N5_6 1_555 1_555
C34_6 C33_6 1_555 1_555
C35_6 C34_6 1_555 1_555
C36_6 C35_6 1_555 1_555
C37_6 C36_6 1_555 1_555
C40_6 C31_6 1_555 1_555
C41_6 C40_6 1_555 1_555
C42_6 N7_6 1_555 1_555
C43_6 N7_6 1_555 1_555
H31_6 C43_6 1_555 1_555
C44_6 C40_6 1_555 1_555
H32_6 C44_6 1_555 1_555
C45_6 C32_6 1_555 1_555
H33_6 C45_6 1_555 1_555
H34_6 C45_6 1_555 1_555
H35_6 C45_6 1_555 1_555
C46_6 H36_6 1_555 1_555
C47_6 C34_6 1_555 1_555
C48_6 C47_6 1_555 1_555
H37_6 C48_6 1_555 1_555
C49_6 C48_6 1_555 1_555
H38_6 C49_6 1_555 1_555
C50_6 C49_6 1_555 1_555
H39_6 C50_6 1_555 1_555
C51_6 C46_6 1_555 1_555
H40_6 C51_6 1_555 1_555
C52_6 C36_6 1_555 1_555
H41_6 C52_6 1_555 1_555
H42_6 C52_6 1_555 1_555
H43_6 C52_6 1_555 1_555
C53_6 C37_6 1_555 1_555
C54_6 C53_6 1_555 1_555
H44_6 C54_6 1_555 1_555
C55_6 C54_6 1_555 1_555
H45_6 C55_6 1_555 1_555
O13_4 Cd5_2 1_555 1_555
O15_4 Cd5_2 1_555 1_555
O16_4 Cd5_2 1_555 1_555
C41_6 C42_6 1_555 1_555
C43_6 C44_6 1_555 1_555
C46_6 C47_6 1_555 1_555
C50_6 C51_6 1_555 1_555
S2_6 O7_6 1_555 1_555
O8_6 S2_6 1_555 1_555
O10_4 C79_6 1_555 1_555
O11_4 C86_6 1_555 1_555
O12_4 C86_6 1_555 1_555
H46_6 C56_6 1_555 1_555
H47_6 C57_6 1_555 1_555
C73_6 S2_6 1_555 1_555
C74_6 C73_6 1_555 1_555
H59_6 C74_6 1_555 1_555
C75_6 C74_6 1_555 1_555
H60_6 C75_6 1_555 1_555
C76_6 C75_6 1_555 1_555
C77_6 C76_6 1_555 1_555
H61_6 C77_6 1_555 1_555
C78_6 C73_6 1_555 1_555
H62_6 C78_6 1_555 1_555
C79_6 O9_6 1_555 1_555
C80_6 S2_6 1_555 1_555
C81_6 C80_6 1_555 1_555
H63_6 C81_6 1_555 1_555
C82_6 C81_6 1_555 1_555
H64_6 C82_6 1_555 1_555
C83_6 C82_6 1_555 1_555
C84_6 C83_6 1_555 1_555
H65_6 C84_6 1_555 1_555
C85_6 C80_6 1_555 1_555
H66_6 C85_6 1_555 1_555
C86_6 C83_6 1_555 1_555
Cd4_4 O10_4 1_555 1_555
Cd7_4 O11_4 1_555 1_555
O12_4 Cd7_4 1_555 1_555
C56_6 C57_6 1_555 1_555
C76_6 C79_6 1_555 1_555
C77_6 C78_6 1_555 1_555
C84_6 C85_6 1_555 1_555
N6_7 C35_7 1_555 1_555
N8_4 C55_7 1_555 1_555
C31_7 C32_7 1_555 1_555
C32_7 C33_7 1_555 1_555
C33_7 N5_7 1_555 1_555
C34_7 C33_7 1_555 1_555
C35_7 C34_7 1_555 1_555
C36_7 C35_7 1_555 1_555
C37_7 C36_7 1_555 1_555
C40_7 C31_7 1_555 1_555
C41_7 C40_7 1_555 1_555
C42_7 N7_7 1_555 1_555
C43_7 N7_7 1_555 1_555
H31_7 C43_7 1_555 1_555
C44_7 C40_7 1_555 1_555
H32_7 C44_7 1_555 1_555
C45_7 C32_7 1_555 1_555
H33_7 C45_7 1_555 1_555
H34_7 C45_7 1_555 1_555
H35_7 C45_7 1_555 1_555
C46_7 H36_7 1_555 1_555
C47_7 C34_7 1_555 1_555
C48_7 C47_7 1_555 1_555
H37_7 C48_7 1_555 1_555
C49_7 C48_7 1_555 1_555
H38_7 C49_7 1_555 1_555
C50_7 C49_7 1_555 1_555
H39_7 C50_7 1_555 1_555
C51_7 C46_7 1_555 1_555
H40_7 C51_7 1_555 1_555
C52_7 C36_7 1_555 1_555
H41_7 C52_7 1_555 1_555
H42_7 C52_7 1_555 1_555
H43_7 C52_7 1_555 1_555
C53_7 C37_7 1_555 1_555
C54_7 C53_7 1_555 1_555
H44_7 C54_7 1_555 1_555
C55_7 C54_7 1_555 1_555
H45_7 C55_7 1_555 1_555
Cd7_4 N8_4 1_555 1_555
C41_7 C42_7 1_555 1_555
C43_7 C44_7 1_555 1_555
C46_7 C47_7 1_555 1_555
C50_7 C51_7 1_555 1_555
S2_7 O7_7 1_555 1_555
F1_7 B1_7 1_555 1_555
F2_7 B1_7 1_555 1_555
F3_7 B2_7 1_555 1_555
F4_7 B2_7 1_555 1_555
O4_7 Cd4_3 1_555 1_555
O8_7 S2_7 1_555 1_555
O9_7 Cd4_3 1_555 1_555
O14_3 C79_7 1_555 1_555
O15_3 C86_7 1_555 1_555
O16_3 C86_7 1_555 1_555
N1_7 C1_7 1_555 1_555
N2_7 C6_7 1_555 1_555
N3_7 Cd4_3 1_555 1_555
C1_7 C2_7 1_555 1_555
C2_7 C3_7 1_555 1_555
C3_7 C4_7 1_555 1_555
C4_7 N1_7 1_555 1_555
C5_6 C4_7 1_555 1_555
C6_7 C5_6 1_555 1_555
C7_6 C6_7 1_555 1_555
C8_7 C7_6 1_555 1_555
C9_7 N2_7 1_555 1_555
C10_7 C1_7 1_555 1_555
H1_7 C10_7 1_555 1_555
H2_7 C10_7 1_555 1_555
H3_7 C10_7 1_555 1_555
C11_7 C2_7 1_555 1_555
C12_7 C11_7 1_555 1_555
H4_7 C12_7 1_555 1_555
C13_7 N3_7 1_555 1_555
H5_7 C13_7 1_555 1_555
C14_7 N3_7 1_555 1_555
H6_6 C14_7 1_555 1_555
C15_7 C11_7 1_555 1_555
H7_6 C15_7 1_555 1_555
C16_6 C3_7 1_555 1_555
H8_6 C16_6 1_555 1_555
H9_6 C16_6 1_555 1_555
H10_6 C16_6 1_555 1_555
C17_6 C5_6 1_555 1_555
C18_6 C17_6 1_555 1_555
H11_6 C18_6 1_555 1_555
C19_6 C18_6 1_555 1_555
H12_6 C19_6 1_555 1_555
C20_6 C19_6 1_555 1_555
H13_6 C20_6 1_555 1_555
C21_6 C20_6 1_555 1_555
H14_6 C21_6 1_555 1_555
C22_6 C17_6 1_555 1_555
H15_6 C22_6 1_555 1_555
C23_6 C7_6 1_555 1_555
H16_6 C23_6 1_555 1_555
H17_6 C23_6 1_555 1_555
H18_6 C23_6 1_555 1_555
C24_7 C8_7 1_555 1_555
H21_7 C27_7 1_555 1_555
C28_7 C24_7 1_555 1_555
H22_7 C28_7 1_555 1_555
C29_7 C9_7 1_555 1_555
H23_7 C29_7 1_555 1_555
H24_7 C29_7 1_555 1_555
H25_7 C29_7 1_555 1_555
C39_7 C30_7 1_555 1_555
H26_7 C39_7 1_555 1_555
H27_7 C39_7 1_555 1_555
H28_7 C39_7 1_555 1_555
H46_7 C56_7 1_555 1_555
H47_7 C57_7 1_555 1_555
C58_7 C38_7 1_555 1_555
H48_7 C58_7 1_555 1_555
H49_7 C58_7 1_555 1_555
H50_7 C58_7 1_555 1_555
C73_7 S2_7 1_555 1_555
C74_7 C73_7 1_555 1_555
H59_7 C74_7 1_555 1_555
C75_7 C74_7 1_555 1_555
H60_7 C75_7 1_555 1_555
C76_7 C75_7 1_555 1_555
C77_7 C76_7 1_555 1_555
H61_7 C77_7 1_555 1_555
C78_7 C73_7 1_555 1_555
H62_7 C78_7 1_555 1_555
C79_7 O9_7 1_555 1_555
C80_7 S2_7 1_555 1_555
C81_7 C80_7 1_555 1_555
H63_7 C81_7 1_555 1_555
C82_7 C81_7 1_555 1_555
H64_7 C82_7 1_555 1_555
C83_7 C82_7 1_555 1_555
C84_7 C83_7 1_555 1_555
H65_7 C84_7 1_555 1_555
C85_7 C80_7 1_555 1_555
H66_7 C85_7 1_555 1_555
C86_7 C83_7 1_555 1_555
B1_7 N1_7 1_555 1_555
N2_7 B1_7 1_555 1_555
C8_7 C9_7 1_555 1_555
C12_7 C13_7 1_555 1_555
C14_7 C15_7 1_555 1_555
C21_6 C22_6 1_555 1_555
C27_7 C28_7 1_555 1_555
C56_7 C57_7 1_555 1_555
C76_7 C79_7 1_555 1_555
C77_7 C78_7 1_555 1_555
C84_7 C85_7 1_555 1_555
N4_4 C26_7 1_555 1_555
H19_6 C25_7 1_555 1_555
C26_7 C25_7 1_555 1_555
H20_6 C26_7 1_555 1_555
Cd4_4 N4_4 1_555 1_555
N10_4 Cd7_3 1_555 1_555
S1_7 O1_7 1_555 1_555
O2_7 S1_7 1_555 1_555
O3_7 C65_7 1_555 1_555
O13_3 C72_7 1_555 1_555
C59_7 S1_7 1_555 1_555
C60_7 C59_7 1_555 1_555
H51_7 C60_7 1_555 1_555
C61_7 C60_7 1_555 1_555
H52_7 C61_7 1_555 1_555
C62_7 C61_7 1_555 1_555
C63_7 C62_7 1_555 1_555
H53_7 C63_7 1_555 1_555
C64_7 C59_7 1_555 1_555
H54_7 C64_7 1_555 1_555
C66_7 S1_7 1_555 1_555
C67_7 C66_7 1_555 1_555
H55_7 C67_7 1_555 1_555
C68_7 C67_7 1_555 1_555
H56_7 C68_7 1_555 1_555
C69_7 C68_7 1_555 1_555
C70_7 C69_7 1_555 1_555
H57_7 C70_7 1_555 1_555
C71_7 C66_7 1_555 1_555
H58_7 C71_7 1_555 1_555
C72_7 O6_7 1_555 1_555
C62_7 C65_7 1_555 1_555
C63_7 C64_7 1_555 1_555
C69_7 C72_7 1_555 1_555
C70_7 C71_7 1_555 1_555
S2_8 O7_8 1_555 1_555
O8_8 S2_8 1_555 1_555
O14_4 C79_8 1_555 1_555
O15_4 C86_8 1_555 1_555
O16_4 C86_8 1_555 1_555
H46_8 C56_8 1_555 1_555
H47_8 C57_8 1_555 1_555
C73_8 S2_8 1_555 1_555
C74_8 C73_8 1_555 1_555
H59_8 C74_8 1_555 1_555
C75_8 C74_8 1_555 1_555
H60_8 C75_8 1_555 1_555
C76_8 C75_8 1_555 1_555
C77_8 C76_8 1_555 1_555
H61_8 C77_8 1_555 1_555
C78_8 C73_8 1_555 1_555
H62_8 C78_8 1_555 1_555
C79_8 O9_8 1_555 1_555
C80_8 S2_8 1_555 1_555
C81_8 C80_8 1_555 1_555
H63_8 C81_8 1_555 1_555
C82_8 C81_8 1_555 1_555
H64_8 C82_8 1_555 1_555
C83_8 C82_8 1_555 1_555
C84_8 C83_8 1_555 1_555
H65_8 C84_8 1_555 1_555
C85_8 C80_8 1_555 1_555
H66_8 C85_8 1_555 1_555
C86_8 C83_8 1_555 1_555
C56_8 C57_8 1_555 1_555
C76_8 C79_8 1_555 1_555
C77_8 C78_8 1_555 1_555
C84_8 C85_8 1_555 1_555
N6_8 C35_8 1_555 1_555
N7_8 Cd7_4 1_555 1_555
C31_8 C32_8 1_555 1_555
C32_8 C33_8 1_555 1_555
C33_8 N5_8 1_555 1_555
C34_8 C33_8 1_555 1_555
C35_8 C34_8 1_555 1_555
C36_8 C35_8 1_555 1_555
C37_8 C36_8 1_555 1_555
C40_8 C31_8 1_555 1_555
C41_8 C40_8 1_555 1_555
C42_8 N7_8 1_555 1_555
C43_8 N7_8 1_555 1_555
H31_8 C43_8 1_555 1_555
C44_8 C40_8 1_555 1_555
H32_8 C44_8 1_555 1_555
C45_8 C32_8 1_555 1_555
H33_8 C45_8 1_555 1_555
H34_8 C45_8 1_555 1_555
H35_8 C45_8 1_555 1_555
C46_8 H36_8 1_555 1_555
C47_8 C34_8 1_555 1_555
C48_8 C47_8 1_555 1_555
H37_8 C48_8 1_555 1_555
C49_8 C48_8 1_555 1_555
H38_8 C49_8 1_555 1_555
C50_8 C49_8 1_555 1_555
H39_8 C50_8 1_555 1_555
C51_8 C46_8 1_555 1_555
H40_8 C51_8 1_555 1_555
C52_8 C36_8 1_555 1_555
H41_8 C52_8 1_555 1_555
H42_8 C52_8 1_555 1_555
H43_8 C52_8 1_555 1_555
C53_8 C37_8 1_555 1_555
C54_8 C53_8 1_555 1_555
H44_8 C54_8 1_555 1_555
C55_8 C54_8 1_555 1_555
H45_8 C55_8 1_555 1_555
C41_8 C42_8 1_555 1_555
C43_8 C44_8 1_555 1_555
C46_8 C47_8 1_555 1_555
C50_8 C51_8 1_555 1_555
Cd4_4 O3_8 1_555 1_555
S1_8 O1_8 1_555 1_555
F1_8 B1_8 1_555 1_555
F2_8 B1_8 1_555 1_555
F3_8 B2_8 1_555 1_555
F4_8 B2_8 1_555 1_555
O2_8 S1_8 1_555 1_555
O3_8 C65_8 1_555 1_555
O4_8 Cd4_4 1_555 1_555
O13_4 C72_8 1_555 1_555
N1_8 C1_8 1_555 1_555
N2_8 C6_8 1_555 1_555
N3_8 Cd4_4 1_555 1_555
N9_4 C26_8 1_555 1_555
C1_8 C2_8 1_555 1_555
C2_8 C3_8 1_555 1_555
C3_8 C4_8 1_555 1_555
C4_8 N1_8 1_555 1_555
C5_7 C4_8 1_555 1_555
C6_8 C5_7 1_555 1_555
C7_7 C6_8 1_555 1_555
C8_8 C7_7 1_555 1_555
C9_8 N2_8 1_555 1_555
C10_8 C1_8 1_555 1_555
H1_8 C10_8 1_555 1_555
H2_8 C10_8 1_555 1_555
H3_8 C10_8 1_555 1_555
C11_8 C2_8 1_555 1_555
C12_8 C11_8 1_555 1_555
H4_8 C12_8 1_555 1_555
C13_8 N3_8 1_555 1_555
H5_8 C13_8 1_555 1_555
C14_8 N3_8 1_555 1_555
H6_7 C14_8 1_555 1_555
C15_8 C11_8 1_555 1_555
H7_7 C15_8 1_555 1_555
C16_7 C3_8 1_555 1_555
H8_7 C16_7 1_555 1_555
H9_7 C16_7 1_555 1_555
H10_7 C16_7 1_555 1_555
C17_7 C5_7 1_555 1_555
C18_7 C17_7 1_555 1_555
H11_7 C18_7 1_555 1_555
C19_7 C18_7 1_555 1_555
H12_7 C19_7 1_555 1_555
C20_7 C19_7 1_555 1_555
H13_7 C20_7 1_555 1_555
C21_7 C20_7 1_555 1_555
H14_7 C21_7 1_555 1_555
C22_7 C17_7 1_555 1_555
H15_7 C22_7 1_555 1_555
C23_7 C7_7 1_555 1_555
H16_7 C23_7 1_555 1_555
H17_7 C23_7 1_555 1_555
H18_7 C23_7 1_555 1_555
C24_8 C8_8 1_555 1_555
C25_8 C24_8 1_555 1_555
H19_7 C25_8 1_555 1_555
C26_8 C25_8 1_555 1_555
H20_7 C26_8 1_555 1_555
C27_8 N9_4 1_555 1_555
H21_8 C27_8 1_555 1_555
C28_8 C24_8 1_555 1_555
H22_8 C28_8 1_555 1_555
C29_8 C9_8 1_555 1_555
H23_8 C29_8 1_555 1_555
H24_8 C29_8 1_555 1_555
H25_8 C29_8 1_555 1_555
C39_8 C30_8 1_555 1_555
H26_8 C39_8 1_555 1_555
H27_8 C39_8 1_555 1_555
H28_8 C39_8 1_555 1_555
C58_8 C38_8 1_555 1_555
H48_8 C58_8 1_555 1_555
H49_8 C58_8 1_555 1_555
H50_8 C58_8 1_555 1_555
C59_8 S1_8 1_555 1_555
C60_8 C59_8 1_555 1_555
H51_8 C60_8 1_555 1_555
C61_8 C60_8 1_555 1_555
H52_8 C61_8 1_555 1_555
C62_8 C61_8 1_555 1_555
C63_8 C62_8 1_555 1_555
H53_8 C63_8 1_555 1_555
C64_8 C59_8 1_555 1_555
H54_8 C64_8 1_555 1_555
C65_8 O4_8 1_555 1_555
C66_8 S1_8 1_555 1_555
C67_8 C66_8 1_555 1_555
H55_8 C67_8 1_555 1_555
C68_8 C67_8 1_555 1_555
H56_8 C68_8 1_555 1_555
C69_8 C68_8 1_555 1_555
C70_8 C69_8 1_555 1_555
H57_8 C70_8 1_555 1_555
C71_8 C66_8 1_555 1_555
H58_8 C71_8 1_555 1_555
C72_8 O6_8 1_555 1_555
B1_8 N1_8 1_555 1_555
N2_8 B1_8 1_555 1_555
C8_8 C9_8 1_555 1_555
C12_8 C13_8 1_555 1_555
C14_8 C15_8 1_555 1_555
C21_7 C22_7 1_555 1_555
C27_8 C28_8 1_555 1_555
C62_8 C65_8 1_555 1_555
C63_8 C64_8 1_555 1_555
C69_8 C72_8 1_555 1_555
C70_8 C71_8 1_555 1_555
H8_8 C16_8 1_555 1_555
H9_8 C16_8 1_555 1_555
H10_8 C16_8 1_555 1_555
C17_8 C5_8 1_555 1_555
C18_8 C17_8 1_555 1_555
H11_8 C18_8 1_555 1_555
C19_8 C18_8 1_555 1_555
H12_8 C19_8 1_555 1_555
C20_8 C19_8 1_555 1_555
H13_8 C20_8 1_555 1_555
C21_8 C20_8 1_555 1_555
H14_8 C21_8 1_555 1_555
C22_8 C17_8 1_555 1_555
H15_8 C22_8 1_555 1_555
C23_8 C7_8 1_555 1_555
H16_8 C23_8 1_555 1_555
H17_8 C23_8 1_555 1_555
H18_8 C23_8 1_555 1_555
C21_8 C22_8 1_555 1_555

#END
