
###############################################################################
#
# This file contains modified crystal structure data generated from the
# MOF subset of the Cambridge Structural Database (CSD) v543 
# hosted by the Cambridge Crystallographic Data Centre (CCDC).
#
# This work is licensed under the Creative Commons
# Attribution-NonCommercial-ShareAlike 4.0 International License.
# To view a copy of this license, visit
# http://creativecommons.org/licenses/by-nc-sa/4.0/
# or send a letter to
# Creative Commons, PO Box 1866, Mountain View, CA 94042, USA.
#
# CIF created using the CSD Python API on 29 September 2022
# The structure has been converted into the P1 space group
# The structure has a 3D framework
# The original CSD entry JOQGON is in the rhombohedral crystal system
# The framework has been calculated to contain at least 10.0% void space
# The void calculation uses a probe of radius 1.32A, grid spacing 0.4
# The framework is charged, counterions have been retained in the structure
#
###############################################################################

data_JOQGON
_chemical_formula_moiety         '(C540 H648 N126 O204 Tb18 12+)n'
_symmetry_cell_setting           triclinic
_symmetry_space_group_name_H-M   'P 1'
_symmetry_Int_Tables_number      1
_space_group_name_Hall           'P 1'
loop_
_symmetry_equiv_pos_site_id
_symmetry_equiv_pos_as_xyz
1 x,y,z
_cell_length_a                   25.918(2)
_cell_length_b                   25.918(2)
_cell_length_c                   30.803(3)
_cell_angle_alpha                90
_cell_angle_beta                 90
_cell_angle_gamma                120
_cell_volume                     17919.5
loop_
_atom_site_label
_atom_site_type_symbol
_atom_site_fract_x
_atom_site_fract_y
_atom_site_fract_z
Tb1 Tb 0.031810(10) 0.297636(10) 0.099967(7)
O1 O 0.05599(14) 0.38686(15) 0.13031(11)
C1 C 0.0794(2) 0.45166(19) 0.19094(15)
C2 C 0.0956(2) 0.4256(2) 0.15707(15)
C3 C 0.1567(2) 0.4443(2) 0.15340(19)
H1 H 0.1693 0.4274 0.1314
C4 C 0.1979(2) 0.4857(2) 0.18035(19)
H2 H 0.2385 0.4968 0.1764
C5 C 0.1833(2) 0.5124(2) 0.21340(19)
C6 C 0.1237(2) 0.4947(2) 0.21829(16)
H3 H 0.1122 0.5120 0.2408
C7 C 0.2304(3) 0.5596(3) 0.2420(2)
H4 H 0.2493 0.5979 0.2268
H5 H 0.2606 0.5486 0.2489
H6 H 0.2121 0.5629 0.2689
C8 C 0.0195(2) 0.43831(19) 0.19680(14)
H7 H 0.0116 0.4594 0.2186
O2 O 0.00526(16) 0.55418(23) 0.27430(12)
C11 C 0.0466(3) 0.5081(4) 0.31766(17)
C12 C 0.0510(3) 0.5581(4) 0.29510(16)
C13 C 0.1063(3) 0.6105(4) 0.2962(2)
H13 H 0.1109 0.6451 0.2819
C14 C 0.1540(3) 0.6134(4) 0.3173(2)
H14 H 0.1907 0.6501 0.3172
C15 C 0.1513(3) 0.5653(4) 0.3388(2)
C16 C 0.0984(3) 0.5138(4) 0.3390(2)
H15 H 0.0955 0.4803 0.3538
C17 C 0.2052(4) 0.5690(5) 0.3627(3)
H16 H 0.2324 0.5670 0.3415
H17 H 0.2261 0.6068 0.3786
H18 H 0.1915 0.5358 0.3831
C21 C 0.0562(3) 0.3488(2) 0.31252(17)
C22 C 0.0452(3) 0.3496(2) 0.35747(16)
C23 C 0.0952(4) 0.3774(3) 0.3845(2)
H25 H 0.0899 0.3792 0.4149
C24 C 0.1521(4) 0.4021(3) 0.3679(2)
H26 H 0.1849 0.4200 0.3874
C25 C 0.1633(4) 0.4019(3) 0.3238(2)
C26 C 0.1147(3) 0.3754(2) 0.2964(2)
H27 H 0.1210 0.3752 0.2661
C27 C 0.2265(4) 0.4289(3) 0.3071(3)
H28 H 0.2422 0.4713 0.3008
H29 H 0.2268 0.4083 0.2805
H30 H 0.2514 0.4248 0.3292
C28 C 0.0090(3) 0.3178(2) 0.28254(17)
H31 H 0.0188 0.3198 0.2526
O6 O 0.0321(2) 0.2829(2) 0.18107(13)
O7 O 0.11161(18) 0.30649(19) 0.14585(14)
O8 O 0.0109(4) 0.1948(3) 0.1188(2)
O9 O 0.0332(2) 0.2212(2) 0.05317(18)
N6 N 0.0855(3) 0.2942(3) 0.18159(16)
N7 N 0.0141(4) 0.1801(3) 0.0796(3)
O11 O 0.1053 0.2888 0.2149
O13 O 0.11775(28) 0.33859(16) 0.05903(12)
O14 O 0.00666(15) 0.33061(26) 0.03904(11)
N1 N 0.97513(17) 0.39923(17) 0.17423(13)
H8 H 0.986(2) 0.383(2) 0.1544(13)
C9 C 0.9133(2) 0.3870(2) 0.17637(16)
H9 H 0.8982 0.3847 0.1465
H10 H 0.9126 0.4204 0.1914
C10 C 0.8725(2) 0.3293(2) 0.20003(16)
H11 H 0.8306 0.3180 0.1941
H12 H 0.8790 0.2974 0.1885
C18 C 0.9917(3) 0.4545(4) 0.32091(17)
H19 H 0.9912 0.4225 0.3362
N2 N 0.9427(2) 0.4460(3) 0.30482(15)
H20 H 0.934(3) 0.4703(34) 0.2926(17)
C19 C 0.8836(3) 0.3931(4) 0.3107(2)
H21 H 0.8875 0.3635 0.3286
H22 H 0.8577 0.4047 0.3265
C20 C 0.8543(3) 0.3646(2) 0.2676(2)
H23 H 0.8115 0.3359 0.2726
H24 H 0.8570 0.3958 0.2476
O3 O 0.99061(21) 0.32667(15) 0.37237(11)
N3 N 0.95349(27) 0.28715(18) 0.29330(14)
H32 H 0.946(3) 0.286(2) 0.3209(7)
C29 C 0.9043(4) 0.2534(2) 0.26354(16)
H33 H 0.8847 0.2105 0.2709
H34 H 0.9198 0.2585 0.2335
C30 C 0.8593(2) 0.2742(2) 0.26611(17)
H35 H 0.8226 0.2454 0.2506
H36 H 0.8488 0.2750 0.2969
N4 N 0.88208(17) 0.33362(17) 0.24716(13)
O4 O 0.93790(15) 0.28218(17) 0.12986(14)
O5 O 0.92497(18) 0.21595(17) 0.08365(14)
N5 N 0.9019(2) 0.2350(2) 0.11006(16)
O10 O 0.84905(18) 0.2107(2) 0.11639(19)
O12 O 0.9985(4) 0.1288(3) 0.0692(3)
Tb2 Tb 0.932493(14) 0.301523(10) 0.433300(7)
Tb3 Tb 0.964303(10) 0.599159(14) 0.233366(7)
Tb1_2 Tb 0.702364(10) 0.734174(14) 0.099967(7)
O1_2 O 0.61314(15) 0.66913(21) 0.13031(11)
C1_2 C 0.54834(19) 0.62774(28) 0.19094(15)
C2_2 C 0.5744(2) 0.6700(3) 0.15707(15)
C3_2 C 0.5557(2) 0.7124(3) 0.15340(19)
H1_2 H 0.5726 0.7419 0.1314
C4_2 C 0.5143(2) 0.7122(3) 0.18035(19)
H2_2 H 0.5032 0.7417 0.1764
C5_2 C 0.4876(2) 0.6709(3) 0.21340(19)
C6_2 C 0.5053(2) 0.6290(3) 0.21829(16)
H3_2 H 0.4880 0.6002 0.2408
C7_2 C 0.4404(3) 0.6708(4) 0.2420(2)
H4_2 H 0.4021 0.6514 0.2268
H5_2 H 0.4514 0.7120 0.2489
H6_2 H 0.4371 0.6492 0.2689
C8_2 C 0.56169(19) 0.58119(28) 0.19680(14)
H7_2 H 0.5406 0.5522 0.2186
N1_2 N 0.60077(17) 0.57590(24) 0.17423(13)
H8_2 H 0.617(2) 0.603(3) 0.1544(13)
C9_2 C 0.6130(2) 0.5263(3) 0.17637(16)
H9_2 H 0.6153 0.5135 0.1465
H10_2 H 0.5796 0.4922 0.1914
C10_2 C 0.6707(2) 0.5432(3) 0.20003(16)
H11_2 H 0.6820 0.5126 0.1941
H12_2 H 0.7026 0.5816 0.1885
O2_2 O 0.44582(23) 0.45108(28) 0.27430(12)
C11_2 C 0.4919(4) 0.5385(5) 0.31766(17)
C12_2 C 0.4419(4) 0.4929(5) 0.29510(16)
C13_2 C 0.3895(4) 0.4958(5) 0.2962(2)
H13_2 H 0.3549 0.4658 0.2819
C14_2 C 0.3866(4) 0.5406(5) 0.3173(2)
H14_2 H 0.3499 0.5406 0.3172
C15_2 C 0.4347(4) 0.5860(5) 0.3388(2)
C16_2 C 0.4862(4) 0.5846(5) 0.3390(2)
H15_2 H 0.5197 0.6152 0.3538
C17_2 C 0.4310(5) 0.6362(6) 0.3627(3)
H16_2 H 0.4330 0.6654 0.3415
H17_2 H 0.3932 0.6193 0.3786
H18_2 H 0.4642 0.6557 0.3831
C18_2 C 0.5455(4) 0.5372(5) 0.32091(17)
H19_2 H 0.5775 0.5687 0.3362
N2_2 N 0.5540(3) 0.4967(4) 0.30482(15)
H20_2 H 0.5297(34) 0.4637(45) 0.2926(17)
C19_2 C 0.6069(4) 0.4905(5) 0.3107(2)
H21_2 H 0.6365 0.5240 0.3286
H22_2 H 0.5953 0.4530 0.3265
C20_2 C 0.6354(2) 0.4897(4) 0.2676(2)
H23_2 H 0.6641 0.4756 0.2726
H24_2 H 0.6042 0.4612 0.2476
O3_2 O 0.67333(15) 0.66394(26) 0.37237(11)
C21_2 C 0.6512(2) 0.7074(4) 0.31252(17)
C22_2 C 0.6504(2) 0.6956(4) 0.35747(16)
C23_2 C 0.6226(3) 0.7178(5) 0.3845(2)
H25_2 H 0.6208 0.7107 0.4149
C24_2 C 0.5979(3) 0.7500(5) 0.3679(2)
H26_2 H 0.5800 0.7649 0.3874
C25_2 C 0.5981(3) 0.7614(5) 0.3238(2)
C26_2 C 0.6246(2) 0.7393(4) 0.2964(2)
H27_2 H 0.6248 0.7458 0.2661
C27_2 C 0.5711(3) 0.7976(5) 0.3071(3)
H28_2 H 0.5287 0.7709 0.3008
H29_2 H 0.5917 0.8185 0.2805
H30_2 H 0.5752 0.8266 0.3292
C28_2 C 0.6822(2) 0.6912(4) 0.28254(17)
H31_2 H 0.6802 0.6990 0.2526
N3_2 N 0.71285(18) 0.66634(32) 0.29330(14)
H32_2 H 0.714(2) 0.660(4) 0.3209(7)
C29_2 C 0.7466(2) 0.6509(4) 0.26354(16)
H33_2 H 0.7895 0.6742 0.2709
H34_2 H 0.7415 0.6613 0.2335
C30_2 C 0.7258(2) 0.5851(3) 0.26611(17)
H35_2 H 0.7546 0.5772 0.2506
H36_2 H 0.7250 0.5738 0.2969
N4_2 N 0.66638(17) 0.54846(24) 0.24716(13)
O4_2 O 0.71782(17) 0.65572(23) 0.12986(14)
O5_2 O 0.78405(17) 0.70902(25) 0.08365(14)
O6_2 O 0.7171(2) 0.7492(3) 0.18107(13)
O7_2 O 0.69351(19) 0.80512(26) 0.14585(14)
O8_2 O 0.8052(3) 0.8161(5) 0.1188(2)
O9_2 O 0.7788(2) 0.8120(3) 0.05317(18)
N5_2 N 0.7650(2) 0.6669(3) 0.11006(16)
N6_2 N 0.7058(3) 0.7913(4) 0.18159(16)
N7_2 N 0.8199(3) 0.8340(5) 0.0796(3)
O10_2 O 0.7893(2) 0.63835(27) 0.11639(19)
O11_2 O 0.7112 0.8165 0.2149
O12_2 O 0.8712(3) 0.8697(5) 0.0692(3)
Tb2_2 Tb 0.698477(10) 0.630969(17) 0.433300(7)
Tb3_2 Tb 0.400841(14) 0.365143(17) 0.233366(7)
O13_2 O 0.66141(16) 0.77915(32) 0.05903(12)
O14_2 O 0.66939(26) 0.67606(30) 0.03904(11)
N1_3 N 0.42410(24) 0.02487(17) 0.17423(13)
H8_3 H 0.397(3) 0.014(2) 0.1544(13)
C9_3 C 0.4737(3) 0.0867(2) 0.17637(16)
H9_3 H 0.4865 0.1018 0.1465
H10_3 H 0.5078 0.0874 0.1914
C10_3 C 0.4568(3) 0.1275(2) 0.20003(16)
H11_3 H 0.4874 0.1694 0.1941
H12_3 H 0.4184 0.1210 0.1885
C18_3 C 0.4628(5) 0.0083(3) 0.32091(17)
H19_3 H 0.4313 0.0088 0.3362
N2_3 N 0.5033(4) 0.0573(2) 0.30482(15)
H20_3 H 0.5363(45) 0.066(3) 0.2926(17)
C19_3 C 0.5095(5) 0.1164(3) 0.3107(2)
H21_3 H 0.4760 0.1125 0.3286
H22_3 H 0.5470 0.1423 0.3265
C20_3 C 0.5103(4) 0.1457(3) 0.2676(2)
H23_3 H 0.5244 0.1885 0.2726
H24_3 H 0.5388 0.1430 0.2476
O3_3 O 0.33606(26) 0.00939(21) 0.37237(11)
N3_3 N 0.33366(32) 0.04651(27) 0.29330(14)
H32_3 H 0.340(4) 0.054(3) 0.3209(7)
C29_3 C 0.3491(4) 0.0957(4) 0.26354(16)
H33_3 H 0.3258 0.1153 0.2709
H34_3 H 0.3387 0.0802 0.2335
C30_3 C 0.4149(3) 0.1407(2) 0.26611(17)
H35_3 H 0.4228 0.1774 0.2506
H36_3 H 0.4262 0.1512 0.2969
N4_3 N 0.45154(24) 0.11792(17) 0.24716(13)
O4_3 O 0.34428(23) 0.06210(15) 0.12986(14)
O5_3 O 0.29098(25) 0.07503(18) 0.08365(14)
N5_3 N 0.3331(3) 0.0981(2) 0.11006(16)
O10_3 O 0.36165(27) 0.15095(18) 0.11639(19)
O12_3 O 0.1303(5) 0.0015(4) 0.0692(3)
Tb2_3 Tb 0.369031(17) 0.067507(14) 0.433300(7)
Tb3_3 Tb 0.634857(17) 0.035697(10) 0.233366(7)
Tb1_3 Tb 0.265826(14) 0.968190(10) 0.099967(7)
O1_3 O 0.33087(21) 0.94401(14) 0.13031(11)
C1_3 C 0.37226(28) 0.9206(2) 0.19094(15)
C2_3 C 0.3300(3) 0.9044(2) 0.15707(15)
C3_3 C 0.2876(3) 0.8433(2) 0.15340(19)
H1_3 H 0.2581 0.8307 0.1314
C4_3 C 0.2878(3) 0.8021(2) 0.18035(19)
H2_3 H 0.2583 0.7615 0.1764
C5_3 C 0.3291(3) 0.8167(2) 0.21340(19)
C6_3 C 0.3710(3) 0.8763(2) 0.21829(16)
H3_3 H 0.3998 0.8878 0.2408
C7_3 C 0.3292(4) 0.7696(3) 0.2420(2)
H4_3 H 0.3486 0.7507 0.2268
H5_3 H 0.2880 0.7394 0.2489
H6_3 H 0.3508 0.7879 0.2689
C8_3 C 0.41881(28) 0.9805(2) 0.19680(14)
H7_3 H 0.4478 0.9884 0.2186
O2_3 O 0.54892(28) 0.99474(16) 0.27430(12)
C11_3 C 0.4615(5) 0.9534(3) 0.31766(17)
C12_3 C 0.5071(5) 0.9490(3) 0.29510(16)
C13_3 C 0.5042(5) 0.8937(3) 0.2962(2)
H13_3 H 0.5342 0.8891 0.2819
C14_3 C 0.4594(5) 0.8460(3) 0.3173(2)
H14_3 H 0.4594 0.8093 0.3172
C15_3 C 0.4140(5) 0.8487(3) 0.3388(2)
C16_3 C 0.4154(5) 0.9016(3) 0.3390(2)
H15_3 H 0.3848 0.9045 0.3538
C17_3 C 0.3638(6) 0.7948(4) 0.3627(3)
H16_3 H 0.3346 0.7676 0.3415
H17_3 H 0.3807 0.7739 0.3786
H18_3 H 0.3443 0.8085 0.3831
C21_3 C 0.2926(4) 0.9438(3) 0.31252(17)
C22_3 C 0.3044(4) 0.9548(3) 0.35747(16)
C23_3 C 0.2822(5) 0.9048(4) 0.3845(2)
H25_3 H 0.2893 0.9101 0.4149
C24_3 C 0.2500(5) 0.8479(4) 0.3679(2)
H26_3 H 0.2351 0.8151 0.3874
C25_3 C 0.2386(5) 0.8367(4) 0.3238(2)
C26_3 C 0.2607(4) 0.8853(3) 0.2964(2)
H27_3 H 0.2542 0.8790 0.2661
C27_3 C 0.2024(5) 0.7735(4) 0.3071(3)
H28_3 H 0.2291 0.7578 0.3008
H29_3 H 0.1815 0.7732 0.2805
H30_3 H 0.1734 0.7486 0.3292
C28_3 C 0.3088(4) 0.9910(3) 0.28254(17)
H31_3 H 0.3010 0.9812 0.2526
O6_3 O 0.2508(3) 0.9679(2) 0.18107(13)
O7_3 O 0.19488(26) 0.88839(18) 0.14585(14)
O8_3 O 0.1839(5) 0.9891(4) 0.1188(2)
O9_3 O 0.1880(3) 0.9668(2) 0.05317(18)
N6_3 N 0.2087(4) 0.9145(3) 0.18159(16)
N7_3 N 0.1660(5) 0.9859(4) 0.0796(3)
O11_3 O 0.1835 0.8947 0.2149
O13_3 O 0.22085(32) 0.88225(28) 0.05903(12)
O14_3 O 0.32394(30) 0.99334(15) 0.03904(11)
O1_4 O 0.72266(14) 0.72019(15) 0.46364(11)
C1_4 C 0.7461(2) 0.78499(19) 0.52427(15)
C2_4 C 0.7623(2) 0.7589(2) 0.49040(15)
C3_4 C 0.8234(2) 0.7776(2) 0.48673(19)
H1_4 H 0.8360 0.7607 0.4647
C4_4 C 0.8646(2) 0.8190(2) 0.51368(19)
H2_4 H 0.9052 0.8301 0.5097
C5_4 C 0.8500(2) 0.8457(2) 0.54673(19)
C6_4 C 0.7904(2) 0.8280(2) 0.55162(16)
H3_4 H 0.7789 0.8453 0.5741
C7_4 C 0.8971(3) 0.8929(3) 0.5753(2)
H4_4 H 0.9160 0.9312 0.5601
H5_4 H 0.9273 0.8819 0.5822
H6_4 H 0.8788 0.8962 0.6022
C8_4 C 0.6862(2) 0.77164(19) 0.53013(14)
H7_4 H 0.6783 0.7927 0.5519
N1_4 N 0.64180(17) 0.73256(17) 0.50756(13)
H8_4 H 0.653(2) 0.716(2) 0.4877(13)
C9_4 C 0.5800(2) 0.7203(2) 0.50970(16)
H9_4 H 0.5649 0.7180 0.4798
H10_4 H 0.5793 0.7537 0.5247
C10_4 C 0.5392(2) 0.6626(2) 0.53336(16)
H11_4 H 0.4973 0.6513 0.5274
H12_4 H 0.5457 0.6307 0.5218
O2_4 O 0.67193(16) 0.88751(23) 0.60763(12)
C11_4 C 0.7133(3) 0.8414(4) 0.65099(17)
C12_4 C 0.7177(3) 0.8914(4) 0.62843(16)
C13_4 C 0.7730(3) 0.9438(4) 0.6295(2)
H13_4 H 0.7776 0.9784 0.6152
C14_4 C 0.8207(3) 0.9467(4) 0.6506(2)
H14_4 H 0.8574 0.9834 0.6505
C15_4 C 0.8180(3) 0.8986(4) 0.6721(2)
C16_4 C 0.7651(3) 0.8471(4) 0.6723(2)
H15_4 H 0.7622 0.8136 0.6871
C17_4 C 0.8719(4) 0.9023(5) 0.6960(3)
H16_4 H 0.8991 0.9003 0.6748
H17_4 H 0.8928 0.9401 0.7119
H18_4 H 0.8582 0.8691 0.7164
C18_4 C 0.6584(3) 0.7878(4) 0.65424(17)
H19_4 H 0.6579 0.7558 0.6695
N2_4 N 0.6094(2) 0.7793(3) 0.63815(15)
H20_4 H 0.601(3) 0.8036(34) 0.6259(17)
C19_4 C 0.5503(3) 0.7264(4) 0.6440(2)
H21_4 H 0.5542 0.6968 0.6619
H22_4 H 0.5244 0.7380 0.6598
C20_4 C 0.5210(3) 0.6979(2) 0.6009(2)
H23_4 H 0.4782 0.6692 0.6059
H24_4 H 0.5237 0.7291 0.5809
O3_4 O 0.65728(21) 0.66000(15) 0.70570(11)
C21_4 C 0.7229(3) 0.6821(2) 0.64585(17)
C22_4 C 0.7119(3) 0.6829(2) 0.69080(16)
C23_4 C 0.7619(4) 0.7107(3) 0.7178(2)
H25_4 H 0.7566 0.7125 0.7482
C24_4 C 0.8188(4) 0.7354(3) 0.7012(2)
H26_4 H 0.8516 0.7533 0.7207
C25_4 C 0.8300(4) 0.7352(3) 0.6571(2)
C26_4 C 0.7814(3) 0.7087(2) 0.6297(2)
H27_4 H 0.7877 0.7085 0.5994
C27_4 C 0.8932(4) 0.7622(3) 0.6404(3)
H28_4 H 0.9089 0.8046 0.6341
H29_4 H 0.8935 0.7416 0.6138
H30_4 H 0.9181 0.7581 0.6625
C28_4 C 0.6757(3) 0.6511(2) 0.61587(17)
H31_4 H 0.6855 0.6531 0.5859
N3_4 N 0.62016(27) 0.62048(18) 0.62663(14)
H32_4 H 0.613(3) 0.619(2) 0.6542(7)
C29_4 C 0.5710(4) 0.5867(2) 0.59687(16)
H33_4 H 0.5514 0.5438 0.6042
H34_4 H 0.5865 0.5918 0.5668
C30_4 C 0.5260(2) 0.6075(2) 0.59944(17)
H35_4 H 0.4893 0.5787 0.5839
H36_4 H 0.5155 0.6083 0.6302
N4_4 N 0.54875(17) 0.66695(17) 0.58049(13)
O4_4 O 0.60457(15) 0.61551(17) 0.46319(14)
O5_4 O 0.59164(18) 0.54928(17) 0.41698(14)
O6_4 O 0.6988(2) 0.6162(2) 0.51440(13)
O7_4 O 0.77828(18) 0.63982(19) 0.47918(14)
O8_4 O 0.6776(4) 0.5281(3) 0.4521(2)
O9_4 O 0.6999(2) 0.5545(2) 0.38650(18)
N5_4 N 0.5686(2) 0.5683(2) 0.44339(16)
N6_4 N 0.7522(3) 0.6275(3) 0.51492(16)
N7_4 N 0.6808(4) 0.5134(3) 0.4129(3)
O10_4 O 0.51572(18) 0.5440(2) 0.44972(19)
O11_4 O 0.7720 0.6221 0.5482
O12_4 O 0.6652(4) 0.4621(3) 0.4025(3)
Tb2_4 Tb 0.599159(14) 0.634857(10) 0.766634(7)
Tb3_4 Tb 0.630969(10) 0.932493(14) 0.566700(7)
O13_4 O 0.78441(28) 0.67193(16) 0.39237(12)
O1_5 O 0.27981(15) 0.00246(21) 0.46364(11)
C2_5 C 0.2411(2) 0.0033(3) 0.49040(15)
C3_5 C 0.2224(2) 0.0457(3) 0.48673(19)
H1_5 H 0.2393 0.0752 0.4647
C4_5 C 0.1810(2) 0.0455(3) 0.51368(19)
H2_5 H 0.1699 0.0750 0.5097
C5_5 C 0.1543(2) 0.0042(3) 0.54673(19)
C7_5 C 0.1071(3) 0.0041(4) 0.5753(2)
H5_5 H 0.1181 0.0453 0.5822
C21_5 C 0.3179(2) 0.0407(4) 0.64585(17)
C22_5 C 0.3171(2) 0.0289(4) 0.69080(16)
C23_5 C 0.2893(3) 0.0511(5) 0.7178(2)
H25_5 H 0.2875 0.0440 0.7482
C24_5 C 0.2646(3) 0.0833(5) 0.7012(2)
H26_5 H 0.2467 0.0982 0.7207
C25_5 C 0.2648(3) 0.0947(5) 0.6571(2)
C26_5 C 0.2913(2) 0.0726(4) 0.6297(2)
H27_5 H 0.2915 0.0791 0.5994
C27_5 C 0.2378(3) 0.1309(5) 0.6404(3)
H28_5 H 0.1954 0.1042 0.6341
H29_5 H 0.2584 0.1518 0.6138
H30_5 H 0.2419 0.1599 0.6625
C28_5 C 0.3489(2) 0.0245(4) 0.61587(17)
H31_5 H 0.3469 0.0323 0.5859
H33_5 H 0.4562 0.0075 0.6042
O5_5 O 0.45072(17) 0.04235(25) 0.41698(14)
O6_5 O 0.3838(2) 0.0825(3) 0.51440(13)
O7_5 O 0.36018(19) 0.13845(26) 0.47918(14)
O8_5 O 0.4719(3) 0.1494(5) 0.4521(2)
O9_5 O 0.4455(2) 0.1453(3) 0.38650(18)
N5_5 N 0.4317(2) 0.0002(3) 0.44339(16)
N6_5 N 0.3725(3) 0.1246(4) 0.51492(16)
N7_5 N 0.4866(3) 0.1673(5) 0.4129(3)
O11_5 O 0.3779 0.1498 0.5482
O12_5 O 0.5379(3) 0.2030(5) 0.4025(3)
O13_5 O 0.32807(16) 0.11249(32) 0.39237(12)
C1_5 C 0.21501(19) 0.96107(28) 0.52427(15)
C6_5 C 0.1720(2) 0.9623(3) 0.55162(16)
H3_5 H 0.1547 0.9335 0.5741
H4_5 H 0.0688 0.9847 0.5601
H6_5 H 0.1038 0.9825 0.6022
C8_5 C 0.22836(19) 0.91452(28) 0.53013(14)
H7_5 H 0.2073 0.8855 0.5519
N1_5 N 0.26744(17) 0.90923(24) 0.50756(13)
H8_5 H 0.284(2) 0.936(3) 0.4877(13)
C9_5 C 0.2797(2) 0.8596(3) 0.50970(16)
H9_5 H 0.2820 0.8468 0.4798
H10_5 H 0.2463 0.8255 0.5247
C10_5 C 0.3374(2) 0.8765(3) 0.53336(16)
H11_5 H 0.3487 0.8459 0.5274
H12_5 H 0.3693 0.9149 0.5218
O2_5 O 0.11249(23) 0.78441(28) 0.60763(12)
C11_5 C 0.1586(4) 0.8718(5) 0.65099(17)
C12_5 C 0.1086(4) 0.8262(5) 0.62843(16)
C13_5 C 0.0562(4) 0.8291(5) 0.6295(2)
H13_5 H 0.0216 0.7991 0.6152
C14_5 C 0.0533(4) 0.8739(5) 0.6506(2)
H14_5 H 0.0166 0.8739 0.6505
C15_5 C 0.1014(4) 0.9193(5) 0.6721(2)
C16_5 C 0.1529(4) 0.9179(5) 0.6723(2)
H15_5 H 0.1864 0.9485 0.6871
C17_5 C 0.0977(5) 0.9695(6) 0.6960(3)
H16_5 H 0.0997 0.9987 0.6748
H17_5 H 0.0599 0.9526 0.7119
H18_5 H 0.1309 0.9890 0.7164
C18_5 C 0.2122(4) 0.8705(5) 0.65424(17)
H19_5 H 0.2442 0.9020 0.6695
N2_5 N 0.2207(3) 0.8300(4) 0.63815(15)
H20_5 H 0.1964(34) 0.7970(45) 0.6259(17)
C19_5 C 0.2736(4) 0.8238(5) 0.6440(2)
H21_5 H 0.3032 0.8573 0.6619
H22_5 H 0.2620 0.7863 0.6598
C20_5 C 0.3021(2) 0.8230(4) 0.6009(2)
H23_5 H 0.3308 0.8089 0.6059
H24_5 H 0.2709 0.7945 0.5809
O3_5 O 0.34000(15) 0.99727(26) 0.70570(11)
N3_5 N 0.37952(18) 0.99967(32) 0.62663(14)
H32_5 H 0.381(2) 0.993(4) 0.6542(7)
C29_5 C 0.4133(2) 0.9842(4) 0.59687(16)
H34_5 H 0.4082 0.9946 0.5668
C30_5 C 0.3925(2) 0.9184(3) 0.59944(17)
H35_5 H 0.4213 0.9105 0.5839
H36_5 H 0.3917 0.9071 0.6302
N4_5 N 0.33305(17) 0.88179(24) 0.58049(13)
O4_5 O 0.38449(17) 0.98905(23) 0.46319(14)
O10_5 O 0.4560(2) 0.97168(27) 0.44972(19)
Tb2_5 Tb 0.365143(10) 0.964303(17) 0.766634(7)
Tb3_5 Tb 0.067507(14) 0.698477(17) 0.566700(7)
C1_6 C 0.03893(28) 0.2539(2) 0.52427(15)
C6_6 C 0.0377(3) 0.2096(2) 0.55162(16)
H3_6 H 0.0665 0.2211 0.5741
H4_6 H 0.0153 0.0840 0.5601
H6_6 H 0.0175 0.1212 0.6022
C8_6 C 0.08548(28) 0.3138(2) 0.53013(14)
H7_6 H 0.1145 0.3217 0.5519
N1_6 N 0.09077(24) 0.35820(17) 0.50756(13)
H8_6 H 0.064(3) 0.347(2) 0.4877(13)
C9_6 C 0.1404(3) 0.4200(2) 0.50970(16)
H9_6 H 0.1532 0.4351 0.4798
H10_6 H 0.1745 0.4207 0.5247
C10_6 C 0.1235(3) 0.4608(2) 0.53336(16)
H11_6 H 0.1541 0.5027 0.5274
H12_6 H 0.0851 0.4543 0.5218
O2_6 O 0.21559(28) 0.32807(16) 0.60763(12)
C11_6 C 0.1282(5) 0.2867(3) 0.65099(17)
C12_6 C 0.1738(5) 0.2823(3) 0.62843(16)
C13_6 C 0.1709(5) 0.2270(3) 0.6295(2)
H13_6 H 0.2009 0.2224 0.6152
C14_6 C 0.1261(5) 0.1793(3) 0.6506(2)
H14_6 H 0.1261 0.1426 0.6505
C15_6 C 0.0807(5) 0.1820(3) 0.6721(2)
C16_6 C 0.0821(5) 0.2349(3) 0.6723(2)
H15_6 H 0.0515 0.2378 0.6871
C17_6 C 0.0305(6) 0.1281(4) 0.6960(3)
H16_6 H 0.0013 0.1009 0.6748
H17_6 H 0.0474 0.1072 0.7119
H18_6 H 0.0110 0.1418 0.7164
C18_6 C 0.1295(5) 0.3416(3) 0.65424(17)
H19_6 H 0.0980 0.3421 0.6695
N2_6 N 0.1700(4) 0.3906(2) 0.63815(15)
H20_6 H 0.2030(45) 0.399(3) 0.6259(17)
C19_6 C 0.1762(5) 0.4497(3) 0.6440(2)
H21_6 H 0.1427 0.4458 0.6619
H22_6 H 0.2137 0.4756 0.6598
C20_6 C 0.1770(4) 0.4790(3) 0.6009(2)
H23_6 H 0.1911 0.5218 0.6059
H24_6 H 0.2055 0.4763 0.5809
O3_6 O 0.00273(26) 0.34272(21) 0.70570(11)
N3_6 N 0.00033(32) 0.37984(27) 0.62663(14)
H32_6 H 0.007(4) 0.387(3) 0.6542(7)
C29_6 C 0.0158(4) 0.4290(4) 0.59687(16)
H34_6 H 0.0054 0.4135 0.5668
C30_6 C 0.0816(3) 0.4740(2) 0.59944(17)
H35_6 H 0.0895 0.5107 0.5839
H36_6 H 0.0929 0.4845 0.6302
N4_6 N 0.11821(24) 0.45125(17) 0.58049(13)
O4_6 O 0.01095(23) 0.39543(15) 0.46319(14)
O10_6 O 0.02832(27) 0.48428(18) 0.44972(19)
Tb2_6 Tb 0.035697(17) 0.400841(14) 0.766634(7)
Tb3_6 Tb 0.301523(17) 0.369031(10) 0.566700(7)
O1_6 O 0.99754(21) 0.27734(14) 0.46364(11)
C2_6 C 0.9967(3) 0.2377(2) 0.49040(15)
C3_6 C 0.9543(3) 0.1766(2) 0.48673(19)
H1_6 H 0.9248 0.1640 0.4647
C4_6 C 0.9545(3) 0.1354(2) 0.51368(19)
H2_6 H 0.9250 0.0948 0.5097
C5_6 C 0.9958(3) 0.1500(2) 0.54673(19)
C7_6 C 0.9959(4) 0.1029(3) 0.5753(2)
H5_6 H 0.9547 0.0727 0.5822
C21_6 C 0.9593(4) 0.2771(3) 0.64585(17)
C22_6 C 0.9711(4) 0.2881(3) 0.69080(16)
C23_6 C 0.9489(5) 0.2381(4) 0.7178(2)
H25_6 H 0.9560 0.2434 0.7482
C24_6 C 0.9167(5) 0.1812(4) 0.7012(2)
H26_6 H 0.9018 0.1484 0.7207
C25_6 C 0.9053(5) 0.1700(4) 0.6571(2)
C26_6 C 0.9274(4) 0.2186(3) 0.6297(2)
H27_6 H 0.9209 0.2123 0.5994
C27_6 C 0.8691(5) 0.1068(4) 0.6404(3)
H28_6 H 0.8958 0.0911 0.6341
H29_6 H 0.8482 0.1065 0.6138
H30_6 H 0.8401 0.0819 0.6625
C28_6 C 0.9755(4) 0.3243(3) 0.61587(17)
H31_6 H 0.9677 0.3145 0.5859
H33_6 H 0.9925 0.4486 0.6042
O5_6 O 0.95765(25) 0.40836(18) 0.41698(14)
O6_6 O 0.9175(3) 0.3012(2) 0.51440(13)
O7_6 O 0.86155(26) 0.22172(18) 0.47918(14)
O8_6 O 0.8506(5) 0.3224(4) 0.4521(2)
O9_6 O 0.8547(3) 0.3001(2) 0.38650(18)
N5_6 N 0.9998(3) 0.4314(2) 0.44339(16)
N6_6 N 0.8754(4) 0.2478(3) 0.51492(16)
N7_6 N 0.8327(5) 0.3192(4) 0.4129(3)
O11_6 O 0.8502 0.2280 0.5482
O12_6 O 0.7970(5) 0.3348(4) 0.4025(3)
O13_6 O 0.88751(32) 0.21559(28) 0.39237(12)
O1_7 O 0.38932(14) 0.05353(15) 0.79698(11)
C1_7 C 0.4127(2) 0.11833(19) 0.85761(15)
C2_7 C 0.4289(2) 0.0923(2) 0.82374(15)
C3_7 C 0.4900(2) 0.1110(2) 0.82007(19)
H1_7 H 0.5026 0.0941 0.7981
C4_7 C 0.5312(2) 0.1524(2) 0.84702(19)
H2_7 H 0.5718 0.1635 0.8431
C5_7 C 0.5166(2) 0.1791(2) 0.88007(19)
C6_7 C 0.4570(2) 0.1614(2) 0.88496(16)
H3_7 H 0.4455 0.1787 0.9075
C7_7 C 0.5637(3) 0.2263(3) 0.9087(2)
H4_7 H 0.5826 0.2646 0.8935
H5_7 H 0.5939 0.2153 0.9156
H6_7 H 0.5454 0.2296 0.9356
C8_7 C 0.3528(2) 0.10498(19) 0.86347(14)
H7_7 H 0.3449 0.1261 0.8853
N1_7 N 0.30846(17) 0.06590(17) 0.84090(13)
H8_7 H 0.319(2) 0.050(2) 0.8211(13)
C9_7 C 0.2466(2) 0.0537(2) 0.84304(16)
H9_7 H 0.2315 0.0514 0.8132
H10_7 H 0.2459 0.0871 0.8581
O2_7 O 0.33859(16) 0.22085(23) 0.94097(12)
C11_7 C 0.3799(3) 0.1748(4) 0.98433(17)
C12_7 C 0.3843(3) 0.2248(4) 0.96177(16)
C13_7 C 0.4396(3) 0.2772(4) 0.9629(2)
H13_7 H 0.4442 0.3118 0.9486
C14_7 C 0.4873(3) 0.2801(4) 0.9840(2)
H14_7 H 0.5240 0.3168 0.9839
C18_7 C 0.3250(3) 0.1212(4) 0.98758(17)
N2_7 N 0.2760(2) 0.1127(3) 0.97149(15)
H20_7 H 0.267(3) 0.1370(34) 0.9593(17)
C19_7 C 0.2169(3) 0.0598(4) 0.9774(2)
H21_7 H 0.2208 0.0302 0.9953
H22_7 H 0.1910 0.0714 0.9932
C20_7 C 0.1876(3) 0.0313(2) 0.9343(2)
H23_7 H 0.1448 0.0026 0.9393
H24_7 H 0.1903 0.0625 0.9143
C21_7 C 0.3895(3) 0.0155(2) 0.97919(17)
C25_7 C 0.4966(4) 0.0686(3) 0.9905(2)
C26_7 C 0.4480(3) 0.0421(2) 0.9631(2)
H27_7 H 0.4543 0.0419 0.9328
C27_7 C 0.5598(4) 0.0956(3) 0.9738(3)
H28_7 H 0.5755 0.1380 0.9675
H29_7 H 0.5601 0.0750 0.9472
H30_7 H 0.5847 0.0915 0.9959
N4_7 N 0.21541(17) 0.00029(17) 0.91383(13)
Tb3_7 Tb 0.297636(10) 0.265826(14) 0.900033(7)
O13_7 O 0.45108(28) 0.00526(16) 0.72570(12)
C10_7 C 0.2058(2) 0.9960(2) 0.86670(16)
H11_7 H 0.1639 0.9847 0.8608
H12_7 H 0.2123 0.9641 0.8552
C28_7 C 0.3423(3) 0.9845(2) 0.94921(17)
H31_7 H 0.3521 0.9865 0.9193
N3_7 N 0.28682(27) 0.95382(18) 0.95997(14)
H32_7 H 0.279(3) 0.953(2) 0.9876(7)
C29_7 C 0.2376(4) 0.9201(2) 0.93021(16)
H33_7 H 0.2180 0.8772 0.9376
H34_7 H 0.2531 0.9252 0.9002
C30_7 C 0.1926(2) 0.9409(2) 0.93278(17)
H35_7 H 0.1559 0.9121 0.9173
H36_7 H 0.1821 0.9417 0.9636
O4_7 O 0.27123(15) 0.94885(17) 0.79653(14)
O5_7 O 0.25830(18) 0.88262(17) 0.75032(14)
O6_7 O 0.3654(2) 0.9496(2) 0.84774(13)
O7_7 O 0.44494(18) 0.97316(19) 0.81252(14)
O8_7 O 0.3442(4) 0.8615(3) 0.7855(2)
O9_7 O 0.3665(2) 0.8879(2) 0.71984(18)
N5_7 N 0.2352(2) 0.9017(2) 0.77673(16)
N6_7 N 0.4188(3) 0.9609(3) 0.84826(16)
N7_7 N 0.3474(4) 0.8468(3) 0.7463(3)
O10_7 O 0.18238(18) 0.8774(2) 0.78306(19)
O11_7 O 0.4386 0.9555 0.8816
O12_7 O 0.3318(4) 0.7955(3) 0.7359(3)
C10_8 C 0.0040(2) 0.2099(3) 0.86670(16)
H11_8 H 0.0153 0.1793 0.8608
H12_8 H 0.0359 0.2483 0.8552
C28_8 C 0.0155(2) 0.3579(4) 0.94921(17)
H31_8 H 0.0135 0.3657 0.9193
N3_8 N 0.04618(18) 0.33301(32) 0.95997(14)
H32_8 H 0.047(2) 0.327(4) 0.9876(7)
C29_8 C 0.0799(2) 0.3176(4) 0.93021(16)
H33_8 H 0.1228 0.3409 0.9376
H34_8 H 0.0748 0.3280 0.9002
C30_8 C 0.0591(2) 0.2518(3) 0.93278(17)
H35_8 H 0.0879 0.2439 0.9173
H36_8 H 0.0583 0.2405 0.9636
O4_8 O 0.05115(17) 0.32239(23) 0.79653(14)
O5_8 O 0.11738(17) 0.37569(25) 0.75032(14)
O6_8 O 0.0504(2) 0.4159(3) 0.84774(13)
O7_8 O 0.02684(19) 0.47179(26) 0.81252(14)
O8_8 O 0.1385(3) 0.4828(5) 0.7855(2)
O9_8 O 0.1121(2) 0.4787(3) 0.71984(18)
N5_8 N 0.0983(2) 0.3336(3) 0.77673(16)
N6_8 N 0.0391(3) 0.4580(4) 0.84826(16)
N7_8 N 0.1532(3) 0.5007(5) 0.7463(3)
O10_8 O 0.1226(2) 0.30502(27) 0.78306(19)
O11_8 O 0.0445 0.4832 0.8816
O12_8 O 0.2045(3) 0.5364(5) 0.7359(3)
O1_8 O 0.94647(15) 0.33580(21) 0.79698(11)
C1_8 C 0.88167(19) 0.29441(28) 0.85761(15)
C2_8 C 0.9077(2) 0.3367(3) 0.82374(15)
C3_8 C 0.8890(2) 0.3791(3) 0.82007(19)
H1_8 H 0.9059 0.4086 0.7981
C4_8 C 0.8476(2) 0.3789(3) 0.84702(19)
H2_8 H 0.8365 0.4084 0.8431
C5_8 C 0.8209(2) 0.3376(3) 0.88007(19)
C6_8 C 0.8386(2) 0.2957(3) 0.88496(16)
H3_8 H 0.8213 0.2669 0.9075
C7_8 C 0.7737(3) 0.3375(4) 0.9087(2)
H4_8 H 0.7354 0.3181 0.8935
H5_8 H 0.7847 0.3787 0.9156
H6_8 H 0.7704 0.3159 0.9356
C8_8 C 0.89502(19) 0.24786(28) 0.86347(14)
H7_8 H 0.8739 0.2189 0.8853
N1_8 N 0.93410(17) 0.24257(24) 0.84090(13)
H8_8 H 0.950(2) 0.270(3) 0.8211(13)
C9_8 C 0.9463(2) 0.1930(3) 0.84304(16)
H9_8 H 0.9486 0.1802 0.8132
H10_8 H 0.9129 0.1589 0.8581
O2_8 O 0.77915(23) 0.11775(28) 0.94097(12)
C11_8 C 0.8252(4) 0.2052(5) 0.98433(17)
C12_8 C 0.7752(4) 0.1596(5) 0.96177(16)
C13_8 C 0.7228(4) 0.1625(5) 0.9629(2)
H13_8 H 0.6882 0.1325 0.9486
C14_8 C 0.7199(4) 0.2073(5) 0.9840(2)
H14_8 H 0.6832 0.2073 0.9839
C18_8 C 0.8788(4) 0.2039(5) 0.98758(17)
N2_8 N 0.8873(3) 0.1634(4) 0.97149(15)
H20_8 H 0.8630(34) 0.1304(45) 0.9593(17)
C19_8 C 0.9402(4) 0.1572(5) 0.9774(2)
H21_8 H 0.9698 0.1907 0.9953
H22_8 H 0.9286 0.1197 0.9932
C20_8 C 0.9687(2) 0.1564(4) 0.9343(2)
H23_8 H 0.9974 0.1423 0.9393
H24_8 H 0.9375 0.1279 0.9143
C21_8 C 0.9845(2) 0.3741(4) 0.97919(17)
C25_8 C 0.9314(3) 0.4281(5) 0.9905(2)
C26_8 C 0.9579(2) 0.4060(4) 0.9631(2)
H27_8 H 0.9581 0.4125 0.9328
C27_8 C 0.9044(3) 0.4643(5) 0.9738(3)
H28_8 H 0.8620 0.4376 0.9675
H29_8 H 0.9250 0.4852 0.9472
H30_8 H 0.9085 0.4933 0.9959
N4_8 N 0.99971(17) 0.21513(24) 0.91383(13)
Tb3_8 Tb 0.734174(14) 0.031810(17) 0.900033(7)
O13_8 O 0.99474(16) 0.44582(32) 0.72570(12)
C15_7 C 0.7473(5) 0.5154(3) 0.0055(2)
C16_7 C 0.7487(5) 0.5683(3) 0.0057(2)
H15_7 H 0.7181 0.5712 0.0205
C17_7 C 0.6971(6) 0.4615(4) 0.0294(3)
H16_7 H 0.6679 0.4343 0.0082
H17_7 H 0.7140 0.4406 0.0453
H18_7 H 0.6776 0.4752 0.0498
H19_7 H 0.7646 0.6755 0.0029
C22_7 C 0.6377(4) 0.6215(3) 0.02414(16)
C23_7 C 0.6155(5) 0.5715(4) 0.0512(2)
H25_7 H 0.6226 0.5768 0.0816
C24_7 C 0.5833(5) 0.5146(4) 0.0346(2)
H26_7 H 0.5684 0.4818 0.0541
O1_9 O 0.66420(21) 0.61068(14) 0.79698(11)
C1_9 C 0.70559(28) 0.5873(2) 0.85761(15)
C2_9 C 0.6633(3) 0.5711(2) 0.82374(15)
C3_9 C 0.6209(3) 0.5100(2) 0.82007(19)
H1_9 H 0.5914 0.4974 0.7981
C4_9 C 0.6211(3) 0.4688(2) 0.84702(19)
H2_9 H 0.5916 0.4282 0.8431
C5_9 C 0.6624(3) 0.4834(2) 0.88007(19)
C6_9 C 0.7043(3) 0.5430(2) 0.88496(16)
H3_9 H 0.7331 0.5545 0.9075
C7_9 C 0.6625(4) 0.4363(3) 0.9087(2)
H4_9 H 0.6819 0.4174 0.8935
H5_9 H 0.6213 0.4061 0.9156
H6_9 H 0.6841 0.4546 0.9356
C8_9 C 0.75214(28) 0.6472(2) 0.86347(14)
H7_9 H 0.7811 0.6551 0.8853
N1_9 N 0.75743(24) 0.69154(17) 0.84090(13)
H8_9 H 0.730(3) 0.681(2) 0.8211(13)
C9_9 C 0.8070(3) 0.7534(2) 0.84304(16)
H9_9 H 0.8198 0.7685 0.8132
H10_9 H 0.8411 0.7541 0.8581
C10_9 C 0.7901(3) 0.7942(2) 0.86670(16)
H11_9 H 0.8207 0.8361 0.8608
H12_9 H 0.7517 0.7877 0.8552
O2_9 O 0.88225(28) 0.66141(16) 0.94097(12)
C11_9 C 0.7948(5) 0.6201(3) 0.98433(17)
C12_9 C 0.8404(5) 0.6157(3) 0.96177(16)
C13_9 C 0.8375(5) 0.5604(3) 0.9629(2)
H13_9 H 0.8675 0.5558 0.9486
C14_9 C 0.7927(5) 0.5127(3) 0.9840(2)
H14_9 H 0.7927 0.4760 0.9839
C18_9 C 0.7961(5) 0.6750(3) 0.98758(17)
N2_9 N 0.8366(4) 0.7240(2) 0.97149(15)
H20_9 H 0.8696(45) 0.733(3) 0.9593(17)
C19_9 C 0.8428(5) 0.7831(3) 0.9774(2)
H21_9 H 0.8093 0.7792 0.9953
H22_9 H 0.8803 0.8090 0.9932
C20_9 C 0.8436(4) 0.8124(3) 0.9343(2)
H23_9 H 0.8577 0.8552 0.9393
H24_9 H 0.8721 0.8097 0.9143
C21_9 C 0.6259(4) 0.6105(3) 0.97919(17)
C25_9 C 0.5719(5) 0.5034(4) 0.9905(2)
C26_9 C 0.5940(4) 0.5520(3) 0.9631(2)
H27_9 H 0.5875 0.5457 0.9328
C27_9 C 0.5357(5) 0.4402(4) 0.9738(3)
H28_9 H 0.5624 0.4245 0.9675
H29_9 H 0.5148 0.4399 0.9472
H30_9 H 0.5067 0.4153 0.9959
C28_9 C 0.6421(4) 0.6577(3) 0.94921(17)
H31_9 H 0.6343 0.6479 0.9193
N3_9 N 0.66699(32) 0.71318(27) 0.95997(14)
H32_9 H 0.673(4) 0.721(3) 0.9876(7)
C29_9 C 0.6824(4) 0.7624(4) 0.93021(16)
H33_9 H 0.6591 0.7820 0.9376
H34_9 H 0.6720 0.7469 0.9002
C30_9 C 0.7482(3) 0.8074(2) 0.93278(17)
H35_9 H 0.7561 0.8441 0.9173
H36_9 H 0.7595 0.8179 0.9636
N4_9 N 0.78487(24) 0.78459(17) 0.91383(13)
O4_9 O 0.67761(23) 0.72877(15) 0.79653(14)
O5_9 O 0.62431(25) 0.74170(18) 0.75032(14)
O6_9 O 0.5841(3) 0.6346(2) 0.84774(13)
O7_9 O 0.52821(26) 0.55506(18) 0.81252(14)
O8_9 O 0.5172(5) 0.6558(4) 0.7855(2)
O9_9 O 0.5213(3) 0.6335(2) 0.71984(18)
N5_9 N 0.6664(3) 0.7648(2) 0.77673(16)
N6_9 N 0.5420(4) 0.5812(3) 0.84826(16)
N7_9 N 0.4993(5) 0.6526(4) 0.7463(3)
O10_9 O 0.69498(27) 0.81762(18) 0.78306(19)
O11_9 O 0.5168 0.5614 0.8816
O12_9 O 0.4636(5) 0.6682(4) 0.7359(3)
Tb3_9 Tb 0.968190(17) 0.702364(10) 0.900033(7)
O13_9 O 0.55418(32) 0.54892(28) 0.72570(12)
N1_10 N 0.02487(17) 0.60077(17) 0.82577(13)
H8_10 H 0.014(2) 0.617(2) 0.8456(13)
C9_10 C 0.0867(2) 0.6130(2) 0.82363(16)
H9_10 H 0.1018 0.6153 0.8535
H10_10 H 0.0874 0.5796 0.8086
C10_10 C 0.1275(2) 0.6707(2) 0.79997(16)
H11_10 H 0.1694 0.6820 0.8059
H12_10 H 0.1210 0.7026 0.8115
C18_10 C 0.0083(3) 0.5455(4) 0.67909(17)
H19_8 H 0.0088 0.5775 0.6638
N2_10 N 0.0573(2) 0.5540(3) 0.69518(15)
H20_10 H 0.066(3) 0.5297(34) 0.7074(17)
C19_10 C 0.1164(3) 0.6069(4) 0.6893(2)
H21_10 H 0.1125 0.6365 0.6714
H22_10 H 0.1423 0.5953 0.6735
C20_10 C 0.1457(3) 0.6354(2) 0.7324(2)
H23_10 H 0.1885 0.6641 0.7274
H24_10 H 0.1430 0.6042 0.7524
O3_7 O 0.00939(21) 0.67333(15) 0.62763(11)
N3_10 N 0.04651(27) 0.71285(18) 0.70670(14)
H32_10 H 0.054(3) 0.714(2) 0.6791(7)
C29_10 C 0.0957(4) 0.7466(2) 0.73646(16)
H33_10 H 0.1153 0.7895 0.7291
H34_10 H 0.0802 0.7415 0.7665
C30_10 C 0.1407(2) 0.7258(2) 0.73389(17)
H35_10 H 0.1774 0.7546 0.7494
H36_10 H 0.1512 0.7250 0.7031
N4_10 N 0.11792(17) 0.66638(17) 0.75284(13)
O4_10 O 0.06210(15) 0.71782(17) 0.87014(14)
O5_10 O 0.07503(18) 0.78405(17) 0.91635(14)
N5_10 N 0.0981(2) 0.7650(2) 0.88994(16)
O10_10 O 0.15095(18) 0.7893(2) 0.88361(19)
O12_10 O 0.0015(4) 0.8712(3) 0.9308(3)
O1_10 O 0.94401(14) 0.61314(15) 0.86969(11)
C1_10 C 0.9206(2) 0.54834(19) 0.80906(15)
C2_10 C 0.9044(2) 0.5744(2) 0.84293(15)
C3_10 C 0.8433(2) 0.5557(2) 0.84660(19)
H1_10 H 0.8307 0.5726 0.8686
C4_10 C 0.8021(2) 0.5143(2) 0.81965(19)
H2_10 H 0.7615 0.5032 0.8236
C5_10 C 0.8167(2) 0.4876(2) 0.78660(19)
C6_10 C 0.8763(2) 0.5053(2) 0.78171(16)
H3_10 H 0.8878 0.4880 0.7592
C7_10 C 0.7696(3) 0.4404(3) 0.7580(2)
H4_10 H 0.7507 0.4021 0.7732
H5_10 H 0.7394 0.4514 0.7511
H6_10 H 0.7879 0.4371 0.7311
C8_10 C 0.9805(2) 0.56169(19) 0.80320(14)
H7_10 H 0.9884 0.5406 0.7814
C11_10 C 0.9534(3) 0.4919(4) 0.68234(17)
C12_10 C 0.9490(3) 0.4419(4) 0.70490(16)
C13_10 C 0.8937(3) 0.3895(4) 0.7038(2)
H13_10 H 0.8891 0.3549 0.7181
C14_10 C 0.8460(3) 0.3866(4) 0.6827(2)
H14_10 H 0.8093 0.3499 0.6828
C15_8 C 0.8487(3) 0.4347(4) 0.6612(2)
C16_8 C 0.9016(3) 0.4862(4) 0.6610(2)
H15_8 H 0.9045 0.5197 0.6462
C17_8 C 0.7948(4) 0.4310(5) 0.6373(3)
H16_8 H 0.7676 0.4330 0.6585
H17_8 H 0.7739 0.3932 0.6214
H18_8 H 0.8085 0.4642 0.6169
C21_10 C 0.9438(3) 0.6512(2) 0.68748(17)
C22_8 C 0.9548(3) 0.6504(2) 0.64253(16)
C23_8 C 0.9048(4) 0.6226(3) 0.6155(2)
H25_8 H 0.9101 0.6208 0.5851
C24_8 C 0.8479(4) 0.5979(3) 0.6321(2)
H26_8 H 0.8151 0.5800 0.6126
C25_10 C 0.8367(4) 0.5981(3) 0.6762(2)
C26_10 C 0.8853(3) 0.6246(2) 0.7036(2)
H27_10 H 0.8790 0.6248 0.7339
C27_10 C 0.7735(4) 0.5711(3) 0.6929(3)
H28_10 H 0.7578 0.5287 0.6992
H29_10 H 0.7732 0.5917 0.7195
H30_10 H 0.7486 0.5752 0.6708
C28_10 C 0.9910(3) 0.6822(2) 0.71746(17)
H31_10 H 0.9812 0.6802 0.7474
O6_10 O 0.9679(2) 0.7171(2) 0.81893(13)
O7_10 O 0.88839(18) 0.69351(19) 0.85415(14)
O8_10 O 0.9891(4) 0.8052(3) 0.8812(2)
O9_10 O 0.9668(2) 0.7788(2) 0.94683(18)
N6_10 N 0.9145(3) 0.7058(3) 0.81841(16)
N7_10 N 0.9859(4) 0.8199(3) 0.9204(3)
O11_10 O 0.8947 0.7112 0.7851
O14_4 O 0.99334(15) 0.66939(26) 0.96096(11)
O1_11 O 0.38686(15) 0.33087(21) 0.86969(11)
C1_11 C 0.45166(19) 0.37226(28) 0.80906(15)
C2_11 C 0.4256(2) 0.3300(3) 0.84293(15)
C3_11 C 0.4443(2) 0.2876(3) 0.84660(19)
H1_11 H 0.4274 0.2581 0.8686
C4_11 C 0.4857(2) 0.2878(3) 0.81965(19)
H2_11 H 0.4968 0.2583 0.8236
C5_11 C 0.5124(2) 0.3291(3) 0.78660(19)
C6_11 C 0.4947(2) 0.3710(3) 0.78171(16)
H3_11 H 0.5120 0.3998 0.7592
C7_11 C 0.5596(3) 0.3292(4) 0.7580(2)
H4_11 H 0.5979 0.3486 0.7732
H5_11 H 0.5486 0.2880 0.7511
H6_11 H 0.5629 0.3508 0.7311
C8_11 C 0.43831(19) 0.41881(28) 0.80320(14)
H7_11 H 0.4594 0.4478 0.7814
N1_11 N 0.39923(17) 0.42410(24) 0.82577(13)
H8_11 H 0.383(2) 0.397(3) 0.8456(13)
C9_11 C 0.3870(2) 0.4737(3) 0.82363(16)
H9_11 H 0.3847 0.4865 0.8535
H10_11 H 0.4204 0.5078 0.8086
C10_11 C 0.3293(2) 0.4568(3) 0.79997(16)
H11_11 H 0.3180 0.4874 0.8059
H12_11 H 0.2974 0.4184 0.8115
C11_11 C 0.5081(4) 0.4615(5) 0.68234(17)
C12_11 C 0.5581(4) 0.5071(5) 0.70490(16)
C13_11 C 0.6105(4) 0.5042(5) 0.7038(2)
H13_11 H 0.6451 0.5342 0.7181
C14_11 C 0.6134(4) 0.4594(5) 0.6827(2)
H14_11 H 0.6501 0.4594 0.6828
C15_9 C 0.5653(4) 0.4140(5) 0.6612(2)
C16_9 C 0.5138(4) 0.4154(5) 0.6610(2)
H15_9 H 0.4803 0.3848 0.6462
C17_9 C 0.5690(5) 0.3638(6) 0.6373(3)
H16_9 H 0.5670 0.3346 0.6585
H17_9 H 0.6068 0.3807 0.6214
H18_9 H 0.5358 0.3443 0.6169
C18_11 C 0.4545(4) 0.4628(5) 0.67909(17)
H19_9 H 0.4225 0.4313 0.6638
N2_11 N 0.4460(3) 0.5033(4) 0.69518(15)
H20_11 H 0.4703(34) 0.5363(45) 0.7074(17)
C19_11 C 0.3931(4) 0.5095(5) 0.6893(2)
H21_11 H 0.3635 0.4760 0.6714
H22_11 H 0.4047 0.5470 0.6735
C20_11 C 0.3646(2) 0.5103(4) 0.7324(2)
H23_11 H 0.3359 0.5244 0.7274
H24_11 H 0.3958 0.5388 0.7524
O3_8 O 0.32667(15) 0.33606(26) 0.62763(11)
C21_11 C 0.3488(2) 0.2926(4) 0.68748(17)
C22_9 C 0.3496(2) 0.3044(4) 0.64253(16)
C23_9 C 0.3774(3) 0.2822(5) 0.6155(2)
H25_9 H 0.3792 0.2893 0.5851
C24_9 C 0.4021(3) 0.2500(5) 0.6321(2)
H26_9 H 0.4200 0.2351 0.6126
C25_11 C 0.4019(3) 0.2386(5) 0.6762(2)
C26_11 C 0.3754(2) 0.2607(4) 0.7036(2)
H27_11 H 0.3752 0.2542 0.7339
C27_11 C 0.4289(3) 0.2024(5) 0.6929(3)
H28_11 H 0.4713 0.2291 0.6992
H29_11 H 0.4083 0.1815 0.7195
H30_11 H 0.4248 0.1734 0.6708
C28_11 C 0.3178(2) 0.3088(4) 0.71746(17)
H31_11 H 0.3198 0.3010 0.7474
N3_11 N 0.28715(18) 0.33366(32) 0.70670(14)
H32_11 H 0.286(2) 0.340(4) 0.6791(7)
C29_11 C 0.2534(2) 0.3491(4) 0.73646(16)
H33_11 H 0.2105 0.3258 0.7291
H34_11 H 0.2585 0.3387 0.7665
C30_11 C 0.2742(2) 0.4149(3) 0.73389(17)
H35_11 H 0.2454 0.4228 0.7494
H36_11 H 0.2750 0.4262 0.7031
N4_11 N 0.33362(17) 0.45154(24) 0.75284(13)
O4_11 O 0.28218(17) 0.34428(23) 0.87014(14)
O5_11 O 0.21595(17) 0.29098(25) 0.91635(14)
O6_11 O 0.2829(2) 0.2508(3) 0.81893(13)
O7_11 O 0.30649(19) 0.19488(26) 0.85415(14)
O8_11 O 0.1948(3) 0.1839(5) 0.8812(2)
O9_11 O 0.2212(2) 0.1880(3) 0.94683(18)
N5_11 N 0.2350(2) 0.3331(3) 0.88994(16)
N6_11 N 0.2942(3) 0.2087(4) 0.81841(16)
N7_11 N 0.1801(3) 0.1660(5) 0.9204(3)
O10_11 O 0.2107(2) 0.36165(27) 0.88361(19)
O11_11 O 0.2888 0.1835 0.7851
O12_11 O 0.1288(3) 0.1303(5) 0.9308(3)
O14_5 O 0.33061(26) 0.32394(30) 0.96096(11)
O1_12 O 0.66913(21) 0.05599(14) 0.86969(11)
C1_12 C 0.62774(28) 0.0794(2) 0.80906(15)
C2_12 C 0.6700(3) 0.0956(2) 0.84293(15)
C3_12 C 0.7124(3) 0.1567(2) 0.84660(19)
H1_12 H 0.7419 0.1693 0.8686
C4_12 C 0.7122(3) 0.1979(2) 0.81965(19)
H2_12 H 0.7417 0.2385 0.8236
C5_12 C 0.6709(3) 0.1833(2) 0.78660(19)
C6_12 C 0.6290(3) 0.1237(2) 0.78171(16)
H3_12 H 0.6002 0.1122 0.7592
C7_12 C 0.6708(4) 0.2304(3) 0.7580(2)
H4_12 H 0.6514 0.2493 0.7732
H5_12 H 0.7120 0.2606 0.7511
H6_12 H 0.6492 0.2121 0.7311
C8_12 C 0.58119(28) 0.0195(2) 0.80320(14)
H7_12 H 0.5522 0.0116 0.7814
C11_12 C 0.5385(5) 0.0466(3) 0.68234(17)
C12_12 C 0.4929(5) 0.0510(3) 0.70490(16)
C13_12 C 0.4958(5) 0.1063(3) 0.7038(2)
H13_12 H 0.4658 0.1109 0.7181
C14_12 C 0.5406(5) 0.1540(3) 0.6827(2)
H14_12 H 0.5406 0.1907 0.6828
C15_10 C 0.5860(5) 0.1513(3) 0.6612(2)
C16_10 C 0.5846(5) 0.0984(3) 0.6610(2)
H15_10 H 0.6152 0.0955 0.6462
C17_10 C 0.6362(6) 0.2052(4) 0.6373(3)
H16_10 H 0.6654 0.2324 0.6585
H17_10 H 0.6193 0.2261 0.6214
H18_10 H 0.6557 0.1915 0.6169
C21_12 C 0.7074(4) 0.0562(3) 0.68748(17)
C22_10 C 0.6956(4) 0.0452(3) 0.64253(16)
C23_10 C 0.7178(5) 0.0952(4) 0.6155(2)
H25_10 H 0.7107 0.0899 0.5851
C24_10 C 0.7500(5) 0.1521(4) 0.6321(2)
H26_10 H 0.7649 0.1849 0.6126
C25_12 C 0.7614(5) 0.1633(4) 0.6762(2)
C26_12 C 0.7393(4) 0.1147(3) 0.7036(2)
H27_12 H 0.7458 0.1210 0.7339
C27_12 C 0.7976(5) 0.2265(4) 0.6929(3)
H28_12 H 0.7709 0.2422 0.6992
H29_12 H 0.8185 0.2268 0.7195
H30_12 H 0.8266 0.2514 0.6708
C28_12 C 0.6912(4) 0.0090(3) 0.71746(17)
H31_12 H 0.6990 0.0188 0.7474
O6_12 O 0.7492(3) 0.0321(2) 0.81893(13)
O7_12 O 0.80512(26) 0.11161(18) 0.85415(14)
O8_12 O 0.8161(5) 0.0109(4) 0.8812(2)
O9_12 O 0.8120(3) 0.0332(2) 0.94683(18)
N6_12 N 0.7913(4) 0.0855(3) 0.81841(16)
N7_12 N 0.8340(5) 0.0141(4) 0.9204(3)
O11_12 O 0.8165 0.1053 0.7851
O14_6 O 0.67606(30) 0.00666(15) 0.96096(11)
N1_12 N 0.57590(24) 0.97513(17) 0.82577(13)
H8_12 H 0.603(3) 0.986(2) 0.8456(13)
C9_12 C 0.5263(3) 0.9133(2) 0.82363(16)
H9_12 H 0.5135 0.8982 0.8535
H10_12 H 0.4922 0.9126 0.8086
C10_12 C 0.5432(3) 0.8725(2) 0.79997(16)
H11_12 H 0.5126 0.8306 0.8059
H12_12 H 0.5816 0.8790 0.8115
C18_12 C 0.5372(5) 0.9917(3) 0.67909(17)
H19_10 H 0.5687 0.9912 0.6638
N2_12 N 0.4967(4) 0.9427(2) 0.69518(15)
H20_12 H 0.4637(45) 0.934(3) 0.7074(17)
C19_12 C 0.4905(5) 0.8836(3) 0.6893(2)
H21_12 H 0.5240 0.8875 0.6714
H22_12 H 0.4530 0.8577 0.6735
C20_12 C 0.4897(4) 0.8543(3) 0.7324(2)
H23_12 H 0.4756 0.8115 0.7274
H24_12 H 0.4612 0.8570 0.7524
O3_9 O 0.66394(26) 0.99061(21) 0.62763(11)
N3_12 N 0.66634(32) 0.95349(27) 0.70670(14)
H32_12 H 0.660(4) 0.946(3) 0.6791(7)
C29_12 C 0.6509(4) 0.9043(4) 0.73646(16)
H33_12 H 0.6742 0.8847 0.7291
H34_12 H 0.6613 0.9198 0.7665
C30_12 C 0.5851(3) 0.8593(2) 0.73389(17)
H35_12 H 0.5772 0.8226 0.7494
H36_12 H 0.5738 0.8488 0.7031
N4_12 N 0.54846(24) 0.88208(17) 0.75284(13)
O4_12 O 0.65572(23) 0.93790(15) 0.87014(14)
O5_12 O 0.70902(25) 0.92497(18) 0.91635(14)
N5_12 N 0.6669(3) 0.9019(2) 0.88994(16)
O10_12 O 0.63835(27) 0.84905(18) 0.88361(19)
O12_12 O 0.8697(5) 0.9985(4) 0.9308(3)
O1_13 O 0.27734(14) 0.27981(15) 0.53636(11)
C1_13 C 0.2539(2) 0.21501(19) 0.47573(15)
C2_13 C 0.2377(2) 0.2411(2) 0.50960(15)
C3_13 C 0.1766(2) 0.2224(2) 0.51327(19)
H1_13 H 0.1640 0.2393 0.5353
C4_13 C 0.1354(2) 0.1810(2) 0.48632(19)
H2_13 H 0.0948 0.1699 0.4903
C5_13 C 0.1500(2) 0.1543(2) 0.45327(19)
C6_13 C 0.2096(2) 0.1720(2) 0.44838(16)
H3_13 H 0.2211 0.1547 0.4259
C7_13 C 0.1029(3) 0.1071(3) 0.4247(2)
H4_13 H 0.0840 0.0688 0.4399
H5_13 H 0.0727 0.1181 0.4178
H6_13 H 0.1212 0.1038 0.3978
C8_13 C 0.3138(2) 0.22836(19) 0.46987(14)
H7_13 H 0.3217 0.2073 0.4481
N1_13 N 0.35820(17) 0.26744(17) 0.49244(13)
H8_13 H 0.347(2) 0.284(2) 0.5123(13)
C9_13 C 0.4200(2) 0.2797(2) 0.49030(16)
H9_13 H 0.4351 0.2820 0.5202
H10_13 H 0.4207 0.2463 0.4753
C10_13 C 0.4608(2) 0.3374(2) 0.46664(16)
H11_13 H 0.5027 0.3487 0.4726
H12_13 H 0.4543 0.3693 0.4782
C11_13 C 0.2867(3) 0.1586(4) 0.34901(17)
C12_13 C 0.2823(3) 0.1086(4) 0.37157(16)
C13_13 C 0.2270(3) 0.0562(4) 0.3705(2)
H13_13 H 0.2224 0.0216 0.3848
C14_13 C 0.1793(3) 0.0533(4) 0.3494(2)
H14_13 H 0.1426 0.0166 0.3495
C15_11 C 0.1820(3) 0.1014(4) 0.3279(2)
C16_11 C 0.2349(3) 0.1529(4) 0.3277(2)
H15_11 H 0.2378 0.1864 0.3129
C17_11 C 0.1281(4) 0.0977(5) 0.3040(3)
H16_11 H 0.1009 0.0997 0.3252
H17_11 H 0.1072 0.0599 0.2881
H18_11 H 0.1418 0.1309 0.2836
C18_13 C 0.3416(3) 0.2122(4) 0.34576(17)
H19_11 H 0.3421 0.2442 0.3305
N2_13 N 0.3906(2) 0.2207(3) 0.36185(15)
H20_13 H 0.399(3) 0.1964(34) 0.3741(17)
C19_13 C 0.4497(3) 0.2736(4) 0.3560(2)
H21_13 H 0.4458 0.3032 0.3381
H22_13 H 0.4756 0.2620 0.3402
C20_13 C 0.4790(3) 0.3021(2) 0.3991(2)
H23_13 H 0.5218 0.3308 0.3941
H24_13 H 0.4763 0.2709 0.4191
O3_10 O 0.34272(21) 0.34000(15) 0.29430(11)
C21_13 C 0.2771(3) 0.3179(2) 0.35415(17)
C22_11 C 0.2881(3) 0.3171(2) 0.30920(16)
C23_11 C 0.2381(4) 0.2893(3) 0.2822(2)
H25_11 H 0.2434 0.2875 0.2518
C24_11 C 0.1812(4) 0.2646(3) 0.2988(2)
H26_11 H 0.1484 0.2467 0.2793
C25_13 C 0.1700(4) 0.2648(3) 0.3429(2)
C26_13 C 0.2186(3) 0.2913(2) 0.3703(2)
H27_13 H 0.2123 0.2915 0.4006
C27_13 C 0.1068(4) 0.2378(3) 0.3596(3)
H28_13 H 0.0911 0.1954 0.3659
H29_13 H 0.1065 0.2584 0.3862
H30_13 H 0.0819 0.2419 0.3375
C28_13 C 0.3243(3) 0.3489(2) 0.38413(17)
H31_13 H 0.3145 0.3469 0.4141
N3_13 N 0.37984(27) 0.37952(18) 0.37337(14)
H32_13 H 0.387(3) 0.381(2) 0.3458(7)
C29_13 C 0.4290(4) 0.4133(2) 0.40313(16)
H33_13 H 0.4486 0.4562 0.3958
H34_13 H 0.4135 0.4082 0.4332
C30_13 C 0.4740(2) 0.3925(2) 0.40056(17)
H35_13 H 0.5107 0.4213 0.4161
H36_13 H 0.4845 0.3917 0.3698
N4_13 N 0.45125(17) 0.33305(17) 0.41951(13)
O4_13 O 0.39543(15) 0.38449(17) 0.53681(14)
O5_13 O 0.40836(18) 0.45072(17) 0.58302(14)
O6_13 O 0.3012(2) 0.3838(2) 0.48560(13)
O7_13 O 0.22172(18) 0.36018(19) 0.52082(14)
O8_13 O 0.3224(4) 0.4719(3) 0.5479(2)
O9_13 O 0.3001(2) 0.4455(2) 0.61350(18)
N5_13 N 0.4314(2) 0.4317(2) 0.55661(16)
N6_13 N 0.2478(3) 0.3725(3) 0.48508(16)
N7_13 N 0.3192(4) 0.4866(3) 0.5871(3)
O10_13 O 0.48428(18) 0.4560(2) 0.55028(19)
O11_13 O 0.2280 0.3779 0.4518
O12_13 O 0.3348(4) 0.5379(3) 0.5975(3)
C1_14 C 0.78499(19) 0.03893(28) 0.47573(15)
C6_14 C 0.8280(2) 0.0377(3) 0.44838(16)
H3_14 H 0.8453 0.0665 0.4259
H4_14 H 0.9312 0.0153 0.4399
H6_14 H 0.8962 0.0175 0.3978
C8_14 C 0.77164(19) 0.08548(28) 0.46987(14)
H7_14 H 0.7927 0.1145 0.4481
N1_14 N 0.73256(17) 0.09077(24) 0.49244(13)
H8_14 H 0.716(2) 0.064(3) 0.5123(13)
C9_14 C 0.7203(2) 0.1404(3) 0.49030(16)
H9_14 H 0.7180 0.1532 0.5202
H10_14 H 0.7537 0.1745 0.4753
C10_14 C 0.6626(2) 0.1235(3) 0.46664(16)
H11_14 H 0.6513 0.1541 0.4726
H12_14 H 0.6307 0.0851 0.4782
C11_14 C 0.8414(4) 0.1282(5) 0.34901(17)
C12_14 C 0.8914(4) 0.1738(5) 0.37157(16)
C13_14 C 0.9438(4) 0.1709(5) 0.3705(2)
H13_14 H 0.9784 0.2009 0.3848
C14_14 C 0.9467(4) 0.1261(5) 0.3494(2)
H14_14 H 0.9834 0.1261 0.3495
C15_12 C 0.8986(4) 0.0807(5) 0.3279(2)
C16_12 C 0.8471(4) 0.0821(5) 0.3277(2)
H15_12 H 0.8136 0.0515 0.3129
C17_12 C 0.9023(5) 0.0305(6) 0.3040(3)
H16_12 H 0.9003 0.0013 0.3252
H17_12 H 0.9401 0.0474 0.2881
H18_12 H 0.8691 0.0110 0.2836
C18_14 C 0.7878(4) 0.1295(5) 0.34576(17)
H19_12 H 0.7558 0.0980 0.3305
N2_14 N 0.7793(3) 0.1700(4) 0.36185(15)
H20_14 H 0.8036(34) 0.2030(45) 0.3741(17)
C19_14 C 0.7264(4) 0.1762(5) 0.3560(2)
H21_14 H 0.6968 0.1427 0.3381
H22_14 H 0.7380 0.2137 0.3402
C20_14 C 0.6979(2) 0.1770(4) 0.3991(2)
H23_14 H 0.6692 0.1911 0.3941
H24_14 H 0.7291 0.2055 0.4191
O3_11 O 0.66000(15) 0.00273(26) 0.29430(11)
N3_14 N 0.62048(18) 0.00033(32) 0.37337(14)
H32_14 H 0.619(2) 0.007(4) 0.3458(7)
C29_14 C 0.5867(2) 0.0158(4) 0.40313(16)
H34_14 H 0.5918 0.0054 0.4332
C30_14 C 0.6075(2) 0.0816(3) 0.40056(17)
H35_14 H 0.5787 0.0895 0.4161
H36_14 H 0.6083 0.0929 0.3698
N4_14 N 0.66695(17) 0.11821(24) 0.41951(13)
O4_14 O 0.61551(17) 0.01095(23) 0.53681(14)
O10_14 O 0.5440(2) 0.02832(27) 0.55028(19)
O1_14 O 0.72019(15) 0.99754(21) 0.53636(11)
C2_14 C 0.7589(2) 0.9967(3) 0.50960(15)
C3_14 C 0.7776(2) 0.9543(3) 0.51327(19)
H1_14 H 0.7607 0.9248 0.5353
C4_14 C 0.8190(2) 0.9545(3) 0.48632(19)
H2_14 H 0.8301 0.9250 0.4903
C5_14 C 0.8457(2) 0.9958(3) 0.45327(19)
C7_14 C 0.8929(3) 0.9959(4) 0.4247(2)
H5_14 H 0.8819 0.9547 0.4178
C21_14 C 0.6821(2) 0.9593(4) 0.35415(17)
C22_12 C 0.6829(2) 0.9711(4) 0.30920(16)
C23_12 C 0.7107(3) 0.9489(5) 0.2822(2)
H25_12 H 0.7125 0.9560 0.2518
C24_12 C 0.7354(3) 0.9167(5) 0.2988(2)
H26_12 H 0.7533 0.9018 0.2793
C25_14 C 0.7352(3) 0.9053(5) 0.3429(2)
C26_14 C 0.7087(2) 0.9274(4) 0.3703(2)
H27_14 H 0.7085 0.9209 0.4006
C27_14 C 0.7622(3) 0.8691(5) 0.3596(3)
H28_14 H 0.8046 0.8958 0.3659
H29_14 H 0.7416 0.8482 0.3862
H30_14 H 0.7581 0.8401 0.3375
C28_14 C 0.6511(2) 0.9755(4) 0.38413(17)
H31_14 H 0.6531 0.9677 0.4141
H33_14 H 0.5438 0.9925 0.3958
O5_14 O 0.54928(17) 0.95765(25) 0.58302(14)
O6_14 O 0.6162(2) 0.9175(3) 0.48560(13)
O7_14 O 0.63982(19) 0.86155(26) 0.52082(14)
O8_14 O 0.5281(3) 0.8506(5) 0.5479(2)
O9_14 O 0.5545(2) 0.8547(3) 0.61350(18)
N5_14 N 0.5683(2) 0.9998(3) 0.55661(16)
N6_14 N 0.6275(3) 0.8754(4) 0.48508(16)
N7_14 N 0.5134(3) 0.8327(5) 0.5871(3)
O11_14 O 0.6221 0.8502 0.4518
O12_14 O 0.4621(3) 0.7970(5) 0.5975(3)
O1_15 O 0.00246(21) 0.72266(14) 0.53636(11)
C2_15 C 0.0033(3) 0.7623(2) 0.50960(15)
C3_15 C 0.0457(3) 0.8234(2) 0.51327(19)
H1_15 H 0.0752 0.8360 0.5353
C4_15 C 0.0455(3) 0.8646(2) 0.48632(19)
H2_15 H 0.0750 0.9052 0.4903
C5_15 C 0.0042(3) 0.8500(2) 0.45327(19)
C7_15 C 0.0041(4) 0.8971(3) 0.4247(2)
H5_15 H 0.0453 0.9273 0.4178
C21_15 C 0.0407(4) 0.7229(3) 0.35415(17)
C22_13 C 0.0289(4) 0.7119(3) 0.30920(16)
C23_13 C 0.0511(5) 0.7619(4) 0.2822(2)
H25_13 H 0.0440 0.7566 0.2518
C24_13 C 0.0833(5) 0.8188(4) 0.2988(2)
H26_13 H 0.0982 0.8516 0.2793
C25_15 C 0.0947(5) 0.8300(4) 0.3429(2)
C26_15 C 0.0726(4) 0.7814(3) 0.3703(2)
H27_15 H 0.0791 0.7877 0.4006
C27_15 C 0.1309(5) 0.8932(4) 0.3596(3)
H28_15 H 0.1042 0.9089 0.3659
H29_15 H 0.1518 0.8935 0.3862
H30_15 H 0.1599 0.9181 0.3375
C28_15 C 0.0245(4) 0.6757(3) 0.38413(17)
H31_15 H 0.0323 0.6855 0.4141
H33_15 H 0.0075 0.5514 0.3958
O5_15 O 0.04235(25) 0.59164(18) 0.58302(14)
O6_15 O 0.0825(3) 0.6988(2) 0.48560(13)
O7_15 O 0.13845(26) 0.77828(18) 0.52082(14)
O8_15 O 0.1494(5) 0.6776(4) 0.5479(2)
O9_15 O 0.1453(3) 0.6999(2) 0.61350(18)
N5_15 N 0.0002(3) 0.5686(2) 0.55661(16)
N6_15 N 0.1246(4) 0.7522(3) 0.48508(16)
N7_15 N 0.1673(5) 0.6808(4) 0.5871(3)
O11_15 O 0.1498 0.7720 0.4518
O12_15 O 0.2030(5) 0.6652(4) 0.5975(3)
C1_15 C 0.96107(28) 0.7461(2) 0.47573(15)
C6_15 C 0.9623(3) 0.7904(2) 0.44838(16)
H3_15 H 0.9335 0.7789 0.4259
H4_15 H 0.9847 0.9160 0.4399
H6_15 H 0.9825 0.8788 0.3978
C8_15 C 0.91452(28) 0.6862(2) 0.46987(14)
H7_15 H 0.8855 0.6783 0.4481
N1_15 N 0.90923(24) 0.64180(17) 0.49244(13)
H8_15 H 0.936(3) 0.653(2) 0.5123(13)
C9_15 C 0.8596(3) 0.5800(2) 0.49030(16)
H9_15 H 0.8468 0.5649 0.5202
H10_15 H 0.8255 0.5793 0.4753
C10_15 C 0.8765(3) 0.5392(2) 0.46664(16)
H11_15 H 0.8459 0.4973 0.4726
H12_15 H 0.9149 0.5457 0.4782
C11_15 C 0.8718(5) 0.7133(3) 0.34901(17)
C12_15 C 0.8262(5) 0.7177(3) 0.37157(16)
C13_15 C 0.8291(5) 0.7730(3) 0.3705(2)
H13_15 H 0.7991 0.7776 0.3848
C14_15 C 0.8739(5) 0.8207(3) 0.3494(2)
H14_15 H 0.8739 0.8574 0.3495
C15_13 C 0.9193(5) 0.8180(3) 0.3279(2)
C16_13 C 0.9179(5) 0.7651(3) 0.3277(2)
H15_13 H 0.9485 0.7622 0.3129
C17_13 C 0.9695(6) 0.8719(4) 0.3040(3)
H16_13 H 0.9987 0.8991 0.3252
H17_13 H 0.9526 0.8928 0.2881
H18_13 H 0.9890 0.8582 0.2836
C18_15 C 0.8705(5) 0.6584(3) 0.34576(17)
H19_13 H 0.9020 0.6579 0.3305
N2_15 N 0.8300(4) 0.6094(2) 0.36185(15)
H20_15 H 0.7970(45) 0.601(3) 0.3741(17)
C19_15 C 0.8238(5) 0.5503(3) 0.3560(2)
H21_15 H 0.8573 0.5542 0.3381
H22_15 H 0.7863 0.5244 0.3402
C20_15 C 0.8230(4) 0.5210(3) 0.3991(2)
H23_15 H 0.8089 0.4782 0.3941
H24_15 H 0.7945 0.5237 0.4191
O3_12 O 0.99727(26) 0.65728(21) 0.29430(11)
N3_15 N 0.99967(32) 0.62016(27) 0.37337(14)
H32_15 H 0.993(4) 0.613(3) 0.3458(7)
C29_15 C 0.9842(4) 0.5710(4) 0.40313(16)
H34_15 H 0.9946 0.5865 0.4332
C30_15 C 0.9184(3) 0.5260(2) 0.40056(17)
H35_15 H 0.9105 0.4893 0.4161
H36_15 H 0.9071 0.5155 0.3698
N4_15 N 0.88179(24) 0.54875(17) 0.41951(13)
O4_15 O 0.98905(23) 0.60457(15) 0.53681(14)
O10_15 O 0.97168(27) 0.51572(18) 0.55028(19)
C10_16 C 0.7942(2) 0.0040(2) 0.13330(16)
H11_16 H 0.8361 0.0153 0.1392
H12_16 H 0.7877 0.0359 0.1448
C28_16 C 0.6577(3) 0.0155(2) 0.05079(17)
H31_16 H 0.6479 0.0135 0.0807
N3_16 N 0.71318(27) 0.04618(18) 0.04003(14)
H32_16 H 0.721(3) 0.047(2) 0.0124(7)
C29_16 C 0.7624(4) 0.0799(2) 0.06979(16)
H33_16 H 0.7820 0.1228 0.0624
H34_16 H 0.7469 0.0748 0.0998
C30_16 C 0.8074(2) 0.0591(2) 0.06722(17)
H35_16 H 0.8441 0.0879 0.0827
H36_16 H 0.8179 0.0583 0.0364
O4_16 O 0.72877(15) 0.05115(17) 0.20347(14)
O5_16 O 0.74170(18) 0.11738(17) 0.24968(14)
O6_16 O 0.6346(2) 0.0504(2) 0.15226(13)
O7_16 O 0.55506(18) 0.02684(19) 0.18748(14)
O8_16 O 0.6558(4) 0.1385(3) 0.2145(2)
O9_16 O 0.6335(2) 0.1121(2) 0.28016(18)
N5_16 N 0.7648(2) 0.0983(2) 0.22327(16)
N6_16 N 0.5812(3) 0.0391(3) 0.15174(16)
N7_16 N 0.6526(4) 0.1532(3) 0.2537(3)
O10_16 O 0.81762(18) 0.1226(2) 0.21694(19)
O11_16 O 0.5614 0.0445 0.1184
O12_16 O 0.6682(4) 0.2045(3) 0.2641(3)
O1_16 O 0.61068(14) 0.94647(15) 0.20302(11)
C1_16 C 0.5873(2) 0.88167(19) 0.14239(15)
C2_16 C 0.5711(2) 0.9077(2) 0.17626(15)
C3_16 C 0.5100(2) 0.8890(2) 0.17993(19)
H1_16 H 0.4974 0.9059 0.2019
C4_16 C 0.4688(2) 0.8476(2) 0.15298(19)
H2_16 H 0.4282 0.8365 0.1569
C5_16 C 0.4834(2) 0.8209(2) 0.11993(19)
C6_16 C 0.5430(2) 0.8386(2) 0.11504(16)
H3_16 H 0.5545 0.8213 0.0925
C7_16 C 0.4363(3) 0.7737(3) 0.0913(2)
H4_16 H 0.4174 0.7354 0.1065
H5_16 H 0.4061 0.7847 0.0844
H6_16 H 0.4546 0.7704 0.0644
C8_16 C 0.6472(2) 0.89502(19) 0.13653(14)
H7_16 H 0.6551 0.8739 0.1147
N1_16 N 0.69154(17) 0.93410(17) 0.15910(13)
H8_16 H 0.681(2) 0.950(2) 0.1789(13)
C9_16 C 0.7534(2) 0.9463(2) 0.15696(16)
H9_16 H 0.7685 0.9486 0.1868
H10_16 H 0.7541 0.9129 0.1419
C11_16 C 0.6201(3) 0.8252(4) 0.01567(17)
C12_16 C 0.6157(3) 0.7752(4) 0.03823(16)
C13_16 C 0.5604(3) 0.7228(4) 0.0371(2)
H13_16 H 0.5558 0.6882 0.0514
C14_16 C 0.5127(3) 0.7199(4) 0.0160(2)
H14_16 H 0.4760 0.6832 0.0161
C18_16 C 0.6750(3) 0.8788(4) 0.01242(17)
N2_16 N 0.7240(2) 0.8873(3) 0.02851(15)
H20_16 H 0.733(3) 0.8630(34) 0.0407(17)
C19_16 C 0.7831(3) 0.9402(4) 0.0226(2)
H21_16 H 0.7792 0.9698 0.0047
H22_16 H 0.8090 0.9286 0.0068
C20_16 C 0.8124(3) 0.9687(2) 0.0657(2)
H23_16 H 0.8552 0.9974 0.0607
H24_16 H 0.8097 0.9375 0.0857
C21_16 C 0.6105(3) 0.9845(2) 0.02081(17)
C25_16 C 0.5034(4) 0.9314(3) 0.0095(2)
C26_16 C 0.5520(3) 0.9579(2) 0.0369(2)
H27_16 H 0.5457 0.9581 0.0672
C27_16 C 0.4402(4) 0.9044(3) 0.0262(3)
H28_16 H 0.4245 0.8620 0.0325
H29_16 H 0.4399 0.9250 0.0528
H30_16 H 0.4153 0.9085 0.0041
N4_16 N 0.78459(17) 0.99971(17) 0.08617(13)
O1_17 O 0.05353(15) 0.66420(21) 0.20302(11)
C1_17 C 0.11833(19) 0.70559(28) 0.14239(15)
C2_17 C 0.0923(2) 0.6633(3) 0.17626(15)
C3_17 C 0.1110(2) 0.6209(3) 0.17993(19)
H1_17 H 0.0941 0.5914 0.2019
C4_17 C 0.1524(2) 0.6211(3) 0.15298(19)
H2_17 H 0.1635 0.5916 0.1569
C5_17 C 0.1791(2) 0.6624(3) 0.11993(19)
C6_17 C 0.1614(2) 0.7043(3) 0.11504(16)
H3_17 H 0.1787 0.7331 0.0925
C7_17 C 0.2263(3) 0.6625(4) 0.0913(2)
H4_17 H 0.2646 0.6819 0.1065
H5_17 H 0.2153 0.6213 0.0844
H6_17 H 0.2296 0.6841 0.0644
C8_17 C 0.10498(19) 0.75214(28) 0.13653(14)
H7_17 H 0.1261 0.7811 0.1147
N1_17 N 0.06590(17) 0.75743(24) 0.15910(13)
H8_17 H 0.050(2) 0.730(3) 0.1789(13)
C9_17 C 0.0537(2) 0.8070(3) 0.15696(16)
H9_17 H 0.0514 0.8198 0.1868
H10_17 H 0.0871 0.8411 0.1419
C11_17 C 0.1748(4) 0.7948(5) 0.01567(17)
C12_17 C 0.2248(4) 0.8404(5) 0.03823(16)
C13_17 C 0.2772(4) 0.8375(5) 0.0371(2)
H13_17 H 0.3118 0.8675 0.0514
C14_17 C 0.2801(4) 0.7927(5) 0.0160(2)
H14_17 H 0.3168 0.7927 0.0161
C18_17 C 0.1212(4) 0.7961(5) 0.01242(17)
N2_17 N 0.1127(3) 0.8366(4) 0.02851(15)
H20_17 H 0.1370(34) 0.8696(45) 0.0407(17)
C19_17 C 0.0598(4) 0.8428(5) 0.0226(2)
H21_17 H 0.0302 0.8093 0.0047
H22_17 H 0.0714 0.8803 0.0068
C20_17 C 0.0313(2) 0.8436(4) 0.0657(2)
H23_17 H 0.0026 0.8577 0.0607
H24_17 H 0.0625 0.8721 0.0857
C21_17 C 0.0155(2) 0.6259(4) 0.02081(17)
C25_17 C 0.0686(3) 0.5719(5) 0.0095(2)
C26_17 C 0.0421(2) 0.5940(4) 0.0369(2)
H27_17 H 0.0419 0.5875 0.0672
C27_17 C 0.0956(3) 0.5357(5) 0.0262(3)
H28_17 H 0.1380 0.5624 0.0325
H29_17 H 0.0750 0.5148 0.0528
H30_17 H 0.0915 0.5067 0.0041
N4_17 N 0.00029(17) 0.78487(24) 0.08617(13)
C10_17 C 0.9960(2) 0.7901(3) 0.13330(16)
H11_17 H 0.9847 0.8207 0.1392
H12_17 H 0.9641 0.7517 0.1448
C28_17 C 0.9845(2) 0.6421(4) 0.05079(17)
H31_17 H 0.9865 0.6343 0.0807
N3_17 N 0.95382(18) 0.66699(32) 0.04003(14)
H32_17 H 0.953(2) 0.673(4) 0.0124(7)
C29_17 C 0.9201(2) 0.6824(4) 0.06979(16)
H33_17 H 0.8772 0.6591 0.0624
H34_17 H 0.9252 0.6720 0.0998
C30_17 C 0.9409(2) 0.7482(3) 0.06722(17)
H35_17 H 0.9121 0.7561 0.0827
H36_17 H 0.9417 0.7595 0.0364
O4_17 O 0.94885(17) 0.67761(23) 0.20347(14)
O5_17 O 0.88262(17) 0.62431(25) 0.24968(14)
O6_17 O 0.9496(2) 0.5841(3) 0.15226(13)
O7_17 O 0.97316(19) 0.52821(26) 0.18748(14)
O8_17 O 0.8615(3) 0.5172(5) 0.2145(2)
O9_17 O 0.8879(2) 0.5213(3) 0.28016(18)
N5_17 N 0.9017(2) 0.6664(3) 0.22327(16)
N6_17 N 0.9609(3) 0.5420(4) 0.15174(16)
N7_17 N 0.8468(3) 0.4993(5) 0.2537(3)
O10_17 O 0.8774(2) 0.69498(27) 0.21694(19)
O11_17 O 0.9555 0.5168 0.1184
O12_17 O 0.7955(3) 0.4636(5) 0.2641(3)
O1_18 O 0.33580(21) 0.38932(14) 0.20302(11)
C1_18 C 0.29441(28) 0.4127(2) 0.14239(15)
C2_18 C 0.3367(3) 0.4289(2) 0.17626(15)
C3_18 C 0.3791(3) 0.4900(2) 0.17993(19)
H1_18 H 0.4086 0.5026 0.2019
C4_18 C 0.3789(3) 0.5312(2) 0.15298(19)
H2_18 H 0.4084 0.5718 0.1569
C5_18 C 0.3376(3) 0.5166(2) 0.11993(19)
C6_18 C 0.2957(3) 0.4570(2) 0.11504(16)
H3_18 H 0.2669 0.4455 0.0925
C7_18 C 0.3375(4) 0.5637(3) 0.0913(2)
H4_18 H 0.3181 0.5826 0.1065
H5_18 H 0.3787 0.5939 0.0844
H6_18 H 0.3159 0.5454 0.0644
C8_18 C 0.24786(28) 0.3528(2) 0.13653(14)
H7_18 H 0.2189 0.3449 0.1147
N1_18 N 0.24257(24) 0.30846(17) 0.15910(13)
H8_18 H 0.270(3) 0.319(2) 0.1789(13)
C9_18 C 0.1930(3) 0.2466(2) 0.15696(16)
H9_18 H 0.1802 0.2315 0.1868
H10_18 H 0.1589 0.2459 0.1419
C10_18 C 0.2099(3) 0.2058(2) 0.13330(16)
H11_18 H 0.1793 0.1639 0.1392
H12_18 H 0.2483 0.2123 0.1448
C11_18 C 0.2052(5) 0.3799(3) 0.01567(17)
C12_18 C 0.1596(5) 0.3843(3) 0.03823(16)
C13_18 C 0.1625(5) 0.4396(3) 0.0371(2)
H13_18 H 0.1325 0.4442 0.0514
C14_18 C 0.2073(5) 0.4873(3) 0.0160(2)
H14_18 H 0.2073 0.5240 0.0161
C18_18 C 0.2039(5) 0.3250(3) 0.01242(17)
N2_18 N 0.1634(4) 0.2760(2) 0.02851(15)
H20_18 H 0.1304(45) 0.267(3) 0.0407(17)
C19_18 C 0.1572(5) 0.2169(3) 0.0226(2)
H21_18 H 0.1907 0.2208 0.0047
H22_18 H 0.1197 0.1910 0.0068
C20_18 C 0.1564(4) 0.1876(3) 0.0657(2)
H23_18 H 0.1423 0.1448 0.0607
H24_18 H 0.1279 0.1903 0.0857
C21_18 C 0.3741(4) 0.3895(3) 0.02081(17)
C25_18 C 0.4281(5) 0.4966(4) 0.0095(2)
C26_18 C 0.4060(4) 0.4480(3) 0.0369(2)
H27_18 H 0.4125 0.4543 0.0672
C27_18 C 0.4643(5) 0.5598(4) 0.0262(3)
H28_18 H 0.4376 0.5755 0.0325
H29_18 H 0.4852 0.5601 0.0528
H30_18 H 0.4933 0.5847 0.0041
C28_18 C 0.3579(4) 0.3423(3) 0.05079(17)
H31_18 H 0.3657 0.3521 0.0807
N3_18 N 0.33301(32) 0.28682(27) 0.04003(14)
H32_18 H 0.327(4) 0.279(3) 0.0124(7)
C29_18 C 0.3176(4) 0.2376(4) 0.06979(16)
H33_18 H 0.3409 0.2180 0.0624
H34_18 H 0.3280 0.2531 0.0998
C30_18 C 0.2518(3) 0.1926(2) 0.06722(17)
H35_18 H 0.2439 0.1559 0.0827
H36_18 H 0.2405 0.1821 0.0364
N4_18 N 0.21513(24) 0.21541(17) 0.08617(13)
O4_18 O 0.32239(23) 0.27123(15) 0.20347(14)
O5_18 O 0.37569(25) 0.25830(18) 0.24968(14)
O6_18 O 0.4159(3) 0.3654(2) 0.15226(13)
O7_18 O 0.47179(26) 0.44494(18) 0.18748(14)
O8_18 O 0.4828(5) 0.3442(4) 0.2145(2)
O9_18 O 0.4787(3) 0.3665(2) 0.28016(18)
N5_18 N 0.3336(3) 0.2352(2) 0.22327(16)
N6_18 N 0.4580(4) 0.4188(3) 0.15174(16)
N7_18 N 0.5007(5) 0.3474(4) 0.2537(3)
O10_18 O 0.30502(27) 0.18238(18) 0.21694(19)
O11_18 O 0.4832 0.4386 0.1184
O12_18 O 0.5364(5) 0.3318(4) 0.2641(3)
C15_14 C 0.2527(5) 0.4846(3) 0.9945(2)
C16_14 C 0.2513(5) 0.4317(3) 0.9943(2)
H15_14 H 0.2819 0.4288 0.9795
C17_14 C 0.3029(6) 0.5385(4) 0.9706(3)
H16_14 H 0.3321 0.5657 0.9918
H17_14 H 0.2860 0.5594 0.9547
H18_14 H 0.3224 0.5248 0.9502
H19_14 H 0.2354 0.3245 0.9971
C22_14 C 0.3623(4) 0.3785(3) 0.97586(16)
C23_14 C 0.3845(5) 0.4285(4) 0.9488(2)
H25_14 H 0.3774 0.4232 0.9184
C24_14 C 0.4167(5) 0.4854(4) 0.9654(2)
H26_14 H 0.4316 0.5182 0.9459
C15_15 C 0.4846(3) 0.2320(4) 0.0055(2)
C16_15 C 0.4317(3) 0.1805(4) 0.0057(2)
H15_15 H 0.4288 0.1470 0.0205
C17_15 C 0.5385(4) 0.2357(5) 0.0294(3)
H16_15 H 0.5657 0.2337 0.0082
H17_15 H 0.5594 0.2735 0.0453
H18_15 H 0.5248 0.2025 0.0498
H19_15 H 0.3245 0.0892 0.0029
C22_15 C 0.3785(3) 0.0163(2) 0.02414(16)
C23_15 C 0.4285(4) 0.0441(3) 0.0512(2)
H25_15 H 0.4232 0.0459 0.0816
C24_15 C 0.4854(4) 0.0688(3) 0.0346(2)
H26_15 H 0.5182 0.0867 0.0541
C15_16 C 0.7680(4) 0.2527(5) 0.0055(2)
C16_16 C 0.8195(4) 0.2513(5) 0.0057(2)
H15_16 H 0.8530 0.2819 0.0205
C17_16 C 0.7643(5) 0.3029(6) 0.0294(3)
H16_16 H 0.7663 0.3321 0.0082
H17_16 H 0.7265 0.2860 0.0453
H18_16 H 0.7975 0.3224 0.0498
H19_16 H 0.9108 0.2354 0.0029
C22_16 C 0.9837(2) 0.3623(4) 0.02414(16)
C23_16 C 0.9559(3) 0.3845(5) 0.0512(2)
H25_16 H 0.9541 0.3774 0.0816
C24_16 C 0.9312(3) 0.4167(5) 0.0346(2)
H26_16 H 0.9133 0.4316 0.0541
C15_17 C 0.5154(3) 0.7680(4) 0.9945(2)
C16_17 C 0.5683(3) 0.8195(4) 0.9943(2)
H15_17 H 0.5712 0.8530 0.9795
C17_17 C 0.4615(4) 0.7643(5) 0.9706(3)
H16_17 H 0.4343 0.7663 0.9918
H17_17 H 0.4406 0.7265 0.9547
H18_17 H 0.4752 0.7975 0.9502
H19_17 H 0.6755 0.9108 0.9971
C22_17 C 0.6215(3) 0.9837(2) 0.97586(16)
C23_17 C 0.5715(4) 0.9559(3) 0.9488(2)
H25_17 H 0.5768 0.9541 0.9184
C24_17 C 0.5146(4) 0.9312(3) 0.9654(2)
H26_17 H 0.4818 0.9133 0.9459
C15_18 C 0.2320(4) 0.7473(5) 0.9945(2)
C16_18 C 0.1805(4) 0.7487(5) 0.9943(2)
H15_18 H 0.1470 0.7181 0.9795
C17_18 C 0.2357(5) 0.6971(6) 0.9706(3)
H16_18 H 0.2337 0.6679 0.9918
H17_18 H 0.2735 0.7140 0.9547
H18_18 H 0.2025 0.6776 0.9502
H19_18 H 0.0892 0.7646 0.9971
C22_18 C 0.0163(2) 0.6377(4) 0.97586(16)
C23_18 C 0.0441(3) 0.6155(5) 0.9488(2)
H25_18 H 0.0459 0.6226 0.9184
C24_18 C 0.0688(3) 0.5833(5) 0.9654(2)
H26_18 H 0.0867 0.5684 0.9459
loop_
_geom_bond_atom_site_label_1
_geom_bond_atom_site_label_2
_geom_bond_site_symmetry_1
_geom_bond_site_symmetry_2
Tb1 O1 1_555 1_555
O1 C2 1_555 1_555
C1 C2 1_555 1_555
C2 C3 1_555 1_555
C3 H1 1_555 1_555
C4 C3 1_555 1_555
H2 C4 1_555 1_555
C5 C4 1_555 1_555
C6 C1 1_555 1_555
H3 C6 1_555 1_555
C7 C5 1_555 1_555
H4 C7 1_555 1_555
H5 C7 1_555 1_555
H6 C7 1_555 1_555
C8 C1 1_555 1_555
H7 C8 1_555 1_555
O2 C12 1_555 1_555
C11 C12 1_555 1_555
C12 C13 1_555 1_555
C13 H13 1_555 1_555
C14 C13 1_555 1_555
H14 C14 1_555 1_555
C15 C14 1_555 1_555
C16 C11 1_555 1_555
H15 C16 1_555 1_555
C17 C15 1_555 1_555
H16 C17 1_555 1_555
H17 C17 1_555 1_555
H18 C17 1_555 1_555
C21 C22 1_555 1_555
C22 C23 1_555 1_555
C23 H25 1_555 1_555
C24 C23 1_555 1_555
H26 C24 1_555 1_555
C25 C24 1_555 1_555
C26 C21 1_555 1_555
H27 C26 1_555 1_555
C27 C25 1_555 1_555
H28 C27 1_555 1_555
H29 C27 1_555 1_555
H30 C27 1_555 1_555
C28 C21 1_555 1_555
H31 C28 1_555 1_555
O6 Tb1 1_555 1_555
O7 Tb1 1_555 1_555
O8 Tb1 1_555 1_555
O9 Tb1 1_555 1_555
N6 O6 1_555 1_555
N7 O8 1_555 1_555
O11 N6 1_555 1_555
O13 Tb1 1_555 1_555
O14 Tb1 1_555 1_555
C5 C6 1_555 1_555
C15 C16 1_555 1_555
C25 C26 1_555 1_555
O7 N6 1_555 1_555
O9 N7 1_555 1_555
H8 N1 1_555 1_555
C9 N1 1_555 1_555
H9 C9 1_555 1_555
H10 C9 1_555 1_555
C10 C9 1_555 1_555
H11 C10 1_555 1_555
H12 C10 1_555 1_555
H19 C18 1_555 1_555
N2 C18 1_555 1_555
H20 N2 1_555 1_555
C19 N2 1_555 1_555
H21 C19 1_555 1_555
H22 C19 1_555 1_555
C20 C19 1_555 1_555
H23 C20 1_555 1_555
H24 C20 1_555 1_555
H32 N3 1_555 1_555
C29 N3 1_555 1_555
H33 C29 1_555 1_555
H34 C29 1_555 1_555
C30 C29 1_555 1_555
H35 C30 1_555 1_555
H36 C30 1_555 1_555
N4 C10 1_555 1_555
N5 O4 1_555 1_555
O10 N5 1_555 1_555
Tb2 O3 1_555 1_555
C20 N4 1_555 1_555
C30 N4 1_555 1_555
O5 N5 1_555 1_555
Tb1_2 O1_2 1_555 1_555
O1_2 C2_2 1_555 1_555
C1_2 C2_2 1_555 1_555
C2_2 C3_2 1_555 1_555
C3_2 H1_2 1_555 1_555
C4_2 C3_2 1_555 1_555
H2_2 C4_2 1_555 1_555
C5_2 C4_2 1_555 1_555
C6_2 C1_2 1_555 1_555
H3_2 C6_2 1_555 1_555
C7_2 C5_2 1_555 1_555
H4_2 C7_2 1_555 1_555
H5_2 C7_2 1_555 1_555
H6_2 C7_2 1_555 1_555
C8_2 C1_2 1_555 1_555
H7_2 C8_2 1_555 1_555
N1_2 C8_2 1_555 1_555
H8_2 N1_2 1_555 1_555
C9_2 N1_2 1_555 1_555
H9_2 C9_2 1_555 1_555
H10_2 C9_2 1_555 1_555
C10_2 C9_2 1_555 1_555
H11_2 C10_2 1_555 1_555
H12_2 C10_2 1_555 1_555
O2_2 C12_2 1_555 1_555
C11_2 C12_2 1_555 1_555
C12_2 C13_2 1_555 1_555
C13_2 H13_2 1_555 1_555
C14_2 C13_2 1_555 1_555
H14_2 C14_2 1_555 1_555
C15_2 C14_2 1_555 1_555
C16_2 C11_2 1_555 1_555
H15_2 C16_2 1_555 1_555
C17_2 C15_2 1_555 1_555
H16_2 C17_2 1_555 1_555
H17_2 C17_2 1_555 1_555
H18_2 C17_2 1_555 1_555
C18_2 C11_2 1_555 1_555
H19_2 C18_2 1_555 1_555
N2_2 C18_2 1_555 1_555
H20_2 N2_2 1_555 1_555
C19_2 N2_2 1_555 1_555
H21_2 C19_2 1_555 1_555
H22_2 C19_2 1_555 1_555
C20_2 C19_2 1_555 1_555
H23_2 C20_2 1_555 1_555
H24_2 C20_2 1_555 1_555
O3_2 C22_2 1_555 1_555
C21_2 C22_2 1_555 1_555
C22_2 C23_2 1_555 1_555
C23_2 H25_2 1_555 1_555
C24_2 C23_2 1_555 1_555
H26_2 C24_2 1_555 1_555
C25_2 C24_2 1_555 1_555
C26_2 C21_2 1_555 1_555
H27_2 C26_2 1_555 1_555
C27_2 C25_2 1_555 1_555
H28_2 C27_2 1_555 1_555
H29_2 C27_2 1_555 1_555
H30_2 C27_2 1_555 1_555
C28_2 C21_2 1_555 1_555
H31_2 C28_2 1_555 1_555
N3_2 C28_2 1_555 1_555
H32_2 N3_2 1_555 1_555
C29_2 N3_2 1_555 1_555
H33_2 C29_2 1_555 1_555
H34_2 C29_2 1_555 1_555
C30_2 C29_2 1_555 1_555
H35_2 C30_2 1_555 1_555
H36_2 C30_2 1_555 1_555
N4_2 C10_2 1_555 1_555
O4_2 Tb1_2 1_555 1_555
O5_2 Tb1_2 1_555 1_555
O6_2 Tb1_2 1_555 1_555
O7_2 Tb1_2 1_555 1_555
O8_2 Tb1_2 1_555 1_555
O9_2 Tb1_2 1_555 1_555
N5_2 O4_2 1_555 1_555
N6_2 O6_2 1_555 1_555
N7_2 O8_2 1_555 1_555
O10_2 N5_2 1_555 1_555
O11_2 N6_2 1_555 1_555
O12_2 N7_2 1_555 1_555
Tb2_2 O3_2 1_555 1_555
Tb3_2 O2_2 1_555 1_555
O13_2 Tb1_2 1_555 1_555
O14_2 Tb1_2 1_555 1_555
C5_2 C6_2 1_555 1_555
C15_2 C16_2 1_555 1_555
C20_2 N4_2 1_555 1_555
C25_2 C26_2 1_555 1_555
C30_2 N4_2 1_555 1_555
O5_2 N5_2 1_555 1_555
O7_2 N6_2 1_555 1_555
O9_2 N7_2 1_555 1_555
H8_3 N1_3 1_555 1_555
C9_3 N1_3 1_555 1_555
H9_3 C9_3 1_555 1_555
H10_3 C9_3 1_555 1_555
C10_3 C9_3 1_555 1_555
H11_3 C10_3 1_555 1_555
H12_3 C10_3 1_555 1_555
H19_3 C18_3 1_555 1_555
N2_3 C18_3 1_555 1_555
H20_3 N2_3 1_555 1_555
C19_3 N2_3 1_555 1_555
H21_3 C19_3 1_555 1_555
H22_3 C19_3 1_555 1_555
C20_3 C19_3 1_555 1_555
H23_3 C20_3 1_555 1_555
H24_3 C20_3 1_555 1_555
H32_3 N3_3 1_555 1_555
C29_3 N3_3 1_555 1_555
H33_3 C29_3 1_555 1_555
H34_3 C29_3 1_555 1_555
C30_3 C29_3 1_555 1_555
H35_3 C30_3 1_555 1_555
H36_3 C30_3 1_555 1_555
N4_3 C10_3 1_555 1_555
N5_3 O4_3 1_555 1_555
O10_3 N5_3 1_555 1_555
Tb2_3 O3_3 1_555 1_555
C20_3 N4_3 1_555 1_555
C30_3 N4_3 1_555 1_555
O5_3 N5_3 1_555 1_555
Tb1_3 O1_3 1_555 1_555
O1_3 C2_3 1_555 1_555
C1_3 C2_3 1_555 1_555
C2_3 C3_3 1_555 1_555
C3_3 H1_3 1_555 1_555
C4_3 C3_3 1_555 1_555
H2_3 C4_3 1_555 1_555
C5_3 C4_3 1_555 1_555
C6_3 C1_3 1_555 1_555
H3_3 C6_3 1_555 1_555
C7_3 C5_3 1_555 1_555
H4_3 C7_3 1_555 1_555
H5_3 C7_3 1_555 1_555
H6_3 C7_3 1_555 1_555
C8_3 C1_3 1_555 1_555
H7_3 C8_3 1_555 1_555
O2_3 C12_3 1_555 1_555
C11_3 C12_3 1_555 1_555
C12_3 C13_3 1_555 1_555
C13_3 H13_3 1_555 1_555
C14_3 C13_3 1_555 1_555
H14_3 C14_3 1_555 1_555
C15_3 C14_3 1_555 1_555
C16_3 C11_3 1_555 1_555
H15_3 C16_3 1_555 1_555
C17_3 C15_3 1_555 1_555
H16_3 C17_3 1_555 1_555
H17_3 C17_3 1_555 1_555
H18_3 C17_3 1_555 1_555
C21_3 C22_3 1_555 1_555
C22_3 C23_3 1_555 1_555
C23_3 H25_3 1_555 1_555
C24_3 C23_3 1_555 1_555
H26_3 C24_3 1_555 1_555
C25_3 C24_3 1_555 1_555
C26_3 C21_3 1_555 1_555
H27_3 C26_3 1_555 1_555
C27_3 C25_3 1_555 1_555
H28_3 C27_3 1_555 1_555
H29_3 C27_3 1_555 1_555
H30_3 C27_3 1_555 1_555
C28_3 C21_3 1_555 1_555
H31_3 C28_3 1_555 1_555
O6_3 Tb1_3 1_555 1_555
O7_3 Tb1_3 1_555 1_555
O8_3 Tb1_3 1_555 1_555
O9_3 Tb1_3 1_555 1_555
N6_3 O6_3 1_555 1_555
N7_3 O8_3 1_555 1_555
O11_3 N6_3 1_555 1_555
O13_3 Tb1_3 1_555 1_555
O14_3 Tb1_3 1_555 1_555
C5_3 C6_3 1_555 1_555
C15_3 C16_3 1_555 1_555
C25_3 C26_3 1_555 1_555
O7_3 N6_3 1_555 1_555
O9_3 N7_3 1_555 1_555
Tb2_2 O1_4 1_555 1_555
O1_4 C2_4 1_555 1_555
C1_4 C2_4 1_555 1_555
C2_4 C3_4 1_555 1_555
C3_4 H1_4 1_555 1_555
C4_4 C3_4 1_555 1_555
H2_4 C4_4 1_555 1_555
C5_4 C4_4 1_555 1_555
C6_4 C1_4 1_555 1_555
H3_4 C6_4 1_555 1_555
C7_4 C5_4 1_555 1_555
H4_4 C7_4 1_555 1_555
H5_4 C7_4 1_555 1_555
H6_4 C7_4 1_555 1_555
C8_4 C1_4 1_555 1_555
H7_4 C8_4 1_555 1_555
N1_4 C8_4 1_555 1_555
H8_4 N1_4 1_555 1_555
C9_4 N1_4 1_555 1_555
H9_4 C9_4 1_555 1_555
H10_4 C9_4 1_555 1_555
C10_4 C9_4 1_555 1_555
H11_4 C10_4 1_555 1_555
H12_4 C10_4 1_555 1_555
O2_4 C12_4 1_555 1_555
C11_4 C12_4 1_555 1_555
C12_4 C13_4 1_555 1_555
C13_4 H13_4 1_555 1_555
C14_4 C13_4 1_555 1_555
H14_4 C14_4 1_555 1_555
C15_4 C14_4 1_555 1_555
C16_4 C11_4 1_555 1_555
H15_4 C16_4 1_555 1_555
C17_4 C15_4 1_555 1_555
H16_4 C17_4 1_555 1_555
H17_4 C17_4 1_555 1_555
H18_4 C17_4 1_555 1_555
C18_4 C11_4 1_555 1_555
H19_4 C18_4 1_555 1_555
N2_4 C18_4 1_555 1_555
H20_4 N2_4 1_555 1_555
C19_4 N2_4 1_555 1_555
H21_4 C19_4 1_555 1_555
H22_4 C19_4 1_555 1_555
C20_4 C19_4 1_555 1_555
H23_4 C20_4 1_555 1_555
H24_4 C20_4 1_555 1_555
O3_4 C22_4 1_555 1_555
C21_4 C22_4 1_555 1_555
C22_4 C23_4 1_555 1_555
C23_4 H25_4 1_555 1_555
C24_4 C23_4 1_555 1_555
H26_4 C24_4 1_555 1_555
C25_4 C24_4 1_555 1_555
C26_4 C21_4 1_555 1_555
H27_4 C26_4 1_555 1_555
C27_4 C25_4 1_555 1_555
H28_4 C27_4 1_555 1_555
H29_4 C27_4 1_555 1_555
H30_4 C27_4 1_555 1_555
C28_4 C21_4 1_555 1_555
H31_4 C28_4 1_555 1_555
N3_4 C28_4 1_555 1_555
H32_4 N3_4 1_555 1_555
C29_4 N3_4 1_555 1_555
H33_4 C29_4 1_555 1_555
H34_4 C29_4 1_555 1_555
C30_4 C29_4 1_555 1_555
H35_4 C30_4 1_555 1_555
H36_4 C30_4 1_555 1_555
N4_4 C10_4 1_555 1_555
O4_4 Tb2_2 1_555 1_555
O5_4 Tb2_2 1_555 1_555
O6_4 Tb2_2 1_555 1_555
O7_4 Tb2_2 1_555 1_555
O8_4 Tb2_2 1_555 1_555
O9_4 Tb2_2 1_555 1_555
N5_4 O4_4 1_555 1_555
N6_4 O6_4 1_555 1_555
N7_4 O8_4 1_555 1_555
O10_4 N5_4 1_555 1_555
O11_4 N6_4 1_555 1_555
O12_4 N7_4 1_555 1_555
Tb2_4 O3_4 1_555 1_555
Tb3_4 O2_4 1_555 1_555
O13_4 Tb2_2 1_555 1_555
C5_4 C6_4 1_555 1_555
C15_4 C16_4 1_555 1_555
C20_4 N4_4 1_555 1_555
C25_4 C26_4 1_555 1_555
C30_4 N4_4 1_555 1_555
O5_4 N5_4 1_555 1_555
O7_4 N6_4 1_555 1_555
O9_4 N7_4 1_555 1_555
Tb2_3 O1_5 1_555 1_555
O1_5 C2_5 1_555 1_555
C2_5 C3_5 1_555 1_555
C3_5 H1_5 1_555 1_555
C4_5 C3_5 1_555 1_555
H2_5 C4_5 1_555 1_555
C5_5 C4_5 1_555 1_555
C7_5 C5_5 1_555 1_555
H5_5 C7_5 1_555 1_555
C21_5 C22_5 1_555 1_555
C22_5 C23_5 1_555 1_555
C23_5 H25_5 1_555 1_555
C24_5 C23_5 1_555 1_555
H26_5 C24_5 1_555 1_555
C25_5 C24_5 1_555 1_555
C26_5 C21_5 1_555 1_555
H27_5 C26_5 1_555 1_555
C27_5 C25_5 1_555 1_555
H28_5 C27_5 1_555 1_555
H29_5 C27_5 1_555 1_555
H30_5 C27_5 1_555 1_555
C28_5 C21_5 1_555 1_555
H31_5 C28_5 1_555 1_555
O5_5 Tb2_3 1_555 1_555
O6_5 Tb2_3 1_555 1_555
O7_5 Tb2_3 1_555 1_555
O8_5 Tb2_3 1_555 1_555
O9_5 Tb2_3 1_555 1_555
N6_5 O6_5 1_555 1_555
N7_5 O8_5 1_555 1_555
O11_5 N6_5 1_555 1_555
O12_5 N7_5 1_555 1_555
O13_5 Tb2_3 1_555 1_555
C25_5 C26_5 1_555 1_555
O5_5 N5_5 1_555 1_555
O7_5 N6_5 1_555 1_555
O9_5 N7_5 1_555 1_555
C6_5 C1_5 1_555 1_555
H3_5 C6_5 1_555 1_555
C8_5 C1_5 1_555 1_555
H7_5 C8_5 1_555 1_555
N1_5 C8_5 1_555 1_555
H8_5 N1_5 1_555 1_555
C9_5 N1_5 1_555 1_555
H9_5 C9_5 1_555 1_555
H10_5 C9_5 1_555 1_555
C10_5 C9_5 1_555 1_555
H11_5 C10_5 1_555 1_555
H12_5 C10_5 1_555 1_555
O2_5 C12_5 1_555 1_555
C11_5 C12_5 1_555 1_555
C12_5 C13_5 1_555 1_555
C13_5 H13_5 1_555 1_555
C14_5 C13_5 1_555 1_555
H14_5 C14_5 1_555 1_555
C15_5 C14_5 1_555 1_555
C16_5 C11_5 1_555 1_555
H15_5 C16_5 1_555 1_555
C17_5 C15_5 1_555 1_555
H16_5 C17_5 1_555 1_555
H17_5 C17_5 1_555 1_555
H18_5 C17_5 1_555 1_555
C18_5 C11_5 1_555 1_555
H19_5 C18_5 1_555 1_555
N2_5 C18_5 1_555 1_555
H20_5 N2_5 1_555 1_555
C19_5 N2_5 1_555 1_555
H21_5 C19_5 1_555 1_555
H22_5 C19_5 1_555 1_555
C20_5 C19_5 1_555 1_555
H23_5 C20_5 1_555 1_555
H24_5 C20_5 1_555 1_555
H32_5 N3_5 1_555 1_555
C29_5 N3_5 1_555 1_555
H34_5 C29_5 1_555 1_555
C30_5 C29_5 1_555 1_555
H35_5 C30_5 1_555 1_555
H36_5 C30_5 1_555 1_555
N4_5 C10_5 1_555 1_555
Tb2_5 O3_5 1_555 1_555
Tb3_5 O2_5 1_555 1_555
C15_5 C16_5 1_555 1_555
C20_5 N4_5 1_555 1_555
C30_5 N4_5 1_555 1_555
C6_6 C1_6 1_555 1_555
H3_6 C6_6 1_555 1_555
C8_6 C1_6 1_555 1_555
H7_6 C8_6 1_555 1_555
N1_6 C8_6 1_555 1_555
H8_6 N1_6 1_555 1_555
C9_6 N1_6 1_555 1_555
H9_6 C9_6 1_555 1_555
H10_6 C9_6 1_555 1_555
C10_6 C9_6 1_555 1_555
H11_6 C10_6 1_555 1_555
H12_6 C10_6 1_555 1_555
O2_6 C12_6 1_555 1_555
C11_6 C12_6 1_555 1_555
C12_6 C13_6 1_555 1_555
C13_6 H13_6 1_555 1_555
C14_6 C13_6 1_555 1_555
H14_6 C14_6 1_555 1_555
C15_6 C14_6 1_555 1_555
C16_6 C11_6 1_555 1_555
H15_6 C16_6 1_555 1_555
C17_6 C15_6 1_555 1_555
H16_6 C17_6 1_555 1_555
H17_6 C17_6 1_555 1_555
H18_6 C17_6 1_555 1_555
C18_6 C11_6 1_555 1_555
H19_6 C18_6 1_555 1_555
N2_6 C18_6 1_555 1_555
H20_6 N2_6 1_555 1_555
C19_6 N2_6 1_555 1_555
H21_6 C19_6 1_555 1_555
H22_6 C19_6 1_555 1_555
C20_6 C19_6 1_555 1_555
H23_6 C20_6 1_555 1_555
H24_6 C20_6 1_555 1_555
H32_6 N3_6 1_555 1_555
C29_6 N3_6 1_555 1_555
H34_6 C29_6 1_555 1_555
C30_6 C29_6 1_555 1_555
H35_6 C30_6 1_555 1_555
H36_6 C30_6 1_555 1_555
N4_6 C10_6 1_555 1_555
Tb2_6 O3_6 1_555 1_555
Tb3_6 O2_6 1_555 1_555
C15_6 C16_6 1_555 1_555
C20_6 N4_6 1_555 1_555
C30_6 N4_6 1_555 1_555
Tb2 O1_6 1_555 1_555
O1_6 C2_6 1_555 1_555
C2_6 C3_6 1_555 1_555
C3_6 H1_6 1_555 1_555
C4_6 C3_6 1_555 1_555
H2_6 C4_6 1_555 1_555
C5_6 C4_6 1_555 1_555
C7_6 C5_6 1_555 1_555
H5_6 C7_6 1_555 1_555
C21_6 C22_6 1_555 1_555
C22_6 C23_6 1_555 1_555
C23_6 H25_6 1_555 1_555
C24_6 C23_6 1_555 1_555
H26_6 C24_6 1_555 1_555
C25_6 C24_6 1_555 1_555
C26_6 C21_6 1_555 1_555
H27_6 C26_6 1_555 1_555
C27_6 C25_6 1_555 1_555
H28_6 C27_6 1_555 1_555
H29_6 C27_6 1_555 1_555
H30_6 C27_6 1_555 1_555
C28_6 C21_6 1_555 1_555
H31_6 C28_6 1_555 1_555
O5_6 Tb2 1_555 1_555
O6_6 Tb2 1_555 1_555
O7_6 Tb2 1_555 1_555
O8_6 Tb2 1_555 1_555
O9_6 Tb2 1_555 1_555
N6_6 O6_6 1_555 1_555
N7_6 O8_6 1_555 1_555
O11_6 N6_6 1_555 1_555
O12_6 N7_6 1_555 1_555
O13_6 Tb2 1_555 1_555
C25_6 C26_6 1_555 1_555
O5_6 N5_6 1_555 1_555
O7_6 N6_6 1_555 1_555
O9_6 N7_6 1_555 1_555
O1_7 C2_7 1_555 1_555
C1_7 C2_7 1_555 1_555
C2_7 C3_7 1_555 1_555
C3_7 H1_7 1_555 1_555
C4_7 C3_7 1_555 1_555
H2_7 C4_7 1_555 1_555
C5_7 C4_7 1_555 1_555
C6_7 C1_7 1_555 1_555
H3_7 C6_7 1_555 1_555
C7_7 C5_7 1_555 1_555
H4_7 C7_7 1_555 1_555
H5_7 C7_7 1_555 1_555
H6_7 C7_7 1_555 1_555
C8_7 C1_7 1_555 1_555
H7_7 C8_7 1_555 1_555
N1_7 C8_7 1_555 1_555
H8_7 N1_7 1_555 1_555
C9_7 N1_7 1_555 1_555
H9_7 C9_7 1_555 1_555
H10_7 C9_7 1_555 1_555
O2_7 C12_7 1_555 1_555
C11_7 C12_7 1_555 1_555
C12_7 C13_7 1_555 1_555
C13_7 H13_7 1_555 1_555
C14_7 C13_7 1_555 1_555
H14_7 C14_7 1_555 1_555
C18_7 C11_7 1_555 1_555
N2_7 C18_7 1_555 1_555
H20_7 N2_7 1_555 1_555
C19_7 N2_7 1_555 1_555
H21_7 C19_7 1_555 1_555
H22_7 C19_7 1_555 1_555
C20_7 C19_7 1_555 1_555
H23_7 C20_7 1_555 1_555
H24_7 C20_7 1_555 1_555
C26_7 C21_7 1_555 1_555
H27_7 C26_7 1_555 1_555
C27_7 C25_7 1_555 1_555
H28_7 C27_7 1_555 1_555
H29_7 C27_7 1_555 1_555
H30_7 C27_7 1_555 1_555
Tb3_7 O2_7 1_555 1_555
C5_7 C6_7 1_555 1_555
C20_7 N4_7 1_555 1_555
C25_7 C26_7 1_555 1_555
H11_7 C10_7 1_555 1_555
H12_7 C10_7 1_555 1_555
H31_7 C28_7 1_555 1_555
N3_7 C28_7 1_555 1_555
H32_7 N3_7 1_555 1_555
C29_7 N3_7 1_555 1_555
H33_7 C29_7 1_555 1_555
H34_7 C29_7 1_555 1_555
C30_7 C29_7 1_555 1_555
H35_7 C30_7 1_555 1_555
H36_7 C30_7 1_555 1_555
O4_7 Tb2_5 1_555 1_555
O5_7 Tb2_5 1_555 1_555
O6_7 Tb2_5 1_555 1_555
O7_7 Tb2_5 1_555 1_555
O8_7 Tb2_5 1_555 1_555
O9_7 Tb2_5 1_555 1_555
N5_7 O4_7 1_555 1_555
N6_7 O6_7 1_555 1_555
N7_7 O8_7 1_555 1_555
O10_7 N5_7 1_555 1_555
O11_7 N6_7 1_555 1_555
O12_7 N7_7 1_555 1_555
O5_7 N5_7 1_555 1_555
O7_7 N6_7 1_555 1_555
O9_7 N7_7 1_555 1_555
H11_8 C10_8 1_555 1_555
H12_8 C10_8 1_555 1_555
H31_8 C28_8 1_555 1_555
N3_8 C28_8 1_555 1_555
H32_8 N3_8 1_555 1_555
C29_8 N3_8 1_555 1_555
H33_8 C29_8 1_555 1_555
H34_8 C29_8 1_555 1_555
C30_8 C29_8 1_555 1_555
H35_8 C30_8 1_555 1_555
H36_8 C30_8 1_555 1_555
O4_8 Tb2_6 1_555 1_555
O5_8 Tb2_6 1_555 1_555
O6_8 Tb2_6 1_555 1_555
O7_8 Tb2_6 1_555 1_555
O8_8 Tb2_6 1_555 1_555
O9_8 Tb2_6 1_555 1_555
N5_8 O4_8 1_555 1_555
N6_8 O6_8 1_555 1_555
N7_8 O8_8 1_555 1_555
O10_8 N5_8 1_555 1_555
O11_8 N6_8 1_555 1_555
O12_8 N7_8 1_555 1_555
O5_8 N5_8 1_555 1_555
O7_8 N6_8 1_555 1_555
O9_8 N7_8 1_555 1_555
O1_8 C2_8 1_555 1_555
C1_8 C2_8 1_555 1_555
C2_8 C3_8 1_555 1_555
C3_8 H1_8 1_555 1_555
C4_8 C3_8 1_555 1_555
H2_8 C4_8 1_555 1_555
C5_8 C4_8 1_555 1_555
C6_8 C1_8 1_555 1_555
H3_8 C6_8 1_555 1_555
C7_8 C5_8 1_555 1_555
H4_8 C7_8 1_555 1_555
H5_8 C7_8 1_555 1_555
H6_8 C7_8 1_555 1_555
C8_8 C1_8 1_555 1_555
H7_8 C8_8 1_555 1_555
N1_8 C8_8 1_555 1_555
H8_8 N1_8 1_555 1_555
C9_8 N1_8 1_555 1_555
H9_8 C9_8 1_555 1_555
H10_8 C9_8 1_555 1_555
O2_8 C12_8 1_555 1_555
C11_8 C12_8 1_555 1_555
C12_8 C13_8 1_555 1_555
C13_8 H13_8 1_555 1_555
C14_8 C13_8 1_555 1_555
H14_8 C14_8 1_555 1_555
C18_8 C11_8 1_555 1_555
N2_8 C18_8 1_555 1_555
H20_8 N2_8 1_555 1_555
C19_8 N2_8 1_555 1_555
H21_8 C19_8 1_555 1_555
H22_8 C19_8 1_555 1_555
C20_8 C19_8 1_555 1_555
H23_8 C20_8 1_555 1_555
H24_8 C20_8 1_555 1_555
C26_8 C21_8 1_555 1_555
H27_8 C26_8 1_555 1_555
C27_8 C25_8 1_555 1_555
H28_8 C27_8 1_555 1_555
H29_8 C27_8 1_555 1_555
H30_8 C27_8 1_555 1_555
Tb3_8 O2_8 1_555 1_555
C5_8 C6_8 1_555 1_555
C20_8 N4_8 1_555 1_555
C25_8 C26_8 1_555 1_555
H15_7 C16_7 1_555 1_555
C17_7 C15_7 1_555 1_555
H16_7 C17_7 1_555 1_555
H17_7 C17_7 1_555 1_555
H18_7 C17_7 1_555 1_555
O14_2 C22_7 1_555 1_555
C22_7 C23_7 1_555 1_555
C23_7 H25_7 1_555 1_555
C24_7 C23_7 1_555 1_555
H26_7 C24_7 1_555 1_555
C15_7 C16_7 1_555 1_555
Tb2_4 O1_9 1_555 1_555
O1_9 C2_9 1_555 1_555
C1_9 C2_9 1_555 1_555
C2_9 C3_9 1_555 1_555
C3_9 H1_9 1_555 1_555
C4_9 C3_9 1_555 1_555
H2_9 C4_9 1_555 1_555
C5_9 C4_9 1_555 1_555
C6_9 C1_9 1_555 1_555
H3_9 C6_9 1_555 1_555
C7_9 C5_9 1_555 1_555
H4_9 C7_9 1_555 1_555
H5_9 C7_9 1_555 1_555
H6_9 C7_9 1_555 1_555
C8_9 C1_9 1_555 1_555
H7_9 C8_9 1_555 1_555
N1_9 C8_9 1_555 1_555
H8_9 N1_9 1_555 1_555
C9_9 N1_9 1_555 1_555
H9_9 C9_9 1_555 1_555
H10_9 C9_9 1_555 1_555
C10_9 C9_9 1_555 1_555
H11_9 C10_9 1_555 1_555
H12_9 C10_9 1_555 1_555
O2_9 C12_9 1_555 1_555
C11_9 C12_9 1_555 1_555
C12_9 C13_9 1_555 1_555
C13_9 H13_9 1_555 1_555
C14_9 C13_9 1_555 1_555
H14_9 C14_9 1_555 1_555
C18_9 C11_9 1_555 1_555
N2_9 C18_9 1_555 1_555
H20_9 N2_9 1_555 1_555
C19_9 N2_9 1_555 1_555
H21_9 C19_9 1_555 1_555
H22_9 C19_9 1_555 1_555
C20_9 C19_9 1_555 1_555
H23_9 C20_9 1_555 1_555
H24_9 C20_9 1_555 1_555
C26_9 C21_9 1_555 1_555
H27_9 C26_9 1_555 1_555
C27_9 C25_9 1_555 1_555
H28_9 C27_9 1_555 1_555
H29_9 C27_9 1_555 1_555
H30_9 C27_9 1_555 1_555
C28_9 C21_9 1_555 1_555
H31_9 C28_9 1_555 1_555
N3_9 C28_9 1_555 1_555
H32_9 N3_9 1_555 1_555
C29_9 N3_9 1_555 1_555
H33_9 C29_9 1_555 1_555
H34_9 C29_9 1_555 1_555
C30_9 C29_9 1_555 1_555
H35_9 C30_9 1_555 1_555
H36_9 C30_9 1_555 1_555
N4_9 C10_9 1_555 1_555
O4_9 Tb2_4 1_555 1_555
O5_9 Tb2_4 1_555 1_555
O6_9 Tb2_4 1_555 1_555
O7_9 Tb2_4 1_555 1_555
O8_9 Tb2_4 1_555 1_555
O9_9 Tb2_4 1_555 1_555
N5_9 O4_9 1_555 1_555
N6_9 O6_9 1_555 1_555
N7_9 O8_9 1_555 1_555
O10_9 N5_9 1_555 1_555
O11_9 N6_9 1_555 1_555
O12_9 N7_9 1_555 1_555
Tb3_9 O2_9 1_555 1_555
O13_9 Tb2_4 1_555 1_555
C5_9 C6_9 1_555 1_555
C20_9 N4_9 1_555 1_555
C25_9 C26_9 1_555 1_555
C30_9 N4_9 1_555 1_555
O5_9 N5_9 1_555 1_555
O7_9 N6_9 1_555 1_555
O9_9 N7_9 1_555 1_555
H8_10 N1_10 1_555 1_555
C9_10 N1_10 1_555 1_555
H9_10 C9_10 1_555 1_555
H10_10 C9_10 1_555 1_555
C10_10 C9_10 1_555 1_555
H11_10 C10_10 1_555 1_555
H12_10 C10_10 1_555 1_555
H19_8 C18_10 1_555 1_555
N2_10 C18_10 1_555 1_555
H20_10 N2_10 1_555 1_555
C19_10 N2_10 1_555 1_555
H21_10 C19_10 1_555 1_555
H22_10 C19_10 1_555 1_555
C20_10 C19_10 1_555 1_555
H23_10 C20_10 1_555 1_555
H24_10 C20_10 1_555 1_555
H32_10 N3_10 1_555 1_555
C29_10 N3_10 1_555 1_555
H33_10 C29_10 1_555 1_555
H34_10 C29_10 1_555 1_555
C30_10 C29_10 1_555 1_555
H35_10 C30_10 1_555 1_555
H36_10 C30_10 1_555 1_555
N4_10 C10_10 1_555 1_555
N5_10 O4_10 1_555 1_555
O10_10 N5_10 1_555 1_555
Tb3_5 O3_7 1_555 1_555
C20_10 N4_10 1_555 1_555
C30_10 N4_10 1_555 1_555
O5_10 N5_10 1_555 1_555
Tb3_9 O1_10 1_555 1_555
O1_10 C2_10 1_555 1_555
C1_10 C2_10 1_555 1_555
C2_10 C3_10 1_555 1_555
C3_10 H1_10 1_555 1_555
C4_10 C3_10 1_555 1_555
H2_10 C4_10 1_555 1_555
C5_10 C4_10 1_555 1_555
C6_10 C1_10 1_555 1_555
H3_10 C6_10 1_555 1_555
C7_10 C5_10 1_555 1_555
H4_10 C7_10 1_555 1_555
H5_10 C7_10 1_555 1_555
H6_10 C7_10 1_555 1_555
C8_10 C1_10 1_555 1_555
H7_10 C8_10 1_555 1_555
O13_8 C12_10 1_555 1_555
C11_10 C12_10 1_555 1_555
C12_10 C13_10 1_555 1_555
C13_10 H13_10 1_555 1_555
C14_10 C13_10 1_555 1_555
H14_10 C14_10 1_555 1_555
C15_8 C14_10 1_555 1_555
C16_8 C11_10 1_555 1_555
H15_8 C16_8 1_555 1_555
C17_8 C15_8 1_555 1_555
H16_8 C17_8 1_555 1_555
H17_8 C17_8 1_555 1_555
H18_8 C17_8 1_555 1_555
C21_10 C22_8 1_555 1_555
C22_8 C23_8 1_555 1_555
C23_8 H25_8 1_555 1_555
C24_8 C23_8 1_555 1_555
H26_8 C24_8 1_555 1_555
C25_10 C24_8 1_555 1_555
C26_10 C21_10 1_555 1_555
H27_10 C26_10 1_555 1_555
C27_10 C25_10 1_555 1_555
H28_10 C27_10 1_555 1_555
H29_10 C27_10 1_555 1_555
H30_10 C27_10 1_555 1_555
C28_10 C21_10 1_555 1_555
H31_10 C28_10 1_555 1_555
O6_10 Tb3_9 1_555 1_555
O7_10 Tb3_9 1_555 1_555
O8_10 Tb3_9 1_555 1_555
O9_10 Tb3_9 1_555 1_555
N6_10 O6_10 1_555 1_555
N7_10 O8_10 1_555 1_555
O11_10 N6_10 1_555 1_555
O14_4 Tb3_9 1_555 1_555
C5_10 C6_10 1_555 1_555
C15_8 C16_8 1_555 1_555
C25_10 C26_10 1_555 1_555
O7_10 N6_10 1_555 1_555
O9_10 N7_10 1_555 1_555
Tb3_7 O1_11 1_555 1_555
O1_11 C2_11 1_555 1_555
C1_11 C2_11 1_555 1_555
C2_11 C3_11 1_555 1_555
C3_11 H1_11 1_555 1_555
C4_11 C3_11 1_555 1_555
H2_11 C4_11 1_555 1_555
C5_11 C4_11 1_555 1_555
C6_11 C1_11 1_555 1_555
H3_11 C6_11 1_555 1_555
C7_11 C5_11 1_555 1_555
H4_11 C7_11 1_555 1_555
H5_11 C7_11 1_555 1_555
H6_11 C7_11 1_555 1_555
C8_11 C1_11 1_555 1_555
H7_11 C8_11 1_555 1_555
N1_11 C8_11 1_555 1_555
H8_11 N1_11 1_555 1_555
C9_11 N1_11 1_555 1_555
H9_11 C9_11 1_555 1_555
H10_11 C9_11 1_555 1_555
C10_11 C9_11 1_555 1_555
H11_11 C10_11 1_555 1_555
H12_11 C10_11 1_555 1_555
O13_9 C12_11 1_555 1_555
C11_11 C12_11 1_555 1_555
C12_11 C13_11 1_555 1_555
C13_11 H13_11 1_555 1_555
C14_11 C13_11 1_555 1_555
H14_11 C14_11 1_555 1_555
C15_9 C14_11 1_555 1_555
C16_9 C11_11 1_555 1_555
H15_9 C16_9 1_555 1_555
C17_9 C15_9 1_555 1_555
H16_9 C17_9 1_555 1_555
H17_9 C17_9 1_555 1_555
H18_9 C17_9 1_555 1_555
C18_11 C11_11 1_555 1_555
H19_9 C18_11 1_555 1_555
N2_11 C18_11 1_555 1_555
H20_11 N2_11 1_555 1_555
C19_11 N2_11 1_555 1_555
H21_11 C19_11 1_555 1_555
H22_11 C19_11 1_555 1_555
C20_11 C19_11 1_555 1_555
H23_11 C20_11 1_555 1_555
H24_11 C20_11 1_555 1_555
O3_8 C22_9 1_555 1_555
C21_11 C22_9 1_555 1_555
C22_9 C23_9 1_555 1_555
C23_9 H25_9 1_555 1_555
C24_9 C23_9 1_555 1_555
H26_9 C24_9 1_555 1_555
C25_11 C24_9 1_555 1_555
C26_11 C21_11 1_555 1_555
H27_11 C26_11 1_555 1_555
C27_11 C25_11 1_555 1_555
H28_11 C27_11 1_555 1_555
H29_11 C27_11 1_555 1_555
H30_11 C27_11 1_555 1_555
C28_11 C21_11 1_555 1_555
H31_11 C28_11 1_555 1_555
N3_11 C28_11 1_555 1_555
H32_11 N3_11 1_555 1_555
C29_11 N3_11 1_555 1_555
H33_11 C29_11 1_555 1_555
H34_11 C29_11 1_555 1_555
C30_11 C29_11 1_555 1_555
H35_11 C30_11 1_555 1_555
H36_11 C30_11 1_555 1_555
N4_11 C10_11 1_555 1_555
O4_11 Tb3_7 1_555 1_555
O5_11 Tb3_7 1_555 1_555
O6_11 Tb3_7 1_555 1_555
O7_11 Tb3_7 1_555 1_555
O8_11 Tb3_7 1_555 1_555
O9_11 Tb3_7 1_555 1_555
N5_11 O4_11 1_555 1_555
N6_11 O6_11 1_555 1_555
N7_11 O8_11 1_555 1_555
O10_11 N5_11 1_555 1_555
O11_11 N6_11 1_555 1_555
O12_11 N7_11 1_555 1_555
Tb3_6 O3_8 1_555 1_555
O14_5 Tb3_7 1_555 1_555
C5_11 C6_11 1_555 1_555
C15_9 C16_9 1_555 1_555
C20_11 N4_11 1_555 1_555
C25_11 C26_11 1_555 1_555
C30_11 N4_11 1_555 1_555
O5_11 N5_11 1_555 1_555
O7_11 N6_11 1_555 1_555
O9_11 N7_11 1_555 1_555
Tb3_8 O1_12 1_555 1_555
O1_12 C2_12 1_555 1_555
C1_12 C2_12 1_555 1_555
C2_12 C3_12 1_555 1_555
C3_12 H1_12 1_555 1_555
C4_12 C3_12 1_555 1_555
H2_12 C4_12 1_555 1_555
C5_12 C4_12 1_555 1_555
C6_12 C1_12 1_555 1_555
H3_12 C6_12 1_555 1_555
C7_12 C5_12 1_555 1_555
H4_12 C7_12 1_555 1_555
H5_12 C7_12 1_555 1_555
H6_12 C7_12 1_555 1_555
C8_12 C1_12 1_555 1_555
H7_12 C8_12 1_555 1_555
O13_7 C12_12 1_555 1_555
C11_12 C12_12 1_555 1_555
C12_12 C13_12 1_555 1_555
C13_12 H13_12 1_555 1_555
C14_12 C13_12 1_555 1_555
H14_12 C14_12 1_555 1_555
C15_10 C14_12 1_555 1_555
C16_10 C11_12 1_555 1_555
H15_10 C16_10 1_555 1_555
C17_10 C15_10 1_555 1_555
H16_10 C17_10 1_555 1_555
H17_10 C17_10 1_555 1_555
H18_10 C17_10 1_555 1_555
C21_12 C22_10 1_555 1_555
C22_10 C23_10 1_555 1_555
C23_10 H25_10 1_555 1_555
C24_10 C23_10 1_555 1_555
H26_10 C24_10 1_555 1_555
C25_12 C24_10 1_555 1_555
C26_12 C21_12 1_555 1_555
H27_12 C26_12 1_555 1_555
C27_12 C25_12 1_555 1_555
H28_12 C27_12 1_555 1_555
H29_12 C27_12 1_555 1_555
H30_12 C27_12 1_555 1_555
C28_12 C21_12 1_555 1_555
H31_12 C28_12 1_555 1_555
O6_12 Tb3_8 1_555 1_555
O7_12 Tb3_8 1_555 1_555
O8_12 Tb3_8 1_555 1_555
O9_12 Tb3_8 1_555 1_555
N6_12 O6_12 1_555 1_555
N7_12 O8_12 1_555 1_555
O11_12 N6_12 1_555 1_555
O14_6 Tb3_8 1_555 1_555
C5_12 C6_12 1_555 1_555
C15_10 C16_10 1_555 1_555
C25_12 C26_12 1_555 1_555
O7_12 N6_12 1_555 1_555
O9_12 N7_12 1_555 1_555
H8_12 N1_12 1_555 1_555
C9_12 N1_12 1_555 1_555
H9_12 C9_12 1_555 1_555
H10_12 C9_12 1_555 1_555
C10_12 C9_12 1_555 1_555
H11_12 C10_12 1_555 1_555
H12_12 C10_12 1_555 1_555
H19_10 C18_12 1_555 1_555
N2_12 C18_12 1_555 1_555
H20_12 N2_12 1_555 1_555
C19_12 N2_12 1_555 1_555
H21_12 C19_12 1_555 1_555
H22_12 C19_12 1_555 1_555
C20_12 C19_12 1_555 1_555
H23_12 C20_12 1_555 1_555
H24_12 C20_12 1_555 1_555
H32_12 N3_12 1_555 1_555
C29_12 N3_12 1_555 1_555
H33_12 C29_12 1_555 1_555
H34_12 C29_12 1_555 1_555
C30_12 C29_12 1_555 1_555
H35_12 C30_12 1_555 1_555
H36_12 C30_12 1_555 1_555
N4_12 C10_12 1_555 1_555
N5_12 O4_12 1_555 1_555
O10_12 N5_12 1_555 1_555
Tb3_4 O3_9 1_555 1_555
C20_12 N4_12 1_555 1_555
C30_12 N4_12 1_555 1_555
O5_12 N5_12 1_555 1_555
Tb3_6 O1_13 1_555 1_555
O1_13 C2_13 1_555 1_555
C1_13 C2_13 1_555 1_555
C2_13 C3_13 1_555 1_555
C3_13 H1_13 1_555 1_555
C4_13 C3_13 1_555 1_555
H2_13 C4_13 1_555 1_555
C5_13 C4_13 1_555 1_555
C6_13 C1_13 1_555 1_555
H3_13 C6_13 1_555 1_555
C7_13 C5_13 1_555 1_555
H4_13 C7_13 1_555 1_555
H5_13 C7_13 1_555 1_555
H6_13 C7_13 1_555 1_555
C8_13 C1_13 1_555 1_555
H7_13 C8_13 1_555 1_555
N1_13 C8_13 1_555 1_555
H8_13 N1_13 1_555 1_555
C9_13 N1_13 1_555 1_555
H9_13 C9_13 1_555 1_555
H10_13 C9_13 1_555 1_555
C10_13 C9_13 1_555 1_555
H11_13 C10_13 1_555 1_555
H12_13 C10_13 1_555 1_555
O13_5 C12_13 1_555 1_555
C11_13 C12_13 1_555 1_555
C12_13 C13_13 1_555 1_555
C13_13 H13_13 1_555 1_555
C14_13 C13_13 1_555 1_555
H14_13 C14_13 1_555 1_555
C15_11 C14_13 1_555 1_555
C16_11 C11_13 1_555 1_555
H15_11 C16_11 1_555 1_555
C17_11 C15_11 1_555 1_555
H16_11 C17_11 1_555 1_555
H17_11 C17_11 1_555 1_555
H18_11 C17_11 1_555 1_555
C18_13 C11_13 1_555 1_555
H19_11 C18_13 1_555 1_555
N2_13 C18_13 1_555 1_555
H20_13 N2_13 1_555 1_555
C19_13 N2_13 1_555 1_555
H21_13 C19_13 1_555 1_555
H22_13 C19_13 1_555 1_555
C20_13 C19_13 1_555 1_555
H23_13 C20_13 1_555 1_555
H24_13 C20_13 1_555 1_555
O3_10 C22_11 1_555 1_555
C21_13 C22_11 1_555 1_555
C22_11 C23_11 1_555 1_555
C23_11 H25_11 1_555 1_555
C24_11 C23_11 1_555 1_555
H26_11 C24_11 1_555 1_555
C25_13 C24_11 1_555 1_555
C26_13 C21_13 1_555 1_555
H27_13 C26_13 1_555 1_555
C27_13 C25_13 1_555 1_555
H28_13 C27_13 1_555 1_555
H29_13 C27_13 1_555 1_555
H30_13 C27_13 1_555 1_555
C28_13 C21_13 1_555 1_555
H31_13 C28_13 1_555 1_555
N3_13 C28_13 1_555 1_555
H32_13 N3_13 1_555 1_555
C29_13 N3_13 1_555 1_555
H33_13 C29_13 1_555 1_555
H34_13 C29_13 1_555 1_555
C30_13 C29_13 1_555 1_555
H35_13 C30_13 1_555 1_555
H36_13 C30_13 1_555 1_555
N4_13 C10_13 1_555 1_555
O4_13 Tb3_6 1_555 1_555
O5_13 Tb3_6 1_555 1_555
O6_13 Tb3_6 1_555 1_555
O7_13 Tb3_6 1_555 1_555
O8_13 Tb3_6 1_555 1_555
O9_13 Tb3_6 1_555 1_555
N5_13 O4_13 1_555 1_555
N6_13 O6_13 1_555 1_555
N7_13 O8_13 1_555 1_555
O10_13 N5_13 1_555 1_555
O11_13 N6_13 1_555 1_555
O12_13 N7_13 1_555 1_555
Tb3_2 O3_10 1_555 1_555
C5_13 C6_13 1_555 1_555
C15_11 C16_11 1_555 1_555
C20_13 N4_13 1_555 1_555
C25_13 C26_13 1_555 1_555
C30_13 N4_13 1_555 1_555
O5_13 N5_13 1_555 1_555
O7_13 N6_13 1_555 1_555
O9_13 N7_13 1_555 1_555
C6_14 C1_14 1_555 1_555
H3_14 C6_14 1_555 1_555
C8_14 C1_14 1_555 1_555
H7_14 C8_14 1_555 1_555
N1_14 C8_14 1_555 1_555
H8_14 N1_14 1_555 1_555
C9_14 N1_14 1_555 1_555
H9_14 C9_14 1_555 1_555
H10_14 C9_14 1_555 1_555
C10_14 C9_14 1_555 1_555
H11_14 C10_14 1_555 1_555
H12_14 C10_14 1_555 1_555
O13_6 C12_14 1_555 1_555
C11_14 C12_14 1_555 1_555
C12_14 C13_14 1_555 1_555
C13_14 H13_14 1_555 1_555
C14_14 C13_14 1_555 1_555
H14_14 C14_14 1_555 1_555
C15_12 C14_14 1_555 1_555
C16_12 C11_14 1_555 1_555
H15_12 C16_12 1_555 1_555
C17_12 C15_12 1_555 1_555
H16_12 C17_12 1_555 1_555
H17_12 C17_12 1_555 1_555
H18_12 C17_12 1_555 1_555
C18_14 C11_14 1_555 1_555
H19_12 C18_14 1_555 1_555
N2_14 C18_14 1_555 1_555
H20_14 N2_14 1_555 1_555
C19_14 N2_14 1_555 1_555
H21_14 C19_14 1_555 1_555
H22_14 C19_14 1_555 1_555
C20_14 C19_14 1_555 1_555
H23_14 C20_14 1_555 1_555
H24_14 C20_14 1_555 1_555
H32_14 N3_14 1_555 1_555
C29_14 N3_14 1_555 1_555
H34_14 C29_14 1_555 1_555
C30_14 C29_14 1_555 1_555
H35_14 C30_14 1_555 1_555
H36_14 C30_14 1_555 1_555
N4_14 C10_14 1_555 1_555
Tb3_3 O3_11 1_555 1_555
C15_12 C16_12 1_555 1_555
C20_14 N4_14 1_555 1_555
C30_14 N4_14 1_555 1_555
Tb3_4 O1_14 1_555 1_555
O1_14 C2_14 1_555 1_555
C2_14 C3_14 1_555 1_555
C3_14 H1_14 1_555 1_555
C4_14 C3_14 1_555 1_555
H2_14 C4_14 1_555 1_555
C5_14 C4_14 1_555 1_555
C7_14 C5_14 1_555 1_555
H5_14 C7_14 1_555 1_555
C21_14 C22_12 1_555 1_555
C22_12 C23_12 1_555 1_555
C23_12 H25_12 1_555 1_555
C24_12 C23_12 1_555 1_555
H26_12 C24_12 1_555 1_555
C25_14 C24_12 1_555 1_555
C26_14 C21_14 1_555 1_555
H27_14 C26_14 1_555 1_555
C27_14 C25_14 1_555 1_555
H28_14 C27_14 1_555 1_555
H29_14 C27_14 1_555 1_555
H30_14 C27_14 1_555 1_555
C28_14 C21_14 1_555 1_555
H31_14 C28_14 1_555 1_555
O5_14 Tb3_4 1_555 1_555
O6_14 Tb3_4 1_555 1_555
O7_14 Tb3_4 1_555 1_555
O8_14 Tb3_4 1_555 1_555
O9_14 Tb3_4 1_555 1_555
N6_14 O6_14 1_555 1_555
N7_14 O8_14 1_555 1_555
O11_14 N6_14 1_555 1_555
O12_14 N7_14 1_555 1_555
C25_14 C26_14 1_555 1_555
O5_14 N5_14 1_555 1_555
O7_14 N6_14 1_555 1_555
O9_14 N7_14 1_555 1_555
Tb3_5 O1_15 1_555 1_555
O1_15 C2_15 1_555 1_555
C2_15 C3_15 1_555 1_555
C3_15 H1_15 1_555 1_555
C4_15 C3_15 1_555 1_555
H2_15 C4_15 1_555 1_555
C5_15 C4_15 1_555 1_555
C7_15 C5_15 1_555 1_555
H5_15 C7_15 1_555 1_555
C21_15 C22_13 1_555 1_555
C22_13 C23_13 1_555 1_555
C23_13 H25_13 1_555 1_555
C24_13 C23_13 1_555 1_555
H26_13 C24_13 1_555 1_555
C25_15 C24_13 1_555 1_555
C26_15 C21_15 1_555 1_555
H27_15 C26_15 1_555 1_555
C27_15 C25_15 1_555 1_555
H28_15 C27_15 1_555 1_555
H29_15 C27_15 1_555 1_555
H30_15 C27_15 1_555 1_555
C28_15 C21_15 1_555 1_555
H31_15 C28_15 1_555 1_555
O5_15 Tb3_5 1_555 1_555
O6_15 Tb3_5 1_555 1_555
O7_15 Tb3_5 1_555 1_555
O8_15 Tb3_5 1_555 1_555
O9_15 Tb3_5 1_555 1_555
N6_15 O6_15 1_555 1_555
N7_15 O8_15 1_555 1_555
O11_15 N6_15 1_555 1_555
O12_15 N7_15 1_555 1_555
C25_15 C26_15 1_555 1_555
O5_15 N5_15 1_555 1_555
O7_15 N6_15 1_555 1_555
O9_15 N7_15 1_555 1_555
C6_15 C1_15 1_555 1_555
H3_15 C6_15 1_555 1_555
C8_15 C1_15 1_555 1_555
H7_15 C8_15 1_555 1_555
N1_15 C8_15 1_555 1_555
H8_15 N1_15 1_555 1_555
C9_15 N1_15 1_555 1_555
H9_15 C9_15 1_555 1_555
H10_15 C9_15 1_555 1_555
C10_15 C9_15 1_555 1_555
H11_15 C10_15 1_555 1_555
H12_15 C10_15 1_555 1_555
O13_4 C12_15 1_555 1_555
C11_15 C12_15 1_555 1_555
C12_15 C13_15 1_555 1_555
C13_15 H13_15 1_555 1_555
C14_15 C13_15 1_555 1_555
H14_15 C14_15 1_555 1_555
C15_13 C14_15 1_555 1_555
C16_13 C11_15 1_555 1_555
H15_13 C16_13 1_555 1_555
C17_13 C15_13 1_555 1_555
H16_13 C17_13 1_555 1_555
H17_13 C17_13 1_555 1_555
H18_13 C17_13 1_555 1_555
C18_15 C11_15 1_555 1_555
H19_13 C18_15 1_555 1_555
N2_15 C18_15 1_555 1_555
H20_15 N2_15 1_555 1_555
C19_15 N2_15 1_555 1_555
H21_15 C19_15 1_555 1_555
H22_15 C19_15 1_555 1_555
C20_15 C19_15 1_555 1_555
H23_15 C20_15 1_555 1_555
H24_15 C20_15 1_555 1_555
H32_15 N3_15 1_555 1_555
C29_15 N3_15 1_555 1_555
H34_15 C29_15 1_555 1_555
C30_15 C29_15 1_555 1_555
H35_15 C30_15 1_555 1_555
H36_15 C30_15 1_555 1_555
N4_15 C10_15 1_555 1_555
Tb3 O3_12 1_555 1_555
C15_13 C16_13 1_555 1_555
C20_15 N4_15 1_555 1_555
C30_15 N4_15 1_555 1_555
H11_16 C10_16 1_555 1_555
H12_16 C10_16 1_555 1_555
H31_16 C28_16 1_555 1_555
N3_16 C28_16 1_555 1_555
H32_16 N3_16 1_555 1_555
C29_16 N3_16 1_555 1_555
H33_16 C29_16 1_555 1_555
H34_16 C29_16 1_555 1_555
C30_16 C29_16 1_555 1_555
H35_16 C30_16 1_555 1_555
H36_16 C30_16 1_555 1_555
O4_16 Tb3_3 1_555 1_555
O5_16 Tb3_3 1_555 1_555
O6_16 Tb3_3 1_555 1_555
O7_16 Tb3_3 1_555 1_555
O8_16 Tb3_3 1_555 1_555
O9_16 Tb3_3 1_555 1_555
N5_16 O4_16 1_555 1_555
N6_16 O6_16 1_555 1_555
N7_16 O8_16 1_555 1_555
O10_16 N5_16 1_555 1_555
O11_16 N6_16 1_555 1_555
O12_16 N7_16 1_555 1_555
O5_16 N5_16 1_555 1_555
O7_16 N6_16 1_555 1_555
O9_16 N7_16 1_555 1_555
O1_16 C2_16 1_555 1_555
C1_16 C2_16 1_555 1_555
C2_16 C3_16 1_555 1_555
C3_16 H1_16 1_555 1_555
C4_16 C3_16 1_555 1_555
H2_16 C4_16 1_555 1_555
C5_16 C4_16 1_555 1_555
C6_16 C1_16 1_555 1_555
H3_16 C6_16 1_555 1_555
C7_16 C5_16 1_555 1_555
H4_16 C7_16 1_555 1_555
H5_16 C7_16 1_555 1_555
H6_16 C7_16 1_555 1_555
C8_16 C1_16 1_555 1_555
H7_16 C8_16 1_555 1_555
N1_16 C8_16 1_555 1_555
H8_16 N1_16 1_555 1_555
C9_16 N1_16 1_555 1_555
H9_16 C9_16 1_555 1_555
H10_16 C9_16 1_555 1_555
O13_2 C12_16 1_555 1_555
C11_16 C12_16 1_555 1_555
C12_16 C13_16 1_555 1_555
C13_16 H13_16 1_555 1_555
C14_16 C13_16 1_555 1_555
H14_16 C14_16 1_555 1_555
C18_16 C11_16 1_555 1_555
N2_16 C18_16 1_555 1_555
H20_16 N2_16 1_555 1_555
C19_16 N2_16 1_555 1_555
H21_16 C19_16 1_555 1_555
H22_16 C19_16 1_555 1_555
C20_16 C19_16 1_555 1_555
H23_16 C20_16 1_555 1_555
H24_16 C20_16 1_555 1_555
C26_16 C21_16 1_555 1_555
H27_16 C26_16 1_555 1_555
C27_16 C25_16 1_555 1_555
H28_16 C27_16 1_555 1_555
H29_16 C27_16 1_555 1_555
H30_16 C27_16 1_555 1_555
C5_16 C6_16 1_555 1_555
C20_16 N4_16 1_555 1_555
C25_16 C26_16 1_555 1_555
O1_17 C2_17 1_555 1_555
C1_17 C2_17 1_555 1_555
C2_17 C3_17 1_555 1_555
C3_17 H1_17 1_555 1_555
C4_17 C3_17 1_555 1_555
H2_17 C4_17 1_555 1_555
C5_17 C4_17 1_555 1_555
C6_17 C1_17 1_555 1_555
H3_17 C6_17 1_555 1_555
C7_17 C5_17 1_555 1_555
H4_17 C7_17 1_555 1_555
H5_17 C7_17 1_555 1_555
H6_17 C7_17 1_555 1_555
C8_17 C1_17 1_555 1_555
H7_17 C8_17 1_555 1_555
N1_17 C8_17 1_555 1_555
H8_17 N1_17 1_555 1_555
C9_17 N1_17 1_555 1_555
H9_17 C9_17 1_555 1_555
H10_17 C9_17 1_555 1_555
O13_3 C12_17 1_555 1_555
C11_17 C12_17 1_555 1_555
C12_17 C13_17 1_555 1_555
C13_17 H13_17 1_555 1_555
C14_17 C13_17 1_555 1_555
H14_17 C14_17 1_555 1_555
C18_17 C11_17 1_555 1_555
N2_17 C18_17 1_555 1_555
H20_17 N2_17 1_555 1_555
C19_17 N2_17 1_555 1_555
H21_17 C19_17 1_555 1_555
H22_17 C19_17 1_555 1_555
C20_17 C19_17 1_555 1_555
H23_17 C20_17 1_555 1_555
H24_17 C20_17 1_555 1_555
C26_17 C21_17 1_555 1_555
H27_17 C26_17 1_555 1_555
C27_17 C25_17 1_555 1_555
H28_17 C27_17 1_555 1_555
H29_17 C27_17 1_555 1_555
H30_17 C27_17 1_555 1_555
C5_17 C6_17 1_555 1_555
C20_17 N4_17 1_555 1_555
C25_17 C26_17 1_555 1_555
H11_17 C10_17 1_555 1_555
H12_17 C10_17 1_555 1_555
H31_17 C28_17 1_555 1_555
N3_17 C28_17 1_555 1_555
H32_17 N3_17 1_555 1_555
C29_17 N3_17 1_555 1_555
H33_17 C29_17 1_555 1_555
H34_17 C29_17 1_555 1_555
C30_17 C29_17 1_555 1_555
H35_17 C30_17 1_555 1_555
H36_17 C30_17 1_555 1_555
O4_17 Tb3 1_555 1_555
O5_17 Tb3 1_555 1_555
O6_17 Tb3 1_555 1_555
O7_17 Tb3 1_555 1_555
O8_17 Tb3 1_555 1_555
O9_17 Tb3 1_555 1_555
N5_17 O4_17 1_555 1_555
N6_17 O6_17 1_555 1_555
N7_17 O8_17 1_555 1_555
O10_17 N5_17 1_555 1_555
O11_17 N6_17 1_555 1_555
O12_17 N7_17 1_555 1_555
O5_17 N5_17 1_555 1_555
O7_17 N6_17 1_555 1_555
O9_17 N7_17 1_555 1_555
Tb3_2 O1_18 1_555 1_555
O1_18 C2_18 1_555 1_555
C1_18 C2_18 1_555 1_555
C2_18 C3_18 1_555 1_555
C3_18 H1_18 1_555 1_555
C4_18 C3_18 1_555 1_555
H2_18 C4_18 1_555 1_555
C5_18 C4_18 1_555 1_555
C6_18 C1_18 1_555 1_555
H3_18 C6_18 1_555 1_555
C7_18 C5_18 1_555 1_555
H4_18 C7_18 1_555 1_555
H5_18 C7_18 1_555 1_555
H6_18 C7_18 1_555 1_555
C8_18 C1_18 1_555 1_555
H7_18 C8_18 1_555 1_555
N1_18 C8_18 1_555 1_555
H8_18 N1_18 1_555 1_555
C9_18 N1_18 1_555 1_555
H9_18 C9_18 1_555 1_555
H10_18 C9_18 1_555 1_555
C10_18 C9_18 1_555 1_555
H11_18 C10_18 1_555 1_555
H12_18 C10_18 1_555 1_555
O13 C12_18 1_555 1_555
C11_18 C12_18 1_555 1_555
C12_18 C13_18 1_555 1_555
C13_18 H13_18 1_555 1_555
C14_18 C13_18 1_555 1_555
H14_18 C14_18 1_555 1_555
C18_18 C11_18 1_555 1_555
N2_18 C18_18 1_555 1_555
H20_18 N2_18 1_555 1_555
C19_18 N2_18 1_555 1_555
H21_18 C19_18 1_555 1_555
H22_18 C19_18 1_555 1_555
C20_18 C19_18 1_555 1_555
H23_18 C20_18 1_555 1_555
H24_18 C20_18 1_555 1_555
C26_18 C21_18 1_555 1_555
H27_18 C26_18 1_555 1_555
C27_18 C25_18 1_555 1_555
H28_18 C27_18 1_555 1_555
H29_18 C27_18 1_555 1_555
H30_18 C27_18 1_555 1_555
C28_18 C21_18 1_555 1_555
H31_18 C28_18 1_555 1_555
N3_18 C28_18 1_555 1_555
H32_18 N3_18 1_555 1_555
C29_18 N3_18 1_555 1_555
H33_18 C29_18 1_555 1_555
H34_18 C29_18 1_555 1_555
C30_18 C29_18 1_555 1_555
H35_18 C30_18 1_555 1_555
H36_18 C30_18 1_555 1_555
N4_18 C10_18 1_555 1_555
O4_18 Tb3_2 1_555 1_555
O5_18 Tb3_2 1_555 1_555
O6_18 Tb3_2 1_555 1_555
O7_18 Tb3_2 1_555 1_555
O8_18 Tb3_2 1_555 1_555
O9_18 Tb3_2 1_555 1_555
N5_18 O4_18 1_555 1_555
N6_18 O6_18 1_555 1_555
N7_18 O8_18 1_555 1_555
O10_18 N5_18 1_555 1_555
O11_18 N6_18 1_555 1_555
O12_18 N7_18 1_555 1_555
C5_18 C6_18 1_555 1_555
C20_18 N4_18 1_555 1_555
C25_18 C26_18 1_555 1_555
C30_18 N4_18 1_555 1_555
O5_18 N5_18 1_555 1_555
O7_18 N6_18 1_555 1_555
O9_18 N7_18 1_555 1_555
H15_14 C16_14 1_555 1_555
C17_14 C15_14 1_555 1_555
H16_14 C17_14 1_555 1_555
H17_14 C17_14 1_555 1_555
H18_14 C17_14 1_555 1_555
O14_5 C22_14 1_555 1_555
C22_14 C23_14 1_555 1_555
C23_14 H25_14 1_555 1_555
C24_14 C23_14 1_555 1_555
H26_14 C24_14 1_555 1_555
C15_14 C16_14 1_555 1_555
H15_15 C16_15 1_555 1_555
C17_15 C15_15 1_555 1_555
H16_15 C17_15 1_555 1_555
H17_15 C17_15 1_555 1_555
H18_15 C17_15 1_555 1_555
C22_15 C23_15 1_555 1_555
C23_15 H25_15 1_555 1_555
C24_15 C23_15 1_555 1_555
H26_15 C24_15 1_555 1_555
C15_15 C16_15 1_555 1_555
H15_16 C16_16 1_555 1_555
C17_16 C15_16 1_555 1_555
H16_16 C17_16 1_555 1_555
H17_16 C17_16 1_555 1_555
H18_16 C17_16 1_555 1_555
C22_16 C23_16 1_555 1_555
C23_16 H25_16 1_555 1_555
C24_16 C23_16 1_555 1_555
H26_16 C24_16 1_555 1_555
C15_16 C16_16 1_555 1_555
H15_17 C16_17 1_555 1_555
C17_17 C15_17 1_555 1_555
H16_17 C17_17 1_555 1_555
H17_17 C17_17 1_555 1_555
H18_17 C17_17 1_555 1_555
C22_17 C23_17 1_555 1_555
C23_17 H25_17 1_555 1_555
C24_17 C23_17 1_555 1_555
H26_17 C24_17 1_555 1_555
C15_17 C16_17 1_555 1_555
H15_18 C16_18 1_555 1_555
C17_18 C15_18 1_555 1_555
H16_18 C17_18 1_555 1_555
H17_18 C17_18 1_555 1_555
H18_18 C17_18 1_555 1_555
C22_18 C23_18 1_555 1_555
C23_18 H25_18 1_555 1_555
C24_18 C23_18 1_555 1_555
H26_18 C24_18 1_555 1_555
C15_18 C16_18 1_555 1_555

#END
