
###############################################################################
#
# This file contains modified crystal structure data generated from the
# MOF subset of the Cambridge Structural Database (CSD) v543 
# hosted by the Cambridge Crystallographic Data Centre (CCDC).
#
# This work is licensed under the Creative Commons
# Attribution-NonCommercial-ShareAlike 4.0 International License.
# To view a copy of this license, visit
# http://creativecommons.org/licenses/by-nc-sa/4.0/
# or send a letter to
# Creative Commons, PO Box 1866, Mountain View, CA 94042, USA.
#
# CIF created using the CSD Python API on 29 September 2022
# The structure has been converted into the P1 space group
# The structure has a 3D framework
# The original CSD entry JOQGUT is in the rhombohedral crystal system
# The framework has been calculated to contain at least 10.0% void space
# The void calculation uses a probe of radius 1.32A, grid spacing 0.4
# The framework is charged, counterions have been retained in the structure
#
###############################################################################

data_JOQGUT
_chemical_formula_moiety         '(C540 H648 N126 O258 Tb18 12+)n'
_symmetry_cell_setting           triclinic
_symmetry_space_group_name_H-M   'P 1'
_symmetry_Int_Tables_number      1
_space_group_name_Hall           'P 1'
loop_
_symmetry_equiv_pos_site_id
_symmetry_equiv_pos_as_xyz
1 x,y,z
_cell_length_a                   26.447(3)
_cell_length_b                   26.447(3)
_cell_length_c                   29.759(4)
_cell_angle_alpha                90
_cell_angle_beta                 90
_cell_angle_gamma                120
_cell_volume                     18026.1
loop_
_atom_site_label
_atom_site_type_symbol
_atom_site_fract_x
_atom_site_fract_y
_atom_site_fract_z
Tb1 Tb 0.397759(14) 0.349716(15) 0.236267(10)
O1 O 0.3334(2) 0.3741(2) 0.20724(16)
C1 C 0.2870(3) 0.3997(3) 0.1503(2)
C2 C 0.3323(3) 0.4151(3) 0.1822(2)
C3 C 0.3738(3) 0.4740(3) 0.1863(3)
H1 H 0.4049 0.4855 0.2072
C4 C 0.3710(3) 0.5160(3) 0.1609(3)
H2 H 0.4000 0.5559 0.1646
C5 C 0.3266(3) 0.5010(3) 0.1300(3)
C6 C 0.2856(3) 0.4437(3) 0.1246(2)
H3 H 0.2555 0.4332 0.1030
O2 O 0.3209(3) 0.5411(2) 0.1036(2)
C7 C 0.3668(5) 0.5998(4) 0.1055(4)
H4 H 0.3648 0.6173 0.1340
H5 H 0.3629 0.6218 0.0805
H6 H 0.4044 0.6011 0.1033
C8 C 0.2400(3) 0.3410(3) 0.1454(2)
H7 H 0.2097 0.3342 0.1249
N1 N 0.2358(3) 0.2969(3) 0.16661(18)
H8 H 0.265(2) 0.308(3) 0.185(2)
C9 C 0.1857(3) 0.2372(3) 0.1627(2)
H9 H 0.1526 0.2386 0.1484
H10 H 0.1732 0.2203 0.1931
C10 C 0.2011(3) 0.1983(3) 0.1350(2)
H11 H 0.2372 0.2008 0.1471
H12 H 0.1693 0.1572 0.1375
O3 O 0.0956(2) 0.3280(3) 0.04872(17)
C11 C 0.1917(3) 0.3847(4) 0.0207(2)
C12 C 0.1377(3) 0.3786(4) 0.0350(2)
C13 C 0.1309(3) 0.4271(4) 0.0316(3)
H13 H 0.0936 0.4225 0.0381
C14 C 0.1745(4) 0.4808(6) 0.0196(3)
H14 H 0.1678 0.5128 0.0181
C15 C 0.2300(4) 0.4883(6) 0.0094(3)
C16 C 0.2381(4) 0.4414(6) 0.0089(3)
H15 H 0.2750 0.4464 0.0006
H18 H 0.3454 0.5461 0.0110
C18 C 0.1992(4) 0.3355(5) 0.0177(2)
H19 H 0.2351 0.3411 0.0061
N2 N 0.1599(3) 0.2830(4) 0.02986(19)
H20 H 0.130(3) 0.278(4) 0.036(2)
C19 C 0.1612(4) 0.2298(5) 0.0212(2)
H21 H 0.1292 0.2051 0.0001
H22 H 0.1986 0.2398 0.0065
C20 C 0.1545(3) 0.1946(3) 0.0640(2)
H23 H 0.1263 0.1972 0.0844
H24 H 0.1385 0.1530 0.0560
C21 C 0.3691(4) 0.3890(3) 0.0257(2)
C25 C 0.4236(6) 0.4933(4) 0.0174(3)
C26 C 0.4056(5) 0.4449(3) 0.0435(2)
H27 H 0.4179 0.4491 0.0740
O6 O 0.4592(4) 0.5504(2) 0.03164(19)
C27 C 0.4853(6) 0.5568(4) 0.0744(3)
H28 H 0.4548 0.5396 0.0974
H29 H 0.5110 0.5984 0.0808
H30 H 0.5082 0.5370 0.0745
C28 C 0.3540(4) 0.3410(3) 0.0541(2)
H31 H 0.3656 0.3489 0.0847
N3 N 0.3258(4) 0.2873(3) 0.04165(18)
H32 H 0.314(4) 0.284(3) 0.0132(11)
C29 C 0.3095(4) 0.2353(3) 0.0697(2)
H33 H 0.3200 0.2473 0.1014
H34 H 0.3314 0.2160 0.0596
C30 C 0.2450(3) 0.1933(3) 0.0660(2)
H35 H 0.2341 0.1855 0.0339
H36 H 0.2358 0.1559 0.0803
N4 N 0.2101(2) 0.2157(2) 0.08741(17)
N5 N 0.4609(3) 0.4164(4) 0.1579(2)
O7 O 0.4183(3) 0.3636(3) 0.15275(17)
O8 O 0.4726(2) 0.4356(2) 0.19717(18)
N6 N 0.3328(3) 0.2245(3) 0.2228(2)
O9 O 0.3241(2) 0.2606(2) 0.20051(16)
O10 O 0.3727(2) 0.2449(2) 0.25128(17)
N7 N 0.5007(3) 0.3384(3) 0.2513(3)
O11 O 0.4771(3) 0.3282(3) 0.2124(2)
O12 O 0.4812(2) 0.3597(2) 0.27963(16)
O13 O 0.4876(3) 0.4448(3) 0.1255(2)
O14 O 0.3024(4) 0.1725(3) 0.2165(3)
O15 O 0.5385(4) 0.3266(4) 0.2609(3)
Tb3 Tb 0.016383(15) 0.285290(21) 0.097066(10)
O16 O 0.4343(4) 0.4289(2) 0.28461(17)
O17 O 0.3368(2) 0.3171(4) 0.29713(14)
O4 O 0.2715(3) 0.5465(4) 0.9992(2)
C17 C 0.3283(5) 0.5569(7) 0.9862(4)
H16 H 0.3247 0.5334 0.9597
H17 H 0.3535 0.5983 0.9791
O5 O 0.3137(3) 0.3299(2) 0.96380(14)
C22 C 0.3489(4) 0.3816(3) 0.9807(2)
C23 C 0.3670(4) 0.4330(3) 0.9557(2)
H25 H 0.3532 0.4301 0.9259
C24 C 0.4037(6) 0.4867(4) 0.9729(3)
H26 H 0.4161 0.5202 0.9546
Tb2 Tb 0.285290(21) 0.268908(14) 0.902934(10)
Tb1_2 Tb 0.650284(15) 0.048043(21) 0.236267(10)
C10_2 C 0.8017(3) 0.0028(4) 0.1350(2)
H11_2 H 0.7992 0.0364 0.1471
H12_2 H 0.8428 0.0121 0.1375
C28_2 C 0.6590(3) 0.0130(5) 0.0541(2)
H31_2 H 0.6511 0.0167 0.0847
N3_2 N 0.7127(3) 0.0385(5) 0.04165(18)
H32_2 H 0.716(3) 0.030(5) 0.0132(11)
C29_2 C 0.7647(3) 0.0742(5) 0.0697(2)
H33_2 H 0.7527 0.0727 0.1014
H34_2 H 0.7840 0.1154 0.0596
C30_2 C 0.8067(3) 0.0517(4) 0.0660(2)
H35_2 H 0.8145 0.0486 0.0339
H36_2 H 0.8441 0.0799 0.0803
N5_2 N 0.5836(4) 0.0445(5) 0.1579(2)
O7_2 O 0.6364(3) 0.0547(4) 0.15275(17)
O8_2 O 0.5644(2) 0.0370(3) 0.19717(18)
N6_2 N 0.7755(3) 0.1083(4) 0.2228(2)
O9_2 O 0.7394(2) 0.0635(3) 0.20051(16)
O10_2 O 0.7551(2) 0.1278(3) 0.25128(17)
N7_2 N 0.6616(3) 0.1623(4) 0.2513(3)
O11_2 O 0.6718(3) 0.1489(4) 0.2124(2)
O12_2 O 0.6403(2) 0.1215(3) 0.27963(16)
O13_2 O 0.5552(3) 0.0428(4) 0.1255(2)
O14_2 O 0.8275(3) 0.1299(5) 0.2165(3)
O15_2 O 0.6734(4) 0.2119(6) 0.2609(3)
O16_2 O 0.5711(2) 0.0053(4) 0.28461(17)
O17_2 O 0.6829(4) 0.0196(4) 0.29713(14)
O1_2 O 0.6259(2) 0.9593(3) 0.20724(16)
C1_2 C 0.6003(3) 0.8873(4) 0.1503(2)
C2_2 C 0.5849(3) 0.9172(4) 0.1822(2)
C3_2 C 0.5260(3) 0.8998(4) 0.1863(3)
H1_2 H 0.5145 0.9194 0.2072
C4_2 C 0.4840(3) 0.8550(4) 0.1609(3)
H2_2 H 0.4441 0.8441 0.1646
C5_2 C 0.4990(3) 0.8256(4) 0.1300(3)
C6_2 C 0.5563(3) 0.8419(4) 0.1246(2)
H3_2 H 0.5668 0.8223 0.1030
O2_2 O 0.4589(2) 0.7798(4) 0.1036(2)
C7_2 C 0.4002(4) 0.7670(6) 0.1055(4)
H4_2 H 0.3827 0.7475 0.1340
H5_2 H 0.3782 0.7411 0.0805
H6_2 H 0.3989 0.8033 0.1033
C8_2 C 0.6590(3) 0.8990(4) 0.1454(2)
H7_2 H 0.6658 0.8755 0.1249
N1_2 N 0.7031(3) 0.9389(4) 0.16661(18)
H8_2 H 0.692(3) 0.957(4) 0.185(2)
C9_2 C 0.7628(3) 0.9485(4) 0.1627(2)
H9_2 H 0.7614 0.9140 0.1484
H10_2 H 0.7797 0.9529 0.1931
O3_2 O 0.6720(3) 0.7676(4) 0.04872(17)
C11_2 C 0.6153(4) 0.8070(5) 0.0207(2)
C12_2 C 0.6214(4) 0.7591(5) 0.0350(2)
C13_2 C 0.5729(4) 0.7038(5) 0.0316(3)
H13_2 H 0.5775 0.6711 0.0381
C14_2 C 0.5192(6) 0.6937(7) 0.0196(3)
H14_2 H 0.4872 0.6550 0.0181
C15_2 C 0.5117(6) 0.7417(7) 0.0094(3)
C16_2 C 0.5586(6) 0.7967(7) 0.0089(3)
H15_2 H 0.5536 0.8286 0.0006
H18_2 H 0.4539 0.7993 0.0110
C18_2 C 0.6645(5) 0.8637(6) 0.0177(2)
H19_2 H 0.6589 0.8940 0.0061
N2_2 N 0.7170(4) 0.8769(5) 0.02986(19)
H20_2 H 0.722(4) 0.852(5) 0.036(2)
C19_2 C 0.7702(5) 0.9314(6) 0.0212(2)
H21_2 H 0.7949 0.9241 0.0001
H22_2 H 0.7602 0.9588 0.0065
C20_2 C 0.8054(3) 0.9599(4) 0.0640(2)
H23_2 H 0.8028 0.9291 0.0844
H24_2 H 0.8470 0.9855 0.0560
C21_2 C 0.6110(3) 0.9801(5) 0.0257(2)
C25_2 C 0.5067(4) 0.9303(7) 0.0174(3)
C26_2 C 0.5551(3) 0.9607(6) 0.0435(2)
H27_2 H 0.5509 0.9688 0.0740
O6_2 O 0.4496(2) 0.9088(4) 0.03164(19)
C27_2 C 0.4432(4) 0.9285(7) 0.0744(3)
H28_2 H 0.4604 0.9152 0.0974
H29_2 H 0.4016 0.9126 0.0808
H30_2 H 0.4630 0.9712 0.0745
N4_2 N 0.7843(2) 0.9944(3) 0.08741(17)
Tb3_2 Tb 0.714710(21) 0.731092(26) 0.097066(10)
O4_2 O 0.4535(4) 0.7250(5) 0.9992(2)
C17_2 C 0.4431(7) 0.7714(9) 0.9862(4)
H16_2 H 0.4666 0.7913 0.9597
H17_2 H 0.4017 0.7552 0.9791
O5_2 O 0.6701(2) 0.9838(4) 0.96380(14)
C22_2 C 0.6184(3) 0.9673(5) 0.9807(2)
C23_2 C 0.5670(3) 0.9340(5) 0.9557(2)
H25_2 H 0.5699 0.9231 0.9259
C24_2 C 0.5133(4) 0.9170(7) 0.9729(3)
H26_2 H 0.4798 0.8959 0.9546
O4_3 O 0.2750(5) 0.7285(3) 0.9992(2)
C17_3 C 0.2286(9) 0.6717(5) 0.9862(4)
H16_3 H 0.2087 0.6753 0.9597
H17_3 H 0.2448 0.6465 0.9791
O5_3 O 0.0162(4) 0.6863(3) 0.96380(14)
C22_3 C 0.0327(5) 0.6511(4) 0.9807(2)
C23_3 C 0.0660(5) 0.6330(4) 0.9557(2)
H25_3 H 0.0769 0.6468 0.9259
C24_3 C 0.0830(7) 0.5963(6) 0.9729(3)
H26_3 H 0.1041 0.5839 0.9546
Tb1_3 Tb 0.951957(21) 0.602241(14) 0.236267(10)
C10_3 C 0.9972(4) 0.7989(3) 0.1350(2)
H11_3 H 0.9636 0.7628 0.1471
H12_3 H 0.9879 0.8307 0.1375
C28_3 C 0.9870(5) 0.6460(4) 0.0541(2)
H31_3 H 0.9833 0.6344 0.0847
N3_3 N 0.9615(5) 0.6742(4) 0.04165(18)
H32_3 H 0.970(5) 0.686(4) 0.0132(11)
C29_3 C 0.9258(5) 0.6905(4) 0.0697(2)
H33_3 H 0.9273 0.6800 0.1014
H34_3 H 0.8846 0.6686 0.0596
C30_3 C 0.9483(4) 0.7550(3) 0.0660(2)
H35_3 H 0.9514 0.7659 0.0339
H36_3 H 0.9201 0.7642 0.0803
N5_3 N 0.9555(5) 0.5391(3) 0.1579(2)
O7_3 O 0.9453(4) 0.5817(3) 0.15275(17)
O8_3 O 0.9630(3) 0.5274(2) 0.19717(18)
N6_3 N 0.8917(4) 0.6672(3) 0.2228(2)
O9_3 O 0.9365(3) 0.6759(2) 0.20051(16)
O10_3 O 0.8722(3) 0.6273(2) 0.25128(17)
N7_3 N 0.8377(4) 0.4993(3) 0.2513(3)
O11_3 O 0.8511(4) 0.5229(3) 0.2124(2)
O12_3 O 0.8785(3) 0.5188(2) 0.27963(16)
O13_3 O 0.9572(4) 0.5124(3) 0.1255(2)
O14_3 O 0.8701(5) 0.6976(4) 0.2165(3)
O15_3 O 0.7881(6) 0.4615(4) 0.2609(3)
O16_3 O 0.9947(4) 0.5657(4) 0.28461(17)
O17_3 O 0.9804(4) 0.6632(2) 0.29713(14)
Tb2_2 Tb 0.983617(25) 0.714710(21) 0.902934(10)
Tb1_4 Tb 0.064426(14) 0.683049(15) 0.569600(10)
O1_3 O 0.0001(2) 0.7074(2) 0.54057(16)
C3_3 C 0.0405(3) 0.8073(3) 0.5196(3)
H1_3 H 0.0716 0.8188 0.5405
C4_3 C 0.0377(3) 0.8493(3) 0.4942(3)
H2_3 H 0.0667 0.8892 0.4979
C7_3 C 0.0335(5) 0.9331(4) 0.4388(4)
H4_3 H 0.0315 0.9506 0.4673
H5_3 H 0.0296 0.9551 0.4138
H6_3 H 0.0711 0.9344 0.4366
H17_4 H 0.0202 0.9316 0.3124
H18_3 H 0.0121 0.8794 0.3443
C21_3 C 0.0358(4) 0.7223(3) 0.3590(2)
C22_4 C 0.0156(4) 0.7149(3) 0.3140(2)
C23_4 C 0.0337(4) 0.7663(3) 0.2890(2)
H25_4 H 0.0199 0.7634 0.2592
C24_4 C 0.0704(6) 0.8200(4) 0.3062(3)
H26_4 H 0.0828 0.8535 0.2879
C25_3 C 0.0903(6) 0.8266(4) 0.3507(3)
C26_3 C 0.0723(5) 0.7782(3) 0.3768(2)
H27_3 H 0.0846 0.7824 0.4073
O6_3 O 0.1259(4) 0.8837(2) 0.36497(19)
C27_3 C 0.1520(6) 0.8901(4) 0.4077(3)
H28_3 H 0.1215 0.8729 0.4307
H29_3 H 0.1777 0.9317 0.4141
H30_3 H 0.1749 0.8703 0.4078
C28_4 C 0.0207(4) 0.6743(3) 0.3874(2)
H31_4 H 0.0323 0.6822 0.4180
N5_4 N 0.1276(3) 0.7497(4) 0.4912(2)
O7_4 O 0.0850(3) 0.6969(3) 0.48608(17)
O8_4 O 0.1393(2) 0.7689(2) 0.53050(18)
O10_4 O 0.0394(2) 0.5782(2) 0.58461(17)
N7_4 N 0.1674(3) 0.6717(3) 0.5846(3)
O11_4 O 0.1438(3) 0.6615(3) 0.5457(2)
O12_4 O 0.1479(2) 0.6930(2) 0.61296(16)
O13_4 O 0.1543(3) 0.7781(3) 0.4588(2)
O15_4 O 0.2052(4) 0.6599(4) 0.5942(3)
O16_4 O 0.1009(4) 0.7623(2) 0.61795(17)
O17_4 O 0.0034(2) 0.6505(4) 0.63047(14)
C1_3 C 0.9537(3) 0.7330(3) 0.4836(2)
C2_3 C 0.9990(3) 0.7484(3) 0.5155(2)
C5_3 C 0.9933(3) 0.8343(3) 0.4633(3)
C6_3 C 0.9523(3) 0.7770(3) 0.4579(2)
H3_3 H 0.9222 0.7665 0.4363
O2_3 O 0.9876(3) 0.8744(2) 0.4369(2)
C8_3 C 0.9067(3) 0.6743(3) 0.4787(2)
H7_3 H 0.8764 0.6675 0.4582
N1_3 N 0.9025(3) 0.6302(3) 0.49994(18)
H8_3 H 0.932(2) 0.641(3) 0.518(2)
C9_3 C 0.8524(3) 0.5705(3) 0.4960(2)
H9_3 H 0.8193 0.5719 0.4817
H10_3 H 0.8399 0.5536 0.5264
C10_4 C 0.8678(3) 0.5316(3) 0.4683(2)
H11_4 H 0.9039 0.5341 0.4804
H12_4 H 0.8360 0.4905 0.4708
O3_3 O 0.7623(2) 0.6613(3) 0.38205(17)
C11_3 C 0.8584(3) 0.7180(4) 0.3540(2)
C12_3 C 0.8044(3) 0.7119(4) 0.3683(2)
C13_3 C 0.7976(3) 0.7604(4) 0.3649(3)
H13_3 H 0.7603 0.7558 0.3714
C14_3 C 0.8412(4) 0.8141(6) 0.3529(3)
H14_3 H 0.8345 0.8461 0.3514
C15_3 C 0.8967(4) 0.8216(6) 0.3427(3)
C16_3 C 0.9048(4) 0.7747(6) 0.3422(3)
H15_3 H 0.9417 0.7797 0.3339
O4_4 O 0.9382(3) 0.8798(4) 0.3325(2)
C17_4 C 0.9950(5) 0.8902(7) 0.3195(4)
H16_4 H 0.9914 0.8667 0.2930
C18_3 C 0.8659(4) 0.6688(5) 0.3510(2)
H19_3 H 0.9018 0.6744 0.3394
N2_3 N 0.8266(3) 0.6163(4) 0.36319(19)
H20_3 H 0.797(3) 0.611(4) 0.369(2)
C19_3 C 0.8279(4) 0.5631(5) 0.3545(2)
H21_3 H 0.7959 0.5384 0.3334
H22_3 H 0.8653 0.5731 0.3398
C20_3 C 0.8212(3) 0.5279(3) 0.3973(2)
H23_3 H 0.7930 0.5305 0.4177
H24_3 H 0.8052 0.4863 0.3893
N3_4 N 0.9925(4) 0.6206(3) 0.37498(18)
H32_4 H 0.981(4) 0.617(3) 0.3465(11)
C29_4 C 0.9762(4) 0.5686(3) 0.4030(2)
H33_4 H 0.9867 0.5806 0.4347
H34_4 H 0.9981 0.5493 0.3929
C30_4 C 0.9117(3) 0.5266(3) 0.3993(2)
H35_4 H 0.9008 0.5188 0.3672
H36_4 H 0.9025 0.4892 0.4136
N4_3 N 0.8768(2) 0.5490(2) 0.42074(17)
N6_4 N 0.9995(3) 0.5578(3) 0.5561(2)
O9_4 O 0.9908(2) 0.5939(2) 0.53384(16)
O14_4 O 0.9691(4) 0.5058(3) 0.5498(3)
Tb3_3 Tb 0.683049(15) 0.618624(21) 0.430400(10)
Tb1_5 Tb 0.316951(15) 0.381376(21) 0.569600(10)
O1_4 O 0.2926(2) 0.2926(3) 0.54057(16)
C1_4 C 0.2670(3) 0.2206(4) 0.4836(2)
C2_4 C 0.2516(3) 0.2505(4) 0.5155(2)
C3_4 C 0.1927(3) 0.2331(4) 0.5196(3)
H1_4 H 0.1812 0.2527 0.5405
C4_4 C 0.1507(3) 0.1883(4) 0.4942(3)
H2_4 H 0.1108 0.1774 0.4979
C5_4 C 0.1657(3) 0.1589(4) 0.4633(3)
C6_4 C 0.2230(3) 0.1752(4) 0.4579(2)
H3_4 H 0.2335 0.1556 0.4363
O2_4 O 0.1256(2) 0.1131(4) 0.4369(2)
C7_4 C 0.0669(4) 0.1003(6) 0.4388(4)
H4_4 H 0.0494 0.0808 0.4673
H5_4 H 0.0449 0.0744 0.4138
H6_4 H 0.0656 0.1366 0.4366
C8_4 C 0.3257(3) 0.2323(4) 0.4787(2)
H7_4 H 0.3325 0.2088 0.4582
N1_4 N 0.3698(3) 0.2722(4) 0.49994(18)
H8_4 H 0.359(3) 0.290(4) 0.518(2)
C9_4 C 0.4295(3) 0.2818(4) 0.4960(2)
H9_4 H 0.4281 0.2473 0.4817
H10_4 H 0.4464 0.2862 0.5264
C10_5 C 0.4684(3) 0.3361(4) 0.4683(2)
H11_5 H 0.4659 0.3697 0.4804
H12_5 H 0.5095 0.3454 0.4708
O3_4 O 0.3387(3) 0.1009(4) 0.38205(17)
C11_4 C 0.2820(4) 0.1403(5) 0.3540(2)
C12_4 C 0.2881(4) 0.0924(5) 0.3683(2)
C13_4 C 0.2396(4) 0.0371(5) 0.3649(3)
H13_4 H 0.2442 0.0044 0.3714
C14_4 C 0.1859(6) 0.0270(7) 0.3529(3)
C15_4 C 0.1784(6) 0.0750(7) 0.3427(3)
C16_4 C 0.2253(6) 0.1300(7) 0.3422(3)
H15_4 H 0.2203 0.1619 0.3339
O4_5 O 0.1202(4) 0.0583(5) 0.3325(2)
C17_5 C 0.1098(7) 0.1047(9) 0.3195(4)
H16_5 H 0.1333 0.1246 0.2930
H17_5 H 0.0684 0.0885 0.3124
H18_4 H 0.1206 0.1326 0.3443
C18_4 C 0.3312(5) 0.1970(6) 0.3510(2)
H19_4 H 0.3256 0.2273 0.3394
N2_4 N 0.3837(4) 0.2102(5) 0.36319(19)
H20_4 H 0.389(4) 0.185(5) 0.369(2)
C19_4 C 0.4369(5) 0.2647(6) 0.3545(2)
H21_4 H 0.4616 0.2574 0.3334
H22_4 H 0.4269 0.2921 0.3398
C20_4 C 0.4721(3) 0.2932(4) 0.3973(2)
H23_4 H 0.4695 0.2624 0.4177
H24_4 H 0.5137 0.3188 0.3893
C21_4 C 0.2777(3) 0.3134(5) 0.3590(2)
C22_5 C 0.2851(3) 0.3006(5) 0.3140(2)
C23_5 C 0.2337(3) 0.2673(5) 0.2890(2)
H25_5 H 0.2366 0.2564 0.2592
C24_5 C 0.1800(4) 0.2503(7) 0.3062(3)
H26_5 H 0.1465 0.2292 0.2879
C25_4 C 0.1734(4) 0.2636(7) 0.3507(3)
C26_4 C 0.2218(3) 0.2940(6) 0.3768(2)
H27_4 H 0.2176 0.3021 0.4073
O6_4 O 0.1163(2) 0.2421(4) 0.36497(19)
C27_4 C 0.1099(4) 0.2618(7) 0.4077(3)
H28_4 H 0.1271 0.2485 0.4307
H29_4 H 0.0683 0.2459 0.4141
H30_4 H 0.1297 0.3045 0.4078
C28_5 C 0.3257(3) 0.3463(5) 0.3874(2)
H31_5 H 0.3178 0.3500 0.4180
N3_5 N 0.3794(3) 0.3718(5) 0.37498(18)
H32_5 H 0.383(3) 0.363(5) 0.3465(11)
C29_5 C 0.4314(3) 0.4075(5) 0.4030(2)
H33_5 H 0.4194 0.4060 0.4347
H34_5 H 0.4507 0.4487 0.3929
C30_5 C 0.4734(3) 0.3850(4) 0.3993(2)
H35_5 H 0.4812 0.3819 0.3672
H36_5 H 0.5108 0.4132 0.4136
N4_4 N 0.4510(2) 0.3277(3) 0.42074(17)
N5_5 N 0.2503(4) 0.3778(5) 0.4912(2)
O7_5 O 0.3031(3) 0.3880(4) 0.48608(17)
O8_5 O 0.2311(2) 0.3703(3) 0.53050(18)
N6_5 N 0.4422(3) 0.4416(4) 0.5561(2)
O9_5 O 0.4061(2) 0.3968(3) 0.53384(16)
O10_5 O 0.4218(2) 0.4611(3) 0.58461(17)
N7_5 N 0.3283(3) 0.4956(4) 0.5846(3)
O11_5 O 0.3385(3) 0.4822(4) 0.5457(2)
O12_5 O 0.3070(2) 0.4548(3) 0.61296(16)
O13_5 O 0.2219(3) 0.3761(4) 0.4588(2)
O14_5 O 0.4942(3) 0.4632(5) 0.5498(3)
O15_5 O 0.3401(4) 0.5452(6) 0.5942(3)
Tb3_4 Tb 0.381376(21) 0.064426(26) 0.430400(10)
O16_5 O 0.2377(2) 0.3387(4) 0.61795(17)
O17_5 O 0.3495(4) 0.3530(4) 0.63047(14)
C1_5 C 0.7794(4) 0.0463(3) 0.4836(2)
C2_5 C 0.7495(4) 0.0010(3) 0.5155(2)
C5_5 C 0.8411(4) 0.0067(3) 0.4633(3)
C6_5 C 0.8248(4) 0.0477(3) 0.4579(2)
H3_5 H 0.8444 0.0778 0.4363
O2_5 O 0.8869(4) 0.0124(3) 0.4369(2)
C8_5 C 0.7677(4) 0.0933(3) 0.4787(2)
H7_5 H 0.7912 0.1236 0.4582
N1_5 N 0.7278(4) 0.0975(3) 0.49994(18)
H8_5 H 0.710(4) 0.068(2) 0.518(2)
C9_5 C 0.7182(4) 0.1476(3) 0.4960(2)
H9_5 H 0.7527 0.1807 0.4817
H10_5 H 0.7138 0.1601 0.5264
C10_6 C 0.6639(4) 0.1322(3) 0.4683(2)
H11_6 H 0.6303 0.0961 0.4804
H12_6 H 0.6546 0.1640 0.4708
O3_5 O 0.8991(4) 0.2377(2) 0.38205(17)
C11_5 C 0.8597(5) 0.1416(3) 0.3540(2)
C12_5 C 0.9076(5) 0.1956(3) 0.3683(2)
C13_5 C 0.9629(5) 0.2024(3) 0.3649(3)
H13_5 H 0.9956 0.2397 0.3714
C14_5 C 0.9730(7) 0.1588(4) 0.3529(3)
C15_5 C 0.9250(7) 0.1033(4) 0.3427(3)
C16_5 C 0.8700(7) 0.0952(4) 0.3422(3)
H15_5 H 0.8381 0.0583 0.3339
O4_6 O 0.9417(5) 0.0618(3) 0.3325(2)
C17_6 C 0.8953(9) 0.0050(5) 0.3195(4)
H16_6 H 0.8754 0.0086 0.2930
C18_5 C 0.8030(6) 0.1341(4) 0.3510(2)
H19_5 H 0.7727 0.0982 0.3394
N2_5 N 0.7898(5) 0.1734(3) 0.36319(19)
H20_5 H 0.815(5) 0.203(3) 0.369(2)
C19_5 C 0.7353(6) 0.1721(4) 0.3545(2)
H21_5 H 0.7426 0.2041 0.3334
H22_5 H 0.7079 0.1347 0.3398
C20_5 C 0.7068(4) 0.1788(3) 0.3973(2)
H23_5 H 0.7376 0.2070 0.4177
H24_5 H 0.6812 0.1948 0.3893
N3_6 N 0.6282(5) 0.0075(4) 0.37498(18)
H32_6 H 0.637(5) 0.019(4) 0.3465(11)
C29_6 C 0.5925(5) 0.0238(4) 0.4030(2)
H33_6 H 0.5940 0.0133 0.4347
H34_6 H 0.5513 0.0019 0.3929
C30_6 C 0.6150(4) 0.0883(3) 0.3993(2)
H35_6 H 0.6181 0.0992 0.3672
H36_6 H 0.5868 0.0975 0.4136
N4_5 N 0.6723(3) 0.1232(2) 0.42074(17)
N6_6 N 0.5584(4) 0.0005(3) 0.5561(2)
O9_6 O 0.6032(3) 0.0092(2) 0.53384(16)
O14_6 O 0.5368(5) 0.0309(4) 0.5498(3)
Tb3_5 Tb 0.935574(26) 0.316951(15) 0.430400(10)
Tb1_6 Tb 0.618624(21) 0.935574(14) 0.569600(10)
O1_5 O 0.7074(3) 0.9999(2) 0.54057(16)
C3_5 C 0.7669(4) 0.9595(3) 0.5196(3)
H1_5 H 0.7473 0.9284 0.5405
C4_5 C 0.8117(4) 0.9623(3) 0.4942(3)
H2_5 H 0.8226 0.9333 0.4979
C7_5 C 0.8997(6) 0.9665(5) 0.4388(4)
H4_5 H 0.9192 0.9685 0.4673
H5_5 H 0.9256 0.9704 0.4138
H6_5 H 0.8634 0.9289 0.4366
H17_6 H 0.9115 0.9798 0.3124
H18_5 H 0.8674 0.9879 0.3443
C21_5 C 0.6866(5) 0.9642(4) 0.3590(2)
C22_6 C 0.6994(5) 0.9844(4) 0.3140(2)
C23_6 C 0.7327(5) 0.9663(4) 0.2890(2)
H25_6 H 0.7436 0.9801 0.2592
C24_6 C 0.7497(7) 0.9296(6) 0.3062(3)
H26_6 H 0.7708 0.9172 0.2879
C25_5 C 0.7364(7) 0.9097(6) 0.3507(3)
C26_5 C 0.7060(6) 0.9277(5) 0.3768(2)
H27_5 H 0.6979 0.9154 0.4073
O6_5 O 0.7579(4) 0.8741(4) 0.36497(19)
C27_5 C 0.7382(7) 0.8480(6) 0.4077(3)
H28_5 H 0.7515 0.8785 0.4307
H29_5 H 0.7541 0.8223 0.4141
H30_5 H 0.6955 0.8251 0.4078
C28_6 C 0.6537(5) 0.9793(4) 0.3874(2)
H31_6 H 0.6500 0.9677 0.4180
N5_6 N 0.6222(5) 0.8724(3) 0.4912(2)
O7_6 O 0.6120(4) 0.9150(3) 0.48608(17)
O8_6 O 0.6297(3) 0.8607(2) 0.53050(18)
O10_6 O 0.5389(3) 0.9606(2) 0.58461(17)
N7_6 N 0.5044(4) 0.8326(3) 0.5846(3)
O11_6 O 0.5178(4) 0.8562(3) 0.5457(2)
O12_6 O 0.5452(3) 0.8521(2) 0.61296(16)
O13_6 O 0.6239(4) 0.8457(3) 0.4588(2)
O15_6 O 0.4548(6) 0.7948(4) 0.5942(3)
O16_6 O 0.6613(4) 0.8991(4) 0.61795(17)
O17_6 O 0.6470(4) 0.9966(2) 0.63047(14)
N1_6 N 0.5691(3) 0.9636(3) 0.83328(18)
H8_6 H 0.598(2) 0.975(3) 0.852(2)
C9_6 C 0.5190(3) 0.9039(3) 0.8294(2)
H9_6 H 0.4859 0.9053 0.8151
H10_6 H 0.5065 0.8870 0.8598
C10_7 C 0.5344(3) 0.8650(3) 0.8017(2)
H11_7 H 0.5705 0.8675 0.8138
H12_7 H 0.5026 0.8239 0.8042
O3_6 O 0.4289(2) 0.9947(3) 0.71539(17)
N2_6 N 0.4932(3) 0.9497(4) 0.69653(19)
H20_6 H 0.463(3) 0.945(4) 0.703(2)
C19_6 C 0.4945(4) 0.8965(5) 0.6879(2)
H21_6 H 0.4625 0.8718 0.6668
H22_6 H 0.5319 0.9065 0.6732
C20_6 C 0.4878(3) 0.8613(3) 0.7307(2)
H23_6 H 0.4596 0.8639 0.7511
H24_6 H 0.4718 0.8197 0.7227
N3_7 N 0.6591(4) 0.9540(3) 0.70832(18)
H32_7 H 0.647(4) 0.951(3) 0.6799(11)
C29_7 C 0.6428(4) 0.9020(3) 0.7364(2)
H33_7 H 0.6533 0.9140 0.7681
H34_7 H 0.6647 0.8827 0.7263
C30_7 C 0.5783(3) 0.8600(3) 0.7327(2)
H35_7 H 0.5674 0.8522 0.7006
H36_7 H 0.5691 0.8226 0.7470
N4_6 N 0.5434(2) 0.8824(2) 0.75408(17)
N6_7 N 0.6661(3) 0.8912(3) 0.8895(2)
O9_7 O 0.6574(2) 0.9273(2) 0.86718(16)
O10_7 O 0.7060(2) 0.9116(2) 0.91795(17)
O11_7 O 0.8104(3) 0.9949(3) 0.8791(2)
O14_7 O 0.6357(4) 0.8392(3) 0.8832(3)
O15_7 O 0.8718(4) 0.9933(4) 0.9276(3)
Tb3_6 Tb 0.349716(15) 0.951957(21) 0.763733(10)
N1_7 N 0.0364(3) 0.6056(4) 0.83328(18)
H8_7 H 0.025(3) 0.624(4) 0.852(2)
C9_7 C 0.0961(3) 0.6152(4) 0.8294(2)
H9_7 H 0.0947 0.5807 0.8151
H10_7 H 0.1130 0.6196 0.8598
C10_8 C 0.1350(3) 0.6695(4) 0.8017(2)
H11_8 H 0.1325 0.7031 0.8138
H12_8 H 0.1761 0.6788 0.8042
O3_7 O 0.0053(3) 0.4343(4) 0.71539(17)
N2_7 N 0.0503(4) 0.5436(5) 0.69653(19)
H20_7 H 0.055(4) 0.519(5) 0.703(2)
C19_7 C 0.1035(5) 0.5981(6) 0.6879(2)
H21_7 H 0.1282 0.5908 0.6668
H22_7 H 0.0935 0.6255 0.6732
C20_7 C 0.1387(3) 0.6266(4) 0.7307(2)
H23_7 H 0.1361 0.5958 0.7511
H24_7 H 0.1803 0.6522 0.7227
N3_8 N 0.0460(3) 0.7052(5) 0.70832(18)
H32_8 H 0.049(3) 0.697(5) 0.6799(11)
C29_8 C 0.0980(3) 0.7409(5) 0.7364(2)
H33_8 H 0.0860 0.7394 0.7681
H34_8 H 0.1173 0.7821 0.7263
C30_8 C 0.1400(3) 0.7184(4) 0.7327(2)
H35_8 H 0.1478 0.7153 0.7006
H36_8 H 0.1774 0.7466 0.7470
N4_7 N 0.1176(2) 0.6611(3) 0.75408(17)
N6_8 N 0.1088(3) 0.7750(4) 0.8895(2)
O9_8 O 0.0727(2) 0.7302(3) 0.86718(16)
O10_8 O 0.0884(2) 0.7945(3) 0.91795(17)
O11_8 O 0.0051(3) 0.8156(4) 0.8791(2)
O14_8 O 0.1608(3) 0.7966(5) 0.8832(3)
O15_8 O 0.0067(4) 0.8786(6) 0.9276(3)
Tb3_7 Tb 0.048043(21) 0.397759(26) 0.763733(10)
O1_6 O 0.9592(2) 0.6260(3) 0.87391(16)
C1_6 C 0.9336(3) 0.5540(4) 0.8170(2)
C2_6 C 0.9182(3) 0.5839(4) 0.8489(2)
C3_6 C 0.8593(3) 0.5665(4) 0.8530(3)
H1_6 H 0.8478 0.5861 0.8739
C4_6 C 0.8173(3) 0.5217(4) 0.8276(3)
H2_6 H 0.7774 0.5108 0.8313
C5_6 C 0.8323(3) 0.4923(4) 0.7967(3)
C6_6 C 0.8896(3) 0.5086(4) 0.7913(2)
H3_6 H 0.9001 0.4890 0.7697
O2_6 O 0.7922(2) 0.4465(4) 0.7703(2)
C7_6 C 0.7335(4) 0.4337(6) 0.7722(4)
H4_6 H 0.7160 0.4142 0.8007
H5_6 H 0.7115 0.4078 0.7472
H6_6 H 0.7322 0.4700 0.7700
C8_6 C 0.9923(3) 0.5657(4) 0.8121(2)
H7_6 H 0.9991 0.5422 0.7916
C11_6 C 0.9486(4) 0.4737(5) 0.6874(2)
C12_6 C 0.9547(4) 0.4258(5) 0.7017(2)
C13_6 C 0.9062(4) 0.3705(5) 0.6983(3)
H13_6 H 0.9108 0.3378 0.7048
C14_6 C 0.8525(6) 0.3604(7) 0.6863(3)
H14_4 H 0.8205 0.3217 0.6848
C15_6 C 0.8450(6) 0.4084(7) 0.6761(3)
C16_6 C 0.8919(6) 0.4634(7) 0.6756(3)
H15_6 H 0.8869 0.4953 0.6673
O4_7 O 0.7868(4) 0.3917(5) 0.6659(2)
C17_7 C 0.7764(7) 0.4381(9) 0.6529(4)
H16_7 H 0.7999 0.4580 0.6264
H17_7 H 0.7350 0.4219 0.6458
H18_6 H 0.7872 0.4660 0.6777
C18_6 C 0.9978(5) 0.5304(6) 0.6844(2)
H19_6 H 0.9922 0.5607 0.6728
C21_6 C 0.9443(3) 0.6468(5) 0.6924(2)
C22_7 C 0.9517(3) 0.6340(5) 0.6474(2)
C23_7 C 0.9003(3) 0.6007(5) 0.6224(2)
H25_7 H 0.9032 0.5898 0.5926
C24_7 C 0.8466(4) 0.5837(7) 0.6396(3)
H26_7 H 0.8131 0.5626 0.6213
C25_6 C 0.8400(4) 0.5970(7) 0.6841(3)
C26_6 C 0.8884(3) 0.6274(6) 0.7102(2)
H27_6 H 0.8842 0.6355 0.7407
O6_6 O 0.7829(2) 0.5755(4) 0.69831(19)
C27_6 C 0.7765(4) 0.5952(7) 0.7411(3)
H28_6 H 0.7937 0.5819 0.7641
H29_6 H 0.7349 0.5793 0.7475
H30_6 H 0.7963 0.6379 0.7412
C28_7 C 0.9923(3) 0.6797(5) 0.7208(2)
H31_7 H 0.9844 0.6834 0.7514
N5_7 N 0.9169(4) 0.7112(5) 0.8246(2)
O7_7 O 0.9697(3) 0.7214(4) 0.81942(17)
O8_7 O 0.8977(2) 0.7037(3) 0.86384(18)
N7_7 N 0.9949(3) 0.8290(4) 0.9180(3)
O12_7 O 0.9736(2) 0.7882(3) 0.94630(16)
O13_7 O 0.8885(3) 0.7095(4) 0.7922(2)
O16_7 O 0.9044(2) 0.6720(4) 0.95128(17)
O1_7 O 0.3740(3) 0.3333(2) 0.87391(16)
C1_7 C 0.4460(4) 0.3797(3) 0.8170(2)
C2_7 C 0.4161(4) 0.3344(3) 0.8489(2)
C3_7 C 0.4335(4) 0.2929(3) 0.8530(3)
H1_7 H 0.4139 0.2618 0.8739
C4_7 C 0.4783(4) 0.2957(3) 0.8276(3)
H2_7 H 0.4892 0.2667 0.8313
C5_7 C 0.5077(4) 0.3401(3) 0.7967(3)
C6_7 C 0.4914(4) 0.3811(3) 0.7913(2)
H3_7 H 0.5110 0.4112 0.7697
O2_7 O 0.5535(4) 0.3458(3) 0.7703(2)
C7_7 C 0.5663(6) 0.2999(5) 0.7722(4)
H4_7 H 0.5858 0.3019 0.8007
H5_7 H 0.5922 0.3038 0.7472
H6_7 H 0.5300 0.2623 0.7700
C8_7 C 0.4343(4) 0.4267(3) 0.8121(2)
H7_7 H 0.4578 0.4570 0.7916
N1_8 N 0.3944(4) 0.4309(3) 0.83328(18)
H8_8 H 0.376(4) 0.402(2) 0.852(2)
C9_8 C 0.3848(4) 0.4810(3) 0.8294(2)
H9_8 H 0.4193 0.5141 0.8151
H10_8 H 0.3804 0.4935 0.8598
C10_9 C 0.3305(4) 0.4656(3) 0.8017(2)
H11_9 H 0.2969 0.4295 0.8138
H12_9 H 0.3212 0.4974 0.8042
O3_8 O 0.5657(4) 0.5711(2) 0.71539(17)
C11_7 C 0.5263(5) 0.4750(3) 0.6874(2)
C12_7 C 0.5742(5) 0.5290(3) 0.7017(2)
C13_7 C 0.6295(5) 0.5358(3) 0.6983(3)
H13_7 H 0.6622 0.5731 0.7048
C14_7 C 0.6396(7) 0.4922(4) 0.6863(3)
H14_5 H 0.6783 0.4989 0.6848
C15_7 C 0.5916(7) 0.4367(4) 0.6761(3)
C16_7 C 0.5366(7) 0.4286(4) 0.6756(3)
H15_7 H 0.5047 0.3917 0.6673
O4_8 O 0.6083(5) 0.3952(3) 0.6659(2)
C17_8 C 0.5619(9) 0.3384(5) 0.6529(4)
H16_8 H 0.5420 0.3420 0.6264
H17_8 H 0.5781 0.3132 0.6458
H18_7 H 0.5340 0.3213 0.6777
C18_7 C 0.4696(6) 0.4675(4) 0.6844(2)
H19_7 H 0.4393 0.4316 0.6728
N2_8 N 0.4564(5) 0.5068(3) 0.69653(19)
H20_8 H 0.481(5) 0.537(3) 0.703(2)
C19_8 C 0.4019(6) 0.5055(4) 0.6879(2)
H21_8 H 0.4092 0.5375 0.6668
H22_8 H 0.3745 0.4681 0.6732
C20_8 C 0.3734(4) 0.5122(3) 0.7307(2)
H23_8 H 0.4042 0.5404 0.7511
H24_8 H 0.3478 0.5282 0.7227
C21_7 C 0.3532(5) 0.2976(4) 0.6924(2)
C22_8 C 0.3660(5) 0.3178(4) 0.6474(2)
C23_8 C 0.3993(5) 0.2997(4) 0.6224(2)
H25_8 H 0.4102 0.3135 0.5926
C24_8 C 0.4163(7) 0.2630(6) 0.6396(3)
H26_8 H 0.4374 0.2506 0.6213
C25_7 C 0.4030(7) 0.2431(6) 0.6841(3)
C26_7 C 0.3726(6) 0.2611(5) 0.7102(2)
H27_7 H 0.3645 0.2488 0.7407
O6_7 O 0.4245(4) 0.2075(4) 0.69831(19)
C27_7 C 0.4048(7) 0.1814(6) 0.7411(3)
H28_7 H 0.4181 0.2119 0.7641
H29_7 H 0.4207 0.1557 0.7475
H30_7 H 0.3621 0.1585 0.7412
C28_8 C 0.3203(5) 0.3127(4) 0.7208(2)
H31_8 H 0.3166 0.3011 0.7514
N3_9 N 0.2948(5) 0.3409(4) 0.70832(18)
H32_9 H 0.303(5) 0.353(4) 0.6799(11)
C29_9 C 0.2591(5) 0.3572(4) 0.7364(2)
H33_9 H 0.2606 0.3467 0.7681
H34_9 H 0.2179 0.3353 0.7263
C30_9 C 0.2816(4) 0.4217(3) 0.7327(2)
H35_9 H 0.2847 0.4326 0.7006
H36_9 H 0.2534 0.4309 0.7470
N4_8 N 0.3389(3) 0.4566(2) 0.75408(17)
N5_8 N 0.2888(5) 0.2058(3) 0.8246(2)
O7_8 O 0.2786(4) 0.2484(3) 0.81942(17)
O8_8 O 0.2963(3) 0.1941(2) 0.86384(18)
N6_9 N 0.2250(4) 0.3339(3) 0.8895(2)
O9_9 O 0.2698(3) 0.3426(2) 0.86718(16)
O10_9 O 0.2055(3) 0.2940(2) 0.91795(17)
N7_8 N 0.1710(4) 0.1660(3) 0.9180(3)
O11_9 O 0.1844(4) 0.1896(3) 0.8791(2)
O12_8 O 0.2118(3) 0.1855(2) 0.94630(16)
O13_8 O 0.2905(4) 0.1791(3) 0.7922(2)
O14_9 O 0.2034(5) 0.3643(4) 0.8832(3)
O15_9 O 0.1214(6) 0.1282(4) 0.9276(3)
Tb3_8 Tb 0.602241(26) 0.650284(15) 0.763733(10)
O16_8 O 0.3280(4) 0.2324(4) 0.95128(17)
O4_9 O 0.7285(3) 0.4535(4) 0.0008(2)
C17_9 C 0.6717(5) 0.4431(7) 0.0138(4)
H16_9 H 0.6753 0.4666 0.0403
H17_9 H 0.6465 0.4017 0.0209
O5_4 O 0.6863(3) 0.6701(2) 0.03620(14)
C22_9 C 0.6511(4) 0.6184(3) 0.0193(2)
C23_9 C 0.6330(4) 0.5670(3) 0.0443(2)
H25_9 H 0.6468 0.5699 0.0741
C24_9 C 0.5963(6) 0.5133(4) 0.0271(3)
H26_9 H 0.5839 0.4798 0.0454
O1_8 O 0.6666(2) 0.6259(2) 0.79276(16)
C1_8 C 0.7130(3) 0.6003(3) 0.8497(2)
C2_8 C 0.6677(3) 0.5849(3) 0.8178(2)
C3_8 C 0.6262(3) 0.5260(3) 0.8137(3)
H1_8 H 0.5951 0.5145 0.7928
C4_8 C 0.6290(3) 0.4840(3) 0.8391(3)
H2_8 H 0.6000 0.4441 0.8354
C5_8 C 0.6734(3) 0.4990(3) 0.8700(3)
C6_8 C 0.7144(3) 0.5563(3) 0.8754(2)
H3_8 H 0.7445 0.5668 0.8970
O2_8 O 0.6791(3) 0.4589(2) 0.8964(2)
C7_8 C 0.6332(5) 0.4002(4) 0.8945(4)
H4_8 H 0.6352 0.3827 0.8660
H5_8 H 0.6371 0.3782 0.9195
H6_8 H 0.5956 0.3989 0.8967
C8_8 C 0.7600(3) 0.6590(3) 0.8546(2)
H7_8 H 0.7903 0.6658 0.8751
N1_9 N 0.7642(3) 0.7031(3) 0.83339(18)
H8_9 H 0.735(2) 0.692(3) 0.815(2)
C9_9 C 0.8143(3) 0.7628(3) 0.8373(2)
H9_9 H 0.8474 0.7614 0.8516
H10_9 H 0.8268 0.7797 0.8069
C10_10 C 0.7989(3) 0.8017(3) 0.8650(2)
H11_10 H 0.7628 0.7992 0.8529
H12_10 H 0.8307 0.8428 0.8625
C11_8 C 0.8083(3) 0.6153(4) 0.9793(2)
C12_8 C 0.8623(3) 0.6214(4) 0.9650(2)
C13_8 C 0.8691(3) 0.5729(4) 0.9684(3)
H13_8 H 0.9064 0.5775 0.9619
C14_8 C 0.8255(4) 0.5192(6) 0.9804(3)
H14_6 H 0.8322 0.4872 0.9819
C15_8 C 0.7700(4) 0.5117(6) 0.9906(3)
C16_8 C 0.7619(4) 0.5586(6) 0.9911(3)
H15_8 H 0.7250 0.5536 0.9994
H18_8 H 0.6546 0.4539 0.9890
C18_8 C 0.8008(4) 0.6645(5) 0.9823(2)
H19_8 H 0.7649 0.6589 0.9939
N2_9 N 0.8401(3) 0.7170(4) 0.97014(19)
H20_9 H 0.870(3) 0.722(4) 0.964(2)
C19_9 C 0.8388(4) 0.7702(5) 0.9788(2)
H21_9 H 0.8708 0.7949 0.9999
H22_9 H 0.8014 0.7602 0.9935
C20_9 C 0.8455(3) 0.8054(3) 0.9360(2)
H23_9 H 0.8737 0.8028 0.9156
H24_9 H 0.8615 0.8470 0.9440
C21_8 C 0.6309(4) 0.6110(3) 0.9743(2)
C25_8 C 0.5764(6) 0.5067(4) 0.9826(3)
C26_8 C 0.5944(5) 0.5551(3) 0.9565(2)
H27_8 H 0.5821 0.5509 0.9260
O6_8 O 0.5408(4) 0.4496(2) 0.96836(19)
C27_8 C 0.5147(6) 0.4432(4) 0.9256(3)
H28_8 H 0.5452 0.4604 0.9026
H29_8 H 0.4890 0.4016 0.9192
H30_8 H 0.4918 0.4630 0.9255
C28_9 C 0.6460(4) 0.6590(3) 0.9459(2)
H31_9 H 0.6344 0.6511 0.9153
N3_10 N 0.6742(4) 0.7127(3) 0.95835(18)
H32_10 H 0.686(4) 0.716(3) 0.9868(11)
C29_10 C 0.6905(4) 0.7647(3) 0.9303(2)
H33_10 H 0.6800 0.7527 0.8986
H34_10 H 0.6686 0.7840 0.9404
C30_10 C 0.7550(3) 0.8067(3) 0.9340(2)
H35_10 H 0.7659 0.8145 0.9661
H36_10 H 0.7642 0.8441 0.9197
N4_9 N 0.7899(2) 0.7843(2) 0.91259(17)
N5_9 N 0.5391(3) 0.5836(4) 0.8421(2)
O7_9 O 0.5817(3) 0.6364(3) 0.84725(17)
O8_9 O 0.5274(2) 0.5644(2) 0.80283(18)
N6_10 N 0.6672(3) 0.7755(3) 0.7772(2)
O9_10 O 0.6759(2) 0.7394(2) 0.79949(16)
O10_10 O 0.6273(2) 0.7551(2) 0.74872(17)
N7_9 N 0.4993(3) 0.6616(3) 0.7487(3)
O11_10 O 0.5229(3) 0.6718(3) 0.7876(2)
O12_9 O 0.5188(2) 0.6403(2) 0.72037(16)
O13_9 O 0.5124(3) 0.5552(3) 0.8745(2)
O14_10 O 0.6976(4) 0.8275(3) 0.7835(3)
O15_10 O 0.4615(4) 0.6734(4) 0.7391(3)
O17_7 O 0.6632(2) 0.6829(4) 0.70287(14)
O4_10 O 0.5465(4) 0.2750(5) 0.0008(2)
C17_10 C 0.5569(7) 0.2286(9) 0.0138(4)
H16_10 H 0.5334 0.2087 0.0403
H17_10 H 0.5983 0.2448 0.0209
O5_5 O 0.3299(2) 0.0162(4) 0.03620(14)
C22_10 C 0.3816(3) 0.0327(5) 0.0193(2)
C23_10 C 0.4330(3) 0.0660(5) 0.0443(2)
H25_10 H 0.4301 0.0769 0.0741
C24_10 C 0.4867(4) 0.0830(7) 0.0271(3)
H26_10 H 0.5202 0.1041 0.0454
O1_9 O 0.3741(2) 0.0407(3) 0.79276(16)
C1_9 C 0.3997(3) 0.1127(4) 0.8497(2)
C2_9 C 0.4151(3) 0.0828(4) 0.8178(2)
C3_9 C 0.4740(3) 0.1002(4) 0.8137(3)
H1_9 H 0.4855 0.0806 0.7928
C4_9 C 0.5160(3) 0.1450(4) 0.8391(3)
H2_9 H 0.5559 0.1559 0.8354
C5_9 C 0.5010(3) 0.1744(4) 0.8700(3)
C6_9 C 0.4437(3) 0.1581(4) 0.8754(2)
H3_9 H 0.4332 0.1777 0.8970
O2_9 O 0.5411(2) 0.2202(4) 0.8964(2)
C7_9 C 0.5998(4) 0.2330(6) 0.8945(4)
H4_9 H 0.6173 0.2525 0.8660
H5_9 H 0.6218 0.2589 0.9195
H6_9 H 0.6011 0.1967 0.8967
C8_9 C 0.3410(3) 0.1010(4) 0.8546(2)
H7_9 H 0.3342 0.1245 0.8751
N1_10 N 0.2969(3) 0.0611(4) 0.83339(18)
H8_10 H 0.308(3) 0.043(4) 0.815(2)
C9_10 C 0.2372(3) 0.0515(4) 0.8373(2)
H9_10 H 0.2386 0.0860 0.8516
H10_10 H 0.2203 0.0471 0.8069
C11_9 C 0.3847(4) 0.1930(5) 0.9793(2)
C12_9 C 0.3786(4) 0.2409(5) 0.9650(2)
C13_9 C 0.4271(4) 0.2962(5) 0.9684(3)
H13_9 H 0.4225 0.3289 0.9619
C14_9 C 0.4808(6) 0.3063(7) 0.9804(3)
H14_7 H 0.5128 0.3450 0.9819
C15_9 C 0.4883(6) 0.2583(7) 0.9906(3)
C16_9 C 0.4414(6) 0.2033(7) 0.9911(3)
H15_9 H 0.4464 0.1714 0.9994
H18_9 H 0.5461 0.2007 0.9890
C18_9 C 0.3355(5) 0.1363(6) 0.9823(2)
H19_9 H 0.3411 0.1060 0.9939
N2_10 N 0.2830(4) 0.1231(5) 0.97014(19)
H20_10 H 0.278(4) 0.148(5) 0.964(2)
C19_10 C 0.2298(5) 0.0686(6) 0.9788(2)
H21_10 H 0.2051 0.0759 0.9999
H22_10 H 0.2398 0.0412 0.9935
C20_10 C 0.1946(3) 0.0401(4) 0.9360(2)
H23_10 H 0.1972 0.0709 0.9156
H24_10 H 0.1530 0.0145 0.9440
C21_9 C 0.3890(3) 0.0199(5) 0.9743(2)
C25_9 C 0.4933(4) 0.0697(7) 0.9826(3)
C26_9 C 0.4449(3) 0.0393(6) 0.9565(2)
H27_9 H 0.4491 0.0312 0.9260
O6_9 O 0.5504(2) 0.0912(4) 0.96836(19)
C27_9 C 0.5568(4) 0.0715(7) 0.9256(3)
H28_9 H 0.5396 0.0848 0.9026
H29_9 H 0.5984 0.0874 0.9192
H30_9 H 0.5370 0.0288 0.9255
N4_10 N 0.2157(2) 0.0056(3) 0.91259(17)
C10_11 C 0.1983(3) 0.9972(4) 0.8650(2)
H11_11 H 0.2008 0.9636 0.8529
H12_11 H 0.1572 0.9879 0.8625
C28_10 C 0.3410(3) 0.9870(5) 0.9459(2)
H31_10 H 0.3489 0.9833 0.9153
N3_11 N 0.2873(3) 0.9615(5) 0.95835(18)
H32_11 H 0.284(3) 0.970(5) 0.9868(11)
C29_11 C 0.2353(3) 0.9258(5) 0.9303(2)
H33_11 H 0.2473 0.9273 0.8986
H34_11 H 0.2160 0.8846 0.9404
C30_11 C 0.1933(3) 0.9483(4) 0.9340(2)
H35_11 H 0.1855 0.9514 0.9661
H36_11 H 0.1559 0.9201 0.9197
N5_10 N 0.4164(4) 0.9555(5) 0.8421(2)
O7_10 O 0.3636(3) 0.9453(4) 0.84725(17)
O8_10 O 0.4356(2) 0.9630(3) 0.80283(18)
N6_11 N 0.2245(3) 0.8917(4) 0.7772(2)
O9_11 O 0.2606(2) 0.9365(3) 0.79949(16)
O10_11 O 0.2449(2) 0.8722(3) 0.74872(17)
N7_10 N 0.3384(3) 0.8377(4) 0.7487(3)
O11_11 O 0.3282(3) 0.8511(4) 0.7876(2)
O12_10 O 0.3597(2) 0.8785(3) 0.72037(16)
O13_10 O 0.4448(3) 0.9572(4) 0.8745(2)
O14_11 O 0.1725(3) 0.8701(5) 0.7835(3)
O15_11 O 0.3266(4) 0.7881(6) 0.7391(3)
O17_8 O 0.3171(4) 0.9804(4) 0.70287(14)
C10_12 C 0.0028(4) 0.2011(3) 0.8650(2)
H11_12 H 0.0364 0.2372 0.8529
H12_12 H 0.0121 0.1693 0.8625
C28_11 C 0.0130(5) 0.3540(4) 0.9459(2)
H31_11 H 0.0167 0.3656 0.9153
N3_12 N 0.0385(5) 0.3258(4) 0.95835(18)
H32_12 H 0.030(5) 0.314(4) 0.9868(11)
C29_12 C 0.0742(5) 0.3095(4) 0.9303(2)
H33_12 H 0.0727 0.3200 0.8986
H34_12 H 0.1154 0.3314 0.9404
C30_12 C 0.0517(4) 0.2450(3) 0.9340(2)
H35_12 H 0.0486 0.2341 0.9661
H36_12 H 0.0799 0.2358 0.9197
N5_11 N 0.0445(5) 0.4609(3) 0.8421(2)
O7_11 O 0.0547(4) 0.4183(3) 0.84725(17)
O8_11 O 0.0370(3) 0.4726(2) 0.80283(18)
N6_12 N 0.1083(4) 0.3328(3) 0.7772(2)
O9_12 O 0.0635(3) 0.3241(2) 0.79949(16)
O10_12 O 0.1278(3) 0.3727(2) 0.74872(17)
N7_11 N 0.1623(4) 0.5007(3) 0.7487(3)
O11_12 O 0.1489(4) 0.4771(3) 0.7876(2)
O12_11 O 0.1215(3) 0.4812(2) 0.72037(16)
O13_11 O 0.0428(4) 0.4876(3) 0.8745(2)
O14_12 O 0.1299(5) 0.3024(4) 0.7835(3)
O15_12 O 0.2119(6) 0.5385(4) 0.7391(3)
O17_9 O 0.0196(4) 0.3368(2) 0.70287(14)
O4_11 O 0.7250(5) 0.2715(3) 0.0008(2)
C17_11 C 0.7714(9) 0.3283(5) 0.0138(4)
H16_11 H 0.7913 0.3247 0.0403
H17_11 H 0.7552 0.3535 0.0209
O5_6 O 0.9838(4) 0.3137(3) 0.03620(14)
C22_11 C 0.9673(5) 0.3489(4) 0.0193(2)
C23_11 C 0.9340(5) 0.3670(4) 0.0443(2)
H25_11 H 0.9231 0.3532 0.0741
C24_11 C 0.9170(7) 0.4037(6) 0.0271(3)
H26_11 H 0.8959 0.4161 0.0454
C1_10 C 0.0463(3) 0.2670(3) 0.5164(2)
C2_10 C 0.0010(3) 0.2516(3) 0.4845(2)
C5_10 C 0.0067(3) 0.1657(3) 0.5367(3)
C6_10 C 0.0477(3) 0.2230(3) 0.5421(2)
H3_10 H 0.0778 0.2335 0.5637
O2_10 O 0.0124(3) 0.1256(2) 0.5631(2)
C8_10 C 0.0933(3) 0.3257(3) 0.5213(2)
H7_10 H 0.1236 0.3325 0.5418
N1_11 N 0.0975(3) 0.3698(3) 0.50006(18)
H8_11 H 0.068(2) 0.359(3) 0.482(2)
C9_11 C 0.1476(3) 0.4295(3) 0.5040(2)
H9_11 H 0.1807 0.4281 0.5183
H10_11 H 0.1601 0.4464 0.4736
C10_13 C 0.1322(3) 0.4684(3) 0.5317(2)
H11_13 H 0.0961 0.4659 0.5196
H12_13 H 0.1640 0.5095 0.5292
C11_10 C 0.1416(3) 0.2820(4) 0.6460(2)
C12_10 C 0.1956(3) 0.2881(4) 0.6317(2)
C13_10 C 0.2024(3) 0.2396(4) 0.6351(3)
H13_10 H 0.2397 0.2442 0.6286
C14_10 C 0.1588(4) 0.1859(6) 0.6471(3)
H14_8 H 0.1655 0.1539 0.6486
C15_10 C 0.1033(4) 0.1784(6) 0.6573(3)
C16_10 C 0.0952(4) 0.2253(6) 0.6578(3)
H15_10 H 0.0583 0.2203 0.6661
O4_12 O 0.0618(3) 0.1202(4) 0.6675(2)
C17_12 C 0.0050(5) 0.1098(7) 0.6805(4)
H16_12 H 0.0086 0.1333 0.7070
C18_10 C 0.1341(4) 0.3312(5) 0.6490(2)
H19_10 H 0.0982 0.3256 0.6606
N2_11 N 0.1734(3) 0.3837(4) 0.63681(19)
H20_11 H 0.203(3) 0.389(4) 0.631(2)
C19_11 C 0.1721(4) 0.4369(5) 0.6455(2)
H21_11 H 0.2041 0.4616 0.6666
H22_11 H 0.1347 0.4269 0.6602
C20_11 C 0.1788(3) 0.4721(3) 0.6027(2)
H23_11 H 0.2070 0.4695 0.5823
H24_11 H 0.1948 0.5137 0.6107
N3_13 N 0.0075(4) 0.3794(3) 0.62502(18)
H32_13 H 0.019(4) 0.383(3) 0.6535(11)
C29_13 C 0.0238(4) 0.4314(3) 0.5970(2)
H33_13 H 0.0133 0.4194 0.5653
H34_13 H 0.0019 0.4507 0.6071
C30_13 C 0.0883(3) 0.4734(3) 0.6007(2)
H35_13 H 0.0992 0.4812 0.6328
H36_13 H 0.0975 0.5108 0.5864
N4_11 N 0.1232(2) 0.4510(2) 0.57926(17)
N6_13 N 0.0005(3) 0.4422(3) 0.4439(2)
O9_13 O 0.0092(2) 0.4061(2) 0.46616(16)
O14_13 O 0.0309(4) 0.4942(3) 0.4502(3)
O1_10 O 0.9999(2) 0.2926(2) 0.45943(16)
C3_10 C 0.9595(3) 0.1927(3) 0.4804(3)
H1_10 H 0.9284 0.1812 0.4595
C4_10 C 0.9623(3) 0.1507(3) 0.5058(3)
H2_10 H 0.9333 0.1108 0.5021
C7_10 C 0.9665(5) 0.0669(4) 0.5612(4)
H4_10 H 0.9685 0.0494 0.5327
H5_10 H 0.9704 0.0449 0.5862
H6_10 H 0.9289 0.0656 0.5634
H17_12 H 0.9798 0.0684 0.6876
H18_10 H 0.9879 0.1206 0.6557
C21_10 C 0.9642(4) 0.2777(3) 0.6410(2)
C22_12 C 0.9844(4) 0.2851(3) 0.6860(2)
C23_12 C 0.9663(4) 0.2337(3) 0.7110(2)
H25_12 H 0.9801 0.2366 0.7408
C24_12 C 0.9296(6) 0.1800(4) 0.6938(3)
H26_12 H 0.9172 0.1465 0.7121
C25_10 C 0.9097(6) 0.1734(4) 0.6493(3)
C26_10 C 0.9277(5) 0.2218(3) 0.6232(2)
H27_10 H 0.9154 0.2176 0.5927
O6_10 O 0.8741(4) 0.1163(2) 0.63503(19)
C27_10 C 0.8480(6) 0.1099(4) 0.5923(3)
H28_10 H 0.8785 0.1271 0.5693
H29_10 H 0.8223 0.0683 0.5859
H30_10 H 0.8251 0.1297 0.5922
C28_12 C 0.9793(4) 0.3257(3) 0.6126(2)
H31_12 H 0.9677 0.3178 0.5820
N5_12 N 0.8724(3) 0.2503(4) 0.5088(2)
O7_12 O 0.9150(3) 0.3031(3) 0.51392(17)
O8_12 O 0.8607(2) 0.2311(2) 0.46950(18)
O10_13 O 0.9606(2) 0.4218(2) 0.41539(17)
N7_12 N 0.8326(3) 0.3283(3) 0.4154(3)
O11_13 O 0.8562(3) 0.3385(3) 0.4543(2)
O12_12 O 0.8521(2) 0.3070(2) 0.38704(16)
O13_12 O 0.8457(3) 0.2219(3) 0.5412(2)
O15_13 O 0.7948(4) 0.3401(4) 0.4058(3)
O17_10 O 0.9966(2) 0.3495(4) 0.36953(14)
O1_11 O 0.7074(2) 0.7074(3) 0.45943(16)
C1_11 C 0.7330(3) 0.7794(4) 0.5164(2)
C2_11 C 0.7484(3) 0.7495(4) 0.4845(2)
C3_11 C 0.8073(3) 0.7669(4) 0.4804(3)
H1_11 H 0.8188 0.7473 0.4595
C4_11 C 0.8493(3) 0.8117(4) 0.5058(3)
H2_11 H 0.8892 0.8226 0.5021
C5_11 C 0.8343(3) 0.8411(4) 0.5367(3)
C6_11 C 0.7770(3) 0.8248(4) 0.5421(2)
H3_11 H 0.7665 0.8444 0.5637
O2_11 O 0.8744(2) 0.8869(4) 0.5631(2)
C7_11 C 0.9331(4) 0.8997(6) 0.5612(4)
H4_11 H 0.9506 0.9192 0.5327
H5_11 H 0.9551 0.9256 0.5862
H6_11 H 0.9344 0.8634 0.5634
C8_11 C 0.6743(3) 0.7677(4) 0.5213(2)
H7_11 H 0.6675 0.7912 0.5418
N1_12 N 0.6302(3) 0.7278(4) 0.50006(18)
H8_12 H 0.641(3) 0.710(4) 0.482(2)
C9_12 C 0.5705(3) 0.7182(4) 0.5040(2)
H9_12 H 0.5719 0.7527 0.5183
H10_12 H 0.5536 0.7138 0.4736
C10_14 C 0.5316(3) 0.6639(4) 0.5317(2)
H11_14 H 0.5341 0.6303 0.5196
H12_14 H 0.4905 0.6546 0.5292
C11_11 C 0.7180(4) 0.8597(5) 0.6460(2)
C12_11 C 0.7119(4) 0.9076(5) 0.6317(2)
C13_11 C 0.7604(4) 0.9629(5) 0.6351(3)
H13_11 H 0.7558 0.9956 0.6286
C14_11 C 0.8141(6) 0.9730(7) 0.6471(3)
C15_11 C 0.8216(6) 0.9250(7) 0.6573(3)
C16_11 C 0.7747(6) 0.8700(7) 0.6578(3)
H15_11 H 0.7797 0.8381 0.6661
O4_13 O 0.8798(4) 0.9417(5) 0.6675(2)
C17_13 C 0.8902(7) 0.8953(9) 0.6805(4)
H16_13 H 0.8667 0.8754 0.7070
H17_13 H 0.9316 0.9115 0.6876
H18_11 H 0.8794 0.8674 0.6557
C18_11 C 0.6688(5) 0.8030(6) 0.6490(2)
H19_11 H 0.6744 0.7727 0.6606
N2_12 N 0.6163(4) 0.7898(5) 0.63681(19)
H20_12 H 0.611(4) 0.815(5) 0.631(2)
C19_12 C 0.5631(5) 0.7353(6) 0.6455(2)
H21_12 H 0.5384 0.7426 0.6666
H22_12 H 0.5731 0.7079 0.6602
C20_12 C 0.5279(3) 0.7068(4) 0.6027(2)
H23_12 H 0.5305 0.7376 0.5823
H24_12 H 0.4863 0.6812 0.6107
C21_11 C 0.7223(3) 0.6866(5) 0.6410(2)
C22_13 C 0.7149(3) 0.6994(5) 0.6860(2)
C23_13 C 0.7663(3) 0.7327(5) 0.7110(2)
H25_13 H 0.7634 0.7436 0.7408
C24_13 C 0.8200(4) 0.7497(7) 0.6938(3)
H26_13 H 0.8535 0.7708 0.7121
C25_11 C 0.8266(4) 0.7364(7) 0.6493(3)
C26_11 C 0.7782(3) 0.7060(6) 0.6232(2)
H27_11 H 0.7824 0.6979 0.5927
O6_11 O 0.8837(2) 0.7579(4) 0.63503(19)
C27_11 C 0.8901(4) 0.7382(7) 0.5923(3)
H28_11 H 0.8729 0.7515 0.5693
H29_11 H 0.9317 0.7541 0.5859
H30_11 H 0.8703 0.6955 0.5922
C28_13 C 0.6743(3) 0.6537(5) 0.6126(2)
H31_13 H 0.6822 0.6500 0.5820
N3_14 N 0.6206(3) 0.6282(5) 0.62502(18)
H32_14 H 0.617(3) 0.637(5) 0.6535(11)
C29_14 C 0.5686(3) 0.5925(5) 0.5970(2)
H33_14 H 0.5806 0.5940 0.5653
H34_14 H 0.5493 0.5513 0.6071
C30_14 C 0.5266(3) 0.6150(4) 0.6007(2)
H35_14 H 0.5188 0.6181 0.6328
H36_14 H 0.4892 0.5868 0.5864
N4_12 N 0.5490(2) 0.6723(3) 0.57926(17)
N5_13 N 0.7497(4) 0.6222(5) 0.5088(2)
O7_13 O 0.6969(3) 0.6120(4) 0.51392(17)
O8_13 O 0.7689(2) 0.6297(3) 0.46950(18)
N6_14 N 0.5578(3) 0.5584(4) 0.4439(2)
O9_14 O 0.5939(2) 0.6032(3) 0.46616(16)
O10_14 O 0.5782(2) 0.5389(3) 0.41539(17)
N7_13 N 0.6717(3) 0.5044(4) 0.4154(3)
O11_14 O 0.6615(3) 0.5178(4) 0.4543(2)
O12_13 O 0.6930(2) 0.5452(3) 0.38704(16)
O13_13 O 0.7781(3) 0.6239(4) 0.5412(2)
O14_14 O 0.5058(3) 0.5368(5) 0.4502(3)
O15_14 O 0.6599(4) 0.4548(6) 0.4058(3)
O17_11 O 0.6505(4) 0.6470(4) 0.36953(14)
O1_12 O 0.2926(3) 0.0001(2) 0.45943(16)
C3_12 C 0.2331(4) 0.0405(3) 0.4804(3)
H1_12 H 0.2527 0.0716 0.4595
C4_12 C 0.1883(4) 0.0377(3) 0.5058(3)
H2_12 H 0.1774 0.0667 0.5021
C7_12 C 0.1003(6) 0.0335(5) 0.5612(4)
H4_12 H 0.0808 0.0315 0.5327
H5_12 H 0.0744 0.0296 0.5862
H6_12 H 0.1366 0.0711 0.5634
H17_14 H 0.0885 0.0202 0.6876
H18_12 H 0.1326 0.0121 0.6557
C21_12 C 0.3134(5) 0.0358(4) 0.6410(2)
C22_14 C 0.3006(5) 0.0156(4) 0.6860(2)
C23_14 C 0.2673(5) 0.0337(4) 0.7110(2)
H25_14 H 0.2564 0.0199 0.7408
C24_14 C 0.2503(7) 0.0704(6) 0.6938(3)
H26_14 H 0.2292 0.0828 0.7121
C25_12 C 0.2636(7) 0.0903(6) 0.6493(3)
C26_12 C 0.2940(6) 0.0723(5) 0.6232(2)
H27_12 H 0.3021 0.0846 0.5927
O6_12 O 0.2421(4) 0.1259(4) 0.63503(19)
C27_12 C 0.2618(7) 0.1520(6) 0.5923(3)
H28_12 H 0.2485 0.1215 0.5693
H29_12 H 0.2459 0.1777 0.5859
H30_12 H 0.3045 0.1749 0.5922
C28_14 C 0.3463(5) 0.0207(4) 0.6126(2)
H31_14 H 0.3500 0.0323 0.5820
N5_14 N 0.3778(5) 0.1276(3) 0.5088(2)
O7_14 O 0.3880(4) 0.0850(3) 0.51392(17)
O8_14 O 0.3703(3) 0.1393(2) 0.46950(18)
O10_15 O 0.4611(3) 0.0394(2) 0.41539(17)
N7_14 N 0.4956(4) 0.1674(3) 0.4154(3)
O11_15 O 0.4822(4) 0.1438(3) 0.4543(2)
O12_14 O 0.4548(3) 0.1479(2) 0.38704(16)
O13_14 O 0.3761(4) 0.1543(3) 0.5412(2)
O15_15 O 0.5452(6) 0.2052(4) 0.4058(3)
O17_12 O 0.3530(4) 0.0034(2) 0.36953(14)
C1_12 C 0.2206(4) 0.9537(3) 0.5164(2)
C2_12 C 0.2505(4) 0.9990(3) 0.4845(2)
C5_12 C 0.1589(4) 0.9933(3) 0.5367(3)
C6_12 C 0.1752(4) 0.9523(3) 0.5421(2)
H3_12 H 0.1556 0.9222 0.5637
O2_12 O 0.1131(4) 0.9876(3) 0.5631(2)
C8_12 C 0.2323(4) 0.9067(3) 0.5213(2)
H7_12 H 0.2088 0.8764 0.5418
N1_13 N 0.2722(4) 0.9025(3) 0.50006(18)
H8_13 H 0.290(4) 0.932(2) 0.482(2)
C9_13 C 0.2818(4) 0.8524(3) 0.5040(2)
H9_13 H 0.2473 0.8193 0.5183
H10_13 H 0.2862 0.8399 0.4736
C10_15 C 0.3361(4) 0.8678(3) 0.5317(2)
H11_15 H 0.3697 0.9039 0.5196
H12_15 H 0.3454 0.8360 0.5292
C11_12 C 0.1403(5) 0.8584(3) 0.6460(2)
C12_12 C 0.0924(5) 0.8044(3) 0.6317(2)
C13_12 C 0.0371(5) 0.7976(3) 0.6351(3)
H13_12 H 0.0044 0.7603 0.6286
C14_12 C 0.0270(7) 0.8412(4) 0.6471(3)
C15_12 C 0.0750(7) 0.8967(4) 0.6573(3)
C16_12 C 0.1300(7) 0.9048(4) 0.6578(3)
H15_12 H 0.1619 0.9417 0.6661
O4_14 O 0.0583(5) 0.9382(3) 0.6675(2)
C17_14 C 0.1047(9) 0.9950(5) 0.6805(4)
H16_14 H 0.1246 0.9914 0.7070
C18_12 C 0.1970(6) 0.8659(4) 0.6490(2)
H19_12 H 0.2273 0.9018 0.6606
N2_13 N 0.2102(5) 0.8266(3) 0.63681(19)
H20_13 H 0.185(5) 0.797(3) 0.631(2)
C19_13 C 0.2647(6) 0.8279(4) 0.6455(2)
H21_13 H 0.2574 0.7959 0.6666
H22_13 H 0.2921 0.8653 0.6602
C20_13 C 0.2932(4) 0.8212(3) 0.6027(2)
H23_13 H 0.2624 0.7930 0.5823
H24_13 H 0.3188 0.8052 0.6107
N3_15 N 0.3718(5) 0.9925(4) 0.62502(18)
H32_15 H 0.363(5) 0.981(4) 0.6535(11)
C29_15 C 0.4075(5) 0.9762(4) 0.5970(2)
H33_15 H 0.4060 0.9867 0.5653
H34_15 H 0.4487 0.9981 0.6071
C30_15 C 0.3850(4) 0.9117(3) 0.6007(2)
H35_15 H 0.3819 0.9008 0.6328
H36_15 H 0.4132 0.9025 0.5864
N4_13 N 0.3277(3) 0.8768(2) 0.57926(17)
N6_15 N 0.4416(4) 0.9995(3) 0.4439(2)
O9_15 O 0.3968(3) 0.9908(2) 0.46616(16)
O14_15 O 0.4632(5) 0.9691(4) 0.4502(3)
N1_14 N 0.4309(3) 0.0364(3) 0.16672(18)
H8_14 H 0.402(2) 0.025(3) 0.148(2)
C9_14 C 0.4810(3) 0.0961(3) 0.1706(2)
H9_14 H 0.5141 0.0947 0.1849
H10_14 H 0.4935 0.1130 0.1402
C10_16 C 0.4656(3) 0.1350(3) 0.1983(2)
H11_16 H 0.4295 0.1325 0.1862
H12_16 H 0.4974 0.1761 0.1958
N2_14 N 0.5068(3) 0.0503(4) 0.30347(19)
H20_14 H 0.537(3) 0.055(4) 0.297(2)
C19_14 C 0.5055(4) 0.1035(5) 0.3121(2)
H21_14 H 0.5375 0.1282 0.3332
H22_14 H 0.4681 0.0935 0.3268
C20_14 C 0.5122(3) 0.1387(3) 0.2693(2)
H23_14 H 0.5404 0.1361 0.2489
H24_14 H 0.5282 0.1803 0.2773
N3_16 N 0.3409(4) 0.0460(3) 0.29168(18)
H32_16 H 0.353(4) 0.049(3) 0.3201(11)
C29_16 C 0.3572(4) 0.0980(3) 0.2636(2)
H33_16 H 0.3467 0.0860 0.2319
H34_16 H 0.3353 0.1173 0.2737
C30_16 C 0.4217(3) 0.1400(3) 0.2673(2)
H35_16 H 0.4326 0.1478 0.2994
H36_16 H 0.4309 0.1774 0.2530
N4_14 N 0.4566(2) 0.1176(2) 0.24592(17)
N6_16 N 0.3339(3) 0.1088(3) 0.1105(2)
O9_16 O 0.3426(2) 0.0727(2) 0.13282(16)
O10_16 O 0.2940(2) 0.0884(2) 0.08205(17)
O11_16 O 0.1896(3) 0.0051(3) 0.1209(2)
O14_16 O 0.3643(4) 0.1608(3) 0.1168(3)
O15_16 O 0.1282(4) 0.0067(4) 0.0724(3)
O1_13 O 0.0408(2) 0.3740(3) 0.12609(16)
C1_13 C 0.0664(3) 0.4460(4) 0.1830(2)
C2_13 C 0.0818(3) 0.4161(4) 0.1511(2)
C3_13 C 0.1407(3) 0.4335(4) 0.1470(3)
H1_13 H 0.1522 0.4139 0.1261
C4_13 C 0.1827(3) 0.4783(4) 0.1724(3)
H2_13 H 0.2226 0.4892 0.1687
C5_13 C 0.1677(3) 0.5077(4) 0.2033(3)
C6_13 C 0.1104(3) 0.4914(4) 0.2087(2)
H3_13 H 0.0999 0.5110 0.2303
O2_13 O 0.2078(2) 0.5535(4) 0.2297(2)
C7_13 C 0.2665(4) 0.5663(6) 0.2278(4)
H4_13 H 0.2840 0.5858 0.1993
H5_13 H 0.2885 0.5922 0.2528
H6_13 H 0.2678 0.5300 0.2300
C8_13 C 0.0077(3) 0.4343(4) 0.1879(2)
H7_13 H 0.0009 0.4578 0.2084
C11_13 C 0.0514(4) 0.5263(5) 0.3126(2)
C12_13 C 0.0453(4) 0.5742(5) 0.2983(2)
C13_13 C 0.0938(4) 0.6295(5) 0.3017(3)
H13_13 H 0.0892 0.6622 0.2952
C14_13 C 0.1475(6) 0.6396(7) 0.3137(3)
H14_9 H 0.1795 0.6783 0.3152
C15_13 C 0.1550(6) 0.5916(7) 0.3239(3)
C16_13 C 0.1081(6) 0.5366(7) 0.3244(3)
H15_13 H 0.1131 0.5047 0.3327
O4_15 O 0.2132(4) 0.6083(5) 0.3341(2)
C17_15 C 0.2236(7) 0.5619(9) 0.3471(4)
H16_15 H 0.2001 0.5420 0.3736
H17_15 H 0.2650 0.5781 0.3542
H18_13 H 0.2128 0.5340 0.3223
C18_13 C 0.0022(5) 0.4696(6) 0.3156(2)
H19_13 H 0.0078 0.4393 0.3272
C21_13 C 0.0557(3) 0.3532(5) 0.3076(2)
C22_15 C 0.0483(3) 0.3660(5) 0.3526(2)
C23_15 C 0.0997(3) 0.3993(5) 0.3776(2)
H25_15 H 0.0968 0.4102 0.4074
C24_15 C 0.1534(4) 0.4163(7) 0.3604(3)
H26_15 H 0.1869 0.4374 0.3787
C25_13 C 0.1600(4) 0.4030(7) 0.3159(3)
C26_13 C 0.1116(3) 0.3726(6) 0.2898(2)
H27_13 H 0.1158 0.3645 0.2593
O6_13 O 0.2171(2) 0.4245(4) 0.30169(19)
C27_13 C 0.2235(4) 0.4048(7) 0.2589(3)
H28_13 H 0.2063 0.4181 0.2359
H29_13 H 0.2651 0.4207 0.2525
H30_13 H 0.2037 0.3621 0.2588
C28_15 C 0.0077(3) 0.3203(5) 0.2792(2)
H31_15 H 0.0156 0.3166 0.2486
N5_15 N 0.0831(4) 0.2888(5) 0.1754(2)
O7_15 O 0.0303(3) 0.2786(4) 0.18058(17)
O8_15 O 0.1023(2) 0.2963(3) 0.13616(18)
N7_15 N 0.0051(3) 0.1710(4) 0.0820(3)
O12_15 O 0.0264(2) 0.2118(3) 0.05370(16)
O13_15 O 0.1115(3) 0.2905(4) 0.2078(2)
N1_15 N 0.9636(3) 0.3944(4) 0.16672(18)
H8_15 H 0.975(3) 0.376(4) 0.148(2)
C9_15 C 0.9039(3) 0.3848(4) 0.1706(2)
H9_15 H 0.9053 0.4193 0.1849
H10_15 H 0.8870 0.3804 0.1402
C10_17 C 0.8650(3) 0.3305(4) 0.1983(2)
H11_17 H 0.8675 0.2969 0.1862
H12_17 H 0.8239 0.3212 0.1958
N2_15 N 0.9497(4) 0.4564(5) 0.30347(19)
H20_15 H 0.945(4) 0.481(5) 0.297(2)
C19_15 C 0.8965(5) 0.4019(6) 0.3121(2)
H21_15 H 0.8718 0.4092 0.3332
H22_15 H 0.9065 0.3745 0.3268
C20_15 C 0.8613(3) 0.3734(4) 0.2693(2)
H23_15 H 0.8639 0.4042 0.2489
H24_15 H 0.8197 0.3478 0.2773
N3_17 N 0.9540(3) 0.2948(5) 0.29168(18)
H32_17 H 0.951(3) 0.303(5) 0.3201(11)
C29_17 C 0.9020(3) 0.2591(5) 0.2636(2)
H33_17 H 0.9140 0.2606 0.2319
H34_17 H 0.8827 0.2179 0.2737
C30_17 C 0.8600(3) 0.2816(4) 0.2673(2)
H35_17 H 0.8522 0.2847 0.2994
H36_17 H 0.8226 0.2534 0.2530
N4_15 N 0.8824(2) 0.3389(3) 0.24592(17)
N6_17 N 0.8912(3) 0.2250(4) 0.1105(2)
O9_17 O 0.9273(2) 0.2698(3) 0.13282(16)
O10_17 O 0.9116(2) 0.2055(3) 0.08205(17)
O11_17 O 0.9949(3) 0.1844(4) 0.1209(2)
O14_17 O 0.8392(3) 0.2034(5) 0.1168(3)
O15_17 O 0.9933(4) 0.1214(6) 0.0724(3)
O1_14 O 0.6260(3) 0.6667(2) 0.12609(16)
C1_14 C 0.5540(4) 0.6203(3) 0.1830(2)
C2_14 C 0.5839(4) 0.6656(3) 0.1511(2)
C3_14 C 0.5665(4) 0.7071(3) 0.1470(3)
H1_14 H 0.5861 0.7382 0.1261
C4_14 C 0.5217(4) 0.7043(3) 0.1724(3)
H2_14 H 0.5108 0.7333 0.1687
C5_14 C 0.4923(4) 0.6599(3) 0.2033(3)
C6_14 C 0.5086(4) 0.6189(3) 0.2087(2)
H3_14 H 0.4890 0.5888 0.2303
O2_14 O 0.4465(4) 0.6542(3) 0.2297(2)
C7_14 C 0.4337(6) 0.7001(5) 0.2278(4)
H4_14 H 0.4142 0.6981 0.1993
H5_14 H 0.4078 0.6962 0.2528
H6_14 H 0.4700 0.7377 0.2300
C8_14 C 0.5657(4) 0.5733(3) 0.1879(2)
H7_14 H 0.5422 0.5430 0.2084
N1_16 N 0.6056(4) 0.5691(3) 0.16672(18)
H8_16 H 0.624(4) 0.598(2) 0.148(2)
C9_16 C 0.6152(4) 0.5190(3) 0.1706(2)
H9_16 H 0.5807 0.4859 0.1849
H10_16 H 0.6196 0.5065 0.1402
C10_18 C 0.6695(4) 0.5344(3) 0.1983(2)
H11_18 H 0.7031 0.5705 0.1862
H12_18 H 0.6788 0.5026 0.1958
C11_14 C 0.4737(5) 0.5250(3) 0.3126(2)
C12_14 C 0.4258(5) 0.4710(3) 0.2983(2)
C13_14 C 0.3705(5) 0.4642(3) 0.3017(3)
H13_14 H 0.3378 0.4269 0.2952
C14_14 C 0.3604(7) 0.5078(4) 0.3137(3)
H14_10 H 0.3217 0.5011 0.3152
C15_14 C 0.4084(7) 0.5633(4) 0.3239(3)
C16_14 C 0.4634(7) 0.5714(4) 0.3244(3)
H15_14 H 0.4953 0.6083 0.3327
O4_16 O 0.3917(5) 0.6048(3) 0.3341(2)
C17_16 C 0.4381(9) 0.6616(5) 0.3471(4)
H16_16 H 0.4580 0.6580 0.3736
H17_16 H 0.4219 0.6868 0.3542
H18_14 H 0.4660 0.6787 0.3223
C18_14 C 0.5304(6) 0.5325(4) 0.3156(2)
H19_14 H 0.5607 0.5684 0.3272
N2_16 N 0.5436(5) 0.4932(3) 0.30347(19)
H20_16 H 0.519(5) 0.463(3) 0.297(2)
C19_16 C 0.5981(6) 0.4945(4) 0.3121(2)
H21_16 H 0.5908 0.4625 0.3332
H22_16 H 0.6255 0.5319 0.3268
C20_16 C 0.6266(4) 0.4878(3) 0.2693(2)
H23_16 H 0.5958 0.4596 0.2489
H24_16 H 0.6522 0.4718 0.2773
C21_14 C 0.6468(5) 0.7024(4) 0.3076(2)
C22_16 C 0.6340(5) 0.6822(4) 0.3526(2)
C23_16 C 0.6007(5) 0.7003(4) 0.3776(2)
H25_16 H 0.5898 0.6865 0.4074
C24_16 C 0.5837(7) 0.7370(6) 0.3604(3)
H26_16 H 0.5626 0.7494 0.3787
C25_14 C 0.5970(7) 0.7569(6) 0.3159(3)
C26_14 C 0.6274(6) 0.7389(5) 0.2898(2)
H27_14 H 0.6355 0.7512 0.2593
O6_14 O 0.5755(4) 0.7925(4) 0.30169(19)
C27_14 C 0.5952(7) 0.8186(6) 0.2589(3)
H28_14 H 0.5819 0.7881 0.2359
H29_14 H 0.5793 0.8443 0.2525
H30_14 H 0.6379 0.8415 0.2588
C28_16 C 0.6797(5) 0.6873(4) 0.2792(2)
H31_16 H 0.6834 0.6989 0.2486
N3_18 N 0.7052(5) 0.6591(4) 0.29168(18)
H32_18 H 0.697(5) 0.647(4) 0.3201(11)
C29_18 C 0.7409(5) 0.6428(4) 0.2636(2)
H33_18 H 0.7394 0.6533 0.2319
H34_18 H 0.7821 0.6647 0.2737
C30_18 C 0.7184(4) 0.5783(3) 0.2673(2)
H35_18 H 0.7153 0.5674 0.2994
H36_18 H 0.7466 0.5691 0.2530
N4_16 N 0.6611(3) 0.5434(2) 0.24592(17)
N5_16 N 0.7112(5) 0.7942(3) 0.1754(2)
O7_16 O 0.7214(4) 0.7516(3) 0.18058(17)
O8_16 O 0.7037(3) 0.8059(2) 0.13616(18)
N6_18 N 0.7750(4) 0.6661(3) 0.1105(2)
O9_18 O 0.7302(3) 0.6574(2) 0.13282(16)
O10_18 O 0.7945(3) 0.7060(2) 0.08205(17)
N7_16 N 0.8290(4) 0.8340(3) 0.0820(3)
O11_18 O 0.8156(4) 0.8104(3) 0.1209(2)
O12_16 O 0.7882(3) 0.8145(2) 0.05370(16)
O13_16 O 0.7095(4) 0.8209(3) 0.2078(2)
O14_18 O 0.7966(5) 0.6357(4) 0.1168(3)
O15_18 O 0.8786(6) 0.8718(4) 0.0724(3)
Tb2_3 Tb 0.731092(14) 0.016383(25) 0.902934(10)
O1_15 O 0.6667(2) 0.0408(2) 0.87391(16)
C1_15 C 0.6203(3) 0.0664(3) 0.8170(2)
C2_15 C 0.6656(3) 0.0818(3) 0.8489(2)
C3_15 C 0.7071(3) 0.1407(3) 0.8530(3)
H1_15 H 0.7382 0.1522 0.8739
C4_15 C 0.7043(3) 0.1827(3) 0.8276(3)
H2_15 H 0.7333 0.2226 0.8313
C5_15 C 0.6599(3) 0.1677(3) 0.7967(3)
C6_15 C 0.6189(3) 0.1104(3) 0.7913(2)
H3_15 H 0.5888 0.0999 0.7697
O2_15 O 0.6542(3) 0.2078(2) 0.7703(2)
C7_15 C 0.7001(5) 0.2665(4) 0.7722(4)
H4_15 H 0.6981 0.2840 0.8007
H5_15 H 0.6962 0.2885 0.7472
H6_15 H 0.7377 0.2678 0.7700
C8_15 C 0.5733(3) 0.0077(3) 0.8121(2)
H7_15 H 0.5430 0.0009 0.7916
C11_15 C 0.5250(3) 0.0514(4) 0.6874(2)
C12_15 C 0.4710(3) 0.0453(4) 0.7017(2)
C13_15 C 0.4642(3) 0.0938(4) 0.6983(3)
H13_15 H 0.4269 0.0892 0.7048
C14_15 C 0.5078(4) 0.1475(6) 0.6863(3)
H14_11 H 0.5011 0.1795 0.6848
C15_15 C 0.5633(4) 0.1550(6) 0.6761(3)
C16_15 C 0.5714(4) 0.1081(6) 0.6756(3)
H15_15 H 0.6083 0.1131 0.6673
O4_17 O 0.6048(3) 0.2132(4) 0.6659(2)
C17_17 C 0.6616(5) 0.2236(7) 0.6529(4)
H16_17 H 0.6580 0.2001 0.6264
H17_17 H 0.6868 0.2650 0.6458
H18_15 H 0.6787 0.2128 0.6777
C18_15 C 0.5325(4) 0.0022(5) 0.6844(2)
H19_15 H 0.5684 0.0078 0.6728
C21_15 C 0.7024(4) 0.0557(3) 0.6924(2)
C22_17 C 0.6822(4) 0.0483(3) 0.6474(2)
C23_17 C 0.7003(4) 0.0997(3) 0.6224(2)
H25_17 H 0.6865 0.0968 0.5926
C24_17 C 0.7370(6) 0.1534(4) 0.6396(3)
H26_17 H 0.7494 0.1869 0.6213
C25_15 C 0.7569(6) 0.1600(4) 0.6841(3)
C26_15 C 0.7389(5) 0.1116(3) 0.7102(2)
H27_15 H 0.7512 0.1158 0.7407
O6_15 O 0.7925(4) 0.2171(2) 0.69831(19)
C27_15 C 0.8186(6) 0.2235(4) 0.7411(3)
H28_15 H 0.7881 0.2063 0.7641
H29_15 H 0.8443 0.2651 0.7475
H30_15 H 0.8415 0.2037 0.7412
C28_17 C 0.6873(4) 0.0077(3) 0.7208(2)
H31_17 H 0.6989 0.0156 0.7514
N5_17 N 0.7942(3) 0.0831(4) 0.8246(2)
O7_17 O 0.7516(3) 0.0303(3) 0.81942(17)
O8_17 O 0.8059(2) 0.1023(2) 0.86384(18)
N7_17 N 0.8340(3) 0.0051(3) 0.9180(3)
O12_17 O 0.8145(2) 0.0264(2) 0.94630(16)
O13_17 O 0.8209(3) 0.1115(3) 0.7922(2)
O16_9 O 0.7676(4) 0.0956(2) 0.95128(17)
O1_16 O 0.9593(3) 0.3334(2) 0.79276(16)
C1_16 C 0.8873(4) 0.2870(3) 0.8497(2)
C2_16 C 0.9172(4) 0.3323(3) 0.8178(2)
C3_16 C 0.8998(4) 0.3738(3) 0.8137(3)
H1_16 H 0.9194 0.4049 0.7928
C4_16 C 0.8550(4) 0.3710(3) 0.8391(3)
H2_16 H 0.8441 0.4000 0.8354
C5_16 C 0.8256(4) 0.3266(3) 0.8700(3)
C6_16 C 0.8419(4) 0.2856(3) 0.8754(2)
H3_16 H 0.8223 0.2555 0.8970
O2_16 O 0.7798(4) 0.3209(3) 0.8964(2)
C7_16 C 0.7670(6) 0.3668(5) 0.8945(4)
H4_16 H 0.7475 0.3648 0.8660
H5_16 H 0.7411 0.3629 0.9195
H6_16 H 0.8033 0.4044 0.8967
C8_16 C 0.8990(4) 0.2400(3) 0.8546(2)
H7_16 H 0.8755 0.2097 0.8751
N1_17 N 0.9389(4) 0.2358(3) 0.83339(18)
H8_17 H 0.957(4) 0.265(2) 0.815(2)
C9_17 C 0.9485(4) 0.1857(3) 0.8373(2)
H9_17 H 0.9140 0.1526 0.8516
H10_17 H 0.9529 0.1732 0.8069
C11_16 C 0.8070(5) 0.1917(3) 0.9793(2)
C12_16 C 0.7591(5) 0.1377(3) 0.9650(2)
C13_16 C 0.7038(5) 0.1309(3) 0.9684(3)
H13_16 H 0.6711 0.0936 0.9619
C14_16 C 0.6937(7) 0.1745(4) 0.9804(3)
H14_12 H 0.6550 0.1678 0.9819
C15_16 C 0.7417(7) 0.2300(4) 0.9906(3)
C16_16 C 0.7967(7) 0.2381(4) 0.9911(3)
H15_16 H 0.8286 0.2750 0.9994
H18_16 H 0.7993 0.3454 0.9890
C18_16 C 0.8637(6) 0.1992(4) 0.9823(2)
H19_16 H 0.8940 0.2351 0.9939
N2_17 N 0.8769(5) 0.1599(3) 0.97014(19)
H20_17 H 0.852(5) 0.130(3) 0.964(2)
C19_17 C 0.9314(6) 0.1612(4) 0.9788(2)
H21_17 H 0.9241 0.1292 0.9999
H22_17 H 0.9588 0.1986 0.9935
C20_17 C 0.9599(4) 0.1545(3) 0.9360(2)
H23_17 H 0.9291 0.1263 0.9156
H24_17 H 0.9855 0.1385 0.9440
C21_16 C 0.9801(5) 0.3691(4) 0.9743(2)
C25_16 C 0.9303(7) 0.4236(6) 0.9826(3)
C26_16 C 0.9607(6) 0.4056(5) 0.9565(2)
H27_16 H 0.9688 0.4179 0.9260
O6_16 O 0.9088(4) 0.4592(4) 0.96836(19)
C27_16 C 0.9285(7) 0.4853(6) 0.9256(3)
H28_16 H 0.9152 0.4548 0.9026
H29_16 H 0.9126 0.5110 0.9192
H30_16 H 0.9712 0.5082 0.9255
N4_17 N 0.9944(3) 0.2101(2) 0.91259(17)
O1_17 O 0.0407(3) 0.6666(2) 0.20724(16)
C1_17 C 0.1127(4) 0.7130(3) 0.1503(2)
C2_17 C 0.0828(4) 0.6677(3) 0.1822(2)
C3_17 C 0.1002(4) 0.6262(3) 0.1863(3)
H1_17 H 0.0806 0.5951 0.2072
C4_17 C 0.1450(4) 0.6290(3) 0.1609(3)
H2_17 H 0.1559 0.6000 0.1646
C5_17 C 0.1744(4) 0.6734(3) 0.1300(3)
C6_17 C 0.1581(4) 0.7144(3) 0.1246(2)
H3_17 H 0.1777 0.7445 0.1030
O2_17 O 0.2202(4) 0.6791(3) 0.1036(2)
C7_17 C 0.2330(6) 0.6332(5) 0.1055(4)
H4_17 H 0.2525 0.6352 0.1340
H5_17 H 0.2589 0.6371 0.0805
H6_17 H 0.1967 0.5956 0.1033
C8_17 C 0.1010(4) 0.7600(3) 0.1454(2)
H7_17 H 0.1245 0.7903 0.1249
N1_18 N 0.0611(4) 0.7642(3) 0.16661(18)
H8_18 H 0.043(4) 0.735(2) 0.185(2)
C9_18 C 0.0515(4) 0.8143(3) 0.1627(2)
H9_18 H 0.0860 0.8474 0.1484
H10_18 H 0.0471 0.8268 0.1931
O3_9 O 0.2324(4) 0.9044(2) 0.04872(17)
C11_17 C 0.1930(5) 0.8083(3) 0.0207(2)
C12_17 C 0.2409(5) 0.8623(3) 0.0350(2)
C13_17 C 0.2962(5) 0.8691(3) 0.0316(3)
H13_17 H 0.3289 0.9064 0.0381
C14_17 C 0.3063(7) 0.8255(4) 0.0196(3)
H14_13 H 0.3450 0.8322 0.0181
C15_17 C 0.2583(7) 0.7700(4) 0.0094(3)
C16_17 C 0.2033(7) 0.7619(4) 0.0089(3)
H15_17 H 0.1714 0.7250 0.0006
H18_17 H 0.2007 0.6546 0.0110
C18_17 C 0.1363(6) 0.8008(4) 0.0177(2)
H19_17 H 0.1060 0.7649 0.0061
N2_18 N 0.1231(5) 0.8401(3) 0.02986(19)
H20_18 H 0.148(5) 0.870(3) 0.036(2)
C19_18 C 0.0686(6) 0.8388(4) 0.0212(2)
H21_18 H 0.0759 0.8708 0.0001
H22_18 H 0.0412 0.8014 0.0065
C20_18 C 0.0401(4) 0.8455(3) 0.0640(2)
H23_18 H 0.0709 0.8737 0.0844
H24_18 H 0.0145 0.8615 0.0560
C21_17 C 0.0199(5) 0.6309(4) 0.0257(2)
C25_17 C 0.0697(7) 0.5764(6) 0.0174(3)
C26_17 C 0.0393(6) 0.5944(5) 0.0435(2)
H27_17 H 0.0312 0.5821 0.0740
O6_17 O 0.0912(4) 0.5408(4) 0.03164(19)
C27_17 C 0.0715(7) 0.5147(6) 0.0744(3)
H28_17 H 0.0848 0.5452 0.0974
H29_17 H 0.0874 0.4890 0.0808
H30_17 H 0.0288 0.4918 0.0745
N4_18 N 0.0056(3) 0.7899(2) 0.08741(17)
Tb3_9 Tb 0.268908(26) 0.983617(15) 0.097066(10)
O1_18 O 0.3333(2) 0.9592(2) 0.12609(16)
C1_18 C 0.3797(3) 0.9336(3) 0.1830(2)
C2_18 C 0.3344(3) 0.9182(3) 0.1511(2)
C3_18 C 0.2929(3) 0.8593(3) 0.1470(3)
H1_18 H 0.2618 0.8478 0.1261
C4_18 C 0.2957(3) 0.8173(3) 0.1724(3)
H2_18 H 0.2667 0.7774 0.1687
C5_18 C 0.3401(3) 0.8323(3) 0.2033(3)
C6_18 C 0.3811(3) 0.8896(3) 0.2087(2)
H3_18 H 0.4112 0.9001 0.2303
O2_18 O 0.3458(3) 0.7922(2) 0.2297(2)
C7_18 C 0.2999(5) 0.7335(4) 0.2278(4)
H4_18 H 0.3019 0.7160 0.1993
H5_18 H 0.3038 0.7115 0.2528
H6_18 H 0.2623 0.7322 0.2300
C8_18 C 0.4267(3) 0.9923(3) 0.1879(2)
H7_18 H 0.4570 0.9991 0.2084
C11_18 C 0.4750(3) 0.9486(4) 0.3126(2)
C12_18 C 0.5290(3) 0.9547(4) 0.2983(2)
C13_18 C 0.5358(3) 0.9062(4) 0.3017(3)
H13_18 H 0.5731 0.9108 0.2952
C14_18 C 0.4922(4) 0.8525(6) 0.3137(3)
H14_14 H 0.4989 0.8205 0.3152
C15_18 C 0.4367(4) 0.8450(6) 0.3239(3)
C16_18 C 0.4286(4) 0.8919(6) 0.3244(3)
H15_18 H 0.3917 0.8869 0.3327
O4_18 O 0.3952(3) 0.7868(4) 0.3341(2)
C17_18 C 0.3384(5) 0.7764(7) 0.3471(4)
H16_18 H 0.3420 0.7999 0.3736
H17_18 H 0.3132 0.7350 0.3542
H18_18 H 0.3213 0.7872 0.3223
C18_18 C 0.4675(4) 0.9978(5) 0.3156(2)
H19_18 H 0.4316 0.9922 0.3272
C21_18 C 0.2976(4) 0.9443(3) 0.3076(2)
C22_18 C 0.3178(4) 0.9517(3) 0.3526(2)
C23_18 C 0.2997(4) 0.9003(3) 0.3776(2)
H25_18 H 0.3135 0.9032 0.4074
C24_18 C 0.2630(6) 0.8466(4) 0.3604(3)
H26_18 H 0.2506 0.8131 0.3787
C25_18 C 0.2431(6) 0.8400(4) 0.3159(3)
C26_18 C 0.2611(5) 0.8884(3) 0.2898(2)
H27_18 H 0.2488 0.8842 0.2593
O6_18 O 0.2075(4) 0.7829(2) 0.30169(19)
C27_18 C 0.1814(6) 0.7765(4) 0.2589(3)
H28_18 H 0.2119 0.7937 0.2359
H29_18 H 0.1557 0.7349 0.2525
H30_18 H 0.1585 0.7963 0.2588
C28_18 C 0.3127(4) 0.9923(3) 0.2792(2)
H31_18 H 0.3011 0.9844 0.2486
N5_18 N 0.2058(3) 0.9169(4) 0.1754(2)
O7_18 O 0.2484(3) 0.9697(3) 0.18058(17)
O8_18 O 0.1941(2) 0.8977(2) 0.13616(18)
N7_18 N 0.1660(3) 0.9949(3) 0.0820(3)
O12_18 O 0.1855(2) 0.9736(2) 0.05370(16)
O13_18 O 0.1791(3) 0.8885(3) 0.2078(2)
H14_15 H 0.1539 0.9883 0.3514
H14_16 H 0.0117 0.1655 0.3514
H14_17 H 0.8461 0.0117 0.6486
H14_18 H 0.9883 0.8345 0.6486
loop_
_geom_bond_atom_site_label_1
_geom_bond_atom_site_label_2
_geom_bond_site_symmetry_1
_geom_bond_site_symmetry_2
Tb1 O1 1_555 1_555
O1 C2 1_555 1_555
C1 C2 1_555 1_555
C2 C3 1_555 1_555
C3 H1 1_555 1_555
C4 C3 1_555 1_555
H2 C4 1_555 1_555
C5 C4 1_555 1_555
C6 C1 1_555 1_555
H3 C6 1_555 1_555
O2 C5 1_555 1_555
C7 O2 1_555 1_555
H4 C7 1_555 1_555
H5 C7 1_555 1_555
H6 C7 1_555 1_555
C8 C1 1_555 1_555
H7 C8 1_555 1_555
N1 C8 1_555 1_555
H8 N1 1_555 1_555
C9 N1 1_555 1_555
H9 C9 1_555 1_555
H10 C9 1_555 1_555
C10 C9 1_555 1_555
H11 C10 1_555 1_555
H12 C10 1_555 1_555
O3 C12 1_555 1_555
C11 C12 1_555 1_555
C12 C13 1_555 1_555
C13 H13 1_555 1_555
C14 C13 1_555 1_555
H14 C14 1_555 1_555
C15 C14 1_555 1_555
C16 C11 1_555 1_555
H15 C16 1_555 1_555
C18 C11 1_555 1_555
H19 C18 1_555 1_555
N2 C18 1_555 1_555
H20 N2 1_555 1_555
C19 N2 1_555 1_555
H21 C19 1_555 1_555
H22 C19 1_555 1_555
C20 C19 1_555 1_555
H23 C20 1_555 1_555
H24 C20 1_555 1_555
C26 C21 1_555 1_555
H27 C26 1_555 1_555
O6 C25 1_555 1_555
C27 O6 1_555 1_555
H28 C27 1_555 1_555
H29 C27 1_555 1_555
H30 C27 1_555 1_555
C28 C21 1_555 1_555
H31 C28 1_555 1_555
N3 C28 1_555 1_555
H32 N3 1_555 1_555
C29 N3 1_555 1_555
H33 C29 1_555 1_555
H34 C29 1_555 1_555
C30 C29 1_555 1_555
H35 C30 1_555 1_555
H36 C30 1_555 1_555
N4 C10 1_555 1_555
N5 O7 1_555 1_555
O7 Tb1 1_555 1_555
O8 Tb1 1_555 1_555
N6 O9 1_555 1_555
O9 Tb1 1_555 1_555
O10 Tb1 1_555 1_555
N7 O11 1_555 1_555
O11 Tb1 1_555 1_555
O12 Tb1 1_555 1_555
O13 N5 1_555 1_555
O14 N6 1_555 1_555
O15 N7 1_555 1_555
Tb3 O3 1_555 1_555
O16 Tb1 1_555 1_555
O17 Tb1 1_555 1_555
C5 C6 1_555 1_555
C15 C16 1_555 1_555
C20 N4 1_555 1_555
C25 C26 1_555 1_555
C30 N4 1_555 1_555
N5 O8 1_555 1_555
N6 O10 1_555 1_555
N7 O12 1_555 1_555
C17 O4 1_555 1_555
H16 C17 1_555 1_555
H17 C17 1_555 1_555
O5 C22 1_555 1_555
C22 C23 1_555 1_555
C23 H25 1_555 1_555
C24 C23 1_555 1_555
H26 C24 1_555 1_555
Tb2 O5 1_555 1_555
H11_2 C10_2 1_555 1_555
H12_2 C10_2 1_555 1_555
H31_2 C28_2 1_555 1_555
N3_2 C28_2 1_555 1_555
H32_2 N3_2 1_555 1_555
C29_2 N3_2 1_555 1_555
H33_2 C29_2 1_555 1_555
H34_2 C29_2 1_555 1_555
C30_2 C29_2 1_555 1_555
H35_2 C30_2 1_555 1_555
H36_2 C30_2 1_555 1_555
N5_2 O7_2 1_555 1_555
O7_2 Tb1_2 1_555 1_555
O8_2 Tb1_2 1_555 1_555
N6_2 O9_2 1_555 1_555
O9_2 Tb1_2 1_555 1_555
O10_2 Tb1_2 1_555 1_555
N7_2 O11_2 1_555 1_555
O11_2 Tb1_2 1_555 1_555
O12_2 Tb1_2 1_555 1_555
O13_2 N5_2 1_555 1_555
O14_2 N6_2 1_555 1_555
O15_2 N7_2 1_555 1_555
O16_2 Tb1_2 1_555 1_555
O17_2 Tb1_2 1_555 1_555
N5_2 O8_2 1_555 1_555
N6_2 O10_2 1_555 1_555
N7_2 O12_2 1_555 1_555
O1_2 C2_2 1_555 1_555
C1_2 C2_2 1_555 1_555
C2_2 C3_2 1_555 1_555
C3_2 H1_2 1_555 1_555
C4_2 C3_2 1_555 1_555
H2_2 C4_2 1_555 1_555
C5_2 C4_2 1_555 1_555
C6_2 C1_2 1_555 1_555
H3_2 C6_2 1_555 1_555
O2_2 C5_2 1_555 1_555
C7_2 O2_2 1_555 1_555
H4_2 C7_2 1_555 1_555
H5_2 C7_2 1_555 1_555
H6_2 C7_2 1_555 1_555
C8_2 C1_2 1_555 1_555
H7_2 C8_2 1_555 1_555
N1_2 C8_2 1_555 1_555
H8_2 N1_2 1_555 1_555
C9_2 N1_2 1_555 1_555
H9_2 C9_2 1_555 1_555
H10_2 C9_2 1_555 1_555
O3_2 C12_2 1_555 1_555
C11_2 C12_2 1_555 1_555
C12_2 C13_2 1_555 1_555
C13_2 H13_2 1_555 1_555
C14_2 C13_2 1_555 1_555
H14_2 C14_2 1_555 1_555
C15_2 C14_2 1_555 1_555
C16_2 C11_2 1_555 1_555
H15_2 C16_2 1_555 1_555
C18_2 C11_2 1_555 1_555
H19_2 C18_2 1_555 1_555
N2_2 C18_2 1_555 1_555
H20_2 N2_2 1_555 1_555
C19_2 N2_2 1_555 1_555
H21_2 C19_2 1_555 1_555
H22_2 C19_2 1_555 1_555
C20_2 C19_2 1_555 1_555
H23_2 C20_2 1_555 1_555
H24_2 C20_2 1_555 1_555
C26_2 C21_2 1_555 1_555
H27_2 C26_2 1_555 1_555
O6_2 C25_2 1_555 1_555
C27_2 O6_2 1_555 1_555
H28_2 C27_2 1_555 1_555
H29_2 C27_2 1_555 1_555
H30_2 C27_2 1_555 1_555
Tb3_2 O3_2 1_555 1_555
C5_2 C6_2 1_555 1_555
C15_2 C16_2 1_555 1_555
C20_2 N4_2 1_555 1_555
C25_2 C26_2 1_555 1_555
C17_2 O4_2 1_555 1_555
H16_2 C17_2 1_555 1_555
H17_2 C17_2 1_555 1_555
O5_2 C22_2 1_555 1_555
C22_2 C23_2 1_555 1_555
C23_2 H25_2 1_555 1_555
C24_2 C23_2 1_555 1_555
H26_2 C24_2 1_555 1_555
C17_3 O4_3 1_555 1_555
H16_3 C17_3 1_555 1_555
H17_3 C17_3 1_555 1_555
O5_3 C22_3 1_555 1_555
C22_3 C23_3 1_555 1_555
C23_3 H25_3 1_555 1_555
C24_3 C23_3 1_555 1_555
H26_3 C24_3 1_555 1_555
H11_3 C10_3 1_555 1_555
H12_3 C10_3 1_555 1_555
H31_3 C28_3 1_555 1_555
N3_3 C28_3 1_555 1_555
H32_3 N3_3 1_555 1_555
C29_3 N3_3 1_555 1_555
H33_3 C29_3 1_555 1_555
H34_3 C29_3 1_555 1_555
C30_3 C29_3 1_555 1_555
H35_3 C30_3 1_555 1_555
H36_3 C30_3 1_555 1_555
N5_3 O7_3 1_555 1_555
O7_3 Tb1_3 1_555 1_555
O8_3 Tb1_3 1_555 1_555
N6_3 O9_3 1_555 1_555
O9_3 Tb1_3 1_555 1_555
O10_3 Tb1_3 1_555 1_555
N7_3 O11_3 1_555 1_555
O11_3 Tb1_3 1_555 1_555
O12_3 Tb1_3 1_555 1_555
O13_3 N5_3 1_555 1_555
O14_3 N6_3 1_555 1_555
O15_3 N7_3 1_555 1_555
O16_3 Tb1_3 1_555 1_555
O17_3 Tb1_3 1_555 1_555
N5_3 O8_3 1_555 1_555
N6_3 O10_3 1_555 1_555
N7_3 O12_3 1_555 1_555
Tb1_4 O1_3 1_555 1_555
C3_3 H1_3 1_555 1_555
C4_3 C3_3 1_555 1_555
H2_3 C4_3 1_555 1_555
H4_3 C7_3 1_555 1_555
H5_3 C7_3 1_555 1_555
H6_3 C7_3 1_555 1_555
C21_3 C22_4 1_555 1_555
C22_4 C23_4 1_555 1_555
C23_4 H25_4 1_555 1_555
C24_4 C23_4 1_555 1_555
H26_4 C24_4 1_555 1_555
C25_3 C24_4 1_555 1_555
C26_3 C21_3 1_555 1_555
H27_3 C26_3 1_555 1_555
O6_3 C25_3 1_555 1_555
C27_3 O6_3 1_555 1_555
H28_3 C27_3 1_555 1_555
H29_3 C27_3 1_555 1_555
H30_3 C27_3 1_555 1_555
C28_4 C21_3 1_555 1_555
H31_4 C28_4 1_555 1_555
N5_4 O7_4 1_555 1_555
O7_4 Tb1_4 1_555 1_555
O8_4 Tb1_4 1_555 1_555
O10_4 Tb1_4 1_555 1_555
N7_4 O11_4 1_555 1_555
O11_4 Tb1_4 1_555 1_555
O12_4 Tb1_4 1_555 1_555
O13_4 N5_4 1_555 1_555
O15_4 N7_4 1_555 1_555
O16_4 Tb1_4 1_555 1_555
O17_4 Tb1_4 1_555 1_555
C25_3 C26_3 1_555 1_555
N5_4 O8_4 1_555 1_555
N7_4 O12_4 1_555 1_555
C1_3 C2_3 1_555 1_555
C6_3 C1_3 1_555 1_555
H3_3 C6_3 1_555 1_555
O2_3 C5_3 1_555 1_555
C8_3 C1_3 1_555 1_555
H7_3 C8_3 1_555 1_555
N1_3 C8_3 1_555 1_555
H8_3 N1_3 1_555 1_555
C9_3 N1_3 1_555 1_555
H9_3 C9_3 1_555 1_555
H10_3 C9_3 1_555 1_555
C10_4 C9_3 1_555 1_555
H11_4 C10_4 1_555 1_555
H12_4 C10_4 1_555 1_555
O3_3 C12_3 1_555 1_555
C11_3 C12_3 1_555 1_555
C12_3 C13_3 1_555 1_555
C13_3 H13_3 1_555 1_555
C14_3 C13_3 1_555 1_555
H14_3 C14_3 1_555 1_555
C15_3 C14_3 1_555 1_555
C16_3 C11_3 1_555 1_555
H15_3 C16_3 1_555 1_555
O4_4 C15_3 1_555 1_555
C17_4 O4_4 1_555 1_555
H16_4 C17_4 1_555 1_555
C18_3 C11_3 1_555 1_555
H19_3 C18_3 1_555 1_555
N2_3 C18_3 1_555 1_555
H20_3 N2_3 1_555 1_555
C19_3 N2_3 1_555 1_555
H21_3 C19_3 1_555 1_555
H22_3 C19_3 1_555 1_555
C20_3 C19_3 1_555 1_555
H23_3 C20_3 1_555 1_555
H24_3 C20_3 1_555 1_555
H32_4 N3_4 1_555 1_555
C29_4 N3_4 1_555 1_555
H33_4 C29_4 1_555 1_555
H34_4 C29_4 1_555 1_555
C30_4 C29_4 1_555 1_555
H35_4 C30_4 1_555 1_555
H36_4 C30_4 1_555 1_555
N4_3 C10_4 1_555 1_555
N6_4 O9_4 1_555 1_555
O14_4 N6_4 1_555 1_555
Tb3_3 O3_3 1_555 1_555
C5_3 C6_3 1_555 1_555
C15_3 C16_3 1_555 1_555
C20_3 N4_3 1_555 1_555
C30_4 N4_3 1_555 1_555
Tb1_5 O1_4 1_555 1_555
O1_4 C2_4 1_555 1_555
C1_4 C2_4 1_555 1_555
C2_4 C3_4 1_555 1_555
C3_4 H1_4 1_555 1_555
C4_4 C3_4 1_555 1_555
H2_4 C4_4 1_555 1_555
C5_4 C4_4 1_555 1_555
C6_4 C1_4 1_555 1_555
H3_4 C6_4 1_555 1_555
O2_4 C5_4 1_555 1_555
C7_4 O2_4 1_555 1_555
H4_4 C7_4 1_555 1_555
H5_4 C7_4 1_555 1_555
H6_4 C7_4 1_555 1_555
C8_4 C1_4 1_555 1_555
H7_4 C8_4 1_555 1_555
N1_4 C8_4 1_555 1_555
H8_4 N1_4 1_555 1_555
C9_4 N1_4 1_555 1_555
H9_4 C9_4 1_555 1_555
H10_4 C9_4 1_555 1_555
C10_5 C9_4 1_555 1_555
H11_5 C10_5 1_555 1_555
H12_5 C10_5 1_555 1_555
O3_4 C12_4 1_555 1_555
C11_4 C12_4 1_555 1_555
C12_4 C13_4 1_555 1_555
C13_4 H13_4 1_555 1_555
C14_4 C13_4 1_555 1_555
C15_4 C14_4 1_555 1_555
C16_4 C11_4 1_555 1_555
H15_4 C16_4 1_555 1_555
O4_5 C15_4 1_555 1_555
C17_5 O4_5 1_555 1_555
H16_5 C17_5 1_555 1_555
H17_5 C17_5 1_555 1_555
H18_4 C17_5 1_555 1_555
C18_4 C11_4 1_555 1_555
H19_4 C18_4 1_555 1_555
N2_4 C18_4 1_555 1_555
H20_4 N2_4 1_555 1_555
C19_4 N2_4 1_555 1_555
H21_4 C19_4 1_555 1_555
H22_4 C19_4 1_555 1_555
C20_4 C19_4 1_555 1_555
H23_4 C20_4 1_555 1_555
H24_4 C20_4 1_555 1_555
O17 C22_5 1_555 1_555
C21_4 C22_5 1_555 1_555
C22_5 C23_5 1_555 1_555
C23_5 H25_5 1_555 1_555
C24_5 C23_5 1_555 1_555
H26_5 C24_5 1_555 1_555
C25_4 C24_5 1_555 1_555
C26_4 C21_4 1_555 1_555
H27_4 C26_4 1_555 1_555
O6_4 C25_4 1_555 1_555
C27_4 O6_4 1_555 1_555
H28_4 C27_4 1_555 1_555
H29_4 C27_4 1_555 1_555
H30_4 C27_4 1_555 1_555
C28_5 C21_4 1_555 1_555
H31_5 C28_5 1_555 1_555
N3_5 C28_5 1_555 1_555
H32_5 N3_5 1_555 1_555
C29_5 N3_5 1_555 1_555
H33_5 C29_5 1_555 1_555
H34_5 C29_5 1_555 1_555
C30_5 C29_5 1_555 1_555
H35_5 C30_5 1_555 1_555
H36_5 C30_5 1_555 1_555
N4_4 C10_5 1_555 1_555
N5_5 O7_5 1_555 1_555
O7_5 Tb1_5 1_555 1_555
O8_5 Tb1_5 1_555 1_555
N6_5 O9_5 1_555 1_555
O9_5 Tb1_5 1_555 1_555
O10_5 Tb1_5 1_555 1_555
N7_5 O11_5 1_555 1_555
O11_5 Tb1_5 1_555 1_555
O12_5 Tb1_5 1_555 1_555
O13_5 N5_5 1_555 1_555
O14_5 N6_5 1_555 1_555
O15_5 N7_5 1_555 1_555
Tb3_4 O3_4 1_555 1_555
O16_5 Tb1_5 1_555 1_555
O17_5 Tb1_5 1_555 1_555
C5_4 C6_4 1_555 1_555
C15_4 C16_4 1_555 1_555
C20_4 N4_4 1_555 1_555
C25_4 C26_4 1_555 1_555
C30_5 N4_4 1_555 1_555
N5_5 O8_5 1_555 1_555
N6_5 O10_5 1_555 1_555
N7_5 O12_5 1_555 1_555
C1_5 C2_5 1_555 1_555
C6_5 C1_5 1_555 1_555
H3_5 C6_5 1_555 1_555
O2_5 C5_5 1_555 1_555
C8_5 C1_5 1_555 1_555
H7_5 C8_5 1_555 1_555
N1_5 C8_5 1_555 1_555
H8_5 N1_5 1_555 1_555
C9_5 N1_5 1_555 1_555
H9_5 C9_5 1_555 1_555
H10_5 C9_5 1_555 1_555
C10_6 C9_5 1_555 1_555
H11_6 C10_6 1_555 1_555
H12_6 C10_6 1_555 1_555
O3_5 C12_5 1_555 1_555
C11_5 C12_5 1_555 1_555
C12_5 C13_5 1_555 1_555
C13_5 H13_5 1_555 1_555
C14_5 C13_5 1_555 1_555
C15_5 C14_5 1_555 1_555
C16_5 C11_5 1_555 1_555
H15_5 C16_5 1_555 1_555
O4_6 C15_5 1_555 1_555
C17_6 O4_6 1_555 1_555
H16_6 C17_6 1_555 1_555
C18_5 C11_5 1_555 1_555
H19_5 C18_5 1_555 1_555
N2_5 C18_5 1_555 1_555
H20_5 N2_5 1_555 1_555
C19_5 N2_5 1_555 1_555
H21_5 C19_5 1_555 1_555
H22_5 C19_5 1_555 1_555
C20_5 C19_5 1_555 1_555
H23_5 C20_5 1_555 1_555
H24_5 C20_5 1_555 1_555
H32_6 N3_6 1_555 1_555
C29_6 N3_6 1_555 1_555
H33_6 C29_6 1_555 1_555
H34_6 C29_6 1_555 1_555
C30_6 C29_6 1_555 1_555
H35_6 C30_6 1_555 1_555
H36_6 C30_6 1_555 1_555
N4_5 C10_6 1_555 1_555
N6_6 O9_6 1_555 1_555
O14_6 N6_6 1_555 1_555
Tb3_5 O3_5 1_555 1_555
C5_5 C6_5 1_555 1_555
C15_5 C16_5 1_555 1_555
C20_5 N4_5 1_555 1_555
C30_6 N4_5 1_555 1_555
Tb1_6 O1_5 1_555 1_555
C3_5 H1_5 1_555 1_555
C4_5 C3_5 1_555 1_555
H2_5 C4_5 1_555 1_555
H4_5 C7_5 1_555 1_555
H5_5 C7_5 1_555 1_555
H6_5 C7_5 1_555 1_555
C21_5 C22_6 1_555 1_555
C22_6 C23_6 1_555 1_555
C23_6 H25_6 1_555 1_555
C24_6 C23_6 1_555 1_555
H26_6 C24_6 1_555 1_555
C25_5 C24_6 1_555 1_555
C26_5 C21_5 1_555 1_555
H27_5 C26_5 1_555 1_555
O6_5 C25_5 1_555 1_555
C27_5 O6_5 1_555 1_555
H28_5 C27_5 1_555 1_555
H29_5 C27_5 1_555 1_555
H30_5 C27_5 1_555 1_555
C28_6 C21_5 1_555 1_555
H31_6 C28_6 1_555 1_555
N5_6 O7_6 1_555 1_555
O7_6 Tb1_6 1_555 1_555
O8_6 Tb1_6 1_555 1_555
O10_6 Tb1_6 1_555 1_555
N7_6 O11_6 1_555 1_555
O11_6 Tb1_6 1_555 1_555
O12_6 Tb1_6 1_555 1_555
O13_6 N5_6 1_555 1_555
O15_6 N7_6 1_555 1_555
O16_6 Tb1_6 1_555 1_555
O17_6 Tb1_6 1_555 1_555
C25_5 C26_5 1_555 1_555
N5_6 O8_6 1_555 1_555
N7_6 O12_6 1_555 1_555
H8_6 N1_6 1_555 1_555
C9_6 N1_6 1_555 1_555
H9_6 C9_6 1_555 1_555
H10_6 C9_6 1_555 1_555
C10_7 C9_6 1_555 1_555
H11_7 C10_7 1_555 1_555
H12_7 C10_7 1_555 1_555
H20_6 N2_6 1_555 1_555
C19_6 N2_6 1_555 1_555
H21_6 C19_6 1_555 1_555
H22_6 C19_6 1_555 1_555
C20_6 C19_6 1_555 1_555
H23_6 C20_6 1_555 1_555
H24_6 C20_6 1_555 1_555
H32_7 N3_7 1_555 1_555
C29_7 N3_7 1_555 1_555
H33_7 C29_7 1_555 1_555
H34_7 C29_7 1_555 1_555
C30_7 C29_7 1_555 1_555
H35_7 C30_7 1_555 1_555
H36_7 C30_7 1_555 1_555
N4_6 C10_7 1_555 1_555
N6_7 O9_7 1_555 1_555
O14_7 N6_7 1_555 1_555
Tb3_6 O3_6 1_555 1_555
C20_6 N4_6 1_555 1_555
C30_7 N4_6 1_555 1_555
N6_7 O10_7 1_555 1_555
H8_7 N1_7 1_555 1_555
C9_7 N1_7 1_555 1_555
H9_7 C9_7 1_555 1_555
H10_7 C9_7 1_555 1_555
C10_8 C9_7 1_555 1_555
H11_8 C10_8 1_555 1_555
H12_8 C10_8 1_555 1_555
H20_7 N2_7 1_555 1_555
C19_7 N2_7 1_555 1_555
H21_7 C19_7 1_555 1_555
H22_7 C19_7 1_555 1_555
C20_7 C19_7 1_555 1_555
H23_7 C20_7 1_555 1_555
H24_7 C20_7 1_555 1_555
H32_8 N3_8 1_555 1_555
C29_8 N3_8 1_555 1_555
H33_8 C29_8 1_555 1_555
H34_8 C29_8 1_555 1_555
C30_8 C29_8 1_555 1_555
H35_8 C30_8 1_555 1_555
H36_8 C30_8 1_555 1_555
N4_7 C10_8 1_555 1_555
N6_8 O9_8 1_555 1_555
O14_8 N6_8 1_555 1_555
Tb3_7 O3_7 1_555 1_555
C20_7 N4_7 1_555 1_555
C30_8 N4_7 1_555 1_555
N6_8 O10_8 1_555 1_555
Tb2_2 O1_6 1_555 1_555
O1_6 C2_6 1_555 1_555
C1_6 C2_6 1_555 1_555
C2_6 C3_6 1_555 1_555
C3_6 H1_6 1_555 1_555
C4_6 C3_6 1_555 1_555
H2_6 C4_6 1_555 1_555
C5_6 C4_6 1_555 1_555
C6_6 C1_6 1_555 1_555
H3_6 C6_6 1_555 1_555
O2_6 C5_6 1_555 1_555
C7_6 O2_6 1_555 1_555
H4_6 C7_6 1_555 1_555
H5_6 C7_6 1_555 1_555
H6_6 C7_6 1_555 1_555
C8_6 C1_6 1_555 1_555
H7_6 C8_6 1_555 1_555
C11_6 C12_6 1_555 1_555
C12_6 C13_6 1_555 1_555
C13_6 H13_6 1_555 1_555
C14_6 C13_6 1_555 1_555
H14_4 C14_6 1_555 1_555
C15_6 C14_6 1_555 1_555
C16_6 C11_6 1_555 1_555
H15_6 C16_6 1_555 1_555
O4_7 C15_6 1_555 1_555
C17_7 O4_7 1_555 1_555
H16_7 C17_7 1_555 1_555
H17_7 C17_7 1_555 1_555
H18_6 C17_7 1_555 1_555
C18_6 C11_6 1_555 1_555
H19_6 C18_6 1_555 1_555
C21_6 C22_7 1_555 1_555
C22_7 C23_7 1_555 1_555
C23_7 H25_7 1_555 1_555
C24_7 C23_7 1_555 1_555
H26_7 C24_7 1_555 1_555
C25_6 C24_7 1_555 1_555
C26_6 C21_6 1_555 1_555
H27_6 C26_6 1_555 1_555
O6_6 C25_6 1_555 1_555
C27_6 O6_6 1_555 1_555
H28_6 C27_6 1_555 1_555
H29_6 C27_6 1_555 1_555
H30_6 C27_6 1_555 1_555
C28_7 C21_6 1_555 1_555
H31_7 C28_7 1_555 1_555
N5_7 O7_7 1_555 1_555
O7_7 Tb2_2 1_555 1_555
O8_7 Tb2_2 1_555 1_555
O12_7 Tb2_2 1_555 1_555
O13_7 N5_7 1_555 1_555
O16_7 Tb2_2 1_555 1_555
C5_6 C6_6 1_555 1_555
C15_6 C16_6 1_555 1_555
C25_6 C26_6 1_555 1_555
N5_7 O8_7 1_555 1_555
N7_7 O12_7 1_555 1_555
Tb2 O1_7 1_555 1_555
O1_7 C2_7 1_555 1_555
C1_7 C2_7 1_555 1_555
C2_7 C3_7 1_555 1_555
C3_7 H1_7 1_555 1_555
C4_7 C3_7 1_555 1_555
H2_7 C4_7 1_555 1_555
C5_7 C4_7 1_555 1_555
C6_7 C1_7 1_555 1_555
H3_7 C6_7 1_555 1_555
O2_7 C5_7 1_555 1_555
C7_7 O2_7 1_555 1_555
H4_7 C7_7 1_555 1_555
H5_7 C7_7 1_555 1_555
H6_7 C7_7 1_555 1_555
C8_7 C1_7 1_555 1_555
H7_7 C8_7 1_555 1_555
N1_8 C8_7 1_555 1_555
H8_8 N1_8 1_555 1_555
C9_8 N1_8 1_555 1_555
H9_8 C9_8 1_555 1_555
H10_8 C9_8 1_555 1_555
C10_9 C9_8 1_555 1_555
H11_9 C10_9 1_555 1_555
H12_9 C10_9 1_555 1_555
O3_8 C12_7 1_555 1_555
C11_7 C12_7 1_555 1_555
C12_7 C13_7 1_555 1_555
C13_7 H13_7 1_555 1_555
C14_7 C13_7 1_555 1_555
H14_5 C14_7 1_555 1_555
C15_7 C14_7 1_555 1_555
C16_7 C11_7 1_555 1_555
H15_7 C16_7 1_555 1_555
O4_8 C15_7 1_555 1_555
C17_8 O4_8 1_555 1_555
H16_8 C17_8 1_555 1_555
H17_8 C17_8 1_555 1_555
H18_7 C17_8 1_555 1_555
C18_7 C11_7 1_555 1_555
H19_7 C18_7 1_555 1_555
N2_8 C18_7 1_555 1_555
H20_8 N2_8 1_555 1_555
C19_8 N2_8 1_555 1_555
H21_8 C19_8 1_555 1_555
H22_8 C19_8 1_555 1_555
C20_8 C19_8 1_555 1_555
H23_8 C20_8 1_555 1_555
H24_8 C20_8 1_555 1_555
O17_5 C22_8 1_555 1_555
C21_7 C22_8 1_555 1_555
C22_8 C23_8 1_555 1_555
C23_8 H25_8 1_555 1_555
C24_8 C23_8 1_555 1_555
H26_8 C24_8 1_555 1_555
C25_7 C24_8 1_555 1_555
C26_7 C21_7 1_555 1_555
H27_7 C26_7 1_555 1_555
O6_7 C25_7 1_555 1_555
C27_7 O6_7 1_555 1_555
H28_7 C27_7 1_555 1_555
H29_7 C27_7 1_555 1_555
H30_7 C27_7 1_555 1_555
C28_8 C21_7 1_555 1_555
H31_8 C28_8 1_555 1_555
N3_9 C28_8 1_555 1_555
H32_9 N3_9 1_555 1_555
C29_9 N3_9 1_555 1_555
H33_9 C29_9 1_555 1_555
H34_9 C29_9 1_555 1_555
C30_9 C29_9 1_555 1_555
H35_9 C30_9 1_555 1_555
H36_9 C30_9 1_555 1_555
N4_8 C10_9 1_555 1_555
N5_8 O7_8 1_555 1_555
O7_8 Tb2 1_555 1_555
O8_8 Tb2 1_555 1_555
N6_9 O9_9 1_555 1_555
O9_9 Tb2 1_555 1_555
O10_9 Tb2 1_555 1_555
N7_8 O11_9 1_555 1_555
O11_9 Tb2 1_555 1_555
O12_8 Tb2 1_555 1_555
O13_8 N5_8 1_555 1_555
O14_9 N6_9 1_555 1_555
O15_9 N7_8 1_555 1_555
Tb3_8 O3_8 1_555 1_555
O16_8 Tb2 1_555 1_555
C5_7 C6_7 1_555 1_555
C15_7 C16_7 1_555 1_555
C20_8 N4_8 1_555 1_555
C25_7 C26_7 1_555 1_555
C30_9 N4_8 1_555 1_555
N5_8 O8_8 1_555 1_555
N6_9 O10_9 1_555 1_555
N7_8 O12_8 1_555 1_555
C17_9 O4_9 1_555 1_555
H16_9 C17_9 1_555 1_555
H17_9 C17_9 1_555 1_555
O5_4 C22_9 1_555 1_555
C22_9 C23_9 1_555 1_555
C23_9 H25_9 1_555 1_555
C24_9 C23_9 1_555 1_555
H26_9 C24_9 1_555 1_555
Tb3_2 O5_4 1_555 1_555
Tb3_8 O1_8 1_555 1_555
O1_8 C2_8 1_555 1_555
C1_8 C2_8 1_555 1_555
C2_8 C3_8 1_555 1_555
C3_8 H1_8 1_555 1_555
C4_8 C3_8 1_555 1_555
H2_8 C4_8 1_555 1_555
C5_8 C4_8 1_555 1_555
C6_8 C1_8 1_555 1_555
H3_8 C6_8 1_555 1_555
O2_8 C5_8 1_555 1_555
C7_8 O2_8 1_555 1_555
H4_8 C7_8 1_555 1_555
H5_8 C7_8 1_555 1_555
H6_8 C7_8 1_555 1_555
C8_8 C1_8 1_555 1_555
H7_8 C8_8 1_555 1_555
N1_9 C8_8 1_555 1_555
H8_9 N1_9 1_555 1_555
C9_9 N1_9 1_555 1_555
H9_9 C9_9 1_555 1_555
H10_9 C9_9 1_555 1_555
C10_10 C9_9 1_555 1_555
H11_10 C10_10 1_555 1_555
H12_10 C10_10 1_555 1_555
O16_7 C12_8 1_555 1_555
C11_8 C12_8 1_555 1_555
C12_8 C13_8 1_555 1_555
C13_8 H13_8 1_555 1_555
C14_8 C13_8 1_555 1_555
H14_6 C14_8 1_555 1_555
C15_8 C14_8 1_555 1_555
C16_8 C11_8 1_555 1_555
H15_8 C16_8 1_555 1_555
C18_8 C11_8 1_555 1_555
H19_8 C18_8 1_555 1_555
N2_9 C18_8 1_555 1_555
H20_9 N2_9 1_555 1_555
C19_9 N2_9 1_555 1_555
H21_9 C19_9 1_555 1_555
H22_9 C19_9 1_555 1_555
C20_9 C19_9 1_555 1_555
H23_9 C20_9 1_555 1_555
H24_9 C20_9 1_555 1_555
C26_8 C21_8 1_555 1_555
H27_8 C26_8 1_555 1_555
O6_8 C25_8 1_555 1_555
C27_8 O6_8 1_555 1_555
H28_8 C27_8 1_555 1_555
H29_8 C27_8 1_555 1_555
H30_8 C27_8 1_555 1_555
C28_9 C21_8 1_555 1_555
H31_9 C28_9 1_555 1_555
N3_10 C28_9 1_555 1_555
H32_10 N3_10 1_555 1_555
C29_10 N3_10 1_555 1_555
H33_10 C29_10 1_555 1_555
H34_10 C29_10 1_555 1_555
C30_10 C29_10 1_555 1_555
H35_10 C30_10 1_555 1_555
H36_10 C30_10 1_555 1_555
N4_9 C10_10 1_555 1_555
N5_9 O7_9 1_555 1_555
O7_9 Tb3_8 1_555 1_555
O8_9 Tb3_8 1_555 1_555
N6_10 O9_10 1_555 1_555
O9_10 Tb3_8 1_555 1_555
O10_10 Tb3_8 1_555 1_555
N7_9 O11_10 1_555 1_555
O11_10 Tb3_8 1_555 1_555
O12_9 Tb3_8 1_555 1_555
O13_9 N5_9 1_555 1_555
O14_10 N6_10 1_555 1_555
O15_10 N7_9 1_555 1_555
O17_7 Tb3_8 1_555 1_555
C5_8 C6_8 1_555 1_555
C15_8 C16_8 1_555 1_555
C20_9 N4_9 1_555 1_555
C25_8 C26_8 1_555 1_555
C30_10 N4_9 1_555 1_555
N5_9 O8_9 1_555 1_555
N6_10 O10_10 1_555 1_555
N7_9 O12_9 1_555 1_555
C17_10 O4_10 1_555 1_555
H16_10 C17_10 1_555 1_555
H17_10 C17_10 1_555 1_555
O5_5 C22_10 1_555 1_555
C22_10 C23_10 1_555 1_555
C23_10 H25_10 1_555 1_555
C24_10 C23_10 1_555 1_555
H26_10 C24_10 1_555 1_555
O1_9 C2_9 1_555 1_555
C1_9 C2_9 1_555 1_555
C2_9 C3_9 1_555 1_555
C3_9 H1_9 1_555 1_555
C4_9 C3_9 1_555 1_555
H2_9 C4_9 1_555 1_555
C5_9 C4_9 1_555 1_555
C6_9 C1_9 1_555 1_555
H3_9 C6_9 1_555 1_555
O2_9 C5_9 1_555 1_555
C7_9 O2_9 1_555 1_555
H4_9 C7_9 1_555 1_555
H5_9 C7_9 1_555 1_555
H6_9 C7_9 1_555 1_555
C8_9 C1_9 1_555 1_555
H7_9 C8_9 1_555 1_555
N1_10 C8_9 1_555 1_555
H8_10 N1_10 1_555 1_555
C9_10 N1_10 1_555 1_555
H9_10 C9_10 1_555 1_555
H10_10 C9_10 1_555 1_555
O16_8 C12_9 1_555 1_555
C11_9 C12_9 1_555 1_555
C12_9 C13_9 1_555 1_555
C13_9 H13_9 1_555 1_555
C14_9 C13_9 1_555 1_555
H14_7 C14_9 1_555 1_555
C15_9 C14_9 1_555 1_555
C16_9 C11_9 1_555 1_555
H15_9 C16_9 1_555 1_555
C18_9 C11_9 1_555 1_555
H19_9 C18_9 1_555 1_555
N2_10 C18_9 1_555 1_555
H20_10 N2_10 1_555 1_555
C19_10 N2_10 1_555 1_555
H21_10 C19_10 1_555 1_555
H22_10 C19_10 1_555 1_555
C20_10 C19_10 1_555 1_555
H23_10 C20_10 1_555 1_555
H24_10 C20_10 1_555 1_555
C26_9 C21_9 1_555 1_555
H27_9 C26_9 1_555 1_555
O6_9 C25_9 1_555 1_555
C27_9 O6_9 1_555 1_555
H28_9 C27_9 1_555 1_555
H29_9 C27_9 1_555 1_555
H30_9 C27_9 1_555 1_555
C5_9 C6_9 1_555 1_555
C15_9 C16_9 1_555 1_555
C20_10 N4_10 1_555 1_555
C25_9 C26_9 1_555 1_555
H11_11 C10_11 1_555 1_555
H12_11 C10_11 1_555 1_555
H31_10 C28_10 1_555 1_555
N3_11 C28_10 1_555 1_555
H32_11 N3_11 1_555 1_555
C29_11 N3_11 1_555 1_555
H33_11 C29_11 1_555 1_555
H34_11 C29_11 1_555 1_555
C30_11 C29_11 1_555 1_555
H35_11 C30_11 1_555 1_555
H36_11 C30_11 1_555 1_555
N5_10 O7_10 1_555 1_555
O7_10 Tb3_6 1_555 1_555
O8_10 Tb3_6 1_555 1_555
N6_11 O9_11 1_555 1_555
O9_11 Tb3_6 1_555 1_555
O10_11 Tb3_6 1_555 1_555
N7_10 O11_11 1_555 1_555
O11_11 Tb3_6 1_555 1_555
O12_10 Tb3_6 1_555 1_555
O13_10 N5_10 1_555 1_555
O14_11 N6_11 1_555 1_555
O15_11 N7_10 1_555 1_555
O17_8 Tb3_6 1_555 1_555
N5_10 O8_10 1_555 1_555
N6_11 O10_11 1_555 1_555
N7_10 O12_10 1_555 1_555
H11_12 C10_12 1_555 1_555
H12_12 C10_12 1_555 1_555
H31_11 C28_11 1_555 1_555
N3_12 C28_11 1_555 1_555
H32_12 N3_12 1_555 1_555
C29_12 N3_12 1_555 1_555
H33_12 C29_12 1_555 1_555
H34_12 C29_12 1_555 1_555
C30_12 C29_12 1_555 1_555
H35_12 C30_12 1_555 1_555
H36_12 C30_12 1_555 1_555
N5_11 O7_11 1_555 1_555
O7_11 Tb3_7 1_555 1_555
O8_11 Tb3_7 1_555 1_555
N6_12 O9_12 1_555 1_555
O9_12 Tb3_7 1_555 1_555
O10_12 Tb3_7 1_555 1_555
N7_11 O11_12 1_555 1_555
O11_12 Tb3_7 1_555 1_555
O12_11 Tb3_7 1_555 1_555
O13_11 N5_11 1_555 1_555
O14_12 N6_12 1_555 1_555
O15_12 N7_11 1_555 1_555
O17_9 Tb3_7 1_555 1_555
N5_11 O8_11 1_555 1_555
N6_12 O10_12 1_555 1_555
N7_11 O12_11 1_555 1_555
C17_11 O4_11 1_555 1_555
H16_11 C17_11 1_555 1_555
H17_11 C17_11 1_555 1_555
O5_6 C22_11 1_555 1_555
C22_11 C23_11 1_555 1_555
C23_11 H25_11 1_555 1_555
C24_11 C23_11 1_555 1_555
H26_11 C24_11 1_555 1_555
C1_10 C2_10 1_555 1_555
C6_10 C1_10 1_555 1_555
H3_10 C6_10 1_555 1_555
O2_10 C5_10 1_555 1_555
C8_10 C1_10 1_555 1_555
H7_10 C8_10 1_555 1_555
N1_11 C8_10 1_555 1_555
H8_11 N1_11 1_555 1_555
C9_11 N1_11 1_555 1_555
H9_11 C9_11 1_555 1_555
H10_11 C9_11 1_555 1_555
C10_13 C9_11 1_555 1_555
H11_13 C10_13 1_555 1_555
H12_13 C10_13 1_555 1_555
O16_5 C12_10 1_555 1_555
C11_10 C12_10 1_555 1_555
C12_10 C13_10 1_555 1_555
C13_10 H13_10 1_555 1_555
C14_10 C13_10 1_555 1_555
H14_8 C14_10 1_555 1_555
C15_10 C14_10 1_555 1_555
C16_10 C11_10 1_555 1_555
H15_10 C16_10 1_555 1_555
O4_12 C15_10 1_555 1_555
C17_12 O4_12 1_555 1_555
H16_12 C17_12 1_555 1_555
C18_10 C11_10 1_555 1_555
H19_10 C18_10 1_555 1_555
N2_11 C18_10 1_555 1_555
H20_11 N2_11 1_555 1_555
C19_11 N2_11 1_555 1_555
H21_11 C19_11 1_555 1_555
H22_11 C19_11 1_555 1_555
C20_11 C19_11 1_555 1_555
H23_11 C20_11 1_555 1_555
H24_11 C20_11 1_555 1_555
H32_13 N3_13 1_555 1_555
C29_13 N3_13 1_555 1_555
H33_13 C29_13 1_555 1_555
H34_13 C29_13 1_555 1_555
C30_13 C29_13 1_555 1_555
H35_13 C30_13 1_555 1_555
H36_13 C30_13 1_555 1_555
N4_11 C10_13 1_555 1_555
N6_13 O9_13 1_555 1_555
O14_13 N6_13 1_555 1_555
C5_10 C6_10 1_555 1_555
C15_10 C16_10 1_555 1_555
C20_11 N4_11 1_555 1_555
C30_13 N4_11 1_555 1_555
Tb3_5 O1_10 1_555 1_555
C3_10 H1_10 1_555 1_555
C4_10 C3_10 1_555 1_555
H2_10 C4_10 1_555 1_555
H4_10 C7_10 1_555 1_555
H5_10 C7_10 1_555 1_555
H6_10 C7_10 1_555 1_555
C21_10 C22_12 1_555 1_555
C22_12 C23_12 1_555 1_555
C23_12 H25_12 1_555 1_555
C24_12 C23_12 1_555 1_555
H26_12 C24_12 1_555 1_555
C25_10 C24_12 1_555 1_555
C26_10 C21_10 1_555 1_555
H27_10 C26_10 1_555 1_555
O6_10 C25_10 1_555 1_555
C27_10 O6_10 1_555 1_555
H28_10 C27_10 1_555 1_555
H29_10 C27_10 1_555 1_555
H30_10 C27_10 1_555 1_555
C28_12 C21_10 1_555 1_555
H31_12 C28_12 1_555 1_555
N5_12 O7_12 1_555 1_555
O7_12 Tb3_5 1_555 1_555
O8_12 Tb3_5 1_555 1_555
O10_13 Tb3_5 1_555 1_555
N7_12 O11_13 1_555 1_555
O11_13 Tb3_5 1_555 1_555
O12_12 Tb3_5 1_555 1_555
O13_12 N5_12 1_555 1_555
O15_13 N7_12 1_555 1_555
O17_10 Tb3_5 1_555 1_555
C25_10 C26_10 1_555 1_555
N5_12 O8_12 1_555 1_555
N7_12 O12_12 1_555 1_555
Tb3_3 O1_11 1_555 1_555
O1_11 C2_11 1_555 1_555
C1_11 C2_11 1_555 1_555
C2_11 C3_11 1_555 1_555
C3_11 H1_11 1_555 1_555
C4_11 C3_11 1_555 1_555
H2_11 C4_11 1_555 1_555
C5_11 C4_11 1_555 1_555
C6_11 C1_11 1_555 1_555
H3_11 C6_11 1_555 1_555
O2_11 C5_11 1_555 1_555
C7_11 O2_11 1_555 1_555
H4_11 C7_11 1_555 1_555
H5_11 C7_11 1_555 1_555
H6_11 C7_11 1_555 1_555
C8_11 C1_11 1_555 1_555
H7_11 C8_11 1_555 1_555
N1_12 C8_11 1_555 1_555
H8_12 N1_12 1_555 1_555
C9_12 N1_12 1_555 1_555
H9_12 C9_12 1_555 1_555
H10_12 C9_12 1_555 1_555
C10_14 C9_12 1_555 1_555
H11_14 C10_14 1_555 1_555
H12_14 C10_14 1_555 1_555
O16_6 C12_11 1_555 1_555
C11_11 C12_11 1_555 1_555
C12_11 C13_11 1_555 1_555
C13_11 H13_11 1_555 1_555
C14_11 C13_11 1_555 1_555
C15_11 C14_11 1_555 1_555
C16_11 C11_11 1_555 1_555
H15_11 C16_11 1_555 1_555
O4_13 C15_11 1_555 1_555
C17_13 O4_13 1_555 1_555
H16_13 C17_13 1_555 1_555
H17_13 C17_13 1_555 1_555
H18_11 C17_13 1_555 1_555
C18_11 C11_11 1_555 1_555
H19_11 C18_11 1_555 1_555
N2_12 C18_11 1_555 1_555
H20_12 N2_12 1_555 1_555
C19_12 N2_12 1_555 1_555
H21_12 C19_12 1_555 1_555
H22_12 C19_12 1_555 1_555
C20_12 C19_12 1_555 1_555
H23_12 C20_12 1_555 1_555
H24_12 C20_12 1_555 1_555
O17_7 C22_13 1_555 1_555
C21_11 C22_13 1_555 1_555
C22_13 C23_13 1_555 1_555
C23_13 H25_13 1_555 1_555
C24_13 C23_13 1_555 1_555
H26_13 C24_13 1_555 1_555
C25_11 C24_13 1_555 1_555
C26_11 C21_11 1_555 1_555
H27_11 C26_11 1_555 1_555
O6_11 C25_11 1_555 1_555
C27_11 O6_11 1_555 1_555
H28_11 C27_11 1_555 1_555
H29_11 C27_11 1_555 1_555
H30_11 C27_11 1_555 1_555
C28_13 C21_11 1_555 1_555
H31_13 C28_13 1_555 1_555
N3_14 C28_13 1_555 1_555
H32_14 N3_14 1_555 1_555
C29_14 N3_14 1_555 1_555
H33_14 C29_14 1_555 1_555
H34_14 C29_14 1_555 1_555
C30_14 C29_14 1_555 1_555
H35_14 C30_14 1_555 1_555
H36_14 C30_14 1_555 1_555
N4_12 C10_14 1_555 1_555
N5_13 O7_13 1_555 1_555
O7_13 Tb3_3 1_555 1_555
O8_13 Tb3_3 1_555 1_555
N6_14 O9_14 1_555 1_555
O9_14 Tb3_3 1_555 1_555
O10_14 Tb3_3 1_555 1_555
N7_13 O11_14 1_555 1_555
O11_14 Tb3_3 1_555 1_555
O12_13 Tb3_3 1_555 1_555
O13_13 N5_13 1_555 1_555
O14_14 N6_14 1_555 1_555
O15_14 N7_13 1_555 1_555
O17_11 Tb3_3 1_555 1_555
C5_11 C6_11 1_555 1_555
C15_11 C16_11 1_555 1_555
C20_12 N4_12 1_555 1_555
C25_11 C26_11 1_555 1_555
C30_14 N4_12 1_555 1_555
N5_13 O8_13 1_555 1_555
N6_14 O10_14 1_555 1_555
N7_13 O12_13 1_555 1_555
Tb3_4 O1_12 1_555 1_555
C3_12 H1_12 1_555 1_555
C4_12 C3_12 1_555 1_555
H2_12 C4_12 1_555 1_555
H4_12 C7_12 1_555 1_555
H5_12 C7_12 1_555 1_555
H6_12 C7_12 1_555 1_555
C21_12 C22_14 1_555 1_555
C22_14 C23_14 1_555 1_555
C23_14 H25_14 1_555 1_555
C24_14 C23_14 1_555 1_555
H26_14 C24_14 1_555 1_555
C25_12 C24_14 1_555 1_555
C26_12 C21_12 1_555 1_555
H27_12 C26_12 1_555 1_555
O6_12 C25_12 1_555 1_555
C27_12 O6_12 1_555 1_555
H28_12 C27_12 1_555 1_555
H29_12 C27_12 1_555 1_555
H30_12 C27_12 1_555 1_555
C28_14 C21_12 1_555 1_555
H31_14 C28_14 1_555 1_555
N5_14 O7_14 1_555 1_555
O7_14 Tb3_4 1_555 1_555
O8_14 Tb3_4 1_555 1_555
O10_15 Tb3_4 1_555 1_555
N7_14 O11_15 1_555 1_555
O11_15 Tb3_4 1_555 1_555
O12_14 Tb3_4 1_555 1_555
O13_14 N5_14 1_555 1_555
O15_15 N7_14 1_555 1_555
O17_12 Tb3_4 1_555 1_555
C25_12 C26_12 1_555 1_555
N5_14 O8_14 1_555 1_555
N7_14 O12_14 1_555 1_555
C1_12 C2_12 1_555 1_555
C6_12 C1_12 1_555 1_555
H3_12 C6_12 1_555 1_555
O2_12 C5_12 1_555 1_555
C8_12 C1_12 1_555 1_555
H7_12 C8_12 1_555 1_555
N1_13 C8_12 1_555 1_555
H8_13 N1_13 1_555 1_555
C9_13 N1_13 1_555 1_555
H9_13 C9_13 1_555 1_555
H10_13 C9_13 1_555 1_555
C10_15 C9_13 1_555 1_555
H11_15 C10_15 1_555 1_555
H12_15 C10_15 1_555 1_555
O16_4 C12_12 1_555 1_555
C11_12 C12_12 1_555 1_555
C12_12 C13_12 1_555 1_555
C13_12 H13_12 1_555 1_555
C14_12 C13_12 1_555 1_555
C15_12 C14_12 1_555 1_555
C16_12 C11_12 1_555 1_555
H15_12 C16_12 1_555 1_555
O4_14 C15_12 1_555 1_555
C17_14 O4_14 1_555 1_555
H16_14 C17_14 1_555 1_555
C18_12 C11_12 1_555 1_555
H19_12 C18_12 1_555 1_555
N2_13 C18_12 1_555 1_555
H20_13 N2_13 1_555 1_555
C19_13 N2_13 1_555 1_555
H21_13 C19_13 1_555 1_555
H22_13 C19_13 1_555 1_555
C20_13 C19_13 1_555 1_555
H23_13 C20_13 1_555 1_555
H24_13 C20_13 1_555 1_555
H32_15 N3_15 1_555 1_555
C29_15 N3_15 1_555 1_555
H33_15 C29_15 1_555 1_555
H34_15 C29_15 1_555 1_555
C30_15 C29_15 1_555 1_555
H35_15 C30_15 1_555 1_555
H36_15 C30_15 1_555 1_555
N4_13 C10_15 1_555 1_555
N6_15 O9_15 1_555 1_555
O14_15 N6_15 1_555 1_555
C5_12 C6_12 1_555 1_555
C15_12 C16_12 1_555 1_555
C20_13 N4_13 1_555 1_555
C30_15 N4_13 1_555 1_555
H8_14 N1_14 1_555 1_555
C9_14 N1_14 1_555 1_555
H9_14 C9_14 1_555 1_555
H10_14 C9_14 1_555 1_555
C10_16 C9_14 1_555 1_555
H11_16 C10_16 1_555 1_555
H12_16 C10_16 1_555 1_555
H20_14 N2_14 1_555 1_555
C19_14 N2_14 1_555 1_555
H21_14 C19_14 1_555 1_555
H22_14 C19_14 1_555 1_555
C20_14 C19_14 1_555 1_555
H23_14 C20_14 1_555 1_555
H24_14 C20_14 1_555 1_555
H32_16 N3_16 1_555 1_555
C29_16 N3_16 1_555 1_555
H33_16 C29_16 1_555 1_555
H34_16 C29_16 1_555 1_555
C30_16 C29_16 1_555 1_555
H35_16 C30_16 1_555 1_555
H36_16 C30_16 1_555 1_555
N4_14 C10_16 1_555 1_555
N6_16 O9_16 1_555 1_555
O14_16 N6_16 1_555 1_555
C20_14 N4_14 1_555 1_555
C30_16 N4_14 1_555 1_555
N6_16 O10_16 1_555 1_555
Tb3 O1_13 1_555 1_555
O1_13 C2_13 1_555 1_555
C1_13 C2_13 1_555 1_555
C2_13 C3_13 1_555 1_555
C3_13 H1_13 1_555 1_555
C4_13 C3_13 1_555 1_555
H2_13 C4_13 1_555 1_555
C5_13 C4_13 1_555 1_555
C6_13 C1_13 1_555 1_555
H3_13 C6_13 1_555 1_555
O2_13 C5_13 1_555 1_555
C7_13 O2_13 1_555 1_555
H4_13 C7_13 1_555 1_555
H5_13 C7_13 1_555 1_555
H6_13 C7_13 1_555 1_555
C8_13 C1_13 1_555 1_555
H7_13 C8_13 1_555 1_555
C11_13 C12_13 1_555 1_555
C12_13 C13_13 1_555 1_555
C13_13 H13_13 1_555 1_555
C14_13 C13_13 1_555 1_555
H14_9 C14_13 1_555 1_555
C15_13 C14_13 1_555 1_555
C16_13 C11_13 1_555 1_555
H15_13 C16_13 1_555 1_555
O4_15 C15_13 1_555 1_555
C17_15 O4_15 1_555 1_555
H16_15 C17_15 1_555 1_555
H17_15 C17_15 1_555 1_555
H18_13 C17_15 1_555 1_555
C18_13 C11_13 1_555 1_555
H19_13 C18_13 1_555 1_555
C21_13 C22_15 1_555 1_555
C22_15 C23_15 1_555 1_555
C23_15 H25_15 1_555 1_555
C24_15 C23_15 1_555 1_555
H26_15 C24_15 1_555 1_555
C25_13 C24_15 1_555 1_555
C26_13 C21_13 1_555 1_555
H27_13 C26_13 1_555 1_555
O6_13 C25_13 1_555 1_555
C27_13 O6_13 1_555 1_555
H28_13 C27_13 1_555 1_555
H29_13 C27_13 1_555 1_555
H30_13 C27_13 1_555 1_555
C28_15 C21_13 1_555 1_555
H31_15 C28_15 1_555 1_555
N5_15 O7_15 1_555 1_555
O7_15 Tb3 1_555 1_555
O8_15 Tb3 1_555 1_555
O12_15 Tb3 1_555 1_555
O13_15 N5_15 1_555 1_555
C5_13 C6_13 1_555 1_555
C15_13 C16_13 1_555 1_555
C25_13 C26_13 1_555 1_555
N5_15 O8_15 1_555 1_555
N7_15 O12_15 1_555 1_555
H8_15 N1_15 1_555 1_555
C9_15 N1_15 1_555 1_555
H9_15 C9_15 1_555 1_555
H10_15 C9_15 1_555 1_555
C10_17 C9_15 1_555 1_555
H11_17 C10_17 1_555 1_555
H12_17 C10_17 1_555 1_555
H20_15 N2_15 1_555 1_555
C19_15 N2_15 1_555 1_555
H21_15 C19_15 1_555 1_555
H22_15 C19_15 1_555 1_555
C20_15 C19_15 1_555 1_555
H23_15 C20_15 1_555 1_555
H24_15 C20_15 1_555 1_555
H32_17 N3_17 1_555 1_555
C29_17 N3_17 1_555 1_555
H33_17 C29_17 1_555 1_555
H34_17 C29_17 1_555 1_555
C30_17 C29_17 1_555 1_555
H35_17 C30_17 1_555 1_555
H36_17 C30_17 1_555 1_555
N4_15 C10_17 1_555 1_555
N6_17 O9_17 1_555 1_555
O14_17 N6_17 1_555 1_555
C20_15 N4_15 1_555 1_555
C30_17 N4_15 1_555 1_555
N6_17 O10_17 1_555 1_555
Tb3_2 O1_14 1_555 1_555
O1_14 C2_14 1_555 1_555
C1_14 C2_14 1_555 1_555
C2_14 C3_14 1_555 1_555
C3_14 H1_14 1_555 1_555
C4_14 C3_14 1_555 1_555
H2_14 C4_14 1_555 1_555
C5_14 C4_14 1_555 1_555
C6_14 C1_14 1_555 1_555
H3_14 C6_14 1_555 1_555
O2_14 C5_14 1_555 1_555
C7_14 O2_14 1_555 1_555
H4_14 C7_14 1_555 1_555
H5_14 C7_14 1_555 1_555
H6_14 C7_14 1_555 1_555
C8_14 C1_14 1_555 1_555
H7_14 C8_14 1_555 1_555
N1_16 C8_14 1_555 1_555
H8_16 N1_16 1_555 1_555
C9_16 N1_16 1_555 1_555
H9_16 C9_16 1_555 1_555
H10_16 C9_16 1_555 1_555
C10_18 C9_16 1_555 1_555
H11_18 C10_18 1_555 1_555
H12_18 C10_18 1_555 1_555
O16 C12_14 1_555 1_555
C11_14 C12_14 1_555 1_555
C12_14 C13_14 1_555 1_555
C13_14 H13_14 1_555 1_555
C14_14 C13_14 1_555 1_555
H14_10 C14_14 1_555 1_555
C15_14 C14_14 1_555 1_555
C16_14 C11_14 1_555 1_555
H15_14 C16_14 1_555 1_555
O4_16 C15_14 1_555 1_555
C17_16 O4_16 1_555 1_555
H16_16 C17_16 1_555 1_555
H17_16 C17_16 1_555 1_555
H18_14 C17_16 1_555 1_555
C18_14 C11_14 1_555 1_555
H19_14 C18_14 1_555 1_555
N2_16 C18_14 1_555 1_555
H20_16 N2_16 1_555 1_555
C19_16 N2_16 1_555 1_555
H21_16 C19_16 1_555 1_555
H22_16 C19_16 1_555 1_555
C20_16 C19_16 1_555 1_555
H23_16 C20_16 1_555 1_555
H24_16 C20_16 1_555 1_555
O17_11 C22_16 1_555 1_555
C21_14 C22_16 1_555 1_555
C22_16 C23_16 1_555 1_555
C23_16 H25_16 1_555 1_555
C24_16 C23_16 1_555 1_555
H26_16 C24_16 1_555 1_555
C25_14 C24_16 1_555 1_555
C26_14 C21_14 1_555 1_555
H27_14 C26_14 1_555 1_555
O6_14 C25_14 1_555 1_555
C27_14 O6_14 1_555 1_555
H28_14 C27_14 1_555 1_555
H29_14 C27_14 1_555 1_555
H30_14 C27_14 1_555 1_555
C28_16 C21_14 1_555 1_555
H31_16 C28_16 1_555 1_555
N3_18 C28_16 1_555 1_555
H32_18 N3_18 1_555 1_555
C29_18 N3_18 1_555 1_555
H33_18 C29_18 1_555 1_555
H34_18 C29_18 1_555 1_555
C30_18 C29_18 1_555 1_555
H35_18 C30_18 1_555 1_555
H36_18 C30_18 1_555 1_555
N4_16 C10_18 1_555 1_555
N5_16 O7_16 1_555 1_555
O7_16 Tb3_2 1_555 1_555
O8_16 Tb3_2 1_555 1_555
N6_18 O9_18 1_555 1_555
O9_18 Tb3_2 1_555 1_555
O10_18 Tb3_2 1_555 1_555
N7_16 O11_18 1_555 1_555
O11_18 Tb3_2 1_555 1_555
O12_16 Tb3_2 1_555 1_555
O13_16 N5_16 1_555 1_555
O14_18 N6_18 1_555 1_555
O15_18 N7_16 1_555 1_555
C5_14 C6_14 1_555 1_555
C15_14 C16_14 1_555 1_555
C20_16 N4_16 1_555 1_555
C25_14 C26_14 1_555 1_555
C30_18 N4_16 1_555 1_555
N5_16 O8_16 1_555 1_555
N6_18 O10_18 1_555 1_555
N7_16 O12_16 1_555 1_555
Tb2_3 O1_15 1_555 1_555
O1_15 C2_15 1_555 1_555
C1_15 C2_15 1_555 1_555
C2_15 C3_15 1_555 1_555
C3_15 H1_15 1_555 1_555
C4_15 C3_15 1_555 1_555
H2_15 C4_15 1_555 1_555
C5_15 C4_15 1_555 1_555
C6_15 C1_15 1_555 1_555
H3_15 C6_15 1_555 1_555
O2_15 C5_15 1_555 1_555
C7_15 O2_15 1_555 1_555
H4_15 C7_15 1_555 1_555
H5_15 C7_15 1_555 1_555
H6_15 C7_15 1_555 1_555
C8_15 C1_15 1_555 1_555
H7_15 C8_15 1_555 1_555
C11_15 C12_15 1_555 1_555
C12_15 C13_15 1_555 1_555
C13_15 H13_15 1_555 1_555
C14_15 C13_15 1_555 1_555
H14_11 C14_15 1_555 1_555
C15_15 C14_15 1_555 1_555
C16_15 C11_15 1_555 1_555
H15_15 C16_15 1_555 1_555
O4_17 C15_15 1_555 1_555
C17_17 O4_17 1_555 1_555
H16_17 C17_17 1_555 1_555
H17_17 C17_17 1_555 1_555
H18_15 C17_17 1_555 1_555
C18_15 C11_15 1_555 1_555
H19_15 C18_15 1_555 1_555
C21_15 C22_17 1_555 1_555
C22_17 C23_17 1_555 1_555
C23_17 H25_17 1_555 1_555
C24_17 C23_17 1_555 1_555
H26_17 C24_17 1_555 1_555
C25_15 C24_17 1_555 1_555
C26_15 C21_15 1_555 1_555
H27_15 C26_15 1_555 1_555
O6_15 C25_15 1_555 1_555
C27_15 O6_15 1_555 1_555
H28_15 C27_15 1_555 1_555
H29_15 C27_15 1_555 1_555
H30_15 C27_15 1_555 1_555
C28_17 C21_15 1_555 1_555
H31_17 C28_17 1_555 1_555
N5_17 O7_17 1_555 1_555
O7_17 Tb2_3 1_555 1_555
O8_17 Tb2_3 1_555 1_555
O12_17 Tb2_3 1_555 1_555
O13_17 N5_17 1_555 1_555
O16_9 Tb2_3 1_555 1_555
C5_15 C6_15 1_555 1_555
C15_15 C16_15 1_555 1_555
C25_15 C26_15 1_555 1_555
N5_17 O8_17 1_555 1_555
N7_17 O12_17 1_555 1_555
O1_16 C2_16 1_555 1_555
C1_16 C2_16 1_555 1_555
C2_16 C3_16 1_555 1_555
C3_16 H1_16 1_555 1_555
C4_16 C3_16 1_555 1_555
H2_16 C4_16 1_555 1_555
C5_16 C4_16 1_555 1_555
C6_16 C1_16 1_555 1_555
H3_16 C6_16 1_555 1_555
O2_16 C5_16 1_555 1_555
C7_16 O2_16 1_555 1_555
H4_16 C7_16 1_555 1_555
H5_16 C7_16 1_555 1_555
H6_16 C7_16 1_555 1_555
C8_16 C1_16 1_555 1_555
H7_16 C8_16 1_555 1_555
N1_17 C8_16 1_555 1_555
H8_17 N1_17 1_555 1_555
C9_17 N1_17 1_555 1_555
H9_17 C9_17 1_555 1_555
H10_17 C9_17 1_555 1_555
O16_9 C12_16 1_555 1_555
C11_16 C12_16 1_555 1_555
C12_16 C13_16 1_555 1_555
C13_16 H13_16 1_555 1_555
C14_16 C13_16 1_555 1_555
H14_12 C14_16 1_555 1_555
C15_16 C14_16 1_555 1_555
C16_16 C11_16 1_555 1_555
H15_16 C16_16 1_555 1_555
C18_16 C11_16 1_555 1_555
H19_16 C18_16 1_555 1_555
N2_17 C18_16 1_555 1_555
H20_17 N2_17 1_555 1_555
C19_17 N2_17 1_555 1_555
H21_17 C19_17 1_555 1_555
H22_17 C19_17 1_555 1_555
C20_17 C19_17 1_555 1_555
H23_17 C20_17 1_555 1_555
H24_17 C20_17 1_555 1_555
C26_16 C21_16 1_555 1_555
H27_16 C26_16 1_555 1_555
O6_16 C25_16 1_555 1_555
C27_16 O6_16 1_555 1_555
H28_16 C27_16 1_555 1_555
H29_16 C27_16 1_555 1_555
H30_16 C27_16 1_555 1_555
C5_16 C6_16 1_555 1_555
C15_16 C16_16 1_555 1_555
C20_17 N4_17 1_555 1_555
C25_16 C26_16 1_555 1_555
O1_17 C2_17 1_555 1_555
C1_17 C2_17 1_555 1_555
C2_17 C3_17 1_555 1_555
C3_17 H1_17 1_555 1_555
C4_17 C3_17 1_555 1_555
H2_17 C4_17 1_555 1_555
C5_17 C4_17 1_555 1_555
C6_17 C1_17 1_555 1_555
H3_17 C6_17 1_555 1_555
O2_17 C5_17 1_555 1_555
C7_17 O2_17 1_555 1_555
H4_17 C7_17 1_555 1_555
H5_17 C7_17 1_555 1_555
H6_17 C7_17 1_555 1_555
C8_17 C1_17 1_555 1_555
H7_17 C8_17 1_555 1_555
N1_18 C8_17 1_555 1_555
H8_18 N1_18 1_555 1_555
C9_18 N1_18 1_555 1_555
H9_18 C9_18 1_555 1_555
H10_18 C9_18 1_555 1_555
O3_9 C12_17 1_555 1_555
C11_17 C12_17 1_555 1_555
C12_17 C13_17 1_555 1_555
C13_17 H13_17 1_555 1_555
C14_17 C13_17 1_555 1_555
H14_13 C14_17 1_555 1_555
C15_17 C14_17 1_555 1_555
C16_17 C11_17 1_555 1_555
H15_17 C16_17 1_555 1_555
C18_17 C11_17 1_555 1_555
H19_17 C18_17 1_555 1_555
N2_18 C18_17 1_555 1_555
H20_18 N2_18 1_555 1_555
C19_18 N2_18 1_555 1_555
H21_18 C19_18 1_555 1_555
H22_18 C19_18 1_555 1_555
C20_18 C19_18 1_555 1_555
H23_18 C20_18 1_555 1_555
H24_18 C20_18 1_555 1_555
C26_17 C21_17 1_555 1_555
H27_17 C26_17 1_555 1_555
O6_17 C25_17 1_555 1_555
C27_17 O6_17 1_555 1_555
H28_17 C27_17 1_555 1_555
H29_17 C27_17 1_555 1_555
H30_17 C27_17 1_555 1_555
Tb3_9 O3_9 1_555 1_555
C5_17 C6_17 1_555 1_555
C15_17 C16_17 1_555 1_555
C20_18 N4_18 1_555 1_555
C25_17 C26_17 1_555 1_555
Tb3_9 O1_18 1_555 1_555
O1_18 C2_18 1_555 1_555
C1_18 C2_18 1_555 1_555
C2_18 C3_18 1_555 1_555
C3_18 H1_18 1_555 1_555
C4_18 C3_18 1_555 1_555
H2_18 C4_18 1_555 1_555
C5_18 C4_18 1_555 1_555
C6_18 C1_18 1_555 1_555
H3_18 C6_18 1_555 1_555
O2_18 C5_18 1_555 1_555
C7_18 O2_18 1_555 1_555
H4_18 C7_18 1_555 1_555
H5_18 C7_18 1_555 1_555
H6_18 C7_18 1_555 1_555
C8_18 C1_18 1_555 1_555
H7_18 C8_18 1_555 1_555
C11_18 C12_18 1_555 1_555
C12_18 C13_18 1_555 1_555
C13_18 H13_18 1_555 1_555
C14_18 C13_18 1_555 1_555
H14_14 C14_18 1_555 1_555
C15_18 C14_18 1_555 1_555
C16_18 C11_18 1_555 1_555
H15_18 C16_18 1_555 1_555
O4_18 C15_18 1_555 1_555
C17_18 O4_18 1_555 1_555
H16_18 C17_18 1_555 1_555
H17_18 C17_18 1_555 1_555
H18_18 C17_18 1_555 1_555
C18_18 C11_18 1_555 1_555
H19_18 C18_18 1_555 1_555
C21_18 C22_18 1_555 1_555
C22_18 C23_18 1_555 1_555
C23_18 H25_18 1_555 1_555
C24_18 C23_18 1_555 1_555
H26_18 C24_18 1_555 1_555
C25_18 C24_18 1_555 1_555
C26_18 C21_18 1_555 1_555
H27_18 C26_18 1_555 1_555
O6_18 C25_18 1_555 1_555
C27_18 O6_18 1_555 1_555
H28_18 C27_18 1_555 1_555
H29_18 C27_18 1_555 1_555
H30_18 C27_18 1_555 1_555
C28_18 C21_18 1_555 1_555
H31_18 C28_18 1_555 1_555
N5_18 O7_18 1_555 1_555
O7_18 Tb3_9 1_555 1_555
O8_18 Tb3_9 1_555 1_555
O12_18 Tb3_9 1_555 1_555
O13_18 N5_18 1_555 1_555
C5_18 C6_18 1_555 1_555
C15_18 C16_18 1_555 1_555
C25_18 C26_18 1_555 1_555
N5_18 O8_18 1_555 1_555
N7_18 O12_18 1_555 1_555

#END
