
###############################################################################
#
# This file contains modified crystal structure data generated from the
# MOF subset of the Cambridge Structural Database (CSD) v543 
# hosted by the Cambridge Crystallographic Data Centre (CCDC).
#
# This work is licensed under the Creative Commons
# Attribution-NonCommercial-ShareAlike 4.0 International License.
# To view a copy of this license, visit
# http://creativecommons.org/licenses/by-nc-sa/4.0/
# or send a letter to
# Creative Commons, PO Box 1866, Mountain View, CA 94042, USA.
#
# CIF created using the CSD Python API on 29 September 2022
# The structure has been converted into the P1 space group
# The structure has a 3D framework
# The original CSD entry JOQQAJ is in the monoclinic crystal system
# The framework has been calculated to contain at least 10.0% void space
# The void calculation uses a probe of radius 1.32A, grid spacing 0.4
# The framework is charged, counterions have been retained in the structure
#
###############################################################################

data_JOQQAJ
_chemical_formula_moiety         '(C200 H200 Co14 N16 O61)n'
_symmetry_cell_setting           triclinic
_symmetry_space_group_name_H-M   'P 1'
_symmetry_Int_Tables_number      1
_space_group_name_Hall           'P 1'
loop_
_symmetry_equiv_pos_site_id
_symmetry_equiv_pos_as_xyz
1 x,y,z
_cell_length_a                   33.093(3)
_cell_length_b                   9.6403(9)
_cell_length_c                   18.5130(19)
_cell_angle_alpha                90
_cell_angle_beta                 92.954(5)
_cell_angle_gamma                90
_cell_volume                     5898.29
loop_
_atom_site_label
_atom_site_type_symbol
_atom_site_fract_x
_atom_site_fract_y
_atom_site_fract_z
O9 O 0.29665(5) 0.09410(17) 0.49595(9)
Co6 Co 0.347940(10) 0.20438(3) 0.514195(18)
Co7 Co 0.2500 0.2500 0.5000
Co1 Co 0.152060(10) 0.29562(3) 0.485805(18)
O1 O 0.22613(5) 0.18137(17) 0.40192(9)
O2 O 0.20335(5) 0.40590(17) 0.50405(9)
O3 O 0.15867(5) 0.17542(19) 0.40142(9)
C1 C 0.22751(8) 0.6327(2) 0.48001(14)
C3 C 0.24738(8) 0.6409(3) 0.54838(13)
H1 H 0.2456 0.5657 0.5812
O6 O 0.10718(8) 0.4359(3) 0.49823(16)
C4 C 0.19248(8) 0.1514(3) 0.37459(13)
C5 C 0.20187(8) 0.5097(3) 0.45949(15)
C7 C 0.19147(8) 0.0774(3) 0.30308(14)
C8 C 0.23039(9) 0.7426(3) 0.43132(15)
H2 H 0.2172 0.7374 0.3846
C9 C 0.22474(8) 0.0632(3) 0.26541(15)
H3 H 0.2496 0.1003 0.2849
C11 C 0.15443(9) 0.0230(4) 0.27428(16)
H5 H 0.1305 0.0316 0.3002
O7 O 0.17895(6) 0.51083(19) 0.40386(11)
O8 O 0.07901(9) 0.2387(3) 0.47331(19)
C13 C 0.07818(10) 0.3636(4) 0.4886(2)
C14 C 0.03750(10) 0.4331(4) 0.4951(2)
C15 C 0.00338(13) 0.3641(6) 0.4749(3)
H7 H 0.0044 0.2714 0.4577
C16 C 0.03499(13) 0.5645(5) 0.5198(3)
H8 H 0.0592 0.6119 0.5344
C17 C 0.27249(8) 0.8673(2) 0.51999(14)
C18 C 0.25262(8) 0.8591(3) 0.45162(13)
H9 H 0.2544 0.9343 0.4188
C19 C 0.29813(8) 0.9903(3) 0.54051(15)
C20 C 0.26961(9) 0.7574(3) 0.56868(15)
H10 H 0.2828 0.7626 0.6154
O10 O 0.32105(6) 0.98917(19) 0.59614(11)
O17 O 0.27387(5) 0.31863(17) 0.59808(9)
O20 O 0.28377(5) 0.38315(17) 0.44055(9)
O21 O 0.21623(5) 0.11685(17) 0.55945(9)
O23 O 0.15388(5) 0.1900(2) 0.57809(10)
O4 O 0.21623(5) 0.88315(17) 0.05945(9)
O5 O 0.15388(5) 0.8100(2) 0.07809(10)
C2 C 0.18609(8) 0.8729(3) 0.09666(14)
C6 C 0.18774(8) 0.9423(3) 0.16957(14)
C10 C 0.22432(8) 0.9960(3) 0.19871(14)
H4 H 0.2485 0.9869 0.1735
C12 C 0.15345(9) 0.9573(4) 0.20815(17)
H6 H 0.1285 0.9215 0.1886
Co10 Co 0.2500 0.7500 0.0000
Co5 Co 0.152060(10) 0.70438(3) 0.985805(18)
Co10_2 Co 0.2500 0.7500 1.0000
Co4 Co 0.847940(10) 0.29562(3) 0.014195(18)
Co8 Co 0.7500 0.2500 0.0000
O15 O 0.78377(5) 0.11685(17) 0.94055(9)
O16 O 0.84612(5) 0.1900(2) 0.92191(10)
C25 C 0.81391(8) 0.1271(3) 0.90334(14)
C27 C 0.81226(8) 0.0577(3) 0.83043(14)
C30 C 0.77568(8) 0.0040(3) 0.80129(14)
H14 H 0.7515 0.0131 0.8265
C32 C 0.84655(9) 0.0427(4) 0.79185(17)
H16 H 0.8715 0.0785 0.8114
Co8_2 Co 0.7500 0.2500 1.0000
O11 O 0.89282(8) 0.5641(3) 0.50177(16)
O12 O 0.92099(9) 0.7613(3) 0.52669(19)
C21 C 0.92182(10) 0.6364(4) 0.5114(2)
C22 C 0.96250(10) 0.5669(4) 0.5049(2)
C23 C 0.99662(13) 0.6359(6) 0.5251(3)
H11 H 0.9956 0.7286 0.5423
C24 C 0.96501(13) 0.4355(5) 0.4802(3)
H12 H 0.9408 0.3881 0.4656
Co3 Co 0.847940(10) 0.70438(3) 0.514195(18)
O13 O 0.77387(5) 0.81863(17) 0.59808(9)
O14 O 0.84133(5) 0.82458(19) 0.59858(9)
C26 C 0.80752(8) 0.8486(3) 0.62541(13)
C28 C 0.80853(8) 0.9226(3) 0.69692(14)
C29 C 0.77526(8) 0.9368(3) 0.73459(15)
H13 H 0.7504 0.8997 0.7151
C31 C 0.84557(9) 0.9770(4) 0.72572(16)
H15 H 0.8695 0.9684 0.6998
Co9 Co 0.7500 0.7500 0.5000
O18 O 0.79665(5) 0.59410(17) 0.49595(9)
O22 O 0.84612(5) 0.8100(2) 0.42191(10)
C25_2 C 0.18609(8) 0.1271(3) 0.59666(14)
C27_2 C 0.18774(8) 0.0577(3) 0.66957(14)
C30_2 C 0.22432(8) 0.0040(3) 0.69871(14)
H14_2 H 0.2485 0.0131 0.6735
C32_2 C 0.15345(9) 0.0427(4) 0.70815(17)
H16_2 H 0.1285 0.0785 0.6886
C24_2 C 0.03499(13) 0.4355(5) 0.0198(3)
H12_2 H 0.0592 0.3881 0.0344
O18_2 O 0.20335(5) 0.59410(17) 0.00405(9)
O11_2 O 0.10718(8) 0.5641(3) 0.99823(16)
O12_2 O 0.07901(9) 0.7613(3) 0.97331(19)
C21_2 C 0.07818(10) 0.6364(4) 0.9886(2)
C22_2 C 0.03750(10) 0.5669(4) 0.9951(2)
C23_2 C 0.00338(13) 0.6359(6) 0.9749(3)
H11_2 H 0.0044 0.7286 0.9577
O13_2 O 0.22613(5) 0.81863(17) 0.90192(9)
O14_2 O 0.15867(5) 0.82458(19) 0.90142(9)
C26_2 C 0.19248(8) 0.8486(3) 0.87459(13)
C28_2 C 0.19147(8) 0.9226(3) 0.80308(14)
C29_2 C 0.22474(8) 0.9368(3) 0.76541(15)
H13_2 H 0.2496 0.8997 0.7849
C31_2 C 0.15443(9) 0.9770(4) 0.77428(16)
H15_2 H 0.1305 0.9684 0.8002
O9_2 O 0.70335(5) 0.09410(17) 0.00405(9)
Co6_2 Co 0.652060(10) 0.20438(3) 0.985805(18)
O1_2 O 0.77387(5) 0.18137(17) 0.09808(9)
O3_2 O 0.84133(5) 0.17542(19) 0.09858(9)
C1_2 C 0.77249(8) 0.6327(2) 0.01999(14)
O6_2 O 0.89282(8) 0.4359(3) 0.00177(16)
C4_2 C 0.80752(8) 0.1514(3) 0.12541(13)
C5_2 C 0.79813(8) 0.5097(3) 0.04051(15)
C7_2 C 0.80853(8) 0.0774(3) 0.19692(14)
C8_2 C 0.76961(9) 0.7426(3) 0.06868(15)
H2_2 H 0.7828 0.7374 0.1154
C9_2 C 0.77526(8) 0.0632(3) 0.23459(15)
H3_2 H 0.7504 0.1003 0.2151
C11_2 C 0.84557(9) 0.0230(4) 0.22572(16)
H5_2 H 0.8695 0.0316 0.1998
O7_2 O 0.82105(6) 0.51083(19) 0.09614(11)
O8_2 O 0.92099(9) 0.2387(3) 0.02669(19)
C13_2 C 0.92182(10) 0.3636(4) 0.0114(2)
C14_2 C 0.96250(10) 0.4331(4) 0.0049(2)
C15_2 C 0.99662(13) 0.3641(6) 0.0251(3)
H7_2 H 0.9956 0.2714 0.0423
C18_2 C 0.74738(8) 0.8591(3) 0.04838(13)
H9_2 H 0.7456 0.9343 0.0812
O20_2 O 0.71623(5) 0.38315(17) 0.05945(9)
O2_2 O 0.79665(5) 0.40590(17) 0.99595(9)
C3_2 C 0.75262(8) 0.6409(3) 0.95162(13)
H1_2 H 0.7544 0.5657 0.9188
C16_2 C 0.96501(13) 0.5645(5) 0.9802(3)
H8_2 H 0.9408 0.6119 0.9656
C17_2 C 0.72751(8) 0.8673(2) 0.98001(14)
C19_2 C 0.70187(8) 0.9903(3) 0.95949(15)
C20_2 C 0.73039(9) 0.7574(3) 0.93132(15)
H10_2 H 0.7172 0.7626 0.8846
O10_2 O 0.67895(6) 0.98917(19) 0.90386(11)
O17_2 O 0.72613(5) 0.31863(17) 0.90192(9)
O4_2 O 0.78377(5) 0.88315(17) 0.44055(9)
C2_2 C 0.81391(8) 0.8729(3) 0.40334(14)
C6_2 C 0.81226(8) 0.9423(3) 0.33043(14)
C10_2 C 0.77568(8) 0.9960(3) 0.30129(14)
H4_2 H 0.7515 0.9869 0.3265
C12_2 C 0.84655(9) 0.9573(4) 0.29185(17)
H6_2 H 0.8715 0.9215 0.3114
Co4_2 Co 0.347940(10) 0.79562(3) 0.014195(18)
C1_3 C 0.72751(8) 0.1327(2) 0.48001(14)
C3_3 C 0.74738(8) 0.1409(3) 0.54838(13)
H1_3 H 0.7456 0.0657 0.5812
C5_3 C 0.70187(8) 0.0097(3) 0.45949(15)
C8_3 C 0.73039(9) 0.2426(3) 0.43132(15)
H2_3 H 0.7172 0.2374 0.3846
O7_3 O 0.67895(6) 0.01083(19) 0.40386(11)
C16_3 C 0.53499(13) 0.0645(5) 0.5198(3)
H8_3 H 0.5592 0.1119 0.5344
C17_3 C 0.77249(8) 0.3673(2) 0.51999(14)
C18_3 C 0.75262(8) 0.3591(3) 0.45162(13)
H9_3 H 0.7544 0.4343 0.4188
C19_3 C 0.79813(8) 0.4903(3) 0.54051(15)
C20_3 C 0.76961(9) 0.2574(3) 0.56868(15)
H10_3 H 0.7828 0.2626 0.6154
O10_3 O 0.82105(6) 0.48917(19) 0.59614(11)
O11_3 O 0.39282(8) 0.0641(3) 0.50177(16)
O12_3 O 0.42099(9) 0.2613(3) 0.52669(19)
C21_3 C 0.42182(10) 0.1364(4) 0.5114(2)
C22_3 C 0.46250(10) 0.0669(4) 0.5049(2)
C23_3 C 0.49662(13) 0.1359(6) 0.5251(3)
H11_3 H 0.4956 0.2286 0.5423
O14_3 O 0.34133(5) 0.32458(19) 0.59858(9)
O15_2 O 0.28377(5) 0.61685(17) 0.94055(9)
O16_2 O 0.34612(5) 0.6900(2) 0.92191(10)
C25_3 C 0.31391(8) 0.6271(3) 0.90334(14)
C26_3 C 0.30752(8) 0.3486(3) 0.62541(13)
C27_3 C 0.31226(8) 0.5577(3) 0.83043(14)
C28_3 C 0.30853(8) 0.4226(3) 0.69692(14)
C29_3 C 0.27526(8) 0.4368(3) 0.73459(15)
H13_3 H 0.2504 0.3997 0.7151
C30_3 C 0.27568(8) 0.5040(3) 0.80129(14)
H14_3 H 0.2515 0.5131 0.8265
C31_3 C 0.34557(9) 0.4770(4) 0.72572(16)
H15_3 H 0.3695 0.4684 0.6998
C32_3 C 0.34655(9) 0.5427(4) 0.79185(17)
H16_3 H 0.3715 0.5785 0.8114
O22_2 O 0.34612(5) 0.3100(2) 0.42191(10)
Co1_2 Co 0.652060(10) 0.79562(3) 0.485805(18)
O1_3 O 0.72613(5) 0.68137(17) 0.40192(9)
O2_3 O 0.70335(5) 0.90590(17) 0.50405(9)
O3_3 O 0.65867(5) 0.67542(19) 0.40142(9)
O5_2 O 0.65388(5) 0.3100(2) 0.07809(10)
C2_3 C 0.68609(8) 0.3729(3) 0.09666(14)
O6_3 O 0.60718(8) 0.9359(3) 0.49823(16)
C4_3 C 0.69248(8) 0.6514(3) 0.37459(13)
C6_3 C 0.68774(8) 0.4423(3) 0.16957(14)
C7_3 C 0.69147(8) 0.5774(3) 0.30308(14)
C9_3 C 0.72474(8) 0.5632(3) 0.26541(15)
H3_3 H 0.7496 0.6003 0.2849
C10_3 C 0.72432(8) 0.4960(3) 0.19871(14)
H4_3 H 0.7485 0.4869 0.1735
C11_3 C 0.65443(9) 0.5230(4) 0.27428(16)
H5_3 H 0.6305 0.5316 0.3002
C12_3 C 0.65345(9) 0.4573(4) 0.20815(17)
H6_3 H 0.6285 0.4215 0.1886
O8_3 O 0.57901(9) 0.7387(3) 0.47331(19)
C13_3 C 0.57818(10) 0.8636(4) 0.4886(2)
C14_3 C 0.53750(10) 0.9331(4) 0.4951(2)
C15_3 C 0.50338(13) 0.8641(6) 0.4749(3)
H7_3 H 0.5044 0.7714 0.4577
C24_3 C 0.46501(13) 0.9355(5) 0.4802(3)
H12_3 H 0.4408 0.8881 0.4656
O21_2 O 0.71623(5) 0.61685(17) 0.55945(9)
O23_2 O 0.65388(5) 0.6900(2) 0.57809(10)
C1_4 C 0.27249(8) 0.1327(2) 0.01999(14)
C5_4 C 0.29813(8) 0.0097(3) 0.04051(15)
C8_4 C 0.26961(9) 0.2426(3) 0.06868(15)
H2_4 H 0.2828 0.2374 0.1154
O7_4 O 0.32105(6) 0.01083(19) 0.09614(11)
C18_4 C 0.24738(8) 0.3591(3) 0.04838(13)
H9_4 H 0.2456 0.4343 0.0812
C3_4 C 0.25262(8) 0.1409(3) 0.95162(13)
H1_4 H 0.2544 0.0657 0.9188
C16_4 C 0.46501(13) 0.0645(5) 0.9802(3)
H8_4 H 0.4408 0.1119 0.9656
C17_4 C 0.22751(8) 0.3673(2) 0.98001(14)
C19_4 C 0.20187(8) 0.4903(3) 0.95949(15)
C20_4 C 0.23039(9) 0.2574(3) 0.93132(15)
H10_4 H 0.2172 0.2626 0.8846
O10_4 O 0.17895(6) 0.48917(19) 0.90386(11)
O11_4 O 0.60718(8) 0.0641(3) 0.99823(16)
O12_4 O 0.57901(9) 0.2613(3) 0.97331(19)
C21_4 C 0.57818(10) 0.1364(4) 0.9886(2)
C22_4 C 0.53750(10) 0.0669(4) 0.9951(2)
C23_4 C 0.50338(13) 0.1359(6) 0.9749(3)
H11_4 H 0.5044 0.2286 0.9577
O14_4 O 0.65867(5) 0.32458(19) 0.90142(9)
C25_4 C 0.68609(8) 0.6271(3) 0.59666(14)
C26_4 C 0.69248(8) 0.3486(3) 0.87459(13)
C27_4 C 0.68774(8) 0.5577(3) 0.66957(14)
C28_4 C 0.69147(8) 0.4226(3) 0.80308(14)
C29_4 C 0.72474(8) 0.4368(3) 0.76541(15)
H13_4 H 0.7496 0.3997 0.7849
C30_4 C 0.72432(8) 0.5040(3) 0.69871(14)
H14_4 H 0.7485 0.5131 0.6735
C31_4 C 0.65443(9) 0.4770(4) 0.77428(16)
H15_4 H 0.6305 0.4684 0.8002
C32_4 C 0.65345(9) 0.5427(4) 0.70815(17)
H16_4 H 0.6285 0.5785 0.6886
O1_4 O 0.27387(5) 0.68137(17) 0.09808(9)
O3_4 O 0.34133(5) 0.67542(19) 0.09858(9)
C2_4 C 0.31391(8) 0.3729(3) 0.40334(14)
O6_4 O 0.39282(8) 0.9359(3) 0.00177(16)
C4_4 C 0.30752(8) 0.6514(3) 0.12541(13)
C6_4 C 0.31226(8) 0.4423(3) 0.33043(14)
C7_4 C 0.30853(8) 0.5774(3) 0.19692(14)
C9_4 C 0.27526(8) 0.5632(3) 0.23459(15)
H3_4 H 0.2504 0.6003 0.2151
C10_4 C 0.27568(8) 0.4960(3) 0.30129(14)
H4_4 H 0.2515 0.4869 0.3265
C11_4 C 0.34557(9) 0.5230(4) 0.22572(16)
H5_4 H 0.3695 0.5316 0.1998
C12_4 C 0.34655(9) 0.4573(4) 0.29185(17)
H6_4 H 0.3715 0.4215 0.3114
O8_4 O 0.42099(9) 0.7387(3) 0.02669(19)
C13_4 C 0.42182(10) 0.8636(4) 0.0114(2)
C14_4 C 0.46250(10) 0.9331(4) 0.0049(2)
C15_4 C 0.49662(13) 0.8641(6) 0.0251(3)
H7_4 H 0.4956 0.7714 0.0423
C24_4 C 0.53499(13) 0.9355(5) 0.0198(3)
H12_4 H 0.5592 0.8881 0.0344
O2_4 O 0.29665(5) 0.90590(17) 0.99595(9)
H21 H 0.0753 0.0122 0.4388
N1 N 0.0813(3) 0.7373(8) 0.3609(5)
C33 C 0.0642(4) 0.5899(14) 0.3213(8)
H17 H 0.0834 0.5145 0.3328
H18 H 0.0617 0.6029 0.2688
H19 H 0.0377 0.5664 0.3392
C34 C 0.1081(2) 0.7230(8) 0.4070(4)
H20 H 0.1245 0.6426 0.4135
C35 C 0.0830(2) 0.9256(8) 0.4194(4)
C36 C 0.0690(3) 0.8716(10) 0.3624(5)
H22 H 0.0524 0.9166 0.3262
N2 N 0.11122(17) 0.8393(6) 0.4482(3)
C37 C 0.1369(2) 0.8639(7) 0.4999(4)
H23 H 0.1277 0.9496 0.5235
H24 H 0.1625 0.8877 0.4774
C38 C 0.1477(3) 0.7663(11) 0.5584(5)
H25 H 0.1759 0.8000 0.5656
H26 H 0.1503 0.6857 0.5259
C39 C 0.1491(4) 0.6709(12) 0.6345(6)
H27 H 0.1274 0.6062 0.6176
H28 H 0.1347 0.7398 0.6633
C40 C 0.1661(3) 0.5676(9) 0.7104(5)
H29 H 0.1703 0.6249 0.7545
H30 H 0.1915 0.5183 0.7009
C41 C 0.1211(7) 0.437(2) 0.7197(14)
H31 H 0.1268 0.3765 0.7615
H32 H 0.1179 0.3805 0.6758
H33 H 0.0961 0.4888 0.7264
H21_2 H 0.9247 0.0122 0.0612
N1_2 N 0.9187(3) 0.7373(8) 0.1391(5)
C33_2 C 0.9358(4) 0.5899(14) 0.1787(8)
H17_2 H 0.9166 0.5145 0.1672
H18_2 H 0.9383 0.6029 0.2312
H19_2 H 0.9623 0.5664 0.1608
C34_2 C 0.8919(2) 0.7230(8) 0.0930(4)
H20_2 H 0.8755 0.6426 0.0865
C35_2 C 0.9170(2) 0.9256(8) 0.0806(4)
C36_2 C 0.9310(3) 0.8716(10) 0.1376(5)
H22_2 H 0.9476 0.9166 0.1738
N2_2 N 0.88878(17) 0.8393(6) 0.0518(3)
C37_2 C 0.8631(2) 0.8639(7) 0.0001(4)
H24_2 H 0.8375 0.8877 0.0226
H23_2 H 0.8723 0.9496 0.9765
C38_2 C 0.8523(3) 0.7663(11) 0.9416(5)
H25_2 H 0.8241 0.8000 0.9344
H26_2 H 0.8497 0.6857 0.9741
C39_2 C 0.8509(4) 0.6709(12) 0.8655(6)
H27_2 H 0.8726 0.6062 0.8824
H28_2 H 0.8653 0.7398 0.8367
C40_2 C 0.8339(3) 0.5676(9) 0.7896(5)
H29_2 H 0.8297 0.6249 0.7455
H30_2 H 0.8085 0.5183 0.7991
C41_2 C 0.8789(7) 0.437(2) 0.7803(14)
H31_2 H 0.8732 0.3765 0.7385
H32_2 H 0.8821 0.3805 0.8242
H33_2 H 0.9039 0.4888 0.7736
N1_3 N 0.5813(3) 0.2373(8) 0.3609(5)
C33_3 C 0.5642(4) 0.0899(14) 0.3213(8)
H17_3 H 0.5834 0.0145 0.3328
H18_3 H 0.5617 0.1029 0.2688
H19_3 H 0.5377 0.0664 0.3392
C34_3 C 0.6081(2) 0.2230(8) 0.4070(4)
H20_3 H 0.6245 0.1426 0.4135
C35_3 C 0.5830(2) 0.4256(8) 0.4194(4)
H21_3 H 0.5753 0.5122 0.4388
C36_3 C 0.5690(3) 0.3716(10) 0.3624(5)
H22_3 H 0.5524 0.4166 0.3262
N2_3 N 0.61122(17) 0.3393(6) 0.4482(3)
C37_3 C 0.6369(2) 0.3639(7) 0.4999(4)
H23_3 H 0.6277 0.4496 0.5235
H24_3 H 0.6625 0.3877 0.4774
C38_3 C 0.6477(3) 0.2663(11) 0.5584(5)
H25_3 H 0.6759 0.3000 0.5656
H26_3 H 0.6503 0.1857 0.5259
C39_3 C 0.6491(4) 0.1709(12) 0.6345(6)
H27_3 H 0.6274 0.1062 0.6176
H28_3 H 0.6347 0.2398 0.6633
C40_3 C 0.6661(3) 0.0676(9) 0.7104(5)
H29_3 H 0.6703 0.1249 0.7545
H30_3 H 0.6915 0.0183 0.7009
C41_3 C 0.6211(7) 0.937(2) 0.7197(14)
H31_3 H 0.6268 0.8765 0.7615
H32_3 H 0.6179 0.8805 0.6758
H33_3 H 0.5961 0.9888 0.7264
N1_4 N 0.4187(3) 0.2373(8) 0.1391(5)
C33_4 C 0.4358(4) 0.0899(14) 0.1787(8)
H17_4 H 0.4166 0.0145 0.1672
H18_4 H 0.4383 0.1029 0.2312
H19_4 H 0.4623 0.0664 0.1608
C34_4 C 0.3919(2) 0.2230(8) 0.0930(4)
H20_4 H 0.3755 0.1426 0.0865
C35_4 C 0.4170(2) 0.4256(8) 0.0806(4)
H21_4 H 0.4247 0.5122 0.0612
C36_4 C 0.4310(3) 0.3716(10) 0.1376(5)
H22_4 H 0.4476 0.4166 0.1738
N2_4 N 0.38878(17) 0.3393(6) 0.0518(3)
C37_4 C 0.3631(2) 0.3639(7) 0.0001(4)
H24_4 H 0.3375 0.3877 0.0226
H23_4 H 0.3723 0.4496 0.9765
C38_4 C 0.3523(3) 0.2663(11) 0.9416(5)
H25_4 H 0.3241 0.3000 0.9344
H26_4 H 0.3497 0.1857 0.9741
C39_4 C 0.3509(4) 0.1709(12) 0.8655(6)
H27_4 H 0.3726 0.1062 0.8824
H28_4 H 0.3653 0.2398 0.8367
C40_4 C 0.3339(3) 0.0676(9) 0.7896(5)
H29_4 H 0.3297 0.1249 0.7455
H30_4 H 0.3085 0.0183 0.7991
C41_4 C 0.3789(7) 0.937(2) 0.7803(14)
H31_4 H 0.3732 0.8765 0.7385
H32_4 H 0.3821 0.8805 0.8242
H33_4 H 0.4039 0.9888 0.7736
N1_5 N 0.9187(3) 0.2627(8) 0.6391(5)
C33_5 C 0.9358(4) 0.4101(14) 0.6787(8)
H17_5 H 0.9166 0.4855 0.6672
H18_5 H 0.9383 0.3971 0.7312
H19_5 H 0.9623 0.4336 0.6608
C34_5 C 0.8919(2) 0.2770(8) 0.5930(4)
H20_5 H 0.8755 0.3574 0.5865
C35_5 C 0.9170(2) 0.0744(8) 0.5806(4)
C36_5 C 0.9310(3) 0.1284(10) 0.6376(5)
H22_5 H 0.9476 0.0834 0.6738
N2_5 N 0.88878(17) 0.1607(6) 0.5518(3)
C37_5 C 0.8631(2) 0.1361(7) 0.5001(4)
H23_5 H 0.8723 0.0504 0.4765
H24_5 H 0.8375 0.1123 0.5226
C38_5 C 0.8523(3) 0.2337(11) 0.4416(5)
H25_5 H 0.8241 0.2000 0.4344
H26_5 H 0.8497 0.3143 0.4741
C39_5 C 0.8509(4) 0.3291(12) 0.3655(6)
H27_5 H 0.8726 0.3938 0.3824
H28_5 H 0.8653 0.2602 0.3367
C40_5 C 0.8339(3) 0.4324(9) 0.2896(5)
H29_5 H 0.8297 0.3751 0.2455
H30_5 H 0.8085 0.4817 0.2991
C41_5 C 0.8789(7) 0.563(2) 0.2803(14)
H31_5 H 0.8732 0.6235 0.2385
H32_5 H 0.8821 0.6195 0.3242
H33_5 H 0.9039 0.5112 0.2736
H21_5 H 0.9247 0.9878 0.5612
H23_6 H 0.1277 0.0504 0.0235
C38_6 C 0.1477(3) 0.2337(11) 0.0584(5)
H25_6 H 0.1759 0.2000 0.0656
H26_6 H 0.1503 0.3143 0.0259
C39_6 C 0.1491(4) 0.3291(12) 0.1345(6)
H27_6 H 0.1274 0.3938 0.1176
H28_6 H 0.1347 0.2602 0.1633
C40_6 C 0.1661(3) 0.4324(9) 0.2104(5)
H29_6 H 0.1703 0.3751 0.2545
H30_6 H 0.1915 0.4817 0.2009
C41_6 C 0.1211(7) 0.563(2) 0.2197(14)
H31_6 H 0.1268 0.6235 0.2615
H32_6 H 0.1179 0.6195 0.1758
H33_6 H 0.0961 0.5112 0.2264
N1_6 N 0.0813(3) 0.2627(8) 0.8609(5)
C33_6 C 0.0642(4) 0.4101(14) 0.8213(8)
H17_6 H 0.0834 0.4855 0.8328
H18_6 H 0.0617 0.3971 0.7688
H19_6 H 0.0377 0.4336 0.8392
C34_6 C 0.1081(2) 0.2770(8) 0.9070(4)
H20_6 H 0.1245 0.3574 0.9135
C35_6 C 0.0830(2) 0.0744(8) 0.9194(4)
C36_6 C 0.0690(3) 0.1284(10) 0.8624(5)
H22_6 H 0.0524 0.0834 0.8262
N2_6 N 0.11122(17) 0.1607(6) 0.9482(3)
C37_6 C 0.1369(2) 0.1361(7) 0.9999(4)
H24_6 H 0.1625 0.1123 0.9774
H21_6 H 0.0753 0.9878 0.9388
C41_7 C 0.3789(7) 0.063(2) 0.2803(14)
H31_7 H 0.3732 0.1235 0.2385
H32_7 H 0.3821 0.1195 0.3242
H33_7 H 0.4039 0.0112 0.2736
N1_7 N 0.4187(3) 0.7627(8) 0.6391(5)
C33_7 C 0.4358(4) 0.9101(14) 0.6787(8)
H17_7 H 0.4166 0.9855 0.6672
H18_7 H 0.4383 0.8971 0.7312
H19_7 H 0.4623 0.9336 0.6608
C34_7 C 0.3919(2) 0.7770(8) 0.5930(4)
H20_7 H 0.3755 0.8574 0.5865
C35_7 C 0.4170(2) 0.5744(8) 0.5806(4)
H21_7 H 0.4247 0.4878 0.5612
C36_7 C 0.4310(3) 0.6284(10) 0.6376(5)
H22_7 H 0.4476 0.5834 0.6738
N2_7 N 0.38878(17) 0.6607(6) 0.5518(3)
C37_7 C 0.3631(2) 0.6361(7) 0.5001(4)
H23_7 H 0.3723 0.5504 0.4765
H24_7 H 0.3375 0.6123 0.5226
C38_7 C 0.3523(3) 0.7337(11) 0.4416(5)
H25_7 H 0.3241 0.7000 0.4344
H26_7 H 0.3497 0.8143 0.4741
C39_7 C 0.3509(4) 0.8291(12) 0.3655(6)
H27_7 H 0.3726 0.8938 0.3824
H28_7 H 0.3653 0.7602 0.3367
C40_7 C 0.3339(3) 0.9324(9) 0.2896(5)
H29_7 H 0.3297 0.8751 0.2455
H30_7 H 0.3085 0.9817 0.2991
C41_8 C 0.6211(7) 0.063(2) 0.2197(14)
H31_8 H 0.6268 0.1235 0.2615
H32_8 H 0.6179 0.1195 0.1758
H33_8 H 0.5961 0.0112 0.2264
H23_8 H 0.6277 0.5504 0.0235
C38_8 C 0.6477(3) 0.7337(11) 0.0584(5)
H25_8 H 0.6759 0.7000 0.0656
H26_8 H 0.6503 0.8143 0.0259
C39_8 C 0.6491(4) 0.8291(12) 0.1345(6)
H27_8 H 0.6274 0.8938 0.1176
H28_8 H 0.6347 0.7602 0.1633
C40_8 C 0.6661(3) 0.9324(9) 0.2104(5)
H29_8 H 0.6703 0.8751 0.2545
H30_8 H 0.6915 0.9817 0.2009
N1_8 N 0.5813(3) 0.7627(8) 0.8609(5)
C33_8 C 0.5642(4) 0.9101(14) 0.8213(8)
H17_8 H 0.5834 0.9855 0.8328
H18_8 H 0.5617 0.8971 0.7688
H19_8 H 0.5377 0.9336 0.8392
C34_8 C 0.6081(2) 0.7770(8) 0.9070(4)
H20_8 H 0.6245 0.8574 0.9135
C35_8 C 0.5830(2) 0.5744(8) 0.9194(4)
H21_8 H 0.5753 0.4878 0.9388
C36_8 C 0.5690(3) 0.6284(10) 0.8624(5)
H22_8 H 0.5524 0.5834 0.8262
N2_8 N 0.61122(17) 0.6607(6) 0.9482(3)
C37_8 C 0.6369(2) 0.6361(7) 0.9999(4)
H24_8 H 0.6625 0.6123 0.9774
loop_
_geom_bond_atom_site_label_1
_geom_bond_atom_site_label_2
_geom_bond_site_symmetry_1
_geom_bond_site_symmetry_2
Co6 O9 1_555 1_555
Co7 O9 1_555 1_555
Co1 O2 1_555 1_555
Co7 O1 1_555 1_555
O1 C4 1_555 1_555
O2 Co7 1_555 1_555
O3 Co1 1_555 1_555
C1 C3 1_555 1_555
C3 H1 1_555 1_555
O6 Co1 1_555 1_555
C4 O3 1_555 1_555
C5 O2 1_555 1_555
C7 C4 1_555 1_555
C8 C1 1_555 1_555
H2 C8 1_555 1_555
C9 C7 1_555 1_555
H3 C9 1_555 1_555
C11 C7 1_555 1_555
H5 C11 1_555 1_555
O7 C5 1_555 1_555
O8 C13 1_555 1_555
C13 O6 1_555 1_555
C14 C13 1_555 1_555
C15 C14 1_555 1_555
H7 C15 1_555 1_555
C16 C14 1_555 1_555
H8 C16 1_555 1_555
C17 C18 1_555 1_555
C18 C8 1_555 1_555
H9 C18 1_555 1_555
C19 C17 1_555 1_555
C20 C3 1_555 1_555
H10 C20 1_555 1_555
O10 C19 1_555 1_555
O17 Co7 1_555 1_555
O20 Co7 1_555 1_555
O21 Co7 1_555 1_555
O23 Co1 1_555 1_555
C1 C5 1_555 1_555
C17 C20 1_555 1_555
O4 C2 1_555 1_555
O5 C2 1_555 1_555
C2 C6 1_555 1_555
C6 C10 1_555 1_555
H4 C10 1_555 1_555
C12 C6 1_555 1_555
H6 C12 1_555 1_555
Co10 O4 1_555 1_555
O15 C25 1_555 1_555
O16 C25 1_555 1_555
C25 C27 1_555 1_555
C27 C30 1_555 1_555
H14 C30 1_555 1_555
C32 C27 1_555 1_555
H16 C32 1_555 1_555
Co8_2 O15 1_555 1_555
O11 C21 1_555 1_555
O12 C21 1_555 1_555
C21 C22 1_555 1_555
C22 C23 1_555 1_555
H11 C23 1_555 1_555
H12 C24 1_555 1_555
Co3 O11 1_555 1_555
O13 C26 1_555 1_555
O14 Co3 1_555 1_555
C26 O14 1_555 1_555
C28 C26 1_555 1_555
C29 C28 1_555 1_555
H13 C29 1_555 1_555
C31 C28 1_555 1_555
H15 C31 1_555 1_555
Co9 O13 1_555 1_555
O18 Co3 1_555 1_555
O22 Co3 1_555 1_555
C22 C24 1_555 1_555
Co9 O18 1_555 1_555
O21 C25_2 1_555 1_555
O23 C25_2 1_555 1_555
C25_2 C27_2 1_555 1_555
C27_2 C30_2 1_555 1_555
H14_2 C30_2 1_555 1_555
C32_2 C27_2 1_555 1_555
H16_2 C32_2 1_555 1_555
H12_2 C24_2 1_555 1_555
Co10 O18_2 1_555 1_555
O11_2 C21_2 1_555 1_555
O12_2 C21_2 1_555 1_555
C21_2 C22_2 1_555 1_555
C22_2 C23_2 1_555 1_555
H11_2 C23_2 1_555 1_555
Co5 O11_2 1_555 1_555
O13_2 C26_2 1_555 1_555
O14_2 Co5 1_555 1_555
C26_2 O14_2 1_555 1_555
C28_2 C26_2 1_555 1_555
C29_2 C28_2 1_555 1_555
H13_2 C29_2 1_555 1_555
C31_2 C28_2 1_555 1_555
H15_2 C31_2 1_555 1_555
Co10_2 O13_2 1_555 1_555
Co8 O9_2 1_555 1_555
Co8 O1_2 1_555 1_555
O1_2 C4_2 1_555 1_555
O3_2 Co4 1_555 1_555
O6_2 Co4 1_555 1_555
C4_2 O3_2 1_555 1_555
C7_2 C4_2 1_555 1_555
C8_2 C1_2 1_555 1_555
H2_2 C8_2 1_555 1_555
C9_2 C7_2 1_555 1_555
H3_2 C9_2 1_555 1_555
C11_2 C7_2 1_555 1_555
H5_2 C11_2 1_555 1_555
O7_2 C5_2 1_555 1_555
O8_2 C13_2 1_555 1_555
C13_2 O6_2 1_555 1_555
C14_2 C13_2 1_555 1_555
C15_2 C14_2 1_555 1_555
H7_2 C15_2 1_555 1_555
C18_2 C8_2 1_555 1_555
H9_2 C18_2 1_555 1_555
O20_2 Co8 1_555 1_555
C1_2 C5_2 1_555 1_555
O2_2 Co8_2 1_555 1_555
C3_2 H1_2 1_555 1_555
H8_2 C16_2 1_555 1_555
C19_2 C17_2 1_555 1_555
C20_2 C3_2 1_555 1_555
H10_2 C20_2 1_555 1_555
O10_2 C19_2 1_555 1_555
O17_2 Co8_2 1_555 1_555
C17_2 C20_2 1_555 1_555
O4_2 C2_2 1_555 1_555
O22 C2_2 1_555 1_555
C2_2 C6_2 1_555 1_555
C6_2 C10_2 1_555 1_555
H4_2 C10_2 1_555 1_555
C12_2 C6_2 1_555 1_555
H6_2 C12_2 1_555 1_555
Co9 O4_2 1_555 1_555
C1_3 C3_3 1_555 1_555
C3_3 H1_3 1_555 1_555
C8_3 C1_3 1_555 1_555
H2_3 C8_3 1_555 1_555
O7_3 C5_3 1_555 1_555
H8_3 C16_3 1_555 1_555
O18 C19_3 1_555 1_555
C17_3 C18_3 1_555 1_555
C18_3 C8_3 1_555 1_555
H9_3 C18_3 1_555 1_555
C19_3 C17_3 1_555 1_555
C20_3 C3_3 1_555 1_555
H10_3 C20_3 1_555 1_555
O10_3 C19_3 1_555 1_555
O11_3 C21_3 1_555 1_555
O12_3 C21_3 1_555 1_555
C21_3 C22_3 1_555 1_555
C22_3 C23_3 1_555 1_555
C23_3 C16_3 1_555 1_555
H11_3 C23_3 1_555 1_555
Co6 O11_3 1_555 1_555
O17 C26_3 1_555 1_555
O14_3 Co6 1_555 1_555
O15_2 C25_3 1_555 1_555
O16_2 C25_3 1_555 1_555
C25_3 C27_3 1_555 1_555
C26_3 O14_3 1_555 1_555
C27_3 C30_3 1_555 1_555
C28_3 C26_3 1_555 1_555
C29_3 C28_3 1_555 1_555
H13_3 C29_3 1_555 1_555
C30_3 C29_3 1_555 1_555
H14_3 C30_3 1_555 1_555
C31_3 C28_3 1_555 1_555
H15_3 C31_3 1_555 1_555
C32_3 C27_3 1_555 1_555
H16_3 C32_3 1_555 1_555
Co10_2 O15_2 1_555 1_555
O22_2 Co6 1_555 1_555
C1_3 C5_3 1_555 1_555
C17_3 C20_3 1_555 1_555
C31_3 C32_3 1_555 1_555
Co1_2 O2_3 1_555 1_555
Co9 O1_3 1_555 1_555
O1_3 C4_3 1_555 1_555
O2_3 Co9 1_555 1_555
O3_3 Co1_2 1_555 1_555
O20_2 C2_3 1_555 1_555
O5_2 C2_3 1_555 1_555
C2_3 C6_3 1_555 1_555
O6_3 Co1_2 1_555 1_555
C4_3 O3_3 1_555 1_555
C6_3 C10_3 1_555 1_555
C7_3 C4_3 1_555 1_555
C9_3 C7_3 1_555 1_555
H3_3 C9_3 1_555 1_555
C10_3 C9_3 1_555 1_555
H4_3 C10_3 1_555 1_555
C11_3 C7_3 1_555 1_555
H5_3 C11_3 1_555 1_555
C12_3 C6_3 1_555 1_555
H6_3 C12_3 1_555 1_555
O8_3 C13_3 1_555 1_555
C13_3 O6_3 1_555 1_555
C14_3 C13_3 1_555 1_555
C15_3 C14_3 1_555 1_555
H7_3 C15_3 1_555 1_555
C24_3 C15_3 1_555 1_555
H12_3 C24_3 1_555 1_555
O21_2 Co9 1_555 1_555
O23_2 Co1_2 1_555 1_555
C11_3 C12_3 1_555 1_555
C8_4 C1_4 1_555 1_555
H2_4 C8_4 1_555 1_555
O7_4 C5_4 1_555 1_555
C18_4 C8_4 1_555 1_555
H9_4 C18_4 1_555 1_555
C1_4 C5_4 1_555 1_555
C3_4 H1_4 1_555 1_555
H8_4 C16_4 1_555 1_555
C19_4 C17_4 1_555 1_555
C20_4 C3_4 1_555 1_555
H10_4 C20_4 1_555 1_555
O10_4 C19_4 1_555 1_555
O11_4 C21_4 1_555 1_555
O12_4 C21_4 1_555 1_555
C21_4 C22_4 1_555 1_555
C22_4 C23_4 1_555 1_555
C23_4 C16_4 1_555 1_555
H11_4 C23_4 1_555 1_555
Co6_2 O11_4 1_555 1_555
O17_2 C26_4 1_555 1_555
O14_4 Co6_2 1_555 1_555
O21_2 C25_4 1_555 1_555
O23_2 C25_4 1_555 1_555
C25_4 C27_4 1_555 1_555
C26_4 O14_4 1_555 1_555
C27_4 C30_4 1_555 1_555
C28_4 C26_4 1_555 1_555
C29_4 C28_4 1_555 1_555
H13_4 C29_4 1_555 1_555
C30_4 C29_4 1_555 1_555
H14_4 C30_4 1_555 1_555
C31_4 C28_4 1_555 1_555
H15_4 C31_4 1_555 1_555
C32_4 C27_4 1_555 1_555
H16_4 C32_4 1_555 1_555
C17_4 C20_4 1_555 1_555
C31_4 C32_4 1_555 1_555
Co10 O1_4 1_555 1_555
O1_4 C4_4 1_555 1_555
O3_4 Co4_2 1_555 1_555
O20 C2_4 1_555 1_555
O22_2 C2_4 1_555 1_555
C2_4 C6_4 1_555 1_555
O6_4 Co4_2 1_555 1_555
C4_4 O3_4 1_555 1_555
C6_4 C10_4 1_555 1_555
C7_4 C4_4 1_555 1_555
C9_4 C7_4 1_555 1_555
H3_4 C9_4 1_555 1_555
C10_4 C9_4 1_555 1_555
H4_4 C10_4 1_555 1_555
C11_4 C7_4 1_555 1_555
H5_4 C11_4 1_555 1_555
C12_4 C6_4 1_555 1_555
H6_4 C12_4 1_555 1_555
O8_4 C13_4 1_555 1_555
C13_4 O6_4 1_555 1_555
C14_4 C13_4 1_555 1_555
C15_4 C14_4 1_555 1_555
H7_4 C15_4 1_555 1_555
C24_4 C15_4 1_555 1_555
H12_4 C24_4 1_555 1_555
C11_4 C12_4 1_555 1_555
O2_4 Co10_2 1_555 1_555
N1 C33 1_555 1_555
C33 H17 1_555 1_555
H18 C33 1_555 1_555
H19 C33 1_555 1_555
C34 N1 1_555 1_555
H20 C34 1_555 1_555
C36 N1 1_555 1_555
H22 C36 1_555 1_555
N2 C34 1_555 1_555
C37 N2 1_555 1_555
H23 C37 1_555 1_555
H24 C37 1_555 1_555
C38 C37 1_555 1_555
H25 C38 1_555 1_555
H26 C38 1_555 1_555
C39 C38 1_555 1_555
H27 C39 1_555 1_555
H28 C39 1_555 1_555
C40 C39 1_555 1_555
H29 C40 1_555 1_555
H30 C40 1_555 1_555
C41 C40 1_555 1_555
H31 C41 1_555 1_555
H32 C41 1_555 1_555
H33 C41 1_555 1_555
C35 C36 1_555 1_555
C35 N2 1_555 1_555
N1_2 C33_2 1_555 1_555
C33_2 H17_2 1_555 1_555
H18_2 C33_2 1_555 1_555
H19_2 C33_2 1_555 1_555
C34_2 N1_2 1_555 1_555
H20_2 C34_2 1_555 1_555
C36_2 N1_2 1_555 1_555
H22_2 C36_2 1_555 1_555
N2_2 C34_2 1_555 1_555
C37_2 N2_2 1_555 1_555
H24_2 C37_2 1_555 1_555
C35_2 C36_2 1_555 1_555
C35_2 N2_2 1_555 1_555
H25_2 C38_2 1_555 1_555
H26_2 C38_2 1_555 1_555
C39_2 C38_2 1_555 1_555
H27_2 C39_2 1_555 1_555
H28_2 C39_2 1_555 1_555
C40_2 C39_2 1_555 1_555
H29_2 C40_2 1_555 1_555
H30_2 C40_2 1_555 1_555
C41_2 C40_2 1_555 1_555
H31_2 C41_2 1_555 1_555
H32_2 C41_2 1_555 1_555
H33_2 C41_2 1_555 1_555
N1_3 C33_3 1_555 1_555
C33_3 H17_3 1_555 1_555
H18_3 C33_3 1_555 1_555
H19_3 C33_3 1_555 1_555
C34_3 N1_3 1_555 1_555
H20_3 C34_3 1_555 1_555
C35_3 H21_3 1_555 1_555
C36_3 N1_3 1_555 1_555
H22_3 C36_3 1_555 1_555
N2_3 C34_3 1_555 1_555
C37_3 N2_3 1_555 1_555
H23_3 C37_3 1_555 1_555
H24_3 C37_3 1_555 1_555
C38_3 C37_3 1_555 1_555
H25_3 C38_3 1_555 1_555
H26_3 C38_3 1_555 1_555
C39_3 C38_3 1_555 1_555
H27_3 C39_3 1_555 1_555
H28_3 C39_3 1_555 1_555
C40_3 C39_3 1_555 1_555
H29_3 C40_3 1_555 1_555
H30_3 C40_3 1_555 1_555
C35_3 C36_3 1_555 1_555
C35_3 N2_3 1_555 1_555
H31_3 C41_3 1_555 1_555
H32_3 C41_3 1_555 1_555
H33_3 C41_3 1_555 1_555
N1_4 C33_4 1_555 1_555
C33_4 H17_4 1_555 1_555
H18_4 C33_4 1_555 1_555
H19_4 C33_4 1_555 1_555
C34_4 N1_4 1_555 1_555
H20_4 C34_4 1_555 1_555
C35_4 H21_4 1_555 1_555
C36_4 N1_4 1_555 1_555
H22_4 C36_4 1_555 1_555
N2_4 C34_4 1_555 1_555
C37_4 N2_4 1_555 1_555
H24_4 C37_4 1_555 1_555
C35_4 C36_4 1_555 1_555
C35_4 N2_4 1_555 1_555
H25_4 C38_4 1_555 1_555
H26_4 C38_4 1_555 1_555
C39_4 C38_4 1_555 1_555
H27_4 C39_4 1_555 1_555
H28_4 C39_4 1_555 1_555
C40_4 C39_4 1_555 1_555
H29_4 C40_4 1_555 1_555
H30_4 C40_4 1_555 1_555
H31_4 C41_4 1_555 1_555
H32_4 C41_4 1_555 1_555
H33_4 C41_4 1_555 1_555
N1_5 C33_5 1_555 1_555
C33_5 H17_5 1_555 1_555
H18_5 C33_5 1_555 1_555
H19_5 C33_5 1_555 1_555
C34_5 N1_5 1_555 1_555
H20_5 C34_5 1_555 1_555
C36_5 N1_5 1_555 1_555
H22_5 C36_5 1_555 1_555
N2_5 C34_5 1_555 1_555
C37_5 N2_5 1_555 1_555
H23_5 C37_5 1_555 1_555
H24_5 C37_5 1_555 1_555
C38_5 C37_5 1_555 1_555
H25_5 C38_5 1_555 1_555
H26_5 C38_5 1_555 1_555
C39_5 C38_5 1_555 1_555
H27_5 C39_5 1_555 1_555
H28_5 C39_5 1_555 1_555
C40_5 C39_5 1_555 1_555
H29_5 C40_5 1_555 1_555
H30_5 C40_5 1_555 1_555
C41_5 C40_5 1_555 1_555
H31_5 C41_5 1_555 1_555
H32_5 C41_5 1_555 1_555
H33_5 C41_5 1_555 1_555
C35_5 C36_5 1_555 1_555
C35_5 N2_5 1_555 1_555
H25_6 C38_6 1_555 1_555
H26_6 C38_6 1_555 1_555
C39_6 C38_6 1_555 1_555
H27_6 C39_6 1_555 1_555
H28_6 C39_6 1_555 1_555
C40_6 C39_6 1_555 1_555
H29_6 C40_6 1_555 1_555
H30_6 C40_6 1_555 1_555
C41_6 C40_6 1_555 1_555
H31_6 C41_6 1_555 1_555
H32_6 C41_6 1_555 1_555
H33_6 C41_6 1_555 1_555
N1_6 C33_6 1_555 1_555
C33_6 H17_6 1_555 1_555
H18_6 C33_6 1_555 1_555
H19_6 C33_6 1_555 1_555
C34_6 N1_6 1_555 1_555
H20_6 C34_6 1_555 1_555
C36_6 N1_6 1_555 1_555
H22_6 C36_6 1_555 1_555
N2_6 C34_6 1_555 1_555
C37_6 N2_6 1_555 1_555
H24_6 C37_6 1_555 1_555
C35_6 C36_6 1_555 1_555
C35_6 N2_6 1_555 1_555
H31_7 C41_7 1_555 1_555
H32_7 C41_7 1_555 1_555
H33_7 C41_7 1_555 1_555
N1_7 C33_7 1_555 1_555
C33_7 H17_7 1_555 1_555
H18_7 C33_7 1_555 1_555
H19_7 C33_7 1_555 1_555
C34_7 N1_7 1_555 1_555
H20_7 C34_7 1_555 1_555
C35_7 H21_7 1_555 1_555
C36_7 N1_7 1_555 1_555
H22_7 C36_7 1_555 1_555
N2_7 C34_7 1_555 1_555
C37_7 N2_7 1_555 1_555
H23_7 C37_7 1_555 1_555
H24_7 C37_7 1_555 1_555
C38_7 C37_7 1_555 1_555
H25_7 C38_7 1_555 1_555
H26_7 C38_7 1_555 1_555
C39_7 C38_7 1_555 1_555
H27_7 C39_7 1_555 1_555
H28_7 C39_7 1_555 1_555
C40_7 C39_7 1_555 1_555
H29_7 C40_7 1_555 1_555
H30_7 C40_7 1_555 1_555
C35_7 C36_7 1_555 1_555
C35_7 N2_7 1_555 1_555
H31_8 C41_8 1_555 1_555
H32_8 C41_8 1_555 1_555
H33_8 C41_8 1_555 1_555
H25_8 C38_8 1_555 1_555
H26_8 C38_8 1_555 1_555
C39_8 C38_8 1_555 1_555
H27_8 C39_8 1_555 1_555
H28_8 C39_8 1_555 1_555
C40_8 C39_8 1_555 1_555
H29_8 C40_8 1_555 1_555
H30_8 C40_8 1_555 1_555
N1_8 C33_8 1_555 1_555
C33_8 H17_8 1_555 1_555
H18_8 C33_8 1_555 1_555
H19_8 C33_8 1_555 1_555
C34_8 N1_8 1_555 1_555
H20_8 C34_8 1_555 1_555
C35_8 H21_8 1_555 1_555
C36_8 N1_8 1_555 1_555
H22_8 C36_8 1_555 1_555
N2_8 C34_8 1_555 1_555
C37_8 N2_8 1_555 1_555
H24_8 C37_8 1_555 1_555
C35_8 C36_8 1_555 1_555
C35_8 N2_8 1_555 1_555

#END
