
###############################################################################
#
# This file contains modified crystal structure data generated from the
# MOF subset of the Cambridge Structural Database (CSD) v543 
# hosted by the Cambridge Crystallographic Data Centre (CCDC).
#
# This work is licensed under the Creative Commons
# Attribution-NonCommercial-ShareAlike 4.0 International License.
# To view a copy of this license, visit
# http://creativecommons.org/licenses/by-nc-sa/4.0/
# or send a letter to
# Creative Commons, PO Box 1866, Mountain View, CA 94042, USA.
#
# CIF created using the CSD Python API on 29 September 2022
# The structure has been converted into the P1 space group
# The structure has a 3D framework
# The original CSD entry JOQSOZ is in the monoclinic crystal system
# The framework has been calculated to contain at least 10.0% void space
# The void calculation uses a probe of radius 1.32A, grid spacing 0.4
# The framework is charged, counterions have been retained in the structure
#
###############################################################################

data_JOQSOZ
_chemical_formula_moiety         '(C88 H72 Cl4 Cu12 N32 O16)n'
_symmetry_cell_setting           triclinic
_symmetry_space_group_name_H-M   'P 1'
_symmetry_Int_Tables_number      1
_space_group_name_Hall           'P 1'
loop_
_symmetry_equiv_pos_site_id
_symmetry_equiv_pos_as_xyz
1 x,y,z
_cell_length_a                   16.2717(2)
_cell_length_b                   12.6684(2)
_cell_length_c                   17.6021(2)
_cell_angle_alpha                90
_cell_angle_beta                 112.5230(10)
_cell_angle_gamma                90
_cell_volume                     3351.68
loop_
_atom_site_label
_atom_site_type_symbol
_atom_site_fract_x
_atom_site_fract_y
_atom_site_fract_z
H18 H 0.0010 0.2292 0.5342
Cu6 Cu 0.08008(3) 0.11289(5) 0.44143(3)
Cu1 Cu 0.525280(19) 0.17199(3) 0.450940(18)
Cu2 Cu 0.61366(2) 0.10409(3) 0.367080(19)
N1 N 0.18722(16) 0.0997(2) 0.42550(18)
N2 N 0.42786(13) 0.07895(18) 0.39037(13)
N3 N 0.50737(13) 0.01550(18) 0.31539(13)
N5 N 0.62327(16) 0.3129(2) 0.76267(14)
N6 N 0.63614(13) 0.19378(18) 0.54330(12)
N7 N 0.71772(13) 0.1400(2) 0.46713(13)
N8 N 0.96771(17) 0.1193(3) 0.44932(18)
C1 C 0.2665(2) 0.1190(3) 0.4854(2)
H1 H 0.2677 0.1388 0.5367
C2 C 0.34598(19) 0.1113(3) 0.47570(18)
H2 H 0.3990 0.1259 0.5196
C3 C 0.34728(16) 0.0815(2) 0.40006(15)
C4 C 0.26441(18) 0.0614(3) 0.33711(19)
H3 H 0.2610 0.0419 0.2851
C5 C 0.1886(2) 0.0706(3) 0.3527(2)
H4 H 0.1345 0.0558 0.3101
C6 C 0.43456(16) 0.0197(2) 0.33138(16)
C12 C 0.55639(19) 0.3192(3) 0.68995(17)
H10 H 0.5042 0.3517 0.6874
C13 C 0.55963(18) 0.2804(3) 0.61776(16)
H11 H 0.5105 0.2878 0.5687
C14 C 0.63553(16) 0.2307(2) 0.61806(14)
C15 C 0.70551(18) 0.2204(2) 0.69493(15)
H12 H 0.7578 0.1861 0.6998
C16 C 0.69561(19) 0.2621(3) 0.76330(16)
H13 H 0.7428 0.2543 0.8137
C17 C 0.71255(17) 0.1774(2) 0.53589(15)
H14 H 0.7650 0.1925 0.5804
C18 C 0.9002(2) 0.0591(3) 0.4061(2)
H15 H 0.9085 0.0107 0.3699
C19 C 0.81767(18) 0.0635(3) 0.41124(18)
H16 H 0.7724 0.0189 0.3789
C20 C 0.80200(17) 0.1345(3) 0.46462(16)
C21 C 0.8727(2) 0.1994(4) 0.5091(2)
H17 H 0.8658 0.2507 0.5440
C22 C 0.9537(2) 0.1875(4) 0.5014(3)
Cu5 Cu 0.61366(2) 0.39591(3) 0.867080(19)
N9 N 0.50401(17) 0.3052(2) 0.37338(15)
N10 N 0.62327(16) 0.1871(2) 0.26267(14)
N4 N 0.49599(17) 0.8052(2) 0.12662(15)
H5 H 0.3859 0.9790 0.2997
C7 C 0.5680(2) 0.8128(3) 0.19635(19)
H6 H 0.6161 0.7687 0.2033
C8 C 0.57451(18) 0.8829(3) 0.25867(18)
H7 H 0.6265 0.8866 0.3056
C9 C 0.50264(17) 0.9477(2) 0.25057(16)
C10 C 0.42806(19) 0.9409(2) 0.17683(18)
H8 H 0.3790 0.9841 0.1678
C11 C 0.4279(2) 0.8697(3) 0.11785(19)
H9 H 0.3778 0.8662 0.0692
Cu4 Cu 0.474720(19) 0.67199(3) 0.049060(18)
N11 N 0.03229(17) 0.6193(3) 0.05068(18)
Cu2_2 Cu 0.38634(2) 0.60409(3) 0.132920(19)
Cu3 Cu 0.91992(3) 0.61289(5) 0.05857(3)
N1_2 N 0.81278(16) 0.5997(2) 0.07450(18)
N2_2 N 0.57214(13) 0.57895(18) 0.10963(13)
N3_2 N 0.49263(13) 0.51550(18) 0.18461(13)
N7_2 N 0.28228(13) 0.6400(2) 0.03287(13)
C1_2 C 0.7335(2) 0.6190(3) 0.0146(2)
C2_2 C 0.65402(19) 0.6113(3) 0.02430(18)
C3_2 C 0.65272(16) 0.5815(2) 0.09994(15)
C4_2 C 0.73559(18) 0.5614(3) 0.16289(19)
H3_2 H 0.7390 0.5419 0.2149
C5_2 C 0.8114(2) 0.5706(3) 0.1473(2)
H4_2 H 0.8655 0.5558 0.1899
C6_2 C 0.56544(16) 0.5197(2) 0.16862(16)
H5_2 H 0.6141 0.4790 0.2003
C7_2 C 0.4320(2) 0.3128(3) 0.30365(19)
H6_2 H 0.3839 0.2687 0.2967
C8_2 C 0.42549(18) 0.3829(3) 0.24133(18)
H7_2 H 0.3735 0.3866 0.1944
C9_2 C 0.49736(17) 0.4477(2) 0.24943(16)
C10_2 C 0.57194(19) 0.4409(2) 0.32317(18)
H8_2 H 0.6210 0.4841 0.3322
C11_2 C 0.5721(2) 0.3697(3) 0.38215(19)
H9_2 H 0.6222 0.3662 0.4308
C18_2 C 0.0998(2) 0.5591(3) 0.0939(2)
H15_2 H 0.0915 0.5107 0.1301
C19_2 C 0.18233(18) 0.5635(3) 0.08876(18)
H16_2 H 0.2276 0.5189 0.1211
C20_2 C 0.19800(17) 0.6345(3) 0.03538(16)
N10_2 N 0.37673(16) 0.6871(2) 0.23733(14)
N5_2 N 0.37673(16) 0.8129(2) 0.73733(14)
N6_2 N 0.36386(13) 0.69378(18) 0.95670(12)
H1_2 H 0.7323 0.6388 0.9633
H2_2 H 0.6010 0.6259 0.9804
C12_2 C 0.44361(19) 0.8192(3) 0.81005(17)
H10_2 H 0.4958 0.8517 0.8126
C13_2 C 0.44037(18) 0.7804(3) 0.88224(16)
H11_2 H 0.4895 0.7878 0.9313
C14_2 C 0.36447(16) 0.7307(2) 0.88194(14)
C15_2 C 0.29449(18) 0.7204(2) 0.80507(15)
H12_2 H 0.2422 0.6861 0.8002
C16_2 C 0.30439(19) 0.7621(3) 0.73670(16)
H13_2 H 0.2572 0.7543 0.6863
C17_2 C 0.28745(17) 0.6774(2) 0.96411(15)
H14_2 H 0.2350 0.6925 0.9196
C21_2 C 0.1273(2) 0.6994(4) 0.9909(2)
H17_2 H 0.1342 0.7507 0.9560
C22_2 C 0.0463(2) 0.6875(4) 0.9986(3)
Cu5_2 Cu 0.38634(2) 0.89591(3) 0.632920(19)
N11_2 N 0.03229(17) 0.8807(3) 0.55068(18)
N4_2 N 0.50401(17) 0.1948(2) 0.87338(15)
H5_3 H 0.6141 0.0210 0.7003
C7_3 C 0.4320(2) 0.1872(3) 0.80365(19)
H6_3 H 0.3839 0.2313 0.7967
C8_3 C 0.42549(18) 0.1171(3) 0.74133(18)
H7_3 H 0.3735 0.1134 0.6944
C9_3 C 0.49736(17) 0.0523(2) 0.74943(16)
C10_3 C 0.57194(19) 0.0591(2) 0.82317(18)
H8_3 H 0.6210 0.0159 0.8322
C11_3 C 0.5721(2) 0.1303(3) 0.88215(19)
H9_3 H 0.6222 0.1338 0.9308
Cu4_2 Cu 0.525280(19) 0.32801(3) 0.950940(18)
Cu1_2 Cu 0.474720(19) 0.82801(3) 0.549060(18)
Cu3_2 Cu 0.91992(3) 0.88711(5) 0.55857(3)
N1_3 N 0.81278(16) 0.9003(2) 0.57450(18)
N2_3 N 0.57214(13) 0.92105(18) 0.60963(13)
N3_3 N 0.49263(13) 0.98450(18) 0.68461(13)
N6_3 N 0.36386(13) 0.80622(18) 0.45670(12)
N7_3 N 0.28228(13) 0.8600(2) 0.53287(13)
C1_3 C 0.7335(2) 0.8810(3) 0.5146(2)
H1_3 H 0.7323 0.8612 0.4633
C2_3 C 0.65402(19) 0.8887(3) 0.52430(18)
H2_3 H 0.6010 0.8741 0.4804
C3_3 C 0.65272(16) 0.9185(2) 0.59994(15)
C4_3 C 0.73559(18) 0.9386(3) 0.66289(19)
H3_3 H 0.7390 0.9581 0.7149
C5_3 C 0.8114(2) 0.9294(3) 0.6473(2)
H4_3 H 0.8655 0.9442 0.6899
C6_3 C 0.56544(16) 0.9803(2) 0.66862(16)
C12_3 C 0.44361(19) 0.6808(3) 0.31005(17)
H10_3 H 0.4958 0.6483 0.3126
C13_3 C 0.44037(18) 0.7196(3) 0.38224(16)
H11_3 H 0.4895 0.7122 0.4313
C14_3 C 0.36447(16) 0.7693(2) 0.38194(14)
C15_3 C 0.29449(18) 0.7796(2) 0.30507(15)
H12_3 H 0.2422 0.8139 0.3002
C16_3 C 0.30439(19) 0.7379(3) 0.23670(16)
H13_3 H 0.2572 0.7457 0.1863
C17_3 C 0.28745(17) 0.8226(2) 0.46411(15)
H14_3 H 0.2350 0.8075 0.4196
C18_3 C 0.0998(2) 0.9409(3) 0.5939(2)
H15_3 H 0.0915 0.9893 0.6301
C19_3 C 0.18233(18) 0.9365(3) 0.58876(18)
H16_3 H 0.2276 0.9811 0.6211
C20_3 C 0.19800(17) 0.8655(3) 0.53538(16)
C21_3 C 0.1273(2) 0.8006(4) 0.4909(2)
H17_3 H 0.1342 0.7493 0.4560
C22_3 C 0.0463(2) 0.8125(4) 0.4986(3)
N9_2 N 0.49599(17) 0.6948(2) 0.62662(15)
H18_2 H 0.9990 0.7708 0.4658
Cu6_2 Cu 0.08008(3) 0.38711(5) 0.94143(3)
N6_4 N 0.63614(13) 0.30622(18) 0.04330(12)
H1_4 H 0.2677 0.3612 0.0367
H2_4 H 0.3990 0.3741 0.0196
C12_4 C 0.55639(19) 0.1808(3) 0.18995(17)
H10_4 H 0.5042 0.1483 0.1874
C13_4 C 0.55963(18) 0.2196(3) 0.11776(16)
H11_4 H 0.5105 0.2122 0.0687
C14_4 C 0.63553(16) 0.2693(2) 0.11806(14)
C15_4 C 0.70551(18) 0.2796(2) 0.19493(15)
H12_4 H 0.7578 0.3139 0.1998
C16_4 C 0.69561(19) 0.2379(3) 0.26330(16)
H13_4 H 0.7428 0.2457 0.3137
C17_4 C 0.71255(17) 0.3226(2) 0.03589(15)
H14_4 H 0.7650 0.3075 0.0804
C21_4 C 0.8727(2) 0.3006(4) 0.0091(2)
H17_4 H 0.8658 0.2493 0.0440
C22_4 C 0.9537(2) 0.3125(4) 0.0014(3)
N1_4 N 0.18722(16) 0.4003(2) 0.92550(18)
N2_4 N 0.42786(13) 0.42105(18) 0.89037(13)
N3_4 N 0.50737(13) 0.48450(18) 0.81539(13)
N7_4 N 0.71772(13) 0.3600(2) 0.96713(13)
N8_2 N 0.96771(17) 0.3807(3) 0.94932(18)
C1_4 C 0.2665(2) 0.3810(3) 0.9854(2)
C2_4 C 0.34598(19) 0.3887(3) 0.97570(18)
C3_4 C 0.34728(16) 0.4185(2) 0.90006(15)
C4_4 C 0.26441(18) 0.4386(3) 0.83711(19)
H3_4 H 0.2610 0.4581 0.7851
C5_4 C 0.1886(2) 0.4294(3) 0.8527(2)
H4_4 H 0.1345 0.4442 0.8101
C6_4 C 0.43456(16) 0.4803(2) 0.83138(16)
H5_4 H 0.3859 0.5210 0.7997
C7_4 C 0.5680(2) 0.6872(3) 0.69635(19)
H6_4 H 0.6161 0.7313 0.7033
C8_4 C 0.57451(18) 0.6171(3) 0.75867(18)
H7_4 H 0.6265 0.6134 0.8056
C9_4 C 0.50264(17) 0.5523(2) 0.75057(16)
C10_4 C 0.42806(19) 0.5591(2) 0.67683(18)
H8_4 H 0.3790 0.5159 0.6678
C11_4 C 0.4279(2) 0.6303(3) 0.61785(19)
H9_4 H 0.3778 0.6338 0.5692
C18_4 C 0.9002(2) 0.4409(3) 0.9061(2)
H15_4 H 0.9085 0.4893 0.8699
C19_4 C 0.81767(18) 0.4365(3) 0.91124(18)
H16_4 H 0.7724 0.4811 0.8789
C20_4 C 0.80200(17) 0.3655(3) 0.96462(16)
H18_3 H 0.9990 0.7292 0.9658
H18_4 H 0.0010 0.2708 0.0342
Cl1 Cl 0.19156(13) 0.2931(2) 0.62728(16)
O1 O 0.1540(4) 0.2939(6) 0.5395(4)
O2 O 0.2728(4) 0.3480(6) 0.6554(5)
O3 O 0.1289(4) 0.3408(6) 0.6557(4)
O4 O 0.2032(5) 0.1867(5) 0.6474(6)
Cl1_2 Cl 0.80844(13) 0.7931(2) 0.87272(16)
O1_2 O 0.8460(4) 0.7939(6) 0.9605(4)
O2_2 O 0.7272(4) 0.8480(6) 0.8446(5)
O3_2 O 0.8711(4) 0.8408(6) 0.8443(4)
O4_2 O 0.7968(5) 0.6867(5) 0.8526(6)
Cl1_3 Cl 0.80844(13) 0.7069(2) 0.37272(16)
O1_3 O 0.8460(4) 0.7061(6) 0.4605(4)
O2_3 O 0.7272(4) 0.6520(6) 0.3446(5)
O3_3 O 0.8711(4) 0.6592(6) 0.3443(4)
O4_3 O 0.7968(5) 0.8133(5) 0.3526(6)
Cl1_4 Cl 0.19156(13) 0.2069(2) 0.12728(16)
O1_4 O 0.1540(4) 0.2061(6) 0.0395(4)
O2_4 O 0.2728(4) 0.1520(6) 0.1554(5)
O3_4 O 0.1289(4) 0.1592(6) 0.1557(4)
O4_4 O 0.2032(5) 0.3133(5) 0.1474(6)
loop_
_geom_bond_atom_site_label_1
_geom_bond_atom_site_label_2
_geom_bond_site_symmetry_1
_geom_bond_site_symmetry_2
Cu1 Cu2 1_555 1_555
Cu2 N3 1_555 1_555
Cu6 N1 1_555 1_555
N1 C1 1_555 1_555
N2 Cu1 1_555 1_555
N3 C6 1_555 1_555
N5 C12 1_555 1_555
N6 Cu1 1_555 1_555
N7 Cu2 1_555 1_555
N8 C18 1_555 1_555
C1 H1 1_555 1_555
C2 C1 1_555 1_555
H2 C2 1_555 1_555
C3 N2 1_555 1_555
C4 C3 1_555 1_555
H3 C4 1_555 1_555
C5 N1 1_555 1_555
H4 C5 1_555 1_555
C6 N2 1_555 1_555
C12 H10 1_555 1_555
C13 C12 1_555 1_555
H11 C13 1_555 1_555
C14 N6 1_555 1_555
C15 C14 1_555 1_555
H12 C15 1_555 1_555
C16 N5 1_555 1_555
H13 C16 1_555 1_555
C17 N6 1_555 1_555
H14 C17 1_555 1_555
C18 H15 1_555 1_555
C19 C18 1_555 1_555
H16 C19 1_555 1_555
C20 N7 1_555 1_555
C21 C20 1_555 1_555
H17 C21 1_555 1_555
C22 N8 1_555 1_555
Cu5 N5 1_555 1_555
N9 Cu1 1_555 1_555
N10 Cu2 1_555 1_555
N7 C17 1_555 1_555
C2 C3 1_555 1_555
C4 C5 1_555 1_555
C13 C14 1_555 1_555
C15 C16 1_555 1_555
C19 C20 1_555 1_555
C21 C22 1_555 1_555
N4 C7 1_555 1_555
C7 H6 1_555 1_555
C8 C7 1_555 1_555
H7 C8 1_555 1_555
C10 C9 1_555 1_555
H8 C10 1_555 1_555
C11 N4 1_555 1_555
H9 C11 1_555 1_555
Cu4 N4 1_555 1_555
C8 C9 1_555 1_555
C10 C11 1_555 1_555
Cu4 Cu2_2 1_555 1_555
Cu2_2 N3_2 1_555 1_555
Cu3 N1_2 1_555 1_555
N1_2 C1_2 1_555 1_555
N2_2 Cu4 1_555 1_555
N3_2 C6_2 1_555 1_555
N9 C7_2 1_555 1_555
N7_2 Cu2_2 1_555 1_555
N11 C18_2 1_555 1_555
C2_2 C1_2 1_555 1_555
C3_2 N2_2 1_555 1_555
C4_2 C3_2 1_555 1_555
H3_2 C4_2 1_555 1_555
C5_2 N1_2 1_555 1_555
H4_2 C5_2 1_555 1_555
C6_2 N2_2 1_555 1_555
H5_2 C6_2 1_555 1_555
C7_2 H6_2 1_555 1_555
C8_2 C7_2 1_555 1_555
H7_2 C8_2 1_555 1_555
C9_2 N3_2 1_555 1_555
C10_2 C9_2 1_555 1_555
H8_2 C10_2 1_555 1_555
C11_2 N9 1_555 1_555
H9_2 C11_2 1_555 1_555
C18_2 H15_2 1_555 1_555
C19_2 C18_2 1_555 1_555
H16_2 C19_2 1_555 1_555
C20_2 N7_2 1_555 1_555
N10_2 Cu2_2 1_555 1_555
C2_2 C3_2 1_555 1_555
C4_2 C5_2 1_555 1_555
C8_2 C9_2 1_555 1_555
C10_2 C11_2 1_555 1_555
C19_2 C20_2 1_555 1_555
N5_2 C12_2 1_555 1_555
C12_2 H10_2 1_555 1_555
C13_2 C12_2 1_555 1_555
H11_2 C13_2 1_555 1_555
C14_2 N6_2 1_555 1_555
C15_2 C14_2 1_555 1_555
H12_2 C15_2 1_555 1_555
C16_2 N5_2 1_555 1_555
H13_2 C16_2 1_555 1_555
C17_2 N6_2 1_555 1_555
H14_2 C17_2 1_555 1_555
H17_2 C21_2 1_555 1_555
Cu5_2 N5_2 1_555 1_555
C13_2 C14_2 1_555 1_555
C15_2 C16_2 1_555 1_555
C21_2 C22_2 1_555 1_555
N4_2 C7_3 1_555 1_555
C7_3 H6_3 1_555 1_555
C8_3 C7_3 1_555 1_555
H7_3 C8_3 1_555 1_555
C10_3 C9_3 1_555 1_555
H8_3 C10_3 1_555 1_555
C11_3 N4_2 1_555 1_555
H9_3 C11_3 1_555 1_555
Cu4_2 N4_2 1_555 1_555
C8_3 C9_3 1_555 1_555
C10_3 C11_3 1_555 1_555
Cu1_2 Cu5_2 1_555 1_555
Cu5_2 N3_3 1_555 1_555
Cu3_2 N1_3 1_555 1_555
N1_3 C1_3 1_555 1_555
N2_3 Cu1_2 1_555 1_555
N3_3 C6_3 1_555 1_555
N10_2 C12_3 1_555 1_555
N6_3 Cu1_2 1_555 1_555
N7_3 Cu5_2 1_555 1_555
N11_2 C18_3 1_555 1_555
C1_3 H1_3 1_555 1_555
C2_3 C1_3 1_555 1_555
H2_3 C2_3 1_555 1_555
C3_3 N2_3 1_555 1_555
C4_3 C3_3 1_555 1_555
H3_3 C4_3 1_555 1_555
C5_3 N1_3 1_555 1_555
H4_3 C5_3 1_555 1_555
C6_3 N2_3 1_555 1_555
C12_3 H10_3 1_555 1_555
C13_3 C12_3 1_555 1_555
H11_3 C13_3 1_555 1_555
C14_3 N6_3 1_555 1_555
C15_3 C14_3 1_555 1_555
H12_3 C15_3 1_555 1_555
C16_3 N10_2 1_555 1_555
H13_3 C16_3 1_555 1_555
C17_3 N6_3 1_555 1_555
H14_3 C17_3 1_555 1_555
C18_3 H15_3 1_555 1_555
C19_3 C18_3 1_555 1_555
H16_3 C19_3 1_555 1_555
C20_3 N7_3 1_555 1_555
C21_3 C20_3 1_555 1_555
H17_3 C21_3 1_555 1_555
C22_3 N11_2 1_555 1_555
N9_2 Cu1_2 1_555 1_555
N7_3 C17_3 1_555 1_555
C2_3 C3_3 1_555 1_555
C4_3 C5_3 1_555 1_555
C13_3 C14_3 1_555 1_555
C15_3 C16_3 1_555 1_555
C19_3 C20_3 1_555 1_555
C21_3 C22_3 1_555 1_555
N10 C12_4 1_555 1_555
C12_4 H10_4 1_555 1_555
C13_4 C12_4 1_555 1_555
H11_4 C13_4 1_555 1_555
C14_4 N6_4 1_555 1_555
C15_4 C14_4 1_555 1_555
H12_4 C15_4 1_555 1_555
C16_4 N10 1_555 1_555
H13_4 C16_4 1_555 1_555
C17_4 N6_4 1_555 1_555
H14_4 C17_4 1_555 1_555
H17_4 C21_4 1_555 1_555
C13_4 C14_4 1_555 1_555
C15_4 C16_4 1_555 1_555
C21_4 C22_4 1_555 1_555
Cu4_2 Cu5 1_555 1_555
Cu5 N3_4 1_555 1_555
Cu6_2 N1_4 1_555 1_555
N1_4 C1_4 1_555 1_555
N2_4 Cu4_2 1_555 1_555
N3_4 C6_4 1_555 1_555
N9_2 C7_4 1_555 1_555
N7_4 Cu5 1_555 1_555
N8_2 C18_4 1_555 1_555
C2_4 C1_4 1_555 1_555
C3_4 N2_4 1_555 1_555
C4_4 C3_4 1_555 1_555
H3_4 C4_4 1_555 1_555
C5_4 N1_4 1_555 1_555
H4_4 C5_4 1_555 1_555
C6_4 N2_4 1_555 1_555
H5_4 C6_4 1_555 1_555
C7_4 H6_4 1_555 1_555
C8_4 C7_4 1_555 1_555
H7_4 C8_4 1_555 1_555
C9_4 N3_4 1_555 1_555
C10_4 C9_4 1_555 1_555
H8_4 C10_4 1_555 1_555
C11_4 N9_2 1_555 1_555
H9_4 C11_4 1_555 1_555
C18_4 H15_4 1_555 1_555
C19_4 C18_4 1_555 1_555
H16_4 C19_4 1_555 1_555
C20_4 N7_4 1_555 1_555
C2_4 C3_4 1_555 1_555
C4_4 C5_4 1_555 1_555
C8_4 C9_4 1_555 1_555
C10_4 C11_4 1_555 1_555
C19_4 C20_4 1_555 1_555
Cl1 O1 1_555 1_555
O2 Cl1 1_555 1_555
O3 Cl1 1_555 1_555
O4 Cl1 1_555 1_555
Cl1_2 O1_2 1_555 1_555
O2_2 Cl1_2 1_555 1_555
O3_2 Cl1_2 1_555 1_555
O4_2 Cl1_2 1_555 1_555
Cl1_3 O1_3 1_555 1_555
O2_3 Cl1_3 1_555 1_555
O3_3 Cl1_3 1_555 1_555
O4_3 Cl1_3 1_555 1_555
Cl1_4 O1_4 1_555 1_555
O2_4 Cl1_4 1_555 1_555
O3_4 Cl1_4 1_555 1_555
O4_4 Cl1_4 1_555 1_555

#END
