
###############################################################################
#
# This file contains modified crystal structure data generated from the
# MOF subset of the Cambridge Structural Database (CSD) v543 
# hosted by the Cambridge Crystallographic Data Centre (CCDC).
#
# This work is licensed under the Creative Commons
# Attribution-NonCommercial-ShareAlike 4.0 International License.
# To view a copy of this license, visit
# http://creativecommons.org/licenses/by-nc-sa/4.0/
# or send a letter to
# Creative Commons, PO Box 1866, Mountain View, CA 94042, USA.
#
# CIF created using the CSD Python API on 29 September 2022
# The structure has been converted into the P1 space group
# The structure has a 3D framework
# The original CSD entry JORHUW is in the monoclinic crystal system
# The framework has been calculated to contain at least 10.0% void space
# The void calculation uses a probe of radius 1.32A, grid spacing 0.4
#
###############################################################################

data_JORHUW
_chemical_formula_moiety         '(C208 H176 Cd8 N24 O48)n'
_symmetry_cell_setting           triclinic
_symmetry_space_group_name_H-M   'P 1'
_symmetry_Int_Tables_number      1
_space_group_name_Hall           'P 1'
loop_
_symmetry_equiv_pos_site_id
_symmetry_equiv_pos_as_xyz
1 x,y,z
_cell_length_a                   20.4708(4)
_cell_length_b                   14.0518(4)
_cell_length_c                   21.2056(6)
_cell_angle_alpha                90
_cell_angle_beta                 116.510(2)
_cell_angle_gamma                90
_cell_volume                     5458.47
loop_
_atom_site_label
_atom_site_type_symbol
_atom_site_fract_x
_atom_site_fract_y
_atom_site_fract_z
Cd1 Cd 0.19020(2) 0.38000(2) 0.61875(2)
C1 C 0.04089(16) 0.37246(17) 0.27006(13)
O1 O 0.31147(9) 0.37518(11) 0.61029(9)
O2 O 0.56694(10) 0.37554(13) 0.89524(9)
H1 H 0.611224 0.381348 0.910201
O3 O 0.30708(9) 0.37514(12) 0.71193(10)
N1 N 0.18690(10) 0.21101(14) 0.62232(9)
O4 O 0.14967(11) 0.39027(13) 0.70136(12)
N2 N 0.13280(10) 0.37681(12) 0.49674(9)
O5 O 0.04882(14) 0.38471(14) 0.60278(12)
O6 O 0.07626(14) 0.38016(16) 0.89426(12)
H2 H 0.107457 0.338404 0.905886
C3 C 0.42398(11) 0.37450(13) 0.71434(11)
C4 C 0.53480(12) 0.37472(14) 0.82362(11)
C5 C 0.03885(13) 0.38248(14) 0.71022(13)
C6 C 0.02891(15) 0.3724(2) 0.38491(14)
C7 C 0.03792(14) 0.38132(15) 0.82383(13)
C8 C 0.22262(18) 0.06606(19) 0.68727(14)
H6 H 0.246447 0.036654 0.731002
C9 C 0.06180(14) 0.37406(19) 0.45790(13)
H7 H 0.032020 0.373158 0.480578
C10 C 0.18986(16) 0.01167(18) 0.62717(14)
C11 C 0.45908(12) 0.37450(14) 0.78722(12)
H8 H 0.431572 0.374356 0.812232
C12 C 0.14423(17) 0.3765(2) 0.38996(15)
H9 H 0.175163 0.376893 0.368505
C13 C 0.1559(2) 0.0607(2) 0.56483(16)
H10 H 0.133222 0.027454 0.522577
C14 C 0.15515(19) 0.15900(19) 0.56441(14)
H11 H 0.131187 0.190127 0.521381
C15 C 0.34243(12) 0.37479(14) 0.67671(12)
C16 C 0.22021(17) 0.16374(19) 0.68283(14)
H12 H 0.243053 0.198610 0.724299
C17 C 0.08180(16) 0.38578(15) 0.66831(16)
C18 C 0.07510(13) 0.38217(15) 0.78295(14)
H13 H 0.125869 0.382549 0.805092
C19 C 0.17304(16) 0.3782(2) 0.46166(15)
H14 H 0.223556 0.380549 0.487546
C20 C 0.07062(15) 0.37428(14) 0.34948(12)
H21 H 0.0576(16) 0.427(2) 0.2541(16)
H22 H 0.0569(15) 0.315(2) 0.2521(16)
H23 H 0.021700 0.370102 0.140034
O7 O 0.68853(9) 0.37518(11) 0.88971(9)
O8 O 0.43306(10) 0.37554(13) 0.60476(9)
H29 H 0.388776 0.381348 0.589799
O9 O 0.69292(9) 0.37514(12) 0.78807(10)
C33 C 0.57602(11) 0.37450(13) 0.78566(11)
C34 C 0.46520(12) 0.37472(14) 0.67638(11)
C35 C 0.54092(12) 0.37450(14) 0.71278(12)
H30 H 0.568428 0.374356 0.687768
C36 C 0.65757(12) 0.37479(14) 0.82329(12)
Cd6 Cd 0.80980(2) 0.38000(2) 0.88125(2)
N7 N 0.19795(11) 0.54902(13) 0.60770(11)
C2 C 0.1913(2) 0.9045(2) 0.63148(18)
H3 H 0.230917 0.886222 0.676399
H4 H 0.146220 0.883602 0.631590
C21 C 0.1397(2) 0.5995(2) 0.5804(3)
H15 H 0.095332 0.568952 0.567897
C22 C 0.19992(18) 0.74548(18) 0.58560(15)
C23 C 0.2596(2) 0.5970(2) 0.6243(3)
H16 H 0.303380 0.563596 0.644329
C24 C 0.1383(2) 0.6967(2) 0.5682(3)
H17 H 0.093783 0.728358 0.547510
C25 C 0.2621(2) 0.6928(2) 0.6134(3)
H18 H 0.306866 0.721982 0.625175
C26 C 0.2002(2) 0.85189(19) 0.57548(18)
H19 H 0.245793 0.870409 0.575455
H20 H 0.160763 0.868817 0.530068
H5 H 0.978300 0.370102 0.359966
C27 C 0.95911(16) 0.37246(17) 0.22994(13)
N4 N 0.86720(10) 0.37681(12) 0.00326(9)
C28 C 0.97109(15) 0.3724(2) 0.11509(14)
C29 C 0.93820(14) 0.37406(19) 0.04210(13)
H24 H 0.967980 0.373158 0.019422
C30 C 0.85577(17) 0.3765(2) 0.11004(15)
H25 H 0.824837 0.376893 0.131495
C31 C 0.82696(16) 0.3782(2) 0.03834(15)
H26 H 0.776444 0.380549 0.012454
C32 C 0.92938(15) 0.37428(14) 0.15052(12)
H27 H 0.9424(16) 0.427(2) 0.2459(16)
H28 H 0.9431(15) 0.315(2) 0.2479(16)
O10 O 0.85033(11) 0.39027(13) 0.79864(12)
O11 O 0.95118(14) 0.38471(14) 0.89722(12)
O12 O 0.92374(14) 0.38016(16) 0.60574(12)
H31 H 0.892543 0.338404 0.594114
C37 C 0.96115(13) 0.38248(14) 0.78978(13)
C38 C 0.96208(14) 0.38132(15) 0.67617(13)
C39 C 0.91820(16) 0.38578(15) 0.83169(16)
C40 C 0.92490(13) 0.38217(15) 0.71705(14)
H32 H 0.874131 0.382549 0.694908
N5 N 0.81310(10) 0.21101(14) 0.87768(9)
C42 C 0.77738(18) 0.06606(19) 0.81273(14)
H35 H 0.753553 0.036654 0.768998
C43 C 0.81014(16) 0.01167(18) 0.87283(14)
C44 C 0.8441(2) 0.0607(2) 0.93517(16)
H36 H 0.866778 0.027454 0.977423
C45 C 0.84485(19) 0.15900(19) 0.93559(14)
H37 H 0.868813 0.190127 0.978619
C46 C 0.77979(17) 0.16374(19) 0.81717(14)
H38 H 0.756947 0.198610 0.775701
N8 N 0.80205(11) 0.54902(13) 0.89230(11)
C41 C 0.8087(2) 0.9045(2) 0.86852(18)
H33 H 0.769083 0.886222 0.823601
H34 H 0.853780 0.883602 0.868410
C47 C 0.8603(2) 0.5995(2) 0.9196(3)
H39 H 0.904668 0.568952 0.932103
C48 C 0.80008(18) 0.74548(18) 0.91440(15)
C49 C 0.7404(2) 0.5970(2) 0.8757(3)
H40 H 0.696620 0.563596 0.855671
C50 C 0.8617(2) 0.6967(2) 0.9318(3)
H41 H 0.906217 0.728358 0.952490
C51 C 0.7379(2) 0.6928(2) 0.8866(3)
H42 H 0.693134 0.721982 0.874825
C52 C 0.7998(2) 0.85189(19) 0.92452(18)
H43 H 0.754207 0.870409 0.924545
H44 H 0.839237 0.868817 0.969932
O2_2 O 0.06694(10) 0.87554(13) 0.89524(9)
H1_2 H 0.111224 0.881348 0.910201
C4_2 C 0.03480(12) 0.87472(14) 0.82362(11)
O7_2 O 0.18853(9) 0.87518(11) 0.88971(9)
O9_2 O 0.19292(9) 0.87514(12) 0.78807(10)
C33_2 C 0.07602(11) 0.87450(13) 0.78566(11)
C35_2 C 0.04092(12) 0.87450(14) 0.71278(12)
H30_2 H 0.068428 0.874356 0.687768
C36_2 C 0.15757(12) 0.87479(14) 0.82329(12)
Cd6_2 Cd 0.30980(2) 0.88000(2) 0.88125(2)
N7_2 N 0.69795(11) 0.04902(13) 0.60770(11)
N8_2 N 0.30205(11) 0.04902(13) 0.89230(11)
Cd1_2 Cd 0.69020(2) 0.88000(2) 0.61875(2)
C1_2 C 0.54089(16) 0.87246(17) 0.27006(13)
O1_2 O 0.81147(9) 0.87518(11) 0.61029(9)
O3_2 O 0.80708(9) 0.87514(12) 0.71193(10)
N1_2 N 0.68690(10) 0.71101(14) 0.62232(9)
O4_2 O 0.64967(11) 0.89027(13) 0.70136(12)
N2_2 N 0.63280(10) 0.87681(12) 0.49674(9)
O5_2 O 0.54882(14) 0.88471(14) 0.60278(12)
O6_2 O 0.57626(14) 0.88016(16) 0.89426(12)
H2_2 H 0.607457 0.838404 0.905886
C2_2 C 0.6913(2) 0.4045(2) 0.63148(18)
H3_2 H 0.730917 0.386222 0.676399
H4_2 H 0.646220 0.383602 0.631590
C3_2 C 0.92398(11) 0.87450(13) 0.71434(11)
C5_2 C 0.53885(13) 0.88248(14) 0.71022(13)
C6_2 C 0.52891(15) 0.8724(2) 0.38491(14)
H5_2 H 0.478300 0.870102 0.359966
C7_2 C 0.53792(14) 0.88132(15) 0.82383(13)
C8_2 C 0.72262(18) 0.56606(19) 0.68727(14)
H6_2 H 0.746447 0.536654 0.731002
C9_2 C 0.56180(14) 0.87406(19) 0.45790(13)
H7_2 H 0.532020 0.873158 0.480578
C10_2 C 0.68986(16) 0.51167(18) 0.62717(14)
C11_2 C 0.95908(12) 0.87450(14) 0.78722(12)
H8_2 H 0.931572 0.874356 0.812232
C12_2 C 0.64423(17) 0.8765(2) 0.38996(15)
H9_2 H 0.675163 0.876893 0.368505
C13_2 C 0.6559(2) 0.5607(2) 0.56483(16)
H10_2 H 0.633222 0.527454 0.522577
C14_2 C 0.65515(19) 0.65900(19) 0.56441(14)
H11_2 H 0.631187 0.690127 0.521381
C15_2 C 0.84243(12) 0.87479(14) 0.67671(12)
C16_2 C 0.72021(17) 0.66374(19) 0.68283(14)
H12_2 H 0.743053 0.698610 0.724299
C17_2 C 0.58180(16) 0.88578(15) 0.66831(16)
C18_2 C 0.57510(13) 0.88217(15) 0.78295(14)
H13_2 H 0.625869 0.882549 0.805092
C19_2 C 0.67304(16) 0.8782(2) 0.46166(15)
H14_2 H 0.723556 0.880549 0.487546
C20_2 C 0.57062(15) 0.87428(14) 0.34948(12)
C21_2 C 0.6397(2) 0.0995(2) 0.5804(3)
H15_2 H 0.595332 0.068952 0.567897
C22_2 C 0.69992(18) 0.24548(18) 0.58560(15)
C23_2 C 0.7596(2) 0.0970(2) 0.6243(3)
H16_2 H 0.803380 0.063596 0.644329
C24_2 C 0.6383(2) 0.1967(2) 0.5682(3)
H17_2 H 0.593783 0.228358 0.547510
C25_2 C 0.7621(2) 0.1928(2) 0.6134(3)
H18_2 H 0.806866 0.221982 0.625175
C26_2 C 0.7002(2) 0.35189(19) 0.57548(18)
H19_2 H 0.745793 0.370409 0.575455
H20_2 H 0.660763 0.368817 0.530068
H21_2 H 0.5576(16) 0.927(2) 0.2541(16)
H22_2 H 0.5569(15) 0.815(2) 0.2521(16)
C27_2 C 0.45911(16) 0.87246(17) 0.22994(13)
N4_2 N 0.36720(10) 0.87681(12) 0.00326(9)
C28_2 C 0.47109(15) 0.8724(2) 0.11509(14)
H23_2 H 0.521700 0.870102 0.140034
C29_2 C 0.43820(14) 0.87406(19) 0.04210(13)
H24_2 H 0.467980 0.873158 0.019422
C30_2 C 0.35577(17) 0.8765(2) 0.11004(15)
H25_2 H 0.324837 0.876893 0.131495
C31_2 C 0.32696(16) 0.8782(2) 0.03834(15)
H26_2 H 0.276444 0.880549 0.012454
C32_2 C 0.42938(15) 0.87428(14) 0.15052(12)
H27_2 H 0.4424(16) 0.927(2) 0.2459(16)
H28_2 H 0.4431(15) 0.815(2) 0.2479(16)
O8_2 O 0.93306(10) 0.87554(13) 0.60476(9)
H29_2 H 0.888776 0.881348 0.589799
C34_2 C 0.96520(12) 0.87472(14) 0.67638(11)
O10_2 O 0.35033(11) 0.89027(13) 0.79864(12)
O11_2 O 0.45118(14) 0.88471(14) 0.89722(12)
O12_2 O 0.42374(14) 0.88016(16) 0.60574(12)
H31_2 H 0.392543 0.838404 0.594114
C37_2 C 0.46115(13) 0.88248(14) 0.78978(13)
C38_2 C 0.46208(14) 0.88132(15) 0.67617(13)
C39_2 C 0.41820(16) 0.88578(15) 0.83169(16)
C40_2 C 0.42490(13) 0.88217(15) 0.71705(14)
H32_2 H 0.374131 0.882549 0.694908
N5_2 N 0.31310(10) 0.71101(14) 0.87768(9)
C41_2 C 0.3087(2) 0.4045(2) 0.86852(18)
H33_2 H 0.269083 0.386222 0.823601
H34_2 H 0.353780 0.383602 0.868410
C42_2 C 0.27738(18) 0.56606(19) 0.81273(14)
H35_2 H 0.253553 0.536654 0.768998
C43_2 C 0.31014(16) 0.51167(18) 0.87283(14)
C44_2 C 0.3441(2) 0.5607(2) 0.93517(16)
H36_2 H 0.366778 0.527454 0.977423
C45_2 C 0.34485(19) 0.65900(19) 0.93559(14)
H37_2 H 0.368813 0.690127 0.978619
C46_2 C 0.27979(17) 0.66374(19) 0.81717(14)
H38_2 H 0.256947 0.698610 0.775701
C47_2 C 0.3603(2) 0.0995(2) 0.9196(3)
H39_2 H 0.404668 0.068952 0.932103
C48_2 C 0.30008(18) 0.24548(18) 0.91440(15)
C49_2 C 0.2404(2) 0.0970(2) 0.8757(3)
H40_2 H 0.196620 0.063596 0.855671
C50_2 C 0.3617(2) 0.1967(2) 0.9318(3)
H41_2 H 0.406217 0.228358 0.952490
C51_2 C 0.2379(2) 0.1928(2) 0.8866(3)
H42_2 H 0.193134 0.221982 0.874825
C52_2 C 0.2998(2) 0.35189(19) 0.92452(18)
H43_2 H 0.254207 0.370409 0.924545
H44_2 H 0.339237 0.368817 0.969932
N6 N 0.19795(11) 0.45098(13) 0.10770(11)
C41_3 C 0.1913(2) 0.0955(2) 0.13148(18)
H33_3 H 0.230917 0.113778 0.176399
H34_3 H 0.146220 0.116398 0.131590
C47_3 C 0.1397(2) 0.4005(2) 0.0804(3)
H39_3 H 0.095332 0.431048 0.067897
C48_3 C 0.19992(18) 0.25452(18) 0.08560(15)
C49_3 C 0.2596(2) 0.4030(2) 0.1243(3)
H40_3 H 0.303380 0.436404 0.144329
C50_3 C 0.1383(2) 0.3033(2) 0.0682(3)
H41_3 H 0.093783 0.271642 0.047510
C51_3 C 0.2621(2) 0.3072(2) 0.1134(3)
H42_3 H 0.306866 0.278018 0.125175
C52_3 C 0.2002(2) 0.14811(19) 0.07548(18)
H43_3 H 0.245793 0.129591 0.075455
H44_3 H 0.160763 0.131183 0.030068
Cd4 Cd 0.19020(2) 0.62000(2) 0.11875(2)
N5_3 N 0.18690(10) 0.78899(14) 0.12232(9)
C42_3 C 0.22262(18) 0.93394(19) 0.18727(14)
H35_3 H 0.246447 0.963346 0.231002
C43_3 C 0.18986(16) 0.98833(18) 0.12717(14)
C44_3 C 0.1559(2) 0.9393(2) 0.06483(16)
H36_3 H 0.133222 0.972546 0.022577
C45_3 C 0.15515(19) 0.84100(19) 0.06441(14)
H37_3 H 0.131187 0.809873 0.021381
C46_3 C 0.22021(17) 0.83626(19) 0.18283(14)
H38_3 H 0.243053 0.801390 0.224299
O13 O 0.31147(9) 0.62482(11) 0.11029(9)
O14 O 0.30708(9) 0.62486(12) 0.21193(10)
O15 O 0.14967(11) 0.60973(13) 0.20136(12)
O16 O 0.04882(14) 0.61529(14) 0.10278(12)
H5_3 H 0.021700 0.629898 0.640034
C27_3 C 0.04089(16) 0.62754(17) 0.77006(13)
N4_3 N 0.13280(10) 0.62319(12) 0.99674(9)
C28_3 C 0.02891(15) 0.6276(2) 0.88491(14)
C29_3 C 0.06180(14) 0.62594(19) 0.95790(13)
H24_3 H 0.032020 0.626842 0.980578
C30_3 C 0.14423(17) 0.6235(2) 0.88996(15)
H25_3 H 0.175163 0.623107 0.868505
C31_3 C 0.17304(16) 0.6218(2) 0.96166(15)
H26_3 H 0.223556 0.619451 0.987546
C32_3 C 0.07062(15) 0.62572(14) 0.84948(12)
H27_3 H 0.0576(16) 0.573(2) 0.7541(16)
H28_3 H 0.0569(15) 0.685(2) 0.7521(16)
O12_3 O 0.07626(14) 0.61984(16) 0.39426(12)
H31_3 H 0.107457 0.661596 0.405886
C37_3 C 0.03885(13) 0.61752(14) 0.21022(13)
C38_3 C 0.03792(14) 0.61868(15) 0.32383(13)
C39_3 C 0.08180(16) 0.61422(15) 0.16831(16)
C40_3 C 0.07510(13) 0.61783(15) 0.28295(14)
H32_3 H 0.125869 0.617451 0.305092
N3 N 0.80205(11) 0.45098(13) 0.39230(11)
C2_3 C 0.8087(2) 0.0955(2) 0.36852(18)
H3_3 H 0.769083 0.113778 0.323601
H4_3 H 0.853780 0.116398 0.368410
C21_3 C 0.8603(2) 0.4005(2) 0.4196(3)
H15_3 H 0.904668 0.431048 0.432103
C22_3 C 0.80008(18) 0.25452(18) 0.41440(15)
C23_3 C 0.7404(2) 0.4030(2) 0.3757(3)
H16_3 H 0.696620 0.436404 0.355671
C24_3 C 0.8617(2) 0.3033(2) 0.4318(3)
H17_3 H 0.906217 0.271642 0.452490
C25_3 C 0.7379(2) 0.3072(2) 0.3866(3)
H18_3 H 0.693134 0.278018 0.374825
C26_3 C 0.7998(2) 0.14811(19) 0.42452(18)
H19_3 H 0.754207 0.129591 0.424545
H20_3 H 0.839237 0.131183 0.469932
Cd3 Cd 0.80980(2) 0.62000(2) 0.38125(2)
C1_3 C 0.95911(16) 0.62754(17) 0.72994(13)
O1_3 O 0.68853(9) 0.62482(11) 0.38971(9)
O2_3 O 0.43306(10) 0.62446(13) 0.10476(9)
H1_3 H 0.388776 0.618652 0.089799
O3_3 O 0.69292(9) 0.62486(12) 0.28807(10)
N1_3 N 0.81310(10) 0.78899(14) 0.37768(9)
O4_3 O 0.85033(11) 0.60973(13) 0.29864(12)
N2_3 N 0.86720(10) 0.62319(12) 0.50326(9)
O5_3 O 0.95118(14) 0.61529(14) 0.39722(12)
O6_3 O 0.92374(14) 0.61984(16) 0.10574(12)
H2_3 H 0.892543 0.661596 0.094114
C3_3 C 0.57602(11) 0.62550(13) 0.28566(11)
C4_3 C 0.46520(12) 0.62528(14) 0.17638(11)
C5_3 C 0.96115(13) 0.61752(14) 0.28978(13)
C6_3 C 0.97109(15) 0.6276(2) 0.61509(14)
C7_3 C 0.96208(14) 0.61868(15) 0.17617(13)
C8_3 C 0.77738(18) 0.93394(19) 0.31273(14)
H6_3 H 0.753553 0.963346 0.268998
C9_3 C 0.93820(14) 0.62594(19) 0.54210(13)
H7_3 H 0.967980 0.626842 0.519422
C10_3 C 0.81014(16) 0.98833(18) 0.37283(14)
C11_3 C 0.54092(12) 0.62550(14) 0.21278(12)
H8_3 H 0.568428 0.625644 0.187768
C12_3 C 0.85577(17) 0.6235(2) 0.61004(15)
H9_3 H 0.824837 0.623107 0.631495
C13_3 C 0.8441(2) 0.9393(2) 0.43517(16)
H10_3 H 0.866778 0.972546 0.477423
C14_3 C 0.84485(19) 0.84100(19) 0.43559(14)
H11_3 H 0.868813 0.809873 0.478619
C15_3 C 0.65757(12) 0.62521(14) 0.32329(12)
C16_3 C 0.77979(17) 0.83626(19) 0.31717(14)
H12_3 H 0.756947 0.801390 0.275701
C17_3 C 0.91820(16) 0.61422(15) 0.33169(16)
C18_3 C 0.92490(13) 0.61783(15) 0.21705(14)
H13_3 H 0.874131 0.617451 0.194908
C19_3 C 0.82696(16) 0.6218(2) 0.53834(15)
H14_3 H 0.776444 0.619451 0.512454
C20_3 C 0.92938(15) 0.62572(14) 0.65052(12)
H21_3 H 0.9424(16) 0.573(2) 0.7459(16)
H22_3 H 0.9431(15) 0.685(2) 0.7479(16)
H23_3 H 0.978300 0.629898 0.859966
O8_3 O 0.56694(10) 0.62446(13) 0.39524(9)
H29_3 H 0.611224 0.618652 0.410201
C33_3 C 0.42398(11) 0.62550(13) 0.21434(11)
C34_3 C 0.53480(12) 0.62528(14) 0.32362(11)
C35_3 C 0.45908(12) 0.62550(14) 0.28722(12)
H30_3 H 0.431572 0.625644 0.312232
C36_3 C 0.34243(12) 0.62521(14) 0.17671(12)
Cd4_2 Cd 0.69020(2) 0.12000(2) 0.11875(2)
Cd3_2 Cd 0.30980(2) 0.12000(2) 0.38125(2)
N5_4 N 0.68690(10) 0.28899(14) 0.12232(9)
N6_2 N 0.69795(11) 0.95098(13) 0.10770(11)
C41_4 C 0.6913(2) 0.5955(2) 0.13148(18)
H33_4 H 0.730917 0.613778 0.176399
H34_4 H 0.646220 0.616398 0.131590
C42_4 C 0.72262(18) 0.43394(19) 0.18727(14)
H35_4 H 0.746447 0.463346 0.231002
C43_4 C 0.68986(16) 0.48833(18) 0.12717(14)
C44_4 C 0.6559(2) 0.4393(2) 0.06483(16)
H36_4 H 0.633222 0.472546 0.022577
C45_4 C 0.65515(19) 0.34100(19) 0.06441(14)
H37_4 H 0.631187 0.309873 0.021381
C46_4 C 0.72021(17) 0.33626(19) 0.18283(14)
H38_4 H 0.743053 0.301390 0.224299
C47_4 C 0.6397(2) 0.9005(2) 0.0804(3)
H39_4 H 0.595332 0.931048 0.067897
C48_4 C 0.69992(18) 0.75452(18) 0.08560(15)
C49_4 C 0.7596(2) 0.9030(2) 0.1243(3)
H40_4 H 0.803380 0.936404 0.144329
C50_4 C 0.6383(2) 0.8033(2) 0.0682(3)
H41_4 H 0.593783 0.771642 0.047510
C51_4 C 0.7621(2) 0.8072(2) 0.1134(3)
H42_4 H 0.806866 0.778018 0.125175
C52_4 C 0.7002(2) 0.64811(19) 0.07548(18)
H43_4 H 0.745793 0.629591 0.075455
H44_4 H 0.660763 0.631183 0.030068
O13_2 O 0.81147(9) 0.12482(11) 0.11029(9)
O14_2 O 0.80708(9) 0.12486(12) 0.21193(10)
O15_2 O 0.64967(11) 0.10973(13) 0.20136(12)
O16_2 O 0.54882(14) 0.11529(14) 0.10278(12)
C1_4 C 0.45911(16) 0.12754(17) 0.72994(13)
O1_4 O 0.18853(9) 0.12482(11) 0.38971(9)
O3_4 O 0.19292(9) 0.12486(12) 0.28807(10)
N1_4 N 0.31310(10) 0.28899(14) 0.37768(9)
O4_4 O 0.35033(11) 0.10973(13) 0.29864(12)
N2_4 N 0.36720(10) 0.12319(12) 0.50326(9)
N3_2 N 0.30205(11) 0.95098(13) 0.39230(11)
O5_4 O 0.45118(14) 0.11529(14) 0.39722(12)
O6_4 O 0.42374(14) 0.11984(16) 0.10574(12)
H2_4 H 0.392543 0.161596 0.094114
C2_4 C 0.3087(2) 0.5955(2) 0.36852(18)
H3_4 H 0.269083 0.613778 0.323601
H4_4 H 0.353780 0.616398 0.368410
C3_4 C 0.07602(11) 0.12550(13) 0.28566(11)
C5_4 C 0.46115(13) 0.11752(14) 0.28978(13)
C6_4 C 0.47109(15) 0.1276(2) 0.61509(14)
H5_4 H 0.521700 0.129898 0.640034
C7_4 C 0.46208(14) 0.11868(15) 0.17617(13)
C8_4 C 0.27738(18) 0.43394(19) 0.31273(14)
H6_4 H 0.253553 0.463346 0.268998
C9_4 C 0.43820(14) 0.12594(19) 0.54210(13)
H7_4 H 0.467980 0.126842 0.519422
C10_4 C 0.31014(16) 0.48833(18) 0.37283(14)
C11_4 C 0.04092(12) 0.12550(14) 0.21278(12)
H8_4 H 0.068428 0.125644 0.187768
C12_4 C 0.35577(17) 0.1235(2) 0.61004(15)
H9_4 H 0.324837 0.123107 0.631495
C13_4 C 0.3441(2) 0.4393(2) 0.43517(16)
H10_4 H 0.366778 0.472546 0.477423
C14_4 C 0.34485(19) 0.34100(19) 0.43559(14)
H11_4 H 0.368813 0.309873 0.478619
C15_4 C 0.15757(12) 0.12521(14) 0.32329(12)
C16_4 C 0.27979(17) 0.33626(19) 0.31717(14)
H12_4 H 0.256947 0.301390 0.275701
C17_4 C 0.41820(16) 0.11422(15) 0.33169(16)
C18_4 C 0.42490(13) 0.11783(15) 0.21705(14)
H13_4 H 0.374131 0.117451 0.194908
C19_4 C 0.32696(16) 0.1218(2) 0.53834(15)
H14_4 H 0.276444 0.119451 0.512454
C20_4 C 0.42938(15) 0.12572(14) 0.65052(12)
C21_4 C 0.3603(2) 0.9005(2) 0.4196(3)
H15_4 H 0.404668 0.931048 0.432103
C22_4 C 0.30008(18) 0.75452(18) 0.41440(15)
C23_4 C 0.2404(2) 0.9030(2) 0.3757(3)
H16_4 H 0.196620 0.936404 0.355671
C24_4 C 0.3617(2) 0.8033(2) 0.4318(3)
H17_4 H 0.406217 0.771642 0.452490
C25_4 C 0.2379(2) 0.8072(2) 0.3866(3)
H18_4 H 0.193134 0.778018 0.374825
C26_4 C 0.2998(2) 0.64811(19) 0.42452(18)
H19_4 H 0.254207 0.629591 0.424545
H20_4 H 0.339237 0.631183 0.469932
H21_4 H 0.4424(16) 0.073(2) 0.7459(16)
H22_4 H 0.4431(15) 0.185(2) 0.7479(16)
C27_4 C 0.54089(16) 0.12754(17) 0.77006(13)
N4_4 N 0.63280(10) 0.12319(12) 0.99674(9)
C28_4 C 0.52891(15) 0.1276(2) 0.88491(14)
H23_4 H 0.478300 0.129898 0.859966
C29_4 C 0.56180(14) 0.12594(19) 0.95790(13)
H24_4 H 0.532020 0.126842 0.980578
C30_4 C 0.64423(17) 0.1235(2) 0.88996(15)
H25_4 H 0.675163 0.123107 0.868505
C31_4 C 0.67304(16) 0.1218(2) 0.96166(15)
H26_4 H 0.723556 0.119451 0.987546
C32_4 C 0.57062(15) 0.12572(14) 0.84948(12)
H27_4 H 0.5576(16) 0.073(2) 0.7541(16)
H28_4 H 0.5569(15) 0.185(2) 0.7521(16)
O8_4 O 0.06694(10) 0.12446(13) 0.39524(9)
H29_4 H 0.111224 0.118652 0.410201
C34_4 C 0.03480(12) 0.12528(14) 0.32362(11)
O12_4 O 0.57626(14) 0.11984(16) 0.39426(12)
H31_4 H 0.607457 0.161596 0.405886
C37_4 C 0.53885(13) 0.11752(14) 0.21022(13)
C38_4 C 0.53792(14) 0.11868(15) 0.32383(13)
C39_4 C 0.58180(16) 0.11422(15) 0.16831(16)
C40_4 C 0.57510(13) 0.11783(15) 0.28295(14)
H32_4 H 0.625869 0.117451 0.305092
O2_4 O 0.93306(10) 0.12446(13) 0.10476(9)
H1_4 H 0.888776 0.118652 0.089799
C4_4 C 0.96520(12) 0.12528(14) 0.17638(11)
C33_4 C 0.92398(11) 0.12550(13) 0.21434(11)
C35_4 C 0.95908(12) 0.12550(14) 0.28722(12)
H30_4 H 0.931572 0.125644 0.312232
C36_4 C 0.84243(12) 0.12521(14) 0.17671(12)
loop_
_geom_bond_atom_site_label_1
_geom_bond_atom_site_label_2
_geom_bond_site_symmetry_1
_geom_bond_site_symmetry_2
Cd1 O1 1_555 1_555
C1 C20 1_555 1_555
O1 C15 1_555 1_555
O2 H1 1_555 1_555
O3 Cd1 1_555 1_555
N1 Cd1 1_555 1_555
O4 Cd1 1_555 1_555
N2 Cd1 1_555 1_555
O5 Cd1 1_555 1_555
O6 H2 1_555 1_555
C3 C11 1_555 1_555
C4 O2 1_555 1_555
C5 C17 1_555 1_555
C7 O6 1_555 1_555
C8 H6 1_555 1_555
C9 N2 1_555 1_555
H7 C9 1_555 1_555
C11 C4 1_555 1_555
H8 C11 1_555 1_555
C12 H9 1_555 1_555
C13 C10 1_555 1_555
H10 C13 1_555 1_555
C14 N1 1_555 1_555
H11 C14 1_555 1_555
C15 O3 1_555 1_555
C16 N1 1_555 1_555
H12 C16 1_555 1_555
C17 O4 1_555 1_555
C18 C5 1_555 1_555
H13 C18 1_555 1_555
C19 N2 1_555 1_555
H14 C19 1_555 1_555
C20 C6 1_555 1_555
H21 C1 1_555 1_555
H22 C1 1_555 1_555
O7 C36 1_555 1_555
O8 H29 1_555 1_555
O9 C36 1_555 1_555
C33 C4 1_555 1_555
C34 C3 1_555 1_555
C35 C33 1_555 1_555
H30 C35 1_555 1_555
C36 C33 1_555 1_555
Cd6 O7 1_555 1_555
N7 Cd1 1_555 1_555
O5 C17 1_555 1_555
C3 C15 1_555 1_555
C6 C9 1_555 1_555
C7 C18 1_555 1_555
C8 C10 1_555 1_555
C8 C16 1_555 1_555
C12 C19 1_555 1_555
C12 C20 1_555 1_555
C13 C14 1_555 1_555
O8 C34 1_555 1_555
O9 Cd6 1_555 1_555
C34 C35 1_555 1_555
N7 C21 1_555 1_555
C2 H3 1_555 1_555
H4 C2 1_555 1_555
C21 H15 1_555 1_555
C22 C24 1_555 1_555
C23 N7 1_555 1_555
H16 C23 1_555 1_555
C24 C21 1_555 1_555
H17 C24 1_555 1_555
C25 C22 1_555 1_555
H18 C25 1_555 1_555
C26 C2 1_555 1_555
H19 C26 1_555 1_555
H20 C26 1_555 1_555
C22 C26 1_555 1_555
C23 C25 1_555 1_555
N4 C29 1_555 1_555
C29 C28 1_555 1_555
H24 C29 1_555 1_555
C30 H25 1_555 1_555
C31 N4 1_555 1_555
H26 C31 1_555 1_555
C32 C27 1_555 1_555
H27 C27 1_555 1_555
H28 C27 1_555 1_555
O10 C39 1_555 1_555
O11 C39 1_555 1_555
O12 H31 1_555 1_555
C39 C37 1_555 1_555
C40 C37 1_555 1_555
H32 C40 1_555 1_555
Cd6 O10 1_555 1_555
C28 C32 1_555 1_555
C30 C31 1_555 1_555
C30 C32 1_555 1_555
O11 Cd6 1_555 1_555
O12 C38 1_555 1_555
C38 C40 1_555 1_555
N5 Cd6 1_555 1_555
C42 H35 1_555 1_555
C44 C43 1_555 1_555
H36 C44 1_555 1_555
C45 N5 1_555 1_555
H37 C45 1_555 1_555
C46 N5 1_555 1_555
H38 C46 1_555 1_555
N8 Cd6 1_555 1_555
C42 C43 1_555 1_555
C42 C46 1_555 1_555
C44 C45 1_555 1_555
N8 C47 1_555 1_555
C41 H33 1_555 1_555
H34 C41 1_555 1_555
C47 H39 1_555 1_555
C48 C50 1_555 1_555
C49 N8 1_555 1_555
H40 C49 1_555 1_555
C50 C47 1_555 1_555
H41 C50 1_555 1_555
C51 C48 1_555 1_555
H42 C51 1_555 1_555
C52 C41 1_555 1_555
H43 C52 1_555 1_555
H44 C52 1_555 1_555
C48 C52 1_555 1_555
C49 C51 1_555 1_555
O2_2 H1_2 1_555 1_555
C4_2 O2_2 1_555 1_555
O7_2 C36_2 1_555 1_555
O9_2 C36_2 1_555 1_555
C33_2 C4_2 1_555 1_555
C35_2 C33_2 1_555 1_555
H30_2 C35_2 1_555 1_555
C36_2 C33_2 1_555 1_555
Cd6_2 O7_2 1_555 1_555
O9_2 Cd6_2 1_555 1_555
Cd1_2 O1_2 1_555 1_555
C1_2 C20_2 1_555 1_555
O1_2 C15_2 1_555 1_555
O3_2 Cd1_2 1_555 1_555
N1_2 Cd1_2 1_555 1_555
O4_2 Cd1_2 1_555 1_555
N2_2 Cd1_2 1_555 1_555
N7_2 C21_2 1_555 1_555
O5_2 Cd1_2 1_555 1_555
O6_2 H2_2 1_555 1_555
C2_2 H3_2 1_555 1_555
H4_2 C2_2 1_555 1_555
C3_2 C11_2 1_555 1_555
C5_2 C17_2 1_555 1_555
C6_2 H5_2 1_555 1_555
C7_2 O6_2 1_555 1_555
C8_2 H6_2 1_555 1_555
C9_2 N2_2 1_555 1_555
H7_2 C9_2 1_555 1_555
C10_2 C2_2 1_555 1_555
H8_2 C11_2 1_555 1_555
C12_2 H9_2 1_555 1_555
C13_2 C10_2 1_555 1_555
H10_2 C13_2 1_555 1_555
C14_2 N1_2 1_555 1_555
H11_2 C14_2 1_555 1_555
C15_2 O3_2 1_555 1_555
C16_2 N1_2 1_555 1_555
H12_2 C16_2 1_555 1_555
C17_2 O4_2 1_555 1_555
C18_2 C5_2 1_555 1_555
H13_2 C18_2 1_555 1_555
C19_2 N2_2 1_555 1_555
H14_2 C19_2 1_555 1_555
C20_2 C6_2 1_555 1_555
C21_2 H15_2 1_555 1_555
C22_2 C24_2 1_555 1_555
C23_2 N7_2 1_555 1_555
H16_2 C23_2 1_555 1_555
C24_2 C21_2 1_555 1_555
H17_2 C24_2 1_555 1_555
C25_2 C22_2 1_555 1_555
H18_2 C25_2 1_555 1_555
C26_2 C2_2 1_555 1_555
H19_2 C26_2 1_555 1_555
H20_2 C26_2 1_555 1_555
H21_2 C1_2 1_555 1_555
H22_2 C1_2 1_555 1_555
C27_2 C1_2 1_555 1_555
N4_2 C29_2 1_555 1_555
C28_2 H23_2 1_555 1_555
C29_2 C28_2 1_555 1_555
H24_2 C29_2 1_555 1_555
C30_2 H25_2 1_555 1_555
C31_2 N4_2 1_555 1_555
H26_2 C31_2 1_555 1_555
C32_2 C27_2 1_555 1_555
H27_2 C27_2 1_555 1_555
H28_2 C27_2 1_555 1_555
O8_2 H29_2 1_555 1_555
C34_2 C3_2 1_555 1_555
O10_2 C39_2 1_555 1_555
O11_2 C39_2 1_555 1_555
O12_2 H31_2 1_555 1_555
C37_2 C7_2 1_555 1_555
C38_2 C5_2 1_555 1_555
C39_2 C37_2 1_555 1_555
C40_2 C37_2 1_555 1_555
H32_2 C40_2 1_555 1_555
Cd6_2 O10_2 1_555 1_555
O5_2 C17_2 1_555 1_555
C3_2 C15_2 1_555 1_555
C6_2 C9_2 1_555 1_555
C7_2 C18_2 1_555 1_555
C8_2 C10_2 1_555 1_555
C8_2 C16_2 1_555 1_555
C12_2 C19_2 1_555 1_555
C12_2 C20_2 1_555 1_555
C13_2 C14_2 1_555 1_555
C22_2 C26_2 1_555 1_555
C23_2 C25_2 1_555 1_555
C28_2 C32_2 1_555 1_555
C30_2 C31_2 1_555 1_555
C30_2 C32_2 1_555 1_555
O8_2 C34_2 1_555 1_555
O11_2 Cd6_2 1_555 1_555
O12_2 C38_2 1_555 1_555
C38_2 C40_2 1_555 1_555
N5_2 Cd6_2 1_555 1_555
N8_2 C47_2 1_555 1_555
C41_2 H33_2 1_555 1_555
H34_2 C41_2 1_555 1_555
C42_2 H35_2 1_555 1_555
C43_2 C41_2 1_555 1_555
C44_2 C43_2 1_555 1_555
H36_2 C44_2 1_555 1_555
C45_2 N5_2 1_555 1_555
H37_2 C45_2 1_555 1_555
C46_2 N5_2 1_555 1_555
H38_2 C46_2 1_555 1_555
C47_2 H39_2 1_555 1_555
C48_2 C50_2 1_555 1_555
C49_2 N8_2 1_555 1_555
H40_2 C49_2 1_555 1_555
C50_2 C47_2 1_555 1_555
H41_2 C50_2 1_555 1_555
C51_2 C48_2 1_555 1_555
H42_2 C51_2 1_555 1_555
C52_2 C41_2 1_555 1_555
H43_2 C52_2 1_555 1_555
H44_2 C52_2 1_555 1_555
C42_2 C43_2 1_555 1_555
C42_2 C46_2 1_555 1_555
C44_2 C45_2 1_555 1_555
C48_2 C52_2 1_555 1_555
C49_2 C51_2 1_555 1_555
N6 C47_3 1_555 1_555
C41_3 H33_3 1_555 1_555
H34_3 C41_3 1_555 1_555
C47_3 H39_3 1_555 1_555
C48_3 C50_3 1_555 1_555
C49_3 N6 1_555 1_555
H40_3 C49_3 1_555 1_555
C50_3 C47_3 1_555 1_555
H41_3 C50_3 1_555 1_555
C51_3 C48_3 1_555 1_555
H42_3 C51_3 1_555 1_555
C52_3 C41_3 1_555 1_555
H43_3 C52_3 1_555 1_555
H44_3 C52_3 1_555 1_555
Cd4 N6 1_555 1_555
C48_3 C52_3 1_555 1_555
C49_3 C51_3 1_555 1_555
N5_3 Cd4 1_555 1_555
C42_3 H35_3 1_555 1_555
C44_3 C43_3 1_555 1_555
H36_3 C44_3 1_555 1_555
C45_3 N5_3 1_555 1_555
H37_3 C45_3 1_555 1_555
C46_3 N5_3 1_555 1_555
H38_3 C46_3 1_555 1_555
O13 Cd4 1_555 1_555
O14 Cd4 1_555 1_555
O15 Cd4 1_555 1_555
O16 Cd4 1_555 1_555
C42_3 C43_3 1_555 1_555
C42_3 C46_3 1_555 1_555
C44_3 C45_3 1_555 1_555
N4_3 C29_3 1_555 1_555
C29_3 C28_3 1_555 1_555
H24_3 C29_3 1_555 1_555
C30_3 H25_3 1_555 1_555
C31_3 N4_3 1_555 1_555
H26_3 C31_3 1_555 1_555
C32_3 C27_3 1_555 1_555
H27_3 C27_3 1_555 1_555
H28_3 C27_3 1_555 1_555
O15 C39_3 1_555 1_555
O16 C39_3 1_555 1_555
O12_3 H31_3 1_555 1_555
C39_3 C37_3 1_555 1_555
C40_3 C37_3 1_555 1_555
H32_3 C40_3 1_555 1_555
C28_3 C32_3 1_555 1_555
C30_3 C31_3 1_555 1_555
C30_3 C32_3 1_555 1_555
O12_3 C38_3 1_555 1_555
C38_3 C40_3 1_555 1_555
N3 C21_3 1_555 1_555
C2_3 H3_3 1_555 1_555
H4_3 C2_3 1_555 1_555
C21_3 H15_3 1_555 1_555
C22_3 C24_3 1_555 1_555
C23_3 N3 1_555 1_555
H16_3 C23_3 1_555 1_555
C24_3 C21_3 1_555 1_555
H17_3 C24_3 1_555 1_555
C25_3 C22_3 1_555 1_555
H18_3 C25_3 1_555 1_555
C26_3 C2_3 1_555 1_555
H19_3 C26_3 1_555 1_555
H20_3 C26_3 1_555 1_555
Cd3 N3 1_555 1_555
C22_3 C26_3 1_555 1_555
C23_3 C25_3 1_555 1_555
Cd3 O1_3 1_555 1_555
C1_3 C20_3 1_555 1_555
O1_3 C15_3 1_555 1_555
O2_3 H1_3 1_555 1_555
O3_3 Cd3 1_555 1_555
N1_3 Cd3 1_555 1_555
O4_3 Cd3 1_555 1_555
N2_3 Cd3 1_555 1_555
O5_3 Cd3 1_555 1_555
O6_3 H2_3 1_555 1_555
C3_3 C11_3 1_555 1_555
C4_3 O2_3 1_555 1_555
C5_3 C17_3 1_555 1_555
C7_3 O6_3 1_555 1_555
C8_3 H6_3 1_555 1_555
C9_3 N2_3 1_555 1_555
H7_3 C9_3 1_555 1_555
C11_3 C4_3 1_555 1_555
H8_3 C11_3 1_555 1_555
C12_3 H9_3 1_555 1_555
C13_3 C10_3 1_555 1_555
H10_3 C13_3 1_555 1_555
C14_3 N1_3 1_555 1_555
H11_3 C14_3 1_555 1_555
C15_3 O3_3 1_555 1_555
C16_3 N1_3 1_555 1_555
H12_3 C16_3 1_555 1_555
C17_3 O4_3 1_555 1_555
C18_3 C5_3 1_555 1_555
H13_3 C18_3 1_555 1_555
C19_3 N2_3 1_555 1_555
H14_3 C19_3 1_555 1_555
C20_3 C6_3 1_555 1_555
H21_3 C1_3 1_555 1_555
H22_3 C1_3 1_555 1_555
O13 C36_3 1_555 1_555
O8_3 H29_3 1_555 1_555
O14 C36_3 1_555 1_555
C33_3 C4_3 1_555 1_555
C34_3 C3_3 1_555 1_555
C35_3 C33_3 1_555 1_555
H30_3 C35_3 1_555 1_555
C36_3 C33_3 1_555 1_555
O5_3 C17_3 1_555 1_555
C3_3 C15_3 1_555 1_555
C6_3 C9_3 1_555 1_555
C7_3 C18_3 1_555 1_555
C8_3 C10_3 1_555 1_555
C8_3 C16_3 1_555 1_555
C12_3 C19_3 1_555 1_555
C12_3 C20_3 1_555 1_555
C13_3 C14_3 1_555 1_555
O8_3 C34_3 1_555 1_555
C34_3 C35_3 1_555 1_555
N5_4 Cd4_2 1_555 1_555
N6_2 C47_4 1_555 1_555
C41_4 H33_4 1_555 1_555
H34_4 C41_4 1_555 1_555
C42_4 H35_4 1_555 1_555
C43_4 C41_4 1_555 1_555
C44_4 C43_4 1_555 1_555
H36_4 C44_4 1_555 1_555
C45_4 N5_4 1_555 1_555
H37_4 C45_4 1_555 1_555
C46_4 N5_4 1_555 1_555
H38_4 C46_4 1_555 1_555
C47_4 H39_4 1_555 1_555
C48_4 C50_4 1_555 1_555
C49_4 N6_2 1_555 1_555
H40_4 C49_4 1_555 1_555
C50_4 C47_4 1_555 1_555
H41_4 C50_4 1_555 1_555
C51_4 C48_4 1_555 1_555
H42_4 C51_4 1_555 1_555
C52_4 C41_4 1_555 1_555
H43_4 C52_4 1_555 1_555
H44_4 C52_4 1_555 1_555
O13_2 Cd4_2 1_555 1_555
O14_2 Cd4_2 1_555 1_555
O15_2 Cd4_2 1_555 1_555
O16_2 Cd4_2 1_555 1_555
C42_4 C43_4 1_555 1_555
C42_4 C46_4 1_555 1_555
C44_4 C45_4 1_555 1_555
C48_4 C52_4 1_555 1_555
C49_4 C51_4 1_555 1_555
Cd3_2 O1_4 1_555 1_555
C1_4 C20_4 1_555 1_555
O1_4 C15_4 1_555 1_555
O3_4 Cd3_2 1_555 1_555
N1_4 Cd3_2 1_555 1_555
O4_4 Cd3_2 1_555 1_555
N2_4 Cd3_2 1_555 1_555
N3_2 C21_4 1_555 1_555
O5_4 Cd3_2 1_555 1_555
O6_4 H2_4 1_555 1_555
C2_4 H3_4 1_555 1_555
H4_4 C2_4 1_555 1_555
C3_4 C11_4 1_555 1_555
C5_4 C17_4 1_555 1_555
C6_4 H5_4 1_555 1_555
C7_4 O6_4 1_555 1_555
C8_4 H6_4 1_555 1_555
C9_4 N2_4 1_555 1_555
H7_4 C9_4 1_555 1_555
C10_4 C2_4 1_555 1_555
H8_4 C11_4 1_555 1_555
C12_4 H9_4 1_555 1_555
C13_4 C10_4 1_555 1_555
H10_4 C13_4 1_555 1_555
C14_4 N1_4 1_555 1_555
H11_4 C14_4 1_555 1_555
C15_4 O3_4 1_555 1_555
C16_4 N1_4 1_555 1_555
H12_4 C16_4 1_555 1_555
C17_4 O4_4 1_555 1_555
C18_4 C5_4 1_555 1_555
H13_4 C18_4 1_555 1_555
C19_4 N2_4 1_555 1_555
H14_4 C19_4 1_555 1_555
C20_4 C6_4 1_555 1_555
C21_4 H15_4 1_555 1_555
C22_4 C24_4 1_555 1_555
C23_4 N3_2 1_555 1_555
H16_4 C23_4 1_555 1_555
C24_4 C21_4 1_555 1_555
H17_4 C24_4 1_555 1_555
C25_4 C22_4 1_555 1_555
H18_4 C25_4 1_555 1_555
C26_4 C2_4 1_555 1_555
H19_4 C26_4 1_555 1_555
H20_4 C26_4 1_555 1_555
H21_4 C1_4 1_555 1_555
H22_4 C1_4 1_555 1_555
C27_4 C1_4 1_555 1_555
N4_4 C29_4 1_555 1_555
C28_4 H23_4 1_555 1_555
C29_4 C28_4 1_555 1_555
H24_4 C29_4 1_555 1_555
C30_4 H25_4 1_555 1_555
C31_4 N4_4 1_555 1_555
H26_4 C31_4 1_555 1_555
C32_4 C27_4 1_555 1_555
H27_4 C27_4 1_555 1_555
H28_4 C27_4 1_555 1_555
O8_4 H29_4 1_555 1_555
C34_4 C3_4 1_555 1_555
O15_2 C39_4 1_555 1_555
O16_2 C39_4 1_555 1_555
O12_4 H31_4 1_555 1_555
C37_4 C7_4 1_555 1_555
C38_4 C5_4 1_555 1_555
C39_4 C37_4 1_555 1_555
C40_4 C37_4 1_555 1_555
H32_4 C40_4 1_555 1_555
O5_4 C17_4 1_555 1_555
C3_4 C15_4 1_555 1_555
C6_4 C9_4 1_555 1_555
C7_4 C18_4 1_555 1_555
C8_4 C10_4 1_555 1_555
C8_4 C16_4 1_555 1_555
C12_4 C19_4 1_555 1_555
C12_4 C20_4 1_555 1_555
C13_4 C14_4 1_555 1_555
C22_4 C26_4 1_555 1_555
C23_4 C25_4 1_555 1_555
C28_4 C32_4 1_555 1_555
C30_4 C31_4 1_555 1_555
C30_4 C32_4 1_555 1_555
O8_4 C34_4 1_555 1_555
O12_4 C38_4 1_555 1_555
C38_4 C40_4 1_555 1_555
O2_4 H1_4 1_555 1_555
C4_4 O2_4 1_555 1_555
O13_2 C36_4 1_555 1_555
O14_2 C36_4 1_555 1_555
C33_4 C4_4 1_555 1_555
C35_4 C33_4 1_555 1_555
H30_4 C35_4 1_555 1_555
C36_4 C33_4 1_555 1_555

#END
