
###############################################################################
#
# This file contains modified crystal structure data generated from the
# MOF subset of the Cambridge Structural Database (CSD) v543 
# hosted by the Cambridge Crystallographic Data Centre (CCDC).
#
# This work is licensed under the Creative Commons
# Attribution-NonCommercial-ShareAlike 4.0 International License.
# To view a copy of this license, visit
# http://creativecommons.org/licenses/by-nc-sa/4.0/
# or send a letter to
# Creative Commons, PO Box 1866, Mountain View, CA 94042, USA.
#
# CIF created using the CSD Python API on 29 September 2022
# The structure has been converted into the P1 space group
# The structure has a 3D framework
# The original CSD entry JORLEJ is in the monoclinic crystal system
# The framework has been calculated to contain at least 10.0% void space
# The void calculation uses a probe of radius 1.32A, grid spacing 0.4
#
###############################################################################

data_JORLEJ
_chemical_formula_moiety         '(C672 H448 Cd16 N48 O80)n'
_symmetry_cell_setting           triclinic
_symmetry_space_group_name_H-M   'P 1'
_symmetry_Int_Tables_number      1
_space_group_name_Hall           'P 1'
loop_
_symmetry_equiv_pos_site_id
_symmetry_equiv_pos_as_xyz
1 x,y,z
_cell_length_a                   21.1146(11)
_cell_length_b                   37.6435(19)
_cell_length_c                   28.2514(14)
_cell_angle_alpha                90
_cell_angle_beta                 108.8030(10)
_cell_angle_gamma                90
_cell_volume                     21256.6
loop_
_atom_site_label
_atom_site_type_symbol
_atom_site_fract_x
_atom_site_fract_y
_atom_site_fract_z
C1 C 0.32646(19) 0.17284(9) 0.25111(15)
H1 H 0.2962 0.1738 0.2688
C2 C 0.34027(19) 0.14013(8) 0.23509(15)
H2 H 0.3193 0.1199 0.2419
C3 C 0.38473(19) 0.13717(8) 0.20917(14)
C4 C 0.4134(2) 0.16843(8) 0.20055(14)
H3 H 0.4439 0.1682 0.1831
C5 C 0.3965(2) 0.19995(9) 0.21800(14)
H4 H 0.4167 0.2206 0.2118
C6 C 0.4043(2) 0.10210(8) 0.19409(14)
C7 C 0.3617(2) 0.07358(8) 0.18477(14)
H5 H 0.3191 0.0764 0.1871
C8 C 0.3806(2) 0.04077(8) 0.17191(15)
H6 H 0.3503 0.0220 0.1651
C9 C 0.4437(2) 0.03549(8) 0.16903(14)
C10 C 0.4873(2) 0.06442(8) 0.17884(14)
H7 H 0.5305 0.0615 0.1778
C11 C 0.4673(2) 0.09702(8) 0.19000(14)
H8 H 0.4966 0.1162 0.1949
C23 C 0.5123(2) 0.00269(8) 0.12952(14)
C26 C 0.6040(2) 0.00402(8) 0.07624(14)
C27 C 0.5471(2) 0.02391(9) 0.06213(15)
H19 H 0.5389 0.0385 0.0343
C28 C 0.5014(2) 0.02318(8) 0.08757(15)
H20 H 0.4626 0.0367 0.0761
C29 C 0.6509(2) 0.00385(8) 0.04676(14)
C57 C 0.29157(18) 0.28554(8) 0.18387(13)
C58 C 0.26694(17) 0.29636(7) 0.13024(12)
C59 C 0.30820(17) 0.31271(8) 0.10732(13)
H41 H 0.3515 0.3189 0.1264
C60 C 0.28626(18) 0.31993(8) 0.05670(13)
H42 H 0.3147 0.3309 0.0420
C61 C 0.22267(18) 0.31090(8) 0.02807(13)
C62 C 0.18051(18) 0.29519(8) 0.04982(13)
H43 H 0.1371 0.2893 0.0305
C63 C 0.20247(17) 0.28816(8) 0.10046(13)
H44 H 0.1733 0.2777 0.1149
C71 C 0.20263(19) 0.21773(8) 0.31162(13)
C72 C 0.22692(16) 0.20602(7) 0.36453(12)
C73 C 0.28974(17) 0.21503(8) 0.39503(13)
H49 H 0.3185 0.2266 0.3813
C74 C 0.31146(18) 0.20746(8) 0.44521(13)
H50 H 0.3541 0.2142 0.4650
C75 C 0.26932(18) 0.18948(8) 0.46672(13)
C76 C 0.20646(17) 0.17920(8) 0.43642(13)
H51 H 0.1782 0.1668 0.4499
C77 C 0.18564(17) 0.18737(8) 0.38575(13)
H52 H 0.1434 0.1803 0.3656
C78 C 0.34716(19) 0.19358(10) 0.54869(13)
C79 C 0.40565(19) 0.17668(9) 0.55185(14)
H53 H 0.4054 0.1566 0.5327
C80 C 0.46471(19) 0.18977(9) 0.58362(13)
H54 H 0.5046 0.1786 0.5852
C81 C 0.46629(17) 0.21932(8) 0.61347(13)
C82 C 0.40633(18) 0.23511(9) 0.61029(13)
H55 H 0.4057 0.2543 0.6309
C83 C 0.34677(18) 0.22281(9) 0.57675(13)
H56 H 0.3068 0.2345 0.5735
C84 C 0.53040(19) 0.23295(9) 0.64787(14)
Cd1 Cd 0.341137(12) 0.256173(6) 0.280029(9)
Cd2 Cd 0.151439(12) 0.247664(5) 0.215988(9)
N1 N 0.35324(15) 0.20294(7) 0.24315(11)
N2 N 0.46546(16) 0.00245(7) 0.15634(11)
O1 O 0.35130(12) 0.28976(6) 0.20918(9)
O2 O 0.25060(11) 0.27088(5) 0.20260(8)
O6 O 0.24293(11) 0.23291(5) 0.29312(8)
O7 O 0.14261(12) 0.21353(6) 0.28562(9)
O8 O 0.28580(13) 0.18063(6) 0.51637(9)
O9 O 0.53046(12) 0.25432(6) 0.68154(10)
O10 O 0.58386(12) 0.22222(7) 0.64242(9)
Cd7 Cd 0.651439(12) 0.252336(5) 0.715988(9)
N7 N 0.13973(14) 0.30131(6) 0.25309(10)
N8 N 0.16686(16) 0.19741(7) 0.17404(12)
N9 N 0.32391(15) 0.30748(7) 0.31903(11)
O11 O 0.46267(12) 0.25927(6) 0.31550(10)
O12 O 0.40810(12) 0.22620(7) 0.35290(9)
O13 O 0.03046(12) 0.24568(6) 0.18154(10)
O14 O 0.08386(12) 0.27778(7) 0.14242(9)
C32 C 0.7369(2) 0.00042(9) 0.98904(15)
C33 C 0.6736(2) 0.01466(9) 0.96944(16)
H23 H 0.6590 0.0233 0.9369
C34 C 0.6322(2) 0.01599(9) 0.99825(16)
H24 H 0.5896 0.0255 0.9843
C46 C 0.7873(2) 0.03024(8) 0.93391(16)
C47 C 0.7772(2) 0.03186(9) 0.88389(16)
H33 H 0.7657 0.0114 0.8646
C48 C 0.7839(2) 0.06406(9) 0.86124(15)
H34 H 0.7774 0.0647 0.8271
C49 C 0.8001(2) 0.09514(8) 0.88923(16)
C50 C 0.8069(2) 0.09339(9) 0.93830(15)
H35 H 0.8153 0.1141 0.9573
C51 C 0.8018(2) 0.06143(9) 0.96114(15)
H36 H 0.8083 0.0610 0.9953
C52 C 0.8080(2) 0.12881(9) 0.86464(14)
C53 C 0.8414(2) 0.13040(9) 0.83020(15)
H37 H 0.8595 0.1098 0.8216
C54 C 0.8482(2) 0.16240(9) 0.80822(15)
H38 H 0.8709 0.1627 0.7849
C55 C 0.7907(2) 0.19118(9) 0.85131(14)
H39 H 0.7715 0.2120 0.8581
C56 C 0.7830(2) 0.16051(9) 0.87553(14)
H40 H 0.7610 0.1612 0.8992
C64 C 0.14434(19) 0.30459(10) 0.94606(14)
C65 C 0.14540(18) 0.27462(9) 0.91977(13)
H45 H 0.1858 0.2633 0.9232
C66 C 0.08630(18) 0.26082(9) 0.88786(13)
H46 H 0.0874 0.2404 0.8697
C67 C 0.02610(18) 0.27680(8) 0.88265(12)
C68 C 0.02615(19) 0.30752(9) 0.91015(14)
C69 C 0.0852(2) 0.32137(10) 0.94122(15)
H48 H 0.0849 0.3422 0.9589
N6 N 0.82391(15) 0.19252(7) 0.81903(11)
O3 O 0.20473(13) 0.31880(6) 0.97758(9)
Cd4 Cd 0.841137(12) 0.243827(6) 0.780029(9)
C12 C 0.44230(19) 0.96947(8) 0.16945(14)
C13 C 0.42389(19) 0.96581(8) 0.21146(14)
H9 H 0.4243 0.9855 0.2314
C14 C 0.40484(19) 0.93323(8) 0.22431(14)
H10 H 0.3921 0.9314 0.2528
C15 C 0.40399(18) 0.90286(8) 0.19599(14)
C16 C 0.42212(19) 0.90691(8) 0.15390(14)
H11 H 0.4225 0.8871 0.1343
C17 C 0.43970(19) 0.93943(8) 0.13982(14)
H12 H 0.4499 0.9415 0.1103
C18 C 0.38784(18) 0.86764(8) 0.21300(13)
C19 C 0.34476(18) 0.86400(8) 0.24096(13)
H13 H 0.3239 0.8839 0.2487
C20 C 0.33317(18) 0.83107(8) 0.25703(13)
H14 H 0.3047 0.8294 0.2761
C21 C 0.40163(19) 0.80442(8) 0.22072(13)
H15 H 0.4223 0.7840 0.2143
C22 C 0.41586(19) 0.83640(8) 0.20228(13)
H16 H 0.4440 0.8371 0.1828
C24 C 0.5698(2) 0.98318(9) 0.14464(15)
H17 H 0.5789 0.9692 0.1732
C25 C 0.6148(2) 0.98374(9) 0.11846(14)
H18 H 0.6534 0.9700 0.1297
C30 C 0.7152(2) 0.99068(8) 0.06587(16)
H21 H 0.7305 0.9828 0.0988
C31 C 0.7579(2) 0.98889(8) 0.03719(16)
H22 H 0.8009 0.9798 0.0510
N3 N 0.36027(14) 0.80131(6) 0.24691(10)
Cd5 Cd 0.348561(12) 0.747664(5) 0.284012(9)
C35 C 0.7920(2) 0.96453(8) 0.94034(15)
C36 C 0.7536(2) 0.93564(8) 0.94242(15)
H25 H 0.7200 0.9378 0.9569
C37 C 0.7643(2) 0.90375(9) 0.92333(15)
H26 H 0.7378 0.8844 0.9253
C38 C 0.8135(2) 0.89943(8) 0.90113(16)
C39 C 0.8526(2) 0.92837(9) 0.90109(16)
H27 H 0.8871 0.9263 0.8874
C40 C 0.8424(2) 0.96045(9) 0.92076(16)
H28 H 0.8703 0.9795 0.9206
C41 C 0.8210(2) 0.86541(9) 0.87619(16)
C42 C 0.7933(2) 0.83377(8) 0.88406(15)
H29 H 0.7704 0.8325 0.9071
C43 C 0.7996(2) 0.80383(9) 0.85768(16)
H30 H 0.7787 0.7831 0.8628
C44 C 0.8569(2) 0.83331(10) 0.81617(17)
H31 H 0.8778 0.8338 0.7918
C45 C 0.8525(2) 0.86448(9) 0.84006(17)
H32 H 0.8707 0.8852 0.8320
N4 N 0.77935(17) 0.99856(7) 0.95808(12)
N5 N 0.83314(16) 0.80259(7) 0.82596(12)
Cd6 Cd 0.848561(12) 0.752336(5) 0.784012(9)
H47 H 0.9859 0.3188 0.9075
C70 C 0.96096(19) 0.26253(9) 0.84831(13)
O4 O 0.96267(12) 0.24073(6) 0.81550(10)
O5 O 0.90810(12) 0.27380(7) 0.85290(9)
C1_2 C 0.17354(19) 0.67284(9) 0.24889(15)
H1_2 H 0.2038 0.6738 0.2312
C2_2 C 0.15973(19) 0.64013(8) 0.26491(15)
H2_2 H 0.1807 0.6199 0.2581
C3_2 C 0.11527(19) 0.63717(8) 0.29083(14)
C4_2 C 0.0866(2) 0.66843(8) 0.29945(14)
H3_2 H 0.0561 0.6682 0.3169
C5_2 C 0.1035(2) 0.69995(9) 0.28200(14)
H4_2 H 0.0833 0.7206 0.2882
C6_2 C 0.0957(2) 0.60210(8) 0.30591(14)
C7_2 C 0.1383(2) 0.57358(8) 0.31523(14)
H5_2 H 0.1809 0.5764 0.3129
C8_2 C 0.1194(2) 0.54077(8) 0.32809(15)
H6_2 H 0.1497 0.5220 0.3349
C9_2 C 0.0563(2) 0.53549(8) 0.33097(14)
C10_2 C 0.0127(2) 0.56442(8) 0.32116(14)
C11_2 C 0.0327(2) 0.59702(8) 0.31000(14)
H8_2 H 0.0034 0.6162 0.3051
C12_2 C 0.05770(19) 0.46947(8) 0.33055(14)
C13_2 C 0.07611(19) 0.46581(8) 0.28854(14)
H9_2 H 0.0757 0.4855 0.2686
C14_2 C 0.09516(19) 0.43323(8) 0.27569(14)
H10_2 H 0.1079 0.4314 0.2472
C15_2 C 0.09601(18) 0.40286(8) 0.30401(14)
C16_2 C 0.07788(19) 0.40691(8) 0.34610(14)
H11_2 H 0.0775 0.3871 0.3657
C17_2 C 0.06030(19) 0.43943(8) 0.36018(14)
H12_2 H 0.0501 0.4415 0.3897
C18_2 C 0.11216(18) 0.36764(8) 0.28700(13)
C19_2 C 0.15524(18) 0.36400(8) 0.25904(13)
H13_2 H 0.1761 0.3839 0.2513
C20_2 C 0.16683(18) 0.33107(8) 0.24297(13)
H14_2 H 0.1953 0.3294 0.2239
C21_2 C 0.09837(19) 0.30442(8) 0.27928(13)
H15_2 H 0.0777 0.2840 0.2857
C22_2 C 0.08414(19) 0.33640(8) 0.29772(13)
H16_2 H 0.0560 0.3371 0.3172
H20_2 H 0.0374 0.5367 0.4239
C57_2 C 0.20843(18) 0.78554(8) 0.31613(13)
C58_2 C 0.23306(17) 0.79636(7) 0.36976(12)
C59_2 C 0.19180(17) 0.81271(8) 0.39268(13)
H41_2 H 0.1485 0.8189 0.3736
C60_2 C 0.21374(18) 0.81993(8) 0.44330(13)
H42_2 H 0.1853 0.8309 0.4580
C61_2 C 0.27733(18) 0.81090(8) 0.47193(13)
C62_2 C 0.31949(18) 0.79519(8) 0.45018(13)
H43_2 H 0.3629 0.7893 0.4695
C63_2 C 0.29753(17) 0.78816(8) 0.39954(13)
H44_2 H 0.3267 0.7777 0.3851
C64_2 C 0.35566(19) 0.80459(10) 0.55394(14)
C65_2 C 0.35460(18) 0.77462(9) 0.58023(13)
H45_2 H 0.3142 0.7633 0.5768
C66_2 C 0.41370(18) 0.76082(9) 0.61214(13)
H46_2 H 0.4126 0.7404 0.6303
C67_2 C 0.47390(18) 0.77680(8) 0.61735(12)
C68_2 C 0.47385(19) 0.80752(9) 0.58985(14)
H47_2 H 0.5141 0.8188 0.5925
C69_2 C 0.4148(2) 0.82137(10) 0.55878(15)
H48_2 H 0.4151 0.8422 0.5411
C70_2 C 0.53904(19) 0.76253(9) 0.65169(13)
C71_2 C 0.29737(19) 0.71773(8) 0.18838(13)
C72_2 C 0.27308(16) 0.70602(7) 0.13547(12)
C73_2 C 0.21026(17) 0.71503(8) 0.10497(13)
H49_2 H 0.1815 0.7266 0.1187
C74_2 C 0.18854(18) 0.70746(8) 0.05479(13)
H50_2 H 0.1459 0.7142 0.0350
C75_2 C 0.23068(18) 0.68948(8) 0.03328(13)
C76_2 C 0.29354(17) 0.67920(8) 0.06358(13)
H51_2 H 0.3218 0.6668 0.0501
C77_2 C 0.31436(17) 0.68737(8) 0.11425(13)
H52_2 H 0.3566 0.6803 0.1344
Cd1_2 Cd 0.158863(12) 0.756173(6) 0.219971(9)
N1_2 N 0.14676(15) 0.70294(7) 0.25685(11)
N2_2 N 0.03454(16) 0.50245(7) 0.34366(11)
O1_2 O 0.14870(12) 0.78976(6) 0.29082(9)
O2_2 O 0.24940(11) 0.77088(5) 0.29740(8)
O3_2 O 0.29527(13) 0.81880(6) 0.52242(9)
O4_2 O 0.53733(12) 0.74073(6) 0.68450(10)
O5_2 O 0.59190(12) 0.77380(7) 0.64710(9)
O6_2 O 0.25707(11) 0.73291(5) 0.20688(8)
O7_2 O 0.35739(12) 0.71353(6) 0.21438(9)
Cd3 Cd 0.658863(12) 0.743827(6) 0.719971(9)
N8_2 N 0.33314(16) 0.69741(7) 0.32596(12)
N9_2 N 0.17609(15) 0.80748(7) 0.18097(11)
O11_2 O 0.03733(12) 0.75927(6) 0.18450(10)
O12_2 O 0.09190(12) 0.72620(7) 0.14710(9)
O13_2 O 0.46954(12) 0.74568(6) 0.31846(10)
O14_2 O 0.41614(12) 0.77778(7) 0.35758(9)
H7_2 H 0.9695 0.5615 0.3222
C23_2 C 0.9877(2) 0.50269(8) 0.37048(14)
C24_2 C 0.9302(2) 0.48318(9) 0.35536(15)
H17_2 H 0.9211 0.4692 0.3268
C25_2 C 0.8852(2) 0.48374(9) 0.38154(14)
H18_2 H 0.8466 0.4700 0.3703
C26_2 C 0.8960(2) 0.50402(8) 0.42376(14)
C27_2 C 0.9529(2) 0.52391(9) 0.43787(15)
H19_2 H 0.9611 0.5385 0.4657
C28_2 C 0.9986(2) 0.52318(8) 0.41243(15)
C29_2 C 0.8491(2) 0.50385(8) 0.45324(14)
C30_2 C 0.7848(2) 0.49068(8) 0.43413(16)
H21_2 H 0.7695 0.4828 0.4012
C31_2 C 0.7421(2) 0.48889(8) 0.46281(16)
H22_2 H 0.6991 0.4798 0.4490
C32_2 C 0.7631(2) 0.50042(9) 0.51096(15)
C33_2 C 0.8264(2) 0.51466(9) 0.53056(16)
H23_2 H 0.8410 0.5233 0.5631
C34_2 C 0.8678(2) 0.51599(9) 0.50175(16)
H24_2 H 0.9104 0.5255 0.5157
C35_2 C 0.7080(2) 0.46453(8) 0.55966(15)
C36_2 C 0.7464(2) 0.43564(8) 0.55758(15)
H25_2 H 0.7800 0.4378 0.5431
C37_2 C 0.7357(2) 0.40375(9) 0.57667(15)
H26_2 H 0.7622 0.3844 0.5747
C38_2 C 0.6865(2) 0.39943(8) 0.59887(16)
C39_2 C 0.6474(2) 0.42837(9) 0.59891(16)
H27_2 H 0.6129 0.4263 0.6126
C40_2 C 0.6576(2) 0.46045(9) 0.57924(16)
H28_2 H 0.6297 0.4795 0.5794
C41_2 C 0.6790(2) 0.36541(9) 0.62381(16)
C42_2 C 0.7067(2) 0.33377(8) 0.61594(15)
H29_2 H 0.7296 0.3325 0.5929
C43_2 C 0.7004(2) 0.30383(9) 0.64232(16)
H30_2 H 0.7213 0.2831 0.6372
C44_2 C 0.6431(2) 0.33331(10) 0.68383(17)
H31_2 H 0.6222 0.3338 0.7082
C45_2 C 0.6475(2) 0.36448(9) 0.65994(17)
H32_2 H 0.6293 0.3852 0.6680
C46_2 C 0.7127(2) 0.53024(8) 0.56609(16)
C47_2 C 0.7228(2) 0.53186(9) 0.61611(16)
H33_2 H 0.7343 0.5114 0.6354
C48_2 C 0.7161(2) 0.56406(9) 0.63876(15)
H34_2 H 0.7226 0.5647 0.6729
C49_2 C 0.6999(2) 0.59514(8) 0.61077(16)
C50_2 C 0.6931(2) 0.59339(9) 0.56170(15)
H35_2 H 0.6847 0.6141 0.5427
C51_2 C 0.6982(2) 0.56143(9) 0.53886(15)
H36_2 H 0.6917 0.5610 0.5047
C52_2 C 0.6920(2) 0.62881(9) 0.63536(14)
C53_2 C 0.6586(2) 0.63040(9) 0.66980(15)
H37_2 H 0.6405 0.6098 0.6784
C54_2 C 0.6518(2) 0.66240(9) 0.69178(15)
H38_2 H 0.6291 0.6627 0.7151
C55_2 C 0.7093(2) 0.69118(9) 0.64869(14)
H39_2 H 0.7285 0.7120 0.6419
C56_2 C 0.7170(2) 0.66051(9) 0.62447(14)
H40_2 H 0.7390 0.6612 0.6008
N4_2 N 0.72065(17) 0.49856(7) 0.54192(12)
N5_2 N 0.66686(16) 0.30259(7) 0.67404(12)
N6_2 N 0.67609(15) 0.69252(7) 0.68097(11)
H54_2 H 0.9954 0.6786 0.9148
C84_2 C 0.96960(19) 0.73295(9) 0.85213(14)
O9_2 O 0.96954(12) 0.75432(6) 0.81846(10)
O10_2 O 0.91614(12) 0.72222(7) 0.85758(9)
H47_3 H 0.0141 0.6812 0.0925
C70_3 C 0.03904(19) 0.73747(9) 0.15169(13)
C35_3 C 0.2080(2) 0.03547(8) 0.05966(15)
C36_3 C 0.2464(2) 0.06436(8) 0.05758(15)
H25_3 H 0.2800 0.0622 0.0431
C37_3 C 0.2357(2) 0.09625(9) 0.07667(15)
H26_3 H 0.2622 0.1156 0.0747
C38_3 C 0.1865(2) 0.10057(8) 0.09887(16)
C39_3 C 0.1474(2) 0.07163(9) 0.09891(16)
H27_3 H 0.1129 0.0737 0.1126
C40_3 C 0.1576(2) 0.03955(9) 0.07924(16)
H28_3 H 0.1297 0.0205 0.0794
C41_3 C 0.1790(2) 0.13459(9) 0.12381(16)
C42_3 C 0.2067(2) 0.16623(8) 0.11594(15)
H29_3 H 0.2296 0.1675 0.0929
C43_3 C 0.2004(2) 0.19617(9) 0.14232(16)
H30_3 H 0.2213 0.2169 0.1372
C44_3 C 0.1431(2) 0.16669(10) 0.18383(17)
H31_3 H 0.1222 0.1662 0.2082
C45_3 C 0.1475(2) 0.13552(9) 0.15994(17)
H32_3 H 0.1293 0.1148 0.1680
N4_3 N 0.22065(17) 0.00144(7) 0.04192(12)
C12_3 C 0.55770(19) 0.03053(8) 0.83055(14)
C13_3 C 0.57611(19) 0.03419(8) 0.78854(14)
H9_3 H 0.5757 0.0145 0.7686
C14_3 C 0.59516(19) 0.06677(8) 0.77569(14)
H10_3 H 0.6079 0.0686 0.7472
C15_3 C 0.59601(18) 0.09714(8) 0.80401(14)
C16_3 C 0.57788(19) 0.09309(8) 0.84610(14)
H11_3 H 0.5775 0.1129 0.8657
C17_3 C 0.56030(19) 0.06057(8) 0.86018(14)
H12_3 H 0.5501 0.0585 0.8897
C18_3 C 0.61216(18) 0.13236(8) 0.78700(13)
C19_3 C 0.65524(18) 0.13600(8) 0.75904(13)
H13_3 H 0.6761 0.1161 0.7513
C20_3 C 0.66683(18) 0.16893(8) 0.74297(13)
H14_3 H 0.6953 0.1706 0.7239
C21_3 C 0.59837(19) 0.19558(8) 0.77928(13)
H15_3 H 0.5777 0.2160 0.7857
C22_3 C 0.58414(19) 0.16360(8) 0.79772(13)
H16_3 H 0.5560 0.1629 0.8172
C24_3 C 0.4302(2) 0.01682(9) 0.85536(15)
H17_3 H 0.4211 0.0308 0.8268
C25_3 C 0.3852(2) 0.01626(9) 0.88154(14)
H18_3 H 0.3466 0.0300 0.8703
C30_3 C 0.2848(2) 0.00932(8) 0.93413(16)
H21_3 H 0.2695 0.0172 0.9012
C31_3 C 0.2421(2) 0.01111(8) 0.96281(16)
H22_3 H 0.1991 0.0202 0.9490
N3_2 N 0.63973(14) 0.19869(6) 0.75309(10)
C32_3 C 0.2631(2) 0.99958(9) 0.01096(15)
C33_3 C 0.3264(2) 0.98534(9) 0.03056(16)
H23_3 H 0.3410 0.9767 0.0631
C34_3 C 0.3678(2) 0.98401(9) 0.00175(16)
H24_3 H 0.4104 0.9745 0.0157
C46_3 C 0.2127(2) 0.96976(8) 0.06609(16)
C47_3 C 0.2228(2) 0.96814(9) 0.11611(16)
H33_3 H 0.2343 0.9886 0.1354
C48_3 C 0.2161(2) 0.93594(9) 0.13876(15)
H34_3 H 0.2226 0.9353 0.1729
C49_3 C 0.1999(2) 0.90486(8) 0.11077(16)
C50_3 C 0.1931(2) 0.90661(9) 0.06170(15)
H35_3 H 0.1847 0.8859 0.0427
C51_3 C 0.1982(2) 0.93857(9) 0.03886(15)
H36_3 H 0.1917 0.9390 0.0047
C52_3 C 0.1920(2) 0.87119(9) 0.13536(14)
C53_3 C 0.1586(2) 0.86960(9) 0.16980(15)
H37_3 H 0.1405 0.8902 0.1784
C54_3 C 0.1518(2) 0.83760(9) 0.19178(15)
H38_3 H 0.1291 0.8373 0.2151
C55_3 C 0.2093(2) 0.80882(9) 0.14869(14)
H39_3 H 0.2285 0.7880 0.1419
C56_3 C 0.2170(2) 0.83949(9) 0.12447(14)
H40_3 H 0.2390 0.8388 0.1008
C64_3 C 0.85566(19) 0.69541(10) 0.05394(14)
C65_3 C 0.85460(18) 0.72538(9) 0.08023(13)
H45_3 H 0.8142 0.7367 0.0768
C66_3 C 0.91370(18) 0.73918(9) 0.11214(13)
H46_3 H 0.9126 0.7596 0.1303
C67_3 C 0.97390(18) 0.72320(8) 0.11735(12)
C68_3 C 0.97385(19) 0.69248(9) 0.08985(14)
C69_3 C 0.9148(2) 0.67863(10) 0.05878(15)
H48_3 H 0.9151 0.6578 0.0411
O3_3 O 0.79527(13) 0.68120(6) 0.02242(9)
C1_3 C 0.67354(19) 0.82716(9) 0.74889(15)
H1_3 H 0.7038 0.8262 0.7312
C2_3 C 0.65973(19) 0.85987(8) 0.76491(15)
H2_3 H 0.6807 0.8801 0.7581
C3_3 C 0.61527(19) 0.86283(8) 0.79083(14)
C4_3 C 0.5866(2) 0.83157(8) 0.79945(14)
H3_3 H 0.5561 0.8318 0.8169
C5_3 C 0.6035(2) 0.80005(9) 0.78200(14)
H4_3 H 0.5833 0.7794 0.7882
C6_3 C 0.5957(2) 0.89790(8) 0.80591(14)
C7_3 C 0.6383(2) 0.92642(8) 0.81523(14)
H5_3 H 0.6809 0.9236 0.8129
C8_3 C 0.6194(2) 0.95923(8) 0.82809(15)
H6_3 H 0.6497 0.9780 0.8349
C9_3 C 0.5563(2) 0.96451(8) 0.83097(14)
C10_3 C 0.5127(2) 0.93558(8) 0.82116(14)
H7_3 H 0.4695 0.9385 0.8222
C11_3 C 0.5327(2) 0.90298(8) 0.81000(14)
H8_3 H 0.5034 0.8838 0.8051
C23_3 C 0.4877(2) 0.99731(8) 0.87048(14)
C26_3 C 0.3960(2) 0.99598(8) 0.92376(14)
C27_3 C 0.4529(2) 0.97609(9) 0.93787(15)
H19_3 H 0.4611 0.9615 0.9657
C28_3 C 0.4986(2) 0.97682(8) 0.91243(15)
H20_3 H 0.5374 0.9633 0.9239
C29_3 C 0.3491(2) 0.99615(8) 0.95324(14)
C57_3 C 0.70843(18) 0.71446(8) 0.81613(13)
C58_3 C 0.73306(17) 0.70364(7) 0.86976(12)
C59_3 C 0.69180(17) 0.68729(8) 0.89268(13)
H41_3 H 0.6485 0.6811 0.8736
C60_3 C 0.71374(18) 0.68007(8) 0.94330(13)
H42_3 H 0.6853 0.6691 0.9580
C61_3 C 0.77733(18) 0.68910(8) 0.97193(13)
C62_3 C 0.81949(18) 0.70481(8) 0.95018(13)
H43_3 H 0.8629 0.7107 0.9695
C63_3 C 0.79753(17) 0.71184(8) 0.89954(13)
H44_3 H 0.8267 0.7223 0.8851
C71_3 C 0.79737(19) 0.78227(8) 0.68838(13)
C72_3 C 0.77308(16) 0.79398(7) 0.63547(12)
C73_3 C 0.71026(17) 0.78497(8) 0.60497(13)
H49_3 H 0.6815 0.7734 0.6187
C74_3 C 0.68854(18) 0.79254(8) 0.55479(13)
H50_3 H 0.6459 0.7858 0.5350
C75_3 C 0.73068(18) 0.81052(8) 0.53328(13)
C76_3 C 0.79354(17) 0.82080(8) 0.56358(13)
H51_3 H 0.8218 0.8332 0.5501
C77_3 C 0.81436(17) 0.81263(8) 0.61425(13)
H52_3 H 0.8566 0.8197 0.6344
C78_2 C 0.65284(19) 0.80642(10) 0.45131(13)
C79_2 C 0.59435(19) 0.82332(9) 0.44815(14)
H53_2 H 0.5946 0.8434 0.4673
C80_2 C 0.53529(19) 0.81023(9) 0.41638(13)
H54_3 H 0.4954 0.8214 0.4148
C81_2 C 0.53371(17) 0.78068(8) 0.38653(13)
C82_2 C 0.59367(18) 0.76489(9) 0.38971(13)
H55_2 H 0.5943 0.7457 0.3691
C83_2 C 0.65323(18) 0.77719(9) 0.42325(13)
H56_2 H 0.6932 0.7655 0.4265
C84_3 C 0.46960(19) 0.76705(9) 0.35213(14)
N1_3 N 0.64676(15) 0.79706(7) 0.75685(11)
N2_3 N 0.53454(16) 0.99755(7) 0.84366(11)
O1_3 O 0.64870(12) 0.71024(6) 0.79082(9)
O2_3 O 0.74940(11) 0.72912(5) 0.79740(8)
O6_3 O 0.75707(11) 0.76709(5) 0.70688(8)
O7_3 O 0.85739(12) 0.78647(6) 0.71438(9)
O8_2 O 0.71420(13) 0.81937(6) 0.48363(9)
N7_2 N 0.86027(14) 0.69869(6) 0.74691(10)
H54_4 H 0.0046 0.3214 0.0852
C84_4 C 0.03040(19) 0.26705(9) 0.14787(14)
H7_4 H 0.0305 0.4385 0.6778
C23_4 C 0.0123(2) 0.49731(8) 0.62952(14)
C24_4 C 0.0698(2) 0.51682(9) 0.64464(15)
H17_4 H 0.0789 0.5308 0.6732
C25_4 C 0.1148(2) 0.51626(9) 0.61846(14)
H18_4 H 0.1534 0.5300 0.6297
C26_4 C 0.1040(2) 0.49598(8) 0.57624(14)
C27_4 C 0.0471(2) 0.47609(9) 0.56213(15)
H19_4 H 0.0389 0.4615 0.5343
C28_4 C 0.0014(2) 0.47682(8) 0.58757(15)
C29_4 C 0.1509(2) 0.49615(8) 0.54676(14)
C30_4 C 0.2152(2) 0.50932(8) 0.56587(16)
H21_4 H 0.2305 0.5172 0.5988
C31_4 C 0.2579(2) 0.51111(8) 0.53719(16)
H22_4 H 0.3009 0.5202 0.5510
C32_4 C 0.2369(2) 0.49958(9) 0.48904(15)
C33_4 C 0.1736(2) 0.48534(9) 0.46944(16)
H23_4 H 0.1590 0.4767 0.4369
C34_4 C 0.1322(2) 0.48401(9) 0.49825(16)
H24_4 H 0.0896 0.4745 0.4843
C35_4 C 0.2920(2) 0.53547(8) 0.44034(15)
C36_4 C 0.2536(2) 0.56436(8) 0.44242(15)
H25_4 H 0.2200 0.5622 0.4569
C37_4 C 0.2643(2) 0.59625(9) 0.42333(15)
H26_4 H 0.2378 0.6156 0.4253
C38_4 C 0.3135(2) 0.60057(8) 0.40113(16)
C39_4 C 0.3526(2) 0.57163(9) 0.40109(16)
H27_4 H 0.3871 0.5737 0.3874
C40_4 C 0.3424(2) 0.53955(9) 0.42076(16)
H28_4 H 0.3703 0.5205 0.4206
C41_4 C 0.3210(2) 0.63459(9) 0.37619(16)
C42_4 C 0.2933(2) 0.66623(8) 0.38406(15)
H29_4 H 0.2704 0.6675 0.4071
C43_4 C 0.2996(2) 0.69617(9) 0.35768(16)
H30_4 H 0.2787 0.7169 0.3628
C44_4 C 0.3569(2) 0.66669(10) 0.31617(17)
H31_4 H 0.3778 0.6662 0.2918
C45_4 C 0.3525(2) 0.63552(9) 0.34006(17)
H32_4 H 0.3707 0.6148 0.3320
C46_4 C 0.2873(2) 0.46976(8) 0.43391(16)
C47_4 C 0.2772(2) 0.46814(9) 0.38389(16)
H33_4 H 0.2657 0.4886 0.3646
C48_4 C 0.2839(2) 0.43594(9) 0.36124(15)
H34_4 H 0.2774 0.4353 0.3271
C49_4 C 0.3001(2) 0.40486(8) 0.38923(16)
C50_4 C 0.3069(2) 0.40661(9) 0.43830(15)
H35_4 H 0.3153 0.3859 0.4573
C51_4 C 0.3018(2) 0.43857(9) 0.46114(15)
H36_4 H 0.3083 0.4390 0.4953
C52_4 C 0.3080(2) 0.37119(9) 0.36464(14)
C53_4 C 0.3414(2) 0.36960(9) 0.33020(15)
H37_4 H 0.3595 0.3902 0.3216
C54_4 C 0.3482(2) 0.33760(9) 0.30822(15)
H38_4 H 0.3709 0.3373 0.2849
C55_4 C 0.2907(2) 0.30882(9) 0.35131(14)
H39_4 H 0.2715 0.2880 0.3581
C56_4 C 0.2830(2) 0.33949(9) 0.37553(14)
H40_4 H 0.2610 0.3388 0.3992
N4_4 N 0.27935(17) 0.50144(7) 0.45808(12)
C1_4 C 0.82646(19) 0.32716(9) 0.75111(15)
H1_4 H 0.7962 0.3262 0.7688
C2_4 C 0.84027(19) 0.35987(8) 0.73509(15)
H2_4 H 0.8193 0.3801 0.7419
C3_4 C 0.88473(19) 0.36283(8) 0.70917(14)
C4_4 C 0.9134(2) 0.33157(8) 0.70055(14)
H3_4 H 0.9439 0.3318 0.6831
C5_4 C 0.8965(2) 0.30005(9) 0.71800(14)
H4_4 H 0.9167 0.2794 0.7118
C6_4 C 0.9043(2) 0.39790(8) 0.69409(14)
C7_4 C 0.8617(2) 0.42642(8) 0.68477(14)
H5_4 H 0.8191 0.4236 0.6871
C8_4 C 0.8806(2) 0.45923(8) 0.67191(15)
H6_4 H 0.8503 0.4780 0.6651
C9_4 C 0.9437(2) 0.46451(8) 0.66903(14)
C10_4 C 0.9873(2) 0.43558(8) 0.67884(14)
C11_4 C 0.9673(2) 0.40298(8) 0.69000(14)
H8_4 H 0.9966 0.3838 0.6949
C12_4 C 0.94230(19) 0.53053(8) 0.66945(14)
C13_4 C 0.92389(19) 0.53419(8) 0.71146(14)
H9_4 H 0.9243 0.5145 0.7314
C14_4 C 0.90484(19) 0.56677(8) 0.72431(14)
H10_4 H 0.8921 0.5686 0.7528
C15_4 C 0.90399(18) 0.59714(8) 0.69599(14)
C16_4 C 0.92212(19) 0.59309(8) 0.65390(14)
H11_4 H 0.9225 0.6129 0.6343
C17_4 C 0.93970(19) 0.56057(8) 0.63982(14)
H12_4 H 0.9499 0.5585 0.6103
C18_4 C 0.88784(18) 0.63236(8) 0.71300(13)
C19_4 C 0.84476(18) 0.63600(8) 0.74096(13)
H13_4 H 0.8239 0.6161 0.7487
C20_4 C 0.83317(18) 0.66893(8) 0.75703(13)
H14_4 H 0.8047 0.6706 0.7761
C21_4 C 0.90163(19) 0.69558(8) 0.72072(13)
H15_4 H 0.9223 0.7160 0.7143
C22_4 C 0.91586(19) 0.66360(8) 0.70228(13)
H16_4 H 0.9440 0.6629 0.6828
H20_4 H 0.9626 0.4633 0.5761
C57_4 C 0.79157(18) 0.21446(8) 0.68387(13)
C58_4 C 0.76694(17) 0.20364(7) 0.63024(12)
C59_4 C 0.80820(17) 0.18729(8) 0.60732(13)
H41_4 H 0.8515 0.1811 0.6264
C60_4 C 0.78626(18) 0.18007(8) 0.55670(13)
H42_4 H 0.8147 0.1691 0.5420
C61_4 C 0.72267(18) 0.18910(8) 0.52807(13)
C62_4 C 0.68051(18) 0.20481(8) 0.54982(13)
H43_4 H 0.6371 0.2107 0.5305
C63_4 C 0.70247(17) 0.21184(8) 0.60046(13)
H44_4 H 0.6733 0.2223 0.6149
C64_4 C 0.64434(19) 0.19541(10) 0.44606(14)
C65_4 C 0.64540(18) 0.22538(9) 0.41977(13)
H45_4 H 0.6858 0.2367 0.4232
C66_4 C 0.58630(18) 0.23918(9) 0.38786(13)
H46_4 H 0.5874 0.2596 0.3697
C67_4 C 0.52610(18) 0.22320(8) 0.38265(12)
C68_4 C 0.52615(19) 0.19248(9) 0.41015(14)
H47_4 H 0.4859 0.1812 0.4075
C69_4 C 0.5852(2) 0.17863(10) 0.44122(15)
H48_4 H 0.5849 0.1578 0.4589
C70_4 C 0.46096(19) 0.23747(9) 0.34831(13)
C71_4 C 0.70263(19) 0.28227(8) 0.81162(13)
C72_4 C 0.72692(16) 0.29398(7) 0.86453(12)
C73_4 C 0.78974(17) 0.28497(8) 0.89503(13)
H49_4 H 0.8185 0.2734 0.8813
C74_4 C 0.81146(18) 0.29254(8) 0.94521(13)
H50_4 H 0.8541 0.2858 0.9650
C75_4 C 0.76932(18) 0.31052(8) 0.96672(13)
C76_4 C 0.70646(17) 0.32080(8) 0.93642(13)
H51_4 H 0.6782 0.3332 0.9499
C77_4 C 0.68564(17) 0.31263(8) 0.88575(13)
H52_4 H 0.6434 0.3197 0.8656
N1_4 N 0.85324(15) 0.29706(7) 0.74315(11)
N2_4 N 0.96546(16) 0.49755(7) 0.65634(11)
O1_4 O 0.85130(12) 0.21024(6) 0.70918(9)
O2_4 O 0.75060(11) 0.22912(5) 0.70260(8)
O3_4 O 0.70473(13) 0.18120(6) 0.47758(9)
O6_4 O 0.74293(11) 0.26709(5) 0.79312(8)
O7_4 O 0.64261(12) 0.28647(6) 0.78562(9)
H47_5 H 0.0141 0.3188 0.5925
C70_5 C 0.03904(19) 0.26253(9) 0.65169(13)
O4_3 O 0.03733(12) 0.24073(6) 0.68450(10)
O5_3 O 0.09190(12) 0.27380(7) 0.64710(9)
Cd3_2 Cd 0.158863(12) 0.243827(6) 0.719971(9)
C1_5 C 0.67354(19) 0.17284(9) 0.24889(15)
H1_5 H 0.7038 0.1738 0.2312
C2_5 C 0.65973(19) 0.14013(8) 0.26491(15)
H2_5 H 0.6807 0.1199 0.2581
C3_5 C 0.61527(19) 0.13717(8) 0.29083(14)
C4_5 C 0.5866(2) 0.16843(8) 0.29945(14)
H3_5 H 0.5561 0.1682 0.3169
C5_5 C 0.6035(2) 0.19995(9) 0.28200(14)
H4_5 H 0.5833 0.2206 0.2882
C6_5 C 0.5957(2) 0.10210(8) 0.30591(14)
C7_5 C 0.6383(2) 0.07358(8) 0.31523(14)
H5_5 H 0.6809 0.0764 0.3129
C8_5 C 0.6194(2) 0.04077(8) 0.32809(15)
H6_5 H 0.6497 0.0220 0.3349
C9_5 C 0.5563(2) 0.03549(8) 0.33097(14)
C10_5 C 0.5127(2) 0.06442(8) 0.32116(14)
H7_5 H 0.4695 0.0615 0.3222
C11_5 C 0.5327(2) 0.09702(8) 0.31000(14)
H8_5 H 0.5034 0.1162 0.3051
C23_5 C 0.4877(2) 0.00269(8) 0.37048(14)
C26_5 C 0.3960(2) 0.00402(8) 0.42376(14)
C27_5 C 0.4529(2) 0.02391(9) 0.43787(15)
H19_5 H 0.4611 0.0385 0.4657
C28_5 C 0.4986(2) 0.02318(8) 0.41243(15)
H20_5 H 0.5374 0.0367 0.4239
C29_5 C 0.3491(2) 0.00385(8) 0.45324(14)
C32_5 C 0.2631(2) 0.00042(9) 0.51096(15)
C33_5 C 0.3264(2) 0.01466(9) 0.53056(16)
H23_5 H 0.3410 0.0233 0.5631
C34_5 C 0.3678(2) 0.01599(9) 0.50175(16)
H24_5 H 0.4104 0.0255 0.5157
C46_5 C 0.2127(2) 0.03024(8) 0.56609(16)
C47_5 C 0.2228(2) 0.03186(9) 0.61611(16)
H33_5 H 0.2343 0.0114 0.6354
C48_5 C 0.2161(2) 0.06406(9) 0.63876(15)
H34_5 H 0.2226 0.0647 0.6729
C49_5 C 0.1999(2) 0.09514(8) 0.61077(16)
C50_5 C 0.1931(2) 0.09339(9) 0.56170(15)
H35_5 H 0.1847 0.1141 0.5427
C51_5 C 0.1982(2) 0.06143(9) 0.53886(15)
H36_5 H 0.1917 0.0610 0.5047
C52_5 C 0.1920(2) 0.12881(9) 0.63536(14)
C53_5 C 0.1586(2) 0.13040(9) 0.66980(15)
H37_5 H 0.1405 0.1098 0.6784
C54_5 C 0.1518(2) 0.16240(9) 0.69178(15)
H38_5 H 0.1291 0.1627 0.7151
C55_5 C 0.2093(2) 0.19118(9) 0.64869(14)
H39_5 H 0.2285 0.2120 0.6419
C56_5 C 0.2170(2) 0.16051(9) 0.62447(14)
H40_5 H 0.2390 0.1612 0.6008
C57_5 C 0.70843(18) 0.28554(8) 0.31613(13)
C58_5 C 0.73306(17) 0.29636(7) 0.36976(12)
C59_5 C 0.69180(17) 0.31271(8) 0.39268(13)
H41_5 H 0.6485 0.3189 0.3736
C60_5 C 0.71374(18) 0.31993(8) 0.44330(13)
H42_5 H 0.6853 0.3309 0.4580
C61_5 C 0.77733(18) 0.31090(8) 0.47193(13)
C62_5 C 0.81949(18) 0.29519(8) 0.45018(13)
H43_5 H 0.8629 0.2893 0.4695
C63_5 C 0.79753(17) 0.28816(8) 0.39954(13)
H44_5 H 0.8267 0.2777 0.3851
C64_5 C 0.85566(19) 0.30459(10) 0.55394(14)
C65_5 C 0.85460(18) 0.27462(9) 0.58023(13)
H45_5 H 0.8142 0.2633 0.5768
C66_5 C 0.91370(18) 0.26082(9) 0.61214(13)
H46_5 H 0.9126 0.2404 0.6303
C67_5 C 0.97390(18) 0.27680(8) 0.61735(12)
C68_5 C 0.97385(19) 0.30752(9) 0.58985(14)
C69_5 C 0.9148(2) 0.32137(10) 0.55878(15)
H48_5 H 0.9151 0.3422 0.5411
C71_5 C 0.79737(19) 0.21773(8) 0.18838(13)
C72_5 C 0.77308(16) 0.20602(7) 0.13547(12)
C73_5 C 0.71026(17) 0.21503(8) 0.10497(13)
H49_5 H 0.6815 0.2266 0.1187
C74_5 C 0.68854(18) 0.20746(8) 0.05479(13)
H50_5 H 0.6459 0.2142 0.0350
C75_5 C 0.73068(18) 0.18948(8) 0.03328(13)
C76_5 C 0.79354(17) 0.17920(8) 0.06358(13)
H51_5 H 0.8218 0.1668 0.0501
C77_5 C 0.81436(17) 0.18737(8) 0.11425(13)
H52_5 H 0.8566 0.1803 0.1344
Cd1_3 Cd 0.658863(12) 0.256173(6) 0.219971(9)
Cd2_2 Cd 0.848561(12) 0.247664(5) 0.284012(9)
N1_5 N 0.64676(15) 0.20294(7) 0.25685(11)
N2_5 N 0.53454(16) 0.00245(7) 0.34366(11)
N6_3 N 0.17609(15) 0.19252(7) 0.68097(11)
O1_5 O 0.64870(12) 0.28976(6) 0.29082(9)
O2_5 O 0.74940(11) 0.27088(5) 0.29740(8)
O3_5 O 0.79527(13) 0.31880(6) 0.52242(9)
O6_5 O 0.75707(11) 0.23291(5) 0.20688(8)
O7_5 O 0.85739(12) 0.21353(6) 0.21438(9)
N7_3 N 0.86027(14) 0.30131(6) 0.24691(10)
N8_3 N 0.83314(16) 0.19741(7) 0.32596(12)
N9_3 N 0.67609(15) 0.30748(7) 0.18097(11)
O11_3 O 0.53733(12) 0.25927(6) 0.18450(10)
O12_3 O 0.59190(12) 0.22620(7) 0.14710(9)
O13_3 O 0.96954(12) 0.24568(6) 0.31846(10)
O14_3 O 0.91614(12) 0.27778(7) 0.35758(9)
C78_3 C 0.65284(19) 0.19358(10) 0.95131(13)
C79_3 C 0.59435(19) 0.17668(9) 0.94815(14)
H53_3 H 0.5946 0.1566 0.9673
C80_3 C 0.53529(19) 0.18977(9) 0.91638(13)
H54_5 H 0.4954 0.1786 0.9148
C81_3 C 0.53371(17) 0.21932(8) 0.88653(13)
C82_3 C 0.59367(18) 0.23511(9) 0.88971(13)
H55_3 H 0.5943 0.2543 0.8691
C83_3 C 0.65323(18) 0.22281(9) 0.92325(13)
H56_3 H 0.6932 0.2345 0.9265
C84_5 C 0.46960(19) 0.23295(9) 0.85213(14)
O8_3 O 0.71420(13) 0.18063(6) 0.98363(9)
O9_3 O 0.46954(12) 0.25432(6) 0.81846(10)
O10_3 O 0.41614(12) 0.22222(7) 0.85758(9)
Cd7_2 Cd 0.348561(12) 0.252336(5) 0.784012(9)
C12_5 C 0.55770(19) 0.96947(8) 0.33055(14)
C13_5 C 0.57611(19) 0.96581(8) 0.28854(14)
H9_5 H 0.5757 0.9855 0.2686
C14_5 C 0.59516(19) 0.93323(8) 0.27569(14)
H10_5 H 0.6079 0.9314 0.2472
C15_5 C 0.59601(18) 0.90286(8) 0.30401(14)
C16_5 C 0.57788(19) 0.90691(8) 0.34610(14)
H11_5 H 0.5775 0.8871 0.3657
C17_5 C 0.56030(19) 0.93943(8) 0.36018(14)
H12_5 H 0.5501 0.9415 0.3897
C18_5 C 0.61216(18) 0.86764(8) 0.28700(13)
C19_5 C 0.65524(18) 0.86400(8) 0.25904(13)
H13_5 H 0.6761 0.8839 0.2513
C20_5 C 0.66683(18) 0.83107(8) 0.24297(13)
H14_5 H 0.6953 0.8294 0.2239
C21_5 C 0.59837(19) 0.80442(8) 0.27928(13)
H15_5 H 0.5777 0.7840 0.2857
C22_5 C 0.58414(19) 0.83640(8) 0.29772(13)
H16_5 H 0.5560 0.8371 0.3172
C24_5 C 0.4302(2) 0.98318(9) 0.35536(15)
H17_5 H 0.4211 0.9692 0.3268
C25_5 C 0.3852(2) 0.98374(9) 0.38154(14)
H18_5 H 0.3466 0.9700 0.3703
C30_5 C 0.2848(2) 0.99068(8) 0.43413(16)
H21_5 H 0.2695 0.9828 0.4012
C31_5 C 0.2421(2) 0.98889(8) 0.46281(16)
H22_5 H 0.1991 0.9798 0.4490
C35_5 C 0.2080(2) 0.96453(8) 0.55966(15)
C36_5 C 0.2464(2) 0.93564(8) 0.55758(15)
H25_5 H 0.2800 0.9378 0.5431
C37_5 C 0.2357(2) 0.90375(9) 0.57667(15)
H26_5 H 0.2622 0.8844 0.5747
C38_5 C 0.1865(2) 0.89943(8) 0.59887(16)
C39_5 C 0.1474(2) 0.92837(9) 0.59891(16)
H27_5 H 0.1129 0.9263 0.6126
C40_5 C 0.1576(2) 0.96045(9) 0.57924(16)
H28_5 H 0.1297 0.9795 0.5794
C41_5 C 0.1790(2) 0.86541(9) 0.62381(16)
C42_5 C 0.2067(2) 0.83377(8) 0.61594(15)
H29_5 H 0.2296 0.8325 0.5929
C43_5 C 0.2004(2) 0.80383(9) 0.64232(16)
H30_5 H 0.2213 0.7831 0.6372
C44_5 C 0.1431(2) 0.83331(10) 0.68383(17)
H31_5 H 0.1222 0.8338 0.7082
C45_5 C 0.1475(2) 0.86448(9) 0.65994(17)
H32_5 H 0.1293 0.8852 0.6680
N3_3 N 0.63973(14) 0.80131(6) 0.25309(10)
N4_5 N 0.22065(17) 0.99856(7) 0.54192(12)
N5_3 N 0.16686(16) 0.80259(7) 0.67404(12)
Cd5_2 Cd 0.651439(12) 0.747664(5) 0.215988(9)
Cd6_2 Cd 0.151439(12) 0.752336(5) 0.715988(9)
H7_6 H 0.0305 0.5615 0.1778
C23_6 C 0.0123(2) 0.50269(8) 0.12952(14)
C24_6 C 0.0698(2) 0.48318(9) 0.14464(15)
H17_6 H 0.0789 0.4692 0.1732
C25_6 C 0.1148(2) 0.48374(9) 0.11846(14)
H18_6 H 0.1534 0.4700 0.1297
C26_6 C 0.1040(2) 0.50402(8) 0.07624(14)
C27_6 C 0.0471(2) 0.52391(9) 0.06213(15)
H19_6 H 0.0389 0.5385 0.0343
C28_6 C 0.0014(2) 0.52318(8) 0.08757(15)
C29_6 C 0.1509(2) 0.50385(8) 0.04676(14)
C30_6 C 0.2152(2) 0.49068(8) 0.06587(16)
H21_6 H 0.2305 0.4828 0.0988
C31_6 C 0.2579(2) 0.48889(8) 0.03719(16)
H22_6 H 0.3009 0.4798 0.0510
H54_6 H 0.0046 0.6786 0.5852
C84_6 C 0.03040(19) 0.73295(9) 0.64787(14)
O9_4 O 0.03046(12) 0.75432(6) 0.68154(10)
O10_4 O 0.08386(12) 0.72222(7) 0.64242(9)
C32_6 C 0.2369(2) 0.50042(9) 0.98904(15)
C33_6 C 0.1736(2) 0.51466(9) 0.96944(16)
H23_6 H 0.1590 0.5233 0.9369
C34_6 C 0.1322(2) 0.51599(9) 0.99825(16)
H24_6 H 0.0896 0.5255 0.9843
C35_6 C 0.2920(2) 0.46453(8) 0.94034(15)
C36_6 C 0.2536(2) 0.43564(8) 0.94242(15)
H25_6 H 0.2200 0.4378 0.9569
C37_6 C 0.2643(2) 0.40375(9) 0.92333(15)
H26_6 H 0.2378 0.3844 0.9253
C38_6 C 0.3135(2) 0.39943(8) 0.90113(16)
C39_6 C 0.3526(2) 0.42837(9) 0.90109(16)
H27_6 H 0.3871 0.4263 0.8874
C40_6 C 0.3424(2) 0.46045(9) 0.92076(16)
H28_6 H 0.3703 0.4795 0.9206
C41_6 C 0.3210(2) 0.36541(9) 0.87619(16)
C42_6 C 0.2933(2) 0.33377(8) 0.88406(15)
H29_6 H 0.2704 0.3325 0.9071
C43_6 C 0.2996(2) 0.30383(9) 0.85768(16)
H30_6 H 0.2787 0.2831 0.8628
C44_6 C 0.3569(2) 0.33331(10) 0.81617(17)
H31_6 H 0.3778 0.3338 0.7918
C45_6 C 0.3525(2) 0.36448(9) 0.84006(17)
H32_6 H 0.3707 0.3852 0.8320
C46_6 C 0.2873(2) 0.53024(8) 0.93391(16)
C47_6 C 0.2772(2) 0.53186(9) 0.88389(16)
H33_6 H 0.2657 0.5114 0.8646
C48_6 C 0.2839(2) 0.56406(9) 0.86124(15)
H34_6 H 0.2774 0.5647 0.8271
C49_6 C 0.3001(2) 0.59514(8) 0.88923(16)
C50_6 C 0.3069(2) 0.59339(9) 0.93830(15)
H35_6 H 0.3153 0.6141 0.9573
C51_6 C 0.3018(2) 0.56143(9) 0.96114(15)
H36_6 H 0.3083 0.5610 0.9953
C52_6 C 0.3080(2) 0.62881(9) 0.86464(14)
C53_6 C 0.3414(2) 0.63040(9) 0.83020(15)
H37_6 H 0.3595 0.6098 0.8216
C54_6 C 0.3482(2) 0.66240(9) 0.80822(15)
H38_6 H 0.3709 0.6627 0.7849
C55_6 C 0.2907(2) 0.69118(9) 0.85131(14)
H39_6 H 0.2715 0.7120 0.8581
C56_6 C 0.2830(2) 0.66051(9) 0.87553(14)
H40_6 H 0.2610 0.6612 0.8992
N4_6 N 0.27935(17) 0.49856(7) 0.95808(12)
N5_4 N 0.33314(16) 0.30259(7) 0.82596(12)
N6_4 N 0.32391(15) 0.69252(7) 0.81903(11)
Cd4_2 Cd 0.341137(12) 0.743827(6) 0.780029(9)
C1_6 C 0.82646(19) 0.67284(9) 0.25111(15)
H1_6 H 0.7962 0.6738 0.2688
C2_6 C 0.84027(19) 0.64013(8) 0.23509(15)
H2_6 H 0.8193 0.6199 0.2419
C3_6 C 0.88473(19) 0.63717(8) 0.20917(14)
C4_6 C 0.9134(2) 0.66843(8) 0.20055(14)
H3_6 H 0.9439 0.6682 0.1831
C5_6 C 0.8965(2) 0.69995(9) 0.21800(14)
H4_6 H 0.9167 0.7206 0.2118
C6_6 C 0.9043(2) 0.60210(8) 0.19409(14)
C7_6 C 0.8617(2) 0.57358(8) 0.18477(14)
H5_6 H 0.8191 0.5764 0.1871
C8_6 C 0.8806(2) 0.54077(8) 0.17191(15)
H6_6 H 0.8503 0.5220 0.1651
C9_6 C 0.9437(2) 0.53549(8) 0.16903(14)
C10_6 C 0.9873(2) 0.56442(8) 0.17884(14)
C11_6 C 0.9673(2) 0.59702(8) 0.19000(14)
H8_6 H 0.9966 0.6162 0.1949
C12_6 C 0.94230(19) 0.46947(8) 0.16945(14)
C13_6 C 0.92389(19) 0.46581(8) 0.21146(14)
H9_6 H 0.9243 0.4855 0.2314
C14_6 C 0.90484(19) 0.43323(8) 0.22431(14)
H10_6 H 0.8921 0.4314 0.2528
C15_6 C 0.90399(18) 0.40286(8) 0.19599(14)
C16_6 C 0.92212(19) 0.40691(8) 0.15390(14)
H11_6 H 0.9225 0.3871 0.1343
C17_6 C 0.93970(19) 0.43943(8) 0.13982(14)
H12_6 H 0.9499 0.4415 0.1103
C18_6 C 0.88784(18) 0.36764(8) 0.21300(13)
C19_6 C 0.84476(18) 0.36400(8) 0.24096(13)
H13_6 H 0.8239 0.3839 0.2487
C20_6 C 0.83317(18) 0.33107(8) 0.25703(13)
H14_6 H 0.8047 0.3294 0.2761
C21_6 C 0.90163(19) 0.30442(8) 0.22072(13)
H15_6 H 0.9223 0.2840 0.2143
C22_6 C 0.91586(19) 0.33640(8) 0.20228(13)
H16_6 H 0.9440 0.3371 0.1828
H20_6 H 0.9626 0.5367 0.0761
C57_6 C 0.79157(18) 0.78554(8) 0.18387(13)
C58_6 C 0.76694(17) 0.79636(7) 0.13024(12)
C59_6 C 0.80820(17) 0.81271(8) 0.10732(13)
H41_6 H 0.8515 0.8189 0.1264
C60_6 C 0.78626(18) 0.81993(8) 0.05670(13)
H42_6 H 0.8147 0.8309 0.0420
C61_6 C 0.72267(18) 0.81090(8) 0.02807(13)
C62_6 C 0.68051(18) 0.79519(8) 0.04982(13)
H43_6 H 0.6371 0.7893 0.0305
C63_6 C 0.70247(17) 0.78816(8) 0.10046(13)
H44_6 H 0.6733 0.7777 0.1149
C71_6 C 0.70263(19) 0.71773(8) 0.31162(13)
C72_6 C 0.72692(16) 0.70602(7) 0.36453(12)
C73_6 C 0.78974(17) 0.71503(8) 0.39503(13)
H49_6 H 0.8185 0.7266 0.3813
C74_6 C 0.81146(18) 0.70746(8) 0.44521(13)
H50_6 H 0.8541 0.7142 0.4650
C75_6 C 0.76932(18) 0.68948(8) 0.46672(13)
C76_6 C 0.70646(17) 0.67920(8) 0.43642(13)
H51_6 H 0.6782 0.6668 0.4499
C77_6 C 0.68564(17) 0.68737(8) 0.38575(13)
H52_6 H 0.6434 0.6803 0.3656
C78_4 C 0.84716(19) 0.69358(10) 0.54869(13)
C79_4 C 0.90565(19) 0.67668(9) 0.55185(14)
H53_4 H 0.9054 0.6566 0.5327
C80_4 C 0.96471(19) 0.68977(9) 0.58362(13)
C81_4 C 0.96629(17) 0.71932(8) 0.61347(13)
C82_4 C 0.90633(18) 0.73511(9) 0.61029(13)
H55_4 H 0.9057 0.7543 0.6309
C83_4 C 0.84677(18) 0.72281(9) 0.57675(13)
H56_4 H 0.8068 0.7345 0.5735
Cd1_4 Cd 0.841137(12) 0.756173(6) 0.280029(9)
N1_6 N 0.85324(15) 0.70294(7) 0.24315(11)
N2_6 N 0.96546(16) 0.50245(7) 0.15634(11)
O1_6 O 0.85130(12) 0.78976(6) 0.20918(9)
O2_6 O 0.75060(11) 0.77088(5) 0.20260(8)
O6_6 O 0.74293(11) 0.73291(5) 0.29312(8)
O7_6 O 0.64261(12) 0.71353(6) 0.28562(9)
O8_4 O 0.78580(13) 0.68063(6) 0.51637(9)
N8_4 N 0.66686(16) 0.69741(7) 0.17404(12)
N9_4 N 0.82391(15) 0.80748(7) 0.31903(11)
O11_4 O 0.96267(12) 0.75927(6) 0.31550(10)
O12_4 O 0.90810(12) 0.72620(7) 0.35290(9)
O13_4 O 0.53046(12) 0.74568(6) 0.18154(10)
O14_4 O 0.58386(12) 0.77778(7) 0.14242(9)
C64_6 C 0.64434(19) 0.80459(10) 0.94606(14)
C65_6 C 0.64540(18) 0.77462(9) 0.91977(13)
H45_6 H 0.6858 0.7633 0.9232
C66_6 C 0.58630(18) 0.76082(9) 0.88786(13)
H46_6 H 0.5874 0.7404 0.8697
C67_6 C 0.52610(18) 0.77680(8) 0.88265(12)
C68_6 C 0.52615(19) 0.80752(9) 0.91015(14)
H47_6 H 0.4859 0.8188 0.9075
C69_6 C 0.5852(2) 0.82137(10) 0.94122(15)
H48_6 H 0.5849 0.8422 0.9589
C70_6 C 0.46096(19) 0.76253(9) 0.84831(13)
O3_6 O 0.70473(13) 0.81880(6) 0.97758(9)
O4_4 O 0.46267(12) 0.74073(6) 0.81550(10)
O5_4 O 0.40810(12) 0.77380(7) 0.85290(9)
C12_7 C 0.44230(19) 0.03053(8) 0.66945(14)
C13_7 C 0.42389(19) 0.03419(8) 0.71146(14)
H9_7 H 0.4243 0.0145 0.7314
C14_7 C 0.40484(19) 0.06677(8) 0.72431(14)
H10_7 H 0.3921 0.0686 0.7528
C15_7 C 0.40399(18) 0.09714(8) 0.69599(14)
C16_7 C 0.42212(19) 0.09309(8) 0.65390(14)
H11_7 H 0.4225 0.1129 0.6343
C17_7 C 0.43970(19) 0.06057(8) 0.63982(14)
H12_7 H 0.4499 0.0585 0.6103
C18_7 C 0.38784(18) 0.13236(8) 0.71300(13)
C19_7 C 0.34476(18) 0.13600(8) 0.74096(13)
H13_7 H 0.3239 0.1161 0.7487
C20_7 C 0.33317(18) 0.16893(8) 0.75703(13)
H14_7 H 0.3047 0.1706 0.7761
C21_7 C 0.40163(19) 0.19558(8) 0.72072(13)
H15_7 H 0.4223 0.2160 0.7143
C22_7 C 0.41586(19) 0.16360(8) 0.70228(13)
H16_7 H 0.4440 0.1629 0.6828
C24_7 C 0.5698(2) 0.01682(9) 0.64464(15)
H17_7 H 0.5789 0.0308 0.6732
C25_7 C 0.6148(2) 0.01626(9) 0.61846(14)
H18_7 H 0.6534 0.0300 0.6297
C30_7 C 0.7152(2) 0.00932(8) 0.56587(16)
H21_7 H 0.7305 0.0172 0.5988
C31_7 C 0.7579(2) 0.01111(8) 0.53719(16)
H22_7 H 0.8009 0.0202 0.5510
C35_7 C 0.7920(2) 0.03547(8) 0.44034(15)
C36_7 C 0.7536(2) 0.06436(8) 0.44242(15)
H25_7 H 0.7200 0.0622 0.4569
C37_7 C 0.7643(2) 0.09625(9) 0.42333(15)
H26_7 H 0.7378 0.1156 0.4253
C38_7 C 0.8135(2) 0.10057(8) 0.40113(16)
C39_7 C 0.8526(2) 0.07163(9) 0.40109(16)
H27_7 H 0.8871 0.0737 0.3874
C40_7 C 0.8424(2) 0.03955(9) 0.42076(16)
H28_7 H 0.8703 0.0205 0.4206
C41_7 C 0.8210(2) 0.13459(9) 0.37619(16)
C42_7 C 0.7933(2) 0.16623(8) 0.38406(15)
H29_7 H 0.7704 0.1675 0.4071
C43_7 C 0.7996(2) 0.19617(9) 0.35768(16)
H30_7 H 0.7787 0.2169 0.3628
C44_7 C 0.8569(2) 0.16669(10) 0.31617(17)
H31_7 H 0.8778 0.1662 0.2918
C45_7 C 0.8525(2) 0.13552(9) 0.34006(17)
H32_7 H 0.8707 0.1148 0.3320
N3_4 N 0.36027(14) 0.19869(6) 0.74691(10)
N4_7 N 0.77935(17) 0.00144(7) 0.45808(12)
C78_5 C 0.34716(19) 0.80642(10) 0.04869(13)
C79_5 C 0.40565(19) 0.82332(9) 0.05185(14)
H53_5 H 0.4054 0.8434 0.0327
C80_5 C 0.46471(19) 0.81023(9) 0.08362(13)
H54_7 H 0.5046 0.8214 0.0852
C81_5 C 0.46629(17) 0.78068(8) 0.11347(13)
C82_5 C 0.40633(18) 0.76489(9) 0.11029(13)
H55_5 H 0.4057 0.7457 0.1309
C83_5 C 0.34677(18) 0.77719(9) 0.07675(13)
H56_5 H 0.3068 0.7655 0.0735
C84_7 C 0.53040(19) 0.76705(9) 0.14787(14)
O8_5 O 0.28580(13) 0.81937(6) 0.01637(9)
C1_7 C 0.32646(19) 0.82716(9) 0.75111(15)
H1_7 H 0.2962 0.8262 0.7688
C2_7 C 0.34027(19) 0.85987(8) 0.73509(15)
H2_7 H 0.3193 0.8801 0.7419
C3_7 C 0.38473(19) 0.86283(8) 0.70917(14)
C4_7 C 0.4134(2) 0.83157(8) 0.70055(14)
H3_7 H 0.4439 0.8318 0.6831
C5_7 C 0.3965(2) 0.80005(9) 0.71800(14)
H4_7 H 0.4167 0.7794 0.7118
C6_7 C 0.4043(2) 0.89790(8) 0.69409(14)
C7_7 C 0.3617(2) 0.92642(8) 0.68477(14)
H5_7 H 0.3191 0.9236 0.6871
C8_7 C 0.3806(2) 0.95923(8) 0.67191(15)
H6_7 H 0.3503 0.9780 0.6651
C9_7 C 0.4437(2) 0.96451(8) 0.66903(14)
C10_7 C 0.4873(2) 0.93558(8) 0.67884(14)
H7_7 H 0.5305 0.9385 0.6778
C11_7 C 0.4673(2) 0.90298(8) 0.69000(14)
H8_7 H 0.4966 0.8838 0.6949
C23_7 C 0.5123(2) 0.99731(8) 0.62952(14)
C26_7 C 0.6040(2) 0.99598(8) 0.57624(14)
C27_7 C 0.5471(2) 0.97609(9) 0.56213(15)
H19_7 H 0.5389 0.9615 0.5343
C28_7 C 0.5014(2) 0.97682(8) 0.58757(15)
H20_7 H 0.4626 0.9633 0.5761
C29_7 C 0.6509(2) 0.99615(8) 0.54676(14)
C32_7 C 0.7369(2) 0.99958(9) 0.48904(15)
C33_7 C 0.6736(2) 0.98534(9) 0.46944(16)
H23_7 H 0.6590 0.9767 0.4369
C34_7 C 0.6322(2) 0.98401(9) 0.49825(16)
H24_7 H 0.5896 0.9745 0.4843
C46_7 C 0.7873(2) 0.96976(8) 0.43391(16)
C47_7 C 0.7772(2) 0.96814(9) 0.38389(16)
H33_7 H 0.7657 0.9886 0.3646
C48_7 C 0.7839(2) 0.93594(9) 0.36124(15)
H34_7 H 0.7774 0.9353 0.3271
C49_7 C 0.8001(2) 0.90486(8) 0.38923(16)
C50_7 C 0.8069(2) 0.90661(9) 0.43830(15)
H35_7 H 0.8153 0.8859 0.4573
C51_7 C 0.8018(2) 0.93857(9) 0.46114(15)
H36_7 H 0.8083 0.9390 0.4953
C52_7 C 0.8080(2) 0.87119(9) 0.36464(14)
C53_7 C 0.8414(2) 0.86960(9) 0.33020(15)
H37_7 H 0.8595 0.8902 0.3216
C54_7 C 0.8482(2) 0.83760(9) 0.30822(15)
H38_7 H 0.8709 0.8373 0.2849
C55_7 C 0.7907(2) 0.80882(9) 0.35131(14)
H39_7 H 0.7715 0.7880 0.3581
C56_7 C 0.7830(2) 0.83949(9) 0.37553(14)
H40_7 H 0.7610 0.8388 0.3992
C57_7 C 0.29157(18) 0.71446(8) 0.68387(13)
C58_7 C 0.26694(17) 0.70364(7) 0.63024(12)
C59_7 C 0.30820(17) 0.68729(8) 0.60732(13)
H41_7 H 0.3515 0.6811 0.6264
C60_7 C 0.28626(18) 0.68007(8) 0.55670(13)
H42_7 H 0.3147 0.6691 0.5420
C61_7 C 0.22267(18) 0.68910(8) 0.52807(13)
C62_7 C 0.18051(18) 0.70481(8) 0.54982(13)
H43_7 H 0.1371 0.7107 0.5305
C63_7 C 0.20247(17) 0.71184(8) 0.60046(13)
H44_7 H 0.1733 0.7223 0.6149
C64_7 C 0.14434(19) 0.69541(10) 0.44606(14)
C65_7 C 0.14540(18) 0.72538(9) 0.41977(13)
H45_7 H 0.1858 0.7367 0.4232
C66_7 C 0.08630(18) 0.73918(9) 0.38786(13)
H46_7 H 0.0874 0.7596 0.3697
C67_7 C 0.02610(18) 0.72320(8) 0.38265(12)
C68_7 C 0.02615(19) 0.69248(9) 0.41015(14)
C69_7 C 0.0852(2) 0.67863(10) 0.44122(15)
H48_7 H 0.0849 0.6578 0.4589
C71_7 C 0.20263(19) 0.78227(8) 0.81162(13)
C72_7 C 0.22692(16) 0.79398(7) 0.86453(12)
C73_7 C 0.28974(17) 0.78497(8) 0.89503(13)
H49_7 H 0.3185 0.7734 0.8813
C74_7 C 0.31146(18) 0.79254(8) 0.94521(13)
H50_7 H 0.3541 0.7858 0.9650
C75_7 C 0.26932(18) 0.81052(8) 0.96672(13)
C76_7 C 0.20646(17) 0.82080(8) 0.93642(13)
H51_7 H 0.1782 0.8332 0.9499
C77_7 C 0.18564(17) 0.81263(8) 0.88575(13)
H52_7 H 0.1434 0.8197 0.8656
N1_7 N 0.35324(15) 0.79706(7) 0.74315(11)
N2_7 N 0.46546(16) 0.99755(7) 0.65634(11)
O1_7 O 0.35130(12) 0.71024(6) 0.70918(9)
O2_7 O 0.25060(11) 0.72912(5) 0.70260(8)
O3_7 O 0.20473(13) 0.68120(6) 0.47758(9)
O6_7 O 0.24293(11) 0.76709(5) 0.79312(8)
O7_7 O 0.14261(12) 0.78647(6) 0.78562(9)
N7_4 N 0.13973(14) 0.69869(6) 0.75309(10)
H47_7 H 0.9859 0.6812 0.4075
C70_7 C 0.96096(19) 0.73747(9) 0.34831(13)
C64_8 C 0.35566(19) 0.19541(10) 0.05394(14)
C65_8 C 0.35460(18) 0.22538(9) 0.08023(13)
H45_8 H 0.3142 0.2367 0.0768
C66_8 C 0.41370(18) 0.23918(9) 0.11214(13)
H46_8 H 0.4126 0.2596 0.1303
C67_8 C 0.47390(18) 0.22320(8) 0.11735(12)
C68_8 C 0.47385(19) 0.19248(9) 0.08985(14)
H47_8 H 0.5141 0.1812 0.0925
C69_8 C 0.4148(2) 0.17863(10) 0.05878(15)
H48_8 H 0.4151 0.1578 0.0411
C70_8 C 0.53904(19) 0.23747(9) 0.15169(13)
O3_8 O 0.29527(13) 0.18120(6) 0.02242(9)
C1_8 C 0.17354(19) 0.32716(9) 0.74889(15)
H1_8 H 0.2038 0.3262 0.7312
C2_8 C 0.15973(19) 0.35987(8) 0.76491(15)
H2_8 H 0.1807 0.3801 0.7581
C3_8 C 0.11527(19) 0.36283(8) 0.79083(14)
C4_8 C 0.0866(2) 0.33157(8) 0.79945(14)
H3_8 H 0.0561 0.3318 0.8169
C5_8 C 0.1035(2) 0.30005(9) 0.78200(14)
H4_8 H 0.0833 0.2794 0.7882
C6_8 C 0.0957(2) 0.39790(8) 0.80591(14)
C7_8 C 0.1383(2) 0.42642(8) 0.81523(14)
H5_8 H 0.1809 0.4236 0.8129
C8_8 C 0.1194(2) 0.45923(8) 0.82809(15)
H6_8 H 0.1497 0.4780 0.8349
C9_8 C 0.0563(2) 0.46451(8) 0.83097(14)
C10_8 C 0.0127(2) 0.43558(8) 0.82116(14)
C11_8 C 0.0327(2) 0.40298(8) 0.81000(14)
H8_8 H 0.0034 0.3838 0.8051
C12_8 C 0.05770(19) 0.53053(8) 0.83055(14)
C13_8 C 0.07611(19) 0.53419(8) 0.78854(14)
H9_8 H 0.0757 0.5145 0.7686
C14_8 C 0.09516(19) 0.56677(8) 0.77569(14)
H10_8 H 0.1079 0.5686 0.7472
C15_8 C 0.09601(18) 0.59714(8) 0.80401(14)
C16_8 C 0.07788(19) 0.59309(8) 0.84610(14)
H11_8 H 0.0775 0.6129 0.8657
C17_8 C 0.06030(19) 0.56057(8) 0.86018(14)
H12_8 H 0.0501 0.5585 0.8897
C18_8 C 0.11216(18) 0.63236(8) 0.78700(13)
C19_8 C 0.15524(18) 0.63600(8) 0.75904(13)
H13_8 H 0.1761 0.6161 0.7513
C20_8 C 0.16683(18) 0.66893(8) 0.74297(13)
H14_8 H 0.1953 0.6706 0.7239
C21_8 C 0.09837(19) 0.69558(8) 0.77928(13)
H15_8 H 0.0777 0.7160 0.7857
C22_8 C 0.08414(19) 0.66360(8) 0.79772(13)
H16_8 H 0.0560 0.6629 0.8172
H20_8 H 0.0374 0.4633 0.9239
C57_8 C 0.20843(18) 0.21446(8) 0.81613(13)
C58_8 C 0.23306(17) 0.20364(7) 0.86976(12)
C59_8 C 0.19180(17) 0.18729(8) 0.89268(13)
H41_8 H 0.1485 0.1811 0.8736
C60_8 C 0.21374(18) 0.18007(8) 0.94330(13)
H42_8 H 0.1853 0.1691 0.9580
C61_8 C 0.27733(18) 0.18910(8) 0.97193(13)
C62_8 C 0.31949(18) 0.20481(8) 0.95018(13)
H43_8 H 0.3629 0.2107 0.9695
C63_8 C 0.29753(17) 0.21184(8) 0.89954(13)
H44_8 H 0.3267 0.2223 0.8851
C71_8 C 0.29737(19) 0.28227(8) 0.68838(13)
C72_8 C 0.27308(16) 0.29398(7) 0.63547(12)
C73_8 C 0.21026(17) 0.28497(8) 0.60497(13)
H49_8 H 0.1815 0.2734 0.6187
C74_8 C 0.18854(18) 0.29254(8) 0.55479(13)
H50_8 H 0.1459 0.2858 0.5350
C75_8 C 0.23068(18) 0.31052(8) 0.53328(13)
C76_8 C 0.29354(17) 0.32080(8) 0.56358(13)
H51_8 H 0.3218 0.3332 0.5501
C77_8 C 0.31436(17) 0.31263(8) 0.61425(13)
H52_8 H 0.3566 0.3197 0.6344
C78_6 C 0.15284(19) 0.30642(10) 0.45131(13)
C79_6 C 0.09435(19) 0.32332(9) 0.44815(14)
H53_6 H 0.0946 0.3434 0.4673
C80_6 C 0.03529(19) 0.31023(9) 0.41638(13)
C81_6 C 0.03371(17) 0.28068(8) 0.38653(13)
C82_6 C 0.09367(18) 0.26489(9) 0.38971(13)
H55_6 H 0.0943 0.2457 0.3691
C83_6 C 0.15323(18) 0.27719(9) 0.42325(13)
H56_6 H 0.1932 0.2655 0.4265
N1_8 N 0.14676(15) 0.29706(7) 0.75685(11)
N2_8 N 0.03454(16) 0.49755(7) 0.84366(11)
O1_8 O 0.14870(12) 0.21024(6) 0.79082(9)
O2_8 O 0.24940(11) 0.22912(5) 0.79740(8)
O6_8 O 0.25707(11) 0.26709(5) 0.70688(8)
O7_8 O 0.35739(12) 0.28647(6) 0.71438(9)
O8_6 O 0.21420(13) 0.31937(6) 0.48363(9)
C32_8 C 0.7631(2) 0.49958(9) 0.01096(15)
C33_8 C 0.8264(2) 0.48534(9) 0.03056(16)
H23_8 H 0.8410 0.4767 0.0631
C34_8 C 0.8678(2) 0.48401(9) 0.00175(16)
H24_8 H 0.9104 0.4745 0.0157
C35_8 C 0.7080(2) 0.53547(8) 0.05966(15)
C36_8 C 0.7464(2) 0.56436(8) 0.05758(15)
H25_8 H 0.7800 0.5622 0.0431
C37_8 C 0.7357(2) 0.59625(9) 0.07667(15)
H26_8 H 0.7622 0.6156 0.0747
C38_8 C 0.6865(2) 0.60057(8) 0.09887(16)
C39_8 C 0.6474(2) 0.57163(9) 0.09891(16)
H27_8 H 0.6129 0.5737 0.1126
C40_8 C 0.6576(2) 0.53955(9) 0.07924(16)
H28_8 H 0.6297 0.5205 0.0794
C41_8 C 0.6790(2) 0.63459(9) 0.12381(16)
C42_8 C 0.7067(2) 0.66623(8) 0.11594(15)
H29_8 H 0.7296 0.6675 0.0929
C43_8 C 0.7004(2) 0.69617(9) 0.14232(16)
H30_8 H 0.7213 0.7169 0.1372
C44_8 C 0.6431(2) 0.66669(10) 0.18383(17)
H31_8 H 0.6222 0.6662 0.2082
C45_8 C 0.6475(2) 0.63552(9) 0.15994(17)
H32_8 H 0.6293 0.6148 0.1680
C46_8 C 0.7127(2) 0.46976(8) 0.06609(16)
C47_8 C 0.7228(2) 0.46814(9) 0.11611(16)
H33_8 H 0.7343 0.4886 0.1354
C48_8 C 0.7161(2) 0.43594(9) 0.13876(15)
H34_8 H 0.7226 0.4353 0.1729
C49_8 C 0.6999(2) 0.40486(8) 0.11077(16)
C50_8 C 0.6931(2) 0.40661(9) 0.06170(15)
H35_8 H 0.6847 0.3859 0.0427
C51_8 C 0.6982(2) 0.43857(9) 0.03886(15)
H36_8 H 0.6917 0.4390 0.0047
C52_8 C 0.6920(2) 0.37119(9) 0.13536(14)
C53_8 C 0.6586(2) 0.36960(9) 0.16980(15)
H37_8 H 0.6405 0.3902 0.1784
C54_8 C 0.6518(2) 0.33760(9) 0.19178(15)
H38_8 H 0.6291 0.3373 0.2151
C55_8 C 0.7093(2) 0.30882(9) 0.14869(14)
H39_8 H 0.7285 0.2880 0.1419
C56_8 C 0.7170(2) 0.33949(9) 0.12447(14)
H40_8 H 0.7390 0.3388 0.1008
N4_8 N 0.72065(17) 0.50144(7) 0.04192(12)
H7_8 H 0.9695 0.4385 0.8222
C23_8 C 0.9877(2) 0.49731(8) 0.87048(14)
C24_8 C 0.9302(2) 0.51682(9) 0.85536(15)
H17_8 H 0.9211 0.5308 0.8268
C25_8 C 0.8852(2) 0.51626(9) 0.88154(14)
H18_8 H 0.8466 0.5300 0.8703
C26_8 C 0.8960(2) 0.49598(8) 0.92376(14)
C27_8 C 0.9529(2) 0.47609(9) 0.93787(15)
H19_8 H 0.9611 0.4615 0.9657
C28_8 C 0.9986(2) 0.47682(8) 0.91243(15)
C29_8 C 0.8491(2) 0.49615(8) 0.95324(14)
C30_8 C 0.7848(2) 0.50932(8) 0.93413(16)
H21_8 H 0.7695 0.5172 0.9012
C31_8 C 0.7421(2) 0.51111(8) 0.96281(16)
H22_8 H 0.6991 0.5202 0.9490
H54_8 H 0.9954 0.3214 0.4148
C84_8 C 0.96960(19) 0.26705(9) 0.35213(14)
C78_7 C 0.15284(19) 0.69358(10) 0.95131(13)
C79_7 C 0.09435(19) 0.67668(9) 0.94815(14)
H53_7 H 0.0946 0.6566 0.9673
C80_7 C 0.03529(19) 0.68977(9) 0.91638(13)
C81_7 C 0.03371(17) 0.71932(8) 0.88653(13)
C82_7 C 0.09367(18) 0.73511(9) 0.88971(13)
H55_7 H 0.0943 0.7543 0.8691
C83_7 C 0.15323(18) 0.72281(9) 0.92325(13)
H56_7 H 0.1932 0.7345 0.9265
O8_7 O 0.21420(13) 0.68063(6) 0.98363(9)
C78_8 C 0.84716(19) 0.30642(10) 0.04869(13)
C79_8 C 0.90565(19) 0.32332(9) 0.05185(14)
H53_8 H 0.9054 0.3434 0.0327
C80_8 C 0.96471(19) 0.31023(9) 0.08362(13)
C81_8 C 0.96629(17) 0.28068(8) 0.11347(13)
C82_8 C 0.90633(18) 0.26489(9) 0.11029(13)
H55_8 H 0.9057 0.2457 0.1309
C83_8 C 0.84677(18) 0.27719(9) 0.07675(13)
H56_8 H 0.8068 0.2655 0.0735
O8_8 O 0.78580(13) 0.31937(6) 0.01637(9)
loop_
_geom_bond_atom_site_label_1
_geom_bond_atom_site_label_2
_geom_bond_site_symmetry_1
_geom_bond_site_symmetry_2
C1 H1 1_555 1_555
C2 C1 1_555 1_555
H2 C2 1_555 1_555
C3 C2 1_555 1_555
C4 C3 1_555 1_555
H3 C4 1_555 1_555
C5 C4 1_555 1_555
H4 C5 1_555 1_555
C6 C3 1_555 1_555
C7 C6 1_555 1_555
H5 C7 1_555 1_555
C8 C7 1_555 1_555
H6 C8 1_555 1_555
C9 C8 1_555 1_555
C10 C9 1_555 1_555
H7 C10 1_555 1_555
C11 C6 1_555 1_555
H8 C11 1_555 1_555
C27 C26 1_555 1_555
H19 C27 1_555 1_555
C28 C23 1_555 1_555
H20 C28 1_555 1_555
C29 C26 1_555 1_555
C57 C58 1_555 1_555
C58 C59 1_555 1_555
C59 H41 1_555 1_555
C60 C59 1_555 1_555
H42 C60 1_555 1_555
C61 C60 1_555 1_555
C62 C61 1_555 1_555
H43 C62 1_555 1_555
C63 C58 1_555 1_555
H44 C63 1_555 1_555
C71 C72 1_555 1_555
C72 C73 1_555 1_555
C73 H49 1_555 1_555
C74 C73 1_555 1_555
H50 C74 1_555 1_555
C75 C74 1_555 1_555
C76 C75 1_555 1_555
H51 C76 1_555 1_555
C77 C72 1_555 1_555
H52 C77 1_555 1_555
C78 C79 1_555 1_555
C79 H53 1_555 1_555
C80 C79 1_555 1_555
H54 C80 1_555 1_555
C81 C80 1_555 1_555
C82 C81 1_555 1_555
H55 C82 1_555 1_555
C83 C78 1_555 1_555
H56 C83 1_555 1_555
C84 C81 1_555 1_555
Cd1 N1 1_555 1_555
Cd2 O2 1_555 1_555
N1 C1 1_555 1_555
N2 C9 1_555 1_555
O1 C57 1_555 1_555
O2 C57 1_555 1_555
O6 C71 1_555 1_555
O7 C71 1_555 1_555
O8 C75 1_555 1_555
O9 C84 1_555 1_555
O10 C84 1_555 1_555
Cd7 O9 1_555 1_555
N7 Cd2 1_555 1_555
N8 Cd2 1_555 1_555
N9 Cd1 1_555 1_555
O11 Cd1 1_555 1_555
O12 Cd1 1_555 1_555
O13 Cd2 1_555 1_555
O14 Cd2 1_555 1_555
C5 N1 1_555 1_555
C10 C11 1_555 1_555
C23 N2 1_555 1_555
C27 C28 1_555 1_555
C62 C63 1_555 1_555
C76 C77 1_555 1_555
C78 O8 1_555 1_555
C82 C83 1_555 1_555
Cd1 O1 1_555 1_555
Cd1 O2 1_555 1_555
Cd1 O6 1_555 1_555
Cd2 O6 1_555 1_555
Cd2 O7 1_555 1_555
O10 Cd7 1_555 1_555
C33 C32 1_555 1_555
H23 C33 1_555 1_555
H24 C34 1_555 1_555
C46 C47 1_555 1_555
C47 H33 1_555 1_555
C48 C47 1_555 1_555
H34 C48 1_555 1_555
C49 C48 1_555 1_555
C50 C49 1_555 1_555
H35 C50 1_555 1_555
C51 C46 1_555 1_555
H36 C51 1_555 1_555
C52 C49 1_555 1_555
C53 C52 1_555 1_555
H37 C53 1_555 1_555
C54 C53 1_555 1_555
H38 C54 1_555 1_555
C55 H39 1_555 1_555
C56 C52 1_555 1_555
H40 C56 1_555 1_555
C64 C65 1_555 1_555
C65 H45 1_555 1_555
C66 C65 1_555 1_555
H46 C66 1_555 1_555
C67 C66 1_555 1_555
C68 C67 1_555 1_555
C69 C64 1_555 1_555
H48 C69 1_555 1_555
N6 C54 1_555 1_555
Cd4 N6 1_555 1_555
C33 C34 1_555 1_555
C50 C51 1_555 1_555
C55 C56 1_555 1_555
C55 N6 1_555 1_555
C64 O3 1_555 1_555
C68 C69 1_555 1_555
C12 C13 1_555 1_555
C13 H9 1_555 1_555
C14 C13 1_555 1_555
H10 C14 1_555 1_555
C15 C14 1_555 1_555
C16 C15 1_555 1_555
H11 C16 1_555 1_555
C17 C12 1_555 1_555
H12 C17 1_555 1_555
C18 C15 1_555 1_555
C19 C18 1_555 1_555
H13 C19 1_555 1_555
C20 C19 1_555 1_555
H14 C20 1_555 1_555
C21 H15 1_555 1_555
C22 C18 1_555 1_555
H16 C22 1_555 1_555
C24 H17 1_555 1_555
C25 C24 1_555 1_555
H18 C25 1_555 1_555
H21 C30 1_555 1_555
C31 C30 1_555 1_555
H22 C31 1_555 1_555
N3 C20 1_555 1_555
Cd5 N3 1_555 1_555
C16 C17 1_555 1_555
C21 C22 1_555 1_555
C21 N3 1_555 1_555
C35 C36 1_555 1_555
C36 H25 1_555 1_555
C37 C36 1_555 1_555
H26 C37 1_555 1_555
C38 C37 1_555 1_555
C39 C38 1_555 1_555
H27 C39 1_555 1_555
C40 C35 1_555 1_555
H28 C40 1_555 1_555
C41 C38 1_555 1_555
C42 C41 1_555 1_555
H29 C42 1_555 1_555
C43 C42 1_555 1_555
H30 C43 1_555 1_555
C44 H31 1_555 1_555
C45 C41 1_555 1_555
H32 C45 1_555 1_555
N5 C43 1_555 1_555
Cd6 N5 1_555 1_555
C35 N4 1_555 1_555
C39 C40 1_555 1_555
C44 C45 1_555 1_555
C44 N5 1_555 1_555
O4 C70 1_555 1_555
O5 C70 1_555 1_555
Cd4 O4 1_555 1_555
O5 Cd4 1_555 1_555
C1_2 H1_2 1_555 1_555
C2_2 C1_2 1_555 1_555
H2_2 C2_2 1_555 1_555
C3_2 C2_2 1_555 1_555
C4_2 C3_2 1_555 1_555
H3_2 C4_2 1_555 1_555
C5_2 C4_2 1_555 1_555
H4_2 C5_2 1_555 1_555
C6_2 C3_2 1_555 1_555
C7_2 C6_2 1_555 1_555
H5_2 C7_2 1_555 1_555
C8_2 C7_2 1_555 1_555
H6_2 C8_2 1_555 1_555
C9_2 C8_2 1_555 1_555
C10_2 C9_2 1_555 1_555
C11_2 C6_2 1_555 1_555
H8_2 C11_2 1_555 1_555
C12_2 C13_2 1_555 1_555
C13_2 H9_2 1_555 1_555
C14_2 C13_2 1_555 1_555
H10_2 C14_2 1_555 1_555
C15_2 C14_2 1_555 1_555
C16_2 C15_2 1_555 1_555
H11_2 C16_2 1_555 1_555
C17_2 C12_2 1_555 1_555
H12_2 C17_2 1_555 1_555
C18_2 C15_2 1_555 1_555
C19_2 C18_2 1_555 1_555
H13_2 C19_2 1_555 1_555
C20_2 C19_2 1_555 1_555
H14_2 C20_2 1_555 1_555
C21_2 H15_2 1_555 1_555
C22_2 C18_2 1_555 1_555
H16_2 C22_2 1_555 1_555
C57_2 C58_2 1_555 1_555
C58_2 C59_2 1_555 1_555
C59_2 H41_2 1_555 1_555
C60_2 C59_2 1_555 1_555
H42_2 C60_2 1_555 1_555
C61_2 C60_2 1_555 1_555
C62_2 C61_2 1_555 1_555
H43_2 C62_2 1_555 1_555
C63_2 C58_2 1_555 1_555
H44_2 C63_2 1_555 1_555
C64_2 C65_2 1_555 1_555
C65_2 H45_2 1_555 1_555
C66_2 C65_2 1_555 1_555
H46_2 C66_2 1_555 1_555
C67_2 C66_2 1_555 1_555
C68_2 C67_2 1_555 1_555
H47_2 C68_2 1_555 1_555
C69_2 C64_2 1_555 1_555
H48_2 C69_2 1_555 1_555
C70_2 C67_2 1_555 1_555
C71_2 C72_2 1_555 1_555
C72_2 C73_2 1_555 1_555
C73_2 H49_2 1_555 1_555
C74_2 C73_2 1_555 1_555
H50_2 C74_2 1_555 1_555
C75_2 C74_2 1_555 1_555
C76_2 C75_2 1_555 1_555
H51_2 C76_2 1_555 1_555
C77_2 C72_2 1_555 1_555
H52_2 C77_2 1_555 1_555
Cd1_2 N1_2 1_555 1_555
Cd5 O2_2 1_555 1_555
N1_2 C1_2 1_555 1_555
N2_2 C9_2 1_555 1_555
N7 C20_2 1_555 1_555
O1_2 C57_2 1_555 1_555
O2_2 C57_2 1_555 1_555
O3_2 C61_2 1_555 1_555
O4_2 C70_2 1_555 1_555
O5_2 C70_2 1_555 1_555
O6_2 C71_2 1_555 1_555
O7_2 C71_2 1_555 1_555
Cd3 O4_2 1_555 1_555
N8_2 Cd5 1_555 1_555
N9_2 Cd1_2 1_555 1_555
O11_2 Cd1_2 1_555 1_555
O12_2 Cd1_2 1_555 1_555
O13_2 Cd5 1_555 1_555
O14_2 Cd5 1_555 1_555
C5_2 N1_2 1_555 1_555
C10_2 C11_2 1_555 1_555
C12_2 N2_2 1_555 1_555
C16_2 C17_2 1_555 1_555
C21_2 C22_2 1_555 1_555
C21_2 N7 1_555 1_555
C62_2 C63_2 1_555 1_555
C64_2 O3_2 1_555 1_555
C68_2 C69_2 1_555 1_555
C76_2 C77_2 1_555 1_555
Cd1_2 O1_2 1_555 1_555
Cd1_2 O2_2 1_555 1_555
Cd1_2 O6_2 1_555 1_555
Cd5 O6_2 1_555 1_555
Cd5 O7_2 1_555 1_555
O5_2 Cd3 1_555 1_555
C23_2 C24_2 1_555 1_555
C24_2 H17_2 1_555 1_555
C25_2 C24_2 1_555 1_555
H18_2 C25_2 1_555 1_555
C26_2 C25_2 1_555 1_555
C27_2 C26_2 1_555 1_555
H19_2 C27_2 1_555 1_555
C28_2 C23_2 1_555 1_555
C29_2 C26_2 1_555 1_555
C30_2 C29_2 1_555 1_555
H21_2 C30_2 1_555 1_555
C31_2 C30_2 1_555 1_555
H22_2 C31_2 1_555 1_555
C32_2 C31_2 1_555 1_555
C33_2 C32_2 1_555 1_555
H23_2 C33_2 1_555 1_555
C34_2 C29_2 1_555 1_555
H24_2 C34_2 1_555 1_555
C35_2 C36_2 1_555 1_555
C36_2 H25_2 1_555 1_555
C37_2 C36_2 1_555 1_555
H26_2 C37_2 1_555 1_555
C38_2 C37_2 1_555 1_555
C39_2 C38_2 1_555 1_555
H27_2 C39_2 1_555 1_555
C40_2 C35_2 1_555 1_555
H28_2 C40_2 1_555 1_555
C41_2 C38_2 1_555 1_555
C42_2 C41_2 1_555 1_555
H29_2 C42_2 1_555 1_555
C43_2 C42_2 1_555 1_555
H30_2 C43_2 1_555 1_555
C44_2 H31_2 1_555 1_555
C45_2 C41_2 1_555 1_555
H32_2 C45_2 1_555 1_555
C46_2 C47_2 1_555 1_555
C47_2 H33_2 1_555 1_555
C48_2 C47_2 1_555 1_555
H34_2 C48_2 1_555 1_555
C49_2 C48_2 1_555 1_555
C50_2 C49_2 1_555 1_555
H35_2 C50_2 1_555 1_555
C51_2 C46_2 1_555 1_555
H36_2 C51_2 1_555 1_555
C52_2 C49_2 1_555 1_555
C53_2 C52_2 1_555 1_555
H37_2 C53_2 1_555 1_555
C54_2 C53_2 1_555 1_555
H38_2 C54_2 1_555 1_555
C55_2 H39_2 1_555 1_555
C56_2 C52_2 1_555 1_555
H40_2 C56_2 1_555 1_555
N4_2 C32_2 1_555 1_555
N5_2 C43_2 1_555 1_555
N6_2 C54_2 1_555 1_555
Cd3 N6_2 1_555 1_555
Cd7 N5_2 1_555 1_555
C27_2 C28_2 1_555 1_555
C33_2 C34_2 1_555 1_555
C35_2 N4_2 1_555 1_555
C39_2 C40_2 1_555 1_555
C44_2 C45_2 1_555 1_555
C44_2 N5_2 1_555 1_555
C46_2 N4_2 1_555 1_555
C50_2 C51_2 1_555 1_555
C55_2 C56_2 1_555 1_555
C55_2 N6_2 1_555 1_555
O9_2 C84_2 1_555 1_555
O10_2 C84_2 1_555 1_555
Cd6 O9_2 1_555 1_555
O10_2 Cd6 1_555 1_555
O11_2 C70_3 1_555 1_555
O12_2 C70_3 1_555 1_555
C35_3 C36_3 1_555 1_555
C36_3 H25_3 1_555 1_555
C37_3 C36_3 1_555 1_555
H26_3 C37_3 1_555 1_555
C38_3 C37_3 1_555 1_555
C39_3 C38_3 1_555 1_555
H27_3 C39_3 1_555 1_555
C40_3 C35_3 1_555 1_555
H28_3 C40_3 1_555 1_555
C41_3 C38_3 1_555 1_555
C42_3 C41_3 1_555 1_555
H29_3 C42_3 1_555 1_555
C43_3 C42_3 1_555 1_555
H30_3 C43_3 1_555 1_555
C44_3 H31_3 1_555 1_555
C45_3 C41_3 1_555 1_555
H32_3 C45_3 1_555 1_555
N8 C43_3 1_555 1_555
C35_3 N4_3 1_555 1_555
C39_3 C40_3 1_555 1_555
C44_3 C45_3 1_555 1_555
C44_3 N8 1_555 1_555
C12_3 C13_3 1_555 1_555
C13_3 H9_3 1_555 1_555
C14_3 C13_3 1_555 1_555
H10_3 C14_3 1_555 1_555
C15_3 C14_3 1_555 1_555
C16_3 C15_3 1_555 1_555
H11_3 C16_3 1_555 1_555
C17_3 C12_3 1_555 1_555
H12_3 C17_3 1_555 1_555
C18_3 C15_3 1_555 1_555
C19_3 C18_3 1_555 1_555
H13_3 C19_3 1_555 1_555
C20_3 C19_3 1_555 1_555
H14_3 C20_3 1_555 1_555
C21_3 H15_3 1_555 1_555
C22_3 C18_3 1_555 1_555
H16_3 C22_3 1_555 1_555
C24_3 H17_3 1_555 1_555
C25_3 C24_3 1_555 1_555
H18_3 C25_3 1_555 1_555
H21_3 C30_3 1_555 1_555
C31_3 C30_3 1_555 1_555
H22_3 C31_3 1_555 1_555
N3_2 C20_3 1_555 1_555
Cd7 N3_2 1_555 1_555
C16_3 C17_3 1_555 1_555
C21_3 C22_3 1_555 1_555
C21_3 N3_2 1_555 1_555
C33_3 C32_3 1_555 1_555
H23_3 C33_3 1_555 1_555
H24_3 C34_3 1_555 1_555
C46_3 C47_3 1_555 1_555
C47_3 H33_3 1_555 1_555
C48_3 C47_3 1_555 1_555
H34_3 C48_3 1_555 1_555
C49_3 C48_3 1_555 1_555
C50_3 C49_3 1_555 1_555
H35_3 C50_3 1_555 1_555
C51_3 C46_3 1_555 1_555
H36_3 C51_3 1_555 1_555
C52_3 C49_3 1_555 1_555
C53_3 C52_3 1_555 1_555
H37_3 C53_3 1_555 1_555
C54_3 C53_3 1_555 1_555
H38_3 C54_3 1_555 1_555
C55_3 H39_3 1_555 1_555
C56_3 C52_3 1_555 1_555
H40_3 C56_3 1_555 1_555
C64_3 C65_3 1_555 1_555
C65_3 H45_3 1_555 1_555
C66_3 C65_3 1_555 1_555
H46_3 C66_3 1_555 1_555
C67_3 C66_3 1_555 1_555
C68_3 C67_3 1_555 1_555
C69_3 C64_3 1_555 1_555
H48_3 C69_3 1_555 1_555
N9_2 C54_3 1_555 1_555
C33_3 C34_3 1_555 1_555
C50_3 C51_3 1_555 1_555
C55_3 C56_3 1_555 1_555
C55_3 N9_2 1_555 1_555
C64_3 O3_3 1_555 1_555
C68_3 C69_3 1_555 1_555
C1_3 H1_3 1_555 1_555
C2_3 C1_3 1_555 1_555
H2_3 C2_3 1_555 1_555
C3_3 C2_3 1_555 1_555
C4_3 C3_3 1_555 1_555
H3_3 C4_3 1_555 1_555
C5_3 C4_3 1_555 1_555
H4_3 C5_3 1_555 1_555
C6_3 C3_3 1_555 1_555
C7_3 C6_3 1_555 1_555
H5_3 C7_3 1_555 1_555
C8_3 C7_3 1_555 1_555
H6_3 C8_3 1_555 1_555
C9_3 C8_3 1_555 1_555
C10_3 C9_3 1_555 1_555
H7_3 C10_3 1_555 1_555
C11_3 C6_3 1_555 1_555
H8_3 C11_3 1_555 1_555
C27_3 C26_3 1_555 1_555
H19_3 C27_3 1_555 1_555
C28_3 C23_3 1_555 1_555
H20_3 C28_3 1_555 1_555
C29_3 C26_3 1_555 1_555
C57_3 C58_3 1_555 1_555
C58_3 C59_3 1_555 1_555
C59_3 H41_3 1_555 1_555
C60_3 C59_3 1_555 1_555
H42_3 C60_3 1_555 1_555
C61_3 C60_3 1_555 1_555
C62_3 C61_3 1_555 1_555
H43_3 C62_3 1_555 1_555
C63_3 C58_3 1_555 1_555
H44_3 C63_3 1_555 1_555
C71_3 C72_3 1_555 1_555
C72_3 C73_3 1_555 1_555
C73_3 H49_3 1_555 1_555
C74_3 C73_3 1_555 1_555
H50_3 C74_3 1_555 1_555
C75_3 C74_3 1_555 1_555
C76_3 C75_3 1_555 1_555
H51_3 C76_3 1_555 1_555
C77_3 C72_3 1_555 1_555
H52_3 C77_3 1_555 1_555
C78_2 C79_2 1_555 1_555
C79_2 H53_2 1_555 1_555
C80_2 C79_2 1_555 1_555
H54_3 C80_2 1_555 1_555
C81_2 C80_2 1_555 1_555
C82_2 C81_2 1_555 1_555
H55_2 C82_2 1_555 1_555
C83_2 C78_2 1_555 1_555
H56_2 C83_2 1_555 1_555
C84_3 C81_2 1_555 1_555
Cd3 N1_3 1_555 1_555
Cd6 O2_3 1_555 1_555
N1_3 C1_3 1_555 1_555
N2_3 C9_3 1_555 1_555
O1_3 C57_3 1_555 1_555
O2_3 C57_3 1_555 1_555
O6_3 C71_3 1_555 1_555
O7_3 C71_3 1_555 1_555
O8_2 C75_3 1_555 1_555
O13_2 C84_3 1_555 1_555
O14_2 C84_3 1_555 1_555
N7_2 Cd6 1_555 1_555
C5_3 N1_3 1_555 1_555
C10_3 C11_3 1_555 1_555
C23_3 N2_3 1_555 1_555
C27_3 C28_3 1_555 1_555
C62_3 C63_3 1_555 1_555
C76_3 C77_3 1_555 1_555
C78_2 O8_2 1_555 1_555
C82_2 C83_2 1_555 1_555
Cd3 O1_3 1_555 1_555
Cd3 O2_3 1_555 1_555
Cd3 O6_3 1_555 1_555
Cd6 O6_3 1_555 1_555
Cd6 O7_3 1_555 1_555
O13 C84_4 1_555 1_555
O14 C84_4 1_555 1_555
C23_4 C24_4 1_555 1_555
C24_4 H17_4 1_555 1_555
C25_4 C24_4 1_555 1_555
H18_4 C25_4 1_555 1_555
C26_4 C25_4 1_555 1_555
C27_4 C26_4 1_555 1_555
H19_4 C27_4 1_555 1_555
C28_4 C23_4 1_555 1_555
C29_4 C26_4 1_555 1_555
C30_4 C29_4 1_555 1_555
H21_4 C30_4 1_555 1_555
C31_4 C30_4 1_555 1_555
H22_4 C31_4 1_555 1_555
C32_4 C31_4 1_555 1_555
C33_4 C32_4 1_555 1_555
H23_4 C33_4 1_555 1_555
C34_4 C29_4 1_555 1_555
H24_4 C34_4 1_555 1_555
C35_4 C36_4 1_555 1_555
C36_4 H25_4 1_555 1_555
C37_4 C36_4 1_555 1_555
H26_4 C37_4 1_555 1_555
C38_4 C37_4 1_555 1_555
C39_4 C38_4 1_555 1_555
H27_4 C39_4 1_555 1_555
C40_4 C35_4 1_555 1_555
H28_4 C40_4 1_555 1_555
C41_4 C38_4 1_555 1_555
C42_4 C41_4 1_555 1_555
H29_4 C42_4 1_555 1_555
C43_4 C42_4 1_555 1_555
H30_4 C43_4 1_555 1_555
C44_4 H31_4 1_555 1_555
C45_4 C41_4 1_555 1_555
H32_4 C45_4 1_555 1_555
C46_4 C47_4 1_555 1_555
C47_4 H33_4 1_555 1_555
C48_4 C47_4 1_555 1_555
H34_4 C48_4 1_555 1_555
C49_4 C48_4 1_555 1_555
C50_4 C49_4 1_555 1_555
H35_4 C50_4 1_555 1_555
C51_4 C46_4 1_555 1_555
H36_4 C51_4 1_555 1_555
C52_4 C49_4 1_555 1_555
C53_4 C52_4 1_555 1_555
H37_4 C53_4 1_555 1_555
C54_4 C53_4 1_555 1_555
H38_4 C54_4 1_555 1_555
C55_4 H39_4 1_555 1_555
C56_4 C52_4 1_555 1_555
H40_4 C56_4 1_555 1_555
N4_4 C32_4 1_555 1_555
N8_2 C43_4 1_555 1_555
N9 C54_4 1_555 1_555
C27_4 C28_4 1_555 1_555
C33_4 C34_4 1_555 1_555
C35_4 N4_4 1_555 1_555
C39_4 C40_4 1_555 1_555
C44_4 C45_4 1_555 1_555
C44_4 N8_2 1_555 1_555
C46_4 N4_4 1_555 1_555
C50_4 C51_4 1_555 1_555
C55_4 C56_4 1_555 1_555
C55_4 N9 1_555 1_555
C1_4 H1_4 1_555 1_555
C2_4 C1_4 1_555 1_555
H2_4 C2_4 1_555 1_555
C3_4 C2_4 1_555 1_555
C4_4 C3_4 1_555 1_555
H3_4 C4_4 1_555 1_555
C5_4 C4_4 1_555 1_555
H4_4 C5_4 1_555 1_555
C6_4 C3_4 1_555 1_555
C7_4 C6_4 1_555 1_555
H5_4 C7_4 1_555 1_555
C8_4 C7_4 1_555 1_555
H6_4 C8_4 1_555 1_555
C9_4 C8_4 1_555 1_555
C10_4 C9_4 1_555 1_555
C11_4 C6_4 1_555 1_555
H8_4 C11_4 1_555 1_555
C12_4 C13_4 1_555 1_555
C13_4 H9_4 1_555 1_555
C14_4 C13_4 1_555 1_555
H10_4 C14_4 1_555 1_555
C15_4 C14_4 1_555 1_555
C16_4 C15_4 1_555 1_555
H11_4 C16_4 1_555 1_555
C17_4 C12_4 1_555 1_555
H12_4 C17_4 1_555 1_555
C18_4 C15_4 1_555 1_555
C19_4 C18_4 1_555 1_555
H13_4 C19_4 1_555 1_555
C20_4 C19_4 1_555 1_555
H14_4 C20_4 1_555 1_555
C21_4 H15_4 1_555 1_555
C22_4 C18_4 1_555 1_555
H16_4 C22_4 1_555 1_555
C57_4 C58_4 1_555 1_555
C58_4 C59_4 1_555 1_555
C59_4 H41_4 1_555 1_555
C60_4 C59_4 1_555 1_555
H42_4 C60_4 1_555 1_555
C61_4 C60_4 1_555 1_555
C62_4 C61_4 1_555 1_555
H43_4 C62_4 1_555 1_555
C63_4 C58_4 1_555 1_555
H44_4 C63_4 1_555 1_555
C64_4 C65_4 1_555 1_555
C65_4 H45_4 1_555 1_555
C66_4 C65_4 1_555 1_555
H46_4 C66_4 1_555 1_555
C67_4 C66_4 1_555 1_555
C68_4 C67_4 1_555 1_555
H47_4 C68_4 1_555 1_555
C69_4 C64_4 1_555 1_555
H48_4 C69_4 1_555 1_555
C70_4 C67_4 1_555 1_555
C71_4 C72_4 1_555 1_555
C72_4 C73_4 1_555 1_555
C73_4 H49_4 1_555 1_555
C74_4 C73_4 1_555 1_555
H50_4 C74_4 1_555 1_555
C75_4 C74_4 1_555 1_555
C76_4 C75_4 1_555 1_555
H51_4 C76_4 1_555 1_555
C77_4 C72_4 1_555 1_555
H52_4 C77_4 1_555 1_555
Cd4 N1_4 1_555 1_555
Cd7 O2_4 1_555 1_555
N1_4 C1_4 1_555 1_555
N2_4 C9_4 1_555 1_555
N7_2 C20_4 1_555 1_555
O1_4 C57_4 1_555 1_555
O2_4 C57_4 1_555 1_555
O3_4 C61_4 1_555 1_555
O11 C70_4 1_555 1_555
O12 C70_4 1_555 1_555
O6_4 C71_4 1_555 1_555
O7_4 C71_4 1_555 1_555
C5_4 N1_4 1_555 1_555
C10_4 C11_4 1_555 1_555
C12_4 N2_4 1_555 1_555
C16_4 C17_4 1_555 1_555
C21_4 C22_4 1_555 1_555
C21_4 N7_2 1_555 1_555
C62_4 C63_4 1_555 1_555
C64_4 O3_4 1_555 1_555
C68_4 C69_4 1_555 1_555
C76_4 C77_4 1_555 1_555
Cd4 O1_4 1_555 1_555
Cd4 O2_4 1_555 1_555
Cd4 O6_4 1_555 1_555
Cd7 O6_4 1_555 1_555
Cd7 O7_4 1_555 1_555
O4_3 C70_5 1_555 1_555
O5_3 C70_5 1_555 1_555
Cd3_2 O4_3 1_555 1_555
O5_3 Cd3_2 1_555 1_555
C1_5 H1_5 1_555 1_555
C2_5 C1_5 1_555 1_555
H2_5 C2_5 1_555 1_555
C3_5 C2_5 1_555 1_555
C4_5 C3_5 1_555 1_555
H3_5 C4_5 1_555 1_555
C5_5 C4_5 1_555 1_555
H4_5 C5_5 1_555 1_555
C6_5 C3_5 1_555 1_555
C7_5 C6_5 1_555 1_555
H5_5 C7_5 1_555 1_555
C8_5 C7_5 1_555 1_555
H6_5 C8_5 1_555 1_555
C9_5 C8_5 1_555 1_555
C10_5 C9_5 1_555 1_555
H7_5 C10_5 1_555 1_555
C11_5 C6_5 1_555 1_555
H8_5 C11_5 1_555 1_555
C27_5 C26_5 1_555 1_555
H19_5 C27_5 1_555 1_555
C28_5 C23_5 1_555 1_555
H20_5 C28_5 1_555 1_555
C29_5 C26_5 1_555 1_555
C33_5 C32_5 1_555 1_555
H23_5 C33_5 1_555 1_555
C34_5 C29_5 1_555 1_555
H24_5 C34_5 1_555 1_555
C46_5 C47_5 1_555 1_555
C47_5 H33_5 1_555 1_555
C48_5 C47_5 1_555 1_555
H34_5 C48_5 1_555 1_555
C49_5 C48_5 1_555 1_555
C50_5 C49_5 1_555 1_555
H35_5 C50_5 1_555 1_555
C51_5 C46_5 1_555 1_555
H36_5 C51_5 1_555 1_555
C52_5 C49_5 1_555 1_555
C53_5 C52_5 1_555 1_555
H37_5 C53_5 1_555 1_555
C54_5 C53_5 1_555 1_555
H38_5 C54_5 1_555 1_555
C55_5 H39_5 1_555 1_555
C56_5 C52_5 1_555 1_555
H40_5 C56_5 1_555 1_555
C57_5 C58_5 1_555 1_555
C58_5 C59_5 1_555 1_555
C59_5 H41_5 1_555 1_555
C60_5 C59_5 1_555 1_555
H42_5 C60_5 1_555 1_555
C61_5 C60_5 1_555 1_555
C62_5 C61_5 1_555 1_555
H43_5 C62_5 1_555 1_555
C63_5 C58_5 1_555 1_555
H44_5 C63_5 1_555 1_555
C64_5 C65_5 1_555 1_555
C65_5 H45_5 1_555 1_555
C66_5 C65_5 1_555 1_555
H46_5 C66_5 1_555 1_555
C67_5 C66_5 1_555 1_555
C68_5 C67_5 1_555 1_555
C69_5 C64_5 1_555 1_555
H48_5 C69_5 1_555 1_555
C71_5 C72_5 1_555 1_555
C72_5 C73_5 1_555 1_555
C73_5 H49_5 1_555 1_555
C74_5 C73_5 1_555 1_555
H50_5 C74_5 1_555 1_555
C75_5 C74_5 1_555 1_555
C76_5 C75_5 1_555 1_555
H51_5 C76_5 1_555 1_555
C77_5 C72_5 1_555 1_555
H52_5 C77_5 1_555 1_555
Cd1_3 N1_5 1_555 1_555
Cd2_2 O2_5 1_555 1_555
N1_5 C1_5 1_555 1_555
N2_5 C9_5 1_555 1_555
N6_3 C54_5 1_555 1_555
O1_5 C57_5 1_555 1_555
O2_5 C57_5 1_555 1_555
O3_5 C61_5 1_555 1_555
O6_5 C71_5 1_555 1_555
O7_5 C71_5 1_555 1_555
Cd3_2 N6_3 1_555 1_555
N7_3 Cd2_2 1_555 1_555
N8_3 Cd2_2 1_555 1_555
N9_3 Cd1_3 1_555 1_555
O11_3 Cd1_3 1_555 1_555
O12_3 Cd1_3 1_555 1_555
O13_3 Cd2_2 1_555 1_555
O14_3 Cd2_2 1_555 1_555
C5_5 N1_5 1_555 1_555
C10_5 C11_5 1_555 1_555
C23_5 N2_5 1_555 1_555
C27_5 C28_5 1_555 1_555
C33_5 C34_5 1_555 1_555
C50_5 C51_5 1_555 1_555
C55_5 C56_5 1_555 1_555
C55_5 N6_3 1_555 1_555
C62_5 C63_5 1_555 1_555
C64_5 O3_5 1_555 1_555
C68_5 C69_5 1_555 1_555
C76_5 C77_5 1_555 1_555
Cd1_3 O1_5 1_555 1_555
Cd1_3 O2_5 1_555 1_555
Cd1_3 O6_5 1_555 1_555
Cd2_2 O6_5 1_555 1_555
Cd2_2 O7_5 1_555 1_555
C78_3 C79_3 1_555 1_555
C79_3 H53_3 1_555 1_555
C80_3 C79_3 1_555 1_555
H54_5 C80_3 1_555 1_555
C81_3 C80_3 1_555 1_555
C82_3 C81_3 1_555 1_555
H55_3 C82_3 1_555 1_555
C83_3 C78_3 1_555 1_555
H56_3 C83_3 1_555 1_555
C84_5 C81_3 1_555 1_555
O9_3 C84_5 1_555 1_555
O10_3 C84_5 1_555 1_555
Cd7_2 O9_3 1_555 1_555
C78_3 O8_3 1_555 1_555
C82_3 C83_3 1_555 1_555
O10_3 Cd7_2 1_555 1_555
C12_5 C13_5 1_555 1_555
C13_5 H9_5 1_555 1_555
C14_5 C13_5 1_555 1_555
H10_5 C14_5 1_555 1_555
C15_5 C14_5 1_555 1_555
C16_5 C15_5 1_555 1_555
H11_5 C16_5 1_555 1_555
C17_5 C12_5 1_555 1_555
H12_5 C17_5 1_555 1_555
C18_5 C15_5 1_555 1_555
C19_5 C18_5 1_555 1_555
H13_5 C19_5 1_555 1_555
C20_5 C19_5 1_555 1_555
H14_5 C20_5 1_555 1_555
C21_5 H15_5 1_555 1_555
C22_5 C18_5 1_555 1_555
H16_5 C22_5 1_555 1_555
C24_5 H17_5 1_555 1_555
C25_5 C24_5 1_555 1_555
H18_5 C25_5 1_555 1_555
H21_5 C30_5 1_555 1_555
C31_5 C30_5 1_555 1_555
H22_5 C31_5 1_555 1_555
C35_5 C36_5 1_555 1_555
C36_5 H25_5 1_555 1_555
C37_5 C36_5 1_555 1_555
H26_5 C37_5 1_555 1_555
C38_5 C37_5 1_555 1_555
C39_5 C38_5 1_555 1_555
H27_5 C39_5 1_555 1_555
C40_5 C35_5 1_555 1_555
H28_5 C40_5 1_555 1_555
C41_5 C38_5 1_555 1_555
C42_5 C41_5 1_555 1_555
H29_5 C42_5 1_555 1_555
C43_5 C42_5 1_555 1_555
H30_5 C43_5 1_555 1_555
C44_5 H31_5 1_555 1_555
C45_5 C41_5 1_555 1_555
H32_5 C45_5 1_555 1_555
N3_3 C20_5 1_555 1_555
N5_3 C43_5 1_555 1_555
Cd5_2 N3_3 1_555 1_555
Cd6_2 N5_3 1_555 1_555
C16_5 C17_5 1_555 1_555
C21_5 C22_5 1_555 1_555
C21_5 N3_3 1_555 1_555
C35_5 N4_5 1_555 1_555
C39_5 C40_5 1_555 1_555
C44_5 C45_5 1_555 1_555
C44_5 N5_3 1_555 1_555
C23_6 C24_6 1_555 1_555
C24_6 H17_6 1_555 1_555
C25_6 C24_6 1_555 1_555
H18_6 C25_6 1_555 1_555
C26_6 C25_6 1_555 1_555
C27_6 C26_6 1_555 1_555
H19_6 C27_6 1_555 1_555
C28_6 C23_6 1_555 1_555
C29_6 C26_6 1_555 1_555
C30_6 C29_6 1_555 1_555
H21_6 C30_6 1_555 1_555
C31_6 C30_6 1_555 1_555
H22_6 C31_6 1_555 1_555
O9_4 C84_6 1_555 1_555
O10_4 C84_6 1_555 1_555
Cd6_2 O9_4 1_555 1_555
C27_6 C28_6 1_555 1_555
O10_4 Cd6_2 1_555 1_555
C33_6 C32_6 1_555 1_555
H23_6 C33_6 1_555 1_555
H24_6 C34_6 1_555 1_555
C35_6 C36_6 1_555 1_555
C36_6 H25_6 1_555 1_555
C37_6 C36_6 1_555 1_555
H26_6 C37_6 1_555 1_555
C38_6 C37_6 1_555 1_555
C39_6 C38_6 1_555 1_555
H27_6 C39_6 1_555 1_555
C40_6 C35_6 1_555 1_555
H28_6 C40_6 1_555 1_555
C41_6 C38_6 1_555 1_555
C42_6 C41_6 1_555 1_555
H29_6 C42_6 1_555 1_555
C43_6 C42_6 1_555 1_555
H30_6 C43_6 1_555 1_555
C44_6 H31_6 1_555 1_555
C45_6 C41_6 1_555 1_555
H32_6 C45_6 1_555 1_555
C46_6 C47_6 1_555 1_555
C47_6 H33_6 1_555 1_555
C48_6 C47_6 1_555 1_555
H34_6 C48_6 1_555 1_555
C49_6 C48_6 1_555 1_555
C50_6 C49_6 1_555 1_555
H35_6 C50_6 1_555 1_555
C51_6 C46_6 1_555 1_555
H36_6 C51_6 1_555 1_555
C52_6 C49_6 1_555 1_555
C53_6 C52_6 1_555 1_555
H37_6 C53_6 1_555 1_555
C54_6 C53_6 1_555 1_555
H38_6 C54_6 1_555 1_555
C55_6 H39_6 1_555 1_555
C56_6 C52_6 1_555 1_555
H40_6 C56_6 1_555 1_555
N4_6 C32_6 1_555 1_555
N5_4 C43_6 1_555 1_555
N6_4 C54_6 1_555 1_555
Cd4_2 N6_4 1_555 1_555
Cd7_2 N5_4 1_555 1_555
C33_6 C34_6 1_555 1_555
C35_6 N4_6 1_555 1_555
C39_6 C40_6 1_555 1_555
C44_6 C45_6 1_555 1_555
C44_6 N5_4 1_555 1_555
C46_6 N4_6 1_555 1_555
C50_6 C51_6 1_555 1_555
C55_6 C56_6 1_555 1_555
C55_6 N6_4 1_555 1_555
C1_6 H1_6 1_555 1_555
C2_6 C1_6 1_555 1_555
H2_6 C2_6 1_555 1_555
C3_6 C2_6 1_555 1_555
C4_6 C3_6 1_555 1_555
H3_6 C4_6 1_555 1_555
C5_6 C4_6 1_555 1_555
H4_6 C5_6 1_555 1_555
C6_6 C3_6 1_555 1_555
C7_6 C6_6 1_555 1_555
H5_6 C7_6 1_555 1_555
C8_6 C7_6 1_555 1_555
H6_6 C8_6 1_555 1_555
C9_6 C8_6 1_555 1_555
C10_6 C9_6 1_555 1_555
C11_6 C6_6 1_555 1_555
H8_6 C11_6 1_555 1_555
C12_6 C13_6 1_555 1_555
C13_6 H9_6 1_555 1_555
C14_6 C13_6 1_555 1_555
H10_6 C14_6 1_555 1_555
C15_6 C14_6 1_555 1_555
C16_6 C15_6 1_555 1_555
H11_6 C16_6 1_555 1_555
C17_6 C12_6 1_555 1_555
H12_6 C17_6 1_555 1_555
C18_6 C15_6 1_555 1_555
C19_6 C18_6 1_555 1_555
H13_6 C19_6 1_555 1_555
C20_6 C19_6 1_555 1_555
H14_6 C20_6 1_555 1_555
C21_6 H15_6 1_555 1_555
C22_6 C18_6 1_555 1_555
H16_6 C22_6 1_555 1_555
C57_6 C58_6 1_555 1_555
C58_6 C59_6 1_555 1_555
C59_6 H41_6 1_555 1_555
C60_6 C59_6 1_555 1_555
H42_6 C60_6 1_555 1_555
C61_6 C60_6 1_555 1_555
C62_6 C61_6 1_555 1_555
H43_6 C62_6 1_555 1_555
C63_6 C58_6 1_555 1_555
H44_6 C63_6 1_555 1_555
C71_6 C72_6 1_555 1_555
C72_6 C73_6 1_555 1_555
C73_6 H49_6 1_555 1_555
C74_6 C73_6 1_555 1_555
H50_6 C74_6 1_555 1_555
C75_6 C74_6 1_555 1_555
C76_6 C75_6 1_555 1_555
H51_6 C76_6 1_555 1_555
C77_6 C72_6 1_555 1_555
H52_6 C77_6 1_555 1_555
C78_4 C79_4 1_555 1_555
C79_4 H53_4 1_555 1_555
C80_4 C79_4 1_555 1_555
C81_4 C80_4 1_555 1_555
C82_4 C81_4 1_555 1_555
H55_4 C82_4 1_555 1_555
C83_4 C78_4 1_555 1_555
H56_4 C83_4 1_555 1_555
Cd1_4 N1_6 1_555 1_555
Cd5_2 O2_6 1_555 1_555
N1_6 C1_6 1_555 1_555
N2_6 C9_6 1_555 1_555
N7_3 C20_6 1_555 1_555
O1_6 C57_6 1_555 1_555
O2_6 C57_6 1_555 1_555
O6_6 C71_6 1_555 1_555
O7_6 C71_6 1_555 1_555
O8_4 C75_6 1_555 1_555
N8_4 Cd5_2 1_555 1_555
N9_4 Cd1_4 1_555 1_555
O11_4 Cd1_4 1_555 1_555
O12_4 Cd1_4 1_555 1_555
O13_4 Cd5_2 1_555 1_555
O14_4 Cd5_2 1_555 1_555
C5_6 N1_6 1_555 1_555
C10_6 C11_6 1_555 1_555
C12_6 N2_6 1_555 1_555
C16_6 C17_6 1_555 1_555
C21_6 C22_6 1_555 1_555
C21_6 N7_3 1_555 1_555
C62_6 C63_6 1_555 1_555
C76_6 C77_6 1_555 1_555
C78_4 O8_4 1_555 1_555
C82_4 C83_4 1_555 1_555
Cd1_4 O1_6 1_555 1_555
Cd1_4 O2_6 1_555 1_555
Cd1_4 O6_6 1_555 1_555
Cd5_2 O6_6 1_555 1_555
Cd5_2 O7_6 1_555 1_555
C64_6 C65_6 1_555 1_555
C65_6 H45_6 1_555 1_555
C66_6 C65_6 1_555 1_555
H46_6 C66_6 1_555 1_555
C67_6 C66_6 1_555 1_555
C68_6 C67_6 1_555 1_555
H47_6 C68_6 1_555 1_555
C69_6 C64_6 1_555 1_555
H48_6 C69_6 1_555 1_555
C70_6 C67_6 1_555 1_555
O4_4 C70_6 1_555 1_555
O5_4 C70_6 1_555 1_555
Cd4_2 O4_4 1_555 1_555
C64_6 O3_6 1_555 1_555
C68_6 C69_6 1_555 1_555
O5_4 Cd4_2 1_555 1_555
C12_7 C13_7 1_555 1_555
C13_7 H9_7 1_555 1_555
C14_7 C13_7 1_555 1_555
H10_7 C14_7 1_555 1_555
C15_7 C14_7 1_555 1_555
C16_7 C15_7 1_555 1_555
H11_7 C16_7 1_555 1_555
C17_7 C12_7 1_555 1_555
H12_7 C17_7 1_555 1_555
C18_7 C15_7 1_555 1_555
C19_7 C18_7 1_555 1_555
H13_7 C19_7 1_555 1_555
C20_7 C19_7 1_555 1_555
H14_7 C20_7 1_555 1_555
C21_7 H15_7 1_555 1_555
C22_7 C18_7 1_555 1_555
H16_7 C22_7 1_555 1_555
C24_7 H17_7 1_555 1_555
C25_7 C24_7 1_555 1_555
H18_7 C25_7 1_555 1_555
H21_7 C30_7 1_555 1_555
C31_7 C30_7 1_555 1_555
H22_7 C31_7 1_555 1_555
C35_7 C36_7 1_555 1_555
C36_7 H25_7 1_555 1_555
C37_7 C36_7 1_555 1_555
H26_7 C37_7 1_555 1_555
C38_7 C37_7 1_555 1_555
C39_7 C38_7 1_555 1_555
H27_7 C39_7 1_555 1_555
C40_7 C35_7 1_555 1_555
H28_7 C40_7 1_555 1_555
C41_7 C38_7 1_555 1_555
C42_7 C41_7 1_555 1_555
H29_7 C42_7 1_555 1_555
C43_7 C42_7 1_555 1_555
H30_7 C43_7 1_555 1_555
C44_7 H31_7 1_555 1_555
C45_7 C41_7 1_555 1_555
H32_7 C45_7 1_555 1_555
N3_4 C20_7 1_555 1_555
N8_3 C43_7 1_555 1_555
Cd7_2 N3_4 1_555 1_555
C16_7 C17_7 1_555 1_555
C21_7 C22_7 1_555 1_555
C21_7 N3_4 1_555 1_555
C35_7 N4_7 1_555 1_555
C39_7 C40_7 1_555 1_555
C44_7 C45_7 1_555 1_555
C44_7 N8_3 1_555 1_555
C78_5 C79_5 1_555 1_555
C79_5 H53_5 1_555 1_555
C80_5 C79_5 1_555 1_555
H54_7 C80_5 1_555 1_555
C81_5 C80_5 1_555 1_555
C82_5 C81_5 1_555 1_555
H55_5 C82_5 1_555 1_555
C83_5 C78_5 1_555 1_555
H56_5 C83_5 1_555 1_555
C84_7 C81_5 1_555 1_555
O13_4 C84_7 1_555 1_555
O14_4 C84_7 1_555 1_555
C78_5 O8_5 1_555 1_555
C82_5 C83_5 1_555 1_555
C1_7 H1_7 1_555 1_555
C2_7 C1_7 1_555 1_555
H2_7 C2_7 1_555 1_555
C3_7 C2_7 1_555 1_555
C4_7 C3_7 1_555 1_555
H3_7 C4_7 1_555 1_555
C5_7 C4_7 1_555 1_555
H4_7 C5_7 1_555 1_555
C6_7 C3_7 1_555 1_555
C7_7 C6_7 1_555 1_555
H5_7 C7_7 1_555 1_555
C8_7 C7_7 1_555 1_555
H6_7 C8_7 1_555 1_555
C9_7 C8_7 1_555 1_555
C10_7 C9_7 1_555 1_555
H7_7 C10_7 1_555 1_555
C11_7 C6_7 1_555 1_555
H8_7 C11_7 1_555 1_555
C27_7 C26_7 1_555 1_555
H19_7 C27_7 1_555 1_555
C28_7 C23_7 1_555 1_555
H20_7 C28_7 1_555 1_555
C29_7 C26_7 1_555 1_555
C33_7 C32_7 1_555 1_555
H23_7 C33_7 1_555 1_555
C34_7 C29_7 1_555 1_555
H24_7 C34_7 1_555 1_555
C46_7 C47_7 1_555 1_555
C47_7 H33_7 1_555 1_555
C48_7 C47_7 1_555 1_555
H34_7 C48_7 1_555 1_555
C49_7 C48_7 1_555 1_555
C50_7 C49_7 1_555 1_555
H35_7 C50_7 1_555 1_555
C51_7 C46_7 1_555 1_555
H36_7 C51_7 1_555 1_555
C52_7 C49_7 1_555 1_555
C53_7 C52_7 1_555 1_555
H37_7 C53_7 1_555 1_555
C54_7 C53_7 1_555 1_555
H38_7 C54_7 1_555 1_555
C55_7 H39_7 1_555 1_555
C56_7 C52_7 1_555 1_555
H40_7 C56_7 1_555 1_555
C57_7 C58_7 1_555 1_555
C58_7 C59_7 1_555 1_555
C59_7 H41_7 1_555 1_555
C60_7 C59_7 1_555 1_555
H42_7 C60_7 1_555 1_555
C61_7 C60_7 1_555 1_555
C62_7 C61_7 1_555 1_555
H43_7 C62_7 1_555 1_555
C63_7 C58_7 1_555 1_555
H44_7 C63_7 1_555 1_555
C64_7 C65_7 1_555 1_555
C65_7 H45_7 1_555 1_555
C66_7 C65_7 1_555 1_555
H46_7 C66_7 1_555 1_555
C67_7 C66_7 1_555 1_555
C68_7 C67_7 1_555 1_555
C69_7 C64_7 1_555 1_555
H48_7 C69_7 1_555 1_555
C71_7 C72_7 1_555 1_555
C72_7 C73_7 1_555 1_555
C73_7 H49_7 1_555 1_555
C74_7 C73_7 1_555 1_555
H50_7 C74_7 1_555 1_555
C75_7 C74_7 1_555 1_555
C76_7 C75_7 1_555 1_555
H51_7 C76_7 1_555 1_555
C77_7 C72_7 1_555 1_555
H52_7 C77_7 1_555 1_555
Cd4_2 N1_7 1_555 1_555
Cd6_2 O2_7 1_555 1_555
N1_7 C1_7 1_555 1_555
N2_7 C9_7 1_555 1_555
N9_4 C54_7 1_555 1_555
O1_7 C57_7 1_555 1_555
O2_7 C57_7 1_555 1_555
O3_7 C61_7 1_555 1_555
O6_7 C71_7 1_555 1_555
O7_7 C71_7 1_555 1_555
N7_4 Cd6_2 1_555 1_555
C5_7 N1_7 1_555 1_555
C10_7 C11_7 1_555 1_555
C23_7 N2_7 1_555 1_555
C27_7 C28_7 1_555 1_555
C33_7 C34_7 1_555 1_555
C50_7 C51_7 1_555 1_555
C55_7 C56_7 1_555 1_555
C55_7 N9_4 1_555 1_555
C62_7 C63_7 1_555 1_555
C64_7 O3_7 1_555 1_555
C68_7 C69_7 1_555 1_555
C76_7 C77_7 1_555 1_555
Cd4_2 O1_7 1_555 1_555
Cd4_2 O2_7 1_555 1_555
Cd4_2 O6_7 1_555 1_555
Cd6_2 O6_7 1_555 1_555
Cd6_2 O7_7 1_555 1_555
O11_4 C70_7 1_555 1_555
O12_4 C70_7 1_555 1_555
C64_8 C65_8 1_555 1_555
C65_8 H45_8 1_555 1_555
C66_8 C65_8 1_555 1_555
H46_8 C66_8 1_555 1_555
C67_8 C66_8 1_555 1_555
C68_8 C67_8 1_555 1_555
H47_8 C68_8 1_555 1_555
C69_8 C64_8 1_555 1_555
H48_8 C69_8 1_555 1_555
C70_8 C67_8 1_555 1_555
O11_3 C70_8 1_555 1_555
O12_3 C70_8 1_555 1_555
C64_8 O3_8 1_555 1_555
C68_8 C69_8 1_555 1_555
C1_8 H1_8 1_555 1_555
C2_8 C1_8 1_555 1_555
H2_8 C2_8 1_555 1_555
C3_8 C2_8 1_555 1_555
C4_8 C3_8 1_555 1_555
H3_8 C4_8 1_555 1_555
C5_8 C4_8 1_555 1_555
H4_8 C5_8 1_555 1_555
C6_8 C3_8 1_555 1_555
C7_8 C6_8 1_555 1_555
H5_8 C7_8 1_555 1_555
C8_8 C7_8 1_555 1_555
H6_8 C8_8 1_555 1_555
C9_8 C8_8 1_555 1_555
C10_8 C9_8 1_555 1_555
C11_8 C6_8 1_555 1_555
H8_8 C11_8 1_555 1_555
C12_8 C13_8 1_555 1_555
C13_8 H9_8 1_555 1_555
C14_8 C13_8 1_555 1_555
H10_8 C14_8 1_555 1_555
C15_8 C14_8 1_555 1_555
C16_8 C15_8 1_555 1_555
H11_8 C16_8 1_555 1_555
C17_8 C12_8 1_555 1_555
H12_8 C17_8 1_555 1_555
C18_8 C15_8 1_555 1_555
C19_8 C18_8 1_555 1_555
H13_8 C19_8 1_555 1_555
C20_8 C19_8 1_555 1_555
H14_8 C20_8 1_555 1_555
C21_8 H15_8 1_555 1_555
C22_8 C18_8 1_555 1_555
H16_8 C22_8 1_555 1_555
C57_8 C58_8 1_555 1_555
C58_8 C59_8 1_555 1_555
C59_8 H41_8 1_555 1_555
C60_8 C59_8 1_555 1_555
H42_8 C60_8 1_555 1_555
C61_8 C60_8 1_555 1_555
C62_8 C61_8 1_555 1_555
H43_8 C62_8 1_555 1_555
C63_8 C58_8 1_555 1_555
H44_8 C63_8 1_555 1_555
C71_8 C72_8 1_555 1_555
C72_8 C73_8 1_555 1_555
C73_8 H49_8 1_555 1_555
C74_8 C73_8 1_555 1_555
H50_8 C74_8 1_555 1_555
C75_8 C74_8 1_555 1_555
C76_8 C75_8 1_555 1_555
H51_8 C76_8 1_555 1_555
C77_8 C72_8 1_555 1_555
H52_8 C77_8 1_555 1_555
C78_6 C79_6 1_555 1_555
C79_6 H53_6 1_555 1_555
C80_6 C79_6 1_555 1_555
C81_6 C80_6 1_555 1_555
C82_6 C81_6 1_555 1_555
H55_6 C82_6 1_555 1_555
C83_6 C78_6 1_555 1_555
H56_6 C83_6 1_555 1_555
Cd3_2 N1_8 1_555 1_555
Cd7_2 O2_8 1_555 1_555
N1_8 C1_8 1_555 1_555
N2_8 C9_8 1_555 1_555
N7_4 C20_8 1_555 1_555
O1_8 C57_8 1_555 1_555
O2_8 C57_8 1_555 1_555
O6_8 C71_8 1_555 1_555
O7_8 C71_8 1_555 1_555
O8_6 C75_8 1_555 1_555
C5_8 N1_8 1_555 1_555
C10_8 C11_8 1_555 1_555
C12_8 N2_8 1_555 1_555
C16_8 C17_8 1_555 1_555
C21_8 C22_8 1_555 1_555
C21_8 N7_4 1_555 1_555
C62_8 C63_8 1_555 1_555
C76_8 C77_8 1_555 1_555
C78_6 O8_6 1_555 1_555
C82_6 C83_6 1_555 1_555
Cd3_2 O1_8 1_555 1_555
Cd3_2 O2_8 1_555 1_555
Cd3_2 O6_8 1_555 1_555
Cd7_2 O6_8 1_555 1_555
Cd7_2 O7_8 1_555 1_555
C33_8 C32_8 1_555 1_555
H23_8 C33_8 1_555 1_555
H24_8 C34_8 1_555 1_555
C35_8 C36_8 1_555 1_555
C36_8 H25_8 1_555 1_555
C37_8 C36_8 1_555 1_555
H26_8 C37_8 1_555 1_555
C38_8 C37_8 1_555 1_555
C39_8 C38_8 1_555 1_555
H27_8 C39_8 1_555 1_555
C40_8 C35_8 1_555 1_555
H28_8 C40_8 1_555 1_555
C41_8 C38_8 1_555 1_555
C42_8 C41_8 1_555 1_555
H29_8 C42_8 1_555 1_555
C43_8 C42_8 1_555 1_555
H30_8 C43_8 1_555 1_555
C44_8 H31_8 1_555 1_555
C45_8 C41_8 1_555 1_555
H32_8 C45_8 1_555 1_555
C46_8 C47_8 1_555 1_555
C47_8 H33_8 1_555 1_555
C48_8 C47_8 1_555 1_555
H34_8 C48_8 1_555 1_555
C49_8 C48_8 1_555 1_555
C50_8 C49_8 1_555 1_555
H35_8 C50_8 1_555 1_555
C51_8 C46_8 1_555 1_555
H36_8 C51_8 1_555 1_555
C52_8 C49_8 1_555 1_555
C53_8 C52_8 1_555 1_555
H37_8 C53_8 1_555 1_555
C54_8 C53_8 1_555 1_555
H38_8 C54_8 1_555 1_555
C55_8 H39_8 1_555 1_555
C56_8 C52_8 1_555 1_555
H40_8 C56_8 1_555 1_555
N4_8 C32_8 1_555 1_555
N8_4 C43_8 1_555 1_555
N9_3 C54_8 1_555 1_555
C33_8 C34_8 1_555 1_555
C35_8 N4_8 1_555 1_555
C39_8 C40_8 1_555 1_555
C44_8 C45_8 1_555 1_555
C44_8 N8_4 1_555 1_555
C46_8 N4_8 1_555 1_555
C50_8 C51_8 1_555 1_555
C55_8 C56_8 1_555 1_555
C55_8 N9_3 1_555 1_555
C23_8 C24_8 1_555 1_555
C24_8 H17_8 1_555 1_555
C25_8 C24_8 1_555 1_555
H18_8 C25_8 1_555 1_555
C26_8 C25_8 1_555 1_555
C27_8 C26_8 1_555 1_555
H19_8 C27_8 1_555 1_555
C28_8 C23_8 1_555 1_555
C29_8 C26_8 1_555 1_555
C30_8 C29_8 1_555 1_555
H21_8 C30_8 1_555 1_555
C31_8 C30_8 1_555 1_555
H22_8 C31_8 1_555 1_555
O13_3 C84_8 1_555 1_555
O14_3 C84_8 1_555 1_555
C27_8 C28_8 1_555 1_555
C78_7 C79_7 1_555 1_555
C79_7 H53_7 1_555 1_555
C80_7 C79_7 1_555 1_555
C81_7 C80_7 1_555 1_555
C82_7 C81_7 1_555 1_555
H55_7 C82_7 1_555 1_555
C83_7 C78_7 1_555 1_555
H56_7 C83_7 1_555 1_555
C78_7 O8_7 1_555 1_555
C82_7 C83_7 1_555 1_555
C78_8 C79_8 1_555 1_555
C79_8 H53_8 1_555 1_555
C80_8 C79_8 1_555 1_555
C81_8 C80_8 1_555 1_555
C82_8 C81_8 1_555 1_555
H55_8 C82_8 1_555 1_555
C83_8 C78_8 1_555 1_555
H56_8 C83_8 1_555 1_555
C78_8 O8_8 1_555 1_555
C82_8 C83_8 1_555 1_555

#END
