
###############################################################################
#
# This file contains modified crystal structure data generated from the
# MOF subset of the Cambridge Structural Database (CSD) v543 
# hosted by the Cambridge Crystallographic Data Centre (CCDC).
#
# This work is licensed under the Creative Commons
# Attribution-NonCommercial-ShareAlike 4.0 International License.
# To view a copy of this license, visit
# http://creativecommons.org/licenses/by-nc-sa/4.0/
# or send a letter to
# Creative Commons, PO Box 1866, Mountain View, CA 94042, USA.
#
# CIF created using the CSD Python API on 29 September 2022
# The structure has been converted into the P1 space group
# The structure has a 3D framework
# The original CSD entry JORQAK is in the hexagonal crystal system
# The framework has been calculated to contain at least 10.0% void space
# The void calculation uses a probe of radius 1.32A, grid spacing 0.4
# H atom positions have been added when not included in the experimental data
#
###############################################################################

data_JORQAK
_chemical_formula_moiety         '(C132 H36 Fe24 O87 Pd4)n'
_symmetry_cell_setting           triclinic
_symmetry_space_group_name_H-M   'P 1'
_symmetry_Int_Tables_number      1
_space_group_name_Hall           'P 1'
loop_
_symmetry_equiv_pos_site_id
_symmetry_equiv_pos_as_xyz
1 x,y,z
_cell_length_a                   19.9724(9)
_cell_length_b                   19.9724(9)
_cell_length_c                   26.0567(9)
_cell_angle_alpha                90
_cell_angle_beta                 90
_cell_angle_gamma                120
_cell_volume                     9001.41
loop_
_atom_site_label
_atom_site_type_symbol
_atom_site_fract_x
_atom_site_fract_y
_atom_site_fract_z
Fe1 Fe 0.03962(8) 0.51981(4) 0.55057(5)
C22 C 0.0498(6) 0.5249(4) 0.6757(5)
O17 O 0.0518(4) 0.5259(3) 0.6287(4)
O20 O 0.1151(4) 0.6286(6) 0.5219(3)
O21 O 0.1151(4) 0.4865(4) 0.5219(3)
Pd3 Pd 0.04800(6) 0.52400(4) 0.750000
C1 C 0.8217(4) 0.6435(8) 0.6708(4)
C2 C 0.8054(5) 0.6108(9) 0.6180(5)
C3 C 0.8546(5) 0.5901(5) 0.5937(3)
H1 H 0.8987(5) 0.5981(5) 0.6109(3)
C4 C 0.8409(5) 0.5586(5) 0.5457(3)
C5 C 0.8983(5) 0.5396(5) 0.5217(3)
C6 C 0.5781(7) 0.6120(8) 0.750000
C7 C 0.4751(4) 0.5249(4) 0.6757(5)
Fe2 Fe 0.76585(10) 0.71473(11) 0.750000
O1 O 0.6424(8) 0.6608(7) 0.750000
O2 O 0.4741(3) 0.5259(3) 0.6287(4)
O3 O 0.9524(4) 0.5495(4) 0.5502(3)
O4 O 0.8849(4) 0.5135(4) 0.4781(3)
Pd1 Pd 0.47600(4) 0.52400(4) 0.750000
O5 O 0.7740(4) 0.6560(5) 0.6894(3)
O6 O 0.8945(4) 0.7890(7) 0.750000
C8 C 0.7727(3) 0.5454(7) 0.5195(4)
C9 C 0.7355(7) 0.5901(5) 0.5937(3)
H2 H 0.6994(7) 0.5981(5) 0.6109(3)
C10 C 0.7177(7) 0.5586(5) 0.5457(3)
C11 C 0.6413(7) 0.5396(5) 0.5217(3)
O7 O 0.5971(6) 0.5495(4) 0.5502(3)
O8 O 0.6286(6) 0.5135(4) 0.4781(3)
O9 O 0.8820(6) 0.6560(5) 0.6894(3)
C12 C 0.3565(8) 0.1782(9) 0.6708(4)
C13 C 0.3892(9) 0.1946(10) 0.6180(5)
C14 C 0.4099(5) 0.2645(7) 0.5937(3)
H3 H 0.4019(5) 0.3006(7) 0.6109(3)
C15 C 0.4414(5) 0.2823(7) 0.5457(3)
C16 C 0.4604(5) 0.3587(7) 0.5217(3)
Fe3 Fe 0.48019(4) 0.51981(9) 0.55057(5)
Fe4 Fe 0.28527(11) 0.05112(15) 0.750000
O11 O 0.4505(4) 0.4029(6) 0.5502(3)
O12 O 0.4865(4) 0.3714(6) 0.4781(3)
O13 O 0.3440(5) 0.1180(6) 0.6894(3)
C18 C 0.4546(7) 0.2273(8) 0.5195(4)
C19 C 0.4099(5) 0.1454(5) 0.5937(3)
H4 H 0.4019(5) 0.1013(5) 0.6109(3)
C20 C 0.4414(5) 0.1591(5) 0.5457(3)
C21 C 0.4604(5) 0.1017(5) 0.5217(3)
O14 O 0.4505(4) 0.0476(4) 0.5502(3)
O15 O 0.4865(4) 0.1151(4) 0.4781(3)
O16 O 0.3440(5) 0.2260(4) 0.6894(3)
C23 C 0.3880(8) 0.4219(7) 0.750000
C24 C 0.4751(4) 0.5249(4) 0.8243(5)
Fe6 Fe 0.51981(9) 0.48019(4) 0.44943(5)
Fe7 Fe 0.96038(8) 0.48019(9) 0.44943(5)
Fe8 Fe 0.51981(4) 0.03962(8) 0.44943(5)
Fe9 Fe 0.28527(11) 0.23415(10) 0.750000
Fe10 Fe 0.94888(15) 0.71473(11) 0.750000
O18 O 0.9524(4) 0.4029(6) 0.5502(3)
O19 O 0.3714(6) 0.4865(4) 0.5219(3)
O22 O 0.5135(4) 0.6286(6) 0.5219(3)
O23 O 0.3440(5) 0.1180(6) 0.8106(3)
O24 O 0.7740(4) 0.6560(5) 0.8106(3)
O25 O 0.2110(7) 0.1055(8) 0.750000
H5 H 0.762715 0.525431 0.479864
H6 H 0.474569 0.237285 0.479864
C17 C 0.3880(8) 0.9661(11) 0.750000
O10 O 0.3392(7) 0.9816(11) 0.750000
Fe5 Fe 0.48019(9) 0.96038(8) 0.55057(5)
Pd2 Pd 0.47600(4) 0.95200(6) 0.750000
Fe1_2 Fe 0.51981(9) 0.03962(8) 0.05057(5)
C22_2 C 0.5249(7) 0.0498(6) 0.1757(5)
O17_2 O 0.5259(5) 0.0518(4) 0.1287(4)
O20_2 O 0.4865(7) 0.1151(4) 0.0219(3)
O21_2 O 0.6286(6) 0.1151(4) 0.0219(3)
Pd3_2 Pd 0.52400(7) 0.04800(6) 0.250000
C1_2 C 0.1782(9) 0.8217(4) 0.1708(4)
C2_2 C 0.1946(10) 0.8054(5) 0.1180(5)
C3_2 C 0.2645(7) 0.8546(5) 0.0937(3)
H1_2 H 0.3006(7) 0.8987(5) 0.1109(3)
C4_2 C 0.2823(7) 0.8409(5) 0.0457(3)
C5_2 C 0.3587(7) 0.8983(5) 0.0217(3)
Fe2_2 Fe 0.05112(15) 0.76585(10) 0.250000
O3_2 O 0.4029(6) 0.9524(4) 0.0502(3)
O5_2 O 0.1180(6) 0.7740(4) 0.1894(3)
O6_2 O 0.1055(8) 0.8945(4) 0.250000
C8_2 C 0.2273(8) 0.7727(3) 0.0195(4)
C9_2 C 0.1454(9) 0.7355(7) 0.0937(3)
H2_2 H 0.1013(9) 0.6994(7) 0.1109(3)
C10_2 C 0.1591(9) 0.7177(7) 0.0457(3)
C11_2 C 0.1017(9) 0.6413(7) 0.0217(3)
O7_2 O 0.0476(7) 0.5971(6) 0.0502(3)
O9_2 O 0.2260(8) 0.8820(6) 0.1894(3)
C12_2 C 0.1783(12) 0.3565(8) 0.1708(4)
C13_2 C 0.1946(13) 0.3892(9) 0.1180(5)
C14_2 C 0.1454(9) 0.4099(5) 0.0937(3)
H3_2 H 0.1013(9) 0.4019(5) 0.1109(3)
C15_2 C 0.1591(9) 0.4414(5) 0.0457(3)
C16_2 C 0.1017(9) 0.4604(5) 0.0217(3)
C17_2 C 0.4219(14) 0.3880(8) 0.250000
Fe4_2 Fe 0.23415(19) 0.28527(11) 0.250000
O10_2 O 0.3576(13) 0.3392(7) 0.250000
O11_2 O 0.0476(7) 0.4505(4) 0.0502(3)
O13_2 O 0.2260(8) 0.3440(5) 0.1894(3)
C18_2 C 0.2273(11) 0.4546(7) 0.0195(4)
C19_2 C 0.2645(7) 0.4099(5) 0.0937(3)
H4_2 H 0.3006(7) 0.4019(5) 0.1109(3)
C20_2 C 0.2823(7) 0.4414(5) 0.0457(3)
C21_2 C 0.3587(7) 0.4604(5) 0.0217(3)
O14_2 O 0.4029(6) 0.4505(4) 0.0502(3)
O16_2 O 0.1180(6) 0.3440(5) 0.1894(3)
Fe5_2 Fe 0.51981(12) 0.48019(9) 0.05057(5)
Fe9_2 Fe 0.05112(15) 0.28527(11) 0.250000
Fe10_2 Fe 0.23415(19) 0.94888(15) 0.250000
O18_2 O 0.5495(7) 0.9524(4) 0.0502(3)
Pd2_2 Pd 0.52400(7) 0.47600(4) 0.250000
O23_2 O 0.2260(8) 0.3440(5) 0.3106(3)
O24_2 O 0.1180(6) 0.7740(4) 0.3106(3)
O25_2 O 0.1055(11) 0.2110(7) 0.250000
O4_2 O 0.3714(6) 0.8849(4) 0.9781(3)
O8_2 O 0.1151(7) 0.6286(6) 0.9781(3)
O12_2 O 0.1151(7) 0.4865(4) 0.9781(3)
O15_2 O 0.3714(6) 0.4865(4) 0.9781(3)
Fe6_2 Fe 0.03962(10) 0.51981(9) 0.94943(5)
Fe7_2 Fe 0.48019(12) 0.96038(8) 0.94943(5)
Fe8_2 Fe 0.48019(9) 0.51981(4) 0.94943(5)
H5_2 H 0.237285 0.762715 0.979864
H6_2 H 0.237285 0.474569 0.979864
C6_2 C 0.9661(11) 0.5781(7) 0.250000
C7_2 C 0.9502(6) 0.4751(4) 0.1757(5)
O1_2 O 0.9816(11) 0.6424(8) 0.250000
O2_2 O 0.9482(4) 0.4741(3) 0.1287(4)
Pd1_2 Pd 0.95200(6) 0.47600(4) 0.250000
Fe3_2 Fe 0.96038(10) 0.48019(4) 0.05057(5)
C23_2 C 0.9661(11) 0.3880(8) 0.250000
C24_2 C 0.9502(6) 0.4751(4) 0.3243(5)
O19_2 O 0.8849(7) 0.3714(6) 0.0219(3)
O22_2 O 0.8849(7) 0.5135(4) 0.0219(3)
C6_3 C 0.6120(8) 0.0339(11) 0.250000
O1_3 O 0.6608(7) 0.0184(11) 0.250000
C23_3 C 0.4219(7) 0.0339(11) 0.250000
C24_3 C 0.5249(4) 0.0498(6) 0.3243(5)
C1_3 C 0.6435(8) 0.8218(9) 0.1708(4)
C2_3 C 0.6108(9) 0.8054(10) 0.1180(5)
C3_3 C 0.5901(5) 0.7355(7) 0.0937(3)
H1_3 H 0.5981(5) 0.6994(7) 0.1109(3)
C4_3 C 0.5586(5) 0.7177(7) 0.0457(3)
C5_3 C 0.5396(5) 0.6413(7) 0.0217(3)
Fe2_3 Fe 0.71473(11) 0.94888(15) 0.250000
O3_3 O 0.5495(4) 0.5971(6) 0.0502(3)
O5_3 O 0.6560(5) 0.8820(6) 0.1894(3)
O6_3 O 0.7890(7) 0.8945(8) 0.250000
C8_3 C 0.5454(7) 0.7727(8) 0.0195(4)
C9_3 C 0.5901(5) 0.8546(9) 0.0937(3)
H2_3 H 0.5981(5) 0.8987(9) 0.1109(3)
C10_3 C 0.5586(5) 0.8409(9) 0.0457(3)
C11_3 C 0.5396(5) 0.8983(9) 0.0217(3)
O9_3 O 0.6560(5) 0.7740(8) 0.1894(3)
C22_3 C 0.5249(4) 0.4751(7) 0.1757(5)
O17_3 O 0.5259(3) 0.4741(5) 0.1287(4)
Fe10_3 Fe 0.71473(11) 0.76585(19) 0.250000
O20_3 O 0.6286(6) 0.5135(7) 0.0219(3)
O21_3 O 0.4865(4) 0.3714(6) 0.0219(3)
O24_3 O 0.6560(5) 0.8820(6) 0.3106(3)
O4_3 O 0.5135(4) 0.6286(6) 0.9781(3)
O8_3 O 0.5135(4) 0.8849(7) 0.9781(3)
H5_3 H 0.525431 0.762715 0.979864
C17_3 C 0.0339(11) 0.4219(14) 0.750000
O10_3 O 0.0184(11) 0.3576(13) 0.750000
C12_3 C 0.8218(9) 0.1783(12) 0.6708(4)
C13_3 C 0.8054(10) 0.1946(13) 0.6180(5)
C14_3 C 0.7355(7) 0.1454(9) 0.5937(3)
H3_3 H 0.6994(7) 0.1013(9) 0.6109(3)
C15_3 C 0.7177(7) 0.1591(9) 0.5457(3)
C16_3 C 0.6413(7) 0.1017(9) 0.5217(3)
Fe4_3 Fe 0.94888(15) 0.23415(19) 0.750000
O11_3 O 0.5971(6) 0.0476(7) 0.5502(3)
O12_3 O 0.6286(6) 0.1151(7) 0.4781(3)
O13_3 O 0.8820(6) 0.2260(8) 0.6894(3)
C18_3 C 0.7727(8) 0.2273(11) 0.5195(4)
C19_3 C 0.8546(5) 0.2645(7) 0.5937(3)
H4_3 H 0.8987(5) 0.3006(7) 0.6109(3)
C20_3 C 0.8409(5) 0.2823(7) 0.5457(3)
C21_3 C 0.8983(5) 0.3587(7) 0.5217(3)
O15_3 O 0.8849(4) 0.3714(6) 0.4781(3)
O16_3 O 0.7740(4) 0.1180(6) 0.6894(3)
Fe9_3 Fe 0.76585(10) 0.05112(15) 0.750000
O23_3 O 0.8820(6) 0.2260(8) 0.8106(3)
O25_3 O 0.8945(8) 0.1055(11) 0.750000
H6_3 H 0.762715 0.237285 0.479864
C7_3 C 0.4751(4) 0.9502(6) 0.6757(5)
O2_3 O 0.4741(3) 0.9482(4) 0.6287(4)
C23_4 C 0.5781(7) 0.9661(11) 0.750000
C24_4 C 0.4751(4) 0.9502(6) 0.8243(5)
O19_3 O 0.5135(4) 0.8849(7) 0.5219(3)
O22_3 O 0.3714(6) 0.8849(7) 0.5219(3)
C23_5 C 0.0339(11) 0.6120(8) 0.750000
C24_5 C 0.0498(6) 0.5249(4) 0.8243(5)
O10_4 O 0.3576(13) 0.0184(11) 0.250000
C1_4 C 0.1782(9) 0.3565(8) 0.3292(4)
C2_4 C 0.1946(10) 0.3892(9) 0.3820(5)
C3_4 C 0.2645(7) 0.4099(5) 0.4063(3)
H1_4 H 0.3006(7) 0.4019(5) 0.3891(3)
C4_4 C 0.2823(7) 0.4414(5) 0.4543(3)
C5_4 C 0.3587(7) 0.4604(5) 0.4783(3)
O3_4 O 0.4029(6) 0.4505(4) 0.4498(3)
O5_4 O 0.1180(6) 0.3440(5) 0.3106(3)
C8_4 C 0.2273(8) 0.4546(7) 0.4805(4)
C9_4 C 0.1454(9) 0.4099(5) 0.4063(3)
H2_4 H 0.1013(9) 0.4019(5) 0.3891(3)
C10_4 C 0.1591(9) 0.4414(5) 0.4543(3)
C11_4 C 0.1017(9) 0.4604(5) 0.4783(3)
O7_3 O 0.0476(7) 0.4505(4) 0.4498(3)
C12_4 C 0.1783(12) 0.8218(9) 0.3292(4)
C13_4 C 0.1946(13) 0.8054(10) 0.3820(5)
C14_4 C 0.1454(9) 0.7355(7) 0.4063(3)
H3_4 H 0.1013(9) 0.6994(7) 0.3891(3)
C15_4 C 0.1591(9) 0.7177(7) 0.4543(3)
C16_4 C 0.1017(9) 0.6413(7) 0.4783(3)
O11_4 O 0.0476(7) 0.5971(6) 0.4498(3)
O13_4 O 0.2260(8) 0.8820(6) 0.3106(3)
C18_4 C 0.2273(11) 0.7727(8) 0.4805(4)
C19_4 C 0.2645(7) 0.8546(5) 0.4063(3)
H4_4 H 0.3006(7) 0.8987(5) 0.3891(3)
C20_4 C 0.2823(7) 0.8409(5) 0.4543(3)
C21_4 C 0.3587(7) 0.8983(5) 0.4783(3)
O14_3 O 0.4029(6) 0.9524(4) 0.4498(3)
C22_4 C 0.5249(7) 0.4751(4) 0.3243(5)
O17_4 O 0.5259(5) 0.4741(3) 0.3713(4)
O18_3 O 0.5495(7) 0.5971(6) 0.4498(3)
H5_4 H 0.237285 0.474569 0.520136
H6_4 H 0.237285 0.762715 0.520136
O1_4 O 0.9816(11) 0.3392(7) 0.250000
O2_4 O 0.9482(4) 0.4741(3) 0.3713(4)
O2_5 O 0.5259(3) 0.0518(4) 0.3713(4)
C12_5 C 0.6435(8) 0.8217(12) 0.3292(4)
C13_5 C 0.6108(9) 0.8054(13) 0.3820(5)
C14_5 C 0.5901(5) 0.8546(9) 0.4063(3)
H3_5 H 0.5981(5) 0.8987(9) 0.3891(3)
C15_5 C 0.5586(5) 0.8409(9) 0.4543(3)
C16_5 C 0.5396(5) 0.8983(9) 0.4783(3)
C17_4 C 0.6120(8) 0.5781(14) 0.250000
O10_5 O 0.6608(7) 0.6424(13) 0.250000
O11_5 O 0.5495(4) 0.9524(7) 0.4498(3)
O13_5 O 0.6560(5) 0.7740(8) 0.3106(3)
C18_5 C 0.5454(7) 0.7727(11) 0.4805(4)
C19_5 C 0.5901(5) 0.7355(7) 0.4063(3)
H4_5 H 0.5981(5) 0.6994(7) 0.3891(3)
C20_5 C 0.5586(5) 0.7177(7) 0.4543(3)
C21_5 C 0.5396(5) 0.6413(7) 0.4783(3)
H6_5 H 0.525431 0.762715 0.520136
O10_6 O 0.0184(11) 0.6608(7) 0.750000
H5_5 H 0.474569 0.237285 0.0201356
H6_6 H 0.762715 0.525431 0.0201356
C1_5 C 0.3565(8) 0.1783(4) 0.8292(4)
C2_5 C 0.3892(9) 0.1946(5) 0.8820(5)
C3_5 C 0.4099(5) 0.1454(5) 0.9063(3)
H1_5 H 0.4019(5) 0.1013(5) 0.8891(3)
C4_5 C 0.4414(5) 0.1591(5) 0.9543(3)
C5_5 C 0.4604(5) 0.1017(5) 0.9783(3)
O1_5 O 0.3392(7) 0.3576(8) 0.750000
O2_6 O 0.4741(3) 0.5259(3) 0.8713(4)
O3_5 O 0.4505(4) 0.0476(4) 0.9498(3)
O5_5 O 0.3440(5) 0.2260(4) 0.8106(3)
C8_5 C 0.4546(7) 0.2273(3) 0.9805(4)
C9_5 C 0.4099(5) 0.2645(7) 0.9063(3)
H2_5 H 0.4019(5) 0.3006(7) 0.8891(3)
C10_5 C 0.4414(5) 0.2823(7) 0.9543(3)
C11_5 C 0.4604(5) 0.3587(7) 0.9783(3)
O7_4 O 0.4505(4) 0.4029(6) 0.9498(3)
C12_6 C 0.8218(9) 0.6435(8) 0.8292(4)
C13_6 C 0.8054(10) 0.6108(9) 0.8820(5)
C14_6 C 0.7355(7) 0.5901(5) 0.9063(3)
H3_6 H 0.6994(7) 0.5981(5) 0.8891(3)
C15_6 C 0.7177(7) 0.5586(5) 0.9543(3)
C16_6 C 0.6413(7) 0.5396(5) 0.9783(3)
O11_6 O 0.5971(6) 0.5495(4) 0.9498(3)
O13_6 O 0.8820(6) 0.6560(5) 0.8106(3)
C18_6 C 0.7727(8) 0.5454(7) 0.9805(4)
C19_6 C 0.8546(5) 0.5901(5) 0.9063(3)
H4_6 H 0.8987(5) 0.5981(5) 0.8891(3)
C20_6 C 0.8409(5) 0.5586(5) 0.9543(3)
C21_6 C 0.8983(5) 0.5396(5) 0.9783(3)
O14_4 O 0.9524(4) 0.5495(4) 0.9498(3)
O18_4 O 0.5971(6) 0.0476(4) 0.9498(3)
O17_5 O 0.4741(3) 0.9482(4) 0.8713(4)
O2_7 O 0.0518(4) 0.5259(3) 0.8713(4)
H6_7 H 0.762715 0.237285 0.0201356
C12_7 C 0.8217(12) 0.1782(9) 0.8292(4)
C13_7 C 0.8054(13) 0.1946(10) 0.8820(5)
C14_7 C 0.8546(9) 0.2645(7) 0.9063(3)
H3_7 H 0.8987(9) 0.3006(7) 0.8891(3)
C15_7 C 0.8409(9) 0.2823(7) 0.9543(3)
C16_7 C 0.8983(9) 0.3587(7) 0.9783(3)
O11_7 O 0.9524(7) 0.4029(6) 0.9498(3)
O13_7 O 0.7740(8) 0.1180(6) 0.8106(3)
C18_7 C 0.7727(11) 0.2273(8) 0.9805(4)
C19_7 C 0.7355(7) 0.1454(5) 0.9063(3)
H4_7 H 0.6994(7) 0.1013(5) 0.8891(3)
C20_7 C 0.7177(7) 0.1591(5) 0.9543(3)
C21_7 C 0.6413(7) 0.1017(5) 0.9783(3)
O10_7 O 0.6424(13) 0.9816(11) 0.750000
loop_
_geom_bond_atom_site_label_1
_geom_bond_atom_site_label_2
_geom_bond_site_symmetry_1
_geom_bond_site_symmetry_2
C22 O17 1_555 1_555
O17 Fe1 1_555 1_555
O20 Fe1 1_555 1_555
O21 Fe1 1_555 1_555
Pd3 C22 1_555 1_555
C1 C2 1_555 1_555
C2 C3 1_555 1_555
C3 H1 1_555 1_555
C4 C3 1_555 1_555
C5 C4 1_555 1_555
C6 O1 1_555 1_555
C7 O2 1_555 1_555
Fe2 O1 1_555 1_555
O2 Fe3 1_555 1_555
O3 C5 1_555 1_555
O4 C5 1_555 1_555
Pd1 C6 1_555 1_555
O5 C1 1_555 1_555
O6 Fe2 1_555 1_555
C8 C4 1_555 1_555
C9 C2 1_555 1_555
H2 C9 1_555 1_555
C10 C8 1_555 1_555
C11 C10 1_555 1_555
O7 C11 1_555 1_555
O8 C11 1_555 1_555
O9 C1 1_555 1_555
C12 C13 1_555 1_555
C13 C14 1_555 1_555
C14 H3 1_555 1_555
C15 C14 1_555 1_555
C16 C15 1_555 1_555
Fe3 O7 1_555 1_555
O11 C16 1_555 1_555
O12 C16 1_555 1_555
O13 C12 1_555 1_555
C18 C15 1_555 1_555
C19 C13 1_555 1_555
H4 C19 1_555 1_555
C20 C18 1_555 1_555
C21 C20 1_555 1_555
O14 C21 1_555 1_555
O15 C21 1_555 1_555
O16 C12 1_555 1_555
C23 Pd1 1_555 1_555
C24 Pd1 1_555 1_555
Fe6 O8 1_555 1_555
Fe8 O15 1_555 1_555
Fe9 O16 1_555 1_555
Fe10 O6 1_555 1_555
O19 Fe3 1_555 1_555
O22 Fe3 1_555 1_555
O23 Fe4 1_555 1_555
O24 Fe2 1_555 1_555
O25 Fe4 1_555 1_555
C7 Pd1 1_555 1_555
Fe2 O5 1_555 1_555
O4 Fe7 1_555 1_555
C9 C10 1_555 1_555
O9 Fe10 1_555 1_555
Fe3 O11 1_555 1_555
Fe3 Fe6 1_555 1_555
Fe4 O13 1_555 1_555
O12 Fe6 1_555 1_555
C19 C20 1_555 1_555
Fe9 O25 1_555 1_555
C8 H5 1_555 1_555
C18 H6 1_555 1_555
C17 O10 1_555 1_555
Pd2 C17 1_555 1_555
C22_2 O17_2 1_555 1_555
O17_2 Fe1_2 1_555 1_555
O20_2 Fe1_2 1_555 1_555
O21_2 Fe1_2 1_555 1_555
Pd3_2 C22_2 1_555 1_555
C1_2 C2_2 1_555 1_555
C2_2 C3_2 1_555 1_555
C3_2 H1_2 1_555 1_555
C4_2 C3_2 1_555 1_555
C5_2 C4_2 1_555 1_555
O3_2 C5_2 1_555 1_555
O5_2 C1_2 1_555 1_555
O6_2 Fe2_2 1_555 1_555
C8_2 C4_2 1_555 1_555
C9_2 C2_2 1_555 1_555
H2_2 C9_2 1_555 1_555
C10_2 C8_2 1_555 1_555
C11_2 C10_2 1_555 1_555
O7_2 C11_2 1_555 1_555
O9_2 C1_2 1_555 1_555
C12_2 C13_2 1_555 1_555
C13_2 C14_2 1_555 1_555
C14_2 H3_2 1_555 1_555
C15_2 C14_2 1_555 1_555
C16_2 C15_2 1_555 1_555
C17_2 O10_2 1_555 1_555
Fe4_2 O10_2 1_555 1_555
O11_2 C16_2 1_555 1_555
O13_2 C12_2 1_555 1_555
C18_2 C15_2 1_555 1_555
C19_2 C13_2 1_555 1_555
H4_2 C19_2 1_555 1_555
C20_2 C18_2 1_555 1_555
C21_2 C20_2 1_555 1_555
O14_2 C21_2 1_555 1_555
O16_2 C12_2 1_555 1_555
Fe5_2 O14_2 1_555 1_555
Fe9_2 O16_2 1_555 1_555
Fe10_2 O6_2 1_555 1_555
Pd2_2 C17_2 1_555 1_555
O23_2 Fe4_2 1_555 1_555
O24_2 Fe2_2 1_555 1_555
O25_2 Fe4_2 1_555 1_555
Fe2_2 O5_2 1_555 1_555
C9_2 C10_2 1_555 1_555
O9_2 Fe10_2 1_555 1_555
Fe4_2 O13_2 1_555 1_555
C19_2 C20_2 1_555 1_555
Fe9_2 O25_2 1_555 1_555
Fe6_2 O8_2 1_555 1_555
Fe8_2 O15_2 1_555 1_555
O4_2 Fe7_2 1_555 1_555
O12_2 Fe6_2 1_555 1_555
C6_2 O1_2 1_555 1_555
C7_2 O2_2 1_555 1_555
O2_2 Fe3_2 1_555 1_555
Pd1_2 C6_2 1_555 1_555
C23_2 Pd1_2 1_555 1_555
C24_2 Pd1_2 1_555 1_555
O19_2 Fe3_2 1_555 1_555
O22_2 Fe3_2 1_555 1_555
C7_2 Pd1_2 1_555 1_555
C6_3 O1_3 1_555 1_555
Pd3_2 C6_3 1_555 1_555
C23_3 Pd3_2 1_555 1_555
C24_3 Pd3_2 1_555 1_555
C1_3 C2_3 1_555 1_555
C2_3 C3_3 1_555 1_555
C3_3 H1_3 1_555 1_555
C4_3 C3_3 1_555 1_555
C5_3 C4_3 1_555 1_555
Fe5_2 O3_3 1_555 1_555
O3_3 C5_3 1_555 1_555
O5_3 C1_3 1_555 1_555
O6_3 Fe2_3 1_555 1_555
C8_3 C4_3 1_555 1_555
C9_3 C2_3 1_555 1_555
H2_3 C9_3 1_555 1_555
C10_3 C8_3 1_555 1_555
C11_3 C10_3 1_555 1_555
O18_2 C11_3 1_555 1_555
O9_3 C1_3 1_555 1_555
C22_3 O17_3 1_555 1_555
O17_3 Fe5_2 1_555 1_555
Fe10_3 O6_3 1_555 1_555
O20_3 Fe5_2 1_555 1_555
O21_3 Fe5_2 1_555 1_555
Pd2_2 C22_3 1_555 1_555
O24_3 Fe2_3 1_555 1_555
Fe2_3 O5_3 1_555 1_555
C9_3 C10_3 1_555 1_555
O9_3 Fe10_3 1_555 1_555
Fe7_2 O8_3 1_555 1_555
O4_3 Fe8_2 1_555 1_555
C17_3 O10_3 1_555 1_555
Pd3 C17_3 1_555 1_555
C12_3 C13_3 1_555 1_555
C13_3 C14_3 1_555 1_555
C14_3 H3_3 1_555 1_555
C15_3 C14_3 1_555 1_555
C16_3 C15_3 1_555 1_555
O11_3 C16_3 1_555 1_555
O12_3 C16_3 1_555 1_555
O13_3 C12_3 1_555 1_555
C18_3 C15_3 1_555 1_555
C19_3 C13_3 1_555 1_555
H4_3 C19_3 1_555 1_555
C20_3 C18_3 1_555 1_555
C21_3 C20_3 1_555 1_555
O18 C21_3 1_555 1_555
O15_3 C21_3 1_555 1_555
O16_3 C12_3 1_555 1_555
Fe7 O15_3 1_555 1_555
Fe9_3 O16_3 1_555 1_555
O23_3 Fe4_3 1_555 1_555
O25_3 Fe4_3 1_555 1_555
Fe4_3 O13_3 1_555 1_555
O12_3 Fe8 1_555 1_555
C19_3 C20_3 1_555 1_555
Fe9_3 O25_3 1_555 1_555
C18_3 H6_3 1_555 1_555
C7_3 O2_3 1_555 1_555
O2_3 Fe5 1_555 1_555
C23_4 Pd2 1_555 1_555
C24_4 Pd2 1_555 1_555
O19_3 Fe5 1_555 1_555
O22_3 Fe5 1_555 1_555
C7_3 Pd2 1_555 1_555
C23_5 Pd3 1_555 1_555
C24_5 Pd3 1_555 1_555
C23_3 O10_4 1_555 1_555
C1_4 C2_4 1_555 1_555
C2_4 C3_4 1_555 1_555
C3_4 H1_4 1_555 1_555
C4_4 C3_4 1_555 1_555
C5_4 C4_4 1_555 1_555
Fe6 O3_4 1_555 1_555
O3_4 C5_4 1_555 1_555
O19 C5_4 1_555 1_555
O5_4 C1_4 1_555 1_555
C8_4 C4_4 1_555 1_555
C9_4 C2_4 1_555 1_555
H2_4 C9_4 1_555 1_555
C10_4 C8_4 1_555 1_555
C11_4 C10_4 1_555 1_555
O7_3 C11_4 1_555 1_555
O21 C11_4 1_555 1_555
O23_2 C1_4 1_555 1_555
C12_4 C13_4 1_555 1_555
C13_4 C14_4 1_555 1_555
C14_4 H3_4 1_555 1_555
C15_4 C14_4 1_555 1_555
C16_4 C15_4 1_555 1_555
O11_4 C16_4 1_555 1_555
O20 C16_4 1_555 1_555
O13_4 C12_4 1_555 1_555
C18_4 C15_4 1_555 1_555
C19_4 C13_4 1_555 1_555
H4_4 C19_4 1_555 1_555
C20_4 C18_4 1_555 1_555
C21_4 C20_4 1_555 1_555
O14_3 C21_4 1_555 1_555
O22_3 C21_4 1_555 1_555
O24_2 C12_4 1_555 1_555
C22_4 O17_4 1_555 1_555
O17_4 Fe6 1_555 1_555
O18_3 Fe6 1_555 1_555
Pd2_2 C22_4 1_555 1_555
Fe9_2 O5_4 1_555 1_555
C9_4 C10_4 1_555 1_555
Fe10_2 O13_4 1_555 1_555
C19_4 C20_4 1_555 1_555
C8_4 H5_4 1_555 1_555
C18_4 H6_4 1_555 1_555
C23_2 O1_4 1_555 1_555
C24_2 O2_4 1_555 1_555
O2_4 Fe7 1_555 1_555
C24_3 O2_5 1_555 1_555
O2_5 Fe8 1_555 1_555
C12_5 C13_5 1_555 1_555
C13_5 C14_5 1_555 1_555
C14_5 H3_5 1_555 1_555
C15_5 C14_5 1_555 1_555
C16_5 C15_5 1_555 1_555
C17_4 O10_5 1_555 1_555
Fe10_3 O10_5 1_555 1_555
O11_5 C16_5 1_555 1_555
O19_3 C16_5 1_555 1_555
O13_5 C12_5 1_555 1_555
C18_5 C15_5 1_555 1_555
C19_5 C13_5 1_555 1_555
H4_5 C19_5 1_555 1_555
C20_5 C18_5 1_555 1_555
C21_5 C20_5 1_555 1_555
O18_3 C21_5 1_555 1_555
O22 C21_5 1_555 1_555
O24_3 C12_5 1_555 1_555
Pd2_2 C17_4 1_555 1_555
Fe10_3 O13_5 1_555 1_555
C19_5 C20_5 1_555 1_555
C18_5 H6_5 1_555 1_555
C23_5 O10_6 1_555 1_555
C1_5 C2_5 1_555 1_555
C2_5 C3_5 1_555 1_555
C3_5 H1_5 1_555 1_555
C4_5 C3_5 1_555 1_555
C5_5 C4_5 1_555 1_555
C23 O1_5 1_555 1_555
C24 O2_6 1_555 1_555
Fe9 O1_5 1_555 1_555
O2_6 Fe8_2 1_555 1_555
O3_5 C5_5 1_555 1_555
O5_5 C1_5 1_555 1_555
C8_5 C4_5 1_555 1_555
C9_5 C2_5 1_555 1_555
H2_5 C9_5 1_555 1_555
C10_5 C8_5 1_555 1_555
C11_5 C10_5 1_555 1_555
O7_4 C11_5 1_555 1_555
O23 C1_5 1_555 1_555
C12_6 C13_6 1_555 1_555
C13_6 C14_6 1_555 1_555
C14_6 H3_6 1_555 1_555
C15_6 C14_6 1_555 1_555
C16_6 C15_6 1_555 1_555
Fe8_2 O7_4 1_555 1_555
O11_6 C16_6 1_555 1_555
O13_6 C12_6 1_555 1_555
C18_6 C15_6 1_555 1_555
C19_6 C13_6 1_555 1_555
H4_6 C19_6 1_555 1_555
C20_6 C18_6 1_555 1_555
C21_6 C20_6 1_555 1_555
O14_4 C21_6 1_555 1_555
O24 C12_6 1_555 1_555
Fe9 O5_5 1_555 1_555
C9_5 C10_5 1_555 1_555
Fe8_2 O11_6 1_555 1_555
Fe10 O13_6 1_555 1_555
C19_6 C20_6 1_555 1_555
C24_4 O17_5 1_555 1_555
O17_5 Fe7_2 1_555 1_555
C24_5 O2_7 1_555 1_555
O2_7 Fe6_2 1_555 1_555
C12_7 C13_7 1_555 1_555
C13_7 C14_7 1_555 1_555
C14_7 H3_7 1_555 1_555
C15_7 C14_7 1_555 1_555
C16_7 C15_7 1_555 1_555
O11_7 C16_7 1_555 1_555
O13_7 C12_7 1_555 1_555
C18_7 C15_7 1_555 1_555
C19_7 C13_7 1_555 1_555
H4_7 C19_7 1_555 1_555
C20_7 C18_7 1_555 1_555
C21_7 C20_7 1_555 1_555
O18_4 C21_7 1_555 1_555
O23_3 C12_7 1_555 1_555
Fe9_3 O13_7 1_555 1_555
C19_7 C20_7 1_555 1_555
C23_4 O10_7 1_555 1_555

#END
