
###############################################################################
#
# This file contains modified crystal structure data generated from the
# MOF subset of the Cambridge Structural Database (CSD) v543 
# hosted by the Cambridge Crystallographic Data Centre (CCDC).
#
# This work is licensed under the Creative Commons
# Attribution-NonCommercial-ShareAlike 4.0 International License.
# To view a copy of this license, visit
# http://creativecommons.org/licenses/by-nc-sa/4.0/
# or send a letter to
# Creative Commons, PO Box 1866, Mountain View, CA 94042, USA.
#
# CIF created using the CSD Python API on 29 September 2022
# The structure has been converted into the P1 space group
# The structure has a 3D framework
# The original CSD entry JORYUM is in the monoclinic crystal system
# The framework has been calculated to contain at least 10.0% void space
# The void calculation uses a probe of radius 1.32A, grid spacing 0.4
#
###############################################################################

data_JORYUM
_chemical_formula_moiety         '(C336 H472 Ag16 N112 O28)n'
_symmetry_cell_setting           triclinic
_symmetry_space_group_name_H-M   'P 1'
_symmetry_Int_Tables_number      1
_space_group_name_Hall           'P 1'
loop_
_symmetry_equiv_pos_site_id
_symmetry_equiv_pos_as_xyz
1 x,y,z
_cell_length_a                   30.817(6)
_cell_length_b                   10.354(2)
_cell_length_c                   34.565(7)
_cell_angle_alpha                90
_cell_angle_beta                 98.748(4)
_cell_angle_gamma                90
_cell_volume                     10900.7
loop_
_atom_site_label
_atom_site_type_symbol
_atom_site_fract_x
_atom_site_fract_y
_atom_site_fract_z
H111 H 0.5390 0.0159 0.0346
O7 O 0.57200(15) 0.0328(4) 0.10429(13)
Ag5 Ag 0.618436(16) 0.06466(4) 0.169546(14)
H51 H 0.4610 0.0159 0.4654
O3 O 0.42800(15) 0.0328(4) 0.39571(13)
Ag6 Ag 0.381564(16) 0.06466(4) 0.330454(14)
C34 C 0.00064(19) 0.2038(5) 0.80321(17)
C35 C 0.0388(2) 0.1205(6) 0.81778(18)
H40 H 0.0646 0.1747 0.8261
H41 H 0.0447 0.0624 0.7968
H42 H 0.0322 0.0695 0.8401
C43 C 0.0790(2) 0.4000(7) 0.7620(2)
H60 H 0.1018 0.3437 0.7757
H61 H 0.0607 0.4331 0.7806
H62 H 0.0927 0.4725 0.7502
C44 C 0.0512(2) 0.3252(6) 0.73063(19)
C45 C 0.0118(2) 0.2581(5) 0.73323(16)
N15 N 0.06224(16) 0.3136(5) 0.69495(15)
N16 N 0.02983(15) 0.2398(4) 0.67453(14)
H66 H 0.0289 0.2182 0.6498
Ag3 Ag 0.118436(16) 0.43534(4) 0.669546(14)
C48 C 0.2338(2) 0.3371(6) 0.6815(2)
H67 H 0.2422 0.3998 0.6627
H68 H 0.2599 0.2898 0.6937
H69 H 0.2208 0.3827 0.7018
C49 C 0.2010(2) 0.2441(5) 0.66073(17)
C50 C 0.20841(18) 0.1208(5) 0.64603(18)
C51 C 0.16751(19) 0.0757(5) 0.62927(17)
C55 C 0.24992(18) 0.0492(5) 0.64778(17)
C56 C 0.2869(2) 0.0867(5) 0.63267(18)
C57 C 0.2960(2) 0.2047(5) 0.61008(18)
H76 H 0.3096 0.2710 0.6282
H77 H 0.2685 0.2377 0.5956
H78 H 0.3161 0.1823 0.5916
C58 C 0.1768(2) 0.6053(6) 0.75422(19)
H79 H 0.1777 0.5162 0.7449
H80 H 0.1702 0.6054 0.7811
H81 H 0.2053 0.6466 0.7537
C59 C 0.14178(19) 0.6786(5) 0.72821(17)
C60 C 0.1229(2) 0.7973(5) 0.73477(17)
C61 C 0.0933(2) 0.8215(6) 0.70132(18)
C62 C 0.0635(2) 0.9331(6) 0.6899(2)
H82 H 0.0527 0.9291 0.6618
H84 H 0.0386 0.9296 0.7045
C64 C 0.1509(2) 0.9959(5) 0.77737(17)
C65 C 0.1297(2) 0.8757(6) 0.77099(17)
C66 C 0.11645(19) 0.8443(5) 0.80617(18)
C67 C 0.0905(2) 0.7322(6) 0.81815(19)
H88 H 0.1091 0.6549 0.8212
H89 H 0.0650 0.7166 0.7980
H90 H 0.0804 0.7520 0.8431
C71 C 0.2282(2) 0.9743(5) 0.96299(17)
C72 C 0.2088(2) 0.9129(6) 0.99514(18)
H96 H 0.1870 0.8487 0.9842
C73 C 0.3510(2) 0.8018(6) 0.94995(18)
H97 H 0.3677 0.8501 0.9328
H98 H 0.3223 0.7783 0.9354
H99 H 0.3671 0.7233 0.9591
C74 C 0.3449(2) 0.8837(6) 0.98424(18)
C75 C 0.31068(19) 0.9725(5) 0.98784(17)
N17 N 0.15871(16) 0.2737(4) 0.65381(14)
N18 N 0.13835(16) 0.1700(4) 0.63447(14)
H113 H 0.1099 0.1650 0.6264
N21 N 0.12515(15) 0.6314(4) 0.69330(14)
N22 N 0.09561(17) 0.7219(4) 0.67702(15)
H115 H 0.0801 0.7156 0.6535
N24 N 0.12955(15) 0.9412(4) 0.83125(13)
H116 H 0.1249 0.9432 0.8557
O9 O 0.07200(15) 0.4672(4) 0.60429(13)
C1 C 0.7338(2) 0.1629(6) 0.1815(2)
H1 H 0.7422 0.1002 0.1627
H2 H 0.7599 0.2102 0.1937
H3 H 0.7208 0.1173 0.2018
C2 C 0.7010(2) 0.2559(5) 0.16073(17)
C3 C 0.70841(18) 0.3792(5) 0.14603(18)
C4 C 0.66751(19) 0.4243(5) 0.12927(17)
C5 C 0.6533(2) 0.5461(6) 0.1069(2)
H4 H 0.6390 0.6041 0.1235
H5 H 0.6790 0.5892 0.0993
H6 H 0.6326 0.5242 0.0834
C6 C 0.7333(2) 0.6573(6) 0.18762(19)
H7 H 0.7439 0.7466 0.1876
H8 H 0.7025 0.6540 0.1754
H9 H 0.7359 0.6261 0.2146
C7 C 0.76037(19) 0.5737(6) 0.16508(18)
C8 C 0.74992(18) 0.4508(5) 0.14778(17)
C9 C 0.7869(2) 0.4133(5) 0.13267(18)
C10 C 0.7960(2) 0.2953(5) 0.11008(18)
H10 H 0.8096 0.2290 0.1282
H11 H 0.7685 0.2623 0.0956
H12 H 0.8161 0.3177 0.0916
C31 C 0.5790(2) 0.1000(7) 0.2620(2)
H37 H 0.6018 0.1563 0.2757
H38 H 0.5607 0.0669 0.2806
H39 H 0.5927 0.0275 0.2502
C32 C 0.5512(2) 0.1748(6) 0.23063(19)
C33 C 0.5118(2) 0.2419(5) 0.23323(16)
C34_2 C 0.49936(19) 0.2962(5) 0.19679(17)
C35_2 C 0.4612(2) 0.3795(6) 0.18222(18)
H40_2 H 0.4354 0.3253 0.1739
H41_2 H 0.4553 0.4376 0.2032
H42_2 H 0.4678 0.4305 0.1599
N1 N 0.65871(16) 0.2263(4) 0.15381(14)
N2 N 0.63835(16) 0.3300(4) 0.13447(14)
H53 H 0.6099 0.3350 0.1264
N3 N 0.80070(16) 0.6092(5) 0.15968(15)
N4 N 0.81651(16) 0.5101(4) 0.14029(14)
H54 H 0.8429 0.5088 0.1335
N13 N 0.56224(16) 0.1864(5) 0.19495(15)
N14 N 0.52983(15) 0.2602(4) 0.17453(14)
H59 H 0.5289 0.2818 0.1498
C43_2 C 0.4210(2) 0.1000(7) 0.2380(2)
H60_2 H 0.3982 0.1563 0.2243
H61_2 H 0.4393 0.0669 0.2194
H62_2 H 0.4073 0.0275 0.2498
C44_2 C 0.4488(2) 0.1748(6) 0.26937(19)
C45_2 C 0.4882(2) 0.2419(5) 0.26677(16)
C46 C 0.50064(19) 0.2962(5) 0.30321(17)
C47 C 0.5388(2) 0.3795(6) 0.31778(18)
H63 H 0.5646 0.3253 0.3261
H64 H 0.5447 0.4376 0.2968
H65 H 0.5322 0.4305 0.3401
N15_2 N 0.43776(16) 0.1864(5) 0.30505(15)
N16_2 N 0.47017(15) 0.2602(4) 0.32547(14)
H66_2 H 0.4711 0.2818 0.3502
C48_2 C 0.2662(2) 0.1629(6) 0.3185(2)
H67_2 H 0.2578 0.1002 0.3373
H68_2 H 0.2401 0.2102 0.3063
H69_2 H 0.2792 0.1173 0.2982
C49_2 C 0.2990(2) 0.2559(5) 0.33927(17)
C50_2 C 0.29159(18) 0.3792(5) 0.35397(18)
C51_2 C 0.33249(19) 0.4243(5) 0.37073(17)
C52 C 0.3467(2) 0.5461(6) 0.3931(2)
H70 H 0.3610 0.6041 0.3765
H71 H 0.3210 0.5892 0.4007
H72 H 0.3674 0.5242 0.4166
C53 C 0.2667(2) 0.6573(6) 0.31238(19)
H73 H 0.2561 0.7466 0.3124
H74 H 0.2975 0.6540 0.3246
H75 H 0.2641 0.6261 0.2854
C54 C 0.23963(19) 0.5737(6) 0.33492(18)
C55_2 C 0.25008(18) 0.4508(5) 0.35222(17)
C56_2 C 0.2131(2) 0.4133(5) 0.36733(18)
C57_2 C 0.2040(2) 0.2953(5) 0.38992(18)
H76_2 H 0.1904 0.2290 0.3718
H77_2 H 0.2315 0.2623 0.4044
H78_2 H 0.1839 0.3177 0.4084
N17_2 N 0.34129(16) 0.2263(4) 0.34619(14)
N18_2 N 0.36165(16) 0.3300(4) 0.36553(14)
H113_2 H 0.3901 0.3350 0.3736
N19 N 0.19930(16) 0.6092(5) 0.34032(15)
N20 N 0.18349(16) 0.5101(4) 0.35971(14)
H114 H 0.1571 0.5088 0.3665
Ag7 Ag 0.185873(16) 0.81429(4) 0.353502(14)
Ag8 Ag 0.814127(16) 0.81429(4) 0.146498(14)
H17 H 0.0797 0.9861 0.1960
C16 C 0.1714(2) 0.9201(6) 0.24964(19)
H19 H 0.1544 0.8403 0.2447
H20 H 0.1717 0.9662 0.2249
H21 H 0.2016 0.8990 0.2613
C21 C 0.3058(2) 0.8957(6) 0.40122(19)
H25 H 0.3194 0.9701 0.3902
H26 H 0.3278 0.8515 0.4201
H27 H 0.2944 0.8359 0.3801
C22 C 0.2690(2) 0.9410(5) 0.42141(18)
C23 C 0.27157(19) 0.9999(5) 0.45792(17)
C29 C 0.32075(19) 0.9734(6) 0.52431(18)
C30 C 0.2973(2) 0.8739(6) 0.54459(18)
H34 H 0.2761 0.9163 0.5588
H35 H 0.2819 0.8142 0.5252
H36 H 0.3186 0.8258 0.5631
C36 C 0.1012(2) 0.8803(6) 0.40607(17)
C37 C 0.06393(19) 0.8353(6) 0.42685(17)
H43 H 0.0436 0.9079 0.4293
H44 H 0.0472 0.7657 0.4116
C38 C 0.0831(2) 0.7854(6) 0.46745(17)
H45 H 0.1098 0.7346 0.4654
H46 H 0.0919 0.8601 0.4847
C39 C 0.05136(19) 0.7012(6) 0.48637(17)
H47 H 0.0439 0.6235 0.4700
H48 H 0.0239 0.7500 0.4871
C40 C 0.0699(2) 0.6594(6) 0.52721(18)
H49 H 0.0978 0.6128 0.5265
H50 H 0.0766 0.7371 0.5438
C41 C 0.0388(2) 0.5719(6) 0.54588(17)
H51_2 H 0.0390 0.4841 0.5346
H52 H 0.0085 0.6060 0.5399
C42 C 0.0522(2) 0.5648(7) 0.58949(18)
N7 N 0.15082(16) 0.9642(4) 0.31411(14)
N9 N 0.22735(16) 0.9306(4) 0.40381(15)
N10 N 0.20363(16) 0.9831(4) 0.42987(15)
H57 H 0.1748 0.9888 0.4255
O1 O 0.12071(12) 0.7960(4) 0.38888(12)
O2 O 0.11147(13) 0.9994(4) 0.40803(12)
O4 O 0.04230(15) 0.6596(4) 0.60986(13)
H83 H 0.9203 0.9861 0.3040
C63 C 0.8286(2) 0.9201(6) 0.25036(19)
H85 H 0.8456 0.8403 0.2553
H86 H 0.8283 0.9662 0.2751
H87 H 0.7984 0.8990 0.2387
C68 C 0.6942(2) 0.8957(6) 0.09878(19)
H91 H 0.6806 0.9701 0.1098
H92 H 0.6722 0.8515 0.0799
H93 H 0.7056 0.8359 0.1199
C69 C 0.7310(2) 0.9410(5) 0.07859(18)
C70 C 0.72843(19) 0.9999(5) 0.04208(17)
C78 C 0.8988(2) 0.8803(6) 0.09393(17)
C79 C 0.93607(19) 0.8353(6) 0.07315(17)
H103 H 0.9564 0.9079 0.0707
H104 H 0.9528 0.7657 0.0884
C80 C 0.9169(2) 0.7854(6) 0.03255(17)
H105 H 0.8902 0.7346 0.0346
H106 H 0.9081 0.8601 0.0153
C81 C 0.94864(19) 0.7012(6) 0.01363(17)
H107 H 0.9561 0.6235 0.0300
H108 H 0.9761 0.7500 0.0129
N23 N 0.84918(16) 0.9642(4) 0.18589(14)
N25 N 0.77265(16) 0.9306(4) 0.09619(15)
N26 N 0.79637(16) 0.9831(4) 0.07013(15)
H117 H 0.8252 0.9888 0.0745
O5 O 0.87929(12) 0.7960(4) 0.11112(12)
O6 O 0.88853(13) 0.9994(4) 0.09197(12)
H94 H 0.6946 0.4790 0.0092
H95 H 0.7320 0.3704 0.0132
C76 C 0.82075(19) 0.5266(6) 0.02431(18)
C77 C 0.7973(2) 0.6261(6) 0.04459(18)
H100 H 0.7761 0.5837 0.0588
H101 H 0.7819 0.6858 0.0252
H102 H 0.8186 0.6742 0.0631
C82 C 0.5699(2) 0.8406(6) 0.02721(18)
H109 H 0.5978 0.8872 0.0265
H110 H 0.5766 0.7629 0.0438
C83 C 0.5388(2) 0.9281(6) 0.04588(17)
H112 H 0.5085 0.8940 0.0399
C84 C 0.5522(2) 0.9352(7) 0.08949(18)
N27 N 0.87409(16) 0.3826(4) 0.01687(14)
N28 N 0.85890(16) 0.4687(5) 0.04110(15)
H118 H 0.8721 0.4854 0.0650
O8 O 0.54230(15) 0.8404(4) 0.10986(13)
Ag2 Ag 0.314127(16) 0.68571(4) 0.646498(14)
C11 C 0.3232(2) 0.1053(6) 0.74578(19)
H13 H 0.3223 0.0162 0.7551
H14 H 0.3298 0.1054 0.7189
H15 H 0.2947 0.1466 0.7463
C12 C 0.35822(19) 0.1786(5) 0.77179(17)
C13 C 0.3771(2) 0.2973(5) 0.76523(17)
C14 C 0.4067(2) 0.3215(6) 0.79868(18)
C15 C 0.4365(2) 0.4331(6) 0.8101(2)
H16 H 0.4473 0.4291 0.8382
H17_2 H 0.4203 0.5139 0.8040
H18 H 0.4614 0.4296 0.7955
C16_2 C 0.3286(2) 0.5799(6) 0.75036(19)
H19_2 H 0.3456 0.6597 0.7553
H20_2 H 0.3283 0.5338 0.7751
H21_2 H 0.2984 0.6010 0.7387
C17 C 0.3491(2) 0.4959(5) 0.72263(17)
C18 C 0.3703(2) 0.3757(6) 0.72901(17)
C19 C 0.38355(19) 0.3443(5) 0.69383(18)
C20 C 0.4095(2) 0.2322(6) 0.68185(19)
H22 H 0.3909 0.1549 0.6788
H23 H 0.4350 0.2166 0.7020
H24 H 0.4196 0.2520 0.6569
C21_2 C 0.1942(2) 0.6043(6) 0.59878(19)
H25_2 H 0.1806 0.5299 0.6098
H26_2 H 0.1722 0.6485 0.5799
H27_2 H 0.2056 0.6641 0.6199
C22_2 C 0.2310(2) 0.5590(5) 0.57859(18)
C23_2 C 0.22843(19) 0.5001(5) 0.54208(17)
C24 C 0.2718(2) 0.4743(5) 0.53701(17)
C25 C 0.2912(2) 0.4129(6) 0.50486(18)
H28 H 0.3054 0.4790 0.4908
H29 H 0.2680 0.3704 0.4868
H30 H 0.3130 0.3487 0.5158
C26 C 0.1490(2) 0.3018(6) 0.55005(18)
H31 H 0.1323 0.3501 0.5672
H32 H 0.1777 0.2783 0.5646
H33 H 0.1329 0.2233 0.5409
C27 C 0.1551(2) 0.3837(6) 0.51576(18)
C28 C 0.18932(19) 0.4725(5) 0.51216(17)
C29_2 C 0.17925(19) 0.5266(6) 0.47569(18)
C30_2 C 0.2027(2) 0.6261(6) 0.45541(18)
H34_2 H 0.2239 0.5837 0.4412
H35_2 H 0.2181 0.6858 0.4748
H36_2 H 0.1814 0.6742 0.4369
C36_2 C 0.3988(2) 0.6197(6) 0.59393(17)
C37_2 C 0.43607(19) 0.6647(6) 0.57315(17)
H43_2 H 0.4564 0.5921 0.5707
H44_2 H 0.4528 0.7343 0.5884
C38_2 C 0.4169(2) 0.7146(6) 0.53255(17)
H45_2 H 0.3902 0.7654 0.5346
H46_2 H 0.4081 0.6399 0.5153
C39_2 C 0.44864(19) 0.7988(6) 0.51363(17)
H47_2 H 0.4561 0.8765 0.5300
H48_2 H 0.4761 0.7500 0.5129
C40_2 C 0.4301(2) 0.8406(6) 0.47279(18)
H49_2 H 0.4022 0.8872 0.4735
H50_2 H 0.4234 0.7629 0.4562
C41_2 C 0.4612(2) 0.9281(6) 0.45412(17)
H52_2 H 0.4915 0.8940 0.4601
C42_2 C 0.4478(2) 0.9352(7) 0.41051(18)
N5 N 0.37485(15) 0.1314(4) 0.80670(14)
N6 N 0.40439(17) 0.2219(4) 0.82298(15)
H55 H 0.4199 0.2156 0.8465
N7_2 N 0.34918(16) 0.5358(4) 0.68589(14)
N8 N 0.37045(15) 0.4412(4) 0.66875(13)
H56 H 0.3751 0.4432 0.6443
N9_2 N 0.27265(16) 0.5694(4) 0.59619(15)
N10_2 N 0.29637(16) 0.5169(4) 0.57013(15)
H57_2 H 0.3252 0.5112 0.5745
N11 N 0.12591(16) 0.3826(4) 0.48313(14)
N12 N 0.14110(16) 0.4687(5) 0.45890(15)
H58 H 0.1279 0.4854 0.4350
O1_2 O 0.37929(12) 0.7040(4) 0.61112(12)
O2_2 O 0.38853(13) 0.5006(4) 0.59197(12)
O4_2 O 0.45770(15) 0.8404(4) 0.39014(13)
Ag4 Ag 0.685873(16) 0.68571(4) 0.853502(14)
C58_2 C 0.6768(2) 0.1053(6) 0.75422(19)
H79_2 H 0.6777 0.0162 0.7449
H80_2 H 0.6702 0.1054 0.7811
H81_2 H 0.7053 0.1466 0.7537
C59_2 C 0.64178(19) 0.1786(5) 0.72821(17)
C60_2 C 0.6229(2) 0.2973(5) 0.73477(17)
C61_2 C 0.5933(2) 0.3215(6) 0.70132(18)
C62_2 C 0.5635(2) 0.4331(6) 0.6899(2)
H82_2 H 0.5527 0.4291 0.6618
H83_2 H 0.5797 0.5139 0.6960
H84_2 H 0.5386 0.4296 0.7045
C63_2 C 0.6714(2) 0.5799(6) 0.74964(19)
H85_2 H 0.6544 0.6597 0.7447
H86_2 H 0.6717 0.5338 0.7249
H87_2 H 0.7016 0.6010 0.7613
C64_2 C 0.6509(2) 0.4959(5) 0.77737(17)
C65_2 C 0.6297(2) 0.3757(6) 0.77099(17)
C66_2 C 0.61645(19) 0.3443(5) 0.80617(18)
C67_2 C 0.5905(2) 0.2322(6) 0.81815(19)
H88_2 H 0.6091 0.1549 0.8212
H89_2 H 0.5650 0.2166 0.7980
H90_2 H 0.5804 0.2520 0.8431
C68_2 C 0.8058(2) 0.6043(6) 0.90122(19)
H91_2 H 0.8194 0.5299 0.8902
H92_2 H 0.8278 0.6485 0.9201
H93_2 H 0.7944 0.6641 0.8801
C69_2 C 0.7690(2) 0.5590(5) 0.92141(18)
C70_2 C 0.77157(19) 0.5001(5) 0.95792(17)
C71_2 C 0.7282(2) 0.4743(5) 0.96299(17)
C72_2 C 0.7088(2) 0.4129(6) 0.99514(18)
H96_2 H 0.6870 0.3487 0.9842
C73_2 C 0.8510(2) 0.3018(6) 0.94995(18)
H97_2 H 0.8677 0.3501 0.9328
H98_2 H 0.8223 0.2783 0.9354
H99_2 H 0.8671 0.2233 0.9591
C74_2 C 0.8449(2) 0.3837(6) 0.98424(18)
C75_2 C 0.81068(19) 0.4725(5) 0.98784(17)
C78_2 C 0.6012(2) 0.6197(6) 0.90607(17)
C79_2 C 0.56393(19) 0.6647(6) 0.92685(17)
H103_2 H 0.5436 0.5921 0.9293
H104_2 H 0.5472 0.7343 0.9116
C80_2 C 0.5831(2) 0.7146(6) 0.96745(17)
H105_2 H 0.6098 0.7654 0.9654
H106_2 H 0.5919 0.6399 0.9847
C81_2 C 0.55136(19) 0.7988(6) 0.98637(17)
H107_2 H 0.5439 0.8765 0.9700
H108_2 H 0.5239 0.7500 0.9871
N21_2 N 0.62515(15) 0.1314(4) 0.69330(14)
N22_2 N 0.59561(17) 0.2219(4) 0.67702(15)
H115_2 H 0.5801 0.2156 0.6535
N23_2 N 0.65082(16) 0.5358(4) 0.81411(14)
N24_2 N 0.62955(15) 0.4412(4) 0.83125(13)
H116_2 H 0.6249 0.4432 0.8557
N25_2 N 0.72735(16) 0.5694(4) 0.90381(15)
N26_2 N 0.70363(16) 0.5169(4) 0.92987(15)
H117_2 H 0.6748 0.5112 0.9255
O5_2 O 0.62071(12) 0.7040(4) 0.88888(12)
O6_2 O 0.61147(13) 0.5006(4) 0.90803(12)
N29 N 0.69930(16) 0.8908(5) 0.84032(15)
N30 N 0.30070(16) 0.8908(5) 0.65968(15)
C52_2 C 0.1533(2) 0.9539(6) 0.6069(2)
H70_2 H 0.1390 0.8959 0.6235
H71_2 H 0.1790 0.9108 0.5993
H72_2 H 0.1326 0.9758 0.5834
C53_2 C 0.2333(2) 0.8427(6) 0.68762(19)
H73_2 H 0.2439 0.7534 0.6876
H74_2 H 0.2025 0.8460 0.6754
H75_2 H 0.2359 0.8739 0.7146
C54_2 C 0.26037(19) 0.9263(6) 0.66508(18)
N20_2 N 0.31651(16) 0.9899(4) 0.64029(14)
H114_2 H 0.3429 0.9912 0.6335
C5_2 C 0.8467(2) 0.9539(6) 0.8931(2)
H4_2 H 0.8610 0.8959 0.8765
H5_2 H 0.8210 0.9108 0.9007
H6_2 H 0.8674 0.9758 0.9166
C6_2 C 0.7667(2) 0.8427(6) 0.81238(19)
H7_2 H 0.7561 0.7534 0.8124
H8_2 H 0.7975 0.8460 0.8246
H9_2 H 0.7641 0.8739 0.7854
C7_2 C 0.73963(19) 0.9263(6) 0.83492(18)
N4_2 N 0.68349(16) 0.9899(4) 0.85971(14)
H54_2 H 0.6571 0.9912 0.8665
Ag1 Ag 0.381564(16) 0.93534(4) 0.830454(14)
C1_2 C 0.2662(2) 0.8371(6) 0.8185(2)
H1_2 H 0.2578 0.8998 0.8373
H2_2 H 0.2401 0.7898 0.8063
H3_2 H 0.2792 0.8827 0.7982
C2_2 C 0.2990(2) 0.7441(5) 0.83927(17)
C3_2 C 0.29159(18) 0.6208(5) 0.85397(18)
C4_2 C 0.33249(19) 0.5757(5) 0.87073(17)
C5_3 C 0.3467(2) 0.4539(6) 0.8931(2)
H4_3 H 0.3610 0.3959 0.8765
H5_3 H 0.3210 0.4108 0.9007
H6_3 H 0.3674 0.4758 0.9166
C6_3 C 0.2667(2) 0.3427(6) 0.81238(19)
H7_3 H 0.2561 0.2534 0.8124
H8_3 H 0.2975 0.3460 0.8246
H9_3 H 0.2641 0.3739 0.7854
C7_3 C 0.23963(19) 0.4263(6) 0.83492(18)
C8_2 C 0.25008(18) 0.5492(5) 0.85222(17)
C9_2 C 0.2131(2) 0.5867(5) 0.86733(18)
C10_2 C 0.2040(2) 0.7047(5) 0.88992(18)
H10_2 H 0.1904 0.7710 0.8718
H11_2 H 0.2315 0.7377 0.9044
H12_2 H 0.1839 0.6823 0.9084
C31_2 C 0.4210(2) 0.9000(7) 0.7380(2)
H37_2 H 0.3982 0.8437 0.7243
H38_2 H 0.4393 0.9331 0.7194
H39_2 H 0.4073 0.9725 0.7498
C32_2 C 0.4488(2) 0.8252(6) 0.76937(19)
C33_2 C 0.4882(2) 0.7581(5) 0.76677(16)
C34_3 C 0.50064(19) 0.7038(5) 0.80321(17)
C35_3 C 0.5388(2) 0.6205(6) 0.81778(18)
H40_3 H 0.5646 0.6747 0.8261
H41_3 H 0.5447 0.5624 0.7968
H42_3 H 0.5322 0.5695 0.8401
N1_2 N 0.34129(16) 0.7737(4) 0.84619(14)
N2_2 N 0.36165(16) 0.6700(4) 0.86553(14)
H53_2 H 0.3901 0.6650 0.8736
N3_2 N 0.19930(16) 0.3908(5) 0.84032(15)
N4_3 N 0.18349(16) 0.4899(4) 0.85971(14)
H54_3 H 0.1571 0.4912 0.8665
N13_2 N 0.43776(16) 0.8136(5) 0.80505(15)
N14_2 N 0.47017(15) 0.7398(4) 0.82547(14)
H59_2 H 0.4711 0.7182 0.8502
C43_3 C 0.5790(2) 0.9000(7) 0.7620(2)
H60_3 H 0.6018 0.8437 0.7757
H61_3 H 0.5607 0.9331 0.7806
H62_3 H 0.5927 0.9725 0.7502
C44_3 C 0.5512(2) 0.8252(6) 0.73063(19)
C45_3 C 0.5118(2) 0.7581(5) 0.73323(16)
C46_2 C 0.49936(19) 0.7038(5) 0.69679(17)
C47_2 C 0.4612(2) 0.6205(6) 0.68222(18)
H63_2 H 0.4354 0.6747 0.6739
H64_2 H 0.4553 0.5624 0.7032
H65_2 H 0.4678 0.5695 0.6599
N15_3 N 0.56224(16) 0.8136(5) 0.69495(15)
N16_3 N 0.52983(15) 0.7398(4) 0.67453(14)
H66_3 H 0.5289 0.7182 0.6498
Ag3_2 Ag 0.618436(16) 0.93534(4) 0.669546(14)
C48_3 C 0.7338(2) 0.8371(6) 0.6815(2)
H67_3 H 0.7422 0.8998 0.6627
H68_3 H 0.7599 0.7898 0.6937
H69_3 H 0.7208 0.8827 0.7018
C49_3 C 0.7010(2) 0.7441(5) 0.66073(17)
C50_3 C 0.70841(18) 0.6208(5) 0.64603(18)
C51_3 C 0.66751(19) 0.5757(5) 0.62927(17)
C52_3 C 0.6533(2) 0.4539(6) 0.6069(2)
H70_3 H 0.6390 0.3959 0.6235
H71_3 H 0.6790 0.4108 0.5993
H72_3 H 0.6326 0.4758 0.5834
C53_3 C 0.7333(2) 0.3427(6) 0.68762(19)
H73_3 H 0.7439 0.2534 0.6876
H74_3 H 0.7025 0.3460 0.6754
H75_3 H 0.7359 0.3739 0.7146
C54_3 C 0.76037(19) 0.4263(6) 0.66508(18)
C55_3 C 0.74992(18) 0.5492(5) 0.64778(17)
C56_3 C 0.7869(2) 0.5867(5) 0.63267(18)
C57_3 C 0.7960(2) 0.7047(5) 0.61008(18)
H76_3 H 0.8096 0.7710 0.6282
H77_3 H 0.7685 0.7377 0.5956
H78_3 H 0.8161 0.6823 0.5916
N17_3 N 0.65871(16) 0.7737(4) 0.65381(14)
N18_3 N 0.63835(16) 0.6700(4) 0.63447(14)
H113_3 H 0.6099 0.6650 0.6264
N19_2 N 0.80070(16) 0.3908(5) 0.65968(15)
N20_3 N 0.81651(16) 0.4899(4) 0.64029(14)
H114_3 H 0.8429 0.4912 0.6335
Ag7_2 Ag 0.814127(16) 0.18571(4) 0.646498(14)
Ag8_2 Ag 0.185873(16) 0.18571(4) 0.853502(14)
O9_2 O 0.57200(15) 0.9672(4) 0.60429(13)
O10 O 0.42800(15) 0.9672(4) 0.89571(13)
H83_3 H 0.0797 0.0139 0.6960
C63_3 C 0.1714(2) 0.0799(6) 0.74964(19)
H85_3 H 0.1544 0.1597 0.7447
H86_3 H 0.1717 0.0338 0.7249
H87_3 H 0.2016 0.1010 0.7613
C68_3 C 0.3058(2) 0.1043(6) 0.90122(19)
H91_3 H 0.3194 0.0299 0.8902
H92_3 H 0.3278 0.1485 0.9201
H93_3 H 0.2944 0.1641 0.8801
C69_3 C 0.2690(2) 0.0590(5) 0.92141(18)
C70_3 C 0.27157(19) 0.0001(5) 0.95792(17)
C78_3 C 0.1012(2) 0.1197(6) 0.90607(17)
C79_3 C 0.06393(19) 0.1647(6) 0.92685(17)
H103_3 H 0.0436 0.0921 0.9293
H104_3 H 0.0472 0.2343 0.9116
C80_3 C 0.0831(2) 0.2146(6) 0.96745(17)
H105_3 H 0.1098 0.2654 0.9654
H106_3 H 0.0919 0.1399 0.9847
C81_3 C 0.05136(19) 0.2988(6) 0.98637(17)
H107_3 H 0.0439 0.3765 0.9700
H108_3 H 0.0239 0.2500 0.9871
N23_3 N 0.15082(16) 0.0358(4) 0.81411(14)
N25_3 N 0.22735(16) 0.0694(4) 0.90381(15)
N26_3 N 0.20363(16) 0.0169(4) 0.92987(15)
H117_3 H 0.1748 0.0112 0.9255
O5_3 O 0.12071(12) 0.2040(4) 0.88888(12)
O6_3 O 0.11147(13) 0.0006(4) 0.90803(12)
H17_3 H 0.9203 0.0139 0.8040
C16_3 C 0.8286(2) 0.0799(6) 0.75036(19)
H19_3 H 0.8456 0.1597 0.7553
H20_3 H 0.8283 0.0338 0.7751
H21_3 H 0.7984 0.1010 0.7387
C21_3 C 0.6942(2) 0.1043(6) 0.59878(19)
H25_3 H 0.6806 0.0299 0.6098
H26_3 H 0.6722 0.1485 0.5799
H27_3 H 0.7056 0.1641 0.6199
C22_3 C 0.7310(2) 0.0590(5) 0.57859(18)
C23_3 C 0.72843(19) 0.0001(5) 0.54208(17)
C29_3 C 0.67925(19) 0.0266(6) 0.47569(18)
C30_3 C 0.7027(2) 0.1261(6) 0.45541(18)
H34_3 H 0.7239 0.0837 0.4412
H35_3 H 0.7181 0.1858 0.4748
H36_3 H 0.6814 0.1742 0.4369
C36_3 C 0.8988(2) 0.1197(6) 0.59393(17)
C37_3 C 0.93607(19) 0.1647(6) 0.57315(17)
H43_3 H 0.9564 0.0921 0.5707
H44_3 H 0.9528 0.2343 0.5884
C38_3 C 0.9169(2) 0.2146(6) 0.53255(17)
H45_3 H 0.8902 0.2654 0.5346
H46_3 H 0.9081 0.1399 0.5153
C39_3 C 0.94864(19) 0.2988(6) 0.51363(17)
H47_3 H 0.9561 0.3765 0.5300
H48_3 H 0.9761 0.2500 0.5129
C40_3 C 0.9301(2) 0.3406(6) 0.47279(18)
H49_3 H 0.9022 0.3872 0.4735
H50_3 H 0.9234 0.2629 0.4562
C41_3 C 0.9612(2) 0.4281(6) 0.45412(17)
H51_3 H 0.9610 0.5159 0.4654
H52_3 H 0.9915 0.3940 0.4601
C42_3 C 0.9478(2) 0.4352(7) 0.41051(18)
N7_3 N 0.84918(16) 0.0358(4) 0.68589(14)
N9_3 N 0.77265(16) 0.0694(4) 0.59619(15)
N10_3 N 0.79637(16) 0.0169(4) 0.57013(15)
H57_3 H 0.8252 0.0112 0.5745
O1_3 O 0.87929(12) 0.2040(4) 0.61112(12)
O2_3 O 0.88853(13) 0.0006(4) 0.59197(12)
O3_2 O 0.92800(15) 0.5328(4) 0.39571(13)
O4_3 O 0.95770(15) 0.3404(4) 0.39014(13)
Ag6_2 Ag 0.881564(16) 0.56466(4) 0.330454(14)
H51_4 H 0.5390 0.9841 0.5346
H111_2 H 0.4610 0.9841 0.9654
C34_4 C 0.99936(19) 0.7962(5) 0.19679(17)
C35_4 C 0.9612(2) 0.8795(6) 0.18222(18)
H40_4 H 0.9354 0.8253 0.1739
H41_4 H 0.9553 0.9376 0.2032
H42_4 H 0.9678 0.9305 0.1599
C43_4 C 0.9210(2) 0.6000(7) 0.2380(2)
H60_4 H 0.8982 0.6563 0.2243
H61_4 H 0.9393 0.5669 0.2194
H62_4 H 0.9073 0.5275 0.2498
C44_4 C 0.9488(2) 0.6748(6) 0.26937(19)
C45_4 C 0.9882(2) 0.7419(5) 0.26677(16)
N15_4 N 0.93776(16) 0.6864(5) 0.30505(15)
N16_4 N 0.97017(15) 0.7602(4) 0.32547(14)
H66_4 H 0.9711 0.7818 0.3502
C48_4 C 0.7662(2) 0.6629(6) 0.3185(2)
H67_4 H 0.7578 0.6002 0.3373
H68_4 H 0.7401 0.7102 0.3063
H69_4 H 0.7792 0.6173 0.2982
C49_4 C 0.7990(2) 0.7559(5) 0.33927(17)
C50_4 C 0.79159(18) 0.8792(5) 0.35397(18)
C51_4 C 0.83249(19) 0.9243(5) 0.37073(17)
C55_4 C 0.75008(18) 0.9508(5) 0.35222(17)
C56_4 C 0.7131(2) 0.9133(5) 0.36733(18)
C57_4 C 0.7040(2) 0.7953(5) 0.38992(18)
H76_4 H 0.6904 0.7290 0.3718
H77_4 H 0.7315 0.7623 0.4044
H78_4 H 0.6839 0.8177 0.4084
C58_3 C 0.8232(2) 0.3947(6) 0.24578(19)
H79_3 H 0.8223 0.4838 0.2551
H80_3 H 0.8298 0.3946 0.2189
H81_3 H 0.7947 0.3534 0.2463
C59_3 C 0.85822(19) 0.3214(5) 0.27179(17)
C60_3 C 0.8771(2) 0.2027(5) 0.26523(17)
C61_3 C 0.9067(2) 0.1785(6) 0.29868(18)
C62_3 C 0.9365(2) 0.0669(6) 0.3101(2)
H82_3 H 0.9473 0.0709 0.3382
H84_3 H 0.9614 0.0704 0.2955
C64_3 C 0.8491(2) 0.0041(5) 0.22263(17)
C65_3 C 0.8703(2) 0.1243(6) 0.22901(17)
C66_3 C 0.88355(19) 0.1557(5) 0.19383(18)
C67_3 C 0.9095(2) 0.2678(6) 0.18185(19)
H88_3 H 0.8909 0.3451 0.1788
H89_3 H 0.9350 0.2834 0.2020
H90_3 H 0.9196 0.2480 0.1569
C71_3 C 0.7718(2) 0.0257(5) 0.03701(17)
C72_3 C 0.7912(2) 0.0871(6) 0.00486(18)
H96_3 H 0.8130 0.1513 0.0158
C73_3 C 0.6490(2) 0.1982(6) 0.05005(18)
H97_3 H 0.6323 0.1499 0.0672
H98_3 H 0.6777 0.2217 0.0646
H99_3 H 0.6329 0.2767 0.0409
C74_3 C 0.6551(2) 0.1163(6) 0.01576(18)
C75_3 C 0.68932(19) 0.0275(5) 0.01216(17)
N17_4 N 0.84129(16) 0.7263(4) 0.34619(14)
N18_4 N 0.86165(16) 0.8300(4) 0.36553(14)
H113_4 H 0.8901 0.8350 0.3736
N21_3 N 0.87485(15) 0.3686(4) 0.30670(14)
N22_3 N 0.90439(17) 0.2781(4) 0.32298(15)
H115_3 H 0.9199 0.2844 0.3465
N24_3 N 0.87045(15) 0.0588(4) 0.16875(13)
H116_3 H 0.8751 0.0568 0.1443
C76_2 C 0.32075(19) 0.0266(6) 0.02431(18)
C77_2 C 0.2973(2) 0.1261(6) 0.04459(18)
H100_2 H 0.2761 0.0837 0.0588
H101_2 H 0.2819 0.1858 0.0252
H102_2 H 0.3186 0.1742 0.0631
C82_2 C 0.0699(2) 0.3406(6) 0.02721(18)
H109_2 H 0.0978 0.3872 0.0265
H110_2 H 0.0766 0.2629 0.0438
C83_2 C 0.0388(2) 0.4281(6) 0.04588(17)
H111_3 H 0.0390 0.5159 0.0346
H112_2 H 0.0085 0.3940 0.0399
C84_2 C 0.0522(2) 0.4352(7) 0.08949(18)
O7_2 O 0.07200(15) 0.5328(4) 0.10429(13)
O8_2 O 0.04230(15) 0.3404(4) 0.10986(13)
Ag5_2 Ag 0.118436(16) 0.56466(4) 0.169546(14)
C1_3 C 0.2338(2) 0.6629(6) 0.1815(2)
H1_3 H 0.2422 0.6002 0.1627
H2_3 H 0.2599 0.7102 0.1937
H3_3 H 0.2208 0.6173 0.2018
C2_3 C 0.2010(2) 0.7559(5) 0.16073(17)
C3_3 C 0.20841(18) 0.8792(5) 0.14603(18)
C4_3 C 0.16751(19) 0.9243(5) 0.12927(17)
C8_3 C 0.24992(18) 0.9508(5) 0.14778(17)
C9_3 C 0.2869(2) 0.9133(5) 0.13267(18)
C10_3 C 0.2960(2) 0.7953(5) 0.11008(18)
H10_3 H 0.3096 0.7290 0.1282
H11_3 H 0.2685 0.7623 0.0956
H12_3 H 0.3161 0.8177 0.0916
C11_2 C 0.1768(2) 0.3947(6) 0.25422(19)
H13_2 H 0.1777 0.4838 0.2449
H14_2 H 0.1702 0.3946 0.2811
H15_2 H 0.2053 0.3534 0.2537
C12_2 C 0.14178(19) 0.3214(5) 0.22821(17)
C13_2 C 0.1229(2) 0.2027(5) 0.23477(17)
C14_2 C 0.0933(2) 0.1785(6) 0.20132(18)
C15_2 C 0.0635(2) 0.0669(6) 0.1899(2)
H16_2 H 0.0527 0.0709 0.1618
H18_2 H 0.0386 0.0704 0.2045
C17_2 C 0.1509(2) 0.0041(5) 0.27737(17)
C18_2 C 0.1297(2) 0.1243(6) 0.27099(17)
C19_2 C 0.11645(19) 0.1557(5) 0.30617(18)
C20_2 C 0.0905(2) 0.2678(6) 0.31815(19)
H22_2 H 0.1091 0.3451 0.3212
H23_2 H 0.0650 0.2834 0.2980
H24_2 H 0.0804 0.2480 0.3431
C24_2 C 0.2282(2) 0.0257(5) 0.46299(17)
C25_2 C 0.2088(2) 0.0871(6) 0.49514(18)
H28_2 H 0.1946 0.0210 0.5092
H29_2 H 0.2320 0.1296 0.5132
H30_2 H 0.1870 0.1513 0.4842
C26_2 C 0.3510(2) 0.1982(6) 0.44995(18)
H31_2 H 0.3677 0.1499 0.4328
H32_2 H 0.3223 0.2217 0.4354
H33_2 H 0.3671 0.2767 0.4591
C27_2 C 0.3449(2) 0.1163(6) 0.48424(18)
C28_2 C 0.31068(19) 0.0275(5) 0.48784(17)
C31_3 C 0.0790(2) 0.6000(7) 0.2620(2)
H37_3 H 0.1018 0.6563 0.2757
H38_3 H 0.0607 0.5669 0.2806
H39_3 H 0.0927 0.5275 0.2502
C32_3 C 0.0512(2) 0.6748(6) 0.23063(19)
C33_3 C 0.0118(2) 0.7419(5) 0.23323(16)
N1_3 N 0.15871(16) 0.7263(4) 0.15381(14)
N2_3 N 0.13835(16) 0.8300(4) 0.13447(14)
H53_3 H 0.1099 0.8350 0.1264
N5_2 N 0.12515(15) 0.3686(4) 0.19330(14)
N6_2 N 0.09561(17) 0.2781(4) 0.17702(15)
H55_2 H 0.0801 0.2844 0.1535
N8_2 N 0.12955(15) 0.0588(4) 0.33125(13)
H56_2 H 0.1249 0.0568 0.3557
N11_2 N 0.37409(16) 0.1174(4) 0.51687(14)
N12_2 N 0.35890(16) 0.0313(5) 0.54110(15)
H58_2 H 0.3721 0.0146 0.5650
N13_3 N 0.06224(16) 0.6864(5) 0.19495(15)
N14_3 N 0.02983(15) 0.7602(4) 0.17453(14)
H59_3 H 0.0289 0.7818 0.1498
C46_3 C 0.00064(19) 0.7962(5) 0.30321(17)
C47_3 C 0.0388(2) 0.8795(6) 0.31778(18)
H63_3 H 0.0646 0.8253 0.3261
H64_3 H 0.0447 0.9376 0.2968
H65_3 H 0.0322 0.9305 0.3401
H94_2 H 0.1946 0.9790 0.0092
H95_2 H 0.2320 0.8704 0.0132
N27_2 N 0.37409(16) 0.8826(4) 0.01687(14)
N28_2 N 0.35890(16) 0.9687(5) 0.04110(15)
H118_2 H 0.3721 0.9854 0.0650
Ag1_2 Ag 0.881564(16) 0.43534(4) 0.830454(14)
C1_4 C 0.7662(2) 0.3371(6) 0.8185(2)
H1_4 H 0.7578 0.3998 0.8373
H2_4 H 0.7401 0.2898 0.8063
H3_4 H 0.7792 0.3827 0.7982
C2_4 C 0.7990(2) 0.2441(5) 0.83927(17)
C3_4 C 0.79159(18) 0.1208(5) 0.85397(18)
C4_4 C 0.83249(19) 0.0757(5) 0.87073(17)
C8_4 C 0.75008(18) 0.0492(5) 0.85222(17)
C9_4 C 0.7131(2) 0.0867(5) 0.86733(18)
C10_4 C 0.7040(2) 0.2047(5) 0.88992(18)
H10_4 H 0.6904 0.2710 0.8718
H11_4 H 0.7315 0.2377 0.9044
H12_4 H 0.6839 0.1823 0.9084
C11_3 C 0.8232(2) 0.6053(6) 0.74578(19)
H13_3 H 0.8223 0.5162 0.7551
H14_3 H 0.8298 0.6054 0.7189
H15_3 H 0.7947 0.6466 0.7463
C12_3 C 0.85822(19) 0.6786(5) 0.77179(17)
C13_3 C 0.8771(2) 0.7973(5) 0.76523(17)
C14_3 C 0.9067(2) 0.8215(6) 0.79868(18)
C15_3 C 0.9365(2) 0.9331(6) 0.8101(2)
H16_3 H 0.9473 0.9291 0.8382
H18_3 H 0.9614 0.9296 0.7955
C17_3 C 0.8491(2) 0.9959(5) 0.72263(17)
C18_3 C 0.8703(2) 0.8757(6) 0.72901(17)
C19_3 C 0.88355(19) 0.8443(5) 0.69383(18)
C20_3 C 0.9095(2) 0.7322(6) 0.68185(19)
H22_3 H 0.8909 0.6549 0.6788
H23_3 H 0.9350 0.7166 0.7020
H24_3 H 0.9196 0.7520 0.6569
C24_3 C 0.7718(2) 0.9743(5) 0.53701(17)
C25_3 C 0.7912(2) 0.9129(6) 0.50486(18)
H28_3 H 0.8054 0.9790 0.4908
H29_3 H 0.7680 0.8704 0.4868
H30_3 H 0.8130 0.8487 0.5158
C26_3 C 0.6490(2) 0.8018(6) 0.55005(18)
H31_3 H 0.6323 0.8501 0.5672
H32_3 H 0.6777 0.7783 0.5646
H33_3 H 0.6329 0.7233 0.5409
C27_3 C 0.6551(2) 0.8837(6) 0.51576(18)
C28_3 C 0.68932(19) 0.9725(5) 0.51216(17)
C31_4 C 0.9210(2) 0.4000(7) 0.7380(2)
H37_4 H 0.8982 0.3437 0.7243
H38_4 H 0.9393 0.4331 0.7194
H39_4 H 0.9073 0.4725 0.7498
C32_4 C 0.9488(2) 0.3252(6) 0.76937(19)
C33_4 C 0.9882(2) 0.2581(5) 0.76677(16)
N1_4 N 0.84129(16) 0.2737(4) 0.84619(14)
N2_4 N 0.86165(16) 0.1700(4) 0.86553(14)
H53_4 H 0.8901 0.1650 0.8736
N5_3 N 0.87485(15) 0.6314(4) 0.80670(14)
N6_3 N 0.90439(17) 0.7219(4) 0.82298(15)
H55_3 H 0.9199 0.7156 0.8465
N8_3 N 0.87045(15) 0.9412(4) 0.66875(13)
H56_3 H 0.8751 0.9432 0.6443
N11_3 N 0.62591(16) 0.8826(4) 0.48313(14)
N12_3 N 0.64110(16) 0.9687(5) 0.45890(15)
H58_3 H 0.6279 0.9854 0.4350
N13_4 N 0.93776(16) 0.3136(5) 0.80505(15)
N14_4 N 0.97017(15) 0.2398(4) 0.82547(14)
H59_4 H 0.9711 0.2182 0.8502
C46_4 C 0.99936(19) 0.2038(5) 0.69679(17)
C47_4 C 0.9612(2) 0.1205(6) 0.68222(18)
H63_4 H 0.9354 0.1747 0.6739
H64_4 H 0.9553 0.0624 0.7032
H65_4 H 0.9678 0.0695 0.6599
O10_2 O 0.92800(15) 0.4672(4) 0.89571(13)
C76_3 C 0.67925(19) 0.9734(6) 0.97569(18)
C77_3 C 0.7027(2) 0.8739(6) 0.95541(18)
H100_3 H 0.7239 0.9163 0.9412
H101_3 H 0.7181 0.8142 0.9748
H102_3 H 0.6814 0.8258 0.9369
C82_3 C 0.9301(2) 0.6594(6) 0.97279(18)
H109_3 H 0.9022 0.6128 0.9735
H110_3 H 0.9234 0.7371 0.9562
C83_3 C 0.9612(2) 0.5719(6) 0.95412(17)
H111_4 H 0.9610 0.4841 0.9654
H112_3 H 0.9915 0.6060 0.9601
C84_3 C 0.9478(2) 0.5648(7) 0.91051(18)
O8_3 O 0.95770(15) 0.6596(4) 0.89014(13)
Ag2_2 Ag 0.685873(16) 0.31429(4) 0.353502(14)
C11_4 C 0.6768(2) 0.8947(6) 0.25422(19)
H13_4 H 0.6777 0.9838 0.2449
H14_4 H 0.6702 0.8946 0.2811
H15_4 H 0.7053 0.8534 0.2537
C12_4 C 0.64178(19) 0.8214(5) 0.22821(17)
C13_4 C 0.6229(2) 0.7027(5) 0.23477(17)
C14_4 C 0.5933(2) 0.6785(6) 0.20132(18)
C15_4 C 0.5635(2) 0.5669(6) 0.1899(2)
H16_4 H 0.5527 0.5709 0.1618
H17_4 H 0.5797 0.4861 0.1960
H18_4 H 0.5386 0.5704 0.2045
C16_4 C 0.6714(2) 0.4201(6) 0.24964(19)
H19_4 H 0.6544 0.3403 0.2447
H20_4 H 0.6717 0.4662 0.2249
H21_4 H 0.7016 0.3990 0.2613
C17_4 C 0.6509(2) 0.5041(5) 0.27737(17)
C18_4 C 0.6297(2) 0.6243(6) 0.27099(17)
C19_4 C 0.61645(19) 0.6557(5) 0.30617(18)
C20_4 C 0.5905(2) 0.7678(6) 0.31815(19)
H22_4 H 0.6091 0.8451 0.3212
H23_4 H 0.5650 0.7834 0.2980
H24_4 H 0.5804 0.7480 0.3431
C21_4 C 0.8058(2) 0.3957(6) 0.40122(19)
H25_4 H 0.8194 0.4701 0.3902
H26_4 H 0.8278 0.3515 0.4201
H27_4 H 0.7944 0.3359 0.3801
C22_4 C 0.7690(2) 0.4410(5) 0.42141(18)
C23_4 C 0.77157(19) 0.4999(5) 0.45792(17)
C24_4 C 0.7282(2) 0.5257(5) 0.46299(17)
C25_4 C 0.7088(2) 0.5871(6) 0.49514(18)
H28_4 H 0.6946 0.5210 0.5092
H29_4 H 0.7320 0.6296 0.5132
H30_4 H 0.6870 0.6513 0.4842
C26_4 C 0.8510(2) 0.6982(6) 0.44995(18)
H31_4 H 0.8677 0.6499 0.4328
H32_4 H 0.8223 0.7217 0.4354
H33_4 H 0.8671 0.7767 0.4591
C27_4 C 0.8449(2) 0.6163(6) 0.48424(18)
C28_4 C 0.81068(19) 0.5275(5) 0.48784(17)
C29_4 C 0.82075(19) 0.4734(6) 0.52431(18)
C30_4 C 0.7973(2) 0.3739(6) 0.54459(18)
H34_4 H 0.7761 0.4163 0.5588
H35_4 H 0.7819 0.3142 0.5252
H36_4 H 0.8186 0.3258 0.5631
C36_4 C 0.6012(2) 0.3803(6) 0.40607(17)
C37_4 C 0.56393(19) 0.3353(6) 0.42685(17)
H43_4 H 0.5436 0.4079 0.4293
H44_4 H 0.5472 0.2657 0.4116
C38_4 C 0.5831(2) 0.2854(6) 0.46745(17)
H45_4 H 0.6098 0.2346 0.4654
H46_4 H 0.5919 0.3601 0.4847
C39_4 C 0.55136(19) 0.2012(6) 0.48637(17)
H47_4 H 0.5439 0.1235 0.4700
H48_4 H 0.5239 0.2500 0.4871
C40_4 C 0.5699(2) 0.1594(6) 0.52721(18)
H49_4 H 0.5978 0.1128 0.5265
H50_4 H 0.5766 0.2371 0.5438
C41_4 C 0.5388(2) 0.0719(6) 0.54588(17)
H52_4 H 0.5085 0.1060 0.5399
C42_4 C 0.5522(2) 0.0648(7) 0.58949(18)
N5_4 N 0.62515(15) 0.8686(4) 0.19330(14)
N6_4 N 0.59561(17) 0.7781(4) 0.17702(15)
H55_4 H 0.5801 0.7844 0.1535
N7_4 N 0.65082(16) 0.4642(4) 0.31411(14)
N8_4 N 0.62955(15) 0.5588(4) 0.33125(13)
H56_4 H 0.6249 0.5568 0.3557
N9_4 N 0.72735(16) 0.4306(4) 0.40381(15)
N10_4 N 0.70363(16) 0.4831(4) 0.42987(15)
H57_4 H 0.6748 0.4888 0.4255
N11_4 N 0.87409(16) 0.6174(4) 0.51687(14)
N12_4 N 0.85890(16) 0.5313(5) 0.54110(15)
H58_4 H 0.8721 0.5146 0.5650
O1_4 O 0.62071(12) 0.2960(4) 0.38888(12)
O2_4 O 0.61147(13) 0.4994(4) 0.40803(12)
O4_4 O 0.54230(15) 0.1596(4) 0.60986(13)
Ag4_2 Ag 0.314127(16) 0.31429(4) 0.146498(14)
C58_4 C 0.3232(2) 0.8947(6) 0.24578(19)
H79_4 H 0.3223 0.9838 0.2551
H80_4 H 0.3298 0.8946 0.2189
H81_4 H 0.2947 0.8534 0.2463
C59_4 C 0.35822(19) 0.8214(5) 0.27179(17)
C60_4 C 0.3771(2) 0.7027(5) 0.26523(17)
C61_4 C 0.4067(2) 0.6785(6) 0.29868(18)
C62_4 C 0.4365(2) 0.5669(6) 0.3101(2)
H82_4 H 0.4473 0.5709 0.3382
H83_4 H 0.4203 0.4861 0.3040
H84_4 H 0.4614 0.5704 0.2955
C63_4 C 0.3286(2) 0.4201(6) 0.25036(19)
H85_4 H 0.3456 0.3403 0.2553
H86_4 H 0.3283 0.4662 0.2751
H87_4 H 0.2984 0.3990 0.2387
C64_4 C 0.3491(2) 0.5041(5) 0.22263(17)
C65_4 C 0.3703(2) 0.6243(6) 0.22901(17)
C66_4 C 0.38355(19) 0.6557(5) 0.19383(18)
C67_4 C 0.4095(2) 0.7678(6) 0.18185(19)
H88_4 H 0.3909 0.8451 0.1788
H89_4 H 0.4350 0.7834 0.2020
H90_4 H 0.4196 0.7480 0.1569
C68_4 C 0.1942(2) 0.3957(6) 0.09878(19)
H91_4 H 0.1806 0.4701 0.1098
H92_4 H 0.1722 0.3515 0.0799
H93_4 H 0.2056 0.3359 0.1199
C69_4 C 0.2310(2) 0.4410(5) 0.07859(18)
C70_4 C 0.22843(19) 0.4999(5) 0.04208(17)
C71_4 C 0.2718(2) 0.5257(5) 0.03701(17)
C72_4 C 0.2912(2) 0.5871(6) 0.00486(18)
H96_4 H 0.3130 0.6513 0.0158
C73_4 C 0.1490(2) 0.6982(6) 0.05005(18)
H97_4 H 0.1323 0.6499 0.0672
H98_4 H 0.1777 0.7217 0.0646
H99_4 H 0.1329 0.7767 0.0409
C74_4 C 0.1551(2) 0.6163(6) 0.01576(18)
C75_4 C 0.18932(19) 0.5275(5) 0.01216(17)
C78_4 C 0.3988(2) 0.3803(6) 0.09393(17)
C79_4 C 0.43607(19) 0.3353(6) 0.07315(17)
H103_4 H 0.4564 0.4079 0.0707
H104_4 H 0.4528 0.2657 0.0884
C80_4 C 0.4169(2) 0.2854(6) 0.03255(17)
H105_4 H 0.3902 0.2346 0.0346
H106_4 H 0.4081 0.3601 0.0153
C81_4 C 0.44864(19) 0.2012(6) 0.01363(17)
H107_4 H 0.4561 0.1235 0.0300
H108_4 H 0.4761 0.2500 0.0129
N21_4 N 0.37485(15) 0.8686(4) 0.30670(14)
N22_4 N 0.40439(17) 0.7781(4) 0.32298(15)
H115_4 H 0.4199 0.7844 0.3465
N23_4 N 0.34918(16) 0.4642(4) 0.18589(14)
N24_4 N 0.37045(15) 0.5588(4) 0.16875(13)
H116_4 H 0.3751 0.5568 0.1443
N25_4 N 0.27265(16) 0.4306(4) 0.09619(15)
N26_4 N 0.29637(16) 0.4831(4) 0.07013(15)
H117_4 H 0.3252 0.4888 0.0745
O5_4 O 0.37929(12) 0.2960(4) 0.11112(12)
O6_4 O 0.38853(13) 0.4994(4) 0.09197(12)
N29_2 N 0.30070(16) 0.1092(5) 0.15968(15)
N30_2 N 0.69930(16) 0.1092(5) 0.34032(15)
C5_4 C 0.1533(2) 0.0461(6) 0.1069(2)
H4_4 H 0.1390 0.1041 0.1235
H5_4 H 0.1790 0.0892 0.0993
H6_4 H 0.1326 0.0242 0.0834
C6_4 C 0.2333(2) 0.1573(6) 0.18762(19)
H7_4 H 0.2439 0.2466 0.1876
H8_4 H 0.2025 0.1540 0.1754
H9_4 H 0.2359 0.1261 0.2146
C7_4 C 0.26037(19) 0.0737(6) 0.16508(18)
N4_4 N 0.31651(16) 0.0101(4) 0.14029(14)
H54_4 H 0.3429 0.0088 0.1335
C52_4 C 0.8467(2) 0.0461(6) 0.3931(2)
H70_4 H 0.8610 0.1041 0.3765
H71_4 H 0.8210 0.0892 0.4007
H72_4 H 0.8674 0.0242 0.4166
C53_4 C 0.7667(2) 0.1573(6) 0.31238(19)
H73_4 H 0.7561 0.2466 0.3124
H74_4 H 0.7975 0.1540 0.3246
H75_4 H 0.7641 0.1261 0.2854
C54_4 C 0.73963(19) 0.0737(6) 0.33492(18)
N20_4 N 0.68349(16) 0.0101(4) 0.35971(14)
H114_4 H 0.6571 0.0088 0.3665
H94_3 H 0.3054 0.5210 0.9908
H95_3 H 0.2680 0.6296 0.9868
C76_4 C 0.17925(19) 0.4734(6) 0.97569(18)
C77_4 C 0.2027(2) 0.3739(6) 0.95541(18)
H100_4 H 0.2239 0.4163 0.9412
H101_4 H 0.2181 0.3142 0.9748
H102_4 H 0.1814 0.3258 0.9369
C82_4 C 0.4301(2) 0.1594(6) 0.97279(18)
H109_4 H 0.4022 0.1128 0.9735
H110_4 H 0.4234 0.2371 0.9562
C83_4 C 0.4612(2) 0.0719(6) 0.95412(17)
H112_4 H 0.4915 0.1060 0.9601
C84_4 C 0.4478(2) 0.0648(7) 0.91051(18)
N27_3 N 0.12591(16) 0.6174(4) 0.98313(14)
N28_3 N 0.14110(16) 0.5313(5) 0.95890(15)
H118_3 H 0.1279 0.5146 0.9350
O8_4 O 0.45770(15) 0.1596(4) 0.89014(13)
H94_4 H 0.8054 0.0210 0.9908
H95_4 H 0.7680 0.1296 0.9868
N27_4 N 0.62591(16) 0.1174(4) 0.98313(14)
N28_4 N 0.64110(16) 0.0313(5) 0.95890(15)
H118_4 H 0.6279 0.0146 0.9350
loop_
_geom_bond_atom_site_label_1
_geom_bond_atom_site_label_2
_geom_bond_site_symmetry_1
_geom_bond_site_symmetry_2
Ag5 O7 1_555 1_555
Ag6 O3 1_555 1_555
C35 C34 1_555 1_555
H40 C35 1_555 1_555
H41 C35 1_555 1_555
H42 C35 1_555 1_555
C43 H60 1_555 1_555
H61 C43 1_555 1_555
H62 C43 1_555 1_555
C44 C43 1_555 1_555
N15 C44 1_555 1_555
H66 N16 1_555 1_555
Ag3 N15 1_555 1_555
C48 H67 1_555 1_555
H68 C48 1_555 1_555
H69 C48 1_555 1_555
C49 C48 1_555 1_555
C50 C49 1_555 1_555
C51 C50 1_555 1_555
C55 C50 1_555 1_555
C56 C55 1_555 1_555
C57 C56 1_555 1_555
H76 C57 1_555 1_555
H77 C57 1_555 1_555
H78 C57 1_555 1_555
C58 H79 1_555 1_555
H80 C58 1_555 1_555
H81 C58 1_555 1_555
C59 C58 1_555 1_555
C60 C59 1_555 1_555
C61 C60 1_555 1_555
C62 C61 1_555 1_555
H82 C62 1_555 1_555
H84 C62 1_555 1_555
C65 C60 1_555 1_555
C66 C65 1_555 1_555
C67 C66 1_555 1_555
H88 C67 1_555 1_555
H89 C67 1_555 1_555
H90 C67 1_555 1_555
C72 C71 1_555 1_555
H96 C72 1_555 1_555
C73 H97 1_555 1_555
H98 C73 1_555 1_555
H99 C73 1_555 1_555
C74 C73 1_555 1_555
N17 Ag3 1_555 1_555
N18 C51 1_555 1_555
H113 N18 1_555 1_555
N21 Ag3 1_555 1_555
N22 C61 1_555 1_555
H115 N22 1_555 1_555
N24 C66 1_555 1_555
H116 N24 1_555 1_555
O9 Ag3 1_555 1_555
C44 C45 1_555 1_555
N15 N16 1_555 1_555
C49 N17 1_555 1_555
C59 N21 1_555 1_555
C64 C65 1_555 1_555
C74 C75 1_555 1_555
N17 N18 1_555 1_555
N21 N22 1_555 1_555
Ag5 N1 1_555 1_555
C1 H1 1_555 1_555
H2 C1 1_555 1_555
H3 C1 1_555 1_555
C2 C1 1_555 1_555
C3 C2 1_555 1_555
C4 C3 1_555 1_555
C5 C4 1_555 1_555
H4 C5 1_555 1_555
H5 C5 1_555 1_555
H6 C5 1_555 1_555
C6 H7 1_555 1_555
H8 C6 1_555 1_555
H9 C6 1_555 1_555
C7 C6 1_555 1_555
C8 C3 1_555 1_555
C9 C8 1_555 1_555
C10 C9 1_555 1_555
H10 C10 1_555 1_555
H11 C10 1_555 1_555
H12 C10 1_555 1_555
C31 H37 1_555 1_555
H38 C31 1_555 1_555
H39 C31 1_555 1_555
C32 C31 1_555 1_555
C33 C32 1_555 1_555
C34_2 C33 1_555 1_555
C35_2 C34_2 1_555 1_555
H40_2 C35_2 1_555 1_555
H41_2 C35_2 1_555 1_555
H42_2 C35_2 1_555 1_555
N1 C2 1_555 1_555
N2 C4 1_555 1_555
H53 N2 1_555 1_555
N3 C7 1_555 1_555
N4 C9 1_555 1_555
H54 N4 1_555 1_555
N13 Ag5 1_555 1_555
N14 C34_2 1_555 1_555
H59 N14 1_555 1_555
C43_2 H60_2 1_555 1_555
H61_2 C43_2 1_555 1_555
H62_2 C43_2 1_555 1_555
C44_2 C43_2 1_555 1_555
C45_2 C33 1_555 1_555
C46 C45_2 1_555 1_555
C47 C46 1_555 1_555
H63 C47 1_555 1_555
H64 C47 1_555 1_555
H65 C47 1_555 1_555
N15_2 C44_2 1_555 1_555
N16_2 C46 1_555 1_555
H66_2 N16_2 1_555 1_555
Ag6 N15_2 1_555 1_555
C48_2 H67_2 1_555 1_555
H68_2 C48_2 1_555 1_555
H69_2 C48_2 1_555 1_555
C49_2 C48_2 1_555 1_555
C50_2 C49_2 1_555 1_555
C51_2 C50_2 1_555 1_555
C52 C51_2 1_555 1_555
H70 C52 1_555 1_555
H71 C52 1_555 1_555
H72 C52 1_555 1_555
C53 H73 1_555 1_555
H74 C53 1_555 1_555
H75 C53 1_555 1_555
C54 C53 1_555 1_555
C55_2 C50_2 1_555 1_555
C56_2 C55_2 1_555 1_555
C57_2 C56_2 1_555 1_555
H76_2 C57_2 1_555 1_555
H77_2 C57_2 1_555 1_555
H78_2 C57_2 1_555 1_555
N17_2 Ag6 1_555 1_555
N18_2 C51_2 1_555 1_555
H113_2 N18_2 1_555 1_555
N19 C54 1_555 1_555
N20 C56_2 1_555 1_555
H114 N20 1_555 1_555
Ag7 N19 1_555 1_555
Ag8 N3 1_555 1_555
C7 C8 1_555 1_555
C32 N13 1_555 1_555
N1 N2 1_555 1_555
N3 N4 1_555 1_555
N13 N14 1_555 1_555
C44_2 C45_2 1_555 1_555
N15_2 N16_2 1_555 1_555
C49_2 N17_2 1_555 1_555
C54 C55_2 1_555 1_555
N17_2 N18_2 1_555 1_555
N19 N20 1_555 1_555
Ag7 N7 1_555 1_555
C16 H19 1_555 1_555
H20 C16 1_555 1_555
H21 C16 1_555 1_555
C21 H25 1_555 1_555
H26 C21 1_555 1_555
H27 C21 1_555 1_555
C22 C21 1_555 1_555
C23 C22 1_555 1_555
C30 C29 1_555 1_555
H34 C30 1_555 1_555
H35 C30 1_555 1_555
H36 C30 1_555 1_555
C36 C37 1_555 1_555
C37 H43 1_555 1_555
H44 C37 1_555 1_555
C38 C37 1_555 1_555
H45 C38 1_555 1_555
H46 C38 1_555 1_555
C39 C38 1_555 1_555
H47 C39 1_555 1_555
H48 C39 1_555 1_555
C40 C39 1_555 1_555
H49 C40 1_555 1_555
H50 C40 1_555 1_555
C41 C40 1_555 1_555
H51_2 C41 1_555 1_555
H52 C41 1_555 1_555
C42 C41 1_555 1_555
N9 Ag7 1_555 1_555
H57 N10 1_555 1_555
O1 Ag7 1_555 1_555
O2 C36 1_555 1_555
O9 C42 1_555 1_555
O4 C42 1_555 1_555
C22 N9 1_555 1_555
C36 O1 1_555 1_555
N9 N10 1_555 1_555
Ag8 N23 1_555 1_555
C63 H85 1_555 1_555
H86 C63 1_555 1_555
H87 C63 1_555 1_555
C68 H91 1_555 1_555
H92 C68 1_555 1_555
H93 C68 1_555 1_555
C69 C68 1_555 1_555
C70 C69 1_555 1_555
C78 C79 1_555 1_555
C79 H103 1_555 1_555
H104 C79 1_555 1_555
C80 C79 1_555 1_555
H105 C80 1_555 1_555
H106 C80 1_555 1_555
C81 C80 1_555 1_555
H107 C81 1_555 1_555
H108 C81 1_555 1_555
N25 Ag8 1_555 1_555
H117 N26 1_555 1_555
O5 Ag8 1_555 1_555
O6 C78 1_555 1_555
C69 N25 1_555 1_555
C78 O5 1_555 1_555
N25 N26 1_555 1_555
C77 C76 1_555 1_555
H100 C77 1_555 1_555
H101 C77 1_555 1_555
H102 C77 1_555 1_555
H109 C82 1_555 1_555
H110 C82 1_555 1_555
C83 C82 1_555 1_555
H112 C83 1_555 1_555
C84 C83 1_555 1_555
N28 C76 1_555 1_555
H118 N28 1_555 1_555
O8 C84 1_555 1_555
N27 N28 1_555 1_555
Ag2 N7_2 1_555 1_555
C11 H13 1_555 1_555
H14 C11 1_555 1_555
H15 C11 1_555 1_555
C12 C11 1_555 1_555
C13 C12 1_555 1_555
C14 C13 1_555 1_555
C15 C14 1_555 1_555
H16 C15 1_555 1_555
H17_2 C15 1_555 1_555
H18 C15 1_555 1_555
C16_2 H19_2 1_555 1_555
H20_2 C16_2 1_555 1_555
H21_2 C16_2 1_555 1_555
C17 C16_2 1_555 1_555
C18 C13 1_555 1_555
C19 C18 1_555 1_555
C20 C19 1_555 1_555
H22 C20 1_555 1_555
H23 C20 1_555 1_555
H24 C20 1_555 1_555
C21_2 H25_2 1_555 1_555
H26_2 C21_2 1_555 1_555
H27_2 C21_2 1_555 1_555
C22_2 C21_2 1_555 1_555
C23_2 C22_2 1_555 1_555
C24 C23_2 1_555 1_555
C25 C24 1_555 1_555
H28 C25 1_555 1_555
H29 C25 1_555 1_555
H30 C25 1_555 1_555
C26 H31 1_555 1_555
H32 C26 1_555 1_555
H33 C26 1_555 1_555
C27 C26 1_555 1_555
C28 C23_2 1_555 1_555
C29_2 C28 1_555 1_555
C30_2 C29_2 1_555 1_555
H34_2 C30_2 1_555 1_555
H35_2 C30_2 1_555 1_555
H36_2 C30_2 1_555 1_555
C36_2 C37_2 1_555 1_555
C37_2 H43_2 1_555 1_555
H44_2 C37_2 1_555 1_555
C38_2 C37_2 1_555 1_555
H45_2 C38_2 1_555 1_555
H46_2 C38_2 1_555 1_555
C39_2 C38_2 1_555 1_555
H47_2 C39_2 1_555 1_555
H48_2 C39_2 1_555 1_555
C40_2 C39_2 1_555 1_555
H49_2 C40_2 1_555 1_555
H50_2 C40_2 1_555 1_555
C41_2 C40_2 1_555 1_555
H52_2 C41_2 1_555 1_555
C42_2 C41_2 1_555 1_555
N6 C14 1_555 1_555
H55 N6 1_555 1_555
N7_2 C17 1_555 1_555
N8 C19 1_555 1_555
H56 N8 1_555 1_555
N9_2 Ag2 1_555 1_555
N10_2 C24 1_555 1_555
H57_2 N10_2 1_555 1_555
N11 C27 1_555 1_555
N12 C29_2 1_555 1_555
H58 N12 1_555 1_555
O1_2 Ag2 1_555 1_555
O2_2 C36_2 1_555 1_555
O4_2 C42_2 1_555 1_555
Ag4 N23_2 1_555 1_555
C58_2 H79_2 1_555 1_555
H80_2 C58_2 1_555 1_555
H81_2 C58_2 1_555 1_555
C59_2 C58_2 1_555 1_555
C60_2 C59_2 1_555 1_555
C61_2 C60_2 1_555 1_555
C62_2 C61_2 1_555 1_555
H82_2 C62_2 1_555 1_555
H83_2 C62_2 1_555 1_555
H84_2 C62_2 1_555 1_555
C63_2 H85_2 1_555 1_555
H86_2 C63_2 1_555 1_555
H87_2 C63_2 1_555 1_555
C64_2 C63_2 1_555 1_555
C65_2 C60_2 1_555 1_555
C66_2 C65_2 1_555 1_555
C67_2 C66_2 1_555 1_555
H88_2 C67_2 1_555 1_555
H89_2 C67_2 1_555 1_555
H90_2 C67_2 1_555 1_555
C68_2 H91_2 1_555 1_555
H92_2 C68_2 1_555 1_555
H93_2 C68_2 1_555 1_555
C69_2 C68_2 1_555 1_555
C70_2 C69_2 1_555 1_555
C71_2 C70_2 1_555 1_555
C72_2 C71_2 1_555 1_555
H96_2 C72_2 1_555 1_555
C73_2 H97_2 1_555 1_555
H98_2 C73_2 1_555 1_555
H99_2 C73_2 1_555 1_555
C74_2 C73_2 1_555 1_555
C75_2 C70_2 1_555 1_555
C78_2 C79_2 1_555 1_555
C79_2 H103_2 1_555 1_555
H104_2 C79_2 1_555 1_555
C80_2 C79_2 1_555 1_555
H105_2 C80_2 1_555 1_555
H106_2 C80_2 1_555 1_555
C81_2 C80_2 1_555 1_555
H107_2 C81_2 1_555 1_555
H108_2 C81_2 1_555 1_555
N22_2 C61_2 1_555 1_555
H115_2 N22_2 1_555 1_555
N23_2 C64_2 1_555 1_555
N24_2 C66_2 1_555 1_555
H116_2 N24_2 1_555 1_555
N25_2 Ag4 1_555 1_555
N26_2 C71_2 1_555 1_555
H117_2 N26_2 1_555 1_555
O5_2 Ag4 1_555 1_555
O6_2 C78_2 1_555 1_555
N29 Ag4 1_555 1_555
N30 Ag2 1_555 1_555
C12 N5 1_555 1_555
C17 C18 1_555 1_555
C22_2 N9_2 1_555 1_555
C27 C28 1_555 1_555
C36_2 O1_2 1_555 1_555
N5 N6 1_555 1_555
N7_2 N8 1_555 1_555
N9_2 N10_2 1_555 1_555
N11 N12 1_555 1_555
C59_2 N21_2 1_555 1_555
C64_2 C65_2 1_555 1_555
C69_2 N25_2 1_555 1_555
C74_2 C75_2 1_555 1_555
C78_2 O5_2 1_555 1_555
N21_2 N22_2 1_555 1_555
N23_2 N24_2 1_555 1_555
N25_2 N26_2 1_555 1_555
H70_2 C52_2 1_555 1_555
H71_2 C52_2 1_555 1_555
H72_2 C52_2 1_555 1_555
C53_2 H73_2 1_555 1_555
H74_2 C53_2 1_555 1_555
H75_2 C53_2 1_555 1_555
C54_2 C53_2 1_555 1_555
N30 C54_2 1_555 1_555
H114_2 N20_2 1_555 1_555
N30 N20_2 1_555 1_555
H4_2 C5_2 1_555 1_555
H5_2 C5_2 1_555 1_555
H6_2 C5_2 1_555 1_555
C6_2 H7_2 1_555 1_555
H8_2 C6_2 1_555 1_555
H9_2 C6_2 1_555 1_555
C7_2 C6_2 1_555 1_555
N29 C7_2 1_555 1_555
H54_2 N4_2 1_555 1_555
N29 N4_2 1_555 1_555
Ag1 N1_2 1_555 1_555
C1_2 H1_2 1_555 1_555
H2_2 C1_2 1_555 1_555
H3_2 C1_2 1_555 1_555
C2_2 C1_2 1_555 1_555
C3_2 C2_2 1_555 1_555
C4_2 C3_2 1_555 1_555
C5_3 C4_2 1_555 1_555
H4_3 C5_3 1_555 1_555
H5_3 C5_3 1_555 1_555
H6_3 C5_3 1_555 1_555
C6_3 H7_3 1_555 1_555
H8_3 C6_3 1_555 1_555
H9_3 C6_3 1_555 1_555
C7_3 C6_3 1_555 1_555
C8_2 C3_2 1_555 1_555
C9_2 C8_2 1_555 1_555
C10_2 C9_2 1_555 1_555
H10_2 C10_2 1_555 1_555
H11_2 C10_2 1_555 1_555
H12_2 C10_2 1_555 1_555
C31_2 H37_2 1_555 1_555
H38_2 C31_2 1_555 1_555
H39_2 C31_2 1_555 1_555
C32_2 C31_2 1_555 1_555
C33_2 C32_2 1_555 1_555
C34_3 C33_2 1_555 1_555
C35_3 C34_3 1_555 1_555
H40_3 C35_3 1_555 1_555
H41_3 C35_3 1_555 1_555
H42_3 C35_3 1_555 1_555
N1_2 C2_2 1_555 1_555
N2_2 C4_2 1_555 1_555
H53_2 N2_2 1_555 1_555
N3_2 C7_3 1_555 1_555
N4_3 C9_2 1_555 1_555
H54_3 N4_3 1_555 1_555
N13_2 Ag1 1_555 1_555
N14_2 C34_3 1_555 1_555
H59_2 N14_2 1_555 1_555
C43_3 H60_3 1_555 1_555
H61_3 C43_3 1_555 1_555
H62_3 C43_3 1_555 1_555
C44_3 C43_3 1_555 1_555
C45_3 C33_2 1_555 1_555
C46_2 C45_3 1_555 1_555
C47_2 C46_2 1_555 1_555
H63_2 C47_2 1_555 1_555
H64_2 C47_2 1_555 1_555
H65_2 C47_2 1_555 1_555
N15_3 C44_3 1_555 1_555
N16_3 C46_2 1_555 1_555
H66_3 N16_3 1_555 1_555
Ag3_2 N15_3 1_555 1_555
C48_3 H67_3 1_555 1_555
H68_3 C48_3 1_555 1_555
H69_3 C48_3 1_555 1_555
C49_3 C48_3 1_555 1_555
C50_3 C49_3 1_555 1_555
C51_3 C50_3 1_555 1_555
C52_3 C51_3 1_555 1_555
H70_3 C52_3 1_555 1_555
H71_3 C52_3 1_555 1_555
H72_3 C52_3 1_555 1_555
C53_3 H73_3 1_555 1_555
H74_3 C53_3 1_555 1_555
H75_3 C53_3 1_555 1_555
C54_3 C53_3 1_555 1_555
C55_3 C50_3 1_555 1_555
C56_3 C55_3 1_555 1_555
C57_3 C56_3 1_555 1_555
H76_3 C57_3 1_555 1_555
H77_3 C57_3 1_555 1_555
H78_3 C57_3 1_555 1_555
N17_3 Ag3_2 1_555 1_555
N18_3 C51_3 1_555 1_555
H113_3 N18_3 1_555 1_555
N19_2 C54_3 1_555 1_555
N20_3 C56_3 1_555 1_555
H114_3 N20_3 1_555 1_555
Ag7_2 N19_2 1_555 1_555
Ag8_2 N3_2 1_555 1_555
O9_2 Ag3_2 1_555 1_555
O10 Ag1 1_555 1_555
C7_3 C8_2 1_555 1_555
C32_2 N13_2 1_555 1_555
N1_2 N2_2 1_555 1_555
N3_2 N4_3 1_555 1_555
N13_2 N14_2 1_555 1_555
C44_3 C45_3 1_555 1_555
N15_3 N16_3 1_555 1_555
C49_3 N17_3 1_555 1_555
C54_3 C55_3 1_555 1_555
N17_3 N18_3 1_555 1_555
N19_2 N20_3 1_555 1_555
Ag8_2 N23_3 1_555 1_555
C63_3 H85_3 1_555 1_555
H86_3 C63_3 1_555 1_555
H87_3 C63_3 1_555 1_555
C68_3 H91_3 1_555 1_555
H92_3 C68_3 1_555 1_555
H93_3 C68_3 1_555 1_555
C69_3 C68_3 1_555 1_555
C70_3 C69_3 1_555 1_555
C78_3 C79_3 1_555 1_555
C79_3 H103_3 1_555 1_555
H104_3 C79_3 1_555 1_555
C80_3 C79_3 1_555 1_555
H105_3 C80_3 1_555 1_555
H106_3 C80_3 1_555 1_555
C81_3 C80_3 1_555 1_555
H107_3 C81_3 1_555 1_555
H108_3 C81_3 1_555 1_555
N25_3 Ag8_2 1_555 1_555
H117_3 N26_3 1_555 1_555
O5_3 Ag8_2 1_555 1_555
O6_3 C78_3 1_555 1_555
C69_3 N25_3 1_555 1_555
C78_3 O5_3 1_555 1_555
N25_3 N26_3 1_555 1_555
Ag7_2 N7_3 1_555 1_555
C16_3 H19_3 1_555 1_555
H20_3 C16_3 1_555 1_555
H21_3 C16_3 1_555 1_555
C21_3 H25_3 1_555 1_555
H26_3 C21_3 1_555 1_555
H27_3 C21_3 1_555 1_555
C22_3 C21_3 1_555 1_555
C23_3 C22_3 1_555 1_555
C30_3 C29_3 1_555 1_555
H34_3 C30_3 1_555 1_555
H35_3 C30_3 1_555 1_555
H36_3 C30_3 1_555 1_555
C36_3 C37_3 1_555 1_555
C37_3 H43_3 1_555 1_555
H44_3 C37_3 1_555 1_555
C38_3 C37_3 1_555 1_555
H45_3 C38_3 1_555 1_555
H46_3 C38_3 1_555 1_555
C39_3 C38_3 1_555 1_555
H47_3 C39_3 1_555 1_555
H48_3 C39_3 1_555 1_555
C40_3 C39_3 1_555 1_555
H49_3 C40_3 1_555 1_555
H50_3 C40_3 1_555 1_555
C41_3 C40_3 1_555 1_555
H51_3 C41_3 1_555 1_555
H52_3 C41_3 1_555 1_555
C42_3 C41_3 1_555 1_555
N9_3 Ag7_2 1_555 1_555
H57_3 N10_3 1_555 1_555
O1_3 Ag7_2 1_555 1_555
O2_3 C36_3 1_555 1_555
O3_2 C42_3 1_555 1_555
O4_3 C42_3 1_555 1_555
Ag6_2 O3_2 1_555 1_555
C22_3 N9_3 1_555 1_555
C36_3 O1_3 1_555 1_555
N9_3 N10_3 1_555 1_555
C35_4 C34_4 1_555 1_555
H40_4 C35_4 1_555 1_555
H41_4 C35_4 1_555 1_555
H42_4 C35_4 1_555 1_555
C43_4 H60_4 1_555 1_555
H61_4 C43_4 1_555 1_555
H62_4 C43_4 1_555 1_555
C44_4 C43_4 1_555 1_555
N15_4 C44_4 1_555 1_555
H66_4 N16_4 1_555 1_555
Ag6_2 N15_4 1_555 1_555
C48_4 H67_4 1_555 1_555
H68_4 C48_4 1_555 1_555
H69_4 C48_4 1_555 1_555
C49_4 C48_4 1_555 1_555
C50_4 C49_4 1_555 1_555
C51_4 C50_4 1_555 1_555
C55_4 C50_4 1_555 1_555
C56_4 C55_4 1_555 1_555
C57_4 C56_4 1_555 1_555
H76_4 C57_4 1_555 1_555
H77_4 C57_4 1_555 1_555
H78_4 C57_4 1_555 1_555
C58_3 H79_3 1_555 1_555
H80_3 C58_3 1_555 1_555
H81_3 C58_3 1_555 1_555
C59_3 C58_3 1_555 1_555
C60_3 C59_3 1_555 1_555
C61_3 C60_3 1_555 1_555
C62_3 C61_3 1_555 1_555
H82_3 C62_3 1_555 1_555
H84_3 C62_3 1_555 1_555
C65_3 C60_3 1_555 1_555
C66_3 C65_3 1_555 1_555
C67_3 C66_3 1_555 1_555
H88_3 C67_3 1_555 1_555
H89_3 C67_3 1_555 1_555
H90_3 C67_3 1_555 1_555
C72_3 C71_3 1_555 1_555
H96_3 C72_3 1_555 1_555
C73_3 H97_3 1_555 1_555
H98_3 C73_3 1_555 1_555
H99_3 C73_3 1_555 1_555
C74_3 C73_3 1_555 1_555
N17_4 Ag6_2 1_555 1_555
N18_4 C51_4 1_555 1_555
H113_4 N18_4 1_555 1_555
N21_3 Ag6_2 1_555 1_555
N22_3 C61_3 1_555 1_555
H115_3 N22_3 1_555 1_555
N24_3 C66_3 1_555 1_555
H116_3 N24_3 1_555 1_555
C44_4 C45_4 1_555 1_555
N15_4 N16_4 1_555 1_555
C49_4 N17_4 1_555 1_555
C59_3 N21_3 1_555 1_555
C64_3 C65_3 1_555 1_555
C74_3 C75_3 1_555 1_555
N17_4 N18_4 1_555 1_555
N21_3 N22_3 1_555 1_555
C77_2 C76_2 1_555 1_555
H100_2 C77_2 1_555 1_555
H101_2 C77_2 1_555 1_555
H102_2 C77_2 1_555 1_555
H109_2 C82_2 1_555 1_555
H110_2 C82_2 1_555 1_555
C83_2 C82_2 1_555 1_555
H111_3 C83_2 1_555 1_555
H112_2 C83_2 1_555 1_555
C84_2 C83_2 1_555 1_555
O7_2 C84_2 1_555 1_555
O8_2 C84_2 1_555 1_555
Ag5_2 O7_2 1_555 1_555
Ag5_2 N1_3 1_555 1_555
C1_3 H1_3 1_555 1_555
H2_3 C1_3 1_555 1_555
H3_3 C1_3 1_555 1_555
C2_3 C1_3 1_555 1_555
C3_3 C2_3 1_555 1_555
C4_3 C3_3 1_555 1_555
C8_3 C3_3 1_555 1_555
C9_3 C8_3 1_555 1_555
C10_3 C9_3 1_555 1_555
H10_3 C10_3 1_555 1_555
H11_3 C10_3 1_555 1_555
H12_3 C10_3 1_555 1_555
C11_2 H13_2 1_555 1_555
H14_2 C11_2 1_555 1_555
H15_2 C11_2 1_555 1_555
C12_2 C11_2 1_555 1_555
C13_2 C12_2 1_555 1_555
C14_2 C13_2 1_555 1_555
C15_2 C14_2 1_555 1_555
H16_2 C15_2 1_555 1_555
H18_2 C15_2 1_555 1_555
C18_2 C13_2 1_555 1_555
C19_2 C18_2 1_555 1_555
C20_2 C19_2 1_555 1_555
H22_2 C20_2 1_555 1_555
H23_2 C20_2 1_555 1_555
H24_2 C20_2 1_555 1_555
C25_2 C24_2 1_555 1_555
H28_2 C25_2 1_555 1_555
H29_2 C25_2 1_555 1_555
H30_2 C25_2 1_555 1_555
C26_2 H31_2 1_555 1_555
H32_2 C26_2 1_555 1_555
H33_2 C26_2 1_555 1_555
C27_2 C26_2 1_555 1_555
C31_3 H37_3 1_555 1_555
H38_3 C31_3 1_555 1_555
H39_3 C31_3 1_555 1_555
C32_3 C31_3 1_555 1_555
C33_3 C32_3 1_555 1_555
N1_3 C2_3 1_555 1_555
N2_3 C4_3 1_555 1_555
H53_3 N2_3 1_555 1_555
N5_2 Ag5_2 1_555 1_555
N6_2 C14_2 1_555 1_555
H55_2 N6_2 1_555 1_555
N8_2 C19_2 1_555 1_555
H56_2 N8_2 1_555 1_555
N11_2 C27_2 1_555 1_555
H58_2 N12_2 1_555 1_555
N13_3 Ag5_2 1_555 1_555
H59_3 N14_3 1_555 1_555
C47_3 C46_3 1_555 1_555
H63_3 C47_3 1_555 1_555
H64_3 C47_3 1_555 1_555
H65_3 C47_3 1_555 1_555
C12_2 N5_2 1_555 1_555
C17_2 C18_2 1_555 1_555
C27_2 C28_2 1_555 1_555
C32_3 N13_3 1_555 1_555
N1_3 N2_3 1_555 1_555
N5_2 N6_2 1_555 1_555
N11_2 N12_2 1_555 1_555
N13_3 N14_3 1_555 1_555
H118_2 N28_2 1_555 1_555
N27_2 N28_2 1_555 1_555
Ag1_2 N1_4 1_555 1_555
C1_4 H1_4 1_555 1_555
H2_4 C1_4 1_555 1_555
H3_4 C1_4 1_555 1_555
C2_4 C1_4 1_555 1_555
C3_4 C2_4 1_555 1_555
C4_4 C3_4 1_555 1_555
C8_4 C3_4 1_555 1_555
C9_4 C8_4 1_555 1_555
C10_4 C9_4 1_555 1_555
H10_4 C10_4 1_555 1_555
H11_4 C10_4 1_555 1_555
H12_4 C10_4 1_555 1_555
C11_3 H13_3 1_555 1_555
H14_3 C11_3 1_555 1_555
H15_3 C11_3 1_555 1_555
C12_3 C11_3 1_555 1_555
C13_3 C12_3 1_555 1_555
C14_3 C13_3 1_555 1_555
C15_3 C14_3 1_555 1_555
H16_3 C15_3 1_555 1_555
H18_3 C15_3 1_555 1_555
C18_3 C13_3 1_555 1_555
C19_3 C18_3 1_555 1_555
C20_3 C19_3 1_555 1_555
H22_3 C20_3 1_555 1_555
H23_3 C20_3 1_555 1_555
H24_3 C20_3 1_555 1_555
C25_3 C24_3 1_555 1_555
H28_3 C25_3 1_555 1_555
H29_3 C25_3 1_555 1_555
H30_3 C25_3 1_555 1_555
C26_3 H31_3 1_555 1_555
H32_3 C26_3 1_555 1_555
H33_3 C26_3 1_555 1_555
C27_3 C26_3 1_555 1_555
C31_4 H37_4 1_555 1_555
H38_4 C31_4 1_555 1_555
H39_4 C31_4 1_555 1_555
C32_4 C31_4 1_555 1_555
C33_4 C32_4 1_555 1_555
N1_4 C2_4 1_555 1_555
N2_4 C4_4 1_555 1_555
H53_4 N2_4 1_555 1_555
N5_3 Ag1_2 1_555 1_555
N6_3 C14_3 1_555 1_555
H55_3 N6_3 1_555 1_555
N8_3 C19_3 1_555 1_555
H56_3 N8_3 1_555 1_555
N11_3 C27_3 1_555 1_555
H58_3 N12_3 1_555 1_555
N13_4 Ag1_2 1_555 1_555
H59_4 N14_4 1_555 1_555
C47_4 C46_4 1_555 1_555
H63_4 C47_4 1_555 1_555
H64_4 C47_4 1_555 1_555
H65_4 C47_4 1_555 1_555
O10_2 Ag1_2 1_555 1_555
C12_3 N5_3 1_555 1_555
C17_3 C18_3 1_555 1_555
C27_3 C28_3 1_555 1_555
C32_4 N13_4 1_555 1_555
N1_4 N2_4 1_555 1_555
N5_3 N6_3 1_555 1_555
N11_3 N12_3 1_555 1_555
N13_4 N14_4 1_555 1_555
C77_3 C76_3 1_555 1_555
H100_3 C77_3 1_555 1_555
H101_3 C77_3 1_555 1_555
H102_3 C77_3 1_555 1_555
H109_3 C82_3 1_555 1_555
H110_3 C82_3 1_555 1_555
C83_3 C82_3 1_555 1_555
H111_4 C83_3 1_555 1_555
H112_3 C83_3 1_555 1_555
C84_3 C83_3 1_555 1_555
O10_2 C84_3 1_555 1_555
O8_3 C84_3 1_555 1_555
Ag2_2 N7_4 1_555 1_555
C11_4 H13_4 1_555 1_555
H14_4 C11_4 1_555 1_555
H15_4 C11_4 1_555 1_555
C12_4 C11_4 1_555 1_555
C13_4 C12_4 1_555 1_555
C14_4 C13_4 1_555 1_555
C15_4 C14_4 1_555 1_555
H16_4 C15_4 1_555 1_555
H17_4 C15_4 1_555 1_555
H18_4 C15_4 1_555 1_555
C16_4 H19_4 1_555 1_555
H20_4 C16_4 1_555 1_555
H21_4 C16_4 1_555 1_555
C17_4 C16_4 1_555 1_555
C18_4 C13_4 1_555 1_555
C19_4 C18_4 1_555 1_555
C20_4 C19_4 1_555 1_555
H22_4 C20_4 1_555 1_555
H23_4 C20_4 1_555 1_555
H24_4 C20_4 1_555 1_555
C21_4 H25_4 1_555 1_555
H26_4 C21_4 1_555 1_555
H27_4 C21_4 1_555 1_555
C22_4 C21_4 1_555 1_555
C23_4 C22_4 1_555 1_555
C24_4 C23_4 1_555 1_555
C25_4 C24_4 1_555 1_555
H28_4 C25_4 1_555 1_555
H29_4 C25_4 1_555 1_555
H30_4 C25_4 1_555 1_555
C26_4 H31_4 1_555 1_555
H32_4 C26_4 1_555 1_555
H33_4 C26_4 1_555 1_555
C27_4 C26_4 1_555 1_555
C28_4 C23_4 1_555 1_555
C29_4 C28_4 1_555 1_555
C30_4 C29_4 1_555 1_555
H34_4 C30_4 1_555 1_555
H35_4 C30_4 1_555 1_555
H36_4 C30_4 1_555 1_555
C36_4 C37_4 1_555 1_555
C37_4 H43_4 1_555 1_555
H44_4 C37_4 1_555 1_555
C38_4 C37_4 1_555 1_555
H45_4 C38_4 1_555 1_555
H46_4 C38_4 1_555 1_555
C39_4 C38_4 1_555 1_555
H47_4 C39_4 1_555 1_555
H48_4 C39_4 1_555 1_555
C40_4 C39_4 1_555 1_555
H49_4 C40_4 1_555 1_555
H50_4 C40_4 1_555 1_555
C41_4 C40_4 1_555 1_555
H52_4 C41_4 1_555 1_555
C42_4 C41_4 1_555 1_555
N6_4 C14_4 1_555 1_555
H55_4 N6_4 1_555 1_555
N7_4 C17_4 1_555 1_555
N8_4 C19_4 1_555 1_555
H56_4 N8_4 1_555 1_555
N9_4 Ag2_2 1_555 1_555
N10_4 C24_4 1_555 1_555
H57_4 N10_4 1_555 1_555
N11_4 C27_4 1_555 1_555
N12_4 C29_4 1_555 1_555
H58_4 N12_4 1_555 1_555
O1_4 Ag2_2 1_555 1_555
O2_4 C36_4 1_555 1_555
O4_4 C42_4 1_555 1_555
Ag4_2 N23_4 1_555 1_555
C58_4 H79_4 1_555 1_555
H80_4 C58_4 1_555 1_555
H81_4 C58_4 1_555 1_555
C59_4 C58_4 1_555 1_555
C60_4 C59_4 1_555 1_555
C61_4 C60_4 1_555 1_555
C62_4 C61_4 1_555 1_555
H82_4 C62_4 1_555 1_555
H83_4 C62_4 1_555 1_555
H84_4 C62_4 1_555 1_555
C63_4 H85_4 1_555 1_555
H86_4 C63_4 1_555 1_555
H87_4 C63_4 1_555 1_555
C64_4 C63_4 1_555 1_555
C65_4 C60_4 1_555 1_555
C66_4 C65_4 1_555 1_555
C67_4 C66_4 1_555 1_555
H88_4 C67_4 1_555 1_555
H89_4 C67_4 1_555 1_555
H90_4 C67_4 1_555 1_555
C68_4 H91_4 1_555 1_555
H92_4 C68_4 1_555 1_555
H93_4 C68_4 1_555 1_555
C69_4 C68_4 1_555 1_555
C70_4 C69_4 1_555 1_555
C71_4 C70_4 1_555 1_555
C72_4 C71_4 1_555 1_555
H96_4 C72_4 1_555 1_555
C73_4 H97_4 1_555 1_555
H98_4 C73_4 1_555 1_555
H99_4 C73_4 1_555 1_555
C74_4 C73_4 1_555 1_555
C75_4 C70_4 1_555 1_555
C78_4 C79_4 1_555 1_555
C79_4 H103_4 1_555 1_555
H104_4 C79_4 1_555 1_555
C80_4 C79_4 1_555 1_555
H105_4 C80_4 1_555 1_555
H106_4 C80_4 1_555 1_555
C81_4 C80_4 1_555 1_555
H107_4 C81_4 1_555 1_555
H108_4 C81_4 1_555 1_555
N22_4 C61_4 1_555 1_555
H115_4 N22_4 1_555 1_555
N23_4 C64_4 1_555 1_555
N24_4 C66_4 1_555 1_555
H116_4 N24_4 1_555 1_555
N25_4 Ag4_2 1_555 1_555
N26_4 C71_4 1_555 1_555
H117_4 N26_4 1_555 1_555
O5_4 Ag4_2 1_555 1_555
O6_4 C78_4 1_555 1_555
N29_2 Ag4_2 1_555 1_555
N30_2 Ag2_2 1_555 1_555
C12_4 N5_4 1_555 1_555
C17_4 C18_4 1_555 1_555
C22_4 N9_4 1_555 1_555
C27_4 C28_4 1_555 1_555
C36_4 O1_4 1_555 1_555
N5_4 N6_4 1_555 1_555
N7_4 N8_4 1_555 1_555
N9_4 N10_4 1_555 1_555
N11_4 N12_4 1_555 1_555
C59_4 N21_4 1_555 1_555
C64_4 C65_4 1_555 1_555
C69_4 N25_4 1_555 1_555
C74_4 C75_4 1_555 1_555
C78_4 O5_4 1_555 1_555
N21_4 N22_4 1_555 1_555
N23_4 N24_4 1_555 1_555
N25_4 N26_4 1_555 1_555
H4_4 C5_4 1_555 1_555
H5_4 C5_4 1_555 1_555
H6_4 C5_4 1_555 1_555
C6_4 H7_4 1_555 1_555
H8_4 C6_4 1_555 1_555
H9_4 C6_4 1_555 1_555
C7_4 C6_4 1_555 1_555
N29_2 C7_4 1_555 1_555
H54_4 N4_4 1_555 1_555
N29_2 N4_4 1_555 1_555
H70_4 C52_4 1_555 1_555
H71_4 C52_4 1_555 1_555
H72_4 C52_4 1_555 1_555
C53_4 H73_4 1_555 1_555
H74_4 C53_4 1_555 1_555
H75_4 C53_4 1_555 1_555
C54_4 C53_4 1_555 1_555
N30_2 C54_4 1_555 1_555
H114_4 N20_4 1_555 1_555
N30_2 N20_4 1_555 1_555
C77_4 C76_4 1_555 1_555
H100_4 C77_4 1_555 1_555
H101_4 C77_4 1_555 1_555
H102_4 C77_4 1_555 1_555
H109_4 C82_4 1_555 1_555
H110_4 C82_4 1_555 1_555
C83_4 C82_4 1_555 1_555
H112_4 C83_4 1_555 1_555
C84_4 C83_4 1_555 1_555
N28_3 C76_4 1_555 1_555
H118_3 N28_3 1_555 1_555
O8_4 C84_4 1_555 1_555
N27_3 N28_3 1_555 1_555
H118_4 N28_4 1_555 1_555
N27_4 N28_4 1_555 1_555

#END
