
###############################################################################
#
# This file contains modified crystal structure data generated from the
# MOF subset of the Cambridge Structural Database (CSD) v543 
# hosted by the Cambridge Crystallographic Data Centre (CCDC).
#
# This work is licensed under the Creative Commons
# Attribution-NonCommercial-ShareAlike 4.0 International License.
# To view a copy of this license, visit
# http://creativecommons.org/licenses/by-nc-sa/4.0/
# or send a letter to
# Creative Commons, PO Box 1866, Mountain View, CA 94042, USA.
#
# CIF created using the CSD Python API on 29 September 2022
# The structure has been converted into the P1 space group
# The structure has a 3D framework
# The original CSD entry JOSNAG01 is in the triclinic crystal system
# The framework has been calculated to contain at least 10.0% void space
# The void calculation uses a probe of radius 1.32A, grid spacing 0.4
#
###############################################################################

data_JOSNAG01
_chemical_formula_moiety         '(C18 H32 La2 O16)n'
_symmetry_cell_setting           triclinic
_symmetry_space_group_name_H-M   'P 1'
_symmetry_Int_Tables_number      1
_space_group_name_Hall           'P 1'
loop_
_symmetry_equiv_pos_site_id
_symmetry_equiv_pos_as_xyz
1 x,y,z
_cell_length_a                   9.2490(10)
_cell_length_b                   9.8070(10)
_cell_length_c                   10.7300(10)
_cell_angle_alpha                68.000(10)
_cell_angle_beta                 84.470(10)
_cell_angle_gamma                62.050(10)
_cell_volume                     793.4
loop_
_atom_site_label
_atom_site_type_symbol
_atom_site_fract_x
_atom_site_fract_y
_atom_site_fract_z
_atom_site_U_iso_or_equiv
_atom_site_thermal_displace_type
C12 C 0.0137(4) 0.0938(4) 0.7486(3) 0.0214 Uani
O9 O 0.1274(3) 0.1336(3) 0.7338(2) 0.0306 Uani
H20 H 0.1337 0.0178 0.5312 0.0380 Uiso
La5 La 0.224784(18) 0.043740(18) 0.984229(14) 0.0161 Uani
C8 C 0.0742(4) 0.8841(4) 0.3748(3) 0.0273 Uani
H9 H 0.1682 0.9039 0.3490 0.0380 Uiso
H10 H 0.1140 0.7708 0.4395 0.0380 Uiso
O6 O 0.0223(3) 0.9683(3) 0.1345(2) 0.0255 Uani
O8 O 0.0374(3) 0.6886(3) 0.0377(3) 0.0342 Uani
H15 H 0.1207 0.7005 0.0205 0.0500 Uiso
H16 H 0.0543 0.6042 0.0914 0.0500 Uiso
C10 C 0.0424(4) 0.9943(5) 0.5602(3) 0.0313 Uani
H19 H 0.0866 0.8817 0.6269 0.0380 Uiso
C9 C 0.9576(4) 0.0057(5) 0.4398(3) 0.0313 Uani
H11 H 0.9134 0.1183 0.3731 0.0380 Uiso
C11 C 0.9258(4) 0.1159(4) 0.6252(3) 0.0273 Uani
O10 O 0.9777(3) 0.0317(3) 0.8655(2) 0.0255 Uani
H17 H 0.8318 0.0961 0.6510 0.0380 Uiso
H18 H 0.8860 0.2292 0.5605 0.0380 Uiso
C13 C 0.4004(3) 0.0878(3) 0.1950(3) 0.0191 Uani
C14 C 0.4564(4) 0.0886(4) 0.3215(3) 0.0223 Uani
H21 H 0.3623 0.1259 0.3718 0.0380 Uiso
C15 C 0.5378(4) 0.2002(3) 0.2953(3) 0.0232 Uani
H23 H 0.6328 0.1621 0.2461 0.0380 Uiso
H24 H 0.5764 0.1891 0.3812 0.0380 Uiso
C16 C 0.4226(4) 0.3841(3) 0.2151(3) 0.0243 Uani
H25 H 0.3289 0.4247 0.2648 0.0380 Uiso
H26 H 0.3822 0.3967 0.1292 0.0380 Uiso
C17 C 0.5141(4) 0.4854(4) 0.1906(3) 0.0266 Uani
H27 H 0.6009 0.4503 0.1337 0.0380 Uiso
H28 H 0.5656 0.4603 0.2764 0.0380 Uiso
C18 C 0.4079(3) 0.6714(3) 0.1253(3) 0.0201 Uani
O11 O 0.2519(3) 0.1223(3) 0.1764(2) 0.0291 Uani
O12 O 0.5005(3) 0.0510(3) 0.1099(2) 0.0277 Uani
O13 O 0.4217(3) 0.7659(3) 0.1727(2) 0.0251 Uani
O14 O 0.3081(3) 0.7337(3) 0.0225(2) 0.0250 Uani
H2 H 0.4662 0.0244 0.6227 0.0380 Uiso
O15 O 0.2552(3) 0.3003(3) 0.8506(3) 0.0389 Uani
H29 H 0.1822 0.3860 0.8215 0.0500 Uiso
H30 H 0.3253 0.3272 0.8129 0.0500 Uiso
O17 O 0.5783(3) 0.2341(3) 0.8273(2) 0.0251 Uani
O18 O 0.6919(3) 0.2663(3) 0.9775(2) 0.0250 Uani
La6 La 0.775216(18) 0.956260(18) 0.015771(14) 0.0161 Uani
C7 C 0.9863(4) 0.9062(4) 0.2514(3) 0.0214 Uani
H12 H 0.8663 0.9822 0.4688 0.0380 Uiso
O5 O 0.8726(3) 0.8664(3) 0.2662(2) 0.0306 Uani
O7 O 0.7448(3) 0.6997(3) 0.1494(3) 0.0389 Uani
H13 H 0.8178 0.6140 0.1785 0.0500 Uiso
H14 H 0.6747 0.6728 0.1871 0.0500 Uiso
H22 H 0.5338 0.9756 0.3773 0.0380 Uiso
C1 C 0.5996(3) 0.9122(3) 0.8050(3) 0.0191 Uani
C2 C 0.5436(4) 0.9114(4) 0.6785(3) 0.0223 Uani
H1 H 0.6377 0.8741 0.6282 0.0380 Uiso
C3 C 0.4622(4) 0.7998(3) 0.7047(3) 0.0232 Uani
H3 H 0.3672 0.8379 0.7539 0.0380 Uiso
H4 H 0.4236 0.8109 0.6188 0.0380 Uiso
C4 C 0.5774(4) 0.6159(3) 0.7849(3) 0.0243 Uani
H5 H 0.6711 0.5753 0.7352 0.0380 Uiso
H6 H 0.6178 0.6033 0.8708 0.0380 Uiso
C5 C 0.4859(4) 0.5146(4) 0.8094(3) 0.0266 Uani
H7 H 0.3991 0.5497 0.8663 0.0380 Uiso
H8 H 0.4344 0.5397 0.7236 0.0380 Uiso
C6 C 0.5921(3) 0.3286(3) 0.8747(3) 0.0201 Uani
O1 O 0.7481(3) 0.8777(3) 0.8236(2) 0.0291 Uani
O2 O 0.4995(3) 0.9490(3) 0.8901(2) 0.0277 Uani
O16 O 0.9626(3) 0.3114(3) 0.9623(3) 0.0342 Uani
H31 H 0.8793 0.2995 0.9795 0.0500 Uiso
H32 H 0.9457 0.3958 0.9086 0.0500 Uiso
loop_
_atom_site_aniso_label
_atom_site_aniso_U_11
_atom_site_aniso_U_22
_atom_site_aniso_U_33
_atom_site_aniso_U_23
_atom_site_aniso_U_13
_atom_site_aniso_U_12
C12 0.0236 0.0256 0.0173 -0.01 0.0029 -0.0119
O9 0.0364 0.0452 0.0204 -0.0088 0.0043 -0.0299
La5 0.01646 0.01625 0.01647 -0.0061 0.00164 -0.00846
C8 0.0241 0.0396 0.0196 -0.0111 -0.0025 -0.0151
O6 0.0282 0.0339 0.019 -0.0098 0.006 -0.0188
O8 0.0202 0.0244 0.054 -0.0105 0.0007 -0.0101
C10 0.0312 0.0438 0.025 -0.0176 -0.0002 -0.0181
C9 0.0312 0.0438 0.025 -0.0176 -0.0002 -0.0181
C11 0.0241 0.0396 0.0196 -0.0111 -0.0025 -0.0151
O10 0.0282 0.0339 0.019 -0.0098 0.006 -0.0188
C13 0.0242 0.0165 0.0192 -0.0072 0.0019 -0.0111
C14 0.0301 0.021 0.0177 -0.0055 -0.0011 -0.0142
C15 0.0247 0.0173 0.0255 -0.006 -0.008 -0.0079
C16 0.0267 0.0155 0.0289 -0.006 -0.0012 -0.0095
C17 0.0227 0.018 0.036 -0.0073 -0.0053 -0.0078
C18 0.0169 0.0188 0.0247 -0.0068 0.0015 -0.0094
O11 0.0245 0.0392 0.0333 -0.0218 0.0029 -0.0162
O12 0.0277 0.0311 0.0274 -0.0168 0.0091 -0.013
O13 0.0271 0.0204 0.0294 -0.0093 -0.0011 -0.0118
O14 0.0247 0.0242 0.0279 -0.0096 -0.0034 -0.0118
O15 0.0204 0.0253 0.0603 -0.0006 -0.0021 -0.0131
O17 0.0271 0.0204 0.0294 -0.0093 -0.0011 -0.0118
O18 0.0247 0.0242 0.0279 -0.0096 -0.0034 -0.0118
La6 0.01646 0.01625 0.01647 -0.0061 0.00164 -0.00846
C7 0.0236 0.0256 0.0173 -0.01 0.0029 -0.0119
O5 0.0364 0.0452 0.0204 -0.0088 0.0043 -0.0299
O7 0.0204 0.0253 0.0603 -0.0006 -0.0021 -0.0131
C1 0.0242 0.0165 0.0192 -0.0072 0.0019 -0.0111
C2 0.0301 0.021 0.0177 -0.0055 -0.0011 -0.0142
C3 0.0247 0.0173 0.0255 -0.006 -0.008 -0.0079
C4 0.0267 0.0155 0.0289 -0.006 -0.0012 -0.0095
C5 0.0227 0.018 0.036 -0.0073 -0.0053 -0.0078
C6 0.0169 0.0188 0.0247 -0.0068 0.0015 -0.0094
O1 0.0245 0.0392 0.0333 -0.0218 0.0029 -0.0162
O2 0.0277 0.0311 0.0274 -0.0168 0.0091 -0.013
O16 0.0202 0.0244 0.054 -0.0105 0.0007 -0.0101
loop_
_geom_bond_atom_site_label_1
_geom_bond_atom_site_label_2
_geom_bond_site_symmetry_1
_geom_bond_site_symmetry_2
O9 C12 1_555 1_555
La5 O9 1_555 1_555
C8 H9 1_555 1_555
H10 C8 1_555 1_555
H15 O8 1_555 1_555
H16 O8 1_555 1_555
H19 C10 1_555 1_555
H11 C9 1_555 1_555
H17 C11 1_555 1_555
H18 C11 1_555 1_555
C13 C14 1_555 1_555
C14 H21 1_555 1_555
C15 C14 1_555 1_555
H23 C15 1_555 1_555
H24 C15 1_555 1_555
C16 C15 1_555 1_555
H25 C16 1_555 1_555
H26 C16 1_555 1_555
C17 C16 1_555 1_555
H27 C17 1_555 1_555
H28 C17 1_555 1_555
C18 C17 1_555 1_555
O11 C13 1_555 1_555
O13 C18 1_555 1_555
O14 C18 1_555 1_555
C13 O12 1_555 1_555
O15 La5 1_555 1_555
H29 O15 1_555 1_555
H30 O15 1_555 1_555
O5 La6 1_555 1_555
O7 La6 1_555 1_555
H13 O7 1_555 1_555
H14 O7 1_555 1_555
C7 O5 1_555 1_555
C1 C2 1_555 1_555
C2 H1 1_555 1_555
C3 C2 1_555 1_555
H3 C3 1_555 1_555
H4 C3 1_555 1_555
C4 C3 1_555 1_555
H5 C4 1_555 1_555
H6 C4 1_555 1_555
C5 C4 1_555 1_555
H7 C5 1_555 1_555
H8 C5 1_555 1_555
C6 C5 1_555 1_555
O1 C1 1_555 1_555
O2 C1 1_555 1_555
O17 C6 1_555 1_555
O18 C6 1_555 1_555
H31 O16 1_555 1_555
H32 O16 1_555 1_555

#END
