
###############################################################################
#
# This file contains modified crystal structure data generated from the
# MOF subset of the Cambridge Structural Database (CSD) v543 
# hosted by the Cambridge Crystallographic Data Centre (CCDC).
#
# This work is licensed under the Creative Commons
# Attribution-NonCommercial-ShareAlike 4.0 International License.
# To view a copy of this license, visit
# http://creativecommons.org/licenses/by-nc-sa/4.0/
# or send a letter to
# Creative Commons, PO Box 1866, Mountain View, CA 94042, USA.
#
# CIF created using the CSD Python API on 29 September 2022
# The structure has been converted into the P1 space group
# The structure has a 3D framework
# The original CSD entry JOTDII is in the monoclinic crystal system
# The framework has been calculated to contain at least 10.0% void space
# The void calculation uses a probe of radius 1.32A, grid spacing 0.4
# The framework is charged, counterions have been retained in the structure
# H atom positions have been added when not included in the experimental data
#
###############################################################################

data_JOTDII
_chemical_formula_moiety         '(C160 H176 Co3 N16 Na8 O58)n'
_symmetry_cell_setting           triclinic
_symmetry_space_group_name_H-M   'P 1'
_symmetry_Int_Tables_number      1
_space_group_name_Hall           'P 1'
loop_
_symmetry_equiv_pos_site_id
_symmetry_equiv_pos_as_xyz
1 x,y,z
_cell_length_a                   17.6254(16)
_cell_length_b                   19.9755(15)
_cell_length_c                   15.3066(11)
_cell_angle_alpha                90
_cell_angle_beta                 104.504(8)
_cell_angle_gamma                90
_cell_volume                     5217.34
loop_
_atom_site_label
_atom_site_type_symbol
_atom_site_fract_x
_atom_site_fract_y
_atom_site_fract_z
H2 H 0.0031 0.9258 0.5696
C1 C 0.9600(6) 0.8957(5) 0.5730(6)
H1 H 0.9189 0.9212 0.5910
H3 H 0.9796 0.8605 0.6176
N1 N 0.9276(5) 0.8652(4) 0.4844(6)
H4 H 0.9664 0.8432 0.4665
H5 H 0.9087 0.8978 0.4433
C2 C 0.8579(7) 0.8129(5) 0.4877(7)
H6 H 0.8762 0.7814 0.5375
H7 H 0.8428 0.7883 0.4306
H8 H 0.8125 0.8376 0.4971
N1_2 N 0.0724(5) 0.8652(4) 0.0156(6)
H4_2 H 0.0336 0.8432 0.0335
H5_2 H 0.0913 0.8978 0.0567
C2_2 C 0.1421(7) 0.8129(5) 0.0123(7)
H7_2 H 0.1572 0.7883 0.0694
H8_2 H 0.1875 0.8376 0.0029
C1_2 C 0.0400(6) 0.8957(5) 0.9270(6)
H1_2 H 0.0811 0.9212 0.9090
H3_2 H 0.0204 0.8605 0.8824
H6_2 H 0.1238 0.7814 0.9625
H2_2 H 0.9969 0.9258 0.9304
C1_3 C 0.4600(6) 0.3957(5) 0.5730(6)
H1_3 H 0.4189 0.4212 0.5910
H2_3 H 0.5031 0.4258 0.5696
H3_3 H 0.4796 0.3605 0.6176
N1_3 N 0.4276(5) 0.3652(4) 0.4844(6)
H4_3 H 0.4664 0.3432 0.4665
H5_3 H 0.4087 0.3978 0.4433
C2_3 C 0.3579(7) 0.3129(5) 0.4877(7)
H6_3 H 0.3762 0.2814 0.5375
H7_3 H 0.3428 0.2883 0.4306
H8_3 H 0.3125 0.3376 0.4971
N1_4 N 0.5724(5) 0.3652(4) 0.0156(6)
H4_4 H 0.5336 0.3432 0.0335
H5_4 H 0.5913 0.3978 0.0567
C2_4 C 0.6421(7) 0.3129(5) 0.0123(7)
H7_4 H 0.6572 0.2883 0.0694
H8_4 H 0.6875 0.3376 0.0029
C1_4 C 0.5400(6) 0.3957(5) 0.9270(6)
H1_4 H 0.5811 0.4212 0.9090
H2_4 H 0.4969 0.4258 0.9304
H3_4 H 0.5204 0.3605 0.8824
H6_4 H 0.6238 0.2814 0.9625
C1_5 C 0.0400(6) 0.1043(5) 0.4270(6)
H1_5 H 0.0811 0.0788 0.4090
H3_5 H 0.0204 0.1395 0.3824
N1_5 N 0.0724(5) 0.1348(4) 0.5156(6)
H4_5 H 0.0336 0.1568 0.5335
H5_5 H 0.0913 0.1022 0.5567
C2_5 C 0.1421(7) 0.1871(5) 0.5123(7)
H6_5 H 0.1238 0.2186 0.4625
H7_5 H 0.1572 0.2117 0.5694
H8_5 H 0.1875 0.1624 0.5029
H2_5 H 0.9969 0.0742 0.4304
H2_6 H 0.0031 0.0742 0.0696
C1_6 C 0.9600(6) 0.1043(5) 0.0730(6)
H1_6 H 0.9189 0.0788 0.0910
H3_6 H 0.9796 0.1395 0.1176
H6_6 H 0.8762 0.2186 0.0375
N1_6 N 0.9276(5) 0.1348(4) 0.9844(6)
H4_6 H 0.9664 0.1568 0.9665
H5_6 H 0.9087 0.1022 0.9433
C2_6 C 0.8579(7) 0.1871(5) 0.9877(7)
H7_6 H 0.8428 0.2117 0.9306
H8_6 H 0.8125 0.1624 0.9971
C1_7 C 0.5400(6) 0.6043(5) 0.4270(6)
H1_7 H 0.5811 0.5788 0.4090
H2_7 H 0.4969 0.5742 0.4304
H3_7 H 0.5204 0.6395 0.3824
N1_7 N 0.5724(5) 0.6348(4) 0.5156(6)
H4_7 H 0.5336 0.6568 0.5335
H5_7 H 0.5913 0.6022 0.5567
C2_7 C 0.6421(7) 0.6871(5) 0.5123(7)
H6_7 H 0.6238 0.7186 0.4625
H7_7 H 0.6572 0.7117 0.5694
H8_7 H 0.6875 0.6624 0.5029
C1_8 C 0.4600(6) 0.6043(5) 0.0730(6)
H1_8 H 0.4189 0.5788 0.0910
H2_8 H 0.5031 0.5742 0.0696
H3_8 H 0.4796 0.6395 0.1176
H6_8 H 0.3762 0.7186 0.0375
N1_8 N 0.4276(5) 0.6348(4) 0.9844(6)
H4_8 H 0.4664 0.6568 0.9665
H5_8 H 0.4087 0.6022 0.9433
C2_8 C 0.3579(7) 0.6871(5) 0.9877(7)
H7_8 H 0.3428 0.7117 0.9306
H8_8 H 0.3125 0.6624 0.9971
Co3 Co -0.0000 0.26316(5) 0.2500
O2 O 0.9188(2) 0.19674(18) 0.2561(3)
O3 O 0.8126(2) 0.2541(2) 0.1800(3)
O6 O 0.3254(2) 0.0088(2) 0.0510(3)
C5 C 0.8452(3) 0.2030(3) 0.2181(3)
C6 C 0.6722(3) 0.0847(3) 0.1690(4)
C8 C 0.5728(3) 0.1189(2) 0.0289(4)
H10 H 0.6124 0.1446 0.0126
C9 C 0.7198(3) 0.1406(2) 0.1702(3)
H11 H 0.6990 0.1786 0.1350
C10 C 0.3971(3) 0.0011(3) 0.1011(4)
C11 C 0.5907(3) 0.0831(2) 0.1102(4)
C12 C 0.7961(3) 0.1421(3) 0.2212(4)
C13 C 0.4566(3) 0.0448(3) 0.0761(4)
C14 C 0.5322(3) 0.0455(3) 0.1329(3)
H12 H 0.5437 0.0202 0.1871
C15 C 0.7790(4) 0.0329(3) 0.2798(5)
C16 C 0.8266(3) 0.0869(3) 0.2753(4)
H13 H 0.8799 0.0866 0.3086
C17 C 0.7025(3) 0.0309(3) 0.2259(4)
Na1 Na 0.84548(14) 0.36348(10) 0.18253(15)
Co3_2 Co 1.0000 0.26316(5) 0.2500
O17 O 0.9631(2) 0.31308(18) 0.1356(2)
O22 O 0.9162(2) 0.3546(2) 0.3285(3)
O23 O 0.9140(2) 0.4614(2) 0.1629(3)
O26 O 0.7383(3) 0.4373(2) 0.1306(3)
Co1 Co 0.5000 0.23684(5) 0.7500
O1 O 0.5369(2) 0.18692(18) 0.8644(2)
O4 O 0.4162(2) 0.1454(2) 0.8285(3)
C3 C 0.4977(3) 0.1173(3) 0.9718(3)
C4 C 0.4809(3) 0.1517(2) 0.8812(3)
C7 C 0.4393(3) 0.0801(3) 0.9947(3)
H9 H 0.3881 0.0787 0.9556
O9 O 0.4631(2) 0.18692(18) 0.6356(2)
O10 O 0.0812(2) 0.19674(18) 0.2439(3)
O11 O 0.1874(2) 0.2541(2) 0.3200(3)
O12 O 0.5838(2) 0.1454(2) 0.6715(3)
O14 O 0.6746(2) 0.0088(2) 0.4490(3)
C19 C 0.5023(3) 0.1173(3) 0.5282(3)
C20 C 0.5191(3) 0.1517(2) 0.6188(3)
C21 C 0.1548(3) 0.2030(3) 0.2819(3)
C22 C 0.3278(3) 0.0847(3) 0.3310(4)
C23 C 0.5607(3) 0.0801(3) 0.5053(3)
H15 H 0.6119 0.0787 0.5444
C24 C 0.4272(3) 0.1189(2) 0.4711(4)
H16 H 0.3876 0.1446 0.4874
C25 C 0.2802(3) 0.1406(2) 0.3298(3)
H17 H 0.3010 0.1786 0.3650
C26 C 0.6029(3) 0.0011(3) 0.3989(4)
C27 C 0.4093(3) 0.0831(2) 0.3898(4)
C28 C 0.2039(3) 0.1421(3) 0.2788(4)
C29 C 0.5434(3) 0.0448(3) 0.4239(4)
C30 C 0.4678(3) 0.0455(3) 0.3671(3)
H18 H 0.4563 0.0202 0.3129
C31 C 0.2210(4) 0.0329(3) 0.2202(5)
C32 C 0.1734(3) 0.0869(3) 0.2247(4)
H19 H 0.1201 0.0866 0.1914
C33 C 0.2975(3) 0.0309(3) 0.2741(4)
Na2 Na 0.15452(14) 0.36348(10) 0.31747(15)
O18 O 0.0369(2) 0.31308(18) 0.3644(2)
O19 O 0.5812(2) 0.30326(18) 0.7439(3)
O20 O 0.4188(2) 0.30326(18) 0.7561(3)
O21 O 0.0838(2) 0.3546(2) 0.1715(3)
O24 O 0.0860(2) 0.4614(2) 0.3371(3)
O25 O 0.2617(3) 0.4373(2) 0.3694(3)
Na7 Na 0.65452(14) 0.13652(10) 0.81747(15)
Na8 Na 0.34548(14) 0.13652(10) 0.68253(15)
O5 O 0.4140(2) 0.9614(2) 0.1629(3)
O7 O 0.8826(3) 0.9713(3) 0.3735(5)
O8 O 0.7617(3) 0.9373(2) 0.3694(3)
H14 H 0.6707 0.9928 0.2277
C18 C 0.8105(4) 0.9763(3) 0.3468(5)
Na4 Na 0.34548(14) 0.86348(10) 0.18253(15)
Na6 Na 0.65452(14) 0.86348(10) 0.31747(15)
O13 O 0.5860(2) 0.9614(2) 0.3371(3)
O15 O 0.1174(3) 0.9713(3) 0.1265(5)
O16 O 0.2383(3) 0.9373(2) 0.1306(3)
H20 H 0.3293 0.9928 0.2723
C34 C 0.1895(4) 0.9763(3) 0.1532(5)
O2_2 O 0.4188(2) 0.69674(18) 0.2561(3)
O3_2 O 0.3126(2) 0.7541(2) 0.1800(3)
O7_2 O 0.3826(3) 0.4713(3) 0.3735(5)
C5_2 C 0.3452(3) 0.7030(3) 0.2181(3)
C6_2 C 0.1722(3) 0.5847(3) 0.1690(4)
C8_2 C 0.0728(3) 0.6189(2) 0.0289(4)
H10_2 H 0.1124 0.6446 0.0126
C9_2 C 0.2198(3) 0.6406(2) 0.1702(3)
H11_2 H 0.1990 0.6786 0.1350
C11_2 C 0.0907(3) 0.5831(2) 0.1102(4)
C12_2 C 0.2961(3) 0.6421(3) 0.2212(4)
C14_2 C 0.0322(3) 0.5455(3) 0.1329(3)
H12_2 H 0.0437 0.5202 0.1871
C15_2 C 0.2790(4) 0.5329(3) 0.2798(5)
C16_2 C 0.3266(3) 0.5869(3) 0.2753(4)
H13_2 H 0.3799 0.5866 0.3086
C17_2 C 0.2025(3) 0.5309(3) 0.2259(4)
H14_2 H 0.1707 0.4928 0.2277
C18_2 C 0.3105(4) 0.4763(3) 0.3468(5)
Co3_3 Co 0.5000 0.76316(5) 0.2500
O17_2 O 0.4631(2) 0.81308(18) 0.1356(2)
O22_2 O 0.4162(2) 0.8546(2) 0.3285(3)
Co1_2 Co -0.0000 0.73684(5) 0.7500
O1_2 O 0.0369(2) 0.68692(18) 0.8644(2)
O12_2 O 0.0838(2) 0.6454(2) 0.6715(3)
O14_2 O 0.1746(2) 0.5088(2) 0.4490(3)
C19_2 C 0.0023(3) 0.6173(3) 0.5282(3)
C20_2 C 0.0191(3) 0.6517(2) 0.6188(3)
C23_2 C 0.0607(3) 0.5801(3) 0.5053(3)
H15_2 H 0.1119 0.5787 0.5444
C26_2 C 0.1029(3) 0.5011(3) 0.3989(4)
C29_2 C 0.0434(3) 0.5448(3) 0.4239(4)
O19_2 O 0.0812(2) 0.80326(18) 0.7439(3)
Na7_2 Na 0.15452(14) 0.63652(10) 0.81747(15)
O6_2 O 0.8254(2) 0.5088(2) 0.0510(3)
C10_2 C 0.8971(3) 0.5011(3) 0.1011(4)
C13_2 C 0.9566(3) 0.5448(3) 0.0761(4)
Co1_3 Co 1.0000 0.73684(5) 0.7500
O4_2 O 0.9162(2) 0.6454(2) 0.8285(3)
C3_2 C 0.9977(3) 0.6173(3) 0.9718(3)
C4_2 C 0.9809(3) 0.6517(2) 0.8812(3)
C7_2 C 0.9393(3) 0.5801(3) 0.9947(3)
H9_2 H 0.8881 0.5787 0.9556
O9_2 O 0.9631(2) 0.68692(18) 0.6356(2)
O10_2 O 0.5812(2) 0.69674(18) 0.2439(3)
O11_2 O 0.6874(2) 0.7541(2) 0.3200(3)
O15_2 O 0.6174(3) 0.4713(3) 0.1265(5)
C21_2 C 0.6548(3) 0.7030(3) 0.2819(3)
C22_2 C 0.8278(3) 0.5847(3) 0.3310(4)
C24_2 C 0.9272(3) 0.6189(2) 0.4711(4)
H16_2 H 0.8876 0.6446 0.4874
C25_2 C 0.7802(3) 0.6406(2) 0.3298(3)
H17_2 H 0.8010 0.6786 0.3650
C27_2 C 0.9093(3) 0.5831(2) 0.3898(4)
C28_2 C 0.7039(3) 0.6421(3) 0.2788(4)
C30_2 C 0.9678(3) 0.5455(3) 0.3671(3)
H18_2 H 0.9563 0.5202 0.3129
C31_2 C 0.7210(4) 0.5329(3) 0.2202(5)
C32_2 C 0.6734(3) 0.5869(3) 0.2247(4)
H19_2 H 0.6201 0.5866 0.1914
C33_2 C 0.7975(3) 0.5309(3) 0.2741(4)
H20_2 H 0.8293 0.4928 0.2723
C34_2 C 0.6895(4) 0.4763(3) 0.1532(5)
O18_2 O 0.5369(2) 0.81308(18) 0.3644(2)
O20_2 O 0.9188(2) 0.80326(18) 0.7561(3)
O21_2 O 0.5838(2) 0.8546(2) 0.1715(3)
Na8_2 Na 0.84548(14) 0.63652(10) 0.68253(15)
O13_2 O 0.4140(2) 0.0386(2) 0.6629(3)
O15_3 O 0.8826(3) 0.0287(3) 0.8735(5)
O16_2 O 0.7617(3) 0.0627(2) 0.8694(3)
H20_3 H 0.6707 0.0072 0.7277
C34_3 C 0.8105(4) 0.0237(3) 0.8468(5)
O5_2 O 0.5860(2) 0.0386(2) 0.8371(3)
O7_3 O 0.1174(3) 0.0287(3) 0.6265(5)
O8_2 O 0.2383(3) 0.0627(2) 0.6306(3)
H14_3 H 0.3293 0.0072 0.7723
C18_3 C 0.1895(4) 0.0237(3) 0.6532(5)
C3_3 C 0.5023(3) 0.8827(3) 0.0282(3)
C4_3 C 0.5191(3) 0.8483(2) 0.1188(3)
C7_3 C 0.5607(3) 0.9199(3) 0.0053(3)
H9_3 H 0.6119 0.9213 0.0444
O11_3 O 0.8126(2) 0.7459(2) 0.6800(3)
O14_3 O 0.3254(2) 0.9912(2) 0.5510(3)
C19_3 C 0.4977(3) 0.8827(3) 0.4718(3)
C20_3 C 0.4809(3) 0.8483(2) 0.3812(3)
C21_3 C 0.8452(3) 0.7970(3) 0.7181(3)
C22_3 C 0.6722(3) 0.9153(3) 0.6690(4)
C23_3 C 0.4393(3) 0.9199(3) 0.4947(3)
H15_3 H 0.3881 0.9213 0.4556
C24_3 C 0.5728(3) 0.8811(2) 0.5289(4)
H16_3 H 0.6124 0.8554 0.5126
C25_3 C 0.7198(3) 0.8594(2) 0.6702(3)
H17_3 H 0.6990 0.8214 0.6350
C26_3 C 0.3971(3) 0.9989(3) 0.6011(4)
C27_3 C 0.5907(3) 0.9169(2) 0.6102(4)
C28_3 C 0.7961(3) 0.8579(3) 0.7212(4)
C29_3 C 0.4566(3) 0.9552(3) 0.5761(4)
C30_3 C 0.5322(3) 0.9545(3) 0.6329(3)
H18_3 H 0.5437 0.9798 0.6871
C31_3 C 0.7790(4) 0.9671(3) 0.7798(5)
C32_3 C 0.8266(3) 0.9131(3) 0.7753(4)
H19_3 H 0.8799 0.9134 0.8086
C33_3 C 0.7025(3) 0.9691(3) 0.7259(4)
O24_2 O 0.9140(2) 0.5386(2) 0.6629(3)
O25_2 O 0.7383(3) 0.5627(2) 0.6306(3)
O3_3 O 0.1874(2) 0.7459(2) 0.8200(3)
O6_3 O 0.6746(2) 0.9912(2) 0.9490(3)
C5_3 C 0.1548(3) 0.7970(3) 0.7819(3)
C6_3 C 0.3278(3) 0.9153(3) 0.8310(4)
C8_3 C 0.4272(3) 0.8811(2) 0.9711(4)
H10_3 H 0.3876 0.8554 0.9874
C9_3 C 0.2802(3) 0.8594(2) 0.8298(3)
H11_3 H 0.3010 0.8214 0.8650
C10_3 C 0.6029(3) 0.9989(3) 0.8989(4)
C11_3 C 0.4093(3) 0.9169(2) 0.8898(4)
C12_3 C 0.2039(3) 0.8579(3) 0.7788(4)
C13_3 C 0.5434(3) 0.9552(3) 0.9239(4)
C14_3 C 0.4678(3) 0.9545(3) 0.8671(3)
H12_3 H 0.4563 0.9798 0.8129
C15_3 C 0.2210(4) 0.9671(3) 0.7202(5)
C16_3 C 0.1734(3) 0.9131(3) 0.7247(4)
H13_3 H 0.1201 0.9134 0.6914
C17_3 C 0.2975(3) 0.9691(3) 0.7741(4)
O23_2 O 0.0860(2) 0.5386(2) 0.8371(3)
O26_2 O 0.2617(3) 0.5627(2) 0.8694(3)
C3_4 C 0.0023(3) 0.3827(3) 0.0282(3)
C4_4 C 0.0191(3) 0.3483(2) 0.1188(3)
C7_4 C 0.0607(3) 0.4199(3) 0.0053(3)
H9_4 H 0.1119 0.4213 0.0444
O11_4 O 0.3126(2) 0.2459(2) 0.6800(3)
O15_4 O 0.3826(3) 0.5287(3) 0.8735(5)
C21_4 C 0.3452(3) 0.2970(3) 0.7181(3)
C22_4 C 0.1722(3) 0.4153(3) 0.6690(4)
C24_4 C 0.0728(3) 0.3811(2) 0.5289(4)
H16_4 H 0.1124 0.3554 0.5126
C25_4 C 0.2198(3) 0.3594(2) 0.6702(3)
H17_4 H 0.1990 0.3214 0.6350
C27_4 C 0.0907(3) 0.4169(2) 0.6102(4)
C28_4 C 0.2961(3) 0.3579(3) 0.7212(4)
C30_4 C 0.0322(3) 0.4545(3) 0.6329(3)
H18_4 H 0.0437 0.4798 0.6871
C31_4 C 0.2790(4) 0.4671(3) 0.7798(5)
C32_4 C 0.3266(3) 0.4131(3) 0.7753(4)
H19_4 H 0.3799 0.4134 0.8086
C33_4 C 0.2025(3) 0.4691(3) 0.7259(4)
H20_4 H 0.1707 0.5072 0.7277
C34_4 C 0.3105(4) 0.5237(3) 0.8468(5)
O6_4 O 0.1746(2) 0.4912(2) 0.9490(3)
C10_4 C 0.1029(3) 0.4989(3) 0.8989(4)
C13_4 C 0.0434(3) 0.4552(3) 0.9239(4)
O14_4 O 0.8254(2) 0.4912(2) 0.5510(3)
C19_4 C 0.9977(3) 0.3827(3) 0.4718(3)
C20_4 C 0.9809(3) 0.3483(2) 0.3812(3)
C23_4 C 0.9393(3) 0.4199(3) 0.4947(3)
H15_4 H 0.8881 0.4213 0.4556
C26_4 C 0.8971(3) 0.4989(3) 0.6011(4)
C29_4 C 0.9566(3) 0.4552(3) 0.5761(4)
O3_4 O 0.6874(2) 0.2459(2) 0.8200(3)
O7_4 O 0.6174(3) 0.5287(3) 0.6265(5)
C5_4 C 0.6548(3) 0.2970(3) 0.7819(3)
C6_4 C 0.8278(3) 0.4153(3) 0.8310(4)
C8_4 C 0.9272(3) 0.3811(2) 0.9711(4)
H10_4 H 0.8876 0.3554 0.9874
C9_4 C 0.7802(3) 0.3594(2) 0.8298(3)
H11_4 H 0.8010 0.3214 0.8650
C11_4 C 0.9093(3) 0.4169(2) 0.8898(4)
C12_4 C 0.7039(3) 0.3579(3) 0.7788(4)
C14_4 C 0.9678(3) 0.4545(3) 0.8671(3)
H12_4 H 0.9563 0.4798 0.8129
C15_4 C 0.7210(4) 0.4671(3) 0.7202(5)
C16_4 C 0.6734(3) 0.4131(3) 0.7247(4)
H13_4 H 0.6201 0.4134 0.6914
C17_4 C 0.7975(3) 0.4691(3) 0.7741(4)
H14_4 H 0.8293 0.5072 0.7723
C18_4 C 0.6895(4) 0.5237(3) 0.6532(5)
N2 N 0.9468(18) 0.7636(17) 0.086(3)
C35 C 0.9006(17) 0.7151(12) 0.1238(19)
C36 C 0.895(3) 0.8214(15) 0.057(3)
H21 H 0.962955 0.74334 0.0325742
H22 H 0.995338 0.777626 0.133677
H23 H 0.848492 0.70096 0.0720739
H24 H 0.935937 0.670761 0.146707
H25 H 0.883236 0.737745 0.180548
H26 H 0.877734 0.842225 0.114891
H27 H 0.925899 0.859356 0.0282071
H28 H 0.84299 0.80544 0.00641716
N2_2 N 0.0532(18) 0.7636(17) 0.414(3)
C35_2 C 0.0994(17) 0.7151(12) 0.3762(19)
C36_2 C 0.105(3) 0.8214(15) 0.443(3)
H21_2 H 0.0370454 0.74334 0.467426
H22_2 H 0.00466209 0.777626 0.366323
H23_2 H 0.151508 0.70096 0.427926
H24_2 H 0.0640631 0.670761 0.353293
H25_2 H 0.116764 0.737745 0.319452
H26_2 H 0.122266 0.842225 0.385109
H27_2 H 0.074101 0.859356 0.471793
H28_2 H 0.15701 0.80544 0.493583
N2_3 N 0.4468(18) 0.2636(17) 0.086(3)
C35_3 C 0.4006(17) 0.2151(12) 0.1238(19)
C36_3 C 0.395(3) 0.3214(15) 0.057(3)
H21_3 H 0.462955 0.24334 0.0325742
H22_3 H 0.495338 0.277626 0.133677
H23_3 H 0.348492 0.20096 0.0720739
H24_3 H 0.435937 0.170761 0.146707
H25_3 H 0.383236 0.237745 0.180548
H26_3 H 0.377734 0.342225 0.114891
H27_3 H 0.425899 0.359356 0.0282071
H28_3 H 0.34299 0.30544 0.00641716
N2_4 N 0.5532(18) 0.2636(17) 0.414(3)
C35_4 C 0.5994(17) 0.2151(12) 0.3762(19)
C36_4 C 0.605(3) 0.3214(15) 0.443(3)
H21_4 H 0.537045 0.24334 0.467426
H22_4 H 0.504662 0.277626 0.366323
H23_4 H 0.651508 0.20096 0.427926
H24_4 H 0.564063 0.170761 0.353293
H25_4 H 0.616764 0.237745 0.319452
H26_4 H 0.622266 0.342225 0.385109
H27_4 H 0.574101 0.359356 0.471793
H28_4 H 0.65701 0.30544 0.493583
N2_5 N 0.0532(18) 0.2364(17) 0.914(3)
C35_5 C 0.0994(17) 0.2849(12) 0.8762(19)
C36_5 C 0.105(3) 0.1786(15) 0.943(3)
H21_5 H 0.0370454 0.25666 0.967426
H22_5 H 0.00466209 0.222374 0.866323
H23_5 H 0.151508 0.29904 0.927926
H24_5 H 0.0640631 0.329239 0.853293
H25_5 H 0.116764 0.262255 0.819452
H26_5 H 0.122266 0.157775 0.885109
H27_5 H 0.074101 0.140644 0.971793
H28_5 H 0.15701 0.19456 0.993583
N2_6 N 0.9468(18) 0.2364(17) 0.586(3)
C35_6 C 0.9006(17) 0.2849(12) 0.6238(19)
C36_6 C 0.895(3) 0.1786(15) 0.557(3)
H21_6 H 0.962955 0.25666 0.532574
H22_6 H 0.995338 0.222374 0.633677
H23_6 H 0.848492 0.29904 0.572074
H24_6 H 0.935937 0.329239 0.646707
H25_6 H 0.883236 0.262255 0.680548
H26_6 H 0.877734 0.157775 0.614891
H27_6 H 0.925899 0.140644 0.528207
H28_6 H 0.84299 0.19456 0.506417
N2_7 N 0.5532(18) 0.7364(17) 0.914(3)
C35_7 C 0.5994(17) 0.7849(12) 0.8762(19)
C36_7 C 0.605(3) 0.6786(15) 0.943(3)
H21_7 H 0.537045 0.75666 0.967426
H22_7 H 0.504662 0.722374 0.866323
H23_7 H 0.651508 0.79904 0.927926
H24_7 H 0.564063 0.829239 0.853293
H25_7 H 0.616764 0.762255 0.819452
H26_7 H 0.622266 0.657775 0.885109
H27_7 H 0.574101 0.640644 0.971793
H28_7 H 0.65701 0.69456 0.993583
N2_8 N 0.4468(18) 0.7364(17) 0.586(3)
C35_8 C 0.4006(17) 0.7849(12) 0.6238(19)
C36_8 C 0.395(3) 0.6786(15) 0.557(3)
H21_8 H 0.462955 0.75666 0.532574
H22_8 H 0.495338 0.722374 0.633677
H23_8 H 0.348492 0.79904 0.572074
H24_8 H 0.435937 0.829239 0.646707
H25_8 H 0.383236 0.762255 0.680548
H26_8 H 0.377734 0.657775 0.614891
H27_8 H 0.425899 0.640644 0.528207
H28_8 H 0.34299 0.69456 0.506417
loop_
_geom_bond_atom_site_label_1
_geom_bond_atom_site_label_2
_geom_bond_site_symmetry_1
_geom_bond_site_symmetry_2
C1 H1 1_555 1_555
H3 C1 1_555 1_555
N1 C1 1_555 1_555
H4 N1 1_555 1_555
H5 N1 1_555 1_555
C2 N1 1_555 1_555
H6 C2 1_555 1_555
H7 C2 1_555 1_555
H8 C2 1_555 1_555
H4_2 N1_2 1_555 1_555
H5_2 N1_2 1_555 1_555
C2_2 N1_2 1_555 1_555
H7_2 C2_2 1_555 1_555
H8_2 C2_2 1_555 1_555
C1_2 H1_2 1_555 1_555
H3_2 C1_2 1_555 1_555
C1_3 H1_3 1_555 1_555
H2_3 C1_3 1_555 1_555
H3_3 C1_3 1_555 1_555
N1_3 C1_3 1_555 1_555
H4_3 N1_3 1_555 1_555
H5_3 N1_3 1_555 1_555
C2_3 N1_3 1_555 1_555
H6_3 C2_3 1_555 1_555
H7_3 C2_3 1_555 1_555
H8_3 C2_3 1_555 1_555
H4_4 N1_4 1_555 1_555
H5_4 N1_4 1_555 1_555
C2_4 N1_4 1_555 1_555
H7_4 C2_4 1_555 1_555
H8_4 C2_4 1_555 1_555
C1_4 H1_4 1_555 1_555
H2_4 C1_4 1_555 1_555
H3_4 C1_4 1_555 1_555
C1_5 H1_5 1_555 1_555
H3_5 C1_5 1_555 1_555
N1_5 C1_5 1_555 1_555
H4_5 N1_5 1_555 1_555
H5_5 N1_5 1_555 1_555
C2_5 N1_5 1_555 1_555
H6_5 C2_5 1_555 1_555
H7_5 C2_5 1_555 1_555
H8_5 C2_5 1_555 1_555
C1_6 H1_6 1_555 1_555
H3_6 C1_6 1_555 1_555
H4_6 N1_6 1_555 1_555
H5_6 N1_6 1_555 1_555
C2_6 N1_6 1_555 1_555
H7_6 C2_6 1_555 1_555
H8_6 C2_6 1_555 1_555
C1_7 H1_7 1_555 1_555
H2_7 C1_7 1_555 1_555
H3_7 C1_7 1_555 1_555
N1_7 C1_7 1_555 1_555
H4_7 N1_7 1_555 1_555
H5_7 N1_7 1_555 1_555
C2_7 N1_7 1_555 1_555
H6_7 C2_7 1_555 1_555
H7_7 C2_7 1_555 1_555
H8_7 C2_7 1_555 1_555
C1_8 H1_8 1_555 1_555
H2_8 C1_8 1_555 1_555
H3_8 C1_8 1_555 1_555
H4_8 N1_8 1_555 1_555
H5_8 N1_8 1_555 1_555
C2_8 N1_8 1_555 1_555
H7_8 C2_8 1_555 1_555
H8_8 C2_8 1_555 1_555
O2 C5 1_555 1_555
O3 C5 1_555 1_555
O6 C10 1_555 1_555
C5 C12 1_555 1_555
C6 C9 1_555 1_555
H10 C8 1_555 1_555
C9 H11 1_555 1_555
C10 C13 1_555 1_555
C11 C6 1_555 1_555
C12 C9 1_555 1_555
C14 C11 1_555 1_555
H12 C14 1_555 1_555
C15 C16 1_555 1_555
C16 C12 1_555 1_555
H13 C16 1_555 1_555
C17 C6 1_555 1_555
Na1 O3 1_555 1_555
Co3_2 O2 1_555 1_555
O17 Na1 1_555 1_555
O22 Na1 1_555 1_555
O23 Na1 1_555 1_555
O26 Na1 1_555 1_555
C8 C11 1_555 1_555
C13 C14 1_555 1_555
C15 C17 1_555 1_555
Co3_2 O17 1_555 1_555
Co1 O1 1_555 1_555
O1 C4 1_555 1_555
O4 C4 1_555 1_555
C3 C4 1_555 1_555
C7 C3 1_555 1_555
H9 C7 1_555 1_555
O9 Co1 1_555 1_555
O10 C21 1_555 1_555
O11 C21 1_555 1_555
O12 C20 1_555 1_555
O14 C26 1_555 1_555
C19 C20 1_555 1_555
C20 O9 1_555 1_555
C21 C28 1_555 1_555
C22 C25 1_555 1_555
C23 C19 1_555 1_555
H15 C23 1_555 1_555
C24 C19 1_555 1_555
H16 C24 1_555 1_555
C25 H17 1_555 1_555
C26 C29 1_555 1_555
C27 C22 1_555 1_555
C28 C25 1_555 1_555
C29 C23 1_555 1_555
C30 C27 1_555 1_555
H18 C30 1_555 1_555
C31 C32 1_555 1_555
C32 C28 1_555 1_555
H19 C32 1_555 1_555
C33 C22 1_555 1_555
Na2 O11 1_555 1_555
Co3 O10 1_555 1_555
O18 Na2 1_555 1_555
O19 Co1 1_555 1_555
O20 Co1 1_555 1_555
O21 Na2 1_555 1_555
O24 Na2 1_555 1_555
O25 Na2 1_555 1_555
Na7 O1 1_555 1_555
Na8 O4 1_555 1_555
O9 Na8 1_555 1_555
O12 Na7 1_555 1_555
C24 C27 1_555 1_555
C29 C30 1_555 1_555
C31 C33 1_555 1_555
Co3 O18 1_555 1_555
O7 C18 1_555 1_555
O8 C18 1_555 1_555
Na4 O5 1_555 1_555
Na6 O8 1_555 1_555
O15 C34 1_555 1_555
O16 C34 1_555 1_555
Na4 O16 1_555 1_555
Na6 O13 1_555 1_555
O2_2 C5_2 1_555 1_555
O3_2 C5_2 1_555 1_555
O7_2 C18_2 1_555 1_555
O25 C18_2 1_555 1_555
C5_2 C12_2 1_555 1_555
C6_2 C9_2 1_555 1_555
H10_2 C8_2 1_555 1_555
C9_2 H11_2 1_555 1_555
C11_2 C6_2 1_555 1_555
C12_2 C9_2 1_555 1_555
C14_2 C11_2 1_555 1_555
H12_2 C14_2 1_555 1_555
C15_2 C16_2 1_555 1_555
C16_2 C12_2 1_555 1_555
H13_2 C16_2 1_555 1_555
C17_2 C6_2 1_555 1_555
H14_2 C17_2 1_555 1_555
C18_2 C15_2 1_555 1_555
Na4 O3_2 1_555 1_555
Co3_3 O2_2 1_555 1_555
O17_2 Na4 1_555 1_555
O22_2 Na4 1_555 1_555
C8_2 C11_2 1_555 1_555
C15_2 C17_2 1_555 1_555
Co3_3 O17_2 1_555 1_555
Co1_2 O1_2 1_555 1_555
O12_2 C20_2 1_555 1_555
O24 C26_2 1_555 1_555
O14_2 C26_2 1_555 1_555
C19_2 C20_2 1_555 1_555
C23_2 C19_2 1_555 1_555
H15_2 C23_2 1_555 1_555
C26_2 C29_2 1_555 1_555
C29_2 C23_2 1_555 1_555
O19_2 Co1_2 1_555 1_555
Na7_2 O1_2 1_555 1_555
O12_2 Na7_2 1_555 1_555
O23 C10_2 1_555 1_555
O6_2 C10_2 1_555 1_555
C10_2 C13_2 1_555 1_555
O4_2 C4_2 1_555 1_555
C3_2 C4_2 1_555 1_555
C7_2 C3_2 1_555 1_555
H9_2 C7_2 1_555 1_555
O9_2 Co1_3 1_555 1_555
O10_2 C21_2 1_555 1_555
O11_2 C21_2 1_555 1_555
O15_2 C34_2 1_555 1_555
O26 C34_2 1_555 1_555
C21_2 C28_2 1_555 1_555
C22_2 C25_2 1_555 1_555
H16_2 C24_2 1_555 1_555
C25_2 H17_2 1_555 1_555
C27_2 C22_2 1_555 1_555
C28_2 C25_2 1_555 1_555
C30_2 C27_2 1_555 1_555
H18_2 C30_2 1_555 1_555
C31_2 C32_2 1_555 1_555
C32_2 C28_2 1_555 1_555
H19_2 C32_2 1_555 1_555
C33_2 C22_2 1_555 1_555
H20_2 C33_2 1_555 1_555
C34_2 C31_2 1_555 1_555
Na6 O11_2 1_555 1_555
Co3_3 O10_2 1_555 1_555
O18_2 Na6 1_555 1_555
O20_2 Co1_3 1_555 1_555
O21_2 Na6 1_555 1_555
Na8_2 O4_2 1_555 1_555
O9_2 Na8_2 1_555 1_555
C24_2 C27_2 1_555 1_555
C31_2 C33_2 1_555 1_555
Co3_3 O18_2 1_555 1_555
O15_3 C34_3 1_555 1_555
O16_2 C34_3 1_555 1_555
Na7 O16_2 1_555 1_555
Na8 O13_2 1_555 1_555
O7_3 C18_3 1_555 1_555
O8_2 C18_3 1_555 1_555
Na7 O5_2 1_555 1_555
Na8 O8_2 1_555 1_555
O17_2 C4_3 1_555 1_555
O21_2 C4_3 1_555 1_555
C3_3 C4_3 1_555 1_555
C7_3 C3_3 1_555 1_555
H9_3 C7_3 1_555 1_555
O20_2 C21_3 1_555 1_555
O11_3 C21_3 1_555 1_555
O22_2 C20_3 1_555 1_555
O14_3 C26_3 1_555 1_555
C19_3 C20_3 1_555 1_555
C20_3 O18_2 1_555 1_555
C21_3 C28_3 1_555 1_555
C22_3 C25_3 1_555 1_555
C23_3 C19_3 1_555 1_555
H15_3 C23_3 1_555 1_555
C24_3 C19_3 1_555 1_555
H16_3 C24_3 1_555 1_555
C25_3 H17_3 1_555 1_555
C26_3 C29_3 1_555 1_555
C27_3 C22_3 1_555 1_555
C28_3 C25_3 1_555 1_555
C29_3 C23_3 1_555 1_555
C30_3 C27_3 1_555 1_555
H18_3 C30_3 1_555 1_555
C31_3 C32_3 1_555 1_555
C32_3 C28_3 1_555 1_555
H19_3 C32_3 1_555 1_555
C33_3 C22_3 1_555 1_555
Na8_2 O11_3 1_555 1_555
O24_2 Na8_2 1_555 1_555
O25_2 Na8_2 1_555 1_555
C24_3 C27_3 1_555 1_555
C29_3 C30_3 1_555 1_555
C31_3 C33_3 1_555 1_555
O19_2 C5_3 1_555 1_555
O3_3 C5_3 1_555 1_555
O6_3 C10_3 1_555 1_555
C5_3 C12_3 1_555 1_555
C6_3 C9_3 1_555 1_555
H10_3 C8_3 1_555 1_555
C9_3 H11_3 1_555 1_555
C10_3 C13_3 1_555 1_555
C11_3 C6_3 1_555 1_555
C12_3 C9_3 1_555 1_555
C14_3 C11_3 1_555 1_555
H12_3 C14_3 1_555 1_555
C15_3 C16_3 1_555 1_555
C16_3 C12_3 1_555 1_555
H13_3 C16_3 1_555 1_555
C17_3 C6_3 1_555 1_555
Na7_2 O3_3 1_555 1_555
O23_2 Na7_2 1_555 1_555
O26_2 Na7_2 1_555 1_555
C8_3 C11_3 1_555 1_555
C13_3 C14_3 1_555 1_555
C15_3 C17_3 1_555 1_555
O21 C4_4 1_555 1_555
C3_4 C4_4 1_555 1_555
C7_4 C3_4 1_555 1_555
H9_4 C7_4 1_555 1_555
O20 C21_4 1_555 1_555
O11_4 C21_4 1_555 1_555
O15_4 C34_4 1_555 1_555
O26_2 C34_4 1_555 1_555
C21_4 C28_4 1_555 1_555
C22_4 C25_4 1_555 1_555
H16_4 C24_4 1_555 1_555
C25_4 H17_4 1_555 1_555
C27_4 C22_4 1_555 1_555
C28_4 C25_4 1_555 1_555
C30_4 C27_4 1_555 1_555
H18_4 C30_4 1_555 1_555
C31_4 C32_4 1_555 1_555
C32_4 C28_4 1_555 1_555
H19_4 C32_4 1_555 1_555
C33_4 C22_4 1_555 1_555
H20_4 C33_4 1_555 1_555
C34_4 C31_4 1_555 1_555
Na8 O11_4 1_555 1_555
C24_4 C27_4 1_555 1_555
C31_4 C33_4 1_555 1_555
O23_2 C10_4 1_555 1_555
O6_4 C10_4 1_555 1_555
C10_4 C13_4 1_555 1_555
O22 C20_4 1_555 1_555
O24_2 C26_4 1_555 1_555
O14_4 C26_4 1_555 1_555
C19_4 C20_4 1_555 1_555
C23_4 C19_4 1_555 1_555
H15_4 C23_4 1_555 1_555
C26_4 C29_4 1_555 1_555
C29_4 C23_4 1_555 1_555
O19 C5_4 1_555 1_555
O3_4 C5_4 1_555 1_555
O7_4 C18_4 1_555 1_555
O25_2 C18_4 1_555 1_555
C5_4 C12_4 1_555 1_555
C6_4 C9_4 1_555 1_555
H10_4 C8_4 1_555 1_555
C9_4 H11_4 1_555 1_555
C11_4 C6_4 1_555 1_555
C12_4 C9_4 1_555 1_555
C14_4 C11_4 1_555 1_555
H12_4 C14_4 1_555 1_555
C15_4 C16_4 1_555 1_555
C16_4 C12_4 1_555 1_555
H13_4 C16_4 1_555 1_555
C17_4 C6_4 1_555 1_555
H14_4 C17_4 1_555 1_555
C18_4 C15_4 1_555 1_555
Na7 O3_4 1_555 1_555
C8_4 C11_4 1_555 1_555
C15_4 C17_4 1_555 1_555
N2 C35 1_555 1_555
C36 N2 1_555 1_555
N2 H21 1_555 1_555
N2 H22 1_555 1_555
C35 H23 1_555 1_555
C35 H24 1_555 1_555
C35 H25 1_555 1_555
C36 H26 1_555 1_555
C36 H27 1_555 1_555
C36 H28 1_555 1_555
N2_2 C35_2 1_555 1_555
C36_2 N2_2 1_555 1_555
N2_2 H21_2 1_555 1_555
N2_2 H22_2 1_555 1_555
C35_2 H23_2 1_555 1_555
C35_2 H24_2 1_555 1_555
C35_2 H25_2 1_555 1_555
C36_2 H26_2 1_555 1_555
C36_2 H27_2 1_555 1_555
C36_2 H28_2 1_555 1_555
N2_3 C35_3 1_555 1_555
C36_3 N2_3 1_555 1_555
N2_3 H21_3 1_555 1_555
N2_3 H22_3 1_555 1_555
C35_3 H23_3 1_555 1_555
C35_3 H24_3 1_555 1_555
C35_3 H25_3 1_555 1_555
C36_3 H26_3 1_555 1_555
C36_3 H27_3 1_555 1_555
C36_3 H28_3 1_555 1_555
N2_4 C35_4 1_555 1_555
C36_4 N2_4 1_555 1_555
N2_4 H21_4 1_555 1_555
N2_4 H22_4 1_555 1_555
C35_4 H23_4 1_555 1_555
C35_4 H24_4 1_555 1_555
C35_4 H25_4 1_555 1_555
C36_4 H26_4 1_555 1_555
C36_4 H27_4 1_555 1_555
C36_4 H28_4 1_555 1_555
N2_5 C35_5 1_555 1_555
C36_5 N2_5 1_555 1_555
N2_5 H21_5 1_555 1_555
N2_5 H22_5 1_555 1_555
C35_5 H23_5 1_555 1_555
C35_5 H24_5 1_555 1_555
C35_5 H25_5 1_555 1_555
C36_5 H26_5 1_555 1_555
C36_5 H27_5 1_555 1_555
C36_5 H28_5 1_555 1_555
N2_6 C35_6 1_555 1_555
C36_6 N2_6 1_555 1_555
N2_6 H21_6 1_555 1_555
N2_6 H22_6 1_555 1_555
C35_6 H23_6 1_555 1_555
C35_6 H24_6 1_555 1_555
C35_6 H25_6 1_555 1_555
C36_6 H26_6 1_555 1_555
C36_6 H27_6 1_555 1_555
C36_6 H28_6 1_555 1_555
N2_7 C35_7 1_555 1_555
C36_7 N2_7 1_555 1_555
N2_7 H21_7 1_555 1_555
N2_7 H22_7 1_555 1_555
C35_7 H23_7 1_555 1_555
C35_7 H24_7 1_555 1_555
C35_7 H25_7 1_555 1_555
C36_7 H26_7 1_555 1_555
C36_7 H27_7 1_555 1_555
C36_7 H28_7 1_555 1_555
N2_8 C35_8 1_555 1_555
C36_8 N2_8 1_555 1_555
N2_8 H21_8 1_555 1_555
N2_8 H22_8 1_555 1_555
C35_8 H23_8 1_555 1_555
C35_8 H24_8 1_555 1_555
C35_8 H25_8 1_555 1_555
C36_8 H26_8 1_555 1_555
C36_8 H27_8 1_555 1_555
C36_8 H28_8 1_555 1_555

#END
