
###############################################################################
#
# This file contains modified crystal structure data generated from the
# MOF subset of the Cambridge Structural Database (CSD) v543 
# hosted by the Cambridge Crystallographic Data Centre (CCDC).
#
# This work is licensed under the Creative Commons
# Attribution-NonCommercial-ShareAlike 4.0 International License.
# To view a copy of this license, visit
# http://creativecommons.org/licenses/by-nc-sa/4.0/
# or send a letter to
# Creative Commons, PO Box 1866, Mountain View, CA 94042, USA.
#
# CIF created using the CSD Python API on 29 September 2022
# The structure has been converted into the P1 space group
# The structure has a 3D framework
# The original CSD entry JOTDEE is in the monoclinic crystal system
# The framework has been calculated to contain at least 10.0% void space
# The void calculation uses a probe of radius 1.32A, grid spacing 0.4
# The framework is charged, counterions have been retained in the structure
# H atom positions have been added when not included in the experimental data
#
###############################################################################

data_JOTDEE
_chemical_formula_moiety         '(C80 H88 Co2 N8 O32 1+)n'
_symmetry_cell_setting           triclinic
_symmetry_space_group_name_H-M   'P 1'
_symmetry_Int_Tables_number      1
_space_group_name_Hall           'P 1'
loop_
_symmetry_equiv_pos_site_id
_symmetry_equiv_pos_as_xyz
1 x,y,z
_cell_length_a                   19.601(4)
_cell_length_b                   9.3797(19)
_cell_length_c                   18.630(4)
_cell_angle_alpha                90
_cell_angle_beta                 95.69(3)
_cell_angle_gamma                90
_cell_volume                     3408.28
loop_
_atom_site_label
_atom_site_type_symbol
_atom_site_fract_x
_atom_site_fract_y
_atom_site_fract_z
C1 C 0.6421(13) 0.683(4) 0.572(2)
N1 N 0.5777(17) 0.754(4) 0.5378(18)
C2 C 0.5233(14) 0.696(5) 0.582(2)
H13 H 0.636545 0.567711 0.567695
H14 H 0.68571 0.716998 0.54431
H15 H 0.650456 0.713123 0.628642
H16 H 0.535504 0.725701 0.638319
H17 H 0.473613 0.740226 0.562151
H18 H 0.521593 0.58029 0.577372
H19 H 0.568112 0.726194 0.485113
H20 H 0.581078 0.861725 0.541918
H19_2 H 0.431888 0.726194 0.0148872
C1_2 C 0.3579(13) 0.683(4) 0.928(2)
N1_2 N 0.4223(17) 0.754(4) 0.9622(18)
C2_2 C 0.4767(14) 0.696(5) 0.918(2)
H13_2 H 0.363455 0.567711 0.932305
H14_2 H 0.31429 0.716998 0.95569
H15_2 H 0.349544 0.713123 0.871358
H16_2 H 0.464496 0.725701 0.861681
H17_2 H 0.526387 0.740226 0.937849
H18_2 H 0.478407 0.58029 0.922628
H20_2 H 0.418922 0.861725 0.958082
C1_3 C 0.3579(13) 0.317(4) 0.428(2)
N1_3 N 0.4223(17) 0.246(4) 0.4622(18)
C2_3 C 0.4767(14) 0.304(5) 0.418(2)
H13_3 H 0.363455 0.432289 0.432305
H14_3 H 0.31429 0.283002 0.45569
H15_3 H 0.349544 0.286877 0.371358
H16_3 H 0.464496 0.274299 0.361681
H17_3 H 0.526387 0.259774 0.437849
H18_3 H 0.478407 0.41971 0.422628
H19_3 H 0.431888 0.273806 0.514887
H20_3 H 0.418922 0.138275 0.458082
C1_4 C 0.6421(13) 0.317(4) 0.072(2)
N1_4 N 0.5777(17) 0.246(4) 0.0378(18)
C2_4 C 0.5233(14) 0.304(5) 0.082(2)
H13_4 H 0.636545 0.432289 0.0676951
H14_4 H 0.68571 0.283002 0.0443099
H15_4 H 0.650456 0.286877 0.128642
H16_4 H 0.535504 0.274299 0.138319
H17_4 H 0.473613 0.259774 0.0621514
H18_4 H 0.521593 0.41971 0.0773716
H20_4 H 0.581078 0.138275 0.0419183
H19_4 H 0.568112 0.273806 0.985113
O1 O 0.1815(4) 0.7980(8) 0.5013(4)
C3 C 0.2042(6) 0.6688(12) 0.5014(7)
O3 O 0.3202(4) 0.0672(8) 0.0822(4)
O4 O 0.2365(4) 0.0427(10) 0.1500(5)
O5 O 0.1112(4) 0.0773(9) 0.5402(6)
O6 O 0.2098(4) 0.1345(8) 0.4983(5)
C4 C 0.1545(5) 0.5535(12) 0.4982(7)
C5 C 0.1763(6) 0.4155(12) 0.5046(7)
H1 H 0.2236 0.3924 0.5059
C6 C 0.0863(5) 0.5876(12) 0.4976(6)
H2 H 0.0731 0.6850 0.4946
C9 C 0.1284(6) 0.3121(11) 0.5091(7)
C12 C 0.0359(5) 0.4837(12) 0.5011(7)
C13 C 0.0599(5) 0.3428(10) 0.5088(7)
H5 H 0.0283 0.2676 0.5139
C14 C 0.3470(7) 0.0110(14) 0.2061(8)
C15 C 0.4162(6) 0.0073(11) 0.1974(7)
H6 H 0.4312 0.0289 0.1517
C16 C 0.1501(6) 0.1609(13) 0.5164(8)
C18 C 0.2959(5) 0.0447(12) 0.1422(7)
O8 O 0.2655(4) 0.6449(10) 0.4988(6)
O14 O 0.6798(4) 0.0672(8) 0.4178(4)
O15 O 0.7635(4) 0.0427(10) 0.3500(5)
C31 C 0.6530(7) 0.0110(14) 0.2939(8)
C32 C 0.5838(6) 0.0073(11) 0.3026(7)
H12 H 0.5688 0.0289 0.3483
C34 C 0.7041(5) 0.0447(12) 0.3578(7)
Co3 Co 0.24933(7) 0.94614(15) 0.50094(9)
Co6 Co 0.75067(7) 0.05386(15) 0.49906(9)
Co7 Co 0.24933(7) 0.05386(15) 0.00094(9)
O21 O 0.7902(4) 0.1345(8) 0.0017(5)
O2 O 0.2883(4) 0.9532(9) 0.4102(5)
C7 C 0.3233(6) 0.9838(12) 0.2697(6)
H3 H 0.2756 0.9863 0.2747
C8 C 0.4616(5) 0.9742(14) 0.2519(7)
C10 C 0.3695(5) 0.9523(13) 0.3270(7)
C11 C 0.4410(6) 0.9423(15) 0.3214(8)
H4 H 0.4727 0.9161 0.3610
C17 C 0.3471(6) 0.9189(14) 0.4004(8)
O7 O 0.3858(4) 0.8534(10) 0.4430(5)
O13 O 0.7117(4) 0.9532(9) 0.0898(5)
C27 C 0.6767(6) 0.9838(12) 0.2303(6)
H10 H 0.7244 0.9863 0.2253
C28 C 0.5384(5) 0.9742(14) 0.2481(7)
C29 C 0.6305(5) 0.9523(13) 0.1730(7)
C30 C 0.5590(6) 0.9423(15) 0.1786(8)
H11 H 0.5273 0.9161 0.1390
C33 C 0.6529(6) 0.9189(14) 0.0996(8)
O16 O 0.6142(4) 0.8534(10) 0.0570(5)
O20 O 0.3202(4) 0.9328(8) 0.5822(4)
Co2 Co 0.75067(7) 0.94614(15) 0.99906(9)
O18 O 0.8185(4) 0.7980(8) 0.9987(4)
O19 O 0.6798(4) 0.9328(8) 0.9178(4)
O9 O 0.8185(4) 0.2020(8) 0.4987(4)
C19 C 0.7958(6) 0.3312(12) 0.4986(7)
O10 O 0.8888(4) 0.9227(9) 0.4598(6)
O11 O 0.7902(4) 0.8655(8) 0.5017(5)
C20 C 0.8455(5) 0.4465(12) 0.5018(7)
C21 C 0.8237(6) 0.5845(12) 0.4954(7)
H7 H 0.7764 0.6076 0.4941
C22 C 0.9137(5) 0.4124(12) 0.5024(6)
H8 H 0.9269 0.3150 0.5054
C23 C 0.8716(6) 0.6879(11) 0.4909(7)
C24 C 0.9641(5) 0.5163(12) 0.4989(7)
C25 C 0.9401(5) 0.6572(10) 0.4912(7)
H9 H 0.9717 0.7324 0.4861
C26 C 0.8499(6) 0.8391(13) 0.4836(8)
O12 O 0.7345(4) 0.3551(10) 0.5012(6)
O9_2 O 0.1815(4) 0.2020(8) 0.0013(4)
C19_2 C 0.2042(6) 0.3312(12) 0.0014(7)
O10_2 O 0.1112(4) 0.9227(9) 0.0402(6)
C21_2 C 0.1763(6) 0.5845(12) 0.0046(7)
H7_2 H 0.2236 0.6076 0.0059
C23_2 C 0.1284(6) 0.6879(11) 0.0091(7)
C24_2 C 0.0359(5) 0.5163(12) 0.0011(7)
C25_2 C 0.0599(5) 0.6572(10) 0.0088(7)
H9_2 H 0.0283 0.7324 0.0139
C26_2 C 0.1501(6) 0.8391(13) 0.0164(8)
O11_2 O 0.2098(4) 0.8655(8) 0.9983(5)
C20_2 C 0.1545(5) 0.4465(12) 0.9982(7)
C22_2 C 0.0863(5) 0.4124(12) 0.9976(6)
H8_2 H 0.0731 0.3150 0.9946
O12_2 O 0.2655(4) 0.3551(10) 0.9988(6)
C4_2 C 0.8455(5) 0.5535(12) 0.0018(7)
C6_2 C 0.9137(5) 0.5876(12) 0.0024(6)
H2_2 H 0.9269 0.6850 0.0054
O8_2 O 0.7345(4) 0.6449(10) 0.0012(6)
C3_2 C 0.7958(6) 0.6688(12) 0.9986(7)
O5_2 O 0.8888(4) 0.0773(9) 0.9598(6)
C5_2 C 0.8237(6) 0.4155(12) 0.9954(7)
H1_2 H 0.7764 0.3924 0.9941
C9_2 C 0.8716(6) 0.3121(11) 0.9909(7)
C12_2 C 0.9641(5) 0.4837(12) 0.9989(7)
C13_2 C 0.9401(5) 0.3428(10) 0.9912(7)
H5_2 H 0.9717 0.2676 0.9861
C16_2 C 0.8499(6) 0.1609(13) 0.9836(8)
O2_2 O 0.7117(4) 0.0468(9) 0.5898(5)
C7_2 C 0.6767(6) 0.0162(12) 0.7303(6)
H3_2 H 0.7244 0.0137 0.7253
C8_2 C 0.5384(5) 0.0258(14) 0.7481(7)
C10_2 C 0.6305(5) 0.0477(13) 0.6730(7)
C11_2 C 0.5590(6) 0.0577(15) 0.6786(8)
H4_2 H 0.5273 0.0839 0.6390
C17_2 C 0.6529(6) 0.0811(14) 0.5996(8)
O7_2 O 0.6142(4) 0.1466(10) 0.5570(5)
O13_2 O 0.2883(4) 0.0468(9) 0.9102(5)
C27_2 C 0.3233(6) 0.0162(12) 0.7697(6)
H10_2 H 0.2756 0.0137 0.7747
C28_2 C 0.4616(5) 0.0258(14) 0.7519(7)
C29_2 C 0.3695(5) 0.0477(13) 0.8270(7)
C30_2 C 0.4410(6) 0.0577(15) 0.8214(8)
H11_2 H 0.4727 0.0839 0.8610
C33_2 C 0.3471(6) 0.0811(14) 0.9004(8)
O16_2 O 0.3858(4) 0.1466(10) 0.9430(5)
O4_2 O 0.7635(4) 0.9573(10) 0.8500(5)
C14_2 C 0.6530(7) 0.9890(14) 0.7939(8)
C15_2 C 0.5838(6) 0.9927(11) 0.8026(7)
H6_2 H 0.5688 0.9711 0.8483
C18_2 C 0.7041(5) 0.9553(12) 0.8578(7)
O15_2 O 0.2365(4) 0.9573(10) 0.6500(5)
C31_2 C 0.3470(7) 0.9890(14) 0.7061(8)
C32_2 C 0.4162(6) 0.9927(11) 0.6974(7)
H12_2 H 0.4312 0.9711 0.6517
C34_2 C 0.2959(5) 0.9553(12) 0.6422(7)
C35 C 0.1606(10) 0.6487(19) 0.6727(9)
N2 N 0.2028(13) 0.518(3) 0.693(2)
C36 C 0.148(2) 0.410(2) 0.706(2)
H21 H 0.235063 0.53474 0.738274
H22 H 0.230209 0.486935 0.652268
H23 H 0.113679 0.396318 0.656831
H24 H 0.172 0.308357 0.721416
H25 H 0.118887 0.447608 0.749108
H26 H 0.131042 0.677717 0.717007
H27 H 0.194409 0.736466 0.661684
H28 H 0.125834 0.626427 0.62473
C35_2 C 0.8394(10) 0.6487(19) 0.8273(9)
N2_2 N 0.7972(13) 0.518(3) 0.807(2)
C36_2 C 0.852(2) 0.410(2) 0.794(2)
H21_2 H 0.764937 0.53474 0.761726
H22_2 H 0.769791 0.486935 0.847732
H23_2 H 0.886321 0.396318 0.843169
H24_2 H 0.828 0.308357 0.778584
H25_2 H 0.881113 0.447608 0.750892
H26_2 H 0.868958 0.677717 0.782993
H27_2 H 0.805591 0.736466 0.838316
H28_2 H 0.874166 0.626427 0.87527
C35_3 C 0.8394(10) 0.3513(19) 0.3273(9)
N2_3 N 0.7972(13) 0.482(3) 0.307(2)
C36_3 C 0.852(2) 0.590(2) 0.294(2)
H21_3 H 0.764937 0.46526 0.261726
H22_3 H 0.769791 0.513065 0.347732
H23_3 H 0.886321 0.603682 0.343169
H24_3 H 0.828 0.691643 0.278584
H25_3 H 0.881113 0.552392 0.250892
H26_3 H 0.868958 0.322283 0.282993
H27_3 H 0.805591 0.263534 0.338316
H28_3 H 0.874166 0.373573 0.37527
C35_4 C 0.1606(10) 0.3513(19) 0.1727(9)
N2_4 N 0.2028(13) 0.482(3) 0.193(2)
C36_4 C 0.148(2) 0.590(2) 0.206(2)
H21_4 H 0.235063 0.46526 0.238274
H22_4 H 0.230209 0.513065 0.152268
H23_4 H 0.113679 0.603682 0.156831
H24_4 H 0.172 0.691643 0.221416
H25_4 H 0.118887 0.552392 0.249108
H26_4 H 0.131042 0.322283 0.217007
H27_4 H 0.194409 0.263534 0.161684
H28_4 H 0.125834 0.373573 0.12473
loop_
_geom_bond_atom_site_label_1
_geom_bond_atom_site_label_2
_geom_bond_site_symmetry_1
_geom_bond_site_symmetry_2
C1 N1 1_555 1_555
N1 C2 1_555 1_555
C1 H13 1_555 1_555
C1 H14 1_555 1_555
C1 H15 1_555 1_555
C2 H16 1_555 1_555
C2 H17 1_555 1_555
C2 H18 1_555 1_555
N1 H19 1_555 1_555
N1 H20 1_555 1_555
C1_2 N1_2 1_555 1_555
N1_2 C2_2 1_555 1_555
C1_2 H13_2 1_555 1_555
C1_2 H14_2 1_555 1_555
C1_2 H15_2 1_555 1_555
C2_2 H16_2 1_555 1_555
C2_2 H17_2 1_555 1_555
C2_2 H18_2 1_555 1_555
N1_2 H20_2 1_555 1_555
C1_3 N1_3 1_555 1_555
N1_3 C2_3 1_555 1_555
C1_3 H13_3 1_555 1_555
C1_3 H14_3 1_555 1_555
C1_3 H15_3 1_555 1_555
C2_3 H16_3 1_555 1_555
C2_3 H17_3 1_555 1_555
C2_3 H18_3 1_555 1_555
N1_3 H19_3 1_555 1_555
N1_3 H20_3 1_555 1_555
C1_4 N1_4 1_555 1_555
N1_4 C2_4 1_555 1_555
C1_4 H13_4 1_555 1_555
C1_4 H14_4 1_555 1_555
C1_4 H15_4 1_555 1_555
C2_4 H16_4 1_555 1_555
C2_4 H17_4 1_555 1_555
C2_4 H18_4 1_555 1_555
N1_4 H20_4 1_555 1_555
O1 C3 1_555 1_555
C3 C4 1_555 1_555
O3 C18 1_555 1_555
O4 C18 1_555 1_555
O5 C16 1_555 1_555
C4 C5 1_555 1_555
C5 H1 1_555 1_555
C6 C4 1_555 1_555
H2 C6 1_555 1_555
C9 C5 1_555 1_555
C12 C6 1_555 1_555
C13 C9 1_555 1_555
H5 C13 1_555 1_555
H6 C15 1_555 1_555
C16 O6 1_555 1_555
C18 C14 1_555 1_555
O8 C3 1_555 1_555
O14 C34 1_555 1_555
O15 C34 1_555 1_555
H12 C32 1_555 1_555
C34 C31 1_555 1_555
Co3 O1 1_555 1_555
Co6 O14 1_555 1_555
Co7 O3 1_555 1_555
C9 C16 1_555 1_555
C12 C13 1_555 1_555
C14 C15 1_555 1_555
C31 C32 1_555 1_555
Co3 O2 1_555 1_555
O2 C17 1_555 1_555
C7 H3 1_555 1_555
C8 C11 1_555 1_555
C10 C7 1_555 1_555
C11 C10 1_555 1_555
H4 C11 1_555 1_555
C17 C10 1_555 1_555
O7 C17 1_555 1_555
O13 C33 1_555 1_555
C27 H10 1_555 1_555
C28 C8 1_555 1_555
C29 C27 1_555 1_555
C30 C28 1_555 1_555
H11 C30 1_555 1_555
C33 C29 1_555 1_555
O16 C33 1_555 1_555
O20 Co3 1_555 1_555
C29 C30 1_555 1_555
O18 Co2 1_555 1_555
O19 Co2 1_555 1_555
O9 C19 1_555 1_555
C19 C20 1_555 1_555
O10 C26 1_555 1_555
O11 C26 1_555 1_555
C20 C21 1_555 1_555
C21 H7 1_555 1_555
C22 C20 1_555 1_555
H8 C22 1_555 1_555
C23 C21 1_555 1_555
C25 C23 1_555 1_555
H9 C25 1_555 1_555
C26 C23 1_555 1_555
O12 C19 1_555 1_555
Co6 O9 1_555 1_555
C22 C24 1_555 1_555
C24 C25 1_555 1_555
O9_2 C19_2 1_555 1_555
O10_2 C26_2 1_555 1_555
C21_2 H7_2 1_555 1_555
C23_2 C21_2 1_555 1_555
C25_2 C23_2 1_555 1_555
H9_2 C25_2 1_555 1_555
C26_2 C23_2 1_555 1_555
Co7 O9_2 1_555 1_555
C24_2 C25_2 1_555 1_555
C22_2 C20_2 1_555 1_555
H8_2 C22_2 1_555 1_555
C6_2 C4_2 1_555 1_555
H2_2 C6_2 1_555 1_555
O18 C3_2 1_555 1_555
O5_2 C16_2 1_555 1_555
C5_2 H1_2 1_555 1_555
C9_2 C5_2 1_555 1_555
C13_2 C9_2 1_555 1_555
H5_2 C13_2 1_555 1_555
C9_2 C16_2 1_555 1_555
C12_2 C13_2 1_555 1_555
Co6 O2_2 1_555 1_555
O2_2 C17_2 1_555 1_555
C7_2 H3_2 1_555 1_555
C8_2 C11_2 1_555 1_555
C10_2 C7_2 1_555 1_555
C11_2 C10_2 1_555 1_555
H4_2 C11_2 1_555 1_555
C17_2 C10_2 1_555 1_555
O7_2 C17_2 1_555 1_555
O13_2 C33_2 1_555 1_555
C27_2 H10_2 1_555 1_555
C28_2 C8_2 1_555 1_555
C29_2 C27_2 1_555 1_555
C30_2 C28_2 1_555 1_555
H11_2 C30_2 1_555 1_555
C33_2 C29_2 1_555 1_555
O16_2 C33_2 1_555 1_555
C29_2 C30_2 1_555 1_555
O19 C18_2 1_555 1_555
O4_2 C18_2 1_555 1_555
H6_2 C15_2 1_555 1_555
C18_2 C14_2 1_555 1_555
O20 C34_2 1_555 1_555
O15_2 C34_2 1_555 1_555
H12_2 C32_2 1_555 1_555
C34_2 C31_2 1_555 1_555
C14_2 C15_2 1_555 1_555
C31_2 C32_2 1_555 1_555
C35 N2 1_555 1_555
N2 C36 1_555 1_555
N2 H21 1_555 1_555
N2 H22 1_555 1_555
C36 H23 1_555 1_555
C36 H24 1_555 1_555
C36 H25 1_555 1_555
C35 H26 1_555 1_555
C35 H27 1_555 1_555
C35 H28 1_555 1_555
C35_2 N2_2 1_555 1_555
N2_2 C36_2 1_555 1_555
N2_2 H21_2 1_555 1_555
N2_2 H22_2 1_555 1_555
C36_2 H23_2 1_555 1_555
C36_2 H24_2 1_555 1_555
C36_2 H25_2 1_555 1_555
C35_2 H26_2 1_555 1_555
C35_2 H27_2 1_555 1_555
C35_2 H28_2 1_555 1_555
C35_3 N2_3 1_555 1_555
N2_3 C36_3 1_555 1_555
N2_3 H21_3 1_555 1_555
N2_3 H22_3 1_555 1_555
C36_3 H23_3 1_555 1_555
C36_3 H24_3 1_555 1_555
C36_3 H25_3 1_555 1_555
C35_3 H26_3 1_555 1_555
C35_3 H27_3 1_555 1_555
C35_3 H28_3 1_555 1_555
C35_4 N2_4 1_555 1_555
N2_4 C36_4 1_555 1_555
N2_4 H21_4 1_555 1_555
N2_4 H22_4 1_555 1_555
C36_4 H23_4 1_555 1_555
C36_4 H24_4 1_555 1_555
C36_4 H25_4 1_555 1_555
C35_4 H26_4 1_555 1_555
C35_4 H27_4 1_555 1_555
C35_4 H28_4 1_555 1_555

#END
