
###############################################################################
#
# This file contains modified crystal structure data generated from the
# MOF subset of the Cambridge Structural Database (CSD) v543 
# hosted by the Cambridge Crystallographic Data Centre (CCDC).
#
# This work is licensed under the Creative Commons
# Attribution-NonCommercial-ShareAlike 4.0 International License.
# To view a copy of this license, visit
# http://creativecommons.org/licenses/by-nc-sa/4.0/
# or send a letter to
# Creative Commons, PO Box 1866, Mountain View, CA 94042, USA.
#
# CIF created using the CSD Python API on 29 September 2022
# The structure has been converted into the P1 space group
# The structure has a 3D framework
# The original CSD entry JOVXUP is in the orthorhombic crystal system
# The framework has been calculated to contain at least 10.0% void space
# The void calculation uses a probe of radius 1.32A, grid spacing 0.4
#
###############################################################################

data_JOVXUP
_chemical_formula_moiety         '(C112 H56 N8 O28 Zn6)n'
_symmetry_cell_setting           triclinic
_symmetry_space_group_name_H-M   'P 1'
_symmetry_Int_Tables_number      1
_space_group_name_Hall           'P 1'
loop_
_symmetry_equiv_pos_site_id
_symmetry_equiv_pos_as_xyz
1 x,y,z
_cell_length_a                   15.1201(18)
_cell_length_b                   18.105(2)
_cell_length_c                   11.4444(14)
_cell_angle_alpha                90
_cell_angle_beta                 90
_cell_angle_gamma                90
_cell_volume                     3132.9
loop_
_atom_site_label
_atom_site_type_symbol
_atom_site_fract_x
_atom_site_fract_y
_atom_site_fract_z
Zn4 Zn 0.55230(3) 0.09850(2) -0.0000
C1 C 0.2653(3) 0.0867(2) 0.0000
C2 C 0.2514(3) 0.16261(19) 0.0000
H1 H 0.3002 0.1939 0.0000
C3 C 0.1657(3) 0.1939(2) 0.0000
C4 C 0.0933(3) 0.1436(2) 0.0000
H2 H 0.0358 0.1618 0.0000
C5 C 0.1073(3) 0.0664(2) 0.0000
C6 C 0.1925(3) 0.03894(19) 0.0000
C7 C 0.1507(3) 0.2718(2) 0.0000
C8 C 0.3591(2) 0.05569(19) 0.0000
C9 C 0.0319(3) 0.0198(2) 0.0000
C10 C 0.6181(2) 0.0659(2) 0.2499(3)
H4 H 0.6645 0.0441 0.2093
C11 C 0.6211(2) 0.0667(2) 0.3724(3)
H5 H 0.6695 0.0459 0.4103
C12 C 0.5567(2) 0.09666(17) 0.4355(3)
C13 C 0.4884(2) 0.12608(19) 0.3695(3)
H6 H 0.4394 0.1463 0.4067
C14 C 0.4922(2) 0.12565(19) 0.2527(3)
H7 H 0.4473 0.1499 0.2125
N1 N 0.55347(17) 0.09419(15) 0.1912(2)
O1 O 0.2113(2) 0.31652(15) 0.0000
O2 O 0.07222(19) 0.29469(16) 0.0000
O4 O 0.41848(18) 0.10000(16) 0.0000
C24 C 0.6181(2) 0.0659(2) 0.7501(3)
H11 H 0.6645 0.0441 0.7907
C25 C 0.6211(2) 0.0667(2) 0.6276(3)
H12 H 0.6695 0.0459 0.5897
C26 C 0.5567(2) 0.09666(17) 0.5645(3)
C27 C 0.4884(2) 0.12608(19) 0.6305(3)
H13 H 0.4394 0.1463 0.5933
C28 C 0.4922(2) 0.12565(19) 0.7473(3)
H14 H 0.4473 0.1499 0.7875
N2 N 0.55347(17) 0.09419(15) 0.8088(2)
O9 O 0.57222(19) 0.20531(16) 0.0000
O12 O 0.63536(16) 0.01295(13) 0.0000
Zn4_2 Zn 0.55230(3) 0.09850(2) 1.0000
Zn7 Zn 0.05230(3) 0.40150(2) 0.0000
C1_2 C 0.2653(3) 0.0867(2) 1.0000
C2_2 C 0.2514(3) 0.16261(19) 1.0000
H1_2 H 0.3002 0.1939 1.0000
C3_2 C 0.1657(3) 0.1939(2) 1.0000
C4_2 C 0.0933(3) 0.1436(2) 1.0000
H2_2 H 0.0358 0.1618 1.0000
C5_2 C 0.1073(3) 0.0664(2) 1.0000
C6_2 C 0.1925(3) 0.03894(19) 1.0000
C7_2 C 0.1507(3) 0.2718(2) 1.0000
C8_2 C 0.3591(2) 0.05569(19) 1.0000
C9_2 C 0.0319(3) 0.0198(2) 1.0000
O1_2 O 0.2113(2) 0.31652(15) 1.0000
O2_2 O 0.07222(19) 0.29469(16) 1.0000
O4_2 O 0.41848(18) 0.10000(16) 1.0000
O9_2 O 0.57222(19) 0.20531(16) 1.0000
O12_2 O 0.63536(16) 0.01295(13) 1.0000
Zn7_2 Zn 0.05230(3) 0.40150(2) 1.0000
H3 H 0.2017 0.9881 0.0000
O3 O 0.36464(16) 0.98705(13) 0.0000
Zn6 Zn 0.44770(3) 0.90150(2) 0.0000
H3_2 H 0.2017 0.9881 1.0000
O3_2 O 0.36464(16) 0.98705(13) 1.0000
Zn6_2 Zn 0.44770(3) 0.90150(2) 1.0000
H10 H 0.7983 0.0119 0.0000
H10_2 H 0.7983 0.0119 1.0000
C15 C 0.7347(3) 0.9133(2) 0.0000
C16 C 0.7486(3) 0.83739(19) 0.0000
H8 H 0.6998 0.8061 0.0000
C17 C 0.8343(3) 0.8061(2) 0.0000
C18 C 0.9067(3) 0.8564(2) 0.0000
H9 H 0.9642 0.8382 0.0000
C19 C 0.8927(3) 0.9336(2) 0.0000
C20 C 0.8075(3) 0.96106(19) 0.0000
C21 C 0.8493(3) 0.7282(2) 0.0000
C22 C 0.6409(2) 0.94431(19) 0.0000
C23 C 0.9681(3) 0.9802(2) 0.0000
O5 O 0.7887(2) 0.68348(15) 0.0000
O6 O 0.92778(19) 0.70531(16) 0.0000
O8 O 0.58152(18) 0.90000(16) 0.0000
C29 C 0.3819(2) 0.9341(2) 0.2499(3)
H15 H 0.3355 0.9559 0.2093
C30 C 0.3789(2) 0.9333(2) 0.3724(3)
H16 H 0.3305 0.9541 0.4103
C31 C 0.4433(2) 0.90334(17) 0.4355(3)
C32 C 0.5116(2) 0.87392(19) 0.3695(3)
H17 H 0.5606 0.8537 0.4067
C33 C 0.5078(2) 0.87435(19) 0.2527(3)
H18 H 0.5527 0.8501 0.2125
N3 N 0.44653(17) 0.90581(15) 0.1912(2)
C34 C 0.3819(2) 0.9341(2) 0.7501(3)
H19 H 0.3355 0.9559 0.7907
C35 C 0.3789(2) 0.9333(2) 0.6276(3)
H20 H 0.3305 0.9541 0.5897
C36 C 0.4433(2) 0.90334(17) 0.5645(3)
C37 C 0.5116(2) 0.87392(19) 0.6305(3)
H21 H 0.5606 0.8537 0.5933
C38 C 0.5078(2) 0.87435(19) 0.7473(3)
H22 H 0.5527 0.8501 0.7875
N4 N 0.44653(17) 0.90581(15) 0.8088(2)
O10 O 0.42778(19) 0.79469(16) 0.0000
Zn8 Zn 0.94770(3) 0.59850(2) 0.0000
C15_2 C 0.7347(3) 0.9133(2) 1.0000
C16_2 C 0.7486(3) 0.83739(19) 1.0000
H8_2 H 0.6998 0.8061 1.0000
C17_2 C 0.8343(3) 0.8061(2) 1.0000
C18_2 C 0.9067(3) 0.8564(2) 1.0000
H9_2 H 0.9642 0.8382 1.0000
C19_2 C 0.8927(3) 0.9336(2) 1.0000
C20_2 C 0.8075(3) 0.96106(19) 1.0000
C21_2 C 0.8493(3) 0.7282(2) 1.0000
C22_2 C 0.6409(2) 0.94431(19) 1.0000
C23_2 C 0.9681(3) 0.9802(2) 1.0000
O5_2 O 0.7887(2) 0.68348(15) 1.0000
O6_2 O 0.92778(19) 0.70531(16) 1.0000
O8_2 O 0.58152(18) 0.90000(16) 1.0000
O10_2 O 0.42778(19) 0.79469(16) 1.0000
Zn8_2 Zn 0.94770(3) 0.59850(2) 1.0000
N6 N 0.05347(17) 0.40581(15) 0.1912(2)
O12_3 O 0.13536(16) 0.48705(13) 0.0000
C10_2 C 0.1181(2) 0.4341(2) 0.7501(3)
H4_2 H 0.1645 0.4559 0.7907
C11_2 C 0.1211(2) 0.4333(2) 0.6276(3)
H5_2 H 0.1695 0.4541 0.5897
C12_2 C 0.0567(2) 0.40334(17) 0.5645(3)
N1_2 N 0.05347(17) 0.40581(15) 0.8088(2)
C24_2 C 0.1181(2) 0.4341(2) 0.2499(3)
H11_2 H 0.1645 0.4559 0.2093
C25_2 C 0.1211(2) 0.4333(2) 0.3724(3)
H12_2 H 0.1695 0.4541 0.4103
C26_2 C 0.0567(2) 0.40334(17) 0.4355(3)
O12_4 O 0.13536(16) 0.48705(13) 1.0000
C1_3 C 0.7653(3) 0.4133(2) 0.0000
C2_3 C 0.7514(3) 0.33739(19) 0.0000
H1_3 H 0.8002 0.3061 0.0000
C3_3 C 0.6657(3) 0.3061(2) 0.0000
C4_3 C 0.5933(3) 0.3564(2) 0.0000
H2_3 H 0.5358 0.3382 0.0000
C5_3 C 0.6073(3) 0.4336(2) 0.0000
C6_3 C 0.6925(3) 0.46106(19) 0.0000
H3_3 H 0.7017 0.5119 0.0000
C7_3 C 0.6507(3) 0.2282(2) 0.0000
C8_3 C 0.8591(2) 0.44431(19) 0.0000
C9_3 C 0.5319(3) 0.4802(2) 0.0000
O1_3 O 0.7113(2) 0.18348(15) 0.0000
O3_3 O 0.86464(16) 0.51295(13) 0.0000
O4_3 O 0.91848(18) 0.40000(16) 0.0000
C15_3 C 0.2347(3) 0.5867(2) 0.0000
C16_3 C 0.2486(3) 0.66261(19) 0.0000
H8_3 H 0.1998 0.6939 0.0000
C17_3 C 0.3343(3) 0.6939(2) 0.0000
C18_3 C 0.4067(3) 0.6436(2) 0.0000
H9_3 H 0.4642 0.6618 0.0000
C19_3 C 0.3927(3) 0.5664(2) 0.0000
C20_3 C 0.3075(3) 0.53894(19) 0.0000
H10_3 H 0.2983 0.4881 0.0000
C21_3 C 0.3493(3) 0.7718(2) 0.0000
C22_3 C 0.1409(2) 0.55569(19) 0.0000
C23_3 C 0.4681(3) 0.5198(2) 0.0000
O5_3 O 0.2887(2) 0.81652(15) 0.0000
O8_3 O 0.08152(18) 0.60000(16) 0.0000
C1_4 C 0.7653(3) 0.4133(2) 1.0000
C2_4 C 0.7514(3) 0.33739(19) 1.0000
H1_4 H 0.8002 0.3061 1.0000
C3_4 C 0.6657(3) 0.3061(2) 1.0000
C4_4 C 0.5933(3) 0.3564(2) 1.0000
H2_4 H 0.5358 0.3382 1.0000
C5_4 C 0.6073(3) 0.4336(2) 1.0000
C6_4 C 0.6925(3) 0.46106(19) 1.0000
H3_4 H 0.7017 0.5119 1.0000
C7_4 C 0.6507(3) 0.2282(2) 1.0000
C8_4 C 0.8591(2) 0.44431(19) 1.0000
C9_4 C 0.5319(3) 0.4802(2) 1.0000
C13_2 C 0.9884(2) 0.37392(19) 0.6305(3)
H6_2 H 0.9394 0.3537 0.5933
C14_2 C 0.9922(2) 0.37435(19) 0.7473(3)
H7_2 H 0.9473 0.3501 0.7875
O1_4 O 0.7113(2) 0.18348(15) 1.0000
O3_4 O 0.86464(16) 0.51295(13) 1.0000
O4_4 O 0.91848(18) 0.40000(16) 1.0000
C15_4 C 0.2347(3) 0.5867(2) 1.0000
C16_4 C 0.2486(3) 0.66261(19) 1.0000
H8_4 H 0.1998 0.6939 1.0000
C17_4 C 0.3343(3) 0.6939(2) 1.0000
C18_4 C 0.4067(3) 0.6436(2) 1.0000
H9_4 H 0.4642 0.6618 1.0000
C19_4 C 0.3927(3) 0.5664(2) 1.0000
C20_4 C 0.3075(3) 0.53894(19) 1.0000
H10_4 H 0.2983 0.4881 1.0000
C21_4 C 0.3493(3) 0.7718(2) 1.0000
C22_4 C 0.1409(2) 0.55569(19) 1.0000
C23_4 C 0.4681(3) 0.5198(2) 1.0000
O5_4 O 0.2887(2) 0.81652(15) 1.0000
O8_4 O 0.08152(18) 0.60000(16) 1.0000
C27_2 C 0.9884(2) 0.37392(19) 0.3695(3)
H13_2 H 0.9394 0.3537 0.4067
C28_2 C 0.9922(2) 0.37435(19) 0.2527(3)
H14_2 H 0.9473 0.3501 0.2125
C32_2 C 0.0116(2) 0.62608(19) 0.6305(3)
H17_2 H 0.0606 0.6463 0.5933
C33_2 C 0.0078(2) 0.62565(19) 0.7473(3)
H18_2 H 0.0527 0.6499 0.7875
C37_2 C 0.0116(2) 0.62608(19) 0.3695(3)
H21_2 H 0.0606 0.6463 0.4067
C38_2 C 0.0078(2) 0.62565(19) 0.2527(3)
H22_2 H 0.0527 0.6499 0.2125
N5 N 0.94653(17) 0.59419(15) 0.1912(2)
C29_2 C 0.8819(2) 0.5659(2) 0.7501(3)
H15_2 H 0.8355 0.5441 0.7907
C30_2 C 0.8789(2) 0.5667(2) 0.6276(3)
H16_2 H 0.8305 0.5459 0.5897
C31_2 C 0.9433(2) 0.59666(17) 0.5645(3)
N3_2 N 0.94653(17) 0.59419(15) 0.8088(2)
C34_2 C 0.8819(2) 0.5659(2) 0.2499(3)
H19_2 H 0.8355 0.5441 0.2093
C35_2 C 0.8789(2) 0.5667(2) 0.3724(3)
H20_2 H 0.8305 0.5459 0.4103
C36_2 C 0.9433(2) 0.59666(17) 0.4355(3)
loop_
_geom_bond_atom_site_label_1
_geom_bond_atom_site_label_2
_geom_bond_site_symmetry_1
_geom_bond_site_symmetry_2
C1 C2 1_555 1_555
C2 H1 1_555 1_555
C3 C2 1_555 1_555
C4 C3 1_555 1_555
H2 C4 1_555 1_555
C5 C4 1_555 1_555
C6 C1 1_555 1_555
C7 C3 1_555 1_555
C8 C1 1_555 1_555
C9 C5 1_555 1_555
C10 H4 1_555 1_555
C11 C10 1_555 1_555
H5 C11 1_555 1_555
C12 C11 1_555 1_555
C13 C12 1_555 1_555
H6 C13 1_555 1_555
C14 C13 1_555 1_555
H7 C14 1_555 1_555
N1 C10 1_555 1_555
O1 C7 1_555 1_555
O2 C7 1_555 1_555
O4 C8 1_555 1_555
Zn4 N1 1_555 1_555
C24 H11 1_555 1_555
C25 C24 1_555 1_555
H12 C25 1_555 1_555
C26 C12 1_555 1_555
C27 C26 1_555 1_555
H13 C27 1_555 1_555
C28 C27 1_555 1_555
H14 C28 1_555 1_555
N2 C24 1_555 1_555
O9 Zn4 1_555 1_555
O12 Zn4 1_555 1_555
Zn4_2 N2 1_555 1_555
Zn7 O2 1_555 1_555
C5 C6 1_555 1_555
C14 N1 1_555 1_555
O4 Zn4 1_555 1_555
C25 C26 1_555 1_555
C28 N2 1_555 1_555
C1_2 C2_2 1_555 1_555
C2_2 H1_2 1_555 1_555
C3_2 C2_2 1_555 1_555
C4_2 C3_2 1_555 1_555
H2_2 C4_2 1_555 1_555
C5_2 C4_2 1_555 1_555
C6_2 C1_2 1_555 1_555
C7_2 C3_2 1_555 1_555
C8_2 C1_2 1_555 1_555
C9_2 C5_2 1_555 1_555
O1_2 C7_2 1_555 1_555
O2_2 C7_2 1_555 1_555
O4_2 C8_2 1_555 1_555
O9_2 Zn4_2 1_555 1_555
O12_2 Zn4_2 1_555 1_555
Zn7_2 O2_2 1_555 1_555
C5_2 C6_2 1_555 1_555
O4_2 Zn4_2 1_555 1_555
Zn6 O3 1_555 1_555
Zn6_2 O3_2 1_555 1_555
C15 C16 1_555 1_555
C16 H8 1_555 1_555
C17 C16 1_555 1_555
C18 C17 1_555 1_555
H9 C18 1_555 1_555
C19 C18 1_555 1_555
C20 C15 1_555 1_555
C21 C17 1_555 1_555
C22 C15 1_555 1_555
O5 C21 1_555 1_555
O6 C21 1_555 1_555
O8 C22 1_555 1_555
C29 H15 1_555 1_555
C30 C29 1_555 1_555
H16 C30 1_555 1_555
C31 C30 1_555 1_555
C32 C31 1_555 1_555
H17 C32 1_555 1_555
C33 C32 1_555 1_555
H18 C33 1_555 1_555
N3 C29 1_555 1_555
Zn6 O8 1_555 1_555
C34 H19 1_555 1_555
C35 C34 1_555 1_555
H20 C35 1_555 1_555
C36 C31 1_555 1_555
C37 C36 1_555 1_555
H21 C37 1_555 1_555
C38 C37 1_555 1_555
H22 C38 1_555 1_555
N4 C34 1_555 1_555
O10 Zn6 1_555 1_555
Zn6_2 N4 1_555 1_555
Zn8 O6 1_555 1_555
C19 C20 1_555 1_555
C19 C23 1_555 1_555
C33 N3 1_555 1_555
N3 Zn6 1_555 1_555
C35 C36 1_555 1_555
C38 N4 1_555 1_555
C15_2 C16_2 1_555 1_555
C16_2 H8_2 1_555 1_555
C17_2 C16_2 1_555 1_555
C18_2 C17_2 1_555 1_555
H9_2 C18_2 1_555 1_555
C19_2 C18_2 1_555 1_555
C20_2 C15_2 1_555 1_555
C21_2 C17_2 1_555 1_555
C22_2 C15_2 1_555 1_555
O5_2 C21_2 1_555 1_555
O6_2 C21_2 1_555 1_555
O8_2 C22_2 1_555 1_555
Zn6_2 O8_2 1_555 1_555
O10_2 Zn6_2 1_555 1_555
Zn8_2 O6_2 1_555 1_555
C19_2 C20_2 1_555 1_555
C19_2 C23_2 1_555 1_555
N6 Zn7 1_555 1_555
O12_3 Zn7 1_555 1_555
C10_2 H4_2 1_555 1_555
C11_2 C10_2 1_555 1_555
H5_2 C11_2 1_555 1_555
C12_2 C11_2 1_555 1_555
N1_2 C10_2 1_555 1_555
Zn7_2 N1_2 1_555 1_555
C24_2 H11_2 1_555 1_555
C25_2 C24_2 1_555 1_555
H12_2 C25_2 1_555 1_555
C26_2 C12_2 1_555 1_555
N6 C24_2 1_555 1_555
O12_4 Zn7_2 1_555 1_555
C25_2 C26_2 1_555 1_555
C1_3 C2_3 1_555 1_555
C2_3 H1_3 1_555 1_555
C3_3 C2_3 1_555 1_555
C4_3 C3_3 1_555 1_555
H2_3 C4_3 1_555 1_555
C5_3 C4_3 1_555 1_555
C6_3 C1_3 1_555 1_555
H3_3 C6_3 1_555 1_555
C7_3 C3_3 1_555 1_555
C8_3 C1_3 1_555 1_555
C9_3 C5_3 1_555 1_555
O1_3 C7_3 1_555 1_555
O9 C7_3 1_555 1_555
O3_3 C8_3 1_555 1_555
O4_3 C8_3 1_555 1_555
C15_3 C16_3 1_555 1_555
C16_3 H8_3 1_555 1_555
C17_3 C16_3 1_555 1_555
C18_3 C17_3 1_555 1_555
H9_3 C18_3 1_555 1_555
C19_3 C18_3 1_555 1_555
C20_3 C15_3 1_555 1_555
H10_3 C20_3 1_555 1_555
C21_3 C17_3 1_555 1_555
C22_3 C15_3 1_555 1_555
C23_3 C9_3 1_555 1_555
O5_3 C21_3 1_555 1_555
O10 C21_3 1_555 1_555
O12_3 C22_3 1_555 1_555
O8_3 C22_3 1_555 1_555
Zn8 O3_3 1_555 1_555
C5_3 C6_3 1_555 1_555
C19_3 C20_3 1_555 1_555
C19_3 C23_3 1_555 1_555
C1_4 C2_4 1_555 1_555
C2_4 H1_4 1_555 1_555
C3_4 C2_4 1_555 1_555
C4_4 C3_4 1_555 1_555
H2_4 C4_4 1_555 1_555
C5_4 C4_4 1_555 1_555
C6_4 C1_4 1_555 1_555
H3_4 C6_4 1_555 1_555
C7_4 C3_4 1_555 1_555
C8_4 C1_4 1_555 1_555
C9_4 C5_4 1_555 1_555
H6_2 C13_2 1_555 1_555
C14_2 C13_2 1_555 1_555
H7_2 C14_2 1_555 1_555
O1_4 C7_4 1_555 1_555
O9_2 C7_4 1_555 1_555
O3_4 C8_4 1_555 1_555
O4_4 C8_4 1_555 1_555
C15_4 C16_4 1_555 1_555
C16_4 H8_4 1_555 1_555
C17_4 C16_4 1_555 1_555
C18_4 C17_4 1_555 1_555
H9_4 C18_4 1_555 1_555
C19_4 C18_4 1_555 1_555
C20_4 C15_4 1_555 1_555
H10_4 C20_4 1_555 1_555
C21_4 C17_4 1_555 1_555
C22_4 C15_4 1_555 1_555
C23_4 C9_4 1_555 1_555
O5_4 C21_4 1_555 1_555
O10_2 C21_4 1_555 1_555
O12_4 C22_4 1_555 1_555
O8_4 C22_4 1_555 1_555
H13_2 C27_2 1_555 1_555
C28_2 C27_2 1_555 1_555
H14_2 C28_2 1_555 1_555
H17_2 C32_2 1_555 1_555
C33_2 C32_2 1_555 1_555
H18_2 C33_2 1_555 1_555
H21_2 C37_2 1_555 1_555
C38_2 C37_2 1_555 1_555
H22_2 C38_2 1_555 1_555
Zn8_2 O3_4 1_555 1_555
C5_4 C6_4 1_555 1_555
C19_4 C20_4 1_555 1_555
C19_4 C23_4 1_555 1_555
N5 Zn8 1_555 1_555
C29_2 H15_2 1_555 1_555
C30_2 C29_2 1_555 1_555
H16_2 C30_2 1_555 1_555
C31_2 C30_2 1_555 1_555
N3_2 C29_2 1_555 1_555
C34_2 H19_2 1_555 1_555
C35_2 C34_2 1_555 1_555
H20_2 C35_2 1_555 1_555
C36_2 C31_2 1_555 1_555
N5 C34_2 1_555 1_555
N3_2 Zn8_2 1_555 1_555
C35_2 C36_2 1_555 1_555

#END
