
###############################################################################
#
# This file contains modified crystal structure data generated from the
# MOF subset of the Cambridge Structural Database (CSD) v543 
# hosted by the Cambridge Crystallographic Data Centre (CCDC).
#
# This work is licensed under the Creative Commons
# Attribution-NonCommercial-ShareAlike 4.0 International License.
# To view a copy of this license, visit
# http://creativecommons.org/licenses/by-nc-sa/4.0/
# or send a letter to
# Creative Commons, PO Box 1866, Mountain View, CA 94042, USA.
#
# CIF created using the CSD Python API on 29 September 2022
# The structure has been converted into the P1 space group
# The structure has a 3D framework
# The original CSD entry JOVYAW is in the triclinic crystal system
# The framework has been calculated to contain at least 10.0% void space
# The void calculation uses a probe of radius 1.32A, grid spacing 0.4
# The framework is charged, counterions have been retained in the structure
#
###############################################################################

data_JOVYAW
_chemical_formula_moiety         '(C40 H28 N2 O16 Zn3)n'
_symmetry_cell_setting           triclinic
_symmetry_space_group_name_H-M   'P 1'
_symmetry_Int_Tables_number      1
_space_group_name_Hall           'P 1'
loop_
_symmetry_equiv_pos_site_id
_symmetry_equiv_pos_as_xyz
1 x,y,z
_cell_length_a                   9.530(3)
_cell_length_b                   10.168(3)
_cell_length_c                   13.026(4)
_cell_angle_alpha                111.005(4)
_cell_angle_beta                 105.569(5)
_cell_angle_gamma                90.497(4)
_cell_volume                     1127.37
loop_
_atom_site_label
_atom_site_type_symbol
_atom_site_fract_x
_atom_site_fract_y
_atom_site_fract_z
C1 C 0.0222(5) 0.1212(5) 0.6903(4)
H2 H 0.0886 0.0633 0.6554
H3 H 0.0358 0.2145 0.6895
C2 C 0.2032(5) 0.1148(5) 0.8746(4)
H4 H 0.2094 0.1320 0.9532
H5 H 0.2725 0.1816 0.8719
H6 H 0.2249 0.0202 0.8382
N1 N 0.0526(4) 0.1311(4) 0.8133(3)
H7 H 0.0303 0.2160 0.8544
H1 H 0.9231 0.0796 0.6480
H8 H 0.9903 0.0644 0.8138
H1_2 H 0.0769 0.9204 0.3520
H8_2 H 0.0097 0.9356 0.1862
C1_2 C 0.9778(5) 0.8788(5) 0.3097(4)
H2_2 H 0.9114 0.9367 0.3446
H3_2 H 0.9642 0.7855 0.3105
C2_2 C 0.7968(5) 0.8852(5) 0.1254(4)
H4_2 H 0.7906 0.8680 0.0468
H5_2 H 0.7275 0.8184 0.1281
H6_2 H 0.7751 0.9798 0.1618
N1_2 N 0.9474(4) 0.8689(4) 0.1867(3)
H7_2 H 0.9697 0.7840 0.1456
C14 C 0.0135(4) 0.7174(4) 0.6011(3)
H13 H 0.0584 0.7543 0.6800
C15 C 0.0979(4) 0.6697(4) 0.5245(3)
C16 C 0.0284(4) 0.6107(4) 0.4091(3)
H14 H 0.0843 0.5717 0.3594
C20 C 0.2607(4) 0.6753(4) 0.5686(3)
O7 O 0.3239(3) 0.7564(3) 0.6697(2)
O8 O 0.3216(3) 0.5960(3) 0.4990(2)
Zn7 Zn 0.5000 0.5000 0.5000
Zn10 Zn 0.54071(5) 0.79745(5) 0.72617(3)
O9 O 0.4244(3) 0.0082(3) 0.1500(2)
Zn3 Zn 0.45929(5) 0.20255(5) 0.27383(3)
O18 O 0.4004(3) 0.3200(3) 0.1814(2)
O22 O 0.3665(2) 0.2877(2) 0.4007(2)
O24 O 0.6761(3) 0.2436(3) 0.3303(2)
H11 H 0.6592 0.2299 0.0080
C8 C 0.6885(4) 0.4324(4) 0.0232(3)
C9 C 0.7516(4) 0.4970(4) 0.1422(3)
C10 C 0.8102(5) 0.5460(4) 0.2440(3)
C11 C 0.8782(4) 0.6062(4) 0.3627(3)
C12 C 0.7955(4) 0.6569(4) 0.4416(3)
H12 H 0.6945 0.6547 0.4141
C13 C 0.8617(4) 0.7090(4) 0.5578(3)
C19 C 0.7688(4) 0.7562(4) 0.6388(3)
O5 O 0.8257(3) 0.8413(3) 0.7371(2)
O6 O 0.6335(2) 0.7123(2) 0.5993(2)
C3 C 0.5937(4) 0.2250(4) 0.8477(3)
C4 C 0.5718(4) 0.3087(4) 0.7818(3)
H9 H 0.5375 0.2665 0.7021
C5 C 0.6015(4) 0.4567(4) 0.8356(3)
C6 C 0.6608(4) 0.5153(4) 0.9541(3)
H10 H 0.6834 0.6132 0.9898
C7 C 0.6485(4) 0.2874(4) 0.9654(3)
C17 C 0.5613(5) 0.0661(4) 0.7888(4)
C18 C 0.5723(4) 0.5449(4) 0.7663(3)
O2 O 0.5275(3) 0.0103(3) 0.6829(3)
O3 O 0.5996(3) 0.6800(3) 0.8186(2)
O4 O 0.5244(3) 0.4843(3) 0.6598(2)
C21 C 0.4063(4) 0.7750(4) 0.1523(3)
C22 C 0.4282(4) 0.6913(4) 0.2182(3)
H15 H 0.4625 0.7335 0.2979
C23 C 0.3985(4) 0.5433(4) 0.1644(3)
C24 C 0.3392(4) 0.4847(4) 0.0459(3)
H16 H 0.3166 0.3868 0.0102
C25 C 0.3515(4) 0.7126(4) 0.0346(3)
C35 C 0.4387(5) 0.9339(4) 0.2112(4)
C36 C 0.4277(4) 0.4551(4) 0.2337(3)
O10 O 0.4725(3) 0.9897(3) 0.3171(3)
O12 O 0.4756(3) 0.5157(3) 0.3402(2)
O26 O 0.6784(3) 0.4040(3) 0.5010(2)
H17 H 0.3408 0.7701 0.9920
C26 C 0.3115(4) 0.5676(4) 0.9768(3)
C27 C 0.2484(4) 0.5030(4) 0.8578(3)
C28 C 0.1898(5) 0.4540(4) 0.7560(3)
C29 C 0.1218(4) 0.3938(4) 0.6373(3)
C30 C 0.2045(4) 0.3431(4) 0.5584(3)
H18 H 0.3055 0.3453 0.5859
C31 C 0.1383(4) 0.2910(4) 0.4422(3)
C37 C 0.2312(4) 0.2438(4) 0.3612(3)
O13 O 0.1743(3) 0.1587(3) 0.2629(2)
O1 O 0.5756(3) 0.9918(3) 0.8500(2)
C32 C 0.9865(4) 0.2826(4) 0.3989(3)
H19 H 0.9416 0.2457 0.3200
C33 C 0.9021(4) 0.3303(4) 0.4755(3)
C34 C 0.9716(4) 0.3893(4) 0.5909(3)
H20 H 0.9157 0.4283 0.6406
C38 C 0.7393(4) 0.3247(4) 0.4314(3)
loop_
_geom_bond_atom_site_label_1
_geom_bond_atom_site_label_2
_geom_bond_site_symmetry_1
_geom_bond_site_symmetry_2
H2 C1 1_555 1_555
H3 C1 1_555 1_555
C2 H4 1_555 1_555
H5 C2 1_555 1_555
H6 C2 1_555 1_555
N1 C1 1_555 1_555
H7 N1 1_555 1_555
C2 N1 1_555 1_555
H2_2 C1_2 1_555 1_555
H3_2 C1_2 1_555 1_555
C2_2 H4_2 1_555 1_555
H5_2 C2_2 1_555 1_555
H6_2 C2_2 1_555 1_555
N1_2 C1_2 1_555 1_555
H7_2 N1_2 1_555 1_555
C2_2 N1_2 1_555 1_555
H13 C14 1_555 1_555
C15 C14 1_555 1_555
H14 C16 1_555 1_555
C20 C15 1_555 1_555
O7 C20 1_555 1_555
O8 C20 1_555 1_555
Zn7 O8 1_555 1_555
Zn10 O7 1_555 1_555
C15 C16 1_555 1_555
Zn3 O9 1_555 1_555
O18 Zn3 1_555 1_555
O22 Zn3 1_555 1_555
O24 Zn3 1_555 1_555
C9 C8 1_555 1_555
C10 C9 1_555 1_555
C11 C10 1_555 1_555
C12 C11 1_555 1_555
H12 C12 1_555 1_555
C13 C12 1_555 1_555
C19 C13 1_555 1_555
O5 C19 1_555 1_555
O6 C19 1_555 1_555
Zn7 O6 1_555 1_555
Zn10 O6 1_555 1_555
C3 C4 1_555 1_555
C4 H9 1_555 1_555
C5 C4 1_555 1_555
C6 C5 1_555 1_555
H10 C6 1_555 1_555
C7 C3 1_555 1_555
C17 C3 1_555 1_555
C18 C5 1_555 1_555
O2 C17 1_555 1_555
O3 C18 1_555 1_555
O4 C18 1_555 1_555
Zn7 O4 1_555 1_555
C21 C22 1_555 1_555
C22 H15 1_555 1_555
C23 C22 1_555 1_555
C24 C23 1_555 1_555
H16 C24 1_555 1_555
C25 C21 1_555 1_555
C35 C21 1_555 1_555
C36 C23 1_555 1_555
O10 C35 1_555 1_555
O18 C36 1_555 1_555
O12 Zn7 1_555 1_555
O22 Zn7 1_555 1_555
O26 Zn7 1_555 1_555
Zn10 O3 1_555 1_555
C36 O12 1_555 1_555
C27 C26 1_555 1_555
C28 C27 1_555 1_555
C29 C28 1_555 1_555
C30 C29 1_555 1_555
H18 C30 1_555 1_555
C31 C30 1_555 1_555
C37 C31 1_555 1_555
O13 C37 1_555 1_555
O22 C37 1_555 1_555
Zn10 O1 1_555 1_555
H19 C32 1_555 1_555
C33 C32 1_555 1_555
H20 C34 1_555 1_555
C38 C33 1_555 1_555
O24 C38 1_555 1_555
O26 C38 1_555 1_555
C33 C34 1_555 1_555

#END
