
###############################################################################
#
# This file contains modified crystal structure data generated from the
# MOF subset of the Cambridge Structural Database (CSD) v543 
# hosted by the Cambridge Crystallographic Data Centre (CCDC).
#
# This work is licensed under the Creative Commons
# Attribution-NonCommercial-ShareAlike 4.0 International License.
# To view a copy of this license, visit
# http://creativecommons.org/licenses/by-nc-sa/4.0/
# or send a letter to
# Creative Commons, PO Box 1866, Mountain View, CA 94042, USA.
#
# CIF created using the CSD Python API on 29 September 2022
# The structure has been converted into the P1 space group
# The structure has a 3D framework
# The original CSD entry JOXMUG is in the orthorhombic crystal system
# The framework has been calculated to contain at least 10.0% void space
# The void calculation uses a probe of radius 1.32A, grid spacing 0.4
#
###############################################################################

data_JOXMUG
_chemical_formula_moiety         '(C192 H128 Cu8 In2 N32 O64)n'
_symmetry_cell_setting           triclinic
_symmetry_space_group_name_H-M   'P 1'
_symmetry_Int_Tables_number      1
_space_group_name_Hall           'P 1'
loop_
_symmetry_equiv_pos_site_id
_symmetry_equiv_pos_as_xyz
1 x,y,z
_cell_length_a                   12.2035(3)
_cell_length_b                   22.5755(6)
_cell_length_c                   24.7498(5)
_cell_angle_alpha                90
_cell_angle_beta                 90
_cell_angle_gamma                90
_cell_volume                     6818.57
loop_
_atom_site_label
_atom_site_type_symbol
_atom_site_fract_x
_atom_site_fract_y
_atom_site_fract_z
Cu1 Cu 0.6250 0.1250 0.1250
N1 N 0.5509(4) 0.1831(2) 0.0741(2)
C1 C 0.6178(6) 0.2244(4) 0.0525(4)
H1 H 0.6903 0.2278 0.0662
C2 C 0.5859(6) 0.2623(3) 0.0113(3)
C4 C 0.4104(5) 0.2180(3) 0.0142(2)
H3 H 0.3366 0.2154 0.0021
C5 C 0.4488(5) 0.1810(2) 0.0552(2)
H4 H 0.3996 0.1529 0.0704
N2 N 0.6991(4) 0.0669(2) 0.0741(2)
C7 C 0.6322(6) 0.0256(4) 0.0525(4)
H5 H 0.5597 0.0222 0.0662
C10 C 0.8396(5) 0.0320(3) 0.0142(2)
H7 H 0.9134 0.0346 0.0021
C11 C 0.8012(5) 0.0690(2) 0.0552(2)
H8 H 0.8504 0.0971 0.0704
N3 N 0.5509(4) 0.0669(2) 0.1759(2)
C13 C 0.6178(6) 0.0256(4) 0.1975(4)
H9 H 0.6903 0.0222 0.1838
C16 C 0.4104(5) 0.0320(3) 0.2358(2)
H11 H 0.3366 0.0346 0.2479
C17 C 0.4488(5) 0.0690(2) 0.1948(2)
H12 H 0.3996 0.0971 0.1796
O7 O 0.7361(3) 0.32849(17) 0.32881(15)
O8 O 0.9071(3) 0.30418(18) 0.31239(15)
N4 N 0.6991(4) 0.1831(2) 0.1759(2)
C19 C 0.6322(6) 0.2244(4) 0.1975(4)
H13 H 0.5597 0.2278 0.1838
C20 C 0.6641(6) 0.2623(3) 0.2387(3)
H14 H 0.6142 0.2905 0.2531
C21 C 0.7689(5) 0.2583(2) 0.2584(2)
C22 C 0.8396(5) 0.2180(3) 0.2358(2)
H15 H 0.9134 0.2154 0.2479
C23 C 0.8012(5) 0.1810(2) 0.1948(2)
H16 H 0.8504 0.1529 0.1796
C24 C 0.8055(5) 0.2993(2) 0.3024(2)
In4 In 0.8750 0.3750 0.3750
In1 In 0.3750 0.3750 0.8750
O1 O 0.5139(3) 0.32849(17) 0.92119(15)
O2 O 0.3429(3) 0.30418(18) 0.93761(15)
H2 H 0.6358 0.2905 0.9969
C3 C 0.4811(5) 0.2583(2) 0.9916(2)
C6 C 0.4445(5) 0.2993(2) 0.9476(2)
O9 O 0.5139(3) 0.42151(17) 0.82881(15)
O10 O 0.2361(3) 0.32849(17) 0.82881(15)
O11 O 0.2361(3) 0.42151(17) 0.92119(15)
O12 O 0.3429(3) 0.44582(18) 0.81239(15)
O13 O 0.4071(3) 0.30418(18) 0.81239(15)
O14 O 0.4071(3) 0.44582(18) 0.93761(15)
C8 C 0.6641(6) 0.9877(3) 0.0113(3)
O5 O 0.5139(3) 0.92151(17) 0.32881(15)
O6 O 0.3429(3) 0.94582(18) 0.31239(15)
C14 C 0.5859(6) 0.9877(3) 0.2387(3)
H10 H 0.6358 0.9595 0.2531
C15 C 0.4811(5) 0.9917(2) 0.2584(2)
C18 C 0.4445(5) 0.9507(2) 0.3024(2)
In3 In 0.3750 0.8750 0.3750
O3 O 0.7361(3) 0.92151(17) 0.92119(15)
O4 O 0.9071(3) 0.94582(18) 0.93761(15)
H6 H 0.6142 0.9595 0.9969
C9 C 0.7689(5) 0.9917(2) 0.9916(2)
C12 C 0.8055(5) 0.9507(2) 0.9476(2)
In2 In 0.8750 0.8750 0.8750
O10_2 O 0.0139(3) 0.92151(17) 0.82881(15)
O11_2 O 0.0139(3) 0.82849(17) 0.92119(15)
O9_2 O 0.7361(3) 0.82849(17) 0.82881(15)
O12_2 O 0.9071(3) 0.80418(18) 0.81239(15)
O13_2 O 0.8429(3) 0.94582(18) 0.81239(15)
O14_2 O 0.8429(3) 0.80418(18) 0.93761(15)
O9_3 O 0.5139(3) 0.82849(17) 0.42119(15)
O10_3 O 0.2361(3) 0.92151(17) 0.42119(15)
O11_3 O 0.2361(3) 0.82849(17) 0.32881(15)
O12_3 O 0.3429(3) 0.80418(18) 0.43761(15)
O13_3 O 0.4071(3) 0.94582(18) 0.43761(15)
O14_3 O 0.4071(3) 0.80418(18) 0.31239(15)
O10_4 O 0.0139(3) 0.32849(17) 0.42119(15)
O11_4 O 0.0139(3) 0.42151(17) 0.32881(15)
O9_4 O 0.7361(3) 0.42151(17) 0.42119(15)
O12_4 O 0.9071(3) 0.44582(18) 0.43761(15)
O13_4 O 0.8429(3) 0.30418(18) 0.43761(15)
O14_4 O 0.8429(3) 0.44582(18) 0.31239(15)
Cu1_2 Cu 0.6250 0.6250 0.6250
N1_2 N 0.5509(4) 0.6831(2) 0.5741(2)
C1_2 C 0.6178(6) 0.7244(4) 0.5525(4)
H1_2 H 0.6903 0.7278 0.5662
C2_2 C 0.5859(6) 0.7623(3) 0.5113(3)
H2_2 H 0.6358 0.7905 0.4969
C3_2 C 0.4811(5) 0.7583(2) 0.4916(2)
C4_2 C 0.4104(5) 0.7180(3) 0.5142(2)
H3_2 H 0.3366 0.7154 0.5021
C5_2 C 0.4488(5) 0.6810(2) 0.5552(2)
H4_2 H 0.3996 0.6529 0.5704
C6_2 C 0.4445(5) 0.7993(2) 0.4476(2)
N2_2 N 0.6991(4) 0.5669(2) 0.5741(2)
C7_2 C 0.6322(6) 0.5256(4) 0.5525(4)
H5_2 H 0.5597 0.5222 0.5662
C8_2 C 0.6641(6) 0.4877(3) 0.5113(3)
H6_2 H 0.6142 0.4595 0.4969
C9_2 C 0.7689(5) 0.4917(2) 0.4916(2)
C10_2 C 0.8396(5) 0.5320(3) 0.5142(2)
H7_2 H 0.9134 0.5346 0.5021
C11_2 C 0.8012(5) 0.5690(2) 0.5552(2)
H8_2 H 0.8504 0.5971 0.5704
C12_2 C 0.8055(5) 0.4507(2) 0.4476(2)
N3_2 N 0.5509(4) 0.5669(2) 0.6759(2)
C13_2 C 0.6178(6) 0.5256(4) 0.6975(4)
H9_2 H 0.6903 0.5222 0.6838
C14_2 C 0.5859(6) 0.4877(3) 0.7387(3)
H10_2 H 0.6358 0.4595 0.7531
C15_2 C 0.4811(5) 0.4917(2) 0.7584(2)
C16_2 C 0.4104(5) 0.5320(3) 0.7358(2)
H11_2 H 0.3366 0.5346 0.7479
C17_2 C 0.4488(5) 0.5690(2) 0.6948(2)
H12_2 H 0.3996 0.5971 0.6796
C18_2 C 0.4445(5) 0.4507(2) 0.8024(2)
N4_2 N 0.6991(4) 0.6831(2) 0.6759(2)
C19_2 C 0.6322(6) 0.7244(4) 0.6975(4)
H13_2 H 0.5597 0.7278 0.6838
C20_2 C 0.6641(6) 0.7623(3) 0.7387(3)
H14_2 H 0.6142 0.7905 0.7531
C21_2 C 0.7689(5) 0.7583(2) 0.7584(2)
C22_2 C 0.8396(5) 0.7180(3) 0.7358(2)
H15_2 H 0.9134 0.7154 0.7479
C23_2 C 0.8012(5) 0.6810(2) 0.6948(2)
H16_2 H 0.8504 0.6529 0.6796
C24_2 C 0.8055(5) 0.7993(2) 0.8024(2)
Cu1_3 Cu 0.1250 0.1250 0.6250
N1_3 N 0.0509(4) 0.1831(2) 0.5741(2)
C1_3 C 0.1178(6) 0.2244(4) 0.5525(4)
H1_3 H 0.1903 0.2278 0.5662
C2_3 C 0.0859(6) 0.2623(3) 0.5113(3)
H2_3 H 0.1358 0.2905 0.4969
N2_3 N 0.1991(4) 0.0669(2) 0.5741(2)
C7_3 C 0.1322(6) 0.0256(4) 0.5525(4)
H5_3 H 0.0597 0.0222 0.5662
C10_3 C 0.3396(5) 0.0320(3) 0.5142(2)
H7_3 H 0.4134 0.0346 0.5021
C11_3 C 0.3012(5) 0.0690(2) 0.5552(2)
H8_3 H 0.3504 0.0971 0.5704
N3_3 N 0.0509(4) 0.0669(2) 0.6759(2)
C13_3 C 0.1178(6) 0.0256(4) 0.6975(4)
H9_3 H 0.1903 0.0222 0.6838
N4_3 N 0.1991(4) 0.1831(2) 0.6759(2)
C19_3 C 0.1322(6) 0.2244(4) 0.6975(4)
H13_3 H 0.0597 0.2278 0.6838
C20_3 C 0.1641(6) 0.2623(3) 0.7387(3)
H14_3 H 0.1142 0.2905 0.7531
C21_3 C 0.2689(5) 0.2583(2) 0.7584(2)
C22_3 C 0.3396(5) 0.2180(3) 0.7358(2)
H15_3 H 0.4134 0.2154 0.7479
C23_3 C 0.3012(5) 0.1810(2) 0.6948(2)
H16_3 H 0.3504 0.1529 0.6796
C24_3 C 0.3055(5) 0.2993(2) 0.8024(2)
C8_3 C 0.1641(6) 0.9877(3) 0.5113(3)
H6_3 H 0.1142 0.9595 0.4969
C9_3 C 0.2689(5) 0.9917(2) 0.4916(2)
C12_3 C 0.3055(5) 0.9507(2) 0.4476(2)
C14_3 C 0.0859(6) 0.9877(3) 0.7387(3)
H10_3 H 0.1358 0.9595 0.7531
C3_3 C 0.9811(5) 0.2583(2) 0.4916(2)
C4_3 C 0.9104(5) 0.2180(3) 0.5142(2)
H3_3 H 0.8366 0.2154 0.5021
C5_3 C 0.9488(5) 0.1810(2) 0.5552(2)
H4_3 H 0.8996 0.1529 0.5704
C6_3 C 0.9445(5) 0.2993(2) 0.4476(2)
C16_3 C 0.9104(5) 0.0320(3) 0.7358(2)
H11_3 H 0.8366 0.0346 0.7479
C17_3 C 0.9488(5) 0.0690(2) 0.6948(2)
H12_3 H 0.8996 0.0971 0.6796
C15_3 C 0.9811(5) 0.9917(2) 0.7584(2)
C18_3 C 0.9445(5) 0.9507(2) 0.8024(2)
Cu1_4 Cu 0.1250 0.6250 0.1250
N1_4 N 0.0509(4) 0.6831(2) 0.0741(2)
C1_4 C 0.1178(6) 0.7244(4) 0.0525(4)
H1_4 H 0.1903 0.7278 0.0662
C2_4 C 0.0859(6) 0.7623(3) 0.0113(3)
N2_4 N 0.1991(4) 0.5669(2) 0.0741(2)
C7_4 C 0.1322(6) 0.5256(4) 0.0525(4)
H5_4 H 0.0597 0.5222 0.0662
C8_4 C 0.1641(6) 0.4877(3) 0.0113(3)
C10_4 C 0.3396(5) 0.5320(3) 0.0142(2)
H7_4 H 0.4134 0.5346 0.0021
C11_4 C 0.3012(5) 0.5690(2) 0.0552(2)
H8_4 H 0.3504 0.5971 0.0704
N3_4 N 0.0509(4) 0.5669(2) 0.1759(2)
C13_4 C 0.1178(6) 0.5256(4) 0.1975(4)
H9_4 H 0.1903 0.5222 0.1838
C14_4 C 0.0859(6) 0.4877(3) 0.2387(3)
H10_4 H 0.1358 0.4595 0.2531
N4_4 N 0.1991(4) 0.6831(2) 0.1759(2)
C19_4 C 0.1322(6) 0.7244(4) 0.1975(4)
H13_4 H 0.0597 0.7278 0.1838
C20_4 C 0.1641(6) 0.7623(3) 0.2387(3)
H14_4 H 0.1142 0.7905 0.2531
C21_4 C 0.2689(5) 0.7583(2) 0.2584(2)
C22_4 C 0.3396(5) 0.7180(3) 0.2358(2)
H15_4 H 0.4134 0.7154 0.2479
C23_4 C 0.3012(5) 0.6810(2) 0.1948(2)
H16_4 H 0.3504 0.6529 0.1796
C24_4 C 0.3055(5) 0.7993(2) 0.3024(2)
H2_4 H 0.1358 0.7905 0.9969
H6_4 H 0.1142 0.4595 0.9969
C9_4 C 0.2689(5) 0.4917(2) 0.9916(2)
C12_4 C 0.3055(5) 0.4507(2) 0.9476(2)
C4_4 C 0.9104(5) 0.7180(3) 0.0142(2)
H3_4 H 0.8366 0.7154 0.0021
C5_4 C 0.9488(5) 0.6810(2) 0.0552(2)
H4_4 H 0.8996 0.6529 0.0704
C15_4 C 0.9811(5) 0.4917(2) 0.2584(2)
C16_4 C 0.9104(5) 0.5320(3) 0.2358(2)
H11_4 H 0.8366 0.5346 0.2479
C17_4 C 0.9488(5) 0.5690(2) 0.1948(2)
H12_4 H 0.8996 0.5971 0.1796
C18_4 C 0.9445(5) 0.4507(2) 0.3024(2)
C3_4 C 0.9811(5) 0.7583(2) 0.9916(2)
C6_4 C 0.9445(5) 0.7993(2) 0.9476(2)
O3_2 O 0.2639(3) 0.07849(17) 0.07881(15)
O4_2 O 0.0929(3) 0.05418(18) 0.06239(15)
H6_5 H 0.3858 0.0405 0.0031
C9_5 C 0.2311(5) 0.0083(2) 0.0084(2)
C12_5 C 0.1945(5) 0.0493(2) 0.0524(2)
In2_2 In 0.1250 0.1250 0.1250
C8_5 C 0.3359(6) 0.0123(3) 0.9887(3)
O5_2 O 0.4861(3) 0.07849(17) 0.67119(15)
O6_2 O 0.6571(3) 0.05418(18) 0.68761(15)
C14_5 C 0.4141(6) 0.0123(3) 0.7613(3)
H10_5 H 0.3642 0.0405 0.7469
C15_5 C 0.5189(5) 0.0083(2) 0.7416(2)
C18_5 C 0.5555(5) 0.0493(2) 0.6976(2)
In3_2 In 0.6250 0.1250 0.6250
In1_2 In 0.6250 0.6250 0.1250
O1_2 O 0.4861(3) 0.67151(17) 0.07881(15)
O2_2 O 0.6571(3) 0.69582(18) 0.06239(15)
H2_5 H 0.3642 0.7095 0.0031
C3_5 C 0.5189(5) 0.7417(2) 0.0084(2)
C6_5 C 0.5555(5) 0.7007(2) 0.0524(2)
O9_5 O 0.4861(3) 0.57849(17) 0.17119(15)
O10_5 O 0.7639(3) 0.67151(17) 0.17119(15)
O11_5 O 0.7639(3) 0.57849(17) 0.07881(15)
O12_5 O 0.6571(3) 0.55418(18) 0.18761(15)
O13_5 O 0.5929(3) 0.69582(18) 0.18761(15)
O14_5 O 0.5929(3) 0.55418(18) 0.06239(15)
Cu1_5 Cu 0.3750 0.8750 0.8750
N1_5 N 0.4491(4) 0.8169(2) 0.9259(2)
C1_5 C 0.3822(6) 0.7756(4) 0.9475(4)
H1_5 H 0.3097 0.7722 0.9338
C2_5 C 0.4141(6) 0.7377(3) 0.9887(3)
C4_5 C 0.5896(5) 0.7820(3) 0.9858(2)
H3_5 H 0.6634 0.7846 0.9979
C5_5 C 0.5512(5) 0.8190(2) 0.9448(2)
H4_5 H 0.6004 0.8471 0.9296
N2_5 N 0.3009(4) 0.9331(2) 0.9259(2)
C7_5 C 0.3678(6) 0.9744(4) 0.9475(4)
H5_5 H 0.4403 0.9778 0.9338
C10_5 C 0.1604(5) 0.9680(3) 0.9858(2)
H7_5 H 0.0866 0.9654 0.9979
C11_5 C 0.1988(5) 0.9310(2) 0.9448(2)
H8_5 H 0.1496 0.9029 0.9296
N3_5 N 0.4491(4) 0.9331(2) 0.8241(2)
C13_5 C 0.3822(6) 0.9744(4) 0.8025(4)
H9_5 H 0.3097 0.9778 0.8162
C16_5 C 0.5896(5) 0.9680(3) 0.7642(2)
H11_5 H 0.6634 0.9654 0.7521
C17_5 C 0.5512(5) 0.9310(2) 0.8052(2)
H12_5 H 0.6004 0.9029 0.8204
O7_2 O 0.2639(3) 0.67151(17) 0.67119(15)
O8_2 O 0.0929(3) 0.69582(18) 0.68761(15)
N4_5 N 0.3009(4) 0.8169(2) 0.8241(2)
C19_5 C 0.3678(6) 0.7756(4) 0.8025(4)
H13_5 H 0.4403 0.7722 0.8162
C20_5 C 0.3359(6) 0.7377(3) 0.7613(3)
H14_5 H 0.3858 0.7095 0.7469
C21_5 C 0.2311(5) 0.7417(2) 0.7416(2)
C22_5 C 0.1604(5) 0.7820(3) 0.7642(2)
H15_5 H 0.0866 0.7846 0.7521
C23_5 C 0.1988(5) 0.8190(2) 0.8052(2)
H16_5 H 0.1496 0.8471 0.8204
C24_5 C 0.1945(5) 0.7007(2) 0.6976(2)
In4_2 In 0.1250 0.6250 0.6250
O9_6 O 0.2639(3) 0.17151(17) 0.17119(15)
O12_6 O 0.0929(3) 0.19582(18) 0.18761(15)
O13_6 O 0.1571(3) 0.05418(18) 0.18761(15)
O14_6 O 0.1571(3) 0.19582(18) 0.06239(15)
O10_6 O 0.9861(3) 0.07849(17) 0.17119(15)
O11_6 O 0.9861(3) 0.17151(17) 0.07881(15)
O9_7 O 0.4861(3) 0.17151(17) 0.57881(15)
O10_7 O 0.7639(3) 0.07849(17) 0.57881(15)
O11_7 O 0.7639(3) 0.17151(17) 0.67119(15)
O12_7 O 0.6571(3) 0.19582(18) 0.56239(15)
O13_7 O 0.5929(3) 0.05418(18) 0.56239(15)
O14_7 O 0.5929(3) 0.19582(18) 0.68761(15)
O9_8 O 0.2639(3) 0.57849(17) 0.57881(15)
O12_8 O 0.0929(3) 0.55418(18) 0.56239(15)
O13_8 O 0.1571(3) 0.69582(18) 0.56239(15)
O14_8 O 0.1571(3) 0.55418(18) 0.68761(15)
O10_8 O 0.9861(3) 0.67151(17) 0.57881(15)
O11_8 O 0.9861(3) 0.57849(17) 0.67119(15)
Cu1_6 Cu 0.3750 0.3750 0.3750
N1_6 N 0.4491(4) 0.3169(2) 0.4259(2)
C1_6 C 0.3822(6) 0.2756(4) 0.4475(4)
H1_6 H 0.3097 0.2722 0.4338
C2_6 C 0.4141(6) 0.2377(3) 0.4887(3)
H2_6 H 0.3642 0.2095 0.5031
C3_6 C 0.5189(5) 0.2417(2) 0.5084(2)
C4_6 C 0.5896(5) 0.2820(3) 0.4858(2)
H3_6 H 0.6634 0.2846 0.4979
C5_6 C 0.5512(5) 0.3190(2) 0.4448(2)
H4_6 H 0.6004 0.3471 0.4296
C6_6 C 0.5555(5) 0.2007(2) 0.5524(2)
N2_6 N 0.3009(4) 0.4331(2) 0.4259(2)
C7_6 C 0.3678(6) 0.4744(4) 0.4475(4)
H5_6 H 0.4403 0.4778 0.4338
C8_6 C 0.3359(6) 0.5123(3) 0.4887(3)
H6_6 H 0.3858 0.5405 0.5031
C9_6 C 0.2311(5) 0.5083(2) 0.5084(2)
C10_6 C 0.1604(5) 0.4680(3) 0.4858(2)
H7_6 H 0.0866 0.4654 0.4979
C11_6 C 0.1988(5) 0.4310(2) 0.4448(2)
H8_6 H 0.1496 0.4029 0.4296
C12_6 C 0.1945(5) 0.5493(2) 0.5524(2)
N3_6 N 0.4491(4) 0.4331(2) 0.3241(2)
C13_6 C 0.3822(6) 0.4744(4) 0.3025(4)
H9_6 H 0.3097 0.4778 0.3162
C14_6 C 0.4141(6) 0.5123(3) 0.2613(3)
H10_6 H 0.3642 0.5405 0.2469
C15_6 C 0.5189(5) 0.5083(2) 0.2416(2)
C16_6 C 0.5896(5) 0.4680(3) 0.2642(2)
H11_6 H 0.6634 0.4654 0.2521
C17_6 C 0.5512(5) 0.4310(2) 0.3052(2)
H12_6 H 0.6004 0.4029 0.3204
C18_6 C 0.5555(5) 0.5493(2) 0.1976(2)
N4_6 N 0.3009(4) 0.3169(2) 0.3241(2)
C19_6 C 0.3678(6) 0.2756(4) 0.3025(4)
H13_6 H 0.4403 0.2722 0.3162
C20_6 C 0.3359(6) 0.2377(3) 0.2613(3)
H14_6 H 0.3858 0.2095 0.2469
C21_6 C 0.2311(5) 0.2417(2) 0.2416(2)
C22_6 C 0.1604(5) 0.2820(3) 0.2642(2)
H15_6 H 0.0866 0.2846 0.2521
C23_6 C 0.1988(5) 0.3190(2) 0.3052(2)
H16_6 H 0.1496 0.3471 0.3204
C24_6 C 0.1945(5) 0.2007(2) 0.1976(2)
C15_7 C 0.0189(5) 0.0083(2) 0.2416(2)
C18_7 C 0.0555(5) 0.0493(2) 0.1976(2)
C3_7 C 0.0189(5) 0.7417(2) 0.5084(2)
C4_7 C 0.0896(5) 0.7820(3) 0.4858(2)
H3_7 H 0.1634 0.7846 0.4979
C5_7 C 0.0512(5) 0.8190(2) 0.4448(2)
H4_7 H 0.1004 0.8471 0.4296
C6_7 C 0.0555(5) 0.7007(2) 0.5524(2)
C16_7 C 0.0896(5) 0.9680(3) 0.2642(2)
H11_7 H 0.1634 0.9654 0.2521
C17_7 C 0.0512(5) 0.9310(2) 0.3052(2)
H12_7 H 0.1004 0.9029 0.3204
C8_7 C 0.8359(6) 0.0123(3) 0.4887(3)
H6_7 H 0.8858 0.0405 0.5031
C9_7 C 0.7311(5) 0.0083(2) 0.5084(2)
C12_7 C 0.6945(5) 0.0493(2) 0.5524(2)
C14_7 C 0.9141(6) 0.0123(3) 0.2613(3)
H10_7 H 0.8642 0.0405 0.2469
Cu1_7 Cu 0.8750 0.8750 0.3750
N1_7 N 0.9491(4) 0.8169(2) 0.4259(2)
C1_7 C 0.8822(6) 0.7756(4) 0.4475(4)
H1_7 H 0.8097 0.7722 0.4338
C2_7 C 0.9141(6) 0.7377(3) 0.4887(3)
H2_7 H 0.8642 0.7095 0.5031
N2_7 N 0.8009(4) 0.9331(2) 0.4259(2)
C7_7 C 0.8678(6) 0.9744(4) 0.4475(4)
H5_7 H 0.9403 0.9778 0.4338
C10_7 C 0.6604(5) 0.9680(3) 0.4858(2)
H7_7 H 0.5866 0.9654 0.4979
C11_7 C 0.6988(5) 0.9310(2) 0.4448(2)
H8_7 H 0.6496 0.9029 0.4296
N3_7 N 0.9491(4) 0.9331(2) 0.3241(2)
C13_7 C 0.8822(6) 0.9744(4) 0.3025(4)
H9_7 H 0.8097 0.9778 0.3162
N4_7 N 0.8009(4) 0.8169(2) 0.3241(2)
C19_7 C 0.8678(6) 0.7756(4) 0.3025(4)
H13_7 H 0.9403 0.7722 0.3162
C20_7 C 0.8359(6) 0.7377(3) 0.2613(3)
H14_7 H 0.8858 0.7095 0.2469
C21_7 C 0.7311(5) 0.7417(2) 0.2416(2)
C22_7 C 0.6604(5) 0.7820(3) 0.2642(2)
H15_7 H 0.5866 0.7846 0.2521
C23_7 C 0.6988(5) 0.8190(2) 0.3052(2)
H16_7 H 0.6496 0.8471 0.3204
C24_7 C 0.6945(5) 0.7007(2) 0.1976(2)
C3_8 C 0.0189(5) 0.2417(2) 0.0084(2)
C6_8 C 0.0555(5) 0.2007(2) 0.0524(2)
C4_8 C 0.0896(5) 0.2820(3) 0.9858(2)
H3_8 H 0.1634 0.2846 0.9979
C5_8 C 0.0512(5) 0.3190(2) 0.9448(2)
H4_8 H 0.1004 0.3471 0.9296
C15_8 C 0.0189(5) 0.5083(2) 0.7416(2)
C16_8 C 0.0896(5) 0.4680(3) 0.7642(2)
H11_8 H 0.1634 0.4654 0.7521
C17_8 C 0.0512(5) 0.4310(2) 0.8052(2)
H12_8 H 0.1004 0.4029 0.8204
C18_8 C 0.0555(5) 0.5493(2) 0.6976(2)
H2_8 H 0.8642 0.2095 0.0031
H6_8 H 0.8858 0.5405 0.0031
C9_8 C 0.7311(5) 0.5083(2) 0.0084(2)
C12_8 C 0.6945(5) 0.5493(2) 0.0524(2)
Cu1_8 Cu 0.8750 0.3750 0.8750
N1_8 N 0.9491(4) 0.3169(2) 0.9259(2)
C1_8 C 0.8822(6) 0.2756(4) 0.9475(4)
H1_8 H 0.8097 0.2722 0.9338
C2_8 C 0.9141(6) 0.2377(3) 0.9887(3)
N2_8 N 0.8009(4) 0.4331(2) 0.9259(2)
C7_8 C 0.8678(6) 0.4744(4) 0.9475(4)
H5_8 H 0.9403 0.4778 0.9338
C8_8 C 0.8359(6) 0.5123(3) 0.9887(3)
C10_8 C 0.6604(5) 0.4680(3) 0.9858(2)
H7_8 H 0.5866 0.4654 0.9979
C11_8 C 0.6988(5) 0.4310(2) 0.9448(2)
H8_8 H 0.6496 0.4029 0.9296
N3_8 N 0.9491(4) 0.4331(2) 0.8241(2)
C13_8 C 0.8822(6) 0.4744(4) 0.8025(4)
H9_8 H 0.8097 0.4778 0.8162
C14_8 C 0.9141(6) 0.5123(3) 0.7613(3)
H10_8 H 0.8642 0.5405 0.7469
N4_8 N 0.8009(4) 0.3169(2) 0.8241(2)
C19_8 C 0.8678(6) 0.2756(4) 0.8025(4)
H13_8 H 0.9403 0.2722 0.8162
C20_8 C 0.8359(6) 0.2377(3) 0.7613(3)
H14_8 H 0.8858 0.2095 0.7469
C21_8 C 0.7311(5) 0.2417(2) 0.7416(2)
C22_8 C 0.6604(5) 0.2820(3) 0.7642(2)
H15_8 H 0.5866 0.2846 0.7521
C23_8 C 0.6988(5) 0.3190(2) 0.8052(2)
H16_8 H 0.6496 0.3471 0.8204
C24_8 C 0.6945(5) 0.2007(2) 0.6976(2)
loop_
_geom_bond_atom_site_label_1
_geom_bond_atom_site_label_2
_geom_bond_site_symmetry_1
_geom_bond_site_symmetry_2
Cu1 N1 1_555 1_555
N1 C1 1_555 1_555
C1 H1 1_555 1_555
C2 C1 1_555 1_555
H3 C4 1_555 1_555
C5 N1 1_555 1_555
H4 C5 1_555 1_555
N2 Cu1 1_555 1_555
C7 N2 1_555 1_555
H5 C7 1_555 1_555
H7 C10 1_555 1_555
C11 N2 1_555 1_555
H8 C11 1_555 1_555
N3 Cu1 1_555 1_555
C13 N3 1_555 1_555
H9 C13 1_555 1_555
H11 C16 1_555 1_555
C17 N3 1_555 1_555
H12 C17 1_555 1_555
O7 C24 1_555 1_555
O8 C24 1_555 1_555
N4 Cu1 1_555 1_555
C19 N4 1_555 1_555
H13 C19 1_555 1_555
C20 C19 1_555 1_555
H14 C20 1_555 1_555
C21 C20 1_555 1_555
C22 C21 1_555 1_555
H15 C22 1_555 1_555
C23 N4 1_555 1_555
H16 C23 1_555 1_555
C24 C21 1_555 1_555
In4 O7 1_555 1_555
C4 C5 1_555 1_555
C10 C11 1_555 1_555
C16 C17 1_555 1_555
O8 In4 1_555 1_555
C22 C23 1_555 1_555
In1 O1 1_555 1_555
O1 C6 1_555 1_555
O2 In1 1_555 1_555
C6 O2 1_555 1_555
O9 In1 1_555 1_555
O10 In1 1_555 1_555
O11 In1 1_555 1_555
O12 In1 1_555 1_555
O13 In1 1_555 1_555
O14 In1 1_555 1_555
C3 C6 1_555 1_555
O5 C18 1_555 1_555
O6 C18 1_555 1_555
H10 C14 1_555 1_555
C15 C14 1_555 1_555
C18 C15 1_555 1_555
In3 O5 1_555 1_555
O6 In3 1_555 1_555
O3 C12 1_555 1_555
O4 C12 1_555 1_555
C12 C9 1_555 1_555
In2 O3 1_555 1_555
O4 In2 1_555 1_555
O9_2 In2 1_555 1_555
O12_2 In2 1_555 1_555
O13_2 In2 1_555 1_555
O14_2 In2 1_555 1_555
O9_3 In3 1_555 1_555
O10_3 In3 1_555 1_555
O11_3 In3 1_555 1_555
O12_3 In3 1_555 1_555
O13_3 In3 1_555 1_555
O14_3 In3 1_555 1_555
O9_4 In4 1_555 1_555
O12_4 In4 1_555 1_555
O13_4 In4 1_555 1_555
O14_4 In4 1_555 1_555
Cu1_2 N1_2 1_555 1_555
O9_3 C6_2 1_555 1_555
N1_2 C1_2 1_555 1_555
C1_2 H1_2 1_555 1_555
C2_2 C1_2 1_555 1_555
H2_2 C2_2 1_555 1_555
C3_2 C2_2 1_555 1_555
C4_2 C3_2 1_555 1_555
H3_2 C4_2 1_555 1_555
C5_2 N1_2 1_555 1_555
H4_2 C5_2 1_555 1_555
C6_2 O12_3 1_555 1_555
O9_4 C12_2 1_555 1_555
O12_4 C12_2 1_555 1_555
N2_2 Cu1_2 1_555 1_555
C7_2 N2_2 1_555 1_555
H5_2 C7_2 1_555 1_555
C8_2 C7_2 1_555 1_555
H6_2 C8_2 1_555 1_555
C9_2 C8_2 1_555 1_555
C10_2 C9_2 1_555 1_555
H7_2 C10_2 1_555 1_555
C11_2 N2_2 1_555 1_555
H8_2 C11_2 1_555 1_555
C12_2 C9_2 1_555 1_555
O9 C18_2 1_555 1_555
O12 C18_2 1_555 1_555
N3_2 Cu1_2 1_555 1_555
C13_2 N3_2 1_555 1_555
H9_2 C13_2 1_555 1_555
C14_2 C13_2 1_555 1_555
H10_2 C14_2 1_555 1_555
C15_2 C14_2 1_555 1_555
C16_2 C15_2 1_555 1_555
H11_2 C16_2 1_555 1_555
C17_2 N3_2 1_555 1_555
H12_2 C17_2 1_555 1_555
C18_2 C15_2 1_555 1_555
O9_2 C24_2 1_555 1_555
O12_2 C24_2 1_555 1_555
N4_2 Cu1_2 1_555 1_555
C19_2 N4_2 1_555 1_555
H13_2 C19_2 1_555 1_555
C20_2 C19_2 1_555 1_555
H14_2 C20_2 1_555 1_555
C21_2 C20_2 1_555 1_555
C22_2 C21_2 1_555 1_555
H15_2 C22_2 1_555 1_555
C23_2 N4_2 1_555 1_555
H16_2 C23_2 1_555 1_555
C24_2 C21_2 1_555 1_555
C3_2 C6_2 1_555 1_555
C4_2 C5_2 1_555 1_555
C10_2 C11_2 1_555 1_555
C16_2 C17_2 1_555 1_555
C22_2 C23_2 1_555 1_555
Cu1_3 N1_3 1_555 1_555
N1_3 C1_3 1_555 1_555
C1_3 H1_3 1_555 1_555
C2_3 C1_3 1_555 1_555
H2_3 C2_3 1_555 1_555
N2_3 Cu1_3 1_555 1_555
C7_3 N2_3 1_555 1_555
H5_3 C7_3 1_555 1_555
H7_3 C10_3 1_555 1_555
C11_3 N2_3 1_555 1_555
H8_3 C11_3 1_555 1_555
N3_3 Cu1_3 1_555 1_555
C13_3 N3_3 1_555 1_555
H9_3 C13_3 1_555 1_555
O10 C24_3 1_555 1_555
O13 C24_3 1_555 1_555
N4_3 Cu1_3 1_555 1_555
C19_3 N4_3 1_555 1_555
H13_3 C19_3 1_555 1_555
C20_3 C19_3 1_555 1_555
H14_3 C20_3 1_555 1_555
C21_3 C20_3 1_555 1_555
C22_3 C21_3 1_555 1_555
H15_3 C22_3 1_555 1_555
C23_3 N4_3 1_555 1_555
H16_3 C23_3 1_555 1_555
C24_3 C21_3 1_555 1_555
C10_3 C11_3 1_555 1_555
C22_3 C23_3 1_555 1_555
O10_3 C12_3 1_555 1_555
O13_3 C12_3 1_555 1_555
H6_3 C8_3 1_555 1_555
C9_3 C8_3 1_555 1_555
C12_3 C9_3 1_555 1_555
H10_3 C14_3 1_555 1_555
C4_3 C3_3 1_555 1_555
H3_3 C4_3 1_555 1_555
H4_3 C5_3 1_555 1_555
C6_3 O13_4 1_555 1_555
H11_3 C16_3 1_555 1_555
H12_3 C17_3 1_555 1_555
C3_3 C6_3 1_555 1_555
C4_3 C5_3 1_555 1_555
C16_3 C17_3 1_555 1_555
O13_2 C18_3 1_555 1_555
C18_3 C15_3 1_555 1_555
Cu1_4 N1_4 1_555 1_555
N1_4 C1_4 1_555 1_555
C1_4 H1_4 1_555 1_555
C2_4 C1_4 1_555 1_555
N2_4 Cu1_4 1_555 1_555
C7_4 N2_4 1_555 1_555
H5_4 C7_4 1_555 1_555
C8_4 C7_4 1_555 1_555
H7_4 C10_4 1_555 1_555
C11_4 N2_4 1_555 1_555
H8_4 C11_4 1_555 1_555
N3_4 Cu1_4 1_555 1_555
C13_4 N3_4 1_555 1_555
H9_4 C13_4 1_555 1_555
C14_4 C13_4 1_555 1_555
H10_4 C14_4 1_555 1_555
O11_3 C24_4 1_555 1_555
O14_3 C24_4 1_555 1_555
N4_4 Cu1_4 1_555 1_555
C19_4 N4_4 1_555 1_555
H13_4 C19_4 1_555 1_555
C20_4 C19_4 1_555 1_555
H14_4 C20_4 1_555 1_555
C21_4 C20_4 1_555 1_555
C22_4 C21_4 1_555 1_555
H15_4 C22_4 1_555 1_555
C23_4 N4_4 1_555 1_555
H16_4 C23_4 1_555 1_555
C24_4 C21_4 1_555 1_555
C10_4 C11_4 1_555 1_555
C22_4 C23_4 1_555 1_555
O11 C12_4 1_555 1_555
O14 C12_4 1_555 1_555
C12_4 C9_4 1_555 1_555
H3_4 C4_4 1_555 1_555
H4_4 C5_4 1_555 1_555
O14_4 C18_4 1_555 1_555
C16_4 C15_4 1_555 1_555
H11_4 C16_4 1_555 1_555
H12_4 C17_4 1_555 1_555
C18_4 C15_4 1_555 1_555
C4_4 C5_4 1_555 1_555
C16_4 C17_4 1_555 1_555
C6_4 O14_2 1_555 1_555
C3_4 C6_4 1_555 1_555
O3_2 C12_5 1_555 1_555
O4_2 C12_5 1_555 1_555
C12_5 C9_5 1_555 1_555
In2_2 O3_2 1_555 1_555
O4_2 In2_2 1_555 1_555
O5_2 C18_5 1_555 1_555
O6_2 C18_5 1_555 1_555
H10_5 C14_5 1_555 1_555
C15_5 C14_5 1_555 1_555
C18_5 C15_5 1_555 1_555
In3_2 O5_2 1_555 1_555
O6_2 In3_2 1_555 1_555
In1_2 O1_2 1_555 1_555
O1_2 C6_5 1_555 1_555
O2_2 In1_2 1_555 1_555
C6_5 O2_2 1_555 1_555
O9_5 In1_2 1_555 1_555
O10_5 In1_2 1_555 1_555
O11_5 In1_2 1_555 1_555
O12_5 In1_2 1_555 1_555
O13_5 In1_2 1_555 1_555
O14_5 In1_2 1_555 1_555
C3_5 C6_5 1_555 1_555
Cu1_5 N1_5 1_555 1_555
N1_5 C1_5 1_555 1_555
C1_5 H1_5 1_555 1_555
C2_5 C1_5 1_555 1_555
H3_5 C4_5 1_555 1_555
C5_5 N1_5 1_555 1_555
H4_5 C5_5 1_555 1_555
N2_5 Cu1_5 1_555 1_555
C7_5 N2_5 1_555 1_555
H5_5 C7_5 1_555 1_555
H7_5 C10_5 1_555 1_555
C11_5 N2_5 1_555 1_555
H8_5 C11_5 1_555 1_555
N3_5 Cu1_5 1_555 1_555
C13_5 N3_5 1_555 1_555
H9_5 C13_5 1_555 1_555
H11_5 C16_5 1_555 1_555
C17_5 N3_5 1_555 1_555
H12_5 C17_5 1_555 1_555
O7_2 C24_5 1_555 1_555
O8_2 C24_5 1_555 1_555
N4_5 Cu1_5 1_555 1_555
C19_5 N4_5 1_555 1_555
H13_5 C19_5 1_555 1_555
C20_5 C19_5 1_555 1_555
H14_5 C20_5 1_555 1_555
C21_5 C20_5 1_555 1_555
C22_5 C21_5 1_555 1_555
H15_5 C22_5 1_555 1_555
C23_5 N4_5 1_555 1_555
H16_5 C23_5 1_555 1_555
C24_5 C21_5 1_555 1_555
In4_2 O7_2 1_555 1_555
C4_5 C5_5 1_555 1_555
C10_5 C11_5 1_555 1_555
C16_5 C17_5 1_555 1_555
O8_2 In4_2 1_555 1_555
C22_5 C23_5 1_555 1_555
O9_6 In2_2 1_555 1_555
O12_6 In2_2 1_555 1_555
O13_6 In2_2 1_555 1_555
O14_6 In2_2 1_555 1_555
O9_7 In3_2 1_555 1_555
O10_7 In3_2 1_555 1_555
O11_7 In3_2 1_555 1_555
O12_7 In3_2 1_555 1_555
O13_7 In3_2 1_555 1_555
O14_7 In3_2 1_555 1_555
O9_8 In4_2 1_555 1_555
O12_8 In4_2 1_555 1_555
O13_8 In4_2 1_555 1_555
O14_8 In4_2 1_555 1_555
Cu1_6 N1_6 1_555 1_555
O9_7 C6_6 1_555 1_555
N1_6 C1_6 1_555 1_555
C1_6 H1_6 1_555 1_555
C2_6 C1_6 1_555 1_555
H2_6 C2_6 1_555 1_555
C3_6 C2_6 1_555 1_555
C4_6 C3_6 1_555 1_555
H3_6 C4_6 1_555 1_555
C5_6 N1_6 1_555 1_555
H4_6 C5_6 1_555 1_555
C6_6 O12_7 1_555 1_555
O9_8 C12_6 1_555 1_555
O12_8 C12_6 1_555 1_555
N2_6 Cu1_6 1_555 1_555
C7_6 N2_6 1_555 1_555
H5_6 C7_6 1_555 1_555
C8_6 C7_6 1_555 1_555
H6_6 C8_6 1_555 1_555
C9_6 C8_6 1_555 1_555
C10_6 C9_6 1_555 1_555
H7_6 C10_6 1_555 1_555
C11_6 N2_6 1_555 1_555
H8_6 C11_6 1_555 1_555
C12_6 C9_6 1_555 1_555
O9_5 C18_6 1_555 1_555
O12_5 C18_6 1_555 1_555
N3_6 Cu1_6 1_555 1_555
C13_6 N3_6 1_555 1_555
H9_6 C13_6 1_555 1_555
C14_6 C13_6 1_555 1_555
H10_6 C14_6 1_555 1_555
C15_6 C14_6 1_555 1_555
C16_6 C15_6 1_555 1_555
H11_6 C16_6 1_555 1_555
C17_6 N3_6 1_555 1_555
H12_6 C17_6 1_555 1_555
C18_6 C15_6 1_555 1_555
O9_6 C24_6 1_555 1_555
O12_6 C24_6 1_555 1_555
N4_6 Cu1_6 1_555 1_555
C19_6 N4_6 1_555 1_555
H13_6 C19_6 1_555 1_555
C20_6 C19_6 1_555 1_555
H14_6 C20_6 1_555 1_555
C21_6 C20_6 1_555 1_555
C22_6 C21_6 1_555 1_555
H15_6 C22_6 1_555 1_555
C23_6 N4_6 1_555 1_555
H16_6 C23_6 1_555 1_555
C24_6 C21_6 1_555 1_555
C3_6 C6_6 1_555 1_555
C4_6 C5_6 1_555 1_555
C10_6 C11_6 1_555 1_555
C16_6 C17_6 1_555 1_555
C22_6 C23_6 1_555 1_555
O13_6 C18_7 1_555 1_555
C18_7 C15_7 1_555 1_555
C4_7 C3_7 1_555 1_555
H3_7 C4_7 1_555 1_555
H4_7 C5_7 1_555 1_555
C6_7 O13_8 1_555 1_555
H11_7 C16_7 1_555 1_555
H12_7 C17_7 1_555 1_555
C3_7 C6_7 1_555 1_555
C4_7 C5_7 1_555 1_555
C16_7 C17_7 1_555 1_555
O10_7 C12_7 1_555 1_555
O13_7 C12_7 1_555 1_555
H6_7 C8_7 1_555 1_555
C9_7 C8_7 1_555 1_555
C12_7 C9_7 1_555 1_555
H10_7 C14_7 1_555 1_555
Cu1_7 N1_7 1_555 1_555
N1_7 C1_7 1_555 1_555
C1_7 H1_7 1_555 1_555
C2_7 C1_7 1_555 1_555
H2_7 C2_7 1_555 1_555
N2_7 Cu1_7 1_555 1_555
C7_7 N2_7 1_555 1_555
H5_7 C7_7 1_555 1_555
H7_7 C10_7 1_555 1_555
C11_7 N2_7 1_555 1_555
H8_7 C11_7 1_555 1_555
N3_7 Cu1_7 1_555 1_555
C13_7 N3_7 1_555 1_555
H9_7 C13_7 1_555 1_555
O10_5 C24_7 1_555 1_555
O13_5 C24_7 1_555 1_555
N4_7 Cu1_7 1_555 1_555
C19_7 N4_7 1_555 1_555
H13_7 C19_7 1_555 1_555
C20_7 C19_7 1_555 1_555
H14_7 C20_7 1_555 1_555
C21_7 C20_7 1_555 1_555
C22_7 C21_7 1_555 1_555
H15_7 C22_7 1_555 1_555
C23_7 N4_7 1_555 1_555
H16_7 C23_7 1_555 1_555
C24_7 C21_7 1_555 1_555
C10_7 C11_7 1_555 1_555
C22_7 C23_7 1_555 1_555
C6_8 O14_6 1_555 1_555
C3_8 C6_8 1_555 1_555
H3_8 C4_8 1_555 1_555
H4_8 C5_8 1_555 1_555
O14_8 C18_8 1_555 1_555
C16_8 C15_8 1_555 1_555
H11_8 C16_8 1_555 1_555
H12_8 C17_8 1_555 1_555
C18_8 C15_8 1_555 1_555
C4_8 C5_8 1_555 1_555
C16_8 C17_8 1_555 1_555
O11_5 C12_8 1_555 1_555
O14_5 C12_8 1_555 1_555
C12_8 C9_8 1_555 1_555
Cu1_8 N1_8 1_555 1_555
N1_8 C1_8 1_555 1_555
C1_8 H1_8 1_555 1_555
C2_8 C1_8 1_555 1_555
N2_8 Cu1_8 1_555 1_555
C7_8 N2_8 1_555 1_555
H5_8 C7_8 1_555 1_555
C8_8 C7_8 1_555 1_555
H7_8 C10_8 1_555 1_555
C11_8 N2_8 1_555 1_555
H8_8 C11_8 1_555 1_555
N3_8 Cu1_8 1_555 1_555
C13_8 N3_8 1_555 1_555
H9_8 C13_8 1_555 1_555
C14_8 C13_8 1_555 1_555
H10_8 C14_8 1_555 1_555
O11_7 C24_8 1_555 1_555
O14_7 C24_8 1_555 1_555
N4_8 Cu1_8 1_555 1_555
C19_8 N4_8 1_555 1_555
H13_8 C19_8 1_555 1_555
C20_8 C19_8 1_555 1_555
H14_8 C20_8 1_555 1_555
C21_8 C20_8 1_555 1_555
C22_8 C21_8 1_555 1_555
H15_8 C22_8 1_555 1_555
C23_8 N4_8 1_555 1_555
H16_8 C23_8 1_555 1_555
C24_8 C21_8 1_555 1_555
C10_8 C11_8 1_555 1_555
C22_8 C23_8 1_555 1_555

#END
