
###############################################################################
#
# This file contains modified crystal structure data generated from the
# MOF subset of the Cambridge Structural Database (CSD) v543 
# hosted by the Cambridge Crystallographic Data Centre (CCDC).
#
# This work is licensed under the Creative Commons
# Attribution-NonCommercial-ShareAlike 4.0 International License.
# To view a copy of this license, visit
# http://creativecommons.org/licenses/by-nc-sa/4.0/
# or send a letter to
# Creative Commons, PO Box 1866, Mountain View, CA 94042, USA.
#
# CIF created using the CSD Python API on 29 September 2022
# The structure has been converted into the P1 space group
# The structure has a 3D framework
# The original CSD entry JOXNAN is in the tetragonal crystal system
# The framework has been calculated to contain at least 10.0% void space
# The void calculation uses a probe of radius 1.32A, grid spacing 0.4
#
###############################################################################

data_JOXNAN
_chemical_formula_moiety         '(C112 H48 Cu16 I10 In6 N16 O64)n'
_symmetry_cell_setting           triclinic
_symmetry_space_group_name_H-M   'P 1'
_symmetry_Int_Tables_number      1
_space_group_name_Hall           'P 1'
loop_
_symmetry_equiv_pos_site_id
_symmetry_equiv_pos_as_xyz
1 x,y,z
_cell_length_a                   20.338(3)
_cell_length_b                   20.338(3)
_cell_length_c                   18.381(5)
_cell_angle_alpha                90
_cell_angle_beta                 90
_cell_angle_gamma                90
_cell_volume                     7603.01
loop_
_atom_site_label
_atom_site_type_symbol
_atom_site_fract_x
_atom_site_fract_y
_atom_site_fract_z
O5 O 0.1036(3) 0.3078(3) 0.5364(4)
O6 O 0.0489(3) 0.2154(3) 0.5569(4)
C8 C 0.0189(4) 0.3413(5) 0.4221(5)
H4 H 0.0571 0.3673 0.4296
C9 C 0.0081(4) 0.2875(4) 0.4673(4)
C13 C 0.0547(4) 0.2679(5) 0.5222(5)
I3 I 0.11201(3) 0.48397(3) 0.33263(3)
In2 In 0.14445(4) 0.2500 0.6250
Cu3 Cu 0.06286(5) 0.49424(6) 0.19757(5)
In1 In 0.7500 0.14445(4) 0.3750
O1 O 0.6922(3) 0.1036(3) 0.4636(4)
O2 O 0.7846(3) 0.0489(3) 0.4431(4)
C1 C 0.6587(5) 0.0189(4) 0.5779(5)
H1 H 0.6327 0.0571 0.5704
C2 C 0.7125(4) 0.0081(4) 0.5327(4)
C6 C 0.7321(5) 0.0547(4) 0.4778(5)
I2 I 0.98397(3) 0.38799(3) 0.16737(3)
Cu2 Cu 0.99424(6) 0.43714(5) 0.30243(5)
O7 O 0.8318(3) 0.1848(3) 0.4337(3)
O8 O 0.8121(3) 0.2415(3) 0.3338(4)
N2 N 0.9767(4) 0.3581(4) 0.3675(4)
C10 C 0.9514(4) 0.2508(4) 0.4567(5)
H5 H 0.9427 0.2131 0.4855
C11 C 0.9066(4) 0.2711(4) 0.4012(4)
C12 C 0.9203(4) 0.3243(5) 0.3596(5)
H6 H 0.8893 0.3381 0.3240
C14 C 0.8467(4) 0.2305(4) 0.3870(5)
I5 I 0.88799(3) 0.51603(3) 0.33263(3)
I6 I 0.51603(3) 0.11201(3) 0.66737(3)
Cu5 Cu 0.93714(5) 0.50576(6) 0.19757(5)
Cu6 Cu 0.50576(6) 0.06286(5) 0.80243(5)
O9 O 0.8078(3) 0.1036(3) 0.2864(4)
O10 O 0.7154(3) 0.0489(3) 0.3069(4)
O11 O 0.6682(3) 0.1848(3) 0.3163(3)
O12 O 0.6879(3) 0.2415(3) 0.4162(4)
I1 I 0.61201(3) 0.98397(3) 0.83263(3)
Cu1 Cu 0.56286(5) 0.99424(6) 0.69757(5)
O3 O 0.8152(3) 0.8318(3) 0.5663(3)
O4 O 0.7585(3) 0.8121(3) 0.6662(4)
N1 N 0.6419(4) 0.9767(4) 0.6325(4)
C3 C 0.7492(4) 0.9514(4) 0.5433(5)
H2 H 0.7869 0.9427 0.5145
C4 C 0.7289(4) 0.9066(4) 0.5988(4)
C5 C 0.6757(5) 0.9203(4) 0.6404(5)
H3 H 0.6619 0.8893 0.6760
C7 C 0.7695(4) 0.8467(4) 0.6130(5)
I4 I 0.48397(3) 0.88799(3) 0.66737(3)
In3 In 0.85555(4) 0.7500 0.6250
Cu4 Cu 0.49424(6) 0.93714(5) 0.80243(5)
I2_2 I 0.38799(3) 0.01603(3) 0.83263(3)
Cu2_2 Cu 0.43714(5) 0.00576(6) 0.69757(5)
O7_2 O 0.1848(3) 0.1682(3) 0.5663(3)
O8_2 O 0.2415(3) 0.1879(3) 0.6662(4)
N2_2 N 0.3581(4) 0.0233(4) 0.6325(4)
C10_2 C 0.2508(4) 0.0486(4) 0.5433(5)
H5_2 H 0.2131 0.0573 0.5145
C11_2 C 0.2711(4) 0.0934(4) 0.5988(4)
C12_2 C 0.3243(5) 0.0797(4) 0.6404(5)
H6_2 H 0.3381 0.1107 0.6760
C14_2 C 0.2305(4) 0.1533(4) 0.6130(5)
O9_2 O 0.1036(3) 0.1922(3) 0.7136(4)
O10_2 O 0.0489(3) 0.2846(3) 0.6931(4)
O11_2 O 0.1848(3) 0.3318(3) 0.6837(3)
O12_2 O 0.2415(3) 0.3121(3) 0.5838(4)
O5_2 O 0.3078(3) 0.8964(3) 0.4636(4)
O6_2 O 0.2154(3) 0.9511(3) 0.4431(4)
C8_2 C 0.3413(5) 0.9811(4) 0.5779(5)
H4_2 H 0.3673 0.9429 0.5704
C9_2 C 0.2875(4) 0.9919(4) 0.5327(4)
C13_2 C 0.2679(5) 0.9453(4) 0.4778(5)
In2_2 In 0.2500 0.85555(4) 0.3750
I2_3 I 0.01603(3) 0.61201(3) 0.16737(3)
Cu2_3 Cu 0.00576(6) 0.56286(5) 0.30243(5)
O7_3 O 0.1682(3) 0.8152(3) 0.4337(3)
O8_3 O 0.1879(3) 0.7585(3) 0.3338(4)
N2_3 N 0.0233(4) 0.6419(4) 0.3675(4)
C10_3 C 0.0486(4) 0.7492(4) 0.4567(5)
H5_3 H 0.0573 0.7869 0.4855
C11_3 C 0.0934(4) 0.7289(4) 0.4012(4)
C12_3 C 0.0797(4) 0.6757(5) 0.3596(5)
H6_3 H 0.1107 0.6619 0.3240
C14_3 C 0.1533(4) 0.7695(4) 0.3870(5)
O9_3 O 0.1922(3) 0.8964(3) 0.2864(4)
O10_3 O 0.2846(3) 0.9511(3) 0.3069(4)
O11_3 O 0.3318(3) 0.8152(3) 0.3163(3)
O12_3 O 0.3121(3) 0.7585(3) 0.4162(4)
O5_3 O 0.8964(3) 0.6922(3) 0.5364(4)
O6_3 O 0.9511(3) 0.7846(3) 0.5569(4)
C8_3 C 0.9811(4) 0.6587(5) 0.4221(5)
H4_3 H 0.9429 0.6327 0.4296
C9_3 C 0.9919(4) 0.7125(4) 0.4673(4)
C13_3 C 0.9453(4) 0.7321(5) 0.5222(5)
O9_4 O 0.8964(3) 0.8078(3) 0.7136(4)
O10_4 O 0.9511(3) 0.7154(3) 0.6931(4)
O11_4 O 0.8152(3) 0.6682(3) 0.6837(3)
O12_4 O 0.7585(3) 0.6879(3) 0.5838(4)
Cu3_2 Cu 0.06286(5) 0.00576(6) 0.05243(5)
C8_4 C 0.0189(4) 0.1587(5) 0.8279(5)
H4_4 H 0.0571 0.1327 0.8204
C9_4 C 0.0081(4) 0.2125(4) 0.7827(4)
C13_4 C 0.0547(4) 0.2321(5) 0.7278(5)
I3_2 I 0.11201(3) 0.01603(3) 0.91737(3)
I2_4 I 0.98397(3) 0.11201(3) 0.08263(3)
I1_2 I 0.61201(3) 0.51603(3) 0.41737(3)
In1_2 In 0.7500 0.35555(4) 0.8750
Cu1_2 Cu 0.56286(5) 0.50576(6) 0.55243(5)
O1_2 O 0.6922(3) 0.3964(3) 0.7864(4)
O2_2 O 0.7846(3) 0.4511(3) 0.8069(4)
N1_2 N 0.6419(4) 0.5233(4) 0.6175(4)
C1_2 C 0.6587(5) 0.4811(4) 0.6721(5)
H1_2 H 0.6327 0.4429 0.6796
C2_2 C 0.7125(4) 0.4919(4) 0.7173(4)
C3_2 C 0.7492(4) 0.5486(4) 0.7067(5)
H2_2 H 0.7869 0.5573 0.7355
C4_2 C 0.7289(4) 0.5934(4) 0.6512(4)
C5_2 C 0.6757(5) 0.5797(4) 0.6096(5)
H3_2 H 0.6619 0.6107 0.5740
C6_2 C 0.7321(5) 0.4453(4) 0.7722(5)
C7_2 C 0.7695(4) 0.6533(4) 0.6370(5)
Cu2_4 Cu 0.99424(6) 0.06286(5) 0.94757(5)
O7_4 O 0.8318(3) 0.3152(3) 0.8163(3)
O8_4 O 0.8121(3) 0.2585(3) 0.9162(4)
N2_4 N 0.9767(4) 0.1419(4) 0.8825(4)
C10_4 C 0.9514(4) 0.2492(4) 0.7933(5)
H5_4 H 0.9427 0.2869 0.7645
C11_4 C 0.9066(4) 0.2289(4) 0.8488(4)
C12_4 C 0.9203(4) 0.1757(5) 0.8904(5)
H6_4 H 0.8893 0.1619 0.9260
C14_4 C 0.8467(4) 0.2695(4) 0.8630(5)
I4_2 I 0.48397(3) 0.61201(3) 0.58263(3)
I6_2 I 0.51603(3) 0.38799(3) 0.58263(3)
Cu4_2 Cu 0.49424(6) 0.56286(5) 0.44757(5)
Cu6_2 Cu 0.50576(6) 0.43714(5) 0.44757(5)
O9_5 O 0.8078(3) 0.3964(3) 0.9636(4)
O10_5 O 0.7154(3) 0.4511(3) 0.9431(4)
O11_5 O 0.6682(3) 0.3152(3) 0.9337(3)
O12_5 O 0.6879(3) 0.2585(3) 0.8338(4)
Cu5_2 Cu 0.93714(5) 0.99424(6) 0.05243(5)
I5_2 I 0.88799(3) 0.98397(3) 0.91737(3)
I2_5 I 0.01603(3) 0.88799(3) 0.08263(3)
I1_3 I 0.38799(3) 0.48397(3) 0.41737(3)
In1_3 In 0.2500 0.64445(4) 0.8750
Cu1_3 Cu 0.43714(5) 0.49424(6) 0.55243(5)
O1_3 O 0.3078(3) 0.6036(3) 0.7864(4)
O2_3 O 0.2154(3) 0.5489(3) 0.8069(4)
N1_3 N 0.3581(4) 0.4767(4) 0.6175(4)
C1_3 C 0.3413(5) 0.5189(4) 0.6721(5)
H1_3 H 0.3673 0.5571 0.6796
C2_3 C 0.2875(4) 0.5081(4) 0.7173(4)
C3_3 C 0.2508(4) 0.4514(4) 0.7067(5)
H2_3 H 0.2131 0.4427 0.7355
C4_3 C 0.2711(4) 0.4066(4) 0.6512(4)
C5_3 C 0.3243(5) 0.4203(4) 0.6096(5)
H3_3 H 0.3381 0.3893 0.5740
C6_3 C 0.2679(5) 0.5547(4) 0.7722(5)
C7_3 C 0.2305(4) 0.3467(4) 0.6370(5)
Cu2_5 Cu 0.00576(6) 0.93714(5) 0.94757(5)
O7_5 O 0.1682(3) 0.6848(3) 0.8163(3)
O8_5 O 0.1879(3) 0.7415(3) 0.9162(4)
N2_5 N 0.0233(4) 0.8581(4) 0.8825(4)
C10_5 C 0.0486(4) 0.7508(4) 0.7933(5)
H5_5 H 0.0573 0.7131 0.7645
C11_5 C 0.0934(4) 0.7711(4) 0.8488(4)
C12_5 C 0.0797(4) 0.8243(5) 0.8904(5)
H6_5 H 0.1107 0.8381 0.9260
C14_5 C 0.1533(4) 0.7305(4) 0.8630(5)
O9_6 O 0.1922(3) 0.6036(3) 0.9636(4)
O10_6 O 0.2846(3) 0.5489(3) 0.9431(4)
O11_6 O 0.3318(3) 0.6848(3) 0.9337(3)
O12_6 O 0.3121(3) 0.7415(3) 0.8338(4)
C8_5 C 0.9811(4) 0.8413(5) 0.8279(5)
H4_5 H 0.9429 0.8673 0.8204
C9_5 C 0.9919(4) 0.7875(4) 0.7827(4)
C13_5 C 0.9453(4) 0.7679(5) 0.7278(5)
O3_2 O 0.3152(3) 0.3318(3) 0.0663(3)
O4_2 O 0.2585(3) 0.3121(3) 0.1662(4)
N1_4 N 0.1419(4) 0.4767(4) 0.1325(4)
C1_4 C 0.1587(5) 0.5189(4) 0.0779(5)
H1_4 H 0.1327 0.5571 0.0704
C2_4 C 0.2125(4) 0.5081(4) 0.0327(4)
C3_4 C 0.2492(4) 0.4514(4) 0.0433(5)
H2_4 H 0.2869 0.4427 0.0145
C4_4 C 0.2289(4) 0.4066(4) 0.0988(4)
C5_4 C 0.1757(5) 0.4203(4) 0.1404(5)
H3_4 H 0.1619 0.3893 0.1760
C7_4 C 0.2695(4) 0.3467(4) 0.1130(5)
O5_4 O 0.6036(3) 0.8078(3) 0.0364(4)
O6_4 O 0.5489(3) 0.7154(3) 0.0569(4)
C13_6 C 0.5547(4) 0.7679(5) 0.0222(5)
In2_3 In 0.64445(4) 0.7500 0.1250
In3_2 In 0.35555(4) 0.2500 0.1250
C6_4 C 0.2321(5) 0.5547(4) 0.9778(5)
N2_6 N 0.4767(4) 0.8581(4) 0.8675(4)
C8_6 C 0.5189(4) 0.8413(5) 0.9221(5)
H4_6 H 0.5571 0.8673 0.9296
C9_6 C 0.5081(4) 0.7875(4) 0.9673(4)
C10_6 C 0.4514(4) 0.7508(4) 0.9567(5)
H5_6 H 0.4427 0.7131 0.9855
C11_6 C 0.4066(4) 0.7711(4) 0.9012(4)
C12_6 C 0.4203(4) 0.8243(5) 0.8596(5)
H6_6 H 0.3893 0.8381 0.8240
C14_6 C 0.3467(4) 0.7305(4) 0.8870(5)
O7_6 O 0.6848(3) 0.6682(3) 0.0663(3)
O8_6 O 0.7415(3) 0.6879(3) 0.1662(4)
N2_7 N 0.8581(4) 0.5233(4) 0.1325(4)
C8_7 C 0.8413(5) 0.4811(4) 0.0779(5)
H4_7 H 0.8673 0.4429 0.0704
C9_7 C 0.7875(4) 0.4919(4) 0.0327(4)
C10_7 C 0.7508(4) 0.5486(4) 0.0433(5)
H5_7 H 0.7131 0.5573 0.0145
C11_7 C 0.7711(4) 0.5934(4) 0.0988(4)
C12_7 C 0.8243(5) 0.5797(4) 0.1404(5)
H6_7 H 0.8381 0.6107 0.1760
C14_7 C 0.7305(4) 0.6533(4) 0.1130(5)
O9_7 O 0.6036(3) 0.6922(3) 0.2136(4)
O10_7 O 0.5489(3) 0.7846(3) 0.1931(4)
O11_7 O 0.6848(3) 0.8318(3) 0.1837(3)
O12_7 O 0.7415(3) 0.8121(3) 0.0838(4)
C13_7 C 0.7679(5) 0.4453(4) 0.9778(5)
O5_5 O 0.3964(3) 0.1922(3) 0.0364(4)
O6_5 O 0.4511(3) 0.2846(3) 0.0569(4)
C13_8 C 0.4453(4) 0.2321(5) 0.0222(5)
N2_8 N 0.5233(4) 0.1419(4) 0.8675(4)
C8_8 C 0.4811(4) 0.1587(5) 0.9221(5)
H4_8 H 0.4429 0.1327 0.9296
C9_8 C 0.4919(4) 0.2125(4) 0.9673(4)
C10_8 C 0.5486(4) 0.2492(4) 0.9567(5)
H5_8 H 0.5573 0.2869 0.9855
C11_8 C 0.5934(4) 0.2289(4) 0.9012(4)
C12_8 C 0.5797(4) 0.1757(5) 0.8596(5)
H6_8 H 0.6107 0.1619 0.8240
C14_8 C 0.6533(4) 0.2695(4) 0.8870(5)
O9_8 O 0.3964(3) 0.3078(3) 0.2136(4)
O10_8 O 0.4511(3) 0.2154(3) 0.1931(4)
O11_8 O 0.3152(3) 0.1682(3) 0.1837(3)
O12_8 O 0.2585(3) 0.1879(3) 0.0838(4)
N1_5 N 0.1419(4) 0.0233(4) 0.1175(4)
C3_5 C 0.2492(4) 0.0486(4) 0.2067(5)
H2_5 H 0.2869 0.0573 0.2355
C4_5 C 0.2289(4) 0.0934(4) 0.1512(4)
C5_5 C 0.1757(5) 0.0797(4) 0.1096(5)
H3_5 H 0.1619 0.1107 0.0740
C7_5 C 0.2695(4) 0.1533(4) 0.1370(5)
C1_5 C 0.1587(5) 0.9811(4) 0.1721(5)
H1_5 H 0.1327 0.9429 0.1796
C2_5 C 0.2125(4) 0.9919(4) 0.2173(4)
C6_5 C 0.2321(5) 0.9453(4) 0.2722(5)
N2_9 N 0.4767(4) 0.6419(4) 0.3825(4)
C8_9 C 0.5189(4) 0.6587(5) 0.3279(5)
H4_9 H 0.5571 0.6327 0.3204
C9_9 C 0.5081(4) 0.7125(4) 0.2827(4)
C10_9 C 0.4514(4) 0.7492(4) 0.2933(5)
H5_9 H 0.4427 0.7869 0.2645
C11_9 C 0.4066(4) 0.7289(4) 0.3488(4)
C12_9 C 0.4203(4) 0.6757(5) 0.3904(5)
H6_9 H 0.3893 0.6619 0.4260
C13_9 C 0.5547(4) 0.7321(5) 0.2278(5)
C14_9 C 0.3467(4) 0.7695(4) 0.3630(5)
C1_6 C 0.8413(5) 0.0189(4) 0.1721(5)
H1_6 H 0.8673 0.0571 0.1796
C2_6 C 0.7875(4) 0.0081(4) 0.2173(4)
C6_6 C 0.7679(5) 0.0547(4) 0.2722(5)
N2_10 N 0.5233(4) 0.3581(4) 0.3825(4)
C8_10 C 0.4811(4) 0.3413(5) 0.3279(5)
H4_10 H 0.4429 0.3673 0.3204
C9_10 C 0.4919(4) 0.2875(4) 0.2827(4)
C10_10 C 0.5486(4) 0.2508(4) 0.2933(5)
H5_10 H 0.5573 0.2131 0.2645
C11_10 C 0.5934(4) 0.2711(4) 0.3488(4)
C12_10 C 0.5797(4) 0.3243(5) 0.3904(5)
H6_10 H 0.6107 0.3381 0.4260
C13_10 C 0.4453(4) 0.2679(5) 0.2278(5)
C14_10 C 0.6533(4) 0.2305(4) 0.3630(5)
N1_6 N 0.8581(4) 0.9767(4) 0.1175(4)
C3_6 C 0.7508(4) 0.9514(4) 0.2067(5)
H2_6 H 0.7131 0.9427 0.2355
C4_6 C 0.7711(4) 0.9066(4) 0.1512(4)
C5_6 C 0.8243(5) 0.9203(4) 0.1096(5)
H3_6 H 0.8381 0.8893 0.0740
C7_6 C 0.7305(4) 0.8467(4) 0.1370(5)
loop_
_geom_bond_atom_site_label_1
_geom_bond_atom_site_label_2
_geom_bond_site_symmetry_1
_geom_bond_site_symmetry_2
O5 C13 1_555 1_555
O6 C13 1_555 1_555
C8 H4 1_555 1_555
C9 C8 1_555 1_555
C13 C9 1_555 1_555
In2 O5 1_555 1_555
O6 In2 1_555 1_555
I3 Cu3 1_555 1_555
In1 O1 1_555 1_555
O1 C6 1_555 1_555
O2 In1 1_555 1_555
C1 H1 1_555 1_555
C2 C1 1_555 1_555
C6 O2 1_555 1_555
I2 Cu2 1_555 1_555
Cu2 N2 1_555 1_555
O7 In1 1_555 1_555
O8 In1 1_555 1_555
H5 C10 1_555 1_555
C11 C10 1_555 1_555
C12 N2 1_555 1_555
H6 C12 1_555 1_555
C14 O7 1_555 1_555
I5 Cu2 1_555 1_555
Cu5 I2 1_555 1_555
O9 In1 1_555 1_555
O10 In1 1_555 1_555
O11 In1 1_555 1_555
O12 In1 1_555 1_555
C2 C6 1_555 1_555
O8 C14 1_555 1_555
C11 C12 1_555 1_555
C11 C14 1_555 1_555
I5 Cu5 1_555 1_555
I6 Cu6 1_555 1_555
I1 Cu1 1_555 1_555
Cu1 N1 1_555 1_555
O3 C7 1_555 1_555
O4 C7 1_555 1_555
H2 C3 1_555 1_555
C4 C3 1_555 1_555
C5 N1 1_555 1_555
H3 C5 1_555 1_555
C7 C4 1_555 1_555
I4 Cu1 1_555 1_555
In3 O3 1_555 1_555
Cu4 I1 1_555 1_555
O4 In3 1_555 1_555
C4 C5 1_555 1_555
I4 Cu4 1_555 1_555
I2_2 Cu2_2 1_555 1_555
Cu2_2 N2_2 1_555 1_555
O7_2 In2 1_555 1_555
O8_2 In2 1_555 1_555
H5_2 C10_2 1_555 1_555
C11_2 C10_2 1_555 1_555
C12_2 N2_2 1_555 1_555
H6_2 C12_2 1_555 1_555
C14_2 O7_2 1_555 1_555
I6 Cu2_2 1_555 1_555
Cu6 I2_2 1_555 1_555
O9_2 In2 1_555 1_555
O10_2 In2 1_555 1_555
O11_2 In2 1_555 1_555
O12_2 In2 1_555 1_555
O8_2 C14_2 1_555 1_555
C11_2 C12_2 1_555 1_555
C11_2 C14_2 1_555 1_555
O5_2 C13_2 1_555 1_555
O6_2 C13_2 1_555 1_555
C8_2 H4_2 1_555 1_555
C9_2 C8_2 1_555 1_555
C13_2 C9_2 1_555 1_555
In2_2 O5_2 1_555 1_555
O6_2 In2_2 1_555 1_555
I2_3 Cu2_3 1_555 1_555
Cu2_3 N2_3 1_555 1_555
O7_3 In2_2 1_555 1_555
O8_3 In2_2 1_555 1_555
H5_3 C10_3 1_555 1_555
C11_3 C10_3 1_555 1_555
C12_3 N2_3 1_555 1_555
H6_3 C12_3 1_555 1_555
C14_3 O7_3 1_555 1_555
I3 Cu2_3 1_555 1_555
Cu3 I2_3 1_555 1_555
O9_3 In2_2 1_555 1_555
O10_3 In2_2 1_555 1_555
O11_3 In2_2 1_555 1_555
O12_3 In2_2 1_555 1_555
O8_3 C14_3 1_555 1_555
C11_3 C12_3 1_555 1_555
C11_3 C14_3 1_555 1_555
O5_3 C13_3 1_555 1_555
O6_3 C13_3 1_555 1_555
C8_3 H4_3 1_555 1_555
C9_3 C8_3 1_555 1_555
C13_3 C9_3 1_555 1_555
In3 O5_3 1_555 1_555
O6_3 In3 1_555 1_555
O9_4 In3 1_555 1_555
O10_4 In3 1_555 1_555
O11_4 In3 1_555 1_555
O12_4 In3 1_555 1_555
O9_2 C13_4 1_555 1_555
O10_2 C13_4 1_555 1_555
C8_4 H4_4 1_555 1_555
C9_4 C8_4 1_555 1_555
C13_4 C9_4 1_555 1_555
I1_2 Cu1_2 1_555 1_555
In1_2 O1_2 1_555 1_555
Cu1_2 N1_2 1_555 1_555
O1_2 C6_2 1_555 1_555
O2_2 In1_2 1_555 1_555
O11_4 C7_2 1_555 1_555
O12_4 C7_2 1_555 1_555
N1_2 C1_2 1_555 1_555
C1_2 H1_2 1_555 1_555
C2_2 C1_2 1_555 1_555
C3_2 C2_2 1_555 1_555
H2_2 C3_2 1_555 1_555
C4_2 C3_2 1_555 1_555
C5_2 N1_2 1_555 1_555
H3_2 C5_2 1_555 1_555
C6_2 O2_2 1_555 1_555
C7_2 C4_2 1_555 1_555
Cu2_4 N2_4 1_555 1_555
O7_4 In1_2 1_555 1_555
O8_4 In1_2 1_555 1_555
H5_4 C10_4 1_555 1_555
C11_4 C10_4 1_555 1_555
C12_4 N2_4 1_555 1_555
H6_4 C12_4 1_555 1_555
C14_4 O7_4 1_555 1_555
I4_2 Cu1_2 1_555 1_555
I6_2 Cu1_2 1_555 1_555
Cu4_2 I1_2 1_555 1_555
Cu6_2 I1_2 1_555 1_555
O9_5 In1_2 1_555 1_555
O10_5 In1_2 1_555 1_555
O11_5 In1_2 1_555 1_555
O12_5 In1_2 1_555 1_555
C2_2 C6_2 1_555 1_555
C4_2 C5_2 1_555 1_555
O8_4 C14_4 1_555 1_555
C11_4 C12_4 1_555 1_555
C11_4 C14_4 1_555 1_555
I4_2 Cu4_2 1_555 1_555
I6_2 Cu6_2 1_555 1_555
I1_3 Cu1_3 1_555 1_555
In1_3 O1_3 1_555 1_555
Cu1_3 N1_3 1_555 1_555
O1_3 C6_3 1_555 1_555
O2_3 In1_3 1_555 1_555
O11_2 C7_3 1_555 1_555
O12_2 C7_3 1_555 1_555
N1_3 C1_3 1_555 1_555
C1_3 H1_3 1_555 1_555
C2_3 C1_3 1_555 1_555
C3_3 C2_3 1_555 1_555
H2_3 C3_3 1_555 1_555
C4_3 C3_3 1_555 1_555
C5_3 N1_3 1_555 1_555
H3_3 C5_3 1_555 1_555
C6_3 O2_3 1_555 1_555
C7_3 C4_3 1_555 1_555
Cu2_5 N2_5 1_555 1_555
O7_5 In1_3 1_555 1_555
O8_5 In1_3 1_555 1_555
H5_5 C10_5 1_555 1_555
C11_5 C10_5 1_555 1_555
C12_5 N2_5 1_555 1_555
H6_5 C12_5 1_555 1_555
C14_5 O7_5 1_555 1_555
I6_2 Cu1_3 1_555 1_555
I4_2 Cu1_3 1_555 1_555
Cu6_2 I1_3 1_555 1_555
Cu4_2 I1_3 1_555 1_555
O9_6 In1_3 1_555 1_555
O10_6 In1_3 1_555 1_555
O11_6 In1_3 1_555 1_555
O12_6 In1_3 1_555 1_555
C2_3 C6_3 1_555 1_555
C4_3 C5_3 1_555 1_555
O8_5 C14_5 1_555 1_555
C11_5 C12_5 1_555 1_555
C11_5 C14_5 1_555 1_555
O9_4 C13_5 1_555 1_555
O10_4 C13_5 1_555 1_555
C8_5 H4_5 1_555 1_555
C9_5 C8_5 1_555 1_555
C13_5 C9_5 1_555 1_555
Cu3 N1_4 1_555 1_555
O3_2 C7_4 1_555 1_555
O4_2 C7_4 1_555 1_555
N1_4 C1_4 1_555 1_555
C1_4 H1_4 1_555 1_555
C2_4 C1_4 1_555 1_555
C3_4 C2_4 1_555 1_555
H2_4 C3_4 1_555 1_555
C4_4 C3_4 1_555 1_555
C5_4 N1_4 1_555 1_555
H3_4 C5_4 1_555 1_555
C7_4 C4_4 1_555 1_555
O5_4 C13_6 1_555 1_555
O6_4 C13_6 1_555 1_555
In2_3 O5_4 1_555 1_555
In3_2 O3_2 1_555 1_555
O4_2 In3_2 1_555 1_555
C4_4 C5_4 1_555 1_555
O6_4 In2_3 1_555 1_555
O9_6 C6_4 1_555 1_555
C6_4 O10_6 1_555 1_555
Cu4 N2_6 1_555 1_555
N2_6 C8_6 1_555 1_555
C8_6 H4_6 1_555 1_555
C9_6 C8_6 1_555 1_555
C10_6 C9_6 1_555 1_555
H5_6 C10_6 1_555 1_555
C11_6 C10_6 1_555 1_555
C12_6 N2_6 1_555 1_555
H6_6 C12_6 1_555 1_555
C14_6 O11_6 1_555 1_555
O12_6 C14_6 1_555 1_555
C11_6 C12_6 1_555 1_555
C11_6 C14_6 1_555 1_555
Cu5 N2_7 1_555 1_555
O7_6 In2_3 1_555 1_555
O8_6 In2_3 1_555 1_555
N2_7 C8_7 1_555 1_555
C8_7 H4_7 1_555 1_555
C9_7 C8_7 1_555 1_555
C10_7 C9_7 1_555 1_555
H5_7 C10_7 1_555 1_555
C11_7 C10_7 1_555 1_555
C12_7 N2_7 1_555 1_555
H6_7 C12_7 1_555 1_555
C14_7 O7_6 1_555 1_555
O9_7 In2_3 1_555 1_555
O10_7 In2_3 1_555 1_555
O11_7 In2_3 1_555 1_555
O12_7 In2_3 1_555 1_555
O8_6 C14_7 1_555 1_555
C11_7 C12_7 1_555 1_555
C11_7 C14_7 1_555 1_555
O9_5 C13_7 1_555 1_555
O10_5 C13_7 1_555 1_555
O5_5 C13_8 1_555 1_555
O6_5 C13_8 1_555 1_555
In3_2 O5_5 1_555 1_555
O6_5 In3_2 1_555 1_555
Cu6 N2_8 1_555 1_555
N2_8 C8_8 1_555 1_555
C8_8 H4_8 1_555 1_555
C9_8 C8_8 1_555 1_555
C10_8 C9_8 1_555 1_555
H5_8 C10_8 1_555 1_555
C11_8 C10_8 1_555 1_555
C12_8 N2_8 1_555 1_555
H6_8 C12_8 1_555 1_555
C14_8 O11_5 1_555 1_555
O12_5 C14_8 1_555 1_555
C11_8 C12_8 1_555 1_555
C11_8 C14_8 1_555 1_555
O9_8 In3_2 1_555 1_555
O10_8 In3_2 1_555 1_555
O11_8 In3_2 1_555 1_555
O12_8 In3_2 1_555 1_555
Cu3_2 N1_5 1_555 1_555
O11_8 C7_5 1_555 1_555
O12_8 C7_5 1_555 1_555
H2_5 C3_5 1_555 1_555
C4_5 C3_5 1_555 1_555
C5_5 N1_5 1_555 1_555
H3_5 C5_5 1_555 1_555
C7_5 C4_5 1_555 1_555
C4_5 C5_5 1_555 1_555
O9_3 C6_5 1_555 1_555
C1_5 H1_5 1_555 1_555
C2_5 C1_5 1_555 1_555
C6_5 O10_3 1_555 1_555
Cu4_2 N2_9 1_555 1_555
O9_7 C13_9 1_555 1_555
O10_7 C13_9 1_555 1_555
N2_9 C8_9 1_555 1_555
C8_9 H4_9 1_555 1_555
C9_9 C8_9 1_555 1_555
C10_9 C9_9 1_555 1_555
H5_9 C10_9 1_555 1_555
C11_9 C10_9 1_555 1_555
C12_9 N2_9 1_555 1_555
H6_9 C12_9 1_555 1_555
C13_9 C9_9 1_555 1_555
C14_9 O11_3 1_555 1_555
C2_5 C6_5 1_555 1_555
O12_3 C14_9 1_555 1_555
C11_9 C12_9 1_555 1_555
C11_9 C14_9 1_555 1_555
O9 C6_6 1_555 1_555
C1_6 H1_6 1_555 1_555
C2_6 C1_6 1_555 1_555
C6_6 O10 1_555 1_555
Cu6_2 N2_10 1_555 1_555
O9_8 C13_10 1_555 1_555
O10_8 C13_10 1_555 1_555
N2_10 C8_10 1_555 1_555
C8_10 H4_10 1_555 1_555
C9_10 C8_10 1_555 1_555
C10_10 C9_10 1_555 1_555
H5_10 C10_10 1_555 1_555
C11_10 C10_10 1_555 1_555
C12_10 N2_10 1_555 1_555
H6_10 C12_10 1_555 1_555
C13_10 C9_10 1_555 1_555
C14_10 O11 1_555 1_555
C2_6 C6_6 1_555 1_555
O12 C14_10 1_555 1_555
C11_10 C12_10 1_555 1_555
C11_10 C14_10 1_555 1_555
Cu5_2 N1_6 1_555 1_555
O11_7 C7_6 1_555 1_555
O12_7 C7_6 1_555 1_555
H2_6 C3_6 1_555 1_555
C4_6 C3_6 1_555 1_555
C5_6 N1_6 1_555 1_555
H3_6 C5_6 1_555 1_555
C7_6 C4_6 1_555 1_555
C4_6 C5_6 1_555 1_555

#END
