
###############################################################################
#
# This file contains modified crystal structure data generated from the
# MOF subset of the Cambridge Structural Database (CSD) v543 
# hosted by the Cambridge Crystallographic Data Centre (CCDC).
#
# This work is licensed under the Creative Commons
# Attribution-NonCommercial-ShareAlike 4.0 International License.
# To view a copy of this license, visit
# http://creativecommons.org/licenses/by-nc-sa/4.0/
# or send a letter to
# Creative Commons, PO Box 1866, Mountain View, CA 94042, USA.
#
# CIF created using the CSD Python API on 29 September 2022
# The structure has been converted into the P1 space group
# The structure has a 3D framework
# The original CSD entry JOXNER is in the orthorhombic crystal system
# The framework has been calculated to contain at least 10.0% void space
# The void calculation uses a probe of radius 1.32A, grid spacing 0.4
#
###############################################################################

data_JOXNER
_chemical_formula_moiety         '(C384 H256 Cu64 I64 In36 N64 O138)n'
_symmetry_cell_setting           triclinic
_symmetry_space_group_name_H-M   'P 1'
_symmetry_Int_Tables_number      1
_space_group_name_Hall           'P 1'
loop_
_symmetry_equiv_pos_site_id
_symmetry_equiv_pos_as_xyz
1 x,y,z
_cell_length_a                   59.030(4)
_cell_length_b                   23.4150(18)
_cell_length_c                   16.1795(7)
_cell_angle_alpha                90
_cell_angle_beta                 90
_cell_angle_gamma                90
_cell_volume                     22363.1
loop_
_atom_site_label
_atom_site_type_symbol
_atom_site_fract_x
_atom_site_fract_y
_atom_site_fract_z
In4 In 0.2500 0.2500 0.0000
In1 In 0.0000 0.5000 0.5000
In2 In 0.00589(2) 0.3750 0.3750
I1 I 0.104028(15) 0.42186(7) 0.50704(5)
I2 I 0.093123(15) 0.28865(8) 0.70235(6)
Cu1 Cu 0.11373(3) 0.31565(14) 0.55503(12)
Cu2 Cu 0.10640(3) 0.39720(15) 0.66884(12)
N1 N 0.0833(2) 0.4520(8) 0.7215(8)
N2 N 0.0959(2) 0.2630(8) 0.4790(8)
C1 C 0.0750(2) 0.2798(7) 0.4564(8)
H1 H 0.0698 0.3163 0.4733
C2 C 0.0382(2) 0.2686(6) 0.3843(8)
C3 C 0.0609(2) 0.2456(5) 0.4093(7)
C4 C 0.0654(2) 0.4687(6) 0.6786(8)
H2 H 0.0633 0.4533 0.6248
C5 C 0.0497(3) 0.5071(6) 0.7079(9)
O1 O 0.03269(17) 0.3171(5) 0.4104(7)
O2 O 0.02630(15) 0.2352(4) 0.3396(6)
C6 C 0.0306(2) 0.5257(5) 0.6533(8)
C7 C 0.0526(4) 0.5312(9) 0.7867(11)
H3 H 0.0427 0.5597 0.8077
C8 C 0.0857(4) 0.4734(11) 0.7983(10)
H4 H 0.0984 0.4616 0.8304
C9 C 0.0709(4) 0.5111(11) 0.8317(11)
H5 H 0.0730 0.5239 0.8868
C10 C 0.1029(4) 0.2155(12) 0.4487(15)
H6 H 0.1185 0.2068 0.4560
O3 O 0.00442(14) 0.4132(3) 0.4907(5)
O4 O 0.02689(15) 0.4978(3) 0.5916(6)
O5 O 0.0197(2) 0.5688(5) 0.6777(6)
C11 C 0.0679(4) 0.1935(11) 0.3811(17)
H7 H 0.0584 0.1709 0.3465
C12 C 0.0896(5) 0.1745(10) 0.405(2)
H8 H 0.0949 0.1371 0.3932
I3 I 0.145972(15) 0.42186(7) 0.74296(5)
I4 I 0.156877(15) 0.28865(8) 0.54765(6)
Cu3 Cu 0.13627(3) 0.31565(14) 0.69497(12)
Cu4 Cu 0.14360(3) 0.39720(15) 0.58116(12)
N3 N 0.1667(2) 0.4520(8) 0.5285(8)
N4 N 0.1541(2) 0.2630(8) 0.7710(8)
C13 C 0.1750(2) 0.2798(7) 0.7936(8)
H9 H 0.1802 0.3163 0.7767
C14 C 0.2118(2) 0.2686(6) 0.8657(8)
C15 C 0.1891(2) 0.2456(5) 0.8407(7)
C16 C 0.1846(2) 0.4687(6) 0.5714(8)
H10 H 0.1867 0.4533 0.6252
C17 C 0.2003(3) 0.5071(6) 0.5421(9)
O6 O 0.21731(17) 0.3171(5) 0.8396(7)
O7 O 0.22370(15) 0.2352(4) 0.9104(6)
C18 C 0.2194(2) 0.5257(5) 0.5967(8)
C19 C 0.1974(4) 0.5312(9) 0.4633(11)
H11 H 0.2073 0.5597 0.4423
C20 C 0.1643(4) 0.4734(11) 0.4517(10)
H12 H 0.1516 0.4616 0.4196
C21 C 0.1791(4) 0.5111(11) 0.4183(11)
H13 H 0.1770 0.5239 0.3632
C22 C 0.1471(4) 0.2155(12) 0.8013(15)
H14 H 0.1315 0.2068 0.7940
O8 O 0.22311(15) 0.4978(3) 0.6584(6)
O9 O 0.2303(2) 0.5688(5) 0.5723(6)
C23 C 0.1821(4) 0.1935(11) 0.8689(17)
H15 H 0.1916 0.1709 0.9035
C24 C 0.1604(5) 0.1745(10) 0.845(2)
H16 H 0.1551 0.1371 0.8568
In3 In 0.2500 0.5000 0.7500
In4_2 In 0.2500 0.2500 1.0000
In5 In 0.0000 0.2500 0.2500
In6 In 0.24411(2) 0.3750 0.8750
In8 In 0.25589(2) 0.6250 0.6250
O11 O 0.03269(17) 0.4329(5) 0.3396(7)
O12 O 0.02630(15) 0.5148(4) 0.4104(6)
O14 O 0.00442(14) 0.3368(3) 0.2593(5)
In1_2 In 1.0000 0.5000 0.5000
O10 O 0.99558(14) 0.5868(3) 0.5093(5)
In5_2 In 1.0000 0.2500 0.2500
In7 In 0.99411(2) 0.6250 0.6250
O13 O 0.97370(15) 0.4852(4) 0.5896(6)
O15 O 0.97311(15) 0.5022(3) 0.4084(6)
O16 O 0.9803(2) 0.4312(5) 0.3223(6)
O17 O 0.9803(2) 0.3188(5) 0.4277(6)
In4_3 In -0.0000 0.0000 0.0000
C3_2 C 0.1891(2) 0.0044(5) 0.4093(7)
O2_2 O 0.22370(15) 0.0148(4) 0.3396(6)
C10_2 C 0.1471(4) 0.0345(12) 0.4487(15)
H6_2 H 0.1315 0.0432 0.4560
C11_2 C 0.1821(4) 0.0565(11) 0.3811(17)
H7_2 H 0.1916 0.0791 0.3465
C12_2 C 0.1604(5) 0.0755(10) 0.405(2)
H8_2 H 0.1551 0.1129 0.3932
C15_2 C 0.0609(2) 0.0044(5) 0.8407(7)
O7_2 O 0.02630(15) 0.0148(4) 0.9104(6)
C22_2 C 0.1029(4) 0.0345(12) 0.8013(15)
H14_2 H 0.1185 0.0432 0.7940
C23_2 C 0.0679(4) 0.0565(11) 0.8689(17)
H15_2 H 0.0584 0.0791 0.9035
C24_2 C 0.0896(5) 0.0755(10) 0.845(2)
H16_2 H 0.0949 0.1129 0.8568
In4_4 In -0.0000 0.0000 1.0000
In5_3 In 0.2500 0.0000 0.2500
In4_5 In -0.0000 1.0000 0.0000
In1_3 In 0.2500 0.7500 0.5000
In2_2 In 0.24411(2) 0.8750 0.3750
I1_2 I 0.145972(15) 0.82814(7) 0.50704(5)
I2_2 I 0.156877(15) 0.96135(8) 0.70235(6)
Cu1_2 Cu 0.13627(3) 0.93435(14) 0.55503(12)
Cu2_2 Cu 0.14360(3) 0.85280(15) 0.66884(12)
N1_2 N 0.1667(2) 0.7980(8) 0.7215(8)
N2_2 N 0.1541(2) 0.9870(8) 0.4790(8)
C1_2 C 0.1750(2) 0.9702(7) 0.4564(8)
H1_2 H 0.1802 0.9337 0.4733
C2_2 C 0.2118(2) 0.9814(6) 0.3843(8)
C4_2 C 0.1846(2) 0.7813(6) 0.6786(8)
H2_2 H 0.1867 0.7967 0.6248
C5_2 C 0.2003(3) 0.7429(6) 0.7079(9)
O1_2 O 0.21731(17) 0.9329(5) 0.4104(7)
C6_2 C 0.2194(2) 0.7243(5) 0.6533(8)
C7_2 C 0.1974(4) 0.7188(9) 0.7867(11)
H3_2 H 0.2073 0.6903 0.8077
C8_2 C 0.1643(4) 0.7766(11) 0.7983(10)
H4_2 H 0.1516 0.7884 0.8304
C9_2 C 0.1791(4) 0.7389(11) 0.8317(11)
H5_2 H 0.1770 0.7261 0.8868
O3_2 O 0.24558(14) 0.8368(3) 0.4907(5)
O4_2 O 0.22311(15) 0.7522(3) 0.5916(6)
O5_2 O 0.2303(2) 0.6812(5) 0.6777(6)
I3_2 I 0.104028(15) 0.82814(7) 0.74296(5)
I4_2 I 0.093123(15) 0.96135(8) 0.54765(6)
Cu3_2 Cu 0.11373(3) 0.93435(14) 0.69497(12)
Cu4_2 Cu 0.10640(3) 0.85280(15) 0.58116(12)
N3_2 N 0.0833(2) 0.7980(8) 0.5285(8)
N4_2 N 0.0959(2) 0.9870(8) 0.7710(8)
C13_2 C 0.0750(2) 0.9702(7) 0.7936(8)
H9_2 H 0.0698 0.9337 0.7767
C14_2 C 0.0382(2) 0.9814(6) 0.8657(8)
C16_2 C 0.0654(2) 0.7813(6) 0.5714(8)
H10_2 H 0.0633 0.7967 0.6252
C17_2 C 0.0497(3) 0.7429(6) 0.5421(9)
O6_2 O 0.03269(17) 0.9329(5) 0.8396(7)
C18_2 C 0.0306(2) 0.7243(5) 0.5967(8)
C19_2 C 0.0526(4) 0.7188(9) 0.4633(11)
H11_2 H 0.0427 0.6903 0.4423
C20_2 C 0.0857(4) 0.7766(11) 0.4517(10)
H12_2 H 0.0984 0.7884 0.4196
C21_2 C 0.0709(4) 0.7389(11) 0.4183(11)
H13_2 H 0.0730 0.7261 0.3632
O8_2 O 0.02689(15) 0.7522(3) 0.6584(6)
O9_2 O 0.0197(2) 0.6812(5) 0.5723(6)
O10_2 O 0.25442(14) 0.6632(3) 0.5093(5)
In3_2 In 0.0000 0.7500 0.7500
In4_6 In -0.0000 1.0000 1.0000
In5_4 In 0.2500 1.0000 0.2500
In6_2 In 0.00589(2) 0.8750 0.8750
O11_2 O 0.21731(17) 0.8171(5) 0.3396(7)
O12_2 O 0.22370(15) 0.7352(4) 0.4104(6)
O13_2 O 0.27630(15) 0.7648(4) 0.5896(6)
O14_2 O 0.24558(14) 0.9132(3) 0.2593(5)
O15_2 O 0.27689(15) 0.7478(3) 0.4084(6)
O16_2 O 0.2697(2) 0.8188(5) 0.3223(6)
O17_2 O 0.2697(2) 0.9312(5) 0.4277(6)
In4_7 In 1.0000 0.0000 0.0000
In4_8 In 1.0000 0.0000 1.0000
In4_9 In 1.0000 1.0000 0.0000
In3_3 In 1.0000 0.7500 0.7500
In4_10 In 1.0000 1.0000 1.0000
O3_3 O 0.00442(14) 0.8368(3) 0.7593(5)
O11_3 O 0.03269(17) 0.8171(5) 0.9104(7)
O12_3 O 0.02630(15) 0.7352(4) 0.8396(6)
O14_3 O 0.00442(14) 0.9132(3) 0.9907(5)
O10_3 O 0.99558(14) 0.6632(3) 0.7407(5)
O13_3 O 0.97370(15) 0.7648(4) 0.6604(6)
O15_3 O 0.97311(15) 0.7478(3) 0.8416(6)
O16_3 O 0.9803(2) 0.8188(5) 0.9277(6)
O17_3 O 0.9803(2) 0.9312(5) 0.8223(6)
O3_4 O 0.24558(14) 0.4132(3) 0.7593(5)
O10_4 O 0.25442(14) 0.5868(3) 0.7407(5)
O11_4 O 0.21731(17) 0.4329(5) 0.9104(7)
O12_4 O 0.22370(15) 0.5148(4) 0.8396(6)
O13_4 O 0.27630(15) 0.4852(4) 0.6604(6)
O14_4 O 0.24558(14) 0.3368(3) 0.9907(5)
O15_4 O 0.27689(15) 0.5022(3) 0.8416(6)
O16_4 O 0.2697(2) 0.4312(5) 0.9277(6)
O17_4 O 0.2697(2) 0.3188(5) 0.8223(6)
C5_3 C 0.0497(3) 0.0071(6) 0.2079(9)
C6_3 C 0.0306(2) 0.0257(5) 0.1533(8)
C7_3 C 0.0526(4) 0.0312(9) 0.2867(11)
H3_3 H 0.0427 0.0597 0.3077
C9_3 C 0.0709(4) 0.0111(11) 0.3317(11)
H5_3 H 0.0730 0.0239 0.3868
O5_3 O 0.0197(2) 0.0688(5) 0.1777(6)
C17_3 C 0.2003(3) 0.0071(6) 0.0421(9)
C18_3 C 0.2194(2) 0.0257(5) 0.0967(8)
O9_3 O 0.2303(2) 0.0688(5) 0.0723(6)
In8_2 In 0.25589(2) 0.1250 0.1250
C19_3 C 0.1974(4) 0.0312(9) 0.9633(11)
H11_3 H 0.2073 0.0597 0.9423
C21_3 C 0.1791(4) 0.0111(11) 0.9183(11)
H13_3 H 0.1770 0.0239 0.8632
I1_3 I 0.104028(15) 0.92186(7) 0.00704(5)
I2_3 I 0.093123(15) 0.78865(8) 0.20235(6)
Cu1_3 Cu 0.11373(3) 0.81565(14) 0.05503(12)
Cu2_3 Cu 0.10640(3) 0.89720(15) 0.16884(12)
N1_3 N 0.0833(2) 0.9520(8) 0.2215(8)
C4_3 C 0.0654(2) 0.9687(6) 0.1786(8)
H2_3 H 0.0633 0.9533 0.1248
C8_3 C 0.0857(4) 0.9734(11) 0.2983(10)
H4_3 H 0.0984 0.9616 0.3304
O4_3 O 0.02689(15) 0.9978(3) 0.0916(6)
I3_3 I 0.145972(15) 0.92186(7) 0.24296(5)
I4_3 I 0.156877(15) 0.78865(8) 0.04765(6)
Cu3_3 Cu 0.13627(3) 0.81565(14) 0.19497(12)
Cu4_3 Cu 0.14360(3) 0.89720(15) 0.08116(12)
N3_3 N 0.1667(2) 0.9520(8) 0.0285(8)
N4_3 N 0.1541(2) 0.7630(8) 0.2710(8)
C13_3 C 0.1750(2) 0.7798(7) 0.2936(8)
H9_3 H 0.1802 0.8163 0.2767
C14_3 C 0.2118(2) 0.7686(6) 0.3657(8)
C15_3 C 0.1891(2) 0.7456(5) 0.3407(7)
C16_3 C 0.1846(2) 0.9687(6) 0.0714(8)
H10_3 H 0.1867 0.9533 0.1252
C22_3 C 0.1471(4) 0.7155(12) 0.3013(15)
H14_3 H 0.1315 0.7068 0.2940
O8_3 O 0.22311(15) 0.9978(3) 0.1584(6)
C23_3 C 0.1821(4) 0.6935(11) 0.3689(17)
H15_3 H 0.1916 0.6709 0.4035
C24_3 C 0.1604(5) 0.6745(10) 0.345(2)
H16_3 H 0.1551 0.6371 0.3568
N2_3 N 0.0959(2) 0.7630(8) 0.9790(8)
C1_3 C 0.0750(2) 0.7798(7) 0.9564(8)
H1_3 H 0.0698 0.8163 0.9733
C2_3 C 0.0382(2) 0.7686(6) 0.8843(8)
C3_3 C 0.0609(2) 0.7456(5) 0.9093(7)
C10_3 C 0.1029(4) 0.7155(12) 0.9487(15)
H6_3 H 0.1185 0.7068 0.9560
C11_3 C 0.0679(4) 0.6935(11) 0.8811(17)
H7_3 H 0.0584 0.6709 0.8465
C12_3 C 0.0896(5) 0.6745(10) 0.905(2)
H8_3 H 0.0949 0.6371 0.8932
C20_3 C 0.1643(4) 0.9734(11) 0.9517(10)
H12_3 H 0.1516 0.9616 0.9196
O10_5 O 0.99558(14) 0.0868(3) 0.0093(5)
In7_2 In 0.99411(2) 0.1250 0.1250
O15_5 O 0.97311(15) 0.0022(3) 0.9084(6)
O13_5 O 0.97370(15) 0.9852(4) 0.0896(6)
I1_4 I 0.145972(15) 0.32814(7) 0.00704(5)
I2_4 I 0.156877(15) 0.46135(8) 0.20235(6)
Cu1_4 Cu 0.13627(3) 0.43435(14) 0.05503(12)
Cu2_4 Cu 0.14360(3) 0.35280(15) 0.16884(12)
N1_4 N 0.1667(2) 0.2980(8) 0.2215(8)
C4_4 C 0.1846(2) 0.2813(6) 0.1786(8)
H2_4 H 0.1867 0.2967 0.1248
C5_4 C 0.2003(3) 0.2429(6) 0.2079(9)
C6_4 C 0.2194(2) 0.2243(5) 0.1533(8)
C7_4 C 0.1974(4) 0.2188(9) 0.2867(11)
H3_4 H 0.2073 0.1903 0.3077
C8_4 C 0.1643(4) 0.2766(11) 0.2983(10)
H4_4 H 0.1516 0.2884 0.3304
C9_4 C 0.1791(4) 0.2389(11) 0.3317(11)
H5_4 H 0.1770 0.2261 0.3868
O4_4 O 0.22311(15) 0.2522(3) 0.0916(6)
O5_4 O 0.2303(2) 0.1812(5) 0.1777(6)
I3_4 I 0.104028(15) 0.32814(7) 0.24296(5)
I4_4 I 0.093123(15) 0.46135(8) 0.04765(6)
Cu3_4 Cu 0.11373(3) 0.43435(14) 0.19497(12)
Cu4_4 Cu 0.10640(3) 0.35280(15) 0.08116(12)
N3_4 N 0.0833(2) 0.2980(8) 0.0285(8)
N4_4 N 0.0959(2) 0.4870(8) 0.2710(8)
C13_4 C 0.0750(2) 0.4702(7) 0.2936(8)
H9_4 H 0.0698 0.4337 0.2767
C14_4 C 0.0382(2) 0.4814(6) 0.3657(8)
C15_4 C 0.0609(2) 0.5044(5) 0.3407(7)
C16_4 C 0.0654(2) 0.2813(6) 0.0714(8)
H10_4 H 0.0633 0.2967 0.1252
C17_4 C 0.0497(3) 0.2429(6) 0.0421(9)
C18_4 C 0.0306(2) 0.2243(5) 0.0967(8)
C22_4 C 0.1029(4) 0.5345(12) 0.3013(15)
H14_4 H 0.1185 0.5432 0.2940
O8_4 O 0.02689(15) 0.2522(3) 0.1584(6)
O9_4 O 0.0197(2) 0.1812(5) 0.0723(6)
C23_4 C 0.0679(4) 0.5565(11) 0.3689(17)
H15_4 H 0.0584 0.5791 0.4035
C24_4 C 0.0896(5) 0.5755(10) 0.345(2)
H16_4 H 0.0949 0.6129 0.3568
O10_6 O 0.25442(14) 0.1632(3) 0.0093(5)
O13_6 O 0.27630(15) 0.2648(4) 0.0896(6)
N2_4 N 0.1541(2) 0.4870(8) 0.9790(8)
C1_4 C 0.1750(2) 0.4702(7) 0.9564(8)
H1_4 H 0.1802 0.4337 0.9733
C2_4 C 0.2118(2) 0.4814(6) 0.8843(8)
C3_4 C 0.1891(2) 0.5044(5) 0.9093(7)
C10_4 C 0.1471(4) 0.5345(12) 0.9487(15)
H6_4 H 0.1315 0.5432 0.9560
C11_4 C 0.1821(4) 0.5565(11) 0.8811(17)
H7_4 H 0.1916 0.5791 0.8465
C12_4 C 0.1604(5) 0.5755(10) 0.905(2)
H8_4 H 0.1551 0.6129 0.8932
C19_4 C 0.0526(4) 0.2188(9) 0.9633(11)
H11_4 H 0.0427 0.1903 0.9423
C20_4 C 0.0857(4) 0.2766(11) 0.9517(10)
H12_4 H 0.0984 0.2884 0.9196
C21_4 C 0.0709(4) 0.2389(11) 0.9183(11)
H13_4 H 0.0730 0.2261 0.8632
O15_6 O 0.27689(15) 0.2478(3) 0.9084(6)
O10_7 O 0.99558(14) 0.1632(3) 0.2407(5)
O13_7 O 0.97370(15) 0.2648(4) 0.1604(6)
O15_7 O 0.97311(15) 0.2478(3) 0.3416(6)
O10_8 O 0.25442(14) 0.0868(3) 0.2407(5)
O15_8 O 0.27689(15) 0.0022(3) 0.3416(6)
O13_8 O 0.27630(15) 0.9852(4) 0.1604(6)
In1_4 In 0.5000 0.5000 0.0000
I1_5 I 0.604028(15) 0.42186(7) 0.00704(5)
I2_5 I 0.593123(15) 0.28865(8) 0.20235(6)
Cu1_5 Cu 0.61373(3) 0.31565(14) 0.05503(12)
Cu2_5 Cu 0.60640(3) 0.39720(15) 0.16884(12)
N1_5 N 0.5833(2) 0.4520(8) 0.2215(8)
C4_5 C 0.5654(2) 0.4687(6) 0.1786(8)
H2_5 H 0.5633 0.4533 0.1248
C5_5 C 0.5497(3) 0.5071(6) 0.2079(9)
C6_5 C 0.5306(2) 0.5257(5) 0.1533(8)
C7_5 C 0.5526(4) 0.5312(9) 0.2867(11)
H3_5 H 0.5427 0.5597 0.3077
C8_5 C 0.5857(4) 0.4734(11) 0.2983(10)
H4_5 H 0.5984 0.4616 0.3304
C9_5 C 0.5709(4) 0.5111(11) 0.3317(11)
H5_5 H 0.5730 0.5239 0.3868
O4_5 O 0.52689(15) 0.4978(3) 0.0916(6)
O5_5 O 0.5197(2) 0.5688(5) 0.1777(6)
I3_5 I 0.645972(15) 0.42186(7) 0.24296(5)
I4_5 I 0.656877(15) 0.28865(8) 0.04765(6)
Cu3_5 Cu 0.63627(3) 0.31565(14) 0.19497(12)
Cu4_5 Cu 0.64360(3) 0.39720(15) 0.08116(12)
N3_5 N 0.6667(2) 0.4520(8) 0.0285(8)
N4_5 N 0.6541(2) 0.2630(8) 0.2710(8)
C13_5 C 0.6750(2) 0.2798(7) 0.2936(8)
H9_5 H 0.6802 0.3163 0.2767
C14_5 C 0.7118(2) 0.2686(6) 0.3657(8)
C15_5 C 0.6891(2) 0.2456(5) 0.3407(7)
C16_5 C 0.6846(2) 0.4687(6) 0.0714(8)
H10_5 H 0.6867 0.4533 0.1252
C17_5 C 0.7003(3) 0.5071(6) 0.0421(9)
O6_3 O 0.71731(17) 0.3171(5) 0.3396(7)
O7_3 O 0.72370(15) 0.2352(4) 0.4104(6)
C18_5 C 0.7194(2) 0.5257(5) 0.0967(8)
C22_5 C 0.6471(4) 0.2155(12) 0.3013(15)
H14_5 H 0.6315 0.2068 0.2940
O8_5 O 0.72311(15) 0.4978(3) 0.1584(6)
O9_5 O 0.7303(2) 0.5688(5) 0.0723(6)
C23_5 C 0.6821(4) 0.1935(11) 0.3689(17)
H15_5 H 0.6916 0.1709 0.4035
C24_5 C 0.6604(5) 0.1745(10) 0.345(2)
H16_5 H 0.6551 0.1371 0.3568
O10_9 O 0.49558(14) 0.5868(3) 0.0093(5)
In3_4 In 0.7500 0.5000 0.2500
In4_11 In 0.7500 0.2500 0.5000
In6_3 In 0.74411(2) 0.3750 0.3750
In7_3 In 0.49411(2) 0.6250 0.1250
In8_3 In 0.75589(2) 0.6250 0.1250
O13_9 O 0.47370(15) 0.4852(4) 0.0896(6)
In1_5 In 0.5000 0.5000 1.0000
In2_3 In 0.50589(2) 0.3750 0.8750
N2_5 N 0.5959(2) 0.2630(8) 0.9790(8)
C1_5 C 0.5750(2) 0.2798(7) 0.9564(8)
H1_5 H 0.5698 0.3163 0.9733
C2_5 C 0.5382(2) 0.2686(6) 0.8843(8)
C3_5 C 0.5609(2) 0.2456(5) 0.9093(7)
O1_3 O 0.53269(17) 0.3171(5) 0.9104(7)
O2_3 O 0.52630(15) 0.2352(4) 0.8396(6)
C10_5 C 0.6029(4) 0.2155(12) 0.9487(15)
H6_5 H 0.6185 0.2068 0.9560
O3_5 O 0.50442(14) 0.4132(3) 0.9907(5)
C11_5 C 0.5679(4) 0.1935(11) 0.8811(17)
H7_5 H 0.5584 0.1709 0.8465
C12_5 C 0.5896(5) 0.1745(10) 0.905(2)
H8_5 H 0.5949 0.1371 0.8932
C19_5 C 0.6974(4) 0.5312(9) 0.9633(11)
H11_5 H 0.7073 0.5597 0.9423
C20_5 C 0.6643(4) 0.4734(11) 0.9517(10)
H12_5 H 0.6516 0.4616 0.9196
C21_5 C 0.6791(4) 0.5111(11) 0.9183(11)
H13_5 H 0.6770 0.5239 0.8632
In5_5 In 0.5000 0.2500 0.7500
O11_5 O 0.53269(17) 0.4329(5) 0.8396(7)
O12_5 O 0.52630(15) 0.5148(4) 0.9104(6)
O14_5 O 0.50442(14) 0.3368(3) 0.7593(5)
O15_9 O 0.47311(15) 0.5022(3) 0.9084(6)
O16_5 O 0.4803(2) 0.4312(5) 0.8223(6)
O17_5 O 0.4803(2) 0.3188(5) 0.9277(6)
C15_6 C 0.5609(2) 0.0044(5) 0.3407(7)
O7_4 O 0.52630(15) 0.0148(4) 0.4104(6)
C22_6 C 0.6029(4) 0.0345(12) 0.3013(15)
H14_6 H 0.6185 0.0432 0.2940
C23_6 C 0.5679(4) 0.0565(11) 0.3689(17)
H15_6 H 0.5584 0.0791 0.4035
C24_6 C 0.5896(5) 0.0755(10) 0.345(2)
H16_6 H 0.5949 0.1129 0.3568
In4_12 In 0.5000 0.0000 0.5000
C3_6 C 0.6891(2) 0.0044(5) 0.9093(7)
O2_4 O 0.72370(15) 0.0148(4) 0.8396(6)
C10_6 C 0.6471(4) 0.0345(12) 0.9487(15)
H6_6 H 0.6315 0.0432 0.9560
C11_6 C 0.6821(4) 0.0565(11) 0.8811(17)
H7_6 H 0.6916 0.0791 0.8465
C12_6 C 0.6604(5) 0.0755(10) 0.905(2)
H8_6 H 0.6551 0.1129 0.8932
In5_6 In 0.7500 0.0000 0.7500
In1_6 In 0.7500 0.7500 0.0000
I1_6 I 0.645972(15) 0.82814(7) 0.00704(5)
I2_6 I 0.656877(15) 0.96135(8) 0.20235(6)
Cu1_6 Cu 0.63627(3) 0.93435(14) 0.05503(12)
Cu2_6 Cu 0.64360(3) 0.85280(15) 0.16884(12)
N1_6 N 0.6667(2) 0.7980(8) 0.2215(8)
C4_6 C 0.6846(2) 0.7813(6) 0.1786(8)
H2_6 H 0.6867 0.7967 0.1248
C5_6 C 0.7003(3) 0.7429(6) 0.2079(9)
C6_6 C 0.7194(2) 0.7243(5) 0.1533(8)
C7_6 C 0.6974(4) 0.7188(9) 0.2867(11)
H3_6 H 0.7073 0.6903 0.3077
C8_6 C 0.6643(4) 0.7766(11) 0.2983(10)
H4_6 H 0.6516 0.7884 0.3304
C9_6 C 0.6791(4) 0.7389(11) 0.3317(11)
H5_6 H 0.6770 0.7261 0.3868
O4_6 O 0.72311(15) 0.7522(3) 0.0916(6)
O5_6 O 0.7303(2) 0.6812(5) 0.1777(6)
I3_6 I 0.604028(15) 0.82814(7) 0.24296(5)
I4_6 I 0.593123(15) 0.96135(8) 0.04765(6)
Cu3_6 Cu 0.61373(3) 0.93435(14) 0.19497(12)
Cu4_6 Cu 0.60640(3) 0.85280(15) 0.08116(12)
N3_6 N 0.5833(2) 0.7980(8) 0.0285(8)
N4_6 N 0.5959(2) 0.9870(8) 0.2710(8)
C13_6 C 0.5750(2) 0.9702(7) 0.2936(8)
H9_6 H 0.5698 0.9337 0.2767
C14_6 C 0.5382(2) 0.9814(6) 0.3657(8)
C16_6 C 0.5654(2) 0.7813(6) 0.0714(8)
H10_6 H 0.5633 0.7967 0.1252
C17_6 C 0.5497(3) 0.7429(6) 0.0421(9)
O6_4 O 0.53269(17) 0.9329(5) 0.3396(7)
C18_6 C 0.5306(2) 0.7243(5) 0.0967(8)
O8_6 O 0.52689(15) 0.7522(3) 0.1584(6)
O9_6 O 0.5197(2) 0.6812(5) 0.0723(6)
O10_10 O 0.75442(14) 0.6632(3) 0.0093(5)
In3_5 In 0.5000 0.7500 0.2500
In4_13 In 0.5000 1.0000 0.5000
In6_4 In 0.50589(2) 0.8750 0.3750
O13_10 O 0.77630(15) 0.7648(4) 0.0896(6)
In1_7 In 0.7500 0.7500 1.0000
In2_4 In 0.74411(2) 0.8750 0.8750
N2_6 N 0.6541(2) 0.9870(8) 0.9790(8)
C1_6 C 0.6750(2) 0.9702(7) 0.9564(8)
H1_6 H 0.6802 0.9337 0.9733
C2_6 C 0.7118(2) 0.9814(6) 0.8843(8)
O1_4 O 0.71731(17) 0.9329(5) 0.9104(7)
O3_6 O 0.74558(14) 0.8368(3) 0.9907(5)
C19_6 C 0.5526(4) 0.7188(9) 0.9633(11)
H11_6 H 0.5427 0.6903 0.9423
C20_6 C 0.5857(4) 0.7766(11) 0.9517(10)
H12_6 H 0.5984 0.7884 0.9196
C21_6 C 0.5709(4) 0.7389(11) 0.9183(11)
H13_6 H 0.5730 0.7261 0.8632
In5_7 In 0.7500 1.0000 0.7500
O11_6 O 0.71731(17) 0.8171(5) 0.8396(7)
O12_6 O 0.72370(15) 0.7352(4) 0.9104(6)
O14_6 O 0.74558(14) 0.9132(3) 0.7593(5)
O15_10 O 0.77689(15) 0.7478(3) 0.9084(6)
O16_6 O 0.7697(2) 0.8188(5) 0.8223(6)
O17_6 O 0.7697(2) 0.9312(5) 0.9277(6)
O3_7 O 0.50442(14) 0.8368(3) 0.2593(5)
O10_11 O 0.49558(14) 0.6632(3) 0.2407(5)
O11_7 O 0.53269(17) 0.8171(5) 0.4104(7)
O12_7 O 0.52630(15) 0.7352(4) 0.3396(6)
O13_11 O 0.47370(15) 0.7648(4) 0.1604(6)
O14_7 O 0.50442(14) 0.9132(3) 0.4907(5)
O15_11 O 0.47311(15) 0.7478(3) 0.3416(6)
O16_7 O 0.4803(2) 0.8188(5) 0.4277(6)
O17_7 O 0.4803(2) 0.9312(5) 0.3223(6)
O3_8 O 0.74558(14) 0.4132(3) 0.2593(5)
O10_12 O 0.75442(14) 0.5868(3) 0.2407(5)
O11_8 O 0.71731(17) 0.4329(5) 0.4104(7)
O12_8 O 0.72370(15) 0.5148(4) 0.3396(6)
O13_12 O 0.77630(15) 0.4852(4) 0.1604(6)
O14_8 O 0.74558(14) 0.3368(3) 0.4907(5)
O15_12 O 0.77689(15) 0.5022(3) 0.3416(6)
O16_8 O 0.7697(2) 0.4312(5) 0.4277(6)
O17_8 O 0.7697(2) 0.3188(5) 0.3223(6)
C5_7 C 0.5497(3) 0.0071(6) 0.7079(9)
C6_7 C 0.5306(2) 0.0257(5) 0.6533(8)
C7_7 C 0.5526(4) 0.0312(9) 0.7867(11)
H3_7 H 0.5427 0.0597 0.8077
C9_7 C 0.5709(4) 0.0111(11) 0.8317(11)
H5_7 H 0.5730 0.0239 0.8868
O5_7 O 0.5197(2) 0.0688(5) 0.6777(6)
C17_7 C 0.7003(3) 0.0071(6) 0.5421(9)
C18_7 C 0.7194(2) 0.0257(5) 0.5967(8)
C19_7 C 0.6974(4) 0.0312(9) 0.4633(11)
H11_7 H 0.7073 0.0597 0.4423
C21_7 C 0.6791(4) 0.0111(11) 0.4183(11)
H13_7 H 0.6770 0.0239 0.3632
O9_7 O 0.7303(2) 0.0688(5) 0.5723(6)
O10_13 O 0.49558(14) 0.0868(3) 0.5093(5)
In7_4 In 0.49411(2) 0.1250 0.6250
In8_4 In 0.75589(2) 0.1250 0.6250
O15_13 O 0.47311(15) 0.0022(3) 0.4084(6)
I1_7 I 0.604028(15) 0.92186(7) 0.50704(5)
I2_7 I 0.593123(15) 0.78865(8) 0.70235(6)
Cu1_7 Cu 0.61373(3) 0.81565(14) 0.55503(12)
Cu2_7 Cu 0.60640(3) 0.89720(15) 0.66884(12)
N1_7 N 0.5833(2) 0.9520(8) 0.7215(8)
N2_7 N 0.5959(2) 0.7630(8) 0.4790(8)
C1_7 C 0.5750(2) 0.7798(7) 0.4564(8)
H1_7 H 0.5698 0.8163 0.4733
C2_7 C 0.5382(2) 0.7686(6) 0.3843(8)
C3_7 C 0.5609(2) 0.7456(5) 0.4093(7)
C4_7 C 0.5654(2) 0.9687(6) 0.6786(8)
H2_7 H 0.5633 0.9533 0.6248
C8_7 C 0.5857(4) 0.9734(11) 0.7983(10)
H4_7 H 0.5984 0.9616 0.8304
C10_7 C 0.6029(4) 0.7155(12) 0.4487(15)
H6_7 H 0.6185 0.7068 0.4560
O4_7 O 0.52689(15) 0.9978(3) 0.5916(6)
C11_7 C 0.5679(4) 0.6935(11) 0.3811(17)
H7_7 H 0.5584 0.6709 0.3465
C12_7 C 0.5896(5) 0.6745(10) 0.405(2)
H8_7 H 0.5949 0.6371 0.3932
I3_7 I 0.645972(15) 0.92186(7) 0.74296(5)
I4_7 I 0.656877(15) 0.78865(8) 0.54765(6)
Cu3_7 Cu 0.63627(3) 0.81565(14) 0.69497(12)
Cu4_7 Cu 0.64360(3) 0.89720(15) 0.58116(12)
N3_7 N 0.6667(2) 0.9520(8) 0.5285(8)
N4_7 N 0.6541(2) 0.7630(8) 0.7710(8)
C13_7 C 0.6750(2) 0.7798(7) 0.7936(8)
H9_7 H 0.6802 0.8163 0.7767
C14_7 C 0.7118(2) 0.7686(6) 0.8657(8)
C15_7 C 0.6891(2) 0.7456(5) 0.8407(7)
C16_7 C 0.6846(2) 0.9687(6) 0.5714(8)
H10_7 H 0.6867 0.9533 0.6252
C20_7 C 0.6643(4) 0.9734(11) 0.4517(10)
H12_7 H 0.6516 0.9616 0.4196
C22_7 C 0.6471(4) 0.7155(12) 0.8013(15)
H14_7 H 0.6315 0.7068 0.7940
O8_7 O 0.72311(15) 0.9978(3) 0.6584(6)
C23_7 C 0.6821(4) 0.6935(11) 0.8689(17)
H15_7 H 0.6916 0.6709 0.9035
C24_7 C 0.6604(5) 0.6745(10) 0.845(2)
H16_7 H 0.6551 0.6371 0.8568
O13_13 O 0.47370(15) 0.9852(4) 0.5896(6)
I1_8 I 0.645972(15) 0.32814(7) 0.50704(5)
I2_8 I 0.656877(15) 0.46135(8) 0.70235(6)
Cu1_8 Cu 0.63627(3) 0.43435(14) 0.55503(12)
Cu2_8 Cu 0.64360(3) 0.35280(15) 0.66884(12)
N1_8 N 0.6667(2) 0.2980(8) 0.7215(8)
N2_8 N 0.6541(2) 0.4870(8) 0.4790(8)
C1_8 C 0.6750(2) 0.4702(7) 0.4564(8)
H1_8 H 0.6802 0.4337 0.4733
C2_8 C 0.7118(2) 0.4814(6) 0.3843(8)
C3_8 C 0.6891(2) 0.5044(5) 0.4093(7)
C4_8 C 0.6846(2) 0.2813(6) 0.6786(8)
H2_8 H 0.6867 0.2967 0.6248
C5_8 C 0.7003(3) 0.2429(6) 0.7079(9)
C6_8 C 0.7194(2) 0.2243(5) 0.6533(8)
C7_8 C 0.6974(4) 0.2188(9) 0.7867(11)
H3_8 H 0.7073 0.1903 0.8077
C8_8 C 0.6643(4) 0.2766(11) 0.7983(10)
H4_8 H 0.6516 0.2884 0.8304
C9_8 C 0.6791(4) 0.2389(11) 0.8317(11)
H5_8 H 0.6770 0.2261 0.8868
C10_8 C 0.6471(4) 0.5345(12) 0.4487(15)
H6_8 H 0.6315 0.5432 0.4560
O4_8 O 0.72311(15) 0.2522(3) 0.5916(6)
O5_8 O 0.7303(2) 0.1812(5) 0.6777(6)
C11_8 C 0.6821(4) 0.5565(11) 0.3811(17)
H7_8 H 0.6916 0.5791 0.3465
C12_8 C 0.6604(5) 0.5755(10) 0.405(2)
H8_8 H 0.6551 0.6129 0.3932
I3_8 I 0.604028(15) 0.32814(7) 0.74296(5)
I4_8 I 0.593123(15) 0.46135(8) 0.54765(6)
Cu3_8 Cu 0.61373(3) 0.43435(14) 0.69497(12)
Cu4_8 Cu 0.60640(3) 0.35280(15) 0.58116(12)
N3_8 N 0.5833(2) 0.2980(8) 0.5285(8)
N4_8 N 0.5959(2) 0.4870(8) 0.7710(8)
C13_8 C 0.5750(2) 0.4702(7) 0.7936(8)
H9_8 H 0.5698 0.4337 0.7767
C14_8 C 0.5382(2) 0.4814(6) 0.8657(8)
C15_8 C 0.5609(2) 0.5044(5) 0.8407(7)
C16_8 C 0.5654(2) 0.2813(6) 0.5714(8)
H10_8 H 0.5633 0.2967 0.6252
C17_8 C 0.5497(3) 0.2429(6) 0.5421(9)
C18_8 C 0.5306(2) 0.2243(5) 0.5967(8)
C19_8 C 0.5526(4) 0.2188(9) 0.4633(11)
H11_8 H 0.5427 0.1903 0.4423
C20_8 C 0.5857(4) 0.2766(11) 0.4517(10)
H12_8 H 0.5984 0.2884 0.4196
C21_8 C 0.5709(4) 0.2389(11) 0.4183(11)
H13_8 H 0.5730 0.2261 0.3632
C22_8 C 0.6029(4) 0.5345(12) 0.8013(15)
H14_8 H 0.6185 0.5432 0.7940
O8_8 O 0.52689(15) 0.2522(3) 0.6584(6)
O9_8 O 0.5197(2) 0.1812(5) 0.5723(6)
C23_8 C 0.5679(4) 0.5565(11) 0.8689(17)
H15_8 H 0.5584 0.5791 0.9035
C24_8 C 0.5896(5) 0.5755(10) 0.845(2)
H16_8 H 0.5949 0.6129 0.8568
O10_14 O 0.75442(14) 0.1632(3) 0.5093(5)
O13_14 O 0.77630(15) 0.2648(4) 0.5896(6)
O15_14 O 0.77689(15) 0.2478(3) 0.4084(6)
O10_15 O 0.49558(14) 0.1632(3) 0.7407(5)
O13_15 O 0.47370(15) 0.2648(4) 0.6604(6)
O15_15 O 0.47311(15) 0.2478(3) 0.8416(6)
O10_16 O 0.75442(14) 0.0868(3) 0.7407(5)
O15_16 O 0.77689(15) 0.0022(3) 0.8416(6)
O13_16 O 0.77630(15) 0.9852(4) 0.6604(6)
I1_9 I 0.895972(15) 0.57814(7) 0.49296(5)
I2_9 I 0.906877(15) 0.71135(8) 0.29765(6)
Cu1_9 Cu 0.88627(3) 0.68435(14) 0.44497(12)
Cu2_9 Cu 0.89360(3) 0.60280(15) 0.33116(12)
N1_9 N 0.9167(2) 0.5480(8) 0.2785(8)
N2_9 N 0.9041(2) 0.7370(8) 0.5210(8)
C1_9 C 0.9250(2) 0.7202(7) 0.5436(8)
H1_9 H 0.9302 0.6837 0.5267
C2_9 C 0.9618(2) 0.7314(6) 0.6157(8)
C3_9 C 0.9391(2) 0.7544(5) 0.5907(7)
C4_9 C 0.9346(2) 0.5313(6) 0.3214(8)
H2_9 H 0.9367 0.5467 0.3752
C5_9 C 0.9503(3) 0.4929(6) 0.2921(9)
O1_5 O 0.96731(17) 0.6829(5) 0.5896(7)
C6_9 C 0.9694(2) 0.4743(5) 0.3467(8)
C7_9 C 0.9474(4) 0.4688(9) 0.2133(11)
H3_9 H 0.9573 0.4403 0.1923
C8_9 C 0.9143(4) 0.5266(11) 0.2017(10)
H4_9 H 0.9016 0.5384 0.1696
C9_9 C 0.9291(4) 0.4889(11) 0.1683(11)
H5_9 H 0.9270 0.4761 0.1132
C10_9 C 0.8971(4) 0.7845(12) 0.5513(15)
H6_9 H 0.8815 0.7932 0.5440
C11_9 C 0.9321(4) 0.8065(11) 0.6189(17)
H7_9 H 0.9416 0.8291 0.6535
C12_9 C 0.9104(5) 0.8255(10) 0.595(2)
H8_9 H 0.9051 0.8629 0.6068
I3_9 I 0.854028(15) 0.57814(7) 0.25704(5)
I4_9 I 0.843123(15) 0.71135(8) 0.45235(6)
Cu3_9 Cu 0.86373(3) 0.68435(14) 0.30503(12)
Cu4_9 Cu 0.85640(3) 0.60280(15) 0.41884(12)
N3_9 N 0.8333(2) 0.5480(8) 0.4715(8)
N4_9 N 0.8459(2) 0.7370(8) 0.2290(8)
C13_9 C 0.8250(2) 0.7202(7) 0.2064(8)
H9_9 H 0.8198 0.6837 0.2233
C14_9 C 0.7882(2) 0.7314(6) 0.1343(8)
C15_9 C 0.8109(2) 0.7544(5) 0.1593(7)
C16_9 C 0.8154(2) 0.5313(6) 0.4286(8)
H10_9 H 0.8133 0.5467 0.3748
C17_9 C 0.7997(3) 0.4929(6) 0.4579(9)
O6_5 O 0.78269(17) 0.6829(5) 0.1604(7)
C18_9 C 0.7806(2) 0.4743(5) 0.4033(8)
C19_9 C 0.8026(4) 0.4688(9) 0.5367(11)
H11_9 H 0.7927 0.4403 0.5577
C20_9 C 0.8357(4) 0.5266(11) 0.5483(10)
H12_9 H 0.8484 0.5384 0.5804
C21_9 C 0.8209(4) 0.4889(11) 0.5817(11)
H13_9 H 0.8230 0.4761 0.6368
C22_9 C 0.8529(4) 0.7845(12) 0.1987(15)
H14_9 H 0.8685 0.7932 0.2060
C23_9 C 0.8179(4) 0.8065(11) 0.1311(17)
H15_9 H 0.8084 0.8291 0.0965
C24_9 C 0.8396(5) 0.8255(10) 0.155(2)
H16_9 H 0.8449 0.8629 0.1432
O11_9 O 0.96731(17) 0.5671(5) 0.6604(7)
I1_10 I 0.854028(15) 0.17186(7) 0.49296(5)
I2_10 I 0.843123(15) 0.03865(8) 0.29765(6)
Cu1_10 Cu 0.86373(3) 0.06565(14) 0.44497(12)
Cu2_10 Cu 0.85640(3) 0.14720(15) 0.33116(12)
N1_10 N 0.8333(2) 0.2020(8) 0.2785(8)
N2_10 N 0.8459(2) 0.0130(8) 0.5210(8)
C1_10 C 0.8250(2) 0.0298(7) 0.5436(8)
H1_10 H 0.8198 0.0663 0.5267
C2_10 C 0.7882(2) 0.0186(6) 0.6157(8)
C4_10 C 0.8154(2) 0.2187(6) 0.3214(8)
H2_10 H 0.8133 0.2033 0.3752
C5_10 C 0.7997(3) 0.2571(6) 0.2921(9)
O1_6 O 0.78269(17) 0.0671(5) 0.5896(7)
C6_10 C 0.7806(2) 0.2757(5) 0.3467(8)
C7_10 C 0.8026(4) 0.2812(9) 0.2133(11)
H3_10 H 0.7927 0.3097 0.1923
C8_10 C 0.8357(4) 0.2234(11) 0.2017(10)
H4_10 H 0.8484 0.2116 0.1696
C9_10 C 0.8209(4) 0.2611(11) 0.1683(11)
H5_10 H 0.8230 0.2739 0.1132
I3_10 I 0.895972(15) 0.17186(7) 0.25704(5)
I4_10 I 0.906877(15) 0.03865(8) 0.45235(6)
Cu3_10 Cu 0.88627(3) 0.06565(14) 0.30503(12)
Cu4_10 Cu 0.89360(3) 0.14720(15) 0.41884(12)
N3_10 N 0.9167(2) 0.2020(8) 0.4715(8)
N4_10 N 0.9041(2) 0.0130(8) 0.2290(8)
C13_10 C 0.9250(2) 0.0298(7) 0.2064(8)
H9_10 H 0.9302 0.0663 0.2233
C14_10 C 0.9618(2) 0.0186(6) 0.1343(8)
C16_10 C 0.9346(2) 0.2187(6) 0.4286(8)
H10_10 H 0.9367 0.2033 0.3748
C17_10 C 0.9503(3) 0.2571(6) 0.4579(9)
O6_6 O 0.96731(17) 0.0671(5) 0.1604(7)
C18_10 C 0.9694(2) 0.2757(5) 0.4033(8)
C19_10 C 0.9474(4) 0.2812(9) 0.5367(11)
H11_10 H 0.9573 0.3097 0.5577
C20_10 C 0.9143(4) 0.2234(11) 0.5483(10)
H12_10 H 0.9016 0.2116 0.5804
C21_10 C 0.9291(4) 0.2611(11) 0.5817(11)
H13_10 H 0.9270 0.2739 0.6368
O11_10 O 0.78269(17) 0.1829(5) 0.6604(7)
C3_10 C 0.8109(2) 0.9956(5) 0.5907(7)
C10_10 C 0.8529(4) 0.9655(12) 0.5513(15)
H6_10 H 0.8685 0.9568 0.5440
C11_10 C 0.8179(4) 0.9435(11) 0.6189(17)
H7_10 H 0.8084 0.9209 0.6535
C12_10 C 0.8396(5) 0.9245(10) 0.595(2)
H8_10 H 0.8449 0.8871 0.6068
C15_10 C 0.9391(2) 0.9956(5) 0.1593(7)
C22_10 C 0.8971(4) 0.9655(12) 0.1987(15)
H14_10 H 0.8815 0.9568 0.2060
C23_10 C 0.9321(4) 0.9435(11) 0.1311(17)
H15_10 H 0.9416 0.9209 0.0965
C24_10 C 0.9104(5) 0.9245(10) 0.155(2)
H16_10 H 0.9051 0.8871 0.1432
O11_11 O 0.96731(17) 0.1829(5) 0.0896(7)
O11_12 O 0.78269(17) 0.5671(5) 0.0896(7)
N2_11 N 0.9041(2) 0.2370(8) 0.0210(8)
C1_11 C 0.9250(2) 0.2202(7) 0.0436(8)
H1_11 H 0.9302 0.1837 0.0267
C2_11 C 0.9618(2) 0.2314(6) 0.1157(8)
C3_11 C 0.9391(2) 0.2544(5) 0.0907(7)
C10_11 C 0.8971(4) 0.2845(12) 0.0513(15)
H6_11 H 0.8815 0.2932 0.0440
C11_11 C 0.9321(4) 0.3065(11) 0.1189(17)
H7_11 H 0.9416 0.3291 0.1535
C12_11 C 0.9104(5) 0.3255(10) 0.095(2)
H8_11 H 0.9051 0.3629 0.1068
C20_11 C 0.8357(4) 0.0266(11) 0.0483(10)
H12_11 H 0.8484 0.0384 0.0804
I1_11 I 0.895972(15) 0.07814(7) 0.99296(5)
I2_11 I 0.906877(15) 0.21135(8) 0.79765(6)
Cu1_11 Cu 0.88627(3) 0.18435(14) 0.94497(12)
Cu2_11 Cu 0.89360(3) 0.10280(15) 0.83116(12)
N1_11 N 0.9167(2) 0.0480(8) 0.7785(8)
C4_11 C 0.9346(2) 0.0313(6) 0.8214(8)
H2_11 H 0.9367 0.0467 0.8752
C8_11 C 0.9143(4) 0.0266(11) 0.7017(10)
H4_11 H 0.9016 0.0384 0.6696
I3_11 I 0.854028(15) 0.07814(7) 0.75704(5)
I4_11 I 0.843123(15) 0.21135(8) 0.95235(6)
Cu3_11 Cu 0.86373(3) 0.18435(14) 0.80503(12)
Cu4_11 Cu 0.85640(3) 0.10280(15) 0.91884(12)
N3_11 N 0.8333(2) 0.0480(8) 0.9715(8)
N4_11 N 0.8459(2) 0.2370(8) 0.7290(8)
C13_11 C 0.8250(2) 0.2202(7) 0.7064(8)
H9_11 H 0.8198 0.1837 0.7233
C14_11 C 0.7882(2) 0.2314(6) 0.6343(8)
C15_11 C 0.8109(2) 0.2544(5) 0.6593(7)
C16_11 C 0.8154(2) 0.0313(6) 0.9286(8)
H10_11 H 0.8133 0.0467 0.8748
C22_11 C 0.8529(4) 0.2845(12) 0.6987(15)
H14_11 H 0.8685 0.2932 0.7060
C23_11 C 0.8179(4) 0.3065(11) 0.6311(17)
H15_11 H 0.8084 0.3291 0.5965
C24_11 C 0.8396(5) 0.3255(10) 0.655(2)
H16_11 H 0.8449 0.3629 0.6432
C19_11 C 0.8026(4) 0.9688(9) 0.0367(11)
H11_11 H 0.7927 0.9403 0.0577
C21_11 C 0.8209(4) 0.9889(11) 0.0817(11)
H13_11 H 0.8230 0.9761 0.1368
C5_11 C 0.9503(3) 0.9929(6) 0.7921(9)
C6_11 C 0.9694(2) 0.9743(5) 0.8467(8)
C7_11 C 0.9474(4) 0.9688(9) 0.7133(11)
H3_11 H 0.9573 0.9403 0.6923
C9_11 C 0.9291(4) 0.9889(11) 0.6683(11)
H5_11 H 0.9270 0.9761 0.6132
C17_11 C 0.7997(3) 0.9929(6) 0.9579(9)
C18_11 C 0.7806(2) 0.9743(5) 0.9033(8)
N2_12 N 0.8459(2) 0.5130(8) 0.0210(8)
C1_12 C 0.8250(2) 0.5298(7) 0.0436(8)
H1_12 H 0.8198 0.5663 0.0267
C2_12 C 0.7882(2) 0.5186(6) 0.1157(8)
C3_12 C 0.8109(2) 0.4956(5) 0.0907(7)
C10_12 C 0.8529(4) 0.4655(12) 0.0513(15)
H6_12 H 0.8685 0.4568 0.0440
C11_12 C 0.8179(4) 0.4435(11) 0.1189(17)
H7_12 H 0.8084 0.4209 0.1535
C12_12 C 0.8396(5) 0.4245(10) 0.095(2)
H8_12 H 0.8449 0.3871 0.1068
C19_12 C 0.9474(4) 0.7812(9) 0.0367(11)
H11_12 H 0.9573 0.8097 0.0577
C20_12 C 0.9143(4) 0.7234(11) 0.0483(10)
H12_12 H 0.9016 0.7116 0.0804
C21_12 C 0.9291(4) 0.7611(11) 0.0817(11)
H13_12 H 0.9270 0.7739 0.1368
I1_12 I 0.854028(15) 0.67186(7) 0.99296(5)
I2_12 I 0.843123(15) 0.53865(8) 0.79765(6)
Cu1_12 Cu 0.86373(3) 0.56565(14) 0.94497(12)
Cu2_12 Cu 0.85640(3) 0.64720(15) 0.83116(12)
N1_12 N 0.8333(2) 0.7020(8) 0.7785(8)
C4_12 C 0.8154(2) 0.7187(6) 0.8214(8)
H2_12 H 0.8133 0.7033 0.8752
C5_12 C 0.7997(3) 0.7571(6) 0.7921(9)
C6_12 C 0.7806(2) 0.7757(5) 0.8467(8)
C7_12 C 0.8026(4) 0.7812(9) 0.7133(11)
H3_12 H 0.7927 0.8097 0.6923
C8_12 C 0.8357(4) 0.7234(11) 0.7017(10)
H4_12 H 0.8484 0.7116 0.6696
C9_12 C 0.8209(4) 0.7611(11) 0.6683(11)
H5_12 H 0.8230 0.7739 0.6132
I3_12 I 0.895972(15) 0.67186(7) 0.75704(5)
I4_12 I 0.906877(15) 0.53865(8) 0.95235(6)
Cu3_12 Cu 0.88627(3) 0.56565(14) 0.80503(12)
Cu4_12 Cu 0.89360(3) 0.64720(15) 0.91884(12)
N3_12 N 0.9167(2) 0.7020(8) 0.9715(8)
N4_12 N 0.9041(2) 0.5130(8) 0.7290(8)
C13_12 C 0.9250(2) 0.5298(7) 0.7064(8)
H9_12 H 0.9302 0.5663 0.7233
C14_12 C 0.9618(2) 0.5186(6) 0.6343(8)
C15_12 C 0.9391(2) 0.4956(5) 0.6593(7)
C16_12 C 0.9346(2) 0.7187(6) 0.9286(8)
H10_12 H 0.9367 0.7033 0.8748
C17_12 C 0.9503(3) 0.7571(6) 0.9579(9)
C18_12 C 0.9694(2) 0.7757(5) 0.9033(8)
C22_12 C 0.8971(4) 0.4655(12) 0.6987(15)
H14_12 H 0.8815 0.4568 0.7060
C23_12 C 0.9321(4) 0.4435(11) 0.6311(17)
H15_12 H 0.9416 0.4209 0.5965
C24_12 C 0.9104(5) 0.4245(10) 0.655(2)
H16_12 H 0.9051 0.3871 0.6432
N2_13 N 0.4041(2) 0.7370(8) 0.0210(8)
C1_13 C 0.4250(2) 0.7202(7) 0.0436(8)
H1_13 H 0.4302 0.6837 0.0267
C2_13 C 0.4618(2) 0.7314(6) 0.1157(8)
C3_13 C 0.4391(2) 0.7544(5) 0.0907(7)
O1_7 O 0.46731(17) 0.6829(5) 0.0896(7)
C10_13 C 0.3971(4) 0.7845(12) 0.0513(15)
H6_13 H 0.3815 0.7932 0.0440
C11_13 C 0.4321(4) 0.8065(11) 0.1189(17)
H7_13 H 0.4416 0.8291 0.1535
C12_13 C 0.4104(5) 0.8255(10) 0.095(2)
H8_13 H 0.4051 0.8629 0.1068
C19_13 C 0.3026(4) 0.4688(9) 0.0367(11)
H11_13 H 0.2927 0.4403 0.0577
C20_13 C 0.3357(4) 0.5266(11) 0.0483(10)
H12_13 H 0.3484 0.5384 0.0804
C21_13 C 0.3209(4) 0.4889(11) 0.0817(11)
H13_13 H 0.3230 0.4761 0.1368
O11_13 O 0.46731(17) 0.5671(5) 0.1604(7)
I1_13 I 0.395972(15) 0.57814(7) 0.99296(5)
I2_13 I 0.406877(15) 0.71135(8) 0.79765(6)
Cu1_13 Cu 0.38627(3) 0.68435(14) 0.94497(12)
Cu2_13 Cu 0.39360(3) 0.60280(15) 0.83116(12)
N1_13 N 0.4167(2) 0.5480(8) 0.7785(8)
C4_13 C 0.4346(2) 0.5313(6) 0.8214(8)
H2_13 H 0.4367 0.5467 0.8752
C5_13 C 0.4503(3) 0.4929(6) 0.7921(9)
C6_13 C 0.4694(2) 0.4743(5) 0.8467(8)
C7_13 C 0.4474(4) 0.4688(9) 0.7133(11)
H3_13 H 0.4573 0.4403 0.6923
C8_13 C 0.4143(4) 0.5266(11) 0.7017(10)
H4_13 H 0.4016 0.5384 0.6696
C9_13 C 0.4291(4) 0.4889(11) 0.6683(11)
H5_13 H 0.4270 0.4761 0.6132
I3_13 I 0.354028(15) 0.57814(7) 0.75704(5)
I4_13 I 0.343123(15) 0.71135(8) 0.95235(6)
Cu3_13 Cu 0.36373(3) 0.68435(14) 0.80503(12)
Cu4_13 Cu 0.35640(3) 0.60280(15) 0.91884(12)
N3_13 N 0.3333(2) 0.5480(8) 0.9715(8)
N4_13 N 0.3459(2) 0.7370(8) 0.7290(8)
C13_13 C 0.3250(2) 0.7202(7) 0.7064(8)
H9_13 H 0.3198 0.6837 0.7233
C14_13 C 0.2882(2) 0.7314(6) 0.6343(8)
C15_13 C 0.3109(2) 0.7544(5) 0.6593(7)
C16_13 C 0.3154(2) 0.5313(6) 0.9286(8)
H10_13 H 0.3133 0.5467 0.8748
C17_13 C 0.2997(3) 0.4929(6) 0.9579(9)
O6_7 O 0.28269(17) 0.6829(5) 0.6604(7)
C18_13 C 0.2806(2) 0.4743(5) 0.9033(8)
C22_13 C 0.3529(4) 0.7845(12) 0.6987(15)
H14_13 H 0.3685 0.7932 0.7060
C23_13 C 0.3179(4) 0.8065(11) 0.6311(17)
H15_13 H 0.3084 0.8291 0.5965
C24_13 C 0.3396(5) 0.8255(10) 0.655(2)
H16_13 H 0.3449 0.8629 0.6432
N2_14 N 0.3459(2) 0.0130(8) 0.0210(8)
C1_14 C 0.3250(2) 0.0298(7) 0.0436(8)
H1_14 H 0.3198 0.0663 0.0267
C2_14 C 0.2882(2) 0.0186(6) 0.1157(8)
O1_8 O 0.28269(17) 0.0671(5) 0.0896(7)
C19_14 C 0.4474(4) 0.2812(9) 0.0367(11)
H11_14 H 0.4573 0.3097 0.0577
C20_14 C 0.4143(4) 0.2234(11) 0.0483(10)
H12_14 H 0.4016 0.2116 0.0804
C21_14 C 0.4291(4) 0.2611(11) 0.0817(11)
H13_14 H 0.4270 0.2739 0.1368
O11_14 O 0.28269(17) 0.1829(5) 0.1604(7)
I1_14 I 0.354028(15) 0.17186(7) 0.99296(5)
I2_14 I 0.343123(15) 0.03865(8) 0.79765(6)
Cu1_14 Cu 0.36373(3) 0.06565(14) 0.94497(12)
Cu2_14 Cu 0.35640(3) 0.14720(15) 0.83116(12)
N1_14 N 0.3333(2) 0.2020(8) 0.7785(8)
C4_14 C 0.3154(2) 0.2187(6) 0.8214(8)
H2_14 H 0.3133 0.2033 0.8752
C5_14 C 0.2997(3) 0.2571(6) 0.7921(9)
C6_14 C 0.2806(2) 0.2757(5) 0.8467(8)
C7_14 C 0.3026(4) 0.2812(9) 0.7133(11)
H3_14 H 0.2927 0.3097 0.6923
C8_14 C 0.3357(4) 0.2234(11) 0.7017(10)
H4_14 H 0.3484 0.2116 0.6696
C9_14 C 0.3209(4) 0.2611(11) 0.6683(11)
H5_14 H 0.3230 0.2739 0.6132
I3_14 I 0.395972(15) 0.17186(7) 0.75704(5)
I4_14 I 0.406877(15) 0.03865(8) 0.95235(6)
Cu3_14 Cu 0.38627(3) 0.06565(14) 0.80503(12)
Cu4_14 Cu 0.39360(3) 0.14720(15) 0.91884(12)
N3_14 N 0.4167(2) 0.2020(8) 0.9715(8)
N4_14 N 0.4041(2) 0.0130(8) 0.7290(8)
C13_14 C 0.4250(2) 0.0298(7) 0.7064(8)
H9_14 H 0.4302 0.0663 0.7233
C14_14 C 0.4618(2) 0.0186(6) 0.6343(8)
C16_14 C 0.4346(2) 0.2187(6) 0.9286(8)
H10_14 H 0.4367 0.2033 0.8748
C17_14 C 0.4503(3) 0.2571(6) 0.9579(9)
O6_8 O 0.46731(17) 0.0671(5) 0.6604(7)
C18_14 C 0.4694(2) 0.2757(5) 0.9033(8)
C3_14 C 0.3109(2) 0.9956(5) 0.0907(7)
C10_14 C 0.3529(4) 0.9655(12) 0.0513(15)
H6_14 H 0.3685 0.9568 0.0440
C11_14 C 0.3179(4) 0.9435(11) 0.1189(17)
H7_14 H 0.3084 0.9209 0.1535
C12_14 C 0.3396(5) 0.9245(10) 0.095(2)
H8_14 H 0.3449 0.8871 0.1068
C15_14 C 0.4391(2) 0.9956(5) 0.6593(7)
C22_14 C 0.3971(4) 0.9655(12) 0.6987(15)
H14_14 H 0.3815 0.9568 0.7060
C23_14 C 0.4321(4) 0.9435(11) 0.6311(17)
H15_14 H 0.4416 0.9209 0.5965
C24_14 C 0.4104(5) 0.9245(10) 0.655(2)
H16_14 H 0.4051 0.8871 0.6432
O11_15 O 0.46731(17) 0.1829(5) 0.5896(7)
O11_16 O 0.28269(17) 0.5671(5) 0.5896(7)
I1_15 I 0.395972(15) 0.07814(7) 0.49296(5)
I2_15 I 0.406877(15) 0.21135(8) 0.29765(6)
Cu1_15 Cu 0.38627(3) 0.18435(14) 0.44497(12)
Cu2_15 Cu 0.39360(3) 0.10280(15) 0.33116(12)
N1_15 N 0.4167(2) 0.0480(8) 0.2785(8)
N2_15 N 0.4041(2) 0.2370(8) 0.5210(8)
C1_15 C 0.4250(2) 0.2202(7) 0.5436(8)
H1_15 H 0.4302 0.1837 0.5267
C2_15 C 0.4618(2) 0.2314(6) 0.6157(8)
C3_15 C 0.4391(2) 0.2544(5) 0.5907(7)
C4_15 C 0.4346(2) 0.0313(6) 0.3214(8)
H2_15 H 0.4367 0.0467 0.3752
C8_15 C 0.4143(4) 0.0266(11) 0.2017(10)
H4_15 H 0.4016 0.0384 0.1696
C10_15 C 0.3971(4) 0.2845(12) 0.5513(15)
H6_15 H 0.3815 0.2932 0.5440
C11_15 C 0.4321(4) 0.3065(11) 0.6189(17)
H7_15 H 0.4416 0.3291 0.6535
C12_15 C 0.4104(5) 0.3255(10) 0.595(2)
H8_15 H 0.4051 0.3629 0.6068
I3_15 I 0.354028(15) 0.07814(7) 0.25704(5)
I4_15 I 0.343123(15) 0.21135(8) 0.45235(6)
Cu3_15 Cu 0.36373(3) 0.18435(14) 0.30503(12)
Cu4_15 Cu 0.35640(3) 0.10280(15) 0.41884(12)
N3_15 N 0.3333(2) 0.0480(8) 0.4715(8)
N4_15 N 0.3459(2) 0.2370(8) 0.2290(8)
C13_15 C 0.3250(2) 0.2202(7) 0.2064(8)
H9_15 H 0.3198 0.1837 0.2233
C14_15 C 0.2882(2) 0.2314(6) 0.1343(8)
C15_15 C 0.3109(2) 0.2544(5) 0.1593(7)
C16_15 C 0.3154(2) 0.0313(6) 0.4286(8)
H10_15 H 0.3133 0.0467 0.3748
C20_15 C 0.3357(4) 0.0266(11) 0.5483(10)
H12_15 H 0.3484 0.0384 0.5804
C22_15 C 0.3529(4) 0.2845(12) 0.1987(15)
H14_15 H 0.3685 0.2932 0.2060
C23_15 C 0.3179(4) 0.3065(11) 0.1311(17)
H15_15 H 0.3084 0.3291 0.0965
C24_15 C 0.3396(5) 0.3255(10) 0.155(2)
H16_15 H 0.3449 0.3629 0.1432
C5_15 C 0.4503(3) 0.9929(6) 0.2921(9)
C6_15 C 0.4694(2) 0.9743(5) 0.3467(8)
C7_15 C 0.4474(4) 0.9688(9) 0.2133(11)
H3_15 H 0.4573 0.9403 0.1923
C9_15 C 0.4291(4) 0.9889(11) 0.1683(11)
H5_15 H 0.4270 0.9761 0.1132
C17_15 C 0.2997(3) 0.9929(6) 0.4579(9)
C18_15 C 0.2806(2) 0.9743(5) 0.4033(8)
C19_15 C 0.3026(4) 0.9688(9) 0.5367(11)
H11_15 H 0.2927 0.9403 0.5577
C21_15 C 0.3209(4) 0.9889(11) 0.5817(11)
H13_15 H 0.3230 0.9761 0.6368
I1_16 I 0.354028(15) 0.67186(7) 0.49296(5)
I2_16 I 0.343123(15) 0.53865(8) 0.29765(6)
Cu1_16 Cu 0.36373(3) 0.56565(14) 0.44497(12)
Cu2_16 Cu 0.35640(3) 0.64720(15) 0.33116(12)
N1_16 N 0.3333(2) 0.7020(8) 0.2785(8)
N2_16 N 0.3459(2) 0.5130(8) 0.5210(8)
C1_16 C 0.3250(2) 0.5298(7) 0.5436(8)
H1_16 H 0.3198 0.5663 0.5267
C2_16 C 0.2882(2) 0.5186(6) 0.6157(8)
C3_16 C 0.3109(2) 0.4956(5) 0.5907(7)
C4_16 C 0.3154(2) 0.7187(6) 0.3214(8)
H2_16 H 0.3133 0.7033 0.3752
C5_16 C 0.2997(3) 0.7571(6) 0.2921(9)
C6_16 C 0.2806(2) 0.7757(5) 0.3467(8)
C7_16 C 0.3026(4) 0.7812(9) 0.2133(11)
H3_16 H 0.2927 0.8097 0.1923
C8_16 C 0.3357(4) 0.7234(11) 0.2017(10)
H4_16 H 0.3484 0.7116 0.1696
C9_16 C 0.3209(4) 0.7611(11) 0.1683(11)
H5_16 H 0.3230 0.7739 0.1132
C10_16 C 0.3529(4) 0.4655(12) 0.5513(15)
H6_16 H 0.3685 0.4568 0.5440
C11_16 C 0.3179(4) 0.4435(11) 0.6189(17)
H7_16 H 0.3084 0.4209 0.6535
C12_16 C 0.3396(5) 0.4245(10) 0.595(2)
H8_16 H 0.3449 0.3871 0.6068
I3_16 I 0.395972(15) 0.67186(7) 0.25704(5)
I4_16 I 0.406877(15) 0.53865(8) 0.45235(6)
Cu3_16 Cu 0.38627(3) 0.56565(14) 0.30503(12)
Cu4_16 Cu 0.39360(3) 0.64720(15) 0.41884(12)
N3_16 N 0.4167(2) 0.7020(8) 0.4715(8)
N4_16 N 0.4041(2) 0.5130(8) 0.2290(8)
C13_16 C 0.4250(2) 0.5298(7) 0.2064(8)
H9_16 H 0.4302 0.5663 0.2233
C14_16 C 0.4618(2) 0.5186(6) 0.1343(8)
C15_16 C 0.4391(2) 0.4956(5) 0.1593(7)
C16_16 C 0.4346(2) 0.7187(6) 0.4286(8)
H10_16 H 0.4367 0.7033 0.3748
C17_16 C 0.4503(3) 0.7571(6) 0.4579(9)
C18_16 C 0.4694(2) 0.7757(5) 0.4033(8)
C19_16 C 0.4474(4) 0.7812(9) 0.5367(11)
H11_16 H 0.4573 0.8097 0.5577
C20_16 C 0.4143(4) 0.7234(11) 0.5483(10)
H12_16 H 0.4016 0.7116 0.5804
C21_16 C 0.4291(4) 0.7611(11) 0.5817(11)
H13_16 H 0.4270 0.7739 0.6368
C22_16 C 0.3971(4) 0.4655(12) 0.1987(15)
H14_16 H 0.3815 0.4568 0.2060
C23_16 C 0.4321(4) 0.4435(11) 0.1311(17)
H15_16 H 0.4416 0.4209 0.0965
C24_16 C 0.4104(5) 0.4245(10) 0.155(2)
H16_16 H 0.4051 0.3871 0.1432
loop_
_geom_bond_atom_site_label_1
_geom_bond_atom_site_label_2
_geom_bond_site_symmetry_1
_geom_bond_site_symmetry_2
In1 O3 1_555 1_555
In2 O1 1_555 1_555
I1 Cu1 1_555 1_555
I2 Cu1 1_555 1_555
Cu1 N2 1_555 1_555
Cu2 I1 1_555 1_555
N1 Cu2 1_555 1_555
N2 C1 1_555 1_555
C1 H1 1_555 1_555
C2 C3 1_555 1_555
C3 C1 1_555 1_555
C4 N1 1_555 1_555
H2 C4 1_555 1_555
C5 C4 1_555 1_555
O1 C2 1_555 1_555
O2 C2 1_555 1_555
C6 C5 1_555 1_555
C7 C5 1_555 1_555
H3 C7 1_555 1_555
C8 N1 1_555 1_555
H4 C8 1_555 1_555
C9 C7 1_555 1_555
H5 C9 1_555 1_555
C10 N2 1_555 1_555
H6 C10 1_555 1_555
O3 In2 1_555 1_555
O4 In1 1_555 1_555
O5 C6 1_555 1_555
C11 C3 1_555 1_555
H7 C11 1_555 1_555
C12 C10 1_555 1_555
H8 C12 1_555 1_555
I3 Cu2 1_555 1_555
I4 Cu1 1_555 1_555
Cu3 I2 1_555 1_555
Cu4 I1 1_555 1_555
N3 Cu4 1_555 1_555
N4 Cu3 1_555 1_555
C13 N4 1_555 1_555
H9 C13 1_555 1_555
C14 C15 1_555 1_555
C15 C13 1_555 1_555
C16 N3 1_555 1_555
H10 C16 1_555 1_555
C17 C16 1_555 1_555
O6 C14 1_555 1_555
O7 C14 1_555 1_555
C18 C17 1_555 1_555
C19 C17 1_555 1_555
H11 C19 1_555 1_555
C20 N3 1_555 1_555
H12 C20 1_555 1_555
C21 C19 1_555 1_555
H13 C21 1_555 1_555
C22 N4 1_555 1_555
H14 C22 1_555 1_555
O8 C18 1_555 1_555
O9 C18 1_555 1_555
C23 C15 1_555 1_555
H15 C23 1_555 1_555
C24 C22 1_555 1_555
H16 C24 1_555 1_555
In3 O8 1_555 1_555
In4_2 O7 1_555 1_555
In5 O2 1_555 1_555
In6 O6 1_555 1_555
In8 O9 1_555 1_555
O11 In2 1_555 1_555
O12 In1 1_555 1_555
O14 In2 1_555 1_555
I2 Cu2 1_555 1_555
C6 O4 1_555 1_555
C8 C9 1_555 1_555
C11 C12 1_555 1_555
I3 Cu3 1_555 1_555
I3 Cu4 1_555 1_555
I4 Cu3 1_555 1_555
I4 Cu4 1_555 1_555
C20 C21 1_555 1_555
C23 C24 1_555 1_555
In5 O14 1_555 1_555
O10 In1_2 1_555 1_555
O13 In1_2 1_555 1_555
O15 In1_2 1_555 1_555
O10 In7 1_555 1_555
H6_2 C10_2 1_555 1_555
C11_2 C3_2 1_555 1_555
H7_2 C11_2 1_555 1_555
C12_2 C10_2 1_555 1_555
H8_2 C12_2 1_555 1_555
H14_2 C22_2 1_555 1_555
C23_2 C15_2 1_555 1_555
H15_2 C23_2 1_555 1_555
C24_2 C22_2 1_555 1_555
H16_2 C24_2 1_555 1_555
In4_4 O7_2 1_555 1_555
In5_3 O2_2 1_555 1_555
C11_2 C12_2 1_555 1_555
C23_2 C24_2 1_555 1_555
In1_3 O3_2 1_555 1_555
In2_2 O1_2 1_555 1_555
I1_2 Cu1_2 1_555 1_555
I2_2 Cu1_2 1_555 1_555
Cu1_2 N2_2 1_555 1_555
Cu2_2 I1_2 1_555 1_555
N1_2 Cu2_2 1_555 1_555
N2_2 C1_2 1_555 1_555
C1_2 H1_2 1_555 1_555
C4_2 N1_2 1_555 1_555
H2_2 C4_2 1_555 1_555
C5_2 C4_2 1_555 1_555
O1_2 C2_2 1_555 1_555
C6_2 C5_2 1_555 1_555
C7_2 C5_2 1_555 1_555
H3_2 C7_2 1_555 1_555
C8_2 N1_2 1_555 1_555
H4_2 C8_2 1_555 1_555
C9_2 C7_2 1_555 1_555
H5_2 C9_2 1_555 1_555
O3_2 In2_2 1_555 1_555
O4_2 In1_3 1_555 1_555
O5_2 C6_2 1_555 1_555
I3_2 Cu2_2 1_555 1_555
I4_2 Cu1_2 1_555 1_555
Cu3_2 I2_2 1_555 1_555
Cu4_2 I1_2 1_555 1_555
N3_2 Cu4_2 1_555 1_555
N4_2 Cu3_2 1_555 1_555
C13_2 N4_2 1_555 1_555
H9_2 C13_2 1_555 1_555
C16_2 N3_2 1_555 1_555
H10_2 C16_2 1_555 1_555
C17_2 C16_2 1_555 1_555
O6_2 C14_2 1_555 1_555
C18_2 C17_2 1_555 1_555
C19_2 C17_2 1_555 1_555
H11_2 C19_2 1_555 1_555
C20_2 N3_2 1_555 1_555
H12_2 C20_2 1_555 1_555
C21_2 C19_2 1_555 1_555
H13_2 C21_2 1_555 1_555
O8_2 C18_2 1_555 1_555
O9_2 C18_2 1_555 1_555
O10_2 In1_3 1_555 1_555
In3_2 O8_2 1_555 1_555
In6_2 O6_2 1_555 1_555
In8 O5_2 1_555 1_555
O11_2 In2_2 1_555 1_555
O12_2 In1_3 1_555 1_555
O13_2 In1_3 1_555 1_555
O14_2 In2_2 1_555 1_555
O15_2 In1_3 1_555 1_555
O16_2 In2_2 1_555 1_555
O17_2 In2_2 1_555 1_555
I2_2 Cu2_2 1_555 1_555
C6_2 O4_2 1_555 1_555
C8_2 C9_2 1_555 1_555
I3_2 Cu3_2 1_555 1_555
I3_2 Cu4_2 1_555 1_555
I4_2 Cu3_2 1_555 1_555
I4_2 Cu4_2 1_555 1_555
C20_2 C21_2 1_555 1_555
O10_2 In8 1_555 1_555
In5_4 O14_2 1_555 1_555
In3_2 O3_3 1_555 1_555
O3_3 In6_2 1_555 1_555
O11_3 In6_2 1_555 1_555
O12_3 In3_2 1_555 1_555
O14_3 In6_2 1_555 1_555
In4_6 O14_3 1_555 1_555
O10_3 In3_3 1_555 1_555
O13_3 In3_3 1_555 1_555
O15_3 In3_3 1_555 1_555
O10_3 In7 1_555 1_555
In3 O3_4 1_555 1_555
O3_4 In6 1_555 1_555
O10_4 In3 1_555 1_555
O11_4 In6 1_555 1_555
O12_4 In3 1_555 1_555
O13_4 In3 1_555 1_555
O14_4 In6 1_555 1_555
O15_4 In3 1_555 1_555
O16_4 In6 1_555 1_555
O17_4 In6 1_555 1_555
O10_4 In8 1_555 1_555
In4_2 O14_4 1_555 1_555
C6_3 C5_3 1_555 1_555
C7_3 C5_3 1_555 1_555
H3_3 C7_3 1_555 1_555
C9_3 C7_3 1_555 1_555
H5_3 C9_3 1_555 1_555
O5_3 C6_3 1_555 1_555
C18_3 C17_3 1_555 1_555
O9_3 C18_3 1_555 1_555
In8_2 O9_3 1_555 1_555
H11_3 C19_3 1_555 1_555
C21_3 C19_3 1_555 1_555
H13_3 C21_3 1_555 1_555
I1_3 Cu1_3 1_555 1_555
I2_3 Cu1_3 1_555 1_555
Cu2_3 I1_3 1_555 1_555
N1_3 Cu2_3 1_555 1_555
C4_3 N1_3 1_555 1_555
H2_3 C4_3 1_555 1_555
C8_3 N1_3 1_555 1_555
H4_3 C8_3 1_555 1_555
O4_3 In4_5 1_555 1_555
I3_3 Cu2_3 1_555 1_555
I4_3 Cu1_3 1_555 1_555
Cu3_3 I2_3 1_555 1_555
Cu4_3 I1_3 1_555 1_555
N3_3 Cu4_3 1_555 1_555
N4_3 Cu3_3 1_555 1_555
C13_3 N4_3 1_555 1_555
H9_3 C13_3 1_555 1_555
C14_3 C15_3 1_555 1_555
C15_3 C13_3 1_555 1_555
C16_3 N3_3 1_555 1_555
H10_3 C16_3 1_555 1_555
O11_2 C14_3 1_555 1_555
O12_2 C14_3 1_555 1_555
C22_3 N4_3 1_555 1_555
H14_3 C22_3 1_555 1_555
C23_3 C15_3 1_555 1_555
H15_3 C23_3 1_555 1_555
C24_3 C22_3 1_555 1_555
H16_3 C24_3 1_555 1_555
In5_4 O8_3 1_555 1_555
I2_3 Cu2_3 1_555 1_555
I3_3 Cu3_3 1_555 1_555
I3_3 Cu4_3 1_555 1_555
I4_3 Cu3_3 1_555 1_555
I4_3 Cu4_3 1_555 1_555
C23_3 C24_3 1_555 1_555
N2_3 C1_3 1_555 1_555
C1_3 H1_3 1_555 1_555
C2_3 C3_3 1_555 1_555
C3_3 C1_3 1_555 1_555
O11_3 C2_3 1_555 1_555
O12_3 C2_3 1_555 1_555
C10_3 N2_3 1_555 1_555
H6_3 C10_3 1_555 1_555
C11_3 C3_3 1_555 1_555
H7_3 C11_3 1_555 1_555
C12_3 C10_3 1_555 1_555
H8_3 C12_3 1_555 1_555
H12_3 C20_3 1_555 1_555
C11_3 C12_3 1_555 1_555
O10_5 In4_7 1_555 1_555
O10_5 In7_2 1_555 1_555
O15_5 In4_8 1_555 1_555
O13_5 In4_9 1_555 1_555
I1_4 Cu1_4 1_555 1_555
I2_4 Cu1_4 1_555 1_555
Cu2_4 I1_4 1_555 1_555
N1_4 Cu2_4 1_555 1_555
C4_4 N1_4 1_555 1_555
H2_4 C4_4 1_555 1_555
C5_4 C4_4 1_555 1_555
C6_4 C5_4 1_555 1_555
C7_4 C5_4 1_555 1_555
H3_4 C7_4 1_555 1_555
C8_4 N1_4 1_555 1_555
H4_4 C8_4 1_555 1_555
C9_4 C7_4 1_555 1_555
H5_4 C9_4 1_555 1_555
O4_4 In4 1_555 1_555
O5_4 C6_4 1_555 1_555
I3_4 Cu2_4 1_555 1_555
I4_4 Cu1_4 1_555 1_555
Cu3_4 I2_4 1_555 1_555
Cu4_4 I1_4 1_555 1_555
N3_4 Cu4_4 1_555 1_555
N4_4 Cu3_4 1_555 1_555
C13_4 N4_4 1_555 1_555
H9_4 C13_4 1_555 1_555
C14_4 C15_4 1_555 1_555
C15_4 C13_4 1_555 1_555
C16_4 N3_4 1_555 1_555
H10_4 C16_4 1_555 1_555
C17_4 C16_4 1_555 1_555
O11 C14_4 1_555 1_555
O12 C14_4 1_555 1_555
C18_4 C17_4 1_555 1_555
C22_4 N4_4 1_555 1_555
H14_4 C22_4 1_555 1_555
O8_4 C18_4 1_555 1_555
O9_4 C18_4 1_555 1_555
C23_4 C15_4 1_555 1_555
H15_4 C23_4 1_555 1_555
C24_4 C22_4 1_555 1_555
H16_4 C24_4 1_555 1_555
O10_6 In4 1_555 1_555
In5 O8_4 1_555 1_555
In8_2 O5_4 1_555 1_555
O13_6 In4 1_555 1_555
I2_4 Cu2_4 1_555 1_555
C6_4 O4_4 1_555 1_555
C8_4 C9_4 1_555 1_555
I3_4 Cu3_4 1_555 1_555
I3_4 Cu4_4 1_555 1_555
I4_4 Cu3_4 1_555 1_555
I4_4 Cu4_4 1_555 1_555
C23_4 C24_4 1_555 1_555
O10_6 In8_2 1_555 1_555
N2_4 C1_4 1_555 1_555
C1_4 H1_4 1_555 1_555
C2_4 C3_4 1_555 1_555
C3_4 C1_4 1_555 1_555
O11_4 C2_4 1_555 1_555
O12_4 C2_4 1_555 1_555
C10_4 N2_4 1_555 1_555
H6_4 C10_4 1_555 1_555
C11_4 C3_4 1_555 1_555
H7_4 C11_4 1_555 1_555
C12_4 C10_4 1_555 1_555
H8_4 C12_4 1_555 1_555
H11_4 C19_4 1_555 1_555
H12_4 C20_4 1_555 1_555
C21_4 C19_4 1_555 1_555
H13_4 C21_4 1_555 1_555
O15_6 In4_2 1_555 1_555
C11_4 C12_4 1_555 1_555
C20_4 C21_4 1_555 1_555
O10_7 In5_2 1_555 1_555
O13_7 In5_2 1_555 1_555
O15_7 In5_2 1_555 1_555
O10_7 In7_2 1_555 1_555
O10_8 In5_3 1_555 1_555
O15_8 In5_3 1_555 1_555
O10_8 In8_2 1_555 1_555
O13_8 In5_4 1_555 1_555
I1_5 Cu1_5 1_555 1_555
I2_5 Cu1_5 1_555 1_555
Cu2_5 I1_5 1_555 1_555
N1_5 Cu2_5 1_555 1_555
C4_5 N1_5 1_555 1_555
H2_5 C4_5 1_555 1_555
C5_5 C4_5 1_555 1_555
C6_5 C5_5 1_555 1_555
C7_5 C5_5 1_555 1_555
H3_5 C7_5 1_555 1_555
C8_5 N1_5 1_555 1_555
H4_5 C8_5 1_555 1_555
C9_5 C7_5 1_555 1_555
H5_5 C9_5 1_555 1_555
O4_5 In1_4 1_555 1_555
O5_5 C6_5 1_555 1_555
I3_5 Cu2_5 1_555 1_555
I4_5 Cu1_5 1_555 1_555
Cu3_5 I2_5 1_555 1_555
Cu4_5 I1_5 1_555 1_555
N3_5 Cu4_5 1_555 1_555
N4_5 Cu3_5 1_555 1_555
C13_5 N4_5 1_555 1_555
H9_5 C13_5 1_555 1_555
C14_5 C15_5 1_555 1_555
C15_5 C13_5 1_555 1_555
C16_5 N3_5 1_555 1_555
H10_5 C16_5 1_555 1_555
C17_5 C16_5 1_555 1_555
O6_3 C14_5 1_555 1_555
O7_3 C14_5 1_555 1_555
C18_5 C17_5 1_555 1_555
C22_5 N4_5 1_555 1_555
H14_5 C22_5 1_555 1_555
O8_5 C18_5 1_555 1_555
O9_5 C18_5 1_555 1_555
C23_5 C15_5 1_555 1_555
H15_5 C23_5 1_555 1_555
C24_5 C22_5 1_555 1_555
H16_5 C24_5 1_555 1_555
O10_9 In1_4 1_555 1_555
In3_4 O8_5 1_555 1_555
In4_11 O7_3 1_555 1_555
In6_3 O6_3 1_555 1_555
In7_3 O5_5 1_555 1_555
In8_3 O9_5 1_555 1_555
O13_9 In1_4 1_555 1_555
I2_5 Cu2_5 1_555 1_555
C6_5 O4_5 1_555 1_555
C8_5 C9_5 1_555 1_555
I3_5 Cu3_5 1_555 1_555
I3_5 Cu4_5 1_555 1_555
I4_5 Cu3_5 1_555 1_555
I4_5 Cu4_5 1_555 1_555
C23_5 C24_5 1_555 1_555
O10_9 In7_3 1_555 1_555
In1_5 O3_5 1_555 1_555
In2_3 O1_3 1_555 1_555
N2_5 C1_5 1_555 1_555
C1_5 H1_5 1_555 1_555
C2_5 C3_5 1_555 1_555
C3_5 C1_5 1_555 1_555
O1_3 C2_5 1_555 1_555
O2_3 C2_5 1_555 1_555
C10_5 N2_5 1_555 1_555
H6_5 C10_5 1_555 1_555
O3_5 In2_3 1_555 1_555
C11_5 C3_5 1_555 1_555
H7_5 C11_5 1_555 1_555
C12_5 C10_5 1_555 1_555
H8_5 C12_5 1_555 1_555
H11_5 C19_5 1_555 1_555
H12_5 C20_5 1_555 1_555
C21_5 C19_5 1_555 1_555
H13_5 C21_5 1_555 1_555
In5_5 O2_3 1_555 1_555
O11_5 In2_3 1_555 1_555
O12_5 In1_5 1_555 1_555
O14_5 In2_3 1_555 1_555
O15_9 In1_5 1_555 1_555
O16_5 In2_3 1_555 1_555
O17_5 In2_3 1_555 1_555
C11_5 C12_5 1_555 1_555
C20_5 C21_5 1_555 1_555
In5_5 O14_5 1_555 1_555
H14_6 C22_6 1_555 1_555
C23_6 C15_6 1_555 1_555
H15_6 C23_6 1_555 1_555
C24_6 C22_6 1_555 1_555
H16_6 C24_6 1_555 1_555
In4_12 O7_4 1_555 1_555
C23_6 C24_6 1_555 1_555
H6_6 C10_6 1_555 1_555
C11_6 C3_6 1_555 1_555
H7_6 C11_6 1_555 1_555
C12_6 C10_6 1_555 1_555
H8_6 C12_6 1_555 1_555
In5_6 O2_4 1_555 1_555
C11_6 C12_6 1_555 1_555
I1_6 Cu1_6 1_555 1_555
I2_6 Cu1_6 1_555 1_555
Cu2_6 I1_6 1_555 1_555
N1_6 Cu2_6 1_555 1_555
C4_6 N1_6 1_555 1_555
H2_6 C4_6 1_555 1_555
C5_6 C4_6 1_555 1_555
C6_6 C5_6 1_555 1_555
C7_6 C5_6 1_555 1_555
H3_6 C7_6 1_555 1_555
C8_6 N1_6 1_555 1_555
H4_6 C8_6 1_555 1_555
C9_6 C7_6 1_555 1_555
H5_6 C9_6 1_555 1_555
O4_6 In1_6 1_555 1_555
O5_6 C6_6 1_555 1_555
I3_6 Cu2_6 1_555 1_555
I4_6 Cu1_6 1_555 1_555
Cu3_6 I2_6 1_555 1_555
Cu4_6 I1_6 1_555 1_555
N3_6 Cu4_6 1_555 1_555
N4_6 Cu3_6 1_555 1_555
C13_6 N4_6 1_555 1_555
H9_6 C13_6 1_555 1_555
C16_6 N3_6 1_555 1_555
H10_6 C16_6 1_555 1_555
C17_6 C16_6 1_555 1_555
O6_4 C14_6 1_555 1_555
C18_6 C17_6 1_555 1_555
O8_6 C18_6 1_555 1_555
O9_6 C18_6 1_555 1_555
O10_10 In1_6 1_555 1_555
In3_5 O8_6 1_555 1_555
In6_4 O6_4 1_555 1_555
In8_3 O5_6 1_555 1_555
In7_3 O9_6 1_555 1_555
O13_10 In1_6 1_555 1_555
I2_6 Cu2_6 1_555 1_555
C6_6 O4_6 1_555 1_555
C8_6 C9_6 1_555 1_555
I3_6 Cu3_6 1_555 1_555
I3_6 Cu4_6 1_555 1_555
I4_6 Cu3_6 1_555 1_555
I4_6 Cu4_6 1_555 1_555
O10_10 In8_3 1_555 1_555
In1_7 O3_6 1_555 1_555
In2_4 O1_4 1_555 1_555
N2_6 C1_6 1_555 1_555
C1_6 H1_6 1_555 1_555
O1_4 C2_6 1_555 1_555
O3_6 In2_4 1_555 1_555
H11_6 C19_6 1_555 1_555
H12_6 C20_6 1_555 1_555
C21_6 C19_6 1_555 1_555
H13_6 C21_6 1_555 1_555
O11_6 In2_4 1_555 1_555
O12_6 In1_7 1_555 1_555
O14_6 In2_4 1_555 1_555
O15_10 In1_7 1_555 1_555
O16_6 In2_4 1_555 1_555
O17_6 In2_4 1_555 1_555
C20_6 C21_6 1_555 1_555
In5_7 O14_6 1_555 1_555
In3_5 O3_7 1_555 1_555
O3_7 In6_4 1_555 1_555
O10_11 In3_5 1_555 1_555
O11_7 In6_4 1_555 1_555
O12_7 In3_5 1_555 1_555
O13_11 In3_5 1_555 1_555
O14_7 In6_4 1_555 1_555
O15_11 In3_5 1_555 1_555
O16_7 In6_4 1_555 1_555
O17_7 In6_4 1_555 1_555
O10_11 In7_3 1_555 1_555
In4_13 O14_7 1_555 1_555
In3_4 O3_8 1_555 1_555
O3_8 In6_3 1_555 1_555
O10_12 In3_4 1_555 1_555
O11_8 In6_3 1_555 1_555
O12_8 In3_4 1_555 1_555
O13_12 In3_4 1_555 1_555
O14_8 In6_3 1_555 1_555
O15_12 In3_4 1_555 1_555
O16_8 In6_3 1_555 1_555
O17_8 In6_3 1_555 1_555
O10_12 In8_3 1_555 1_555
In4_11 O14_8 1_555 1_555
C6_7 C5_7 1_555 1_555
C7_7 C5_7 1_555 1_555
H3_7 C7_7 1_555 1_555
C9_7 C7_7 1_555 1_555
H5_7 C9_7 1_555 1_555
O5_7 C6_7 1_555 1_555
C18_7 C17_7 1_555 1_555
C19_7 C17_7 1_555 1_555
H11_7 C19_7 1_555 1_555
C21_7 C19_7 1_555 1_555
H13_7 C21_7 1_555 1_555
O9_7 C18_7 1_555 1_555
O10_13 In4_12 1_555 1_555
In7_4 O5_7 1_555 1_555
In8_4 O9_7 1_555 1_555
O15_13 In4_12 1_555 1_555
O10_13 In7_4 1_555 1_555
I1_7 Cu1_7 1_555 1_555
I2_7 Cu1_7 1_555 1_555
Cu1_7 N2_7 1_555 1_555
Cu2_7 I1_7 1_555 1_555
N1_7 Cu2_7 1_555 1_555
N2_7 C1_7 1_555 1_555
C1_7 H1_7 1_555 1_555
C2_7 C3_7 1_555 1_555
C3_7 C1_7 1_555 1_555
C4_7 N1_7 1_555 1_555
H2_7 C4_7 1_555 1_555
O11_7 C2_7 1_555 1_555
O12_7 C2_7 1_555 1_555
C8_7 N1_7 1_555 1_555
H4_7 C8_7 1_555 1_555
C10_7 N2_7 1_555 1_555
H6_7 C10_7 1_555 1_555
O4_7 In4_13 1_555 1_555
C11_7 C3_7 1_555 1_555
H7_7 C11_7 1_555 1_555
C12_7 C10_7 1_555 1_555
H8_7 C12_7 1_555 1_555
I3_7 Cu2_7 1_555 1_555
I4_7 Cu1_7 1_555 1_555
Cu3_7 I2_7 1_555 1_555
Cu4_7 I1_7 1_555 1_555
N3_7 Cu4_7 1_555 1_555
N4_7 Cu3_7 1_555 1_555
C13_7 N4_7 1_555 1_555
H9_7 C13_7 1_555 1_555
C14_7 C15_7 1_555 1_555
C15_7 C13_7 1_555 1_555
C16_7 N3_7 1_555 1_555
H10_7 C16_7 1_555 1_555
O11_6 C14_7 1_555 1_555
O12_6 C14_7 1_555 1_555
C20_7 N3_7 1_555 1_555
H12_7 C20_7 1_555 1_555
C22_7 N4_7 1_555 1_555
H14_7 C22_7 1_555 1_555
C23_7 C15_7 1_555 1_555
H15_7 C23_7 1_555 1_555
C24_7 C22_7 1_555 1_555
H16_7 C24_7 1_555 1_555
In5_7 O8_7 1_555 1_555
O13_13 In4_13 1_555 1_555
I2_7 Cu2_7 1_555 1_555
C11_7 C12_7 1_555 1_555
I3_7 Cu3_7 1_555 1_555
I3_7 Cu4_7 1_555 1_555
I4_7 Cu3_7 1_555 1_555
I4_7 Cu4_7 1_555 1_555
C23_7 C24_7 1_555 1_555
I1_8 Cu1_8 1_555 1_555
I2_8 Cu1_8 1_555 1_555
Cu1_8 N2_8 1_555 1_555
Cu2_8 I1_8 1_555 1_555
N1_8 Cu2_8 1_555 1_555
N2_8 C1_8 1_555 1_555
C1_8 H1_8 1_555 1_555
C2_8 C3_8 1_555 1_555
C3_8 C1_8 1_555 1_555
C4_8 N1_8 1_555 1_555
H2_8 C4_8 1_555 1_555
C5_8 C4_8 1_555 1_555
O11_8 C2_8 1_555 1_555
O12_8 C2_8 1_555 1_555
C6_8 C5_8 1_555 1_555
C7_8 C5_8 1_555 1_555
H3_8 C7_8 1_555 1_555
C8_8 N1_8 1_555 1_555
H4_8 C8_8 1_555 1_555
C9_8 C7_8 1_555 1_555
H5_8 C9_8 1_555 1_555
C10_8 N2_8 1_555 1_555
H6_8 C10_8 1_555 1_555
O4_8 In4_11 1_555 1_555
O5_8 C6_8 1_555 1_555
C11_8 C3_8 1_555 1_555
H7_8 C11_8 1_555 1_555
C12_8 C10_8 1_555 1_555
H8_8 C12_8 1_555 1_555
I3_8 Cu2_8 1_555 1_555
I4_8 Cu1_8 1_555 1_555
Cu3_8 I2_8 1_555 1_555
Cu4_8 I1_8 1_555 1_555
N3_8 Cu4_8 1_555 1_555
N4_8 Cu3_8 1_555 1_555
C13_8 N4_8 1_555 1_555
H9_8 C13_8 1_555 1_555
C14_8 C15_8 1_555 1_555
C15_8 C13_8 1_555 1_555
C16_8 N3_8 1_555 1_555
H10_8 C16_8 1_555 1_555
C17_8 C16_8 1_555 1_555
O11_5 C14_8 1_555 1_555
O12_5 C14_8 1_555 1_555
C18_8 C17_8 1_555 1_555
C19_8 C17_8 1_555 1_555
H11_8 C19_8 1_555 1_555
C20_8 N3_8 1_555 1_555
H12_8 C20_8 1_555 1_555
C21_8 C19_8 1_555 1_555
H13_8 C21_8 1_555 1_555
C22_8 N4_8 1_555 1_555
H14_8 C22_8 1_555 1_555
O8_8 C18_8 1_555 1_555
O9_8 C18_8 1_555 1_555
C23_8 C15_8 1_555 1_555
H15_8 C23_8 1_555 1_555
C24_8 C22_8 1_555 1_555
H16_8 C24_8 1_555 1_555
O10_14 In4_11 1_555 1_555
In5_5 O8_8 1_555 1_555
In8_4 O5_8 1_555 1_555
In7_4 O9_8 1_555 1_555
O13_14 In4_11 1_555 1_555
O15_14 In4_11 1_555 1_555
I2_8 Cu2_8 1_555 1_555
C6_8 O4_8 1_555 1_555
C8_8 C9_8 1_555 1_555
C11_8 C12_8 1_555 1_555
I3_8 Cu3_8 1_555 1_555
I3_8 Cu4_8 1_555 1_555
I4_8 Cu3_8 1_555 1_555
I4_8 Cu4_8 1_555 1_555
C20_8 C21_8 1_555 1_555
C23_8 C24_8 1_555 1_555
O10_14 In8_4 1_555 1_555
O10_15 In5_5 1_555 1_555
O13_15 In5_5 1_555 1_555
O15_15 In5_5 1_555 1_555
O10_15 In7_4 1_555 1_555
O10_16 In5_6 1_555 1_555
O15_16 In5_6 1_555 1_555
O10_16 In8_4 1_555 1_555
O13_16 In5_7 1_555 1_555
In7 O1_5 1_555 1_555
I1_9 Cu1_9 1_555 1_555
I2_9 Cu1_9 1_555 1_555
Cu1_9 N2_9 1_555 1_555
Cu2_9 I1_9 1_555 1_555
N1_9 Cu2_9 1_555 1_555
N2_9 C1_9 1_555 1_555
C1_9 H1_9 1_555 1_555
C2_9 C3_9 1_555 1_555
C3_9 C1_9 1_555 1_555
C4_9 N1_9 1_555 1_555
H2_9 C4_9 1_555 1_555
C5_9 C4_9 1_555 1_555
O1_5 C2_9 1_555 1_555
O13_3 C2_9 1_555 1_555
C6_9 C5_9 1_555 1_555
C7_9 C5_9 1_555 1_555
H3_9 C7_9 1_555 1_555
C8_9 N1_9 1_555 1_555
H4_9 C8_9 1_555 1_555
C9_9 C7_9 1_555 1_555
H5_9 C9_9 1_555 1_555
C10_9 N2_9 1_555 1_555
H6_9 C10_9 1_555 1_555
O16 C6_9 1_555 1_555
C11_9 C3_9 1_555 1_555
H7_9 C11_9 1_555 1_555
C12_9 C10_9 1_555 1_555
H8_9 C12_9 1_555 1_555
I3_9 Cu2_9 1_555 1_555
I4_9 Cu1_9 1_555 1_555
Cu3_9 I2_9 1_555 1_555
Cu4_9 I1_9 1_555 1_555
N3_9 Cu4_9 1_555 1_555
N4_9 Cu3_9 1_555 1_555
C13_9 N4_9 1_555 1_555
H9_9 C13_9 1_555 1_555
C14_9 C15_9 1_555 1_555
C15_9 C13_9 1_555 1_555
C16_9 N3_9 1_555 1_555
H10_9 C16_9 1_555 1_555
C17_9 C16_9 1_555 1_555
O6_5 C14_9 1_555 1_555
O13_10 C14_9 1_555 1_555
C18_9 C17_9 1_555 1_555
C19_9 C17_9 1_555 1_555
H11_9 C19_9 1_555 1_555
C20_9 N3_9 1_555 1_555
H12_9 C20_9 1_555 1_555
C21_9 C19_9 1_555 1_555
H13_9 C21_9 1_555 1_555
C22_9 N4_9 1_555 1_555
H14_9 C22_9 1_555 1_555
O15_12 C18_9 1_555 1_555
O16_8 C18_9 1_555 1_555
C23_9 C15_9 1_555 1_555
H15_9 C23_9 1_555 1_555
C24_9 C22_9 1_555 1_555
H16_9 C24_9 1_555 1_555
In8_3 O6_5 1_555 1_555
O11_9 In7 1_555 1_555
I2_9 Cu2_9 1_555 1_555
C6_9 O15 1_555 1_555
C8_9 C9_9 1_555 1_555
C11_9 C12_9 1_555 1_555
I3_9 Cu3_9 1_555 1_555
I3_9 Cu4_9 1_555 1_555
I4_9 Cu3_9 1_555 1_555
I4_9 Cu4_9 1_555 1_555
C20_9 C21_9 1_555 1_555
C23_9 C24_9 1_555 1_555
In8_4 O1_6 1_555 1_555
I1_10 Cu1_10 1_555 1_555
I2_10 Cu1_10 1_555 1_555
Cu1_10 N2_10 1_555 1_555
Cu2_10 I1_10 1_555 1_555
N1_10 Cu2_10 1_555 1_555
N2_10 C1_10 1_555 1_555
C1_10 H1_10 1_555 1_555
C4_10 N1_10 1_555 1_555
H2_10 C4_10 1_555 1_555
C5_10 C4_10 1_555 1_555
O1_6 C2_10 1_555 1_555
C6_10 C5_10 1_555 1_555
C7_10 C5_10 1_555 1_555
H3_10 C7_10 1_555 1_555
C8_10 N1_10 1_555 1_555
H4_10 C8_10 1_555 1_555
C9_10 C7_10 1_555 1_555
H5_10 C9_10 1_555 1_555
O17_8 C6_10 1_555 1_555
I3_10 Cu2_10 1_555 1_555
I4_10 Cu1_10 1_555 1_555
Cu3_10 I2_10 1_555 1_555
Cu4_10 I1_10 1_555 1_555
N3_10 Cu4_10 1_555 1_555
N4_10 Cu3_10 1_555 1_555
C13_10 N4_10 1_555 1_555
H9_10 C13_10 1_555 1_555
C16_10 N3_10 1_555 1_555
H10_10 C16_10 1_555 1_555
C17_10 C16_10 1_555 1_555
O6_6 C14_10 1_555 1_555
C18_10 C17_10 1_555 1_555
C19_10 C17_10 1_555 1_555
H11_10 C19_10 1_555 1_555
C20_10 N3_10 1_555 1_555
H12_10 C20_10 1_555 1_555
C21_10 C19_10 1_555 1_555
H13_10 C21_10 1_555 1_555
O15_7 C18_10 1_555 1_555
O17 C18_10 1_555 1_555
In7_2 O6_6 1_555 1_555
O11_10 In8_4 1_555 1_555
I2_10 Cu2_10 1_555 1_555
C6_10 O15_14 1_555 1_555
C8_10 C9_10 1_555 1_555
I3_10 Cu3_10 1_555 1_555
I3_10 Cu4_10 1_555 1_555
I4_10 Cu3_10 1_555 1_555
I4_10 Cu4_10 1_555 1_555
C20_10 C21_10 1_555 1_555
H6_10 C10_10 1_555 1_555
C11_10 C3_10 1_555 1_555
H7_10 C11_10 1_555 1_555
C12_10 C10_10 1_555 1_555
H8_10 C12_10 1_555 1_555
H14_10 C22_10 1_555 1_555
C23_10 C15_10 1_555 1_555
H15_10 C23_10 1_555 1_555
C24_10 C22_10 1_555 1_555
H16_10 C24_10 1_555 1_555
C11_10 C12_10 1_555 1_555
C23_10 C24_10 1_555 1_555
O11_11 In7_2 1_555 1_555
O11_12 In8_3 1_555 1_555
N2_11 C1_11 1_555 1_555
C1_11 H1_11 1_555 1_555
C2_11 C3_11 1_555 1_555
C3_11 C1_11 1_555 1_555
O11_11 C2_11 1_555 1_555
O13_7 C2_11 1_555 1_555
C10_11 N2_11 1_555 1_555
H6_11 C10_11 1_555 1_555
C11_11 C3_11 1_555 1_555
H7_11 C11_11 1_555 1_555
C12_11 C10_11 1_555 1_555
H8_11 C12_11 1_555 1_555
H12_11 C20_11 1_555 1_555
C11_11 C12_11 1_555 1_555
I1_11 Cu1_11 1_555 1_555
I2_11 Cu1_11 1_555 1_555
Cu2_11 I1_11 1_555 1_555
N1_11 Cu2_11 1_555 1_555
C4_11 N1_11 1_555 1_555
H2_11 C4_11 1_555 1_555
C8_11 N1_11 1_555 1_555
H4_11 C8_11 1_555 1_555
I3_11 Cu2_11 1_555 1_555
I4_11 Cu1_11 1_555 1_555
Cu3_11 I2_11 1_555 1_555
Cu4_11 I1_11 1_555 1_555
N3_11 Cu4_11 1_555 1_555
N4_11 Cu3_11 1_555 1_555
C13_11 N4_11 1_555 1_555
H9_11 C13_11 1_555 1_555
C14_11 C15_11 1_555 1_555
C15_11 C13_11 1_555 1_555
C16_11 N3_11 1_555 1_555
H10_11 C16_11 1_555 1_555
O11_10 C14_11 1_555 1_555
O13_14 C14_11 1_555 1_555
C22_11 N4_11 1_555 1_555
H14_11 C22_11 1_555 1_555
C23_11 C15_11 1_555 1_555
H15_11 C23_11 1_555 1_555
C24_11 C22_11 1_555 1_555
H16_11 C24_11 1_555 1_555
I2_11 Cu2_11 1_555 1_555
I3_11 Cu3_11 1_555 1_555
I3_11 Cu4_11 1_555 1_555
I4_11 Cu3_11 1_555 1_555
I4_11 Cu4_11 1_555 1_555
C23_11 C24_11 1_555 1_555
H11_11 C19_11 1_555 1_555
C21_11 C19_11 1_555 1_555
H13_11 C21_11 1_555 1_555
C6_11 C5_11 1_555 1_555
C7_11 C5_11 1_555 1_555
H3_11 C7_11 1_555 1_555
C9_11 C7_11 1_555 1_555
H5_11 C9_11 1_555 1_555
O17_3 C6_11 1_555 1_555
C18_11 C17_11 1_555 1_555
O17_6 C18_11 1_555 1_555
N2_12 C1_12 1_555 1_555
C1_12 H1_12 1_555 1_555
C2_12 C3_12 1_555 1_555
C3_12 C1_12 1_555 1_555
O11_12 C2_12 1_555 1_555
O13_12 C2_12 1_555 1_555
C10_12 N2_12 1_555 1_555
H6_12 C10_12 1_555 1_555
C11_12 C3_12 1_555 1_555
H7_12 C11_12 1_555 1_555
C12_12 C10_12 1_555 1_555
H8_12 C12_12 1_555 1_555
H11_12 C19_12 1_555 1_555
H12_12 C20_12 1_555 1_555
C21_12 C19_12 1_555 1_555
H13_12 C21_12 1_555 1_555
C11_12 C12_12 1_555 1_555
C20_12 C21_12 1_555 1_555
I1_12 Cu1_12 1_555 1_555
I2_12 Cu1_12 1_555 1_555
Cu2_12 I1_12 1_555 1_555
N1_12 Cu2_12 1_555 1_555
C4_12 N1_12 1_555 1_555
H2_12 C4_12 1_555 1_555
C5_12 C4_12 1_555 1_555
C6_12 C5_12 1_555 1_555
C7_12 C5_12 1_555 1_555
H3_12 C7_12 1_555 1_555
C8_12 N1_12 1_555 1_555
H4_12 C8_12 1_555 1_555
C9_12 C7_12 1_555 1_555
H5_12 C9_12 1_555 1_555
O16_6 C6_12 1_555 1_555
I3_12 Cu2_12 1_555 1_555
I4_12 Cu1_12 1_555 1_555
Cu3_12 I2_12 1_555 1_555
Cu4_12 I1_12 1_555 1_555
N3_12 Cu4_12 1_555 1_555
N4_12 Cu3_12 1_555 1_555
C13_12 N4_12 1_555 1_555
H9_12 C13_12 1_555 1_555
C14_12 C15_12 1_555 1_555
C15_12 C13_12 1_555 1_555
C16_12 N3_12 1_555 1_555
H10_12 C16_12 1_555 1_555
C17_12 C16_12 1_555 1_555
O11_9 C14_12 1_555 1_555
O13 C14_12 1_555 1_555
C18_12 C17_12 1_555 1_555
C22_12 N4_12 1_555 1_555
H14_12 C22_12 1_555 1_555
O15_3 C18_12 1_555 1_555
O16_3 C18_12 1_555 1_555
C23_12 C15_12 1_555 1_555
H15_12 C23_12 1_555 1_555
C24_12 C22_12 1_555 1_555
H16_12 C24_12 1_555 1_555
I2_12 Cu2_12 1_555 1_555
C6_12 O15_10 1_555 1_555
C8_12 C9_12 1_555 1_555
I3_12 Cu3_12 1_555 1_555
I3_12 Cu4_12 1_555 1_555
I4_12 Cu3_12 1_555 1_555
I4_12 Cu4_12 1_555 1_555
C23_12 C24_12 1_555 1_555
In7_3 O1_7 1_555 1_555
N2_13 C1_13 1_555 1_555
C1_13 H1_13 1_555 1_555
C2_13 C3_13 1_555 1_555
C3_13 C1_13 1_555 1_555
O1_7 C2_13 1_555 1_555
O13_11 C2_13 1_555 1_555
C10_13 N2_13 1_555 1_555
H6_13 C10_13 1_555 1_555
C11_13 C3_13 1_555 1_555
H7_13 C11_13 1_555 1_555
C12_13 C10_13 1_555 1_555
H8_13 C12_13 1_555 1_555
H11_13 C19_13 1_555 1_555
H12_13 C20_13 1_555 1_555
C21_13 C19_13 1_555 1_555
H13_13 C21_13 1_555 1_555
O11_13 In7_3 1_555 1_555
C11_13 C12_13 1_555 1_555
C20_13 C21_13 1_555 1_555
I1_13 Cu1_13 1_555 1_555
I2_13 Cu1_13 1_555 1_555
Cu2_13 I1_13 1_555 1_555
N1_13 Cu2_13 1_555 1_555
C4_13 N1_13 1_555 1_555
H2_13 C4_13 1_555 1_555
C5_13 C4_13 1_555 1_555
C6_13 C5_13 1_555 1_555
C7_13 C5_13 1_555 1_555
H3_13 C7_13 1_555 1_555
C8_13 N1_13 1_555 1_555
H4_13 C8_13 1_555 1_555
C9_13 C7_13 1_555 1_555
H5_13 C9_13 1_555 1_555
O16_5 C6_13 1_555 1_555
I3_13 Cu2_13 1_555 1_555
I4_13 Cu1_13 1_555 1_555
Cu3_13 I2_13 1_555 1_555
Cu4_13 I1_13 1_555 1_555
N3_13 Cu4_13 1_555 1_555
N4_13 Cu3_13 1_555 1_555
C13_13 N4_13 1_555 1_555
H9_13 C13_13 1_555 1_555
C14_13 C15_13 1_555 1_555
C15_13 C13_13 1_555 1_555
C16_13 N3_13 1_555 1_555
H10_13 C16_13 1_555 1_555
C17_13 C16_13 1_555 1_555
O6_7 C14_13 1_555 1_555
O13_2 C14_13 1_555 1_555
C18_13 C17_13 1_555 1_555
C22_13 N4_13 1_555 1_555
H14_13 C22_13 1_555 1_555
O15_4 C18_13 1_555 1_555
O16_4 C18_13 1_555 1_555
C23_13 C15_13 1_555 1_555
H15_13 C23_13 1_555 1_555
C24_13 C22_13 1_555 1_555
H16_13 C24_13 1_555 1_555
In8 O6_7 1_555 1_555
I2_13 Cu2_13 1_555 1_555
C6_13 O15_9 1_555 1_555
C8_13 C9_13 1_555 1_555
I3_13 Cu3_13 1_555 1_555
I3_13 Cu4_13 1_555 1_555
I4_13 Cu3_13 1_555 1_555
I4_13 Cu4_13 1_555 1_555
C23_13 C24_13 1_555 1_555
In8_2 O1_8 1_555 1_555
N2_14 C1_14 1_555 1_555
C1_14 H1_14 1_555 1_555
O1_8 C2_14 1_555 1_555
H11_14 C19_14 1_555 1_555
H12_14 C20_14 1_555 1_555
C21_14 C19_14 1_555 1_555
H13_14 C21_14 1_555 1_555
O11_14 In8_2 1_555 1_555
C20_14 C21_14 1_555 1_555
I1_14 Cu1_14 1_555 1_555
I2_14 Cu1_14 1_555 1_555
Cu2_14 I1_14 1_555 1_555
N1_14 Cu2_14 1_555 1_555
C4_14 N1_14 1_555 1_555
H2_14 C4_14 1_555 1_555
C5_14 C4_14 1_555 1_555
C6_14 C5_14 1_555 1_555
C7_14 C5_14 1_555 1_555
H3_14 C7_14 1_555 1_555
C8_14 N1_14 1_555 1_555
H4_14 C8_14 1_555 1_555
C9_14 C7_14 1_555 1_555
H5_14 C9_14 1_555 1_555
O17_4 C6_14 1_555 1_555
I3_14 Cu2_14 1_555 1_555
I4_14 Cu1_14 1_555 1_555
Cu3_14 I2_14 1_555 1_555
Cu4_14 I1_14 1_555 1_555
N3_14 Cu4_14 1_555 1_555
N4_14 Cu3_14 1_555 1_555
C13_14 N4_14 1_555 1_555
H9_14 C13_14 1_555 1_555
C16_14 N3_14 1_555 1_555
H10_14 C16_14 1_555 1_555
C17_14 C16_14 1_555 1_555
O6_8 C14_14 1_555 1_555
C18_14 C17_14 1_555 1_555
O15_15 C18_14 1_555 1_555
O17_5 C18_14 1_555 1_555
In7_4 O6_8 1_555 1_555
I2_14 Cu2_14 1_555 1_555
C6_14 O15_6 1_555 1_555
C8_14 C9_14 1_555 1_555
I3_14 Cu3_14 1_555 1_555
I3_14 Cu4_14 1_555 1_555
I4_14 Cu3_14 1_555 1_555
I4_14 Cu4_14 1_555 1_555
H6_14 C10_14 1_555 1_555
C11_14 C3_14 1_555 1_555
H7_14 C11_14 1_555 1_555
C12_14 C10_14 1_555 1_555
H8_14 C12_14 1_555 1_555
C11_14 C12_14 1_555 1_555
H14_14 C22_14 1_555 1_555
C23_14 C15_14 1_555 1_555
H15_14 C23_14 1_555 1_555
C24_14 C22_14 1_555 1_555
H16_14 C24_14 1_555 1_555
C23_14 C24_14 1_555 1_555
O11_15 In7_4 1_555 1_555
O11_16 In8 1_555 1_555
I1_15 Cu1_15 1_555 1_555
I2_15 Cu1_15 1_555 1_555
Cu1_15 N2_15 1_555 1_555
Cu2_15 I1_15 1_555 1_555
N1_15 Cu2_15 1_555 1_555
N2_15 C1_15 1_555 1_555
C1_15 H1_15 1_555 1_555
C2_15 C3_15 1_555 1_555
C3_15 C1_15 1_555 1_555
C4_15 N1_15 1_555 1_555
H2_15 C4_15 1_555 1_555
O11_15 C2_15 1_555 1_555
O13_15 C2_15 1_555 1_555
C8_15 N1_15 1_555 1_555
H4_15 C8_15 1_555 1_555
C10_15 N2_15 1_555 1_555
H6_15 C10_15 1_555 1_555
C11_15 C3_15 1_555 1_555
H7_15 C11_15 1_555 1_555
C12_15 C10_15 1_555 1_555
H8_15 C12_15 1_555 1_555
I3_15 Cu2_15 1_555 1_555
I4_15 Cu1_15 1_555 1_555
Cu3_15 I2_15 1_555 1_555
Cu4_15 I1_15 1_555 1_555
N3_15 Cu4_15 1_555 1_555
N4_15 Cu3_15 1_555 1_555
C13_15 N4_15 1_555 1_555
H9_15 C13_15 1_555 1_555
C14_15 C15_15 1_555 1_555
C15_15 C13_15 1_555 1_555
C16_15 N3_15 1_555 1_555
H10_15 C16_15 1_555 1_555
O11_14 C14_15 1_555 1_555
O13_6 C14_15 1_555 1_555
C20_15 N3_15 1_555 1_555
H12_15 C20_15 1_555 1_555
C22_15 N4_15 1_555 1_555
H14_15 C22_15 1_555 1_555
C23_15 C15_15 1_555 1_555
H15_15 C23_15 1_555 1_555
C24_15 C22_15 1_555 1_555
H16_15 C24_15 1_555 1_555
I2_15 Cu2_15 1_555 1_555
C11_15 C12_15 1_555 1_555
I3_15 Cu3_15 1_555 1_555
I3_15 Cu4_15 1_555 1_555
I4_15 Cu3_15 1_555 1_555
I4_15 Cu4_15 1_555 1_555
C23_15 C24_15 1_555 1_555
C6_15 C5_15 1_555 1_555
C7_15 C5_15 1_555 1_555
H3_15 C7_15 1_555 1_555
C9_15 C7_15 1_555 1_555
H5_15 C9_15 1_555 1_555
O17_7 C6_15 1_555 1_555
C18_15 C17_15 1_555 1_555
C19_15 C17_15 1_555 1_555
H11_15 C19_15 1_555 1_555
C21_15 C19_15 1_555 1_555
H13_15 C21_15 1_555 1_555
O17_2 C18_15 1_555 1_555
I1_16 Cu1_16 1_555 1_555
I2_16 Cu1_16 1_555 1_555
Cu1_16 N2_16 1_555 1_555
Cu2_16 I1_16 1_555 1_555
N1_16 Cu2_16 1_555 1_555
N2_16 C1_16 1_555 1_555
C1_16 H1_16 1_555 1_555
C2_16 C3_16 1_555 1_555
C3_16 C1_16 1_555 1_555
C4_16 N1_16 1_555 1_555
H2_16 C4_16 1_555 1_555
C5_16 C4_16 1_555 1_555
O11_16 C2_16 1_555 1_555
O13_4 C2_16 1_555 1_555
C6_16 C5_16 1_555 1_555
C7_16 C5_16 1_555 1_555
H3_16 C7_16 1_555 1_555
C8_16 N1_16 1_555 1_555
H4_16 C8_16 1_555 1_555
C9_16 C7_16 1_555 1_555
H5_16 C9_16 1_555 1_555
C10_16 N2_16 1_555 1_555
H6_16 C10_16 1_555 1_555
O16_2 C6_16 1_555 1_555
C11_16 C3_16 1_555 1_555
H7_16 C11_16 1_555 1_555
C12_16 C10_16 1_555 1_555
H8_16 C12_16 1_555 1_555
I3_16 Cu2_16 1_555 1_555
I4_16 Cu1_16 1_555 1_555
Cu3_16 I2_16 1_555 1_555
Cu4_16 I1_16 1_555 1_555
N3_16 Cu4_16 1_555 1_555
N4_16 Cu3_16 1_555 1_555
C13_16 N4_16 1_555 1_555
H9_16 C13_16 1_555 1_555
C14_16 C15_16 1_555 1_555
C15_16 C13_16 1_555 1_555
C16_16 N3_16 1_555 1_555
H10_16 C16_16 1_555 1_555
C17_16 C16_16 1_555 1_555
O11_13 C14_16 1_555 1_555
O13_9 C14_16 1_555 1_555
C18_16 C17_16 1_555 1_555
C19_16 C17_16 1_555 1_555
H11_16 C19_16 1_555 1_555
C20_16 N3_16 1_555 1_555
H12_16 C20_16 1_555 1_555
C21_16 C19_16 1_555 1_555
H13_16 C21_16 1_555 1_555
C22_16 N4_16 1_555 1_555
H14_16 C22_16 1_555 1_555
O15_11 C18_16 1_555 1_555
O16_7 C18_16 1_555 1_555
C23_16 C15_16 1_555 1_555
H15_16 C23_16 1_555 1_555
C24_16 C22_16 1_555 1_555
H16_16 C24_16 1_555 1_555
I2_16 Cu2_16 1_555 1_555
C6_16 O15_2 1_555 1_555
C8_16 C9_16 1_555 1_555
C11_16 C12_16 1_555 1_555
I3_16 Cu3_16 1_555 1_555
I3_16 Cu4_16 1_555 1_555
I4_16 Cu3_16 1_555 1_555
I4_16 Cu4_16 1_555 1_555
C20_16 C21_16 1_555 1_555
C23_16 C24_16 1_555 1_555

#END
