
###############################################################################
#
# This file contains modified crystal structure data generated from the
# MOF subset of the Cambridge Structural Database (CSD) v543 
# hosted by the Cambridge Crystallographic Data Centre (CCDC).
#
# This work is licensed under the Creative Commons
# Attribution-NonCommercial-ShareAlike 4.0 International License.
# To view a copy of this license, visit
# http://creativecommons.org/licenses/by-nc-sa/4.0/
# or send a letter to
# Creative Commons, PO Box 1866, Mountain View, CA 94042, USA.
#
# CIF created using the CSD Python API on 29 September 2022
# The structure has been converted into the P1 space group
# The structure has a 3D framework
# The original CSD entry JOXPIX is in the triclinic crystal system
# The framework has been calculated to contain at least 10.0% void space
# The void calculation uses a probe of radius 1.32A, grid spacing 0.4
#
###############################################################################

data_JOXPIX
_chemical_formula_moiety         '(C72 H60 Ag10 Gd4 N24 O66)n'
_symmetry_cell_setting           triclinic
_symmetry_space_group_name_H-M   'P 1'
_symmetry_Int_Tables_number      1
_space_group_name_Hall           'P 1'
loop_
_symmetry_equiv_pos_site_id
_symmetry_equiv_pos_as_xyz
1 x,y,z
_cell_length_a                   13.8475(7)
_cell_length_b                   15.1719(8)
_cell_length_c                   16.4770(8)
_cell_angle_alpha                75.798(4)
_cell_angle_beta                 81.449(4)
_cell_angle_gamma                63.074(5)
_cell_volume                     2989.26
loop_
_atom_site_label
_atom_site_type_symbol
_atom_site_fract_x
_atom_site_fract_y
_atom_site_fract_z
Gd2 Gd 0.13212(3) 0.20129(3) 0.10366(2)
O15 O 0.0752(4) 0.0766(3) 0.0880(3)
O29 O 0.2809(5) 0.1007(5) 0.0219(3)
H21 H 0.3158 0.0435 0.0528
O30 O 0.2267(10) 0.0771(7) 0.2090(5)
H23 H 0.1926 0.0441 0.2370
H24 H 0.2446 0.1005 0.2431
O31 O 0.0931(4) 0.2827(4) 0.2211(3)
H25 H 0.1110 0.3173 0.2440
H26 H 0.0252 0.3143 0.2143
O32 O 0.0678(11) 0.3879(8) 0.0507(5)
H28 H 0.0791 0.4330 0.0640
O33 O 0.2542(11) 0.2737(10) 0.0841(7)
H29 H 0.2662 0.2988 0.1201
H30 H 0.3107 0.2199 0.0787
Ag6 Ag -0.00006(5) 0.46330(4) 0.64286(3)
H4 H 0.0161 0.7255 0.3869
C24 C 0.0226(6) 0.3277(5) 0.9087(4)
O9 O 0.0699(4) 0.2499(4) 0.9647(3)
O10 O 0.0313(5) 0.4065(4) 0.8929(3)
H22 H 0.2687 0.0906 0.9768
H27 H 0.0786 0.3930 0.9979
Ag13 Ag 0.08765(5) 0.08627(4) 0.92252(3)
Ag14 Ag 0.00006(5) 0.53670(4) 0.35714(3)
N14 N 0.0832(5) 0.2911(4) 0.6747(3)
N16 N 0.0445(5) 0.7714(4) 0.1459(3)
O34 O 0.1293(4) 0.5474(3) 0.5667(3)
O36 O 0.1908(4) 0.3865(3) 0.7108(3)
Ag3 Ag 0.42727(5) 0.09333(4) 0.59894(4)
Ag7 Ag 0.76213(5) 0.08711(4) 0.26010(4)
N13 N 0.2896(5) 0.2315(4) 0.5286(3)
N18 N 0.8542(5) 0.0837(4) 0.0344(3)
O35 O 0.4248(5) 0.2491(4) 0.6193(3)
O43 O 0.6174(5) 0.0545(4) 0.5314(3)
C25 C 0.8341(5) 0.2439(5) 0.0476(4)
C26 C 0.8877(5) 0.1384(5) 0.0655(4)
C29 C 0.8670(6) 0.3098(5) 0.0840(4)
C30 C 0.9867(6) 0.0762(5) 0.1194(4)
O13 O 0.9469(4) 0.2632(3) 0.1300(3)
O14 O 0.8124(4) 0.4013(4) 0.0680(3)
O16 O 0.9704(4) 0.0290(4) 0.1884(3)
Ag2 Ag 0.66980(5) 0.53819(4) 0.69512(4)
Ag4 Ag 0.33509(5) 0.53300(4) 0.02744(3)
Ag5 Ag 0.91235(5) 0.91373(4) 0.07748(3)
Ag6_2 Ag 0.99994(5) 0.46330(4) 0.64286(3)
C1 C 0.7239(6) 0.6753(5) 0.4677(4)
C2 C 0.8093(5) 0.5890(5) 0.5063(4)
C3 C 0.7814(7) 0.7737(6) 0.5138(4)
H1 H 0.7753 0.8366 0.5163
C4 C 0.8644(6) 0.6874(5) 0.5545(4)
H2 H 0.9111 0.6943 0.5850
C5 C 0.8320(6) 0.4808(5) 0.5035(4)
C6 C 0.6398(6) 0.6723(5) 0.4200(4)
C7 C 0.8323(5) 0.7606(5) 0.2760(4)
C8 C 0.7895(6) 0.8647(5) 0.2540(4)
C9 C 0.9115(6) 0.8644(5) 0.3328(4)
H3 H 0.9396 0.8983 0.3549
C10 C 0.9567(6) 0.7603(5) 0.3531(4)
C11 C 0.7851(6) 0.7019(5) 0.2472(4)
C12 C 0.6944(6) 0.9299(5) 0.1956(4)
C13 C 0.5139(6) 0.7626(5) 0.6204(4)
C14 C 0.4635(6) 0.8680(5) 0.6007(4)
C15 C 0.6358(7) 0.7695(6) 0.6971(5)
H5 H 0.6958 0.7374 0.7304
C16 C 0.5851(7) 0.8728(6) 0.6777(5)
H6 H 0.6114 0.9094 0.6982
C17 C 0.4728(6) 0.6994(5) 0.5924(4)
C18 C 0.3640(7) 0.9307(5) 0.5460(4)
C19 C 0.8645(5) 0.4071(5) 0.8120(4)
C20 C 0.9460(5) 0.3199(5) 0.8568(4)
C21 C 0.8054(6) 0.3108(5) 0.7654(4)
H7 H 0.7573 0.3050 0.7355
C22 C 0.8870(6) 0.2244(5) 0.8085(4)
H8 H 0.8936 0.1616 0.8051
C23 C 0.8479(6) 0.5142(5) 0.8124(4)
C27 C 0.7157(6) 0.2369(5) 0.9681(4)
H9 H 0.6564 0.2689 0.9341
C28 C 0.7686(6) 0.1340(5) 0.9854(4)
H10 H 0.7446 0.0975 0.9625
C31 C 0.5336(5) 0.4070(5) 0.1514(4)
C32 C 0.6165(6) 0.3198(5) 0.1941(4)
C33 C 0.4798(6) 0.3079(5) 0.1026(4)
H11 H 0.4348 0.3017 0.0699
C34 C 0.5589(6) 0.2226(5) 0.1464(4)
H12 H 0.5634 0.1598 0.1456
C35 C 0.5132(5) 0.5150(5) 0.1505(4)
C36 C 0.6989(6) 0.3219(5) 0.2433(4)
Gd1 Gd 0.75585(3) 0.48131(2) 0.323210(18)
N1 N 0.8796(5) 0.5953(4) 0.5516(3)
N2 N 0.7104(5) 0.7685(4) 0.4714(3)
N3 N 0.9168(5) 0.7089(4) 0.3253(3)
N4 N 0.8286(5) 0.9174(4) 0.2822(3)
N5 N 0.6290(5) 0.2275(4) 0.1899(3)
N6 N 0.4671(5) 0.3990(4) 0.1063(3)
N7 N 0.4986(5) 0.9225(4) 0.6298(4)
N8 N 0.6007(5) 0.7141(4) 0.6691(4)
N9 N 0.7959(5) 0.4016(4) 0.7670(3)
N10 N 0.9555(5) 0.2286(4) 0.8541(3)
N11 N 0.7478(5) 0.2925(4) 0.9993(3)
O1 O 0.8707(4) 0.4526(3) 0.4333(3)
O2 O 0.8189(5) 0.4280(4) 0.5689(3)
O3 O 0.6494(4) 0.5844(3) 0.4222(3)
O4 O 0.5752(5) 0.7509(4) 0.3807(3)
O5 O 0.8092(4) 0.6135(3) 0.2892(3)
O6 O 0.7307(5) 0.7427(4) 0.1851(3)
O7 O 0.6010(5) 0.9519(4) 0.2288(3)
O8 O 0.7188(4) 0.9603(4) 0.1220(3)
O11 O 0.7895(5) 0.5505(4) 0.8729(3)
O12 O 0.8853(5) 0.5574(3) 0.7516(3)
O17 O 0.7780(4) 0.2412(3) 0.2680(3)
O18 O 0.6818(4) 0.4084(3) 0.2533(3)
O19 O 0.4511(4) 0.5559(4) 0.2071(3)
O20 O 0.5561(5) 0.5540(4) 0.0902(3)
O21 O 0.5315(5) 0.6071(4) 0.6027(3)
O22 O 0.3810(5) 0.7451(4) 0.5625(4)
O23 O 0.2748(5) 0.9654(4) 0.5833(3)
O24 O 0.3826(5) 0.9455(4) 0.4686(3)
O25 O 0.8996(4) 0.3095(3) 0.3262(3)
H13 H 0.9232 0.2468 0.3275
H14 H 0.9374 0.3162 0.3584
O26 O 0.6936(4) 0.3847(4) 0.4356(3)
H15 H 0.7483 0.3277 0.4459
H16 H 0.6912 0.4188 0.4704
O27 O 0.5927(4) 0.6132(4) 0.2568(3)
H17 H 0.6058 0.6642 0.2503
H18 H 0.5272 0.6304 0.2747
O28 O 0.8429(4) 0.4849(4) 0.1859(3)
H19 H 0.8828 0.5142 0.1632
H20 H 0.8496 0.4440 0.1560
Ag8 Ag 0.23787(5) 0.91289(4) 0.73990(4)
Ag9 Ag 0.57273(5) 0.90667(4) 0.40106(4)
Ag11 Ag 0.66491(5) 0.46700(4) 0.97256(3)
Ag14_2 Ag 1.00006(5) 0.53670(4) 0.35714(3)
N17 N 0.2522(5) 0.7075(4) 0.0007(3)
O37 O 0.9301(4) 0.7501(4) 0.0353(3)
O38 O 0.2105(5) 0.4495(4) 0.1271(3)
O42 O 0.7252(5) 0.0346(4) 0.4167(3)
O39 O 0.1876(4) 0.5987(4) 0.9320(3)
O40 O 0.9248(4) 0.9234(3) 0.9120(3)
O41 O 0.4439(5) 0.4460(4) 0.9098(3)
N15 N 0.1714(5) 0.0826(4) 0.7178(3)
Ag2_2 Ag 0.33020(5) 0.46181(4) 0.30488(4)
C1_2 C 0.2761(6) 0.3247(5) 0.5323(4)
C2_2 C 0.1907(5) 0.4110(5) 0.4937(4)
C3_2 C 0.2186(7) 0.2263(6) 0.4862(4)
H1_2 H 0.2247 0.1634 0.4837
C4_2 C 0.1356(6) 0.3126(5) 0.4455(4)
H2_2 H 0.0889 0.3057 0.4150
C5_2 C 0.1680(6) 0.5192(5) 0.4965(4)
C6_2 C 0.3602(6) 0.3277(5) 0.5800(4)
C7_2 C 0.1677(5) 0.2394(5) 0.7240(4)
C8_2 C 0.2105(6) 0.1353(5) 0.7460(4)
C9_2 C 0.0885(6) 0.1356(5) 0.6672(4)
H3_2 H 0.0604 0.1017 0.6451
C10_2 C 0.0433(6) 0.2397(5) 0.6469(4)
C11_2 C 0.2149(6) 0.2981(5) 0.7528(4)
C12_2 C 0.3056(6) 0.0701(5) 0.8044(4)
C13_2 C 0.4861(6) 0.2374(5) 0.3796(4)
C14_2 C 0.5365(6) 0.1320(5) 0.3993(4)
C15_2 C 0.3642(7) 0.2305(6) 0.3029(5)
H5_2 H 0.3042 0.2626 0.2696
C16_2 C 0.4149(7) 0.1272(6) 0.3223(5)
H6_2 H 0.3886 0.0906 0.3018
C17_2 C 0.5272(6) 0.3006(5) 0.4076(4)
C18_2 C 0.6360(7) 0.0693(5) 0.4540(4)
C19_2 C 0.1355(5) 0.5929(5) 0.1880(4)
C20_2 C 0.0540(5) 0.6801(5) 0.1432(4)
C21_2 C 0.1946(6) 0.6892(5) 0.2346(4)
H7_2 H 0.2427 0.6950 0.2645
C22_2 C 0.1130(6) 0.7756(5) 0.1915(4)
H8_2 H 0.1064 0.8384 0.1949
C23_2 C 0.1521(6) 0.4858(5) 0.1876(4)
C27_2 C 0.2843(6) 0.7631(5) 0.0319(4)
H9_2 H 0.3436 0.7311 0.0659
C28_2 C 0.2314(6) 0.8660(5) 0.0146(4)
H10_2 H 0.2554 0.9025 0.0375
C31_2 C 0.4664(5) 0.5930(5) 0.8486(4)
C32_2 C 0.3835(6) 0.6802(5) 0.8059(4)
C33_2 C 0.5202(6) 0.6921(5) 0.8974(4)
H11_2 H 0.5652 0.6983 0.9301
C34_2 C 0.4411(6) 0.7774(5) 0.8536(4)
H12_2 H 0.4366 0.8402 0.8544
C35_2 C 0.4868(5) 0.4850(5) 0.8495(4)
C36_2 C 0.3011(6) 0.6781(5) 0.7567(4)
Gd1_2 Gd 0.24415(3) 0.51869(2) 0.676790(18)
N1_2 N 0.1204(5) 0.4047(4) 0.4484(3)
N5_2 N 0.3710(5) 0.7725(4) 0.8101(3)
N6_2 N 0.5329(5) 0.6010(4) 0.8937(3)
N7_2 N 0.5014(5) 0.0775(4) 0.3702(4)
N8_2 N 0.3993(5) 0.2859(4) 0.3309(4)
N9_2 N 0.2041(5) 0.5984(4) 0.2330(3)
O2_2 O 0.1811(5) 0.5720(4) 0.4311(3)
O3_2 O 0.3506(4) 0.4156(3) 0.5778(3)
O6_2 O 0.2693(5) 0.2573(4) 0.8149(3)
O7_2 O 0.3990(5) 0.0481(4) 0.7712(3)
O8_2 O 0.2812(4) 0.0397(4) 0.8780(3)
O12_2 O 0.1147(5) 0.4426(3) 0.2484(3)
O17_2 O 0.2220(4) 0.7588(3) 0.7320(3)
O18_2 O 0.3182(4) 0.5916(3) 0.7467(3)
O19_2 O 0.5489(4) 0.4441(4) 0.7929(3)
O21_2 O 0.4685(5) 0.3929(4) 0.3973(3)
O22_2 O 0.6190(5) 0.2549(4) 0.4375(4)
O25_2 O 0.1004(4) 0.6905(3) 0.6738(3)
H13_2 H 0.0768 0.7532 0.6725
H14_2 H 0.0626 0.6838 0.6416
O26_2 O 0.3064(4) 0.6153(4) 0.5644(3)
H15_2 H 0.2517 0.6723 0.5541
H16_2 H 0.3088 0.5812 0.5296
O27_2 O 0.4073(4) 0.3868(4) 0.7432(3)
H17_2 H 0.3942 0.3358 0.7497
H18_2 H 0.4728 0.3696 0.7253
O28_2 O 0.1571(4) 0.5151(4) 0.8141(3)
H19_2 H 0.1172 0.4858 0.8368
H20_2 H 0.1504 0.5560 0.8440
C25_2 C 0.1659(5) 0.7561(5) 0.9524(4)
C26_2 C 0.1123(5) 0.8616(5) 0.9345(4)
C29_2 C 0.1330(6) 0.6902(5) 0.9160(4)
C30_2 C 0.0133(6) 0.9238(5) 0.8806(4)
N12 N 0.1458(5) 0.9163(4) 0.9656(3)
O13_2 O 0.0531(4) 0.7368(3) 0.8700(3)
O16_2 O 0.0296(4) 0.9710(4) 0.8116(3)
H4_2 H 0.9839 0.2745 0.6131
C24_2 C 0.9774(6) 0.6723(5) 0.0913(4)
O10_2 O 0.9687(5) 0.5935(4) 0.1071(3)
H22_2 H 0.7313 0.9094 0.0232
H27_2 H 0.9214 0.6070 0.0021
Gd2_2 Gd 0.86788(3) 0.79871(3) 0.89634(2)
O29_2 O 0.7191(5) 0.8993(5) 0.9781(3)
H21_2 H 0.6842 0.9565 0.9472
O30_2 O 0.7733(10) 0.9229(7) 0.7910(5)
H23_2 H 0.8074 0.9559 0.7630
H24_2 H 0.7554 0.8995 0.7569
O31_2 O 0.9069(4) 0.7173(4) 0.7789(3)
H25_2 H 0.8890 0.6827 0.7560
H26_2 H 0.9748 0.6857 0.7857
O32_2 O 0.9322(11) 0.6121(8) 0.9493(5)
H28_2 H 0.9209 0.5670 0.9360
O33_2 O 0.7458(11) 0.7263(10) 0.9159(7)
H29_2 H 0.7338 0.7012 0.8799
H30_2 H 0.6893 0.7801 0.9213
loop_
_geom_bond_atom_site_label_1
_geom_bond_atom_site_label_2
_geom_bond_site_symmetry_1
_geom_bond_site_symmetry_2
O15 Gd2 1_555 1_555
O29 Gd2 1_555 1_555
H21 O29 1_555 1_555
O30 Gd2 1_555 1_555
H23 O30 1_555 1_555
H24 O30 1_555 1_555
O31 Gd2 1_555 1_555
H25 O31 1_555 1_555
H26 O31 1_555 1_555
O32 Gd2 1_555 1_555
H28 O32 1_555 1_555
O33 Gd2 1_555 1_555
H29 O33 1_555 1_555
H30 O33 1_555 1_555
C24 O9 1_555 1_555
O9 Ag13 1_555 1_555
O10 C24 1_555 1_555
N14 Ag6 1_555 1_555
O34 Ag6 1_555 1_555
O36 Ag6 1_555 1_555
N13 Ag3 1_555 1_555
O35 Ag3 1_555 1_555
O43 Ag3 1_555 1_555
C25 C26 1_555 1_555
C26 C30 1_555 1_555
C29 C25 1_555 1_555
N18 C26 1_555 1_555
O13 C29 1_555 1_555
O14 C29 1_555 1_555
O16 C30 1_555 1_555
Ag7 N5 1_555 1_555
Ag2 N8 1_555 1_555
Ag4 N6 1_555 1_555
Ag5 O8 1_555 1_555
Ag6_2 N1 1_555 1_555
C1 C2 1_555 1_555
C2 C5 1_555 1_555
C3 H1 1_555 1_555
C4 C3 1_555 1_555
H2 C4 1_555 1_555
C5 O1 1_555 1_555
C6 C1 1_555 1_555
C7 C8 1_555 1_555
C8 C12 1_555 1_555
C9 H3 1_555 1_555
C10 C9 1_555 1_555
C11 C7 1_555 1_555
C12 O7 1_555 1_555
C13 C14 1_555 1_555
C14 C18 1_555 1_555
C15 H5 1_555 1_555
C16 C15 1_555 1_555
H6 C16 1_555 1_555
C17 C13 1_555 1_555
C18 O23 1_555 1_555
C19 C20 1_555 1_555
C21 H7 1_555 1_555
C22 C21 1_555 1_555
H8 C22 1_555 1_555
C23 C19 1_555 1_555
C27 H9 1_555 1_555
C28 C27 1_555 1_555
H10 C28 1_555 1_555
C31 C32 1_555 1_555
C32 C36 1_555 1_555
C33 H11 1_555 1_555
C34 C33 1_555 1_555
H12 C34 1_555 1_555
C35 C31 1_555 1_555
C36 O17 1_555 1_555
Gd1 O1 1_555 1_555
N1 C2 1_555 1_555
N2 C1 1_555 1_555
N3 C7 1_555 1_555
N4 C8 1_555 1_555
N5 C32 1_555 1_555
N6 C31 1_555 1_555
N7 C14 1_555 1_555
N8 C13 1_555 1_555
N9 Ag2 1_555 1_555
N10 C20 1_555 1_555
O1 Ag14_2 1_555 1_555
O2 C5 1_555 1_555
O3 C6 1_555 1_555
O4 C6 1_555 1_555
O5 C11 1_555 1_555
O6 C11 1_555 1_555
O8 C12 1_555 1_555
O11 C23 1_555 1_555
O12 Ag6_2 1_555 1_555
O17 Ag7 1_555 1_555
O18 C36 1_555 1_555
O19 C35 1_555 1_555
O20 C35 1_555 1_555
O21 Ag2 1_555 1_555
O22 C17 1_555 1_555
O23 Ag8 1_555 1_555
O24 C18 1_555 1_555
O25 Gd1 1_555 1_555
H13 O25 1_555 1_555
H14 O25 1_555 1_555
O26 Gd1 1_555 1_555
H15 O26 1_555 1_555
H16 O26 1_555 1_555
O27 Gd1 1_555 1_555
H17 O27 1_555 1_555
H18 O27 1_555 1_555
O28 Gd1 1_555 1_555
H19 O28 1_555 1_555
H20 O28 1_555 1_555
Ag9 N2 1_555 1_555
Ag11 N11 1_555 1_555
Ag14_2 N3 1_555 1_555
N17 Ag4 1_555 1_555
O37 Ag5 1_555 1_555
O38 Ag4 1_555 1_555
O42 Ag7 1_555 1_555
C3 N2 1_555 1_555
C4 N1 1_555 1_555
C9 N4 1_555 1_555
C10 N3 1_555 1_555
C15 N8 1_555 1_555
C16 N7 1_555 1_555
C17 O21 1_555 1_555
C19 N9 1_555 1_555
C21 N9 1_555 1_555
C22 N10 1_555 1_555
C23 O12 1_555 1_555
C27 N11 1_555 1_555
C33 N6 1_555 1_555
C34 N5 1_555 1_555
Gd1 O3 1_555 1_555
Gd1 O5 1_555 1_555
Gd1 O18 1_555 1_555
O4 Ag9 1_555 1_555
O5 Ag14_2 1_555 1_555
O11 Ag11 1_555 1_555
O24 Ag9 1_555 1_555
Ag8 N5_2 1_555 1_555
Ag2_2 N8_2 1_555 1_555
Ag11 N6_2 1_555 1_555
Ag13 O8_2 1_555 1_555
Ag14 N1_2 1_555 1_555
C1_2 C2_2 1_555 1_555
C2_2 C5_2 1_555 1_555
C3_2 H1_2 1_555 1_555
C4_2 C3_2 1_555 1_555
H2_2 C4_2 1_555 1_555
C5_2 O34 1_555 1_555
C6_2 C1_2 1_555 1_555
C7_2 C8_2 1_555 1_555
C8_2 C12_2 1_555 1_555
C9_2 H3_2 1_555 1_555
C10_2 C9_2 1_555 1_555
C11_2 C7_2 1_555 1_555
C12_2 O7_2 1_555 1_555
C13_2 C14_2 1_555 1_555
C14_2 C18_2 1_555 1_555
C15_2 H5_2 1_555 1_555
C16_2 C15_2 1_555 1_555
H6_2 C16_2 1_555 1_555
C17_2 C13_2 1_555 1_555
C18_2 O42 1_555 1_555
C19_2 C20_2 1_555 1_555
C21_2 H7_2 1_555 1_555
C22_2 C21_2 1_555 1_555
H8_2 C22_2 1_555 1_555
C23_2 C19_2 1_555 1_555
C27_2 H9_2 1_555 1_555
C28_2 C27_2 1_555 1_555
H10_2 C28_2 1_555 1_555
C31_2 C32_2 1_555 1_555
C32_2 C36_2 1_555 1_555
C33_2 H11_2 1_555 1_555
C34_2 C33_2 1_555 1_555
H12_2 C34_2 1_555 1_555
C35_2 C31_2 1_555 1_555
C36_2 O17_2 1_555 1_555
Gd1_2 O34 1_555 1_555
N1_2 C2_2 1_555 1_555
N13 C1_2 1_555 1_555
N14 C7_2 1_555 1_555
N15 C8_2 1_555 1_555
N5_2 C32_2 1_555 1_555
N6_2 C31_2 1_555 1_555
N7_2 C14_2 1_555 1_555
N8_2 C13_2 1_555 1_555
N9_2 Ag2_2 1_555 1_555
N16 C20_2 1_555 1_555
O2_2 C5_2 1_555 1_555
O3_2 C6_2 1_555 1_555
O35 C6_2 1_555 1_555
O36 C11_2 1_555 1_555
O6_2 C11_2 1_555 1_555
O8_2 C12_2 1_555 1_555
O38 C23_2 1_555 1_555
O12_2 Ag14 1_555 1_555
O17_2 Ag8 1_555 1_555
O18_2 C36_2 1_555 1_555
O19_2 C35_2 1_555 1_555
O41 C35_2 1_555 1_555
O21_2 Ag2_2 1_555 1_555
O22_2 C17_2 1_555 1_555
O43 C18_2 1_555 1_555
O25_2 Gd1_2 1_555 1_555
H13_2 O25_2 1_555 1_555
H14_2 O25_2 1_555 1_555
O26_2 Gd1_2 1_555 1_555
H15_2 O26_2 1_555 1_555
H16_2 O26_2 1_555 1_555
O27_2 Gd1_2 1_555 1_555
H17_2 O27_2 1_555 1_555
H18_2 O27_2 1_555 1_555
O28_2 Gd1_2 1_555 1_555
H19_2 O28_2 1_555 1_555
H20_2 O28_2 1_555 1_555
C3_2 N13 1_555 1_555
C4_2 N1_2 1_555 1_555
C9_2 N15 1_555 1_555
C10_2 N14 1_555 1_555
C15_2 N8_2 1_555 1_555
C16_2 N7_2 1_555 1_555
C17_2 O21_2 1_555 1_555
C19_2 N9_2 1_555 1_555
C21_2 N9_2 1_555 1_555
C22_2 N16 1_555 1_555
C23_2 O12_2 1_555 1_555
C27_2 N17 1_555 1_555
C33_2 N6_2 1_555 1_555
C34_2 N5_2 1_555 1_555
Gd1_2 O3_2 1_555 1_555
Gd1_2 O36 1_555 1_555
Gd1_2 O18_2 1_555 1_555
C25_2 C26_2 1_555 1_555
C26_2 C30_2 1_555 1_555
C29_2 C25_2 1_555 1_555
N12 C26_2 1_555 1_555
O13_2 C29_2 1_555 1_555
O39 C29_2 1_555 1_555
O16_2 C30_2 1_555 1_555
C24_2 O37 1_555 1_555
O10_2 C24_2 1_555 1_555
O40 Gd2_2 1_555 1_555
O29_2 Gd2_2 1_555 1_555
H21_2 O29_2 1_555 1_555
O30_2 Gd2_2 1_555 1_555
H23_2 O30_2 1_555 1_555
H24_2 O30_2 1_555 1_555
O31_2 Gd2_2 1_555 1_555
H25_2 O31_2 1_555 1_555
H26_2 O31_2 1_555 1_555
O32_2 Gd2_2 1_555 1_555
H28_2 O32_2 1_555 1_555
O33_2 Gd2_2 1_555 1_555
H29_2 O33_2 1_555 1_555
H30_2 O33_2 1_555 1_555

#END
