
###############################################################################
#
# This file contains modified crystal structure data generated from the
# MOF subset of the Cambridge Structural Database (CSD) v543 
# hosted by the Cambridge Crystallographic Data Centre (CCDC).
#
# This work is licensed under the Creative Commons
# Attribution-NonCommercial-ShareAlike 4.0 International License.
# To view a copy of this license, visit
# http://creativecommons.org/licenses/by-nc-sa/4.0/
# or send a letter to
# Creative Commons, PO Box 1866, Mountain View, CA 94042, USA.
#
# CIF created using the CSD Python API on 29 September 2022
# The structure has been converted into the P1 space group
# The structure has a 3D framework
# The original CSD entry JOYHOW is in the hexagonal crystal system
# The original CSD entry JOYHOW is in a Sohncke space group
# The framework has been calculated to contain at least 10.0% void space
# The void calculation uses a probe of radius 1.32A, grid spacing 0.4
# H atom positions have been added when not included in the experimental data
#
###############################################################################

data_JOYHOW
_chemical_formula_moiety         '(C96 H90 Cd12 N71 O30)n'
_symmetry_cell_setting           triclinic
_symmetry_space_group_name_H-M   'P 1'
_symmetry_Int_Tables_number      1
_space_group_name_Hall           'P 1'
loop_
_symmetry_equiv_pos_site_id
_symmetry_equiv_pos_as_xyz
1 x,y,z
_cell_length_a                   13.3384(19)
_cell_length_b                   13.3384(19)
_cell_length_c                   24.957(5)
_cell_angle_alpha                90
_cell_angle_beta                 90
_cell_angle_gamma                120
_cell_volume                     3845.3
loop_
_atom_site_label
_atom_site_type_symbol
_atom_site_fract_x
_atom_site_fract_y
_atom_site_fract_z
N7 N 0.1698(7) 0.4394(7) 0.0258(3)
N11 N 0.1916(8) 0.2693(7) 0.0246(4)
H2 H 0.2365 0.2456 0.0125
C8 C 0.2137(9) 0.3768(8) 0.0067(4)
C9 C 0.1094(10) 0.1984(9) 0.0580(4)
C10 C 0.1086(8) 0.0878(8) 0.0713(4)
C11 C 0.0161(9) 0.0024(9) 0.1000(5)
C13 C 0.1942(12) 0.0661(12) 0.0555(7)
H9 H 0.2564 0.1201 0.0352
O2 O 0.0352(7) 0.2171(6) 0.0777(4)
Cd3 Cd 0.39856(7) 0.11549(5) 0.28657(3)
Cd5 Cd 0.00945(5) 0.38612(5) 0.07650(3)
Cd6 Cd 0.62333(7) 0.00945(5) 0.24317(3)
N8 N 0.2213(7) 0.5383(7) 0.9970(4)
N9 N 0.2928(7) 0.5355(7) 0.9625(4)
N10 N 0.2896(7) 0.4319(7) 0.9674(3)
Cd7 Cd 0.38612(5) 0.37667(7) 0.90983(3)
Cd1 Cd 0.11549(5) 0.71693(5) 0.11990(3)
N1 N 0.2764(6) 0.8412(7) 0.1656(3)
N2 N 0.2657(7) 0.9096(7) 0.2023(3)
N3 N 0.3654(7) 0.9740(7) 0.2245(3)
N4 N 0.4461(6) 0.9513(7) 0.2043(3)
N5 N 0.4320(7) 0.8202(8) 0.1319(4)
H1 H 0.3886 0.7764 0.1065
N6 N 0.6592(7) 0.6863(8) 0.0199(4)
N12 N 0.1006(7) 0.8805(7) 0.0980(4)
C1 C 0.3896(8) 0.8702(8) 0.1666(4)
C2 C 0.5379(8) 0.8385(9) 0.1369(4)
C3 C 0.5770(9) 0.7818(9) 0.0956(4)
C4 C 0.5168(11) 0.7345(13) 0.0487(5)
H3 H 0.4473 0.7327 0.0421
C5 C 0.5612(10) 0.6900(13) 0.0120(5)
C6 C 0.7129(11) 0.7292(13) 0.0652(5)
H5 H 0.7800 0.7260 0.0716
C7 C 0.6785(11) 0.7789(13) 0.1045(5)
H6 H 0.7216 0.8093 0.1356
C12 C 0.0168(9) 0.9017(9) 0.1113(5)
C14 C 0.1867(13) 0.9614(12) 0.0703(7)
H10 H 0.2462 0.9485 0.0599
C15 C 0.1475(9) 0.5021(9) 0.1669(5)
C16 C 0.2206(16) 0.5707(12) 0.2148(6)
H11 H 0.2420 0.5233 0.2353
H12 H 0.2892 0.6383 0.2024
H13 H 0.1767 0.5937 0.2370
O1 O 0.6132(7) 0.8948(8) 0.1730(4)
O3 O 0.2528(7) 0.7475(7) 0.0528(3)
H14 H 0.244(11) 0.688(6) 0.037(4)
O4 O 0.1113(6) 0.5452(6) 0.1358(3)
O5 O 0.1242(7) 0.3964(6) 0.1613(4)
H15 H 0.330535 0.786014 0.0697866
H4 H 0.5213 0.6609 0.9800
Cd4 Cd 0.71693(5) 0.60144(7) 0.95323(3)
H8 H 0.9536 0.8442 0.1298
N13 N 0.9740(7) 0.6086(10) 0.0578(3)
N14 N 0.9513(7) 0.5052(9) 0.0376(3)
N15 N 0.9729(11) 0.6592(7) 0.1866(4)
N17 N 0.8577(10) 0.2896(7) 0.1341(3)
O6 O 0.8948(8) 0.2816(11) 0.0063(4)
H5_2 H 0.0540 0.7800 0.2383
N1_2 N 0.4352(9) 0.2764(6) 0.3323(3)
N2_2 N 0.3561(10) 0.2657(7) 0.3690(3)
N3_2 N 0.3914(10) 0.3654(7) 0.3912(3)
N4_2 N 0.4948(9) 0.4461(6) 0.3710(3)
N5_2 N 0.6118(11) 0.4320(7) 0.2986(4)
H1_2 H 0.6122 0.3886 0.2732
N12_2 N 0.2201(10) 0.1006(7) 0.2647(4)
C1_2 C 0.5194(11) 0.3896(8) 0.3333(4)
C2_2 C 0.6994(12) 0.5379(8) 0.3036(4)
C3_2 C 0.7952(13) 0.5770(9) 0.2623(4)
C4_2 C 0.7823(17) 0.5168(11) 0.2154(5)
H3_2 H 0.7146 0.4473 0.2088
C5_2 C 0.8712(16) 0.5612(10) 0.1787(5)
H4_2 H 0.8604 0.5213 0.1467
C6_2 C 0.9837(17) 0.7129(11) 0.2319(5)
C7_2 C 0.8996(17) 0.6785(11) 0.2712(5)
H6_2 H 0.9123 0.7216 0.3023
C10_2 C 0.0208(11) 0.1086(8) 0.2380(4)
C11_2 C 0.0137(13) 0.0161(9) 0.2667(5)
C12_2 C 0.1151(13) 0.0168(9) 0.2780(5)
C13_2 C 0.1281(17) 0.1942(12) 0.2222(7)
H9_2 H 0.1363 0.2564 0.2019
C14_2 C 0.2253(18) 0.1867(13) 0.2370(7)
H10_2 H 0.2977 0.2462 0.2266
C15_2 C 0.6454(13) 0.1475(9) 0.3336(5)
C16_2 C 0.6499(20) 0.2206(16) 0.3815(6)
H11_2 H 0.7187 0.2420 0.4020
H12_2 H 0.6509 0.2892 0.3691
H13_2 H 0.5830 0.1767 0.4037
O1_2 O 0.7184(11) 0.6132(7) 0.3397(4)
O3_2 O 0.5053(10) 0.2528(7) 0.2195(3)
H14_2 H 0.556(13) 0.244(11) 0.204(4)
O4_2 O 0.5661(8) 0.1113(6) 0.3025(3)
O5_2 O 0.7278(9) 0.1242(7) 0.3280(4)
Cd3_2 Cd 0.28307(9) 0.39856(7) 0.45323(3)
Cd6_2 Cd 0.61388(9) 0.62333(7) 0.40983(3)
N16 N 0.7304(10) 0.1698(7) 0.1925(3)
O7 O 0.8181(9) 0.0352(7) 0.2444(4)
H15_2 H 0.544521 0.330535 0.236453
H8_2 H 0.1094 0.9536 0.2965
N15_2 N 0.3137(13) 0.9729(11) 0.3532(4)
N17_2 N 0.5681(12) 0.8577(10) 0.3007(3)
N8_2 N 0.6830(10) 0.2213(7) 0.1637(4)
N9_2 N 0.7573(10) 0.2928(7) 0.1292(4)
N11_2 N 0.9223(11) 0.1916(8) 0.1913(4)
H2_2 H 0.9909 0.2365 0.1792
C8_2 C 0.8369(12) 0.2137(9) 0.1734(4)
C9_2 C 0.9110(13) 0.1094(10) 0.2247(4)
H5_3 H 0.2740 0.0540 0.4049
N1_3 N 0.1588(7) 0.4352(9) 0.4989(3)
N2_3 N 0.0904(7) 0.3561(10) 0.5356(3)
N3_3 N 0.0260(7) 0.3914(10) 0.5578(3)
N4_3 N 0.0487(7) 0.4948(9) 0.5376(3)
N5_3 N 0.1798(8) 0.6118(11) 0.4652(4)
H1_3 H 0.2236 0.6122 0.4398
N12_3 N 0.1195(7) 0.2201(10) 0.4313(4)
C1_3 C 0.1298(8) 0.5194(11) 0.4999(4)
C2_3 C 0.1615(9) 0.6994(12) 0.4702(4)
C3_3 C 0.2182(9) 0.7952(13) 0.4289(4)
C4_3 C 0.2655(13) 0.7823(17) 0.3820(5)
H3_3 H 0.2673 0.7146 0.3754
C5_3 C 0.3100(13) 0.8712(16) 0.3453(5)
H4_3 H 0.3391 0.8604 0.3133
C6_3 C 0.2708(13) 0.9837(17) 0.3985(5)
C7_3 C 0.2211(13) 0.8996(17) 0.4378(5)
H6_3 H 0.1907 0.9123 0.4689
C12_3 C 0.0983(9) 0.1151(13) 0.4446(5)
H8_3 H 0.1558 0.1094 0.4631
C14_3 C 0.0386(12) 0.2253(18) 0.4036(7)
H10_3 H 0.0515 0.2977 0.3932
C15_3 C 0.4979(9) 0.6454(13) 0.5002(5)
C16_3 C 0.4293(12) 0.6499(20) 0.5481(6)
H11_3 H 0.4767 0.7187 0.5686
H12_3 H 0.3617 0.6509 0.5357
H13_3 H 0.4063 0.5830 0.5703
O1_3 O 0.1052(8) 0.7184(11) 0.5063(4)
O3_3 O 0.2525(7) 0.5053(10) 0.3861(3)
H14_3 H 0.312(6) 0.556(13) 0.370(4)
O4_3 O 0.4548(6) 0.5661(8) 0.4691(3)
O5_3 O 0.6036(6) 0.7278(9) 0.4946(4)
N15_3 N 0.3408(7) 0.3137(13) 0.5199(4)
N16_2 N 0.5606(7) 0.7304(10) 0.3591(3)
N17_3 N 0.7104(7) 0.5681(12) 0.4674(3)
O7_2 O 0.7829(6) 0.8181(9) 0.4110(4)
H15_3 H 0.213986 0.544521 0.40312
C10_3 C 0.9122(8) 0.0208(11) 0.4046(4)
C11_3 C 0.9976(9) 0.0137(13) 0.4333(5)
C13_3 C 0.9339(12) 0.1281(17) 0.3888(7)
H9_3 H 0.8799 0.1363 0.3685
Cd3_3 Cd 0.88451(5) 0.28307(9) 0.61990(3)
Cd6_3 Cd 0.99055(5) 0.61388(9) 0.57650(3)
N8_3 N 0.4617(7) 0.6830(10) 0.3303(4)
N9_3 N 0.4645(7) 0.7573(10) 0.2958(4)
N11_3 N 0.7307(7) 0.9223(11) 0.3579(4)
H2_3 H 0.7544 0.9909 0.3458
C8_3 C 0.6232(8) 0.8369(12) 0.3400(4)
C9_3 C 0.8016(9) 0.9110(13) 0.3913(4)
H7 H 0.9872 0.9426 0.4445
H8_4 H 0.0464 0.1558 0.6298
N15_4 N 0.0271(11) 0.3408(7) 0.6866(4)
N17_4 N 0.1423(10) 0.7104(7) 0.6341(3)
N1_4 N 0.7236(6) 0.1588(7) 0.6656(3)
N2_4 N 0.7343(7) 0.0904(7) 0.7023(3)
N3_4 N 0.6346(7) 0.0260(7) 0.7245(3)
N4_4 N 0.5539(6) 0.0487(7) 0.7043(3)
N5_4 N 0.5680(7) 0.1798(8) 0.6319(4)
H1_4 H 0.6114 0.2236 0.6065
N12_4 N 0.8994(7) 0.1195(7) 0.5980(4)
C1_4 C 0.6104(8) 0.1298(8) 0.6666(4)
C2_4 C 0.4621(8) 0.1615(9) 0.6369(4)
C3_4 C 0.4230(9) 0.2182(9) 0.5956(4)
C4_4 C 0.4832(11) 0.2655(13) 0.5487(5)
H3_4 H 0.5527 0.2673 0.5421
C5_4 C 0.4388(10) 0.3100(13) 0.5120(5)
H4_4 H 0.4787 0.3391 0.4800
C6_4 C 0.2871(11) 0.2708(13) 0.5652(5)
H5_4 H 0.2200 0.2740 0.5716
C7_4 C 0.3215(11) 0.2211(13) 0.6045(5)
H6_4 H 0.2784 0.1907 0.6356
C12_4 C 0.9832(9) 0.0983(9) 0.6113(5)
C14_4 C 0.8133(13) 0.0386(12) 0.5703(7)
H10_4 H 0.7538 0.0515 0.5599
C15_4 C 0.8525(9) 0.4979(9) 0.6669(5)
C16_4 C 0.7794(16) 0.4293(12) 0.7148(6)
H11_4 H 0.7580 0.4767 0.7353
H12_4 H 0.7108 0.3617 0.7024
H13_4 H 0.8233 0.4063 0.7370
O1_4 O 0.3868(7) 0.1052(8) 0.6730(4)
O3_4 O 0.7472(7) 0.2525(7) 0.5528(3)
H14_4 H 0.756(11) 0.312(6) 0.537(4)
O4_4 O 0.8887(6) 0.4548(6) 0.6358(3)
O5_4 O 0.8758(7) 0.6036(6) 0.6613(4)
N16_3 N 0.8302(7) 0.5606(7) 0.5258(3)
O7_3 O 0.9648(7) 0.7829(6) 0.5777(4)
H15_4 H 0.669465 0.213986 0.569787
N8_4 N 0.7787(7) 0.4617(7) 0.4970(4)
N9_4 N 0.7072(7) 0.4645(7) 0.4625(4)
N11_4 N 0.8084(8) 0.7307(7) 0.5246(4)
H2_4 H 0.7635 0.7544 0.5125
C8_4 C 0.7863(9) 0.6232(8) 0.5067(4)
C9_4 C 0.8906(10) 0.8016(9) 0.5580(4)
C10_4 C 0.8914(8) 0.9122(8) 0.5713(4)
C11_4 C 0.9839(9) 0.9976(9) 0.6000(5)
C13_4 C 0.8058(12) 0.9339(12) 0.5555(7)
H9_4 H 0.7436 0.8799 0.5352
Cd3_4 Cd 0.60144(7) 0.88451(5) 0.78657(3)
Cd6_4 Cd 0.37667(7) 0.99055(5) 0.74317(3)
N7_2 N 0.2696(10) 0.8302(7) 0.6925(3)
N8_5 N 0.3170(10) 0.7787(7) 0.6637(4)
N9_5 N 0.2427(10) 0.7072(7) 0.6292(4)
N11_5 N 0.0777(11) 0.8084(8) 0.6913(4)
H2_5 H 0.0091 0.7635 0.6792
C8_5 C 0.1631(12) 0.7863(9) 0.6734(4)
C9_5 C 0.0890(13) 0.8906(10) 0.7247(4)
O2_2 O 0.1819(9) 0.9648(7) 0.7444(4)
H8_5 H 0.8906 0.0464 0.7965
N15_5 N 0.6863(13) 0.0271(11) 0.8532(4)
N17_5 N 0.4319(12) 0.1423(10) 0.8007(3)
N1_5 N 0.5648(9) 0.7236(6) 0.8323(3)
N2_5 N 0.6439(10) 0.7343(7) 0.8690(3)
N3_5 N 0.6086(10) 0.6346(7) 0.8912(3)
N4_5 N 0.5052(9) 0.5539(6) 0.8710(3)
N5_5 N 0.3882(11) 0.5680(7) 0.7986(4)
H1_5 H 0.3878 0.6114 0.7732
N12_5 N 0.7799(10) 0.8994(7) 0.7647(4)
C1_5 C 0.4806(11) 0.6104(8) 0.8333(4)
C2_5 C 0.3006(12) 0.4621(8) 0.8036(4)
C3_5 C 0.2048(13) 0.4230(9) 0.7623(4)
C4_5 C 0.2177(17) 0.4832(11) 0.7154(5)
H3_5 H 0.2854 0.5527 0.7088
C5_5 C 0.1288(16) 0.4388(10) 0.6787(5)
H4_5 H 0.1396 0.4787 0.6467
C6_5 C 0.0163(17) 0.2871(11) 0.7319(5)
C7_5 C 0.1004(17) 0.3215(11) 0.7712(5)
H6_5 H 0.0877 0.2784 0.8023
C10_5 C 0.9792(11) 0.8914(8) 0.7380(4)
C11_5 C 0.9863(13) 0.9839(9) 0.7667(5)
C12_5 C 0.8849(13) 0.9832(9) 0.7780(5)
C13_5 C 0.8719(17) 0.8058(12) 0.7222(7)
H9_5 H 0.8637 0.7436 0.7019
C14_5 C 0.7747(18) 0.8133(13) 0.7370(7)
H10_5 H 0.7023 0.7538 0.7266
C15_5 C 0.3546(13) 0.8525(9) 0.8336(5)
C16_5 C 0.3501(20) 0.7794(16) 0.8815(6)
H11_5 H 0.2813 0.7580 0.9020
H12_5 H 0.3491 0.7108 0.8691
H13_5 H 0.4170 0.8233 0.9037
O1_5 O 0.2816(11) 0.3868(7) 0.8397(4)
O3_5 O 0.4947(10) 0.7472(7) 0.7195(3)
H14_5 H 0.444(13) 0.756(11) 0.704(4)
O4_5 O 0.4339(8) 0.8887(6) 0.8025(3)
O5_5 O 0.2722(9) 0.8758(7) 0.8280(4)
H15_5 H 0.455479 0.669465 0.736453
H5_5 H 0.9460 0.2200 0.7383
N7_3 N 0.4394(7) 0.2696(10) 0.8591(3)
N8_6 N 0.5383(7) 0.3170(10) 0.8303(4)
N9_6 N 0.5355(7) 0.2427(10) 0.7958(4)
N11_6 N 0.2693(7) 0.0777(11) 0.8579(4)
H2_6 H 0.2456 0.0091 0.8458
C8_6 C 0.3768(8) 0.1631(12) 0.8400(4)
C9_6 C 0.1984(9) 0.0890(13) 0.8913(4)
H7_2 H 0.0128 0.0574 0.9445
O2_3 O 0.2171(6) 0.1819(9) 0.9110(4)
C10_6 C 0.0878(8) 0.9792(11) 0.9046(4)
C11_6 C 0.0024(9) 0.9863(13) 0.9333(5)
C13_6 C 0.0661(12) 0.8719(17) 0.8888(7)
H9_6 H 0.1201 0.8637 0.8685
N2_6 N 0.9096(7) 0.6439(10) 0.0356(3)
C15_6 C 0.5021(9) 0.3546(13) 0.0002(5)
C16_6 C 0.5707(12) 0.3501(20) 0.0481(6)
H11_6 H 0.5233 0.2813 0.0686
H12_6 H 0.6383 0.3491 0.0357
H13_6 H 0.5937 0.4170 0.0703
N1_6 N 0.8412(7) 0.5648(9) 0.9989(3)
N5_6 N 0.8202(8) 0.3882(11) 0.9652(4)
H1_6 H 0.7764 0.3878 0.9398
N12_6 N 0.8805(7) 0.7799(10) 0.9313(4)
C1_6 C 0.8702(8) 0.4806(11) 0.9999(4)
C2_6 C 0.8385(9) 0.3006(12) 0.9702(4)
C3_6 C 0.7818(9) 0.2048(13) 0.9289(4)
C4_6 C 0.7345(13) 0.2177(17) 0.8820(5)
H3_6 H 0.7327 0.2854 0.8754
C5_6 C 0.6900(13) 0.1288(16) 0.8453(5)
H4_6 H 0.6609 0.1396 0.8133
C6_6 C 0.7292(13) 0.0163(17) 0.8985(5)
C7_6 C 0.7789(13) 0.1004(17) 0.9378(5)
H6_6 H 0.8093 0.0877 0.9689
C12_6 C 0.9017(9) 0.8849(13) 0.9446(5)
H8_6 H 0.8442 0.8906 0.9631
C14_6 C 0.9614(12) 0.7747(18) 0.9036(7)
H10_6 H 0.9485 0.7023 0.8932
O3_6 O 0.7475(7) 0.4947(10) 0.8861(3)
H14_6 H 0.688(6) 0.444(13) 0.870(4)
O4_6 O 0.5452(6) 0.4339(8) 0.9691(3)
O5_6 O 0.3964(6) 0.2722(9) 0.9946(4)
H15_6 H 0.786014 0.455479 0.90312
H5_6 H 0.7260 0.9460 0.9049
H7_3 H 0.9554 0.0128 0.1112
H7_4 H 0.9426 0.9554 0.2779
H7_5 H 0.0446 0.9872 0.6112
H7_6 H 0.0574 0.0446 0.7779
loop_
_geom_bond_atom_site_label_1
_geom_bond_atom_site_label_2
_geom_bond_site_symmetry_1
_geom_bond_site_symmetry_2
N11 H2 1_555 1_555
C8 N7 1_555 1_555
C9 N11 1_555 1_555
C10 C9 1_555 1_555
C11 C10 1_555 1_555
C13 C10 1_555 1_555
H9 C13 1_555 1_555
O2 C9 1_555 1_555
Cd5 N7 1_555 1_555
N11 C8 1_555 1_555
O2 Cd5 1_555 1_555
N8 N9 1_555 1_555
N9 N10 1_555 1_555
Cd7 N10 1_555 1_555
Cd1 N1 1_555 1_555
Cd5 O4 1_555 1_555
N1 N2 1_555 1_555
N2 N3 1_555 1_555
N3 N4 1_555 1_555
N4 C1 1_555 1_555
N5 H1 1_555 1_555
N6 C5 1_555 1_555
N12 Cd1 1_555 1_555
C1 N1 1_555 1_555
C2 N5 1_555 1_555
C3 C2 1_555 1_555
C4 C3 1_555 1_555
H3 C4 1_555 1_555
C5 C4 1_555 1_555
C6 N6 1_555 1_555
H5 C6 1_555 1_555
C7 C3 1_555 1_555
H6 C7 1_555 1_555
C12 N12 1_555 1_555
C14 N12 1_555 1_555
H10 C14 1_555 1_555
C15 C16 1_555 1_555
C16 H11 1_555 1_555
H12 C16 1_555 1_555
H13 C16 1_555 1_555
O1 C2 1_555 1_555
O3 Cd1 1_555 1_555
H14 O3 1_555 1_555
O4 Cd1 1_555 1_555
O5 Cd5 1_555 1_555
N5 C1 1_555 1_555
C6 C7 1_555 1_555
C15 O4 1_555 1_555
C15 O5 1_555 1_555
O3 H15 1_555 1_555
N13 N14 1_555 1_555
Cd3 N1_2 1_555 1_555
Cd6 O4_2 1_555 1_555
N1_2 N2_2 1_555 1_555
N2_2 N3_2 1_555 1_555
N3_2 N4_2 1_555 1_555
N4_2 C1_2 1_555 1_555
N5_2 H1_2 1_555 1_555
N15 C5_2 1_555 1_555
N12_2 Cd3 1_555 1_555
C1_2 N1_2 1_555 1_555
C2_2 N5_2 1_555 1_555
C3_2 C2_2 1_555 1_555
C4_2 C3_2 1_555 1_555
H3_2 C4_2 1_555 1_555
C5_2 C4_2 1_555 1_555
H4_2 C5_2 1_555 1_555
C6_2 N15 1_555 1_555
C7_2 C3_2 1_555 1_555
H6_2 C7_2 1_555 1_555
C11_2 C10_2 1_555 1_555
C12_2 N12_2 1_555 1_555
C13_2 C10_2 1_555 1_555
H9_2 C13_2 1_555 1_555
C14_2 N12_2 1_555 1_555
H10_2 C14_2 1_555 1_555
C15_2 C16_2 1_555 1_555
C16_2 H11_2 1_555 1_555
H12_2 C16_2 1_555 1_555
H13_2 C16_2 1_555 1_555
O1_2 C2_2 1_555 1_555
O3_2 Cd3 1_555 1_555
H14_2 O3_2 1_555 1_555
O4_2 Cd3 1_555 1_555
O5_2 Cd6 1_555 1_555
Cd3_2 N3_2 1_555 1_555
Cd6_2 N4_2 1_555 1_555
N16 Cd6 1_555 1_555
O7 Cd6 1_555 1_555
N5_2 C1_2 1_555 1_555
C6_2 C7_2 1_555 1_555
C11_2 C12_2 1_555 1_555
C13_2 C14_2 1_555 1_555
C15_2 O4_2 1_555 1_555
C15_2 O5_2 1_555 1_555
O1_2 Cd6_2 1_555 1_555
O3_2 H15_2 1_555 1_555
N16 N8_2 1_555 1_555
N8_2 N9_2 1_555 1_555
N9_2 N17 1_555 1_555
N17 C8_2 1_555 1_555
N11_2 H2_2 1_555 1_555
C8_2 N16 1_555 1_555
C9_2 N11_2 1_555 1_555
O7 C9_2 1_555 1_555
N11_2 C8_2 1_555 1_555
Cd3_2 N1_3 1_555 1_555
Cd6_2 O4_3 1_555 1_555
N1_3 N2_3 1_555 1_555
N2_3 N3_3 1_555 1_555
N3_3 N4_3 1_555 1_555
N4_3 C1_3 1_555 1_555
N5_3 H1_3 1_555 1_555
N15_2 C5_3 1_555 1_555
N12_3 Cd3_2 1_555 1_555
C1_3 N1_3 1_555 1_555
C2_3 N5_3 1_555 1_555
C3_3 C2_3 1_555 1_555
C4_3 C3_3 1_555 1_555
H3_3 C4_3 1_555 1_555
C5_3 C4_3 1_555 1_555
H4_3 C5_3 1_555 1_555
C6_3 N15_2 1_555 1_555
C7_3 C3_3 1_555 1_555
H6_3 C7_3 1_555 1_555
C12_3 N12_3 1_555 1_555
H8_3 C12_3 1_555 1_555
C14_3 N12_3 1_555 1_555
H10_3 C14_3 1_555 1_555
C15_3 C16_3 1_555 1_555
C16_3 H11_3 1_555 1_555
H12_3 C16_3 1_555 1_555
H13_3 C16_3 1_555 1_555
O1_3 C2_3 1_555 1_555
O3_3 Cd3_2 1_555 1_555
H14_3 O3_3 1_555 1_555
O4_3 Cd3_2 1_555 1_555
O5_3 Cd6_2 1_555 1_555
N15_3 Cd3_2 1_555 1_555
N16_2 Cd6_2 1_555 1_555
N17_3 Cd6_2 1_555 1_555
O7_2 Cd6_2 1_555 1_555
N5_3 C1_3 1_555 1_555
C6_3 C7_3 1_555 1_555
C15_3 O4_3 1_555 1_555
C15_3 O5_3 1_555 1_555
O3_3 H15_3 1_555 1_555
C11_3 C10_3 1_555 1_555
C13_3 C10_3 1_555 1_555
H9_3 C13_3 1_555 1_555
N16_2 N8_3 1_555 1_555
N8_3 N9_3 1_555 1_555
N9_3 N17_2 1_555 1_555
N17_2 C8_3 1_555 1_555
N11_3 H2_3 1_555 1_555
C8_3 N16_2 1_555 1_555
C9_3 N11_3 1_555 1_555
O7_2 C9_3 1_555 1_555
N11_3 C8_3 1_555 1_555
Cd3_3 N1_4 1_555 1_555
Cd6_3 O4_4 1_555 1_555
N1_4 N2_4 1_555 1_555
N2_4 N3_4 1_555 1_555
N3_4 N4_4 1_555 1_555
N4_4 C1_4 1_555 1_555
N5_4 H1_4 1_555 1_555
N15_3 C5_4 1_555 1_555
N12_4 Cd3_3 1_555 1_555
C1_4 N1_4 1_555 1_555
C2_4 N5_4 1_555 1_555
C3_4 C2_4 1_555 1_555
C4_4 C3_4 1_555 1_555
H3_4 C4_4 1_555 1_555
C5_4 C4_4 1_555 1_555
H4_4 C5_4 1_555 1_555
C6_4 N15_3 1_555 1_555
H5_4 C6_4 1_555 1_555
C7_4 C3_4 1_555 1_555
H6_4 C7_4 1_555 1_555
C12_4 N12_4 1_555 1_555
C14_4 N12_4 1_555 1_555
H10_4 C14_4 1_555 1_555
C15_4 C16_4 1_555 1_555
C16_4 H11_4 1_555 1_555
H12_4 C16_4 1_555 1_555
H13_4 C16_4 1_555 1_555
O1_4 C2_4 1_555 1_555
O3_4 Cd3_3 1_555 1_555
H14_4 O3_4 1_555 1_555
O4_4 Cd3_3 1_555 1_555
O5_4 Cd6_3 1_555 1_555
N16_3 Cd6_3 1_555 1_555
O7_3 Cd6_3 1_555 1_555
N5_4 C1_4 1_555 1_555
C6_4 C7_4 1_555 1_555
C15_4 O4_4 1_555 1_555
C15_4 O5_4 1_555 1_555
O3_4 H15_4 1_555 1_555
N16_3 N8_4 1_555 1_555
N8_4 N9_4 1_555 1_555
N9_4 N17_3 1_555 1_555
N17_3 C8_4 1_555 1_555
N11_4 H2_4 1_555 1_555
C8_4 N16_3 1_555 1_555
C9_4 N11_4 1_555 1_555
C10_4 C9_4 1_555 1_555
C11_4 C10_4 1_555 1_555
C13_4 C10_4 1_555 1_555
H9_4 C13_4 1_555 1_555
O7_3 C9_4 1_555 1_555
N11_4 C8_4 1_555 1_555
N7_2 N8_5 1_555 1_555
N8_5 N9_5 1_555 1_555
N9_5 N17_4 1_555 1_555
N17_4 C8_5 1_555 1_555
N11_5 H2_5 1_555 1_555
C8_5 N7_2 1_555 1_555
C9_5 N11_5 1_555 1_555
O2_2 C9_5 1_555 1_555
Cd6_4 N7_2 1_555 1_555
N11_5 C8_5 1_555 1_555
O2_2 Cd6_4 1_555 1_555
Cd3_4 N1_5 1_555 1_555
Cd6_4 O4_5 1_555 1_555
N1_5 N2_5 1_555 1_555
N2_5 N3_5 1_555 1_555
N3_5 N4_5 1_555 1_555
N4_5 C1_5 1_555 1_555
N5_5 H1_5 1_555 1_555
N15_4 C5_5 1_555 1_555
N12_5 Cd3_4 1_555 1_555
C1_5 N1_5 1_555 1_555
C2_5 N5_5 1_555 1_555
C3_5 C2_5 1_555 1_555
C4_5 C3_5 1_555 1_555
H3_5 C4_5 1_555 1_555
C5_5 C4_5 1_555 1_555
H4_5 C5_5 1_555 1_555
C6_5 N15_4 1_555 1_555
C7_5 C3_5 1_555 1_555
H6_5 C7_5 1_555 1_555
C11_5 C10_5 1_555 1_555
C12_5 N12_5 1_555 1_555
C13_5 C10_5 1_555 1_555
H9_5 C13_5 1_555 1_555
C14_5 N12_5 1_555 1_555
H10_5 C14_5 1_555 1_555
C15_5 C16_5 1_555 1_555
C16_5 H11_5 1_555 1_555
H12_5 C16_5 1_555 1_555
H13_5 C16_5 1_555 1_555
O1_5 C2_5 1_555 1_555
O3_5 Cd3_4 1_555 1_555
H14_5 O3_5 1_555 1_555
O4_5 Cd3_4 1_555 1_555
O5_5 Cd6_4 1_555 1_555
Cd4 N3_5 1_555 1_555
Cd7 N4_5 1_555 1_555
N5_5 C1_5 1_555 1_555
C6_5 C7_5 1_555 1_555
C11_5 C12_5 1_555 1_555
C13_5 C14_5 1_555 1_555
C15_5 O4_5 1_555 1_555
C15_5 O5_5 1_555 1_555
O1_5 Cd7 1_555 1_555
O3_5 H15_5 1_555 1_555
N7_3 N8_6 1_555 1_555
N8_6 N9_6 1_555 1_555
N9_6 N17_5 1_555 1_555
N17_5 C8_6 1_555 1_555
N11_6 H2_6 1_555 1_555
C8_6 N7_3 1_555 1_555
C9_6 N11_6 1_555 1_555
O2_3 C9_6 1_555 1_555
Cd7 N7_3 1_555 1_555
N11_6 C8_6 1_555 1_555
O2_3 Cd7 1_555 1_555
C11_6 C10_6 1_555 1_555
C13_6 C10_6 1_555 1_555
H9_6 C13_6 1_555 1_555
N2_6 N13 1_555 1_555
C15_6 C16_6 1_555 1_555
C16_6 H11_6 1_555 1_555
H12_6 C16_6 1_555 1_555
H13_6 C16_6 1_555 1_555
Cd4 N1_6 1_555 1_555
Cd7 O4_6 1_555 1_555
N5_6 H1_6 1_555 1_555
N15_5 C5_6 1_555 1_555
N12_6 Cd4 1_555 1_555
C1_6 N1_6 1_555 1_555
C2_6 N5_6 1_555 1_555
C3_6 C2_6 1_555 1_555
C4_6 C3_6 1_555 1_555
H3_6 C4_6 1_555 1_555
C5_6 C4_6 1_555 1_555
H4_6 C5_6 1_555 1_555
C6_6 N15_5 1_555 1_555
C7_6 C3_6 1_555 1_555
H6_6 C7_6 1_555 1_555
C12_6 N12_6 1_555 1_555
H8_6 C12_6 1_555 1_555
C14_6 N12_6 1_555 1_555
H10_6 C14_6 1_555 1_555
O3_6 Cd4 1_555 1_555
H14_6 O3_6 1_555 1_555
O4_6 Cd4 1_555 1_555
O5_6 Cd7 1_555 1_555
N5_6 C1_6 1_555 1_555
C6_6 C7_6 1_555 1_555
O3_6 H15_6 1_555 1_555

#END
