
###############################################################################
#
# This file contains modified crystal structure data generated from the
# MOF subset of the Cambridge Structural Database (CSD) v543 
# hosted by the Cambridge Crystallographic Data Centre (CCDC).
#
# This work is licensed under the Creative Commons
# Attribution-NonCommercial-ShareAlike 4.0 International License.
# To view a copy of this license, visit
# http://creativecommons.org/licenses/by-nc-sa/4.0/
# or send a letter to
# Creative Commons, PO Box 1866, Mountain View, CA 94042, USA.
#
# CIF created using the CSD Python API on 29 September 2022
# The structure has been converted into the P1 space group
# The structure has a 3D framework
# The original CSD entry JOYKUF is in the trigonal crystal system
# The original CSD entry JOYKUF is in a Sohncke space group
# The framework has been calculated to contain at least 10.0% void space
# The void calculation uses a probe of radius 1.32A, grid spacing 0.4
#
###############################################################################

data_JOYKUF
_chemical_formula_moiety         '(C72 H90 Mn6 N12 O30)n'
_symmetry_cell_setting           triclinic
_symmetry_space_group_name_H-M   'P 1'
_symmetry_Int_Tables_number      1
_space_group_name_Hall           'P 1'
loop_
_symmetry_equiv_pos_site_id
_symmetry_equiv_pos_as_xyz
1 x,y,z
_cell_length_a                   21.68188(39)
_cell_length_b                   21.68188(39)
_cell_length_c                   7.07940(12)
_cell_angle_alpha                90
_cell_angle_beta                 90
_cell_angle_gamma                120
_cell_volume                     2882.18
loop_
_atom_site_label
_atom_site_type_symbol
_atom_site_fract_x
_atom_site_fract_y
_atom_site_fract_z
_atom_site_U_iso_or_equiv
_atom_site_thermal_displace_type
Mn1 Mn 0.60964(28) 0.27167(25) 0.14546(59) 0.0147 Uiso
O1 O 0.5091(12) 0.1956(10) 0.0430(32) 0.0053 Uiso
C1 C 0.4519(22) 0.1910(26) 0.0591(54) 0.0431 Uiso
O2 O 0.4250(17) 0.2009(16) 0.2115(54) 0.0874 Uiso
H2 H 0.62577 0.11883 0.11707 0.0105 Uiso
O11 O 0.5792(13) 0.34051(94) 0.2924(26) 0.0105 Uiso
O15 O 0.7177(10) 0.3615(14) 0.2616(22) 0.0105 Uiso
O18 O 0.5935(11) 0.20226(94) 0.3786(26) 0.0105 Uiso
N1 N 0.4430(18) 0.2274(18) 0.9052(49) 0.0469 Uiso
C2 C 0.3730(24) 0.2269(22) 0.8629(51) 0.0621 Uiso
C3 C 0.4568(21) 0.2054(28) 0.7289(64) 0.0671 Uiso
C4 C 0.4183(27) 0.1293(28) 0.6614(75) 0.0899 Uiso
N2 N 0.4445(35) 0.1254(33) 0.467(12) 0.3166 Uiso
C5 C 0.4003(17) 0.0532(16) 0.3702(45) 0.0010 Uiso
O3 O 0.65949(94) 0.23870(90) 0.9591(26) 0.0105 Uiso
O4 O 0.64384(95) 0.2823(10) 0.5949(22) 0.0105 Uiso
C6 C 0.6319(15) 0.1798(17) 0.8707(44) 0.0105 Uiso
C7 C 0.6112(16) 0.1649(18) 0.6812(45) 0.0105 Uiso
C8 C 0.5761(16) 0.0958(16) 0.6167(43) 0.0105 Uiso
C9 C 0.5634(14) 0.0386(15) 0.7140(43) 0.0105 Uiso
C10 C 0.5878(15) 0.0498(14) 0.8971(36) 0.0105 Uiso
C11 C 0.6133(17) 0.1144(14) 0.9872(40) 0.0105 Uiso
C12 C 0.6177(17) 0.2191(15) 0.5421(42) 0.0105 Uiso
H1 H 0.58266 0.00968 0.96495 0.0105 Uiso
H3 H 0.56208 0.08548 0.48814 0.0105 Uiso
H4 H 0.38643 0.25928 0.7582 0.1900 Uiso
H5 H 0.33805 0.17997 0.8224 0.1900 Uiso
H6 H 0.35343 0.24231 0.9617 0.1900 Uiso
H7 H 0.44646 0.23081 0.63267 0.1900 Uiso
H8 H 0.50675 0.21903 0.72235 0.1900 Uiso
H9 H 0.42753 0.10011 0.74794 0.1900 Uiso
H10 H 0.36758 0.11208 0.65673 0.1900 Uiso
H11 H 0.43291 0.14895 0.387 0.1900 Uiso
H12 H 0.49114 0.14453 0.4697 0.1900 Uiso
H13 H 0.36973 0.05651 0.27755 0.1900 Uiso
H14 H 0.43152 0.03987 0.30962 0.1900 Uiso
H15 H 0.37187 0.01795 0.46279 0.1900 Uiso
Mn4 Mn 0.66203(38) 0.39036(28) 0.47879(59) 0.0147 Uiso
Mn5 Mn 0.72833(25) 0.33797(38) 0.81213(59) 0.0147 Uiso
O14 O 0.6385(14) 0.35616(95) 0.9282(22) 0.0105 Uiso
H28 H 0.31322 0.94349 0.05578 0.1900 Uiso
H29 H 0.39165 0.96013 0.02371 0.1900 Uiso
Mn7 Mn 0.33797(38) 0.72833(25) 0.18787(59) 0.0147 Uiso
O6 O 0.4208(13) 0.76130(90) 0.3742(26) 0.0105 Uiso
O7 O 0.3615(14) 0.7177(10) 0.7384(22) 0.0105 Uiso
O8 O 0.3912(15) 0.79774(94) 0.9547(26) 0.0105 Uiso
C13 C 0.4521(23) 0.8202(17) 0.4626(44) 0.0105 Uiso
C14 C 0.4463(24) 0.8351(18) 0.6521(45) 0.0105 Uiso
C15 C 0.4803(23) 0.9042(16) 0.7166(43) 0.0105 Uiso
C16 C 0.5248(21) 0.9614(15) 0.6193(43) 0.0105 Uiso
C17 C 0.5380(21) 0.9502(14) 0.4362(36) 0.0105 Uiso
C18 C 0.4989(22) 0.8856(14) 0.3461(40) 0.0105 Uiso
C19 C 0.3986(23) 0.7809(15) 0.7912(42) 0.0105 Uiso
H16 H 0.57298 0.99032 0.36838 0.0105 Uiso
H17 H 0.47660 0.91452 0.84519 0.0105 Uiso
H18 H 0.50694 0.88117 0.21626 0.0105 Uiso
O9 O 0.3135(16) 0.8044(10) 0.2903(32) 0.0053 Uiso
C20 C 0.2609(34) 0.8090(26) 0.2742(54) 0.0431 Uiso
O10 O 0.2241(23) 0.7991(16) 0.1218(54) 0.0874 Uiso
N3 N 0.2156(25) 0.7726(18) 0.4281(49) 0.0469 Uiso
C21 C 0.1461(33) 0.7731(22) 0.4704(51) 0.0621 Uiso
C22 C 0.2514(35) 0.7946(28) 0.6044(64) 0.0671 Uiso
C23 C 0.2890(39) 0.8707(28) 0.6719(75) 0.0899 Uiso
N4 N 0.3191(48) 0.8746(33) 0.866(12) 0.3166 Uiso
C24 C 0.3471(23) 0.9468(16) 0.9631(45) 0.0010 Uiso
H19 H 0.12715 0.74072 0.5751 0.1900 Uiso
H20 H 0.15808 0.82003 0.5109 0.1900 Uiso
H21 H 0.11112 0.75769 0.3716 0.1900 Uiso
H22 H 0.21565 0.76919 0.70066 0.1900 Uiso
H23 H 0.28772 0.78097 0.61098 0.1900 Uiso
H24 H 0.32742 0.89989 0.58539 0.1900 Uiso
H25 H 0.25550 0.88792 0.67660 0.1900 Uiso
H26 H 0.28396 0.85105 0.946333 0.1900 Uiso
H27 H 0.34661 0.85547 0.8636 0.1900 Uiso
H30 H 0.35392 0.98205 0.87054 0.1900 Uiso
Mn3 Mn 0.39036(28) 0.66203(38) 0.52121(59) 0.0147 Uiso
Mn6 Mn 0.27167(25) 0.60964(28) 0.85454(59) 0.0147 Uiso
O12 O 0.23870(90) 0.65949(94) 0.0409(26) 0.0105 Uiso
O13 O 0.35616(95) 0.6385(14) 0.0718(22) 0.0105 Uiso
O16 O 0.2823(10) 0.64384(95) 0.4051(22) 0.0105 Uiso
C4_2 C 0.5817(27) 0.7110(39) 0.0053(75) 0.0899 Uiso
N2_2 N 0.5555(35) 0.6809(48) 0.200(12) 0.3166 Uiso
C5_2 C 0.5997(17) 0.6529(23) 0.2965(45) 0.0010 Uiso
O5 O 0.4065(11) 0.6088(15) 0.2881(26) 0.0105 Uiso
C8_2 C 0.4239(16) 0.5197(23) 0.0500(43) 0.0105 Uiso
C12_2 C 0.3823(17) 0.6014(23) 0.1246(42) 0.0105 Uiso
H3_2 H 0.43792 0.52340 0.17853 0.0105 Uiso
H7_2 H 0.55354 0.78435 0.03400 0.1900 Uiso
H10_2 H 0.63242 0.74450 0.00994 0.1900 Uiso
H11_2 H 0.56709 0.71604 0.279667 0.1900 Uiso
H12_2 H 0.50886 0.65339 0.1970 0.1900 Uiso
H13_2 H 0.63027 0.68678 0.38912 0.1900 Uiso
H14_2 H 0.56848 0.60835 0.35705 0.1900 Uiso
H15_2 H 0.62813 0.64608 0.20388 0.1900 Uiso
C13_2 C 0.5479(23) 0.3681(29) 0.2040(44) 0.0105 Uiso
C14_2 C 0.5537(24) 0.3888(30) 0.0145(45) 0.0105 Uiso
C16_2 C 0.4752(21) 0.4366(26) 0.0473(43) 0.0105 Uiso
C17_2 C 0.4620(21) 0.4122(25) 0.2304(36) 0.0105 Uiso
C18_2 C 0.5011(22) 0.3867(26) 0.3205(40) 0.0105 Uiso
H16_2 H 0.42702 0.41734 0.29828 0.0105 Uiso
H18_2 H 0.49306 0.37423 0.45040 0.0105 Uiso
O9_2 O 0.6865(16) 0.4909(19) 0.3763(32) 0.0053 Uiso
C20_2 C 0.7391(34) 0.5481(43) 0.3924(54) 0.0431 Uiso
O10_2 O 0.7759(23) 0.5750(28) 0.5448(54) 0.0874 Uiso
N3_2 N 0.7844(25) 0.5570(31) 0.2385(49) 0.0469 Uiso
C21_2 C 0.8539(33) 0.6270(40) 0.1962(51) 0.0621 Uiso
C22_2 C 0.7486(35) 0.5432(45) 0.0622(64) 0.0671 Uiso
H19_2 H 0.87285 0.61357 0.0915 0.1900 Uiso
H20_2 H 0.84192 0.66195 0.1557 0.1900 Uiso
H21_2 H 0.88888 0.64657 0.2950 0.1900 Uiso
H23_2 H 0.71228 0.49325 0.05568 0.1900 Uiso
H24_2 H 0.67258 0.57247 0.08127 0.1900 Uiso
O12_2 O 0.76130(90) 0.4208(13) 0.6258(26) 0.0105 Uiso
O17 O 0.6088(15) 0.4065(18) 0.7119(26) 0.0105 Uiso
O1_2 O 0.4909(12) 0.6865(16) 0.6237(32) 0.0053 Uiso
C1_2 C 0.5481(22) 0.7391(34) 0.6076(54) 0.0431 Uiso
O2_2 O 0.5750(17) 0.7759(23) 0.4552(54) 0.0874 Uiso
N1_2 N 0.5570(18) 0.7844(25) 0.7615(49) 0.0469 Uiso
C2_2 C 0.6270(24) 0.8539(33) 0.8038(51) 0.0621 Uiso
C3_2 C 0.5432(21) 0.7486(35) 0.9378(64) 0.0671 Uiso
O3_2 O 0.34051(94) 0.5792(13) 0.7076(26) 0.0105 Uiso
C6_2 C 0.3681(15) 0.5479(23) 0.7960(44) 0.0105 Uiso
C7_2 C 0.3888(16) 0.5537(24) 0.9855(45) 0.0105 Uiso
C9_2 C 0.4366(14) 0.4752(21) 0.9527(43) 0.0105 Uiso
C10_2 C 0.4122(15) 0.4620(21) 0.7696(36) 0.0105 Uiso
C11_2 C 0.3867(17) 0.5011(22) 0.6795(40) 0.0105 Uiso
H1_2 H 0.41734 0.42702 0.70172 0.0105 Uiso
H2_2 H 0.37423 0.49306 0.54960 0.0105 Uiso
H4_2 H 0.61357 0.87285 0.9085 0.1900 Uiso
H5_2 H 0.66195 0.84192 0.8443 0.1900 Uiso
H6_2 H 0.64657 0.88888 0.7050 0.1900 Uiso
H8_2 H 0.49325 0.71228 0.94432 0.1900 Uiso
H9_2 H 0.57247 0.67258 0.91873 0.1900 Uiso
C15_2 C 0.5197(23) 0.4239(28) 0.9500(43) 0.0105 Uiso
C19_2 C 0.6014(23) 0.3823(27) 0.8754(42) 0.0105 Uiso
H17_2 H 0.52340 0.43792 0.82147 0.0105 Uiso
C23_2 C 0.7110(39) 0.5817(48) 0.9947(75) 0.0899 Uiso
N4_2 N 0.6809(48) 0.5555(58) 0.800(12) 0.3166 Uiso
C24_2 C 0.6529(23) 0.5997(28) 0.7035(45) 0.0010 Uiso
H22_2 H 0.78435 0.55354 0.96600 0.1900 Uiso
H25_2 H 0.74450 0.63242 0.99006 0.1900 Uiso
H26_2 H 0.71604 0.56709 0.720333 0.1900 Uiso
H27_2 H 0.65339 0.50886 0.8030 0.1900 Uiso
H28_2 H 0.68678 0.63027 0.61088 0.1900 Uiso
H29_2 H 0.60835 0.56848 0.64295 0.1900 Uiso
H30_2 H 0.64608 0.62813 0.79612 0.1900 Uiso
O8_2 O 0.20226(94) 0.5935(18) 0.6214(26) 0.0105 Uiso
C13_3 C 0.1798(17) 0.6319(29) 0.1293(44) 0.0105 Uiso
C14_3 C 0.1649(18) 0.6112(30) 0.3188(45) 0.0105 Uiso
C15_3 C 0.0958(16) 0.5761(28) 0.3833(43) 0.0105 Uiso
C16_3 C 0.0386(15) 0.5634(26) 0.2860(43) 0.0105 Uiso
C17_3 C 0.0498(14) 0.5878(25) 0.1029(36) 0.0105 Uiso
C18_3 C 0.1144(14) 0.6133(26) 0.0128(40) 0.0105 Uiso
C19_3 C 0.2191(15) 0.6177(27) 0.4579(42) 0.0105 Uiso
H16_3 H 0.00968 0.58266 0.03505 0.0105 Uiso
H17_3 H 0.08548 0.56208 0.51186 0.0105 Uiso
N3_3 N 0.2274(18) 0.4430(31) 0.0948(49) 0.0469 Uiso
C21_3 C 0.2269(22) 0.3730(40) 0.1371(51) 0.0621 Uiso
C22_3 C 0.2054(28) 0.4568(45) 0.2711(64) 0.0671 Uiso
C23_3 C 0.1293(28) 0.4183(48) 0.3386(75) 0.0899 Uiso
N4_3 N 0.1254(33) 0.4445(58) 0.533(12) 0.3166 Uiso
C24_3 C 0.0532(16) 0.4003(28) 0.6298(45) 0.0010 Uiso
H19_3 H 0.25928 0.38643 0.2418 0.1900 Uiso
H20_3 H 0.17997 0.33805 0.1776 0.1900 Uiso
H21_3 H 0.24231 0.35343 0.0383 0.1900 Uiso
H22_3 H 0.23081 0.44646 0.36733 0.1900 Uiso
H23_3 H 0.21903 0.50675 0.27765 0.1900 Uiso
H24_3 H 0.10011 0.42753 0.25206 0.1900 Uiso
H25_3 H 0.11208 0.36758 0.34327 0.1900 Uiso
H26_3 H 0.14895 0.43291 0.613000 0.1900 Uiso
H27_3 H 0.14453 0.49114 0.5303 0.1900 Uiso
H28_3 H 0.05651 0.36973 0.72245 0.1900 Uiso
H29_3 H 0.03987 0.43152 0.69038 0.1900 Uiso
H30_3 H 0.01795 0.37187 0.53721 0.1900 Uiso
H18_3 H 0.11883 0.62577 0.88293 0.0105 Uiso
O9_3 O 0.1956(10) 0.5091(19) 0.9570(32) 0.0053 Uiso
C20_3 C 0.1910(26) 0.4519(43) 0.9409(54) 0.0431 Uiso
O10_3 O 0.2009(16) 0.4250(28) 0.7885(54) 0.0874 Uiso
O18_2 O 0.79774(94) 0.3912(15) 0.0453(26) 0.0105 Uiso
O1_3 O 0.8044(10) 0.3135(16) 0.7097(32) 0.0053 Uiso
C1_3 C 0.8090(26) 0.2609(34) 0.7258(54) 0.0431 Uiso
O2_3 O 0.7991(16) 0.2241(23) 0.8782(54) 0.0874 Uiso
N1_3 N 0.7726(18) 0.2156(25) 0.5719(49) 0.0469 Uiso
C2_3 C 0.7731(22) 0.1461(33) 0.5296(51) 0.0621 Uiso
C3_3 C 0.7946(28) 0.2514(35) 0.3956(64) 0.0671 Uiso
C4_3 C 0.8707(28) 0.2890(39) 0.3281(75) 0.0899 Uiso
N2_3 N 0.8746(33) 0.3191(48) 0.134(12) 0.3166 Uiso
C5_3 C 0.9468(16) 0.3471(23) 0.0369(45) 0.0010 Uiso
C6_3 C 0.8202(17) 0.4521(23) 0.5374(44) 0.0105 Uiso
C7_3 C 0.8351(18) 0.4463(24) 0.3479(45) 0.0105 Uiso
C8_3 C 0.9042(16) 0.4803(23) 0.2834(43) 0.0105 Uiso
C9_3 C 0.9614(15) 0.5248(21) 0.3807(43) 0.0105 Uiso
C10_3 C 0.9502(14) 0.5380(21) 0.5638(36) 0.0105 Uiso
C11_3 C 0.8856(14) 0.4989(22) 0.6539(40) 0.0105 Uiso
C12_3 C 0.7809(15) 0.3986(23) 0.2088(42) 0.0105 Uiso
H1_3 H 0.99032 0.57298 0.63162 0.0105 Uiso
H2_3 H 0.88117 0.50694 0.78374 0.0105 Uiso
H3_3 H 0.91452 0.47660 0.15481 0.0105 Uiso
H4_3 H 0.74072 0.12715 0.4249 0.1900 Uiso
H5_3 H 0.82003 0.15808 0.4891 0.1900 Uiso
H6_3 H 0.75769 0.11112 0.6284 0.1900 Uiso
H7_3 H 0.76919 0.21565 0.29934 0.1900 Uiso
H8_3 H 0.78097 0.28772 0.38902 0.1900 Uiso
H9_3 H 0.89989 0.32742 0.41461 0.1900 Uiso
H10_3 H 0.88792 0.25550 0.32340 0.1900 Uiso
H11_3 H 0.85105 0.28396 0.053667 0.1900 Uiso
H12_3 H 0.85547 0.34661 0.1364 0.1900 Uiso
H15_3 H 0.98205 0.35392 0.12946 0.1900 Uiso
H13_3 H 0.94349 0.31322 0.94422 0.1900 Uiso
H14_3 H 0.96013 0.39165 0.97629 0.1900 Uiso
loop_
_geom_bond_atom_site_label_1
_geom_bond_atom_site_label_2
_geom_bond_site_symmetry_1
_geom_bond_site_symmetry_2
Mn1 O1 1_555 1_555
O1 C1 1_555 1_555
C1 O2 1_555 1_555
O11 Mn1 1_555 1_555
O15 Mn1 1_555 1_555
O18 Mn1 1_555 1_555
C2 N1 1_555 1_555
C3 N1 1_555 1_555
C4 C3 1_555 1_555
N2 C4 1_555 1_555
C5 N2 1_555 1_555
O4 C12 1_555 1_555
O18 C12 1_555 1_555
C6 O3 1_555 1_555
C7 C6 1_555 1_555
C8 C7 1_555 1_555
C9 C8 1_555 1_555
C10 C9 1_555 1_555
C11 C6 1_555 1_555
C12 C7 1_555 1_555
H1 C10 1_555 1_555
H3 C8 1_555 1_555
H4 C2 1_555 1_555
H5 C2 1_555 1_555
H6 C2 1_555 1_555
H7 C3 1_555 1_555
H8 C3 1_555 1_555
H9 C4 1_555 1_555
H10 C4 1_555 1_555
H11 N2 1_555 1_555
H12 N2 1_555 1_555
H13 C5 1_555 1_555
H14 C5 1_555 1_555
H15 C5 1_555 1_555
Mn4 O4 1_555 1_555
Mn5 O3 1_555 1_555
O4 Mn5 1_555 1_555
C10 C11 1_555 1_555
Mn5 O14 1_555 1_555
O6 C13 1_555 1_555
O7 C19 1_555 1_555
O8 C19 1_555 1_555
C13 C14 1_555 1_555
C14 C15 1_555 1_555
C15 C16 1_555 1_555
C17 C16 1_555 1_555
C18 C13 1_555 1_555
C19 C14 1_555 1_555
H16 C17 1_555 1_555
H17 C15 1_555 1_555
H18 C18 1_555 1_555
Mn7 O6 1_555 1_555
O9 Mn7 1_555 1_555
C20 O9 1_555 1_555
O10 C20 1_555 1_555
N3 C20 1_555 1_555
C21 N3 1_555 1_555
C22 N3 1_555 1_555
C23 C22 1_555 1_555
N4 C23 1_555 1_555
C24 N4 1_555 1_555
H19 C21 1_555 1_555
H20 C21 1_555 1_555
H21 C21 1_555 1_555
H22 C22 1_555 1_555
H23 C22 1_555 1_555
H24 C23 1_555 1_555
H25 C23 1_555 1_555
H26 N4 1_555 1_555
H27 N4 1_555 1_555
H30 C24 1_555 1_555
Mn3 O6 1_555 1_555
Mn6 O7 1_555 1_555
O12 Mn7 1_555 1_555
O13 Mn7 1_555 1_555
O16 Mn7 1_555 1_555
O7 Mn3 1_555 1_555
C17 C18 1_555 1_555
Mn3 O16 1_555 1_555
N2_2 C4_2 1_555 1_555
C5_2 N2_2 1_555 1_555
O13 C12_2 1_555 1_555
O5 C12_2 1_555 1_555
H3_2 C8_2 1_555 1_555
H10_2 C4_2 1_555 1_555
H11_2 N2_2 1_555 1_555
H12_2 N2_2 1_555 1_555
H13_2 C5_2 1_555 1_555
H14_2 C5_2 1_555 1_555
H15_2 C5_2 1_555 1_555
O11 C13_2 1_555 1_555
C13_2 C14_2 1_555 1_555
C17_2 C16_2 1_555 1_555
C18_2 C13_2 1_555 1_555
H16_2 C17_2 1_555 1_555
H18_2 C18_2 1_555 1_555
Mn4 O11 1_555 1_555
O9_2 Mn4 1_555 1_555
C20_2 O9_2 1_555 1_555
O10_2 C20_2 1_555 1_555
N3_2 C20_2 1_555 1_555
C21_2 N3_2 1_555 1_555
C22_2 N3_2 1_555 1_555
H19_2 C21_2 1_555 1_555
H20_2 C21_2 1_555 1_555
H21_2 C21_2 1_555 1_555
H23_2 C22_2 1_555 1_555
Mn3 O5 1_555 1_555
O12_2 Mn4 1_555 1_555
O15 Mn4 1_555 1_555
O17 Mn4 1_555 1_555
C17_2 C18_2 1_555 1_555
Mn3 O1_2 1_555 1_555
O1_2 C1_2 1_555 1_555
C1_2 O2_2 1_555 1_555
N1_2 C1_2 1_555 1_555
C2_2 N1_2 1_555 1_555
C3_2 N1_2 1_555 1_555
O3_2 Mn3 1_555 1_555
C6_2 O3_2 1_555 1_555
C7_2 C6_2 1_555 1_555
C10_2 C9_2 1_555 1_555
C11_2 C6_2 1_555 1_555
H1_2 C10_2 1_555 1_555
H2_2 C11_2 1_555 1_555
H4_2 C2_2 1_555 1_555
H5_2 C2_2 1_555 1_555
H6_2 C2_2 1_555 1_555
H8_2 C3_2 1_555 1_555
O14 C19_2 1_555 1_555
O17 C19_2 1_555 1_555
H17_2 C15_2 1_555 1_555
N4_2 C23_2 1_555 1_555
C24_2 N4_2 1_555 1_555
H25_2 C23_2 1_555 1_555
H26_2 N4_2 1_555 1_555
H27_2 N4_2 1_555 1_555
H28_2 C24_2 1_555 1_555
H29_2 C24_2 1_555 1_555
H30_2 C24_2 1_555 1_555
Mn6 O3_2 1_555 1_555
C10_2 C11_2 1_555 1_555
O12 C13_3 1_555 1_555
O16 C19_3 1_555 1_555
O8_2 C19_3 1_555 1_555
C13_3 C14_3 1_555 1_555
C14_3 C15_3 1_555 1_555
C15_3 C16_3 1_555 1_555
C17_3 C16_3 1_555 1_555
C18_3 C13_3 1_555 1_555
C19_3 C14_3 1_555 1_555
H16_3 C17_3 1_555 1_555
H17_3 C15_3 1_555 1_555
C21_3 N3_3 1_555 1_555
C22_3 N3_3 1_555 1_555
C23_3 C22_3 1_555 1_555
N4_3 C23_3 1_555 1_555
C24_3 N4_3 1_555 1_555
H19_3 C21_3 1_555 1_555
H20_3 C21_3 1_555 1_555
H21_3 C21_3 1_555 1_555
H22_3 C22_3 1_555 1_555
H23_3 C22_3 1_555 1_555
H24_3 C23_3 1_555 1_555
H25_3 C23_3 1_555 1_555
H26_3 N4_3 1_555 1_555
H27_3 N4_3 1_555 1_555
H28_3 C24_3 1_555 1_555
H29_3 C24_3 1_555 1_555
H30_3 C24_3 1_555 1_555
Mn6 O8_2 1_555 1_555
C17_3 C18_3 1_555 1_555
O9_3 Mn6 1_555 1_555
C20_3 O9_3 1_555 1_555
O10_3 C20_3 1_555 1_555
Mn5 O1_3 1_555 1_555
O1_3 C1_3 1_555 1_555
C1_3 O2_3 1_555 1_555
N1_3 C1_3 1_555 1_555
C2_3 N1_3 1_555 1_555
C3_3 N1_3 1_555 1_555
C4_3 C3_3 1_555 1_555
N2_3 C4_3 1_555 1_555
C5_3 N2_3 1_555 1_555
O12_2 Mn5 1_555 1_555
O15 C12_3 1_555 1_555
O18_2 C12_3 1_555 1_555
C6_3 O12_2 1_555 1_555
C7_3 C6_3 1_555 1_555
C8_3 C7_3 1_555 1_555
C9_3 C8_3 1_555 1_555
C10_3 C9_3 1_555 1_555
C11_3 C6_3 1_555 1_555
C12_3 C7_3 1_555 1_555
H1_3 C10_3 1_555 1_555
H2_3 C11_3 1_555 1_555
H3_3 C8_3 1_555 1_555
H4_3 C2_3 1_555 1_555
H5_3 C2_3 1_555 1_555
H6_3 C2_3 1_555 1_555
H7_3 C3_3 1_555 1_555
H8_3 C3_3 1_555 1_555
H9_3 C4_3 1_555 1_555
H10_3 C4_3 1_555 1_555
H11_3 N2_3 1_555 1_555
H12_3 N2_3 1_555 1_555
H15_3 C5_3 1_555 1_555
C10_3 C11_3 1_555 1_555

#END
