
###############################################################################
#
# This file contains modified crystal structure data generated from the
# MOF subset of the Cambridge Structural Database (CSD) v543 
# hosted by the Cambridge Crystallographic Data Centre (CCDC).
#
# This work is licensed under the Creative Commons
# Attribution-NonCommercial-ShareAlike 4.0 International License.
# To view a copy of this license, visit
# http://creativecommons.org/licenses/by-nc-sa/4.0/
# or send a letter to
# Creative Commons, PO Box 1866, Mountain View, CA 94042, USA.
#
# CIF created using the CSD Python API on 29 September 2022
# The structure has been converted into the P1 space group
# The structure has a 3D framework
# The original CSD entry JOZTIE is in the monoclinic crystal system
# The original CSD entry JOZTIE is in a Sohncke space group
# The framework has been calculated to contain at least 10.0% void space
# The void calculation uses a probe of radius 1.32A, grid spacing 0.4
# The framework is charged, counterions have been retained in the structure
#
###############################################################################

data_JOZTIE
_chemical_formula_moiety         '(C240 H48 Bi12 O96 S72 12-)n'
_symmetry_cell_setting           triclinic
_symmetry_space_group_name_H-M   'P 1'
_symmetry_Int_Tables_number      1
_space_group_name_Hall           'P 1'
loop_
_symmetry_equiv_pos_site_id
_symmetry_equiv_pos_as_xyz
1 x,y,z
_cell_length_a                   25.5961(19)
_cell_length_b                   22.5938(19)
_cell_length_c                   17.288(2)
_cell_angle_alpha                90
_cell_angle_beta                 100.512(8)
_cell_angle_gamma                90
_cell_volume                     9830.08
loop_
_atom_site_label
_atom_site_type_symbol
_atom_site_fract_x
_atom_site_fract_y
_atom_site_fract_z
S14 S 0.5245(3) 0.0917(3) 0.7203(5)
S18 S 0.6847(3) 0.0463(3) 0.7775(4)
O21 O 0.7235(7) 0.2129(8) 0.8272(9)
C5 C 0.6184(9) 0.0382(11) 0.7511(13)
O24 O 0.7718(8) 0.1361(10) 0.8106(14)
C32 C 0.6779(10) 0.1220(12) 0.7884(14)
C38 C 0.7290(10) 0.1589(11) 0.8091(16)
C48 C 0.5940(10) 0.0950(12) 0.7508(15)
C50 C 0.6303(10) 0.1421(11) 0.7721(14)
H10 H 0.6209 0.1817 0.7741
C55 C 0.5289(10) 0.0146(11) 0.7140(14)
Bi8 Bi 0.69778(3) 0.25491(3) 0.96433(4)
Bi12 Bi 0.81973(3) 0.25103(8) 0.84712(5)
Bi1 Bi 0.43606(3) 0.74782(3) 0.71169(4)
S2 S 0.6788(3) 0.4491(3) 0.7756(4)
S4 S 0.5781(2) 0.5777(3) 0.7534(4)
S5 S 0.2972(2) 0.6347(3) 0.2797(3)
S6 S 0.38062(18) 0.7630(2) 0.1761(3)
S8 S 0.6568(2) 0.5357(3) 0.9806(3)
S9 S 0.41155(19) 0.7481(3) 0.4042(2)
S10 S 0.7155(2) 0.2654(3) 0.2696(4)
S11 S 0.5812(3) 0.9176(3) 0.7312(4)
S12 S 0.7465(2) 0.2531(4) 0.4986(3)
S17 S 0.8242(3) 0.3841(4) 0.3931(4)
O1 O 0.5096(6) 0.8105(7) 0.7157(10)
O3 O 0.4989(7) 0.6736(7) 0.7133(10)
O4 O 0.6936(6) 0.2521(10) 0.0960(8)
O7 O 0.4381(5) 0.7537(10) 0.5788(7)
O9 O 0.4955(6) 0.7027(7) 0.8330(9)
O11 O 0.7637(6) 0.3266(6) 0.8981(10)
O12 O 0.7670(8) 0.2316(9) 0.6742(12)
O16 O 0.4342(6) 0.8590(7) 0.6887(9)
C1 C 0.6195(9) 0.5447(10) 0.8305(14)
O18 O 0.7431(7) 0.3258(8) 0.0702(9)
O20 O 0.8342(7) 0.2874(8) 0.7027(10)
C4 C 0.3586(7) 0.7212(9) 0.2458(11)
O22 O 0.3872(7) 0.6809(8) 0.6047(9)
O23 O 0.7543(8) 0.3455(8) 0.7723(11)
C6 C 0.5157(8) 0.6686(9) 0.7896(12)
C7 C 0.6153(8) 0.5699(9) 0.9038(13)
C11 C 0.7244(9) 0.2961(11) 0.1173(15)
C12 C 0.3370(8) 0.7398(9) 0.0171(12)
C13 C 0.3712(7) 0.7136(10) 0.3273(10)
C14 C 0.5541(8) 0.6244(9) 0.8195(13)
C22 C 0.6566(8) 0.4979(9) 0.8368(14)
C24 C 0.3194(9) 0.6799(9) 0.2110(13)
C27 C 0.4887(9) 0.9704(10) 0.6975(12)
H3 H 0.4525 0.9777 0.6826
C28 C 0.5775(7) 0.6158(9) 0.8946(13)
H4 H 0.5696 0.6379 0.9364
C29 C 0.3060(8) 0.6838(9) 0.1259(11)
H5 H 0.2806 0.6611 0.0937
C31 C 0.7550(11) 0.3042(12) 0.3455(14)
C33 C 0.3370(8) 0.7269(8) 0.1009(11)
C34 C 0.7390(9) 0.3084(11) 0.2019(13)
C35 C 0.5121(9) 0.9145(10) 0.7072(11)
C36 C 0.4843(10) 0.8599(10) 0.7026(12)
C37 C 0.7761(9) 0.3492(11) 0.2360(13)
H7 H 0.7941 0.3752 0.2084
C39 C 0.3498(9) 0.6639(11) 0.4357(13)
H8 H 0.3338 0.6353 0.4622
C42 C 0.3400(8) 0.6710(10) 0.3544(12)
C43 C 0.4050(9) 0.7120(12) 0.5567(11)
C44 C 0.6783(8) 0.4879(10) 0.9151(13)
C45 C 0.7665(9) 0.2991(13) 0.4292(14)
C47 C 0.7461(10) 0.3567(12) 0.8408(18)
C51 C 0.7929(10) 0.2896(13) 0.5734(16)
C52 C 0.5803(8) 0.9934(9) 0.7314(12)
C53 C 0.7978(10) 0.2681(12) 0.6550(15)
C54 C 0.3850(10) 0.7031(11) 0.4706(12)
C56 C 0.7829(10) 0.3461(12) 0.3165(17)
C57 C 0.7165(9) 0.4120(9) 0.8555(14)
C58 C 0.7127(11) 0.4372(11) 0.9272(15)
H11 H 0.7299 0.4234 0.9759
C59 C 0.8031(11) 0.3360(12) 0.4619(16)
C60 C 0.8183(11) 0.3316(12) 0.5429(14)
H12 H 0.8438 0.3558 0.5726
Bi6 Bi 0.93606(3) 0.24782(3) 0.71169(4)
O27 O 0.4175(6) 0.7863(6) 0.8544(8)
O28 O 0.3718(6) 0.6737(7) 0.7734(8)
O33 O 0.3342(7) 0.7874(8) 0.7027(10)
Bi3 Bi 0.31973(3) 0.75103(8) 0.84712(5)
S3 S 0.5569(2) 0.0824(3) 0.9363(4)
S13 S 0.5497(3) 0.4174(3) 0.9283(4)
S15 S 0.4767(3) 0.4647(3) 0.7007(4)
S16 S 0.4532(2) 0.5520(2) 0.9047(3)
O2 O 0.6251(7) 0.1904(7) 0.9570(12)
O5 O 0.2993(6) 0.7177(7) 0.9692(8)
O13 O 0.3749(7) 0.7690(7) 0.9977(9)
O14 O 0.3870(7) 0.6619(7) 0.9022(10)
O15 O 0.6330(7) 0.2954(8) 0.8448(10)
O17 O 0.7024(6) 0.1446(7) 0.9881(10)
C2 C 0.6520(10) 0.1441(11) 0.9704(14)
O19 O 0.6314(7) 0.3234(8) 0.9664(12)
C9 C 0.4756(8) 0.5015(9) 0.8447(12)
C10 C 0.6256(8) 0.0845(10) 0.9613(14)
C15 C 0.5521(9) 0.3821(11) 0.7904(15)
H1 H 0.5608 0.3610 0.7484
C17 C 0.3899(9) 0.6446(9) 0.8352(14)
C18 C 0.5610(7) 0.0069(11) 0.9313(10)
C19 C 0.4178(7) 0.5890(9) 0.8245(12)
C21 C 0.4566(9) 0.5148(11) 0.7634(13)
C23 C 0.6492(9) 0.0326(10) 0.9682(13)
H2 H 0.6856 0.0266 0.9830
C25 C 0.5728(9) 0.3712(10) 0.8635(14)
C26 C 0.5110(8) 0.4531(9) 0.8525(14)
C40 C 0.6149(9) 0.3263(10) 0.893(2)
C46 C 0.5155(10) 0.4287(10) 0.7810(15)
C49 C 0.4233(7) 0.5656(9) 0.7525(12)
H9 H 0.4074 0.5809 0.7039
Bi9 Bi 0.19778(3) 0.75491(3) 0.96433(4)
O25 O 0.7993(6) 0.2177(7) 0.9692(8)
O29 O 0.3658(7) 0.8653(8) 0.8496(12)
O31 O 0.2637(6) 0.8266(6) 0.8981(10)
O35 O 0.2235(7) 0.7129(8) 0.8272(9)
O36 O 0.2543(8) 0.8455(8) 0.7723(11)
O37 O 0.2718(8) 0.6361(10) 0.8106(14)
S1 S 0.4544(2) 0.9549(3) 0.8851(3)
S7 S 0.6152(2) 0.9089(2) 0.9468(3)
C3 C 0.5471(8) 0.9049(9) 0.9178(11)
C8 C 0.4110(9) 0.8423(11) 0.8609(12)
C16 C 0.6101(8) 0.9860(9) 0.9492(11)
C20 C 0.5236(8) 0.9592(9) 0.9124(11)
C30 C 0.5119(9) 0.8582(10) 0.9009(12)
H6 H 0.5220 0.8186 0.9016
C41 C 0.4587(8) 0.8781(9) 0.8822(11)
S4_2 S 0.0781(2) 0.0777(3) 0.7534(4)
S8_2 S 0.1568(2) 0.0357(3) 0.9806(3)
S11_2 S 0.0812(3) 0.4176(3) 0.7312(4)
S14_2 S 0.0245(3) 0.5917(3) 0.7203(5)
S18_2 S 0.1847(3) 0.5463(3) 0.7775(4)
O1_2 O 0.0096(6) 0.3105(7) 0.7157(10)
C1_2 C 0.1195(9) 0.0447(10) 0.8305(14)
C5_2 C 0.1184(9) 0.5382(11) 0.7511(13)
C6_2 C 0.0157(8) 0.1686(9) 0.7896(12)
C7_2 C 0.1153(8) 0.0699(9) 0.9038(13)
C14_2 C 0.0541(8) 0.1244(9) 0.8195(13)
C28_2 C 0.0775(7) 0.1158(9) 0.8946(13)
H4_2 H 0.0696 0.1379 0.9364
C32_2 C 0.1779(10) 0.6220(12) 0.7884(14)
C35_2 C 0.0121(9) 0.4145(10) 0.7072(11)
C38_2 C 0.2290(10) 0.6589(11) 0.8091(16)
C48_2 C 0.0940(10) 0.5950(12) 0.7508(15)
C50_2 C 0.1303(10) 0.6421(11) 0.7721(14)
H10_2 H 0.1209 0.6817 0.7741
C52_2 C 0.0803(8) 0.4934(9) 0.7314(12)
C55_2 C 0.0289(10) 0.5146(11) 0.7140(14)
S2_2 S 0.1788(3) 0.9491(3) 0.7756(4)
S10_2 S 0.2155(2) 0.7654(3) 0.2696(4)
S12_2 S 0.2465(2) 0.7531(4) 0.4986(3)
S17_2 S 0.3242(3) 0.8841(4) 0.3931(4)
O4_2 O 0.1936(6) 0.7521(10) 0.0960(8)
O12_2 O 0.2670(8) 0.7316(9) 0.6742(12)
O18_2 O 0.2431(7) 0.8258(8) 0.0702(9)
C11_2 C 0.2244(9) 0.7961(11) 0.1173(15)
C22_2 C 0.1566(8) 0.9979(9) 0.8368(14)
C31_2 C 0.2550(11) 0.8042(12) 0.3455(14)
C34_2 C 0.2390(9) 0.8084(11) 0.2019(13)
C37_2 C 0.2761(9) 0.8492(11) 0.2360(13)
H7_2 H 0.2941 0.8752 0.2084
C44_2 C 0.1783(8) 0.9879(10) 0.9151(13)
C45_2 C 0.2665(9) 0.7991(13) 0.4292(14)
C47_2 C 0.2461(10) 0.8567(12) 0.8408(18)
C51_2 C 0.2929(10) 0.7896(13) 0.5734(16)
C53_2 C 0.2978(10) 0.7681(12) 0.6550(15)
C56_2 C 0.2829(10) 0.8461(12) 0.3165(17)
C57_2 C 0.2165(9) 0.9120(9) 0.8555(14)
C58_2 C 0.2127(11) 0.9372(11) 0.9272(15)
H11_2 H 0.2299 0.9234 0.9759
C59_2 C 0.3031(11) 0.8360(12) 0.4619(16)
C60_2 C 0.3183(11) 0.8316(12) 0.5429(14)
H12_2 H 0.3438 0.8558 0.5726
S3_2 S 0.0569(2) 0.5824(3) 0.9363(4)
S7_2 S 0.1152(2) 0.4089(2) 0.9468(3)
S13_2 S 0.0497(3) 0.9174(3) 0.9283(4)
O2_2 O 0.1251(7) 0.6904(7) 0.9570(12)
O15_2 O 0.1330(7) 0.7954(8) 0.8448(10)
O17_2 O 0.2024(6) 0.6446(7) 0.9881(10)
C2_2 C 0.1520(10) 0.6441(11) 0.9704(14)
O19_2 O 0.1314(7) 0.8234(8) 0.9664(12)
C3_2 C 0.0471(8) 0.4049(9) 0.9178(11)
C10_2 C 0.1256(8) 0.5845(10) 0.9613(14)
C15_2 C 0.0521(9) 0.8821(11) 0.7904(15)
H1_2 H 0.0608 0.8610 0.7484
C16_2 C 0.1101(8) 0.4860(9) 0.9492(11)
C18_2 C 0.0610(7) 0.5069(11) 0.9313(10)
C20_2 C 0.0236(8) 0.4592(9) 0.9124(11)
C23_2 C 0.1492(9) 0.5326(10) 0.9682(13)
H2_2 H 0.1856 0.5266 0.9830
C25_2 C 0.0728(9) 0.8712(10) 0.8635(14)
C26_2 C 0.0110(8) 0.9531(9) 0.8525(14)
C30_2 C 0.0119(9) 0.3582(10) 0.9009(12)
H6_2 H 0.0220 0.3186 0.9016
C40_2 C 0.1149(9) 0.8263(10) 0.893(2)
C46_2 C 0.0155(10) 0.9287(10) 0.7810(15)
S5_2 S 0.7972(2) 0.1347(3) 0.2797(3)
S6_2 S 0.88062(18) 0.2630(2) 0.1761(3)
S9_2 S 0.91155(19) 0.2481(3) 0.4042(2)
O3_2 O 0.9989(7) 0.1736(7) 0.7133(10)
O7_2 O 0.9381(5) 0.2537(10) 0.5788(7)
O9_2 O 0.9955(6) 0.2027(7) 0.8330(9)
O16_2 O 0.9342(6) 0.3590(7) 0.6887(9)
C4_2 C 0.8586(7) 0.2212(9) 0.2458(11)
O22_2 O 0.8872(7) 0.1809(8) 0.6047(9)
C12_2 C 0.8370(8) 0.2398(9) 0.0171(12)
C13_2 C 0.8712(7) 0.2136(10) 0.3273(10)
C24_2 C 0.8194(9) 0.1799(9) 0.2110(13)
C27_2 C 0.9887(9) 0.4704(10) 0.6975(12)
H3_2 H 0.9525 0.4777 0.6826
C29_2 C 0.8060(8) 0.1838(9) 0.1259(11)
H5_2 H 0.7806 0.1611 0.0937
C33_2 C 0.8370(8) 0.2269(8) 0.1009(11)
C36_2 C 0.9843(10) 0.3599(10) 0.7026(12)
C39_2 C 0.8498(9) 0.1639(11) 0.4357(13)
H8_2 H 0.8338 0.1353 0.4622
C42_2 C 0.8400(8) 0.1710(10) 0.3544(12)
C43_2 C 0.9050(9) 0.2120(12) 0.5567(11)
C54_2 C 0.8850(10) 0.2031(11) 0.4706(12)
O27_2 O 0.9175(6) 0.2863(6) 0.8544(8)
O28_2 O 0.8718(6) 0.1737(7) 0.7734(8)
S16_2 S 0.9532(2) 0.0520(2) 0.9047(3)
O13_2 O 0.8749(7) 0.2690(7) 0.9977(9)
O14_2 O 0.8870(7) 0.1619(7) 0.9022(10)
C9_2 C 0.9756(8) 0.0015(9) 0.8447(12)
C17_2 C 0.8899(9) 0.1446(9) 0.8352(14)
C19_2 C 0.9178(7) 0.0890(9) 0.8245(12)
C21_2 C 0.9566(9) 0.0148(11) 0.7634(13)
C49_2 C 0.9233(7) 0.0656(9) 0.7525(12)
H9_2 H 0.9074 0.0809 0.7039
O29_2 O 0.8658(7) 0.3653(8) 0.8496(12)
S1_2 S 0.9544(2) 0.4549(3) 0.8851(3)
S15_2 S 0.9767(3) 0.9647(3) 0.7007(4)
C8_2 C 0.9110(9) 0.3423(11) 0.8609(12)
C41_2 C 0.9587(8) 0.3781(9) 0.8822(11)
S14_3 S 0.4755(3) 0.0917(3) 0.2797(5)
S18_3 S 0.3153(3) 0.0463(3) 0.2225(4)
O21_2 O 0.2765(7) 0.2129(8) 0.1728(9)
C5_3 C 0.3816(9) 0.0382(11) 0.2489(13)
O24_2 O 0.2282(8) 0.1361(10) 0.1894(14)
C32_3 C 0.3221(10) 0.1220(12) 0.2116(14)
C38_3 C 0.2710(10) 0.1589(11) 0.1909(16)
C48_3 C 0.4060(10) 0.0950(12) 0.2492(15)
C50_3 C 0.3697(10) 0.1421(11) 0.2279(14)
H10_3 H 0.3791 0.1817 0.2259
C55_3 C 0.4711(10) 0.0146(11) 0.2860(14)
Bi8_2 Bi 0.30222(3) 0.25491(3) 0.03567(4)
Bi12_2 Bi 0.18027(3) 0.25103(8) 0.15288(5)
Bi3_2 Bi 0.68027(3) 0.75103(8) 0.15288(5)
S3_3 S 0.4431(2) 0.0824(3) 0.0637(4)
S13_3 S 0.4503(3) 0.4174(3) 0.0717(4)
S15_3 S 0.5233(3) 0.4647(3) 0.2993(4)
S16_3 S 0.5468(2) 0.5520(2) 0.0953(3)
O2_3 O 0.3749(7) 0.1904(7) 0.0430(12)
O5_2 O 0.7007(6) 0.7177(7) 0.0308(8)
O8 O 0.6282(6) 0.6737(7) 0.2266(8)
O13_3 O 0.6251(7) 0.7690(7) 0.0023(9)
O14_3 O 0.6130(7) 0.6619(7) 0.0978(10)
O15_3 O 0.3670(7) 0.2954(8) 0.1552(10)
O17_3 O 0.2976(6) 0.1446(7) 0.0119(10)
C2_3 C 0.3480(10) 0.1441(11) 0.0296(14)
O19_3 O 0.3686(7) 0.3234(8) 0.0336(12)
C9_3 C 0.5244(8) 0.5015(9) 0.1553(12)
C10_3 C 0.3744(8) 0.0845(10) 0.0387(14)
C15_3 C 0.4479(9) 0.3821(11) 0.2096(15)
H1_3 H 0.4392 0.3610 0.2516
C17_3 C 0.6101(9) 0.6446(9) 0.1648(14)
C18_3 C 0.4390(7) 0.0069(11) 0.0687(10)
C19_3 C 0.5822(7) 0.5890(9) 0.1755(12)
C21_3 C 0.5434(9) 0.5148(11) 0.2366(13)
C23_3 C 0.3508(9) 0.0326(10) 0.0318(13)
H2_3 H 0.3144 0.0266 0.0170
C25_3 C 0.4272(9) 0.3712(10) 0.1365(14)
C26_3 C 0.4890(8) 0.4531(9) 0.1475(14)
C40_3 C 0.3851(9) 0.3263(10) 0.107(2)
C46_3 C 0.4845(10) 0.4287(10) 0.2190(15)
C49_3 C 0.5767(7) 0.5656(9) 0.2475(12)
H9_3 H 0.5926 0.5809 0.2961
Bi5 Bi 0.56394(3) 0.74782(3) 0.28831(4)
Bi9_2 Bi 0.80222(3) 0.75491(3) 0.03567(4)
O25_2 O 0.2007(6) 0.2177(7) 0.0308(8)
O26 O 0.5825(6) 0.7863(6) 0.1456(8)
O29_3 O 0.6342(7) 0.8653(8) 0.1504(12)
O30 O 0.2363(6) 0.3266(6) 0.1019(10)
O31_2 O 0.7363(6) 0.8266(6) 0.1019(10)
O32 O 0.6658(7) 0.7874(8) 0.2973(10)
O35_2 O 0.7765(7) 0.7129(8) 0.1728(9)
O36_2 O 0.7457(8) 0.8455(8) 0.2277(11)
O37_2 O 0.7282(8) 0.6361(10) 0.1894(14)
S2_3 S 0.3212(3) 0.4491(3) 0.2244(4)
S4_3 S 0.4219(2) 0.5777(3) 0.2466(4)
S5_3 S 0.7028(2) 0.6347(3) 0.7203(3)
S6_3 S 0.61938(18) 0.7630(2) 0.8239(3)
S8_3 S 0.3432(2) 0.5357(3) 0.0194(3)
S9_3 S 0.58845(19) 0.7481(3) 0.5958(2)
S10_3 S 0.2845(2) 0.2654(3) 0.7304(4)
S11_3 S 0.4188(3) 0.9176(3) 0.2688(4)
S12_3 S 0.2535(2) 0.2531(4) 0.5014(3)
S17_3 S 0.1758(3) 0.3841(4) 0.6069(4)
O1_3 O 0.4904(6) 0.8105(7) 0.2843(10)
O3_3 O 0.5011(7) 0.6736(7) 0.2867(10)
O4_3 O 0.3064(6) 0.2521(10) 0.9040(8)
O7_3 O 0.5619(5) 0.7537(10) 0.4212(7)
O9_3 O 0.5045(6) 0.7027(7) 0.1670(9)
O12_3 O 0.2330(8) 0.2316(9) 0.3258(12)
O16_3 O 0.5658(6) 0.8590(7) 0.3113(9)
C1_3 C 0.3805(9) 0.5447(10) 0.1695(14)
O18_3 O 0.2569(7) 0.3258(8) 0.9298(9)
O20_2 O 0.1658(7) 0.2874(8) 0.2973(10)
C4_3 C 0.6414(7) 0.7212(9) 0.7542(11)
O22_3 O 0.6128(7) 0.6809(8) 0.3953(9)
O23_2 O 0.2457(8) 0.3455(8) 0.2277(11)
C6_3 C 0.4843(8) 0.6686(9) 0.2104(12)
C7_3 C 0.3847(8) 0.5699(9) 0.0962(13)
C11_3 C 0.2756(9) 0.2961(11) 0.8827(15)
C12_3 C 0.6630(8) 0.7398(9) 0.9829(12)
C13_3 C 0.6288(7) 0.7136(10) 0.6727(10)
C14_3 C 0.4459(8) 0.6244(9) 0.1805(13)
C22_3 C 0.3434(8) 0.4979(9) 0.1632(14)
C24_3 C 0.6806(9) 0.6799(9) 0.7890(13)
C27_3 C 0.5113(9) 0.9704(10) 0.3025(12)
H3_3 H 0.5475 0.9777 0.3174
C28_3 C 0.4225(7) 0.6158(9) 0.1054(13)
H4_3 H 0.4304 0.6379 0.0636
C29_3 C 0.6940(8) 0.6838(9) 0.8741(11)
H5_3 H 0.7194 0.6611 0.9063
C31_3 C 0.2450(11) 0.3042(12) 0.6545(14)
C33_3 C 0.6630(8) 0.7269(8) 0.8991(11)
C34_3 C 0.2610(9) 0.3084(11) 0.7981(13)
C35_3 C 0.4879(9) 0.9145(10) 0.2928(11)
C36_3 C 0.5157(10) 0.8599(10) 0.2974(12)
C37_3 C 0.2239(9) 0.3492(11) 0.7640(13)
H7_3 H 0.2059 0.3752 0.7916
C39_3 C 0.6502(9) 0.6639(11) 0.5643(13)
H8_3 H 0.6662 0.6353 0.5378
C42_3 C 0.6600(8) 0.6710(10) 0.6456(12)
C43_3 C 0.5950(9) 0.7120(12) 0.4433(11)
C44_3 C 0.3217(8) 0.4879(10) 0.0849(13)
C45_3 C 0.2335(9) 0.2991(13) 0.5708(14)
C47_3 C 0.2539(10) 0.3567(12) 0.1592(18)
C51_3 C 0.2071(10) 0.2896(13) 0.4266(16)
C52_3 C 0.4197(8) 0.9934(9) 0.2686(12)
C53_3 C 0.2022(10) 0.2681(12) 0.3450(15)
C54_3 C 0.6150(10) 0.7031(11) 0.5294(12)
C56_3 C 0.2171(10) 0.3461(12) 0.6835(17)
C57_3 C 0.2835(9) 0.4120(9) 0.1445(14)
C58_3 C 0.2873(11) 0.4372(11) 0.0728(15)
H11_3 H 0.2701 0.4234 0.0241
C59_3 C 0.1969(11) 0.3360(12) 0.5381(16)
C60_3 C 0.1817(11) 0.3316(12) 0.4571(14)
H12_3 H 0.1562 0.3558 0.4274
Bi6_2 Bi 0.06394(3) 0.24782(3) 0.28831(4)
S1_3 S 0.5456(2) 0.9549(3) 0.1149(3)
S7_3 S 0.3848(2) 0.9089(2) 0.0532(3)
C3_3 C 0.4529(8) 0.9049(9) 0.0822(11)
C8_3 C 0.5890(9) 0.8423(11) 0.1391(12)
C16_3 C 0.3899(8) 0.9860(9) 0.0508(11)
C20_3 C 0.4764(8) 0.9592(9) 0.0876(11)
C30_3 C 0.4881(9) 0.8582(10) 0.0991(12)
H6_3 H 0.4780 0.8186 0.0984
C41_3 C 0.5413(8) 0.8781(9) 0.1178(11)
S16_4 S 0.0468(2) 0.0520(2) 0.0953(3)
O8_2 O 0.1282(6) 0.1737(7) 0.2266(8)
O13_4 O 0.1251(7) 0.2690(7) 0.0023(9)
O14_4 O 0.1130(7) 0.1619(7) 0.0978(10)
C9_4 C 0.0244(8) 0.0015(9) 0.1553(12)
C17_4 C 0.1101(9) 0.1446(9) 0.1648(14)
C19_4 C 0.0822(7) 0.0890(9) 0.1755(12)
C21_4 C 0.0434(9) 0.0148(11) 0.2366(13)
C49_4 C 0.0767(7) 0.0656(9) 0.2475(12)
H9_4 H 0.0926 0.0809 0.2961
O26_2 O 0.0825(6) 0.2863(6) 0.1456(8)
O29_4 O 0.1342(7) 0.3653(8) 0.1504(12)
S5_4 S 0.2028(2) 0.1347(3) 0.7203(3)
S6_4 S 0.11938(18) 0.2630(2) 0.8239(3)
S9_4 S 0.08845(19) 0.2481(3) 0.5958(2)
O3_4 O 0.0011(7) 0.1736(7) 0.2867(10)
O7_4 O 0.0619(5) 0.2537(10) 0.4212(7)
O9_4 O 0.0045(6) 0.2027(7) 0.1670(9)
O16_4 O 0.0658(6) 0.3590(7) 0.3113(9)
C4_4 C 0.1414(7) 0.2212(9) 0.7542(11)
O22_4 O 0.1128(7) 0.1809(8) 0.3953(9)
C12_4 C 0.1630(8) 0.2398(9) 0.9829(12)
C13_4 C 0.1288(7) 0.2136(10) 0.6727(10)
C24_4 C 0.1806(9) 0.1799(9) 0.7890(13)
C27_4 C 0.0113(9) 0.4704(10) 0.3025(12)
H3_4 H 0.0475 0.4777 0.3174
C29_4 C 0.1940(8) 0.1838(9) 0.8741(11)
H5_4 H 0.2194 0.1611 0.9063
C33_4 C 0.1630(8) 0.2269(8) 0.8991(11)
C36_4 C 0.0157(10) 0.3599(10) 0.2974(12)
C39_4 C 0.1502(9) 0.1639(11) 0.5643(13)
H8_4 H 0.1662 0.1353 0.5378
C42_4 C 0.1600(8) 0.1710(10) 0.6456(12)
C43_4 C 0.0950(9) 0.2120(12) 0.4433(11)
C54_4 C 0.1150(10) 0.2031(11) 0.5294(12)
S1_4 S 0.0456(2) 0.4549(3) 0.1149(3)
S15_4 S 0.0233(3) 0.9647(3) 0.2993(4)
C8_4 C 0.0890(9) 0.3423(11) 0.1391(12)
C41_4 C 0.0413(8) 0.3781(9) 0.1178(11)
S4_4 S 0.9219(2) 0.0777(3) 0.2466(4)
S8_4 S 0.8432(2) 0.0357(3) 0.0194(3)
S11_4 S 0.9188(3) 0.4176(3) 0.2688(4)
S14_4 S 0.9755(3) 0.5917(3) 0.2797(5)
S18_4 S 0.8153(3) 0.5463(3) 0.2225(4)
O1_4 O 0.9904(6) 0.3105(7) 0.2843(10)
C1_4 C 0.8805(9) 0.0447(10) 0.1695(14)
C5_4 C 0.8816(9) 0.5382(11) 0.2489(13)
C6_4 C 0.9843(8) 0.1686(9) 0.2104(12)
C7_4 C 0.8847(8) 0.0699(9) 0.0962(13)
C14_4 C 0.9459(8) 0.1244(9) 0.1805(13)
C28_4 C 0.9225(7) 0.1158(9) 0.1054(13)
H4_4 H 0.9304 0.1379 0.0636
C32_4 C 0.8221(10) 0.6220(12) 0.2116(14)
C35_4 C 0.9879(9) 0.4145(10) 0.2928(11)
C38_4 C 0.7710(10) 0.6589(11) 0.1909(16)
C48_4 C 0.9060(10) 0.5950(12) 0.2492(15)
C50_4 C 0.8697(10) 0.6421(11) 0.2279(14)
H10_4 H 0.8791 0.6817 0.2259
C52_4 C 0.9197(8) 0.4934(9) 0.2686(12)
C55_4 C 0.9711(10) 0.5146(11) 0.2860(14)
S3_4 S 0.9431(2) 0.5824(3) 0.0637(4)
S7_4 S 0.8848(2) 0.4089(2) 0.0532(3)
S13_4 S 0.9503(3) 0.9174(3) 0.0717(4)
O2_4 O 0.8749(7) 0.6904(7) 0.0430(12)
O15_4 O 0.8670(7) 0.7954(8) 0.1552(10)
O17_4 O 0.7976(6) 0.6446(7) 0.0119(10)
C2_4 C 0.8480(10) 0.6441(11) 0.0296(14)
O19_4 O 0.8686(7) 0.8234(8) 0.0336(12)
C3_4 C 0.9529(8) 0.4049(9) 0.0822(11)
C10_4 C 0.8744(8) 0.5845(10) 0.0387(14)
C15_4 C 0.9479(9) 0.8821(11) 0.2096(15)
H1_4 H 0.9392 0.8610 0.2516
C16_4 C 0.8899(8) 0.4860(9) 0.0508(11)
C18_4 C 0.9390(7) 0.5069(11) 0.0687(10)
C20_4 C 0.9764(8) 0.4592(9) 0.0876(11)
C23_4 C 0.8508(9) 0.5326(10) 0.0318(13)
H2_4 H 0.8144 0.5266 0.0170
C25_4 C 0.9272(9) 0.8712(10) 0.1365(14)
C26_4 C 0.9890(8) 0.9531(9) 0.1475(14)
C30_4 C 0.9881(9) 0.3582(10) 0.0991(12)
H6_4 H 0.9780 0.3186 0.0984
C40_4 C 0.8851(9) 0.8263(10) 0.107(2)
C46_4 C 0.9845(10) 0.9287(10) 0.2190(15)
S2_4 S 0.8212(3) 0.9491(3) 0.2244(4)
S10_4 S 0.7845(2) 0.7654(3) 0.7304(4)
S12_4 S 0.7535(2) 0.7531(4) 0.5014(3)
S17_4 S 0.6758(3) 0.8841(4) 0.6069(4)
O4_4 O 0.8064(6) 0.7521(10) 0.9040(8)
O12_4 O 0.7330(8) 0.7316(9) 0.3258(12)
O18_4 O 0.7569(7) 0.8258(8) 0.9298(9)
C11_4 C 0.7756(9) 0.7961(11) 0.8827(15)
C22_4 C 0.8434(8) 0.9979(9) 0.1632(14)
C31_4 C 0.7450(11) 0.8042(12) 0.6545(14)
C34_4 C 0.7610(9) 0.8084(11) 0.7981(13)
C37_4 C 0.7239(9) 0.8492(11) 0.7640(13)
H7_4 H 0.7059 0.8752 0.7916
C44_4 C 0.8217(8) 0.9879(10) 0.0849(13)
C45_4 C 0.7335(9) 0.7991(13) 0.5708(14)
C47_4 C 0.7539(10) 0.8567(12) 0.1592(18)
C51_4 C 0.7071(10) 0.7896(13) 0.4266(16)
C53_4 C 0.7022(10) 0.7681(12) 0.3450(15)
C56_4 C 0.7171(10) 0.8461(12) 0.6835(17)
C57_4 C 0.7835(9) 0.9120(9) 0.1445(14)
C58_4 C 0.7873(11) 0.9372(11) 0.0728(15)
H11_4 H 0.7701 0.9234 0.0241
C59_4 C 0.6969(11) 0.8360(12) 0.5381(16)
C60_4 C 0.6817(11) 0.8316(12) 0.4571(14)
H12_4 H 0.6562 0.8558 0.4274
loop_
_geom_bond_atom_site_label_1
_geom_bond_atom_site_label_2
_geom_bond_site_symmetry_1
_geom_bond_site_symmetry_2
S14 C48 1_555 1_555
S18 C5 1_555 1_555
O21 C38 1_555 1_555
C5 C48 1_555 1_555
O24 C38 1_555 1_555
C32 S18 1_555 1_555
C38 C32 1_555 1_555
C48 C50 1_555 1_555
C50 C32 1_555 1_555
H10 C50 1_555 1_555
C55 S14 1_555 1_555
Bi8 O21 1_555 1_555
Bi12 O21 1_555 1_555
O24 Bi12 1_555 1_555
Bi1 O1 1_555 1_555
S2 C22 1_555 1_555
S4 C1 1_555 1_555
S5 C24 1_555 1_555
S6 C4 1_555 1_555
S8 C7 1_555 1_555
S9 C13 1_555 1_555
S10 C31 1_555 1_555
S11 C35 1_555 1_555
S12 C45 1_555 1_555
S17 C56 1_555 1_555
O1 C36 1_555 1_555
O3 Bi1 1_555 1_555
O7 Bi1 1_555 1_555
O9 Bi1 1_555 1_555
O11 C47 1_555 1_555
O12 C53 1_555 1_555
O16 Bi1 1_555 1_555
C1 C7 1_555 1_555
O20 C53 1_555 1_555
C4 C13 1_555 1_555
O22 Bi1 1_555 1_555
O23 C47 1_555 1_555
C6 O3 1_555 1_555
C7 C28 1_555 1_555
C11 O4 1_555 1_555
C13 C42 1_555 1_555
C14 S4 1_555 1_555
C22 C1 1_555 1_555
C24 C4 1_555 1_555
C27 H3 1_555 1_555
C28 C14 1_555 1_555
H4 C28 1_555 1_555
C29 C24 1_555 1_555
H5 C29 1_555 1_555
C31 C45 1_555 1_555
C33 S6 1_555 1_555
C34 S10 1_555 1_555
C35 C27 1_555 1_555
C36 O16 1_555 1_555
C37 C34 1_555 1_555
H7 C37 1_555 1_555
C39 H8 1_555 1_555
C42 S5 1_555 1_555
C43 O7 1_555 1_555
C44 S8 1_555 1_555
C45 C59 1_555 1_555
C47 C57 1_555 1_555
C51 S12 1_555 1_555
C52 S11 1_555 1_555
C53 C51 1_555 1_555
C54 S9 1_555 1_555
C56 C31 1_555 1_555
C57 S2 1_555 1_555
C58 C44 1_555 1_555
H11 C58 1_555 1_555
C59 S17 1_555 1_555
C60 C51 1_555 1_555
H12 C60 1_555 1_555
Bi6 O20 1_555 1_555
Bi8 O11 1_555 1_555
Bi12 O11 1_555 1_555
O27 Bi1 1_555 1_555
O28 Bi1 1_555 1_555
O33 Bi1 1_555 1_555
O9 C6 1_555 1_555
O18 C11 1_555 1_555
O20 Bi12 1_555 1_555
O22 C43 1_555 1_555
O23 Bi12 1_555 1_555
C6 C14 1_555 1_555
C11 C34 1_555 1_555
C12 C33 1_555 1_555
C22 C44 1_555 1_555
C29 C33 1_555 1_555
C35 C36 1_555 1_555
C37 C56 1_555 1_555
C39 C42 1_555 1_555
C39 C54 1_555 1_555
C43 C54 1_555 1_555
C57 C58 1_555 1_555
C59 C60 1_555 1_555
Bi8 O2 1_555 1_555
Bi3 O5 1_555 1_555
S3 C10 1_555 1_555
S13 C25 1_555 1_555
S15 C21 1_555 1_555
S16 C9 1_555 1_555
O2 C2 1_555 1_555
O28 Bi3 1_555 1_555
O13 Bi3 1_555 1_555
O14 Bi3 1_555 1_555
O15 Bi8 1_555 1_555
O17 Bi8 1_555 1_555
C2 O17 1_555 1_555
O19 Bi8 1_555 1_555
C9 C21 1_555 1_555
C10 C2 1_555 1_555
C15 H1 1_555 1_555
C17 O28 1_555 1_555
C18 S3 1_555 1_555
C19 S16 1_555 1_555
C21 C49 1_555 1_555
C23 C10 1_555 1_555
H2 C23 1_555 1_555
C25 C15 1_555 1_555
C26 S13 1_555 1_555
C40 O15 1_555 1_555
C46 S15 1_555 1_555
C49 C19 1_555 1_555
H9 C49 1_555 1_555
Bi9 O5 1_555 1_555
O25 Bi8 1_555 1_555
O27 Bi3 1_555 1_555
O29 Bi3 1_555 1_555
O31 Bi3 1_555 1_555
O33 Bi3 1_555 1_555
O35 Bi3 1_555 1_555
O36 Bi3 1_555 1_555
O37 Bi3 1_555 1_555
O14 C17 1_555 1_555
O19 C40 1_555 1_555
C9 C26 1_555 1_555
C15 C46 1_555 1_555
C17 C19 1_555 1_555
C25 C40 1_555 1_555
C26 C46 1_555 1_555
Bi9 O31 1_555 1_555
Bi9 O35 1_555 1_555
S1 C20 1_555 1_555
S7 C3 1_555 1_555
O27 C8 1_555 1_555
O29 C8 1_555 1_555
C3 C20 1_555 1_555
C8 C41 1_555 1_555
C16 S7 1_555 1_555
C30 C3 1_555 1_555
H6 C30 1_555 1_555
C41 S1 1_555 1_555
C30 C41 1_555 1_555
S4_2 C1_2 1_555 1_555
S8_2 C7_2 1_555 1_555
S11_2 C35_2 1_555 1_555
S14_2 C48_2 1_555 1_555
S18_2 C5_2 1_555 1_555
C1_2 C7_2 1_555 1_555
O35 C38_2 1_555 1_555
C5_2 C48_2 1_555 1_555
C7_2 C28_2 1_555 1_555
C14_2 S4_2 1_555 1_555
O37 C38_2 1_555 1_555
C28_2 C14_2 1_555 1_555
H4_2 C28_2 1_555 1_555
C32_2 S18_2 1_555 1_555
C38_2 C32_2 1_555 1_555
C48_2 C50_2 1_555 1_555
C50_2 C32_2 1_555 1_555
H10_2 C50_2 1_555 1_555
C52_2 S11_2 1_555 1_555
C55_2 S14_2 1_555 1_555
C5_2 C52_2 1_555 1_555
C6_2 C14_2 1_555 1_555
C52_2 C55_2 1_555 1_555
S2_2 C22_2 1_555 1_555
S10_2 C31_2 1_555 1_555
S12_2 C45_2 1_555 1_555
S17_2 C56_2 1_555 1_555
O31 C47_2 1_555 1_555
O12_2 C53_2 1_555 1_555
O33 C53_2 1_555 1_555
O36 C47_2 1_555 1_555
C11_2 O4_2 1_555 1_555
C31_2 C45_2 1_555 1_555
C34_2 S10_2 1_555 1_555
C37_2 C34_2 1_555 1_555
H7_2 C37_2 1_555 1_555
C45_2 C59_2 1_555 1_555
C47_2 C57_2 1_555 1_555
C51_2 S12_2 1_555 1_555
C53_2 C51_2 1_555 1_555
C56_2 C31_2 1_555 1_555
C57_2 S2_2 1_555 1_555
C58_2 C44_2 1_555 1_555
H11_2 C58_2 1_555 1_555
C59_2 S17_2 1_555 1_555
C60_2 C51_2 1_555 1_555
H12_2 C60_2 1_555 1_555
O18_2 C11_2 1_555 1_555
C11_2 C34_2 1_555 1_555
C22_2 C44_2 1_555 1_555
C37_2 C56_2 1_555 1_555
C57_2 C58_2 1_555 1_555
C59_2 C60_2 1_555 1_555
Bi9 O2_2 1_555 1_555
S3_2 C10_2 1_555 1_555
S7_2 C3_2 1_555 1_555
S13_2 C25_2 1_555 1_555
O2_2 C2_2 1_555 1_555
O15_2 Bi9 1_555 1_555
O17_2 Bi9 1_555 1_555
C2_2 O17_2 1_555 1_555
O19_2 Bi9 1_555 1_555
C3_2 C20_2 1_555 1_555
C10_2 C2_2 1_555 1_555
C15_2 H1_2 1_555 1_555
C16_2 S7_2 1_555 1_555
C18_2 S3_2 1_555 1_555
C20_2 C18_2 1_555 1_555
C23_2 C10_2 1_555 1_555
H2_2 C23_2 1_555 1_555
C25_2 C15_2 1_555 1_555
C26_2 S13_2 1_555 1_555
C30_2 C3_2 1_555 1_555
H6_2 C30_2 1_555 1_555
C40_2 O15_2 1_555 1_555
O19_2 C40_2 1_555 1_555
C15_2 C46_2 1_555 1_555
C16_2 C18_2 1_555 1_555
C16_2 C23_2 1_555 1_555
C25_2 C40_2 1_555 1_555
C26_2 C46_2 1_555 1_555
S5_2 C24_2 1_555 1_555
S6_2 C4_2 1_555 1_555
S9_2 C13_2 1_555 1_555
O3_2 Bi6 1_555 1_555
O7_2 Bi6 1_555 1_555
O9_2 Bi6 1_555 1_555
O16_2 Bi6 1_555 1_555
C4_2 C13_2 1_555 1_555
O22_2 Bi6 1_555 1_555
C13_2 C42_2 1_555 1_555
C24_2 C4_2 1_555 1_555
C27_2 H3_2 1_555 1_555
C29_2 C24_2 1_555 1_555
H5_2 C29_2 1_555 1_555
C33_2 S6_2 1_555 1_555
C36_2 O16_2 1_555 1_555
C39_2 H8_2 1_555 1_555
C42_2 S5_2 1_555 1_555
C43_2 O7_2 1_555 1_555
C54_2 S9_2 1_555 1_555
O27_2 Bi6 1_555 1_555
O28_2 Bi6 1_555 1_555
O22_2 C43_2 1_555 1_555
C12_2 C33_2 1_555 1_555
C29_2 C33_2 1_555 1_555
C39_2 C42_2 1_555 1_555
C39_2 C54_2 1_555 1_555
C43_2 C54_2 1_555 1_555
Bi12 O25 1_555 1_555
S16_2 C9_2 1_555 1_555
O28_2 Bi12 1_555 1_555
O13_2 Bi12 1_555 1_555
O14_2 Bi12 1_555 1_555
C9_2 C21_2 1_555 1_555
C17_2 O28_2 1_555 1_555
C19_2 S16_2 1_555 1_555
C21_2 C49_2 1_555 1_555
C49_2 C19_2 1_555 1_555
H9_2 C49_2 1_555 1_555
O27_2 Bi12 1_555 1_555
O29_2 Bi12 1_555 1_555
O14_2 C17_2 1_555 1_555
C17_2 C19_2 1_555 1_555
O27_2 C8_2 1_555 1_555
O29_2 C8_2 1_555 1_555
C8_2 C41_2 1_555 1_555
C41_2 S1_2 1_555 1_555
S14_3 C48_3 1_555 1_555
S18_3 C5_3 1_555 1_555
O21_2 C38_3 1_555 1_555
C5_3 C48_3 1_555 1_555
O24_2 C38_3 1_555 1_555
C32_3 S18_3 1_555 1_555
C38_3 C32_3 1_555 1_555
C48_3 C50_3 1_555 1_555
C50_3 C32_3 1_555 1_555
H10_3 C50_3 1_555 1_555
C55_3 S14_3 1_555 1_555
Bi8_2 O21_2 1_555 1_555
Bi12_2 O21_2 1_555 1_555
O24_2 Bi12_2 1_555 1_555
Bi8_2 O2_3 1_555 1_555
Bi3_2 O5_2 1_555 1_555
S3_3 C10_3 1_555 1_555
S13_3 C25_3 1_555 1_555
S15_3 C21_3 1_555 1_555
S16_3 C9_3 1_555 1_555
O2_3 C2_3 1_555 1_555
O8 Bi3_2 1_555 1_555
O13_3 Bi3_2 1_555 1_555
O14_3 Bi3_2 1_555 1_555
O15_3 Bi8_2 1_555 1_555
O17_3 Bi8_2 1_555 1_555
C2_3 O17_3 1_555 1_555
O19_3 Bi8_2 1_555 1_555
C9_3 C21_3 1_555 1_555
C10_3 C2_3 1_555 1_555
C15_3 H1_3 1_555 1_555
C17_3 O8 1_555 1_555
C18_3 S3_3 1_555 1_555
C19_3 S16_3 1_555 1_555
C21_3 C49_3 1_555 1_555
C23_3 C10_3 1_555 1_555
H2_3 C23_3 1_555 1_555
C25_3 C15_3 1_555 1_555
C26_3 S13_3 1_555 1_555
C40_3 O15_3 1_555 1_555
C46_3 S15_3 1_555 1_555
C49_3 C19_3 1_555 1_555
H9_3 C49_3 1_555 1_555
Bi5 O8 1_555 1_555
Bi9_2 O5_2 1_555 1_555
O25_2 Bi8_2 1_555 1_555
O26 Bi3_2 1_555 1_555
O29_3 Bi3_2 1_555 1_555
O30 Bi8_2 1_555 1_555
O31_2 Bi3_2 1_555 1_555
O32 Bi3_2 1_555 1_555
O35_2 Bi3_2 1_555 1_555
O36_2 Bi3_2 1_555 1_555
O37_2 Bi3_2 1_555 1_555
O14_3 C17_3 1_555 1_555
O19_3 C40_3 1_555 1_555
C9_3 C26_3 1_555 1_555
C15_3 C46_3 1_555 1_555
C17_3 C19_3 1_555 1_555
C25_3 C40_3 1_555 1_555
C26_3 C46_3 1_555 1_555
Bi5 O26 1_555 1_555
Bi5 O32 1_555 1_555
Bi9_2 O31_2 1_555 1_555
Bi9_2 O35_2 1_555 1_555
Bi5 O1_3 1_555 1_555
S2_3 C22_3 1_555 1_555
S4_3 C1_3 1_555 1_555
S5_3 C24_3 1_555 1_555
S6_3 C4_3 1_555 1_555
S8_3 C7_3 1_555 1_555
S9_3 C13_3 1_555 1_555
S10_3 C31_3 1_555 1_555
S11_3 C35_3 1_555 1_555
S12_3 C45_3 1_555 1_555
S17_3 C56_3 1_555 1_555
O1_3 C36_3 1_555 1_555
O3_3 Bi5 1_555 1_555
O7_3 Bi5 1_555 1_555
O9_3 Bi5 1_555 1_555
O30 C47_3 1_555 1_555
O12_3 C53_3 1_555 1_555
O16_3 Bi5 1_555 1_555
C1_3 C7_3 1_555 1_555
O20_2 C53_3 1_555 1_555
C4_3 C13_3 1_555 1_555
O22_3 Bi5 1_555 1_555
O23_2 C47_3 1_555 1_555
C6_3 O3_3 1_555 1_555
C7_3 C28_3 1_555 1_555
C11_3 O4_3 1_555 1_555
C13_3 C42_3 1_555 1_555
C14_3 S4_3 1_555 1_555
C22_3 C1_3 1_555 1_555
C24_3 C4_3 1_555 1_555
C27_3 H3_3 1_555 1_555
C28_3 C14_3 1_555 1_555
H4_3 C28_3 1_555 1_555
C29_3 C24_3 1_555 1_555
H5_3 C29_3 1_555 1_555
C31_3 C45_3 1_555 1_555
C33_3 S6_3 1_555 1_555
C34_3 S10_3 1_555 1_555
C35_3 C27_3 1_555 1_555
C36_3 O16_3 1_555 1_555
C37_3 C34_3 1_555 1_555
H7_3 C37_3 1_555 1_555
C39_3 H8_3 1_555 1_555
C42_3 S5_3 1_555 1_555
C43_3 O7_3 1_555 1_555
C44_3 S8_3 1_555 1_555
C45_3 C59_3 1_555 1_555
C47_3 C57_3 1_555 1_555
C51_3 S12_3 1_555 1_555
C52_3 S11_3 1_555 1_555
C53_3 C51_3 1_555 1_555
C54_3 S9_3 1_555 1_555
C56_3 C31_3 1_555 1_555
C57_3 S2_3 1_555 1_555
C58_3 C44_3 1_555 1_555
H11_3 C58_3 1_555 1_555
C59_3 S17_3 1_555 1_555
C60_3 C51_3 1_555 1_555
H12_3 C60_3 1_555 1_555
Bi6_2 O20_2 1_555 1_555
Bi12_2 O30 1_555 1_555
O9_3 C6_3 1_555 1_555
O18_3 C11_3 1_555 1_555
O20_2 Bi12_2 1_555 1_555
O22_3 C43_3 1_555 1_555
O23_2 Bi12_2 1_555 1_555
C6_3 C14_3 1_555 1_555
C11_3 C34_3 1_555 1_555
C12_3 C33_3 1_555 1_555
C22_3 C44_3 1_555 1_555
C29_3 C33_3 1_555 1_555
C35_3 C36_3 1_555 1_555
C37_3 C56_3 1_555 1_555
C39_3 C42_3 1_555 1_555
C39_3 C54_3 1_555 1_555
C43_3 C54_3 1_555 1_555
C57_3 C58_3 1_555 1_555
C59_3 C60_3 1_555 1_555
S1_3 C20_3 1_555 1_555
S7_3 C3_3 1_555 1_555
O26 C8_3 1_555 1_555
O29_3 C8_3 1_555 1_555
C3_3 C20_3 1_555 1_555
C8_3 C41_3 1_555 1_555
C16_3 S7_3 1_555 1_555
C30_3 C3_3 1_555 1_555
H6_3 C30_3 1_555 1_555
C41_3 S1_3 1_555 1_555
C30_3 C41_3 1_555 1_555
Bi12_2 O25_2 1_555 1_555
S16_4 C9_4 1_555 1_555
O8_2 Bi12_2 1_555 1_555
O13_4 Bi12_2 1_555 1_555
O14_4 Bi12_2 1_555 1_555
C9_4 C21_4 1_555 1_555
C17_4 O8_2 1_555 1_555
C19_4 S16_4 1_555 1_555
C21_4 C49_4 1_555 1_555
C49_4 C19_4 1_555 1_555
H9_4 C49_4 1_555 1_555
Bi6_2 O8_2 1_555 1_555
O26_2 Bi12_2 1_555 1_555
O29_4 Bi12_2 1_555 1_555
O14_4 C17_4 1_555 1_555
C17_4 C19_4 1_555 1_555
Bi6_2 O26_2 1_555 1_555
S5_4 C24_4 1_555 1_555
S6_4 C4_4 1_555 1_555
S9_4 C13_4 1_555 1_555
O3_4 Bi6_2 1_555 1_555
O7_4 Bi6_2 1_555 1_555
O9_4 Bi6_2 1_555 1_555
O16_4 Bi6_2 1_555 1_555
C4_4 C13_4 1_555 1_555
O22_4 Bi6_2 1_555 1_555
C13_4 C42_4 1_555 1_555
C24_4 C4_4 1_555 1_555
C27_4 H3_4 1_555 1_555
C29_4 C24_4 1_555 1_555
H5_4 C29_4 1_555 1_555
C33_4 S6_4 1_555 1_555
C36_4 O16_4 1_555 1_555
C39_4 H8_4 1_555 1_555
C42_4 S5_4 1_555 1_555
C43_4 O7_4 1_555 1_555
C54_4 S9_4 1_555 1_555
O22_4 C43_4 1_555 1_555
C12_4 C33_4 1_555 1_555
C29_4 C33_4 1_555 1_555
C39_4 C42_4 1_555 1_555
C39_4 C54_4 1_555 1_555
C43_4 C54_4 1_555 1_555
O26_2 C8_4 1_555 1_555
O29_4 C8_4 1_555 1_555
C8_4 C41_4 1_555 1_555
C41_4 S1_4 1_555 1_555
S4_4 C1_4 1_555 1_555
S8_4 C7_4 1_555 1_555
S11_4 C35_4 1_555 1_555
S14_4 C48_4 1_555 1_555
S18_4 C5_4 1_555 1_555
C1_4 C7_4 1_555 1_555
O35_2 C38_4 1_555 1_555
C5_4 C48_4 1_555 1_555
C7_4 C28_4 1_555 1_555
C14_4 S4_4 1_555 1_555
O37_2 C38_4 1_555 1_555
C28_4 C14_4 1_555 1_555
H4_4 C28_4 1_555 1_555
C32_4 S18_4 1_555 1_555
C38_4 C32_4 1_555 1_555
C48_4 C50_4 1_555 1_555
C50_4 C32_4 1_555 1_555
H10_4 C50_4 1_555 1_555
C52_4 S11_4 1_555 1_555
C55_4 S14_4 1_555 1_555
C5_4 C52_4 1_555 1_555
C6_4 C14_4 1_555 1_555
C52_4 C55_4 1_555 1_555
Bi9_2 O2_4 1_555 1_555
S3_4 C10_4 1_555 1_555
S7_4 C3_4 1_555 1_555
S13_4 C25_4 1_555 1_555
O2_4 C2_4 1_555 1_555
O15_4 Bi9_2 1_555 1_555
O17_4 Bi9_2 1_555 1_555
C2_4 O17_4 1_555 1_555
O19_4 Bi9_2 1_555 1_555
C3_4 C20_4 1_555 1_555
C10_4 C2_4 1_555 1_555
C15_4 H1_4 1_555 1_555
C16_4 S7_4 1_555 1_555
C18_4 S3_4 1_555 1_555
C20_4 C18_4 1_555 1_555
C23_4 C10_4 1_555 1_555
H2_4 C23_4 1_555 1_555
C25_4 C15_4 1_555 1_555
C26_4 S13_4 1_555 1_555
C30_4 C3_4 1_555 1_555
H6_4 C30_4 1_555 1_555
C40_4 O15_4 1_555 1_555
O19_4 C40_4 1_555 1_555
C15_4 C46_4 1_555 1_555
C16_4 C18_4 1_555 1_555
C16_4 C23_4 1_555 1_555
C25_4 C40_4 1_555 1_555
C26_4 C46_4 1_555 1_555
S2_4 C22_4 1_555 1_555
S10_4 C31_4 1_555 1_555
S12_4 C45_4 1_555 1_555
S17_4 C56_4 1_555 1_555
O31_2 C47_4 1_555 1_555
O12_4 C53_4 1_555 1_555
O32 C53_4 1_555 1_555
O36_2 C47_4 1_555 1_555
C11_4 O4_4 1_555 1_555
C31_4 C45_4 1_555 1_555
C34_4 S10_4 1_555 1_555
C37_4 C34_4 1_555 1_555
H7_4 C37_4 1_555 1_555
C45_4 C59_4 1_555 1_555
C47_4 C57_4 1_555 1_555
C51_4 S12_4 1_555 1_555
C53_4 C51_4 1_555 1_555
C56_4 C31_4 1_555 1_555
C57_4 S2_4 1_555 1_555
C58_4 C44_4 1_555 1_555
H11_4 C58_4 1_555 1_555
C59_4 S17_4 1_555 1_555
C60_4 C51_4 1_555 1_555
H12_4 C60_4 1_555 1_555
O18_4 C11_4 1_555 1_555
C11_4 C34_4 1_555 1_555
C22_4 C44_4 1_555 1_555
C37_4 C56_4 1_555 1_555
C57_4 C58_4 1_555 1_555
C59_4 C60_4 1_555 1_555

#END
