
###############################################################################
#
# This file contains modified crystal structure data generated from the
# MOF subset of the Cambridge Structural Database (CSD) v543 
# hosted by the Cambridge Crystallographic Data Centre (CCDC).
#
# This work is licensed under the Creative Commons
# Attribution-NonCommercial-ShareAlike 4.0 International License.
# To view a copy of this license, visit
# http://creativecommons.org/licenses/by-nc-sa/4.0/
# or send a letter to
# Creative Commons, PO Box 1866, Mountain View, CA 94042, USA.
#
# CIF created using the CSD Python API on 29 September 2022
# The structure has been converted into the P1 space group
# The structure has a 3D framework
# The original CSD entry JUCGUL is in the triclinic crystal system
# The framework has been calculated to contain at least 10.0% void space
# The void calculation uses a probe of radius 1.32A, grid spacing 0.4
#
###############################################################################

data_JUCGUL
_chemical_formula_moiety         '(C54 H34 N2 O7 Zn2)n'
_symmetry_cell_setting           triclinic
_symmetry_space_group_name_H-M   'P 1'
_symmetry_Int_Tables_number      1
_space_group_name_Hall           'P 1'
loop_
_symmetry_equiv_pos_site_id
_symmetry_equiv_pos_as_xyz
1 x,y,z
_cell_length_a                   9.8824(7)
_cell_length_b                   11.5480(8)
_cell_length_c                   15.6480(11)
_cell_angle_alpha                89.784(3)
_cell_angle_beta                 76.441(3)
_cell_angle_gamma                75.603(3)
_cell_volume                     1678.67
loop_
_atom_site_label
_atom_site_type_symbol
_atom_site_fract_x
_atom_site_fract_y
_atom_site_fract_z
_atom_site_U_iso_or_equiv
_atom_site_thermal_displace_type
N2 N 0.63442(16) 0.03636(13) 0.08870(9) 0.0147 Uani
C47 C 0.3802(2) 0.01837(18) 0.20764(12) 0.0199 Uani
C48 C 0.2551(2) 0.00023(18) 0.27294(13) 0.0231 Uani
C49 C 0.4430(2) 0.11171(17) 0.21598(13) 0.0214 Uani
H30 H 0.4007 0.1702 0.2617 0.0260 Uiso
C50 C 0.5682(2) 0.11730(16) 0.15620(12) 0.0189 Uani
H31 H 0.6086 0.1803 0.1631 0.0230 Uiso
C51 C 0.2171(2) 0.04606(17) 0.35583(12) 0.0196 Uani
H32 H 0.2678 0.0985 0.3694 0.0240 Uiso
C52 C 0.10403(19) 0.02269(16) 0.42772(12) 0.0180 Uani
C53 C 0.0979(2) 0.06047(17) 0.51398(12) 0.0203 Uani
H33 H 0.1636 0.1014 0.5235 0.0240 Uiso
Zn9 Zn 0.84035(2) 0.02646(2) 0.02325(2) 0.0093 Uani
C45 C 0.5714(2) 0.9490(2) 0.07818(13) 0.0267 Uani
H27 H 0.6144 0.8932 0.0308 0.0320 Uiso
C46 C 0.4451(2) 0.9380(2) 0.13465(14) 0.0304 Uani
H28 H 0.4036 0.8772 0.1240 0.0360 Uiso
H29 H 0.1996 0.9546 0.2558 0.0280 Uiso
C54 C 0.0035(2) 0.96180(18) 0.41492(12) 0.0213 Uani
H34 H 0.0050 0.9363 0.3583 0.0260 Uiso
O2 O 0.92141(16) 0.89373(13) 0.09997(9) 0.0290 Uani
O3 O 0.88267(14) 0.14338(13) 0.10536(9) 0.0220 Uani
C2 C 0.99358(19) 0.23526(15) 0.19481(11) 0.0144 Uani
C5 C 0.9878(2) 0.37474(15) 0.34192(11) 0.0148 Uani
C6 C 0.8750(2) 0.32375(18) 0.34075(12) 0.0233 Uani
H3 H 0.7976 0.3351 0.3897 0.0280 Uiso
C7 C 0.8764(2) 0.25591(18) 0.26709(12) 0.0220 Uani
H4 H 0.7987 0.2244 0.2663 0.0260 Uiso
C8 C 0.99040(19) 0.44284(15) 0.42264(11) 0.0146 Uani
C21 C 0.9075(2) 0.7434(2) 0.23728(14) 0.0313 Uani
H12 H 0.8236 0.7766 0.2192 0.0380 Uiso
C22 C 0.9026(2) 0.6728(2) 0.30963(14) 0.0309 Uani
H13 H 0.8161 0.6570 0.3386 0.0370 Uiso
O5 O 0.83975(16) 0.14349(13) 0.92657(9) 0.0240 Uani
O8 O 0.87648(14) 0.89425(12) 0.92928(9) 0.0211 Uani
C28 C 0.99978(19) 0.84458(15) 0.88268(11) 0.0136 Uani
C30 C 0.89232(19) 0.71501(16) 0.80400(11) 0.0164 Uani
H18 H 0.8132 0.7290 0.8521 0.0200 Uiso
C31 C 0.8958(2) 0.64457(16) 0.73149(12) 0.0170 Uani
H19 H 0.8201 0.6100 0.7318 0.0200 Uiso
C36 C 0.9734(2) 0.38837(15) 0.50309(11) 0.0157 Uani
H22 H 0.9547 0.3132 0.5054 0.0190 Uiso
C37 C 0.98348(19) 0.44290(15) 0.58009(11) 0.0143 Uani
C38 C 0.97472(19) 0.37376(15) 0.66157(10) 0.0139 Uani
C39 C 0.8459(2) 0.35293(19) 0.70698(13) 0.0253 Uani
H23 H 0.7625 0.3844 0.6880 0.0300 Uiso
C40 C 0.9604(2) 0.15571(15) 0.88430(11) 0.0170 Uani
C41 C 0.9633(2) 0.23535(15) 0.80807(11) 0.0158 Uani
C44 C 0.8399(2) 0.28554(18) 0.78064(13) 0.0232 Uani
H26 H 0.7522 0.2741 0.8117 0.0280 Uiso
O13 O 0.12352(14) 0.10575(12) 0.07072(9) 0.0211 Uani
C11 C 0.4286(2) 0.0510(2) 0.92182(13) 0.0267 Uani
H6 H 0.3856 0.1068 0.9692 0.0320 Uiso
C12 C 0.5549(2) 0.0620(2) 0.86535(14) 0.0304 Uani
H7 H 0.5964 0.1228 0.8760 0.0360 Uiso
H8 H 0.8004 0.0454 0.7442 0.0280 Uiso
C27 C 0.9965(2) 0.03820(18) 0.58508(12) 0.0213 Uani
H17 H 0.9950 0.0637 0.6417 0.0260 Uiso
O11 O 0.07859(16) 0.10627(13) 0.90003(9) 0.0290 Uani
O1 O 0.16025(16) 0.85651(13) 0.07343(9) 0.0240 Uani
C1 C 0.00022(19) 0.15542(15) 0.11732(11) 0.0136 Uani
C3 C 0.10768(19) 0.28499(16) 0.19600(11) 0.0164 Uani
H1 H 0.1868 0.2710 0.1479 0.0200 Uiso
C4 C 0.1042(2) 0.35543(16) 0.26851(12) 0.0170 Uani
H2 H 0.1799 0.3900 0.2682 0.0200 Uiso
C9 C 0.0266(2) 0.61163(15) 0.49691(11) 0.0157 Uani
H5 H 0.0453 0.6868 0.4946 0.0190 Uiso
C10 C 0.01652(19) 0.55710(15) 0.41991(11) 0.0143 Uani
C17 C 0.02528(19) 0.62624(15) 0.33843(10) 0.0139 Uani
C18 C 0.1541(2) 0.64707(19) 0.29302(13) 0.0253 Uani
H11 H 0.2375 0.6156 0.3120 0.0300 Uiso
C19 C 0.0396(2) 0.84429(15) 0.11570(11) 0.0170 Uani
C20 C 0.0367(2) 0.76465(15) 0.19193(11) 0.0158 Uani
C23 C 0.1601(2) 0.71446(18) 0.21936(13) 0.0232 Uani
H14 H 0.2478 0.7259 0.1883 0.0280 Uiso
O7 O 0.11733(14) 0.85662(13) 0.89464(9) 0.0220 Uani
C29 C 0.00642(19) 0.76474(15) 0.80519(11) 0.0144 Uani
C32 C 0.0122(2) 0.62526(15) 0.65808(11) 0.0148 Uani
C33 C 0.1250(2) 0.67625(18) 0.65925(12) 0.0233 Uani
H20 H 0.2024 0.6649 0.6103 0.0280 Uiso
C34 C 0.1236(2) 0.74409(18) 0.73291(12) 0.0220 Uani
H21 H 0.2013 0.7756 0.7337 0.0260 Uiso
C35 C 0.00960(19) 0.55716(15) 0.57736(11) 0.0146 Uani
C42 C 0.0925(2) 0.2566(2) 0.76272(14) 0.0313 Uani
H24 H 0.1764 0.2234 0.7808 0.0380 Uiso
C43 C 0.0974(2) 0.3272(2) 0.69037(14) 0.0309 Uani
H25 H 0.1839 0.3430 0.6614 0.0370 Uiso
Zn5 Zn 0.15965(2) 0.97354(2) 0.97675(2) 0.0093 Uani
N1 N 0.36558(16) 0.96364(13) 0.91130(9) 0.0147 Uani
C13 C 0.6198(2) 0.98163(18) 0.79236(12) 0.0199 Uani
C14 C 0.7449(2) 0.99977(18) 0.72706(13) 0.0231 Uani
C15 C 0.5570(2) 0.88829(17) 0.78402(13) 0.0214 Uani
H9 H 0.5993 0.8298 0.7383 0.0260 Uiso
C16 C 0.4318(2) 0.88270(16) 0.84380(12) 0.0189 Uani
H10 H 0.3914 0.8197 0.8369 0.0230 Uiso
C24 C 0.7829(2) 0.95394(17) 0.64417(12) 0.0196 Uani
H15 H 0.7322 0.9015 0.6306 0.0240 Uiso
C25 C 0.89597(19) 0.97731(16) 0.57228(12) 0.0180 Uani
C26 C 0.9021(2) 0.93953(17) 0.48602(12) 0.0203 Uani
H16 H 0.8364 0.8986 0.4765 0.0240 Uiso
loop_
_atom_site_aniso_label
_atom_site_aniso_U_11
_atom_site_aniso_U_22
_atom_site_aniso_U_33
_atom_site_aniso_U_23
_atom_site_aniso_U_13
_atom_site_aniso_U_12
N2 0.0138 0.0185 0.0122 0.0011 -0.0015 -0.0063
C47 0.0154 0.0283 0.0154 0.0016 0.0002 -0.0083
C48 0.0184 0.0304 0.0211 0 0.0017 -0.0135
C49 0.0192 0.021 0.0196 -0.003 0.0047 -0.0061
C50 0.0171 0.0172 0.0205 -0.0015 0.0016 -0.0067
C51 0.0164 0.0216 0.0201 0.0027 0 -0.0078
C52 0.0152 0.0188 0.017 0.0021 0.0011 -0.0036
C53 0.0169 0.0231 0.0208 0.0007 -0.0001 -0.009
Zn9 0.01107 0.01078 0.00665 0.00091 -0.00136 -0.00437
C45 0.0266 0.037 0.0178 -0.0112 0.005 -0.0201
C46 0.0295 0.0426 0.0229 -0.0097 0.0049 -0.0265
C54 0.0195 0.0282 0.0154 -0.0005 0.0008 -0.0094
O2 0.0301 0.0308 0.021 0.0161 -0.0055 0.0006
O3 0.0212 0.0305 0.017 -0.009 -0.0022 -0.0134
C2 0.02 0.014 0.0103 -0.001 -0.005 -0.0052
C5 0.0251 0.0108 0.0101 0.0019 -0.0063 -0.0056
C6 0.028 0.0308 0.0112 -0.0057 0.0027 -0.0148
C7 0.0241 0.0286 0.0163 -0.0053 -0.0016 -0.0151
C8 0.0225 0.0133 0.0097 0.0004 -0.0057 -0.0058
C21 0.0213 0.0447 0.028 0.0232 -0.0092 -0.0059
C22 0.0227 0.043 0.0247 0.0211 -0.0019 -0.008
O5 0.0327 0.028 0.0194 0.0147 -0.0114 -0.0182
O8 0.0201 0.0218 0.0202 -0.0099 -0.0052 -0.0028
C28 0.0211 0.012 0.0088 0.0011 -0.0036 -0.0061
C30 0.0184 0.0183 0.0122 -0.0022 -0.0017 -0.0058
C31 0.0211 0.0181 0.0149 -0.0006 -0.0059 -0.0093
C36 0.0267 0.0106 0.0124 0.0024 -0.0069 -0.0075
C37 0.0217 0.0134 0.009 0.0028 -0.0048 -0.0055
C38 0.0239 0.0118 0.0076 -0.0008 -0.0036 -0.0075
C39 0.0244 0.0329 0.0261 0.0177 -0.0147 -0.0129
C40 0.0295 0.0124 0.0104 0.0018 -0.0061 -0.0064
C41 0.0253 0.0132 0.0101 0.003 -0.0055 -0.0058
C44 0.0215 0.0291 0.0234 0.014 -0.0075 -0.0127
O13 0.0201 0.0218 0.0202 -0.0099 -0.0052 -0.0028
C11 0.0266 0.037 0.0178 -0.0112 0.005 -0.0201
C12 0.0295 0.0426 0.0229 -0.0097 0.0049 -0.0265
C27 0.0195 0.0282 0.0154 -0.0005 0.0008 -0.0094
O11 0.0301 0.0308 0.021 0.0161 -0.0055 0.0006
O1 0.0327 0.028 0.0194 0.0147 -0.0114 -0.0182
C1 0.0211 0.012 0.0088 0.0011 -0.0036 -0.0061
C3 0.0184 0.0183 0.0122 -0.0022 -0.0017 -0.0058
C4 0.0211 0.0181 0.0149 -0.0006 -0.0059 -0.0093
C9 0.0267 0.0106 0.0124 0.0024 -0.0069 -0.0075
C10 0.0217 0.0134 0.009 0.0028 -0.0048 -0.0055
C17 0.0239 0.0118 0.0076 -0.0008 -0.0036 -0.0075
C18 0.0244 0.0329 0.0261 0.0177 -0.0147 -0.0129
C19 0.0295 0.0124 0.0104 0.0018 -0.0061 -0.0064
C20 0.0253 0.0132 0.0101 0.003 -0.0055 -0.0058
C23 0.0215 0.0291 0.0234 0.014 -0.0075 -0.0127
O7 0.0212 0.0305 0.017 -0.009 -0.0022 -0.0134
C29 0.02 0.014 0.0103 -0.001 -0.005 -0.0052
C32 0.0251 0.0108 0.0101 0.0019 -0.0063 -0.0056
C33 0.028 0.0308 0.0112 -0.0057 0.0027 -0.0148
C34 0.0241 0.0286 0.0163 -0.0053 -0.0016 -0.0151
C35 0.0225 0.0133 0.0097 0.0004 -0.0057 -0.0058
C42 0.0213 0.0447 0.028 0.0232 -0.0092 -0.0059
C43 0.0227 0.043 0.0247 0.0211 -0.0019 -0.008
Zn5 0.01107 0.01078 0.00665 0.00091 -0.00136 -0.00437
N1 0.0138 0.0185 0.0122 0.0011 -0.0015 -0.0063
C13 0.0154 0.0283 0.0154 0.0016 0.0002 -0.0083
C14 0.0184 0.0304 0.0211 0 0.0017 -0.0135
C15 0.0192 0.021 0.0196 -0.003 0.0047 -0.0061
C16 0.0171 0.0172 0.0205 -0.0015 0.0016 -0.0067
C24 0.0164 0.0216 0.0201 0.0027 0 -0.0078
C25 0.0152 0.0188 0.017 0.0021 0.0011 -0.0036
C26 0.0169 0.0231 0.0208 0.0007 -0.0001 -0.009
loop_
_geom_bond_atom_site_label_1
_geom_bond_atom_site_label_2
_geom_bond_site_symmetry_1
_geom_bond_site_symmetry_2
C48 C47 1_555 1_555
C49 C47 1_555 1_555
H30 C49 1_555 1_555
C50 N2 1_555 1_555
H31 C50 1_555 1_555
C51 C48 1_555 1_555
H32 C51 1_555 1_555
C52 C51 1_555 1_555
H33 C53 1_555 1_555
Zn9 N2 1_555 1_555
C49 C50 1_555 1_555
C52 C53 1_555 1_555
C45 H27 1_555 1_555
C46 C45 1_555 1_555
H28 C46 1_555 1_555
H34 C54 1_555 1_555
C6 C5 1_555 1_555
H3 C6 1_555 1_555
C7 C2 1_555 1_555
H4 C7 1_555 1_555
C8 C5 1_555 1_555
C21 H12 1_555 1_555
H13 C22 1_555 1_555
O5 C40 1_555 1_555
O8 C28 1_555 1_555
C30 H18 1_555 1_555
C31 C30 1_555 1_555
H19 C31 1_555 1_555
C36 C8 1_555 1_555
H22 C36 1_555 1_555
C38 C37 1_555 1_555
C39 C38 1_555 1_555
H23 C39 1_555 1_555
C40 C41 1_555 1_555
C44 C39 1_555 1_555
H26 C44 1_555 1_555
Zn9 O3 1_555 1_555
C6 C7 1_555 1_555
C21 C22 1_555 1_555
C36 C37 1_555 1_555
C41 C44 1_555 1_555
H6 C11 1_555 1_555
C12 C11 1_555 1_555
H7 C12 1_555 1_555
H17 C27 1_555 1_555
O1 C19 1_555 1_555
O13 C1 1_555 1_555
C3 H1 1_555 1_555
C4 C3 1_555 1_555
H2 C4 1_555 1_555
C9 H5 1_555 1_555
C17 C10 1_555 1_555
C18 C17 1_555 1_555
H11 C18 1_555 1_555
C19 C20 1_555 1_555
C23 C18 1_555 1_555
H14 C23 1_555 1_555
C33 C32 1_555 1_555
H20 C33 1_555 1_555
C34 C29 1_555 1_555
H21 C34 1_555 1_555
C35 C9 1_555 1_555
C42 H24 1_555 1_555
H25 C43 1_555 1_555
Zn5 O7 1_555 1_555
C9 C10 1_555 1_555
C20 C23 1_555 1_555
C32 C35 1_555 1_555
C33 C34 1_555 1_555
C42 C43 1_555 1_555
N1 Zn5 1_555 1_555
C14 C13 1_555 1_555
C15 C13 1_555 1_555
H9 C15 1_555 1_555
C16 N1 1_555 1_555
H10 C16 1_555 1_555
C24 C14 1_555 1_555
H15 C24 1_555 1_555
C25 C24 1_555 1_555
C26 C25 1_555 1_555
H16 C26 1_555 1_555
C15 C16 1_555 1_555

#END
