
###############################################################################
#
# This file contains modified crystal structure data generated from the
# MOF subset of the Cambridge Structural Database (CSD) v543 
# hosted by the Cambridge Crystallographic Data Centre (CCDC).
#
# This work is licensed under the Creative Commons
# Attribution-NonCommercial-ShareAlike 4.0 International License.
# To view a copy of this license, visit
# http://creativecommons.org/licenses/by-nc-sa/4.0/
# or send a letter to
# Creative Commons, PO Box 1866, Mountain View, CA 94042, USA.
#
# CIF created using the CSD Python API on 29 September 2022
# The structure has been converted into the P1 space group
# The structure has a 3D framework
# The original CSD entry JUCYOY is in the monoclinic crystal system
# The framework has been calculated to contain at least 10.0% void space
# The void calculation uses a probe of radius 1.32A, grid spacing 0.4
# H atom positions have been added when not included in the experimental data
# Generated hydrogen atom positions removed from atoms on special positions
#
###############################################################################

data_JUCYOY
_chemical_formula_moiety         '(C96 H128 Mo24 N24 Ni29 O140)n'
_symmetry_cell_setting           triclinic
_symmetry_space_group_name_H-M   'P 1'
_symmetry_Int_Tables_number      1
_space_group_name_Hall           'P 1'
loop_
_symmetry_equiv_pos_site_id
_symmetry_equiv_pos_as_xyz
1 x,y,z
_cell_length_a                   25.692(9)
_cell_length_b                   9.778(5)
_cell_length_c                   24.373(5)
_cell_angle_alpha                90
_cell_angle_beta                 116.606(12)
_cell_angle_gamma                90
_cell_volume                     5474.53
loop_
_atom_site_label
_atom_site_type_symbol
_atom_site_fract_x
_atom_site_fract_y
_atom_site_fract_z
Ni1 Ni 0.21464(8) 0.2766(2) 0.11538(9)
O1 O 0.2471(5) 0.4554(11) 0.0953(5)
O2 O 0.1535(5) 0.4069(11) 0.1228(5)
N1 N 0.4086(6) 0.7378(13) 0.2079(6)
C1 C 0.3809(7) 0.7950(17) 0.2382(8)
H1 H 0.4023 0.8381 0.2758
O3 O 0.3442(5) 0.3654(12) 0.0579(5)
O4 O 0.2734(5) 0.3169(12) 0.2053(5)
N2 N 0.2871(5) 0.6249(14) 0.0660(6)
H2 H 0.2888 0.6668 0.0359
C2 C 0.3174(7) 0.7891(17) 0.2121(7)
H3 H 0.2980 0.8223 0.2336
Ni2 Ni 0.5000 0.7335(3) 0.2500
O6 O 0.5000 0.9486(17) 0.2500
C3 C 0.2875(7) 0.7337(17) 0.1554(7)
H4 H 0.2471 0.7332 0.1363
Mo3 Mo 0.11518(5) 0.04256(13) 0.13505(6)
Ni3 Ni 0.0000 0.0000 0.0000
O7 O 0.5000 0.5216(18) 0.2500
C4 C 0.3176(7) 0.6789(17) 0.1267(7)
C5 C 0.3773(7) 0.6827(16) 0.1542(7)
H5 H 0.3965 0.6441 0.1334
C6 C 0.2562(6) 0.5108(16) 0.0557(7)
O8 O 0.0875(4) 0.0265(10) 0.0343(4)
C9 C 0.3194(6) 0.3370(16) 0.0043(7)
O11 O 0.0204(4) 0.0153(10) 0.0925(4)
O12 O 0.0792(4) 0.2262(11) 0.1157(5)
O13 O 0.1243(5) 0.0175(11) 0.2064(5)
O14 O 0.1795(4) 0.1157(11) 0.1445(4)
O18 O 0.0008(5) 0.2261(11) 0.1677(5)
Ni4 Ni 0.78536(8) 0.2766(2) 0.38462(9)
O32 O 0.7529(5) 0.4554(11) 0.4047(5)
O33 O 0.8465(5) 0.4069(11) 0.3772(5)
N4 N 0.5914(6) 0.7378(13) 0.2921(6)
C13 C 0.6191(7) 0.7950(17) 0.2618(8)
H9 H 0.5977 0.8381 0.2242
O34 O 0.6558(5) 0.3654(12) 0.4421(5)
O35 O 0.7266(5) 0.3169(12) 0.2947(5)
N5 N 0.7129(5) 0.6249(14) 0.4340(6)
H10 H 0.7112 0.6668 0.4641
C14 C 0.6826(7) 0.7891(17) 0.2879(7)
H11 H 0.7020 0.8223 0.2664
O36 O 0.6592(4) 0.2656(11) 0.5268(5)
N6 N 0.7680(5) 0.3474(13) 0.5937(6)
C15 C 0.7125(7) 0.7337(17) 0.3446(7)
H12 H 0.7529 0.7332 0.3637
C16 C 0.6824(7) 0.6789(17) 0.3733(7)
C17 C 0.6227(7) 0.6827(16) 0.3458(7)
H13 H 0.6035 0.6441 0.3666
C18 C 0.7438(6) 0.5108(16) 0.4443(7)
C19 C 0.7718(6) 0.4631(16) 0.5094(7)
C20 C 0.7409(7) 0.3848(16) 0.5344(7)
C21 C 0.6806(6) 0.3370(16) 0.4957(7)
C22 C 0.8221(7) 0.3874(17) 0.6314(7)
H14 H 0.8390 0.3634 0.6727
C23 C 0.8528(7) 0.4656(17) 0.6080(7)
H15 H 0.8907 0.4918 0.6342
C24 C 0.8296(7) 0.5047(17) 0.5489(7)
H16 H 0.8509 0.5574 0.5343
Ni7 Ni 0.71464(8) 0.2234(2) 0.61538(9)
Ni8 Ni 0.0000 0.2335(3) 0.2500
O37 O 0.1592(4) 0.2344(11) 0.0268(5)
O38 O 0.8408(4) 0.2344(11) 0.4732(5)
N7 N 0.2680(5) 0.1526(13) 0.0937(6)
N8 N 0.7320(5) 0.1526(13) 0.4063(6)
O39 O 0.8205(4) 0.1157(11) 0.3555(4)
O40 O 0.5008(5) 0.7261(11) 0.1677(5)
O41 O 0.4992(5) 0.7261(11) 0.3323(5)
H17 H 0.869024 0.454459 0.416906
H18 H 0.873422 0.352545 0.36666
H21 H 0.735634 0.407061 0.28226
H22 H 0.72941 0.24448 0.267588
H23 H 0.130976 0.454459 0.0830945
H24 H 0.126578 0.352545 0.13334
H25 H 0.264366 0.407061 0.21774
H26 H 0.27059 0.24448 0.232412
O5 O 0.3408(4) 0.2656(11) 0.9732(5)
N3 N 0.2320(5) 0.3474(13) 0.9063(6)
Ni3_2 Ni 0.0000 0.0000 1.0000
C7 C 0.2282(6) 0.4631(16) 0.9906(7)
C8 C 0.2591(7) 0.3848(16) 0.9656(7)
C10 C 0.1779(7) 0.3874(17) 0.8686(7)
H6 H 0.1610 0.3634 0.8273
C11 C 0.1472(7) 0.4656(17) 0.8920(7)
H7 H 0.1093 0.4918 0.8658
C12 C 0.1704(7) 0.5047(17) 0.9511(7)
H8 H 0.1491 0.5574 0.9657
Ni6 Ni 0.28536(8) 0.2234(2) 0.88462(9)
Ni3_3 Ni 0.0000 1.0000 1.0000
Mo5 Mo 0.00312(6) 0.76231(13) 0.90500(6)
O22 O 0.0822(4) 0.8210(10) 0.9484(4)
O27 O 0.0090(5) 0.5912(12) 0.9176(5)
Ni9 Ni 0.0000 0.7665(3) 0.7500
Mo2 Mo 0.99688(6) 0.23769(13) 0.09500(6)
Ni3_4 Ni 1.0000 0.0000 0.0000
O10 O 0.9178(4) 0.1790(10) 0.0516(4)
O15 O 0.9910(5) 0.4088(12) 0.0824(5)
Ni8_2 Ni 1.0000 0.2335(3) 0.2500
Ni3_5 Ni 1.0000 1.0000 0.0000
Ni3_6 Ni 1.0000 1.0000 1.0000
Mo6 Mo 0.88482(5) 0.95744(13) 0.86495(6)
O20 O 0.9125(4) 0.9735(10) 0.9657(4)
O23 O 0.9796(4) 0.9847(10) 0.9075(4)
O24 O 0.9208(4) 0.7738(11) 0.8843(5)
O25 O 0.8757(5) 0.9825(11) 0.7936(5)
O26 O 0.8205(4) 0.8843(11) 0.8555(4)
O30 O 0.9992(5) 0.7739(11) 0.8323(5)
Ni5 Ni 0.78536(8) 0.7234(2) 0.88462(9)
Ni9_2 Ni 1.0000 0.7665(3) 0.7500
Mo2_2 Mo 0.00312(6) 0.23769(13) 0.40500(6)
Ni3_7 Ni 0.0000 0.0000 0.5000
O10_2 O 0.0822(4) 0.1790(10) 0.4484(4)
O15_2 O 0.0090(5) 0.4088(12) 0.4176(5)
Mo4 Mo 0.11773(5) 0.18898(13) 0.53644(6)
O21 O 0.0208(4) 0.2029(10) 0.5007(4)
O28 O 0.1263(5) 0.3603(11) 0.5486(5)
O29 O 0.1845(4) 0.1346(11) 0.5459(5)
O31 O 0.1212(4) 0.1475(10) 0.6165(4)
Ni3_8 Ni 0.0000 1.0000 0.5000
Mo6_2 Mo 0.11518(5) 0.95744(13) 0.63505(6)
O20_2 O 0.0875(4) 0.9735(10) 0.5343(4)
O23_2 O 0.0204(4) 0.9847(10) 0.5925(4)
O24_2 O 0.0792(4) 0.7738(11) 0.6157(5)
O25_2 O 0.1243(5) 0.9825(11) 0.7064(5)
O26_2 O 0.1795(4) 0.8843(11) 0.6445(4)
O30_2 O 0.0008(5) 0.7739(11) 0.6677(5)
Ni5_2 Ni 0.21464(8) 0.7234(2) 0.61538(9)
Mo3_2 Mo 0.88482(5) 0.04256(13) 0.36495(6)
Ni3_9 Ni 1.0000 0.0000 0.5000
O8_2 O 0.9125(4) 0.0265(10) 0.4657(4)
O11_2 O 0.9796(4) 0.0153(10) 0.4075(4)
O12_2 O 0.9208(4) 0.2262(11) 0.3843(5)
O13_2 O 0.8757(5) 0.0175(11) 0.2936(5)
O18_2 O 0.9992(5) 0.2261(11) 0.3323(5)
Mo1 Mo 0.88227(5) 0.81102(13) 0.46356(6)
Ni3_10 Ni 1.0000 1.0000 0.5000
O9 O 0.9792(4) 0.7971(10) 0.4993(4)
O16 O 0.8737(5) 0.6397(11) 0.4514(5)
O17 O 0.8155(4) 0.8654(11) 0.4541(5)
O19 O 0.8788(4) 0.8525(10) 0.3835(4)
Mo5_2 Mo 0.99688(6) 0.76231(13) 0.59500(6)
O22_2 O 0.9178(4) 0.8210(10) 0.5516(4)
O27_2 O 0.9910(5) 0.5912(12) 0.5824(5)
O6_2 O 0.0000 0.4486(17) 0.2500
O7_2 O 0.0000 0.0216(18) 0.2500
N4_2 N 0.0914(6) 0.2378(13) 0.2921(6)
C13_2 C 0.1191(7) 0.2950(17) 0.2618(8)
H9_2 H 0.0977 0.3381 0.2242
N5_2 N 0.2129(5) 0.1249(14) 0.4340(6)
H10_2 H 0.2112 0.1668 0.4641
C14_2 C 0.1826(7) 0.2891(17) 0.2879(7)
H11_2 H 0.2020 0.3223 0.2664
C15_2 C 0.2125(7) 0.2337(17) 0.3446(7)
H12_2 H 0.2529 0.2332 0.3637
C16_2 C 0.1824(7) 0.1789(17) 0.3733(7)
C17_2 C 0.1227(7) 0.1827(16) 0.3458(7)
H13_2 H 0.1035 0.1441 0.3666
C18_2 C 0.2438(6) 0.0108(16) 0.4443(7)
C24_2 C 0.3296(7) 0.0047(17) 0.5489(7)
H16_2 H 0.3509 0.0574 0.5343
H28 H 0.0407524 0.482452 0.268771
Ni4_2 Ni 0.28536(8) 0.7766(2) 0.38462(9)
O32_2 O 0.2529(5) 0.9554(11) 0.4047(5)
O33_2 O 0.3465(5) 0.9069(11) 0.3772(5)
O34_2 O 0.1558(5) 0.8654(12) 0.4421(5)
O35_2 O 0.2266(5) 0.8169(12) 0.2947(5)
O36_2 O 0.1592(4) 0.7656(11) 0.5268(5)
N6_2 N 0.2680(5) 0.8474(13) 0.5937(6)
C19_2 C 0.2718(6) 0.9631(16) 0.5094(7)
C20_2 C 0.2409(7) 0.8848(16) 0.5344(7)
C21_2 C 0.1806(6) 0.8370(16) 0.4957(7)
C22_2 C 0.3221(7) 0.8874(17) 0.6314(7)
H14_2 H 0.3390 0.8634 0.6727
C23_2 C 0.3528(7) 0.9656(17) 0.6080(7)
H15_2 H 0.3907 0.9918 0.6342
O38_2 O 0.3408(4) 0.7344(11) 0.4732(5)
N8_2 N 0.2320(5) 0.6526(13) 0.4063(6)
O39_2 O 0.3205(4) 0.6157(11) 0.3555(4)
H17_2 H 0.369024 0.954459 0.416906
H18_2 H 0.373422 0.852545 0.36666
H20 H 0.0407524 0.987748 0.268771
H21_2 H 0.235634 0.907061 0.28226
H22_2 H 0.22941 0.74448 0.267588
N1_2 N 0.9086(6) 0.2378(13) 0.2079(6)
C1_2 C 0.8809(7) 0.2950(17) 0.2382(8)
H1_2 H 0.9023 0.3381 0.2758
N2_2 N 0.7871(5) 0.1249(14) 0.0660(6)
H2_2 H 0.7888 0.1668 0.0359
C2_2 C 0.8174(7) 0.2891(17) 0.2121(7)
H3_2 H 0.7980 0.3223 0.2336
O6_3 O 1.0000 0.4486(17) 0.2500
C3_2 C 0.7875(7) 0.2337(17) 0.1554(7)
H4_2 H 0.7471 0.2332 0.1363
O7_3 O 1.0000 0.0216(18) 0.2500
C4_2 C 0.8176(7) 0.1789(17) 0.1267(7)
C5_2 C 0.8773(7) 0.1827(16) 0.1542(7)
H5_2 H 0.8965 0.1441 0.1334
C6_2 C 0.7562(6) 0.0108(16) 0.0557(7)
H27 H 0.980054 0.482452 0.27408
Ni1_2 Ni 0.71464(8) 0.7766(2) 0.11538(9)
O1_2 O 0.7471(5) 0.9554(11) 0.0953(5)
O2_2 O 0.6535(5) 0.9069(11) 0.1228(5)
Mo1_2 Mo 0.61773(5) 0.31102(13) 0.03644(6)
O3_2 O 0.8442(5) 0.8654(12) 0.0579(5)
O4_2 O 0.7734(5) 0.8169(12) 0.2053(5)
Mo2_3 Mo 0.49688(6) 0.73769(13) 0.09500(6)
Mo3_3 Mo 0.61518(5) 0.54256(13) 0.13505(6)
Ni3_11 Ni 0.5000 0.5000 0.0000
O8_3 O 0.5875(4) 0.5265(10) 0.0343(4)
O9_2 O 0.5208(4) 0.2971(10) 0.0007(4)
C9_2 C 0.8194(6) 0.8370(16) 0.0043(7)
O10_3 O 0.4178(4) 0.6790(10) 0.0516(4)
O11_3 O 0.5204(4) 0.5153(10) 0.0925(4)
O12_3 O 0.5792(4) 0.7262(11) 0.1157(5)
O13_3 O 0.6243(5) 0.5175(11) 0.2064(5)
O14_2 O 0.6795(4) 0.6157(11) 0.1445(4)
O15_3 O 0.4910(5) 0.9088(12) 0.0824(5)
O16_2 O 0.6263(5) 0.1397(11) 0.0486(5)
O17_2 O 0.6845(4) 0.3654(11) 0.0459(5)
O19_2 O 0.6212(4) 0.3525(10) 0.1165(4)
O37_2 O 0.6592(4) 0.7344(11) 0.0268(5)
N7_2 N 0.7680(5) 0.6526(13) 0.0937(6)
H19 H 0.979194 0.987748 0.207149
H23_2 H 0.630976 0.954459 0.0830945
H24_2 H 0.626578 0.852545 0.13334
H25_2 H 0.764366 0.907061 0.21774
H26_2 H 0.77059 0.74448 0.232412
O5_2 O 0.8408(4) 0.7656(11) 0.9732(5)
N3_2 N 0.7320(5) 0.8474(13) 0.9063(6)
Ni3_12 Ni 0.5000 0.5000 1.0000
C7_2 C 0.7282(6) 0.9631(16) 0.9906(7)
C8_2 C 0.7591(7) 0.8848(16) 0.9656(7)
C10_2 C 0.6779(7) 0.8874(17) 0.8686(7)
H6_2 H 0.6610 0.8634 0.8273
C11_2 C 0.6472(7) 0.9656(17) 0.8920(7)
H7_2 H 0.6093 0.9918 0.8658
Mo4_2 Mo 0.38227(5) 0.68898(13) 0.96356(6)
Mo5_3 Mo 0.50312(6) 0.26231(13) 0.90500(6)
Mo6_3 Mo 0.38482(5) 0.45744(13) 0.86495(6)
O20_3 O 0.4125(4) 0.4735(10) 0.9657(4)
O21_2 O 0.4792(4) 0.7029(10) 0.9993(4)
O22_3 O 0.5822(4) 0.3210(10) 0.9484(4)
O23_3 O 0.4796(4) 0.4847(10) 0.9075(4)
O24_3 O 0.4208(4) 0.2738(11) 0.8843(5)
O25_3 O 0.3757(5) 0.4825(11) 0.7936(5)
O26_3 O 0.3205(4) 0.3843(11) 0.8555(4)
O27_3 O 0.5090(5) 0.0912(12) 0.9176(5)
O28_2 O 0.3737(5) 0.8603(11) 0.9514(5)
O29_2 O 0.3155(4) 0.6346(11) 0.9541(5)
O30_3 O 0.4992(5) 0.2739(11) 0.8323(5)
O31_2 O 0.3788(4) 0.6475(10) 0.8835(4)
Ni9_3 Ni 0.5000 0.2665(3) 0.7500
H27_2 H 0.0199464 0.482452 0.22592
Mo1_3 Mo 0.38227(5) 0.31102(13) 0.46356(6)
Mo2_4 Mo 0.50312(6) 0.73769(13) 0.40500(6)
Mo3_4 Mo 0.38482(5) 0.54256(13) 0.36495(6)
Ni3_13 Ni 0.5000 0.5000 0.5000
O8_4 O 0.4125(4) 0.5265(10) 0.4657(4)
O9_3 O 0.4792(4) 0.2971(10) 0.4993(4)
O10_4 O 0.5822(4) 0.6790(10) 0.4484(4)
O11_4 O 0.4796(4) 0.5153(10) 0.4075(4)
O12_4 O 0.4208(4) 0.7262(11) 0.3843(5)
O13_4 O 0.3757(5) 0.5175(11) 0.2936(5)
O15_4 O 0.5090(5) 0.9088(12) 0.4176(5)
O16_3 O 0.3737(5) 0.1397(11) 0.4514(5)
O17_3 O 0.3155(4) 0.3654(11) 0.4541(5)
O19_3 O 0.3788(4) 0.3525(10) 0.3835(4)
Mo4_3 Mo 0.61773(5) 0.68898(13) 0.53644(6)
Mo5_4 Mo 0.49688(6) 0.26231(13) 0.59500(6)
Mo6_4 Mo 0.61518(5) 0.45744(13) 0.63505(6)
O20_4 O 0.5875(4) 0.4735(10) 0.5343(4)
O21_3 O 0.5208(4) 0.7029(10) 0.5007(4)
O22_4 O 0.4178(4) 0.3210(10) 0.5516(4)
O23_4 O 0.5204(4) 0.4847(10) 0.5925(4)
O24_4 O 0.5792(4) 0.2738(11) 0.6157(5)
O25_4 O 0.6243(5) 0.4825(11) 0.7064(5)
O26_4 O 0.6795(4) 0.3843(11) 0.6445(4)
O27_4 O 0.4910(5) 0.0912(12) 0.5824(5)
O28_3 O 0.6263(5) 0.8603(11) 0.5486(5)
O29_3 O 0.6845(4) 0.6346(11) 0.5459(5)
O30_4 O 0.5008(5) 0.2739(11) 0.6677(5)
O31_3 O 0.6212(4) 0.6475(10) 0.6165(4)
H19_2 H 0.020806 0.987748 0.292851
H28_2 H 0.959248 0.482452 0.231229
H20_2 H 0.959248 0.987748 0.231229
C7_3 C 0.7718(6) 0.5369(16) 0.0094(7)
C8_3 C 0.7409(7) 0.6152(16) 0.0344(7)
C10_3 C 0.8221(7) 0.6126(17) 0.1314(7)
H6_3 H 0.8390 0.6366 0.1727
C11_3 C 0.8528(7) 0.5344(17) 0.1080(7)
H7_3 H 0.8907 0.5082 0.1342
C12_2 C 0.8296(7) 0.4953(17) 0.0489(7)
H8_2 H 0.8509 0.4426 0.0343
O1_3 O 0.7529(5) 0.5446(11) 0.9047(5)
O2_3 O 0.8465(5) 0.5931(11) 0.8772(5)
N1_3 N 0.5914(6) 0.2622(13) 0.7921(6)
C1_3 C 0.6191(7) 0.2050(17) 0.7618(8)
H1_3 H 0.5977 0.1619 0.7242
O3_3 O 0.6558(5) 0.6346(12) 0.9421(5)
O4_3 O 0.7266(5) 0.6831(12) 0.7947(5)
N2_3 N 0.7129(5) 0.3751(14) 0.9340(6)
H2_3 H 0.7112 0.3332 0.9641
C2_3 C 0.6826(7) 0.2109(17) 0.7879(7)
H3_3 H 0.7020 0.1777 0.7664
O6_4 O 0.5000 0.0514(17) 0.7500
C3_3 C 0.7125(7) 0.2663(17) 0.8446(7)
H4_3 H 0.7529 0.2668 0.8637
O7_4 O 0.5000 0.4784(18) 0.7500
C4_3 C 0.6824(7) 0.3211(17) 0.8733(7)
C5_3 C 0.6227(7) 0.3173(16) 0.8458(7)
H5_3 H 0.6035 0.3559 0.8666
C6_3 C 0.7438(6) 0.4892(16) 0.9443(7)
C9_3 C 0.6806(6) 0.6630(16) 0.9957(7)
O32_3 O 0.2471(5) 0.5446(11) 0.5953(5)
O33_3 O 0.1535(5) 0.5931(11) 0.6228(5)
N4_3 N 0.4086(6) 0.2622(13) 0.7079(6)
C13_3 C 0.3809(7) 0.2050(17) 0.7382(8)
H9_3 H 0.4023 0.1619 0.7758
O34_3 O 0.3442(5) 0.6346(12) 0.5579(5)
O35_3 O 0.2734(5) 0.6831(12) 0.7053(5)
N5_3 N 0.2871(5) 0.3751(14) 0.5660(6)
H10_3 H 0.2888 0.3332 0.5359
C14_3 C 0.3174(7) 0.2109(17) 0.7121(7)
H11_3 H 0.2980 0.1777 0.7336
C15_3 C 0.2875(7) 0.2663(17) 0.6554(7)
H12_3 H 0.2471 0.2668 0.6363
C16_3 C 0.3176(7) 0.3211(17) 0.6267(7)
C17_3 C 0.3773(7) 0.3173(16) 0.6542(7)
H13_3 H 0.3965 0.3559 0.6334
C18_3 C 0.2562(6) 0.4892(16) 0.5557(7)
C19_3 C 0.2282(6) 0.5369(16) 0.4906(7)
C20_3 C 0.2591(7) 0.6152(16) 0.4656(7)
C21_3 C 0.3194(6) 0.6630(16) 0.5043(7)
C22_3 C 0.1779(7) 0.6126(17) 0.3686(7)
H14_3 H 0.1610 0.6366 0.3273
C23_3 C 0.1472(7) 0.5344(17) 0.3920(7)
H15_3 H 0.1093 0.5082 0.3658
C24_3 C 0.1704(7) 0.4953(17) 0.4511(7)
H16_3 H 0.1491 0.4426 0.4657
H17_3 H 0.130976 0.545541 0.583094
H18_3 H 0.126578 0.647455 0.63334
H21_3 H 0.264366 0.592939 0.71774
H22_3 H 0.27059 0.75552 0.732412
H23_3 H 0.869024 0.545541 0.916906
H24_3 H 0.873422 0.647455 0.86666
H25_3 H 0.735634 0.592939 0.78226
H26_3 H 0.72941 0.75552 0.767588
C7_4 C 0.2718(6) 0.0369(16) 0.0094(7)
C8_4 C 0.2409(7) 0.1152(16) 0.0344(7)
C10_4 C 0.3221(7) 0.1126(17) 0.1314(7)
H6_4 H 0.3390 0.1366 0.1727
C11_4 C 0.3528(7) 0.0344(17) 0.1080(7)
H7_4 H 0.3907 0.0082 0.1342
O1_4 O 0.2529(5) 0.0446(11) 0.9047(5)
O2_4 O 0.3465(5) 0.0931(11) 0.8772(5)
O3_4 O 0.1558(5) 0.1346(12) 0.9421(5)
O4_4 O 0.2266(5) 0.1831(12) 0.7947(5)
C9_4 C 0.1806(6) 0.1630(16) 0.9957(7)
H19_3 H 0.020806 0.0122515 0.792851
H23_4 H 0.369024 0.045541 0.916906
H24_4 H 0.373422 0.147455 0.86666
H25_4 H 0.235634 0.0929387 0.78226
H26_4 H 0.22941 0.25552 0.767588
N1_4 N 0.0914(6) 0.7622(13) 0.7921(6)
C1_4 C 0.1191(7) 0.7050(17) 0.7618(8)
H1_4 H 0.0977 0.6619 0.7242
N2_4 N 0.2129(5) 0.8751(14) 0.9340(6)
H2_4 H 0.2112 0.8332 0.9641
C2_4 C 0.1826(7) 0.7109(17) 0.7879(7)
H3_4 H 0.2020 0.6777 0.7664
O6_5 O 0.0000 0.5514(17) 0.7500
C3_4 C 0.2125(7) 0.7663(17) 0.8446(7)
H4_4 H 0.2529 0.7668 0.8637
O7_5 O 0.0000 0.9784(18) 0.7500
C4_4 C 0.1824(7) 0.8211(17) 0.8733(7)
C5_4 C 0.1227(7) 0.8173(16) 0.8458(7)
H5_4 H 0.1035 0.8559 0.8666
C6_4 C 0.2438(6) 0.9892(16) 0.9443(7)
H27_3 H 0.0199464 0.517548 0.72592
O32_4 O 0.7471(5) 0.0446(11) 0.5953(5)
O33_4 O 0.6535(5) 0.0931(11) 0.6228(5)
O34_4 O 0.8442(5) 0.1346(12) 0.5579(5)
O35_4 O 0.7734(5) 0.1831(12) 0.7053(5)
C19_4 C 0.7282(6) 0.0369(16) 0.4906(7)
C20_4 C 0.7591(7) 0.1152(16) 0.4656(7)
C21_4 C 0.8194(6) 0.1630(16) 0.5043(7)
C22_4 C 0.6779(7) 0.1126(17) 0.3686(7)
H14_4 H 0.6610 0.1366 0.3273
C23_4 C 0.6472(7) 0.0344(17) 0.3920(7)
H15_4 H 0.6093 0.0082 0.3658
H17_4 H 0.630976 0.045541 0.583094
H18_4 H 0.626578 0.147455 0.63334
H20_3 H 0.959248 0.0122515 0.731229
H21_4 H 0.764366 0.0929387 0.71774
H22_4 H 0.77059 0.25552 0.732412
O6_6 O 1.0000 0.5514(17) 0.7500
O7_6 O 1.0000 0.9784(18) 0.7500
N4_4 N 0.9086(6) 0.7622(13) 0.7079(6)
C13_4 C 0.8809(7) 0.7050(17) 0.7382(8)
H9_4 H 0.9023 0.6619 0.7758
N5_4 N 0.7871(5) 0.8751(14) 0.5660(6)
H10_4 H 0.7888 0.8332 0.5359
C14_4 C 0.8174(7) 0.7109(17) 0.7121(7)
H11_4 H 0.7980 0.6777 0.7336
C15_4 C 0.7875(7) 0.7663(17) 0.6554(7)
H12_4 H 0.7471 0.7668 0.6363
C16_4 C 0.8176(7) 0.8211(17) 0.6267(7)
C17_4 C 0.8773(7) 0.8173(16) 0.6542(7)
H13_4 H 0.8965 0.8559 0.6334
C18_4 C 0.7562(6) 0.9892(16) 0.5557(7)
C24_4 C 0.6704(7) 0.9953(17) 0.4511(7)
H16_4 H 0.6491 0.9426 0.4657
H28_3 H 0.959248 0.517548 0.731229
H20_4 H 0.0407524 0.0122515 0.768771
H28_4 H 0.0407524 0.517548 0.768771
H19_4 H 0.979194 0.0122515 0.707149
H27_4 H 0.980054 0.517548 0.77408
Mo1_4 Mo 0.11773(5) 0.81102(13) 0.03644(6)
Ni3_14 Ni 0.0000 1.0000 0.0000
O9_4 O 0.0208(4) 0.7971(10) 0.0007(4)
O16_4 O 0.1263(5) 0.6397(11) 0.0486(5)
O17_4 O 0.1845(4) 0.8654(11) 0.0459(5)
O19_4 O 0.1212(4) 0.8525(10) 0.1165(4)
Ni3_15 Ni 1.0000 0.0000 1.0000
Mo4_4 Mo 0.88227(5) 0.18898(13) 0.96356(6)
O21_4 O 0.9792(4) 0.2029(10) 0.9993(4)
O28_4 O 0.8737(5) 0.3603(11) 0.9514(5)
O29_4 O 0.8155(4) 0.1346(11) 0.9541(5)
O31_4 O 0.8788(4) 0.1475(10) 0.8835(4)
C12_3 C 0.6704(7) 0.0047(17) 0.9511(7)
H8_3 H 0.6491 0.0574 0.9657
C12_4 C 0.3296(7) 0.9953(17) 0.0489(7)
H8_4 H 0.3509 0.9426 0.0343
loop_
_geom_bond_atom_site_label_1
_geom_bond_atom_site_label_2
_geom_bond_site_symmetry_1
_geom_bond_site_symmetry_2
Ni1 O1 1_555 1_555
O1 C6 1_555 1_555
O2 Ni1 1_555 1_555
N1 C1 1_555 1_555
C1 H1 1_555 1_555
O3 C9 1_555 1_555
O4 Ni1 1_555 1_555
N2 H2 1_555 1_555
C2 C1 1_555 1_555
H3 C2 1_555 1_555
Ni2 N1 1_555 1_555
O6 Ni2 1_555 1_555
C3 C2 1_555 1_555
H4 C3 1_555 1_555
Mo3 O8 1_555 1_555
Ni3 O8 1_555 1_555
O7 Ni2 1_555 1_555
C4 N2 1_555 1_555
C5 N1 1_555 1_555
H5 C5 1_555 1_555
C6 N2 1_555 1_555
O13 Mo3 1_555 1_555
O14 Ni1 1_555 1_555
Ni4 O32 1_555 1_555
O32 C18 1_555 1_555
O33 Ni4 1_555 1_555
N4 Ni2 1_555 1_555
C13 N4 1_555 1_555
H9 C13 1_555 1_555
O34 C21 1_555 1_555
O35 Ni4 1_555 1_555
N5 H10 1_555 1_555
C14 C13 1_555 1_555
H11 C14 1_555 1_555
O36 C21 1_555 1_555
N6 C20 1_555 1_555
C15 C14 1_555 1_555
H12 C15 1_555 1_555
C16 N5 1_555 1_555
C17 N4 1_555 1_555
H13 C17 1_555 1_555
C18 N5 1_555 1_555
C19 C18 1_555 1_555
C20 C19 1_555 1_555
C21 C20 1_555 1_555
C22 N6 1_555 1_555
H14 C22 1_555 1_555
C23 C22 1_555 1_555
H15 C23 1_555 1_555
C24 C19 1_555 1_555
H16 C24 1_555 1_555
Ni7 O36 1_555 1_555
Ni8 O18 1_555 1_555
O37 Ni1 1_555 1_555
O38 Ni4 1_555 1_555
N7 Ni1 1_555 1_555
N8 Ni4 1_555 1_555
O39 Ni4 1_555 1_555
O40 Ni2 1_555 1_555
O41 Ni2 1_555 1_555
C3 C4 1_555 1_555
Mo3 O11 1_555 1_555
Mo3 O12 1_555 1_555
Mo3 O14 1_555 1_555
Ni3 O11 1_555 1_555
C4 C5 1_555 1_555
N6 Ni7 1_555 1_555
C15 C16 1_555 1_555
C16 C17 1_555 1_555
C23 C24 1_555 1_555
O33 H17 1_555 1_555
O33 H18 1_555 1_555
O35 H21 1_555 1_555
O35 H22 1_555 1_555
O2 H23 1_555 1_555
O2 H24 1_555 1_555
O4 H25 1_555 1_555
O4 H26 1_555 1_555
N3 C8 1_555 1_555
C8 C7 1_555 1_555
C10 N3 1_555 1_555
H6 C10 1_555 1_555
C11 C10 1_555 1_555
H7 C11 1_555 1_555
C12 C7 1_555 1_555
H8 C12 1_555 1_555
Ni6 O5 1_555 1_555
N3 Ni6 1_555 1_555
C11 C12 1_555 1_555
O27 Mo5 1_555 1_555
Mo5 O22 1_555 1_555
Mo2 O10 1_555 1_555
O15 Mo2 1_555 1_555
Mo6 O20 1_555 1_555
O20 Ni3_6 1_555 1_555
O23 Ni3_6 1_555 1_555
O25 Mo6 1_555 1_555
O26 Mo6 1_555 1_555
Ni5 O26 1_555 1_555
Ni9_2 O30 1_555 1_555
Mo6 O23 1_555 1_555
Mo6 O24 1_555 1_555
Mo2_2 O10_2 1_555 1_555
O10_2 Mo4 1_555 1_555
O15_2 Mo2_2 1_555 1_555
O21 Mo2_2 1_555 1_555
O28 Mo4 1_555 1_555
O29 Mo4 1_555 1_555
O31 Mo4 1_555 1_555
Ni3_7 O21 1_555 1_555
Mo4 O21 1_555 1_555
Mo6_2 O20_2 1_555 1_555
O20_2 Ni3_8 1_555 1_555
O23_2 Ni3_8 1_555 1_555
O25_2 Mo6_2 1_555 1_555
O26_2 Mo6_2 1_555 1_555
Ni5_2 O26_2 1_555 1_555
Ni9 O30_2 1_555 1_555
Mo6_2 O23_2 1_555 1_555
Mo6_2 O24_2 1_555 1_555
Mo3_2 O8_2 1_555 1_555
Ni3_9 O8_2 1_555 1_555
O13_2 Mo3_2 1_555 1_555
Ni8_2 O18_2 1_555 1_555
Mo3_2 O11_2 1_555 1_555
Mo3_2 O12_2 1_555 1_555
Mo3_2 O39 1_555 1_555
Ni3_9 O11_2 1_555 1_555
O9 Mo1 1_555 1_555
O16 Mo1 1_555 1_555
O17 Mo1 1_555 1_555
O19 Mo1 1_555 1_555
Mo5_2 O9 1_555 1_555
O22_2 Mo1 1_555 1_555
O27_2 Mo5_2 1_555 1_555
Ni3_10 O9 1_555 1_555
Mo5_2 O22_2 1_555 1_555
O6_2 Ni8 1_555 1_555
O7_2 Ni8 1_555 1_555
N4_2 Ni8 1_555 1_555
C13_2 N4_2 1_555 1_555
H9_2 C13_2 1_555 1_555
N5_2 H10_2 1_555 1_555
C14_2 C13_2 1_555 1_555
H11_2 C14_2 1_555 1_555
C15_2 C14_2 1_555 1_555
H12_2 C15_2 1_555 1_555
C16_2 N5_2 1_555 1_555
C17_2 N4_2 1_555 1_555
H13_2 C17_2 1_555 1_555
C18_2 N5_2 1_555 1_555
H16_2 C24_2 1_555 1_555
C15_2 C16_2 1_555 1_555
C16_2 C17_2 1_555 1_555
O6_2 H28 1_555 1_555
Ni4_2 O32_2 1_555 1_555
O33_2 Ni4_2 1_555 1_555
O34_2 C21_2 1_555 1_555
O35_2 Ni4_2 1_555 1_555
O36_2 C21_2 1_555 1_555
N6_2 C20_2 1_555 1_555
C20_2 C19_2 1_555 1_555
C21_2 C20_2 1_555 1_555
C22_2 N6_2 1_555 1_555
H14_2 C22_2 1_555 1_555
C23_2 C22_2 1_555 1_555
H15_2 C23_2 1_555 1_555
Ni5_2 O36_2 1_555 1_555
O38_2 Ni4_2 1_555 1_555
N8_2 Ni4_2 1_555 1_555
O39_2 Ni4_2 1_555 1_555
N6_2 Ni5_2 1_555 1_555
O33_2 H17_2 1_555 1_555
O33_2 H18_2 1_555 1_555
O35_2 H21_2 1_555 1_555
O35_2 H22_2 1_555 1_555
N1_2 C1_2 1_555 1_555
C1_2 H1_2 1_555 1_555
N2_2 H2_2 1_555 1_555
C2_2 C1_2 1_555 1_555
H3_2 C2_2 1_555 1_555
Ni8_2 N1_2 1_555 1_555
O6_3 Ni8_2 1_555 1_555
C3_2 C2_2 1_555 1_555
H4_2 C3_2 1_555 1_555
O7_3 Ni8_2 1_555 1_555
C4_2 N2_2 1_555 1_555
C5_2 N1_2 1_555 1_555
H5_2 C5_2 1_555 1_555
C6_2 N2_2 1_555 1_555
C3_2 C4_2 1_555 1_555
C4_2 C5_2 1_555 1_555
O6_3 H27 1_555 1_555
Ni1_2 O1_2 1_555 1_555
O2_2 Ni1_2 1_555 1_555
Mo1_2 O8_3 1_555 1_555
O3_2 C9_2 1_555 1_555
O4_2 Ni1_2 1_555 1_555
Mo2_3 O10_3 1_555 1_555
Mo3_3 O8_3 1_555 1_555
Ni3_11 O8_3 1_555 1_555
O9_2 Mo1_2 1_555 1_555
O11_3 Mo2_3 1_555 1_555
O12_3 Mo2_3 1_555 1_555
O13_3 Mo3_3 1_555 1_555
O14_2 Ni1_2 1_555 1_555
O15_3 Mo2_3 1_555 1_555
O16_2 Mo1_2 1_555 1_555
O17_2 Mo1_2 1_555 1_555
O40 Mo2_3 1_555 1_555
O19_2 Mo1_2 1_555 1_555
O37_2 Ni1_2 1_555 1_555
N7_2 Ni1_2 1_555 1_555
Mo3_3 O11_3 1_555 1_555
Mo3_3 O12_3 1_555 1_555
Mo3_3 O14_2 1_555 1_555
Mo3_3 O19_2 1_555 1_555
Ni3_11 O9_2 1_555 1_555
Ni3_11 O11_3 1_555 1_555
O2_2 H23_2 1_555 1_555
O2_2 H24_2 1_555 1_555
O4_2 H25_2 1_555 1_555
O4_2 H26_2 1_555 1_555
N3_2 C8_2 1_555 1_555
C8_2 C7_2 1_555 1_555
C10_2 N3_2 1_555 1_555
H6_2 C10_2 1_555 1_555
C11_2 C10_2 1_555 1_555
H7_2 C11_2 1_555 1_555
Mo4_2 O20_3 1_555 1_555
Mo6_3 O20_3 1_555 1_555
O20_3 Ni3_12 1_555 1_555
O23_3 Ni3_12 1_555 1_555
O24_3 Mo5_3 1_555 1_555
O25_3 Mo6_3 1_555 1_555
O26_3 Mo6_3 1_555 1_555
O27_3 Mo5_3 1_555 1_555
O28_2 Mo4_2 1_555 1_555
O29_2 Mo4_2 1_555 1_555
O30_3 Mo5_3 1_555 1_555
O31_2 Mo4_2 1_555 1_555
Ni6 O26_3 1_555 1_555
Ni5 O5_2 1_555 1_555
Ni9_3 O30_3 1_555 1_555
N3_2 Ni5 1_555 1_555
Ni3_12 O21_2 1_555 1_555
Mo4_2 O21_2 1_555 1_555
Mo5_3 O22_3 1_555 1_555
Mo5_3 O23_3 1_555 1_555
Mo6_3 O23_3 1_555 1_555
Mo6_3 O24_3 1_555 1_555
Mo6_3 O31_2 1_555 1_555
O6_2 H27_2 1_555 1_555
Mo1_3 O8_4 1_555 1_555
Mo2_4 O10_4 1_555 1_555
Mo3_4 O8_4 1_555 1_555
Ni3_13 O8_4 1_555 1_555
O9_3 Mo1_3 1_555 1_555
O10_4 Mo4_3 1_555 1_555
O11_4 Mo2_4 1_555 1_555
O12_4 Mo2_4 1_555 1_555
O13_4 Mo3_4 1_555 1_555
O15_4 Mo2_4 1_555 1_555
O16_3 Mo1_3 1_555 1_555
O17_3 Mo1_3 1_555 1_555
O41 Mo2_4 1_555 1_555
O19_3 Mo1_3 1_555 1_555
Mo4_3 O20_4 1_555 1_555
Mo5_4 O9_3 1_555 1_555
Mo6_4 O20_4 1_555 1_555
O20_4 Ni3_13 1_555 1_555
O21_3 Mo2_4 1_555 1_555
O22_4 Mo1_3 1_555 1_555
O23_4 Ni3_13 1_555 1_555
O24_4 Mo5_4 1_555 1_555
O25_4 Mo6_4 1_555 1_555
O26_4 Mo6_4 1_555 1_555
O27_4 Mo5_4 1_555 1_555
O28_3 Mo4_3 1_555 1_555
O29_3 Mo4_3 1_555 1_555
O30_4 Mo5_4 1_555 1_555
O31_3 Mo4_3 1_555 1_555
Ni7 O26_4 1_555 1_555
Ni9_3 O30_4 1_555 1_555
Mo3_4 O11_4 1_555 1_555
Mo3_4 O12_4 1_555 1_555
Mo3_4 O39_2 1_555 1_555
Mo3_4 O19_3 1_555 1_555
Ni3_13 O9_3 1_555 1_555
Ni3_13 O11_4 1_555 1_555
Ni3_13 O21_3 1_555 1_555
Mo4_3 O21_3 1_555 1_555
Mo5_4 O22_4 1_555 1_555
Mo5_4 O23_4 1_555 1_555
Mo6_4 O23_4 1_555 1_555
Mo6_4 O24_4 1_555 1_555
Mo6_4 O31_3 1_555 1_555
O6_3 H28_2 1_555 1_555
N7_2 C8_3 1_555 1_555
C8_3 C7_3 1_555 1_555
C10_3 N7_2 1_555 1_555
H6_3 C10_3 1_555 1_555
C11_3 C10_3 1_555 1_555
H7_3 C11_3 1_555 1_555
C12_2 C7_3 1_555 1_555
H8_2 C12_2 1_555 1_555
C11_3 C12_2 1_555 1_555
Ni5 O1_3 1_555 1_555
O1_3 C6_3 1_555 1_555
O2_3 Ni5 1_555 1_555
N1_3 C1_3 1_555 1_555
C1_3 H1_3 1_555 1_555
O3_3 C9_3 1_555 1_555
O4_3 Ni5 1_555 1_555
N2_3 H2_3 1_555 1_555
C2_3 C1_3 1_555 1_555
H3_3 C2_3 1_555 1_555
Ni9_3 N1_3 1_555 1_555
O6_4 Ni9_3 1_555 1_555
C3_3 C2_3 1_555 1_555
H4_3 C3_3 1_555 1_555
O7_4 Ni9_3 1_555 1_555
C4_3 N2_3 1_555 1_555
C5_3 N1_3 1_555 1_555
H5_3 C5_3 1_555 1_555
C6_3 N2_3 1_555 1_555
Ni5_2 O32_3 1_555 1_555
O32_3 C18_3 1_555 1_555
O33_3 Ni5_2 1_555 1_555
N4_3 Ni9_3 1_555 1_555
C13_3 N4_3 1_555 1_555
H9_3 C13_3 1_555 1_555
O34_3 C21_3 1_555 1_555
O35_3 Ni5_2 1_555 1_555
N5_3 H10_3 1_555 1_555
C14_3 C13_3 1_555 1_555
H11_3 C14_3 1_555 1_555
O38_2 C21_3 1_555 1_555
N8_2 C20_3 1_555 1_555
C15_3 C14_3 1_555 1_555
H12_3 C15_3 1_555 1_555
C16_3 N5_3 1_555 1_555
C17_3 N4_3 1_555 1_555
H13_3 C17_3 1_555 1_555
C18_3 N5_3 1_555 1_555
C19_3 C18_3 1_555 1_555
C20_3 C19_3 1_555 1_555
C21_3 C20_3 1_555 1_555
C22_3 N8_2 1_555 1_555
H14_3 C22_3 1_555 1_555
C23_3 C22_3 1_555 1_555
H15_3 C23_3 1_555 1_555
C24_3 C19_3 1_555 1_555
H16_3 C24_3 1_555 1_555
C3_3 C4_3 1_555 1_555
C4_3 C5_3 1_555 1_555
C15_3 C16_3 1_555 1_555
C16_3 C17_3 1_555 1_555
C23_3 C24_3 1_555 1_555
O33_3 H17_3 1_555 1_555
O33_3 H18_3 1_555 1_555
O35_3 H21_3 1_555 1_555
O35_3 H22_3 1_555 1_555
O2_3 H23_3 1_555 1_555
O2_3 H24_3 1_555 1_555
O4_3 H25_3 1_555 1_555
O4_3 H26_3 1_555 1_555
N7 C8_4 1_555 1_555
C8_4 C7_4 1_555 1_555
C10_4 N7 1_555 1_555
H6_4 C10_4 1_555 1_555
C11_4 C10_4 1_555 1_555
H7_4 C11_4 1_555 1_555
Ni6 O1_4 1_555 1_555
O2_4 Ni6 1_555 1_555
O3_4 C9_4 1_555 1_555
O4_4 Ni6 1_555 1_555
O2_4 H23_4 1_555 1_555
O2_4 H24_4 1_555 1_555
O4_4 H25_4 1_555 1_555
O4_4 H26_4 1_555 1_555
N1_4 C1_4 1_555 1_555
C1_4 H1_4 1_555 1_555
N2_4 H2_4 1_555 1_555
C2_4 C1_4 1_555 1_555
H3_4 C2_4 1_555 1_555
Ni9 N1_4 1_555 1_555
O6_5 Ni9 1_555 1_555
C3_4 C2_4 1_555 1_555
H4_4 C3_4 1_555 1_555
O7_5 Ni9 1_555 1_555
C4_4 N2_4 1_555 1_555
C5_4 N1_4 1_555 1_555
H5_4 C5_4 1_555 1_555
C6_4 N2_4 1_555 1_555
C3_4 C4_4 1_555 1_555
C4_4 C5_4 1_555 1_555
O6_5 H27_3 1_555 1_555
Ni7 O32_4 1_555 1_555
O33_4 Ni7 1_555 1_555
O34_4 C21_4 1_555 1_555
O35_4 Ni7 1_555 1_555
O38 C21_4 1_555 1_555
N8 C20_4 1_555 1_555
C20_4 C19_4 1_555 1_555
C21_4 C20_4 1_555 1_555
C22_4 N8 1_555 1_555
H14_4 C22_4 1_555 1_555
C23_4 C22_4 1_555 1_555
H15_4 C23_4 1_555 1_555
O33_4 H17_4 1_555 1_555
O33_4 H18_4 1_555 1_555
O35_4 H21_4 1_555 1_555
O35_4 H22_4 1_555 1_555
O6_6 Ni9_2 1_555 1_555
O7_6 Ni9_2 1_555 1_555
N4_4 Ni9_2 1_555 1_555
C13_4 N4_4 1_555 1_555
H9_4 C13_4 1_555 1_555
N5_4 H10_4 1_555 1_555
C14_4 C13_4 1_555 1_555
H11_4 C14_4 1_555 1_555
C15_4 C14_4 1_555 1_555
H12_4 C15_4 1_555 1_555
C16_4 N5_4 1_555 1_555
C17_4 N4_4 1_555 1_555
H13_4 C17_4 1_555 1_555
C18_4 N5_4 1_555 1_555
H16_4 C24_4 1_555 1_555
C15_4 C16_4 1_555 1_555
C16_4 C17_4 1_555 1_555
O6_6 H28_3 1_555 1_555
O6_5 H28_4 1_555 1_555
O6_6 H27_4 1_555 1_555
O9_4 Mo1_4 1_555 1_555
O16_4 Mo1_4 1_555 1_555
O17_4 Mo1_4 1_555 1_555
O19_4 Mo1_4 1_555 1_555
Ni3_14 O9_4 1_555 1_555
O28_4 Mo4_4 1_555 1_555
O29_4 Mo4_4 1_555 1_555
O31_4 Mo4_4 1_555 1_555
Ni3_15 O21_4 1_555 1_555
Mo4_4 O21_4 1_555 1_555
H8_3 C12_3 1_555 1_555
H8_4 C12_4 1_555 1_555

#END
