
###############################################################################
#
# This file contains modified crystal structure data generated from the
# MOF subset of the Cambridge Structural Database (CSD) v543 
# hosted by the Cambridge Crystallographic Data Centre (CCDC).
#
# This work is licensed under the Creative Commons
# Attribution-NonCommercial-ShareAlike 4.0 International License.
# To view a copy of this license, visit
# http://creativecommons.org/licenses/by-nc-sa/4.0/
# or send a letter to
# Creative Commons, PO Box 1866, Mountain View, CA 94042, USA.
#
# CIF created using the CSD Python API on 29 September 2022
# The structure has been converted into the P1 space group
# The structure has a 3D framework
# The original CSD entry JUCZAL is in the monoclinic crystal system
# The framework has been calculated to contain at least 10.0% void space
# The void calculation uses a probe of radius 1.32A, grid spacing 0.4
# H atom positions have been added when not included in the experimental data
# Generated hydrogen atom positions removed from atoms on special positions
#
###############################################################################

data_JUCZAL
_chemical_formula_moiety         '(C96 H128 Al15 Cu14 Mo24 N24 O141)n'
_symmetry_cell_setting           triclinic
_symmetry_space_group_name_H-M   'P 1'
_symmetry_Int_Tables_number      1
_space_group_name_Hall           'P 1'
loop_
_symmetry_equiv_pos_site_id
_symmetry_equiv_pos_as_xyz
1 x,y,z
_cell_length_a                   26.252(3)
_cell_length_b                   9.8285(10)
_cell_length_c                   25.469(3)
_cell_angle_alpha                90
_cell_angle_beta                 117.799(5)
_cell_angle_gamma                90
_cell_volume                     5813.04
loop_
_atom_site_label
_atom_site_type_symbol
_atom_site_fract_x
_atom_site_fract_y
_atom_site_fract_z
Al1 Al 0.0000 0.0000 0.0000
Cu2 Cu 0.0000 0.23222(14) 0.2500
O4 O 0.0000 0.0193(9) 0.2500
O5 O 0.01491(19) 0.0081(4) 0.0809(2)
O6 O 0.0000 0.4646(5) 0.2500
O17 O 0.0021(2) 0.2072(6) 0.1608(2)
Mo5 Mo 0.11185(3) 0.03539(6) 0.13272(3)
O22 O 0.0774(2) 0.2158(5) 0.1124(2)
O26 O 0.1139(2) 0.0082(5) 0.1993(2)
O27 O 0.1796(2) 0.0907(5) 0.1477(2)
O28 O 0.08035(19) 0.0251(5) 0.0312(2)
C13 C 0.1158(3) 0.2813(9) 0.2658(4)
H9 H 0.0958 0.3211 0.2285
N5 N 0.0865(3) 0.2299(7) 0.2930(3)
N6 N 0.2033(3) 0.1228(6) 0.4358(3)
H11 H 0.1939 0.1532 0.4618
C15 C 0.1754(3) 0.2753(9) 0.2931(4)
H12 H 0.1951 0.3062 0.2731
C16 C 0.3280(3) 0.0068(8) 0.5528(4)
H13 H 0.3491 0.0578 0.5390
C17 C 0.2056(3) 0.2242(8) 0.3495(4)
H14 H 0.2457 0.2219 0.3682
C18 C 0.1161(3) 0.1757(8) 0.3481(4)
H15 H 0.0959 0.1374 0.3663
C22 C 0.2434(3) 0.0253(8) 0.4513(4)
C24 C 0.1760(3) 0.1766(8) 0.3778(4)
Cu4 Cu 0.21435(4) 0.27417(10) 0.10965(4)
H18 H 0.0403087 0.498278 0.270038
Al1_2 Al 0.0000 0.0000 1.0000
Al1_3 Al 0.0000 1.0000 0.0000
Mo4 Mo 0.11533(3) 0.80429(6) 0.03862(3)
O20 O 0.0165(2) 0.8109(5) 0.0017(2)
O24 O 0.1149(2) 0.8483(5) 0.1119(2)
O25 O 0.1212(2) 0.6331(6) 0.0482(3)
O31 O 0.1818(2) 0.8603(6) 0.0516(3)
Cu3 Cu 0.21435(4) 0.72583(10) 0.60965(4)
O32 O 0.2718(3) 0.6761(6) 0.6918(3)
N4 N 0.2669(3) 0.8445(6) 0.5931(3)
O33 O 0.1588(2) 0.7757(5) 0.5285(2)
C14 C 0.3532(3) 0.9623(8) 0.6101(4)
H10 H 0.3909 0.9860 0.6364
O34 O 0.1563(2) 0.6090(5) 0.6172(2)
C19 C 0.2408(3) 0.8923(8) 0.5356(3)
C20 C 0.1809(3) 0.8438(8) 0.4996(4)
O35 O 0.2607(2) 0.9812(6) 0.4180(3)
C21 C 0.3203(3) 0.8788(8) 0.6287(4)
H16 H 0.3374 0.8474 0.6676
O36 O 0.1543(2) 0.8696(6) 0.4465(2)
C23 C 0.2691(3) 0.9751(8) 0.5138(4)
Cu6 Cu 0.28565(4) 0.77417(10) 0.39035(4)
O38 O 0.2393(2) 0.5188(6) 0.5820(3)
O39 O 0.1796(2) 0.9093(5) 0.6477(2)
H20 H 0.0403087 0.985622 0.270038
H25 H 0.15003 0.642218 0.650561
H26 H 0.119446 0.612741 0.579764
H27 H 0.285476 0.759734 0.716346
H28 H 0.25369 0.614337 0.709159
Al1_4 Al 0.0000 1.0000 1.0000
Mo6 Mo 0.00251(3) 0.76539(6) 0.90776(3)
O23 O 0.0069(2) 0.5947(6) 0.9181(3)
O30 O 0.0812(2) 0.8197(5) 0.9535(2)
Cu7 Cu 0.0000 0.76778(14) 0.7500
Al1_5 Al 1.0000 0.0000 0.0000
C1 C 0.8842(3) 0.2813(9) 0.2342(4)
H1 H 0.9042 0.3211 0.2715
Cu2_2 Cu 1.0000 0.23222(14) 0.2500
O4_2 O 1.0000 0.0193(9) 0.2500
N2 N 0.9135(3) 0.2299(7) 0.2070(3)
Mo3 Mo 0.99749(3) 0.23461(6) 0.09224(3)
N3 N 0.7967(3) 0.1228(6) 0.0642(3)
H3 H 0.8061 0.1532 0.0382
C3 C 0.8246(3) 0.2753(9) 0.2069(4)
H4 H 0.8049 0.3062 0.2269
O6_2 O 1.0000 0.4646(5) 0.2500
O9 O 0.9931(2) 0.4053(6) 0.0819(3)
C5 C 0.7944(3) 0.2242(8) 0.1505(4)
H6 H 0.7543 0.2219 0.1318
C6 C 0.8839(3) 0.1757(8) 0.1519(4)
H7 H 0.9041 0.1374 0.1337
C10 C 0.7566(3) 0.0253(8) 0.0487(4)
C12 C 0.8240(3) 0.1766(8) 0.1222(4)
O18 O 0.9188(2) 0.1803(5) 0.0465(2)
O40 O 0.9979(2) 0.2072(6) 0.3392(2)
H17 H 0.979218 0.498278 0.271508
Mo1 Mo 0.88467(3) 0.19571(6) 0.96138(3)
Al1_6 Al 1.0000 0.0000 1.0000
O3 O 0.9835(2) 0.1891(5) 0.9983(2)
C4 C 0.6720(3) 0.0068(8) 0.9472(4)
H5 H 0.6509 0.0578 0.9610
O10 O 0.8851(2) 0.1517(5) 0.8881(2)
O11 O 0.8788(2) 0.3669(6) 0.9518(3)
O19 O 0.8182(2) 0.1397(6) 0.9484(3)
Al1_7 Al 1.0000 1.0000 0.0000
C8 C 0.8191(3) 0.8438(8) 0.0004(4)
O12 O 0.7393(2) 0.9812(6) 0.0820(3)
O15 O 0.8457(2) 0.8696(6) 0.0535(2)
Cu5 Cu 0.71435(4) 0.77417(10) 0.10965(4)
H19 H 0.980474 0.985622 0.208454
Cu1 Cu 0.78565(4) 0.72583(10) 0.89035(4)
Al1_8 Al 1.0000 1.0000 1.0000
O1 O 0.7282(3) 0.6761(6) 0.8082(3)
N1 N 0.7331(3) 0.8445(6) 0.9069(3)
O2 O 0.8412(2) 0.7757(5) 0.9715(2)
Mo2 Mo 0.88815(3) 0.96461(6) 0.86728(3)
C2 C 0.6468(3) 0.9623(8) 0.8899(4)
H2 H 0.6091 0.9860 0.8636
O7 O 0.9226(2) 0.7842(5) 0.8876(2)
O8 O 0.8437(2) 0.6090(5) 0.8828(2)
C7 C 0.7592(3) 0.8923(8) 0.9644(3)
O13 O 0.8861(2) 0.9918(5) 0.8007(2)
C9 C 0.6797(3) 0.8788(8) 0.8713(4)
H8 H 0.6626 0.8474 0.8324
O14 O 0.8204(2) 0.9093(5) 0.8523(2)
C11 C 0.7309(3) 0.9751(8) 0.9862(4)
O16 O 0.91965(19) 0.9749(5) 0.9688(2)
O21 O 0.98509(19) 0.9919(4) 0.9191(2)
O29 O 0.9979(2) 0.7928(6) 0.8392(2)
Cu7_2 Cu 1.0000 0.76778(14) 0.7500
O37 O 0.7607(2) 0.5188(6) 0.9180(3)
H21 H 0.84997 0.642218 0.849439
H22 H 0.880554 0.612741 0.920236
H23 H 0.714524 0.759734 0.783654
H24 H 0.74631 0.614337 0.790841
Mo1_2 Mo 0.11533(3) 0.19571(6) 0.53862(3)
Al1_9 Al 0.0000 0.0000 0.5000
O3_2 O 0.0165(2) 0.1891(5) 0.5017(2)
Mo3_2 Mo 0.00251(3) 0.23461(6) 0.40776(3)
O9_2 O 0.0069(2) 0.4053(6) 0.4181(3)
O10_2 O 0.1149(2) 0.1517(5) 0.6119(2)
O11_2 O 0.1212(2) 0.3669(6) 0.5482(3)
O18_2 O 0.0812(2) 0.1803(5) 0.4535(2)
O19_2 O 0.1818(2) 0.1397(6) 0.5516(3)
H17_2 H 0.0207823 0.498278 0.228492
Al1_10 Al 0.0000 1.0000 0.5000
Mo2_2 Mo 0.11185(3) 0.96461(6) 0.63272(3)
O7_2 O 0.0774(2) 0.7842(5) 0.6124(2)
O13_2 O 0.1139(2) 0.9918(5) 0.6993(2)
O16_2 O 0.08035(19) 0.9749(5) 0.5312(2)
O21_2 O 0.01491(19) 0.9919(4) 0.5809(2)
O29_2 O 0.0021(2) 0.7928(6) 0.6608(2)
H19_2 H 0.0195264 0.985622 0.291546
Al1_11 Al 1.0000 0.0000 0.5000
O5_2 O 0.98509(19) 0.0081(4) 0.4191(2)
Mo5_2 Mo 0.88815(3) 0.03539(6) 0.36728(3)
O22_2 O 0.9226(2) 0.2158(5) 0.3876(2)
O26_2 O 0.8861(2) 0.0082(5) 0.3007(2)
O27_2 O 0.8204(2) 0.0907(5) 0.3523(2)
O28_2 O 0.91965(19) 0.0251(5) 0.4688(2)
Cu4_2 Cu 0.78565(4) 0.27417(10) 0.39035(4)
H18_2 H 0.959691 0.498278 0.229962
Al1_12 Al 1.0000 1.0000 0.5000
Mo4_2 Mo 0.88467(3) 0.80429(6) 0.46138(3)
O20_2 O 0.9835(2) 0.8109(5) 0.4983(2)
Mo6_2 Mo 0.99749(3) 0.76539(6) 0.59224(3)
O23_2 O 0.9931(2) 0.5947(6) 0.5819(3)
O24_2 O 0.8851(2) 0.8483(5) 0.3881(2)
O25_2 O 0.8788(2) 0.6331(6) 0.4518(3)
O30_2 O 0.9188(2) 0.8197(5) 0.5465(2)
O31_2 O 0.8182(2) 0.8603(6) 0.4484(3)
H20_2 H 0.959691 0.985622 0.229962
Al1_13 Al 0.5000 0.5000 0.0000
C1_2 C 0.3842(3) 0.7813(9) 0.2342(4)
H1_2 H 0.4042 0.8211 0.2715
Cu2_3 Cu 0.5000 0.73222(14) 0.2500
O4_3 O 0.5000 0.5193(9) 0.2500
N2_2 N 0.4135(3) 0.7299(7) 0.2070(3)
Mo3_3 Mo 0.49749(3) 0.73461(6) 0.09224(3)
O5_3 O 0.51491(19) 0.5081(4) 0.0809(2)
N3_2 N 0.2967(3) 0.6228(6) 0.0642(3)
H3_2 H 0.3061 0.6532 0.0382
C3_2 C 0.3246(3) 0.7753(9) 0.2069(4)
H4_2 H 0.3049 0.8062 0.2269
O6_3 O 0.5000 0.9646(5) 0.2500
O9_3 O 0.4931(2) 0.9053(6) 0.0819(3)
C5_2 C 0.2944(3) 0.7242(8) 0.1505(4)
H6_2 H 0.2543 0.7219 0.1318
C6_2 C 0.3839(3) 0.6757(8) 0.1519(4)
H7_2 H 0.4041 0.6374 0.1337
C8_2 C 0.3191(3) 0.3438(8) 0.0004(4)
O12_2 O 0.2393(2) 0.4812(6) 0.0820(3)
C10_2 C 0.2566(3) 0.5253(8) 0.0487(4)
O15_2 O 0.3457(2) 0.3696(6) 0.0535(2)
C12_2 C 0.3240(3) 0.6766(8) 0.1222(4)
O17_2 O 0.5021(2) 0.7072(6) 0.1608(2)
O18_3 O 0.4188(2) 0.6803(5) 0.0465(2)
Mo4_3 Mo 0.61533(3) 0.30429(6) 0.03862(3)
Mo5_3 Mo 0.61185(3) 0.53539(6) 0.13272(3)
O20_3 O 0.5165(2) 0.3109(5) 0.0017(2)
O22_3 O 0.5774(2) 0.7158(5) 0.1124(2)
O24_3 O 0.6149(2) 0.3483(5) 0.1119(2)
O25_3 O 0.6212(2) 0.1331(6) 0.0482(3)
O26_3 O 0.6139(2) 0.5082(5) 0.1993(2)
O27_3 O 0.6796(2) 0.5907(5) 0.1477(2)
O28_3 O 0.58035(19) 0.5251(5) 0.0312(2)
O31_3 O 0.6818(2) 0.3603(6) 0.0516(3)
Cu3_2 Cu 0.71435(4) 0.22583(10) 0.60965(4)
O32_2 O 0.7718(3) 0.1761(6) 0.6918(3)
N4_2 N 0.7669(3) 0.3445(6) 0.5931(3)
O33_2 O 0.6588(2) 0.2757(5) 0.5285(2)
C13_2 C 0.6158(3) 0.7813(9) 0.2658(4)
H9_2 H 0.5958 0.8211 0.2285
C14_2 C 0.8532(3) 0.4623(8) 0.6101(4)
H10_2 H 0.8909 0.4860 0.6364
N5_2 N 0.5865(3) 0.7299(7) 0.2930(3)
N6_2 N 0.7033(3) 0.6228(6) 0.4358(3)
H11_2 H 0.6939 0.6532 0.4618
C15_2 C 0.6754(3) 0.7753(9) 0.2931(4)
H12_2 H 0.6951 0.8062 0.2731
C16_2 C 0.8280(3) 0.5068(8) 0.5528(4)
H13_2 H 0.8491 0.5578 0.5390
O34_2 O 0.6563(2) 0.1090(5) 0.6172(2)
C17_2 C 0.7056(3) 0.7242(8) 0.3495(4)
H14_2 H 0.7457 0.7219 0.3682
C18_2 C 0.6161(3) 0.6757(8) 0.3481(4)
H15_2 H 0.5959 0.6374 0.3663
C19_2 C 0.7408(3) 0.3923(8) 0.5356(3)
C20_2 C 0.6809(3) 0.3438(8) 0.4996(4)
O35_2 O 0.7607(2) 0.4812(6) 0.4180(3)
C21_2 C 0.8203(3) 0.3788(8) 0.6287(4)
H16_2 H 0.8374 0.3474 0.6676
C22_2 C 0.7434(3) 0.5253(8) 0.4513(4)
O36_2 O 0.6543(2) 0.3696(6) 0.4465(2)
C23_2 C 0.7691(3) 0.4751(8) 0.5138(4)
C24_2 C 0.6760(3) 0.6766(8) 0.3778(4)
O38_2 O 0.7393(2) 0.0188(6) 0.5820(3)
O39_2 O 0.6796(2) 0.4093(5) 0.6477(2)
O40_2 O 0.4979(2) 0.7072(6) 0.3392(2)
H25_2 H 0.65003 0.142218 0.650561
H26_2 H 0.619446 0.112741 0.579764
H27_2 H 0.785476 0.259734 0.716346
H28_2 H 0.75369 0.114337 0.709159
Mo1_3 Mo 0.38467(3) 0.69571(6) 0.96138(3)
Cu1_2 Cu 0.28565(4) 0.22583(10) 0.89035(4)
Al1_14 Al 0.5000 0.5000 1.0000
O1_2 O 0.2282(3) 0.1761(6) 0.8082(3)
N1_2 N 0.2331(3) 0.3445(6) 0.9069(3)
O2_2 O 0.3412(2) 0.2757(5) 0.9715(2)
Mo2_3 Mo 0.38815(3) 0.46461(6) 0.86728(3)
O3_3 O 0.4835(2) 0.6891(5) 0.9983(2)
C2_2 C 0.1468(3) 0.4623(8) 0.8899(4)
H2_2 H 0.1091 0.4860 0.8636
O7_3 O 0.4226(2) 0.2842(5) 0.8876(2)
C4_2 C 0.1720(3) 0.5068(8) 0.9472(4)
H5_2 H 0.1509 0.5578 0.9610
O8_2 O 0.3437(2) 0.1090(5) 0.8828(2)
O10_3 O 0.3851(2) 0.6517(5) 0.8881(2)
O11_3 O 0.3788(2) 0.8669(6) 0.9518(3)
C7_2 C 0.2592(3) 0.3923(8) 0.9644(3)
O13_3 O 0.3861(2) 0.4918(5) 0.8007(2)
C9_2 C 0.1797(3) 0.3788(8) 0.8713(4)
H8_2 H 0.1626 0.3474 0.8324
O14_2 O 0.3204(2) 0.4093(5) 0.8523(2)
C11_2 C 0.2309(3) 0.4751(8) 0.9862(4)
O16_3 O 0.41965(19) 0.4749(5) 0.9688(2)
O19_3 O 0.3182(2) 0.6397(6) 0.9484(3)
Mo6_3 Mo 0.50251(3) 0.26539(6) 0.90776(3)
O21_3 O 0.48509(19) 0.4919(4) 0.9191(2)
O23_3 O 0.5069(2) 0.0947(6) 0.9181(3)
O29_3 O 0.4979(2) 0.2928(6) 0.8392(2)
O30_3 O 0.5812(2) 0.3197(5) 0.9535(2)
Cu7_3 Cu 0.5000 0.26778(14) 0.7500
O37_2 O 0.2607(2) 0.0188(6) 0.9180(3)
H21_2 H 0.34997 0.142218 0.849439
H22_2 H 0.380554 0.112741 0.920236
H23_2 H 0.214524 0.259734 0.783654
H24_2 H 0.24631 0.114337 0.790841
Mo1_4 Mo 0.61533(3) 0.69571(6) 0.53862(3)
Al1_15 Al 0.5000 0.5000 0.5000
Mo2_4 Mo 0.61185(3) 0.46461(6) 0.63272(3)
O3_4 O 0.5165(2) 0.6891(5) 0.5017(2)
Mo3_4 Mo 0.50251(3) 0.73461(6) 0.40776(3)
O5_4 O 0.48509(19) 0.5081(4) 0.4191(2)
O7_4 O 0.5774(2) 0.2842(5) 0.6124(2)
O9_4 O 0.5069(2) 0.9053(6) 0.4181(3)
O10_4 O 0.6149(2) 0.6517(5) 0.6119(2)
O11_4 O 0.6212(2) 0.8669(6) 0.5482(3)
O13_4 O 0.6139(2) 0.4918(5) 0.6993(2)
O16_4 O 0.58035(19) 0.4749(5) 0.5312(2)
O18_4 O 0.5812(2) 0.6803(5) 0.4535(2)
O19_4 O 0.6818(2) 0.6397(6) 0.5516(3)
Mo4_4 Mo 0.38467(3) 0.30429(6) 0.46138(3)
Mo5_4 Mo 0.38815(3) 0.53539(6) 0.36728(3)
O20_4 O 0.4835(2) 0.3109(5) 0.4983(2)
Mo6_4 Mo 0.49749(3) 0.26539(6) 0.59224(3)
O21_4 O 0.51491(19) 0.4919(4) 0.5809(2)
O22_4 O 0.4226(2) 0.7158(5) 0.3876(2)
O23_4 O 0.4931(2) 0.0947(6) 0.5819(3)
O24_4 O 0.3851(2) 0.3483(5) 0.3881(2)
O25_4 O 0.3788(2) 0.1331(6) 0.4518(3)
O26_4 O 0.3861(2) 0.5082(5) 0.3007(2)
O27_4 O 0.3204(2) 0.5907(5) 0.3523(2)
O28_4 O 0.41965(19) 0.5251(5) 0.4688(2)
O29_4 O 0.5021(2) 0.2928(6) 0.6608(2)
O30_4 O 0.4188(2) 0.3197(5) 0.5465(2)
O31_4 O 0.3182(2) 0.3603(6) 0.4484(3)
O1_3 O 0.2718(3) 0.3239(6) 0.1918(3)
N1_3 N 0.2669(3) 0.1555(6) 0.0931(3)
O2_3 O 0.1588(2) 0.2243(5) 0.0285(2)
C2_3 C 0.3532(3) 0.0377(8) 0.1101(4)
H2_3 H 0.3909 0.0140 0.1364
O8_3 O 0.1563(2) 0.3910(5) 0.1172(2)
C7_3 C 0.2408(3) 0.1077(8) 0.0356(3)
C9_3 C 0.3203(3) 0.1212(8) 0.1287(4)
H8_3 H 0.3374 0.1526 0.1676
C11_3 C 0.2691(3) 0.0249(8) 0.0138(4)
H21_3 H 0.15003 0.357782 0.150561
H22_3 H 0.119446 0.387259 0.0797641
H23_3 H 0.285476 0.240266 0.216346
H24_3 H 0.25369 0.385663 0.209159
C8_3 C 0.1809(3) 0.1562(8) 0.9996(4)
O15_3 O 0.1543(2) 0.1304(6) 0.9465(2)
H19_3 H 0.0195264 0.0143776 0.791546
C4_3 C 0.3280(3) 0.9932(8) 0.0528(4)
H5_3 H 0.3491 0.9422 0.0390
C1_3 C 0.1158(3) 0.7187(9) 0.7658(4)
H1_3 H 0.0958 0.6789 0.7285
O4_4 O 0.0000 0.9807(9) 0.7500
N2_3 N 0.0865(3) 0.7701(7) 0.7930(3)
N3_3 N 0.2033(3) 0.8772(6) 0.9358(3)
H3_3 H 0.1939 0.8468 0.9618
C3_3 C 0.1754(3) 0.7247(9) 0.7931(4)
H4_3 H 0.1951 0.6938 0.7731
O6_4 O 0.0000 0.5354(5) 0.7500
C5_3 C 0.2056(3) 0.7758(8) 0.8495(4)
H6_3 H 0.2457 0.7781 0.8682
C6_3 C 0.1161(3) 0.8243(8) 0.8481(4)
H7_3 H 0.0959 0.8626 0.8663
C10_3 C 0.2434(3) 0.9747(8) 0.9513(4)
C12_3 C 0.1760(3) 0.8234(8) 0.8778(4)
H17_3 H 0.0207823 0.501722 0.728492
O32_3 O 0.7282(3) 0.3239(6) 0.3082(3)
N4_3 N 0.7331(3) 0.1555(6) 0.4069(3)
O33_3 O 0.8412(2) 0.2243(5) 0.4715(2)
C14_3 C 0.6468(3) 0.0377(8) 0.3899(4)
H10_3 H 0.6091 0.0140 0.3636
O34_3 O 0.8437(2) 0.3910(5) 0.3828(2)
C19_3 C 0.7592(3) 0.1077(8) 0.4644(3)
C20_3 C 0.8191(3) 0.1562(8) 0.5004(4)
C21_3 C 0.6797(3) 0.1212(8) 0.3713(4)
H16_3 H 0.6626 0.1526 0.3324
O36_3 O 0.8457(2) 0.1304(6) 0.5535(2)
C23_3 C 0.7309(3) 0.0249(8) 0.4862(4)
H20_3 H 0.959691 0.0143776 0.729962
H25_3 H 0.84997 0.357782 0.349439
H26_3 H 0.880554 0.387259 0.420236
H27_3 H 0.714524 0.240266 0.283654
H28_3 H 0.74631 0.385663 0.290841
O4_5 O 1.0000 0.9807(9) 0.7500
O6_5 O 1.0000 0.5354(5) 0.7500
C13_3 C 0.8842(3) 0.7187(9) 0.7342(4)
H9_3 H 0.9042 0.6789 0.7715
N5_3 N 0.9135(3) 0.7701(7) 0.7070(3)
N6_3 N 0.7967(3) 0.8772(6) 0.5642(3)
H11_3 H 0.8061 0.8468 0.5382
C15_3 C 0.8246(3) 0.7247(9) 0.7069(4)
H12_3 H 0.8049 0.6938 0.7269
C16_3 C 0.6720(3) 0.9932(8) 0.4472(4)
H13_3 H 0.6509 0.9422 0.4610
C17_3 C 0.7944(3) 0.7758(8) 0.6505(4)
H14_3 H 0.7543 0.7781 0.6318
C18_3 C 0.8839(3) 0.8243(8) 0.6519(4)
H15_3 H 0.9041 0.8626 0.6337
C22_3 C 0.7566(3) 0.9747(8) 0.5487(4)
C24_3 C 0.8240(3) 0.8234(8) 0.6222(4)
H18_3 H 0.959691 0.501722 0.729962
H20_4 H 0.0403087 0.0143776 0.770038
H18_4 H 0.0403087 0.501722 0.770038
H19_4 H 0.980474 0.0143776 0.708454
H17_4 H 0.979218 0.501722 0.771508
O1_4 O 0.7718(3) 0.8239(6) 0.1918(3)
N1_4 N 0.7669(3) 0.6555(6) 0.0931(3)
O2_4 O 0.6588(2) 0.7243(5) 0.0285(2)
C2_4 C 0.8532(3) 0.5377(8) 0.1101(4)
H2_4 H 0.8909 0.5140 0.1364
C4_4 C 0.8280(3) 0.4932(8) 0.0528(4)
H5_4 H 0.8491 0.4422 0.0390
O8_4 O 0.6563(2) 0.8910(5) 0.1172(2)
C7_4 C 0.7408(3) 0.6077(8) 0.0356(3)
C9_4 C 0.8203(3) 0.6212(8) 0.1287(4)
H8_4 H 0.8374 0.6526 0.1676
C11_4 C 0.7691(3) 0.5249(8) 0.0138(4)
H21_4 H 0.65003 0.857782 0.150561
H22_4 H 0.619446 0.887259 0.0797641
H23_4 H 0.785476 0.740266 0.216346
H24_4 H 0.75369 0.885663 0.209159
C1_4 C 0.6158(3) 0.2187(9) 0.7658(4)
H1_4 H 0.5958 0.1789 0.7285
O4_6 O 0.5000 0.4807(9) 0.7500
N2_4 N 0.5865(3) 0.2701(7) 0.7930(3)
N3_4 N 0.7033(3) 0.3772(6) 0.9358(3)
H3_4 H 0.6939 0.3468 0.9618
C3_4 C 0.6754(3) 0.2247(9) 0.7931(4)
H4_4 H 0.6951 0.1938 0.7731
O6_6 O 0.5000 0.0354(5) 0.7500
C5_4 C 0.7056(3) 0.2758(8) 0.8495(4)
H6_4 H 0.7457 0.2781 0.8682
C6_4 C 0.6161(3) 0.3243(8) 0.8481(4)
H7_4 H 0.5959 0.3626 0.8663
C8_4 C 0.6809(3) 0.6562(8) 0.9996(4)
C10_4 C 0.7434(3) 0.4747(8) 0.9513(4)
O15_4 O 0.6543(2) 0.6304(6) 0.9465(2)
C12_4 C 0.6760(3) 0.3234(8) 0.8778(4)
O32_4 O 0.2282(3) 0.8239(6) 0.3082(3)
N4_4 N 0.2331(3) 0.6555(6) 0.4069(3)
O33_4 O 0.3412(2) 0.7243(5) 0.4715(2)
C13_4 C 0.3842(3) 0.2187(9) 0.7342(4)
H9_4 H 0.4042 0.1789 0.7715
C14_4 C 0.1468(3) 0.5377(8) 0.3899(4)
H10_4 H 0.1091 0.5140 0.3636
N5_4 N 0.4135(3) 0.2701(7) 0.7070(3)
N6_4 N 0.2967(3) 0.3772(6) 0.5642(3)
H11_4 H 0.3061 0.3468 0.5382
C15_4 C 0.3246(3) 0.2247(9) 0.7069(4)
H12_4 H 0.3049 0.1938 0.7269
C16_4 C 0.1720(3) 0.4932(8) 0.4472(4)
H13_4 H 0.1509 0.4422 0.4610
O34_4 O 0.3437(2) 0.8910(5) 0.3828(2)
C17_4 C 0.2944(3) 0.2758(8) 0.6505(4)
H14_4 H 0.2543 0.2781 0.6318
C18_4 C 0.3839(3) 0.3243(8) 0.6519(4)
H15_4 H 0.4041 0.3626 0.6337
C19_4 C 0.2592(3) 0.6077(8) 0.4644(3)
C20_4 C 0.3191(3) 0.6562(8) 0.5004(4)
C21_4 C 0.1797(3) 0.6212(8) 0.3713(4)
H16_4 H 0.1626 0.6526 0.3324
C22_4 C 0.2566(3) 0.4747(8) 0.5487(4)
O36_4 O 0.3457(2) 0.6304(6) 0.5535(2)
C23_4 C 0.2309(3) 0.5249(8) 0.4862(4)
C24_4 C 0.3240(3) 0.3234(8) 0.6222(4)
H25_4 H 0.34997 0.857782 0.349439
H26_4 H 0.380554 0.887259 0.420236
H27_4 H 0.214524 0.740266 0.283654
H28_4 H 0.24631 0.885663 0.290841
loop_
_geom_bond_atom_site_label_1
_geom_bond_atom_site_label_2
_geom_bond_site_symmetry_1
_geom_bond_site_symmetry_2
Cu2 O4 1_555 1_555
O5 Al1 1_555 1_555
O6 Cu2 1_555 1_555
O17 Cu2 1_555 1_555
Mo5 O5 1_555 1_555
O26 Mo5 1_555 1_555
O27 Mo5 1_555 1_555
O28 Al1 1_555 1_555
C13 H9 1_555 1_555
N5 Cu2 1_555 1_555
N6 H11 1_555 1_555
C15 C13 1_555 1_555
H12 C15 1_555 1_555
H13 C16 1_555 1_555
C17 C15 1_555 1_555
H14 C17 1_555 1_555
C18 N5 1_555 1_555
H15 C18 1_555 1_555
C22 N6 1_555 1_555
C24 N6 1_555 1_555
Cu4 O27 1_555 1_555
Mo5 O22 1_555 1_555
Mo5 O28 1_555 1_555
C13 N5 1_555 1_555
C17 C24 1_555 1_555
C18 C24 1_555 1_555
O6 H18 1_555 1_555
Mo4 O20 1_555 1_555
O20 Al1_3 1_555 1_555
O24 Mo4 1_555 1_555
O25 Mo4 1_555 1_555
O31 Mo4 1_555 1_555
Cu3 O32 1_555 1_555
N4 Cu3 1_555 1_555
O33 Cu3 1_555 1_555
C14 H10 1_555 1_555
O34 Cu3 1_555 1_555
C19 N4 1_555 1_555
C20 O33 1_555 1_555
C21 N4 1_555 1_555
H16 C21 1_555 1_555
O36 C20 1_555 1_555
Cu6 O35 1_555 1_555
O38 Cu3 1_555 1_555
O39 Cu3 1_555 1_555
C14 C21 1_555 1_555
C19 C20 1_555 1_555
C19 C23 1_555 1_555
O34 H25 1_555 1_555
O34 H26 1_555 1_555
O32 H27 1_555 1_555
O32 H28 1_555 1_555
O23 Mo6 1_555 1_555
Mo6 O30 1_555 1_555
C1 H1 1_555 1_555
Cu2_2 O4_2 1_555 1_555
N2 C1 1_555 1_555
N3 H3 1_555 1_555
C3 C1 1_555 1_555
H4 C3 1_555 1_555
O6_2 Cu2_2 1_555 1_555
O9 Mo3 1_555 1_555
C5 C3 1_555 1_555
H6 C5 1_555 1_555
C6 N2 1_555 1_555
H7 C6 1_555 1_555
C10 N3 1_555 1_555
C12 N3 1_555 1_555
O40 Cu2_2 1_555 1_555
Cu2_2 N2 1_555 1_555
Mo3 O18 1_555 1_555
C5 C12 1_555 1_555
C6 C12 1_555 1_555
O6_2 H17 1_555 1_555
Mo1 O3 1_555 1_555
Al1_6 O3 1_555 1_555
H5 C4 1_555 1_555
O10 Mo1 1_555 1_555
O11 Mo1 1_555 1_555
O19 Mo1 1_555 1_555
O15 C8 1_555 1_555
Cu5 O12 1_555 1_555
Cu1 O1 1_555 1_555
N1 Cu1 1_555 1_555
O2 Cu1 1_555 1_555
Mo2 O7 1_555 1_555
C2 H2 1_555 1_555
O8 Cu1 1_555 1_555
C7 N1 1_555 1_555
O13 Mo2 1_555 1_555
C9 N1 1_555 1_555
H8 C9 1_555 1_555
O14 Cu1 1_555 1_555
O21 Al1_8 1_555 1_555
Cu7_2 O29 1_555 1_555
O37 Cu1 1_555 1_555
Al1_8 O16 1_555 1_555
Mo2 O14 1_555 1_555
Mo2 O16 1_555 1_555
Mo2 O21 1_555 1_555
C2 C9 1_555 1_555
C7 C11 1_555 1_555
O8 H21 1_555 1_555
O8 H22 1_555 1_555
O1 H23 1_555 1_555
O1 H24 1_555 1_555
Mo1_2 O3_2 1_555 1_555
Al1_9 O3_2 1_555 1_555
O3_2 Mo3_2 1_555 1_555
O9_2 Mo3_2 1_555 1_555
O10_2 Mo1_2 1_555 1_555
O11_2 Mo1_2 1_555 1_555
O18_2 Mo1_2 1_555 1_555
O19_2 Mo1_2 1_555 1_555
Mo3_2 O18_2 1_555 1_555
O6 H17_2 1_555 1_555
Mo2_2 O7_2 1_555 1_555
O13_2 Mo2_2 1_555 1_555
O21_2 Al1_10 1_555 1_555
Cu7 O29_2 1_555 1_555
Al1_10 O16_2 1_555 1_555
Mo2_2 O39 1_555 1_555
Mo2_2 O16_2 1_555 1_555
Mo2_2 O21_2 1_555 1_555
O5_2 Al1_11 1_555 1_555
Mo5_2 O5_2 1_555 1_555
O26_2 Mo5_2 1_555 1_555
O27_2 Mo5_2 1_555 1_555
O28_2 Al1_11 1_555 1_555
Cu4_2 O27_2 1_555 1_555
Mo5_2 O22_2 1_555 1_555
Mo5_2 O28_2 1_555 1_555
O6_2 H18_2 1_555 1_555
Mo4_2 O20_2 1_555 1_555
O20_2 Al1_12 1_555 1_555
Mo6_2 O20_2 1_555 1_555
O23_2 Mo6_2 1_555 1_555
O24_2 Mo4_2 1_555 1_555
O25_2 Mo4_2 1_555 1_555
O30_2 Mo4_2 1_555 1_555
O31_2 Mo4_2 1_555 1_555
Mo6_2 O30_2 1_555 1_555
C1_2 H1_2 1_555 1_555
Cu2_3 O4_3 1_555 1_555
N2_2 C1_2 1_555 1_555
Mo3_3 O5_3 1_555 1_555
O5_3 Al1_13 1_555 1_555
N3_2 H3_2 1_555 1_555
C3_2 C1_2 1_555 1_555
H4_2 C3_2 1_555 1_555
O6_3 Cu2_3 1_555 1_555
O9_3 Mo3_3 1_555 1_555
C5_2 C3_2 1_555 1_555
H6_2 C5_2 1_555 1_555
C6_2 N2_2 1_555 1_555
H7_2 C6_2 1_555 1_555
O12_2 C10_2 1_555 1_555
C10_2 N3_2 1_555 1_555
O15_2 C8_2 1_555 1_555
C12_2 N3_2 1_555 1_555
O17_2 Cu2_3 1_555 1_555
Mo4_3 O20_3 1_555 1_555
Mo5_3 O5_3 1_555 1_555
O20_3 Al1_13 1_555 1_555
O22_3 Mo3_3 1_555 1_555
O24_3 Mo4_3 1_555 1_555
O25_3 Mo4_3 1_555 1_555
O26_3 Mo5_3 1_555 1_555
O27_3 Mo5_3 1_555 1_555
O28_3 Al1_13 1_555 1_555
O31_3 Mo4_3 1_555 1_555
Cu3_2 O32_2 1_555 1_555
N4_2 Cu3_2 1_555 1_555
O33_2 Cu3_2 1_555 1_555
C13_2 H9_2 1_555 1_555
C14_2 H10_2 1_555 1_555
N5_2 Cu2_3 1_555 1_555
N6_2 H11_2 1_555 1_555
C15_2 C13_2 1_555 1_555
H12_2 C15_2 1_555 1_555
C16_2 C14_2 1_555 1_555
H13_2 C16_2 1_555 1_555
O34_2 Cu3_2 1_555 1_555
C17_2 C15_2 1_555 1_555
H14_2 C17_2 1_555 1_555
C18_2 N5_2 1_555 1_555
H15_2 C18_2 1_555 1_555
C19_2 N4_2 1_555 1_555
C20_2 O33_2 1_555 1_555
O35_2 C22_2 1_555 1_555
C21_2 N4_2 1_555 1_555
H16_2 C21_2 1_555 1_555
C22_2 N6_2 1_555 1_555
O36_2 C20_2 1_555 1_555
C23_2 C16_2 1_555 1_555
C24_2 N6_2 1_555 1_555
Cu5 O27_3 1_555 1_555
Cu4 O12_2 1_555 1_555
Cu4_2 O35_2 1_555 1_555
O38_2 Cu3_2 1_555 1_555
O39_2 Cu3_2 1_555 1_555
O40_2 Cu2_3 1_555 1_555
Cu2_3 N2_2 1_555 1_555
Mo3_3 O17_2 1_555 1_555
Mo3_3 O18_3 1_555 1_555
C5_2 C12_2 1_555 1_555
C6_2 C12_2 1_555 1_555
Mo4_3 O28_3 1_555 1_555
Mo5_3 O22_3 1_555 1_555
Mo5_3 O24_3 1_555 1_555
Mo5_3 O28_3 1_555 1_555
C13_2 N5_2 1_555 1_555
C14_2 C21_2 1_555 1_555
C17_2 C24_2 1_555 1_555
C18_2 C24_2 1_555 1_555
C19_2 C20_2 1_555 1_555
C19_2 C23_2 1_555 1_555
C22_2 C23_2 1_555 1_555
O34_2 H25_2 1_555 1_555
O34_2 H26_2 1_555 1_555
O32_2 H27_2 1_555 1_555
O32_2 H28_2 1_555 1_555
Mo1_3 O3_3 1_555 1_555
Cu1_2 O1_2 1_555 1_555
Al1_14 O3_3 1_555 1_555
N1_2 Cu1_2 1_555 1_555
O2_2 Cu1_2 1_555 1_555
Mo2_3 O7_3 1_555 1_555
C2_2 H2_2 1_555 1_555
O7_3 Mo6_3 1_555 1_555
C4_2 C2_2 1_555 1_555
H5_2 C4_2 1_555 1_555
O8_2 Cu1_2 1_555 1_555
O10_3 Mo1_3 1_555 1_555
O11_3 Mo1_3 1_555 1_555
C7_2 N1_2 1_555 1_555
O13_3 Mo2_3 1_555 1_555
C9_2 N1_2 1_555 1_555
H8_2 C9_2 1_555 1_555
O14_2 Cu1_2 1_555 1_555
C11_2 C4_2 1_555 1_555
O16_3 Mo1_3 1_555 1_555
O19_3 Mo1_3 1_555 1_555
O21_3 Al1_14 1_555 1_555
O23_3 Mo6_3 1_555 1_555
O29_3 Mo6_3 1_555 1_555
Cu7_3 O29_3 1_555 1_555
O37_2 Cu1_2 1_555 1_555
Al1_14 O16_3 1_555 1_555
Mo2_3 O10_3 1_555 1_555
Mo2_3 O14_2 1_555 1_555
Mo2_3 O16_3 1_555 1_555
Mo2_3 O21_3 1_555 1_555
C2_2 C9_2 1_555 1_555
C7_2 C11_2 1_555 1_555
Mo6_3 O21_3 1_555 1_555
Mo6_3 O30_3 1_555 1_555
O8_2 H21_2 1_555 1_555
O8_2 H22_2 1_555 1_555
O1_2 H23_2 1_555 1_555
O1_2 H24_2 1_555 1_555
Mo1_4 O3_4 1_555 1_555
Al1_15 O3_4 1_555 1_555
Mo2_4 O7_4 1_555 1_555
O3_4 Mo3_4 1_555 1_555
Mo3_4 O5_4 1_555 1_555
O5_4 Al1_15 1_555 1_555
O7_4 Mo6_4 1_555 1_555
O9_4 Mo3_4 1_555 1_555
O10_4 Mo1_4 1_555 1_555
O11_4 Mo1_4 1_555 1_555
O13_4 Mo2_4 1_555 1_555
O16_4 Mo1_4 1_555 1_555
O18_4 Mo1_4 1_555 1_555
O19_4 Mo1_4 1_555 1_555
Mo4_4 O20_4 1_555 1_555
Mo5_4 O5_4 1_555 1_555
O20_4 Al1_15 1_555 1_555
Mo6_4 O20_4 1_555 1_555
O21_4 Al1_15 1_555 1_555
O22_4 Mo3_4 1_555 1_555
O23_4 Mo6_4 1_555 1_555
O24_4 Mo4_4 1_555 1_555
O25_4 Mo4_4 1_555 1_555
O26_4 Mo5_4 1_555 1_555
O27_4 Mo5_4 1_555 1_555
O28_4 Al1_15 1_555 1_555
O29_4 Mo6_4 1_555 1_555
O30_4 Mo4_4 1_555 1_555
O31_4 Mo4_4 1_555 1_555
Cu6 O27_4 1_555 1_555
Cu7_3 O29_4 1_555 1_555
Al1_15 O16_4 1_555 1_555
Mo2_4 O10_4 1_555 1_555
Mo2_4 O39_2 1_555 1_555
Mo2_4 O16_4 1_555 1_555
Mo2_4 O21_4 1_555 1_555
Mo3_4 O40_2 1_555 1_555
Mo3_4 O18_4 1_555 1_555
Mo4_4 O28_4 1_555 1_555
Mo5_4 O22_4 1_555 1_555
Mo5_4 O24_4 1_555 1_555
Mo5_4 O28_4 1_555 1_555
Mo6_4 O21_4 1_555 1_555
Mo6_4 O30_4 1_555 1_555
Cu4 O1_3 1_555 1_555
N1_3 Cu4 1_555 1_555
O2_3 Cu4 1_555 1_555
C2_3 H2_3 1_555 1_555
O8_3 Cu4 1_555 1_555
C7_3 N1_3 1_555 1_555
C9_3 N1_3 1_555 1_555
H8_3 C9_3 1_555 1_555
C2_3 C9_3 1_555 1_555
C7_3 C11_3 1_555 1_555
O8_3 H21_3 1_555 1_555
O8_3 H22_3 1_555 1_555
O1_3 H23_3 1_555 1_555
O1_3 H24_3 1_555 1_555
O15_3 C8_3 1_555 1_555
H5_3 C4_3 1_555 1_555
C1_3 H1_3 1_555 1_555
Cu7 O4_4 1_555 1_555
N2_3 C1_3 1_555 1_555
N3_3 H3_3 1_555 1_555
C3_3 C1_3 1_555 1_555
H4_3 C3_3 1_555 1_555
O6_4 Cu7 1_555 1_555
C5_3 C3_3 1_555 1_555
H6_3 C5_3 1_555 1_555
C6_3 N2_3 1_555 1_555
H7_3 C6_3 1_555 1_555
C10_3 N3_3 1_555 1_555
C12_3 N3_3 1_555 1_555
Cu7 N2_3 1_555 1_555
C5_3 C12_3 1_555 1_555
C6_3 C12_3 1_555 1_555
O6_4 H17_3 1_555 1_555
Cu4_2 O32_3 1_555 1_555
N4_3 Cu4_2 1_555 1_555
O33_3 Cu4_2 1_555 1_555
C14_3 H10_3 1_555 1_555
O34_3 Cu4_2 1_555 1_555
C19_3 N4_3 1_555 1_555
C20_3 O33_3 1_555 1_555
C21_3 N4_3 1_555 1_555
H16_3 C21_3 1_555 1_555
O36_3 C20_3 1_555 1_555
C14_3 C21_3 1_555 1_555
C19_3 C20_3 1_555 1_555
C19_3 C23_3 1_555 1_555
O34_3 H25_3 1_555 1_555
O34_3 H26_3 1_555 1_555
O32_3 H27_3 1_555 1_555
O32_3 H28_3 1_555 1_555
Cu7_2 O4_5 1_555 1_555
O6_5 Cu7_2 1_555 1_555
C13_3 H9_3 1_555 1_555
N5_3 Cu7_2 1_555 1_555
N6_3 H11_3 1_555 1_555
C15_3 C13_3 1_555 1_555
H12_3 C15_3 1_555 1_555
H13_3 C16_3 1_555 1_555
C17_3 C15_3 1_555 1_555
H14_3 C17_3 1_555 1_555
C18_3 N5_3 1_555 1_555
H15_3 C18_3 1_555 1_555
C22_3 N6_3 1_555 1_555
C24_3 N6_3 1_555 1_555
C13_3 N5_3 1_555 1_555
C17_3 C24_3 1_555 1_555
C18_3 C24_3 1_555 1_555
O6_5 H18_3 1_555 1_555
O6_4 H18_4 1_555 1_555
O6_5 H17_4 1_555 1_555
Cu5 O1_4 1_555 1_555
N1_4 Cu5 1_555 1_555
O2_4 Cu5 1_555 1_555
C2_4 H2_4 1_555 1_555
C4_4 C2_4 1_555 1_555
H5_4 C4_4 1_555 1_555
O8_4 Cu5 1_555 1_555
C7_4 N1_4 1_555 1_555
C9_4 N1_4 1_555 1_555
H8_4 C9_4 1_555 1_555
C11_4 C4_4 1_555 1_555
C2_4 C9_4 1_555 1_555
C7_4 C11_4 1_555 1_555
O8_4 H21_4 1_555 1_555
O8_4 H22_4 1_555 1_555
O1_4 H23_4 1_555 1_555
O1_4 H24_4 1_555 1_555
C1_4 H1_4 1_555 1_555
Cu7_3 O4_6 1_555 1_555
N2_4 C1_4 1_555 1_555
N3_4 H3_4 1_555 1_555
C3_4 C1_4 1_555 1_555
H4_4 C3_4 1_555 1_555
O6_6 Cu7_3 1_555 1_555
C5_4 C3_4 1_555 1_555
H6_4 C5_4 1_555 1_555
C6_4 N2_4 1_555 1_555
H7_4 C6_4 1_555 1_555
O37 C10_4 1_555 1_555
C10_4 N3_4 1_555 1_555
O15_4 C8_4 1_555 1_555
C12_4 N3_4 1_555 1_555
Cu6 O32_4 1_555 1_555
N4_4 Cu6 1_555 1_555
O33_4 Cu6 1_555 1_555
C13_4 H9_4 1_555 1_555
C14_4 H10_4 1_555 1_555
N5_4 Cu7_3 1_555 1_555
N6_4 H11_4 1_555 1_555
C15_4 C13_4 1_555 1_555
H12_4 C15_4 1_555 1_555
C16_4 C14_4 1_555 1_555
H13_4 C16_4 1_555 1_555
O34_4 Cu6 1_555 1_555
C17_4 C15_4 1_555 1_555
H14_4 C17_4 1_555 1_555
C18_4 N5_4 1_555 1_555
H15_4 C18_4 1_555 1_555
C19_4 N4_4 1_555 1_555
C20_4 O33_4 1_555 1_555
O38 C22_4 1_555 1_555
C21_4 N4_4 1_555 1_555
H16_4 C21_4 1_555 1_555
C22_4 N6_4 1_555 1_555
O36_4 C20_4 1_555 1_555
C23_4 C16_4 1_555 1_555
C24_4 N6_4 1_555 1_555
Cu7_3 N2_4 1_555 1_555
C5_4 C12_4 1_555 1_555
C6_4 C12_4 1_555 1_555
C13_4 N5_4 1_555 1_555
C14_4 C21_4 1_555 1_555
C17_4 C24_4 1_555 1_555
C18_4 C24_4 1_555 1_555
C19_4 C20_4 1_555 1_555
C19_4 C23_4 1_555 1_555
C22_4 C23_4 1_555 1_555
O34_4 H25_4 1_555 1_555
O34_4 H26_4 1_555 1_555
O32_4 H27_4 1_555 1_555
O32_4 H28_4 1_555 1_555

#END
