
###############################################################################
#
# This file contains modified crystal structure data generated from the
# MOF subset of the Cambridge Structural Database (CSD) v543 
# hosted by the Cambridge Crystallographic Data Centre (CCDC).
#
# This work is licensed under the Creative Commons
# Attribution-NonCommercial-ShareAlike 4.0 International License.
# To view a copy of this license, visit
# http://creativecommons.org/licenses/by-nc-sa/4.0/
# or send a letter to
# Creative Commons, PO Box 1866, Mountain View, CA 94042, USA.
#
# CIF created using the CSD Python API on 29 September 2022
# The structure has been converted into the P1 space group
# The structure has a 3D framework
# The original CSD entry JUFDUM is in the rhombohedral crystal system
# The framework has been calculated to contain at least 10.0% void space
# The void calculation uses a probe of radius 1.32A, grid spacing 0.4
#
###############################################################################

data_JUFDUM
_chemical_formula_moiety         '(C432 H360 Cu100 I36 N72 O164)n'
_symmetry_cell_setting           triclinic
_symmetry_space_group_name_H-M   'P 1'
_symmetry_Int_Tables_number      1
_space_group_name_Hall           'P 1'
loop_
_symmetry_equiv_pos_site_id
_symmetry_equiv_pos_as_xyz
1 x,y,z
_cell_length_a                   49.2699(9)
_cell_length_b                   49.2699(9)
_cell_length_c                   35.3426(14)
_cell_angle_alpha                90
_cell_angle_beta                 90
_cell_angle_gamma                120
_cell_volume                     74300.6
loop_
_atom_site_label
_atom_site_type_symbol
_atom_site_fract_x
_atom_site_fract_y
_atom_site_fract_z
Cu1 Cu 0.25956(4) 0.33393(4) 0.04627(3)
Cu2 Cu 0.28160(4) 0.30202(4) 0.08303(3)
Cu3 Cu 0.30323(3) 0.14514(3) 0.17192(3)
I1 I 0.30856(2) 0.32989(2) 0.01912(2)
I2 I 0.22048(2) 0.28008(2) 0.08370(2)
O1 O 0.29451(18) 0.17521(19) 0.14664(18)
O2 O 0.25614(18) 0.11029(19) 0.1810(2)
H1 H 0.2468 0.1102 0.2012
H2 H 0.2465 0.0962 0.1643
O3 O 0.3453(2) 0.21105(16) 0.13749(15)
N2 N 0.2894(4) 0.2677(4) 0.0942(3)
H4 H 0.2450 0.3761 0.0015
C3 C 0.2782(4) 0.2174(3) 0.1206(3)
H5 H 0.2632 0.1980 0.1301
C4 C 0.3304(3) 0.2529(4) 0.1031(3)
H6 H 0.3516 0.2594 0.1002
C5 C 0.2691(3) 0.2389(3) 0.1082(4)
H7 H 0.2480 0.2331 0.1098
C6 C 0.3089(4) 0.2247(4) 0.1186(3)
C7 C 0.3165(3) 0.2014(3) 0.1355(2)
C11 C 0.3159(5) 0.2720(3) 0.0912(3)
H10 H 0.3298 0.2907 0.0792
Cu4 Cu 0.25896(6) 0.33274(4) 0.12040(3)
Cu5 Cu 0.31291(6) 0.36465(4) 0.08364(3)
Cu8 Cu 0.36344(3) 0.18819(3) 0.16141(3)
I3 I 0.31200(3) 0.33678(2) 0.14755(2)
I4 I 0.27373(3) 0.38659(2) 0.08297(2)
O6 O 0.3214(2) 0.12228(16) 0.19584(15)
O7 O 0.30973(19) 0.16867(33) 0.21986(15)
O8 O 0.3069(2) 0.12939(34) 0.12349(18)
O4 O 0.19228(27) 0.35694(19) 0.88653(15)
O5 O 0.17751(28) 0.3069(2) 0.87651(18)
N1 N 0.2356(2) 0.3333(3) 0.9990(2)
C1 C 0.2205(3) 0.3077(3) 0.9795(3)
H3 H 0.2186 0.2893 0.9893
C2 C 0.2355(3) 0.3582(3) 0.9866(3)
C8 C 0.2068(3) 0.3329(4) 0.9328(2)
C9 C 0.2222(3) 0.3599(3) 0.9523(3)
H8 H 0.2238 0.3784 0.9435
C10 C 0.2067(3) 0.3067(3) 0.9437(3)
H9 H 0.1981 0.2888 0.9286
C12 C 0.1917(4) 0.3323(3) 0.8946(3)
Cu6 Cu 0.17524(4) 0.36344(3) 0.83859(3)
Cu7 Cu 0.15809(4) 0.30323(3) 0.82808(3)
Cu3_2 Cu 0.85486(3) 0.15809(4) 0.17192(3)
O1_2 O 0.82479(19) 0.11930(26) 0.14664(18)
O2_2 O 0.88971(19) 0.14585(26) 0.1810(2)
H1_2 H 0.8898 0.1366 0.2012
H2_2 H 0.9038 0.1503 0.1643
O3_2 O 0.78895(16) 0.13425(26) 0.13749(15)
N2_2 N 0.7323(4) 0.0217(6) 0.0942(3)
C3_2 C 0.7826(3) 0.0608(5) 0.1206(3)
H5_2 H 0.8020 0.0652 0.1301
C4_2 C 0.7471(4) 0.0775(5) 0.1031(3)
H6_2 H 0.7406 0.0922 0.1002
C5_2 C 0.7611(3) 0.0302(4) 0.1082(4)
H7_2 H 0.7669 0.0149 0.1098
C6_2 C 0.7753(4) 0.0842(6) 0.1186(3)
C7_2 C 0.7986(3) 0.1151(4) 0.1355(2)
C11_2 C 0.7280(3) 0.0439(6) 0.0912(3)
H10_2 H 0.7093 0.0391 0.0792
Cu8_2 Cu 0.81181(3) 0.17524(4) 0.16141(3)
O6_2 O 0.87772(16) 0.19908(26) 0.19584(15)
O7_2 O 0.83133(33) 0.14105(38) 0.21986(15)
O8_2 O 0.87061(34) 0.17751(39) 0.12349(18)
Cu1_2 Cu 0.66607(4) 0.92563(6) 0.04627(3)
Cu2_2 Cu 0.69798(4) 0.97958(6) 0.08303(3)
I1_2 I 0.67011(2) 0.97867(3) 0.01912(2)
I2_2 I 0.71992(2) 0.94040(3) 0.08370(2)
H4_2 H 0.6239 0.8689 0.0015
Cu4_2 Cu 0.66726(4) 0.92623(7) 0.12040(3)
Cu5_2 Cu 0.63535(4) 0.94827(7) 0.08364(3)
I3_2 I 0.66322(2) 0.97523(4) 0.14755(2)
I4_2 I 0.61341(2) 0.88715(4) 0.08297(2)
O4_2 O 0.64306(19) 0.83534(33) 0.88653(15)
O5_2 O 0.6931(2) 0.87061(34) 0.87651(18)
N1_2 N 0.6667(3) 0.9023(4) 0.9990(2)
C1_2 C 0.6923(3) 0.9128(4) 0.9795(3)
H3_2 H 0.7107 0.9293 0.9893
C2_2 C 0.6418(3) 0.8773(4) 0.9866(3)
C8_2 C 0.6671(4) 0.8739(5) 0.9328(2)
C9_2 C 0.6401(3) 0.8623(4) 0.9523(3)
H8_2 H 0.6216 0.8454 0.9435
C10_2 C 0.6933(3) 0.9000(4) 0.9437(3)
H9_2 H 0.7112 0.9093 0.9286
C12_2 C 0.6677(3) 0.8594(5) 0.8946(3)
Cu6_2 Cu 0.63656(3) 0.81181(5) 0.83859(3)
Cu7_2 Cu 0.69677(3) 0.85486(5) 0.82808(3)
Cu1_3 Cu 0.07437(6) 0.74044(4) 0.04627(3)
Cu2_3 Cu 0.02042(6) 0.71840(4) 0.08303(3)
I1_3 I 0.02133(3) 0.69144(2) 0.01912(2)
I2_3 I 0.05960(3) 0.77952(2) 0.08370(2)
H4_3 H 0.1311 0.7550 0.0015
Cu4_3 Cu 0.07377(7) 0.74104(6) 0.12040(3)
Cu5_3 Cu 0.05173(7) 0.68709(6) 0.08364(3)
I3_3 I 0.02477(4) 0.68800(3) 0.14755(2)
I4_3 I 0.11285(4) 0.72627(3) 0.08297(2)
O4_3 O 0.16466(33) 0.80772(27) 0.88653(15)
O5_3 O 0.12939(34) 0.82249(28) 0.87651(18)
N1_3 N 0.0977(4) 0.7644(2) 0.9990(2)
C1_3 C 0.0872(4) 0.7795(3) 0.9795(3)
H3_3 H 0.0707 0.7814 0.9893
C2_3 C 0.1227(4) 0.7645(3) 0.9866(3)
C8_3 C 0.1261(5) 0.7932(3) 0.9328(2)
C9_3 C 0.1377(4) 0.7778(3) 0.9523(3)
H8_3 H 0.1546 0.7762 0.9435
C10_3 C 0.1000(4) 0.7933(3) 0.9437(3)
H9_3 H 0.0907 0.8019 0.9286
C12_3 C 0.1406(5) 0.8083(4) 0.8946(3)
Cu6_3 Cu 0.18819(5) 0.82476(4) 0.83859(3)
Cu7_3 Cu 0.14514(5) 0.84191(4) 0.82808(3)
Cu3_3 Cu 0.84191(4) 0.69677(3) 0.17192(3)
O1_3 O 0.88070(26) 0.70549(18) 0.14664(18)
O2_3 O 0.85415(26) 0.74386(18) 0.1810(2)
H1_3 H 0.8634 0.7532 0.2012
H2_3 H 0.8497 0.7535 0.1643
O3_3 O 0.86575(26) 0.6547(2) 0.13749(15)
N2_3 N 0.9783(6) 0.7106(4) 0.0942(3)
C3_3 C 0.9392(5) 0.7218(4) 0.1206(3)
H5_3 H 0.9348 0.7368 0.1301
C4_3 C 0.9225(5) 0.6696(3) 0.1031(3)
H6_3 H 0.9078 0.6484 0.1002
C5_3 C 0.9698(4) 0.7309(3) 0.1082(4)
H7_3 H 0.9851 0.7520 0.1098
C6_3 C 0.9158(6) 0.6911(4) 0.1186(3)
C7_3 C 0.8849(4) 0.6835(3) 0.1355(2)
C11_3 C 0.9561(6) 0.6841(5) 0.0912(3)
H10_3 H 0.9609 0.6702 0.0792
Cu8_3 Cu 0.82476(4) 0.63656(3) 0.16141(3)
O6_3 O 0.80092(26) 0.6786(2) 0.19584(15)
O7_3 O 0.85895(38) 0.69027(19) 0.21986(15)
O8_3 O 0.82249(39) 0.6931(2) 0.12349(18)
Cu1_4 Cu 0.33393(4) 0.25956(4) 0.45373(3)
Cu2_4 Cu 0.30202(4) 0.28160(4) 0.41697(3)
Cu3_4 Cu 0.14514(3) 0.30323(3) 0.32808(3)
I1_4 I 0.32989(2) 0.30856(2) 0.48088(2)
I2_4 I 0.28008(2) 0.22048(2) 0.41630(2)
O1_4 O 0.17521(19) 0.29451(18) 0.35336(18)
O2_4 O 0.11029(19) 0.25614(18) 0.3190(2)
H1_4 H 0.1102 0.2468 0.2988
H2_4 H 0.0962 0.2465 0.3357
O3_4 O 0.21105(16) 0.3453(2) 0.36251(15)
O4_4 O 0.35694(19) 0.19228(27) 0.61347(15)
O5_4 O 0.3069(2) 0.17751(28) 0.62349(18)
N1_4 N 0.3333(3) 0.2356(2) 0.5010(2)
N2_4 N 0.2677(4) 0.2894(4) 0.4058(3)
C1_4 C 0.3077(3) 0.2205(3) 0.5205(3)
H3_4 H 0.2893 0.2186 0.5107
C2_4 C 0.3582(3) 0.2355(3) 0.5134(3)
H4_4 H 0.3761 0.2450 0.4985
C3_4 C 0.2174(3) 0.2782(4) 0.3794(3)
H5_4 H 0.1980 0.2632 0.3699
C4_4 C 0.2529(4) 0.3304(3) 0.3969(3)
H6_4 H 0.2594 0.3516 0.3998
C5_4 C 0.2389(3) 0.2691(3) 0.3918(4)
H7_4 H 0.2331 0.2480 0.3902
C6_4 C 0.2247(4) 0.3089(4) 0.3814(3)
C7_4 C 0.2014(3) 0.3165(3) 0.3645(2)
C8_4 C 0.3329(4) 0.2068(3) 0.5672(2)
C9_4 C 0.3599(3) 0.2222(3) 0.5477(3)
H8_4 H 0.3784 0.2238 0.5565
C10_4 C 0.3067(3) 0.2067(3) 0.5563(3)
H9_4 H 0.2888 0.1981 0.5714
C11_4 C 0.2720(3) 0.3159(5) 0.4088(3)
H10_4 H 0.2907 0.3298 0.4208
C12_4 C 0.3323(3) 0.1917(4) 0.6054(3)
Cu4_4 Cu 0.33274(4) 0.25896(6) 0.37960(3)
Cu5_4 Cu 0.36465(4) 0.31291(6) 0.41636(3)
Cu6_4 Cu 0.36344(3) 0.17524(4) 0.66141(3)
Cu7_4 Cu 0.30323(3) 0.15809(4) 0.67192(3)
Cu8_4 Cu 0.18819(3) 0.36344(3) 0.33859(3)
I3_4 I 0.33678(2) 0.31200(3) 0.35245(2)
I4_4 I 0.38659(2) 0.27373(3) 0.41703(2)
O6_4 O 0.12228(16) 0.3214(2) 0.30416(15)
O7_4 O 0.16867(33) 0.30973(19) 0.28014(15)
O8_4 O 0.12939(34) 0.3069(2) 0.37651(18)
Cu1_5 Cu 0.74044(4) 0.07437(6) 0.45373(3)
Cu2_5 Cu 0.71840(4) 0.02042(6) 0.41697(3)
I1_5 I 0.69144(2) 0.02133(3) 0.48088(2)
I2_5 I 0.77952(2) 0.05960(3) 0.41630(2)
O4_5 O 0.80772(27) 0.16466(33) 0.61347(15)
O5_5 O 0.82249(28) 0.12939(34) 0.62349(18)
N1_5 N 0.7644(2) 0.0977(4) 0.5010(2)
C1_5 C 0.7795(3) 0.0872(4) 0.5205(3)
H3_5 H 0.7814 0.0707 0.5107
C2_5 C 0.7645(3) 0.1227(4) 0.5134(3)
H4_5 H 0.7550 0.1311 0.4985
C8_5 C 0.7932(3) 0.1261(5) 0.5672(2)
C9_5 C 0.7778(3) 0.1377(4) 0.5477(3)
H8_5 H 0.7762 0.1546 0.5565
C10_5 C 0.7933(3) 0.1000(4) 0.5563(3)
H9_5 H 0.8019 0.0907 0.5714
C12_5 C 0.8083(4) 0.1406(5) 0.6054(3)
Cu4_5 Cu 0.74104(6) 0.07377(7) 0.37960(3)
Cu5_5 Cu 0.68709(6) 0.05173(7) 0.41636(3)
Cu6_5 Cu 0.82476(4) 0.18819(5) 0.66141(3)
Cu7_5 Cu 0.84191(4) 0.14514(5) 0.67192(3)
I3_5 I 0.68800(3) 0.02477(4) 0.35245(2)
I4_5 I 0.72627(3) 0.11285(4) 0.41703(2)
Cu3_5 Cu 0.69677(3) 0.84191(4) 0.32808(3)
O1_5 O 0.70549(18) 0.88070(26) 0.35336(18)
O2_5 O 0.74386(18) 0.85415(26) 0.3190(2)
H1_5 H 0.7532 0.8634 0.2988
H2_5 H 0.7535 0.8497 0.3357
O3_5 O 0.6547(2) 0.86575(26) 0.36251(15)
N2_5 N 0.7106(4) 0.9783(6) 0.4058(3)
C3_5 C 0.7218(4) 0.9392(5) 0.3794(3)
H5_5 H 0.7368 0.9348 0.3699
C4_5 C 0.6696(3) 0.9225(5) 0.3969(3)
H6_5 H 0.6484 0.9078 0.3998
C5_5 C 0.7309(3) 0.9698(4) 0.3918(4)
H7_5 H 0.7520 0.9851 0.3902
C6_5 C 0.6911(4) 0.9158(6) 0.3814(3)
C7_5 C 0.6835(3) 0.8849(4) 0.3645(2)
C11_5 C 0.6841(5) 0.9561(6) 0.4088(3)
H10_5 H 0.6702 0.9609 0.4208
Cu8_5 Cu 0.63656(3) 0.82476(4) 0.33859(3)
O6_5 O 0.6786(2) 0.80092(26) 0.30416(15)
O7_5 O 0.69027(19) 0.85895(38) 0.28014(15)
O8_5 O 0.6931(2) 0.82249(39) 0.37651(18)
Cu3_6 Cu 0.15809(4) 0.85486(3) 0.32808(3)
O1_6 O 0.11930(26) 0.82479(19) 0.35336(18)
O2_6 O 0.14585(26) 0.88971(19) 0.3190(2)
H1_6 H 0.1366 0.8898 0.2988
H2_6 H 0.1503 0.9038 0.3357
O3_6 O 0.13425(26) 0.78895(16) 0.36251(15)
N2_6 N 0.0217(6) 0.7323(4) 0.4058(3)
C3_6 C 0.0608(5) 0.7826(3) 0.3794(3)
H5_6 H 0.0652 0.8020 0.3699
C4_6 C 0.0775(5) 0.7471(4) 0.3969(3)
H6_6 H 0.0922 0.7406 0.3998
C5_6 C 0.0302(4) 0.7611(3) 0.3918(4)
H7_6 H 0.0149 0.7669 0.3902
C6_6 C 0.0842(6) 0.7753(4) 0.3814(3)
C7_6 C 0.1151(4) 0.7986(3) 0.3645(2)
C11_6 C 0.0439(6) 0.7280(3) 0.4088(3)
H10_6 H 0.0391 0.7093 0.4208
Cu8_6 Cu 0.17524(4) 0.81181(3) 0.33859(3)
O6_6 O 0.19908(26) 0.87772(16) 0.30416(15)
O7_6 O 0.14105(38) 0.83133(33) 0.28014(15)
O8_6 O 0.17751(39) 0.87061(34) 0.37651(18)
Cu1_6 Cu 0.92563(6) 0.66607(4) 0.45373(3)
Cu2_6 Cu 0.97958(6) 0.69798(4) 0.41697(3)
I1_6 I 0.97867(3) 0.67011(2) 0.48088(2)
I2_6 I 0.94040(3) 0.71992(2) 0.41630(2)
O4_6 O 0.83534(33) 0.64306(19) 0.61347(15)
O5_6 O 0.87061(34) 0.6931(2) 0.62349(18)
N1_6 N 0.9023(4) 0.6667(3) 0.5010(2)
C1_6 C 0.9128(4) 0.6923(3) 0.5205(3)
H3_6 H 0.9293 0.7107 0.5107
C2_6 C 0.8773(4) 0.6418(3) 0.5134(3)
H4_6 H 0.8689 0.6239 0.4985
C8_6 C 0.8739(5) 0.6671(4) 0.5672(2)
C9_6 C 0.8623(4) 0.6401(3) 0.5477(3)
H8_6 H 0.8454 0.6216 0.5565
C10_6 C 0.9000(4) 0.6933(3) 0.5563(3)
H9_6 H 0.9093 0.7112 0.5714
C12_6 C 0.8594(5) 0.6677(3) 0.6054(3)
Cu4_6 Cu 0.92623(7) 0.66726(4) 0.37960(3)
Cu5_6 Cu 0.94827(7) 0.63535(4) 0.41636(3)
Cu6_6 Cu 0.81181(5) 0.63656(3) 0.66141(3)
Cu7_6 Cu 0.85486(5) 0.69677(3) 0.67192(3)
I3_6 I 0.97523(4) 0.66322(2) 0.35245(2)
I4_6 I 0.88715(4) 0.61341(2) 0.41703(2)
O3_7 O 0.0120(2) 0.54438(16) 0.47082(15)
H6_7 H 0.0183 0.5927 0.4335
Cu8_7 Cu 0.03010(3) 0.52153(3) 0.49475(3)
Cu3_7 Cu 0.96990(3) 0.47847(3) 0.50525(3)
O1_7 O 0.96118(18) 0.50854(19) 0.47997(18)
O2_7 O 0.92281(18) 0.44362(19) 0.5143(2)
H1_7 H 0.9135 0.4435 0.5345
H2_7 H 0.9132 0.4295 0.4976
O5_7 O 0.84418(28) 0.6402(2) 0.20984(18)
N1_7 N 0.9023(2) 0.6666(3) 0.3323(2)
N2_7 N 0.9561(4) 0.6010(4) 0.4275(3)
C1_7 C 0.8872(3) 0.6410(3) 0.3128(3)
H3_7 H 0.8853 0.6226 0.3226
C2_7 C 0.9022(3) 0.6915(3) 0.3199(3)
H4_7 H 0.9117 0.7094 0.3348
C3_7 C 0.9449(4) 0.5507(3) 0.4539(3)
H5_7 H 0.9299 0.5313 0.4634
C4_7 C 0.9971(3) 0.5862(4) 0.4364(3)
C5_7 C 0.9358(3) 0.5722(3) 0.4415(4)
H7_7 H 0.9147 0.5664 0.4431
C6_7 C 0.9756(4) 0.5580(4) 0.4519(3)
C7_7 C 0.9832(3) 0.5347(3) 0.4688(2)
C8_7 C 0.8735(3) 0.6662(4) 0.2661(2)
C9_7 C 0.8889(3) 0.6932(3) 0.2856(3)
H8_7 H 0.8905 0.7117 0.2768
C10_7 C 0.8734(3) 0.6400(3) 0.2770(3)
H9_7 H 0.8648 0.6221 0.2619
C11_7 C 0.9826(5) 0.6053(3) 0.4245(3)
H10_7 H 0.9965 0.6240 0.4125
C12_7 C 0.8584(4) 0.6656(3) 0.2279(3)
O6_7 O 0.9880(2) 0.45562(16) 0.52918(15)
O7_7 O 0.97639(19) 0.50201(33) 0.55320(15)
O8_7 O 0.9736(2) 0.46272(34) 0.45682(18)
Cu3_8 Cu 0.52153(3) 0.49142(4) 0.50525(3)
O1_8 O 0.49146(19) 0.45263(26) 0.47997(18)
O2_8 O 0.55638(19) 0.47918(26) 0.5143(2)
H1_8 H 0.5565 0.4699 0.5345
H2_8 H 0.5705 0.4836 0.4976
O3_8 O 0.45562(16) 0.46758(26) 0.47082(15)
O5_8 O 0.3598(2) 0.20394(34) 0.20984(18)
N1_8 N 0.3334(3) 0.2356(4) 0.3323(2)
N2_8 N 0.3990(4) 0.3550(6) 0.4275(3)
C1_8 C 0.3590(3) 0.2461(4) 0.3128(3)
H3_8 H 0.3774 0.2626 0.3226
C2_8 C 0.3085(3) 0.2106(4) 0.3199(3)
H4_8 H 0.2906 0.2022 0.3348
C3_8 C 0.4493(3) 0.3941(5) 0.4539(3)
H5_8 H 0.4687 0.3985 0.4634
C4_8 C 0.4138(4) 0.4108(5) 0.4364(3)
H6_8 H 0.4073 0.4255 0.4335
C5_8 C 0.4278(3) 0.3635(4) 0.4415(4)
H7_8 H 0.4336 0.3482 0.4431
C6_8 C 0.4420(4) 0.4175(6) 0.4519(3)
C7_8 C 0.4653(3) 0.4484(4) 0.4688(2)
C8_8 C 0.3338(4) 0.2072(5) 0.2661(2)
C9_8 C 0.3068(3) 0.1956(4) 0.2856(3)
H8_8 H 0.2883 0.1787 0.2768
C10_8 C 0.3600(3) 0.2333(4) 0.2770(3)
H9_8 H 0.3779 0.2426 0.2619
C11_8 C 0.3947(3) 0.3772(6) 0.4245(3)
H10_8 H 0.3760 0.3724 0.4125
C12_8 C 0.3344(3) 0.1927(5) 0.2279(3)
Cu8_8 Cu 0.47847(3) 0.50858(4) 0.49475(3)
O6_8 O 0.54438(16) 0.53242(26) 0.52918(15)
O7_8 O 0.49799(33) 0.47439(38) 0.55320(15)
O8_8 O 0.53728(34) 0.51084(39) 0.45682(18)
Cu3_9 Cu 0.50858(4) 0.03010(3) 0.50525(3)
O1_9 O 0.54737(26) 0.03882(18) 0.47997(18)
O2_9 O 0.52082(26) 0.07719(18) 0.5143(2)
H1_9 H 0.5301 0.0865 0.5345
H2_9 H 0.5164 0.0868 0.4976
O5_9 O 0.79606(34) 0.15582(28) 0.20984(18)
N1_9 N 0.7644(4) 0.0977(2) 0.3323(2)
N2_9 N 0.6450(6) 0.0439(4) 0.4275(3)
C1_9 C 0.7539(4) 0.1128(3) 0.3128(3)
H3_9 H 0.7374 0.1147 0.3226
C2_9 C 0.7894(4) 0.0978(3) 0.3199(3)
H4_9 H 0.7978 0.0883 0.3348
C3_9 C 0.6059(5) 0.0551(4) 0.4539(3)
H5_9 H 0.6015 0.0701 0.4634
C4_9 C 0.5892(5) 0.0029(3) 0.4364(3)
C5_9 C 0.6365(4) 0.0642(3) 0.4415(4)
H7_9 H 0.6518 0.0853 0.4431
C6_9 C 0.5825(6) 0.0244(4) 0.4519(3)
C7_9 C 0.5516(4) 0.0168(3) 0.4688(2)
C8_9 C 0.7928(5) 0.1265(3) 0.2661(2)
C9_9 C 0.8044(4) 0.1111(3) 0.2856(3)
H8_9 H 0.8213 0.1095 0.2768
C10_9 C 0.7667(4) 0.1266(3) 0.2770(3)
H9_9 H 0.7574 0.1352 0.2619
C11_9 C 0.6228(6) 0.0174(5) 0.4245(3)
H10_9 H 0.6276 0.0035 0.4125
C12_9 C 0.8073(5) 0.1416(4) 0.2279(3)
O6_9 O 0.46758(26) 0.0120(2) 0.52918(15)
O7_9 O 0.52561(38) 0.02361(19) 0.55320(15)
O8_9 O 0.48916(39) 0.0264(2) 0.45682(18)
O3_9 O 0.53242(26) 0.9880(2) 0.47082(15)
H6_9 H 0.5745 0.9817 0.4335
Cu8_9 Cu 0.49142(4) 0.96990(3) 0.49475(3)
Cu1_7 Cu 0.00060(4) 0.59289(4) 0.78706(3)
O4_7 O 0.02361(19) 0.52561(27) 0.94680(15)
C2_10 C 0.0249(3) 0.5688(3) 0.8467(3)
H4_10 H 0.0428 0.5783 0.8318
C9_10 C 0.0266(3) 0.5555(3) 0.8810(3)
H8_10 H 0.0451 0.5571 0.8898
Cu5_7 Cu 0.03131(4) 0.64625(6) 0.74970(3)
Cu6_7 Cu 0.03010(3) 0.50858(4) 0.99475(3)
I3_7 I 0.00344(2) 0.64534(3) 0.68579(2)
I4_7 I 0.05325(2) 0.60707(3) 0.75037(2)
Cu7_7 Cu 0.96990(3) 0.49142(4) 0.00525(3)
Cu2_7 Cu 0.96869(4) 0.61493(4) 0.75030(3)
I1_7 I 0.99656(2) 0.64189(2) 0.81421(2)
I2_7 I 0.94675(2) 0.55381(2) 0.74963(2)
O1_10 O 0.84188(19) 0.62784(18) 0.68669(18)
O2_10 O 0.77696(19) 0.58947(18) 0.6523(2)
H1_10 H 0.7769 0.5801 0.6321
H2_10 H 0.7629 0.5798 0.6690
O3_10 O 0.87772(16) 0.6786(2) 0.69584(15)
O5_10 O 0.9736(2) 0.51084(28) 0.95682(18)
N1_10 N 1.0000(3) 0.5689(2) 0.8343(2)
N2_10 N 0.9344(4) 0.6227(4) 0.7391(3)
C1_10 C 0.9744(3) 0.5538(3) 0.8538(3)
H3_10 H 0.9560 0.5519 0.8440
C3_10 C 0.8841(3) 0.6115(4) 0.7127(3)
H5_10 H 0.8647 0.5965 0.7032
C4_10 C 0.9196(4) 0.6637(3) 0.7302(3)
H6_10 H 0.9261 0.6849 0.7331
C5_10 C 0.9056(3) 0.6024(3) 0.7251(4)
H7_10 H 0.8998 0.5813 0.7235
C6_10 C 0.8914(4) 0.6422(4) 0.7147(3)
C7_10 C 0.8681(3) 0.6498(3) 0.6978(2)
C8_10 C 0.9996(4) 0.5401(3) 0.9005(2)
C10_10 C 0.9734(3) 0.5400(3) 0.8896(3)
H9_10 H 0.9555 0.5314 0.9047
C11_10 C 0.9387(3) 0.6492(5) 0.7421(3)
H10_10 H 0.9574 0.6631 0.7541
C12_10 C 0.9990(3) 0.5250(4) 0.9387(3)
Cu4_7 Cu 0.99940(4) 0.59230(6) 0.71294(3)
O6_10 O 0.78895(16) 0.6547(2) 0.63749(15)
O8_10 O 0.79606(34) 0.6402(2) 0.70984(18)
Cu7_8 Cu 0.50858(4) 0.47847(5) 0.00525(3)
Cu1_8 Cu 0.40711(4) 0.40770(6) 0.78706(3)
Cu2_8 Cu 0.38507(4) 0.35375(6) 0.75030(3)
I1_8 I 0.35811(2) 0.35466(3) 0.81421(2)
I2_8 I 0.44619(2) 0.39293(3) 0.74963(2)
O1_11 O 0.37216(18) 0.21403(26) 0.68669(18)
O2_11 O 0.41053(18) 0.18748(26) 0.6523(2)
H1_11 H 0.4199 0.1967 0.6321
H2_11 H 0.4202 0.1830 0.6690
O3_11 O 0.3214(2) 0.19908(26) 0.69584(15)
O4_8 O 0.47439(27) 0.49799(33) 0.94680(15)
O5_11 O 0.48916(28) 0.46272(34) 0.95682(18)
N1_11 N 0.4311(2) 0.4310(4) 0.8343(2)
N2_11 N 0.3773(4) 0.3116(6) 0.7391(3)
C1_11 C 0.4462(3) 0.4205(4) 0.8538(3)
H3_11 H 0.4481 0.4040 0.8440
C2_11 C 0.4312(3) 0.4560(4) 0.8467(3)
H4_11 H 0.4217 0.4644 0.8318
C3_11 C 0.3885(4) 0.2725(5) 0.7127(3)
H5_11 H 0.4035 0.2681 0.7032
C4_11 C 0.3363(3) 0.2558(5) 0.7302(3)
H6_11 H 0.3151 0.2411 0.7331
C5_11 C 0.3976(3) 0.3031(4) 0.7251(4)
H7_11 H 0.4187 0.3184 0.7235
C6_11 C 0.3578(4) 0.2491(6) 0.7147(3)
C7_11 C 0.3502(3) 0.2182(4) 0.6978(2)
C8_11 C 0.4599(3) 0.4594(5) 0.9005(2)
C9_11 C 0.4445(3) 0.4710(4) 0.8810(3)
H8_11 H 0.4429 0.4879 0.8898
C10_11 C 0.4600(3) 0.4333(4) 0.8896(3)
H9_11 H 0.4686 0.4240 0.9047
C11_11 C 0.3508(5) 0.2894(6) 0.7421(3)
H10_11 H 0.3369 0.2942 0.7541
C12_11 C 0.4750(4) 0.4739(5) 0.9387(3)
Cu4_8 Cu 0.40770(6) 0.40711(7) 0.71294(3)
Cu5_8 Cu 0.35375(6) 0.38507(7) 0.74970(3)
Cu6_8 Cu 0.49142(4) 0.52153(5) 0.99475(3)
I3_8 I 0.35466(3) 0.35811(4) 0.68579(2)
I4_8 I 0.39293(3) 0.44619(4) 0.75037(2)
O6_11 O 0.3453(2) 0.13425(26) 0.63749(15)
O8_11 O 0.3598(2) 0.15582(39) 0.70984(18)
Cu7_9 Cu 0.52153(5) 0.03010(3) 0.00525(3)
Cu2_9 Cu 0.64625(6) 0.03131(4) 0.75030(3)
I1_9 I 0.64534(3) 0.00344(2) 0.81421(2)
I2_9 I 0.60707(3) 0.05325(2) 0.74963(2)
O1_12 O 0.78597(26) 0.15812(19) 0.68669(18)
O2_12 O 0.81252(26) 0.22304(19) 0.6523(2)
H1_12 H 0.8033 0.2231 0.6321
H2_12 H 0.8170 0.2371 0.6690
O3_12 O 0.80092(26) 0.12228(16) 0.69584(15)
O5_12 O 0.53728(34) 0.0264(2) 0.95682(18)
N1_12 N 0.5690(4) 0.0000(3) 0.8343(2)
N2_12 N 0.6884(6) 0.0656(4) 0.7391(3)
C1_12 C 0.5795(4) 0.0256(3) 0.8538(3)
H3_12 H 0.5960 0.0440 0.8440
C3_12 C 0.7275(5) 0.1159(3) 0.7127(3)
H5_12 H 0.7319 0.1353 0.7032
C4_12 C 0.7442(5) 0.0804(4) 0.7302(3)
H6_12 H 0.7589 0.0739 0.7331
C5_12 C 0.6969(4) 0.0944(3) 0.7251(4)
H7_12 H 0.6816 0.1002 0.7235
C6_12 C 0.7509(6) 0.1086(4) 0.7147(3)
C7_12 C 0.7818(4) 0.1319(3) 0.6978(2)
C8_12 C 0.5406(5) 0.0004(4) 0.9005(2)
C10_12 C 0.5667(4) 0.0266(3) 0.8896(3)
H9_12 H 0.5760 0.0445 0.9047
C11_12 C 0.7106(6) 0.0613(3) 0.7421(3)
H10_12 H 0.7058 0.0426 0.7541
C12_12 C 0.5261(5) 0.0010(3) 0.9387(3)
Cu4_9 Cu 0.59289(7) 0.00060(4) 0.71294(3)
O6_12 O 0.86575(26) 0.21105(16) 0.63749(15)
O8_12 O 0.84418(39) 0.20394(34) 0.70984(18)
Cu1_9 Cu 0.59230(6) 0.99940(4) 0.78706(3)
O4_9 O 0.50201(33) 0.97639(19) 0.94680(15)
C2_12 C 0.5440(4) 0.9751(3) 0.8467(3)
H4_12 H 0.5356 0.9572 0.8318
C9_12 C 0.5290(4) 0.9734(3) 0.8810(3)
H8_12 H 0.5121 0.9549 0.8898
Cu5_9 Cu 0.61493(7) 0.96869(4) 0.74970(3)
Cu6_9 Cu 0.47847(5) 0.96990(3) 0.99475(3)
I3_9 I 0.64189(4) 0.99656(2) 0.68579(2)
I4_9 I 0.55381(4) 0.94675(2) 0.75037(2)
C2_13 C 0.5688(3) 0.0249(3) 0.6533(3)
H4_13 H 0.5783 0.0428 0.6682
C9_13 C 0.5555(3) 0.0266(3) 0.6190(3)
H8_13 H 0.5571 0.0451 0.6102
O1_13 O 0.62784(18) 0.84188(19) 0.81331(18)
O2_13 O 0.58947(18) 0.77696(19) 0.8477(2)
H1_13 H 0.5801 0.7769 0.8679
H2_13 H 0.5798 0.7629 0.8310
O3_13 O 0.6786(2) 0.87772(16) 0.80416(15)
O5_13 O 0.51084(28) 0.9736(2) 0.54318(18)
N1_13 N 0.5689(2) 1.0000(3) 0.6657(2)
N2_13 N 0.6227(4) 0.9344(4) 0.7609(3)
C1_13 C 0.5538(3) 0.9744(3) 0.6462(3)
H3_13 H 0.5519 0.9560 0.6560
C3_13 C 0.6115(4) 0.8841(3) 0.7873(3)
H5_13 H 0.5965 0.8647 0.7968
C4_13 C 0.6637(3) 0.9196(4) 0.7698(3)
H6_13 H 0.6849 0.9261 0.7669
C5_13 C 0.6024(3) 0.9056(3) 0.7749(4)
H7_13 H 0.5813 0.8998 0.7765
C6_13 C 0.6422(4) 0.8914(4) 0.7853(3)
C7_13 C 0.6498(3) 0.8681(3) 0.8022(2)
C8_13 C 0.5401(3) 0.9996(4) 0.5995(2)
C10_13 C 0.5400(3) 0.9734(3) 0.6104(3)
H9_13 H 0.5314 0.9555 0.5953
C11_13 C 0.6492(5) 0.9387(3) 0.7579(3)
H10_13 H 0.6631 0.9574 0.7459
C12_13 C 0.5250(4) 0.9990(3) 0.5613(3)
O6_13 O 0.6547(2) 0.78895(16) 0.86251(15)
O8_13 O 0.6402(2) 0.79606(34) 0.79016(18)
O1_14 O 0.15812(19) 0.78597(26) 0.81331(18)
O2_14 O 0.22304(19) 0.81252(26) 0.8477(2)
H1_14 H 0.2231 0.8033 0.8679
H2_14 H 0.2371 0.8170 0.8310
O3_14 O 0.12228(16) 0.80092(26) 0.80416(15)
O5_14 O 0.0264(2) 0.53728(34) 0.54318(18)
N1_14 N 0.0000(3) 0.5690(4) 0.6657(2)
N2_14 N 0.0656(4) 0.6884(6) 0.7609(3)
C1_14 C 0.0256(3) 0.5795(4) 0.6462(3)
H3_14 H 0.0440 0.5960 0.6560
C3_14 C 0.1159(3) 0.7275(5) 0.7873(3)
H5_14 H 0.1353 0.7319 0.7968
C4_14 C 0.0804(4) 0.7442(5) 0.7698(3)
H6_14 H 0.0739 0.7589 0.7669
C5_14 C 0.0944(3) 0.6969(4) 0.7749(4)
H7_14 H 0.1002 0.6816 0.7765
C6_14 C 0.1086(4) 0.7509(6) 0.7853(3)
C7_14 C 0.1319(3) 0.7818(4) 0.8022(2)
C8_14 C 0.0004(4) 0.5406(5) 0.5995(2)
C10_14 C 0.0266(3) 0.5667(4) 0.6104(3)
H9_14 H 0.0445 0.5760 0.5953
C11_14 C 0.0613(3) 0.7106(6) 0.7579(3)
H10_14 H 0.0426 0.7058 0.7459
C12_14 C 0.0010(3) 0.5261(5) 0.5613(3)
O6_14 O 0.21105(16) 0.86575(26) 0.86251(15)
O8_14 O 0.20394(34) 0.84418(39) 0.79016(18)
C2_14 C 0.9751(3) 0.5440(4) 0.6533(3)
H4_14 H 0.9572 0.5356 0.6682
C9_14 C 0.9734(3) 0.5290(4) 0.6190(3)
H8_14 H 0.9549 0.5121 0.6102
O1_15 O 0.21403(26) 0.37216(18) 0.81331(18)
O2_15 O 0.18748(26) 0.41053(18) 0.8477(2)
H1_15 H 0.1967 0.4199 0.8679
H2_15 H 0.1830 0.4202 0.8310
O3_15 O 0.19908(26) 0.3214(2) 0.80416(15)
O5_15 O 0.46272(34) 0.48916(28) 0.54318(18)
N1_15 N 0.4310(4) 0.4311(2) 0.6657(2)
N2_15 N 0.3116(6) 0.3773(4) 0.7609(3)
C1_15 C 0.4205(4) 0.4462(3) 0.6462(3)
H3_15 H 0.4040 0.4481 0.6560
C2_15 C 0.4560(4) 0.4312(3) 0.6533(3)
H4_15 H 0.4644 0.4217 0.6682
C3_15 C 0.2725(5) 0.3885(4) 0.7873(3)
H5_15 H 0.2681 0.4035 0.7968
C4_15 C 0.2558(5) 0.3363(3) 0.7698(3)
H6_15 H 0.2411 0.3151 0.7669
C5_15 C 0.3031(4) 0.3976(3) 0.7749(4)
H7_15 H 0.3184 0.4187 0.7765
C6_15 C 0.2491(6) 0.3578(4) 0.7853(3)
C7_15 C 0.2182(4) 0.3502(3) 0.8022(2)
C8_15 C 0.4594(5) 0.4599(3) 0.5995(2)
C9_15 C 0.4710(4) 0.4445(3) 0.6190(3)
H8_15 H 0.4879 0.4429 0.6102
C10_15 C 0.4333(4) 0.4600(3) 0.6104(3)
H9_15 H 0.4240 0.4686 0.5953
C11_15 C 0.2894(6) 0.3508(5) 0.7579(3)
H10_15 H 0.2942 0.3369 0.7459
C12_15 C 0.4739(5) 0.4750(4) 0.5613(3)
O6_15 O 0.13425(26) 0.3453(2) 0.86251(15)
O8_15 O 0.15582(39) 0.3598(2) 0.79016(18)
O3_16 O 0.54438(16) 0.0120(2) 0.02918(15)
H6_16 H 0.5927 0.0183 0.0665
O1_16 O 0.50854(19) 0.96118(18) 0.02003(18)
H2_16 H 0.4295 0.9132 0.0024
O5_16 O 0.6402(2) 0.84418(28) 0.29016(18)
N1_16 N 0.6666(3) 0.9023(2) 0.1677(2)
N2_16 N 0.6010(4) 0.9561(4) 0.0725(3)
C1_16 C 0.6410(3) 0.8872(3) 0.1872(3)
H3_16 H 0.6226 0.8853 0.1774
C2_16 C 0.6915(3) 0.9022(3) 0.1801(3)
H4_16 H 0.7094 0.9117 0.1652
C3_16 C 0.5507(3) 0.9449(4) 0.0461(3)
H5_16 H 0.5313 0.9299 0.0366
C4_16 C 0.5862(4) 0.9971(3) 0.0636(3)
C5_16 C 0.5722(3) 0.9358(3) 0.0585(4)
H7_16 H 0.5664 0.9147 0.0569
C6_16 C 0.5580(4) 0.9756(4) 0.0481(3)
C7_16 C 0.5347(3) 0.9832(3) 0.0312(2)
C8_16 C 0.6662(4) 0.8735(3) 0.2339(2)
C9_16 C 0.6932(3) 0.8889(3) 0.2144(3)
H8_16 H 0.7117 0.8905 0.2232
C10_16 C 0.6400(3) 0.8734(3) 0.2230(3)
H9_16 H 0.6221 0.8648 0.2381
C11_16 C 0.6053(3) 0.9826(5) 0.0755(3)
H10_16 H 0.6240 0.9965 0.0875
C12_16 C 0.6656(3) 0.8584(4) 0.2721(3)
O8_16 O 0.46272(34) 0.9736(2) 0.04318(18)
O2_16 O 0.44362(19) 0.92281(18) 0.9857(2)
H1_16 H 0.4435 0.9135 0.9655
O6_16 O 0.45562(16) 0.9880(2) 0.97082(15)
O1_17 O 0.03882(18) 0.54737(26) 0.02003(18)
H2_17 H 0.0868 0.5164 0.0024
O5_17 O 0.15582(28) 0.79606(34) 0.29016(18)
N1_17 N 0.0977(2) 0.7644(4) 0.1677(2)
N2_17 N 0.0439(4) 0.6450(6) 0.0725(3)
C1_17 C 0.1128(3) 0.7539(4) 0.1872(3)
H3_17 H 0.1147 0.7374 0.1774
C2_17 C 0.0978(3) 0.7894(4) 0.1801(3)
H4_17 H 0.0883 0.7978 0.1652
C3_17 C 0.0551(4) 0.6059(5) 0.0461(3)
H5_17 H 0.0701 0.6015 0.0366
C4_17 C 0.0029(3) 0.5892(5) 0.0636(3)
C5_17 C 0.0642(3) 0.6365(4) 0.0585(4)
H7_17 H 0.0853 0.6518 0.0569
C6_17 C 0.0244(4) 0.5825(6) 0.0481(3)
C7_17 C 0.0168(3) 0.5516(4) 0.0312(2)
C8_17 C 0.1265(3) 0.7928(5) 0.2339(2)
C9_17 C 0.1111(3) 0.8044(4) 0.2144(3)
H8_17 H 0.1095 0.8213 0.2232
C10_17 C 0.1266(3) 0.7667(4) 0.2230(3)
H9_17 H 0.1352 0.7574 0.2381
C11_17 C 0.0174(5) 0.6228(6) 0.0755(3)
H10_17 H 0.0035 0.6276 0.0875
C12_17 C 0.1416(4) 0.8073(5) 0.2721(3)
O8_17 O 0.0264(2) 0.48916(39) 0.04318(18)
O2_17 O 0.07719(18) 0.52082(26) 0.9857(2)
H1_17 H 0.0865 0.5301 0.9655
O6_17 O 0.0120(2) 0.46758(26) 0.97082(15)
O3_17 O 0.9880(2) 0.53242(26) 0.02918(15)
H6_17 H 0.9817 0.5745 0.0665
O1_18 O 0.45263(26) 0.49146(19) 0.02003(18)
H2_18 H 0.4836 0.5705 0.0024
O3_18 O 0.46758(26) 0.45562(16) 0.02918(15)
O5_18 O 0.20394(34) 0.3598(2) 0.29016(18)
N1_18 N 0.2356(4) 0.3334(3) 0.1677(2)
N2_18 N 0.3550(6) 0.3990(4) 0.0725(3)
C1_18 C 0.2461(4) 0.3590(3) 0.1872(3)
H3_18 H 0.2626 0.3774 0.1774
C2_18 C 0.2106(4) 0.3085(3) 0.1801(3)
H4_18 H 0.2022 0.2906 0.1652
C3_18 C 0.3941(5) 0.4493(3) 0.0461(3)
H5_18 H 0.3985 0.4687 0.0366
C4_18 C 0.4108(5) 0.4138(4) 0.0636(3)
H6_18 H 0.4255 0.4073 0.0665
C5_18 C 0.3635(4) 0.4278(3) 0.0585(4)
H7_18 H 0.3482 0.4336 0.0569
C6_18 C 0.4175(6) 0.4420(4) 0.0481(3)
C7_18 C 0.4484(4) 0.4653(3) 0.0312(2)
C8_18 C 0.2072(5) 0.3338(4) 0.2339(2)
C9_18 C 0.1956(4) 0.3068(3) 0.2144(3)
H8_18 H 0.1787 0.2883 0.2232
C10_18 C 0.2333(4) 0.3600(3) 0.2230(3)
H9_18 H 0.2426 0.3779 0.2381
C11_18 C 0.3772(6) 0.3947(3) 0.0755(3)
H10_18 H 0.3724 0.3760 0.0875
C12_18 C 0.1927(5) 0.3344(3) 0.2721(3)
O8_18 O 0.51084(39) 0.53728(34) 0.04318(18)
O2_18 O 0.47918(26) 0.55638(19) 0.9857(2)
H1_18 H 0.4699 0.5565 0.9655
O6_18 O 0.53242(26) 0.54438(16) 0.97082(15)
O4_10 O 0.80772(27) 0.64306(19) 0.11347(15)
N1_19 N 0.7644(2) 0.6667(3) 0.0010(2)
C1_19 C 0.7795(3) 0.6923(3) 0.0205(3)
H3_19 H 0.7814 0.7107 0.0107
C2_19 C 0.7645(3) 0.6418(3) 0.0134(3)
C8_19 C 0.7932(3) 0.6671(4) 0.0672(2)
C9_19 C 0.7778(3) 0.6401(3) 0.0477(3)
H8_19 H 0.7762 0.6216 0.0565
C10_19 C 0.7933(3) 0.6933(3) 0.0563(3)
H9_19 H 0.8019 0.7112 0.0714
C12_19 C 0.8083(4) 0.6677(3) 0.1054(3)
Cu1_10 Cu 0.74044(4) 0.66607(4) 0.95373(3)
Cu2_10 Cu 0.71840(4) 0.69798(4) 0.91697(3)
I1_10 I 0.69144(2) 0.67011(2) 0.98088(2)
I2_10 I 0.77952(2) 0.71992(2) 0.91630(2)
O1_19 O 0.70549(18) 0.82479(19) 0.85336(18)
O2_19 O 0.74386(18) 0.88971(19) 0.8190(2)
H1_19 H 0.7532 0.8898 0.7988
H2_19 H 0.7535 0.9038 0.8357
N2_19 N 0.7106(4) 0.7323(4) 0.9058(3)
H4_19 H 0.7550 0.6239 0.9985
C3_19 C 0.7218(4) 0.7826(3) 0.8794(3)
H5_19 H 0.7368 0.8020 0.8699
C4_19 C 0.6696(3) 0.7471(4) 0.8969(3)
H6_19 H 0.6484 0.7406 0.8998
C5_19 C 0.7309(3) 0.7611(3) 0.8918(4)
H7_19 H 0.7520 0.7669 0.8902
C6_19 C 0.6911(4) 0.7753(4) 0.8814(3)
C7_19 C 0.6835(3) 0.7986(3) 0.8645(2)
C11_19 C 0.6841(5) 0.7280(3) 0.9088(3)
H10_19 H 0.6702 0.7093 0.9208
Cu4_10 Cu 0.74104(6) 0.66726(4) 0.87960(3)
Cu5_10 Cu 0.68709(6) 0.63535(4) 0.91636(3)
I3_10 I 0.68800(3) 0.66322(2) 0.85245(2)
I4_10 I 0.72627(3) 0.61341(2) 0.91703(2)
O7_10 O 0.69027(19) 0.83133(33) 0.78014(15)
O4_11 O 0.35694(19) 0.16466(33) 0.11347(15)
N1_20 N 0.3333(3) 0.0977(4) 0.0010(2)
C1_20 C 0.3077(3) 0.0872(4) 0.0205(3)
H3_20 H 0.2893 0.0707 0.0107
C2_20 C 0.3582(3) 0.1227(4) 0.0134(3)
C8_20 C 0.3329(4) 0.1261(5) 0.0672(2)
C9_20 C 0.3599(3) 0.1377(4) 0.0477(3)
H8_20 H 0.3784 0.1546 0.0565
C10_20 C 0.3067(3) 0.1000(4) 0.0563(3)
H9_20 H 0.2888 0.0907 0.0714
C12_20 C 0.3323(3) 0.1406(5) 0.1054(3)
Cu1_11 Cu 0.33393(4) 0.07437(6) 0.95373(3)
Cu2_11 Cu 0.30202(4) 0.02042(6) 0.91697(3)
I1_11 I 0.32989(2) 0.02133(3) 0.98088(2)
I2_11 I 0.28008(2) 0.05960(3) 0.91630(2)
H4_20 H 0.3761 0.1311 0.9985
Cu4_11 Cu 0.33274(4) 0.07377(7) 0.87960(3)
Cu5_11 Cu 0.36465(4) 0.05173(7) 0.91636(3)
I3_11 I 0.33678(2) 0.02477(4) 0.85245(2)
I4_11 I 0.38659(2) 0.11285(4) 0.91703(2)
O1_20 O 0.17521(19) 0.88070(26) 0.85336(18)
O2_20 O 0.11029(19) 0.85415(26) 0.8190(2)
H1_20 H 0.1102 0.8634 0.7988
H2_20 H 0.0962 0.8497 0.8357
N2_20 N 0.2677(4) 0.9783(6) 0.9058(3)
C3_20 C 0.2174(3) 0.9392(5) 0.8794(3)
H5_20 H 0.1980 0.9348 0.8699
C4_20 C 0.2529(4) 0.9225(5) 0.8969(3)
H6_20 H 0.2594 0.9078 0.8998
C5_20 C 0.2389(3) 0.9698(4) 0.8918(4)
H7_20 H 0.2331 0.9851 0.8902
C6_20 C 0.2247(4) 0.9158(6) 0.8814(3)
C7_20 C 0.2014(3) 0.8849(4) 0.8645(2)
C11_20 C 0.2720(3) 0.9561(6) 0.9088(3)
H10_20 H 0.2907 0.9609 0.9208
O7_11 O 0.16867(33) 0.85895(38) 0.78014(15)
O1_21 O 0.11930(26) 0.29451(18) 0.85336(18)
O2_21 O 0.14585(26) 0.25614(18) 0.8190(2)
H1_21 H 0.1366 0.2468 0.7988
H2_21 H 0.1503 0.2465 0.8357
N2_21 N 0.0217(6) 0.2894(4) 0.9058(3)
C3_21 C 0.0608(5) 0.2782(4) 0.8794(3)
H5_21 H 0.0652 0.2632 0.8699
C4_21 C 0.0775(5) 0.3304(3) 0.8969(3)
H6_21 H 0.0922 0.3516 0.8998
C5_21 C 0.0302(4) 0.2691(3) 0.8918(4)
H7_21 H 0.0149 0.2480 0.8902
C6_21 C 0.0842(6) 0.3089(4) 0.8814(3)
C7_21 C 0.1151(4) 0.3165(3) 0.8645(2)
C11_21 C 0.0439(6) 0.3159(5) 0.9088(3)
H10_21 H 0.0391 0.3298 0.9208
O7_12 O 0.14105(38) 0.30973(19) 0.78014(15)
O4_12 O 0.83534(33) 0.19228(27) 0.11347(15)
N1_21 N 0.9023(4) 0.2356(2) 0.0010(2)
C1_21 C 0.9128(4) 0.2205(3) 0.0205(3)
H3_21 H 0.9293 0.2186 0.0107
C2_21 C 0.8773(4) 0.2355(3) 0.0134(3)
C8_21 C 0.8739(5) 0.2068(3) 0.0672(2)
C9_21 C 0.8623(4) 0.2222(3) 0.0477(3)
H8_21 H 0.8454 0.2238 0.0565
C10_21 C 0.9000(4) 0.2067(3) 0.0563(3)
H9_21 H 0.9093 0.1981 0.0714
C12_21 C 0.8594(5) 0.1917(4) 0.1054(3)
Cu1_12 Cu 0.92563(6) 0.25956(4) 0.95373(3)
Cu2_12 Cu 0.97958(6) 0.28160(4) 0.91697(3)
I1_12 I 0.97867(3) 0.30856(2) 0.98088(2)
I2_12 I 0.94040(3) 0.22048(2) 0.91630(2)
H4_21 H 0.8689 0.2450 0.9985
Cu4_12 Cu 0.92623(7) 0.25896(6) 0.87960(3)
Cu5_12 Cu 0.94827(7) 0.31291(6) 0.91636(3)
I3_12 I 0.97523(4) 0.31200(3) 0.85245(2)
I4_12 I 0.88715(4) 0.27373(3) 0.91703(2)
Cu1_13 Cu 0.66607(4) 0.74044(4) 0.54627(3)
Cu2_13 Cu 0.69798(4) 0.71840(4) 0.58303(3)
I1_13 I 0.67011(2) 0.69144(2) 0.51912(2)
I2_13 I 0.71992(2) 0.77952(2) 0.58370(2)
O1_22 O 0.82479(19) 0.70549(18) 0.64664(18)
O2_22 O 0.88971(19) 0.74386(18) 0.6810(2)
H1_22 H 0.8898 0.7532 0.7012
H2_22 H 0.9038 0.7535 0.6643
O4_13 O 0.64306(19) 0.80772(27) 0.38653(15)
N1_22 N 0.6667(3) 0.7644(2) 0.4990(2)
N2_22 N 0.7323(4) 0.7106(4) 0.5942(3)
C1_22 C 0.6923(3) 0.7795(3) 0.4795(3)
H3_22 H 0.7107 0.7814 0.4893
C2_22 C 0.6418(3) 0.7645(3) 0.4866(3)
H4_22 H 0.6239 0.7550 0.5015
C3_22 C 0.7826(3) 0.7218(4) 0.6206(3)
H5_22 H 0.8020 0.7368 0.6301
C4_22 C 0.7471(4) 0.6696(3) 0.6031(3)
H6_22 H 0.7406 0.6484 0.6002
C5_22 C 0.7611(3) 0.7309(3) 0.6082(4)
H7_22 H 0.7669 0.7520 0.6098
C6_22 C 0.7753(4) 0.6911(4) 0.6186(3)
C7_22 C 0.7986(3) 0.6835(3) 0.6355(2)
C8_22 C 0.6671(4) 0.7932(3) 0.4328(2)
C9_22 C 0.6401(3) 0.7778(3) 0.4523(3)
H8_22 H 0.6216 0.7762 0.4435
C10_22 C 0.6933(3) 0.7933(3) 0.4437(3)
H9_22 H 0.7112 0.8019 0.4286
C11_22 C 0.7280(3) 0.6841(5) 0.5912(3)
H10_22 H 0.7093 0.6702 0.5792
C12_22 C 0.6677(3) 0.8083(4) 0.3946(3)
Cu4_13 Cu 0.66726(4) 0.74104(6) 0.62040(3)
Cu5_13 Cu 0.63535(4) 0.68709(6) 0.58364(3)
I3_13 I 0.66322(2) 0.68800(3) 0.64755(2)
I4_13 I 0.61341(2) 0.72627(3) 0.58297(2)
O7_13 O 0.83133(33) 0.69027(19) 0.71986(15)
O1_23 O 0.29451(18) 0.11930(26) 0.64664(18)
O2_23 O 0.25614(18) 0.14585(26) 0.6810(2)
H1_23 H 0.2468 0.1366 0.7012
H2_23 H 0.2465 0.1503 0.6643
N2_23 N 0.2894(4) 0.0217(6) 0.5942(3)
C3_23 C 0.2782(4) 0.0608(5) 0.6206(3)
H5_23 H 0.2632 0.0652 0.6301
C4_23 C 0.3304(3) 0.0775(5) 0.6031(3)
H6_23 H 0.3516 0.0922 0.6002
C5_23 C 0.2691(3) 0.0302(4) 0.6082(4)
H7_23 H 0.2480 0.0149 0.6098
C6_23 C 0.3089(4) 0.0842(6) 0.6186(3)
C7_23 C 0.3165(3) 0.1151(4) 0.6355(2)
C11_23 C 0.3159(5) 0.0439(6) 0.5912(3)
H10_23 H 0.3298 0.0391 0.5792
O7_14 O 0.30973(19) 0.14105(38) 0.71986(15)
Cu1_14 Cu 0.25956(4) 0.92563(6) 0.54627(3)
Cu2_14 Cu 0.28160(4) 0.97958(6) 0.58303(3)
I1_14 I 0.30856(2) 0.97867(3) 0.51912(2)
I2_14 I 0.22048(2) 0.94040(3) 0.58370(2)
O4_14 O 0.19228(27) 0.83534(33) 0.38653(15)
N1_23 N 0.2356(2) 0.9023(4) 0.4990(2)
C1_23 C 0.2205(3) 0.9128(4) 0.4795(3)
H3_23 H 0.2186 0.9293 0.4893
C2_23 C 0.2355(3) 0.8773(4) 0.4866(3)
H4_23 H 0.2450 0.8689 0.5015
C8_23 C 0.2068(3) 0.8739(5) 0.4328(2)
C9_23 C 0.2222(3) 0.8623(4) 0.4523(3)
H8_23 H 0.2238 0.8454 0.4435
C10_23 C 0.2067(3) 0.9000(4) 0.4437(3)
H9_23 H 0.1981 0.9093 0.4286
C12_23 C 0.1917(4) 0.8594(5) 0.3946(3)
Cu4_14 Cu 0.25896(6) 0.92623(7) 0.62040(3)
Cu5_14 Cu 0.31291(6) 0.94827(7) 0.58364(3)
I3_14 I 0.31200(3) 0.97523(4) 0.64755(2)
I4_14 I 0.27373(3) 0.88715(4) 0.58297(2)
Cu1_15 Cu 0.07437(6) 0.33393(4) 0.54627(3)
Cu2_15 Cu 0.02042(6) 0.30202(4) 0.58303(3)
I1_15 I 0.02133(3) 0.32989(2) 0.51912(2)
I2_15 I 0.05960(3) 0.28008(2) 0.58370(2)
O4_15 O 0.16466(33) 0.35694(19) 0.38653(15)
N1_24 N 0.0977(4) 0.3333(3) 0.4990(2)
C1_24 C 0.0872(4) 0.3077(3) 0.4795(3)
H3_24 H 0.0707 0.2893 0.4893
C2_24 C 0.1227(4) 0.3582(3) 0.4866(3)
H4_24 H 0.1311 0.3761 0.5015
C8_24 C 0.1261(5) 0.3329(4) 0.4328(2)
C9_24 C 0.1377(4) 0.3599(3) 0.4523(3)
H8_24 H 0.1546 0.3784 0.4435
C10_24 C 0.1000(4) 0.3067(3) 0.4437(3)
H9_24 H 0.0907 0.2888 0.4286
C12_24 C 0.1406(5) 0.3323(3) 0.3946(3)
Cu4_15 Cu 0.07377(7) 0.33274(4) 0.62040(3)
Cu5_15 Cu 0.05173(7) 0.36465(4) 0.58364(3)
I3_15 I 0.02477(4) 0.33678(2) 0.64755(2)
I4_15 I 0.11285(4) 0.38659(2) 0.58297(2)
O1_24 O 0.88070(26) 0.17521(19) 0.64664(18)
O2_24 O 0.85415(26) 0.11029(19) 0.6810(2)
H1_24 H 0.8634 0.1102 0.7012
H2_24 H 0.8497 0.0962 0.6643
N2_24 N 0.9783(6) 0.2677(4) 0.5942(3)
C3_24 C 0.9392(5) 0.2174(3) 0.6206(3)
H5_24 H 0.9348 0.1980 0.6301
C4_24 C 0.9225(5) 0.2529(4) 0.6031(3)
H6_24 H 0.9078 0.2594 0.6002
C5_24 C 0.9698(4) 0.2389(3) 0.6082(4)
H7_24 H 0.9851 0.2331 0.6098
C6_24 C 0.9158(6) 0.2247(4) 0.6186(3)
C7_24 C 0.8849(4) 0.2014(3) 0.6355(2)
C11_24 C 0.9561(6) 0.2720(3) 0.5912(3)
H10_24 H 0.9609 0.2907 0.5792
O7_15 O 0.85895(38) 0.16867(33) 0.71986(15)
O1_25 O 0.03882(18) 0.49146(19) 0.52003(18)
O2_25 O 0.07719(18) 0.55638(19) 0.4857(2)
H1_25 H 0.0865 0.5565 0.4655
H2_25 H 0.0868 0.5705 0.5024
N1_25 N 0.0977(2) 0.3334(3) 0.6677(2)
N2_25 N 0.0439(4) 0.3990(4) 0.5725(3)
C1_25 C 0.1128(3) 0.3590(3) 0.6872(3)
H3_25 H 0.1147 0.3774 0.6774
C2_25 C 0.0978(3) 0.3085(3) 0.6801(3)
H4_25 H 0.0883 0.2906 0.6652
C3_25 C 0.0551(4) 0.4493(3) 0.5461(3)
H5_25 H 0.0701 0.4687 0.5366
C4_25 C 0.0029(3) 0.4138(4) 0.5636(3)
C5_25 C 0.0642(3) 0.4278(3) 0.5585(4)
H7_25 H 0.0853 0.4336 0.5569
C6_25 C 0.0244(4) 0.4420(4) 0.5481(3)
C7_25 C 0.0168(3) 0.4653(3) 0.5312(2)
C8_25 C 0.1265(3) 0.3338(4) 0.7339(2)
C9_25 C 0.1111(3) 0.3068(3) 0.7144(3)
H8_25 H 0.1095 0.2883 0.7232
C10_25 C 0.1266(3) 0.3600(3) 0.7230(3)
H9_25 H 0.1352 0.3779 0.7381
C11_25 C 0.0174(5) 0.3947(3) 0.5755(3)
H10_25 H 0.0035 0.3760 0.5875
C12_25 C 0.1416(4) 0.3344(3) 0.7721(3)
O7_16 O 0.02361(19) 0.49799(33) 0.44680(15)
H6_25 H 0.9817 0.4073 0.5665
O1_26 O 0.50854(19) 0.54737(26) 0.52003(18)
O2_26 O 0.44362(19) 0.52082(26) 0.4857(2)
H1_26 H 0.4435 0.5301 0.4655
H2_26 H 0.4295 0.5164 0.5024
N1_26 N 0.6666(3) 0.7644(4) 0.6677(2)
N2_26 N 0.6010(4) 0.6450(6) 0.5725(3)
C1_26 C 0.6410(3) 0.7539(4) 0.6872(3)
H3_26 H 0.6226 0.7374 0.6774
C2_26 C 0.6915(3) 0.7894(4) 0.6801(3)
H4_26 H 0.7094 0.7978 0.6652
C3_26 C 0.5507(3) 0.6059(5) 0.5461(3)
H5_26 H 0.5313 0.6015 0.5366
C4_26 C 0.5862(4) 0.5892(5) 0.5636(3)
H6_26 H 0.5927 0.5745 0.5665
C5_26 C 0.5722(3) 0.6365(4) 0.5585(4)
H7_26 H 0.5664 0.6518 0.5569
C6_26 C 0.5580(4) 0.5825(6) 0.5481(3)
C7_26 C 0.5347(3) 0.5516(4) 0.5312(2)
C8_26 C 0.6662(4) 0.7928(5) 0.7339(2)
C9_26 C 0.6932(3) 0.8044(4) 0.7144(3)
H8_26 H 0.7117 0.8213 0.7232
C10_26 C 0.6400(3) 0.7667(4) 0.7230(3)
H9_26 H 0.6221 0.7574 0.7381
C11_26 C 0.6053(3) 0.6228(6) 0.5755(3)
H10_26 H 0.6240 0.6276 0.5875
C12_26 C 0.6656(3) 0.8073(5) 0.7721(3)
O7_17 O 0.50201(33) 0.52561(38) 0.44680(15)
H6_27 H 0.4255 0.0183 0.5665
O1_27 O 0.45263(26) 0.96118(18) 0.52003(18)
O2_27 O 0.47918(26) 0.92281(18) 0.4857(2)
H1_27 H 0.4699 0.9135 0.4655
H2_27 H 0.4836 0.9132 0.5024
N1_27 N 0.2356(4) 0.9023(2) 0.6677(2)
N2_27 N 0.3550(6) 0.9561(4) 0.5725(3)
C1_27 C 0.2461(4) 0.8872(3) 0.6872(3)
H3_27 H 0.2626 0.8853 0.6774
C2_27 C 0.2106(4) 0.9022(3) 0.6801(3)
H4_27 H 0.2022 0.9117 0.6652
C3_27 C 0.3941(5) 0.9449(4) 0.5461(3)
H5_27 H 0.3985 0.9299 0.5366
C4_27 C 0.4108(5) 0.9971(3) 0.5636(3)
C5_27 C 0.3635(4) 0.9358(3) 0.5585(4)
H7_27 H 0.3482 0.9147 0.5569
C6_27 C 0.4175(6) 0.9756(4) 0.5481(3)
C7_27 C 0.4484(4) 0.9832(3) 0.5312(2)
C8_27 C 0.2072(5) 0.8735(3) 0.7339(2)
C9_27 C 0.1956(4) 0.8889(3) 0.7144(3)
H8_27 H 0.1787 0.8905 0.7232
C10_27 C 0.2333(4) 0.8734(3) 0.7230(3)
H9_27 H 0.2426 0.8648 0.7381
C11_27 C 0.3772(6) 0.9826(5) 0.5755(3)
H10_27 H 0.3724 0.9965 0.5875
C12_27 C 0.1927(5) 0.8584(4) 0.7721(3)
O7_18 O 0.47439(38) 0.97639(19) 0.44680(15)
Cu2_16 Cu 0.03131(4) 0.38507(4) 0.24970(3)
I1_16 I 0.00344(2) 0.35811(2) 0.18579(2)
I2_16 I 0.05325(2) 0.44619(2) 0.25037(2)
O1_28 O 0.15812(19) 0.37216(18) 0.31331(18)
O2_28 O 0.22304(19) 0.41053(18) 0.3477(2)
H1_28 H 0.2231 0.4199 0.3679
H2_28 H 0.2371 0.4202 0.3310
N1_28 N 0.0000(3) 0.4311(2) 0.1657(2)
N2_28 N 0.0656(4) 0.3773(4) 0.2609(3)
C1_28 C 0.0256(3) 0.4462(3) 0.1462(3)
H3_28 H 0.0440 0.4481 0.1560
C3_28 C 0.1159(3) 0.3885(4) 0.2873(3)
H5_28 H 0.1353 0.4035 0.2968
C4_28 C 0.0804(4) 0.3363(3) 0.2698(3)
H6_28 H 0.0739 0.3151 0.2669
C5_28 C 0.0944(3) 0.3976(3) 0.2749(4)
H7_28 H 0.1002 0.4187 0.2765
C6_28 C 0.1086(4) 0.3578(4) 0.2853(3)
C7_28 C 0.1319(3) 0.3502(3) 0.3022(2)
C8_28 C 0.0004(4) 0.4599(3) 0.0995(2)
C10_28 C 0.0266(3) 0.4600(3) 0.1104(3)
H9_28 H 0.0445 0.4686 0.0953
C11_28 C 0.0613(3) 0.3508(5) 0.2579(3)
H10_28 H 0.0426 0.3369 0.2459
C12_28 C 0.0010(3) 0.4750(4) 0.0613(3)
Cu4_16 Cu 0.00060(4) 0.40770(6) 0.28706(3)
Cu1_16 Cu 0.99940(4) 0.40711(4) 0.21294(3)
O4_16 O 0.97639(19) 0.47439(27) 0.05320(15)
C2_28 C 0.9751(3) 0.4312(3) 0.1533(3)
H4_28 H 0.9572 0.4217 0.1682
C9_28 C 0.9734(3) 0.4445(3) 0.1190(3)
H8_28 H 0.9549 0.4429 0.1102
Cu5_16 Cu 0.96869(4) 0.35375(6) 0.25030(3)
I3_16 I 0.99656(2) 0.35466(3) 0.31421(2)
I4_16 I 0.94675(2) 0.39293(3) 0.24963(2)
Cu1_17 Cu 0.59289(4) 0.59230(6) 0.21294(3)
Cu2_17 Cu 0.61493(4) 0.64625(6) 0.24970(3)
I1_17 I 0.64189(2) 0.64534(3) 0.18579(2)
I2_17 I 0.55381(2) 0.60707(3) 0.25037(2)
O1_29 O 0.62784(18) 0.78597(26) 0.31331(18)
O2_29 O 0.58947(18) 0.81252(26) 0.3477(2)
H1_29 H 0.5801 0.8033 0.3679
H2_29 H 0.5798 0.8170 0.3310
O4_17 O 0.52561(27) 0.50201(33) 0.05320(15)
N1_29 N 0.5689(2) 0.5690(4) 0.1657(2)
N2_29 N 0.6227(4) 0.6884(6) 0.2609(3)
C1_29 C 0.5538(3) 0.5795(4) 0.1462(3)
H3_29 H 0.5519 0.5960 0.1560
C2_29 C 0.5688(3) 0.5440(4) 0.1533(3)
H4_29 H 0.5783 0.5356 0.1682
C3_29 C 0.6115(4) 0.7275(5) 0.2873(3)
H5_29 H 0.5965 0.7319 0.2968
C4_29 C 0.6637(3) 0.7442(5) 0.2698(3)
H6_29 H 0.6849 0.7589 0.2669
C5_29 C 0.6024(3) 0.6969(4) 0.2749(4)
H7_29 H 0.5813 0.6816 0.2765
C6_29 C 0.6422(4) 0.7509(6) 0.2853(3)
C7_29 C 0.6498(3) 0.7818(4) 0.3022(2)
C8_29 C 0.5401(3) 0.5406(5) 0.0995(2)
C9_29 C 0.5555(3) 0.5290(4) 0.1190(3)
H8_29 H 0.5571 0.5121 0.1102
C10_29 C 0.5400(3) 0.5667(4) 0.1104(3)
H9_29 H 0.5314 0.5760 0.0953
C11_29 C 0.6492(5) 0.7106(6) 0.2579(3)
H10_29 H 0.6631 0.7058 0.2459
C12_29 C 0.5250(4) 0.5261(5) 0.0613(3)
Cu4_17 Cu 0.59230(6) 0.59289(7) 0.28706(3)
Cu5_17 Cu 0.64625(6) 0.61493(7) 0.25030(3)
I3_17 I 0.64534(3) 0.64189(4) 0.31421(2)
I4_17 I 0.60707(3) 0.55381(4) 0.24963(2)
Cu1_18 Cu 0.40770(6) 0.00060(4) 0.21294(3)
O4_18 O 0.49799(33) 0.02361(19) 0.05320(15)
C2_30 C 0.4560(4) 0.0249(3) 0.1533(3)
H4_30 H 0.4644 0.0428 0.1682
C9_30 C 0.4710(4) 0.0266(3) 0.1190(3)
H8_30 H 0.4879 0.0451 0.1102
Cu5_18 Cu 0.38507(7) 0.03131(4) 0.25030(3)
I3_18 I 0.35811(4) 0.00344(2) 0.31421(2)
I4_18 I 0.44619(4) 0.05325(2) 0.24963(2)
Cu2_18 Cu 0.35375(6) 0.96869(4) 0.24970(3)
I1_18 I 0.35466(3) 0.99656(2) 0.18579(2)
I2_18 I 0.39293(3) 0.94675(2) 0.25037(2)
O1_30 O 0.21403(26) 0.84188(19) 0.31331(18)
O2_30 O 0.18748(26) 0.77696(19) 0.3477(2)
H1_30 H 0.1967 0.7769 0.3679
H2_30 H 0.1830 0.7629 0.3310
N1_30 N 0.4310(4) 1.0000(3) 0.1657(2)
N2_30 N 0.3116(6) 0.9344(4) 0.2609(3)
C1_30 C 0.4205(4) 0.9744(3) 0.1462(3)
H3_30 H 0.4040 0.9560 0.1560
C3_30 C 0.2725(5) 0.8841(3) 0.2873(3)
H5_30 H 0.2681 0.8647 0.2968
C4_30 C 0.2558(5) 0.9196(4) 0.2698(3)
H6_30 H 0.2411 0.9261 0.2669
C5_30 C 0.3031(4) 0.9056(3) 0.2749(4)
H7_30 H 0.3184 0.8998 0.2765
C6_30 C 0.2491(6) 0.8914(4) 0.2853(3)
C7_30 C 0.2182(4) 0.8681(3) 0.3022(2)
C8_30 C 0.4594(5) 0.9996(4) 0.0995(2)
C10_30 C 0.4333(4) 0.9734(3) 0.1104(3)
H9_30 H 0.4240 0.9555 0.0953
C11_30 C 0.2894(6) 0.9387(3) 0.2579(3)
H10_30 H 0.2942 0.9574 0.2459
C12_30 C 0.4739(5) 0.9990(3) 0.0613(3)
Cu4_18 Cu 0.40711(7) 0.99940(4) 0.28706(3)
O1_31 O 0.37216(18) 0.15812(19) 0.18669(18)
O2_31 O 0.41053(18) 0.22304(19) 0.1523(2)
H1_31 H 0.4199 0.2231 0.1321
H2_31 H 0.4202 0.2371 0.1690
N1_31 N 0.4311(2) 0.0000(3) 0.3343(2)
N2_31 N 0.3773(4) 0.0656(4) 0.2391(3)
C1_31 C 0.4462(3) 0.0256(3) 0.3538(3)
H3_31 H 0.4481 0.0440 0.3440
C3_31 C 0.3885(4) 0.1159(3) 0.2127(3)
H5_31 H 0.4035 0.1353 0.2032
C4_31 C 0.3363(3) 0.0804(4) 0.2302(3)
H6_31 H 0.3151 0.0739 0.2331
C5_31 C 0.3976(3) 0.0944(3) 0.2251(4)
H7_31 H 0.4187 0.1002 0.2235
C6_31 C 0.3578(4) 0.1086(4) 0.2147(3)
C7_31 C 0.3502(3) 0.1319(3) 0.1978(2)
C8_31 C 0.4599(3) 0.0004(4) 0.4005(2)
C10_31 C 0.4600(3) 0.0266(3) 0.3896(3)
H9_31 H 0.4686 0.0445 0.4047
C11_31 C 0.3508(5) 0.0613(3) 0.2421(3)
H10_31 H 0.3369 0.0426 0.2541
C12_31 C 0.4750(4) 0.0010(3) 0.4387(3)
C2_31 C 0.4312(3) 0.9751(3) 0.3467(3)
H4_31 H 0.4217 0.9572 0.3318
C9_31 C 0.4445(3) 0.9734(3) 0.3810(3)
H8_31 H 0.4429 0.9549 0.3898
C2_32 C 0.0249(3) 0.4560(4) 0.3467(3)
H4_32 H 0.0428 0.4644 0.3318
C9_32 C 0.0266(3) 0.4710(4) 0.3810(3)
H8_32 H 0.0451 0.4879 0.3898
O1_32 O 0.84188(19) 0.21403(26) 0.18669(18)
O2_32 O 0.77696(19) 0.18748(26) 0.1523(2)
H1_32 H 0.7769 0.1967 0.1321
H2_32 H 0.7629 0.1830 0.1690
N1_32 N 1.0000(3) 0.4310(4) 0.3343(2)
N2_32 N 0.9344(4) 0.3116(6) 0.2391(3)
C1_32 C 0.9744(3) 0.4205(4) 0.3538(3)
H3_32 H 0.9560 0.4040 0.3440
C3_32 C 0.8841(3) 0.2725(5) 0.2127(3)
H5_32 H 0.8647 0.2681 0.2032
C4_32 C 0.9196(4) 0.2558(5) 0.2302(3)
H6_32 H 0.9261 0.2411 0.2331
C5_32 C 0.9056(3) 0.3031(4) 0.2251(4)
H7_32 H 0.8998 0.3184 0.2235
C6_32 C 0.8914(4) 0.2491(6) 0.2147(3)
C7_32 C 0.8681(3) 0.2182(4) 0.1978(2)
C8_32 C 0.9996(4) 0.4594(5) 0.4005(2)
C10_32 C 0.9734(3) 0.4333(4) 0.3896(3)
H9_32 H 0.9555 0.4240 0.4047
C11_32 C 0.9387(3) 0.2894(6) 0.2421(3)
H10_32 H 0.9574 0.2942 0.2541
C12_32 C 0.9990(3) 0.4739(5) 0.4387(3)
O1_33 O 0.78597(26) 0.62784(18) 0.18669(18)
O2_33 O 0.81252(26) 0.58947(18) 0.1523(2)
H1_33 H 0.8033 0.5801 0.1321
H2_33 H 0.8170 0.5798 0.1690
N1_33 N 0.5690(4) 0.5689(2) 0.3343(2)
N2_33 N 0.6884(6) 0.6227(4) 0.2391(3)
C1_33 C 0.5795(4) 0.5538(3) 0.3538(3)
H3_33 H 0.5960 0.5519 0.3440
C2_33 C 0.5440(4) 0.5688(3) 0.3467(3)
H4_33 H 0.5356 0.5783 0.3318
C3_33 C 0.7275(5) 0.6115(4) 0.2127(3)
H5_33 H 0.7319 0.5965 0.2032
C4_33 C 0.7442(5) 0.6637(3) 0.2302(3)
H6_33 H 0.7589 0.6849 0.2331
C5_33 C 0.6969(4) 0.6024(3) 0.2251(4)
H7_33 H 0.6816 0.5813 0.2235
C6_33 C 0.7509(6) 0.6422(4) 0.2147(3)
C7_33 C 0.7818(4) 0.6498(3) 0.1978(2)
C8_33 C 0.5406(5) 0.5401(3) 0.4005(2)
C9_33 C 0.5290(4) 0.5555(3) 0.3810(3)
H8_33 H 0.5121 0.5571 0.3898
C10_33 C 0.5667(4) 0.5400(3) 0.3896(3)
H9_33 H 0.5760 0.5314 0.4047
C11_33 C 0.7106(6) 0.6492(5) 0.2421(3)
H10_33 H 0.7058 0.6631 0.2541
C12_33 C 0.5261(5) 0.5250(4) 0.4387(3)
O2_34 O 0.55638(19) 0.07719(18) 0.0143(2)
H1_34 H 0.5565 0.0865 0.0345
O1_34 O 0.49146(19) 0.03882(18) 0.97997(18)
H2_34 H 0.5705 0.0868 0.9976
N1_34 N 0.3334(3) 0.0977(2) 0.8323(2)
N2_34 N 0.3990(4) 0.0439(4) 0.9275(3)
C1_34 C 0.3590(3) 0.1128(3) 0.8128(3)
H3_34 H 0.3774 0.1147 0.8226
C2_34 C 0.3085(3) 0.0978(3) 0.8199(3)
H4_34 H 0.2906 0.0883 0.8348
C3_34 C 0.4493(3) 0.0551(4) 0.9539(3)
H5_34 H 0.4687 0.0701 0.9634
C4_34 C 0.4138(4) 0.0029(3) 0.9364(3)
C5_34 C 0.4278(3) 0.0642(3) 0.9415(4)
H7_34 H 0.4336 0.0853 0.9431
C6_34 C 0.4420(4) 0.0244(4) 0.9519(3)
C7_34 C 0.4653(3) 0.0168(3) 0.9688(2)
C8_34 C 0.3338(4) 0.1265(3) 0.7661(2)
C9_34 C 0.3068(3) 0.1111(3) 0.7856(3)
H8_34 H 0.2883 0.1095 0.7768
C10_34 C 0.3600(3) 0.1266(3) 0.7770(3)
H9_34 H 0.3779 0.1352 0.7619
C11_34 C 0.3947(3) 0.0174(5) 0.9245(3)
H10_34 H 0.3760 0.0035 0.9125
C12_34 C 0.3344(3) 0.1416(4) 0.7279(3)
H6_34 H 0.4073 0.9817 0.9335
H6_35 H 0.0183 0.4255 0.9335
O2_35 O 0.92281(18) 0.47918(26) 0.0143(2)
H1_35 H 0.9135 0.4699 0.0345
O1_35 O 0.96118(18) 0.45263(26) 0.97997(18)
H2_35 H 0.9132 0.4836 0.9976
N1_35 N 0.9023(2) 0.2356(4) 0.8323(2)
N2_35 N 0.9561(4) 0.3550(6) 0.9275(3)
C1_35 C 0.8872(3) 0.2461(4) 0.8128(3)
H3_35 H 0.8853 0.2626 0.8226
C2_35 C 0.9022(3) 0.2106(4) 0.8199(3)
H4_35 H 0.9117 0.2022 0.8348
C3_35 C 0.9449(4) 0.3941(5) 0.9539(3)
H5_35 H 0.9299 0.3985 0.9634
C4_35 C 0.9971(3) 0.4108(5) 0.9364(3)
C5_35 C 0.9358(3) 0.3635(4) 0.9415(4)
H7_35 H 0.9147 0.3482 0.9431
C6_35 C 0.9756(4) 0.4175(6) 0.9519(3)
C7_35 C 0.9832(3) 0.4484(4) 0.9688(2)
C8_35 C 0.8735(3) 0.2072(5) 0.7661(2)
C9_35 C 0.8889(3) 0.1956(4) 0.7856(3)
H8_35 H 0.8905 0.1787 0.7768
C10_35 C 0.8734(3) 0.2333(4) 0.7770(3)
H9_35 H 0.8648 0.2426 0.7619
C11_35 C 0.9826(5) 0.3772(6) 0.9245(3)
H10_35 H 0.9965 0.3724 0.9125
C12_35 C 0.8584(4) 0.1927(5) 0.7279(3)
O2_36 O 0.52082(26) 0.44362(19) 0.0143(2)
H1_36 H 0.5301 0.4435 0.0345
O1_36 O 0.54737(26) 0.50854(19) 0.97997(18)
H2_36 H 0.5164 0.4295 0.9976
N1_36 N 0.7644(4) 0.6666(3) 0.8323(2)
N2_36 N 0.6450(6) 0.6010(4) 0.9275(3)
C1_36 C 0.7539(4) 0.6410(3) 0.8128(3)
H3_36 H 0.7374 0.6226 0.8226
C2_36 C 0.7894(4) 0.6915(3) 0.8199(3)
H4_36 H 0.7978 0.7094 0.8348
C3_36 C 0.6059(5) 0.5507(3) 0.9539(3)
H5_36 H 0.6015 0.5313 0.9634
C4_36 C 0.5892(5) 0.5862(4) 0.9364(3)
H6_36 H 0.5745 0.5927 0.9335
C5_36 C 0.6365(4) 0.5722(3) 0.9415(4)
H7_36 H 0.6518 0.5664 0.9431
C6_36 C 0.5825(6) 0.5580(4) 0.9519(3)
C7_36 C 0.5516(4) 0.5347(3) 0.9688(2)
C8_36 C 0.7928(5) 0.6662(4) 0.7661(2)
C9_36 C 0.8044(4) 0.6932(3) 0.7856(3)
H8_36 H 0.8213 0.7117 0.7768
C10_36 C 0.7667(4) 0.6400(3) 0.7770(3)
H9_36 H 0.7574 0.6221 0.7619
C11_36 C 0.6228(6) 0.6053(3) 0.9245(3)
H10_36 H 0.6276 0.6240 0.9125
C12_36 C 0.8073(5) 0.6656(3) 0.7279(3)
loop_
_geom_bond_atom_site_label_1
_geom_bond_atom_site_label_2
_geom_bond_site_symmetry_1
_geom_bond_site_symmetry_2
Cu1 Cu2 1_555 1_555
Cu2 I1 1_555 1_555
Cu3 O1 1_555 1_555
I1 Cu1 1_555 1_555
I2 Cu1 1_555 1_555
O1 C7 1_555 1_555
O2 Cu3 1_555 1_555
H1 O2 1_555 1_555
H2 O2 1_555 1_555
O3 C7 1_555 1_555
N2 Cu2 1_555 1_555
C3 H5 1_555 1_555
C4 H6 1_555 1_555
C5 N2 1_555 1_555
H7 C5 1_555 1_555
C6 C3 1_555 1_555
C7 C6 1_555 1_555
C11 N2 1_555 1_555
H10 C11 1_555 1_555
Cu4 Cu1 1_555 1_555
Cu5 Cu1 1_555 1_555
Cu8 Cu3 1_555 1_555
I3 Cu2 1_555 1_555
I4 Cu1 1_555 1_555
O6 Cu3 1_555 1_555
O7 Cu3 1_555 1_555
O8 Cu3 1_555 1_555
Cu2 I2 1_555 1_555
Cu2 Cu4 1_555 1_555
Cu2 Cu5 1_555 1_555
I1 Cu5 1_555 1_555
I2 Cu4 1_555 1_555
O3 Cu8 1_555 1_555
C3 C5 1_555 1_555
C4 C6 1_555 1_555
C4 C11 1_555 1_555
Cu4 Cu5 1_555 1_555
Cu4 I3 1_555 1_555
Cu4 I4 1_555 1_555
Cu5 I3 1_555 1_555
Cu5 I4 1_555 1_555
O4 C12 1_555 1_555
O5 C12 1_555 1_555
C1 N1 1_555 1_555
H3 C1 1_555 1_555
C2 N1 1_555 1_555
C8 C9 1_555 1_555
C9 C2 1_555 1_555
H8 C9 1_555 1_555
C10 C1 1_555 1_555
H9 C10 1_555 1_555
C12 C8 1_555 1_555
Cu6 O4 1_555 1_555
Cu7 O5 1_555 1_555
C8 C10 1_555 1_555
Cu6 Cu7 1_555 1_555
Cu3_2 O1_2 1_555 1_555
O1_2 C7_2 1_555 1_555
O2_2 Cu3_2 1_555 1_555
H1_2 O2_2 1_555 1_555
H2_2 O2_2 1_555 1_555
O3_2 C7_2 1_555 1_555
C3_2 H5_2 1_555 1_555
C4_2 H6_2 1_555 1_555
C5_2 N2_2 1_555 1_555
H7_2 C5_2 1_555 1_555
C6_2 C3_2 1_555 1_555
C7_2 C6_2 1_555 1_555
C11_2 N2_2 1_555 1_555
H10_2 C11_2 1_555 1_555
Cu8_2 Cu3_2 1_555 1_555
O6_2 Cu3_2 1_555 1_555
O7_2 Cu3_2 1_555 1_555
O8_2 Cu3_2 1_555 1_555
O3_2 Cu8_2 1_555 1_555
C3_2 C5_2 1_555 1_555
C4_2 C6_2 1_555 1_555
C4_2 C11_2 1_555 1_555
Cu1_2 Cu2_2 1_555 1_555
Cu2_2 I1_2 1_555 1_555
I1_2 Cu1_2 1_555 1_555
I2_2 Cu1_2 1_555 1_555
Cu4_2 Cu1_2 1_555 1_555
Cu5_2 Cu1_2 1_555 1_555
I3_2 Cu2_2 1_555 1_555
I4_2 Cu1_2 1_555 1_555
Cu2_2 I2_2 1_555 1_555
Cu2_2 Cu4_2 1_555 1_555
Cu2_2 Cu5_2 1_555 1_555
I1_2 Cu5_2 1_555 1_555
I2_2 Cu4_2 1_555 1_555
Cu4_2 Cu5_2 1_555 1_555
Cu4_2 I3_2 1_555 1_555
Cu4_2 I4_2 1_555 1_555
Cu5_2 I3_2 1_555 1_555
Cu5_2 I4_2 1_555 1_555
O4_2 C12_2 1_555 1_555
O5_2 C12_2 1_555 1_555
C1_2 N1_2 1_555 1_555
H3_2 C1_2 1_555 1_555
C2_2 N1_2 1_555 1_555
C8_2 C9_2 1_555 1_555
C9_2 C2_2 1_555 1_555
H8_2 C9_2 1_555 1_555
C10_2 C1_2 1_555 1_555
H9_2 C10_2 1_555 1_555
C12_2 C8_2 1_555 1_555
Cu6_2 O4_2 1_555 1_555
Cu7_2 O5_2 1_555 1_555
C8_2 C10_2 1_555 1_555
Cu6_2 Cu7_2 1_555 1_555
Cu1_3 Cu2_3 1_555 1_555
Cu2_3 I1_3 1_555 1_555
I1_3 Cu1_3 1_555 1_555
I2_3 Cu1_3 1_555 1_555
Cu4_3 Cu1_3 1_555 1_555
Cu5_3 Cu1_3 1_555 1_555
I3_3 Cu2_3 1_555 1_555
I4_3 Cu1_3 1_555 1_555
Cu2_3 I2_3 1_555 1_555
Cu2_3 Cu4_3 1_555 1_555
Cu2_3 Cu5_3 1_555 1_555
I1_3 Cu5_3 1_555 1_555
I2_3 Cu4_3 1_555 1_555
Cu4_3 Cu5_3 1_555 1_555
Cu4_3 I3_3 1_555 1_555
Cu4_3 I4_3 1_555 1_555
Cu5_3 I3_3 1_555 1_555
Cu5_3 I4_3 1_555 1_555
O4_3 C12_3 1_555 1_555
O5_3 C12_3 1_555 1_555
C1_3 N1_3 1_555 1_555
H3_3 C1_3 1_555 1_555
C2_3 N1_3 1_555 1_555
C8_3 C9_3 1_555 1_555
C9_3 C2_3 1_555 1_555
H8_3 C9_3 1_555 1_555
C10_3 C1_3 1_555 1_555
H9_3 C10_3 1_555 1_555
C12_3 C8_3 1_555 1_555
Cu6_3 O4_3 1_555 1_555
Cu7_3 O5_3 1_555 1_555
C8_3 C10_3 1_555 1_555
Cu6_3 Cu7_3 1_555 1_555
Cu3_3 O1_3 1_555 1_555
O1_3 C7_3 1_555 1_555
O2_3 Cu3_3 1_555 1_555
H1_3 O2_3 1_555 1_555
H2_3 O2_3 1_555 1_555
O3_3 C7_3 1_555 1_555
C3_3 H5_3 1_555 1_555
C4_3 H6_3 1_555 1_555
C5_3 N2_3 1_555 1_555
H7_3 C5_3 1_555 1_555
C6_3 C3_3 1_555 1_555
C7_3 C6_3 1_555 1_555
C11_3 N2_3 1_555 1_555
H10_3 C11_3 1_555 1_555
Cu8_3 Cu3_3 1_555 1_555
O6_3 Cu3_3 1_555 1_555
O7_3 Cu3_3 1_555 1_555
O8_3 Cu3_3 1_555 1_555
O3_3 Cu8_3 1_555 1_555
C3_3 C5_3 1_555 1_555
C4_3 C6_3 1_555 1_555
C4_3 C11_3 1_555 1_555
Cu1_4 Cu2_4 1_555 1_555
Cu2_4 I1_4 1_555 1_555
Cu3_4 O1_4 1_555 1_555
I1_4 Cu1_4 1_555 1_555
I2_4 Cu1_4 1_555 1_555
O1_4 C7_4 1_555 1_555
O2_4 Cu3_4 1_555 1_555
H1_4 O2_4 1_555 1_555
H2_4 O2_4 1_555 1_555
O3_4 C7_4 1_555 1_555
O4_4 C12_4 1_555 1_555
O5_4 C12_4 1_555 1_555
N1_4 Cu1_4 1_555 1_555
N2_4 Cu2_4 1_555 1_555
C1_4 N1_4 1_555 1_555
H3_4 C1_4 1_555 1_555
C2_4 N1_4 1_555 1_555
H4_4 C2_4 1_555 1_555
C3_4 H5_4 1_555 1_555
C4_4 H6_4 1_555 1_555
C5_4 N2_4 1_555 1_555
H7_4 C5_4 1_555 1_555
C6_4 C3_4 1_555 1_555
C7_4 C6_4 1_555 1_555
C8_4 C9_4 1_555 1_555
C9_4 C2_4 1_555 1_555
H8_4 C9_4 1_555 1_555
C10_4 C1_4 1_555 1_555
H9_4 C10_4 1_555 1_555
C11_4 N2_4 1_555 1_555
H10_4 C11_4 1_555 1_555
C12_4 C8_4 1_555 1_555
Cu4_4 Cu1_4 1_555 1_555
Cu5_4 Cu1_4 1_555 1_555
Cu6_4 O4_4 1_555 1_555
Cu7_4 O5_4 1_555 1_555
Cu8_4 Cu3_4 1_555 1_555
I3_4 Cu2_4 1_555 1_555
I4_4 Cu1_4 1_555 1_555
O6_4 Cu3_4 1_555 1_555
O7_4 Cu3_4 1_555 1_555
O8_4 Cu3_4 1_555 1_555
Cu2_4 I2_4 1_555 1_555
Cu2_4 Cu4_4 1_555 1_555
Cu2_4 Cu5_4 1_555 1_555
I1_4 Cu5_4 1_555 1_555
I2_4 Cu4_4 1_555 1_555
O3_4 Cu8_4 1_555 1_555
C3_4 C5_4 1_555 1_555
C4_4 C6_4 1_555 1_555
C4_4 C11_4 1_555 1_555
C8_4 C10_4 1_555 1_555
Cu4_4 Cu5_4 1_555 1_555
Cu4_4 I3_4 1_555 1_555
Cu4_4 I4_4 1_555 1_555
Cu5_4 I3_4 1_555 1_555
Cu5_4 I4_4 1_555 1_555
Cu6_4 Cu7_4 1_555 1_555
Cu1_5 Cu2_5 1_555 1_555
Cu2_5 I1_5 1_555 1_555
I1_5 Cu1_5 1_555 1_555
I2_5 Cu1_5 1_555 1_555
O4_5 C12_5 1_555 1_555
O5_5 C12_5 1_555 1_555
N1_5 Cu1_5 1_555 1_555
C1_5 N1_5 1_555 1_555
H3_5 C1_5 1_555 1_555
C2_5 N1_5 1_555 1_555
H4_5 C2_5 1_555 1_555
C8_5 C9_5 1_555 1_555
C9_5 C2_5 1_555 1_555
H8_5 C9_5 1_555 1_555
C10_5 C1_5 1_555 1_555
H9_5 C10_5 1_555 1_555
C12_5 C8_5 1_555 1_555
Cu4_5 Cu1_5 1_555 1_555
Cu5_5 Cu1_5 1_555 1_555
Cu6_5 O4_5 1_555 1_555
Cu7_5 O5_5 1_555 1_555
I3_5 Cu2_5 1_555 1_555
I4_5 Cu1_5 1_555 1_555
Cu2_5 I2_5 1_555 1_555
Cu2_5 Cu4_5 1_555 1_555
Cu2_5 Cu5_5 1_555 1_555
I1_5 Cu5_5 1_555 1_555
I2_5 Cu4_5 1_555 1_555
C8_5 C10_5 1_555 1_555
Cu4_5 Cu5_5 1_555 1_555
Cu4_5 I3_5 1_555 1_555
Cu4_5 I4_5 1_555 1_555
Cu5_5 I3_5 1_555 1_555
Cu5_5 I4_5 1_555 1_555
Cu6_5 Cu7_5 1_555 1_555
Cu3_5 O1_5 1_555 1_555
O1_5 C7_5 1_555 1_555
O2_5 Cu3_5 1_555 1_555
H1_5 O2_5 1_555 1_555
H2_5 O2_5 1_555 1_555
O3_5 C7_5 1_555 1_555
C3_5 H5_5 1_555 1_555
C4_5 H6_5 1_555 1_555
C5_5 N2_5 1_555 1_555
H7_5 C5_5 1_555 1_555
C6_5 C3_5 1_555 1_555
C7_5 C6_5 1_555 1_555
C11_5 N2_5 1_555 1_555
H10_5 C11_5 1_555 1_555
Cu8_5 Cu3_5 1_555 1_555
O6_5 Cu3_5 1_555 1_555
O7_5 Cu3_5 1_555 1_555
O8_5 Cu3_5 1_555 1_555
O3_5 Cu8_5 1_555 1_555
C3_5 C5_5 1_555 1_555
C4_5 C6_5 1_555 1_555
C4_5 C11_5 1_555 1_555
Cu3_6 O1_6 1_555 1_555
O1_6 C7_6 1_555 1_555
O2_6 Cu3_6 1_555 1_555
H1_6 O2_6 1_555 1_555
H2_6 O2_6 1_555 1_555
O3_6 C7_6 1_555 1_555
C3_6 H5_6 1_555 1_555
C4_6 H6_6 1_555 1_555
C5_6 N2_6 1_555 1_555
H7_6 C5_6 1_555 1_555
C6_6 C3_6 1_555 1_555
C7_6 C6_6 1_555 1_555
C11_6 N2_6 1_555 1_555
H10_6 C11_6 1_555 1_555
Cu8_6 Cu3_6 1_555 1_555
O6_6 Cu3_6 1_555 1_555
O7_6 Cu3_6 1_555 1_555
O8_6 Cu3_6 1_555 1_555
O3_6 Cu8_6 1_555 1_555
C3_6 C5_6 1_555 1_555
C4_6 C6_6 1_555 1_555
C4_6 C11_6 1_555 1_555
Cu1_6 Cu2_6 1_555 1_555
Cu2_6 I1_6 1_555 1_555
I1_6 Cu1_6 1_555 1_555
I2_6 Cu1_6 1_555 1_555
O4_6 C12_6 1_555 1_555
O5_6 C12_6 1_555 1_555
N1_6 Cu1_6 1_555 1_555
C1_6 N1_6 1_555 1_555
H3_6 C1_6 1_555 1_555
C2_6 N1_6 1_555 1_555
H4_6 C2_6 1_555 1_555
C8_6 C9_6 1_555 1_555
C9_6 C2_6 1_555 1_555
H8_6 C9_6 1_555 1_555
C10_6 C1_6 1_555 1_555
H9_6 C10_6 1_555 1_555
C12_6 C8_6 1_555 1_555
Cu4_6 Cu1_6 1_555 1_555
Cu5_6 Cu1_6 1_555 1_555
Cu6_6 O4_6 1_555 1_555
Cu7_6 O5_6 1_555 1_555
I3_6 Cu2_6 1_555 1_555
I4_6 Cu1_6 1_555 1_555
Cu2_6 I2_6 1_555 1_555
Cu2_6 Cu4_6 1_555 1_555
Cu2_6 Cu5_6 1_555 1_555
I1_6 Cu5_6 1_555 1_555
I2_6 Cu4_6 1_555 1_555
C8_6 C10_6 1_555 1_555
Cu4_6 Cu5_6 1_555 1_555
Cu4_6 I3_6 1_555 1_555
Cu4_6 I4_6 1_555 1_555
Cu5_6 I3_6 1_555 1_555
Cu5_6 I4_6 1_555 1_555
Cu6_6 Cu7_6 1_555 1_555
O3_7 Cu8_7 1_555 1_555
Cu3_7 O1_7 1_555 1_555
O1_7 C7_7 1_555 1_555
O2_7 Cu3_7 1_555 1_555
H1_7 O2_7 1_555 1_555
H2_7 O2_7 1_555 1_555
O7_3 C12_7 1_555 1_555
O5_7 C12_7 1_555 1_555
N1_7 Cu4_6 1_555 1_555
N2_7 Cu5_6 1_555 1_555
C1_7 N1_7 1_555 1_555
H3_7 C1_7 1_555 1_555
C2_7 N1_7 1_555 1_555
H4_7 C2_7 1_555 1_555
C3_7 H5_7 1_555 1_555
C5_7 N2_7 1_555 1_555
H7_7 C5_7 1_555 1_555
C6_7 C3_7 1_555 1_555
C7_7 C6_7 1_555 1_555
C8_7 C9_7 1_555 1_555
C9_7 C2_7 1_555 1_555
H8_7 C9_7 1_555 1_555
C10_7 C1_7 1_555 1_555
H9_7 C10_7 1_555 1_555
C11_7 N2_7 1_555 1_555
H10_7 C11_7 1_555 1_555
C12_7 C8_7 1_555 1_555
Cu8_3 O5_7 1_555 1_555
O6_7 Cu3_7 1_555 1_555
O7_7 Cu3_7 1_555 1_555
O8_7 Cu3_7 1_555 1_555
C3_7 C5_7 1_555 1_555
C4_7 C6_7 1_555 1_555
C4_7 C11_7 1_555 1_555
C8_7 C10_7 1_555 1_555
Cu3_8 O1_8 1_555 1_555
O1_8 C7_8 1_555 1_555
O2_8 Cu3_8 1_555 1_555
H1_8 O2_8 1_555 1_555
H2_8 O2_8 1_555 1_555
O3_8 C7_8 1_555 1_555
O7 C12_8 1_555 1_555
O5_8 C12_8 1_555 1_555
N1_8 Cu4_4 1_555 1_555
N2_8 Cu5_4 1_555 1_555
C1_8 N1_8 1_555 1_555
H3_8 C1_8 1_555 1_555
C2_8 N1_8 1_555 1_555
H4_8 C2_8 1_555 1_555
C3_8 H5_8 1_555 1_555
C4_8 H6_8 1_555 1_555
C5_8 N2_8 1_555 1_555
H7_8 C5_8 1_555 1_555
C6_8 C3_8 1_555 1_555
C7_8 C6_8 1_555 1_555
C8_8 C9_8 1_555 1_555
C9_8 C2_8 1_555 1_555
H8_8 C9_8 1_555 1_555
C10_8 C1_8 1_555 1_555
H9_8 C10_8 1_555 1_555
C11_8 N2_8 1_555 1_555
H10_8 C11_8 1_555 1_555
C12_8 C8_8 1_555 1_555
Cu8 O5_8 1_555 1_555
Cu8_8 Cu3_8 1_555 1_555
O6_8 Cu3_8 1_555 1_555
O7_8 Cu3_8 1_555 1_555
O8_8 Cu3_8 1_555 1_555
O3_8 Cu8_8 1_555 1_555
C3_8 C5_8 1_555 1_555
C4_8 C6_8 1_555 1_555
C4_8 C11_8 1_555 1_555
C8_8 C10_8 1_555 1_555
Cu3_9 O1_9 1_555 1_555
O1_9 C7_9 1_555 1_555
O2_9 Cu3_9 1_555 1_555
H1_9 O2_9 1_555 1_555
H2_9 O2_9 1_555 1_555
O7_2 C12_9 1_555 1_555
O5_9 C12_9 1_555 1_555
N1_9 Cu4_5 1_555 1_555
N2_9 Cu5_5 1_555 1_555
C1_9 N1_9 1_555 1_555
H3_9 C1_9 1_555 1_555
C2_9 N1_9 1_555 1_555
H4_9 C2_9 1_555 1_555
C3_9 H5_9 1_555 1_555
C5_9 N2_9 1_555 1_555
H7_9 C5_9 1_555 1_555
C6_9 C3_9 1_555 1_555
C7_9 C6_9 1_555 1_555
C8_9 C9_9 1_555 1_555
C9_9 C2_9 1_555 1_555
H8_9 C9_9 1_555 1_555
C10_9 C1_9 1_555 1_555
H9_9 C10_9 1_555 1_555
C11_9 N2_9 1_555 1_555
H10_9 C11_9 1_555 1_555
C12_9 C8_9 1_555 1_555
Cu8_2 O5_9 1_555 1_555
O6_9 Cu3_9 1_555 1_555
O7_9 Cu3_9 1_555 1_555
O8_9 Cu3_9 1_555 1_555
C3_9 C5_9 1_555 1_555
C4_9 C6_9 1_555 1_555
C4_9 C11_9 1_555 1_555
C8_9 C10_9 1_555 1_555
O3_9 Cu8_9 1_555 1_555
H4_10 C2_10 1_555 1_555
C9_10 C2_10 1_555 1_555
H8_10 C9_10 1_555 1_555
Cu5_7 Cu1_7 1_555 1_555
Cu6_7 O4_7 1_555 1_555
I4_7 Cu1_7 1_555 1_555
Cu5_7 I3_7 1_555 1_555
Cu5_7 I4_7 1_555 1_555
Cu2_7 I1_7 1_555 1_555
Cu6_6 O1_10 1_555 1_555
O1_10 C7_10 1_555 1_555
O2_10 Cu6_6 1_555 1_555
H1_10 O2_10 1_555 1_555
H2_10 O2_10 1_555 1_555
O3_10 C7_10 1_555 1_555
O5_10 C12_10 1_555 1_555
N2_10 Cu2_7 1_555 1_555
C1_10 N1_10 1_555 1_555
H3_10 C1_10 1_555 1_555
C3_10 H5_10 1_555 1_555
C4_10 H6_10 1_555 1_555
C5_10 N2_10 1_555 1_555
H7_10 C5_10 1_555 1_555
C6_10 C3_10 1_555 1_555
C7_10 C6_10 1_555 1_555
C10_10 C1_10 1_555 1_555
H9_10 C10_10 1_555 1_555
C11_10 N2_10 1_555 1_555
H10_10 C11_10 1_555 1_555
C12_10 C8_10 1_555 1_555
O6_10 Cu6_6 1_555 1_555
O8_10 Cu6_6 1_555 1_555
Cu2_7 I2_7 1_555 1_555
Cu2_7 Cu4_7 1_555 1_555
I2_7 Cu4_7 1_555 1_555
O3_10 Cu7_6 1_555 1_555
C3_10 C5_10 1_555 1_555
C4_10 C6_10 1_555 1_555
C4_10 C11_10 1_555 1_555
C8_10 C10_10 1_555 1_555
Cu1_8 Cu2_8 1_555 1_555
Cu2_8 I1_8 1_555 1_555
Cu6_4 O1_11 1_555 1_555
I1_8 Cu1_8 1_555 1_555
I2_8 Cu1_8 1_555 1_555
O1_11 C7_11 1_555 1_555
O2_11 Cu6_4 1_555 1_555
H1_11 O2_11 1_555 1_555
H2_11 O2_11 1_555 1_555
O3_11 C7_11 1_555 1_555
O4_8 C12_11 1_555 1_555
O5_11 C12_11 1_555 1_555
N1_11 Cu1_8 1_555 1_555
N2_11 Cu2_8 1_555 1_555
C1_11 N1_11 1_555 1_555
H3_11 C1_11 1_555 1_555
C2_11 N1_11 1_555 1_555
H4_11 C2_11 1_555 1_555
C3_11 H5_11 1_555 1_555
C4_11 H6_11 1_555 1_555
C5_11 N2_11 1_555 1_555
H7_11 C5_11 1_555 1_555
C6_11 C3_11 1_555 1_555
C7_11 C6_11 1_555 1_555
C8_11 C9_11 1_555 1_555
C9_11 C2_11 1_555 1_555
H8_11 C9_11 1_555 1_555
C10_11 C1_11 1_555 1_555
H9_11 C10_11 1_555 1_555
C11_11 N2_11 1_555 1_555
H10_11 C11_11 1_555 1_555
C12_11 C8_11 1_555 1_555
Cu4_8 Cu1_8 1_555 1_555
Cu5_8 Cu1_8 1_555 1_555
Cu6_8 O4_8 1_555 1_555
I3_8 Cu2_8 1_555 1_555
I4_8 Cu1_8 1_555 1_555
O6_11 Cu6_4 1_555 1_555
O8_11 Cu6_4 1_555 1_555
Cu2_8 I2_8 1_555 1_555
Cu2_8 Cu4_8 1_555 1_555
Cu2_8 Cu5_8 1_555 1_555
I1_8 Cu5_8 1_555 1_555
I2_8 Cu4_8 1_555 1_555
O3_11 Cu7_4 1_555 1_555
C3_11 C5_11 1_555 1_555
C4_11 C6_11 1_555 1_555
C4_11 C11_11 1_555 1_555
C8_11 C10_11 1_555 1_555
Cu4_8 Cu5_8 1_555 1_555
Cu4_8 I3_8 1_555 1_555
Cu4_8 I4_8 1_555 1_555
Cu5_8 I3_8 1_555 1_555
Cu5_8 I4_8 1_555 1_555
Cu2_9 I1_9 1_555 1_555
Cu6_5 O1_12 1_555 1_555
O1_12 C7_12 1_555 1_555
O2_12 Cu6_5 1_555 1_555
H1_12 O2_12 1_555 1_555
H2_12 O2_12 1_555 1_555
O3_12 C7_12 1_555 1_555
O5_12 C12_12 1_555 1_555
N2_12 Cu2_9 1_555 1_555
C1_12 N1_12 1_555 1_555
H3_12 C1_12 1_555 1_555
C3_12 H5_12 1_555 1_555
C4_12 H6_12 1_555 1_555
C5_12 N2_12 1_555 1_555
H7_12 C5_12 1_555 1_555
C6_12 C3_12 1_555 1_555
C7_12 C6_12 1_555 1_555
C10_12 C1_12 1_555 1_555
H9_12 C10_12 1_555 1_555
C11_12 N2_12 1_555 1_555
H10_12 C11_12 1_555 1_555
C12_12 C8_12 1_555 1_555
O6_12 Cu6_5 1_555 1_555
O8_12 Cu6_5 1_555 1_555
Cu2_9 I2_9 1_555 1_555
Cu2_9 Cu4_9 1_555 1_555
I2_9 Cu4_9 1_555 1_555
O3_12 Cu7_5 1_555 1_555
C3_12 C5_12 1_555 1_555
C4_12 C6_12 1_555 1_555
C4_12 C11_12 1_555 1_555
C8_12 C10_12 1_555 1_555
H4_12 C2_12 1_555 1_555
C9_12 C2_12 1_555 1_555
H8_12 C9_12 1_555 1_555
Cu5_9 Cu1_9 1_555 1_555
Cu6_9 O4_9 1_555 1_555
I4_9 Cu1_9 1_555 1_555
Cu5_9 I3_9 1_555 1_555
Cu5_9 I4_9 1_555 1_555
H4_13 C2_13 1_555 1_555
C9_13 C2_13 1_555 1_555
H8_13 C9_13 1_555 1_555
Cu6_2 O1_13 1_555 1_555
O1_13 C7_13 1_555 1_555
O2_13 Cu6_2 1_555 1_555
H1_13 O2_13 1_555 1_555
H2_13 O2_13 1_555 1_555
O3_13 C7_13 1_555 1_555
O5_13 C12_13 1_555 1_555
N2_13 Cu5_9 1_555 1_555
C1_13 N1_13 1_555 1_555
H3_13 C1_13 1_555 1_555
C3_13 H5_13 1_555 1_555
C4_13 H6_13 1_555 1_555
C5_13 N2_13 1_555 1_555
H7_13 C5_13 1_555 1_555
C6_13 C3_13 1_555 1_555
C7_13 C6_13 1_555 1_555
C10_13 C1_13 1_555 1_555
H9_13 C10_13 1_555 1_555
C11_13 N2_13 1_555 1_555
H10_13 C11_13 1_555 1_555
C12_13 C8_13 1_555 1_555
Cu8_9 O5_13 1_555 1_555
O6_13 Cu6_2 1_555 1_555
O8_13 Cu6_2 1_555 1_555
O3_13 Cu7_2 1_555 1_555
C3_13 C5_13 1_555 1_555
C4_13 C6_13 1_555 1_555
C4_13 C11_13 1_555 1_555
C8_13 C10_13 1_555 1_555
Cu6_3 O1_14 1_555 1_555
O1_14 C7_14 1_555 1_555
O2_14 Cu6_3 1_555 1_555
H1_14 O2_14 1_555 1_555
H2_14 O2_14 1_555 1_555
O3_14 C7_14 1_555 1_555
O5_14 C12_14 1_555 1_555
N2_14 Cu5_7 1_555 1_555
C1_14 N1_14 1_555 1_555
H3_14 C1_14 1_555 1_555
C3_14 H5_14 1_555 1_555
C4_14 H6_14 1_555 1_555
C5_14 N2_14 1_555 1_555
H7_14 C5_14 1_555 1_555
C6_14 C3_14 1_555 1_555
C7_14 C6_14 1_555 1_555
C10_14 C1_14 1_555 1_555
H9_14 C10_14 1_555 1_555
C11_14 N2_14 1_555 1_555
H10_14 C11_14 1_555 1_555
C12_14 C8_14 1_555 1_555
Cu8_7 O5_14 1_555 1_555
O6_14 Cu6_3 1_555 1_555
O8_14 Cu6_3 1_555 1_555
O3_14 Cu7_3 1_555 1_555
C3_14 C5_14 1_555 1_555
C4_14 C6_14 1_555 1_555
C4_14 C11_14 1_555 1_555
C8_14 C10_14 1_555 1_555
H4_14 C2_14 1_555 1_555
C9_14 C2_14 1_555 1_555
H8_14 C9_14 1_555 1_555
Cu6 O1_15 1_555 1_555
O1_15 C7_15 1_555 1_555
O2_15 Cu6 1_555 1_555
H1_15 O2_15 1_555 1_555
H2_15 O2_15 1_555 1_555
O3_15 C7_15 1_555 1_555
O7_8 C12_15 1_555 1_555
O5_15 C12_15 1_555 1_555
N1_15 Cu4_8 1_555 1_555
N2_15 Cu5_8 1_555 1_555
C1_15 N1_15 1_555 1_555
H3_15 C1_15 1_555 1_555
C2_15 N1_15 1_555 1_555
H4_15 C2_15 1_555 1_555
C3_15 H5_15 1_555 1_555
C4_15 H6_15 1_555 1_555
C5_15 N2_15 1_555 1_555
H7_15 C5_15 1_555 1_555
C6_15 C3_15 1_555 1_555
C7_15 C6_15 1_555 1_555
C8_15 C9_15 1_555 1_555
C9_15 C2_15 1_555 1_555
H8_15 C9_15 1_555 1_555
C10_15 C1_15 1_555 1_555
H9_15 C10_15 1_555 1_555
C11_15 N2_15 1_555 1_555
H10_15 C11_15 1_555 1_555
C12_15 C8_15 1_555 1_555
Cu8_8 O5_15 1_555 1_555
O6_15 Cu6 1_555 1_555
O8_15 Cu6 1_555 1_555
O3_15 Cu7 1_555 1_555
C3_15 C5_15 1_555 1_555
C4_15 C6_15 1_555 1_555
C4_15 C11_15 1_555 1_555
C8_15 C10_15 1_555 1_555
O3_16 Cu7_9 1_555 1_555
O1_16 C7_16 1_555 1_555
O7_5 C12_16 1_555 1_555
O5_16 C12_16 1_555 1_555
N1_16 Cu4_2 1_555 1_555
N2_16 Cu5_2 1_555 1_555
C1_16 N1_16 1_555 1_555
H3_16 C1_16 1_555 1_555
C2_16 N1_16 1_555 1_555
H4_16 C2_16 1_555 1_555
C3_16 H5_16 1_555 1_555
C5_16 N2_16 1_555 1_555
H7_16 C5_16 1_555 1_555
C6_16 C3_16 1_555 1_555
C7_16 C6_16 1_555 1_555
C8_16 C9_16 1_555 1_555
C9_16 C2_16 1_555 1_555
H8_16 C9_16 1_555 1_555
C10_16 C1_16 1_555 1_555
H9_16 C10_16 1_555 1_555
C11_16 N2_16 1_555 1_555
H10_16 C11_16 1_555 1_555
C12_16 C8_16 1_555 1_555
Cu8_5 O5_16 1_555 1_555
C3_16 C5_16 1_555 1_555
C4_16 C6_16 1_555 1_555
C4_16 C11_16 1_555 1_555
C8_16 C10_16 1_555 1_555
O2_16 Cu6_9 1_555 1_555
H1_16 O2_16 1_555 1_555
O6_16 Cu6_9 1_555 1_555
O1_17 C7_17 1_555 1_555
O7_6 C12_17 1_555 1_555
O5_17 C12_17 1_555 1_555
N1_17 Cu4_3 1_555 1_555
N2_17 Cu5_3 1_555 1_555
C1_17 N1_17 1_555 1_555
H3_17 C1_17 1_555 1_555
C2_17 N1_17 1_555 1_555
H4_17 C2_17 1_555 1_555
C3_17 H5_17 1_555 1_555
C5_17 N2_17 1_555 1_555
H7_17 C5_17 1_555 1_555
C6_17 C3_17 1_555 1_555
C7_17 C6_17 1_555 1_555
C8_17 C9_17 1_555 1_555
C9_17 C2_17 1_555 1_555
H8_17 C9_17 1_555 1_555
C10_17 C1_17 1_555 1_555
H9_17 C10_17 1_555 1_555
C11_17 N2_17 1_555 1_555
H10_17 C11_17 1_555 1_555
C12_17 C8_17 1_555 1_555
Cu8_6 O5_17 1_555 1_555
C3_17 C5_17 1_555 1_555
C4_17 C6_17 1_555 1_555
C4_17 C11_17 1_555 1_555
C8_17 C10_17 1_555 1_555
O2_17 Cu6_7 1_555 1_555
H1_17 O2_17 1_555 1_555
O6_17 Cu6_7 1_555 1_555
O3_17 Cu7_7 1_555 1_555
O1_18 C7_18 1_555 1_555
O3_18 C7_18 1_555 1_555
O7_4 C12_18 1_555 1_555
O5_18 C12_18 1_555 1_555
N1_18 Cu4 1_555 1_555
N2_18 Cu5 1_555 1_555
C1_18 N1_18 1_555 1_555
H3_18 C1_18 1_555 1_555
C2_18 N1_18 1_555 1_555
H4_18 C2_18 1_555 1_555
C3_18 H5_18 1_555 1_555
C4_18 H6_18 1_555 1_555
C5_18 N2_18 1_555 1_555
H7_18 C5_18 1_555 1_555
C6_18 C3_18 1_555 1_555
C7_18 C6_18 1_555 1_555
C8_18 C9_18 1_555 1_555
C9_18 C2_18 1_555 1_555
H8_18 C9_18 1_555 1_555
C10_18 C1_18 1_555 1_555
H9_18 C10_18 1_555 1_555
C11_18 N2_18 1_555 1_555
H10_18 C11_18 1_555 1_555
C12_18 C8_18 1_555 1_555
Cu8_4 O5_18 1_555 1_555
O3_18 Cu7_8 1_555 1_555
C3_18 C5_18 1_555 1_555
C4_18 C6_18 1_555 1_555
C4_18 C11_18 1_555 1_555
C8_18 C10_18 1_555 1_555
O2_18 Cu6_8 1_555 1_555
H1_18 O2_18 1_555 1_555
O6_18 Cu6_8 1_555 1_555
O4_10 C12_19 1_555 1_555
O8_3 C12_19 1_555 1_555
C1_19 N1_19 1_555 1_555
H3_19 C1_19 1_555 1_555
C2_19 N1_19 1_555 1_555
C8_19 C9_19 1_555 1_555
C9_19 C2_19 1_555 1_555
H8_19 C9_19 1_555 1_555
C10_19 C1_19 1_555 1_555
H9_19 C10_19 1_555 1_555
C12_19 C8_19 1_555 1_555
Cu8_3 O4_10 1_555 1_555
C8_19 C10_19 1_555 1_555
Cu1_10 Cu2_10 1_555 1_555
Cu2_10 I1_10 1_555 1_555
Cu7_2 O1_19 1_555 1_555
I1_10 Cu1_10 1_555 1_555
I2_10 Cu1_10 1_555 1_555
O1_19 C7_19 1_555 1_555
O2_19 Cu7_2 1_555 1_555
H1_19 O2_19 1_555 1_555
H2_19 O2_19 1_555 1_555
O6_13 C7_19 1_555 1_555
N2_19 Cu2_10 1_555 1_555
C3_19 H5_19 1_555 1_555
C4_19 H6_19 1_555 1_555
C5_19 N2_19 1_555 1_555
H7_19 C5_19 1_555 1_555
C6_19 C3_19 1_555 1_555
C7_19 C6_19 1_555 1_555
C11_19 N2_19 1_555 1_555
H10_19 C11_19 1_555 1_555
Cu4_10 Cu1_10 1_555 1_555
Cu5_10 Cu1_10 1_555 1_555
I3_10 Cu2_10 1_555 1_555
I4_10 Cu1_10 1_555 1_555
O7_10 Cu7_2 1_555 1_555
Cu2_10 I2_10 1_555 1_555
Cu2_10 Cu4_10 1_555 1_555
Cu2_10 Cu5_10 1_555 1_555
I1_10 Cu5_10 1_555 1_555
I2_10 Cu4_10 1_555 1_555
C3_19 C5_19 1_555 1_555
C4_19 C6_19 1_555 1_555
C4_19 C11_19 1_555 1_555
Cu4_10 Cu5_10 1_555 1_555
Cu4_10 I3_10 1_555 1_555
Cu4_10 I4_10 1_555 1_555
Cu5_10 I3_10 1_555 1_555
Cu5_10 I4_10 1_555 1_555
O4_11 C12_20 1_555 1_555
O8 C12_20 1_555 1_555
C1_20 N1_20 1_555 1_555
H3_20 C1_20 1_555 1_555
C2_20 N1_20 1_555 1_555
C8_20 C9_20 1_555 1_555
C9_20 C2_20 1_555 1_555
H8_20 C9_20 1_555 1_555
C10_20 C1_20 1_555 1_555
H9_20 C10_20 1_555 1_555
C12_20 C8_20 1_555 1_555
Cu8 O4_11 1_555 1_555
C8_20 C10_20 1_555 1_555
Cu1_11 Cu2_11 1_555 1_555
Cu2_11 I1_11 1_555 1_555
I1_11 Cu1_11 1_555 1_555
I2_11 Cu1_11 1_555 1_555
Cu4_11 Cu1_11 1_555 1_555
Cu5_11 Cu1_11 1_555 1_555
I3_11 Cu2_11 1_555 1_555
I4_11 Cu1_11 1_555 1_555
Cu2_11 I2_11 1_555 1_555
Cu2_11 Cu4_11 1_555 1_555
Cu2_11 Cu5_11 1_555 1_555
I1_11 Cu5_11 1_555 1_555
I2_11 Cu4_11 1_555 1_555
Cu4_11 Cu5_11 1_555 1_555
Cu4_11 I3_11 1_555 1_555
Cu4_11 I4_11 1_555 1_555
Cu5_11 I3_11 1_555 1_555
Cu5_11 I4_11 1_555 1_555
Cu7_3 O1_20 1_555 1_555
O1_20 C7_20 1_555 1_555
O2_20 Cu7_3 1_555 1_555
H1_20 O2_20 1_555 1_555
H2_20 O2_20 1_555 1_555
O6_14 C7_20 1_555 1_555
C3_20 H5_20 1_555 1_555
C4_20 H6_20 1_555 1_555
C5_20 N2_20 1_555 1_555
H7_20 C5_20 1_555 1_555
C6_20 C3_20 1_555 1_555
C7_20 C6_20 1_555 1_555
C11_20 N2_20 1_555 1_555
H10_20 C11_20 1_555 1_555
O7_11 Cu7_3 1_555 1_555
C3_20 C5_20 1_555 1_555
C4_20 C6_20 1_555 1_555
C4_20 C11_20 1_555 1_555
Cu7 O1_21 1_555 1_555
O1_21 C7_21 1_555 1_555
O2_21 Cu7 1_555 1_555
H1_21 O2_21 1_555 1_555
H2_21 O2_21 1_555 1_555
O6_15 C7_21 1_555 1_555
C3_21 H5_21 1_555 1_555
C4_21 H6_21 1_555 1_555
C5_21 N2_21 1_555 1_555
H7_21 C5_21 1_555 1_555
C6_21 C3_21 1_555 1_555
C7_21 C6_21 1_555 1_555
C11_21 N2_21 1_555 1_555
H10_21 C11_21 1_555 1_555
O7_12 Cu7 1_555 1_555
C3_21 C5_21 1_555 1_555
C4_21 C6_21 1_555 1_555
C4_21 C11_21 1_555 1_555
O4_12 C12_21 1_555 1_555
O8_2 C12_21 1_555 1_555
C1_21 N1_21 1_555 1_555
H3_21 C1_21 1_555 1_555
C2_21 N1_21 1_555 1_555
C8_21 C9_21 1_555 1_555
C9_21 C2_21 1_555 1_555
H8_21 C9_21 1_555 1_555
C10_21 C1_21 1_555 1_555
H9_21 C10_21 1_555 1_555
C12_21 C8_21 1_555 1_555
Cu8_2 O4_12 1_555 1_555
C8_21 C10_21 1_555 1_555
Cu1_12 Cu2_12 1_555 1_555
Cu2_12 I1_12 1_555 1_555
I1_12 Cu1_12 1_555 1_555
I2_12 Cu1_12 1_555 1_555
Cu4_12 Cu1_12 1_555 1_555
Cu5_12 Cu1_12 1_555 1_555
I3_12 Cu2_12 1_555 1_555
I4_12 Cu1_12 1_555 1_555
Cu2_12 I2_12 1_555 1_555
Cu2_12 Cu4_12 1_555 1_555
Cu2_12 Cu5_12 1_555 1_555
I1_12 Cu5_12 1_555 1_555
I2_12 Cu4_12 1_555 1_555
Cu4_12 Cu5_12 1_555 1_555
Cu4_12 I3_12 1_555 1_555
Cu4_12 I4_12 1_555 1_555
Cu5_12 I3_12 1_555 1_555
Cu5_12 I4_12 1_555 1_555
Cu1_13 Cu2_13 1_555 1_555
Cu2_13 I1_13 1_555 1_555
Cu7_6 O1_22 1_555 1_555
I1_13 Cu1_13 1_555 1_555
I2_13 Cu1_13 1_555 1_555
O1_22 C7_22 1_555 1_555
O2_22 Cu7_6 1_555 1_555
H1_22 O2_22 1_555 1_555
H2_22 O2_22 1_555 1_555
O6_10 C7_22 1_555 1_555
O4_13 C12_22 1_555 1_555
O8_5 C12_22 1_555 1_555
N1_22 Cu1_13 1_555 1_555
N2_22 Cu2_13 1_555 1_555
C1_22 N1_22 1_555 1_555
H3_22 C1_22 1_555 1_555
C2_22 N1_22 1_555 1_555
H4_22 C2_22 1_555 1_555
C3_22 H5_22 1_555 1_555
C4_22 H6_22 1_555 1_555
C5_22 N2_22 1_555 1_555
H7_22 C5_22 1_555 1_555
C6_22 C3_22 1_555 1_555
C7_22 C6_22 1_555 1_555
C8_22 C9_22 1_555 1_555
C9_22 C2_22 1_555 1_555
H8_22 C9_22 1_555 1_555
C10_22 C1_22 1_555 1_555
H9_22 C10_22 1_555 1_555
C11_22 N2_22 1_555 1_555
H10_22 C11_22 1_555 1_555
C12_22 C8_22 1_555 1_555
Cu4_13 Cu1_13 1_555 1_555
Cu5_13 Cu1_13 1_555 1_555
Cu8_5 O4_13 1_555 1_555
I3_13 Cu2_13 1_555 1_555
I4_13 Cu1_13 1_555 1_555
O7_13 Cu7_6 1_555 1_555
Cu2_13 I2_13 1_555 1_555
Cu2_13 Cu4_13 1_555 1_555
Cu2_13 Cu5_13 1_555 1_555
I1_13 Cu5_13 1_555 1_555
I2_13 Cu4_13 1_555 1_555
C3_22 C5_22 1_555 1_555
C4_22 C6_22 1_555 1_555
C4_22 C11_22 1_555 1_555
C8_22 C10_22 1_555 1_555
Cu4_13 Cu5_13 1_555 1_555
Cu4_13 I3_13 1_555 1_555
Cu4_13 I4_13 1_555 1_555
Cu5_13 I3_13 1_555 1_555
Cu5_13 I4_13 1_555 1_555
Cu7_4 O1_23 1_555 1_555
O1_23 C7_23 1_555 1_555
O2_23 Cu7_4 1_555 1_555
H1_23 O2_23 1_555 1_555
H2_23 O2_23 1_555 1_555
O6_11 C7_23 1_555 1_555
C3_23 H5_23 1_555 1_555
C4_23 H6_23 1_555 1_555
C5_23 N2_23 1_555 1_555
H7_23 C5_23 1_555 1_555
C6_23 C3_23 1_555 1_555
C7_23 C6_23 1_555 1_555
C11_23 N2_23 1_555 1_555
H10_23 C11_23 1_555 1_555
O7_14 Cu7_4 1_555 1_555
C3_23 C5_23 1_555 1_555
C4_23 C6_23 1_555 1_555
C4_23 C11_23 1_555 1_555
Cu1_14 Cu2_14 1_555 1_555
Cu2_14 I1_14 1_555 1_555
I1_14 Cu1_14 1_555 1_555
I2_14 Cu1_14 1_555 1_555
O4_14 C12_23 1_555 1_555
O8_6 C12_23 1_555 1_555
N1_23 Cu1_14 1_555 1_555
C1_23 N1_23 1_555 1_555
H3_23 C1_23 1_555 1_555
C2_23 N1_23 1_555 1_555
H4_23 C2_23 1_555 1_555
C8_23 C9_23 1_555 1_555
C9_23 C2_23 1_555 1_555
H8_23 C9_23 1_555 1_555
C10_23 C1_23 1_555 1_555
H9_23 C10_23 1_555 1_555
C12_23 C8_23 1_555 1_555
Cu4_14 Cu1_14 1_555 1_555
Cu5_14 Cu1_14 1_555 1_555
Cu8_6 O4_14 1_555 1_555
I3_14 Cu2_14 1_555 1_555
I4_14 Cu1_14 1_555 1_555
Cu2_14 I2_14 1_555 1_555
Cu2_14 Cu4_14 1_555 1_555
Cu2_14 Cu5_14 1_555 1_555
I1_14 Cu5_14 1_555 1_555
I2_14 Cu4_14 1_555 1_555
C8_23 C10_23 1_555 1_555
Cu4_14 Cu5_14 1_555 1_555
Cu4_14 I3_14 1_555 1_555
Cu4_14 I4_14 1_555 1_555
Cu5_14 I3_14 1_555 1_555
Cu5_14 I4_14 1_555 1_555
Cu1_15 Cu2_15 1_555 1_555
Cu2_15 I1_15 1_555 1_555
I1_15 Cu1_15 1_555 1_555
I2_15 Cu1_15 1_555 1_555
O4_15 C12_24 1_555 1_555
O8_4 C12_24 1_555 1_555
N1_24 Cu1_15 1_555 1_555
C1_24 N1_24 1_555 1_555
H3_24 C1_24 1_555 1_555
C2_24 N1_24 1_555 1_555
H4_24 C2_24 1_555 1_555
C8_24 C9_24 1_555 1_555
C9_24 C2_24 1_555 1_555
H8_24 C9_24 1_555 1_555
C10_24 C1_24 1_555 1_555
H9_24 C10_24 1_555 1_555
C12_24 C8_24 1_555 1_555
Cu4_15 Cu1_15 1_555 1_555
Cu5_15 Cu1_15 1_555 1_555
Cu8_4 O4_15 1_555 1_555
I3_15 Cu2_15 1_555 1_555
I4_15 Cu1_15 1_555 1_555
Cu2_15 I2_15 1_555 1_555
Cu2_15 Cu4_15 1_555 1_555
Cu2_15 Cu5_15 1_555 1_555
I1_15 Cu5_15 1_555 1_555
I2_15 Cu4_15 1_555 1_555
C8_24 C10_24 1_555 1_555
Cu4_15 Cu5_15 1_555 1_555
Cu4_15 I3_15 1_555 1_555
Cu4_15 I4_15 1_555 1_555
Cu5_15 I3_15 1_555 1_555
Cu5_15 I4_15 1_555 1_555
Cu7_5 O1_24 1_555 1_555
O1_24 C7_24 1_555 1_555
O2_24 Cu7_5 1_555 1_555
H1_24 O2_24 1_555 1_555
H2_24 O2_24 1_555 1_555
O6_12 C7_24 1_555 1_555
C3_24 H5_24 1_555 1_555
C4_24 H6_24 1_555 1_555
C5_24 N2_24 1_555 1_555
H7_24 C5_24 1_555 1_555
C6_24 C3_24 1_555 1_555
C7_24 C6_24 1_555 1_555
C11_24 N2_24 1_555 1_555
H10_24 C11_24 1_555 1_555
O7_15 Cu7_5 1_555 1_555
C3_24 C5_24 1_555 1_555
C4_24 C6_24 1_555 1_555
C4_24 C11_24 1_555 1_555
Cu8_7 O1_25 1_555 1_555
O1_25 C7_25 1_555 1_555
O2_25 Cu8_7 1_555 1_555
H1_25 O2_25 1_555 1_555
H2_25 O2_25 1_555 1_555
O7_12 C12_25 1_555 1_555
O8_15 C12_25 1_555 1_555
N1_25 Cu4_15 1_555 1_555
N2_25 Cu5_15 1_555 1_555
C1_25 N1_25 1_555 1_555
H3_25 C1_25 1_555 1_555
C2_25 N1_25 1_555 1_555
H4_25 C2_25 1_555 1_555
C3_25 H5_25 1_555 1_555
C5_25 N2_25 1_555 1_555
H7_25 C5_25 1_555 1_555
C6_25 C3_25 1_555 1_555
C7_25 C6_25 1_555 1_555
C8_25 C9_25 1_555 1_555
C9_25 C2_25 1_555 1_555
H8_25 C9_25 1_555 1_555
C10_25 C1_25 1_555 1_555
H9_25 C10_25 1_555 1_555
C11_25 N2_25 1_555 1_555
H10_25 C11_25 1_555 1_555
C12_25 C8_25 1_555 1_555
O7_16 Cu8_7 1_555 1_555
C3_25 C5_25 1_555 1_555
C4_25 C6_25 1_555 1_555
C4_25 C11_25 1_555 1_555
C8_25 C10_25 1_555 1_555
Cu8_8 O1_26 1_555 1_555
O1_26 C7_26 1_555 1_555
O2_26 Cu8_8 1_555 1_555
H1_26 O2_26 1_555 1_555
H2_26 O2_26 1_555 1_555
O6_8 C7_26 1_555 1_555
O7_10 C12_26 1_555 1_555
O8_13 C12_26 1_555 1_555
N1_26 Cu4_13 1_555 1_555
N2_26 Cu5_13 1_555 1_555
C1_26 N1_26 1_555 1_555
H3_26 C1_26 1_555 1_555
C2_26 N1_26 1_555 1_555
H4_26 C2_26 1_555 1_555
C3_26 H5_26 1_555 1_555
C4_26 H6_26 1_555 1_555
C5_26 N2_26 1_555 1_555
H7_26 C5_26 1_555 1_555
C6_26 C3_26 1_555 1_555
C7_26 C6_26 1_555 1_555
C8_26 C9_26 1_555 1_555
C9_26 C2_26 1_555 1_555
H8_26 C9_26 1_555 1_555
C10_26 C1_26 1_555 1_555
H9_26 C10_26 1_555 1_555
C11_26 N2_26 1_555 1_555
H10_26 C11_26 1_555 1_555
C12_26 C8_26 1_555 1_555
O7_17 Cu8_8 1_555 1_555
C3_26 C5_26 1_555 1_555
C4_26 C6_26 1_555 1_555
C4_26 C11_26 1_555 1_555
C8_26 C10_26 1_555 1_555
Cu8_9 O1_27 1_555 1_555
O1_27 C7_27 1_555 1_555
O2_27 Cu8_9 1_555 1_555
H1_27 O2_27 1_555 1_555
H2_27 O2_27 1_555 1_555
O7_11 C12_27 1_555 1_555
O8_14 C12_27 1_555 1_555
N1_27 Cu4_14 1_555 1_555
N2_27 Cu5_14 1_555 1_555
C1_27 N1_27 1_555 1_555
H3_27 C1_27 1_555 1_555
C2_27 N1_27 1_555 1_555
H4_27 C2_27 1_555 1_555
C3_27 H5_27 1_555 1_555
C5_27 N2_27 1_555 1_555
H7_27 C5_27 1_555 1_555
C6_27 C3_27 1_555 1_555
C7_27 C6_27 1_555 1_555
C8_27 C9_27 1_555 1_555
C9_27 C2_27 1_555 1_555
H8_27 C9_27 1_555 1_555
C10_27 C1_27 1_555 1_555
H9_27 C10_27 1_555 1_555
C11_27 N2_27 1_555 1_555
H10_27 C11_27 1_555 1_555
C12_27 C8_27 1_555 1_555
O7_18 Cu8_9 1_555 1_555
C3_27 C5_27 1_555 1_555
C4_27 C6_27 1_555 1_555
C4_27 C11_27 1_555 1_555
C8_27 C10_27 1_555 1_555
Cu2_16 I1_16 1_555 1_555
Cu8_4 O1_28 1_555 1_555
O1_28 C7_28 1_555 1_555
O2_28 Cu8_4 1_555 1_555
H1_28 O2_28 1_555 1_555
H2_28 O2_28 1_555 1_555
O6_4 C7_28 1_555 1_555
O8_17 C12_28 1_555 1_555
N2_28 Cu2_16 1_555 1_555
C1_28 N1_28 1_555 1_555
H3_28 C1_28 1_555 1_555
C3_28 H5_28 1_555 1_555
C4_28 H6_28 1_555 1_555
C5_28 N2_28 1_555 1_555
H7_28 C5_28 1_555 1_555
C6_28 C3_28 1_555 1_555
C7_28 C6_28 1_555 1_555
C10_28 C1_28 1_555 1_555
H9_28 C10_28 1_555 1_555
C11_28 N2_28 1_555 1_555
H10_28 C11_28 1_555 1_555
C12_28 C8_28 1_555 1_555
Cu2_16 I2_16 1_555 1_555
Cu2_16 Cu4_16 1_555 1_555
I2_16 Cu4_16 1_555 1_555
C3_28 C5_28 1_555 1_555
C4_28 C6_28 1_555 1_555
C4_28 C11_28 1_555 1_555
C8_28 C10_28 1_555 1_555
H4_28 C2_28 1_555 1_555
C9_28 C2_28 1_555 1_555
H8_28 C9_28 1_555 1_555
Cu5_16 Cu1_16 1_555 1_555
Cu7_7 O4_16 1_555 1_555
I4_16 Cu1_16 1_555 1_555
Cu5_16 I3_16 1_555 1_555
Cu5_16 I4_16 1_555 1_555
Cu1_17 Cu2_17 1_555 1_555
Cu2_17 I1_17 1_555 1_555
Cu8_5 O1_29 1_555 1_555
I1_17 Cu1_17 1_555 1_555
I2_17 Cu1_17 1_555 1_555
O1_29 C7_29 1_555 1_555
O2_29 Cu8_5 1_555 1_555
H1_29 O2_29 1_555 1_555
H2_29 O2_29 1_555 1_555
O6_5 C7_29 1_555 1_555
O4_17 C12_29 1_555 1_555
O8_18 C12_29 1_555 1_555
N1_29 Cu1_17 1_555 1_555
N2_29 Cu2_17 1_555 1_555
C1_29 N1_29 1_555 1_555
H3_29 C1_29 1_555 1_555
C2_29 N1_29 1_555 1_555
H4_29 C2_29 1_555 1_555
C3_29 H5_29 1_555 1_555
C4_29 H6_29 1_555 1_555
C5_29 N2_29 1_555 1_555
H7_29 C5_29 1_555 1_555
C6_29 C3_29 1_555 1_555
C7_29 C6_29 1_555 1_555
C8_29 C9_29 1_555 1_555
C9_29 C2_29 1_555 1_555
H8_29 C9_29 1_555 1_555
C10_29 C1_29 1_555 1_555
H9_29 C10_29 1_555 1_555
C11_29 N2_29 1_555 1_555
H10_29 C11_29 1_555 1_555
C12_29 C8_29 1_555 1_555
Cu4_17 Cu1_17 1_555 1_555
Cu5_17 Cu1_17 1_555 1_555
Cu7_8 O4_17 1_555 1_555
I3_17 Cu2_17 1_555 1_555
I4_17 Cu1_17 1_555 1_555
Cu2_17 I2_17 1_555 1_555
Cu2_17 Cu4_17 1_555 1_555
Cu2_17 Cu5_17 1_555 1_555
I1_17 Cu5_17 1_555 1_555
I2_17 Cu4_17 1_555 1_555
C3_29 C5_29 1_555 1_555
C4_29 C6_29 1_555 1_555
C4_29 C11_29 1_555 1_555
C8_29 C10_29 1_555 1_555
Cu4_17 Cu5_17 1_555 1_555
Cu4_17 I3_17 1_555 1_555
Cu4_17 I4_17 1_555 1_555
Cu5_17 I3_17 1_555 1_555
Cu5_17 I4_17 1_555 1_555
H4_30 C2_30 1_555 1_555
C9_30 C2_30 1_555 1_555
H8_30 C9_30 1_555 1_555
Cu5_18 Cu1_18 1_555 1_555
Cu7_9 O4_18 1_555 1_555
I4_18 Cu1_18 1_555 1_555
Cu5_18 I3_18 1_555 1_555
Cu5_18 I4_18 1_555 1_555
Cu2_18 I1_18 1_555 1_555
Cu8_6 O1_30 1_555 1_555
O1_30 C7_30 1_555 1_555
O2_30 Cu8_6 1_555 1_555
H1_30 O2_30 1_555 1_555
H2_30 O2_30 1_555 1_555
O6_6 C7_30 1_555 1_555
O8_16 C12_30 1_555 1_555
N2_30 Cu2_18 1_555 1_555
C1_30 N1_30 1_555 1_555
H3_30 C1_30 1_555 1_555
C3_30 H5_30 1_555 1_555
C4_30 H6_30 1_555 1_555
C5_30 N2_30 1_555 1_555
H7_30 C5_30 1_555 1_555
C6_30 C3_30 1_555 1_555
C7_30 C6_30 1_555 1_555
C10_30 C1_30 1_555 1_555
H9_30 C10_30 1_555 1_555
C11_30 N2_30 1_555 1_555
H10_30 C11_30 1_555 1_555
C12_30 C8_30 1_555 1_555
Cu2_18 I2_18 1_555 1_555
Cu2_18 Cu4_18 1_555 1_555
I2_18 Cu4_18 1_555 1_555
C3_30 C5_30 1_555 1_555
C4_30 C6_30 1_555 1_555
C4_30 C11_30 1_555 1_555
C8_30 C10_30 1_555 1_555
Cu8 O1_31 1_555 1_555
O1_31 C7_31 1_555 1_555
O2_31 Cu8 1_555 1_555
H1_31 O2_31 1_555 1_555
H2_31 O2_31 1_555 1_555
O6 C7_31 1_555 1_555
O8_9 C12_31 1_555 1_555
N2_31 Cu5_18 1_555 1_555
C1_31 N1_31 1_555 1_555
H3_31 C1_31 1_555 1_555
C3_31 H5_31 1_555 1_555
C4_31 H6_31 1_555 1_555
C5_31 N2_31 1_555 1_555
H7_31 C5_31 1_555 1_555
C6_31 C3_31 1_555 1_555
C7_31 C6_31 1_555 1_555
C10_31 C1_31 1_555 1_555
H9_31 C10_31 1_555 1_555
C11_31 N2_31 1_555 1_555
H10_31 C11_31 1_555 1_555
C12_31 C8_31 1_555 1_555
C3_31 C5_31 1_555 1_555
C4_31 C6_31 1_555 1_555
C4_31 C11_31 1_555 1_555
C8_31 C10_31 1_555 1_555
H4_31 C2_31 1_555 1_555
C9_31 C2_31 1_555 1_555
H8_31 C9_31 1_555 1_555
H4_32 C2_32 1_555 1_555
C9_32 C2_32 1_555 1_555
H8_32 C9_32 1_555 1_555
Cu8_2 O1_32 1_555 1_555
O1_32 C7_32 1_555 1_555
O2_32 Cu8_2 1_555 1_555
H1_32 O2_32 1_555 1_555
H2_32 O2_32 1_555 1_555
O6_2 C7_32 1_555 1_555
O8_7 C12_32 1_555 1_555
N2_32 Cu5_16 1_555 1_555
C1_32 N1_32 1_555 1_555
H3_32 C1_32 1_555 1_555
C3_32 H5_32 1_555 1_555
C4_32 H6_32 1_555 1_555
C5_32 N2_32 1_555 1_555
H7_32 C5_32 1_555 1_555
C6_32 C3_32 1_555 1_555
C7_32 C6_32 1_555 1_555
C10_32 C1_32 1_555 1_555
H9_32 C10_32 1_555 1_555
C11_32 N2_32 1_555 1_555
H10_32 C11_32 1_555 1_555
C12_32 C8_32 1_555 1_555
C3_32 C5_32 1_555 1_555
C4_32 C6_32 1_555 1_555
C4_32 C11_32 1_555 1_555
C8_32 C10_32 1_555 1_555
Cu8_3 O1_33 1_555 1_555
O1_33 C7_33 1_555 1_555
O2_33 Cu8_3 1_555 1_555
H1_33 O2_33 1_555 1_555
H2_33 O2_33 1_555 1_555
O6_3 C7_33 1_555 1_555
O7_17 C12_33 1_555 1_555
O8_8 C12_33 1_555 1_555
N1_33 Cu4_17 1_555 1_555
N2_33 Cu5_17 1_555 1_555
C1_33 N1_33 1_555 1_555
H3_33 C1_33 1_555 1_555
C2_33 N1_33 1_555 1_555
H4_33 C2_33 1_555 1_555
C3_33 H5_33 1_555 1_555
C4_33 H6_33 1_555 1_555
C5_33 N2_33 1_555 1_555
H7_33 C5_33 1_555 1_555
C6_33 C3_33 1_555 1_555
C7_33 C6_33 1_555 1_555
C8_33 C9_33 1_555 1_555
C9_33 C2_33 1_555 1_555
H8_33 C9_33 1_555 1_555
C10_33 C1_33 1_555 1_555
H9_33 C10_33 1_555 1_555
C11_33 N2_33 1_555 1_555
H10_33 C11_33 1_555 1_555
C12_33 C8_33 1_555 1_555
C3_33 C5_33 1_555 1_555
C4_33 C6_33 1_555 1_555
C4_33 C11_33 1_555 1_555
C8_33 C10_33 1_555 1_555
O2_34 Cu7_9 1_555 1_555
H1_34 O2_34 1_555 1_555
O1_34 C7_34 1_555 1_555
O7_14 C12_34 1_555 1_555
O8_11 C12_34 1_555 1_555
N1_34 Cu4_11 1_555 1_555
N2_34 Cu5_11 1_555 1_555
C1_34 N1_34 1_555 1_555
H3_34 C1_34 1_555 1_555
C2_34 N1_34 1_555 1_555
H4_34 C2_34 1_555 1_555
C3_34 H5_34 1_555 1_555
C5_34 N2_34 1_555 1_555
H7_34 C5_34 1_555 1_555
C6_34 C3_34 1_555 1_555
C7_34 C6_34 1_555 1_555
C8_34 C9_34 1_555 1_555
C9_34 C2_34 1_555 1_555
H8_34 C9_34 1_555 1_555
C10_34 C1_34 1_555 1_555
H9_34 C10_34 1_555 1_555
C11_34 N2_34 1_555 1_555
H10_34 C11_34 1_555 1_555
C12_34 C8_34 1_555 1_555
C3_34 C5_34 1_555 1_555
C4_34 C6_34 1_555 1_555
C4_34 C11_34 1_555 1_555
C8_34 C10_34 1_555 1_555
O2_35 Cu7_7 1_555 1_555
H1_35 O2_35 1_555 1_555
O1_35 C7_35 1_555 1_555
O7_15 C12_35 1_555 1_555
O8_12 C12_35 1_555 1_555
N1_35 Cu4_12 1_555 1_555
N2_35 Cu5_12 1_555 1_555
C1_35 N1_35 1_555 1_555
H3_35 C1_35 1_555 1_555
C2_35 N1_35 1_555 1_555
H4_35 C2_35 1_555 1_555
C3_35 H5_35 1_555 1_555
C5_35 N2_35 1_555 1_555
H7_35 C5_35 1_555 1_555
C6_35 C3_35 1_555 1_555
C7_35 C6_35 1_555 1_555
C8_35 C9_35 1_555 1_555
C9_35 C2_35 1_555 1_555
H8_35 C9_35 1_555 1_555
C10_35 C1_35 1_555 1_555
H9_35 C10_35 1_555 1_555
C11_35 N2_35 1_555 1_555
H10_35 C11_35 1_555 1_555
C12_35 C8_35 1_555 1_555
C3_35 C5_35 1_555 1_555
C4_35 C6_35 1_555 1_555
C4_35 C11_35 1_555 1_555
C8_35 C10_35 1_555 1_555
O2_36 Cu7_8 1_555 1_555
H1_36 O2_36 1_555 1_555
O1_36 C7_36 1_555 1_555
O6_18 C7_36 1_555 1_555
O7_13 C12_36 1_555 1_555
O8_10 C12_36 1_555 1_555
N1_36 Cu4_10 1_555 1_555
N2_36 Cu5_10 1_555 1_555
C1_36 N1_36 1_555 1_555
H3_36 C1_36 1_555 1_555
C2_36 N1_36 1_555 1_555
H4_36 C2_36 1_555 1_555
C3_36 H5_36 1_555 1_555
C4_36 H6_36 1_555 1_555
C5_36 N2_36 1_555 1_555
H7_36 C5_36 1_555 1_555
C6_36 C3_36 1_555 1_555
C7_36 C6_36 1_555 1_555
C8_36 C9_36 1_555 1_555
C9_36 C2_36 1_555 1_555
H8_36 C9_36 1_555 1_555
C10_36 C1_36 1_555 1_555
H9_36 C10_36 1_555 1_555
C11_36 N2_36 1_555 1_555
H10_36 C11_36 1_555 1_555
C12_36 C8_36 1_555 1_555
C3_36 C5_36 1_555 1_555
C4_36 C6_36 1_555 1_555
C4_36 C11_36 1_555 1_555
C8_36 C10_36 1_555 1_555

#END
