
###############################################################################
#
# This file contains modified crystal structure data generated from the
# MOF subset of the Cambridge Structural Database (CSD) v543 
# hosted by the Cambridge Crystallographic Data Centre (CCDC).
#
# This work is licensed under the Creative Commons
# Attribution-NonCommercial-ShareAlike 4.0 International License.
# To view a copy of this license, visit
# http://creativecommons.org/licenses/by-nc-sa/4.0/
# or send a letter to
# Creative Commons, PO Box 1866, Mountain View, CA 94042, USA.
#
# CIF created using the CSD Python API on 29 September 2022
# The structure has been converted into the P1 space group
# The structure has a 3D framework
# The original CSD entry JUFFEY is in the monoclinic crystal system
# The framework has been calculated to contain at least 10.0% void space
# The void calculation uses a probe of radius 1.32A, grid spacing 0.4
#
###############################################################################

data_JUFFEY
_chemical_formula_moiety         '(C896 H640 Cu64 I32 N64 O126)n'
_symmetry_cell_setting           triclinic
_symmetry_space_group_name_H-M   'P 1'
_symmetry_Int_Tables_number      1
_space_group_name_Hall           'P 1'
loop_
_symmetry_equiv_pos_site_id
_symmetry_equiv_pos_as_xyz
1 x,y,z
_cell_length_a                   63.596(2)
_cell_length_b                   19.6651(7)
_cell_length_c                   41.5695(14)
_cell_angle_alpha                90
_cell_angle_beta                 130.5710(10)
_cell_angle_gamma                90
_cell_volume                     39489.9
loop_
_atom_site_label
_atom_site_type_symbol
_atom_site_fract_x
_atom_site_fract_y
_atom_site_fract_z
N8 N 0.28963(17) 0.0410(4) 0.2308(3)
C105 C 0.2821(2) 0.0492(6) 0.1921(4)
H76 H 0.2780 0.0925 0.1804
Cu9 Cu 0.28112(3) 0.11466(5) 0.25469(4)
Cu1 Cu 0.21032(2) 0.71322(6) 0.19348(4)
Cu2 Cu 0.24806(3) 0.61536(6) 0.22025(4)
Cu3 Cu 0.21888(3) 0.61466(5) 0.24531(4)
Cu4 Cu 0.25850(2) 0.70809(6) 0.27430(4)
I1 I 0.21340(2) 0.73858(2) 0.26255(2)
I2 I 0.27677(2) 0.58168(3) 0.30007(2)
I3 I 0.25519(2) 0.74097(3) 0.20540(2)
I4 I 0.19034(2) 0.59022(3) 0.16405(2)
O10 O 0.28040(10) 0.0611(2) 0.06162(14)
O11 O 0.24563(9) 0.1138(2) 0.00176(13)
N3 N 0.25691(15) 0.5480(3) 0.1941(2)
N4 N 0.28928(14) 0.7738(4) 0.3160(2)
N5 N 0.18145(15) 0.7835(4) 0.1534(2)
C2 C 0.26426(13) 0.1097(3) 0.0414(2)
C11 C 0.26054(15) 0.4443(4) 0.1511(2)
C15 C 0.15394(17) 0.7695(5) 0.1278(3)
H7 H 0.1485 0.7245 0.1249
C17 C 0.11990(19) 0.9397(5) 0.0884(3)
H9 H 0.1262 0.9832 0.0900
C18 C 0.2489(2) 0.5070(5) 0.1327(3)
H10 H 0.2421 0.5162 0.1054
C19 C 0.13413(19) 0.8181(5) 0.1062(3)
H11 H 0.1156 0.8054 0.0892
C20 C 0.26941(19) 0.4876(4) 0.2123(3)
H12 H 0.2769 0.4806 0.2401
C24 C 0.1684(2) 0.9007(5) 0.1344(4)
H14 H 0.1741 0.9455 0.1374
C26 C 0.14053(17) 0.8863(4) 0.1085(3)
C34 C 0.37993(19) 0.9157(4) 0.4069(3)
H22 H 0.3858 0.8729 0.4061
C37 C 0.35331(18) 0.9219(4) 0.3897(3)
H25 H 0.3481 0.9637 0.3931
C43 C 0.2475(3) 0.5564(4) 0.1553(3)
H29 H 0.2394 0.5979 0.1422
C49 C 0.33156(18) 0.8693(4) 0.3660(3)
C50 C 0.18826(19) 0.8490(4) 0.1562(4)
H34 H 0.2069 0.8606 0.1732
C51 C 0.2846(2) 0.8351(4) 0.3220(4)
H35 H 0.2665 0.8466 0.3093
C52 C 0.26035(14) 0.3913(3) 0.1258(2)
H36 H 0.2519 0.4021 0.0980
C54 C 0.27099(16) 0.3304(4) 0.1391(2)
H38 H 0.2805 0.3209 0.1675
C59 C 0.30515(19) 0.8847(5) 0.3463(3)
H43 H 0.3005 0.9281 0.3489
C62 C 0.3157(2) 0.7595(6) 0.3345(4)
H45 H 0.3197 0.7167 0.3301
C73 C 0.27181(18) 0.4366(4) 0.1929(3)
H55 H 0.2809 0.3967 0.2075
C76 C 0.3370(2) 0.8043(5) 0.3594(4)
H57 H 0.3549 0.7916 0.3720
C78 C 0.05054(15) 0.9830(4) 0.0488(3)
H59 H 0.0472 0.9412 0.0552
C79 C 0.09352(16) 0.9341(5) 0.0683(3)
H60 H 0.0866 0.8902 0.0639
C80 C 0.07332(15) 0.9908(4) 0.0517(3)
C89 C 0.40052(18) 0.9705(4) 0.4269(3)
C90 C 0.4263(2) 0.9581(4) 0.4388(4)
H65 H 0.4308 0.9144 0.4365
C95 C 0.26940(15) 0.2758(3) 0.1136(2)
C96 C 0.28509(18) 0.2171(4) 0.1339(2)
H69 H 0.2961 0.2128 0.1631
C97 C 0.25260(15) 0.2796(3) 0.0702(2)
H70 H 0.2420 0.3185 0.0565
C98 C 0.28424(16) 0.1650(4) 0.1105(2)
H71 H 0.2955 0.1270 0.1243
C99 C 0.26685(13) 0.1693(3) 0.06703(19)
C100 C 0.25106(14) 0.2276(3) 0.0467(2)
H72 H 0.2395 0.2314 0.0174
N9 N 0.21037(17) 0.5410(4) 0.2692(3)
Cu11 Cu 0.23936(2) 0.03640(4) 0.96713(2)
Cu15 Cu 0.27541(2) 0.96771(4) 0.03854(2)
Cu8 Cu 0.02340(2) 0.22897(5) 0.49432(3)
O9 O 0.21442(9) 0.0034(3) 0.47539(15)
O12 O 0.24606(9) 0.0458(2) 0.54114(14)
N6 N 0.04745(11) 0.1809(3) 0.48158(19)
C22 C 0.04250(16) 0.1201(5) 0.4643(3)
H13 H 0.0263 0.0976 0.4539
C28 C 0.06067(17) 0.0889(5) 0.4613(3)
H17 H 0.0564 0.0464 0.4485
C32 C 0.07073(18) 0.2110(5) 0.4956(3)
H20 H 0.0745 0.2539 0.5076
C55 C 0.08973(19) 0.1836(5) 0.4936(3)
H39 H 0.1055 0.2077 0.5034
C58 C 0.1059(2) 0.0871(6) 0.4774(4)
H42 H 0.1001 0.0543 0.4570
C74 C 0.08491(17) 0.1207(5) 0.4771(3)
C77 C 0.13276(19) 0.1020(6) 0.5057(3)
H58 H 0.1380 0.1303 0.5278
C106 C 0.15512(18) 0.0796(6) 0.5065(3)
C107 C 0.18191(18) 0.0960(6) 0.5409(3)
H77 H 0.1854 0.1195 0.5634
C108 C 0.15031(18) 0.0424(7) 0.4741(3)
H78 H 0.1324 0.0283 0.4516
C109 C 0.17145(17) 0.0259(6) 0.4745(3)
H79 H 0.1677 0.0025 0.4519
C110 C 0.19878(16) 0.0444(4) 0.5092(3)
C111 C 0.22151(13) 0.0289(3) 0.5087(2)
C112 C 0.20357(18) 0.0785(5) 0.5429(3)
H80 H 0.2216 0.0893 0.5669
Cu14 Cu 0.27541(2) 0.03229(4) 0.53854(2)
Cu16 Cu 0.02340(2) 0.77103(5) 0.99432(3)
O17 O 0.04332(10) 0.3170(3) 0.51123(17)
O18 O 0.02041(11) 0.3778(3) 0.52518(19)
O23 O 0.02657(10) 0.2677(3) 0.57123(15)
O24 O 0.04814(10) 0.2050(3) 0.55512(15)
Cu10 Cu 0.23936(2) 0.96360(4) 0.46713(2)
Cu12 Cu 0.99703(2) 0.70034(5) 0.01299(3)
Cu5 Cu 0.73936(2) 0.46360(4) 0.46713(2)
Cu6 Cu 0.99703(2) 0.29966(5) 0.51299(3)
Cu7 Cu 0.77541(2) 0.53229(4) 0.53854(2)
O1 O 0.99994(10) 0.1499(3) 0.48128(17)
O2 O 0.97821(11) 0.2104(3) 0.4972(2)
O3 O 0.54332(10) 0.1830(3) 0.01123(17)
O4 O 0.52041(11) 0.1222(3) 0.02518(19)
O5 O 0.73823(10) 0.5487(2) 0.44153(13)
O6 O 0.76213(10) 0.6122(2) 0.50068(14)
O7 O 0.80060(8) 0.5101(3) 0.52788(14)
O8 O 0.77241(9) 0.4379(2) 0.47459(14)
O13 O 0.52657(10) 0.2323(3) 0.07123(15)
O14 O 0.54814(10) 0.2950(3) 0.05512(15)
O15 O 0.99439(11) 0.7373(3) 0.93693(15)
O16 O 0.97295(12) 0.6769(4) 0.95319(16)
N1 N 0.70405(11) 0.4219(3) 0.40757(17)
N2 N 0.80881(11) 0.5753(3) 0.59824(17)
N7 N 0.96974(11) 0.3416(4) 0.5213(2)
C1 C 0.79536(13) 0.4668(3) 0.5015(2)
C3 C 0.53930(14) 0.1315(4) 0.0235(2)
C4 C 0.7139(3) 0.8572(6) 0.3279(4)
H1 H 0.7062 0.8201 0.3097
C5 C 0.81854(14) 0.4479(4) 0.5023(2)
C6 C 0.98175(13) 0.1572(4) 0.4843(2)
C7 C 0.74119(14) 0.6674(3) 0.4352(2)
C8 C 0.9191(3) 0.5998(8) 0.8314(5)
H2 H 0.9086 0.5616 0.8259
C9 C 0.97586(17) 0.6980(4) 0.9276(2)
C10 C 0.9312(2) 0.6868(6) 0.8094(3)
H3 H 0.9294 0.7103 0.7883
C12 C 0.69171(16) 0.4576(4) 0.3720(2)
H4 H 0.6986 0.5005 0.3739
C13 C 0.9405(3) 0.6180(7) 0.8726(4)
H5 H 0.9451 0.5899 0.8944
C14 C 0.95218(19) 0.7038(6) 0.8507(3)
H6 H 0.9650 0.7364 0.8571
C16 C 0.74876(19) 0.7305(4) 0.4526(3)
H8 H 0.7585 0.7355 0.4814
C21 C 0.9548(2) 0.6752(6) 0.8821(3)
C23 C 0.65817(17) 0.3722(5) 0.3287(3)
C25 C 0.92237(18) 0.0517(5) 0.4588(3)
H15 H 0.9075 0.0570 0.4579
C27 C 0.69232(15) 0.3630(4) 0.4039(2)
H16 H 0.7000 0.3387 0.4285
C29 C 0.96308(14) 0.0987(4) 0.4732(2)
C30 C 0.96719(15) 0.0362(4) 0.4633(3)
H18 H 0.9823 0.0297 0.4649
C31 C 0.8419(2) 0.5598(5) 0.6727(3)
H19 H 0.8481 0.5338 0.6962
C33 C 0.66940(18) 0.4341(5) 0.3330(3)
H21 H 0.6618 0.4605 0.3091
C35 C 0.92482(18) 0.3319(5) 0.5010(3)
H23 H 0.9080 0.3089 0.4855
C36 C 0.94511(16) 0.3127(4) 0.4999(3)
H24 H 0.9412 0.2761 0.4825
C38 C 0.86187(18) 0.4136(6) 0.5037(3)
C39 C 0.7240(2) 0.8469(7) 0.3648(4)
H26 H 0.7293 0.8858 0.3812
C40 C 0.94071(18) 0.1074(5) 0.4712(4)
H27 H 0.9376 0.1493 0.4778
C41 C 0.81894(17) 0.5402(4) 0.6330(2)
H28 H 0.8100 0.5003 0.6302
C42 C 0.85590(19) 0.6191(5) 0.6779(2)
C44 C 0.81447(17) 0.4033(5) 0.4737(3)
H30 H 0.7972 0.3832 0.4539
C45 C 0.72140(19) 0.7185(5) 0.3688(3)
H31 H 0.7125 0.7142 0.3402
C46 C 0.9129(3) 0.6365(7) 0.7980(3)
C47 C 0.8807(2) 0.6435(6) 0.7197(3)
H32 H 0.8900 0.6810 0.7207
C48 C 0.83598(19) 0.3871(6) 0.4738(3)
H33 H 0.8326 0.3580 0.4533
C53 C 0.8449(2) 0.6563(5) 0.6425(3)
H37 H 0.8532 0.6970 0.6446
C56 C 0.6349(2) 0.3413(6) 0.2872(3)
H40 H 0.6240 0.3080 0.2859
C57 C 0.8906(3) 0.6152(6) 0.7564(3)
H41 H 0.8815 0.5761 0.7543
C60 C 0.72669(18) 0.6602(4) 0.3921(2)
H44 H 0.7207 0.6177 0.3792
C61 C 0.93072(18) 0.3890(7) 0.5272(3)
C63 C 0.66981(18) 0.3363(5) 0.3664(3)
H46 H 0.6623 0.2952 0.3656
C64 C 0.9101(2) 0.4144(6) 0.5298(4)
H47 H 0.9158 0.4460 0.5507
C65 C 0.6299(3) 0.3600(7) 0.2540(3)
H48 H 0.6411 0.3946 0.2573
C66 C 0.8666(2) 0.4572(7) 0.5343(4)
H49 H 0.8841 0.4750 0.5554
C67 C 0.88327(19) 0.3942(6) 0.5033(3)
H50 H 0.8782 0.3638 0.4821
C68 C 0.97488(18) 0.3939(6) 0.5456(4)
H51 H 0.9917 0.4165 0.5604
C69 C 0.84428(19) 0.4740(7) 0.5328(4)
H52 H 0.8473 0.5033 0.5530
C70 C 0.9561(3) 0.4163(7) 0.5500(4)
H53 H 0.9612 0.4510 0.5691
C71 C 0.72892(18) 0.7827(5) 0.3868(3)
C72 C 0.7425(2) 0.7867(4) 0.4287(3)
H54 H 0.7476 0.8292 0.4416
C75 C 0.8213(2) 0.6336(5) 0.6031(3)
H56 H 0.8140 0.6600 0.5794
C81 C 0.6080(2) 0.3341(7) 0.2092(3)
C82 C 0.5861(2) 0.2928(7) 0.1979(3)
H61 H 0.5853 0.2784 0.2185
C83 C 0.5656(2) 0.2737(6) 0.1564(3)
H62 H 0.5507 0.2476 0.1486
C84 C 0.56731(15) 0.2937(5) 0.1257(2)
C85 C 0.54536(14) 0.2714(4) 0.0805(2)
C86 C 0.6092(2) 0.3514(8) 0.1796(3)
H63 H 0.6240 0.3774 0.1870
C87 C 0.5891(2) 0.3318(6) 0.1382(3)
H64 H 0.5906 0.3451 0.1183
C88 C 0.74795(13) 0.6048(3) 0.4614(2)
C91 C 0.55462(19) 0.0106(5) 0.0460(3)
H66 H 0.5381 0.0023 0.0404
C92 C 0.55985(16) 0.0740(4) 0.0393(3)
C93 C 0.58520(17) 0.0858(4) 0.0500(3)
H67 H 0.5892 0.1293 0.0465
C94 C 0.60440(17) 0.0357(4) 0.0654(3)
H68 H 0.6208 0.0446 0.0708
C101 C 0.7129(2) 0.9238(6) 0.3101(5)
C102 C 0.7056(3) 0.9202(6) 0.2733(6)
H73 H 0.7005 0.8784 0.2596
C103 C 0.7197(2) 0.9938(8) 0.3304(4)
H74 H 0.7249 0.9993 0.3569
C104 C 0.7052(3) 0.9778(5) 0.2534(5)
H75 H 0.7011 0.9721 0.2276
Cu13 Cu 0.49703(2) 0.20034(5) 0.01299(3)
O19 O 0.71442(9) 0.5034(3) 0.47539(15)
O20 O 0.78040(10) 0.4389(2) 0.56162(14)
O21 O 0.74563(9) 0.3862(2) 0.50176(13)
O22 O 0.74606(9) 0.5458(2) 0.54114(14)
O25 O 0.99439(11) 0.2627(3) 0.43693(15)
O26 O 0.97295(12) 0.3231(4) 0.45319(16)
Cu17 Cu 0.52340(2) 0.27103(5) 0.99432(3)
O10_2 O 0.78040(10) 0.5611(2) 0.06162(14)
O11_2 O 0.74563(9) 0.6138(2) 0.00176(13)
C2_2 C 0.76426(13) 0.6097(3) 0.0414(2)
C11_2 C 0.76054(15) 0.9443(4) 0.1511(2)
C20_2 C 0.76941(19) 0.9876(4) 0.2123(3)
H12_2 H 0.7769 0.9806 0.2401
C52_2 C 0.76035(14) 0.8913(3) 0.1258(2)
H36_2 H 0.7519 0.9021 0.0980
C54_2 C 0.77099(16) 0.8304(4) 0.1391(2)
H38_2 H 0.7805 0.8209 0.1675
C73_2 C 0.77181(18) 0.9366(4) 0.1929(3)
H55_2 H 0.7809 0.8967 0.2075
C95_2 C 0.76940(15) 0.7758(3) 0.1136(2)
C96_2 C 0.78509(18) 0.7171(4) 0.1339(2)
H69_2 H 0.7961 0.7128 0.1631
C97_2 C 0.75260(15) 0.7796(3) 0.0702(2)
H70_2 H 0.7420 0.8185 0.0565
C98_2 C 0.78424(16) 0.6650(4) 0.1105(2)
H71_2 H 0.7955 0.6270 0.1243
C99_2 C 0.76685(13) 0.6693(3) 0.06703(19)
C100_2 C 0.75106(14) 0.7276(3) 0.0467(2)
H72_2 H 0.7395 0.7314 0.0174
Cu15_2 Cu 0.77541(2) 0.46771(4) 0.03854(2)
Cu11_2 Cu 0.73936(2) 0.53640(4) 0.96713(2)
O5_2 O 0.23823(10) 0.0487(2) 0.44153(13)
O6_2 O 0.26213(10) 0.1122(2) 0.50068(14)
O7_2 O 0.30060(8) 0.0101(3) 0.52788(14)
O15_2 O 0.49439(11) 0.2373(3) 0.93693(15)
O16_2 O 0.47295(12) 0.1769(4) 0.95319(16)
N2_2 N 0.30881(11) 0.0753(3) 0.59824(17)
C4_2 C 0.2139(3) 0.3572(6) 0.3279(4)
H1_2 H 0.2062 0.3201 0.3097
C7_2 C 0.24119(14) 0.1674(3) 0.4352(2)
C8_2 C 0.4191(3) 0.0998(8) 0.8314(5)
H2_2 H 0.4086 0.0616 0.8259
C9_2 C 0.47586(17) 0.1980(4) 0.9276(2)
C10_2 C 0.4312(2) 0.1868(6) 0.8094(3)
H3_2 H 0.4294 0.2103 0.7883
H4_2 H 0.1986 0.0005 0.3739
C13_2 C 0.4405(3) 0.1180(7) 0.8726(4)
H5_2 H 0.4451 0.0899 0.8944
C14_2 C 0.45218(19) 0.2038(6) 0.8507(3)
H6_2 H 0.4650 0.2364 0.8571
C16_2 C 0.24876(19) 0.2305(4) 0.4526(3)
H8_2 H 0.2585 0.2355 0.4814
C21_2 C 0.4548(2) 0.1752(6) 0.8821(3)
C31_2 C 0.3419(2) 0.0598(5) 0.6727(3)
H19_2 H 0.3481 0.0338 0.6962
C39_2 C 0.2240(2) 0.3469(7) 0.3648(4)
H26_2 H 0.2293 0.3858 0.3812
C41_2 C 0.31894(17) 0.0402(4) 0.6330(2)
H28_2 H 0.3100 0.0003 0.6302
C42_2 C 0.35590(19) 0.1191(5) 0.6779(2)
C45_2 C 0.22140(19) 0.2185(5) 0.3688(3)
H31_2 H 0.2125 0.2142 0.3402
C46_2 C 0.4129(3) 0.1365(7) 0.7980(3)
C47_2 C 0.3807(2) 0.1435(6) 0.7197(3)
H32_2 H 0.3900 0.1810 0.7207
C53_2 C 0.3449(2) 0.1563(5) 0.6425(3)
H37_2 H 0.3532 0.1970 0.6446
C57_2 C 0.3906(3) 0.1152(6) 0.7564(3)
H41_2 H 0.3815 0.0761 0.7543
C60_2 C 0.22669(18) 0.1602(4) 0.3921(2)
H44_2 H 0.2207 0.1177 0.3792
H52_2 H 0.3473 0.0033 0.5530
C71_2 C 0.22892(18) 0.2827(5) 0.3868(3)
C72_2 C 0.2425(2) 0.2867(4) 0.4287(3)
H54_2 H 0.2476 0.3292 0.4416
C75_2 C 0.3213(2) 0.1336(5) 0.6031(3)
H56_2 H 0.3140 0.1600 0.5794
C88_2 C 0.24795(13) 0.1048(3) 0.4614(2)
C101_2 C 0.2129(2) 0.4238(6) 0.3101(5)
C102_2 C 0.2056(3) 0.4202(6) 0.2733(6)
H73_2 H 0.2005 0.3784 0.2596
C103_2 C 0.2197(2) 0.4938(8) 0.3304(4)
H74_2 H 0.2249 0.4993 0.3569
C104_2 C 0.2052(3) 0.4778(5) 0.2534(5)
H75_2 H 0.2011 0.4721 0.2276
C105_2 C 0.2179(2) 0.5492(6) 0.3079(4)
H76_2 H 0.2220 0.5925 0.3196
Cu1_2 Cu 0.28968(2) 0.21322(6) 0.30652(4)
Cu2_2 Cu 0.25194(3) 0.11536(6) 0.27975(4)
Cu4_2 Cu 0.24150(2) 0.20809(6) 0.22570(4)
Cu6_2 Cu 0.49703(2) 0.79966(5) 0.51299(3)
Cu8_2 Cu 0.52340(2) 0.72897(5) 0.49432(3)
I1_2 I 0.28660(2) 0.23858(2) 0.23745(2)
I2_2 I 0.22323(2) 0.08168(3) 0.19993(2)
I3_2 I 0.24481(2) 0.24097(3) 0.29460(2)
I4_2 I 0.30966(2) 0.09022(3) 0.33595(2)
O1_2 O 0.49994(10) 0.6499(3) 0.48128(17)
O2_2 O 0.47821(11) 0.7104(3) 0.4972(2)
O3_2 O 0.04332(10) 0.6830(3) 0.01123(17)
O4_2 O 0.02041(11) 0.6222(3) 0.02518(19)
O8_2 O 0.27241(9) 0.9379(2) 0.47459(14)
O13_2 O 0.02657(10) 0.7323(3) 0.07123(15)
O14_2 O 0.04814(10) 0.7950(3) 0.05512(15)
N1_2 N 0.20405(11) 0.9219(3) 0.40757(17)
N3_2 N 0.24309(15) 0.0480(3) 0.3059(2)
N4_2 N 0.21072(14) 0.2738(4) 0.1840(2)
N5_2 N 0.31855(15) 0.2835(4) 0.3466(2)
N6_2 N 0.54745(11) 0.6809(3) 0.48158(19)
N7_2 N 0.46974(11) 0.8416(4) 0.5213(2)
C1_2 C 0.29536(13) 0.9668(3) 0.5015(2)
C3_2 C 0.03930(14) 0.6315(4) 0.0235(2)
C5_2 C 0.31854(14) 0.9479(4) 0.5023(2)
C6_2 C 0.48175(13) 0.6572(4) 0.4843(2)
C12_2 C 0.19171(16) 0.9576(4) 0.3720(2)
C15_2 C 0.34606(17) 0.2695(5) 0.3722(3)
H7_2 H 0.3515 0.2245 0.3751
C17_2 C 0.38010(19) 0.4397(5) 0.4116(3)
H9_2 H 0.3738 0.4832 0.4100
C18_2 C 0.2511(2) 0.0070(5) 0.3673(3)
H10_2 H 0.2579 0.0162 0.3946
C19_2 C 0.36587(19) 0.3181(5) 0.3938(3)
H11_2 H 0.3844 0.3054 0.4108
C22_2 C 0.54250(16) 0.6201(5) 0.4643(3)
H13_2 H 0.5263 0.5976 0.4539
C23_2 C 0.15817(17) 0.8722(5) 0.3287(3)
C24_2 C 0.3316(2) 0.4007(5) 0.3656(4)
H14_2 H 0.3259 0.4455 0.3626
C25_2 C 0.42237(18) 0.5517(5) 0.4588(3)
H15_2 H 0.4075 0.5570 0.4579
C26_2 C 0.35947(17) 0.3863(4) 0.3915(3)
C27_2 C 0.19232(15) 0.8630(4) 0.4039(2)
H16_2 H 0.2000 0.8387 0.4285
C28_2 C 0.56067(17) 0.5889(5) 0.4613(3)
H17_2 H 0.5564 0.5464 0.4485
C29_2 C 0.46308(14) 0.5987(4) 0.4732(2)
C30_2 C 0.46719(15) 0.5362(4) 0.4633(3)
H18_2 H 0.4823 0.5297 0.4649
C32_2 C 0.57073(18) 0.7110(5) 0.4956(3)
H20_2 H 0.5745 0.7539 0.5076
C33_2 C 0.16940(18) 0.9341(5) 0.3330(3)
H21_2 H 0.1618 0.9605 0.3091
C34_2 C 0.12007(19) 0.4157(4) 0.0931(3)
H22_2 H 0.1142 0.3729 0.0939
C35_2 C 0.42482(18) 0.8319(5) 0.5010(3)
H23_2 H 0.4080 0.8089 0.4855
C36_2 C 0.44511(16) 0.8127(4) 0.4999(3)
H24_2 H 0.4412 0.7761 0.4825
C37_2 C 0.14669(18) 0.4219(4) 0.1103(3)
H25_2 H 0.1519 0.4637 0.1069
C38_2 C 0.36187(18) 0.9136(6) 0.5037(3)
C40_2 C 0.44071(18) 0.6074(5) 0.4712(4)
H27_2 H 0.4376 0.6493 0.4778
C43_2 C 0.2525(3) 0.0564(4) 0.3447(3)
H29_2 H 0.2606 0.0979 0.3578
C44_2 C 0.31447(17) 0.9033(5) 0.4737(3)
H30_2 H 0.2972 0.8832 0.4539
C48_2 C 0.33598(19) 0.8871(6) 0.4738(3)
H33_2 H 0.3326 0.8580 0.4533
C49_2 C 0.16844(18) 0.3693(4) 0.1340(3)
C50_2 C 0.31174(19) 0.3490(4) 0.3438(4)
H34_2 H 0.2931 0.3606 0.3268
C51_2 C 0.2154(2) 0.3351(4) 0.1780(4)
H35_2 H 0.2335 0.3466 0.1907
C55_2 C 0.58973(19) 0.6836(5) 0.4936(3)
H39_2 H 0.6055 0.7077 0.5034
C56_2 C 0.1349(2) 0.8413(6) 0.2872(3)
H40_2 H 0.1240 0.8080 0.2859
C58_2 C 0.6059(2) 0.5871(6) 0.4774(4)
H42_2 H 0.6001 0.5543 0.4570
C59_2 C 0.19485(19) 0.3847(5) 0.1537(3)
H43_2 H 0.1995 0.4281 0.1511
C61_2 C 0.43072(18) 0.8890(7) 0.5272(3)
C62_2 C 0.1843(2) 0.2595(6) 0.1655(4)
H45_2 H 0.1803 0.2167 0.1699
C63_2 C 0.16981(18) 0.8363(5) 0.3664(3)
H46_2 H 0.1623 0.7952 0.3656
C64_2 C 0.4101(2) 0.9144(6) 0.5298(4)
H47_2 H 0.4158 0.9460 0.5507
C65_2 C 0.1299(3) 0.8600(7) 0.2540(3)
H48_2 H 0.1411 0.8946 0.2573
C66_2 C 0.3666(2) 0.9572(7) 0.5343(4)
H49_2 H 0.3841 0.9750 0.5554
C67_2 C 0.38327(19) 0.8942(6) 0.5033(3)
H50_2 H 0.3782 0.8638 0.4821
C68_2 C 0.47488(18) 0.8939(6) 0.5456(4)
H51_2 H 0.4917 0.9165 0.5604
C69_2 C 0.34428(19) 0.9740(7) 0.5328(4)
C70_2 C 0.4561(3) 0.9163(7) 0.5500(4)
H53_2 H 0.4612 0.9510 0.5691
C74_2 C 0.58491(17) 0.6207(5) 0.4771(3)
C76_2 C 0.1630(2) 0.3043(5) 0.1406(4)
H57_2 H 0.1451 0.2916 0.1280
C77_2 C 0.63276(19) 0.6020(6) 0.5057(3)
H58_2 H 0.6380 0.6303 0.5278
C78_2 C 0.44946(15) 0.4830(4) 0.4512(3)
H59_2 H 0.4528 0.4412 0.4448
C79_2 C 0.40648(16) 0.4341(5) 0.4317(3)
H60_2 H 0.4134 0.3902 0.4361
C80_2 C 0.42668(15) 0.4908(4) 0.4483(3)
C81_2 C 0.1080(2) 0.8341(7) 0.2092(3)
C82_2 C 0.0861(2) 0.7928(7) 0.1979(3)
H61_2 H 0.0853 0.7784 0.2185
C83_2 C 0.0656(2) 0.7737(6) 0.1564(3)
H62_2 H 0.0507 0.7476 0.1486
C84_2 C 0.06731(15) 0.7937(5) 0.1257(2)
C85_2 C 0.04536(14) 0.7714(4) 0.0805(2)
C86_2 C 0.1092(2) 0.8514(8) 0.1796(3)
H63_2 H 0.1240 0.8774 0.1870
C87_2 C 0.0891(2) 0.8318(6) 0.1382(3)
H64_2 H 0.0906 0.8451 0.1183
C89_2 C 0.09948(18) 0.4705(4) 0.0731(3)
C90_2 C 0.0737(2) 0.4581(4) 0.0612(4)
H65_2 H 0.0692 0.4144 0.0635
C91_2 C 0.05462(19) 0.5106(5) 0.0460(3)
H66_2 H 0.0381 0.5023 0.0404
C92_2 C 0.05985(16) 0.5740(4) 0.0393(3)
C93_2 C 0.08520(17) 0.5858(4) 0.0500(3)
H67_2 H 0.0892 0.6293 0.0465
C94_2 C 0.10440(17) 0.5357(4) 0.0654(3)
H68_2 H 0.1208 0.5446 0.0708
C106_2 C 0.65512(18) 0.5796(6) 0.5065(3)
C107_2 C 0.68191(18) 0.5960(6) 0.5409(3)
H77_2 H 0.6854 0.6195 0.5634
C108_2 C 0.65031(18) 0.5424(7) 0.4741(3)
H78_2 H 0.6324 0.5283 0.4516
C109_2 C 0.67145(17) 0.5259(6) 0.4745(3)
H79_2 H 0.6677 0.5025 0.4519
C110_2 C 0.69878(16) 0.5444(4) 0.5092(3)
C111_2 C 0.72151(13) 0.5289(3) 0.5087(2)
C112_2 C 0.70357(18) 0.5785(5) 0.5429(3)
H80_2 H 0.7216 0.5893 0.5669
O17_2 O 0.54332(10) 0.8170(3) 0.51123(17)
O18_2 O 0.52041(11) 0.8778(3) 0.52518(19)
O20_2 O 0.28040(10) 0.9389(2) 0.56162(14)
O21_2 O 0.24563(9) 0.8862(2) 0.50176(13)
O23_2 O 0.52657(10) 0.7677(3) 0.57123(15)
O24_2 O 0.54814(10) 0.7050(3) 0.55512(15)
O25_2 O 0.49439(11) 0.7627(3) 0.43693(15)
O26_2 O 0.47295(12) 0.8231(4) 0.45319(16)
O12_2 O 0.24606(9) 0.9542(2) 0.04114(14)
H20_3 H 0.0745 0.7461 0.0076
H39_3 H 0.1055 0.7923 0.0034
C77_3 C 0.13276(19) 0.8980(6) 0.0057(3)
H58_3 H 0.1380 0.8697 0.0278
C106_3 C 0.15512(18) 0.9204(6) 0.0065(3)
C107_3 C 0.18191(18) 0.9040(6) 0.0409(3)
H77_3 H 0.1854 0.8805 0.0634
C110_3 C 0.19878(16) 0.9556(4) 0.0092(3)
C111_3 C 0.22151(13) 0.9711(3) 0.0087(2)
C112_3 C 0.20357(18) 0.9215(5) 0.0429(3)
H80_3 H 0.2216 0.9107 0.0669
O9_2 O 0.21442(9) 0.9966(3) 0.97539(15)
N6_3 N 0.04745(11) 0.8191(3) 0.98158(19)
C22_3 C 0.04250(16) 0.8799(5) 0.9643(3)
H13_3 H 0.0263 0.9024 0.9539
C28_3 C 0.06067(17) 0.9111(5) 0.9613(3)
H17_3 H 0.0564 0.9536 0.9485
C32_3 C 0.07073(18) 0.7890(5) 0.9956(3)
C55_3 C 0.08973(19) 0.8164(5) 0.9936(3)
C58_3 C 0.1059(2) 0.9129(6) 0.9774(4)
H42_3 H 0.1001 0.9457 0.9570
C74_3 C 0.08491(17) 0.8793(5) 0.9771(3)
C108_3 C 0.15031(18) 0.9576(7) 0.9741(3)
H78_3 H 0.1324 0.9717 0.9516
C109_3 C 0.17145(17) 0.9741(6) 0.9745(3)
H79_3 H 0.1677 0.9975 0.9519
O6_3 O 0.76213(10) 0.3878(2) 0.00068(14)
O7_3 O 0.80060(8) 0.4899(3) 0.02788(14)
N2_3 N 0.80881(11) 0.4247(3) 0.09824(17)
N7_3 N 0.96974(11) 0.6584(4) 0.0213(2)
C1_3 C 0.79536(13) 0.5332(3) 0.0015(2)
C5_3 C 0.81854(14) 0.5521(4) 0.0023(2)
C8_3 C 0.9191(3) 0.4002(8) 0.3314(5)
H2_3 H 0.9086 0.4384 0.3259
C9_3 C 0.97586(17) 0.3020(4) 0.4276(2)
C10_3 C 0.9312(2) 0.3132(6) 0.3094(3)
H3_3 H 0.9294 0.2897 0.2883
C13_3 C 0.9405(3) 0.3820(7) 0.3726(4)
H5_3 H 0.9451 0.4101 0.3944
C14_3 C 0.95218(19) 0.2962(6) 0.3507(3)
H6_3 H 0.9650 0.2636 0.3571
C21_3 C 0.9548(2) 0.3248(6) 0.3821(3)
C31_3 C 0.8419(2) 0.4402(5) 0.1727(3)
H19_3 H 0.8481 0.4662 0.1962
C35_3 C 0.92482(18) 0.6681(5) 0.0010(3)
C38_3 C 0.86187(18) 0.5864(6) 0.0037(3)
C41_3 C 0.81894(17) 0.4598(4) 0.1330(2)
H28_3 H 0.8100 0.4997 0.1302
C42_3 C 0.85590(19) 0.3809(5) 0.1779(2)
C46_3 C 0.9129(3) 0.3635(7) 0.2980(3)
C47_3 C 0.8807(2) 0.3565(6) 0.2197(3)
H32_3 H 0.8900 0.3190 0.2207
C53_3 C 0.8449(2) 0.3437(5) 0.1425(3)
H37_3 H 0.8532 0.3030 0.1446
C57_3 C 0.8906(3) 0.3848(6) 0.2564(3)
H41_3 H 0.8815 0.4239 0.2543
C61_3 C 0.93072(18) 0.6110(7) 0.0272(3)
C64_3 C 0.9101(2) 0.5856(6) 0.0298(4)
H47_3 H 0.9158 0.5540 0.0507
C66_3 C 0.8666(2) 0.5428(7) 0.0343(4)
H49_3 H 0.8841 0.5250 0.0554
C67_3 C 0.88327(19) 0.6058(6) 0.0033(3)
C68_3 C 0.97488(18) 0.6061(6) 0.0456(4)
H51_3 H 0.9917 0.5835 0.0604
C69_3 C 0.84428(19) 0.5260(7) 0.0328(4)
H52_3 H 0.8473 0.4967 0.0530
C70_3 C 0.9561(3) 0.5837(7) 0.0500(4)
H53_3 H 0.9612 0.5490 0.0691
C75_3 C 0.8213(2) 0.3664(5) 0.1031(3)
H56_3 H 0.8140 0.3400 0.0794
O22_2 O 0.74606(9) 0.4542(2) 0.04114(14)
O1_3 O 0.99994(10) 0.8501(3) 0.98128(17)
O2_3 O 0.97821(11) 0.7896(3) 0.9972(2)
O5_3 O 0.73823(10) 0.4513(2) 0.94153(13)
O8_3 O 0.77241(9) 0.5621(2) 0.97459(14)
N1_3 N 0.70405(11) 0.5781(3) 0.90757(17)
C3_3 C 0.53930(14) 0.8685(4) 0.5235(2)
C4_3 C 0.7139(3) 0.1428(6) 0.8279(4)
H1_3 H 0.7062 0.1799 0.8097
C6_3 C 0.98175(13) 0.8428(4) 0.9843(2)
C7_3 C 0.74119(14) 0.3326(3) 0.9352(2)
C12_3 C 0.69171(16) 0.5424(4) 0.8720(2)
H4_3 H 0.6986 0.4995 0.8739
C16_3 C 0.74876(19) 0.2695(4) 0.9526(3)
H8_3 H 0.7585 0.2645 0.9814
C23_3 C 0.65817(17) 0.6278(5) 0.8287(3)
C25_3 C 0.92237(18) 0.9483(5) 0.9588(3)
H15_3 H 0.9075 0.9430 0.9579
C27_3 C 0.69232(15) 0.6370(4) 0.9039(2)
H16_3 H 0.7000 0.6613 0.9285
C29_3 C 0.96308(14) 0.9013(4) 0.9732(2)
C30_3 C 0.96719(15) 0.9638(4) 0.9633(3)
H18_3 H 0.9823 0.9703 0.9649
C33_3 C 0.66940(18) 0.5659(5) 0.8330(3)
H21_3 H 0.6618 0.5395 0.8091
H23_3 H 0.9080 0.6911 0.9855
C36_3 C 0.94511(16) 0.6873(4) 0.9999(3)
H24_3 H 0.9412 0.7239 0.9825
C39_3 C 0.7240(2) 0.1531(7) 0.8648(4)
H26_3 H 0.7293 0.1142 0.8812
C40_3 C 0.94071(18) 0.8926(5) 0.9712(4)
H27_3 H 0.9376 0.8507 0.9778
C44_3 C 0.81447(17) 0.5967(5) 0.9737(3)
H30_3 H 0.7972 0.6168 0.9539
C45_3 C 0.72140(19) 0.2815(5) 0.8688(3)
H31_3 H 0.7125 0.2858 0.8402
C48_3 C 0.83598(19) 0.6129(6) 0.9738(3)
H33_3 H 0.8326 0.6420 0.9533
C56_3 C 0.6349(2) 0.6587(6) 0.7872(3)
H40_3 H 0.6240 0.6920 0.7859
C60_3 C 0.72669(18) 0.3398(4) 0.8921(2)
H44_3 H 0.7207 0.3823 0.8792
C63_3 C 0.66981(18) 0.6637(5) 0.8664(3)
H46_3 H 0.6623 0.7048 0.8656
C65_3 C 0.6299(3) 0.6400(7) 0.7540(3)
H48_3 H 0.6411 0.6054 0.7573
H50_3 H 0.8782 0.6362 0.9821
C71_3 C 0.72892(18) 0.2173(5) 0.8868(3)
C72_3 C 0.7425(2) 0.2133(4) 0.9287(3)
H54_3 H 0.7476 0.1708 0.9416
C81_3 C 0.6080(2) 0.6659(7) 0.7092(3)
C82_3 C 0.5861(2) 0.7072(7) 0.6979(3)
H61_3 H 0.5853 0.7216 0.7185
C83_3 C 0.5656(2) 0.7263(6) 0.6564(3)
H62_3 H 0.5507 0.7524 0.6486
C84_3 C 0.56731(15) 0.7063(5) 0.6257(2)
C85_3 C 0.54536(14) 0.7286(4) 0.5805(2)
C86_3 C 0.6092(2) 0.6486(8) 0.6796(3)
H63_3 H 0.6240 0.6226 0.6870
C87_3 C 0.5891(2) 0.6682(6) 0.6382(3)
H64_3 H 0.5906 0.6549 0.6183
C88_3 C 0.74795(13) 0.3952(3) 0.9614(2)
C91_3 C 0.55462(19) 0.9894(5) 0.5460(3)
H66_3 H 0.5381 0.9977 0.5404
C92_3 C 0.55985(16) 0.9260(4) 0.5393(3)
C93_3 C 0.58520(17) 0.9142(4) 0.5500(3)
H67_3 H 0.5892 0.8707 0.5465
C94_3 C 0.60440(17) 0.9643(4) 0.5654(3)
H68_3 H 0.6208 0.9554 0.5708
C101_3 C 0.7129(2) 0.0762(6) 0.8101(5)
C102_3 C 0.7056(3) 0.0798(6) 0.7733(6)
H73_3 H 0.7005 0.1216 0.7596
C103_3 C 0.7197(2) 0.0062(8) 0.8304(4)
H74_3 H 0.7249 0.0007 0.8569
C104_3 C 0.7052(3) 0.0222(5) 0.7534(5)
H75_3 H 0.7011 0.0279 0.7276
O19_2 O 0.71442(9) 0.4966(3) 0.97539(15)
Cu1_3 Cu 0.21032(2) 0.28678(6) 0.69348(4)
Cu2_3 Cu 0.24806(3) 0.38464(6) 0.72025(4)
Cu3_2 Cu 0.21888(3) 0.38534(5) 0.74531(4)
Cu4_3 Cu 0.25850(2) 0.29191(6) 0.77430(4)
I1_3 I 0.21340(2) 0.26142(2) 0.76255(2)
I2_3 I 0.27677(2) 0.41832(3) 0.80007(2)
I3_3 I 0.25519(2) 0.25903(3) 0.70540(2)
I4_3 I 0.19034(2) 0.40978(3) 0.66405(2)
N3_3 N 0.25691(15) 0.4520(3) 0.6941(2)
N4_3 N 0.28928(14) 0.2262(4) 0.8160(2)
N5_3 N 0.18145(15) 0.2165(4) 0.6534(2)
C2_3 C 0.26426(13) 0.8903(3) 0.5414(2)
C11_3 C 0.26054(15) 0.5557(4) 0.6511(2)
C15_3 C 0.15394(17) 0.2305(5) 0.6278(3)
H7_3 H 0.1485 0.2755 0.6249
C17_3 C 0.11990(19) 0.0603(5) 0.5884(3)
H9_3 H 0.1262 0.0168 0.5900
C18_3 C 0.2489(2) 0.4930(5) 0.6327(3)
H10_3 H 0.2421 0.4838 0.6054
C19_3 C 0.13413(19) 0.1819(5) 0.6062(3)
H11_3 H 0.1156 0.1946 0.5892
C20_3 C 0.26941(19) 0.5124(4) 0.7123(3)
H12_3 H 0.2769 0.5194 0.7401
C24_3 C 0.1684(2) 0.0993(5) 0.6344(4)
H14_3 H 0.1741 0.0545 0.6374
C26_3 C 0.14053(17) 0.1137(4) 0.6085(3)
C34_3 C 0.37993(19) 0.0843(4) 0.9069(3)
H22_3 H 0.3858 0.1271 0.9061
C37_3 C 0.35331(18) 0.0781(4) 0.8897(3)
H25_3 H 0.3481 0.0363 0.8931
C43_3 C 0.2475(3) 0.4436(4) 0.6553(3)
H29_3 H 0.2394 0.4021 0.6422
C49_3 C 0.33156(18) 0.1307(4) 0.8660(3)
C50_3 C 0.18826(19) 0.1510(4) 0.6562(4)
H34_3 H 0.2069 0.1394 0.6732
C51_3 C 0.2846(2) 0.1649(4) 0.8220(4)
H35_3 H 0.2665 0.1534 0.8093
C52_3 C 0.26035(14) 0.6087(3) 0.6258(2)
H36_3 H 0.2519 0.5979 0.5980
C54_3 C 0.27099(16) 0.6696(4) 0.6391(2)
H38_3 H 0.2805 0.6791 0.6675
C59_3 C 0.30515(19) 0.1153(5) 0.8463(3)
H43_3 H 0.3005 0.0719 0.8489
C62_3 C 0.3157(2) 0.2405(6) 0.8345(4)
H45_3 H 0.3197 0.2833 0.8301
C73_3 C 0.27181(18) 0.5634(4) 0.6929(3)
H55_3 H 0.2809 0.6033 0.7075
C76_3 C 0.3370(2) 0.1957(5) 0.8594(4)
H57_3 H 0.3549 0.2084 0.8720
C78_3 C 0.05054(15) 0.0170(4) 0.5488(3)
H59_3 H 0.0472 0.0588 0.5552
C79_3 C 0.09352(16) 0.0659(5) 0.5683(3)
H60_3 H 0.0866 0.1098 0.5639
C80_3 C 0.07332(15) 0.0092(4) 0.5517(3)
C89_3 C 0.40052(18) 0.0295(4) 0.9269(3)
C90_3 C 0.4263(2) 0.0419(4) 0.9388(4)
H65_3 H 0.4308 0.0856 0.9365
C95_3 C 0.26940(15) 0.7242(3) 0.6136(2)
C96_3 C 0.28509(18) 0.7829(4) 0.6339(2)
H69_3 H 0.2961 0.7872 0.6631
C97_3 C 0.25260(15) 0.7204(3) 0.5702(2)
H70_3 H 0.2420 0.6815 0.5565
C98_3 C 0.28424(16) 0.8350(4) 0.6105(2)
H71_3 H 0.2955 0.8730 0.6243
C99_3 C 0.26685(13) 0.8307(3) 0.56703(19)
C100_3 C 0.25106(14) 0.7724(3) 0.5467(2)
H72_3 H 0.2395 0.7686 0.5174
N9_2 N 0.21037(17) 0.4590(4) 0.7692(3)
N8_2 N 0.28963(17) 0.9590(4) 0.7308(3)
C105_3 C 0.2821(2) 0.9508(6) 0.6921(4)
H76_3 H 0.2780 0.9075 0.6804
Cu9_2 Cu 0.28112(3) 0.88534(5) 0.75469(4)
N7_4 N 0.46974(11) 0.1584(4) 0.0213(2)
C1_4 C 0.29536(13) 0.0332(3) 0.0015(2)
C5_4 C 0.31854(14) 0.0521(4) 0.0023(2)
H20_4 H 0.5745 0.2461 0.0076
C35_4 C 0.42482(18) 0.1681(5) 0.0010(3)
C38_4 C 0.36187(18) 0.0864(6) 0.0037(3)
H39_4 H 0.6055 0.2923 0.0034
C61_4 C 0.43072(18) 0.1110(7) 0.0272(3)
C64_4 C 0.4101(2) 0.0856(6) 0.0298(4)
H47_4 H 0.4158 0.0540 0.0507
C66_4 C 0.3666(2) 0.0428(7) 0.0343(4)
H49_4 H 0.3841 0.0250 0.0554
C67_4 C 0.38327(19) 0.1058(6) 0.0033(3)
C68_4 C 0.47488(18) 0.1061(6) 0.0456(4)
H51_4 H 0.4917 0.0835 0.0604
C69_4 C 0.34428(19) 0.0260(7) 0.0328(4)
C70_4 C 0.4561(3) 0.0837(7) 0.0500(4)
H53_4 H 0.4612 0.0490 0.0691
C77_4 C 0.63276(19) 0.3980(6) 0.0057(3)
H58_4 H 0.6380 0.3697 0.0278
C106_4 C 0.65512(18) 0.4204(6) 0.0065(3)
C107_4 C 0.68191(18) 0.4040(6) 0.0409(3)
H77_4 H 0.6854 0.3805 0.0634
C110_4 C 0.69878(16) 0.4556(4) 0.0092(3)
C111_4 C 0.72151(13) 0.4711(3) 0.0087(2)
C112_4 C 0.70357(18) 0.4215(5) 0.0429(3)
H80_4 H 0.7216 0.4107 0.0669
Cu1_4 Cu 0.28968(2) 0.78678(6) 0.80652(4)
Cu2_4 Cu 0.25194(3) 0.88464(6) 0.77975(4)
Cu4_4 Cu 0.24150(2) 0.79191(6) 0.72570(4)
I1_4 I 0.28660(2) 0.76142(2) 0.73745(2)
I2_4 I 0.22323(2) 0.91832(3) 0.69993(2)
I3_4 I 0.24481(2) 0.75903(3) 0.79460(2)
I4_4 I 0.30966(2) 0.90978(3) 0.83595(2)
O1_4 O 0.49994(10) 0.3501(3) 0.98128(17)
O2_4 O 0.47821(11) 0.2896(3) 0.9972(2)
O8_4 O 0.27241(9) 0.0621(2) 0.97459(14)
N1_4 N 0.20405(11) 0.0781(3) 0.90757(17)
N3_4 N 0.24309(15) 0.9520(3) 0.8059(2)
N4_4 N 0.21072(14) 0.7262(4) 0.6840(2)
N5_4 N 0.31855(15) 0.7165(4) 0.8466(2)
N6_4 N 0.54745(11) 0.3191(3) 0.98158(19)
C3_4 C 0.03930(14) 0.3685(4) 0.5235(2)
C6_4 C 0.48175(13) 0.3428(4) 0.9843(2)
C12_4 C 0.19171(16) 0.0424(4) 0.8720(2)
C15_4 C 0.34606(17) 0.7305(5) 0.8722(3)
H7_4 H 0.3515 0.7755 0.8751
C17_4 C 0.38010(19) 0.5603(5) 0.9116(3)
H9_4 H 0.3738 0.5168 0.9100
C18_4 C 0.2511(2) 0.9930(5) 0.8673(3)
H10_4 H 0.2579 0.9838 0.8946
C19_4 C 0.36587(19) 0.6819(5) 0.8938(3)
H11_4 H 0.3844 0.6946 0.9108
C22_4 C 0.54250(16) 0.3799(5) 0.9643(3)
H13_4 H 0.5263 0.4024 0.9539
C23_4 C 0.15817(17) 0.1278(5) 0.8287(3)
C24_4 C 0.3316(2) 0.5993(5) 0.8656(4)
H14_4 H 0.3259 0.5545 0.8626
C25_4 C 0.42237(18) 0.4483(5) 0.9588(3)
H15_4 H 0.4075 0.4430 0.9579
C26_4 C 0.35947(17) 0.6137(4) 0.8915(3)
C27_4 C 0.19232(15) 0.1370(4) 0.9039(2)
H16_4 H 0.2000 0.1613 0.9285
C28_4 C 0.56067(17) 0.4111(5) 0.9613(3)
H17_4 H 0.5564 0.4536 0.9485
C29_4 C 0.46308(14) 0.4013(4) 0.9732(2)
C30_4 C 0.46719(15) 0.4638(4) 0.9633(3)
H18_4 H 0.4823 0.4703 0.9649
C32_4 C 0.57073(18) 0.2890(5) 0.9956(3)
C33_4 C 0.16940(18) 0.0659(5) 0.8330(3)
H21_4 H 0.1618 0.0395 0.8091
C34_4 C 0.12007(19) 0.5843(4) 0.5931(3)
H22_4 H 0.1142 0.6271 0.5939
H23_4 H 0.4080 0.1911 0.9855
C36_4 C 0.44511(16) 0.1873(4) 0.9999(3)
H24_4 H 0.4412 0.2239 0.9825
C37_4 C 0.14669(18) 0.5781(4) 0.6103(3)
H25_4 H 0.1519 0.5363 0.6069
C40_4 C 0.44071(18) 0.3926(5) 0.9712(4)
H27_4 H 0.4376 0.3507 0.9778
C43_4 C 0.2525(3) 0.9436(4) 0.8447(3)
H29_4 H 0.2606 0.9021 0.8578
C44_4 C 0.31447(17) 0.0967(5) 0.9737(3)
H30_4 H 0.2972 0.1168 0.9539
C48_4 C 0.33598(19) 0.1129(6) 0.9738(3)
H33_4 H 0.3326 0.1420 0.9533
C49_4 C 0.16844(18) 0.6307(4) 0.6340(3)
C50_4 C 0.31174(19) 0.6510(4) 0.8438(4)
H34_4 H 0.2931 0.6394 0.8268
C51_4 C 0.2154(2) 0.6649(4) 0.6780(4)
H35_4 H 0.2335 0.6534 0.6907
C55_4 C 0.58973(19) 0.3164(5) 0.9936(3)
C56_4 C 0.1349(2) 0.1587(6) 0.7872(3)
H40_4 H 0.1240 0.1920 0.7859
C58_4 C 0.6059(2) 0.4129(6) 0.9774(4)
H42_4 H 0.6001 0.4457 0.9570
C59_4 C 0.19485(19) 0.6153(5) 0.6537(3)
H43_4 H 0.1995 0.5719 0.6511
C62_4 C 0.1843(2) 0.7405(6) 0.6655(4)
H45_4 H 0.1803 0.7833 0.6699
C63_4 C 0.16981(18) 0.1637(5) 0.8664(3)
H46_4 H 0.1623 0.2048 0.8656
C65_4 C 0.1299(3) 0.1400(7) 0.7540(3)
H48_4 H 0.1411 0.1054 0.7573
H50_4 H 0.3782 0.1362 0.9821
C74_4 C 0.58491(17) 0.3793(5) 0.9771(3)
C76_4 C 0.1630(2) 0.6957(5) 0.6406(4)
H57_4 H 0.1451 0.7084 0.6280
C78_4 C 0.44946(15) 0.5170(4) 0.9512(3)
H59_4 H 0.4528 0.5588 0.9448
C79_4 C 0.40648(16) 0.5659(5) 0.9317(3)
H60_4 H 0.4134 0.6098 0.9361
C80_4 C 0.42668(15) 0.5092(4) 0.9483(3)
C81_4 C 0.1080(2) 0.1659(7) 0.7092(3)
C82_4 C 0.0861(2) 0.2072(7) 0.6979(3)
H61_4 H 0.0853 0.2216 0.7185
C83_4 C 0.0656(2) 0.2263(6) 0.6564(3)
H62_4 H 0.0507 0.2524 0.6486
C84_4 C 0.06731(15) 0.2063(5) 0.6257(2)
C85_4 C 0.04536(14) 0.2286(4) 0.5805(2)
C86_4 C 0.1092(2) 0.1486(8) 0.6796(3)
H63_4 H 0.1240 0.1226 0.6870
C87_4 C 0.0891(2) 0.1682(6) 0.6382(3)
H64_4 H 0.0906 0.1549 0.6183
C89_4 C 0.09948(18) 0.5295(4) 0.5731(3)
C90_4 C 0.0737(2) 0.5419(4) 0.5612(4)
H65_4 H 0.0692 0.5856 0.5635
C91_4 C 0.05462(19) 0.4894(5) 0.5460(3)
H66_4 H 0.0381 0.4977 0.5404
C92_4 C 0.05985(16) 0.4260(4) 0.5393(3)
C93_4 C 0.08520(17) 0.4142(4) 0.5500(3)
H67_4 H 0.0892 0.3707 0.5465
C94_4 C 0.10440(17) 0.4643(4) 0.5654(3)
H68_4 H 0.1208 0.4554 0.5708
C108_4 C 0.65031(18) 0.4576(7) 0.9741(3)
H78_4 H 0.6324 0.4717 0.9516
C109_4 C 0.67145(17) 0.4741(6) 0.9745(3)
H79_4 H 0.6677 0.4975 0.9519
O6_4 O 0.26213(10) 0.8878(2) 0.00068(14)
O7_4 O 0.30060(8) 0.9899(3) 0.02788(14)
N2_4 N 0.30881(11) 0.9247(3) 0.09824(17)
C8_4 C 0.4191(3) 0.9002(8) 0.3314(5)
H2_4 H 0.4086 0.9384 0.3259
C9_4 C 0.47586(17) 0.8020(4) 0.4276(2)
C10_4 C 0.4312(2) 0.8132(6) 0.3094(3)
H3_4 H 0.4294 0.7897 0.2883
C13_4 C 0.4405(3) 0.8820(7) 0.3726(4)
H5_4 H 0.4451 0.9101 0.3944
C14_4 C 0.45218(19) 0.7962(6) 0.3507(3)
H6_4 H 0.4650 0.7636 0.3571
C21_4 C 0.4548(2) 0.8248(6) 0.3821(3)
C31_4 C 0.3419(2) 0.9402(5) 0.1727(3)
H19_4 H 0.3481 0.9662 0.1962
C41_4 C 0.31894(17) 0.9598(4) 0.1330(2)
H28_4 H 0.3100 0.9997 0.1302
C42_4 C 0.35590(19) 0.8809(5) 0.1779(2)
C46_4 C 0.4129(3) 0.8635(7) 0.2980(3)
C47_4 C 0.3807(2) 0.8565(6) 0.2197(3)
H32_4 H 0.3900 0.8190 0.2207
C53_4 C 0.3449(2) 0.8437(5) 0.1425(3)
H37_4 H 0.3532 0.8030 0.1446
C57_4 C 0.3906(3) 0.8848(6) 0.2564(3)
H41_4 H 0.3815 0.9239 0.2543
H52_4 H 0.3473 0.9967 0.0530
C75_4 C 0.3213(2) 0.8664(5) 0.1031(3)
H56_4 H 0.3140 0.8400 0.0794
O5_4 O 0.23823(10) 0.9513(2) 0.94153(13)
C4_4 C 0.2139(3) 0.6428(6) 0.8279(4)
H1_4 H 0.2062 0.6799 0.8097
C7_4 C 0.24119(14) 0.8326(3) 0.9352(2)
H4_4 H 0.1986 0.9995 0.8739
C16_4 C 0.24876(19) 0.7695(4) 0.9526(3)
H8_4 H 0.2585 0.7645 0.9814
C39_4 C 0.2240(2) 0.6531(7) 0.8648(4)
H26_4 H 0.2293 0.6142 0.8812
C45_4 C 0.22140(19) 0.7815(5) 0.8688(3)
H31_4 H 0.2125 0.7858 0.8402
C60_4 C 0.22669(18) 0.8398(4) 0.8921(2)
H44_4 H 0.2207 0.8823 0.8792
C71_4 C 0.22892(18) 0.7173(5) 0.8868(3)
C72_4 C 0.2425(2) 0.7133(4) 0.9287(3)
H54_4 H 0.2476 0.6708 0.9416
C88_4 C 0.24795(13) 0.8952(3) 0.9614(2)
C101_4 C 0.2129(2) 0.5762(6) 0.8101(5)
C102_4 C 0.2056(3) 0.5798(6) 0.7733(6)
H73_4 H 0.2005 0.6216 0.7596
C103_4 C 0.2197(2) 0.5062(8) 0.8304(4)
H74_4 H 0.2249 0.5007 0.8569
C104_4 C 0.2052(3) 0.5222(5) 0.7534(5)
H75_4 H 0.2011 0.5279 0.7276
C105_4 C 0.2179(2) 0.4508(6) 0.8079(4)
H76_4 H 0.2220 0.4075 0.8196
C2_4 C 0.76426(13) 0.3903(3) 0.5414(2)
C11_4 C 0.76054(15) 0.0557(4) 0.6511(2)
C20_4 C 0.76941(19) 0.0124(4) 0.7123(3)
H12_4 H 0.7769 0.0194 0.7401
C52_4 C 0.76035(14) 0.1087(3) 0.6258(2)
H36_4 H 0.7519 0.0979 0.5980
C54_4 C 0.77099(16) 0.1696(4) 0.6391(2)
H38_4 H 0.7805 0.1791 0.6675
C73_4 C 0.77181(18) 0.0634(4) 0.6929(3)
H55_4 H 0.7809 0.1033 0.7075
C95_4 C 0.76940(15) 0.2242(3) 0.6136(2)
C96_4 C 0.78509(18) 0.2829(4) 0.6339(2)
H69_4 H 0.7961 0.2872 0.6631
C97_4 C 0.75260(15) 0.2204(3) 0.5702(2)
H70_4 H 0.7420 0.1815 0.5565
C98_4 C 0.78424(16) 0.3350(4) 0.6105(2)
H71_4 H 0.7955 0.3730 0.6243
C99_4 C 0.76685(13) 0.3307(3) 0.56703(19)
C100_4 C 0.75106(14) 0.2724(3) 0.5467(2)
H72_4 H 0.7395 0.2686 0.5174
Cu5_2 Cu 0.26064(2) 0.46360(4) 0.03287(2)
O1_5 O 0.00006(10) 0.1499(3) 0.01872(17)
O2_5 O 0.02179(11) 0.2104(3) 0.0028(2)
O3_3 O 0.45668(10) 0.1830(3) 0.48877(17)
O4_3 O 0.47959(11) 0.1222(3) 0.47482(19)
O5_5 O 0.26177(10) 0.5487(2) 0.05847(13)
O8_5 O 0.22759(9) 0.4379(2) 0.02541(14)
O13_3 O 0.47343(10) 0.2323(3) 0.42877(15)
O14_3 O 0.45186(10) 0.2950(3) 0.44488(15)
N1_5 N 0.29595(11) 0.4219(3) 0.09243(17)
C3_5 C 0.46070(14) 0.1315(4) 0.4765(2)
C4_5 C 0.2861(3) 0.8572(6) 0.1721(4)
H1_5 H 0.2938 0.8201 0.1903
C6_5 C 0.01825(13) 0.1572(4) 0.0157(2)
C7_5 C 0.25881(14) 0.6674(3) 0.0648(2)
C12_5 C 0.30829(16) 0.4576(4) 0.1280(2)
H4_5 H 0.3014 0.5005 0.1261
C16_5 C 0.25124(19) 0.7305(4) 0.0474(3)
H8_5 H 0.2415 0.7355 0.0186
C23_5 C 0.34183(17) 0.3722(5) 0.1713(3)
C25_5 C 0.07763(18) 0.0517(5) 0.0412(3)
H15_5 H 0.0925 0.0570 0.0421
C27_5 C 0.30768(15) 0.3630(4) 0.0961(2)
H16_5 H 0.3000 0.3387 0.0715
C29_5 C 0.03692(14) 0.0987(4) 0.0268(2)
C30_5 C 0.03281(15) 0.0362(4) 0.0367(3)
H18_5 H 0.0177 0.0297 0.0351
C33_5 C 0.33060(18) 0.4341(5) 0.1670(3)
H21_5 H 0.3382 0.4605 0.1909
H23_5 H 0.0920 0.3089 0.0145
C36_5 C 0.05489(16) 0.3127(4) 0.0001(3)
H24_5 H 0.0588 0.2761 0.0175
C39_5 C 0.2760(2) 0.8469(7) 0.1352(4)
H26_5 H 0.2707 0.8858 0.1188
C40_5 C 0.05929(18) 0.1074(5) 0.0288(4)
H27_5 H 0.0624 0.1493 0.0222
C44_5 C 0.18553(17) 0.4033(5) 0.0263(3)
H30_5 H 0.2028 0.3832 0.0461
C45_5 C 0.27860(19) 0.7185(5) 0.1312(3)
H31_5 H 0.2875 0.7142 0.1598
C48_5 C 0.16402(19) 0.3871(6) 0.0262(3)
H33_5 H 0.1674 0.3580 0.0467
C56_5 C 0.3651(2) 0.3413(6) 0.2128(3)
H40_5 H 0.3760 0.3080 0.2141
C60_5 C 0.27331(18) 0.6602(4) 0.1079(2)
H44_5 H 0.2793 0.6177 0.1208
C63_5 C 0.33019(18) 0.3363(5) 0.1336(3)
H46_5 H 0.3377 0.2952 0.1344
C65_5 C 0.3701(3) 0.3600(7) 0.2460(3)
H48_5 H 0.3589 0.3946 0.2427
H50_5 H 0.1218 0.3638 0.0179
C71_5 C 0.27108(18) 0.7827(5) 0.1132(3)
C72_5 C 0.2575(2) 0.7867(4) 0.0713(3)
H54_5 H 0.2524 0.8292 0.0584
C81_5 C 0.3920(2) 0.3341(7) 0.2908(3)
C82_5 C 0.4139(2) 0.2928(7) 0.3021(3)
H61_5 H 0.4147 0.2784 0.2815
C83_5 C 0.4344(2) 0.2737(6) 0.3436(3)
H62_5 H 0.4493 0.2476 0.3514
C84_5 C 0.43269(15) 0.2937(5) 0.3743(2)
C85_5 C 0.45464(14) 0.2714(4) 0.4195(2)
C86_5 C 0.3908(2) 0.3514(8) 0.3204(3)
H63_5 H 0.3760 0.3774 0.3130
C87_5 C 0.4109(2) 0.3318(6) 0.3618(3)
H64_5 H 0.4094 0.3451 0.3817
C88_5 C 0.25205(13) 0.6048(3) 0.0386(2)
C91_5 C 0.44538(19) 0.0106(5) 0.4540(3)
H66_5 H 0.4619 0.0023 0.4596
C92_5 C 0.44015(16) 0.0740(4) 0.4607(3)
C93_5 C 0.41480(17) 0.0858(4) 0.4500(3)
H67_5 H 0.4108 0.1293 0.4535
C94_5 C 0.39560(17) 0.0357(4) 0.4346(3)
H68_5 H 0.3792 0.0446 0.4292
C101_5 C 0.2871(2) 0.9238(6) 0.1899(5)
C102_5 C 0.2944(3) 0.9202(6) 0.2267(6)
H73_5 H 0.2995 0.8784 0.2404
C103_5 C 0.2803(2) 0.9938(8) 0.1696(4)
H74_5 H 0.2751 0.9993 0.1431
C104_5 C 0.2948(3) 0.9778(5) 0.2466(5)
H75_5 H 0.2989 0.9721 0.2724
Cu13_2 Cu 0.50297(2) 0.20034(5) 0.48701(3)
Cu17_2 Cu 0.47660(2) 0.27103(5) 0.50568(3)
O19_3 O 0.28558(9) 0.5034(3) 0.02461(15)
O25_3 O 0.00561(11) 0.2627(3) 0.06307(15)
O26_3 O 0.02705(12) 0.3231(4) 0.04681(16)
Cu6_3 Cu 0.00297(2) 0.29966(5) 0.98701(3)
Cu7_2 Cu 0.22459(2) 0.53229(4) 0.96146(2)
O6_5 O 0.23787(10) 0.6122(2) 0.99932(14)
O7_5 O 0.19940(8) 0.5101(3) 0.97212(14)
O15_3 O 0.00561(11) 0.7373(3) 0.56307(15)
O16_3 O 0.02705(12) 0.6769(4) 0.54681(16)
N2_5 N 0.19119(11) 0.5753(3) 0.90176(17)
N7_5 N 0.03026(11) 0.3416(4) 0.9787(2)
C1_5 C 0.20464(13) 0.4668(3) 0.9985(2)
C5_5 C 0.18146(14) 0.4479(4) 0.9977(2)
C8_5 C 0.0809(3) 0.5998(8) 0.6686(5)
H2_5 H 0.0914 0.5616 0.6741
C9_5 C 0.02414(17) 0.6980(4) 0.5724(2)
C10_5 C 0.0688(2) 0.6868(6) 0.6906(3)
H3_5 H 0.0706 0.7103 0.7117
C13_5 C 0.0595(3) 0.6180(7) 0.6274(4)
H5_5 H 0.0549 0.5899 0.6056
C14_5 C 0.04782(19) 0.7038(6) 0.6493(3)
H6_5 H 0.0350 0.7364 0.6429
C21_5 C 0.0452(2) 0.6752(6) 0.6179(3)
C31_5 C 0.1581(2) 0.5598(5) 0.8273(3)
H19_5 H 0.1519 0.5338 0.8038
C35_5 C 0.07518(18) 0.3319(5) 0.9990(3)
C38_5 C 0.13813(18) 0.4136(6) 0.9963(3)
C41_5 C 0.18106(17) 0.5402(4) 0.8670(2)
H28_5 H 0.1900 0.5003 0.8698
C42_5 C 0.14410(19) 0.6191(5) 0.8221(2)
C46_5 C 0.0871(3) 0.6365(7) 0.7020(3)
C47_5 C 0.1193(2) 0.6435(6) 0.7803(3)
H32_5 H 0.1100 0.6810 0.7793
C53_5 C 0.1551(2) 0.6563(5) 0.8575(3)
H37_5 H 0.1468 0.6970 0.8554
C57_5 C 0.1094(3) 0.6152(6) 0.7436(3)
H41_5 H 0.1185 0.5761 0.7457
C61_5 C 0.06928(18) 0.3890(7) 0.9728(3)
C64_5 C 0.0899(2) 0.4144(6) 0.9702(4)
H47_5 H 0.0842 0.4460 0.9493
C66_5 C 0.1334(2) 0.4572(7) 0.9657(4)
H49_5 H 0.1159 0.4750 0.9446
C67_5 C 0.11673(19) 0.3942(6) 0.9967(3)
C68_5 C 0.02512(18) 0.3939(6) 0.9544(4)
H51_5 H 0.0083 0.4165 0.9396
C69_5 C 0.15572(19) 0.4740(7) 0.9672(4)
H52_5 H 0.1527 0.5033 0.9470
C70_5 C 0.0439(3) 0.4163(7) 0.9500(4)
H53_5 H 0.0388 0.4510 0.9309
C75_5 C 0.1787(2) 0.6336(5) 0.8969(3)
H56_5 H 0.1860 0.6600 0.9206
Cu12_2 Cu 0.00297(2) 0.70034(5) 0.48701(3)
O20_3 O 0.21960(10) 0.4389(2) 0.93838(14)
O21_3 O 0.25437(9) 0.3862(2) 0.99824(13)
O22_3 O 0.25394(9) 0.5458(2) 0.95886(14)
Cu8_3 Cu 0.97660(2) 0.22897(5) 0.00568(3)
O9_3 O 0.78558(9) 0.0034(3) 0.02461(15)
N6_5 N 0.95255(11) 0.1809(3) 0.01842(19)
C22_5 C 0.95750(16) 0.1201(5) 0.0357(3)
H13_5 H 0.9737 0.0976 0.0461
C28_5 C 0.93933(17) 0.0889(5) 0.0387(3)
H17_5 H 0.9436 0.0464 0.0515
C32_5 C 0.92927(18) 0.2110(5) 0.0044(3)
C55_5 C 0.91027(19) 0.1836(5) 0.0064(3)
C58_5 C 0.8941(2) 0.0871(6) 0.0226(4)
H42_5 H 0.8999 0.0543 0.0430
C74_5 C 0.91509(17) 0.1207(5) 0.0229(3)
C108_5 C 0.84969(18) 0.0424(7) 0.0259(3)
H78_5 H 0.8676 0.0283 0.0484
C109_5 C 0.82855(17) 0.0259(6) 0.0255(3)
H79_5 H 0.8323 0.0025 0.0481
O12_3 O 0.75394(9) 0.0458(2) 0.95886(14)
H20_5 H 0.9255 0.2539 0.9924
H39_5 H 0.8945 0.2077 0.9966
C77_5 C 0.86724(19) 0.1020(6) 0.9943(3)
H58_5 H 0.8620 0.1303 0.9722
C106_5 C 0.84488(18) 0.0796(6) 0.9935(3)
C107_5 C 0.81809(18) 0.0960(6) 0.9591(3)
H77_5 H 0.8146 0.1195 0.9366
C110_5 C 0.80122(16) 0.0444(4) 0.9908(3)
C111_5 C 0.77849(13) 0.0289(3) 0.9913(2)
C112_5 C 0.79643(18) 0.0785(5) 0.9571(3)
H80_5 H 0.7784 0.0893 0.9331
Cu14_2 Cu 0.72459(2) 0.03229(4) 0.96146(2)
Cu16_2 Cu 0.97660(2) 0.77103(5) 0.50568(3)
O17_3 O 0.95668(10) 0.3170(3) 0.98877(17)
O18_3 O 0.97959(11) 0.3778(3) 0.97482(19)
O23_3 O 0.97343(10) 0.2677(3) 0.92877(15)
O24_3 O 0.95186(10) 0.2050(3) 0.94488(15)
Cu10_2 Cu 0.76064(2) 0.96360(4) 0.03287(2)
N8_3 N 0.71037(17) 0.0410(4) 0.2692(3)
C105_5 C 0.7179(2) 0.0492(6) 0.3079(4)
H76_5 H 0.7220 0.0925 0.3196
Cu9_3 Cu 0.71888(3) 0.11466(5) 0.24531(4)
Cu1_5 Cu 0.78968(2) 0.71322(6) 0.30652(4)
Cu2_5 Cu 0.75194(3) 0.61536(6) 0.27975(4)
Cu3_3 Cu 0.78112(3) 0.61466(5) 0.25469(4)
Cu4_5 Cu 0.74150(2) 0.70809(6) 0.22570(4)
I1_5 I 0.78660(2) 0.73858(2) 0.23745(2)
I2_5 I 0.72323(2) 0.58168(3) 0.19993(2)
I3_5 I 0.74481(2) 0.74097(3) 0.29460(2)
I4_5 I 0.80966(2) 0.59022(3) 0.33595(2)
O10_3 O 0.71960(10) 0.0611(2) 0.43838(14)
O11_3 O 0.75437(9) 0.1138(2) 0.49824(13)
N3_5 N 0.74309(15) 0.5480(3) 0.3059(2)
N4_5 N 0.71072(14) 0.7738(4) 0.1840(2)
N5_5 N 0.81855(15) 0.7835(4) 0.3466(2)
C2_5 C 0.73574(13) 0.1097(3) 0.4586(2)
C11_5 C 0.73946(15) 0.4443(4) 0.3489(2)
C15_5 C 0.84606(17) 0.7695(5) 0.3722(3)
H7_5 H 0.8515 0.7245 0.3751
C17_5 C 0.88010(19) 0.9397(5) 0.4116(3)
H9_5 H 0.8738 0.9832 0.4100
C18_5 C 0.7511(2) 0.5070(5) 0.3673(3)
H10_5 H 0.7579 0.5162 0.3946
C19_5 C 0.86587(19) 0.8181(5) 0.3938(3)
H11_5 H 0.8844 0.8054 0.4108
C20_5 C 0.73059(19) 0.4876(4) 0.2877(3)
H12_5 H 0.7231 0.4806 0.2599
C24_5 C 0.8316(2) 0.9007(5) 0.3656(4)
H14_5 H 0.8259 0.9455 0.3626
C26_5 C 0.85947(17) 0.8863(4) 0.3915(3)
C34_5 C 0.62007(19) 0.9157(4) 0.0931(3)
H22_5 H 0.6142 0.8729 0.0939
C37_5 C 0.64669(18) 0.9219(4) 0.1103(3)
H25_5 H 0.6519 0.9637 0.1069
C43_5 C 0.7525(3) 0.5564(4) 0.3447(3)
H29_5 H 0.7606 0.5979 0.3578
C49_5 C 0.66844(18) 0.8693(4) 0.1340(3)
C50_5 C 0.81174(19) 0.8490(4) 0.3438(4)
H34_5 H 0.7931 0.8606 0.3268
C51_5 C 0.7154(2) 0.8351(4) 0.1780(4)
H35_5 H 0.7335 0.8466 0.1907
C52_5 C 0.73965(14) 0.3913(3) 0.3742(2)
H36_5 H 0.7481 0.4021 0.4020
C54_5 C 0.72901(16) 0.3304(4) 0.3609(2)
H38_5 H 0.7195 0.3209 0.3325
C59_5 C 0.69485(19) 0.8847(5) 0.1537(3)
H43_5 H 0.6995 0.9281 0.1511
C62_5 C 0.6843(2) 0.7595(6) 0.1655(4)
H45_5 H 0.6803 0.7167 0.1699
C73_5 C 0.72819(18) 0.4366(4) 0.3071(3)
H55_5 H 0.7191 0.3967 0.2925
C76_5 C 0.6630(2) 0.8043(5) 0.1406(4)
H57_5 H 0.6451 0.7916 0.1280
C78_5 C 0.94946(15) 0.9830(4) 0.4512(3)
H59_5 H 0.9528 0.9412 0.4448
C79_5 C 0.90648(16) 0.9341(5) 0.4317(3)
H60_5 H 0.9134 0.8902 0.4361
C80_5 C 0.92668(15) 0.9908(4) 0.4483(3)
C89_5 C 0.59948(18) 0.9705(4) 0.0731(3)
C90_5 C 0.5737(2) 0.9581(4) 0.0612(4)
H65_5 H 0.5692 0.9144 0.0635
C95_5 C 0.73060(15) 0.2758(3) 0.3864(2)
C96_5 C 0.71491(18) 0.2171(4) 0.3661(2)
H69_5 H 0.7039 0.2128 0.3369
C97_5 C 0.74740(15) 0.2796(3) 0.4298(2)
H70_5 H 0.7580 0.3185 0.4435
C98_5 C 0.71576(16) 0.1650(4) 0.3895(2)
H71_5 H 0.7045 0.1270 0.3757
C99_5 C 0.73315(13) 0.1693(3) 0.43297(19)
C100_5 C 0.74894(14) 0.2276(3) 0.4533(2)
H72_5 H 0.7605 0.2314 0.4826
Cu11_3 Cu 0.76064(2) 0.03640(4) 0.53287(2)
N9_3 N 0.78963(17) 0.5410(4) 0.2308(3)
Cu15_3 Cu 0.72459(2) 0.96771(4) 0.46146(2)
O5_6 O 0.76177(10) 0.0487(2) 0.05847(13)
C4_6 C 0.7861(3) 0.3572(6) 0.1721(4)
H1_6 H 0.7938 0.3201 0.1903
C7_6 C 0.75881(14) 0.1674(3) 0.0648(2)
H4_6 H 0.8014 0.0005 0.1261
C16_6 C 0.75124(19) 0.2305(4) 0.0474(3)
H8_6 H 0.7415 0.2355 0.0186
C39_6 C 0.7760(2) 0.3469(7) 0.1352(4)
H26_6 H 0.7707 0.3858 0.1188
C45_6 C 0.77860(19) 0.2185(5) 0.1312(3)
H31_6 H 0.7875 0.2142 0.1598
C60_6 C 0.77331(18) 0.1602(4) 0.1079(2)
H44_6 H 0.7793 0.1177 0.1208
C71_6 C 0.77108(18) 0.2827(5) 0.1132(3)
C72_6 C 0.7575(2) 0.2867(4) 0.0713(3)
H54_6 H 0.7524 0.3292 0.0584
C88_6 C 0.75205(13) 0.1048(3) 0.0386(2)
C101_6 C 0.7871(2) 0.4238(6) 0.1899(5)
C102_6 C 0.7944(3) 0.4202(6) 0.2267(6)
H73_6 H 0.7995 0.3784 0.2404
C103_6 C 0.7803(2) 0.4938(8) 0.1696(4)
H74_6 H 0.7751 0.4993 0.1431
C104_6 C 0.7948(3) 0.4778(5) 0.2466(5)
H75_6 H 0.7989 0.4721 0.2724
C105_6 C 0.7821(2) 0.5492(6) 0.1921(4)
H76_6 H 0.7780 0.5925 0.1804
O6_6 O 0.73787(10) 0.1122(2) 0.99932(14)
O7_6 O 0.69940(8) 0.0101(3) 0.97212(14)
O15_4 O 0.50561(11) 0.2373(3) 0.56307(15)
O16_4 O 0.52705(12) 0.1769(4) 0.54681(16)
N2_6 N 0.69119(11) 0.0753(3) 0.90176(17)
C8_6 C 0.5809(3) 0.0998(8) 0.6686(5)
H2_6 H 0.5914 0.0616 0.6741
C9_6 C 0.52414(17) 0.1980(4) 0.5724(2)
C10_6 C 0.5688(2) 0.1868(6) 0.6906(3)
H3_6 H 0.5706 0.2103 0.7117
C13_6 C 0.5595(3) 0.1180(7) 0.6274(4)
H5_6 H 0.5549 0.0899 0.6056
C14_6 C 0.54782(19) 0.2038(6) 0.6493(3)
H6_6 H 0.5350 0.2364 0.6429
C21_6 C 0.5452(2) 0.1752(6) 0.6179(3)
C31_6 C 0.6581(2) 0.0598(5) 0.8273(3)
H19_6 H 0.6519 0.0338 0.8038
C41_6 C 0.68106(17) 0.0402(4) 0.8670(2)
H28_6 H 0.6900 0.0003 0.8698
C42_6 C 0.64410(19) 0.1191(5) 0.8221(2)
C46_6 C 0.5871(3) 0.1365(7) 0.7020(3)
C47_6 C 0.6193(2) 0.1435(6) 0.7803(3)
H32_6 H 0.6100 0.1810 0.7793
C53_6 C 0.6551(2) 0.1563(5) 0.8575(3)
H37_6 H 0.6468 0.1970 0.8554
C57_6 C 0.6094(3) 0.1152(6) 0.7436(3)
H41_6 H 0.6185 0.0761 0.7457
H52_6 H 0.6527 0.0033 0.9470
C75_6 C 0.6787(2) 0.1336(5) 0.8969(3)
H56_6 H 0.6860 0.1600 0.9206
Cu1_6 Cu 0.71032(2) 0.21322(6) 0.19348(4)
Cu2_6 Cu 0.74806(3) 0.11536(6) 0.22025(4)
Cu4_6 Cu 0.75850(2) 0.20809(6) 0.27430(4)
Cu8_4 Cu 0.47660(2) 0.72897(5) 0.00568(3)
I1_6 I 0.71340(2) 0.23858(2) 0.26255(2)
I2_6 I 0.77677(2) 0.08168(3) 0.30007(2)
I3_6 I 0.75519(2) 0.24097(3) 0.20540(2)
I4_6 I 0.69034(2) 0.09022(3) 0.16405(2)
O1_6 O 0.50006(10) 0.6499(3) 0.01872(17)
O2_6 O 0.52179(11) 0.7104(3) 0.0028(2)
O3_4 O 0.95668(10) 0.6830(3) 0.48877(17)
O4_4 O 0.97959(11) 0.6222(3) 0.47482(19)
O8_6 O 0.72759(9) 0.9379(2) 0.02541(14)
O13_4 O 0.97343(10) 0.7323(3) 0.42877(15)
O14_4 O 0.95186(10) 0.7950(3) 0.44488(15)
N1_6 N 0.79595(11) 0.9219(3) 0.09243(17)
N3_6 N 0.75691(15) 0.0480(3) 0.1941(2)
N4_6 N 0.78928(14) 0.2738(4) 0.3160(2)
N5_6 N 0.68145(15) 0.2835(4) 0.1534(2)
N6_6 N 0.45255(11) 0.6809(3) 0.01842(19)
C3_6 C 0.96070(14) 0.6315(4) 0.4765(2)
C6_6 C 0.51825(13) 0.6572(4) 0.0157(2)
C12_6 C 0.80829(16) 0.9576(4) 0.1280(2)
C15_6 C 0.65394(17) 0.2695(5) 0.1278(3)
H7_6 H 0.6485 0.2245 0.1249
C17_6 C 0.61990(19) 0.4397(5) 0.0884(3)
H9_6 H 0.6262 0.4832 0.0900
C18_6 C 0.7489(2) 0.0070(5) 0.1327(3)
H10_6 H 0.7421 0.0162 0.1054
C19_6 C 0.63413(19) 0.3181(5) 0.1062(3)
H11_6 H 0.6156 0.3054 0.0892
C22_6 C 0.45750(16) 0.6201(5) 0.0357(3)
H13_6 H 0.4737 0.5976 0.0461
C23_6 C 0.84183(17) 0.8722(5) 0.1713(3)
C24_6 C 0.6684(2) 0.4007(5) 0.1344(4)
H14_6 H 0.6741 0.4455 0.1374
C25_6 C 0.57763(18) 0.5517(5) 0.0412(3)
H15_6 H 0.5925 0.5570 0.0421
C26_6 C 0.64053(17) 0.3863(4) 0.1085(3)
C27_6 C 0.80768(15) 0.8630(4) 0.0961(2)
H16_6 H 0.8000 0.8387 0.0715
C28_6 C 0.43933(17) 0.5889(5) 0.0387(3)
H17_6 H 0.4436 0.5464 0.0515
C29_6 C 0.53692(14) 0.5987(4) 0.0268(2)
C30_6 C 0.53281(15) 0.5362(4) 0.0367(3)
H18_6 H 0.5177 0.5297 0.0351
C32_6 C 0.42927(18) 0.7110(5) 0.0044(3)
C33_6 C 0.83060(18) 0.9341(5) 0.1670(3)
H21_6 H 0.8382 0.9605 0.1909
C34_6 C 0.87993(19) 0.4157(4) 0.4069(3)
H22_6 H 0.8858 0.3729 0.4061
H23_6 H 0.5920 0.8089 0.0145
C36_6 C 0.55489(16) 0.8127(4) 0.0001(3)
H24_6 H 0.5588 0.7761 0.0175
C37_6 C 0.85331(18) 0.4219(4) 0.3897(3)
H25_6 H 0.8481 0.4637 0.3931
C40_6 C 0.55929(18) 0.6074(5) 0.0288(4)
H27_6 H 0.5624 0.6493 0.0222
C43_6 C 0.7475(3) 0.0564(4) 0.1553(3)
H29_6 H 0.7394 0.0979 0.1422
C44_6 C 0.68553(17) 0.9033(5) 0.0263(3)
H30_6 H 0.7028 0.8832 0.0461
C48_6 C 0.66402(19) 0.8871(6) 0.0262(3)
H33_6 H 0.6674 0.8580 0.0467
C49_6 C 0.83156(18) 0.3693(4) 0.3660(3)
C50_6 C 0.68826(19) 0.3490(4) 0.1562(4)
H34_6 H 0.7069 0.3606 0.1732
C51_6 C 0.7846(2) 0.3351(4) 0.3220(4)
H35_6 H 0.7665 0.3466 0.3093
C55_6 C 0.41027(19) 0.6836(5) 0.0064(3)
C56_6 C 0.8651(2) 0.8413(6) 0.2128(3)
H40_6 H 0.8760 0.8080 0.2141
C58_6 C 0.3941(2) 0.5871(6) 0.0226(4)
H42_6 H 0.3999 0.5543 0.0430
C59_6 C 0.80515(19) 0.3847(5) 0.3463(3)
H43_6 H 0.8005 0.4281 0.3489
C62_6 C 0.8157(2) 0.2595(6) 0.3345(4)
H45_6 H 0.8197 0.2167 0.3301
C63_6 C 0.83019(18) 0.8363(5) 0.1336(3)
H46_6 H 0.8377 0.7952 0.1344
C65_6 C 0.8701(3) 0.8600(7) 0.2460(3)
H48_6 H 0.8589 0.8946 0.2427
H50_6 H 0.6218 0.8638 0.0179
C74_6 C 0.41509(17) 0.6207(5) 0.0229(3)
C76_6 C 0.8370(2) 0.3043(5) 0.3594(4)
H57_6 H 0.8549 0.2916 0.3720
C78_6 C 0.55054(15) 0.4830(4) 0.0488(3)
H59_6 H 0.5472 0.4412 0.0552
C79_6 C 0.59352(16) 0.4341(5) 0.0683(3)
H60_6 H 0.5866 0.3902 0.0639
C80_6 C 0.57332(15) 0.4908(4) 0.0517(3)
C81_6 C 0.8920(2) 0.8341(7) 0.2908(3)
C82_6 C 0.9139(2) 0.7928(7) 0.3021(3)
H61_6 H 0.9147 0.7784 0.2815
C83_6 C 0.9344(2) 0.7737(6) 0.3436(3)
H62_6 H 0.9493 0.7476 0.3514
C84_6 C 0.93269(15) 0.7937(5) 0.3743(2)
C85_6 C 0.95464(14) 0.7714(4) 0.4195(2)
C86_6 C 0.8908(2) 0.8514(8) 0.3204(3)
H63_6 H 0.8760 0.8774 0.3130
C87_6 C 0.9109(2) 0.8318(6) 0.3618(3)
H64_6 H 0.9094 0.8451 0.3817
C89_6 C 0.90052(18) 0.4705(4) 0.4269(3)
C90_6 C 0.9263(2) 0.4581(4) 0.4388(4)
H65_6 H 0.9308 0.4144 0.4365
C91_6 C 0.94538(19) 0.5106(5) 0.4540(3)
H66_6 H 0.9619 0.5023 0.4596
C92_6 C 0.94015(16) 0.5740(4) 0.4607(3)
C93_6 C 0.91480(17) 0.5858(4) 0.4500(3)
H67_6 H 0.9108 0.6293 0.4535
C94_6 C 0.89560(17) 0.5357(4) 0.4346(3)
H68_6 H 0.8792 0.5446 0.4292
C108_6 C 0.34969(18) 0.5424(7) 0.0259(3)
H78_6 H 0.3676 0.5283 0.0484
C109_6 C 0.32855(17) 0.5259(6) 0.0255(3)
H79_6 H 0.3323 0.5025 0.0481
O25_4 O 0.50561(11) 0.7627(3) 0.06307(15)
O26_4 O 0.52705(12) 0.8231(4) 0.04681(16)
Cu6_4 Cu 0.50297(2) 0.79966(5) 0.98701(3)
N7_6 N 0.53026(11) 0.8416(4) 0.9787(2)
C1_6 C 0.70464(13) 0.9668(3) 0.9985(2)
C5_6 C 0.68146(14) 0.9479(4) 0.9977(2)
H20_6 H 0.4255 0.7539 0.9924
C35_6 C 0.57518(18) 0.8319(5) 0.9990(3)
C38_6 C 0.63813(18) 0.9136(6) 0.9963(3)
H39_6 H 0.3945 0.7077 0.9966
C61_6 C 0.56928(18) 0.8890(7) 0.9728(3)
C64_6 C 0.5899(2) 0.9144(6) 0.9702(4)
H47_6 H 0.5842 0.9460 0.9493
C66_6 C 0.6334(2) 0.9572(7) 0.9657(4)
H49_6 H 0.6159 0.9750 0.9446
C67_6 C 0.61673(19) 0.8942(6) 0.9967(3)
C68_6 C 0.52512(18) 0.8939(6) 0.9544(4)
H51_6 H 0.5083 0.9165 0.9396
C69_6 C 0.65572(19) 0.9740(7) 0.9672(4)
C70_6 C 0.5439(3) 0.9163(7) 0.9500(4)
H53_6 H 0.5388 0.9510 0.9309
C77_6 C 0.36724(19) 0.6020(6) 0.9943(3)
H58_6 H 0.3620 0.6303 0.9722
C106_6 C 0.34488(18) 0.5796(6) 0.9935(3)
C107_6 C 0.31809(18) 0.5960(6) 0.9591(3)
H77_6 H 0.3146 0.6195 0.9366
C110_6 C 0.30122(16) 0.5444(4) 0.9908(3)
C111_6 C 0.27849(13) 0.5289(3) 0.9913(2)
C112_6 C 0.29643(18) 0.5785(5) 0.9571(3)
H80_6 H 0.2784 0.5893 0.9331
O17_4 O 0.45668(10) 0.8170(3) 0.98877(17)
O18_4 O 0.47959(11) 0.8778(3) 0.97482(19)
O20_4 O 0.71960(10) 0.9389(2) 0.93838(14)
O21_4 O 0.75437(9) 0.8862(2) 0.99824(13)
O23_4 O 0.47343(10) 0.7677(3) 0.92877(15)
O24_4 O 0.45186(10) 0.7050(3) 0.94488(15)
O10_4 O 0.21960(10) 0.5611(2) 0.43838(14)
O11_4 O 0.25437(9) 0.6138(2) 0.49824(13)
C2_6 C 0.23574(13) 0.6097(3) 0.4586(2)
C11_6 C 0.23946(15) 0.9443(4) 0.3489(2)
C20_6 C 0.23059(19) 0.9876(4) 0.2877(3)
H12_6 H 0.2231 0.9806 0.2599
C52_6 C 0.23965(14) 0.8913(3) 0.3742(2)
H36_6 H 0.2481 0.9021 0.4020
C54_6 C 0.22901(16) 0.8304(4) 0.3609(2)
H38_6 H 0.2195 0.8209 0.3325
C73_6 C 0.22819(18) 0.9366(4) 0.3071(3)
H55_6 H 0.2191 0.8967 0.2925
C95_6 C 0.23060(15) 0.7758(3) 0.3864(2)
C96_6 C 0.21491(18) 0.7171(4) 0.3661(2)
H69_6 H 0.2039 0.7128 0.3369
C97_6 C 0.24740(15) 0.7796(3) 0.4298(2)
H70_6 H 0.2580 0.8185 0.4435
C98_6 C 0.21576(16) 0.6650(4) 0.3895(2)
H71_6 H 0.2045 0.6270 0.3757
C99_6 C 0.23315(13) 0.6693(3) 0.43297(19)
C100_6 C 0.24894(14) 0.7276(3) 0.4533(2)
H72_6 H 0.2605 0.7314 0.4826
Cu11_4 Cu 0.26064(2) 0.53640(4) 0.53287(2)
Cu15_4 Cu 0.22459(2) 0.46771(4) 0.46146(2)
Cu1_7 Cu 0.78968(2) 0.28678(6) 0.80652(4)
Cu2_7 Cu 0.75194(3) 0.38464(6) 0.77975(4)
Cu3_4 Cu 0.78112(3) 0.38534(5) 0.75469(4)
Cu4_7 Cu 0.74150(2) 0.29191(6) 0.72570(4)
I1_7 I 0.78660(2) 0.26142(2) 0.73745(2)
I2_7 I 0.72323(2) 0.41832(3) 0.69993(2)
I3_7 I 0.74481(2) 0.25903(3) 0.79460(2)
I4_7 I 0.80966(2) 0.40978(3) 0.83595(2)
N3_7 N 0.74309(15) 0.4520(3) 0.8059(2)
N4_7 N 0.71072(14) 0.2262(4) 0.6840(2)
N5_7 N 0.81855(15) 0.2165(4) 0.8466(2)
C2_7 C 0.73574(13) 0.8903(3) 0.9586(2)
C11_7 C 0.73946(15) 0.5557(4) 0.8489(2)
C15_7 C 0.84606(17) 0.2305(5) 0.8722(3)
H7_7 H 0.8515 0.2755 0.8751
C17_7 C 0.88010(19) 0.0603(5) 0.9116(3)
H9_7 H 0.8738 0.0168 0.9100
C18_7 C 0.7511(2) 0.4930(5) 0.8673(3)
H10_7 H 0.7579 0.4838 0.8946
C19_7 C 0.86587(19) 0.1819(5) 0.8938(3)
H11_7 H 0.8844 0.1946 0.9108
C20_7 C 0.73059(19) 0.5124(4) 0.7877(3)
H12_7 H 0.7231 0.5194 0.7599
C24_7 C 0.8316(2) 0.0993(5) 0.8656(4)
H14_7 H 0.8259 0.0545 0.8626
C26_7 C 0.85947(17) 0.1137(4) 0.8915(3)
C34_7 C 0.62007(19) 0.0843(4) 0.5931(3)
H22_7 H 0.6142 0.1271 0.5939
C37_7 C 0.64669(18) 0.0781(4) 0.6103(3)
H25_7 H 0.6519 0.0363 0.6069
C43_7 C 0.7525(3) 0.4436(4) 0.8447(3)
H29_7 H 0.7606 0.4021 0.8578
C49_7 C 0.66844(18) 0.1307(4) 0.6340(3)
C50_7 C 0.81174(19) 0.1510(4) 0.8438(4)
H34_7 H 0.7931 0.1394 0.8268
C51_7 C 0.7154(2) 0.1649(4) 0.6780(4)
H35_7 H 0.7335 0.1534 0.6907
C52_7 C 0.73965(14) 0.6087(3) 0.8742(2)
H36_7 H 0.7481 0.5979 0.9020
C54_7 C 0.72901(16) 0.6696(4) 0.8609(2)
H38_7 H 0.7195 0.6791 0.8325
C59_7 C 0.69485(19) 0.1153(5) 0.6537(3)
H43_7 H 0.6995 0.0719 0.6511
C62_7 C 0.6843(2) 0.2405(6) 0.6655(4)
H45_7 H 0.6803 0.2833 0.6699
C73_7 C 0.72819(18) 0.5634(4) 0.8071(3)
H55_7 H 0.7191 0.6033 0.7925
C76_7 C 0.6630(2) 0.1957(5) 0.6406(4)
H57_7 H 0.6451 0.2084 0.6280
C78_7 C 0.94946(15) 0.0170(4) 0.9512(3)
H59_7 H 0.9528 0.0588 0.9448
C79_7 C 0.90648(16) 0.0659(5) 0.9317(3)
H60_7 H 0.9134 0.1098 0.9361
C80_7 C 0.92668(15) 0.0092(4) 0.9483(3)
C89_7 C 0.59948(18) 0.0295(4) 0.5731(3)
C90_7 C 0.5737(2) 0.0419(4) 0.5612(4)
H65_7 H 0.5692 0.0856 0.5635
C95_7 C 0.73060(15) 0.7242(3) 0.8864(2)
C96_7 C 0.71491(18) 0.7829(4) 0.8661(2)
H69_7 H 0.7039 0.7872 0.8369
C97_7 C 0.74740(15) 0.7204(3) 0.9298(2)
H70_7 H 0.7580 0.6815 0.9435
C98_7 C 0.71576(16) 0.8350(4) 0.8895(2)
H71_7 H 0.7045 0.8730 0.8757
C99_7 C 0.73315(13) 0.8307(3) 0.93297(19)
C100_7 C 0.74894(14) 0.7724(3) 0.9533(2)
H72_7 H 0.7605 0.7686 0.9826
N9_4 N 0.78963(17) 0.4590(4) 0.7308(3)
N8_4 N 0.71037(17) 0.9590(4) 0.7692(3)
C105_7 C 0.7179(2) 0.9508(6) 0.8079(4)
H76_7 H 0.7220 0.9075 0.8196
Cu9_4 Cu 0.71888(3) 0.88534(5) 0.74531(4)
O1_7 O 0.00006(10) 0.8501(3) 0.51872(17)
O2_7 O 0.02179(11) 0.7896(3) 0.5028(2)
O5_7 O 0.26177(10) 0.4513(2) 0.55847(13)
O6_7 O 0.23787(10) 0.3878(2) 0.49932(14)
O7_7 O 0.19940(8) 0.4899(3) 0.47212(14)
O8_7 O 0.22759(9) 0.5621(2) 0.52541(14)
N1_7 N 0.29595(11) 0.5781(3) 0.59243(17)
N2_7 N 0.19119(11) 0.4247(3) 0.40176(17)
N7_7 N 0.03026(11) 0.6584(4) 0.4787(2)
C1_7 C 0.20464(13) 0.5332(3) 0.4985(2)
C3_7 C 0.46070(14) 0.8685(4) 0.9765(2)
C4_7 C 0.2861(3) 0.1428(6) 0.6721(4)
H1_7 H 0.2938 0.1799 0.6903
C5_7 C 0.18146(14) 0.5521(4) 0.4977(2)
C6_7 C 0.01825(13) 0.8428(4) 0.5157(2)
C7_7 C 0.25881(14) 0.3326(3) 0.5648(2)
C8_7 C 0.0809(3) 0.4002(8) 0.1686(5)
H2_7 H 0.0914 0.4384 0.1741
C9_7 C 0.02414(17) 0.3020(4) 0.0724(2)
C10_7 C 0.0688(2) 0.3132(6) 0.1906(3)
H3_7 H 0.0706 0.2897 0.2117
C12_7 C 0.30829(16) 0.5424(4) 0.6280(2)
H4_7 H 0.3014 0.4995 0.6261
C13_7 C 0.0595(3) 0.3820(7) 0.1274(4)
H5_7 H 0.0549 0.4101 0.1056
C14_7 C 0.04782(19) 0.2962(6) 0.1493(3)
H6_7 H 0.0350 0.2636 0.1429
C16_7 C 0.25124(19) 0.2695(4) 0.5474(3)
H8_7 H 0.2415 0.2645 0.5186
C21_7 C 0.0452(2) 0.3248(6) 0.1179(3)
C23_7 C 0.34183(17) 0.6278(5) 0.6713(3)
C25_7 C 0.07763(18) 0.9483(5) 0.5412(3)
H15_7 H 0.0925 0.9430 0.5421
C27_7 C 0.30768(15) 0.6370(4) 0.5961(2)
H16_7 H 0.3000 0.6613 0.5715
C29_7 C 0.03692(14) 0.9013(4) 0.5268(2)
C30_7 C 0.03281(15) 0.9638(4) 0.5367(3)
H18_7 H 0.0177 0.9703 0.5351
C31_7 C 0.1581(2) 0.4402(5) 0.3273(3)
H19_7 H 0.1519 0.4662 0.3038
C33_7 C 0.33060(18) 0.5659(5) 0.6670(3)
H21_7 H 0.3382 0.5395 0.6909
C35_7 C 0.07518(18) 0.6681(5) 0.4990(3)
H23_7 H 0.0920 0.6911 0.5145
C36_7 C 0.05489(16) 0.6873(4) 0.5001(3)
H24_7 H 0.0588 0.7239 0.5175
C38_7 C 0.13813(18) 0.5864(6) 0.4963(3)
C39_7 C 0.2760(2) 0.1531(7) 0.6352(4)
H26_7 H 0.2707 0.1142 0.6188
C40_7 C 0.05929(18) 0.8926(5) 0.5288(4)
H27_7 H 0.0624 0.8507 0.5222
C41_7 C 0.18106(17) 0.4598(4) 0.3670(2)
H28_7 H 0.1900 0.4997 0.3698
C42_7 C 0.14410(19) 0.3809(5) 0.3221(2)
C44_7 C 0.18553(17) 0.5967(5) 0.5263(3)
H30_7 H 0.2028 0.6168 0.5461
C45_7 C 0.27860(19) 0.2815(5) 0.6312(3)
H31_7 H 0.2875 0.2858 0.6598
C46_7 C 0.0871(3) 0.3635(7) 0.2020(3)
C47_7 C 0.1193(2) 0.3565(6) 0.2803(3)
H32_7 H 0.1100 0.3190 0.2793
C48_7 C 0.16402(19) 0.6129(6) 0.5262(3)
H33_7 H 0.1674 0.6420 0.5467
C53_7 C 0.1551(2) 0.3437(5) 0.3575(3)
H37_7 H 0.1468 0.3030 0.3554
C56_7 C 0.3651(2) 0.6587(6) 0.7128(3)
H40_7 H 0.3760 0.6920 0.7141
C57_7 C 0.1094(3) 0.3848(6) 0.2436(3)
H41_7 H 0.1185 0.4239 0.2457
C60_7 C 0.27331(18) 0.3398(4) 0.6079(2)
H44_7 H 0.2793 0.3823 0.6208
C61_7 C 0.06928(18) 0.6110(7) 0.4728(3)
C63_7 C 0.33019(18) 0.6637(5) 0.6336(3)
H46_7 H 0.3377 0.7048 0.6344
C64_7 C 0.0899(2) 0.5856(6) 0.4702(4)
H47_7 H 0.0842 0.5540 0.4493
C65_7 C 0.3701(3) 0.6400(7) 0.7460(3)
H48_7 H 0.3589 0.6054 0.7427
C66_7 C 0.1334(2) 0.5428(7) 0.4657(4)
H49_7 H 0.1159 0.5250 0.4446
C67_7 C 0.11673(19) 0.6058(6) 0.4967(3)
H50_7 H 0.1218 0.6362 0.5179
C68_7 C 0.02512(18) 0.6061(6) 0.4544(4)
H51_7 H 0.0083 0.5835 0.4396
C69_7 C 0.15572(19) 0.5260(7) 0.4672(4)
H52_7 H 0.1527 0.4967 0.4470
C70_7 C 0.0439(3) 0.5837(7) 0.4500(4)
H53_7 H 0.0388 0.5490 0.4309
C71_7 C 0.27108(18) 0.2173(5) 0.6132(3)
C72_7 C 0.2575(2) 0.2133(4) 0.5713(3)
H54_7 H 0.2524 0.1708 0.5584
C75_7 C 0.1787(2) 0.3664(5) 0.3969(3)
H56_7 H 0.1860 0.3400 0.4206
C81_7 C 0.3920(2) 0.6659(7) 0.7908(3)
C82_7 C 0.4139(2) 0.7072(7) 0.8021(3)
H61_7 H 0.4147 0.7216 0.7815
C83_7 C 0.4344(2) 0.7263(6) 0.8436(3)
H62_7 H 0.4493 0.7524 0.8514
C84_7 C 0.43269(15) 0.7063(5) 0.8743(2)
C85_7 C 0.45464(14) 0.7286(4) 0.9195(2)
C86_7 C 0.3908(2) 0.6486(8) 0.8204(3)
H63_7 H 0.3760 0.6226 0.8130
C87_7 C 0.4109(2) 0.6682(6) 0.8618(3)
H64_7 H 0.4094 0.6549 0.8817
C88_7 C 0.25205(13) 0.3952(3) 0.5386(2)
C91_7 C 0.44538(19) 0.9894(5) 0.9540(3)
H66_7 H 0.4619 0.9977 0.9596
C92_7 C 0.44015(16) 0.9260(4) 0.9607(3)
C93_7 C 0.41480(17) 0.9142(4) 0.9500(3)
H67_7 H 0.4108 0.8707 0.9535
C94_7 C 0.39560(17) 0.9643(4) 0.9346(3)
H68_7 H 0.3792 0.9554 0.9292
C101_7 C 0.2871(2) 0.0762(6) 0.6899(5)
C102_7 C 0.2944(3) 0.0798(6) 0.7267(6)
H73_7 H 0.2995 0.1216 0.7404
C103_7 C 0.2803(2) 0.0062(8) 0.6696(4)
H74_7 H 0.2751 0.0007 0.6431
C104_7 C 0.2948(3) 0.0222(5) 0.7466(5)
H75_7 H 0.2989 0.0279 0.7724
O19_4 O 0.28558(9) 0.4966(3) 0.52461(15)
O22_4 O 0.25394(9) 0.4542(2) 0.45886(14)
O9_4 O 0.78558(9) 0.9966(3) 0.52461(15)
O12_4 O 0.75394(9) 0.9542(2) 0.45886(14)
N6_7 N 0.95255(11) 0.8191(3) 0.51842(19)
C22_7 C 0.95750(16) 0.8799(5) 0.5357(3)
H13_7 H 0.9737 0.9024 0.5461
C28_7 C 0.93933(17) 0.9111(5) 0.5387(3)
H17_7 H 0.9436 0.9536 0.5515
C32_7 C 0.92927(18) 0.7890(5) 0.5044(3)
H20_7 H 0.9255 0.7461 0.4924
C55_7 C 0.91027(19) 0.8164(5) 0.5064(3)
H39_7 H 0.8945 0.7923 0.4966
C58_7 C 0.8941(2) 0.9129(6) 0.5226(4)
H42_7 H 0.8999 0.9457 0.5430
C74_7 C 0.91509(17) 0.8793(5) 0.5229(3)
C77_7 C 0.86724(19) 0.8980(6) 0.4943(3)
H58_7 H 0.8620 0.8697 0.4722
C106_7 C 0.84488(18) 0.9204(6) 0.4935(3)
C107_7 C 0.81809(18) 0.9040(6) 0.4591(3)
H77_7 H 0.8146 0.8805 0.4366
C108_7 C 0.84969(18) 0.9576(7) 0.5259(3)
H78_7 H 0.8676 0.9717 0.5484
C109_7 C 0.82855(17) 0.9741(6) 0.5255(3)
H79_7 H 0.8323 0.9975 0.5481
C110_7 C 0.80122(16) 0.9556(4) 0.4908(3)
C111_7 C 0.77849(13) 0.9711(3) 0.4913(2)
C112_7 C 0.79643(18) 0.9215(5) 0.4571(3)
H80_7 H 0.7784 0.9107 0.4331
C2_8 C 0.23574(13) 0.3903(3) 0.9586(2)
C11_8 C 0.23946(15) 0.0557(4) 0.8489(2)
C20_8 C 0.23059(19) 0.0124(4) 0.7877(3)
H12_8 H 0.2231 0.0194 0.7599
C52_8 C 0.23965(14) 0.1087(3) 0.8742(2)
H36_8 H 0.2481 0.0979 0.9020
C54_8 C 0.22901(16) 0.1696(4) 0.8609(2)
H38_8 H 0.2195 0.1791 0.8325
C73_8 C 0.22819(18) 0.0634(4) 0.8071(3)
H55_8 H 0.2191 0.1033 0.7925
C95_8 C 0.23060(15) 0.2242(3) 0.8864(2)
C96_8 C 0.21491(18) 0.2829(4) 0.8661(2)
H69_8 H 0.2039 0.2872 0.8369
C97_8 C 0.24740(15) 0.2204(3) 0.9298(2)
H70_8 H 0.2580 0.1815 0.9435
C98_8 C 0.21576(16) 0.3350(4) 0.8895(2)
H71_8 H 0.2045 0.3730 0.8757
C99_8 C 0.23315(13) 0.3307(3) 0.93297(19)
C100_8 C 0.24894(14) 0.2724(3) 0.9533(2)
H72_8 H 0.2605 0.2686 0.9826
Cu1_8 Cu 0.71032(2) 0.78678(6) 0.69348(4)
Cu2_8 Cu 0.74806(3) 0.88464(6) 0.72025(4)
Cu4_8 Cu 0.75850(2) 0.79191(6) 0.77430(4)
I1_8 I 0.71340(2) 0.76142(2) 0.76255(2)
I2_8 I 0.77677(2) 0.91832(3) 0.80007(2)
I3_8 I 0.75519(2) 0.75903(3) 0.70540(2)
I4_8 I 0.69034(2) 0.90978(3) 0.66405(2)
O1_8 O 0.50006(10) 0.3501(3) 0.51872(17)
O2_8 O 0.52179(11) 0.2896(3) 0.5028(2)
O8_8 O 0.72759(9) 0.0621(2) 0.52541(14)
N1_8 N 0.79595(11) 0.0781(3) 0.59243(17)
N3_8 N 0.75691(15) 0.9520(3) 0.6941(2)
N4_8 N 0.78928(14) 0.7262(4) 0.8160(2)
N5_8 N 0.68145(15) 0.7165(4) 0.6534(2)
N6_8 N 0.45255(11) 0.3191(3) 0.51842(19)
N7_8 N 0.53026(11) 0.1584(4) 0.4787(2)
C1_8 C 0.70464(13) 0.0332(3) 0.4985(2)
C3_8 C 0.96070(14) 0.3685(4) 0.9765(2)
C5_8 C 0.68146(14) 0.0521(4) 0.4977(2)
C6_8 C 0.51825(13) 0.3428(4) 0.5157(2)
C12_8 C 0.80829(16) 0.0424(4) 0.6280(2)
C15_8 C 0.65394(17) 0.7305(5) 0.6278(3)
H7_8 H 0.6485 0.7755 0.6249
C17_8 C 0.61990(19) 0.5603(5) 0.5884(3)
H9_8 H 0.6262 0.5168 0.5900
C18_8 C 0.7489(2) 0.9930(5) 0.6327(3)
H10_8 H 0.7421 0.9838 0.6054
C19_8 C 0.63413(19) 0.6819(5) 0.6062(3)
H11_8 H 0.6156 0.6946 0.5892
C22_8 C 0.45750(16) 0.3799(5) 0.5357(3)
H13_8 H 0.4737 0.4024 0.5461
C23_8 C 0.84183(17) 0.1278(5) 0.6713(3)
C24_8 C 0.6684(2) 0.5993(5) 0.6344(4)
H14_8 H 0.6741 0.5545 0.6374
C25_8 C 0.57763(18) 0.4483(5) 0.5412(3)
H15_8 H 0.5925 0.4430 0.5421
C26_8 C 0.64053(17) 0.6137(4) 0.6085(3)
C27_8 C 0.80768(15) 0.1370(4) 0.5961(2)
H16_8 H 0.8000 0.1613 0.5715
C28_8 C 0.43933(17) 0.4111(5) 0.5387(3)
H17_8 H 0.4436 0.4536 0.5515
C29_8 C 0.53692(14) 0.4013(4) 0.5268(2)
C30_8 C 0.53281(15) 0.4638(4) 0.5367(3)
H18_8 H 0.5177 0.4703 0.5351
C32_8 C 0.42927(18) 0.2890(5) 0.5044(3)
H20_8 H 0.4255 0.2461 0.4924
C33_8 C 0.83060(18) 0.0659(5) 0.6670(3)
H21_8 H 0.8382 0.0395 0.6909
C34_8 C 0.87993(19) 0.5843(4) 0.9069(3)
H22_8 H 0.8858 0.6271 0.9061
C35_8 C 0.57518(18) 0.1681(5) 0.4990(3)
H23_8 H 0.5920 0.1911 0.5145
C36_8 C 0.55489(16) 0.1873(4) 0.5001(3)
H24_8 H 0.5588 0.2239 0.5175
C37_8 C 0.85331(18) 0.5781(4) 0.8897(3)
H25_8 H 0.8481 0.5363 0.8931
C38_8 C 0.63813(18) 0.0864(6) 0.4963(3)
C40_8 C 0.55929(18) 0.3926(5) 0.5288(4)
H27_8 H 0.5624 0.3507 0.5222
C43_8 C 0.7475(3) 0.9436(4) 0.6553(3)
H29_8 H 0.7394 0.9021 0.6422
C44_8 C 0.68553(17) 0.0967(5) 0.5263(3)
H30_8 H 0.7028 0.1168 0.5461
C48_8 C 0.66402(19) 0.1129(6) 0.5262(3)
H33_8 H 0.6674 0.1420 0.5467
C49_8 C 0.83156(18) 0.6307(4) 0.8660(3)
C50_8 C 0.68826(19) 0.6510(4) 0.6562(4)
H34_8 H 0.7069 0.6394 0.6732
C51_8 C 0.7846(2) 0.6649(4) 0.8220(4)
H35_8 H 0.7665 0.6534 0.8093
C55_8 C 0.41027(19) 0.3164(5) 0.5064(3)
H39_8 H 0.3945 0.2923 0.4966
C56_8 C 0.8651(2) 0.1587(6) 0.7128(3)
H40_8 H 0.8760 0.1920 0.7141
C58_8 C 0.3941(2) 0.4129(6) 0.5226(4)
H42_8 H 0.3999 0.4457 0.5430
C59_8 C 0.80515(19) 0.6153(5) 0.8463(3)
H43_8 H 0.8005 0.5719 0.8489
C61_8 C 0.56928(18) 0.1110(7) 0.4728(3)
C62_8 C 0.8157(2) 0.7405(6) 0.8345(4)
H45_8 H 0.8197 0.7833 0.8301
C63_8 C 0.83019(18) 0.1637(5) 0.6336(3)
H46_8 H 0.8377 0.2048 0.6344
C64_8 C 0.5899(2) 0.0856(6) 0.4702(4)
H47_8 H 0.5842 0.0540 0.4493
C65_8 C 0.8701(3) 0.1400(7) 0.7460(3)
H48_8 H 0.8589 0.1054 0.7427
C66_8 C 0.6334(2) 0.0428(7) 0.4657(4)
H49_8 H 0.6159 0.0250 0.4446
C67_8 C 0.61673(19) 0.1058(6) 0.4967(3)
H50_8 H 0.6218 0.1362 0.5179
C68_8 C 0.52512(18) 0.1061(6) 0.4544(4)
H51_8 H 0.5083 0.0835 0.4396
C69_8 C 0.65572(19) 0.0260(7) 0.4672(4)
C70_8 C 0.5439(3) 0.0837(7) 0.4500(4)
H53_8 H 0.5388 0.0490 0.4309
C74_8 C 0.41509(17) 0.3793(5) 0.5229(3)
C76_8 C 0.8370(2) 0.6957(5) 0.8594(4)
H57_8 H 0.8549 0.7084 0.8720
C77_8 C 0.36724(19) 0.3980(6) 0.4943(3)
H58_8 H 0.3620 0.3697 0.4722
C78_8 C 0.55054(15) 0.5170(4) 0.5488(3)
H59_8 H 0.5472 0.5588 0.5552
C79_8 C 0.59352(16) 0.5659(5) 0.5683(3)
H60_8 H 0.5866 0.6098 0.5639
C80_8 C 0.57332(15) 0.5092(4) 0.5517(3)
C81_8 C 0.8920(2) 0.1659(7) 0.7908(3)
C82_8 C 0.9139(2) 0.2072(7) 0.8021(3)
H61_8 H 0.9147 0.2216 0.7815
C83_8 C 0.9344(2) 0.2263(6) 0.8436(3)
H62_8 H 0.9493 0.2524 0.8514
C84_8 C 0.93269(15) 0.2063(5) 0.8743(2)
C85_8 C 0.95464(14) 0.2286(4) 0.9195(2)
C86_8 C 0.8908(2) 0.1486(8) 0.8204(3)
H63_8 H 0.8760 0.1226 0.8130
C87_8 C 0.9109(2) 0.1682(6) 0.8618(3)
H64_8 H 0.9094 0.1549 0.8817
C89_8 C 0.90052(18) 0.5295(4) 0.9269(3)
C90_8 C 0.9263(2) 0.5419(4) 0.9388(4)
H65_8 H 0.9308 0.5856 0.9365
C91_8 C 0.94538(19) 0.4894(5) 0.9540(3)
H66_8 H 0.9619 0.4977 0.9596
C92_8 C 0.94015(16) 0.4260(4) 0.9607(3)
C93_8 C 0.91480(17) 0.4142(4) 0.9500(3)
H67_8 H 0.9108 0.3707 0.9535
C94_8 C 0.89560(17) 0.4643(4) 0.9346(3)
H68_8 H 0.8792 0.4554 0.9292
C106_8 C 0.34488(18) 0.4204(6) 0.4935(3)
C107_8 C 0.31809(18) 0.4040(6) 0.4591(3)
H77_8 H 0.3146 0.3805 0.4366
C108_8 C 0.34969(18) 0.4576(7) 0.5259(3)
H78_8 H 0.3676 0.4717 0.5484
C109_8 C 0.32855(17) 0.4741(6) 0.5255(3)
H79_8 H 0.3323 0.4975 0.5481
C110_8 C 0.30122(16) 0.4556(4) 0.4908(3)
C111_8 C 0.27849(13) 0.4711(3) 0.4913(2)
C112_8 C 0.29643(18) 0.4215(5) 0.4571(3)
H80_8 H 0.2784 0.4107 0.4331
O5_8 O 0.76177(10) 0.9513(2) 0.55847(13)
O6_8 O 0.73787(10) 0.8878(2) 0.49932(14)
O7_8 O 0.69940(8) 0.9899(3) 0.47212(14)
N2_8 N 0.69119(11) 0.9247(3) 0.40176(17)
C4_8 C 0.7861(3) 0.6428(6) 0.6721(4)
H1_8 H 0.7938 0.6799 0.6903
C7_8 C 0.75881(14) 0.8326(3) 0.5648(2)
C8_8 C 0.5809(3) 0.9002(8) 0.1686(5)
H2_8 H 0.5914 0.9384 0.1741
C9_8 C 0.52414(17) 0.8020(4) 0.0724(2)
C10_8 C 0.5688(2) 0.8132(6) 0.1906(3)
H3_8 H 0.5706 0.7897 0.2117
H4_8 H 0.8014 0.9995 0.6261
C13_8 C 0.5595(3) 0.8820(7) 0.1274(4)
H5_8 H 0.5549 0.9101 0.1056
C14_8 C 0.54782(19) 0.7962(6) 0.1493(3)
H6_8 H 0.5350 0.7636 0.1429
C16_8 C 0.75124(19) 0.7695(4) 0.5474(3)
H8_8 H 0.7415 0.7645 0.5186
C21_8 C 0.5452(2) 0.8248(6) 0.1179(3)
C31_8 C 0.6581(2) 0.9402(5) 0.3273(3)
H19_8 H 0.6519 0.9662 0.3038
C39_8 C 0.7760(2) 0.6531(7) 0.6352(4)
H26_8 H 0.7707 0.6142 0.6188
C41_8 C 0.68106(17) 0.9598(4) 0.3670(2)
H28_8 H 0.6900 0.9997 0.3698
C42_8 C 0.64410(19) 0.8809(5) 0.3221(2)
C45_8 C 0.77860(19) 0.7815(5) 0.6312(3)
H31_8 H 0.7875 0.7858 0.6598
C46_8 C 0.5871(3) 0.8635(7) 0.2020(3)
C47_8 C 0.6193(2) 0.8565(6) 0.2803(3)
H32_8 H 0.6100 0.8190 0.2793
C53_8 C 0.6551(2) 0.8437(5) 0.3575(3)
H37_8 H 0.6468 0.8030 0.3554
C57_8 C 0.6094(3) 0.8848(6) 0.2436(3)
H41_8 H 0.6185 0.9239 0.2457
C60_8 C 0.77331(18) 0.8398(4) 0.6079(2)
H44_8 H 0.7793 0.8823 0.6208
H52_8 H 0.6527 0.9967 0.4470
C71_8 C 0.77108(18) 0.7173(5) 0.6132(3)
C72_8 C 0.7575(2) 0.7133(4) 0.5713(3)
H54_8 H 0.7524 0.6708 0.5584
C75_8 C 0.6787(2) 0.8664(5) 0.3969(3)
H56_8 H 0.6860 0.8400 0.4206
C88_8 C 0.75205(13) 0.8952(3) 0.5386(2)
C101_8 C 0.7871(2) 0.5762(6) 0.6899(5)
C102_8 C 0.7944(3) 0.5798(6) 0.7267(6)
H73_8 H 0.7995 0.6216 0.7404
C103_8 C 0.7803(2) 0.5062(8) 0.6696(4)
H74_8 H 0.7751 0.5007 0.6431
C104_8 C 0.7948(3) 0.5222(5) 0.7466(5)
H75_8 H 0.7989 0.5279 0.7724
C105_8 C 0.7821(2) 0.4508(6) 0.6921(4)
H76_8 H 0.7780 0.4075 0.6804
loop_
_geom_bond_atom_site_label_1
_geom_bond_atom_site_label_2
_geom_bond_site_symmetry_1
_geom_bond_site_symmetry_2
H76 C105 1_555 1_555
Cu9 N8 1_555 1_555
N8 C105 1_555 1_555
Cu1 Cu2 1_555 1_555
Cu2 Cu3 1_555 1_555
Cu3 Cu1 1_555 1_555
Cu4 Cu1 1_555 1_555
I1 Cu1 1_555 1_555
I2 Cu2 1_555 1_555
I3 Cu1 1_555 1_555
I4 Cu1 1_555 1_555
O10 C2 1_555 1_555
O11 C2 1_555 1_555
N3 Cu2 1_555 1_555
N4 Cu4 1_555 1_555
N5 Cu1 1_555 1_555
C2 C99 1_555 1_555
C11 C18 1_555 1_555
C15 N5 1_555 1_555
H7 C15 1_555 1_555
C17 H9 1_555 1_555
C18 H10 1_555 1_555
C19 C15 1_555 1_555
H11 C19 1_555 1_555
C20 N3 1_555 1_555
H12 C20 1_555 1_555
C24 H14 1_555 1_555
C26 C17 1_555 1_555
C34 H22 1_555 1_555
C37 C34 1_555 1_555
H25 C37 1_555 1_555
C43 N3 1_555 1_555
H29 C43 1_555 1_555
C49 C37 1_555 1_555
C50 N5 1_555 1_555
H34 C50 1_555 1_555
C51 N4 1_555 1_555
H35 C51 1_555 1_555
C52 C11 1_555 1_555
H36 C52 1_555 1_555
C54 C52 1_555 1_555
H38 C54 1_555 1_555
C59 C49 1_555 1_555
H43 C59 1_555 1_555
C62 N4 1_555 1_555
H45 C62 1_555 1_555
C73 C11 1_555 1_555
H55 C73 1_555 1_555
C76 C49 1_555 1_555
H57 C76 1_555 1_555
H59 C78 1_555 1_555
C79 C17 1_555 1_555
H60 C79 1_555 1_555
C89 C34 1_555 1_555
C90 C89 1_555 1_555
H65 C90 1_555 1_555
C95 C54 1_555 1_555
C96 C95 1_555 1_555
H69 C96 1_555 1_555
C97 C95 1_555 1_555
H70 C97 1_555 1_555
C98 C96 1_555 1_555
H71 C98 1_555 1_555
C99 C98 1_555 1_555
C100 C97 1_555 1_555
H72 C100 1_555 1_555
N9 Cu3 1_555 1_555
Cu2 Cu4 1_555 1_555
Cu2 I3 1_555 1_555
Cu2 I4 1_555 1_555
Cu3 Cu4 1_555 1_555
Cu3 I1 1_555 1_555
Cu3 I2 1_555 1_555
Cu3 I4 1_555 1_555
Cu4 I1 1_555 1_555
Cu4 I2 1_555 1_555
Cu4 I3 1_555 1_555
C18 C43 1_555 1_555
C19 C26 1_555 1_555
C20 C73 1_555 1_555
C24 C26 1_555 1_555
C24 C50 1_555 1_555
C51 C59 1_555 1_555
C62 C76 1_555 1_555
C78 C80 1_555 1_555
C79 C80 1_555 1_555
C99 C100 1_555 1_555
O9 C111 1_555 1_555
O12 C111 1_555 1_555
N6 Cu8 1_555 1_555
C22 N6 1_555 1_555
H13 C22 1_555 1_555
C28 C22 1_555 1_555
H17 C28 1_555 1_555
C32 N6 1_555 1_555
H20 C32 1_555 1_555
C55 C32 1_555 1_555
H39 C55 1_555 1_555
C58 H42 1_555 1_555
C74 C28 1_555 1_555
C77 C58 1_555 1_555
H58 C77 1_555 1_555
C106 C77 1_555 1_555
C107 C106 1_555 1_555
H77 C107 1_555 1_555
C108 C106 1_555 1_555
H78 C108 1_555 1_555
C109 C108 1_555 1_555
H79 C109 1_555 1_555
C110 C109 1_555 1_555
C111 C110 1_555 1_555
C112 C107 1_555 1_555
H80 C112 1_555 1_555
Cu14 O12 1_555 1_555
O17 Cu8 1_555 1_555
O24 Cu8 1_555 1_555
C55 C74 1_555 1_555
C58 C74 1_555 1_555
C110 C112 1_555 1_555
Cu5 Cu7 1_555 1_555
Cu7 O6 1_555 1_555
O1 C6 1_555 1_555
O2 Cu6 1_555 1_555
O3 C3 1_555 1_555
O4 C3 1_555 1_555
O5 Cu5 1_555 1_555
O6 C88 1_555 1_555
O7 Cu7 1_555 1_555
O8 Cu5 1_555 1_555
O13 C85 1_555 1_555
O14 C85 1_555 1_555
O15 C9 1_555 1_555
O16 C9 1_555 1_555
N1 Cu5 1_555 1_555
N2 Cu7 1_555 1_555
N7 Cu6 1_555 1_555
C1 O7 1_555 1_555
C3 C92 1_555 1_555
C4 H1 1_555 1_555
C5 C1 1_555 1_555
C6 O2 1_555 1_555
C7 C16 1_555 1_555
C8 H2 1_555 1_555
C9 C21 1_555 1_555
C10 H3 1_555 1_555
C12 N1 1_555 1_555
H4 C12 1_555 1_555
C13 C8 1_555 1_555
H5 C13 1_555 1_555
C14 C10 1_555 1_555
H6 C14 1_555 1_555
C16 H8 1_555 1_555
C21 C13 1_555 1_555
C23 C33 1_555 1_555
C25 H15 1_555 1_555
C27 N1 1_555 1_555
H16 C27 1_555 1_555
C29 C6 1_555 1_555
C30 C29 1_555 1_555
H18 C30 1_555 1_555
C31 H19 1_555 1_555
C33 C12 1_555 1_555
H21 C33 1_555 1_555
C35 H23 1_555 1_555
C36 N7 1_555 1_555
H24 C36 1_555 1_555
C38 C48 1_555 1_555
C39 C4 1_555 1_555
H26 C39 1_555 1_555
C40 C25 1_555 1_555
H27 C40 1_555 1_555
C41 N2 1_555 1_555
H28 C41 1_555 1_555
C42 C31 1_555 1_555
C44 C5 1_555 1_555
H30 C44 1_555 1_555
C45 H31 1_555 1_555
C46 C8 1_555 1_555
C47 C42 1_555 1_555
H32 C47 1_555 1_555
C48 C44 1_555 1_555
H33 C48 1_555 1_555
C53 C42 1_555 1_555
H37 C53 1_555 1_555
C56 C23 1_555 1_555
H40 C56 1_555 1_555
C57 C46 1_555 1_555
H41 C57 1_555 1_555
C60 C7 1_555 1_555
H44 C60 1_555 1_555
C61 C35 1_555 1_555
C63 C23 1_555 1_555
H46 C63 1_555 1_555
C64 C61 1_555 1_555
H47 C64 1_555 1_555
C65 C56 1_555 1_555
H48 C65 1_555 1_555
C66 C38 1_555 1_555
H49 C66 1_555 1_555
C67 C38 1_555 1_555
H50 C67 1_555 1_555
C68 N7 1_555 1_555
H51 C68 1_555 1_555
C69 C5 1_555 1_555
H52 C69 1_555 1_555
C70 C61 1_555 1_555
H53 C70 1_555 1_555
C71 C39 1_555 1_555
C72 C16 1_555 1_555
H54 C72 1_555 1_555
C75 N2 1_555 1_555
H56 C75 1_555 1_555
C81 C65 1_555 1_555
C82 C81 1_555 1_555
H61 C82 1_555 1_555
C83 C82 1_555 1_555
H62 C83 1_555 1_555
C84 C83 1_555 1_555
C85 C84 1_555 1_555
C86 C81 1_555 1_555
H63 C86 1_555 1_555
C87 C84 1_555 1_555
H64 C87 1_555 1_555
C88 O5 1_555 1_555
H66 C91 1_555 1_555
C92 C91 1_555 1_555
C93 C92 1_555 1_555
H67 C93 1_555 1_555
H68 C94 1_555 1_555
C101 C4 1_555 1_555
C102 C101 1_555 1_555
H73 C102 1_555 1_555
C103 C101 1_555 1_555
H74 C103 1_555 1_555
C104 C102 1_555 1_555
H75 C104 1_555 1_555
Cu13 O4 1_555 1_555
O19 Cu5 1_555 1_555
O20 Cu7 1_555 1_555
O21 Cu5 1_555 1_555
O22 Cu7 1_555 1_555
O26 Cu6 1_555 1_555
O8 C1 1_555 1_555
O13 Cu13 1_555 1_555
C7 C88 1_555 1_555
C10 C46 1_555 1_555
C14 C21 1_555 1_555
C27 C63 1_555 1_555
C29 C40 1_555 1_555
C31 C41 1_555 1_555
C35 C36 1_555 1_555
C45 C60 1_555 1_555
C45 C71 1_555 1_555
C47 C57 1_555 1_555
C53 C75 1_555 1_555
C64 C67 1_555 1_555
C66 C69 1_555 1_555
C68 C70 1_555 1_555
C71 C72 1_555 1_555
C86 C87 1_555 1_555
C93 C94 1_555 1_555
O10_2 C2_2 1_555 1_555
O11_2 C2_2 1_555 1_555
C2_2 C99_2 1_555 1_555
H12_2 C20_2 1_555 1_555
C52_2 C11_2 1_555 1_555
H36_2 C52_2 1_555 1_555
C54_2 C52_2 1_555 1_555
H38_2 C54_2 1_555 1_555
C73_2 C11_2 1_555 1_555
H55_2 C73_2 1_555 1_555
C95_2 C54_2 1_555 1_555
C96_2 C95_2 1_555 1_555
H69_2 C96_2 1_555 1_555
C97_2 C95_2 1_555 1_555
H70_2 C97_2 1_555 1_555
C98_2 C96_2 1_555 1_555
H71_2 C98_2 1_555 1_555
C99_2 C98_2 1_555 1_555
C100_2 C97_2 1_555 1_555
H72_2 C100_2 1_555 1_555
Cu15_2 O10_2 1_555 1_555
C20_2 C73_2 1_555 1_555
C99_2 C100_2 1_555 1_555
Cu14 O6_2 1_555 1_555
O6_2 C88_2 1_555 1_555
O7_2 Cu14 1_555 1_555
O15_2 C9_2 1_555 1_555
O16_2 C9_2 1_555 1_555
N2_2 Cu14 1_555 1_555
C4_2 H1_2 1_555 1_555
C7_2 C16_2 1_555 1_555
C8_2 H2_2 1_555 1_555
C9_2 C21_2 1_555 1_555
C10_2 H3_2 1_555 1_555
C13_2 C8_2 1_555 1_555
H5_2 C13_2 1_555 1_555
C14_2 C10_2 1_555 1_555
H6_2 C14_2 1_555 1_555
C16_2 H8_2 1_555 1_555
C21_2 C13_2 1_555 1_555
C31_2 H19_2 1_555 1_555
C39_2 C4_2 1_555 1_555
H26_2 C39_2 1_555 1_555
C41_2 N2_2 1_555 1_555
H28_2 C41_2 1_555 1_555
C42_2 C31_2 1_555 1_555
C45_2 H31_2 1_555 1_555
C46_2 C8_2 1_555 1_555
C47_2 C42_2 1_555 1_555
H32_2 C47_2 1_555 1_555
C53_2 C42_2 1_555 1_555
H37_2 C53_2 1_555 1_555
C57_2 C46_2 1_555 1_555
H41_2 C57_2 1_555 1_555
C60_2 C7_2 1_555 1_555
H44_2 C60_2 1_555 1_555
C71_2 C39_2 1_555 1_555
C72_2 C16_2 1_555 1_555
H54_2 C72_2 1_555 1_555
C75_2 N2_2 1_555 1_555
H56_2 C75_2 1_555 1_555
C88_2 O5_2 1_555 1_555
C101_2 C4_2 1_555 1_555
C102_2 C101_2 1_555 1_555
H73_2 C102_2 1_555 1_555
C103_2 C101_2 1_555 1_555
H74_2 C103_2 1_555 1_555
C104_2 C102_2 1_555 1_555
H75_2 C104_2 1_555 1_555
N9 C104_2 1_555 1_555
C105_2 C103_2 1_555 1_555
H76_2 C105_2 1_555 1_555
Cu17 O15_2 1_555 1_555
C7_2 C88_2 1_555 1_555
C10_2 C46_2 1_555 1_555
C14_2 C21_2 1_555 1_555
C31_2 C41_2 1_555 1_555
C45_2 C60_2 1_555 1_555
C45_2 C71_2 1_555 1_555
C47_2 C57_2 1_555 1_555
C53_2 C75_2 1_555 1_555
C71_2 C72_2 1_555 1_555
N9 C105_2 1_555 1_555
Cu1_2 Cu2_2 1_555 1_555
Cu2_2 Cu9 1_555 1_555
Cu9 Cu1_2 1_555 1_555
Cu4_2 Cu1_2 1_555 1_555
Cu6_2 Cu8_2 1_555 1_555
Cu8_2 O1_2 1_555 1_555
I1_2 Cu1_2 1_555 1_555
I2_2 Cu2_2 1_555 1_555
I3_2 Cu1_2 1_555 1_555
I4_2 Cu1_2 1_555 1_555
O1_2 C6_2 1_555 1_555
O2_2 Cu6_2 1_555 1_555
O3_2 C3_2 1_555 1_555
O4_2 C3_2 1_555 1_555
O8_2 Cu10 1_555 1_555
O19 C111_2 1_555 1_555
O22 C111_2 1_555 1_555
O13_2 C85_2 1_555 1_555
O14_2 C85_2 1_555 1_555
N1_2 Cu10 1_555 1_555
N3_2 Cu2_2 1_555 1_555
N4_2 Cu4_2 1_555 1_555
N5_2 Cu1_2 1_555 1_555
N6_2 Cu8_2 1_555 1_555
N7_2 Cu6_2 1_555 1_555
C3_2 C92_2 1_555 1_555
C5_2 C1_2 1_555 1_555
C6_2 O2_2 1_555 1_555
C12_2 N1_2 1_555 1_555
C15_2 N5_2 1_555 1_555
H7_2 C15_2 1_555 1_555
C17_2 H9_2 1_555 1_555
C18_2 H10_2 1_555 1_555
C19_2 C15_2 1_555 1_555
H11_2 C19_2 1_555 1_555
C22_2 N6_2 1_555 1_555
H13_2 C22_2 1_555 1_555
C23_2 C33_2 1_555 1_555
C24_2 H14_2 1_555 1_555
C25_2 H15_2 1_555 1_555
C26_2 C17_2 1_555 1_555
C27_2 N1_2 1_555 1_555
H16_2 C27_2 1_555 1_555
C28_2 C22_2 1_555 1_555
H17_2 C28_2 1_555 1_555
C29_2 C6_2 1_555 1_555
C30_2 C29_2 1_555 1_555
H18_2 C30_2 1_555 1_555
C32_2 N6_2 1_555 1_555
H20_2 C32_2 1_555 1_555
C33_2 C12_2 1_555 1_555
H21_2 C33_2 1_555 1_555
C34_2 H22_2 1_555 1_555
C35_2 H23_2 1_555 1_555
C36_2 N7_2 1_555 1_555
H24_2 C36_2 1_555 1_555
C37_2 C34_2 1_555 1_555
H25_2 C37_2 1_555 1_555
C38_2 C48_2 1_555 1_555
C40_2 C25_2 1_555 1_555
H27_2 C40_2 1_555 1_555
C43_2 N3_2 1_555 1_555
H29_2 C43_2 1_555 1_555
C44_2 C5_2 1_555 1_555
H30_2 C44_2 1_555 1_555
C48_2 C44_2 1_555 1_555
H33_2 C48_2 1_555 1_555
C49_2 C37_2 1_555 1_555
C50_2 N5_2 1_555 1_555
H34_2 C50_2 1_555 1_555
C51_2 N4_2 1_555 1_555
H35_2 C51_2 1_555 1_555
C55_2 C32_2 1_555 1_555
H39_2 C55_2 1_555 1_555
C56_2 C23_2 1_555 1_555
H40_2 C56_2 1_555 1_555
C58_2 H42_2 1_555 1_555
C59_2 C49_2 1_555 1_555
H43_2 C59_2 1_555 1_555
C61_2 C35_2 1_555 1_555
C62_2 N4_2 1_555 1_555
H45_2 C62_2 1_555 1_555
C63_2 C23_2 1_555 1_555
H46_2 C63_2 1_555 1_555
C64_2 C61_2 1_555 1_555
H47_2 C64_2 1_555 1_555
C65_2 C56_2 1_555 1_555
H48_2 C65_2 1_555 1_555
C66_2 C38_2 1_555 1_555
H49_2 C66_2 1_555 1_555
C67_2 C38_2 1_555 1_555
H50_2 C67_2 1_555 1_555
C68_2 N7_2 1_555 1_555
H51_2 C68_2 1_555 1_555
C69_2 C5_2 1_555 1_555
C70_2 C61_2 1_555 1_555
H53_2 C70_2 1_555 1_555
C74_2 C28_2 1_555 1_555
C76_2 C49_2 1_555 1_555
H57_2 C76_2 1_555 1_555
C77_2 C58_2 1_555 1_555
H58_2 C77_2 1_555 1_555
C78_2 C30_2 1_555 1_555
H59_2 C78_2 1_555 1_555
C79_2 C17_2 1_555 1_555
H60_2 C79_2 1_555 1_555
C80_2 C25_2 1_555 1_555
C81_2 C65_2 1_555 1_555
C82_2 C81_2 1_555 1_555
H61_2 C82_2 1_555 1_555
C83_2 C82_2 1_555 1_555
H62_2 C83_2 1_555 1_555
C84_2 C83_2 1_555 1_555
C85_2 C84_2 1_555 1_555
C86_2 C81_2 1_555 1_555
H63_2 C86_2 1_555 1_555
C87_2 C84_2 1_555 1_555
H64_2 C87_2 1_555 1_555
C89_2 C34_2 1_555 1_555
C90_2 C89_2 1_555 1_555
H65_2 C90_2 1_555 1_555
C91_2 C90_2 1_555 1_555
H66_2 C91_2 1_555 1_555
C92_2 C91_2 1_555 1_555
C93_2 C92_2 1_555 1_555
H67_2 C93_2 1_555 1_555
C94_2 C89_2 1_555 1_555
H68_2 C94_2 1_555 1_555
C106_2 C77_2 1_555 1_555
C107_2 C106_2 1_555 1_555
H77_2 C107_2 1_555 1_555
C108_2 C106_2 1_555 1_555
H78_2 C108_2 1_555 1_555
C109_2 C108_2 1_555 1_555
H79_2 C109_2 1_555 1_555
C110_2 C109_2 1_555 1_555
C111_2 C110_2 1_555 1_555
C112_2 C107_2 1_555 1_555
H80_2 C112_2 1_555 1_555
O17_2 Cu8_2 1_555 1_555
O18_2 Cu6_2 1_555 1_555
O21_2 Cu10 1_555 1_555
O23_2 Cu6_2 1_555 1_555
O24_2 Cu8_2 1_555 1_555
O25_2 Cu8_2 1_555 1_555
O26_2 Cu6_2 1_555 1_555
Cu2_2 Cu4_2 1_555 1_555
Cu2_2 I3_2 1_555 1_555
Cu2_2 I4_2 1_555 1_555
Cu9 Cu4_2 1_555 1_555
Cu9 I1_2 1_555 1_555
Cu9 I2_2 1_555 1_555
Cu9 I4_2 1_555 1_555
Cu4_2 I1_2 1_555 1_555
Cu4_2 I2_2 1_555 1_555
Cu4_2 I3_2 1_555 1_555
O8_2 C1_2 1_555 1_555
C18_2 C43_2 1_555 1_555
C19_2 C26_2 1_555 1_555
C24_2 C26_2 1_555 1_555
C24_2 C50_2 1_555 1_555
C27_2 C63_2 1_555 1_555
C29_2 C40_2 1_555 1_555
C35_2 C36_2 1_555 1_555
C51_2 C59_2 1_555 1_555
C55_2 C74_2 1_555 1_555
C58_2 C74_2 1_555 1_555
C62_2 C76_2 1_555 1_555
C64_2 C67_2 1_555 1_555
C66_2 C69_2 1_555 1_555
C68_2 C70_2 1_555 1_555
C78_2 C80_2 1_555 1_555
C79_2 C80_2 1_555 1_555
C86_2 C87_2 1_555 1_555
C93_2 C94_2 1_555 1_555
C110_2 C112_2 1_555 1_555
O12_2 C111_3 1_555 1_555
H58_3 C77_3 1_555 1_555
C106_3 C77_3 1_555 1_555
C107_3 C106_3 1_555 1_555
H77_3 C107_3 1_555 1_555
C111_3 C110_3 1_555 1_555
C112_3 C107_3 1_555 1_555
H80_3 C112_3 1_555 1_555
Cu15 O12_2 1_555 1_555
C110_3 C112_3 1_555 1_555
N6_3 Cu16 1_555 1_555
C22_3 N6_3 1_555 1_555
H13_3 C22_3 1_555 1_555
C28_3 C22_3 1_555 1_555
H17_3 C28_3 1_555 1_555
C32_3 N6_3 1_555 1_555
C55_3 C32_3 1_555 1_555
C58_3 H42_3 1_555 1_555
C74_3 C28_3 1_555 1_555
H78_3 C108_3 1_555 1_555
C109_3 C108_3 1_555 1_555
H79_3 C109_3 1_555 1_555
C55_3 C74_3 1_555 1_555
C58_3 C74_3 1_555 1_555
Cu15_2 O6_3 1_555 1_555
O7_3 Cu15_2 1_555 1_555
O25 C9_3 1_555 1_555
O26 C9_3 1_555 1_555
N2_3 Cu15_2 1_555 1_555
N7_3 Cu12 1_555 1_555
C1_3 O7_3 1_555 1_555
C5_3 C1_3 1_555 1_555
C8_3 H2_3 1_555 1_555
C9_3 C21_3 1_555 1_555
C10_3 H3_3 1_555 1_555
C13_3 C8_3 1_555 1_555
H5_3 C13_3 1_555 1_555
C14_3 C10_3 1_555 1_555
H6_3 C14_3 1_555 1_555
C21_3 C13_3 1_555 1_555
C31_3 H19_3 1_555 1_555
C41_3 N2_3 1_555 1_555
H28_3 C41_3 1_555 1_555
C42_3 C31_3 1_555 1_555
C46_3 C8_3 1_555 1_555
C47_3 C42_3 1_555 1_555
H32_3 C47_3 1_555 1_555
C53_3 C42_3 1_555 1_555
H37_3 C53_3 1_555 1_555
C57_3 C46_3 1_555 1_555
H41_3 C57_3 1_555 1_555
C61_3 C35_3 1_555 1_555
C64_3 C61_3 1_555 1_555
H47_3 C64_3 1_555 1_555
C66_3 C38_3 1_555 1_555
H49_3 C66_3 1_555 1_555
C67_3 C38_3 1_555 1_555
C68_3 N7_3 1_555 1_555
H51_3 C68_3 1_555 1_555
C69_3 C5_3 1_555 1_555
H52_3 C69_3 1_555 1_555
C70_3 C61_3 1_555 1_555
H53_3 C70_3 1_555 1_555
C75_3 N2_3 1_555 1_555
H56_3 C75_3 1_555 1_555
O22_2 Cu15_2 1_555 1_555
C10_3 C46_3 1_555 1_555
C14_3 C21_3 1_555 1_555
C31_3 C41_3 1_555 1_555
C47_3 C57_3 1_555 1_555
C53_3 C75_3 1_555 1_555
C64_3 C67_3 1_555 1_555
C66_3 C69_3 1_555 1_555
C68_3 C70_3 1_555 1_555
O1_3 C6_3 1_555 1_555
O17_2 C3_3 1_555 1_555
O18_2 C3_3 1_555 1_555
O5_3 Cu11_2 1_555 1_555
O8_3 Cu11_2 1_555 1_555
O23_2 C85_3 1_555 1_555
O24_2 C85_3 1_555 1_555
N1_3 Cu11_2 1_555 1_555
C3_3 C92_3 1_555 1_555
C4_3 H1_3 1_555 1_555
C6_3 O2_3 1_555 1_555
C7_3 C16_3 1_555 1_555
C12_3 N1_3 1_555 1_555
H4_3 C12_3 1_555 1_555
C16_3 H8_3 1_555 1_555
C23_3 C33_3 1_555 1_555
C25_3 H15_3 1_555 1_555
C27_3 N1_3 1_555 1_555
H16_3 C27_3 1_555 1_555
C29_3 C6_3 1_555 1_555
C30_3 C29_3 1_555 1_555
H18_3 C30_3 1_555 1_555
C33_3 C12_3 1_555 1_555
H21_3 C33_3 1_555 1_555
H24_3 C36_3 1_555 1_555
C39_3 C4_3 1_555 1_555
H26_3 C39_3 1_555 1_555
C40_3 C25_3 1_555 1_555
H27_3 C40_3 1_555 1_555
H30_3 C44_3 1_555 1_555
C45_3 H31_3 1_555 1_555
C48_3 C44_3 1_555 1_555
H33_3 C48_3 1_555 1_555
C56_3 C23_3 1_555 1_555
H40_3 C56_3 1_555 1_555
C60_3 C7_3 1_555 1_555
H44_3 C60_3 1_555 1_555
C63_3 C23_3 1_555 1_555
H46_3 C63_3 1_555 1_555
C65_3 C56_3 1_555 1_555
H48_3 C65_3 1_555 1_555
C71_3 C39_3 1_555 1_555
C72_3 C16_3 1_555 1_555
H54_3 C72_3 1_555 1_555
C81_3 C65_3 1_555 1_555
C82_3 C81_3 1_555 1_555
H61_3 C82_3 1_555 1_555
C83_3 C82_3 1_555 1_555
H62_3 C83_3 1_555 1_555
C84_3 C83_3 1_555 1_555
C85_3 C84_3 1_555 1_555
C86_3 C81_3 1_555 1_555
H63_3 C86_3 1_555 1_555
C87_3 C84_3 1_555 1_555
H64_3 C87_3 1_555 1_555
C88_3 O5_3 1_555 1_555
H66_3 C91_3 1_555 1_555
C92_3 C91_3 1_555 1_555
C93_3 C92_3 1_555 1_555
H67_3 C93_3 1_555 1_555
H68_3 C94_3 1_555 1_555
C101_3 C4_3 1_555 1_555
C102_3 C101_3 1_555 1_555
H73_3 C102_3 1_555 1_555
C103_3 C101_3 1_555 1_555
H74_3 C103_3 1_555 1_555
C104_3 C102_3 1_555 1_555
H75_3 C104_3 1_555 1_555
O19_2 Cu11_2 1_555 1_555
C7_3 C88_3 1_555 1_555
C27_3 C63_3 1_555 1_555
C29_3 C40_3 1_555 1_555
C45_3 C60_3 1_555 1_555
C45_3 C71_3 1_555 1_555
C71_3 C72_3 1_555 1_555
C86_3 C87_3 1_555 1_555
C93_3 C94_3 1_555 1_555
Cu1_3 Cu2_3 1_555 1_555
Cu2_3 Cu3_2 1_555 1_555
Cu3_2 Cu1_3 1_555 1_555
Cu4_3 Cu1_3 1_555 1_555
I1_3 Cu1_3 1_555 1_555
I2_3 Cu2_3 1_555 1_555
I3_3 Cu1_3 1_555 1_555
I4_3 Cu1_3 1_555 1_555
O20_2 C2_3 1_555 1_555
O21_2 C2_3 1_555 1_555
N3_3 Cu2_3 1_555 1_555
N4_3 Cu4_3 1_555 1_555
N5_3 Cu1_3 1_555 1_555
C2_3 C99_3 1_555 1_555
C11_3 C18_3 1_555 1_555
C15_3 N5_3 1_555 1_555
H7_3 C15_3 1_555 1_555
C17_3 H9_3 1_555 1_555
C18_3 H10_3 1_555 1_555
C19_3 C15_3 1_555 1_555
H11_3 C19_3 1_555 1_555
C20_3 N3_3 1_555 1_555
H12_3 C20_3 1_555 1_555
C24_3 H14_3 1_555 1_555
C26_3 C17_3 1_555 1_555
C34_3 H22_3 1_555 1_555
C37_3 C34_3 1_555 1_555
H25_3 C37_3 1_555 1_555
C43_3 N3_3 1_555 1_555
H29_3 C43_3 1_555 1_555
C49_3 C37_3 1_555 1_555
C50_3 N5_3 1_555 1_555
H34_3 C50_3 1_555 1_555
C51_3 N4_3 1_555 1_555
H35_3 C51_3 1_555 1_555
C52_3 C11_3 1_555 1_555
H36_3 C52_3 1_555 1_555
C54_3 C52_3 1_555 1_555
H38_3 C54_3 1_555 1_555
C59_3 C49_3 1_555 1_555
H43_3 C59_3 1_555 1_555
C62_3 N4_3 1_555 1_555
H45_3 C62_3 1_555 1_555
C73_3 C11_3 1_555 1_555
H55_3 C73_3 1_555 1_555
C76_3 C49_3 1_555 1_555
H57_3 C76_3 1_555 1_555
H59_3 C78_3 1_555 1_555
C79_3 C17_3 1_555 1_555
H60_3 C79_3 1_555 1_555
C89_3 C34_3 1_555 1_555
C90_3 C89_3 1_555 1_555
H65_3 C90_3 1_555 1_555
C95_3 C54_3 1_555 1_555
C96_3 C95_3 1_555 1_555
H69_3 C96_3 1_555 1_555
C97_3 C95_3 1_555 1_555
H70_3 C97_3 1_555 1_555
C98_3 C96_3 1_555 1_555
H71_3 C98_3 1_555 1_555
C99_3 C98_3 1_555 1_555
C100_3 C97_3 1_555 1_555
H72_3 C100_3 1_555 1_555
N9_2 Cu3_2 1_555 1_555
Cu2_3 Cu4_3 1_555 1_555
Cu2_3 I3_3 1_555 1_555
Cu2_3 I4_3 1_555 1_555
Cu3_2 Cu4_3 1_555 1_555
Cu3_2 I1_3 1_555 1_555
Cu3_2 I2_3 1_555 1_555
Cu3_2 I4_3 1_555 1_555
Cu4_3 I1_3 1_555 1_555
Cu4_3 I2_3 1_555 1_555
Cu4_3 I3_3 1_555 1_555
C18_3 C43_3 1_555 1_555
C19_3 C26_3 1_555 1_555
C20_3 C73_3 1_555 1_555
C24_3 C26_3 1_555 1_555
C24_3 C50_3 1_555 1_555
C51_3 C59_3 1_555 1_555
C62_3 C76_3 1_555 1_555
C78_3 C80_3 1_555 1_555
C79_3 C80_3 1_555 1_555
C99_3 C100_3 1_555 1_555
H76_3 C105_3 1_555 1_555
Cu9_2 N8_2 1_555 1_555
N8_2 C105_3 1_555 1_555
O22_2 C111_4 1_555 1_555
N7_4 Cu13 1_555 1_555
C5_4 C1_4 1_555 1_555
C61_4 C35_4 1_555 1_555
C64_4 C61_4 1_555 1_555
H47_4 C64_4 1_555 1_555
C66_4 C38_4 1_555 1_555
H49_4 C66_4 1_555 1_555
C67_4 C38_4 1_555 1_555
C68_4 N7_4 1_555 1_555
H51_4 C68_4 1_555 1_555
C69_4 C5_4 1_555 1_555
C70_4 C61_4 1_555 1_555
H53_4 C70_4 1_555 1_555
H58_4 C77_4 1_555 1_555
C106_4 C77_4 1_555 1_555
C107_4 C106_4 1_555 1_555
H77_4 C107_4 1_555 1_555
C111_4 C110_4 1_555 1_555
C112_4 C107_4 1_555 1_555
H80_4 C112_4 1_555 1_555
C64_4 C67_4 1_555 1_555
C66_4 C69_4 1_555 1_555
C68_4 C70_4 1_555 1_555
C110_4 C112_4 1_555 1_555
Cu1_4 Cu2_4 1_555 1_555
Cu2_4 Cu9_2 1_555 1_555
Cu9_2 Cu1_4 1_555 1_555
Cu4_4 Cu1_4 1_555 1_555
Cu17 O1_4 1_555 1_555
I1_4 Cu1_4 1_555 1_555
I2_4 Cu2_4 1_555 1_555
I3_4 Cu1_4 1_555 1_555
I4_4 Cu1_4 1_555 1_555
O1_4 C6_4 1_555 1_555
O17 C3_4 1_555 1_555
O18 C3_4 1_555 1_555
O8_4 Cu11 1_555 1_555
O23 C85_4 1_555 1_555
O24 C85_4 1_555 1_555
N1_4 Cu11 1_555 1_555
N3_4 Cu2_4 1_555 1_555
N4_4 Cu4_4 1_555 1_555
N5_4 Cu1_4 1_555 1_555
N6_4 Cu17 1_555 1_555
C3_4 C92_4 1_555 1_555
C6_4 O2_4 1_555 1_555
C12_4 N1_4 1_555 1_555
C15_4 N5_4 1_555 1_555
H7_4 C15_4 1_555 1_555
C17_4 H9_4 1_555 1_555
C18_4 H10_4 1_555 1_555
C19_4 C15_4 1_555 1_555
H11_4 C19_4 1_555 1_555
C22_4 N6_4 1_555 1_555
H13_4 C22_4 1_555 1_555
C23_4 C33_4 1_555 1_555
C24_4 H14_4 1_555 1_555
C25_4 H15_4 1_555 1_555
C26_4 C17_4 1_555 1_555
C27_4 N1_4 1_555 1_555
H16_4 C27_4 1_555 1_555
C28_4 C22_4 1_555 1_555
H17_4 C28_4 1_555 1_555
C29_4 C6_4 1_555 1_555
C30_4 C29_4 1_555 1_555
H18_4 C30_4 1_555 1_555
C32_4 N6_4 1_555 1_555
C33_4 C12_4 1_555 1_555
H21_4 C33_4 1_555 1_555
C34_4 H22_4 1_555 1_555
H24_4 C36_4 1_555 1_555
C37_4 C34_4 1_555 1_555
H25_4 C37_4 1_555 1_555
C40_4 C25_4 1_555 1_555
H27_4 C40_4 1_555 1_555
C43_4 N3_4 1_555 1_555
H29_4 C43_4 1_555 1_555
H30_4 C44_4 1_555 1_555
C48_4 C44_4 1_555 1_555
H33_4 C48_4 1_555 1_555
C49_4 C37_4 1_555 1_555
C50_4 N5_4 1_555 1_555
H34_4 C50_4 1_555 1_555
C51_4 N4_4 1_555 1_555
H35_4 C51_4 1_555 1_555
C55_4 C32_4 1_555 1_555
C56_4 C23_4 1_555 1_555
H40_4 C56_4 1_555 1_555
C58_4 H42_4 1_555 1_555
C59_4 C49_4 1_555 1_555
H43_4 C59_4 1_555 1_555
C62_4 N4_4 1_555 1_555
H45_4 C62_4 1_555 1_555
C63_4 C23_4 1_555 1_555
H46_4 C63_4 1_555 1_555
C65_4 C56_4 1_555 1_555
H48_4 C65_4 1_555 1_555
C74_4 C28_4 1_555 1_555
C76_4 C49_4 1_555 1_555
H57_4 C76_4 1_555 1_555
C78_4 C30_4 1_555 1_555
H59_4 C78_4 1_555 1_555
C79_4 C17_4 1_555 1_555
H60_4 C79_4 1_555 1_555
C80_4 C25_4 1_555 1_555
C81_4 C65_4 1_555 1_555
C82_4 C81_4 1_555 1_555
H61_4 C82_4 1_555 1_555
C83_4 C82_4 1_555 1_555
H62_4 C83_4 1_555 1_555
C84_4 C83_4 1_555 1_555
C85_4 C84_4 1_555 1_555
C86_4 C81_4 1_555 1_555
H63_4 C86_4 1_555 1_555
C87_4 C84_4 1_555 1_555
H64_4 C87_4 1_555 1_555
C89_4 C34_4 1_555 1_555
C90_4 C89_4 1_555 1_555
H65_4 C90_4 1_555 1_555
C91_4 C90_4 1_555 1_555
H66_4 C91_4 1_555 1_555
C92_4 C91_4 1_555 1_555
C93_4 C92_4 1_555 1_555
H67_4 C93_4 1_555 1_555
C94_4 C89_4 1_555 1_555
H68_4 C94_4 1_555 1_555
H78_4 C108_4 1_555 1_555
C109_4 C108_4 1_555 1_555
H79_4 C109_4 1_555 1_555
Cu2_4 Cu4_4 1_555 1_555
Cu2_4 I3_4 1_555 1_555
Cu2_4 I4_4 1_555 1_555
Cu9_2 Cu4_4 1_555 1_555
Cu9_2 I1_4 1_555 1_555
Cu9_2 I2_4 1_555 1_555
Cu9_2 I4_4 1_555 1_555
Cu4_4 I1_4 1_555 1_555
Cu4_4 I2_4 1_555 1_555
Cu4_4 I3_4 1_555 1_555
C18_4 C43_4 1_555 1_555
C19_4 C26_4 1_555 1_555
C24_4 C26_4 1_555 1_555
C24_4 C50_4 1_555 1_555
C27_4 C63_4 1_555 1_555
C29_4 C40_4 1_555 1_555
C51_4 C59_4 1_555 1_555
C55_4 C74_4 1_555 1_555
C58_4 C74_4 1_555 1_555
C62_4 C76_4 1_555 1_555
C78_4 C80_4 1_555 1_555
C79_4 C80_4 1_555 1_555
C86_4 C87_4 1_555 1_555
C93_4 C94_4 1_555 1_555
Cu15 O6_4 1_555 1_555
O7_4 Cu15 1_555 1_555
O25_2 C9_4 1_555 1_555
O26_2 C9_4 1_555 1_555
N2_4 Cu15 1_555 1_555
C8_4 H2_4 1_555 1_555
C9_4 C21_4 1_555 1_555
C10_4 H3_4 1_555 1_555
C13_4 C8_4 1_555 1_555
H5_4 C13_4 1_555 1_555
C14_4 C10_4 1_555 1_555
H6_4 C14_4 1_555 1_555
C21_4 C13_4 1_555 1_555
C31_4 H19_4 1_555 1_555
C41_4 N2_4 1_555 1_555
H28_4 C41_4 1_555 1_555
C42_4 C31_4 1_555 1_555
C46_4 C8_4 1_555 1_555
C47_4 C42_4 1_555 1_555
H32_4 C47_4 1_555 1_555
C53_4 C42_4 1_555 1_555
H37_4 C53_4 1_555 1_555
C57_4 C46_4 1_555 1_555
H41_4 C57_4 1_555 1_555
C75_4 N2_4 1_555 1_555
H56_4 C75_4 1_555 1_555
C10_4 C46_4 1_555 1_555
C14_4 C21_4 1_555 1_555
C31_4 C41_4 1_555 1_555
C47_4 C57_4 1_555 1_555
C53_4 C75_4 1_555 1_555
C4_4 H1_4 1_555 1_555
C7_4 C16_4 1_555 1_555
C16_4 H8_4 1_555 1_555
C39_4 C4_4 1_555 1_555
H26_4 C39_4 1_555 1_555
C45_4 H31_4 1_555 1_555
C60_4 C7_4 1_555 1_555
H44_4 C60_4 1_555 1_555
C71_4 C39_4 1_555 1_555
C72_4 C16_4 1_555 1_555
H54_4 C72_4 1_555 1_555
C88_4 O5_4 1_555 1_555
C101_4 C4_4 1_555 1_555
C102_4 C101_4 1_555 1_555
H73_4 C102_4 1_555 1_555
C103_4 C101_4 1_555 1_555
H74_4 C103_4 1_555 1_555
C104_4 C102_4 1_555 1_555
H75_4 C104_4 1_555 1_555
N9_2 C104_4 1_555 1_555
C105_4 C103_4 1_555 1_555
H76_4 C105_4 1_555 1_555
C7_4 C88_4 1_555 1_555
C45_4 C60_4 1_555 1_555
C45_4 C71_4 1_555 1_555
C71_4 C72_4 1_555 1_555
N9_2 C105_4 1_555 1_555
O20 C2_4 1_555 1_555
O21 C2_4 1_555 1_555
C2_4 C99_4 1_555 1_555
H12_4 C20_4 1_555 1_555
C52_4 C11_4 1_555 1_555
H36_4 C52_4 1_555 1_555
C54_4 C52_4 1_555 1_555
H38_4 C54_4 1_555 1_555
C73_4 C11_4 1_555 1_555
H55_4 C73_4 1_555 1_555
C95_4 C54_4 1_555 1_555
C96_4 C95_4 1_555 1_555
H69_4 C96_4 1_555 1_555
C97_4 C95_4 1_555 1_555
H70_4 C97_4 1_555 1_555
C98_4 C96_4 1_555 1_555
H71_4 C98_4 1_555 1_555
C99_4 C98_4 1_555 1_555
C100_4 C97_4 1_555 1_555
H72_4 C100_4 1_555 1_555
C20_4 C73_4 1_555 1_555
C99_4 C100_4 1_555 1_555
O1_5 C6_5 1_555 1_555
O3_3 C3_5 1_555 1_555
O4_3 C3_5 1_555 1_555
O5_5 Cu5_2 1_555 1_555
O8_5 Cu5_2 1_555 1_555
O13_3 C85_5 1_555 1_555
O14_3 C85_5 1_555 1_555
N1_5 Cu5_2 1_555 1_555
C3_5 C92_5 1_555 1_555
C4_5 H1_5 1_555 1_555
C6_5 O2_5 1_555 1_555
C7_5 C16_5 1_555 1_555
C12_5 N1_5 1_555 1_555
H4_5 C12_5 1_555 1_555
C16_5 H8_5 1_555 1_555
C23_5 C33_5 1_555 1_555
C25_5 H15_5 1_555 1_555
C27_5 N1_5 1_555 1_555
H16_5 C27_5 1_555 1_555
C29_5 C6_5 1_555 1_555
C30_5 C29_5 1_555 1_555
H18_5 C30_5 1_555 1_555
C33_5 C12_5 1_555 1_555
H21_5 C33_5 1_555 1_555
H24_5 C36_5 1_555 1_555
C39_5 C4_5 1_555 1_555
H26_5 C39_5 1_555 1_555
C40_5 C25_5 1_555 1_555
H27_5 C40_5 1_555 1_555
H30_5 C44_5 1_555 1_555
C45_5 H31_5 1_555 1_555
C48_5 C44_5 1_555 1_555
H33_5 C48_5 1_555 1_555
C56_5 C23_5 1_555 1_555
H40_5 C56_5 1_555 1_555
C60_5 C7_5 1_555 1_555
H44_5 C60_5 1_555 1_555
C63_5 C23_5 1_555 1_555
H46_5 C63_5 1_555 1_555
C65_5 C56_5 1_555 1_555
H48_5 C65_5 1_555 1_555
C71_5 C39_5 1_555 1_555
C72_5 C16_5 1_555 1_555
H54_5 C72_5 1_555 1_555
C81_5 C65_5 1_555 1_555
C82_5 C81_5 1_555 1_555
H61_5 C82_5 1_555 1_555
C83_5 C82_5 1_555 1_555
H62_5 C83_5 1_555 1_555
C84_5 C83_5 1_555 1_555
C85_5 C84_5 1_555 1_555
C86_5 C81_5 1_555 1_555
H63_5 C86_5 1_555 1_555
C87_5 C84_5 1_555 1_555
H64_5 C87_5 1_555 1_555
C88_5 O5_5 1_555 1_555
H66_5 C91_5 1_555 1_555
C92_5 C91_5 1_555 1_555
C93_5 C92_5 1_555 1_555
H67_5 C93_5 1_555 1_555
H68_5 C94_5 1_555 1_555
C101_5 C4_5 1_555 1_555
C102_5 C101_5 1_555 1_555
H73_5 C102_5 1_555 1_555
C103_5 C101_5 1_555 1_555
H74_5 C103_5 1_555 1_555
C104_5 C102_5 1_555 1_555
H75_5 C104_5 1_555 1_555
Cu13_2 O4_3 1_555 1_555
Cu17_2 O3_3 1_555 1_555
O19_3 Cu5_2 1_555 1_555
O13_3 Cu13_2 1_555 1_555
O14_3 Cu17_2 1_555 1_555
C7_5 C88_5 1_555 1_555
C27_5 C63_5 1_555 1_555
C29_5 C40_5 1_555 1_555
C45_5 C60_5 1_555 1_555
C45_5 C71_5 1_555 1_555
C71_5 C72_5 1_555 1_555
C86_5 C87_5 1_555 1_555
C93_5 C94_5 1_555 1_555
Cu13_2 Cu17_2 1_555 1_555
Cu7_2 O6_5 1_555 1_555
O7_5 Cu7_2 1_555 1_555
O15_3 C9_5 1_555 1_555
O16_3 C9_5 1_555 1_555
N2_5 Cu7_2 1_555 1_555
N7_5 Cu6_3 1_555 1_555
C1_5 O7_5 1_555 1_555
C5_5 C1_5 1_555 1_555
C8_5 H2_5 1_555 1_555
C9_5 C21_5 1_555 1_555
C10_5 H3_5 1_555 1_555
C13_5 C8_5 1_555 1_555
H5_5 C13_5 1_555 1_555
C14_5 C10_5 1_555 1_555
H6_5 C14_5 1_555 1_555
C21_5 C13_5 1_555 1_555
C31_5 H19_5 1_555 1_555
C41_5 N2_5 1_555 1_555
H28_5 C41_5 1_555 1_555
C42_5 C31_5 1_555 1_555
C46_5 C8_5 1_555 1_555
C47_5 C42_5 1_555 1_555
H32_5 C47_5 1_555 1_555
C53_5 C42_5 1_555 1_555
H37_5 C53_5 1_555 1_555
C57_5 C46_5 1_555 1_555
H41_5 C57_5 1_555 1_555
C61_5 C35_5 1_555 1_555
C64_5 C61_5 1_555 1_555
H47_5 C64_5 1_555 1_555
C66_5 C38_5 1_555 1_555
H49_5 C66_5 1_555 1_555
C67_5 C38_5 1_555 1_555
C68_5 N7_5 1_555 1_555
H51_5 C68_5 1_555 1_555
C69_5 C5_5 1_555 1_555
H52_5 C69_5 1_555 1_555
C70_5 C61_5 1_555 1_555
H53_5 C70_5 1_555 1_555
C75_5 N2_5 1_555 1_555
H56_5 C75_5 1_555 1_555
Cu12_2 O16_3 1_555 1_555
O20_3 Cu7_2 1_555 1_555
O22_3 Cu7_2 1_555 1_555
C10_5 C46_5 1_555 1_555
C14_5 C21_5 1_555 1_555
C31_5 C41_5 1_555 1_555
C47_5 C57_5 1_555 1_555
C53_5 C75_5 1_555 1_555
C64_5 C67_5 1_555 1_555
C66_5 C69_5 1_555 1_555
C68_5 C70_5 1_555 1_555
N6_5 Cu8_3 1_555 1_555
C22_5 N6_5 1_555 1_555
H13_5 C22_5 1_555 1_555
C28_5 C22_5 1_555 1_555
H17_5 C28_5 1_555 1_555
C32_5 N6_5 1_555 1_555
C55_5 C32_5 1_555 1_555
C58_5 H42_5 1_555 1_555
C74_5 C28_5 1_555 1_555
H78_5 C108_5 1_555 1_555
C109_5 C108_5 1_555 1_555
H79_5 C109_5 1_555 1_555
C55_5 C74_5 1_555 1_555
C58_5 C74_5 1_555 1_555
O12_3 C111_5 1_555 1_555
H58_5 C77_5 1_555 1_555
C106_5 C77_5 1_555 1_555
C107_5 C106_5 1_555 1_555
H77_5 C107_5 1_555 1_555
C111_5 C110_5 1_555 1_555
C112_5 C107_5 1_555 1_555
H80_5 C112_5 1_555 1_555
Cu14_2 O12_3 1_555 1_555
C110_5 C112_5 1_555 1_555
H76_5 C105_5 1_555 1_555
Cu9_3 N8_3 1_555 1_555
N8_3 C105_5 1_555 1_555
Cu1_5 Cu2_5 1_555 1_555
Cu2_5 Cu3_3 1_555 1_555
Cu3_3 Cu1_5 1_555 1_555
Cu4_5 Cu1_5 1_555 1_555
I1_5 Cu1_5 1_555 1_555
I2_5 Cu2_5 1_555 1_555
I3_5 Cu1_5 1_555 1_555
I4_5 Cu1_5 1_555 1_555
O10_3 C2_5 1_555 1_555
O11_3 C2_5 1_555 1_555
N3_5 Cu2_5 1_555 1_555
N4_5 Cu4_5 1_555 1_555
N5_5 Cu1_5 1_555 1_555
C2_5 C99_5 1_555 1_555
C11_5 C18_5 1_555 1_555
C15_5 N5_5 1_555 1_555
H7_5 C15_5 1_555 1_555
C17_5 H9_5 1_555 1_555
C18_5 H10_5 1_555 1_555
C19_5 C15_5 1_555 1_555
H11_5 C19_5 1_555 1_555
C20_5 N3_5 1_555 1_555
H12_5 C20_5 1_555 1_555
C24_5 H14_5 1_555 1_555
C26_5 C17_5 1_555 1_555
C34_5 H22_5 1_555 1_555
C37_5 C34_5 1_555 1_555
H25_5 C37_5 1_555 1_555
C43_5 N3_5 1_555 1_555
H29_5 C43_5 1_555 1_555
C49_5 C37_5 1_555 1_555
C50_5 N5_5 1_555 1_555
H34_5 C50_5 1_555 1_555
C51_5 N4_5 1_555 1_555
H35_5 C51_5 1_555 1_555
C52_5 C11_5 1_555 1_555
H36_5 C52_5 1_555 1_555
C54_5 C52_5 1_555 1_555
H38_5 C54_5 1_555 1_555
C59_5 C49_5 1_555 1_555
H43_5 C59_5 1_555 1_555
C62_5 N4_5 1_555 1_555
H45_5 C62_5 1_555 1_555
C73_5 C11_5 1_555 1_555
H55_5 C73_5 1_555 1_555
C76_5 C49_5 1_555 1_555
H57_5 C76_5 1_555 1_555
H59_5 C78_5 1_555 1_555
C79_5 C17_5 1_555 1_555
H60_5 C79_5 1_555 1_555
C89_5 C34_5 1_555 1_555
C90_5 C89_5 1_555 1_555
H65_5 C90_5 1_555 1_555
C95_5 C54_5 1_555 1_555
C96_5 C95_5 1_555 1_555
H69_5 C96_5 1_555 1_555
C97_5 C95_5 1_555 1_555
H70_5 C97_5 1_555 1_555
C98_5 C96_5 1_555 1_555
H71_5 C98_5 1_555 1_555
C99_5 C98_5 1_555 1_555
C100_5 C97_5 1_555 1_555
H72_5 C100_5 1_555 1_555
Cu11_3 O11_3 1_555 1_555
N9_3 Cu3_3 1_555 1_555
Cu2_5 Cu4_5 1_555 1_555
Cu2_5 I3_5 1_555 1_555
Cu2_5 I4_5 1_555 1_555
Cu3_3 Cu4_5 1_555 1_555
Cu3_3 I1_5 1_555 1_555
Cu3_3 I2_5 1_555 1_555
Cu3_3 I4_5 1_555 1_555
Cu4_5 I1_5 1_555 1_555
Cu4_5 I2_5 1_555 1_555
Cu4_5 I3_5 1_555 1_555
C18_5 C43_5 1_555 1_555
C19_5 C26_5 1_555 1_555
C20_5 C73_5 1_555 1_555
C24_5 C26_5 1_555 1_555
C24_5 C50_5 1_555 1_555
C51_5 C59_5 1_555 1_555
C62_5 C76_5 1_555 1_555
C78_5 C80_5 1_555 1_555
C79_5 C80_5 1_555 1_555
C99_5 C100_5 1_555 1_555
C4_6 H1_6 1_555 1_555
C7_6 C16_6 1_555 1_555
C16_6 H8_6 1_555 1_555
C39_6 C4_6 1_555 1_555
H26_6 C39_6 1_555 1_555
C45_6 H31_6 1_555 1_555
C60_6 C7_6 1_555 1_555
H44_6 C60_6 1_555 1_555
C71_6 C39_6 1_555 1_555
C72_6 C16_6 1_555 1_555
H54_6 C72_6 1_555 1_555
C88_6 O5_6 1_555 1_555
C101_6 C4_6 1_555 1_555
C102_6 C101_6 1_555 1_555
H73_6 C102_6 1_555 1_555
C103_6 C101_6 1_555 1_555
H74_6 C103_6 1_555 1_555
C104_6 C102_6 1_555 1_555
H75_6 C104_6 1_555 1_555
N9_3 C104_6 1_555 1_555
C105_6 C103_6 1_555 1_555
H76_6 C105_6 1_555 1_555
C7_6 C88_6 1_555 1_555
C45_6 C60_6 1_555 1_555
C45_6 C71_6 1_555 1_555
C71_6 C72_6 1_555 1_555
N9_3 C105_6 1_555 1_555
Cu14_2 O6_6 1_555 1_555
O7_6 Cu14_2 1_555 1_555
O15_4 C9_6 1_555 1_555
O16_4 C9_6 1_555 1_555
N2_6 Cu14_2 1_555 1_555
C8_6 H2_6 1_555 1_555
C9_6 C21_6 1_555 1_555
C10_6 H3_6 1_555 1_555
C13_6 C8_6 1_555 1_555
H5_6 C13_6 1_555 1_555
C14_6 C10_6 1_555 1_555
H6_6 C14_6 1_555 1_555
C21_6 C13_6 1_555 1_555
C31_6 H19_6 1_555 1_555
C41_6 N2_6 1_555 1_555
H28_6 C41_6 1_555 1_555
C42_6 C31_6 1_555 1_555
C46_6 C8_6 1_555 1_555
C47_6 C42_6 1_555 1_555
H32_6 C47_6 1_555 1_555
C53_6 C42_6 1_555 1_555
H37_6 C53_6 1_555 1_555
C57_6 C46_6 1_555 1_555
H41_6 C57_6 1_555 1_555
C75_6 N2_6 1_555 1_555
H56_6 C75_6 1_555 1_555
Cu13_2 O16_4 1_555 1_555
Cu17_2 O15_4 1_555 1_555
C10_6 C46_6 1_555 1_555
C14_6 C21_6 1_555 1_555
C31_6 C41_6 1_555 1_555
C47_6 C57_6 1_555 1_555
C53_6 C75_6 1_555 1_555
Cu1_6 Cu2_6 1_555 1_555
Cu2_6 Cu9_3 1_555 1_555
Cu9_3 Cu1_6 1_555 1_555
Cu4_6 Cu1_6 1_555 1_555
Cu8_4 O1_6 1_555 1_555
I1_6 Cu1_6 1_555 1_555
I2_6 Cu2_6 1_555 1_555
I3_6 Cu1_6 1_555 1_555
I4_6 Cu1_6 1_555 1_555
O1_6 C6_6 1_555 1_555
O3_4 C3_6 1_555 1_555
O4_4 C3_6 1_555 1_555
O8_6 Cu10_2 1_555 1_555
O13_4 C85_6 1_555 1_555
O14_4 C85_6 1_555 1_555
N1_6 Cu10_2 1_555 1_555
N3_6 Cu2_6 1_555 1_555
N4_6 Cu4_6 1_555 1_555
N5_6 Cu1_6 1_555 1_555
N6_6 Cu8_4 1_555 1_555
C3_6 C92_6 1_555 1_555
C6_6 O2_6 1_555 1_555
C12_6 N1_6 1_555 1_555
C15_6 N5_6 1_555 1_555
H7_6 C15_6 1_555 1_555
C17_6 H9_6 1_555 1_555
C18_6 H10_6 1_555 1_555
C19_6 C15_6 1_555 1_555
H11_6 C19_6 1_555 1_555
C22_6 N6_6 1_555 1_555
H13_6 C22_6 1_555 1_555
C23_6 C33_6 1_555 1_555
C24_6 H14_6 1_555 1_555
C25_6 H15_6 1_555 1_555
C26_6 C17_6 1_555 1_555
C27_6 N1_6 1_555 1_555
H16_6 C27_6 1_555 1_555
C28_6 C22_6 1_555 1_555
H17_6 C28_6 1_555 1_555
C29_6 C6_6 1_555 1_555
C30_6 C29_6 1_555 1_555
H18_6 C30_6 1_555 1_555
C32_6 N6_6 1_555 1_555
C33_6 C12_6 1_555 1_555
H21_6 C33_6 1_555 1_555
C34_6 H22_6 1_555 1_555
H24_6 C36_6 1_555 1_555
C37_6 C34_6 1_555 1_555
H25_6 C37_6 1_555 1_555
C40_6 C25_6 1_555 1_555
H27_6 C40_6 1_555 1_555
C43_6 N3_6 1_555 1_555
H29_6 C43_6 1_555 1_555
H30_6 C44_6 1_555 1_555
C48_6 C44_6 1_555 1_555
H33_6 C48_6 1_555 1_555
C49_6 C37_6 1_555 1_555
C50_6 N5_6 1_555 1_555
H34_6 C50_6 1_555 1_555
C51_6 N4_6 1_555 1_555
H35_6 C51_6 1_555 1_555
C55_6 C32_6 1_555 1_555
C56_6 C23_6 1_555 1_555
H40_6 C56_6 1_555 1_555
C58_6 H42_6 1_555 1_555
C59_6 C49_6 1_555 1_555
H43_6 C59_6 1_555 1_555
C62_6 N4_6 1_555 1_555
H45_6 C62_6 1_555 1_555
C63_6 C23_6 1_555 1_555
H46_6 C63_6 1_555 1_555
C65_6 C56_6 1_555 1_555
H48_6 C65_6 1_555 1_555
C74_6 C28_6 1_555 1_555
C76_6 C49_6 1_555 1_555
H57_6 C76_6 1_555 1_555
C78_6 C30_6 1_555 1_555
H59_6 C78_6 1_555 1_555
C79_6 C17_6 1_555 1_555
H60_6 C79_6 1_555 1_555
C80_6 C25_6 1_555 1_555
C81_6 C65_6 1_555 1_555
C82_6 C81_6 1_555 1_555
H61_6 C82_6 1_555 1_555
C83_6 C82_6 1_555 1_555
H62_6 C83_6 1_555 1_555
C84_6 C83_6 1_555 1_555
C85_6 C84_6 1_555 1_555
C86_6 C81_6 1_555 1_555
H63_6 C86_6 1_555 1_555
C87_6 C84_6 1_555 1_555
H64_6 C87_6 1_555 1_555
C89_6 C34_6 1_555 1_555
C90_6 C89_6 1_555 1_555
H65_6 C90_6 1_555 1_555
C91_6 C90_6 1_555 1_555
H66_6 C91_6 1_555 1_555
C92_6 C91_6 1_555 1_555
C93_6 C92_6 1_555 1_555
H67_6 C93_6 1_555 1_555
C94_6 C89_6 1_555 1_555
H68_6 C94_6 1_555 1_555
H78_6 C108_6 1_555 1_555
C109_6 C108_6 1_555 1_555
H79_6 C109_6 1_555 1_555
Cu16_2 O3_4 1_555 1_555
O25_4 Cu8_4 1_555 1_555
Cu2_6 Cu4_6 1_555 1_555
Cu2_6 I3_6 1_555 1_555
Cu2_6 I4_6 1_555 1_555
Cu9_3 Cu4_6 1_555 1_555
Cu9_3 I1_6 1_555 1_555
Cu9_3 I2_6 1_555 1_555
Cu9_3 I4_6 1_555 1_555
Cu4_6 I1_6 1_555 1_555
Cu4_6 I2_6 1_555 1_555
Cu4_6 I3_6 1_555 1_555
O14_4 Cu16_2 1_555 1_555
C18_6 C43_6 1_555 1_555
C19_6 C26_6 1_555 1_555
C24_6 C26_6 1_555 1_555
C24_6 C50_6 1_555 1_555
C27_6 C63_6 1_555 1_555
C29_6 C40_6 1_555 1_555
C51_6 C59_6 1_555 1_555
C55_6 C74_6 1_555 1_555
C58_6 C74_6 1_555 1_555
C62_6 C76_6 1_555 1_555
C78_6 C80_6 1_555 1_555
C79_6 C80_6 1_555 1_555
C86_6 C87_6 1_555 1_555
C93_6 C94_6 1_555 1_555
O22_3 C111_6 1_555 1_555
N7_6 Cu6_4 1_555 1_555
C5_6 C1_6 1_555 1_555
C61_6 C35_6 1_555 1_555
C64_6 C61_6 1_555 1_555
H47_6 C64_6 1_555 1_555
C66_6 C38_6 1_555 1_555
H49_6 C66_6 1_555 1_555
C67_6 C38_6 1_555 1_555
C68_6 N7_6 1_555 1_555
H51_6 C68_6 1_555 1_555
C69_6 C5_6 1_555 1_555
C70_6 C61_6 1_555 1_555
H53_6 C70_6 1_555 1_555
H58_6 C77_6 1_555 1_555
C106_6 C77_6 1_555 1_555
C107_6 C106_6 1_555 1_555
H77_6 C107_6 1_555 1_555
C111_6 C110_6 1_555 1_555
C112_6 C107_6 1_555 1_555
H80_6 C112_6 1_555 1_555
O18_4 Cu6_4 1_555 1_555
O23_4 Cu6_4 1_555 1_555
C64_6 C67_6 1_555 1_555
C66_6 C69_6 1_555 1_555
C68_6 C70_6 1_555 1_555
C110_6 C112_6 1_555 1_555
O10_4 C2_6 1_555 1_555
O11_4 C2_6 1_555 1_555
C2_6 C99_6 1_555 1_555
H12_6 C20_6 1_555 1_555
C52_6 C11_6 1_555 1_555
H36_6 C52_6 1_555 1_555
C54_6 C52_6 1_555 1_555
H38_6 C54_6 1_555 1_555
C73_6 C11_6 1_555 1_555
H55_6 C73_6 1_555 1_555
C95_6 C54_6 1_555 1_555
C96_6 C95_6 1_555 1_555
H69_6 C96_6 1_555 1_555
C97_6 C95_6 1_555 1_555
H70_6 C97_6 1_555 1_555
C98_6 C96_6 1_555 1_555
H71_6 C98_6 1_555 1_555
C99_6 C98_6 1_555 1_555
C100_6 C97_6 1_555 1_555
H72_6 C100_6 1_555 1_555
Cu11_4 O11_4 1_555 1_555
Cu15_4 O10_4 1_555 1_555
C20_6 C73_6 1_555 1_555
C99_6 C100_6 1_555 1_555
Cu11_4 Cu15_4 1_555 1_555
Cu1_7 Cu2_7 1_555 1_555
Cu2_7 Cu3_4 1_555 1_555
Cu3_4 Cu1_7 1_555 1_555
Cu4_7 Cu1_7 1_555 1_555
I1_7 Cu1_7 1_555 1_555
I2_7 Cu2_7 1_555 1_555
I3_7 Cu1_7 1_555 1_555
I4_7 Cu1_7 1_555 1_555
O20_4 C2_7 1_555 1_555
O21_4 C2_7 1_555 1_555
N3_7 Cu2_7 1_555 1_555
N4_7 Cu4_7 1_555 1_555
N5_7 Cu1_7 1_555 1_555
C2_7 C99_7 1_555 1_555
C11_7 C18_7 1_555 1_555
C15_7 N5_7 1_555 1_555
H7_7 C15_7 1_555 1_555
C17_7 H9_7 1_555 1_555
C18_7 H10_7 1_555 1_555
C19_7 C15_7 1_555 1_555
H11_7 C19_7 1_555 1_555
C20_7 N3_7 1_555 1_555
H12_7 C20_7 1_555 1_555
C24_7 H14_7 1_555 1_555
C26_7 C17_7 1_555 1_555
C34_7 H22_7 1_555 1_555
C37_7 C34_7 1_555 1_555
H25_7 C37_7 1_555 1_555
C43_7 N3_7 1_555 1_555
H29_7 C43_7 1_555 1_555
C49_7 C37_7 1_555 1_555
C50_7 N5_7 1_555 1_555
H34_7 C50_7 1_555 1_555
C51_7 N4_7 1_555 1_555
H35_7 C51_7 1_555 1_555
C52_7 C11_7 1_555 1_555
H36_7 C52_7 1_555 1_555
C54_7 C52_7 1_555 1_555
H38_7 C54_7 1_555 1_555
C59_7 C49_7 1_555 1_555
H43_7 C59_7 1_555 1_555
C62_7 N4_7 1_555 1_555
H45_7 C62_7 1_555 1_555
C73_7 C11_7 1_555 1_555
H55_7 C73_7 1_555 1_555
C76_7 C49_7 1_555 1_555
H57_7 C76_7 1_555 1_555
H59_7 C78_7 1_555 1_555
C79_7 C17_7 1_555 1_555
H60_7 C79_7 1_555 1_555
C89_7 C34_7 1_555 1_555
C90_7 C89_7 1_555 1_555
H65_7 C90_7 1_555 1_555
C95_7 C54_7 1_555 1_555
C96_7 C95_7 1_555 1_555
H69_7 C96_7 1_555 1_555
C97_7 C95_7 1_555 1_555
H70_7 C97_7 1_555 1_555
C98_7 C96_7 1_555 1_555
H71_7 C98_7 1_555 1_555
C99_7 C98_7 1_555 1_555
C100_7 C97_7 1_555 1_555
H72_7 C100_7 1_555 1_555
N9_4 Cu3_4 1_555 1_555
Cu2_7 Cu4_7 1_555 1_555
Cu2_7 I3_7 1_555 1_555
Cu2_7 I4_7 1_555 1_555
Cu3_4 Cu4_7 1_555 1_555
Cu3_4 I1_7 1_555 1_555
Cu3_4 I2_7 1_555 1_555
Cu3_4 I4_7 1_555 1_555
Cu4_7 I1_7 1_555 1_555
Cu4_7 I2_7 1_555 1_555
Cu4_7 I3_7 1_555 1_555
C18_7 C43_7 1_555 1_555
C19_7 C26_7 1_555 1_555
C20_7 C73_7 1_555 1_555
C24_7 C26_7 1_555 1_555
C24_7 C50_7 1_555 1_555
C51_7 C59_7 1_555 1_555
C62_7 C76_7 1_555 1_555
C78_7 C80_7 1_555 1_555
C79_7 C80_7 1_555 1_555
C99_7 C100_7 1_555 1_555
H76_7 C105_7 1_555 1_555
Cu9_4 N8_4 1_555 1_555
N8_4 C105_7 1_555 1_555
Cu15_4 O6_7 1_555 1_555
O1_7 C6_7 1_555 1_555
O2_7 Cu12_2 1_555 1_555
O17_4 C3_7 1_555 1_555
O18_4 C3_7 1_555 1_555
O5_7 Cu11_4 1_555 1_555
O6_7 C88_7 1_555 1_555
O7_7 Cu15_4 1_555 1_555
O8_7 Cu11_4 1_555 1_555
O23_4 C85_7 1_555 1_555
O24_4 C85_7 1_555 1_555
O25_3 C9_7 1_555 1_555
O26_3 C9_7 1_555 1_555
N1_7 Cu11_4 1_555 1_555
N2_7 Cu15_4 1_555 1_555
N7_7 Cu12_2 1_555 1_555
C1_7 O7_7 1_555 1_555
C3_7 C92_7 1_555 1_555
C4_7 H1_7 1_555 1_555
C5_7 C1_7 1_555 1_555
C6_7 O2_7 1_555 1_555
C7_7 C16_7 1_555 1_555
C8_7 H2_7 1_555 1_555
C9_7 C21_7 1_555 1_555
C10_7 H3_7 1_555 1_555
C12_7 N1_7 1_555 1_555
H4_7 C12_7 1_555 1_555
C13_7 C8_7 1_555 1_555
H5_7 C13_7 1_555 1_555
C14_7 C10_7 1_555 1_555
H6_7 C14_7 1_555 1_555
C16_7 H8_7 1_555 1_555
C21_7 C13_7 1_555 1_555
C23_7 C33_7 1_555 1_555
C25_7 H15_7 1_555 1_555
C27_7 N1_7 1_555 1_555
H16_7 C27_7 1_555 1_555
C29_7 C6_7 1_555 1_555
C30_7 C29_7 1_555 1_555
H18_7 C30_7 1_555 1_555
C31_7 H19_7 1_555 1_555
C33_7 C12_7 1_555 1_555
H21_7 C33_7 1_555 1_555
C35_7 H23_7 1_555 1_555
C36_7 N7_7 1_555 1_555
H24_7 C36_7 1_555 1_555
C38_7 C48_7 1_555 1_555
C39_7 C4_7 1_555 1_555
H26_7 C39_7 1_555 1_555
C40_7 C25_7 1_555 1_555
H27_7 C40_7 1_555 1_555
C41_7 N2_7 1_555 1_555
H28_7 C41_7 1_555 1_555
C42_7 C31_7 1_555 1_555
C44_7 C5_7 1_555 1_555
H30_7 C44_7 1_555 1_555
C45_7 H31_7 1_555 1_555
C46_7 C8_7 1_555 1_555
C47_7 C42_7 1_555 1_555
H32_7 C47_7 1_555 1_555
C48_7 C44_7 1_555 1_555
H33_7 C48_7 1_555 1_555
C53_7 C42_7 1_555 1_555
H37_7 C53_7 1_555 1_555
C56_7 C23_7 1_555 1_555
H40_7 C56_7 1_555 1_555
C57_7 C46_7 1_555 1_555
H41_7 C57_7 1_555 1_555
C60_7 C7_7 1_555 1_555
H44_7 C60_7 1_555 1_555
C61_7 C35_7 1_555 1_555
C63_7 C23_7 1_555 1_555
H46_7 C63_7 1_555 1_555
C64_7 C61_7 1_555 1_555
H47_7 C64_7 1_555 1_555
C65_7 C56_7 1_555 1_555
H48_7 C65_7 1_555 1_555
C66_7 C38_7 1_555 1_555
H49_7 C66_7 1_555 1_555
C67_7 C38_7 1_555 1_555
H50_7 C67_7 1_555 1_555
C68_7 N7_7 1_555 1_555
H51_7 C68_7 1_555 1_555
C69_7 C5_7 1_555 1_555
H52_7 C69_7 1_555 1_555
C70_7 C61_7 1_555 1_555
H53_7 C70_7 1_555 1_555
C71_7 C39_7 1_555 1_555
C72_7 C16_7 1_555 1_555
H54_7 C72_7 1_555 1_555
C75_7 N2_7 1_555 1_555
H56_7 C75_7 1_555 1_555
C81_7 C65_7 1_555 1_555
C82_7 C81_7 1_555 1_555
H61_7 C82_7 1_555 1_555
C83_7 C82_7 1_555 1_555
H62_7 C83_7 1_555 1_555
C84_7 C83_7 1_555 1_555
C85_7 C84_7 1_555 1_555
C86_7 C81_7 1_555 1_555
H63_7 C86_7 1_555 1_555
C87_7 C84_7 1_555 1_555
H64_7 C87_7 1_555 1_555
C88_7 O5_7 1_555 1_555
H66_7 C91_7 1_555 1_555
C92_7 C91_7 1_555 1_555
C93_7 C92_7 1_555 1_555
H67_7 C93_7 1_555 1_555
H68_7 C94_7 1_555 1_555
C101_7 C4_7 1_555 1_555
C102_7 C101_7 1_555 1_555
H73_7 C102_7 1_555 1_555
C103_7 C101_7 1_555 1_555
H74_7 C103_7 1_555 1_555
C104_7 C102_7 1_555 1_555
H75_7 C104_7 1_555 1_555
O19_4 Cu11_4 1_555 1_555
O22_4 Cu15_4 1_555 1_555
O8_7 C1_7 1_555 1_555
C7_7 C88_7 1_555 1_555
C10_7 C46_7 1_555 1_555
C14_7 C21_7 1_555 1_555
C27_7 C63_7 1_555 1_555
C29_7 C40_7 1_555 1_555
C31_7 C41_7 1_555 1_555
C35_7 C36_7 1_555 1_555
C45_7 C60_7 1_555 1_555
C45_7 C71_7 1_555 1_555
C47_7 C57_7 1_555 1_555
C53_7 C75_7 1_555 1_555
C64_7 C67_7 1_555 1_555
C66_7 C69_7 1_555 1_555
C68_7 C70_7 1_555 1_555
C71_7 C72_7 1_555 1_555
C86_7 C87_7 1_555 1_555
C93_7 C94_7 1_555 1_555
O9_4 C111_7 1_555 1_555
O12_4 C111_7 1_555 1_555
N6_7 Cu16_2 1_555 1_555
C22_7 N6_7 1_555 1_555
H13_7 C22_7 1_555 1_555
C28_7 C22_7 1_555 1_555
H17_7 C28_7 1_555 1_555
C32_7 N6_7 1_555 1_555
H20_7 C32_7 1_555 1_555
C55_7 C32_7 1_555 1_555
H39_7 C55_7 1_555 1_555
C58_7 H42_7 1_555 1_555
C74_7 C28_7 1_555 1_555
C77_7 C58_7 1_555 1_555
H58_7 C77_7 1_555 1_555
C106_7 C77_7 1_555 1_555
C107_7 C106_7 1_555 1_555
H77_7 C107_7 1_555 1_555
C108_7 C106_7 1_555 1_555
H78_7 C108_7 1_555 1_555
C109_7 C108_7 1_555 1_555
H79_7 C109_7 1_555 1_555
C110_7 C109_7 1_555 1_555
C111_7 C110_7 1_555 1_555
C112_7 C107_7 1_555 1_555
H80_7 C112_7 1_555 1_555
Cu15_3 O12_4 1_555 1_555
C55_7 C74_7 1_555 1_555
C58_7 C74_7 1_555 1_555
C110_7 C112_7 1_555 1_555
O20_3 C2_8 1_555 1_555
O21_3 C2_8 1_555 1_555
C2_8 C99_8 1_555 1_555
H12_8 C20_8 1_555 1_555
C52_8 C11_8 1_555 1_555
H36_8 C52_8 1_555 1_555
C54_8 C52_8 1_555 1_555
H38_8 C54_8 1_555 1_555
C73_8 C11_8 1_555 1_555
H55_8 C73_8 1_555 1_555
C95_8 C54_8 1_555 1_555
C96_8 C95_8 1_555 1_555
H69_8 C96_8 1_555 1_555
C97_8 C95_8 1_555 1_555
H70_8 C97_8 1_555 1_555
C98_8 C96_8 1_555 1_555
H71_8 C98_8 1_555 1_555
C99_8 C98_8 1_555 1_555
C100_8 C97_8 1_555 1_555
H72_8 C100_8 1_555 1_555
C20_8 C73_8 1_555 1_555
C99_8 C100_8 1_555 1_555
Cu1_8 Cu2_8 1_555 1_555
Cu2_8 Cu9_4 1_555 1_555
Cu9_4 Cu1_8 1_555 1_555
Cu4_8 Cu1_8 1_555 1_555
Cu17_2 O1_8 1_555 1_555
I1_8 Cu1_8 1_555 1_555
I2_8 Cu2_8 1_555 1_555
I3_8 Cu1_8 1_555 1_555
I4_8 Cu1_8 1_555 1_555
O1_8 C6_8 1_555 1_555
O2_8 Cu13_2 1_555 1_555
O17_3 C3_8 1_555 1_555
O18_3 C3_8 1_555 1_555
O8_8 Cu11_3 1_555 1_555
O19_4 C111_8 1_555 1_555
O22_4 C111_8 1_555 1_555
O23_3 C85_8 1_555 1_555
O24_3 C85_8 1_555 1_555
N1_8 Cu11_3 1_555 1_555
N3_8 Cu2_8 1_555 1_555
N4_8 Cu4_8 1_555 1_555
N5_8 Cu1_8 1_555 1_555
N6_8 Cu17_2 1_555 1_555
N7_8 Cu13_2 1_555 1_555
C3_8 C92_8 1_555 1_555
C5_8 C1_8 1_555 1_555
C6_8 O2_8 1_555 1_555
C12_8 N1_8 1_555 1_555
C15_8 N5_8 1_555 1_555
H7_8 C15_8 1_555 1_555
C17_8 H9_8 1_555 1_555
C18_8 H10_8 1_555 1_555
C19_8 C15_8 1_555 1_555
H11_8 C19_8 1_555 1_555
C22_8 N6_8 1_555 1_555
H13_8 C22_8 1_555 1_555
C23_8 C33_8 1_555 1_555
C24_8 H14_8 1_555 1_555
C25_8 H15_8 1_555 1_555
C26_8 C17_8 1_555 1_555
C27_8 N1_8 1_555 1_555
H16_8 C27_8 1_555 1_555
C28_8 C22_8 1_555 1_555
H17_8 C28_8 1_555 1_555
C29_8 C6_8 1_555 1_555
C30_8 C29_8 1_555 1_555
H18_8 C30_8 1_555 1_555
C32_8 N6_8 1_555 1_555
H20_8 C32_8 1_555 1_555
C33_8 C12_8 1_555 1_555
H21_8 C33_8 1_555 1_555
C34_8 H22_8 1_555 1_555
C35_8 H23_8 1_555 1_555
C36_8 N7_8 1_555 1_555
H24_8 C36_8 1_555 1_555
C37_8 C34_8 1_555 1_555
H25_8 C37_8 1_555 1_555
C38_8 C48_8 1_555 1_555
C40_8 C25_8 1_555 1_555
H27_8 C40_8 1_555 1_555
C43_8 N3_8 1_555 1_555
H29_8 C43_8 1_555 1_555
C44_8 C5_8 1_555 1_555
H30_8 C44_8 1_555 1_555
C48_8 C44_8 1_555 1_555
H33_8 C48_8 1_555 1_555
C49_8 C37_8 1_555 1_555
C50_8 N5_8 1_555 1_555
H34_8 C50_8 1_555 1_555
C51_8 N4_8 1_555 1_555
H35_8 C51_8 1_555 1_555
C55_8 C32_8 1_555 1_555
H39_8 C55_8 1_555 1_555
C56_8 C23_8 1_555 1_555
H40_8 C56_8 1_555 1_555
C58_8 H42_8 1_555 1_555
C59_8 C49_8 1_555 1_555
H43_8 C59_8 1_555 1_555
C61_8 C35_8 1_555 1_555
C62_8 N4_8 1_555 1_555
H45_8 C62_8 1_555 1_555
C63_8 C23_8 1_555 1_555
H46_8 C63_8 1_555 1_555
C64_8 C61_8 1_555 1_555
H47_8 C64_8 1_555 1_555
C65_8 C56_8 1_555 1_555
H48_8 C65_8 1_555 1_555
C66_8 C38_8 1_555 1_555
H49_8 C66_8 1_555 1_555
C67_8 C38_8 1_555 1_555
H50_8 C67_8 1_555 1_555
C68_8 N7_8 1_555 1_555
H51_8 C68_8 1_555 1_555
C69_8 C5_8 1_555 1_555
C70_8 C61_8 1_555 1_555
H53_8 C70_8 1_555 1_555
C74_8 C28_8 1_555 1_555
C76_8 C49_8 1_555 1_555
H57_8 C76_8 1_555 1_555
C77_8 C58_8 1_555 1_555
H58_8 C77_8 1_555 1_555
C78_8 C30_8 1_555 1_555
H59_8 C78_8 1_555 1_555
C79_8 C17_8 1_555 1_555
H60_8 C79_8 1_555 1_555
C80_8 C25_8 1_555 1_555
C81_8 C65_8 1_555 1_555
C82_8 C81_8 1_555 1_555
H61_8 C82_8 1_555 1_555
C83_8 C82_8 1_555 1_555
H62_8 C83_8 1_555 1_555
C84_8 C83_8 1_555 1_555
C85_8 C84_8 1_555 1_555
C86_8 C81_8 1_555 1_555
H63_8 C86_8 1_555 1_555
C87_8 C84_8 1_555 1_555
H64_8 C87_8 1_555 1_555
C89_8 C34_8 1_555 1_555
C90_8 C89_8 1_555 1_555
H65_8 C90_8 1_555 1_555
C91_8 C90_8 1_555 1_555
H66_8 C91_8 1_555 1_555
C92_8 C91_8 1_555 1_555
C93_8 C92_8 1_555 1_555
H67_8 C93_8 1_555 1_555
C94_8 C89_8 1_555 1_555
H68_8 C94_8 1_555 1_555
C106_8 C77_8 1_555 1_555
C107_8 C106_8 1_555 1_555
H77_8 C107_8 1_555 1_555
C108_8 C106_8 1_555 1_555
H78_8 C108_8 1_555 1_555
C109_8 C108_8 1_555 1_555
H79_8 C109_8 1_555 1_555
C110_8 C109_8 1_555 1_555
C111_8 C110_8 1_555 1_555
C112_8 C107_8 1_555 1_555
H80_8 C112_8 1_555 1_555
Cu2_8 Cu4_8 1_555 1_555
Cu2_8 I3_8 1_555 1_555
Cu2_8 I4_8 1_555 1_555
Cu9_4 Cu4_8 1_555 1_555
Cu9_4 I1_8 1_555 1_555
Cu9_4 I2_8 1_555 1_555
Cu9_4 I4_8 1_555 1_555
Cu4_8 I1_8 1_555 1_555
Cu4_8 I2_8 1_555 1_555
Cu4_8 I3_8 1_555 1_555
O8_8 C1_8 1_555 1_555
C18_8 C43_8 1_555 1_555
C19_8 C26_8 1_555 1_555
C24_8 C26_8 1_555 1_555
C24_8 C50_8 1_555 1_555
C27_8 C63_8 1_555 1_555
C29_8 C40_8 1_555 1_555
C35_8 C36_8 1_555 1_555
C51_8 C59_8 1_555 1_555
C55_8 C74_8 1_555 1_555
C58_8 C74_8 1_555 1_555
C62_8 C76_8 1_555 1_555
C64_8 C67_8 1_555 1_555
C66_8 C69_8 1_555 1_555
C68_8 C70_8 1_555 1_555
C78_8 C80_8 1_555 1_555
C79_8 C80_8 1_555 1_555
C86_8 C87_8 1_555 1_555
C93_8 C94_8 1_555 1_555
C110_8 C112_8 1_555 1_555
Cu15_3 O6_8 1_555 1_555
O6_8 C88_8 1_555 1_555
O7_8 Cu15_3 1_555 1_555
O25_4 C9_8 1_555 1_555
O26_4 C9_8 1_555 1_555
N2_8 Cu15_3 1_555 1_555
C4_8 H1_8 1_555 1_555
C7_8 C16_8 1_555 1_555
C8_8 H2_8 1_555 1_555
C9_8 C21_8 1_555 1_555
C10_8 H3_8 1_555 1_555
C13_8 C8_8 1_555 1_555
H5_8 C13_8 1_555 1_555
C14_8 C10_8 1_555 1_555
H6_8 C14_8 1_555 1_555
C16_8 H8_8 1_555 1_555
C21_8 C13_8 1_555 1_555
C31_8 H19_8 1_555 1_555
C39_8 C4_8 1_555 1_555
H26_8 C39_8 1_555 1_555
C41_8 N2_8 1_555 1_555
H28_8 C41_8 1_555 1_555
C42_8 C31_8 1_555 1_555
C45_8 H31_8 1_555 1_555
C46_8 C8_8 1_555 1_555
C47_8 C42_8 1_555 1_555
H32_8 C47_8 1_555 1_555
C53_8 C42_8 1_555 1_555
H37_8 C53_8 1_555 1_555
C57_8 C46_8 1_555 1_555
H41_8 C57_8 1_555 1_555
C60_8 C7_8 1_555 1_555
H44_8 C60_8 1_555 1_555
C71_8 C39_8 1_555 1_555
C72_8 C16_8 1_555 1_555
H54_8 C72_8 1_555 1_555
C75_8 N2_8 1_555 1_555
H56_8 C75_8 1_555 1_555
C88_8 O5_8 1_555 1_555
C101_8 C4_8 1_555 1_555
C102_8 C101_8 1_555 1_555
H73_8 C102_8 1_555 1_555
C103_8 C101_8 1_555 1_555
H74_8 C103_8 1_555 1_555
C104_8 C102_8 1_555 1_555
H75_8 C104_8 1_555 1_555
N9_4 C104_8 1_555 1_555
C105_8 C103_8 1_555 1_555
H76_8 C105_8 1_555 1_555
C7_8 C88_8 1_555 1_555
C10_8 C46_8 1_555 1_555
C14_8 C21_8 1_555 1_555
C31_8 C41_8 1_555 1_555
C45_8 C60_8 1_555 1_555
C45_8 C71_8 1_555 1_555
C47_8 C57_8 1_555 1_555
C53_8 C75_8 1_555 1_555
C71_8 C72_8 1_555 1_555
N9_4 C105_8 1_555 1_555

#END
