
###############################################################################
#
# This file contains modified crystal structure data generated from the
# MOF subset of the Cambridge Structural Database (CSD) v543 
# hosted by the Cambridge Crystallographic Data Centre (CCDC).
#
# This work is licensed under the Creative Commons
# Attribution-NonCommercial-ShareAlike 4.0 International License.
# To view a copy of this license, visit
# http://creativecommons.org/licenses/by-nc-sa/4.0/
# or send a letter to
# Creative Commons, PO Box 1866, Mountain View, CA 94042, USA.
#
# CIF created using the CSD Python API on 29 September 2022
# The structure has been converted into the P1 space group
# The structure has a 3D framework
# The original CSD entry JUFLUU is in the cubic crystal system
# The framework has been calculated to contain at least 10.0% void space
# The void calculation uses a probe of radius 1.32A, grid spacing 0.4
#
###############################################################################

data_JUFLUU
_chemical_formula_moiety         '(C1056 H672 N96 O256 Zr32)n'
_symmetry_cell_setting           triclinic
_symmetry_space_group_name_H-M   'P 1'
_symmetry_Int_Tables_number      1
_space_group_name_Hall           'P 1'
loop_
_symmetry_equiv_pos_site_id
_symmetry_equiv_pos_as_xyz
1 x,y,z
_cell_length_a                   38.5709
_cell_length_b                   38.5709
_cell_length_c                   38.5709
_cell_angle_alpha                90
_cell_angle_beta                 90
_cell_angle_gamma                90
_cell_volume                     57382.5
loop_
_atom_site_label
_atom_site_type_symbol
_atom_site_fract_x
_atom_site_fract_y
_atom_site_fract_z
_atom_site_U_iso_or_equiv
_atom_site_thermal_displace_type
H24 H 0.48410 0.03484 0.15068 0.0000 Uiso
C37 C 0.54614 0.04678 0.11834 0.0000 Uiso
C38 C 0.52031 0.02012 0.11063 0.0000 Uiso
C39 C 0.49006 0.01656 0.13037 0.0000 Uiso
O11 O 0.57784 0.03671 0.12097 0.0000 Uiso
O12 O 0.53567 0.07856 0.12108 0.0000 Uiso
Zr7 Zr 0.62500 0.06417 0.12500 0.0000 Uiso
Zr9 Zr 0.56417 0.12500 0.12500 0.0000 Uiso
H1 H 0.29955 0.55796 0.23930 0.0000 Uiso
H2 H 0.25177 0.56815 0.20022 0.0000 Uiso
H3 H 0.21516 0.65068 0.26590 0.0000 Uiso
H4 H 0.26409 0.64045 0.30512 0.0000 Uiso
C1 C 0.34116 0.59954 0.38758 0.0000 Uiso
C2 C 0.28134 0.57823 0.24539 0.0000 Uiso
C3 C 0.25400 0.58431 0.22295 0.0000 Uiso
C4 C 0.20322 0.61834 0.20386 0.0000 Uiso
C5 C 0.22988 0.61063 0.22969 0.0000 Uiso
C6 C 0.23344 0.63037 0.25994 0.0000 Uiso
C7 C 0.28557 0.59839 0.27503 0.0000 Uiso
C8 C 0.26134 0.62449 0.28234 0.0000 Uiso
C9 C 0.31649 0.59246 0.29697 0.0000 Uiso
C10 C 0.34682 0.59911 0.35193 0.0000 Uiso
C11 C 0.38102 0.59949 0.33944 0.0000 Uiso
O1 O 0.21329 0.62097 0.17216 0.0000 Uiso
O2 O 0.17144 0.62108 0.21433 0.0000 Uiso
N1 N 0.31724 0.60188 0.32912 0.0000 Uiso
H5 H 0.31505 0.59998 0.39757 0.0000 Uiso
H6 H 0.33888 0.58059 0.28524 0.0000 Uiso
H7 H 0.38649 0.60059 0.31210 0.0000 Uiso
Zr1 Zr 0.18583 0.62500 0.12500 0.0000 Uiso
O3 O 0.15590 0.59410 0.15590 0.0000 Uiso
O4 O 0.15730 0.59270 0.09270 0.0000 Uiso
H8 H 0.45045 0.55796 0.51070 0.0000 Uiso
H9 H 0.49823 0.56815 0.54978 0.0000 Uiso
H10 H 0.53484 0.65068 0.48410 0.0000 Uiso
H11 H 0.48591 0.64045 0.44488 0.0000 Uiso
C12 C 0.40884 0.59954 0.36242 0.0000 Uiso
C13 C 0.46866 0.57823 0.50461 0.0000 Uiso
C14 C 0.49600 0.58431 0.52705 0.0000 Uiso
C15 C 0.54678 0.61834 0.54614 0.0000 Uiso
C16 C 0.52012 0.61063 0.52031 0.0000 Uiso
C17 C 0.51656 0.63037 0.49006 0.0000 Uiso
C18 C 0.46443 0.59839 0.47497 0.0000 Uiso
C19 C 0.48866 0.62449 0.46766 0.0000 Uiso
C20 C 0.43351 0.59246 0.45303 0.0000 Uiso
C21 C 0.40318 0.59911 0.39807 0.0000 Uiso
C22 C 0.36898 0.59949 0.41056 0.0000 Uiso
O5 O 0.53671 0.62097 0.57784 0.0000 Uiso
O6 O 0.57856 0.62108 0.53567 0.0000 Uiso
N2 N 0.43276 0.60188 0.42088 0.0000 Uiso
H12 H 0.43495 0.59998 0.35243 0.0000 Uiso
H13 H 0.41112 0.58059 0.46476 0.0000 Uiso
H14 H 0.36351 0.60059 0.43790 0.0000 Uiso
O7 O 0.15590 0.65590 0.09410 0.0000 Uiso
O8 O 0.15730 0.65730 0.15730 0.0000 Uiso
H15 H 0.23930 0.79955 0.05796 0.0000 Uiso
H16 H 0.20022 0.75177 0.06815 0.0000 Uiso
H17 H 0.26590 0.71516 0.15068 0.0000 Uiso
H18 H 0.30512 0.76409 0.14045 0.0000 Uiso
C23 C 0.38758 0.84116 0.09954 0.0000 Uiso
C24 C 0.24539 0.78134 0.07823 0.0000 Uiso
C25 C 0.22295 0.75400 0.08431 0.0000 Uiso
C26 C 0.20386 0.70322 0.11834 0.0000 Uiso
C27 C 0.22969 0.72988 0.11063 0.0000 Uiso
C28 C 0.25994 0.73344 0.13037 0.0000 Uiso
C29 C 0.27503 0.78557 0.09839 0.0000 Uiso
C30 C 0.28234 0.76134 0.12449 0.0000 Uiso
C31 C 0.29697 0.81649 0.09246 0.0000 Uiso
C32 C 0.35193 0.84682 0.09911 0.0000 Uiso
C33 C 0.33944 0.88102 0.09949 0.0000 Uiso
O9 O 0.17216 0.71329 0.12097 0.0000 Uiso
O10 O 0.21433 0.67144 0.12108 0.0000 Uiso
N3 N 0.32912 0.81724 0.10188 0.0000 Uiso
H19 H 0.39757 0.81505 0.09998 0.0000 Uiso
H20 H 0.28524 0.83888 0.08059 0.0000 Uiso
H21 H 0.31210 0.88649 0.10059 0.0000 Uiso
Zr2 Zr 0.12500 0.68583 0.12500 0.0000 Uiso
H22 H 0.51070 0.95045 0.05796 0.0000 Uiso
H23 H 0.54978 0.99823 0.06815 0.0000 Uiso
H25 H 0.44488 0.98591 0.14045 0.0000 Uiso
C34 C 0.36242 0.90884 0.09954 0.0000 Uiso
C35 C 0.50461 0.96866 0.07823 0.0000 Uiso
C36 C 0.52705 0.99600 0.08431 0.0000 Uiso
C40 C 0.47497 0.96443 0.09839 0.0000 Uiso
C41 C 0.46766 0.98866 0.12449 0.0000 Uiso
C42 C 0.45303 0.93351 0.09246 0.0000 Uiso
C43 C 0.39807 0.90318 0.09911 0.0000 Uiso
C44 C 0.41056 0.86898 0.09949 0.0000 Uiso
N4 N 0.42088 0.93276 0.10188 0.0000 Uiso
H26 H 0.35243 0.93495 0.09998 0.0000 Uiso
H27 H 0.46476 0.91112 0.08059 0.0000 Uiso
H28 H 0.43790 0.86351 0.10059 0.0000 Uiso
H29 H 0.23930 0.45045 0.19204 0.0000 Uiso
H30 H 0.20022 0.49823 0.18185 0.0000 Uiso
H31 H 0.26590 0.53484 0.09932 0.0000 Uiso
H32 H 0.30512 0.48591 0.10955 0.0000 Uiso
C45 C 0.38758 0.40884 0.15046 0.0000 Uiso
C46 C 0.24539 0.46866 0.17177 0.0000 Uiso
C47 C 0.22295 0.49600 0.16569 0.0000 Uiso
C48 C 0.20386 0.54678 0.13166 0.0000 Uiso
C49 C 0.22969 0.52012 0.13937 0.0000 Uiso
C50 C 0.25994 0.51656 0.11963 0.0000 Uiso
C51 C 0.27503 0.46443 0.15161 0.0000 Uiso
C52 C 0.28234 0.48866 0.12551 0.0000 Uiso
C53 C 0.29697 0.43351 0.15754 0.0000 Uiso
C54 C 0.35193 0.40318 0.15089 0.0000 Uiso
C55 C 0.33944 0.36898 0.15051 0.0000 Uiso
O13 O 0.17216 0.53671 0.12903 0.0000 Uiso
O14 O 0.21433 0.57856 0.12892 0.0000 Uiso
N5 N 0.32912 0.43276 0.14812 0.0000 Uiso
H33 H 0.39757 0.43495 0.15002 0.0000 Uiso
H34 H 0.28524 0.41112 0.16941 0.0000 Uiso
H35 H 0.31210 0.36351 0.14941 0.0000 Uiso
Zr3 Zr 0.12500 0.56417 0.12500 0.0000 Uiso
H36 H 0.51070 0.29955 0.19204 0.0000 Uiso
H37 H 0.54978 0.25177 0.18185 0.0000 Uiso
H38 H 0.48410 0.21516 0.09932 0.0000 Uiso
H39 H 0.44488 0.26409 0.10955 0.0000 Uiso
C56 C 0.36242 0.34116 0.15046 0.0000 Uiso
C57 C 0.50461 0.28134 0.17177 0.0000 Uiso
C58 C 0.52705 0.25400 0.16569 0.0000 Uiso
C59 C 0.54614 0.20322 0.13166 0.0000 Uiso
C60 C 0.52031 0.22988 0.13937 0.0000 Uiso
C61 C 0.49006 0.23344 0.11963 0.0000 Uiso
C62 C 0.47497 0.28557 0.15161 0.0000 Uiso
C63 C 0.46766 0.26134 0.12551 0.0000 Uiso
C64 C 0.45303 0.31649 0.15754 0.0000 Uiso
C65 C 0.39807 0.34682 0.15089 0.0000 Uiso
C66 C 0.41056 0.38102 0.15051 0.0000 Uiso
O15 O 0.57784 0.21329 0.12903 0.0000 Uiso
O16 O 0.53567 0.17144 0.12892 0.0000 Uiso
N6 N 0.42088 0.31724 0.14812 0.0000 Uiso
H40 H 0.35243 0.31505 0.15002 0.0000 Uiso
H41 H 0.46476 0.33888 0.16941 0.0000 Uiso
H42 H 0.43790 0.38649 0.14941 0.0000 Uiso
O17 O 0.21329 0.62903 0.07784 0.0000 Uiso
O18 O 0.07784 0.53671 0.12097 0.0000 Uiso
O19 O 0.07784 0.71329 0.12903 0.0000 Uiso
O20 O 0.12108 0.71433 0.17144 0.0000 Uiso
O21 O 0.12892 0.71433 0.07856 0.0000 Uiso
O22 O 0.12108 0.53567 0.07856 0.0000 Uiso
O23 O 0.12892 0.53567 0.17144 0.0000 Uiso
Zr4 Zr 0.62500 0.62500 0.56417 0.0000 Uiso
Zr5 Zr 0.56417 0.62500 0.62500 0.0000 Uiso
Zr6 Zr 0.62500 0.18583 0.12500 0.0000 Uiso
Zr10 Zr 0.12500 0.62500 0.18583 0.0000 Uiso
Zr11 Zr 0.12500 0.62500 0.06417 0.0000 Uiso
O24 O 0.09410 0.65590 0.15590 0.0000 Uiso
O25 O 0.09410 0.59410 0.09410 0.0000 Uiso
O26 O 0.09270 0.65730 0.09270 0.0000 Uiso
O27 O 0.09270 0.59270 0.15730 0.0000 Uiso
H3_2 H 0.03484 0.59932 0.26590 0.0000 Uiso
C4_2 C 0.04678 0.63166 0.20386 0.0000 Uiso
C5_2 C 0.02012 0.63937 0.22969 0.0000 Uiso
C6_2 C 0.01656 0.61963 0.25994 0.0000 Uiso
O1_2 O 0.03671 0.62903 0.17216 0.0000 Uiso
O2_2 O 0.07856 0.62892 0.21433 0.0000 Uiso
Zr1_2 Zr 0.06417 0.62500 0.12500 0.0000 Uiso
H15_2 H 0.01070 0.45045 0.05796 0.0000 Uiso
H16_2 H 0.04978 0.49823 0.06815 0.0000 Uiso
C24_2 C 0.00461 0.46866 0.07823 0.0000 Uiso
C25_2 C 0.02705 0.49600 0.08431 0.0000 Uiso
C26_2 C 0.04614 0.54678 0.11834 0.0000 Uiso
C27_2 C 0.02031 0.52012 0.11063 0.0000 Uiso
O10_2 O 0.03567 0.57856 0.12108 0.0000 Uiso
H29_2 H 0.01070 0.79955 0.19204 0.0000 Uiso
H30_2 H 0.04978 0.75177 0.18185 0.0000 Uiso
C46_2 C 0.00461 0.78134 0.17177 0.0000 Uiso
C47_2 C 0.02705 0.75400 0.16569 0.0000 Uiso
C48_2 C 0.04614 0.70322 0.13166 0.0000 Uiso
C49_2 C 0.02031 0.72988 0.13937 0.0000 Uiso
O14_2 O 0.03567 0.67144 0.12892 0.0000 Uiso
O17_2 O 0.03671 0.62097 0.07784 0.0000 Uiso
H38_2 H 0.76590 0.03484 0.09932 0.0000 Uiso
C59_2 C 0.70386 0.04678 0.13166 0.0000 Uiso
C60_2 C 0.72969 0.02012 0.13937 0.0000 Uiso
C61_2 C 0.75994 0.01656 0.11963 0.0000 Uiso
O15_2 O 0.67216 0.03671 0.12903 0.0000 Uiso
O16_2 O 0.71433 0.07856 0.12892 0.0000 Uiso
Zr8 Zr 0.68583 0.12500 0.12500 0.0000 Uiso
H1_2 H 0.95045 0.69204 0.23930 0.0000 Uiso
H2_2 H 0.99823 0.68185 0.20022 0.0000 Uiso
H4_2 H 0.98591 0.60955 0.30512 0.0000 Uiso
C1_2 C 0.90884 0.65046 0.38758 0.0000 Uiso
C2_2 C 0.96866 0.67177 0.24539 0.0000 Uiso
C3_2 C 0.99600 0.66569 0.22295 0.0000 Uiso
C7_2 C 0.96443 0.65161 0.27503 0.0000 Uiso
C8_2 C 0.98866 0.62551 0.28234 0.0000 Uiso
C9_2 C 0.93351 0.65754 0.29697 0.0000 Uiso
C10_2 C 0.90318 0.65089 0.35193 0.0000 Uiso
C11_2 C 0.86898 0.65051 0.33944 0.0000 Uiso
N1_2 N 0.93276 0.64812 0.32912 0.0000 Uiso
H5_2 H 0.93495 0.65002 0.39757 0.0000 Uiso
H6_2 H 0.91112 0.66941 0.28524 0.0000 Uiso
H7_2 H 0.86351 0.64941 0.31210 0.0000 Uiso
H8_2 H 0.79955 0.69204 0.51070 0.0000 Uiso
H9_2 H 0.75177 0.68185 0.54978 0.0000 Uiso
H10_2 H 0.71516 0.59932 0.48410 0.0000 Uiso
H11_2 H 0.76409 0.60955 0.44488 0.0000 Uiso
C12_2 C 0.84116 0.65046 0.36242 0.0000 Uiso
C13_2 C 0.78134 0.67177 0.50461 0.0000 Uiso
C14_2 C 0.75400 0.66569 0.52705 0.0000 Uiso
C15_2 C 0.70322 0.63166 0.54614 0.0000 Uiso
C16_2 C 0.72988 0.63937 0.52031 0.0000 Uiso
C17_2 C 0.73344 0.61963 0.49006 0.0000 Uiso
C18_2 C 0.78557 0.65161 0.47497 0.0000 Uiso
C19_2 C 0.76134 0.62551 0.46766 0.0000 Uiso
C20_2 C 0.81649 0.65754 0.45303 0.0000 Uiso
C21_2 C 0.84682 0.65089 0.39807 0.0000 Uiso
C22_2 C 0.88102 0.65051 0.41056 0.0000 Uiso
O5_2 O 0.71329 0.62903 0.57784 0.0000 Uiso
O6_2 O 0.67144 0.62892 0.53567 0.0000 Uiso
N2_2 N 0.81724 0.64812 0.42088 0.0000 Uiso
H12_2 H 0.81505 0.65002 0.35243 0.0000 Uiso
H13_2 H 0.83888 0.66941 0.46476 0.0000 Uiso
H14_2 H 0.88649 0.64941 0.43790 0.0000 Uiso
H17_2 H 0.98410 0.53484 0.15068 0.0000 Uiso
H18_2 H 0.94488 0.48591 0.14045 0.0000 Uiso
C23_2 C 0.86242 0.40884 0.09954 0.0000 Uiso
C28_2 C 0.99006 0.51656 0.13037 0.0000 Uiso
C29_2 C 0.97497 0.46443 0.09839 0.0000 Uiso
C30_2 C 0.96766 0.48866 0.12449 0.0000 Uiso
C31_2 C 0.95303 0.43351 0.09246 0.0000 Uiso
C32_2 C 0.89807 0.40318 0.09911 0.0000 Uiso
C33_2 C 0.91056 0.36898 0.09949 0.0000 Uiso
N3_2 N 0.92088 0.43276 0.10188 0.0000 Uiso
H19_2 H 0.85243 0.43495 0.09998 0.0000 Uiso
H20_2 H 0.96476 0.41112 0.08059 0.0000 Uiso
H21_2 H 0.93790 0.36351 0.10059 0.0000 Uiso
H22_2 H 0.73930 0.29955 0.05796 0.0000 Uiso
H23_2 H 0.70022 0.25177 0.06815 0.0000 Uiso
H24_2 H 0.76590 0.21516 0.15068 0.0000 Uiso
H25_2 H 0.80512 0.26409 0.14045 0.0000 Uiso
C34_2 C 0.88758 0.34116 0.09954 0.0000 Uiso
C35_2 C 0.74539 0.28134 0.07823 0.0000 Uiso
C36_2 C 0.72295 0.25400 0.08431 0.0000 Uiso
C37_2 C 0.70386 0.20322 0.11834 0.0000 Uiso
C38_2 C 0.72969 0.22988 0.11063 0.0000 Uiso
C39_2 C 0.75994 0.23344 0.13037 0.0000 Uiso
C40_2 C 0.77503 0.28557 0.09839 0.0000 Uiso
C41_2 C 0.78234 0.26134 0.12449 0.0000 Uiso
C42_2 C 0.79697 0.31649 0.09246 0.0000 Uiso
C43_2 C 0.85193 0.34682 0.09911 0.0000 Uiso
C44_2 C 0.83944 0.38102 0.09949 0.0000 Uiso
O11_2 O 0.67216 0.21329 0.12097 0.0000 Uiso
O12_2 O 0.71433 0.17144 0.12108 0.0000 Uiso
N4_2 N 0.82912 0.31724 0.10188 0.0000 Uiso
H26_2 H 0.89757 0.31505 0.09998 0.0000 Uiso
H27_2 H 0.78524 0.33888 0.08059 0.0000 Uiso
H28_2 H 0.81210 0.38649 0.10059 0.0000 Uiso
H31_2 H 0.98410 0.71516 0.09932 0.0000 Uiso
H32_2 H 0.94488 0.76409 0.10955 0.0000 Uiso
C45_2 C 0.86242 0.84116 0.15046 0.0000 Uiso
C50_2 C 0.99006 0.73344 0.11963 0.0000 Uiso
C51_2 C 0.97497 0.78557 0.15161 0.0000 Uiso
C52_2 C 0.96766 0.76134 0.12551 0.0000 Uiso
C53_2 C 0.95303 0.81649 0.15754 0.0000 Uiso
C54_2 C 0.89807 0.84682 0.15089 0.0000 Uiso
C55_2 C 0.91056 0.88102 0.15051 0.0000 Uiso
N5_2 N 0.92088 0.81724 0.14812 0.0000 Uiso
H33_2 H 0.85243 0.81505 0.15002 0.0000 Uiso
H34_2 H 0.96476 0.83888 0.16941 0.0000 Uiso
H35_2 H 0.93790 0.88649 0.14941 0.0000 Uiso
H36_2 H 0.73930 0.95045 0.19204 0.0000 Uiso
H37_2 H 0.70022 0.99823 0.18185 0.0000 Uiso
H39_2 H 0.80512 0.98591 0.10955 0.0000 Uiso
C56_2 C 0.88758 0.90884 0.15046 0.0000 Uiso
C57_2 C 0.74539 0.96866 0.17177 0.0000 Uiso
C58_2 C 0.72295 0.99600 0.16569 0.0000 Uiso
C62_2 C 0.77503 0.96443 0.15161 0.0000 Uiso
C63_2 C 0.78234 0.98866 0.12551 0.0000 Uiso
C64_2 C 0.79697 0.93351 0.15754 0.0000 Uiso
C65_2 C 0.85193 0.90318 0.15089 0.0000 Uiso
C66_2 C 0.83944 0.86898 0.15051 0.0000 Uiso
N6_2 N 0.82912 0.93276 0.14812 0.0000 Uiso
H40_2 H 0.89757 0.93495 0.15002 0.0000 Uiso
H41_2 H 0.78524 0.91112 0.16941 0.0000 Uiso
H42_2 H 0.81210 0.86351 0.14941 0.0000 Uiso
Zr5_2 Zr 0.68583 0.62500 0.62500 0.0000 Uiso
C4_3 C 0.04678 0.61834 0.04614 0.0000 Uiso
C5_3 C 0.02012 0.61063 0.02031 0.0000 Uiso
O2_3 O 0.07856 0.62108 0.03567 0.0000 Uiso
H3_3 H 0.03484 0.65068 0.98410 0.0000 Uiso
C6_3 C 0.01656 0.63037 0.99006 0.0000 Uiso
H1_3 H 0.95045 0.55796 0.01070 0.0000 Uiso
H2_3 H 0.99823 0.56815 0.04978 0.0000 Uiso
C2_3 C 0.96866 0.57823 0.00461 0.0000 Uiso
C3_3 C 0.99600 0.58431 0.02705 0.0000 Uiso
H4_3 H 0.98591 0.64045 0.94488 0.0000 Uiso
C1_3 C 0.90884 0.59954 0.86242 0.0000 Uiso
C7_3 C 0.96443 0.59839 0.97497 0.0000 Uiso
C8_3 C 0.98866 0.62449 0.96766 0.0000 Uiso
C9_3 C 0.93351 0.59246 0.95303 0.0000 Uiso
C10_3 C 0.90318 0.59911 0.89807 0.0000 Uiso
C11_3 C 0.86898 0.59949 0.91056 0.0000 Uiso
N1_3 N 0.93276 0.60188 0.92088 0.0000 Uiso
H5_3 H 0.93495 0.59998 0.85243 0.0000 Uiso
H6_3 H 0.91112 0.58059 0.96476 0.0000 Uiso
H7_3 H 0.86351 0.60059 0.93790 0.0000 Uiso
H8_3 H 0.79955 0.55796 0.73930 0.0000 Uiso
H9_3 H 0.75177 0.56815 0.70022 0.0000 Uiso
H10_3 H 0.71516 0.65068 0.76590 0.0000 Uiso
H11_3 H 0.76409 0.64045 0.80512 0.0000 Uiso
C12_3 C 0.84116 0.59954 0.88758 0.0000 Uiso
C13_3 C 0.78134 0.57823 0.74539 0.0000 Uiso
C14_3 C 0.75400 0.58431 0.72295 0.0000 Uiso
C15_3 C 0.70322 0.61834 0.70386 0.0000 Uiso
C16_3 C 0.72988 0.61063 0.72969 0.0000 Uiso
C17_3 C 0.73344 0.63037 0.75994 0.0000 Uiso
C18_3 C 0.78557 0.59839 0.77503 0.0000 Uiso
C19_3 C 0.76134 0.62449 0.78234 0.0000 Uiso
C20_3 C 0.81649 0.59246 0.79697 0.0000 Uiso
C21_3 C 0.84682 0.59911 0.85193 0.0000 Uiso
C22_3 C 0.88102 0.59949 0.83944 0.0000 Uiso
O5_3 O 0.71329 0.62097 0.67216 0.0000 Uiso
O6_3 O 0.67144 0.62108 0.71433 0.0000 Uiso
N2_3 N 0.81724 0.60188 0.82912 0.0000 Uiso
H12_3 H 0.81505 0.59998 0.89757 0.0000 Uiso
H13_3 H 0.83888 0.58059 0.78524 0.0000 Uiso
H14_3 H 0.88649 0.60059 0.81210 0.0000 Uiso
Zr4_2 Zr 0.62500 0.62500 0.68583 0.0000 Uiso
H1_4 H 0.29955 0.69204 0.01070 0.0000 Uiso
H2_4 H 0.25177 0.68185 0.04978 0.0000 Uiso
C2_4 C 0.28134 0.67177 0.00461 0.0000 Uiso
C3_4 C 0.25400 0.66569 0.02705 0.0000 Uiso
C4_4 C 0.20322 0.63166 0.04614 0.0000 Uiso
C5_4 C 0.22988 0.63937 0.02031 0.0000 Uiso
O2_4 O 0.17144 0.62892 0.03567 0.0000 Uiso
H3_4 H 0.21516 0.59932 0.98410 0.0000 Uiso
H4_4 H 0.26409 0.60955 0.94488 0.0000 Uiso
C1_4 C 0.34116 0.65046 0.86242 0.0000 Uiso
C6_4 C 0.23344 0.61963 0.99006 0.0000 Uiso
C7_4 C 0.28557 0.65161 0.97497 0.0000 Uiso
C8_4 C 0.26134 0.62551 0.96766 0.0000 Uiso
C9_4 C 0.31649 0.65754 0.95303 0.0000 Uiso
C10_4 C 0.34682 0.65089 0.89807 0.0000 Uiso
C11_4 C 0.38102 0.65051 0.91056 0.0000 Uiso
N1_4 N 0.31724 0.64812 0.92088 0.0000 Uiso
H5_4 H 0.31505 0.65002 0.85243 0.0000 Uiso
H6_4 H 0.33888 0.66941 0.96476 0.0000 Uiso
H7_4 H 0.38649 0.64941 0.93790 0.0000 Uiso
H8_4 H 0.45045 0.69204 0.73930 0.0000 Uiso
H9_4 H 0.49823 0.68185 0.70022 0.0000 Uiso
H10_4 H 0.53484 0.59932 0.76590 0.0000 Uiso
H11_4 H 0.48591 0.60955 0.80512 0.0000 Uiso
C12_4 C 0.40884 0.65046 0.88758 0.0000 Uiso
C13_4 C 0.46866 0.67177 0.74539 0.0000 Uiso
C14_4 C 0.49600 0.66569 0.72295 0.0000 Uiso
C15_4 C 0.54678 0.63166 0.70386 0.0000 Uiso
C16_4 C 0.52012 0.63937 0.72969 0.0000 Uiso
C17_4 C 0.51656 0.61963 0.75994 0.0000 Uiso
C18_4 C 0.46443 0.65161 0.77503 0.0000 Uiso
C19_4 C 0.48866 0.62551 0.78234 0.0000 Uiso
C20_4 C 0.43351 0.65754 0.79697 0.0000 Uiso
C21_4 C 0.40318 0.65089 0.85193 0.0000 Uiso
C22_4 C 0.36898 0.65051 0.83944 0.0000 Uiso
O5_4 O 0.53671 0.62903 0.67216 0.0000 Uiso
O6_4 O 0.57856 0.62892 0.71433 0.0000 Uiso
N2_4 N 0.43276 0.64812 0.82912 0.0000 Uiso
H12_4 H 0.43495 0.65002 0.89757 0.0000 Uiso
H13_4 H 0.41112 0.66941 0.78524 0.0000 Uiso
H14_4 H 0.36351 0.64941 0.81210 0.0000 Uiso
H24_3 H 0.15068 0.48410 0.03484 0.0000 Uiso
C37_3 C 0.11834 0.54614 0.04678 0.0000 Uiso
C38_3 C 0.11063 0.52031 0.02012 0.0000 Uiso
C39_3 C 0.13037 0.49006 0.01656 0.0000 Uiso
O11_3 O 0.12097 0.57784 0.03671 0.0000 Uiso
H1_5 H 0.23930 0.29955 0.55796 0.0000 Uiso
H2_5 H 0.20022 0.25177 0.56815 0.0000 Uiso
H3_5 H 0.26590 0.21516 0.65068 0.0000 Uiso
H4_5 H 0.30512 0.26409 0.64045 0.0000 Uiso
C1_5 C 0.38758 0.34116 0.59954 0.0000 Uiso
C2_5 C 0.24539 0.28134 0.57823 0.0000 Uiso
C3_5 C 0.22295 0.25400 0.58431 0.0000 Uiso
C4_5 C 0.20386 0.20322 0.61834 0.0000 Uiso
C5_5 C 0.22969 0.22988 0.61063 0.0000 Uiso
C6_5 C 0.25994 0.23344 0.63037 0.0000 Uiso
C7_5 C 0.27503 0.28557 0.59839 0.0000 Uiso
C8_5 C 0.28234 0.26134 0.62449 0.0000 Uiso
C9_5 C 0.29697 0.31649 0.59246 0.0000 Uiso
C10_5 C 0.35193 0.34682 0.59911 0.0000 Uiso
C11_5 C 0.33944 0.38102 0.59949 0.0000 Uiso
O1_3 O 0.17216 0.21329 0.62097 0.0000 Uiso
O2_5 O 0.21433 0.17144 0.62108 0.0000 Uiso
N1_5 N 0.32912 0.31724 0.60188 0.0000 Uiso
H5_5 H 0.39757 0.31505 0.59998 0.0000 Uiso
H6_5 H 0.28524 0.33888 0.58059 0.0000 Uiso
H7_5 H 0.31210 0.38649 0.60059 0.0000 Uiso
Zr1_3 Zr 0.12500 0.18583 0.62500 0.0000 Uiso
O3_2 O 0.15590 0.15590 0.59410 0.0000 Uiso
O4_2 O 0.09270 0.15730 0.59270 0.0000 Uiso
H8_5 H 0.51070 0.45045 0.55796 0.0000 Uiso
H9_5 H 0.54978 0.49823 0.56815 0.0000 Uiso
H10_5 H 0.48410 0.53484 0.65068 0.0000 Uiso
H11_5 H 0.44488 0.48591 0.64045 0.0000 Uiso
C12_5 C 0.36242 0.40884 0.59954 0.0000 Uiso
C13_5 C 0.50461 0.46866 0.57823 0.0000 Uiso
C14_5 C 0.52705 0.49600 0.58431 0.0000 Uiso
C15_5 C 0.54614 0.54678 0.61834 0.0000 Uiso
C16_5 C 0.52031 0.52012 0.61063 0.0000 Uiso
C17_5 C 0.49006 0.51656 0.63037 0.0000 Uiso
C18_5 C 0.47497 0.46443 0.59839 0.0000 Uiso
C19_5 C 0.46766 0.48866 0.62449 0.0000 Uiso
C20_5 C 0.45303 0.43351 0.59246 0.0000 Uiso
C21_5 C 0.39807 0.40318 0.59911 0.0000 Uiso
C22_5 C 0.41056 0.36898 0.59949 0.0000 Uiso
O5_5 O 0.57784 0.53671 0.62097 0.0000 Uiso
O6_5 O 0.53567 0.57856 0.62108 0.0000 Uiso
N2_5 N 0.42088 0.43276 0.60188 0.0000 Uiso
H12_5 H 0.35243 0.43495 0.59998 0.0000 Uiso
H13_5 H 0.46476 0.41112 0.58059 0.0000 Uiso
H14_5 H 0.43790 0.36351 0.60059 0.0000 Uiso
O7_2 O 0.09410 0.15590 0.65590 0.0000 Uiso
O8_2 O 0.15730 0.15730 0.65730 0.0000 Uiso
H15_3 H 0.05796 0.23930 0.79955 0.0000 Uiso
H16_3 H 0.06815 0.20022 0.75177 0.0000 Uiso
H17_3 H 0.15068 0.26590 0.71516 0.0000 Uiso
H18_3 H 0.14045 0.30512 0.76409 0.0000 Uiso
C23_3 C 0.09954 0.38758 0.84116 0.0000 Uiso
C24_3 C 0.07823 0.24539 0.78134 0.0000 Uiso
C25_3 C 0.08431 0.22295 0.75400 0.0000 Uiso
C26_3 C 0.11834 0.20386 0.70322 0.0000 Uiso
C27_3 C 0.11063 0.22969 0.72988 0.0000 Uiso
C28_3 C 0.13037 0.25994 0.73344 0.0000 Uiso
C29_3 C 0.09839 0.27503 0.78557 0.0000 Uiso
C30_3 C 0.12449 0.28234 0.76134 0.0000 Uiso
C31_3 C 0.09246 0.29697 0.81649 0.0000 Uiso
C32_3 C 0.09911 0.35193 0.84682 0.0000 Uiso
C33_3 C 0.09949 0.33944 0.88102 0.0000 Uiso
O9_2 O 0.12097 0.17216 0.71329 0.0000 Uiso
O10_3 O 0.12108 0.21433 0.67144 0.0000 Uiso
N3_3 N 0.10188 0.32912 0.81724 0.0000 Uiso
H19_3 H 0.09998 0.39757 0.81505 0.0000 Uiso
H20_3 H 0.08059 0.28524 0.83888 0.0000 Uiso
H21_3 H 0.10059 0.31210 0.88649 0.0000 Uiso
Zr2_2 Zr 0.12500 0.12500 0.68583 0.0000 Uiso
H22_3 H 0.05796 0.51070 0.95045 0.0000 Uiso
H23_3 H 0.06815 0.54978 0.99823 0.0000 Uiso
H25_3 H 0.14045 0.44488 0.98591 0.0000 Uiso
C34_3 C 0.09954 0.36242 0.90884 0.0000 Uiso
C35_3 C 0.07823 0.50461 0.96866 0.0000 Uiso
C36_3 C 0.08431 0.52705 0.99600 0.0000 Uiso
C40_3 C 0.09839 0.47497 0.96443 0.0000 Uiso
C41_3 C 0.12449 0.46766 0.98866 0.0000 Uiso
C42_3 C 0.09246 0.45303 0.93351 0.0000 Uiso
C43_3 C 0.09911 0.39807 0.90318 0.0000 Uiso
C44_3 C 0.09949 0.41056 0.86898 0.0000 Uiso
N4_3 N 0.10188 0.42088 0.93276 0.0000 Uiso
H26_3 H 0.09998 0.35243 0.93495 0.0000 Uiso
H27_3 H 0.08059 0.46476 0.91112 0.0000 Uiso
H28_3 H 0.10059 0.43790 0.86351 0.0000 Uiso
H29_3 H 0.19204 0.23930 0.45045 0.0000 Uiso
H30_3 H 0.18185 0.20022 0.49823 0.0000 Uiso
H31_3 H 0.09932 0.26590 0.53484 0.0000 Uiso
H32_3 H 0.10955 0.30512 0.48591 0.0000 Uiso
C45_3 C 0.15046 0.38758 0.40884 0.0000 Uiso
C46_3 C 0.17177 0.24539 0.46866 0.0000 Uiso
C47_3 C 0.16569 0.22295 0.49600 0.0000 Uiso
C48_3 C 0.13166 0.20386 0.54678 0.0000 Uiso
C49_3 C 0.13937 0.22969 0.52012 0.0000 Uiso
C50_3 C 0.11963 0.25994 0.51656 0.0000 Uiso
C51_3 C 0.15161 0.27503 0.46443 0.0000 Uiso
C52_3 C 0.12551 0.28234 0.48866 0.0000 Uiso
C53_3 C 0.15754 0.29697 0.43351 0.0000 Uiso
C54_3 C 0.15089 0.35193 0.40318 0.0000 Uiso
C55_3 C 0.15051 0.33944 0.36898 0.0000 Uiso
O13_2 O 0.12903 0.17216 0.53671 0.0000 Uiso
O14_3 O 0.12892 0.21433 0.57856 0.0000 Uiso
N5_3 N 0.14812 0.32912 0.43276 0.0000 Uiso
H33_3 H 0.15002 0.39757 0.43495 0.0000 Uiso
H34_3 H 0.16941 0.28524 0.41112 0.0000 Uiso
H35_3 H 0.14941 0.31210 0.36351 0.0000 Uiso
Zr3_2 Zr 0.12500 0.12500 0.56417 0.0000 Uiso
H36_3 H 0.19204 0.51070 0.29955 0.0000 Uiso
H37_3 H 0.18185 0.54978 0.25177 0.0000 Uiso
H38_3 H 0.09932 0.48410 0.21516 0.0000 Uiso
H39_3 H 0.10955 0.44488 0.26409 0.0000 Uiso
C56_3 C 0.15046 0.36242 0.34116 0.0000 Uiso
C57_3 C 0.17177 0.50461 0.28134 0.0000 Uiso
C58_3 C 0.16569 0.52705 0.25400 0.0000 Uiso
C59_3 C 0.13166 0.54614 0.20322 0.0000 Uiso
C60_3 C 0.13937 0.52031 0.22988 0.0000 Uiso
C61_3 C 0.11963 0.49006 0.23344 0.0000 Uiso
C62_3 C 0.15161 0.47497 0.28557 0.0000 Uiso
C63_3 C 0.12551 0.46766 0.26134 0.0000 Uiso
C64_3 C 0.15754 0.45303 0.31649 0.0000 Uiso
C65_3 C 0.15089 0.39807 0.34682 0.0000 Uiso
C66_3 C 0.15051 0.41056 0.38102 0.0000 Uiso
O15_3 O 0.12903 0.57784 0.21329 0.0000 Uiso
N6_3 N 0.14812 0.42088 0.31724 0.0000 Uiso
H40_3 H 0.15002 0.35243 0.31505 0.0000 Uiso
H41_3 H 0.16941 0.46476 0.33888 0.0000 Uiso
H42_3 H 0.14941 0.43790 0.38649 0.0000 Uiso
O17_3 O 0.07784 0.21329 0.62903 0.0000 Uiso
O18_2 O 0.12097 0.07784 0.53671 0.0000 Uiso
O19_2 O 0.12903 0.07784 0.71329 0.0000 Uiso
O20_2 O 0.17144 0.12108 0.71433 0.0000 Uiso
O21_2 O 0.07856 0.12892 0.71433 0.0000 Uiso
O22_2 O 0.07856 0.12108 0.53567 0.0000 Uiso
O23_2 O 0.17144 0.12892 0.53567 0.0000 Uiso
Zr5_3 Zr 0.62500 0.56417 0.62500 0.0000 Uiso
Zr10_2 Zr 0.18583 0.12500 0.62500 0.0000 Uiso
Zr11_2 Zr 0.06417 0.12500 0.62500 0.0000 Uiso
O24_2 O 0.15590 0.09410 0.65590 0.0000 Uiso
O25_2 O 0.09410 0.09410 0.59410 0.0000 Uiso
O26_2 O 0.09270 0.09270 0.65730 0.0000 Uiso
O27_2 O 0.15730 0.09270 0.59270 0.0000 Uiso
H3_6 H 0.26590 0.03484 0.59932 0.0000 Uiso
C4_6 C 0.20386 0.04678 0.63166 0.0000 Uiso
C5_6 C 0.22969 0.02012 0.63937 0.0000 Uiso
C6_6 C 0.25994 0.01656 0.61963 0.0000 Uiso
O1_4 O 0.17216 0.03671 0.62903 0.0000 Uiso
O2_6 O 0.21433 0.07856 0.62892 0.0000 Uiso
Zr1_4 Zr 0.12500 0.06417 0.62500 0.0000 Uiso
H15_4 H 0.05796 0.01070 0.45045 0.0000 Uiso
H16_4 H 0.06815 0.04978 0.49823 0.0000 Uiso
C24_4 C 0.07823 0.00461 0.46866 0.0000 Uiso
C25_4 C 0.08431 0.02705 0.49600 0.0000 Uiso
C26_4 C 0.11834 0.04614 0.54678 0.0000 Uiso
C27_4 C 0.11063 0.02031 0.52012 0.0000 Uiso
O10_4 O 0.12108 0.03567 0.57856 0.0000 Uiso
H29_4 H 0.19204 0.01070 0.79955 0.0000 Uiso
H30_4 H 0.18185 0.04978 0.75177 0.0000 Uiso
C46_4 C 0.17177 0.00461 0.78134 0.0000 Uiso
C47_4 C 0.16569 0.02705 0.75400 0.0000 Uiso
C48_4 C 0.13166 0.04614 0.70322 0.0000 Uiso
C49_4 C 0.13937 0.02031 0.72988 0.0000 Uiso
O14_4 O 0.12892 0.03567 0.67144 0.0000 Uiso
O17_4 O 0.07784 0.03671 0.62097 0.0000 Uiso
H38_4 H 0.09932 0.76590 0.03484 0.0000 Uiso
C59_4 C 0.13166 0.70386 0.04678 0.0000 Uiso
C60_4 C 0.13937 0.72969 0.02012 0.0000 Uiso
C61_4 C 0.11963 0.75994 0.01656 0.0000 Uiso
O15_4 O 0.12903 0.67216 0.03671 0.0000 Uiso
H1_6 H 0.23930 0.95045 0.69204 0.0000 Uiso
H2_6 H 0.20022 0.99823 0.68185 0.0000 Uiso
H4_6 H 0.30512 0.98591 0.60955 0.0000 Uiso
C1_6 C 0.38758 0.90884 0.65046 0.0000 Uiso
C2_6 C 0.24539 0.96866 0.67177 0.0000 Uiso
C3_6 C 0.22295 0.99600 0.66569 0.0000 Uiso
C7_6 C 0.27503 0.96443 0.65161 0.0000 Uiso
C8_6 C 0.28234 0.98866 0.62551 0.0000 Uiso
C9_6 C 0.29697 0.93351 0.65754 0.0000 Uiso
C10_6 C 0.35193 0.90318 0.65089 0.0000 Uiso
C11_6 C 0.33944 0.86898 0.65051 0.0000 Uiso
N1_6 N 0.32912 0.93276 0.64812 0.0000 Uiso
H5_6 H 0.39757 0.93495 0.65002 0.0000 Uiso
H6_6 H 0.28524 0.91112 0.66941 0.0000 Uiso
H7_6 H 0.31210 0.86351 0.64941 0.0000 Uiso
H8_6 H 0.51070 0.79955 0.69204 0.0000 Uiso
H9_6 H 0.54978 0.75177 0.68185 0.0000 Uiso
H10_6 H 0.48410 0.71516 0.59932 0.0000 Uiso
H11_6 H 0.44488 0.76409 0.60955 0.0000 Uiso
C12_6 C 0.36242 0.84116 0.65046 0.0000 Uiso
C13_6 C 0.50461 0.78134 0.67177 0.0000 Uiso
C14_6 C 0.52705 0.75400 0.66569 0.0000 Uiso
C15_6 C 0.54614 0.70322 0.63166 0.0000 Uiso
C16_6 C 0.52031 0.72988 0.63937 0.0000 Uiso
C17_6 C 0.49006 0.73344 0.61963 0.0000 Uiso
C18_6 C 0.47497 0.78557 0.65161 0.0000 Uiso
C19_6 C 0.46766 0.76134 0.62551 0.0000 Uiso
C20_6 C 0.45303 0.81649 0.65754 0.0000 Uiso
C21_6 C 0.39807 0.84682 0.65089 0.0000 Uiso
C22_6 C 0.41056 0.88102 0.65051 0.0000 Uiso
O5_6 O 0.57784 0.71329 0.62903 0.0000 Uiso
O6_6 O 0.53567 0.67144 0.62892 0.0000 Uiso
N2_6 N 0.42088 0.81724 0.64812 0.0000 Uiso
H12_6 H 0.35243 0.81505 0.65002 0.0000 Uiso
H13_6 H 0.46476 0.83888 0.66941 0.0000 Uiso
H14_6 H 0.43790 0.88649 0.64941 0.0000 Uiso
H17_4 H 0.15068 0.98410 0.53484 0.0000 Uiso
H18_4 H 0.14045 0.94488 0.48591 0.0000 Uiso
C23_4 C 0.09954 0.86242 0.40884 0.0000 Uiso
C28_4 C 0.13037 0.99006 0.51656 0.0000 Uiso
C29_4 C 0.09839 0.97497 0.46443 0.0000 Uiso
C30_4 C 0.12449 0.96766 0.48866 0.0000 Uiso
C31_4 C 0.09246 0.95303 0.43351 0.0000 Uiso
C32_4 C 0.09911 0.89807 0.40318 0.0000 Uiso
C33_4 C 0.09949 0.91056 0.36898 0.0000 Uiso
N3_4 N 0.10188 0.92088 0.43276 0.0000 Uiso
H19_4 H 0.09998 0.85243 0.43495 0.0000 Uiso
H20_4 H 0.08059 0.96476 0.41112 0.0000 Uiso
H21_4 H 0.10059 0.93790 0.36351 0.0000 Uiso
H22_4 H 0.05796 0.73930 0.29955 0.0000 Uiso
H23_4 H 0.06815 0.70022 0.25177 0.0000 Uiso
H24_4 H 0.15068 0.76590 0.21516 0.0000 Uiso
H25_4 H 0.14045 0.80512 0.26409 0.0000 Uiso
C34_4 C 0.09954 0.88758 0.34116 0.0000 Uiso
C35_4 C 0.07823 0.74539 0.28134 0.0000 Uiso
C36_4 C 0.08431 0.72295 0.25400 0.0000 Uiso
C37_4 C 0.11834 0.70386 0.20322 0.0000 Uiso
C38_4 C 0.11063 0.72969 0.22988 0.0000 Uiso
C39_4 C 0.13037 0.75994 0.23344 0.0000 Uiso
C40_4 C 0.09839 0.77503 0.28557 0.0000 Uiso
C41_4 C 0.12449 0.78234 0.26134 0.0000 Uiso
C42_4 C 0.09246 0.79697 0.31649 0.0000 Uiso
C43_4 C 0.09911 0.85193 0.34682 0.0000 Uiso
C44_4 C 0.09949 0.83944 0.38102 0.0000 Uiso
O11_4 O 0.12097 0.67216 0.21329 0.0000 Uiso
N4_4 N 0.10188 0.82912 0.31724 0.0000 Uiso
H26_4 H 0.09998 0.89757 0.31505 0.0000 Uiso
H27_4 H 0.08059 0.78524 0.33888 0.0000 Uiso
H28_4 H 0.10059 0.81210 0.38649 0.0000 Uiso
H31_4 H 0.09932 0.98410 0.71516 0.0000 Uiso
H32_4 H 0.10955 0.94488 0.76409 0.0000 Uiso
C45_4 C 0.15046 0.86242 0.84116 0.0000 Uiso
C50_4 C 0.11963 0.99006 0.73344 0.0000 Uiso
C51_4 C 0.15161 0.97497 0.78557 0.0000 Uiso
C52_4 C 0.12551 0.96766 0.76134 0.0000 Uiso
C53_4 C 0.15754 0.95303 0.81649 0.0000 Uiso
C54_4 C 0.15089 0.89807 0.84682 0.0000 Uiso
C55_4 C 0.15051 0.91056 0.88102 0.0000 Uiso
N5_4 N 0.14812 0.92088 0.81724 0.0000 Uiso
H33_4 H 0.15002 0.85243 0.81505 0.0000 Uiso
H34_4 H 0.16941 0.96476 0.83888 0.0000 Uiso
H35_4 H 0.14941 0.93790 0.88649 0.0000 Uiso
H36_4 H 0.19204 0.73930 0.95045 0.0000 Uiso
H37_4 H 0.18185 0.70022 0.99823 0.0000 Uiso
H39_4 H 0.10955 0.80512 0.98591 0.0000 Uiso
C56_4 C 0.15046 0.88758 0.90884 0.0000 Uiso
C57_4 C 0.17177 0.74539 0.96866 0.0000 Uiso
C58_4 C 0.16569 0.72295 0.99600 0.0000 Uiso
C62_4 C 0.15161 0.77503 0.96443 0.0000 Uiso
C63_4 C 0.12551 0.78234 0.98866 0.0000 Uiso
C64_4 C 0.15754 0.79697 0.93351 0.0000 Uiso
C65_4 C 0.15089 0.85193 0.90318 0.0000 Uiso
C66_4 C 0.15051 0.83944 0.86898 0.0000 Uiso
N6_4 N 0.14812 0.82912 0.93276 0.0000 Uiso
H40_4 H 0.15002 0.89757 0.93495 0.0000 Uiso
H41_4 H 0.16941 0.78524 0.91112 0.0000 Uiso
H42_4 H 0.14941 0.81210 0.86351 0.0000 Uiso
Zr5_4 Zr 0.62500 0.68583 0.62500 0.0000 Uiso
C4_7 C 0.04614 0.04678 0.61834 0.0000 Uiso
C5_7 C 0.02031 0.02012 0.61063 0.0000 Uiso
O2_7 O 0.03567 0.07856 0.62108 0.0000 Uiso
H1_7 H 0.01070 0.95045 0.55796 0.0000 Uiso
H2_7 H 0.04978 0.99823 0.56815 0.0000 Uiso
C2_7 C 0.00461 0.96866 0.57823 0.0000 Uiso
C3_7 C 0.02705 0.99600 0.58431 0.0000 Uiso
H3_7 H 0.98410 0.03484 0.65068 0.0000 Uiso
C6_7 C 0.99006 0.01656 0.63037 0.0000 Uiso
H4_7 H 0.94488 0.98591 0.64045 0.0000 Uiso
C1_7 C 0.86242 0.90884 0.59954 0.0000 Uiso
C7_7 C 0.97497 0.96443 0.59839 0.0000 Uiso
C8_7 C 0.96766 0.98866 0.62449 0.0000 Uiso
C9_7 C 0.95303 0.93351 0.59246 0.0000 Uiso
C10_7 C 0.89807 0.90318 0.59911 0.0000 Uiso
C11_7 C 0.91056 0.86898 0.59949 0.0000 Uiso
N1_7 N 0.92088 0.93276 0.60188 0.0000 Uiso
H5_7 H 0.85243 0.93495 0.59998 0.0000 Uiso
H6_7 H 0.96476 0.91112 0.58059 0.0000 Uiso
H7_7 H 0.93790 0.86351 0.60059 0.0000 Uiso
H8_7 H 0.73930 0.79955 0.55796 0.0000 Uiso
H9_7 H 0.70022 0.75177 0.56815 0.0000 Uiso
H10_7 H 0.76590 0.71516 0.65068 0.0000 Uiso
H11_7 H 0.80512 0.76409 0.64045 0.0000 Uiso
C12_7 C 0.88758 0.84116 0.59954 0.0000 Uiso
C13_7 C 0.74539 0.78134 0.57823 0.0000 Uiso
C14_7 C 0.72295 0.75400 0.58431 0.0000 Uiso
C15_7 C 0.70386 0.70322 0.61834 0.0000 Uiso
C16_7 C 0.72969 0.72988 0.61063 0.0000 Uiso
C17_7 C 0.75994 0.73344 0.63037 0.0000 Uiso
C18_7 C 0.77503 0.78557 0.59839 0.0000 Uiso
C19_7 C 0.78234 0.76134 0.62449 0.0000 Uiso
C20_7 C 0.79697 0.81649 0.59246 0.0000 Uiso
C21_7 C 0.85193 0.84682 0.59911 0.0000 Uiso
C22_7 C 0.83944 0.88102 0.59949 0.0000 Uiso
O5_7 O 0.67216 0.71329 0.62097 0.0000 Uiso
O6_7 O 0.71433 0.67144 0.62108 0.0000 Uiso
N2_7 N 0.82912 0.81724 0.60188 0.0000 Uiso
H12_7 H 0.89757 0.81505 0.59998 0.0000 Uiso
H13_7 H 0.78524 0.83888 0.58059 0.0000 Uiso
H14_7 H 0.81210 0.88649 0.60059 0.0000 Uiso
H1_8 H 0.01070 0.29955 0.69204 0.0000 Uiso
H2_8 H 0.04978 0.25177 0.68185 0.0000 Uiso
C2_8 C 0.00461 0.28134 0.67177 0.0000 Uiso
C3_8 C 0.02705 0.25400 0.66569 0.0000 Uiso
C4_8 C 0.04614 0.20322 0.63166 0.0000 Uiso
C5_8 C 0.02031 0.22988 0.63937 0.0000 Uiso
O2_8 O 0.03567 0.17144 0.62892 0.0000 Uiso
H3_8 H 0.98410 0.21516 0.59932 0.0000 Uiso
H4_8 H 0.94488 0.26409 0.60955 0.0000 Uiso
C1_8 C 0.86242 0.34116 0.65046 0.0000 Uiso
C6_8 C 0.99006 0.23344 0.61963 0.0000 Uiso
C7_8 C 0.97497 0.28557 0.65161 0.0000 Uiso
C8_8 C 0.96766 0.26134 0.62551 0.0000 Uiso
C9_8 C 0.95303 0.31649 0.65754 0.0000 Uiso
C10_8 C 0.89807 0.34682 0.65089 0.0000 Uiso
C11_8 C 0.91056 0.38102 0.65051 0.0000 Uiso
N1_8 N 0.92088 0.31724 0.64812 0.0000 Uiso
H5_8 H 0.85243 0.31505 0.65002 0.0000 Uiso
H6_8 H 0.96476 0.33888 0.66941 0.0000 Uiso
H7_8 H 0.93790 0.38649 0.64941 0.0000 Uiso
H8_8 H 0.73930 0.45045 0.69204 0.0000 Uiso
H9_8 H 0.70022 0.49823 0.68185 0.0000 Uiso
H10_8 H 0.76590 0.53484 0.59932 0.0000 Uiso
H11_8 H 0.80512 0.48591 0.60955 0.0000 Uiso
C12_8 C 0.88758 0.40884 0.65046 0.0000 Uiso
C13_8 C 0.74539 0.46866 0.67177 0.0000 Uiso
C14_8 C 0.72295 0.49600 0.66569 0.0000 Uiso
C15_8 C 0.70386 0.54678 0.63166 0.0000 Uiso
C16_8 C 0.72969 0.52012 0.63937 0.0000 Uiso
C17_8 C 0.75994 0.51656 0.61963 0.0000 Uiso
C18_8 C 0.77503 0.46443 0.65161 0.0000 Uiso
C19_8 C 0.78234 0.48866 0.62551 0.0000 Uiso
C20_8 C 0.79697 0.43351 0.65754 0.0000 Uiso
C21_8 C 0.85193 0.40318 0.65089 0.0000 Uiso
C22_8 C 0.83944 0.36898 0.65051 0.0000 Uiso
O5_8 O 0.67216 0.53671 0.62903 0.0000 Uiso
O6_8 O 0.71433 0.57856 0.62892 0.0000 Uiso
N2_8 N 0.82912 0.43276 0.64812 0.0000 Uiso
H12_8 H 0.89757 0.43495 0.65002 0.0000 Uiso
H13_8 H 0.78524 0.41112 0.66941 0.0000 Uiso
H14_8 H 0.81210 0.36351 0.64941 0.0000 Uiso
H24_5 H 0.03484 0.15068 0.48410 0.0000 Uiso
C37_5 C 0.04678 0.11834 0.54614 0.0000 Uiso
C38_5 C 0.02012 0.11063 0.52031 0.0000 Uiso
C39_5 C 0.01656 0.13037 0.49006 0.0000 Uiso
O11_5 O 0.03671 0.12097 0.57784 0.0000 Uiso
H1_9 H 0.55796 0.23930 0.29955 0.0000 Uiso
H2_9 H 0.56815 0.20022 0.25177 0.0000 Uiso
H3_9 H 0.65068 0.26590 0.21516 0.0000 Uiso
H4_9 H 0.64045 0.30512 0.26409 0.0000 Uiso
C1_9 C 0.59954 0.38758 0.34116 0.0000 Uiso
C2_9 C 0.57823 0.24539 0.28134 0.0000 Uiso
C3_9 C 0.58431 0.22295 0.25400 0.0000 Uiso
C4_9 C 0.61834 0.20386 0.20322 0.0000 Uiso
C5_9 C 0.61063 0.22969 0.22988 0.0000 Uiso
C6_9 C 0.63037 0.25994 0.23344 0.0000 Uiso
C7_9 C 0.59839 0.27503 0.28557 0.0000 Uiso
C8_9 C 0.62449 0.28234 0.26134 0.0000 Uiso
C9_9 C 0.59246 0.29697 0.31649 0.0000 Uiso
C10_9 C 0.59911 0.35193 0.34682 0.0000 Uiso
C11_9 C 0.59949 0.33944 0.38102 0.0000 Uiso
O1_5 O 0.62097 0.17216 0.21329 0.0000 Uiso
O2_9 O 0.62108 0.21433 0.17144 0.0000 Uiso
N1_9 N 0.60188 0.32912 0.31724 0.0000 Uiso
H5_9 H 0.59998 0.39757 0.31505 0.0000 Uiso
H6_9 H 0.58059 0.28524 0.33888 0.0000 Uiso
H7_9 H 0.60059 0.31210 0.38649 0.0000 Uiso
Zr1_5 Zr 0.62500 0.12500 0.18583 0.0000 Uiso
O3_3 O 0.59410 0.15590 0.15590 0.0000 Uiso
O4_3 O 0.59270 0.09270 0.15730 0.0000 Uiso
H8_9 H 0.55796 0.51070 0.45045 0.0000 Uiso
H9_9 H 0.56815 0.54978 0.49823 0.0000 Uiso
H10_9 H 0.65068 0.48410 0.53484 0.0000 Uiso
H11_9 H 0.64045 0.44488 0.48591 0.0000 Uiso
C12_9 C 0.59954 0.36242 0.40884 0.0000 Uiso
C13_9 C 0.57823 0.50461 0.46866 0.0000 Uiso
C14_9 C 0.58431 0.52705 0.49600 0.0000 Uiso
C15_9 C 0.61834 0.54614 0.54678 0.0000 Uiso
C16_9 C 0.61063 0.52031 0.52012 0.0000 Uiso
C17_9 C 0.63037 0.49006 0.51656 0.0000 Uiso
C18_9 C 0.59839 0.47497 0.46443 0.0000 Uiso
C19_9 C 0.62449 0.46766 0.48866 0.0000 Uiso
C20_9 C 0.59246 0.45303 0.43351 0.0000 Uiso
C21_9 C 0.59911 0.39807 0.40318 0.0000 Uiso
C22_9 C 0.59949 0.41056 0.36898 0.0000 Uiso
O5_9 O 0.62097 0.57784 0.53671 0.0000 Uiso
O6_9 O 0.62108 0.53567 0.57856 0.0000 Uiso
N2_9 N 0.60188 0.42088 0.43276 0.0000 Uiso
H12_9 H 0.59998 0.35243 0.43495 0.0000 Uiso
H13_9 H 0.58059 0.46476 0.41112 0.0000 Uiso
H14_9 H 0.60059 0.43790 0.36351 0.0000 Uiso
O7_3 O 0.65590 0.09410 0.15590 0.0000 Uiso
O8_3 O 0.65730 0.15730 0.15730 0.0000 Uiso
H15_5 H 0.79955 0.05796 0.23930 0.0000 Uiso
H16_5 H 0.75177 0.06815 0.20022 0.0000 Uiso
H17_5 H 0.71516 0.15068 0.26590 0.0000 Uiso
H18_5 H 0.76409 0.14045 0.30512 0.0000 Uiso
C23_5 C 0.84116 0.09954 0.38758 0.0000 Uiso
C24_5 C 0.78134 0.07823 0.24539 0.0000 Uiso
C25_5 C 0.75400 0.08431 0.22295 0.0000 Uiso
C26_5 C 0.70322 0.11834 0.20386 0.0000 Uiso
C27_5 C 0.72988 0.11063 0.22969 0.0000 Uiso
C28_5 C 0.73344 0.13037 0.25994 0.0000 Uiso
C29_5 C 0.78557 0.09839 0.27503 0.0000 Uiso
C30_5 C 0.76134 0.12449 0.28234 0.0000 Uiso
C31_5 C 0.81649 0.09246 0.29697 0.0000 Uiso
C32_5 C 0.84682 0.09911 0.35193 0.0000 Uiso
C33_5 C 0.88102 0.09949 0.33944 0.0000 Uiso
O9_3 O 0.71329 0.12097 0.17216 0.0000 Uiso
O10_5 O 0.67144 0.12108 0.21433 0.0000 Uiso
N3_5 N 0.81724 0.10188 0.32912 0.0000 Uiso
H19_5 H 0.81505 0.09998 0.39757 0.0000 Uiso
H20_5 H 0.83888 0.08059 0.28524 0.0000 Uiso
H21_5 H 0.88649 0.10059 0.31210 0.0000 Uiso
H22_5 H 0.95045 0.05796 0.51070 0.0000 Uiso
H23_5 H 0.99823 0.06815 0.54978 0.0000 Uiso
H25_5 H 0.98591 0.14045 0.44488 0.0000 Uiso
C34_5 C 0.90884 0.09954 0.36242 0.0000 Uiso
C35_5 C 0.96866 0.07823 0.50461 0.0000 Uiso
C36_5 C 0.99600 0.08431 0.52705 0.0000 Uiso
C40_5 C 0.96443 0.09839 0.47497 0.0000 Uiso
C41_5 C 0.98866 0.12449 0.46766 0.0000 Uiso
C42_5 C 0.93351 0.09246 0.45303 0.0000 Uiso
C43_5 C 0.90318 0.09911 0.39807 0.0000 Uiso
C44_5 C 0.86898 0.09949 0.41056 0.0000 Uiso
N4_5 N 0.93276 0.10188 0.42088 0.0000 Uiso
H26_5 H 0.93495 0.09998 0.35243 0.0000 Uiso
H27_5 H 0.91112 0.08059 0.46476 0.0000 Uiso
H28_5 H 0.86351 0.10059 0.43790 0.0000 Uiso
H29_5 H 0.45045 0.19204 0.23930 0.0000 Uiso
H30_5 H 0.49823 0.18185 0.20022 0.0000 Uiso
H31_5 H 0.53484 0.09932 0.26590 0.0000 Uiso
H32_5 H 0.48591 0.10955 0.30512 0.0000 Uiso
C45_5 C 0.40884 0.15046 0.38758 0.0000 Uiso
C46_5 C 0.46866 0.17177 0.24539 0.0000 Uiso
C47_5 C 0.49600 0.16569 0.22295 0.0000 Uiso
C48_5 C 0.54678 0.13166 0.20386 0.0000 Uiso
C49_5 C 0.52012 0.13937 0.22969 0.0000 Uiso
C50_5 C 0.51656 0.11963 0.25994 0.0000 Uiso
C51_5 C 0.46443 0.15161 0.27503 0.0000 Uiso
C52_5 C 0.48866 0.12551 0.28234 0.0000 Uiso
C53_5 C 0.43351 0.15754 0.29697 0.0000 Uiso
C54_5 C 0.40318 0.15089 0.35193 0.0000 Uiso
C55_5 C 0.36898 0.15051 0.33944 0.0000 Uiso
O13_3 O 0.53671 0.12903 0.17216 0.0000 Uiso
O14_5 O 0.57856 0.12892 0.21433 0.0000 Uiso
N5_5 N 0.43276 0.14812 0.32912 0.0000 Uiso
H33_5 H 0.43495 0.15002 0.39757 0.0000 Uiso
H34_5 H 0.41112 0.16941 0.28524 0.0000 Uiso
H35_5 H 0.36351 0.14941 0.31210 0.0000 Uiso
H36_5 H 0.29955 0.19204 0.51070 0.0000 Uiso
H37_5 H 0.25177 0.18185 0.54978 0.0000 Uiso
H38_5 H 0.21516 0.09932 0.48410 0.0000 Uiso
H39_5 H 0.26409 0.10955 0.44488 0.0000 Uiso
C56_5 C 0.34116 0.15046 0.36242 0.0000 Uiso
C57_5 C 0.28134 0.17177 0.50461 0.0000 Uiso
C58_5 C 0.25400 0.16569 0.52705 0.0000 Uiso
C59_5 C 0.20322 0.13166 0.54614 0.0000 Uiso
C60_5 C 0.22988 0.13937 0.52031 0.0000 Uiso
C61_5 C 0.23344 0.11963 0.49006 0.0000 Uiso
C62_5 C 0.28557 0.15161 0.47497 0.0000 Uiso
C63_5 C 0.26134 0.12551 0.46766 0.0000 Uiso
C64_5 C 0.31649 0.15754 0.45303 0.0000 Uiso
C65_5 C 0.34682 0.15089 0.39807 0.0000 Uiso
C66_5 C 0.38102 0.15051 0.41056 0.0000 Uiso
O15_5 O 0.21329 0.12903 0.57784 0.0000 Uiso
N6_5 N 0.31724 0.14812 0.42088 0.0000 Uiso
H40_5 H 0.31505 0.15002 0.35243 0.0000 Uiso
H41_5 H 0.33888 0.16941 0.46476 0.0000 Uiso
H42_5 H 0.38649 0.14941 0.43790 0.0000 Uiso
O17_5 O 0.62903 0.07784 0.21329 0.0000 Uiso
O18_3 O 0.53671 0.12097 0.07784 0.0000 Uiso
O19_3 O 0.71329 0.12903 0.07784 0.0000 Uiso
O24_3 O 0.65590 0.15590 0.09410 0.0000 Uiso
O25_3 O 0.59410 0.09410 0.09410 0.0000 Uiso
O26_3 O 0.65730 0.09270 0.09270 0.0000 Uiso
O27_3 O 0.59270 0.15730 0.09270 0.0000 Uiso
H38_6 H 0.03484 0.09932 0.76590 0.0000 Uiso
C59_6 C 0.04678 0.13166 0.70386 0.0000 Uiso
C60_6 C 0.02012 0.13937 0.72969 0.0000 Uiso
C61_6 C 0.01656 0.11963 0.75994 0.0000 Uiso
O15_6 O 0.03671 0.12903 0.67216 0.0000 Uiso
H3_10 H 0.59932 0.26590 0.03484 0.0000 Uiso
C4_10 C 0.63166 0.20386 0.04678 0.0000 Uiso
C5_10 C 0.63937 0.22969 0.02012 0.0000 Uiso
C6_10 C 0.61963 0.25994 0.01656 0.0000 Uiso
O1_6 O 0.62903 0.17216 0.03671 0.0000 Uiso
O2_10 O 0.62892 0.21433 0.07856 0.0000 Uiso
Zr1_6 Zr 0.62500 0.12500 0.06417 0.0000 Uiso
H15_6 H 0.45045 0.05796 0.01070 0.0000 Uiso
H16_6 H 0.49823 0.06815 0.04978 0.0000 Uiso
C24_6 C 0.46866 0.07823 0.00461 0.0000 Uiso
C25_6 C 0.49600 0.08431 0.02705 0.0000 Uiso
C26_6 C 0.54678 0.11834 0.04614 0.0000 Uiso
C27_6 C 0.52012 0.11063 0.02031 0.0000 Uiso
O10_6 O 0.57856 0.12108 0.03567 0.0000 Uiso
H29_6 H 0.79955 0.19204 0.01070 0.0000 Uiso
H30_6 H 0.75177 0.18185 0.04978 0.0000 Uiso
C46_6 C 0.78134 0.17177 0.00461 0.0000 Uiso
C47_6 C 0.75400 0.16569 0.02705 0.0000 Uiso
C48_6 C 0.70322 0.13166 0.04614 0.0000 Uiso
C49_6 C 0.72988 0.13937 0.02031 0.0000 Uiso
O14_6 O 0.67144 0.12892 0.03567 0.0000 Uiso
O17_6 O 0.62097 0.07784 0.03671 0.0000 Uiso
H1_10 H 0.69204 0.23930 0.95045 0.0000 Uiso
H2_10 H 0.68185 0.20022 0.99823 0.0000 Uiso
H4_10 H 0.60955 0.30512 0.98591 0.0000 Uiso
C1_10 C 0.65046 0.38758 0.90884 0.0000 Uiso
C2_10 C 0.67177 0.24539 0.96866 0.0000 Uiso
C3_10 C 0.66569 0.22295 0.99600 0.0000 Uiso
C7_10 C 0.65161 0.27503 0.96443 0.0000 Uiso
C8_10 C 0.62551 0.28234 0.98866 0.0000 Uiso
C9_10 C 0.65754 0.29697 0.93351 0.0000 Uiso
C10_10 C 0.65089 0.35193 0.90318 0.0000 Uiso
C11_10 C 0.65051 0.33944 0.86898 0.0000 Uiso
N1_10 N 0.64812 0.32912 0.93276 0.0000 Uiso
H5_10 H 0.65002 0.39757 0.93495 0.0000 Uiso
H6_10 H 0.66941 0.28524 0.91112 0.0000 Uiso
H7_10 H 0.64941 0.31210 0.86351 0.0000 Uiso
H8_10 H 0.69204 0.51070 0.79955 0.0000 Uiso
H9_10 H 0.68185 0.54978 0.75177 0.0000 Uiso
H10_10 H 0.59932 0.48410 0.71516 0.0000 Uiso
H11_10 H 0.60955 0.44488 0.76409 0.0000 Uiso
C12_10 C 0.65046 0.36242 0.84116 0.0000 Uiso
C13_10 C 0.67177 0.50461 0.78134 0.0000 Uiso
C14_10 C 0.66569 0.52705 0.75400 0.0000 Uiso
C15_10 C 0.63166 0.54614 0.70322 0.0000 Uiso
C16_10 C 0.63937 0.52031 0.72988 0.0000 Uiso
C17_10 C 0.61963 0.49006 0.73344 0.0000 Uiso
C18_10 C 0.65161 0.47497 0.78557 0.0000 Uiso
C19_10 C 0.62551 0.46766 0.76134 0.0000 Uiso
C20_10 C 0.65754 0.45303 0.81649 0.0000 Uiso
C21_10 C 0.65089 0.39807 0.84682 0.0000 Uiso
C22_10 C 0.65051 0.41056 0.88102 0.0000 Uiso
O5_10 O 0.62903 0.57784 0.71329 0.0000 Uiso
O6_10 O 0.62892 0.53567 0.67144 0.0000 Uiso
N2_10 N 0.64812 0.42088 0.81724 0.0000 Uiso
H12_10 H 0.65002 0.35243 0.81505 0.0000 Uiso
H13_10 H 0.66941 0.46476 0.83888 0.0000 Uiso
H14_10 H 0.64941 0.43790 0.88649 0.0000 Uiso
H17_6 H 0.53484 0.15068 0.98410 0.0000 Uiso
H18_6 H 0.48591 0.14045 0.94488 0.0000 Uiso
C23_6 C 0.40884 0.09954 0.86242 0.0000 Uiso
C28_6 C 0.51656 0.13037 0.99006 0.0000 Uiso
C29_6 C 0.46443 0.09839 0.97497 0.0000 Uiso
C30_6 C 0.48866 0.12449 0.96766 0.0000 Uiso
C31_6 C 0.43351 0.09246 0.95303 0.0000 Uiso
C32_6 C 0.40318 0.09911 0.89807 0.0000 Uiso
C33_6 C 0.36898 0.09949 0.91056 0.0000 Uiso
N3_6 N 0.43276 0.10188 0.92088 0.0000 Uiso
H19_6 H 0.43495 0.09998 0.85243 0.0000 Uiso
H20_6 H 0.41112 0.08059 0.96476 0.0000 Uiso
H21_6 H 0.36351 0.10059 0.93790 0.0000 Uiso
H22_6 H 0.29955 0.05796 0.73930 0.0000 Uiso
H23_6 H 0.25177 0.06815 0.70022 0.0000 Uiso
H24_6 H 0.21516 0.15068 0.76590 0.0000 Uiso
H25_6 H 0.26409 0.14045 0.80512 0.0000 Uiso
C34_6 C 0.34116 0.09954 0.88758 0.0000 Uiso
C35_6 C 0.28134 0.07823 0.74539 0.0000 Uiso
C36_6 C 0.25400 0.08431 0.72295 0.0000 Uiso
C37_6 C 0.20322 0.11834 0.70386 0.0000 Uiso
C38_6 C 0.22988 0.11063 0.72969 0.0000 Uiso
C39_6 C 0.23344 0.13037 0.75994 0.0000 Uiso
C40_6 C 0.28557 0.09839 0.77503 0.0000 Uiso
C41_6 C 0.26134 0.12449 0.78234 0.0000 Uiso
C42_6 C 0.31649 0.09246 0.79697 0.0000 Uiso
C43_6 C 0.34682 0.09911 0.85193 0.0000 Uiso
C44_6 C 0.38102 0.09949 0.83944 0.0000 Uiso
O11_6 O 0.21329 0.12097 0.67216 0.0000 Uiso
N4_6 N 0.31724 0.10188 0.82912 0.0000 Uiso
H26_6 H 0.31505 0.09998 0.89757 0.0000 Uiso
H27_6 H 0.33888 0.08059 0.78524 0.0000 Uiso
H28_6 H 0.38649 0.10059 0.81210 0.0000 Uiso
H31_6 H 0.71516 0.09932 0.98410 0.0000 Uiso
H32_6 H 0.76409 0.10955 0.94488 0.0000 Uiso
C45_6 C 0.84116 0.15046 0.86242 0.0000 Uiso
C50_6 C 0.73344 0.11963 0.99006 0.0000 Uiso
C51_6 C 0.78557 0.15161 0.97497 0.0000 Uiso
C52_6 C 0.76134 0.12551 0.96766 0.0000 Uiso
C53_6 C 0.81649 0.15754 0.95303 0.0000 Uiso
C54_6 C 0.84682 0.15089 0.89807 0.0000 Uiso
C55_6 C 0.88102 0.15051 0.91056 0.0000 Uiso
N5_6 N 0.81724 0.14812 0.92088 0.0000 Uiso
H33_6 H 0.81505 0.15002 0.85243 0.0000 Uiso
H34_6 H 0.83888 0.16941 0.96476 0.0000 Uiso
H35_6 H 0.88649 0.14941 0.93790 0.0000 Uiso
H36_6 H 0.95045 0.19204 0.73930 0.0000 Uiso
H37_6 H 0.99823 0.18185 0.70022 0.0000 Uiso
H39_6 H 0.98591 0.10955 0.80512 0.0000 Uiso
C56_6 C 0.90884 0.15046 0.88758 0.0000 Uiso
C57_6 C 0.96866 0.17177 0.74539 0.0000 Uiso
C58_6 C 0.99600 0.16569 0.72295 0.0000 Uiso
C62_6 C 0.96443 0.15161 0.77503 0.0000 Uiso
C63_6 C 0.98866 0.12551 0.78234 0.0000 Uiso
C64_6 C 0.93351 0.15754 0.79697 0.0000 Uiso
C65_6 C 0.90318 0.15089 0.85193 0.0000 Uiso
C66_6 C 0.86898 0.15051 0.83944 0.0000 Uiso
N6_6 N 0.93276 0.14812 0.82912 0.0000 Uiso
H40_6 H 0.93495 0.15002 0.89757 0.0000 Uiso
H41_6 H 0.91112 0.16941 0.78524 0.0000 Uiso
H42_6 H 0.86351 0.14941 0.81210 0.0000 Uiso
C4_11 C 0.61834 0.04614 0.04678 0.0000 Uiso
C5_11 C 0.61063 0.02031 0.02012 0.0000 Uiso
O2_11 O 0.62108 0.03567 0.07856 0.0000 Uiso
H1_11 H 0.55796 0.01070 0.95045 0.0000 Uiso
H2_11 H 0.56815 0.04978 0.99823 0.0000 Uiso
C2_11 C 0.57823 0.00461 0.96866 0.0000 Uiso
C3_11 C 0.58431 0.02705 0.99600 0.0000 Uiso
H3_11 H 0.65068 0.98410 0.03484 0.0000 Uiso
C6_11 C 0.63037 0.99006 0.01656 0.0000 Uiso
H4_11 H 0.64045 0.94488 0.98591 0.0000 Uiso
C1_11 C 0.59954 0.86242 0.90884 0.0000 Uiso
C7_11 C 0.59839 0.97497 0.96443 0.0000 Uiso
C8_11 C 0.62449 0.96766 0.98866 0.0000 Uiso
C9_11 C 0.59246 0.95303 0.93351 0.0000 Uiso
C10_11 C 0.59911 0.89807 0.90318 0.0000 Uiso
C11_11 C 0.59949 0.91056 0.86898 0.0000 Uiso
N1_11 N 0.60188 0.92088 0.93276 0.0000 Uiso
H5_11 H 0.59998 0.85243 0.93495 0.0000 Uiso
H6_11 H 0.58059 0.96476 0.91112 0.0000 Uiso
H7_11 H 0.60059 0.93790 0.86351 0.0000 Uiso
H8_11 H 0.55796 0.73930 0.79955 0.0000 Uiso
H9_11 H 0.56815 0.70022 0.75177 0.0000 Uiso
H10_11 H 0.65068 0.76590 0.71516 0.0000 Uiso
H11_11 H 0.64045 0.80512 0.76409 0.0000 Uiso
C12_11 C 0.59954 0.88758 0.84116 0.0000 Uiso
C13_11 C 0.57823 0.74539 0.78134 0.0000 Uiso
C14_11 C 0.58431 0.72295 0.75400 0.0000 Uiso
C15_11 C 0.61834 0.70386 0.70322 0.0000 Uiso
C16_11 C 0.61063 0.72969 0.72988 0.0000 Uiso
C17_11 C 0.63037 0.75994 0.73344 0.0000 Uiso
C18_11 C 0.59839 0.77503 0.78557 0.0000 Uiso
C19_11 C 0.62449 0.78234 0.76134 0.0000 Uiso
C20_11 C 0.59246 0.79697 0.81649 0.0000 Uiso
C21_11 C 0.59911 0.85193 0.84682 0.0000 Uiso
C22_11 C 0.59949 0.83944 0.88102 0.0000 Uiso
O5_11 O 0.62097 0.67216 0.71329 0.0000 Uiso
O6_11 O 0.62108 0.71433 0.67144 0.0000 Uiso
N2_11 N 0.60188 0.82912 0.81724 0.0000 Uiso
H12_11 H 0.59998 0.89757 0.81505 0.0000 Uiso
H13_11 H 0.58059 0.78524 0.83888 0.0000 Uiso
H14_11 H 0.60059 0.81210 0.88649 0.0000 Uiso
H1_12 H 0.69204 0.01070 0.29955 0.0000 Uiso
H2_12 H 0.68185 0.04978 0.25177 0.0000 Uiso
C2_12 C 0.67177 0.00461 0.28134 0.0000 Uiso
C3_12 C 0.66569 0.02705 0.25400 0.0000 Uiso
C4_12 C 0.63166 0.04614 0.20322 0.0000 Uiso
C5_12 C 0.63937 0.02031 0.22988 0.0000 Uiso
O2_12 O 0.62892 0.03567 0.17144 0.0000 Uiso
H3_12 H 0.59932 0.98410 0.21516 0.0000 Uiso
H4_12 H 0.60955 0.94488 0.26409 0.0000 Uiso
C1_12 C 0.65046 0.86242 0.34116 0.0000 Uiso
C6_12 C 0.61963 0.99006 0.23344 0.0000 Uiso
C7_12 C 0.65161 0.97497 0.28557 0.0000 Uiso
C8_12 C 0.62551 0.96766 0.26134 0.0000 Uiso
C9_12 C 0.65754 0.95303 0.31649 0.0000 Uiso
C10_12 C 0.65089 0.89807 0.34682 0.0000 Uiso
C11_12 C 0.65051 0.91056 0.38102 0.0000 Uiso
N1_12 N 0.64812 0.92088 0.31724 0.0000 Uiso
H5_12 H 0.65002 0.85243 0.31505 0.0000 Uiso
H6_12 H 0.66941 0.96476 0.33888 0.0000 Uiso
H7_12 H 0.64941 0.93790 0.38649 0.0000 Uiso
H8_12 H 0.69204 0.73930 0.45045 0.0000 Uiso
H9_12 H 0.68185 0.70022 0.49823 0.0000 Uiso
H10_12 H 0.59932 0.76590 0.53484 0.0000 Uiso
H11_12 H 0.60955 0.80512 0.48591 0.0000 Uiso
C12_12 C 0.65046 0.88758 0.40884 0.0000 Uiso
C13_12 C 0.67177 0.74539 0.46866 0.0000 Uiso
C14_12 C 0.66569 0.72295 0.49600 0.0000 Uiso
C15_12 C 0.63166 0.70386 0.54678 0.0000 Uiso
C16_12 C 0.63937 0.72969 0.52012 0.0000 Uiso
C17_12 C 0.61963 0.75994 0.51656 0.0000 Uiso
C18_12 C 0.65161 0.77503 0.46443 0.0000 Uiso
C19_12 C 0.62551 0.78234 0.48866 0.0000 Uiso
C20_12 C 0.65754 0.79697 0.43351 0.0000 Uiso
C21_12 C 0.65089 0.85193 0.40318 0.0000 Uiso
C22_12 C 0.65051 0.83944 0.36898 0.0000 Uiso
O5_12 O 0.62903 0.67216 0.53671 0.0000 Uiso
O6_12 O 0.62892 0.71433 0.57856 0.0000 Uiso
N2_12 N 0.64812 0.82912 0.43276 0.0000 Uiso
H12_12 H 0.65002 0.89757 0.43495 0.0000 Uiso
H13_12 H 0.66941 0.78524 0.41112 0.0000 Uiso
H14_12 H 0.64941 0.81210 0.36351 0.0000 Uiso
O3_4 O 0.59410 0.65590 0.65590 0.0000 Uiso
O4_4 O 0.59270 0.59270 0.65730 0.0000 Uiso
O7_4 O 0.65590 0.59410 0.65590 0.0000 Uiso
O8_4 O 0.65730 0.65730 0.65730 0.0000 Uiso
O24_4 O 0.65590 0.65590 0.59410 0.0000 Uiso
O25_4 O 0.59410 0.59410 0.59410 0.0000 Uiso
O26_4 O 0.65730 0.59270 0.59270 0.0000 Uiso
O27_4 O 0.59270 0.65730 0.59270 0.0000 Uiso
H1_13 H 0.70045 0.44204 0.76070 0.0000 Uiso
H2_13 H 0.74823 0.43185 0.79978 0.0000 Uiso
H3_13 H 0.78484 0.34932 0.73410 0.0000 Uiso
H4_13 H 0.73591 0.35955 0.69488 0.0000 Uiso
C1_13 C 0.65884 0.40046 0.61242 0.0000 Uiso
C2_13 C 0.71866 0.42177 0.75461 0.0000 Uiso
C3_13 C 0.74600 0.41569 0.77705 0.0000 Uiso
C4_13 C 0.79678 0.38166 0.79614 0.0000 Uiso
C5_13 C 0.77012 0.38937 0.77031 0.0000 Uiso
C6_13 C 0.76656 0.36963 0.74006 0.0000 Uiso
C7_13 C 0.71443 0.40161 0.72497 0.0000 Uiso
C8_13 C 0.73866 0.37551 0.71766 0.0000 Uiso
C9_13 C 0.68351 0.40754 0.70303 0.0000 Uiso
C10_13 C 0.65318 0.40089 0.64807 0.0000 Uiso
C11_13 C 0.61898 0.40051 0.66056 0.0000 Uiso
O1_7 O 0.78671 0.37903 0.82784 0.0000 Uiso
O2_13 O 0.82856 0.37892 0.78567 0.0000 Uiso
N1_13 N 0.68276 0.39812 0.67088 0.0000 Uiso
H5_13 H 0.68495 0.40002 0.60243 0.0000 Uiso
H6_13 H 0.66112 0.41941 0.71476 0.0000 Uiso
H7_13 H 0.61351 0.39941 0.68790 0.0000 Uiso
Zr1_7 Zr 0.81417 0.37500 0.87500 0.0000 Uiso
O3_5 O 0.84410 0.40590 0.84410 0.0000 Uiso
O4_5 O 0.84270 0.40730 0.90730 0.0000 Uiso
H8_13 H 0.54955 0.44204 0.48930 0.0000 Uiso
H9_13 H 0.50177 0.43185 0.45022 0.0000 Uiso
H10_13 H 0.46516 0.34932 0.51590 0.0000 Uiso
H11_13 H 0.51409 0.35955 0.55512 0.0000 Uiso
C12_13 C 0.59116 0.40046 0.63758 0.0000 Uiso
C13_13 C 0.53134 0.42177 0.49539 0.0000 Uiso
C14_13 C 0.50400 0.41569 0.47295 0.0000 Uiso
C15_13 C 0.45322 0.38166 0.45386 0.0000 Uiso
C16_13 C 0.47988 0.38937 0.47969 0.0000 Uiso
C17_13 C 0.48344 0.36963 0.50994 0.0000 Uiso
C18_13 C 0.53557 0.40161 0.52503 0.0000 Uiso
C19_13 C 0.51134 0.37551 0.53234 0.0000 Uiso
C20_13 C 0.56649 0.40754 0.54697 0.0000 Uiso
C21_13 C 0.59682 0.40089 0.60193 0.0000 Uiso
C22_13 C 0.63102 0.40051 0.58944 0.0000 Uiso
O5_13 O 0.46329 0.37903 0.42216 0.0000 Uiso
O6_13 O 0.42144 0.37892 0.46433 0.0000 Uiso
N2_13 N 0.56724 0.39812 0.57912 0.0000 Uiso
H12_13 H 0.56505 0.40002 0.64757 0.0000 Uiso
H13_13 H 0.58888 0.41941 0.53524 0.0000 Uiso
H14_13 H 0.63649 0.39941 0.56210 0.0000 Uiso
O7_5 O 0.84410 0.34410 0.90590 0.0000 Uiso
O8_5 O 0.84270 0.34270 0.84270 0.0000 Uiso
H15_7 H 0.76070 0.20045 0.94204 0.0000 Uiso
H16_7 H 0.79978 0.24823 0.93185 0.0000 Uiso
H17_7 H 0.73410 0.28484 0.84932 0.0000 Uiso
H18_7 H 0.69488 0.23591 0.85955 0.0000 Uiso
C23_7 C 0.61242 0.15884 0.90046 0.0000 Uiso
C24_7 C 0.75461 0.21866 0.92177 0.0000 Uiso
C25_7 C 0.77705 0.24600 0.91569 0.0000 Uiso
C26_7 C 0.79614 0.29678 0.88166 0.0000 Uiso
C27_7 C 0.77031 0.27012 0.88937 0.0000 Uiso
C28_7 C 0.74006 0.26656 0.86963 0.0000 Uiso
C29_7 C 0.72497 0.21443 0.90161 0.0000 Uiso
C30_7 C 0.71766 0.23866 0.87551 0.0000 Uiso
C31_7 C 0.70303 0.18351 0.90754 0.0000 Uiso
C32_7 C 0.64807 0.15318 0.90089 0.0000 Uiso
C33_7 C 0.66056 0.11898 0.90051 0.0000 Uiso
O9_4 O 0.82784 0.28671 0.87903 0.0000 Uiso
O10_7 O 0.78567 0.32856 0.87892 0.0000 Uiso
N3_7 N 0.67088 0.18276 0.89812 0.0000 Uiso
H19_7 H 0.60243 0.18495 0.90002 0.0000 Uiso
H20_7 H 0.71476 0.16112 0.91941 0.0000 Uiso
H21_7 H 0.68790 0.11351 0.89941 0.0000 Uiso
Zr2_3 Zr 0.87500 0.31417 0.87500 0.0000 Uiso
H22_7 H 0.48930 0.04955 0.94204 0.0000 Uiso
H23_7 H 0.45022 0.00177 0.93185 0.0000 Uiso
H25_7 H 0.55512 0.01409 0.85955 0.0000 Uiso
C34_7 C 0.63758 0.09116 0.90046 0.0000 Uiso
C35_7 C 0.49539 0.03134 0.92177 0.0000 Uiso
C36_7 C 0.47295 0.00400 0.91569 0.0000 Uiso
C40_7 C 0.52503 0.03557 0.90161 0.0000 Uiso
C41_7 C 0.53234 0.01134 0.87551 0.0000 Uiso
C42_7 C 0.54697 0.06649 0.90754 0.0000 Uiso
C43_7 C 0.60193 0.09682 0.90089 0.0000 Uiso
C44_7 C 0.58944 0.13102 0.90051 0.0000 Uiso
N4_7 N 0.57912 0.06724 0.89812 0.0000 Uiso
H26_7 H 0.64757 0.06505 0.90002 0.0000 Uiso
H27_7 H 0.53524 0.08888 0.91941 0.0000 Uiso
H28_7 H 0.56210 0.13649 0.89941 0.0000 Uiso
H29_7 H 0.76070 0.54955 0.80796 0.0000 Uiso
H30_7 H 0.79978 0.50177 0.81815 0.0000 Uiso
H31_7 H 0.73410 0.46516 0.90068 0.0000 Uiso
H32_7 H 0.69488 0.51409 0.89045 0.0000 Uiso
C45_7 C 0.61242 0.59116 0.84954 0.0000 Uiso
C46_7 C 0.75461 0.53134 0.82823 0.0000 Uiso
C47_7 C 0.77705 0.50400 0.83431 0.0000 Uiso
C48_7 C 0.79614 0.45322 0.86834 0.0000 Uiso
C49_7 C 0.77031 0.47988 0.86063 0.0000 Uiso
C50_7 C 0.74006 0.48344 0.88037 0.0000 Uiso
C51_7 C 0.72497 0.53557 0.84839 0.0000 Uiso
C52_7 C 0.71766 0.51134 0.87449 0.0000 Uiso
C53_7 C 0.70303 0.56649 0.84246 0.0000 Uiso
C54_7 C 0.64807 0.59682 0.84911 0.0000 Uiso
C55_7 C 0.66056 0.63102 0.84949 0.0000 Uiso
O13_4 O 0.82784 0.46329 0.87097 0.0000 Uiso
O14_7 O 0.78567 0.42144 0.87108 0.0000 Uiso
N5_7 N 0.67088 0.56724 0.85188 0.0000 Uiso
H33_7 H 0.60243 0.56505 0.84998 0.0000 Uiso
H34_7 H 0.71476 0.58888 0.83059 0.0000 Uiso
H35_7 H 0.68790 0.63649 0.85059 0.0000 Uiso
Zr3_3 Zr 0.87500 0.43583 0.87500 0.0000 Uiso
H36_7 H 0.48930 0.70045 0.80796 0.0000 Uiso
H37_7 H 0.45022 0.74823 0.81815 0.0000 Uiso
H38_7 H 0.51590 0.78484 0.90068 0.0000 Uiso
H39_7 H 0.55512 0.73591 0.89045 0.0000 Uiso
C56_7 C 0.63758 0.65884 0.84954 0.0000 Uiso
C57_7 C 0.49539 0.71866 0.82823 0.0000 Uiso
C58_7 C 0.47295 0.74600 0.83431 0.0000 Uiso
C59_7 C 0.45386 0.79678 0.86834 0.0000 Uiso
C60_7 C 0.47969 0.77012 0.86063 0.0000 Uiso
C61_7 C 0.50994 0.76656 0.88037 0.0000 Uiso
C62_7 C 0.52503 0.71443 0.84839 0.0000 Uiso
C63_7 C 0.53234 0.73866 0.87449 0.0000 Uiso
C64_7 C 0.54697 0.68351 0.84246 0.0000 Uiso
C65_7 C 0.60193 0.65318 0.84911 0.0000 Uiso
C66_7 C 0.58944 0.61898 0.84949 0.0000 Uiso
O15_7 O 0.42216 0.78671 0.87097 0.0000 Uiso
O16_3 O 0.46433 0.82856 0.87108 0.0000 Uiso
N6_7 N 0.57912 0.68276 0.85188 0.0000 Uiso
H40_7 H 0.64757 0.68495 0.84998 0.0000 Uiso
H41_7 H 0.53524 0.66112 0.83059 0.0000 Uiso
H42_7 H 0.56210 0.61351 0.85059 0.0000 Uiso
O17_7 O 0.78671 0.37097 0.92216 0.0000 Uiso
O18_4 O 0.92216 0.46329 0.87903 0.0000 Uiso
O19_4 O 0.92216 0.28671 0.87097 0.0000 Uiso
O20_3 O 0.87892 0.28567 0.82856 0.0000 Uiso
O21_3 O 0.87108 0.28567 0.92144 0.0000 Uiso
O22_3 O 0.87892 0.46433 0.92144 0.0000 Uiso
O23_3 O 0.87108 0.46433 0.82856 0.0000 Uiso
Zr4_3 Zr 0.37500 0.37500 0.43583 0.0000 Uiso
Zr5_5 Zr 0.43583 0.37500 0.37500 0.0000 Uiso
Zr6_2 Zr 0.37500 0.81417 0.87500 0.0000 Uiso
Zr8_2 Zr 0.43583 0.87500 0.87500 0.0000 Uiso
Zr10_3 Zr 0.87500 0.37500 0.81417 0.0000 Uiso
Zr11_3 Zr 0.87500 0.37500 0.93583 0.0000 Uiso
O24_5 O 0.90590 0.34410 0.84410 0.0000 Uiso
O25_5 O 0.90590 0.40590 0.90590 0.0000 Uiso
O26_5 O 0.90730 0.34270 0.90730 0.0000 Uiso
O27_5 O 0.90730 0.40730 0.84270 0.0000 Uiso
H24_7 H 0.51590 0.96516 0.84932 0.0000 Uiso
C37_7 C 0.45386 0.95322 0.88166 0.0000 Uiso
C38_7 C 0.47969 0.97988 0.88937 0.0000 Uiso
C39_7 C 0.50994 0.98344 0.86963 0.0000 Uiso
O11_7 O 0.42216 0.96329 0.87903 0.0000 Uiso
O12_3 O 0.46433 0.92144 0.87892 0.0000 Uiso
Zr7_2 Zr 0.37500 0.93583 0.87500 0.0000 Uiso
H1_14 H 0.04955 0.30796 0.76070 0.0000 Uiso
H2_14 H 0.00177 0.31815 0.79978 0.0000 Uiso
H4_14 H 0.01409 0.39045 0.69488 0.0000 Uiso
C1_14 C 0.09116 0.34954 0.61242 0.0000 Uiso
C2_14 C 0.03134 0.32823 0.75461 0.0000 Uiso
C3_14 C 0.00400 0.33431 0.77705 0.0000 Uiso
C7_14 C 0.03557 0.34839 0.72497 0.0000 Uiso
C8_14 C 0.01134 0.37449 0.71766 0.0000 Uiso
C9_14 C 0.06649 0.34246 0.70303 0.0000 Uiso
C10_14 C 0.09682 0.34911 0.64807 0.0000 Uiso
C11_14 C 0.13102 0.34949 0.66056 0.0000 Uiso
N1_14 N 0.06724 0.35188 0.67088 0.0000 Uiso
H5_14 H 0.06505 0.34998 0.60243 0.0000 Uiso
H6_14 H 0.08888 0.33059 0.71476 0.0000 Uiso
H7_14 H 0.13649 0.35059 0.68790 0.0000 Uiso
H8_14 H 0.20045 0.30796 0.48930 0.0000 Uiso
H9_14 H 0.24823 0.31815 0.45022 0.0000 Uiso
H10_14 H 0.28484 0.40068 0.51590 0.0000 Uiso
H11_14 H 0.23591 0.39045 0.55512 0.0000 Uiso
C12_14 C 0.15884 0.34954 0.63758 0.0000 Uiso
C13_14 C 0.21866 0.32823 0.49539 0.0000 Uiso
C14_14 C 0.24600 0.33431 0.47295 0.0000 Uiso
C15_14 C 0.29678 0.36834 0.45386 0.0000 Uiso
C16_14 C 0.27012 0.36063 0.47969 0.0000 Uiso
C17_14 C 0.26656 0.38037 0.50994 0.0000 Uiso
C18_14 C 0.21443 0.34839 0.52503 0.0000 Uiso
C19_14 C 0.23866 0.37449 0.53234 0.0000 Uiso
C20_14 C 0.18351 0.34246 0.54697 0.0000 Uiso
C21_14 C 0.15318 0.34911 0.60193 0.0000 Uiso
C22_14 C 0.11898 0.34949 0.58944 0.0000 Uiso
O5_14 O 0.28671 0.37097 0.42216 0.0000 Uiso
O6_14 O 0.32856 0.37108 0.46433 0.0000 Uiso
N2_14 N 0.18276 0.35188 0.57912 0.0000 Uiso
H12_14 H 0.18495 0.34998 0.64757 0.0000 Uiso
H13_14 H 0.16112 0.33059 0.53524 0.0000 Uiso
H14_14 H 0.11351 0.35059 0.56210 0.0000 Uiso
H17_8 H 0.01590 0.46516 0.84932 0.0000 Uiso
H18_8 H 0.05512 0.51409 0.85955 0.0000 Uiso
C23_8 C 0.13758 0.59116 0.90046 0.0000 Uiso
C28_8 C 0.00994 0.48344 0.86963 0.0000 Uiso
C29_8 C 0.02503 0.53557 0.90161 0.0000 Uiso
C30_8 C 0.03234 0.51134 0.87551 0.0000 Uiso
C31_8 C 0.04697 0.56649 0.90754 0.0000 Uiso
C32_8 C 0.10193 0.59682 0.90089 0.0000 Uiso
C33_8 C 0.08944 0.63102 0.90051 0.0000 Uiso
N3_8 N 0.07912 0.56724 0.89812 0.0000 Uiso
H19_8 H 0.14757 0.56505 0.90002 0.0000 Uiso
H20_8 H 0.03524 0.58888 0.91941 0.0000 Uiso
H21_8 H 0.06210 0.63649 0.89941 0.0000 Uiso
H22_8 H 0.26070 0.70045 0.94204 0.0000 Uiso
H23_8 H 0.29978 0.74823 0.93185 0.0000 Uiso
H24_8 H 0.23410 0.78484 0.84932 0.0000 Uiso
H25_8 H 0.19488 0.73591 0.85955 0.0000 Uiso
C34_8 C 0.11242 0.65884 0.90046 0.0000 Uiso
C35_8 C 0.25461 0.71866 0.92177 0.0000 Uiso
C36_8 C 0.27705 0.74600 0.91569 0.0000 Uiso
C37_8 C 0.29614 0.79678 0.88166 0.0000 Uiso
C38_8 C 0.27031 0.77012 0.88937 0.0000 Uiso
C39_8 C 0.24006 0.76656 0.86963 0.0000 Uiso
C40_8 C 0.22497 0.71443 0.90161 0.0000 Uiso
C41_8 C 0.21766 0.73866 0.87551 0.0000 Uiso
C42_8 C 0.20303 0.68351 0.90754 0.0000 Uiso
C43_8 C 0.14807 0.65318 0.90089 0.0000 Uiso
C44_8 C 0.16056 0.61898 0.90051 0.0000 Uiso
O11_8 O 0.32784 0.78671 0.87903 0.0000 Uiso
O12_4 O 0.28567 0.82856 0.87892 0.0000 Uiso
N4_8 N 0.17088 0.68276 0.89812 0.0000 Uiso
H26_8 H 0.10243 0.68495 0.90002 0.0000 Uiso
H27_8 H 0.21476 0.66112 0.91941 0.0000 Uiso
H28_8 H 0.18790 0.61351 0.89941 0.0000 Uiso
H31_8 H 0.01590 0.28484 0.90068 0.0000 Uiso
H32_8 H 0.05512 0.23591 0.89045 0.0000 Uiso
C45_8 C 0.13758 0.15884 0.84954 0.0000 Uiso
C50_8 C 0.00994 0.26656 0.88037 0.0000 Uiso
C51_8 C 0.02503 0.21443 0.84839 0.0000 Uiso
C52_8 C 0.03234 0.23866 0.87449 0.0000 Uiso
C53_8 C 0.04697 0.18351 0.84246 0.0000 Uiso
C54_8 C 0.10193 0.15318 0.84911 0.0000 Uiso
C55_8 C 0.08944 0.11898 0.84949 0.0000 Uiso
N5_8 N 0.07912 0.18276 0.85188 0.0000 Uiso
H33_8 H 0.14757 0.18495 0.84998 0.0000 Uiso
H34_8 H 0.03524 0.16112 0.83059 0.0000 Uiso
H35_8 H 0.06210 0.11351 0.85059 0.0000 Uiso
H36_8 H 0.26070 0.04955 0.80796 0.0000 Uiso
H37_8 H 0.29978 0.00177 0.81815 0.0000 Uiso
H39_8 H 0.19488 0.01409 0.89045 0.0000 Uiso
C56_8 C 0.11242 0.09116 0.84954 0.0000 Uiso
C57_8 C 0.25461 0.03134 0.82823 0.0000 Uiso
C58_8 C 0.27705 0.00400 0.83431 0.0000 Uiso
C62_8 C 0.22497 0.03557 0.84839 0.0000 Uiso
C63_8 C 0.21766 0.01134 0.87449 0.0000 Uiso
C64_8 C 0.20303 0.06649 0.84246 0.0000 Uiso
C65_8 C 0.14807 0.09682 0.84911 0.0000 Uiso
C66_8 C 0.16056 0.13102 0.84949 0.0000 Uiso
N6_8 N 0.17088 0.06724 0.85188 0.0000 Uiso
H40_8 H 0.10243 0.06505 0.84998 0.0000 Uiso
H41_8 H 0.21476 0.08888 0.83059 0.0000 Uiso
H42_8 H 0.18790 0.13649 0.85059 0.0000 Uiso
Zr5_6 Zr 0.31417 0.37500 0.37500 0.0000 Uiso
Zr9_2 Zr 0.31417 0.87500 0.87500 0.0000 Uiso
H38_8 H 0.23410 0.96516 0.90068 0.0000 Uiso
C59_8 C 0.29614 0.95322 0.86834 0.0000 Uiso
C60_8 C 0.27031 0.97988 0.86063 0.0000 Uiso
C61_8 C 0.24006 0.98344 0.88037 0.0000 Uiso
O15_8 O 0.32784 0.96329 0.87097 0.0000 Uiso
O16_4 O 0.28567 0.92144 0.87108 0.0000 Uiso
H3_14 H 0.96516 0.40068 0.73410 0.0000 Uiso
C4_14 C 0.95322 0.36834 0.79614 0.0000 Uiso
C5_14 C 0.97988 0.36063 0.77031 0.0000 Uiso
C6_14 C 0.98344 0.38037 0.74006 0.0000 Uiso
O1_8 O 0.96329 0.37097 0.82784 0.0000 Uiso
O2_14 O 0.92144 0.37108 0.78567 0.0000 Uiso
Zr1_8 Zr 0.93583 0.37500 0.87500 0.0000 Uiso
H15_8 H 0.98930 0.54955 0.94204 0.0000 Uiso
H16_8 H 0.95022 0.50177 0.93185 0.0000 Uiso
C24_8 C 0.99539 0.53134 0.92177 0.0000 Uiso
C25_8 C 0.97295 0.50400 0.91569 0.0000 Uiso
C26_8 C 0.95386 0.45322 0.88166 0.0000 Uiso
C27_8 C 0.97969 0.47988 0.88937 0.0000 Uiso
O10_8 O 0.96433 0.42144 0.87892 0.0000 Uiso
H29_8 H 0.98930 0.20045 0.80796 0.0000 Uiso
H30_8 H 0.95022 0.24823 0.81815 0.0000 Uiso
C46_8 C 0.99539 0.21866 0.82823 0.0000 Uiso
C47_8 C 0.97295 0.24600 0.83431 0.0000 Uiso
C48_8 C 0.95386 0.29678 0.86834 0.0000 Uiso
C49_8 C 0.97969 0.27012 0.86063 0.0000 Uiso
O14_8 O 0.96433 0.32856 0.87108 0.0000 Uiso
O17_8 O 0.96329 0.37903 0.92216 0.0000 Uiso
H4_15 H 0.01409 0.35955 0.05512 0.0000 Uiso
C1_15 C 0.09116 0.40046 0.13758 0.0000 Uiso
C7_15 C 0.03557 0.40161 0.02503 0.0000 Uiso
C8_15 C 0.01134 0.37551 0.03234 0.0000 Uiso
C9_15 C 0.06649 0.40754 0.04697 0.0000 Uiso
C10_15 C 0.09682 0.40089 0.10193 0.0000 Uiso
C11_15 C 0.13102 0.40051 0.08944 0.0000 Uiso
N1_15 N 0.06724 0.39812 0.07912 0.0000 Uiso
H5_15 H 0.06505 0.40002 0.14757 0.0000 Uiso
H6_15 H 0.08888 0.41941 0.03524 0.0000 Uiso
H7_15 H 0.13649 0.39941 0.06210 0.0000 Uiso
H8_15 H 0.20045 0.44204 0.26070 0.0000 Uiso
H9_15 H 0.24823 0.43185 0.29978 0.0000 Uiso
H10_15 H 0.28484 0.34932 0.23410 0.0000 Uiso
H11_15 H 0.23591 0.35955 0.19488 0.0000 Uiso
C12_15 C 0.15884 0.40046 0.11242 0.0000 Uiso
C13_15 C 0.21866 0.42177 0.25461 0.0000 Uiso
C14_15 C 0.24600 0.41569 0.27705 0.0000 Uiso
C15_15 C 0.29678 0.38166 0.29614 0.0000 Uiso
C16_15 C 0.27012 0.38937 0.27031 0.0000 Uiso
C17_15 C 0.26656 0.36963 0.24006 0.0000 Uiso
C18_15 C 0.21443 0.40161 0.22497 0.0000 Uiso
C19_15 C 0.23866 0.37551 0.21766 0.0000 Uiso
C20_15 C 0.18351 0.40754 0.20303 0.0000 Uiso
C21_15 C 0.15318 0.40089 0.14807 0.0000 Uiso
C22_15 C 0.11898 0.40051 0.16056 0.0000 Uiso
O5_15 O 0.28671 0.37903 0.32784 0.0000 Uiso
O6_15 O 0.32856 0.37892 0.28567 0.0000 Uiso
N2_15 N 0.18276 0.39812 0.17088 0.0000 Uiso
H12_15 H 0.18495 0.40002 0.10243 0.0000 Uiso
H13_15 H 0.16112 0.41941 0.21476 0.0000 Uiso
H14_15 H 0.11351 0.39941 0.18790 0.0000 Uiso
Zr4_4 Zr 0.37500 0.37500 0.31417 0.0000 Uiso
H1_15 H 0.04955 0.44204 0.98930 0.0000 Uiso
H2_15 H 0.00177 0.43185 0.95022 0.0000 Uiso
C2_15 C 0.03134 0.42177 0.99539 0.0000 Uiso
C3_15 C 0.00400 0.41569 0.97295 0.0000 Uiso
H3_15 H 0.96516 0.34932 0.01590 0.0000 Uiso
C6_15 C 0.98344 0.36963 0.00994 0.0000 Uiso
C4_15 C 0.95322 0.38166 0.95386 0.0000 Uiso
C5_15 C 0.97988 0.38937 0.97969 0.0000 Uiso
O2_15 O 0.92144 0.37892 0.96433 0.0000 Uiso
H3_16 H 0.78484 0.40068 0.01590 0.0000 Uiso
H4_16 H 0.73591 0.39045 0.05512 0.0000 Uiso
C1_16 C 0.65884 0.34954 0.13758 0.0000 Uiso
C6_16 C 0.76656 0.38037 0.00994 0.0000 Uiso
C7_16 C 0.71443 0.34839 0.02503 0.0000 Uiso
C8_16 C 0.73866 0.37449 0.03234 0.0000 Uiso
C9_16 C 0.68351 0.34246 0.04697 0.0000 Uiso
C10_16 C 0.65318 0.34911 0.10193 0.0000 Uiso
C11_16 C 0.61898 0.34949 0.08944 0.0000 Uiso
N1_16 N 0.68276 0.35188 0.07912 0.0000 Uiso
H5_16 H 0.68495 0.34998 0.14757 0.0000 Uiso
H6_16 H 0.66112 0.33059 0.03524 0.0000 Uiso
H7_16 H 0.61351 0.35059 0.06210 0.0000 Uiso
H8_16 H 0.54955 0.30796 0.26070 0.0000 Uiso
H9_16 H 0.50177 0.31815 0.29978 0.0000 Uiso
H10_16 H 0.46516 0.40068 0.23410 0.0000 Uiso
H11_16 H 0.51409 0.39045 0.19488 0.0000 Uiso
C12_16 C 0.59116 0.34954 0.11242 0.0000 Uiso
C13_16 C 0.53134 0.32823 0.25461 0.0000 Uiso
C14_16 C 0.50400 0.33431 0.27705 0.0000 Uiso
C15_16 C 0.45322 0.36834 0.29614 0.0000 Uiso
C16_16 C 0.47988 0.36063 0.27031 0.0000 Uiso
C17_16 C 0.48344 0.38037 0.24006 0.0000 Uiso
C18_16 C 0.53557 0.34839 0.22497 0.0000 Uiso
C19_16 C 0.51134 0.37449 0.21766 0.0000 Uiso
C20_16 C 0.56649 0.34246 0.20303 0.0000 Uiso
C21_16 C 0.59682 0.34911 0.14807 0.0000 Uiso
C22_16 C 0.63102 0.34949 0.16056 0.0000 Uiso
O5_16 O 0.46329 0.37097 0.32784 0.0000 Uiso
O6_16 O 0.42144 0.37108 0.28567 0.0000 Uiso
N2_16 N 0.56724 0.35188 0.17088 0.0000 Uiso
H12_16 H 0.56505 0.34998 0.10243 0.0000 Uiso
H13_16 H 0.58888 0.33059 0.21476 0.0000 Uiso
H14_16 H 0.63649 0.35059 0.18790 0.0000 Uiso
H1_16 H 0.70045 0.30796 0.98930 0.0000 Uiso
H2_16 H 0.74823 0.31815 0.95022 0.0000 Uiso
C2_16 C 0.71866 0.32823 0.99539 0.0000 Uiso
C3_16 C 0.74600 0.33431 0.97295 0.0000 Uiso
C4_16 C 0.79678 0.36834 0.95386 0.0000 Uiso
C5_16 C 0.77012 0.36063 0.97969 0.0000 Uiso
O2_16 O 0.82856 0.37108 0.96433 0.0000 Uiso
H1_17 H 0.76070 0.70045 0.44204 0.0000 Uiso
H2_17 H 0.79978 0.74823 0.43185 0.0000 Uiso
H3_17 H 0.73410 0.78484 0.34932 0.0000 Uiso
H4_17 H 0.69488 0.73591 0.35955 0.0000 Uiso
C1_17 C 0.61242 0.65884 0.40046 0.0000 Uiso
C2_17 C 0.75461 0.71866 0.42177 0.0000 Uiso
C3_17 C 0.77705 0.74600 0.41569 0.0000 Uiso
C4_17 C 0.79614 0.79678 0.38166 0.0000 Uiso
C5_17 C 0.77031 0.77012 0.38937 0.0000 Uiso
C6_17 C 0.74006 0.76656 0.36963 0.0000 Uiso
C7_17 C 0.72497 0.71443 0.40161 0.0000 Uiso
C8_17 C 0.71766 0.73866 0.37551 0.0000 Uiso
C9_17 C 0.70303 0.68351 0.40754 0.0000 Uiso
C10_17 C 0.64807 0.65318 0.40089 0.0000 Uiso
C11_17 C 0.66056 0.61898 0.40051 0.0000 Uiso
O1_9 O 0.82784 0.78671 0.37903 0.0000 Uiso
O2_17 O 0.78567 0.82856 0.37892 0.0000 Uiso
N1_17 N 0.67088 0.68276 0.39812 0.0000 Uiso
H5_17 H 0.60243 0.68495 0.40002 0.0000 Uiso
H6_17 H 0.71476 0.66112 0.41941 0.0000 Uiso
H7_17 H 0.68790 0.61351 0.39941 0.0000 Uiso
Zr1_9 Zr 0.87500 0.81417 0.37500 0.0000 Uiso
O3_6 O 0.84410 0.84410 0.40590 0.0000 Uiso
O4_6 O 0.90730 0.84270 0.40730 0.0000 Uiso
H8_17 H 0.48930 0.54955 0.44204 0.0000 Uiso
H9_17 H 0.45022 0.50177 0.43185 0.0000 Uiso
H10_17 H 0.51590 0.46516 0.34932 0.0000 Uiso
H11_17 H 0.55512 0.51409 0.35955 0.0000 Uiso
C12_17 C 0.63758 0.59116 0.40046 0.0000 Uiso
C13_17 C 0.49539 0.53134 0.42177 0.0000 Uiso
C14_17 C 0.47295 0.50400 0.41569 0.0000 Uiso
C15_17 C 0.45386 0.45322 0.38166 0.0000 Uiso
C16_17 C 0.47969 0.47988 0.38937 0.0000 Uiso
C17_17 C 0.50994 0.48344 0.36963 0.0000 Uiso
C18_17 C 0.52503 0.53557 0.40161 0.0000 Uiso
C19_17 C 0.53234 0.51134 0.37551 0.0000 Uiso
C20_17 C 0.54697 0.56649 0.40754 0.0000 Uiso
C21_17 C 0.60193 0.59682 0.40089 0.0000 Uiso
C22_17 C 0.58944 0.63102 0.40051 0.0000 Uiso
O5_17 O 0.42216 0.46329 0.37903 0.0000 Uiso
O6_17 O 0.46433 0.42144 0.37892 0.0000 Uiso
N2_17 N 0.57912 0.56724 0.39812 0.0000 Uiso
H12_17 H 0.64757 0.56505 0.40002 0.0000 Uiso
H13_17 H 0.53524 0.58888 0.41941 0.0000 Uiso
H14_17 H 0.56210 0.63649 0.39941 0.0000 Uiso
O7_6 O 0.90590 0.84410 0.34410 0.0000 Uiso
O8_6 O 0.84270 0.84270 0.34270 0.0000 Uiso
H15_9 H 0.94204 0.76070 0.20045 0.0000 Uiso
H16_9 H 0.93185 0.79978 0.24823 0.0000 Uiso
H17_9 H 0.84932 0.73410 0.28484 0.0000 Uiso
H18_9 H 0.85955 0.69488 0.23591 0.0000 Uiso
C23_9 C 0.90046 0.61242 0.15884 0.0000 Uiso
C24_9 C 0.92177 0.75461 0.21866 0.0000 Uiso
C25_9 C 0.91569 0.77705 0.24600 0.0000 Uiso
C26_9 C 0.88166 0.79614 0.29678 0.0000 Uiso
C27_9 C 0.88937 0.77031 0.27012 0.0000 Uiso
C28_9 C 0.86963 0.74006 0.26656 0.0000 Uiso
C29_9 C 0.90161 0.72497 0.21443 0.0000 Uiso
C30_9 C 0.87551 0.71766 0.23866 0.0000 Uiso
C31_9 C 0.90754 0.70303 0.18351 0.0000 Uiso
C32_9 C 0.90089 0.64807 0.15318 0.0000 Uiso
C33_9 C 0.90051 0.66056 0.11898 0.0000 Uiso
O9_5 O 0.87903 0.82784 0.28671 0.0000 Uiso
O10_9 O 0.87892 0.78567 0.32856 0.0000 Uiso
N3_9 N 0.89812 0.67088 0.18276 0.0000 Uiso
H19_9 H 0.90002 0.60243 0.18495 0.0000 Uiso
H20_9 H 0.91941 0.71476 0.16112 0.0000 Uiso
H21_9 H 0.89941 0.68790 0.11351 0.0000 Uiso
Zr2_4 Zr 0.87500 0.87500 0.31417 0.0000 Uiso
H22_9 H 0.94204 0.48930 0.04955 0.0000 Uiso
H23_9 H 0.93185 0.45022 0.00177 0.0000 Uiso
H25_9 H 0.85955 0.55512 0.01409 0.0000 Uiso
C34_9 C 0.90046 0.63758 0.09116 0.0000 Uiso
C35_9 C 0.92177 0.49539 0.03134 0.0000 Uiso
C36_9 C 0.91569 0.47295 0.00400 0.0000 Uiso
C40_9 C 0.90161 0.52503 0.03557 0.0000 Uiso
C41_9 C 0.87551 0.53234 0.01134 0.0000 Uiso
C42_9 C 0.90754 0.54697 0.06649 0.0000 Uiso
C43_9 C 0.90089 0.60193 0.09682 0.0000 Uiso
C44_9 C 0.90051 0.58944 0.13102 0.0000 Uiso
N4_9 N 0.89812 0.57912 0.06724 0.0000 Uiso
H26_9 H 0.90002 0.64757 0.06505 0.0000 Uiso
H27_9 H 0.91941 0.53524 0.08888 0.0000 Uiso
H28_9 H 0.89941 0.56210 0.13649 0.0000 Uiso
H29_9 H 0.80796 0.76070 0.54955 0.0000 Uiso
H30_9 H 0.81815 0.79978 0.50177 0.0000 Uiso
H31_9 H 0.90068 0.73410 0.46516 0.0000 Uiso
H32_9 H 0.89045 0.69488 0.51409 0.0000 Uiso
C45_9 C 0.84954 0.61242 0.59116 0.0000 Uiso
C46_9 C 0.82823 0.75461 0.53134 0.0000 Uiso
C47_9 C 0.83431 0.77705 0.50400 0.0000 Uiso
C48_9 C 0.86834 0.79614 0.45322 0.0000 Uiso
C49_9 C 0.86063 0.77031 0.47988 0.0000 Uiso
C50_9 C 0.88037 0.74006 0.48344 0.0000 Uiso
C51_9 C 0.84839 0.72497 0.53557 0.0000 Uiso
C52_9 C 0.87449 0.71766 0.51134 0.0000 Uiso
C53_9 C 0.84246 0.70303 0.56649 0.0000 Uiso
C54_9 C 0.84911 0.64807 0.59682 0.0000 Uiso
C55_9 C 0.84949 0.66056 0.63102 0.0000 Uiso
O13_5 O 0.87097 0.82784 0.46329 0.0000 Uiso
O14_9 O 0.87108 0.78567 0.42144 0.0000 Uiso
N5_9 N 0.85188 0.67088 0.56724 0.0000 Uiso
H33_9 H 0.84998 0.60243 0.56505 0.0000 Uiso
H34_9 H 0.83059 0.71476 0.58888 0.0000 Uiso
H35_9 H 0.85059 0.68790 0.63649 0.0000 Uiso
Zr3_4 Zr 0.87500 0.87500 0.43583 0.0000 Uiso
H36_9 H 0.80796 0.48930 0.70045 0.0000 Uiso
H37_9 H 0.81815 0.45022 0.74823 0.0000 Uiso
H38_9 H 0.90068 0.51590 0.78484 0.0000 Uiso
H39_9 H 0.89045 0.55512 0.73591 0.0000 Uiso
C56_9 C 0.84954 0.63758 0.65884 0.0000 Uiso
C57_9 C 0.82823 0.49539 0.71866 0.0000 Uiso
C58_9 C 0.83431 0.47295 0.74600 0.0000 Uiso
C59_9 C 0.86834 0.45386 0.79678 0.0000 Uiso
C60_9 C 0.86063 0.47969 0.77012 0.0000 Uiso
C61_9 C 0.88037 0.50994 0.76656 0.0000 Uiso
C62_9 C 0.84839 0.52503 0.71443 0.0000 Uiso
C63_9 C 0.87449 0.53234 0.73866 0.0000 Uiso
C64_9 C 0.84246 0.54697 0.68351 0.0000 Uiso
C65_9 C 0.84911 0.60193 0.65318 0.0000 Uiso
C66_9 C 0.84949 0.58944 0.61898 0.0000 Uiso
O15_9 O 0.87097 0.42216 0.78671 0.0000 Uiso
N6_9 N 0.85188 0.57912 0.68276 0.0000 Uiso
H40_9 H 0.84998 0.64757 0.68495 0.0000 Uiso
H41_9 H 0.83059 0.53524 0.66112 0.0000 Uiso
H42_9 H 0.85059 0.56210 0.61351 0.0000 Uiso
O17_9 O 0.92216 0.78671 0.37097 0.0000 Uiso
O18_5 O 0.87903 0.92216 0.46329 0.0000 Uiso
O19_5 O 0.87097 0.92216 0.28671 0.0000 Uiso
O20_4 O 0.82856 0.87892 0.28567 0.0000 Uiso
O21_4 O 0.92144 0.87108 0.28567 0.0000 Uiso
O22_4 O 0.92144 0.87892 0.46433 0.0000 Uiso
O23_4 O 0.82856 0.87108 0.46433 0.0000 Uiso
Zr5_7 Zr 0.37500 0.43583 0.37500 0.0000 Uiso
Zr10_4 Zr 0.81417 0.87500 0.37500 0.0000 Uiso
Zr11_4 Zr 0.93583 0.87500 0.37500 0.0000 Uiso
O24_6 O 0.84410 0.90590 0.34410 0.0000 Uiso
O25_6 O 0.90590 0.90590 0.40590 0.0000 Uiso
O26_6 O 0.90730 0.90730 0.34270 0.0000 Uiso
O27_6 O 0.84270 0.90730 0.40730 0.0000 Uiso
H24_9 H 0.84932 0.51590 0.96516 0.0000 Uiso
C37_9 C 0.88166 0.45386 0.95322 0.0000 Uiso
C38_9 C 0.88937 0.47969 0.97988 0.0000 Uiso
C39_9 C 0.86963 0.50994 0.98344 0.0000 Uiso
O11_9 O 0.87903 0.42216 0.96329 0.0000 Uiso
H1_18 H 0.76070 0.04955 0.30796 0.0000 Uiso
H2_18 H 0.79978 0.00177 0.31815 0.0000 Uiso
H4_18 H 0.69488 0.01409 0.39045 0.0000 Uiso
C1_18 C 0.61242 0.09116 0.34954 0.0000 Uiso
C2_18 C 0.75461 0.03134 0.32823 0.0000 Uiso
C3_18 C 0.77705 0.00400 0.33431 0.0000 Uiso
C7_18 C 0.72497 0.03557 0.34839 0.0000 Uiso
C8_18 C 0.71766 0.01134 0.37449 0.0000 Uiso
C9_18 C 0.70303 0.06649 0.34246 0.0000 Uiso
C10_18 C 0.64807 0.09682 0.34911 0.0000 Uiso
C11_18 C 0.66056 0.13102 0.34949 0.0000 Uiso
N1_18 N 0.67088 0.06724 0.35188 0.0000 Uiso
H5_18 H 0.60243 0.06505 0.34998 0.0000 Uiso
H6_18 H 0.71476 0.08888 0.33059 0.0000 Uiso
H7_18 H 0.68790 0.13649 0.35059 0.0000 Uiso
H8_18 H 0.48930 0.20045 0.30796 0.0000 Uiso
H9_18 H 0.45022 0.24823 0.31815 0.0000 Uiso
H10_18 H 0.51590 0.28484 0.40068 0.0000 Uiso
H11_18 H 0.55512 0.23591 0.39045 0.0000 Uiso
C12_18 C 0.63758 0.15884 0.34954 0.0000 Uiso
C13_18 C 0.49539 0.21866 0.32823 0.0000 Uiso
C14_18 C 0.47295 0.24600 0.33431 0.0000 Uiso
C15_18 C 0.45386 0.29678 0.36834 0.0000 Uiso
C16_18 C 0.47969 0.27012 0.36063 0.0000 Uiso
C17_18 C 0.50994 0.26656 0.38037 0.0000 Uiso
C18_18 C 0.52503 0.21443 0.34839 0.0000 Uiso
C19_18 C 0.53234 0.23866 0.37449 0.0000 Uiso
C20_18 C 0.54697 0.18351 0.34246 0.0000 Uiso
C21_18 C 0.60193 0.15318 0.34911 0.0000 Uiso
C22_18 C 0.58944 0.11898 0.34949 0.0000 Uiso
O5_18 O 0.42216 0.28671 0.37097 0.0000 Uiso
O6_18 O 0.46433 0.32856 0.37108 0.0000 Uiso
N2_18 N 0.57912 0.18276 0.35188 0.0000 Uiso
H12_18 H 0.64757 0.18495 0.34998 0.0000 Uiso
H13_18 H 0.53524 0.16112 0.33059 0.0000 Uiso
H14_18 H 0.56210 0.11351 0.35059 0.0000 Uiso
H17_10 H 0.84932 0.01590 0.46516 0.0000 Uiso
H18_10 H 0.85955 0.05512 0.51409 0.0000 Uiso
C23_10 C 0.90046 0.13758 0.59116 0.0000 Uiso
C28_10 C 0.86963 0.00994 0.48344 0.0000 Uiso
C29_10 C 0.90161 0.02503 0.53557 0.0000 Uiso
C30_10 C 0.87551 0.03234 0.51134 0.0000 Uiso
C31_10 C 0.90754 0.04697 0.56649 0.0000 Uiso
C32_10 C 0.90089 0.10193 0.59682 0.0000 Uiso
C33_10 C 0.90051 0.08944 0.63102 0.0000 Uiso
N3_10 N 0.89812 0.07912 0.56724 0.0000 Uiso
H19_10 H 0.90002 0.14757 0.56505 0.0000 Uiso
H20_10 H 0.91941 0.03524 0.58888 0.0000 Uiso
H21_10 H 0.89941 0.06210 0.63649 0.0000 Uiso
H22_10 H 0.94204 0.26070 0.70045 0.0000 Uiso
H23_10 H 0.93185 0.29978 0.74823 0.0000 Uiso
H24_10 H 0.84932 0.23410 0.78484 0.0000 Uiso
H25_10 H 0.85955 0.19488 0.73591 0.0000 Uiso
C34_10 C 0.90046 0.11242 0.65884 0.0000 Uiso
C35_10 C 0.92177 0.25461 0.71866 0.0000 Uiso
C36_10 C 0.91569 0.27705 0.74600 0.0000 Uiso
C37_10 C 0.88166 0.29614 0.79678 0.0000 Uiso
C38_10 C 0.88937 0.27031 0.77012 0.0000 Uiso
C39_10 C 0.86963 0.24006 0.76656 0.0000 Uiso
C40_10 C 0.90161 0.22497 0.71443 0.0000 Uiso
C41_10 C 0.87551 0.21766 0.73866 0.0000 Uiso
C42_10 C 0.90754 0.20303 0.68351 0.0000 Uiso
C43_10 C 0.90089 0.14807 0.65318 0.0000 Uiso
C44_10 C 0.90051 0.16056 0.61898 0.0000 Uiso
O11_10 O 0.87903 0.32784 0.78671 0.0000 Uiso
N4_10 N 0.89812 0.17088 0.68276 0.0000 Uiso
H26_10 H 0.90002 0.10243 0.68495 0.0000 Uiso
H27_10 H 0.91941 0.21476 0.66112 0.0000 Uiso
H28_10 H 0.89941 0.18790 0.61351 0.0000 Uiso
H31_10 H 0.90068 0.01590 0.28484 0.0000 Uiso
H32_10 H 0.89045 0.05512 0.23591 0.0000 Uiso
C45_10 C 0.84954 0.13758 0.15884 0.0000 Uiso
C50_10 C 0.88037 0.00994 0.26656 0.0000 Uiso
C51_10 C 0.84839 0.02503 0.21443 0.0000 Uiso
C52_10 C 0.87449 0.03234 0.23866 0.0000 Uiso
C53_10 C 0.84246 0.04697 0.18351 0.0000 Uiso
C54_10 C 0.84911 0.10193 0.15318 0.0000 Uiso
C55_10 C 0.84949 0.08944 0.11898 0.0000 Uiso
N5_10 N 0.85188 0.07912 0.18276 0.0000 Uiso
H33_10 H 0.84998 0.14757 0.18495 0.0000 Uiso
H34_10 H 0.83059 0.03524 0.16112 0.0000 Uiso
H35_10 H 0.85059 0.06210 0.11351 0.0000 Uiso
H36_10 H 0.80796 0.26070 0.04955 0.0000 Uiso
H37_10 H 0.81815 0.29978 0.00177 0.0000 Uiso
H39_10 H 0.89045 0.19488 0.01409 0.0000 Uiso
C56_10 C 0.84954 0.11242 0.09116 0.0000 Uiso
C57_10 C 0.82823 0.25461 0.03134 0.0000 Uiso
C58_10 C 0.83431 0.27705 0.00400 0.0000 Uiso
C62_10 C 0.84839 0.22497 0.03557 0.0000 Uiso
C63_10 C 0.87449 0.21766 0.01134 0.0000 Uiso
C64_10 C 0.84246 0.20303 0.06649 0.0000 Uiso
C65_10 C 0.84911 0.14807 0.09682 0.0000 Uiso
C66_10 C 0.84949 0.16056 0.13102 0.0000 Uiso
N6_10 N 0.85188 0.17088 0.06724 0.0000 Uiso
H40_10 H 0.84998 0.10243 0.06505 0.0000 Uiso
H41_10 H 0.83059 0.21476 0.08888 0.0000 Uiso
H42_10 H 0.85059 0.18790 0.13649 0.0000 Uiso
Zr5_8 Zr 0.37500 0.31417 0.37500 0.0000 Uiso
H38_10 H 0.90068 0.23410 0.96516 0.0000 Uiso
C59_10 C 0.86834 0.29614 0.95322 0.0000 Uiso
C60_10 C 0.86063 0.27031 0.97988 0.0000 Uiso
C61_10 C 0.88037 0.24006 0.98344 0.0000 Uiso
O15_10 O 0.87097 0.32784 0.96329 0.0000 Uiso
H3_18 H 0.73410 0.96516 0.40068 0.0000 Uiso
C4_18 C 0.79614 0.95322 0.36834 0.0000 Uiso
C5_18 C 0.77031 0.97988 0.36063 0.0000 Uiso
C6_18 C 0.74006 0.98344 0.38037 0.0000 Uiso
O1_10 O 0.82784 0.96329 0.37097 0.0000 Uiso
O2_18 O 0.78567 0.92144 0.37108 0.0000 Uiso
Zr1_10 Zr 0.87500 0.93583 0.37500 0.0000 Uiso
H15_10 H 0.94204 0.98930 0.54955 0.0000 Uiso
H16_10 H 0.93185 0.95022 0.50177 0.0000 Uiso
C24_10 C 0.92177 0.99539 0.53134 0.0000 Uiso
C25_10 C 0.91569 0.97295 0.50400 0.0000 Uiso
C26_10 C 0.88166 0.95386 0.45322 0.0000 Uiso
C27_10 C 0.88937 0.97969 0.47988 0.0000 Uiso
O10_10 O 0.87892 0.96433 0.42144 0.0000 Uiso
H29_10 H 0.80796 0.98930 0.20045 0.0000 Uiso
H30_10 H 0.81815 0.95022 0.24823 0.0000 Uiso
C46_10 C 0.82823 0.99539 0.21866 0.0000 Uiso
C47_10 C 0.83431 0.97295 0.24600 0.0000 Uiso
C48_10 C 0.86834 0.95386 0.29678 0.0000 Uiso
C49_10 C 0.86063 0.97969 0.27012 0.0000 Uiso
O14_10 O 0.87108 0.96433 0.32856 0.0000 Uiso
O17_10 O 0.92216 0.96329 0.37903 0.0000 Uiso
H4_19 H 0.05512 0.01409 0.35955 0.0000 Uiso
C1_19 C 0.13758 0.09116 0.40046 0.0000 Uiso
C7_19 C 0.02503 0.03557 0.40161 0.0000 Uiso
C8_19 C 0.03234 0.01134 0.37551 0.0000 Uiso
C9_19 C 0.04697 0.06649 0.40754 0.0000 Uiso
C10_19 C 0.10193 0.09682 0.40089 0.0000 Uiso
C11_19 C 0.08944 0.13102 0.40051 0.0000 Uiso
N1_19 N 0.07912 0.06724 0.39812 0.0000 Uiso
H5_19 H 0.14757 0.06505 0.40002 0.0000 Uiso
H6_19 H 0.03524 0.08888 0.41941 0.0000 Uiso
H7_19 H 0.06210 0.13649 0.39941 0.0000 Uiso
H8_19 H 0.26070 0.20045 0.44204 0.0000 Uiso
H9_19 H 0.29978 0.24823 0.43185 0.0000 Uiso
H10_19 H 0.23410 0.28484 0.34932 0.0000 Uiso
H11_19 H 0.19488 0.23591 0.35955 0.0000 Uiso
C12_19 C 0.11242 0.15884 0.40046 0.0000 Uiso
C13_19 C 0.25461 0.21866 0.42177 0.0000 Uiso
C14_19 C 0.27705 0.24600 0.41569 0.0000 Uiso
C15_19 C 0.29614 0.29678 0.38166 0.0000 Uiso
C16_19 C 0.27031 0.27012 0.38937 0.0000 Uiso
C17_19 C 0.24006 0.26656 0.36963 0.0000 Uiso
C18_19 C 0.22497 0.21443 0.40161 0.0000 Uiso
C19_19 C 0.21766 0.23866 0.37551 0.0000 Uiso
C20_19 C 0.20303 0.18351 0.40754 0.0000 Uiso
C21_19 C 0.14807 0.15318 0.40089 0.0000 Uiso
C22_19 C 0.16056 0.11898 0.40051 0.0000 Uiso
O5_19 O 0.32784 0.28671 0.37903 0.0000 Uiso
O6_19 O 0.28567 0.32856 0.37892 0.0000 Uiso
N2_19 N 0.17088 0.18276 0.39812 0.0000 Uiso
H12_19 H 0.10243 0.18495 0.40002 0.0000 Uiso
H13_19 H 0.21476 0.16112 0.41941 0.0000 Uiso
H14_19 H 0.18790 0.11351 0.39941 0.0000 Uiso
H3_19 H 0.01590 0.96516 0.34932 0.0000 Uiso
C6_19 C 0.00994 0.98344 0.36963 0.0000 Uiso
H1_19 H 0.98930 0.04955 0.44204 0.0000 Uiso
H2_19 H 0.95022 0.00177 0.43185 0.0000 Uiso
C2_19 C 0.99539 0.03134 0.42177 0.0000 Uiso
C3_19 C 0.97295 0.00400 0.41569 0.0000 Uiso
C4_19 C 0.95386 0.95322 0.38166 0.0000 Uiso
C5_19 C 0.97969 0.97988 0.38937 0.0000 Uiso
O2_19 O 0.96433 0.92144 0.37892 0.0000 Uiso
H3_20 H 0.01590 0.78484 0.40068 0.0000 Uiso
H4_20 H 0.05512 0.73591 0.39045 0.0000 Uiso
C1_20 C 0.13758 0.65884 0.34954 0.0000 Uiso
C6_20 C 0.00994 0.76656 0.38037 0.0000 Uiso
C7_20 C 0.02503 0.71443 0.34839 0.0000 Uiso
C8_20 C 0.03234 0.73866 0.37449 0.0000 Uiso
C9_20 C 0.04697 0.68351 0.34246 0.0000 Uiso
C10_20 C 0.10193 0.65318 0.34911 0.0000 Uiso
C11_20 C 0.08944 0.61898 0.34949 0.0000 Uiso
N1_20 N 0.07912 0.68276 0.35188 0.0000 Uiso
H5_20 H 0.14757 0.68495 0.34998 0.0000 Uiso
H6_20 H 0.03524 0.66112 0.33059 0.0000 Uiso
H7_20 H 0.06210 0.61351 0.35059 0.0000 Uiso
H8_20 H 0.26070 0.54955 0.30796 0.0000 Uiso
H9_20 H 0.29978 0.50177 0.31815 0.0000 Uiso
H10_20 H 0.23410 0.46516 0.40068 0.0000 Uiso
H11_20 H 0.19488 0.51409 0.39045 0.0000 Uiso
C12_20 C 0.11242 0.59116 0.34954 0.0000 Uiso
C13_20 C 0.25461 0.53134 0.32823 0.0000 Uiso
C14_20 C 0.27705 0.50400 0.33431 0.0000 Uiso
C15_20 C 0.29614 0.45322 0.36834 0.0000 Uiso
C16_20 C 0.27031 0.47988 0.36063 0.0000 Uiso
C17_20 C 0.24006 0.48344 0.38037 0.0000 Uiso
C18_20 C 0.22497 0.53557 0.34839 0.0000 Uiso
C19_20 C 0.21766 0.51134 0.37449 0.0000 Uiso
C20_20 C 0.20303 0.56649 0.34246 0.0000 Uiso
C21_20 C 0.14807 0.59682 0.34911 0.0000 Uiso
C22_20 C 0.16056 0.63102 0.34949 0.0000 Uiso
O5_20 O 0.32784 0.46329 0.37097 0.0000 Uiso
O6_20 O 0.28567 0.42144 0.37108 0.0000 Uiso
N2_20 N 0.17088 0.56724 0.35188 0.0000 Uiso
H12_20 H 0.10243 0.56505 0.34998 0.0000 Uiso
H13_20 H 0.21476 0.58888 0.33059 0.0000 Uiso
H14_20 H 0.18790 0.63649 0.35059 0.0000 Uiso
H1_20 H 0.98930 0.70045 0.30796 0.0000 Uiso
H2_20 H 0.95022 0.74823 0.31815 0.0000 Uiso
C2_20 C 0.99539 0.71866 0.32823 0.0000 Uiso
C3_20 C 0.97295 0.74600 0.33431 0.0000 Uiso
C4_20 C 0.95386 0.79678 0.36834 0.0000 Uiso
C5_20 C 0.97969 0.77012 0.36063 0.0000 Uiso
O2_20 O 0.96433 0.82856 0.37108 0.0000 Uiso
H1_21 H 0.44204 0.76070 0.70045 0.0000 Uiso
H2_21 H 0.43185 0.79978 0.74823 0.0000 Uiso
H3_21 H 0.34932 0.73410 0.78484 0.0000 Uiso
H4_21 H 0.35955 0.69488 0.73591 0.0000 Uiso
C1_21 C 0.40046 0.61242 0.65884 0.0000 Uiso
C2_21 C 0.42177 0.75461 0.71866 0.0000 Uiso
C3_21 C 0.41569 0.77705 0.74600 0.0000 Uiso
C4_21 C 0.38166 0.79614 0.79678 0.0000 Uiso
C5_21 C 0.38937 0.77031 0.77012 0.0000 Uiso
C6_21 C 0.36963 0.74006 0.76656 0.0000 Uiso
C7_21 C 0.40161 0.72497 0.71443 0.0000 Uiso
C8_21 C 0.37551 0.71766 0.73866 0.0000 Uiso
C9_21 C 0.40754 0.70303 0.68351 0.0000 Uiso
C10_21 C 0.40089 0.64807 0.65318 0.0000 Uiso
C11_21 C 0.40051 0.66056 0.61898 0.0000 Uiso
O1_11 O 0.37903 0.82784 0.78671 0.0000 Uiso
O2_21 O 0.37892 0.78567 0.82856 0.0000 Uiso
N1_21 N 0.39812 0.67088 0.68276 0.0000 Uiso
H5_21 H 0.40002 0.60243 0.68495 0.0000 Uiso
H6_21 H 0.41941 0.71476 0.66112 0.0000 Uiso
H7_21 H 0.39941 0.68790 0.61351 0.0000 Uiso
Zr1_11 Zr 0.37500 0.87500 0.81417 0.0000 Uiso
O3_7 O 0.40590 0.84410 0.84410 0.0000 Uiso
O4_7 O 0.40730 0.90730 0.84270 0.0000 Uiso
H8_21 H 0.44204 0.48930 0.54955 0.0000 Uiso
H9_21 H 0.43185 0.45022 0.50177 0.0000 Uiso
H10_21 H 0.34932 0.51590 0.46516 0.0000 Uiso
H11_21 H 0.35955 0.55512 0.51409 0.0000 Uiso
C12_21 C 0.40046 0.63758 0.59116 0.0000 Uiso
C13_21 C 0.42177 0.49539 0.53134 0.0000 Uiso
C14_21 C 0.41569 0.47295 0.50400 0.0000 Uiso
C15_21 C 0.38166 0.45386 0.45322 0.0000 Uiso
C16_21 C 0.38937 0.47969 0.47988 0.0000 Uiso
C17_21 C 0.36963 0.50994 0.48344 0.0000 Uiso
C18_21 C 0.40161 0.52503 0.53557 0.0000 Uiso
C19_21 C 0.37551 0.53234 0.51134 0.0000 Uiso
C20_21 C 0.40754 0.54697 0.56649 0.0000 Uiso
C21_21 C 0.40089 0.60193 0.59682 0.0000 Uiso
C22_21 C 0.40051 0.58944 0.63102 0.0000 Uiso
O5_21 O 0.37903 0.42216 0.46329 0.0000 Uiso
O6_21 O 0.37892 0.46433 0.42144 0.0000 Uiso
N2_21 N 0.39812 0.57912 0.56724 0.0000 Uiso
H12_21 H 0.40002 0.64757 0.56505 0.0000 Uiso
H13_21 H 0.41941 0.53524 0.58888 0.0000 Uiso
H14_21 H 0.39941 0.56210 0.63649 0.0000 Uiso
O7_7 O 0.34410 0.90590 0.84410 0.0000 Uiso
O8_7 O 0.34270 0.84270 0.84270 0.0000 Uiso
H15_11 H 0.20045 0.94204 0.76070 0.0000 Uiso
H16_11 H 0.24823 0.93185 0.79978 0.0000 Uiso
H17_11 H 0.28484 0.84932 0.73410 0.0000 Uiso
H18_11 H 0.23591 0.85955 0.69488 0.0000 Uiso
C23_11 C 0.15884 0.90046 0.61242 0.0000 Uiso
C24_11 C 0.21866 0.92177 0.75461 0.0000 Uiso
C25_11 C 0.24600 0.91569 0.77705 0.0000 Uiso
C26_11 C 0.29678 0.88166 0.79614 0.0000 Uiso
C27_11 C 0.27012 0.88937 0.77031 0.0000 Uiso
C28_11 C 0.26656 0.86963 0.74006 0.0000 Uiso
C29_11 C 0.21443 0.90161 0.72497 0.0000 Uiso
C30_11 C 0.23866 0.87551 0.71766 0.0000 Uiso
C31_11 C 0.18351 0.90754 0.70303 0.0000 Uiso
C32_11 C 0.15318 0.90089 0.64807 0.0000 Uiso
C33_11 C 0.11898 0.90051 0.66056 0.0000 Uiso
O9_6 O 0.28671 0.87903 0.82784 0.0000 Uiso
O10_11 O 0.32856 0.87892 0.78567 0.0000 Uiso
N3_11 N 0.18276 0.89812 0.67088 0.0000 Uiso
H19_11 H 0.18495 0.90002 0.60243 0.0000 Uiso
H20_11 H 0.16112 0.91941 0.71476 0.0000 Uiso
H21_11 H 0.11351 0.89941 0.68790 0.0000 Uiso
H22_11 H 0.04955 0.94204 0.48930 0.0000 Uiso
H23_11 H 0.00177 0.93185 0.45022 0.0000 Uiso
H25_11 H 0.01409 0.85955 0.55512 0.0000 Uiso
C34_11 C 0.09116 0.90046 0.63758 0.0000 Uiso
C35_11 C 0.03134 0.92177 0.49539 0.0000 Uiso
C36_11 C 0.00400 0.91569 0.47295 0.0000 Uiso
C40_11 C 0.03557 0.90161 0.52503 0.0000 Uiso
C41_11 C 0.01134 0.87551 0.53234 0.0000 Uiso
C42_11 C 0.06649 0.90754 0.54697 0.0000 Uiso
C43_11 C 0.09682 0.90089 0.60193 0.0000 Uiso
C44_11 C 0.13102 0.90051 0.58944 0.0000 Uiso
N4_11 N 0.06724 0.89812 0.57912 0.0000 Uiso
H26_11 H 0.06505 0.90002 0.64757 0.0000 Uiso
H27_11 H 0.08888 0.91941 0.53524 0.0000 Uiso
H28_11 H 0.13649 0.89941 0.56210 0.0000 Uiso
H29_11 H 0.54955 0.80796 0.76070 0.0000 Uiso
H30_11 H 0.50177 0.81815 0.79978 0.0000 Uiso
H31_11 H 0.46516 0.90068 0.73410 0.0000 Uiso
H32_11 H 0.51409 0.89045 0.69488 0.0000 Uiso
C45_11 C 0.59116 0.84954 0.61242 0.0000 Uiso
C46_11 C 0.53134 0.82823 0.75461 0.0000 Uiso
C47_11 C 0.50400 0.83431 0.77705 0.0000 Uiso
C48_11 C 0.45322 0.86834 0.79614 0.0000 Uiso
C49_11 C 0.47988 0.86063 0.77031 0.0000 Uiso
C50_11 C 0.48344 0.88037 0.74006 0.0000 Uiso
C51_11 C 0.53557 0.84839 0.72497 0.0000 Uiso
C52_11 C 0.51134 0.87449 0.71766 0.0000 Uiso
C53_11 C 0.56649 0.84246 0.70303 0.0000 Uiso
C54_11 C 0.59682 0.84911 0.64807 0.0000 Uiso
C55_11 C 0.63102 0.84949 0.66056 0.0000 Uiso
O13_6 O 0.46329 0.87097 0.82784 0.0000 Uiso
O14_11 O 0.42144 0.87108 0.78567 0.0000 Uiso
N5_11 N 0.56724 0.85188 0.67088 0.0000 Uiso
H33_11 H 0.56505 0.84998 0.60243 0.0000 Uiso
H34_11 H 0.58888 0.83059 0.71476 0.0000 Uiso
H35_11 H 0.63649 0.85059 0.68790 0.0000 Uiso
H36_11 H 0.70045 0.80796 0.48930 0.0000 Uiso
H37_11 H 0.74823 0.81815 0.45022 0.0000 Uiso
H38_11 H 0.78484 0.90068 0.51590 0.0000 Uiso
H39_11 H 0.73591 0.89045 0.55512 0.0000 Uiso
C56_11 C 0.65884 0.84954 0.63758 0.0000 Uiso
C57_11 C 0.71866 0.82823 0.49539 0.0000 Uiso
C58_11 C 0.74600 0.83431 0.47295 0.0000 Uiso
C59_11 C 0.79678 0.86834 0.45386 0.0000 Uiso
C60_11 C 0.77012 0.86063 0.47969 0.0000 Uiso
C61_11 C 0.76656 0.88037 0.50994 0.0000 Uiso
C62_11 C 0.71443 0.84839 0.52503 0.0000 Uiso
C63_11 C 0.73866 0.87449 0.53234 0.0000 Uiso
C64_11 C 0.68351 0.84246 0.54697 0.0000 Uiso
C65_11 C 0.65318 0.84911 0.60193 0.0000 Uiso
C66_11 C 0.61898 0.84949 0.58944 0.0000 Uiso
O15_11 O 0.78671 0.87097 0.42216 0.0000 Uiso
N6_11 N 0.68276 0.85188 0.57912 0.0000 Uiso
H40_11 H 0.68495 0.84998 0.64757 0.0000 Uiso
H41_11 H 0.66112 0.83059 0.53524 0.0000 Uiso
H42_11 H 0.61351 0.85059 0.56210 0.0000 Uiso
O17_11 O 0.37097 0.92216 0.78671 0.0000 Uiso
O18_6 O 0.46329 0.87903 0.92216 0.0000 Uiso
O19_6 O 0.28671 0.87097 0.92216 0.0000 Uiso
O24_7 O 0.34410 0.84410 0.90590 0.0000 Uiso
O25_7 O 0.40590 0.90590 0.90590 0.0000 Uiso
O26_7 O 0.34270 0.90730 0.90730 0.0000 Uiso
O27_7 O 0.40730 0.84270 0.90730 0.0000 Uiso
H24_11 H 0.96516 0.84932 0.51590 0.0000 Uiso
C37_11 C 0.95322 0.88166 0.45386 0.0000 Uiso
C38_11 C 0.97988 0.88937 0.47969 0.0000 Uiso
C39_11 C 0.98344 0.86963 0.50994 0.0000 Uiso
O11_11 O 0.96329 0.87903 0.42216 0.0000 Uiso
H1_22 H 0.30796 0.76070 0.04955 0.0000 Uiso
H2_22 H 0.31815 0.79978 0.00177 0.0000 Uiso
H4_22 H 0.39045 0.69488 0.01409 0.0000 Uiso
C1_22 C 0.34954 0.61242 0.09116 0.0000 Uiso
C2_22 C 0.32823 0.75461 0.03134 0.0000 Uiso
C3_22 C 0.33431 0.77705 0.00400 0.0000 Uiso
C7_22 C 0.34839 0.72497 0.03557 0.0000 Uiso
C8_22 C 0.37449 0.71766 0.01134 0.0000 Uiso
C9_22 C 0.34246 0.70303 0.06649 0.0000 Uiso
C10_22 C 0.34911 0.64807 0.09682 0.0000 Uiso
C11_22 C 0.34949 0.66056 0.13102 0.0000 Uiso
N1_22 N 0.35188 0.67088 0.06724 0.0000 Uiso
H5_22 H 0.34998 0.60243 0.06505 0.0000 Uiso
H6_22 H 0.33059 0.71476 0.08888 0.0000 Uiso
H7_22 H 0.35059 0.68790 0.13649 0.0000 Uiso
H8_22 H 0.30796 0.48930 0.20045 0.0000 Uiso
H9_22 H 0.31815 0.45022 0.24823 0.0000 Uiso
H10_22 H 0.40068 0.51590 0.28484 0.0000 Uiso
H11_22 H 0.39045 0.55512 0.23591 0.0000 Uiso
C12_22 C 0.34954 0.63758 0.15884 0.0000 Uiso
C13_22 C 0.32823 0.49539 0.21866 0.0000 Uiso
C14_22 C 0.33431 0.47295 0.24600 0.0000 Uiso
C15_22 C 0.36834 0.45386 0.29678 0.0000 Uiso
C16_22 C 0.36063 0.47969 0.27012 0.0000 Uiso
C17_22 C 0.38037 0.50994 0.26656 0.0000 Uiso
C18_22 C 0.34839 0.52503 0.21443 0.0000 Uiso
C19_22 C 0.37449 0.53234 0.23866 0.0000 Uiso
C20_22 C 0.34246 0.54697 0.18351 0.0000 Uiso
C21_22 C 0.34911 0.60193 0.15318 0.0000 Uiso
C22_22 C 0.34949 0.58944 0.11898 0.0000 Uiso
O5_22 O 0.37097 0.42216 0.28671 0.0000 Uiso
O6_22 O 0.37108 0.46433 0.32856 0.0000 Uiso
N2_22 N 0.35188 0.57912 0.18276 0.0000 Uiso
H12_22 H 0.34998 0.64757 0.18495 0.0000 Uiso
H13_22 H 0.33059 0.53524 0.16112 0.0000 Uiso
H14_22 H 0.35059 0.56210 0.11351 0.0000 Uiso
H17_12 H 0.46516 0.84932 0.01590 0.0000 Uiso
H18_12 H 0.51409 0.85955 0.05512 0.0000 Uiso
C23_12 C 0.59116 0.90046 0.13758 0.0000 Uiso
C28_12 C 0.48344 0.86963 0.00994 0.0000 Uiso
C29_12 C 0.53557 0.90161 0.02503 0.0000 Uiso
C30_12 C 0.51134 0.87551 0.03234 0.0000 Uiso
C31_12 C 0.56649 0.90754 0.04697 0.0000 Uiso
C32_12 C 0.59682 0.90089 0.10193 0.0000 Uiso
C33_12 C 0.63102 0.90051 0.08944 0.0000 Uiso
N3_12 N 0.56724 0.89812 0.07912 0.0000 Uiso
H19_12 H 0.56505 0.90002 0.14757 0.0000 Uiso
H20_12 H 0.58888 0.91941 0.03524 0.0000 Uiso
H21_12 H 0.63649 0.89941 0.06210 0.0000 Uiso
H22_12 H 0.70045 0.94204 0.26070 0.0000 Uiso
H23_12 H 0.74823 0.93185 0.29978 0.0000 Uiso
H24_12 H 0.78484 0.84932 0.23410 0.0000 Uiso
H25_12 H 0.73591 0.85955 0.19488 0.0000 Uiso
C34_12 C 0.65884 0.90046 0.11242 0.0000 Uiso
C35_12 C 0.71866 0.92177 0.25461 0.0000 Uiso
C36_12 C 0.74600 0.91569 0.27705 0.0000 Uiso
C37_12 C 0.79678 0.88166 0.29614 0.0000 Uiso
C38_12 C 0.77012 0.88937 0.27031 0.0000 Uiso
C39_12 C 0.76656 0.86963 0.24006 0.0000 Uiso
C40_12 C 0.71443 0.90161 0.22497 0.0000 Uiso
C41_12 C 0.73866 0.87551 0.21766 0.0000 Uiso
C42_12 C 0.68351 0.90754 0.20303 0.0000 Uiso
C43_12 C 0.65318 0.90089 0.14807 0.0000 Uiso
C44_12 C 0.61898 0.90051 0.16056 0.0000 Uiso
O11_12 O 0.78671 0.87903 0.32784 0.0000 Uiso
N4_12 N 0.68276 0.89812 0.17088 0.0000 Uiso
H26_12 H 0.68495 0.90002 0.10243 0.0000 Uiso
H27_12 H 0.66112 0.91941 0.21476 0.0000 Uiso
H28_12 H 0.61351 0.89941 0.18790 0.0000 Uiso
H31_12 H 0.28484 0.90068 0.01590 0.0000 Uiso
H32_12 H 0.23591 0.89045 0.05512 0.0000 Uiso
C45_12 C 0.15884 0.84954 0.13758 0.0000 Uiso
C50_12 C 0.26656 0.88037 0.00994 0.0000 Uiso
C51_12 C 0.21443 0.84839 0.02503 0.0000 Uiso
C52_12 C 0.23866 0.87449 0.03234 0.0000 Uiso
C53_12 C 0.18351 0.84246 0.04697 0.0000 Uiso
C54_12 C 0.15318 0.84911 0.10193 0.0000 Uiso
C55_12 C 0.11898 0.84949 0.08944 0.0000 Uiso
N5_12 N 0.18276 0.85188 0.07912 0.0000 Uiso
H33_12 H 0.18495 0.84998 0.14757 0.0000 Uiso
H34_12 H 0.16112 0.83059 0.03524 0.0000 Uiso
H35_12 H 0.11351 0.85059 0.06210 0.0000 Uiso
H36_12 H 0.04955 0.80796 0.26070 0.0000 Uiso
H37_12 H 0.00177 0.81815 0.29978 0.0000 Uiso
H39_12 H 0.01409 0.89045 0.19488 0.0000 Uiso
C56_12 C 0.09116 0.84954 0.11242 0.0000 Uiso
C57_12 C 0.03134 0.82823 0.25461 0.0000 Uiso
C58_12 C 0.00400 0.83431 0.27705 0.0000 Uiso
C62_12 C 0.03557 0.84839 0.22497 0.0000 Uiso
C63_12 C 0.01134 0.87449 0.21766 0.0000 Uiso
C64_12 C 0.06649 0.84246 0.20303 0.0000 Uiso
C65_12 C 0.09682 0.84911 0.14807 0.0000 Uiso
C66_12 C 0.13102 0.84949 0.16056 0.0000 Uiso
N6_12 N 0.06724 0.85188 0.17088 0.0000 Uiso
H40_12 H 0.06505 0.84998 0.10243 0.0000 Uiso
H41_12 H 0.08888 0.83059 0.21476 0.0000 Uiso
H42_12 H 0.13649 0.85059 0.18790 0.0000 Uiso
H3_22 H 0.40068 0.73410 0.96516 0.0000 Uiso
C4_22 C 0.36834 0.79614 0.95322 0.0000 Uiso
C5_22 C 0.36063 0.77031 0.97988 0.0000 Uiso
C6_22 C 0.38037 0.74006 0.98344 0.0000 Uiso
O1_12 O 0.37097 0.82784 0.96329 0.0000 Uiso
O2_22 O 0.37108 0.78567 0.92144 0.0000 Uiso
Zr1_12 Zr 0.37500 0.87500 0.93583 0.0000 Uiso
H15_12 H 0.54955 0.94204 0.98930 0.0000 Uiso
H16_12 H 0.50177 0.93185 0.95022 0.0000 Uiso
C24_12 C 0.53134 0.92177 0.99539 0.0000 Uiso
C25_12 C 0.50400 0.91569 0.97295 0.0000 Uiso
C26_12 C 0.45322 0.88166 0.95386 0.0000 Uiso
C27_12 C 0.47988 0.88937 0.97969 0.0000 Uiso
O10_12 O 0.42144 0.87892 0.96433 0.0000 Uiso
H29_12 H 0.20045 0.80796 0.98930 0.0000 Uiso
H30_12 H 0.24823 0.81815 0.95022 0.0000 Uiso
C46_12 C 0.21866 0.82823 0.99539 0.0000 Uiso
C47_12 C 0.24600 0.83431 0.97295 0.0000 Uiso
C48_12 C 0.29678 0.86834 0.95386 0.0000 Uiso
C49_12 C 0.27012 0.86063 0.97969 0.0000 Uiso
O14_12 O 0.32856 0.87108 0.96433 0.0000 Uiso
O17_12 O 0.37903 0.92216 0.96329 0.0000 Uiso
H38_12 H 0.96516 0.90068 0.23410 0.0000 Uiso
C59_12 C 0.95322 0.86834 0.29614 0.0000 Uiso
C60_12 C 0.97988 0.86063 0.27031 0.0000 Uiso
C61_12 C 0.98344 0.88037 0.24006 0.0000 Uiso
O15_12 O 0.96329 0.87097 0.32784 0.0000 Uiso
H4_23 H 0.35955 0.05512 0.01409 0.0000 Uiso
C1_23 C 0.40046 0.13758 0.09116 0.0000 Uiso
C7_23 C 0.40161 0.02503 0.03557 0.0000 Uiso
C8_23 C 0.37551 0.03234 0.01134 0.0000 Uiso
C9_23 C 0.40754 0.04697 0.06649 0.0000 Uiso
C10_23 C 0.40089 0.10193 0.09682 0.0000 Uiso
C11_23 C 0.40051 0.08944 0.13102 0.0000 Uiso
N1_23 N 0.39812 0.07912 0.06724 0.0000 Uiso
H5_23 H 0.40002 0.14757 0.06505 0.0000 Uiso
H6_23 H 0.41941 0.03524 0.08888 0.0000 Uiso
H7_23 H 0.39941 0.06210 0.13649 0.0000 Uiso
H8_23 H 0.44204 0.26070 0.20045 0.0000 Uiso
H9_23 H 0.43185 0.29978 0.24823 0.0000 Uiso
H10_23 H 0.34932 0.23410 0.28484 0.0000 Uiso
H11_23 H 0.35955 0.19488 0.23591 0.0000 Uiso
C12_23 C 0.40046 0.11242 0.15884 0.0000 Uiso
C13_23 C 0.42177 0.25461 0.21866 0.0000 Uiso
C14_23 C 0.41569 0.27705 0.24600 0.0000 Uiso
C15_23 C 0.38166 0.29614 0.29678 0.0000 Uiso
C16_23 C 0.38937 0.27031 0.27012 0.0000 Uiso
C17_23 C 0.36963 0.24006 0.26656 0.0000 Uiso
C18_23 C 0.40161 0.22497 0.21443 0.0000 Uiso
C19_23 C 0.37551 0.21766 0.23866 0.0000 Uiso
C20_23 C 0.40754 0.20303 0.18351 0.0000 Uiso
C21_23 C 0.40089 0.14807 0.15318 0.0000 Uiso
C22_23 C 0.40051 0.16056 0.11898 0.0000 Uiso
O5_23 O 0.37903 0.32784 0.28671 0.0000 Uiso
O6_23 O 0.37892 0.28567 0.32856 0.0000 Uiso
N2_23 N 0.39812 0.17088 0.18276 0.0000 Uiso
H12_23 H 0.40002 0.10243 0.18495 0.0000 Uiso
H13_23 H 0.41941 0.21476 0.16112 0.0000 Uiso
H14_23 H 0.39941 0.18790 0.11351 0.0000 Uiso
H3_23 H 0.34932 0.01590 0.96516 0.0000 Uiso
C6_23 C 0.36963 0.00994 0.98344 0.0000 Uiso
H1_23 H 0.44204 0.98930 0.04955 0.0000 Uiso
H2_23 H 0.43185 0.95022 0.00177 0.0000 Uiso
C2_23 C 0.42177 0.99539 0.03134 0.0000 Uiso
C3_23 C 0.41569 0.97295 0.00400 0.0000 Uiso
C4_23 C 0.38166 0.95386 0.95322 0.0000 Uiso
C5_23 C 0.38937 0.97969 0.97988 0.0000 Uiso
O2_23 O 0.37892 0.96433 0.92144 0.0000 Uiso
H3_24 H 0.40068 0.01590 0.78484 0.0000 Uiso
H4_24 H 0.39045 0.05512 0.73591 0.0000 Uiso
C1_24 C 0.34954 0.13758 0.65884 0.0000 Uiso
C6_24 C 0.38037 0.00994 0.76656 0.0000 Uiso
C7_24 C 0.34839 0.02503 0.71443 0.0000 Uiso
C8_24 C 0.37449 0.03234 0.73866 0.0000 Uiso
C9_24 C 0.34246 0.04697 0.68351 0.0000 Uiso
C10_24 C 0.34911 0.10193 0.65318 0.0000 Uiso
C11_24 C 0.34949 0.08944 0.61898 0.0000 Uiso
N1_24 N 0.35188 0.07912 0.68276 0.0000 Uiso
H5_24 H 0.34998 0.14757 0.68495 0.0000 Uiso
H6_24 H 0.33059 0.03524 0.66112 0.0000 Uiso
H7_24 H 0.35059 0.06210 0.61351 0.0000 Uiso
H8_24 H 0.30796 0.26070 0.54955 0.0000 Uiso
H9_24 H 0.31815 0.29978 0.50177 0.0000 Uiso
H10_24 H 0.40068 0.23410 0.46516 0.0000 Uiso
H11_24 H 0.39045 0.19488 0.51409 0.0000 Uiso
C12_24 C 0.34954 0.11242 0.59116 0.0000 Uiso
C13_24 C 0.32823 0.25461 0.53134 0.0000 Uiso
C14_24 C 0.33431 0.27705 0.50400 0.0000 Uiso
C15_24 C 0.36834 0.29614 0.45322 0.0000 Uiso
C16_24 C 0.36063 0.27031 0.47988 0.0000 Uiso
C17_24 C 0.38037 0.24006 0.48344 0.0000 Uiso
C18_24 C 0.34839 0.22497 0.53557 0.0000 Uiso
C19_24 C 0.37449 0.21766 0.51134 0.0000 Uiso
C20_24 C 0.34246 0.20303 0.56649 0.0000 Uiso
C21_24 C 0.34911 0.14807 0.59682 0.0000 Uiso
C22_24 C 0.34949 0.16056 0.63102 0.0000 Uiso
O5_24 O 0.37097 0.32784 0.46329 0.0000 Uiso
O6_24 O 0.37108 0.28567 0.42144 0.0000 Uiso
N2_24 N 0.35188 0.17088 0.56724 0.0000 Uiso
H12_24 H 0.34998 0.10243 0.56505 0.0000 Uiso
H13_24 H 0.33059 0.21476 0.58888 0.0000 Uiso
H14_24 H 0.35059 0.18790 0.63649 0.0000 Uiso
H1_24 H 0.30796 0.98930 0.70045 0.0000 Uiso
H2_24 H 0.31815 0.95022 0.74823 0.0000 Uiso
C2_24 C 0.32823 0.99539 0.71866 0.0000 Uiso
C3_24 C 0.33431 0.97295 0.74600 0.0000 Uiso
C4_24 C 0.36834 0.95386 0.79678 0.0000 Uiso
C5_24 C 0.36063 0.97969 0.77012 0.0000 Uiso
O2_24 O 0.37108 0.96433 0.82856 0.0000 Uiso
O3_8 O 0.40590 0.34410 0.34410 0.0000 Uiso
O4_8 O 0.40730 0.40730 0.34270 0.0000 Uiso
O7_8 O 0.34410 0.40590 0.34410 0.0000 Uiso
O8_8 O 0.34270 0.34270 0.34270 0.0000 Uiso
O24_8 O 0.34410 0.34410 0.40590 0.0000 Uiso
O25_8 O 0.40590 0.40590 0.40590 0.0000 Uiso
O26_8 O 0.34270 0.40730 0.40730 0.0000 Uiso
O27_8 O 0.40730 0.34270 0.40730 0.0000 Uiso
loop_
_geom_bond_atom_site_label_1
_geom_bond_atom_site_label_2
_geom_bond_site_symmetry_1
_geom_bond_site_symmetry_2
H24 C39 1_555 1_555
C37 C38 1_555 1_555
C38 C39 1_555 1_555
O11 C37 1_555 1_555
O12 C37 1_555 1_555
Zr7 O11 1_555 1_555
Zr9 O12 1_555 1_555
H1 C2 1_555 1_555
H2 C3 1_555 1_555
H3 C6 1_555 1_555
H4 C8 1_555 1_555
C1 C10 1_555 1_555
C2 C3 1_555 1_555
C3 C5 1_555 1_555
C4 C5 1_555 1_555
C5 C6 1_555 1_555
C6 C8 1_555 1_555
C7 C2 1_555 1_555
C8 C7 1_555 1_555
C9 C7 1_555 1_555
C10 C11 1_555 1_555
C11 H7 1_555 1_555
O1 C4 1_555 1_555
O2 C4 1_555 1_555
N1 C9 1_555 1_555
H5 C1 1_555 1_555
H6 C9 1_555 1_555
Zr1 O1 1_555 1_555
O3 Zr1 1_555 1_555
O4 Zr1 1_555 1_555
H8 C13 1_555 1_555
H9 C14 1_555 1_555
H10 C17 1_555 1_555
H11 C19 1_555 1_555
C12 C11 1_555 1_555
C13 C14 1_555 1_555
C14 C16 1_555 1_555
C15 C16 1_555 1_555
C16 C17 1_555 1_555
C17 C19 1_555 1_555
C18 C13 1_555 1_555
C19 C18 1_555 1_555
C20 C18 1_555 1_555
C21 C12 1_555 1_555
C22 C1 1_555 1_555
O5 C15 1_555 1_555
O6 C15 1_555 1_555
N2 C20 1_555 1_555
H12 C12 1_555 1_555
H13 C20 1_555 1_555
H14 C22 1_555 1_555
O7 Zr1 1_555 1_555
O8 Zr1 1_555 1_555
H15 C24 1_555 1_555
H16 C25 1_555 1_555
H17 C28 1_555 1_555
H18 C30 1_555 1_555
C23 C32 1_555 1_555
C24 C25 1_555 1_555
C25 C27 1_555 1_555
C26 C27 1_555 1_555
C27 C28 1_555 1_555
C28 C30 1_555 1_555
C29 C24 1_555 1_555
C30 C29 1_555 1_555
C31 C29 1_555 1_555
C32 C33 1_555 1_555
C33 H21 1_555 1_555
O9 C26 1_555 1_555
O10 Zr1 1_555 1_555
N3 C31 1_555 1_555
H19 C23 1_555 1_555
H20 C31 1_555 1_555
Zr2 O7 1_555 1_555
H22 C35 1_555 1_555
H23 C36 1_555 1_555
H25 C41 1_555 1_555
C34 C33 1_555 1_555
C35 C36 1_555 1_555
C40 C35 1_555 1_555
C41 C40 1_555 1_555
C42 C40 1_555 1_555
C43 C34 1_555 1_555
C44 C23 1_555 1_555
N4 C42 1_555 1_555
H26 C34 1_555 1_555
H27 C42 1_555 1_555
H28 C44 1_555 1_555
H29 C46 1_555 1_555
H30 C47 1_555 1_555
H31 C50 1_555 1_555
H32 C52 1_555 1_555
C45 C54 1_555 1_555
C46 C47 1_555 1_555
C47 C49 1_555 1_555
C48 C49 1_555 1_555
C49 C50 1_555 1_555
C50 C52 1_555 1_555
C51 C46 1_555 1_555
C52 C51 1_555 1_555
C53 C51 1_555 1_555
C54 C55 1_555 1_555
C55 H35 1_555 1_555
O13 C48 1_555 1_555
O14 Zr1 1_555 1_555
N5 C53 1_555 1_555
H33 C45 1_555 1_555
H34 C53 1_555 1_555
Zr3 O3 1_555 1_555
H36 C57 1_555 1_555
H37 C58 1_555 1_555
H38 C61 1_555 1_555
H39 C63 1_555 1_555
C56 C55 1_555 1_555
C57 C58 1_555 1_555
C58 C60 1_555 1_555
C59 C60 1_555 1_555
C60 C61 1_555 1_555
C61 C63 1_555 1_555
C62 C57 1_555 1_555
C63 C62 1_555 1_555
C64 C62 1_555 1_555
C65 C56 1_555 1_555
C66 C45 1_555 1_555
O15 C59 1_555 1_555
O16 C59 1_555 1_555
N6 C64 1_555 1_555
H40 C56 1_555 1_555
H41 C64 1_555 1_555
H42 C66 1_555 1_555
O17 Zr1 1_555 1_555
O18 Zr3 1_555 1_555
O19 Zr2 1_555 1_555
O20 Zr2 1_555 1_555
O21 Zr2 1_555 1_555
O22 Zr3 1_555 1_555
O23 Zr3 1_555 1_555
Zr4 O6 1_555 1_555
Zr5 O5 1_555 1_555
Zr6 O15 1_555 1_555
Zr9 O16 1_555 1_555
Zr10 O2 1_555 1_555
Zr11 O4 1_555 1_555
O24 Zr2 1_555 1_555
O25 Zr3 1_555 1_555
O26 Zr2 1_555 1_555
O27 Zr3 1_555 1_555
C10 N1 1_555 1_555
O3 Zr10 1_555 1_555
O4 Zr3 1_555 1_555
C21 C22 1_555 1_555
C21 N2 1_555 1_555
O7 Zr11 1_555 1_555
O8 Zr2 1_555 1_555
O8 Zr10 1_555 1_555
C26 O10 1_555 1_555
C32 N3 1_555 1_555
O9 Zr2 1_555 1_555
C43 C44 1_555 1_555
C43 N4 1_555 1_555
C48 O14 1_555 1_555
C54 N5 1_555 1_555
O13 Zr3 1_555 1_555
C65 C66 1_555 1_555
C65 N6 1_555 1_555
Zr10 O24 1_555 1_555
Zr10 O27 1_555 1_555
Zr11 O25 1_555 1_555
Zr11 O26 1_555 1_555
H3_2 C6_2 1_555 1_555
C4_2 C5_2 1_555 1_555
C5_2 C6_2 1_555 1_555
O1_2 C4_2 1_555 1_555
O2_2 C4_2 1_555 1_555
Zr1_2 O1_2 1_555 1_555
O24 Zr1_2 1_555 1_555
O26 Zr1_2 1_555 1_555
O25 Zr1_2 1_555 1_555
O27 Zr1_2 1_555 1_555
H15_2 C24_2 1_555 1_555
H16_2 C25_2 1_555 1_555
C24_2 C25_2 1_555 1_555
C25_2 C27_2 1_555 1_555
C26_2 C27_2 1_555 1_555
O18 C26_2 1_555 1_555
O10_2 Zr1_2 1_555 1_555
H29_2 C46_2 1_555 1_555
H30_2 C47_2 1_555 1_555
C46_2 C47_2 1_555 1_555
C47_2 C49_2 1_555 1_555
C48_2 C49_2 1_555 1_555
O19 C48_2 1_555 1_555
O14_2 Zr1_2 1_555 1_555
O17_2 Zr1_2 1_555 1_555
Zr10 O2_2 1_555 1_555
C26_2 O10_2 1_555 1_555
C48_2 O14_2 1_555 1_555
H38_2 C61_2 1_555 1_555
C59_2 C60_2 1_555 1_555
C60_2 C61_2 1_555 1_555
O15_2 C59_2 1_555 1_555
O16_2 C59_2 1_555 1_555
Zr7 O15_2 1_555 1_555
Zr8 O16_2 1_555 1_555
H1_2 C2_2 1_555 1_555
H2_2 C3_2 1_555 1_555
H4_2 C8_2 1_555 1_555
C1_2 C10_2 1_555 1_555
C2_2 C3_2 1_555 1_555
C7_2 C2_2 1_555 1_555
C8_2 C7_2 1_555 1_555
C9_2 C7_2 1_555 1_555
C10_2 C11_2 1_555 1_555
C11_2 H7_2 1_555 1_555
N1_2 C9_2 1_555 1_555
H5_2 C1_2 1_555 1_555
H6_2 C9_2 1_555 1_555
H8_2 C13_2 1_555 1_555
H9_2 C14_2 1_555 1_555
H10_2 C17_2 1_555 1_555
H11_2 C19_2 1_555 1_555
C12_2 C11_2 1_555 1_555
C13_2 C14_2 1_555 1_555
C14_2 C16_2 1_555 1_555
C15_2 C16_2 1_555 1_555
C16_2 C17_2 1_555 1_555
C17_2 C19_2 1_555 1_555
C18_2 C13_2 1_555 1_555
C19_2 C18_2 1_555 1_555
C20_2 C18_2 1_555 1_555
C21_2 C12_2 1_555 1_555
C22_2 C1_2 1_555 1_555
O5_2 C15_2 1_555 1_555
O6_2 C15_2 1_555 1_555
N2_2 C20_2 1_555 1_555
H12_2 C12_2 1_555 1_555
H13_2 C20_2 1_555 1_555
H14_2 C22_2 1_555 1_555
H17_2 C28_2 1_555 1_555
H18_2 C30_2 1_555 1_555
C23_2 C32_2 1_555 1_555
C28_2 C30_2 1_555 1_555
C30_2 C29_2 1_555 1_555
C31_2 C29_2 1_555 1_555
C32_2 C33_2 1_555 1_555
C33_2 H21_2 1_555 1_555
N3_2 C31_2 1_555 1_555
H19_2 C23_2 1_555 1_555
H20_2 C31_2 1_555 1_555
H22_2 C35_2 1_555 1_555
H23_2 C36_2 1_555 1_555
H24_2 C39_2 1_555 1_555
H25_2 C41_2 1_555 1_555
C34_2 C33_2 1_555 1_555
C35_2 C36_2 1_555 1_555
C36_2 C38_2 1_555 1_555
C37_2 C38_2 1_555 1_555
C38_2 C39_2 1_555 1_555
C39_2 C41_2 1_555 1_555
C40_2 C35_2 1_555 1_555
C41_2 C40_2 1_555 1_555
C42_2 C40_2 1_555 1_555
C43_2 C34_2 1_555 1_555
C44_2 C23_2 1_555 1_555
O11_2 C37_2 1_555 1_555
O12_2 C37_2 1_555 1_555
N4_2 C42_2 1_555 1_555
H26_2 C34_2 1_555 1_555
H27_2 C42_2 1_555 1_555
H28_2 C44_2 1_555 1_555
H31_2 C50_2 1_555 1_555
H32_2 C52_2 1_555 1_555
C45_2 C54_2 1_555 1_555
C50_2 C52_2 1_555 1_555
C52_2 C51_2 1_555 1_555
C53_2 C51_2 1_555 1_555
C54_2 C55_2 1_555 1_555
C55_2 H35_2 1_555 1_555
N5_2 C53_2 1_555 1_555
H33_2 C45_2 1_555 1_555
H34_2 C53_2 1_555 1_555
H36_2 C57_2 1_555 1_555
H37_2 C58_2 1_555 1_555
H39_2 C63_2 1_555 1_555
C56_2 C55_2 1_555 1_555
C57_2 C58_2 1_555 1_555
C62_2 C57_2 1_555 1_555
C63_2 C62_2 1_555 1_555
C64_2 C62_2 1_555 1_555
C65_2 C56_2 1_555 1_555
C66_2 C45_2 1_555 1_555
N6_2 C64_2 1_555 1_555
H40_2 C56_2 1_555 1_555
H41_2 C64_2 1_555 1_555
H42_2 C66_2 1_555 1_555
Zr4 O6_2 1_555 1_555
Zr5_2 O5_2 1_555 1_555
Zr6 O11_2 1_555 1_555
Zr8 O12_2 1_555 1_555
C10_2 N1_2 1_555 1_555
C21_2 C22_2 1_555 1_555
C21_2 N2_2 1_555 1_555
C32_2 N3_2 1_555 1_555
C43_2 C44_2 1_555 1_555
C43_2 N4_2 1_555 1_555
C54_2 N5_2 1_555 1_555
C65_2 C66_2 1_555 1_555
C65_2 N6_2 1_555 1_555
C4_3 C5_3 1_555 1_555
O17_2 C4_3 1_555 1_555
O2_3 C4_3 1_555 1_555
Zr11 O2_3 1_555 1_555
H3_3 C6_3 1_555 1_555
H1_3 C2_3 1_555 1_555
H2_3 C3_3 1_555 1_555
C2_3 C3_3 1_555 1_555
H4_3 C8_3 1_555 1_555
C1_3 C10_3 1_555 1_555
C8_3 C7_3 1_555 1_555
C9_3 C7_3 1_555 1_555
C10_3 C11_3 1_555 1_555
C11_3 H7_3 1_555 1_555
N1_3 C9_3 1_555 1_555
H5_3 C1_3 1_555 1_555
H6_3 C9_3 1_555 1_555
H8_3 C13_3 1_555 1_555
H9_3 C14_3 1_555 1_555
H10_3 C17_3 1_555 1_555
H11_3 C19_3 1_555 1_555
C12_3 C11_3 1_555 1_555
C13_3 C14_3 1_555 1_555
C14_3 C16_3 1_555 1_555
C15_3 C16_3 1_555 1_555
C16_3 C17_3 1_555 1_555
C17_3 C19_3 1_555 1_555
C18_3 C13_3 1_555 1_555
C19_3 C18_3 1_555 1_555
C20_3 C18_3 1_555 1_555
C21_3 C12_3 1_555 1_555
C22_3 C1_3 1_555 1_555
O5_3 C15_3 1_555 1_555
O6_3 C15_3 1_555 1_555
N2_3 C20_3 1_555 1_555
H12_3 C12_3 1_555 1_555
H13_3 C20_3 1_555 1_555
H14_3 C22_3 1_555 1_555
Zr4_2 O6_3 1_555 1_555
Zr5_2 O5_3 1_555 1_555
C10_3 N1_3 1_555 1_555
C21_3 C22_3 1_555 1_555
C21_3 N2_3 1_555 1_555
H1_4 C2_4 1_555 1_555
H2_4 C3_4 1_555 1_555
C2_4 C3_4 1_555 1_555
C3_4 C5_4 1_555 1_555
C4_4 C5_4 1_555 1_555
O17 C4_4 1_555 1_555
O2_4 C4_4 1_555 1_555
Zr11 O2_4 1_555 1_555
H3_4 C6_4 1_555 1_555
H4_4 C8_4 1_555 1_555
C1_4 C10_4 1_555 1_555
C6_4 C8_4 1_555 1_555
C8_4 C7_4 1_555 1_555
C9_4 C7_4 1_555 1_555
C10_4 C11_4 1_555 1_555
C11_4 H7_4 1_555 1_555
N1_4 C9_4 1_555 1_555
H5_4 C1_4 1_555 1_555
H6_4 C9_4 1_555 1_555
H8_4 C13_4 1_555 1_555
H9_4 C14_4 1_555 1_555
H10_4 C17_4 1_555 1_555
H11_4 C19_4 1_555 1_555
C12_4 C11_4 1_555 1_555
C13_4 C14_4 1_555 1_555
C14_4 C16_4 1_555 1_555
C15_4 C16_4 1_555 1_555
C16_4 C17_4 1_555 1_555
C17_4 C19_4 1_555 1_555
C18_4 C13_4 1_555 1_555
C19_4 C18_4 1_555 1_555
C20_4 C18_4 1_555 1_555
C21_4 C12_4 1_555 1_555
C22_4 C1_4 1_555 1_555
O5_4 C15_4 1_555 1_555
O6_4 C15_4 1_555 1_555
N2_4 C20_4 1_555 1_555
H12_4 C12_4 1_555 1_555
H13_4 C20_4 1_555 1_555
H14_4 C22_4 1_555 1_555
Zr4_2 O6_4 1_555 1_555
Zr5 O5_4 1_555 1_555
C10_4 N1_4 1_555 1_555
C21_4 C22_4 1_555 1_555
C21_4 N2_4 1_555 1_555
H24_3 C39_3 1_555 1_555
C37_3 C38_3 1_555 1_555
C38_3 C39_3 1_555 1_555
O11_3 C37_3 1_555 1_555
O22 C37_3 1_555 1_555
Zr11 O11_3 1_555 1_555
H1_5 C2_5 1_555 1_555
H2_5 C3_5 1_555 1_555
H3_5 C6_5 1_555 1_555
H4_5 C8_5 1_555 1_555
C1_5 C10_5 1_555 1_555
C2_5 C3_5 1_555 1_555
C3_5 C5_5 1_555 1_555
C4_5 C5_5 1_555 1_555
C5_5 C6_5 1_555 1_555
C6_5 C8_5 1_555 1_555
C7_5 C2_5 1_555 1_555
C8_5 C7_5 1_555 1_555
C9_5 C7_5 1_555 1_555
C10_5 C11_5 1_555 1_555
C11_5 H7_5 1_555 1_555
O1_3 C4_5 1_555 1_555
O2_5 C4_5 1_555 1_555
N1_5 C9_5 1_555 1_555
H5_5 C1_5 1_555 1_555
H6_5 C9_5 1_555 1_555
Zr1_3 O1_3 1_555 1_555
O3_2 Zr1_3 1_555 1_555
O4_2 Zr1_3 1_555 1_555
H8_5 C13_5 1_555 1_555
H9_5 C14_5 1_555 1_555
H10_5 C17_5 1_555 1_555
H11_5 C19_5 1_555 1_555
C12_5 C11_5 1_555 1_555
C13_5 C14_5 1_555 1_555
C14_5 C16_5 1_555 1_555
C15_5 C16_5 1_555 1_555
C16_5 C17_5 1_555 1_555
C17_5 C19_5 1_555 1_555
C18_5 C13_5 1_555 1_555
C19_5 C18_5 1_555 1_555
C20_5 C18_5 1_555 1_555
C21_5 C12_5 1_555 1_555
C22_5 C1_5 1_555 1_555
O5_5 C15_5 1_555 1_555
O6_5 C15_5 1_555 1_555
N2_5 C20_5 1_555 1_555
H12_5 C12_5 1_555 1_555
H13_5 C20_5 1_555 1_555
H14_5 C22_5 1_555 1_555
O7_2 Zr1_3 1_555 1_555
O8_2 Zr1_3 1_555 1_555
H15_3 C24_3 1_555 1_555
H16_3 C25_3 1_555 1_555
H17_3 C28_3 1_555 1_555
H18_3 C30_3 1_555 1_555
C23_3 C32_3 1_555 1_555
C24_3 C25_3 1_555 1_555
C25_3 C27_3 1_555 1_555
C26_3 C27_3 1_555 1_555
C27_3 C28_3 1_555 1_555
C28_3 C30_3 1_555 1_555
C29_3 C24_3 1_555 1_555
C30_3 C29_3 1_555 1_555
C31_3 C29_3 1_555 1_555
C32_3 C33_3 1_555 1_555
C33_3 H21_3 1_555 1_555
O9_2 C26_3 1_555 1_555
O10_3 Zr1_3 1_555 1_555
N3_3 C31_3 1_555 1_555
H19_3 C23_3 1_555 1_555
H20_3 C31_3 1_555 1_555
Zr2_2 O7_2 1_555 1_555
H22_3 C35_3 1_555 1_555
H23_3 C36_3 1_555 1_555
H25_3 C41_3 1_555 1_555
C34_3 C33_3 1_555 1_555
C35_3 C36_3 1_555 1_555
C40_3 C35_3 1_555 1_555
C41_3 C40_3 1_555 1_555
C42_3 C40_3 1_555 1_555
C43_3 C34_3 1_555 1_555
C44_3 C23_3 1_555 1_555
N4_3 C42_3 1_555 1_555
H26_3 C34_3 1_555 1_555
H27_3 C42_3 1_555 1_555
H28_3 C44_3 1_555 1_555
H29_3 C46_3 1_555 1_555
H30_3 C47_3 1_555 1_555
H31_3 C50_3 1_555 1_555
H32_3 C52_3 1_555 1_555
C45_3 C54_3 1_555 1_555
C46_3 C47_3 1_555 1_555
C47_3 C49_3 1_555 1_555
C48_3 C49_3 1_555 1_555
C49_3 C50_3 1_555 1_555
C50_3 C52_3 1_555 1_555
C51_3 C46_3 1_555 1_555
C52_3 C51_3 1_555 1_555
C53_3 C51_3 1_555 1_555
C54_3 C55_3 1_555 1_555
C55_3 H35_3 1_555 1_555
O13_2 C48_3 1_555 1_555
O14_3 Zr1_3 1_555 1_555
N5_3 C53_3 1_555 1_555
H33_3 C45_3 1_555 1_555
H34_3 C53_3 1_555 1_555
Zr3_2 O3_2 1_555 1_555
H36_3 C57_3 1_555 1_555
H37_3 C58_3 1_555 1_555
H38_3 C61_3 1_555 1_555
H39_3 C63_3 1_555 1_555
C56_3 C55_3 1_555 1_555
C57_3 C58_3 1_555 1_555
C58_3 C60_3 1_555 1_555
C59_3 C60_3 1_555 1_555
C60_3 C61_3 1_555 1_555
C61_3 C63_3 1_555 1_555
C62_3 C57_3 1_555 1_555
C63_3 C62_3 1_555 1_555
C64_3 C62_3 1_555 1_555
C65_3 C56_3 1_555 1_555
C66_3 C45_3 1_555 1_555
O15_3 C59_3 1_555 1_555
O23 C59_3 1_555 1_555
N6_3 C64_3 1_555 1_555
H40_3 C56_3 1_555 1_555
H41_3 C64_3 1_555 1_555
H42_3 C66_3 1_555 1_555
O17_3 Zr1_3 1_555 1_555
O18_2 Zr3_2 1_555 1_555
O19_2 Zr2_2 1_555 1_555
O20_2 Zr2_2 1_555 1_555
O21_2 Zr2_2 1_555 1_555
O22_2 Zr3_2 1_555 1_555
O23_2 Zr3_2 1_555 1_555
Zr5 O6_5 1_555 1_555
Zr5_3 O5_5 1_555 1_555
Zr10 O15_3 1_555 1_555
Zr10_2 O2_5 1_555 1_555
Zr11_2 O4_2 1_555 1_555
O24_2 Zr2_2 1_555 1_555
O25_2 Zr3_2 1_555 1_555
O26_2 Zr2_2 1_555 1_555
O27_2 Zr3_2 1_555 1_555
C10_5 N1_5 1_555 1_555
O3_2 Zr10_2 1_555 1_555
O4_2 Zr3_2 1_555 1_555
C21_5 C22_5 1_555 1_555
C21_5 N2_5 1_555 1_555
O7_2 Zr11_2 1_555 1_555
O8_2 Zr2_2 1_555 1_555
O8_2 Zr10_2 1_555 1_555
C26_3 O10_3 1_555 1_555
C32_3 N3_3 1_555 1_555
O9_2 Zr2_2 1_555 1_555
C43_3 C44_3 1_555 1_555
C43_3 N4_3 1_555 1_555
C48_3 O14_3 1_555 1_555
C54_3 N5_3 1_555 1_555
O13_2 Zr3_2 1_555 1_555
C65_3 C66_3 1_555 1_555
C65_3 N6_3 1_555 1_555
Zr10_2 O24_2 1_555 1_555
Zr10_2 O27_2 1_555 1_555
Zr11_2 O25_2 1_555 1_555
Zr11_2 O26_2 1_555 1_555
H3_6 C6_6 1_555 1_555
C4_6 C5_6 1_555 1_555
C5_6 C6_6 1_555 1_555
O1_4 C4_6 1_555 1_555
O2_6 C4_6 1_555 1_555
Zr1_4 O1_4 1_555 1_555
O24_2 Zr1_4 1_555 1_555
O26_2 Zr1_4 1_555 1_555
O25_2 Zr1_4 1_555 1_555
O27_2 Zr1_4 1_555 1_555
H15_4 C24_4 1_555 1_555
H16_4 C25_4 1_555 1_555
C24_4 C25_4 1_555 1_555
C25_4 C27_4 1_555 1_555
C26_4 C27_4 1_555 1_555
O18_2 C26_4 1_555 1_555
O10_4 Zr1_4 1_555 1_555
H29_4 C46_4 1_555 1_555
H30_4 C47_4 1_555 1_555
C46_4 C47_4 1_555 1_555
C47_4 C49_4 1_555 1_555
C48_4 C49_4 1_555 1_555
O19_2 C48_4 1_555 1_555
O14_4 Zr1_4 1_555 1_555
O17_4 Zr1_4 1_555 1_555
Zr10_2 O2_6 1_555 1_555
C26_4 O10_4 1_555 1_555
C48_4 O14_4 1_555 1_555
H38_4 C61_4 1_555 1_555
C59_4 C60_4 1_555 1_555
C60_4 C61_4 1_555 1_555
O15_4 C59_4 1_555 1_555
O21 C59_4 1_555 1_555
Zr11 O15_4 1_555 1_555
H1_6 C2_6 1_555 1_555
H2_6 C3_6 1_555 1_555
H4_6 C8_6 1_555 1_555
C1_6 C10_6 1_555 1_555
C2_6 C3_6 1_555 1_555
C7_6 C2_6 1_555 1_555
C8_6 C7_6 1_555 1_555
C9_6 C7_6 1_555 1_555
C10_6 C11_6 1_555 1_555
C11_6 H7_6 1_555 1_555
N1_6 C9_6 1_555 1_555
H5_6 C1_6 1_555 1_555
H6_6 C9_6 1_555 1_555
H8_6 C13_6 1_555 1_555
H9_6 C14_6 1_555 1_555
H10_6 C17_6 1_555 1_555
H11_6 C19_6 1_555 1_555
C12_6 C11_6 1_555 1_555
C13_6 C14_6 1_555 1_555
C14_6 C16_6 1_555 1_555
C15_6 C16_6 1_555 1_555
C16_6 C17_6 1_555 1_555
C17_6 C19_6 1_555 1_555
C18_6 C13_6 1_555 1_555
C19_6 C18_6 1_555 1_555
C20_6 C18_6 1_555 1_555
C21_6 C12_6 1_555 1_555
C22_6 C1_6 1_555 1_555
O5_6 C15_6 1_555 1_555
O6_6 C15_6 1_555 1_555
N2_6 C20_6 1_555 1_555
H12_6 C12_6 1_555 1_555
H13_6 C20_6 1_555 1_555
H14_6 C22_6 1_555 1_555
H17_4 C28_4 1_555 1_555
H18_4 C30_4 1_555 1_555
C23_4 C32_4 1_555 1_555
C28_4 C30_4 1_555 1_555
C30_4 C29_4 1_555 1_555
C31_4 C29_4 1_555 1_555
C32_4 C33_4 1_555 1_555
C33_4 H21_4 1_555 1_555
N3_4 C31_4 1_555 1_555
H19_4 C23_4 1_555 1_555
H20_4 C31_4 1_555 1_555
H22_4 C35_4 1_555 1_555
H23_4 C36_4 1_555 1_555
H24_4 C39_4 1_555 1_555
H25_4 C41_4 1_555 1_555
C34_4 C33_4 1_555 1_555
C35_4 C36_4 1_555 1_555
C36_4 C38_4 1_555 1_555
C37_4 C38_4 1_555 1_555
C38_4 C39_4 1_555 1_555
C39_4 C41_4 1_555 1_555
C40_4 C35_4 1_555 1_555
C41_4 C40_4 1_555 1_555
C42_4 C40_4 1_555 1_555
C43_4 C34_4 1_555 1_555
C44_4 C23_4 1_555 1_555
O11_4 C37_4 1_555 1_555
O20 C37_4 1_555 1_555
N4_4 C42_4 1_555 1_555
H26_4 C34_4 1_555 1_555
H27_4 C42_4 1_555 1_555
H28_4 C44_4 1_555 1_555
H31_4 C50_4 1_555 1_555
H32_4 C52_4 1_555 1_555
C45_4 C54_4 1_555 1_555
C50_4 C52_4 1_555 1_555
C52_4 C51_4 1_555 1_555
C53_4 C51_4 1_555 1_555
C54_4 C55_4 1_555 1_555
C55_4 H35_4 1_555 1_555
N5_4 C53_4 1_555 1_555
H33_4 C45_4 1_555 1_555
H34_4 C53_4 1_555 1_555
H36_4 C57_4 1_555 1_555
H37_4 C58_4 1_555 1_555
H39_4 C63_4 1_555 1_555
C56_4 C55_4 1_555 1_555
C57_4 C58_4 1_555 1_555
C62_4 C57_4 1_555 1_555
C63_4 C62_4 1_555 1_555
C64_4 C62_4 1_555 1_555
C65_4 C56_4 1_555 1_555
C66_4 C45_4 1_555 1_555
N6_4 C64_4 1_555 1_555
H40_4 C56_4 1_555 1_555
H41_4 C64_4 1_555 1_555
H42_4 C66_4 1_555 1_555
Zr5 O6_6 1_555 1_555
Zr5_4 O5_6 1_555 1_555
Zr10 O11_4 1_555 1_555
C10_6 N1_6 1_555 1_555
C21_6 C22_6 1_555 1_555
C21_6 N2_6 1_555 1_555
C32_4 N3_4 1_555 1_555
C43_4 C44_4 1_555 1_555
C43_4 N4_4 1_555 1_555
C54_4 N5_4 1_555 1_555
C65_4 C66_4 1_555 1_555
C65_4 N6_4 1_555 1_555
C4_7 C5_7 1_555 1_555
O17_4 C4_7 1_555 1_555
O2_7 C4_7 1_555 1_555
Zr11_2 O2_7 1_555 1_555
H1_7 C2_7 1_555 1_555
H2_7 C3_7 1_555 1_555
C2_7 C3_7 1_555 1_555
H3_7 C6_7 1_555 1_555
H4_7 C8_7 1_555 1_555
C1_7 C10_7 1_555 1_555
C8_7 C7_7 1_555 1_555
C9_7 C7_7 1_555 1_555
C10_7 C11_7 1_555 1_555
C11_7 H7_7 1_555 1_555
N1_7 C9_7 1_555 1_555
H5_7 C1_7 1_555 1_555
H6_7 C9_7 1_555 1_555
H8_7 C13_7 1_555 1_555
H9_7 C14_7 1_555 1_555
H10_7 C17_7 1_555 1_555
H11_7 C19_7 1_555 1_555
C12_7 C11_7 1_555 1_555
C13_7 C14_7 1_555 1_555
C14_7 C16_7 1_555 1_555
C15_7 C16_7 1_555 1_555
C16_7 C17_7 1_555 1_555
C17_7 C19_7 1_555 1_555
C18_7 C13_7 1_555 1_555
C19_7 C18_7 1_555 1_555
C20_7 C18_7 1_555 1_555
C21_7 C12_7 1_555 1_555
C22_7 C1_7 1_555 1_555
O5_7 C15_7 1_555 1_555
O6_7 C15_7 1_555 1_555
N2_7 C20_7 1_555 1_555
H12_7 C12_7 1_555 1_555
H13_7 C20_7 1_555 1_555
H14_7 C22_7 1_555 1_555
Zr5_2 O6_7 1_555 1_555
Zr5_4 O5_7 1_555 1_555
C10_7 N1_7 1_555 1_555
C21_7 C22_7 1_555 1_555
C21_7 N2_7 1_555 1_555
H1_8 C2_8 1_555 1_555
H2_8 C3_8 1_555 1_555
C2_8 C3_8 1_555 1_555
C3_8 C5_8 1_555 1_555
C4_8 C5_8 1_555 1_555
O17_3 C4_8 1_555 1_555
O2_8 C4_8 1_555 1_555
Zr11_2 O2_8 1_555 1_555
H3_8 C6_8 1_555 1_555
H4_8 C8_8 1_555 1_555
C1_8 C10_8 1_555 1_555
C6_8 C8_8 1_555 1_555
C8_8 C7_8 1_555 1_555
C9_8 C7_8 1_555 1_555
C10_8 C11_8 1_555 1_555
C11_8 H7_8 1_555 1_555
N1_8 C9_8 1_555 1_555
H5_8 C1_8 1_555 1_555
H6_8 C9_8 1_555 1_555
H8_8 C13_8 1_555 1_555
H9_8 C14_8 1_555 1_555
H10_8 C17_8 1_555 1_555
H11_8 C19_8 1_555 1_555
C12_8 C11_8 1_555 1_555
C13_8 C14_8 1_555 1_555
C14_8 C16_8 1_555 1_555
C15_8 C16_8 1_555 1_555
C16_8 C17_8 1_555 1_555
C17_8 C19_8 1_555 1_555
C18_8 C13_8 1_555 1_555
C19_8 C18_8 1_555 1_555
C20_8 C18_8 1_555 1_555
C21_8 C12_8 1_555 1_555
C22_8 C1_8 1_555 1_555
O5_8 C15_8 1_555 1_555
O6_8 C15_8 1_555 1_555
N2_8 C20_8 1_555 1_555
H12_8 C12_8 1_555 1_555
H13_8 C20_8 1_555 1_555
H14_8 C22_8 1_555 1_555
Zr5_2 O6_8 1_555 1_555
Zr5_3 O5_8 1_555 1_555
C10_8 N1_8 1_555 1_555
C21_8 C22_8 1_555 1_555
C21_8 N2_8 1_555 1_555
H24_5 C39_5 1_555 1_555
C37_5 C38_5 1_555 1_555
C38_5 C39_5 1_555 1_555
O11_5 C37_5 1_555 1_555
O22_2 C37_5 1_555 1_555
Zr11_2 O11_5 1_555 1_555
H1_9 C2_9 1_555 1_555
H2_9 C3_9 1_555 1_555
H3_9 C6_9 1_555 1_555
H4_9 C8_9 1_555 1_555
C1_9 C10_9 1_555 1_555
C2_9 C3_9 1_555 1_555
C3_9 C5_9 1_555 1_555
C4_9 C5_9 1_555 1_555
C5_9 C6_9 1_555 1_555
C6_9 C8_9 1_555 1_555
C7_9 C2_9 1_555 1_555
C8_9 C7_9 1_555 1_555
C9_9 C7_9 1_555 1_555
C10_9 C11_9 1_555 1_555
C11_9 H7_9 1_555 1_555
O1_5 C4_9 1_555 1_555
O2_9 C4_9 1_555 1_555
N1_9 C9_9 1_555 1_555
H5_9 C1_9 1_555 1_555
H6_9 C9_9 1_555 1_555
Zr1_5 O1_5 1_555 1_555
O3_3 Zr1_5 1_555 1_555
O4_3 Zr1_5 1_555 1_555
H8_9 C13_9 1_555 1_555
H9_9 C14_9 1_555 1_555
H10_9 C17_9 1_555 1_555
H11_9 C19_9 1_555 1_555
C12_9 C11_9 1_555 1_555
C13_9 C14_9 1_555 1_555
C14_9 C16_9 1_555 1_555
C15_9 C16_9 1_555 1_555
C16_9 C17_9 1_555 1_555
C17_9 C19_9 1_555 1_555
C18_9 C13_9 1_555 1_555
C19_9 C18_9 1_555 1_555
C20_9 C18_9 1_555 1_555
C21_9 C12_9 1_555 1_555
C22_9 C1_9 1_555 1_555
O5_9 C15_9 1_555 1_555
O6_9 C15_9 1_555 1_555
N2_9 C20_9 1_555 1_555
H12_9 C12_9 1_555 1_555
H13_9 C20_9 1_555 1_555
H14_9 C22_9 1_555 1_555
O7_3 Zr1_5 1_555 1_555
O8_3 Zr1_5 1_555 1_555
H15_5 C24_5 1_555 1_555
H16_5 C25_5 1_555 1_555
H17_5 C28_5 1_555 1_555
H18_5 C30_5 1_555 1_555
C23_5 C32_5 1_555 1_555
C24_5 C25_5 1_555 1_555
C25_5 C27_5 1_555 1_555
C26_5 C27_5 1_555 1_555
C27_5 C28_5 1_555 1_555
C28_5 C30_5 1_555 1_555
C29_5 C24_5 1_555 1_555
C30_5 C29_5 1_555 1_555
C31_5 C29_5 1_555 1_555
C32_5 C33_5 1_555 1_555
C33_5 H21_5 1_555 1_555
O9_3 C26_5 1_555 1_555
O10_5 Zr1_5 1_555 1_555
N3_5 C31_5 1_555 1_555
H19_5 C23_5 1_555 1_555
H20_5 C31_5 1_555 1_555
Zr8 O7_3 1_555 1_555
H22_5 C35_5 1_555 1_555
H23_5 C36_5 1_555 1_555
H25_5 C41_5 1_555 1_555
C34_5 C33_5 1_555 1_555
C35_5 C36_5 1_555 1_555
C40_5 C35_5 1_555 1_555
C41_5 C40_5 1_555 1_555
C42_5 C40_5 1_555 1_555
C43_5 C34_5 1_555 1_555
C44_5 C23_5 1_555 1_555
N4_5 C42_5 1_555 1_555
H26_5 C34_5 1_555 1_555
H27_5 C42_5 1_555 1_555
H28_5 C44_5 1_555 1_555
H29_5 C46_5 1_555 1_555
H30_5 C47_5 1_555 1_555
H31_5 C50_5 1_555 1_555
H32_5 C52_5 1_555 1_555
C45_5 C54_5 1_555 1_555
C46_5 C47_5 1_555 1_555
C47_5 C49_5 1_555 1_555
C48_5 C49_5 1_555 1_555
C49_5 C50_5 1_555 1_555
C50_5 C52_5 1_555 1_555
C51_5 C46_5 1_555 1_555
C52_5 C51_5 1_555 1_555
C53_5 C51_5 1_555 1_555
C54_5 C55_5 1_555 1_555
C55_5 H35_5 1_555 1_555
O13_3 C48_5 1_555 1_555
O14_5 Zr1_5 1_555 1_555
N5_5 C53_5 1_555 1_555
H33_5 C45_5 1_555 1_555
H34_5 C53_5 1_555 1_555
Zr9 O3_3 1_555 1_555
H36_5 C57_5 1_555 1_555
H37_5 C58_5 1_555 1_555
H38_5 C61_5 1_555 1_555
H39_5 C63_5 1_555 1_555
C56_5 C55_5 1_555 1_555
C57_5 C58_5 1_555 1_555
C58_5 C60_5 1_555 1_555
C59_5 C60_5 1_555 1_555
C60_5 C61_5 1_555 1_555
C61_5 C63_5 1_555 1_555
C62_5 C57_5 1_555 1_555
C63_5 C62_5 1_555 1_555
C64_5 C62_5 1_555 1_555
C65_5 C56_5 1_555 1_555
C66_5 C45_5 1_555 1_555
O15_5 C59_5 1_555 1_555
O23_2 C59_5 1_555 1_555
N6_5 C64_5 1_555 1_555
H40_5 C56_5 1_555 1_555
H41_5 C64_5 1_555 1_555
H42_5 C66_5 1_555 1_555
O17_5 Zr1_5 1_555 1_555
O18_3 Zr9 1_555 1_555
O19_3 Zr8 1_555 1_555
Zr5_3 O6_9 1_555 1_555
Zr4 O5_9 1_555 1_555
Zr10_2 O15_5 1_555 1_555
Zr6 O2_9 1_555 1_555
Zr7 O4_3 1_555 1_555
O24_3 Zr8 1_555 1_555
O25_3 Zr9 1_555 1_555
O26_3 Zr8 1_555 1_555
O27_3 Zr9 1_555 1_555
C10_9 N1_9 1_555 1_555
O3_3 Zr6 1_555 1_555
O4_3 Zr9 1_555 1_555
C21_9 C22_9 1_555 1_555
C21_9 N2_9 1_555 1_555
O7_3 Zr7 1_555 1_555
O8_3 Zr8 1_555 1_555
O8_3 Zr6 1_555 1_555
C26_5 O10_5 1_555 1_555
C32_5 N3_5 1_555 1_555
O9_3 Zr8 1_555 1_555
C43_5 C44_5 1_555 1_555
C43_5 N4_5 1_555 1_555
C48_5 O14_5 1_555 1_555
C54_5 N5_5 1_555 1_555
O13_3 Zr9 1_555 1_555
C65_5 C66_5 1_555 1_555
C65_5 N6_5 1_555 1_555
Zr6 O24_3 1_555 1_555
Zr6 O27_3 1_555 1_555
Zr7 O25_3 1_555 1_555
Zr7 O26_3 1_555 1_555
H38_6 C61_6 1_555 1_555
C59_6 C60_6 1_555 1_555
C60_6 C61_6 1_555 1_555
O15_6 C59_6 1_555 1_555
O21_2 C59_6 1_555 1_555
Zr11_2 O15_6 1_555 1_555
H3_10 C6_10 1_555 1_555
C4_10 C5_10 1_555 1_555
C5_10 C6_10 1_555 1_555
O1_6 C4_10 1_555 1_555
O2_10 C4_10 1_555 1_555
Zr1_6 O1_6 1_555 1_555
O24_3 Zr1_6 1_555 1_555
O26_3 Zr1_6 1_555 1_555
O25_3 Zr1_6 1_555 1_555
O27_3 Zr1_6 1_555 1_555
H15_6 C24_6 1_555 1_555
H16_6 C25_6 1_555 1_555
C24_6 C25_6 1_555 1_555
C25_6 C27_6 1_555 1_555
C26_6 C27_6 1_555 1_555
O18_3 C26_6 1_555 1_555
O10_6 Zr1_6 1_555 1_555
H29_6 C46_6 1_555 1_555
H30_6 C47_6 1_555 1_555
C46_6 C47_6 1_555 1_555
C47_6 C49_6 1_555 1_555
C48_6 C49_6 1_555 1_555
O19_3 C48_6 1_555 1_555
O14_6 Zr1_6 1_555 1_555
O17_6 Zr1_6 1_555 1_555
Zr6 O2_10 1_555 1_555
C26_6 O10_6 1_555 1_555
C48_6 O14_6 1_555 1_555
H1_10 C2_10 1_555 1_555
H2_10 C3_10 1_555 1_555
H4_10 C8_10 1_555 1_555
C1_10 C10_10 1_555 1_555
C2_10 C3_10 1_555 1_555
C7_10 C2_10 1_555 1_555
C8_10 C7_10 1_555 1_555
C9_10 C7_10 1_555 1_555
C10_10 C11_10 1_555 1_555
C11_10 H7_10 1_555 1_555
N1_10 C9_10 1_555 1_555
H5_10 C1_10 1_555 1_555
H6_10 C9_10 1_555 1_555
H8_10 C13_10 1_555 1_555
H9_10 C14_10 1_555 1_555
H10_10 C17_10 1_555 1_555
H11_10 C19_10 1_555 1_555
C12_10 C11_10 1_555 1_555
C13_10 C14_10 1_555 1_555
C14_10 C16_10 1_555 1_555
C15_10 C16_10 1_555 1_555
C16_10 C17_10 1_555 1_555
C17_10 C19_10 1_555 1_555
C18_10 C13_10 1_555 1_555
C19_10 C18_10 1_555 1_555
C20_10 C18_10 1_555 1_555
C21_10 C12_10 1_555 1_555
C22_10 C1_10 1_555 1_555
O5_10 C15_10 1_555 1_555
O6_10 C15_10 1_555 1_555
N2_10 C20_10 1_555 1_555
H12_10 C12_10 1_555 1_555
H13_10 C20_10 1_555 1_555
H14_10 C22_10 1_555 1_555
H17_6 C28_6 1_555 1_555
H18_6 C30_6 1_555 1_555
C23_6 C32_6 1_555 1_555
C28_6 C30_6 1_555 1_555
C30_6 C29_6 1_555 1_555
C31_6 C29_6 1_555 1_555
C32_6 C33_6 1_555 1_555
C33_6 H21_6 1_555 1_555
N3_6 C31_6 1_555 1_555
H19_6 C23_6 1_555 1_555
H20_6 C31_6 1_555 1_555
H22_6 C35_6 1_555 1_555
H23_6 C36_6 1_555 1_555
H24_6 C39_6 1_555 1_555
H25_6 C41_6 1_555 1_555
C34_6 C33_6 1_555 1_555
C35_6 C36_6 1_555 1_555
C36_6 C38_6 1_555 1_555
C37_6 C38_6 1_555 1_555
C38_6 C39_6 1_555 1_555
C39_6 C41_6 1_555 1_555
C40_6 C35_6 1_555 1_555
C41_6 C40_6 1_555 1_555
C42_6 C40_6 1_555 1_555
C43_6 C34_6 1_555 1_555
C44_6 C23_6 1_555 1_555
O11_6 C37_6 1_555 1_555
O20_2 C37_6 1_555 1_555
N4_6 C42_6 1_555 1_555
H26_6 C34_6 1_555 1_555
H27_6 C42_6 1_555 1_555
H28_6 C44_6 1_555 1_555
H31_6 C50_6 1_555 1_555
H32_6 C52_6 1_555 1_555
C45_6 C54_6 1_555 1_555
C50_6 C52_6 1_555 1_555
C52_6 C51_6 1_555 1_555
C53_6 C51_6 1_555 1_555
C54_6 C55_6 1_555 1_555
C55_6 H35_6 1_555 1_555
N5_6 C53_6 1_555 1_555
H33_6 C45_6 1_555 1_555
H34_6 C53_6 1_555 1_555
H36_6 C57_6 1_555 1_555
H37_6 C58_6 1_555 1_555
H39_6 C63_6 1_555 1_555
C56_6 C55_6 1_555 1_555
C57_6 C58_6 1_555 1_555
C62_6 C57_6 1_555 1_555
C63_6 C62_6 1_555 1_555
C64_6 C62_6 1_555 1_555
C65_6 C56_6 1_555 1_555
C66_6 C45_6 1_555 1_555
N6_6 C64_6 1_555 1_555
H40_6 C56_6 1_555 1_555
H41_6 C64_6 1_555 1_555
H42_6 C66_6 1_555 1_555
Zr5_3 O6_10 1_555 1_555
Zr4_2 O5_10 1_555 1_555
Zr10_2 O11_6 1_555 1_555
C10_10 N1_10 1_555 1_555
C21_10 C22_10 1_555 1_555
C21_10 N2_10 1_555 1_555
C32_6 N3_6 1_555 1_555
C43_6 C44_6 1_555 1_555
C43_6 N4_6 1_555 1_555
C54_6 N5_6 1_555 1_555
C65_6 C66_6 1_555 1_555
C65_6 N6_6 1_555 1_555
C4_11 C5_11 1_555 1_555
O17_6 C4_11 1_555 1_555
O2_11 C4_11 1_555 1_555
Zr7 O2_11 1_555 1_555
H1_11 C2_11 1_555 1_555
H2_11 C3_11 1_555 1_555
C2_11 C3_11 1_555 1_555
H3_11 C6_11 1_555 1_555
H4_11 C8_11 1_555 1_555
C1_11 C10_11 1_555 1_555
C8_11 C7_11 1_555 1_555
C9_11 C7_11 1_555 1_555
C10_11 C11_11 1_555 1_555
C11_11 H7_11 1_555 1_555
N1_11 C9_11 1_555 1_555
H5_11 C1_11 1_555 1_555
H6_11 C9_11 1_555 1_555
H8_11 C13_11 1_555 1_555
H9_11 C14_11 1_555 1_555
H10_11 C17_11 1_555 1_555
H11_11 C19_11 1_555 1_555
C12_11 C11_11 1_555 1_555
C13_11 C14_11 1_555 1_555
C14_11 C16_11 1_555 1_555
C15_11 C16_11 1_555 1_555
C16_11 C17_11 1_555 1_555
C17_11 C19_11 1_555 1_555
C18_11 C13_11 1_555 1_555
C19_11 C18_11 1_555 1_555
C20_11 C18_11 1_555 1_555
C21_11 C12_11 1_555 1_555
C22_11 C1_11 1_555 1_555
O5_11 C15_11 1_555 1_555
O6_11 C15_11 1_555 1_555
N2_11 C20_11 1_555 1_555
H12_11 C12_11 1_555 1_555
H13_11 C20_11 1_555 1_555
H14_11 C22_11 1_555 1_555
Zr5_4 O6_11 1_555 1_555
Zr4_2 O5_11 1_555 1_555
C10_11 N1_11 1_555 1_555
C21_11 C22_11 1_555 1_555
C21_11 N2_11 1_555 1_555
H1_12 C2_12 1_555 1_555
H2_12 C3_12 1_555 1_555
C2_12 C3_12 1_555 1_555
C3_12 C5_12 1_555 1_555
C4_12 C5_12 1_555 1_555
O17_5 C4_12 1_555 1_555
O2_12 C4_12 1_555 1_555
Zr7 O2_12 1_555 1_555
H3_12 C6_12 1_555 1_555
H4_12 C8_12 1_555 1_555
C1_12 C10_12 1_555 1_555
C6_12 C8_12 1_555 1_555
C8_12 C7_12 1_555 1_555
C9_12 C7_12 1_555 1_555
C10_12 C11_12 1_555 1_555
C11_12 H7_12 1_555 1_555
N1_12 C9_12 1_555 1_555
H5_12 C1_12 1_555 1_555
H6_12 C9_12 1_555 1_555
H8_12 C13_12 1_555 1_555
H9_12 C14_12 1_555 1_555
H10_12 C17_12 1_555 1_555
H11_12 C19_12 1_555 1_555
C12_12 C11_12 1_555 1_555
C13_12 C14_12 1_555 1_555
C14_12 C16_12 1_555 1_555
C15_12 C16_12 1_555 1_555
C16_12 C17_12 1_555 1_555
C17_12 C19_12 1_555 1_555
C18_12 C13_12 1_555 1_555
C19_12 C18_12 1_555 1_555
C20_12 C18_12 1_555 1_555
C21_12 C12_12 1_555 1_555
C22_12 C1_12 1_555 1_555
O5_12 C15_12 1_555 1_555
O6_12 C15_12 1_555 1_555
N2_12 C20_12 1_555 1_555
H12_12 C12_12 1_555 1_555
H13_12 C20_12 1_555 1_555
H14_12 C22_12 1_555 1_555
Zr5_4 O6_12 1_555 1_555
Zr4 O5_12 1_555 1_555
C10_12 N1_12 1_555 1_555
C21_12 C22_12 1_555 1_555
C21_12 N2_12 1_555 1_555
O3_4 Zr4_2 1_555 1_555
O4_4 Zr4_2 1_555 1_555
O7_4 Zr4_2 1_555 1_555
O8_4 Zr4_2 1_555 1_555
Zr5_2 O7_4 1_555 1_555
Zr5 O3_4 1_555 1_555
Zr5_3 O4_4 1_555 1_555
O24_4 Zr5_2 1_555 1_555
O25_4 Zr5 1_555 1_555
O26_4 Zr5_2 1_555 1_555
O27_4 Zr5 1_555 1_555
O3_4 Zr5_4 1_555 1_555
O4_4 Zr5 1_555 1_555
O7_4 Zr5_3 1_555 1_555
O8_4 Zr5_2 1_555 1_555
O8_4 Zr5_4 1_555 1_555
Zr5_4 O24_4 1_555 1_555
Zr5_4 O27_4 1_555 1_555
Zr5_3 O25_4 1_555 1_555
Zr5_3 O26_4 1_555 1_555
O24_4 Zr4 1_555 1_555
O26_4 Zr4 1_555 1_555
O25_4 Zr4 1_555 1_555
O27_4 Zr4 1_555 1_555
H1_13 C2_13 1_555 1_555
H2_13 C3_13 1_555 1_555
H3_13 C6_13 1_555 1_555
H4_13 C8_13 1_555 1_555
C1_13 C10_13 1_555 1_555
C2_13 C3_13 1_555 1_555
C3_13 C5_13 1_555 1_555
C4_13 C5_13 1_555 1_555
C5_13 C6_13 1_555 1_555
C6_13 C8_13 1_555 1_555
C7_13 C2_13 1_555 1_555
C8_13 C7_13 1_555 1_555
C9_13 C7_13 1_555 1_555
C10_13 C11_13 1_555 1_555
C11_13 H7_13 1_555 1_555
O1_7 C4_13 1_555 1_555
O2_13 C4_13 1_555 1_555
N1_13 C9_13 1_555 1_555
H5_13 C1_13 1_555 1_555
H6_13 C9_13 1_555 1_555
Zr1_7 O1_7 1_555 1_555
O3_5 Zr1_7 1_555 1_555
O4_5 Zr1_7 1_555 1_555
H8_13 C13_13 1_555 1_555
H9_13 C14_13 1_555 1_555
H10_13 C17_13 1_555 1_555
H11_13 C19_13 1_555 1_555
C12_13 C11_13 1_555 1_555
C13_13 C14_13 1_555 1_555
C14_13 C16_13 1_555 1_555
C15_13 C16_13 1_555 1_555
C16_13 C17_13 1_555 1_555
C17_13 C19_13 1_555 1_555
C18_13 C13_13 1_555 1_555
C19_13 C18_13 1_555 1_555
C20_13 C18_13 1_555 1_555
C21_13 C12_13 1_555 1_555
C22_13 C1_13 1_555 1_555
O5_13 C15_13 1_555 1_555
O6_13 C15_13 1_555 1_555
N2_13 C20_13 1_555 1_555
H12_13 C12_13 1_555 1_555
H13_13 C20_13 1_555 1_555
H14_13 C22_13 1_555 1_555
O7_5 Zr1_7 1_555 1_555
O8_5 Zr1_7 1_555 1_555
H15_7 C24_7 1_555 1_555
H16_7 C25_7 1_555 1_555
H17_7 C28_7 1_555 1_555
H18_7 C30_7 1_555 1_555
C23_7 C32_7 1_555 1_555
C24_7 C25_7 1_555 1_555
C25_7 C27_7 1_555 1_555
C26_7 C27_7 1_555 1_555
C27_7 C28_7 1_555 1_555
C28_7 C30_7 1_555 1_555
C29_7 C24_7 1_555 1_555
C30_7 C29_7 1_555 1_555
C31_7 C29_7 1_555 1_555
C32_7 C33_7 1_555 1_555
C33_7 H21_7 1_555 1_555
O9_4 C26_7 1_555 1_555
O10_7 Zr1_7 1_555 1_555
N3_7 C31_7 1_555 1_555
H19_7 C23_7 1_555 1_555
H20_7 C31_7 1_555 1_555
Zr2_3 O7_5 1_555 1_555
H22_7 C35_7 1_555 1_555
H23_7 C36_7 1_555 1_555
H25_7 C41_7 1_555 1_555
C34_7 C33_7 1_555 1_555
C35_7 C36_7 1_555 1_555
C40_7 C35_7 1_555 1_555
C41_7 C40_7 1_555 1_555
C42_7 C40_7 1_555 1_555
C43_7 C34_7 1_555 1_555
C44_7 C23_7 1_555 1_555
N4_7 C42_7 1_555 1_555
H26_7 C34_7 1_555 1_555
H27_7 C42_7 1_555 1_555
H28_7 C44_7 1_555 1_555
H29_7 C46_7 1_555 1_555
H30_7 C47_7 1_555 1_555
H31_7 C50_7 1_555 1_555
H32_7 C52_7 1_555 1_555
C45_7 C54_7 1_555 1_555
C46_7 C47_7 1_555 1_555
C47_7 C49_7 1_555 1_555
C48_7 C49_7 1_555 1_555
C49_7 C50_7 1_555 1_555
C50_7 C52_7 1_555 1_555
C51_7 C46_7 1_555 1_555
C52_7 C51_7 1_555 1_555
C53_7 C51_7 1_555 1_555
C54_7 C55_7 1_555 1_555
C55_7 H35_7 1_555 1_555
O13_4 C48_7 1_555 1_555
O14_7 Zr1_7 1_555 1_555
N5_7 C53_7 1_555 1_555
H33_7 C45_7 1_555 1_555
H34_7 C53_7 1_555 1_555
Zr3_3 O3_5 1_555 1_555
H36_7 C57_7 1_555 1_555
H37_7 C58_7 1_555 1_555
H38_7 C61_7 1_555 1_555
H39_7 C63_7 1_555 1_555
C56_7 C55_7 1_555 1_555
C57_7 C58_7 1_555 1_555
C58_7 C60_7 1_555 1_555
C59_7 C60_7 1_555 1_555
C60_7 C61_7 1_555 1_555
C61_7 C63_7 1_555 1_555
C62_7 C57_7 1_555 1_555
C63_7 C62_7 1_555 1_555
C64_7 C62_7 1_555 1_555
C65_7 C56_7 1_555 1_555
C66_7 C45_7 1_555 1_555
O15_7 C59_7 1_555 1_555
O16_3 C59_7 1_555 1_555
N6_7 C64_7 1_555 1_555
H40_7 C56_7 1_555 1_555
H41_7 C64_7 1_555 1_555
H42_7 C66_7 1_555 1_555
O17_7 Zr1_7 1_555 1_555
O18_4 Zr3_3 1_555 1_555
O19_4 Zr2_3 1_555 1_555
O20_3 Zr2_3 1_555 1_555
O21_3 Zr2_3 1_555 1_555
O22_3 Zr3_3 1_555 1_555
O23_3 Zr3_3 1_555 1_555
Zr4_3 O6_13 1_555 1_555
Zr5_5 O5_13 1_555 1_555
Zr6_2 O15_7 1_555 1_555
Zr8_2 O16_3 1_555 1_555
Zr10_3 O2_13 1_555 1_555
Zr11_3 O4_5 1_555 1_555
O24_5 Zr2_3 1_555 1_555
O25_5 Zr3_3 1_555 1_555
O26_5 Zr2_3 1_555 1_555
O27_5 Zr3_3 1_555 1_555
C10_13 N1_13 1_555 1_555
O3_5 Zr10_3 1_555 1_555
O4_5 Zr3_3 1_555 1_555
C21_13 C22_13 1_555 1_555
C21_13 N2_13 1_555 1_555
O7_5 Zr11_3 1_555 1_555
O8_5 Zr2_3 1_555 1_555
O8_5 Zr10_3 1_555 1_555
C26_7 O10_7 1_555 1_555
C32_7 N3_7 1_555 1_555
O9_4 Zr2_3 1_555 1_555
C43_7 C44_7 1_555 1_555
C43_7 N4_7 1_555 1_555
C48_7 O14_7 1_555 1_555
C54_7 N5_7 1_555 1_555
O13_4 Zr3_3 1_555 1_555
C65_7 C66_7 1_555 1_555
C65_7 N6_7 1_555 1_555
Zr10_3 O24_5 1_555 1_555
Zr10_3 O27_5 1_555 1_555
Zr11_3 O25_5 1_555 1_555
Zr11_3 O26_5 1_555 1_555
H24_7 C39_7 1_555 1_555
C37_7 C38_7 1_555 1_555
C38_7 C39_7 1_555 1_555
O11_7 C37_7 1_555 1_555
O12_3 C37_7 1_555 1_555
Zr7_2 O11_7 1_555 1_555
Zr8_2 O12_3 1_555 1_555
H1_14 C2_14 1_555 1_555
H2_14 C3_14 1_555 1_555
H4_14 C8_14 1_555 1_555
C1_14 C10_14 1_555 1_555
C2_14 C3_14 1_555 1_555
C7_14 C2_14 1_555 1_555
C8_14 C7_14 1_555 1_555
C9_14 C7_14 1_555 1_555
C10_14 C11_14 1_555 1_555
C11_14 H7_14 1_555 1_555
N1_14 C9_14 1_555 1_555
H5_14 C1_14 1_555 1_555
H6_14 C9_14 1_555 1_555
H8_14 C13_14 1_555 1_555
H9_14 C14_14 1_555 1_555
H10_14 C17_14 1_555 1_555
H11_14 C19_14 1_555 1_555
C12_14 C11_14 1_555 1_555
C13_14 C14_14 1_555 1_555
C14_14 C16_14 1_555 1_555
C15_14 C16_14 1_555 1_555
C16_14 C17_14 1_555 1_555
C17_14 C19_14 1_555 1_555
C18_14 C13_14 1_555 1_555
C19_14 C18_14 1_555 1_555
C20_14 C18_14 1_555 1_555
C21_14 C12_14 1_555 1_555
C22_14 C1_14 1_555 1_555
O5_14 C15_14 1_555 1_555
O6_14 C15_14 1_555 1_555
N2_14 C20_14 1_555 1_555
H12_14 C12_14 1_555 1_555
H13_14 C20_14 1_555 1_555
H14_14 C22_14 1_555 1_555
H17_8 C28_8 1_555 1_555
H18_8 C30_8 1_555 1_555
C23_8 C32_8 1_555 1_555
C28_8 C30_8 1_555 1_555
C30_8 C29_8 1_555 1_555
C31_8 C29_8 1_555 1_555
C32_8 C33_8 1_555 1_555
C33_8 H21_8 1_555 1_555
N3_8 C31_8 1_555 1_555
H19_8 C23_8 1_555 1_555
H20_8 C31_8 1_555 1_555
H22_8 C35_8 1_555 1_555
H23_8 C36_8 1_555 1_555
H24_8 C39_8 1_555 1_555
H25_8 C41_8 1_555 1_555
C34_8 C33_8 1_555 1_555
C35_8 C36_8 1_555 1_555
C36_8 C38_8 1_555 1_555
C37_8 C38_8 1_555 1_555
C38_8 C39_8 1_555 1_555
C39_8 C41_8 1_555 1_555
C40_8 C35_8 1_555 1_555
C41_8 C40_8 1_555 1_555
C42_8 C40_8 1_555 1_555
C43_8 C34_8 1_555 1_555
C44_8 C23_8 1_555 1_555
O11_8 C37_8 1_555 1_555
O12_4 C37_8 1_555 1_555
N4_8 C42_8 1_555 1_555
H26_8 C34_8 1_555 1_555
H27_8 C42_8 1_555 1_555
H28_8 C44_8 1_555 1_555
H31_8 C50_8 1_555 1_555
H32_8 C52_8 1_555 1_555
C45_8 C54_8 1_555 1_555
C50_8 C52_8 1_555 1_555
C52_8 C51_8 1_555 1_555
C53_8 C51_8 1_555 1_555
C54_8 C55_8 1_555 1_555
C55_8 H35_8 1_555 1_555
N5_8 C53_8 1_555 1_555
H33_8 C45_8 1_555 1_555
H34_8 C53_8 1_555 1_555
H36_8 C57_8 1_555 1_555
H37_8 C58_8 1_555 1_555
H39_8 C63_8 1_555 1_555
C56_8 C55_8 1_555 1_555
C57_8 C58_8 1_555 1_555
C62_8 C57_8 1_555 1_555
C63_8 C62_8 1_555 1_555
C64_8 C62_8 1_555 1_555
C65_8 C56_8 1_555 1_555
C66_8 C45_8 1_555 1_555
N6_8 C64_8 1_555 1_555
H40_8 C56_8 1_555 1_555
H41_8 C64_8 1_555 1_555
H42_8 C66_8 1_555 1_555
Zr4_3 O6_14 1_555 1_555
Zr5_6 O5_14 1_555 1_555
Zr6_2 O11_8 1_555 1_555
Zr9_2 O12_4 1_555 1_555
C10_14 N1_14 1_555 1_555
C21_14 C22_14 1_555 1_555
C21_14 N2_14 1_555 1_555
C32_8 N3_8 1_555 1_555
C43_8 C44_8 1_555 1_555
C43_8 N4_8 1_555 1_555
C54_8 N5_8 1_555 1_555
C65_8 C66_8 1_555 1_555
C65_8 N6_8 1_555 1_555
H38_8 C61_8 1_555 1_555
C59_8 C60_8 1_555 1_555
C60_8 C61_8 1_555 1_555
O15_8 C59_8 1_555 1_555
O16_4 C59_8 1_555 1_555
Zr7_2 O15_8 1_555 1_555
Zr9_2 O16_4 1_555 1_555
H3_14 C6_14 1_555 1_555
C4_14 C5_14 1_555 1_555
C5_14 C6_14 1_555 1_555
O1_8 C4_14 1_555 1_555
O2_14 C4_14 1_555 1_555
Zr1_8 O1_8 1_555 1_555
O24_5 Zr1_8 1_555 1_555
O26_5 Zr1_8 1_555 1_555
O25_5 Zr1_8 1_555 1_555
O27_5 Zr1_8 1_555 1_555
H15_8 C24_8 1_555 1_555
H16_8 C25_8 1_555 1_555
C24_8 C25_8 1_555 1_555
C25_8 C27_8 1_555 1_555
C26_8 C27_8 1_555 1_555
O18_4 C26_8 1_555 1_555
O10_8 Zr1_8 1_555 1_555
H29_8 C46_8 1_555 1_555
H30_8 C47_8 1_555 1_555
C46_8 C47_8 1_555 1_555
C47_8 C49_8 1_555 1_555
C48_8 C49_8 1_555 1_555
O19_4 C48_8 1_555 1_555
O14_8 Zr1_8 1_555 1_555
O17_8 Zr1_8 1_555 1_555
Zr10_3 O2_14 1_555 1_555
C26_8 O10_8 1_555 1_555
C48_8 O14_8 1_555 1_555
H4_15 C8_15 1_555 1_555
C1_15 C10_15 1_555 1_555
C8_15 C7_15 1_555 1_555
C9_15 C7_15 1_555 1_555
C10_15 C11_15 1_555 1_555
C11_15 H7_15 1_555 1_555
N1_15 C9_15 1_555 1_555
H5_15 C1_15 1_555 1_555
H6_15 C9_15 1_555 1_555
H8_15 C13_15 1_555 1_555
H9_15 C14_15 1_555 1_555
H10_15 C17_15 1_555 1_555
H11_15 C19_15 1_555 1_555
C12_15 C11_15 1_555 1_555
C13_15 C14_15 1_555 1_555
C14_15 C16_15 1_555 1_555
C15_15 C16_15 1_555 1_555
C16_15 C17_15 1_555 1_555
C17_15 C19_15 1_555 1_555
C18_15 C13_15 1_555 1_555
C19_15 C18_15 1_555 1_555
C20_15 C18_15 1_555 1_555
C21_15 C12_15 1_555 1_555
C22_15 C1_15 1_555 1_555
O5_15 C15_15 1_555 1_555
O6_15 C15_15 1_555 1_555
N2_15 C20_15 1_555 1_555
H12_15 C12_15 1_555 1_555
H13_15 C20_15 1_555 1_555
H14_15 C22_15 1_555 1_555
Zr4_4 O6_15 1_555 1_555
Zr5_6 O5_15 1_555 1_555
C10_15 N1_15 1_555 1_555
C21_15 C22_15 1_555 1_555
C21_15 N2_15 1_555 1_555
H1_15 C2_15 1_555 1_555
H2_15 C3_15 1_555 1_555
C2_15 C3_15 1_555 1_555
H3_15 C6_15 1_555 1_555
C4_15 C5_15 1_555 1_555
O17_8 C4_15 1_555 1_555
O2_15 C4_15 1_555 1_555
Zr11_3 O2_15 1_555 1_555
H3_16 C6_16 1_555 1_555
H4_16 C8_16 1_555 1_555
C1_16 C10_16 1_555 1_555
C6_16 C8_16 1_555 1_555
C8_16 C7_16 1_555 1_555
C9_16 C7_16 1_555 1_555
C10_16 C11_16 1_555 1_555
C11_16 H7_16 1_555 1_555
N1_16 C9_16 1_555 1_555
H5_16 C1_16 1_555 1_555
H6_16 C9_16 1_555 1_555
H8_16 C13_16 1_555 1_555
H9_16 C14_16 1_555 1_555
H10_16 C17_16 1_555 1_555
H11_16 C19_16 1_555 1_555
C12_16 C11_16 1_555 1_555
C13_16 C14_16 1_555 1_555
C14_16 C16_16 1_555 1_555
C15_16 C16_16 1_555 1_555
C16_16 C17_16 1_555 1_555
C17_16 C19_16 1_555 1_555
C18_16 C13_16 1_555 1_555
C19_16 C18_16 1_555 1_555
C20_16 C18_16 1_555 1_555
C21_16 C12_16 1_555 1_555
C22_16 C1_16 1_555 1_555
O5_16 C15_16 1_555 1_555
O6_16 C15_16 1_555 1_555
N2_16 C20_16 1_555 1_555
H12_16 C12_16 1_555 1_555
H13_16 C20_16 1_555 1_555
H14_16 C22_16 1_555 1_555
Zr4_4 O6_16 1_555 1_555
Zr5_5 O5_16 1_555 1_555
C10_16 N1_16 1_555 1_555
C21_16 C22_16 1_555 1_555
C21_16 N2_16 1_555 1_555
H1_16 C2_16 1_555 1_555
H2_16 C3_16 1_555 1_555
C2_16 C3_16 1_555 1_555
C3_16 C5_16 1_555 1_555
C4_16 C5_16 1_555 1_555
O17_7 C4_16 1_555 1_555
O2_16 C4_16 1_555 1_555
Zr11_3 O2_16 1_555 1_555
H1_17 C2_17 1_555 1_555
H2_17 C3_17 1_555 1_555
H3_17 C6_17 1_555 1_555
H4_17 C8_17 1_555 1_555
C1_17 C10_17 1_555 1_555
C2_17 C3_17 1_555 1_555
C3_17 C5_17 1_555 1_555
C4_17 C5_17 1_555 1_555
C5_17 C6_17 1_555 1_555
C6_17 C8_17 1_555 1_555
C7_17 C2_17 1_555 1_555
C8_17 C7_17 1_555 1_555
C9_17 C7_17 1_555 1_555
C10_17 C11_17 1_555 1_555
C11_17 H7_17 1_555 1_555
O1_9 C4_17 1_555 1_555
O2_17 C4_17 1_555 1_555
N1_17 C9_17 1_555 1_555
H5_17 C1_17 1_555 1_555
H6_17 C9_17 1_555 1_555
Zr1_9 O1_9 1_555 1_555
O3_6 Zr1_9 1_555 1_555
O4_6 Zr1_9 1_555 1_555
H8_17 C13_17 1_555 1_555
H9_17 C14_17 1_555 1_555
H10_17 C17_17 1_555 1_555
H11_17 C19_17 1_555 1_555
C12_17 C11_17 1_555 1_555
C13_17 C14_17 1_555 1_555
C14_17 C16_17 1_555 1_555
C15_17 C16_17 1_555 1_555
C16_17 C17_17 1_555 1_555
C17_17 C19_17 1_555 1_555
C18_17 C13_17 1_555 1_555
C19_17 C18_17 1_555 1_555
C20_17 C18_17 1_555 1_555
C21_17 C12_17 1_555 1_555
C22_17 C1_17 1_555 1_555
O5_17 C15_17 1_555 1_555
O6_17 C15_17 1_555 1_555
N2_17 C20_17 1_555 1_555
H12_17 C12_17 1_555 1_555
H13_17 C20_17 1_555 1_555
H14_17 C22_17 1_555 1_555
O7_6 Zr1_9 1_555 1_555
O8_6 Zr1_9 1_555 1_555
H15_9 C24_9 1_555 1_555
H16_9 C25_9 1_555 1_555
H17_9 C28_9 1_555 1_555
H18_9 C30_9 1_555 1_555
C23_9 C32_9 1_555 1_555
C24_9 C25_9 1_555 1_555
C25_9 C27_9 1_555 1_555
C26_9 C27_9 1_555 1_555
C27_9 C28_9 1_555 1_555
C28_9 C30_9 1_555 1_555
C29_9 C24_9 1_555 1_555
C30_9 C29_9 1_555 1_555
C31_9 C29_9 1_555 1_555
C32_9 C33_9 1_555 1_555
C33_9 H21_9 1_555 1_555
O9_5 C26_9 1_555 1_555
O10_9 Zr1_9 1_555 1_555
N3_9 C31_9 1_555 1_555
H19_9 C23_9 1_555 1_555
H20_9 C31_9 1_555 1_555
Zr2_4 O7_6 1_555 1_555
H22_9 C35_9 1_555 1_555
H23_9 C36_9 1_555 1_555
H25_9 C41_9 1_555 1_555
C34_9 C33_9 1_555 1_555
C35_9 C36_9 1_555 1_555
C40_9 C35_9 1_555 1_555
C41_9 C40_9 1_555 1_555
C42_9 C40_9 1_555 1_555
C43_9 C34_9 1_555 1_555
C44_9 C23_9 1_555 1_555
N4_9 C42_9 1_555 1_555
H26_9 C34_9 1_555 1_555
H27_9 C42_9 1_555 1_555
H28_9 C44_9 1_555 1_555
H29_9 C46_9 1_555 1_555
H30_9 C47_9 1_555 1_555
H31_9 C50_9 1_555 1_555
H32_9 C52_9 1_555 1_555
C45_9 C54_9 1_555 1_555
C46_9 C47_9 1_555 1_555
C47_9 C49_9 1_555 1_555
C48_9 C49_9 1_555 1_555
C49_9 C50_9 1_555 1_555
C50_9 C52_9 1_555 1_555
C51_9 C46_9 1_555 1_555
C52_9 C51_9 1_555 1_555
C53_9 C51_9 1_555 1_555
C54_9 C55_9 1_555 1_555
C55_9 H35_9 1_555 1_555
O13_5 C48_9 1_555 1_555
O14_9 Zr1_9 1_555 1_555
N5_9 C53_9 1_555 1_555
H33_9 C45_9 1_555 1_555
H34_9 C53_9 1_555 1_555
Zr3_4 O3_6 1_555 1_555
H36_9 C57_9 1_555 1_555
H37_9 C58_9 1_555 1_555
H38_9 C61_9 1_555 1_555
H39_9 C63_9 1_555 1_555
C56_9 C55_9 1_555 1_555
C57_9 C58_9 1_555 1_555
C58_9 C60_9 1_555 1_555
C59_9 C60_9 1_555 1_555
C60_9 C61_9 1_555 1_555
C61_9 C63_9 1_555 1_555
C62_9 C57_9 1_555 1_555
C63_9 C62_9 1_555 1_555
C64_9 C62_9 1_555 1_555
C65_9 C56_9 1_555 1_555
C66_9 C45_9 1_555 1_555
O15_9 C59_9 1_555 1_555
O23_3 C59_9 1_555 1_555
N6_9 C64_9 1_555 1_555
H40_9 C56_9 1_555 1_555
H41_9 C64_9 1_555 1_555
H42_9 C66_9 1_555 1_555
O17_9 Zr1_9 1_555 1_555
O18_5 Zr3_4 1_555 1_555
O19_5 Zr2_4 1_555 1_555
O20_4 Zr2_4 1_555 1_555
O21_4 Zr2_4 1_555 1_555
O22_4 Zr3_4 1_555 1_555
O23_4 Zr3_4 1_555 1_555
Zr5_5 O6_17 1_555 1_555
Zr5_7 O5_17 1_555 1_555
Zr10_3 O15_9 1_555 1_555
Zr10_4 O2_17 1_555 1_555
Zr11_4 O4_6 1_555 1_555
O24_6 Zr2_4 1_555 1_555
O25_6 Zr3_4 1_555 1_555
O26_6 Zr2_4 1_555 1_555
O27_6 Zr3_4 1_555 1_555
C10_17 N1_17 1_555 1_555
O3_6 Zr10_4 1_555 1_555
O4_6 Zr3_4 1_555 1_555
C21_17 C22_17 1_555 1_555
C21_17 N2_17 1_555 1_555
O7_6 Zr11_4 1_555 1_555
O8_6 Zr2_4 1_555 1_555
O8_6 Zr10_4 1_555 1_555
C26_9 O10_9 1_555 1_555
C32_9 N3_9 1_555 1_555
O9_5 Zr2_4 1_555 1_555
C43_9 C44_9 1_555 1_555
C43_9 N4_9 1_555 1_555
C48_9 O14_9 1_555 1_555
C54_9 N5_9 1_555 1_555
O13_5 Zr3_4 1_555 1_555
C65_9 C66_9 1_555 1_555
C65_9 N6_9 1_555 1_555
Zr10_4 O24_6 1_555 1_555
Zr10_4 O27_6 1_555 1_555
Zr11_4 O25_6 1_555 1_555
Zr11_4 O26_6 1_555 1_555
H24_9 C39_9 1_555 1_555
C37_9 C38_9 1_555 1_555
C38_9 C39_9 1_555 1_555
O11_9 C37_9 1_555 1_555
O22_3 C37_9 1_555 1_555
Zr11_3 O11_9 1_555 1_555
H1_18 C2_18 1_555 1_555
H2_18 C3_18 1_555 1_555
H4_18 C8_18 1_555 1_555
C1_18 C10_18 1_555 1_555
C2_18 C3_18 1_555 1_555
C7_18 C2_18 1_555 1_555
C8_18 C7_18 1_555 1_555
C9_18 C7_18 1_555 1_555
C10_18 C11_18 1_555 1_555
C11_18 H7_18 1_555 1_555
N1_18 C9_18 1_555 1_555
H5_18 C1_18 1_555 1_555
H6_18 C9_18 1_555 1_555
H8_18 C13_18 1_555 1_555
H9_18 C14_18 1_555 1_555
H10_18 C17_18 1_555 1_555
H11_18 C19_18 1_555 1_555
C12_18 C11_18 1_555 1_555
C13_18 C14_18 1_555 1_555
C14_18 C16_18 1_555 1_555
C15_18 C16_18 1_555 1_555
C16_18 C17_18 1_555 1_555
C17_18 C19_18 1_555 1_555
C18_18 C13_18 1_555 1_555
C19_18 C18_18 1_555 1_555
C20_18 C18_18 1_555 1_555
C21_18 C12_18 1_555 1_555
C22_18 C1_18 1_555 1_555
O5_18 C15_18 1_555 1_555
O6_18 C15_18 1_555 1_555
N2_18 C20_18 1_555 1_555
H12_18 C12_18 1_555 1_555
H13_18 C20_18 1_555 1_555
H14_18 C22_18 1_555 1_555
H17_10 C28_10 1_555 1_555
H18_10 C30_10 1_555 1_555
C23_10 C32_10 1_555 1_555
C28_10 C30_10 1_555 1_555
C30_10 C29_10 1_555 1_555
C31_10 C29_10 1_555 1_555
C32_10 C33_10 1_555 1_555
C33_10 H21_10 1_555 1_555
N3_10 C31_10 1_555 1_555
H19_10 C23_10 1_555 1_555
H20_10 C31_10 1_555 1_555
H22_10 C35_10 1_555 1_555
H23_10 C36_10 1_555 1_555
H24_10 C39_10 1_555 1_555
H25_10 C41_10 1_555 1_555
C34_10 C33_10 1_555 1_555
C35_10 C36_10 1_555 1_555
C36_10 C38_10 1_555 1_555
C37_10 C38_10 1_555 1_555
C38_10 C39_10 1_555 1_555
C39_10 C41_10 1_555 1_555
C40_10 C35_10 1_555 1_555
C41_10 C40_10 1_555 1_555
C42_10 C40_10 1_555 1_555
C43_10 C34_10 1_555 1_555
C44_10 C23_10 1_555 1_555
O11_10 C37_10 1_555 1_555
O20_3 C37_10 1_555 1_555
N4_10 C42_10 1_555 1_555
H26_10 C34_10 1_555 1_555
H27_10 C42_10 1_555 1_555
H28_10 C44_10 1_555 1_555
H31_10 C50_10 1_555 1_555
H32_10 C52_10 1_555 1_555
C45_10 C54_10 1_555 1_555
C50_10 C52_10 1_555 1_555
C52_10 C51_10 1_555 1_555
C53_10 C51_10 1_555 1_555
C54_10 C55_10 1_555 1_555
C55_10 H35_10 1_555 1_555
N5_10 C53_10 1_555 1_555
H33_10 C45_10 1_555 1_555
H34_10 C53_10 1_555 1_555
H36_10 C57_10 1_555 1_555
H37_10 C58_10 1_555 1_555
H39_10 C63_10 1_555 1_555
C56_10 C55_10 1_555 1_555
C57_10 C58_10 1_555 1_555
C62_10 C57_10 1_555 1_555
C63_10 C62_10 1_555 1_555
C64_10 C62_10 1_555 1_555
C65_10 C56_10 1_555 1_555
C66_10 C45_10 1_555 1_555
N6_10 C64_10 1_555 1_555
H40_10 C56_10 1_555 1_555
H41_10 C64_10 1_555 1_555
H42_10 C66_10 1_555 1_555
Zr5_5 O6_18 1_555 1_555
Zr5_8 O5_18 1_555 1_555
Zr10_3 O11_10 1_555 1_555
C10_18 N1_18 1_555 1_555
C21_18 C22_18 1_555 1_555
C21_18 N2_18 1_555 1_555
C32_10 N3_10 1_555 1_555
C43_10 C44_10 1_555 1_555
C43_10 N4_10 1_555 1_555
C54_10 N5_10 1_555 1_555
C65_10 C66_10 1_555 1_555
C65_10 N6_10 1_555 1_555
H38_10 C61_10 1_555 1_555
C59_10 C60_10 1_555 1_555
C60_10 C61_10 1_555 1_555
O15_10 C59_10 1_555 1_555
O21_3 C59_10 1_555 1_555
Zr11_3 O15_10 1_555 1_555
H3_18 C6_18 1_555 1_555
C4_18 C5_18 1_555 1_555
C5_18 C6_18 1_555 1_555
O1_10 C4_18 1_555 1_555
O2_18 C4_18 1_555 1_555
Zr1_10 O1_10 1_555 1_555
O24_6 Zr1_10 1_555 1_555
O26_6 Zr1_10 1_555 1_555
O25_6 Zr1_10 1_555 1_555
O27_6 Zr1_10 1_555 1_555
H15_10 C24_10 1_555 1_555
H16_10 C25_10 1_555 1_555
C24_10 C25_10 1_555 1_555
C25_10 C27_10 1_555 1_555
C26_10 C27_10 1_555 1_555
O18_5 C26_10 1_555 1_555
O10_10 Zr1_10 1_555 1_555
H29_10 C46_10 1_555 1_555
H30_10 C47_10 1_555 1_555
C46_10 C47_10 1_555 1_555
C47_10 C49_10 1_555 1_555
C48_10 C49_10 1_555 1_555
O19_5 C48_10 1_555 1_555
O14_10 Zr1_10 1_555 1_555
O17_10 Zr1_10 1_555 1_555
Zr10_4 O2_18 1_555 1_555
C26_10 O10_10 1_555 1_555
C48_10 O14_10 1_555 1_555
H4_19 C8_19 1_555 1_555
C1_19 C10_19 1_555 1_555
C8_19 C7_19 1_555 1_555
C9_19 C7_19 1_555 1_555
C10_19 C11_19 1_555 1_555
C11_19 H7_19 1_555 1_555
N1_19 C9_19 1_555 1_555
H5_19 C1_19 1_555 1_555
H6_19 C9_19 1_555 1_555
H8_19 C13_19 1_555 1_555
H9_19 C14_19 1_555 1_555
H10_19 C17_19 1_555 1_555
H11_19 C19_19 1_555 1_555
C12_19 C11_19 1_555 1_555
C13_19 C14_19 1_555 1_555
C14_19 C16_19 1_555 1_555
C15_19 C16_19 1_555 1_555
C16_19 C17_19 1_555 1_555
C17_19 C19_19 1_555 1_555
C18_19 C13_19 1_555 1_555
C19_19 C18_19 1_555 1_555
C20_19 C18_19 1_555 1_555
C21_19 C12_19 1_555 1_555
C22_19 C1_19 1_555 1_555
O5_19 C15_19 1_555 1_555
O6_19 C15_19 1_555 1_555
N2_19 C20_19 1_555 1_555
H12_19 C12_19 1_555 1_555
H13_19 C20_19 1_555 1_555
H14_19 C22_19 1_555 1_555
Zr5_6 O6_19 1_555 1_555
Zr5_8 O5_19 1_555 1_555
C10_19 N1_19 1_555 1_555
C21_19 C22_19 1_555 1_555
C21_19 N2_19 1_555 1_555
H3_19 C6_19 1_555 1_555
H1_19 C2_19 1_555 1_555
H2_19 C3_19 1_555 1_555
C2_19 C3_19 1_555 1_555
C4_19 C5_19 1_555 1_555
O17_10 C4_19 1_555 1_555
O2_19 C4_19 1_555 1_555
Zr11_4 O2_19 1_555 1_555
H3_20 C6_20 1_555 1_555
H4_20 C8_20 1_555 1_555
C1_20 C10_20 1_555 1_555
C6_20 C8_20 1_555 1_555
C8_20 C7_20 1_555 1_555
C9_20 C7_20 1_555 1_555
C10_20 C11_20 1_555 1_555
C11_20 H7_20 1_555 1_555
N1_20 C9_20 1_555 1_555
H5_20 C1_20 1_555 1_555
H6_20 C9_20 1_555 1_555
H8_20 C13_20 1_555 1_555
H9_20 C14_20 1_555 1_555
H10_20 C17_20 1_555 1_555
H11_20 C19_20 1_555 1_555
C12_20 C11_20 1_555 1_555
C13_20 C14_20 1_555 1_555
C14_20 C16_20 1_555 1_555
C15_20 C16_20 1_555 1_555
C16_20 C17_20 1_555 1_555
C17_20 C19_20 1_555 1_555
C18_20 C13_20 1_555 1_555
C19_20 C18_20 1_555 1_555
C20_20 C18_20 1_555 1_555
C21_20 C12_20 1_555 1_555
C22_20 C1_20 1_555 1_555
O5_20 C15_20 1_555 1_555
O6_20 C15_20 1_555 1_555
N2_20 C20_20 1_555 1_555
H12_20 C12_20 1_555 1_555
H13_20 C20_20 1_555 1_555
H14_20 C22_20 1_555 1_555
Zr5_6 O6_20 1_555 1_555
Zr5_7 O5_20 1_555 1_555
C10_20 N1_20 1_555 1_555
C21_20 C22_20 1_555 1_555
C21_20 N2_20 1_555 1_555
H1_20 C2_20 1_555 1_555
H2_20 C3_20 1_555 1_555
C2_20 C3_20 1_555 1_555
C3_20 C5_20 1_555 1_555
C4_20 C5_20 1_555 1_555
O17_9 C4_20 1_555 1_555
O2_20 C4_20 1_555 1_555
Zr11_4 O2_20 1_555 1_555
H1_21 C2_21 1_555 1_555
H2_21 C3_21 1_555 1_555
H3_21 C6_21 1_555 1_555
H4_21 C8_21 1_555 1_555
C1_21 C10_21 1_555 1_555
C2_21 C3_21 1_555 1_555
C3_21 C5_21 1_555 1_555
C4_21 C5_21 1_555 1_555
C5_21 C6_21 1_555 1_555
C6_21 C8_21 1_555 1_555
C7_21 C2_21 1_555 1_555
C8_21 C7_21 1_555 1_555
C9_21 C7_21 1_555 1_555
C10_21 C11_21 1_555 1_555
C11_21 H7_21 1_555 1_555
O1_11 C4_21 1_555 1_555
O2_21 C4_21 1_555 1_555
N1_21 C9_21 1_555 1_555
H5_21 C1_21 1_555 1_555
H6_21 C9_21 1_555 1_555
Zr1_11 O1_11 1_555 1_555
O3_7 Zr1_11 1_555 1_555
O4_7 Zr1_11 1_555 1_555
H8_21 C13_21 1_555 1_555
H9_21 C14_21 1_555 1_555
H10_21 C17_21 1_555 1_555
H11_21 C19_21 1_555 1_555
C12_21 C11_21 1_555 1_555
C13_21 C14_21 1_555 1_555
C14_21 C16_21 1_555 1_555
C15_21 C16_21 1_555 1_555
C16_21 C17_21 1_555 1_555
C17_21 C19_21 1_555 1_555
C18_21 C13_21 1_555 1_555
C19_21 C18_21 1_555 1_555
C20_21 C18_21 1_555 1_555
C21_21 C12_21 1_555 1_555
C22_21 C1_21 1_555 1_555
O5_21 C15_21 1_555 1_555
O6_21 C15_21 1_555 1_555
N2_21 C20_21 1_555 1_555
H12_21 C12_21 1_555 1_555
H13_21 C20_21 1_555 1_555
H14_21 C22_21 1_555 1_555
O7_7 Zr1_11 1_555 1_555
O8_7 Zr1_11 1_555 1_555
H15_11 C24_11 1_555 1_555
H16_11 C25_11 1_555 1_555
H17_11 C28_11 1_555 1_555
H18_11 C30_11 1_555 1_555
C23_11 C32_11 1_555 1_555
C24_11 C25_11 1_555 1_555
C25_11 C27_11 1_555 1_555
C26_11 C27_11 1_555 1_555
C27_11 C28_11 1_555 1_555
C28_11 C30_11 1_555 1_555
C29_11 C24_11 1_555 1_555
C30_11 C29_11 1_555 1_555
C31_11 C29_11 1_555 1_555
C32_11 C33_11 1_555 1_555
C33_11 H21_11 1_555 1_555
O9_6 C26_11 1_555 1_555
O10_11 Zr1_11 1_555 1_555
N3_11 C31_11 1_555 1_555
H19_11 C23_11 1_555 1_555
H20_11 C31_11 1_555 1_555
Zr9_2 O7_7 1_555 1_555
H22_11 C35_11 1_555 1_555
H23_11 C36_11 1_555 1_555
H25_11 C41_11 1_555 1_555
C34_11 C33_11 1_555 1_555
C35_11 C36_11 1_555 1_555
C40_11 C35_11 1_555 1_555
C41_11 C40_11 1_555 1_555
C42_11 C40_11 1_555 1_555
C43_11 C34_11 1_555 1_555
C44_11 C23_11 1_555 1_555
N4_11 C42_11 1_555 1_555
H26_11 C34_11 1_555 1_555
H27_11 C42_11 1_555 1_555
H28_11 C44_11 1_555 1_555
H29_11 C46_11 1_555 1_555
H30_11 C47_11 1_555 1_555
H31_11 C50_11 1_555 1_555
H32_11 C52_11 1_555 1_555
C45_11 C54_11 1_555 1_555
C46_11 C47_11 1_555 1_555
C47_11 C49_11 1_555 1_555
C48_11 C49_11 1_555 1_555
C49_11 C50_11 1_555 1_555
C50_11 C52_11 1_555 1_555
C51_11 C46_11 1_555 1_555
C52_11 C51_11 1_555 1_555
C53_11 C51_11 1_555 1_555
C54_11 C55_11 1_555 1_555
C55_11 H35_11 1_555 1_555
O13_6 C48_11 1_555 1_555
O14_11 Zr1_11 1_555 1_555
N5_11 C53_11 1_555 1_555
H33_11 C45_11 1_555 1_555
H34_11 C53_11 1_555 1_555
Zr8_2 O3_7 1_555 1_555
H36_11 C57_11 1_555 1_555
H37_11 C58_11 1_555 1_555
H38_11 C61_11 1_555 1_555
H39_11 C63_11 1_555 1_555
C56_11 C55_11 1_555 1_555
C57_11 C58_11 1_555 1_555
C58_11 C60_11 1_555 1_555
C59_11 C60_11 1_555 1_555
C60_11 C61_11 1_555 1_555
C61_11 C63_11 1_555 1_555
C62_11 C57_11 1_555 1_555
C63_11 C62_11 1_555 1_555
C64_11 C62_11 1_555 1_555
C65_11 C56_11 1_555 1_555
C66_11 C45_11 1_555 1_555
O15_11 C59_11 1_555 1_555
O23_4 C59_11 1_555 1_555
N6_11 C64_11 1_555 1_555
H40_11 C56_11 1_555 1_555
H41_11 C64_11 1_555 1_555
H42_11 C66_11 1_555 1_555
O17_11 Zr1_11 1_555 1_555
O18_6 Zr8_2 1_555 1_555
O19_6 Zr9_2 1_555 1_555
Zr5_7 O6_21 1_555 1_555
Zr4_3 O5_21 1_555 1_555
Zr10_4 O15_11 1_555 1_555
Zr6_2 O2_21 1_555 1_555
Zr7_2 O4_7 1_555 1_555
O24_7 Zr9_2 1_555 1_555
O25_7 Zr8_2 1_555 1_555
O26_7 Zr9_2 1_555 1_555
O27_7 Zr8_2 1_555 1_555
C10_21 N1_21 1_555 1_555
O3_7 Zr6_2 1_555 1_555
O4_7 Zr8_2 1_555 1_555
C21_21 C22_21 1_555 1_555
C21_21 N2_21 1_555 1_555
O7_7 Zr7_2 1_555 1_555
O8_7 Zr9_2 1_555 1_555
O8_7 Zr6_2 1_555 1_555
C26_11 O10_11 1_555 1_555
C32_11 N3_11 1_555 1_555
O9_6 Zr9_2 1_555 1_555
C43_11 C44_11 1_555 1_555
C43_11 N4_11 1_555 1_555
C48_11 O14_11 1_555 1_555
C54_11 N5_11 1_555 1_555
O13_6 Zr8_2 1_555 1_555
C65_11 C66_11 1_555 1_555
C65_11 N6_11 1_555 1_555
Zr6_2 O24_7 1_555 1_555
Zr6_2 O27_7 1_555 1_555
Zr7_2 O25_7 1_555 1_555
Zr7_2 O26_7 1_555 1_555
H24_11 C39_11 1_555 1_555
C37_11 C38_11 1_555 1_555
C38_11 C39_11 1_555 1_555
O11_11 C37_11 1_555 1_555
O22_4 C37_11 1_555 1_555
Zr11_4 O11_11 1_555 1_555
H1_22 C2_22 1_555 1_555
H2_22 C3_22 1_555 1_555
H4_22 C8_22 1_555 1_555
C1_22 C10_22 1_555 1_555
C2_22 C3_22 1_555 1_555
C7_22 C2_22 1_555 1_555
C8_22 C7_22 1_555 1_555
C9_22 C7_22 1_555 1_555
C10_22 C11_22 1_555 1_555
C11_22 H7_22 1_555 1_555
N1_22 C9_22 1_555 1_555
H5_22 C1_22 1_555 1_555
H6_22 C9_22 1_555 1_555
H8_22 C13_22 1_555 1_555
H9_22 C14_22 1_555 1_555
H10_22 C17_22 1_555 1_555
H11_22 C19_22 1_555 1_555
C12_22 C11_22 1_555 1_555
C13_22 C14_22 1_555 1_555
C14_22 C16_22 1_555 1_555
C15_22 C16_22 1_555 1_555
C16_22 C17_22 1_555 1_555
C17_22 C19_22 1_555 1_555
C18_22 C13_22 1_555 1_555
C19_22 C18_22 1_555 1_555
C20_22 C18_22 1_555 1_555
C21_22 C12_22 1_555 1_555
C22_22 C1_22 1_555 1_555
O5_22 C15_22 1_555 1_555
O6_22 C15_22 1_555 1_555
N2_22 C20_22 1_555 1_555
H12_22 C12_22 1_555 1_555
H13_22 C20_22 1_555 1_555
H14_22 C22_22 1_555 1_555
H17_12 C28_12 1_555 1_555
H18_12 C30_12 1_555 1_555
C23_12 C32_12 1_555 1_555
C28_12 C30_12 1_555 1_555
C30_12 C29_12 1_555 1_555
C31_12 C29_12 1_555 1_555
C32_12 C33_12 1_555 1_555
C33_12 H21_12 1_555 1_555
N3_12 C31_12 1_555 1_555
H19_12 C23_12 1_555 1_555
H20_12 C31_12 1_555 1_555
H22_12 C35_12 1_555 1_555
H23_12 C36_12 1_555 1_555
H24_12 C39_12 1_555 1_555
H25_12 C41_12 1_555 1_555
C34_12 C33_12 1_555 1_555
C35_12 C36_12 1_555 1_555
C36_12 C38_12 1_555 1_555
C37_12 C38_12 1_555 1_555
C38_12 C39_12 1_555 1_555
C39_12 C41_12 1_555 1_555
C40_12 C35_12 1_555 1_555
C41_12 C40_12 1_555 1_555
C42_12 C40_12 1_555 1_555
C43_12 C34_12 1_555 1_555
C44_12 C23_12 1_555 1_555
O11_12 C37_12 1_555 1_555
O20_4 C37_12 1_555 1_555
N4_12 C42_12 1_555 1_555
H26_12 C34_12 1_555 1_555
H27_12 C42_12 1_555 1_555
H28_12 C44_12 1_555 1_555
H31_12 C50_12 1_555 1_555
H32_12 C52_12 1_555 1_555
C45_12 C54_12 1_555 1_555
C50_12 C52_12 1_555 1_555
C52_12 C51_12 1_555 1_555
C53_12 C51_12 1_555 1_555
C54_12 C55_12 1_555 1_555
C55_12 H35_12 1_555 1_555
N5_12 C53_12 1_555 1_555
H33_12 C45_12 1_555 1_555
H34_12 C53_12 1_555 1_555
H36_12 C57_12 1_555 1_555
H37_12 C58_12 1_555 1_555
H39_12 C63_12 1_555 1_555
C56_12 C55_12 1_555 1_555
C57_12 C58_12 1_555 1_555
C62_12 C57_12 1_555 1_555
C63_12 C62_12 1_555 1_555
C64_12 C62_12 1_555 1_555
C65_12 C56_12 1_555 1_555
C66_12 C45_12 1_555 1_555
N6_12 C64_12 1_555 1_555
H40_12 C56_12 1_555 1_555
H41_12 C64_12 1_555 1_555
H42_12 C66_12 1_555 1_555
Zr5_7 O6_22 1_555 1_555
Zr4_4 O5_22 1_555 1_555
Zr10_4 O11_12 1_555 1_555
C10_22 N1_22 1_555 1_555
C21_22 C22_22 1_555 1_555
C21_22 N2_22 1_555 1_555
C32_12 N3_12 1_555 1_555
C43_12 C44_12 1_555 1_555
C43_12 N4_12 1_555 1_555
C54_12 N5_12 1_555 1_555
C65_12 C66_12 1_555 1_555
C65_12 N6_12 1_555 1_555
H3_22 C6_22 1_555 1_555
C4_22 C5_22 1_555 1_555
C5_22 C6_22 1_555 1_555
O1_12 C4_22 1_555 1_555
O2_22 C4_22 1_555 1_555
Zr1_12 O1_12 1_555 1_555
O24_7 Zr1_12 1_555 1_555
O26_7 Zr1_12 1_555 1_555
O25_7 Zr1_12 1_555 1_555
O27_7 Zr1_12 1_555 1_555
H15_12 C24_12 1_555 1_555
H16_12 C25_12 1_555 1_555
C24_12 C25_12 1_555 1_555
C25_12 C27_12 1_555 1_555
C26_12 C27_12 1_555 1_555
O18_6 C26_12 1_555 1_555
O10_12 Zr1_12 1_555 1_555
H29_12 C46_12 1_555 1_555
H30_12 C47_12 1_555 1_555
C46_12 C47_12 1_555 1_555
C47_12 C49_12 1_555 1_555
C48_12 C49_12 1_555 1_555
O19_6 C48_12 1_555 1_555
O14_12 Zr1_12 1_555 1_555
O17_12 Zr1_12 1_555 1_555
Zr6_2 O2_22 1_555 1_555
C26_12 O10_12 1_555 1_555
C48_12 O14_12 1_555 1_555
H38_12 C61_12 1_555 1_555
C59_12 C60_12 1_555 1_555
C60_12 C61_12 1_555 1_555
O15_12 C59_12 1_555 1_555
O21_4 C59_12 1_555 1_555
Zr11_4 O15_12 1_555 1_555
H4_23 C8_23 1_555 1_555
C1_23 C10_23 1_555 1_555
C8_23 C7_23 1_555 1_555
C9_23 C7_23 1_555 1_555
C10_23 C11_23 1_555 1_555
C11_23 H7_23 1_555 1_555
N1_23 C9_23 1_555 1_555
H5_23 C1_23 1_555 1_555
H6_23 C9_23 1_555 1_555
H8_23 C13_23 1_555 1_555
H9_23 C14_23 1_555 1_555
H10_23 C17_23 1_555 1_555
H11_23 C19_23 1_555 1_555
C12_23 C11_23 1_555 1_555
C13_23 C14_23 1_555 1_555
C14_23 C16_23 1_555 1_555
C15_23 C16_23 1_555 1_555
C16_23 C17_23 1_555 1_555
C17_23 C19_23 1_555 1_555
C18_23 C13_23 1_555 1_555
C19_23 C18_23 1_555 1_555
C20_23 C18_23 1_555 1_555
C21_23 C12_23 1_555 1_555
C22_23 C1_23 1_555 1_555
O5_23 C15_23 1_555 1_555
O6_23 C15_23 1_555 1_555
N2_23 C20_23 1_555 1_555
H12_23 C12_23 1_555 1_555
H13_23 C20_23 1_555 1_555
H14_23 C22_23 1_555 1_555
Zr5_8 O6_23 1_555 1_555
Zr4_4 O5_23 1_555 1_555
C10_23 N1_23 1_555 1_555
C21_23 C22_23 1_555 1_555
C21_23 N2_23 1_555 1_555
H3_23 C6_23 1_555 1_555
H1_23 C2_23 1_555 1_555
H2_23 C3_23 1_555 1_555
C2_23 C3_23 1_555 1_555
C4_23 C5_23 1_555 1_555
O17_12 C4_23 1_555 1_555
O2_23 C4_23 1_555 1_555
Zr7_2 O2_23 1_555 1_555
H3_24 C6_24 1_555 1_555
H4_24 C8_24 1_555 1_555
C1_24 C10_24 1_555 1_555
C6_24 C8_24 1_555 1_555
C8_24 C7_24 1_555 1_555
C9_24 C7_24 1_555 1_555
C10_24 C11_24 1_555 1_555
C11_24 H7_24 1_555 1_555
N1_24 C9_24 1_555 1_555
H5_24 C1_24 1_555 1_555
H6_24 C9_24 1_555 1_555
H8_24 C13_24 1_555 1_555
H9_24 C14_24 1_555 1_555
H10_24 C17_24 1_555 1_555
H11_24 C19_24 1_555 1_555
C12_24 C11_24 1_555 1_555
C13_24 C14_24 1_555 1_555
C14_24 C16_24 1_555 1_555
C15_24 C16_24 1_555 1_555
C16_24 C17_24 1_555 1_555
C17_24 C19_24 1_555 1_555
C18_24 C13_24 1_555 1_555
C19_24 C18_24 1_555 1_555
C20_24 C18_24 1_555 1_555
C21_24 C12_24 1_555 1_555
C22_24 C1_24 1_555 1_555
O5_24 C15_24 1_555 1_555
O6_24 C15_24 1_555 1_555
N2_24 C20_24 1_555 1_555
H12_24 C12_24 1_555 1_555
H13_24 C20_24 1_555 1_555
H14_24 C22_24 1_555 1_555
Zr5_8 O6_24 1_555 1_555
Zr4_3 O5_24 1_555 1_555
C10_24 N1_24 1_555 1_555
C21_24 C22_24 1_555 1_555
C21_24 N2_24 1_555 1_555
H1_24 C2_24 1_555 1_555
H2_24 C3_24 1_555 1_555
C2_24 C3_24 1_555 1_555
C3_24 C5_24 1_555 1_555
C4_24 C5_24 1_555 1_555
O17_11 C4_24 1_555 1_555
O2_24 C4_24 1_555 1_555
Zr7_2 O2_24 1_555 1_555
O3_8 Zr4_4 1_555 1_555
O4_8 Zr4_4 1_555 1_555
O7_8 Zr4_4 1_555 1_555
O8_8 Zr4_4 1_555 1_555
Zr5_6 O7_8 1_555 1_555
Zr5_5 O3_8 1_555 1_555
Zr5_7 O4_8 1_555 1_555
O24_8 Zr5_6 1_555 1_555
O25_8 Zr5_5 1_555 1_555
O26_8 Zr5_6 1_555 1_555
O27_8 Zr5_5 1_555 1_555
O3_8 Zr5_8 1_555 1_555
O4_8 Zr5_5 1_555 1_555
O7_8 Zr5_7 1_555 1_555
O8_8 Zr5_6 1_555 1_555
O8_8 Zr5_8 1_555 1_555
Zr5_8 O24_8 1_555 1_555
Zr5_8 O27_8 1_555 1_555
Zr5_7 O25_8 1_555 1_555
Zr5_7 O26_8 1_555 1_555
O24_8 Zr4_3 1_555 1_555
O26_8 Zr4_3 1_555 1_555
O25_8 Zr4_3 1_555 1_555
O27_8 Zr4_3 1_555 1_555

#END
