
###############################################################################
#
# This file contains modified crystal structure data generated from the
# MOF subset of the Cambridge Structural Database (CSD) v543 
# hosted by the Cambridge Crystallographic Data Centre (CCDC).
#
# This work is licensed under the Creative Commons
# Attribution-NonCommercial-ShareAlike 4.0 International License.
# To view a copy of this license, visit
# http://creativecommons.org/licenses/by-nc-sa/4.0/
# or send a letter to
# Creative Commons, PO Box 1866, Mountain View, CA 94042, USA.
#
# CIF created using the CSD Python API on 29 September 2022
# The structure has been converted into the P1 space group
# The structure has a 3D framework
# The original CSD entry JUFTEM is in the monoclinic crystal system
# The original CSD entry JUFTEM is in a Sohncke space group
# The framework has been calculated to contain at least 10.0% void space
# The void calculation uses a probe of radius 1.32A, grid spacing 0.4
# H atom positions have been added when not included in the experimental data
#
###############################################################################

data_JUFTEM
_chemical_formula_moiety         '(C94 H76 Cd4 N10 O32)n'
_symmetry_cell_setting           triclinic
_symmetry_space_group_name_H-M   'P 1'
_symmetry_Int_Tables_number      1
_space_group_name_Hall           'P 1'
loop_
_symmetry_equiv_pos_site_id
_symmetry_equiv_pos_as_xyz
1 x,y,z
_cell_length_a                   10.3042(4)
_cell_length_b                   11.7380(4)
_cell_length_c                   24.1163(11)
_cell_angle_alpha                90
_cell_angle_beta                 98.101(4)
_cell_angle_gamma                90
_cell_volume                     2887.78
loop_
_atom_site_label
_atom_site_type_symbol
_atom_site_fract_x
_atom_site_fract_y
_atom_site_fract_z
_atom_site_U_iso_or_equiv
_atom_site_thermal_displace_type
N12 N 0.1517(3) 0.0926(3) 0.55224(15) 0.0318 Uani
Cd3 Cd 0.60608(4) 0.55388(3) 0.24535(2) 0.0431 Uani
O1 O 0.1064(3) 0.9011(3) 0.45746(12) 0.0376 Uani
O2 O 0.1417(3) 0.1040(3) 0.04012(12) 0.0404 Uani
O3 O 0.6361(3) 0.0945(4) 0.05338(13) 0.0471 Uani
O4 O 0.0558(3) 0.1176(4) 0.11877(13) 0.0436 Uani
O5 O 0.7554(3) 0.1260(3) 0.13515(13) 0.0448 Uani
O7 O 0.2551(3) 0.8569(3) 0.22884(12) 0.0425 Uani
O8 O 0.6057(3) 0.9221(3) 0.44994(12) 0.0418 Uani
O9 O 0.6654(3) 0.8694(3) 0.37001(13) 0.0463 Uani
O10 O 0.5705(4) 0.7544(3) 0.22109(16) 0.0504 Uani
O11 O 0.4216(3) 0.1693(3) 0.27146(13) 0.0454 Uani
O12 O 0.6134(5) 0.6241(4) 0.33487(16) 0.0661 Uani
C2 C 0.6461(4) 0.1128(4) 0.10444(17) 0.0319 Uani
C3 C 0.3334(3) 0.8985(4) 0.40256(15) 0.0277 Uani
H1 H 0.348352 0.905738 0.441334 0.0330 Uiso
O13 O 0.3932(4) 0.6492(3) 0.22465(17) 0.0550 Uani
C4 C 0.1518(4) 0.1168(3) 0.09261(16) 0.0281 Uani
C5 C 0.2886(4) 0.1263(3) 0.12570(16) 0.0282 Uani
N4 N 0.5865(4) 0.5221(4) 0.14784(17) 0.0453 Uani
O14 O 0.4745(4) 0.3968(4) 0.26069(18) 0.0671 Uani
C7 C 0.5177(4) 0.5139(4) 0.03169(17) 0.0345 Uani
C9 C 0.2977(4) 0.1439(3) 0.18345(17) 0.0310 Uani
H4 H 0.222555 0.149878 0.200588 0.0370 Uiso
C10 C 0.4382(3) 0.8943(4) 0.37141(15) 0.0286 Uani
C11 C 0.0899(3) 0.8976(4) 0.40559(15) 0.0269 Uani
C12 C 0.5789(4) 0.8956(4) 0.39918(15) 0.0278 Uani
C13 C 0.5537(5) 0.6154(5) 0.05941(18) 0.0438 Uani
H5 H 0.554263 0.682996 0.039333 0.0530 Uiso
C15 C 0.4224(4) 0.1524(4) 0.21494(17) 0.0319 Uani
C16 C 0.2043(3) 0.8913(4) 0.37363(15) 0.0264 Uani
C18 C 0.4005(4) 0.1153(4) 0.09914(15) 0.0295 Uani
H8 H 0.392895 0.103395 0.060697 0.0350 Uiso
O15 O 0.6844(4) 0.3653(4) 0.28215(19) 0.0691 Uani
C19 C 0.5883(5) 0.6155(5) 0.11646(18) 0.0449 Uani
H9 H 0.614288 0.683881 0.134079 0.0540 Uiso
C22 C 0.5344(4) 0.1417(4) 0.18962(16) 0.0308 Uani
H12 H 0.616739 0.147150 0.210955 0.0370 Uiso
C26 C 0.4143(4) 0.8837(4) 0.31329(16) 0.0335 Uani
H15 H 0.484067 0.883534 0.292673 0.0400 Uiso
C28 C 0.4488(5) 0.7414(4) 0.21624(18) 0.0399 Uani
C29 C 0.5233(4) 0.1227(4) 0.13150(17) 0.0320 Uani
C30 C 0.1817(4) 0.8790(4) 0.31647(18) 0.0351 Uani
H17 H 0.096166 0.874521 0.298177 0.0420 Uiso
C32 C 0.5156(6) 0.4153(4) 0.0633(2) 0.0541 Uani
H18 H 0.492532 0.345487 0.046521 0.0650 Uiso
C34 C 0.5498(7) 0.4248(4) 0.1224(2) 0.0565 Uani
H20 H 0.546386 0.359815 0.144160 0.0680 Uiso
C35 C 0.3616(5) 0.8452(4) 0.19693(17) 0.0381 Uani
H21 H 0.414686 0.914731 0.200220 0.0450 Uiso
C37 C 0.5410(5) 0.2163(4) 0.30221(18) 0.0434 Uani
H23 H 0.614937 0.164803 0.299853 0.0520 Uiso
O16 O 0.8217(5) 0.6103(7) 0.2472(3) 0.1086 Uani
C38 C 0.5693(6) 0.3341(4) 0.2790(2) 0.0460 Uani
C44 C 0.2859(4) 0.8732(4) 0.28582(17) 0.0371 Uani
C45 C 0.3015(6) 0.8279(5) 0.13659(19) 0.0489 Uani
H29 H 0.259158 0.754952 0.132642 0.0730 Uiso
H30 H 0.368998 0.831148 0.112962 0.0730 Uiso
H31 H 0.238205 0.886773 0.125861 0.0730 Uiso
C46 C 0.5133(6) 0.2245(5) 0.3626(2) 0.0543 Uani
H32 H 0.494650 0.149922 0.375861 0.0810 Uiso
H33 H 0.439304 0.273352 0.364264 0.0810 Uiso
H34 H 0.588663 0.255212 0.385746 0.0810 Uiso
Cd9 Cd 0.83972(2) 0.89767(2) 0.44586(2) 0.0252 Uani
Cd12 Cd 0.16028(2) 0.89767(2) 0.55414(2) 0.0252 Uani
Cd14 Cd 0.87103(2) 0.10902(2) 0.05570(2) 0.0253 Uani
H73 H 0.528879 0.66187 0.338679 . .
H74 H 0.628641 0.560483 0.362152 . .
H75 H 0.842543 0.671239 0.27562 . .
H76 H 0.880541 0.544152 0.257014 . .
N6 N 0.4135(4) 0.5221(4) 0.85216(17) 0.0453 Uani
C48 C 0.4823(4) 0.5139(4) 0.96831(17) 0.0345 Uani
C49 C 0.4463(5) 0.6154(5) 0.94059(18) 0.0438 Uani
H35 H 0.445737 0.682996 0.960667 0.0530 Uiso
C50 C 0.4117(5) 0.6155(5) 0.88354(18) 0.0449 Uani
H36 H 0.385712 0.683881 0.865921 0.0540 Uiso
C51 C 0.4844(6) 0.4153(4) 0.9367(2) 0.0541 Uani
H37 H 0.507468 0.345487 0.953479 0.0650 Uiso
C52 C 0.4502(7) 0.4248(4) 0.8776(2) 0.0565 Uani
H38 H 0.453614 0.359815 0.855840 0.0680 Uiso
Cd5 Cd 0.12897(2) 0.10902(2) 0.94430(2) 0.0253 Uani
O22 O 0.0236(3) 0.8967(3) 0.62283(12) 0.0373 Uani
N7 N 0.1470(4) 0.6998(3) 0.54879(17) 0.0377 Uani
C53 C 0.1517(4) 0.4589(4) 0.55122(19) 0.0358 Uani
C58 C 0.1802(5) 0.1527(4) 0.5079(2) 0.0405 Uani
H40 H 0.199077 0.113129 0.476602 0.0490 Uiso
C74 C 0.1233(6) 0.1541(4) 0.5961(2) 0.0450 Uani
H50 H 0.104222 0.115242 0.627550 0.0540 Uiso
C76 C 0.1827(5) 0.2703(4) 0.5067(2) 0.0414 Uani
H52 H 0.205614 0.307242 0.475418 0.0500 Uiso
C81 C 0.1209(6) 0.2715(4) 0.5969(2) 0.0506 Uani
H54 H 0.098559 0.309372 0.628060 0.0610 Uiso
C83 C 0.1064(8) 0.6402(4) 0.5903(2) 0.0652 Uani
H56 H 0.077108 0.680640 0.619295 0.0780 Uiso
C86 C 0.1884(7) 0.5216(4) 0.5066(3) 0.0655 Uani
H58 H 0.213368 0.484306 0.475734 0.0780 Uiso
C89 C 0.1872(7) 0.6407(4) 0.5086(3) 0.0610 Uani
H61 H 0.216983 0.680312 0.479496 0.0740 Uiso
C90 C 0.1047(7) 0.5233(4) 0.5931(3) 0.0616 Uani
H62 H 0.072615 0.487145 0.622634 0.0740 Uiso
C94 C 0.1520(4) 0.3338(4) 0.5512(2) 0.0350 Uani
Cd17 Cd 0.39392(4) 0.55388(3) 0.75465(2) 0.0431 Uani
O36 O 0.3639(3) 0.0945(4) 0.94662(13) 0.0471 Uani
O38 O 0.2446(3) 0.1260(3) 0.86485(13) 0.0448 Uani
O40 O 0.3943(3) 0.9221(3) 0.55006(12) 0.0418 Uani
O42 O 0.3346(3) 0.8694(3) 0.62999(13) 0.0463 Uani
N15 N 0.1309(4) 0.3059(3) 0.94955(17) 0.0375 Uani
N8 N 0.1202(4) 0.9095(4) 0.94493(14) 0.0337 Uani
C59 C 0.1710(5) 0.8550(4) 0.9900(2) 0.0412 Uani
C64 C 0.1645(5) 0.4852(3) 0.99679(19) 0.0355 Uani
C67 C 0.0677(6) 0.8490(4) 0.8999(2) 0.0467 Uani
H44 H 0.029075 0.887920 0.868223 0.0560 Uiso
C69 C 0.1754(5) 0.7352(4) 0.9925(2) 0.0426 Uani
C70 C 0.1689(4) 0.3660(3) 0.99649(19) 0.0323 Uani
C72 C 0.0960(6) 0.4808(4) 0.8997(2) 0.0475 Uani
H49 H 0.072840 0.517282 0.865534 0.0570 Uiso
C73 C 0.1279(4) 0.5426(4) 0.94724(16) 0.0287 Uani
C80 C 0.1231(5) 0.6691(5) 0.9462(2) 0.0397 Uani
C87 C 0.0981(6) 0.3622(4) 0.9026(2) 0.0495 Uani
H59 H 0.075131 0.321066 0.869704 0.0600 Uiso
C88 C 0.0688(6) 0.7319(4) 0.8988(2) 0.0519 Uani
H60 H 0.033358 0.693697 0.866360 0.0620 Uiso
N11 N 0.8483(3) 0.0926(3) 0.44776(15) 0.0318 Uani
O6 O 0.9764(3) 0.8967(3) 0.37717(12) 0.0373 Uani
N1 N 0.8530(4) 0.6998(3) 0.45121(17) 0.0377 Uani
C1 C 0.8483(4) 0.4589(4) 0.44878(19) 0.0358 Uani
C6 C 0.8198(5) 0.1527(4) 0.4921(2) 0.0405 Uani
H2 H 0.800923 0.113129 0.523398 0.0490 Uiso
C25 C 0.8767(6) 0.1541(4) 0.4039(2) 0.0450 Uani
H14 H 0.895778 0.115242 0.372450 0.0540 Uiso
C27 C 0.8173(5) 0.2703(4) 0.4933(2) 0.0414 Uani
H16 H 0.794386 0.307242 0.524582 0.0500 Uiso
C33 C 0.8791(6) 0.2715(4) 0.4031(2) 0.0506 Uani
H19 H 0.901441 0.309372 0.371940 0.0610 Uiso
C36 C 0.8936(8) 0.6402(4) 0.4097(2) 0.0652 Uani
H22 H 0.922892 0.680640 0.380705 0.0780 Uiso
C39 C 0.8116(7) 0.5216(4) 0.4934(3) 0.0655 Uani
H24 H 0.786632 0.484306 0.524266 0.0780 Uiso
C42 C 0.8128(7) 0.6407(4) 0.4914(3) 0.0610 Uani
H27 H 0.783017 0.680312 0.520504 0.0740 Uiso
C43 C 0.8953(7) 0.5233(4) 0.4069(3) 0.0616 Uani
H28 H 0.927385 0.487145 0.377366 0.0740 Uiso
C47 C 0.8480(4) 0.3338(4) 0.4488(2) 0.0350 Uani
O34 O 0.8936(3) 0.9011(3) 0.54254(12) 0.0376 Uani
N14 N 0.8691(4) 0.3059(3) 0.05045(17) 0.0375 Uani
O18 O 0.8583(3) 0.1040(3) 0.95988(12) 0.0404 Uani
O20 O 0.9442(3) 0.1176(4) 0.88123(13) 0.0436 Uani
O23 O 0.7449(3) 0.8569(3) 0.77116(12) 0.0425 Uani
O26 O 0.4295(4) 0.7544(3) 0.77891(16) 0.0504 Uani
O27 O 0.5784(3) 0.1693(3) 0.72854(13) 0.0454 Uani
O28 O 0.3866(5) 0.6241(4) 0.66513(16) 0.0661 Uani
C54 C 0.3539(4) 0.1128(4) 0.89556(17) 0.0319 Uani
C55 C 0.6666(3) 0.8985(4) 0.59744(15) 0.0277 Uani
H39 H 0.651648 0.905738 0.558666 0.0330 Uiso
O29 O 0.6068(4) 0.6492(3) 0.77535(17) 0.0550 Uani
C56 C 0.8482(4) 0.1168(3) 0.90739(16) 0.0281 Uani
C57 C 0.7114(4) 0.1263(3) 0.87430(16) 0.0282 Uani
O30 O 0.5255(4) 0.3968(4) 0.73931(18) 0.0671 Uani
C60 C 0.7023(4) 0.1439(3) 0.81655(17) 0.0310 Uani
H42 H 0.777445 0.149878 0.799412 0.0370 Uiso
C61 C 0.5618(3) 0.8943(4) 0.62859(15) 0.0286 Uani
C62 C 0.9101(3) 0.8976(4) 0.59441(15) 0.0269 Uani
C63 C 0.4211(4) 0.8956(4) 0.60082(15) 0.0278 Uani
C65 C 0.5776(4) 0.1524(4) 0.78506(17) 0.0319 Uani
C66 C 0.7957(3) 0.8913(4) 0.62637(15) 0.0264 Uani
C68 C 0.5995(4) 0.1153(4) 0.90086(15) 0.0295 Uani
H45 H 0.607105 0.103395 0.939303 0.0350 Uiso
O31 O 0.3156(4) 0.3653(4) 0.71785(19) 0.0691 Uani
C71 C 0.4656(4) 0.1417(4) 0.81038(16) 0.0308 Uani
H48 H 0.383261 0.147150 0.789045 0.0370 Uiso
C75 C 0.5857(4) 0.8837(4) 0.68671(16) 0.0335 Uani
H51 H 0.515933 0.883534 0.707327 0.0400 Uiso
C77 C 0.5512(5) 0.7414(4) 0.78376(18) 0.0399 Uani
C78 C 0.4767(4) 0.1227(4) 0.86850(17) 0.0320 Uani
C79 C 0.8183(4) 0.8790(4) 0.68353(18) 0.0351 Uani
H53 H 0.903834 0.874521 0.701823 0.0420 Uiso
C82 C 0.6384(5) 0.8452(4) 0.80307(17) 0.0381 Uani
H55 H 0.585314 0.914731 0.799780 0.0450 Uiso
C84 C 0.4590(5) 0.2163(4) 0.69779(18) 0.0434 Uani
H57 H 0.385063 0.164803 0.700147 0.0520 Uiso
O32 O 0.1783(5) 0.6103(7) 0.7528(3) 0.1086 Uani
C85 C 0.4307(6) 0.3341(4) 0.7210(2) 0.0460 Uani
C91 C 0.7141(4) 0.8732(4) 0.71418(17) 0.0371 Uani
C92 C 0.6985(6) 0.8279(5) 0.86341(19) 0.0489 Uani
H63 H 0.740842 0.754952 0.867358 0.0730 Uiso
H64 H 0.631002 0.831148 0.887038 0.0730 Uiso
H65 H 0.761795 0.886773 0.874139 0.0730 Uiso
C93 C 0.4867(6) 0.2245(5) 0.6374(2) 0.0543 Uani
H66 H 0.505350 0.149922 0.624139 0.0810 Uiso
H67 H 0.560696 0.273352 0.635736 0.0810 Uiso
H68 H 0.411337 0.255212 0.614254 0.0810 Uiso
H69 H 0.471121 0.66187 0.661321 . .
H70 H 0.371359 0.560483 0.637848 . .
H71 H 0.157457 0.671239 0.72438 . .
H72 H 0.119459 0.544152 0.742986 . .
N2 N 0.8798(4) 0.9095(4) 0.05507(14) 0.0337 Uani
C8 C 0.8290(5) 0.8550(4) 0.0100(2) 0.0412 Uani
C14 C 0.8355(5) 0.4852(3) 0.00321(19) 0.0355 Uani
C17 C 0.9323(6) 0.8490(4) 0.1001(2) 0.0467 Uani
H7 H 0.970925 0.887920 0.131777 0.0560 Uiso
C20 C 0.8246(5) 0.7352(4) 0.0075(2) 0.0426 Uani
C21 C 0.8311(4) 0.3660(3) 0.00351(19) 0.0323 Uani
C23 C 0.9040(6) 0.4808(4) 0.1003(2) 0.0475 Uani
H13 H 0.927160 0.517282 0.134466 0.0570 Uiso
C24 C 0.8721(4) 0.5426(4) 0.05276(16) 0.0287 Uani
C31 C 0.8769(5) 0.6691(5) 0.0538(2) 0.0397 Uani
C40 C 0.9019(6) 0.3622(4) 0.0974(2) 0.0495 Uani
H25 H 0.924869 0.321066 0.130296 0.0600 Uiso
C41 C 0.9312(6) 0.7319(4) 0.1012(2) 0.0519 Uani
H26 H 0.966642 0.693697 0.133640 0.0620 Uiso
H41 H 0.205378 0.896696 0.021441 0.0500 Uiso
H43 H 0.186134 0.525174 0.030098 0.0430 Uiso
H46 H 0.213494 0.699405 0.025184 0.0510 Uiso
H47 H 0.198850 0.327480 0.029522 0.0390 Uiso
H3 H 0.794622 0.896696 0.978559 0.0500 Uiso
H6 H 0.813866 0.525174 0.969902 0.0430 Uiso
H10 H 0.786506 0.699405 0.974816 0.0510 Uiso
H11 H 0.801150 0.327480 0.970478 0.0390 Uiso
loop_
_atom_site_aniso_label
_atom_site_aniso_U_11
_atom_site_aniso_U_22
_atom_site_aniso_U_33
_atom_site_aniso_U_23
_atom_site_aniso_U_13
_atom_site_aniso_U_12
N12 0.032 0.015 0.049 0.0017 0.0076 -0.0024
Cd3 0.0557 0.03916 0.0337 -0.00039 0.00325 0.00813
O1 0.0403 0.0424 0.032 -0.0007 0.0112 0.0004
O2 0.042 0.0479 0.0299 -0.0012 0.0001 -0.0033
O3 0.0259 0.074 0.043 -0.0091 0.0099 -0.0005
O4 0.0207 0.071 0.0386 -0.0033 0.0021 -0.0052
O5 0.0237 0.068 0.0427 0.0003 0.0047 -0.004
O7 0.0391 0.067 0.0208 -0.003 0.0023 0.0104
O8 0.028 0.064 0.0328 -0.0103 0.0021 -0.0055
O9 0.0267 0.077 0.0359 -0.0095 0.0067 0.004
O10 0.043 0.056 0.053 -0.005 0.0091 0.0092
O11 0.0459 0.064 0.0254 -0.004 0.0023 -0.0042
O12 0.1 0.052 0.0438 -0.0076 0.0016 0.007
C2 0.0235 0.0346 0.038 0 0.0062 0.0023
C3 0.0269 0.0287 0.0269 -0.0012 0.0014 -0.0017
O13 0.066 0.0409 0.058 0.0039 0.0081 0.0012
C4 0.0276 0.0199 0.0346 0.0039 -0.0036 -0.0019
C5 0.0246 0.028 0.0312 0.001 0.001 0.0018
N4 0.055 0.045 0.036 -0.0051 0.0067 0.011
O14 0.079 0.05 0.071 0.013 0.006 0.018
C7 0.038 0.035 0.032 0.0019 0.0105 0.0037
C9 0.0257 0.038 0.029 -0.0043 0.0025 0.0025
C10 0.0252 0.0324 0.0286 0.0014 0.0054 0.002
C11 0.029 0.0205 0.032 -0.0038 0.0074 0.0019
C12 0.0291 0.0227 0.0311 -0.0038 0.002 -0.0021
C13 0.054 0.044 0.035 -0.008 0.012 -0.006
C15 0.033 0.036 0.0263 -0.0041 0.0024 -0.0009
C16 0.0241 0.0255 0.0309 -0.0063 0.008 -0.0011
C18 0.0258 0.036 0.0272 -0.0013 0.005 -0.0001
O15 0.063 0.07 0.071 0.01 -0.002 -0.019
C19 0.057 0.044 0.036 -0.011 0.0148 -0.004
C22 0.0224 0.041 0.0277 0 -0.0013 0.0005
C26 0.0256 0.046 0.0293 -0.002 0.005 0.0074
C28 0.048 0.042 0.03 -0.0061 0.0061 0.007
C29 0.0245 0.032 0.039 -0.003 0.0023 0.0005
C30 0.0224 0.043 0.039 -0.0084 0.0011 0.0051
C32 0.088 0.04 0.033 0.002 0.004 -0.006
C34 0.097 0.041 0.03 0.0107 0.004 0.011
C35 0.044 0.045 0.0256 -0.0036 0.0059 0.0058
C37 0.054 0.045 0.029 0.0005 -0.0013 0.001
O16 0.052 0.152 0.124 0.009 0.02 0.014
C38 0.062 0.043 0.032 -0.0012 0.003 -0.006
C44 0.036 0.045 0.029 -0.0061 0.0003 0.0118
C45 0.066 0.05 0.03 0.003 0.004 0.004
C46 0.063 0.061 0.039 0.002 0.008 0.002
Cd9 0.02264 0.02016 0.03286 -0.00094 0.00435 -0.0004
Cd12 0.02264 0.02016 0.03286 0.00094 0.00435 0.0004
Cd14 0.02337 0.01935 0.03332 -0.00073 0.00417 -0.00019
N6 0.055 0.045 0.036 0.0051 0.0067 -0.011
C48 0.038 0.035 0.032 -0.0019 0.0105 -0.0037
C49 0.054 0.044 0.035 0.008 0.012 0.006
C50 0.057 0.044 0.036 0.011 0.0148 0.004
C51 0.088 0.04 0.033 -0.002 0.004 0.006
C52 0.097 0.041 0.03 -0.0107 0.004 -0.011
Cd5 0.02337 0.01935 0.03332 0.00073 0.00417 0.00019
O22 0.026 0.0462 0.04 0.0026 0.0053 0.0061
N7 0.042 0.0216 0.046 0.0039 -0.0055 -0.0037
C53 0.037 0.025 0.045 -0.0019 0.004 -0.0044
C58 0.041 0.025 0.056 -0.0076 0.009 -0.0023
C74 0.073 0.025 0.035 0.0037 0.001 -0.001
C76 0.052 0.027 0.047 -0.0018 0.013 -0.006
C81 0.077 0.025 0.052 -0.005 0.017 0.001
C83 0.127 0.022 0.054 -0.004 0.038 0
C86 0.093 0.023 0.094 0.002 0.06 0.002
C89 0.09 0.023 0.083 0.007 0.057 0.011
C90 0.11 0.02 0.059 0.007 0.027 -0.002
C94 0.032 0.019 0.053 0.0001 0.003 -0.0002
Cd17 0.0557 0.03916 0.0337 0.00039 0.00325 -0.00813
O36 0.0259 0.074 0.043 0.0091 0.0099 0.0005
O38 0.0237 0.068 0.0427 -0.0003 0.0047 0.004
O40 0.028 0.064 0.0328 0.0103 0.0021 0.0055
O42 0.0267 0.077 0.0359 0.0095 0.0067 -0.004
N15 0.045 0.0192 0.05 -0.0043 0.0126 0.0021
N8 0.04 0.0233 0.038 0.0005 0.0066 -0.0029
C59 0.054 0.0228 0.042 -0.0114 -0.01 0.0025
C64 0.051 0.0148 0.04 0.0051 0.0043 -0.005
C67 0.076 0.022 0.04 0.0045 0.001 0.002
C69 0.056 0.031 0.036 0.0037 -0.01 0
C70 0.042 0.0167 0.036 0.0035 -0.0025 -0.0012
C72 0.081 0.026 0.034 0.0082 0.003 0.016
C73 0.034 0.0153 0.037 0.0004 0.0054 -0.0043
C80 0.043 0.027 0.049 0.0024 0.006 -0.0008
C87 0.082 0.026 0.037 -0.0028 -0.004 -0.007
C88 0.081 0.022 0.045 -0.0048 -0.018 0
N11 0.032 0.015 0.049 -0.0017 0.0076 0.0024
O6 0.026 0.0462 0.04 -0.0026 0.0053 -0.0061
N1 0.042 0.0216 0.046 -0.0039 -0.0055 0.0037
C1 0.037 0.025 0.045 0.0019 0.004 0.0044
C6 0.041 0.025 0.056 0.0076 0.009 0.0023
C25 0.073 0.025 0.035 -0.0037 0.001 0.001
C27 0.052 0.027 0.047 0.0018 0.013 0.006
C33 0.077 0.025 0.052 0.005 0.017 -0.001
C36 0.127 0.022 0.054 0.004 0.038 0
C39 0.093 0.023 0.094 -0.002 0.06 -0.002
C42 0.09 0.023 0.083 -0.007 0.057 -0.011
C43 0.11 0.02 0.059 -0.007 0.027 0.002
C47 0.032 0.019 0.053 -0.0001 0.003 0.0002
O34 0.0403 0.0424 0.032 0.0007 0.0112 -0.0004
N14 0.045 0.0192 0.05 0.0043 0.0126 -0.0021
O18 0.042 0.0479 0.0299 0.0012 0.0001 0.0033
O20 0.0207 0.071 0.0386 0.0033 0.0021 0.0052
O23 0.0391 0.067 0.0208 0.003 0.0023 -0.0104
O26 0.043 0.056 0.053 0.005 0.0091 -0.0092
O27 0.0459 0.064 0.0254 0.004 0.0023 0.0042
O28 0.1 0.052 0.0438 0.0076 0.0016 -0.007
C54 0.0235 0.0346 0.038 0 0.0062 -0.0023
C55 0.0269 0.0287 0.0269 0.0012 0.0014 0.0017
O29 0.066 0.0409 0.058 -0.0039 0.0081 -0.0012
C56 0.0276 0.0199 0.0346 -0.0039 -0.0036 0.0019
C57 0.0246 0.028 0.0312 -0.001 0.001 -0.0018
O30 0.079 0.05 0.071 -0.013 0.006 -0.018
C60 0.0257 0.038 0.029 0.0043 0.0025 -0.0025
C61 0.0252 0.0324 0.0286 -0.0014 0.0054 -0.002
C62 0.029 0.0205 0.032 0.0038 0.0074 -0.0019
C63 0.0291 0.0227 0.0311 0.0038 0.002 0.0021
C65 0.033 0.036 0.0263 0.0041 0.0024 0.0009
C66 0.0241 0.0255 0.0309 0.0063 0.008 0.0011
C68 0.0258 0.036 0.0272 0.0013 0.005 0.0001
O31 0.063 0.07 0.071 -0.01 -0.002 0.019
C71 0.0224 0.041 0.0277 0 -0.0013 -0.0005
C75 0.0256 0.046 0.0293 0.002 0.005 -0.0074
C77 0.048 0.042 0.03 0.0061 0.0061 -0.007
C78 0.0245 0.032 0.039 0.003 0.0023 -0.0005
C79 0.0224 0.043 0.039 0.0084 0.0011 -0.0051
C82 0.044 0.045 0.0256 0.0036 0.0059 -0.0058
C84 0.054 0.045 0.029 -0.0005 -0.0013 -0.001
O32 0.052 0.152 0.124 -0.009 0.02 -0.014
C85 0.062 0.043 0.032 0.0012 0.003 0.006
C91 0.036 0.045 0.029 0.0061 0.0003 -0.0118
C92 0.066 0.05 0.03 -0.003 0.004 -0.004
C93 0.063 0.061 0.039 -0.002 0.008 -0.002
N2 0.04 0.0233 0.038 -0.0005 0.0066 0.0029
C8 0.054 0.0228 0.042 0.0114 -0.01 -0.0025
C14 0.051 0.0148 0.04 -0.0051 0.0043 0.005
C17 0.076 0.022 0.04 -0.0045 0.001 -0.002
C20 0.056 0.031 0.036 -0.0037 -0.01 0
C21 0.042 0.0167 0.036 -0.0035 -0.0025 0.0012
C23 0.081 0.026 0.034 -0.0082 0.003 -0.016
C24 0.034 0.0153 0.037 -0.0004 0.0054 0.0043
C31 0.043 0.027 0.049 -0.0024 0.006 0.0008
C40 0.082 0.026 0.037 0.0028 -0.004 0.007
C41 0.081 0.022 0.045 0.0048 -0.018 0
loop_
_geom_bond_atom_site_label_1
_geom_bond_atom_site_label_2
_geom_bond_site_symmetry_1
_geom_bond_site_symmetry_2
Cd3 O10 1_555 1_555
O1 C11 1_555 1_555
O2 C4 1_555 1_555
O3 C2 1_555 1_555
O4 C4 1_555 1_555
O5 C2 1_555 1_555
O7 C35 1_555 1_555
O8 C12 1_555 1_555
O9 C12 1_555 1_555
O10 C28 1_555 1_555
O11 C15 1_555 1_555
O12 Cd3 1_555 1_555
C2 C29 1_555 1_555
C3 H1 1_555 1_555
O13 Cd3 1_555 1_555
C4 C5 1_555 1_555
C5 C9 1_555 1_555
N4 Cd3 1_555 1_555
O14 Cd3 1_555 1_555
C7 C13 1_555 1_555
C9 H4 1_555 1_555
C10 C3 1_555 1_555
C12 C10 1_555 1_555
C13 H5 1_555 1_555
C15 C9 1_555 1_555
C16 C3 1_555 1_555
C18 C5 1_555 1_555
H8 C18 1_555 1_555
O15 Cd3 1_555 1_555
C19 N4 1_555 1_555
H9 C19 1_555 1_555
C22 C15 1_555 1_555
H12 C22 1_555 1_555
C26 C10 1_555 1_555
H15 C26 1_555 1_555
C28 O13 1_555 1_555
C29 C18 1_555 1_555
C30 C16 1_555 1_555
H17 C30 1_555 1_555
C32 C7 1_555 1_555
H18 C32 1_555 1_555
C34 N4 1_555 1_555
H20 C34 1_555 1_555
C35 C28 1_555 1_555
H21 C35 1_555 1_555
C37 O11 1_555 1_555
H23 C37 1_555 1_555
O16 Cd3 1_555 1_555
C38 O14 1_555 1_555
C44 O7 1_555 1_555
C45 C35 1_555 1_555
H29 C45 1_555 1_555
H30 C45 1_555 1_555
H31 C45 1_555 1_555
C46 C37 1_555 1_555
H32 C46 1_555 1_555
H33 C46 1_555 1_555
H34 C46 1_555 1_555
Cd9 O8 1_555 1_555
Cd12 O1 1_555 1_555
Cd14 O3 1_555 1_555
O5 Cd14 1_555 1_555
O9 Cd9 1_555 1_555
C11 C16 1_555 1_555
C13 C19 1_555 1_555
O15 C38 1_555 1_555
C22 C29 1_555 1_555
C26 C44 1_555 1_555
C30 C44 1_555 1_555
C32 C34 1_555 1_555
C37 C38 1_555 1_555
O12 H73 1_555 1_555
O12 H74 1_555 1_555
O16 H75 1_555 1_555
O16 H76 1_555 1_555
N6 C50 1_555 1_555
C49 C48 1_555 1_555
H35 C49 1_555 1_555
C50 C49 1_555 1_555
H36 C50 1_555 1_555
C51 C48 1_555 1_555
H37 C51 1_555 1_555
C52 N6 1_555 1_555
H38 C52 1_555 1_555
O22 Cd12 1_555 1_555
N7 Cd12 1_555 1_555
N12 C58 1_555 1_555
C53 C86 1_555 1_555
C58 H40 1_555 1_555
C74 N12 1_555 1_555
H50 C74 1_555 1_555
C76 C58 1_555 1_555
H52 C76 1_555 1_555
C81 C74 1_555 1_555
H54 C81 1_555 1_555
C83 N7 1_555 1_555
H56 C83 1_555 1_555
C86 H58 1_555 1_555
C89 N7 1_555 1_555
H61 C89 1_555 1_555
C90 C53 1_555 1_555
H62 C90 1_555 1_555
C94 C53 1_555 1_555
Cd17 N6 1_555 1_555
O36 Cd5 1_555 1_555
O38 Cd5 1_555 1_555
O40 Cd12 1_555 1_555
O42 Cd12 1_555 1_555
N15 Cd5 1_555 1_555
C51 C52 1_555 1_555
C76 C94 1_555 1_555
C81 C94 1_555 1_555
C83 C90 1_555 1_555
C86 C89 1_555 1_555
N15 C70 1_555 1_555
C59 N8 1_555 1_555
C67 N8 1_555 1_555
H44 C67 1_555 1_555
C69 C59 1_555 1_555
C70 C64 1_555 1_555
C72 H49 1_555 1_555
C73 C64 1_555 1_555
C80 C69 1_555 1_555
C87 N15 1_555 1_555
H59 C87 1_555 1_555
C88 C67 1_555 1_555
H60 C88 1_555 1_555
C72 C73 1_555 1_555
C72 C87 1_555 1_555
C73 C80 1_555 1_555
C80 C88 1_555 1_555
O6 Cd9 1_555 1_555
N1 Cd9 1_555 1_555
N11 C6 1_555 1_555
C1 C39 1_555 1_555
C6 H2 1_555 1_555
C25 N11 1_555 1_555
H14 C25 1_555 1_555
C27 C6 1_555 1_555
H16 C27 1_555 1_555
C33 C25 1_555 1_555
H19 C33 1_555 1_555
C36 N1 1_555 1_555
H22 C36 1_555 1_555
C39 H24 1_555 1_555
C42 N1 1_555 1_555
H27 C42 1_555 1_555
C43 C1 1_555 1_555
H28 C43 1_555 1_555
C47 C1 1_555 1_555
O34 Cd9 1_555 1_555
N14 Cd14 1_555 1_555
C27 C47 1_555 1_555
C33 C47 1_555 1_555
C36 C43 1_555 1_555
C39 C42 1_555 1_555
Cd17 O26 1_555 1_555
O34 C62 1_555 1_555
O36 C54 1_555 1_555
O38 C54 1_555 1_555
O23 C82 1_555 1_555
O40 C63 1_555 1_555
O42 C63 1_555 1_555
O26 C77 1_555 1_555
O27 C65 1_555 1_555
O28 Cd17 1_555 1_555
C54 C78 1_555 1_555
C55 H39 1_555 1_555
O29 Cd17 1_555 1_555
C56 O18 1_555 1_555
C57 C56 1_555 1_555
O30 Cd17 1_555 1_555
C60 C57 1_555 1_555
H42 C60 1_555 1_555
C61 C55 1_555 1_555
C63 C61 1_555 1_555
C65 C60 1_555 1_555
C66 C55 1_555 1_555
C68 C57 1_555 1_555
H45 C68 1_555 1_555
O31 Cd17 1_555 1_555
C71 C65 1_555 1_555
H48 C71 1_555 1_555
C75 C61 1_555 1_555
H51 C75 1_555 1_555
C77 O29 1_555 1_555
C78 C68 1_555 1_555
C79 C66 1_555 1_555
H53 C79 1_555 1_555
C82 C77 1_555 1_555
H55 C82 1_555 1_555
C84 O27 1_555 1_555
H57 C84 1_555 1_555
O32 Cd17 1_555 1_555
C85 O30 1_555 1_555
C91 O23 1_555 1_555
C92 C82 1_555 1_555
H63 C92 1_555 1_555
H64 C92 1_555 1_555
H65 C92 1_555 1_555
C93 C84 1_555 1_555
H66 C93 1_555 1_555
H67 C93 1_555 1_555
H68 C93 1_555 1_555
O20 C56 1_555 1_555
C62 C66 1_555 1_555
O31 C85 1_555 1_555
C71 C78 1_555 1_555
C75 C91 1_555 1_555
C79 C91 1_555 1_555
C84 C85 1_555 1_555
O28 H69 1_555 1_555
O28 H70 1_555 1_555
O32 H71 1_555 1_555
O32 H72 1_555 1_555
N14 C21 1_555 1_555
C8 N2 1_555 1_555
C17 N2 1_555 1_555
H7 C17 1_555 1_555
C20 C8 1_555 1_555
C21 C14 1_555 1_555
C23 H13 1_555 1_555
C24 C14 1_555 1_555
C31 C20 1_555 1_555
C40 N14 1_555 1_555
H25 C40 1_555 1_555
C41 C17 1_555 1_555
H26 C41 1_555 1_555
C23 C24 1_555 1_555
C23 C40 1_555 1_555
C24 C31 1_555 1_555
C31 C41 1_555 1_555

#END
