
###############################################################################
#
# This file contains modified crystal structure data generated from the
# MOF subset of the Cambridge Structural Database (CSD) v543 
# hosted by the Cambridge Crystallographic Data Centre (CCDC).
#
# This work is licensed under the Creative Commons
# Attribution-NonCommercial-ShareAlike 4.0 International License.
# To view a copy of this license, visit
# http://creativecommons.org/licenses/by-nc-sa/4.0/
# or send a letter to
# Creative Commons, PO Box 1866, Mountain View, CA 94042, USA.
#
# CIF created using the CSD Python API on 29 September 2022
# The structure has been converted into the P1 space group
# The structure has a 3D framework
# The original CSD entry JUFZER is in the monoclinic crystal system
# The framework has been calculated to contain at least 10.0% void space
# The void calculation uses a probe of radius 1.32A, grid spacing 0.4
#
###############################################################################

data_JUFZER
_chemical_formula_moiety         '(C136 H80 Cd16 O92)n'
_symmetry_cell_setting           triclinic
_symmetry_space_group_name_H-M   'P 1'
_symmetry_Int_Tables_number      1
_space_group_name_Hall           'P 1'
loop_
_symmetry_equiv_pos_site_id
_symmetry_equiv_pos_as_xyz
1 x,y,z
_cell_length_a                   14.1129(6)
_cell_length_b                   14.7903(5)
_cell_length_c                   21.1602(12)
_cell_angle_alpha                90
_cell_angle_beta                 107.645(5)
_cell_angle_gamma                90
_cell_volume                     4209.05
loop_
_atom_site_label
_atom_site_type_symbol
_atom_site_fract_x
_atom_site_fract_y
_atom_site_fract_z
Cd2 Cd 0.28544(6) 0.06477(6) 0.55116(4)
O2 O 0.1772(7) 0.1801(6) 0.5343(5)
O3 O 0.1545(6) 0.3242(6) 0.5027(4)
O7 O 0.2228(7) 0.0192(6) 0.6318(5)
H3 H 0.2035 0.0469 0.6628
C16 C 0.2008(8) 0.2512(7) 0.5106(6)
O13 O 0.3228(7) 0.3199(6) 0.4657(5)
O14 O 0.3455(6) 0.1758(6) 0.4973(4)
C18 C 0.2992(8) 0.2488(7) 0.4894(6)
Cd7 Cd 0.42195(6) 0.06246(6) 0.31704(4)
Cd11 Cd 0.21456(6) 0.43523(6) 0.44884(4)
O31 O 0.4354(6) 0.0555(5) 0.6308(4)
H1 H 0.0231 0.5752 0.4524
O4 O 0.4198(6) 0.9102(5) 0.2983(4)
O5 O 0.5646(6) 0.9445(5) 0.3692(4)
O6 O 0.7591(6) 0.5573(6) 0.3189(5)
H4 H 0.2648 0.9809 0.6491
C1 C 0.5035(8) 0.8868(7) 0.3373(6)
C2 C 0.3700(8) 0.8181(7) 0.4158(6)
H5 H 0.4265 0.8521 0.4360
C3 C 0.4693(8) 0.7223(7) 0.3594(6)
C4 C 0.1965(7) 0.7862(7) 0.3995(5)
H6 H 0.1377 0.7984 0.4092
C5 C 0.2806(8) 0.8383(7) 0.4279(5)
C6 C 0.3755(8) 0.7481(7) 0.3741(6)
C7 C 0.5301(7) 0.7879(7) 0.3423(5)
C8 C 0.6199(7) 0.7610(7) 0.3327(5)
H7 H 0.6619 0.8045 0.3239
C9 C 0.2893(7) 0.6982(7) 0.3444(6)
H8 H 0.2915 0.6516 0.3155
C10 C 0.2001(8) 0.7169(7) 0.3573(5)
C11 C 0.1113(8) 0.6579(7) 0.3259(6)
C12 C 0.6473(8) 0.6701(8) 0.3360(5)
C13 C 0.2741(8) 0.9173(7) 0.4716(6)
C14 C 0.4994(9) 0.6315(8) 0.3634(7)
H9 H 0.4596 0.5875 0.3738
C15 C 0.5859(9) 0.6067(8) 0.3522(6)
H10 H 0.6041 0.5460 0.3555
O8 O 0.1919(7) 0.9468(6) 0.4749(5)
O9 O 0.1223(6) 0.5890(5) 0.2955(4)
O10 O 0.0296(6) 0.6807(6) 0.3350(5)
O11 O 0.3539(6) 0.9578(6) 0.5009(5)
O12 O 0.8063(6) 0.7023(6) 0.3231(5)
C17 C 0.7439(8) 0.6423(9) 0.3256(6)
Cd3 Cd 0.07805(6) 0.56246(6) 0.18296(4)
O15 O 0.0427(7) 0.5782(8) 0.0694(5)
H12 H 0.0653 0.5487 0.0429
Cd5 Cd 0.92195(6) 0.56246(6) 0.31704(4)
Cd9 Cd 0.71456(6) 0.93523(6) 0.44884(4)
O28 O 0.0802(6) 0.4102(5) 0.2017(4)
O29 O 0.0646(6) 0.4445(5) 0.3692(4)
O34 O 0.2409(6) 0.5573(6) 0.1811(5)
O36 O 0.1937(6) 0.7023(6) 0.1769(5)
Cd8 Cd 0.57805(6) 0.06246(6) 0.18296(4)
O26 O 0.6545(6) 0.1758(6) 0.0027(4)
Cd4 Cd 0.71456(6) 0.06477(6) 0.94884(4)
O19 O 0.7772(7) 0.0192(6) 0.8682(5)
H13 H 0.7965 0.0469 0.8372
O25 O 0.8228(7) 0.1801(6) 0.9657(5)
O32 O 0.5646(6) 0.0555(5) 0.8692(4)
O1 O 0.9573(7) 0.5782(8) 0.4306(5)
H2 H 0.9347 0.5487 0.4571
H11 H 0.9769 0.5752 0.0476
O16 O 0.5802(6) 0.9102(5) 0.2017(4)
O17 O 0.4354(6) 0.9445(5) 0.1308(4)
C19 C 0.4965(8) 0.8868(7) 0.1627(6)
C20 C 0.6300(8) 0.8181(7) 0.0842(6)
H15 H 0.5735 0.8521 0.0640
C21 C 0.5307(8) 0.7223(7) 0.1406(6)
C22 C 0.8035(7) 0.7862(7) 0.1005(5)
H16 H 0.8623 0.7984 0.0908
C23 C 0.7194(8) 0.8383(7) 0.0721(5)
C24 C 0.6245(8) 0.7481(7) 0.1259(6)
C25 C 0.4699(7) 0.7879(7) 0.1577(5)
C26 C 0.3801(7) 0.7610(7) 0.1673(5)
H17 H 0.3381 0.8045 0.1761
C27 C 0.7107(7) 0.6982(7) 0.1556(6)
H18 H 0.7085 0.6516 0.1845
C28 C 0.7999(8) 0.7169(7) 0.1427(5)
C29 C 0.8887(8) 0.6579(7) 0.1741(6)
C30 C 0.3527(8) 0.6701(8) 0.1640(5)
C31 C 0.7259(8) 0.9173(7) 0.0284(6)
C32 C 0.5006(9) 0.6315(8) 0.1366(7)
H19 H 0.5404 0.5875 0.1262
C33 C 0.4141(9) 0.6067(8) 0.1478(6)
H20 H 0.3959 0.5460 0.1445
O20 O 0.8081(7) 0.9468(6) 0.0251(5)
O21 O 0.8777(6) 0.5890(5) 0.2045(4)
O22 O 0.9704(6) 0.6807(6) 0.1650(5)
C34 C 0.2561(8) 0.6423(9) 0.1744(6)
Cd10 Cd 0.28544(6) 0.93523(6) 0.05116(4)
O27 O 0.9198(6) 0.4102(5) 0.2983(4)
O30 O 0.9354(6) 0.4445(5) 0.1308(4)
O13_2 O 0.6772(7) 0.3199(6) 0.0343(5)
C18_2 C 0.7008(8) 0.2488(7) 0.0106(6)
Cd11_2 Cd 0.78544(6) 0.43523(6) 0.05116(4)
O3_2 O 0.8455(6) 0.3242(6) 0.9973(4)
C16_2 C 0.7992(8) 0.2512(7) 0.9894(6)
O6_2 O 0.2591(6) 0.0573(6) 0.3189(5)
C1_2 C 0.0035(8) 0.3868(7) 0.3373(6)
C7_2 C 0.0301(7) 0.2879(7) 0.3423(5)
C8_2 C 0.1199(7) 0.2610(7) 0.3327(5)
H7_2 H 0.1619 0.3045 0.3239
C12_2 C 0.1473(8) 0.1701(8) 0.3360(5)
C15_2 C 0.0859(9) 0.1067(8) 0.3522(6)
H10_2 H 0.1041 0.0460 0.3555
O12_2 O 0.3063(6) 0.2023(6) 0.3231(5)
C17_2 C 0.2439(8) 0.1423(9) 0.3256(6)
Cd2_2 Cd 0.78544(6) 0.56477(6) 0.55116(4)
O1_2 O 0.4573(7) 0.0782(8) 0.4306(5)
H1_2 H 0.5231 0.0752 0.4524
H2_2 H 0.4347 0.0487 0.4571
O2_2 O 0.6772(7) 0.6801(6) 0.5343(5)
O3_3 O 0.6545(6) 0.8242(6) 0.5027(4)
O7_2 O 0.7228(7) 0.5192(6) 0.6318(5)
H3_2 H 0.7035 0.5469 0.6628
H4_2 H 0.7648 0.4809 0.6491
C2_2 C 0.8700(8) 0.3181(7) 0.4158(6)
H5_2 H 0.9265 0.3521 0.4360
C3_2 C 0.9693(8) 0.2223(7) 0.3594(6)
C4_2 C 0.6965(7) 0.2862(7) 0.3995(5)
H6_2 H 0.6377 0.2984 0.4092
C5_2 C 0.7806(8) 0.3383(7) 0.4279(5)
C6_2 C 0.8755(8) 0.2481(7) 0.3741(6)
C9_2 C 0.7893(7) 0.1982(7) 0.3444(6)
H8_2 H 0.7915 0.1516 0.3155
C10_2 C 0.7001(8) 0.2169(7) 0.3573(5)
C11_2 C 0.6113(8) 0.1579(7) 0.3259(6)
C13_2 C 0.7741(8) 0.4173(7) 0.4716(6)
C14_2 C 0.9994(9) 0.1315(8) 0.3634(7)
H9_2 H 0.9596 0.0875 0.3738
O8_2 O 0.6919(7) 0.4468(6) 0.4749(5)
O9_2 O 0.6223(6) 0.0890(5) 0.2955(4)
O10_2 O 0.5296(6) 0.1807(6) 0.3350(5)
O11_2 O 0.8539(6) 0.4578(6) 0.5009(5)
C16_3 C 0.7008(8) 0.7512(7) 0.5106(6)
O13_3 O 0.8228(7) 0.8199(6) 0.4657(5)
O14_2 O 0.8455(6) 0.6758(6) 0.4973(4)
C18_3 C 0.7992(8) 0.7488(7) 0.4894(6)
O15_2 O 0.5427(7) 0.0782(8) 0.0694(5)
H11_2 H 0.4769 0.0752 0.0476
H12_2 H 0.5653 0.0487 0.0429
C20_2 C 0.1300(8) 0.3181(7) 0.0842(6)
H15_2 H 0.0735 0.3521 0.0640
C21_2 C 0.0307(8) 0.2223(7) 0.1406(6)
C22_2 C 0.3035(7) 0.2862(7) 0.1005(5)
H16_2 H 0.3623 0.2984 0.0908
C23_2 C 0.2194(8) 0.3383(7) 0.0721(5)
C24_2 C 0.1245(8) 0.2481(7) 0.1259(6)
C27_2 C 0.2107(7) 0.1982(7) 0.1556(6)
H18_2 H 0.2085 0.1516 0.1845
C28_2 C 0.2999(8) 0.2169(7) 0.1427(5)
C29_2 C 0.3887(8) 0.1579(7) 0.1741(6)
C31_2 C 0.2259(8) 0.4173(7) 0.0284(6)
C32_2 C 0.0006(9) 0.1315(8) 0.1366(7)
H19_2 H 0.0404 0.0875 0.1262
O20_2 O 0.3081(7) 0.4468(6) 0.0251(5)
O21_2 O 0.3777(6) 0.0890(5) 0.2045(4)
O22_2 O 0.4704(6) 0.1807(6) 0.1650(5)
O26_2 O 0.1545(6) 0.6758(6) 0.0027(4)
O31_2 O 0.9354(6) 0.5555(5) 0.6308(4)
O34_2 O 0.7409(6) 0.0573(6) 0.1811(5)
O36_2 O 0.6937(6) 0.2023(6) 0.1769(5)
Cd4_2 Cd 0.21456(6) 0.56477(6) 0.94884(4)
O19_2 O 0.2772(7) 0.5192(6) 0.8682(5)
H13_2 H 0.2965 0.5469 0.8372
H14 H 0.2352 0.4809 0.8509
O23 O 0.1461(6) 0.4578(6) 0.9991(5)
O25_2 O 0.3228(7) 0.6801(6) 0.9657(5)
O32_2 O 0.0646(6) 0.5555(5) 0.8692(4)
C19_2 C 0.9965(8) 0.3868(7) 0.1627(6)
C25_2 C 0.9699(7) 0.2879(7) 0.1577(5)
C26_2 C 0.8801(7) 0.2610(7) 0.1673(5)
H17_2 H 0.8381 0.3045 0.1761
C30_2 C 0.8527(8) 0.1701(8) 0.1640(5)
C33_2 C 0.9141(9) 0.1067(8) 0.1478(6)
H20_2 H 0.8959 0.0460 0.1445
C34_2 C 0.7561(8) 0.1423(9) 0.1744(6)
O13_4 O 0.1772(7) 0.8199(6) 0.0343(5)
C18_4 C 0.2008(8) 0.7488(7) 0.0106(6)
O3_4 O 0.3455(6) 0.8242(6) 0.9973(4)
C16_4 C 0.2992(8) 0.7512(7) 0.9894(6)
Cd1 Cd 0.07805(6) 0.43754(6) 0.68296(4)
O1_3 O 0.0427(7) 0.4218(8) 0.5694(5)
H2_3 H 0.0653 0.4513 0.5429
H11_3 H 0.0231 0.4248 0.9524
O16_2 O 0.4198(6) 0.0898(5) 0.7983(4)
O18 O 0.7591(6) 0.4427(6) 0.8189(5)
C19_3 C 0.5035(8) 0.1132(7) 0.8373(6)
C20_3 C 0.3700(8) 0.1819(7) 0.9158(6)
H15_3 H 0.4265 0.1479 0.9360
C21_3 C 0.4693(8) 0.2777(7) 0.8594(6)
C22_3 C 0.1965(7) 0.2138(7) 0.8995(5)
H16_3 H 0.1377 0.2016 0.9092
C23_3 C 0.2806(8) 0.1617(7) 0.9279(5)
C24_3 C 0.3755(8) 0.2519(7) 0.8741(6)
C25_3 C 0.5301(7) 0.2121(7) 0.8423(5)
C26_3 C 0.6199(7) 0.2390(7) 0.8327(5)
H17_3 H 0.6619 0.1955 0.8239
C27_3 C 0.2893(7) 0.3018(7) 0.8444(6)
H18_3 H 0.2915 0.3484 0.8155
C28_3 C 0.2001(8) 0.2831(7) 0.8573(5)
C29_3 C 0.1113(8) 0.3421(7) 0.8259(6)
C30_3 C 0.6473(8) 0.3299(8) 0.8360(5)
C31_3 C 0.2741(8) 0.0827(7) 0.9716(6)
C32_3 C 0.4994(9) 0.3685(8) 0.8634(7)
H19_3 H 0.4596 0.4125 0.8738
C33_3 C 0.5859(9) 0.3933(8) 0.8522(6)
H20_3 H 0.6041 0.4540 0.8555
O20_3 O 0.1919(7) 0.0532(6) 0.9749(5)
O21_3 O 0.1223(6) 0.4110(5) 0.7955(4)
O22_3 O 0.0296(6) 0.3193(6) 0.8350(5)
O24 O 0.8063(6) 0.2977(6) 0.8231(5)
C34_3 C 0.7439(8) 0.3577(9) 0.8256(6)
Cd6 Cd 0.92195(6) 0.43754(6) 0.81704(4)
O27_2 O 0.0802(6) 0.5898(5) 0.7017(4)
O33 O 0.2409(6) 0.4427(6) 0.6811(5)
O35 O 0.1937(6) 0.2977(6) 0.6769(5)
O19_3 O 0.2228(7) 0.9808(6) 0.1318(5)
H13_3 H 0.2035 0.9531 0.1628
Cd8_2 Cd 0.42195(6) 0.93754(6) 0.81704(4)
H1_3 H 0.9769 0.4248 0.5476
O4_2 O 0.5802(6) 0.0898(5) 0.7017(4)
H4_3 H 0.7352 0.0191 0.3509
C1_3 C 0.4965(8) 0.1132(7) 0.6627(6)
C2_3 C 0.6300(8) 0.1819(7) 0.5842(6)
H5_3 H 0.5735 0.1479 0.5640
C3_3 C 0.5307(8) 0.2777(7) 0.6406(6)
C4_3 C 0.8035(7) 0.2138(7) 0.6005(5)
H6_3 H 0.8623 0.2016 0.5908
C5_3 C 0.7194(8) 0.1617(7) 0.5721(5)
C6_3 C 0.6245(8) 0.2519(7) 0.6259(6)
C7_3 C 0.4699(7) 0.2121(7) 0.6577(5)
C8_3 C 0.3801(7) 0.2390(7) 0.6673(5)
H7_3 H 0.3381 0.1955 0.6761
C9_3 C 0.7107(7) 0.3018(7) 0.6556(6)
H8_3 H 0.7085 0.3484 0.6845
C10_3 C 0.7999(8) 0.2831(7) 0.6427(5)
C11_3 C 0.8887(8) 0.3421(7) 0.6741(6)
C12_3 C 0.3527(8) 0.3299(8) 0.6640(5)
C13_3 C 0.7259(8) 0.0827(7) 0.5284(6)
C14_3 C 0.5006(9) 0.3685(8) 0.6366(7)
H9_3 H 0.5404 0.4125 0.6262
C15_3 C 0.4141(9) 0.3933(8) 0.6478(6)
H10_3 H 0.3959 0.4540 0.6445
O8_3 O 0.8081(7) 0.0532(6) 0.5251(5)
O9_3 O 0.8777(6) 0.4110(5) 0.7045(4)
O10_3 O 0.9704(6) 0.3193(6) 0.6650(5)
O11_3 O 0.6461(6) 0.0422(6) 0.4991(5)
C17_3 C 0.2561(8) 0.3577(9) 0.6744(6)
O15_3 O 0.9573(7) 0.4218(8) 0.9306(5)
H12_3 H 0.9347 0.4513 0.9571
O28_2 O 0.9198(6) 0.5898(5) 0.7983(4)
O7_3 O 0.7772(7) 0.9808(6) 0.3682(5)
H3_3 H 0.7965 0.9531 0.3372
Cd7_2 Cd 0.57805(6) 0.93754(6) 0.68296(4)
O18_2 O 0.2591(6) 0.9427(6) 0.8189(5)
C19_4 C 0.0035(8) 0.6132(7) 0.8373(6)
C25_4 C 0.0301(7) 0.7121(7) 0.8423(5)
C26_4 C 0.1199(7) 0.7390(7) 0.8327(5)
H17_4 H 0.1619 0.6955 0.8239
C30_4 C 0.1473(8) 0.8299(8) 0.8360(5)
C33_4 C 0.0859(9) 0.8933(8) 0.8522(6)
H20_4 H 0.1041 0.9540 0.8555
O24_2 O 0.3063(6) 0.7977(6) 0.8231(5)
C34_4 C 0.2439(8) 0.8577(9) 0.8256(6)
O19_4 O 0.7228(7) 0.4808(6) 0.1318(5)
H13_4 H 0.7035 0.4531 0.1628
H14_2 H 0.7648 0.5191 0.1491
O23_2 O 0.8539(6) 0.5422(6) 0.0009(5)
O1_4 O 0.5427(7) 0.9218(8) 0.5694(5)
H1_4 H 0.4769 0.9248 0.5476
H2_4 H 0.5653 0.9513 0.5429
O7_4 O 0.2772(7) 0.4808(6) 0.3682(5)
H3_4 H 0.2965 0.4531 0.3372
H4_4 H 0.2352 0.5191 0.3509
C2_4 C 0.1300(8) 0.6819(7) 0.5842(6)
H5_4 H 0.0735 0.6479 0.5640
C3_4 C 0.0307(8) 0.7777(7) 0.6406(6)
C4_4 C 0.3035(7) 0.7138(7) 0.6005(5)
H6_4 H 0.3623 0.7016 0.5908
C5_4 C 0.2194(8) 0.6617(7) 0.5721(5)
C6_4 C 0.1245(8) 0.7519(7) 0.6259(6)
C9_4 C 0.2107(7) 0.8018(7) 0.6556(6)
H8_4 H 0.2085 0.8484 0.6845
C10_4 C 0.2999(8) 0.7831(7) 0.6427(5)
C11_4 C 0.3887(8) 0.8421(7) 0.6741(6)
C13_4 C 0.2259(8) 0.5827(7) 0.5284(6)
C14_4 C 0.0006(9) 0.8685(8) 0.6366(7)
H9_4 H 0.0404 0.9125 0.6262
O8_4 O 0.3081(7) 0.5532(6) 0.5251(5)
O9_4 O 0.3777(6) 0.9110(5) 0.7045(4)
O10_4 O 0.4704(6) 0.8193(6) 0.6650(5)
O11_4 O 0.1461(6) 0.5422(6) 0.4991(5)
O15_4 O 0.4573(7) 0.9218(8) 0.9306(5)
H11_4 H 0.5231 0.9248 0.9524
H12_4 H 0.4347 0.9513 0.9571
C20_4 C 0.8700(8) 0.6819(7) 0.9158(6)
H15_4 H 0.9265 0.6479 0.9360
C21_4 C 0.9693(8) 0.7777(7) 0.8594(6)
C22_4 C 0.6965(7) 0.7138(7) 0.8995(5)
H16_4 H 0.6377 0.7016 0.9092
C23_4 C 0.7806(8) 0.6617(7) 0.9279(5)
C24_4 C 0.8755(8) 0.7519(7) 0.8741(6)
C27_4 C 0.7893(7) 0.8018(7) 0.8444(6)
H18_4 H 0.7915 0.8484 0.8155
C28_4 C 0.7001(8) 0.7831(7) 0.8573(5)
C29_4 C 0.6113(8) 0.8421(7) 0.8259(6)
C31_4 C 0.7741(8) 0.5827(7) 0.9716(6)
C32_4 C 0.9994(9) 0.8685(8) 0.8634(7)
H19_4 H 0.9596 0.9125 0.8738
O20_4 O 0.6919(7) 0.5532(6) 0.9749(5)
O21_4 O 0.6223(6) 0.9110(5) 0.7955(4)
O22_4 O 0.5296(6) 0.8193(6) 0.8350(5)
O33_2 O 0.7409(6) 0.9427(6) 0.6811(5)
O35_2 O 0.6937(6) 0.7977(6) 0.6769(5)
C1_4 C 0.9965(8) 0.6132(7) 0.6627(6)
C7_4 C 0.9699(7) 0.7121(7) 0.6577(5)
C8_4 C 0.8801(7) 0.7390(7) 0.6673(5)
H7_4 H 0.8381 0.6955 0.6761
C12_4 C 0.8527(8) 0.8299(8) 0.6640(5)
C15_4 C 0.9141(9) 0.8933(8) 0.6478(6)
H10_4 H 0.8959 0.9540 0.6445
C17_4 C 0.7561(8) 0.8577(9) 0.6744(6)
H14_3 H 0.7352 0.9809 0.8509
O23_3 O 0.6461(6) 0.9578(6) 0.9991(5)
H14_4 H 0.2648 0.0191 0.1491
O23_4 O 0.3539(6) 0.0422(6) 0.0009(5)
loop_
_geom_bond_atom_site_label_1
_geom_bond_atom_site_label_2
_geom_bond_site_symmetry_1
_geom_bond_site_symmetry_2
Cd2 O2 1_555 1_555
O2 C16 1_555 1_555
O3 C16 1_555 1_555
O7 Cd2 1_555 1_555
H3 O7 1_555 1_555
C16 C18 1_555 1_555
O13 C18 1_555 1_555
O14 Cd2 1_555 1_555
C18 O14 1_555 1_555
Cd11 O3 1_555 1_555
O31 Cd2 1_555 1_555
O13 Cd11 1_555 1_555
O4 C1 1_555 1_555
O5 C1 1_555 1_555
O6 C17 1_555 1_555
C1 C7 1_555 1_555
C2 H5 1_555 1_555
C3 C6 1_555 1_555
C4 H6 1_555 1_555
C5 C2 1_555 1_555
C6 C2 1_555 1_555
C7 C3 1_555 1_555
C8 C7 1_555 1_555
H7 C8 1_555 1_555
C9 C6 1_555 1_555
H8 C9 1_555 1_555
C10 C4 1_555 1_555
C11 C10 1_555 1_555
C12 C8 1_555 1_555
C13 C5 1_555 1_555
C14 C3 1_555 1_555
H9 C14 1_555 1_555
C15 C12 1_555 1_555
H10 C15 1_555 1_555
O9 C11 1_555 1_555
O12 C17 1_555 1_555
C17 C12 1_555 1_555
Cd3 O9 1_555 1_555
O15 Cd3 1_555 1_555
H12 O15 1_555 1_555
Cd5 O6 1_555 1_555
Cd9 O5 1_555 1_555
O28 Cd3 1_555 1_555
O34 Cd3 1_555 1_555
O36 Cd3 1_555 1_555
C4 C5 1_555 1_555
C9 C10 1_555 1_555
C11 O10 1_555 1_555
C13 O8 1_555 1_555
C13 O11 1_555 1_555
C14 C15 1_555 1_555
O12 Cd5 1_555 1_555
Cd4 O19 1_555 1_555
O19 H13 1_555 1_555
O25 Cd4 1_555 1_555
O32 Cd4 1_555 1_555
Cd5 O1 1_555 1_555
H2 O1 1_555 1_555
O16 C19 1_555 1_555
O17 C19 1_555 1_555
O34 C34 1_555 1_555
C19 C25 1_555 1_555
C20 H15 1_555 1_555
C21 C24 1_555 1_555
C22 H16 1_555 1_555
C23 C20 1_555 1_555
C24 C20 1_555 1_555
C25 C21 1_555 1_555
C26 C25 1_555 1_555
H17 C26 1_555 1_555
C27 C24 1_555 1_555
H18 C27 1_555 1_555
C28 C22 1_555 1_555
C29 C28 1_555 1_555
C30 C26 1_555 1_555
C31 C23 1_555 1_555
C32 C21 1_555 1_555
H19 C32 1_555 1_555
C33 C30 1_555 1_555
H20 C33 1_555 1_555
O21 Cd5 1_555 1_555
O36 C34 1_555 1_555
C34 C30 1_555 1_555
Cd10 O17 1_555 1_555
O27 Cd5 1_555 1_555
C22 C23 1_555 1_555
C27 C28 1_555 1_555
C29 O21 1_555 1_555
C29 O22 1_555 1_555
C31 O20 1_555 1_555
C32 C33 1_555 1_555
O13_2 C18_2 1_555 1_555
C18_2 O26 1_555 1_555
O13_2 Cd11_2 1_555 1_555
O25 C16_2 1_555 1_555
O3_2 C16_2 1_555 1_555
O29 C1_2 1_555 1_555
O6_2 C17_2 1_555 1_555
C1_2 C7_2 1_555 1_555
C8_2 C7_2 1_555 1_555
H7_2 C8_2 1_555 1_555
C12_2 C8_2 1_555 1_555
C15_2 C12_2 1_555 1_555
H10_2 C15_2 1_555 1_555
O12_2 C17_2 1_555 1_555
C17_2 C12_2 1_555 1_555
Cd7 O6_2 1_555 1_555
Cd11 O29 1_555 1_555
O12_2 Cd7 1_555 1_555
Cd7 O1_2 1_555 1_555
Cd2_2 O2_2 1_555 1_555
O1_2 H1_2 1_555 1_555
H2_2 O1_2 1_555 1_555
O2_2 C16_3 1_555 1_555
O3_3 C16_3 1_555 1_555
O7_2 Cd2_2 1_555 1_555
H3_2 O7_2 1_555 1_555
H4_2 O7_2 1_555 1_555
C2_2 H5_2 1_555 1_555
C3_2 C6_2 1_555 1_555
C4_2 H6_2 1_555 1_555
C5_2 C2_2 1_555 1_555
C6_2 C2_2 1_555 1_555
C9_2 C6_2 1_555 1_555
H8_2 C9_2 1_555 1_555
C10_2 C4_2 1_555 1_555
C11_2 C10_2 1_555 1_555
C13_2 C5_2 1_555 1_555
C14_2 C3_2 1_555 1_555
H9_2 C14_2 1_555 1_555
O8_2 Cd2_2 1_555 1_555
O9_2 C11_2 1_555 1_555
O10_2 Cd7 1_555 1_555
O11_2 Cd2_2 1_555 1_555
C16_3 C18_3 1_555 1_555
O13_3 C18_3 1_555 1_555
O14_2 Cd2_2 1_555 1_555
C18_3 O14_2 1_555 1_555
Cd8 O9_2 1_555 1_555
O15_2 Cd8 1_555 1_555
H11_2 O15_2 1_555 1_555
H12_2 O15_2 1_555 1_555
C20_2 H15_2 1_555 1_555
C21_2 C24_2 1_555 1_555
C22_2 H16_2 1_555 1_555
C23_2 C20_2 1_555 1_555
C24_2 C20_2 1_555 1_555
C27_2 C24_2 1_555 1_555
H18_2 C27_2 1_555 1_555
C28_2 C22_2 1_555 1_555
C29_2 C28_2 1_555 1_555
C31_2 C23_2 1_555 1_555
C32_2 C21_2 1_555 1_555
H19_2 C32_2 1_555 1_555
O21_2 Cd7 1_555 1_555
O22_2 Cd8 1_555 1_555
Cd9 O3_3 1_555 1_555
O31_2 Cd2_2 1_555 1_555
O34_2 Cd8 1_555 1_555
O36_2 Cd8 1_555 1_555
C4_2 C5_2 1_555 1_555
C9_2 C10_2 1_555 1_555
C11_2 O10_2 1_555 1_555
C13_2 O8_2 1_555 1_555
C13_2 O11_2 1_555 1_555
O13_3 Cd9 1_555 1_555
C22_2 C23_2 1_555 1_555
C27_2 C28_2 1_555 1_555
C29_2 O21_2 1_555 1_555
C29_2 O22_2 1_555 1_555
C31_2 O20_2 1_555 1_555
Cd4_2 O19_2 1_555 1_555
O19_2 H13_2 1_555 1_555
H14 O19_2 1_555 1_555
O23 Cd4_2 1_555 1_555
O25_2 Cd4_2 1_555 1_555
O32_2 Cd4_2 1_555 1_555
O30 C19_2 1_555 1_555
O34_2 C34_2 1_555 1_555
C19_2 C25_2 1_555 1_555
C26_2 C25_2 1_555 1_555
H17_2 C26_2 1_555 1_555
C30_2 C26_2 1_555 1_555
C33_2 C30_2 1_555 1_555
H20_2 C33_2 1_555 1_555
O36_2 C34_2 1_555 1_555
C34_2 C30_2 1_555 1_555
Cd11_2 O30 1_555 1_555
O13_4 C18_4 1_555 1_555
C18_4 O26_2 1_555 1_555
O13_4 Cd10 1_555 1_555
O25_2 C16_4 1_555 1_555
O3_4 C16_4 1_555 1_555
Cd1 O1_3 1_555 1_555
H2_3 O1_3 1_555 1_555
O16_2 C19_3 1_555 1_555
O32 C19_3 1_555 1_555
O18 C34_3 1_555 1_555
C19_3 C25_3 1_555 1_555
C20_3 H15_3 1_555 1_555
C21_3 C24_3 1_555 1_555
C22_3 H16_3 1_555 1_555
C23_3 C20_3 1_555 1_555
C24_3 C20_3 1_555 1_555
C25_3 C21_3 1_555 1_555
C26_3 C25_3 1_555 1_555
H17_3 C26_3 1_555 1_555
C27_3 C24_3 1_555 1_555
H18_3 C27_3 1_555 1_555
C28_3 C22_3 1_555 1_555
C29_3 C28_3 1_555 1_555
C30_3 C26_3 1_555 1_555
C31_3 C23_3 1_555 1_555
C32_3 C21_3 1_555 1_555
H19_3 C32_3 1_555 1_555
C33_3 C30_3 1_555 1_555
H20_3 C33_3 1_555 1_555
O21_3 Cd1 1_555 1_555
O24 C34_3 1_555 1_555
C34_3 C30_3 1_555 1_555
Cd6 O18 1_555 1_555
O27_2 Cd1 1_555 1_555
O33 Cd1 1_555 1_555
O35 Cd1 1_555 1_555
C22_3 C23_3 1_555 1_555
C27_3 C28_3 1_555 1_555
C29_3 O21_3 1_555 1_555
C29_3 O22_3 1_555 1_555
C31_3 O20_3 1_555 1_555
C32_3 C33_3 1_555 1_555
O24 Cd6 1_555 1_555
Cd10 O19_3 1_555 1_555
O19_3 H13_3 1_555 1_555
O4_2 C1_3 1_555 1_555
O31 C1_3 1_555 1_555
O33 C17_3 1_555 1_555
C1_3 C7_3 1_555 1_555
C2_3 H5_3 1_555 1_555
C3_3 C6_3 1_555 1_555
C4_3 H6_3 1_555 1_555
C5_3 C2_3 1_555 1_555
C6_3 C2_3 1_555 1_555
C7_3 C3_3 1_555 1_555
C8_3 C7_3 1_555 1_555
H7_3 C8_3 1_555 1_555
C9_3 C6_3 1_555 1_555
H8_3 C9_3 1_555 1_555
C10_3 C4_3 1_555 1_555
C11_3 C10_3 1_555 1_555
C12_3 C8_3 1_555 1_555
C13_3 C5_3 1_555 1_555
C14_3 C3_3 1_555 1_555
H9_3 C14_3 1_555 1_555
C15_3 C12_3 1_555 1_555
H10_3 C15_3 1_555 1_555
O9_3 C11_3 1_555 1_555
O35 C17_3 1_555 1_555
C17_3 C12_3 1_555 1_555
Cd6 O9_3 1_555 1_555
O15_3 Cd6 1_555 1_555
H12_3 O15_3 1_555 1_555
O28_2 Cd6 1_555 1_555
C4_3 C5_3 1_555 1_555
C9_3 C10_3 1_555 1_555
C11_3 O10_3 1_555 1_555
C13_3 O8_3 1_555 1_555
C13_3 O11_3 1_555 1_555
C14_3 C15_3 1_555 1_555
O7_3 Cd9 1_555 1_555
H3_3 O7_3 1_555 1_555
O32_2 C19_4 1_555 1_555
O18_2 C34_4 1_555 1_555
C19_4 C25_4 1_555 1_555
C26_4 C25_4 1_555 1_555
H17_4 C26_4 1_555 1_555
C30_4 C26_4 1_555 1_555
C33_4 C30_4 1_555 1_555
H20_4 C33_4 1_555 1_555
O24_2 C34_4 1_555 1_555
C34_4 C30_4 1_555 1_555
Cd8_2 O18_2 1_555 1_555
O24_2 Cd8_2 1_555 1_555
Cd11_2 O19_4 1_555 1_555
O19_4 H13_4 1_555 1_555
H14_2 O19_4 1_555 1_555
O23_2 Cd11_2 1_555 1_555
Cd7_2 O1_4 1_555 1_555
O1_4 H1_4 1_555 1_555
H2_4 O1_4 1_555 1_555
O7_4 Cd11 1_555 1_555
H3_4 O7_4 1_555 1_555
H4_4 O7_4 1_555 1_555
C2_4 H5_4 1_555 1_555
C3_4 C6_4 1_555 1_555
C4_4 H6_4 1_555 1_555
C5_4 C2_4 1_555 1_555
C6_4 C2_4 1_555 1_555
C9_4 C6_4 1_555 1_555
H8_4 C9_4 1_555 1_555
C10_4 C4_4 1_555 1_555
C11_4 C10_4 1_555 1_555
C13_4 C5_4 1_555 1_555
C14_4 C3_4 1_555 1_555
H9_4 C14_4 1_555 1_555
O8_4 Cd11 1_555 1_555
O9_4 C11_4 1_555 1_555
O10_4 Cd7_2 1_555 1_555
O11_4 Cd11 1_555 1_555
Cd8_2 O9_4 1_555 1_555
O15_4 Cd8_2 1_555 1_555
H11_4 O15_4 1_555 1_555
H12_4 O15_4 1_555 1_555
C20_4 H15_4 1_555 1_555
C21_4 C24_4 1_555 1_555
C22_4 H16_4 1_555 1_555
C23_4 C20_4 1_555 1_555
C24_4 C20_4 1_555 1_555
C27_4 C24_4 1_555 1_555
H18_4 C27_4 1_555 1_555
C28_4 C22_4 1_555 1_555
C29_4 C28_4 1_555 1_555
C31_4 C23_4 1_555 1_555
C32_4 C21_4 1_555 1_555
H19_4 C32_4 1_555 1_555
O21_4 Cd7_2 1_555 1_555
O22_4 Cd8_2 1_555 1_555
O33_2 Cd7_2 1_555 1_555
O35_2 Cd7_2 1_555 1_555
C4_4 C5_4 1_555 1_555
C9_4 C10_4 1_555 1_555
C11_4 O10_4 1_555 1_555
C13_4 O8_4 1_555 1_555
C13_4 O11_4 1_555 1_555
C22_4 C23_4 1_555 1_555
C27_4 C28_4 1_555 1_555
C29_4 O21_4 1_555 1_555
C29_4 O22_4 1_555 1_555
C31_4 O20_4 1_555 1_555
O31_2 C1_4 1_555 1_555
O33_2 C17_4 1_555 1_555
C1_4 C7_4 1_555 1_555
C8_4 C7_4 1_555 1_555
H7_4 C8_4 1_555 1_555
C12_4 C8_4 1_555 1_555
C15_4 C12_4 1_555 1_555
H10_4 C15_4 1_555 1_555
O35_2 C17_4 1_555 1_555
C17_4 C12_4 1_555 1_555

#END
