
###############################################################################
#
# This file contains modified crystal structure data generated from the
# MOF subset of the Cambridge Structural Database (CSD) v543 
# hosted by the Cambridge Crystallographic Data Centre (CCDC).
#
# This work is licensed under the Creative Commons
# Attribution-NonCommercial-ShareAlike 4.0 International License.
# To view a copy of this license, visit
# http://creativecommons.org/licenses/by-nc-sa/4.0/
# or send a letter to
# Creative Commons, PO Box 1866, Mountain View, CA 94042, USA.
#
# CIF created using the CSD Python API on 29 September 2022
# The structure has been converted into the P1 space group
# The structure has a 3D framework
# The original CSD entry JUGLAA is in the monoclinic crystal system
# The framework has been calculated to contain at least 10.0% void space
# The void calculation uses a probe of radius 1.32A, grid spacing 0.4
#
###############################################################################

data_JUGLAA
_chemical_formula_moiety         '(C220 H192 B8 Cd4 F16 N24 O30)n'
_symmetry_cell_setting           triclinic
_symmetry_space_group_name_H-M   'P 1'
_symmetry_Int_Tables_number      1
_space_group_name_Hall           'P 1'
loop_
_symmetry_equiv_pos_site_id
_symmetry_equiv_pos_as_xyz
1 x,y,z
_cell_length_a                   14.15220(10)
_cell_length_b                   21.2273(2)
_cell_length_c                   22.7075(3)
_cell_angle_alpha                90
_cell_angle_beta                 121.7230(10)
_cell_angle_gamma                90
_cell_volume                     5802.48
loop_
_atom_site_label
_atom_site_type_symbol
_atom_site_fract_x
_atom_site_fract_y
_atom_site_fract_z
O2 O 0.0685(4) 0.3244(2) 0.0300(2)
H6 H 0.6190 0.4556 0.0189
H36 H 0.1285 0.2127 0.0207
Cd4 Cd 0.10008(3) 0.408739(16) 0.098029(17)
Cd5 Cd 0.20788(3) 0.477665(16) 0.010567(18)
Cd1 Cd 0.10008(3) 0.091261(16) 0.598029(17)
F2 F 0.1120(6) 0.1198(2) 0.8837(3)
O1 O 0.0622(4) 0.40877(18) 0.9700(2)
O6 O 0.1693(4) 0.01558(19) 0.6824(2)
N1 N 0.1788(4) 0.1608(2) 0.6905(3)
N2 N 0.6215(5) 0.4714(3) 0.9356(3)
N3 N 0.0069(6) 0.2168(2) 0.8595(3)
C7 C 0.5765(9) 0.4529(5) 0.9709(6)
C8 C 0.4674(9) 0.4291(6) 0.9397(6)
H7 H 0.4386 0.4186 0.9670
C9 C 0.4044(7) 0.4214(4) 0.8701(6)
C10 C 0.4518(7) 0.4382(5) 0.8332(5)
H8 H 0.4135 0.4318 0.7856
C11 C 0.5572(6) 0.4647(4) 0.8670(4)
H9 H 0.5848 0.4788 0.8401
C12 C 0.2874(7) 0.3912(5) 0.8354(5)
H10 H 0.2359 0.4215 0.8350
H11 H 0.2623 0.3809 0.7877
C13 C 0.2859(9) 0.3335(5) 0.8713(5)
H12 H 0.2100 0.3185 0.8495
H13 H 0.3113 0.3439 0.9190
C14 C 0.3578(9) 0.2812(5) 0.8704(5)
H14 H 0.3842 0.2553 0.9114
H15 H 0.4221 0.2996 0.8724
C15 C 0.2970(7) 0.2398(4) 0.8067(4)
C16 C 0.2818(7) 0.2563(4) 0.7428(4)
H16 H 0.3121 0.2934 0.7381
C17 C 0.2204(6) 0.2166(3) 0.6860(4)
H17 H 0.2077 0.2291 0.6431
C18 C 0.1973(6) 0.1447(3) 0.7527(3)
H18 H 0.1718 0.1057 0.7572
C19 C 0.2522(6) 0.1829(3) 0.8107(4)
H19 H 0.2590 0.1705 0.8520
H21 H 0.0435 0.0138 0.7847
H29 H 0.0461 0.3924 0.6304
C33 C 0.0107(10) 0.3271(5) 0.6824(5)
H30 H 0.0770 0.3049 0.7009
C35 C 0.0050(5) 0.3233(3) 0.8505(3)
H31 H 0.0329 0.3894 0.7972
H32 H 0.0374 0.4168 0.8627
C37 C 0.0321(5) 0.3067(3) 0.9177(3)
C38 C 0.0312(7) 0.2401(3) 0.9213(3)
C39 C 0.0579(10) 0.2003(4) 0.9817(4)
H34 H 0.0612 0.1569 0.9709
H35 H 0.0014 0.2054 0.9926
C40 C 0.0559(5) 0.3497(3) 0.9756(3)
H38 H 0.3611 0.0132 0.7914
B1 B 0.0033(10) 0.1469(4) 0.8411(4)
Cd6 Cd 0.20788(3) 0.022335(16) 0.510567(18)
Cd8 Cd 0.79212(3) 0.522335(16) 0.989433(18)
O10 O 0.0622(4) 0.09123(18) 0.4700(2)
O11 O 0.0685(4) 0.1756(2) 0.5300(2)
O13 O 0.2855(3) 0.09225(17) 0.6096(2)
C1 C 0.3481(8) 0.7309(4) 0.6634(4)
C2 C 0.2595(8) 0.6894(4) 0.6408(5)
H1 H 0.2263 0.6842 0.6666
C3 C 0.2205(8) 0.6558(4) 0.5798(6)
H2 H 0.1612 0.6281 0.5647
C4 C 0.2701(11) 0.6636(5) 0.5412(4)
H3 H 0.2440 0.6411 0.5004
C5 C 0.3587(11) 0.7050(6) 0.5638(6)
H4 H 0.3919 0.7102 0.5380
C6 C 0.3977(7) 0.7386(4) 0.6248(6)
H5 H 0.4569 0.7664 0.6399
F3 F 0.5725(8) 0.8848(3) 0.8805(5)
F4 F 0.4501(11) 0.8475(5) 0.8974(4)
O5 O 0.1572(3) 0.98364(17) 0.58611(19)
O7 O 0.7145(3) 0.59225(17) 0.8904(2)
O8 O 0.6873(4) 0.61800(19) 0.9746(2)
N5 N 0.3960(5) 0.8655(3) 0.7782(3)
N6 N 0.5228(5) 0.7776(3) 0.8460(3)
C41 C 0.1935(5) 0.9764(2) 0.6500(3)
C42 C 0.2654(5) 0.9227(3) 0.6886(3)
C43 C 0.3403(6) 0.9216(3) 0.7613(3)
C44 C 0.3606(9) 0.9734(3) 0.8114(4)
H37 H 0.3028 0.9732 0.8215
H39 H 0.4311 0.9669 0.8533
C45 C 0.2782(5) 0.8658(3) 0.6619(3)
C46 C 0.2201(6) 0.8468(3) 0.5879(3)
H40 H 0.2737 0.8397 0.5749
H41 H 0.1701 0.8797 0.5597
H42 H 0.1789 0.8088 0.5814
C47 C 0.3576(5) 0.8304(3) 0.7177(3)
C48 C 0.4854(5) 0.7439(3) 0.7851(3)
C49 C 0.5976(5) 0.7414(3) 0.9007(3)
C50 C 0.6569(7) 0.7612(4) 0.9749(3)
H43 H 0.6927 0.8010 0.9801
H45 H 0.6045 0.7652 0.9894
C51 C 0.6072(5) 0.6835(3) 0.8747(3)
C52 C 0.6742(4) 0.6284(2) 0.9161(3)
C53 C 0.5377(5) 0.6857(3) 0.8019(3)
C54 C 0.5215(6) 0.6344(3) 0.7522(3)
H46 H 0.4446 0.6325 0.7159
H47 H 0.5435 0.5948 0.7762
H48 H 0.5660 0.6430 0.7326
C55 C 0.3991(6) 0.7682(3) 0.7174(4)
B2 B 0.4852(8) 0.8428(4) 0.8481(4)
Cd3 Cd 0.89992(3) 0.591261(16) 0.901971(17)
F1 F 0.9340(6) 0.1125(2) 0.8542(3)
O3 O 0.9206(3) 0.06436(18) 0.56257(19)
O4 O 0.8207(4) 0.0129(2) 0.5956(2)
N4 N 0.9682(5) 0.1417(2) 0.7651(3)
C20 C 0.8859(5) 0.0567(3) 0.6037(3)
C21 C 0.9190(5) 0.1028(3) 0.6606(3)
C22 C 0.9493(7) 0.0877(3) 0.7283(3)
C23 C 0.9658(10) 0.0239(3) 0.7593(4)
H20 H 0.9384 0.0233 0.7901
C24 C 0.9170(5) 0.1686(3) 0.6550(3)
C25 C 0.9482(5) 0.1924(3) 0.7208(3)
C26 C 0.8845(6) 0.2052(3) 0.5906(3)
H23 H 0.9498 0.2226 0.5940
H24 H 0.8351 0.2387 0.5854
H25 H 0.8479 0.1777 0.5512
C27 C 0.9577(5) 0.2553(3) 0.7452(3)
C28 C 0.9332(8) 0.3074(3) 0.6985(4)
C29 C 0.8325(10) 0.3378(5) 0.6698(5)
H26 H 0.7804 0.3246 0.6803
C30 C 0.8080(13) 0.3897(7) 0.6238(7)
H27 H 0.7393 0.4097 0.6026
C31 C 0.8862(13) 0.4085(7) 0.6121(7)
H28 H 0.8711 0.4435 0.5839
C32 C 0.9933(12) 0.3784(6) 0.6401(6)
C34 C 0.9874(5) 0.2666(2) 0.8142(3)
C36 C 0.9989(7) 0.3884(3) 0.8243(4)
H33 H 0.9226 0.4010 0.7961
O12 O 0.8428(3) 0.01636(17) 0.41389(19)
N7 N 0.6215(5) 0.0286(3) 0.4356(3)
Cd2 Cd 0.79212(3) 0.977665(16) 0.489433(18)
H22 H 0.9262 0.9935 0.7232
O9 O 0.9378(4) 0.90877(18) 0.5300(2)
O14 O 0.7145(3) 0.90775(17) 0.3904(2)
O15 O 0.6873(4) 0.88200(19) 0.4746(2)
O12_2 O 0.1572(3) 0.51636(17) 0.08611(19)
O14_2 O 0.2855(3) 0.40775(17) 0.1096(2)
O15_2 O 0.3127(4) 0.38200(19) 0.0254(2)
N7_2 N 0.3785(5) 0.5286(3) 0.0644(3)
F1_2 F 0.0660(6) 0.6125(2) 0.6458(3)
O3_2 O 0.0794(3) 0.56436(18) 0.93743(19)
O4_2 O 0.1793(4) 0.5129(2) 0.9044(2)
N4_2 N 0.0318(5) 0.6417(2) 0.7349(3)
C20_2 C 0.1141(5) 0.5567(3) 0.8963(3)
C21_2 C 0.0810(5) 0.6028(3) 0.8394(3)
C22_2 C 0.0507(7) 0.5877(3) 0.7717(3)
C23_2 C 0.0342(10) 0.5239(3) 0.7407(4)
H20_2 H 0.0616 0.5233 0.7099
H22_2 H 0.0738 0.4935 0.7768
C24_2 C 0.0830(5) 0.6686(3) 0.8450(3)
C25_2 C 0.0518(5) 0.6924(3) 0.7792(3)
C26_2 C 0.1155(6) 0.7052(3) 0.9094(3)
H23_2 H 0.0502 0.7226 0.9060
H24_2 H 0.1649 0.7387 0.9146
H25_2 H 0.1521 0.6777 0.9488
C27_2 C 0.0423(5) 0.7553(3) 0.7548(3)
C28_2 C 0.0668(8) 0.8074(3) 0.8015(4)
C29_2 C 0.1675(10) 0.8378(5) 0.8302(5)
H26_2 H 0.2196 0.8246 0.8197
C30_2 C 0.1920(13) 0.8897(7) 0.8762(7)
H27_2 H 0.2607 0.9097 0.8974
C31_2 C 0.1138(13) 0.9085(7) 0.8879(7)
H28_2 H 0.1289 0.9435 0.9161
C32_2 C 0.0067(12) 0.8784(6) 0.8599(6)
C34_2 C 0.0126(5) 0.7666(2) 0.6858(3)
C36_2 C 0.0011(7) 0.8884(3) 0.6757(4)
H33_2 H 0.0774 0.9010 0.7039
O10_2 O 0.9378(4) 0.59123(18) 0.0300(2)
C1_2 C 0.6519(8) 0.2309(4) 0.8366(4)
C2_2 C 0.7405(8) 0.1894(4) 0.8592(5)
H1_2 H 0.7737 0.1842 0.8334
C3_2 C 0.7795(8) 0.1558(4) 0.9202(6)
H2_2 H 0.8388 0.1281 0.9353
C4_2 C 0.7299(11) 0.1636(5) 0.9588(4)
H3_2 H 0.7560 0.1411 0.9996
C5_2 C 0.6413(11) 0.2050(6) 0.9362(6)
H4_2 H 0.6081 0.2102 0.9620
C6_2 C 0.6023(7) 0.2386(4) 0.8752(6)
H5_2 H 0.5431 0.2664 0.8601
F2_2 F 0.8880(6) 0.6198(2) 0.6163(3)
F3_2 F 0.4275(8) 0.3848(3) 0.6195(5)
F4_2 F 0.5499(11) 0.3475(5) 0.6026(4)
O2_2 O 0.9315(4) 0.8244(2) 0.4700(2)
O5_2 O 0.8428(3) 0.48364(17) 0.91389(19)
O6_2 O 0.8307(4) 0.51558(19) 0.8176(2)
O8_2 O 0.3127(4) 0.11800(19) 0.5254(2)
N1_2 N 0.8212(4) 0.6608(2) 0.8095(3)
N2_2 N 0.3785(5) 0.9714(3) 0.5644(3)
N3_2 N 0.9931(6) 0.7168(2) 0.6405(3)
N5_2 N 0.6040(5) 0.3655(3) 0.7218(3)
N6_2 N 0.4772(5) 0.2776(3) 0.6540(3)
C7_2 C 0.4235(9) 0.9529(5) 0.5291(6)
H6_2 H 0.3810 0.9556 0.4811
C8_2 C 0.5326(9) 0.9291(6) 0.5603(6)
H7_2 H 0.5614 0.9186 0.5330
C9_2 C 0.5956(7) 0.9214(4) 0.6299(6)
C10_2 C 0.5482(7) 0.9382(5) 0.6668(5)
H8_2 H 0.5865 0.9318 0.7144
C11_2 C 0.4428(6) 0.9647(4) 0.6330(4)
H9_2 H 0.4152 0.9788 0.6599
C12_2 C 0.7126(7) 0.8912(5) 0.6646(5)
H10_2 H 0.7641 0.9215 0.6650
H11_2 H 0.7377 0.8809 0.7123
C13_2 C 0.7141(9) 0.8335(5) 0.6287(5)
H12_2 H 0.7900 0.8185 0.6505
H13_2 H 0.6887 0.8439 0.5810
C14_2 C 0.6422(9) 0.7812(5) 0.6296(5)
H14_2 H 0.6158 0.7553 0.5886
H15_2 H 0.5779 0.7996 0.6276
C15_2 C 0.7030(7) 0.7398(4) 0.6933(4)
C16_2 C 0.7182(7) 0.7563(4) 0.7572(4)
H16_2 H 0.6879 0.7934 0.7619
C17_2 C 0.7796(6) 0.7166(3) 0.8140(4)
H17_2 H 0.7923 0.7291 0.8569
C18_2 C 0.8027(6) 0.6447(3) 0.7473(3)
H18_2 H 0.8282 0.6057 0.7428
C19_2 C 0.7478(6) 0.6829(3) 0.6893(4)
H19_2 H 0.7410 0.6705 0.6480
H21_2 H 0.9565 0.5138 0.7153
H29_2 H 0.9539 0.8924 0.8696
C33_2 C 0.9893(10) 0.8271(5) 0.8176(5)
H30_2 H 0.9230 0.8049 0.7991
C35_2 C 0.9950(5) 0.8233(3) 0.6495(3)
H31_2 H 0.9671 0.8894 0.7028
H32_2 H 0.9626 0.9168 0.6373
C37_2 C 0.9679(5) 0.8067(3) 0.5823(3)
C38_2 C 0.9688(7) 0.7401(3) 0.5787(3)
C39_2 C 0.9421(10) 0.7003(4) 0.5183(4)
H34_2 H 0.9388 0.6569 0.5291
H35_2 H 0.9986 0.7054 0.5074
H36_2 H 0.8715 0.7127 0.4793
C40_2 C 0.9441(5) 0.8497(3) 0.5244(3)
C41_2 C 0.8065(5) 0.4764(2) 0.8500(3)
C42_2 C 0.7346(5) 0.4227(3) 0.8114(3)
C43_2 C 0.6597(6) 0.4216(3) 0.7387(3)
C44_2 C 0.6394(9) 0.4734(3) 0.6886(4)
H37_2 H 0.6972 0.4732 0.6785
H38_2 H 0.6389 0.5132 0.7086
H39_2 H 0.5689 0.4669 0.6467
C45_2 C 0.7218(5) 0.3658(3) 0.8381(3)
C46_2 C 0.7799(6) 0.3468(3) 0.9121(3)
H40_2 H 0.7263 0.3397 0.9251
H41_2 H 0.8299 0.3797 0.9403
H42_2 H 0.8211 0.3088 0.9186
C47_2 C 0.6424(5) 0.3304(3) 0.7823(3)
C48_2 C 0.5146(5) 0.2439(3) 0.7149(3)
C49_2 C 0.4024(5) 0.2414(3) 0.5993(3)
C50_2 C 0.3431(7) 0.2612(4) 0.5251(3)
H43_2 H 0.3073 0.3010 0.5199
H44 H 0.2883 0.2301 0.4970
H45_2 H 0.3955 0.2652 0.5106
C51_2 C 0.3928(5) 0.1835(3) 0.6253(3)
C52_2 C 0.3258(4) 0.1284(2) 0.5839(3)
C53_2 C 0.4623(5) 0.1857(3) 0.6981(3)
C54_2 C 0.4785(6) 0.1344(3) 0.7478(3)
H46_2 H 0.5554 0.1325 0.7841
H47_2 H 0.4565 0.0948 0.7238
H48_2 H 0.4340 0.1430 0.7674
C55_2 C 0.6009(6) 0.2682(3) 0.7826(4)
B1_2 B 0.9967(10) 0.6469(4) 0.6589(4)
B2_2 B 0.5148(8) 0.3428(4) 0.6519(4)
Cd4_2 Cd 0.89992(3) 0.908739(16) 0.401971(17)
O11_2 O 0.9315(4) 0.6756(2) 0.9700(2)
H22_3 H 0.0738 0.0065 0.2768
F1_3 F 0.0660(6) 0.8875(2) 0.1458(3)
O3_3 O 0.0794(3) 0.93564(18) 0.43743(19)
O4_3 O 0.1793(4) 0.9871(2) 0.4044(2)
N4_3 N 0.0318(5) 0.8583(2) 0.2349(3)
C20_3 C 0.1141(5) 0.9433(3) 0.3963(3)
C21_3 C 0.0810(5) 0.8972(3) 0.3394(3)
C22_3 C 0.0507(7) 0.9123(3) 0.2717(3)
C23_3 C 0.0342(10) 0.9761(3) 0.2407(4)
H20_3 H 0.0616 0.9767 0.2099
C24_3 C 0.0830(5) 0.8314(3) 0.3450(3)
C25_3 C 0.0518(5) 0.8076(3) 0.2792(3)
C26_3 C 0.1155(6) 0.7948(3) 0.4094(3)
H23_3 H 0.0502 0.7774 0.4060
H24_3 H 0.1649 0.7613 0.4146
H25_3 H 0.1521 0.8223 0.4488
C27_3 C 0.0423(5) 0.7447(3) 0.2548(3)
C28_3 C 0.0668(8) 0.6926(3) 0.3015(4)
C29_3 C 0.1675(10) 0.6622(5) 0.3302(5)
H26_3 H 0.2196 0.6754 0.3197
C30_3 C 0.1920(13) 0.6103(7) 0.3762(7)
H27_3 H 0.2607 0.5903 0.3974
C31_3 C 0.1138(13) 0.5915(7) 0.3879(7)
H28_3 H 0.1289 0.5565 0.4161
C32_3 C 0.0067(12) 0.6216(6) 0.3599(6)
C34_3 C 0.0126(5) 0.7334(2) 0.1858(3)
C36_3 C 0.0011(7) 0.6116(3) 0.1757(4)
H33_3 H 0.0774 0.5990 0.2039
C1_3 C 0.6519(8) 0.2691(4) 0.3366(4)
C2_3 C 0.7405(8) 0.3106(4) 0.3592(5)
H1_3 H 0.7737 0.3158 0.3334
C3_3 C 0.7795(8) 0.3442(4) 0.4202(6)
H2_3 H 0.8388 0.3719 0.4353
C4_3 C 0.7299(11) 0.3364(5) 0.4588(4)
H3_3 H 0.7560 0.3589 0.4996
C5_3 C 0.6413(11) 0.2950(6) 0.4362(6)
H4_3 H 0.6081 0.2898 0.4620
C6_3 C 0.6023(7) 0.2614(4) 0.3752(6)
H5_3 H 0.5431 0.2336 0.3601
F3_3 F 0.4275(8) 0.1152(3) 0.1195(5)
F4_3 F 0.5499(11) 0.1525(5) 0.1026(4)
N5_3 N 0.6040(5) 0.1345(3) 0.2218(3)
N6_3 N 0.4772(5) 0.2224(3) 0.1540(3)
C41_3 C 0.8065(5) 0.0236(2) 0.3500(3)
C42_3 C 0.7346(5) 0.0773(3) 0.3114(3)
C43_3 C 0.6597(6) 0.0784(3) 0.2387(3)
C44_3 C 0.6394(9) 0.0266(3) 0.1886(4)
H37_3 H 0.6972 0.0268 0.1785
H39_3 H 0.5689 0.0331 0.1467
C45_3 C 0.7218(5) 0.1342(3) 0.3381(3)
C46_3 C 0.7799(6) 0.1532(3) 0.4121(3)
H40_3 H 0.7263 0.1603 0.4251
H41_3 H 0.8299 0.1203 0.4403
H42_3 H 0.8211 0.1912 0.4186
C47_3 C 0.6424(5) 0.1696(3) 0.2823(3)
C48_3 C 0.5146(5) 0.2561(3) 0.2149(3)
C49_3 C 0.4024(5) 0.2586(3) 0.0993(3)
C50_3 C 0.3431(7) 0.2388(4) 0.0251(3)
H43_3 H 0.3073 0.1990 0.0199
H45_3 H 0.3955 0.2348 0.0106
C51_3 C 0.3928(5) 0.3165(3) 0.1253(3)
C52_3 C 0.3258(4) 0.3716(2) 0.0839(3)
C53_3 C 0.4623(5) 0.3143(3) 0.1981(3)
C54_3 C 0.4785(6) 0.3656(3) 0.2478(3)
H46_3 H 0.5554 0.3675 0.2841
H47_3 H 0.4565 0.4052 0.2238
H48_3 H 0.4340 0.3570 0.2674
C55_3 C 0.6009(6) 0.2318(3) 0.2826(4)
B2_3 B 0.5148(8) 0.1572(4) 0.1519(4)
F2_3 F 0.8880(6) 0.8802(2) 0.1163(3)
O6_3 O 0.8307(4) 0.98442(19) 0.3176(2)
N1_3 N 0.8212(4) 0.8392(2) 0.3095(3)
N3_3 N 0.9931(6) 0.7832(2) 0.1405(3)
C7_3 C 0.4235(9) 0.5471(5) 0.0291(6)
C8_3 C 0.5326(9) 0.5709(6) 0.0603(6)
H7_3 H 0.5614 0.5814 0.0330
C9_3 C 0.5956(7) 0.5786(4) 0.1299(6)
C10_3 C 0.5482(7) 0.5618(5) 0.1668(5)
H8_3 H 0.5865 0.5682 0.2144
C11_3 C 0.4428(6) 0.5353(4) 0.1330(4)
H9_3 H 0.4152 0.5212 0.1599
C12_3 C 0.7126(7) 0.6088(5) 0.1646(5)
H10_3 H 0.7641 0.5785 0.1650
H11_3 H 0.7377 0.6191 0.2123
C13_3 C 0.7141(9) 0.6665(5) 0.1287(5)
H12_3 H 0.7900 0.6815 0.1505
H13_3 H 0.6887 0.6561 0.0810
C14_3 C 0.6422(9) 0.7188(5) 0.1296(5)
H14_3 H 0.6158 0.7447 0.0886
H15_3 H 0.5779 0.7004 0.1276
C15_3 C 0.7030(7) 0.7602(4) 0.1933(4)
C16_3 C 0.7182(7) 0.7437(4) 0.2572(4)
H16_3 H 0.6879 0.7066 0.2619
C17_3 C 0.7796(6) 0.7834(3) 0.3140(4)
H17_3 H 0.7923 0.7709 0.3569
C18_3 C 0.8027(6) 0.8553(3) 0.2473(3)
H18_3 H 0.8282 0.8943 0.2428
C19_3 C 0.7478(6) 0.8171(3) 0.1893(4)
H19_3 H 0.7410 0.8295 0.1480
H21_3 H 0.9565 0.9862 0.2153
H29_3 H 0.9539 0.6076 0.3696
C33_3 C 0.9893(10) 0.6729(5) 0.3176(5)
H30_3 H 0.9230 0.6951 0.2991
C35_3 C 0.9950(5) 0.6767(3) 0.1495(3)
H31_3 H 0.9671 0.6106 0.2028
H32_3 H 0.9626 0.5832 0.1373
C37_3 C 0.9679(5) 0.6933(3) 0.0823(3)
C38_3 C 0.9688(7) 0.7599(3) 0.0787(3)
C39_3 C 0.9421(10) 0.7997(4) 0.0183(4)
H34_3 H 0.9388 0.8431 0.0291
H35_3 H 0.9986 0.7946 0.0074
C40_3 C 0.9441(5) 0.6503(3) 0.0244(3)
H38_3 H 0.6389 0.9868 0.2086
B1_3 B 0.9967(10) 0.8531(4) 0.1589(4)
H6_3 H 0.3810 0.5444 0.9811
H36_3 H 0.8715 0.7873 0.9793
C1_4 C 0.3481(8) 0.7691(4) 0.1634(4)
C2_4 C 0.2595(8) 0.8106(4) 0.1408(5)
H1_4 H 0.2263 0.8158 0.1666
C3_4 C 0.2205(8) 0.8442(4) 0.0798(6)
H2_4 H 0.1612 0.8719 0.0647
C4_4 C 0.2701(11) 0.8364(5) 0.0412(4)
H3_4 H 0.2440 0.8589 0.0004
C5_4 C 0.3587(11) 0.7950(6) 0.0638(6)
H4_4 H 0.3919 0.7898 0.0380
C6_4 C 0.3977(7) 0.7614(4) 0.1248(6)
H5_4 H 0.4569 0.7336 0.1399
F2_4 F 0.1120(6) 0.3802(2) 0.3837(3)
F3_4 F 0.5725(8) 0.6152(3) 0.3805(5)
F4_4 F 0.4501(11) 0.6525(5) 0.3974(4)
O6_4 O 0.1693(4) 0.48442(19) 0.1824(2)
N1_4 N 0.1788(4) 0.3392(2) 0.1905(3)
N3_4 N 0.0069(6) 0.2832(2) 0.3595(3)
N5_4 N 0.3960(5) 0.6345(3) 0.2782(3)
N6_4 N 0.5228(5) 0.7224(3) 0.3460(3)
C7_4 C 0.5765(9) 0.0471(5) 0.4709(6)
H6_4 H 0.6190 0.0444 0.5189
C8_4 C 0.4674(9) 0.0709(6) 0.4397(6)
H7_4 H 0.4386 0.0814 0.4670
C9_4 C 0.4044(7) 0.0786(4) 0.3701(6)
C10_4 C 0.4518(7) 0.0618(5) 0.3332(5)
H8_4 H 0.4135 0.0682 0.2856
C11_4 C 0.5572(6) 0.0353(4) 0.3670(4)
H9_4 H 0.5848 0.0212 0.3401
C12_4 C 0.2874(7) 0.1088(5) 0.3354(5)
H10_4 H 0.2359 0.0785 0.3350
H11_4 H 0.2623 0.1191 0.2877
C13_4 C 0.2859(9) 0.1665(5) 0.3713(5)
H12_4 H 0.2100 0.1815 0.3495
H13_4 H 0.3113 0.1561 0.4190
C14_4 C 0.3578(9) 0.2188(5) 0.3704(5)
H14_4 H 0.3842 0.2447 0.4114
H15_4 H 0.4221 0.2004 0.3724
C15_4 C 0.2970(7) 0.2602(4) 0.3067(4)
C16_4 C 0.2818(7) 0.2437(4) 0.2428(4)
H16_4 H 0.3121 0.2066 0.2381
C17_4 C 0.2204(6) 0.2834(3) 0.1860(4)
H17_4 H 0.2077 0.2709 0.1431
C18_4 C 0.1973(6) 0.3553(3) 0.2527(3)
H18_4 H 0.1718 0.3943 0.2572
C19_4 C 0.2522(6) 0.3171(3) 0.3107(4)
H19_4 H 0.2590 0.3295 0.3520
H21_4 H 0.0435 0.4862 0.2847
H29_4 H 0.0461 0.1076 0.1304
C33_4 C 0.0107(10) 0.1729(5) 0.1824(5)
H30_4 H 0.0770 0.1951 0.2009
C35_4 C 0.0050(5) 0.1767(3) 0.3505(3)
H31_4 H 0.0329 0.1106 0.2972
H32_4 H 0.0374 0.0832 0.3627
C37_4 C 0.0321(5) 0.1933(3) 0.4177(3)
C38_4 C 0.0312(7) 0.2599(3) 0.4213(3)
C39_4 C 0.0579(10) 0.2997(4) 0.4817(4)
H34_4 H 0.0612 0.3431 0.4709
H35_4 H 0.0014 0.2946 0.4926
H36_4 H 0.1285 0.2873 0.5207
C40_4 C 0.0559(5) 0.1503(3) 0.4756(3)
C41_4 C 0.1935(5) 0.5236(2) 0.1500(3)
C42_4 C 0.2654(5) 0.5773(3) 0.1886(3)
C43_4 C 0.3403(6) 0.5784(3) 0.2613(3)
C44_4 C 0.3606(9) 0.5266(3) 0.3114(4)
H37_4 H 0.3028 0.5268 0.3215
H38_4 H 0.3611 0.4868 0.2914
H39_4 H 0.4311 0.5331 0.3533
C45_4 C 0.2782(5) 0.6342(3) 0.1619(3)
C46_4 C 0.2201(6) 0.6532(3) 0.0879(3)
H40_4 H 0.2737 0.6603 0.0749
H41_4 H 0.1701 0.6203 0.0597
H42_4 H 0.1789 0.6912 0.0814
C47_4 C 0.3576(5) 0.6696(3) 0.2177(3)
C48_4 C 0.4854(5) 0.7561(3) 0.2851(3)
C49_4 C 0.5976(5) 0.7586(3) 0.4007(3)
C50_4 C 0.6569(7) 0.7388(4) 0.4749(3)
H43_4 H 0.6927 0.6990 0.4801
H44_2 H 0.7117 0.7699 0.5030
H45_4 H 0.6045 0.7348 0.4894
C51_4 C 0.6072(5) 0.8165(3) 0.3747(3)
C52_4 C 0.6742(4) 0.8716(2) 0.4161(3)
C53_4 C 0.5377(5) 0.8143(3) 0.3019(3)
C54_4 C 0.5215(6) 0.8656(3) 0.2522(3)
H46_4 H 0.4446 0.8675 0.2159
H47_4 H 0.5435 0.9052 0.2762
H48_4 H 0.5660 0.8570 0.2326
C55_4 C 0.3991(6) 0.7318(3) 0.2174(4)
B1_4 B 0.0033(10) 0.3531(4) 0.3411(4)
B2_4 B 0.4852(8) 0.6572(4) 0.3481(4)
F1_4 F 0.9340(6) 0.3875(2) 0.3542(3)
O3_4 O 0.9206(3) 0.43564(18) 0.06257(19)
O4_4 O 0.8207(4) 0.4871(2) 0.0956(2)
N4_4 N 0.9682(5) 0.3583(2) 0.2651(3)
C20_4 C 0.8859(5) 0.4433(3) 0.1037(3)
C21_4 C 0.9190(5) 0.3972(3) 0.1606(3)
C22_4 C 0.9493(7) 0.4123(3) 0.2283(3)
C23_4 C 0.9658(10) 0.4761(3) 0.2593(4)
H20_4 H 0.9384 0.4767 0.2901
H22_4 H 0.9262 0.5065 0.2232
C24_4 C 0.9170(5) 0.3314(3) 0.1550(3)
C25_4 C 0.9482(5) 0.3076(3) 0.2208(3)
C26_4 C 0.8845(6) 0.2948(3) 0.0906(3)
H23_4 H 0.9498 0.2774 0.0940
H24_4 H 0.8351 0.2613 0.0854
H25_4 H 0.8479 0.3223 0.0512
C27_4 C 0.9577(5) 0.2447(3) 0.2452(3)
C28_4 C 0.9332(8) 0.1926(3) 0.1985(4)
C29_4 C 0.8325(10) 0.1622(5) 0.1698(5)
H26_4 H 0.7804 0.1754 0.1803
C30_4 C 0.8080(13) 0.1103(7) 0.1238(7)
H27_4 H 0.7393 0.0903 0.1026
C31_4 C 0.8862(13) 0.0915(7) 0.1121(7)
H28_4 H 0.8711 0.0565 0.0839
C32_4 C 0.9933(12) 0.1216(6) 0.1401(6)
C34_4 C 0.9874(5) 0.2334(2) 0.3142(3)
C36_4 C 0.9989(7) 0.1116(3) 0.3243(4)
H33_4 H 0.9226 0.0990 0.2961
H44_3 H 0.7117 0.7301 0.0030
H44_4 H 0.2883 0.2699 0.9970
loop_
_geom_bond_atom_site_label_1
_geom_bond_atom_site_label_2
_geom_bond_site_symmetry_1
_geom_bond_site_symmetry_2
O2 Cd4 1_555 1_555
F2 B1 1_555 1_555
O1 C40 1_555 1_555
O6 Cd1 1_555 1_555
N1 Cd1 1_555 1_555
N2 C7 1_555 1_555
C8 C7 1_555 1_555
H7 C8 1_555 1_555
C9 C8 1_555 1_555
C10 C9 1_555 1_555
H8 C10 1_555 1_555
C11 N2 1_555 1_555
H9 C11 1_555 1_555
C12 C9 1_555 1_555
H10 C12 1_555 1_555
H11 C12 1_555 1_555
C13 C12 1_555 1_555
H12 C13 1_555 1_555
H13 C13 1_555 1_555
C14 C13 1_555 1_555
H14 C14 1_555 1_555
H15 C14 1_555 1_555
C15 C14 1_555 1_555
C16 C15 1_555 1_555
H16 C16 1_555 1_555
C17 N1 1_555 1_555
H17 C17 1_555 1_555
C18 N1 1_555 1_555
H18 C18 1_555 1_555
C19 C15 1_555 1_555
H19 C19 1_555 1_555
H30 C33 1_555 1_555
C37 C35 1_555 1_555
C38 N3 1_555 1_555
C39 C38 1_555 1_555
H34 C39 1_555 1_555
H35 C39 1_555 1_555
C40 C37 1_555 1_555
B1 N3 1_555 1_555
Cd8 N2 1_555 1_555
O10 Cd1 1_555 1_555
O11 Cd1 1_555 1_555
O13 Cd1 1_555 1_555
C10 C11 1_555 1_555
C16 C17 1_555 1_555
C18 C19 1_555 1_555
C37 C38 1_555 1_555
Cd6 O10 1_555 1_555
Cd6 O13 1_555 1_555
C1 C2 1_555 1_555
C2 H1 1_555 1_555
C3 C2 1_555 1_555
H2 C3 1_555 1_555
C4 C3 1_555 1_555
H3 C4 1_555 1_555
C5 C4 1_555 1_555
H4 C5 1_555 1_555
C6 C1 1_555 1_555
H5 C6 1_555 1_555
F3 B2 1_555 1_555
F4 B2 1_555 1_555
O7 C52 1_555 1_555
O8 C52 1_555 1_555
N5 C43 1_555 1_555
N6 C48 1_555 1_555
C41 O5 1_555 1_555
C42 C41 1_555 1_555
C43 C42 1_555 1_555
C44 C43 1_555 1_555
H37 C44 1_555 1_555
H39 C44 1_555 1_555
C45 C42 1_555 1_555
C46 C45 1_555 1_555
H40 C46 1_555 1_555
H41 C46 1_555 1_555
H42 C46 1_555 1_555
C47 N5 1_555 1_555
C48 C53 1_555 1_555
C49 N6 1_555 1_555
C50 C49 1_555 1_555
H43 C50 1_555 1_555
H45 C50 1_555 1_555
C51 C49 1_555 1_555
C52 C51 1_555 1_555
C53 C51 1_555 1_555
C54 C53 1_555 1_555
H46 C54 1_555 1_555
H47 C54 1_555 1_555
H48 C54 1_555 1_555
C55 C1 1_555 1_555
B2 N5 1_555 1_555
Cd3 O7 1_555 1_555
Cd8 O7 1_555 1_555
C5 C6 1_555 1_555
O8 Cd8 1_555 1_555
N6 B2 1_555 1_555
C45 C47 1_555 1_555
C47 C55 1_555 1_555
C48 C55 1_555 1_555
O3 C20 1_555 1_555
N4 C22 1_555 1_555
C20 O4 1_555 1_555
C21 C20 1_555 1_555
C22 C21 1_555 1_555
C23 C22 1_555 1_555
H20 C23 1_555 1_555
C24 C21 1_555 1_555
C25 N4 1_555 1_555
C26 C24 1_555 1_555
H23 C26 1_555 1_555
H24 C26 1_555 1_555
H25 C26 1_555 1_555
C27 C25 1_555 1_555
C28 C27 1_555 1_555
C29 C28 1_555 1_555
H26 C29 1_555 1_555
C30 C29 1_555 1_555
H27 C30 1_555 1_555
C31 C30 1_555 1_555
H28 C31 1_555 1_555
C32 C31 1_555 1_555
C34 C27 1_555 1_555
H33 C36 1_555 1_555
C24 C25 1_555 1_555
O9 Cd2 1_555 1_555
O14 Cd2 1_555 1_555
O15 Cd2 1_555 1_555
O12_2 Cd5 1_555 1_555
O14_2 Cd5 1_555 1_555
O15_2 Cd5 1_555 1_555
N7_2 Cd5 1_555 1_555
O3_2 C20_2 1_555 1_555
N4_2 C22_2 1_555 1_555
C20_2 O4_2 1_555 1_555
C21_2 C20_2 1_555 1_555
C22_2 C21_2 1_555 1_555
C23_2 C22_2 1_555 1_555
H20_2 C23_2 1_555 1_555
H22_2 C23_2 1_555 1_555
C24_2 C21_2 1_555 1_555
C25_2 N4_2 1_555 1_555
C26_2 C24_2 1_555 1_555
H23_2 C26_2 1_555 1_555
H24_2 C26_2 1_555 1_555
H25_2 C26_2 1_555 1_555
C27_2 C25_2 1_555 1_555
C28_2 C27_2 1_555 1_555
C29_2 C28_2 1_555 1_555
H26_2 C29_2 1_555 1_555
C30_2 C29_2 1_555 1_555
H27_2 C30_2 1_555 1_555
C31_2 C30_2 1_555 1_555
H28_2 C31_2 1_555 1_555
C32_2 C31_2 1_555 1_555
C34_2 C27_2 1_555 1_555
H33_2 C36_2 1_555 1_555
C24_2 C25_2 1_555 1_555
C1_2 C2_2 1_555 1_555
C2_2 H1_2 1_555 1_555
C3_2 C2_2 1_555 1_555
H2_2 C3_2 1_555 1_555
C4_2 C3_2 1_555 1_555
H3_2 C4_2 1_555 1_555
C5_2 C4_2 1_555 1_555
H4_2 C5_2 1_555 1_555
C6_2 C1_2 1_555 1_555
H5_2 C6_2 1_555 1_555
F2_2 B1_2 1_555 1_555
F3_2 B2_2 1_555 1_555
F4_2 B2_2 1_555 1_555
O9 C40_2 1_555 1_555
O2_2 C40_2 1_555 1_555
O5_2 Cd3 1_555 1_555
O6_2 Cd3 1_555 1_555
O13 C52_2 1_555 1_555
O8_2 C52_2 1_555 1_555
N1_2 Cd3 1_555 1_555
N2_2 C7_2 1_555 1_555
N5_2 C43_2 1_555 1_555
N6_2 C48_2 1_555 1_555
C7_2 H6_2 1_555 1_555
C8_2 C7_2 1_555 1_555
H7_2 C8_2 1_555 1_555
C9_2 C8_2 1_555 1_555
C10_2 C9_2 1_555 1_555
H8_2 C10_2 1_555 1_555
C11_2 N2_2 1_555 1_555
H9_2 C11_2 1_555 1_555
C12_2 C9_2 1_555 1_555
H10_2 C12_2 1_555 1_555
H11_2 C12_2 1_555 1_555
C13_2 C12_2 1_555 1_555
H12_2 C13_2 1_555 1_555
H13_2 C13_2 1_555 1_555
C14_2 C13_2 1_555 1_555
H14_2 C14_2 1_555 1_555
H15_2 C14_2 1_555 1_555
C15_2 C14_2 1_555 1_555
C16_2 C15_2 1_555 1_555
H16_2 C16_2 1_555 1_555
C17_2 N1_2 1_555 1_555
H17_2 C17_2 1_555 1_555
C18_2 N1_2 1_555 1_555
H18_2 C18_2 1_555 1_555
C19_2 C15_2 1_555 1_555
H19_2 C19_2 1_555 1_555
H30_2 C33_2 1_555 1_555
C37_2 C35_2 1_555 1_555
C38_2 N3_2 1_555 1_555
C39_2 C38_2 1_555 1_555
H34_2 C39_2 1_555 1_555
H35_2 C39_2 1_555 1_555
H36_2 C39_2 1_555 1_555
C40_2 C37_2 1_555 1_555
C41_2 O5_2 1_555 1_555
C42_2 C41_2 1_555 1_555
C43_2 C42_2 1_555 1_555
C44_2 C43_2 1_555 1_555
H37_2 C44_2 1_555 1_555
H38_2 C44_2 1_555 1_555
H39_2 C44_2 1_555 1_555
C45_2 C42_2 1_555 1_555
C46_2 C45_2 1_555 1_555
H40_2 C46_2 1_555 1_555
H41_2 C46_2 1_555 1_555
H42_2 C46_2 1_555 1_555
C47_2 N5_2 1_555 1_555
C48_2 C53_2 1_555 1_555
C49_2 N6_2 1_555 1_555
C50_2 C49_2 1_555 1_555
H43_2 C50_2 1_555 1_555
H44 C50_2 1_555 1_555
H45_2 C50_2 1_555 1_555
C51_2 C49_2 1_555 1_555
C52_2 C51_2 1_555 1_555
C53_2 C51_2 1_555 1_555
C54_2 C53_2 1_555 1_555
H46_2 C54_2 1_555 1_555
H47_2 C54_2 1_555 1_555
H48_2 C54_2 1_555 1_555
C55_2 C1_2 1_555 1_555
B1_2 N3_2 1_555 1_555
B2_2 N5_2 1_555 1_555
Cd4_2 O9 1_555 1_555
Cd8 O5_2 1_555 1_555
O11_2 Cd3 1_555 1_555
C5_2 C6_2 1_555 1_555
O2_2 Cd4_2 1_555 1_555
O6_2 C41_2 1_555 1_555
O8_2 Cd6 1_555 1_555
N6_2 B2_2 1_555 1_555
C10_2 C11_2 1_555 1_555
C16_2 C17_2 1_555 1_555
C18_2 C19_2 1_555 1_555
C37_2 C38_2 1_555 1_555
C45_2 C47_2 1_555 1_555
C47_2 C55_2 1_555 1_555
C48_2 C55_2 1_555 1_555
O3_3 C20_3 1_555 1_555
N4_3 C22_3 1_555 1_555
C20_3 O4_3 1_555 1_555
C21_3 C20_3 1_555 1_555
C22_3 C21_3 1_555 1_555
C23_3 C22_3 1_555 1_555
H20_3 C23_3 1_555 1_555
C24_3 C21_3 1_555 1_555
C25_3 N4_3 1_555 1_555
C26_3 C24_3 1_555 1_555
H23_3 C26_3 1_555 1_555
H24_3 C26_3 1_555 1_555
H25_3 C26_3 1_555 1_555
C27_3 C25_3 1_555 1_555
C28_3 C27_3 1_555 1_555
C29_3 C28_3 1_555 1_555
H26_3 C29_3 1_555 1_555
C30_3 C29_3 1_555 1_555
H27_3 C30_3 1_555 1_555
C31_3 C30_3 1_555 1_555
H28_3 C31_3 1_555 1_555
C32_3 C31_3 1_555 1_555
C34_3 C27_3 1_555 1_555
H33_3 C36_3 1_555 1_555
C24_3 C25_3 1_555 1_555
C1_3 C2_3 1_555 1_555
C2_3 H1_3 1_555 1_555
C3_3 C2_3 1_555 1_555
H2_3 C3_3 1_555 1_555
C4_3 C3_3 1_555 1_555
H3_3 C4_3 1_555 1_555
C5_3 C4_3 1_555 1_555
H4_3 C5_3 1_555 1_555
C6_3 C1_3 1_555 1_555
H5_3 C6_3 1_555 1_555
F3_3 B2_3 1_555 1_555
F4_3 B2_3 1_555 1_555
O14_2 C52_3 1_555 1_555
O15_2 C52_3 1_555 1_555
N5_3 C43_3 1_555 1_555
N6_3 C48_3 1_555 1_555
C41_3 O12 1_555 1_555
C42_3 C41_3 1_555 1_555
C43_3 C42_3 1_555 1_555
C44_3 C43_3 1_555 1_555
H37_3 C44_3 1_555 1_555
H39_3 C44_3 1_555 1_555
C45_3 C42_3 1_555 1_555
C46_3 C45_3 1_555 1_555
H40_3 C46_3 1_555 1_555
H41_3 C46_3 1_555 1_555
H42_3 C46_3 1_555 1_555
C47_3 N5_3 1_555 1_555
C48_3 C53_3 1_555 1_555
C49_3 N6_3 1_555 1_555
C50_3 C49_3 1_555 1_555
H43_3 C50_3 1_555 1_555
H45_3 C50_3 1_555 1_555
C51_3 C49_3 1_555 1_555
C52_3 C51_3 1_555 1_555
C53_3 C51_3 1_555 1_555
C54_3 C53_3 1_555 1_555
H46_3 C54_3 1_555 1_555
H47_3 C54_3 1_555 1_555
H48_3 C54_3 1_555 1_555
C55_3 C1_3 1_555 1_555
B2_3 N5_3 1_555 1_555
Cd4 O14_2 1_555 1_555
C5_3 C6_3 1_555 1_555
N6_3 B2_3 1_555 1_555
C45_3 C47_3 1_555 1_555
C47_3 C55_3 1_555 1_555
C48_3 C55_3 1_555 1_555
F2_3 B1_3 1_555 1_555
O10_2 C40_3 1_555 1_555
O6_3 Cd4_2 1_555 1_555
N1_3 Cd4_2 1_555 1_555
N7_2 C7_3 1_555 1_555
C8_3 C7_3 1_555 1_555
H7_3 C8_3 1_555 1_555
C9_3 C8_3 1_555 1_555
C10_3 C9_3 1_555 1_555
H8_3 C10_3 1_555 1_555
C11_3 N7_2 1_555 1_555
H9_3 C11_3 1_555 1_555
C12_3 C9_3 1_555 1_555
H10_3 C12_3 1_555 1_555
H11_3 C12_3 1_555 1_555
C13_3 C12_3 1_555 1_555
H12_3 C13_3 1_555 1_555
H13_3 C13_3 1_555 1_555
C14_3 C13_3 1_555 1_555
H14_3 C14_3 1_555 1_555
H15_3 C14_3 1_555 1_555
C15_3 C14_3 1_555 1_555
C16_3 C15_3 1_555 1_555
H16_3 C16_3 1_555 1_555
C17_3 N1_3 1_555 1_555
H17_3 C17_3 1_555 1_555
C18_3 N1_3 1_555 1_555
H18_3 C18_3 1_555 1_555
C19_3 C15_3 1_555 1_555
H19_3 C19_3 1_555 1_555
H30_3 C33_3 1_555 1_555
C37_3 C35_3 1_555 1_555
C38_3 N3_3 1_555 1_555
C39_3 C38_3 1_555 1_555
H34_3 C39_3 1_555 1_555
H35_3 C39_3 1_555 1_555
C40_3 C37_3 1_555 1_555
B1_3 N3_3 1_555 1_555
O14 Cd4_2 1_555 1_555
C10_3 C11_3 1_555 1_555
C16_3 C17_3 1_555 1_555
C18_3 C19_3 1_555 1_555
C37_3 C38_3 1_555 1_555
C1_4 C2_4 1_555 1_555
C2_4 H1_4 1_555 1_555
C3_4 C2_4 1_555 1_555
H2_4 C3_4 1_555 1_555
C4_4 C3_4 1_555 1_555
H3_4 C4_4 1_555 1_555
C5_4 C4_4 1_555 1_555
H4_4 C5_4 1_555 1_555
C6_4 C1_4 1_555 1_555
H5_4 C6_4 1_555 1_555
F2_4 B1_4 1_555 1_555
F3_4 B2_4 1_555 1_555
F4_4 B2_4 1_555 1_555
O10 C40_4 1_555 1_555
O11 C40_4 1_555 1_555
O12_2 Cd4 1_555 1_555
O6_4 Cd4 1_555 1_555
O14 C52_4 1_555 1_555
O15 C52_4 1_555 1_555
N1_4 Cd4 1_555 1_555
N7 C7_4 1_555 1_555
N5_4 C43_4 1_555 1_555
N6_4 C48_4 1_555 1_555
C7_4 H6_4 1_555 1_555
C8_4 C7_4 1_555 1_555
H7_4 C8_4 1_555 1_555
C9_4 C8_4 1_555 1_555
C10_4 C9_4 1_555 1_555
H8_4 C10_4 1_555 1_555
C11_4 N7 1_555 1_555
H9_4 C11_4 1_555 1_555
C12_4 C9_4 1_555 1_555
H10_4 C12_4 1_555 1_555
H11_4 C12_4 1_555 1_555
C13_4 C12_4 1_555 1_555
H12_4 C13_4 1_555 1_555
H13_4 C13_4 1_555 1_555
C14_4 C13_4 1_555 1_555
H14_4 C14_4 1_555 1_555
H15_4 C14_4 1_555 1_555
C15_4 C14_4 1_555 1_555
C16_4 C15_4 1_555 1_555
H16_4 C16_4 1_555 1_555
C17_4 N1_4 1_555 1_555
H17_4 C17_4 1_555 1_555
C18_4 N1_4 1_555 1_555
H18_4 C18_4 1_555 1_555
C19_4 C15_4 1_555 1_555
H19_4 C19_4 1_555 1_555
H30_4 C33_4 1_555 1_555
C37_4 C35_4 1_555 1_555
C38_4 N3_4 1_555 1_555
C39_4 C38_4 1_555 1_555
H34_4 C39_4 1_555 1_555
H35_4 C39_4 1_555 1_555
H36_4 C39_4 1_555 1_555
C40_4 C37_4 1_555 1_555
C41_4 O12_2 1_555 1_555
C42_4 C41_4 1_555 1_555
C43_4 C42_4 1_555 1_555
C44_4 C43_4 1_555 1_555
H37_4 C44_4 1_555 1_555
H38_4 C44_4 1_555 1_555
H39_4 C44_4 1_555 1_555
C45_4 C42_4 1_555 1_555
C46_4 C45_4 1_555 1_555
H40_4 C46_4 1_555 1_555
H41_4 C46_4 1_555 1_555
H42_4 C46_4 1_555 1_555
C47_4 N5_4 1_555 1_555
C48_4 C53_4 1_555 1_555
C49_4 N6_4 1_555 1_555
C50_4 C49_4 1_555 1_555
H43_4 C50_4 1_555 1_555
H44_2 C50_4 1_555 1_555
H45_4 C50_4 1_555 1_555
C51_4 C49_4 1_555 1_555
C52_4 C51_4 1_555 1_555
C53_4 C51_4 1_555 1_555
C54_4 C53_4 1_555 1_555
H46_4 C54_4 1_555 1_555
H47_4 C54_4 1_555 1_555
H48_4 C54_4 1_555 1_555
C55_4 C1_4 1_555 1_555
B1_4 N3_4 1_555 1_555
B2_4 N5_4 1_555 1_555
C5_4 C6_4 1_555 1_555
O6_4 C41_4 1_555 1_555
N6_4 B2_4 1_555 1_555
C10_4 C11_4 1_555 1_555
C16_4 C17_4 1_555 1_555
C18_4 C19_4 1_555 1_555
C37_4 C38_4 1_555 1_555
C45_4 C47_4 1_555 1_555
C47_4 C55_4 1_555 1_555
C48_4 C55_4 1_555 1_555
O3_4 C20_4 1_555 1_555
N4_4 C22_4 1_555 1_555
C20_4 O4_4 1_555 1_555
C21_4 C20_4 1_555 1_555
C22_4 C21_4 1_555 1_555
C23_4 C22_4 1_555 1_555
H20_4 C23_4 1_555 1_555
H22_4 C23_4 1_555 1_555
C24_4 C21_4 1_555 1_555
C25_4 N4_4 1_555 1_555
C26_4 C24_4 1_555 1_555
H23_4 C26_4 1_555 1_555
H24_4 C26_4 1_555 1_555
H25_4 C26_4 1_555 1_555
C27_4 C25_4 1_555 1_555
C28_4 C27_4 1_555 1_555
C29_4 C28_4 1_555 1_555
H26_4 C29_4 1_555 1_555
C30_4 C29_4 1_555 1_555
H27_4 C30_4 1_555 1_555
C31_4 C30_4 1_555 1_555
H28_4 C31_4 1_555 1_555
C32_4 C31_4 1_555 1_555
C34_4 C27_4 1_555 1_555
H33_4 C36_4 1_555 1_555
C24_4 C25_4 1_555 1_555

#END
