
###############################################################################
#
# This file contains modified crystal structure data generated from the
# MOF subset of the Cambridge Structural Database (CSD) v543 
# hosted by the Cambridge Crystallographic Data Centre (CCDC).
#
# This work is licensed under the Creative Commons
# Attribution-NonCommercial-ShareAlike 4.0 International License.
# To view a copy of this license, visit
# http://creativecommons.org/licenses/by-nc-sa/4.0/
# or send a letter to
# Creative Commons, PO Box 1866, Mountain View, CA 94042, USA.
#
# CIF created using the CSD Python API on 29 September 2022
# The structure has been converted into the P1 space group
# The structure has a 3D framework
# The original CSD entry JUGWAM is in the orthorhombic crystal system
# The framework has been calculated to contain at least 10.0% void space
# The void calculation uses a probe of radius 1.32A, grid spacing 0.4
# The framework is charged, counterions have been retained in the structure
#
###############################################################################

data_JUGWAM
_chemical_formula_moiety         '(C64 Lu12 O123 8-)n'
_symmetry_cell_setting           triclinic
_symmetry_space_group_name_H-M   'P 1'
_symmetry_Int_Tables_number      1
_space_group_name_Hall           'P 1'
loop_
_symmetry_equiv_pos_site_id
_symmetry_equiv_pos_as_xyz
1 x,y,z
_cell_length_a                   9.1768(4)
_cell_length_b                   15.5835(6)
_cell_length_c                   32.1614(14)
_cell_angle_alpha                90
_cell_angle_beta                 90
_cell_angle_gamma                90
_cell_volume                     4599.29
loop_
_atom_site_label
_atom_site_type_symbol
_atom_site_fract_x
_atom_site_fract_y
_atom_site_fract_z
Lu1 Lu 0.125000 0.625000 0.43695(2)
O1 O 0.2832(6) 0.7156(4) 0.39754(17)
O2 O 0.2860(6) 0.5455(3) 0.39868(17)
C1 C 0.375000 0.6808(7) 0.375000
C2 C 0.375000 0.5829(7) 0.375000
O5 O 0.4668(6) 0.7156(4) 0.35246(17)
O6 O 0.4640(6) 0.5455(3) 0.35132(17)
O7 O 0.0560(7) 0.3977(4) 0.51497(18)
C4 C 0.0620(8) 0.4678(5) 0.4950(2)
O8 O 0.1538(6) 0.4917(4) 0.46914(16)
Lu2 Lu 0.625000 0.625000 0.31305(2)
O11 O 0.3060(7) 0.6477(4) 0.48503(18)
O12 O 0.0962(6) 0.7583(4) 0.46914(16)
O3 O 0.9440(7) 0.6023(4) 0.48503(18)
O4 O 0.8462(6) 0.5083(4) 0.53086(16)
C3 C 0.9380(8) 0.5322(5) 0.5050(2)
Lu3 Lu 0.875000 0.375000 0.56305(2)
O9 O 0.9668(6) 0.5344(4) 0.39754(17)
O10 O 0.9640(6) 0.7045(3) 0.39868(17)
Lu1_2 Lu 0.625000 0.125000 0.43695(2)
O1_2 O 0.4668(6) 0.0344(4) 0.39754(17)
O2_2 O 0.4640(6) 0.2045(3) 0.39868(17)
O3_2 O 0.8060(7) 0.1477(4) 0.48503(18)
O4_2 O 0.9038(6) 0.2417(4) 0.53086(16)
C1_2 C 0.375000 0.0692(7) 0.375000
C2_2 C 0.375000 0.1671(7) 0.375000
C3_2 C 0.8120(8) 0.2178(5) 0.5050(2)
O5_2 O 0.2832(6) 0.0344(4) 0.35246(17)
O6_2 O 0.2860(6) 0.2045(3) 0.35132(17)
O7_2 O 0.6940(7) 0.3523(4) 0.51497(18)
C4_2 C 0.6880(8) 0.2822(5) 0.4950(2)
O8_2 O 0.5962(6) 0.2583(4) 0.46914(16)
Lu2_2 Lu 0.125000 0.125000 0.31305(2)
O9_2 O 0.7832(6) 0.2156(4) 0.39754(17)
O10_2 O 0.7860(6) 0.0455(3) 0.39868(17)
O11_2 O 0.4440(7) 0.1023(4) 0.48503(18)
O12_2 O 0.6538(6) 0.9917(4) 0.46914(16)
O3_3 O 0.8060(7) 0.6023(4) 0.26497(18)
O4_3 O 0.9038(6) 0.5083(4) 0.21914(16)
C3_3 C 0.8120(8) 0.5322(5) 0.2450(2)
O7_3 O 0.6940(7) 0.3977(4) 0.23503(18)
C4_3 C 0.6880(8) 0.4678(5) 0.2550(2)
O8_3 O 0.5962(6) 0.4917(4) 0.28086(16)
Lu3_2 Lu 0.875000 0.375000 0.18695(2)
O9_3 O 0.7832(6) 0.5344(4) 0.35246(17)
O10_3 O 0.7860(6) 0.7045(3) 0.35132(17)
O11_3 O 0.4440(7) 0.6477(4) 0.26497(18)
O12_3 O 0.6538(6) 0.7583(4) 0.28086(16)
O7_4 O 0.0560(7) 0.3523(4) 0.23503(18)
C4_4 C 0.0620(8) 0.2822(5) 0.2550(2)
O8_4 O 0.1538(6) 0.2583(4) 0.28086(16)
O11_4 O 0.3060(7) 0.1023(4) 0.26497(18)
O12_4 O 0.0962(6) 0.9917(4) 0.28086(16)
O3_4 O 0.9440(7) 0.1477(4) 0.26497(18)
O4_4 O 0.8462(6) 0.2417(4) 0.21914(16)
C3_4 C 0.9380(8) 0.2178(5) 0.2450(2)
O9_4 O 0.9668(6) 0.2156(4) 0.35246(17)
O10_4 O 0.9640(6) 0.0455(3) 0.35132(17)
Lu1_3 Lu 0.125000 0.125000 0.93695(2)
O1_3 O 0.2832(6) 0.2156(4) 0.89754(17)
O2_3 O 0.2860(6) 0.0455(3) 0.89868(17)
C1_3 C 0.375000 0.1808(7) 0.875000
C2_3 C 0.375000 0.0829(7) 0.875000
O5_3 O 0.4668(6) 0.2156(4) 0.85246(17)
O6_3 O 0.4640(6) 0.0455(3) 0.85132(17)
Lu2_3 Lu 0.625000 0.125000 0.81305(2)
O11_5 O 0.3060(7) 0.1477(4) 0.98503(18)
O12_5 O 0.0962(6) 0.2583(4) 0.96914(16)
O7_5 O 0.0560(7) 0.8977(4) 0.01497(18)
O3_5 O 0.9440(7) 0.1023(4) 0.98503(18)
O9_5 O 0.9668(6) 0.0344(4) 0.89754(17)
O10_5 O 0.9640(6) 0.2045(3) 0.89868(17)
Lu3_3 Lu 0.875000 0.875000 0.06305(2)
O4_5 O 0.9038(6) 0.7417(4) 0.03086(16)
C3_5 C 0.8120(8) 0.7178(5) 0.0050(2)
O7_6 O 0.6940(7) 0.8523(4) 0.01497(18)
Lu1_4 Lu 0.625000 0.625000 0.93695(2)
O1_4 O 0.4668(6) 0.5344(4) 0.89754(17)
O2_4 O 0.4640(6) 0.7045(3) 0.89868(17)
O3_6 O 0.8060(7) 0.6477(4) 0.98503(18)
C1_4 C 0.375000 0.5692(7) 0.875000
C2_4 C 0.375000 0.6671(7) 0.875000
O5_4 O 0.2832(6) 0.5344(4) 0.85246(17)
O6_4 O 0.2860(6) 0.7045(3) 0.85132(17)
C4_5 C 0.6880(8) 0.7822(5) 0.9950(2)
O8_5 O 0.5962(6) 0.7583(4) 0.96914(16)
Lu2_4 Lu 0.125000 0.625000 0.81305(2)
O9_6 O 0.7832(6) 0.7156(4) 0.89754(17)
O10_6 O 0.7860(6) 0.5455(3) 0.89868(17)
O11_6 O 0.4440(7) 0.6023(4) 0.98503(18)
O12_6 O 0.6538(6) 0.4917(4) 0.96914(16)
O3_7 O 0.8060(7) 0.1023(4) 0.76497(18)
O4_6 O 0.9038(6) 0.0083(4) 0.71914(16)
C3_6 C 0.8120(8) 0.0322(5) 0.7450(2)
O9_7 O 0.7832(6) 0.0344(4) 0.85246(17)
O10_7 O 0.7860(6) 0.2045(3) 0.85132(17)
O11_7 O 0.4440(7) 0.1477(4) 0.76497(18)
O12_7 O 0.6538(6) 0.2583(4) 0.78086(16)
O7_7 O 0.6940(7) 0.8977(4) 0.73503(18)
C4_6 C 0.6880(8) 0.9678(5) 0.7550(2)
O8_6 O 0.5962(6) 0.9917(4) 0.78086(16)
Lu3_4 Lu 0.875000 0.875000 0.68695(2)
O7_8 O 0.0560(7) 0.8523(4) 0.73503(18)
C4_7 C 0.0620(8) 0.7822(5) 0.7550(2)
O8_7 O 0.1538(6) 0.7583(4) 0.78086(16)
O11_8 O 0.3060(7) 0.6023(4) 0.76497(18)
O12_8 O 0.0962(6) 0.4917(4) 0.78086(16)
O3_8 O 0.9440(7) 0.6477(4) 0.76497(18)
O4_7 O 0.8462(6) 0.7417(4) 0.71914(16)
C3_7 C 0.9380(8) 0.7178(5) 0.7450(2)
O9_8 O 0.9668(6) 0.7156(4) 0.85246(17)
O10_8 O 0.9640(6) 0.5455(3) 0.85132(17)
O4_8 O 0.3462(6) 0.5083(4) 0.03086(16)
C3_8 C 0.4380(8) 0.5322(5) 0.0050(2)
O7_9 O 0.5560(7) 0.3977(4) 0.01497(18)
Lu3_5 Lu 0.375000 0.375000 0.06305(2)
C1_5 C 0.875000 0.6808(7) 0.875000
C2_5 C 0.875000 0.5829(7) 0.875000
C4_8 C 0.5620(8) 0.4678(5) 0.9950(2)
O4_9 O 0.4038(6) 0.2417(4) 0.03086(16)
C3_9 C 0.3120(8) 0.2178(5) 0.0050(2)
O7_10 O 0.1940(7) 0.3523(4) 0.01497(18)
C4_9 C 0.1880(8) 0.2822(5) 0.9950(2)
C1_6 C 0.875000 0.0692(7) 0.875000
C2_6 C 0.875000 0.1671(7) 0.875000
O4_10 O 0.4038(6) 0.5083(4) 0.71914(16)
C3_10 C 0.3120(8) 0.5322(5) 0.7450(2)
O7_11 O 0.1940(7) 0.3977(4) 0.73503(18)
C4_10 C 0.1880(8) 0.4678(5) 0.7550(2)
Lu3_6 Lu 0.375000 0.375000 0.68695(2)
O4_11 O 0.3462(6) 0.2417(4) 0.71914(16)
C3_11 C 0.4380(8) 0.2178(5) 0.7450(2)
O7_12 O 0.5560(7) 0.3523(4) 0.73503(18)
C4_11 C 0.5620(8) 0.2822(5) 0.7550(2)
O4_12 O 0.3462(6) 0.0083(4) 0.53086(16)
C1_7 C 0.875000 0.1808(7) 0.375000
C2_7 C 0.875000 0.0829(7) 0.375000
C3_12 C 0.4380(8) 0.0322(5) 0.5050(2)
O7_13 O 0.5560(7) 0.8977(4) 0.51497(18)
C4_12 C 0.5620(8) 0.9678(5) 0.4950(2)
Lu3_7 Lu 0.375000 0.875000 0.56305(2)
O4_13 O 0.4038(6) 0.7417(4) 0.53086(16)
C3_13 C 0.3120(8) 0.7178(5) 0.5050(2)
O7_14 O 0.1940(7) 0.8523(4) 0.51497(18)
C4_13 C 0.1880(8) 0.7822(5) 0.4950(2)
C1_8 C 0.875000 0.5692(7) 0.375000
C2_8 C 0.875000 0.6671(7) 0.375000
O4_14 O 0.4038(6) 0.0083(4) 0.21914(16)
C3_14 C 0.3120(8) 0.0322(5) 0.2450(2)
O7_15 O 0.1940(7) 0.8977(4) 0.23503(18)
C4_14 C 0.1880(8) 0.9678(5) 0.2550(2)
Lu3_8 Lu 0.375000 0.875000 0.18695(2)
O4_15 O 0.3462(6) 0.7417(4) 0.21914(16)
C3_15 C 0.4380(8) 0.7178(5) 0.2450(2)
O7_16 O 0.5560(7) 0.8523(4) 0.23503(18)
C4_15 C 0.5620(8) 0.7822(5) 0.2550(2)
O9_9 O 0.0332(6) 0.4656(4) 0.60246(17)
O10_9 O 0.0360(6) 0.2955(3) 0.60132(17)
O1_5 O 0.7168(6) 0.2844(4) 0.60246(17)
O2_5 O 0.7140(6) 0.4545(3) 0.60132(17)
C1_9 C 0.625000 0.3192(7) 0.625000
C2_9 C 0.625000 0.4171(7) 0.625000
O5_5 O 0.5332(6) 0.2844(4) 0.64754(17)
O6_5 O 0.5360(6) 0.4545(3) 0.64868(17)
O1_6 O 0.5332(6) 0.9656(4) 0.60246(17)
O2_6 O 0.5360(6) 0.7955(3) 0.60132(17)
C1_10 C 0.625000 0.9308(7) 0.625000
C2_10 C 0.625000 0.8329(7) 0.625000
O5_6 O 0.7168(6) 0.9656(4) 0.64754(17)
O6_6 O 0.7140(6) 0.7955(3) 0.64868(17)
O9_10 O 0.2168(6) 0.7844(4) 0.60246(17)
O10_10 O 0.2140(6) 0.9545(3) 0.60132(17)
O9_11 O 0.2168(6) 0.4656(4) 0.64754(17)
O10_11 O 0.2140(6) 0.2955(3) 0.64868(17)
O9_12 O 0.0332(6) 0.7844(4) 0.64754(17)
O10_12 O 0.0360(6) 0.9545(3) 0.64868(17)
O9_13 O 0.0332(6) 0.9656(4) 0.10246(17)
O10_13 O 0.0360(6) 0.7955(3) 0.10132(17)
O1_7 O 0.7168(6) 0.7844(4) 0.10246(17)
O2_7 O 0.7140(6) 0.9545(3) 0.10132(17)
C1_11 C 0.625000 0.8192(7) 0.125000
C2_11 C 0.625000 0.9171(7) 0.125000
O5_7 O 0.5332(6) 0.7844(4) 0.14754(17)
O6_7 O 0.5360(6) 0.9545(3) 0.14868(17)
O1_8 O 0.5332(6) 0.4656(4) 0.10246(17)
O2_8 O 0.5360(6) 0.2955(3) 0.10132(17)
C1_12 C 0.625000 0.4308(7) 0.125000
C2_12 C 0.625000 0.3329(7) 0.125000
O5_8 O 0.7168(6) 0.4656(4) 0.14754(17)
O6_8 O 0.7140(6) 0.2955(3) 0.14868(17)
O9_14 O 0.2168(6) 0.2844(4) 0.10246(17)
O10_14 O 0.2140(6) 0.4545(3) 0.10132(17)
O9_15 O 0.2168(6) 0.9656(4) 0.14754(17)
O10_15 O 0.2140(6) 0.7955(3) 0.14868(17)
O9_16 O 0.0332(6) 0.2844(4) 0.14754(17)
O10_16 O 0.0360(6) 0.4545(3) 0.14868(17)
C1_13 C 0.125000 0.3192(7) 0.125000
C2_13 C 0.125000 0.4171(7) 0.125000
C1_14 C 0.125000 0.9308(7) 0.125000
C2_14 C 0.125000 0.8329(7) 0.125000
C1_15 C 0.125000 0.8192(7) 0.625000
C2_15 C 0.125000 0.9171(7) 0.625000
C1_16 C 0.125000 0.4308(7) 0.625000
C2_16 C 0.125000 0.3329(7) 0.625000
C4_16 C 0.0620(8) 0.9678(5) 0.9950(2)
O8_8 O 0.1538(6) 0.9917(4) 0.96914(16)
O4_16 O 0.8462(6) 0.0083(4) 0.03086(16)
C3_16 C 0.9380(8) 0.0322(5) 0.0050(2)
loop_
_geom_bond_atom_site_label_1
_geom_bond_atom_site_label_2
_geom_bond_site_symmetry_1
_geom_bond_site_symmetry_2
Lu1 O1 1_555 1_555
O1 C1 1_555 1_555
O2 Lu1 1_555 1_555
C1 C2 1_555 1_555
C2 O2 1_555 1_555
O5 C1 1_555 1_555
O6 C2 1_555 1_555
O7 C4 1_555 1_555
O8 Lu1 1_555 1_555
Lu2 O5 1_555 1_555
O11 Lu1 1_555 1_555
O12 Lu1 1_555 1_555
O6 Lu2 1_555 1_555
C4 O8 1_555 1_555
O4 C3 1_555 1_555
C3 O3 1_555 1_555
Lu3 O4 1_555 1_555
Lu1_2 O1_2 1_555 1_555
O1_2 C1_2 1_555 1_555
O2_2 Lu1_2 1_555 1_555
O3_2 Lu1_2 1_555 1_555
O4_2 C3_2 1_555 1_555
C1_2 C2_2 1_555 1_555
C2_2 O2_2 1_555 1_555
C3_2 O3_2 1_555 1_555
O5_2 C1_2 1_555 1_555
O6_2 C2_2 1_555 1_555
O7_2 C4_2 1_555 1_555
C4_2 C3_2 1_555 1_555
O8_2 Lu1_2 1_555 1_555
Lu2_2 O5_2 1_555 1_555
Lu3 O4_2 1_555 1_555
O9_2 Lu1_2 1_555 1_555
O10_2 Lu1_2 1_555 1_555
O11_2 Lu1_2 1_555 1_555
O6_2 Lu2_2 1_555 1_555
O7_2 Lu3 1_555 1_555
C4_2 O8_2 1_555 1_555
O3_3 Lu2 1_555 1_555
O4_3 C3_3 1_555 1_555
C3_3 O3_3 1_555 1_555
O7_3 C4_3 1_555 1_555
C4_3 C3_3 1_555 1_555
O8_3 Lu2 1_555 1_555
Lu3_2 O4_3 1_555 1_555
O9_3 Lu2 1_555 1_555
O10_3 Lu2 1_555 1_555
O11_3 Lu2 1_555 1_555
O12_3 Lu2 1_555 1_555
O7_3 Lu3_2 1_555 1_555
C4_3 O8_3 1_555 1_555
O7_4 C4_4 1_555 1_555
O8_4 Lu2_2 1_555 1_555
O11_4 Lu2_2 1_555 1_555
C4_4 O8_4 1_555 1_555
O4_4 C3_4 1_555 1_555
C3_4 O3_4 1_555 1_555
Lu3_2 O4_4 1_555 1_555
Lu1_3 O1_3 1_555 1_555
O1_3 C1_3 1_555 1_555
O2_3 Lu1_3 1_555 1_555
C1_3 C2_3 1_555 1_555
C2_3 O2_3 1_555 1_555
O5_3 C1_3 1_555 1_555
O6_3 C2_3 1_555 1_555
Lu2_3 O5_3 1_555 1_555
O11_5 Lu1_3 1_555 1_555
O12_5 Lu1_3 1_555 1_555
O6_3 Lu2_3 1_555 1_555
O4_5 C3_5 1_555 1_555
Lu3_3 O4_5 1_555 1_555
O7_6 Lu3_3 1_555 1_555
Lu1_4 O1_4 1_555 1_555
O1_4 C1_4 1_555 1_555
O2_4 Lu1_4 1_555 1_555
O3_6 Lu1_4 1_555 1_555
C1_4 C2_4 1_555 1_555
C2_4 O2_4 1_555 1_555
O5_4 C1_4 1_555 1_555
O6_4 C2_4 1_555 1_555
O8_5 Lu1_4 1_555 1_555
Lu2_4 O5_4 1_555 1_555
O9_6 Lu1_4 1_555 1_555
O10_6 Lu1_4 1_555 1_555
O11_6 Lu1_4 1_555 1_555
O12_6 Lu1_4 1_555 1_555
O6_4 Lu2_4 1_555 1_555
C4_5 O8_5 1_555 1_555
O3_7 Lu2_3 1_555 1_555
O4_6 C3_6 1_555 1_555
C3_6 O3_7 1_555 1_555
O9_7 Lu2_3 1_555 1_555
O10_7 Lu2_3 1_555 1_555
O11_7 Lu2_3 1_555 1_555
O12_7 Lu2_3 1_555 1_555
O7_7 C4_6 1_555 1_555
O7_7 Lu3_4 1_555 1_555
C4_6 O8_6 1_555 1_555
O7_8 C4_7 1_555 1_555
O8_7 Lu2_4 1_555 1_555
O11_8 Lu2_4 1_555 1_555
O12_8 Lu2_4 1_555 1_555
C4_7 O8_7 1_555 1_555
O4_7 C3_7 1_555 1_555
C3_7 O3_8 1_555 1_555
Lu3_4 O4_7 1_555 1_555
O4_8 C3_8 1_555 1_555
Lu3_5 O4_8 1_555 1_555
O7_9 Lu3_5 1_555 1_555
O9_6 C1_5 1_555 1_555
C1_5 C2_5 1_555 1_555
C2_5 O10_6 1_555 1_555
O9_8 C1_5 1_555 1_555
O10_8 C2_5 1_555 1_555
C4_8 O12_6 1_555 1_555
O4_9 C3_9 1_555 1_555
Lu3_5 O4_9 1_555 1_555
O7_10 Lu3_5 1_555 1_555
C4_9 O12_5 1_555 1_555
O9_5 C1_6 1_555 1_555
C1_6 C2_6 1_555 1_555
C2_6 O10_5 1_555 1_555
O9_7 C1_6 1_555 1_555
O10_7 C2_6 1_555 1_555
O4_10 C3_10 1_555 1_555
C3_10 O11_8 1_555 1_555
O7_11 C4_10 1_555 1_555
C4_10 C3_10 1_555 1_555
Lu3_6 O4_10 1_555 1_555
O7_11 Lu3_6 1_555 1_555
C4_10 O12_8 1_555 1_555
O4_11 C3_11 1_555 1_555
C3_11 O11_7 1_555 1_555
O7_12 C4_11 1_555 1_555
C4_11 C3_11 1_555 1_555
Lu3_6 O4_11 1_555 1_555
O7_12 Lu3_6 1_555 1_555
C4_11 O12_7 1_555 1_555
O9_2 C1_7 1_555 1_555
O4_12 C3_12 1_555 1_555
C1_7 C2_7 1_555 1_555
C2_7 O10_2 1_555 1_555
C3_12 O11_2 1_555 1_555
O9_4 C1_7 1_555 1_555
O10_4 C2_7 1_555 1_555
O7_13 C4_12 1_555 1_555
O7_13 Lu3_7 1_555 1_555
C4_12 O12_2 1_555 1_555
O4_13 C3_13 1_555 1_555
C3_13 O11 1_555 1_555
O7_14 C4_13 1_555 1_555
C4_13 C3_13 1_555 1_555
Lu3_7 O4_13 1_555 1_555
O7_14 Lu3_7 1_555 1_555
C4_13 O12 1_555 1_555
O9 C1_8 1_555 1_555
C1_8 C2_8 1_555 1_555
C2_8 O10 1_555 1_555
O9_3 C1_8 1_555 1_555
O10_3 C2_8 1_555 1_555
O4_14 C3_14 1_555 1_555
C3_14 O11_4 1_555 1_555
O7_15 C4_14 1_555 1_555
O7_15 Lu3_8 1_555 1_555
C4_14 O12_4 1_555 1_555
O4_15 C3_15 1_555 1_555
C3_15 O11_3 1_555 1_555
O7_16 C4_15 1_555 1_555
C4_15 C3_15 1_555 1_555
Lu3_8 O4_15 1_555 1_555
O7_16 Lu3_8 1_555 1_555
C4_15 O12_3 1_555 1_555
Lu3 O1_5 1_555 1_555
O1_5 C1_9 1_555 1_555
O2_5 Lu3 1_555 1_555
C1_9 C2_9 1_555 1_555
C2_9 O2_5 1_555 1_555
O5_5 C1_9 1_555 1_555
O6_5 C2_9 1_555 1_555
Lu3_6 O5_5 1_555 1_555
O6_5 Lu3_6 1_555 1_555
Lu3_7 O1_6 1_555 1_555
O1_6 C1_10 1_555 1_555
O2_6 Lu3_7 1_555 1_555
C1_10 C2_10 1_555 1_555
C2_10 O2_6 1_555 1_555
O5_6 C1_10 1_555 1_555
O6_6 C2_10 1_555 1_555
Lu3_4 O5_6 1_555 1_555
O9_10 Lu3_7 1_555 1_555
O10_10 Lu3_7 1_555 1_555
O6_6 Lu3_4 1_555 1_555
O9_11 Lu3_6 1_555 1_555
O10_11 Lu3_6 1_555 1_555
Lu3_3 O1_7 1_555 1_555
O1_7 C1_11 1_555 1_555
O2_7 Lu3_3 1_555 1_555
C1_11 C2_11 1_555 1_555
C2_11 O2_7 1_555 1_555
O5_7 C1_11 1_555 1_555
O6_7 C2_11 1_555 1_555
Lu3_8 O5_7 1_555 1_555
O6_7 Lu3_8 1_555 1_555
Lu3_5 O1_8 1_555 1_555
O1_8 C1_12 1_555 1_555
O2_8 Lu3_5 1_555 1_555
C1_12 C2_12 1_555 1_555
C2_12 O2_8 1_555 1_555
O5_8 C1_12 1_555 1_555
O6_8 C2_12 1_555 1_555
Lu3_2 O5_8 1_555 1_555
O9_14 Lu3_5 1_555 1_555
O10_14 Lu3_5 1_555 1_555
O6_8 Lu3_2 1_555 1_555
O9_15 Lu3_8 1_555 1_555
O10_15 Lu3_8 1_555 1_555
O9_14 C1_13 1_555 1_555
C1_13 C2_13 1_555 1_555
C2_13 O10_14 1_555 1_555
O9_16 C1_13 1_555 1_555
O10_16 C2_13 1_555 1_555
O9_13 C1_14 1_555 1_555
C1_14 C2_14 1_555 1_555
C2_14 O10_13 1_555 1_555
O9_15 C1_14 1_555 1_555
O10_15 C2_14 1_555 1_555
O9_10 C1_15 1_555 1_555
C1_15 C2_15 1_555 1_555
C2_15 O10_10 1_555 1_555
O9_12 C1_15 1_555 1_555
O10_12 C2_15 1_555 1_555
O9_9 C1_16 1_555 1_555
C1_16 C2_16 1_555 1_555
C2_16 O10_9 1_555 1_555
O9_11 C1_16 1_555 1_555
O10_11 C2_16 1_555 1_555
C4_16 O8_8 1_555 1_555
O4_16 C3_16 1_555 1_555

#END
