
###############################################################################
#
# This file contains modified crystal structure data generated from the
# MOF subset of the Cambridge Structural Database (CSD) v543 
# hosted by the Cambridge Crystallographic Data Centre (CCDC).
#
# This work is licensed under the Creative Commons
# Attribution-NonCommercial-ShareAlike 4.0 International License.
# To view a copy of this license, visit
# http://creativecommons.org/licenses/by-nc-sa/4.0/
# or send a letter to
# Creative Commons, PO Box 1866, Mountain View, CA 94042, USA.
#
# CIF created using the CSD Python API on 29 September 2022
# The structure has been converted into the P1 space group
# The structure has a 3D framework
# The original CSD entry JUGXIV is in the monoclinic crystal system
# The framework has been calculated to contain at least 10.0% void space
# The void calculation uses a probe of radius 1.32A, grid spacing 0.4
# H atom positions have been added when not included in the experimental data
#
###############################################################################

data_JUGXIV
_chemical_formula_moiety         '(C160 H104 Mn6 N16 O44)n'
_symmetry_cell_setting           triclinic
_symmetry_space_group_name_H-M   'P 1'
_symmetry_Int_Tables_number      1
_space_group_name_Hall           'P 1'
loop_
_symmetry_equiv_pos_site_id
_symmetry_equiv_pos_as_xyz
1 x,y,z
_cell_length_a                   13.599(2)
_cell_length_b                   9.9081(16)
_cell_length_c                   30.491(5)
_cell_angle_alpha                90
_cell_angle_beta                 91.521(4)
_cell_angle_gamma                90
_cell_volume                     4106.92
loop_
_atom_site_label
_atom_site_type_symbol
_atom_site_fract_x
_atom_site_fract_y
_atom_site_fract_z
Mn6 Mn 0.06419(5) 0.64450(7) 0.47872(2)
C10 C 0.6346(5) 0.0090(6) 0.7625(2)
H7 H 0.6823 0.0763 0.7629
H8 H 0.5945 0.0341 0.8246
H11 H 0.7593 0.0631 0.6125
C20 C 0.8737(4) 0.1169(5) 0.54766(18)
O1 O 0.7122(4) 0.0769(4) 0.68093(14)
O5 O 0.9435(3) 0.1255(3) 0.52303(12)
O6 O 0.8301(3) 0.2222(3) 0.56121(11)
Mn4 Mn 0.93581(5) 0.35550(7) 0.52128(2)
O12 O 0.6606(2) 0.0020(3) 0.93902(11)
Mn7 Mn 0.70843(5) 0.36389(8) 0.56838(3)
Mn5 Mn 0.43581(5) 0.14450(7) 0.02128(2)
O13 O 0.4410(2) 0.8921(3) 0.01936(11)
O18 O 0.6637(3) 0.8552(4) 0.03292(10)
Mn9 Mn 0.20843(5) 0.13611(8) 0.06838(3)
Mn1 Mn 0.56419(5) 0.85550(7) 0.97872(2)
C1 C 0.5020(4) 0.8730(5) 0.87958(18)
H1 H 0.5683 0.8955 0.8790
C2 C 0.4515(4) 0.8625(6) 0.83970(18)
C3 C 0.3531(4) 0.8272(6) 0.84065(19)
H2 H 0.3155 0.8207 0.8148
C4 C 0.3112(5) 0.8017(6) 0.8812(2)
H3 H 0.2462 0.7732 0.8827
C5 C 0.3681(5) 0.8196(5) 0.9189(2)
H4 H 0.3382 0.8071 0.9457
C6 C 0.5073(4) 0.8891(6) 0.79948(18)
C7 C 0.4875(5) 0.8188(6) 0.7614(2)
H5 H 0.4362 0.7567 0.7604
C8 C 0.5432(5) 0.8392(7) 0.7242(2)
H6 H 0.5297 0.7890 0.6989
C9 C 0.6174(5) 0.9322(6) 0.7245(2)
C11 C 0.5808(5) 0.9846(6) 0.79920(19)
C12 C 0.6782(5) 0.9627(7) 0.6851(2)
C13 C 0.7532(4) 0.8616(5) 0.62102(17)
C14 C 0.7837(4) 0.7428(5) 0.60263(17)
H9 H 0.7641 0.6612 0.6147
C15 C 0.8433(4) 0.7424(5) 0.56625(16)
C16 C 0.8740(3) 0.8643(5) 0.54813(15)
H10 H 0.9160 0.8647 0.5246
C17 C 0.8415(4) 0.9831(5) 0.56547(18)
C18 C 0.7815(4) 0.9816(5) 0.60126(19)
C19 C 0.8765(4) 0.6115(5) 0.54775(16)
C21 C 0.6009(7) 0.0896(10) 0.5469(3)
H12 H 0.6456 0.0926 0.5244
C24 C 0.4698(6) 0.0882(8) 0.6159(2)
C25 C 0.5328(4) 0.1889(6) 0.6066(2)
H14 H 0.5381 0.2565 0.6277
C26 C 0.4091(5) 0.0814(6) 0.6555(2)
C29 C 0.2911(4) 0.0656(6) 0.72883(19)
C30 C 0.3650(5) 0.1575(6) 0.72730(19)
H17 H 0.3764 0.2159 0.7508
C31 C 0.4232(6) 0.1642(7) 0.6909(2)
H18 H 0.4737 0.2274 0.6906
C32 C 0.2220(4) 0.0536(6) 0.7659(2)
C33 C 0.1932(4) 0.1044(5) 0.84402(18)
C34 C 0.0913(4) 0.0838(5) 0.84381(18)
H19 H 0.0578 0.0727 0.8171
C35 C 0.0398(4) 0.0794(5) 0.88126(19)
C36 C 0.0887(4) 0.0941(5) 0.92119(19)
H20 H 0.0542 0.0874 0.9470
C37 C 0.1921(4) 0.1196(5) 0.92310(18)
C38 C 0.2405(4) 0.1232(5) 0.88296(18)
H21 H 0.3079 0.1392 0.8833
C40 C 0.2440(4) 0.1311(6) 0.96646(18)
N1 N 0.4626(3) 0.8533(4) 0.91953(13)
N2 N 0.6925(3) 0.8551(4) 0.65799(14)
N3 N 0.5888(4) 0.2062(6) 0.57147(18)
N4 N 0.2498(3) 0.1107(5) 0.80543(15)
O2 O 0.7393(2) 0.3477(3) 0.64032(11)
H22 H 0.7153 0.4163 0.6529
H23 H 0.7133 0.2742 0.6510
O3 O 0.8394(2) 0.5020(3) 0.56098(11)
O4 O 0.9410(2) 0.6079(3) 0.51936(11)
O10 O 0.3363(3) 0.1448(4) 0.96708(10)
O11 O 0.1911(3) 0.1278(4) 0.99978(11)
O14 O 0.5565(3) 0.6255(3) 0.97697(12)
O16 O 0.6699(3) 0.7222(3) 0.93879(11)
O17 O 0.6059(3) 0.5140(4) 0.58411(12)
O19 O 0.6911(3) 0.3722(4) 0.49978(11)
H24 H 0.658166 0.766751 0.664625
H26 H 0.314955 0.160629 0.807223
C39 C 0.9318(4) 0.0495(5) 0.8806(2)
O8 O 0.8847(3) 0.0616(4) 0.84493(13)
O9 O 0.8941(3) 0.0140(4) 0.91589(12)
Mn8 Mn 0.79157(5) 0.86389(8) 0.93162(3)
C2_2 C 0.0485(4) 0.3625(6) 0.66030(18)
C3_2 C 0.1469(4) 0.3272(6) 0.65935(19)
H2_2 H 0.1845 0.3207 0.6852
C4_2 C 0.1888(5) 0.3017(6) 0.6188(2)
H3_2 H 0.2538 0.2732 0.6173
C5_2 C 0.1319(5) 0.3196(5) 0.5811(2)
H4_2 H 0.1618 0.3071 0.5543
C7_2 C 0.0125(5) 0.3188(6) 0.7386(2)
H5_2 H 0.0638 0.2567 0.7396
N1_2 N 0.0374(3) 0.3533(4) 0.58047(13)
O13_2 O 0.0590(2) 0.3921(3) 0.48064(11)
C23 C 0.0198(7) 0.4583(9) 0.9096(3)
C24_2 C 0.0302(6) 0.5882(8) 0.8841(2)
C26_2 C 0.0909(5) 0.5814(6) 0.8445(2)
C27 C 0.1671(5) 0.4914(6) 0.8432(2)
H15 H 0.1804 0.4354 0.8671
C28 C 0.2244(5) 0.4836(6) 0.8065(2)
H16 H 0.2750 0.4204 0.8059
C29_2 C 0.2089(4) 0.5656(6) 0.77117(19)
C30_2 C 0.1350(5) 0.6575(6) 0.77270(19)
H17_2 H 0.1236 0.7159 0.7492
C31_2 C 0.0768(6) 0.6642(7) 0.8091(2)
H18_2 H 0.0263 0.7274 0.8094
C32_2 C 0.2780(4) 0.5536(6) 0.7341(2)
C33_2 C 0.3068(4) 0.6044(5) 0.65598(18)
C34_2 C 0.4087(4) 0.5838(5) 0.65619(18)
H19_2 H 0.4422 0.5727 0.6829
C35_2 C 0.4602(4) 0.5794(5) 0.61874(19)
C36_2 C 0.4113(4) 0.5941(5) 0.57881(19)
H20_2 H 0.4458 0.5874 0.5530
C37_2 C 0.3079(4) 0.6196(5) 0.57690(18)
C38_2 C 0.2595(4) 0.6232(5) 0.61704(18)
H21_2 H 0.1921 0.6392 0.6167
C39_2 C 0.5682(4) 0.5495(5) 0.6194(2)
C40_2 C 0.2560(4) 0.6311(6) 0.53354(18)
N4_2 N 0.2502(3) 0.6107(5) 0.69457(15)
O7 O 0.3569(3) 0.4947(5) 0.74070(14)
O8_2 O 0.6153(3) 0.5616(4) 0.65507(13)
O10_2 O 0.1637(3) 0.6448(4) 0.53292(10)
O11_2 O 0.3089(3) 0.6278(4) 0.50022(11)
Mn9_2 Mn 0.29157(5) 0.63611(8) 0.43162(3)
H25 H 0.0603912 0.367304 0.901494
H26_2 H 0.185045 0.660629 0.692777
C1_2 C 0.9980(4) 0.3730(5) 0.62042(18)
H1_2 H 0.9317 0.3955 0.6210
C6_2 C 0.9927(4) 0.3891(6) 0.70052(18)
C8_2 C 0.9568(5) 0.3392(7) 0.7758(2)
H6_2 H 0.9703 0.2890 0.8011
C9_2 C 0.8826(5) 0.4322(6) 0.7755(2)
C10_2 C 0.8654(5) 0.5090(6) 0.7375(2)
H7_2 H 0.8177 0.5763 0.7371
C11_2 C 0.9192(5) 0.4846(6) 0.70080(19)
H8_2 H 0.9055 0.5341 0.6754
C12_2 C 0.8218(5) 0.4627(7) 0.8149(2)
C13_2 C 0.7468(4) 0.3616(5) 0.87898(17)
C14_2 C 0.7163(4) 0.2428(5) 0.89737(17)
H9_2 H 0.7359 0.1612 0.8853
C15_2 C 0.6567(4) 0.2424(5) 0.93375(16)
C16_2 C 0.6260(3) 0.3643(5) 0.95187(15)
H10_2 H 0.5840 0.3647 0.9754
C17_2 C 0.6585(4) 0.4831(5) 0.93453(18)
C18_2 C 0.7185(4) 0.4816(5) 0.89874(19)
H11_2 H 0.7407 0.5631 0.8875
C19_2 C 0.6235(4) 0.1115(5) 0.95225(16)
C20_2 C 0.6263(4) 0.6169(5) 0.95234(18)
N2_2 N 0.8075(3) 0.3551(4) 0.84201(14)
O1_2 O 0.7878(4) 0.5769(4) 0.81907(14)
O4_2 O 0.5590(2) 0.1079(3) 0.98064(11)
O18_2 O 0.8363(3) 0.3552(4) 0.46708(10)
H24_2 H 0.841834 0.266751 0.835375
O19_2 O 0.8089(3) 0.8722(4) 0.00022(11)
C21_2 C 0.8991(7) 0.5896(10) 0.9531(3)
H12_2 H 0.8544 0.5926 0.9756
C22 C 0.9510(6) 0.4630(10) 0.9462(3)
H13 H 0.9412 0.3885 0.9641
C25_2 C 0.9672(4) 0.6889(6) 0.8934(2)
H14_2 H 0.9619 0.7565 0.8723
N3_2 N 0.9112(4) 0.7062(6) 0.92853(18)
O2_2 O 0.7607(2) 0.8477(3) 0.85968(11)
H22_2 H 0.7847 0.9163 0.8471
H23_2 H 0.7867 0.7742 0.8490
C39_3 C 0.0682(4) 0.9505(5) 0.1194(2)
O8_3 O 0.1153(3) 0.9384(4) 0.15507(13)
O9_2 O 0.1059(3) 0.9860(4) 0.08411(12)
C1_3 C 0.4980(4) 0.1270(5) 0.12042(18)
H1_3 H 0.4317 0.1045 0.1210
C2_3 C 0.5485(4) 0.1375(6) 0.16030(18)
C3_3 C 0.6469(4) 0.1728(6) 0.15935(19)
H2_3 H 0.6845 0.1793 0.1852
C4_3 C 0.6888(5) 0.1983(6) 0.1188(2)
H3_3 H 0.7538 0.2268 0.1173
C5_3 C 0.6319(5) 0.1804(5) 0.0811(2)
H4_3 H 0.6618 0.1929 0.0543
C6_3 C 0.4927(4) 0.1109(6) 0.20052(18)
C7_3 C 0.5125(5) 0.1812(6) 0.2386(2)
H5_3 H 0.5638 0.2433 0.2396
C8_3 C 0.4568(5) 0.1608(7) 0.2758(2)
H6_3 H 0.4703 0.2110 0.3011
C9_3 C 0.3826(5) 0.0678(6) 0.2755(2)
C11_3 C 0.4192(5) 0.0154(6) 0.20080(19)
C12_3 C 0.3218(5) 0.0373(7) 0.3149(2)
C13_3 C 0.2468(4) 0.1384(5) 0.37898(17)
C14_3 C 0.2163(4) 0.2572(5) 0.39737(17)
H9_3 H 0.2359 0.3388 0.3853
C15_3 C 0.1567(4) 0.2576(5) 0.43375(16)
C16_3 C 0.1260(3) 0.1357(5) 0.45187(15)
H10_3 H 0.0840 0.1353 0.4754
C17_3 C 0.1585(4) 0.0169(5) 0.43453(18)
C18_3 C 0.2185(4) 0.0184(5) 0.39874(19)
C19_3 C 0.1235(4) 0.3885(5) 0.45225(16)
C21_3 C 0.3991(7) 0.9104(10) 0.4531(3)
H12_3 H 0.3544 0.9074 0.4756
C24_3 C 0.5302(6) 0.9118(8) 0.3841(2)
C25_3 C 0.4672(4) 0.8111(6) 0.3934(2)
H14_3 H 0.4619 0.7435 0.3723
C26_3 C 0.5909(5) 0.9186(6) 0.3445(2)
C29_3 C 0.7089(4) 0.9344(6) 0.27117(19)
C30_3 C 0.6350(5) 0.8425(6) 0.27270(19)
H17_3 H 0.6236 0.7841 0.2492
C31_3 C 0.5768(6) 0.8358(7) 0.3091(2)
H18_3 H 0.5263 0.7726 0.3094
C32_3 C 0.7780(4) 0.9464(6) 0.2341(2)
C33_3 C 0.8068(4) 0.8956(5) 0.15598(18)
C34_3 C 0.9087(4) 0.9162(5) 0.15619(18)
H19_3 H 0.9422 0.9273 0.1829
C35_3 C 0.9602(4) 0.9206(5) 0.11874(19)
C36_3 C 0.9113(4) 0.9059(5) 0.07881(19)
H20_3 H 0.9458 0.9126 0.0530
C37_3 C 0.8079(4) 0.8804(5) 0.07690(18)
C38_3 C 0.7595(4) 0.8768(5) 0.11704(18)
H21_3 H 0.6921 0.8608 0.1167
C40_3 C 0.7560(4) 0.8689(6) 0.03354(18)
N1_3 N 0.5374(3) 0.1467(4) 0.08047(13)
N2_3 N 0.3075(3) 0.1449(4) 0.34201(14)
N3_3 N 0.4112(4) 0.7938(6) 0.42853(18)
N4_3 N 0.7502(3) 0.8893(5) 0.19457(15)
O2_3 O 0.2607(2) 0.6523(3) 0.35968(11)
H22_3 H 0.2847 0.5837 0.3471
H23_3 H 0.2867 0.7258 0.3490
O3_2 O 0.1606(2) 0.4980(3) 0.43902(11)
O14_2 O 0.4435(3) 0.3745(3) 0.02303(12)
O15 O 0.1699(3) 0.7778(3) 0.43879(11)
O16_2 O 0.3301(3) 0.2778(3) 0.06121(11)
O17_2 O 0.3941(3) 0.4860(4) 0.41589(12)
H24_3 H 0.341834 0.233249 0.335375
H26_3 H 0.685045 0.839371 0.192777
C10_3 C 0.3654(5) 0.9910(6) 0.2375(2)
H7_3 H 0.3177 0.9237 0.2371
H8_3 H 0.4055 0.9659 0.1754
H11_3 H 0.2407 0.9369 0.3875
C20_3 C 0.1263(4) 0.8831(5) 0.45234(18)
O1_3 O 0.2878(4) 0.9231(4) 0.31907(14)
O5_2 O 0.0565(3) 0.8745(3) 0.47697(12)
O12_2 O 0.3394(2) 0.9980(3) 0.06098(11)
C21_4 C 0.1009(7) 0.4104(10) 0.0469(3)
H12_4 H 0.1456 0.4074 0.0244
C22_2 C 0.0490(6) 0.5370(10) 0.0538(3)
H13_2 H 0.0588 0.6115 0.0359
C25_4 C 0.0328(4) 0.3111(6) 0.1066(2)
H14_4 H 0.0381 0.2435 0.1277
N3_4 N 0.0888(4) 0.2938(6) 0.07147(18)
O2_4 O 0.2393(2) 0.1523(3) 0.14032(11)
H22_4 H 0.2153 0.0837 0.1529
H23_4 H 0.2133 0.2258 0.1510
C1_4 C 0.0020(4) 0.6270(5) 0.37958(18)
H1_4 H 0.0683 0.6045 0.3790
C6_4 C 0.0073(4) 0.6109(6) 0.29948(18)
C8_4 C 0.0432(5) 0.6608(7) 0.2242(2)
H6_4 H 0.0297 0.7110 0.1989
C9_4 C 0.1174(5) 0.5678(6) 0.2245(2)
C10_4 C 0.1346(5) 0.4910(6) 0.2625(2)
H7_4 H 0.1823 0.4237 0.2629
C11_4 C 0.0808(5) 0.5154(6) 0.29920(19)
H8_4 H 0.0945 0.4659 0.3246
C12_4 C 0.1782(5) 0.5373(7) 0.1851(2)
C13_4 C 0.2532(4) 0.6384(5) 0.12102(17)
C14_4 C 0.2837(4) 0.7572(5) 0.10263(17)
H9_4 H 0.2641 0.8388 0.1147
C15_4 C 0.3433(4) 0.7576(5) 0.06625(16)
C16_4 C 0.3740(3) 0.6357(5) 0.04813(15)
H10_4 H 0.4160 0.6353 0.0246
C17_4 C 0.3415(4) 0.5169(5) 0.06547(18)
C18_4 C 0.2815(4) 0.5184(5) 0.10126(19)
H11_4 H 0.2593 0.4369 0.1125
C19_4 C 0.3765(4) 0.8885(5) 0.04775(16)
C20_4 C 0.3737(4) 0.3831(5) 0.04766(18)
N2_4 N 0.1925(3) 0.6449(4) 0.15799(14)
O1_4 O 0.2122(4) 0.4231(4) 0.18093(14)
H24_4 H 0.158166 0.733249 0.164625
C23_2 C 0.9802(7) 0.5417(9) 0.0904(3)
C24_4 C 0.9698(6) 0.4118(8) 0.1159(2)
C26_4 C 0.9091(5) 0.4186(6) 0.1555(2)
C27_2 C 0.8329(5) 0.5086(6) 0.1568(2)
H15_2 H 0.8196 0.5646 0.1329
C28_2 C 0.7756(5) 0.5164(6) 0.1935(2)
H16_2 H 0.7250 0.5796 0.1941
C29_4 C 0.7911(4) 0.4344(6) 0.22883(19)
C30_4 C 0.8650(5) 0.3425(6) 0.22730(19)
H17_4 H 0.8764 0.2841 0.2508
C31_4 C 0.9232(6) 0.3358(7) 0.1909(2)
H18_4 H 0.9737 0.2726 0.1906
C32_4 C 0.7220(4) 0.4464(6) 0.2659(2)
C33_4 C 0.6932(4) 0.3956(5) 0.34402(18)
C34_4 C 0.5913(4) 0.4162(5) 0.34381(18)
H19_4 H 0.5578 0.4273 0.3171
C35_4 C 0.5398(4) 0.4206(5) 0.38126(19)
C36_4 C 0.5887(4) 0.4059(5) 0.42119(19)
H20_4 H 0.5542 0.4126 0.4470
C37_4 C 0.6921(4) 0.3804(5) 0.42310(18)
C38_4 C 0.7405(4) 0.3768(5) 0.38296(18)
H21_4 H 0.8079 0.3608 0.3833
C39_4 C 0.4318(4) 0.4505(5) 0.3806(2)
C40_4 C 0.7440(4) 0.3689(6) 0.46646(18)
N4_4 N 0.7498(3) 0.3893(5) 0.30543(15)
O7_2 O 0.6431(3) 0.5053(5) 0.25930(14)
O8_4 O 0.3847(3) 0.4384(4) 0.34493(13)
H25_2 H 0.939609 0.632696 0.0985062
H26_4 H 0.814955 0.339371 0.307223
C2_4 C 0.9515(4) 0.6375(6) 0.33970(18)
C3_4 C 0.8531(4) 0.6728(6) 0.34065(19)
H2_4 H 0.8155 0.6793 0.3148
C4_4 C 0.8112(5) 0.6983(6) 0.3812(2)
H3_4 H 0.7462 0.7268 0.3827
C5_4 C 0.8681(5) 0.6804(5) 0.4189(2)
H4_4 H 0.8382 0.6929 0.4457
C7_4 C 0.9875(5) 0.6812(6) 0.2614(2)
H5_4 H 0.9362 0.7433 0.2604
N1_4 N 0.9626(3) 0.6467(4) 0.41953(13)
C22_3 C 0.5490(6) 0.9630(10) 0.5538(3)
H13_3 H 0.5588 0.8885 0.5359
C23_3 C 0.4802(7) 0.9583(9) 0.5904(3)
C27_3 C 0.3329(5) 0.9914(6) 0.6568(2)
H15_3 H 0.3196 0.9354 0.6329
C28_3 C 0.2756(5) 0.9836(6) 0.6935(2)
H16_3 H 0.2250 0.9204 0.6941
O7_3 O 0.1431(3) 0.9947(5) 0.75930(14)
H25_3 H 0.439609 0.867304 0.598506
C22_4 C 0.4510(6) 0.0370(10) 0.4462(3)
H13_4 H 0.4412 0.1115 0.4641
C23_4 C 0.5198(7) 0.0417(9) 0.4096(3)
C27_4 C 0.6671(5) 0.0086(6) 0.3432(2)
H15_4 H 0.6804 0.0646 0.3671
C28_4 C 0.7244(5) 0.0164(6) 0.3065(2)
H16_4 H 0.7750 0.0796 0.3059
O7_4 O 0.8569(3) 0.0053(5) 0.24070(14)
H25_4 H 0.560391 0.132696 0.401494
loop_
_geom_bond_atom_site_label_1
_geom_bond_atom_site_label_2
_geom_bond_site_symmetry_1
_geom_bond_site_symmetry_2
H7 C10 1_555 1_555
O5 C20 1_555 1_555
O6 C20 1_555 1_555
Mn4 O5 1_555 1_555
Mn7 O6 1_555 1_555
O6 Mn4 1_555 1_555
Mn1 N1 1_555 1_555
C1 H1 1_555 1_555
C2 C1 1_555 1_555
C3 C2 1_555 1_555
H2 C3 1_555 1_555
C4 C3 1_555 1_555
H3 C4 1_555 1_555
C5 C4 1_555 1_555
H4 C5 1_555 1_555
C6 C2 1_555 1_555
C7 C6 1_555 1_555
H5 C7 1_555 1_555
C8 C7 1_555 1_555
H6 C8 1_555 1_555
C9 C8 1_555 1_555
C11 C6 1_555 1_555
C12 C9 1_555 1_555
C13 C14 1_555 1_555
C14 H9 1_555 1_555
C15 C14 1_555 1_555
C16 C15 1_555 1_555
H10 C16 1_555 1_555
C17 C16 1_555 1_555
C18 C13 1_555 1_555
C19 C15 1_555 1_555
C21 H12 1_555 1_555
C25 C24 1_555 1_555
H14 C25 1_555 1_555
C26 C24 1_555 1_555
C30 C29 1_555 1_555
H17 C30 1_555 1_555
C31 C26 1_555 1_555
H18 C31 1_555 1_555
C32 C29 1_555 1_555
C33 C34 1_555 1_555
C34 H19 1_555 1_555
C35 C34 1_555 1_555
C36 C35 1_555 1_555
H20 C36 1_555 1_555
C37 C36 1_555 1_555
C38 C33 1_555 1_555
H21 C38 1_555 1_555
C40 C37 1_555 1_555
N1 C1 1_555 1_555
N2 C12 1_555 1_555
N3 C21 1_555 1_555
N4 C32 1_555 1_555
O2 H22 1_555 1_555
H23 O2 1_555 1_555
O3 C19 1_555 1_555
O4 C19 1_555 1_555
O10 C40 1_555 1_555
O11 C40 1_555 1_555
Mn7 N3 1_555 1_555
Mn4 O3 1_555 1_555
O14 Mn1 1_555 1_555
O16 Mn1 1_555 1_555
O17 Mn7 1_555 1_555
O19 Mn7 1_555 1_555
C5 N1 1_555 1_555
C13 N2 1_555 1_555
C17 C18 1_555 1_555
C25 N3 1_555 1_555
C30 C31 1_555 1_555
C33 N4 1_555 1_555
C37 C38 1_555 1_555
O2 Mn7 1_555 1_555
O3 Mn7 1_555 1_555
N2 H24 1_555 1_555
N4 H26 1_555 1_555
O8 C39 1_555 1_555
O9 C39 1_555 1_555
C3_2 C2_2 1_555 1_555
H2_2 C3_2 1_555 1_555
C4_2 C3_2 1_555 1_555
H3_2 C4_2 1_555 1_555
C5_2 C4_2 1_555 1_555
H4_2 C5_2 1_555 1_555
H5_2 C7_2 1_555 1_555
C5_2 N1_2 1_555 1_555
C24_2 C23 1_555 1_555
C26_2 C24_2 1_555 1_555
C27 C26_2 1_555 1_555
H15 C27 1_555 1_555
C28 C27 1_555 1_555
H16 C28 1_555 1_555
C29_2 C28 1_555 1_555
C30_2 C29_2 1_555 1_555
H17_2 C30_2 1_555 1_555
C31_2 C26_2 1_555 1_555
H18_2 C31_2 1_555 1_555
C32_2 C29_2 1_555 1_555
C33_2 C34_2 1_555 1_555
C34_2 H19_2 1_555 1_555
C35_2 C34_2 1_555 1_555
C36_2 C35_2 1_555 1_555
H20_2 C36_2 1_555 1_555
C37_2 C36_2 1_555 1_555
C38_2 C33_2 1_555 1_555
H21_2 C38_2 1_555 1_555
C39_2 C35_2 1_555 1_555
C40_2 C37_2 1_555 1_555
N4_2 C32_2 1_555 1_555
O7 C32_2 1_555 1_555
O8_2 C39_2 1_555 1_555
O17 C39_2 1_555 1_555
O10_2 C40_2 1_555 1_555
O11_2 C40_2 1_555 1_555
Mn6 O10_2 1_555 1_555
Mn9_2 O11_2 1_555 1_555
C30_2 C31_2 1_555 1_555
C33_2 N4_2 1_555 1_555
C37_2 C38_2 1_555 1_555
C23 H25 1_555 1_555
N4_2 H26_2 1_555 1_555
C1_2 H1_2 1_555 1_555
H6_2 C8_2 1_555 1_555
C9_2 C8_2 1_555 1_555
C10_2 C9_2 1_555 1_555
H7_2 C10_2 1_555 1_555
C11_2 C6_2 1_555 1_555
H8_2 C11_2 1_555 1_555
C12_2 C9_2 1_555 1_555
C13_2 C14_2 1_555 1_555
C14_2 H9_2 1_555 1_555
C15_2 C14_2 1_555 1_555
C16_2 C15_2 1_555 1_555
H10_2 C16_2 1_555 1_555
C17_2 C16_2 1_555 1_555
C18_2 C13_2 1_555 1_555
H11_2 C18_2 1_555 1_555
C19_2 C15_2 1_555 1_555
C20_2 C17_2 1_555 1_555
N2_2 C12_2 1_555 1_555
O1_2 C12_2 1_555 1_555
O12 C19_2 1_555 1_555
O4_2 C19_2 1_555 1_555
O14 C20_2 1_555 1_555
O16 C20_2 1_555 1_555
O18_2 Mn4 1_555 1_555
Mn8 O16 1_555 1_555
C10_2 C11_2 1_555 1_555
C13_2 N2_2 1_555 1_555
C17_2 C18_2 1_555 1_555
N2_2 H24_2 1_555 1_555
C21_2 H12_2 1_555 1_555
C22 C21_2 1_555 1_555
H13 C22 1_555 1_555
H14_2 C25_2 1_555 1_555
N3_2 C21_2 1_555 1_555
O2_2 H22_2 1_555 1_555
H23_2 O2_2 1_555 1_555
Mn8 N3_2 1_555 1_555
C25_2 N3_2 1_555 1_555
O2_2 Mn8 1_555 1_555
O8_3 C39_3 1_555 1_555
O9_2 C39_3 1_555 1_555
Mn5 N1_3 1_555 1_555
C1_3 H1_3 1_555 1_555
C2_3 C1_3 1_555 1_555
C3_3 C2_3 1_555 1_555
H2_3 C3_3 1_555 1_555
C4_3 C3_3 1_555 1_555
H3_3 C4_3 1_555 1_555
C5_3 C4_3 1_555 1_555
H4_3 C5_3 1_555 1_555
C6_3 C2_3 1_555 1_555
C7_3 C6_3 1_555 1_555
H5_3 C7_3 1_555 1_555
C8_3 C7_3 1_555 1_555
H6_3 C8_3 1_555 1_555
C9_3 C8_3 1_555 1_555
C11_3 C6_3 1_555 1_555
C12_3 C9_3 1_555 1_555
C13_3 C14_3 1_555 1_555
C14_3 H9_3 1_555 1_555
C15_3 C14_3 1_555 1_555
C16_3 C15_3 1_555 1_555
H10_3 C16_3 1_555 1_555
C17_3 C16_3 1_555 1_555
C18_3 C13_3 1_555 1_555
C19_3 C15_3 1_555 1_555
C21_3 H12_3 1_555 1_555
C25_3 C24_3 1_555 1_555
H14_3 C25_3 1_555 1_555
C26_3 C24_3 1_555 1_555
C30_3 C29_3 1_555 1_555
H17_3 C30_3 1_555 1_555
C31_3 C26_3 1_555 1_555
H18_3 C31_3 1_555 1_555
C32_3 C29_3 1_555 1_555
C33_3 C34_3 1_555 1_555
C34_3 H19_3 1_555 1_555
C35_3 C34_3 1_555 1_555
C36_3 C35_3 1_555 1_555
H20_3 C36_3 1_555 1_555
C37_3 C36_3 1_555 1_555
C38_3 C33_3 1_555 1_555
H21_3 C38_3 1_555 1_555
C40_3 C37_3 1_555 1_555
N1_3 C1_3 1_555 1_555
N2_3 C12_3 1_555 1_555
N3_3 C21_3 1_555 1_555
N4_3 C32_3 1_555 1_555
O2_3 H22_3 1_555 1_555
H23_3 O2_3 1_555 1_555
O3_2 C19_3 1_555 1_555
O13_2 C19_3 1_555 1_555
O18 C40_3 1_555 1_555
O19_2 C40_3 1_555 1_555
Mn9_2 N3_3 1_555 1_555
Mn6 O3_2 1_555 1_555
O14_2 Mn5 1_555 1_555
O15 Mn9_2 1_555 1_555
O16_2 Mn5 1_555 1_555
O17_2 Mn9_2 1_555 1_555
C5_3 N1_3 1_555 1_555
C13_3 N2_3 1_555 1_555
C17_3 C18_3 1_555 1_555
C25_3 N3_3 1_555 1_555
C30_3 C31_3 1_555 1_555
C33_3 N4_3 1_555 1_555
C37_3 C38_3 1_555 1_555
O2_3 Mn9_2 1_555 1_555
O3_2 Mn9_2 1_555 1_555
Mn6 O15 1_555 1_555
N2_3 H24_3 1_555 1_555
N4_3 H26_3 1_555 1_555
H7_3 C10_3 1_555 1_555
O5_2 C20_3 1_555 1_555
O15 C20_3 1_555 1_555
Mn6 O5_2 1_555 1_555
C21_4 H12_4 1_555 1_555
C22_2 C21_4 1_555 1_555
H13_2 C22_2 1_555 1_555
H14_4 C25_4 1_555 1_555
N3_4 C21_4 1_555 1_555
O2_4 H22_4 1_555 1_555
H23_4 O2_4 1_555 1_555
Mn9 N3_4 1_555 1_555
O16_2 Mn9 1_555 1_555
C25_4 N3_4 1_555 1_555
O2_4 Mn9 1_555 1_555
C1_4 H1_4 1_555 1_555
H6_4 C8_4 1_555 1_555
C9_4 C8_4 1_555 1_555
C10_4 C9_4 1_555 1_555
H7_4 C10_4 1_555 1_555
C11_4 C6_4 1_555 1_555
H8_4 C11_4 1_555 1_555
C12_4 C9_4 1_555 1_555
C13_4 C14_4 1_555 1_555
C14_4 H9_4 1_555 1_555
C15_4 C14_4 1_555 1_555
C16_4 C15_4 1_555 1_555
H10_4 C16_4 1_555 1_555
C17_4 C16_4 1_555 1_555
C18_4 C13_4 1_555 1_555
H11_4 C18_4 1_555 1_555
C19_4 C15_4 1_555 1_555
C20_4 C17_4 1_555 1_555
N2_4 C12_4 1_555 1_555
O1_4 C12_4 1_555 1_555
O12_2 C19_4 1_555 1_555
O13 C19_4 1_555 1_555
O14_2 C20_4 1_555 1_555
O16_2 C20_4 1_555 1_555
C10_4 C11_4 1_555 1_555
C13_4 N2_4 1_555 1_555
C17_4 C18_4 1_555 1_555
N2_4 H24_4 1_555 1_555
C24_4 C23_2 1_555 1_555
C26_4 C24_4 1_555 1_555
C27_2 C26_4 1_555 1_555
H15_2 C27_2 1_555 1_555
C28_2 C27_2 1_555 1_555
H16_2 C28_2 1_555 1_555
C29_4 C28_2 1_555 1_555
C30_4 C29_4 1_555 1_555
H17_4 C30_4 1_555 1_555
C31_4 C26_4 1_555 1_555
H18_4 C31_4 1_555 1_555
C32_4 C29_4 1_555 1_555
C33_4 C34_4 1_555 1_555
C34_4 H19_4 1_555 1_555
C35_4 C34_4 1_555 1_555
C36_4 C35_4 1_555 1_555
H20_4 C36_4 1_555 1_555
C37_4 C36_4 1_555 1_555
C38_4 C33_4 1_555 1_555
H21_4 C38_4 1_555 1_555
C39_4 C35_4 1_555 1_555
C40_4 C37_4 1_555 1_555
N4_4 C32_4 1_555 1_555
O7_2 C32_4 1_555 1_555
O8_4 C39_4 1_555 1_555
O17_2 C39_4 1_555 1_555
O18_2 C40_4 1_555 1_555
O19 C40_4 1_555 1_555
C30_4 C31_4 1_555 1_555
C33_4 N4_4 1_555 1_555
C37_4 C38_4 1_555 1_555
C23_2 H25_2 1_555 1_555
N4_4 H26_4 1_555 1_555
C3_4 C2_4 1_555 1_555
H2_4 C3_4 1_555 1_555
C4_4 C3_4 1_555 1_555
H3_4 C4_4 1_555 1_555
C5_4 C4_4 1_555 1_555
H4_4 C5_4 1_555 1_555
H5_4 C7_4 1_555 1_555
C5_4 N1_4 1_555 1_555
H13_3 C22_3 1_555 1_555
C23_3 C22_3 1_555 1_555
H15_3 C27_3 1_555 1_555
C28_3 C27_3 1_555 1_555
H16_3 C28_3 1_555 1_555
C23_3 H25_3 1_555 1_555
H13_4 C22_4 1_555 1_555
C23_4 C22_4 1_555 1_555
H15_4 C27_4 1_555 1_555
C28_4 C27_4 1_555 1_555
H16_4 C28_4 1_555 1_555
C23_4 H25_4 1_555 1_555

#END
