
###############################################################################
#
# This file contains modified crystal structure data generated from the
# MOF subset of the Cambridge Structural Database (CSD) v543 
# hosted by the Cambridge Crystallographic Data Centre (CCDC).
#
# This work is licensed under the Creative Commons
# Attribution-NonCommercial-ShareAlike 4.0 International License.
# To view a copy of this license, visit
# http://creativecommons.org/licenses/by-nc-sa/4.0/
# or send a letter to
# Creative Commons, PO Box 1866, Mountain View, CA 94042, USA.
#
# CIF created using the CSD Python API on 29 September 2022
# The structure has been converted into the P1 space group
# The structure has a 3D framework
# The original CSD entry JUGZAP is in the orthorhombic crystal system
# The framework has been calculated to contain at least 10.0% void space
# The void calculation uses a probe of radius 1.32A, grid spacing 0.4
# The framework is charged, counterions have been retained in the structure
#
###############################################################################

data_JUGZAP
_chemical_formula_moiety         '(C64 O124 Yb10 13-)n'
_symmetry_cell_setting           triclinic
_symmetry_space_group_name_H-M   'P 1'
_symmetry_Int_Tables_number      1
_space_group_name_Hall           'P 1'
loop_
_symmetry_equiv_pos_site_id
_symmetry_equiv_pos_as_xyz
1 x,y,z
_cell_length_a                   9.1317(3)
_cell_length_b                   15.5888(6)
_cell_length_c                   32.2917(11)
_cell_angle_alpha                90
_cell_angle_beta                 90
_cell_angle_gamma                90
_cell_volume                     4596.8
loop_
_atom_site_label
_atom_site_type_symbol
_atom_site_fract_x
_atom_site_fract_y
_atom_site_fract_z
C1 C 0.125000 0.4309(8) 0.625000
C2 C 0.125000 0.3307(8) 0.625000
O1 O 0.0331(8) 0.4662(4) 0.6022(2)
O2 O 0.0375(8) 0.2956(4) 0.6012(2)
O5 O 0.2169(8) 0.4662(4) 0.6478(2)
O6 O 0.2125(8) 0.2956(4) 0.6488(2)
Yb2 Yb 0.375000 0.375000 0.68700(2)
O11 O 0.0589(8) 0.3989(4) 0.5153(2)
Yb1 Yb 0.875000 0.375000 0.56300(2)
C3 C 0.6859(10) 0.2806(6) 0.4958(3)
O3 O 0.6911(8) 0.3511(4) 0.5153(2)
O4 O 0.5939(7) 0.2586(5) 0.4696(2)
C4 C 0.8141(10) 0.2194(6) 0.5042(3)
O7 O 0.8089(8) 0.1489(4) 0.4847(2)
O8 O 0.9061(7) 0.2414(5) 0.5304(2)
Yb3 Yb 0.625000 0.125000 0.43700(2)
O9 O 0.7169(8) 0.2838(4) 0.6022(2)
O10 O 0.7125(8) 0.4544(4) 0.6012(2)
O12 O 0.8439(7) 0.5086(5) 0.5304(2)
C3_2 C 0.0641(10) 0.4694(6) 0.4958(3)
O4_2 O 0.1561(7) 0.4914(5) 0.4696(2)
Yb3_2 Yb 0.125000 0.625000 0.43700(2)
C1_2 C 0.625000 0.3191(8) 0.625000
C2_2 C 0.625000 0.4193(8) 0.625000
O5_2 O 0.5331(8) 0.2838(4) 0.6478(2)
O6_2 O 0.5375(8) 0.4544(4) 0.6488(2)
C4_2 C 0.9359(10) 0.5306(6) 0.5042(3)
O7_2 O 0.9411(8) 0.6011(4) 0.4847(2)
C3_3 C 0.0641(10) 0.2806(6) 0.2542(3)
O3_2 O 0.0589(8) 0.3511(4) 0.2347(2)
O4_3 O 0.1561(7) 0.2586(5) 0.2804(2)
Yb3_3 Yb 0.125000 0.125000 0.31300(2)
O9_2 O 0.0331(8) 0.2838(4) 0.1478(2)
O10_2 O 0.0375(8) 0.4544(4) 0.1488(2)
Yb1_2 Yb 0.875000 0.375000 0.18700(2)
C1_3 C 0.625000 0.4309(8) 0.125000
C2_3 C 0.625000 0.3307(8) 0.125000
O1_2 O 0.7169(8) 0.4662(4) 0.1478(2)
O2_2 O 0.7125(8) 0.2956(4) 0.1488(2)
O5_3 O 0.5331(8) 0.4662(4) 0.1022(2)
O6_3 O 0.5375(8) 0.2956(4) 0.1012(2)
C4_3 C 0.9359(10) 0.2194(6) 0.2458(3)
O7_3 O 0.9411(8) 0.1489(4) 0.2653(2)
O8_2 O 0.8439(7) 0.2414(5) 0.2196(2)
Yb2_2 Yb 0.375000 0.375000 0.06300(2)
O11_2 O 0.6911(8) 0.3989(4) 0.2347(2)
O12_2 O 0.9061(7) 0.5086(5) 0.2196(2)
C1_4 C 0.125000 0.3191(8) 0.125000
C2_4 C 0.125000 0.4193(8) 0.125000
O5_4 O 0.2169(8) 0.2838(4) 0.1022(2)
O6_4 O 0.2125(8) 0.4544(4) 0.1012(2)
C3_4 C 0.6859(10) 0.4694(6) 0.2542(3)
O4_4 O 0.5939(7) 0.4914(5) 0.2804(2)
C4_4 C 0.8141(10) 0.5306(6) 0.2458(3)
O7_4 O 0.8089(8) 0.6011(4) 0.2653(2)
Yb3_4 Yb 0.625000 0.625000 0.31300(2)
C1_5 C 0.125000 0.9309(8) 0.125000
C2_5 C 0.125000 0.8307(8) 0.125000
O1_3 O 0.0331(8) 0.9662(4) 0.1022(2)
O2_3 O 0.0375(8) 0.7956(4) 0.1012(2)
O5_5 O 0.2169(8) 0.9662(4) 0.1478(2)
O6_5 O 0.2125(8) 0.7956(4) 0.1488(2)
Yb2_3 Yb 0.375000 0.875000 0.18700(2)
O11_3 O 0.0589(8) 0.8989(4) 0.0153(2)
Yb1_3 Yb 0.875000 0.875000 0.06300(2)
O3_3 O 0.6911(8) 0.8511(4) 0.0153(2)
C4_5 C 0.8141(10) 0.7194(6) 0.0042(3)
O8_3 O 0.9061(7) 0.7414(5) 0.0304(2)
O9_3 O 0.7169(8) 0.7838(4) 0.1022(2)
O10_3 O 0.7125(8) 0.9544(4) 0.1012(2)
C3_5 C 0.6859(10) 0.7806(6) 0.9958(3)
O4_5 O 0.5939(7) 0.7586(5) 0.9696(2)
O7_5 O 0.8089(8) 0.6489(4) 0.9847(2)
Yb3_5 Yb 0.625000 0.625000 0.93700(2)
Yb3_6 Yb 0.125000 0.125000 0.93700(2)
O7_6 O 0.9411(8) 0.1011(4) 0.9847(2)
C1_6 C 0.625000 0.8191(8) 0.125000
C2_6 C 0.625000 0.9193(8) 0.125000
O5_6 O 0.5331(8) 0.7838(4) 0.1478(2)
O6_6 O 0.5375(8) 0.9544(4) 0.1488(2)
C3_6 C 0.0641(10) 0.7806(6) 0.7542(3)
O3_4 O 0.0589(8) 0.8511(4) 0.7347(2)
O4_6 O 0.1561(7) 0.7586(5) 0.7804(2)
Yb3_7 Yb 0.125000 0.625000 0.81300(2)
O9_4 O 0.0331(8) 0.7838(4) 0.6478(2)
O10_4 O 0.0375(8) 0.9544(4) 0.6488(2)
O12_3 O 0.9061(7) 0.0086(5) 0.7196(2)
Yb1_4 Yb 0.875000 0.875000 0.68700(2)
C1_7 C 0.625000 0.9309(8) 0.625000
C2_7 C 0.625000 0.8307(8) 0.625000
O1_4 O 0.7169(8) 0.9662(4) 0.6478(2)
O2_4 O 0.7125(8) 0.7956(4) 0.6488(2)
O5_7 O 0.5331(8) 0.9662(4) 0.6022(2)
O6_7 O 0.5375(8) 0.7956(4) 0.6012(2)
C4_6 C 0.9359(10) 0.7194(6) 0.7458(3)
O7_7 O 0.9411(8) 0.6489(4) 0.7653(2)
O8_4 O 0.8439(7) 0.7414(5) 0.7196(2)
Yb2_4 Yb 0.375000 0.875000 0.56300(2)
O11_4 O 0.6911(8) 0.8989(4) 0.7347(2)
C1_8 C 0.125000 0.8191(8) 0.625000
C2_8 C 0.125000 0.9193(8) 0.625000
O5_8 O 0.2169(8) 0.7838(4) 0.6022(2)
O6_8 O 0.2125(8) 0.9544(4) 0.6012(2)
C4_7 C 0.8141(10) 0.0306(6) 0.7458(3)
O7_8 O 0.8089(8) 0.1011(4) 0.7653(2)
Yb3_8 Yb 0.625000 0.125000 0.81300(2)
C3_7 C 0.6859(10) 0.9694(6) 0.7542(3)
O4_7 O 0.5939(7) 0.9914(5) 0.7804(2)
O3_5 O 0.1911(8) 0.3511(4) 0.0153(2)
C4_8 C 0.3141(10) 0.2194(6) 0.0042(3)
O8_5 O 0.4061(7) 0.2414(5) 0.0304(2)
O11_5 O 0.5589(8) 0.3989(4) 0.0153(2)
O12_4 O 0.3439(7) 0.5086(5) 0.0304(2)
C3_8 C 0.1859(10) 0.2806(6) 0.9958(3)
O4_8 O 0.0939(7) 0.2586(5) 0.9696(2)
O7_9 O 0.3089(8) 0.1489(4) 0.9847(2)
C4_9 C 0.4359(10) 0.5306(6) 0.0042(3)
C3_9 C 0.5641(10) 0.4694(6) 0.9958(3)
O4_9 O 0.6561(7) 0.4914(5) 0.9696(2)
O7_10 O 0.4411(8) 0.6011(4) 0.9847(2)
C3_10 C 0.5641(10) 0.2806(6) 0.7542(3)
O3_6 O 0.5589(8) 0.3511(4) 0.7347(2)
O4_10 O 0.6561(7) 0.2586(5) 0.7804(2)
C4_10 C 0.4359(10) 0.2194(6) 0.7458(3)
O7_11 O 0.4411(8) 0.1489(4) 0.7653(2)
O8_6 O 0.3439(7) 0.2414(5) 0.7196(2)
O11_6 O 0.1911(8) 0.3989(4) 0.7347(2)
O12_5 O 0.4061(7) 0.5086(5) 0.7196(2)
C3_11 C 0.1859(10) 0.4694(6) 0.7542(3)
O4_11 O 0.0939(7) 0.4914(5) 0.7804(2)
C4_11 C 0.3141(10) 0.5306(6) 0.7458(3)
O7_12 O 0.3089(8) 0.6011(4) 0.7653(2)
O12_6 O 0.3439(7) 0.0086(5) 0.5304(2)
C3_12 C 0.1859(10) 0.7806(6) 0.4958(3)
O3_7 O 0.1911(8) 0.8511(4) 0.5153(2)
O4_12 O 0.0939(7) 0.7586(5) 0.4696(2)
C4_12 C 0.3141(10) 0.7194(6) 0.5042(3)
O7_13 O 0.3089(8) 0.6489(4) 0.4847(2)
O8_7 O 0.4061(7) 0.7414(5) 0.5304(2)
O11_7 O 0.5589(8) 0.8989(4) 0.5153(2)
C4_13 C 0.4359(10) 0.0306(6) 0.5042(3)
O7_14 O 0.4411(8) 0.1011(4) 0.4847(2)
C3_13 C 0.5641(10) 0.9694(6) 0.4958(3)
O4_13 O 0.6561(7) 0.9914(5) 0.4696(2)
O12_7 O 0.4061(7) 0.0086(5) 0.2196(2)
C3_14 C 0.5641(10) 0.7806(6) 0.2542(3)
O3_8 O 0.5589(8) 0.8511(4) 0.2347(2)
O4_14 O 0.6561(7) 0.7586(5) 0.2804(2)
C4_14 C 0.4359(10) 0.7194(6) 0.2458(3)
O7_15 O 0.4411(8) 0.6489(4) 0.2653(2)
O8_8 O 0.3439(7) 0.7414(5) 0.2196(2)
O11_8 O 0.1911(8) 0.8989(4) 0.2347(2)
C4_15 C 0.3141(10) 0.0306(6) 0.2458(3)
O7_16 O 0.3089(8) 0.1011(4) 0.2653(2)
C3_15 C 0.1859(10) 0.9694(6) 0.2542(3)
O4_15 O 0.0939(7) 0.9914(5) 0.2804(2)
O9_5 O 0.2831(8) 0.7162(4) 0.3978(2)
O10_5 O 0.2875(8) 0.5456(4) 0.3988(2)
C1_9 C 0.875000 0.5691(8) 0.375000
C2_9 C 0.875000 0.6693(8) 0.375000
O1_5 O 0.9669(8) 0.5338(4) 0.3978(2)
O2_5 O 0.9625(8) 0.7044(4) 0.3988(2)
O5_9 O 0.7831(8) 0.5338(4) 0.3522(2)
O6_9 O 0.7875(8) 0.7044(4) 0.3512(2)
C1_10 C 0.375000 0.6809(8) 0.375000
C2_10 C 0.375000 0.5807(8) 0.375000
O5_10 O 0.4669(8) 0.7162(4) 0.3522(2)
O6_10 O 0.4625(8) 0.5456(4) 0.3512(2)
C1_11 C 0.375000 0.5691(8) 0.875000
C2_11 C 0.375000 0.6693(8) 0.875000
O1_6 O 0.2831(8) 0.5338(4) 0.8522(2)
O2_6 O 0.2875(8) 0.7044(4) 0.8512(2)
O5_11 O 0.4669(8) 0.5338(4) 0.8978(2)
O6_11 O 0.4625(8) 0.7044(4) 0.8988(2)
O9_6 O 0.9669(8) 0.7162(4) 0.8522(2)
O10_6 O 0.9625(8) 0.5456(4) 0.8512(2)
C1_12 C 0.875000 0.6809(8) 0.875000
C2_12 C 0.875000 0.5807(8) 0.875000
O5_12 O 0.7831(8) 0.7162(4) 0.8978(2)
O6_12 O 0.7875(8) 0.5456(4) 0.8988(2)
O9_7 O 0.2831(8) 0.2162(4) 0.8978(2)
O10_7 O 0.2875(8) 0.0456(4) 0.8988(2)
C1_13 C 0.875000 0.0691(8) 0.875000
C2_13 C 0.875000 0.1693(8) 0.875000
O1_7 O 0.9669(8) 0.0338(4) 0.8978(2)
O2_7 O 0.9625(8) 0.2044(4) 0.8988(2)
O5_13 O 0.7831(8) 0.0338(4) 0.8522(2)
O6_13 O 0.7875(8) 0.2044(4) 0.8512(2)
C1_14 C 0.375000 0.1809(8) 0.875000
C2_14 C 0.375000 0.0807(8) 0.875000
O5_14 O 0.4669(8) 0.2162(4) 0.8522(2)
O6_14 O 0.4625(8) 0.0456(4) 0.8512(2)
C1_15 C 0.375000 0.0691(8) 0.375000
C2_15 C 0.375000 0.1693(8) 0.375000
O1_8 O 0.2831(8) 0.0338(4) 0.3522(2)
O2_8 O 0.2875(8) 0.2044(4) 0.3512(2)
O5_15 O 0.4669(8) 0.0338(4) 0.3978(2)
O6_15 O 0.4625(8) 0.2044(4) 0.3988(2)
O9_8 O 0.9669(8) 0.2162(4) 0.3522(2)
O10_8 O 0.9625(8) 0.0456(4) 0.3512(2)
C1_16 C 0.875000 0.1809(8) 0.375000
C2_16 C 0.875000 0.0807(8) 0.375000
O5_16 O 0.7831(8) 0.2162(4) 0.3978(2)
O6_16 O 0.7875(8) 0.0456(4) 0.3988(2)
O12_8 O 0.8439(7) 0.0086(5) 0.0304(2)
C4_16 C 0.9359(10) 0.0306(6) 0.0042(3)
C3_16 C 0.0641(10) 0.9694(6) 0.9958(3)
O4_16 O 0.1561(7) 0.9914(5) 0.9696(2)
loop_
_geom_bond_atom_site_label_1
_geom_bond_atom_site_label_2
_geom_bond_site_symmetry_1
_geom_bond_site_symmetry_2
C1 C2 1_555 1_555
C2 O2 1_555 1_555
O1 C1 1_555 1_555
O5 C1 1_555 1_555
O6 C2 1_555 1_555
Yb2 O5 1_555 1_555
O6 Yb2 1_555 1_555
C3 O3 1_555 1_555
O3 Yb1 1_555 1_555
O4 C3 1_555 1_555
C4 C3 1_555 1_555
O7 C4 1_555 1_555
O8 Yb1 1_555 1_555
Yb3 O4 1_555 1_555
O9 Yb1 1_555 1_555
O10 Yb1 1_555 1_555
O12 Yb1 1_555 1_555
C4 O8 1_555 1_555
O7 Yb3 1_555 1_555
C3_2 O11 1_555 1_555
O4_2 C3_2 1_555 1_555
Yb3_2 O4_2 1_555 1_555
C1_2 C2_2 1_555 1_555
C2_2 O10 1_555 1_555
O9 C1_2 1_555 1_555
O5_2 C1_2 1_555 1_555
O6_2 C2_2 1_555 1_555
O7_2 C4_2 1_555 1_555
Yb2 O5_2 1_555 1_555
O6_2 Yb2 1_555 1_555
C4_2 O12 1_555 1_555
C3_3 O3_2 1_555 1_555
O4_3 C3_3 1_555 1_555
Yb3_3 O4_3 1_555 1_555
Yb1_2 O1_2 1_555 1_555
C1_3 C2_3 1_555 1_555
C2_3 O2_2 1_555 1_555
O1_2 C1_3 1_555 1_555
O2_2 Yb1_2 1_555 1_555
O5_3 C1_3 1_555 1_555
O6_3 C2_3 1_555 1_555
O7_3 C4_3 1_555 1_555
O8_2 Yb1_2 1_555 1_555
Yb2_2 O5_3 1_555 1_555
O11_2 Yb1_2 1_555 1_555
O12_2 Yb1_2 1_555 1_555
O6_3 Yb2_2 1_555 1_555
C4_3 O8_2 1_555 1_555
C1_4 C2_4 1_555 1_555
C2_4 O10_2 1_555 1_555
O9_2 C1_4 1_555 1_555
O5_4 C1_4 1_555 1_555
O6_4 C2_4 1_555 1_555
Yb2_2 O5_4 1_555 1_555
O6_4 Yb2_2 1_555 1_555
C3_4 O11_2 1_555 1_555
O4_4 C3_4 1_555 1_555
C4_4 C3_4 1_555 1_555
O7_4 C4_4 1_555 1_555
Yb3_4 O4_4 1_555 1_555
C4_4 O12_2 1_555 1_555
O7_4 Yb3_4 1_555 1_555
C1_5 C2_5 1_555 1_555
C2_5 O2_3 1_555 1_555
O1_3 C1_5 1_555 1_555
O5_5 C1_5 1_555 1_555
O6_5 C2_5 1_555 1_555
Yb2_3 O5_5 1_555 1_555
O6_5 Yb2_3 1_555 1_555
O3_3 Yb1_3 1_555 1_555
O8_3 Yb1_3 1_555 1_555
O9_3 Yb1_3 1_555 1_555
O10_3 Yb1_3 1_555 1_555
C4_5 O8_3 1_555 1_555
O4_5 C3_5 1_555 1_555
Yb3_5 O4_5 1_555 1_555
O7_5 Yb3_5 1_555 1_555
C1_6 C2_6 1_555 1_555
C2_6 O10_3 1_555 1_555
O9_3 C1_6 1_555 1_555
O5_6 C1_6 1_555 1_555
O6_6 C2_6 1_555 1_555
Yb2_3 O5_6 1_555 1_555
O6_6 Yb2_3 1_555 1_555
C3_6 O3_4 1_555 1_555
O4_6 C3_6 1_555 1_555
Yb3_7 O4_6 1_555 1_555
Yb1_4 O1_4 1_555 1_555
C1_7 C2_7 1_555 1_555
C2_7 O2_4 1_555 1_555
O1_4 C1_7 1_555 1_555
O2_4 Yb1_4 1_555 1_555
O5_7 C1_7 1_555 1_555
O6_7 C2_7 1_555 1_555
O7_7 C4_6 1_555 1_555
O8_4 Yb1_4 1_555 1_555
Yb2_4 O5_7 1_555 1_555
O11_4 Yb1_4 1_555 1_555
O6_7 Yb2_4 1_555 1_555
C4_6 O8_4 1_555 1_555
C1_8 C2_8 1_555 1_555
C2_8 O10_4 1_555 1_555
O9_4 C1_8 1_555 1_555
O5_8 C1_8 1_555 1_555
O6_8 C2_8 1_555 1_555
Yb2_4 O5_8 1_555 1_555
O6_8 Yb2_4 1_555 1_555
O7_8 C4_7 1_555 1_555
C4_7 O12_3 1_555 1_555
O7_8 Yb3_8 1_555 1_555
C3_7 O11_4 1_555 1_555
O4_7 C3_7 1_555 1_555
O3_5 Yb2_2 1_555 1_555
O8_5 Yb2_2 1_555 1_555
O11_5 Yb2_2 1_555 1_555
O12_4 Yb2_2 1_555 1_555
C4_8 O8_5 1_555 1_555
O4_8 C3_8 1_555 1_555
Yb3_6 O4_8 1_555 1_555
O7_9 Yb3_6 1_555 1_555
C4_9 O12_4 1_555 1_555
O4_9 C3_9 1_555 1_555
Yb3_5 O4_9 1_555 1_555
O7_10 Yb3_5 1_555 1_555
C3_10 O3_6 1_555 1_555
O3_6 Yb2 1_555 1_555
O4_10 C3_10 1_555 1_555
C4_10 C3_10 1_555 1_555
O7_11 C4_10 1_555 1_555
O8_6 Yb2 1_555 1_555
Yb3_8 O4_10 1_555 1_555
O11_6 Yb2 1_555 1_555
O12_5 Yb2 1_555 1_555
C4_10 O8_6 1_555 1_555
O7_11 Yb3_8 1_555 1_555
C3_11 O11_6 1_555 1_555
O4_11 C3_11 1_555 1_555
C4_11 C3_11 1_555 1_555
O7_12 C4_11 1_555 1_555
Yb3_7 O4_11 1_555 1_555
C4_11 O12_5 1_555 1_555
O7_12 Yb3_7 1_555 1_555
C3_12 O3_7 1_555 1_555
O3_7 Yb2_4 1_555 1_555
O4_12 C3_12 1_555 1_555
C4_12 C3_12 1_555 1_555
O7_13 C4_12 1_555 1_555
O8_7 Yb2_4 1_555 1_555
Yb3_2 O4_12 1_555 1_555
O11_7 Yb2_4 1_555 1_555
C4_12 O8_7 1_555 1_555
O7_13 Yb3_2 1_555 1_555
O7_14 C4_13 1_555 1_555
C4_13 O12_6 1_555 1_555
O7_14 Yb3 1_555 1_555
C3_13 O11_7 1_555 1_555
O4_13 C3_13 1_555 1_555
C3_14 O3_8 1_555 1_555
O3_8 Yb2_3 1_555 1_555
O4_14 C3_14 1_555 1_555
C4_14 C3_14 1_555 1_555
O7_15 C4_14 1_555 1_555
O8_8 Yb2_3 1_555 1_555
Yb3_4 O4_14 1_555 1_555
O11_8 Yb2_3 1_555 1_555
C4_14 O8_8 1_555 1_555
O7_15 Yb3_4 1_555 1_555
O7_16 C4_15 1_555 1_555
C4_15 O12_7 1_555 1_555
O7_16 Yb3_3 1_555 1_555
C3_15 O11_8 1_555 1_555
O4_15 C3_15 1_555 1_555
O9_5 Yb3_2 1_555 1_555
O10_5 Yb3_2 1_555 1_555
C1_9 C2_9 1_555 1_555
C2_9 O2_5 1_555 1_555
O1_5 C1_9 1_555 1_555
O5_9 C1_9 1_555 1_555
O6_9 C2_9 1_555 1_555
Yb3_4 O5_9 1_555 1_555
O6_9 Yb3_4 1_555 1_555
C1_10 C2_10 1_555 1_555
C2_10 O10_5 1_555 1_555
O9_5 C1_10 1_555 1_555
O5_10 C1_10 1_555 1_555
O6_10 C2_10 1_555 1_555
Yb3_4 O5_10 1_555 1_555
O6_10 Yb3_4 1_555 1_555
Yb3_7 O1_6 1_555 1_555
C1_11 C2_11 1_555 1_555
C2_11 O2_6 1_555 1_555
O1_6 C1_11 1_555 1_555
O2_6 Yb3_7 1_555 1_555
O5_11 C1_11 1_555 1_555
O6_11 C2_11 1_555 1_555
Yb3_5 O5_11 1_555 1_555
O6_11 Yb3_5 1_555 1_555
C1_12 C2_12 1_555 1_555
C2_12 O10_6 1_555 1_555
O9_6 C1_12 1_555 1_555
O5_12 C1_12 1_555 1_555
O6_12 C2_12 1_555 1_555
Yb3_5 O5_12 1_555 1_555
O6_12 Yb3_5 1_555 1_555
O9_7 Yb3_6 1_555 1_555
O10_7 Yb3_6 1_555 1_555
C1_13 C2_13 1_555 1_555
C2_13 O2_7 1_555 1_555
O1_7 C1_13 1_555 1_555
O5_13 C1_13 1_555 1_555
O6_13 C2_13 1_555 1_555
Yb3_8 O5_13 1_555 1_555
O6_13 Yb3_8 1_555 1_555
C1_14 C2_14 1_555 1_555
C2_14 O10_7 1_555 1_555
O9_7 C1_14 1_555 1_555
O5_14 C1_14 1_555 1_555
O6_14 C2_14 1_555 1_555
Yb3_8 O5_14 1_555 1_555
O6_14 Yb3_8 1_555 1_555
Yb3_3 O1_8 1_555 1_555
C1_15 C2_15 1_555 1_555
C2_15 O2_8 1_555 1_555
O1_8 C1_15 1_555 1_555
O2_8 Yb3_3 1_555 1_555
O5_15 C1_15 1_555 1_555
O6_15 C2_15 1_555 1_555
Yb3 O5_15 1_555 1_555
O6_15 Yb3 1_555 1_555
C1_16 C2_16 1_555 1_555
C2_16 O10_8 1_555 1_555
O9_8 C1_16 1_555 1_555
O5_16 C1_16 1_555 1_555
O6_16 C2_16 1_555 1_555
Yb3 O5_16 1_555 1_555
O6_16 Yb3 1_555 1_555
C4_16 O12_8 1_555 1_555
O4_16 C3_16 1_555 1_555

#END
