
###############################################################################
#
# This file contains modified crystal structure data generated from the
# MOF subset of the Cambridge Structural Database (CSD) v543 
# hosted by the Cambridge Crystallographic Data Centre (CCDC).
#
# This work is licensed under the Creative Commons
# Attribution-NonCommercial-ShareAlike 4.0 International License.
# To view a copy of this license, visit
# http://creativecommons.org/licenses/by-nc-sa/4.0/
# or send a letter to
# Creative Commons, PO Box 1866, Mountain View, CA 94042, USA.
#
# CIF created using the CSD Python API on 29 September 2022
# The structure has been converted into the P1 space group
# The structure has a 3D framework
# The original CSD entry JUHNIL is in the orthorhombic crystal system
# The framework has been calculated to contain at least 10.0% void space
# The void calculation uses a probe of radius 1.32A, grid spacing 0.4
#
###############################################################################

data_JUHNIL
_chemical_formula_moiety         '(C144 H96 Cu24 N16 O124)n'
_symmetry_cell_setting           triclinic
_symmetry_space_group_name_H-M   'P 1'
_symmetry_Int_Tables_number      1
_space_group_name_Hall           'P 1'
loop_
_symmetry_equiv_pos_site_id
_symmetry_equiv_pos_as_xyz
1 x,y,z
_cell_length_a                   19.348(2)
_cell_length_b                   21.1104(19)
_cell_length_c                   19.8221(19)
_cell_angle_alpha                90
_cell_angle_beta                 90
_cell_angle_gamma                90
_cell_volume                     8096.22
loop_
_atom_site_label
_atom_site_type_symbol
_atom_site_fract_x
_atom_site_fract_y
_atom_site_fract_z
Cu5 Cu 0.37708(5) 0.2500 0.10258(5)
C10 C 0.1672(3) 0.1655(2) 0.0364(3)
C17 C 0.2714(2) 0.0961(2) 0.0114(3)
C18 C 0.3168(3) 0.1309(2) 0.0606(3)
O7 O 0.11080(19) 0.18599(18) 0.0123(2)
O8 O 0.19469(17) 0.18374(16) 0.09063(19)
O9 O 0.33439(17) 0.18685(16) 0.04403(18)
O10 O 0.33451(19) 0.10215(17) 0.1117(2)
O16 O 0.41258(17) 0.31235(16) 0.16563(19)
H9 H 0.4565 0.3132 0.1638
H10 H 0.3923 0.3460 0.1519
O33 O 0.41258(17) 0.18765(16) 0.16563(19)
H23 H 0.4565 0.1868 0.1638
H24 H 0.3923 0.1540 0.1519
Cu9 Cu 0.05614(4) 0.2500 0.06054(5)
Cu12 Cu 0.15870(4) 0.2500 0.15006(5)
O41 O 0.33439(17) 0.31315(16) 0.04403(18)
O46 O 0.4978(3) 0.2500 0.0414(3)
Cu4 Cu 0.01691(3) 0.05911(3) 0.51328(3)
H2 H 0.0703 0.0322 0.7187
C11 C 0.2019(3) 0.1132(2) 0.9987(3)
C12 C 0.1625(3) 0.0782(2) 0.9530(3)
H3 H 0.1177 0.0910 0.9427
C13 C 0.1898(3) 0.0247(3) 0.9229(3)
C14 C 0.2566(3) 0.0053(3) 0.9385(3)
C15 C 0.2973(3) 0.0422(2) 0.9805(3)
C16 C 0.3720(3) 0.0239(3) 0.9903(3)
N1 N 0.1104(2) 0.0173(2) 0.8413(2)
O6 O 0.01629(18) 0.03009(16) 0.60721(18)
O11 O 0.41547(17) 0.06825(16) 0.9815(2)
O18 O 0.0423(2) 0.1551(2) 0.5356(2)
H11 H 0.0444 0.1619 0.5798
H12 H 0.0111 0.1818 0.5189
C19 C 0.0495(3) 0.1641(2) 0.1721(3)
C20 C 0.0139(3) 0.1099(2) 0.2072(3)
C26 C 0.0273(2) 0.0937(2) 0.2744(3)
C27 C 0.0770(3) 0.1329(2) 0.3168(3)
O19 O 0.01974(19) 0.18418(17) 0.1204(2)
O20 O 0.10571(18) 0.18338(16) 0.19606(19)
O21 O 0.05333(17) 0.18631(15) 0.33566(18)
O22 O 0.13498(17) 0.11060(17) 0.3310(2)
O23 O 0.01267(18) 0.07033(16) 0.41531(18)
Cu13 Cu 0.09902(5) 0.2500 0.39012(5)
Cu17 Cu 0.51691(3) 0.05911(3) 0.98672(3)
O44 O 0.11397(17) 0.03242(18) 0.5032(2)
O12 O 0.38603(17) 0.96758(18) 0.0032(2)
O13 O 0.0281(3) 0.7500 0.0083(3)
H5 H 0.0718 0.7500 0.0023
H6 H 0.0136 0.7500 0.0485
Cu15 Cu 0.48309(3) 0.94089(3) 0.01328(3)
C3 C 0.0331(3) 0.9254(2) 0.8303(3)
H1 H 0.0435 0.9134 0.8743
C4 C 0.0646(3) 0.9783(3) 0.8024(3)
C5 C 0.0504(2) 0.9958(2) 0.7366(3)
C6 C 0.0068(3) 0.9593(2) 0.6972(3)
C7 C 0.0025(2) 0.9741(3) 0.6235(3)
H4 H 0.2739 0.9677 0.9209
N2 N 0.1491(2) 0.9865(2) 0.8796(2)
O17 O 0.0022(3) 0.7500 0.5414(3)
Cu18 Cu 0.12292(5) 0.7500 0.60258(5)
O42 O 0.08453(17) 0.93175(16) 0.4815(2)
C21 C 0.9669(3) 0.0746(2) 0.1697(3)
H15 H 0.9565 0.0866 0.1257
C22 C 0.9354(3) 0.0217(3) 0.1976(3)
C23 C 0.9496(2) 0.0042(2) 0.2634(3)
C24 C 0.9932(3) 0.0407(2) 0.3028(3)
C25 C 0.9975(2) 0.0259(3) 0.3765(3)
H18 H 0.7261 0.0323 0.0791
N4 N 0.8509(2) 0.0135(2) 0.1204(2)
O43 O 0.91547(17) 0.06825(16) 0.5185(2)
O30 O 0.61397(17) 0.03242(18) 0.9968(2)
Cu1 Cu 0.94386(4) 0.7500 0.93946(5)
Cu2 Cu 0.84130(4) 0.7500 0.84994(5)
Cu3 Cu 0.90098(5) 0.7500 0.60988(5)
C1 C 0.9505(3) 0.8359(2) 0.8279(3)
C2 C 0.9861(3) 0.8901(2) 0.7928(3)
C8 C 0.9727(2) 0.9063(2) 0.7256(3)
C9 C 0.9230(3) 0.8671(2) 0.6832(3)
O1 O 0.98026(19) 0.81582(17) 0.8796(2)
O2 O 0.89429(18) 0.81662(16) 0.80394(19)
O3 O 0.94667(17) 0.81369(15) 0.66434(18)
O4 O 0.86502(17) 0.88940(17) 0.6690(2)
O5 O 0.98733(18) 0.92967(16) 0.58469(18)
O14 O 0.7522(3) 0.7500 0.7829(4)
O15 O 0.8490(2) 0.8150(2) 0.5613(3)
H7 H 0.8549 0.8119 0.5193
H8 H 0.8071 0.8143 0.5756
H13 H 0.7507 0.7867 0.7485
H14 H 0.7507 0.7133 0.7485
Cu6 Cu 0.98309(3) 0.94089(3) 0.48672(3)
H16 H 0.9297 0.9678 0.2813
C29 C 0.7981(3) 0.8868(2) 0.0013(3)
C30 C 0.8375(3) 0.9218(2) 0.0470(3)
H17 H 0.8823 0.9090 0.0573
C31 C 0.8102(3) 0.9753(3) 0.0771(3)
C32 C 0.7434(3) 0.9947(3) 0.0615(3)
C33 C 0.7027(3) 0.9578(2) 0.0195(3)
C34 C 0.6280(3) 0.9761(3) 0.0097(3)
N3 N 0.8896(2) 0.9827(2) 0.1587(2)
O24 O 0.98371(18) 0.96991(16) 0.39279(18)
O29 O 0.58453(17) 0.93175(16) 0.0185(2)
O31 O 0.9577(2) 0.8449(2) 0.4644(2)
H19 H 0.9556 0.8381 0.4202
H20 H 0.9889 0.8182 0.4811
O32 O 0.8490(2) 0.6850(2) 0.5613(3)
H21 H 0.8549 0.6881 0.5193
H22 H 0.8071 0.6857 0.5756
O34 O 0.98026(19) 0.68418(17) 0.8796(2)
O35 O 0.89429(18) 0.68338(16) 0.80394(19)
O36 O 0.94667(17) 0.68631(15) 0.66434(18)
O37 O 0.88920(19) 0.68599(18) 0.9877(2)
O38 O 0.88920(19) 0.81401(18) 0.9877(2)
O39 O 0.80531(17) 0.68374(16) 0.90937(19)
O40 O 0.80531(17) 0.81626(16) 0.90937(19)
O45 O 0.88603(17) 0.96758(18) 0.4968(2)
C28 C 0.8328(3) 0.8345(2) 0.9636(3)
C35 C 0.7286(2) 0.9039(2) 0.9886(3)
C36 C 0.6832(3) 0.8691(2) 0.9394(3)
O27 O 0.66561(17) 0.81315(16) 0.95597(18)
O28 O 0.66549(19) 0.89785(17) 0.8883(2)
Cu19 Cu 0.62292(5) 0.7500 0.89742(5)
Cu1_2 Cu 0.55614(4) 0.2500 0.43946(5)
Cu2_2 Cu 0.65870(4) 0.2500 0.34994(5)
Cu3_2 Cu 0.59902(5) 0.2500 0.10988(5)
C1_2 C 0.5495(3) 0.1641(2) 0.3279(3)
C2_2 C 0.5139(3) 0.1099(2) 0.2928(3)
C3_2 C 0.4669(3) 0.0746(2) 0.3303(3)
H1_2 H 0.4565 0.0866 0.3743
C4_2 C 0.4354(3) 0.0217(3) 0.3024(3)
C5_2 C 0.4496(2) 0.0042(2) 0.2366(3)
C6_2 C 0.4932(3) 0.0407(2) 0.1972(3)
C7_2 C 0.4975(2) 0.0259(3) 0.1235(3)
C8_2 C 0.5273(2) 0.0937(2) 0.2256(3)
C9_2 C 0.5770(3) 0.1329(2) 0.1832(3)
H4_2 H 0.2261 0.0323 0.4209
N2_2 N 0.3509(2) 0.0135(2) 0.3796(2)
O1_2 O 0.51974(19) 0.18418(17) 0.3796(2)
O2_2 O 0.60571(18) 0.18338(16) 0.30394(19)
O3_2 O 0.55333(17) 0.18631(15) 0.16434(18)
O4_2 O 0.63498(17) 0.11060(17) 0.1690(2)
O5_2 O 0.51267(18) 0.07033(16) 0.08469(18)
O13_2 O 0.4719(3) 0.2500 0.5083(3)
H5_2 H 0.4282 0.2500 0.5023
H6_2 H 0.4864 0.2500 0.5485
O14_2 O 0.7478(3) 0.2500 0.2829(4)
O15_2 O 0.6510(2) 0.1850(2) 0.0613(3)
H7_2 H 0.6451 0.1881 0.0193
H8_2 H 0.6929 0.1857 0.0756
H13_2 H 0.7493 0.2133 0.2485
H14_2 H 0.7493 0.2867 0.2485
O32_2 O 0.6510(2) 0.3150(2) 0.0613(3)
H21_2 H 0.6451 0.3119 0.0193
H22_2 H 0.6929 0.3143 0.0756
O34_2 O 0.51974(19) 0.31582(17) 0.3796(2)
O35_2 O 0.60571(18) 0.31662(16) 0.30394(19)
O36_2 O 0.55333(17) 0.31369(15) 0.16434(18)
O37_2 O 0.61080(19) 0.31401(18) 0.4877(2)
O38_2 O 0.61080(19) 0.18599(18) 0.4877(2)
O39_2 O 0.69469(17) 0.31626(16) 0.40937(19)
O40_2 O 0.69469(17) 0.18374(16) 0.40937(19)
H16_2 H 0.5703 0.0322 0.7813
C28_2 C 0.6672(3) 0.1655(2) 0.4636(3)
C29_2 C 0.7019(3) 0.1132(2) 0.5013(3)
C30_2 C 0.6625(3) 0.0782(2) 0.5470(3)
H17_2 H 0.6177 0.0910 0.5573
C31_2 C 0.6898(3) 0.0247(3) 0.5771(3)
C32_2 C 0.7566(3) 0.0053(3) 0.5615(3)
C33_2 C 0.7973(3) 0.0422(2) 0.5195(3)
C34_2 C 0.8720(3) 0.0239(3) 0.5097(3)
C35_2 C 0.7714(2) 0.0961(2) 0.4886(3)
C36_2 C 0.8168(3) 0.1309(2) 0.4394(3)
N3_2 N 0.6104(2) 0.0173(2) 0.6587(2)
O24_2 O 0.51629(18) 0.03009(16) 0.89279(18)
O27_2 O 0.83439(17) 0.18685(16) 0.45597(18)
O28_2 O 0.83451(19) 0.10215(17) 0.3883(2)
O31_2 O 0.5423(2) 0.1551(2) 0.9644(2)
H19_2 H 0.5444 0.1619 0.9202
H20_2 H 0.5111 0.1818 0.9811
Cu19_2 Cu 0.87708(5) 0.2500 0.39742(5)
H2_2 H 0.4297 0.9678 0.2187
C10_2 C 0.3328(3) 0.8345(2) 0.5364(3)
C11_2 C 0.2981(3) 0.8868(2) 0.4987(3)
C12_2 C 0.3375(3) 0.9218(2) 0.4530(3)
H3_2 H 0.3823 0.9090 0.4427
C13_2 C 0.3102(3) 0.9753(3) 0.4229(3)
C14_2 C 0.2434(3) 0.9947(3) 0.4385(3)
C15_2 C 0.2027(3) 0.9578(2) 0.4805(3)
C16_2 C 0.1280(3) 0.9761(3) 0.4903(3)
C17_2 C 0.2286(2) 0.9039(2) 0.5114(3)
C18_2 C 0.1832(3) 0.8691(2) 0.5606(3)
N1_2 N 0.3896(2) 0.9827(2) 0.3413(2)
O6_2 O 0.48371(18) 0.96991(16) 0.10721(18)
O7_2 O 0.38920(19) 0.81401(18) 0.5123(2)
O8_2 O 0.30531(17) 0.81626(16) 0.59063(19)
O9_2 O 0.16561(17) 0.81315(16) 0.54403(18)
O10_2 O 0.16549(19) 0.89785(17) 0.6117(2)
O16_2 O 0.08742(17) 0.68765(16) 0.66563(19)
H9_2 H 0.0435 0.6868 0.6638
H10_2 H 0.1077 0.6540 0.6519
O18_2 O 0.4577(2) 0.8449(2) 0.0356(2)
H11_2 H 0.4556 0.8381 0.0798
H12_2 H 0.4889 0.8182 0.0189
O33_2 O 0.08742(17) 0.81235(16) 0.66563(19)
H23_2 H 0.0435 0.8132 0.6638
H24_2 H 0.1077 0.8460 0.6519
Cu9_2 Cu 0.44386(4) 0.7500 0.56054(5)
Cu12_2 Cu 0.34130(4) 0.7500 0.65006(5)
O41_2 O 0.16561(17) 0.68685(16) 0.54403(18)
C19_2 C 0.4505(3) 0.8359(2) 0.6721(3)
C20_2 C 0.4861(3) 0.8901(2) 0.7072(3)
C21_2 C 0.5331(3) 0.9254(2) 0.6697(3)
H15_2 H 0.5435 0.9134 0.6257
C22_2 C 0.5646(3) 0.9783(3) 0.6976(3)
C23_2 C 0.5504(2) 0.9958(2) 0.7634(3)
C24_2 C 0.5068(3) 0.9593(2) 0.8028(3)
C25_2 C 0.5025(2) 0.9741(3) 0.8765(3)
C26_2 C 0.4727(2) 0.9063(2) 0.7744(3)
C27_2 C 0.4230(3) 0.8671(2) 0.8168(3)
H18_2 H 0.7739 0.9677 0.5791
N4_2 N 0.6491(2) 0.9865(2) 0.6204(2)
O19_2 O 0.48026(19) 0.81582(17) 0.6204(2)
O20_2 O 0.39429(18) 0.81662(16) 0.69606(19)
O21_2 O 0.44667(17) 0.81369(15) 0.83566(18)
O22_2 O 0.36502(17) 0.88940(17) 0.8310(2)
O23_2 O 0.48733(18) 0.92967(16) 0.91531(18)
Cu13_2 Cu 0.40098(5) 0.7500 0.89012(5)
Cu17_2 Cu 0.01691(3) 0.44089(3) 0.51328(3)
Cu6_2 Cu 0.48309(3) 0.55911(3) 0.01328(3)
C19_3 C 0.5495(3) 0.3359(2) 0.3279(3)
C20_3 C 0.5139(3) 0.3901(2) 0.2928(3)
C21_3 C 0.4669(3) 0.4254(2) 0.3303(3)
H15_3 H 0.4565 0.4134 0.3743
C22_3 C 0.4354(3) 0.4783(3) 0.3024(3)
C23_3 C 0.4496(2) 0.4958(2) 0.2366(3)
H16_3 H 0.4297 0.5322 0.2187
C24_3 C 0.4932(3) 0.4593(2) 0.1972(3)
C25_3 C 0.4975(2) 0.4741(3) 0.1235(3)
C26_3 C 0.5273(2) 0.4063(2) 0.2256(3)
C27_3 C 0.5770(3) 0.3671(2) 0.1832(3)
C28_3 C 0.3328(3) 0.6655(2) 0.5364(3)
C29_3 C 0.2981(3) 0.6132(2) 0.4987(3)
C30_3 C 0.3375(3) 0.5782(2) 0.4530(3)
H17_3 H 0.3823 0.5910 0.4427
C31_3 C 0.3102(3) 0.5247(3) 0.4229(3)
C32_3 C 0.2434(3) 0.5053(3) 0.4385(3)
H18_3 H 0.2261 0.4677 0.4209
C33_3 C 0.2027(3) 0.5422(2) 0.4805(3)
C34_3 C 0.1280(3) 0.5239(3) 0.4903(3)
C35_3 C 0.2286(2) 0.5961(2) 0.5114(3)
C36_3 C 0.1832(3) 0.6309(2) 0.5606(3)
N3_3 N 0.3896(2) 0.5173(2) 0.3413(2)
N4_3 N 0.3509(2) 0.4865(2) 0.3796(2)
O22_3 O 0.63498(17) 0.38940(17) 0.1690(2)
O23_3 O 0.51267(18) 0.42967(16) 0.08469(18)
O24_3 O 0.48371(18) 0.53009(16) 0.10721(18)
O25 O 0.38920(19) 0.68599(18) 0.5123(2)
O26 O 0.30531(17) 0.68374(16) 0.59063(19)
O28_3 O 0.16549(19) 0.60215(17) 0.6117(2)
O29_2 O 0.08453(17) 0.56825(16) 0.4815(2)
O30_2 O 0.11397(17) 0.46758(18) 0.5032(2)
O31_3 O 0.4577(2) 0.6551(2) 0.0356(2)
H19_3 H 0.4556 0.6619 0.0798
H20_3 H 0.4889 0.6818 0.0189
O42_2 O 0.58453(17) 0.56825(16) 0.0185(2)
O45_2 O 0.38603(17) 0.53242(18) 0.0032(2)
Cu4_2 Cu 0.51691(3) 0.44089(3) 0.98672(3)
C1_3 C 0.4505(3) 0.6641(2) 0.6721(3)
C2_3 C 0.4861(3) 0.6099(2) 0.7072(3)
C3_3 C 0.5331(3) 0.5746(2) 0.6697(3)
H1_3 H 0.5435 0.5866 0.6257
C4_3 C 0.5646(3) 0.5217(3) 0.6976(3)
C5_3 C 0.5504(2) 0.5042(2) 0.7634(3)
H2_3 H 0.5703 0.4678 0.7813
C6_3 C 0.5068(3) 0.5407(2) 0.8028(3)
C7_3 C 0.5025(2) 0.5259(3) 0.8765(3)
C8_3 C 0.4727(2) 0.5937(2) 0.7744(3)
C9_3 C 0.4230(3) 0.6329(2) 0.8168(3)
C10_3 C 0.6672(3) 0.3345(2) 0.4636(3)
C11_3 C 0.7019(3) 0.3868(2) 0.5013(3)
C12_3 C 0.6625(3) 0.4218(2) 0.5470(3)
H3_3 H 0.6177 0.4090 0.5573
C13_3 C 0.6898(3) 0.4753(3) 0.5771(3)
C14_3 C 0.7566(3) 0.4947(3) 0.5615(3)
H4_3 H 0.7739 0.5323 0.5791
C15_3 C 0.7973(3) 0.4578(2) 0.5195(3)
C16_3 C 0.8720(3) 0.4761(3) 0.5097(3)
C17_3 C 0.7714(2) 0.4039(2) 0.4886(3)
C18_3 C 0.8168(3) 0.3691(2) 0.4394(3)
N1_3 N 0.6104(2) 0.4827(2) 0.6587(2)
N2_3 N 0.6491(2) 0.5135(2) 0.6204(2)
O1_3 O 0.48026(19) 0.68418(17) 0.6204(2)
O2_3 O 0.39429(18) 0.68338(16) 0.69606(19)
O3_3 O 0.44667(17) 0.68631(15) 0.83566(18)
O4_3 O 0.36502(17) 0.61060(17) 0.8310(2)
O5_3 O 0.48733(18) 0.57033(16) 0.91531(18)
O6_3 O 0.51629(18) 0.46991(16) 0.89279(18)
O9_3 O 0.83439(17) 0.31315(16) 0.45597(18)
O10_3 O 0.83451(19) 0.39785(17) 0.3883(2)
O11_2 O 0.91547(17) 0.43175(16) 0.5185(2)
O12_2 O 0.88603(17) 0.53242(18) 0.4968(2)
O13_3 O 0.5281(3) 0.7500 0.4917(3)
H5_3 H 0.5718 0.7500 0.4977
H6_3 H 0.5136 0.7500 0.4515
O14_3 O 0.2522(3) 0.7500 0.7171(4)
O15_3 O 0.3490(2) 0.6850(2) 0.9387(3)
H7_3 H 0.3549 0.6881 0.9807
H8_3 H 0.3071 0.6857 0.9244
O16_3 O 0.91258(17) 0.18765(16) 0.33437(19)
H9_3 H 0.9565 0.1868 0.3362
H10_3 H 0.8923 0.1540 0.3481
O17_2 O 0.5022(3) 0.7500 0.9586(3)
O18_3 O 0.5423(2) 0.3449(2) 0.9644(2)
H11_3 H 0.5444 0.3381 0.9202
H12_3 H 0.5111 0.3182 0.9811
H13_3 H 0.2507 0.7133 0.7515
H14_3 H 0.2507 0.7867 0.7515
O32_3 O 0.3490(2) 0.8150(2) 0.9387(3)
H21_3 H 0.3549 0.8119 0.9807
H22_3 H 0.3071 0.8143 0.9244
O33_3 O 0.91258(17) 0.31235(16) 0.33437(19)
H23_3 H 0.9565 0.3132 0.3362
H24_3 H 0.8923 0.3460 0.3481
Cu15_2 Cu 0.98309(3) 0.55911(3) 0.48672(3)
O43_2 O 0.41547(17) 0.43175(16) 0.9815(2)
O44_2 O 0.61397(17) 0.46758(18) 0.9968(2)
O46_2 O 0.9978(3) 0.2500 0.4586(3)
C28_4 C 0.1672(3) 0.3345(2) 0.0364(3)
C35_4 C 0.2714(2) 0.4039(2) 0.0114(3)
C36_4 C 0.3168(3) 0.3691(2) 0.0606(3)
O25_2 O 0.11080(19) 0.31401(18) 0.0123(2)
O26_2 O 0.19469(17) 0.31626(16) 0.09063(19)
O28_4 O 0.33451(19) 0.39785(17) 0.1117(2)
C1_4 C 0.0495(3) 0.3359(2) 0.1721(3)
C2_4 C 0.0139(3) 0.3901(2) 0.2072(3)
C8_4 C 0.0273(2) 0.4063(2) 0.2744(3)
C9_4 C 0.0770(3) 0.3671(2) 0.3168(3)
O1_4 O 0.01974(19) 0.31582(17) 0.1204(2)
O2_4 O 0.10571(18) 0.31662(16) 0.19606(19)
O3_4 O 0.05333(17) 0.31369(15) 0.33566(18)
O4_4 O 0.13498(17) 0.38940(17) 0.3310(2)
O5_4 O 0.01267(18) 0.42967(16) 0.41531(18)
O14_4 O 0.2478(3) 0.2500 0.2171(4)
O15_4 O 0.1510(2) 0.3150(2) 0.4387(3)
H7_4 H 0.1451 0.3119 0.4807
H8_4 H 0.1929 0.3143 0.4244
H13_4 H 0.2493 0.2867 0.2515
H14_4 H 0.2493 0.2133 0.2515
C21_4 C 0.0331(3) 0.5746(2) 0.8303(3)
H15_4 H 0.0435 0.5866 0.8743
C22_4 C 0.0646(3) 0.5217(3) 0.8024(3)
C23_4 C 0.0504(2) 0.5042(2) 0.7366(3)
H16_4 H 0.0703 0.4678 0.7187
C24_4 C 0.0068(3) 0.5407(2) 0.6972(3)
C25_4 C 0.0025(2) 0.5259(3) 0.6235(3)
C29_4 C 0.2019(3) 0.3868(2) 0.9987(3)
C30_4 C 0.1625(3) 0.4218(2) 0.9530(3)
H17_4 H 0.1177 0.4090 0.9427
C31_4 C 0.1898(3) 0.4753(3) 0.9229(3)
C32_4 C 0.2566(3) 0.4947(3) 0.9385(3)
H18_4 H 0.2739 0.5323 0.9209
C33_4 C 0.2973(3) 0.4578(2) 0.9805(3)
C34_4 C 0.3720(3) 0.4761(3) 0.9903(3)
N3_4 N 0.1104(2) 0.4827(2) 0.8413(2)
N4_4 N 0.1491(2) 0.5135(2) 0.8796(2)
O24_4 O 0.01629(18) 0.46991(16) 0.60721(18)
O31_4 O 0.0423(2) 0.3449(2) 0.5356(2)
H19_4 H 0.0444 0.3381 0.5798
H20_4 H 0.0111 0.3182 0.5189
O32_4 O 0.1510(2) 0.1850(2) 0.4387(3)
H21_4 H 0.1451 0.1881 0.4807
H22_4 H 0.1929 0.1857 0.4244
C3_4 C 0.9669(3) 0.4254(2) 0.1697(3)
H1_4 H 0.9565 0.4134 0.1257
C4_4 C 0.9354(3) 0.4783(3) 0.1976(3)
C5_4 C 0.9496(2) 0.4958(2) 0.2634(3)
H2_4 H 0.9297 0.5322 0.2813
C6_4 C 0.9932(3) 0.4593(2) 0.3028(3)
C7_4 C 0.9975(2) 0.4741(3) 0.3765(3)
C11_4 C 0.7981(3) 0.6132(2) 0.0013(3)
C12_4 C 0.8375(3) 0.5782(2) 0.0470(3)
H3_4 H 0.8823 0.5910 0.0573
C13_4 C 0.8102(3) 0.5247(3) 0.0771(3)
C14_4 C 0.7434(3) 0.5053(3) 0.0615(3)
H4_4 H 0.7261 0.4677 0.0791
C15_4 C 0.7027(3) 0.5422(2) 0.0195(3)
C16_4 C 0.6280(3) 0.5239(3) 0.0097(3)
N1_4 N 0.8896(2) 0.5173(2) 0.1587(2)
N2_4 N 0.8509(2) 0.4865(2) 0.1204(2)
O6_4 O 0.98371(18) 0.53009(16) 0.39279(18)
O18_4 O 0.9577(2) 0.6551(2) 0.4644(2)
H11_4 H 0.9556 0.6619 0.4202
H12_4 H 0.9889 0.6818 0.4811
C19_4 C 0.9505(3) 0.6641(2) 0.8279(3)
C20_4 C 0.9861(3) 0.6099(2) 0.7928(3)
C26_4 C 0.9727(2) 0.5937(2) 0.7256(3)
C27_4 C 0.9230(3) 0.6329(2) 0.6832(3)
O22_4 O 0.86502(17) 0.61060(17) 0.6690(2)
O23_4 O 0.98733(18) 0.57033(16) 0.58469(18)
C10_4 C 0.8328(3) 0.6655(2) 0.9636(3)
C17_4 C 0.7286(2) 0.5961(2) 0.9886(3)
C18_4 C 0.6832(3) 0.6309(2) 0.9394(3)
O9_4 O 0.66561(17) 0.68685(16) 0.95597(18)
O10_4 O 0.66549(19) 0.60215(17) 0.8883(2)
O13_4 O 0.9719(3) 0.2500 0.9917(3)
H5_4 H 0.9282 0.2500 0.9977
H6_4 H 0.9864 0.2500 0.9515
O16_4 O 0.58742(17) 0.81235(16) 0.83437(19)
H9_4 H 0.5435 0.8132 0.8362
H10_4 H 0.6077 0.8460 0.8481
O33_4 O 0.58742(17) 0.68765(16) 0.83437(19)
H23_4 H 0.5435 0.6868 0.8362
H24_4 H 0.6077 0.6540 0.8481
loop_
_geom_bond_atom_site_label_1
_geom_bond_atom_site_label_2
_geom_bond_site_symmetry_1
_geom_bond_site_symmetry_2
Cu5 O9 1_555 1_555
C18 C17 1_555 1_555
O7 C10 1_555 1_555
O8 C10 1_555 1_555
O9 C18 1_555 1_555
O10 C18 1_555 1_555
O16 Cu5 1_555 1_555
H9 O16 1_555 1_555
H10 O16 1_555 1_555
O33 Cu5 1_555 1_555
H23 O33 1_555 1_555
H24 O33 1_555 1_555
Cu9 O7 1_555 1_555
Cu12 O8 1_555 1_555
O41 Cu5 1_555 1_555
O46 Cu5 1_555 1_555
Cu9 Cu12 1_555 1_555
Cu4 O6 1_555 1_555
C11 C12 1_555 1_555
C12 H3 1_555 1_555
C13 C12 1_555 1_555
C14 C13 1_555 1_555
C15 C14 1_555 1_555
C16 C15 1_555 1_555
O11 C16 1_555 1_555
O18 Cu4 1_555 1_555
H11 O18 1_555 1_555
H12 O18 1_555 1_555
C19 C20 1_555 1_555
C26 C20 1_555 1_555
C27 C26 1_555 1_555
O19 C19 1_555 1_555
O20 C19 1_555 1_555
O21 C27 1_555 1_555
O22 C27 1_555 1_555
O23 Cu4 1_555 1_555
Cu9 O19 1_555 1_555
Cu12 O20 1_555 1_555
Cu13 O21 1_555 1_555
Cu17 O11 1_555 1_555
O44 Cu4 1_555 1_555
H5 O13 1_555 1_555
H6 O13 1_555 1_555
Cu15 O12 1_555 1_555
C3 H1 1_555 1_555
C4 C3 1_555 1_555
C5 C4 1_555 1_555
C6 C5 1_555 1_555
C7 C6 1_555 1_555
Cu18 O17 1_555 1_555
C21 H15 1_555 1_555
C22 C21 1_555 1_555
C23 C22 1_555 1_555
C24 C23 1_555 1_555
C25 C24 1_555 1_555
Cu17 O30 1_555 1_555
Cu1 Cu2 1_555 1_555
Cu2 O2 1_555 1_555
Cu3 O3 1_555 1_555
C1 C2 1_555 1_555
C8 C2 1_555 1_555
C9 C8 1_555 1_555
O1 Cu1 1_555 1_555
O2 C1 1_555 1_555
O3 C9 1_555 1_555
O4 C9 1_555 1_555
O14 Cu2 1_555 1_555
O15 Cu3 1_555 1_555
H7 O15 1_555 1_555
H8 O15 1_555 1_555
H13 O14 1_555 1_555
H14 O14 1_555 1_555
C29 C30 1_555 1_555
C30 H17 1_555 1_555
C31 C30 1_555 1_555
C32 C31 1_555 1_555
C33 C32 1_555 1_555
C34 C33 1_555 1_555
O24 Cu6 1_555 1_555
O29 C34 1_555 1_555
O31 Cu6 1_555 1_555
H19 O31 1_555 1_555
H20 O31 1_555 1_555
O32 Cu3 1_555 1_555
H21 O32 1_555 1_555
H22 O32 1_555 1_555
Cu15 O29 1_555 1_555
O34 Cu1 1_555 1_555
O35 Cu2 1_555 1_555
O36 Cu3 1_555 1_555
O37 Cu1 1_555 1_555
O38 Cu1 1_555 1_555
O39 Cu2 1_555 1_555
O40 Cu2 1_555 1_555
O45 Cu6 1_555 1_555
C1 O1 1_555 1_555
O5 Cu6 1_555 1_555
C36 C35 1_555 1_555
O38 C28 1_555 1_555
O40 C28 1_555 1_555
O27 C36 1_555 1_555
O28 C36 1_555 1_555
Cu19 O27 1_555 1_555
Cu1_2 Cu2_2 1_555 1_555
Cu2_2 O2_2 1_555 1_555
Cu3_2 O3_2 1_555 1_555
C1_2 C2_2 1_555 1_555
C2_2 C3_2 1_555 1_555
C3_2 H1_2 1_555 1_555
C4_2 C3_2 1_555 1_555
C5_2 C4_2 1_555 1_555
C6_2 C5_2 1_555 1_555
C7_2 C6_2 1_555 1_555
C8_2 C2_2 1_555 1_555
C9_2 C8_2 1_555 1_555
O1_2 Cu1_2 1_555 1_555
O2_2 C1_2 1_555 1_555
O3_2 C9_2 1_555 1_555
O4_2 C9_2 1_555 1_555
O5_2 C7_2 1_555 1_555
O13_2 Cu1_2 1_555 1_555
H5_2 O13_2 1_555 1_555
H6_2 O13_2 1_555 1_555
O14_2 Cu2_2 1_555 1_555
O15_2 Cu3_2 1_555 1_555
H7_2 O15_2 1_555 1_555
H8_2 O15_2 1_555 1_555
O46 Cu3_2 1_555 1_555
H13_2 O14_2 1_555 1_555
H14_2 O14_2 1_555 1_555
O32_2 Cu3_2 1_555 1_555
H21_2 O32_2 1_555 1_555
H22_2 O32_2 1_555 1_555
O34_2 Cu1_2 1_555 1_555
O35_2 Cu2_2 1_555 1_555
O36_2 Cu3_2 1_555 1_555
O37_2 Cu1_2 1_555 1_555
O38_2 Cu1_2 1_555 1_555
O39_2 Cu2_2 1_555 1_555
O40_2 Cu2_2 1_555 1_555
C1_2 O1_2 1_555 1_555
C6_2 C8_2 1_555 1_555
C28_2 C29_2 1_555 1_555
C29_2 C30_2 1_555 1_555
C30_2 H17_2 1_555 1_555
C31_2 C30_2 1_555 1_555
C32_2 C31_2 1_555 1_555
C33_2 C32_2 1_555 1_555
C34_2 C33_2 1_555 1_555
C35_2 C29_2 1_555 1_555
C36_2 C35_2 1_555 1_555
O24_2 Cu17 1_555 1_555
O38_2 C28_2 1_555 1_555
O40_2 C28_2 1_555 1_555
O27_2 C36_2 1_555 1_555
O28_2 C36_2 1_555 1_555
O43 C34_2 1_555 1_555
O31_2 Cu17 1_555 1_555
H19_2 O31_2 1_555 1_555
H20_2 O31_2 1_555 1_555
Cu19_2 O27_2 1_555 1_555
C33_2 C35_2 1_555 1_555
Cu15 O6_2 1_555 1_555
Cu18 O9_2 1_555 1_555
C10_2 C11_2 1_555 1_555
C11_2 C12_2 1_555 1_555
C12_2 H3_2 1_555 1_555
C13_2 C12_2 1_555 1_555
C14_2 C13_2 1_555 1_555
C15_2 C14_2 1_555 1_555
C16_2 C15_2 1_555 1_555
C17_2 C11_2 1_555 1_555
C18_2 C17_2 1_555 1_555
O7_2 C10_2 1_555 1_555
O8_2 C10_2 1_555 1_555
O9_2 C18_2 1_555 1_555
O10_2 C18_2 1_555 1_555
O42 C16_2 1_555 1_555
O16_2 Cu18 1_555 1_555
H9_2 O16_2 1_555 1_555
H10_2 O16_2 1_555 1_555
O18_2 Cu15 1_555 1_555
H11_2 O18_2 1_555 1_555
H12_2 O18_2 1_555 1_555
O33_2 Cu18 1_555 1_555
H23_2 O33_2 1_555 1_555
H24_2 O33_2 1_555 1_555
Cu9_2 O7_2 1_555 1_555
Cu12_2 O8_2 1_555 1_555
O41_2 Cu18 1_555 1_555
C15_2 C17_2 1_555 1_555
Cu9_2 Cu12_2 1_555 1_555
C19_2 C20_2 1_555 1_555
C20_2 C21_2 1_555 1_555
C21_2 H15_2 1_555 1_555
C22_2 C21_2 1_555 1_555
C23_2 C22_2 1_555 1_555
C24_2 C23_2 1_555 1_555
C25_2 C24_2 1_555 1_555
C26_2 C20_2 1_555 1_555
C27_2 C26_2 1_555 1_555
O19_2 C19_2 1_555 1_555
O20_2 C19_2 1_555 1_555
O21_2 C27_2 1_555 1_555
O22_2 C27_2 1_555 1_555
Cu9_2 O19_2 1_555 1_555
Cu12_2 O20_2 1_555 1_555
Cu13_2 O21_2 1_555 1_555
C24_2 C26_2 1_555 1_555
C25_2 O23_2 1_555 1_555
C19_3 C20_3 1_555 1_555
C20_3 C21_3 1_555 1_555
C21_3 H15_3 1_555 1_555
C22_3 C21_3 1_555 1_555
C23_3 C22_3 1_555 1_555
H16_3 C23_3 1_555 1_555
C24_3 C23_3 1_555 1_555
C25_3 C24_3 1_555 1_555
C26_3 C20_3 1_555 1_555
C27_3 C26_3 1_555 1_555
C28_3 C29_3 1_555 1_555
C29_3 C30_3 1_555 1_555
C30_3 H17_3 1_555 1_555
C31_3 C30_3 1_555 1_555
C32_3 C31_3 1_555 1_555
H18_3 C32_3 1_555 1_555
C33_3 C32_3 1_555 1_555
C34_3 C33_3 1_555 1_555
C35_3 C29_3 1_555 1_555
C36_3 C35_3 1_555 1_555
N3_3 C22_3 1_555 1_555
N4_3 C31_3 1_555 1_555
O34_2 C19_3 1_555 1_555
O35_2 C19_3 1_555 1_555
O36_2 C27_3 1_555 1_555
O22_3 C27_3 1_555 1_555
O24_3 Cu6_2 1_555 1_555
O25 C28_3 1_555 1_555
O26 C28_3 1_555 1_555
O41_2 C36_3 1_555 1_555
O28_3 C36_3 1_555 1_555
O29_2 C34_3 1_555 1_555
O30_2 C34_3 1_555 1_555
O31_3 Cu6_2 1_555 1_555
H19_3 O31_3 1_555 1_555
H20_3 O31_3 1_555 1_555
Cu9_2 O25 1_555 1_555
Cu12_2 O26 1_555 1_555
Cu17_2 O30_2 1_555 1_555
O42_2 Cu6_2 1_555 1_555
O45_2 Cu6_2 1_555 1_555
C24_3 C26_3 1_555 1_555
C25_3 O23_3 1_555 1_555
C25_3 O24_3 1_555 1_555
C33_3 C35_3 1_555 1_555
N3_3 N4_3 1_555 1_555
Cu12_2 O2_3 1_555 1_555
Cu13_2 O3_3 1_555 1_555
Cu4_2 O6_3 1_555 1_555
Cu19_2 O9_3 1_555 1_555
C1_3 C2_3 1_555 1_555
C2_3 C3_3 1_555 1_555
C3_3 H1_3 1_555 1_555
C4_3 C3_3 1_555 1_555
C5_3 C4_3 1_555 1_555
H2_3 C5_3 1_555 1_555
C6_3 C5_3 1_555 1_555
C7_3 C6_3 1_555 1_555
C8_3 C2_3 1_555 1_555
C9_3 C8_3 1_555 1_555
C10_3 C11_3 1_555 1_555
C11_3 C12_3 1_555 1_555
C12_3 H3_3 1_555 1_555
C13_3 C12_3 1_555 1_555
C14_3 C13_3 1_555 1_555
H4_3 C14_3 1_555 1_555
C15_3 C14_3 1_555 1_555
C16_3 C15_3 1_555 1_555
C17_3 C11_3 1_555 1_555
C18_3 C17_3 1_555 1_555
N1_3 C4_3 1_555 1_555
N2_3 C13_3 1_555 1_555
O1_3 Cu9_2 1_555 1_555
O2_3 C1_3 1_555 1_555
O3_3 C9_3 1_555 1_555
O4_3 C9_3 1_555 1_555
O5_3 C7_3 1_555 1_555
O6_3 C7_3 1_555 1_555
O37_2 C10_3 1_555 1_555
O39_2 C10_3 1_555 1_555
O9_3 C18_3 1_555 1_555
O10_3 C18_3 1_555 1_555
O11_2 C16_3 1_555 1_555
O12_2 C16_3 1_555 1_555
O13_3 Cu9_2 1_555 1_555
H5_3 O13_3 1_555 1_555
H6_3 O13_3 1_555 1_555
O14_3 Cu12_2 1_555 1_555
O15_3 Cu13_2 1_555 1_555
H7_3 O15_3 1_555 1_555
H8_3 O15_3 1_555 1_555
O16_3 Cu19_2 1_555 1_555
H9_3 O16_3 1_555 1_555
H10_3 O16_3 1_555 1_555
O17_2 Cu13_2 1_555 1_555
O18_3 Cu4_2 1_555 1_555
H11_3 O18_3 1_555 1_555
H12_3 O18_3 1_555 1_555
H13_3 O14_3 1_555 1_555
H14_3 O14_3 1_555 1_555
O32_3 Cu13_2 1_555 1_555
H21_3 O32_3 1_555 1_555
H22_3 O32_3 1_555 1_555
O33_3 Cu19_2 1_555 1_555
H23_3 O33_3 1_555 1_555
H24_3 O33_3 1_555 1_555
Cu15_2 O12_2 1_555 1_555
Cu19 O17_2 1_555 1_555
O43_2 Cu4_2 1_555 1_555
O44_2 Cu4_2 1_555 1_555
O46_2 Cu19_2 1_555 1_555
C1_3 O1_3 1_555 1_555
C6_3 C8_3 1_555 1_555
C15_3 C17_3 1_555 1_555
N1_3 N2_3 1_555 1_555
C36_4 C35_4 1_555 1_555
O25_2 C28_4 1_555 1_555
O26_2 C28_4 1_555 1_555
O41 C36_4 1_555 1_555
O28_4 C36_4 1_555 1_555
Cu9 O25_2 1_555 1_555
Cu12 O26_2 1_555 1_555
Cu12 O2_4 1_555 1_555
Cu13 O3_4 1_555 1_555
C1_4 C2_4 1_555 1_555
C8_4 C2_4 1_555 1_555
C9_4 C8_4 1_555 1_555
O1_4 Cu9 1_555 1_555
O2_4 C1_4 1_555 1_555
O3_4 C9_4 1_555 1_555
O4_4 C9_4 1_555 1_555
O14_4 Cu12 1_555 1_555
O15_4 Cu13 1_555 1_555
H7_4 O15_4 1_555 1_555
H8_4 O15_4 1_555 1_555
H13_4 O14_4 1_555 1_555
H14_4 O14_4 1_555 1_555
C21_4 H15_4 1_555 1_555
C22_4 C21_4 1_555 1_555
C23_4 C22_4 1_555 1_555
H16_4 C23_4 1_555 1_555
C24_4 C23_4 1_555 1_555
C25_4 C24_4 1_555 1_555
C29_4 C30_4 1_555 1_555
C30_4 H17_4 1_555 1_555
C31_4 C30_4 1_555 1_555
C32_4 C31_4 1_555 1_555
H18_4 C32_4 1_555 1_555
C33_4 C32_4 1_555 1_555
C34_4 C33_4 1_555 1_555
N3_4 C22_4 1_555 1_555
N4_4 C31_4 1_555 1_555
O24_4 Cu17_2 1_555 1_555
O43_2 C34_4 1_555 1_555
O31_4 Cu17_2 1_555 1_555
H19_4 O31_4 1_555 1_555
H20_4 O31_4 1_555 1_555
O32_4 Cu13 1_555 1_555
H21_4 O32_4 1_555 1_555
H22_4 O32_4 1_555 1_555
C1_4 O1_4 1_555 1_555
O5_4 Cu17_2 1_555 1_555
C25_4 O24_4 1_555 1_555
N3_4 N4_4 1_555 1_555
Cu15_2 O6_4 1_555 1_555
C3_4 H1_4 1_555 1_555
C4_4 C3_4 1_555 1_555
C5_4 C4_4 1_555 1_555
H2_4 C5_4 1_555 1_555
C6_4 C5_4 1_555 1_555
C7_4 C6_4 1_555 1_555
C11_4 C12_4 1_555 1_555
C12_4 H3_4 1_555 1_555
C13_4 C12_4 1_555 1_555
C14_4 C13_4 1_555 1_555
H4_4 C14_4 1_555 1_555
C15_4 C14_4 1_555 1_555
C16_4 C15_4 1_555 1_555
N1_4 C4_4 1_555 1_555
N2_4 C13_4 1_555 1_555
O6_4 C7_4 1_555 1_555
O42_2 C16_4 1_555 1_555
O18_4 Cu15_2 1_555 1_555
H11_4 O18_4 1_555 1_555
H12_4 O18_4 1_555 1_555
C19_4 C20_4 1_555 1_555
C26_4 C20_4 1_555 1_555
C27_4 C26_4 1_555 1_555
O34 C19_4 1_555 1_555
O35 C19_4 1_555 1_555
O36 C27_4 1_555 1_555
O22_4 C27_4 1_555 1_555
O23_4 Cu15_2 1_555 1_555
N1_4 N2_4 1_555 1_555
Cu19 O9_4 1_555 1_555
C18_4 C17_4 1_555 1_555
O37 C10_4 1_555 1_555
O39 C10_4 1_555 1_555
O9_4 C18_4 1_555 1_555
O10_4 C18_4 1_555 1_555
H5_4 O13_4 1_555 1_555
H6_4 O13_4 1_555 1_555
O16_4 Cu19 1_555 1_555
H9_4 O16_4 1_555 1_555
H10_4 O16_4 1_555 1_555
O33_4 Cu19 1_555 1_555
H23_4 O33_4 1_555 1_555
H24_4 O33_4 1_555 1_555

#END
