
###############################################################################
#
# This file contains modified crystal structure data generated from the
# MOF subset of the Cambridge Structural Database (CSD) v543 
# hosted by the Cambridge Crystallographic Data Centre (CCDC).
#
# This work is licensed under the Creative Commons
# Attribution-NonCommercial-ShareAlike 4.0 International License.
# To view a copy of this license, visit
# http://creativecommons.org/licenses/by-nc-sa/4.0/
# or send a letter to
# Creative Commons, PO Box 1866, Mountain View, CA 94042, USA.
#
# CIF created using the CSD Python API on 29 September 2022
# The structure has been converted into the P1 space group
# The structure has a 3D framework
# The original CSD entry JUHNAE is in the monoclinic crystal system
# The framework has been calculated to contain at least 10.0% void space
# The void calculation uses a probe of radius 1.32A, grid spacing 0.4
#
###############################################################################

data_JUHNAE
_chemical_formula_moiety         '(C304 H224 Cd12 N24 O56)n'
_symmetry_cell_setting           triclinic
_symmetry_space_group_name_H-M   'P 1'
_symmetry_Int_Tables_number      1
_space_group_name_Hall           'P 1'
loop_
_symmetry_equiv_pos_site_id
_symmetry_equiv_pos_as_xyz
1 x,y,z
_cell_length_a                   20.0290(13)
_cell_length_b                   15.9678(10)
_cell_length_c                   24.4607(15)
_cell_angle_alpha                90
_cell_angle_beta                 108.6370(10)
_cell_angle_gamma                90
_cell_volume                     7412.78
loop_
_atom_site_label
_atom_site_type_symbol
_atom_site_fract_x
_atom_site_fract_y
_atom_site_fract_z
Cd1 Cd 0.500000 0.74851(3) 0.750000
Cd2 Cd 0.31636(2) 0.19594(2) 0.19976(2)
O1 O 0.4143(3) 0.2534(3) 0.2971(2)
O2 O 0.4350(2) 0.1449(2) 0.19455(17)
O3 O 0.3333(2) 0.0932(3) 0.1417(2)
O4 O 0.3306(3) 0.7096(3) 0.6357(2)
O5 O 0.4373(3) 0.6599(3) 0.68306(18)
O6 O 0.3064(3) 0.3000(3) 0.2576(2)
O7 O 0.2921(4) 0.0999(5) 0.2630(3)
C1 C 0.3712(3) 0.4527(4) 0.4443(2)
C2 C 0.3782(3) 0.6058(4) 0.5907(2)
C3 C 0.3642(4) 0.2995(4) 0.2981(3)
C4 C 0.3727(3) 0.5048(4) 0.4951(2)
N1 N 0.1964(3) 0.2031(4) 0.1619(3)
C5 C 0.3693(3) 0.3540(4) 0.3479(3)
C6 C 0.3158(3) 0.5520(4) 0.4960(3)
H1 H 0.274898 0.550421 0.464428
C7 C 0.3977(3) 0.1048(3) 0.1512(2)
C8 C 0.4312(3) 0.0704(4) 0.1094(3)
C9 C 0.3823(3) 0.6632(4) 0.6405(2)
C10 C 0.3178(3) 0.6016(4) 0.5424(3)
H2 H 0.278364 0.632842 0.541645
C11 C 0.4158(4) 0.3355(5) 0.4019(3)
H3 H 0.447442 0.291399 0.406662
C12 C 0.4976(3) 0.0940(4) 0.1105(3)
H4 H 0.524490 0.128991 0.139645
C13 C 0.4858(3) 0.0137(4) 0.0231(3)
C14 C 0.4147(4) 0.3836(5) 0.4493(3)
H5 H 0.444345 0.368719 0.485734
C15 C 0.3938(4) 0.0145(5) 0.0675(3)
C16 C 0.5250(4) 0.0654(5) 0.0676(3)
H7 H 0.570161 0.081331 0.068973
C17 C 0.4351(4) 0.5575(5) 0.5899(3)
H8 H 0.475954 0.558239 0.621575
C18 C 0.3261(4) 0.4715(4) 0.3892(3)
H9 H 0.296023 0.517322 0.383968
C19 C 0.4322(4) 0.5085(5) 0.5433(3)
H10 H 0.471363 0.476758 0.544041
C20 C 0.3254(4) 0.4232(4) 0.3426(3)
H11 H 0.294644 0.437169 0.306371
N2 N 0.0952(4) 0.2321(5) 0.1870(3)
C22 C 0.1440(7) 0.2406(6) 0.0627(4)
H13 H 0.185612 0.230927 0.054579
C23 C 0.0892(7) 0.2641(7) 0.0186(5)
C24 C 0.0247(5) 0.3099(6) 0.2341(5)
C25 C 0.0465(5) 0.0780(6) 0.2181(4)
H15 H 0.077445 0.076462 0.196771
C26 C 0.0800(6) 0.2439(7) 0.1259(5)
C27 C 0.0229(6) 0.0061(7) 0.2344(4)
C28 C 0.0464(5) 0.2320(6) 0.2189(4)
C29 C 0.1640(5) 0.2080(6) 0.2083(4)
H17 H 0.187497 0.196325 0.246955
C30 C 0.0238(5) 0.1553(5) 0.2336(4)
C31 C 0.1468(7) 0.2293(6) 0.1163(4)
C32 C 0.0247(6) 0.4596(6) 0.2368(5)
H18 H 0.042756 0.510432 0.229420
C33 C 0.0489(6) 0.3874(6) 0.2204(5)
H19 H 0.081238 0.389130 0.200301
C34 C 0.0214(7) 0.2688(8) 0.0857(5)
C35 C 0.0258(6) 0.2815(8) 0.0313(5)
C36 C 0.3182(8) 0.0499(8) 0.2960(5)
H22 H 0.366544 0.042062 0.304710
C37 C 0.2056(8) 0.0077(10) 0.3077(6)
H23 H 0.190143 0.046035 0.275925
H24 H 0.192617 0.028943 0.339654
H32 H 0.606302 0.048630 0.003826
H40 H 0.020376 0.277197 0.406106
H41 H 0.013162 0.301831 0.497707
Cd7 Cd 0.500000 0.25149(3) 0.250000
Cd10 Cd 0.31636(2) 0.80406(2) 0.69976(2)
O15 O 0.5857(3) 0.7466(3) 0.7029(2)
O16 O 0.4143(3) 0.7466(3) 0.7971(2)
O18 O 0.5650(2) 0.8551(2) 0.80545(17)
O19 O 0.4350(2) 0.8551(2) 0.69455(17)
O22 O 0.3306(3) 0.2904(3) 0.1357(2)
O23 O 0.5627(3) 0.6599(3) 0.81694(18)
H12 H 0.393698 0.951370 0.996174
O9 O 0.6667(2) 0.9068(3) 0.8583(2)
C39 C 0.6023(3) 0.8952(3) 0.8488(2)
C40 C 0.5688(3) 0.9296(4) 0.8906(3)
C41 C 0.5024(3) 0.9060(4) 0.8895(3)
H29 H 0.475510 0.871009 0.860355
C42 C 0.5142(3) 0.9863(4) 0.9769(3)
C43 C 0.6062(4) 0.9855(5) 0.9325(3)
C44 C 0.4750(4) 0.9346(5) 0.9324(3)
H31 H 0.429839 0.918669 0.931027
Cd9 Cd 0.68364(2) 0.80406(2) 0.80024(2)
H20 H 0.979624 0.277197 0.093894
H21 H 0.986838 0.301831 0.002293
N4 N 0.8036(3) 0.2031(4) 0.3381(3)
N5 N 0.9048(4) 0.2321(5) 0.3130(3)
C46 C 0.8560(7) 0.2406(6) 0.4373(4)
H33 H 0.814388 0.230927 0.445421
C47 C 0.9108(7) 0.2641(7) 0.4814(5)
H34 H 0.908177 0.268925 0.518505
C48 C 0.9753(5) 0.3099(6) 0.2659(5)
C49 C 0.9535(5) 0.0780(6) 0.2819(4)
H35 H 0.922555 0.076462 0.303229
C50 C 0.9200(6) 0.2439(7) 0.3741(5)
C51 C 0.9771(6) 0.0061(7) 0.2656(4)
C52 C 0.9536(5) 0.2320(6) 0.2811(4)
C53 C 0.8360(5) 0.2080(6) 0.2917(4)
H37 H 0.812503 0.196325 0.253045
C54 C 0.9762(5) 0.1553(5) 0.2664(4)
C55 C 0.8532(7) 0.2293(6) 0.3837(4)
C56 C 0.9753(6) 0.4596(6) 0.2632(5)
H38 H 0.957244 0.510432 0.270580
C57 C 0.9511(6) 0.3874(6) 0.2796(5)
H39 H 0.918762 0.389130 0.299699
C58 C 0.9786(7) 0.2688(8) 0.4143(5)
C59 C 0.9742(6) 0.2815(8) 0.4687(5)
Cd3 Cd 0.68364(2) 0.19594(2) 0.30024(2)
O10 O 0.5857(3) 0.2534(3) 0.2029(2)
O13 O 0.6936(3) 0.3000(3) 0.2424(2)
O14 O 0.7079(4) 0.0999(5) 0.2370(3)
C60 C 0.6288(3) 0.4527(4) 0.0557(2)
C62 C 0.6358(4) 0.2995(4) 0.2019(3)
C63 C 0.6273(3) 0.5048(4) 0.0049(2)
C64 C 0.6307(3) 0.3540(4) 0.1521(3)
C65 C 0.6842(3) 0.5520(4) 0.0040(3)
H42 H 0.725102 0.550421 0.035572
C68 C 0.5842(4) 0.3355(5) 0.0981(3)
H44 H 0.552558 0.291399 0.093338
C69 C 0.5853(4) 0.3836(5) 0.0507(3)
H45 H 0.555655 0.368719 0.014266
C71 C 0.6739(4) 0.4715(4) 0.1108(3)
H47 H 0.703977 0.517322 0.116032
C73 C 0.6746(4) 0.4232(4) 0.1574(3)
H49 H 0.705356 0.437169 0.193629
C74 C 0.6818(8) 0.0499(8) 0.2040(5)
H50 H 0.633456 0.042062 0.195290
C75 C 0.7944(8) 0.0077(10) 0.1923(6)
H51 H 0.809857 0.046035 0.224075
H52 H 0.807383 0.028943 0.160346
O17 O 0.5650(2) 0.1449(2) 0.30545(17)
O20 O 0.6667(2) 0.0932(3) 0.3583(2)
O21 O 0.6694(3) 0.2904(3) 0.3643(2)
O11 O 0.6694(3) 0.7096(3) 0.8643(2)
C61 C 0.6218(3) 0.6058(4) 0.9093(2)
C66 C 0.6177(3) 0.6632(4) 0.8595(2)
C67 C 0.6822(3) 0.6016(4) 0.9576(3)
H43 H 0.721636 0.632842 0.958355
C70 C 0.5649(4) 0.5575(5) 0.9101(3)
H46 H 0.524046 0.558239 0.878425
C72 C 0.5678(4) 0.5085(5) 0.9567(3)
H48 H 0.528637 0.476758 0.955959
H36 H 0.961771 0.955191 0.275752
N6 N 0.7178(6) 0.9985(6) 0.1751(4)
H53 H 0.816301 0.954201 0.203656
C76 C 0.6789(8) 0.9382(8) 0.1336(6)
H54 H 0.645387 0.910588 0.148022
H55 H 0.710822 0.897579 0.126963
H56 H 0.654566 0.966099 0.098044
C7_2 C 0.6023(3) 0.1048(3) 0.3488(2)
C8_2 C 0.5688(3) 0.0704(4) 0.3906(3)
C12_2 C 0.5024(3) 0.0940(4) 0.3895(3)
H4_2 H 0.475510 0.128991 0.360355
C13_2 C 0.5142(3) 0.0137(4) 0.4769(3)
C15_2 C 0.6062(4) 0.0145(5) 0.4325(3)
C16_2 C 0.4750(4) 0.0654(5) 0.4324(3)
H7_2 H 0.429839 0.081331 0.431027
H30 H 0.350362 0.005222 0.568168
C45 C 0.4204(4) 0.0124(5) 0.5246(3)
H32_2 H 0.393698 0.048630 0.496174
H6 H 0.649638 0.994778 0.431832
C21 C 0.5796(4) 0.9876(5) 0.4754(3)
H12_2 H 0.606302 0.951370 0.503826
O9_2 O 0.3333(2) 0.9068(3) 0.6417(2)
C39_2 C 0.3977(3) 0.8952(3) 0.6512(2)
C40_2 C 0.4312(3) 0.9296(4) 0.6094(3)
C41_2 C 0.4976(3) 0.9060(4) 0.6105(3)
H29_2 H 0.524490 0.871009 0.639645
C42_2 C 0.4858(3) 0.9863(4) 0.5231(3)
C43_2 C 0.3938(4) 0.9855(5) 0.5675(3)
C44_2 C 0.5250(4) 0.9346(5) 0.5676(3)
H31_2 H 0.570161 0.918669 0.568973
H36_2 H 0.038229 0.044809 0.724248
N6_2 N 0.2822(6) 0.0015(6) 0.8249(4)
H53_2 H 0.183699 0.045799 0.796344
C76_2 C 0.3211(8) 0.0618(8) 0.8664(6)
H54_2 H 0.354613 0.089412 0.851978
H55_2 H 0.289178 0.102421 0.873037
H56_2 H 0.345434 0.033901 0.901956
O12 O 0.4373(3) 0.3401(3) 0.18306(18)
C61_2 C 0.3782(3) 0.3942(4) 0.0907(2)
C66_2 C 0.3823(3) 0.3368(4) 0.1405(2)
C67_2 C 0.3178(3) 0.3984(4) 0.0424(3)
H43_2 H 0.278364 0.367158 0.041645
C70_2 C 0.4351(4) 0.4425(5) 0.0899(3)
H46_2 H 0.475954 0.441761 0.121575
C72_2 C 0.4322(4) 0.4915(5) 0.0433(3)
H48_2 H 0.471363 0.523242 0.044041
H20_2 H 0.020376 0.722803 0.906106
H21_2 H 0.013162 0.698169 0.997707
N4_2 N 0.1964(3) 0.7969(4) 0.6619(3)
N5_2 N 0.0952(4) 0.7679(5) 0.6870(3)
C46_2 C 0.1440(7) 0.7594(6) 0.5627(4)
H33_2 H 0.185612 0.769073 0.554579
C47_2 C 0.0892(7) 0.7359(7) 0.5186(5)
H34_2 H 0.091823 0.731075 0.481495
C48_2 C 0.0247(5) 0.6901(6) 0.7341(5)
C49_2 C 0.0465(5) 0.9220(6) 0.7181(4)
H35_2 H 0.077445 0.923538 0.696771
C50_2 C 0.0800(6) 0.7561(7) 0.6259(5)
C51_2 C 0.0229(6) 0.9939(7) 0.7344(4)
C52_2 C 0.0464(5) 0.7680(6) 0.7189(4)
C53_2 C 0.1640(5) 0.7920(6) 0.7083(4)
H37_2 H 0.187497 0.803675 0.746955
C54_2 C 0.0238(5) 0.8447(5) 0.7336(4)
C55_2 C 0.1468(7) 0.7707(6) 0.6163(4)
C56_2 C 0.0247(6) 0.5404(6) 0.7368(5)
H38_2 H 0.042756 0.489568 0.729420
C57_2 C 0.0489(6) 0.6126(6) 0.7204(5)
H39_2 H 0.081238 0.610870 0.700301
C58_2 C 0.0214(7) 0.7312(8) 0.5857(5)
C59_2 C 0.0258(6) 0.7185(8) 0.5313(5)
O13_2 O 0.3064(3) 0.7000(3) 0.7576(2)
O14_2 O 0.2921(4) 0.9001(5) 0.7630(3)
C60_2 C 0.3712(3) 0.5473(4) 0.9443(2)
C62_2 C 0.3642(4) 0.7005(4) 0.7981(3)
C63_2 C 0.3727(3) 0.4952(4) 0.9951(2)
C64_2 C 0.3693(3) 0.6460(4) 0.8479(3)
C65_2 C 0.3158(3) 0.4480(4) 0.9960(3)
H42_2 H 0.274898 0.449579 0.964428
C68_2 C 0.4158(4) 0.6645(5) 0.9019(3)
H44_2 H 0.447442 0.708601 0.906662
C69_2 C 0.4147(4) 0.6164(5) 0.9493(3)
H45_2 H 0.444345 0.631281 0.985734
C71_2 C 0.3261(4) 0.5285(4) 0.8892(3)
H47_2 H 0.296023 0.482678 0.883968
C73_2 C 0.3254(4) 0.5768(4) 0.8426(3)
H49_2 H 0.294644 0.562831 0.806371
C74_2 C 0.3182(8) 0.9501(8) 0.7960(5)
H50_2 H 0.366544 0.957938 0.804710
C75_2 C 0.2056(8) 0.9923(10) 0.8077(6)
H51_2 H 0.190143 0.953965 0.775925
H52_2 H 0.192617 0.971057 0.839654
O5_2 O 0.5627(3) 0.3401(3) 0.31694(18)
O6_2 O 0.6936(3) 0.7000(3) 0.7424(2)
O7_2 O 0.7079(4) 0.9001(5) 0.7370(3)
C1_2 C 0.6288(3) 0.5473(4) 0.5557(2)
C2_2 C 0.6218(3) 0.3942(4) 0.4093(2)
C3_2 C 0.6358(4) 0.7005(4) 0.7019(3)
C4_2 C 0.6273(3) 0.4952(4) 0.5049(2)
N1_2 N 0.8036(3) 0.7969(4) 0.8381(3)
C5_2 C 0.6307(3) 0.6460(4) 0.6521(3)
C6_2 C 0.6842(3) 0.4480(4) 0.5040(3)
H1_2 H 0.725102 0.449579 0.535572
C9_2 C 0.6177(3) 0.3368(4) 0.3595(2)
C10_2 C 0.6822(3) 0.3984(4) 0.4576(3)
H2_2 H 0.721636 0.367158 0.458355
C11_2 C 0.5842(4) 0.6645(5) 0.5981(3)
H3_2 H 0.552558 0.708601 0.593338
C14_2 C 0.5853(4) 0.6164(5) 0.5507(3)
H5_2 H 0.555655 0.631281 0.514266
C17_2 C 0.5649(4) 0.4425(5) 0.4101(3)
H8_2 H 0.524046 0.441761 0.378425
C18_2 C 0.6739(4) 0.5285(4) 0.6108(3)
H9_2 H 0.703977 0.482678 0.616032
C19_2 C 0.5678(4) 0.4915(5) 0.4567(3)
H10_2 H 0.528637 0.523242 0.455959
C20_2 C 0.6746(4) 0.5768(4) 0.6574(3)
H11_2 H 0.705356 0.562831 0.693629
N2_2 N 0.9048(4) 0.7679(5) 0.8130(3)
C22_2 C 0.8560(7) 0.7594(6) 0.9373(4)
H13_2 H 0.814388 0.769073 0.945421
C23_2 C 0.9108(7) 0.7359(7) 0.9814(5)
C24_2 C 0.9753(5) 0.6901(6) 0.7659(5)
C25_2 C 0.9535(5) 0.9220(6) 0.7819(4)
H15_2 H 0.922555 0.923538 0.803229
C26_2 C 0.9200(6) 0.7561(7) 0.8741(5)
C27_2 C 0.9771(6) 0.9939(7) 0.7656(4)
C28_2 C 0.9536(5) 0.7680(6) 0.7811(4)
C29_2 C 0.8360(5) 0.7920(6) 0.7917(4)
H17_2 H 0.812503 0.803675 0.753045
C30_2 C 0.9762(5) 0.8447(5) 0.7664(4)
C31_2 C 0.8532(7) 0.7707(6) 0.8837(4)
C32_2 C 0.9753(6) 0.5404(6) 0.7632(5)
H18_2 H 0.957244 0.489568 0.770580
C33_2 C 0.9511(6) 0.6126(6) 0.7796(5)
H19_2 H 0.918762 0.610870 0.799699
C34_2 C 0.9786(7) 0.7312(8) 0.9143(5)
C35_2 C 0.9742(6) 0.7185(8) 0.9687(5)
C36_2 C 0.6818(8) 0.9501(8) 0.7040(5)
H22_2 H 0.633456 0.957938 0.695290
C37_2 C 0.7944(8) 0.9923(10) 0.6923(6)
H23_2 H 0.809857 0.953965 0.724075
H24_2 H 0.807383 0.971057 0.660346
H40_2 H 0.979624 0.722803 0.593894
H41_2 H 0.986838 0.698169 0.502293
H14 H 0.091823 0.268925 0.981495
H30_2 H 0.649638 0.005222 0.931832
C45_2 C 0.5796(4) 0.0124(5) 0.9754(3)
H16 H 0.961771 0.044809 0.775752
N3 N 0.7178(6) 0.0015(6) 0.6751(4)
H25 H 0.816301 0.045799 0.703656
C38 C 0.6789(8) 0.0618(8) 0.6336(6)
H26 H 0.645387 0.089412 0.648022
H27 H 0.710822 0.102421 0.626963
H28 H 0.654566 0.033901 0.598044
H6_2 H 0.350362 0.994778 0.068168
C21_2 C 0.4204(4) 0.9876(5) 0.0246(3)
H16_2 H 0.038229 0.955191 0.224248
N3_2 N 0.2822(6) 0.9985(6) 0.3249(4)
H25_2 H 0.183699 0.954201 0.296344
C38_2 C 0.3211(8) 0.9382(8) 0.3664(6)
H26_2 H 0.354613 0.910588 0.351978
H27_2 H 0.289178 0.897579 0.373037
H28_2 H 0.345434 0.966099 0.401956
H14_2 H 0.908177 0.731075 0.018505
Cd1_2 Cd -0.000000 0.24851(3) 0.750000
O15_2 O 0.0857(3) 0.2466(3) 0.7029(2)
O18_2 O 0.0650(2) 0.3551(2) 0.80545(17)
O23_2 O 0.0627(3) 0.1599(3) 0.81694(18)
H4_3 H 0.024490 0.628991 0.139645
C16_3 C 0.0250(4) 0.5654(5) 0.0676(3)
H7_3 H 0.070161 0.581331 0.068973
H32_3 H 0.106302 0.548630 0.003826
Cd7_2 Cd -0.000000 0.75149(3) 0.250000
O9_3 O 0.1667(2) 0.4068(3) 0.8583(2)
C39_3 C 0.1023(3) 0.3952(3) 0.8488(2)
C40_3 C 0.0688(3) 0.4296(4) 0.8906(3)
C41_3 C 0.0024(3) 0.4060(4) 0.8895(3)
C42_3 C 0.0142(3) 0.4863(4) 0.9769(3)
C43_3 C 0.1062(4) 0.4855(5) 0.9325(3)
H30_3 H 0.149638 0.505222 0.931832
C45_3 C 0.0796(4) 0.5124(5) 0.9754(3)
Cd9_2 Cd 0.18364(2) 0.30406(2) 0.80024(2)
Cd1_3 Cd 1.000000 0.24851(3) 0.750000
O4_2 O 0.8306(3) 0.2096(3) 0.6357(2)
O5_3 O 0.9373(3) 0.1599(3) 0.68306(18)
C2_3 C 0.8782(3) 0.1058(4) 0.5907(2)
C4_3 C 0.8727(3) 0.0048(4) 0.4951(2)
C6_3 C 0.8158(3) 0.0520(4) 0.4960(3)
H1_3 H 0.774898 0.050421 0.464428
C9_3 C 0.8823(3) 0.1632(4) 0.6405(2)
C10_3 C 0.8178(3) 0.1016(4) 0.5424(3)
H2_3 H 0.778364 0.132842 0.541645
C17_3 C 0.9351(4) 0.0575(5) 0.5899(3)
H8_3 H 0.975954 0.058239 0.621575
H9_3 H 0.796023 0.017322 0.383968
C19_3 C 0.9322(4) 0.0085(5) 0.5433(3)
H18_3 H 0.542756 0.010432 0.229420
H38_3 H 0.457244 0.010432 0.270580
C63_3 C 0.1273(3) 0.0048(4) 0.0049(2)
C65_3 C 0.1842(3) 0.0520(4) 0.0040(3)
H42_3 H 0.225102 0.050421 0.035572
H47_3 H 0.203977 0.017322 0.116032
Cd10_2 Cd 0.81636(2) 0.30406(2) 0.69976(2)
O16_2 O 0.9143(3) 0.2466(3) 0.7971(2)
O19_2 O 0.9350(2) 0.3551(2) 0.69455(17)
O11_2 O 0.1694(3) 0.2096(3) 0.8643(2)
C61_3 C 0.1218(3) 0.1058(4) 0.9093(2)
C66_3 C 0.1177(3) 0.1632(4) 0.8595(2)
C67_3 C 0.1822(3) 0.1016(4) 0.9576(3)
H43_3 H 0.221636 0.132842 0.958355
C70_3 C 0.0649(4) 0.0575(5) 0.9101(3)
H46_3 H 0.024046 0.058239 0.878425
C72_3 C 0.0678(4) 0.0085(5) 0.9567(3)
Cd2_2 Cd 0.81636(2) 0.69594(2) 0.19976(2)
O1_2 O 0.9143(3) 0.7534(3) 0.2971(2)
O2_2 O 0.9350(2) 0.6449(2) 0.19455(17)
O3_2 O 0.8333(2) 0.5932(3) 0.1417(2)
O6_3 O 0.8064(3) 0.8000(3) 0.2576(2)
O7_3 O 0.7921(4) 0.5999(5) 0.2630(3)
C1_3 C 0.8712(3) 0.9527(4) 0.4443(2)
C3_3 C 0.8642(4) 0.7995(4) 0.2981(3)
N1_3 N 0.6964(3) 0.7031(4) 0.1619(3)
C5_3 C 0.8693(3) 0.8540(4) 0.3479(3)
C7_3 C 0.8977(3) 0.6048(3) 0.1512(2)
C8_3 C 0.9312(3) 0.5704(4) 0.1094(3)
C11_3 C 0.9158(4) 0.8355(5) 0.4019(3)
H3_3 H 0.947442 0.791399 0.406662
C12_3 C 0.9976(3) 0.5940(4) 0.1105(3)
C13_3 C 0.9858(3) 0.5137(4) 0.0231(3)
C14_3 C 0.9147(4) 0.8836(5) 0.4493(3)
H5_3 H 0.944345 0.868719 0.485734
C15_3 C 0.8938(4) 0.5145(5) 0.0675(3)
H6_3 H 0.850362 0.494778 0.068168
C18_3 C 0.8261(4) 0.9715(4) 0.3892(3)
H10_3 H 0.971363 0.976758 0.544041
C20_3 C 0.8254(4) 0.9232(4) 0.3426(3)
H11_3 H 0.794644 0.937169 0.306371
C21_3 C 0.9204(4) 0.4876(5) 0.0246(3)
N2_3 N 0.5952(4) 0.7321(5) 0.1870(3)
C22_3 C 0.6440(7) 0.7406(6) 0.0627(4)
H13_3 H 0.685612 0.730927 0.054579
C23_3 C 0.5892(7) 0.7641(7) 0.0186(5)
C24_3 C 0.5247(5) 0.8099(6) 0.2341(5)
C25_3 C 0.5465(5) 0.5780(6) 0.2181(4)
H15_3 H 0.577445 0.576462 0.196771
C26_3 C 0.5800(6) 0.7439(7) 0.1259(5)
C27_3 C 0.5229(6) 0.5061(7) 0.2344(4)
H16_3 H 0.538229 0.455191 0.224248
C28_3 C 0.5464(5) 0.7320(6) 0.2189(4)
C29_3 C 0.6640(5) 0.7080(6) 0.2083(4)
H17_3 H 0.687497 0.696325 0.246955
C30_3 C 0.5238(5) 0.6553(5) 0.2336(4)
C31_3 C 0.6468(7) 0.7293(6) 0.1163(4)
C32_3 C 0.5247(6) 0.9596(6) 0.2368(5)
C33_3 C 0.5489(6) 0.8874(6) 0.2204(5)
H19_3 H 0.581238 0.889130 0.200301
C34_3 C 0.5214(7) 0.7688(8) 0.0857(5)
H20_3 H 0.479624 0.777197 0.093894
C35_3 C 0.5258(6) 0.7815(8) 0.0313(5)
H21_3 H 0.486838 0.801831 0.002293
N3_3 N 0.7822(6) 0.4985(6) 0.3249(4)
C36_3 C 0.8182(8) 0.5499(8) 0.2960(5)
H22_3 H 0.866544 0.542062 0.304710
C37_3 C 0.7056(8) 0.5077(10) 0.3077(6)
H23_3 H 0.690143 0.546035 0.275925
H24_3 H 0.692617 0.528943 0.339654
H25_3 H 0.683699 0.454201 0.296344
C38_3 C 0.8211(8) 0.4382(8) 0.3664(6)
H26_3 H 0.854613 0.410588 0.351978
H27_3 H 0.789178 0.397579 0.373037
H28_3 H 0.845434 0.466099 0.401956
N4_3 N 0.3036(3) 0.7031(4) 0.3381(3)
N5_3 N 0.4048(4) 0.7321(5) 0.3130(3)
C46_3 C 0.3560(7) 0.7406(6) 0.4373(4)
H33_3 H 0.314388 0.730927 0.445421
C47_3 C 0.4108(7) 0.7641(7) 0.4814(5)
H34_3 H 0.408177 0.768925 0.518505
C48_3 C 0.4753(5) 0.8099(6) 0.2659(5)
C49_3 C 0.4535(5) 0.5780(6) 0.2819(4)
H35_3 H 0.422555 0.576462 0.303229
C50_3 C 0.4200(6) 0.7439(7) 0.3741(5)
C51_3 C 0.4771(6) 0.5061(7) 0.2656(4)
H36_3 H 0.461771 0.455191 0.275752
C52_3 C 0.4536(5) 0.7320(6) 0.2811(4)
C53_3 C 0.3360(5) 0.7080(6) 0.2917(4)
H37_3 H 0.312503 0.696325 0.253045
C54_3 C 0.4762(5) 0.6553(5) 0.2664(4)
C55_3 C 0.3532(7) 0.7293(6) 0.3837(4)
C56_3 C 0.4753(6) 0.9596(6) 0.2632(5)
C57_3 C 0.4511(6) 0.8874(6) 0.2796(5)
H39_3 H 0.418762 0.889130 0.299699
C58_3 C 0.4786(7) 0.7688(8) 0.4143(5)
H40_3 H 0.520376 0.777197 0.406106
C59_3 C 0.4742(6) 0.7815(8) 0.4687(5)
H41_3 H 0.513162 0.801831 0.497707
Cd3_2 Cd 0.18364(2) 0.69594(2) 0.30024(2)
O10_2 O 0.0857(3) 0.7534(3) 0.2029(2)
O13_3 O 0.1936(3) 0.8000(3) 0.2424(2)
O14_3 O 0.2079(4) 0.5999(5) 0.2370(3)
C60_3 C 0.1288(3) 0.9527(4) 0.0557(2)
C62_3 C 0.1358(4) 0.7995(4) 0.2019(3)
C64_3 C 0.1307(3) 0.8540(4) 0.1521(3)
C68_3 C 0.0842(4) 0.8355(5) 0.0981(3)
H44_3 H 0.052558 0.791399 0.093338
C69_3 C 0.0853(4) 0.8836(5) 0.0507(3)
H45_3 H 0.055655 0.868719 0.014266
C71_3 C 0.1739(4) 0.9715(4) 0.1108(3)
C73_3 C 0.1746(4) 0.9232(4) 0.1574(3)
H49_3 H 0.205356 0.937169 0.193629
N6_3 N 0.2178(6) 0.4985(6) 0.1751(4)
C74_3 C 0.1818(8) 0.5499(8) 0.2040(5)
H50_3 H 0.133456 0.542062 0.195290
C75_3 C 0.2944(8) 0.5077(10) 0.1923(6)
H51_3 H 0.309857 0.546035 0.224075
H52_3 H 0.307383 0.528943 0.160346
H53_3 H 0.316301 0.454201 0.203656
C76_3 C 0.1789(8) 0.4382(8) 0.1336(6)
H54_3 H 0.145387 0.410588 0.148022
H55_3 H 0.210822 0.397579 0.126963
H56_3 H 0.154566 0.466099 0.098044
Cd7_3 Cd 1.000000 0.75149(3) 0.250000
O17_2 O 0.0650(2) 0.6449(2) 0.30545(17)
O20_2 O 0.1667(2) 0.5932(3) 0.3583(2)
O21_2 O 0.1694(3) 0.7904(3) 0.3643(2)
O22_2 O 0.8306(3) 0.7904(3) 0.1357(2)
H12_3 H 0.893698 0.451370 0.996174
H14_3 H 0.591823 0.768925 0.981495
H29_3 H 0.975510 0.371009 0.860355
C44_3 C 0.9750(4) 0.4346(5) 0.9324(3)
H31_3 H 0.929839 0.418669 0.931027
H48_3 H 0.028637 0.976758 0.955959
C7_4 C 0.1023(3) 0.6048(3) 0.3488(2)
C8_4 C 0.0688(3) 0.5704(4) 0.3906(3)
C12_4 C 0.0024(3) 0.5940(4) 0.3895(3)
C13_4 C 0.0142(3) 0.5137(4) 0.4769(3)
C15_4 C 0.1062(4) 0.5145(5) 0.4325(3)
H6_4 H 0.149638 0.494778 0.431832
C21_4 C 0.0796(4) 0.4876(5) 0.4754(3)
H12_4 H 0.106302 0.451370 0.503826
H29_4 H 0.024490 0.371009 0.639645
C44_4 C 0.0250(4) 0.4346(5) 0.5676(3)
H31_4 H 0.070161 0.418669 0.568973
H4_4 H 0.975510 0.628991 0.360355
C16_4 C 0.9750(4) 0.5654(5) 0.4324(3)
H7_4 H 0.929839 0.581331 0.431027
O9_4 O 0.8333(2) 0.4068(3) 0.6417(2)
C39_4 C 0.8977(3) 0.3952(3) 0.6512(2)
C40_4 C 0.9312(3) 0.4296(4) 0.6094(3)
C41_4 C 0.9976(3) 0.4060(4) 0.6105(3)
C42_4 C 0.9858(3) 0.4863(4) 0.5231(3)
C43_4 C 0.8938(4) 0.4855(5) 0.5675(3)
H30_4 H 0.850362 0.505222 0.568168
C45_4 C 0.9204(4) 0.5124(5) 0.5246(3)
H32_4 H 0.893698 0.548630 0.496174
H14_4 H 0.408177 0.231075 0.018505
H48_4 H 0.971363 0.023242 0.044041
O6_4 O 0.1936(3) 0.2000(3) 0.7424(2)
O7_4 O 0.2079(4) 0.4001(5) 0.7370(3)
C1_4 C 0.1288(3) 0.0473(4) 0.5557(2)
C3_4 C 0.1358(4) 0.2005(4) 0.7019(3)
N1_4 N 0.3036(3) 0.2969(4) 0.8381(3)
C5_4 C 0.1307(3) 0.1460(4) 0.6521(3)
C11_4 C 0.0842(4) 0.1645(5) 0.5981(3)
H3_4 H 0.052558 0.208601 0.593338
C14_4 C 0.0853(4) 0.1164(5) 0.5507(3)
H5_4 H 0.055655 0.131281 0.514266
C18_4 C 0.1739(4) 0.0285(4) 0.6108(3)
H10_4 H 0.028637 0.023242 0.455959
C20_4 C 0.1746(4) 0.0768(4) 0.6574(3)
H11_4 H 0.205356 0.062831 0.693629
N2_4 N 0.4048(4) 0.2679(5) 0.8130(3)
C22_4 C 0.3560(7) 0.2594(6) 0.9373(4)
H13_4 H 0.314388 0.269073 0.945421
C23_4 C 0.4108(7) 0.2359(7) 0.9814(5)
C24_4 C 0.4753(5) 0.1901(6) 0.7659(5)
C25_4 C 0.4535(5) 0.4220(6) 0.7819(4)
H15_4 H 0.422555 0.423538 0.803229
C26_4 C 0.4200(6) 0.2561(7) 0.8741(5)
C27_4 C 0.4771(6) 0.4939(7) 0.7656(4)
H16_4 H 0.461771 0.544809 0.775752
C28_4 C 0.4536(5) 0.2680(6) 0.7811(4)
C29_4 C 0.3360(5) 0.2920(6) 0.7917(4)
H17_4 H 0.312503 0.303675 0.753045
C30_4 C 0.4762(5) 0.3447(5) 0.7664(4)
C31_4 C 0.3532(7) 0.2707(6) 0.8837(4)
C32_4 C 0.4753(6) 0.0404(6) 0.7632(5)
C33_4 C 0.4511(6) 0.1126(6) 0.7796(5)
H19_4 H 0.418762 0.110870 0.799699
C34_4 C 0.4786(7) 0.2312(8) 0.9143(5)
H20_4 H 0.520376 0.222803 0.906106
C35_4 C 0.4742(6) 0.2185(8) 0.9687(5)
H21_4 H 0.513162 0.198169 0.997707
N3_4 N 0.2178(6) 0.5015(6) 0.6751(4)
C36_4 C 0.1818(8) 0.4501(8) 0.7040(5)
H22_4 H 0.133456 0.457938 0.695290
C37_4 C 0.2944(8) 0.4923(10) 0.6923(6)
H23_4 H 0.309857 0.453965 0.724075
H24_4 H 0.307383 0.471057 0.660346
H25_4 H 0.316301 0.545799 0.703656
C38_4 C 0.1789(8) 0.5618(8) 0.6336(6)
H26_4 H 0.145387 0.589412 0.648022
H27_4 H 0.210822 0.602421 0.626963
H28_4 H 0.154566 0.533901 0.598044
N4_4 N 0.6964(3) 0.2969(4) 0.6619(3)
N5_4 N 0.5952(4) 0.2679(5) 0.6870(3)
C46_4 C 0.6440(7) 0.2594(6) 0.5627(4)
H33_4 H 0.685612 0.269073 0.554579
C47_4 C 0.5892(7) 0.2359(7) 0.5186(5)
H34_4 H 0.591823 0.231075 0.481495
C48_4 C 0.5247(5) 0.1901(6) 0.7341(5)
C49_4 C 0.5465(5) 0.4220(6) 0.7181(4)
H35_4 H 0.577445 0.423538 0.696771
C50_4 C 0.5800(6) 0.2561(7) 0.6259(5)
C51_4 C 0.5229(6) 0.4939(7) 0.7344(4)
H36_4 H 0.538229 0.544809 0.724248
C52_4 C 0.5464(5) 0.2680(6) 0.7189(4)
C53_4 C 0.6640(5) 0.2920(6) 0.7083(4)
H37_4 H 0.687497 0.303675 0.746955
C54_4 C 0.5238(5) 0.3447(5) 0.7336(4)
C55_4 C 0.6468(7) 0.2707(6) 0.6163(4)
C56_4 C 0.5247(6) 0.0404(6) 0.7368(5)
C57_4 C 0.5489(6) 0.1126(6) 0.7204(5)
H39_4 H 0.581238 0.110870 0.700301
C58_4 C 0.5214(7) 0.2312(8) 0.5857(5)
H40_4 H 0.479624 0.222803 0.593894
C59_4 C 0.5258(6) 0.2185(8) 0.5313(5)
H41_4 H 0.486838 0.198169 0.502293
O13_4 O 0.8064(3) 0.2000(3) 0.7576(2)
O14_4 O 0.7921(4) 0.4001(5) 0.7630(3)
C60_4 C 0.8712(3) 0.0473(4) 0.9443(2)
C62_4 C 0.8642(4) 0.2005(4) 0.7981(3)
C64_4 C 0.8693(3) 0.1460(4) 0.8479(3)
C68_4 C 0.9158(4) 0.1645(5) 0.9019(3)
H44_4 H 0.947442 0.208601 0.906662
C69_4 C 0.9147(4) 0.1164(5) 0.9493(3)
H45_4 H 0.944345 0.131281 0.985734
C71_4 C 0.8261(4) 0.0285(4) 0.8892(3)
C73_4 C 0.8254(4) 0.0768(4) 0.8426(3)
H49_4 H 0.794644 0.062831 0.806371
N6_4 N 0.7822(6) 0.5015(6) 0.8249(4)
C74_4 C 0.8182(8) 0.4501(8) 0.7960(5)
H50_4 H 0.866544 0.457938 0.804710
C75_4 C 0.7056(8) 0.4923(10) 0.8077(6)
H51_4 H 0.690143 0.453965 0.775925
H52_4 H 0.692617 0.471057 0.839654
H53_4 H 0.683699 0.545799 0.796344
C76_4 C 0.8211(8) 0.5618(8) 0.8664(6)
H54_4 H 0.854613 0.589412 0.851978
H55_4 H 0.789178 0.602421 0.873037
H56_4 H 0.845434 0.533901 0.901956
O12_2 O 0.9373(3) 0.8401(3) 0.18306(18)
C61_4 C 0.8782(3) 0.8942(4) 0.0907(2)
C66_4 C 0.8823(3) 0.8368(4) 0.1405(2)
C67_4 C 0.8178(3) 0.8984(4) 0.0424(3)
H43_4 H 0.778364 0.867158 0.041645
C70_4 C 0.9351(4) 0.9425(5) 0.0899(3)
H46_4 H 0.975954 0.941761 0.121575
C72_4 C 0.9322(4) 0.9915(5) 0.0433(3)
O5_4 O 0.0627(3) 0.8401(3) 0.31694(18)
C2_4 C 0.1218(3) 0.8942(4) 0.4093(2)
C4_4 C 0.1273(3) 0.9952(4) 0.5049(2)
C6_4 C 0.1842(3) 0.9480(4) 0.5040(3)
H1_4 H 0.225102 0.949579 0.535572
C9_4 C 0.1177(3) 0.8368(4) 0.3595(2)
C10_4 C 0.1822(3) 0.8984(4) 0.4576(3)
H2_4 H 0.221636 0.867158 0.458355
C17_4 C 0.0649(4) 0.9425(5) 0.4101(3)
H8_4 H 0.024046 0.941761 0.378425
H9_4 H 0.203977 0.982678 0.616032
C19_4 C 0.0678(4) 0.9915(5) 0.4567(3)
H18_4 H 0.457244 0.989568 0.770580
H38_4 H 0.542756 0.989568 0.729420
C63_4 C 0.8727(3) 0.9952(4) 0.9951(2)
C65_4 C 0.8158(3) 0.9480(4) 0.9960(3)
H42_4 H 0.774898 0.949579 0.964428
H47_4 H 0.796023 0.982678 0.883968
loop_
_geom_bond_atom_site_label_1
_geom_bond_atom_site_label_2
_geom_bond_site_symmetry_1
_geom_bond_site_symmetry_2
Cd1 O5 1_555 1_555
Cd2 O1 1_555 1_555
O1 C3 1_555 1_555
O2 Cd2 1_555 1_555
O3 Cd2 1_555 1_555
O4 C9 1_555 1_555
O5 C9 1_555 1_555
O6 Cd2 1_555 1_555
O7 Cd2 1_555 1_555
C1 C4 1_555 1_555
C2 C9 1_555 1_555
C3 O6 1_555 1_555
C4 C6 1_555 1_555
N1 Cd2 1_555 1_555
C5 C3 1_555 1_555
C6 H1 1_555 1_555
C7 O2 1_555 1_555
C8 C7 1_555 1_555
C10 C2 1_555 1_555
H2 C10 1_555 1_555
C11 C5 1_555 1_555
H3 C11 1_555 1_555
C12 C8 1_555 1_555
H4 C12 1_555 1_555
C13 C16 1_555 1_555
C14 C1 1_555 1_555
H5 C14 1_555 1_555
C15 C8 1_555 1_555
C16 C12 1_555 1_555
H7 C16 1_555 1_555
C17 C2 1_555 1_555
H8 C17 1_555 1_555
C18 C1 1_555 1_555
H9 C18 1_555 1_555
C19 C4 1_555 1_555
H10 C19 1_555 1_555
C20 C5 1_555 1_555
H11 C20 1_555 1_555
N2 C26 1_555 1_555
C22 H13 1_555 1_555
C23 C22 1_555 1_555
C24 C28 1_555 1_555
C25 H15 1_555 1_555
C26 C31 1_555 1_555
C27 C25 1_555 1_555
C28 N2 1_555 1_555
C29 N1 1_555 1_555
H17 C29 1_555 1_555
C30 C25 1_555 1_555
C31 N1 1_555 1_555
C32 H18 1_555 1_555
C33 C24 1_555 1_555
H19 C33 1_555 1_555
C34 C26 1_555 1_555
C35 C23 1_555 1_555
C36 O7 1_555 1_555
H22 C36 1_555 1_555
H23 C37 1_555 1_555
H24 C37 1_555 1_555
Cd7 O1 1_555 1_555
Cd10 O4 1_555 1_555
O15 Cd1 1_555 1_555
O16 Cd1 1_555 1_555
O18 Cd1 1_555 1_555
O19 Cd1 1_555 1_555
O22 Cd2 1_555 1_555
O23 Cd1 1_555 1_555
O2 Cd7 1_555 1_555
O3 C7 1_555 1_555
C6 C10 1_555 1_555
C11 C14 1_555 1_555
C17 C19 1_555 1_555
C18 C20 1_555 1_555
N2 C29 1_555 1_555
C22 C31 1_555 1_555
C28 C30 1_555 1_555
C32 C33 1_555 1_555
C34 C35 1_555 1_555
Cd10 O16 1_555 1_555
Cd10 O19 1_555 1_555
O18 C39 1_555 1_555
O9 C39 1_555 1_555
C39 C40 1_555 1_555
C40 C41 1_555 1_555
C41 H29 1_555 1_555
C43 C40 1_555 1_555
C44 C41 1_555 1_555
H31 C44 1_555 1_555
Cd9 O18 1_555 1_555
O9 Cd9 1_555 1_555
C42 C44 1_555 1_555
N4 C53 1_555 1_555
N5 C50 1_555 1_555
C46 H33 1_555 1_555
C47 C46 1_555 1_555
H34 C47 1_555 1_555
C49 H35 1_555 1_555
C50 C55 1_555 1_555
C52 N5 1_555 1_555
C53 N5 1_555 1_555
H37 C53 1_555 1_555
C55 N4 1_555 1_555
H38 C56 1_555 1_555
C57 C48 1_555 1_555
H39 C57 1_555 1_555
C58 C50 1_555 1_555
C59 C47 1_555 1_555
Cd3 N4 1_555 1_555
O10 Cd3 1_555 1_555
O13 Cd3 1_555 1_555
O14 Cd3 1_555 1_555
C60 C63 1_555 1_555
C62 O10 1_555 1_555
C63 C65 1_555 1_555
C64 C62 1_555 1_555
C65 H42 1_555 1_555
C68 C64 1_555 1_555
H44 C68 1_555 1_555
C69 C60 1_555 1_555
H45 C69 1_555 1_555
C71 C60 1_555 1_555
H47 C71 1_555 1_555
C73 C64 1_555 1_555
H49 C73 1_555 1_555
C74 O14 1_555 1_555
H50 C74 1_555 1_555
H51 C75 1_555 1_555
H52 C75 1_555 1_555
Cd7 O10 1_555 1_555
O17 Cd3 1_555 1_555
O20 Cd3 1_555 1_555
O21 Cd3 1_555 1_555
C46 C55 1_555 1_555
C48 C52 1_555 1_555
C49 C51 1_555 1_555
C49 C54 1_555 1_555
C52 C54 1_555 1_555
C56 C57 1_555 1_555
C58 C59 1_555 1_555
O13 C62 1_555 1_555
C68 C69 1_555 1_555
C71 C73 1_555 1_555
Cd7 O17 1_555 1_555
O11 C66 1_555 1_555
O23 C66 1_555 1_555
C61 C66 1_555 1_555
C67 C61 1_555 1_555
H43 C67 1_555 1_555
C70 C61 1_555 1_555
H46 C70 1_555 1_555
H48 C72 1_555 1_555
Cd9 O11 1_555 1_555
C70 C72 1_555 1_555
C76 N6 1_555 1_555
H54 C76 1_555 1_555
H55 C76 1_555 1_555
H56 C76 1_555 1_555
C7_2 O17 1_555 1_555
C8_2 C7_2 1_555 1_555
C12_2 C8_2 1_555 1_555
H4_2 C12_2 1_555 1_555
C13_2 C16_2 1_555 1_555
C15_2 C8_2 1_555 1_555
C16_2 C12_2 1_555 1_555
H7_2 C16_2 1_555 1_555
H32_2 C45 1_555 1_555
O20 C7_2 1_555 1_555
Cd9 O15 1_555 1_555
H12_2 C21 1_555 1_555
O19 C39_2 1_555 1_555
O9_2 C39_2 1_555 1_555
C39_2 C40_2 1_555 1_555
C40_2 C41_2 1_555 1_555
C41_2 H29_2 1_555 1_555
C43_2 C40_2 1_555 1_555
C44_2 C41_2 1_555 1_555
H31_2 C44_2 1_555 1_555
O9_2 Cd10 1_555 1_555
C42_2 C44_2 1_555 1_555
C76_2 N6_2 1_555 1_555
H54_2 C76_2 1_555 1_555
H55_2 C76_2 1_555 1_555
H56_2 C76_2 1_555 1_555
O22 C66_2 1_555 1_555
O12 C66_2 1_555 1_555
C61_2 C66_2 1_555 1_555
C67_2 C61_2 1_555 1_555
H43_2 C67_2 1_555 1_555
C70_2 C61_2 1_555 1_555
H46_2 C70_2 1_555 1_555
H48_2 C72_2 1_555 1_555
Cd7 O12 1_555 1_555
C70_2 C72_2 1_555 1_555
N4_2 C53_2 1_555 1_555
N5_2 C50_2 1_555 1_555
C46_2 H33_2 1_555 1_555
C47_2 C46_2 1_555 1_555
H34_2 C47_2 1_555 1_555
C49_2 H35_2 1_555 1_555
C50_2 C55_2 1_555 1_555
C52_2 N5_2 1_555 1_555
C53_2 N5_2 1_555 1_555
H37_2 C53_2 1_555 1_555
C55_2 N4_2 1_555 1_555
H38_2 C56_2 1_555 1_555
C57_2 C48_2 1_555 1_555
H39_2 C57_2 1_555 1_555
C58_2 C50_2 1_555 1_555
C59_2 C47_2 1_555 1_555
Cd10 N4_2 1_555 1_555
O13_2 Cd10 1_555 1_555
O14_2 Cd10 1_555 1_555
C60_2 C63_2 1_555 1_555
C62_2 O16 1_555 1_555
C63_2 C65_2 1_555 1_555
C64_2 C62_2 1_555 1_555
C65_2 H42_2 1_555 1_555
C68_2 C64_2 1_555 1_555
H44_2 C68_2 1_555 1_555
C69_2 C60_2 1_555 1_555
H45_2 C69_2 1_555 1_555
C71_2 C60_2 1_555 1_555
H47_2 C71_2 1_555 1_555
C73_2 C64_2 1_555 1_555
H49_2 C73_2 1_555 1_555
C74_2 O14_2 1_555 1_555
H50_2 C74_2 1_555 1_555
H51_2 C75_2 1_555 1_555
H52_2 C75_2 1_555 1_555
C46_2 C55_2 1_555 1_555
C48_2 C52_2 1_555 1_555
C49_2 C51_2 1_555 1_555
C49_2 C54_2 1_555 1_555
C52_2 C54_2 1_555 1_555
C56_2 C57_2 1_555 1_555
C58_2 C59_2 1_555 1_555
O13_2 C62_2 1_555 1_555
C68_2 C69_2 1_555 1_555
C71_2 C73_2 1_555 1_555
Cd7 O5_2 1_555 1_555
O15 C3_2 1_555 1_555
O21 C9_2 1_555 1_555
O5_2 C9_2 1_555 1_555
O6_2 Cd9 1_555 1_555
O7_2 Cd9 1_555 1_555
C1_2 C4_2 1_555 1_555
C2_2 C9_2 1_555 1_555
C3_2 O6_2 1_555 1_555
C4_2 C6_2 1_555 1_555
N1_2 Cd9 1_555 1_555
C5_2 C3_2 1_555 1_555
C6_2 H1_2 1_555 1_555
C10_2 C2_2 1_555 1_555
H2_2 C10_2 1_555 1_555
C11_2 C5_2 1_555 1_555
H3_2 C11_2 1_555 1_555
C14_2 C1_2 1_555 1_555
H5_2 C14_2 1_555 1_555
C17_2 C2_2 1_555 1_555
H8_2 C17_2 1_555 1_555
C18_2 C1_2 1_555 1_555
H9_2 C18_2 1_555 1_555
C19_2 C4_2 1_555 1_555
H10_2 C19_2 1_555 1_555
C20_2 C5_2 1_555 1_555
H11_2 C20_2 1_555 1_555
N2_2 C26_2 1_555 1_555
C22_2 H13_2 1_555 1_555
C23_2 C22_2 1_555 1_555
C24_2 C28_2 1_555 1_555
C25_2 H15_2 1_555 1_555
C26_2 C31_2 1_555 1_555
C27_2 C25_2 1_555 1_555
C28_2 N2_2 1_555 1_555
C29_2 N1_2 1_555 1_555
H17_2 C29_2 1_555 1_555
C30_2 C25_2 1_555 1_555
C31_2 N1_2 1_555 1_555
C32_2 H18_2 1_555 1_555
C33_2 C24_2 1_555 1_555
H19_2 C33_2 1_555 1_555
C34_2 C26_2 1_555 1_555
C35_2 C23_2 1_555 1_555
C36_2 O7_2 1_555 1_555
H22_2 C36_2 1_555 1_555
H23_2 C37_2 1_555 1_555
H24_2 C37_2 1_555 1_555
C6_2 C10_2 1_555 1_555
C11_2 C14_2 1_555 1_555
C17_2 C19_2 1_555 1_555
C18_2 C20_2 1_555 1_555
N2_2 C29_2 1_555 1_555
C22_2 C31_2 1_555 1_555
C28_2 C30_2 1_555 1_555
C32_2 C33_2 1_555 1_555
C34_2 C35_2 1_555 1_555
C38 N3 1_555 1_555
H26 C38 1_555 1_555
H27 C38 1_555 1_555
H28 C38 1_555 1_555
C38_2 N3_2 1_555 1_555
H26_2 C38_2 1_555 1_555
H27_2 C38_2 1_555 1_555
H28_2 C38_2 1_555 1_555
O15_2 Cd1_2 1_555 1_555
O18_2 Cd1_2 1_555 1_555
O23_2 Cd1_2 1_555 1_555
H7_3 C16_3 1_555 1_555
O18_2 C39_3 1_555 1_555
O9_3 C39_3 1_555 1_555
C39_3 C40_3 1_555 1_555
C40_3 C41_3 1_555 1_555
C43_3 C40_3 1_555 1_555
H30_3 C43_3 1_555 1_555
C45_3 C42_3 1_555 1_555
Cd9_2 O18_2 1_555 1_555
O9_3 Cd9_2 1_555 1_555
C43_3 C45_3 1_555 1_555
Cd1_3 O5_3 1_555 1_555
O4_2 C9_3 1_555 1_555
O5_3 C9_3 1_555 1_555
C2_3 C9_3 1_555 1_555
C4_3 C6_3 1_555 1_555
C6_3 H1_3 1_555 1_555
C10_3 C2_3 1_555 1_555
H2_3 C10_3 1_555 1_555
C17_3 C2_3 1_555 1_555
H8_3 C17_3 1_555 1_555
C19_3 C4_3 1_555 1_555
C63_3 C65_3 1_555 1_555
C65_3 H42_3 1_555 1_555
Cd10_2 O4_2 1_555 1_555
O16_2 Cd1_3 1_555 1_555
O19_2 Cd1_3 1_555 1_555
C6_3 C10_3 1_555 1_555
C17_3 C19_3 1_555 1_555
Cd10_2 O16_2 1_555 1_555
Cd10_2 O19_2 1_555 1_555
O11_2 C66_3 1_555 1_555
O23_2 C66_3 1_555 1_555
C61_3 C66_3 1_555 1_555
C67_3 C61_3 1_555 1_555
H43_3 C67_3 1_555 1_555
C70_3 C61_3 1_555 1_555
H46_3 C70_3 1_555 1_555
Cd9_2 O11_2 1_555 1_555
C70_3 C72_3 1_555 1_555
Cd2_2 O1_2 1_555 1_555
O1_2 C3_3 1_555 1_555
O2_2 Cd2_2 1_555 1_555
O3_2 Cd2_2 1_555 1_555
O6_3 Cd2_2 1_555 1_555
O7_3 Cd2_2 1_555 1_555
C3_3 O6_3 1_555 1_555
N1_3 Cd2_2 1_555 1_555
C5_3 C3_3 1_555 1_555
C7_3 O2_2 1_555 1_555
C8_3 C7_3 1_555 1_555
C11_3 C5_3 1_555 1_555
H3_3 C11_3 1_555 1_555
C12_3 C8_3 1_555 1_555
C14_3 C1_3 1_555 1_555
H5_3 C14_3 1_555 1_555
C15_3 C8_3 1_555 1_555
H6_3 C15_3 1_555 1_555
C18_3 C1_3 1_555 1_555
C20_3 C5_3 1_555 1_555
H11_3 C20_3 1_555 1_555
C21_3 C13_3 1_555 1_555
N2_3 C26_3 1_555 1_555
C22_3 H13_3 1_555 1_555
C23_3 C22_3 1_555 1_555
C24_3 C28_3 1_555 1_555
C25_3 H15_3 1_555 1_555
C26_3 C31_3 1_555 1_555
C27_3 C25_3 1_555 1_555
H16_3 C27_3 1_555 1_555
C28_3 N2_3 1_555 1_555
C29_3 N1_3 1_555 1_555
H17_3 C29_3 1_555 1_555
C30_3 C25_3 1_555 1_555
C31_3 N1_3 1_555 1_555
C33_3 C24_3 1_555 1_555
H19_3 C33_3 1_555 1_555
C34_3 C26_3 1_555 1_555
H20_3 C34_3 1_555 1_555
C35_3 C23_3 1_555 1_555
H21_3 C35_3 1_555 1_555
N3_3 C36_3 1_555 1_555
C36_3 O7_3 1_555 1_555
H22_3 C36_3 1_555 1_555
C37_3 N3_3 1_555 1_555
H23_3 C37_3 1_555 1_555
H24_3 C37_3 1_555 1_555
H25_3 C37_3 1_555 1_555
C38_3 N3_3 1_555 1_555
H26_3 C38_3 1_555 1_555
H27_3 C38_3 1_555 1_555
H28_3 C38_3 1_555 1_555
N4_3 C53_3 1_555 1_555
N5_3 C50_3 1_555 1_555
C46_3 H33_3 1_555 1_555
C47_3 C46_3 1_555 1_555
H34_3 C47_3 1_555 1_555
C48_3 C24_3 1_555 1_555
C49_3 H35_3 1_555 1_555
C50_3 C55_3 1_555 1_555
C51_3 C27_3 1_555 1_555
H36_3 C51_3 1_555 1_555
C52_3 N5_3 1_555 1_555
C53_3 N5_3 1_555 1_555
H37_3 C53_3 1_555 1_555
C54_3 C30_3 1_555 1_555
C55_3 N4_3 1_555 1_555
C56_3 C32_3 1_555 1_555
C57_3 C48_3 1_555 1_555
H39_3 C57_3 1_555 1_555
C58_3 C50_3 1_555 1_555
H40_3 C58_3 1_555 1_555
C59_3 C47_3 1_555 1_555
H41_3 C59_3 1_555 1_555
Cd3_2 N4_3 1_555 1_555
O10_2 Cd3_2 1_555 1_555
O13_3 Cd3_2 1_555 1_555
O14_3 Cd3_2 1_555 1_555
C62_3 O10_2 1_555 1_555
C64_3 C62_3 1_555 1_555
C68_3 C64_3 1_555 1_555
H44_3 C68_3 1_555 1_555
C69_3 C60_3 1_555 1_555
H45_3 C69_3 1_555 1_555
C71_3 C60_3 1_555 1_555
C73_3 C64_3 1_555 1_555
H49_3 C73_3 1_555 1_555
N6_3 C74_3 1_555 1_555
C74_3 O14_3 1_555 1_555
H50_3 C74_3 1_555 1_555
C75_3 N6_3 1_555 1_555
H51_3 C75_3 1_555 1_555
H52_3 C75_3 1_555 1_555
H53_3 C75_3 1_555 1_555
C76_3 N6_3 1_555 1_555
H54_3 C76_3 1_555 1_555
H55_3 C76_3 1_555 1_555
H56_3 C76_3 1_555 1_555
Cd7_2 O10_2 1_555 1_555
Cd7_3 O1_2 1_555 1_555
O17_2 Cd3_2 1_555 1_555
O20_2 Cd3_2 1_555 1_555
O21_2 Cd3_2 1_555 1_555
O22_2 Cd2_2 1_555 1_555
O2_2 Cd7_3 1_555 1_555
O3_2 C7_3 1_555 1_555
C11_3 C14_3 1_555 1_555
C15_3 C21_3 1_555 1_555
C18_3 C20_3 1_555 1_555
N2_3 C29_3 1_555 1_555
C22_3 C31_3 1_555 1_555
C28_3 C30_3 1_555 1_555
C32_3 C33_3 1_555 1_555
C34_3 C35_3 1_555 1_555
C46_3 C55_3 1_555 1_555
C48_3 C52_3 1_555 1_555
C49_3 C51_3 1_555 1_555
C49_3 C54_3 1_555 1_555
C52_3 C54_3 1_555 1_555
C56_3 C57_3 1_555 1_555
C58_3 C59_3 1_555 1_555
O13_3 C62_3 1_555 1_555
C68_3 C69_3 1_555 1_555
C71_3 C73_3 1_555 1_555
Cd7_2 O17_2 1_555 1_555
H31_3 C44_3 1_555 1_555
Cd9_2 O15_2 1_555 1_555
C7_4 O17_2 1_555 1_555
C8_4 C7_4 1_555 1_555
C12_4 C8_4 1_555 1_555
C15_4 C8_4 1_555 1_555
H6_4 C15_4 1_555 1_555
C21_4 C13_4 1_555 1_555
H12_4 C21_4 1_555 1_555
H31_4 C44_4 1_555 1_555
O20_2 C7_4 1_555 1_555
C15_4 C21_4 1_555 1_555
H7_4 C16_4 1_555 1_555
O19_2 C39_4 1_555 1_555
O9_4 C39_4 1_555 1_555
C39_4 C40_4 1_555 1_555
C40_4 C41_4 1_555 1_555
C43_4 C40_4 1_555 1_555
H30_4 C43_4 1_555 1_555
C45_4 C42_4 1_555 1_555
H32_4 C45_4 1_555 1_555
O9_4 Cd10_2 1_555 1_555
C43_4 C45_4 1_555 1_555
O15_2 C3_4 1_555 1_555
O6_4 Cd9_2 1_555 1_555
O7_4 Cd9_2 1_555 1_555
C3_4 O6_4 1_555 1_555
N1_4 Cd9_2 1_555 1_555
C5_4 C3_4 1_555 1_555
C11_4 C5_4 1_555 1_555
H3_4 C11_4 1_555 1_555
C14_4 C1_4 1_555 1_555
H5_4 C14_4 1_555 1_555
C18_4 C1_4 1_555 1_555
C20_4 C5_4 1_555 1_555
H11_4 C20_4 1_555 1_555
N2_4 C26_4 1_555 1_555
C22_4 H13_4 1_555 1_555
C23_4 C22_4 1_555 1_555
C24_4 C28_4 1_555 1_555
C25_4 H15_4 1_555 1_555
C26_4 C31_4 1_555 1_555
C27_4 C25_4 1_555 1_555
H16_4 C27_4 1_555 1_555
C28_4 N2_4 1_555 1_555
C29_4 N1_4 1_555 1_555
H17_4 C29_4 1_555 1_555
C30_4 C25_4 1_555 1_555
C31_4 N1_4 1_555 1_555
C33_4 C24_4 1_555 1_555
H19_4 C33_4 1_555 1_555
C34_4 C26_4 1_555 1_555
H20_4 C34_4 1_555 1_555
C35_4 C23_4 1_555 1_555
H21_4 C35_4 1_555 1_555
N3_4 C36_4 1_555 1_555
C36_4 O7_4 1_555 1_555
H22_4 C36_4 1_555 1_555
C37_4 N3_4 1_555 1_555
H23_4 C37_4 1_555 1_555
H24_4 C37_4 1_555 1_555
H25_4 C37_4 1_555 1_555
C38_4 N3_4 1_555 1_555
H26_4 C38_4 1_555 1_555
H27_4 C38_4 1_555 1_555
H28_4 C38_4 1_555 1_555
N4_4 C53_4 1_555 1_555
N5_4 C50_4 1_555 1_555
C46_4 H33_4 1_555 1_555
C47_4 C46_4 1_555 1_555
H34_4 C47_4 1_555 1_555
C48_4 C24_4 1_555 1_555
C49_4 H35_4 1_555 1_555
C50_4 C55_4 1_555 1_555
C51_4 C27_4 1_555 1_555
H36_4 C51_4 1_555 1_555
C52_4 N5_4 1_555 1_555
C53_4 N5_4 1_555 1_555
H37_4 C53_4 1_555 1_555
C54_4 C30_4 1_555 1_555
C55_4 N4_4 1_555 1_555
C56_4 C32_4 1_555 1_555
C57_4 C48_4 1_555 1_555
H39_4 C57_4 1_555 1_555
C58_4 C50_4 1_555 1_555
H40_4 C58_4 1_555 1_555
C59_4 C47_4 1_555 1_555
H41_4 C59_4 1_555 1_555
Cd10_2 N4_4 1_555 1_555
O13_4 Cd10_2 1_555 1_555
O14_4 Cd10_2 1_555 1_555
C62_4 O16_2 1_555 1_555
C64_4 C62_4 1_555 1_555
C68_4 C64_4 1_555 1_555
H44_4 C68_4 1_555 1_555
C69_4 C60_4 1_555 1_555
H45_4 C69_4 1_555 1_555
C71_4 C60_4 1_555 1_555
C73_4 C64_4 1_555 1_555
H49_4 C73_4 1_555 1_555
N6_4 C74_4 1_555 1_555
C74_4 O14_4 1_555 1_555
H50_4 C74_4 1_555 1_555
C75_4 N6_4 1_555 1_555
H51_4 C75_4 1_555 1_555
H52_4 C75_4 1_555 1_555
H53_4 C75_4 1_555 1_555
C76_4 N6_4 1_555 1_555
H54_4 C76_4 1_555 1_555
H55_4 C76_4 1_555 1_555
H56_4 C76_4 1_555 1_555
C11_4 C14_4 1_555 1_555
C18_4 C20_4 1_555 1_555
N2_4 C29_4 1_555 1_555
C22_4 C31_4 1_555 1_555
C28_4 C30_4 1_555 1_555
C32_4 C33_4 1_555 1_555
C34_4 C35_4 1_555 1_555
C46_4 C55_4 1_555 1_555
C48_4 C52_4 1_555 1_555
C49_4 C51_4 1_555 1_555
C49_4 C54_4 1_555 1_555
C52_4 C54_4 1_555 1_555
C56_4 C57_4 1_555 1_555
C58_4 C59_4 1_555 1_555
O13_4 C62_4 1_555 1_555
C68_4 C69_4 1_555 1_555
C71_4 C73_4 1_555 1_555
O22_2 C66_4 1_555 1_555
O12_2 C66_4 1_555 1_555
C61_4 C66_4 1_555 1_555
C67_4 C61_4 1_555 1_555
H43_4 C67_4 1_555 1_555
C70_4 C61_4 1_555 1_555
H46_4 C70_4 1_555 1_555
Cd7_3 O12_2 1_555 1_555
C70_4 C72_4 1_555 1_555
Cd7_2 O5_4 1_555 1_555
O21_2 C9_4 1_555 1_555
O5_4 C9_4 1_555 1_555
C2_4 C9_4 1_555 1_555
C4_4 C6_4 1_555 1_555
C6_4 H1_4 1_555 1_555
C10_4 C2_4 1_555 1_555
H2_4 C10_4 1_555 1_555
C17_4 C2_4 1_555 1_555
H8_4 C17_4 1_555 1_555
C19_4 C4_4 1_555 1_555
C63_4 C65_4 1_555 1_555
C65_4 H42_4 1_555 1_555
C6_4 C10_4 1_555 1_555
C17_4 C19_4 1_555 1_555

#END
