
###############################################################################
#
# This file contains modified crystal structure data generated from the
# MOF subset of the Cambridge Structural Database (CSD) v543 
# hosted by the Cambridge Crystallographic Data Centre (CCDC).
#
# This work is licensed under the Creative Commons
# Attribution-NonCommercial-ShareAlike 4.0 International License.
# To view a copy of this license, visit
# http://creativecommons.org/licenses/by-nc-sa/4.0/
# or send a letter to
# Creative Commons, PO Box 1866, Mountain View, CA 94042, USA.
#
# CIF created using the CSD Python API on 29 September 2022
# The structure has been converted into the P1 space group
# The structure has a 3D framework
# The original CSD entry JUJMIM is in the rhombohedral crystal system
# The original CSD entry JUJMIM is in a Sohncke space group
# The framework has been calculated to contain at least 10.0% void space
# The void calculation uses a probe of radius 1.32A, grid spacing 0.4
#
###############################################################################

data_JUJMIM
_chemical_formula_moiety         '(C540 H396 N36 O164 Zn54)n'
_symmetry_cell_setting           triclinic
_symmetry_space_group_name_H-M   'P 1'
_symmetry_Int_Tables_number      1
_space_group_name_Hall           'P 1'
loop_
_symmetry_equiv_pos_site_id
_symmetry_equiv_pos_as_xyz
1 x,y,z
_cell_length_a                   18.985(3)
_cell_length_b                   18.985(3)
_cell_length_c                   68.340(14)
_cell_angle_alpha                90
_cell_angle_beta                 90
_cell_angle_gamma                120
_cell_volume                     21331.8
loop_
_atom_site_label
_atom_site_type_symbol
_atom_site_fract_x
_atom_site_fract_y
_atom_site_fract_z
Zn1 Zn 0.3333 0.6667 0.297076(10)
Zn2 Zn 0.35503(3) 0.58271(4) 0.334477(6)
Zn3 Zn -0.0000 0.0000 0.193606(13)
Zn4 Zn 0.10317(2) 0.08573(2) 0.155295(5)
O1 O 0.3333 0.6667 0.32536(6)
O2 O 0.0000 0.0000 0.16419(5)
O3 O 0.3413(2) 0.5763(2) 0.28649(5)
O4 O 0.3816(4) 0.5358(4) 0.31325(7)
O5 O 0.1062(3) 0.0790(4) 0.19899(7)
O6 O 0.1928(2) 0.1459(2) 0.17387(5)
O7 O 0.14995(16) 0.04200(16) 0.13655(3)
O9 O 0.5097(2) 0.2179(2) 0.01870(5)
O10 O 0.6068(3) 0.1829(4) 0.02015(9)
N1 N 0.4213(4) 0.3202(4) 0.24713(9)
C1 C 0.3689(3) 0.5363(4) 0.29484(7)
C2 C 0.3839(3) 0.4789(3) 0.28252(5)
C3 C 0.4279(4) 0.4441(4) 0.28976(5)
H1 H 0.4499 0.4568 0.3026
C4 C 0.4397(4) 0.3905(4) 0.27822(6)
H2 H 0.4697 0.3667 0.2832
C5 C 0.4074(3) 0.3718(3) 0.25943(5)
C6 C 0.3634(2) 0.4066(2) 0.25218(4)
H3 H 0.3414 0.3939 0.2393
C7 C 0.35168(19) 0.4602(2) 0.26373(4)
H4 H 0.3216 0.4840 0.2588
C8 C 0.4959(6) 0.3204(6) 0.24698(12)
H5 H 0.4937 0.2810 0.2566
H6 H 0.5403 0.3748 0.2503
H7 H 0.5053 0.3054 0.2339
C9 C 0.1761(4) 0.1331(4) 0.19163(9)
C10 C 0.24127(17) 0.1789(2) 0.20634(4)
C11 C 0.31994(18) 0.23049(19) 0.19972(4)
H8 H 0.3321 0.2329 0.1862
C12 C 0.38088(15) 0.27864(19) 0.21294(5)
H9 H 0.4347 0.3139 0.2084
C13 C 0.3631(2) 0.2752(3) 0.23277(5)
C14 C 0.2845(2) 0.2235(3) 0.23938(4)
H10 H 0.2723 0.2212 0.2529
C15 C 0.22353(19) 0.1754(3) 0.22617(5)
H11 H 0.1698 0.1401 0.2307
C21 C 0.31423(15) 0.02042(13) 0.10098(5)
H14 H 0.3606 0.0675 0.0960
C22 C 0.26214(16) 0.02844(11) 0.11391(4)
H15 H 0.2729 0.0810 0.1178
C24 C 0.5394(3) 0.1771(3) 0.02511(7)
C25 C 0.4911(2) 0.1149(3) 0.04088(6)
C26 C 0.52142(19) 0.0702(3) 0.05002(7)
H19 H 0.5745 0.0802 0.0470
C27 C 0.4741(2) 0.0108(2) 0.06364(6)
C29 C 0.36617(17) 0.0409(2) 0.05895(6)
H21 H 0.3131 0.0308 0.0620
C30 C 0.4135(2) 0.1003(2) 0.04534(6)
H22 H 0.3928 0.1309 0.0391
O16 O 0.09461(16) 0.16978(23) 0.14035(4)
N4 N 0.0645(3) 0.4150(4) 0.08162(7)
C46 C 0.0310(2) 0.1668(3) 0.13362(5)
C47 C 0.04043(14) 0.23467(21) 0.12117(4)
C48 C 0.11731(11) 0.29574(19) 0.11550(5)
H34 H 0.1644 0.2964 0.1205
C49 C 0.12532(12) 0.35584(22) 0.10257(5)
H35 H 0.1779 0.3976 0.0987
C50 C 0.05645(16) 0.35487(23) 0.09531(5)
C53 C 0.1402(3) 0.4875(4) 0.08070(10)
H38 H 0.1460 0.5217 0.0920
H39 H 0.1432 0.5168 0.0686
H40 H 0.1841 0.4745 0.0808
H42 H 0.0198 0.5146 0.0699
C58 C 0.0039(2) 0.4004(3) 0.06810(5)
Zn11 Zn 0.41729(4) 0.77232(5) 0.334477(6)
Zn12 Zn 0.22768(5) 0.64497(3) 0.334477(6)
Zn14 Zn 0.68836(3) 0.24938(4) 0.001144(6)
Zn18 Zn 0.56101(5) 0.31164(3) 0.001144(6)
O29 O 0.4237(2) 0.7650(3) 0.28649(5)
O30 O 0.2350(3) 0.6587(2) 0.28649(5)
O32 O 0.4488(2) 0.6251(3) 0.35203(5)
O34 O 0.2735(3) 0.5162(4) 0.35348(9)
Zn3_2 Zn -0.0000 1.0000 0.193606(13)
O2_2 O -0.0000 1.0000 0.16419(5)
O8 O 0.07517(16) 0.90539(16) 0.14035(4)
N2 N 0.3505(3) 0.9355(3) 0.08162(7)
C16 C 0.1358(2) 0.9690(2) 0.13362(5)
C17 C 0.19424(15) 0.95957(14) 0.12117(4)
C18 C 0.17843(15) 0.88269(11) 0.11550(5)
H12 H 0.1320 0.8356 0.1205
C19 C 0.23052(18) 0.87468(12) 0.10257(5)
H13 H 0.2197 0.8221 0.0987
C20 C 0.29842(17) 0.94355(16) 0.09531(5)
C23 C 0.3473(3) 0.8598(3) 0.08070(10)
H16 H 0.3757 0.8540 0.0920
H17 H 0.3736 0.8568 0.0686
H18 H 0.2904 0.8159 0.0808
H20 H 0.4948 0.9802 0.0699
C28 C 0.3965(2) 0.9961(2) 0.06810(5)
O20 O 0.1542(6) 0.6184(4) 0.31325(7)
C61 C 0.1674(5) 0.6311(3) 0.29484(7)
C62 C 0.0950(4) 0.6161(3) 0.28252(5)
C63 C 0.0162(6) 0.5721(4) 0.28976(5)
H45 H 0.0069 0.5501 0.3026
C66 C 0.0432(3) 0.6366(2) 0.25218(4)
H47 H 0.0525 0.6586 0.2393
C67 C 0.10852(28) 0.64832(19) 0.26373(4)
H48 H 0.1624 0.6784 0.2588
O31 O 0.1764(2) 0.5512(2) 0.35203(5)
O36 O 0.2428(5) 0.7265(3) 0.35348(9)
Zn3_3 Zn 1.0000 0.0000 0.193606(13)
O2_3 O 1.0000 0.0000 0.16419(5)
Zn6 Zn 0.91427(2) 0.01744(3) 0.155295(5)
O13 O 0.9210(4) 0.0272(5) 0.19899(7)
O14 O 0.8541(2) 0.0469(3) 0.17387(5)
O15 O 0.95800(16) 0.10795(23) 0.13655(3)
O17 O 0.7821(2) 0.2918(3) 0.01870(5)
O18 O 0.8171(4) 0.4239(5) 0.02015(9)
N3 N 0.6798(4) 0.1011(6) 0.24713(9)
C34 C 0.6095(4) 0.0492(6) 0.27822(6)
H24 H 0.6333 0.1030 0.2832
C35 C 0.6282(3) 0.0356(4) 0.25943(5)
C38 C 0.6796(6) 0.1755(8) 0.24698(12)
H27 H 0.7190 0.2127 0.2566
H28 H 0.6252 0.1655 0.2503
H29 H 0.6946 0.1999 0.2339
C39 C 0.8669(4) 0.0430(6) 0.19163(9)
C40 C 0.8211(2) 0.06237(26) 0.20634(4)
C41 C 0.76951(19) 0.08945(26) 0.19972(4)
H30 H 0.7671 0.0992 0.1862
C42 C 0.72136(19) 0.10224(24) 0.21294(5)
H31 H 0.6861 0.1208 0.2084
C43 C 0.7248(3) 0.0879(4) 0.23277(5)
C44 C 0.7765(3) 0.0610(4) 0.23938(4)
H32 H 0.7788 0.0511 0.2529
C45 C 0.8246(3) 0.04813(36) 0.22617(5)
H33 H 0.8599 0.0297 0.2307
C51 C 0.97958(13) 0.29381(20) 0.10098(5)
H36 H 0.9325 0.2931 0.0960
C52 C 0.97156(11) 0.23370(19) 0.11391(4)
H37 H 0.9190 0.1919 0.1178
C54 C 0.8229(3) 0.3623(4) 0.02511(7)
C55 C 0.8851(3) 0.3762(4) 0.04088(6)
C56 C 0.9298(3) 0.45122(36) 0.05002(7)
H41 H 0.9198 0.4943 0.0470
C57 C 0.9892(2) 0.4633(3) 0.06364(6)
C59 C 0.9591(2) 0.32527(26) 0.05895(6)
H43 H 0.9692 0.2823 0.0620
C60 C 0.8997(2) 0.3132(3) 0.04534(6)
H44 H 0.8691 0.2619 0.0391
Zn16 Zn 0.75062(4) 0.43899(5) 0.001144(6)
Zn3_4 Zn 1.0000 1.0000 0.193606(13)
O2_4 O 1.0000 1.0000 0.16419(5)
O12 O 0.4642(4) 0.8458(6) 0.31325(7)
C31 C 0.4637(4) 0.8326(5) 0.29484(7)
C32 C 0.5211(3) 0.9050(4) 0.28252(5)
C33 C 0.5559(4) 0.9838(6) 0.28976(5)
H23 H 0.5432 0.9931 0.3026
C36 C 0.5934(2) 0.9568(3) 0.25218(4)
H25 H 0.6061 0.9475 0.2393
C37 C 0.5398(2) 0.89148(28) 0.26373(4)
H26 H 0.5160 0.8376 0.2588
Zn8 Zn 0.98256(3) 0.89683(2) 0.155295(5)
O21 O 0.9728(5) 0.8938(3) 0.19899(7)
O22 O 0.9531(3) 0.8072(2) 0.17387(5)
O23 O 0.89205(23) 0.85005(16) 0.13655(3)
O24 O 0.83022(23) 0.92483(16) 0.14035(4)
O25 O 0.7082(3) 0.4903(2) 0.01870(5)
O26 O 0.5761(5) 0.3932(3) 0.02015(9)
N5 N 0.8989(6) 0.5787(4) 0.24713(9)
N6 N 0.5850(4) 0.6495(3) 0.08162(7)
C64 C 0.9508(6) 0.5603(4) 0.27822(6)
H46 H 0.8970 0.5303 0.2832
C65 C 0.9644(4) 0.5926(3) 0.25943(5)
C68 C 0.8245(8) 0.5041(6) 0.24698(12)
H49 H 0.7873 0.5063 0.2566
H50 H 0.8345 0.4597 0.2503
H51 H 0.8001 0.4947 0.2339
C69 C 0.9570(6) 0.8239(4) 0.19163(9)
C70 C 0.93763(26) 0.75873(17) 0.20634(4)
C71 C 0.91055(26) 0.68006(18) 0.19972(4)
H52 H 0.9008 0.6679 0.1862
C72 C 0.89776(24) 0.61912(15) 0.21294(5)
H53 H 0.8792 0.5653 0.2084
C73 C 0.9121(4) 0.6369(2) 0.23277(5)
C74 C 0.9390(4) 0.7155(2) 0.23938(4)
H54 H 0.9489 0.7277 0.2529
C75 C 0.95187(36) 0.77647(19) 0.22617(5)
H55 H 0.9703 0.8302 0.2307
C76 C 0.8332(3) 0.8642(2) 0.13362(5)
C77 C 0.76533(21) 0.80576(15) 0.12117(4)
C78 C 0.70426(19) 0.82157(15) 0.11550(5)
H56 H 0.7036 0.8680 0.1205
C79 C 0.64416(22) 0.76948(18) 0.10257(5)
H57 H 0.6024 0.7803 0.0987
C80 C 0.64513(23) 0.70158(17) 0.09531(5)
C81 C 0.70619(20) 0.68577(15) 0.10098(5)
H58 H 0.7069 0.6394 0.0960
C82 C 0.76630(19) 0.73786(16) 0.11391(4)
H59 H 0.8081 0.7271 0.1178
C83 C 0.5125(4) 0.6527(3) 0.08070(10)
H60 H 0.4783 0.6243 0.0920
H61 H 0.4832 0.6264 0.0686
H62 H 0.5255 0.7096 0.0808
C84 C 0.6377(4) 0.4606(3) 0.02511(7)
C85 C 0.6238(4) 0.5089(2) 0.04088(6)
C86 C 0.54878(36) 0.47858(19) 0.05002(7)
H63 H 0.5057 0.4255 0.0470
C87 C 0.5367(3) 0.5259(2) 0.06364(6)
H64 H 0.4854 0.5052 0.0699
C88 C 0.5996(3) 0.6035(2) 0.06810(5)
C89 C 0.67473(26) 0.63383(17) 0.05895(6)
H65 H 0.7177 0.6869 0.0620
C90 C 0.6868(3) 0.5865(2) 0.04534(6)
H66 H 0.7381 0.6072 0.0391
O33 O 0.3749(3) 0.8236(2) 0.35203(5)
O35 O 0.4838(4) 0.7572(5) 0.35348(9)
Zn1_2 Zn -0.0000 0.0000 0.630409(10)
O1_2 O -0.0000 0.0000 0.65869(6)
Zn11_2 Zn 0.08396(4) 0.10565(5) 0.667810(6)
O29_2 O 0.0904(2) 0.0983(3) 0.61982(5)
Zn1_3 Zn -0.0000 1.0000 0.630409(10)
Zn2_2 Zn 0.02170(3) 0.91604(4) 0.667810(6)
O1_3 O -0.0000 1.0000 0.65869(6)
O3_2 O 0.0080(2) 0.9096(2) 0.61982(5)
O4_2 O 0.0483(4) 0.8691(4) 0.64658(7)
N1_2 N 0.0880(4) 0.6535(4) 0.58046(9)
N2_2 N 0.0172(3) 0.2688(3) 0.41495(7)
C1_2 C 0.0356(3) 0.8696(4) 0.62817(7)
C2_2 C 0.0506(3) 0.8122(3) 0.61585(5)
C3_2 C 0.0946(4) 0.7774(4) 0.62309(5)
H1_2 H 0.1166 0.7901 0.6359
C4_2 C 0.1064(4) 0.7238(4) 0.61155(6)
H2_2 H 0.1364 0.7000 0.6165
C5_2 C 0.0741(3) 0.7051(3) 0.59276(5)
C6_2 C 0.0301(2) 0.7399(2) 0.58551(4)
H3_2 H 0.0081 0.7272 0.5726
C7_2 C 0.01835(19) 0.7935(2) 0.59706(4)
C8_2 C 0.1626(6) 0.6537(6) 0.58031(12)
H5_2 H 0.1604 0.6143 0.5899
H6_2 H 0.2070 0.7081 0.5836
H7_2 H 0.1720 0.6387 0.5672
C12_2 C 0.04755(15) 0.61197(19) 0.54627(5)
H9_2 H 0.1014 0.6472 0.5417
C13_2 C 0.0298(2) 0.6085(3) 0.56610(5)
H14_2 H 0.0273 0.4008 0.4293
C23_2 C 0.0140(3) 0.1931(3) 0.41403(10)
H16_2 H 0.0424 0.1873 0.4253
H17_2 H 0.0403 0.1901 0.4019
C24_2 C 0.2061(3) 0.5104(3) 0.35844(7)
C25_2 C 0.1578(2) 0.4482(3) 0.37421(6)
C26_2 C 0.18809(19) 0.4035(3) 0.38335(7)
H19_2 H 0.2412 0.4135 0.3803
C27_2 C 0.1408(2) 0.3441(2) 0.39697(6)
H20_2 H 0.1615 0.3135 0.4032
C28_2 C 0.0632(2) 0.3294(2) 0.40143(5)
C29_2 C 0.03284(17) 0.3742(2) 0.39228(6)
C30_2 C 0.0802(2) 0.4336(2) 0.37867(6)
H22_2 H 0.0595 0.4642 0.3724
O32_2 O 0.1154(2) 0.9585(3) 0.68537(5)
Zn1_4 Zn 1.0000 0.0000 0.630409(10)
O1_4 O 1.0000 0.0000 0.65869(6)
Zn1_5 Zn 1.0000 1.0000 0.630409(10)
Zn3_5 Zn 0.6667 0.3333 0.526939(13)
Zn4_2 Zn 0.76984(2) 0.41906(2) 0.488628(5)
O1_5 O 1.0000 1.0000 0.65869(6)
O2_5 O 0.6667 0.3333 0.49752(5)
O5_2 O 0.7729(3) 0.4123(4) 0.53232(7)
O6_2 O 0.8595(2) 0.4792(2) 0.50720(5)
O7_2 O 0.81662(16) 0.37533(16) 0.46988(3)
O8_2 O 0.74184(16) 0.23872(16) 0.47368(4)
H4_2 H 0.9883 0.8173 0.5921
C9_2 C 0.8428(4) 0.4664(4) 0.52496(9)
C10_2 C 0.90794(17) 0.5122(2) 0.53967(4)
C11_2 C 0.98661(18) 0.56382(19) 0.53305(4)
H8_2 H 0.9988 0.5662 0.5195
C14_2 C 0.9512(2) 0.5568(3) 0.57271(4)
H10_2 H 0.9390 0.5545 0.5862
C15_2 C 0.89020(19) 0.5087(3) 0.55950(5)
H11_2 H 0.8365 0.4734 0.5640
C16_2 C 0.8025(2) 0.3023(2) 0.46695(5)
C17_2 C 0.86091(15) 0.29290(14) 0.45450(4)
C18_2 C 0.84510(15) 0.21602(11) 0.44883(5)
H12_2 H 0.7987 0.1689 0.4538
C19_2 C 0.89719(18) 0.20801(12) 0.43590(5)
H13_2 H 0.8864 0.1554 0.4320
C20_2 C 0.96509(17) 0.27688(16) 0.42864(5)
C21_2 C 0.98090(15) 0.35375(13) 0.43431(5)
C22_2 C 0.92881(16) 0.36177(11) 0.44724(4)
H15_2 H 0.9396 0.4143 0.4511
H18_2 H 0.9571 0.1492 0.4141
H21_2 H 0.9798 0.3641 0.3953
Zn6_2 Zn 0.58094(2) 0.35077(3) 0.488628(5)
O12_2 O 0.1309(4) 0.1791(6) 0.64658(7)
O13_2 O 0.5877(4) 0.3605(5) 0.53232(7)
O14_2 O 0.5208(2) 0.3802(3) 0.50720(5)
O15_2 O 0.62467(16) 0.44128(23) 0.46988(3)
O16_2 O 0.76128(16) 0.50311(23) 0.47368(4)
N3_2 N 0.3465(4) 0.4344(6) 0.58046(9)
N4_2 N 0.7312(3) 0.7483(4) 0.41495(7)
C31_2 C 0.1304(4) 0.1659(5) 0.62817(7)
C32_2 C 0.1878(3) 0.2383(4) 0.61585(5)
C33_2 C 0.2226(4) 0.3171(6) 0.62309(5)
H23_2 H 0.2099 0.3264 0.6359
C34_2 C 0.2762(4) 0.3825(6) 0.61155(6)
H24_2 H 0.3000 0.4363 0.6165
C35_2 C 0.2949(3) 0.3689(4) 0.59276(5)
C36_2 C 0.2601(2) 0.2901(3) 0.58551(4)
H25_2 H 0.2728 0.2808 0.5726
C37_2 C 0.2065(2) 0.22481(28) 0.59706(4)
H26_2 H 0.1827 0.1709 0.5921
C38_2 C 0.3463(6) 0.5088(8) 0.58031(12)
H27_2 H 0.3857 0.5460 0.5899
H28_2 H 0.2919 0.4988 0.5836
H29_2 H 0.3613 0.5332 0.5672
C39_2 C 0.5336(4) 0.3763(6) 0.52496(9)
C40_2 C 0.4878(2) 0.39570(26) 0.53967(4)
C41_2 C 0.43618(19) 0.42278(26) 0.53305(4)
H30_2 H 0.4338 0.4325 0.5195
C42_2 C 0.38803(19) 0.43557(24) 0.54627(5)
H31_2 H 0.3528 0.4541 0.5417
C43_2 C 0.3915(3) 0.4212(4) 0.56610(5)
C44_2 C 0.4432(3) 0.3943(4) 0.57271(4)
H32_2 H 0.4455 0.3844 0.5862
C45_2 C 0.4913(3) 0.38146(36) 0.55950(5)
H33_2 H 0.5266 0.3630 0.5640
C46_2 C 0.6977(2) 0.5001(3) 0.46695(5)
C47_2 C 0.70710(14) 0.56800(21) 0.45450(4)
C48_2 C 0.78398(11) 0.62907(19) 0.44883(5)
H34_2 H 0.8311 0.6297 0.4538
C49_2 C 0.79199(12) 0.68917(22) 0.43590(5)
H35_2 H 0.8446 0.7309 0.4320
C50_2 C 0.72312(16) 0.68820(23) 0.42864(5)
C51_2 C 0.64625(13) 0.62714(20) 0.43431(5)
H36_2 H 0.5992 0.6264 0.4293
C52_2 C 0.63823(11) 0.56703(19) 0.44724(4)
H37_2 H 0.5857 0.5252 0.4511
C53_2 C 0.8069(3) 0.8208(4) 0.41403(10)
H38_2 H 0.8127 0.8550 0.4253
H39_2 H 0.8099 0.8501 0.4019
H40_2 H 0.8508 0.8078 0.4141
C54_2 C 0.4896(3) 0.6956(4) 0.35844(7)
C55_2 C 0.5518(3) 0.7095(4) 0.37421(6)
C56_2 C 0.5965(3) 0.78455(36) 0.38335(7)
H41_2 H 0.5865 0.8276 0.3803
C57_2 C 0.6559(2) 0.7966(3) 0.39697(6)
H42_2 H 0.6865 0.8479 0.4032
C58_2 C 0.6706(2) 0.7337(3) 0.40143(5)
C59_2 C 0.6258(2) 0.65860(26) 0.39228(6)
H43_2 H 0.6359 0.6156 0.3953
C60_2 C 0.5664(2) 0.6465(3) 0.37867(6)
H44_2 H 0.5358 0.5952 0.3724
Zn8_2 Zn 0.64923(3) 0.23016(2) 0.488628(5)
O21_2 O 0.6395(5) 0.2271(3) 0.53232(7)
O22_2 O 0.6198(3) 0.1405(2) 0.50720(5)
O23_2 O 0.55872(23) 0.18338(16) 0.46988(3)
O24_2 O 0.49689(23) 0.25816(16) 0.47368(4)
H48_2 H 0.8291 0.0117 0.5921
C69_2 C 0.6237(6) 0.1572(4) 0.52496(9)
C70_2 C 0.60430(26) 0.09206(17) 0.53967(4)
C71_2 C 0.57722(26) 0.01339(18) 0.53305(4)
H52_2 H 0.5675 0.0012 0.5195
C74_2 C 0.6057(4) 0.0488(2) 0.57271(4)
H54_2 H 0.6156 0.0610 0.5862
C75_2 C 0.61854(36) 0.10980(19) 0.55950(5)
H55_2 H 0.6370 0.1635 0.5640
C76_2 C 0.4999(3) 0.1975(2) 0.46695(5)
C77_2 C 0.43200(21) 0.13909(15) 0.45450(4)
C78_2 C 0.37093(19) 0.15490(15) 0.44883(5)
H56_2 H 0.3703 0.2013 0.4538
C79_2 C 0.31083(22) 0.10281(18) 0.43590(5)
H57_2 H 0.2691 0.1136 0.4320
C80_2 C 0.31180(23) 0.03491(17) 0.42864(5)
C81_2 C 0.37286(20) 0.01910(15) 0.43431(5)
C82_2 C 0.43297(19) 0.07119(16) 0.44724(4)
H59_2 H 0.4748 0.0604 0.4511
H62_2 H 0.1922 0.0429 0.4141
H65_2 H 0.3844 0.0202 0.3953
Zn12_2 Zn 0.89435(5) 0.97830(3) 0.667810(6)
O30_2 O 0.9017(3) 0.9920(2) 0.61982(5)
O33_2 O 0.0415(3) 0.1570(2) 0.68537(5)
O34_2 O 0.9401(3) 0.8496(4) 0.68682(9)
O35_2 O 0.1504(4) 0.0906(5) 0.68682(9)
O36_2 O 0.9094(5) 0.0599(3) 0.68682(9)
O20_2 O 0.8209(6) 0.9517(4) 0.64658(7)
N5_2 N 0.5656(6) 0.9120(4) 0.58046(9)
N6_2 N 0.2517(4) 0.9828(3) 0.41495(7)
C61_2 C 0.8341(5) 0.9644(3) 0.62817(7)
C62_2 C 0.7617(4) 0.9494(3) 0.61585(5)
C63_2 C 0.6829(6) 0.9054(4) 0.62309(5)
H45_2 H 0.6736 0.8834 0.6359
C64_2 C 0.6175(6) 0.8936(4) 0.61155(6)
H46_2 H 0.5637 0.8636 0.6165
C65_2 C 0.6311(4) 0.9259(3) 0.59276(5)
C66_2 C 0.7099(3) 0.9699(2) 0.58551(4)
H47_2 H 0.7192 0.9919 0.5726
C67_2 C 0.77519(28) 0.98165(19) 0.59706(4)
C68_2 C 0.4912(8) 0.8374(6) 0.58031(12)
H49_2 H 0.4540 0.8396 0.5899
H50_2 H 0.5012 0.7930 0.5836
H51_2 H 0.4668 0.8280 0.5672
C72_2 C 0.56443(24) 0.95245(15) 0.54627(5)
H53_2 H 0.5459 0.8986 0.5417
C73_2 C 0.5788(4) 0.9702(2) 0.56610(5)
H58_2 H 0.3736 0.9727 0.4293
C83_2 C 0.1792(4) 0.9860(3) 0.41403(10)
H60_2 H 0.1450 0.9576 0.4253
H61_2 H 0.1499 0.9597 0.4019
C84_2 C 0.3044(4) 0.7939(3) 0.35844(7)
C85_2 C 0.2905(4) 0.8422(2) 0.37421(6)
C86_2 C 0.21545(36) 0.81191(19) 0.38335(7)
H63_2 H 0.1724 0.7588 0.3803
C87_2 C 0.2034(3) 0.8592(2) 0.39697(6)
H64_2 H 0.1521 0.8385 0.4032
C88_2 C 0.2663(3) 0.9368(2) 0.40143(5)
C89_2 C 0.34140(26) 0.96716(17) 0.39228(6)
C90_2 C 0.3535(3) 0.9198(2) 0.37867(6)
H66_2 H 0.4048 0.9405 0.3724
O31_2 O 0.8430(2) 0.8846(2) 0.68537(5)
Zn1_6 Zn 0.6666 0.3334 0.963743(10)
O1_6 O 0.6666 0.3334 0.99203(6)
O3_3 O 0.6746(2) 0.2430(2) 0.95316(5)
O4_3 O 0.7149(4) 0.2025(4) 0.97992(7)
C1_3 C 0.7022(3) 0.2030(4) 0.96151(7)
C2_3 C 0.7172(3) 0.1456(3) 0.94919(5)
C3_3 C 0.7612(4) 0.1108(4) 0.95643(5)
H1_3 H 0.7832 0.1235 0.9693
C4_3 C 0.7730(4) 0.0572(4) 0.94489(6)
H2_3 H 0.8030 0.0334 0.9499
C5_3 C 0.7407(3) 0.0385(3) 0.92610(5)
C6_3 C 0.6967(2) 0.0733(2) 0.91885(4)
H3_3 H 0.6747 0.0606 0.9060
C7_3 C 0.68501(19) 0.1269(2) 0.93040(4)
H4_3 H 0.6549 0.1507 0.9255
H6_3 H 0.8736 0.0415 0.9170
N4_3 N 0.3978(3) 0.0817(4) 0.74829(7)
C49_3 C 0.45865(12) 0.02251(22) 0.76924(5)
H35_3 H 0.5112 0.0643 0.7654
C50_3 C 0.38978(16) 0.02154(23) 0.76198(5)
C53_3 C 0.4735(3) 0.1542(4) 0.74737(10)
H38_3 H 0.4793 0.1884 0.7587
H39_3 H 0.4765 0.1835 0.7353
H40_3 H 0.5174 0.1412 0.7475
C54_3 C 0.1562(3) 0.0290(4) 0.69178(7)
C55_3 C 0.2184(3) 0.0429(4) 0.70755(6)
C56_3 C 0.2631(3) 0.11789(36) 0.71669(7)
H41_3 H 0.2531 0.1610 0.7137
C57_3 C 0.3225(2) 0.1300(3) 0.73031(6)
H42_3 H 0.3531 0.1813 0.7366
C58_3 C 0.3372(2) 0.0671(3) 0.73477(5)
O29_3 O 0.7570(2) 0.4317(3) 0.95316(5)
O30_3 O 0.5683(3) 0.3254(2) 0.95316(5)
Zn3_6 Zn 0.3333 0.6667 0.860273(13)
Zn4_3 Zn 0.43650(2) 0.75240(2) 0.821962(5)
O2_6 O 0.3333 0.6667 0.83086(5)
O5_3 O 0.4395(3) 0.7457(4) 0.86566(7)
O6_3 O 0.5261(2) 0.8126(2) 0.84054(5)
O7_3 O 0.48328(16) 0.70867(16) 0.80322(3)
O8_3 O 0.40850(16) 0.57206(16) 0.80702(4)
N1_3 N 0.7546(4) 0.9869(4) 0.91380(9)
N2_3 N 0.6838(3) 0.6022(3) 0.74829(7)
C8_3 C 0.8292(6) 0.9871(6) 0.91365(12)
H5_3 H 0.8270 0.9477 0.9233
H7_3 H 0.8386 0.9721 0.9006
C9_3 C 0.5094(4) 0.7998(4) 0.85830(9)
C10_3 C 0.57460(17) 0.8456(2) 0.87301(4)
C11_3 C 0.65327(18) 0.89716(19) 0.86639(4)
H8_3 H 0.6654 0.8996 0.8529
C12_3 C 0.71421(15) 0.94531(19) 0.87961(5)
H9_3 H 0.7680 0.9806 0.8751
C13_3 C 0.6964(2) 0.9419(3) 0.89944(5)
C14_3 C 0.6178(2) 0.8902(3) 0.90605(4)
H10_3 H 0.6056 0.8879 0.9196
C15_3 C 0.55686(19) 0.8421(3) 0.89284(5)
H11_3 H 0.5031 0.8068 0.8974
C16_3 C 0.4691(2) 0.6357(2) 0.80029(5)
C17_3 C 0.52757(15) 0.62624(14) 0.78784(4)
C18_3 C 0.51176(15) 0.54936(11) 0.78217(5)
H12_3 H 0.4653 0.5023 0.7872
C19_3 C 0.56385(18) 0.54135(12) 0.76924(5)
H13_3 H 0.5530 0.4888 0.7654
C20_3 C 0.63175(17) 0.61022(16) 0.76198(5)
C21_3 C 0.64756(15) 0.68709(13) 0.76765(5)
H14_3 H 0.6939 0.7342 0.7627
C22_3 C 0.59547(16) 0.69511(11) 0.78058(4)
H15_3 H 0.6062 0.7477 0.7845
C23_3 C 0.6806(3) 0.5265(3) 0.74737(10)
H16_3 H 0.7090 0.5207 0.7587
H17_3 H 0.7069 0.5235 0.7353
H18_3 H 0.6237 0.4826 0.7475
C24_3 C 0.8727(3) 0.8438(3) 0.69178(7)
C25_3 C 0.8244(2) 0.7816(3) 0.70755(6)
C26_3 C 0.85475(19) 0.7369(3) 0.71669(7)
H19_3 H 0.9078 0.7469 0.7137
C27_3 C 0.8074(2) 0.6775(2) 0.73031(6)
H20_3 H 0.8281 0.6469 0.7366
C28_3 C 0.7298(2) 0.6628(2) 0.73477(5)
C29_3 C 0.69950(17) 0.7076(2) 0.72562(6)
H21_3 H 0.6464 0.6975 0.7287
C30_3 C 0.7468(2) 0.7670(2) 0.71201(6)
H22_3 H 0.7261 0.7976 0.7058
Zn6_3 Zn 0.24760(2) 0.68411(3) 0.821962(5)
O13_3 O 0.2543(4) 0.6939(5) 0.86566(7)
O14_3 O 0.1874(2) 0.7136(3) 0.84054(5)
O15_3 O 0.29133(16) 0.77462(23) 0.80322(3)
O16_3 O 0.42794(16) 0.83645(23) 0.80702(4)
N3_3 N 0.0131(4) 0.7678(6) 0.91380(9)
C38_3 C 0.0129(6) 0.8422(8) 0.91365(12)
H27_3 H 0.0523 0.8794 0.9233
H29_3 H 0.0279 0.8666 0.9006
C39_3 C 0.2002(4) 0.7097(6) 0.85830(9)
C40_3 C 0.1544(2) 0.72904(26) 0.87301(4)
C41_3 C 0.10284(19) 0.75612(26) 0.86639(4)
H30_3 H 0.1004 0.7659 0.8529
C42_3 C 0.05469(19) 0.76891(24) 0.87961(5)
H31_3 H 0.0194 0.7875 0.8751
C43_3 C 0.0581(3) 0.7546(4) 0.89944(5)
C44_3 C 0.1098(3) 0.7277(4) 0.90605(4)
H32_3 H 0.1121 0.7178 0.9196
C45_3 C 0.1579(3) 0.71480(36) 0.89284(5)
H33_3 H 0.1932 0.6964 0.8974
C46_3 C 0.3643(2) 0.8335(3) 0.80029(5)
C47_3 C 0.37376(14) 0.90134(21) 0.78784(4)
C48_3 C 0.45064(11) 0.96241(19) 0.78217(5)
H34_3 H 0.4977 0.9631 0.7872
C51_3 C 0.31291(13) 0.96048(20) 0.76765(5)
H36_3 H 0.2658 0.9598 0.7627
C52_3 C 0.30489(11) 0.90037(19) 0.78058(4)
H37_3 H 0.2523 0.8586 0.7845
C59_3 C 0.2924(2) 0.99194(26) 0.72562(6)
H43_3 H 0.3025 0.9490 0.7287
C60_3 C 0.2330(2) 0.9799(3) 0.71201(6)
H44_3 H 0.2024 0.9286 0.7058
Zn8_3 Zn 0.31589(3) 0.56350(2) 0.821962(5)
O20_3 O 0.4875(6) 0.2851(4) 0.97992(7)
O21_3 O 0.3061(5) 0.5605(3) 0.86566(7)
O22_3 O 0.2864(3) 0.4739(2) 0.84054(5)
O23_3 O 0.22538(23) 0.51672(16) 0.80322(3)
O24_3 O 0.16355(23) 0.59150(16) 0.80702(4)
N5_3 N 0.2322(6) 0.2454(4) 0.91380(9)
C61_3 C 0.5007(5) 0.2978(3) 0.96151(7)
C62_3 C 0.4283(4) 0.2828(3) 0.94919(5)
C63_3 C 0.3495(6) 0.2388(4) 0.95643(5)
H45_3 H 0.3402 0.2168 0.9693
C64_3 C 0.2841(6) 0.2270(4) 0.94489(6)
H46_3 H 0.2303 0.1970 0.9499
C65_3 C 0.2977(4) 0.2593(3) 0.92610(5)
C66_3 C 0.3765(3) 0.3033(2) 0.91885(4)
H47_3 H 0.3858 0.3253 0.9060
C67_3 C 0.44185(28) 0.31499(19) 0.93040(4)
H48_3 H 0.4957 0.3451 0.9255
C68_3 C 0.1578(8) 0.1708(6) 0.91365(12)
H49_3 H 0.1206 0.1730 0.9233
H50_3 H 0.1678 0.1264 0.9170
H51_3 H 0.1334 0.1614 0.9006
C69_3 C 0.2903(6) 0.4906(4) 0.85830(9)
C70_3 C 0.27096(26) 0.42540(17) 0.87301(4)
C71_3 C 0.24388(26) 0.34673(18) 0.86639(4)
H52_3 H 0.2341 0.3346 0.8529
C72_3 C 0.23109(24) 0.28579(15) 0.87961(5)
H53_3 H 0.2125 0.2320 0.8751
C73_3 C 0.2454(4) 0.3036(2) 0.89944(5)
C74_3 C 0.2723(4) 0.3822(2) 0.90605(4)
H54_3 H 0.2822 0.3944 0.9196
C75_3 C 0.28520(36) 0.44314(19) 0.89284(5)
H55_3 H 0.3036 0.4969 0.8974
C76_3 C 0.1665(3) 0.5309(2) 0.80029(5)
C77_3 C 0.09866(21) 0.47243(15) 0.78784(4)
C78_3 C 0.03759(19) 0.48824(15) 0.78217(5)
H56_3 H 0.0369 0.5347 0.7872
C81_3 C 0.03952(20) 0.35244(15) 0.76765(5)
H58_3 H 0.0402 0.3061 0.7627
C82_3 C 0.09963(19) 0.40453(16) 0.78058(4)
H59_3 H 0.1414 0.3938 0.7845
C89_3 C 0.00806(26) 0.30050(17) 0.72562(6)
H65_3 H 0.0510 0.3536 0.7287
C90_3 C 0.0201(3) 0.2532(2) 0.71201(6)
H66_3 H 0.0714 0.2739 0.7058
O12_3 O 0.7975(4) 0.5125(6) 0.97992(7)
C31_3 C 0.7970(4) 0.4993(5) 0.96151(7)
C32_3 C 0.8544(3) 0.5717(4) 0.94919(5)
C33_3 C 0.8892(4) 0.6505(6) 0.95643(5)
H23_3 H 0.8765 0.6598 0.9693
C34_3 C 0.9428(4) 0.7159(6) 0.94489(6)
H24_3 H 0.9666 0.7697 0.9499
C35_3 C 0.9615(3) 0.7023(4) 0.92610(5)
C36_3 C 0.9267(2) 0.6235(3) 0.91885(4)
H25_3 H 0.9394 0.6142 0.9060
C37_3 C 0.8731(2) 0.55815(28) 0.93040(4)
H26_3 H 0.8493 0.5043 0.9255
H28_3 H 0.9585 0.8322 0.9170
N6_3 N 0.9183(4) 0.3162(3) 0.74829(7)
C79_3 C 0.97749(22) 0.43615(18) 0.76924(5)
H57_3 H 0.9357 0.4470 0.7654
C80_3 C 0.97846(23) 0.36825(17) 0.76198(5)
C83_3 C 0.8458(4) 0.3194(3) 0.74737(10)
H60_3 H 0.8116 0.2910 0.7587
H61_3 H 0.8165 0.2931 0.7353
H62_3 H 0.8588 0.3763 0.7475
C84_3 C 0.9710(4) 0.1273(3) 0.69178(7)
C85_3 C 0.9571(4) 0.1756(2) 0.70755(6)
C86_3 C 0.88211(36) 0.14525(19) 0.71669(7)
H63_3 H 0.8390 0.0922 0.7137
C87_3 C 0.8700(3) 0.1926(2) 0.73031(6)
H64_3 H 0.8187 0.1719 0.7366
C88_3 C 0.9329(3) 0.2702(2) 0.73477(5)
Zn1_7 Zn 0.6667 0.3333 0.702924(10)
Zn2_3 Zn 0.58271(4) 0.35503(3) 0.665523(6)
Zn3_7 Zn -0.0000 0.0000 0.806394(13)
Zn4_4 Zn 0.08573(2) 0.10317(2) 0.844705(5)
O1_7 O 0.6667 0.3333 0.67464(6)
O2_7 O -0.0000 0.0000 0.83581(5)
O3_4 O 0.5763(2) 0.3413(2) 0.71351(5)
O4_4 O 0.5358(4) 0.3816(4) 0.68675(7)
O5_4 O 0.0790(4) 0.1062(3) 0.80101(7)
O6_4 O 0.1459(2) 0.1928(2) 0.82613(5)
O7_4 O 0.04200(16) 0.14995(16) 0.86345(3)
O9_2 O 0.2179(2) 0.5097(2) 0.98130(5)
O10_2 O 0.1829(4) 0.6068(3) 0.97985(9)
N1_4 N 0.3202(4) 0.4213(4) 0.75287(9)
C1_4 C 0.5363(4) 0.3689(3) 0.70516(7)
C2_4 C 0.4789(3) 0.3839(3) 0.71748(5)
C3_4 C 0.4441(4) 0.4279(4) 0.71024(5)
H1_4 H 0.4568 0.4499 0.6974
C4_4 C 0.3905(4) 0.4397(4) 0.72178(6)
H2_4 H 0.3667 0.4697 0.7168
C5_4 C 0.3718(3) 0.4074(3) 0.74057(5)
C6_4 C 0.4066(2) 0.3634(2) 0.74782(4)
H3_4 H 0.3939 0.3414 0.7607
C7_4 C 0.4602(2) 0.35168(19) 0.73627(4)
H4_4 H 0.4840 0.3216 0.7412
C8_4 C 0.3204(6) 0.4959(6) 0.75302(12)
H5_4 H 0.2810 0.4937 0.7434
H6_4 H 0.3748 0.5403 0.7497
H7_4 H 0.3054 0.5053 0.7661
C9_4 C 0.1331(4) 0.1761(4) 0.80837(9)
C10_4 C 0.1789(2) 0.24127(17) 0.79366(4)
C11_4 C 0.23049(19) 0.31994(18) 0.80028(4)
H8_4 H 0.2329 0.3321 0.8138
C12_4 C 0.27864(19) 0.38088(15) 0.78706(5)
H9_4 H 0.3139 0.4347 0.7916
C13_4 C 0.2752(3) 0.3631(2) 0.76723(5)
C14_4 C 0.2235(3) 0.2845(2) 0.76062(4)
H10_4 H 0.2212 0.2723 0.7471
C15_4 C 0.1754(3) 0.22353(19) 0.77383(5)
H11_4 H 0.1401 0.1698 0.7693
C21_4 C 0.02042(13) 0.31423(15) 0.89902(5)
H14_4 H 0.0675 0.3606 0.9040
C22_4 C 0.02844(11) 0.26214(16) 0.88609(4)
H15_4 H 0.0810 0.2729 0.8822
C24_4 C 0.1771(3) 0.5394(3) 0.97489(7)
C25_4 C 0.1149(3) 0.4911(2) 0.95912(6)
C26_4 C 0.0702(3) 0.52142(19) 0.94998(7)
H19_4 H 0.0802 0.5745 0.9530
C27_4 C 0.0108(2) 0.4741(2) 0.93636(6)
C29_4 C 0.0409(2) 0.36617(17) 0.94105(6)
H21_4 H 0.0308 0.3131 0.9380
C30_4 C 0.1003(2) 0.4135(2) 0.95466(6)
H22_4 H 0.1309 0.3928 0.9609
O16_4 O 0.16978(23) 0.09461(16) 0.85965(4)
N4_4 N 0.4150(4) 0.0645(3) 0.91838(7)
C46_4 C 0.1668(3) 0.0310(2) 0.86638(5)
C47_4 C 0.23467(21) 0.04043(14) 0.87883(4)
C48_4 C 0.29574(19) 0.11731(11) 0.88450(5)
H34_4 H 0.2964 0.1644 0.8795
C49_4 C 0.35584(22) 0.12532(12) 0.89743(5)
H35_4 H 0.3976 0.1779 0.9013
C50_4 C 0.35487(23) 0.05645(16) 0.90469(5)
C53_4 C 0.4875(4) 0.1402(3) 0.91930(10)
H38_4 H 0.5217 0.1460 0.9080
H39_4 H 0.5168 0.1432 0.9314
H40_4 H 0.4745 0.1841 0.9192
H42_4 H 0.5146 0.0198 0.9301
C58_4 C 0.4004(3) 0.0039(2) 0.93190(5)
Zn11_3 Zn 0.77232(5) 0.41729(4) 0.665523(6)
Zn12_3 Zn 0.64497(3) 0.22768(5) 0.665523(6)
Zn14_2 Zn 0.24938(4) 0.68836(3) 0.998856(6)
Zn18_2 Zn 0.31164(3) 0.56101(5) 0.998856(6)
O29_4 O 0.7650(3) 0.4237(2) 0.71351(5)
O30_4 O 0.6587(2) 0.2350(3) 0.71351(5)
O32_3 O 0.6251(3) 0.4488(2) 0.64797(5)
O34_3 O 0.5162(4) 0.2735(3) 0.64652(9)
Zn3_8 Zn 0.0000 1.0000 0.806394(13)
O2_8 O 0.0000 1.0000 0.83581(5)
Zn6_4 Zn 0.01744(3) 0.91427(2) 0.844705(5)
O13_4 O 0.0272(5) 0.9210(4) 0.80101(7)
O14_4 O 0.0469(3) 0.8541(2) 0.82613(5)
O15_4 O 0.10795(23) 0.95800(16) 0.86345(3)
O17_2 O 0.2918(3) 0.7821(2) 0.98130(5)
O18_2 O 0.4239(5) 0.8171(4) 0.97985(9)
N3_4 N 0.1011(6) 0.6798(4) 0.75287(9)
C34_4 C 0.0492(6) 0.6095(4) 0.72178(6)
H24_4 H 0.1030 0.6333 0.7168
C35_4 C 0.0356(4) 0.6282(3) 0.74057(5)
C38_4 C 0.1755(8) 0.6796(6) 0.75302(12)
H27_4 H 0.2127 0.7190 0.7434
H28_4 H 0.1655 0.6252 0.7497
H29_4 H 0.1999 0.6946 0.7661
C39_4 C 0.0430(6) 0.8669(4) 0.80837(9)
C40_4 C 0.06237(26) 0.8211(2) 0.79366(4)
C41_4 C 0.08945(26) 0.76951(19) 0.80028(4)
H30_4 H 0.0992 0.7671 0.8138
C42_4 C 0.10224(24) 0.72136(19) 0.78706(5)
H31_4 H 0.1208 0.6861 0.7916
C43_4 C 0.0879(4) 0.7248(3) 0.76723(5)
C44_4 C 0.0610(4) 0.7765(3) 0.76062(4)
H32_4 H 0.0511 0.7788 0.7471
C45_4 C 0.04813(36) 0.8246(3) 0.77383(5)
H33_4 H 0.0297 0.8599 0.7693
C51_4 C 0.29381(20) 0.97958(13) 0.89902(5)
H36_4 H 0.2931 0.9325 0.9040
C52_4 C 0.23370(19) 0.97156(11) 0.88609(4)
H37_4 H 0.1919 0.9190 0.8822
C54_4 C 0.3623(4) 0.8229(3) 0.97489(7)
C55_4 C 0.3762(4) 0.8851(3) 0.95912(6)
C56_4 C 0.45122(36) 0.9298(3) 0.94998(7)
H41_4 H 0.4943 0.9198 0.9530
C57_4 C 0.4633(3) 0.9892(2) 0.93636(6)
C59_4 C 0.32527(26) 0.9591(2) 0.94105(6)
H43_4 H 0.2823 0.9692 0.9380
C60_4 C 0.3132(3) 0.8997(2) 0.95466(6)
H44_4 H 0.2619 0.8691 0.9609
Zn16_2 Zn 0.43899(5) 0.75062(4) 0.998856(6)
Zn3_9 Zn 1.0000 0.0000 0.806394(13)
O2_9 O 1.0000 0.0000 0.83581(5)
O8_4 O 0.90539(16) 0.07517(16) 0.85965(4)
N2_4 N 0.9355(3) 0.3505(3) 0.91838(7)
C16_4 C 0.9690(2) 0.1358(2) 0.86638(5)
C17_4 C 0.95957(14) 0.19424(15) 0.87883(4)
C18_4 C 0.88269(11) 0.17843(15) 0.88450(5)
H12_4 H 0.8356 0.1320 0.8795
C19_4 C 0.87468(12) 0.23052(18) 0.89743(5)
H13_4 H 0.8221 0.2197 0.9013
C20_4 C 0.94355(16) 0.29842(17) 0.90469(5)
C23_4 C 0.8598(3) 0.3473(3) 0.91930(10)
H16_4 H 0.8540 0.3757 0.9080
H17_4 H 0.8568 0.3736 0.9314
H18_4 H 0.8159 0.2904 0.9192
H20_4 H 0.9802 0.4948 0.9301
C28_4 C 0.9961(2) 0.3965(2) 0.93190(5)
O20_4 O 0.6184(4) 0.1542(6) 0.68675(7)
C61_4 C 0.6311(3) 0.1674(5) 0.70516(7)
C62_4 C 0.6161(3) 0.0950(4) 0.71748(5)
C63_4 C 0.5721(4) 0.0162(6) 0.71024(5)
H45_4 H 0.5501 0.0069 0.6974
C66_4 C 0.6366(2) 0.0432(3) 0.74782(4)
H47_4 H 0.6586 0.0525 0.7607
C67_4 C 0.64832(19) 0.10852(28) 0.73627(4)
H48_4 H 0.6784 0.1624 0.7412
O31_3 O 0.5512(2) 0.1764(2) 0.64797(5)
O36_3 O 0.7265(3) 0.2428(5) 0.64652(9)
Zn3_10 Zn 1.0000 1.0000 0.806394(13)
O2_10 O 1.0000 1.0000 0.83581(5)
O12_4 O 0.8458(6) 0.4642(4) 0.68675(7)
C31_4 C 0.8326(5) 0.4637(4) 0.70516(7)
C32_4 C 0.9050(4) 0.5211(3) 0.71748(5)
C33_4 C 0.9838(6) 0.5559(4) 0.71024(5)
H23_4 H 0.9931 0.5432 0.6974
C36_4 C 0.9568(3) 0.5934(2) 0.74782(4)
H25_4 H 0.9475 0.6061 0.7607
C37_4 C 0.89148(28) 0.5398(2) 0.73627(4)
H26_4 H 0.8376 0.5160 0.7412
Zn8_4 Zn 0.89683(2) 0.98256(3) 0.844705(5)
O21_4 O 0.8938(3) 0.9728(5) 0.80101(7)
O22_4 O 0.8072(2) 0.9531(3) 0.82613(5)
O23_4 O 0.85005(16) 0.89205(23) 0.86345(3)
O24_4 O 0.92483(16) 0.83022(23) 0.85965(4)
O25_2 O 0.4903(2) 0.7082(3) 0.98130(5)
O26_2 O 0.3932(3) 0.5761(5) 0.97985(9)
N5_4 N 0.5787(4) 0.8989(6) 0.75287(9)
N6_4 N 0.6495(3) 0.5850(4) 0.91838(7)
C64_4 C 0.5603(4) 0.9508(6) 0.72178(6)
H46_4 H 0.5303 0.8970 0.7168
C65_4 C 0.5926(3) 0.9644(4) 0.74057(5)
C68_4 C 0.5041(6) 0.8245(8) 0.75302(12)
H49_4 H 0.5063 0.7873 0.7434
H50_4 H 0.4597 0.8345 0.7497
H51_4 H 0.4947 0.8001 0.7661
C69_4 C 0.8239(4) 0.9570(6) 0.80837(9)
C70_4 C 0.75873(17) 0.93763(26) 0.79366(4)
C71_4 C 0.68006(18) 0.91055(26) 0.80028(4)
H52_4 H 0.6679 0.9008 0.8138
C72_4 C 0.61912(15) 0.89776(24) 0.78706(5)
H53_4 H 0.5653 0.8792 0.7916
C73_4 C 0.6369(2) 0.9121(4) 0.76723(5)
C74_4 C 0.7155(2) 0.9390(4) 0.76062(4)
H54_4 H 0.7277 0.9489 0.7471
C75_4 C 0.77647(19) 0.95187(36) 0.77383(5)
H55_4 H 0.8302 0.9703 0.7693
C76_4 C 0.8642(2) 0.8332(3) 0.86638(5)
C77_4 C 0.80576(15) 0.76533(21) 0.87883(4)
C78_4 C 0.82157(15) 0.70426(19) 0.88450(5)
H56_4 H 0.8680 0.7036 0.8795
C79_4 C 0.76948(18) 0.64416(22) 0.89743(5)
H57_4 H 0.7803 0.6024 0.9013
C80_4 C 0.70158(17) 0.64513(23) 0.90469(5)
C81_4 C 0.68577(15) 0.70619(20) 0.89902(5)
H58_4 H 0.6394 0.7069 0.9040
C82_4 C 0.73786(16) 0.76630(19) 0.88609(4)
H59_4 H 0.7271 0.8081 0.8822
C83_4 C 0.6527(3) 0.5125(4) 0.91930(10)
H60_4 H 0.6243 0.4783 0.9080
H61_4 H 0.6264 0.4832 0.9314
H62_4 H 0.7096 0.5255 0.9192
C84_4 C 0.4606(3) 0.6377(4) 0.97489(7)
C85_4 C 0.5089(2) 0.6238(4) 0.95912(6)
C86_4 C 0.47858(19) 0.54878(36) 0.94998(7)
H63_4 H 0.4255 0.5057 0.9530
C87_4 C 0.5259(2) 0.5367(3) 0.93636(6)
H64_4 H 0.5052 0.4854 0.9301
C88_4 C 0.6035(2) 0.5996(3) 0.93190(5)
C89_4 C 0.63383(17) 0.67473(26) 0.94105(6)
H65_4 H 0.6869 0.7177 0.9380
C90_4 C 0.5865(2) 0.6868(3) 0.95466(6)
H66_4 H 0.6072 0.7381 0.9609
O33_3 O 0.8236(2) 0.3749(3) 0.64797(5)
O35_3 O 0.7572(5) 0.4838(4) 0.64652(9)
Zn1_8 Zn 0.3334 0.6666 0.036257(10)
O1_8 O 0.3334 0.6666 0.00797(6)
O3_5 O 0.2430(2) 0.6746(2) 0.04684(5)
O4_5 O 0.2025(4) 0.7149(4) 0.02008(7)
C1_5 C 0.2030(4) 0.7022(3) 0.03849(7)
C2_5 C 0.1456(3) 0.7172(3) 0.05081(5)
C3_5 C 0.1108(4) 0.7612(4) 0.04357(5)
H1_5 H 0.1235 0.7832 0.0307
C4_5 C 0.0572(4) 0.7730(4) 0.05511(6)
H2_5 H 0.0334 0.8030 0.0501
C5_5 C 0.0385(3) 0.7407(3) 0.07390(5)
C6_5 C 0.0733(2) 0.6967(2) 0.08115(4)
H3_5 H 0.0606 0.6747 0.0940
C7_5 C 0.1269(2) 0.68501(19) 0.06960(4)
H4_5 H 0.1507 0.6549 0.0745
H6_5 H 0.0415 0.8736 0.0830
O18_3 O 0.0906(5) 0.1504(4) 0.31318(9)
N4_5 N 0.0817(4) 0.3978(3) 0.25171(7)
C49_5 C 0.02251(22) 0.45865(12) 0.23076(5)
H35_5 H 0.0643 0.5112 0.2346
C50_5 C 0.02154(23) 0.38978(16) 0.23802(5)
C53_5 C 0.1542(4) 0.4735(3) 0.25263(10)
H38_5 H 0.1884 0.4793 0.2413
H39_5 H 0.1835 0.4765 0.2647
H40_5 H 0.1412 0.5174 0.2525
C54_5 C 0.0290(4) 0.1562(3) 0.30822(7)
C55_5 C 0.0429(4) 0.2184(3) 0.29245(6)
C56_5 C 0.11789(36) 0.2631(3) 0.28331(7)
H41_5 H 0.1610 0.2531 0.2863
C57_5 C 0.1300(3) 0.3225(2) 0.26969(6)
H42_5 H 0.1813 0.3531 0.2634
C58_5 C 0.0671(3) 0.3372(2) 0.26523(5)
Zn16_3 Zn 0.10565(5) 0.08396(4) 0.332190(6)
O29_5 O 0.4317(3) 0.7570(2) 0.04684(5)
O30_5 O 0.3254(2) 0.5683(3) 0.04684(5)
Zn14_3 Zn 0.91604(4) 0.02170(3) 0.332190(6)
Zn3_11 Zn 0.6667 0.3333 0.139727(13)
Zn4_5 Zn 0.75240(2) 0.43650(2) 0.178038(5)
O2_11 O 0.6667 0.3333 0.16914(5)
O5_5 O 0.7457(4) 0.4395(3) 0.13434(7)
O6_5 O 0.8126(2) 0.5261(2) 0.15946(5)
O7_5 O 0.70867(16) 0.48328(16) 0.19678(3)
O8_5 O 0.57206(16) 0.40850(16) 0.19298(4)
O9_3 O 0.8846(2) 0.8430(2) 0.31463(5)
O10_3 O 0.8496(4) 0.9401(3) 0.31318(9)
N1_5 N 0.9869(4) 0.7546(4) 0.08620(9)
N2_5 N 0.6022(3) 0.6838(3) 0.25171(7)
C8_5 C 0.9871(6) 0.8292(6) 0.08635(12)
H5_5 H 0.9477 0.8270 0.0767
H7_5 H 0.9721 0.8386 0.0994
C9_5 C 0.7998(4) 0.5094(4) 0.14170(9)
C10_5 C 0.8456(2) 0.57460(17) 0.12699(4)
C11_5 C 0.89716(19) 0.65327(18) 0.13361(4)
H8_5 H 0.8996 0.6654 0.1471
C12_5 C 0.94531(19) 0.71421(15) 0.12039(5)
H9_5 H 0.9806 0.7680 0.1249
C13_5 C 0.9419(3) 0.6964(2) 0.10056(5)
C14_5 C 0.8902(3) 0.6178(2) 0.09395(4)
H10_5 H 0.8879 0.6056 0.0804
C15_5 C 0.8421(3) 0.55686(19) 0.10716(5)
H11_5 H 0.8068 0.5031 0.1026
C16_5 C 0.6357(2) 0.4691(2) 0.19971(5)
C17_5 C 0.62624(14) 0.52757(15) 0.21216(4)
C18_5 C 0.54936(11) 0.51176(15) 0.21783(5)
H12_5 H 0.5023 0.4653 0.2128
C19_5 C 0.54135(12) 0.56385(18) 0.23076(5)
H13_5 H 0.4888 0.5530 0.2346
C20_5 C 0.61022(16) 0.63175(17) 0.23802(5)
C21_5 C 0.68709(13) 0.64756(15) 0.23235(5)
H14_5 H 0.7342 0.6939 0.2373
C22_5 C 0.69511(11) 0.59547(16) 0.21942(4)
H15_5 H 0.7477 0.6062 0.2155
C23_5 C 0.5265(3) 0.6806(3) 0.25263(10)
H16_5 H 0.5207 0.7090 0.2413
H17_5 H 0.5235 0.7069 0.2647
H18_5 H 0.4826 0.6237 0.2525
C24_5 C 0.8438(3) 0.8727(3) 0.30822(7)
C25_5 C 0.7816(3) 0.8244(2) 0.29245(6)
C26_5 C 0.7369(3) 0.85475(19) 0.28331(7)
H19_5 H 0.7469 0.9078 0.2863
C27_5 C 0.6775(2) 0.8074(2) 0.26969(6)
H20_5 H 0.6469 0.8281 0.2634
C28_5 C 0.6628(2) 0.7298(2) 0.26523(5)
C29_5 C 0.7076(2) 0.69950(17) 0.27438(6)
H21_5 H 0.6975 0.6464 0.2713
C30_5 C 0.7670(2) 0.7468(2) 0.28799(6)
H22_5 H 0.7976 0.7261 0.2942
Zn6_5 Zn 0.68411(3) 0.24760(2) 0.178038(5)
O13_5 O 0.6939(5) 0.2543(4) 0.13434(7)
O14_5 O 0.7136(3) 0.1874(2) 0.15946(5)
O15_5 O 0.77462(23) 0.29133(16) 0.19678(3)
O16_5 O 0.83645(23) 0.42794(16) 0.19298(4)
O17_3 O 0.9585(3) 0.1154(2) 0.31463(5)
N3_5 N 0.7678(6) 0.0131(4) 0.08620(9)
C38_5 C 0.8422(8) 0.0129(6) 0.08635(12)
H27_5 H 0.8794 0.0523 0.0767
H29_5 H 0.8666 0.0279 0.0994
C39_5 C 0.7097(6) 0.2002(4) 0.14170(9)
C40_5 C 0.72904(26) 0.1544(2) 0.12699(4)
C41_5 C 0.75612(26) 0.10284(19) 0.13361(4)
H30_5 H 0.7659 0.1004 0.1471
C42_5 C 0.76891(24) 0.05469(19) 0.12039(5)
H31_5 H 0.7875 0.0194 0.1249
C43_5 C 0.7546(4) 0.0581(3) 0.10056(5)
C44_5 C 0.7277(4) 0.1098(3) 0.09395(4)
H32_5 H 0.7178 0.1121 0.0804
C45_5 C 0.71480(36) 0.1579(3) 0.10716(5)
H33_5 H 0.6964 0.1932 0.1026
C46_5 C 0.8335(3) 0.3643(2) 0.19971(5)
C47_5 C 0.90134(21) 0.37376(14) 0.21216(4)
C48_5 C 0.96241(19) 0.45064(11) 0.21783(5)
H34_5 H 0.9631 0.4977 0.2128
C51_5 C 0.96048(20) 0.31291(13) 0.23235(5)
H36_5 H 0.9598 0.2658 0.2373
C52_5 C 0.90037(19) 0.30489(11) 0.21942(4)
H37_5 H 0.8586 0.2523 0.2155
C59_5 C 0.99194(26) 0.2924(2) 0.27438(6)
H43_5 H 0.9490 0.3025 0.2713
C60_5 C 0.9799(3) 0.2330(2) 0.28799(6)
H44_5 H 0.9286 0.2024 0.2942
Zn8_5 Zn 0.56350(2) 0.31589(3) 0.178038(5)
O20_5 O 0.2851(4) 0.4875(6) 0.02008(7)
O21_5 O 0.5605(3) 0.3061(5) 0.13434(7)
O22_5 O 0.4739(2) 0.2864(3) 0.15946(5)
O23_5 O 0.51672(16) 0.22538(23) 0.19678(3)
O24_5 O 0.59150(16) 0.16355(23) 0.19298(4)
O25_3 O 0.1570(2) 0.0415(3) 0.31463(5)
N5_5 N 0.2454(4) 0.2322(6) 0.08620(9)
C61_5 C 0.2978(3) 0.5007(5) 0.03849(7)
C62_5 C 0.2828(3) 0.4283(4) 0.05081(5)
C63_5 C 0.2388(4) 0.3495(6) 0.04357(5)
H45_5 H 0.2168 0.3402 0.0307
C64_5 C 0.2270(4) 0.2841(6) 0.05511(6)
H46_5 H 0.1970 0.2303 0.0501
C65_5 C 0.2593(3) 0.2977(4) 0.07390(5)
C66_5 C 0.3033(2) 0.3765(3) 0.08115(4)
H47_5 H 0.3253 0.3858 0.0940
C67_5 C 0.31499(19) 0.44185(28) 0.06960(4)
H48_5 H 0.3451 0.4957 0.0745
C68_5 C 0.1708(6) 0.1578(8) 0.08635(12)
H49_5 H 0.1730 0.1206 0.0767
H50_5 H 0.1264 0.1678 0.0830
H51_5 H 0.1614 0.1334 0.0994
C69_5 C 0.4906(4) 0.2903(6) 0.14170(9)
C70_5 C 0.42540(17) 0.27096(26) 0.12699(4)
C71_5 C 0.34673(18) 0.24388(26) 0.13361(4)
H52_5 H 0.3346 0.2341 0.1471
C72_5 C 0.28579(15) 0.23109(24) 0.12039(5)
H53_5 H 0.2320 0.2125 0.1249
C73_5 C 0.3036(2) 0.2454(4) 0.10056(5)
C74_5 C 0.3822(2) 0.2723(4) 0.09395(4)
H54_5 H 0.3944 0.2822 0.0804
C75_5 C 0.44314(19) 0.28520(36) 0.10716(5)
H55_5 H 0.4969 0.3036 0.1026
C76_5 C 0.5309(2) 0.1665(3) 0.19971(5)
C77_5 C 0.47243(15) 0.09866(21) 0.21216(4)
C78_5 C 0.48824(15) 0.03759(19) 0.21783(5)
H56_5 H 0.5347 0.0369 0.2128
C81_5 C 0.35244(15) 0.03952(20) 0.23235(5)
H58_5 H 0.3061 0.0402 0.2373
C82_5 C 0.40453(16) 0.09963(19) 0.21942(4)
H59_5 H 0.3938 0.1414 0.2155
C89_5 C 0.30050(17) 0.00806(26) 0.27438(6)
H65_5 H 0.3536 0.0510 0.2713
C90_5 C 0.2532(2) 0.0201(3) 0.28799(6)
H66_5 H 0.2739 0.0714 0.2942
Zn18_3 Zn 0.97830(3) 0.89435(5) 0.332190(6)
O12_5 O 0.5125(6) 0.7975(4) 0.02008(7)
C31_5 C 0.4993(5) 0.7970(4) 0.03849(7)
C32_5 C 0.5717(4) 0.8544(3) 0.05081(5)
C33_5 C 0.6505(6) 0.8892(4) 0.04357(5)
H23_5 H 0.6598 0.8765 0.0307
C34_5 C 0.7159(6) 0.9428(4) 0.05511(6)
H24_5 H 0.7697 0.9666 0.0501
C35_5 C 0.7023(4) 0.9615(3) 0.07390(5)
C36_5 C 0.6235(3) 0.9267(2) 0.08115(4)
H25_5 H 0.6142 0.9394 0.0940
C37_5 C 0.55815(28) 0.8731(2) 0.06960(4)
H26_5 H 0.5043 0.8493 0.0745
H28_5 H 0.8322 0.9585 0.0830
O26_3 O 0.0599(3) 0.9094(5) 0.31318(9)
N6_5 N 0.3162(3) 0.9183(4) 0.25171(7)
C79_5 C 0.43615(18) 0.97749(22) 0.23076(5)
H57_5 H 0.4470 0.9357 0.2346
C80_5 C 0.36825(17) 0.97846(23) 0.23802(5)
C83_5 C 0.3194(3) 0.8458(4) 0.25263(10)
H60_5 H 0.2910 0.8116 0.2413
H61_5 H 0.2931 0.8165 0.2647
H62_5 H 0.3763 0.8588 0.2525
C84_5 C 0.1273(3) 0.9710(4) 0.30822(7)
C85_5 C 0.1756(2) 0.9571(4) 0.29245(6)
C86_5 C 0.14525(19) 0.88211(36) 0.28331(7)
H63_5 H 0.0922 0.8390 0.2863
C87_5 C 0.1926(2) 0.8700(3) 0.26969(6)
H64_5 H 0.1719 0.8187 0.2634
C88_5 C 0.2702(2) 0.9329(3) 0.26523(5)
Zn1_9 Zn 0.0000 -0.0000 0.369591(10)
O1_9 O 0.0000 -0.0000 0.34131(6)
O29_6 O 0.0983(3) 0.0904(2) 0.38018(5)
Zn1_10 Zn 0.0000 1.0000 0.369591(10)
O1_10 O 0.0000 1.0000 0.34131(6)
Zn1_11 Zn 1.0000 -0.0000 0.369591(10)
O1_11 O 1.0000 -0.0000 0.34131(6)
O3_6 O 0.9096(2) 0.0080(2) 0.38018(5)
O4_6 O 0.8691(4) 0.0483(4) 0.35342(7)
N1_6 N 0.6535(4) 0.0880(4) 0.41954(9)
N2_6 N 0.2688(3) 0.0172(3) 0.58505(7)
C1_6 C 0.8696(4) 0.0356(3) 0.37183(7)
C2_6 C 0.8122(3) 0.0506(3) 0.38415(5)
C3_6 C 0.7774(4) 0.0946(4) 0.37691(5)
H1_6 H 0.7901 0.1166 0.3641
C4_6 C 0.7238(4) 0.1064(4) 0.38845(6)
H2_6 H 0.7000 0.1364 0.3835
C5_6 C 0.7051(3) 0.0741(3) 0.40724(5)
C6_6 C 0.7399(2) 0.0301(2) 0.41449(4)
H3_6 H 0.7272 0.0081 0.4274
C7_6 C 0.7935(2) 0.01835(19) 0.40294(4)
C8_6 C 0.6537(6) 0.1626(6) 0.41969(12)
H5_6 H 0.6143 0.1604 0.4101
H6_6 H 0.7081 0.2070 0.4164
H7_6 H 0.6387 0.1720 0.4328
C12_6 C 0.61197(19) 0.04755(15) 0.45373(5)
H9_6 H 0.6472 0.1014 0.4583
C13_6 C 0.6085(3) 0.0298(2) 0.43390(5)
H14_6 H 0.4008 0.0273 0.5707
C23_6 C 0.1931(3) 0.0140(3) 0.58597(10)
H16_6 H 0.1873 0.0424 0.5747
H17_6 H 0.1901 0.0403 0.5981
C24_6 C 0.5104(3) 0.2061(3) 0.64156(7)
C25_6 C 0.4482(3) 0.1578(2) 0.62579(6)
C26_6 C 0.4035(3) 0.18809(19) 0.61665(7)
H19_6 H 0.4135 0.2412 0.6197
C27_6 C 0.3441(2) 0.1408(2) 0.60303(6)
H20_6 H 0.3135 0.1615 0.5968
C28_6 C 0.3294(2) 0.0632(2) 0.59857(5)
C29_6 C 0.3742(2) 0.03284(17) 0.60772(6)
C30_6 C 0.4336(2) 0.0802(2) 0.62133(6)
H22_6 H 0.4642 0.0595 0.6276
Zn1_12 Zn 1.0000 1.0000 0.369591(10)
Zn3_12 Zn 0.3333 0.6667 0.473061(13)
Zn4_6 Zn 0.41906(2) 0.76984(2) 0.511372(5)
O1_12 O 1.0000 1.0000 0.34131(6)
O2_12 O 0.3333 0.6667 0.50248(5)
O5_6 O 0.4123(4) 0.7729(3) 0.46768(7)
O6_6 O 0.4792(2) 0.8595(2) 0.49280(5)
O7_6 O 0.37533(16) 0.81662(16) 0.53012(3)
O8_6 O 0.23872(16) 0.74184(16) 0.52632(4)
H4_6 H 0.8173 0.9883 0.4079
C9_6 C 0.4664(4) 0.8428(4) 0.47504(9)
C10_6 C 0.5122(2) 0.90794(17) 0.46033(4)
C11_6 C 0.56382(19) 0.98661(18) 0.46695(4)
H8_6 H 0.5662 0.9988 0.4805
C14_6 C 0.5568(3) 0.9512(2) 0.42729(4)
H10_6 H 0.5545 0.9390 0.4138
C15_6 C 0.5087(3) 0.89020(19) 0.44050(5)
H11_6 H 0.4734 0.8365 0.4360
C16_6 C 0.3023(2) 0.8025(2) 0.53305(5)
C17_6 C 0.29290(14) 0.86091(15) 0.54550(4)
C18_6 C 0.21602(11) 0.84510(15) 0.55117(5)
H12_6 H 0.1689 0.7987 0.5462
C19_6 C 0.20801(12) 0.89719(18) 0.56410(5)
H13_6 H 0.1554 0.8864 0.5680
C20_6 C 0.27688(16) 0.96509(17) 0.57136(5)
C21_6 C 0.35375(13) 0.98090(15) 0.56569(5)
C22_6 C 0.36177(11) 0.92881(16) 0.55276(4)
H15_6 H 0.4143 0.9396 0.5489
H18_6 H 0.1492 0.9571 0.5859
H21_6 H 0.3641 0.9798 0.6047
Zn6_6 Zn 0.35077(3) 0.58094(2) 0.511372(5)
O12_6 O 0.1791(6) 0.1309(4) 0.35342(7)
O13_6 O 0.3605(5) 0.5877(4) 0.46768(7)
O14_6 O 0.3802(3) 0.5208(2) 0.49280(5)
O15_6 O 0.44128(23) 0.62467(16) 0.53012(3)
O16_6 O 0.50311(23) 0.76128(16) 0.52632(4)
N3_6 N 0.4344(6) 0.3465(4) 0.41954(9)
N4_6 N 0.7483(4) 0.7312(3) 0.58505(7)
C31_6 C 0.1659(5) 0.1304(4) 0.37183(7)
C32_6 C 0.2383(4) 0.1878(3) 0.38415(5)
C33_6 C 0.3171(6) 0.2226(4) 0.37691(5)
H23_6 H 0.3264 0.2099 0.3641
C34_6 C 0.3825(6) 0.2762(4) 0.38845(6)
H24_6 H 0.4363 0.3000 0.3835
C35_6 C 0.3689(4) 0.2949(3) 0.40724(5)
C36_6 C 0.2901(3) 0.2601(2) 0.41449(4)
H25_6 H 0.2808 0.2728 0.4274
C37_6 C 0.22481(28) 0.2065(2) 0.40294(4)
H26_6 H 0.1709 0.1827 0.4079
C38_6 C 0.5088(8) 0.3463(6) 0.41969(12)
H27_6 H 0.5460 0.3857 0.4101
H28_6 H 0.4988 0.2919 0.4164
H29_6 H 0.5332 0.3613 0.4328
C39_6 C 0.3763(6) 0.5336(4) 0.47504(9)
C40_6 C 0.39570(26) 0.4878(2) 0.46033(4)
C41_6 C 0.42278(26) 0.43618(19) 0.46695(4)
H30_6 H 0.4325 0.4338 0.4805
C42_6 C 0.43557(24) 0.38803(19) 0.45373(5)
H31_6 H 0.4541 0.3528 0.4583
C43_6 C 0.4212(4) 0.3915(3) 0.43390(5)
C44_6 C 0.3943(4) 0.4432(3) 0.42729(4)
H32_6 H 0.3844 0.4455 0.4138
C45_6 C 0.38146(36) 0.4913(3) 0.44050(5)
H33_6 H 0.3630 0.5266 0.4360
C46_6 C 0.5001(3) 0.6977(2) 0.53305(5)
C47_6 C 0.56800(21) 0.70710(14) 0.54550(4)
C48_6 C 0.62907(19) 0.78398(11) 0.55117(5)
H34_6 H 0.6297 0.8311 0.5462
C49_6 C 0.68917(22) 0.79199(12) 0.56410(5)
H35_6 H 0.7309 0.8446 0.5680
C50_6 C 0.68820(23) 0.72312(16) 0.57136(5)
C51_6 C 0.62714(20) 0.64625(13) 0.56569(5)
H36_6 H 0.6264 0.5992 0.5707
C52_6 C 0.56703(19) 0.63823(11) 0.55276(4)
H37_6 H 0.5252 0.5857 0.5489
C53_6 C 0.8208(4) 0.8069(3) 0.58597(10)
H38_6 H 0.8550 0.8127 0.5747
H39_6 H 0.8501 0.8099 0.5981
H40_6 H 0.8078 0.8508 0.5859
C54_6 C 0.6956(4) 0.4896(3) 0.64156(7)
C55_6 C 0.7095(4) 0.5518(3) 0.62579(6)
C56_6 C 0.78455(36) 0.5965(3) 0.61665(7)
H41_6 H 0.8276 0.5865 0.6197
C57_6 C 0.7966(3) 0.6559(2) 0.60303(6)
H42_6 H 0.8479 0.6865 0.5968
C58_6 C 0.7337(3) 0.6706(2) 0.59857(5)
C59_6 C 0.65860(26) 0.6258(2) 0.60772(6)
H43_6 H 0.6156 0.6359 0.6047
C60_6 C 0.6465(3) 0.5664(2) 0.62133(6)
H44_6 H 0.5952 0.5358 0.6276
Zn8_6 Zn 0.23016(2) 0.64923(3) 0.511372(5)
O21_6 O 0.2271(3) 0.6395(5) 0.46768(7)
O22_6 O 0.1405(2) 0.6198(3) 0.49280(5)
O23_6 O 0.18338(16) 0.55872(23) 0.53012(3)
O24_6 O 0.25816(16) 0.49689(23) 0.52632(4)
H48_6 H 0.0117 0.8291 0.4079
C69_6 C 0.1572(4) 0.6237(6) 0.47504(9)
C70_6 C 0.09206(17) 0.60430(26) 0.46033(4)
C71_6 C 0.01339(18) 0.57722(26) 0.46695(4)
H52_6 H 0.0012 0.5675 0.4805
C74_6 C 0.0488(2) 0.6057(4) 0.42729(4)
H54_6 H 0.0610 0.6156 0.4138
C75_6 C 0.10980(19) 0.61854(36) 0.44050(5)
H55_6 H 0.1635 0.6370 0.4360
C76_6 C 0.1975(2) 0.4999(3) 0.53305(5)
C77_6 C 0.13909(15) 0.43200(21) 0.54550(4)
C78_6 C 0.15490(15) 0.37093(19) 0.55117(5)
H56_6 H 0.2013 0.3703 0.5462
C79_6 C 0.10281(18) 0.31083(22) 0.56410(5)
H57_6 H 0.1136 0.2691 0.5680
C80_6 C 0.03491(17) 0.31180(23) 0.57136(5)
C81_6 C 0.01910(15) 0.37286(20) 0.56569(5)
C82_6 C 0.07119(16) 0.43297(19) 0.55276(4)
H59_6 H 0.0604 0.4748 0.5489
H62_6 H 0.0429 0.1922 0.5859
H65_6 H 0.0202 0.3844 0.6047
O30_6 O 0.9920(2) 0.9017(3) 0.38018(5)
O20_6 O 0.9517(4) 0.8209(6) 0.35342(7)
N5_6 N 0.9120(4) 0.5656(6) 0.41954(9)
N6_6 N 0.9828(3) 0.2517(4) 0.58505(7)
C61_6 C 0.9644(3) 0.8341(5) 0.37183(7)
C62_6 C 0.9494(3) 0.7617(4) 0.38415(5)
C63_6 C 0.9054(4) 0.6829(6) 0.37691(5)
H45_6 H 0.8834 0.6736 0.3641
C64_6 C 0.8936(4) 0.6175(6) 0.38845(6)
H46_6 H 0.8636 0.5637 0.3835
C65_6 C 0.9259(3) 0.6311(4) 0.40724(5)
C66_6 C 0.9699(2) 0.7099(3) 0.41449(4)
H47_6 H 0.9919 0.7192 0.4274
C67_6 C 0.98165(19) 0.77519(28) 0.40294(4)
C68_6 C 0.8374(6) 0.4912(8) 0.41969(12)
H49_6 H 0.8396 0.4540 0.4101
H50_6 H 0.7930 0.5012 0.4164
H51_6 H 0.8280 0.4668 0.4328
C72_6 C 0.95245(15) 0.56443(24) 0.45373(5)
H53_6 H 0.8986 0.5459 0.4583
C73_6 C 0.9702(2) 0.5788(4) 0.43390(5)
H58_6 H 0.9727 0.3736 0.5707
C83_6 C 0.9860(3) 0.1792(4) 0.58597(10)
H60_6 H 0.9576 0.1450 0.5747
H61_6 H 0.9597 0.1499 0.5981
C84_6 C 0.7939(3) 0.3044(4) 0.64156(7)
C85_6 C 0.8422(2) 0.2905(4) 0.62579(6)
C86_6 C 0.81191(19) 0.21545(36) 0.61665(7)
H63_6 H 0.7588 0.1724 0.6197
C87_6 C 0.8592(2) 0.2034(3) 0.60303(6)
H64_6 H 0.8385 0.1521 0.5968
C88_6 C 0.9368(2) 0.2663(3) 0.59857(5)
C89_6 C 0.96716(17) 0.34140(26) 0.60772(6)
C90_6 C 0.9198(2) 0.3535(3) 0.62133(6)
H66_6 H 0.9405 0.4048 0.6276
loop_
_geom_bond_atom_site_label_1
_geom_bond_atom_site_label_2
_geom_bond_site_symmetry_1
_geom_bond_site_symmetry_2
Zn1 O1 1_555 1_555
Zn2 O1 1_555 1_555
Zn3 O2 1_555 1_555
Zn4 O2 1_555 1_555
O1 Zn11 1_555 1_555
O3 Zn1 1_555 1_555
O4 Zn2 1_555 1_555
O5 Zn3 1_555 1_555
O6 Zn4 1_555 1_555
O7 Zn4 1_555 1_555
O9 C24 1_555 1_555
O10 C24 1_555 1_555
N1 C5 1_555 1_555
C1 O3 1_555 1_555
C2 C1 1_555 1_555
C3 C2 1_555 1_555
H1 C3 1_555 1_555
C4 C3 1_555 1_555
H2 C4 1_555 1_555
C5 C4 1_555 1_555
C6 C5 1_555 1_555
H3 C6 1_555 1_555
C7 C2 1_555 1_555
H4 C7 1_555 1_555
C8 N1 1_555 1_555
H5 C8 1_555 1_555
H6 C8 1_555 1_555
H7 C8 1_555 1_555
C9 O5 1_555 1_555
C10 C9 1_555 1_555
C11 C10 1_555 1_555
H8 C11 1_555 1_555
C12 C11 1_555 1_555
H9 C12 1_555 1_555
C13 N1 1_555 1_555
C14 C13 1_555 1_555
H10 C14 1_555 1_555
C15 C10 1_555 1_555
H11 C15 1_555 1_555
H14 C21 1_555 1_555
H15 C22 1_555 1_555
C24 C25 1_555 1_555
C25 C26 1_555 1_555
C26 H19 1_555 1_555
C27 C26 1_555 1_555
H21 C29 1_555 1_555
C30 C25 1_555 1_555
H22 C30 1_555 1_555
O16 Zn4 1_555 1_555
N4 C50 1_555 1_555
C47 C46 1_555 1_555
C48 C47 1_555 1_555
H34 C48 1_555 1_555
C49 C48 1_555 1_555
H35 C49 1_555 1_555
C50 C49 1_555 1_555
C53 N4 1_555 1_555
H38 C53 1_555 1_555
H39 C53 1_555 1_555
H40 C53 1_555 1_555
C58 N4 1_555 1_555
Zn12 O1 1_555 1_555
Zn14 O10 1_555 1_555
Zn18 O9 1_555 1_555
O29 Zn1 1_555 1_555
O30 Zn1 1_555 1_555
O32 Zn2 1_555 1_555
O34 Zn2 1_555 1_555
O4 C1 1_555 1_555
O6 C9 1_555 1_555
C6 C7 1_555 1_555
C12 C13 1_555 1_555
C14 C15 1_555 1_555
C21 C22 1_555 1_555
C29 C30 1_555 1_555
O16 C46 1_555 1_555
Zn3_2 O2_2 1_555 1_555
O8 C16 1_555 1_555
N2 C20 1_555 1_555
C17 C16 1_555 1_555
C18 C17 1_555 1_555
H12 C18 1_555 1_555
C19 C18 1_555 1_555
H13 C19 1_555 1_555
C20 C19 1_555 1_555
C23 N2 1_555 1_555
H16 C23 1_555 1_555
H17 C23 1_555 1_555
H18 C23 1_555 1_555
C28 N2 1_555 1_555
Zn12 O20 1_555 1_555
O30 C61 1_555 1_555
O20 C61 1_555 1_555
C61 C62 1_555 1_555
C62 C63 1_555 1_555
C63 H45 1_555 1_555
H47 C66 1_555 1_555
C67 C62 1_555 1_555
H48 C67 1_555 1_555
O31 Zn12 1_555 1_555
O36 Zn12 1_555 1_555
C66 C67 1_555 1_555
Zn3_3 O2_3 1_555 1_555
O2_3 Zn6 1_555 1_555
Zn6 O14 1_555 1_555
O13 Zn3_3 1_555 1_555
O14 C39 1_555 1_555
O15 Zn6 1_555 1_555
O17 C54 1_555 1_555
O18 C54 1_555 1_555
N3 C35 1_555 1_555
H24 C34 1_555 1_555
C35 C34 1_555 1_555
C38 N3 1_555 1_555
H27 C38 1_555 1_555
H28 C38 1_555 1_555
H29 C38 1_555 1_555
C39 O13 1_555 1_555
C40 C39 1_555 1_555
C41 C40 1_555 1_555
H30 C41 1_555 1_555
C42 C41 1_555 1_555
H31 C42 1_555 1_555
C43 N3 1_555 1_555
C44 C43 1_555 1_555
H32 C44 1_555 1_555
C45 C40 1_555 1_555
H33 C45 1_555 1_555
H36 C51 1_555 1_555
H37 C52 1_555 1_555
C54 C55 1_555 1_555
C55 C56 1_555 1_555
C56 H41 1_555 1_555
C57 C56 1_555 1_555
H43 C59 1_555 1_555
C60 C55 1_555 1_555
H44 C60 1_555 1_555
Zn14 O17 1_555 1_555
Zn16 O18 1_555 1_555
C42 C43 1_555 1_555
C44 C45 1_555 1_555
C51 C52 1_555 1_555
C59 C60 1_555 1_555
Zn3_4 O2_4 1_555 1_555
Zn11 O12 1_555 1_555
O29 C31 1_555 1_555
O12 C31 1_555 1_555
C31 C32 1_555 1_555
C32 C33 1_555 1_555
C33 H23 1_555 1_555
H25 C36 1_555 1_555
C37 C32 1_555 1_555
H26 C37 1_555 1_555
Zn8 O2_4 1_555 1_555
O21 Zn3_4 1_555 1_555
O22 Zn8 1_555 1_555
O23 Zn8 1_555 1_555
O25 C84 1_555 1_555
O26 C84 1_555 1_555
N5 C65 1_555 1_555
N6 C80 1_555 1_555
H46 C64 1_555 1_555
C65 C64 1_555 1_555
C68 N5 1_555 1_555
H49 C68 1_555 1_555
H50 C68 1_555 1_555
H51 C68 1_555 1_555
C69 O21 1_555 1_555
C70 C69 1_555 1_555
C71 C70 1_555 1_555
H52 C71 1_555 1_555
C72 C71 1_555 1_555
H53 C72 1_555 1_555
C73 N5 1_555 1_555
C74 C73 1_555 1_555
H54 C74 1_555 1_555
C75 C70 1_555 1_555
H55 C75 1_555 1_555
C76 O23 1_555 1_555
C77 C76 1_555 1_555
C78 C77 1_555 1_555
H56 C78 1_555 1_555
C79 C78 1_555 1_555
H57 C79 1_555 1_555
C80 C79 1_555 1_555
C81 C80 1_555 1_555
H58 C81 1_555 1_555
C82 C77 1_555 1_555
H59 C82 1_555 1_555
C83 N6 1_555 1_555
H60 C83 1_555 1_555
H61 C83 1_555 1_555
H62 C83 1_555 1_555
C84 C85 1_555 1_555
C85 C86 1_555 1_555
C86 H63 1_555 1_555
C87 C86 1_555 1_555
H64 C87 1_555 1_555
C88 N6 1_555 1_555
C89 C88 1_555 1_555
H65 C89 1_555 1_555
C90 C85 1_555 1_555
H66 C90 1_555 1_555
Zn16 O25 1_555 1_555
Zn18 O26 1_555 1_555
O33 Zn11 1_555 1_555
O35 Zn11 1_555 1_555
C36 C37 1_555 1_555
O22 C69 1_555 1_555
O24 C76 1_555 1_555
C72 C73 1_555 1_555
C74 C75 1_555 1_555
C81 C82 1_555 1_555
C87 C88 1_555 1_555
C89 C90 1_555 1_555
Zn1_2 O1_2 1_555 1_555
O1_2 Zn11_2 1_555 1_555
O29_2 Zn1_2 1_555 1_555
Zn1_3 O1_3 1_555 1_555
Zn2_2 O1_3 1_555 1_555
O3_2 Zn1_3 1_555 1_555
O4_2 Zn2_2 1_555 1_555
O31 C24_2 1_555 1_555
O34 C24_2 1_555 1_555
N1_2 C5_2 1_555 1_555
C1_2 O3_2 1_555 1_555
C2_2 C1_2 1_555 1_555
C3_2 C2_2 1_555 1_555
H1_2 C3_2 1_555 1_555
C4_2 C3_2 1_555 1_555
H2_2 C4_2 1_555 1_555
C5_2 C4_2 1_555 1_555
C6_2 C5_2 1_555 1_555
H3_2 C6_2 1_555 1_555
C7_2 C2_2 1_555 1_555
C8_2 N1_2 1_555 1_555
H5_2 C8_2 1_555 1_555
H6_2 C8_2 1_555 1_555
H7_2 C8_2 1_555 1_555
H9_2 C12_2 1_555 1_555
C13_2 N1_2 1_555 1_555
C23_2 N2_2 1_555 1_555
H16_2 C23_2 1_555 1_555
H17_2 C23_2 1_555 1_555
C24_2 C25_2 1_555 1_555
C25_2 C26_2 1_555 1_555
C26_2 H19_2 1_555 1_555
C27_2 C26_2 1_555 1_555
H20_2 C27_2 1_555 1_555
C28_2 N2_2 1_555 1_555
C29_2 C28_2 1_555 1_555
C30_2 C25_2 1_555 1_555
H22_2 C30_2 1_555 1_555
O32_2 Zn2_2 1_555 1_555
O4_2 C1_2 1_555 1_555
C6_2 C7_2 1_555 1_555
C12_2 C13_2 1_555 1_555
C27_2 C28_2 1_555 1_555
C29_2 C30_2 1_555 1_555
Zn1_4 O1_4 1_555 1_555
Zn1_5 O1_5 1_555 1_555
Zn3_5 O2_5 1_555 1_555
Zn4_2 O2_5 1_555 1_555
O2_5 Zn6_2 1_555 1_555
O5_2 Zn3_5 1_555 1_555
O6_2 Zn4_2 1_555 1_555
O7_2 Zn4_2 1_555 1_555
O8_2 C16_2 1_555 1_555
C9_2 O5_2 1_555 1_555
C10_2 C9_2 1_555 1_555
C11_2 C10_2 1_555 1_555
H8_2 C11_2 1_555 1_555
H10_2 C14_2 1_555 1_555
C15_2 C10_2 1_555 1_555
H11_2 C15_2 1_555 1_555
C16_2 O7_2 1_555 1_555
C17_2 C16_2 1_555 1_555
C18_2 C17_2 1_555 1_555
H12_2 C18_2 1_555 1_555
C19_2 C18_2 1_555 1_555
H13_2 C19_2 1_555 1_555
C20_2 C19_2 1_555 1_555
C21_2 C20_2 1_555 1_555
C22_2 C17_2 1_555 1_555
H15_2 C22_2 1_555 1_555
Zn11_2 O12_2 1_555 1_555
Zn6_2 O14_2 1_555 1_555
O29_2 C31_2 1_555 1_555
O12_2 C31_2 1_555 1_555
O13_2 Zn3_5 1_555 1_555
O14_2 C39_2 1_555 1_555
O15_2 Zn6_2 1_555 1_555
O16_2 Zn4_2 1_555 1_555
O32 C54_2 1_555 1_555
O35 C54_2 1_555 1_555
N3_2 C35_2 1_555 1_555
N4_2 C50_2 1_555 1_555
C31_2 C32_2 1_555 1_555
C32_2 C33_2 1_555 1_555
C33_2 H23_2 1_555 1_555
C34_2 C33_2 1_555 1_555
H24_2 C34_2 1_555 1_555
C35_2 C34_2 1_555 1_555
C36_2 C35_2 1_555 1_555
H25_2 C36_2 1_555 1_555
C37_2 C32_2 1_555 1_555
H26_2 C37_2 1_555 1_555
C38_2 N3_2 1_555 1_555
H27_2 C38_2 1_555 1_555
H28_2 C38_2 1_555 1_555
H29_2 C38_2 1_555 1_555
C39_2 O13_2 1_555 1_555
C40_2 C39_2 1_555 1_555
C41_2 C40_2 1_555 1_555
H30_2 C41_2 1_555 1_555
C42_2 C41_2 1_555 1_555
H31_2 C42_2 1_555 1_555
C43_2 N3_2 1_555 1_555
C44_2 C43_2 1_555 1_555
H32_2 C44_2 1_555 1_555
C45_2 C40_2 1_555 1_555
H33_2 C45_2 1_555 1_555
C46_2 O15_2 1_555 1_555
C47_2 C46_2 1_555 1_555
C48_2 C47_2 1_555 1_555
H34_2 C48_2 1_555 1_555
C49_2 C48_2 1_555 1_555
H35_2 C49_2 1_555 1_555
C50_2 C49_2 1_555 1_555
C51_2 C50_2 1_555 1_555
H36_2 C51_2 1_555 1_555
C52_2 C47_2 1_555 1_555
H37_2 C52_2 1_555 1_555
C53_2 N4_2 1_555 1_555
H38_2 C53_2 1_555 1_555
H39_2 C53_2 1_555 1_555
H40_2 C53_2 1_555 1_555
C54_2 C55_2 1_555 1_555
C55_2 C56_2 1_555 1_555
C56_2 H41_2 1_555 1_555
C57_2 C56_2 1_555 1_555
H42_2 C57_2 1_555 1_555
C58_2 N4_2 1_555 1_555
C59_2 C58_2 1_555 1_555
H43_2 C59_2 1_555 1_555
C60_2 C55_2 1_555 1_555
H44_2 C60_2 1_555 1_555
Zn8_2 O2_5 1_555 1_555
O21_2 Zn3_5 1_555 1_555
O22_2 Zn8_2 1_555 1_555
O23_2 Zn8_2 1_555 1_555
O24_2 Zn6_2 1_555 1_555
C69_2 O21_2 1_555 1_555
C70_2 C69_2 1_555 1_555
C71_2 C70_2 1_555 1_555
H52_2 C71_2 1_555 1_555
H54_2 C74_2 1_555 1_555
C75_2 C70_2 1_555 1_555
H55_2 C75_2 1_555 1_555
C76_2 O23_2 1_555 1_555
C77_2 C76_2 1_555 1_555
C78_2 C77_2 1_555 1_555
H56_2 C78_2 1_555 1_555
C79_2 C78_2 1_555 1_555
H57_2 C79_2 1_555 1_555
C80_2 C79_2 1_555 1_555
C81_2 C80_2 1_555 1_555
C82_2 C77_2 1_555 1_555
H59_2 C82_2 1_555 1_555
Zn12_2 O1_5 1_555 1_555
O30_2 Zn1_5 1_555 1_555
O33_2 Zn11_2 1_555 1_555
O35_2 Zn11_2 1_555 1_555
O6_2 C9_2 1_555 1_555
O8_2 Zn8_2 1_555 1_555
C14_2 C15_2 1_555 1_555
C21_2 C22_2 1_555 1_555
O16_2 C46_2 1_555 1_555
C36_2 C37_2 1_555 1_555
C42_2 C43_2 1_555 1_555
C44_2 C45_2 1_555 1_555
C51_2 C52_2 1_555 1_555
C57_2 C58_2 1_555 1_555
C59_2 C60_2 1_555 1_555
O22_2 C69_2 1_555 1_555
O24_2 C76_2 1_555 1_555
C74_2 C75_2 1_555 1_555
C81_2 C82_2 1_555 1_555
Zn12_2 O20_2 1_555 1_555
O30_2 C61_2 1_555 1_555
O20_2 C61_2 1_555 1_555
O33 C84_2 1_555 1_555
O36 C84_2 1_555 1_555
N5_2 C65_2 1_555 1_555
C61_2 C62_2 1_555 1_555
C62_2 C63_2 1_555 1_555
C63_2 H45_2 1_555 1_555
C64_2 C63_2 1_555 1_555
H46_2 C64_2 1_555 1_555
C65_2 C64_2 1_555 1_555
C66_2 C65_2 1_555 1_555
H47_2 C66_2 1_555 1_555
C67_2 C62_2 1_555 1_555
C68_2 N5_2 1_555 1_555
H49_2 C68_2 1_555 1_555
H50_2 C68_2 1_555 1_555
H51_2 C68_2 1_555 1_555
H53_2 C72_2 1_555 1_555
C73_2 N5_2 1_555 1_555
C83_2 N6_2 1_555 1_555
H60_2 C83_2 1_555 1_555
H61_2 C83_2 1_555 1_555
C84_2 C85_2 1_555 1_555
C85_2 C86_2 1_555 1_555
C86_2 H63_2 1_555 1_555
C87_2 C86_2 1_555 1_555
H64_2 C87_2 1_555 1_555
C88_2 N6_2 1_555 1_555
C89_2 C88_2 1_555 1_555
C90_2 C85_2 1_555 1_555
H66_2 C90_2 1_555 1_555
O31_2 Zn12_2 1_555 1_555
C66_2 C67_2 1_555 1_555
C72_2 C73_2 1_555 1_555
C87_2 C88_2 1_555 1_555
C89_2 C90_2 1_555 1_555
Zn1_6 O1_6 1_555 1_555
O3_3 Zn1_6 1_555 1_555
C1_3 O3_3 1_555 1_555
C2_3 C1_3 1_555 1_555
C3_3 C2_3 1_555 1_555
H1_3 C3_3 1_555 1_555
C4_3 C3_3 1_555 1_555
H2_3 C4_3 1_555 1_555
C5_3 C4_3 1_555 1_555
C6_3 C5_3 1_555 1_555
H3_3 C6_3 1_555 1_555
C7_3 C2_3 1_555 1_555
H4_3 C7_3 1_555 1_555
O35_2 C54_3 1_555 1_555
N4_3 C50_3 1_555 1_555
H35_3 C49_3 1_555 1_555
C50_3 C49_3 1_555 1_555
C53_3 N4_3 1_555 1_555
H38_3 C53_3 1_555 1_555
H39_3 C53_3 1_555 1_555
H40_3 C53_3 1_555 1_555
C54_3 C55_3 1_555 1_555
C55_3 C56_3 1_555 1_555
C56_3 H41_3 1_555 1_555
C57_3 C56_3 1_555 1_555
H42_3 C57_3 1_555 1_555
C58_3 N4_3 1_555 1_555
O29_3 Zn1_6 1_555 1_555
O30_3 Zn1_6 1_555 1_555
O4_3 C1_3 1_555 1_555
C6_3 C7_3 1_555 1_555
C57_3 C58_3 1_555 1_555
Zn3_6 O2_6 1_555 1_555
Zn4_3 O2_6 1_555 1_555
O2_6 Zn6_3 1_555 1_555
O5_3 Zn3_6 1_555 1_555
O6_3 Zn4_3 1_555 1_555
O7_3 Zn4_3 1_555 1_555
O8_3 C16_3 1_555 1_555
O31_2 C24_3 1_555 1_555
O34_2 C24_3 1_555 1_555
N2_3 C20_3 1_555 1_555
C8_3 N1_3 1_555 1_555
H5_3 C8_3 1_555 1_555
H7_3 C8_3 1_555 1_555
C9_3 O5_3 1_555 1_555
C10_3 C9_3 1_555 1_555
C11_3 C10_3 1_555 1_555
H8_3 C11_3 1_555 1_555
C12_3 C11_3 1_555 1_555
H9_3 C12_3 1_555 1_555
C13_3 N1_3 1_555 1_555
C14_3 C13_3 1_555 1_555
H10_3 C14_3 1_555 1_555
C15_3 C10_3 1_555 1_555
H11_3 C15_3 1_555 1_555
C16_3 O7_3 1_555 1_555
C17_3 C16_3 1_555 1_555
C18_3 C17_3 1_555 1_555
H12_3 C18_3 1_555 1_555
C19_3 C18_3 1_555 1_555
H13_3 C19_3 1_555 1_555
C20_3 C19_3 1_555 1_555
C21_3 C20_3 1_555 1_555
H14_3 C21_3 1_555 1_555
C22_3 C17_3 1_555 1_555
H15_3 C22_3 1_555 1_555
C23_3 N2_3 1_555 1_555
H16_3 C23_3 1_555 1_555
H17_3 C23_3 1_555 1_555
H18_3 C23_3 1_555 1_555
C24_3 C25_3 1_555 1_555
C25_3 C26_3 1_555 1_555
C26_3 H19_3 1_555 1_555
C27_3 C26_3 1_555 1_555
H20_3 C27_3 1_555 1_555
C28_3 N2_3 1_555 1_555
C29_3 C28_3 1_555 1_555
H21_3 C29_3 1_555 1_555
C30_3 C25_3 1_555 1_555
H22_3 C30_3 1_555 1_555
Zn6_3 O14_3 1_555 1_555
O13_3 Zn3_6 1_555 1_555
O14_3 C39_3 1_555 1_555
O15_3 Zn6_3 1_555 1_555
O16_3 Zn4_3 1_555 1_555
C38_3 N3_3 1_555 1_555
H27_3 C38_3 1_555 1_555
H29_3 C38_3 1_555 1_555
C39_3 O13_3 1_555 1_555
C40_3 C39_3 1_555 1_555
C41_3 C40_3 1_555 1_555
H30_3 C41_3 1_555 1_555
C42_3 C41_3 1_555 1_555
H31_3 C42_3 1_555 1_555
C43_3 N3_3 1_555 1_555
C44_3 C43_3 1_555 1_555
H32_3 C44_3 1_555 1_555
C45_3 C40_3 1_555 1_555
H33_3 C45_3 1_555 1_555
C46_3 O15_3 1_555 1_555
C47_3 C46_3 1_555 1_555
C48_3 C47_3 1_555 1_555
H34_3 C48_3 1_555 1_555
H36_3 C51_3 1_555 1_555
C52_3 C47_3 1_555 1_555
H37_3 C52_3 1_555 1_555
H43_3 C59_3 1_555 1_555
H44_3 C60_3 1_555 1_555
Zn8_3 O2_6 1_555 1_555
O30_3 C61_3 1_555 1_555
O20_3 C61_3 1_555 1_555
O21_3 Zn3_6 1_555 1_555
O22_3 Zn8_3 1_555 1_555
O23_3 Zn8_3 1_555 1_555
O24_3 Zn6_3 1_555 1_555
N5_3 C65_3 1_555 1_555
C61_3 C62_3 1_555 1_555
C62_3 C63_3 1_555 1_555
C63_3 H45_3 1_555 1_555
C64_3 C63_3 1_555 1_555
H46_3 C64_3 1_555 1_555
C65_3 C64_3 1_555 1_555
C66_3 C65_3 1_555 1_555
H47_3 C66_3 1_555 1_555
C67_3 C62_3 1_555 1_555
H48_3 C67_3 1_555 1_555
C68_3 N5_3 1_555 1_555
H49_3 C68_3 1_555 1_555
H50_3 C68_3 1_555 1_555
H51_3 C68_3 1_555 1_555
C69_3 O21_3 1_555 1_555
C70_3 C69_3 1_555 1_555
C71_3 C70_3 1_555 1_555
H52_3 C71_3 1_555 1_555
C72_3 C71_3 1_555 1_555
H53_3 C72_3 1_555 1_555
C73_3 N5_3 1_555 1_555
C74_3 C73_3 1_555 1_555
H54_3 C74_3 1_555 1_555
C75_3 C70_3 1_555 1_555
H55_3 C75_3 1_555 1_555
C76_3 O23_3 1_555 1_555
C77_3 C76_3 1_555 1_555
C78_3 C77_3 1_555 1_555
H56_3 C78_3 1_555 1_555
H58_3 C81_3 1_555 1_555
C82_3 C77_3 1_555 1_555
H59_3 C82_3 1_555 1_555
H65_3 C89_3 1_555 1_555
H66_3 C90_3 1_555 1_555
O6_3 C9_3 1_555 1_555
O8_3 Zn8_3 1_555 1_555
C12_3 C13_3 1_555 1_555
C14_3 C15_3 1_555 1_555
C21_3 C22_3 1_555 1_555
C27_3 C28_3 1_555 1_555
C29_3 C30_3 1_555 1_555
O16_3 C46_3 1_555 1_555
C42_3 C43_3 1_555 1_555
C44_3 C45_3 1_555 1_555
C51_3 C52_3 1_555 1_555
C59_3 C60_3 1_555 1_555
O22_3 C69_3 1_555 1_555
O24_3 C76_3 1_555 1_555
C66_3 C67_3 1_555 1_555
C72_3 C73_3 1_555 1_555
C74_3 C75_3 1_555 1_555
C81_3 C82_3 1_555 1_555
C89_3 C90_3 1_555 1_555
O29_3 C31_3 1_555 1_555
O12_3 C31_3 1_555 1_555
C31_3 C32_3 1_555 1_555
C32_3 C33_3 1_555 1_555
C33_3 H23_3 1_555 1_555
C34_3 C33_3 1_555 1_555
H24_3 C34_3 1_555 1_555
C35_3 C34_3 1_555 1_555
C36_3 C35_3 1_555 1_555
H25_3 C36_3 1_555 1_555
C37_3 C32_3 1_555 1_555
H26_3 C37_3 1_555 1_555
O36_2 C84_3 1_555 1_555
N6_3 C80_3 1_555 1_555
H57_3 C79_3 1_555 1_555
C80_3 C79_3 1_555 1_555
C83_3 N6_3 1_555 1_555
H60_3 C83_3 1_555 1_555
H61_3 C83_3 1_555 1_555
H62_3 C83_3 1_555 1_555
C84_3 C85_3 1_555 1_555
C85_3 C86_3 1_555 1_555
C86_3 H63_3 1_555 1_555
C87_3 C86_3 1_555 1_555
H64_3 C87_3 1_555 1_555
C88_3 N6_3 1_555 1_555
C36_3 C37_3 1_555 1_555
C87_3 C88_3 1_555 1_555
Zn1_7 O1_7 1_555 1_555
Zn2_3 O1_7 1_555 1_555
Zn3_7 O2_7 1_555 1_555
Zn4_4 O2_7 1_555 1_555
O1_7 Zn11_3 1_555 1_555
O3_4 Zn1_7 1_555 1_555
O4_4 Zn2_3 1_555 1_555
O5_4 Zn3_7 1_555 1_555
O6_4 Zn4_4 1_555 1_555
O7_4 Zn4_4 1_555 1_555
O9_2 C24_4 1_555 1_555
O10_2 C24_4 1_555 1_555
N1_4 C5_4 1_555 1_555
C1_4 O3_4 1_555 1_555
C2_4 C1_4 1_555 1_555
C3_4 C2_4 1_555 1_555
H1_4 C3_4 1_555 1_555
C4_4 C3_4 1_555 1_555
H2_4 C4_4 1_555 1_555
C5_4 C4_4 1_555 1_555
C6_4 C5_4 1_555 1_555
H3_4 C6_4 1_555 1_555
C7_4 C2_4 1_555 1_555
H4_4 C7_4 1_555 1_555
C8_4 N1_4 1_555 1_555
H5_4 C8_4 1_555 1_555
H6_4 C8_4 1_555 1_555
H7_4 C8_4 1_555 1_555
C9_4 O5_4 1_555 1_555
C10_4 C9_4 1_555 1_555
C11_4 C10_4 1_555 1_555
H8_4 C11_4 1_555 1_555
C12_4 C11_4 1_555 1_555
H9_4 C12_4 1_555 1_555
C13_4 N1_4 1_555 1_555
C14_4 C13_4 1_555 1_555
H10_4 C14_4 1_555 1_555
C15_4 C10_4 1_555 1_555
H11_4 C15_4 1_555 1_555
H14_4 C21_4 1_555 1_555
H15_4 C22_4 1_555 1_555
C24_4 C25_4 1_555 1_555
C25_4 C26_4 1_555 1_555
C26_4 H19_4 1_555 1_555
C27_4 C26_4 1_555 1_555
H21_4 C29_4 1_555 1_555
C30_4 C25_4 1_555 1_555
H22_4 C30_4 1_555 1_555
O16_4 Zn4_4 1_555 1_555
N4_4 C50_4 1_555 1_555
C47_4 C46_4 1_555 1_555
C48_4 C47_4 1_555 1_555
H34_4 C48_4 1_555 1_555
C49_4 C48_4 1_555 1_555
H35_4 C49_4 1_555 1_555
C50_4 C49_4 1_555 1_555
C53_4 N4_4 1_555 1_555
H38_4 C53_4 1_555 1_555
H39_4 C53_4 1_555 1_555
H40_4 C53_4 1_555 1_555
C58_4 N4_4 1_555 1_555
Zn12_3 O1_7 1_555 1_555
Zn14_2 O10_2 1_555 1_555
Zn18_2 O9_2 1_555 1_555
O29_4 Zn1_7 1_555 1_555
O30_4 Zn1_7 1_555 1_555
O32_3 Zn2_3 1_555 1_555
O34_3 Zn2_3 1_555 1_555
O4_4 C1_4 1_555 1_555
O6_4 C9_4 1_555 1_555
C6_4 C7_4 1_555 1_555
C12_4 C13_4 1_555 1_555
C14_4 C15_4 1_555 1_555
C21_4 C22_4 1_555 1_555
C29_4 C30_4 1_555 1_555
O16_4 C46_4 1_555 1_555
Zn3_8 O2_8 1_555 1_555
O2_8 Zn6_4 1_555 1_555
Zn6_4 O14_4 1_555 1_555
O13_4 Zn3_8 1_555 1_555
O14_4 C39_4 1_555 1_555
O15_4 Zn6_4 1_555 1_555
O17_2 C54_4 1_555 1_555
O18_2 C54_4 1_555 1_555
N3_4 C35_4 1_555 1_555
H24_4 C34_4 1_555 1_555
C35_4 C34_4 1_555 1_555
C38_4 N3_4 1_555 1_555
H27_4 C38_4 1_555 1_555
H28_4 C38_4 1_555 1_555
H29_4 C38_4 1_555 1_555
C39_4 O13_4 1_555 1_555
C40_4 C39_4 1_555 1_555
C41_4 C40_4 1_555 1_555
H30_4 C41_4 1_555 1_555
C42_4 C41_4 1_555 1_555
H31_4 C42_4 1_555 1_555
C43_4 N3_4 1_555 1_555
C44_4 C43_4 1_555 1_555
H32_4 C44_4 1_555 1_555
C45_4 C40_4 1_555 1_555
H33_4 C45_4 1_555 1_555
H36_4 C51_4 1_555 1_555
H37_4 C52_4 1_555 1_555
C54_4 C55_4 1_555 1_555
C55_4 C56_4 1_555 1_555
C56_4 H41_4 1_555 1_555
C57_4 C56_4 1_555 1_555
H43_4 C59_4 1_555 1_555
C60_4 C55_4 1_555 1_555
H44_4 C60_4 1_555 1_555
Zn14_2 O17_2 1_555 1_555
Zn16_2 O18_2 1_555 1_555
C42_4 C43_4 1_555 1_555
C44_4 C45_4 1_555 1_555
C51_4 C52_4 1_555 1_555
C59_4 C60_4 1_555 1_555
Zn3_9 O2_9 1_555 1_555
O8_4 C16_4 1_555 1_555
N2_4 C20_4 1_555 1_555
C17_4 C16_4 1_555 1_555
C18_4 C17_4 1_555 1_555
H12_4 C18_4 1_555 1_555
C19_4 C18_4 1_555 1_555
H13_4 C19_4 1_555 1_555
C20_4 C19_4 1_555 1_555
C23_4 N2_4 1_555 1_555
H16_4 C23_4 1_555 1_555
H17_4 C23_4 1_555 1_555
H18_4 C23_4 1_555 1_555
C28_4 N2_4 1_555 1_555
Zn12_3 O20_4 1_555 1_555
O30_4 C61_4 1_555 1_555
O20_4 C61_4 1_555 1_555
C61_4 C62_4 1_555 1_555
C62_4 C63_4 1_555 1_555
C63_4 H45_4 1_555 1_555
H47_4 C66_4 1_555 1_555
C67_4 C62_4 1_555 1_555
H48_4 C67_4 1_555 1_555
O31_3 Zn12_3 1_555 1_555
O36_3 Zn12_3 1_555 1_555
C66_4 C67_4 1_555 1_555
Zn3_10 O2_10 1_555 1_555
Zn11_3 O12_4 1_555 1_555
O29_4 C31_4 1_555 1_555
O12_4 C31_4 1_555 1_555
C31_4 C32_4 1_555 1_555
C32_4 C33_4 1_555 1_555
C33_4 H23_4 1_555 1_555
H25_4 C36_4 1_555 1_555
C37_4 C32_4 1_555 1_555
H26_4 C37_4 1_555 1_555
Zn8_4 O2_10 1_555 1_555
O21_4 Zn3_10 1_555 1_555
O22_4 Zn8_4 1_555 1_555
O23_4 Zn8_4 1_555 1_555
O25_2 C84_4 1_555 1_555
O26_2 C84_4 1_555 1_555
N5_4 C65_4 1_555 1_555
N6_4 C80_4 1_555 1_555
H46_4 C64_4 1_555 1_555
C65_4 C64_4 1_555 1_555
C68_4 N5_4 1_555 1_555
H49_4 C68_4 1_555 1_555
H50_4 C68_4 1_555 1_555
H51_4 C68_4 1_555 1_555
C69_4 O21_4 1_555 1_555
C70_4 C69_4 1_555 1_555
C71_4 C70_4 1_555 1_555
H52_4 C71_4 1_555 1_555
C72_4 C71_4 1_555 1_555
H53_4 C72_4 1_555 1_555
C73_4 N5_4 1_555 1_555
C74_4 C73_4 1_555 1_555
H54_4 C74_4 1_555 1_555
C75_4 C70_4 1_555 1_555
H55_4 C75_4 1_555 1_555
C76_4 O23_4 1_555 1_555
C77_4 C76_4 1_555 1_555
C78_4 C77_4 1_555 1_555
H56_4 C78_4 1_555 1_555
C79_4 C78_4 1_555 1_555
H57_4 C79_4 1_555 1_555
C80_4 C79_4 1_555 1_555
C81_4 C80_4 1_555 1_555
H58_4 C81_4 1_555 1_555
C82_4 C77_4 1_555 1_555
H59_4 C82_4 1_555 1_555
C83_4 N6_4 1_555 1_555
H60_4 C83_4 1_555 1_555
H61_4 C83_4 1_555 1_555
H62_4 C83_4 1_555 1_555
C84_4 C85_4 1_555 1_555
C85_4 C86_4 1_555 1_555
C86_4 H63_4 1_555 1_555
C87_4 C86_4 1_555 1_555
H64_4 C87_4 1_555 1_555
C88_4 N6_4 1_555 1_555
C89_4 C88_4 1_555 1_555
H65_4 C89_4 1_555 1_555
C90_4 C85_4 1_555 1_555
H66_4 C90_4 1_555 1_555
Zn16_2 O25_2 1_555 1_555
Zn18_2 O26_2 1_555 1_555
O33_3 Zn11_3 1_555 1_555
O35_3 Zn11_3 1_555 1_555
C36_4 C37_4 1_555 1_555
O22_4 C69_4 1_555 1_555
O24_4 C76_4 1_555 1_555
C72_4 C73_4 1_555 1_555
C74_4 C75_4 1_555 1_555
C81_4 C82_4 1_555 1_555
C87_4 C88_4 1_555 1_555
C89_4 C90_4 1_555 1_555
Zn1_8 O1_8 1_555 1_555
O3_5 Zn1_8 1_555 1_555
C1_5 O3_5 1_555 1_555
C2_5 C1_5 1_555 1_555
C3_5 C2_5 1_555 1_555
H1_5 C3_5 1_555 1_555
C4_5 C3_5 1_555 1_555
H2_5 C4_5 1_555 1_555
C5_5 C4_5 1_555 1_555
C6_5 C5_5 1_555 1_555
H3_5 C6_5 1_555 1_555
C7_5 C2_5 1_555 1_555
H4_5 C7_5 1_555 1_555
O18_3 C54_5 1_555 1_555
N4_5 C50_5 1_555 1_555
H35_5 C49_5 1_555 1_555
C50_5 C49_5 1_555 1_555
C53_5 N4_5 1_555 1_555
H38_5 C53_5 1_555 1_555
H39_5 C53_5 1_555 1_555
H40_5 C53_5 1_555 1_555
C54_5 C55_5 1_555 1_555
C55_5 C56_5 1_555 1_555
C56_5 H41_5 1_555 1_555
C57_5 C56_5 1_555 1_555
H42_5 C57_5 1_555 1_555
C58_5 N4_5 1_555 1_555
Zn16_3 O18_3 1_555 1_555
O29_5 Zn1_8 1_555 1_555
O30_5 Zn1_8 1_555 1_555
O4_5 C1_5 1_555 1_555
C6_5 C7_5 1_555 1_555
C57_5 C58_5 1_555 1_555
Zn3_11 O2_11 1_555 1_555
Zn4_5 O2_11 1_555 1_555
O2_11 Zn6_5 1_555 1_555
O5_5 Zn3_11 1_555 1_555
O6_5 Zn4_5 1_555 1_555
O7_5 Zn4_5 1_555 1_555
O8_5 C16_5 1_555 1_555
O9_3 C24_5 1_555 1_555
O10_3 C24_5 1_555 1_555
N2_5 C20_5 1_555 1_555
C8_5 N1_5 1_555 1_555
H5_5 C8_5 1_555 1_555
H7_5 C8_5 1_555 1_555
C9_5 O5_5 1_555 1_555
C10_5 C9_5 1_555 1_555
C11_5 C10_5 1_555 1_555
H8_5 C11_5 1_555 1_555
C12_5 C11_5 1_555 1_555
H9_5 C12_5 1_555 1_555
C13_5 N1_5 1_555 1_555
C14_5 C13_5 1_555 1_555
H10_5 C14_5 1_555 1_555
C15_5 C10_5 1_555 1_555
H11_5 C15_5 1_555 1_555
C16_5 O7_5 1_555 1_555
C17_5 C16_5 1_555 1_555
C18_5 C17_5 1_555 1_555
H12_5 C18_5 1_555 1_555
C19_5 C18_5 1_555 1_555
H13_5 C19_5 1_555 1_555
C20_5 C19_5 1_555 1_555
C21_5 C20_5 1_555 1_555
H14_5 C21_5 1_555 1_555
C22_5 C17_5 1_555 1_555
H15_5 C22_5 1_555 1_555
C23_5 N2_5 1_555 1_555
H16_5 C23_5 1_555 1_555
H17_5 C23_5 1_555 1_555
H18_5 C23_5 1_555 1_555
C24_5 C25_5 1_555 1_555
C25_5 C26_5 1_555 1_555
C26_5 H19_5 1_555 1_555
C27_5 C26_5 1_555 1_555
H20_5 C27_5 1_555 1_555
C28_5 N2_5 1_555 1_555
C29_5 C28_5 1_555 1_555
H21_5 C29_5 1_555 1_555
C30_5 C25_5 1_555 1_555
H22_5 C30_5 1_555 1_555
Zn6_5 O14_5 1_555 1_555
O13_5 Zn3_11 1_555 1_555
O14_5 C39_5 1_555 1_555
O15_5 Zn6_5 1_555 1_555
O16_5 Zn4_5 1_555 1_555
C38_5 N3_5 1_555 1_555
H27_5 C38_5 1_555 1_555
H29_5 C38_5 1_555 1_555
C39_5 O13_5 1_555 1_555
C40_5 C39_5 1_555 1_555
C41_5 C40_5 1_555 1_555
H30_5 C41_5 1_555 1_555
C42_5 C41_5 1_555 1_555
H31_5 C42_5 1_555 1_555
C43_5 N3_5 1_555 1_555
C44_5 C43_5 1_555 1_555
H32_5 C44_5 1_555 1_555
C45_5 C40_5 1_555 1_555
H33_5 C45_5 1_555 1_555
C46_5 O15_5 1_555 1_555
C47_5 C46_5 1_555 1_555
C48_5 C47_5 1_555 1_555
H34_5 C48_5 1_555 1_555
H36_5 C51_5 1_555 1_555
C52_5 C47_5 1_555 1_555
H37_5 C52_5 1_555 1_555
H43_5 C59_5 1_555 1_555
H44_5 C60_5 1_555 1_555
Zn8_5 O2_11 1_555 1_555
O30_5 C61_5 1_555 1_555
O20_5 C61_5 1_555 1_555
O21_5 Zn3_11 1_555 1_555
O22_5 Zn8_5 1_555 1_555
O23_5 Zn8_5 1_555 1_555
O24_5 Zn6_5 1_555 1_555
N5_5 C65_5 1_555 1_555
C61_5 C62_5 1_555 1_555
C62_5 C63_5 1_555 1_555
C63_5 H45_5 1_555 1_555
C64_5 C63_5 1_555 1_555
H46_5 C64_5 1_555 1_555
C65_5 C64_5 1_555 1_555
C66_5 C65_5 1_555 1_555
H47_5 C66_5 1_555 1_555
C67_5 C62_5 1_555 1_555
H48_5 C67_5 1_555 1_555
C68_5 N5_5 1_555 1_555
H49_5 C68_5 1_555 1_555
H50_5 C68_5 1_555 1_555
H51_5 C68_5 1_555 1_555
C69_5 O21_5 1_555 1_555
C70_5 C69_5 1_555 1_555
C71_5 C70_5 1_555 1_555
H52_5 C71_5 1_555 1_555
C72_5 C71_5 1_555 1_555
H53_5 C72_5 1_555 1_555
C73_5 N5_5 1_555 1_555
C74_5 C73_5 1_555 1_555
H54_5 C74_5 1_555 1_555
C75_5 C70_5 1_555 1_555
H55_5 C75_5 1_555 1_555
C76_5 O23_5 1_555 1_555
C77_5 C76_5 1_555 1_555
C78_5 C77_5 1_555 1_555
H56_5 C78_5 1_555 1_555
H58_5 C81_5 1_555 1_555
C82_5 C77_5 1_555 1_555
H59_5 C82_5 1_555 1_555
H65_5 C89_5 1_555 1_555
H66_5 C90_5 1_555 1_555
Zn14_3 O17_3 1_555 1_555
Zn16_3 O25_3 1_555 1_555
Zn18_3 O9_3 1_555 1_555
O6_5 C9_5 1_555 1_555
O8_5 Zn8_5 1_555 1_555
C12_5 C13_5 1_555 1_555
C14_5 C15_5 1_555 1_555
C21_5 C22_5 1_555 1_555
C27_5 C28_5 1_555 1_555
C29_5 C30_5 1_555 1_555
O16_5 C46_5 1_555 1_555
C42_5 C43_5 1_555 1_555
C44_5 C45_5 1_555 1_555
C51_5 C52_5 1_555 1_555
C59_5 C60_5 1_555 1_555
O22_5 C69_5 1_555 1_555
O24_5 C76_5 1_555 1_555
C66_5 C67_5 1_555 1_555
C72_5 C73_5 1_555 1_555
C74_5 C75_5 1_555 1_555
C81_5 C82_5 1_555 1_555
C89_5 C90_5 1_555 1_555
O29_5 C31_5 1_555 1_555
O12_5 C31_5 1_555 1_555
C31_5 C32_5 1_555 1_555
C32_5 C33_5 1_555 1_555
C33_5 H23_5 1_555 1_555
C34_5 C33_5 1_555 1_555
H24_5 C34_5 1_555 1_555
C35_5 C34_5 1_555 1_555
C36_5 C35_5 1_555 1_555
H25_5 C36_5 1_555 1_555
C37_5 C32_5 1_555 1_555
H26_5 C37_5 1_555 1_555
O26_3 C84_5 1_555 1_555
N6_5 C80_5 1_555 1_555
H57_5 C79_5 1_555 1_555
C80_5 C79_5 1_555 1_555
C83_5 N6_5 1_555 1_555
H60_5 C83_5 1_555 1_555
H61_5 C83_5 1_555 1_555
H62_5 C83_5 1_555 1_555
C84_5 C85_5 1_555 1_555
C85_5 C86_5 1_555 1_555
C86_5 H63_5 1_555 1_555
C87_5 C86_5 1_555 1_555
H64_5 C87_5 1_555 1_555
C88_5 N6_5 1_555 1_555
C36_5 C37_5 1_555 1_555
C87_5 C88_5 1_555 1_555
Zn1_9 O1_9 1_555 1_555
O1_9 Zn16_3 1_555 1_555
O29_6 Zn1_9 1_555 1_555
Zn1_10 O1_10 1_555 1_555
Zn1_11 O1_11 1_555 1_555
Zn14_3 O1_11 1_555 1_555
O3_6 Zn1_11 1_555 1_555
O4_6 Zn14_3 1_555 1_555
O31_3 C24_6 1_555 1_555
O34_3 C24_6 1_555 1_555
N1_6 C5_6 1_555 1_555
C1_6 O3_6 1_555 1_555
C2_6 C1_6 1_555 1_555
C3_6 C2_6 1_555 1_555
H1_6 C3_6 1_555 1_555
C4_6 C3_6 1_555 1_555
H2_6 C4_6 1_555 1_555
C5_6 C4_6 1_555 1_555
C6_6 C5_6 1_555 1_555
H3_6 C6_6 1_555 1_555
C7_6 C2_6 1_555 1_555
C8_6 N1_6 1_555 1_555
H5_6 C8_6 1_555 1_555
H6_6 C8_6 1_555 1_555
H7_6 C8_6 1_555 1_555
H9_6 C12_6 1_555 1_555
C13_6 N1_6 1_555 1_555
C23_6 N2_6 1_555 1_555
H16_6 C23_6 1_555 1_555
H17_6 C23_6 1_555 1_555
C24_6 C25_6 1_555 1_555
C25_6 C26_6 1_555 1_555
C26_6 H19_6 1_555 1_555
C27_6 C26_6 1_555 1_555
H20_6 C27_6 1_555 1_555
C28_6 N2_6 1_555 1_555
C29_6 C28_6 1_555 1_555
C30_6 C25_6 1_555 1_555
H22_6 C30_6 1_555 1_555
O4_6 C1_6 1_555 1_555
C6_6 C7_6 1_555 1_555
C12_6 C13_6 1_555 1_555
C27_6 C28_6 1_555 1_555
C29_6 C30_6 1_555 1_555
Zn1_12 O1_12 1_555 1_555
Zn3_12 O2_12 1_555 1_555
Zn4_6 O2_12 1_555 1_555
O2_12 Zn6_6 1_555 1_555
O5_6 Zn3_12 1_555 1_555
O6_6 Zn4_6 1_555 1_555
O7_6 Zn4_6 1_555 1_555
O8_6 C16_6 1_555 1_555
C9_6 O5_6 1_555 1_555
C10_6 C9_6 1_555 1_555
C11_6 C10_6 1_555 1_555
H8_6 C11_6 1_555 1_555
H10_6 C14_6 1_555 1_555
C15_6 C10_6 1_555 1_555
H11_6 C15_6 1_555 1_555
C16_6 O7_6 1_555 1_555
C17_6 C16_6 1_555 1_555
C18_6 C17_6 1_555 1_555
H12_6 C18_6 1_555 1_555
C19_6 C18_6 1_555 1_555
H13_6 C19_6 1_555 1_555
C20_6 C19_6 1_555 1_555
C21_6 C20_6 1_555 1_555
C22_6 C17_6 1_555 1_555
H15_6 C22_6 1_555 1_555
Zn16_3 O12_6 1_555 1_555
Zn6_6 O14_6 1_555 1_555
O29_6 C31_6 1_555 1_555
O12_6 C31_6 1_555 1_555
O13_6 Zn3_12 1_555 1_555
O14_6 C39_6 1_555 1_555
O15_6 Zn6_6 1_555 1_555
O16_6 Zn4_6 1_555 1_555
O32_3 C54_6 1_555 1_555
O35_3 C54_6 1_555 1_555
N3_6 C35_6 1_555 1_555
N4_6 C50_6 1_555 1_555
C31_6 C32_6 1_555 1_555
C32_6 C33_6 1_555 1_555
C33_6 H23_6 1_555 1_555
C34_6 C33_6 1_555 1_555
H24_6 C34_6 1_555 1_555
C35_6 C34_6 1_555 1_555
C36_6 C35_6 1_555 1_555
H25_6 C36_6 1_555 1_555
C37_6 C32_6 1_555 1_555
H26_6 C37_6 1_555 1_555
C38_6 N3_6 1_555 1_555
H27_6 C38_6 1_555 1_555
H28_6 C38_6 1_555 1_555
H29_6 C38_6 1_555 1_555
C39_6 O13_6 1_555 1_555
C40_6 C39_6 1_555 1_555
C41_6 C40_6 1_555 1_555
H30_6 C41_6 1_555 1_555
C42_6 C41_6 1_555 1_555
H31_6 C42_6 1_555 1_555
C43_6 N3_6 1_555 1_555
C44_6 C43_6 1_555 1_555
H32_6 C44_6 1_555 1_555
C45_6 C40_6 1_555 1_555
H33_6 C45_6 1_555 1_555
C46_6 O15_6 1_555 1_555
C47_6 C46_6 1_555 1_555
C48_6 C47_6 1_555 1_555
H34_6 C48_6 1_555 1_555
C49_6 C48_6 1_555 1_555
H35_6 C49_6 1_555 1_555
C50_6 C49_6 1_555 1_555
C51_6 C50_6 1_555 1_555
H36_6 C51_6 1_555 1_555
C52_6 C47_6 1_555 1_555
H37_6 C52_6 1_555 1_555
C53_6 N4_6 1_555 1_555
H38_6 C53_6 1_555 1_555
H39_6 C53_6 1_555 1_555
H40_6 C53_6 1_555 1_555
C54_6 C55_6 1_555 1_555
C55_6 C56_6 1_555 1_555
C56_6 H41_6 1_555 1_555
C57_6 C56_6 1_555 1_555
H42_6 C57_6 1_555 1_555
C58_6 N4_6 1_555 1_555
C59_6 C58_6 1_555 1_555
H43_6 C59_6 1_555 1_555
C60_6 C55_6 1_555 1_555
H44_6 C60_6 1_555 1_555
Zn8_6 O2_12 1_555 1_555
O21_6 Zn3_12 1_555 1_555
O22_6 Zn8_6 1_555 1_555
O23_6 Zn8_6 1_555 1_555
O24_6 Zn6_6 1_555 1_555
C69_6 O21_6 1_555 1_555
C70_6 C69_6 1_555 1_555
C71_6 C70_6 1_555 1_555
H52_6 C71_6 1_555 1_555
H54_6 C74_6 1_555 1_555
C75_6 C70_6 1_555 1_555
H55_6 C75_6 1_555 1_555
C76_6 O23_6 1_555 1_555
C77_6 C76_6 1_555 1_555
C78_6 C77_6 1_555 1_555
H56_6 C78_6 1_555 1_555
C79_6 C78_6 1_555 1_555
H57_6 C79_6 1_555 1_555
C80_6 C79_6 1_555 1_555
C81_6 C80_6 1_555 1_555
C82_6 C77_6 1_555 1_555
H59_6 C82_6 1_555 1_555
Zn18_3 O1_12 1_555 1_555
O30_6 Zn1_12 1_555 1_555
O6_6 C9_6 1_555 1_555
O8_6 Zn8_6 1_555 1_555
C14_6 C15_6 1_555 1_555
C21_6 C22_6 1_555 1_555
O16_6 C46_6 1_555 1_555
C36_6 C37_6 1_555 1_555
C42_6 C43_6 1_555 1_555
C44_6 C45_6 1_555 1_555
C51_6 C52_6 1_555 1_555
C57_6 C58_6 1_555 1_555
C59_6 C60_6 1_555 1_555
O22_6 C69_6 1_555 1_555
O24_6 C76_6 1_555 1_555
C74_6 C75_6 1_555 1_555
C81_6 C82_6 1_555 1_555
Zn18_3 O20_6 1_555 1_555
O30_6 C61_6 1_555 1_555
O20_6 C61_6 1_555 1_555
O33_3 C84_6 1_555 1_555
O36_3 C84_6 1_555 1_555
N5_6 C65_6 1_555 1_555
C61_6 C62_6 1_555 1_555
C62_6 C63_6 1_555 1_555
C63_6 H45_6 1_555 1_555
C64_6 C63_6 1_555 1_555
H46_6 C64_6 1_555 1_555
C65_6 C64_6 1_555 1_555
C66_6 C65_6 1_555 1_555
H47_6 C66_6 1_555 1_555
C67_6 C62_6 1_555 1_555
C68_6 N5_6 1_555 1_555
H49_6 C68_6 1_555 1_555
H50_6 C68_6 1_555 1_555
H51_6 C68_6 1_555 1_555
H53_6 C72_6 1_555 1_555
C73_6 N5_6 1_555 1_555
C83_6 N6_6 1_555 1_555
H60_6 C83_6 1_555 1_555
H61_6 C83_6 1_555 1_555
C84_6 C85_6 1_555 1_555
C85_6 C86_6 1_555 1_555
C86_6 H63_6 1_555 1_555
C87_6 C86_6 1_555 1_555
H64_6 C87_6 1_555 1_555
C88_6 N6_6 1_555 1_555
C89_6 C88_6 1_555 1_555
C90_6 C85_6 1_555 1_555
H66_6 C90_6 1_555 1_555
C66_6 C67_6 1_555 1_555
C72_6 C73_6 1_555 1_555
C87_6 C88_6 1_555 1_555
C89_6 C90_6 1_555 1_555

#END
