
###############################################################################
#
# This file contains modified crystal structure data generated from the
# MOF subset of the Cambridge Structural Database (CSD) v543 
# hosted by the Cambridge Crystallographic Data Centre (CCDC).
#
# This work is licensed under the Creative Commons
# Attribution-NonCommercial-ShareAlike 4.0 International License.
# To view a copy of this license, visit
# http://creativecommons.org/licenses/by-nc-sa/4.0/
# or send a letter to
# Creative Commons, PO Box 1866, Mountain View, CA 94042, USA.
#
# CIF created using the CSD Python API on 29 September 2022
# The structure has been converted into the P1 space group
# The structure has a 3D framework
# The original CSD entry JUJMUY is in the rhombohedral crystal system
# The framework has been calculated to contain at least 10.0% void space
# The void calculation uses a probe of radius 1.32A, grid spacing 0.4
#
###############################################################################

data_JUJMUY
_chemical_formula_moiety         '(C540 H396 N36 O160 Zn60)n'
_symmetry_cell_setting           triclinic
_symmetry_space_group_name_H-M   'P 1'
_symmetry_Int_Tables_number      1
_space_group_name_Hall           'P 1'
loop_
_symmetry_equiv_pos_site_id
_symmetry_equiv_pos_as_xyz
1 x,y,z
_cell_length_a                   18.653(3)
_cell_length_b                   18.653(3)
_cell_length_c                   65.066(13)
_cell_angle_alpha                90
_cell_angle_beta                 90
_cell_angle_gamma                120
_cell_volume                     19605.7
loop_
_atom_site_label
_atom_site_type_symbol
_atom_site_fract_x
_atom_site_fract_y
_atom_site_fract_z
Zn10 Zn 0.026280(14) 0.108600(19) 0.094332(3)
Zn1 Zn 0.3333 0.6667 0.221467(6)
Zn2 Zn 0.359613(14) 0.584346(13) 0.260999(3)
N1 N 0.44921(12) 0.34215(13) 0.16590(3)
O1 O 0.3333 0.6667 0.25120(4)
O2 O 0.38177(11) 0.60353(11) 0.21113(3)
O3 O 0.39276(10) 0.53742(10) 0.23881(2)
O4 O 0.11436(10) 0.14577(10) 0.11469(2)
O5 O 0.17474(9) 0.07053(9) 0.10678(2)
C1 C 0.39688(13) 0.55177(13) 0.21969(3)
C2 C 0.41899(13) 0.50201(13) 0.20592(3)
C3 C 0.42992(14) 0.43887(14) 0.21389(3)
H1 H 0.4294 0.4312 0.2283
C4 C 0.44161(13) 0.38704(14) 0.20068(3)
H2 H 0.4482 0.3434 0.2061
C5 C 0.44362(13) 0.39874(14) 0.17961(3)
C6 C 0.43818(16) 0.46555(15) 0.17165(4)
H3 H 0.4432 0.4758 0.1573
C7 C 0.42543(14) 0.51671(14) 0.18477(4)
H4 H 0.4211 0.5617 0.1794
C8 C 0.51629(16) 0.32450(18) 0.16905(4)
H5 H 0.4936 0.2681 0.1743
H6 H 0.5559 0.3640 0.1790
H7 H 0.5444 0.3296 0.1559
C9 C 0.17376(13) 0.13101(13) 0.11566(3)
C10 C 0.24618(13) 0.18732(13) 0.12830(3)
C11 C 0.24432(14) 0.24733(14) 0.14058(3)
H8 H 0.1968 0.2536 0.1404
C12 C 0.31016(14) 0.29789(15) 0.15304(4)
H9 H 0.3067 0.3374 0.1616
C13 C 0.38252(14) 0.29195(14) 0.15337(3)
C14 C 0.38463(14) 0.23218(15) 0.14069(4)
H10 H 0.4327 0.2269 0.1405
C15 C 0.31781(13) 0.18093(13) 0.12851(4)
H11 H 0.3205 0.1406 0.1201
Zn3 Zn 0.415654(13) 0.775267(19) 0.260999(3)
O6 O 0.39647(11) 0.77824(16) 0.21113(3)
O7 O 0.46258(10) 0.85534(14) 0.23881(2)
O8 O 0.85423(10) 0.96859(14) 0.11469(2)
C16 C 0.44823(13) 0.84511(18) 0.21969(3)
C17 C 0.49799(13) 0.91698(18) 0.20592(3)
C18 C 0.56113(14) 0.99105(20) 0.21389(3)
H12 H 0.5688 0.9982 0.2283
C21 C 0.53445(15) 0.97263(22) 0.17165(4)
H14 H 0.5242 0.9674 0.1573
C22 C 0.48329(14) 0.90872(20) 0.18477(4)
H15 H 0.4383 0.8594 0.1794
C26 C 0.75267(14) 0.99699(20) 0.14058(3)
H19 H 0.7464 0.9432 0.1404
H20 H 0.6626 0.9693 0.1616
Zn4 Zn 0.224733(19) 0.640387(14) 0.260999(3)
O10 O 0.22176(16) 0.61823(11) 0.21113(3)
O11 O 0.14466(14) 0.60724(10) 0.23881(2)
O12 O 0.03141(14) 0.88564(10) 0.11469(2)
C31 C 0.15489(18) 0.60312(13) 0.21969(3)
C32 C 0.08302(18) 0.58101(13) 0.20592(3)
C33 C 0.00895(20) 0.57008(14) 0.21389(3)
H23 H 0.0018 0.5706 0.2283
C36 C 0.02737(22) 0.56182(16) 0.17165(4)
H25 H 0.0326 0.5568 0.1573
C37 C 0.09128(20) 0.57457(14) 0.18477(4)
H26 H 0.1406 0.5789 0.1794
C41 C 0.00301(20) 0.75568(14) 0.14058(3)
H30 H 0.0568 0.8032 0.1404
H31 H 0.0307 0.6933 0.1616
Zn6 Zn 0.082321(13) 0.973720(14) 0.094332(3)
Zn8 Zn 0.891400(19) 0.917679(13) 0.094332(3)
O14 O 0.18756(10) 0.55231(10) 0.28136(2)
O15 O 0.36474(14) 0.81244(10) 0.28136(2)
O16 O 0.44769(10) 0.63526(14) 0.28136(2)
O17 O 0.26280(9) 0.49193(9) 0.27345(2)
O18 O 0.22912(13) 0.73720(9) 0.27345(2)
O19 O 0.50807(9) 0.77088(13) 0.27345(2)
N3 N 0.89294(18) 0.55079(12) 0.16590(3)
O13 O 0.89579(13) 0.82526(9) 0.10678(2)
C34 C 0.94543(19) 0.55839(13) 0.20068(3)
H24 H 0.8952 0.5518 0.2061
C35 C 0.95512(19) 0.55638(13) 0.17961(3)
C38 C 0.80821(24) 0.48371(16) 0.16905(4)
H27 H 0.7745 0.5064 0.1743
H28 H 0.8081 0.4441 0.1790
H29 H 0.7852 0.4556 0.1559
C39 C 0.95725(18) 0.82624(13) 0.11566(3)
C40 C 0.94114(18) 0.75382(13) 0.12830(3)
C42 C 0.98773(21) 0.68984(14) 0.15304(4)
C43 C 0.90943(20) 0.61748(14) 0.15337(3)
C44 C 0.84755(21) 0.61537(14) 0.14069(4)
H32 H 0.7942 0.5673 0.1405
C45 C 0.86312(18) 0.68219(13) 0.12851(4)
H33 H 0.8201 0.6795 0.1201
Zn1_2 Zn -0.0000 0.0000 0.554800(6)
O1_2 O -0.0000 0.0000 0.58453(4)
Zn3_2 Zn 0.082321(13) 0.108600(19) 0.594332(3)
N2 N 0.32452(13) 0.44039(18) 0.49923(3)
O6_2 O 0.06314(11) 0.11157(16) 0.54446(3)
O7_2 O 0.12925(10) 0.18867(14) 0.57214(2)
O8_2 O 0.52090(10) 0.30192(14) 0.44802(2)
O9 O 0.59614(9) 0.43754(13) 0.44011(2)
C16_2 C 0.11490(13) 0.17844(18) 0.55302(3)
C17_2 C 0.16466(13) 0.25031(18) 0.53925(3)
C18_2 C 0.22780(14) 0.32438(20) 0.54722(3)
H12_2 H 0.2355 0.3315 0.5616
C19 C 0.27963(14) 0.38790(19) 0.53401(3)
H13 H 0.3233 0.4381 0.5394
C20 C 0.26793(14) 0.37821(19) 0.51294(3)
C21_2 C 0.20112(15) 0.30596(22) 0.50498(4)
H14_2 H 0.1909 0.3007 0.4906
C22_2 C 0.14996(14) 0.24205(20) 0.51810(4)
H15_2 H 0.1050 0.1927 0.5127
C23 C 0.34217(18) 0.52512(24) 0.50238(4)
H16 H 0.3986 0.5588 0.5076
H17 H 0.3027 0.5252 0.5123
H18 H 0.3371 0.5481 0.4892
C24 C 0.53566(13) 0.37608(18) 0.44899(3)
C25 C 0.47935(13) 0.39219(18) 0.46163(3)
C26_2 C 0.41934(14) 0.33032(20) 0.47391(3)
H19_2 H 0.4131 0.2765 0.4737
C27 C 0.36878(15) 0.34560(21) 0.48637(4)
H20_2 H 0.3293 0.3026 0.4949
C28 C 0.37472(14) 0.42390(20) 0.48670(3)
C29 C 0.43449(15) 0.48578(21) 0.47402(4)
H21 H 0.4398 0.5391 0.4738
C30 C 0.48574(13) 0.47021(18) 0.46184(4)
H22 H 0.5261 0.5132 0.4534
Zn8_2 Zn 0.558066(19) 0.251013(13) 0.427666(3)
Zn10_2 Zn 0.692946(14) 0.441934(19) 0.427666(3)
O15_2 O 0.03141(14) 0.14577(10) 0.61469(2)
O19_2 O 0.17474(9) 0.10421(13) 0.60678(2)
Zn1_3 Zn -0.0000 1.0000 0.554800(6)
Zn2_2 Zn 0.026280(14) 0.917679(13) 0.594332(3)
N1_2 N 0.11588(12) 0.67548(13) 0.49923(3)
O1_3 O -0.0000 1.0000 0.58453(4)
O2_2 O 0.04844(11) 0.93686(11) 0.54446(3)
O3_2 O 0.05943(10) 0.87075(10) 0.57214(2)
C1_2 C 0.06355(13) 0.88510(13) 0.55302(3)
C2_2 C 0.08566(13) 0.83534(13) 0.53925(3)
C3_2 C 0.09659(14) 0.77220(14) 0.54722(3)
H1_2 H 0.0961 0.7645 0.5616
C4_2 C 0.10828(13) 0.72037(14) 0.53401(3)
H2_2 H 0.1149 0.6767 0.5394
C5_2 C 0.11029(13) 0.73207(14) 0.51294(3)
C6_2 C 0.10485(16) 0.79888(15) 0.50498(4)
H3_2 H 0.1099 0.8091 0.4906
C7_2 C 0.09210(14) 0.85004(14) 0.51810(4)
H4_2 H 0.0878 0.8950 0.5127
C8_2 C 0.18296(16) 0.65783(18) 0.50238(4)
H5_2 H 0.1603 0.6014 0.5076
H6_2 H 0.2226 0.6973 0.5123
H7_2 H 0.2111 0.6629 0.4892
C13_2 C 0.04919(14) 0.62528(14) 0.48670(3)
C14_2 C 0.05130(14) 0.56551(15) 0.47402(4)
H10_2 H 0.0994 0.5602 0.4738
O16_2 O 0.11436(10) 0.96859(14) 0.61469(2)
Zn1_4 Zn 1.0000 0.0000 0.554800(6)
O1_4 O 1.0000 0.0000 0.58453(4)
O12_2 O 0.69808(14) 0.21897(10) 0.44802(2)
O13_2 O 0.56246(13) 0.15859(9) 0.44011(2)
C39_2 C 0.62392(18) 0.15957(13) 0.44899(3)
C40_2 C 0.60781(18) 0.08715(13) 0.46163(3)
C41_2 C 0.66968(20) 0.08901(14) 0.47391(3)
H30_2 H 0.7235 0.1365 0.4737
C42_2 C 0.65440(21) 0.02317(14) 0.48637(4)
H31_2 H 0.6974 0.0266 0.4949
C45_2 C 0.52979(18) 0.01552(13) 0.46184(4)
H33_2 H 0.4868 0.0128 0.4534
Zn6_2 Zn 0.748987(13) 0.307054(14) 0.427666(3)
O18_2 O 0.89579(13) 0.07053(9) 0.60678(2)
Zn1_5 Zn 1.0000 1.0000 0.554800(6)
O1_5 O 1.0000 1.0000 0.58453(4)
O4_2 O 0.78103(10) 0.47910(10) 0.44802(2)
O5_2 O 0.84141(9) 0.40386(9) 0.44011(2)
C9_2 C 0.84043(13) 0.46434(13) 0.44899(3)
C10_2 C 0.91285(13) 0.52065(13) 0.46163(3)
C11_2 C 0.91099(14) 0.58066(14) 0.47391(3)
H8_2 H 0.8635 0.5869 0.4737
C12_2 C 0.97683(14) 0.63122(15) 0.48637(4)
H9_2 H 0.9734 0.6707 0.4949
C15_2 C 0.98448(13) 0.51426(13) 0.46184(4)
H11_2 H 0.9872 0.4739 0.4534
Zn4_2 Zn 0.891400(19) 0.973720(14) 0.594332(3)
N3_2 N 0.55961(18) 0.88412(12) 0.49923(3)
O10_2 O 0.88843(16) 0.95156(11) 0.54446(3)
O11_2 O 0.81133(14) 0.94057(10) 0.57214(2)
C31_2 C 0.82156(18) 0.93645(13) 0.55302(3)
C32_2 C 0.74969(18) 0.91434(13) 0.53925(3)
C33_2 C 0.67562(20) 0.90341(14) 0.54722(3)
H23_2 H 0.6685 0.9039 0.5616
C34_2 C 0.61210(19) 0.89172(13) 0.53401(3)
H24_2 H 0.5619 0.8851 0.5394
C35_2 C 0.62179(19) 0.88971(13) 0.51294(3)
C36_2 C 0.69404(22) 0.89515(16) 0.50498(4)
H25_2 H 0.6993 0.8901 0.4906
C37_2 C 0.75795(20) 0.90790(14) 0.51810(4)
H26_2 H 0.8073 0.9122 0.5127
C38_2 C 0.47488(24) 0.81704(16) 0.50238(4)
H27_2 H 0.4412 0.8397 0.5076
H28_2 H 0.4748 0.7774 0.5123
H29_2 H 0.4519 0.7889 0.4892
C43_2 C 0.57610(20) 0.95081(14) 0.48670(3)
C44_2 C 0.51422(21) 0.94870(14) 0.47402(4)
H32_2 H 0.4609 0.9006 0.4738
O14_2 O 0.85423(10) 0.88564(10) 0.61469(2)
O17_2 O 0.92947(9) 0.82526(9) 0.60678(2)
O8_3 O 0.18756(10) 0.63526(14) 0.78136(2)
O9_2 O 0.26280(9) 0.77088(13) 0.77345(2)
C23_2 C 0.00883(18) 0.85846(24) 0.83572(4)
H16_2 H 0.0652 0.8922 0.8410
H18_2 H 0.0037 0.8815 0.8226
C24_2 C 0.20232(13) 0.70942(18) 0.78233(3)
C25_2 C 0.14601(13) 0.72553(18) 0.79497(3)
C26_3 C 0.08600(14) 0.66366(20) 0.80725(3)
H19_3 H 0.0797 0.6099 0.8071
C27_2 C 0.03544(15) 0.67894(21) 0.81971(4)
C28_2 C 0.04138(14) 0.75724(20) 0.82004(3)
C29_2 C 0.10115(15) 0.81912(21) 0.80736(4)
H21_2 H 0.1064 0.8725 0.8072
C30_2 C 0.15240(13) 0.80355(18) 0.79518(4)
H22_2 H 0.1927 0.8466 0.7868
Zn8_3 Zn 0.224733(19) 0.584346(13) 0.760999(3)
Zn10_3 Zn 0.359613(14) 0.775267(19) 0.760999(3)
Zn1_6 Zn 0.6666 0.3334 0.888134(6)
Zn2_3 Zn 0.692946(14) 0.251013(13) 0.927666(3)
N1_3 N 0.78254(12) 0.00882(13) 0.83257(3)
O1_6 O 0.6666 0.3334 0.91787(4)
O2_3 O 0.71510(11) 0.27020(11) 0.87780(3)
O3_3 O 0.72609(10) 0.20409(10) 0.90548(2)
C1_3 C 0.73021(13) 0.21844(13) 0.88636(3)
C2_3 C 0.75232(13) 0.16868(13) 0.87259(3)
C3_3 C 0.76325(14) 0.10554(14) 0.88056(3)
H1_3 H 0.7627 0.0979 0.8950
C4_3 C 0.77494(13) 0.05371(14) 0.86735(3)
H2_3 H 0.7815 0.0101 0.8728
C5_3 C 0.77695(13) 0.06541(14) 0.84628(3)
C6_3 C 0.77151(16) 0.13222(15) 0.83832(4)
H3_3 H 0.7765 0.1425 0.8240
C7_3 C 0.75876(14) 0.18338(14) 0.85144(4)
H4_3 H 0.7544 0.2284 0.8461
H6_3 H 0.8892 0.0307 0.8457
H9_3 H 0.6400 0.0041 0.8283
Zn3_3 Zn 0.748987(13) 0.441934(19) 0.927666(3)
N2_2 N 0.99118(13) 0.77373(18) 0.83257(3)
O6_3 O 0.72980(11) 0.44491(16) 0.87780(3)
O7_3 O 0.79591(10) 0.52201(14) 0.90548(2)
C16_3 C 0.78156(13) 0.51178(18) 0.88636(3)
C17_3 C 0.83132(13) 0.58365(18) 0.87259(3)
C18_3 C 0.89446(14) 0.65772(20) 0.88056(3)
H12_3 H 0.9021 0.6649 0.8950
C19_2 C 0.94629(14) 0.72124(19) 0.86735(3)
H13_2 H 0.9899 0.7715 0.8728
C20_2 C 0.93459(14) 0.71155(19) 0.84628(3)
C21_3 C 0.86778(15) 0.63930(22) 0.83832(4)
H14_3 H 0.8575 0.6341 0.8240
C22_3 C 0.81662(14) 0.57539(20) 0.85144(4)
H15_3 H 0.7716 0.5261 0.8461
H17_2 H 0.9693 0.8586 0.8457
H20_3 H 0.9959 0.6360 0.8283
Zn4_3 Zn 0.558066(19) 0.307054(14) 0.927666(3)
N3_3 N 0.22627(18) 0.21746(12) 0.83257(3)
O10_3 O 0.55509(16) 0.28490(11) 0.87780(3)
O11_3 O 0.47799(14) 0.27391(10) 0.90548(2)
O12_3 O 0.36474(14) 0.55231(10) 0.78136(2)
O13_3 O 0.22912(13) 0.49193(9) 0.77345(2)
C31_3 C 0.48822(18) 0.26979(13) 0.88636(3)
C32_3 C 0.41635(18) 0.24768(13) 0.87259(3)
C33_3 C 0.34228(20) 0.23675(14) 0.88056(3)
H23_3 H 0.3351 0.2373 0.8950
C34_3 C 0.27876(19) 0.22506(13) 0.86735(3)
H24_3 H 0.2285 0.2185 0.8728
C35_3 C 0.28845(19) 0.22305(13) 0.84628(3)
C36_3 C 0.36070(22) 0.22849(16) 0.83832(4)
H25_3 H 0.3659 0.2235 0.8240
C37_3 C 0.42461(20) 0.24124(14) 0.85144(4)
H26_3 H 0.4739 0.2456 0.8461
C38_3 C 0.14154(24) 0.15038(16) 0.83572(4)
H27_3 H 0.1078 0.1731 0.8410
H28_3 H 0.1414 0.1108 0.8457
H29_3 H 0.1185 0.1223 0.8226
C39_3 C 0.29058(18) 0.49291(13) 0.78233(3)
C40_3 C 0.27447(18) 0.42049(13) 0.79497(3)
C41_3 C 0.33634(20) 0.42235(14) 0.80725(3)
H30_3 H 0.3901 0.4699 0.8071
C42_3 C 0.32106(21) 0.35651(14) 0.81971(4)
H31_3 H 0.3640 0.3600 0.8283
C43_3 C 0.24276(20) 0.28415(14) 0.82004(3)
C44_3 C 0.18088(21) 0.28204(14) 0.80736(4)
H32_3 H 0.1275 0.2340 0.8072
C45_3 C 0.19645(18) 0.34886(13) 0.79518(4)
H33_3 H 0.1534 0.3462 0.7868
Zn6_3 Zn 0.415654(13) 0.640387(14) 0.760999(3)
O14_3 O 0.52090(10) 0.21897(10) 0.94802(2)
O15_3 O 0.69808(14) 0.47910(10) 0.94802(2)
O16_3 O 0.78103(10) 0.30192(14) 0.94802(2)
O17_3 O 0.59614(9) 0.15859(9) 0.94011(2)
O18_3 O 0.56246(13) 0.40386(9) 0.94011(2)
O19_3 O 0.84141(9) 0.43754(13) 0.94011(2)
O4_3 O 0.44769(10) 0.81244(10) 0.78136(2)
O5_3 O 0.50807(9) 0.73720(9) 0.77345(2)
C8_3 C 0.84962(16) 0.99117(18) 0.83572(4)
H5_3 H 0.8269 0.9348 0.8410
H7_3 H 0.8777 0.9963 0.8226
C9_3 C 0.50709(13) 0.79768(13) 0.78233(3)
C10_3 C 0.57951(13) 0.85399(13) 0.79497(3)
C11_3 C 0.57765(14) 0.91400(14) 0.80725(3)
H8_3 H 0.5301 0.9203 0.8071
C12_3 C 0.64349(14) 0.96456(15) 0.81971(4)
C13_3 C 0.71585(14) 0.95862(14) 0.82004(3)
C14_3 C 0.71796(14) 0.89885(15) 0.80736(4)
H10_3 H 0.7660 0.8936 0.8072
C15_3 C 0.65114(13) 0.84760(13) 0.79518(4)
H11_3 H 0.6538 0.8073 0.7868
N3_4 N 0.44921(12) 0.10706(18) 0.66590(3)
C34_4 C 0.44161(13) 0.05457(19) 0.70068(3)
H24_4 H 0.4482 0.1048 0.7061
C35_4 C 0.44362(13) 0.04488(19) 0.67961(3)
C38_4 C 0.51629(16) 0.19179(24) 0.66905(4)
H27_4 H 0.4936 0.2255 0.6743
H28_4 H 0.5559 0.1919 0.6790
H29_4 H 0.5444 0.2148 0.6559
C39_4 C 0.17376(13) 0.04275(18) 0.61566(3)
C40_4 C 0.24618(13) 0.05886(18) 0.62830(3)
C42_4 C 0.31016(14) 0.01227(21) 0.65304(4)
C43_4 C 0.38252(14) 0.09057(20) 0.65337(3)
C44_4 C 0.38463(14) 0.15245(21) 0.64069(4)
H32_4 H 0.4327 0.2058 0.6405
C45_4 C 0.31781(13) 0.13688(18) 0.62851(4)
H33_4 H 0.3205 0.1799 0.6201
Zn1_7 Zn 0.3333 0.6667 0.721467(6)
N1_4 N 0.65785(13) 0.55079(12) 0.66590(3)
O1_7 O 0.3333 0.6667 0.75120(4)
O2_4 O 0.39647(11) 0.61823(11) 0.71113(3)
O3_4 O 0.46258(10) 0.60724(10) 0.73881(2)
C1_4 C 0.44823(13) 0.60312(13) 0.71969(3)
C2_4 C 0.49799(13) 0.58101(13) 0.70592(3)
C3_4 C 0.56113(14) 0.57008(14) 0.71389(3)
H1_4 H 0.5688 0.5706 0.7283
C4_4 C 0.61296(14) 0.55839(13) 0.70068(3)
H2_4 H 0.6566 0.5518 0.7061
C5_4 C 0.60126(14) 0.55638(13) 0.67961(3)
C6_4 C 0.53445(15) 0.56182(16) 0.67165(4)
H3_4 H 0.5242 0.5568 0.6573
C7_4 C 0.48329(14) 0.57457(14) 0.68477(4)
H4_4 H 0.4383 0.5789 0.6794
C8_4 C 0.67550(18) 0.48371(16) 0.66905(4)
H5_4 H 0.7319 0.5064 0.6743
H6_4 H 0.6360 0.4441 0.6790
H7_4 H 0.6704 0.4556 0.6559
C9_4 C 0.86899(13) 0.82624(13) 0.61566(3)
C10_4 C 0.81268(13) 0.75382(13) 0.62830(3)
C11_4 C 0.75267(14) 0.75568(14) 0.64058(3)
H8_4 H 0.7464 0.8032 0.6404
C12_4 C 0.70211(15) 0.68984(14) 0.65304(4)
H9_4 H 0.6626 0.6933 0.6616
C13_4 C 0.70805(14) 0.61748(14) 0.65337(3)
C14_4 C 0.76782(15) 0.61537(14) 0.64069(4)
H10_4 H 0.7731 0.5673 0.6405
C15_4 C 0.81907(13) 0.68219(13) 0.62851(4)
H11_4 H 0.8594 0.6795 0.6201
O6_4 O 0.22176(16) 0.60353(11) 0.71113(3)
O7_4 O 0.14466(14) 0.53742(10) 0.73881(2)
C16_4 C 0.15489(18) 0.55177(13) 0.71969(3)
C17_4 C 0.08302(18) 0.50201(13) 0.70592(3)
C18_4 C 0.00895(20) 0.43887(14) 0.71389(3)
H12_4 H 0.0018 0.4312 0.7283
C21_4 C 0.02737(22) 0.46555(15) 0.67165(4)
H14_4 H 0.0326 0.4758 0.6573
C22_4 C 0.09128(20) 0.51671(14) 0.68477(4)
H15_4 H 0.1406 0.5617 0.6794
C26_4 C 0.00301(20) 0.24733(14) 0.64058(3)
H19_4 H 0.0568 0.2536 0.6404
H20_4 H 0.0307 0.3374 0.6616
O10_4 O 0.38177(11) 0.77824(16) 0.71113(3)
O11_4 O 0.39276(10) 0.85534(14) 0.73881(2)
C31_4 C 0.39688(13) 0.84511(18) 0.71969(3)
C32_4 C 0.41899(13) 0.91698(18) 0.70592(3)
C33_4 C 0.42992(14) 0.99105(20) 0.71389(3)
H23_4 H 0.4294 0.9982 0.7283
C36_4 C 0.43818(16) 0.97263(22) 0.67165(4)
H25_4 H 0.4432 0.9674 0.6573
C37_4 C 0.42543(14) 0.90872(20) 0.68477(4)
H26_4 H 0.4211 0.8594 0.6794
C41_4 C 0.24432(14) 0.99699(20) 0.64058(3)
H30_4 H 0.1968 0.9432 0.6404
H31_4 H 0.3067 0.9693 0.6616
N2_3 N 0.89294(18) 0.34215(13) 0.66590(3)
C19_3 C 0.94543(19) 0.38704(14) 0.70068(3)
H13_3 H 0.8952 0.3434 0.7061
C20_3 C 0.95512(19) 0.39874(14) 0.67961(3)
C23_3 C 0.80821(24) 0.32450(18) 0.66905(4)
H16_3 H 0.7745 0.2681 0.6743
H17_3 H 0.8081 0.3640 0.6790
H18_3 H 0.7852 0.3296 0.6559
C24_3 C 0.95725(18) 0.13101(13) 0.61566(3)
C25_3 C 0.94114(18) 0.18732(13) 0.62830(3)
C27_3 C 0.98773(21) 0.29789(15) 0.65304(4)
C28_3 C 0.90943(20) 0.29195(14) 0.65337(3)
C29_3 C 0.84755(21) 0.23218(15) 0.64069(4)
H21_3 H 0.7942 0.2269 0.6405
C30_3 C 0.86312(18) 0.18093(13) 0.62851(4)
H22_3 H 0.8201 0.1406 0.6201
C8_5 C 0.00883(18) 0.15038(16) 0.33572(4)
H5_5 H 0.0652 0.1731 0.3410
H7_5 H 0.0037 0.1223 0.3226
C9_5 C 0.20232(13) 0.49291(13) 0.28233(3)
C10_5 C 0.14601(13) 0.42049(13) 0.29497(3)
C11_5 C 0.08600(14) 0.42235(14) 0.30725(3)
H8_5 H 0.0797 0.4699 0.3071
C12_5 C 0.03544(15) 0.35651(14) 0.31971(4)
C13_5 C 0.04138(14) 0.28415(14) 0.32004(3)
C14_5 C 0.10115(15) 0.28204(14) 0.30736(4)
H10_5 H 0.1064 0.2340 0.3072
C15_5 C 0.15240(13) 0.34886(13) 0.29518(4)
H11_5 H 0.1927 0.3462 0.2868
Zn1_8 Zn 0.6666 0.3334 0.388134(6)
N1_5 N 0.99118(13) 0.21746(12) 0.33257(3)
O1_8 O 0.6666 0.3334 0.41787(4)
O2_5 O 0.72980(11) 0.28490(11) 0.37780(3)
O3_5 O 0.79591(10) 0.27391(10) 0.40548(2)
C1_5 C 0.78156(13) 0.26979(13) 0.38636(3)
C2_5 C 0.83132(13) 0.24768(13) 0.37259(3)
C3_5 C 0.89446(14) 0.23675(14) 0.38056(3)
H1_5 H 0.9021 0.2373 0.3950
C4_5 C 0.94629(14) 0.22506(13) 0.36735(3)
H2_5 H 0.9899 0.2185 0.3728
C5_5 C 0.93459(14) 0.22305(13) 0.34628(3)
C6_5 C 0.86778(15) 0.22849(16) 0.33832(4)
H3_5 H 0.8575 0.2235 0.3240
C7_5 C 0.81662(14) 0.24124(14) 0.35144(4)
H4_5 H 0.7716 0.2456 0.3461
H6_5 H 0.9693 0.1108 0.3457
H9_5 H 0.9959 0.3600 0.3283
N2_4 N 0.22627(18) 0.00882(13) 0.33257(3)
O6_5 O 0.55509(16) 0.27020(11) 0.37780(3)
O7_5 O 0.47799(14) 0.20409(10) 0.40548(2)
C16_5 C 0.48822(18) 0.21844(13) 0.38636(3)
C17_5 C 0.41635(18) 0.16868(13) 0.37259(3)
C18_5 C 0.34228(20) 0.10554(14) 0.38056(3)
H12_5 H 0.3351 0.0979 0.3950
C19_4 C 0.27876(19) 0.05371(14) 0.36735(3)
H13_4 H 0.2285 0.0101 0.3728
C20_4 C 0.28845(19) 0.06541(14) 0.34628(3)
C21_5 C 0.36070(22) 0.13222(15) 0.33832(4)
H14_5 H 0.3659 0.1425 0.3240
C22_5 C 0.42461(20) 0.18338(14) 0.35144(4)
H15_5 H 0.4739 0.2284 0.3461
H17_4 H 0.1414 0.0307 0.3457
H20_5 H 0.3640 0.0041 0.3283
N3_5 N 0.78254(12) 0.77373(18) 0.33257(3)
O10_5 O 0.71510(11) 0.44491(16) 0.37780(3)
O11_5 O 0.72609(10) 0.52201(14) 0.40548(2)
C31_5 C 0.73021(13) 0.51178(18) 0.38636(3)
C32_5 C 0.75232(13) 0.58365(18) 0.37259(3)
C33_5 C 0.76325(14) 0.65772(20) 0.38056(3)
H23_5 H 0.7627 0.6649 0.3950
C34_5 C 0.77494(13) 0.72124(19) 0.36735(3)
H24_5 H 0.7815 0.7715 0.3728
C35_5 C 0.77695(13) 0.71155(19) 0.34628(3)
C36_5 C 0.77151(16) 0.63930(22) 0.33832(4)
H25_5 H 0.7765 0.6341 0.3240
C37_5 C 0.75876(14) 0.57539(20) 0.35144(4)
H26_5 H 0.7544 0.5261 0.3461
C38_5 C 0.84962(16) 0.85846(24) 0.33572(4)
H27_5 H 0.8269 0.8922 0.3410
H28_5 H 0.8892 0.8586 0.3457
H29_5 H 0.8777 0.8815 0.3226
C39_5 C 0.50709(13) 0.70942(18) 0.28233(3)
C40_5 C 0.57951(13) 0.72553(18) 0.29497(3)
C41_5 C 0.57765(14) 0.66366(20) 0.30725(3)
H30_5 H 0.5301 0.6099 0.3071
C42_5 C 0.64349(14) 0.67894(21) 0.31971(4)
H31_5 H 0.6400 0.6360 0.3283
C43_5 C 0.71585(14) 0.75724(20) 0.32004(3)
C44_5 C 0.71796(14) 0.81912(21) 0.30736(4)
H32_5 H 0.7660 0.8725 0.3072
C45_5 C 0.65114(13) 0.80355(18) 0.29518(4)
H33_5 H 0.6538 0.8466 0.2868
C23_4 C 0.14154(24) 0.99117(18) 0.33572(4)
H16_4 H 0.1078 0.9348 0.3410
H18_4 H 0.1185 0.9963 0.3226
C24_4 C 0.29058(18) 0.79768(13) 0.28233(3)
C25_4 C 0.27447(18) 0.85399(13) 0.29497(3)
C26_5 C 0.33634(20) 0.91400(14) 0.30725(3)
H19_5 H 0.3901 0.9203 0.3071
C27_4 C 0.32106(21) 0.96456(15) 0.31971(4)
C28_4 C 0.24276(20) 0.95862(14) 0.32004(3)
C29_4 C 0.18088(21) 0.89885(15) 0.30736(4)
H21_4 H 0.1275 0.8936 0.3072
C30_4 C 0.19645(18) 0.84760(13) 0.29518(4)
H22_4 H 0.1534 0.8073 0.2868
Zn1_9 Zn -0.0000 0.0000 0.054800(6)
O1_9 O -0.0000 0.0000 0.08453(4)
O10_6 O 0.04844(11) 0.11157(16) 0.04446(3)
O11_6 O 0.05943(10) 0.18867(14) 0.07214(2)
C31_6 C 0.06355(13) 0.17844(18) 0.05302(3)
C32_6 C 0.08566(13) 0.25031(18) 0.03925(3)
C33_6 C 0.09659(14) 0.32438(20) 0.04722(3)
H23_6 H 0.0961 0.3315 0.0616
C34_6 C 0.10828(13) 0.38790(19) 0.03401(3)
H24_6 H 0.1149 0.4381 0.0394
C35_6 C 0.11029(13) 0.37821(19) 0.01294(3)
C36_6 C 0.10485(16) 0.30596(22) 0.00498(4)
C37_6 C 0.09210(14) 0.24205(20) 0.01810(4)
H26_6 H 0.0878 0.1927 0.0127
C38_6 C 0.18296(16) 0.52512(24) 0.00238(4)
H27_6 H 0.1603 0.5588 0.0076
H28_6 H 0.2226 0.5252 0.0123
C9_6 C 0.53566(13) 0.15957(13) 0.94899(3)
C10_6 C 0.47935(13) 0.08715(13) 0.96163(3)
C11_6 C 0.41934(14) 0.08901(14) 0.97391(3)
H8_6 H 0.4131 0.1365 0.9737
C12_6 C 0.36878(15) 0.02317(14) 0.98637(4)
H9_6 H 0.3293 0.0266 0.9949
C15_6 C 0.48574(13) 0.01552(13) 0.96184(4)
H11_6 H 0.5261 0.0128 0.9534
N3_6 N 0.11588(12) 0.44039(18) 0.99923(3)
H25_6 H 0.1099 0.3007 0.9906
H29_6 H 0.2111 0.5481 0.9892
C43_6 C 0.04919(14) 0.42390(20) 0.98670(3)
C44_6 C 0.05130(14) 0.48578(21) 0.97402(4)
H32_6 H 0.0994 0.5391 0.9738
Zn1_10 Zn -0.0000 1.0000 0.054800(6)
O1_10 O -0.0000 1.0000 0.08453(4)
O2_6 O 0.06314(11) 0.95156(11) 0.04446(3)
O3_6 O 0.12925(10) 0.94057(10) 0.07214(2)
C1_6 C 0.11490(13) 0.93645(13) 0.05302(3)
C2_6 C 0.16466(13) 0.91434(13) 0.03925(3)
C3_6 C 0.22780(14) 0.90341(14) 0.04722(3)
H1_6 H 0.2355 0.9039 0.0616
C4_6 C 0.27963(14) 0.89172(13) 0.03401(3)
H2_6 H 0.3233 0.8851 0.0394
C5_6 C 0.26793(14) 0.88971(13) 0.01294(3)
C6_6 C 0.20112(15) 0.89515(16) 0.00498(4)
C7_6 C 0.14996(14) 0.90790(14) 0.01810(4)
H4_6 H 0.1050 0.9122 0.0127
C8_6 C 0.34217(18) 0.81704(16) 0.00238(4)
H5_6 H 0.3986 0.8397 0.0076
H6_6 H 0.3027 0.7774 0.0123
C39_6 C 0.84043(13) 0.37608(18) 0.94899(3)
C40_6 C 0.91285(13) 0.39219(18) 0.96163(3)
C41_6 C 0.91099(14) 0.33032(20) 0.97391(3)
H30_6 H 0.8635 0.2765 0.9737
C42_6 C 0.97683(14) 0.34560(21) 0.98637(4)
H31_6 H 0.9734 0.3026 0.9949
C45_6 C 0.98448(13) 0.47021(18) 0.96184(4)
H33_6 H 0.9872 0.5132 0.9534
Zn1_11 Zn 1.0000 1.0000 0.054800(6)
O1_11 O 1.0000 1.0000 0.08453(4)
O6_6 O 0.88843(16) 0.93686(11) 0.04446(3)
O7_6 O 0.81133(14) 0.87075(10) 0.07214(2)
C16_6 C 0.82156(18) 0.88510(13) 0.05302(3)
C17_6 C 0.74969(18) 0.83534(13) 0.03925(3)
C18_6 C 0.67562(20) 0.77220(14) 0.04722(3)
H12_6 H 0.6685 0.7645 0.0616
C19_5 C 0.61210(19) 0.72037(14) 0.03401(3)
H13_5 H 0.5619 0.6767 0.0394
C20_5 C 0.62179(19) 0.73207(14) 0.01294(3)
C21_6 C 0.69404(22) 0.79888(15) 0.00498(4)
C22_6 C 0.75795(20) 0.85004(14) 0.01810(4)
H15_6 H 0.8073 0.8950 0.0127
C23_5 C 0.47488(24) 0.65783(18) 0.00238(4)
H16_5 H 0.4412 0.6014 0.0076
H17_5 H 0.4748 0.6973 0.0123
N2_5 N 0.55961(18) 0.67548(13) 0.99923(3)
H14_6 H 0.6993 0.8091 0.9906
H18_5 H 0.4519 0.6629 0.9892
C24_5 C 0.62392(18) 0.46434(13) 0.94899(3)
C25_5 C 0.60781(18) 0.52065(13) 0.96163(3)
C26_6 C 0.66968(20) 0.58066(14) 0.97391(3)
H19_6 H 0.7235 0.5869 0.9737
C27_5 C 0.65440(21) 0.63122(15) 0.98637(4)
H20_6 H 0.6974 0.6707 0.9949
C28_5 C 0.57610(20) 0.62528(14) 0.98670(3)
C29_5 C 0.51422(21) 0.56551(15) 0.97402(4)
H21_5 H 0.4609 0.5602 0.9738
C30_5 C 0.52979(18) 0.51426(13) 0.96184(4)
H22_5 H 0.4868 0.4739 0.9534
N2_6 N 0.65785(13) 0.10706(18) 0.16590(3)
O9_3 O 0.92947(9) 0.10421(13) 0.10678(2)
C19_6 C 0.61296(14) 0.05457(19) 0.20068(3)
H13_6 H 0.6566 0.1048 0.2061
C20_6 C 0.60126(14) 0.04488(19) 0.17961(3)
C23_6 C 0.67550(18) 0.19179(24) 0.16905(4)
H16_6 H 0.7319 0.2255 0.1743
H17_6 H 0.6360 0.1919 0.1790
H18_6 H 0.6704 0.2148 0.1559
C24_6 C 0.86899(13) 0.04275(18) 0.11566(3)
C25_6 C 0.81268(13) 0.05886(18) 0.12830(3)
C27_6 C 0.70211(15) 0.01227(21) 0.15304(4)
C28_6 C 0.70805(14) 0.09057(20) 0.15337(3)
C29_6 C 0.76782(15) 0.15245(21) 0.14069(4)
H21_6 H 0.7731 0.2058 0.1405
C30_6 C 0.81907(13) 0.13688(18) 0.12851(4)
H22_6 H 0.8594 0.1799 0.1201
Zn1_12 Zn 1.0000 0.0000 0.054800(6)
O1_12 O 1.0000 0.0000 0.08453(4)
Zn10_4 Zn 0.108600(19) 0.026280(14) 0.405668(3)
N2_7 N 0.10706(18) 0.65785(13) 0.33410(3)
O9_4 O 0.10421(13) 0.92947(9) 0.39322(2)
C19_7 C 0.05457(19) 0.61296(14) 0.29932(3)
H13_7 H 0.1048 0.6566 0.2939
C20_7 C 0.04488(19) 0.60126(14) 0.32039(3)
C23_7 C 0.19179(24) 0.67550(18) 0.33095(4)
H16_7 H 0.2255 0.7319 0.3257
H17_7 H 0.1919 0.6360 0.3210
H18_7 H 0.2148 0.6704 0.3441
C24_7 C 0.04275(18) 0.86899(13) 0.38434(3)
C25_7 C 0.05886(18) 0.81268(13) 0.37170(3)
C27_7 C 0.01227(21) 0.70211(15) 0.34696(4)
C28_7 C 0.09057(20) 0.70805(14) 0.34663(3)
C29_7 C 0.15245(21) 0.76782(15) 0.35931(4)
H21_7 H 0.2058 0.7731 0.3595
C30_7 C 0.13688(18) 0.81907(13) 0.37149(4)
H22_7 H 0.1799 0.8594 0.3799
Zn1_13 Zn 0.6667 0.3333 0.278533(6)
Zn2_4 Zn 0.584346(13) 0.359613(14) 0.239001(3)
N1_6 N 0.34215(13) 0.44921(12) 0.33410(3)
O1_13 O 0.6667 0.3333 0.24880(4)
O2_7 O 0.60353(11) 0.38177(11) 0.28887(3)
O3_7 O 0.53742(10) 0.39276(10) 0.26119(2)
O4_4 O 0.14577(10) 0.11436(10) 0.38531(2)
O5_4 O 0.07053(9) 0.17474(9) 0.39322(2)
C1_7 C 0.55177(13) 0.39688(13) 0.28031(3)
C2_7 C 0.50201(13) 0.41899(13) 0.29408(3)
C3_7 C 0.43887(14) 0.42992(14) 0.28611(3)
H1_7 H 0.4312 0.4294 0.2717
C4_7 C 0.38704(14) 0.44161(13) 0.29932(3)
H2_7 H 0.3434 0.4482 0.2939
C5_7 C 0.39874(14) 0.44362(13) 0.32039(3)
C6_7 C 0.46555(15) 0.43818(16) 0.32835(4)
H3_6 H 0.4758 0.4432 0.3427
C7_7 C 0.51671(14) 0.42543(14) 0.31523(4)
H4_7 H 0.5617 0.4211 0.3206
C8_7 C 0.32450(18) 0.51629(16) 0.33095(4)
H5_7 H 0.2681 0.4936 0.3257
H6_7 H 0.3640 0.5559 0.3210
H7_6 H 0.3296 0.5444 0.3441
C9_7 C 0.13101(13) 0.17376(13) 0.38434(3)
C10_7 C 0.18732(13) 0.24618(13) 0.37170(3)
C11_7 C 0.24733(14) 0.24432(14) 0.35942(3)
H8_7 H 0.2536 0.1968 0.3596
C12_7 C 0.29789(15) 0.31016(14) 0.34696(4)
H9_7 H 0.3374 0.3067 0.3384
C13_6 C 0.29195(14) 0.38252(14) 0.34663(3)
C14_6 C 0.23218(15) 0.38463(14) 0.35931(4)
H10_6 H 0.2269 0.4327 0.3595
C15_7 C 0.18093(13) 0.31781(13) 0.37149(4)
H11_7 H 0.1406 0.3205 0.3799
Zn3_4 Zn 0.775267(19) 0.415654(13) 0.239001(3)
O6_7 O 0.77824(16) 0.39647(11) 0.28887(3)
O7_7 O 0.85534(14) 0.46258(10) 0.26119(2)
O8_4 O 0.96859(14) 0.85423(10) 0.38531(2)
C16_7 C 0.84511(18) 0.44823(13) 0.28031(3)
C17_7 C 0.91698(18) 0.49799(13) 0.29408(3)
C18_7 C 0.99105(20) 0.56113(14) 0.28611(3)
H12_7 H 0.9982 0.5688 0.2717
C21_7 C 0.97263(22) 0.53445(15) 0.32835(4)
H14_7 H 0.9674 0.5242 0.3427
C22_7 C 0.90872(20) 0.48329(14) 0.31523(4)
H15_7 H 0.8594 0.4383 0.3206
C26_7 C 0.99699(20) 0.75267(14) 0.35942(3)
H19_7 H 0.9432 0.7464 0.3596
H20_7 H 0.9693 0.6626 0.3384
Zn4_4 Zn 0.640387(14) 0.224733(19) 0.239001(3)
O10_7 O 0.61823(11) 0.22176(16) 0.28887(3)
O11_7 O 0.60724(10) 0.14466(14) 0.26119(2)
O12_4 O 0.88564(10) 0.03141(14) 0.38531(2)
C31_7 C 0.60312(13) 0.15489(18) 0.28031(3)
C32_7 C 0.58101(13) 0.08302(18) 0.29408(3)
C33_7 C 0.57008(14) 0.00895(20) 0.28611(3)
H23_7 H 0.5706 0.0018 0.2717
C36_7 C 0.56182(16) 0.02737(22) 0.32835(4)
H25_7 H 0.5568 0.0326 0.3427
C37_7 C 0.57457(14) 0.09128(20) 0.31523(4)
H26_7 H 0.5789 0.1406 0.3206
C41_7 C 0.75568(14) 0.00301(20) 0.35942(3)
H30_7 H 0.8032 0.0568 0.3596
H31_7 H 0.6933 0.0307 0.3384
Zn6_4 Zn 0.973720(14) 0.082321(13) 0.405668(3)
Zn8_4 Zn 0.917679(13) 0.891400(19) 0.405668(3)
O14_4 O 0.55231(10) 0.18756(10) 0.21864(2)
O15_4 O 0.81244(10) 0.36474(14) 0.21864(2)
O16_4 O 0.63526(14) 0.44769(10) 0.21864(2)
O17_4 O 0.49193(9) 0.26280(9) 0.22655(2)
O18_4 O 0.73720(9) 0.22912(13) 0.22655(2)
O19_4 O 0.77088(13) 0.50807(9) 0.22655(2)
N3_7 N 0.55079(12) 0.89294(18) 0.33410(3)
O13_4 O 0.82526(9) 0.89579(13) 0.39322(2)
C34_7 C 0.55839(13) 0.94543(19) 0.29932(3)
H24_7 H 0.5518 0.8952 0.2939
C35_7 C 0.55638(13) 0.95512(19) 0.32039(3)
C38_7 C 0.48371(16) 0.80821(24) 0.33095(4)
H27_7 H 0.5064 0.7745 0.3257
H28_7 H 0.4441 0.8081 0.3210
H29_7 H 0.4556 0.7852 0.3441
C39_7 C 0.82624(13) 0.95725(18) 0.38434(3)
C40_7 C 0.75382(13) 0.94114(18) 0.37170(3)
C42_7 C 0.68984(14) 0.98773(21) 0.34696(4)
C43_7 C 0.61748(14) 0.90943(20) 0.34663(3)
C44_7 C 0.61537(14) 0.84755(21) 0.35931(4)
H32_7 H 0.5673 0.7942 0.3595
C45_7 C 0.68219(13) 0.86312(18) 0.37149(4)
H33_7 H 0.6795 0.8201 0.3799
O8_5 O 0.63526(14) 0.18756(10) 0.71864(2)
O9_5 O 0.77088(13) 0.26280(9) 0.72655(2)
C23_8 C 0.85846(24) 0.00883(18) 0.66428(4)
H16_8 H 0.8922 0.0652 0.6590
H18_8 H 0.8815 0.0037 0.6774
C24_8 C 0.70942(18) 0.20232(13) 0.71767(3)
C25_8 C 0.72553(18) 0.14601(13) 0.70503(3)
C26_8 C 0.66366(20) 0.08600(14) 0.69275(3)
H19_8 H 0.6099 0.0797 0.6929
C27_8 C 0.67894(21) 0.03544(15) 0.68029(4)
C28_8 C 0.75724(20) 0.04138(14) 0.67996(3)
C29_8 C 0.81912(21) 0.10115(15) 0.69264(4)
H21_8 H 0.8725 0.1064 0.6928
C30_8 C 0.80355(18) 0.15240(13) 0.70482(4)
H22_8 H 0.8466 0.1927 0.7132
Zn8_5 Zn 0.584346(13) 0.224733(19) 0.739001(3)
Zn10_5 Zn 0.775267(19) 0.359613(14) 0.739001(3)
Zn1_14 Zn 0.3334 0.6666 0.611866(6)
Zn2_5 Zn 0.251013(13) 0.692946(14) 0.572334(3)
N1_7 N 0.00882(13) 0.78254(12) 0.66743(3)
O1_14 O 0.3334 0.6666 0.58213(4)
O2_8 O 0.27020(11) 0.71510(11) 0.62220(3)
O3_8 O 0.20409(10) 0.72609(10) 0.59452(2)
C1_8 C 0.21844(13) 0.73021(13) 0.61364(3)
C2_8 C 0.16868(13) 0.75232(13) 0.62741(3)
C3_8 C 0.10554(14) 0.76325(14) 0.61944(3)
H1_8 H 0.0979 0.7627 0.6050
C4_8 C 0.05371(14) 0.77494(13) 0.63265(3)
H2_8 H 0.0101 0.7815 0.6272
C5_8 C 0.06541(14) 0.77695(13) 0.65372(3)
C6_8 C 0.13222(15) 0.77151(16) 0.66168(4)
H3_7 H 0.1425 0.7765 0.6760
C7_8 C 0.18338(14) 0.75876(14) 0.64856(4)
H4_8 H 0.2284 0.7544 0.6539
H6_8 H 0.0307 0.8892 0.6543
H9_8 H 0.0041 0.6400 0.6717
Zn3_5 Zn 0.441934(19) 0.748987(13) 0.572334(3)
N2_8 N 0.77373(18) 0.99118(13) 0.66743(3)
O6_8 O 0.44491(16) 0.72980(11) 0.62220(3)
O7_8 O 0.52201(14) 0.79591(10) 0.59452(2)
C16_8 C 0.51178(18) 0.78156(13) 0.61364(3)
C17_8 C 0.58365(18) 0.83132(13) 0.62741(3)
C18_8 C 0.65772(20) 0.89446(14) 0.61944(3)
H12_8 H 0.6649 0.9021 0.6050
C19_8 C 0.72124(19) 0.94629(14) 0.63265(3)
H13_8 H 0.7715 0.9899 0.6272
C20_8 C 0.71155(19) 0.93459(14) 0.65372(3)
C21_8 C 0.63930(22) 0.86778(15) 0.66168(4)
H14_8 H 0.6341 0.8575 0.6760
C22_8 C 0.57539(20) 0.81662(14) 0.64856(4)
H15_8 H 0.5261 0.7716 0.6539
H17_8 H 0.8586 0.9693 0.6543
H20_8 H 0.6360 0.9959 0.6717
Zn4_5 Zn 0.307054(14) 0.558066(19) 0.572334(3)
N3_8 N 0.21746(12) 0.22627(18) 0.66743(3)
O10_8 O 0.28490(11) 0.55509(16) 0.62220(3)
O11_8 O 0.27391(10) 0.47799(14) 0.59452(2)
O12_5 O 0.55231(10) 0.36474(14) 0.71864(2)
O13_5 O 0.49193(9) 0.22912(13) 0.72655(2)
C31_8 C 0.26979(13) 0.48822(18) 0.61364(3)
C32_8 C 0.24768(13) 0.41635(18) 0.62741(3)
C33_8 C 0.23675(14) 0.34228(20) 0.61944(3)
H23_8 H 0.2373 0.3351 0.6050
C34_8 C 0.22506(13) 0.27876(19) 0.63265(3)
H24_8 H 0.2185 0.2285 0.6272
C35_8 C 0.22305(13) 0.28845(19) 0.65372(3)
C36_8 C 0.22849(16) 0.36070(22) 0.66168(4)
H25_8 H 0.2235 0.3659 0.6760
C37_8 C 0.24124(14) 0.42461(20) 0.64856(4)
H26_8 H 0.2456 0.4739 0.6539
C38_8 C 0.15038(16) 0.14154(24) 0.66428(4)
H27_8 H 0.1731 0.1078 0.6590
H28_8 H 0.1108 0.1414 0.6543
H29_8 H 0.1223 0.1185 0.6774
C39_8 C 0.49291(13) 0.29058(18) 0.71767(3)
C40_8 C 0.42049(13) 0.27447(18) 0.70503(3)
C41_8 C 0.42235(14) 0.33634(20) 0.69275(3)
H30_8 H 0.4699 0.3901 0.6929
C42_8 C 0.35651(14) 0.32106(21) 0.68029(4)
H31_8 H 0.3600 0.3640 0.6717
C43_8 C 0.28415(14) 0.24276(20) 0.67996(3)
C44_8 C 0.28204(14) 0.18088(21) 0.69264(4)
H32_8 H 0.2340 0.1275 0.6928
C45_8 C 0.34886(13) 0.19645(18) 0.70482(4)
H33_8 H 0.3462 0.1534 0.7132
Zn6_5 Zn 0.640387(14) 0.415654(13) 0.739001(3)
O14_5 O 0.21897(10) 0.52090(10) 0.55198(2)
O15_5 O 0.47910(10) 0.69808(14) 0.55198(2)
O16_5 O 0.30192(14) 0.78103(10) 0.55198(2)
O17_5 O 0.15859(9) 0.59614(9) 0.55989(2)
O18_5 O 0.40386(9) 0.56246(13) 0.55989(2)
O19_5 O 0.43754(13) 0.84141(9) 0.55989(2)
O4_5 O 0.81244(10) 0.44769(10) 0.71864(2)
O5_5 O 0.73720(9) 0.50807(9) 0.72655(2)
C8_8 C 0.99117(18) 0.84962(16) 0.66428(4)
H5_8 H 0.9348 0.8269 0.6590
H7_7 H 0.9963 0.8777 0.6774
C9_8 C 0.79768(13) 0.50709(13) 0.71767(3)
C10_8 C 0.85399(13) 0.57951(13) 0.70503(3)
C11_8 C 0.91400(14) 0.57765(14) 0.69275(3)
H8_8 H 0.9203 0.5301 0.6929
C12_8 C 0.96456(15) 0.64349(14) 0.68029(4)
C13_7 C 0.95862(14) 0.71585(14) 0.67996(3)
C14_7 C 0.89885(15) 0.71796(14) 0.69264(4)
H10_7 H 0.8936 0.7660 0.6928
C15_8 C 0.84760(13) 0.65114(13) 0.70482(4)
H11_8 H 0.8073 0.6538 0.7132
N2_9 N 0.44039(18) 0.32452(13) 0.00077(3)
O8_6 O 0.30192(14) 0.52090(10) 0.05198(2)
O9_6 O 0.43754(13) 0.59614(9) 0.05989(2)
H14_9 H 0.3007 0.1909 0.0094
H18_9 H 0.5481 0.3371 0.0108
C24_9 C 0.37608(18) 0.53566(13) 0.05101(3)
C25_9 C 0.39219(18) 0.47935(13) 0.03837(3)
C26_9 C 0.33032(20) 0.41934(14) 0.02609(3)
H19_9 H 0.2765 0.4131 0.0263
C27_9 C 0.34560(21) 0.36878(15) 0.01363(4)
H20_9 H 0.3026 0.3293 0.0051
C28_9 C 0.42390(20) 0.37472(14) 0.01330(3)
C29_9 C 0.48578(21) 0.43449(15) 0.02598(4)
H21_9 H 0.5391 0.4398 0.0262
C30_9 C 0.47021(18) 0.48574(13) 0.03816(4)
H22_9 H 0.5132 0.5261 0.0466
Zn8_6 Zn 0.251013(13) 0.558066(19) 0.072334(3)
Zn10_6 Zn 0.441934(19) 0.692946(14) 0.072334(3)
Zn1_15 Zn 0.0000 -0.0000 0.945200(6)
O1_15 O 0.0000 -0.0000 0.91547(4)
Zn3_6 Zn 0.108600(19) 0.082321(13) 0.905668(3)
O6_9 O 0.11157(16) 0.06314(11) 0.95554(3)
O7_9 O 0.18867(14) 0.12925(10) 0.92786(2)
C16_9 C 0.17844(18) 0.11490(13) 0.94698(3)
C17_9 C 0.25031(18) 0.16466(13) 0.96075(3)
C18_9 C 0.32438(20) 0.22780(14) 0.95278(3)
H12_9 H 0.3315 0.2355 0.9384
C19_9 C 0.38790(19) 0.27963(14) 0.96599(3)
H13_9 H 0.4381 0.3233 0.9606
C20_9 C 0.37821(19) 0.26793(14) 0.98706(3)
C21_9 C 0.30596(22) 0.20112(15) 0.99502(4)
C22_9 C 0.24205(20) 0.14996(14) 0.98190(4)
H15_9 H 0.1927 0.1050 0.9873
C23_9 C 0.52512(24) 0.34217(18) 0.99762(4)
H16_9 H 0.5588 0.3986 0.9924
H17_9 H 0.5252 0.3027 0.9877
O15_6 O 0.14577(10) 0.03141(14) 0.88531(2)
O19_6 O 0.10421(13) 0.17474(9) 0.89322(2)
O12_6 O 0.21897(10) 0.69808(14) 0.05198(2)
O13_6 O 0.15859(9) 0.56246(13) 0.05989(2)
C39_9 C 0.15957(13) 0.62392(18) 0.05101(3)
C40_9 C 0.08715(13) 0.60781(18) 0.03837(3)
C41_9 C 0.08901(14) 0.66968(20) 0.02609(3)
H30_9 H 0.1365 0.7235 0.0263
C42_9 C 0.02317(14) 0.65440(21) 0.01363(4)
H31_9 H 0.0266 0.6974 0.0051
C45_9 C 0.01552(13) 0.52979(18) 0.03816(4)
H33_9 H 0.0128 0.4868 0.0466
Zn6_6 Zn 0.307054(14) 0.748987(13) 0.072334(3)
Zn1_16 Zn 1.0000 -0.0000 0.945200(6)
Zn2_6 Zn 0.917679(13) 0.026280(14) 0.905668(3)
O1_16 O 1.0000 -0.0000 0.91547(4)
O2_9 O 0.93686(11) 0.04844(11) 0.95554(3)
O3_9 O 0.87075(10) 0.05943(10) 0.92786(2)
C1_9 C 0.88510(13) 0.06355(13) 0.94698(3)
C2_9 C 0.83534(13) 0.08566(13) 0.96075(3)
C3_9 C 0.77220(14) 0.09659(14) 0.95278(3)
H1_9 H 0.7645 0.0961 0.9384
C4_9 C 0.72037(14) 0.10828(13) 0.96599(3)
H2_9 H 0.6767 0.1149 0.9606
C5_9 C 0.73207(14) 0.11029(13) 0.98706(3)
C6_9 C 0.79888(15) 0.10485(16) 0.99502(4)
C7_9 C 0.85004(14) 0.09210(14) 0.98190(4)
H4_9 H 0.8950 0.0878 0.9873
C8_9 C 0.65783(18) 0.18296(16) 0.99762(4)
H5_9 H 0.6014 0.1603 0.9924
H6_9 H 0.6973 0.2226 0.9877
O16_6 O 0.96859(14) 0.11436(10) 0.88531(2)
O4_6 O 0.47910(10) 0.78103(10) 0.05198(2)
O5_6 O 0.40386(9) 0.84141(9) 0.05989(2)
C9_9 C 0.46434(13) 0.84043(13) 0.05101(3)
C10_9 C 0.52065(13) 0.91285(13) 0.03837(3)
C11_9 C 0.58066(14) 0.91099(14) 0.02609(3)
H8_9 H 0.5869 0.8635 0.0263
C12_9 C 0.63122(15) 0.97683(14) 0.01363(4)
H9_9 H 0.6707 0.9734 0.0051
C15_9 C 0.51426(13) 0.98448(13) 0.03816(4)
H11_9 H 0.4739 0.9872 0.0466
N3_9 N 0.88412(12) 0.55961(18) 0.00077(3)
H25_9 H 0.8901 0.6993 0.0094
H29_9 H 0.7889 0.4519 0.0108
C43_9 C 0.95081(14) 0.57610(20) 0.01330(3)
C44_9 C 0.94870(14) 0.51422(21) 0.02598(4)
H32_9 H 0.9006 0.4609 0.0262
Zn1_17 Zn 1.0000 1.0000 0.945200(6)
O1_17 O 1.0000 1.0000 0.91547(4)
Zn4_6 Zn 0.973720(14) 0.891400(19) 0.905668(3)
O10_9 O 0.95156(11) 0.88843(16) 0.95554(3)
O11_9 O 0.94057(10) 0.81133(14) 0.92786(2)
C31_9 C 0.93645(13) 0.82156(18) 0.94698(3)
C32_9 C 0.91434(13) 0.74969(18) 0.96075(3)
C33_9 C 0.90341(14) 0.67562(20) 0.95278(3)
H23_9 H 0.9039 0.6685 0.9384
C34_9 C 0.89172(13) 0.61210(19) 0.96599(3)
H24_9 H 0.8851 0.5619 0.9606
C35_9 C 0.88971(13) 0.62179(19) 0.98706(3)
C36_9 C 0.89515(16) 0.69404(22) 0.99502(4)
C37_9 C 0.90790(14) 0.75795(20) 0.98190(4)
H26_9 H 0.9122 0.8073 0.9873
C38_9 C 0.81704(16) 0.47488(24) 0.99762(4)
H27_9 H 0.8397 0.4412 0.9924
H28_9 H 0.7774 0.4748 0.9877
O14_6 O 0.88564(10) 0.85423(10) 0.88531(2)
O17_6 O 0.82526(9) 0.92947(9) 0.89322(2)
N3_10 N 0.10706(18) 0.44921(12) 0.83410(3)
C34_10 C 0.05457(19) 0.44161(13) 0.79932(3)
H24_10 H 0.1048 0.4482 0.7939
C35_10 C 0.04488(19) 0.44362(13) 0.82039(3)
C38_10 C 0.19179(24) 0.51629(16) 0.83095(4)
H27_10 H 0.2255 0.4936 0.8257
H28_10 H 0.1919 0.5559 0.8210
H29_10 H 0.2148 0.5444 0.8441
C39_10 C 0.04275(18) 0.17376(13) 0.88434(3)
C40_10 C 0.05886(18) 0.24618(13) 0.87170(3)
C42_10 C 0.01227(21) 0.31016(14) 0.84696(4)
C43_10 C 0.09057(20) 0.38252(14) 0.84663(3)
C44_10 C 0.15245(21) 0.38463(14) 0.85931(4)
H32_10 H 0.2058 0.4327 0.8595
C45_10 C 0.13688(18) 0.31781(13) 0.87149(4)
H33_10 H 0.1799 0.3205 0.8799
Zn1_18 Zn 0.6667 0.3333 0.778533(6)
N1_8 N 0.55079(12) 0.65785(13) 0.83410(3)
O1_18 O 0.6667 0.3333 0.74880(4)
O2_10 O 0.61823(11) 0.39647(11) 0.78887(3)
O3_10 O 0.60724(10) 0.46258(10) 0.76119(2)
C1_10 C 0.60312(13) 0.44823(13) 0.78031(3)
C2_10 C 0.58101(13) 0.49799(13) 0.79408(3)
C3_10 C 0.57008(14) 0.56113(14) 0.78611(3)
H1_10 H 0.5706 0.5688 0.7717
C4_10 C 0.55839(13) 0.61296(14) 0.79932(3)
H2_10 H 0.5518 0.6566 0.7939
C5_10 C 0.55638(13) 0.60126(14) 0.82039(3)
C6_10 C 0.56182(16) 0.53445(15) 0.82835(4)
H3_8 H 0.5568 0.5242 0.8427
C7_10 C 0.57457(14) 0.48329(14) 0.81523(4)
H4_10 H 0.5789 0.4383 0.8206
C8_10 C 0.48371(16) 0.67550(18) 0.83095(4)
H5_10 H 0.5064 0.7319 0.8257
H6_10 H 0.4441 0.6360 0.8210
H7_8 H 0.4556 0.6704 0.8441
C9_10 C 0.82624(13) 0.86899(13) 0.88434(3)
C10_10 C 0.75382(13) 0.81268(13) 0.87170(3)
C11_10 C 0.75568(14) 0.75267(14) 0.85942(3)
H8_10 H 0.8032 0.7464 0.8596
C12_10 C 0.68984(14) 0.70211(15) 0.84696(4)
H9_10 H 0.6933 0.6626 0.8384
C13_8 C 0.61748(14) 0.70805(14) 0.84663(3)
C14_8 C 0.61537(14) 0.76782(15) 0.85931(4)
H10_8 H 0.5673 0.7731 0.8595
C15_10 C 0.68219(13) 0.81907(13) 0.87149(4)
H11_10 H 0.6795 0.8594 0.8799
O6_10 O 0.60353(11) 0.22176(16) 0.78887(3)
O7_10 O 0.53742(10) 0.14466(14) 0.76119(2)
C16_10 C 0.55177(13) 0.15489(18) 0.78031(3)
C17_10 C 0.50201(13) 0.08302(18) 0.79408(3)
C18_10 C 0.43887(14) 0.00895(20) 0.78611(3)
H12_10 H 0.4312 0.0018 0.7717
C21_10 C 0.46555(15) 0.02737(22) 0.82835(4)
H14_10 H 0.4758 0.0326 0.8427
C22_10 C 0.51671(14) 0.09128(20) 0.81523(4)
H15_10 H 0.5617 0.1406 0.8206
C26_10 C 0.24733(14) 0.00301(20) 0.85942(3)
H19_10 H 0.2536 0.0568 0.8596
H20_10 H 0.3374 0.0307 0.8384
O10_10 O 0.77824(16) 0.38177(11) 0.78887(3)
O11_10 O 0.85534(14) 0.39276(10) 0.76119(2)
C31_10 C 0.84511(18) 0.39688(13) 0.78031(3)
C32_10 C 0.91698(18) 0.41899(13) 0.79408(3)
C33_10 C 0.99105(20) 0.42992(14) 0.78611(3)
H23_10 H 0.9982 0.4294 0.7717
C36_10 C 0.97263(22) 0.43818(16) 0.82835(4)
H25_10 H 0.9674 0.4432 0.8427
C37_10 C 0.90872(20) 0.42543(14) 0.81523(4)
H26_10 H 0.8594 0.4211 0.8206
C41_10 C 0.99699(20) 0.24432(14) 0.85942(3)
H30_10 H 0.9432 0.1968 0.8596
H31_10 H 0.9693 0.3067 0.8384
Zn1_19 Zn 0.0000 -0.0000 0.445200(6)
O1_19 O 0.0000 -0.0000 0.41547(4)
C9_11 C 0.15957(13) 0.53566(13) 0.55101(3)
C10_11 C 0.08715(13) 0.47935(13) 0.53837(3)
C11_11 C 0.08901(14) 0.41934(14) 0.52609(3)
H8_11 H 0.1365 0.4131 0.5263
C12_11 C 0.02317(14) 0.36878(15) 0.51363(4)
H9_11 H 0.0266 0.3293 0.5051
C15_11 C 0.01552(13) 0.48574(13) 0.53816(4)
H11_11 H 0.0128 0.5261 0.5466
N3_11 N 0.44039(18) 0.11588(12) 0.50077(3)
O10_11 O 0.11157(16) 0.04844(11) 0.45554(3)
O11_11 O 0.18867(14) 0.05943(10) 0.42786(2)
C31_11 C 0.17844(18) 0.06355(13) 0.44698(3)
C32_11 C 0.25031(18) 0.08566(13) 0.46075(3)
C33_11 C 0.32438(20) 0.09659(14) 0.45278(3)
H23_11 H 0.3315 0.0961 0.4384
C34_11 C 0.38790(19) 0.10828(13) 0.46599(3)
H24_11 H 0.4381 0.1149 0.4606
C35_11 C 0.37821(19) 0.11029(13) 0.48706(3)
C36_11 C 0.30596(22) 0.10485(16) 0.49502(4)
H25_11 H 0.3007 0.1099 0.5094
C37_11 C 0.24205(20) 0.09210(14) 0.48190(4)
H26_11 H 0.1927 0.0878 0.4873
C38_11 C 0.52512(24) 0.18296(16) 0.49762(4)
H27_11 H 0.5588 0.1603 0.4924
H28_11 H 0.5252 0.2226 0.4877
H29_11 H 0.5481 0.2111 0.5108
C43_11 C 0.42390(20) 0.04919(14) 0.51330(3)
C44_11 C 0.48578(21) 0.05130(14) 0.52598(4)
H32_11 H 0.5391 0.0994 0.5262
Zn1_20 Zn 0.0000 1.0000 0.445200(6)
O1_20 O 0.0000 1.0000 0.41547(4)
C39_11 C 0.37608(18) 0.84043(13) 0.55101(3)
C40_11 C 0.39219(18) 0.91285(13) 0.53837(3)
C41_11 C 0.33032(20) 0.91099(14) 0.52609(3)
H30_11 H 0.2765 0.8635 0.5263
C42_11 C 0.34560(21) 0.97683(14) 0.51363(4)
H31_11 H 0.3026 0.9734 0.5051
C45_11 C 0.47021(18) 0.98448(13) 0.53816(4)
H33_11 H 0.5132 0.9872 0.5466
Zn1_21 Zn 1.0000 -0.0000 0.445200(6)
N1_9 N 0.88412(12) 0.32452(13) 0.50077(3)
O1_21 O 1.0000 -0.0000 0.41547(4)
O2_11 O 0.95156(11) 0.06314(11) 0.45554(3)
O3_11 O 0.94057(10) 0.12925(10) 0.42786(2)
C1_11 C 0.93645(13) 0.11490(13) 0.44698(3)
C2_11 C 0.91434(13) 0.16466(13) 0.46075(3)
C3_11 C 0.90341(14) 0.22780(14) 0.45278(3)
H1_11 H 0.9039 0.2355 0.4384
C4_11 C 0.89172(13) 0.27963(14) 0.46599(3)
H2_11 H 0.8851 0.3233 0.4606
C5_11 C 0.88971(13) 0.26793(14) 0.48706(3)
C6_11 C 0.89515(16) 0.20112(15) 0.49502(4)
H3_9 H 0.8901 0.1909 0.5094
C7_11 C 0.90790(14) 0.14996(14) 0.48190(4)
H4_11 H 0.9122 0.1050 0.4873
C8_11 C 0.81704(16) 0.34217(18) 0.49762(4)
H5_11 H 0.8397 0.3986 0.4924
H6_11 H 0.7774 0.3027 0.4877
H7_9 H 0.7889 0.3371 0.5108
C13_9 C 0.95081(14) 0.37472(14) 0.51330(3)
C14_9 C 0.94870(14) 0.43449(15) 0.52598(4)
H10_9 H 0.9006 0.4398 0.5262
Zn1_22 Zn 1.0000 1.0000 0.445200(6)
O1_22 O 1.0000 1.0000 0.41547(4)
N2_10 N 0.67548(13) 0.55961(18) 0.50077(3)
O6_11 O 0.93686(11) 0.88843(16) 0.45554(3)
O7_11 O 0.87075(10) 0.81133(14) 0.42786(2)
C16_11 C 0.88510(13) 0.82156(18) 0.44698(3)
C17_11 C 0.83534(13) 0.74969(18) 0.46075(3)
C18_11 C 0.77220(14) 0.67562(20) 0.45278(3)
H12_11 H 0.7645 0.6685 0.4384
C19_10 C 0.72037(14) 0.61210(19) 0.46599(3)
H13_10 H 0.6767 0.5619 0.4606
C20_10 C 0.73207(14) 0.62179(19) 0.48706(3)
C21_11 C 0.79888(15) 0.69404(22) 0.49502(4)
H14_11 H 0.8091 0.6993 0.5094
C22_11 C 0.85004(14) 0.75795(20) 0.48190(4)
H15_11 H 0.8950 0.8073 0.4873
C23_10 C 0.65783(18) 0.47488(24) 0.49762(4)
H16_10 H 0.6014 0.4412 0.4924
H17_10 H 0.6973 0.4748 0.4877
H18_10 H 0.6629 0.4519 0.5108
C24_10 C 0.46434(13) 0.62392(18) 0.55101(3)
C25_10 C 0.52065(13) 0.60781(18) 0.53837(3)
C26_11 C 0.58066(14) 0.66968(20) 0.52609(3)
H19_11 H 0.5869 0.7235 0.5263
C27_10 C 0.63122(15) 0.65440(21) 0.51363(4)
H20_11 H 0.6707 0.6974 0.5051
C28_10 C 0.62528(14) 0.57610(20) 0.51330(3)
C29_10 C 0.56551(15) 0.51422(21) 0.52598(4)
H21_10 H 0.5602 0.4609 0.5262
C30_10 C 0.51426(13) 0.52979(18) 0.53816(4)
H22_10 H 0.4739 0.4868 0.5466
C8_12 C 0.15038(16) 0.00883(18) 0.16428(4)
H5_12 H 0.1731 0.0652 0.1590
H7_10 H 0.1223 0.0037 0.1774
C9_12 C 0.49291(13) 0.20232(13) 0.21767(3)
C10_12 C 0.42049(13) 0.14601(13) 0.20503(3)
C11_12 C 0.42235(14) 0.08600(14) 0.19275(3)
H8_12 H 0.4699 0.0797 0.1929
C12_12 C 0.35651(14) 0.03544(15) 0.18029(4)
C13_10 C 0.28415(14) 0.04138(14) 0.17996(3)
C14_10 C 0.28204(14) 0.10115(15) 0.19264(4)
H10_10 H 0.2340 0.1064 0.1928
C15_12 C 0.34886(13) 0.15240(13) 0.20482(4)
H11_12 H 0.3462 0.1927 0.2132
Zn1_23 Zn 0.3334 0.6666 0.111866(6)
N1_10 N 0.21746(12) 0.99118(13) 0.16743(3)
O1_23 O 0.3334 0.6666 0.08213(4)
O2_12 O 0.28490(11) 0.72980(11) 0.12220(3)
O3_12 O 0.27391(10) 0.79591(10) 0.09452(2)
C1_12 C 0.26979(13) 0.78156(13) 0.11364(3)
C2_12 C 0.24768(13) 0.83132(13) 0.12741(3)
C3_12 C 0.23675(14) 0.89446(14) 0.11944(3)
H1_12 H 0.2373 0.9021 0.1050
C4_12 C 0.22506(13) 0.94629(14) 0.13265(3)
H2_12 H 0.2185 0.9899 0.1272
C5_12 C 0.22305(13) 0.93459(14) 0.15372(3)
C6_12 C 0.22849(16) 0.86778(15) 0.16168(4)
H3_10 H 0.2235 0.8575 0.1760
C7_12 C 0.24124(14) 0.81662(14) 0.14856(4)
H4_12 H 0.2456 0.7716 0.1539
H6_12 H 0.1108 0.9693 0.1543
H9_12 H 0.3600 0.9959 0.1717
N2_11 N 0.00882(13) 0.22627(18) 0.16743(3)
O6_12 O 0.27020(11) 0.55509(16) 0.12220(3)
O7_12 O 0.20409(10) 0.47799(14) 0.09452(2)
C16_12 C 0.21844(13) 0.48822(18) 0.11364(3)
C17_12 C 0.16868(13) 0.41635(18) 0.12741(3)
C18_12 C 0.10554(14) 0.34228(20) 0.11944(3)
H12_12 H 0.0979 0.3351 0.1050
C19_11 C 0.05371(14) 0.27876(19) 0.13265(3)
H13_11 H 0.0101 0.2285 0.1272
C20_11 C 0.06541(14) 0.28845(19) 0.15372(3)
C21_12 C 0.13222(15) 0.36070(22) 0.16168(4)
H14_12 H 0.1425 0.3659 0.1760
C22_12 C 0.18338(14) 0.42461(20) 0.14856(4)
H15_12 H 0.2284 0.4739 0.1539
H17_11 H 0.0307 0.1414 0.1543
H20_12 H 0.0041 0.3640 0.1717
N3_12 N 0.77373(18) 0.78254(12) 0.16743(3)
O10_12 O 0.44491(16) 0.71510(11) 0.12220(3)
O11_12 O 0.52201(14) 0.72609(10) 0.09452(2)
C31_12 C 0.51178(18) 0.73021(13) 0.11364(3)
C32_12 C 0.58365(18) 0.75232(13) 0.12741(3)
C33_12 C 0.65772(20) 0.76325(14) 0.11944(3)
H23_12 H 0.6649 0.7627 0.1050
C34_12 C 0.72124(19) 0.77494(13) 0.13265(3)
H24_12 H 0.7715 0.7815 0.1272
C35_12 C 0.71155(19) 0.77695(13) 0.15372(3)
C36_12 C 0.63930(22) 0.77151(16) 0.16168(4)
H25_12 H 0.6341 0.7765 0.1760
C37_12 C 0.57539(20) 0.75876(14) 0.14856(4)
H26_12 H 0.5261 0.7544 0.1539
C38_12 C 0.85846(24) 0.84962(16) 0.16428(4)
H27_12 H 0.8922 0.8269 0.1590
H28_12 H 0.8586 0.8892 0.1543
H29_12 H 0.8815 0.8777 0.1774
C39_12 C 0.70942(18) 0.50709(13) 0.21767(3)
C40_12 C 0.72553(18) 0.57951(13) 0.20503(3)
C41_12 C 0.66366(20) 0.57765(14) 0.19275(3)
H30_12 H 0.6099 0.5301 0.1929
C42_12 C 0.67894(21) 0.64349(14) 0.18029(4)
H31_12 H 0.6360 0.6400 0.1717
C43_12 C 0.75724(20) 0.71585(14) 0.17996(3)
C44_12 C 0.81912(21) 0.71796(14) 0.19264(4)
H32_12 H 0.8725 0.7660 0.1928
C45_12 C 0.80355(18) 0.65114(13) 0.20482(4)
H33_12 H 0.8466 0.6538 0.2132
C23_11 C 0.99117(18) 0.14154(24) 0.16428(4)
H16_11 H 0.9348 0.1078 0.1590
H18_11 H 0.9963 0.1185 0.1774
C24_11 C 0.79768(13) 0.29058(18) 0.21767(3)
C25_11 C 0.85399(13) 0.27447(18) 0.20503(3)
C26_12 C 0.91400(14) 0.33634(20) 0.19275(3)
H19_12 H 0.9203 0.3901 0.1929
C27_11 C 0.96456(15) 0.32106(21) 0.18029(4)
C28_11 C 0.95862(14) 0.24276(20) 0.17996(3)
C29_11 C 0.89885(15) 0.18088(21) 0.19264(4)
H21_11 H 0.8936 0.1275 0.1928
C30_11 C 0.84760(13) 0.19645(18) 0.20482(4)
H22_11 H 0.8073 0.1534 0.2132
Zn1_24 Zn 0.0000 1.0000 0.945200(6)
O1_24 O 0.0000 1.0000 0.91547(4)
O18_6 O 0.07053(9) 0.89579(13) 0.89322(2)
N2_12 N 0.34215(13) 0.89294(18) 0.83410(3)
C19_12 C 0.38704(14) 0.94543(19) 0.79932(3)
H13_12 H 0.3434 0.8952 0.7939
C20_12 C 0.39874(14) 0.95512(19) 0.82039(3)
C23_12 C 0.32450(18) 0.80821(24) 0.83095(4)
H16_12 H 0.2681 0.7745 0.8257
H17_12 H 0.3640 0.8081 0.8210
H18_12 H 0.3296 0.7852 0.8441
C24_12 C 0.13101(13) 0.95725(18) 0.88434(3)
C25_12 C 0.18732(13) 0.94114(18) 0.87170(3)
C27_12 C 0.29789(15) 0.98773(21) 0.84696(4)
C28_12 C 0.29195(14) 0.90943(20) 0.84663(3)
C29_12 C 0.23218(15) 0.84755(21) 0.85931(4)
H21_12 H 0.2269 0.7942 0.8595
C30_12 C 0.18093(13) 0.86312(18) 0.87149(4)
H22_12 H 0.1406 0.8201 0.8799
N1_11 N 0.67548(13) 0.11588(12) 0.00077(3)
H3_11 H 0.8091 0.1099 0.0094
H7_11 H 0.6629 0.2111 0.0108
C13_11 C 0.62528(14) 0.04919(14) 0.01330(3)
C14_11 C 0.56551(15) 0.05130(14) 0.02598(4)
H10_11 H 0.5602 0.0994 0.0262
N1_12 N 0.32452(13) 0.88412(12) 0.99923(3)
H3_12 H 0.1909 0.8901 0.9906
H7_12 H 0.3371 0.7889 0.9892
C13_12 C 0.37472(14) 0.95081(14) 0.98670(3)
C14_12 C 0.43449(15) 0.94870(14) 0.97402(4)
H10_12 H 0.4398 0.9006 0.9738
loop_
_geom_bond_atom_site_label_1
_geom_bond_atom_site_label_2
_geom_bond_site_symmetry_1
_geom_bond_site_symmetry_2
Zn1 O1 1_555 1_555
Zn2 O1 1_555 1_555
N1 C5 1_555 1_555
O1 Zn3 1_555 1_555
O2 Zn1 1_555 1_555
O3 Zn2 1_555 1_555
O4 C9 1_555 1_555
O5 C9 1_555 1_555
C1 O2 1_555 1_555
C2 C1 1_555 1_555
C3 C2 1_555 1_555
H1 C3 1_555 1_555
C4 C3 1_555 1_555
H2 C4 1_555 1_555
C5 C4 1_555 1_555
C6 C5 1_555 1_555
H3 C6 1_555 1_555
C7 C2 1_555 1_555
H4 C7 1_555 1_555
C8 N1 1_555 1_555
H5 C8 1_555 1_555
H6 C8 1_555 1_555
H7 C8 1_555 1_555
C9 C10 1_555 1_555
C10 C11 1_555 1_555
C11 H8 1_555 1_555
C12 C11 1_555 1_555
H9 C12 1_555 1_555
C13 N1 1_555 1_555
C14 C13 1_555 1_555
H10 C14 1_555 1_555
C15 C10 1_555 1_555
H11 C15 1_555 1_555
Zn3 O7 1_555 1_555
O6 Zn1 1_555 1_555
O7 C16 1_555 1_555
C16 O6 1_555 1_555
C17 C16 1_555 1_555
C18 C17 1_555 1_555
H12 C18 1_555 1_555
H14 C21 1_555 1_555
C22 C17 1_555 1_555
H15 C22 1_555 1_555
C26 H19 1_555 1_555
Zn4 O1 1_555 1_555
O10 Zn1 1_555 1_555
O11 Zn4 1_555 1_555
C31 O10 1_555 1_555
C32 C31 1_555 1_555
C33 C32 1_555 1_555
H23 C33 1_555 1_555
H25 C36 1_555 1_555
C37 C32 1_555 1_555
H26 C37 1_555 1_555
C41 H30 1_555 1_555
Zn6 O12 1_555 1_555
Zn8 O8 1_555 1_555
Zn10 O4 1_555 1_555
O14 Zn4 1_555 1_555
O15 Zn3 1_555 1_555
O16 Zn2 1_555 1_555
O17 Zn2 1_555 1_555
O18 Zn4 1_555 1_555
O19 Zn3 1_555 1_555
O3 C1 1_555 1_555
C6 C7 1_555 1_555
C12 C13 1_555 1_555
C14 C15 1_555 1_555
C21 C22 1_555 1_555
O11 C31 1_555 1_555
C36 C37 1_555 1_555
N3 C35 1_555 1_555
O13 C39 1_555 1_555
H24 C34 1_555 1_555
C35 C34 1_555 1_555
C38 N3 1_555 1_555
H27 C38 1_555 1_555
H28 C38 1_555 1_555
H29 C38 1_555 1_555
C39 C40 1_555 1_555
C43 N3 1_555 1_555
C44 C43 1_555 1_555
H32 C44 1_555 1_555
C45 C40 1_555 1_555
H33 C45 1_555 1_555
Zn8 O13 1_555 1_555
C42 C43 1_555 1_555
C44 C45 1_555 1_555
Zn1_2 O1_2 1_555 1_555
O1_2 Zn3_2 1_555 1_555
Zn3_2 O7_2 1_555 1_555
N2 C20 1_555 1_555
O6_2 Zn1_2 1_555 1_555
O7_2 C16_2 1_555 1_555
O8_2 C24 1_555 1_555
O9 C24 1_555 1_555
C16_2 O6_2 1_555 1_555
C17_2 C16_2 1_555 1_555
C18_2 C17_2 1_555 1_555
H12_2 C18_2 1_555 1_555
C19 C18_2 1_555 1_555
H13 C19 1_555 1_555
C20 C19 1_555 1_555
C21_2 C20 1_555 1_555
H14_2 C21_2 1_555 1_555
C22_2 C17_2 1_555 1_555
H15_2 C22_2 1_555 1_555
C23 N2 1_555 1_555
H16 C23 1_555 1_555
H17 C23 1_555 1_555
H18 C23 1_555 1_555
C24 C25 1_555 1_555
C25 C26_2 1_555 1_555
C26_2 H19_2 1_555 1_555
C27 C26_2 1_555 1_555
H20_2 C27 1_555 1_555
C28 N2 1_555 1_555
C29 C28 1_555 1_555
H21 C29 1_555 1_555
C30 C25 1_555 1_555
H22 C30 1_555 1_555
Zn8_2 O8_2 1_555 1_555
Zn10_2 O9 1_555 1_555
O15_2 Zn3_2 1_555 1_555
O19_2 Zn3_2 1_555 1_555
C21_2 C22_2 1_555 1_555
C27 C28 1_555 1_555
C29 C30 1_555 1_555
Zn1_3 O1_3 1_555 1_555
Zn2_2 O1_3 1_555 1_555
N1_2 C5_2 1_555 1_555
O2_2 Zn1_3 1_555 1_555
O3_2 Zn2_2 1_555 1_555
C1_2 O2_2 1_555 1_555
C2_2 C1_2 1_555 1_555
C3_2 C2_2 1_555 1_555
H1_2 C3_2 1_555 1_555
C4_2 C3_2 1_555 1_555
H2_2 C4_2 1_555 1_555
C5_2 C4_2 1_555 1_555
C6_2 C5_2 1_555 1_555
H3_2 C6_2 1_555 1_555
C7_2 C2_2 1_555 1_555
H4_2 C7_2 1_555 1_555
C8_2 N1_2 1_555 1_555
H5_2 C8_2 1_555 1_555
H6_2 C8_2 1_555 1_555
H7_2 C8_2 1_555 1_555
C13_2 N1_2 1_555 1_555
C14_2 C13_2 1_555 1_555
H10_2 C14_2 1_555 1_555
O16_2 Zn2_2 1_555 1_555
O3_2 C1_2 1_555 1_555
C6_2 C7_2 1_555 1_555
Zn1_4 O1_4 1_555 1_555
O12_2 C39_2 1_555 1_555
O13_2 C39_2 1_555 1_555
C39_2 C40_2 1_555 1_555
C40_2 C41_2 1_555 1_555
C41_2 H30_2 1_555 1_555
C42_2 C41_2 1_555 1_555
H31_2 C42_2 1_555 1_555
C45_2 C40_2 1_555 1_555
H33_2 C45_2 1_555 1_555
Zn6_2 O12_2 1_555 1_555
Zn8_2 O13_2 1_555 1_555
Zn1_5 O1_5 1_555 1_555
O4_2 C9_2 1_555 1_555
O5_2 C9_2 1_555 1_555
C9_2 C10_2 1_555 1_555
C10_2 C11_2 1_555 1_555
C11_2 H8_2 1_555 1_555
C12_2 C11_2 1_555 1_555
H9_2 C12_2 1_555 1_555
C15_2 C10_2 1_555 1_555
H11_2 C15_2 1_555 1_555
Zn4_2 O1_5 1_555 1_555
N3_2 C35_2 1_555 1_555
O10_2 Zn1_5 1_555 1_555
O11_2 Zn4_2 1_555 1_555
C31_2 O10_2 1_555 1_555
C32_2 C31_2 1_555 1_555
C33_2 C32_2 1_555 1_555
H23_2 C33_2 1_555 1_555
C34_2 C33_2 1_555 1_555
H24_2 C34_2 1_555 1_555
C35_2 C34_2 1_555 1_555
C36_2 C35_2 1_555 1_555
H25_2 C36_2 1_555 1_555
C37_2 C32_2 1_555 1_555
H26_2 C37_2 1_555 1_555
C38_2 N3_2 1_555 1_555
H27_2 C38_2 1_555 1_555
H28_2 C38_2 1_555 1_555
H29_2 C38_2 1_555 1_555
C43_2 N3_2 1_555 1_555
C44_2 C43_2 1_555 1_555
H32_2 C44_2 1_555 1_555
Zn6_2 O5_2 1_555 1_555
Zn10_2 O4_2 1_555 1_555
O14_2 Zn4_2 1_555 1_555
O11_2 C31_2 1_555 1_555
C36_2 C37_2 1_555 1_555
O8_3 C24_2 1_555 1_555
O9_2 C24_2 1_555 1_555
H16_2 C23_2 1_555 1_555
H18_2 C23_2 1_555 1_555
C24_2 C25_2 1_555 1_555
C25_2 C26_3 1_555 1_555
C26_3 H19_3 1_555 1_555
C27_2 C26_3 1_555 1_555
C29_2 C28_2 1_555 1_555
H21_2 C29_2 1_555 1_555
C30_2 C25_2 1_555 1_555
H22_2 C30_2 1_555 1_555
Zn8_3 O8_3 1_555 1_555
Zn10_3 O9_2 1_555 1_555
C27_2 C28_2 1_555 1_555
C29_2 C30_2 1_555 1_555
Zn1_6 O1_6 1_555 1_555
Zn2_3 O1_6 1_555 1_555
N1_3 C5_3 1_555 1_555
O1_6 Zn3_3 1_555 1_555
O2_3 Zn1_6 1_555 1_555
O3_3 Zn2_3 1_555 1_555
C1_3 O2_3 1_555 1_555
C2_3 C1_3 1_555 1_555
C3_3 C2_3 1_555 1_555
H1_3 C3_3 1_555 1_555
C4_3 C3_3 1_555 1_555
H2_3 C4_3 1_555 1_555
C5_3 C4_3 1_555 1_555
C6_3 C5_3 1_555 1_555
H3_3 C6_3 1_555 1_555
C7_3 C2_3 1_555 1_555
H4_3 C7_3 1_555 1_555
Zn3_3 O7_3 1_555 1_555
N2_2 C20_2 1_555 1_555
O6_3 Zn1_6 1_555 1_555
O7_3 C16_3 1_555 1_555
C16_3 O6_3 1_555 1_555
C17_3 C16_3 1_555 1_555
C18_3 C17_3 1_555 1_555
H12_3 C18_3 1_555 1_555
C19_2 C18_3 1_555 1_555
H13_2 C19_2 1_555 1_555
C20_2 C19_2 1_555 1_555
C21_3 C20_2 1_555 1_555
H14_3 C21_3 1_555 1_555
C22_3 C17_3 1_555 1_555
H15_3 C22_3 1_555 1_555
Zn4_3 O1_6 1_555 1_555
N3_3 C35_3 1_555 1_555
O10_3 Zn1_6 1_555 1_555
O11_3 Zn4_3 1_555 1_555
O12_3 C39_3 1_555 1_555
O13_3 C39_3 1_555 1_555
C31_3 O10_3 1_555 1_555
C32_3 C31_3 1_555 1_555
C33_3 C32_3 1_555 1_555
H23_3 C33_3 1_555 1_555
C34_3 C33_3 1_555 1_555
H24_3 C34_3 1_555 1_555
C35_3 C34_3 1_555 1_555
C36_3 C35_3 1_555 1_555
H25_3 C36_3 1_555 1_555
C37_3 C32_3 1_555 1_555
H26_3 C37_3 1_555 1_555
C38_3 N3_3 1_555 1_555
H27_3 C38_3 1_555 1_555
H28_3 C38_3 1_555 1_555
H29_3 C38_3 1_555 1_555
C39_3 C40_3 1_555 1_555
C40_3 C41_3 1_555 1_555
C41_3 H30_3 1_555 1_555
C42_3 C41_3 1_555 1_555
H31_3 C42_3 1_555 1_555
C43_3 N3_3 1_555 1_555
C44_3 C43_3 1_555 1_555
H32_3 C44_3 1_555 1_555
C45_3 C40_3 1_555 1_555
H33_3 C45_3 1_555 1_555
Zn6_3 O12_3 1_555 1_555
Zn8_3 O13_3 1_555 1_555
O14_3 Zn4_3 1_555 1_555
O15_3 Zn3_3 1_555 1_555
O16_3 Zn2_3 1_555 1_555
O17_3 Zn2_3 1_555 1_555
O18_3 Zn4_3 1_555 1_555
O19_3 Zn3_3 1_555 1_555
O3_3 C1_3 1_555 1_555
C6_3 C7_3 1_555 1_555
C21_3 C22_3 1_555 1_555
O11_3 C31_3 1_555 1_555
C36_3 C37_3 1_555 1_555
C42_3 C43_3 1_555 1_555
C44_3 C45_3 1_555 1_555
O4_3 C9_3 1_555 1_555
O5_3 C9_3 1_555 1_555
H5_3 C8_3 1_555 1_555
H7_3 C8_3 1_555 1_555
C9_3 C10_3 1_555 1_555
C10_3 C11_3 1_555 1_555
C11_3 H8_3 1_555 1_555
C12_3 C11_3 1_555 1_555
C14_3 C13_3 1_555 1_555
H10_3 C14_3 1_555 1_555
C15_3 C10_3 1_555 1_555
H11_3 C15_3 1_555 1_555
Zn6_3 O5_3 1_555 1_555
Zn10_3 O4_3 1_555 1_555
C12_3 C13_3 1_555 1_555
C14_3 C15_3 1_555 1_555
N3_4 C35_4 1_555 1_555
O19_2 C39_4 1_555 1_555
H24_4 C34_4 1_555 1_555
C35_4 C34_4 1_555 1_555
C38_4 N3_4 1_555 1_555
H27_4 C38_4 1_555 1_555
H28_4 C38_4 1_555 1_555
H29_4 C38_4 1_555 1_555
C39_4 C40_4 1_555 1_555
C43_4 N3_4 1_555 1_555
C44_4 C43_4 1_555 1_555
H32_4 C44_4 1_555 1_555
C45_4 C40_4 1_555 1_555
H33_4 C45_4 1_555 1_555
C42_4 C43_4 1_555 1_555
C44_4 C45_4 1_555 1_555
Zn1_7 O1_7 1_555 1_555
Zn6_3 O1_7 1_555 1_555
N1_4 C5_4 1_555 1_555
O1_7 Zn8_3 1_555 1_555
O2_4 Zn1_7 1_555 1_555
O3_4 Zn6_3 1_555 1_555
O14_2 C9_4 1_555 1_555
O17_2 C9_4 1_555 1_555
C1_4 O2_4 1_555 1_555
C2_4 C1_4 1_555 1_555
C3_4 C2_4 1_555 1_555
H1_4 C3_4 1_555 1_555
C4_4 C3_4 1_555 1_555
H2_4 C4_4 1_555 1_555
C5_4 C4_4 1_555 1_555
C6_4 C5_4 1_555 1_555
H3_4 C6_4 1_555 1_555
C7_4 C2_4 1_555 1_555
H4_4 C7_4 1_555 1_555
C8_4 N1_4 1_555 1_555
H5_4 C8_4 1_555 1_555
H6_4 C8_4 1_555 1_555
H7_4 C8_4 1_555 1_555
C9_4 C10_4 1_555 1_555
C10_4 C11_4 1_555 1_555
C11_4 H8_4 1_555 1_555
C12_4 C11_4 1_555 1_555
H9_4 C12_4 1_555 1_555
C13_4 N1_4 1_555 1_555
C14_4 C13_4 1_555 1_555
H10_4 C14_4 1_555 1_555
C15_4 C10_4 1_555 1_555
H11_4 C15_4 1_555 1_555
Zn8_3 O7_4 1_555 1_555
O6_4 Zn1_7 1_555 1_555
O7_4 C16_4 1_555 1_555
C16_4 O6_4 1_555 1_555
C17_4 C16_4 1_555 1_555
C18_4 C17_4 1_555 1_555
H12_4 C18_4 1_555 1_555
H14_4 C21_4 1_555 1_555
C22_4 C17_4 1_555 1_555
H15_4 C22_4 1_555 1_555
C26_4 H19_4 1_555 1_555
Zn10_3 O1_7 1_555 1_555
O10_4 Zn1_7 1_555 1_555
O11_4 Zn10_3 1_555 1_555
C31_4 O10_4 1_555 1_555
C32_4 C31_4 1_555 1_555
C33_4 C32_4 1_555 1_555
H23_4 C33_4 1_555 1_555
H25_4 C36_4 1_555 1_555
C37_4 C32_4 1_555 1_555
H26_4 C37_4 1_555 1_555
C41_4 H30_4 1_555 1_555
O3_4 C1_4 1_555 1_555
C6_4 C7_4 1_555 1_555
C12_4 C13_4 1_555 1_555
C14_4 C15_4 1_555 1_555
C21_4 C22_4 1_555 1_555
O11_4 C31_4 1_555 1_555
C36_4 C37_4 1_555 1_555
N2_3 C20_3 1_555 1_555
O18_2 C24_3 1_555 1_555
H13_3 C19_3 1_555 1_555
C20_3 C19_3 1_555 1_555
C23_3 N2_3 1_555 1_555
H16_3 C23_3 1_555 1_555
H17_3 C23_3 1_555 1_555
H18_3 C23_3 1_555 1_555
C24_3 C25_3 1_555 1_555
C28_3 N2_3 1_555 1_555
C29_3 C28_3 1_555 1_555
H21_3 C29_3 1_555 1_555
C30_3 C25_3 1_555 1_555
H22_3 C30_3 1_555 1_555
C27_3 C28_3 1_555 1_555
C29_3 C30_3 1_555 1_555
O14 C9_5 1_555 1_555
O17 C9_5 1_555 1_555
H5_5 C8_5 1_555 1_555
H7_5 C8_5 1_555 1_555
C9_5 C10_5 1_555 1_555
C10_5 C11_5 1_555 1_555
C11_5 H8_5 1_555 1_555
C12_5 C11_5 1_555 1_555
C14_5 C13_5 1_555 1_555
H10_5 C14_5 1_555 1_555
C15_5 C10_5 1_555 1_555
H11_5 C15_5 1_555 1_555
C12_5 C13_5 1_555 1_555
C14_5 C15_5 1_555 1_555
Zn1_8 O1_8 1_555 1_555
Zn6_2 O1_8 1_555 1_555
N1_5 C5_5 1_555 1_555
O1_8 Zn8_2 1_555 1_555
O2_5 Zn1_8 1_555 1_555
O3_5 Zn6_2 1_555 1_555
C1_5 O2_5 1_555 1_555
C2_5 C1_5 1_555 1_555
C3_5 C2_5 1_555 1_555
H1_5 C3_5 1_555 1_555
C4_5 C3_5 1_555 1_555
H2_5 C4_5 1_555 1_555
C5_5 C4_5 1_555 1_555
C6_5 C5_5 1_555 1_555
H3_5 C6_5 1_555 1_555
C7_5 C2_5 1_555 1_555
H4_5 C7_5 1_555 1_555
Zn8_2 O7_5 1_555 1_555
N2_4 C20_4 1_555 1_555
O6_5 Zn1_8 1_555 1_555
O7_5 C16_5 1_555 1_555
C16_5 O6_5 1_555 1_555
C17_5 C16_5 1_555 1_555
C18_5 C17_5 1_555 1_555
H12_5 C18_5 1_555 1_555
C19_4 C18_5 1_555 1_555
H13_4 C19_4 1_555 1_555
C20_4 C19_4 1_555 1_555
C21_5 C20_4 1_555 1_555
H14_5 C21_5 1_555 1_555
C22_5 C17_5 1_555 1_555
H15_5 C22_5 1_555 1_555
Zn10_2 O1_8 1_555 1_555
N3_5 C35_5 1_555 1_555
O10_5 Zn1_8 1_555 1_555
O11_5 Zn10_2 1_555 1_555
O16 C39_5 1_555 1_555
O19 C39_5 1_555 1_555
C31_5 O10_5 1_555 1_555
C32_5 C31_5 1_555 1_555
C33_5 C32_5 1_555 1_555
H23_5 C33_5 1_555 1_555
C34_5 C33_5 1_555 1_555
H24_5 C34_5 1_555 1_555
C35_5 C34_5 1_555 1_555
C36_5 C35_5 1_555 1_555
H25_5 C36_5 1_555 1_555
C37_5 C32_5 1_555 1_555
H26_5 C37_5 1_555 1_555
C38_5 N3_5 1_555 1_555
H27_5 C38_5 1_555 1_555
H28_5 C38_5 1_555 1_555
H29_5 C38_5 1_555 1_555
C39_5 C40_5 1_555 1_555
C40_5 C41_5 1_555 1_555
C41_5 H30_5 1_555 1_555
C42_5 C41_5 1_555 1_555
H31_5 C42_5 1_555 1_555
C43_5 N3_5 1_555 1_555
C44_5 C43_5 1_555 1_555
H32_5 C44_5 1_555 1_555
C45_5 C40_5 1_555 1_555
H33_5 C45_5 1_555 1_555
O3_5 C1_5 1_555 1_555
C6_5 C7_5 1_555 1_555
C21_5 C22_5 1_555 1_555
O11_5 C31_5 1_555 1_555
C36_5 C37_5 1_555 1_555
C42_5 C43_5 1_555 1_555
C44_5 C45_5 1_555 1_555
O15 C24_4 1_555 1_555
O18 C24_4 1_555 1_555
H16_4 C23_4 1_555 1_555
H18_4 C23_4 1_555 1_555
C24_4 C25_4 1_555 1_555
C25_4 C26_5 1_555 1_555
C26_5 H19_5 1_555 1_555
C27_4 C26_5 1_555 1_555
C29_4 C28_4 1_555 1_555
H21_4 C29_4 1_555 1_555
C30_4 C25_4 1_555 1_555
H22_4 C30_4 1_555 1_555
C27_4 C28_4 1_555 1_555
C29_4 C30_4 1_555 1_555
Zn1_9 O1_9 1_555 1_555
Zn10 O1_9 1_555 1_555
O10_6 Zn1_9 1_555 1_555
O11_6 Zn10 1_555 1_555
C31_6 O10_6 1_555 1_555
C32_6 C31_6 1_555 1_555
C33_6 C32_6 1_555 1_555
H23_6 C33_6 1_555 1_555
C34_6 C33_6 1_555 1_555
H24_6 C34_6 1_555 1_555
C35_6 C34_6 1_555 1_555
C36_6 C35_6 1_555 1_555
C37_6 C32_6 1_555 1_555
H26_6 C37_6 1_555 1_555
H27_6 C38_6 1_555 1_555
H28_6 C38_6 1_555 1_555
O11_6 C31_6 1_555 1_555
C36_6 C37_6 1_555 1_555
O14_3 C9_6 1_555 1_555
O17_3 C9_6 1_555 1_555
C9_6 C10_6 1_555 1_555
C10_6 C11_6 1_555 1_555
C11_6 H8_6 1_555 1_555
C12_6 C11_6 1_555 1_555
H9_6 C12_6 1_555 1_555
C15_6 C10_6 1_555 1_555
H11_6 C15_6 1_555 1_555
C43_6 N3_6 1_555 1_555
C44_6 C43_6 1_555 1_555
H32_6 C44_6 1_555 1_555
Zn1_10 O1_10 1_555 1_555
Zn6 O1_10 1_555 1_555
O2_6 Zn1_10 1_555 1_555
O3_6 Zn6 1_555 1_555
C1_6 O2_6 1_555 1_555
C2_6 C1_6 1_555 1_555
C3_6 C2_6 1_555 1_555
H1_6 C3_6 1_555 1_555
C4_6 C3_6 1_555 1_555
H2_6 C4_6 1_555 1_555
C5_6 C4_6 1_555 1_555
C6_6 C5_6 1_555 1_555
C7_6 C2_6 1_555 1_555
H4_6 C7_6 1_555 1_555
H5_6 C8_6 1_555 1_555
H6_6 C8_6 1_555 1_555
O3_6 C1_6 1_555 1_555
C6_6 C7_6 1_555 1_555
O16_3 C39_6 1_555 1_555
O19_3 C39_6 1_555 1_555
C39_6 C40_6 1_555 1_555
C40_6 C41_6 1_555 1_555
C41_6 H30_6 1_555 1_555
C42_6 C41_6 1_555 1_555
H31_6 C42_6 1_555 1_555
C45_6 C40_6 1_555 1_555
H33_6 C45_6 1_555 1_555
Zn1_11 O1_11 1_555 1_555
O1_11 Zn8 1_555 1_555
Zn8 O7_6 1_555 1_555
O6_6 Zn1_11 1_555 1_555
O7_6 C16_6 1_555 1_555
C16_6 O6_6 1_555 1_555
C17_6 C16_6 1_555 1_555
C18_6 C17_6 1_555 1_555
H12_6 C18_6 1_555 1_555
C19_5 C18_6 1_555 1_555
H13_5 C19_5 1_555 1_555
C20_5 C19_5 1_555 1_555
C21_6 C20_5 1_555 1_555
C22_6 C17_6 1_555 1_555
H15_6 C22_6 1_555 1_555
H16_5 C23_5 1_555 1_555
H17_5 C23_5 1_555 1_555
C21_6 C22_6 1_555 1_555
O15_3 C24_5 1_555 1_555
O18_3 C24_5 1_555 1_555
C24_5 C25_5 1_555 1_555
C25_5 C26_6 1_555 1_555
C26_6 H19_6 1_555 1_555
C27_5 C26_6 1_555 1_555
H20_6 C27_5 1_555 1_555
C28_5 N2_5 1_555 1_555
C29_5 C28_5 1_555 1_555
H21_5 C29_5 1_555 1_555
C30_5 C25_5 1_555 1_555
H22_5 C30_5 1_555 1_555
C27_5 C28_5 1_555 1_555
C29_5 C30_5 1_555 1_555
N2_6 C20_6 1_555 1_555
O9_3 C24_6 1_555 1_555
H13_6 C19_6 1_555 1_555
C20_6 C19_6 1_555 1_555
C23_6 N2_6 1_555 1_555
H16_6 C23_6 1_555 1_555
H17_6 C23_6 1_555 1_555
H18_6 C23_6 1_555 1_555
C24_6 C25_6 1_555 1_555
C28_6 N2_6 1_555 1_555
C29_6 C28_6 1_555 1_555
H21_6 C29_6 1_555 1_555
C30_6 C25_6 1_555 1_555
H22_6 C30_6 1_555 1_555
C27_6 C28_6 1_555 1_555
C29_6 C30_6 1_555 1_555
Zn1_12 O1_12 1_555 1_555
N2_7 C20_7 1_555 1_555
O9_4 C24_7 1_555 1_555
H13_7 C19_7 1_555 1_555
C20_7 C19_7 1_555 1_555
C23_7 N2_7 1_555 1_555
H16_7 C23_7 1_555 1_555
H17_7 C23_7 1_555 1_555
H18_7 C23_7 1_555 1_555
C24_7 C25_7 1_555 1_555
C28_7 N2_7 1_555 1_555
C29_7 C28_7 1_555 1_555
H21_7 C29_7 1_555 1_555
C30_7 C25_7 1_555 1_555
H22_7 C30_7 1_555 1_555
C27_7 C28_7 1_555 1_555
C29_7 C30_7 1_555 1_555
Zn1_13 O1_13 1_555 1_555
Zn2_4 O1_13 1_555 1_555
N1_6 C5_7 1_555 1_555
O1_13 Zn3_4 1_555 1_555
O2_7 Zn1_13 1_555 1_555
O3_7 Zn2_4 1_555 1_555
O4_4 C9_7 1_555 1_555
O5_4 C9_7 1_555 1_555
C1_7 O2_7 1_555 1_555
C2_7 C1_7 1_555 1_555
C3_7 C2_7 1_555 1_555
H1_7 C3_7 1_555 1_555
C4_7 C3_7 1_555 1_555
H2_7 C4_7 1_555 1_555
C5_7 C4_7 1_555 1_555
C6_7 C5_7 1_555 1_555
H3_6 C6_7 1_555 1_555
C7_7 C2_7 1_555 1_555
H4_7 C7_7 1_555 1_555
C8_7 N1_6 1_555 1_555
H5_7 C8_7 1_555 1_555
H6_7 C8_7 1_555 1_555
H7_6 C8_7 1_555 1_555
C9_7 C10_7 1_555 1_555
C10_7 C11_7 1_555 1_555
C11_7 H8_7 1_555 1_555
C12_7 C11_7 1_555 1_555
H9_7 C12_7 1_555 1_555
C13_6 N1_6 1_555 1_555
C14_6 C13_6 1_555 1_555
H10_6 C14_6 1_555 1_555
C15_7 C10_7 1_555 1_555
H11_7 C15_7 1_555 1_555
Zn3_4 O7_7 1_555 1_555
O6_7 Zn1_13 1_555 1_555
O7_7 C16_7 1_555 1_555
C16_7 O6_7 1_555 1_555
C17_7 C16_7 1_555 1_555
C18_7 C17_7 1_555 1_555
H12_7 C18_7 1_555 1_555
H14_7 C21_7 1_555 1_555
C22_7 C17_7 1_555 1_555
H15_7 C22_7 1_555 1_555
C26_7 H19_7 1_555 1_555
Zn4_4 O1_13 1_555 1_555
O10_7 Zn1_13 1_555 1_555
O11_7 Zn4_4 1_555 1_555
C31_7 O10_7 1_555 1_555
C32_7 C31_7 1_555 1_555
C33_7 C32_7 1_555 1_555
H23_7 C33_7 1_555 1_555
H25_7 C36_7 1_555 1_555
C37_7 C32_7 1_555 1_555
H26_7 C37_7 1_555 1_555
C41_7 H30_7 1_555 1_555
Zn6_4 O12_4 1_555 1_555
Zn8_4 O8_4 1_555 1_555
Zn10_4 O4_4 1_555 1_555
O14_4 Zn4_4 1_555 1_555
O15_4 Zn3_4 1_555 1_555
O16_4 Zn2_4 1_555 1_555
O17_4 Zn2_4 1_555 1_555
O18_4 Zn4_4 1_555 1_555
O19_4 Zn3_4 1_555 1_555
O3_7 C1_7 1_555 1_555
C6_7 C7_7 1_555 1_555
C12_7 C13_6 1_555 1_555
C14_6 C15_7 1_555 1_555
C21_7 C22_7 1_555 1_555
O11_7 C31_7 1_555 1_555
C36_7 C37_7 1_555 1_555
N3_7 C35_7 1_555 1_555
O13_4 C39_7 1_555 1_555
H24_7 C34_7 1_555 1_555
C35_7 C34_7 1_555 1_555
C38_7 N3_7 1_555 1_555
H27_7 C38_7 1_555 1_555
H28_7 C38_7 1_555 1_555
H29_7 C38_7 1_555 1_555
C39_7 C40_7 1_555 1_555
C43_7 N3_7 1_555 1_555
C44_7 C43_7 1_555 1_555
H32_7 C44_7 1_555 1_555
C45_7 C40_7 1_555 1_555
H33_7 C45_7 1_555 1_555
Zn8_4 O13_4 1_555 1_555
C42_7 C43_7 1_555 1_555
C44_7 C45_7 1_555 1_555
O8_5 C24_8 1_555 1_555
O9_5 C24_8 1_555 1_555
H16_8 C23_8 1_555 1_555
H18_8 C23_8 1_555 1_555
C24_8 C25_8 1_555 1_555
C25_8 C26_8 1_555 1_555
C26_8 H19_8 1_555 1_555
C27_8 C26_8 1_555 1_555
C29_8 C28_8 1_555 1_555
H21_8 C29_8 1_555 1_555
C30_8 C25_8 1_555 1_555
H22_8 C30_8 1_555 1_555
Zn8_5 O8_5 1_555 1_555
Zn10_5 O9_5 1_555 1_555
C27_8 C28_8 1_555 1_555
C29_8 C30_8 1_555 1_555
Zn1_14 O1_14 1_555 1_555
Zn2_5 O1_14 1_555 1_555
N1_7 C5_8 1_555 1_555
O1_14 Zn3_5 1_555 1_555
O2_8 Zn1_14 1_555 1_555
O3_8 Zn2_5 1_555 1_555
C1_8 O2_8 1_555 1_555
C2_8 C1_8 1_555 1_555
C3_8 C2_8 1_555 1_555
H1_8 C3_8 1_555 1_555
C4_8 C3_8 1_555 1_555
H2_8 C4_8 1_555 1_555
C5_8 C4_8 1_555 1_555
C6_8 C5_8 1_555 1_555
H3_7 C6_8 1_555 1_555
C7_8 C2_8 1_555 1_555
H4_8 C7_8 1_555 1_555
Zn3_5 O7_8 1_555 1_555
N2_8 C20_8 1_555 1_555
O6_8 Zn1_14 1_555 1_555
O7_8 C16_8 1_555 1_555
C16_8 O6_8 1_555 1_555
C17_8 C16_8 1_555 1_555
C18_8 C17_8 1_555 1_555
H12_8 C18_8 1_555 1_555
C19_8 C18_8 1_555 1_555
H13_8 C19_8 1_555 1_555
C20_8 C19_8 1_555 1_555
C21_8 C20_8 1_555 1_555
H14_8 C21_8 1_555 1_555
C22_8 C17_8 1_555 1_555
H15_8 C22_8 1_555 1_555
Zn4_5 O1_14 1_555 1_555
N3_8 C35_8 1_555 1_555
O10_8 Zn1_14 1_555 1_555
O11_8 Zn4_5 1_555 1_555
O12_5 C39_8 1_555 1_555
O13_5 C39_8 1_555 1_555
C31_8 O10_8 1_555 1_555
C32_8 C31_8 1_555 1_555
C33_8 C32_8 1_555 1_555
H23_8 C33_8 1_555 1_555
C34_8 C33_8 1_555 1_555
H24_8 C34_8 1_555 1_555
C35_8 C34_8 1_555 1_555
C36_8 C35_8 1_555 1_555
H25_8 C36_8 1_555 1_555
C37_8 C32_8 1_555 1_555
H26_8 C37_8 1_555 1_555
C38_8 N3_8 1_555 1_555
H27_8 C38_8 1_555 1_555
H28_8 C38_8 1_555 1_555
H29_8 C38_8 1_555 1_555
C39_8 C40_8 1_555 1_555
C40_8 C41_8 1_555 1_555
C41_8 H30_8 1_555 1_555
C42_8 C41_8 1_555 1_555
H31_8 C42_8 1_555 1_555
C43_8 N3_8 1_555 1_555
C44_8 C43_8 1_555 1_555
H32_8 C44_8 1_555 1_555
C45_8 C40_8 1_555 1_555
H33_8 C45_8 1_555 1_555
Zn6_5 O12_5 1_555 1_555
Zn8_5 O13_5 1_555 1_555
O14_5 Zn4_5 1_555 1_555
O15_5 Zn3_5 1_555 1_555
O16_5 Zn2_5 1_555 1_555
O17_5 Zn2_5 1_555 1_555
O18_5 Zn4_5 1_555 1_555
O19_5 Zn3_5 1_555 1_555
O3_8 C1_8 1_555 1_555
C6_8 C7_8 1_555 1_555
C21_8 C22_8 1_555 1_555
O11_8 C31_8 1_555 1_555
C36_8 C37_8 1_555 1_555
C42_8 C43_8 1_555 1_555
C44_8 C45_8 1_555 1_555
O4_5 C9_8 1_555 1_555
O5_5 C9_8 1_555 1_555
H5_8 C8_8 1_555 1_555
H7_7 C8_8 1_555 1_555
C9_8 C10_8 1_555 1_555
C10_8 C11_8 1_555 1_555
C11_8 H8_8 1_555 1_555
C12_8 C11_8 1_555 1_555
C14_7 C13_7 1_555 1_555
H10_7 C14_7 1_555 1_555
C15_8 C10_8 1_555 1_555
H11_8 C15_8 1_555 1_555
Zn6_5 O5_5 1_555 1_555
Zn10_5 O4_5 1_555 1_555
C12_8 C13_7 1_555 1_555
C14_7 C15_8 1_555 1_555
O8_6 C24_9 1_555 1_555
O9_6 C24_9 1_555 1_555
C24_9 C25_9 1_555 1_555
C25_9 C26_9 1_555 1_555
C26_9 H19_9 1_555 1_555
C27_9 C26_9 1_555 1_555
H20_9 C27_9 1_555 1_555
C28_9 N2_9 1_555 1_555
C29_9 C28_9 1_555 1_555
H21_9 C29_9 1_555 1_555
C30_9 C25_9 1_555 1_555
H22_9 C30_9 1_555 1_555
Zn8_6 O8_6 1_555 1_555
Zn10_6 O9_6 1_555 1_555
C27_9 C28_9 1_555 1_555
C29_9 C30_9 1_555 1_555
Zn1_15 O1_15 1_555 1_555
O1_15 Zn3_6 1_555 1_555
Zn3_6 O7_9 1_555 1_555
O6_9 Zn1_15 1_555 1_555
O7_9 C16_9 1_555 1_555
C16_9 O6_9 1_555 1_555
C17_9 C16_9 1_555 1_555
C18_9 C17_9 1_555 1_555
H12_9 C18_9 1_555 1_555
C19_9 C18_9 1_555 1_555
H13_9 C19_9 1_555 1_555
C20_9 C19_9 1_555 1_555
C21_9 C20_9 1_555 1_555
C22_9 C17_9 1_555 1_555
H15_9 C22_9 1_555 1_555
H16_9 C23_9 1_555 1_555
H17_9 C23_9 1_555 1_555
O15_6 Zn3_6 1_555 1_555
O19_6 Zn3_6 1_555 1_555
C21_9 C22_9 1_555 1_555
O12_6 C39_9 1_555 1_555
O13_6 C39_9 1_555 1_555
C39_9 C40_9 1_555 1_555
C40_9 C41_9 1_555 1_555
C41_9 H30_9 1_555 1_555
C42_9 C41_9 1_555 1_555
H31_9 C42_9 1_555 1_555
C45_9 C40_9 1_555 1_555
H33_9 C45_9 1_555 1_555
Zn6_6 O12_6 1_555 1_555
Zn8_6 O13_6 1_555 1_555
Zn1_16 O1_16 1_555 1_555
Zn2_6 O1_16 1_555 1_555
O2_9 Zn1_16 1_555 1_555
O3_9 Zn2_6 1_555 1_555
C1_9 O2_9 1_555 1_555
C2_9 C1_9 1_555 1_555
C3_9 C2_9 1_555 1_555
H1_9 C3_9 1_555 1_555
C4_9 C3_9 1_555 1_555
H2_9 C4_9 1_555 1_555
C5_9 C4_9 1_555 1_555
C6_9 C5_9 1_555 1_555
C7_9 C2_9 1_555 1_555
H4_9 C7_9 1_555 1_555
H5_9 C8_9 1_555 1_555
H6_9 C8_9 1_555 1_555
O16_6 Zn2_6 1_555 1_555
O3_9 C1_9 1_555 1_555
C6_9 C7_9 1_555 1_555
O4_6 C9_9 1_555 1_555
O5_6 C9_9 1_555 1_555
C9_9 C10_9 1_555 1_555
C10_9 C11_9 1_555 1_555
C11_9 H8_9 1_555 1_555
C12_9 C11_9 1_555 1_555
H9_9 C12_9 1_555 1_555
C15_9 C10_9 1_555 1_555
H11_9 C15_9 1_555 1_555
C43_9 N3_9 1_555 1_555
C44_9 C43_9 1_555 1_555
H32_9 C44_9 1_555 1_555
Zn6_6 O5_6 1_555 1_555
Zn10_6 O4_6 1_555 1_555
Zn1_17 O1_17 1_555 1_555
Zn4_6 O1_17 1_555 1_555
O10_9 Zn1_17 1_555 1_555
O11_9 Zn4_6 1_555 1_555
C31_9 O10_9 1_555 1_555
C32_9 C31_9 1_555 1_555
C33_9 C32_9 1_555 1_555
H23_9 C33_9 1_555 1_555
C34_9 C33_9 1_555 1_555
H24_9 C34_9 1_555 1_555
C35_9 C34_9 1_555 1_555
C36_9 C35_9 1_555 1_555
C37_9 C32_9 1_555 1_555
H26_9 C37_9 1_555 1_555
H27_9 C38_9 1_555 1_555
H28_9 C38_9 1_555 1_555
O14_6 Zn4_6 1_555 1_555
O11_9 C31_9 1_555 1_555
C36_9 C37_9 1_555 1_555
N3_10 C35_10 1_555 1_555
O19_6 C39_10 1_555 1_555
H24_10 C34_10 1_555 1_555
C35_10 C34_10 1_555 1_555
C38_10 N3_10 1_555 1_555
H27_10 C38_10 1_555 1_555
H28_10 C38_10 1_555 1_555
H29_10 C38_10 1_555 1_555
C39_10 C40_10 1_555 1_555
C43_10 N3_10 1_555 1_555
C44_10 C43_10 1_555 1_555
H32_10 C44_10 1_555 1_555
C45_10 C40_10 1_555 1_555
H33_10 C45_10 1_555 1_555
C42_10 C43_10 1_555 1_555
C44_10 C45_10 1_555 1_555
Zn1_18 O1_18 1_555 1_555
Zn6_5 O1_18 1_555 1_555
N1_8 C5_10 1_555 1_555
O1_18 Zn8_5 1_555 1_555
O2_10 Zn1_18 1_555 1_555
O3_10 Zn6_5 1_555 1_555
O14_6 C9_10 1_555 1_555
O17_6 C9_10 1_555 1_555
C1_10 O2_10 1_555 1_555
C2_10 C1_10 1_555 1_555
C3_10 C2_10 1_555 1_555
H1_10 C3_10 1_555 1_555
C4_10 C3_10 1_555 1_555
H2_10 C4_10 1_555 1_555
C5_10 C4_10 1_555 1_555
C6_10 C5_10 1_555 1_555
H3_8 C6_10 1_555 1_555
C7_10 C2_10 1_555 1_555
H4_10 C7_10 1_555 1_555
C8_10 N1_8 1_555 1_555
H5_10 C8_10 1_555 1_555
H6_10 C8_10 1_555 1_555
H7_8 C8_10 1_555 1_555
C9_10 C10_10 1_555 1_555
C10_10 C11_10 1_555 1_555
C11_10 H8_10 1_555 1_555
C12_10 C11_10 1_555 1_555
H9_10 C12_10 1_555 1_555
C13_8 N1_8 1_555 1_555
C14_8 C13_8 1_555 1_555
H10_8 C14_8 1_555 1_555
C15_10 C10_10 1_555 1_555
H11_10 C15_10 1_555 1_555
Zn8_5 O7_10 1_555 1_555
O6_10 Zn1_18 1_555 1_555
O7_10 C16_10 1_555 1_555
C16_10 O6_10 1_555 1_555
C17_10 C16_10 1_555 1_555
C18_10 C17_10 1_555 1_555
H12_10 C18_10 1_555 1_555
H14_10 C21_10 1_555 1_555
C22_10 C17_10 1_555 1_555
H15_10 C22_10 1_555 1_555
C26_10 H19_10 1_555 1_555
Zn10_5 O1_18 1_555 1_555
O10_10 Zn1_18 1_555 1_555
O11_10 Zn10_5 1_555 1_555
C31_10 O10_10 1_555 1_555
C32_10 C31_10 1_555 1_555
C33_10 C32_10 1_555 1_555
H23_10 C33_10 1_555 1_555
H25_10 C36_10 1_555 1_555
C37_10 C32_10 1_555 1_555
H26_10 C37_10 1_555 1_555
C41_10 H30_10 1_555 1_555
O3_10 C1_10 1_555 1_555
C6_10 C7_10 1_555 1_555
C12_10 C13_8 1_555 1_555
C14_8 C15_10 1_555 1_555
C21_10 C22_10 1_555 1_555
O11_10 C31_10 1_555 1_555
C36_10 C37_10 1_555 1_555
Zn1_19 O1_19 1_555 1_555
O14_5 C9_11 1_555 1_555
O17_5 C9_11 1_555 1_555
C9_11 C10_11 1_555 1_555
C10_11 C11_11 1_555 1_555
C11_11 H8_11 1_555 1_555
C12_11 C11_11 1_555 1_555
H9_11 C12_11 1_555 1_555
C15_11 C10_11 1_555 1_555
H11_11 C15_11 1_555 1_555
Zn10_4 O1_19 1_555 1_555
N3_11 C35_11 1_555 1_555
O10_11 Zn1_19 1_555 1_555
O11_11 Zn10_4 1_555 1_555
C31_11 O10_11 1_555 1_555
C32_11 C31_11 1_555 1_555
C33_11 C32_11 1_555 1_555
H23_11 C33_11 1_555 1_555
C34_11 C33_11 1_555 1_555
H24_11 C34_11 1_555 1_555
C35_11 C34_11 1_555 1_555
C36_11 C35_11 1_555 1_555
H25_11 C36_11 1_555 1_555
C37_11 C32_11 1_555 1_555
H26_11 C37_11 1_555 1_555
C38_11 N3_11 1_555 1_555
H27_11 C38_11 1_555 1_555
H28_11 C38_11 1_555 1_555
H29_11 C38_11 1_555 1_555
C43_11 N3_11 1_555 1_555
C44_11 C43_11 1_555 1_555
H32_11 C44_11 1_555 1_555
O11_11 C31_11 1_555 1_555
C36_11 C37_11 1_555 1_555
Zn1_20 O1_20 1_555 1_555
O16_5 C39_11 1_555 1_555
O19_5 C39_11 1_555 1_555
C39_11 C40_11 1_555 1_555
C40_11 C41_11 1_555 1_555
C41_11 H30_11 1_555 1_555
C42_11 C41_11 1_555 1_555
H31_11 C42_11 1_555 1_555
C45_11 C40_11 1_555 1_555
H33_11 C45_11 1_555 1_555
Zn1_21 O1_21 1_555 1_555
Zn6_4 O1_21 1_555 1_555
N1_9 C5_11 1_555 1_555
O2_11 Zn1_21 1_555 1_555
O3_11 Zn6_4 1_555 1_555
C1_11 O2_11 1_555 1_555
C2_11 C1_11 1_555 1_555
C3_11 C2_11 1_555 1_555
H1_11 C3_11 1_555 1_555
C4_11 C3_11 1_555 1_555
H2_11 C4_11 1_555 1_555
C5_11 C4_11 1_555 1_555
C6_11 C5_11 1_555 1_555
H3_9 C6_11 1_555 1_555
C7_11 C2_11 1_555 1_555
H4_11 C7_11 1_555 1_555
C8_11 N1_9 1_555 1_555
H5_11 C8_11 1_555 1_555
H6_11 C8_11 1_555 1_555
H7_9 C8_11 1_555 1_555
C13_9 N1_9 1_555 1_555
C14_9 C13_9 1_555 1_555
H10_9 C14_9 1_555 1_555
O3_11 C1_11 1_555 1_555
C6_11 C7_11 1_555 1_555
Zn1_22 O1_22 1_555 1_555
O1_22 Zn8_4 1_555 1_555
Zn8_4 O7_11 1_555 1_555
N2_10 C20_10 1_555 1_555
O6_11 Zn1_22 1_555 1_555
O7_11 C16_11 1_555 1_555
O15_5 C24_10 1_555 1_555
O18_5 C24_10 1_555 1_555
C16_11 O6_11 1_555 1_555
C17_11 C16_11 1_555 1_555
C18_11 C17_11 1_555 1_555
H12_11 C18_11 1_555 1_555
C19_10 C18_11 1_555 1_555
H13_10 C19_10 1_555 1_555
C20_10 C19_10 1_555 1_555
C21_11 C20_10 1_555 1_555
H14_11 C21_11 1_555 1_555
C22_11 C17_11 1_555 1_555
H15_11 C22_11 1_555 1_555
C23_10 N2_10 1_555 1_555
H16_10 C23_10 1_555 1_555
H17_10 C23_10 1_555 1_555
H18_10 C23_10 1_555 1_555
C24_10 C25_10 1_555 1_555
C25_10 C26_11 1_555 1_555
C26_11 H19_11 1_555 1_555
C27_10 C26_11 1_555 1_555
H20_11 C27_10 1_555 1_555
C28_10 N2_10 1_555 1_555
C29_10 C28_10 1_555 1_555
H21_10 C29_10 1_555 1_555
C30_10 C25_10 1_555 1_555
H22_10 C30_10 1_555 1_555
C21_11 C22_11 1_555 1_555
C27_10 C28_10 1_555 1_555
C29_10 C30_10 1_555 1_555
O14_4 C9_12 1_555 1_555
O17_4 C9_12 1_555 1_555
H5_12 C8_12 1_555 1_555
H7_10 C8_12 1_555 1_555
C9_12 C10_12 1_555 1_555
C10_12 C11_12 1_555 1_555
C11_12 H8_12 1_555 1_555
C12_12 C11_12 1_555 1_555
C14_10 C13_10 1_555 1_555
H10_10 C14_10 1_555 1_555
C15_12 C10_12 1_555 1_555
H11_12 C15_12 1_555 1_555
C12_12 C13_10 1_555 1_555
C14_10 C15_12 1_555 1_555
Zn1_23 O1_23 1_555 1_555
Zn6_6 O1_23 1_555 1_555
N1_10 C5_12 1_555 1_555
O1_23 Zn8_6 1_555 1_555
O2_12 Zn1_23 1_555 1_555
O3_12 Zn6_6 1_555 1_555
C1_12 O2_12 1_555 1_555
C2_12 C1_12 1_555 1_555
C3_12 C2_12 1_555 1_555
H1_12 C3_12 1_555 1_555
C4_12 C3_12 1_555 1_555
H2_12 C4_12 1_555 1_555
C5_12 C4_12 1_555 1_555
C6_12 C5_12 1_555 1_555
H3_10 C6_12 1_555 1_555
C7_12 C2_12 1_555 1_555
H4_12 C7_12 1_555 1_555
Zn8_6 O7_12 1_555 1_555
N2_11 C20_11 1_555 1_555
O6_12 Zn1_23 1_555 1_555
O7_12 C16_12 1_555 1_555
C16_12 O6_12 1_555 1_555
C17_12 C16_12 1_555 1_555
C18_12 C17_12 1_555 1_555
H12_12 C18_12 1_555 1_555
C19_11 C18_12 1_555 1_555
H13_11 C19_11 1_555 1_555
C20_11 C19_11 1_555 1_555
C21_12 C20_11 1_555 1_555
H14_12 C21_12 1_555 1_555
C22_12 C17_12 1_555 1_555
H15_12 C22_12 1_555 1_555
Zn10_6 O1_23 1_555 1_555
N3_12 C35_12 1_555 1_555
O10_12 Zn1_23 1_555 1_555
O11_12 Zn10_6 1_555 1_555
O16_4 C39_12 1_555 1_555
O19_4 C39_12 1_555 1_555
C31_12 O10_12 1_555 1_555
C32_12 C31_12 1_555 1_555
C33_12 C32_12 1_555 1_555
H23_12 C33_12 1_555 1_555
C34_12 C33_12 1_555 1_555
H24_12 C34_12 1_555 1_555
C35_12 C34_12 1_555 1_555
C36_12 C35_12 1_555 1_555
H25_12 C36_12 1_555 1_555
C37_12 C32_12 1_555 1_555
H26_12 C37_12 1_555 1_555
C38_12 N3_12 1_555 1_555
H27_12 C38_12 1_555 1_555
H28_12 C38_12 1_555 1_555
H29_12 C38_12 1_555 1_555
C39_12 C40_12 1_555 1_555
C40_12 C41_12 1_555 1_555
C41_12 H30_12 1_555 1_555
C42_12 C41_12 1_555 1_555
H31_12 C42_12 1_555 1_555
C43_12 N3_12 1_555 1_555
C44_12 C43_12 1_555 1_555
H32_12 C44_12 1_555 1_555
C45_12 C40_12 1_555 1_555
H33_12 C45_12 1_555 1_555
O3_12 C1_12 1_555 1_555
C6_12 C7_12 1_555 1_555
C21_12 C22_12 1_555 1_555
O11_12 C31_12 1_555 1_555
C36_12 C37_12 1_555 1_555
C42_12 C43_12 1_555 1_555
C44_12 C45_12 1_555 1_555
O15_4 C24_11 1_555 1_555
O18_4 C24_11 1_555 1_555
H16_11 C23_11 1_555 1_555
H18_11 C23_11 1_555 1_555
C24_11 C25_11 1_555 1_555
C25_11 C26_12 1_555 1_555
C26_12 H19_12 1_555 1_555
C27_11 C26_12 1_555 1_555
C29_11 C28_11 1_555 1_555
H21_11 C29_11 1_555 1_555
C30_11 C25_11 1_555 1_555
H22_11 C30_11 1_555 1_555
C27_11 C28_11 1_555 1_555
C29_11 C30_11 1_555 1_555
Zn1_24 O1_24 1_555 1_555
N2_12 C20_12 1_555 1_555
O18_6 C24_12 1_555 1_555
H13_12 C19_12 1_555 1_555
C20_12 C19_12 1_555 1_555
C23_12 N2_12 1_555 1_555
H16_12 C23_12 1_555 1_555
H17_12 C23_12 1_555 1_555
H18_12 C23_12 1_555 1_555
C24_12 C25_12 1_555 1_555
C28_12 N2_12 1_555 1_555
C29_12 C28_12 1_555 1_555
H21_12 C29_12 1_555 1_555
C30_12 C25_12 1_555 1_555
H22_12 C30_12 1_555 1_555
C27_12 C28_12 1_555 1_555
C29_12 C30_12 1_555 1_555
C13_11 N1_11 1_555 1_555
C14_11 C13_11 1_555 1_555
H10_11 C14_11 1_555 1_555
C13_12 N1_12 1_555 1_555
C14_12 C13_12 1_555 1_555
H10_12 C14_12 1_555 1_555

#END
