
###############################################################################
#
# This file contains modified crystal structure data generated from the
# MOF subset of the Cambridge Structural Database (CSD) v543 
# hosted by the Cambridge Crystallographic Data Centre (CCDC).
#
# This work is licensed under the Creative Commons
# Attribution-NonCommercial-ShareAlike 4.0 International License.
# To view a copy of this license, visit
# http://creativecommons.org/licenses/by-nc-sa/4.0/
# or send a letter to
# Creative Commons, PO Box 1866, Mountain View, CA 94042, USA.
#
# CIF created using the CSD Python API on 29 September 2022
# The structure has been converted into the P1 space group
# The structure has a 3D framework
# The original CSD entry JUJMOS is in the rhombohedral crystal system
# The original CSD entry JUJMOS is in a Sohncke space group
# The framework has been calculated to contain at least 10.0% void space
# The void calculation uses a probe of radius 1.32A, grid spacing 0.4
#
###############################################################################

data_JUJMOS
_chemical_formula_moiety         '(C540 H396 N36 O164 Zn60)n'
_symmetry_cell_setting           triclinic
_symmetry_space_group_name_H-M   'P 1'
_symmetry_Int_Tables_number      1
_space_group_name_Hall           'P 1'
loop_
_symmetry_equiv_pos_site_id
_symmetry_equiv_pos_as_xyz
1 x,y,z
_cell_length_a                   19.168(3)
_cell_length_b                   19.168(3)
_cell_length_c                   67.695(13)
_cell_angle_alpha                90
_cell_angle_beta                 90
_cell_angle_gamma                120
_cell_volume                     21539.8
loop_
_atom_site_label
_atom_site_type_symbol
_atom_site_fract_x
_atom_site_fract_y
_atom_site_fract_z
Zn1 Zn 0.3333 0.6667 0.293476(14)
Zn2 Zn 0.35649(5) 0.58519(4) 0.331705(7)
Zn3 Zn 0.0000 0.0000 0.188452(14)
Zn4 Zn 0.10308(3) 0.08677(3) 0.150758(7)
O1 O 0.3333 0.6667 0.32189(9)
O2 O 0.0000 0.0000 0.15984(7)
O3 O 0.3376(3) 0.5749(3) 0.28323(5)
O4 O 0.3818(3) 0.5369(3) 0.30995(5)
O5 O 0.1034(3) 0.0805(3) 0.19820(5)
O6 O 0.1811(2) 0.1436(2) 0.17224(5)
O7 O 0.1530(2) 0.0442(2) 0.13365(5)
O9 O 0.5169(3) 0.2195(4) 0.01581(5)
O10 O 0.6021(4) 0.1698(3) 0.01412(9)
N1 N 0.4225(6) 0.3247(6) 0.24347(12)
C1 C 0.3663(4) 0.5351(5) 0.29190(10)
C2 C 0.3802(3) 0.4767(3) 0.27933(5)
C3 C 0.4218(4) 0.4405(4) 0.28684(5)
H1 H 0.4412 0.4510 0.3000
C4 C 0.4351(4) 0.3889(4) 0.27505(7)
H2 H 0.4636 0.3642 0.2802
C5 C 0.4068(3) 0.3735(3) 0.25573(7)
C6 C 0.3651(3) 0.4097(3) 0.24821(5)
H3 H 0.3457 0.3992 0.2350
C7 C 0.3518(3) 0.4613(3) 0.26001(5)
H4 H 0.3233 0.4860 0.2549
C8 C 0.4915(8) 0.3129(8) 0.24605(17)
H5 H 0.5414 0.3641 0.2440
H6 H 0.4884 0.2732 0.2364
H7 H 0.4910 0.2934 0.2595
C9 C 0.1700(4) 0.1296(4) 0.19015(7)
C10 C 0.2370(4) 0.1825(4) 0.20342(8)
C11 C 0.3129(4) 0.2305(4) 0.19696(9)
H8 H 0.3243 0.2301 0.1833
C12 C 0.3750(4) 0.2804(5) 0.20964(10)
H9 H 0.4272 0.3166 0.2046
C13 C 0.3598(6) 0.2765(7) 0.22920(13)
C14 C 0.2814(7) 0.2281(7) 0.23613(11)
H10 H 0.2683 0.2294 0.2496
C15 C 0.2255(5) 0.1799(7) 0.22317(9)
H11 H 0.1742 0.1412 0.2282
C21 C 0.3222(2) 0.0247(2) 0.09889(7)
H14 H 0.3707 0.0710 0.0948
C22 C 0.2689(2) 0.03305(18) 0.11128(6)
H15 H 0.2811 0.0850 0.1157
C24 C 0.5414(6) 0.1706(5) 0.02071(12)
C25 C 0.4942(3) 0.1123(3) 0.03682(7)
C26 C 0.5224(3) 0.0650(4) 0.04524(9)
H19 H 0.5727 0.0713 0.0412
C27 C 0.4771(3) 0.0084(3) 0.05957(9)
C29 C 0.3752(2) 0.0464(3) 0.05708(7)
H21 H 0.3249 0.0401 0.0611
C30 C 0.4206(3) 0.1031(3) 0.04274(7)
H22 H 0.4013 0.1354 0.0370
O16 O 0.0897(2) 0.1660(4) 0.13615(6)
N4 N 0.0617(4) 0.4161(6) 0.08044(11)
C46 C 0.0272(3) 0.1642(4) 0.12984(7)
C47 C 0.0346(2) 0.2326(3) 0.11725(7)
C48 C 0.11066(19) 0.29086(36) 0.11083(9)
H34 H 0.1569 0.2886 0.1149
C49 C 0.1190(2) 0.3524(4) 0.09844(9)
H35 H 0.1709 0.3922 0.0941
C50 C 0.0513(3) 0.3557(4) 0.09247(8)
C53 C 0.1384(6) 0.4901(9) 0.0804(2)
H38 H 0.1730 0.4877 0.0907
H39 H 0.1299 0.5356 0.0829
H40 H 0.1642 0.4970 0.0675
H42 H 0.0240 0.5204 0.0653
C58 C 0.0009(3) 0.4044(4) 0.06550(7)
Zn11 Zn 0.41481(4) 0.77130(6) 0.331705(7)
Zn12 Zn 0.22870(6) 0.64351(5) 0.331705(7)
O29 O 0.4251(3) 0.7627(4) 0.28323(5)
O30 O 0.2373(4) 0.6624(3) 0.28323(5)
O32 O 0.4472(4) 0.6307(5) 0.34914(5)
O34 O 0.2688(4) 0.5031(3) 0.34745(9)
Zn14 Zn 0.68982(5) 0.25186(4) 0.998372(7)
Zn18 Zn 0.56203(6) 0.31018(5) 0.998372(7)
Zn3_2 Zn -0.0000 1.0000 0.188452(14)
O2_2 O -0.0000 1.0000 0.15984(7)
O8 O 0.0763(3) 0.9103(2) 0.13615(6)
N2 N 0.3544(4) 0.9383(4) 0.08044(11)
C16 C 0.1370(3) 0.9728(3) 0.12984(7)
C17 C 0.1980(2) 0.9654(2) 0.11725(7)
C18 C 0.1802(3) 0.88934(19) 0.11083(9)
H12 H 0.1317 0.8431 0.1149
C19 C 0.2334(3) 0.8810(2) 0.09844(9)
H13 H 0.2213 0.8291 0.0941
C20 C 0.3044(3) 0.9487(3) 0.09247(8)
C23 C 0.3517(7) 0.8616(6) 0.0804(2)
H16 H 0.3147 0.8270 0.0907
H17 H 0.4057 0.8701 0.0829
H18 H 0.3328 0.8358 0.0675
H20 H 0.4964 0.9760 0.0653
C28 C 0.4035(3) 0.9991(3) 0.06550(7)
O20 O 0.1551(4) 0.6182(3) 0.30995(5)
C61 C 0.1688(6) 0.6337(4) 0.29190(10)
C62 C 0.0965(4) 0.6198(3) 0.27933(5)
C63 C 0.0187(6) 0.5782(4) 0.28684(5)
H45 H 0.0098 0.5588 0.3000
C66 C 0.0446(4) 0.6349(3) 0.24821(5)
H47 H 0.0535 0.6543 0.2350
C67 C 0.1095(4) 0.6482(3) 0.26001(5)
H48 H 0.1627 0.6767 0.2549
O31 O 0.1836(3) 0.5528(4) 0.34914(5)
O36 O 0.2344(5) 0.7312(4) 0.34745(9)
Zn3_3 Zn 1.0000 0.0000 0.188452(14)
O2_3 O 1.0000 0.0000 0.15984(7)
Zn6 Zn 0.91323(3) 0.01631(4) 0.150758(7)
O13 O 0.9195(3) 0.0229(4) 0.19820(5)
O14 O 0.8564(2) 0.0375(3) 0.17224(5)
O15 O 0.9558(2) 0.1088(3) 0.13365(5)
O17 O 0.7805(4) 0.2974(5) 0.01581(5)
O18 O 0.8302(3) 0.4323(5) 0.01412(9)
N3 N 0.6753(6) 0.0978(8) 0.24347(12)
C34 C 0.6111(4) 0.0462(6) 0.27505(7)
H24 H 0.6358 0.0994 0.2802
C35 C 0.6265(3) 0.0333(4) 0.25573(7)
C38 C 0.6871(8) 0.1786(11) 0.24605(17)
H27 H 0.6359 0.1773 0.2440
H28 H 0.7268 0.2152 0.2364
H29 H 0.7066 0.1976 0.2595
C39 C 0.8704(4) 0.0404(6) 0.19015(7)
C40 C 0.8175(4) 0.0545(6) 0.20342(8)
C41 C 0.7695(4) 0.0824(6) 0.19696(9)
H30 H 0.7699 0.0942 0.1833
C42 C 0.7196(5) 0.0946(6) 0.20964(10)
H31 H 0.6834 0.1106 0.2046
C43 C 0.7235(7) 0.0833(9) 0.22920(13)
C44 C 0.7719(7) 0.0533(10) 0.23613(11)
H32 H 0.7706 0.0389 0.2496
C45 C 0.8201(7) 0.0456(9) 0.22317(9)
H33 H 0.8588 0.0330 0.2282
C51 C 0.9753(2) 0.2975(3) 0.09889(7)
H36 H 0.9290 0.2997 0.0948
C52 C 0.96695(18) 0.23585(27) 0.11128(6)
H37 H 0.9150 0.1961 0.1157
C54 C 0.8294(5) 0.3708(8) 0.02071(12)
C55 C 0.8877(3) 0.3819(4) 0.03682(7)
C56 C 0.9350(4) 0.4574(5) 0.04524(9)
H41 H 0.9287 0.5014 0.0412
C57 C 0.9916(3) 0.4687(4) 0.05957(9)
C59 C 0.9536(3) 0.3288(4) 0.05708(7)
H43 H 0.9599 0.2848 0.0611
C60 C 0.8969(3) 0.3175(4) 0.04274(7)
H44 H 0.8646 0.2659 0.0370
Zn16 Zn 0.74814(4) 0.43797(6) 0.998372(7)
Zn3_4 Zn 1.0000 1.0000 0.188452(14)
O2_4 O 1.0000 1.0000 0.15984(7)
O12 O 0.4631(3) 0.8449(4) 0.30995(5)
C31 C 0.4649(5) 0.8312(6) 0.29190(10)
C32 C 0.5233(3) 0.9035(4) 0.27933(5)
C33 C 0.5595(4) 0.9813(6) 0.28684(5)
H23 H 0.5490 0.9902 0.3000
C36 C 0.5903(3) 0.9554(4) 0.24821(5)
H25 H 0.6008 0.9465 0.2350
C37 C 0.5387(3) 0.8905(4) 0.26001(5)
H26 H 0.5140 0.8373 0.2549
Zn8 Zn 0.98369(4) 0.89692(3) 0.150758(7)
O21 O 0.9771(4) 0.8966(3) 0.19820(5)
O22 O 0.9625(3) 0.8189(2) 0.17224(5)
O23 O 0.8912(3) 0.8470(2) 0.13365(5)
O24 O 0.8340(4) 0.9237(3) 0.13615(6)
O25 O 0.7026(5) 0.4831(3) 0.01581(5)
O26 O 0.5677(5) 0.3979(4) 0.01412(9)
N5 N 0.9022(8) 0.5775(6) 0.24347(12)
N6 N 0.5839(6) 0.6456(4) 0.08044(11)
C64 C 0.9538(6) 0.5649(4) 0.27505(7)
H46 H 0.9006 0.5364 0.2802
C65 C 0.9667(4) 0.5932(3) 0.25573(7)
C68 C 0.8214(11) 0.5085(8) 0.24605(17)
H49 H 0.8227 0.4586 0.2440
H50 H 0.7848 0.5116 0.2364
H51 H 0.8024 0.5090 0.2595
C69 C 0.9596(6) 0.8300(4) 0.19015(7)
C70 C 0.9455(6) 0.7630(4) 0.20342(8)
C71 C 0.9176(6) 0.6871(4) 0.19696(9)
H52 H 0.9058 0.6757 0.1833
C72 C 0.9054(6) 0.6250(4) 0.20964(10)
H53 H 0.8894 0.5728 0.2046
C73 C 0.9167(9) 0.6402(6) 0.22920(13)
C74 C 0.9467(10) 0.7186(7) 0.23613(11)
H54 H 0.9611 0.7317 0.2496
C75 C 0.9544(9) 0.7745(5) 0.22317(9)
H55 H 0.9670 0.8258 0.2282
C76 C 0.8358(4) 0.8630(3) 0.12984(7)
C77 C 0.7674(3) 0.8020(2) 0.11725(7)
C78 C 0.70914(36) 0.8198(3) 0.11083(9)
H56 H 0.7114 0.8683 0.1149
C79 C 0.6476(4) 0.7666(3) 0.09844(9)
H57 H 0.6078 0.7787 0.0941
C80 C 0.6443(4) 0.6956(3) 0.09247(8)
C81 C 0.7025(3) 0.6778(2) 0.09889(7)
H58 H 0.7003 0.6293 0.0948
C82 C 0.76415(27) 0.7311(2) 0.11128(6)
H59 H 0.8039 0.7189 0.1157
C83 C 0.5099(9) 0.6483(7) 0.0804(2)
H60 H 0.5123 0.6853 0.0907
H61 H 0.4644 0.5943 0.0829
H62 H 0.5030 0.6672 0.0675
C84 C 0.6292(8) 0.4586(6) 0.02071(12)
C85 C 0.6181(4) 0.5058(3) 0.03682(7)
C86 C 0.5426(5) 0.4776(3) 0.04524(9)
H63 H 0.4986 0.4273 0.0412
C87 C 0.5313(4) 0.5229(3) 0.05957(9)
H64 H 0.4796 0.5036 0.0653
C88 C 0.5956(4) 0.5965(3) 0.06550(7)
C89 C 0.6712(4) 0.6248(2) 0.05708(7)
H65 H 0.7152 0.6751 0.0611
C90 C 0.6825(4) 0.5794(3) 0.04274(7)
H66 H 0.7341 0.5987 0.0370
O33 O 0.3693(5) 0.8164(3) 0.34914(5)
O35 O 0.4969(3) 0.7656(5) 0.34745(9)
Zn1_2 Zn -0.0000 0.0000 0.626809(14)
O1_2 O -0.0000 0.0000 0.65522(9)
Zn11_2 Zn 0.08148(4) 0.10463(6) 0.665038(7)
O29_2 O 0.0918(3) 0.0960(4) 0.61656(5)
Zn1_3 Zn -0.0000 1.0000 0.626809(14)
Zn2_2 Zn 0.02316(5) 0.91852(4) 0.665038(7)
O1_3 O -0.0000 1.0000 0.65522(9)
O3_2 O 0.0043(3) 0.9082(3) 0.61656(5)
O4_2 O 0.0485(3) 0.8702(3) 0.64328(5)
N1_2 N 0.0892(6) 0.6580(6) 0.57680(12)
N2_2 N 0.0211(4) 0.2716(4) 0.41377(11)
C1_2 C 0.0330(4) 0.8684(5) 0.62523(10)
C2_2 C 0.0469(3) 0.8100(3) 0.61266(5)
C3_2 C 0.0885(4) 0.7738(4) 0.62017(5)
H1_2 H 0.1079 0.7843 0.6333
C4_2 C 0.1018(4) 0.7222(4) 0.60838(7)
H2_2 H 0.1303 0.6975 0.6135
C5_2 C 0.0735(3) 0.7068(3) 0.58906(7)
C6_2 C 0.0318(3) 0.7430(3) 0.58154(5)
H3_2 H 0.0124 0.7325 0.5683
C7_2 C 0.0185(3) 0.7946(3) 0.59334(5)
C8_2 C 0.1582(8) 0.6462(8) 0.57938(17)
H5_2 H 0.2081 0.6974 0.5773
H6_2 H 0.1551 0.6065 0.5697
H7_2 H 0.1577 0.6267 0.5928
C12_2 C 0.0417(4) 0.6137(5) 0.54297(10)
H9_2 H 0.0939 0.6499 0.5379
C13_2 C 0.0265(6) 0.6098(7) 0.56253(13)
H14_2 H 0.0374 0.4043 0.4281
C23_2 C 0.0184(7) 0.1949(6) 0.4137(2)
H17_2 H 0.0724 0.2034 0.4162
C24_2 C 0.2081(6) 0.5039(5) 0.35404(12)
C25_2 C 0.1609(3) 0.4456(3) 0.37015(7)
C26_2 C 0.1891(3) 0.3983(4) 0.37857(9)
H19_2 H 0.2394 0.4046 0.3745
C27_2 C 0.1438(3) 0.3417(3) 0.39290(9)
H20_2 H 0.1631 0.3093 0.3986
C28_2 C 0.0702(3) 0.3324(3) 0.39883(7)
C29_2 C 0.0419(2) 0.3797(3) 0.39041(7)
C30_2 C 0.0873(3) 0.4364(3) 0.37607(7)
H22_2 H 0.0680 0.4687 0.3703
O32_2 O 0.1138(4) 0.9641(5) 0.68248(5)
Zn1_4 Zn 1.0000 0.0000 0.626809(14)
O1_4 O 1.0000 0.0000 0.65522(9)
Zn1_5 Zn 1.0000 1.0000 0.626809(14)
Zn3_5 Zn 0.6667 0.3333 0.521785(14)
Zn4_2 Zn 0.76975(3) 0.42010(3) 0.484091(7)
O1_5 O 1.0000 1.0000 0.65522(9)
O2_5 O 0.6667 0.3333 0.49317(7)
O5_2 O 0.7701(3) 0.4138(3) 0.53153(5)
O6_2 O 0.8478(2) 0.4769(2) 0.50557(5)
O7_2 O 0.8197(2) 0.3775(2) 0.46698(5)
O8_2 O 0.7430(3) 0.2436(2) 0.46948(6)
H4_2 H 0.9900 0.8193 0.5882
C9_2 C 0.8367(4) 0.4629(4) 0.52348(7)
C10_2 C 0.9037(4) 0.5158(4) 0.53675(8)
C11_2 C 0.9796(4) 0.5638(4) 0.53029(9)
H8_2 H 0.9910 0.5634 0.5166
C14_2 C 0.9481(7) 0.5614(7) 0.56946(11)
H10_2 H 0.9350 0.5627 0.5829
C15_2 C 0.8922(5) 0.5132(7) 0.55650(9)
H11_2 H 0.8409 0.4745 0.5615
C16_2 C 0.8037(3) 0.3061(3) 0.46317(7)
C17_2 C 0.8647(2) 0.2987(2) 0.45058(7)
C18_2 C 0.8469(3) 0.22267(19) 0.44416(9)
H12_2 H 0.7984 0.1764 0.4482
C19_2 C 0.9001(3) 0.2143(2) 0.43177(9)
H13_2 H 0.8880 0.1624 0.4274
C20_2 C 0.9711(3) 0.2820(3) 0.42580(8)
C21_2 C 0.9889(2) 0.3580(2) 0.43222(7)
C22_2 C 0.9356(2) 0.36638(18) 0.44461(6)
H15_2 H 0.9478 0.4183 0.4490
H16_2 H 0.9814 0.1603 0.4240
H18_2 H 0.9995 0.1691 0.4008
H21_2 H 0.9916 0.3734 0.3944
Zn6_2 Zn 0.57990(3) 0.34964(4) 0.484091(7)
O12_2 O 0.1298(3) 0.1782(4) 0.64328(5)
O13_2 O 0.5862(3) 0.3562(4) 0.53153(5)
O14_2 O 0.5231(2) 0.3708(3) 0.50557(5)
O15_2 O 0.6225(2) 0.4421(3) 0.46698(5)
O16_2 O 0.7564(2) 0.4993(4) 0.46948(6)
N3_2 N 0.3420(6) 0.4311(8) 0.57680(12)
N4_2 N 0.7284(4) 0.7494(6) 0.41377(11)
C31_2 C 0.1316(5) 0.1645(6) 0.62523(10)
C32_2 C 0.1900(3) 0.2368(4) 0.61266(5)
C33_2 C 0.2262(4) 0.3146(6) 0.62017(5)
H23_2 H 0.2157 0.3235 0.6333
C34_2 C 0.2778(4) 0.3795(6) 0.60838(7)
H24_2 H 0.3025 0.4327 0.6135
C35_2 C 0.2932(3) 0.3666(4) 0.58906(7)
C36_2 C 0.2570(3) 0.2887(4) 0.58154(5)
H25_2 H 0.2675 0.2798 0.5683
C37_2 C 0.2054(3) 0.2238(4) 0.59334(5)
H26_2 H 0.1807 0.1706 0.5882
C38_2 C 0.3538(8) 0.5119(11) 0.57938(17)
H27_2 H 0.3026 0.5106 0.5773
H28_2 H 0.3935 0.5485 0.5697
H29_2 H 0.3733 0.5309 0.5928
C39_2 C 0.5371(4) 0.3737(6) 0.52348(7)
C40_2 C 0.4842(4) 0.3878(6) 0.53675(8)
C41_2 C 0.4362(4) 0.4157(6) 0.53029(9)
H30_2 H 0.4366 0.4275 0.5166
C42_2 C 0.3863(5) 0.4279(6) 0.54297(10)
H31_2 H 0.3501 0.4439 0.5379
C43_2 C 0.3902(7) 0.4166(9) 0.56253(13)
C44_2 C 0.4386(7) 0.3866(10) 0.56946(11)
H32_2 H 0.4373 0.3722 0.5829
C45_2 C 0.4868(7) 0.3789(9) 0.55650(9)
H33_2 H 0.5255 0.3663 0.5615
C46_2 C 0.6939(3) 0.4975(4) 0.46317(7)
C47_2 C 0.7013(2) 0.5659(3) 0.45058(7)
C48_2 C 0.77733(19) 0.62419(36) 0.44416(9)
H34_2 H 0.8236 0.6219 0.4482
C49_2 C 0.7857(2) 0.6857(4) 0.43177(9)
H35_2 H 0.8376 0.7255 0.4274
C50_2 C 0.7180(3) 0.6890(4) 0.42580(8)
C51_2 C 0.6420(2) 0.6308(3) 0.43222(7)
H36_2 H 0.5957 0.6330 0.4281
C52_2 C 0.63362(18) 0.56918(27) 0.44461(6)
H37_2 H 0.5817 0.5294 0.4490
C53_2 C 0.8051(6) 0.8234(9) 0.4137(2)
H38_2 H 0.8397 0.8210 0.4240
H39_2 H 0.7966 0.8689 0.4162
H40_2 H 0.8309 0.8303 0.4008
C54_2 C 0.4961(5) 0.7041(8) 0.35404(12)
C55_2 C 0.5544(3) 0.7152(4) 0.37015(7)
C56_2 C 0.6017(4) 0.7907(5) 0.37857(9)
H41_2 H 0.5954 0.8347 0.3745
C57_2 C 0.6583(3) 0.8020(4) 0.39290(9)
H42_2 H 0.6907 0.8537 0.3986
C58_2 C 0.6676(3) 0.7377(4) 0.39883(7)
C59_2 C 0.6203(3) 0.6621(4) 0.39041(7)
H43_2 H 0.6266 0.6181 0.3944
C60_2 C 0.5636(3) 0.6508(4) 0.37607(7)
H44_2 H 0.5313 0.5992 0.3703
Zn8_2 Zn 0.65036(4) 0.23025(3) 0.484091(7)
O21_2 O 0.6438(4) 0.2299(3) 0.53153(5)
O22_2 O 0.6292(3) 0.1522(2) 0.50557(5)
O23_2 O 0.5579(3) 0.1803(2) 0.46698(5)
O24_2 O 0.5007(4) 0.2570(3) 0.46948(6)
H48_2 H 0.8294 0.0100 0.5882
C69_2 C 0.6263(6) 0.1633(4) 0.52348(7)
C70_2 C 0.6122(6) 0.0963(4) 0.53675(8)
C71_2 C 0.5843(6) 0.0204(4) 0.53029(9)
H52_2 H 0.5725 0.0090 0.5166
C74_2 C 0.6134(10) 0.0519(7) 0.56946(11)
H54_2 H 0.6278 0.0650 0.5829
C75_2 C 0.6211(9) 0.1078(5) 0.55650(9)
H55_2 H 0.6337 0.1591 0.5615
C76_2 C 0.5025(4) 0.1963(3) 0.46317(7)
C77_2 C 0.4341(3) 0.1353(2) 0.45058(7)
C78_2 C 0.37581(36) 0.1531(3) 0.44416(9)
H56_2 H 0.3781 0.2016 0.4482
C79_2 C 0.3143(4) 0.0999(3) 0.43177(9)
H57_2 H 0.2745 0.1120 0.4274
C80_2 C 0.3110(4) 0.0289(3) 0.42580(8)
C81_2 C 0.3692(3) 0.0111(2) 0.43222(7)
C82_2 C 0.43082(27) 0.0644(2) 0.44461(6)
H59_2 H 0.4706 0.0522 0.4490
H60_2 H 0.1790 0.0186 0.4240
H62_2 H 0.1697 0.0005 0.4008
H65_2 H 0.3819 0.0084 0.3944
Zn12_2 Zn 0.89537(6) 0.97684(5) 0.665038(7)
O30_2 O 0.9040(4) 0.9957(3) 0.61656(5)
O33_2 O 0.0359(5) 0.1498(3) 0.68248(5)
O34_2 O 0.9354(4) 0.8365(3) 0.68079(9)
O35_2 O 0.1635(3) 0.0990(5) 0.68079(9)
O36_2 O 0.9010(5) 0.0646(4) 0.68079(9)
O20_2 O 0.8218(4) 0.9515(3) 0.64328(5)
N5_2 N 0.5689(8) 0.9108(6) 0.57680(12)
N6_2 N 0.2506(6) 0.9789(4) 0.41377(11)
C61_2 C 0.8355(6) 0.9670(4) 0.62523(10)
C62_2 C 0.7632(4) 0.9531(3) 0.61266(5)
C63_2 C 0.6854(6) 0.9115(4) 0.62017(5)
H45_2 H 0.6765 0.8921 0.6333
C64_2 C 0.6205(6) 0.8982(4) 0.60838(7)
H46_2 H 0.5673 0.8697 0.6135
C65_2 C 0.6334(4) 0.9265(3) 0.58906(7)
C66_2 C 0.7113(4) 0.9682(3) 0.58154(5)
H47_2 H 0.7202 0.9876 0.5683
C67_2 C 0.7762(4) 0.9815(3) 0.59334(5)
C68_2 C 0.4881(11) 0.8418(8) 0.57938(17)
H49_2 H 0.4894 0.7919 0.5773
H50_2 H 0.4515 0.8449 0.5697
H51_2 H 0.4691 0.8423 0.5928
C72_2 C 0.5721(6) 0.9583(4) 0.54297(10)
H53_2 H 0.5561 0.9061 0.5379
C73_2 C 0.5834(9) 0.9735(6) 0.56253(13)
H58_2 H 0.3670 0.9626 0.4281
C83_2 C 0.1766(9) 0.9816(7) 0.4137(2)
H61_2 H 0.1311 0.9276 0.4162
C84_2 C 0.2959(8) 0.7919(6) 0.35404(12)
C85_2 C 0.2848(4) 0.8391(3) 0.37015(7)
C86_2 C 0.2093(5) 0.8109(3) 0.37857(9)
H63_2 H 0.1653 0.7606 0.3745
C87_2 C 0.1980(4) 0.8562(3) 0.39290(9)
H64_2 H 0.1463 0.8369 0.3986
C88_2 C 0.2623(4) 0.9298(3) 0.39883(7)
C89_2 C 0.3379(4) 0.9581(2) 0.39041(7)
C90_2 C 0.3492(4) 0.9127(3) 0.37607(7)
H66_2 H 0.4008 0.9320 0.3703
O31_2 O 0.8502(3) 0.8862(4) 0.68248(5)
Zn1_6 Zn 0.6666 0.3334 0.960143(14)
O1_6 O 0.6666 0.3334 0.98856(9)
O3_3 O 0.6709(3) 0.2416(3) 0.94990(5)
O4_3 O 0.7151(3) 0.2036(3) 0.97662(5)
C1_3 C 0.6996(4) 0.2018(5) 0.95857(10)
C2_3 C 0.7135(3) 0.1434(3) 0.94600(5)
C3_3 C 0.7551(4) 0.1072(4) 0.95351(5)
H1_3 H 0.7745 0.1177 0.9667
C4_3 C 0.7684(4) 0.0556(4) 0.94172(7)
H2_3 H 0.7969 0.0309 0.9469
C5_3 C 0.7401(3) 0.0402(3) 0.92240(7)
C6_3 C 0.6984(3) 0.0764(3) 0.91488(5)
H3_3 H 0.6790 0.0659 0.9017
C7_3 C 0.6851(3) 0.1280(3) 0.92668(5)
H4_3 H 0.6566 0.1527 0.9216
H5_3 H 0.8747 0.0308 0.9107
N4_3 N 0.3950(4) 0.0828(6) 0.74711(11)
C49_3 C 0.4523(2) 0.0191(4) 0.76511(9)
H35_3 H 0.5042 0.0589 0.7608
C50_3 C 0.3846(3) 0.0224(4) 0.75914(8)
C53_3 C 0.4717(6) 0.1568(9) 0.7471(2)
H38_3 H 0.5063 0.1544 0.7574
H39_3 H 0.4632 0.2023 0.7496
H40_3 H 0.4975 0.1637 0.7342
C54_3 C 0.1627(5) 0.0375(8) 0.68738(12)
C55_3 C 0.2210(3) 0.0486(4) 0.70349(7)
C56_3 C 0.2683(4) 0.1241(5) 0.71191(9)
H41_3 H 0.2620 0.1681 0.7079
C57_3 C 0.3249(3) 0.1354(4) 0.72624(9)
H42_3 H 0.3573 0.1871 0.7320
C58_3 C 0.3342(3) 0.0711(4) 0.73217(7)
O29_3 O 0.7584(3) 0.4294(4) 0.94990(5)
O30_3 O 0.5706(4) 0.3291(3) 0.94990(5)
Zn3_6 Zn 0.3333 0.6667 0.855119(14)
Zn4_3 Zn 0.43641(3) 0.75344(3) 0.817425(7)
O2_6 O 0.3333 0.6667 0.82651(7)
O5_3 O 0.4367(3) 0.7472(3) 0.86487(5)
O6_3 O 0.5144(2) 0.8103(2) 0.83891(5)
O7_3 O 0.4863(2) 0.7109(2) 0.80032(5)
O8_3 O 0.4096(3) 0.5770(2) 0.80282(6)
N1_3 N 0.7558(6) 0.9914(6) 0.91014(12)
N2_3 N 0.6877(4) 0.6050(4) 0.74711(11)
C8_3 C 0.8248(8) 0.9796(8) 0.91272(17)
H6_3 H 0.8217 0.9399 0.9031
H7_3 H 0.8243 0.9601 0.9262
C9_3 C 0.5033(4) 0.7963(4) 0.85682(7)
C10_3 C 0.5703(4) 0.8492(4) 0.87009(8)
C11_3 C 0.6462(4) 0.8972(4) 0.86363(9)
H8_3 H 0.6576 0.8968 0.8500
C12_3 C 0.7083(4) 0.9471(5) 0.87631(10)
H9_3 H 0.7605 0.9833 0.8713
C13_3 C 0.6931(6) 0.9432(7) 0.89587(13)
C14_3 C 0.6147(7) 0.8948(7) 0.90280(11)
H10_3 H 0.6016 0.8961 0.9163
C15_3 C 0.5588(5) 0.8466(7) 0.88984(9)
H11_3 H 0.5075 0.8079 0.8949
C16_3 C 0.4703(3) 0.6395(3) 0.79651(7)
C17_3 C 0.5313(2) 0.6321(2) 0.78392(7)
C18_3 C 0.5135(3) 0.55601(19) 0.77750(9)
H12_3 H 0.4650 0.5098 0.7816
C19_3 C 0.5667(3) 0.5477(2) 0.76511(9)
H13_3 H 0.5546 0.4958 0.7608
C20_3 C 0.6377(3) 0.6154(3) 0.75914(8)
C21_3 C 0.6555(2) 0.6914(2) 0.76556(7)
H14_3 H 0.7040 0.7377 0.7615
C22_3 C 0.6022(2) 0.69972(18) 0.77795(6)
H15_3 H 0.6144 0.7517 0.7824
C23_3 C 0.6850(7) 0.5283(6) 0.7471(2)
H16_3 H 0.6480 0.4937 0.7574
H17_3 H 0.7390 0.5368 0.7496
H18_3 H 0.6661 0.5025 0.7342
C24_3 C 0.8747(6) 0.8373(5) 0.68738(12)
C25_3 C 0.8275(3) 0.7790(3) 0.70349(7)
C26_3 C 0.8557(3) 0.7317(4) 0.71191(9)
H19_3 H 0.9060 0.7380 0.7079
C27_3 C 0.8104(3) 0.6751(3) 0.72624(9)
H20_3 H 0.8297 0.6427 0.7320
C28_3 C 0.7368(3) 0.6658(3) 0.73217(7)
C29_3 C 0.7085(2) 0.7131(3) 0.72375(7)
H21_3 H 0.6582 0.7068 0.7278
C30_3 C 0.7539(3) 0.7698(3) 0.70941(7)
H22_3 H 0.7346 0.8021 0.7037
Zn6_3 Zn 0.24656(3) 0.68298(4) 0.817425(7)
O13_3 O 0.2528(3) 0.6896(4) 0.86487(5)
O14_3 O 0.1897(2) 0.7042(3) 0.83891(5)
O15_3 O 0.2891(2) 0.7755(3) 0.80032(5)
O16_3 O 0.4230(2) 0.8327(4) 0.80282(6)
N3_3 N 0.0086(6) 0.7645(8) 0.91014(12)
C38_3 C 0.0204(8) 0.8453(11) 0.91272(17)
H28_3 H 0.0601 0.8819 0.9031
H29_3 H 0.0399 0.8643 0.9262
C39_3 C 0.2037(4) 0.7071(6) 0.85682(7)
C40_3 C 0.1508(4) 0.7212(6) 0.87009(8)
C41_3 C 0.1028(4) 0.7491(6) 0.86363(9)
H30_3 H 0.1032 0.7609 0.8500
C42_3 C 0.0529(5) 0.7613(6) 0.87631(10)
H31_3 H 0.0167 0.7773 0.8713
C43_3 C 0.0568(7) 0.7500(9) 0.89587(13)
C44_3 C 0.1052(7) 0.7200(10) 0.90280(11)
H32_3 H 0.1039 0.7056 0.9163
C45_3 C 0.1534(7) 0.7123(9) 0.88984(9)
H33_3 H 0.1921 0.6997 0.8949
C46_3 C 0.3605(3) 0.8309(4) 0.79651(7)
C47_3 C 0.3679(2) 0.8993(3) 0.78392(7)
C48_3 C 0.44399(19) 0.95753(36) 0.77750(9)
H34_3 H 0.4902 0.9553 0.7816
C51_3 C 0.3086(2) 0.9642(3) 0.76556(7)
H36_3 H 0.2623 0.9664 0.7615
C52_3 C 0.30028(18) 0.90252(27) 0.77795(6)
H37_3 H 0.2483 0.8628 0.7824
C59_3 C 0.2869(3) 0.9955(4) 0.72375(7)
H43_3 H 0.2932 0.9515 0.7278
C60_3 C 0.2302(3) 0.9842(4) 0.70941(7)
H44_3 H 0.1979 0.9326 0.7037
Zn8_3 Zn 0.31702(4) 0.56359(3) 0.817425(7)
O20_3 O 0.4884(4) 0.2849(3) 0.97662(5)
O21_3 O 0.3104(4) 0.5633(3) 0.86487(5)
O22_3 O 0.2958(3) 0.4856(2) 0.83891(5)
O23_3 O 0.2245(3) 0.5137(2) 0.80032(5)
O24_3 O 0.1673(4) 0.5904(3) 0.80282(6)
N5_3 N 0.2355(8) 0.2442(6) 0.91014(12)
C61_3 C 0.5021(6) 0.3004(4) 0.95857(10)
C62_3 C 0.4298(4) 0.2865(3) 0.94600(5)
C63_3 C 0.3520(6) 0.2449(4) 0.95351(5)
H45_3 H 0.3431 0.2255 0.9667
C64_3 C 0.2871(6) 0.2316(4) 0.94172(7)
H46_3 H 0.2339 0.2031 0.9469
C65_3 C 0.3000(4) 0.2599(3) 0.92240(7)
C66_3 C 0.3779(4) 0.3016(3) 0.91488(5)
H47_3 H 0.3868 0.3210 0.9017
C67_3 C 0.4428(4) 0.3149(3) 0.92668(5)
H48_3 H 0.4960 0.3434 0.9216
C68_3 C 0.1547(11) 0.1752(8) 0.91272(17)
H49_3 H 0.1560 0.1253 0.9107
H50_3 H 0.1181 0.1783 0.9031
H51_3 H 0.1357 0.1757 0.9262
C69_3 C 0.2929(6) 0.4967(4) 0.85682(7)
C70_3 C 0.2788(6) 0.4297(4) 0.87009(8)
C71_3 C 0.2509(6) 0.3538(4) 0.86363(9)
H52_3 H 0.2391 0.3424 0.8500
C72_3 C 0.2387(6) 0.2917(4) 0.87631(10)
H53_3 H 0.2227 0.2395 0.8713
C73_3 C 0.2500(9) 0.3069(6) 0.89587(13)
C74_3 C 0.2800(10) 0.3853(7) 0.90280(11)
H54_3 H 0.2944 0.3984 0.9163
C75_3 C 0.2877(9) 0.4412(5) 0.88984(9)
H55_3 H 0.3003 0.4925 0.8949
C76_3 C 0.1691(4) 0.5297(3) 0.79651(7)
C77_3 C 0.1007(3) 0.4687(2) 0.78392(7)
C78_3 C 0.04247(36) 0.4865(3) 0.77750(9)
H56_3 H 0.0447 0.5350 0.7816
C81_3 C 0.0358(3) 0.3445(2) 0.76556(7)
H58_3 H 0.0336 0.2960 0.7615
C82_3 C 0.09748(27) 0.3978(2) 0.77795(6)
H59_3 H 0.1372 0.3856 0.7824
C89_3 C 0.0045(4) 0.2915(2) 0.72375(7)
H65_3 H 0.0485 0.3418 0.7278
C90_3 C 0.0158(4) 0.2461(3) 0.70941(7)
H66_3 H 0.0674 0.2654 0.7037
O12_3 O 0.7964(3) 0.5116(4) 0.97662(5)
C31_3 C 0.7982(5) 0.4979(6) 0.95857(10)
C32_3 C 0.8566(3) 0.5702(4) 0.94600(5)
C33_3 C 0.8928(4) 0.6480(6) 0.95351(5)
H23_3 H 0.8823 0.6569 0.9667
C34_3 C 0.9444(4) 0.7129(6) 0.94172(7)
H24_3 H 0.9691 0.7661 0.9469
C35_3 C 0.9598(3) 0.7000(4) 0.92240(7)
C36_3 C 0.9236(3) 0.6221(4) 0.91488(5)
H25_3 H 0.9341 0.6132 0.9017
C37_3 C 0.8720(3) 0.5572(4) 0.92668(5)
H26_3 H 0.8473 0.5040 0.9216
H27_3 H 0.9692 0.8440 0.9107
N6_3 N 0.9172(6) 0.3123(4) 0.74711(11)
C79_3 C 0.9809(4) 0.4333(3) 0.76511(9)
H57_3 H 0.9411 0.4454 0.7608
C80_3 C 0.9776(4) 0.3623(3) 0.75914(8)
C83_3 C 0.8432(9) 0.3150(7) 0.7471(2)
H60_3 H 0.8456 0.3520 0.7574
H61_3 H 0.7977 0.2610 0.7496
H62_3 H 0.8363 0.3339 0.7342
C84_3 C 0.9625(8) 0.1253(6) 0.68738(12)
C85_3 C 0.9514(4) 0.1725(3) 0.70349(7)
C86_3 C 0.8759(5) 0.1443(3) 0.71191(9)
H63_3 H 0.8319 0.0940 0.7079
C87_3 C 0.8646(4) 0.1896(3) 0.72624(9)
H64_3 H 0.8129 0.1703 0.7320
C88_3 C 0.9289(4) 0.2632(3) 0.73217(7)
Zn14_2 Zn 0.25186(4) 0.68982(5) 0.001628(7)
Zn18_2 Zn 0.31018(5) 0.56203(6) 0.001628(7)
Zn1_7 Zn 0.6667 0.3333 0.706524(14)
Zn2_3 Zn 0.58519(4) 0.35649(5) 0.668295(7)
Zn3_7 Zn 0.0000 0.0000 0.811548(14)
Zn4_4 Zn 0.08677(3) 0.10308(3) 0.849242(7)
O1_7 O 0.6667 0.3333 0.67811(9)
O2_7 O 0.0000 0.0000 0.84016(7)
O3_4 O 0.5749(3) 0.3376(3) 0.71677(5)
O4_4 O 0.5369(3) 0.3818(3) 0.69005(5)
O5_4 O 0.0805(3) 0.1034(3) 0.80180(5)
O6_4 O 0.1436(2) 0.1811(2) 0.82776(5)
O7_4 O 0.0442(2) 0.1530(2) 0.86635(5)
O9_2 O 0.2195(4) 0.5169(3) 0.98419(5)
O10_2 O 0.1698(3) 0.6021(4) 0.98588(9)
N1_4 N 0.3247(6) 0.4225(6) 0.75653(12)
C1_4 C 0.5351(5) 0.3663(4) 0.70810(10)
C2_4 C 0.4767(3) 0.3802(3) 0.72067(5)
C3_4 C 0.4405(4) 0.4218(4) 0.71316(5)
H1_4 H 0.4510 0.4412 0.7000
C4_4 C 0.3889(4) 0.4351(4) 0.72495(7)
H2_4 H 0.3642 0.4636 0.7198
C5_4 C 0.3735(3) 0.4068(3) 0.74427(7)
C6_4 C 0.4097(3) 0.3651(3) 0.75179(5)
H3_4 H 0.3992 0.3457 0.7650
C7_4 C 0.4613(3) 0.3518(3) 0.73999(5)
H4_4 H 0.4860 0.3233 0.7451
C8_4 C 0.3129(8) 0.4915(8) 0.75395(17)
H5_4 H 0.3641 0.5414 0.7560
H6_4 H 0.2732 0.4884 0.7636
H7_4 H 0.2934 0.4910 0.7405
C9_4 C 0.1296(4) 0.1700(4) 0.80985(7)
C10_4 C 0.1825(4) 0.2370(4) 0.79658(8)
C11_4 C 0.2305(4) 0.3129(4) 0.80304(9)
H8_4 H 0.2301 0.3243 0.8167
C12_4 C 0.2804(5) 0.3750(4) 0.79036(10)
H9_4 H 0.3166 0.4272 0.7954
C13_4 C 0.2765(7) 0.3598(6) 0.77080(13)
C14_4 C 0.2281(7) 0.2814(7) 0.76387(11)
H10_4 H 0.2294 0.2683 0.7504
C15_4 C 0.1799(7) 0.2255(5) 0.77683(9)
H11_4 H 0.1412 0.1742 0.7718
C21_4 C 0.0247(2) 0.3222(2) 0.90111(7)
H14_4 H 0.0710 0.3707 0.9052
C22_4 C 0.03305(18) 0.2689(2) 0.88872(6)
H15_4 H 0.0850 0.2811 0.8843
C24_4 C 0.1706(5) 0.5414(6) 0.97929(12)
C25_4 C 0.1123(3) 0.4942(3) 0.96318(7)
C26_4 C 0.0650(4) 0.5224(3) 0.95476(9)
H19_4 H 0.0713 0.5727 0.9588
C27_4 C 0.0084(3) 0.4771(3) 0.94043(9)
C29_4 C 0.0464(3) 0.3752(2) 0.94292(7)
H21_4 H 0.0401 0.3249 0.9389
C30_4 C 0.1031(3) 0.4206(3) 0.95726(7)
H22_4 H 0.1354 0.4013 0.9630
O16_4 O 0.1660(4) 0.0897(2) 0.86385(6)
N4_4 N 0.4161(6) 0.0617(4) 0.91956(11)
C46_4 C 0.1642(4) 0.0272(3) 0.87016(7)
C47_4 C 0.2326(3) 0.0346(2) 0.88275(7)
C48_4 C 0.29086(36) 0.11066(19) 0.88917(9)
H34_4 H 0.2886 0.1569 0.8851
C49_4 C 0.3524(4) 0.1190(2) 0.90156(9)
H35_4 H 0.3922 0.1709 0.9059
C50_4 C 0.3557(4) 0.0513(3) 0.90753(8)
C53_4 C 0.4901(9) 0.1384(6) 0.9196(2)
H38_4 H 0.4877 0.1730 0.9093
H39_4 H 0.5356 0.1299 0.9171
H40_4 H 0.4970 0.1642 0.9325
H42_4 H 0.5204 0.0240 0.9347
C58_4 C 0.4044(4) 0.0009(3) 0.93450(7)
Zn11_3 Zn 0.77130(6) 0.41481(4) 0.668295(7)
Zn12_3 Zn 0.64351(5) 0.22870(6) 0.668295(7)
O29_4 O 0.7627(4) 0.4251(3) 0.71677(5)
O30_4 O 0.6624(3) 0.2373(4) 0.71677(5)
O32_3 O 0.6307(5) 0.4472(4) 0.65086(5)
O34_3 O 0.5031(3) 0.2688(4) 0.65255(9)
Zn16_2 Zn 0.43797(6) 0.74814(4) 0.001628(7)
Zn3_8 Zn 0.0000 1.0000 0.811548(14)
O2_8 O 0.0000 1.0000 0.84016(7)
Zn6_4 Zn 0.01631(4) 0.91323(3) 0.849242(7)
O13_4 O 0.0229(4) 0.9195(3) 0.80180(5)
O14_4 O 0.0375(3) 0.8564(2) 0.82776(5)
O15_4 O 0.1088(3) 0.9558(2) 0.86635(5)
O17_2 O 0.2974(5) 0.7805(4) 0.98419(5)
O18_2 O 0.4323(5) 0.8302(3) 0.98588(9)
N3_4 N 0.0978(8) 0.6753(6) 0.75653(12)
C34_4 C 0.0462(6) 0.6111(4) 0.72495(7)
H24_4 H 0.0994 0.6358 0.7198
C35_4 C 0.0333(4) 0.6265(3) 0.74427(7)
C38_4 C 0.1786(11) 0.6871(8) 0.75395(17)
H27_4 H 0.1773 0.6359 0.7560
H28_4 H 0.2152 0.7268 0.7636
H29_4 H 0.1976 0.7066 0.7405
C39_4 C 0.0404(6) 0.8704(4) 0.80985(7)
C40_4 C 0.0545(6) 0.8175(4) 0.79658(8)
C41_4 C 0.0824(6) 0.7695(4) 0.80304(9)
H30_4 H 0.0942 0.7699 0.8167
C42_4 C 0.0946(6) 0.7196(5) 0.79036(10)
H31_4 H 0.1106 0.6834 0.7954
C43_4 C 0.0833(9) 0.7235(7) 0.77080(13)
C44_4 C 0.0533(10) 0.7719(7) 0.76387(11)
H32_4 H 0.0389 0.7706 0.7504
C45_4 C 0.0456(9) 0.8201(7) 0.77683(9)
H33_4 H 0.0330 0.8588 0.7718
C51_4 C 0.2975(3) 0.9753(2) 0.90111(7)
H36_4 H 0.2997 0.9290 0.9052
C52_4 C 0.23585(27) 0.96695(18) 0.88872(6)
H37_4 H 0.1961 0.9150 0.8843
C54_4 C 0.3708(8) 0.8294(5) 0.97929(12)
C55_4 C 0.3819(4) 0.8877(3) 0.96318(7)
C56_4 C 0.4574(5) 0.9350(4) 0.95476(9)
H41_4 H 0.5014 0.9287 0.9588
C57_4 C 0.4687(4) 0.9916(3) 0.94043(9)
C59_4 C 0.3288(4) 0.9536(3) 0.94292(7)
H43_4 H 0.2848 0.9599 0.9389
C60_4 C 0.3175(4) 0.8969(3) 0.95726(7)
H44_4 H 0.2659 0.8646 0.9630
Zn3_9 Zn 1.0000 0.0000 0.811548(14)
O2_9 O 1.0000 0.0000 0.84016(7)
O8_4 O 0.9103(2) 0.0763(3) 0.86385(6)
N2_4 N 0.9383(4) 0.3544(4) 0.91956(11)
C16_4 C 0.9728(3) 0.1370(3) 0.87016(7)
C17_4 C 0.9654(2) 0.1980(2) 0.88275(7)
C18_4 C 0.88934(19) 0.1802(3) 0.88917(9)
H12_4 H 0.8431 0.1317 0.8851
C19_4 C 0.8810(2) 0.2334(3) 0.90156(9)
H13_4 H 0.8291 0.2213 0.9059
C20_4 C 0.9487(3) 0.3044(3) 0.90753(8)
C23_4 C 0.8616(6) 0.3517(7) 0.9196(2)
H16_4 H 0.8270 0.3147 0.9093
H17_4 H 0.8701 0.4057 0.9171
H18_4 H 0.8358 0.3328 0.9325
H20_4 H 0.9760 0.4964 0.9347
C28_4 C 0.9991(3) 0.4035(3) 0.93450(7)
O20_4 O 0.6182(3) 0.1551(4) 0.69005(5)
C61_4 C 0.6337(4) 0.1688(6) 0.70810(10)
C62_4 C 0.6198(3) 0.0965(4) 0.72067(5)
C63_4 C 0.5782(4) 0.0187(6) 0.71316(5)
H45_4 H 0.5588 0.0098 0.7000
C66_4 C 0.6349(3) 0.0446(4) 0.75179(5)
H47_4 H 0.6543 0.0535 0.7650
C67_4 C 0.6482(3) 0.1095(4) 0.73999(5)
H48_4 H 0.6767 0.1627 0.7451
O31_3 O 0.5528(4) 0.1836(3) 0.65086(5)
O36_3 O 0.7312(4) 0.2344(5) 0.65255(9)
Zn3_10 Zn 1.0000 1.0000 0.811548(14)
O2_10 O 1.0000 1.0000 0.84016(7)
O12_4 O 0.8449(4) 0.4631(3) 0.69005(5)
C31_4 C 0.8312(6) 0.4649(5) 0.70810(10)
C32_4 C 0.9035(4) 0.5233(3) 0.72067(5)
C33_4 C 0.9813(6) 0.5595(4) 0.71316(5)
H23_4 H 0.9902 0.5490 0.7000
C36_4 C 0.9554(4) 0.5903(3) 0.75179(5)
H25_4 H 0.9465 0.6008 0.7650
C37_4 C 0.8905(4) 0.5387(3) 0.73999(5)
H26_4 H 0.8373 0.5140 0.7451
Zn8_4 Zn 0.89692(3) 0.98369(4) 0.849242(7)
O21_4 O 0.8966(3) 0.9771(4) 0.80180(5)
O22_4 O 0.8189(2) 0.9625(3) 0.82776(5)
O23_4 O 0.8470(2) 0.8912(3) 0.86635(5)
O24_4 O 0.9237(3) 0.8340(4) 0.86385(6)
O25_2 O 0.4831(3) 0.7026(5) 0.98419(5)
O26_2 O 0.3979(4) 0.5677(5) 0.98588(9)
N5_4 N 0.5775(6) 0.9022(8) 0.75653(12)
N6_4 N 0.6456(4) 0.5839(6) 0.91956(11)
C64_4 C 0.5649(4) 0.9538(6) 0.72495(7)
H46_4 H 0.5364 0.9006 0.7198
C65_4 C 0.5932(3) 0.9667(4) 0.74427(7)
C68_4 C 0.5085(8) 0.8214(11) 0.75395(17)
H49_4 H 0.4586 0.8227 0.7560
H50_4 H 0.5116 0.7848 0.7636
H51_4 H 0.5090 0.8024 0.7405
C69_4 C 0.8300(4) 0.9596(6) 0.80985(7)
C70_4 C 0.7630(4) 0.9455(6) 0.79658(8)
C71_4 C 0.6871(4) 0.9176(6) 0.80304(9)
H52_4 H 0.6757 0.9058 0.8167
C72_4 C 0.6250(4) 0.9054(6) 0.79036(10)
H53_4 H 0.5728 0.8894 0.7954
C73_4 C 0.6402(6) 0.9167(9) 0.77080(13)
C74_4 C 0.7186(7) 0.9467(10) 0.76387(11)
H54_4 H 0.7317 0.9611 0.7504
C75_4 C 0.7745(5) 0.9544(9) 0.77683(9)
H55_4 H 0.8258 0.9670 0.7718
C76_4 C 0.8630(3) 0.8358(4) 0.87016(7)
C77_4 C 0.8020(2) 0.7674(3) 0.88275(7)
C78_4 C 0.8198(3) 0.70914(36) 0.88917(9)
H56_4 H 0.8683 0.7114 0.8851
C79_4 C 0.7666(3) 0.6476(4) 0.90156(9)
H57_4 H 0.7787 0.6078 0.9059
C80_4 C 0.6956(3) 0.6443(4) 0.90753(8)
C81_4 C 0.6778(2) 0.7025(3) 0.90111(7)
H58_4 H 0.6293 0.7003 0.9052
C82_4 C 0.7311(2) 0.76415(27) 0.88872(6)
H59_4 H 0.7189 0.8039 0.8843
C83_4 C 0.6483(7) 0.5099(9) 0.9196(2)
H60_4 H 0.6853 0.5123 0.9093
H61_4 H 0.5943 0.4644 0.9171
H62_4 H 0.6672 0.5030 0.9325
C84_4 C 0.4586(6) 0.6292(8) 0.97929(12)
C85_4 C 0.5058(3) 0.6181(4) 0.96318(7)
C86_4 C 0.4776(3) 0.5426(5) 0.95476(9)
H63_4 H 0.4273 0.4986 0.9588
C87_4 C 0.5229(3) 0.5313(4) 0.94043(9)
H64_4 H 0.5036 0.4796 0.9347
C88_4 C 0.5965(3) 0.5956(4) 0.93450(7)
C89_4 C 0.6248(2) 0.6712(4) 0.94292(7)
H65_4 H 0.6751 0.7152 0.9389
C90_4 C 0.5794(3) 0.6825(4) 0.95726(7)
H66_4 H 0.5987 0.7341 0.9630
O33_3 O 0.8164(3) 0.3693(5) 0.65086(5)
O35_3 O 0.7656(5) 0.4969(3) 0.65255(9)
Zn1_8 Zn 0.3334 0.6666 0.039857(14)
O1_8 O 0.3334 0.6666 0.01144(9)
O3_5 O 0.2416(3) 0.6709(3) 0.05010(5)
O4_5 O 0.2036(3) 0.7151(3) 0.02338(5)
C1_5 C 0.2018(5) 0.6996(4) 0.04143(10)
C2_5 C 0.1434(3) 0.7135(3) 0.05400(5)
C3_5 C 0.1072(4) 0.7551(4) 0.04649(5)
H1_5 H 0.1177 0.7745 0.0333
C4_5 C 0.0556(4) 0.7684(4) 0.05828(7)
H2_5 H 0.0309 0.7969 0.0531
C5_5 C 0.0402(3) 0.7401(3) 0.07760(7)
C6_5 C 0.0764(3) 0.6984(3) 0.08512(5)
H3_5 H 0.0659 0.6790 0.0983
C7_5 C 0.1280(3) 0.6851(3) 0.07332(5)
H4_5 H 0.1527 0.6566 0.0784
H5_5 H 0.0308 0.8747 0.0893
O18_3 O 0.0990(5) 0.1635(3) 0.31921(9)
N4_5 N 0.0828(6) 0.3950(4) 0.25289(11)
C49_5 C 0.0191(4) 0.4523(2) 0.23489(9)
H35_5 H 0.0589 0.5042 0.2392
C50_5 C 0.0224(4) 0.3846(3) 0.24086(8)
C53_5 C 0.1568(9) 0.4717(6) 0.2529(2)
H38_5 H 0.1544 0.5063 0.2426
H39_5 H 0.2023 0.4632 0.2504
H40_5 H 0.1637 0.4975 0.2658
C54_5 C 0.0375(8) 0.1627(5) 0.31262(12)
C55_5 C 0.0486(4) 0.2210(3) 0.29651(7)
C56_5 C 0.1241(5) 0.2683(4) 0.28809(9)
H41_5 H 0.1681 0.2620 0.2921
C57_5 C 0.1354(4) 0.3249(3) 0.27376(9)
H42_5 H 0.1871 0.3573 0.2680
C58_5 C 0.0711(4) 0.3342(3) 0.26783(7)
Zn16_3 Zn 0.10463(6) 0.08148(4) 0.334962(7)
O29_5 O 0.4294(4) 0.7584(3) 0.05010(5)
O30_5 O 0.3291(3) 0.5706(4) 0.05010(5)
Zn14_3 Zn 0.91852(4) 0.02316(5) 0.334962(7)
Zn3_11 Zn 0.6667 0.3333 0.144881(14)
Zn4_5 Zn 0.75344(3) 0.43641(3) 0.182575(7)
O2_11 O 0.6667 0.3333 0.17349(7)
O5_5 O 0.7472(3) 0.4367(3) 0.13513(5)
O6_5 O 0.8103(2) 0.5144(2) 0.16109(5)
O7_5 O 0.7109(2) 0.4863(2) 0.19968(5)
O8_5 O 0.5770(2) 0.4096(3) 0.19718(6)
O9_3 O 0.8862(4) 0.8502(3) 0.31752(5)
O10_3 O 0.8365(3) 0.9354(4) 0.31921(9)
N1_5 N 0.9914(6) 0.7558(6) 0.08986(12)
N2_5 N 0.6050(4) 0.6877(4) 0.25289(11)
C8_5 C 0.9796(8) 0.8248(8) 0.08728(17)
H6_5 H 0.9399 0.8217 0.0969
H7_5 H 0.9601 0.8243 0.0738
C9_5 C 0.7963(4) 0.5033(4) 0.14318(7)
C10_5 C 0.8492(4) 0.5703(4) 0.12991(8)
C11_5 C 0.8972(4) 0.6462(4) 0.13637(9)
H8_5 H 0.8968 0.6576 0.1500
C12_5 C 0.9471(5) 0.7083(4) 0.12369(10)
H9_5 H 0.9833 0.7605 0.1287
C13_5 C 0.9432(7) 0.6931(6) 0.10413(13)
C14_5 C 0.8948(7) 0.6147(7) 0.09720(11)
H10_5 H 0.8961 0.6016 0.0837
C15_5 C 0.8466(7) 0.5588(5) 0.11016(9)
H11_5 H 0.8079 0.5075 0.1051
C16_5 C 0.6395(3) 0.4703(3) 0.20349(7)
C17_5 C 0.6321(2) 0.5313(2) 0.21608(7)
C18_5 C 0.55601(19) 0.5135(3) 0.22250(9)
H12_5 H 0.5098 0.4650 0.2184
C19_5 C 0.5477(2) 0.5667(3) 0.23489(9)
H13_5 H 0.4958 0.5546 0.2392
C20_5 C 0.6154(3) 0.6377(3) 0.24086(8)
C21_5 C 0.6914(2) 0.6555(2) 0.23444(7)
H14_5 H 0.7377 0.7040 0.2385
C22_5 C 0.69972(18) 0.6022(2) 0.22205(6)
H15_5 H 0.7517 0.6144 0.2176
C23_5 C 0.5283(6) 0.6850(7) 0.2529(2)
H16_5 H 0.4937 0.6480 0.2426
H17_5 H 0.5368 0.7390 0.2504
H18_5 H 0.5025 0.6661 0.2658
C24_5 C 0.8373(5) 0.8747(6) 0.31262(12)
C25_5 C 0.7790(3) 0.8275(3) 0.29651(7)
C26_5 C 0.7317(4) 0.8557(3) 0.28809(9)
H19_5 H 0.7380 0.9060 0.2921
C27_5 C 0.6751(3) 0.8104(3) 0.27376(9)
H20_5 H 0.6427 0.8297 0.2680
C28_5 C 0.6658(3) 0.7368(3) 0.26783(7)
C29_5 C 0.7131(3) 0.7085(2) 0.27625(7)
H21_5 H 0.7068 0.6582 0.2722
C30_5 C 0.7698(3) 0.7539(3) 0.29059(7)
H22_5 H 0.8021 0.7346 0.2963
Zn6_5 Zn 0.68298(4) 0.24656(3) 0.182575(7)
O13_5 O 0.6896(4) 0.2528(3) 0.13513(5)
O14_5 O 0.7042(3) 0.1897(2) 0.16109(5)
O15_5 O 0.7755(3) 0.2891(2) 0.19968(5)
O16_5 O 0.8327(4) 0.4230(2) 0.19718(6)
O17_3 O 0.9641(5) 0.1138(4) 0.31752(5)
N3_5 N 0.7645(8) 0.0086(6) 0.08986(12)
C38_5 C 0.8453(11) 0.0204(8) 0.08728(17)
H28_5 H 0.8819 0.0601 0.0969
H29_5 H 0.8643 0.0399 0.0738
C39_5 C 0.7071(6) 0.2037(4) 0.14318(7)
C40_5 C 0.7212(6) 0.1508(4) 0.12991(8)
C41_5 C 0.7491(6) 0.1028(4) 0.13637(9)
H30_5 H 0.7609 0.1032 0.1500
C42_5 C 0.7613(6) 0.0529(5) 0.12369(10)
H31_5 H 0.7773 0.0167 0.1287
C43_5 C 0.7500(9) 0.0568(7) 0.10413(13)
C44_5 C 0.7200(10) 0.1052(7) 0.09720(11)
H32_5 H 0.7056 0.1039 0.0837
C45_5 C 0.7123(9) 0.1534(7) 0.11016(9)
H33_5 H 0.6997 0.1921 0.1051
C46_5 C 0.8309(4) 0.3605(3) 0.20349(7)
C47_5 C 0.8993(3) 0.3679(2) 0.21608(7)
C48_5 C 0.95753(36) 0.44399(19) 0.22250(9)
H34_5 H 0.9553 0.4902 0.2184
C51_5 C 0.9642(3) 0.3086(2) 0.23444(7)
H36_5 H 0.9664 0.2623 0.2385
C52_5 C 0.90252(27) 0.30028(18) 0.22205(6)
H37_5 H 0.8628 0.2483 0.2176
C59_5 C 0.9955(4) 0.2869(3) 0.27625(7)
H43_5 H 0.9515 0.2932 0.2722
C60_5 C 0.9842(4) 0.2302(3) 0.29059(7)
H44_5 H 0.9326 0.1979 0.2963
Zn8_5 Zn 0.56359(3) 0.31702(4) 0.182575(7)
O20_5 O 0.2849(3) 0.4884(4) 0.02338(5)
O21_5 O 0.5633(3) 0.3104(4) 0.13513(5)
O22_5 O 0.4856(2) 0.2958(3) 0.16109(5)
O23_5 O 0.5137(2) 0.2245(3) 0.19968(5)
O24_5 O 0.5904(3) 0.1673(4) 0.19718(6)
O25_3 O 0.1498(3) 0.0359(5) 0.31752(5)
N5_5 N 0.2442(6) 0.2355(8) 0.08986(12)
C61_5 C 0.3004(4) 0.5021(6) 0.04143(10)
C62_5 C 0.2865(3) 0.4298(4) 0.05400(5)
C63_5 C 0.2449(4) 0.3520(6) 0.04649(5)
H45_5 H 0.2255 0.3431 0.0333
C64_5 C 0.2316(4) 0.2871(6) 0.05828(7)
H46_5 H 0.2031 0.2339 0.0531
C65_5 C 0.2599(3) 0.3000(4) 0.07760(7)
C66_5 C 0.3016(3) 0.3779(4) 0.08512(5)
H47_5 H 0.3210 0.3868 0.0983
C67_5 C 0.3149(3) 0.4428(4) 0.07332(5)
H48_5 H 0.3434 0.4960 0.0784
C68_5 C 0.1752(8) 0.1547(11) 0.08728(17)
H49_5 H 0.1253 0.1560 0.0893
H50_5 H 0.1783 0.1181 0.0969
H51_5 H 0.1757 0.1357 0.0738
C69_5 C 0.4967(4) 0.2929(6) 0.14318(7)
C70_5 C 0.4297(4) 0.2788(6) 0.12991(8)
C71_5 C 0.3538(4) 0.2509(6) 0.13637(9)
H52_5 H 0.3424 0.2391 0.1500
C72_5 C 0.2917(4) 0.2387(6) 0.12369(10)
H53_5 H 0.2395 0.2227 0.1287
C73_5 C 0.3069(6) 0.2500(9) 0.10413(13)
C74_5 C 0.3853(7) 0.2800(10) 0.09720(11)
H54_5 H 0.3984 0.2944 0.0837
C75_5 C 0.4412(5) 0.2877(9) 0.11016(9)
H55_5 H 0.4925 0.3003 0.1051
C76_5 C 0.5297(3) 0.1691(4) 0.20349(7)
C77_5 C 0.4687(2) 0.1007(3) 0.21608(7)
C78_5 C 0.4865(3) 0.04247(36) 0.22250(9)
H56_5 H 0.5350 0.0447 0.2184
C81_5 C 0.3445(2) 0.0358(3) 0.23444(7)
H58_5 H 0.2960 0.0336 0.2385
C82_5 C 0.3978(2) 0.09748(27) 0.22205(6)
H59_5 H 0.3856 0.1372 0.2176
C89_5 C 0.2915(2) 0.0045(4) 0.27625(7)
H65_5 H 0.3418 0.0485 0.2722
C90_5 C 0.2461(3) 0.0158(4) 0.29059(7)
H66_5 H 0.2654 0.0674 0.2963
Zn18_3 Zn 0.97684(5) 0.89537(6) 0.334962(7)
O12_5 O 0.5116(4) 0.7964(3) 0.02338(5)
C31_5 C 0.4979(6) 0.7982(5) 0.04143(10)
C32_5 C 0.5702(4) 0.8566(3) 0.05400(5)
C33_5 C 0.6480(6) 0.8928(4) 0.04649(5)
H23_5 H 0.6569 0.8823 0.0333
C34_5 C 0.7129(6) 0.9444(4) 0.05828(7)
H24_5 H 0.7661 0.9691 0.0531
C35_5 C 0.7000(4) 0.9598(3) 0.07760(7)
C36_5 C 0.6221(4) 0.9236(3) 0.08512(5)
H25_5 H 0.6132 0.9341 0.0983
C37_5 C 0.5572(4) 0.8720(3) 0.07332(5)
H26_5 H 0.5040 0.8473 0.0784
H27_5 H 0.8440 0.9692 0.0893
O26_3 O 0.0646(4) 0.9010(5) 0.31921(9)
N6_5 N 0.3123(4) 0.9172(6) 0.25289(11)
C79_5 C 0.4333(3) 0.9809(4) 0.23489(9)
H57_5 H 0.4454 0.9411 0.2392
C80_5 C 0.3623(3) 0.9776(4) 0.24086(8)
C83_5 C 0.3150(7) 0.8432(9) 0.2529(2)
H60_5 H 0.3520 0.8456 0.2426
H61_5 H 0.2610 0.7977 0.2504
H62_5 H 0.3339 0.8363 0.2658
C84_5 C 0.1253(6) 0.9625(8) 0.31262(12)
C85_5 C 0.1725(3) 0.9514(4) 0.29651(7)
C86_5 C 0.1443(3) 0.8759(5) 0.28809(9)
H63_5 H 0.0940 0.8319 0.2921
C87_5 C 0.1896(3) 0.8646(4) 0.27376(9)
H64_5 H 0.1703 0.8129 0.2680
C88_5 C 0.2632(3) 0.9289(4) 0.26783(7)
Zn1_9 Zn 0.0000 -0.0000 0.373191(14)
O1_9 O 0.0000 -0.0000 0.34478(9)
O29_6 O 0.0960(4) 0.0918(3) 0.38344(5)
Zn1_10 Zn 0.0000 1.0000 0.373191(14)
O1_10 O 0.0000 1.0000 0.34478(9)
Zn1_11 Zn 1.0000 -0.0000 0.373191(14)
O1_11 O 1.0000 -0.0000 0.34478(9)
O3_6 O 0.9082(3) 0.0043(3) 0.38344(5)
O4_6 O 0.8702(3) 0.0485(3) 0.35672(5)
N1_6 N 0.6580(6) 0.0892(6) 0.42320(12)
N2_6 N 0.2716(4) 0.0211(4) 0.58623(11)
C1_6 C 0.8684(5) 0.0330(4) 0.37477(10)
C2_6 C 0.8100(3) 0.0469(3) 0.38734(5)
C3_6 C 0.7738(4) 0.0885(4) 0.37983(5)
H1_6 H 0.7843 0.1079 0.3667
C4_6 C 0.7222(4) 0.1018(4) 0.39162(7)
H2_6 H 0.6975 0.1303 0.3865
C5_6 C 0.7068(3) 0.0735(3) 0.41094(7)
C6_6 C 0.7430(3) 0.0318(3) 0.41846(5)
H3_6 H 0.7325 0.0124 0.4317
C7_6 C 0.7946(3) 0.0185(3) 0.40666(5)
C8_6 C 0.6462(8) 0.1582(8) 0.42062(17)
H5_6 H 0.6974 0.2081 0.4227
H6_6 H 0.6065 0.1551 0.4303
H7_6 H 0.6267 0.1577 0.4072
C12_6 C 0.6137(5) 0.0417(4) 0.45703(10)
H9_6 H 0.6499 0.0939 0.4621
C13_6 C 0.6098(7) 0.0265(6) 0.43747(13)
H14_6 H 0.4043 0.0374 0.5719
C23_6 C 0.1949(6) 0.0184(7) 0.5863(2)
H17_6 H 0.2034 0.0724 0.5838
C24_6 C 0.5039(5) 0.2081(6) 0.64596(12)
C25_6 C 0.4456(3) 0.1609(3) 0.62985(7)
C26_6 C 0.3983(4) 0.1891(3) 0.62143(9)
H19_6 H 0.4046 0.2394 0.6255
C27_6 C 0.3417(3) 0.1438(3) 0.60710(9)
H20_6 H 0.3093 0.1631 0.6014
C28_6 C 0.3324(3) 0.0702(3) 0.60117(7)
C29_6 C 0.3797(3) 0.0419(2) 0.60959(7)
C30_6 C 0.4364(3) 0.0873(3) 0.62393(7)
H22_6 H 0.4687 0.0680 0.6297
Zn1_12 Zn 1.0000 1.0000 0.373191(14)
Zn3_12 Zn 0.3333 0.6667 0.478215(14)
Zn4_6 Zn 0.42010(3) 0.76975(3) 0.515909(7)
O1_12 O 1.0000 1.0000 0.34478(9)
O2_12 O 0.3333 0.6667 0.50683(7)
O5_6 O 0.4138(3) 0.7701(3) 0.46847(5)
O6_6 O 0.4769(2) 0.8478(2) 0.49443(5)
O7_6 O 0.3775(2) 0.8197(2) 0.53302(5)
O8_6 O 0.2436(2) 0.7430(3) 0.53052(6)
H4_6 H 0.8193 0.9900 0.4118
C9_6 C 0.4629(4) 0.8367(4) 0.47652(7)
C10_6 C 0.5158(4) 0.9037(4) 0.46325(8)
C11_6 C 0.5638(4) 0.9796(4) 0.46971(9)
H8_6 H 0.5634 0.9910 0.4834
C14_6 C 0.5614(7) 0.9481(7) 0.43054(11)
H10_6 H 0.5627 0.9350 0.4171
C15_6 C 0.5132(7) 0.8922(5) 0.44350(9)
H11_6 H 0.4745 0.8409 0.4385
C16_6 C 0.3061(3) 0.8037(3) 0.53683(7)
C17_6 C 0.2987(2) 0.8647(2) 0.54942(7)
C18_6 C 0.22267(19) 0.8469(3) 0.55584(9)
H12_6 H 0.1764 0.7984 0.5518
C19_6 C 0.2143(2) 0.9001(3) 0.56823(9)
H13_6 H 0.1624 0.8880 0.5726
C20_6 C 0.2820(3) 0.9711(3) 0.57420(8)
C21_6 C 0.3580(2) 0.9889(2) 0.56778(7)
C22_6 C 0.36638(18) 0.9356(2) 0.55539(6)
H15_6 H 0.4183 0.9478 0.5510
H16_6 H 0.1603 0.9814 0.5760
H18_6 H 0.1691 0.9995 0.5992
H21_6 H 0.3734 0.9916 0.6056
Zn6_6 Zn 0.34964(4) 0.57990(3) 0.515909(7)
O12_6 O 0.1782(4) 0.1298(3) 0.35672(5)
O13_6 O 0.3562(4) 0.5862(3) 0.46847(5)
O14_6 O 0.3708(3) 0.5231(2) 0.49443(5)
O15_6 O 0.4421(3) 0.6225(2) 0.53302(5)
O16_6 O 0.4993(4) 0.7564(2) 0.53052(6)
N3_6 N 0.4311(8) 0.3420(6) 0.42320(12)
N4_6 N 0.7494(6) 0.7284(4) 0.58623(11)
C31_6 C 0.1645(6) 0.1316(5) 0.37477(10)
C32_6 C 0.2368(4) 0.1900(3) 0.38734(5)
C33_6 C 0.3146(6) 0.2262(4) 0.37983(5)
H23_6 H 0.3235 0.2157 0.3667
C34_6 C 0.3795(6) 0.2778(4) 0.39162(7)
H24_6 H 0.4327 0.3025 0.3865
C35_6 C 0.3666(4) 0.2932(3) 0.41094(7)
C36_6 C 0.2887(4) 0.2570(3) 0.41846(5)
H25_6 H 0.2798 0.2675 0.4317
C37_6 C 0.2238(4) 0.2054(3) 0.40666(5)
H26_6 H 0.1706 0.1807 0.4118
C38_6 C 0.5119(11) 0.3538(8) 0.42062(17)
H27_6 H 0.5106 0.3026 0.4227
H28_6 H 0.5485 0.3935 0.4303
H29_6 H 0.5309 0.3733 0.4072
C39_6 C 0.3737(6) 0.5371(4) 0.47652(7)
C40_6 C 0.3878(6) 0.4842(4) 0.46325(8)
C41_6 C 0.4157(6) 0.4362(4) 0.46971(9)
H30_6 H 0.4275 0.4366 0.4834
C42_6 C 0.4279(6) 0.3863(5) 0.45703(10)
H31_6 H 0.4439 0.3501 0.4621
C43_6 C 0.4166(9) 0.3902(7) 0.43747(13)
C44_6 C 0.3866(10) 0.4386(7) 0.43054(11)
H32_6 H 0.3722 0.4373 0.4171
C45_6 C 0.3789(9) 0.4868(7) 0.44350(9)
H33_6 H 0.3663 0.5255 0.4385
C46_6 C 0.4975(4) 0.6939(3) 0.53683(7)
C47_6 C 0.5659(3) 0.7013(2) 0.54942(7)
C48_6 C 0.62419(36) 0.77733(19) 0.55584(9)
H34_6 H 0.6219 0.8236 0.5518
C49_6 C 0.6857(4) 0.7857(2) 0.56823(9)
H35_6 H 0.7255 0.8376 0.5726
C50_6 C 0.6890(4) 0.7180(3) 0.57420(8)
C51_6 C 0.6308(3) 0.6420(2) 0.56778(7)
H36_6 H 0.6330 0.5957 0.5719
C52_6 C 0.56918(27) 0.63362(18) 0.55539(6)
H37_6 H 0.5294 0.5817 0.5510
C53_6 C 0.8234(9) 0.8051(6) 0.5863(2)
H38_6 H 0.8210 0.8397 0.5760
H39_6 H 0.8689 0.7966 0.5838
H40_6 H 0.8303 0.8309 0.5992
C54_6 C 0.7041(8) 0.4961(5) 0.64596(12)
C55_6 C 0.7152(4) 0.5544(3) 0.62985(7)
C56_6 C 0.7907(5) 0.6017(4) 0.62143(9)
H41_6 H 0.8347 0.5954 0.6255
C57_6 C 0.8020(4) 0.6583(3) 0.60710(9)
H42_6 H 0.8537 0.6907 0.6014
C58_6 C 0.7377(4) 0.6676(3) 0.60117(7)
C59_6 C 0.6621(4) 0.6203(3) 0.60959(7)
H43_6 H 0.6181 0.6266 0.6056
C60_6 C 0.6508(4) 0.5636(3) 0.62393(7)
H44_6 H 0.5992 0.5313 0.6297
Zn8_6 Zn 0.23025(3) 0.65036(4) 0.515909(7)
O21_6 O 0.2299(3) 0.6438(4) 0.46847(5)
O22_6 O 0.1522(2) 0.6292(3) 0.49443(5)
O23_6 O 0.1803(2) 0.5579(3) 0.53302(5)
O24_6 O 0.2570(3) 0.5007(4) 0.53052(6)
H48_6 H 0.0100 0.8294 0.4118
C69_6 C 0.1633(4) 0.6263(6) 0.47652(7)
C70_6 C 0.0963(4) 0.6122(6) 0.46325(8)
C71_6 C 0.0204(4) 0.5843(6) 0.46971(9)
H52_6 H 0.0090 0.5725 0.4834
C74_6 C 0.0519(7) 0.6134(10) 0.43054(11)
H54_6 H 0.0650 0.6278 0.4171
C75_6 C 0.1078(5) 0.6211(9) 0.44350(9)
H55_6 H 0.1591 0.6337 0.4385
C76_6 C 0.1963(3) 0.5025(4) 0.53683(7)
C77_6 C 0.1353(2) 0.4341(3) 0.54942(7)
C78_6 C 0.1531(3) 0.37581(36) 0.55584(9)
H56_6 H 0.2016 0.3781 0.5518
C79_6 C 0.0999(3) 0.3143(4) 0.56823(9)
H57_6 H 0.1120 0.2745 0.5726
C80_6 C 0.0289(3) 0.3110(4) 0.57420(8)
C81_6 C 0.0111(2) 0.3692(3) 0.56778(7)
C82_6 C 0.0644(2) 0.43082(27) 0.55539(6)
H59_6 H 0.0522 0.4706 0.5510
H60_6 H 0.0186 0.1790 0.5760
H62_6 H 0.0005 0.1697 0.5992
H65_6 H 0.0084 0.3819 0.6056
O30_6 O 0.9957(3) 0.9040(4) 0.38344(5)
O20_6 O 0.9515(3) 0.8218(4) 0.35672(5)
N5_6 N 0.9108(6) 0.5689(8) 0.42320(12)
N6_6 N 0.9789(4) 0.2506(6) 0.58623(11)
C61_6 C 0.9670(4) 0.8355(6) 0.37477(10)
C62_6 C 0.9531(3) 0.7632(4) 0.38734(5)
C63_6 C 0.9115(4) 0.6854(6) 0.37983(5)
H45_6 H 0.8921 0.6765 0.3667
C64_6 C 0.8982(4) 0.6205(6) 0.39162(7)
H46_6 H 0.8697 0.5673 0.3865
C65_6 C 0.9265(3) 0.6334(4) 0.41094(7)
C66_6 C 0.9682(3) 0.7113(4) 0.41846(5)
H47_6 H 0.9876 0.7202 0.4317
C67_6 C 0.9815(3) 0.7762(4) 0.40666(5)
C68_6 C 0.8418(8) 0.4881(11) 0.42062(17)
H49_6 H 0.7919 0.4894 0.4227
H50_6 H 0.8449 0.4515 0.4303
H51_6 H 0.8423 0.4691 0.4072
C72_6 C 0.9583(4) 0.5721(6) 0.45703(10)
H53_6 H 0.9061 0.5561 0.4621
C73_6 C 0.9735(6) 0.5834(9) 0.43747(13)
H58_6 H 0.9626 0.3670 0.5719
C83_6 C 0.9816(7) 0.1766(9) 0.5863(2)
H61_6 H 0.9276 0.1311 0.5838
C84_6 C 0.7919(6) 0.2959(8) 0.64596(12)
C85_6 C 0.8391(3) 0.2848(4) 0.62985(7)
C86_6 C 0.8109(3) 0.2093(5) 0.62143(9)
H63_6 H 0.7606 0.1653 0.6255
C87_6 C 0.8562(3) 0.1980(4) 0.60710(9)
H64_6 H 0.8369 0.1463 0.6014
C88_6 C 0.9298(3) 0.2623(4) 0.60117(7)
C89_6 C 0.9581(2) 0.3379(4) 0.60959(7)
C90_6 C 0.9127(3) 0.3492(4) 0.62393(7)
H66_6 H 0.9320 0.4008 0.6297
loop_
_geom_bond_atom_site_label_1
_geom_bond_atom_site_label_2
_geom_bond_site_symmetry_1
_geom_bond_site_symmetry_2
Zn1 O1 1_555 1_555
Zn2 O1 1_555 1_555
Zn3 O2 1_555 1_555
Zn4 O2 1_555 1_555
O1 Zn11 1_555 1_555
O3 Zn1 1_555 1_555
O4 Zn2 1_555 1_555
O5 Zn3 1_555 1_555
O6 Zn4 1_555 1_555
O7 Zn4 1_555 1_555
O9 C24 1_555 1_555
O10 C24 1_555 1_555
N1 C5 1_555 1_555
C1 O3 1_555 1_555
C2 C1 1_555 1_555
C3 C2 1_555 1_555
H1 C3 1_555 1_555
C4 C3 1_555 1_555
H2 C4 1_555 1_555
C5 C4 1_555 1_555
C6 C5 1_555 1_555
H3 C6 1_555 1_555
C7 C2 1_555 1_555
H4 C7 1_555 1_555
C8 N1 1_555 1_555
H5 C8 1_555 1_555
H6 C8 1_555 1_555
H7 C8 1_555 1_555
C9 O5 1_555 1_555
C10 C9 1_555 1_555
C11 C10 1_555 1_555
H8 C11 1_555 1_555
C12 C11 1_555 1_555
H9 C12 1_555 1_555
C13 N1 1_555 1_555
C14 C13 1_555 1_555
H10 C14 1_555 1_555
C15 C10 1_555 1_555
H11 C15 1_555 1_555
H14 C21 1_555 1_555
H15 C22 1_555 1_555
C24 C25 1_555 1_555
C25 C26 1_555 1_555
C26 H19 1_555 1_555
C27 C26 1_555 1_555
H21 C29 1_555 1_555
C30 C25 1_555 1_555
H22 C30 1_555 1_555
O16 Zn4 1_555 1_555
N4 C50 1_555 1_555
C47 C46 1_555 1_555
C48 C47 1_555 1_555
H34 C48 1_555 1_555
C49 C48 1_555 1_555
H35 C49 1_555 1_555
C50 C49 1_555 1_555
C53 N4 1_555 1_555
H38 C53 1_555 1_555
H39 C53 1_555 1_555
H40 C53 1_555 1_555
C58 N4 1_555 1_555
Zn12 O1 1_555 1_555
O29 Zn1 1_555 1_555
O30 Zn1 1_555 1_555
O32 Zn2 1_555 1_555
O34 Zn2 1_555 1_555
O4 C1 1_555 1_555
O6 C9 1_555 1_555
C6 C7 1_555 1_555
C12 C13 1_555 1_555
C14 C15 1_555 1_555
C21 C22 1_555 1_555
C29 C30 1_555 1_555
O16 C46 1_555 1_555
Zn3_2 O2_2 1_555 1_555
O8 C16 1_555 1_555
N2 C20 1_555 1_555
C17 C16 1_555 1_555
C18 C17 1_555 1_555
H12 C18 1_555 1_555
C19 C18 1_555 1_555
H13 C19 1_555 1_555
C20 C19 1_555 1_555
C23 N2 1_555 1_555
H16 C23 1_555 1_555
H17 C23 1_555 1_555
H18 C23 1_555 1_555
C28 N2 1_555 1_555
Zn12 O20 1_555 1_555
O30 C61 1_555 1_555
O20 C61 1_555 1_555
C61 C62 1_555 1_555
C62 C63 1_555 1_555
C63 H45 1_555 1_555
H47 C66 1_555 1_555
C67 C62 1_555 1_555
H48 C67 1_555 1_555
O31 Zn12 1_555 1_555
O36 Zn12 1_555 1_555
C66 C67 1_555 1_555
Zn3_3 O2_3 1_555 1_555
O2_3 Zn6 1_555 1_555
Zn6 O14 1_555 1_555
O13 Zn3_3 1_555 1_555
O14 C39 1_555 1_555
O15 Zn6 1_555 1_555
O17 C54 1_555 1_555
O18 C54 1_555 1_555
N3 C35 1_555 1_555
H24 C34 1_555 1_555
C35 C34 1_555 1_555
C38 N3 1_555 1_555
H27 C38 1_555 1_555
H28 C38 1_555 1_555
H29 C38 1_555 1_555
C39 O13 1_555 1_555
C40 C39 1_555 1_555
C41 C40 1_555 1_555
H30 C41 1_555 1_555
C42 C41 1_555 1_555
H31 C42 1_555 1_555
C43 N3 1_555 1_555
C44 C43 1_555 1_555
H32 C44 1_555 1_555
C45 C40 1_555 1_555
H33 C45 1_555 1_555
H36 C51 1_555 1_555
H37 C52 1_555 1_555
C54 C55 1_555 1_555
C55 C56 1_555 1_555
C56 H41 1_555 1_555
C57 C56 1_555 1_555
H43 C59 1_555 1_555
C60 C55 1_555 1_555
H44 C60 1_555 1_555
C42 C43 1_555 1_555
C44 C45 1_555 1_555
C51 C52 1_555 1_555
C59 C60 1_555 1_555
Zn3_4 O2_4 1_555 1_555
Zn11 O12 1_555 1_555
O29 C31 1_555 1_555
O12 C31 1_555 1_555
C31 C32 1_555 1_555
C32 C33 1_555 1_555
C33 H23 1_555 1_555
H25 C36 1_555 1_555
C37 C32 1_555 1_555
H26 C37 1_555 1_555
Zn8 O2_4 1_555 1_555
O21 Zn3_4 1_555 1_555
O22 Zn8 1_555 1_555
O23 Zn8 1_555 1_555
O25 C84 1_555 1_555
O26 C84 1_555 1_555
N5 C65 1_555 1_555
N6 C80 1_555 1_555
H46 C64 1_555 1_555
C65 C64 1_555 1_555
C68 N5 1_555 1_555
H49 C68 1_555 1_555
H50 C68 1_555 1_555
H51 C68 1_555 1_555
C69 O21 1_555 1_555
C70 C69 1_555 1_555
C71 C70 1_555 1_555
H52 C71 1_555 1_555
C72 C71 1_555 1_555
H53 C72 1_555 1_555
C73 N5 1_555 1_555
C74 C73 1_555 1_555
H54 C74 1_555 1_555
C75 C70 1_555 1_555
H55 C75 1_555 1_555
C76 O23 1_555 1_555
C77 C76 1_555 1_555
C78 C77 1_555 1_555
H56 C78 1_555 1_555
C79 C78 1_555 1_555
H57 C79 1_555 1_555
C80 C79 1_555 1_555
C81 C80 1_555 1_555
H58 C81 1_555 1_555
C82 C77 1_555 1_555
H59 C82 1_555 1_555
C83 N6 1_555 1_555
H60 C83 1_555 1_555
H61 C83 1_555 1_555
H62 C83 1_555 1_555
C84 C85 1_555 1_555
C85 C86 1_555 1_555
C86 H63 1_555 1_555
C87 C86 1_555 1_555
H64 C87 1_555 1_555
C88 N6 1_555 1_555
C89 C88 1_555 1_555
H65 C89 1_555 1_555
C90 C85 1_555 1_555
H66 C90 1_555 1_555
O33 Zn11 1_555 1_555
O35 Zn11 1_555 1_555
C36 C37 1_555 1_555
O22 C69 1_555 1_555
O24 C76 1_555 1_555
C72 C73 1_555 1_555
C74 C75 1_555 1_555
C81 C82 1_555 1_555
C87 C88 1_555 1_555
C89 C90 1_555 1_555
Zn1_2 O1_2 1_555 1_555
O1_2 Zn11_2 1_555 1_555
O29_2 Zn1_2 1_555 1_555
Zn1_3 O1_3 1_555 1_555
Zn2_2 O1_3 1_555 1_555
O3_2 Zn1_3 1_555 1_555
O4_2 Zn2_2 1_555 1_555
O31 C24_2 1_555 1_555
O34 C24_2 1_555 1_555
N1_2 C5_2 1_555 1_555
C1_2 O3_2 1_555 1_555
C2_2 C1_2 1_555 1_555
C3_2 C2_2 1_555 1_555
H1_2 C3_2 1_555 1_555
C4_2 C3_2 1_555 1_555
H2_2 C4_2 1_555 1_555
C5_2 C4_2 1_555 1_555
C6_2 C5_2 1_555 1_555
H3_2 C6_2 1_555 1_555
C7_2 C2_2 1_555 1_555
C8_2 N1_2 1_555 1_555
H5_2 C8_2 1_555 1_555
H6_2 C8_2 1_555 1_555
H7_2 C8_2 1_555 1_555
H9_2 C12_2 1_555 1_555
C13_2 N1_2 1_555 1_555
C23_2 N2_2 1_555 1_555
H17_2 C23_2 1_555 1_555
C24_2 C25_2 1_555 1_555
C25_2 C26_2 1_555 1_555
C26_2 H19_2 1_555 1_555
C27_2 C26_2 1_555 1_555
H20_2 C27_2 1_555 1_555
C28_2 N2_2 1_555 1_555
C29_2 C28_2 1_555 1_555
C30_2 C25_2 1_555 1_555
H22_2 C30_2 1_555 1_555
O32_2 Zn2_2 1_555 1_555
O4_2 C1_2 1_555 1_555
C6_2 C7_2 1_555 1_555
C12_2 C13_2 1_555 1_555
C27_2 C28_2 1_555 1_555
C29_2 C30_2 1_555 1_555
Zn1_4 O1_4 1_555 1_555
Zn1_5 O1_5 1_555 1_555
Zn3_5 O2_5 1_555 1_555
Zn4_2 O2_5 1_555 1_555
O2_5 Zn6_2 1_555 1_555
O5_2 Zn3_5 1_555 1_555
O6_2 Zn4_2 1_555 1_555
O7_2 Zn4_2 1_555 1_555
O8_2 C16_2 1_555 1_555
C9_2 O5_2 1_555 1_555
C10_2 C9_2 1_555 1_555
C11_2 C10_2 1_555 1_555
H8_2 C11_2 1_555 1_555
H10_2 C14_2 1_555 1_555
C15_2 C10_2 1_555 1_555
H11_2 C15_2 1_555 1_555
C16_2 O7_2 1_555 1_555
C17_2 C16_2 1_555 1_555
C18_2 C17_2 1_555 1_555
H12_2 C18_2 1_555 1_555
C19_2 C18_2 1_555 1_555
H13_2 C19_2 1_555 1_555
C20_2 C19_2 1_555 1_555
C21_2 C20_2 1_555 1_555
C22_2 C17_2 1_555 1_555
H15_2 C22_2 1_555 1_555
Zn11_2 O12_2 1_555 1_555
Zn6_2 O14_2 1_555 1_555
O29_2 C31_2 1_555 1_555
O12_2 C31_2 1_555 1_555
O13_2 Zn3_5 1_555 1_555
O14_2 C39_2 1_555 1_555
O15_2 Zn6_2 1_555 1_555
O16_2 Zn4_2 1_555 1_555
O32 C54_2 1_555 1_555
O35 C54_2 1_555 1_555
N3_2 C35_2 1_555 1_555
N4_2 C50_2 1_555 1_555
C31_2 C32_2 1_555 1_555
C32_2 C33_2 1_555 1_555
C33_2 H23_2 1_555 1_555
C34_2 C33_2 1_555 1_555
H24_2 C34_2 1_555 1_555
C35_2 C34_2 1_555 1_555
C36_2 C35_2 1_555 1_555
H25_2 C36_2 1_555 1_555
C37_2 C32_2 1_555 1_555
H26_2 C37_2 1_555 1_555
C38_2 N3_2 1_555 1_555
H27_2 C38_2 1_555 1_555
H28_2 C38_2 1_555 1_555
H29_2 C38_2 1_555 1_555
C39_2 O13_2 1_555 1_555
C40_2 C39_2 1_555 1_555
C41_2 C40_2 1_555 1_555
H30_2 C41_2 1_555 1_555
C42_2 C41_2 1_555 1_555
H31_2 C42_2 1_555 1_555
C43_2 N3_2 1_555 1_555
C44_2 C43_2 1_555 1_555
H32_2 C44_2 1_555 1_555
C45_2 C40_2 1_555 1_555
H33_2 C45_2 1_555 1_555
C46_2 O15_2 1_555 1_555
C47_2 C46_2 1_555 1_555
C48_2 C47_2 1_555 1_555
H34_2 C48_2 1_555 1_555
C49_2 C48_2 1_555 1_555
H35_2 C49_2 1_555 1_555
C50_2 C49_2 1_555 1_555
C51_2 C50_2 1_555 1_555
H36_2 C51_2 1_555 1_555
C52_2 C47_2 1_555 1_555
H37_2 C52_2 1_555 1_555
C53_2 N4_2 1_555 1_555
H38_2 C53_2 1_555 1_555
H39_2 C53_2 1_555 1_555
H40_2 C53_2 1_555 1_555
C54_2 C55_2 1_555 1_555
C55_2 C56_2 1_555 1_555
C56_2 H41_2 1_555 1_555
C57_2 C56_2 1_555 1_555
H42_2 C57_2 1_555 1_555
C58_2 N4_2 1_555 1_555
C59_2 C58_2 1_555 1_555
H43_2 C59_2 1_555 1_555
C60_2 C55_2 1_555 1_555
H44_2 C60_2 1_555 1_555
Zn8_2 O2_5 1_555 1_555
O21_2 Zn3_5 1_555 1_555
O22_2 Zn8_2 1_555 1_555
O23_2 Zn8_2 1_555 1_555
O24_2 Zn6_2 1_555 1_555
C69_2 O21_2 1_555 1_555
C70_2 C69_2 1_555 1_555
C71_2 C70_2 1_555 1_555
H52_2 C71_2 1_555 1_555
H54_2 C74_2 1_555 1_555
C75_2 C70_2 1_555 1_555
H55_2 C75_2 1_555 1_555
C76_2 O23_2 1_555 1_555
C77_2 C76_2 1_555 1_555
C78_2 C77_2 1_555 1_555
H56_2 C78_2 1_555 1_555
C79_2 C78_2 1_555 1_555
H57_2 C79_2 1_555 1_555
C80_2 C79_2 1_555 1_555
C81_2 C80_2 1_555 1_555
C82_2 C77_2 1_555 1_555
H59_2 C82_2 1_555 1_555
Zn12_2 O1_5 1_555 1_555
O30_2 Zn1_5 1_555 1_555
O33_2 Zn11_2 1_555 1_555
O35_2 Zn11_2 1_555 1_555
O6_2 C9_2 1_555 1_555
O8_2 Zn8_2 1_555 1_555
C14_2 C15_2 1_555 1_555
C21_2 C22_2 1_555 1_555
O16_2 C46_2 1_555 1_555
C36_2 C37_2 1_555 1_555
C42_2 C43_2 1_555 1_555
C44_2 C45_2 1_555 1_555
C51_2 C52_2 1_555 1_555
C57_2 C58_2 1_555 1_555
C59_2 C60_2 1_555 1_555
O22_2 C69_2 1_555 1_555
O24_2 C76_2 1_555 1_555
C74_2 C75_2 1_555 1_555
C81_2 C82_2 1_555 1_555
Zn12_2 O20_2 1_555 1_555
O30_2 C61_2 1_555 1_555
O20_2 C61_2 1_555 1_555
O33 C84_2 1_555 1_555
O36 C84_2 1_555 1_555
N5_2 C65_2 1_555 1_555
C61_2 C62_2 1_555 1_555
C62_2 C63_2 1_555 1_555
C63_2 H45_2 1_555 1_555
C64_2 C63_2 1_555 1_555
H46_2 C64_2 1_555 1_555
C65_2 C64_2 1_555 1_555
C66_2 C65_2 1_555 1_555
H47_2 C66_2 1_555 1_555
C67_2 C62_2 1_555 1_555
C68_2 N5_2 1_555 1_555
H49_2 C68_2 1_555 1_555
H50_2 C68_2 1_555 1_555
H51_2 C68_2 1_555 1_555
H53_2 C72_2 1_555 1_555
C73_2 N5_2 1_555 1_555
C83_2 N6_2 1_555 1_555
H61_2 C83_2 1_555 1_555
C84_2 C85_2 1_555 1_555
C85_2 C86_2 1_555 1_555
C86_2 H63_2 1_555 1_555
C87_2 C86_2 1_555 1_555
H64_2 C87_2 1_555 1_555
C88_2 N6_2 1_555 1_555
C89_2 C88_2 1_555 1_555
C90_2 C85_2 1_555 1_555
H66_2 C90_2 1_555 1_555
O31_2 Zn12_2 1_555 1_555
C66_2 C67_2 1_555 1_555
C72_2 C73_2 1_555 1_555
C87_2 C88_2 1_555 1_555
C89_2 C90_2 1_555 1_555
Zn1_6 O1_6 1_555 1_555
Zn14 O1_6 1_555 1_555
O1_6 Zn16 1_555 1_555
O3_3 Zn1_6 1_555 1_555
O4_3 Zn14 1_555 1_555
C1_3 O3_3 1_555 1_555
C2_3 C1_3 1_555 1_555
C3_3 C2_3 1_555 1_555
H1_3 C3_3 1_555 1_555
C4_3 C3_3 1_555 1_555
H2_3 C4_3 1_555 1_555
C5_3 C4_3 1_555 1_555
C6_3 C5_3 1_555 1_555
H3_3 C6_3 1_555 1_555
C7_3 C2_3 1_555 1_555
H4_3 C7_3 1_555 1_555
O35_2 C54_3 1_555 1_555
N4_3 C50_3 1_555 1_555
H35_3 C49_3 1_555 1_555
C50_3 C49_3 1_555 1_555
C53_3 N4_3 1_555 1_555
H38_3 C53_3 1_555 1_555
H39_3 C53_3 1_555 1_555
H40_3 C53_3 1_555 1_555
C54_3 C55_3 1_555 1_555
C55_3 C56_3 1_555 1_555
C56_3 H41_3 1_555 1_555
C57_3 C56_3 1_555 1_555
H42_3 C57_3 1_555 1_555
C58_3 N4_3 1_555 1_555
Zn18 O1_6 1_555 1_555
O29_3 Zn1_6 1_555 1_555
O30_3 Zn1_6 1_555 1_555
O4_3 C1_3 1_555 1_555
C6_3 C7_3 1_555 1_555
C57_3 C58_3 1_555 1_555
Zn3_6 O2_6 1_555 1_555
Zn4_3 O2_6 1_555 1_555
O2_6 Zn6_3 1_555 1_555
O5_3 Zn3_6 1_555 1_555
O6_3 Zn4_3 1_555 1_555
O7_3 Zn4_3 1_555 1_555
O8_3 C16_3 1_555 1_555
O31_2 C24_3 1_555 1_555
O34_2 C24_3 1_555 1_555
N2_3 C20_3 1_555 1_555
C8_3 N1_3 1_555 1_555
H6_3 C8_3 1_555 1_555
H7_3 C8_3 1_555 1_555
C9_3 O5_3 1_555 1_555
C10_3 C9_3 1_555 1_555
C11_3 C10_3 1_555 1_555
H8_3 C11_3 1_555 1_555
C12_3 C11_3 1_555 1_555
H9_3 C12_3 1_555 1_555
C13_3 N1_3 1_555 1_555
C14_3 C13_3 1_555 1_555
H10_3 C14_3 1_555 1_555
C15_3 C10_3 1_555 1_555
H11_3 C15_3 1_555 1_555
C16_3 O7_3 1_555 1_555
C17_3 C16_3 1_555 1_555
C18_3 C17_3 1_555 1_555
H12_3 C18_3 1_555 1_555
C19_3 C18_3 1_555 1_555
H13_3 C19_3 1_555 1_555
C20_3 C19_3 1_555 1_555
C21_3 C20_3 1_555 1_555
H14_3 C21_3 1_555 1_555
C22_3 C17_3 1_555 1_555
H15_3 C22_3 1_555 1_555
C23_3 N2_3 1_555 1_555
H16_3 C23_3 1_555 1_555
H17_3 C23_3 1_555 1_555
H18_3 C23_3 1_555 1_555
C24_3 C25_3 1_555 1_555
C25_3 C26_3 1_555 1_555
C26_3 H19_3 1_555 1_555
C27_3 C26_3 1_555 1_555
H20_3 C27_3 1_555 1_555
C28_3 N2_3 1_555 1_555
C29_3 C28_3 1_555 1_555
H21_3 C29_3 1_555 1_555
C30_3 C25_3 1_555 1_555
H22_3 C30_3 1_555 1_555
Zn6_3 O14_3 1_555 1_555
O13_3 Zn3_6 1_555 1_555
O14_3 C39_3 1_555 1_555
O15_3 Zn6_3 1_555 1_555
O16_3 Zn4_3 1_555 1_555
C38_3 N3_3 1_555 1_555
H28_3 C38_3 1_555 1_555
H29_3 C38_3 1_555 1_555
C39_3 O13_3 1_555 1_555
C40_3 C39_3 1_555 1_555
C41_3 C40_3 1_555 1_555
H30_3 C41_3 1_555 1_555
C42_3 C41_3 1_555 1_555
H31_3 C42_3 1_555 1_555
C43_3 N3_3 1_555 1_555
C44_3 C43_3 1_555 1_555
H32_3 C44_3 1_555 1_555
C45_3 C40_3 1_555 1_555
H33_3 C45_3 1_555 1_555
C46_3 O15_3 1_555 1_555
C47_3 C46_3 1_555 1_555
C48_3 C47_3 1_555 1_555
H34_3 C48_3 1_555 1_555
H36_3 C51_3 1_555 1_555
C52_3 C47_3 1_555 1_555
H37_3 C52_3 1_555 1_555
H43_3 C59_3 1_555 1_555
H44_3 C60_3 1_555 1_555
Zn18 O20_3 1_555 1_555
Zn8_3 O2_6 1_555 1_555
O30_3 C61_3 1_555 1_555
O20_3 C61_3 1_555 1_555
O21_3 Zn3_6 1_555 1_555
O22_3 Zn8_3 1_555 1_555
O23_3 Zn8_3 1_555 1_555
O24_3 Zn6_3 1_555 1_555
N5_3 C65_3 1_555 1_555
C61_3 C62_3 1_555 1_555
C62_3 C63_3 1_555 1_555
C63_3 H45_3 1_555 1_555
C64_3 C63_3 1_555 1_555
H46_3 C64_3 1_555 1_555
C65_3 C64_3 1_555 1_555
C66_3 C65_3 1_555 1_555
H47_3 C66_3 1_555 1_555
C67_3 C62_3 1_555 1_555
H48_3 C67_3 1_555 1_555
C68_3 N5_3 1_555 1_555
H49_3 C68_3 1_555 1_555
H50_3 C68_3 1_555 1_555
H51_3 C68_3 1_555 1_555
C69_3 O21_3 1_555 1_555
C70_3 C69_3 1_555 1_555
C71_3 C70_3 1_555 1_555
H52_3 C71_3 1_555 1_555
C72_3 C71_3 1_555 1_555
H53_3 C72_3 1_555 1_555
C73_3 N5_3 1_555 1_555
C74_3 C73_3 1_555 1_555
H54_3 C74_3 1_555 1_555
C75_3 C70_3 1_555 1_555
H55_3 C75_3 1_555 1_555
C76_3 O23_3 1_555 1_555
C77_3 C76_3 1_555 1_555
C78_3 C77_3 1_555 1_555
H56_3 C78_3 1_555 1_555
H58_3 C81_3 1_555 1_555
C82_3 C77_3 1_555 1_555
H59_3 C82_3 1_555 1_555
H65_3 C89_3 1_555 1_555
H66_3 C90_3 1_555 1_555
O6_3 C9_3 1_555 1_555
O8_3 Zn8_3 1_555 1_555
C12_3 C13_3 1_555 1_555
C14_3 C15_3 1_555 1_555
C21_3 C22_3 1_555 1_555
C27_3 C28_3 1_555 1_555
C29_3 C30_3 1_555 1_555
O16_3 C46_3 1_555 1_555
C42_3 C43_3 1_555 1_555
C44_3 C45_3 1_555 1_555
C51_3 C52_3 1_555 1_555
C59_3 C60_3 1_555 1_555
O22_3 C69_3 1_555 1_555
O24_3 C76_3 1_555 1_555
C66_3 C67_3 1_555 1_555
C72_3 C73_3 1_555 1_555
C74_3 C75_3 1_555 1_555
C81_3 C82_3 1_555 1_555
C89_3 C90_3 1_555 1_555
Zn16 O12_3 1_555 1_555
O29_3 C31_3 1_555 1_555
O12_3 C31_3 1_555 1_555
C31_3 C32_3 1_555 1_555
C32_3 C33_3 1_555 1_555
C33_3 H23_3 1_555 1_555
C34_3 C33_3 1_555 1_555
H24_3 C34_3 1_555 1_555
C35_3 C34_3 1_555 1_555
C36_3 C35_3 1_555 1_555
H25_3 C36_3 1_555 1_555
C37_3 C32_3 1_555 1_555
H26_3 C37_3 1_555 1_555
O36_2 C84_3 1_555 1_555
N6_3 C80_3 1_555 1_555
H57_3 C79_3 1_555 1_555
C80_3 C79_3 1_555 1_555
C83_3 N6_3 1_555 1_555
H60_3 C83_3 1_555 1_555
H61_3 C83_3 1_555 1_555
H62_3 C83_3 1_555 1_555
C84_3 C85_3 1_555 1_555
C85_3 C86_3 1_555 1_555
C86_3 H63_3 1_555 1_555
C87_3 C86_3 1_555 1_555
H64_3 C87_3 1_555 1_555
C88_3 N6_3 1_555 1_555
C36_3 C37_3 1_555 1_555
C87_3 C88_3 1_555 1_555
Zn1_7 O1_7 1_555 1_555
Zn2_3 O1_7 1_555 1_555
Zn3_7 O2_7 1_555 1_555
Zn4_4 O2_7 1_555 1_555
O1_7 Zn11_3 1_555 1_555
O3_4 Zn1_7 1_555 1_555
O4_4 Zn2_3 1_555 1_555
O5_4 Zn3_7 1_555 1_555
O6_4 Zn4_4 1_555 1_555
O7_4 Zn4_4 1_555 1_555
O9_2 C24_4 1_555 1_555
O10_2 C24_4 1_555 1_555
N1_4 C5_4 1_555 1_555
C1_4 O3_4 1_555 1_555
C2_4 C1_4 1_555 1_555
C3_4 C2_4 1_555 1_555
H1_4 C3_4 1_555 1_555
C4_4 C3_4 1_555 1_555
H2_4 C4_4 1_555 1_555
C5_4 C4_4 1_555 1_555
C6_4 C5_4 1_555 1_555
H3_4 C6_4 1_555 1_555
C7_4 C2_4 1_555 1_555
H4_4 C7_4 1_555 1_555
C8_4 N1_4 1_555 1_555
H5_4 C8_4 1_555 1_555
H6_4 C8_4 1_555 1_555
H7_4 C8_4 1_555 1_555
C9_4 O5_4 1_555 1_555
C10_4 C9_4 1_555 1_555
C11_4 C10_4 1_555 1_555
H8_4 C11_4 1_555 1_555
C12_4 C11_4 1_555 1_555
H9_4 C12_4 1_555 1_555
C13_4 N1_4 1_555 1_555
C14_4 C13_4 1_555 1_555
H10_4 C14_4 1_555 1_555
C15_4 C10_4 1_555 1_555
H11_4 C15_4 1_555 1_555
H14_4 C21_4 1_555 1_555
H15_4 C22_4 1_555 1_555
C24_4 C25_4 1_555 1_555
C25_4 C26_4 1_555 1_555
C26_4 H19_4 1_555 1_555
C27_4 C26_4 1_555 1_555
H21_4 C29_4 1_555 1_555
C30_4 C25_4 1_555 1_555
H22_4 C30_4 1_555 1_555
O16_4 Zn4_4 1_555 1_555
N4_4 C50_4 1_555 1_555
C47_4 C46_4 1_555 1_555
C48_4 C47_4 1_555 1_555
H34_4 C48_4 1_555 1_555
C49_4 C48_4 1_555 1_555
H35_4 C49_4 1_555 1_555
C50_4 C49_4 1_555 1_555
C53_4 N4_4 1_555 1_555
H38_4 C53_4 1_555 1_555
H39_4 C53_4 1_555 1_555
H40_4 C53_4 1_555 1_555
C58_4 N4_4 1_555 1_555
Zn12_3 O1_7 1_555 1_555
O29_4 Zn1_7 1_555 1_555
O30_4 Zn1_7 1_555 1_555
O32_3 Zn2_3 1_555 1_555
O34_3 Zn2_3 1_555 1_555
O4_4 C1_4 1_555 1_555
O6_4 C9_4 1_555 1_555
C6_4 C7_4 1_555 1_555
C12_4 C13_4 1_555 1_555
C14_4 C15_4 1_555 1_555
C21_4 C22_4 1_555 1_555
C29_4 C30_4 1_555 1_555
O16_4 C46_4 1_555 1_555
Zn3_8 O2_8 1_555 1_555
O2_8 Zn6_4 1_555 1_555
Zn6_4 O14_4 1_555 1_555
O13_4 Zn3_8 1_555 1_555
O14_4 C39_4 1_555 1_555
O15_4 Zn6_4 1_555 1_555
O17_2 C54_4 1_555 1_555
O18_2 C54_4 1_555 1_555
N3_4 C35_4 1_555 1_555
H24_4 C34_4 1_555 1_555
C35_4 C34_4 1_555 1_555
C38_4 N3_4 1_555 1_555
H27_4 C38_4 1_555 1_555
H28_4 C38_4 1_555 1_555
H29_4 C38_4 1_555 1_555
C39_4 O13_4 1_555 1_555
C40_4 C39_4 1_555 1_555
C41_4 C40_4 1_555 1_555
H30_4 C41_4 1_555 1_555
C42_4 C41_4 1_555 1_555
H31_4 C42_4 1_555 1_555
C43_4 N3_4 1_555 1_555
C44_4 C43_4 1_555 1_555
H32_4 C44_4 1_555 1_555
C45_4 C40_4 1_555 1_555
H33_4 C45_4 1_555 1_555
H36_4 C51_4 1_555 1_555
H37_4 C52_4 1_555 1_555
C54_4 C55_4 1_555 1_555
C55_4 C56_4 1_555 1_555
C56_4 H41_4 1_555 1_555
C57_4 C56_4 1_555 1_555
H43_4 C59_4 1_555 1_555
C60_4 C55_4 1_555 1_555
H44_4 C60_4 1_555 1_555
C42_4 C43_4 1_555 1_555
C44_4 C45_4 1_555 1_555
C51_4 C52_4 1_555 1_555
C59_4 C60_4 1_555 1_555
Zn3_9 O2_9 1_555 1_555
O8_4 C16_4 1_555 1_555
N2_4 C20_4 1_555 1_555
C17_4 C16_4 1_555 1_555
C18_4 C17_4 1_555 1_555
H12_4 C18_4 1_555 1_555
C19_4 C18_4 1_555 1_555
H13_4 C19_4 1_555 1_555
C20_4 C19_4 1_555 1_555
C23_4 N2_4 1_555 1_555
H16_4 C23_4 1_555 1_555
H17_4 C23_4 1_555 1_555
H18_4 C23_4 1_555 1_555
C28_4 N2_4 1_555 1_555
Zn12_3 O20_4 1_555 1_555
O30_4 C61_4 1_555 1_555
O20_4 C61_4 1_555 1_555
C61_4 C62_4 1_555 1_555
C62_4 C63_4 1_555 1_555
C63_4 H45_4 1_555 1_555
H47_4 C66_4 1_555 1_555
C67_4 C62_4 1_555 1_555
H48_4 C67_4 1_555 1_555
O31_3 Zn12_3 1_555 1_555
O36_3 Zn12_3 1_555 1_555
C66_4 C67_4 1_555 1_555
Zn3_10 O2_10 1_555 1_555
Zn11_3 O12_4 1_555 1_555
O29_4 C31_4 1_555 1_555
O12_4 C31_4 1_555 1_555
C31_4 C32_4 1_555 1_555
C32_4 C33_4 1_555 1_555
C33_4 H23_4 1_555 1_555
H25_4 C36_4 1_555 1_555
C37_4 C32_4 1_555 1_555
H26_4 C37_4 1_555 1_555
Zn8_4 O2_10 1_555 1_555
O21_4 Zn3_10 1_555 1_555
O22_4 Zn8_4 1_555 1_555
O23_4 Zn8_4 1_555 1_555
O25_2 C84_4 1_555 1_555
O26_2 C84_4 1_555 1_555
N5_4 C65_4 1_555 1_555
N6_4 C80_4 1_555 1_555
H46_4 C64_4 1_555 1_555
C65_4 C64_4 1_555 1_555
C68_4 N5_4 1_555 1_555
H49_4 C68_4 1_555 1_555
H50_4 C68_4 1_555 1_555
H51_4 C68_4 1_555 1_555
C69_4 O21_4 1_555 1_555
C70_4 C69_4 1_555 1_555
C71_4 C70_4 1_555 1_555
H52_4 C71_4 1_555 1_555
C72_4 C71_4 1_555 1_555
H53_4 C72_4 1_555 1_555
C73_4 N5_4 1_555 1_555
C74_4 C73_4 1_555 1_555
H54_4 C74_4 1_555 1_555
C75_4 C70_4 1_555 1_555
H55_4 C75_4 1_555 1_555
C76_4 O23_4 1_555 1_555
C77_4 C76_4 1_555 1_555
C78_4 C77_4 1_555 1_555
H56_4 C78_4 1_555 1_555
C79_4 C78_4 1_555 1_555
H57_4 C79_4 1_555 1_555
C80_4 C79_4 1_555 1_555
C81_4 C80_4 1_555 1_555
H58_4 C81_4 1_555 1_555
C82_4 C77_4 1_555 1_555
H59_4 C82_4 1_555 1_555
C83_4 N6_4 1_555 1_555
H60_4 C83_4 1_555 1_555
H61_4 C83_4 1_555 1_555
H62_4 C83_4 1_555 1_555
C84_4 C85_4 1_555 1_555
C85_4 C86_4 1_555 1_555
C86_4 H63_4 1_555 1_555
C87_4 C86_4 1_555 1_555
H64_4 C87_4 1_555 1_555
C88_4 N6_4 1_555 1_555
C89_4 C88_4 1_555 1_555
H65_4 C89_4 1_555 1_555
C90_4 C85_4 1_555 1_555
H66_4 C90_4 1_555 1_555
O33_3 Zn11_3 1_555 1_555
O35_3 Zn11_3 1_555 1_555
C36_4 C37_4 1_555 1_555
O22_4 C69_4 1_555 1_555
O24_4 C76_4 1_555 1_555
C72_4 C73_4 1_555 1_555
C74_4 C75_4 1_555 1_555
C81_4 C82_4 1_555 1_555
C87_4 C88_4 1_555 1_555
C89_4 C90_4 1_555 1_555
Zn1_8 O1_8 1_555 1_555
Zn14_2 O1_8 1_555 1_555
O1_8 Zn16_2 1_555 1_555
O3_5 Zn1_8 1_555 1_555
O4_5 Zn14_2 1_555 1_555
C1_5 O3_5 1_555 1_555
C2_5 C1_5 1_555 1_555
C3_5 C2_5 1_555 1_555
H1_5 C3_5 1_555 1_555
C4_5 C3_5 1_555 1_555
H2_5 C4_5 1_555 1_555
C5_5 C4_5 1_555 1_555
C6_5 C5_5 1_555 1_555
H3_5 C6_5 1_555 1_555
C7_5 C2_5 1_555 1_555
H4_5 C7_5 1_555 1_555
O18_3 C54_5 1_555 1_555
N4_5 C50_5 1_555 1_555
H35_5 C49_5 1_555 1_555
C50_5 C49_5 1_555 1_555
C53_5 N4_5 1_555 1_555
H38_5 C53_5 1_555 1_555
H39_5 C53_5 1_555 1_555
H40_5 C53_5 1_555 1_555
C54_5 C55_5 1_555 1_555
C55_5 C56_5 1_555 1_555
C56_5 H41_5 1_555 1_555
C57_5 C56_5 1_555 1_555
H42_5 C57_5 1_555 1_555
C58_5 N4_5 1_555 1_555
Zn18_2 O1_8 1_555 1_555
Zn16_3 O18_3 1_555 1_555
O29_5 Zn1_8 1_555 1_555
O30_5 Zn1_8 1_555 1_555
O4_5 C1_5 1_555 1_555
C6_5 C7_5 1_555 1_555
C57_5 C58_5 1_555 1_555
Zn3_11 O2_11 1_555 1_555
Zn4_5 O2_11 1_555 1_555
O2_11 Zn6_5 1_555 1_555
O5_5 Zn3_11 1_555 1_555
O6_5 Zn4_5 1_555 1_555
O7_5 Zn4_5 1_555 1_555
O8_5 C16_5 1_555 1_555
O9_3 C24_5 1_555 1_555
O10_3 C24_5 1_555 1_555
N2_5 C20_5 1_555 1_555
C8_5 N1_5 1_555 1_555
H6_5 C8_5 1_555 1_555
H7_5 C8_5 1_555 1_555
C9_5 O5_5 1_555 1_555
C10_5 C9_5 1_555 1_555
C11_5 C10_5 1_555 1_555
H8_5 C11_5 1_555 1_555
C12_5 C11_5 1_555 1_555
H9_5 C12_5 1_555 1_555
C13_5 N1_5 1_555 1_555
C14_5 C13_5 1_555 1_555
H10_5 C14_5 1_555 1_555
C15_5 C10_5 1_555 1_555
H11_5 C15_5 1_555 1_555
C16_5 O7_5 1_555 1_555
C17_5 C16_5 1_555 1_555
C18_5 C17_5 1_555 1_555
H12_5 C18_5 1_555 1_555
C19_5 C18_5 1_555 1_555
H13_5 C19_5 1_555 1_555
C20_5 C19_5 1_555 1_555
C21_5 C20_5 1_555 1_555
H14_5 C21_5 1_555 1_555
C22_5 C17_5 1_555 1_555
H15_5 C22_5 1_555 1_555
C23_5 N2_5 1_555 1_555
H16_5 C23_5 1_555 1_555
H17_5 C23_5 1_555 1_555
H18_5 C23_5 1_555 1_555
C24_5 C25_5 1_555 1_555
C25_5 C26_5 1_555 1_555
C26_5 H19_5 1_555 1_555
C27_5 C26_5 1_555 1_555
H20_5 C27_5 1_555 1_555
C28_5 N2_5 1_555 1_555
C29_5 C28_5 1_555 1_555
H21_5 C29_5 1_555 1_555
C30_5 C25_5 1_555 1_555
H22_5 C30_5 1_555 1_555
Zn6_5 O14_5 1_555 1_555
O13_5 Zn3_11 1_555 1_555
O14_5 C39_5 1_555 1_555
O15_5 Zn6_5 1_555 1_555
O16_5 Zn4_5 1_555 1_555
C38_5 N3_5 1_555 1_555
H28_5 C38_5 1_555 1_555
H29_5 C38_5 1_555 1_555
C39_5 O13_5 1_555 1_555
C40_5 C39_5 1_555 1_555
C41_5 C40_5 1_555 1_555
H30_5 C41_5 1_555 1_555
C42_5 C41_5 1_555 1_555
H31_5 C42_5 1_555 1_555
C43_5 N3_5 1_555 1_555
C44_5 C43_5 1_555 1_555
H32_5 C44_5 1_555 1_555
C45_5 C40_5 1_555 1_555
H33_5 C45_5 1_555 1_555
C46_5 O15_5 1_555 1_555
C47_5 C46_5 1_555 1_555
C48_5 C47_5 1_555 1_555
H34_5 C48_5 1_555 1_555
H36_5 C51_5 1_555 1_555
C52_5 C47_5 1_555 1_555
H37_5 C52_5 1_555 1_555
H43_5 C59_5 1_555 1_555
H44_5 C60_5 1_555 1_555
Zn18_2 O20_5 1_555 1_555
Zn8_5 O2_11 1_555 1_555
O30_5 C61_5 1_555 1_555
O20_5 C61_5 1_555 1_555
O21_5 Zn3_11 1_555 1_555
O22_5 Zn8_5 1_555 1_555
O23_5 Zn8_5 1_555 1_555
O24_5 Zn6_5 1_555 1_555
N5_5 C65_5 1_555 1_555
C61_5 C62_5 1_555 1_555
C62_5 C63_5 1_555 1_555
C63_5 H45_5 1_555 1_555
C64_5 C63_5 1_555 1_555
H46_5 C64_5 1_555 1_555
C65_5 C64_5 1_555 1_555
C66_5 C65_5 1_555 1_555
H47_5 C66_5 1_555 1_555
C67_5 C62_5 1_555 1_555
H48_5 C67_5 1_555 1_555
C68_5 N5_5 1_555 1_555
H49_5 C68_5 1_555 1_555
H50_5 C68_5 1_555 1_555
H51_5 C68_5 1_555 1_555
C69_5 O21_5 1_555 1_555
C70_5 C69_5 1_555 1_555
C71_5 C70_5 1_555 1_555
H52_5 C71_5 1_555 1_555
C72_5 C71_5 1_555 1_555
H53_5 C72_5 1_555 1_555
C73_5 N5_5 1_555 1_555
C74_5 C73_5 1_555 1_555
H54_5 C74_5 1_555 1_555
C75_5 C70_5 1_555 1_555
H55_5 C75_5 1_555 1_555
C76_5 O23_5 1_555 1_555
C77_5 C76_5 1_555 1_555
C78_5 C77_5 1_555 1_555
H56_5 C78_5 1_555 1_555
H58_5 C81_5 1_555 1_555
C82_5 C77_5 1_555 1_555
H59_5 C82_5 1_555 1_555
H65_5 C89_5 1_555 1_555
H66_5 C90_5 1_555 1_555
Zn14_3 O17_3 1_555 1_555
Zn16_3 O25_3 1_555 1_555
Zn18_3 O9_3 1_555 1_555
O6_5 C9_5 1_555 1_555
O8_5 Zn8_5 1_555 1_555
C12_5 C13_5 1_555 1_555
C14_5 C15_5 1_555 1_555
C21_5 C22_5 1_555 1_555
C27_5 C28_5 1_555 1_555
C29_5 C30_5 1_555 1_555
O16_5 C46_5 1_555 1_555
C42_5 C43_5 1_555 1_555
C44_5 C45_5 1_555 1_555
C51_5 C52_5 1_555 1_555
C59_5 C60_5 1_555 1_555
O22_5 C69_5 1_555 1_555
O24_5 C76_5 1_555 1_555
C66_5 C67_5 1_555 1_555
C72_5 C73_5 1_555 1_555
C74_5 C75_5 1_555 1_555
C81_5 C82_5 1_555 1_555
C89_5 C90_5 1_555 1_555
Zn16_2 O12_5 1_555 1_555
O29_5 C31_5 1_555 1_555
O12_5 C31_5 1_555 1_555
C31_5 C32_5 1_555 1_555
C32_5 C33_5 1_555 1_555
C33_5 H23_5 1_555 1_555
C34_5 C33_5 1_555 1_555
H24_5 C34_5 1_555 1_555
C35_5 C34_5 1_555 1_555
C36_5 C35_5 1_555 1_555
H25_5 C36_5 1_555 1_555
C37_5 C32_5 1_555 1_555
H26_5 C37_5 1_555 1_555
O26_3 C84_5 1_555 1_555
N6_5 C80_5 1_555 1_555
H57_5 C79_5 1_555 1_555
C80_5 C79_5 1_555 1_555
C83_5 N6_5 1_555 1_555
H60_5 C83_5 1_555 1_555
H61_5 C83_5 1_555 1_555
H62_5 C83_5 1_555 1_555
C84_5 C85_5 1_555 1_555
C85_5 C86_5 1_555 1_555
C86_5 H63_5 1_555 1_555
C87_5 C86_5 1_555 1_555
H64_5 C87_5 1_555 1_555
C88_5 N6_5 1_555 1_555
C36_5 C37_5 1_555 1_555
C87_5 C88_5 1_555 1_555
Zn1_9 O1_9 1_555 1_555
O1_9 Zn16_3 1_555 1_555
O29_6 Zn1_9 1_555 1_555
Zn1_10 O1_10 1_555 1_555
Zn1_11 O1_11 1_555 1_555
Zn14_3 O1_11 1_555 1_555
O3_6 Zn1_11 1_555 1_555
O4_6 Zn14_3 1_555 1_555
O31_3 C24_6 1_555 1_555
O34_3 C24_6 1_555 1_555
N1_6 C5_6 1_555 1_555
C1_6 O3_6 1_555 1_555
C2_6 C1_6 1_555 1_555
C3_6 C2_6 1_555 1_555
H1_6 C3_6 1_555 1_555
C4_6 C3_6 1_555 1_555
H2_6 C4_6 1_555 1_555
C5_6 C4_6 1_555 1_555
C6_6 C5_6 1_555 1_555
H3_6 C6_6 1_555 1_555
C7_6 C2_6 1_555 1_555
C8_6 N1_6 1_555 1_555
H5_6 C8_6 1_555 1_555
H6_6 C8_6 1_555 1_555
H7_6 C8_6 1_555 1_555
H9_6 C12_6 1_555 1_555
C13_6 N1_6 1_555 1_555
C23_6 N2_6 1_555 1_555
H17_6 C23_6 1_555 1_555
C24_6 C25_6 1_555 1_555
C25_6 C26_6 1_555 1_555
C26_6 H19_6 1_555 1_555
C27_6 C26_6 1_555 1_555
H20_6 C27_6 1_555 1_555
C28_6 N2_6 1_555 1_555
C29_6 C28_6 1_555 1_555
C30_6 C25_6 1_555 1_555
H22_6 C30_6 1_555 1_555
O4_6 C1_6 1_555 1_555
C6_6 C7_6 1_555 1_555
C12_6 C13_6 1_555 1_555
C27_6 C28_6 1_555 1_555
C29_6 C30_6 1_555 1_555
Zn1_12 O1_12 1_555 1_555
Zn3_12 O2_12 1_555 1_555
Zn4_6 O2_12 1_555 1_555
O2_12 Zn6_6 1_555 1_555
O5_6 Zn3_12 1_555 1_555
O6_6 Zn4_6 1_555 1_555
O7_6 Zn4_6 1_555 1_555
O8_6 C16_6 1_555 1_555
C9_6 O5_6 1_555 1_555
C10_6 C9_6 1_555 1_555
C11_6 C10_6 1_555 1_555
H8_6 C11_6 1_555 1_555
H10_6 C14_6 1_555 1_555
C15_6 C10_6 1_555 1_555
H11_6 C15_6 1_555 1_555
C16_6 O7_6 1_555 1_555
C17_6 C16_6 1_555 1_555
C18_6 C17_6 1_555 1_555
H12_6 C18_6 1_555 1_555
C19_6 C18_6 1_555 1_555
H13_6 C19_6 1_555 1_555
C20_6 C19_6 1_555 1_555
C21_6 C20_6 1_555 1_555
C22_6 C17_6 1_555 1_555
H15_6 C22_6 1_555 1_555
Zn16_3 O12_6 1_555 1_555
Zn6_6 O14_6 1_555 1_555
O29_6 C31_6 1_555 1_555
O12_6 C31_6 1_555 1_555
O13_6 Zn3_12 1_555 1_555
O14_6 C39_6 1_555 1_555
O15_6 Zn6_6 1_555 1_555
O16_6 Zn4_6 1_555 1_555
O32_3 C54_6 1_555 1_555
O35_3 C54_6 1_555 1_555
N3_6 C35_6 1_555 1_555
N4_6 C50_6 1_555 1_555
C31_6 C32_6 1_555 1_555
C32_6 C33_6 1_555 1_555
C33_6 H23_6 1_555 1_555
C34_6 C33_6 1_555 1_555
H24_6 C34_6 1_555 1_555
C35_6 C34_6 1_555 1_555
C36_6 C35_6 1_555 1_555
H25_6 C36_6 1_555 1_555
C37_6 C32_6 1_555 1_555
H26_6 C37_6 1_555 1_555
C38_6 N3_6 1_555 1_555
H27_6 C38_6 1_555 1_555
H28_6 C38_6 1_555 1_555
H29_6 C38_6 1_555 1_555
C39_6 O13_6 1_555 1_555
C40_6 C39_6 1_555 1_555
C41_6 C40_6 1_555 1_555
H30_6 C41_6 1_555 1_555
C42_6 C41_6 1_555 1_555
H31_6 C42_6 1_555 1_555
C43_6 N3_6 1_555 1_555
C44_6 C43_6 1_555 1_555
H32_6 C44_6 1_555 1_555
C45_6 C40_6 1_555 1_555
H33_6 C45_6 1_555 1_555
C46_6 O15_6 1_555 1_555
C47_6 C46_6 1_555 1_555
C48_6 C47_6 1_555 1_555
H34_6 C48_6 1_555 1_555
C49_6 C48_6 1_555 1_555
H35_6 C49_6 1_555 1_555
C50_6 C49_6 1_555 1_555
C51_6 C50_6 1_555 1_555
H36_6 C51_6 1_555 1_555
C52_6 C47_6 1_555 1_555
H37_6 C52_6 1_555 1_555
C53_6 N4_6 1_555 1_555
H38_6 C53_6 1_555 1_555
H39_6 C53_6 1_555 1_555
H40_6 C53_6 1_555 1_555
C54_6 C55_6 1_555 1_555
C55_6 C56_6 1_555 1_555
C56_6 H41_6 1_555 1_555
C57_6 C56_6 1_555 1_555
H42_6 C57_6 1_555 1_555
C58_6 N4_6 1_555 1_555
C59_6 C58_6 1_555 1_555
H43_6 C59_6 1_555 1_555
C60_6 C55_6 1_555 1_555
H44_6 C60_6 1_555 1_555
Zn8_6 O2_12 1_555 1_555
O21_6 Zn3_12 1_555 1_555
O22_6 Zn8_6 1_555 1_555
O23_6 Zn8_6 1_555 1_555
O24_6 Zn6_6 1_555 1_555
C69_6 O21_6 1_555 1_555
C70_6 C69_6 1_555 1_555
C71_6 C70_6 1_555 1_555
H52_6 C71_6 1_555 1_555
H54_6 C74_6 1_555 1_555
C75_6 C70_6 1_555 1_555
H55_6 C75_6 1_555 1_555
C76_6 O23_6 1_555 1_555
C77_6 C76_6 1_555 1_555
C78_6 C77_6 1_555 1_555
H56_6 C78_6 1_555 1_555
C79_6 C78_6 1_555 1_555
H57_6 C79_6 1_555 1_555
C80_6 C79_6 1_555 1_555
C81_6 C80_6 1_555 1_555
C82_6 C77_6 1_555 1_555
H59_6 C82_6 1_555 1_555
Zn18_3 O1_12 1_555 1_555
O30_6 Zn1_12 1_555 1_555
O6_6 C9_6 1_555 1_555
O8_6 Zn8_6 1_555 1_555
C14_6 C15_6 1_555 1_555
C21_6 C22_6 1_555 1_555
O16_6 C46_6 1_555 1_555
C36_6 C37_6 1_555 1_555
C42_6 C43_6 1_555 1_555
C44_6 C45_6 1_555 1_555
C51_6 C52_6 1_555 1_555
C57_6 C58_6 1_555 1_555
C59_6 C60_6 1_555 1_555
O22_6 C69_6 1_555 1_555
O24_6 C76_6 1_555 1_555
C74_6 C75_6 1_555 1_555
C81_6 C82_6 1_555 1_555
Zn18_3 O20_6 1_555 1_555
O30_6 C61_6 1_555 1_555
O20_6 C61_6 1_555 1_555
O33_3 C84_6 1_555 1_555
O36_3 C84_6 1_555 1_555
N5_6 C65_6 1_555 1_555
C61_6 C62_6 1_555 1_555
C62_6 C63_6 1_555 1_555
C63_6 H45_6 1_555 1_555
C64_6 C63_6 1_555 1_555
H46_6 C64_6 1_555 1_555
C65_6 C64_6 1_555 1_555
C66_6 C65_6 1_555 1_555
H47_6 C66_6 1_555 1_555
C67_6 C62_6 1_555 1_555
C68_6 N5_6 1_555 1_555
H49_6 C68_6 1_555 1_555
H50_6 C68_6 1_555 1_555
H51_6 C68_6 1_555 1_555
H53_6 C72_6 1_555 1_555
C73_6 N5_6 1_555 1_555
C83_6 N6_6 1_555 1_555
H61_6 C83_6 1_555 1_555
C84_6 C85_6 1_555 1_555
C85_6 C86_6 1_555 1_555
C86_6 H63_6 1_555 1_555
C87_6 C86_6 1_555 1_555
H64_6 C87_6 1_555 1_555
C88_6 N6_6 1_555 1_555
C89_6 C88_6 1_555 1_555
C90_6 C85_6 1_555 1_555
H66_6 C90_6 1_555 1_555
C66_6 C67_6 1_555 1_555
C72_6 C73_6 1_555 1_555
C87_6 C88_6 1_555 1_555
C89_6 C90_6 1_555 1_555

#END
