
###############################################################################
#
# This file contains modified crystal structure data generated from the
# MOF subset of the Cambridge Structural Database (CSD) v543 
# hosted by the Cambridge Crystallographic Data Centre (CCDC).
#
# This work is licensed under the Creative Commons
# Attribution-NonCommercial-ShareAlike 4.0 International License.
# To view a copy of this license, visit
# http://creativecommons.org/licenses/by-nc-sa/4.0/
# or send a letter to
# Creative Commons, PO Box 1866, Mountain View, CA 94042, USA.
#
# CIF created using the CSD Python API on 29 September 2022
# The structure has been converted into the P1 space group
# The structure has a 3D framework
# The original CSD entry JUJNAF is in the rhombohedral crystal system
# The framework has been calculated to contain at least 10.0% void space
# The void calculation uses a probe of radius 1.32A, grid spacing 0.4
#
###############################################################################

data_JUJNAF
_chemical_formula_moiety         '(C540 H396 N36 O160 Zn60)n'
_symmetry_cell_setting           triclinic
_symmetry_space_group_name_H-M   'P 1'
_symmetry_Int_Tables_number      1
_space_group_name_Hall           'P 1'
loop_
_symmetry_equiv_pos_site_id
_symmetry_equiv_pos_as_xyz
1 x,y,z
_cell_length_a                   18.118(3)
_cell_length_b                   18.118(3)
_cell_length_c                   67.542(14)
_cell_angle_alpha                90
_cell_angle_beta                 90
_cell_angle_gamma                120
_cell_volume                     19201.1
loop_
_atom_site_label
_atom_site_type_symbol
_atom_site_fract_x
_atom_site_fract_y
_atom_site_fract_z
Zn10 Zn 0.02669(5) 0.11152(7) 0.091092(11)
Zn1 Zn 0.3333 0.6667 0.22008(2)
Zn2 Zn 0.36002(5) 0.58183(5) 0.257759(11)
N1 N 0.4465(4) 0.3332(4) 0.16571(11)
O1 O 0.3333 0.6667 0.24898(12)
O2 O 0.3828(5) 0.6008(5) 0.21056(10)
O3 O 0.3973(4) 0.5342(4) 0.23669(7)
O4 O 0.1165(3) 0.1492(3) 0.11100(9)
O5 O 0.1792(3) 0.0724(3) 0.10369(7)
C1 C 0.3999(5) 0.5499(5) 0.21789(11)
C2 C 0.4207(5) 0.4981(5) 0.20486(10)
C3 C 0.4322(5) 0.4323(5) 0.21155(12)
H1 H 0.4327 0.4240 0.2254
C4 C 0.4425(5) 0.3800(5) 0.19940(11)
H2 H 0.4508 0.3360 0.2046
C5 C 0.4410(5) 0.3908(5) 0.17871(11)
C6 C 0.4329(6) 0.4582(6) 0.17231(12)
H3 H 0.4353 0.4686 0.1585
C7 C 0.4219(6) 0.5102(5) 0.18447(11)
H4 H 0.4149 0.5550 0.1792
C8 C 0.5128(6) 0.3131(7) 0.16831(14)
H5 H 0.4881 0.2511 0.1683
H6 H 0.5417 0.3365 0.1809
H7 H 0.5539 0.3380 0.1574
C9 C 0.1775(5) 0.1327(5) 0.11291(13)
C10 C 0.2478(5) 0.1865(5) 0.12569(11)
C11 C 0.2418(5) 0.2427(5) 0.13873(12)
H8 H 0.1925 0.2485 0.1387
C12 C 0.3066(5) 0.2893(6) 0.15150(11)
H9 H 0.3001 0.3265 0.1603
C13 C 0.3813(5) 0.2866(5) 0.15256(11)
C14 C 0.3877(5) 0.2313(5) 0.13864(12)
H10 H 0.4392 0.2296 0.1378
C15 C 0.3225(5) 0.1813(5) 0.12661(13)
H11 H 0.3271 0.1411 0.1184
Zn3 Zn 0.41817(5) 0.77819(7) 0.257759(11)
O6 O 0.3992(5) 0.7820(7) 0.21056(10)
O7 O 0.4658(4) 0.8631(6) 0.23669(7)
O8 O 0.8508(3) 0.9673(4) 0.11100(9)
C16 C 0.4501(5) 0.8500(7) 0.21789(11)
C17 C 0.5019(5) 0.9226(7) 0.20486(10)
C18 C 0.5677(5) 0.9999(7) 0.21155(12)
C21 C 0.5418(6) 0.9747(8) 0.17231(12)
H14 H 0.5314 0.9667 0.1585
C22 C 0.4898(5) 0.9117(8) 0.18447(11)
H15 H 0.4450 0.8599 0.1792
C26 C 0.7573(5) 0.9991(7) 0.13873(12)
H19 H 0.7515 0.9440 0.1387
H20 H 0.6735 0.9736 0.1603
Zn4 Zn 0.22181(7) 0.63998(5) 0.257759(11)
O10 O 0.2180(7) 0.6172(5) 0.21056(10)
O11 O 0.1369(6) 0.6027(4) 0.23669(7)
O12 O 0.0327(4) 0.8835(3) 0.11100(9)
C31 C 0.1500(7) 0.6001(5) 0.21789(11)
C32 C 0.0774(7) 0.5793(5) 0.20486(10)
C33 C 0.0001(7) 0.5678(5) 0.21155(12)
C36 C 0.0253(8) 0.5671(6) 0.17231(12)
H25 H 0.0333 0.5647 0.1585
C37 C 0.0883(8) 0.5781(6) 0.18447(11)
H26 H 0.1401 0.5851 0.1792
C41 C 0.0009(7) 0.7582(5) 0.13873(12)
H30 H 0.0560 0.8075 0.1387
H31 H 0.0264 0.6999 0.1603
Zn6 Zn 0.08484(5) 0.97331(5) 0.091092(11)
Zn8 Zn 0.88848(7) 0.91516(5) 0.091092(11)
O14 O 0.1841(3) 0.5502(3) 0.27767(9)
O15 O 0.3660(4) 0.8159(3) 0.27767(9)
O16 O 0.4498(3) 0.6340(4) 0.27767(9)
O17 O 0.2609(3) 0.4875(3) 0.27036(7)
O18 O 0.2265(4) 0.7391(3) 0.27036(7)
O19 O 0.5125(3) 0.7735(4) 0.27036(7)
N3 N 0.8867(6) 0.5535(4) 0.16571(11)
O13 O 0.8932(4) 0.8208(3) 0.10369(7)
H23 H 0.9913 0.5673 0.2254
C34 C 0.9375(7) 0.5575(5) 0.19940(11)
H24 H 0.8852 0.5492 0.2046
C35 C 0.9498(7) 0.5590(5) 0.17871(11)
C38 C 0.8003(9) 0.4872(6) 0.16831(14)
H27 H 0.7630 0.5119 0.1683
H28 H 0.7948 0.4583 0.1809
H29 H 0.7841 0.4461 0.1574
C39 C 0.9552(7) 0.8225(5) 0.11291(13)
C40 C 0.9387(7) 0.7522(5) 0.12569(11)
C42 C 0.9827(8) 0.6934(5) 0.15150(11)
C43 C 0.9053(7) 0.6187(5) 0.15256(11)
C44 C 0.8436(7) 0.6123(5) 0.13864(12)
H32 H 0.7904 0.5608 0.1378
C45 C 0.8588(7) 0.6775(5) 0.12661(13)
H33 H 0.8140 0.6729 0.1184
Zn1_2 Zn -0.0000 0.0000 0.55341(2)
O1_2 O -0.0000 0.0000 0.58231(12)
Zn3_2 Zn 0.08484(5) 0.11152(7) 0.591092(11)
N2 N 0.3335(4) 0.4466(6) 0.49904(11)
O6_2 O 0.0659(5) 0.1153(7) 0.54389(10)
O7_2 O 0.1325(4) 0.1964(6) 0.57002(7)
O8_2 O 0.5175(3) 0.3006(4) 0.44433(9)
O9 O 0.5943(3) 0.4401(4) 0.43702(7)
C16_2 C 0.1168(5) 0.1833(7) 0.55122(11)
C17_2 C 0.1686(5) 0.2559(7) 0.53819(10)
C18_2 C 0.2344(5) 0.3332(7) 0.54488(12)
H12 H 0.2427 0.3420 0.5587
C19 C 0.2867(5) 0.3958(7) 0.53273(11)
H13 H 0.3307 0.4481 0.5379
C20 C 0.2759(5) 0.3835(7) 0.51204(11)
C21_2 C 0.2085(6) 0.3080(8) 0.50564(12)
H14_2 H 0.1981 0.3000 0.4918
C22_2 C 0.1565(5) 0.2450(8) 0.51780(11)
H15_2 H 0.1117 0.1932 0.5125
C23 C 0.3536(7) 0.5330(9) 0.50164(14)
H16 H 0.4156 0.5703 0.5016
H17 H 0.3302 0.5385 0.5142
H18 H 0.3287 0.5492 0.4907
C24 C 0.5340(5) 0.3781(7) 0.44624(13)
C25 C 0.4802(5) 0.3946(7) 0.45902(11)
C26_2 C 0.4240(5) 0.3324(7) 0.47206(12)
H19_2 H 0.4182 0.2773 0.4720
C27 C 0.3774(6) 0.3506(8) 0.48483(11)
H20_2 H 0.3402 0.3069 0.4936
C28 C 0.3801(5) 0.4280(7) 0.48589(11)
C29 C 0.4354(5) 0.4897(7) 0.47197(12)
H21 H 0.4371 0.5429 0.4711
C30 C 0.4854(5) 0.4745(7) 0.45994(13)
H22 H 0.5256 0.5193 0.4517
Zn8_2 Zn 0.55514(7) 0.24850(5) 0.424426(11)
Zn10_2 Zn 0.69335(5) 0.44486(7) 0.424426(11)
O15_2 O 0.0327(4) 0.1492(3) 0.61100(9)
O19_2 O 0.1792(3) 0.1068(4) 0.60369(7)
Zn1_3 Zn -0.0000 1.0000 0.55341(2)
Zn2_2 Zn 0.02669(5) 0.91516(5) 0.591092(11)
N1_2 N 0.1132(4) 0.6665(4) 0.49904(11)
O1_3 O -0.0000 1.0000 0.58231(12)
O2_2 O 0.0495(5) 0.9341(5) 0.54389(10)
O3_2 O 0.0640(4) 0.8675(4) 0.57002(7)
C1_2 C 0.0666(5) 0.8832(5) 0.55122(11)
C2_2 C 0.0874(5) 0.8314(5) 0.53819(10)
C3_2 C 0.0989(5) 0.7656(5) 0.54488(12)
H1_2 H 0.0994 0.7573 0.5587
C4_2 C 0.1092(5) 0.7133(5) 0.53273(11)
H2_2 H 0.1175 0.6693 0.5379
C5_2 C 0.1077(5) 0.7241(5) 0.51204(11)
C6_2 C 0.0996(6) 0.7915(6) 0.50564(12)
H3_2 H 0.1020 0.8019 0.4918
C7_2 C 0.0886(6) 0.8435(5) 0.51780(11)
H4_2 H 0.0816 0.8883 0.5125
C8_2 C 0.1795(6) 0.6464(7) 0.50164(14)
H5_2 H 0.1548 0.5844 0.5016
H6_2 H 0.2084 0.6698 0.5142
H7_2 H 0.2206 0.6713 0.4907
C13_2 C 0.0480(5) 0.6199(5) 0.48589(11)
C14_2 C 0.0544(5) 0.5646(5) 0.47197(12)
H10_2 H 0.1059 0.5629 0.4711
O16_2 O 0.1165(3) 0.9673(4) 0.61100(9)
Zn1_4 Zn 1.0000 0.0000 0.55341(2)
O1_4 O 1.0000 0.0000 0.58231(12)
O12_2 O 0.6994(4) 0.2168(3) 0.44433(9)
O13_2 O 0.5599(4) 0.1541(3) 0.43702(7)
C39_2 C 0.6219(7) 0.1558(5) 0.44624(13)
C40_2 C 0.6054(7) 0.0855(5) 0.45902(11)
C41_2 C 0.6676(7) 0.0915(5) 0.47206(12)
H30_2 H 0.7227 0.1408 0.4720
C42_2 C 0.6494(8) 0.0267(5) 0.48483(11)
H31_2 H 0.6931 0.0332 0.4936
C45_2 C 0.5255(7) 0.0108(5) 0.45994(13)
H33_2 H 0.4807 0.0062 0.4517
Zn6_2 Zn 0.75150(5) 0.30665(5) 0.424426(11)
O18_2 O 0.8932(4) 0.0724(3) 0.60369(7)
Zn1_5 Zn 1.0000 1.0000 0.55341(2)
O1_5 O 1.0000 1.0000 0.58231(12)
O4_2 O 0.7832(3) 0.4825(3) 0.44433(9)
O5_2 O 0.8459(3) 0.4057(3) 0.43702(7)
C9_2 C 0.8442(5) 0.4660(5) 0.44624(13)
C10_2 C 0.9145(5) 0.5198(5) 0.45902(11)
C11_2 C 0.9085(5) 0.5760(5) 0.47206(12)
H8_2 H 0.8592 0.5818 0.4720
C12_2 C 0.9733(5) 0.6226(6) 0.48483(11)
H9_2 H 0.9668 0.6598 0.4936
C15_2 C 0.9892(5) 0.5146(5) 0.45994(13)
H11_2 H 0.9938 0.4744 0.4517
Zn4_2 Zn 0.88848(7) 0.97331(5) 0.591092(11)
N3_2 N 0.5534(6) 0.8868(4) 0.49904(11)
O10_2 O 0.8847(7) 0.9505(5) 0.54389(10)
O11_2 O 0.8036(6) 0.9360(4) 0.57002(7)
C31_2 C 0.8167(7) 0.9334(5) 0.55122(11)
C32_2 C 0.7441(7) 0.9126(5) 0.53819(10)
C33_2 C 0.6668(7) 0.9011(5) 0.54488(12)
H23_2 H 0.6580 0.9006 0.5587
C34_2 C 0.6042(7) 0.8908(5) 0.53273(11)
H24_2 H 0.5519 0.8825 0.5379
C35_2 C 0.6165(7) 0.8923(5) 0.51204(11)
C36_2 C 0.6920(8) 0.9004(6) 0.50564(12)
H25_2 H 0.7000 0.8980 0.4918
C37_2 C 0.7550(8) 0.9114(6) 0.51780(11)
H26_2 H 0.8068 0.9184 0.5125
C38_2 C 0.4670(9) 0.8205(6) 0.50164(14)
H27_2 H 0.4297 0.8452 0.5016
H28_2 H 0.4615 0.7916 0.5142
H29_2 H 0.4508 0.7794 0.4907
C43_2 C 0.5720(7) 0.9520(5) 0.48589(11)
C44_2 C 0.5103(7) 0.9456(5) 0.47197(12)
H32_2 H 0.4571 0.8941 0.4711
O14_2 O 0.8508(3) 0.8835(3) 0.61100(9)
O17_2 O 0.9276(3) 0.8208(3) 0.60369(7)
N2_2 N 0.0001(4) 0.7800(6) 0.83238(11)
O8_3 O 0.1841(3) 0.6340(4) 0.77767(9)
O9_2 O 0.2609(3) 0.7735(4) 0.77036(7)
C23_2 C 0.0202(7) 0.8664(9) 0.83498(14)
H16_2 H 0.0822 0.9037 0.8350
C24_2 C 0.2006(5) 0.7115(7) 0.77958(13)
C25_2 C 0.1468(5) 0.7280(7) 0.79236(11)
C26_3 C 0.0906(5) 0.6658(7) 0.80540(12)
H19_3 H 0.0848 0.6107 0.8054
C27_2 C 0.0440(6) 0.6840(8) 0.81817(11)
H20_3 H 0.0068 0.6403 0.8270
C28_2 C 0.0467(5) 0.7614(7) 0.81923(11)
C29_2 C 0.1020(5) 0.8231(7) 0.80531(12)
H21_2 H 0.1037 0.8763 0.8045
C30_2 C 0.1520(5) 0.8079(7) 0.79328(13)
H22_2 H 0.1922 0.8527 0.7851
Zn8_3 Zn 0.22181(7) 0.58183(5) 0.757759(11)
Zn10_3 Zn 0.36002(5) 0.77819(7) 0.757759(11)
Zn1_6 Zn 0.6666 0.3334 0.88675(2)
Zn2_3 Zn 0.69335(5) 0.24850(5) 0.924426(11)
O1_6 O 0.6666 0.3334 0.91565(12)
O2_3 O 0.7161(5) 0.2675(5) 0.87723(10)
O3_3 O 0.7306(4) 0.2009(4) 0.90336(7)
C1_3 C 0.7332(5) 0.2166(5) 0.88456(11)
C2_3 C 0.7540(5) 0.1648(5) 0.87153(10)
C3_3 C 0.7655(5) 0.0990(5) 0.87822(12)
H1_3 H 0.7660 0.0907 0.8921
C4_3 C 0.7758(5) 0.0467(5) 0.86607(11)
H2_3 H 0.7841 0.0027 0.8713
C5_3 C 0.7743(5) 0.0575(5) 0.84538(11)
C6_3 C 0.7662(6) 0.1249(6) 0.83898(12)
H3_3 H 0.7686 0.1353 0.8252
C7_3 C 0.7552(6) 0.1769(5) 0.85114(11)
H4_3 H 0.7482 0.2217 0.8459
H6_3 H 0.8750 0.0032 0.8476
H7_3 H 0.8872 0.0047 0.8241
Zn3_3 Zn 0.75150(5) 0.44486(7) 0.924426(11)
O6_3 O 0.7325(5) 0.4487(7) 0.87723(10)
O7_3 O 0.7991(4) 0.5298(6) 0.90336(7)
C16_3 C 0.7834(5) 0.5167(7) 0.88456(11)
C17_3 C 0.8352(5) 0.5893(7) 0.87153(10)
C18_3 C 0.9010(5) 0.6666(7) 0.87822(12)
H12_2 H 0.9093 0.6754 0.8921
C19_2 C 0.9533(5) 0.7292(7) 0.86607(11)
H13_2 H 0.9973 0.7815 0.8713
C20_2 C 0.9425(5) 0.7169(7) 0.84538(11)
C21_3 C 0.8751(6) 0.6414(8) 0.83898(12)
H14_3 H 0.8647 0.6334 0.8252
C22_3 C 0.8231(5) 0.5784(8) 0.85114(11)
H15_3 H 0.7783 0.5266 0.8459
H17_2 H 0.9968 0.8719 0.8476
H18_2 H 0.9953 0.8826 0.8241
Zn4_3 Zn 0.55514(7) 0.30665(5) 0.924426(11)
N3_3 N 0.2200(6) 0.2202(4) 0.83238(11)
O10_3 O 0.5513(7) 0.2839(5) 0.87723(10)
O11_3 O 0.4702(6) 0.2694(4) 0.90336(7)
O12_3 O 0.3660(4) 0.5502(3) 0.77767(9)
O13_3 O 0.2265(4) 0.4875(3) 0.77036(7)
C31_3 C 0.4833(7) 0.2668(5) 0.88456(11)
C32_3 C 0.4107(7) 0.2460(5) 0.87153(10)
C33_3 C 0.3334(7) 0.2345(5) 0.87822(12)
H23_3 H 0.3246 0.2340 0.8921
C34_3 C 0.2708(7) 0.2242(5) 0.86607(11)
H24_3 H 0.2185 0.2159 0.8713
C35_3 C 0.2831(7) 0.2257(5) 0.84538(11)
C36_3 C 0.3586(8) 0.2338(6) 0.83898(12)
H25_3 H 0.3666 0.2314 0.8252
C37_3 C 0.4216(8) 0.2448(6) 0.85114(11)
H26_3 H 0.4734 0.2518 0.8459
C38_3 C 0.1336(9) 0.1539(6) 0.83498(14)
H27_3 H 0.0963 0.1786 0.8350
H28_3 H 0.1281 0.1250 0.8476
H29_3 H 0.1174 0.1128 0.8241
C39_3 C 0.2885(7) 0.4892(5) 0.77958(13)
C40_3 C 0.2720(7) 0.4189(5) 0.79236(11)
C41_3 C 0.3342(7) 0.4249(5) 0.80540(12)
H30_3 H 0.3893 0.4742 0.8054
C42_3 C 0.3160(8) 0.3601(5) 0.81817(11)
H31_3 H 0.3597 0.3666 0.8270
C43_3 C 0.2386(7) 0.2854(5) 0.81923(11)
C44_3 C 0.1769(7) 0.2790(5) 0.80531(12)
H32_3 H 0.1237 0.2275 0.8045
C45_3 C 0.1921(7) 0.3442(5) 0.79328(13)
H33_3 H 0.1473 0.3396 0.7851
Zn6_3 Zn 0.41817(5) 0.63998(5) 0.757759(11)
O14_3 O 0.5175(3) 0.2168(3) 0.94433(9)
O15_3 O 0.6994(4) 0.4825(3) 0.94433(9)
O16_3 O 0.7832(3) 0.3006(4) 0.94433(9)
O17_3 O 0.5943(3) 0.1541(3) 0.93702(7)
O18_3 O 0.5599(4) 0.4057(3) 0.93702(7)
O19_3 O 0.8459(3) 0.4401(4) 0.93702(7)
N1_3 N 0.7798(4) 0.9999(4) 0.83238(11)
O4_3 O 0.4498(3) 0.8159(3) 0.77767(9)
O5_3 O 0.5125(3) 0.7391(3) 0.77036(7)
C8_3 C 0.8461(6) 0.9798(7) 0.83498(14)
H5_3 H 0.8214 0.9178 0.8350
C9_3 C 0.5108(5) 0.7994(5) 0.77958(13)
C10_3 C 0.5811(5) 0.8532(5) 0.79236(11)
C11_3 C 0.5751(5) 0.9094(5) 0.80540(12)
H8_3 H 0.5258 0.9152 0.8054
C12_3 C 0.6399(5) 0.9560(6) 0.81817(11)
H9_3 H 0.6334 0.9932 0.8270
C13_3 C 0.7146(5) 0.9533(5) 0.81923(11)
C14_3 C 0.7210(5) 0.8980(5) 0.80531(12)
H10_3 H 0.7725 0.8963 0.8045
C15_3 C 0.6558(5) 0.8480(5) 0.79328(13)
H11_3 H 0.6604 0.8078 0.7851
N3_4 N 0.4465(4) 0.1133(6) 0.66571(11)
H23_4 H 0.4327 0.0087 0.7254
C34_4 C 0.4425(5) 0.0625(7) 0.69940(11)
H24_4 H 0.4508 0.1148 0.7046
C35_4 C 0.4410(5) 0.0502(7) 0.67871(11)
C38_4 C 0.5128(6) 0.1997(9) 0.66831(14)
H27_4 H 0.4881 0.2370 0.6683
H28_4 H 0.5417 0.2052 0.6809
H29_4 H 0.5539 0.2159 0.6574
C39_4 C 0.1775(5) 0.0448(7) 0.61291(13)
C40_4 C 0.2478(5) 0.0613(7) 0.62569(11)
C42_4 C 0.3066(5) 0.0173(8) 0.65150(11)
C43_4 C 0.3813(5) 0.0947(7) 0.65256(11)
C44_4 C 0.3877(5) 0.1564(7) 0.63864(12)
H32_4 H 0.4392 0.2096 0.6378
C45_4 C 0.3225(5) 0.1412(7) 0.62661(13)
H33_4 H 0.3271 0.1860 0.6184
Zn1_7 Zn 0.3333 0.6667 0.72008(2)
N1_4 N 0.6668(4) 0.5535(4) 0.66571(11)
O1_7 O 0.3333 0.6667 0.74898(12)
O2_4 O 0.3992(5) 0.6172(5) 0.71056(10)
O3_4 O 0.4658(4) 0.6027(4) 0.73669(7)
C1_4 C 0.4501(5) 0.6001(5) 0.71789(11)
C2_4 C 0.5019(5) 0.5793(5) 0.70486(10)
C3_4 C 0.5677(5) 0.5678(5) 0.71155(12)
H1_4 H 0.5760 0.5673 0.7254
C4_4 C 0.6200(5) 0.5575(5) 0.69940(11)
H2_4 H 0.6640 0.5492 0.7046
C5_4 C 0.6092(5) 0.5590(5) 0.67871(11)
C6_4 C 0.5418(6) 0.5671(6) 0.67231(12)
H3_4 H 0.5314 0.5647 0.6585
C7_4 C 0.4898(5) 0.5781(6) 0.68447(11)
H4_4 H 0.4450 0.5851 0.6792
C8_4 C 0.6869(7) 0.4872(6) 0.66831(14)
H5_4 H 0.7489 0.5119 0.6683
H6_4 H 0.6635 0.4583 0.6809
H7_4 H 0.6620 0.4461 0.6574
C9_4 C 0.8673(5) 0.8225(5) 0.61291(13)
C10_4 C 0.8135(5) 0.7522(5) 0.62569(11)
C11_4 C 0.7573(5) 0.7582(5) 0.63873(12)
H8_4 H 0.7515 0.8075 0.6387
C12_4 C 0.7107(6) 0.6934(5) 0.65150(11)
H9_4 H 0.6735 0.6999 0.6603
C13_4 C 0.7134(5) 0.6187(5) 0.65256(11)
C14_4 C 0.7687(5) 0.6123(5) 0.63864(12)
H10_4 H 0.7704 0.5608 0.6378
C15_4 C 0.8187(5) 0.6775(5) 0.62661(13)
H11_4 H 0.8589 0.6729 0.6184
O6_4 O 0.2180(7) 0.6008(5) 0.71056(10)
O7_4 O 0.1369(6) 0.5342(4) 0.73669(7)
C16_4 C 0.1500(7) 0.5499(5) 0.71789(11)
C17_4 C 0.0774(7) 0.4981(5) 0.70486(10)
C18_4 C 0.0001(7) 0.4323(5) 0.71155(12)
C21_4 C 0.0253(8) 0.4582(6) 0.67231(12)
H14_4 H 0.0333 0.4686 0.6585
C22_4 C 0.0883(8) 0.5102(5) 0.68447(11)
H15_4 H 0.1401 0.5550 0.6792
C26_4 C 0.0009(7) 0.2427(5) 0.63873(12)
H19_4 H 0.0560 0.2485 0.6387
H20_4 H 0.0264 0.3265 0.6603
O10_4 O 0.3828(5) 0.7820(7) 0.71056(10)
O11_4 O 0.3973(4) 0.8631(6) 0.73669(7)
C31_4 C 0.3999(5) 0.8500(7) 0.71789(11)
C32_4 C 0.4207(5) 0.9226(7) 0.70486(10)
C33_4 C 0.4322(5) 0.9999(7) 0.71155(12)
C36_4 C 0.4329(6) 0.9747(8) 0.67231(12)
H25_4 H 0.4353 0.9667 0.6585
C37_4 C 0.4219(6) 0.9117(8) 0.68447(11)
H26_4 H 0.4149 0.8599 0.6792
C41_4 C 0.2418(5) 0.9991(7) 0.63873(12)
H30_4 H 0.1925 0.9440 0.6387
H31_4 H 0.3001 0.9736 0.6603
N2_3 N 0.8867(6) 0.3332(4) 0.66571(11)
H12_3 H 0.9913 0.4240 0.7254
C19_3 C 0.9375(7) 0.3800(5) 0.69940(11)
H13_3 H 0.8852 0.3360 0.7046
C20_3 C 0.9498(7) 0.3908(5) 0.67871(11)
C23_3 C 0.8003(9) 0.3131(7) 0.66831(14)
H16_3 H 0.7630 0.2511 0.6683
H17_3 H 0.7948 0.3365 0.6809
H18_3 H 0.7841 0.3380 0.6574
C24_3 C 0.9552(7) 0.1327(5) 0.61291(13)
C25_3 C 0.9387(7) 0.1865(5) 0.62569(11)
C27_3 C 0.9827(8) 0.2893(6) 0.65150(11)
C28_3 C 0.9053(7) 0.2866(5) 0.65256(11)
C29_3 C 0.8436(7) 0.2313(5) 0.63864(12)
H21_3 H 0.7904 0.2296 0.6378
C30_3 C 0.8588(7) 0.1813(5) 0.62661(13)
H22_3 H 0.8140 0.1411 0.6184
N1_5 N 0.0001(4) 0.2202(4) 0.33238(11)
C8_5 C 0.0202(7) 0.1539(6) 0.33498(14)
H5_5 H 0.0822 0.1786 0.3350
C9_5 C 0.2006(5) 0.4892(5) 0.27958(13)
C10_5 C 0.1468(5) 0.4189(5) 0.29236(11)
C11_5 C 0.0906(5) 0.4249(5) 0.30540(12)
H8_5 H 0.0848 0.4742 0.3054
C12_5 C 0.0440(6) 0.3601(5) 0.31817(11)
H9_5 H 0.0068 0.3666 0.3270
C13_5 C 0.0467(5) 0.2854(5) 0.31923(11)
C14_5 C 0.1020(5) 0.2790(5) 0.30531(12)
H10_5 H 0.1037 0.2275 0.3045
C15_5 C 0.1520(5) 0.3442(5) 0.29328(13)
H11_5 H 0.1922 0.3396 0.2851
Zn1_8 Zn 0.6666 0.3334 0.38675(2)
O1_8 O 0.6666 0.3334 0.41565(12)
O2_5 O 0.7325(5) 0.2839(5) 0.37723(10)
O3_5 O 0.7991(4) 0.2694(4) 0.40336(7)
C1_5 C 0.7834(5) 0.2668(5) 0.38456(11)
C2_5 C 0.8352(5) 0.2460(5) 0.37153(10)
C3_5 C 0.9010(5) 0.2345(5) 0.37822(12)
H1_5 H 0.9093 0.2340 0.3921
C4_5 C 0.9533(5) 0.2242(5) 0.36607(11)
H2_5 H 0.9973 0.2159 0.3713
C5_5 C 0.9425(5) 0.2257(5) 0.34538(11)
C6_5 C 0.8751(6) 0.2338(6) 0.33898(12)
H3_5 H 0.8647 0.2314 0.3252
C7_5 C 0.8231(5) 0.2448(6) 0.35114(11)
H4_5 H 0.7783 0.2518 0.3459
H6_5 H 0.9968 0.1250 0.3476
H7_5 H 0.9953 0.1128 0.3241
O6_5 O 0.5513(7) 0.2675(5) 0.37723(10)
O7_5 O 0.4702(6) 0.2009(4) 0.40336(7)
C16_5 C 0.4833(7) 0.2166(5) 0.38456(11)
C17_5 C 0.4107(7) 0.1648(5) 0.37153(10)
C18_5 C 0.3334(7) 0.0990(5) 0.37822(12)
H12_4 H 0.3246 0.0907 0.3921
C19_4 C 0.2708(7) 0.0467(5) 0.36607(11)
H13_4 H 0.2185 0.0027 0.3713
C20_4 C 0.2831(7) 0.0575(5) 0.34538(11)
C21_5 C 0.3586(8) 0.1249(6) 0.33898(12)
H14_5 H 0.3666 0.1353 0.3252
C22_5 C 0.4216(8) 0.1769(5) 0.35114(11)
H15_5 H 0.4734 0.2217 0.3459
H17_4 H 0.1281 0.0032 0.3476
H18_4 H 0.1174 0.0047 0.3241
N3_5 N 0.7798(4) 0.7800(6) 0.33238(11)
O10_5 O 0.7161(5) 0.4487(7) 0.37723(10)
O11_5 O 0.7306(4) 0.5298(6) 0.40336(7)
C31_5 C 0.7332(5) 0.5167(7) 0.38456(11)
C32_5 C 0.7540(5) 0.5893(7) 0.37153(10)
C33_5 C 0.7655(5) 0.6666(7) 0.37822(12)
H23_5 H 0.7660 0.6754 0.3921
C34_5 C 0.7758(5) 0.7292(7) 0.36607(11)
H24_5 H 0.7841 0.7815 0.3713
C35_5 C 0.7743(5) 0.7169(7) 0.34538(11)
C36_5 C 0.7662(6) 0.6414(8) 0.33898(12)
H25_5 H 0.7686 0.6334 0.3252
C37_5 C 0.7552(6) 0.5784(8) 0.35114(11)
H26_5 H 0.7482 0.5266 0.3459
C38_5 C 0.8461(6) 0.8664(9) 0.33498(14)
H27_5 H 0.8214 0.9037 0.3350
H28_5 H 0.8750 0.8719 0.3476
H29_5 H 0.8872 0.8826 0.3241
C39_5 C 0.5108(5) 0.7115(7) 0.27958(13)
C40_5 C 0.5811(5) 0.7280(7) 0.29236(11)
C41_5 C 0.5751(5) 0.6658(7) 0.30540(12)
H30_5 H 0.5258 0.6107 0.3054
C42_5 C 0.6399(5) 0.6840(8) 0.31817(11)
H31_5 H 0.6334 0.6403 0.3270
C43_5 C 0.7146(5) 0.7614(7) 0.31923(11)
C44_5 C 0.7210(5) 0.8231(7) 0.30531(12)
H32_5 H 0.7725 0.8763 0.3045
C45_5 C 0.6558(5) 0.8079(7) 0.29328(13)
H33_5 H 0.6604 0.8527 0.2851
N2_4 N 0.2200(6) 0.9999(4) 0.33238(11)
C23_4 C 0.1336(9) 0.9798(7) 0.33498(14)
H16_4 H 0.0963 0.9178 0.3350
C24_4 C 0.2885(7) 0.7994(5) 0.27958(13)
C25_4 C 0.2720(7) 0.8532(5) 0.29236(11)
C26_5 C 0.3342(7) 0.9094(5) 0.30540(12)
H19_5 H 0.3893 0.9152 0.3054
C27_4 C 0.3160(8) 0.9560(6) 0.31817(11)
H20_5 H 0.3597 0.9932 0.3270
C28_4 C 0.2386(7) 0.9533(5) 0.31923(11)
C29_4 C 0.1769(7) 0.8980(5) 0.30531(12)
H21_4 H 0.1237 0.8963 0.3045
C30_4 C 0.1921(7) 0.8480(5) 0.29328(13)
H22_4 H 0.1473 0.8078 0.2851
Zn1_9 Zn -0.0000 0.0000 0.05341(2)
O1_9 O -0.0000 0.0000 0.08231(12)
O10_6 O 0.0495(5) 0.1153(7) 0.04389(10)
O11_6 O 0.0640(4) 0.1964(6) 0.07002(7)
C31_6 C 0.0666(5) 0.1833(7) 0.05122(11)
C32_6 C 0.0874(5) 0.2559(7) 0.03819(10)
C33_6 C 0.0989(5) 0.3332(7) 0.04488(12)
H23_6 H 0.0994 0.3420 0.0587
C34_6 C 0.1092(5) 0.3958(7) 0.03273(11)
H24_6 H 0.1175 0.4481 0.0379
C35_6 C 0.1077(5) 0.3835(7) 0.01204(11)
C36_6 C 0.0996(6) 0.3080(8) 0.00564(12)
C37_6 C 0.0886(6) 0.2450(8) 0.01780(11)
H26_6 H 0.0816 0.1932 0.0125
C38_6 C 0.1795(6) 0.5330(9) 0.00164(14)
H27_6 H 0.1548 0.5703 0.0016
H28_6 H 0.2084 0.5385 0.0142
C9_6 C 0.5340(5) 0.1558(5) 0.94624(13)
C10_6 C 0.4802(5) 0.0855(5) 0.95902(11)
C11_6 C 0.4240(5) 0.0915(5) 0.97206(12)
H8_6 H 0.4182 0.1408 0.9720
C12_6 C 0.3774(6) 0.0267(5) 0.98483(11)
H9_6 H 0.3402 0.0332 0.9936
C15_6 C 0.4854(5) 0.0108(5) 0.95994(13)
H11_6 H 0.5256 0.0062 0.9517
N3_6 N 0.1132(4) 0.4466(6) 0.99904(11)
H25_6 H 0.1020 0.3000 0.9918
H29_6 H 0.2206 0.5492 0.9907
C43_6 C 0.0480(5) 0.4280(7) 0.98589(11)
C44_6 C 0.0544(5) 0.4897(7) 0.97197(12)
H32_6 H 0.1059 0.5429 0.9711
Zn1_10 Zn -0.0000 1.0000 0.05341(2)
O1_10 O -0.0000 1.0000 0.08231(12)
O2_6 O 0.0659(5) 0.9505(5) 0.04389(10)
O3_6 O 0.1325(4) 0.9360(4) 0.07002(7)
C1_6 C 0.1168(5) 0.9334(5) 0.05122(11)
C2_6 C 0.1686(5) 0.9126(5) 0.03819(10)
C3_6 C 0.2344(5) 0.9011(5) 0.04488(12)
H1_6 H 0.2427 0.9006 0.0587
C4_6 C 0.2867(5) 0.8908(5) 0.03273(11)
H2_6 H 0.3307 0.8825 0.0379
C5_6 C 0.2759(5) 0.8923(5) 0.01204(11)
C6_6 C 0.2085(6) 0.9004(6) 0.00564(12)
C7_6 C 0.1565(5) 0.9114(6) 0.01780(11)
H4_6 H 0.1117 0.9184 0.0125
C8_6 C 0.3536(7) 0.8205(6) 0.00164(14)
H5_6 H 0.4156 0.8452 0.0016
H6_6 H 0.3302 0.7916 0.0142
C39_6 C 0.8442(5) 0.3781(7) 0.94624(13)
C40_6 C 0.9145(5) 0.3946(7) 0.95902(11)
C41_6 C 0.9085(5) 0.3324(7) 0.97206(12)
H30_6 H 0.8592 0.2773 0.9720
C42_6 C 0.9733(5) 0.3506(8) 0.98483(11)
H31_6 H 0.9668 0.3069 0.9936
C45_6 C 0.9892(5) 0.4745(7) 0.95994(13)
H33_6 H 0.9938 0.5193 0.9517
Zn1_11 Zn 1.0000 1.0000 0.05341(2)
O1_11 O 1.0000 1.0000 0.08231(12)
O6_6 O 0.8847(7) 0.9341(5) 0.04389(10)
O7_6 O 0.8036(6) 0.8675(4) 0.07002(7)
C16_6 C 0.8167(7) 0.8832(5) 0.05122(11)
C17_6 C 0.7441(7) 0.8314(5) 0.03819(10)
C18_6 C 0.6668(7) 0.7656(5) 0.04488(12)
H12_5 H 0.6580 0.7573 0.0587
C19_5 C 0.6042(7) 0.7133(5) 0.03273(11)
H13_5 H 0.5519 0.6693 0.0379
C20_5 C 0.6165(7) 0.7241(5) 0.01204(11)
C21_6 C 0.6920(8) 0.7915(6) 0.00564(12)
C22_6 C 0.7550(8) 0.8435(5) 0.01780(11)
H15_6 H 0.8068 0.8883 0.0125
C23_5 C 0.4670(9) 0.6464(7) 0.00164(14)
H16_5 H 0.4297 0.5844 0.0016
H17_5 H 0.4615 0.6698 0.0142
N2_5 N 0.5534(6) 0.6665(4) 0.99904(11)
H14_6 H 0.7000 0.8019 0.9918
H18_5 H 0.4508 0.6713 0.9907
C24_5 C 0.6219(7) 0.4660(5) 0.94624(13)
C25_5 C 0.6054(7) 0.5198(5) 0.95902(11)
C26_6 C 0.6676(7) 0.5760(5) 0.97206(12)
H19_6 H 0.7227 0.5818 0.9720
C27_5 C 0.6494(8) 0.6226(6) 0.98483(11)
H20_6 H 0.6931 0.6598 0.9936
C28_5 C 0.5720(7) 0.6199(5) 0.98589(11)
C29_5 C 0.5103(7) 0.5646(5) 0.97197(12)
H21_5 H 0.4571 0.5629 0.9711
C30_5 C 0.5255(7) 0.5146(5) 0.95994(13)
H22_5 H 0.4807 0.4744 0.9517
N2_6 N 0.6668(4) 0.1133(6) 0.16571(11)
O9_3 O 0.9276(3) 0.1068(4) 0.10369(7)
H12_6 H 0.5760 0.0087 0.2254
C19_6 C 0.6200(5) 0.0625(7) 0.19940(11)
H13_6 H 0.6640 0.1148 0.2046
C20_6 C 0.6092(5) 0.0502(7) 0.17871(11)
C23_6 C 0.6869(7) 0.1997(9) 0.16831(14)
H16_6 H 0.7489 0.2370 0.1683
H17_6 H 0.6635 0.2052 0.1809
H18_6 H 0.6620 0.2159 0.1574
C24_6 C 0.8673(5) 0.0448(7) 0.11291(13)
C25_6 C 0.8135(5) 0.0613(7) 0.12569(11)
C27_6 C 0.7107(6) 0.0173(8) 0.15150(11)
C28_6 C 0.7134(5) 0.0947(7) 0.15256(11)
C29_6 C 0.7687(5) 0.1564(7) 0.13864(12)
H21_6 H 0.7704 0.2096 0.1378
C30_6 C 0.8187(5) 0.1412(7) 0.12661(13)
H22_6 H 0.8589 0.1860 0.1184
Zn1_12 Zn 1.0000 0.0000 0.05341(2)
O1_12 O 1.0000 0.0000 0.08231(12)
Zn10_4 Zn 0.11152(7) 0.02669(5) 0.408908(11)
N2_7 N 0.1133(6) 0.6668(4) 0.33429(11)
O9_4 O 0.1068(4) 0.9276(3) 0.39631(7)
H12_7 H 0.0087 0.5760 0.2746
C19_7 C 0.0625(7) 0.6200(5) 0.30060(11)
H13_7 H 0.1148 0.6640 0.2954
C20_7 C 0.0502(7) 0.6092(5) 0.32129(11)
C23_7 C 0.1997(9) 0.6869(7) 0.33169(14)
H16_7 H 0.2370 0.7489 0.3317
H17_7 H 0.2052 0.6635 0.3191
H18_7 H 0.2159 0.6620 0.3426
C24_7 C 0.0448(7) 0.8673(5) 0.38709(13)
C25_7 C 0.0613(7) 0.8135(5) 0.37431(11)
C27_7 C 0.0173(8) 0.7107(6) 0.34850(11)
C28_7 C 0.0947(7) 0.7134(5) 0.34744(11)
C29_7 C 0.1564(7) 0.7687(5) 0.36136(12)
H21_7 H 0.2096 0.7704 0.3622
C30_7 C 0.1412(7) 0.8187(5) 0.37339(13)
H22_7 H 0.1860 0.8589 0.3816
Zn1_13 Zn 0.6667 0.3333 0.27992(2)
Zn2_4 Zn 0.58183(5) 0.36002(5) 0.242241(11)
N1_6 N 0.3332(4) 0.4465(4) 0.33429(11)
O1_13 O 0.6667 0.3333 0.25102(12)
O2_7 O 0.6008(5) 0.3828(5) 0.28944(10)
O3_7 O 0.5342(4) 0.3973(4) 0.26331(7)
O4_4 O 0.1492(3) 0.1165(3) 0.38900(9)
O5_4 O 0.0724(3) 0.1792(3) 0.39631(7)
C1_7 C 0.5499(5) 0.3999(5) 0.28211(11)
C2_7 C 0.4981(5) 0.4207(5) 0.29514(10)
C3_7 C 0.4323(5) 0.4322(5) 0.28845(12)
H1_7 H 0.4240 0.4327 0.2746
C4_7 C 0.3800(5) 0.4425(5) 0.30060(11)
H2_7 H 0.3360 0.4508 0.2954
C5_7 C 0.3908(5) 0.4410(5) 0.32129(11)
C6_7 C 0.4582(6) 0.4329(6) 0.32769(12)
H3_6 H 0.4686 0.4353 0.3415
C7_7 C 0.5102(5) 0.4219(6) 0.31553(11)
H4_7 H 0.5550 0.4149 0.3208
C8_7 C 0.3131(7) 0.5128(6) 0.33169(14)
H5_7 H 0.2511 0.4881 0.3317
H6_7 H 0.3365 0.5417 0.3191
H7_6 H 0.3380 0.5539 0.3426
C9_7 C 0.1327(5) 0.1775(5) 0.38709(13)
C10_7 C 0.1865(5) 0.2478(5) 0.37431(11)
C11_7 C 0.2427(5) 0.2418(5) 0.36127(12)
H8_7 H 0.2485 0.1925 0.3613
C12_7 C 0.2893(6) 0.3066(5) 0.34850(11)
H9_7 H 0.3265 0.3001 0.3397
C13_6 C 0.2866(5) 0.3813(5) 0.34744(11)
C14_6 C 0.2313(5) 0.3877(5) 0.36136(12)
H10_6 H 0.2296 0.4392 0.3622
C15_7 C 0.1813(5) 0.3225(5) 0.37339(13)
H11_7 H 0.1411 0.3271 0.3816
Zn3_4 Zn 0.77819(7) 0.41817(5) 0.242241(11)
O6_7 O 0.7820(7) 0.3992(5) 0.28944(10)
O7_7 O 0.8631(6) 0.4658(4) 0.26331(7)
O8_4 O 0.9673(4) 0.8508(3) 0.38900(9)
C16_7 C 0.8500(7) 0.4501(5) 0.28211(11)
C17_7 C 0.9226(7) 0.5019(5) 0.29514(10)
C18_7 C 0.9999(7) 0.5677(5) 0.28845(12)
C21_7 C 0.9747(8) 0.5418(6) 0.32769(12)
H14_7 H 0.9667 0.5314 0.3415
C22_7 C 0.9117(8) 0.4898(5) 0.31553(11)
H15_7 H 0.8599 0.4450 0.3208
C26_7 C 0.9991(7) 0.7573(5) 0.36127(12)
H19_7 H 0.9440 0.7515 0.3613
H20_7 H 0.9736 0.6735 0.3397
Zn4_4 Zn 0.63998(5) 0.22181(7) 0.242241(11)
O10_7 O 0.6172(5) 0.2180(7) 0.28944(10)
O11_7 O 0.6027(4) 0.1369(6) 0.26331(7)
O12_4 O 0.8835(3) 0.0327(4) 0.38900(9)
C31_7 C 0.6001(5) 0.1500(7) 0.28211(11)
C32_7 C 0.5793(5) 0.0774(7) 0.29514(10)
C33_7 C 0.5678(5) 0.0001(7) 0.28845(12)
C36_7 C 0.5671(6) 0.0253(8) 0.32769(12)
H25_7 H 0.5647 0.0333 0.3415
C37_7 C 0.5781(6) 0.0883(8) 0.31553(11)
H26_7 H 0.5851 0.1401 0.3208
C41_7 C 0.7582(5) 0.0009(7) 0.36127(12)
H30_7 H 0.8075 0.0560 0.3613
H31_7 H 0.6999 0.0264 0.3397
Zn6_4 Zn 0.97331(5) 0.08484(5) 0.408908(11)
Zn8_4 Zn 0.91516(5) 0.88848(7) 0.408908(11)
O14_4 O 0.5502(3) 0.1841(3) 0.22233(9)
O15_4 O 0.8159(3) 0.3660(4) 0.22233(9)
O16_4 O 0.6340(4) 0.4498(3) 0.22233(9)
O17_4 O 0.4875(3) 0.2609(3) 0.22964(7)
O18_4 O 0.7391(3) 0.2265(4) 0.22964(7)
O19_4 O 0.7735(4) 0.5125(3) 0.22964(7)
N3_7 N 0.5535(4) 0.8867(6) 0.33429(11)
O13_4 O 0.8208(3) 0.8932(4) 0.39631(7)
H23_7 H 0.5673 0.9913 0.2746
C34_7 C 0.5575(5) 0.9375(7) 0.30060(11)
H24_7 H 0.5492 0.8852 0.2954
C35_7 C 0.5590(5) 0.9498(7) 0.32129(11)
C38_7 C 0.4872(6) 0.8003(9) 0.33169(14)
H27_7 H 0.5119 0.7630 0.3317
H28_7 H 0.4583 0.7948 0.3191
H29_7 H 0.4461 0.7841 0.3426
C39_7 C 0.8225(5) 0.9552(7) 0.38709(13)
C40_7 C 0.7522(5) 0.9387(7) 0.37431(11)
C42_7 C 0.6934(5) 0.9827(8) 0.34850(11)
C43_7 C 0.6187(5) 0.9053(7) 0.34744(11)
C44_7 C 0.6123(5) 0.8436(7) 0.36136(12)
H32_7 H 0.5608 0.7904 0.3622
C45_7 C 0.6775(5) 0.8588(7) 0.37339(13)
H33_7 H 0.6729 0.8140 0.3816
N2_8 N 0.7800(6) 0.0001(4) 0.66762(11)
O8_5 O 0.6340(4) 0.1841(3) 0.72233(9)
O9_5 O 0.7735(4) 0.2609(3) 0.72964(7)
C23_8 C 0.8664(9) 0.0202(7) 0.66502(14)
H16_8 H 0.9037 0.0822 0.6650
C24_8 C 0.7115(7) 0.2006(5) 0.72042(13)
C25_8 C 0.7280(7) 0.1468(5) 0.70764(11)
C26_8 C 0.6658(7) 0.0906(5) 0.69460(12)
H19_8 H 0.6107 0.0848 0.6946
C27_8 C 0.6840(8) 0.0440(6) 0.68183(11)
H20_8 H 0.6403 0.0068 0.6730
C28_8 C 0.7614(7) 0.0467(5) 0.68077(11)
C29_8 C 0.8231(7) 0.1020(5) 0.69469(12)
H21_8 H 0.8763 0.1037 0.6955
C30_8 C 0.8079(7) 0.1520(5) 0.70672(13)
H22_8 H 0.8527 0.1922 0.7149
Zn8_5 Zn 0.58183(5) 0.22181(7) 0.742241(11)
Zn10_5 Zn 0.77819(7) 0.36002(5) 0.742241(11)
Zn1_14 Zn 0.3334 0.6666 0.61325(2)
Zn2_5 Zn 0.24850(5) 0.69335(5) 0.575574(11)
O1_14 O 0.3334 0.6666 0.58435(12)
O2_8 O 0.2675(5) 0.7161(5) 0.62277(10)
O3_8 O 0.2009(4) 0.7306(4) 0.59664(7)
C1_8 C 0.2166(5) 0.7332(5) 0.61544(11)
C2_8 C 0.1648(5) 0.7540(5) 0.62847(10)
C3_8 C 0.0990(5) 0.7655(5) 0.62178(12)
H1_8 H 0.0907 0.7660 0.6079
C4_8 C 0.0467(5) 0.7758(5) 0.63393(11)
H2_8 H 0.0027 0.7841 0.6287
C5_8 C 0.0575(5) 0.7743(5) 0.65462(11)
C6_8 C 0.1249(6) 0.7662(6) 0.66102(12)
H3_7 H 0.1353 0.7686 0.6748
C7_8 C 0.1769(5) 0.7552(6) 0.64886(11)
H4_8 H 0.2217 0.7482 0.6541
H6_8 H 0.0032 0.8750 0.6524
H7_7 H 0.0047 0.8872 0.6759
Zn3_5 Zn 0.44486(7) 0.75150(5) 0.575574(11)
O6_8 O 0.4487(7) 0.7325(5) 0.62277(10)
O7_8 O 0.5298(6) 0.7991(4) 0.59664(7)
C16_8 C 0.5167(7) 0.7834(5) 0.61544(11)
C17_8 C 0.5893(7) 0.8352(5) 0.62847(10)
C18_8 C 0.6666(7) 0.9010(5) 0.62178(12)
H12_8 H 0.6754 0.9093 0.6079
C19_8 C 0.7292(7) 0.9533(5) 0.63393(11)
H13_8 H 0.7815 0.9973 0.6287
C20_8 C 0.7169(7) 0.9425(5) 0.65462(11)
C21_8 C 0.6414(8) 0.8751(6) 0.66102(12)
H14_8 H 0.6334 0.8647 0.6748
C22_8 C 0.5784(8) 0.8231(5) 0.64886(11)
H15_8 H 0.5266 0.7783 0.6541
H17_8 H 0.8719 0.9968 0.6524
H18_8 H 0.8826 0.9953 0.6759
Zn4_5 Zn 0.30665(5) 0.55514(7) 0.575574(11)
N3_8 N 0.2202(4) 0.2200(6) 0.66762(11)
O10_8 O 0.2839(5) 0.5513(7) 0.62277(10)
O11_8 O 0.2694(4) 0.4702(6) 0.59664(7)
O12_5 O 0.5502(3) 0.3660(4) 0.72233(9)
O13_5 O 0.4875(3) 0.2265(4) 0.72964(7)
C31_8 C 0.2668(5) 0.4833(7) 0.61544(11)
C32_8 C 0.2460(5) 0.4107(7) 0.62847(10)
C33_8 C 0.2345(5) 0.3334(7) 0.62178(12)
H23_8 H 0.2340 0.3246 0.6079
C34_8 C 0.2242(5) 0.2708(7) 0.63393(11)
H24_8 H 0.2159 0.2185 0.6287
C35_8 C 0.2257(5) 0.2831(7) 0.65462(11)
C36_8 C 0.2338(6) 0.3586(8) 0.66102(12)
H25_8 H 0.2314 0.3666 0.6748
C37_8 C 0.2448(6) 0.4216(8) 0.64886(11)
H26_8 H 0.2518 0.4734 0.6541
C38_8 C 0.1539(6) 0.1336(9) 0.66502(14)
H27_8 H 0.1786 0.0963 0.6650
H28_8 H 0.1250 0.1281 0.6524
H29_8 H 0.1128 0.1174 0.6759
C39_8 C 0.4892(5) 0.2885(7) 0.72042(13)
C40_8 C 0.4189(5) 0.2720(7) 0.70764(11)
C41_8 C 0.4249(5) 0.3342(7) 0.69460(12)
H30_8 H 0.4742 0.3893 0.6946
C42_8 C 0.3601(5) 0.3160(8) 0.68183(11)
H31_8 H 0.3666 0.3597 0.6730
C43_8 C 0.2854(5) 0.2386(7) 0.68077(11)
C44_8 C 0.2790(5) 0.1769(7) 0.69469(12)
H32_8 H 0.2275 0.1237 0.6955
C45_8 C 0.3442(5) 0.1921(7) 0.70672(13)
H33_8 H 0.3396 0.1473 0.7149
Zn6_5 Zn 0.63998(5) 0.41817(5) 0.742241(11)
O14_5 O 0.2168(3) 0.5175(3) 0.55567(9)
O15_5 O 0.4825(3) 0.6994(4) 0.55567(9)
O16_5 O 0.3006(4) 0.7832(3) 0.55567(9)
O17_5 O 0.1541(3) 0.5943(3) 0.56298(7)
O18_5 O 0.4057(3) 0.5599(4) 0.56298(7)
O19_5 O 0.4401(4) 0.8459(3) 0.56298(7)
N1_7 N 0.9999(4) 0.7798(4) 0.66762(11)
O4_5 O 0.8159(3) 0.4498(3) 0.72233(9)
O5_5 O 0.7391(3) 0.5125(3) 0.72964(7)
C8_8 C 0.9798(7) 0.8461(6) 0.66502(14)
H5_8 H 0.9178 0.8214 0.6650
C9_8 C 0.7994(5) 0.5108(5) 0.72042(13)
C10_8 C 0.8532(5) 0.5811(5) 0.70764(11)
C11_8 C 0.9094(5) 0.5751(5) 0.69460(12)
H8_8 H 0.9152 0.5258 0.6946
C12_8 C 0.9560(6) 0.6399(5) 0.68183(11)
H9_8 H 0.9932 0.6334 0.6730
C13_7 C 0.9533(5) 0.7146(5) 0.68077(11)
C14_7 C 0.8980(5) 0.7210(5) 0.69469(12)
H10_7 H 0.8963 0.7725 0.6955
C15_8 C 0.8480(5) 0.6558(5) 0.70672(13)
H11_8 H 0.8078 0.6604 0.7149
N2_9 N 0.4466(6) 0.3335(4) 0.00096(11)
O8_6 O 0.3006(4) 0.5175(3) 0.05567(9)
O9_6 O 0.4401(4) 0.5943(3) 0.06298(7)
H14_9 H 0.3000 0.1981 0.0082
H18_9 H 0.5492 0.3287 0.0093
C24_9 C 0.3781(7) 0.5340(5) 0.05376(13)
C25_9 C 0.3946(7) 0.4802(5) 0.04098(11)
C26_9 C 0.3324(7) 0.4240(5) 0.02794(12)
H19_9 H 0.2773 0.4182 0.0280
C27_9 C 0.3506(8) 0.3774(6) 0.01517(11)
H20_9 H 0.3069 0.3402 0.0064
C28_9 C 0.4280(7) 0.3801(5) 0.01411(11)
C29_9 C 0.4897(7) 0.4354(5) 0.02803(12)
H21_9 H 0.5429 0.4371 0.0289
C30_9 C 0.4745(7) 0.4854(5) 0.04006(13)
H22_9 H 0.5193 0.5256 0.0483
Zn8_6 Zn 0.24850(5) 0.55514(7) 0.075574(11)
Zn10_6 Zn 0.44486(7) 0.69335(5) 0.075574(11)
Zn1_15 Zn 0.0000 -0.0000 0.94659(2)
O1_15 O 0.0000 -0.0000 0.91769(12)
Zn3_6 Zn 0.11152(7) 0.08484(5) 0.908908(11)
O6_9 O 0.1153(7) 0.0659(5) 0.95611(10)
O7_9 O 0.1964(6) 0.1325(4) 0.92998(7)
C16_9 C 0.1833(7) 0.1168(5) 0.94878(11)
C17_9 C 0.2559(7) 0.1686(5) 0.96181(10)
C18_9 C 0.3332(7) 0.2344(5) 0.95512(12)
H12_9 H 0.3420 0.2427 0.9413
C19_9 C 0.3958(7) 0.2867(5) 0.96727(11)
H13_9 H 0.4481 0.3307 0.9621
C20_9 C 0.3835(7) 0.2759(5) 0.98796(11)
C21_9 C 0.3080(8) 0.2085(6) 0.99436(12)
C22_9 C 0.2450(8) 0.1565(5) 0.98220(11)
H15_9 H 0.1932 0.1117 0.9875
C23_9 C 0.5330(9) 0.3536(7) 0.99836(14)
H16_9 H 0.5703 0.4156 0.9984
H17_9 H 0.5385 0.3302 0.9858
O15_6 O 0.1492(3) 0.0327(4) 0.88900(9)
O19_6 O 0.1068(4) 0.1792(3) 0.89631(7)
O12_6 O 0.2168(3) 0.6994(4) 0.05567(9)
O13_6 O 0.1541(3) 0.5599(4) 0.06298(7)
C39_9 C 0.1558(5) 0.6219(7) 0.05376(13)
C40_9 C 0.0855(5) 0.6054(7) 0.04098(11)
C41_9 C 0.0915(5) 0.6676(7) 0.02794(12)
H30_9 H 0.1408 0.7227 0.0280
C42_9 C 0.0267(5) 0.6494(8) 0.01517(11)
H31_9 H 0.0332 0.6931 0.0064
C45_9 C 0.0108(5) 0.5255(7) 0.04006(13)
H33_9 H 0.0062 0.4807 0.0483
Zn6_6 Zn 0.30665(5) 0.75150(5) 0.075574(11)
Zn1_16 Zn 1.0000 -0.0000 0.94659(2)
Zn2_6 Zn 0.91516(5) 0.02669(5) 0.908908(11)
O1_16 O 1.0000 -0.0000 0.91769(12)
O2_9 O 0.9341(5) 0.0495(5) 0.95611(10)
O3_9 O 0.8675(4) 0.0640(4) 0.92998(7)
C1_9 C 0.8832(5) 0.0666(5) 0.94878(11)
C2_9 C 0.8314(5) 0.0874(5) 0.96181(10)
C3_9 C 0.7656(5) 0.0989(5) 0.95512(12)
H1_9 H 0.7573 0.0994 0.9413
C4_9 C 0.7133(5) 0.1092(5) 0.96727(11)
H2_9 H 0.6693 0.1175 0.9621
C5_9 C 0.7241(5) 0.1077(5) 0.98796(11)
C6_9 C 0.7915(6) 0.0996(6) 0.99436(12)
C7_9 C 0.8435(5) 0.0886(6) 0.98220(11)
H4_9 H 0.8883 0.0816 0.9875
C8_9 C 0.6464(7) 0.1795(6) 0.99836(14)
H5_9 H 0.5844 0.1548 0.9984
H6_9 H 0.6698 0.2084 0.9858
O16_6 O 0.9673(4) 0.1165(3) 0.88900(9)
O4_6 O 0.4825(3) 0.7832(3) 0.05567(9)
O5_6 O 0.4057(3) 0.8459(3) 0.06298(7)
C9_9 C 0.4660(5) 0.8442(5) 0.05376(13)
C10_9 C 0.5198(5) 0.9145(5) 0.04098(11)
C11_9 C 0.5760(5) 0.9085(5) 0.02794(12)
H8_9 H 0.5818 0.8592 0.0280
C12_9 C 0.6226(6) 0.9733(5) 0.01517(11)
H9_9 H 0.6598 0.9668 0.0064
C15_9 C 0.5146(5) 0.9892(5) 0.04006(13)
H11_9 H 0.4744 0.9938 0.0483
N3_9 N 0.8868(4) 0.5534(6) 0.00096(11)
H25_9 H 0.8980 0.7000 0.0082
H29_9 H 0.7794 0.4508 0.0093
C43_9 C 0.9520(5) 0.5720(7) 0.01411(11)
C44_9 C 0.9456(5) 0.5103(7) 0.02803(12)
H32_9 H 0.8941 0.4571 0.0289
Zn1_17 Zn 1.0000 1.0000 0.94659(2)
O1_17 O 1.0000 1.0000 0.91769(12)
Zn4_6 Zn 0.97331(5) 0.88848(7) 0.908908(11)
O10_9 O 0.9505(5) 0.8847(7) 0.95611(10)
O11_9 O 0.9360(4) 0.8036(6) 0.92998(7)
C31_9 C 0.9334(5) 0.8167(7) 0.94878(11)
C32_9 C 0.9126(5) 0.7441(7) 0.96181(10)
C33_9 C 0.9011(5) 0.6668(7) 0.95512(12)
H23_9 H 0.9006 0.6580 0.9413
C34_9 C 0.8908(5) 0.6042(7) 0.96727(11)
H24_9 H 0.8825 0.5519 0.9621
C35_9 C 0.8923(5) 0.6165(7) 0.98796(11)
C36_9 C 0.9004(6) 0.6920(8) 0.99436(12)
C37_9 C 0.9114(6) 0.7550(8) 0.98220(11)
H26_9 H 0.9184 0.8068 0.9875
C38_9 C 0.8205(6) 0.4670(9) 0.99836(14)
H27_9 H 0.8452 0.4297 0.9984
H28_9 H 0.7916 0.4615 0.9858
O14_6 O 0.8835(3) 0.8508(3) 0.88900(9)
O17_6 O 0.8208(3) 0.9276(3) 0.89631(7)
N3_10 N 0.1133(6) 0.4465(4) 0.83429(11)
H23_10 H 0.0087 0.4327 0.7746
C34_10 C 0.0625(7) 0.4425(5) 0.80060(11)
H24_10 H 0.1148 0.4508 0.7954
C35_10 C 0.0502(7) 0.4410(5) 0.82129(11)
C38_10 C 0.1997(9) 0.5128(6) 0.83169(14)
H27_10 H 0.2370 0.4881 0.8317
H28_10 H 0.2052 0.5417 0.8191
H29_10 H 0.2159 0.5539 0.8426
C39_10 C 0.0448(7) 0.1775(5) 0.88709(13)
C40_10 C 0.0613(7) 0.2478(5) 0.87431(11)
C42_10 C 0.0173(8) 0.3066(5) 0.84850(11)
C43_10 C 0.0947(7) 0.3813(5) 0.84744(11)
C44_10 C 0.1564(7) 0.3877(5) 0.86136(12)
H32_10 H 0.2096 0.4392 0.8622
C45_10 C 0.1412(7) 0.3225(5) 0.87339(13)
H33_10 H 0.1860 0.3271 0.8816
Zn1_18 Zn 0.6667 0.3333 0.77992(2)
N1_8 N 0.5535(4) 0.6668(4) 0.83429(11)
O1_18 O 0.6667 0.3333 0.75102(12)
O2_10 O 0.6172(5) 0.3992(5) 0.78944(10)
O3_10 O 0.6027(4) 0.4658(4) 0.76331(7)
C1_10 C 0.6001(5) 0.4501(5) 0.78211(11)
C2_10 C 0.5793(5) 0.5019(5) 0.79514(10)
C3_10 C 0.5678(5) 0.5677(5) 0.78845(12)
H1_10 H 0.5673 0.5760 0.7746
C4_10 C 0.5575(5) 0.6200(5) 0.80060(11)
H2_10 H 0.5492 0.6640 0.7954
C5_10 C 0.5590(5) 0.6092(5) 0.82129(11)
C6_10 C 0.5671(6) 0.5418(6) 0.82769(12)
H3_8 H 0.5647 0.5314 0.8415
C7_10 C 0.5781(6) 0.4898(5) 0.81553(11)
H4_10 H 0.5851 0.4450 0.8208
C8_10 C 0.4872(6) 0.6869(7) 0.83169(14)
H5_10 H 0.5119 0.7489 0.8317
H6_10 H 0.4583 0.6635 0.8191
H7_8 H 0.4461 0.6620 0.8426
C9_10 C 0.8225(5) 0.8673(5) 0.88709(13)
C10_10 C 0.7522(5) 0.8135(5) 0.87431(11)
C11_10 C 0.7582(5) 0.7573(5) 0.86127(12)
H8_10 H 0.8075 0.7515 0.8613
C12_10 C 0.6934(5) 0.7107(6) 0.84850(11)
H9_10 H 0.6999 0.6735 0.8397
C13_8 C 0.6187(5) 0.7134(5) 0.84744(11)
C14_8 C 0.6123(5) 0.7687(5) 0.86136(12)
H10_8 H 0.5608 0.7704 0.8622
C15_10 C 0.6775(5) 0.8187(5) 0.87339(13)
H11_10 H 0.6729 0.8589 0.8816
O6_10 O 0.6008(5) 0.2180(7) 0.78944(10)
O7_10 O 0.5342(4) 0.1369(6) 0.76331(7)
C16_10 C 0.5499(5) 0.1500(7) 0.78211(11)
C17_10 C 0.4981(5) 0.0774(7) 0.79514(10)
C18_10 C 0.4323(5) 0.0001(7) 0.78845(12)
C21_10 C 0.4582(6) 0.0253(8) 0.82769(12)
H14_10 H 0.4686 0.0333 0.8415
C22_10 C 0.5102(5) 0.0883(8) 0.81553(11)
H15_10 H 0.5550 0.1401 0.8208
C26_10 C 0.2427(5) 0.0009(7) 0.86127(12)
H19_10 H 0.2485 0.0560 0.8613
H20_10 H 0.3265 0.0264 0.8397
O10_10 O 0.7820(7) 0.3828(5) 0.78944(10)
O11_10 O 0.8631(6) 0.3973(4) 0.76331(7)
C31_10 C 0.8500(7) 0.3999(5) 0.78211(11)
C32_10 C 0.9226(7) 0.4207(5) 0.79514(10)
C33_10 C 0.9999(7) 0.4322(5) 0.78845(12)
C36_10 C 0.9747(8) 0.4329(6) 0.82769(12)
H25_10 H 0.9667 0.4353 0.8415
C37_10 C 0.9117(8) 0.4219(6) 0.81553(11)
H26_10 H 0.8599 0.4149 0.8208
C41_10 C 0.9991(7) 0.2418(5) 0.86127(12)
H30_10 H 0.9440 0.1925 0.8613
H31_10 H 0.9736 0.3001 0.8397
Zn1_19 Zn 0.0000 -0.0000 0.44659(2)
O1_19 O 0.0000 -0.0000 0.41769(12)
C9_11 C 0.1558(5) 0.5340(5) 0.55376(13)
C10_11 C 0.0855(5) 0.4802(5) 0.54098(11)
C11_11 C 0.0915(5) 0.4240(5) 0.52794(12)
H8_11 H 0.1408 0.4182 0.5280
C12_11 C 0.0267(5) 0.3774(6) 0.51517(11)
H9_11 H 0.0332 0.3402 0.5064
C15_11 C 0.0108(5) 0.4854(5) 0.54006(13)
H11_11 H 0.0062 0.5256 0.5483
N3_11 N 0.4466(6) 0.1132(4) 0.50096(11)
O10_11 O 0.1153(7) 0.0495(5) 0.45611(10)
O11_11 O 0.1964(6) 0.0640(4) 0.42998(7)
C31_11 C 0.1833(7) 0.0666(5) 0.44878(11)
C32_11 C 0.2559(7) 0.0874(5) 0.46181(10)
C33_11 C 0.3332(7) 0.0989(5) 0.45512(12)
H23_11 H 0.3420 0.0994 0.4413
C34_11 C 0.3958(7) 0.1092(5) 0.46727(11)
H24_11 H 0.4481 0.1175 0.4621
C35_11 C 0.3835(7) 0.1077(5) 0.48796(11)
C36_11 C 0.3080(8) 0.0996(6) 0.49436(12)
H25_11 H 0.3000 0.1020 0.5082
C37_11 C 0.2450(8) 0.0886(6) 0.48220(11)
H26_11 H 0.1932 0.0816 0.4875
C38_11 C 0.5330(9) 0.1795(6) 0.49836(14)
H27_11 H 0.5703 0.1548 0.4984
H28_11 H 0.5385 0.2084 0.4858
H29_11 H 0.5492 0.2206 0.5093
C43_11 C 0.4280(7) 0.0480(5) 0.51411(11)
C44_11 C 0.4897(7) 0.0544(5) 0.52803(12)
H32_11 H 0.5429 0.1059 0.5289
Zn1_20 Zn 0.0000 1.0000 0.44659(2)
O1_20 O 0.0000 1.0000 0.41769(12)
C39_11 C 0.3781(7) 0.8442(5) 0.55376(13)
C40_11 C 0.3946(7) 0.9145(5) 0.54098(11)
C41_11 C 0.3324(7) 0.9085(5) 0.52794(12)
H30_11 H 0.2773 0.8592 0.5280
C42_11 C 0.3506(8) 0.9733(5) 0.51517(11)
H31_11 H 0.3069 0.9668 0.5064
C45_11 C 0.4745(7) 0.9892(5) 0.54006(13)
H33_11 H 0.5193 0.9938 0.5483
Zn1_21 Zn 1.0000 -0.0000 0.44659(2)
N1_9 N 0.8868(4) 0.3335(4) 0.50096(11)
O1_21 O 1.0000 -0.0000 0.41769(12)
O2_11 O 0.9505(5) 0.0659(5) 0.45611(10)
O3_11 O 0.9360(4) 0.1325(4) 0.42998(7)
C1_11 C 0.9334(5) 0.1168(5) 0.44878(11)
C2_11 C 0.9126(5) 0.1686(5) 0.46181(10)
C3_11 C 0.9011(5) 0.2344(5) 0.45512(12)
H1_11 H 0.9006 0.2427 0.4413
C4_11 C 0.8908(5) 0.2867(5) 0.46727(11)
H2_11 H 0.8825 0.3307 0.4621
C5_11 C 0.8923(5) 0.2759(5) 0.48796(11)
C6_11 C 0.9004(6) 0.2085(6) 0.49436(12)
H3_9 H 0.8980 0.1981 0.5082
C7_11 C 0.9114(6) 0.1565(5) 0.48220(11)
H4_11 H 0.9184 0.1117 0.4875
C8_11 C 0.8205(6) 0.3536(7) 0.49836(14)
H5_11 H 0.8452 0.4156 0.4984
H6_11 H 0.7916 0.3302 0.4858
H7_9 H 0.7794 0.3287 0.5093
C13_9 C 0.9520(5) 0.3801(5) 0.51411(11)
C14_9 C 0.9456(5) 0.4354(5) 0.52803(12)
H10_9 H 0.8941 0.4371 0.5289
Zn1_22 Zn 1.0000 1.0000 0.44659(2)
O1_22 O 1.0000 1.0000 0.41769(12)
N2_10 N 0.6665(4) 0.5534(6) 0.50096(11)
O6_11 O 0.9341(5) 0.8847(7) 0.45611(10)
O7_11 O 0.8675(4) 0.8036(6) 0.42998(7)
C16_11 C 0.8832(5) 0.8167(7) 0.44878(11)
C17_11 C 0.8314(5) 0.7441(7) 0.46181(10)
C18_11 C 0.7656(5) 0.6668(7) 0.45512(12)
H12_10 H 0.7573 0.6580 0.4413
C19_10 C 0.7133(5) 0.6042(7) 0.46727(11)
H13_10 H 0.6693 0.5519 0.4621
C20_10 C 0.7241(5) 0.6165(7) 0.48796(11)
C21_11 C 0.7915(6) 0.6920(8) 0.49436(12)
H14_11 H 0.8019 0.7000 0.5082
C22_11 C 0.8435(5) 0.7550(8) 0.48220(11)
H15_11 H 0.8883 0.8068 0.4875
C23_10 C 0.6464(7) 0.4670(9) 0.49836(14)
H16_10 H 0.5844 0.4297 0.4984
H17_10 H 0.6698 0.4615 0.4858
H18_10 H 0.6713 0.4508 0.5093
C24_10 C 0.4660(5) 0.6219(7) 0.55376(13)
C25_10 C 0.5198(5) 0.6054(7) 0.54098(11)
C26_11 C 0.5760(5) 0.6676(7) 0.52794(12)
H19_11 H 0.5818 0.7227 0.5280
C27_10 C 0.6226(6) 0.6494(8) 0.51517(11)
H20_11 H 0.6598 0.6931 0.5064
C28_10 C 0.6199(5) 0.5720(7) 0.51411(11)
C29_10 C 0.5646(5) 0.5103(7) 0.52803(12)
H21_10 H 0.5629 0.4571 0.5289
C30_10 C 0.5146(5) 0.5255(7) 0.54006(13)
H22_10 H 0.4744 0.4807 0.5483
N1_10 N 0.2202(4) 0.0001(4) 0.16762(11)
C8_12 C 0.1539(6) 0.0202(7) 0.16502(14)
H5_12 H 0.1786 0.0822 0.1650
C9_12 C 0.4892(5) 0.2006(5) 0.22042(13)
C10_12 C 0.4189(5) 0.1468(5) 0.20764(11)
C11_12 C 0.4249(5) 0.0906(5) 0.19460(12)
H8_12 H 0.4742 0.0848 0.1946
C12_12 C 0.3601(5) 0.0440(6) 0.18183(11)
H9_12 H 0.3666 0.0068 0.1730
C13_10 C 0.2854(5) 0.0467(5) 0.18077(11)
C14_10 C 0.2790(5) 0.1020(5) 0.19469(12)
H10_10 H 0.2275 0.1037 0.1955
C15_12 C 0.3442(5) 0.1520(5) 0.20672(13)
H11_12 H 0.3396 0.1922 0.2149
Zn1_23 Zn 0.3334 0.6666 0.11325(2)
O1_23 O 0.3334 0.6666 0.08435(12)
O2_12 O 0.2839(5) 0.7325(5) 0.12277(10)
O3_12 O 0.2694(4) 0.7991(4) 0.09664(7)
C1_12 C 0.2668(5) 0.7834(5) 0.11544(11)
C2_12 C 0.2460(5) 0.8352(5) 0.12847(10)
C3_12 C 0.2345(5) 0.9010(5) 0.12178(12)
H1_12 H 0.2340 0.9093 0.1079
C4_12 C 0.2242(5) 0.9533(5) 0.13393(11)
H2_12 H 0.2159 0.9973 0.1287
C5_12 C 0.2257(5) 0.9425(5) 0.15462(11)
C6_12 C 0.2338(6) 0.8751(6) 0.16102(12)
H3_10 H 0.2314 0.8647 0.1748
C7_12 C 0.2448(6) 0.8231(5) 0.14886(11)
H4_12 H 0.2518 0.7783 0.1541
H6_12 H 0.1250 0.9968 0.1524
H7_10 H 0.1128 0.9953 0.1759
O6_12 O 0.2675(5) 0.5513(7) 0.12277(10)
O7_12 O 0.2009(4) 0.4702(6) 0.09664(7)
C16_12 C 0.2166(5) 0.4833(7) 0.11544(11)
C17_12 C 0.1648(5) 0.4107(7) 0.12847(10)
C18_12 C 0.0990(5) 0.3334(7) 0.12178(12)
H12_11 H 0.0907 0.3246 0.1079
C19_11 C 0.0467(5) 0.2708(7) 0.13393(11)
H13_11 H 0.0027 0.2185 0.1287
C20_11 C 0.0575(5) 0.2831(7) 0.15462(11)
C21_12 C 0.1249(6) 0.3586(8) 0.16102(12)
H14_12 H 0.1353 0.3666 0.1748
C22_12 C 0.1769(5) 0.4216(8) 0.14886(11)
H15_12 H 0.2217 0.4734 0.1541
H17_11 H 0.0032 0.1281 0.1524
H18_11 H 0.0047 0.1174 0.1759
N3_12 N 0.7800(6) 0.7798(4) 0.16762(11)
O10_12 O 0.4487(7) 0.7161(5) 0.12277(10)
O11_12 O 0.5298(6) 0.7306(4) 0.09664(7)
C31_12 C 0.5167(7) 0.7332(5) 0.11544(11)
C32_12 C 0.5893(7) 0.7540(5) 0.12847(10)
C33_12 C 0.6666(7) 0.7655(5) 0.12178(12)
H23_12 H 0.6754 0.7660 0.1079
C34_12 C 0.7292(7) 0.7758(5) 0.13393(11)
H24_12 H 0.7815 0.7841 0.1287
C35_12 C 0.7169(7) 0.7743(5) 0.15462(11)
C36_12 C 0.6414(8) 0.7662(6) 0.16102(12)
H25_12 H 0.6334 0.7686 0.1748
C37_12 C 0.5784(8) 0.7552(6) 0.14886(11)
H26_12 H 0.5266 0.7482 0.1541
C38_12 C 0.8664(9) 0.8461(6) 0.16502(14)
H27_12 H 0.9037 0.8214 0.1650
H28_12 H 0.8719 0.8750 0.1524
H29_12 H 0.8826 0.8872 0.1759
C39_12 C 0.7115(7) 0.5108(5) 0.22042(13)
C40_12 C 0.7280(7) 0.5811(5) 0.20764(11)
C41_12 C 0.6658(7) 0.5751(5) 0.19460(12)
H30_12 H 0.6107 0.5258 0.1946
C42_12 C 0.6840(8) 0.6399(5) 0.18183(11)
H31_12 H 0.6403 0.6334 0.1730
C43_12 C 0.7614(7) 0.7146(5) 0.18077(11)
C44_12 C 0.8231(7) 0.7210(5) 0.19469(12)
H32_12 H 0.8763 0.7725 0.1955
C45_12 C 0.8079(7) 0.6558(5) 0.20672(13)
H33_12 H 0.8527 0.6604 0.2149
N2_11 N 0.9999(4) 0.2200(6) 0.16762(11)
C23_11 C 0.9798(7) 0.1336(9) 0.16502(14)
H16_11 H 0.9178 0.0963 0.1650
C24_11 C 0.7994(5) 0.2885(7) 0.22042(13)
C25_11 C 0.8532(5) 0.2720(7) 0.20764(11)
C26_12 C 0.9094(5) 0.3342(7) 0.19460(12)
H19_12 H 0.9152 0.3893 0.1946
C27_11 C 0.9560(6) 0.3160(8) 0.18183(11)
H20_12 H 0.9932 0.3597 0.1730
C28_11 C 0.9533(5) 0.2386(7) 0.18077(11)
C29_11 C 0.8980(5) 0.1769(7) 0.19469(12)
H21_11 H 0.8963 0.1237 0.1955
C30_11 C 0.8480(5) 0.1921(7) 0.20672(13)
H22_11 H 0.8078 0.1473 0.2149
Zn1_24 Zn 0.0000 1.0000 0.94659(2)
O1_24 O 0.0000 1.0000 0.91769(12)
O18_6 O 0.0724(3) 0.8932(4) 0.89631(7)
N2_12 N 0.3332(4) 0.8867(6) 0.83429(11)
H12_12 H 0.4240 0.9913 0.7746
C19_12 C 0.3800(5) 0.9375(7) 0.80060(11)
H13_12 H 0.3360 0.8852 0.7954
C20_12 C 0.3908(5) 0.9498(7) 0.82129(11)
C23_12 C 0.3131(7) 0.8003(9) 0.83169(14)
H16_12 H 0.2511 0.7630 0.8317
H17_12 H 0.3365 0.7948 0.8191
H18_12 H 0.3380 0.7841 0.8426
C24_12 C 0.1327(5) 0.9552(7) 0.88709(13)
C25_12 C 0.1865(5) 0.9387(7) 0.87431(11)
C27_12 C 0.2893(6) 0.9827(8) 0.84850(11)
C28_12 C 0.2866(5) 0.9053(7) 0.84744(11)
C29_12 C 0.2313(5) 0.8436(7) 0.86136(12)
H21_12 H 0.2296 0.7904 0.8622
C30_12 C 0.1813(5) 0.8588(7) 0.87339(13)
H22_12 H 0.1411 0.8140 0.8816
N1_11 N 0.6665(4) 0.1132(4) 0.00096(11)
H3_11 H 0.8019 0.1020 0.0082
H7_11 H 0.6713 0.2206 0.0093
C13_11 C 0.6199(5) 0.0480(5) 0.01411(11)
C14_11 C 0.5646(5) 0.0544(5) 0.02803(12)
H10_11 H 0.5629 0.1059 0.0289
N1_12 N 0.3335(4) 0.8868(4) 0.99904(11)
H3_12 H 0.1981 0.8980 0.9918
H7_12 H 0.3287 0.7794 0.9907
C13_12 C 0.3801(5) 0.9520(5) 0.98589(11)
C14_12 C 0.4354(5) 0.9456(5) 0.97197(12)
H10_12 H 0.4371 0.8941 0.9711
loop_
_geom_bond_atom_site_label_1
_geom_bond_atom_site_label_2
_geom_bond_site_symmetry_1
_geom_bond_site_symmetry_2
Zn1 O1 1_555 1_555
Zn2 O1 1_555 1_555
N1 C5 1_555 1_555
O1 Zn3 1_555 1_555
O2 Zn1 1_555 1_555
O3 Zn2 1_555 1_555
O4 C9 1_555 1_555
O5 C9 1_555 1_555
C1 O2 1_555 1_555
C2 C1 1_555 1_555
C3 C2 1_555 1_555
H1 C3 1_555 1_555
C4 C3 1_555 1_555
H2 C4 1_555 1_555
C5 C4 1_555 1_555
C6 C5 1_555 1_555
H3 C6 1_555 1_555
C7 C2 1_555 1_555
H4 C7 1_555 1_555
C8 N1 1_555 1_555
H5 C8 1_555 1_555
H6 C8 1_555 1_555
H7 C8 1_555 1_555
C9 C10 1_555 1_555
C10 C11 1_555 1_555
C11 H8 1_555 1_555
C12 C11 1_555 1_555
H9 C12 1_555 1_555
C13 N1 1_555 1_555
C14 C13 1_555 1_555
H10 C14 1_555 1_555
C15 C10 1_555 1_555
H11 C15 1_555 1_555
Zn3 O7 1_555 1_555
O6 Zn1 1_555 1_555
O7 C16 1_555 1_555
C16 O6 1_555 1_555
C17 C16 1_555 1_555
C18 C17 1_555 1_555
H14 C21 1_555 1_555
C22 C17 1_555 1_555
H15 C22 1_555 1_555
C26 H19 1_555 1_555
Zn4 O1 1_555 1_555
O10 Zn1 1_555 1_555
O11 Zn4 1_555 1_555
C31 O10 1_555 1_555
C32 C31 1_555 1_555
C33 C32 1_555 1_555
H25 C36 1_555 1_555
C37 C32 1_555 1_555
H26 C37 1_555 1_555
C41 H30 1_555 1_555
Zn6 O12 1_555 1_555
Zn8 O8 1_555 1_555
Zn10 O4 1_555 1_555
O14 Zn4 1_555 1_555
O15 Zn3 1_555 1_555
O16 Zn2 1_555 1_555
O17 Zn2 1_555 1_555
O18 Zn4 1_555 1_555
O19 Zn3 1_555 1_555
O3 C1 1_555 1_555
C6 C7 1_555 1_555
C12 C13 1_555 1_555
C14 C15 1_555 1_555
C21 C22 1_555 1_555
O11 C31 1_555 1_555
C36 C37 1_555 1_555
N3 C35 1_555 1_555
O13 C39 1_555 1_555
H24 C34 1_555 1_555
C35 C34 1_555 1_555
C38 N3 1_555 1_555
H27 C38 1_555 1_555
H28 C38 1_555 1_555
H29 C38 1_555 1_555
C39 C40 1_555 1_555
C43 N3 1_555 1_555
C44 C43 1_555 1_555
H32 C44 1_555 1_555
C45 C40 1_555 1_555
H33 C45 1_555 1_555
Zn8 O13 1_555 1_555
C42 C43 1_555 1_555
C44 C45 1_555 1_555
Zn1_2 O1_2 1_555 1_555
O1_2 Zn3_2 1_555 1_555
Zn3_2 O7_2 1_555 1_555
N2 C20 1_555 1_555
O6_2 Zn1_2 1_555 1_555
O7_2 C16_2 1_555 1_555
O8_2 C24 1_555 1_555
O9 C24 1_555 1_555
C16_2 O6_2 1_555 1_555
C17_2 C16_2 1_555 1_555
C18_2 C17_2 1_555 1_555
H12 C18_2 1_555 1_555
C19 C18_2 1_555 1_555
H13 C19 1_555 1_555
C20 C19 1_555 1_555
C21_2 C20 1_555 1_555
H14_2 C21_2 1_555 1_555
C22_2 C17_2 1_555 1_555
H15_2 C22_2 1_555 1_555
C23 N2 1_555 1_555
H16 C23 1_555 1_555
H17 C23 1_555 1_555
H18 C23 1_555 1_555
C24 C25 1_555 1_555
C25 C26_2 1_555 1_555
C26_2 H19_2 1_555 1_555
C27 C26_2 1_555 1_555
H20_2 C27 1_555 1_555
C28 N2 1_555 1_555
C29 C28 1_555 1_555
H21 C29 1_555 1_555
C30 C25 1_555 1_555
H22 C30 1_555 1_555
Zn8_2 O8_2 1_555 1_555
Zn10_2 O9 1_555 1_555
O15_2 Zn3_2 1_555 1_555
O19_2 Zn3_2 1_555 1_555
C21_2 C22_2 1_555 1_555
C27 C28 1_555 1_555
C29 C30 1_555 1_555
Zn1_3 O1_3 1_555 1_555
Zn2_2 O1_3 1_555 1_555
N1_2 C5_2 1_555 1_555
O2_2 Zn1_3 1_555 1_555
O3_2 Zn2_2 1_555 1_555
C1_2 O2_2 1_555 1_555
C2_2 C1_2 1_555 1_555
C3_2 C2_2 1_555 1_555
H1_2 C3_2 1_555 1_555
C4_2 C3_2 1_555 1_555
H2_2 C4_2 1_555 1_555
C5_2 C4_2 1_555 1_555
C6_2 C5_2 1_555 1_555
H3_2 C6_2 1_555 1_555
C7_2 C2_2 1_555 1_555
H4_2 C7_2 1_555 1_555
C8_2 N1_2 1_555 1_555
H5_2 C8_2 1_555 1_555
H6_2 C8_2 1_555 1_555
H7_2 C8_2 1_555 1_555
C13_2 N1_2 1_555 1_555
C14_2 C13_2 1_555 1_555
H10_2 C14_2 1_555 1_555
O16_2 Zn2_2 1_555 1_555
O3_2 C1_2 1_555 1_555
C6_2 C7_2 1_555 1_555
Zn1_4 O1_4 1_555 1_555
O12_2 C39_2 1_555 1_555
O13_2 C39_2 1_555 1_555
C39_2 C40_2 1_555 1_555
C40_2 C41_2 1_555 1_555
C41_2 H30_2 1_555 1_555
C42_2 C41_2 1_555 1_555
H31_2 C42_2 1_555 1_555
C45_2 C40_2 1_555 1_555
H33_2 C45_2 1_555 1_555
Zn6_2 O12_2 1_555 1_555
Zn8_2 O13_2 1_555 1_555
Zn1_5 O1_5 1_555 1_555
O4_2 C9_2 1_555 1_555
O5_2 C9_2 1_555 1_555
C9_2 C10_2 1_555 1_555
C10_2 C11_2 1_555 1_555
C11_2 H8_2 1_555 1_555
C12_2 C11_2 1_555 1_555
H9_2 C12_2 1_555 1_555
C15_2 C10_2 1_555 1_555
H11_2 C15_2 1_555 1_555
Zn4_2 O1_5 1_555 1_555
N3_2 C35_2 1_555 1_555
O10_2 Zn1_5 1_555 1_555
O11_2 Zn4_2 1_555 1_555
C31_2 O10_2 1_555 1_555
C32_2 C31_2 1_555 1_555
C33_2 C32_2 1_555 1_555
H23_2 C33_2 1_555 1_555
C34_2 C33_2 1_555 1_555
H24_2 C34_2 1_555 1_555
C35_2 C34_2 1_555 1_555
C36_2 C35_2 1_555 1_555
H25_2 C36_2 1_555 1_555
C37_2 C32_2 1_555 1_555
H26_2 C37_2 1_555 1_555
C38_2 N3_2 1_555 1_555
H27_2 C38_2 1_555 1_555
H28_2 C38_2 1_555 1_555
H29_2 C38_2 1_555 1_555
C43_2 N3_2 1_555 1_555
C44_2 C43_2 1_555 1_555
H32_2 C44_2 1_555 1_555
Zn6_2 O5_2 1_555 1_555
Zn10_2 O4_2 1_555 1_555
O14_2 Zn4_2 1_555 1_555
O11_2 C31_2 1_555 1_555
C36_2 C37_2 1_555 1_555
O8_3 C24_2 1_555 1_555
O9_2 C24_2 1_555 1_555
C23_2 N2_2 1_555 1_555
H16_2 C23_2 1_555 1_555
C24_2 C25_2 1_555 1_555
C25_2 C26_3 1_555 1_555
C26_3 H19_3 1_555 1_555
C27_2 C26_3 1_555 1_555
H20_3 C27_2 1_555 1_555
C28_2 N2_2 1_555 1_555
C29_2 C28_2 1_555 1_555
H21_2 C29_2 1_555 1_555
C30_2 C25_2 1_555 1_555
H22_2 C30_2 1_555 1_555
Zn8_3 O8_3 1_555 1_555
Zn10_3 O9_2 1_555 1_555
C27_2 C28_2 1_555 1_555
C29_2 C30_2 1_555 1_555
Zn1_6 O1_6 1_555 1_555
Zn2_3 O1_6 1_555 1_555
O1_6 Zn3_3 1_555 1_555
O2_3 Zn1_6 1_555 1_555
O3_3 Zn2_3 1_555 1_555
C1_3 O2_3 1_555 1_555
C2_3 C1_3 1_555 1_555
C3_3 C2_3 1_555 1_555
H1_3 C3_3 1_555 1_555
C4_3 C3_3 1_555 1_555
H2_3 C4_3 1_555 1_555
C5_3 C4_3 1_555 1_555
C6_3 C5_3 1_555 1_555
H3_3 C6_3 1_555 1_555
C7_3 C2_3 1_555 1_555
H4_3 C7_3 1_555 1_555
Zn3_3 O7_3 1_555 1_555
O6_3 Zn1_6 1_555 1_555
O7_3 C16_3 1_555 1_555
C16_3 O6_3 1_555 1_555
C17_3 C16_3 1_555 1_555
C18_3 C17_3 1_555 1_555
H12_2 C18_3 1_555 1_555
C19_2 C18_3 1_555 1_555
H13_2 C19_2 1_555 1_555
C20_2 C19_2 1_555 1_555
C21_3 C20_2 1_555 1_555
H14_3 C21_3 1_555 1_555
C22_3 C17_3 1_555 1_555
H15_3 C22_3 1_555 1_555
Zn4_3 O1_6 1_555 1_555
N3_3 C35_3 1_555 1_555
O10_3 Zn1_6 1_555 1_555
O11_3 Zn4_3 1_555 1_555
O12_3 C39_3 1_555 1_555
O13_3 C39_3 1_555 1_555
C31_3 O10_3 1_555 1_555
C32_3 C31_3 1_555 1_555
C33_3 C32_3 1_555 1_555
H23_3 C33_3 1_555 1_555
C34_3 C33_3 1_555 1_555
H24_3 C34_3 1_555 1_555
C35_3 C34_3 1_555 1_555
C36_3 C35_3 1_555 1_555
H25_3 C36_3 1_555 1_555
C37_3 C32_3 1_555 1_555
H26_3 C37_3 1_555 1_555
C38_3 N3_3 1_555 1_555
H27_3 C38_3 1_555 1_555
H28_3 C38_3 1_555 1_555
H29_3 C38_3 1_555 1_555
C39_3 C40_3 1_555 1_555
C40_3 C41_3 1_555 1_555
C41_3 H30_3 1_555 1_555
C42_3 C41_3 1_555 1_555
H31_3 C42_3 1_555 1_555
C43_3 N3_3 1_555 1_555
C44_3 C43_3 1_555 1_555
H32_3 C44_3 1_555 1_555
C45_3 C40_3 1_555 1_555
H33_3 C45_3 1_555 1_555
Zn6_3 O12_3 1_555 1_555
Zn8_3 O13_3 1_555 1_555
O14_3 Zn4_3 1_555 1_555
O15_3 Zn3_3 1_555 1_555
O16_3 Zn2_3 1_555 1_555
O17_3 Zn2_3 1_555 1_555
O18_3 Zn4_3 1_555 1_555
O19_3 Zn3_3 1_555 1_555
O3_3 C1_3 1_555 1_555
C6_3 C7_3 1_555 1_555
C21_3 C22_3 1_555 1_555
O11_3 C31_3 1_555 1_555
C36_3 C37_3 1_555 1_555
C42_3 C43_3 1_555 1_555
C44_3 C45_3 1_555 1_555
O4_3 C9_3 1_555 1_555
O5_3 C9_3 1_555 1_555
C8_3 N1_3 1_555 1_555
H5_3 C8_3 1_555 1_555
C9_3 C10_3 1_555 1_555
C10_3 C11_3 1_555 1_555
C11_3 H8_3 1_555 1_555
C12_3 C11_3 1_555 1_555
H9_3 C12_3 1_555 1_555
C13_3 N1_3 1_555 1_555
C14_3 C13_3 1_555 1_555
H10_3 C14_3 1_555 1_555
C15_3 C10_3 1_555 1_555
H11_3 C15_3 1_555 1_555
Zn6_3 O5_3 1_555 1_555
Zn10_3 O4_3 1_555 1_555
C12_3 C13_3 1_555 1_555
C14_3 C15_3 1_555 1_555
N3_4 C35_4 1_555 1_555
O19_2 C39_4 1_555 1_555
H24_4 C34_4 1_555 1_555
C35_4 C34_4 1_555 1_555
C38_4 N3_4 1_555 1_555
H27_4 C38_4 1_555 1_555
H28_4 C38_4 1_555 1_555
H29_4 C38_4 1_555 1_555
C39_4 C40_4 1_555 1_555
C43_4 N3_4 1_555 1_555
C44_4 C43_4 1_555 1_555
H32_4 C44_4 1_555 1_555
C45_4 C40_4 1_555 1_555
H33_4 C45_4 1_555 1_555
C42_4 C43_4 1_555 1_555
C44_4 C45_4 1_555 1_555
Zn1_7 O1_7 1_555 1_555
Zn6_3 O1_7 1_555 1_555
N1_4 C5_4 1_555 1_555
O1_7 Zn8_3 1_555 1_555
O2_4 Zn1_7 1_555 1_555
O3_4 Zn6_3 1_555 1_555
O14_2 C9_4 1_555 1_555
O17_2 C9_4 1_555 1_555
C1_4 O2_4 1_555 1_555
C2_4 C1_4 1_555 1_555
C3_4 C2_4 1_555 1_555
H1_4 C3_4 1_555 1_555
C4_4 C3_4 1_555 1_555
H2_4 C4_4 1_555 1_555
C5_4 C4_4 1_555 1_555
C6_4 C5_4 1_555 1_555
H3_4 C6_4 1_555 1_555
C7_4 C2_4 1_555 1_555
H4_4 C7_4 1_555 1_555
C8_4 N1_4 1_555 1_555
H5_4 C8_4 1_555 1_555
H6_4 C8_4 1_555 1_555
H7_4 C8_4 1_555 1_555
C9_4 C10_4 1_555 1_555
C10_4 C11_4 1_555 1_555
C11_4 H8_4 1_555 1_555
C12_4 C11_4 1_555 1_555
H9_4 C12_4 1_555 1_555
C13_4 N1_4 1_555 1_555
C14_4 C13_4 1_555 1_555
H10_4 C14_4 1_555 1_555
C15_4 C10_4 1_555 1_555
H11_4 C15_4 1_555 1_555
Zn8_3 O7_4 1_555 1_555
O6_4 Zn1_7 1_555 1_555
O7_4 C16_4 1_555 1_555
C16_4 O6_4 1_555 1_555
C17_4 C16_4 1_555 1_555
C18_4 C17_4 1_555 1_555
H14_4 C21_4 1_555 1_555
C22_4 C17_4 1_555 1_555
H15_4 C22_4 1_555 1_555
C26_4 H19_4 1_555 1_555
Zn10_3 O1_7 1_555 1_555
O10_4 Zn1_7 1_555 1_555
O11_4 Zn10_3 1_555 1_555
C31_4 O10_4 1_555 1_555
C32_4 C31_4 1_555 1_555
C33_4 C32_4 1_555 1_555
H25_4 C36_4 1_555 1_555
C37_4 C32_4 1_555 1_555
H26_4 C37_4 1_555 1_555
C41_4 H30_4 1_555 1_555
O3_4 C1_4 1_555 1_555
C6_4 C7_4 1_555 1_555
C12_4 C13_4 1_555 1_555
C14_4 C15_4 1_555 1_555
C21_4 C22_4 1_555 1_555
O11_4 C31_4 1_555 1_555
C36_4 C37_4 1_555 1_555
N2_3 C20_3 1_555 1_555
O18_2 C24_3 1_555 1_555
H13_3 C19_3 1_555 1_555
C20_3 C19_3 1_555 1_555
C23_3 N2_3 1_555 1_555
H16_3 C23_3 1_555 1_555
H17_3 C23_3 1_555 1_555
H18_3 C23_3 1_555 1_555
C24_3 C25_3 1_555 1_555
C28_3 N2_3 1_555 1_555
C29_3 C28_3 1_555 1_555
H21_3 C29_3 1_555 1_555
C30_3 C25_3 1_555 1_555
H22_3 C30_3 1_555 1_555
C27_3 C28_3 1_555 1_555
C29_3 C30_3 1_555 1_555
O14 C9_5 1_555 1_555
O17 C9_5 1_555 1_555
C8_5 N1_5 1_555 1_555
H5_5 C8_5 1_555 1_555
C9_5 C10_5 1_555 1_555
C10_5 C11_5 1_555 1_555
C11_5 H8_5 1_555 1_555
C12_5 C11_5 1_555 1_555
H9_5 C12_5 1_555 1_555
C13_5 N1_5 1_555 1_555
C14_5 C13_5 1_555 1_555
H10_5 C14_5 1_555 1_555
C15_5 C10_5 1_555 1_555
H11_5 C15_5 1_555 1_555
C12_5 C13_5 1_555 1_555
C14_5 C15_5 1_555 1_555
Zn1_8 O1_8 1_555 1_555
Zn6_2 O1_8 1_555 1_555
O1_8 Zn8_2 1_555 1_555
O2_5 Zn1_8 1_555 1_555
O3_5 Zn6_2 1_555 1_555
C1_5 O2_5 1_555 1_555
C2_5 C1_5 1_555 1_555
C3_5 C2_5 1_555 1_555
H1_5 C3_5 1_555 1_555
C4_5 C3_5 1_555 1_555
H2_5 C4_5 1_555 1_555
C5_5 C4_5 1_555 1_555
C6_5 C5_5 1_555 1_555
H3_5 C6_5 1_555 1_555
C7_5 C2_5 1_555 1_555
H4_5 C7_5 1_555 1_555
Zn8_2 O7_5 1_555 1_555
O6_5 Zn1_8 1_555 1_555
O7_5 C16_5 1_555 1_555
C16_5 O6_5 1_555 1_555
C17_5 C16_5 1_555 1_555
C18_5 C17_5 1_555 1_555
H12_4 C18_5 1_555 1_555
C19_4 C18_5 1_555 1_555
H13_4 C19_4 1_555 1_555
C20_4 C19_4 1_555 1_555
C21_5 C20_4 1_555 1_555
H14_5 C21_5 1_555 1_555
C22_5 C17_5 1_555 1_555
H15_5 C22_5 1_555 1_555
Zn10_2 O1_8 1_555 1_555
N3_5 C35_5 1_555 1_555
O10_5 Zn1_8 1_555 1_555
O11_5 Zn10_2 1_555 1_555
O16 C39_5 1_555 1_555
O19 C39_5 1_555 1_555
C31_5 O10_5 1_555 1_555
C32_5 C31_5 1_555 1_555
C33_5 C32_5 1_555 1_555
H23_5 C33_5 1_555 1_555
C34_5 C33_5 1_555 1_555
H24_5 C34_5 1_555 1_555
C35_5 C34_5 1_555 1_555
C36_5 C35_5 1_555 1_555
H25_5 C36_5 1_555 1_555
C37_5 C32_5 1_555 1_555
H26_5 C37_5 1_555 1_555
C38_5 N3_5 1_555 1_555
H27_5 C38_5 1_555 1_555
H28_5 C38_5 1_555 1_555
H29_5 C38_5 1_555 1_555
C39_5 C40_5 1_555 1_555
C40_5 C41_5 1_555 1_555
C41_5 H30_5 1_555 1_555
C42_5 C41_5 1_555 1_555
H31_5 C42_5 1_555 1_555
C43_5 N3_5 1_555 1_555
C44_5 C43_5 1_555 1_555
H32_5 C44_5 1_555 1_555
C45_5 C40_5 1_555 1_555
H33_5 C45_5 1_555 1_555
O3_5 C1_5 1_555 1_555
C6_5 C7_5 1_555 1_555
C21_5 C22_5 1_555 1_555
O11_5 C31_5 1_555 1_555
C36_5 C37_5 1_555 1_555
C42_5 C43_5 1_555 1_555
C44_5 C45_5 1_555 1_555
O15 C24_4 1_555 1_555
O18 C24_4 1_555 1_555
C23_4 N2_4 1_555 1_555
H16_4 C23_4 1_555 1_555
C24_4 C25_4 1_555 1_555
C25_4 C26_5 1_555 1_555
C26_5 H19_5 1_555 1_555
C27_4 C26_5 1_555 1_555
H20_5 C27_4 1_555 1_555
C28_4 N2_4 1_555 1_555
C29_4 C28_4 1_555 1_555
H21_4 C29_4 1_555 1_555
C30_4 C25_4 1_555 1_555
H22_4 C30_4 1_555 1_555
C27_4 C28_4 1_555 1_555
C29_4 C30_4 1_555 1_555
Zn1_9 O1_9 1_555 1_555
Zn10 O1_9 1_555 1_555
O10_6 Zn1_9 1_555 1_555
O11_6 Zn10 1_555 1_555
C31_6 O10_6 1_555 1_555
C32_6 C31_6 1_555 1_555
C33_6 C32_6 1_555 1_555
H23_6 C33_6 1_555 1_555
C34_6 C33_6 1_555 1_555
H24_6 C34_6 1_555 1_555
C35_6 C34_6 1_555 1_555
C36_6 C35_6 1_555 1_555
C37_6 C32_6 1_555 1_555
H26_6 C37_6 1_555 1_555
H27_6 C38_6 1_555 1_555
H28_6 C38_6 1_555 1_555
O11_6 C31_6 1_555 1_555
C36_6 C37_6 1_555 1_555
O14_3 C9_6 1_555 1_555
O17_3 C9_6 1_555 1_555
C9_6 C10_6 1_555 1_555
C10_6 C11_6 1_555 1_555
C11_6 H8_6 1_555 1_555
C12_6 C11_6 1_555 1_555
H9_6 C12_6 1_555 1_555
C15_6 C10_6 1_555 1_555
H11_6 C15_6 1_555 1_555
C43_6 N3_6 1_555 1_555
C44_6 C43_6 1_555 1_555
H32_6 C44_6 1_555 1_555
Zn1_10 O1_10 1_555 1_555
Zn6 O1_10 1_555 1_555
O2_6 Zn1_10 1_555 1_555
O3_6 Zn6 1_555 1_555
C1_6 O2_6 1_555 1_555
C2_6 C1_6 1_555 1_555
C3_6 C2_6 1_555 1_555
H1_6 C3_6 1_555 1_555
C4_6 C3_6 1_555 1_555
H2_6 C4_6 1_555 1_555
C5_6 C4_6 1_555 1_555
C6_6 C5_6 1_555 1_555
C7_6 C2_6 1_555 1_555
H4_6 C7_6 1_555 1_555
H5_6 C8_6 1_555 1_555
H6_6 C8_6 1_555 1_555
O3_6 C1_6 1_555 1_555
C6_6 C7_6 1_555 1_555
O16_3 C39_6 1_555 1_555
O19_3 C39_6 1_555 1_555
C39_6 C40_6 1_555 1_555
C40_6 C41_6 1_555 1_555
C41_6 H30_6 1_555 1_555
C42_6 C41_6 1_555 1_555
H31_6 C42_6 1_555 1_555
C45_6 C40_6 1_555 1_555
H33_6 C45_6 1_555 1_555
Zn1_11 O1_11 1_555 1_555
O1_11 Zn8 1_555 1_555
Zn8 O7_6 1_555 1_555
O6_6 Zn1_11 1_555 1_555
O7_6 C16_6 1_555 1_555
C16_6 O6_6 1_555 1_555
C17_6 C16_6 1_555 1_555
C18_6 C17_6 1_555 1_555
H12_5 C18_6 1_555 1_555
C19_5 C18_6 1_555 1_555
H13_5 C19_5 1_555 1_555
C20_5 C19_5 1_555 1_555
C21_6 C20_5 1_555 1_555
C22_6 C17_6 1_555 1_555
H15_6 C22_6 1_555 1_555
H16_5 C23_5 1_555 1_555
H17_5 C23_5 1_555 1_555
C21_6 C22_6 1_555 1_555
O15_3 C24_5 1_555 1_555
O18_3 C24_5 1_555 1_555
C24_5 C25_5 1_555 1_555
C25_5 C26_6 1_555 1_555
C26_6 H19_6 1_555 1_555
C27_5 C26_6 1_555 1_555
H20_6 C27_5 1_555 1_555
C28_5 N2_5 1_555 1_555
C29_5 C28_5 1_555 1_555
H21_5 C29_5 1_555 1_555
C30_5 C25_5 1_555 1_555
H22_5 C30_5 1_555 1_555
C27_5 C28_5 1_555 1_555
C29_5 C30_5 1_555 1_555
N2_6 C20_6 1_555 1_555
O9_3 C24_6 1_555 1_555
H13_6 C19_6 1_555 1_555
C20_6 C19_6 1_555 1_555
C23_6 N2_6 1_555 1_555
H16_6 C23_6 1_555 1_555
H17_6 C23_6 1_555 1_555
H18_6 C23_6 1_555 1_555
C24_6 C25_6 1_555 1_555
C28_6 N2_6 1_555 1_555
C29_6 C28_6 1_555 1_555
H21_6 C29_6 1_555 1_555
C30_6 C25_6 1_555 1_555
H22_6 C30_6 1_555 1_555
C27_6 C28_6 1_555 1_555
C29_6 C30_6 1_555 1_555
Zn1_12 O1_12 1_555 1_555
N2_7 C20_7 1_555 1_555
O9_4 C24_7 1_555 1_555
H13_7 C19_7 1_555 1_555
C20_7 C19_7 1_555 1_555
C23_7 N2_7 1_555 1_555
H16_7 C23_7 1_555 1_555
H17_7 C23_7 1_555 1_555
H18_7 C23_7 1_555 1_555
C24_7 C25_7 1_555 1_555
C28_7 N2_7 1_555 1_555
C29_7 C28_7 1_555 1_555
H21_7 C29_7 1_555 1_555
C30_7 C25_7 1_555 1_555
H22_7 C30_7 1_555 1_555
C27_7 C28_7 1_555 1_555
C29_7 C30_7 1_555 1_555
Zn1_13 O1_13 1_555 1_555
Zn2_4 O1_13 1_555 1_555
N1_6 C5_7 1_555 1_555
O1_13 Zn3_4 1_555 1_555
O2_7 Zn1_13 1_555 1_555
O3_7 Zn2_4 1_555 1_555
O4_4 C9_7 1_555 1_555
O5_4 C9_7 1_555 1_555
C1_7 O2_7 1_555 1_555
C2_7 C1_7 1_555 1_555
C3_7 C2_7 1_555 1_555
H1_7 C3_7 1_555 1_555
C4_7 C3_7 1_555 1_555
H2_7 C4_7 1_555 1_555
C5_7 C4_7 1_555 1_555
C6_7 C5_7 1_555 1_555
H3_6 C6_7 1_555 1_555
C7_7 C2_7 1_555 1_555
H4_7 C7_7 1_555 1_555
C8_7 N1_6 1_555 1_555
H5_7 C8_7 1_555 1_555
H6_7 C8_7 1_555 1_555
H7_6 C8_7 1_555 1_555
C9_7 C10_7 1_555 1_555
C10_7 C11_7 1_555 1_555
C11_7 H8_7 1_555 1_555
C12_7 C11_7 1_555 1_555
H9_7 C12_7 1_555 1_555
C13_6 N1_6 1_555 1_555
C14_6 C13_6 1_555 1_555
H10_6 C14_6 1_555 1_555
C15_7 C10_7 1_555 1_555
H11_7 C15_7 1_555 1_555
Zn3_4 O7_7 1_555 1_555
O6_7 Zn1_13 1_555 1_555
O7_7 C16_7 1_555 1_555
C16_7 O6_7 1_555 1_555
C17_7 C16_7 1_555 1_555
C18_7 C17_7 1_555 1_555
H14_7 C21_7 1_555 1_555
C22_7 C17_7 1_555 1_555
H15_7 C22_7 1_555 1_555
C26_7 H19_7 1_555 1_555
Zn4_4 O1_13 1_555 1_555
O10_7 Zn1_13 1_555 1_555
O11_7 Zn4_4 1_555 1_555
C31_7 O10_7 1_555 1_555
C32_7 C31_7 1_555 1_555
C33_7 C32_7 1_555 1_555
H25_7 C36_7 1_555 1_555
C37_7 C32_7 1_555 1_555
H26_7 C37_7 1_555 1_555
C41_7 H30_7 1_555 1_555
Zn6_4 O12_4 1_555 1_555
Zn8_4 O8_4 1_555 1_555
Zn10_4 O4_4 1_555 1_555
O14_4 Zn4_4 1_555 1_555
O15_4 Zn3_4 1_555 1_555
O16_4 Zn2_4 1_555 1_555
O17_4 Zn2_4 1_555 1_555
O18_4 Zn4_4 1_555 1_555
O19_4 Zn3_4 1_555 1_555
O3_7 C1_7 1_555 1_555
C6_7 C7_7 1_555 1_555
C12_7 C13_6 1_555 1_555
C14_6 C15_7 1_555 1_555
C21_7 C22_7 1_555 1_555
O11_7 C31_7 1_555 1_555
C36_7 C37_7 1_555 1_555
N3_7 C35_7 1_555 1_555
O13_4 C39_7 1_555 1_555
H24_7 C34_7 1_555 1_555
C35_7 C34_7 1_555 1_555
C38_7 N3_7 1_555 1_555
H27_7 C38_7 1_555 1_555
H28_7 C38_7 1_555 1_555
H29_7 C38_7 1_555 1_555
C39_7 C40_7 1_555 1_555
C43_7 N3_7 1_555 1_555
C44_7 C43_7 1_555 1_555
H32_7 C44_7 1_555 1_555
C45_7 C40_7 1_555 1_555
H33_7 C45_7 1_555 1_555
Zn8_4 O13_4 1_555 1_555
C42_7 C43_7 1_555 1_555
C44_7 C45_7 1_555 1_555
O8_5 C24_8 1_555 1_555
O9_5 C24_8 1_555 1_555
C23_8 N2_8 1_555 1_555
H16_8 C23_8 1_555 1_555
C24_8 C25_8 1_555 1_555
C25_8 C26_8 1_555 1_555
C26_8 H19_8 1_555 1_555
C27_8 C26_8 1_555 1_555
H20_8 C27_8 1_555 1_555
C28_8 N2_8 1_555 1_555
C29_8 C28_8 1_555 1_555
H21_8 C29_8 1_555 1_555
C30_8 C25_8 1_555 1_555
H22_8 C30_8 1_555 1_555
Zn8_5 O8_5 1_555 1_555
Zn10_5 O9_5 1_555 1_555
C27_8 C28_8 1_555 1_555
C29_8 C30_8 1_555 1_555
Zn1_14 O1_14 1_555 1_555
Zn2_5 O1_14 1_555 1_555
O1_14 Zn3_5 1_555 1_555
O2_8 Zn1_14 1_555 1_555
O3_8 Zn2_5 1_555 1_555
C1_8 O2_8 1_555 1_555
C2_8 C1_8 1_555 1_555
C3_8 C2_8 1_555 1_555
H1_8 C3_8 1_555 1_555
C4_8 C3_8 1_555 1_555
H2_8 C4_8 1_555 1_555
C5_8 C4_8 1_555 1_555
C6_8 C5_8 1_555 1_555
H3_7 C6_8 1_555 1_555
C7_8 C2_8 1_555 1_555
H4_8 C7_8 1_555 1_555
Zn3_5 O7_8 1_555 1_555
O6_8 Zn1_14 1_555 1_555
O7_8 C16_8 1_555 1_555
C16_8 O6_8 1_555 1_555
C17_8 C16_8 1_555 1_555
C18_8 C17_8 1_555 1_555
H12_8 C18_8 1_555 1_555
C19_8 C18_8 1_555 1_555
H13_8 C19_8 1_555 1_555
C20_8 C19_8 1_555 1_555
C21_8 C20_8 1_555 1_555
H14_8 C21_8 1_555 1_555
C22_8 C17_8 1_555 1_555
H15_8 C22_8 1_555 1_555
Zn4_5 O1_14 1_555 1_555
N3_8 C35_8 1_555 1_555
O10_8 Zn1_14 1_555 1_555
O11_8 Zn4_5 1_555 1_555
O12_5 C39_8 1_555 1_555
O13_5 C39_8 1_555 1_555
C31_8 O10_8 1_555 1_555
C32_8 C31_8 1_555 1_555
C33_8 C32_8 1_555 1_555
H23_8 C33_8 1_555 1_555
C34_8 C33_8 1_555 1_555
H24_8 C34_8 1_555 1_555
C35_8 C34_8 1_555 1_555
C36_8 C35_8 1_555 1_555
H25_8 C36_8 1_555 1_555
C37_8 C32_8 1_555 1_555
H26_8 C37_8 1_555 1_555
C38_8 N3_8 1_555 1_555
H27_8 C38_8 1_555 1_555
H28_8 C38_8 1_555 1_555
H29_8 C38_8 1_555 1_555
C39_8 C40_8 1_555 1_555
C40_8 C41_8 1_555 1_555
C41_8 H30_8 1_555 1_555
C42_8 C41_8 1_555 1_555
H31_8 C42_8 1_555 1_555
C43_8 N3_8 1_555 1_555
C44_8 C43_8 1_555 1_555
H32_8 C44_8 1_555 1_555
C45_8 C40_8 1_555 1_555
H33_8 C45_8 1_555 1_555
Zn6_5 O12_5 1_555 1_555
Zn8_5 O13_5 1_555 1_555
O14_5 Zn4_5 1_555 1_555
O15_5 Zn3_5 1_555 1_555
O16_5 Zn2_5 1_555 1_555
O17_5 Zn2_5 1_555 1_555
O18_5 Zn4_5 1_555 1_555
O19_5 Zn3_5 1_555 1_555
O3_8 C1_8 1_555 1_555
C6_8 C7_8 1_555 1_555
C21_8 C22_8 1_555 1_555
O11_8 C31_8 1_555 1_555
C36_8 C37_8 1_555 1_555
C42_8 C43_8 1_555 1_555
C44_8 C45_8 1_555 1_555
O4_5 C9_8 1_555 1_555
O5_5 C9_8 1_555 1_555
C8_8 N1_7 1_555 1_555
H5_8 C8_8 1_555 1_555
C9_8 C10_8 1_555 1_555
C10_8 C11_8 1_555 1_555
C11_8 H8_8 1_555 1_555
C12_8 C11_8 1_555 1_555
H9_8 C12_8 1_555 1_555
C13_7 N1_7 1_555 1_555
C14_7 C13_7 1_555 1_555
H10_7 C14_7 1_555 1_555
C15_8 C10_8 1_555 1_555
H11_8 C15_8 1_555 1_555
Zn6_5 O5_5 1_555 1_555
Zn10_5 O4_5 1_555 1_555
C12_8 C13_7 1_555 1_555
C14_7 C15_8 1_555 1_555
O8_6 C24_9 1_555 1_555
O9_6 C24_9 1_555 1_555
C24_9 C25_9 1_555 1_555
C25_9 C26_9 1_555 1_555
C26_9 H19_9 1_555 1_555
C27_9 C26_9 1_555 1_555
H20_9 C27_9 1_555 1_555
C28_9 N2_9 1_555 1_555
C29_9 C28_9 1_555 1_555
H21_9 C29_9 1_555 1_555
C30_9 C25_9 1_555 1_555
H22_9 C30_9 1_555 1_555
Zn8_6 O8_6 1_555 1_555
Zn10_6 O9_6 1_555 1_555
C27_9 C28_9 1_555 1_555
C29_9 C30_9 1_555 1_555
Zn1_15 O1_15 1_555 1_555
O1_15 Zn3_6 1_555 1_555
Zn3_6 O7_9 1_555 1_555
O6_9 Zn1_15 1_555 1_555
O7_9 C16_9 1_555 1_555
C16_9 O6_9 1_555 1_555
C17_9 C16_9 1_555 1_555
C18_9 C17_9 1_555 1_555
H12_9 C18_9 1_555 1_555
C19_9 C18_9 1_555 1_555
H13_9 C19_9 1_555 1_555
C20_9 C19_9 1_555 1_555
C21_9 C20_9 1_555 1_555
C22_9 C17_9 1_555 1_555
H15_9 C22_9 1_555 1_555
H16_9 C23_9 1_555 1_555
H17_9 C23_9 1_555 1_555
O15_6 Zn3_6 1_555 1_555
O19_6 Zn3_6 1_555 1_555
C21_9 C22_9 1_555 1_555
O12_6 C39_9 1_555 1_555
O13_6 C39_9 1_555 1_555
C39_9 C40_9 1_555 1_555
C40_9 C41_9 1_555 1_555
C41_9 H30_9 1_555 1_555
C42_9 C41_9 1_555 1_555
H31_9 C42_9 1_555 1_555
C45_9 C40_9 1_555 1_555
H33_9 C45_9 1_555 1_555
Zn6_6 O12_6 1_555 1_555
Zn8_6 O13_6 1_555 1_555
Zn1_16 O1_16 1_555 1_555
Zn2_6 O1_16 1_555 1_555
O2_9 Zn1_16 1_555 1_555
O3_9 Zn2_6 1_555 1_555
C1_9 O2_9 1_555 1_555
C2_9 C1_9 1_555 1_555
C3_9 C2_9 1_555 1_555
H1_9 C3_9 1_555 1_555
C4_9 C3_9 1_555 1_555
H2_9 C4_9 1_555 1_555
C5_9 C4_9 1_555 1_555
C6_9 C5_9 1_555 1_555
C7_9 C2_9 1_555 1_555
H4_9 C7_9 1_555 1_555
H5_9 C8_9 1_555 1_555
H6_9 C8_9 1_555 1_555
O16_6 Zn2_6 1_555 1_555
O3_9 C1_9 1_555 1_555
C6_9 C7_9 1_555 1_555
O4_6 C9_9 1_555 1_555
O5_6 C9_9 1_555 1_555
C9_9 C10_9 1_555 1_555
C10_9 C11_9 1_555 1_555
C11_9 H8_9 1_555 1_555
C12_9 C11_9 1_555 1_555
H9_9 C12_9 1_555 1_555
C15_9 C10_9 1_555 1_555
H11_9 C15_9 1_555 1_555
C43_9 N3_9 1_555 1_555
C44_9 C43_9 1_555 1_555
H32_9 C44_9 1_555 1_555
Zn6_6 O5_6 1_555 1_555
Zn10_6 O4_6 1_555 1_555
Zn1_17 O1_17 1_555 1_555
Zn4_6 O1_17 1_555 1_555
O10_9 Zn1_17 1_555 1_555
O11_9 Zn4_6 1_555 1_555
C31_9 O10_9 1_555 1_555
C32_9 C31_9 1_555 1_555
C33_9 C32_9 1_555 1_555
H23_9 C33_9 1_555 1_555
C34_9 C33_9 1_555 1_555
H24_9 C34_9 1_555 1_555
C35_9 C34_9 1_555 1_555
C36_9 C35_9 1_555 1_555
C37_9 C32_9 1_555 1_555
H26_9 C37_9 1_555 1_555
H27_9 C38_9 1_555 1_555
H28_9 C38_9 1_555 1_555
O14_6 Zn4_6 1_555 1_555
O11_9 C31_9 1_555 1_555
C36_9 C37_9 1_555 1_555
N3_10 C35_10 1_555 1_555
O19_6 C39_10 1_555 1_555
H24_10 C34_10 1_555 1_555
C35_10 C34_10 1_555 1_555
C38_10 N3_10 1_555 1_555
H27_10 C38_10 1_555 1_555
H28_10 C38_10 1_555 1_555
H29_10 C38_10 1_555 1_555
C39_10 C40_10 1_555 1_555
C43_10 N3_10 1_555 1_555
C44_10 C43_10 1_555 1_555
H32_10 C44_10 1_555 1_555
C45_10 C40_10 1_555 1_555
H33_10 C45_10 1_555 1_555
C42_10 C43_10 1_555 1_555
C44_10 C45_10 1_555 1_555
Zn1_18 O1_18 1_555 1_555
Zn6_5 O1_18 1_555 1_555
N1_8 C5_10 1_555 1_555
O1_18 Zn8_5 1_555 1_555
O2_10 Zn1_18 1_555 1_555
O3_10 Zn6_5 1_555 1_555
O14_6 C9_10 1_555 1_555
O17_6 C9_10 1_555 1_555
C1_10 O2_10 1_555 1_555
C2_10 C1_10 1_555 1_555
C3_10 C2_10 1_555 1_555
H1_10 C3_10 1_555 1_555
C4_10 C3_10 1_555 1_555
H2_10 C4_10 1_555 1_555
C5_10 C4_10 1_555 1_555
C6_10 C5_10 1_555 1_555
H3_8 C6_10 1_555 1_555
C7_10 C2_10 1_555 1_555
H4_10 C7_10 1_555 1_555
C8_10 N1_8 1_555 1_555
H5_10 C8_10 1_555 1_555
H6_10 C8_10 1_555 1_555
H7_8 C8_10 1_555 1_555
C9_10 C10_10 1_555 1_555
C10_10 C11_10 1_555 1_555
C11_10 H8_10 1_555 1_555
C12_10 C11_10 1_555 1_555
H9_10 C12_10 1_555 1_555
C13_8 N1_8 1_555 1_555
C14_8 C13_8 1_555 1_555
H10_8 C14_8 1_555 1_555
C15_10 C10_10 1_555 1_555
H11_10 C15_10 1_555 1_555
Zn8_5 O7_10 1_555 1_555
O6_10 Zn1_18 1_555 1_555
O7_10 C16_10 1_555 1_555
C16_10 O6_10 1_555 1_555
C17_10 C16_10 1_555 1_555
C18_10 C17_10 1_555 1_555
H14_10 C21_10 1_555 1_555
C22_10 C17_10 1_555 1_555
H15_10 C22_10 1_555 1_555
C26_10 H19_10 1_555 1_555
Zn10_5 O1_18 1_555 1_555
O10_10 Zn1_18 1_555 1_555
O11_10 Zn10_5 1_555 1_555
C31_10 O10_10 1_555 1_555
C32_10 C31_10 1_555 1_555
C33_10 C32_10 1_555 1_555
H25_10 C36_10 1_555 1_555
C37_10 C32_10 1_555 1_555
H26_10 C37_10 1_555 1_555
C41_10 H30_10 1_555 1_555
O3_10 C1_10 1_555 1_555
C6_10 C7_10 1_555 1_555
C12_10 C13_8 1_555 1_555
C14_8 C15_10 1_555 1_555
C21_10 C22_10 1_555 1_555
O11_10 C31_10 1_555 1_555
C36_10 C37_10 1_555 1_555
Zn1_19 O1_19 1_555 1_555
O14_5 C9_11 1_555 1_555
O17_5 C9_11 1_555 1_555
C9_11 C10_11 1_555 1_555
C10_11 C11_11 1_555 1_555
C11_11 H8_11 1_555 1_555
C12_11 C11_11 1_555 1_555
H9_11 C12_11 1_555 1_555
C15_11 C10_11 1_555 1_555
H11_11 C15_11 1_555 1_555
Zn10_4 O1_19 1_555 1_555
N3_11 C35_11 1_555 1_555
O10_11 Zn1_19 1_555 1_555
O11_11 Zn10_4 1_555 1_555
C31_11 O10_11 1_555 1_555
C32_11 C31_11 1_555 1_555
C33_11 C32_11 1_555 1_555
H23_11 C33_11 1_555 1_555
C34_11 C33_11 1_555 1_555
H24_11 C34_11 1_555 1_555
C35_11 C34_11 1_555 1_555
C36_11 C35_11 1_555 1_555
H25_11 C36_11 1_555 1_555
C37_11 C32_11 1_555 1_555
H26_11 C37_11 1_555 1_555
C38_11 N3_11 1_555 1_555
H27_11 C38_11 1_555 1_555
H28_11 C38_11 1_555 1_555
H29_11 C38_11 1_555 1_555
C43_11 N3_11 1_555 1_555
C44_11 C43_11 1_555 1_555
H32_11 C44_11 1_555 1_555
O11_11 C31_11 1_555 1_555
C36_11 C37_11 1_555 1_555
Zn1_20 O1_20 1_555 1_555
O16_5 C39_11 1_555 1_555
O19_5 C39_11 1_555 1_555
C39_11 C40_11 1_555 1_555
C40_11 C41_11 1_555 1_555
C41_11 H30_11 1_555 1_555
C42_11 C41_11 1_555 1_555
H31_11 C42_11 1_555 1_555
C45_11 C40_11 1_555 1_555
H33_11 C45_11 1_555 1_555
Zn1_21 O1_21 1_555 1_555
Zn6_4 O1_21 1_555 1_555
N1_9 C5_11 1_555 1_555
O2_11 Zn1_21 1_555 1_555
O3_11 Zn6_4 1_555 1_555
C1_11 O2_11 1_555 1_555
C2_11 C1_11 1_555 1_555
C3_11 C2_11 1_555 1_555
H1_11 C3_11 1_555 1_555
C4_11 C3_11 1_555 1_555
H2_11 C4_11 1_555 1_555
C5_11 C4_11 1_555 1_555
C6_11 C5_11 1_555 1_555
H3_9 C6_11 1_555 1_555
C7_11 C2_11 1_555 1_555
H4_11 C7_11 1_555 1_555
C8_11 N1_9 1_555 1_555
H5_11 C8_11 1_555 1_555
H6_11 C8_11 1_555 1_555
H7_9 C8_11 1_555 1_555
C13_9 N1_9 1_555 1_555
C14_9 C13_9 1_555 1_555
H10_9 C14_9 1_555 1_555
O3_11 C1_11 1_555 1_555
C6_11 C7_11 1_555 1_555
Zn1_22 O1_22 1_555 1_555
O1_22 Zn8_4 1_555 1_555
Zn8_4 O7_11 1_555 1_555
N2_10 C20_10 1_555 1_555
O6_11 Zn1_22 1_555 1_555
O7_11 C16_11 1_555 1_555
O15_5 C24_10 1_555 1_555
O18_5 C24_10 1_555 1_555
C16_11 O6_11 1_555 1_555
C17_11 C16_11 1_555 1_555
C18_11 C17_11 1_555 1_555
H12_10 C18_11 1_555 1_555
C19_10 C18_11 1_555 1_555
H13_10 C19_10 1_555 1_555
C20_10 C19_10 1_555 1_555
C21_11 C20_10 1_555 1_555
H14_11 C21_11 1_555 1_555
C22_11 C17_11 1_555 1_555
H15_11 C22_11 1_555 1_555
C23_10 N2_10 1_555 1_555
H16_10 C23_10 1_555 1_555
H17_10 C23_10 1_555 1_555
H18_10 C23_10 1_555 1_555
C24_10 C25_10 1_555 1_555
C25_10 C26_11 1_555 1_555
C26_11 H19_11 1_555 1_555
C27_10 C26_11 1_555 1_555
H20_11 C27_10 1_555 1_555
C28_10 N2_10 1_555 1_555
C29_10 C28_10 1_555 1_555
H21_10 C29_10 1_555 1_555
C30_10 C25_10 1_555 1_555
H22_10 C30_10 1_555 1_555
C21_11 C22_11 1_555 1_555
C27_10 C28_10 1_555 1_555
C29_10 C30_10 1_555 1_555
O14_4 C9_12 1_555 1_555
O17_4 C9_12 1_555 1_555
C8_12 N1_10 1_555 1_555
H5_12 C8_12 1_555 1_555
C9_12 C10_12 1_555 1_555
C10_12 C11_12 1_555 1_555
C11_12 H8_12 1_555 1_555
C12_12 C11_12 1_555 1_555
H9_12 C12_12 1_555 1_555
C13_10 N1_10 1_555 1_555
C14_10 C13_10 1_555 1_555
H10_10 C14_10 1_555 1_555
C15_12 C10_12 1_555 1_555
H11_12 C15_12 1_555 1_555
C12_12 C13_10 1_555 1_555
C14_10 C15_12 1_555 1_555
Zn1_23 O1_23 1_555 1_555
Zn6_6 O1_23 1_555 1_555
O1_23 Zn8_6 1_555 1_555
O2_12 Zn1_23 1_555 1_555
O3_12 Zn6_6 1_555 1_555
C1_12 O2_12 1_555 1_555
C2_12 C1_12 1_555 1_555
C3_12 C2_12 1_555 1_555
H1_12 C3_12 1_555 1_555
C4_12 C3_12 1_555 1_555
H2_12 C4_12 1_555 1_555
C5_12 C4_12 1_555 1_555
C6_12 C5_12 1_555 1_555
H3_10 C6_12 1_555 1_555
C7_12 C2_12 1_555 1_555
H4_12 C7_12 1_555 1_555
Zn8_6 O7_12 1_555 1_555
O6_12 Zn1_23 1_555 1_555
O7_12 C16_12 1_555 1_555
C16_12 O6_12 1_555 1_555
C17_12 C16_12 1_555 1_555
C18_12 C17_12 1_555 1_555
H12_11 C18_12 1_555 1_555
C19_11 C18_12 1_555 1_555
H13_11 C19_11 1_555 1_555
C20_11 C19_11 1_555 1_555
C21_12 C20_11 1_555 1_555
H14_12 C21_12 1_555 1_555
C22_12 C17_12 1_555 1_555
H15_12 C22_12 1_555 1_555
Zn10_6 O1_23 1_555 1_555
N3_12 C35_12 1_555 1_555
O10_12 Zn1_23 1_555 1_555
O11_12 Zn10_6 1_555 1_555
O16_4 C39_12 1_555 1_555
O19_4 C39_12 1_555 1_555
C31_12 O10_12 1_555 1_555
C32_12 C31_12 1_555 1_555
C33_12 C32_12 1_555 1_555
H23_12 C33_12 1_555 1_555
C34_12 C33_12 1_555 1_555
H24_12 C34_12 1_555 1_555
C35_12 C34_12 1_555 1_555
C36_12 C35_12 1_555 1_555
H25_12 C36_12 1_555 1_555
C37_12 C32_12 1_555 1_555
H26_12 C37_12 1_555 1_555
C38_12 N3_12 1_555 1_555
H27_12 C38_12 1_555 1_555
H28_12 C38_12 1_555 1_555
H29_12 C38_12 1_555 1_555
C39_12 C40_12 1_555 1_555
C40_12 C41_12 1_555 1_555
C41_12 H30_12 1_555 1_555
C42_12 C41_12 1_555 1_555
H31_12 C42_12 1_555 1_555
C43_12 N3_12 1_555 1_555
C44_12 C43_12 1_555 1_555
H32_12 C44_12 1_555 1_555
C45_12 C40_12 1_555 1_555
H33_12 C45_12 1_555 1_555
O3_12 C1_12 1_555 1_555
C6_12 C7_12 1_555 1_555
C21_12 C22_12 1_555 1_555
O11_12 C31_12 1_555 1_555
C36_12 C37_12 1_555 1_555
C42_12 C43_12 1_555 1_555
C44_12 C45_12 1_555 1_555
O15_4 C24_11 1_555 1_555
O18_4 C24_11 1_555 1_555
C23_11 N2_11 1_555 1_555
H16_11 C23_11 1_555 1_555
C24_11 C25_11 1_555 1_555
C25_11 C26_12 1_555 1_555
C26_12 H19_12 1_555 1_555
C27_11 C26_12 1_555 1_555
H20_12 C27_11 1_555 1_555
C28_11 N2_11 1_555 1_555
C29_11 C28_11 1_555 1_555
H21_11 C29_11 1_555 1_555
C30_11 C25_11 1_555 1_555
H22_11 C30_11 1_555 1_555
C27_11 C28_11 1_555 1_555
C29_11 C30_11 1_555 1_555
Zn1_24 O1_24 1_555 1_555
N2_12 C20_12 1_555 1_555
O18_6 C24_12 1_555 1_555
H13_12 C19_12 1_555 1_555
C20_12 C19_12 1_555 1_555
C23_12 N2_12 1_555 1_555
H16_12 C23_12 1_555 1_555
H17_12 C23_12 1_555 1_555
H18_12 C23_12 1_555 1_555
C24_12 C25_12 1_555 1_555
C28_12 N2_12 1_555 1_555
C29_12 C28_12 1_555 1_555
H21_12 C29_12 1_555 1_555
C30_12 C25_12 1_555 1_555
H22_12 C30_12 1_555 1_555
C27_12 C28_12 1_555 1_555
C29_12 C30_12 1_555 1_555
C13_11 N1_11 1_555 1_555
C14_11 C13_11 1_555 1_555
H10_11 C14_11 1_555 1_555
C13_12 N1_12 1_555 1_555
C14_12 C13_12 1_555 1_555
H10_12 C14_12 1_555 1_555

#END
