
###############################################################################
#
# This file contains modified crystal structure data generated from the
# MOF subset of the Cambridge Structural Database (CSD) v543 
# hosted by the Cambridge Crystallographic Data Centre (CCDC).
#
# This work is licensed under the Creative Commons
# Attribution-NonCommercial-ShareAlike 4.0 International License.
# To view a copy of this license, visit
# http://creativecommons.org/licenses/by-nc-sa/4.0/
# or send a letter to
# Creative Commons, PO Box 1866, Mountain View, CA 94042, USA.
#
# CIF created using the CSD Python API on 29 September 2022
# The structure has been converted into the P1 space group
# The structure has a 3D framework
# The original CSD entry JUJTAL is in the triclinic crystal system
# The framework has been calculated to contain at least 10.0% void space
# The void calculation uses a probe of radius 1.32A, grid spacing 0.4
#
###############################################################################

data_JUJTAL
_chemical_formula_moiety         '(C84 H58 Co6 N12 O19)n'
_symmetry_cell_setting           triclinic
_symmetry_space_group_name_H-M   'P 1'
_symmetry_Int_Tables_number      1
_space_group_name_Hall           'P 1'
loop_
_symmetry_equiv_pos_site_id
_symmetry_equiv_pos_as_xyz
1 x,y,z
_cell_length_a                   10.0345(11)
_cell_length_b                   15.2852(17)
_cell_length_c                   18.421(2)
_cell_angle_alpha                67.732(2)
_cell_angle_beta                 87.024(2)
_cell_angle_gamma                77.361(2)
_cell_volume                     2549.82
loop_
_atom_site_label
_atom_site_type_symbol
_atom_site_fract_x
_atom_site_fract_y
_atom_site_fract_z
H21 H 0.0012 0.3492 0.0598
Co7 Co 0.13828(4) 0.01960(3) 0.56713(2)
O23 O 0.0409(2) 0.98044(18) 0.37666(14)
Co9 Co 0.5000 -0.0000 0.0000
Co9_2 Co 0.5000 -0.0000 1.0000
H2 H 0.7435 0.0029 0.0293
H27 H 0.5745 0.3086 0.0208
C41 C 0.5460(5) 0.1893(3) 0.0078(2)
H28 H 0.5602 0.1499 0.0614
O1 O 0.5396(2) 0.00079(18) 0.88880(13)
O3 O 0.2545(2) 0.01434(19) 0.66944(14)
O4 O 0.9591(2) 0.01956(18) 0.62334(14)
O5 O 0.3545(2) 0.0084(2) 0.56305(14)
O7 O 0.6067(3) 0.4766(2) 0.76039(17)
N2 N 0.8260(3) 0.1360(2) 0.38262(17)
O8 O 0.6672(3) 0.4431(2) 0.14981(18)
N3 N 0.4982(4) 0.3564(2) 0.77143(17)
H3 H 0.4507 0.3368 0.7448
N4 N 0.5177(3) 0.1507(2) 0.95772(17)
N6 N 0.8446(3) 0.3137(2) 0.18551(18)
H6 H 0.9153 0.2826 0.1692
C5 C 0.4406(4) 0.4868(3) 0.5202(2)
C9 C 0.4386(4) 0.4612(3) 0.6028(2)
H8 H 0.3611 0.4428 0.6300
C10 C 0.5472(4) 0.4630(3) 0.6431(2)
C12 C 0.5527(4) 0.4346(3) 0.7306(2)
C13 C 0.8063(4) 0.4216(3) 0.0477(2)
C14 C 0.3612(3) 0.0075(3) 0.63093(19)
H10 H 0.6169 0.5072 0.0097
H11 H 0.4293 0.0002 0.7709
C19 C 0.8484(4) 0.1792(3) 0.3065(2)
H13 H 0.8882 0.1398 0.2790
C22 C 0.6694(4) 0.5164(3) 0.5232(2)
H15 H 0.7478 0.5347 0.4971
C23 C 0.7725(4) 0.1934(3) 0.4216(2)
H16 H 0.7566 0.1647 0.4753
C24 C 0.5023(4) 0.2084(3) 0.8818(2)
H17 H 0.4836 0.1822 0.8458
C26 C 0.5124(4) 0.3048(3) 0.8530(2)
C27 C 0.8169(4) 0.2777(3) 0.2658(2)
C29 C 0.7664(4) 0.3947(3) 0.1319(2)
C30 C 0.6635(4) 0.4935(3) 0.6017(2)
H18 H 0.7366 0.4978 0.6292
C32 C 0.7614(4) 0.3364(3) 0.3064(2)
H19 H 0.7389 0.4041 0.2809
C33 C 0.5354(5) 0.3444(3) 0.9059(2)
H20 H 0.5378 0.4102 0.8894
C34 C 0.9319(4) 0.3911(3) 0.0226(2)
C37 C 0.7402(5) 0.2922(3) 0.3856(2)
H24 H 0.7035 0.3301 0.4148
C40 C 0.5549(6) 0.2842(3) 0.9836(3)
O11 O 0.3933(3) 0.5234(2) 0.23961(17)
N7 N 0.5018(4) 0.6436(2) 0.22857(17)
H30 H 0.5493 0.6632 0.2552
N8 N 0.4823(3) 0.8493(2) 0.04228(17)
C43 C 0.5594(4) 0.5132(3) 0.4798(2)
C44 C 0.5614(4) 0.5388(3) 0.3972(2)
H31 H 0.6389 0.5572 0.3700
C45 C 0.4528(4) 0.5370(3) 0.3569(2)
C46 C 0.4473(4) 0.5654(3) 0.2694(2)
C47 C 0.3306(4) 0.4836(3) 0.4768(2)
H32 H 0.2522 0.4653 0.5029
C48 C 0.4977(4) 0.7916(3) 0.1182(2)
H33 H 0.5164 0.8178 0.1542
C49 C 0.4876(4) 0.6952(3) 0.1470(2)
C50 C 0.3365(4) 0.5065(3) 0.3983(2)
H34 H 0.2634 0.5022 0.3708
C51 C 0.4646(5) 0.6556(3) 0.0941(2)
H35 H 0.4622 0.5898 0.1106
C52 C 0.4451(6) 0.7158(3) 0.0164(3)
O13 O 0.1360(2) 0.03152(19) 0.45478(13)
C54 C 0.3858(3) 0.0082(2) 0.37782(18)
H38 H 0.3920 0.0090 0.4283
O19 O 0.2417(3) 0.0744(3) 0.10284(17)
C55 C 0.2595(3) 0.0122(2) 0.34695(19)
C56 C 0.2495(4) 0.0184(3) 0.2705(2)
H41 H 0.1639 0.0234 0.2491
C57 C 0.5025(3) 0.0029(2) 0.33417(19)
C58 C 0.1363(3) 0.0082(2) 0.39679(18)
C60 C 0.3642(4) 0.0174(3) 0.2249(2)
C66 C 0.4917(4) 0.0058(3) 0.2581(2)
C70 C 0.3535(4) 0.0304(3) 0.1402(2)
O20 O 0.2898(3) 0.0455(2) 0.96919(16)
H57 H 0.2769 0.0892 0.9220
Co9_3 Co 0.5000 1.0000 0.0000
N14 N 0.0816(3) 0.1758(2) 0.52898(16)
N1 N 0.9184(3) 0.8242(2) 0.47102(16)
N5 N 0.9574(3) 0.6118(2) 0.65204(18)
H5 H 0.9019 0.6398 0.6785
C7 C 0.8528(4) 0.4830(3) 0.8869(2)
C11 C 0.9186(4) 0.7642(3) 0.5462(2)
H9 H 0.8872 0.7912 0.5837
C15 C 0.7026(4) 0.4846(3) 0.9925(2)
C16 C 0.9624(4) 0.6652(3) 0.5717(2)
C18 C 0.7251(4) 0.5130(3) 0.9146(2)
H12 H 0.6537 0.5535 0.8784
C20 C 0.8790(4) 0.5137(3) 0.8061(2)
H14 H 0.8083 0.5544 0.7695
C25 C 0.9595(4) 0.4211(3) 0.9421(2)
C35 C 0.9622(4) 0.7848(3) 0.4182(2)
H22 H 0.9636 0.8257 0.3652
H36 H 0.4255 0.6914 0.9792
C53 C 0.4540(5) 0.8107(3) 0.9922(2)
H37 H 0.4398 0.8501 0.9386
Co5 Co 0.86172(4) 0.98040(3) 0.43287(2)
Co9_4 Co 0.5000 1.0000 1.0000
O6 O 0.7102(3) 0.9545(2) 0.03081(16)
H1 H 0.7231 0.9108 0.0780
N11 N 0.0426(3) 0.3882(2) 0.34796(18)
H39 H 0.0981 0.3602 0.3215
C59 C 0.1472(4) 0.5170(3) 0.1131(2)
C61 C 0.0814(4) 0.2358(3) 0.4538(2)
H42 H 0.1128 0.2088 0.4163
C64 C 0.2974(4) 0.5154(3) 0.0075(2)
C65 C 0.0376(4) 0.3348(3) 0.4283(2)
C67 C 0.2749(4) 0.4870(3) 0.0854(2)
H45 H 0.3463 0.4465 0.1216
C69 C 0.1210(4) 0.4863(3) 0.1939(2)
H47 H 0.1917 0.4456 0.2305
C72 C 0.0405(4) 0.5789(3) 0.0579(2)
C79 C 0.0378(4) 0.2152(3) 0.5818(2)
H51 H 0.0364 0.1743 0.6348
O21 O 0.4604(2) 0.99921(18) 0.11120(13)
O2 O 0.8640(2) 0.96848(19) 0.54522(13)
C1 C 0.6142(3) 0.9918(2) 0.62218(18)
H4 H 0.6080 0.9910 0.5717
O10 O 0.7583(3) 0.9256(3) 0.89716(17)
C2 C 0.7405(3) 0.9878(2) 0.65305(19)
C3 C 0.7505(4) 0.9816(3) 0.7295(2)
H7 H 0.8361 0.9766 0.7509
C4 C 0.4975(3) 0.9971(2) 0.66583(19)
C6 C 0.8637(3) 0.9918(2) 0.60321(18)
C8 C 0.6358(4) 0.9826(3) 0.7751(2)
C17 C 0.5083(4) 0.9942(3) 0.7419(2)
C21 C 0.6465(4) 0.9696(3) 0.8598(2)
O14 O 0.7455(2) 0.98566(19) 0.33056(14)
O16 O 0.6455(2) 0.9916(2) 0.43695(14)
N10 N 0.1740(3) 0.8640(2) 0.61738(17)
O17 O 0.3328(3) 0.5569(2) 0.85019(18)
N12 N 0.1554(3) 0.6863(2) 0.81449(18)
H40 H 0.0847 0.7174 0.8308
C62 C 0.1937(4) 0.5784(3) 0.9523(2)
C63 C 0.6388(3) 0.9925(3) 0.36907(19)
H43 H 0.3831 0.4928 0.9903
H44 H 0.5707 0.9998 0.2291
C68 C 0.1516(4) 0.8208(3) 0.6935(2)
H46 H 0.1118 0.8602 0.7210
C71 C 0.2275(4) 0.8066(3) 0.5784(2)
H48 H 0.2434 0.8353 0.5247
C73 C 0.1831(4) 0.7223(3) 0.7342(2)
C75 C 0.2336(4) 0.6053(3) 0.8681(2)
C77 C 0.2386(4) 0.6636(3) 0.6936(2)
H49 H 0.2611 0.5959 0.7191
C78 C 0.0681(4) 0.6089(3) 0.9774(2)
C81 C 0.2598(5) 0.7078(3) 0.6144(2)
H53 H 0.2965 0.6699 0.5852
H58 H 0.2565 0.9971 0.9707
H50 H 0.9988 0.6508 0.9402
O9 O 0.1092(4) 0.4718(2) 0.66367(18)
C28 C 0.0037(4) 0.4860(3) 0.7799(2)
C31 C 0.0297(5) 0.5206(3) 0.6938(3)
C36 C 0.0050(5) 0.6246(3) 0.5160(3)
H23 H 0.0326 0.5572 0.5307
C38 C 0.0053(5) 0.6865(3) 0.4385(2)
H25 H 0.0349 0.6614 0.3997
C39 C 0.1091(4) 0.4228(3) 0.8349(3)
H26 H 0.1950 0.4018 0.8171
C42 C 0.0878(4) 0.3923(3) 0.9129(3)
H29 H 0.1597 0.3510 0.9484
O18 O 0.8908(4) 0.5282(2) 0.33633(18)
C74 C 0.9963(4) 0.5140(3) 0.2201(2)
C76 C 0.9703(5) 0.4794(3) 0.3062(3)
C80 C 0.9950(5) 0.3754(3) 0.4840(3)
H52 H 0.9674 0.4428 0.4693
C82 C 0.9947(5) 0.3135(3) 0.5615(2)
H54 H 0.9651 0.3386 0.6003
C83 C 0.8909(4) 0.5772(3) 0.1651(3)
H55 H 0.8050 0.5982 0.1829
C84 C 0.9122(4) 0.6077(3) 0.0871(3)
H56 H 0.8403 0.6490 0.0516
loop_
_geom_bond_atom_site_label_1
_geom_bond_atom_site_label_2
_geom_bond_site_symmetry_1
_geom_bond_site_symmetry_2
H28 C41 1_555 1_555
Co9_2 O1 1_555 1_555
O3 C14 1_555 1_555
O5 C14 1_555 1_555
O7 C12 1_555 1_555
O8 C29 1_555 1_555
N3 H3 1_555 1_555
N4 Co9_2 1_555 1_555
N6 H6 1_555 1_555
C5 C9 1_555 1_555
C9 H8 1_555 1_555
C10 C9 1_555 1_555
C12 N3 1_555 1_555
C19 N2 1_555 1_555
H13 C19 1_555 1_555
C22 H15 1_555 1_555
C23 N2 1_555 1_555
H16 C23 1_555 1_555
C24 N4 1_555 1_555
H17 C24 1_555 1_555
C26 N3 1_555 1_555
C27 N6 1_555 1_555
C29 N6 1_555 1_555
C30 C10 1_555 1_555
H18 C30 1_555 1_555
C32 C27 1_555 1_555
H19 C32 1_555 1_555
C33 C26 1_555 1_555
H20 C33 1_555 1_555
C34 C13 1_555 1_555
C37 C23 1_555 1_555
H24 C37 1_555 1_555
C40 C33 1_555 1_555
O11 C46 1_555 1_555
N7 H30 1_555 1_555
N8 C48 1_555 1_555
C43 C5 1_555 1_555
C44 C43 1_555 1_555
H31 C44 1_555 1_555
C45 C44 1_555 1_555
C46 N7 1_555 1_555
C47 C5 1_555 1_555
H32 C47 1_555 1_555
C48 H33 1_555 1_555
C49 N7 1_555 1_555
C50 C45 1_555 1_555
H34 C50 1_555 1_555
C51 C49 1_555 1_555
H35 C51 1_555 1_555
C52 C51 1_555 1_555
Co7 O3 1_555 1_555
O13 Co7 1_555 1_555
C54 H38 1_555 1_555
O19 C70 1_555 1_555
C55 C54 1_555 1_555
C56 C55 1_555 1_555
H41 C56 1_555 1_555
C57 C54 1_555 1_555
C58 O13 1_555 1_555
C60 C56 1_555 1_555
C66 C57 1_555 1_555
C70 C60 1_555 1_555
O20 Co9_2 1_555 1_555
H57 O20 1_555 1_555
Co9_3 N8 1_555 1_555
N14 Co7 1_555 1_555
O5 Co7 1_555 1_555
C10 C12 1_555 1_555
C13 C29 1_555 1_555
C19 C27 1_555 1_555
C22 C30 1_555 1_555
C22 C43 1_555 1_555
C24 C26 1_555 1_555
C32 C37 1_555 1_555
C45 C46 1_555 1_555
C47 C50 1_555 1_555
C48 C49 1_555 1_555
C55 C58 1_555 1_555
C60 C66 1_555 1_555
N1 C11 1_555 1_555
N5 H5 1_555 1_555
C7 C18 1_555 1_555
C11 H9 1_555 1_555
C16 N5 1_555 1_555
C18 C15 1_555 1_555
H12 C18 1_555 1_555
C20 C7 1_555 1_555
H14 C20 1_555 1_555
C25 C7 1_555 1_555
C35 N1 1_555 1_555
H22 C35 1_555 1_555
H37 C53 1_555 1_555
Co5 N1 1_555 1_555
C11 C16 1_555 1_555
O6 Co9_3 1_555 1_555
H1 O6 1_555 1_555
N14 C61 1_555 1_555
N11 H39 1_555 1_555
C59 C67 1_555 1_555
C61 H42 1_555 1_555
C65 N11 1_555 1_555
C67 C64 1_555 1_555
H45 C67 1_555 1_555
C69 C59 1_555 1_555
H47 C69 1_555 1_555
C72 C59 1_555 1_555
C79 N14 1_555 1_555
H51 C79 1_555 1_555
O21 Co9_3 1_555 1_555
C61 C65 1_555 1_555
Co5 O2 1_555 1_555
O2 C6 1_555 1_555
C1 H4 1_555 1_555
O10 C21 1_555 1_555
C2 C1 1_555 1_555
C3 C2 1_555 1_555
H7 C3 1_555 1_555
C4 C1 1_555 1_555
C6 C2 1_555 1_555
C8 C3 1_555 1_555
C17 C4 1_555 1_555
C21 C8 1_555 1_555
O14 Co5 1_555 1_555
O16 Co5 1_555 1_555
O17 C75 1_555 1_555
N12 H40 1_555 1_555
C63 O14 1_555 1_555
C68 N10 1_555 1_555
H46 C68 1_555 1_555
C71 N10 1_555 1_555
H48 C71 1_555 1_555
C73 N12 1_555 1_555
C75 N12 1_555 1_555
C77 C73 1_555 1_555
H49 C77 1_555 1_555
C78 C62 1_555 1_555
C81 C71 1_555 1_555
H53 C81 1_555 1_555
C8 C17 1_555 1_555
O16 C63 1_555 1_555
C62 C75 1_555 1_555
C68 C73 1_555 1_555
C77 C81 1_555 1_555
O9 C31 1_555 1_555
H23 C36 1_555 1_555
H25 C38 1_555 1_555
C39 C28 1_555 1_555
H26 C39 1_555 1_555
H29 C42 1_555 1_555
C28 C31 1_555 1_555
C36 C38 1_555 1_555
C39 C42 1_555 1_555
O18 C76 1_555 1_555
H52 C80 1_555 1_555
H54 C82 1_555 1_555
C83 C74 1_555 1_555
H55 C83 1_555 1_555
H56 C84 1_555 1_555
C74 C76 1_555 1_555
C80 C82 1_555 1_555
C83 C84 1_555 1_555

#END
