
###############################################################################
#
# This file contains modified crystal structure data generated from the
# MOF subset of the Cambridge Structural Database (CSD) v543 
# hosted by the Cambridge Crystallographic Data Centre (CCDC).
#
# This work is licensed under the Creative Commons
# Attribution-NonCommercial-ShareAlike 4.0 International License.
# To view a copy of this license, visit
# http://creativecommons.org/licenses/by-nc-sa/4.0/
# or send a letter to
# Creative Commons, PO Box 1866, Mountain View, CA 94042, USA.
#
# CIF created using the CSD Python API on 29 September 2022
# The structure has been converted into the P1 space group
# The structure has a 3D framework
# The original CSD entry JUJZEV is in the monoclinic crystal system
# The framework has been calculated to contain at least 10.0% void space
# The void calculation uses a probe of radius 1.32A, grid spacing 0.4
#
###############################################################################

data_JUJZEV
_chemical_formula_moiety         '(C92 H80 Co9 N16 O44 P4)n'
_symmetry_cell_setting           triclinic
_symmetry_space_group_name_H-M   'P 1'
_symmetry_Int_Tables_number      1
_space_group_name_Hall           'P 1'
loop_
_symmetry_equiv_pos_site_id
_symmetry_equiv_pos_as_xyz
1 x,y,z
_cell_length_a                   10.1032(8)
_cell_length_b                   9.2299(7)
_cell_length_c                   31.773(3)
_cell_angle_alpha                90
_cell_angle_beta                 107.486(2)
_cell_angle_gamma                90
_cell_volume                     2825.97
loop_
_atom_site_label
_atom_site_type_symbol
_atom_site_fract_x
_atom_site_fract_y
_atom_site_fract_z
Co13 Co 0.11460(16) 0.01311(12) 0.62488(5)
C8 C 0.0080(9) 0.7261(9) 0.5812(3)
O4 O 0.0149(7) 0.0884(6) 0.5604(2)
O6 O 0.0406(7) 0.7461(6) 0.5462(2)
O7 O 0.0135(7) 0.8177(6) 0.61081(19)
Co8 Co 0.09958(12) 0.09649(12) 0.71953(3)
Co16 Co 0.13184(11) 0.92954(12) 0.52967(3)
O34 O 0.2176(7) 0.2067(6) 0.6406(2)
O30 O 0.2595(7) 0.9562(6) 0.5943(2)
O31 O 0.2164(7) 0.9389(6) 0.68950(19)
Co2 Co 0.67981(11) 0.15545(12) 0.09389(4)
C30 C 0.7256(10) 0.2214(11) 0.0084(3)
H16 H 0.7639 0.1279 0.0074
C32 C 0.6266(11) 0.4041(10) 0.0288(3)
H18 H 0.5818 0.4634 0.0448
N3 N 0.6668(8) 0.2657(8) 0.0390(2)
O28 O 0.7841(7) 0.2486(6) 0.1487(2)
O29 O 0.4888(7) 0.1370(6) 0.0919(2)
Co4 Co 0.54788(11) 0.17972(12) 0.65698(4)
P1 P 0.8289(2) 0.1315(2) 0.62781(7)
C1 C 0.8712(9) 0.3015(9) 0.6074(3)
C2 C 0.9253(10) 0.3232(9) 0.5720(3)
C3 C 0.9627(9) 0.4631(9) 0.5631(3)
H1 H 0.9938 0.4783 0.5381
C4 C 0.9560(10) 0.5802(9) 0.5896(3)
C5 C 0.9056(9) 0.5584(9) 0.6253(3)
C6 C 0.8618(9) 0.4225(9) 0.6332(3)
H2 H 0.8239 0.4101 0.6569
C7 C 0.9467(10) 0.2009(9) 0.5430(3)
C9 C 0.8948(10) 0.6719(9) 0.6589(3)
C19 C 0.5079(9) 0.2979(10) 0.7411(3)
H5 H 0.4677 0.2126 0.7487
C20 C 0.6123(10) 0.4492(9) 0.7105(3)
H6 H 0.6597 0.4877 0.6914
C21 C 0.5840(9) 0.5227(10) 0.7429(3)
H7 H 0.6056 0.6211 0.7508
C22 C 0.4593(10) 0.4604(12) 0.7988(3)
H8 H 0.4077 0.3755 0.8047
H9 H 0.3934 0.5423 0.7901
C23 C 0.5733(10) 0.4998(10) 0.8402(3)
C24 C 0.6265(14) 0.3976(9) 0.8722(4)
H10 H 0.5888 0.3025 0.8689
C25 C 0.7352(10) 0.4325(11) 0.9095(3)
C26 C 0.7886(10) 0.5699(11) 0.9148(3)
H11 H 0.8633 0.5936 0.9402
C27 C 0.7336(11) 0.6739(11) 0.8833(3)
H12 H 0.7706 0.7693 0.8873
C28 C 0.6257(11) 0.6418(11) 0.8458(3)
H13 H 0.5878 0.7143 0.8244
C29 C 0.7926(10) 0.3215(12) 0.9453(3)
H14 H 0.7804 0.2233 0.9322
H15 H 0.8932 0.3384 0.9589
C31 C 0.6599(10) 0.4458(11) 0.9922(3)
H17 H 0.6430 0.5379 0.9783
N1 N 0.5623(8) 0.3080(8) 0.7089(3)
N2 N 0.5170(8) 0.4263(9) 0.7623(2)
N4 N 0.7223(8) 0.3299(9) 0.9792(2)
O1 O 0.7569(7) 0.0363(6) 0.5883(2)
O2 O 0.7395(7) 0.1611(6) 0.65723(19)
O3 O 0.9685(6) 0.0699(6) 0.65512(19)
O5 O 0.9029(7) 0.2202(7) 0.5017(2)
O8 O 0.7841(7) 0.7514(6) 0.6487(2)
O9 O 0.9813(7) 0.6691(6) 0.6957(2)
O20 O 0.2374(8) 0.1022(7) 0.5112(2)
H35 H 0.2412 0.1888 0.5205
H36 H 0.3171 0.0628 0.5192
H37 H 0.0205 0.1473 0.2239
H40 H 0.2932 0.0237 0.2758
Co10 Co 0.67981(11) 0.84455(12) 0.59389(4)
O32 O 0.2164(7) 0.0611(6) 0.18950(19)
O35 O 0.4441(7) 0.2750(6) 0.6017(2)
O23 O 0.7569(7) 0.9637(6) 0.0883(2)
Co1 Co 0.09958(12) 0.90351(12) 0.21953(3)
P2 P 0.3998(2) 0.8941(2) 0.62170(7)
C10 C 0.3566(9) 0.7236(9) 0.6415(3)
C11 C 0.3025(9) 0.7034(9) 0.6771(3)
C12 C 0.2630(9) 0.5672(8) 0.6864(3)
H3 H 0.2317 0.5542 0.7115
C13 C 0.2679(9) 0.4482(9) 0.6600(3)
C14 C 0.3214(9) 0.4680(9) 0.6241(3)
C15 C 0.3667(9) 0.6040(9) 0.6160(3)
H4 H 0.4056 0.6158 0.5925
C16 C 0.2841(10) 0.8261(8) 0.7069(3)
C17 C 0.2181(9) 0.3013(9) 0.6681(3)
C18 C 0.3353(10) 0.3523(8) 0.5921(3)
C33 C 0.0028(12) 0.6300(10) 0.2578(3)
H19 H 0.0442 0.5689 0.2412
C37 C 0.0747(9) 0.3896(9) 0.3346(3)
C38 C 0.1092(15) 0.4296(9) 0.3779(4)
H24 H 0.0449 0.4849 0.3878
C39 C 0.1686(10) 0.3110(11) 0.3201(3)
H25 H 0.1460 0.2829 0.2900
C40 C 0.2955(10) 0.2731(11) 0.3492(3)
H26 H 0.3598 0.2191 0.3390
C41 C 0.3297(9) 0.3129(10) 0.3929(3)
H27 H 0.4173 0.2862 0.4126
C42 C 0.2375(10) 0.3913(10) 0.4084(3)
C43 C 0.2759(14) 0.4302(10) 0.4565(4)
H28 H 0.2123 0.3792 0.4699
H29 H 0.3711 0.3948 0.4712
C44 C 0.2134(11) 0.6466(10) 0.4940(3)
H30 H 0.1665 0.5944 0.5110
C45 C 0.3297(14) 0.6956(12) 0.4483(4)
H31 H 0.3800 0.6876 0.4275
C46 C 0.3027(13) 0.8175(11) 0.4668(4)
H32 H 0.3301 0.9116 0.4606
N7 N 0.2301(9) 0.7884(8) 0.4959(2)
N8 N 0.2706(10) 0.5838(8) 0.4650(3)
O10 O 0.4888(7) 0.8630(6) 0.5919(2)
O11 O 0.4724(7) 0.9879(6) 0.66119(19)
O14 O 0.3349(8) 0.8088(6) 0.7471(2)
O15 O 0.1803(7) 0.2848(6) 0.70224(19)
O18 O 0.2474(7) 0.3503(6) 0.5550(2)
O22 O 0.2679(8) 0.9359(7) 0.2759(2)
H39 H 0.2700 0.9019 0.3009
O33 O 0.1803(7) 0.7152(6) 0.20224(19)
C34 C 0.9325(14) 0.8183(12) 0.2850(4)
H20 H 0.9155 0.9164 0.2908
C35 C 0.8968(13) 0.7001(12) 0.3054(4)
H21 H 0.8503 0.6999 0.3273
C36 C 0.9387(11) 0.4326(11) 0.3021(4)
H22 H 0.9180 0.3672 0.2762
H23 H 0.8637 0.4217 0.3160
N5 N 0.9972(9) 0.7723(8) 0.2546(3)
N6 N 0.9421(10) 0.5826(9) 0.2875(3)
O19 O 0.9737(7) 0.9755(7) 0.4705(2)
H34 H 0.9882 0.9778 0.4455
O24 O 0.9685(6) 0.9301(6) 0.15512(19)
Co15 Co 0.13184(11) 0.07046(12) 0.02967(3)
O27 O 0.0135(7) 0.1823(6) 0.11081(19)
O30_2 O 0.2595(7) 0.0438(6) 0.0943(2)
Co3 Co 0.11460(16) 0.98689(12) 0.12488(5)
C8_2 C 0.0080(9) 0.2739(9) 0.0812(3)
O4_2 O 0.0149(7) 0.9116(6) 0.0604(2)
O6_2 O 0.0406(7) 0.2539(6) 0.0462(2)
O34_2 O 0.2176(7) 0.7933(6) 0.1406(2)
P2_2 P 0.3998(2) 0.1059(2) 0.12170(7)
C10_2 C 0.3566(9) 0.2764(9) 0.1415(3)
C11_2 C 0.3025(9) 0.2966(9) 0.1771(3)
C12_2 C 0.2630(9) 0.4328(8) 0.1864(3)
H3_2 H 0.2317 0.4458 0.2115
C13_2 C 0.2679(9) 0.5518(9) 0.1600(3)
C14_2 C 0.3214(9) 0.5320(9) 0.1241(3)
C15_2 C 0.3667(9) 0.3960(9) 0.1160(3)
H4_2 H 0.4056 0.3842 0.0925
C16_2 C 0.2841(10) 0.1739(8) 0.2069(3)
C17_2 C 0.2181(9) 0.6987(9) 0.1681(3)
C18_2 C 0.3353(10) 0.6477(8) 0.0921(3)
H30_2 H 0.1665 0.4056 0.0110
O11_2 O 0.4724(7) 0.0121(6) 0.16119(19)
O14_2 O 0.3349(8) 0.1912(6) 0.2471(2)
O17 O 0.4441(7) 0.7250(6) 0.1017(2)
O18_2 O 0.2474(7) 0.6497(6) 0.0550(2)
Co14 Co 0.54788(11) 0.82028(12) 0.15698(4)
C33_2 C 0.0028(12) 0.3700(10) 0.7578(3)
H19_2 H 0.0442 0.4311 0.7412
C37_2 C 0.0747(9) 0.6104(9) 0.8346(3)
C38_2 C 0.1092(15) 0.5704(9) 0.8779(4)
H24_2 H 0.0449 0.5151 0.8878
C39_2 C 0.1686(10) 0.6890(11) 0.8201(3)
H25_2 H 0.1460 0.7171 0.7900
C40_2 C 0.2955(10) 0.7269(11) 0.8492(3)
H26_2 H 0.3598 0.7809 0.8390
C41_2 C 0.3297(9) 0.6871(10) 0.8929(3)
H27_2 H 0.4173 0.7138 0.9126
C42_2 C 0.2375(10) 0.6087(10) 0.9084(3)
C43_2 C 0.2759(14) 0.5698(10) 0.9565(4)
H28_2 H 0.2123 0.6208 0.9699
H29_2 H 0.3711 0.6052 0.9712
C44_2 C 0.2134(11) 0.3534(10) 0.9940(3)
C45_2 C 0.3297(14) 0.3044(12) 0.9483(4)
H31_2 H 0.3800 0.3124 0.9275
C46_2 C 0.3027(13) 0.1825(11) 0.9668(4)
H32_2 H 0.3301 0.0884 0.9606
N7_2 N 0.2301(9) 0.2116(8) 0.9959(2)
N8_2 N 0.2706(10) 0.4162(8) 0.9650(3)
O22_2 O 0.2679(8) 0.0641(7) 0.7759(2)
H39_2 H 0.2700 0.0981 0.8009
P1_2 P 0.8289(2) 0.8685(2) 0.12781(7)
C1_2 C 0.8712(9) 0.6985(9) 0.1074(3)
C2_2 C 0.9253(10) 0.6768(9) 0.0720(3)
C3_2 C 0.9627(9) 0.5369(9) 0.0631(3)
H1_2 H 0.9938 0.5217 0.0381
C4_2 C 0.9560(10) 0.4198(9) 0.0896(3)
C5_2 C 0.9056(9) 0.4416(9) 0.1253(3)
C6_2 C 0.8618(9) 0.5775(9) 0.1332(3)
H2_2 H 0.8239 0.5899 0.1569
C7_2 C 0.9467(10) 0.7991(9) 0.0430(3)
C9_2 C 0.8948(10) 0.3281(9) 0.1589(3)
C19_2 C 0.5079(9) 0.7021(10) 0.2411(3)
H5_2 H 0.4677 0.7874 0.2487
C20_2 C 0.6123(10) 0.5508(9) 0.2105(3)
H6_2 H 0.6597 0.5123 0.1914
C21_2 C 0.5840(9) 0.4773(10) 0.2429(3)
H7_2 H 0.6056 0.3789 0.2508
C22_2 C 0.4593(10) 0.5396(12) 0.2988(3)
H8_2 H 0.4077 0.6245 0.3047
H9_2 H 0.3934 0.4577 0.2901
C23_2 C 0.5733(10) 0.5002(10) 0.3402(3)
C24_2 C 0.6265(14) 0.6024(9) 0.3722(4)
H10_2 H 0.5888 0.6975 0.3689
C25_2 C 0.7352(10) 0.5675(11) 0.4095(3)
C26_2 C 0.7886(10) 0.4301(11) 0.4148(3)
H11_2 H 0.8633 0.4064 0.4402
C27_2 C 0.7336(11) 0.3261(11) 0.3833(3)
H12_2 H 0.7706 0.2307 0.3873
C28_2 C 0.6257(11) 0.3582(11) 0.3458(3)
H13_2 H 0.5878 0.2857 0.3244
C29_2 C 0.7926(10) 0.6785(12) 0.4453(3)
H14_2 H 0.7804 0.7767 0.4322
H15_2 H 0.8932 0.6616 0.4589
C30_2 C 0.7256(10) 0.7786(11) 0.5084(3)
H16_2 H 0.7639 0.8721 0.5074
C31_2 C 0.6599(10) 0.5542(11) 0.4922(3)
H17_2 H 0.6430 0.4621 0.4783
C32_2 C 0.6266(11) 0.5959(10) 0.5288(3)
H18_2 H 0.5818 0.5366 0.5448
N1_2 N 0.5623(8) 0.6920(8) 0.2089(3)
N2_2 N 0.5170(8) 0.5737(9) 0.2623(2)
N3_2 N 0.6668(8) 0.7343(8) 0.5390(2)
N4_2 N 0.7223(8) 0.6701(9) 0.4792(2)
O2_2 O 0.7395(7) 0.8389(6) 0.15723(19)
O5_2 O 0.9029(7) 0.7798(7) 0.0017(2)
O9_2 O 0.9813(7) 0.3309(6) 0.1957(2)
O20_2 O 0.2374(8) 0.8978(7) 0.0112(2)
H35_2 H 0.2412 0.8112 0.0205
H36_2 H 0.3171 0.9372 0.0192
H37_2 H 0.0205 0.8527 0.7239
H40_2 H 0.2932 0.9763 0.7758
C34_2 C 0.9325(14) 0.1817(12) 0.7850(4)
H20_2 H 0.9155 0.0836 0.7908
C35_2 C 0.8968(13) 0.2999(12) 0.8054(4)
H21_2 H 0.8503 0.3001 0.8273
C36_2 C 0.9387(11) 0.5674(11) 0.8021(4)
H22_2 H 0.9180 0.6328 0.7762
H23_2 H 0.8637 0.5783 0.8160
N5_2 N 0.9972(9) 0.2277(8) 0.7546(3)
N6_2 N 0.9421(10) 0.4174(9) 0.7875(3)
O19_2 O 0.9737(7) 0.0245(7) 0.9705(2)
H34_2 H 0.9882 0.0222 0.9455
H33 H 0.9582 0.0610 0.4778
O21 O 0.9921(9) 0.0780(6) 0.2365(2)
H38 H 0.9051 0.0854 0.2321
H33_2 H 0.9582 0.9390 0.9778
O21_2 O 0.9921(9) 0.9220(6) 0.7365(2)
H38_2 H 0.9051 0.9146 0.7321
loop_
_geom_bond_atom_site_label_1
_geom_bond_atom_site_label_2
_geom_bond_site_symmetry_1
_geom_bond_site_symmetry_2
O4 Co13 1_555 1_555
O6 C8 1_555 1_555
O7 C8 1_555 1_555
Co16 O6 1_555 1_555
O34 Co13 1_555 1_555
Co16 O30 1_555 1_555
Co2 N3 1_555 1_555
C30 H16 1_555 1_555
H18 C32 1_555 1_555
N3 C30 1_555 1_555
O28 Co2 1_555 1_555
O29 Co2 1_555 1_555
C32 N3 1_555 1_555
Co4 N1 1_555 1_555
P1 C1 1_555 1_555
C1 C2 1_555 1_555
C2 C3 1_555 1_555
C3 H1 1_555 1_555
C4 C3 1_555 1_555
C5 C4 1_555 1_555
C6 C1 1_555 1_555
H2 C6 1_555 1_555
C7 C2 1_555 1_555
C9 C5 1_555 1_555
C19 H5 1_555 1_555
C20 H6 1_555 1_555
C21 C20 1_555 1_555
H7 C21 1_555 1_555
C22 H8 1_555 1_555
H9 C22 1_555 1_555
C23 C22 1_555 1_555
C24 C23 1_555 1_555
H10 C24 1_555 1_555
C25 C24 1_555 1_555
C26 C25 1_555 1_555
H11 C26 1_555 1_555
C27 C26 1_555 1_555
H12 C27 1_555 1_555
C28 C23 1_555 1_555
H13 C28 1_555 1_555
C29 C25 1_555 1_555
H14 C29 1_555 1_555
H15 C29 1_555 1_555
C31 H17 1_555 1_555
N1 C19 1_555 1_555
N2 C19 1_555 1_555
N4 C29 1_555 1_555
O1 P1 1_555 1_555
O2 Co4 1_555 1_555
O3 P1 1_555 1_555
O5 C7 1_555 1_555
O8 C9 1_555 1_555
O9 C9 1_555 1_555
H35 O20 1_555 1_555
H36 O20 1_555 1_555
Co10 O8 1_555 1_555
O35 Co4 1_555 1_555
P1 O2 1_555 1_555
C5 C6 1_555 1_555
C20 N1 1_555 1_555
C21 N2 1_555 1_555
C22 N2 1_555 1_555
C27 C28 1_555 1_555
C31 N4 1_555 1_555
Co16 N7 1_555 1_555
P2 C10 1_555 1_555
C10 C11 1_555 1_555
C11 C12 1_555 1_555
C12 H3 1_555 1_555
C13 C12 1_555 1_555
C14 C13 1_555 1_555
C15 C10 1_555 1_555
H4 C15 1_555 1_555
C16 C11 1_555 1_555
C17 C13 1_555 1_555
C18 C14 1_555 1_555
C33 H19 1_555 1_555
C38 C37 1_555 1_555
H24 C38 1_555 1_555
C39 C37 1_555 1_555
H25 C39 1_555 1_555
C40 C39 1_555 1_555
H26 C40 1_555 1_555
C41 C40 1_555 1_555
H27 C41 1_555 1_555
C42 C38 1_555 1_555
C43 C42 1_555 1_555
H28 C43 1_555 1_555
H29 C43 1_555 1_555
C44 H30 1_555 1_555
C45 H31 1_555 1_555
C46 C45 1_555 1_555
H32 C46 1_555 1_555
N7 C44 1_555 1_555
N8 C43 1_555 1_555
O10 P2 1_555 1_555
O31 C16 1_555 1_555
O14 C16 1_555 1_555
O15 C17 1_555 1_555
O34 C17 1_555 1_555
O35 C18 1_555 1_555
O18 C18 1_555 1_555
O22 Co1 1_555 1_555
H39 O22 1_555 1_555
Co8 O15 1_555 1_555
O33 Co1 1_555 1_555
P2 O11 1_555 1_555
P2 O30 1_555 1_555
C14 C15 1_555 1_555
C41 C42 1_555 1_555
C44 N8 1_555 1_555
C45 N8 1_555 1_555
C46 N7 1_555 1_555
O10 Co10 1_555 1_555
C34 H20 1_555 1_555
C35 C34 1_555 1_555
H21 C35 1_555 1_555
C36 H22 1_555 1_555
H23 C36 1_555 1_555
H34 O19 1_555 1_555
C34 N5 1_555 1_555
C35 N6 1_555 1_555
C36 N6 1_555 1_555
Co15 O30_2 1_555 1_555
O4_2 Co3 1_555 1_555
O6_2 C8_2 1_555 1_555
O27 C8_2 1_555 1_555
Co15 O6_2 1_555 1_555
O34_2 Co3 1_555 1_555
P2_2 C10_2 1_555 1_555
C10_2 C11_2 1_555 1_555
C11_2 C12_2 1_555 1_555
C12_2 H3_2 1_555 1_555
C13_2 C12_2 1_555 1_555
C14_2 C13_2 1_555 1_555
C15_2 C10_2 1_555 1_555
H4_2 C15_2 1_555 1_555
C16_2 C11_2 1_555 1_555
C17_2 C13_2 1_555 1_555
C18_2 C14_2 1_555 1_555
O29 P2_2 1_555 1_555
O32 C16_2 1_555 1_555
O14_2 C16_2 1_555 1_555
O33 C17_2 1_555 1_555
O34_2 C17_2 1_555 1_555
O17 C18_2 1_555 1_555
O18_2 C18_2 1_555 1_555
Co14 O17 1_555 1_555
P2_2 O11_2 1_555 1_555
P2_2 O30_2 1_555 1_555
C14_2 C15_2 1_555 1_555
C33_2 H19_2 1_555 1_555
C38_2 C37_2 1_555 1_555
H24_2 C38_2 1_555 1_555
C39_2 C37_2 1_555 1_555
H25_2 C39_2 1_555 1_555
C40_2 C39_2 1_555 1_555
H26_2 C40_2 1_555 1_555
C41_2 C40_2 1_555 1_555
H27_2 C41_2 1_555 1_555
C42_2 C38_2 1_555 1_555
C43_2 C42_2 1_555 1_555
H28_2 C43_2 1_555 1_555
H29_2 C43_2 1_555 1_555
C45_2 H31_2 1_555 1_555
C46_2 C45_2 1_555 1_555
H32_2 C46_2 1_555 1_555
N7_2 C44_2 1_555 1_555
N8_2 C43_2 1_555 1_555
O22_2 Co8 1_555 1_555
H39_2 O22_2 1_555 1_555
C41_2 C42_2 1_555 1_555
C44_2 N8_2 1_555 1_555
C45_2 N8_2 1_555 1_555
C46_2 N7_2 1_555 1_555
Co10 N3_2 1_555 1_555
Co14 N1_2 1_555 1_555
P1_2 C1_2 1_555 1_555
C1_2 C2_2 1_555 1_555
C2_2 C3_2 1_555 1_555
C3_2 H1_2 1_555 1_555
C4_2 C3_2 1_555 1_555
C5_2 C4_2 1_555 1_555
C6_2 C1_2 1_555 1_555
H2_2 C6_2 1_555 1_555
C7_2 C2_2 1_555 1_555
C9_2 C5_2 1_555 1_555
C19_2 H5_2 1_555 1_555
C20_2 H6_2 1_555 1_555
C21_2 C20_2 1_555 1_555
H7_2 C21_2 1_555 1_555
C22_2 H8_2 1_555 1_555
H9_2 C22_2 1_555 1_555
C23_2 C22_2 1_555 1_555
C24_2 C23_2 1_555 1_555
H10_2 C24_2 1_555 1_555
C25_2 C24_2 1_555 1_555
C26_2 C25_2 1_555 1_555
H11_2 C26_2 1_555 1_555
C27_2 C26_2 1_555 1_555
H12_2 C27_2 1_555 1_555
C28_2 C23_2 1_555 1_555
H13_2 C28_2 1_555 1_555
C29_2 C25_2 1_555 1_555
H14_2 C29_2 1_555 1_555
H15_2 C29_2 1_555 1_555
C30_2 H16_2 1_555 1_555
C31_2 H17_2 1_555 1_555
C32_2 C31_2 1_555 1_555
H18_2 C32_2 1_555 1_555
N1_2 C19_2 1_555 1_555
N2_2 C19_2 1_555 1_555
N3_2 C30_2 1_555 1_555
N4_2 C29_2 1_555 1_555
O23 P1_2 1_555 1_555
O2_2 Co14 1_555 1_555
O24 P1_2 1_555 1_555
O5_2 C7_2 1_555 1_555
O28 C9_2 1_555 1_555
O9_2 C9_2 1_555 1_555
H35_2 O20_2 1_555 1_555
H36_2 O20_2 1_555 1_555
P1_2 O2_2 1_555 1_555
C5_2 C6_2 1_555 1_555
C20_2 N1_2 1_555 1_555
C21_2 N2_2 1_555 1_555
C22_2 N2_2 1_555 1_555
C27_2 C28_2 1_555 1_555
C30_2 N4_2 1_555 1_555
C31_2 N4_2 1_555 1_555
C32_2 N3_2 1_555 1_555
C34_2 H20_2 1_555 1_555
C35_2 C34_2 1_555 1_555
H21_2 C35_2 1_555 1_555
C36_2 H22_2 1_555 1_555
H23_2 C36_2 1_555 1_555
H34_2 O19_2 1_555 1_555
C34_2 N5_2 1_555 1_555
C35_2 N6_2 1_555 1_555
C36_2 N6_2 1_555 1_555
H38 O21 1_555 1_555
H38_2 O21_2 1_555 1_555

#END
