
###############################################################################
#
# This file contains modified crystal structure data generated from the
# MOF subset of the Cambridge Structural Database (CSD) v543 
# hosted by the Cambridge Crystallographic Data Centre (CCDC).
#
# This work is licensed under the Creative Commons
# Attribution-NonCommercial-ShareAlike 4.0 International License.
# To view a copy of this license, visit
# http://creativecommons.org/licenses/by-nc-sa/4.0/
# or send a letter to
# Creative Commons, PO Box 1866, Mountain View, CA 94042, USA.
#
# CIF created using the CSD Python API on 29 September 2022
# The structure has been converted into the P1 space group
# The structure has a 3D framework
# The original CSD entry JULHEG is in the monoclinic crystal system
# The framework has been calculated to contain at least 10.0% void space
# The void calculation uses a probe of radius 1.32A, grid spacing 0.4
# H atom positions have been added when not included in the experimental data
#
###############################################################################

data_JULHEG
_chemical_formula_moiety         '(C240 H168 N32 O56 Zn10)n'
_symmetry_cell_setting           triclinic
_symmetry_space_group_name_H-M   'P 1'
_symmetry_Int_Tables_number      1
_space_group_name_Hall           'P 1'
loop_
_symmetry_equiv_pos_site_id
_symmetry_equiv_pos_as_xyz
1 x,y,z
_cell_length_a                   23.001(5)
_cell_length_b                   8.1100(16)
_cell_length_c                   39.683(8)
_cell_angle_alpha                90
_cell_angle_beta                 91.61(3)
_cell_angle_gamma                90
_cell_volume                     7399.47
loop_
_atom_site_label
_atom_site_type_symbol
_atom_site_fract_x
_atom_site_fract_y
_atom_site_fract_z
Zn1 Zn 0.06083(2) 0.13895(5) 0.05181(2)
O4 O 0.02680(13) 0.4933(6) 0.44153(7)
O5 O 0.04319(13) 0.6200(7) 0.39330(8)
C41 C 0.00964(18) 0.5707(9) 0.41640(10)
Zn7 Zn 0.12264(2) 0.52507(10) 0.39466(2)
O17 O 0.12973(11) 0.0357(3) 0.02947(6)
O20 O 0.09091(10) 0.1635(3) 0.10012(6)
O21 O 0.12005(10) 0.3709(3) 0.06921(6)
O16 O 0.06630(11) 0.1245(3) 0.99135(7)
Zn2 Zn 0.61301(2) 0.76719(5) 0.20832(2)
O1 O 0.56630(11) 0.3755(3) 0.49135(7)
O2 O 0.62973(11) 0.4643(3) 0.52947(6)
O6 O 0.68676(13) 0.5621(4) 0.24208(6)
O7 O 0.64801(14) 0.8080(4) 0.25246(7)
O8 O 0.53768(12) 0.4932(4) 0.17314(7)
O9 O 0.53544(12) 0.6866(4) 0.21240(8)
O10 O 0.22405(15) 0.4567(5) 0.36642(7)
O11 O 0.13749(15) 0.5460(4) 0.34714(7)
O15 O 0.59195(12) 0.9956(3) 0.19196(7)
N1 N 0.99051(11) 0.2951(3) 0.04813(7)
N3 N 0.80733(11) 0.6071(3) 0.01918(6)
N4 N 0.72465(11) 0.6894(4) 0.04933(7)
N5 N 0.80526(11) 0.5680(3) 0.07857(6)
N6 N 0.65973(12) 0.6977(4) 0.16774(7)
N7 N 0.76533(12) 0.6704(4) 0.39707(7)
N8 N 0.26637(12) 0.5015(4) 0.20727(7)
C1 C 0.12062(13) 0.2937(4) 0.09679(8)
C2 C 0.15776(14) 0.3522(4) 0.12571(8)
C3 C 0.15371(14) 0.2758(4) 0.15730(8)
H5 H 0.1273 0.1906 0.1602
C4 C 0.18923(15) 0.3274(4) 0.18424(8)
H6 H 0.1862 0.2767 0.2051
C5 C 0.22932(14) 0.4541(4) 0.18024(8)
C6 C 0.23266(15) 0.5321(4) 0.14874(8)
H7 H 0.2588 0.6182 0.1459
C7 C 0.19722(15) 0.4811(4) 0.12195(8)
H8 H 0.1998 0.5334 0.1012
C8 C 0.24682(14) 0.4993(4) 0.24079(8)
C9 C 0.19160(15) 0.5537(4) 0.24808(8)
H9 H 0.1666 0.5896 0.2308
C10 C 0.17318(17) 0.5551(4) 0.28115(9)
H10 H 0.1363 0.5940 0.2859
C11 C 0.20965(17) 0.4986(4) 0.30706(8)
C12 C 0.26470(16) 0.4403(4) 0.29991(8)
H11 H 0.2889 0.4004 0.3172
C13 C 0.28380(15) 0.4413(4) 0.26715(8)
H12 H 0.3209 0.4039 0.2625
C14 C 0.19047(19) 0.4991(5) 0.34294(10)
C15 C 0.35693(16) 0.4288(4) 0.17961(8)
H13 H 0.3370 0.3504 0.1667
C16 C 0.32642(14) 0.5270(4) 0.20206(8)
C17 C 0.35603(14) 0.6495(4) 0.21972(8)
H14 H 0.3359 0.7203 0.2337
C18 C 0.41562(15) 0.6668(4) 0.21662(9)
H15 H 0.4354 0.7475 0.2290
C19 C 0.44598(15) 0.5654(4) 0.19528(9)
C20 C 0.41585(16) 0.4465(4) 0.17638(9)
H16 H 0.4357 0.3791 0.1616
C21 C 0.69812(15) 0.6162(4) 0.48031(8)
H17 H 0.7048 0.6491 0.5025
C22 C 0.67732(17) 0.6812(5) 0.26122(9)
C23 C 0.70119(16) 0.6803(5) 0.29698(9)
C24 C 0.67527(16) 0.7753(5) 0.32129(9)
H18 H 0.6436 0.8417 0.3154
C25 C 0.69643(16) 0.7720(4) 0.35455(9)
H19 H 0.6788 0.8349 0.3710
C26 C 0.74389(14) 0.6741(4) 0.36284(8)
C27 C 0.77026(15) 0.5791(5) 0.33825(8)
H20 H 0.8026 0.5147 0.3438
C28 C 0.74807(15) 0.5815(5) 0.30574(8)
H21 H 0.7648 0.5157 0.2894
C29 C 0.72586(14) 0.6203(4) 0.42206(8)
C30 C 0.67906(14) 0.5169(4) 0.41391(8)
H22 H 0.6728 0.4829 0.3917
C31 C 0.64185(14) 0.4644(4) 0.43864(8)
H23 H 0.6102 0.3980 0.4328
C32 C 0.65148(14) 0.5104(4) 0.47222(8)
C33 C 0.73413(15) 0.6716(4) 0.45550(8)
H24 H 0.7643 0.7439 0.4611
C34 C 0.61345(15) 0.4460(4) 0.49914(9)
C35 C 0.82607(14) 0.6561(4) 0.40328(8)
C36 C 0.84836(14) 0.5520(5) 0.42834(9)
H25 H 0.8231 0.4959 0.4422
C37 C 0.90760(16) 0.5312(6) 0.43278(9)
H26 H 0.9220 0.4636 0.4500
C38 C 0.94610(16) 0.6105(7) 0.41170(9)
C39 C 0.92445(17) 0.7182(6) 0.38696(9)
H27 H 0.9499 0.7739 0.3731
C40 C 0.86532(16) 0.7419(5) 0.38301(8)
H28 H 0.8511 0.8154 0.3668
H30 H 0.6528 0.8166 0.0121
C47 C 0.75492(13) 0.6747(4) 0.02091(8)
C48 C 0.75230(13) 0.6357(4) 0.07726(8)
C49 C 0.83066(13) 0.5548(4) 0.04849(8)
C50 C 0.72040(14) 0.6533(4) 0.10896(8)
C51 C 0.66060(14) 0.6824(5) 0.10782(8)
H33 H 0.6403 0.6860 0.0872
C52 C 0.63194(14) 0.7058(5) 0.13751(8)
H34 H 0.5922 0.7278 0.1366
C53 C 0.71684(14) 0.6654(4) 0.16911(8)
H35 H 0.7356 0.6570 0.1901
C54 C 0.74907(14) 0.6440(4) 0.14040(8)
H36 H 0.7889 0.6240 0.1420
C55 C 0.96206(14) 0.3304(4) 0.01930(8)
C56 C 0.91067(14) 0.4192(4) 0.01823(8)
C57 C 0.88783(13) 0.4728(4) 0.04829(8)
C58 C 0.91836(14) 0.4412(4) 0.07827(8)
H39 H 0.9048 0.4788 0.0987
C59 C 0.96978(15) 0.3520(5) 0.07686(9)
H40 H 0.9906 0.3312 0.0968
C60 C 0.51116(14) 0.5795(5) 0.19279(8)
Zn5 Zn 0.56083(2) 0.36105(5) 0.55181(2)
Zn3 Zn 0.62264(2) 0.97493(10) 0.89466(2)
N2 N 0.66909(14) 0.8690(6) 0.93306(8)
C42 C 0.64497(17) 0.8749(6) 0.96319(9)
H29 H 0.6087 0.9243 0.9649
C43 C 0.67138(16) 0.8113(6) 0.99165(9)
C44 C 0.72596(14) 0.7389(5) 0.98995(8)
C45 C 0.75235(16) 0.7372(6) 0.95897(9)
H31 H 0.7892 0.6921 0.9568
C46 C 0.72252(17) 0.8044(8) 0.93128(9)
H32 H 0.7405 0.8045 0.9106
H37 H 0.9773 0.2939 0.9992
H38 H 0.8918 0.4425 0.9977
O18 O 0.54319(13) 0.8800(7) 0.89330(8)
O19 O 0.63749(15) 0.9540(4) 0.84714(7)
O4_2 O 0.52680(13) 0.0067(6) 0.94153(7)
O8_2 O 0.03768(12) 0.0068(4) 0.67314(7)
O14 O 0.51285(11) 0.5693(3) 0.55871(6)
H1 H 0.4915 0.5613 0.5768
H2 H 0.5353 0.6580 0.5614
N1_2 N 0.49051(11) 0.2049(3) 0.54813(7)
H22_2 H 0.1728 0.0171 0.8917
C31_2 C 0.14185(14) 0.0356(4) 0.93864(8)
H23_2 H 0.1102 0.1020 0.9328
C34_2 C 0.11345(15) 0.0540(4) 0.99914(9)
H25_2 H 0.3231 0.0041 0.9422
H26_2 H 0.4220 0.0364 0.9500
C55_2 C 0.46206(14) 0.1696(4) 0.51930(8)
H37_2 H 0.4773 0.2061 0.4992
C56_2 C 0.41067(14) 0.0808(4) 0.51823(8)
H38_2 H 0.3918 0.0575 0.4977
C57_2 C 0.38783(13) 0.0272(4) 0.54829(8)
C58_2 C 0.41836(14) 0.0588(4) 0.57827(8)
H39_2 H 0.4048 0.0212 0.5987
C59_2 C 0.46978(15) 0.1480(5) 0.57686(9)
H40_2 H 0.4906 0.1688 0.5968
O20_2 O 0.59091(10) 0.3365(3) 0.60012(6)
O21_2 O 0.62005(10) 0.1291(3) 0.56921(6)
Zn2_2 Zn 0.11301(2) 0.73281(5) 0.70832(2)
O3 O 0.12247(19) 0.2939(7) 0.40880(13)
O6_2 O 0.18676(13) 0.9379(4) 0.74208(6)
O7_2 O 0.14801(14) 0.6920(4) 0.75246(7)
O9_2 O 0.03544(12) 0.8134(4) 0.71240(8)
O15_2 O 0.09195(12) 0.5044(3) 0.69196(7)
H3 H 0.1234 0.4421 0.6878
H4 H 0.0712 0.4472 0.7071
N2_2 N 0.16909(14) 0.6310(6) 0.43306(8)
N3_2 N 0.30733(11) 0.8929(3) 0.51918(6)
N4_2 N 0.22465(11) 0.8106(4) 0.54933(7)
N5_2 N 0.30526(11) 0.9320(3) 0.57857(6)
N6_2 N 0.15973(12) 0.8023(4) 0.66774(7)
N7_2 N 0.26533(12) 0.8296(4) 0.89707(7)
C21_2 C 0.19812(15) 0.8838(4) 0.98031(8)
C22_2 C 0.17732(17) 0.8188(5) 0.76122(9)
C23_2 C 0.20119(16) 0.8197(5) 0.79698(9)
C24_2 C 0.17527(16) 0.7247(5) 0.82129(9)
H18_2 H 0.1436 0.6583 0.8154
C25_2 C 0.19643(16) 0.7280(4) 0.85455(9)
H19_2 H 0.1788 0.6651 0.8710
C26_2 C 0.24389(14) 0.8259(4) 0.86284(8)
C27_2 C 0.27026(15) 0.9209(5) 0.83825(8)
H20_2 H 0.3026 0.9853 0.8438
C28_2 C 0.24807(15) 0.9185(5) 0.80574(8)
H21_2 H 0.2648 0.9843 0.7894
C29_2 C 0.22586(14) 0.8797(4) 0.92206(8)
C30_2 C 0.17906(14) 0.9831(4) 0.91391(8)
C32_2 C 0.15148(14) 0.9896(4) 0.97222(8)
C33_2 C 0.23413(15) 0.8284(4) 0.95550(8)
H24_2 H 0.2643 0.7561 0.9611
C35_2 C 0.32607(14) 0.8439(4) 0.90328(8)
C36_2 C 0.34836(14) 0.9480(5) 0.92834(9)
C37_2 C 0.40760(16) 0.9688(6) 0.93278(9)
C38_2 C 0.44610(16) 0.8895(7) 0.91170(9)
C39_2 C 0.42445(17) 0.7818(6) 0.88696(9)
H27_2 H 0.4499 0.7261 0.8731
C40_2 C 0.36532(16) 0.7581(5) 0.88301(8)
H28_2 H 0.3511 0.6846 0.8668
C41_2 C 0.50964(18) 0.9293(9) 0.91640(10)
C42_2 C 0.14497(17) 0.6251(6) 0.46319(9)
H29_2 H 0.1087 0.5757 0.4649
C43_2 C 0.17138(16) 0.6887(6) 0.49165(9)
H30_2 H 0.1528 0.6834 0.5121
C44_2 C 0.22596(14) 0.7611(5) 0.48995(8)
C45_2 C 0.25235(16) 0.7628(6) 0.45897(9)
H31_2 H 0.2892 0.8079 0.4568
C46_2 C 0.22252(17) 0.6956(8) 0.43128(9)
H32_2 H 0.2405 0.6955 0.4106
C47_2 C 0.25492(13) 0.8253(4) 0.52091(8)
C48_2 C 0.25230(13) 0.8643(4) 0.57726(8)
C49_2 C 0.33066(13) 0.9452(4) 0.54849(8)
C50_2 C 0.22040(14) 0.8467(4) 0.60896(8)
C51_2 C 0.16060(14) 0.8176(5) 0.60782(8)
H33_2 H 0.1403 0.8140 0.5872
C52_2 C 0.13194(14) 0.7942(5) 0.63751(8)
H34_2 H 0.0922 0.7722 0.6366
C53_2 C 0.21684(14) 0.8346(4) 0.66911(8)
H35_2 H 0.2356 0.8430 0.6901
C54_2 C 0.24907(14) 0.8560(4) 0.64040(8)
H36_2 H 0.2889 0.8760 0.6420
C60_2 C 0.01116(14) 0.9205(5) 0.69279(8)
H41 H 0.163123 0.253156 0.410896
H42 H 0.100584 0.226987 0.391759
O10_2 O 0.72405(15) 0.0433(5) 0.86642(7)
C1_2 C 0.62062(13) 0.2063(4) 0.59679(8)
C2_2 C 0.65776(14) 0.1478(4) 0.62571(8)
C3_2 C 0.65371(14) 0.2242(4) 0.65730(8)
H5_2 H 0.6273 0.3094 0.6602
C4_2 C 0.68923(15) 0.1726(4) 0.68424(8)
H6_2 H 0.6862 0.2233 0.7051
C5_2 C 0.72932(14) 0.0459(4) 0.68024(8)
C7_2 C 0.69722(15) 0.0189(4) 0.62195(8)
C8_2 C 0.74682(14) 0.0007(4) 0.74079(8)
C11_2 C 0.70965(17) 0.0014(4) 0.80706(8)
C12_2 C 0.76470(16) 0.0597(4) 0.79991(8)
H11_2 H 0.7889 0.0996 0.8172
C13_2 C 0.78380(15) 0.0587(4) 0.76715(8)
H12_2 H 0.8209 0.0961 0.7625
C14_2 C 0.69047(19) 0.0009(5) 0.84294(10)
C15_2 C 0.85693(16) 0.0712(4) 0.67961(8)
H13_2 H 0.8370 0.1496 0.6667
C20_2 C 0.91585(16) 0.0535(4) 0.67638(9)
H16_2 H 0.9357 0.1209 0.6616
N8_2 N 0.76637(12) 0.9985(4) 0.70727(7)
C6_2 C 0.73266(15) 0.9679(4) 0.64874(8)
H7_2 H 0.7588 0.8818 0.6459
H8_2 H 0.6998 0.9666 0.6012
C9_2 C 0.69160(15) 0.9463(4) 0.74808(8)
H9_2 H 0.6666 0.9104 0.7308
C10_2 C 0.67318(17) 0.9449(4) 0.78115(9)
H10_2 H 0.6363 0.9060 0.7859
C16_2 C 0.82642(14) 0.9730(4) 0.70206(8)
C17_2 C 0.85603(14) 0.8505(4) 0.71972(8)
H14_2 H 0.8359 0.7797 0.7337
C18_2 C 0.91562(15) 0.8332(4) 0.71662(9)
H15_2 H 0.9354 0.7525 0.7290
C19_2 C 0.94598(15) 0.9346(4) 0.69528(9)
O14_2 O 0.01285(11) 0.9307(3) 0.05871(6)
H2_2 H 0.0353 0.8420 0.0614
H3_2 H 0.6234 0.0579 0.1878
H4_2 H 0.5712 0.0528 0.2071
O3_2 O 0.62247(19) 0.2061(7) 0.90880(13)
H41_2 H 0.663123 0.246844 0.910896
H42_2 H 0.600584 0.273013 0.891759
H1_2 H 0.9915 0.9387 0.0768
O11_2 O 0.36251(15) 0.0460(4) 0.15286(7)
N8_3 N 0.23363(12) 0.0015(4) 0.29273(7)
C6_3 C 0.26734(15) 0.0321(4) 0.35126(8)
H7_3 H 0.2412 0.1182 0.3541
H8_3 H 0.3002 0.0334 0.3988
C9_3 C 0.30840(15) 0.0537(4) 0.25192(8)
H9_3 H 0.3334 0.0896 0.2692
C10_3 C 0.32682(17) 0.0551(4) 0.21885(9)
H10_3 H 0.3637 0.0940 0.2141
C16_3 C 0.17358(14) 0.0270(4) 0.29794(8)
C17_3 C 0.14397(14) 0.1495(4) 0.28028(8)
H14_3 H 0.1641 0.2203 0.2663
C18_3 C 0.08438(15) 0.1668(4) 0.28338(9)
H15_3 H 0.0646 0.2475 0.2710
C19_3 C 0.05402(15) 0.0654(4) 0.30472(9)
Zn6 Zn 0.37736(2) 0.02507(10) 0.10534(2)
O10_3 O 0.27595(15) 0.9567(5) 0.13358(7)
O12 O 0.40909(10) 0.6635(3) 0.39988(6)
O13 O 0.37995(10) 0.8709(3) 0.43079(6)
C1_3 C 0.37938(13) 0.7937(4) 0.40321(8)
C2_3 C 0.34224(14) 0.8522(4) 0.37429(8)
C3_3 C 0.34629(14) 0.7758(4) 0.34270(8)
H5_3 H 0.3727 0.6906 0.3398
C4_3 C 0.31077(15) 0.8274(4) 0.31576(8)
H6_3 H 0.3138 0.7767 0.2949
C5_3 C 0.27068(14) 0.9541(4) 0.31976(8)
C7_3 C 0.30278(15) 0.9811(4) 0.37805(8)
C8_3 C 0.25318(14) 0.9993(4) 0.25921(8)
C11_3 C 0.29035(17) 0.9986(4) 0.19294(8)
C12_3 C 0.23530(16) 0.9403(4) 0.20009(8)
H11_3 H 0.2111 0.9004 0.1828
C13_3 C 0.21620(15) 0.9413(4) 0.23285(8)
H12_3 H 0.1791 0.9039 0.2375
C14_3 C 0.30953(19) 0.9991(5) 0.15706(10)
C15_3 C 0.14307(16) 0.9288(4) 0.32039(8)
H13_3 H 0.1630 0.8504 0.3333
C20_3 C 0.08415(16) 0.9465(4) 0.32362(9)
H16_3 H 0.0643 0.8791 0.3384
Zn4 Zn 0.43917(2) 0.63895(5) 0.44819(2)
Zn2_3 Zn 0.88699(2) 0.26719(5) 0.29168(2)
Zn3_2 Zn 0.87736(2) 0.47493(10) 0.60534(2)
O3_3 O 0.87753(19) 0.7061(7) 0.59120(13)
O5_2 O 0.45681(13) 0.1200(7) 0.10670(8)
O6_3 O 0.81324(13) 0.0621(4) 0.25792(6)
O7_3 O 0.85199(14) 0.3080(4) 0.24754(7)
O9_3 O 0.96456(12) 0.1866(4) 0.28760(8)
O15_3 O 0.90805(12) 0.4956(3) 0.30804(7)
H3_3 H 0.8766 0.5579 0.3122
H4_3 H 0.9288 0.5528 0.2929
N2_3 N 0.83091(14) 0.3690(6) 0.56694(8)
N3_3 N 0.69267(11) 0.1071(3) 0.48082(6)
N4_3 N 0.77535(11) 0.1894(4) 0.45067(7)
N5_3 N 0.69474(11) 0.0680(3) 0.42143(6)
N6_3 N 0.84027(12) 0.1977(4) 0.33226(7)
N7_3 N 0.73467(12) 0.1704(4) 0.10293(7)
C21_3 C 0.80188(15) 0.1162(4) 0.01969(8)
C22_3 C 0.82268(17) 0.1812(5) 0.23878(9)
C23_3 C 0.79881(16) 0.1803(5) 0.20302(9)
C24_3 C 0.82473(16) 0.2753(5) 0.17871(9)
H18_3 H 0.8564 0.3417 0.1846
C25_3 C 0.80357(16) 0.2720(4) 0.14545(9)
H19_3 H 0.8212 0.3349 0.1290
C26_3 C 0.75611(14) 0.1741(4) 0.13716(8)
C27_3 C 0.72974(15) 0.0791(5) 0.16175(8)
H20_3 H 0.6974 0.0147 0.1562
C28_3 C 0.75193(15) 0.0815(5) 0.19426(8)
H21_3 H 0.7352 0.0157 0.2106
C29_3 C 0.77414(14) 0.1203(4) 0.07794(8)
C30_3 C 0.82094(14) 0.0169(4) 0.08609(8)
C32_3 C 0.84852(14) 0.0104(4) 0.02778(8)
C33_3 C 0.76587(15) 0.1716(4) 0.04450(8)
H24_3 H 0.7357 0.2439 0.0389
C35_3 C 0.67393(14) 0.1561(4) 0.09672(8)
C36_3 C 0.65164(14) 0.0520(5) 0.07166(9)
C37_3 C 0.59240(16) 0.0312(6) 0.06722(9)
C38_3 C 0.55390(16) 0.1105(7) 0.08830(9)
C39_3 C 0.57555(17) 0.2182(6) 0.11304(9)
H27_3 H 0.5501 0.2739 0.1269
C40_3 C 0.63468(16) 0.2419(5) 0.11699(8)
H28_3 H 0.6489 0.3154 0.1332
C41_3 C 0.49036(18) 0.0707(9) 0.08360(10)
C42_3 C 0.85503(17) 0.3749(6) 0.53681(9)
H29_3 H 0.8913 0.4243 0.5351
C43_3 C 0.82862(16) 0.3113(6) 0.50835(9)
H30_3 H 0.8472 0.3166 0.4879
C44_3 C 0.77404(14) 0.2389(5) 0.51005(8)
C45_3 C 0.74765(16) 0.2372(6) 0.54103(9)
H31_3 H 0.7108 0.1921 0.5432
C46_3 C 0.77748(17) 0.3044(8) 0.56872(9)
H32_3 H 0.7595 0.3045 0.5894
C47_3 C 0.74508(13) 0.1747(4) 0.47909(8)
C48_3 C 0.74770(13) 0.1357(4) 0.42274(8)
C49_3 C 0.66934(13) 0.0548(4) 0.45151(8)
C50_3 C 0.77960(14) 0.1533(4) 0.39104(8)
C51_3 C 0.83940(14) 0.1824(5) 0.39218(8)
H33_3 H 0.8597 0.1860 0.4128
C52_3 C 0.86806(14) 0.2058(5) 0.36249(8)
H34_3 H 0.9078 0.2278 0.3634
C53_3 C 0.78316(14) 0.1654(4) 0.33089(8)
H35_3 H 0.7644 0.1570 0.3099
C54_3 C 0.75093(14) 0.1440(4) 0.35960(8)
H36_3 H 0.7111 0.1240 0.3580
C60_3 C 0.98884(14) 0.0795(5) 0.30721(8)
O18_2 O 0.95681(13) 0.3800(7) 0.60670(8)
O19_2 O 0.86251(15) 0.4540(4) 0.65286(7)
H41_3 H 0.836877 0.746844 0.589104
H42_3 H 0.899416 0.773013 0.608241
O1_2 O 0.93370(11) 0.8755(3) 0.00865(7)
O4_3 O 0.47320(13) 0.9933(6) 0.05847(7)
O8_3 O 0.96232(12) 0.9932(4) 0.32686(7)
O14_3 O 0.48715(11) 0.4307(3) 0.44129(6)
H1_3 H 0.5085 0.4387 0.4232
H2_3 H 0.4647 0.3420 0.4386
N1_3 N 0.50949(11) 0.7951(3) 0.45187(7)
H22_3 H 0.8272 0.9829 0.1083
C31_3 C 0.85815(14) 0.9644(4) 0.06136(8)
H23_3 H 0.8898 0.8980 0.0672
C34_3 C 0.88655(15) 0.9460(4) 0.00086(9)
H25_3 H 0.6769 0.9959 0.0578
H26_3 H 0.5780 0.9636 0.0500
C55_3 C 0.53794(14) 0.8304(4) 0.48070(8)
H37_3 H 0.5227 0.7939 0.5008
C56_3 C 0.58933(14) 0.9192(4) 0.48177(8)
H38_3 H 0.6082 0.9425 0.5023
C57_3 C 0.61217(13) 0.9728(4) 0.45171(8)
C58_3 C 0.58164(14) 0.9412(4) 0.42173(8)
H39_3 H 0.5952 0.9788 0.4013
C59_3 C 0.53022(15) 0.8520(5) 0.42314(9)
H40_3 H 0.5094 0.8312 0.4032
O16_2 O 0.43370(11) 0.6245(3) 0.50865(7)
O17_2 O 0.37027(11) 0.5357(3) 0.47053(6)
O2_2 O 0.87027(11) 0.9643(3) 0.97053(6)
Zn5_2 Zn 0.93917(2) 0.86105(5) 0.94819(2)
N2_4 N 0.33091(14) 0.1310(6) 0.06694(8)
C42_4 C 0.35503(17) 0.1251(6) 0.03681(9)
H29_4 H 0.3913 0.0757 0.0351
C43_4 C 0.32862(16) 0.1887(6) 0.00835(9)
C44_4 C 0.27404(14) 0.2611(5) 0.01005(8)
C45_4 C 0.24765(16) 0.2628(6) 0.04103(9)
H31_4 H 0.2108 0.3079 0.0432
C46_4 C 0.27748(17) 0.1956(8) 0.06872(9)
H32_4 H 0.2595 0.1955 0.0894
H37_4 H 0.0227 0.7061 0.0008
H38_4 H 0.1082 0.5575 0.0023
Zn2_4 Zn 0.38699(2) 0.23281(5) 0.79168(2)
O6_4 O 0.31324(13) 0.4379(4) 0.75792(6)
O7_4 O 0.35199(14) 0.1920(4) 0.74754(7)
O8_4 O 0.46232(12) 0.5068(4) 0.82686(7)
O9_4 O 0.46456(12) 0.3134(4) 0.78760(8)
O10_4 O 0.77595(15) 0.5433(5) 0.63358(7)
O12_2 O 0.90909(10) 0.8365(3) 0.89988(6)
O13_2 O 0.87995(10) 0.6291(3) 0.93079(6)
O15_4 O 0.40805(12) 0.0044(3) 0.80804(7)
N1_4 N 0.00949(11) 0.7049(3) 0.95187(7)
N3_4 N 0.19267(11) 0.3929(3) 0.98082(6)
N4_4 N 0.27535(11) 0.3106(4) 0.95067(7)
N5_4 N 0.19474(11) 0.4320(3) 0.92143(6)
N6_4 N 0.34027(12) 0.3023(4) 0.83226(7)
N7_4 N 0.23467(12) 0.3296(4) 0.60293(7)
N8_4 N 0.73363(12) 0.4985(4) 0.79273(7)
C1_4 C 0.87938(13) 0.7063(4) 0.90321(8)
C2_4 C 0.84224(14) 0.6478(4) 0.87429(8)
C3_4 C 0.84629(14) 0.7242(4) 0.84270(8)
H5_4 H 0.8727 0.8094 0.8398
C4_4 C 0.81077(15) 0.6726(4) 0.81576(8)
H6_4 H 0.8138 0.7233 0.7949
C5_4 C 0.77068(14) 0.5459(4) 0.81976(8)
C6_4 C 0.76734(15) 0.4679(4) 0.85126(8)
H7_4 H 0.7412 0.3818 0.8541
C7_4 C 0.80278(15) 0.5189(4) 0.87805(8)
H8_4 H 0.8002 0.4666 0.8988
C8_4 C 0.75318(14) 0.5007(4) 0.75921(8)
C9_4 C 0.80840(15) 0.4463(4) 0.75192(8)
H9_4 H 0.8334 0.4104 0.7692
C10_4 C 0.82682(17) 0.4449(4) 0.71885(9)
H10_4 H 0.8637 0.4060 0.7141
C11_4 C 0.79035(17) 0.5014(4) 0.69294(8)
C12_4 C 0.73530(16) 0.5597(4) 0.70009(8)
H11_4 H 0.7111 0.5996 0.6828
C13_4 C 0.71620(15) 0.5587(4) 0.73285(8)
H12_4 H 0.6791 0.5961 0.7375
C14_4 C 0.80953(19) 0.5009(5) 0.65706(10)
C15_4 C 0.64307(16) 0.5712(4) 0.82039(8)
H13_4 H 0.6630 0.6496 0.8333
C16_4 C 0.67358(14) 0.4730(4) 0.79794(8)
C17_4 C 0.64397(14) 0.3505(4) 0.78028(8)
H14_4 H 0.6641 0.2797 0.7663
C18_4 C 0.58438(15) 0.3332(4) 0.78338(9)
H15_4 H 0.5646 0.2525 0.7710
C19_4 C 0.55402(15) 0.4346(4) 0.80472(9)
C20_4 C 0.58415(16) 0.5535(4) 0.82362(9)
H16_4 H 0.5643 0.6209 0.8384
C21_4 C 0.30188(15) 0.3838(4) 0.51969(8)
H17_2 H 0.2952 0.3509 0.4975
C22_4 C 0.32268(17) 0.3188(5) 0.73878(9)
C23_4 C 0.29881(16) 0.3197(5) 0.70302(9)
C24_4 C 0.32473(16) 0.2247(5) 0.67871(9)
H18_4 H 0.3564 0.1583 0.6846
C25_4 C 0.30357(16) 0.2280(4) 0.64545(9)
H19_4 H 0.3212 0.1651 0.6290
C26_4 C 0.25611(14) 0.3259(4) 0.63716(8)
C27_4 C 0.22974(15) 0.4209(5) 0.66175(8)
H20_4 H 0.1974 0.4853 0.6562
C28_4 C 0.25193(15) 0.4185(5) 0.69426(8)
H21_4 H 0.2352 0.4843 0.7106
C29_4 C 0.27414(14) 0.3797(4) 0.57794(8)
C30_4 C 0.32094(14) 0.4831(4) 0.58609(8)
H22_4 H 0.3272 0.5171 0.6083
C31_4 C 0.35815(14) 0.5356(4) 0.56136(8)
H23_4 H 0.3898 0.6020 0.5672
C32_4 C 0.34852(14) 0.4896(4) 0.52778(8)
C33_4 C 0.26587(15) 0.3284(4) 0.54450(8)
H24_4 H 0.2357 0.2561 0.5389
C34_4 C 0.38655(15) 0.5540(4) 0.50086(9)
C35_4 C 0.17393(14) 0.3439(4) 0.59672(8)
C36_4 C 0.15164(14) 0.4480(5) 0.57166(9)
H25_4 H 0.1769 0.5041 0.5578
C37_4 C 0.09240(16) 0.4688(6) 0.56722(9)
H26_4 H 0.0780 0.5364 0.5500
C38_4 C 0.05390(16) 0.3895(7) 0.58830(9)
C39_4 C 0.07555(17) 0.2818(6) 0.61304(9)
H27_4 H 0.0501 0.2261 0.6269
C40_4 C 0.13468(16) 0.2581(5) 0.61699(8)
H28_4 H 0.1489 0.1846 0.6332
H30_4 H 0.3472 0.1834 0.9879
C47_4 C 0.24508(13) 0.3253(4) 0.97909(8)
C48_4 C 0.24770(13) 0.3643(4) 0.92274(8)
C49_4 C 0.16934(13) 0.4452(4) 0.95151(8)
C50_4 C 0.27960(14) 0.3467(4) 0.89104(8)
C51_4 C 0.33940(14) 0.3176(5) 0.89218(8)
H33_4 H 0.3597 0.3140 0.9128
C52_4 C 0.36806(14) 0.2942(5) 0.86249(8)
H34_4 H 0.4078 0.2722 0.8634
C53_4 C 0.28316(14) 0.3346(4) 0.83089(8)
H35_4 H 0.2644 0.3430 0.8099
C54_4 C 0.25093(14) 0.3560(4) 0.85960(8)
H36_4 H 0.2111 0.3760 0.8580
C55_4 C 0.03794(14) 0.6696(4) 0.98070(8)
C56_4 C 0.08933(14) 0.5808(4) 0.98177(8)
C57_4 C 0.11217(13) 0.5272(4) 0.95171(8)
C58_4 C 0.08164(14) 0.5588(4) 0.92173(8)
H39_4 H 0.0952 0.5212 0.9013
C59_4 C 0.03022(15) 0.6480(5) 0.92314(9)
H40_4 H 0.0094 0.6688 0.9032
C60_4 C 0.48884(14) 0.4205(5) 0.80721(8)
O4_4 O 0.97320(13) 0.5067(6) 0.55847(7)
C41_4 C 0.99036(18) 0.4293(9) 0.58360(10)
H17_3 H 0.7952 0.1491 0.9975
H1_4 H 0.0085 0.0613 0.9232
O3_4 O 0.37753(19) 0.7939(7) 0.09120(13)
H41_4 H 0.336877 0.753156 0.0891043
H42_4 H 0.399416 0.726987 0.108241
H3_4 H 0.3766 0.9421 0.8122
H4_4 H 0.4288 0.9472 0.7929
O14_4 O 0.98715(11) 0.0693(3) 0.94129(6)
H2_4 H 0.9647 0.1580 0.9386
H17_4 H 0.2048 0.8509 0.0025
loop_
_geom_bond_atom_site_label_1
_geom_bond_atom_site_label_2
_geom_bond_site_symmetry_1
_geom_bond_site_symmetry_2
O4 C41 1_555 1_555
O5 C41 1_555 1_555
Zn7 O5 1_555 1_555
O17 Zn1 1_555 1_555
O20 Zn1 1_555 1_555
O21 Zn1 1_555 1_555
Zn2 O7 1_555 1_555
O1 C34 1_555 1_555
O2 C34 1_555 1_555
O6 C22 1_555 1_555
O7 C22 1_555 1_555
O8 C60 1_555 1_555
O9 Zn2 1_555 1_555
O10 C14 1_555 1_555
O11 C14 1_555 1_555
O20 C1 1_555 1_555
O21 C1 1_555 1_555
O15 Zn2 1_555 1_555
N3 C47 1_555 1_555
N4 C47 1_555 1_555
N5 C48 1_555 1_555
N6 Zn2 1_555 1_555
N7 C26 1_555 1_555
N8 C5 1_555 1_555
C1 C2 1_555 1_555
C2 C3 1_555 1_555
C3 H5 1_555 1_555
C4 C3 1_555 1_555
H6 C4 1_555 1_555
C5 C4 1_555 1_555
C6 C5 1_555 1_555
H7 C6 1_555 1_555
C7 C2 1_555 1_555
H8 C7 1_555 1_555
C8 N8 1_555 1_555
C9 C8 1_555 1_555
H9 C9 1_555 1_555
C10 C9 1_555 1_555
H10 C10 1_555 1_555
C11 C10 1_555 1_555
C12 C11 1_555 1_555
H11 C12 1_555 1_555
C13 C8 1_555 1_555
H12 C13 1_555 1_555
C14 C11 1_555 1_555
C15 H13 1_555 1_555
C16 N8 1_555 1_555
C17 C16 1_555 1_555
H14 C17 1_555 1_555
C18 C17 1_555 1_555
H15 C18 1_555 1_555
C19 C18 1_555 1_555
C20 C15 1_555 1_555
H16 C20 1_555 1_555
C21 H17 1_555 1_555
C22 C23 1_555 1_555
C23 C24 1_555 1_555
C24 H18 1_555 1_555
C25 C24 1_555 1_555
H19 C25 1_555 1_555
C26 C25 1_555 1_555
C27 C26 1_555 1_555
H20 C27 1_555 1_555
C28 C23 1_555 1_555
H21 C28 1_555 1_555
C29 N7 1_555 1_555
C30 C29 1_555 1_555
H22 C30 1_555 1_555
C31 C30 1_555 1_555
H23 C31 1_555 1_555
C32 C21 1_555 1_555
C33 C21 1_555 1_555
H24 C33 1_555 1_555
C34 C32 1_555 1_555
C35 N7 1_555 1_555
C36 C35 1_555 1_555
H25 C36 1_555 1_555
C37 C36 1_555 1_555
H26 C37 1_555 1_555
C38 C37 1_555 1_555
C39 C38 1_555 1_555
H27 C39 1_555 1_555
C40 C35 1_555 1_555
H28 C40 1_555 1_555
C48 N4 1_555 1_555
C49 N3 1_555 1_555
C50 C48 1_555 1_555
C51 C50 1_555 1_555
H33 C51 1_555 1_555
C52 N6 1_555 1_555
H34 C52 1_555 1_555
C53 N6 1_555 1_555
H35 C53 1_555 1_555
C54 C50 1_555 1_555
H36 C54 1_555 1_555
C55 N1 1_555 1_555
C56 C55 1_555 1_555
C57 C49 1_555 1_555
C58 C57 1_555 1_555
H39 C58 1_555 1_555
C59 N1 1_555 1_555
H40 C59 1_555 1_555
C60 O9 1_555 1_555
Zn5 O1 1_555 1_555
Zn7 O11 1_555 1_555
O2 Zn5 1_555 1_555
N5 C49 1_555 1_555
C6 C7 1_555 1_555
C12 C13 1_555 1_555
C15 C16 1_555 1_555
C19 C20 1_555 1_555
C19 C60 1_555 1_555
C27 C28 1_555 1_555
C29 C33 1_555 1_555
C31 C32 1_555 1_555
C39 C40 1_555 1_555
C51 C52 1_555 1_555
C53 C54 1_555 1_555
C56 C57 1_555 1_555
C58 C59 1_555 1_555
N2 Zn3 1_555 1_555
C42 N2 1_555 1_555
H29 C42 1_555 1_555
C43 C42 1_555 1_555
C44 C43 1_555 1_555
C45 C44 1_555 1_555
H31 C45 1_555 1_555
C46 N2 1_555 1_555
H32 C46 1_555 1_555
O18 Zn3 1_555 1_555
O19 Zn3 1_555 1_555
C45 C46 1_555 1_555
Zn5 O14 1_555 1_555
O16 C34_2 1_555 1_555
O14 H1 1_555 1_555
H2 O14 1_555 1_555
N1_2 Zn5 1_555 1_555
H23_2 C31_2 1_555 1_555
C55_2 N1_2 1_555 1_555
H37_2 C55_2 1_555 1_555
C56_2 C55_2 1_555 1_555
H38_2 C56_2 1_555 1_555
C58_2 C57_2 1_555 1_555
H39_2 C58_2 1_555 1_555
C59_2 N1_2 1_555 1_555
H40_2 C59_2 1_555 1_555
O20_2 Zn5 1_555 1_555
O21_2 Zn5 1_555 1_555
C56_2 C57_2 1_555 1_555
C58_2 C59_2 1_555 1_555
Zn2_2 O7_2 1_555 1_555
Zn7 O3 1_555 1_555
O18 C41_2 1_555 1_555
O6_2 C22_2 1_555 1_555
O7_2 C22_2 1_555 1_555
O9_2 Zn2_2 1_555 1_555
O15_2 Zn2_2 1_555 1_555
H3 O15_2 1_555 1_555
H4 O15_2 1_555 1_555
N2_2 Zn7 1_555 1_555
N3_2 C47_2 1_555 1_555
N4_2 C47_2 1_555 1_555
N5_2 C48_2 1_555 1_555
N6_2 Zn2_2 1_555 1_555
N7_2 C26_2 1_555 1_555
C22_2 C23_2 1_555 1_555
C23_2 C24_2 1_555 1_555
C24_2 H18_2 1_555 1_555
C25_2 C24_2 1_555 1_555
H19_2 C25_2 1_555 1_555
C26_2 C25_2 1_555 1_555
C27_2 C26_2 1_555 1_555
H20_2 C27_2 1_555 1_555
C28_2 C23_2 1_555 1_555
H21_2 C28_2 1_555 1_555
C29_2 N7_2 1_555 1_555
C30_2 C29_2 1_555 1_555
C32_2 C21_2 1_555 1_555
C33_2 C21_2 1_555 1_555
H24_2 C33_2 1_555 1_555
C35_2 N7_2 1_555 1_555
C36_2 C35_2 1_555 1_555
C37_2 C36_2 1_555 1_555
C38_2 C37_2 1_555 1_555
C39_2 C38_2 1_555 1_555
H27_2 C39_2 1_555 1_555
C40_2 C35_2 1_555 1_555
H28_2 C40_2 1_555 1_555
C41_2 C38_2 1_555 1_555
C42_2 N2_2 1_555 1_555
H29_2 C42_2 1_555 1_555
C43_2 C42_2 1_555 1_555
H30_2 C43_2 1_555 1_555
C44_2 C43_2 1_555 1_555
C45_2 C44_2 1_555 1_555
H31_2 C45_2 1_555 1_555
C46_2 N2_2 1_555 1_555
H32_2 C46_2 1_555 1_555
C47_2 C44_2 1_555 1_555
C48_2 N4_2 1_555 1_555
C49_2 N3_2 1_555 1_555
C50_2 C48_2 1_555 1_555
C51_2 C50_2 1_555 1_555
H33_2 C51_2 1_555 1_555
C52_2 N6_2 1_555 1_555
H34_2 C52_2 1_555 1_555
C53_2 N6_2 1_555 1_555
H35_2 C53_2 1_555 1_555
C54_2 C50_2 1_555 1_555
H36_2 C54_2 1_555 1_555
C60_2 O9_2 1_555 1_555
N5_2 C49_2 1_555 1_555
C27_2 C28_2 1_555 1_555
C29_2 C33_2 1_555 1_555
C39_2 C40_2 1_555 1_555
C45_2 C46_2 1_555 1_555
C51_2 C52_2 1_555 1_555
C53_2 C54_2 1_555 1_555
O3 H41 1_555 1_555
O3 H42 1_555 1_555
O10_2 C14_2 1_555 1_555
O20_2 C1_2 1_555 1_555
O21_2 C1_2 1_555 1_555
C1_2 C2_2 1_555 1_555
C2_2 C3_2 1_555 1_555
C3_2 H5_2 1_555 1_555
C4_2 C3_2 1_555 1_555
H6_2 C4_2 1_555 1_555
C5_2 C4_2 1_555 1_555
C7_2 C2_2 1_555 1_555
C12_2 C11_2 1_555 1_555
H11_2 C12_2 1_555 1_555
C13_2 C8_2 1_555 1_555
H12_2 C13_2 1_555 1_555
C14_2 C11_2 1_555 1_555
C15_2 H13_2 1_555 1_555
C20_2 C15_2 1_555 1_555
H16_2 C20_2 1_555 1_555
C12_2 C13_2 1_555 1_555
H7_2 C6_2 1_555 1_555
H9_2 C9_2 1_555 1_555
C10_2 C9_2 1_555 1_555
H10_2 C10_2 1_555 1_555
C16_2 N8_2 1_555 1_555
C17_2 C16_2 1_555 1_555
H14_2 C17_2 1_555 1_555
C18_2 C17_2 1_555 1_555
H15_2 C18_2 1_555 1_555
C19_2 C18_2 1_555 1_555
H2_2 O14_2 1_555 1_555
O3_2 H41_2 1_555 1_555
O3_2 H42_2 1_555 1_555
H7_3 C6_3 1_555 1_555
H9_3 C9_3 1_555 1_555
C10_3 C9_3 1_555 1_555
H10_3 C10_3 1_555 1_555
C16_3 N8_3 1_555 1_555
C17_3 C16_3 1_555 1_555
H14_3 C17_3 1_555 1_555
C18_3 C17_3 1_555 1_555
H15_3 C18_3 1_555 1_555
C19_3 C18_3 1_555 1_555
Zn6 O11_2 1_555 1_555
O10_3 C14_3 1_555 1_555
O12 C1_3 1_555 1_555
O13 C1_3 1_555 1_555
C1_3 C2_3 1_555 1_555
C2_3 C3_3 1_555 1_555
C3_3 H5_3 1_555 1_555
C4_3 C3_3 1_555 1_555
H6_3 C4_3 1_555 1_555
C5_3 C4_3 1_555 1_555
C7_3 C2_3 1_555 1_555
C12_3 C11_3 1_555 1_555
H11_3 C12_3 1_555 1_555
C13_3 C8_3 1_555 1_555
H12_3 C13_3 1_555 1_555
C14_3 C11_3 1_555 1_555
C15_3 H13_3 1_555 1_555
C20_3 C15_3 1_555 1_555
H16_3 C20_3 1_555 1_555
Zn4 O12 1_555 1_555
O13 Zn4 1_555 1_555
C12_3 C13_3 1_555 1_555
Zn2_3 O7_3 1_555 1_555
Zn3_2 O3_3 1_555 1_555
O5_2 C41_3 1_555 1_555
O6_3 C22_3 1_555 1_555
O7_3 C22_3 1_555 1_555
O9_3 Zn2_3 1_555 1_555
O15_3 Zn2_3 1_555 1_555
H3_3 O15_3 1_555 1_555
H4_3 O15_3 1_555 1_555
N2_3 Zn3_2 1_555 1_555
N3_3 C47_3 1_555 1_555
N4_3 C47_3 1_555 1_555
N5_3 C48_3 1_555 1_555
N6_3 Zn2_3 1_555 1_555
N7_3 C26_3 1_555 1_555
C22_3 C23_3 1_555 1_555
C23_3 C24_3 1_555 1_555
C24_3 H18_3 1_555 1_555
C25_3 C24_3 1_555 1_555
H19_3 C25_3 1_555 1_555
C26_3 C25_3 1_555 1_555
C27_3 C26_3 1_555 1_555
H20_3 C27_3 1_555 1_555
C28_3 C23_3 1_555 1_555
H21_3 C28_3 1_555 1_555
C29_3 N7_3 1_555 1_555
C30_3 C29_3 1_555 1_555
C32_3 C21_3 1_555 1_555
C33_3 C21_3 1_555 1_555
H24_3 C33_3 1_555 1_555
C35_3 N7_3 1_555 1_555
C36_3 C35_3 1_555 1_555
C37_3 C36_3 1_555 1_555
C38_3 C37_3 1_555 1_555
C39_3 C38_3 1_555 1_555
H27_3 C39_3 1_555 1_555
C40_3 C35_3 1_555 1_555
H28_3 C40_3 1_555 1_555
C41_3 C38_3 1_555 1_555
C42_3 N2_3 1_555 1_555
H29_3 C42_3 1_555 1_555
C43_3 C42_3 1_555 1_555
H30_3 C43_3 1_555 1_555
C44_3 C43_3 1_555 1_555
C45_3 C44_3 1_555 1_555
H31_3 C45_3 1_555 1_555
C46_3 N2_3 1_555 1_555
H32_3 C46_3 1_555 1_555
C47_3 C44_3 1_555 1_555
C48_3 N4_3 1_555 1_555
C49_3 N3_3 1_555 1_555
C50_3 C48_3 1_555 1_555
C51_3 C50_3 1_555 1_555
H33_3 C51_3 1_555 1_555
C52_3 N6_3 1_555 1_555
H34_3 C52_3 1_555 1_555
C53_3 N6_3 1_555 1_555
H35_3 C53_3 1_555 1_555
C54_3 C50_3 1_555 1_555
H36_3 C54_3 1_555 1_555
C60_3 O9_3 1_555 1_555
Zn6 O5_2 1_555 1_555
O18_2 Zn3_2 1_555 1_555
O19_2 Zn3_2 1_555 1_555
N5_3 C49_3 1_555 1_555
C27_3 C28_3 1_555 1_555
C29_3 C33_3 1_555 1_555
C39_3 C40_3 1_555 1_555
C45_3 C46_3 1_555 1_555
C51_3 C52_3 1_555 1_555
C53_3 C54_3 1_555 1_555
O3_3 H41_3 1_555 1_555
O3_3 H42_3 1_555 1_555
Zn4 O14_3 1_555 1_555
O1_2 C34_3 1_555 1_555
O14_3 H1_3 1_555 1_555
H2_3 O14_3 1_555 1_555
N1_3 Zn4 1_555 1_555
H23_3 C31_3 1_555 1_555
C55_3 N1_3 1_555 1_555
H37_3 C55_3 1_555 1_555
C56_3 C55_3 1_555 1_555
H38_3 C56_3 1_555 1_555
C58_3 C57_3 1_555 1_555
H39_3 C58_3 1_555 1_555
C59_3 N1_3 1_555 1_555
H40_3 C59_3 1_555 1_555
O16_2 Zn4 1_555 1_555
O17_2 Zn4 1_555 1_555
C56_3 C57_3 1_555 1_555
C58_3 C59_3 1_555 1_555
O2_2 Zn5_2 1_555 1_555
N2_4 Zn6 1_555 1_555
C42_4 N2_4 1_555 1_555
H29_4 C42_4 1_555 1_555
C43_4 C42_4 1_555 1_555
C44_4 C43_4 1_555 1_555
C45_4 C44_4 1_555 1_555
H31_4 C45_4 1_555 1_555
C46_4 N2_4 1_555 1_555
H32_4 C46_4 1_555 1_555
C45_4 C46_4 1_555 1_555
Zn2_4 O7_4 1_555 1_555
O16_2 C34_4 1_555 1_555
O17_2 C34_4 1_555 1_555
O6_4 C22_4 1_555 1_555
O7_4 C22_4 1_555 1_555
O8_4 C60_4 1_555 1_555
O9_4 Zn2_4 1_555 1_555
O10_4 C14_4 1_555 1_555
O19_2 C14_4 1_555 1_555
O12_2 C1_4 1_555 1_555
O13_2 C1_4 1_555 1_555
O15_4 Zn2_4 1_555 1_555
N3_4 C47_4 1_555 1_555
N4_4 C47_4 1_555 1_555
N5_4 C48_4 1_555 1_555
N6_4 Zn2_4 1_555 1_555
N7_4 C26_4 1_555 1_555
N8_4 C5_4 1_555 1_555
C1_4 C2_4 1_555 1_555
C2_4 C3_4 1_555 1_555
C3_4 H5_4 1_555 1_555
C4_4 C3_4 1_555 1_555
H6_4 C4_4 1_555 1_555
C5_4 C4_4 1_555 1_555
C6_4 C5_4 1_555 1_555
H7_4 C6_4 1_555 1_555
C7_4 C2_4 1_555 1_555
H8_4 C7_4 1_555 1_555
C8_4 N8_4 1_555 1_555
C9_4 C8_4 1_555 1_555
H9_4 C9_4 1_555 1_555
C10_4 C9_4 1_555 1_555
H10_4 C10_4 1_555 1_555
C11_4 C10_4 1_555 1_555
C12_4 C11_4 1_555 1_555
H11_4 C12_4 1_555 1_555
C13_4 C8_4 1_555 1_555
H12_4 C13_4 1_555 1_555
C14_4 C11_4 1_555 1_555
C15_4 H13_4 1_555 1_555
C16_4 N8_4 1_555 1_555
C17_4 C16_4 1_555 1_555
H14_4 C17_4 1_555 1_555
C18_4 C17_4 1_555 1_555
H15_4 C18_4 1_555 1_555
C19_4 C18_4 1_555 1_555
C20_4 C15_4 1_555 1_555
H16_4 C20_4 1_555 1_555
C21_4 H17_2 1_555 1_555
C22_4 C23_4 1_555 1_555
C23_4 C24_4 1_555 1_555
C24_4 H18_4 1_555 1_555
C25_4 C24_4 1_555 1_555
H19_4 C25_4 1_555 1_555
C26_4 C25_4 1_555 1_555
C27_4 C26_4 1_555 1_555
H20_4 C27_4 1_555 1_555
C28_4 C23_4 1_555 1_555
H21_4 C28_4 1_555 1_555
C29_4 N7_4 1_555 1_555
C30_4 C29_4 1_555 1_555
H22_4 C30_4 1_555 1_555
C31_4 C30_4 1_555 1_555
H23_4 C31_4 1_555 1_555
C32_4 C21_4 1_555 1_555
C33_4 C21_4 1_555 1_555
H24_4 C33_4 1_555 1_555
C34_4 C32_4 1_555 1_555
C35_4 N7_4 1_555 1_555
C36_4 C35_4 1_555 1_555
H25_4 C36_4 1_555 1_555
C37_4 C36_4 1_555 1_555
H26_4 C37_4 1_555 1_555
C38_4 C37_4 1_555 1_555
C39_4 C38_4 1_555 1_555
H27_4 C39_4 1_555 1_555
C40_4 C35_4 1_555 1_555
H28_4 C40_4 1_555 1_555
C48_4 N4_4 1_555 1_555
C49_4 N3_4 1_555 1_555
C50_4 C48_4 1_555 1_555
C51_4 C50_4 1_555 1_555
H33_4 C51_4 1_555 1_555
C52_4 N6_4 1_555 1_555
H34_4 C52_4 1_555 1_555
C53_4 N6_4 1_555 1_555
H35_4 C53_4 1_555 1_555
C54_4 C50_4 1_555 1_555
H36_4 C54_4 1_555 1_555
C55_4 N1_4 1_555 1_555
C56_4 C55_4 1_555 1_555
C57_4 C49_4 1_555 1_555
C58_4 C57_4 1_555 1_555
H39_4 C58_4 1_555 1_555
C59_4 N1_4 1_555 1_555
H40_4 C59_4 1_555 1_555
C60_4 O9_4 1_555 1_555
Zn5_2 O12_2 1_555 1_555
O13_2 Zn5_2 1_555 1_555
N5_4 C49_4 1_555 1_555
C6_4 C7_4 1_555 1_555
C12_4 C13_4 1_555 1_555
C15_4 C16_4 1_555 1_555
C19_4 C20_4 1_555 1_555
C19_4 C60_4 1_555 1_555
C27_4 C28_4 1_555 1_555
C29_4 C33_4 1_555 1_555
C31_4 C32_4 1_555 1_555
C39_4 C40_4 1_555 1_555
C51_4 C52_4 1_555 1_555
C53_4 C54_4 1_555 1_555
C56_4 C57_4 1_555 1_555
C58_4 C59_4 1_555 1_555
O4_4 C41_4 1_555 1_555
O18_2 C41_4 1_555 1_555
O3_4 H41_4 1_555 1_555
O3_4 H42_4 1_555 1_555
H2_4 O14_4 1_555 1_555

#END
