
###############################################################################
#
# This file contains modified crystal structure data generated from the
# MOF subset of the Cambridge Structural Database (CSD) v543 
# hosted by the Cambridge Crystallographic Data Centre (CCDC).
#
# This work is licensed under the Creative Commons
# Attribution-NonCommercial-ShareAlike 4.0 International License.
# To view a copy of this license, visit
# http://creativecommons.org/licenses/by-nc-sa/4.0/
# or send a letter to
# Creative Commons, PO Box 1866, Mountain View, CA 94042, USA.
#
# CIF created using the CSD Python API on 29 September 2022
# The structure has been converted into the P1 space group
# The structure has a 3D framework
# The original CSD entry JUMCUR is in the orthorhombic crystal system
# The original CSD entry JUMCUR is in a Sohncke space group
# The framework has been calculated to contain at least 10.0% void space
# The void calculation uses a probe of radius 1.32A, grid spacing 0.4
#
###############################################################################

data_JUMCUR
_chemical_formula_moiety         '(C32 H16 O18 V2)n'
_symmetry_cell_setting           triclinic
_symmetry_space_group_name_H-M   'P 1'
_symmetry_Int_Tables_number      1
_space_group_name_Hall           'P 1'
loop_
_symmetry_equiv_pos_site_id
_symmetry_equiv_pos_as_xyz
1 x,y,z
_cell_length_a                   6.798(3)
_cell_length_b                   13.285(5)
_cell_length_c                   16.457(6)
_cell_angle_alpha                90
_cell_angle_beta                 90
_cell_angle_gamma                90
_cell_volume                     1486.26
loop_
_atom_site_label
_atom_site_type_symbol
_atom_site_fract_x
_atom_site_fract_y
_atom_site_fract_z
O1 O 0.2837(7) 0.6896(4) 0.0096(3)
V1 V 0.06409(15) 0.73509(8) 0.00142(8)
O8 O 0.1146(8) 0.8536(5) 0.0706(4)
H1 H 0.0493 0.5023 0.8311
H4 H 0.0309 0.3947 0.7202
O7 O 0.1166(8) 0.8138(5) 0.9015(3)
V5 V 0.56409(15) 0.76491(8) 0.99858(8)
O9 O 0.9434(9) 0.6693(5) 0.0982(3)
C1 C 0.7747(12) 0.6095(7) 0.9045(5)
C2 C 0.7592(12) 0.5349(7) 0.8365(5)
C3 C 0.9286(14) 0.4897(8) 0.8065(6)
C4 C 0.5784(14) 0.5126(8) 0.8024(6)
H2 H 0.4644 0.5396 0.8248
C5 C 0.5662(14) 0.4507(8) 0.7356(6)
H3 H 0.4444 0.4375 0.7122
C6 C 0.9177(14) 0.4255(8) 0.7399(6)
C7 C 0.7370(11) 0.4075(7) 0.7026(5)
C8 C 0.7258(11) 0.3458(7) 0.6274(5)
O2 O 0.8834(8) 0.3138(5) 0.5985(3)
O3 O 0.6146(8) 0.6464(5) 0.9294(4)
O4 O 0.5566(9) 0.3307(5) 0.5982(3)
O5 O 0.9442(9) 0.6320(5) 0.9298(3)
O6 O 0.7837(7) 0.8104(4) 0.9904(3)
V2 V 0.43591(15) 0.26491(8) 0.50142(8)
V3 V 0.93591(15) 0.23509(8) 0.49858(8)
H2_2 H 0.0356 0.4604 0.3248
H3_2 H 0.0556 0.5625 0.2122
C1_2 C 0.7253(12) 0.3905(7) 0.4045(5)
C2_2 C 0.7408(12) 0.4651(7) 0.3365(5)
C3_2 C 0.5714(14) 0.5103(8) 0.3065(6)
H1_2 H 0.4507 0.4977 0.3311
C4_2 C 0.9216(14) 0.4874(8) 0.3024(6)
C5_2 C 0.9338(14) 0.5493(8) 0.2356(6)
C6_2 C 0.5823(14) 0.5745(8) 0.2399(6)
H4_2 H 0.4691 0.6053 0.2202
C7_2 C 0.7630(11) 0.5925(7) 0.2026(5)
C8_2 C 0.7742(11) 0.6542(7) 0.1274(5)
O1_2 O 0.2163(7) 0.3104(4) 0.5096(3)
O2_2 O 0.6166(8) 0.6862(5) 0.0985(3)
O3_2 O 0.8854(8) 0.3536(5) 0.4294(4)
O5_2 O 0.5558(9) 0.3680(5) 0.4298(3)
O6_2 O 0.7163(7) 0.1896(4) 0.4904(3)
O7_2 O 0.3834(8) 0.1862(5) 0.4015(3)
O8_2 O 0.3854(8) 0.1464(5) 0.5706(4)
C1_3 C 0.2253(12) 0.1095(7) 0.5955(5)
C2_3 C 0.2408(12) 0.0349(7) 0.6635(5)
C4_3 C 0.4216(14) 0.0126(8) 0.6976(6)
H2_3 H 0.5356 0.0396 0.6752
O5_3 O 0.0558(9) 0.1320(5) 0.5702(3)
O9_2 O 0.0566(9) 0.1693(5) 0.4018(3)
C3_3 C 0.0714(14) 0.9897(8) 0.6935(6)
C5_3 C 0.4338(14) 0.9507(8) 0.7644(6)
H3_3 H 0.5556 0.9375 0.7878
C6_3 C 0.0823(14) 0.9255(8) 0.7601(6)
C7_3 C 0.2630(11) 0.9075(7) 0.7974(5)
C8_3 C 0.2742(11) 0.8458(7) 0.8726(5)
O4_2 O 0.4434(9) 0.8307(5) 0.9018(3)
H1_3 H 0.9507 0.0023 0.6689
C3_4 C 0.4286(14) 0.0103(8) 0.1935(6)
C5_4 C 0.0662(14) 0.0493(8) 0.2644(6)
C6_4 C 0.4177(14) 0.0745(8) 0.2601(6)
H4_3 H 0.5309 0.1053 0.2798
C7_4 C 0.2370(11) 0.0925(7) 0.2974(5)
C8_4 C 0.2258(11) 0.1542(7) 0.3726(5)
C1_4 C 0.2747(12) 0.8905(7) 0.0955(5)
C2_4 C 0.2592(12) 0.9651(7) 0.1635(5)
H1_4 H 0.5493 0.9977 0.1689
C4_4 C 0.0784(14) 0.9874(8) 0.1976(6)
O5_4 O 0.4442(9) 0.8680(5) 0.0702(3)
H3_4 H 0.9444 0.0625 0.2878
H4_4 H 0.9691 0.8947 0.7798
H2_4 H 0.9644 0.9604 0.1752
loop_
_geom_bond_atom_site_label_1
_geom_bond_atom_site_label_2
_geom_bond_site_symmetry_1
_geom_bond_site_symmetry_2
O1 V1 1_555 1_555
O8 V1 1_555 1_555
C1 C2 1_555 1_555
C2 C3 1_555 1_555
C4 C2 1_555 1_555
H2 C4 1_555 1_555
C5 C4 1_555 1_555
H3 C5 1_555 1_555
C6 C3 1_555 1_555
C7 C5 1_555 1_555
C8 C7 1_555 1_555
O2 C8 1_555 1_555
O3 C1 1_555 1_555
O4 C8 1_555 1_555
O5 C1 1_555 1_555
V2 O4 1_555 1_555
V3 O2 1_555 1_555
V5 O3 1_555 1_555
C6 C7 1_555 1_555
O6 V5 1_555 1_555
C1_2 C2_2 1_555 1_555
C2_2 C3_2 1_555 1_555
C3_2 H1_2 1_555 1_555
C4_2 C2_2 1_555 1_555
C5_2 C4_2 1_555 1_555
C6_2 C3_2 1_555 1_555
H4_2 C6_2 1_555 1_555
C7_2 C5_2 1_555 1_555
C8_2 C7_2 1_555 1_555
O1_2 V2 1_555 1_555
O2_2 C8_2 1_555 1_555
O3_2 C1_2 1_555 1_555
O9 C8_2 1_555 1_555
O5_2 C1_2 1_555 1_555
V2 O5_2 1_555 1_555
O6_2 V2 1_555 1_555
O7_2 V2 1_555 1_555
O8_2 V2 1_555 1_555
V3 O3_2 1_555 1_555
C6_2 C7_2 1_555 1_555
O6_2 V3 1_555 1_555
C1_3 C2_3 1_555 1_555
C4_3 C2_3 1_555 1_555
H2_3 C4_3 1_555 1_555
O8_2 C1_3 1_555 1_555
O5_3 C1_3 1_555 1_555
H3_3 C5_3 1_555 1_555
C6_3 C3_3 1_555 1_555
C7_3 C5_3 1_555 1_555
C8_3 C7_3 1_555 1_555
O7 C8_3 1_555 1_555
O4_2 C8_3 1_555 1_555
V5 O4_2 1_555 1_555
C6_3 C7_3 1_555 1_555
C6_4 C3_4 1_555 1_555
H4_3 C6_4 1_555 1_555
C7_4 C5_4 1_555 1_555
C8_4 C7_4 1_555 1_555
O7_2 C8_4 1_555 1_555
O9_2 C8_4 1_555 1_555
C6_4 C7_4 1_555 1_555
C1_4 C2_4 1_555 1_555
C4_4 C2_4 1_555 1_555
O8 C1_4 1_555 1_555
O5_4 C1_4 1_555 1_555

#END
