
###############################################################################
#
# This file contains modified crystal structure data generated from the
# MOF subset of the Cambridge Structural Database (CSD) v543 
# hosted by the Cambridge Crystallographic Data Centre (CCDC).
#
# This work is licensed under the Creative Commons
# Attribution-NonCommercial-ShareAlike 4.0 International License.
# To view a copy of this license, visit
# http://creativecommons.org/licenses/by-nc-sa/4.0/
# or send a letter to
# Creative Commons, PO Box 1866, Mountain View, CA 94042, USA.
#
# CIF created using the CSD Python API on 29 September 2022
# The structure has been converted into the P1 space group
# The structure has a 3D framework
# The original CSD entry JUMDEC is in the orthorhombic crystal system
# The original CSD entry JUMDEC is in a Sohncke space group
# The framework has been calculated to contain at least 10.0% void space
# The void calculation uses a probe of radius 1.32A, grid spacing 0.4
#
###############################################################################

data_JUMDEC
_chemical_formula_moiety         '(C32 H16 O20 V4)n'
_symmetry_cell_setting           triclinic
_symmetry_space_group_name_H-M   'P 1'
_symmetry_Int_Tables_number      1
_space_group_name_Hall           'P 1'
loop_
_symmetry_equiv_pos_site_id
_symmetry_equiv_pos_as_xyz
1 x,y,z
_cell_length_a                   6.8055(7)
_cell_length_b                   13.4475(13)
_cell_length_c                   16.1809(16)
_cell_angle_alpha                90
_cell_angle_beta                 90
_cell_angle_gamma                90
_cell_volume                     1480.83
loop_
_atom_site_label
_atom_site_type_symbol
_atom_site_fract_x
_atom_site_fract_y
_atom_site_fract_z
C1 C 0.2243(8) 0.6096(4) 0.4043(3)
C2 C 0.2402(8) 0.5343(4) 0.3379(3)
C3 C 0.4192(9) 0.5118(5) 0.3021(5)
H1 H 0.5331 0.5410 0.3225
C4 C 0.4310(9) 0.4483(5) 0.2381(4)
H2 H 0.5532 0.4330 0.2158
C5 C 0.0714(9) 0.4893(5) 0.3071(4)
C6 C 0.0845(9) 0.4253(5) 0.2405(4)
C7 C 0.2623(8) 0.4049(4) 0.2047(3)
C8 C 0.2769(8) 0.3443(4) 0.1295(3)
O2 O 0.1157(5) 0.3126(3) 0.0996(2)
O3 O 0.0564(6) 0.6321(3) 0.4302(3)
O4 O 0.4428(6) 0.3284(3) 0.0991(2)
O5 O 0.3845(5) 0.6473(3) 0.4286(3)
V2 V 0.43546(10) 0.76454(5) 0.49852(7)
V4 V 0.56454(10) 0.26454(5) 0.00148(7)
O1 O 0.2835(4) 0.1898(2) 0.9900(2)
V1 V 0.06454(10) 0.23546(5) 0.99852(7)
O9 O 0.1155(5) 0.3527(3) 0.9286(3)
H3 H 0.9501 0.5022 0.3312
H4 H 0.9712 0.3958 0.2198
O6 O 0.7835(4) 0.3102(2) 0.0100(2)
O7 O 0.9436(6) 0.1321(3) 0.0698(3)
V3 V 0.93546(10) 0.73546(5) 0.50148(7)
O8 O 0.9428(6) 0.1716(3) 0.9009(2)
C1_2 C 0.2757(8) 0.3904(4) 0.9043(3)
C2_2 C 0.2598(8) 0.4657(4) 0.8379(3)
C3_2 C 0.0808(9) 0.4882(5) 0.8021(5)
C4_2 C 0.0690(9) 0.5517(5) 0.7381(4)
C5_2 C 0.4286(9) 0.5107(5) 0.8071(4)
H3_2 H 0.5499 0.4978 0.8312
C6_2 C 0.4155(9) 0.5747(5) 0.7405(4)
H4_2 H 0.5288 0.6042 0.7198
C7_2 C 0.2377(8) 0.5951(4) 0.7047(3)
C8_2 C 0.2231(8) 0.6557(4) 0.6295(3)
O1_2 O 0.2165(4) 0.8102(2) 0.4900(2)
O2_2 O 0.3843(5) 0.6874(3) 0.5996(2)
O3_2 O 0.4436(6) 0.3679(3) 0.9302(3)
O4_2 O 0.0572(6) 0.6716(3) 0.5991(2)
O6_2 O 0.7165(4) 0.6898(2) 0.5100(2)
O7_2 O 0.5564(6) 0.8679(3) 0.5698(3)
O8_2 O 0.5572(6) 0.8284(3) 0.4009(2)
H1_2 H 0.9669 0.4590 0.8225
H2_2 H 0.9468 0.5670 0.7158
H4_3 H 0.0288 0.8958 0.2802
C1_3 C 0.7757(8) 0.1096(4) 0.0957(3)
C2_3 C 0.7598(8) 0.0343(4) 0.1621(3)
C3_3 C 0.5808(9) 0.0118(5) 0.1979(5)
H1_3 H 0.4669 0.0410 0.1775
O5_2 O 0.6155(5) 0.1473(3) 0.0714(3)
C4_3 C 0.5690(9) 0.9483(5) 0.2619(4)
H2_3 H 0.4468 0.9330 0.2842
C5_3 C 0.9286(9) 0.9893(5) 0.1929(4)
C6_3 C 0.9155(9) 0.9253(5) 0.2595(4)
C7_3 C 0.7377(8) 0.9049(4) 0.2953(3)
C8_3 C 0.7231(8) 0.8443(4) 0.3705(3)
O2_3 O 0.8843(5) 0.8126(3) 0.4004(2)
O9_2 O 0.8845(5) 0.8527(3) 0.5714(3)
H2_4 H 0.0532 0.0670 0.7842
C4_4 C 0.9310(9) 0.0517(5) 0.7619(4)
C5_4 C 0.5714(9) 0.0107(5) 0.6929(4)
C6_4 C 0.5845(9) 0.0747(5) 0.7595(4)
H4_4 H 0.4712 0.1042 0.7802
C7_4 C 0.7623(8) 0.0951(4) 0.7953(3)
C8_4 C 0.7769(8) 0.1557(4) 0.8705(3)
O2_4 O 0.6157(5) 0.1874(3) 0.9004(2)
C1_4 C 0.7243(8) 0.8904(4) 0.5957(3)
C2_4 C 0.7402(8) 0.9657(4) 0.6621(3)
C3_4 C 0.9192(9) 0.9882(5) 0.6979(5)
H3_3 H 0.4501 0.9978 0.6688
H3_4 H 0.0499 0.0022 0.1688
H1_4 H 0.0331 0.9590 0.6775
loop_
_geom_bond_atom_site_label_1
_geom_bond_atom_site_label_2
_geom_bond_site_symmetry_1
_geom_bond_site_symmetry_2
C1 C2 1_555 1_555
C2 C3 1_555 1_555
C3 H1 1_555 1_555
C4 C3 1_555 1_555
H2 C4 1_555 1_555
C5 C2 1_555 1_555
C6 C5 1_555 1_555
C7 C4 1_555 1_555
C8 C7 1_555 1_555
O2 C8 1_555 1_555
O3 C1 1_555 1_555
O4 C8 1_555 1_555
O5 C1 1_555 1_555
V2 O5 1_555 1_555
C6 C7 1_555 1_555
O4 V4 1_555 1_555
O1 V1 1_555 1_555
O9 V1 1_555 1_555
C1_2 C2_2 1_555 1_555
C2_2 C3_2 1_555 1_555
C4_2 C3_2 1_555 1_555
C5_2 C2_2 1_555 1_555
H3_2 C5_2 1_555 1_555
C6_2 C5_2 1_555 1_555
H4_2 C6_2 1_555 1_555
C7_2 C4_2 1_555 1_555
C8_2 C7_2 1_555 1_555
O1_2 V2 1_555 1_555
O2_2 C8_2 1_555 1_555
O3_2 C1_2 1_555 1_555
O4_2 C8_2 1_555 1_555
O9 C1_2 1_555 1_555
V2 O2_2 1_555 1_555
O6_2 V2 1_555 1_555
O7_2 V2 1_555 1_555
O8_2 V2 1_555 1_555
C6_2 C7_2 1_555 1_555
C1_3 C2_3 1_555 1_555
C2_3 C3_3 1_555 1_555
C3_3 H1_3 1_555 1_555
O7 C1_3 1_555 1_555
O5_2 C1_3 1_555 1_555
V4 O5_2 1_555 1_555
H2_3 C4_3 1_555 1_555
C6_3 C5_3 1_555 1_555
C7_3 C4_3 1_555 1_555
C8_3 C7_3 1_555 1_555
O6_2 V3 1_555 1_555
O2_3 C8_3 1_555 1_555
O8_2 C8_3 1_555 1_555
V3 O2_3 1_555 1_555
O9_2 V3 1_555 1_555
C6_3 C7_3 1_555 1_555
O6 V4 1_555 1_555
C6_4 C5_4 1_555 1_555
H4_4 C6_4 1_555 1_555
C7_4 C4_4 1_555 1_555
C8_4 C7_4 1_555 1_555
O2_4 C8_4 1_555 1_555
O8 C8_4 1_555 1_555
C6_4 C7_4 1_555 1_555
C1_4 C2_4 1_555 1_555
C2_4 C3_4 1_555 1_555
O7_2 C1_4 1_555 1_555
O9_2 C1_4 1_555 1_555

#END
