
###############################################################################
#
# This file contains modified crystal structure data generated from the
# MOF subset of the Cambridge Structural Database (CSD) v543 
# hosted by the Cambridge Crystallographic Data Centre (CCDC).
#
# This work is licensed under the Creative Commons
# Attribution-NonCommercial-ShareAlike 4.0 International License.
# To view a copy of this license, visit
# http://creativecommons.org/licenses/by-nc-sa/4.0/
# or send a letter to
# Creative Commons, PO Box 1866, Mountain View, CA 94042, USA.
#
# CIF created using the CSD Python API on 29 September 2022
# The structure has been converted into the P1 space group
# The structure has a 3D framework
# The original CSD entry JUMDAY is in the orthorhombic crystal system
# The original CSD entry JUMDAY is in a Sohncke space group
# The framework has been calculated to contain at least 10.0% void space
# The void calculation uses a probe of radius 1.32A, grid spacing 0.4
#
###############################################################################

data_JUMDAY
_chemical_formula_moiety         '(C32 H16 O18 V2)n'
_symmetry_cell_setting           triclinic
_symmetry_space_group_name_H-M   'P 1'
_symmetry_Int_Tables_number      1
_space_group_name_Hall           'P 1'
loop_
_symmetry_equiv_pos_site_id
_symmetry_equiv_pos_as_xyz
1 x,y,z
_cell_length_a                   6.7999(4)
_cell_length_b                   12.7002(8)
_cell_length_c                   16.6802(10)
_cell_angle_alpha                90
_cell_angle_beta                 90
_cell_angle_gamma                90
_cell_volume                     1440.5
loop_
_atom_site_label
_atom_site_type_symbol
_atom_site_fract_x
_atom_site_fract_y
_atom_site_fract_z
H3 H 0.0490 0.0169 0.8390
H4 H 0.0283 0.1207 0.7249
O1 O 0.2825(3) 0.81331(16) 0.01264(12)
V1 V 0.06350(6) 0.76592(3) 0.00184(3)
O9 O 0.1141(3) 0.63644(18) 0.06416(14)
O8 O 0.1148(3) 0.69260(19) 0.89927(13)
V5 V 0.56350(6) 0.73408(3) 0.99816(3)
C4 C 0.5664(5) 0.0617(3) 0.7414(2)
H2 H 0.4452 0.0744 0.7174
C5 C 0.9283(5) 0.0273(3) 0.8140(2)
C6 C 0.9157(5) 0.0894(3) 0.7457(2)
C7 C 0.7360(5) 0.1050(3) 0.70874(18)
C8 C 0.7254(4) 0.1628(2) 0.63098(17)
O2 O 0.5577(3) 0.17480(18) 0.60049(12)
O4 O 0.8852(3) 0.19260(19) 0.60073(13)
V2 V 0.43650(6) 0.23408(3) 0.50184(3)
V3 V 0.93650(6) 0.26592(3) 0.49816(3)
O7 O 0.9423(3) 0.82520(18) 0.10049(12)
C1 C 0.7737(4) 0.9028(2) 0.91146(17)
C2 C 0.7594(5) 0.9807(2) 0.84470(18)
C3 C 0.5771(5) 0.9999(3) 0.8093(2)
H1 H 0.4634 0.9713 0.8313
O3 O 0.9420(3) 0.87963(18) 0.93690(13)
O5 O 0.6141(3) 0.86356(18) 0.93584(14)
O6 O 0.7825(3) 0.68669(16) 0.98736(12)
H2_2 H 0.0548 0.9256 0.2174
C1_2 C 0.7263(4) 0.0972(2) 0.41146(17)
C2_2 C 0.7406(5) 0.0193(2) 0.34470(18)
C3_2 C 0.9229(5) 0.0001(3) 0.3093(2)
O1_2 O 0.2175(3) 0.18669(16) 0.51264(12)
O3_2 O 0.5580(3) 0.12037(18) 0.43690(13)
O5_2 O 0.8859(3) 0.13644(18) 0.43584(14)
O6_2 O 0.7175(3) 0.31331(16) 0.48736(12)
O8_2 O 0.3852(3) 0.30740(19) 0.39927(13)
O9_2 O 0.3859(3) 0.36356(18) 0.56416(14)
C4_2 C 0.9336(5) 0.9383(3) 0.2414(2)
C5_2 C 0.5717(5) 0.9727(3) 0.3140(2)
H3_2 H 0.4510 0.9831 0.3390
C6_2 C 0.5843(5) 0.9106(3) 0.2457(2)
H4_2 H 0.4717 0.8793 0.2249
C7_2 C 0.7640(5) 0.8950(3) 0.20874(18)
C8_2 C 0.7746(4) 0.8372(2) 0.13098(17)
O4_2 O 0.6148(3) 0.80740(19) 0.10073(13)
C1_3 C 0.2263(4) 0.4028(2) 0.58854(17)
C2_3 C 0.2406(5) 0.4807(2) 0.65530(18)
C3_3 C 0.4229(5) 0.4999(3) 0.6907(2)
H1_2 H 0.5366 0.4713 0.6687
C4_3 C 0.4336(5) 0.5617(3) 0.7586(2)
H2_3 H 0.5548 0.5744 0.7826
C5_3 C 0.0717(5) 0.5273(3) 0.6860(2)
C6_3 C 0.0843(5) 0.5894(3) 0.7543(2)
C7_3 C 0.2640(5) 0.6050(3) 0.79126(18)
C8_3 C 0.2746(4) 0.6628(2) 0.86902(17)
O2_2 O 0.4423(3) 0.67480(18) 0.89951(12)
O3_3 O 0.0580(3) 0.37963(18) 0.56310(13)
O7_2 O 0.0577(3) 0.32520(18) 0.39951(12)
H3_3 H 0.9510 0.5169 0.6610
H4_3 H 0.9717 0.6207 0.7751
C1_4 C 0.2737(4) 0.5972(2) 0.08854(17)
C2_4 C 0.2594(5) 0.5193(2) 0.15530(18)
C3_4 C 0.0771(5) 0.5001(3) 0.1907(2)
C4_4 C 0.0664(5) 0.4383(3) 0.2586(2)
C5_4 C 0.4283(5) 0.4727(3) 0.1860(2)
H3_4 H 0.5490 0.4831 0.1610
C6_4 C 0.4157(5) 0.4106(3) 0.2543(2)
H4_4 H 0.5283 0.3793 0.2751
C7_4 C 0.2360(5) 0.3950(3) 0.29126(18)
C8_4 C 0.2254(4) 0.3372(2) 0.36902(17)
O3_4 O 0.4420(3) 0.62037(18) 0.06310(13)
H1_3 H 0.9634 0.5287 0.1687
H2_4 H 0.9452 0.4256 0.2826
H1_4 H 0.0366 0.0287 0.3313
loop_
_geom_bond_atom_site_label_1
_geom_bond_atom_site_label_2
_geom_bond_site_symmetry_1
_geom_bond_site_symmetry_2
O1 V1 1_555 1_555
O9 V1 1_555 1_555
H2 C4 1_555 1_555
C6 C5 1_555 1_555
C7 C4 1_555 1_555
C8 C7 1_555 1_555
O2 C8 1_555 1_555
O4 C8 1_555 1_555
V2 O2 1_555 1_555
V3 O4 1_555 1_555
C6 C7 1_555 1_555
C1 C2 1_555 1_555
C2 C3 1_555 1_555
C3 H1 1_555 1_555
O3 C1 1_555 1_555
O5 C1 1_555 1_555
V5 O5 1_555 1_555
O6 V5 1_555 1_555
C1_2 C2_2 1_555 1_555
C2_2 C3_2 1_555 1_555
O1_2 V2 1_555 1_555
O3_2 C1_2 1_555 1_555
O5_2 C1_2 1_555 1_555
V2 O3_2 1_555 1_555
O6_2 V2 1_555 1_555
O8_2 V2 1_555 1_555
O9_2 V2 1_555 1_555
V3 O5_2 1_555 1_555
O6_2 V3 1_555 1_555
H3_2 C5_2 1_555 1_555
C6_2 C5_2 1_555 1_555
H4_2 C6_2 1_555 1_555
C7_2 C4_2 1_555 1_555
C8_2 C7_2 1_555 1_555
O7 C8_2 1_555 1_555
O4_2 C8_2 1_555 1_555
C6_2 C7_2 1_555 1_555
C1_3 C2_3 1_555 1_555
C2_3 C3_3 1_555 1_555
C3_3 H1_2 1_555 1_555
C4_3 C3_3 1_555 1_555
H2_3 C4_3 1_555 1_555
C5_3 C2_3 1_555 1_555
C6_3 C5_3 1_555 1_555
C7_3 C4_3 1_555 1_555
C8_3 C7_3 1_555 1_555
O2_2 C8_3 1_555 1_555
O3_3 C1_3 1_555 1_555
O8 C8_3 1_555 1_555
O9_2 C1_3 1_555 1_555
V5 O2_2 1_555 1_555
C6_3 C7_3 1_555 1_555
C1_4 C2_4 1_555 1_555
C2_4 C3_4 1_555 1_555
C4_4 C3_4 1_555 1_555
C5_4 C2_4 1_555 1_555
H3_4 C5_4 1_555 1_555
C6_4 C5_4 1_555 1_555
H4_4 C6_4 1_555 1_555
C7_4 C4_4 1_555 1_555
C8_4 C7_4 1_555 1_555
O7_2 C8_4 1_555 1_555
O3_4 C1_4 1_555 1_555
O8_2 C8_4 1_555 1_555
O9 C1_4 1_555 1_555
C6_4 C7_4 1_555 1_555

#END
