
###############################################################################
#
# This file contains modified crystal structure data generated from the
# MOF subset of the Cambridge Structural Database (CSD) v543 
# hosted by the Cambridge Crystallographic Data Centre (CCDC).
#
# This work is licensed under the Creative Commons
# Attribution-NonCommercial-ShareAlike 4.0 International License.
# To view a copy of this license, visit
# http://creativecommons.org/licenses/by-nc-sa/4.0/
# or send a letter to
# Creative Commons, PO Box 1866, Mountain View, CA 94042, USA.
#
# CIF created using the CSD Python API on 29 September 2022
# The structure has been converted into the P1 space group
# The structure has a 3D framework
# The original CSD entry JUMRUH is in the rhombohedral crystal system
# The framework has been calculated to contain at least 10.0% void space
# The void calculation uses a probe of radius 1.32A, grid spacing 0.4
#
###############################################################################

data_JUMRUH
_chemical_formula_moiety         '(C270 H216 Cu26 I25 N54 P18)n'
_symmetry_cell_setting           triclinic
_symmetry_space_group_name_H-M   'P 1'
_symmetry_Int_Tables_number      1
_space_group_name_Hall           'P 1'
loop_
_symmetry_equiv_pos_site_id
_symmetry_equiv_pos_as_xyz
1 x,y,z
_cell_length_a                   30.672(10)
_cell_length_b                   30.672(10)
_cell_length_c                   11.631(4)
_cell_angle_alpha                90
_cell_angle_beta                 90
_cell_angle_gamma                120
_cell_volume                     9476.15
loop_
_atom_site_label
_atom_site_type_symbol
_atom_site_fract_x
_atom_site_fract_y
_atom_site_fract_z
I1 I 0.38039(3) 0.22651(2) 0.27831(5)
I2 I 0.22615(3) 0.19074(3) 0.21706(6)
Cu1 Cu 0.28615(5) 0.15224(5) 0.25166(10)
Cu2 Cu 0.19769(5) 0.21509(5) 0.39487(11)
P1 P 0.25727(9) 0.09734(8) 0.39798(19)
N1 N 0.1693(3) 0.0133(3) 0.4730(7)
N2 N 0.2742(3) 0.0268(3) 0.5048(6)
N3 N 0.2431(3) 0.0934(3) 0.6322(7)
C1 C 0.2919(3) 0.0635(3) 0.4247(7)
C2 C 0.3367(4) 0.0799(3) 0.3678(8)
H1 H 0.348171 0.106034 0.314795
C3 C 0.3644(4) 0.0567(4) 0.3912(8)
H2 H 0.395184 0.067386 0.355043
C4 C 0.3463(4) 0.0184(4) 0.4672(9)
H3 H 0.364203 0.001982 0.482813
C5 C 0.3006(4) 0.0036(4) 0.5222(9)
C6 C 0.1915(4) 0.0455(3) 0.3850(8)
C7 C 0.1661(4) 0.0415(4) 0.2850(9)
H5 H 0.181977 0.064321 0.225532
C8 C 0.1182(5) 0.0042(6) 0.2734(12)
H6 H 0.101168 0.000485 0.204726
C11 C 0.2591(3) 0.1238(3) 0.5431(8)
C12 C 0.2765(4) 0.1749(4) 0.5523(8)
H9 H 0.286590 0.195221 0.487278
C13 C 0.2786(5) 0.1948(4) 0.6578(9)
H10 H 0.291205 0.229234 0.666524
C14 C 0.2618(5) 0.1635(4) 0.7506(9)
H11 H 0.261563 0.176117 0.823210
C15 C 0.2449(5) 0.1126(4) 0.7356(9)
H12 H 0.234683 0.091464 0.799411
I3 I 0.28628(3) 0.10682(2) 0.05502(5)
Cu3 Cu 0.38052(5) 0.18109(5) 0.08167(10)
Cu4 Cu 0.21509(5) 0.01740(7) 0.60513(11)
N4 N 0.1560(4) 0.1693(3) 0.5270(7)
N5 N 0.2474(4) 0.2742(3) 0.4952(6)
N6 N 0.1497(4) 0.2431(3) 0.3678(7)
I1_2 I 0.17945(4) 0.28628(3) 0.94498(5)
I2_2 I 0.29792(4) 0.44052(3) 0.88373(6)
Cu1_2 Cu 0.19942(7) 0.38052(5) 0.91833(10)
H1_2 H 0.091196 0.318496 0.981462
C7_2 C 0.2087(6) 0.5006(4) 0.9517(9)
H5_2 H 0.215677 0.484690 0.892199
C8_2 C 0.2193(8) 0.5485(5) 0.9401(12)
H6_2 H 0.232650 0.565499 0.871393
I3_2 I 0.15388(4) 0.38039(3) 0.72169(5)
Cu3_2 Cu 0.13391(7) 0.28615(5) 0.74834(10)
I2_3 I 0.03541(4) 0.22615(3) 0.78294(6)
P1_2 P 0.15993(12) 0.25727(9) 0.60202(19)
C1_2 C 0.2284(4) 0.2919(3) 0.5753(7)
C2_2 C 0.2568(5) 0.3367(4) 0.6322(8)
H1_3 H 0.242137 0.348171 0.685205
C3_2 C 0.3077(6) 0.3644(4) 0.6088(8)
H2_2 H 0.327798 0.395184 0.644957
C4_2 C 0.3279(6) 0.3463(4) 0.5328(9)
H3_2 H 0.362221 0.364203 0.517187
C5_2 C 0.2970(6) 0.3006(4) 0.4778(9)
H4 H 0.311531 0.288075 0.427127
C6_2 C 0.1460(5) 0.1915(4) 0.6150(8)
C7_3 C 0.1246(6) 0.1661(4) 0.7150(9)
H5_3 H 0.117656 0.181977 0.774468
C8_3 C 0.1140(8) 0.1182(5) 0.7266(12)
H6_3 H 0.100683 0.101168 0.795274
C9 C 0.1228(7) 0.0940(5) 0.6364(12)
H7 H 0.114508 0.060439 0.640712
C10 C 0.1443(6) 0.1225(4) 0.5413(11)
H8 H 0.151353 0.107174 0.480720
C11_2 C 0.1353(4) 0.2591(3) 0.4569(8)
C12_2 C 0.1016(6) 0.2765(4) 0.4477(8)
H9_2 H 0.091369 0.286590 0.512722
C13_2 C 0.0838(6) 0.2786(5) 0.3422(9)
H10_2 H 0.061971 0.291205 0.333476
C14_2 C 0.0983(6) 0.2618(5) 0.2494(9)
H11_2 H 0.085446 0.261563 0.176790
C15_2 C 0.1323(6) 0.2449(5) 0.2644(9)
H12_2 H 0.143219 0.234683 0.200589
I2_4 I 0.44052(3) 0.14259(3) 0.11627(6)
H1_4 H 0.318496 0.227299 0.018538
C7_4 C 0.5006(4) 0.2918(4) 0.0483(9)
H5_4 H 0.484690 0.269012 0.107801
C8_4 C 0.5485(5) 0.3291(6) 0.0599(12)
H6_4 H 0.565499 0.332848 0.128607
H4_2 H 0.288075 0.976544 0.572873
C9_2 C 0.0940(5) 0.9712(5) 0.3636(12)
H7_2 H 0.060439 0.945931 0.359288
C10_2 C 0.1225(4) 0.9782(4) 0.4587(11)
H8_2 H 0.107174 0.955821 0.519280
H4_3 H 0.023456 0.311531 0.572873
C9_3 C 0.0288(5) 0.1228(7) 0.3636(12)
H7_3 H 0.054069 0.114508 0.359288
C10_3 C 0.0218(4) 0.1443(6) 0.4587(11)
H8_3 H 0.044179 0.151353 0.519280
I1_3 I 0.77349(2) 0.15388(4) 0.27831(5)
I2_5 I 0.80926(3) 0.03541(4) 0.21706(6)
Cu1_3 Cu 0.84776(5) 0.13391(7) 0.25166(10)
P1_3 P 0.90266(8) 0.15993(12) 0.39798(19)
N1_2 N 0.9867(3) 0.1560(4) 0.4730(7)
N2_2 N 0.9732(3) 0.2474(4) 0.5048(6)
N3_2 N 0.9066(3) 0.1497(4) 0.6322(7)
C1_3 C 0.9365(3) 0.2284(4) 0.4247(7)
C2_3 C 0.9201(3) 0.2568(5) 0.3678(8)
H1_5 H 0.893966 0.242137 0.314795
C3_3 C 0.9433(4) 0.3077(6) 0.3912(8)
H2_3 H 0.932614 0.327798 0.355043
C4_3 C 0.9816(4) 0.3279(6) 0.4672(9)
H3_3 H 0.998018 0.362221 0.482813
C5_3 C 0.9964(4) 0.2970(6) 0.5222(9)
C6_3 C 0.9545(3) 0.1460(5) 0.3850(8)
C7_5 C 0.9585(4) 0.1246(6) 0.2850(9)
H5_5 H 0.935679 0.117656 0.225532
C8_5 C 0.9958(6) 0.1140(8) 0.2734(12)
H6_5 H 0.999515 0.100683 0.204726
C11_3 C 0.8762(3) 0.1353(4) 0.5431(8)
C12_3 C 0.8251(4) 0.1016(6) 0.5523(8)
H9_3 H 0.804779 0.091369 0.487278
C13_3 C 0.8052(4) 0.0838(6) 0.6578(9)
H10_3 H 0.770766 0.061971 0.666524
C14_3 C 0.8365(4) 0.0983(6) 0.7506(9)
H11_3 H 0.823883 0.085446 0.823210
C15_3 C 0.8874(4) 0.1323(6) 0.7356(9)
H12_3 H 0.908536 0.143219 0.799411
I3_3 I 0.89318(2) 0.17945(4) 0.05502(5)
Cu3_3 Cu 0.81891(5) 0.19942(7) 0.08167(10)
Cu4_2 Cu 0.98260(7) 0.19769(9) 0.60513(11)
I2_6 I 0.85741(3) 0.29792(4) 0.11627(6)
H1_6 H 0.772701 0.091196 0.018538
C7_6 C 0.7082(4) 0.2087(6) 0.0483(9)
H5_6 H 0.730988 0.215677 0.107801
C8_6 C 0.6709(6) 0.2193(8) 0.0599(12)
H6_6 H 0.667152 0.232650 0.128607
Cu2_2 Cu 0.78491(5) 0.98260(7) 0.39487(11)
N4_2 N 0.8307(3) 0.9867(5) 0.5270(7)
N5_2 N 0.7258(3) 0.9732(5) 0.4952(6)
N6_2 N 0.7569(3) 0.9066(5) 0.3678(7)
I1_4 I 0.84612(4) 0.61961(3) 0.27831(5)
I2_7 I 0.96459(4) 0.77385(3) 0.21706(6)
Cu1_4 Cu 0.86609(7) 0.71385(5) 0.25166(10)
P1_4 P 0.84007(12) 0.74273(9) 0.39798(19)
N1_3 N 0.8440(4) 0.8307(3) 0.4730(7)
N2_3 N 0.7526(4) 0.7258(3) 0.5048(6)
N3_3 N 0.8503(4) 0.7569(3) 0.6322(7)
C1_4 C 0.7716(4) 0.7081(3) 0.4247(7)
C2_4 C 0.7432(5) 0.6633(4) 0.3678(8)
H1_7 H 0.757863 0.651829 0.314795
C3_4 C 0.6923(6) 0.6356(4) 0.3912(8)
H2_4 H 0.672202 0.604816 0.355043
C4_4 C 0.6721(6) 0.6537(4) 0.4672(9)
H3_4 H 0.637779 0.635797 0.482813
C5_4 C 0.7030(6) 0.6994(4) 0.5222(9)
H4_4 H 0.688469 0.711925 0.572873
C6_4 C 0.8540(5) 0.8085(4) 0.3850(8)
C7_7 C 0.8754(6) 0.8339(4) 0.2850(9)
H5_7 H 0.882344 0.818023 0.225532
C8_7 C 0.8860(8) 0.8818(5) 0.2734(12)
H6_7 H 0.899317 0.898832 0.204726
C9_4 C 0.8772(7) 0.9060(5) 0.3636(12)
H7_4 H 0.885492 0.939561 0.359288
C10_4 C 0.8557(6) 0.8775(4) 0.4587(11)
H8_4 H 0.848647 0.892826 0.519280
C11_4 C 0.8647(4) 0.7409(3) 0.5431(8)
C12_4 C 0.8984(6) 0.7235(4) 0.5523(8)
H9_4 H 0.908631 0.713410 0.487278
C13_4 C 0.9162(6) 0.7214(5) 0.6578(9)
H10_4 H 0.938029 0.708795 0.666524
C14_4 C 0.9017(6) 0.7382(5) 0.7506(9)
H11_4 H 0.914554 0.738437 0.823210
C15_4 C 0.8677(6) 0.7551(5) 0.7356(9)
H12_4 H 0.856781 0.765317 0.799411
I3_4 I 0.82055(4) 0.71372(3) 0.05502(5)
Cu3_4 Cu 0.80058(7) 0.61948(5) 0.08167(10)
Cu4_3 Cu 0.80231(9) 0.78491(5) 0.60513(11)
I1_5 I 0.71372(3) 0.89318(2) 0.94498(5)
I2_8 I 0.55948(3) 0.85741(3) 0.88373(6)
Cu1_5 Cu 0.61948(5) 0.81891(5) 0.91833(10)
H1_8 H 0.681504 0.772701 0.981462
C7_8 C 0.4994(4) 0.7082(4) 0.9517(9)
H5_8 H 0.515310 0.730988 0.892199
C8_8 C 0.4515(5) 0.6709(6) 0.9401(12)
H6_8 H 0.434501 0.667152 0.871393
I3_5 I 0.61961(3) 0.77349(2) 0.72169(5)
Cu3_5 Cu 0.71385(5) 0.84776(5) 0.74834(10)
I2_9 I 0.77385(3) 0.80926(3) 0.78294(6)
P1_5 P 0.74273(9) 0.90266(8) 0.60202(19)
C1_5 C 0.7081(3) 0.9365(3) 0.5753(7)
C2_5 C 0.6633(4) 0.9201(3) 0.6322(8)
H1_9 H 0.651829 0.893966 0.685205
C3_5 C 0.6356(4) 0.9433(4) 0.6088(8)
H2_5 H 0.604816 0.932614 0.644957
C4_5 C 0.6537(4) 0.9816(4) 0.5328(9)
H3_5 H 0.635797 0.998018 0.517187
C5_5 C 0.6994(4) 0.9964(4) 0.4778(9)
C6_5 C 0.8085(4) 0.9545(3) 0.6150(8)
C7_9 C 0.8339(4) 0.9585(4) 0.7150(9)
H5_9 H 0.818023 0.935679 0.774468
C8_9 C 0.8818(5) 0.9958(6) 0.7266(12)
H6_9 H 0.898832 0.999515 0.795274
C11_5 C 0.7409(3) 0.8762(3) 0.4569(8)
C12_5 C 0.7235(4) 0.8251(4) 0.4477(8)
H9_5 H 0.713410 0.804779 0.512722
C13_5 C 0.7214(5) 0.8052(4) 0.3422(9)
H10_5 H 0.708795 0.770766 0.333476
C14_5 C 0.7382(5) 0.8365(4) 0.2494(9)
H11_5 H 0.738437 0.823883 0.176790
C15_5 C 0.7551(5) 0.8874(4) 0.2644(9)
H12_5 H 0.765317 0.908536 0.200589
I2_10 I 0.70208(4) 0.55948(3) 0.11627(6)
H1_10 H 0.908804 0.681504 0.018538
C7_10 C 0.7913(6) 0.4994(4) 0.0483(9)
H5_10 H 0.784323 0.515310 0.107801
C8_10 C 0.7807(8) 0.4515(5) 0.0599(12)
H6_10 H 0.767350 0.434501 0.128607
Cu2_3 Cu 0.01740(7) 0.80231(5) 0.39487(11)
N4_3 N 0.0133(5) 0.8440(4) 0.5270(7)
N5_3 N 0.0268(5) 0.7526(4) 0.4952(6)
N6_3 N 0.0934(5) 0.8503(4) 0.3678(7)
I1_6 I 0.10682(2) 0.82055(4) 0.94498(5)
I2_11 I 0.14259(3) 0.70208(4) 0.88373(6)
Cu1_6 Cu 0.18109(5) 0.80058(7) 0.91833(10)
H1_11 H 0.227299 0.908804 0.981462
C7_11 C 0.2918(4) 0.7913(6) 0.9517(9)
H5_11 H 0.269012 0.784323 0.892199
C8_11 C 0.3291(6) 0.7807(8) 0.9401(12)
H6_11 H 0.332848 0.767350 0.871393
I3_6 I 0.22651(2) 0.84612(4) 0.72169(5)
Cu3_6 Cu 0.15224(5) 0.86609(7) 0.74834(10)
I2_12 I 0.19074(3) 0.96459(4) 0.78294(6)
P1_6 P 0.09734(8) 0.84007(12) 0.60202(19)
C1_6 C 0.0635(3) 0.7716(4) 0.5753(7)
C2_6 C 0.0799(3) 0.7432(5) 0.6322(8)
H1_12 H 0.106034 0.757863 0.685205
C3_6 C 0.0567(4) 0.6923(6) 0.6088(8)
H2_6 H 0.067386 0.672202 0.644957
C4_6 C 0.0184(4) 0.6721(6) 0.5328(9)
H3_6 H 0.001982 0.637779 0.517187
C5_6 C 0.0036(4) 0.7030(6) 0.4778(9)
C6_6 C 0.0455(3) 0.8540(5) 0.6150(8)
C7_12 C 0.0415(4) 0.8754(6) 0.7150(9)
H5_12 H 0.064321 0.882344 0.774468
C8_12 C 0.0042(6) 0.8860(8) 0.7266(12)
H6_12 H 0.000485 0.899317 0.795274
C11_6 C 0.1238(3) 0.8647(4) 0.4569(8)
C12_6 C 0.1749(4) 0.8984(6) 0.4477(8)
H9_6 H 0.195221 0.908631 0.512722
C13_6 C 0.1948(4) 0.9162(6) 0.3422(9)
H10_6 H 0.229234 0.938029 0.333476
C14_6 C 0.1635(4) 0.9017(6) 0.2494(9)
H11_6 H 0.176117 0.914554 0.176790
C15_6 C 0.1126(4) 0.8677(6) 0.2644(9)
H12_6 H 0.091464 0.856781 0.200589
I1_7 I 0.04706(3) 0.55984(2) 0.61164(5)
C2_7 C 0.0034(4) 0.4132(3) 0.7011(8)
H1_13 H 0.014838 0.439367 0.648128
C3_7 C 0.0311(4) 0.3900(4) 0.7245(8)
H2_7 H 0.061851 0.400719 0.688376
C4_7 C 0.0130(4) 0.3517(4) 0.8005(9)
H3_7 H 0.030870 0.335315 0.816146
Cu3_7 Cu 0.04718(5) 0.51443(5) 0.41501(10)
I2_13 I 0.89282(3) 0.52407(3) 0.55039(6)
Cu1_7 Cu 0.95282(5) 0.48557(5) 0.58499(10)
Cu2_4 Cu 0.86436(5) 0.54842(5) 0.72820(11)
P1_7 P 0.92394(9) 0.43067(8) 0.73131(19)
N1_4 N 0.8360(3) 0.3466(3) 0.8063(7)
N2_4 N 0.9409(3) 0.3601(3) 0.8381(6)
N3_4 N 0.9098(3) 0.4267(3) 0.9655(7)
C1_7 C 0.9586(3) 0.3968(3) 0.7580(7)
C5_7 C 0.9673(4) 0.3369(4) 0.8555(9)
H4_5 H 0.954742 0.309877 0.906206
C6_7 C 0.8582(4) 0.3788(3) 0.7183(8)
C7_13 C 0.8328(4) 0.3748(4) 0.6183(9)
H5_13 H 0.848644 0.397654 0.558865
C8_13 C 0.7849(5) 0.3375(6) 0.6067(12)
H6_13 H 0.767835 0.333818 0.538059
C9_5 C 0.7607(5) 0.3045(5) 0.6969(12)
H7_5 H 0.727106 0.279264 0.692621
C10_5 C 0.7892(4) 0.3115(4) 0.7920(11)
H8_5 H 0.773841 0.289154 0.852613
C11_7 C 0.9258(3) 0.4571(3) 0.8764(8)
C12_7 C 0.9432(4) 0.5082(4) 0.8856(8)
H9_7 H 0.953257 0.528554 0.820611
C13_7 C 0.9453(5) 0.5281(4) 0.9911(9)
H10_7 H 0.957872 0.562567 0.999857
I3_7 I 0.95294(3) 0.44016(2) 0.38836(5)
Cu4_4 Cu 0.88176(5) 0.35073(7) 0.93846(11)
N4_4 N 0.8227(4) 0.5026(3) 0.8603(7)
N5_4 N 0.9141(4) 0.6075(3) 0.8285(6)
N6_4 N 0.8164(4) 0.5764(3) 0.7011(7)
I1_8 I 0.44016(2) 0.48721(4) 0.61164(5)
I2_14 I 0.47593(3) 0.36874(4) 0.55039(6)
Cu1_8 Cu 0.51443(5) 0.46724(7) 0.58499(10)
Cu2_5 Cu 0.45158(5) 0.31593(7) 0.72820(11)
P1_8 P 0.56933(8) 0.49326(12) 0.73131(19)
N1_5 N 0.6534(3) 0.4893(4) 0.8063(7)
N2_5 N 0.6399(3) 0.5807(4) 0.8381(6)
N3_5 N 0.5733(3) 0.4830(4) 0.9655(7)
C1_8 C 0.6032(3) 0.5617(4) 0.7580(7)
C2_8 C 0.5868(3) 0.5901(5) 0.7011(8)
H1_14 H 0.560633 0.575470 0.648128
C3_8 C 0.6100(4) 0.6410(6) 0.7245(8)
H2_8 H 0.599281 0.661131 0.688376
C4_8 C 0.6483(4) 0.6612(6) 0.8005(9)
H3_8 H 0.664685 0.695554 0.816146
C5_8 C 0.6631(4) 0.6303(6) 0.8555(9)
H4_6 H 0.690123 0.644864 0.906206
C6_8 C 0.6212(3) 0.4793(5) 0.7183(8)
C7_14 C 0.6252(4) 0.4579(6) 0.6183(9)
H5_14 H 0.602346 0.450989 0.558865
C8_14 C 0.6625(6) 0.4473(8) 0.6067(12)
H6_14 H 0.666182 0.434016 0.538059
C9_6 C 0.6955(5) 0.4561(7) 0.6969(12)
H7_6 H 0.720736 0.447841 0.692621
C10_6 C 0.6885(4) 0.4776(6) 0.7920(11)
H8_6 H 0.710846 0.484686 0.852613
C11_8 C 0.5429(3) 0.4686(4) 0.8764(8)
C12_8 C 0.4918(4) 0.4349(6) 0.8856(8)
H9_8 H 0.471446 0.424702 0.820611
C13_8 C 0.4719(4) 0.4171(6) 0.9911(9)
H10_8 H 0.437433 0.395304 0.999857
I3_8 I 0.55984(2) 0.51279(4) 0.38836(5)
Cu3_8 Cu 0.48557(5) 0.53276(7) 0.41501(10)
Cu4_5 Cu 0.64927(7) 0.53102(9) 0.93846(11)
N4_5 N 0.4974(3) 0.3200(5) 0.8603(7)
N5_5 N 0.3925(3) 0.3065(5) 0.8285(6)
N6_5 N 0.4236(3) 0.2399(5) 0.7011(7)
I2_15 I 0.63126(4) 0.10718(3) 0.55039(6)
Cu1_9 Cu 0.53276(7) 0.04718(5) 0.58499(10)
Cu2_6 Cu 0.68407(7) 0.13564(5) 0.72820(11)
P1_9 P 0.50674(12) 0.07606(9) 0.73131(19)
N1_6 N 0.5107(4) 0.1640(3) 0.8063(7)
N2_6 N 0.4193(4) 0.0591(3) 0.8381(6)
N3_6 N 0.5170(4) 0.0902(3) 0.9655(7)
C1_9 C 0.4383(4) 0.0414(3) 0.7580(7)
C5_9 C 0.3697(6) 0.0327(4) 0.8555(9)
H4_7 H 0.355136 0.045258 0.906206
C6_9 C 0.5207(5) 0.1418(4) 0.7183(8)
C7_15 C 0.5421(6) 0.1672(4) 0.6183(9)
H5_15 H 0.549011 0.151356 0.558865
C8_15 C 0.5527(8) 0.2151(5) 0.6067(12)
H6_15 H 0.565984 0.232165 0.538059
C9_7 C 0.5439(7) 0.2393(5) 0.6969(12)
H7_7 H 0.552159 0.272894 0.692621
C10_7 C 0.5224(6) 0.2108(4) 0.7920(11)
H8_7 H 0.515314 0.226159 0.852613
C11_9 C 0.5314(4) 0.0742(3) 0.8764(8)
C12_9 C 0.5651(6) 0.0568(4) 0.8856(8)
H9_9 H 0.575298 0.046743 0.820611
C13_9 C 0.5829(6) 0.0547(5) 0.9911(9)
H10_9 H 0.604696 0.042128 0.999857
I3_9 I 0.48721(4) 0.04706(3) 0.38836(5)
Cu4_6 Cu 0.46898(9) 0.11824(5) 0.93846(11)
N4_6 N 0.6800(5) 0.1773(4) 0.8603(7)
N5_6 N 0.6935(5) 0.0859(4) 0.8285(6)
N6_6 N 0.7601(5) 0.1836(4) 0.7011(7)
I1_9 I 0.51279(4) 0.95294(3) 0.61164(5)
C2_9 C 0.4099(5) 0.9966(4) 0.7011(8)
H1_15 H 0.424530 0.985162 0.648128
C3_9 C 0.3590(6) 0.9689(4) 0.7245(8)
H2_9 H 0.338869 0.938149 0.688376
C4_9 C 0.3388(6) 0.9870(4) 0.8005(9)
H3_9 H 0.304446 0.969130 0.816146
Cu3_9 Cu 0.46724(7) 0.95282(5) 0.41501(10)
Cu2_7 Cu 0.53102(5) 0.88176(5) 0.06154(11)
P1_10 P 0.59060(9) 0.76401(8) 0.06465(19)
N1_7 N 0.5026(3) 0.6800(3) 0.1397(7)
N2_7 N 0.6075(3) 0.6935(3) 0.1715(6)
N3_7 N 0.5764(3) 0.7601(3) 0.2989(7)
C1_10 C 0.6252(3) 0.7302(3) 0.0914(7)
C2_10 C 0.6700(4) 0.7466(3) 0.0345(8)
C3_10 C 0.6977(4) 0.7234(4) 0.0579(8)
H2_10 H 0.728517 0.734053 0.021710
C4_10 C 0.6796(4) 0.6851(4) 0.1339(9)
H3_10 H 0.697536 0.668649 0.149480
C5_10 C 0.6339(4) 0.6703(4) 0.1889(9)
H4_8 H 0.621408 0.643211 0.239540
C6_10 C 0.5248(4) 0.7122(3) 0.0517(8)
C9_8 C 0.4273(5) 0.6379(5) 0.0303(12)
H7_8 H 0.393772 0.612598 0.025955
C10_8 C 0.4558(4) 0.6449(4) 0.1254(11)
H8_8 H 0.440507 0.622488 0.185947
C11_10 C 0.5924(3) 0.7905(3) 0.2098(8)
C12_10 C 0.6098(4) 0.8416(4) 0.2190(8)
H9_10 H 0.619923 0.861888 0.153945
C13_10 C 0.6119(5) 0.8615(4) 0.3245(9)
H10_10 H 0.624538 0.895901 0.333191
C14_7 C 0.5951(5) 0.8302(4) 0.4173(9)
H11_7 H 0.594896 0.842784 0.489877
C15_7 C 0.5782(5) 0.7793(4) 0.4023(9)
H12_7 H 0.568016 0.758131 0.466078
Cu4_7 Cu 0.54842(5) 0.68407(7) 0.27180(11)
N4_7 N 0.4893(4) 0.8360(3) 0.1937(7)
N5_7 N 0.5807(4) 0.9409(3) 0.1619(6)
N6_7 N 0.4830(4) 0.9098(3) 0.0345(7)
Cu2_8 Cu 0.11824(5) 0.64927(7) 0.06154(11)
P1_11 P 0.23599(8) 0.82660(12) 0.06465(19)
N1_8 N 0.3200(3) 0.8227(4) 0.1397(7)
N2_8 N 0.3065(3) 0.9141(4) 0.1715(6)
N3_8 N 0.2399(3) 0.8164(4) 0.2989(7)
C1_11 C 0.2698(3) 0.8951(4) 0.0914(7)
C2_11 C 0.2534(3) 0.9235(5) 0.0345(8)
C3_11 C 0.2766(4) 0.9744(6) 0.0579(8)
H2_11 H 0.265947 0.994465 0.021710
C4_11 C 0.3149(4) 0.9946(6) 0.1339(9)
C5_11 C 0.3297(4) 0.9637(6) 0.1889(9)
H4_9 H 0.356789 0.978198 0.239540
C6_11 C 0.2878(3) 0.8127(5) 0.0517(8)
C9_9 C 0.3621(5) 0.7895(7) 0.0303(12)
H7_9 H 0.387402 0.781175 0.025955
C10_9 C 0.3551(4) 0.8110(6) 0.1254(11)
H8_9 H 0.377512 0.818020 0.185947
C11_11 C 0.2095(3) 0.8020(4) 0.2098(8)
C12_11 C 0.1584(4) 0.7683(6) 0.2190(8)
H9_11 H 0.138112 0.758036 0.153945
C13_11 C 0.1385(4) 0.7505(6) 0.3245(9)
H10_11 H 0.104099 0.728638 0.333191
C14_8 C 0.1698(4) 0.7650(6) 0.4173(9)
H11_8 H 0.157216 0.752113 0.489877
C15_8 C 0.2207(4) 0.7990(6) 0.4023(9)
H12_8 H 0.241869 0.809886 0.466078
Cu4_8 Cu 0.31593(7) 0.86436(9) 0.27180(11)
N4_8 N 0.1640(3) 0.6534(5) 0.1937(7)
N5_8 N 0.0591(3) 0.6399(5) 0.1619(6)
N6_8 N 0.0902(3) 0.5733(5) 0.0345(7)
Cu2_9 Cu 0.35073(7) 0.46898(5) 0.06154(11)
P1_12 P 0.17340(12) 0.40940(9) 0.06465(19)
N1_9 N 0.1773(4) 0.4974(3) 0.1397(7)
N2_9 N 0.0859(4) 0.3925(3) 0.1715(6)
N3_9 N 0.1836(4) 0.4236(3) 0.2989(7)
C1_12 C 0.1049(4) 0.3748(3) 0.0914(7)
C2_12 C 0.0765(5) 0.3300(4) 0.0345(8)
C3_12 C 0.0256(6) 0.3023(4) 0.0579(8)
H2_12 H 0.005535 0.271483 0.021710
C4_12 C 0.0054(6) 0.3204(4) 0.1339(9)
C5_12 C 0.0363(6) 0.3661(4) 0.1889(9)
H4_10 H 0.021802 0.378592 0.239540
C6_12 C 0.1873(5) 0.4752(4) 0.0517(8)
C9_10 C 0.2105(7) 0.5727(5) 0.0303(12)
H7_10 H 0.218825 0.606228 0.025955
C10_10 C 0.1890(6) 0.5442(4) 0.1254(11)
H8_10 H 0.181980 0.559493 0.185947
C11_12 C 0.1980(4) 0.4076(3) 0.2098(8)
C12_12 C 0.2317(6) 0.3902(4) 0.2190(8)
H9_12 H 0.241964 0.380077 0.153945
C13_12 C 0.2495(6) 0.3881(5) 0.3245(9)
H10_12 H 0.271362 0.375462 0.333191
C14_9 C 0.2350(6) 0.4049(5) 0.4173(9)
H11_9 H 0.247887 0.405104 0.489877
C15_9 C 0.2010(6) 0.4218(5) 0.4023(9)
H12_9 H 0.190114 0.431984 0.466078
Cu4_9 Cu 0.13564(9) 0.45158(5) 0.27180(11)
N4_9 N 0.3466(5) 0.5107(4) 0.1937(7)
N5_9 N 0.3601(5) 0.4193(4) 0.1619(6)
N6_9 N 0.4267(5) 0.5170(4) 0.0345(7)
I2_16 I 0.10718(3) 0.47593(3) 0.44961(6)
P1_13 P 0.07606(9) 0.56933(8) 0.26869(19)
C1_13 C 0.0414(3) 0.6032(3) 0.2420(7)
C5_13 C 0.0327(4) 0.6631(4) 0.1445(9)
H4_11 H 0.045258 0.690123 0.093794
C6_13 C 0.1418(4) 0.6212(3) 0.2817(8)
C7_16 C 0.1672(4) 0.6252(4) 0.3817(9)
H5_16 H 0.151356 0.602346 0.441135
C8_16 C 0.2151(5) 0.6625(6) 0.3933(12)
H6_16 H 0.232165 0.666182 0.461941
C9_11 C 0.2393(5) 0.6955(5) 0.3031(12)
H7_11 H 0.272894 0.720736 0.307379
C10_11 C 0.2108(4) 0.6885(4) 0.2080(11)
H8_11 H 0.226159 0.710846 0.147387
C11_13 C 0.0742(3) 0.5429(3) 0.1236(8)
C12_13 C 0.0568(4) 0.4918(4) 0.1144(8)
H9_13 H 0.046743 0.471446 0.179389
C13_13 C 0.0547(5) 0.4719(4) 0.0089(9)
H10_13 H 0.042128 0.437433 0.000143
C2_13 C 0.9966(4) 0.5868(3) 0.2989(8)
H1_16 H 0.985162 0.560633 0.351872
C3_13 C 0.9689(4) 0.6100(4) 0.2755(8)
H2_13 H 0.938149 0.599281 0.311624
C4_13 C 0.9870(4) 0.6483(4) 0.1995(9)
H3_11 H 0.969130 0.664685 0.183854
I2_17 I 0.52407(3) 0.63126(4) 0.44961(6)
P1_14 P 0.43067(8) 0.50674(12) 0.26869(19)
C1_14 C 0.3968(3) 0.4383(4) 0.2420(7)
C2_14 C 0.4132(3) 0.4099(5) 0.2989(8)
H1_17 H 0.439367 0.424530 0.351872
C3_14 C 0.3900(4) 0.3590(6) 0.2755(8)
H2_14 H 0.400719 0.338869 0.311624
C4_14 C 0.3517(4) 0.3388(6) 0.1995(9)
H3_12 H 0.335315 0.304446 0.183854
C5_14 C 0.3369(4) 0.3697(6) 0.1445(9)
H4_12 H 0.309877 0.355136 0.093794
C6_14 C 0.3788(3) 0.5207(5) 0.2817(8)
C7_17 C 0.3748(4) 0.5421(6) 0.3817(9)
H5_17 H 0.397654 0.549011 0.441135
C8_17 C 0.3375(6) 0.5527(8) 0.3933(12)
H6_17 H 0.333818 0.565984 0.461941
C9_12 C 0.3045(5) 0.5439(7) 0.3031(12)
H7_12 H 0.279264 0.552159 0.307379
C10_12 C 0.3115(4) 0.5224(6) 0.2080(11)
H8_12 H 0.289154 0.515314 0.147387
C11_14 C 0.4571(3) 0.5314(4) 0.1236(8)
C12_14 C 0.5082(4) 0.5651(6) 0.1144(8)
H9_14 H 0.528554 0.575298 0.179389
C13_14 C 0.5281(4) 0.5829(6) 0.0089(9)
H10_14 H 0.562567 0.604696 0.000143
C2_15 C 0.5901(5) 0.0034(4) 0.2989(8)
H1_18 H 0.575470 0.014838 0.351872
C3_15 C 0.6410(6) 0.0311(4) 0.2755(8)
H2_15 H 0.661131 0.061851 0.311624
C4_15 C 0.6612(6) 0.0130(4) 0.1995(9)
H3_13 H 0.695554 0.030870 0.183854
I2_18 I 0.36874(4) 0.89282(3) 0.44961(6)
P1_15 P 0.49326(12) 0.92394(9) 0.26869(19)
C1_15 C 0.5617(4) 0.9586(3) 0.2420(7)
C5_15 C 0.6303(6) 0.9673(4) 0.1445(9)
H4_13 H 0.644864 0.954742 0.093794
C6_15 C 0.4793(5) 0.8582(4) 0.2817(8)
C7_18 C 0.4579(6) 0.8328(4) 0.3817(9)
H5_18 H 0.450989 0.848644 0.441135
C8_18 C 0.4473(8) 0.7849(5) 0.3933(12)
H6_18 H 0.434016 0.767835 0.461941
C9_13 C 0.4561(7) 0.7607(5) 0.3031(12)
H7_13 H 0.447841 0.727106 0.307379
C10_13 C 0.4776(6) 0.7892(4) 0.2080(11)
H8_13 H 0.484686 0.773841 0.147387
C11_15 C 0.4686(4) 0.9258(3) 0.1236(8)
C12_15 C 0.4349(6) 0.9432(4) 0.1144(8)
H9_15 H 0.424702 0.953257 0.179389
C13_15 C 0.4171(6) 0.9453(5) 0.0089(9)
H10_15 H 0.395304 0.957872 0.000143
P1_16 P 0.40940(9) 0.23599(8) 0.93535(19)
C1_16 C 0.3748(3) 0.2698(3) 0.9086(7)
C2_16 C 0.3300(4) 0.2534(3) 0.9655(8)
C3_16 C 0.3023(4) 0.2766(4) 0.9421(8)
H2_16 H 0.271483 0.265947 0.978290
C4_16 C 0.3204(4) 0.3149(4) 0.8661(9)
H3_14 H 0.302464 0.331351 0.850520
C5_16 C 0.3661(4) 0.3297(4) 0.8111(9)
H4_14 H 0.378592 0.356789 0.760460
C6_16 C 0.4752(4) 0.2878(3) 0.9483(8)
C9_14 C 0.5727(5) 0.3621(5) 0.9697(12)
H7_14 H 0.606228 0.387402 0.974045
C10_14 C 0.5442(4) 0.3551(4) 0.8746(11)
H8_14 H 0.559493 0.377512 0.814053
C11_16 C 0.4076(3) 0.2095(3) 0.7902(8)
C12_16 C 0.3902(4) 0.1584(4) 0.7810(8)
H9_16 H 0.380077 0.138112 0.846055
C13_16 C 0.3881(5) 0.1385(4) 0.6755(9)
H10_16 H 0.375462 0.104099 0.666809
C14_10 C 0.4049(5) 0.1698(4) 0.5827(9)
H11_10 H 0.405104 0.157216 0.510123
C15_10 C 0.4218(5) 0.2207(4) 0.5977(9)
H12_10 H 0.431984 0.241869 0.533922
P1_17 P 0.76401(8) 0.17340(12) 0.93535(19)
C1_17 C 0.7302(3) 0.1049(4) 0.9086(7)
C2_17 C 0.7466(3) 0.0765(5) 0.9655(8)
C3_17 C 0.7234(4) 0.0256(6) 0.9421(8)
H2_17 H 0.734053 0.005535 0.978290
C4_17 C 0.6851(4) 0.0054(6) 0.8661(9)
C5_17 C 0.6703(4) 0.0363(6) 0.8111(9)
H4_15 H 0.643211 0.021802 0.760460
C6_17 C 0.7122(3) 0.1873(5) 0.9483(8)
C9_15 C 0.6379(5) 0.2105(7) 0.9697(12)
H7_15 H 0.612598 0.218825 0.974045
C10_15 C 0.6449(4) 0.1890(6) 0.8746(11)
H8_15 H 0.622488 0.181980 0.814053
C11_17 C 0.7905(3) 0.1980(4) 0.7902(8)
C12_17 C 0.8416(4) 0.2317(6) 0.7810(8)
H9_17 H 0.861888 0.241964 0.846055
C13_17 C 0.8615(4) 0.2495(6) 0.6755(9)
H10_17 H 0.895901 0.271362 0.666809
C14_11 C 0.8302(4) 0.2350(6) 0.5827(9)
H11_11 H 0.842784 0.247887 0.510123
C15_11 C 0.7793(4) 0.2010(6) 0.5977(9)
H12_11 H 0.758131 0.190114 0.533922
P1_18 P 0.82660(12) 0.59060(9) 0.93535(19)
C1_18 C 0.8951(4) 0.6252(3) 0.9086(7)
C2_18 C 0.9235(5) 0.6700(4) 0.9655(8)
C3_18 C 0.9744(6) 0.6977(4) 0.9421(8)
H2_18 H 0.994465 0.728517 0.978290
C4_18 C 0.9946(6) 0.6796(4) 0.8661(9)
C5_18 C 0.9637(6) 0.6339(4) 0.8111(9)
H4_16 H 0.978198 0.621408 0.760460
C6_18 C 0.8127(5) 0.5248(4) 0.9483(8)
C9_16 C 0.7895(7) 0.4273(5) 0.9697(12)
H7_16 H 0.781175 0.393772 0.974045
C10_16 C 0.8110(6) 0.4558(4) 0.8746(11)
H8_16 H 0.818020 0.440507 0.814053
C11_18 C 0.8020(4) 0.5924(3) 0.7902(8)
C12_18 C 0.7683(6) 0.6098(4) 0.7810(8)
H9_18 H 0.758036 0.619923 0.846055
C13_18 C 0.7505(6) 0.6119(5) 0.6755(9)
H10_18 H 0.728638 0.624538 0.666809
C14_12 C 0.7650(6) 0.5951(5) 0.5827(9)
H11_12 H 0.752113 0.594896 0.510123
C15_12 C 0.7990(6) 0.5782(5) 0.5977(9)
H12_12 H 0.809886 0.568016 0.533922
C14_13 C 0.9285(5) 0.4968(4) 0.0839(9)
H11_13 H 0.928230 0.509450 0.156543
C15_13 C 0.9116(5) 0.4459(4) 0.0689(9)
H12_13 H 0.901350 0.424797 0.132744
C14_14 C 0.5032(4) 0.4316(6) 0.0839(9)
H11_14 H 0.490550 0.418779 0.156543
C15_14 C 0.5541(4) 0.4656(6) 0.0689(9)
H12_14 H 0.575203 0.476552 0.132744
C14_15 C 0.5684(6) 0.0715(5) 0.0839(9)
H11_15 H 0.581221 0.071770 0.156543
C15_15 C 0.5344(6) 0.0884(5) 0.0689(9)
H12_15 H 0.523448 0.098650 0.132744
H3_15 H 0.331351 0.028888 0.149480
H3_16 H 0.971112 0.302464 0.149480
H4_17 H 0.711925 0.023456 0.427127
C9_17 C 0.9060(5) 0.0288(5) 0.6364(12)
H7_17 H 0.939561 0.054069 0.640712
C10_17 C 0.8775(4) 0.0218(4) 0.5413(11)
H8_17 H 0.892826 0.044179 0.480720
H4_18 H 0.976544 0.688469 0.427127
C9_18 C 0.9712(5) 0.8772(7) 0.6364(12)
H7_18 H 0.945931 0.885492 0.640712
C10_18 C 0.9782(4) 0.8557(6) 0.5413(11)
H8_18 H 0.955821 0.848647 0.480720
C14_16 C 0.0715(5) 0.5032(4) 0.9161(9)
H11_16 H 0.071770 0.490550 0.843457
C15_16 C 0.0884(5) 0.5541(4) 0.9311(9)
H12_16 H 0.098650 0.575203 0.867256
C14_17 C 0.4968(4) 0.5684(6) 0.9161(9)
H11_17 H 0.509450 0.581221 0.843457
C15_17 C 0.4459(4) 0.5344(6) 0.9311(9)
H12_17 H 0.424797 0.523448 0.867256
C14_18 C 0.4316(6) 0.9285(5) 0.9161(9)
H11_18 H 0.418779 0.928230 0.843457
C15_18 C 0.4656(6) 0.9116(5) 0.9311(9)
H12_18 H 0.476552 0.901350 0.867256
H3_17 H 0.668649 0.971112 0.850520
H3_18 H 0.028888 0.697536 0.850520
loop_
_geom_bond_atom_site_label_1
_geom_bond_atom_site_label_2
_geom_bond_site_symmetry_1
_geom_bond_site_symmetry_2
I1 Cu1 1_555 1_555
I2 Cu1 1_555 1_555
Cu1 P1 1_555 1_555
Cu2 I2 1_555 1_555
P1 C1 1_555 1_555
N1 C6 1_555 1_555
N2 C1 1_555 1_555
N3 C11 1_555 1_555
C1 C2 1_555 1_555
C2 H1 1_555 1_555
C3 C2 1_555 1_555
H2 C3 1_555 1_555
C4 C3 1_555 1_555
H3 C4 1_555 1_555
C5 N2 1_555 1_555
C6 P1 1_555 1_555
C7 C6 1_555 1_555
H5 C7 1_555 1_555
C8 C7 1_555 1_555
H6 C8 1_555 1_555
C11 P1 1_555 1_555
C12 C11 1_555 1_555
H9 C12 1_555 1_555
C13 C12 1_555 1_555
H10 C13 1_555 1_555
C14 C13 1_555 1_555
H11 C14 1_555 1_555
C15 N3 1_555 1_555
H12 C15 1_555 1_555
I3 Cu1 1_555 1_555
Cu3 I1 1_555 1_555
Cu4 N1 1_555 1_555
N4 Cu2 1_555 1_555
N5 Cu2 1_555 1_555
N6 Cu2 1_555 1_555
N2 Cu4 1_555 1_555
N3 Cu4 1_555 1_555
C4 C5 1_555 1_555
C14 C15 1_555 1_555
I3 Cu3 1_555 1_555
I1_2 Cu1_2 1_555 1_555
I2_2 Cu1_2 1_555 1_555
H5_2 C7_2 1_555 1_555
C8_2 C7_2 1_555 1_555
H6_2 C8_2 1_555 1_555
I3_2 Cu1_2 1_555 1_555
Cu3_2 I1_2 1_555 1_555
I3_2 Cu3_2 1_555 1_555
I2_3 Cu3_2 1_555 1_555
Cu3_2 P1_2 1_555 1_555
P1_2 C1_2 1_555 1_555
N4 C6_2 1_555 1_555
N5 C1_2 1_555 1_555
N6 C11_2 1_555 1_555
C1_2 C2_2 1_555 1_555
C2_2 H1_3 1_555 1_555
C3_2 C2_2 1_555 1_555
H2_2 C3_2 1_555 1_555
C4_2 C3_2 1_555 1_555
H3_2 C4_2 1_555 1_555
C5_2 N5 1_555 1_555
H4 C5_2 1_555 1_555
C6_2 P1_2 1_555 1_555
C7_3 C6_2 1_555 1_555
H5_3 C7_3 1_555 1_555
C8_3 C7_3 1_555 1_555
H6_3 C8_3 1_555 1_555
C9 C8_3 1_555 1_555
H7 C9 1_555 1_555
C10 N4 1_555 1_555
H8 C10 1_555 1_555
C11_2 P1_2 1_555 1_555
C12_2 C11_2 1_555 1_555
H9_2 C12_2 1_555 1_555
C13_2 C12_2 1_555 1_555
H10_2 C13_2 1_555 1_555
C14_2 C13_2 1_555 1_555
H11_2 C14_2 1_555 1_555
C15_2 N6 1_555 1_555
H12_2 C15_2 1_555 1_555
C4_2 C5_2 1_555 1_555
C9 C10 1_555 1_555
C14_2 C15_2 1_555 1_555
I2_4 Cu3 1_555 1_555
H5_4 C7_4 1_555 1_555
C8_4 C7_4 1_555 1_555
H6_4 C8_4 1_555 1_555
H7_2 C9_2 1_555 1_555
H8_2 C10_2 1_555 1_555
C9_2 C10_2 1_555 1_555
H7_3 C9_3 1_555 1_555
H8_3 C10_3 1_555 1_555
C9_3 C10_3 1_555 1_555
I1_3 Cu1_3 1_555 1_555
I2_5 Cu1_3 1_555 1_555
Cu1_3 P1_3 1_555 1_555
P1_3 C1_3 1_555 1_555
N1_2 C6_3 1_555 1_555
N2_2 C1_3 1_555 1_555
N3_2 C11_3 1_555 1_555
C1_3 C2_3 1_555 1_555
C2_3 H1_5 1_555 1_555
C3_3 C2_3 1_555 1_555
H2_3 C3_3 1_555 1_555
C4_3 C3_3 1_555 1_555
H3_3 C4_3 1_555 1_555
C5_3 N2_2 1_555 1_555
C6_3 P1_3 1_555 1_555
C7_5 C6_3 1_555 1_555
H5_5 C7_5 1_555 1_555
C8_5 C7_5 1_555 1_555
H6_5 C8_5 1_555 1_555
C11_3 P1_3 1_555 1_555
C12_3 C11_3 1_555 1_555
H9_3 C12_3 1_555 1_555
C13_3 C12_3 1_555 1_555
H10_3 C13_3 1_555 1_555
C14_3 C13_3 1_555 1_555
H11_3 C14_3 1_555 1_555
C15_3 N3_2 1_555 1_555
H12_3 C15_3 1_555 1_555
I3_3 Cu1_3 1_555 1_555
Cu3_3 I1_3 1_555 1_555
Cu4_2 N1_2 1_555 1_555
N2_2 Cu4_2 1_555 1_555
N3_2 Cu4_2 1_555 1_555
C4_3 C5_3 1_555 1_555
C14_3 C15_3 1_555 1_555
I3_3 Cu3_3 1_555 1_555
I2_6 Cu3_3 1_555 1_555
H5_6 C7_6 1_555 1_555
C8_6 C7_6 1_555 1_555
H6_6 C8_6 1_555 1_555
N4_2 Cu2_2 1_555 1_555
N5_2 Cu2_2 1_555 1_555
N6_2 Cu2_2 1_555 1_555
I1_4 Cu1_4 1_555 1_555
I2_7 Cu1_4 1_555 1_555
Cu1_4 P1_4 1_555 1_555
P1_4 C1_4 1_555 1_555
N1_3 C6_4 1_555 1_555
N2_3 C1_4 1_555 1_555
N3_3 C11_4 1_555 1_555
C1_4 C2_4 1_555 1_555
C2_4 H1_7 1_555 1_555
C3_4 C2_4 1_555 1_555
H2_4 C3_4 1_555 1_555
C4_4 C3_4 1_555 1_555
H3_4 C4_4 1_555 1_555
C5_4 N2_3 1_555 1_555
H4_4 C5_4 1_555 1_555
C6_4 P1_4 1_555 1_555
C7_7 C6_4 1_555 1_555
H5_7 C7_7 1_555 1_555
C8_7 C7_7 1_555 1_555
H6_7 C8_7 1_555 1_555
C9_4 C8_7 1_555 1_555
H7_4 C9_4 1_555 1_555
C10_4 N1_3 1_555 1_555
H8_4 C10_4 1_555 1_555
C11_4 P1_4 1_555 1_555
C12_4 C11_4 1_555 1_555
H9_4 C12_4 1_555 1_555
C13_4 C12_4 1_555 1_555
H10_4 C13_4 1_555 1_555
C14_4 C13_4 1_555 1_555
H11_4 C14_4 1_555 1_555
C15_4 N3_3 1_555 1_555
H12_4 C15_4 1_555 1_555
I3_4 Cu1_4 1_555 1_555
Cu3_4 I1_4 1_555 1_555
Cu4_3 N1_3 1_555 1_555
N2_3 Cu4_3 1_555 1_555
N3_3 Cu4_3 1_555 1_555
C4_4 C5_4 1_555 1_555
C9_4 C10_4 1_555 1_555
C14_4 C15_4 1_555 1_555
I3_4 Cu3_4 1_555 1_555
I1_5 Cu1_5 1_555 1_555
I2_8 Cu1_5 1_555 1_555
H5_8 C7_8 1_555 1_555
C8_8 C7_8 1_555 1_555
H6_8 C8_8 1_555 1_555
I3_5 Cu1_5 1_555 1_555
Cu3_5 I1_5 1_555 1_555
I3_5 Cu3_5 1_555 1_555
I2_9 Cu3_5 1_555 1_555
Cu3_5 P1_5 1_555 1_555
Cu4_3 I2_9 1_555 1_555
P1_5 C1_5 1_555 1_555
N4_2 C6_5 1_555 1_555
N5_2 C1_5 1_555 1_555
N6_2 C11_5 1_555 1_555
C1_5 C2_5 1_555 1_555
C2_5 H1_9 1_555 1_555
C3_5 C2_5 1_555 1_555
H2_5 C3_5 1_555 1_555
C4_5 C3_5 1_555 1_555
H3_5 C4_5 1_555 1_555
C5_5 N5_2 1_555 1_555
C6_5 P1_5 1_555 1_555
C7_9 C6_5 1_555 1_555
H5_9 C7_9 1_555 1_555
C8_9 C7_9 1_555 1_555
H6_9 C8_9 1_555 1_555
C11_5 P1_5 1_555 1_555
C12_5 C11_5 1_555 1_555
H9_5 C12_5 1_555 1_555
C13_5 C12_5 1_555 1_555
H10_5 C13_5 1_555 1_555
C14_5 C13_5 1_555 1_555
H11_5 C14_5 1_555 1_555
C15_5 N6_2 1_555 1_555
H12_5 C15_5 1_555 1_555
C4_5 C5_5 1_555 1_555
C14_5 C15_5 1_555 1_555
I2_10 Cu3_4 1_555 1_555
H5_10 C7_10 1_555 1_555
C8_10 C7_10 1_555 1_555
H6_10 C8_10 1_555 1_555
N4_3 Cu2_3 1_555 1_555
N5_3 Cu2_3 1_555 1_555
N6_3 Cu2_3 1_555 1_555
I1_6 Cu1_6 1_555 1_555
I2_11 Cu1_6 1_555 1_555
H5_11 C7_11 1_555 1_555
C8_11 C7_11 1_555 1_555
H6_11 C8_11 1_555 1_555
I3_6 Cu1_6 1_555 1_555
Cu3_6 I1_6 1_555 1_555
I3_6 Cu3_6 1_555 1_555
I2_12 Cu3_6 1_555 1_555
Cu3_6 P1_6 1_555 1_555
P1_6 C1_6 1_555 1_555
N4_3 C6_6 1_555 1_555
N5_3 C1_6 1_555 1_555
N6_3 C11_6 1_555 1_555
C1_6 C2_6 1_555 1_555
C2_6 H1_12 1_555 1_555
C3_6 C2_6 1_555 1_555
H2_6 C3_6 1_555 1_555
C4_6 C3_6 1_555 1_555
H3_6 C4_6 1_555 1_555
C5_6 N5_3 1_555 1_555
C6_6 P1_6 1_555 1_555
C7_12 C6_6 1_555 1_555
H5_12 C7_12 1_555 1_555
C8_12 C7_12 1_555 1_555
H6_12 C8_12 1_555 1_555
C11_6 P1_6 1_555 1_555
C12_6 C11_6 1_555 1_555
H9_6 C12_6 1_555 1_555
C13_6 C12_6 1_555 1_555
H10_6 C13_6 1_555 1_555
C14_6 C13_6 1_555 1_555
H11_6 C14_6 1_555 1_555
C15_6 N6_3 1_555 1_555
H12_6 C15_6 1_555 1_555
C4_6 C5_6 1_555 1_555
C14_6 C15_6 1_555 1_555
C2_7 H1_13 1_555 1_555
C3_7 C2_7 1_555 1_555
H2_7 C3_7 1_555 1_555
C4_7 C3_7 1_555 1_555
H3_7 C4_7 1_555 1_555
Cu3_7 I1_7 1_555 1_555
I2_13 Cu1_7 1_555 1_555
Cu1_7 P1_7 1_555 1_555
Cu2_4 I2_13 1_555 1_555
P1_7 C1_7 1_555 1_555
N1_4 C6_7 1_555 1_555
N2_4 C1_7 1_555 1_555
N3_4 C11_7 1_555 1_555
C5_7 N2_4 1_555 1_555
H4_5 C5_7 1_555 1_555
C6_7 P1_7 1_555 1_555
C7_13 C6_7 1_555 1_555
H5_13 C7_13 1_555 1_555
C8_13 C7_13 1_555 1_555
H6_13 C8_13 1_555 1_555
C9_5 C8_13 1_555 1_555
H7_5 C9_5 1_555 1_555
C10_5 N1_4 1_555 1_555
H8_5 C10_5 1_555 1_555
C11_7 P1_7 1_555 1_555
C12_7 C11_7 1_555 1_555
H9_7 C12_7 1_555 1_555
C13_7 C12_7 1_555 1_555
H10_7 C13_7 1_555 1_555
I3_7 Cu1_7 1_555 1_555
Cu4_4 N1_4 1_555 1_555
N4_4 Cu2_4 1_555 1_555
N5_4 Cu2_4 1_555 1_555
N6_4 Cu2_4 1_555 1_555
N2_4 Cu4_4 1_555 1_555
N3_4 Cu4_4 1_555 1_555
C9_5 C10_5 1_555 1_555
I1_8 Cu1_8 1_555 1_555
I2_14 Cu1_8 1_555 1_555
Cu1_8 P1_8 1_555 1_555
Cu2_5 I2_14 1_555 1_555
P1_8 C1_8 1_555 1_555
N1_5 C6_8 1_555 1_555
N2_5 C1_8 1_555 1_555
N3_5 C11_8 1_555 1_555
C1_8 C2_8 1_555 1_555
C2_8 H1_14 1_555 1_555
C3_8 C2_8 1_555 1_555
H2_8 C3_8 1_555 1_555
C4_8 C3_8 1_555 1_555
H3_8 C4_8 1_555 1_555
C5_8 N2_5 1_555 1_555
H4_6 C5_8 1_555 1_555
C6_8 P1_8 1_555 1_555
C7_14 C6_8 1_555 1_555
H5_14 C7_14 1_555 1_555
C8_14 C7_14 1_555 1_555
H6_14 C8_14 1_555 1_555
C9_6 C8_14 1_555 1_555
H7_6 C9_6 1_555 1_555
C10_6 N1_5 1_555 1_555
H8_6 C10_6 1_555 1_555
C11_8 P1_8 1_555 1_555
C12_8 C11_8 1_555 1_555
H9_8 C12_8 1_555 1_555
C13_8 C12_8 1_555 1_555
H10_8 C13_8 1_555 1_555
I3_8 Cu1_8 1_555 1_555
Cu3_8 I1_8 1_555 1_555
Cu4_5 N1_5 1_555 1_555
N4_5 Cu2_5 1_555 1_555
N5_5 Cu2_5 1_555 1_555
N6_5 Cu2_5 1_555 1_555
N2_5 Cu4_5 1_555 1_555
N3_5 Cu4_5 1_555 1_555
C4_8 C5_8 1_555 1_555
C9_6 C10_6 1_555 1_555
I3_8 Cu3_8 1_555 1_555
I2_15 Cu1_9 1_555 1_555
Cu1_9 P1_9 1_555 1_555
Cu2_6 I2_15 1_555 1_555
P1_9 C1_9 1_555 1_555
N1_6 C6_9 1_555 1_555
N2_6 C1_9 1_555 1_555
N3_6 C11_9 1_555 1_555
C5_9 N2_6 1_555 1_555
H4_7 C5_9 1_555 1_555
C6_9 P1_9 1_555 1_555
C7_15 C6_9 1_555 1_555
H5_15 C7_15 1_555 1_555
C8_15 C7_15 1_555 1_555
H6_15 C8_15 1_555 1_555
C9_7 C8_15 1_555 1_555
H7_7 C9_7 1_555 1_555
C10_7 N1_6 1_555 1_555
H8_7 C10_7 1_555 1_555
C11_9 P1_9 1_555 1_555
C12_9 C11_9 1_555 1_555
H9_9 C12_9 1_555 1_555
C13_9 C12_9 1_555 1_555
H10_9 C13_9 1_555 1_555
I3_9 Cu1_9 1_555 1_555
Cu4_6 N1_6 1_555 1_555
N4_6 Cu2_6 1_555 1_555
N5_6 Cu2_6 1_555 1_555
N6_6 Cu2_6 1_555 1_555
N2_6 Cu4_6 1_555 1_555
N3_6 Cu4_6 1_555 1_555
C9_7 C10_7 1_555 1_555
C2_9 H1_15 1_555 1_555
C3_9 C2_9 1_555 1_555
H2_9 C3_9 1_555 1_555
C4_9 C3_9 1_555 1_555
H3_9 C4_9 1_555 1_555
Cu3_9 I1_9 1_555 1_555
P1_10 C1_10 1_555 1_555
N1_7 C6_10 1_555 1_555
N2_7 C1_10 1_555 1_555
N3_7 C11_10 1_555 1_555
C1_10 C2_10 1_555 1_555
C3_10 C2_10 1_555 1_555
H2_10 C3_10 1_555 1_555
C4_10 C3_10 1_555 1_555
H3_10 C4_10 1_555 1_555
C5_10 N2_7 1_555 1_555
H4_8 C5_10 1_555 1_555
C6_10 P1_10 1_555 1_555
H7_8 C9_8 1_555 1_555
C10_8 N1_7 1_555 1_555
H8_8 C10_8 1_555 1_555
C11_10 P1_10 1_555 1_555
C12_10 C11_10 1_555 1_555
H9_10 C12_10 1_555 1_555
C13_10 C12_10 1_555 1_555
H10_10 C13_10 1_555 1_555
C14_7 C13_10 1_555 1_555
H11_7 C14_7 1_555 1_555
C15_7 N3_7 1_555 1_555
H12_7 C15_7 1_555 1_555
Cu4_7 N1_7 1_555 1_555
N4_7 Cu2_7 1_555 1_555
N5_7 Cu2_7 1_555 1_555
N6_7 Cu2_7 1_555 1_555
N2_7 Cu4_7 1_555 1_555
N3_7 Cu4_7 1_555 1_555
C4_10 C5_10 1_555 1_555
C9_8 C10_8 1_555 1_555
C14_7 C15_7 1_555 1_555
P1_11 C1_11 1_555 1_555
N1_8 C6_11 1_555 1_555
N2_8 C1_11 1_555 1_555
N3_8 C11_11 1_555 1_555
C1_11 C2_11 1_555 1_555
C3_11 C2_11 1_555 1_555
H2_11 C3_11 1_555 1_555
C4_11 C3_11 1_555 1_555
C5_11 N2_8 1_555 1_555
H4_9 C5_11 1_555 1_555
C6_11 P1_11 1_555 1_555
H7_9 C9_9 1_555 1_555
C10_9 N1_8 1_555 1_555
H8_9 C10_9 1_555 1_555
C11_11 P1_11 1_555 1_555
C12_11 C11_11 1_555 1_555
H9_11 C12_11 1_555 1_555
C13_11 C12_11 1_555 1_555
H10_11 C13_11 1_555 1_555
C14_8 C13_11 1_555 1_555
H11_8 C14_8 1_555 1_555
C15_8 N3_8 1_555 1_555
H12_8 C15_8 1_555 1_555
Cu4_8 N1_8 1_555 1_555
N4_8 Cu2_8 1_555 1_555
N5_8 Cu2_8 1_555 1_555
N6_8 Cu2_8 1_555 1_555
N2_8 Cu4_8 1_555 1_555
N3_8 Cu4_8 1_555 1_555
C4_11 C5_11 1_555 1_555
C9_9 C10_9 1_555 1_555
C14_8 C15_8 1_555 1_555
P1_12 C1_12 1_555 1_555
N1_9 C6_12 1_555 1_555
N2_9 C1_12 1_555 1_555
N3_9 C11_12 1_555 1_555
C1_12 C2_12 1_555 1_555
C3_12 C2_12 1_555 1_555
H2_12 C3_12 1_555 1_555
C4_12 C3_12 1_555 1_555
C5_12 N2_9 1_555 1_555
H4_10 C5_12 1_555 1_555
C6_12 P1_12 1_555 1_555
H7_10 C9_10 1_555 1_555
C10_10 N1_9 1_555 1_555
H8_10 C10_10 1_555 1_555
C11_12 P1_12 1_555 1_555
C12_12 C11_12 1_555 1_555
H9_12 C12_12 1_555 1_555
C13_12 C12_12 1_555 1_555
H10_12 C13_12 1_555 1_555
C14_9 C13_12 1_555 1_555
H11_9 C14_9 1_555 1_555
C15_9 N3_9 1_555 1_555
H12_9 C15_9 1_555 1_555
Cu4_9 N1_9 1_555 1_555
N4_9 Cu2_9 1_555 1_555
N5_9 Cu2_9 1_555 1_555
N6_9 Cu2_9 1_555 1_555
N2_9 Cu4_9 1_555 1_555
N3_9 Cu4_9 1_555 1_555
C4_12 C5_12 1_555 1_555
C9_10 C10_10 1_555 1_555
C14_9 C15_9 1_555 1_555
I2_16 Cu3_7 1_555 1_555
Cu3_7 P1_13 1_555 1_555
Cu4_9 I2_16 1_555 1_555
P1_13 C1_13 1_555 1_555
N4_8 C6_13 1_555 1_555
N5_8 C1_13 1_555 1_555
N6_8 C11_13 1_555 1_555
C5_13 N5_8 1_555 1_555
H4_11 C5_13 1_555 1_555
C6_13 P1_13 1_555 1_555
C7_16 C6_13 1_555 1_555
H5_16 C7_16 1_555 1_555
C8_16 C7_16 1_555 1_555
H6_16 C8_16 1_555 1_555
C9_11 C8_16 1_555 1_555
H7_11 C9_11 1_555 1_555
C10_11 N4_8 1_555 1_555
H8_11 C10_11 1_555 1_555
C11_13 P1_13 1_555 1_555
C12_13 C11_13 1_555 1_555
H9_13 C12_13 1_555 1_555
C13_13 C12_13 1_555 1_555
H10_13 C13_13 1_555 1_555
C9_11 C10_11 1_555 1_555
C2_13 H1_16 1_555 1_555
C3_13 C2_13 1_555 1_555
H2_13 C3_13 1_555 1_555
C4_13 C3_13 1_555 1_555
H3_11 C4_13 1_555 1_555
I2_17 Cu3_8 1_555 1_555
Cu3_8 P1_14 1_555 1_555
Cu4_7 I2_17 1_555 1_555
P1_14 C1_14 1_555 1_555
N4_9 C6_14 1_555 1_555
N5_9 C1_14 1_555 1_555
N6_9 C11_14 1_555 1_555
C1_14 C2_14 1_555 1_555
C2_14 H1_17 1_555 1_555
C3_14 C2_14 1_555 1_555
H2_14 C3_14 1_555 1_555
C4_14 C3_14 1_555 1_555
H3_12 C4_14 1_555 1_555
C5_14 N5_9 1_555 1_555
H4_12 C5_14 1_555 1_555
C6_14 P1_14 1_555 1_555
C7_17 C6_14 1_555 1_555
H5_17 C7_17 1_555 1_555
C8_17 C7_17 1_555 1_555
H6_17 C8_17 1_555 1_555
C9_12 C8_17 1_555 1_555
H7_12 C9_12 1_555 1_555
C10_12 N4_9 1_555 1_555
H8_12 C10_12 1_555 1_555
C11_14 P1_14 1_555 1_555
C12_14 C11_14 1_555 1_555
H9_14 C12_14 1_555 1_555
C13_14 C12_14 1_555 1_555
H10_14 C13_14 1_555 1_555
C4_14 C5_14 1_555 1_555
C9_12 C10_12 1_555 1_555
C2_15 H1_18 1_555 1_555
C3_15 C2_15 1_555 1_555
H2_15 C3_15 1_555 1_555
C4_15 C3_15 1_555 1_555
H3_13 C4_15 1_555 1_555
I2_18 Cu3_9 1_555 1_555
Cu3_9 P1_15 1_555 1_555
Cu4_8 I2_18 1_555 1_555
P1_15 C1_15 1_555 1_555
N4_7 C6_15 1_555 1_555
N5_7 C1_15 1_555 1_555
N6_7 C11_15 1_555 1_555
C5_15 N5_7 1_555 1_555
H4_13 C5_15 1_555 1_555
C6_15 P1_15 1_555 1_555
C7_18 C6_15 1_555 1_555
H5_18 C7_18 1_555 1_555
C8_18 C7_18 1_555 1_555
H6_18 C8_18 1_555 1_555
C9_13 C8_18 1_555 1_555
H7_13 C9_13 1_555 1_555
C10_13 N4_7 1_555 1_555
H8_13 C10_13 1_555 1_555
C11_15 P1_15 1_555 1_555
C12_15 C11_15 1_555 1_555
H9_15 C12_15 1_555 1_555
C13_15 C12_15 1_555 1_555
H10_15 C13_15 1_555 1_555
C9_13 C10_13 1_555 1_555
P1_16 C1_16 1_555 1_555
N4_5 C6_16 1_555 1_555
N5_5 C1_16 1_555 1_555
N6_5 C11_16 1_555 1_555
C1_16 C2_16 1_555 1_555
C3_16 C2_16 1_555 1_555
H2_16 C3_16 1_555 1_555
C4_16 C3_16 1_555 1_555
H3_14 C4_16 1_555 1_555
C5_16 N5_5 1_555 1_555
H4_14 C5_16 1_555 1_555
C6_16 P1_16 1_555 1_555
H7_14 C9_14 1_555 1_555
C10_14 N4_5 1_555 1_555
H8_14 C10_14 1_555 1_555
C11_16 P1_16 1_555 1_555
C12_16 C11_16 1_555 1_555
H9_16 C12_16 1_555 1_555
C13_16 C12_16 1_555 1_555
H10_16 C13_16 1_555 1_555
C14_10 C13_16 1_555 1_555
H11_10 C14_10 1_555 1_555
C15_10 N6_5 1_555 1_555
H12_10 C15_10 1_555 1_555
C4_16 C5_16 1_555 1_555
C9_14 C10_14 1_555 1_555
C14_10 C15_10 1_555 1_555
P1_17 C1_17 1_555 1_555
N4_6 C6_17 1_555 1_555
N5_6 C1_17 1_555 1_555
N6_6 C11_17 1_555 1_555
C1_17 C2_17 1_555 1_555
C3_17 C2_17 1_555 1_555
H2_17 C3_17 1_555 1_555
C4_17 C3_17 1_555 1_555
C5_17 N5_6 1_555 1_555
H4_15 C5_17 1_555 1_555
C6_17 P1_17 1_555 1_555
H7_15 C9_15 1_555 1_555
C10_15 N4_6 1_555 1_555
H8_15 C10_15 1_555 1_555
C11_17 P1_17 1_555 1_555
C12_17 C11_17 1_555 1_555
H9_17 C12_17 1_555 1_555
C13_17 C12_17 1_555 1_555
H10_17 C13_17 1_555 1_555
C14_11 C13_17 1_555 1_555
H11_11 C14_11 1_555 1_555
C15_11 N6_6 1_555 1_555
H12_11 C15_11 1_555 1_555
C4_17 C5_17 1_555 1_555
C9_15 C10_15 1_555 1_555
C14_11 C15_11 1_555 1_555
P1_18 C1_18 1_555 1_555
N4_4 C6_18 1_555 1_555
N5_4 C1_18 1_555 1_555
N6_4 C11_18 1_555 1_555
C1_18 C2_18 1_555 1_555
C3_18 C2_18 1_555 1_555
H2_18 C3_18 1_555 1_555
C4_18 C3_18 1_555 1_555
C5_18 N5_4 1_555 1_555
H4_16 C5_18 1_555 1_555
C6_18 P1_18 1_555 1_555
H7_16 C9_16 1_555 1_555
C10_16 N4_4 1_555 1_555
H8_16 C10_16 1_555 1_555
C11_18 P1_18 1_555 1_555
C12_18 C11_18 1_555 1_555
H9_18 C12_18 1_555 1_555
C13_18 C12_18 1_555 1_555
H10_18 C13_18 1_555 1_555
C14_12 C13_18 1_555 1_555
H11_12 C14_12 1_555 1_555
C15_12 N6_4 1_555 1_555
H12_12 C15_12 1_555 1_555
C4_18 C5_18 1_555 1_555
C9_16 C10_16 1_555 1_555
C14_12 C15_12 1_555 1_555
H11_13 C14_13 1_555 1_555
H12_13 C15_13 1_555 1_555
C14_13 C15_13 1_555 1_555
H11_14 C14_14 1_555 1_555
H12_14 C15_14 1_555 1_555
C14_14 C15_14 1_555 1_555
H11_15 C14_15 1_555 1_555
H12_15 C15_15 1_555 1_555
C14_15 C15_15 1_555 1_555
H7_17 C9_17 1_555 1_555
H8_17 C10_17 1_555 1_555
C9_17 C10_17 1_555 1_555
H7_18 C9_18 1_555 1_555
H8_18 C10_18 1_555 1_555
C9_18 C10_18 1_555 1_555
H11_16 C14_16 1_555 1_555
H12_16 C15_16 1_555 1_555
C14_16 C15_16 1_555 1_555
H11_17 C14_17 1_555 1_555
H12_17 C15_17 1_555 1_555
C14_17 C15_17 1_555 1_555
H11_18 C14_18 1_555 1_555
H12_18 C15_18 1_555 1_555
C14_18 C15_18 1_555 1_555

#END
