
###############################################################################
#
# This file contains modified crystal structure data generated from the
# MOF subset of the Cambridge Structural Database (CSD) v543 
# hosted by the Cambridge Crystallographic Data Centre (CCDC).
#
# This work is licensed under the Creative Commons
# Attribution-NonCommercial-ShareAlike 4.0 International License.
# To view a copy of this license, visit
# http://creativecommons.org/licenses/by-nc-sa/4.0/
# or send a letter to
# Creative Commons, PO Box 1866, Mountain View, CA 94042, USA.
#
# CIF created using the CSD Python API on 29 September 2022
# The structure has been converted into the P1 space group
# The structure has a 3D framework
# The original CSD entry JUMSIW is in the rhombohedral crystal system
# The framework has been calculated to contain at least 10.0% void space
# The void calculation uses a probe of radius 1.32A, grid spacing 0.4
#
###############################################################################

data_JUMSIW
_chemical_formula_moiety         '(C270 H220 Cu36 I25 N54 P18)n'
_symmetry_cell_setting           triclinic
_symmetry_space_group_name_H-M   'P 1'
_symmetry_Int_Tables_number      1
_space_group_name_Hall           'P 1'
loop_
_symmetry_equiv_pos_site_id
_symmetry_equiv_pos_as_xyz
1 x,y,z
_cell_length_a                   30.6007(12)
_cell_length_b                   30.6007(12)
_cell_length_c                   11.5359(4)
_cell_angle_alpha                90
_cell_angle_beta                 90
_cell_angle_gamma                120
_cell_volume                     9355.02
loop_
_atom_site_label
_atom_site_type_symbol
_atom_site_fract_x
_atom_site_fract_y
_atom_site_fract_z
Cu1 Cu 0.38032(3) 0.18112(2) 0.58110(5)
Cu2 Cu 0.45174(3) 0.31578(2) 0.22675(6)
I1 I 0.28629(2) 0.10663(2) 0.55451(3)
I2 I 0.47562(2) 0.36926(2) 0.04754(3)
P1 P 0.40920(5) 0.23563(5) 0.43399(11)
N1 N 0.42465(18) 0.24049(17) 0.1977(4)
N2 N 0.49748(17) 0.32018(17) 0.3596(4)
N3 N 0.39231(17) 0.30692(16) 0.3269(4)
C1 C 0.5489(3) 0.3306(3) 0.5665(6)
H1 H 0.566072 0.334497 0.637752
C2 C 0.5732(2) 0.3638(3) 0.4747(6)
H2 H 0.607255 0.390091 0.481149
C3 C 0.4996(2) 0.2919(2) 0.5524(5)
H3 H 0.482853 0.268404 0.613105
C4 C 0.3656(2) 0.3300(2) 0.3086(5)
H4 H 0.378487 0.357404 0.255644
C5 C 0.5458(2) 0.3570(2) 0.3739(6)
H5 H 0.562070 0.379610 0.311312
C6 C 0.3912(3) 0.1384(2) 0.1704(5)
H6 H 0.379875 0.103531 0.160775
C7 C 0.3908(2) 0.1577(2) 0.2799(5)
H7 H 0.379011 0.136364 0.345928
C8 C 0.4244(2) 0.2210(2) 0.0933(5)
H8 H 0.435807 0.242817 0.027957
C9 C 0.3202(2) 0.3160(2) 0.3626(5)
H9 H 0.302458 0.333345 0.346248
C10 C 0.4082(3) 0.1704(2) 0.0771(5)
H10 H 0.408861 0.157864 0.002089
C11 C 0.4083(2) 0.20918(19) 0.2892(4)
C12 C 0.4750(2) 0.28800(19) 0.4493(5)
C13 C 0.3009(2) 0.2764(2) 0.4406(5)
H11 H 0.269369 0.265503 0.477484
C14 C 0.37422(19) 0.26892(19) 0.4050(4)
C15 C 0.3292(2) 0.2528(2) 0.4640(4)
H12 H 0.317683 0.226327 0.519167
Cu3 Cu 0.28635(3) 0.15221(2) 0.75223(5)
Cu4 Cu 0.51445(2) 0.46747(4) 0.08557(5)
I3 I 0.38038(2) 0.22670(2) 0.77882(3)
I4 I 0.43969(3) 0.14229(2) 0.61913(3)
Cu1_2 Cu 0.81888(2) 0.19920(4) 0.58110(5)
Cu2_2 Cu 0.68422(2) 0.13596(4) 0.22675(6)
I1_2 I 0.89337(2) 0.17966(3) 0.55451(3)
I2_2 I 0.63074(2) 0.10636(3) 0.04754(3)
P1_2 P 0.76437(5) 0.17357(7) 0.43399(11)
N1_2 N 0.75951(17) 0.18416(25) 0.1977(4)
N2_2 N 0.67982(17) 0.17730(24) 0.3596(4)
N3_2 N 0.69308(16) 0.08539(23) 0.3269(4)
C1_2 C 0.6694(3) 0.2183(4) 0.5665(6)
H1_2 H 0.665503 0.231575 0.637752
C2_2 C 0.6362(3) 0.2094(4) 0.4747(6)
H2_2 H 0.609909 0.217164 0.481149
C3_2 C 0.7081(2) 0.2077(3) 0.5524(5)
H3_2 H 0.731596 0.214449 0.613105
C4_2 C 0.6700(2) 0.0356(3) 0.3086(5)
H4_2 H 0.642596 0.021083 0.255644
C5_2 C 0.6430(2) 0.1888(3) 0.3739(6)
H5_2 H 0.620390 0.182460 0.311312
C6_2 C 0.8616(2) 0.2528(4) 0.1704(5)
H6_2 H 0.896469 0.276344 0.160775
C7_2 C 0.8423(2) 0.2331(3) 0.2799(5)
H7_2 H 0.863636 0.242647 0.345928
C8_2 C 0.7790(2) 0.2034(3) 0.0933(5)
H8_2 H 0.757183 0.192990 0.027957
C9_2 C 0.6840(2) 0.0042(3) 0.3626(5)
C10_2 C 0.8296(2) 0.2378(4) 0.0771(5)
H10_2 H 0.842136 0.250997 0.002089
C11_2 C 0.79082(19) 0.19912(28) 0.2892(4)
C12_2 C 0.71200(19) 0.18700(28) 0.4493(5)
C13_2 C 0.7236(2) 0.0245(3) 0.4406(5)
H11_2 H 0.734497 0.003866 0.477484
C14_2 C 0.73108(19) 0.10530(27) 0.4050(4)
C15_2 C 0.7472(2) 0.0764(3) 0.4640(4)
H12_2 H 0.773673 0.091356 0.519167
Cu3_2 Cu 0.84779(2) 0.13413(4) 0.75223(5)
Cu4_2 Cu 0.53253(4) 0.04699(4) 0.08557(5)
I3_2 I 0.77330(2) 0.15367(3) 0.77882(3)
I4_2 I 0.85771(2) 0.29741(4) 0.61913(3)
Cu1_3 Cu 0.80080(4) 0.61968(3) 0.58110(5)
Cu2_3 Cu 0.86404(4) 0.54826(3) 0.22675(6)
I1_3 I 0.82034(3) 0.71371(2) 0.55451(3)
I2_3 I 0.89364(3) 0.52438(2) 0.04754(3)
P1_3 P 0.82643(7) 0.59080(5) 0.43399(11)
N1_3 N 0.81584(25) 0.57535(18) 0.1977(4)
N2_3 N 0.82270(24) 0.50252(17) 0.3596(4)
N3_3 N 0.91461(23) 0.60769(17) 0.3269(4)
C1_3 C 0.7817(4) 0.4511(3) 0.5665(6)
H1_3 H 0.768425 0.433928 0.637752
C2_3 C 0.7906(4) 0.4268(2) 0.4747(6)
H2_3 H 0.782836 0.392745 0.481149
C3_3 C 0.7923(3) 0.5004(2) 0.5524(5)
H3_3 H 0.785551 0.517147 0.613105
C4_3 C 0.9644(3) 0.6344(2) 0.3086(5)
H4_3 H 0.978917 0.621513 0.255644
C5_3 C 0.8112(3) 0.4542(2) 0.3739(6)
H5_3 H 0.817540 0.437930 0.311312
C6_3 C 0.7472(4) 0.6088(3) 0.1704(5)
H6_3 H 0.723656 0.620125 0.160775
C7_3 C 0.7669(3) 0.6092(2) 0.2799(5)
H7_3 H 0.757353 0.620989 0.345928
C8_3 C 0.7966(3) 0.5756(2) 0.0933(5)
H8_3 H 0.807010 0.564193 0.027957
C9_3 C 0.9958(3) 0.6798(2) 0.3626(5)
C10_3 C 0.7622(4) 0.5918(3) 0.0771(5)
H10_3 H 0.749003 0.591139 0.002089
C11_3 C 0.80088(28) 0.5917(2) 0.2892(4)
C12_3 C 0.81300(28) 0.5250(2) 0.4493(5)
C13_3 C 0.9755(3) 0.6991(2) 0.4406(5)
H11_3 H 0.996134 0.730631 0.477484
C14_3 C 0.89470(27) 0.62578(19) 0.4050(4)
C15_3 C 0.9236(3) 0.6708(2) 0.4640(4)
H12_3 H 0.908644 0.682317 0.519167
Cu3_3 Cu 0.86587(4) 0.71365(3) 0.75223(5)
Cu4_3 Cu 0.95301(4) 0.48555(2) 0.08557(5)
I3_3 I 0.84633(3) 0.61962(2) 0.77882(3)
I4_3 I 0.70259(4) 0.56031(3) 0.61913(3)
I3_4 I 0.43996(2) 0.48701(3) 0.11216(3)
I2_4 I 0.80895(2) 0.03593(2) 0.71421(3)
H4_4 H 0.711820 0.024071 0.922311
H5_4 H 0.895403 0.046277 0.977979
I2_5 I 0.96407(2) 0.77303(3) 0.71421(3)
H4_5 H 0.975929 0.687750 0.922311
H5_5 H 0.953723 0.849127 0.977979
Cu2_4 Cu 0.19737(4) 0.21493(3) 0.89342(6)
I2_6 I 0.22697(3) 0.19105(2) 0.71421(3)
N1_4 N 0.14917(25) 0.24202(18) 0.8644(4)
N3_4 N 0.24794(23) 0.27436(17) 0.9936(4)
C4_4 C 0.2977(3) 0.3011(2) 0.9753(5)
H4_6 H 0.312250 0.288180 0.922311
H5_6 H 0.150873 0.104597 0.977979
C6_4 C 0.0805(4) 0.2755(3) 0.8371(5)
H6_4 H 0.056989 0.286792 0.827442
C7_4 C 0.1002(3) 0.2759(2) 0.9466(5)
C8_4 C 0.1299(3) 0.2423(2) 0.7600(5)
H8_4 H 0.140343 0.230860 0.694624
C10_4 C 0.0955(4) 0.2585(3) 0.7438(5)
H10_4 H 0.082336 0.257806 0.668756
C11_4 C 0.13421(28) 0.2584(2) 0.9559(4)
Cu2_5 Cu 0.88159(3) 0.35089(2) 0.43992(6)
P1_4 P 0.92413(5) 0.43104(5) 0.23268(11)
N1_5 N 0.90868(18) 0.42618(17) 0.4690(4)
N2_4 N 0.83585(17) 0.34649(17) 0.3071(4)
N3_5 N 0.94102(17) 0.35975(16) 0.3398(4)
C1_4 C 0.7844(3) 0.3361(3) 0.1002(6)
H1_4 H 0.767261 0.332170 0.028915
C2_4 C 0.7601(2) 0.3029(3) 0.1920(6)
H2_4 H 0.726078 0.276576 0.185518
C3_4 C 0.8337(2) 0.3748(2) 0.1143(5)
H3_4 H 0.850480 0.398263 0.053562
C4_5 C 0.9677(2) 0.3367(2) 0.3581(5)
H4_7 H 0.954846 0.309263 0.411023
C5_4 C 0.7875(2) 0.3097(2) 0.2928(6)
H5_7 H 0.771263 0.287057 0.355355
C6_5 C 0.9421(3) 0.5283(2) 0.4963(5)
H6_5 H 0.953458 0.563136 0.505892
C7_5 C 0.9425(2) 0.5090(2) 0.3868(5)
H7_4 H 0.954322 0.530303 0.320739
C8_5 C 0.9089(2) 0.4457(2) 0.5734(5)
H8_5 H 0.897526 0.423850 0.638710
C10_5 C 0.9251(3) 0.4963(2) 0.5896(5)
H10_5 H 0.924472 0.508803 0.664578
C11_5 C 0.9250(2) 0.45749(19) 0.3775(4)
C12_4 C 0.8583(2) 0.37867(19) 0.2174(5)
C14_4 C 0.95911(19) 0.39775(19) 0.2617(4)
Cu2_6 Cu 0.64911(2) 0.53071(4) 0.43992(6)
P1_5 P 0.56896(5) 0.49310(7) 0.23268(11)
N1_6 N 0.57382(17) 0.48251(25) 0.4690(4)
N2_5 N 0.65351(17) 0.48937(24) 0.3071(4)
N3_6 N 0.64025(16) 0.58128(23) 0.3398(4)
C1_5 C 0.6639(3) 0.4484(4) 0.1002(6)
H1_5 H 0.667830 0.435092 0.028915
C2_5 C 0.6971(3) 0.4573(4) 0.1920(6)
H2_5 H 0.723424 0.449503 0.185518
C3_5 C 0.6252(2) 0.4590(3) 0.1143(5)
H3_5 H 0.601737 0.452218 0.053562
C4_6 C 0.6633(2) 0.6311(3) 0.3581(5)
H4_8 H 0.690737 0.645584 0.411023
C5_5 C 0.6903(2) 0.4779(3) 0.2928(6)
H5_8 H 0.712943 0.484207 0.355355
C6_6 C 0.4717(2) 0.4139(4) 0.4963(5)
H6_6 H 0.436864 0.390323 0.505892
C7_6 C 0.4910(2) 0.4336(3) 0.3868(5)
H7_5 H 0.469697 0.424020 0.320739
C8_6 C 0.5543(2) 0.4633(3) 0.5734(5)
H8_6 H 0.576150 0.473677 0.638710
C9_4 C 0.6493(2) 0.6625(3) 0.3041(5)
H9_2 H 0.666678 0.697554 0.320419
C10_6 C 0.5037(2) 0.4289(4) 0.5896(5)
H10_6 H 0.491197 0.415670 0.664578
C11_6 C 0.54251(19) 0.46755(28) 0.3775(4)
C12_5 C 0.62133(19) 0.47967(28) 0.2174(5)
C13_4 C 0.6097(2) 0.6422(3) 0.2261(5)
H11_4 H 0.598836 0.662801 0.189183
C14_5 C 0.60225(19) 0.56137(27) 0.2617(4)
C15_4 C 0.5861(2) 0.5903(3) 0.2027(4)
H12_4 H 0.559660 0.575311 0.147500
Cu2_7 Cu 0.46929(4) 0.11841(3) 0.43992(6)
P1_6 P 0.50690(7) 0.07587(5) 0.23268(11)
N1_7 N 0.51749(25) 0.09132(18) 0.4690(4)
N2_6 N 0.51063(24) 0.16415(17) 0.3071(4)
N3_7 N 0.41872(23) 0.05898(17) 0.3398(4)
C1_6 C 0.5516(4) 0.2156(3) 0.1002(6)
H1_6 H 0.564908 0.232739 0.028915
C2_6 C 0.5427(4) 0.2399(2) 0.1920(6)
H2_6 H 0.550497 0.273922 0.185518
C3_6 C 0.5410(3) 0.1663(2) 0.1143(5)
H3_6 H 0.547782 0.149520 0.053562
C4_7 C 0.3689(3) 0.0323(2) 0.3581(5)
H4_9 H 0.354416 0.045154 0.411023
C5_6 C 0.5221(3) 0.2125(2) 0.2928(6)
H5_9 H 0.515793 0.228737 0.355355
C6_7 C 0.5861(4) 0.0579(3) 0.4963(5)
H6_7 H 0.609677 0.046542 0.505892
C7_7 C 0.5664(3) 0.0575(2) 0.3868(5)
H7_6 H 0.575980 0.045678 0.320739
C8_7 C 0.5367(3) 0.0911(2) 0.5734(5)
H8_7 H 0.526323 0.102474 0.638710
C10_7 C 0.5711(4) 0.0749(3) 0.5896(5)
H10_7 H 0.584330 0.075528 0.664578
C11_7 C 0.53245(28) 0.0750(2) 0.3775(4)
C12_6 C 0.52033(28) 0.1417(2) 0.2174(5)
C14_6 C 0.43863(27) 0.04089(19) 0.2617(4)
P1_7 P 0.25747(5) 0.09770(5) 0.89934(11)
N2_7 N 0.16919(17) 0.01315(17) 0.9737(4)
C1_7 C 0.1178(3) 0.0027(3) 0.7668(6)
C3_7 C 0.1671(2) 0.0414(2) 0.7809(5)
H3_7 H 0.183814 0.064929 0.720228
H7_7 H 0.287656 0.196969 0.987405
C9_5 C 0.3465(2) 0.0173(2) 0.9707(5)
H9_3 H 0.364209 -0.000012 0.987085
C12_7 C 0.1917(2) 0.04533(19) 0.8840(5)
C13_5 C 0.3658(2) 0.0569(2) 0.8927(5)
H11_5 H 0.397298 0.067830 0.855849
C14_7 C 0.29245(19) 0.06441(19) 0.9283(4)
C15_5 C 0.3375(2) 0.0805(2) 0.8693(4)
H12_5 H 0.348984 0.107006 0.814166
P1_8 P 0.90230(5) 0.15976(7) 0.89934(11)
N2_8 N 0.98685(17) 0.15603(24) 0.9737(4)
C1_8 C 0.9973(3) 0.1150(4) 0.7668(6)
C3_8 C 0.9586(2) 0.1256(3) 0.7809(5)
H3_8 H 0.935071 0.118884 0.720228
H7_8 H 0.803031 0.090686 0.987405
C9_6 C 0.9827(2) 0.3291(3) 0.9707(5)
H9_4 H 1.000012 0.364220 0.987085
C12_8 C 0.95467(19) 0.14633(28) 0.8840(5)
C13_6 C 0.9431(2) 0.3088(3) 0.8927(5)
H11_6 H 0.932170 0.329467 0.855849
C14_8 C 0.93559(19) 0.22803(27) 0.9283(4)
C15_6 C 0.9195(2) 0.2569(3) 0.8693(4)
H12_6 H 0.892994 0.241977 0.814166
P1_9 P 0.84024(7) 0.74253(5) 0.89934(11)
N2_9 N 0.84397(24) 0.83081(17) 0.9737(4)
C1_9 C 0.8850(4) 0.8822(3) 0.7668(6)
H1_7 H 0.898242 0.899405 0.695581
C2_7 C 0.8761(4) 0.9065(2) 0.8586(6)
H2_7 H 0.883831 0.940588 0.852184
C3_9 C 0.8744(3) 0.8329(2) 0.7809(5)
H3_9 H 0.881116 0.816186 0.720228
C5_7 C 0.8555(3) 0.8791(2) 0.9594(6)
H7_9 H 0.909314 0.712344 0.987405
C9_7 C 0.6709(3) 0.6535(2) 0.9707(5)
H9_5 H 0.635780 0.635791 0.987085
C12_9 C 0.85367(28) 0.8083(2) 0.8840(5)
C13_7 C 0.6912(3) 0.6342(2) 0.8927(5)
H11_7 H 0.670533 0.602702 0.855849
C14_9 C 0.77197(27) 0.70755(19) 0.9283(4)
C15_7 C 0.7431(3) 0.6625(2) 0.8693(4)
H12_7 H 0.758023 0.651016 0.814166
H9_6 H 0.666655 0.969113 0.346248
H9_7 H 0.030887 0.697542 0.346248
I3_5 I 0.04704(2) 0.56004(2) 0.11216(3)
C9_8 C 0.0131(2) 0.3507(2) 0.3041(5)
H9_8 H 0.030875 0.333322 0.320419
C13_8 C 0.0324(2) 0.3903(2) 0.2261(5)
H11_8 H 0.063964 0.401164 0.189183
C15_8 C 0.0041(2) 0.4139(2) 0.2027(4)
H12_8 H 0.015650 0.440340 0.147500
Cu1_4 Cu 0.04699(3) 0.51445(2) 0.91443(5)
Cu2_8 Cu 0.11841(3) 0.64911(2) 0.56008(6)
I2_7 I 0.14229(2) 0.70259(2) 0.38087(3)
P1_10 P 0.07587(5) 0.56896(5) 0.76732(11)
N1_8 N 0.09132(18) 0.57382(17) 0.5310(4)
N2_10 N 0.16415(17) 0.65351(17) 0.6929(4)
N3_8 N 0.05898(17) 0.64025(16) 0.6602(4)
C1_10 C 0.2156(3) 0.6639(3) 0.8998(6)
H1_8 H 0.232739 0.667830 0.971085
C2_8 C 0.2399(2) 0.6971(3) 0.8080(6)
H2_8 H 0.273922 0.723424 0.814482
C3_10 C 0.1663(2) 0.6252(2) 0.8857(5)
H3_10 H 0.149520 0.601737 0.946438
C4_8 C 0.0323(2) 0.6633(2) 0.6419(5)
H4_10 H 0.045154 0.690737 0.588977
C5_8 C 0.2125(2) 0.6903(2) 0.7072(6)
H5_10 H 0.228737 0.712943 0.644645
C6_8 C 0.0579(3) 0.4717(2) 0.5037(5)
H6_8 H 0.046542 0.436864 0.494108
C7_8 C 0.0575(2) 0.4910(2) 0.6132(5)
H7_10 H 0.045678 0.469697 0.679261
C8_8 C 0.0911(2) 0.5543(2) 0.4266(5)
H8_8 H 0.102474 0.576150 0.361290
C10_8 C 0.0749(3) 0.5037(2) 0.4104(5)
H10_8 H 0.075528 0.491197 0.335422
C11_8 C 0.0750(2) 0.54251(19) 0.6225(4)
C12_10 C 0.1417(2) 0.62133(19) 0.7826(5)
C14_10 C 0.04089(19) 0.60225(19) 0.7383(4)
Cu4_4 Cu 0.18112(2) 0.80080(4) 0.41890(5)
I4_4 I 0.10636(3) 0.47562(2) 0.95246(3)
Cu1_5 Cu 0.48555(2) 0.53253(4) 0.91443(5)
Cu2_9 Cu 0.35089(2) 0.46929(4) 0.56008(6)
I1_4 I 0.56004(2) 0.51299(3) 0.88784(3)
I2_8 I 0.29741(2) 0.43969(3) 0.38087(3)
P1_11 P 0.43104(5) 0.50690(7) 0.76732(11)
N1_9 N 0.42618(17) 0.51749(25) 0.5310(4)
N2_11 N 0.34649(17) 0.51063(24) 0.6929(4)
N3_9 N 0.35975(16) 0.41872(23) 0.6602(4)
C1_11 C 0.3361(3) 0.5516(4) 0.8998(6)
H1_9 H 0.332170 0.564908 0.971085
C2_9 C 0.3029(3) 0.5427(4) 0.8080(6)
H2_9 H 0.276576 0.550497 0.814482
C3_11 C 0.3748(2) 0.5410(3) 0.8857(5)
H3_11 H 0.398263 0.547782 0.946438
C4_9 C 0.3367(2) 0.3689(3) 0.6419(5)
H4_11 H 0.309263 0.354416 0.588977
C5_9 C 0.3097(2) 0.5221(3) 0.7072(6)
H5_11 H 0.287057 0.515793 0.644645
C6_9 C 0.5283(2) 0.5861(4) 0.5037(5)
H6_9 H 0.563136 0.609677 0.494108
C7_9 C 0.5090(2) 0.5664(3) 0.6132(5)
H7_11 H 0.530303 0.575980 0.679261
C8_9 C 0.4457(2) 0.5367(3) 0.4266(5)
H8_9 H 0.423850 0.526323 0.361290
C9_9 C 0.3507(2) 0.3375(3) 0.6959(5)
H9_9 H 0.333322 0.302446 0.679581
C10_9 C 0.4963(2) 0.5711(4) 0.4104(5)
H10_9 H 0.508803 0.584330 0.335422
C11_9 C 0.45749(19) 0.53245(28) 0.6225(4)
C12_11 C 0.37867(19) 0.52033(28) 0.7826(5)
C13_9 C 0.3903(2) 0.3578(3) 0.7739(5)
H11_9 H 0.401164 0.337199 0.810817
C14_11 C 0.39775(19) 0.43863(27) 0.7383(4)
C15_9 C 0.4139(2) 0.4097(3) 0.7973(4)
H12_9 H 0.440340 0.424689 0.852500
Cu4_5 Cu 0.19920(4) 0.38032(4) 0.41890(5)
I4_5 I 0.52438(2) 0.63074(4) 0.95246(3)
Cu1_6 Cu 0.46747(4) 0.95301(3) 0.91443(5)
Cu2_10 Cu 0.53071(4) 0.88159(3) 0.56008(6)
I2_9 I 0.56031(3) 0.85771(2) 0.38087(3)
P1_12 P 0.49310(7) 0.92413(5) 0.76732(11)
N1_10 N 0.48251(25) 0.90868(18) 0.5310(4)
N2_12 N 0.48937(24) 0.83585(17) 0.6929(4)
N3_10 N 0.58128(23) 0.94102(17) 0.6602(4)
C1_12 C 0.4484(4) 0.7844(3) 0.8998(6)
H1_10 H 0.435092 0.767261 0.971085
C2_10 C 0.4573(4) 0.7601(2) 0.8080(6)
H2_10 H 0.449503 0.726078 0.814482
C3_12 C 0.4590(3) 0.8337(2) 0.8857(5)
H3_12 H 0.452218 0.850480 0.946438
C4_10 C 0.6311(3) 0.9677(2) 0.6419(5)
H4_12 H 0.645584 0.954846 0.588977
C5_10 C 0.4779(3) 0.7875(2) 0.7072(6)
H5_12 H 0.484207 0.771263 0.644645
C6_10 C 0.4139(4) 0.9421(3) 0.5037(5)
H6_10 H 0.390323 0.953458 0.494108
C7_10 C 0.4336(3) 0.9425(2) 0.6132(5)
H7_12 H 0.424020 0.954322 0.679261
C8_10 C 0.4633(3) 0.9089(2) 0.4266(5)
H8_10 H 0.473677 0.897526 0.361290
C10_10 C 0.4289(4) 0.9251(3) 0.4104(5)
H10_10 H 0.415670 0.924472 0.335422
C11_10 C 0.46755(28) 0.9250(2) 0.6225(4)
C12_12 C 0.47967(28) 0.8583(2) 0.7826(5)
C14_12 C 0.56137(27) 0.95911(19) 0.7383(4)
Cu4_6 Cu 0.61968(4) 0.81888(2) 0.41890(5)
I4_6 I 0.36926(4) 0.89364(3) 0.95246(3)
Cu1_7 Cu 0.71365(3) 0.84779(2) 0.24777(5)
I1_5 I 0.61962(2) 0.77330(2) 0.22118(3)
P1_13 P 0.74253(5) 0.90230(5) 0.10066(11)
N2_13 N 0.83081(17) 0.98685(17) 0.0263(4)
C1_13 C 0.8822(3) 0.9973(3) 0.2332(6)
C3_13 C 0.8329(2) 0.9586(2) 0.2191(5)
H3_13 H 0.816186 0.935071 0.279772
H7_13 H 0.712344 0.803031 0.012595
C9_10 C 0.6535(2) 0.9827(2) 0.0293(5)
H9_10 H 0.635791 1.000012 0.012915
C12_13 C 0.8083(2) 0.95467(19) 0.1160(5)
C13_10 C 0.6342(2) 0.9431(2) 0.1073(5)
H11_10 H 0.602702 0.932170 0.144151
C14_13 C 0.70755(19) 0.93559(19) 0.0717(4)
C15_10 C 0.6625(2) 0.9195(2) 0.1307(4)
H12_10 H 0.651016 0.892994 0.185834
I3_6 I 0.71371(2) 0.89337(2) 0.44549(3)
I4_7 I 0.77303(3) 0.80895(2) 0.28579(3)
Cu1_8 Cu 0.15221(2) 0.86587(4) 0.24777(5)
I1_6 I 0.22670(2) 0.84633(3) 0.22118(3)
P1_14 P 0.09770(5) 0.84024(7) 0.10066(11)
N2_14 N 0.01315(17) 0.84397(24) 0.0263(4)
C1_14 C 0.0027(3) 0.8850(4) 0.2332(6)
C3_14 C 0.0414(2) 0.8744(3) 0.2191(5)
H3_14 H 0.064929 0.881116 0.279772
H7_14 H 0.196969 0.909314 0.012595
C9_11 C 0.0173(2) 0.6709(3) 0.0293(5)
H9_11 H -0.000012 0.635780 0.012915
C12_14 C 0.04533(19) 0.85367(28) 0.1160(5)
C13_11 C 0.0569(2) 0.6912(3) 0.1073(5)
H11_11 H 0.067830 0.670533 0.144151
C14_14 C 0.06441(19) 0.77197(27) 0.0717(4)
C15_11 C 0.0805(2) 0.7431(3) 0.1307(4)
H12_11 H 0.107006 0.758023 0.185834
I3_7 I 0.10663(2) 0.82034(3) 0.44549(3)
I4_8 I 0.19105(2) 0.96407(4) 0.28579(3)
Cu1_9 Cu 0.13413(4) 0.28635(3) 0.24777(5)
I1_7 I 0.15367(3) 0.38038(2) 0.22118(3)
P1_15 P 0.15976(7) 0.25747(5) 0.10066(11)
N2_15 N 0.15603(24) 0.16919(17) 0.0263(4)
C1_15 C 0.1150(4) 0.1178(3) 0.2332(6)
H1_11 H 0.101758 0.100595 0.304419
C2_11 C 0.1239(4) 0.0935(2) 0.1414(6)
H2_11 H 0.116169 0.059412 0.147816
C3_15 C 0.1256(3) 0.1671(2) 0.2191(5)
H3_15 H 0.118884 0.183814 0.279772
C5_11 C 0.1445(3) 0.1209(2) 0.0406(6)
H7_15 H 0.090686 0.287656 0.012595
C9_12 C 0.3291(3) 0.3465(2) 0.0293(5)
H9_12 H 0.364220 0.364209 0.012915
C12_15 C 0.14633(28) 0.1917(2) 0.1160(5)
C13_12 C 0.3088(3) 0.3658(2) 0.1073(5)
H11_12 H 0.329467 0.397298 0.144151
C14_15 C 0.22803(27) 0.29245(19) 0.0717(4)
C15_12 C 0.2569(3) 0.3375(2) 0.1307(4)
H12_12 H 0.241977 0.348984 0.185834
I3_8 I 0.17966(3) 0.28629(2) 0.44549(3)
I4_9 I 0.03593(4) 0.22697(3) 0.28579(3)
Cu2_11 Cu 0.54826(3) 0.68422(2) 0.77325(6)
P1_16 P 0.59080(5) 0.76437(5) 0.56601(11)
N1_11 N 0.57535(18) 0.75951(17) 0.8023(4)
N2_16 N 0.50252(17) 0.67982(17) 0.6404(4)
N3_11 N 0.60769(17) 0.69308(16) 0.6731(4)
C1_16 C 0.4511(3) 0.6694(3) 0.4335(6)
H1_12 H 0.433928 0.665503 0.362248
C2_12 C 0.4268(2) 0.6362(3) 0.5253(6)
H2_12 H 0.392745 0.609909 0.518851
C3_16 C 0.5004(2) 0.7081(2) 0.4476(5)
H3_16 H 0.517147 0.731596 0.386895
C4_11 C 0.6344(2) 0.6700(2) 0.6914(5)
H4_13 H 0.621513 0.642596 0.744356
C5_12 C 0.4542(2) 0.6430(2) 0.6261(6)
H5_13 H 0.437930 0.620390 0.688688
C6_11 C 0.6088(3) 0.8616(2) 0.8296(5)
H6_11 H 0.620125 0.896469 0.839225
C7_11 C 0.6092(2) 0.8423(2) 0.7201(5)
H7_16 H 0.620989 0.863636 0.654072
C8_11 C 0.5756(2) 0.7790(2) 0.9067(5)
H8_11 H 0.564193 0.757183 0.972043
C9_13 C 0.6798(2) 0.6840(2) 0.6374(5)
H9_13 H 0.697542 0.666655 0.653752
C10_11 C 0.5918(3) 0.8296(2) 0.9229(5)
H10_11 H 0.591139 0.842136 0.997911
C11_11 C 0.5917(2) 0.79082(19) 0.7108(4)
C12_16 C 0.5250(2) 0.71200(19) 0.5507(5)
C13_13 C 0.6991(2) 0.7236(2) 0.5594(5)
H11_13 H 0.730631 0.734497 0.522516
C14_16 C 0.62578(19) 0.73108(19) 0.5950(4)
C15_13 C 0.6708(2) 0.7472(2) 0.5360(4)
H12_13 H 0.682317 0.773673 0.480833
Cu2_12 Cu 0.31578(2) 0.86404(4) 0.77325(6)
P1_17 P 0.23563(5) 0.82643(7) 0.56601(11)
N1_12 N 0.24049(17) 0.81584(25) 0.8023(4)
N2_17 N 0.32018(17) 0.82270(24) 0.6404(4)
N3_12 N 0.30692(16) 0.91461(23) 0.6731(4)
C1_17 C 0.3306(3) 0.7817(4) 0.4335(6)
H1_13 H 0.334497 0.768425 0.362248
C2_13 C 0.3638(3) 0.7906(4) 0.5253(6)
H2_13 H 0.390091 0.782836 0.518851
C3_17 C 0.2919(2) 0.7923(3) 0.4476(5)
H3_17 H 0.268404 0.785551 0.386895
C4_12 C 0.3300(2) 0.9644(3) 0.6914(5)
H4_14 H 0.357404 0.978917 0.744356
C5_13 C 0.3570(2) 0.8112(3) 0.6261(6)
H5_14 H 0.379610 0.817540 0.688688
C6_12 C 0.1384(2) 0.7472(4) 0.8296(5)
H6_12 H 0.103531 0.723656 0.839225
C7_12 C 0.1577(2) 0.7669(3) 0.7201(5)
H7_17 H 0.136364 0.757353 0.654072
C8_12 C 0.2210(2) 0.7966(3) 0.9067(5)
H8_12 H 0.242817 0.807010 0.972043
C9_14 C 0.3160(2) 0.9958(3) 0.6374(5)
C10_12 C 0.1704(2) 0.7622(4) 0.9229(5)
H10_12 H 0.157864 0.749003 0.997911
C11_12 C 0.20918(19) 0.80088(28) 0.7108(4)
C12_17 C 0.28800(19) 0.81300(28) 0.5507(5)
C13_14 C 0.2764(2) 0.9755(3) 0.5594(5)
H11_14 H 0.265503 0.996134 0.522516
C14_17 C 0.26892(19) 0.89470(27) 0.5950(4)
C15_14 C 0.2528(2) 0.9236(3) 0.5360(4)
H12_14 H 0.226327 0.908644 0.480833
Cu2_13 Cu 0.13596(4) 0.45174(3) 0.77325(6)
P1_18 P 0.17357(7) 0.40920(5) 0.56601(11)
N1_13 N 0.18416(25) 0.42465(18) 0.8023(4)
N2_18 N 0.17730(24) 0.49748(17) 0.6404(4)
N3_13 N 0.08539(23) 0.39231(17) 0.6731(4)
C1_18 C 0.2183(4) 0.5489(3) 0.4335(6)
H1_14 H 0.231575 0.566072 0.362248
C2_14 C 0.2094(4) 0.5732(2) 0.5253(6)
H2_14 H 0.217164 0.607255 0.518851
C3_18 C 0.2077(3) 0.4996(2) 0.4476(5)
H3_18 H 0.214449 0.482853 0.386895
C4_13 C 0.0356(3) 0.3656(2) 0.6914(5)
H4_15 H 0.021083 0.378487 0.744356
C5_14 C 0.1888(3) 0.5458(2) 0.6261(6)
H5_15 H 0.182460 0.562070 0.688688
C6_13 C 0.2528(4) 0.3912(3) 0.8296(5)
H6_13 H 0.276344 0.379875 0.839225
C7_13 C 0.2331(3) 0.3908(2) 0.7201(5)
H7_18 H 0.242647 0.379011 0.654072
C8_13 C 0.2034(3) 0.4244(2) 0.9067(5)
H8_13 H 0.192990 0.435807 0.972043
C9_15 C 0.0042(3) 0.3202(2) 0.6374(5)
C10_13 C 0.2378(4) 0.4082(3) 0.9229(5)
H10_13 H 0.250997 0.408861 0.997911
C11_13 C 0.19912(28) 0.4083(2) 0.7108(4)
C12_18 C 0.18700(28) 0.4750(2) 0.5507(5)
C13_15 C 0.0245(3) 0.3009(2) 0.5594(5)
H11_15 H 0.003866 0.269369 0.522516
C14_18 C 0.10530(27) 0.37422(19) 0.5950(4)
C15_15 C 0.0764(3) 0.3292(2) 0.5360(4)
H12_15 H 0.091356 0.317683 0.480833
H4_16 H 0.288180 0.975929 0.077689
H5_16 H 0.104597 0.953723 0.022021
H4_17 H 0.024071 0.312250 0.077689
H5_17 H 0.046277 0.150873 0.022021
Cu2_14 Cu 0.80263(4) 0.78507(3) 0.10658(6)
N1_14 N 0.85083(25) 0.75798(18) 0.1356(4)
N3_14 N 0.75206(23) 0.72564(17) 0.0064(4)
C4_14 C 0.7023(3) 0.6989(2) 0.0247(5)
H4_18 H 0.687750 0.711820 0.077689
H5_18 H 0.849127 0.895403 0.022021
C6_14 C 0.9195(4) 0.7245(3) 0.1629(5)
H6_14 H 0.943011 0.713208 0.172558
C7_14 C 0.8998(3) 0.7241(2) 0.0534(5)
C8_14 C 0.8701(3) 0.7577(2) 0.2400(5)
H8_14 H 0.859657 0.769140 0.305376
C10_14 C 0.9045(4) 0.7415(3) 0.2562(5)
H10_14 H 0.917664 0.742194 0.331244
C11_14 C 0.86579(28) 0.7416(2) 0.0441(4)
I1_8 I 0.95296(2) 0.43996(2) 0.88784(3)
C9_16 C 0.9869(2) 0.6493(2) 0.6959(5)
H9_14 H 0.969125 0.666678 0.679581
C13_16 C 0.9676(2) 0.6097(2) 0.7739(5)
H11_16 H 0.936036 0.598836 0.810817
C15_16 C 0.9959(2) 0.5861(2) 0.7973(4)
H12_16 H 0.984350 0.559660 0.852500
I1_9 I 0.48701(3) 0.04704(2) 0.88784(3)
C9_17 C 0.6625(3) 0.0131(2) 0.6959(5)
H9_15 H 0.697554 0.030875 0.679581
C13_17 C 0.6422(3) 0.0324(2) 0.7739(5)
H11_17 H 0.662801 0.063964 0.810817
C15_17 C 0.5903(3) 0.0041(2) 0.7973(4)
H12_17 H 0.575311 0.015650 0.852500
I3_9 I 0.51299(3) 0.95296(2) 0.11216(3)
C9_18 C 0.3375(3) 0.9869(2) 0.3041(5)
H9_16 H 0.302446 0.969125 0.320419
C13_18 C 0.3578(3) 0.9676(2) 0.2261(5)
H11_18 H 0.337199 0.936036 0.189183
C15_18 C 0.4097(3) 0.9959(2) 0.2027(4)
H12_18 H 0.424689 0.984350 0.147500
H1_15 H 0.899405 0.001164 0.304419
C2_15 C 0.9065(2) 0.0305(3) 0.1414(6)
H2_15 H 0.940588 0.056758 0.147816
C5_15 C 0.8791(2) 0.0237(2) 0.0406(6)
H9_17 H 0.635791 0.000012 0.012915
Cu2_15 Cu 0.78507(3) 0.98245(2) 0.89342(6)
N1_15 N 0.75798(18) 0.90716(17) 0.8644(4)
N3_15 N 0.72564(17) 0.97359(16) 0.9936(4)
C4_15 C 0.6989(2) 0.9967(2) 0.9753(5)
C6_15 C 0.7245(3) 0.8051(2) 0.8371(5)
H6_15 H 0.713208 0.770198 0.827442
C7_15 C 0.7241(2) 0.8244(2) 0.9466(5)
C8_15 C 0.7577(2) 0.8877(2) 0.7600(5)
H8_15 H 0.769140 0.909484 0.694624
C10_15 C 0.7415(3) 0.8371(2) 0.7438(5)
H10_15 H 0.742194 0.824531 0.668756
C11_15 C 0.7416(2) 0.87585(19) 0.9559(4)
Cu2_16 Cu 0.01755(2) 0.80263(4) 0.89342(6)
N1_16 N 0.09284(17) 0.85083(25) 0.8644(4)
N3_16 N 0.02641(16) 0.75206(23) 0.9936(4)
C4_16 C 0.0033(2) 0.7023(3) 0.9753(5)
C6_16 C 0.1949(2) 0.9195(4) 0.8371(5)
H6_16 H 0.229802 0.943011 0.827442
C7_16 C 0.1756(2) 0.8998(3) 0.9466(5)
C8_16 C 0.1123(2) 0.8701(3) 0.7600(5)
H8_16 H 0.090516 0.859657 0.694624
C10_16 C 0.1629(2) 0.9045(4) 0.7438(5)
H10_16 H 0.175469 0.917664 0.668756
C11_16 C 0.12415(19) 0.86579(28) 0.9559(4)
H1_16 H 0.998836 0.898242 0.304419
C2_16 C 0.9695(3) 0.8761(4) 0.1414(6)
H2_16 H 0.943242 0.883831 0.147816
C5_16 C 0.9763(2) 0.8555(3) 0.0406(6)
H9_18 H 0.999988 0.635780 0.012915
H9_19 H 0.333345 0.030887 0.653752
H9_20 H 0.969113 0.302458 0.653752
Cu2_17 Cu 0.21493(3) 0.01755(2) 0.10658(6)
N1_17 N 0.24202(18) 0.09284(17) 0.1356(4)
N3_17 N 0.27436(17) 0.02641(16) 0.0064(4)
C4_17 C 0.3011(2) 0.0033(2) 0.0247(5)
C6_17 C 0.2755(3) 0.1949(2) 0.1629(5)
H6_17 H 0.286792 0.229802 0.172558
C7_17 C 0.2759(2) 0.1756(2) 0.0534(5)
C8_17 C 0.2423(2) 0.1123(2) 0.2400(5)
H8_17 H 0.230860 0.090516 0.305376
C10_17 C 0.2585(3) 0.1629(2) 0.2562(5)
H10_17 H 0.257806 0.175469 0.331244
C11_17 C 0.2584(2) 0.12415(19) 0.0441(4)
H1_17 H 0.100595 0.998836 0.695581
C2_17 C 0.0935(2) 0.9695(3) 0.8586(6)
H2_17 H 0.059412 0.943242 0.852184
C5_17 C 0.1209(2) 0.9763(2) 0.9594(6)
H9_21 H 0.364209 0.999988 0.987085
H1_18 H 0.001164 0.101758 0.695581
C2_18 C 0.0305(3) 0.1239(4) 0.8586(6)
H2_18 H 0.056758 0.116169 0.852184
C5_18 C 0.0237(2) 0.1445(3) 0.9594(6)
H9_22 H 0.000012 0.364220 0.987085
Cu2_18 Cu 0.98245(2) 0.19737(4) 0.10658(6)
N1_18 N 0.90716(17) 0.14917(25) 0.1356(4)
N3_18 N 0.97359(16) 0.24794(23) 0.0064(4)
C4_18 C 0.9967(2) 0.2977(3) 0.0247(5)
C6_18 C 0.8051(2) 0.0805(4) 0.1629(5)
H6_18 H 0.770198 0.056989 0.172558
C7_18 C 0.8244(2) 0.1002(3) 0.0534(5)
C8_18 C 0.8877(2) 0.1299(3) 0.2400(5)
H8_18 H 0.909484 0.140343 0.305376
C10_18 C 0.8371(2) 0.0955(4) 0.2562(5)
H10_18 H 0.824531 0.082336 0.331244
C11_18 C 0.87585(19) 0.13421(28) 0.0441(4)
loop_
_geom_bond_atom_site_label_1
_geom_bond_atom_site_label_2
_geom_bond_site_symmetry_1
_geom_bond_site_symmetry_2
Cu1 I1 1_555 1_555
Cu2 I2 1_555 1_555
I1 Cu3 1_555 1_555
I2 Cu4 1_555 1_555
P1 Cu1 1_555 1_555
N1 Cu2 1_555 1_555
N2 Cu2 1_555 1_555
N3 Cu2 1_555 1_555
C1 H1 1_555 1_555
C2 C1 1_555 1_555
H2 C2 1_555 1_555
C3 C1 1_555 1_555
H3 C3 1_555 1_555
C4 N3 1_555 1_555
H4 C4 1_555 1_555
C5 N2 1_555 1_555
H5 C5 1_555 1_555
C6 H6 1_555 1_555
C7 C6 1_555 1_555
H7 C7 1_555 1_555
C8 N1 1_555 1_555
H8 C8 1_555 1_555
C9 C4 1_555 1_555
H9 C9 1_555 1_555
C10 C6 1_555 1_555
H10 C10 1_555 1_555
C11 P1 1_555 1_555
C12 P1 1_555 1_555
C13 C9 1_555 1_555
H11 C13 1_555 1_555
C14 P1 1_555 1_555
C15 C13 1_555 1_555
H12 C15 1_555 1_555
Cu3 I3 1_555 1_555
I3 Cu1 1_555 1_555
I4 Cu1 1_555 1_555
N1 C11 1_555 1_555
N2 C12 1_555 1_555
N3 C14 1_555 1_555
C2 C5 1_555 1_555
C3 C12 1_555 1_555
C7 C11 1_555 1_555
C8 C10 1_555 1_555
C14 C15 1_555 1_555
Cu1_2 I1_2 1_555 1_555
Cu2_2 I2_2 1_555 1_555
I1_2 Cu3_2 1_555 1_555
I2_2 Cu4_2 1_555 1_555
P1_2 Cu1_2 1_555 1_555
N1_2 Cu2_2 1_555 1_555
N2_2 Cu2_2 1_555 1_555
N3_2 Cu2_2 1_555 1_555
C1_2 H1_2 1_555 1_555
C2_2 C1_2 1_555 1_555
H2_2 C2_2 1_555 1_555
C3_2 C1_2 1_555 1_555
H3_2 C3_2 1_555 1_555
C4_2 N3_2 1_555 1_555
H4_2 C4_2 1_555 1_555
C5_2 N2_2 1_555 1_555
H5_2 C5_2 1_555 1_555
C6_2 H6_2 1_555 1_555
C7_2 C6_2 1_555 1_555
H7_2 C7_2 1_555 1_555
C8_2 N1_2 1_555 1_555
H8_2 C8_2 1_555 1_555
C9_2 C4_2 1_555 1_555
C10_2 C6_2 1_555 1_555
H10_2 C10_2 1_555 1_555
C11_2 P1_2 1_555 1_555
C12_2 P1_2 1_555 1_555
C13_2 C9_2 1_555 1_555
H11_2 C13_2 1_555 1_555
C14_2 P1_2 1_555 1_555
C15_2 C13_2 1_555 1_555
H12_2 C15_2 1_555 1_555
Cu3_2 I3_2 1_555 1_555
I3_2 Cu1_2 1_555 1_555
I4_2 Cu1_2 1_555 1_555
N1_2 C11_2 1_555 1_555
N2_2 C12_2 1_555 1_555
N3_2 C14_2 1_555 1_555
C2_2 C5_2 1_555 1_555
C3_2 C12_2 1_555 1_555
C7_2 C11_2 1_555 1_555
C8_2 C10_2 1_555 1_555
C14_2 C15_2 1_555 1_555
Cu1_3 I1_3 1_555 1_555
Cu2_3 I2_3 1_555 1_555
I1_3 Cu3_3 1_555 1_555
I2_3 Cu4_3 1_555 1_555
P1_3 Cu1_3 1_555 1_555
N1_3 Cu2_3 1_555 1_555
N2_3 Cu2_3 1_555 1_555
N3_3 Cu2_3 1_555 1_555
C1_3 H1_3 1_555 1_555
C2_3 C1_3 1_555 1_555
H2_3 C2_3 1_555 1_555
C3_3 C1_3 1_555 1_555
H3_3 C3_3 1_555 1_555
C4_3 N3_3 1_555 1_555
H4_3 C4_3 1_555 1_555
C5_3 N2_3 1_555 1_555
H5_3 C5_3 1_555 1_555
C6_3 H6_3 1_555 1_555
C7_3 C6_3 1_555 1_555
H7_3 C7_3 1_555 1_555
C8_3 N1_3 1_555 1_555
H8_3 C8_3 1_555 1_555
C9_3 C4_3 1_555 1_555
C10_3 C6_3 1_555 1_555
H10_3 C10_3 1_555 1_555
C11_3 P1_3 1_555 1_555
C12_3 P1_3 1_555 1_555
C13_3 C9_3 1_555 1_555
H11_3 C13_3 1_555 1_555
C14_3 P1_3 1_555 1_555
C15_3 C13_3 1_555 1_555
H12_3 C15_3 1_555 1_555
Cu3_3 I3_3 1_555 1_555
I3_3 Cu1_3 1_555 1_555
I4_3 Cu1_3 1_555 1_555
N1_3 C11_3 1_555 1_555
N2_3 C12_3 1_555 1_555
N3_3 C14_3 1_555 1_555
C2_3 C5_3 1_555 1_555
C3_3 C12_3 1_555 1_555
C7_3 C11_3 1_555 1_555
C8_3 C10_3 1_555 1_555
C14_3 C15_3 1_555 1_555
Cu4 I3_4 1_555 1_555
I2_4 Cu3_2 1_555 1_555
I2_5 Cu3_3 1_555 1_555
Cu2_4 I2_6 1_555 1_555
I2_6 Cu3 1_555 1_555
N1_4 Cu2_4 1_555 1_555
N3_4 Cu2_4 1_555 1_555
C4_4 N3_4 1_555 1_555
H4_6 C4_4 1_555 1_555
C6_4 H6_4 1_555 1_555
C7_4 C6_4 1_555 1_555
C8_4 N1_4 1_555 1_555
H8_4 C8_4 1_555 1_555
C10_4 C6_4 1_555 1_555
H10_4 C10_4 1_555 1_555
N1_4 C11_4 1_555 1_555
C7_4 C11_4 1_555 1_555
C8_4 C10_4 1_555 1_555
Cu2_5 I4_2 1_555 1_555
P1_4 Cu4_3 1_555 1_555
N1_5 Cu2_5 1_555 1_555
N2_4 Cu2_5 1_555 1_555
N3_5 Cu2_5 1_555 1_555
C1_4 H1_4 1_555 1_555
C2_4 C1_4 1_555 1_555
H2_4 C2_4 1_555 1_555
C3_4 C1_4 1_555 1_555
H3_4 C3_4 1_555 1_555
C4_5 N3_5 1_555 1_555
H4_7 C4_5 1_555 1_555
C5_4 N2_4 1_555 1_555
H5_7 C5_4 1_555 1_555
C6_5 H6_5 1_555 1_555
C7_5 C6_5 1_555 1_555
H7_4 C7_5 1_555 1_555
C8_5 N1_5 1_555 1_555
H8_5 C8_5 1_555 1_555
C10_5 C6_5 1_555 1_555
H10_5 C10_5 1_555 1_555
C11_5 P1_4 1_555 1_555
C12_4 P1_4 1_555 1_555
C14_4 P1_4 1_555 1_555
N1_5 C11_5 1_555 1_555
N2_4 C12_4 1_555 1_555
N3_5 C14_4 1_555 1_555
C2_4 C5_4 1_555 1_555
C3_4 C12_4 1_555 1_555
C7_5 C11_5 1_555 1_555
C8_5 C10_5 1_555 1_555
Cu2_6 I4_3 1_555 1_555
P1_5 Cu4 1_555 1_555
N1_6 Cu2_6 1_555 1_555
N2_5 Cu2_6 1_555 1_555
N3_6 Cu2_6 1_555 1_555
C1_5 H1_5 1_555 1_555
C2_5 C1_5 1_555 1_555
H2_5 C2_5 1_555 1_555
C3_5 C1_5 1_555 1_555
H3_5 C3_5 1_555 1_555
C4_6 N3_6 1_555 1_555
H4_8 C4_6 1_555 1_555
C5_5 N2_5 1_555 1_555
H5_8 C5_5 1_555 1_555
C6_6 H6_6 1_555 1_555
C7_6 C6_6 1_555 1_555
H7_5 C7_6 1_555 1_555
C8_6 N1_6 1_555 1_555
H8_6 C8_6 1_555 1_555
C9_4 C4_6 1_555 1_555
H9_2 C9_4 1_555 1_555
C10_6 C6_6 1_555 1_555
H10_6 C10_6 1_555 1_555
C11_6 P1_5 1_555 1_555
C12_5 P1_5 1_555 1_555
C13_4 C9_4 1_555 1_555
H11_4 C13_4 1_555 1_555
C14_5 P1_5 1_555 1_555
C15_4 C13_4 1_555 1_555
H12_4 C15_4 1_555 1_555
N1_6 C11_6 1_555 1_555
N2_5 C12_5 1_555 1_555
N3_6 C14_5 1_555 1_555
C2_5 C5_5 1_555 1_555
C3_5 C12_5 1_555 1_555
C7_6 C11_6 1_555 1_555
C8_6 C10_6 1_555 1_555
C14_5 C15_4 1_555 1_555
Cu2_7 I4 1_555 1_555
P1_6 Cu4_2 1_555 1_555
N1_7 Cu2_7 1_555 1_555
N2_6 Cu2_7 1_555 1_555
N3_7 Cu2_7 1_555 1_555
C1_6 H1_6 1_555 1_555
C2_6 C1_6 1_555 1_555
H2_6 C2_6 1_555 1_555
C3_6 C1_6 1_555 1_555
H3_6 C3_6 1_555 1_555
C4_7 N3_7 1_555 1_555
H4_9 C4_7 1_555 1_555
C5_6 N2_6 1_555 1_555
H5_9 C5_6 1_555 1_555
C6_7 H6_7 1_555 1_555
C7_7 C6_7 1_555 1_555
H7_6 C7_7 1_555 1_555
C8_7 N1_7 1_555 1_555
H8_7 C8_7 1_555 1_555
C10_7 C6_7 1_555 1_555
H10_7 C10_7 1_555 1_555
C11_7 P1_6 1_555 1_555
C12_6 P1_6 1_555 1_555
C14_6 P1_6 1_555 1_555
N1_7 C11_7 1_555 1_555
N2_6 C12_6 1_555 1_555
N3_7 C14_6 1_555 1_555
C2_6 C5_6 1_555 1_555
C3_6 C12_6 1_555 1_555
C7_7 C11_7 1_555 1_555
C8_7 C10_7 1_555 1_555
P1_7 Cu3 1_555 1_555
C3_7 C1_7 1_555 1_555
H3_7 C3_7 1_555 1_555
H9_3 C9_5 1_555 1_555
C12_7 P1_7 1_555 1_555
C13_5 C9_5 1_555 1_555
H11_5 C13_5 1_555 1_555
C14_7 P1_7 1_555 1_555
C15_5 C13_5 1_555 1_555
H12_5 C15_5 1_555 1_555
N2_7 C12_7 1_555 1_555
C3_7 C12_7 1_555 1_555
C14_7 C15_5 1_555 1_555
P1_8 Cu3_2 1_555 1_555
C3_8 C1_8 1_555 1_555
H3_8 C3_8 1_555 1_555
H9_4 C9_6 1_555 1_555
C12_8 P1_8 1_555 1_555
C13_6 C9_6 1_555 1_555
H11_6 C13_6 1_555 1_555
C14_8 P1_8 1_555 1_555
C15_6 C13_6 1_555 1_555
H12_6 C15_6 1_555 1_555
N2_8 C12_8 1_555 1_555
C3_8 C12_8 1_555 1_555
C14_8 C15_6 1_555 1_555
P1_9 Cu3_3 1_555 1_555
C1_9 H1_7 1_555 1_555
C2_7 C1_9 1_555 1_555
H2_7 C2_7 1_555 1_555
C3_9 C1_9 1_555 1_555
H3_9 C3_9 1_555 1_555
C5_7 N2_9 1_555 1_555
H9_5 C9_7 1_555 1_555
C12_9 P1_9 1_555 1_555
C13_7 C9_7 1_555 1_555
H11_7 C13_7 1_555 1_555
C14_9 P1_9 1_555 1_555
C15_7 C13_7 1_555 1_555
H12_7 C15_7 1_555 1_555
N2_9 C12_9 1_555 1_555
C2_7 C5_7 1_555 1_555
C3_9 C12_9 1_555 1_555
C14_9 C15_7 1_555 1_555
H9_8 C9_8 1_555 1_555
C13_8 C9_8 1_555 1_555
H11_8 C13_8 1_555 1_555
C15_8 C13_8 1_555 1_555
H12_8 C15_8 1_555 1_555
Cu2_8 I2_7 1_555 1_555
I2_7 Cu4_4 1_555 1_555
P1_10 Cu1_4 1_555 1_555
N1_8 Cu2_8 1_555 1_555
N2_10 Cu2_8 1_555 1_555
N3_8 Cu2_8 1_555 1_555
C1_10 H1_8 1_555 1_555
C2_8 C1_10 1_555 1_555
H2_8 C2_8 1_555 1_555
C3_10 C1_10 1_555 1_555
H3_10 C3_10 1_555 1_555
C4_8 N3_8 1_555 1_555
H4_10 C4_8 1_555 1_555
C5_8 N2_10 1_555 1_555
H5_10 C5_8 1_555 1_555
C6_8 H6_8 1_555 1_555
C7_8 C6_8 1_555 1_555
H7_10 C7_8 1_555 1_555
C8_8 N1_8 1_555 1_555
H8_8 C8_8 1_555 1_555
C10_8 C6_8 1_555 1_555
H10_8 C10_8 1_555 1_555
C11_8 P1_10 1_555 1_555
C12_10 P1_10 1_555 1_555
C14_10 P1_10 1_555 1_555
I4_4 Cu1_4 1_555 1_555
N1_8 C11_8 1_555 1_555
N2_10 C12_10 1_555 1_555
N3_8 C14_10 1_555 1_555
C2_8 C5_8 1_555 1_555
C3_10 C12_10 1_555 1_555
C7_8 C11_8 1_555 1_555
C8_8 C10_8 1_555 1_555
Cu1_5 I1_4 1_555 1_555
Cu2_9 I2_8 1_555 1_555
I2_8 Cu4_5 1_555 1_555
P1_11 Cu1_5 1_555 1_555
N1_9 Cu2_9 1_555 1_555
N2_11 Cu2_9 1_555 1_555
N3_9 Cu2_9 1_555 1_555
C1_11 H1_9 1_555 1_555
C2_9 C1_11 1_555 1_555
H2_9 C2_9 1_555 1_555
C3_11 C1_11 1_555 1_555
H3_11 C3_11 1_555 1_555
C4_9 N3_9 1_555 1_555
H4_11 C4_9 1_555 1_555
C5_9 N2_11 1_555 1_555
H5_11 C5_9 1_555 1_555
C6_9 H6_9 1_555 1_555
C7_9 C6_9 1_555 1_555
H7_11 C7_9 1_555 1_555
C8_9 N1_9 1_555 1_555
H8_9 C8_9 1_555 1_555
C9_9 C4_9 1_555 1_555
H9_9 C9_9 1_555 1_555
C10_9 C6_9 1_555 1_555
H10_9 C10_9 1_555 1_555
C11_9 P1_11 1_555 1_555
C12_11 P1_11 1_555 1_555
C13_9 C9_9 1_555 1_555
H11_9 C13_9 1_555 1_555
C14_11 P1_11 1_555 1_555
C15_9 C13_9 1_555 1_555
H12_9 C15_9 1_555 1_555
I4_5 Cu1_5 1_555 1_555
N1_9 C11_9 1_555 1_555
N2_11 C12_11 1_555 1_555
N3_9 C14_11 1_555 1_555
C2_9 C5_9 1_555 1_555
C3_11 C12_11 1_555 1_555
C7_9 C11_9 1_555 1_555
C8_9 C10_9 1_555 1_555
C14_11 C15_9 1_555 1_555
Cu2_10 I2_9 1_555 1_555
I2_9 Cu4_6 1_555 1_555
P1_12 Cu1_6 1_555 1_555
N1_10 Cu2_10 1_555 1_555
N2_12 Cu2_10 1_555 1_555
N3_10 Cu2_10 1_555 1_555
C1_12 H1_10 1_555 1_555
C2_10 C1_12 1_555 1_555
H2_10 C2_10 1_555 1_555
C3_12 C1_12 1_555 1_555
H3_12 C3_12 1_555 1_555
C4_10 N3_10 1_555 1_555
H4_12 C4_10 1_555 1_555
C5_10 N2_12 1_555 1_555
H5_12 C5_10 1_555 1_555
C6_10 H6_10 1_555 1_555
C7_10 C6_10 1_555 1_555
H7_12 C7_10 1_555 1_555
C8_10 N1_10 1_555 1_555
H8_10 C8_10 1_555 1_555
C10_10 C6_10 1_555 1_555
H10_10 C10_10 1_555 1_555
C11_10 P1_12 1_555 1_555
C12_12 P1_12 1_555 1_555
C14_12 P1_12 1_555 1_555
I4_6 Cu1_6 1_555 1_555
N1_10 C11_10 1_555 1_555
N2_12 C12_12 1_555 1_555
N3_10 C14_12 1_555 1_555
C2_10 C5_10 1_555 1_555
C3_12 C12_12 1_555 1_555
C7_10 C11_10 1_555 1_555
C8_10 C10_10 1_555 1_555
Cu1_7 I1_5 1_555 1_555
I1_5 Cu4_6 1_555 1_555
P1_13 Cu1_7 1_555 1_555
C3_13 C1_13 1_555 1_555
H3_13 C3_13 1_555 1_555
H9_10 C9_10 1_555 1_555
C12_13 P1_13 1_555 1_555
C13_10 C9_10 1_555 1_555
H11_10 C13_10 1_555 1_555
C14_13 P1_13 1_555 1_555
C15_10 C13_10 1_555 1_555
H12_10 C15_10 1_555 1_555
Cu4_6 I3_6 1_555 1_555
I3_6 Cu1_7 1_555 1_555
I4_7 Cu1_7 1_555 1_555
N2_13 C12_13 1_555 1_555
C3_13 C12_13 1_555 1_555
C14_13 C15_10 1_555 1_555
Cu1_8 I1_6 1_555 1_555
I1_6 Cu4_4 1_555 1_555
P1_14 Cu1_8 1_555 1_555
C3_14 C1_14 1_555 1_555
H3_14 C3_14 1_555 1_555
H9_11 C9_11 1_555 1_555
C12_14 P1_14 1_555 1_555
C13_11 C9_11 1_555 1_555
H11_11 C13_11 1_555 1_555
C14_14 P1_14 1_555 1_555
C15_11 C13_11 1_555 1_555
H12_11 C15_11 1_555 1_555
Cu4_4 I3_7 1_555 1_555
I3_7 Cu1_8 1_555 1_555
I4_8 Cu1_8 1_555 1_555
N2_14 C12_14 1_555 1_555
C3_14 C12_14 1_555 1_555
C14_14 C15_11 1_555 1_555
Cu1_9 I1_7 1_555 1_555
I1_7 Cu4_5 1_555 1_555
P1_15 Cu1_9 1_555 1_555
C1_15 H1_11 1_555 1_555
C2_11 C1_15 1_555 1_555
H2_11 C2_11 1_555 1_555
C3_15 C1_15 1_555 1_555
H3_15 C3_15 1_555 1_555
C5_11 N2_15 1_555 1_555
H9_12 C9_12 1_555 1_555
C12_15 P1_15 1_555 1_555
C13_12 C9_12 1_555 1_555
H11_12 C13_12 1_555 1_555
C14_15 P1_15 1_555 1_555
C15_12 C13_12 1_555 1_555
H12_12 C15_12 1_555 1_555
Cu4_5 I3_8 1_555 1_555
I3_8 Cu1_9 1_555 1_555
I4_9 Cu1_9 1_555 1_555
N2_15 C12_15 1_555 1_555
C2_11 C5_11 1_555 1_555
C3_15 C12_15 1_555 1_555
C14_15 C15_12 1_555 1_555
Cu2_11 I4_5 1_555 1_555
P1_16 Cu4_6 1_555 1_555
N1_11 Cu2_11 1_555 1_555
N2_16 Cu2_11 1_555 1_555
N3_11 Cu2_11 1_555 1_555
C1_16 H1_12 1_555 1_555
C2_12 C1_16 1_555 1_555
H2_12 C2_12 1_555 1_555
C3_16 C1_16 1_555 1_555
H3_16 C3_16 1_555 1_555
C4_11 N3_11 1_555 1_555
H4_13 C4_11 1_555 1_555
C5_12 N2_16 1_555 1_555
H5_13 C5_12 1_555 1_555
C6_11 H6_11 1_555 1_555
C7_11 C6_11 1_555 1_555
H7_16 C7_11 1_555 1_555
C8_11 N1_11 1_555 1_555
H8_11 C8_11 1_555 1_555
C9_13 C4_11 1_555 1_555
H9_13 C9_13 1_555 1_555
C10_11 C6_11 1_555 1_555
H10_11 C10_11 1_555 1_555
C11_11 P1_16 1_555 1_555
C12_16 P1_16 1_555 1_555
C13_13 C9_13 1_555 1_555
H11_13 C13_13 1_555 1_555
C14_16 P1_16 1_555 1_555
C15_13 C13_13 1_555 1_555
H12_13 C15_13 1_555 1_555
N1_11 C11_11 1_555 1_555
N2_16 C12_16 1_555 1_555
N3_11 C14_16 1_555 1_555
C2_12 C5_12 1_555 1_555
C3_16 C12_16 1_555 1_555
C7_11 C11_11 1_555 1_555
C8_11 C10_11 1_555 1_555
C14_16 C15_13 1_555 1_555
Cu2_12 I4_6 1_555 1_555
P1_17 Cu4_4 1_555 1_555
N1_12 Cu2_12 1_555 1_555
N2_17 Cu2_12 1_555 1_555
N3_12 Cu2_12 1_555 1_555
C1_17 H1_13 1_555 1_555
C2_13 C1_17 1_555 1_555
H2_13 C2_13 1_555 1_555
C3_17 C1_17 1_555 1_555
H3_17 C3_17 1_555 1_555
C4_12 N3_12 1_555 1_555
H4_14 C4_12 1_555 1_555
C5_13 N2_17 1_555 1_555
H5_14 C5_13 1_555 1_555
C6_12 H6_12 1_555 1_555
C7_12 C6_12 1_555 1_555
H7_17 C7_12 1_555 1_555
C8_12 N1_12 1_555 1_555
H8_12 C8_12 1_555 1_555
C9_14 C4_12 1_555 1_555
C10_12 C6_12 1_555 1_555
H10_12 C10_12 1_555 1_555
C11_12 P1_17 1_555 1_555
C12_17 P1_17 1_555 1_555
C13_14 C9_14 1_555 1_555
H11_14 C13_14 1_555 1_555
C14_17 P1_17 1_555 1_555
C15_14 C13_14 1_555 1_555
H12_14 C15_14 1_555 1_555
N1_12 C11_12 1_555 1_555
N2_17 C12_17 1_555 1_555
N3_12 C14_17 1_555 1_555
C2_13 C5_13 1_555 1_555
C3_17 C12_17 1_555 1_555
C7_12 C11_12 1_555 1_555
C8_12 C10_12 1_555 1_555
C14_17 C15_14 1_555 1_555
Cu2_13 I4_4 1_555 1_555
P1_18 Cu4_5 1_555 1_555
N1_13 Cu2_13 1_555 1_555
N2_18 Cu2_13 1_555 1_555
N3_13 Cu2_13 1_555 1_555
C1_18 H1_14 1_555 1_555
C2_14 C1_18 1_555 1_555
H2_14 C2_14 1_555 1_555
C3_18 C1_18 1_555 1_555
H3_18 C3_18 1_555 1_555
C4_13 N3_13 1_555 1_555
H4_15 C4_13 1_555 1_555
C5_14 N2_18 1_555 1_555
H5_15 C5_14 1_555 1_555
C6_13 H6_13 1_555 1_555
C7_13 C6_13 1_555 1_555
H7_18 C7_13 1_555 1_555
C8_13 N1_13 1_555 1_555
H8_13 C8_13 1_555 1_555
C9_15 C4_13 1_555 1_555
C10_13 C6_13 1_555 1_555
H10_13 C10_13 1_555 1_555
C11_13 P1_18 1_555 1_555
C12_18 P1_18 1_555 1_555
C13_15 C9_15 1_555 1_555
H11_15 C13_15 1_555 1_555
C14_18 P1_18 1_555 1_555
C15_15 C13_15 1_555 1_555
H12_15 C15_15 1_555 1_555
N1_13 C11_13 1_555 1_555
N2_18 C12_18 1_555 1_555
N3_13 C14_18 1_555 1_555
C2_14 C5_14 1_555 1_555
C3_18 C12_18 1_555 1_555
C7_13 C11_13 1_555 1_555
C8_13 C10_13 1_555 1_555
C14_18 C15_15 1_555 1_555
Cu2_14 I4_7 1_555 1_555
N1_14 Cu2_14 1_555 1_555
N3_14 Cu2_14 1_555 1_555
C4_14 N3_14 1_555 1_555
H4_18 C4_14 1_555 1_555
C6_14 H6_14 1_555 1_555
C7_14 C6_14 1_555 1_555
C8_14 N1_14 1_555 1_555
H8_14 C8_14 1_555 1_555
C10_14 C6_14 1_555 1_555
H10_14 C10_14 1_555 1_555
N1_14 C11_14 1_555 1_555
C7_14 C11_14 1_555 1_555
C8_14 C10_14 1_555 1_555
H9_14 C9_16 1_555 1_555
C13_16 C9_16 1_555 1_555
H11_16 C13_16 1_555 1_555
C15_16 C13_16 1_555 1_555
H12_16 C15_16 1_555 1_555
H9_15 C9_17 1_555 1_555
C13_17 C9_17 1_555 1_555
H11_17 C13_17 1_555 1_555
C15_17 C13_17 1_555 1_555
H12_17 C15_17 1_555 1_555
H9_16 C9_18 1_555 1_555
C13_18 C9_18 1_555 1_555
H11_18 C13_18 1_555 1_555
C15_18 C13_18 1_555 1_555
H12_18 C15_18 1_555 1_555
H2_15 C2_15 1_555 1_555
C2_15 C5_15 1_555 1_555
N1_15 Cu2_15 1_555 1_555
N3_15 Cu2_15 1_555 1_555
C4_15 N3_15 1_555 1_555
C6_15 H6_15 1_555 1_555
C7_15 C6_15 1_555 1_555
C8_15 N1_15 1_555 1_555
H8_15 C8_15 1_555 1_555
C10_15 C6_15 1_555 1_555
H10_15 C10_15 1_555 1_555
N1_15 C11_15 1_555 1_555
C7_15 C11_15 1_555 1_555
C8_15 C10_15 1_555 1_555
N1_16 Cu2_16 1_555 1_555
N3_16 Cu2_16 1_555 1_555
C4_16 N3_16 1_555 1_555
C6_16 H6_16 1_555 1_555
C7_16 C6_16 1_555 1_555
C8_16 N1_16 1_555 1_555
H8_16 C8_16 1_555 1_555
C10_16 C6_16 1_555 1_555
H10_16 C10_16 1_555 1_555
N1_16 C11_16 1_555 1_555
C7_16 C11_16 1_555 1_555
C8_16 C10_16 1_555 1_555
H2_16 C2_16 1_555 1_555
C2_16 C5_16 1_555 1_555
N1_17 Cu2_17 1_555 1_555
N3_17 Cu2_17 1_555 1_555
C4_17 N3_17 1_555 1_555
C6_17 H6_17 1_555 1_555
C7_17 C6_17 1_555 1_555
C8_17 N1_17 1_555 1_555
H8_17 C8_17 1_555 1_555
C10_17 C6_17 1_555 1_555
H10_17 C10_17 1_555 1_555
N1_17 C11_17 1_555 1_555
C7_17 C11_17 1_555 1_555
C8_17 C10_17 1_555 1_555
H2_17 C2_17 1_555 1_555
C2_17 C5_17 1_555 1_555
H2_18 C2_18 1_555 1_555
C2_18 C5_18 1_555 1_555
N1_18 Cu2_18 1_555 1_555
N3_18 Cu2_18 1_555 1_555
C4_18 N3_18 1_555 1_555
C6_18 H6_18 1_555 1_555
C7_18 C6_18 1_555 1_555
C8_18 N1_18 1_555 1_555
H8_18 C8_18 1_555 1_555
C10_18 C6_18 1_555 1_555
H10_18 C10_18 1_555 1_555
N1_18 C11_18 1_555 1_555
C7_18 C11_18 1_555 1_555
C8_18 C10_18 1_555 1_555

#END
