
###############################################################################
#
# This file contains modified crystal structure data generated from the
# MOF subset of the Cambridge Structural Database (CSD) v543 
# hosted by the Cambridge Crystallographic Data Centre (CCDC).
#
# This work is licensed under the Creative Commons
# Attribution-NonCommercial-ShareAlike 4.0 International License.
# To view a copy of this license, visit
# http://creativecommons.org/licenses/by-nc-sa/4.0/
# or send a letter to
# Creative Commons, PO Box 1866, Mountain View, CA 94042, USA.
#
# CIF created using the CSD Python API on 29 September 2022
# The structure has been converted into the P1 space group
# The structure has a 3D framework
# The original CSD entry JUMSES is in the rhombohedral crystal system
# The framework has been calculated to contain at least 10.0% void space
# The void calculation uses a probe of radius 1.32A, grid spacing 0.4
#
###############################################################################

data_JUMSES
_chemical_formula_moiety         '(C270 H216 Cu36 I25 N54 P18)n'
_symmetry_cell_setting           triclinic
_symmetry_space_group_name_H-M   'P 1'
_symmetry_Int_Tables_number      1
_space_group_name_Hall           'P 1'
loop_
_symmetry_equiv_pos_site_id
_symmetry_equiv_pos_as_xyz
1 x,y,z
_cell_length_a                   30.6244(13)
_cell_length_b                   30.6244(13)
_cell_length_c                   11.5807(4)
_cell_angle_alpha                90
_cell_angle_beta                 90
_cell_angle_gamma                120
_cell_volume                     9405.91
loop_
_atom_site_label
_atom_site_type_symbol
_atom_site_fract_x
_atom_site_fract_y
_atom_site_fract_z
Cu1 Cu 0.38050(3) 0.18118(3) 0.58149(6)
Cu2 Cu 0.45031(3) 0.31576(3) 0.22766(7)
I1 I 0.28635(2) 0.10714(2) 0.55454(3)
I2 I 0.47619(2) 0.36914(2) 0.04954(3)
P1 P 0.40874(6) 0.23578(5) 0.43527(12)
N1 N 0.39132(19) 0.30695(18) 0.3288(4)
N2 N 0.49655(19) 0.32045(19) 0.3597(4)
N3 N 0.4228(2) 0.24037(19) 0.1992(4)
C1 C 0.3737(2) 0.2692(2) 0.4069(5)
C2 C 0.3286(2) 0.2528(2) 0.4661(5)
H1 H 0.317252 0.226181 0.520791
C3 C 0.3004(2) 0.2759(2) 0.4437(5)
H2 H 0.268934 0.264721 0.480972
C4 C 0.3190(2) 0.3156(2) 0.3660(5)
H3 H 0.301090 0.332777 0.350170
C5 C 0.3647(2) 0.3296(2) 0.3117(5)
H4 H 0.377554 0.357122 0.259210
C6 C 0.4747(2) 0.2884(2) 0.4494(6)
C7 C 0.4997(3) 0.2924(3) 0.5511(7)
H5 H 0.483514 0.268880 0.611849
C8 C 0.5491(3) 0.3318(4) 0.5632(8)
H6 H 0.566986 0.336110 0.633182
C9 C 0.5715(3) 0.3643(3) 0.4720(8)
H7 H 0.605371 0.391214 0.477697
C10 C 0.5445(3) 0.3574(3) 0.3731(7)
H8 H 0.560445 0.379876 0.310500
C11 C 0.4074(2) 0.2094(2) 0.2902(5)
C12 C 0.3903(2) 0.1579(2) 0.2809(5)
H9 H 0.379551 0.136805 0.347149
C13 C 0.3895(3) 0.1385(3) 0.1728(6)
H10 H 0.377679 0.103523 0.162937
C14 C 0.4059(3) 0.1705(3) 0.0799(6)
H11 H 0.406501 0.158060 0.005154
C15 C 0.4215(3) 0.2208(3) 0.0953(6)
H12 H 0.431708 0.242386 0.029804
Cu3 Cu 0.28617(3) 0.15215(3) 0.75184(6)
Cu4 Cu 0.51451(3) 0.46735(4) 0.08518(6)
I3 I 0.38032(2) 0.22619(2) 0.77879(3)
I4 I 0.44038(3) 0.14286(2) 0.61713(3)
Cu1_2 Cu 0.81882(3) 0.19932(4) 0.58149(6)
Cu2_2 Cu 0.68424(3) 0.13455(4) 0.22766(7)
I1_2 I 0.89286(2) 0.17921(3) 0.55454(3)
I2_2 I 0.63086(2) 0.10705(3) 0.04954(3)
P1_2 P 0.76422(5) 0.17296(8) 0.43527(12)
N1_2 N 0.69305(18) 0.08437(26) 0.3288(4)
N2_2 N 0.67955(19) 0.17610(27) 0.3597(4)
N3_2 N 0.75963(19) 0.18243(28) 0.1992(4)
C1_2 C 0.7308(2) 0.1045(3) 0.4069(5)
C2_2 C 0.7472(2) 0.0758(3) 0.4661(5)
H1_2 H 0.773819 0.091071 0.520791
C3_2 C 0.7241(2) 0.0245(3) 0.4437(5)
H2_2 H 0.735279 0.004213 0.480972
C4_2 C 0.6844(2) 0.0034(3) 0.3660(5)
C5_2 C 0.6704(2) 0.0351(3) 0.3117(5)
H4_2 H 0.642878 0.020432 0.259210
C6_2 C 0.7116(2) 0.1863(3) 0.4494(6)
C7_2 C 0.7076(3) 0.2073(4) 0.5511(7)
H5_2 H 0.731120 0.214634 0.611849
C8_2 C 0.6682(4) 0.2173(5) 0.5632(8)
H6_2 H 0.663890 0.230876 0.633182
C9_2 C 0.6357(3) 0.2072(4) 0.4720(8)
H7_2 H 0.608786 0.214157 0.477697
C10_2 C 0.6426(3) 0.1871(4) 0.3731(7)
H8_2 H 0.620124 0.180569 0.310500
C11_2 C 0.7906(2) 0.1980(3) 0.2902(5)
C12_2 C 0.8421(2) 0.2324(3) 0.2809(5)
H9_2 H 0.863195 0.242746 0.347149
C13_2 C 0.8615(3) 0.2510(4) 0.1728(6)
H10_2 H 0.896477 0.274156 0.162937
C14_2 C 0.8295(3) 0.2354(4) 0.0799(6)
H11_2 H 0.841940 0.248441 0.005154
C15_2 C 0.7792(3) 0.2007(4) 0.0953(6)
H12_2 H 0.757614 0.189322 0.029804
Cu3_2 Cu 0.84785(3) 0.13401(4) 0.75184(6)
Cu4_2 Cu 0.53265(4) 0.04717(5) 0.08518(6)
I3_2 I 0.77381(2) 0.15412(3) 0.77879(3)
I4_2 I 0.85714(2) 0.29753(4) 0.61713(3)
Cu1_3 Cu 0.80068(4) 0.61950(3) 0.58149(6)
Cu2_3 Cu 0.86545(4) 0.54969(3) 0.22766(7)
I1_3 I 0.82079(3) 0.71365(2) 0.55454(3)
I2_3 I 0.89295(3) 0.52381(2) 0.04954(3)
P1_3 P 0.82704(8) 0.59126(6) 0.43527(12)
N1_3 N 0.91563(26) 0.60868(19) 0.3288(4)
N2_3 N 0.82390(27) 0.50345(19) 0.3597(4)
N3_3 N 0.81757(28) 0.5772(2) 0.1992(4)
C1_3 C 0.8955(3) 0.6263(2) 0.4069(5)
C2_3 C 0.9242(3) 0.6714(2) 0.4661(5)
H1_3 H 0.908929 0.682748 0.520791
C3_3 C 0.9755(3) 0.6996(2) 0.4437(5)
H2_3 H 0.995787 0.731066 0.480972
C4_3 C 0.9966(3) 0.6810(2) 0.3660(5)
C5_3 C 0.9649(3) 0.6353(2) 0.3117(5)
H4_3 H 0.979568 0.622446 0.259210
C6_3 C 0.8137(3) 0.5253(2) 0.4494(6)
C7_3 C 0.7927(4) 0.5003(3) 0.5511(7)
H5_3 H 0.785366 0.516486 0.611849
C8_3 C 0.7827(5) 0.4509(3) 0.5632(8)
H6_3 H 0.769124 0.433014 0.633182
C9_3 C 0.7928(4) 0.4285(3) 0.4720(8)
H7_3 H 0.785843 0.394629 0.477697
C10_3 C 0.8129(4) 0.4555(3) 0.3731(7)
H8_3 H 0.819431 0.439555 0.310500
C11_3 C 0.8020(3) 0.5926(2) 0.2902(5)
C12_3 C 0.7676(3) 0.6097(2) 0.2809(5)
H9_3 H 0.757254 0.620449 0.347149
C13_3 C 0.7490(4) 0.6105(3) 0.1728(6)
H10_3 H 0.725844 0.622321 0.162937
C14_3 C 0.7646(4) 0.5941(3) 0.0799(6)
H11_3 H 0.751559 0.593499 0.005154
C15_3 C 0.7993(4) 0.5785(3) 0.0953(6)
H12_3 H 0.810678 0.568292 0.029804
Cu3_3 Cu 0.86599(4) 0.71383(3) 0.75184(6)
Cu4_3 Cu 0.95283(5) 0.48549(3) 0.08518(6)
I3_3 I 0.84588(3) 0.61968(2) 0.77879(3)
I4_3 I 0.70247(4) 0.55962(3) 0.61713(3)
I3_4 I 0.44047(2) 0.48746(3) 0.11213(3)
I2_4 I 0.80952(2) 0.03581(2) 0.71621(3)
H4_4 H 0.710887 0.023789 0.925877
H8_4 H 0.893778 0.046543 0.977167
I2_5 I 0.96419(2) 0.77372(3) 0.71621(3)
H4_5 H 0.976211 0.687099 0.925877
H8_5 H 0.953457 0.847236 0.977167
Cu2_4 Cu 0.19878(4) 0.21636(3) 0.89433(7)
I2_6 I 0.22628(3) 0.19048(2) 0.71621(3)
N1_4 N 0.24896(26) 0.27535(19) 0.9955(4)
N3_4 N 0.15090(28) 0.2439(2) 0.8659(4)
C5_4 C 0.2982(3) 0.3020(2) 0.9784(5)
H4_6 H 0.312901 0.289113 0.925877
H8_6 H 0.152764 0.106222 0.977167
C11_4 C 0.1353(3) 0.2593(2) 0.9569(5)
C12_4 C 0.1009(3) 0.2764(2) 0.9476(5)
C13_4 C 0.0823(4) 0.2772(3) 0.8395(6)
H10_4 H 0.059177 0.288988 0.829604
C14_4 C 0.0979(4) 0.2608(3) 0.7466(6)
H11_4 H 0.084892 0.260166 0.671821
C15_4 C 0.1326(4) 0.2452(3) 0.7620(6)
H12_4 H 0.144011 0.234959 0.696471
Cu2_5 Cu 0.88302(3) 0.35091(3) 0.43901(7)
P1_4 P 0.92459(6) 0.43089(5) 0.23140(12)
N1_5 N 0.94201(19) 0.35972(18) 0.3379(4)
N2_4 N 0.83678(19) 0.34622(19) 0.3070(4)
N3_5 N 0.9105(2) 0.42630(19) 0.4675(4)
C1_4 C 0.9596(2) 0.3975(2) 0.2598(5)
C5_5 C 0.9686(2) 0.3371(2) 0.3550(5)
H4_7 H 0.955779 0.309545 0.407457
C6_4 C 0.8586(2) 0.3783(2) 0.2173(6)
C7_4 C 0.8336(3) 0.3743(3) 0.1156(7)
H5_4 H 0.849819 0.397787 0.054818
C8_4 C 0.7842(3) 0.3349(4) 0.1035(8)
H6_4 H 0.766347 0.330557 0.033485
C9_4 C 0.7618(3) 0.3024(3) 0.1947(8)
H7_4 H 0.727962 0.275453 0.188970
C10_4 C 0.7888(3) 0.3093(3) 0.2936(7)
H8_7 H 0.772888 0.286791 0.356167
C11_5 C 0.9259(2) 0.4573(2) 0.3765(5)
C12_5 C 0.9430(2) 0.5088(2) 0.3858(5)
H9_4 H 0.953782 0.529862 0.319518
C13_5 C 0.9438(3) 0.5282(3) 0.4939(6)
H10_5 H 0.955654 0.563144 0.503730
C14_5 C 0.9274(3) 0.4962(3) 0.5868(6)
H11_5 H 0.926832 0.508607 0.661513
C15_5 C 0.9118(3) 0.4459(3) 0.5714(6)
H12_5 H 0.901625 0.424281 0.636863
Cu2_6 Cu 0.64909(3) 0.53212(4) 0.43901(7)
P1_5 P 0.56911(5) 0.49371(8) 0.23140(12)
N1_6 N 0.64028(18) 0.58230(26) 0.3379(4)
N2_5 N 0.65378(19) 0.49057(27) 0.3070(4)
N3_6 N 0.57370(19) 0.48424(28) 0.4675(4)
C1_5 C 0.6025(2) 0.5622(3) 0.2598(5)
C2_4 C 0.5861(2) 0.5909(3) 0.2006(5)
H1_4 H 0.559514 0.575596 0.145876
C3_4 C 0.6092(2) 0.6422(3) 0.2230(5)
H2_4 H 0.598054 0.662454 0.185695
C4_4 C 0.6489(2) 0.6633(3) 0.3007(5)
H3_2 H 0.666110 0.698354 0.316497
C5_6 C 0.6629(2) 0.6316(3) 0.3550(5)
H4_8 H 0.690455 0.646235 0.407457
C6_5 C 0.6217(2) 0.4804(3) 0.2173(6)
C7_5 C 0.6257(3) 0.4594(4) 0.1156(7)
H5_5 H 0.602213 0.452033 0.054818
C8_5 C 0.6651(4) 0.4494(5) 0.1035(8)
H6_5 H 0.669443 0.435791 0.033485
C9_5 C 0.6976(3) 0.4595(4) 0.1947(8)
H7_5 H 0.724547 0.452510 0.188970
C10_5 C 0.6907(3) 0.4796(4) 0.2936(7)
H8_8 H 0.713209 0.486098 0.356167
C11_6 C 0.5427(2) 0.4687(3) 0.3765(5)
C12_6 C 0.4912(2) 0.4343(3) 0.3858(5)
H9_5 H 0.470138 0.423921 0.319518
C13_6 C 0.4718(3) 0.4157(4) 0.4939(6)
H10_6 H 0.436856 0.392511 0.503730
C14_6 C 0.5038(3) 0.4313(4) 0.5868(6)
H11_6 H 0.491393 0.418226 0.661513
C15_6 C 0.5541(3) 0.4660(4) 0.5714(6)
H12_6 H 0.575719 0.477345 0.636863
Cu2_7 Cu 0.46788(4) 0.11698(3) 0.43901(7)
P1_6 P 0.50629(8) 0.07541(6) 0.23140(12)
N1_7 N 0.41770(26) 0.05799(19) 0.3379(4)
N2_6 N 0.50943(27) 0.16322(19) 0.3070(4)
N3_7 N 0.51576(28) 0.0895(2) 0.4675(4)
C1_6 C 0.4378(3) 0.0404(2) 0.2598(5)
C5_7 C 0.3684(3) 0.0314(2) 0.3550(5)
H4_9 H 0.353765 0.044221 0.407457
C6_6 C 0.5196(3) 0.1414(2) 0.2173(6)
C7_6 C 0.5406(4) 0.1664(3) 0.1156(7)
H5_6 H 0.547967 0.150181 0.054818
C8_6 C 0.5506(5) 0.2158(3) 0.1035(8)
H6_6 H 0.564209 0.233653 0.033485
C9_6 C 0.5405(4) 0.2382(3) 0.1947(8)
H7_6 H 0.547490 0.272038 0.188970
C10_6 C 0.5204(4) 0.2112(3) 0.2936(7)
H8_9 H 0.513902 0.227112 0.356167
C11_7 C 0.5313(3) 0.0741(2) 0.3765(5)
C12_7 C 0.5657(3) 0.0570(2) 0.3858(5)
H9_6 H 0.576079 0.046218 0.319518
C13_7 C 0.5843(4) 0.0562(3) 0.4939(6)
H10_7 H 0.607489 0.044346 0.503730
C14_7 C 0.5687(4) 0.0726(3) 0.5868(6)
H11_7 H 0.581774 0.073168 0.661513
C15_7 C 0.5340(4) 0.0882(3) 0.5714(6)
H12_7 H 0.522655 0.098375 0.636863
P1_7 P 0.25793(6) 0.09755(5) 0.89806(12)
N2_7 N 0.17012(19) 0.01288(19) 0.9736(4)
C1_7 C 0.2930(2) 0.0641(2) 0.9264(5)
C2_5 C 0.3381(2) 0.0805(2) 0.8672(5)
H1_5 H 0.349415 0.107152 0.812542
C3_5 C 0.3663(2) 0.0574(2) 0.8896(5)
H2_5 H 0.397733 0.068612 0.852361
C4_5 C 0.3477(2) 0.0177(2) 0.9673(5)
H3_3 H 0.365577 0.000556 0.983163
C6_7 C 0.1920(2) 0.0449(2) 0.8839(6)
C7_7 C 0.1670(3) 0.0409(3) 0.7822(7)
H5_7 H 0.183153 0.064453 0.721484
C8_7 C 0.1176(3) 0.0015(4) 0.7701(8)
H9_7 H 0.287116 0.196528 0.986184
P1_8 P 0.90245(5) 0.16037(8) 0.89806(12)
N2_8 N 0.98712(19) 0.15723(27) 0.9736(4)
C1_8 C 0.9359(2) 0.2288(3) 0.9264(5)
C2_6 C 0.9195(2) 0.2575(3) 0.8672(5)
H1_6 H 0.892848 0.242262 0.812542
C3_6 C 0.9426(2) 0.3088(3) 0.8896(5)
H2_6 H 0.931388 0.329120 0.852361
C4_6 C 0.9823(2) 0.3299(3) 0.9673(5)
H3_4 H 0.999444 0.365020 0.983163
C6_8 C 0.9551(2) 0.1470(3) 0.8839(6)
C7_8 C 0.9591(3) 0.1260(4) 0.7822(7)
H5_8 H 0.935547 0.118699 0.721484
C8_8 C 0.9985(4) 0.1160(5) 0.7701(8)
H9_8 H 0.803472 0.090587 0.986184
P1_9 P 0.83963(8) 0.74207(6) 0.89806(12)
N2_9 N 0.84277(27) 0.82988(19) 0.9736(4)
C1_9 C 0.7712(3) 0.7070(2) 0.9264(5)
C2_7 C 0.7425(3) 0.6619(2) 0.8672(5)
H1_7 H 0.757738 0.650585 0.812542
C3_7 C 0.6912(3) 0.6337(2) 0.8896(5)
H2_7 H 0.670880 0.602267 0.852361
C4_7 C 0.6701(3) 0.6523(2) 0.9673(5)
H3_5 H 0.634980 0.634423 0.983163
C6_9 C 0.8530(3) 0.8080(2) 0.8839(6)
C7_9 C 0.8740(4) 0.8330(3) 0.7822(7)
H5_9 H 0.881301 0.816847 0.721484
C8_9 C 0.8840(5) 0.8824(3) 0.7701(8)
H6_7 H 0.897543 0.900319 0.700151
C9_7 C 0.8739(4) 0.9048(3) 0.8613(8)
H7_7 H 0.880824 0.938704 0.855636
C10_7 C 0.8538(4) 0.8778(3) 0.9602(7)
H9_9 H 0.909413 0.712884 0.986184
H3_6 H 0.667223 0.968313 0.350170
H3_7 H 0.031687 0.698910 0.350170
I3_5 I 0.04698(2) 0.55953(2) 0.11213(3)
C2_8 C 0.0047(2) 0.4139(2) 0.2006(5)
H1_8 H 0.016081 0.440486 0.145876
C3_8 C 0.0329(2) 0.3908(2) 0.2230(5)
H2_8 H 0.064399 0.401946 0.185695
C4_8 C 0.0143(2) 0.3511(2) 0.3007(5)
H3_8 H 0.032243 0.333890 0.316497
Cu1_4 Cu 0.04717(3) 0.51451(3) 0.91482(6)
Cu2_8 Cu 0.11698(3) 0.64909(3) 0.56099(7)
I2_7 I 0.14286(2) 0.70247(2) 0.38287(3)
P1_10 P 0.07541(6) 0.56911(5) 0.76860(12)
N1_8 N 0.05799(19) 0.64028(18) 0.6621(4)
N2_10 N 0.16322(19) 0.65378(19) 0.6930(4)
N3_8 N 0.0895(2) 0.57370(19) 0.5325(4)
C1_10 C 0.0404(2) 0.6025(2) 0.7402(5)
C5_8 C 0.0314(2) 0.6629(2) 0.6450(5)
H4_10 H 0.044221 0.690455 0.592543
C6_10 C 0.1414(2) 0.6217(2) 0.7827(6)
C7_10 C 0.1664(3) 0.6257(3) 0.8844(7)
H5_10 H 0.150181 0.602213 0.945182
C8_10 C 0.2158(3) 0.6651(4) 0.8965(8)
H6_8 H 0.233653 0.669443 0.966515
C9_8 C 0.2382(3) 0.6976(3) 0.8053(8)
H7_8 H 0.272038 0.724547 0.811030
C10_8 C 0.2112(3) 0.6907(3) 0.7064(7)
H8_10 H 0.227112 0.713209 0.643833
C11_8 C 0.0741(2) 0.5427(2) 0.6235(5)
C12_8 C 0.0570(2) 0.4912(2) 0.6142(5)
H9_10 H 0.046218 0.470138 0.680482
C13_8 C 0.0562(3) 0.4718(3) 0.5061(6)
H10_8 H 0.044346 0.436856 0.496270
C14_8 C 0.0726(3) 0.5038(3) 0.4132(6)
H11_8 H 0.073168 0.491393 0.338487
C15_8 C 0.0882(3) 0.5541(3) 0.4286(6)
H12_8 H 0.098375 0.575719 0.363137
Cu4_4 Cu 0.18118(3) 0.80068(4) 0.41851(6)
I4_4 I 0.10705(3) 0.47619(2) 0.95046(3)
Cu1_5 Cu 0.48549(3) 0.53265(4) 0.91482(6)
Cu2_9 Cu 0.35091(3) 0.46788(4) 0.56099(7)
I1_4 I 0.55953(2) 0.51254(3) 0.88787(3)
I2_8 I 0.29753(2) 0.44038(3) 0.38287(3)
P1_11 P 0.43089(5) 0.50629(8) 0.76860(12)
N1_9 N 0.35972(18) 0.41770(26) 0.6621(4)
N2_11 N 0.34622(19) 0.50943(27) 0.6930(4)
N3_9 N 0.42630(19) 0.51576(28) 0.5325(4)
C1_11 C 0.3975(2) 0.4378(3) 0.7402(5)
C2_9 C 0.4139(2) 0.4091(3) 0.7994(5)
H1_9 H 0.440486 0.424404 0.854124
C3_9 C 0.3908(2) 0.3578(3) 0.7770(5)
H2_9 H 0.401946 0.337546 0.814305
C4_9 C 0.3511(2) 0.3367(3) 0.6993(5)
H3_9 H 0.333890 0.301646 0.683503
C5_9 C 0.3371(2) 0.3684(3) 0.6450(5)
H4_11 H 0.309545 0.353765 0.592543
C6_11 C 0.3783(2) 0.5196(3) 0.7827(6)
C7_11 C 0.3743(3) 0.5406(4) 0.8844(7)
H5_11 H 0.397787 0.547967 0.945182
C8_11 C 0.3349(4) 0.5506(5) 0.8965(8)
H6_9 H 0.330557 0.564209 0.966515
C9_9 C 0.3024(3) 0.5405(4) 0.8053(8)
H7_9 H 0.275453 0.547490 0.811030
C10_9 C 0.3093(3) 0.5204(4) 0.7064(7)
H8_11 H 0.286791 0.513902 0.643833
C11_9 C 0.4573(2) 0.5313(3) 0.6235(5)
C12_9 C 0.5088(2) 0.5657(3) 0.6142(5)
H9_11 H 0.529862 0.576079 0.680482
C13_9 C 0.5282(3) 0.5843(4) 0.5061(6)
H10_9 H 0.563144 0.607489 0.496270
C14_9 C 0.4962(3) 0.5687(4) 0.4132(6)
H11_9 H 0.508607 0.581774 0.338487
C15_9 C 0.4459(3) 0.5340(4) 0.4286(6)
H12_9 H 0.424281 0.522655 0.363137
Cu4_5 Cu 0.19932(4) 0.38050(5) 0.41851(6)
I4_5 I 0.52381(2) 0.63086(4) 0.95046(3)
Cu1_6 Cu 0.46735(4) 0.95283(3) 0.91482(6)
Cu2_10 Cu 0.53212(4) 0.88302(3) 0.56099(7)
I2_9 I 0.55962(3) 0.85714(2) 0.38287(3)
P1_12 P 0.49371(8) 0.92459(6) 0.76860(12)
N1_10 N 0.58230(26) 0.94201(19) 0.6621(4)
N2_12 N 0.49057(27) 0.83678(19) 0.6930(4)
N3_10 N 0.48424(28) 0.9105(2) 0.5325(4)
C1_12 C 0.5622(3) 0.9596(2) 0.7402(5)
C5_10 C 0.6316(3) 0.9686(2) 0.6450(5)
H4_12 H 0.646235 0.955779 0.592543
C6_12 C 0.4804(3) 0.8586(2) 0.7827(6)
C7_12 C 0.4594(4) 0.8336(3) 0.8844(7)
H5_12 H 0.452033 0.849819 0.945182
C8_12 C 0.4494(5) 0.7842(3) 0.8965(8)
H6_10 H 0.435791 0.766347 0.966515
C9_10 C 0.4595(4) 0.7618(3) 0.8053(8)
H7_10 H 0.452510 0.727962 0.811030
C10_10 C 0.4796(4) 0.7888(3) 0.7064(7)
H8_12 H 0.486098 0.772888 0.643833
C11_10 C 0.4687(3) 0.9259(2) 0.6235(5)
C12_10 C 0.4343(3) 0.9430(2) 0.6142(5)
H9_12 H 0.423921 0.953782 0.680482
C13_10 C 0.4157(4) 0.9438(3) 0.5061(6)
H10_10 H 0.392511 0.955654 0.496270
C14_10 C 0.4313(4) 0.9274(3) 0.4132(6)
H11_10 H 0.418226 0.926832 0.338487
C15_10 C 0.4660(4) 0.9118(3) 0.4286(6)
H12_10 H 0.477345 0.901625 0.363137
Cu4_6 Cu 0.61950(5) 0.81882(3) 0.41851(6)
I4_6 I 0.36914(4) 0.89295(3) 0.95046(3)
Cu1_7 Cu 0.71383(3) 0.84785(3) 0.24816(6)
I1_5 I 0.61968(2) 0.77381(2) 0.22121(3)
P1_13 P 0.74207(6) 0.90245(5) 0.10194(12)
N2_13 N 0.82988(19) 0.98712(19) 0.0264(4)
C1_13 C 0.7070(2) 0.9359(2) 0.0736(5)
C2_10 C 0.6619(2) 0.9195(2) 0.1328(5)
H1_10 H 0.650585 0.892848 0.187458
C3_10 C 0.6337(2) 0.9426(2) 0.1104(5)
H2_10 H 0.602267 0.931388 0.147639
C4_10 C 0.6523(2) 0.9823(2) 0.0327(5)
H3_10 H 0.634423 0.999444 0.016837
C6_13 C 0.8080(2) 0.9551(2) 0.1161(6)
C7_13 C 0.8330(3) 0.9591(3) 0.2178(7)
H5_13 H 0.816847 0.935547 0.278516
C8_13 C 0.8824(3) 0.9985(4) 0.2299(8)
H9_13 H 0.712884 0.803472 0.013816
I3_6 I 0.71365(2) 0.89286(2) 0.44546(3)
I4_7 I 0.77372(3) 0.80952(2) 0.28379(3)
Cu1_8 Cu 0.15215(3) 0.86599(4) 0.24816(6)
I1_6 I 0.22619(2) 0.84588(3) 0.22121(3)
P1_14 P 0.09755(5) 0.83963(8) 0.10194(12)
N2_14 N 0.01288(19) 0.84277(27) 0.0264(4)
C1_14 C 0.0641(2) 0.7712(3) 0.0736(5)
C2_11 C 0.0805(2) 0.7425(3) 0.1328(5)
H1_11 H 0.107152 0.757738 0.187458
C3_11 C 0.0574(2) 0.6912(3) 0.1104(5)
H2_11 H 0.068612 0.670880 0.147639
C4_11 C 0.0177(2) 0.6701(3) 0.0327(5)
H3_11 H 0.000556 0.634980 0.016837
C6_14 C 0.0449(2) 0.8530(3) 0.1161(6)
C7_14 C 0.0409(3) 0.8740(4) 0.2178(7)
H5_14 H 0.064453 0.881301 0.278516
C8_14 C 0.0015(4) 0.8840(5) 0.2299(8)
H9_14 H 0.196528 0.909413 0.013816
I3_7 I 0.10714(2) 0.82079(3) 0.44546(3)
I4_8 I 0.19048(2) 0.96419(4) 0.28379(3)
Cu1_9 Cu 0.13401(4) 0.28617(3) 0.24816(6)
I1_7 I 0.15412(3) 0.38032(2) 0.22121(3)
P1_15 P 0.16037(8) 0.25793(6) 0.10194(12)
N2_15 N 0.15723(27) 0.17012(19) 0.0264(4)
C1_15 C 0.2288(3) 0.2930(2) 0.0736(5)
C2_12 C 0.2575(3) 0.3381(2) 0.1328(5)
H1_12 H 0.242262 0.349415 0.187458
C3_12 C 0.3088(3) 0.3663(2) 0.1104(5)
H2_12 H 0.329120 0.397733 0.147639
C4_12 C 0.3299(3) 0.3477(2) 0.0327(5)
H3_12 H 0.365020 0.365577 0.016837
C6_15 C 0.1470(3) 0.1920(2) 0.1161(6)
C7_15 C 0.1260(4) 0.1670(3) 0.2178(7)
H5_15 H 0.118699 0.183153 0.278516
C8_15 C 0.1160(5) 0.1176(3) 0.2299(8)
H6_11 H 0.102457 0.099681 0.299849
C9_11 C 0.1261(4) 0.0952(3) 0.1387(8)
H7_11 H 0.119176 0.061296 0.144364
C10_11 C 0.1462(4) 0.1222(3) 0.0398(7)
H9_15 H 0.090587 0.287116 0.013816
I3_8 I 0.17921(3) 0.28635(2) 0.44546(3)
I4_9 I 0.03581(4) 0.22628(3) 0.28379(3)
Cu2_11 Cu 0.54969(3) 0.68424(3) 0.77234(7)
P1_16 P 0.59126(6) 0.76422(5) 0.56473(12)
N1_11 N 0.60868(19) 0.69305(18) 0.6712(4)
N2_16 N 0.50345(19) 0.67955(19) 0.6403(4)
N3_11 N 0.5772(2) 0.75963(19) 0.8008(4)
C1_16 C 0.6263(2) 0.7308(2) 0.5931(5)
C2_13 C 0.6714(2) 0.7472(2) 0.5339(5)
H1_13 H 0.682748 0.773819 0.479209
C3_13 C 0.6996(2) 0.7241(2) 0.5563(5)
H2_13 H 0.731066 0.735279 0.519028
C4_13 C 0.6810(2) 0.6844(2) 0.6340(5)
H3_13 H 0.698910 0.667223 0.649830
C5_11 C 0.6353(2) 0.6704(2) 0.6883(5)
H4_13 H 0.622446 0.642878 0.740790
C6_16 C 0.5253(2) 0.7116(2) 0.5506(6)
C7_16 C 0.5003(3) 0.7076(3) 0.4489(7)
H5_16 H 0.516486 0.731120 0.388151
C8_16 C 0.4509(3) 0.6682(4) 0.4368(8)
H6_12 H 0.433014 0.663890 0.366818
C9_12 C 0.4285(3) 0.6357(3) 0.5280(8)
H7_12 H 0.394629 0.608786 0.522303
C10_12 C 0.4555(3) 0.6426(3) 0.6269(7)
H8_13 H 0.439555 0.620124 0.689500
C11_11 C 0.5926(2) 0.7906(2) 0.7098(5)
C12_11 C 0.6097(2) 0.8421(2) 0.7191(5)
H9_16 H 0.620449 0.863195 0.652851
C13_11 C 0.6105(3) 0.8615(3) 0.8272(6)
H10_11 H 0.622321 0.896477 0.837063
C14_11 C 0.5941(3) 0.8295(3) 0.9201(6)
H11_11 H 0.593499 0.841940 0.994846
C15_11 C 0.5785(3) 0.7792(3) 0.9047(6)
H12_11 H 0.568292 0.757614 0.970196
Cu2_12 Cu 0.31576(3) 0.86545(4) 0.77234(7)
P1_17 P 0.23578(5) 0.82704(8) 0.56473(12)
N1_12 N 0.30695(18) 0.91563(26) 0.6712(4)
N2_17 N 0.32045(19) 0.82390(27) 0.6403(4)
N3_12 N 0.24037(19) 0.81757(28) 0.8008(4)
C1_17 C 0.2692(2) 0.8955(3) 0.5931(5)
C2_14 C 0.2528(2) 0.9242(3) 0.5339(5)
H1_14 H 0.226181 0.908929 0.479209
C3_14 C 0.2759(2) 0.9755(3) 0.5563(5)
H2_14 H 0.264721 0.995787 0.519028
C4_14 C 0.3156(2) 0.9966(3) 0.6340(5)
C5_12 C 0.3296(2) 0.9649(3) 0.6883(5)
H4_14 H 0.357122 0.979568 0.740790
C6_17 C 0.2884(2) 0.8137(3) 0.5506(6)
C7_17 C 0.2924(3) 0.7927(4) 0.4489(7)
H5_17 H 0.268880 0.785366 0.388151
C8_17 C 0.3318(4) 0.7827(5) 0.4368(8)
H6_13 H 0.336110 0.769124 0.366818
C9_13 C 0.3643(3) 0.7928(4) 0.5280(8)
H7_13 H 0.391214 0.785843 0.522303
C10_13 C 0.3574(3) 0.8129(4) 0.6269(7)
H8_14 H 0.379876 0.819431 0.689500
C11_12 C 0.2094(2) 0.8020(3) 0.7098(5)
C12_12 C 0.1579(2) 0.7676(3) 0.7191(5)
H9_17 H 0.136805 0.757254 0.652851
C13_12 C 0.1385(3) 0.7490(4) 0.8272(6)
H10_12 H 0.103523 0.725844 0.837063
C14_12 C 0.1705(3) 0.7646(4) 0.9201(6)
H11_12 H 0.158060 0.751559 0.994846
C15_12 C 0.2208(3) 0.7993(4) 0.9047(6)
H12_12 H 0.242386 0.810678 0.970196
Cu2_13 Cu 0.13455(4) 0.45031(3) 0.77234(7)
P1_18 P 0.17296(8) 0.40874(6) 0.56473(12)
N1_13 N 0.08437(26) 0.39132(19) 0.6712(4)
N2_18 N 0.17610(27) 0.49655(19) 0.6403(4)
N3_13 N 0.18243(28) 0.4228(2) 0.8008(4)
C1_18 C 0.1045(3) 0.3737(2) 0.5931(5)
C2_15 C 0.0758(3) 0.3286(2) 0.5339(5)
H1_15 H 0.091071 0.317252 0.479209
C3_15 C 0.0245(3) 0.3004(2) 0.5563(5)
H2_15 H 0.004213 0.268934 0.519028
C4_15 C 0.0034(3) 0.3190(2) 0.6340(5)
C5_13 C 0.0351(3) 0.3647(2) 0.6883(5)
H4_15 H 0.020432 0.377554 0.740790
C6_18 C 0.1863(3) 0.4747(2) 0.5506(6)
C7_18 C 0.2073(4) 0.4997(3) 0.4489(7)
H5_18 H 0.214634 0.483514 0.388151
C8_18 C 0.2173(5) 0.5491(3) 0.4368(8)
H6_14 H 0.230876 0.566986 0.366818
C9_14 C 0.2072(4) 0.5715(3) 0.5280(8)
H7_14 H 0.214157 0.605371 0.522303
C10_14 C 0.1871(4) 0.5445(3) 0.6269(7)
H8_15 H 0.180569 0.560445 0.689500
C11_13 C 0.1980(3) 0.4074(2) 0.7098(5)
C12_13 C 0.2324(3) 0.3903(2) 0.7191(5)
H9_18 H 0.242746 0.379551 0.652851
C13_13 C 0.2510(4) 0.3895(3) 0.8272(6)
H10_13 H 0.274156 0.377679 0.837063
C14_13 C 0.2354(4) 0.4059(3) 0.9201(6)
H11_13 H 0.248441 0.406501 0.994846
C15_13 C 0.2007(4) 0.4215(3) 0.9047(6)
H12_13 H 0.189322 0.431708 0.970196
H4_16 H 0.289113 0.976211 0.074123
H8_16 H 0.106222 0.953457 0.022833
H4_17 H 0.023789 0.312901 0.074123
H8_17 H 0.046543 0.152764 0.022833
Cu2_14 Cu 0.80122(4) 0.78364(3) 0.10567(7)
N1_14 N 0.75104(26) 0.72465(19) 0.0045(4)
N3_14 N 0.84910(28) 0.7561(2) 0.1341(4)
C5_14 C 0.7018(3) 0.6980(2) 0.0216(5)
H4_18 H 0.687099 0.710887 0.074123
H8_18 H 0.847236 0.893778 0.022833
C11_14 C 0.8647(3) 0.7407(2) 0.0431(5)
C12_14 C 0.8991(3) 0.7236(2) 0.0524(5)
C13_14 C 0.9177(4) 0.7228(3) 0.1605(6)
H10_14 H 0.940823 0.711012 0.170396
C14_14 C 0.9021(4) 0.7392(3) 0.2534(6)
H11_14 H 0.915108 0.739834 0.328179
C15_14 C 0.8674(4) 0.7548(3) 0.2380(6)
H12_14 H 0.855989 0.765041 0.303529
I1_8 I 0.95302(2) 0.44047(2) 0.88787(3)
C2_16 C 0.9953(2) 0.5861(2) 0.7994(5)
H1_16 H 0.983919 0.559514 0.854124
C3_16 C 0.9671(2) 0.6092(2) 0.7770(5)
H2_16 H 0.935601 0.598054 0.814305
C4_16 C 0.9857(2) 0.6489(2) 0.6993(5)
H3_14 H 0.967757 0.666110 0.683503
I1_9 I 0.48746(3) 0.04698(2) 0.88787(3)
C2_17 C 0.5909(3) 0.0047(2) 0.7994(5)
H1_17 H 0.575596 0.016081 0.854124
C3_17 C 0.6422(3) 0.0329(2) 0.7770(5)
H2_17 H 0.662454 0.064399 0.814305
C4_17 C 0.6633(3) 0.0143(2) 0.6993(5)
H3_15 H 0.698354 0.032243 0.683503
I3_9 I 0.51254(3) 0.95302(2) 0.11213(3)
C2_18 C 0.4091(3) 0.9953(2) 0.2006(5)
H1_18 H 0.424404 0.983919 0.145876
C3_18 C 0.3578(3) 0.9671(2) 0.2230(5)
H2_18 H 0.337546 0.935601 0.185695
C4_18 C 0.3367(3) 0.9857(2) 0.3007(5)
H3_16 H 0.301646 0.967757 0.316497
H6_15 H 0.900319 0.002777 0.299849
C9_15 C 0.9048(3) 0.0310(3) 0.1387(8)
H7_15 H 0.938704 0.057881 0.144364
C10_15 C 0.8778(3) 0.0241(3) 0.0398(7)
Cu2_15 Cu 0.78364(3) 0.98243(3) 0.89433(7)
N1_15 N 0.72465(19) 0.97362(18) 0.9955(4)
N3_15 N 0.7561(2) 0.90704(19) 0.8659(4)
C5_15 C 0.6980(2) 0.9963(2) 0.9784(5)
C11_15 C 0.7407(2) 0.8761(2) 0.9569(5)
C12_15 C 0.7236(2) 0.8246(2) 0.9476(5)
C13_15 C 0.7228(3) 0.8052(3) 0.8395(6)
H10_15 H 0.711012 0.770190 0.829604
C14_15 C 0.7392(3) 0.8372(3) 0.7466(6)
H11_15 H 0.739834 0.824727 0.671821
C15_15 C 0.7548(3) 0.8875(3) 0.7620(6)
H12_15 H 0.765041 0.909053 0.696471
Cu2_16 Cu 0.01757(3) 0.80122(4) 0.89433(7)
N1_16 N 0.02638(18) 0.75104(26) 0.9955(4)
N3_16 N 0.09296(19) 0.84910(28) 0.8659(4)
C5_16 C 0.0037(2) 0.7018(3) 0.9784(5)
C11_16 C 0.1239(2) 0.8647(3) 0.9569(5)
C12_16 C 0.1754(2) 0.8991(3) 0.9476(5)
C13_16 C 0.1948(3) 0.9177(4) 0.8395(6)
H10_16 H 0.229810 0.940823 0.829604
C14_16 C 0.1628(3) 0.9021(4) 0.7466(6)
H11_16 H 0.175273 0.915108 0.671821
C15_16 C 0.1125(3) 0.8674(4) 0.7620(6)
H12_16 H 0.090947 0.855989 0.696471
H6_16 H 0.997223 0.897543 0.299849
C9_16 C 0.9690(3) 0.8739(4) 0.1387(8)
H7_16 H 0.942119 0.880824 0.144364
C10_16 C 0.9759(3) 0.8538(4) 0.0398(7)
H3_17 H 0.332777 0.031687 0.649830
H3_18 H 0.968313 0.301090 0.649830
Cu2_17 Cu 0.21636(3) 0.01757(3) 0.10567(7)
N1_17 N 0.27535(19) 0.02638(18) 0.0045(4)
N3_17 N 0.2439(2) 0.09296(19) 0.1341(4)
C5_17 C 0.3020(2) 0.0037(2) 0.0216(5)
C11_17 C 0.2593(2) 0.1239(2) 0.0431(5)
C12_17 C 0.2764(2) 0.1754(2) 0.0524(5)
C13_17 C 0.2772(3) 0.1948(3) 0.1605(6)
H10_17 H 0.288988 0.229810 0.170396
C14_17 C 0.2608(3) 0.1628(3) 0.2534(6)
H11_17 H 0.260166 0.175273 0.328179
C15_17 C 0.2452(3) 0.1125(3) 0.2380(6)
H12_17 H 0.234959 0.090947 0.303529
H6_17 H 0.099681 0.997223 0.700151
C9_17 C 0.0952(3) 0.9690(3) 0.8613(8)
H7_17 H 0.061296 0.942119 0.855636
C10_17 C 0.1222(3) 0.9759(3) 0.9602(7)
H6_18 H 0.002777 0.102457 0.700151
C9_18 C 0.0310(3) 0.1261(4) 0.8613(8)
H7_18 H 0.057881 0.119176 0.855636
C10_18 C 0.0241(3) 0.1462(4) 0.9602(7)
Cu2_18 Cu 0.98243(3) 0.19878(4) 0.10567(7)
N1_18 N 0.97362(18) 0.24896(26) 0.0045(4)
N3_18 N 0.90704(19) 0.15090(28) 0.1341(4)
C5_18 C 0.9963(2) 0.2982(3) 0.0216(5)
C11_18 C 0.8761(2) 0.1353(3) 0.0431(5)
C12_18 C 0.8246(2) 0.1009(3) 0.0524(5)
C13_18 C 0.8052(3) 0.0823(4) 0.1605(6)
H10_18 H 0.770190 0.059177 0.170396
C14_18 C 0.8372(3) 0.0979(4) 0.2534(6)
H11_18 H 0.824727 0.084892 0.328179
C15_18 C 0.8875(3) 0.1326(4) 0.2380(6)
H12_18 H 0.909053 0.144011 0.303529
loop_
_geom_bond_atom_site_label_1
_geom_bond_atom_site_label_2
_geom_bond_site_symmetry_1
_geom_bond_site_symmetry_2
Cu1 I1 1_555 1_555
Cu2 I2 1_555 1_555
I1 Cu3 1_555 1_555
I2 Cu4 1_555 1_555
P1 Cu1 1_555 1_555
N1 Cu2 1_555 1_555
N2 Cu2 1_555 1_555
N3 Cu2 1_555 1_555
C1 P1 1_555 1_555
C2 C1 1_555 1_555
H1 C2 1_555 1_555
C3 C2 1_555 1_555
H2 C3 1_555 1_555
C4 C3 1_555 1_555
H3 C4 1_555 1_555
C5 N1 1_555 1_555
H4 C5 1_555 1_555
C6 P1 1_555 1_555
C7 C6 1_555 1_555
H5 C7 1_555 1_555
C8 C7 1_555 1_555
H6 C8 1_555 1_555
C9 C8 1_555 1_555
H7 C9 1_555 1_555
C10 N2 1_555 1_555
H8 C10 1_555 1_555
C11 P1 1_555 1_555
C12 C11 1_555 1_555
H9 C12 1_555 1_555
C13 C12 1_555 1_555
H10 C13 1_555 1_555
C14 C13 1_555 1_555
H11 C14 1_555 1_555
C15 N3 1_555 1_555
H12 C15 1_555 1_555
Cu3 I3 1_555 1_555
I3 Cu1 1_555 1_555
I4 Cu1 1_555 1_555
N1 C1 1_555 1_555
N2 C6 1_555 1_555
N3 C11 1_555 1_555
C4 C5 1_555 1_555
C9 C10 1_555 1_555
C14 C15 1_555 1_555
Cu1_2 I1_2 1_555 1_555
Cu2_2 I2_2 1_555 1_555
I1_2 Cu3_2 1_555 1_555
I2_2 Cu4_2 1_555 1_555
P1_2 Cu1_2 1_555 1_555
N1_2 Cu2_2 1_555 1_555
N2_2 Cu2_2 1_555 1_555
N3_2 Cu2_2 1_555 1_555
C1_2 P1_2 1_555 1_555
C2_2 C1_2 1_555 1_555
H1_2 C2_2 1_555 1_555
C3_2 C2_2 1_555 1_555
H2_2 C3_2 1_555 1_555
C4_2 C3_2 1_555 1_555
C5_2 N1_2 1_555 1_555
H4_2 C5_2 1_555 1_555
C6_2 P1_2 1_555 1_555
C7_2 C6_2 1_555 1_555
H5_2 C7_2 1_555 1_555
C8_2 C7_2 1_555 1_555
H6_2 C8_2 1_555 1_555
C9_2 C8_2 1_555 1_555
H7_2 C9_2 1_555 1_555
C10_2 N2_2 1_555 1_555
H8_2 C10_2 1_555 1_555
C11_2 P1_2 1_555 1_555
C12_2 C11_2 1_555 1_555
H9_2 C12_2 1_555 1_555
C13_2 C12_2 1_555 1_555
H10_2 C13_2 1_555 1_555
C14_2 C13_2 1_555 1_555
H11_2 C14_2 1_555 1_555
C15_2 N3_2 1_555 1_555
H12_2 C15_2 1_555 1_555
Cu3_2 I3_2 1_555 1_555
I3_2 Cu1_2 1_555 1_555
I4_2 Cu1_2 1_555 1_555
N1_2 C1_2 1_555 1_555
N2_2 C6_2 1_555 1_555
N3_2 C11_2 1_555 1_555
C4_2 C5_2 1_555 1_555
C9_2 C10_2 1_555 1_555
C14_2 C15_2 1_555 1_555
Cu1_3 I1_3 1_555 1_555
Cu2_3 I2_3 1_555 1_555
I1_3 Cu3_3 1_555 1_555
I2_3 Cu4_3 1_555 1_555
P1_3 Cu1_3 1_555 1_555
N1_3 Cu2_3 1_555 1_555
N2_3 Cu2_3 1_555 1_555
N3_3 Cu2_3 1_555 1_555
C1_3 P1_3 1_555 1_555
C2_3 C1_3 1_555 1_555
H1_3 C2_3 1_555 1_555
C3_3 C2_3 1_555 1_555
H2_3 C3_3 1_555 1_555
C4_3 C3_3 1_555 1_555
C5_3 N1_3 1_555 1_555
H4_3 C5_3 1_555 1_555
C6_3 P1_3 1_555 1_555
C7_3 C6_3 1_555 1_555
H5_3 C7_3 1_555 1_555
C8_3 C7_3 1_555 1_555
H6_3 C8_3 1_555 1_555
C9_3 C8_3 1_555 1_555
H7_3 C9_3 1_555 1_555
C10_3 N2_3 1_555 1_555
H8_3 C10_3 1_555 1_555
C11_3 P1_3 1_555 1_555
C12_3 C11_3 1_555 1_555
H9_3 C12_3 1_555 1_555
C13_3 C12_3 1_555 1_555
H10_3 C13_3 1_555 1_555
C14_3 C13_3 1_555 1_555
H11_3 C14_3 1_555 1_555
C15_3 N3_3 1_555 1_555
H12_3 C15_3 1_555 1_555
Cu3_3 I3_3 1_555 1_555
I3_3 Cu1_3 1_555 1_555
I4_3 Cu1_3 1_555 1_555
N1_3 C1_3 1_555 1_555
N2_3 C6_3 1_555 1_555
N3_3 C11_3 1_555 1_555
C4_3 C5_3 1_555 1_555
C9_3 C10_3 1_555 1_555
C14_3 C15_3 1_555 1_555
Cu4 I3_4 1_555 1_555
I2_4 Cu3_2 1_555 1_555
I2_5 Cu3_3 1_555 1_555
Cu2_4 I2_6 1_555 1_555
I2_6 Cu3 1_555 1_555
N1_4 Cu2_4 1_555 1_555
N3_4 Cu2_4 1_555 1_555
C5_4 N1_4 1_555 1_555
H4_6 C5_4 1_555 1_555
C12_4 C11_4 1_555 1_555
C13_4 C12_4 1_555 1_555
H10_4 C13_4 1_555 1_555
C14_4 C13_4 1_555 1_555
H11_4 C14_4 1_555 1_555
C15_4 N3_4 1_555 1_555
H12_4 C15_4 1_555 1_555
N3_4 C11_4 1_555 1_555
C14_4 C15_4 1_555 1_555
Cu2_5 I4_2 1_555 1_555
P1_4 Cu4_3 1_555 1_555
N1_5 Cu2_5 1_555 1_555
N2_4 Cu2_5 1_555 1_555
N3_5 Cu2_5 1_555 1_555
C1_4 P1_4 1_555 1_555
C5_5 N1_5 1_555 1_555
H4_7 C5_5 1_555 1_555
C6_4 P1_4 1_555 1_555
C7_4 C6_4 1_555 1_555
H5_4 C7_4 1_555 1_555
C8_4 C7_4 1_555 1_555
H6_4 C8_4 1_555 1_555
C9_4 C8_4 1_555 1_555
H7_4 C9_4 1_555 1_555
C10_4 N2_4 1_555 1_555
H8_7 C10_4 1_555 1_555
C11_5 P1_4 1_555 1_555
C12_5 C11_5 1_555 1_555
H9_4 C12_5 1_555 1_555
C13_5 C12_5 1_555 1_555
H10_5 C13_5 1_555 1_555
C14_5 C13_5 1_555 1_555
H11_5 C14_5 1_555 1_555
C15_5 N3_5 1_555 1_555
H12_5 C15_5 1_555 1_555
N1_5 C1_4 1_555 1_555
N2_4 C6_4 1_555 1_555
N3_5 C11_5 1_555 1_555
C9_4 C10_4 1_555 1_555
C14_5 C15_5 1_555 1_555
Cu2_6 I4_3 1_555 1_555
P1_5 Cu4 1_555 1_555
N1_6 Cu2_6 1_555 1_555
N2_5 Cu2_6 1_555 1_555
N3_6 Cu2_6 1_555 1_555
C1_5 P1_5 1_555 1_555
C2_4 C1_5 1_555 1_555
H1_4 C2_4 1_555 1_555
C3_4 C2_4 1_555 1_555
H2_4 C3_4 1_555 1_555
C4_4 C3_4 1_555 1_555
H3_2 C4_4 1_555 1_555
C5_6 N1_6 1_555 1_555
H4_8 C5_6 1_555 1_555
C6_5 P1_5 1_555 1_555
C7_5 C6_5 1_555 1_555
H5_5 C7_5 1_555 1_555
C8_5 C7_5 1_555 1_555
H6_5 C8_5 1_555 1_555
C9_5 C8_5 1_555 1_555
H7_5 C9_5 1_555 1_555
C10_5 N2_5 1_555 1_555
H8_8 C10_5 1_555 1_555
C11_6 P1_5 1_555 1_555
C12_6 C11_6 1_555 1_555
H9_5 C12_6 1_555 1_555
C13_6 C12_6 1_555 1_555
H10_6 C13_6 1_555 1_555
C14_6 C13_6 1_555 1_555
H11_6 C14_6 1_555 1_555
C15_6 N3_6 1_555 1_555
H12_6 C15_6 1_555 1_555
N1_6 C1_5 1_555 1_555
N2_5 C6_5 1_555 1_555
N3_6 C11_6 1_555 1_555
C4_4 C5_6 1_555 1_555
C9_5 C10_5 1_555 1_555
C14_6 C15_6 1_555 1_555
Cu2_7 I4 1_555 1_555
P1_6 Cu4_2 1_555 1_555
N1_7 Cu2_7 1_555 1_555
N2_6 Cu2_7 1_555 1_555
N3_7 Cu2_7 1_555 1_555
C1_6 P1_6 1_555 1_555
C5_7 N1_7 1_555 1_555
H4_9 C5_7 1_555 1_555
C6_6 P1_6 1_555 1_555
C7_6 C6_6 1_555 1_555
H5_6 C7_6 1_555 1_555
C8_6 C7_6 1_555 1_555
H6_6 C8_6 1_555 1_555
C9_6 C8_6 1_555 1_555
H7_6 C9_6 1_555 1_555
C10_6 N2_6 1_555 1_555
H8_9 C10_6 1_555 1_555
C11_7 P1_6 1_555 1_555
C12_7 C11_7 1_555 1_555
H9_6 C12_7 1_555 1_555
C13_7 C12_7 1_555 1_555
H10_7 C13_7 1_555 1_555
C14_7 C13_7 1_555 1_555
H11_7 C14_7 1_555 1_555
C15_7 N3_7 1_555 1_555
H12_7 C15_7 1_555 1_555
N1_7 C1_6 1_555 1_555
N2_6 C6_6 1_555 1_555
N3_7 C11_7 1_555 1_555
C9_6 C10_6 1_555 1_555
C14_7 C15_7 1_555 1_555
P1_7 Cu3 1_555 1_555
C1_7 P1_7 1_555 1_555
C2_5 C1_7 1_555 1_555
H1_5 C2_5 1_555 1_555
C3_5 C2_5 1_555 1_555
H2_5 C3_5 1_555 1_555
C4_5 C3_5 1_555 1_555
H3_3 C4_5 1_555 1_555
C6_7 P1_7 1_555 1_555
C7_7 C6_7 1_555 1_555
H5_7 C7_7 1_555 1_555
C8_7 C7_7 1_555 1_555
N2_7 C6_7 1_555 1_555
P1_8 Cu3_2 1_555 1_555
C1_8 P1_8 1_555 1_555
C2_6 C1_8 1_555 1_555
H1_6 C2_6 1_555 1_555
C3_6 C2_6 1_555 1_555
H2_6 C3_6 1_555 1_555
C4_6 C3_6 1_555 1_555
H3_4 C4_6 1_555 1_555
C6_8 P1_8 1_555 1_555
C7_8 C6_8 1_555 1_555
H5_8 C7_8 1_555 1_555
C8_8 C7_8 1_555 1_555
N2_8 C6_8 1_555 1_555
P1_9 Cu3_3 1_555 1_555
C1_9 P1_9 1_555 1_555
C2_7 C1_9 1_555 1_555
H1_7 C2_7 1_555 1_555
C3_7 C2_7 1_555 1_555
H2_7 C3_7 1_555 1_555
C4_7 C3_7 1_555 1_555
H3_5 C4_7 1_555 1_555
C6_9 P1_9 1_555 1_555
C7_9 C6_9 1_555 1_555
H5_9 C7_9 1_555 1_555
C8_9 C7_9 1_555 1_555
H6_7 C8_9 1_555 1_555
C9_7 C8_9 1_555 1_555
H7_7 C9_7 1_555 1_555
C10_7 N2_9 1_555 1_555
N2_9 C6_9 1_555 1_555
C9_7 C10_7 1_555 1_555
H1_8 C2_8 1_555 1_555
C3_8 C2_8 1_555 1_555
H2_8 C3_8 1_555 1_555
C4_8 C3_8 1_555 1_555
H3_8 C4_8 1_555 1_555
Cu2_8 I2_7 1_555 1_555
I2_7 Cu4_4 1_555 1_555
P1_10 Cu1_4 1_555 1_555
N1_8 Cu2_8 1_555 1_555
N2_10 Cu2_8 1_555 1_555
N3_8 Cu2_8 1_555 1_555
C1_10 P1_10 1_555 1_555
C5_8 N1_8 1_555 1_555
H4_10 C5_8 1_555 1_555
C6_10 P1_10 1_555 1_555
C7_10 C6_10 1_555 1_555
H5_10 C7_10 1_555 1_555
C8_10 C7_10 1_555 1_555
H6_8 C8_10 1_555 1_555
C9_8 C8_10 1_555 1_555
H7_8 C9_8 1_555 1_555
C10_8 N2_10 1_555 1_555
H8_10 C10_8 1_555 1_555
C11_8 P1_10 1_555 1_555
C12_8 C11_8 1_555 1_555
H9_10 C12_8 1_555 1_555
C13_8 C12_8 1_555 1_555
H10_8 C13_8 1_555 1_555
C14_8 C13_8 1_555 1_555
H11_8 C14_8 1_555 1_555
C15_8 N3_8 1_555 1_555
H12_8 C15_8 1_555 1_555
I4_4 Cu1_4 1_555 1_555
N1_8 C1_10 1_555 1_555
N2_10 C6_10 1_555 1_555
N3_8 C11_8 1_555 1_555
C9_8 C10_8 1_555 1_555
C14_8 C15_8 1_555 1_555
Cu1_5 I1_4 1_555 1_555
Cu2_9 I2_8 1_555 1_555
I2_8 Cu4_5 1_555 1_555
P1_11 Cu1_5 1_555 1_555
N1_9 Cu2_9 1_555 1_555
N2_11 Cu2_9 1_555 1_555
N3_9 Cu2_9 1_555 1_555
C1_11 P1_11 1_555 1_555
C2_9 C1_11 1_555 1_555
H1_9 C2_9 1_555 1_555
C3_9 C2_9 1_555 1_555
H2_9 C3_9 1_555 1_555
C4_9 C3_9 1_555 1_555
H3_9 C4_9 1_555 1_555
C5_9 N1_9 1_555 1_555
H4_11 C5_9 1_555 1_555
C6_11 P1_11 1_555 1_555
C7_11 C6_11 1_555 1_555
H5_11 C7_11 1_555 1_555
C8_11 C7_11 1_555 1_555
H6_9 C8_11 1_555 1_555
C9_9 C8_11 1_555 1_555
H7_9 C9_9 1_555 1_555
C10_9 N2_11 1_555 1_555
H8_11 C10_9 1_555 1_555
C11_9 P1_11 1_555 1_555
C12_9 C11_9 1_555 1_555
H9_11 C12_9 1_555 1_555
C13_9 C12_9 1_555 1_555
H10_9 C13_9 1_555 1_555
C14_9 C13_9 1_555 1_555
H11_9 C14_9 1_555 1_555
C15_9 N3_9 1_555 1_555
H12_9 C15_9 1_555 1_555
I4_5 Cu1_5 1_555 1_555
N1_9 C1_11 1_555 1_555
N2_11 C6_11 1_555 1_555
N3_9 C11_9 1_555 1_555
C4_9 C5_9 1_555 1_555
C9_9 C10_9 1_555 1_555
C14_9 C15_9 1_555 1_555
Cu2_10 I2_9 1_555 1_555
I2_9 Cu4_6 1_555 1_555
P1_12 Cu1_6 1_555 1_555
N1_10 Cu2_10 1_555 1_555
N2_12 Cu2_10 1_555 1_555
N3_10 Cu2_10 1_555 1_555
C1_12 P1_12 1_555 1_555
C5_10 N1_10 1_555 1_555
H4_12 C5_10 1_555 1_555
C6_12 P1_12 1_555 1_555
C7_12 C6_12 1_555 1_555
H5_12 C7_12 1_555 1_555
C8_12 C7_12 1_555 1_555
H6_10 C8_12 1_555 1_555
C9_10 C8_12 1_555 1_555
H7_10 C9_10 1_555 1_555
C10_10 N2_12 1_555 1_555
H8_12 C10_10 1_555 1_555
C11_10 P1_12 1_555 1_555
C12_10 C11_10 1_555 1_555
H9_12 C12_10 1_555 1_555
C13_10 C12_10 1_555 1_555
H10_10 C13_10 1_555 1_555
C14_10 C13_10 1_555 1_555
H11_10 C14_10 1_555 1_555
C15_10 N3_10 1_555 1_555
H12_10 C15_10 1_555 1_555
I4_6 Cu1_6 1_555 1_555
N1_10 C1_12 1_555 1_555
N2_12 C6_12 1_555 1_555
N3_10 C11_10 1_555 1_555
C9_10 C10_10 1_555 1_555
C14_10 C15_10 1_555 1_555
Cu1_7 I1_5 1_555 1_555
I1_5 Cu4_6 1_555 1_555
P1_13 Cu1_7 1_555 1_555
C1_13 P1_13 1_555 1_555
C2_10 C1_13 1_555 1_555
H1_10 C2_10 1_555 1_555
C3_10 C2_10 1_555 1_555
H2_10 C3_10 1_555 1_555
C4_10 C3_10 1_555 1_555
H3_10 C4_10 1_555 1_555
C6_13 P1_13 1_555 1_555
C7_13 C6_13 1_555 1_555
H5_13 C7_13 1_555 1_555
C8_13 C7_13 1_555 1_555
Cu4_6 I3_6 1_555 1_555
I3_6 Cu1_7 1_555 1_555
I4_7 Cu1_7 1_555 1_555
N2_13 C6_13 1_555 1_555
Cu1_8 I1_6 1_555 1_555
I1_6 Cu4_4 1_555 1_555
P1_14 Cu1_8 1_555 1_555
C1_14 P1_14 1_555 1_555
C2_11 C1_14 1_555 1_555
H1_11 C2_11 1_555 1_555
C3_11 C2_11 1_555 1_555
H2_11 C3_11 1_555 1_555
C4_11 C3_11 1_555 1_555
H3_11 C4_11 1_555 1_555
C6_14 P1_14 1_555 1_555
C7_14 C6_14 1_555 1_555
H5_14 C7_14 1_555 1_555
C8_14 C7_14 1_555 1_555
Cu4_4 I3_7 1_555 1_555
I3_7 Cu1_8 1_555 1_555
I4_8 Cu1_8 1_555 1_555
N2_14 C6_14 1_555 1_555
Cu1_9 I1_7 1_555 1_555
I1_7 Cu4_5 1_555 1_555
P1_15 Cu1_9 1_555 1_555
C1_15 P1_15 1_555 1_555
C2_12 C1_15 1_555 1_555
H1_12 C2_12 1_555 1_555
C3_12 C2_12 1_555 1_555
H2_12 C3_12 1_555 1_555
C4_12 C3_12 1_555 1_555
H3_12 C4_12 1_555 1_555
C6_15 P1_15 1_555 1_555
C7_15 C6_15 1_555 1_555
H5_15 C7_15 1_555 1_555
C8_15 C7_15 1_555 1_555
H6_11 C8_15 1_555 1_555
C9_11 C8_15 1_555 1_555
H7_11 C9_11 1_555 1_555
C10_11 N2_15 1_555 1_555
Cu4_5 I3_8 1_555 1_555
I3_8 Cu1_9 1_555 1_555
I4_9 Cu1_9 1_555 1_555
N2_15 C6_15 1_555 1_555
C9_11 C10_11 1_555 1_555
Cu2_11 I4_5 1_555 1_555
P1_16 Cu4_6 1_555 1_555
N1_11 Cu2_11 1_555 1_555
N2_16 Cu2_11 1_555 1_555
N3_11 Cu2_11 1_555 1_555
C1_16 P1_16 1_555 1_555
C2_13 C1_16 1_555 1_555
H1_13 C2_13 1_555 1_555
C3_13 C2_13 1_555 1_555
H2_13 C3_13 1_555 1_555
C4_13 C3_13 1_555 1_555
H3_13 C4_13 1_555 1_555
C5_11 N1_11 1_555 1_555
H4_13 C5_11 1_555 1_555
C6_16 P1_16 1_555 1_555
C7_16 C6_16 1_555 1_555
H5_16 C7_16 1_555 1_555
C8_16 C7_16 1_555 1_555
H6_12 C8_16 1_555 1_555
C9_12 C8_16 1_555 1_555
H7_12 C9_12 1_555 1_555
C10_12 N2_16 1_555 1_555
H8_13 C10_12 1_555 1_555
C11_11 P1_16 1_555 1_555
C12_11 C11_11 1_555 1_555
H9_16 C12_11 1_555 1_555
C13_11 C12_11 1_555 1_555
H10_11 C13_11 1_555 1_555
C14_11 C13_11 1_555 1_555
H11_11 C14_11 1_555 1_555
C15_11 N3_11 1_555 1_555
H12_11 C15_11 1_555 1_555
N1_11 C1_16 1_555 1_555
N2_16 C6_16 1_555 1_555
N3_11 C11_11 1_555 1_555
C4_13 C5_11 1_555 1_555
C9_12 C10_12 1_555 1_555
C14_11 C15_11 1_555 1_555
Cu2_12 I4_6 1_555 1_555
P1_17 Cu4_4 1_555 1_555
N1_12 Cu2_12 1_555 1_555
N2_17 Cu2_12 1_555 1_555
N3_12 Cu2_12 1_555 1_555
C1_17 P1_17 1_555 1_555
C2_14 C1_17 1_555 1_555
H1_14 C2_14 1_555 1_555
C3_14 C2_14 1_555 1_555
H2_14 C3_14 1_555 1_555
C4_14 C3_14 1_555 1_555
C5_12 N1_12 1_555 1_555
H4_14 C5_12 1_555 1_555
C6_17 P1_17 1_555 1_555
C7_17 C6_17 1_555 1_555
H5_17 C7_17 1_555 1_555
C8_17 C7_17 1_555 1_555
H6_13 C8_17 1_555 1_555
C9_13 C8_17 1_555 1_555
H7_13 C9_13 1_555 1_555
C10_13 N2_17 1_555 1_555
H8_14 C10_13 1_555 1_555
C11_12 P1_17 1_555 1_555
C12_12 C11_12 1_555 1_555
H9_17 C12_12 1_555 1_555
C13_12 C12_12 1_555 1_555
H10_12 C13_12 1_555 1_555
C14_12 C13_12 1_555 1_555
H11_12 C14_12 1_555 1_555
C15_12 N3_12 1_555 1_555
H12_12 C15_12 1_555 1_555
N1_12 C1_17 1_555 1_555
N2_17 C6_17 1_555 1_555
N3_12 C11_12 1_555 1_555
C4_14 C5_12 1_555 1_555
C9_13 C10_13 1_555 1_555
C14_12 C15_12 1_555 1_555
Cu2_13 I4_4 1_555 1_555
P1_18 Cu4_5 1_555 1_555
N1_13 Cu2_13 1_555 1_555
N2_18 Cu2_13 1_555 1_555
N3_13 Cu2_13 1_555 1_555
C1_18 P1_18 1_555 1_555
C2_15 C1_18 1_555 1_555
H1_15 C2_15 1_555 1_555
C3_15 C2_15 1_555 1_555
H2_15 C3_15 1_555 1_555
C4_15 C3_15 1_555 1_555
C5_13 N1_13 1_555 1_555
H4_15 C5_13 1_555 1_555
C6_18 P1_18 1_555 1_555
C7_18 C6_18 1_555 1_555
H5_18 C7_18 1_555 1_555
C8_18 C7_18 1_555 1_555
H6_14 C8_18 1_555 1_555
C9_14 C8_18 1_555 1_555
H7_14 C9_14 1_555 1_555
C10_14 N2_18 1_555 1_555
H8_15 C10_14 1_555 1_555
C11_13 P1_18 1_555 1_555
C12_13 C11_13 1_555 1_555
H9_18 C12_13 1_555 1_555
C13_13 C12_13 1_555 1_555
H10_13 C13_13 1_555 1_555
C14_13 C13_13 1_555 1_555
H11_13 C14_13 1_555 1_555
C15_13 N3_13 1_555 1_555
H12_13 C15_13 1_555 1_555
N1_13 C1_18 1_555 1_555
N2_18 C6_18 1_555 1_555
N3_13 C11_13 1_555 1_555
C4_15 C5_13 1_555 1_555
C9_14 C10_14 1_555 1_555
C14_13 C15_13 1_555 1_555
Cu2_14 I4_7 1_555 1_555
N1_14 Cu2_14 1_555 1_555
N3_14 Cu2_14 1_555 1_555
C5_14 N1_14 1_555 1_555
H4_18 C5_14 1_555 1_555
C12_14 C11_14 1_555 1_555
C13_14 C12_14 1_555 1_555
H10_14 C13_14 1_555 1_555
C14_14 C13_14 1_555 1_555
H11_14 C14_14 1_555 1_555
C15_14 N3_14 1_555 1_555
H12_14 C15_14 1_555 1_555
N3_14 C11_14 1_555 1_555
C14_14 C15_14 1_555 1_555
H1_16 C2_16 1_555 1_555
C3_16 C2_16 1_555 1_555
H2_16 C3_16 1_555 1_555
C4_16 C3_16 1_555 1_555
H3_14 C4_16 1_555 1_555
H1_17 C2_17 1_555 1_555
C3_17 C2_17 1_555 1_555
H2_17 C3_17 1_555 1_555
C4_17 C3_17 1_555 1_555
H3_15 C4_17 1_555 1_555
H1_18 C2_18 1_555 1_555
C3_18 C2_18 1_555 1_555
H2_18 C3_18 1_555 1_555
C4_18 C3_18 1_555 1_555
H3_16 C4_18 1_555 1_555
H7_15 C9_15 1_555 1_555
C9_15 C10_15 1_555 1_555
N1_15 Cu2_15 1_555 1_555
N3_15 Cu2_15 1_555 1_555
C5_15 N1_15 1_555 1_555
C12_15 C11_15 1_555 1_555
C13_15 C12_15 1_555 1_555
H10_15 C13_15 1_555 1_555
C14_15 C13_15 1_555 1_555
H11_15 C14_15 1_555 1_555
C15_15 N3_15 1_555 1_555
H12_15 C15_15 1_555 1_555
N3_15 C11_15 1_555 1_555
C14_15 C15_15 1_555 1_555
N1_16 Cu2_16 1_555 1_555
N3_16 Cu2_16 1_555 1_555
C5_16 N1_16 1_555 1_555
C12_16 C11_16 1_555 1_555
C13_16 C12_16 1_555 1_555
H10_16 C13_16 1_555 1_555
C14_16 C13_16 1_555 1_555
H11_16 C14_16 1_555 1_555
C15_16 N3_16 1_555 1_555
H12_16 C15_16 1_555 1_555
N3_16 C11_16 1_555 1_555
C14_16 C15_16 1_555 1_555
H7_16 C9_16 1_555 1_555
C9_16 C10_16 1_555 1_555
N1_17 Cu2_17 1_555 1_555
N3_17 Cu2_17 1_555 1_555
C5_17 N1_17 1_555 1_555
C12_17 C11_17 1_555 1_555
C13_17 C12_17 1_555 1_555
H10_17 C13_17 1_555 1_555
C14_17 C13_17 1_555 1_555
H11_17 C14_17 1_555 1_555
C15_17 N3_17 1_555 1_555
H12_17 C15_17 1_555 1_555
N3_17 C11_17 1_555 1_555
C14_17 C15_17 1_555 1_555
H7_17 C9_17 1_555 1_555
C9_17 C10_17 1_555 1_555
H7_18 C9_18 1_555 1_555
C9_18 C10_18 1_555 1_555
N1_18 Cu2_18 1_555 1_555
N3_18 Cu2_18 1_555 1_555
C5_18 N1_18 1_555 1_555
C12_18 C11_18 1_555 1_555
C13_18 C12_18 1_555 1_555
H10_18 C13_18 1_555 1_555
C14_18 C13_18 1_555 1_555
H11_18 C14_18 1_555 1_555
C15_18 N3_18 1_555 1_555
H12_18 C15_18 1_555 1_555
N3_18 C11_18 1_555 1_555
C14_18 C15_18 1_555 1_555

#END
