
###############################################################################
#
# This file contains modified crystal structure data generated from the
# MOF subset of the Cambridge Structural Database (CSD) v543 
# hosted by the Cambridge Crystallographic Data Centre (CCDC).
#
# This work is licensed under the Creative Commons
# Attribution-NonCommercial-ShareAlike 4.0 International License.
# To view a copy of this license, visit
# http://creativecommons.org/licenses/by-nc-sa/4.0/
# or send a letter to
# Creative Commons, PO Box 1866, Mountain View, CA 94042, USA.
#
# CIF created using the CSD Python API on 29 September 2022
# The structure has been converted into the P1 space group
# The structure has a 3D framework
# The original CSD entry JUMSAO is in the rhombohedral crystal system
# The framework has been calculated to contain at least 10.0% void space
# The void calculation uses a probe of radius 1.32A, grid spacing 0.4
#
###############################################################################

data_JUMSAO
_chemical_formula_moiety         '(C270 H216 Cu36 I25 N54 P18)n'
_symmetry_cell_setting           triclinic
_symmetry_space_group_name_H-M   'P 1'
_symmetry_Int_Tables_number      1
_space_group_name_Hall           'P 1'
loop_
_symmetry_equiv_pos_site_id
_symmetry_equiv_pos_as_xyz
1 x,y,z
_cell_length_a                   30.4784(13)
_cell_length_b                   30.4784(13)
_cell_length_c                   11.6544(4)
_cell_angle_alpha                90
_cell_angle_beta                 90
_cell_angle_gamma                120
_cell_volume                     9375.73
loop_
_atom_site_label
_atom_site_type_symbol
_atom_site_fract_x
_atom_site_fract_y
_atom_site_fract_z
Cu1 Cu 0.17998(5) 0.37990(5) 0.41800(11)
Cu2 Cu 0.31572(5) 0.45096(5) 0.76777(11)
I1 I 0.10706(3) 0.28462(3) 0.44510(6)
I2 I 0.36797(3) 0.47366(3) 0.94698(6)
P1 P 0.23510(9) 0.40871(10) 0.5627(2)
N1 N 0.3207(3) 0.4974(3) 0.6352(8)
N2 N 0.2399(3) 0.4233(4) 0.7971(7)
N3 N 0.3060(3) 0.3911(3) 0.6687(7)
C1 C 0.2870(4) 0.4750(4) 0.5503(10)
C2 C 0.2903(5) 0.5015(5) 0.4490(11)
H1 H 0.266932 0.485441 0.388170
C3 C 0.3278(6) 0.5509(6) 0.4398(15)
H2 H 0.330294 0.569477 0.372284
C4 C 0.3620(5) 0.5740(6) 0.5274(15)
H3 H 0.388446 0.608297 0.522398
C5 C 0.3558(4) 0.5444(5) 0.6237(11)
H4 H 0.378810 0.559797 0.685539
C6 C 0.2090(4) 0.4073(4) 0.7066(9)
C7 C 0.1569(4) 0.3887(4) 0.7171(9)
H5 H 0.135416 0.377285 0.651652
C8 C 0.1372(4) 0.3872(5) 0.8256(10)
H6 H 0.101971 0.374773 0.835657
C9 C 0.1694(5) 0.4041(5) 0.9177(10)
H7 H 0.156551 0.403029 0.992599
C10 C 0.2209(4) 0.4227(5) 0.9013(9)
H8 H 0.243084 0.435209 0.965256
C11 C 0.2691(4) 0.3743(4) 0.5891(9)
C12 C 0.2528(4) 0.3286(4) 0.5309(9)
H9 H 0.226433 0.317210 0.475597
C13 C 0.2754(4) 0.3002(4) 0.5546(9)
H10 H 0.263999 0.268527 0.517752
C14 C 0.3141(4) 0.3179(4) 0.6311(9)
H11 H 0.330856 0.299382 0.647183
C15 C 0.3290(4) 0.3647(4) 0.6864(9)
H12 H 0.356755 0.377603 0.738336
Cu3 Cu 0.46675(7) 0.51331(5) 0.91533(11)
Cu4 Cu 0.15335(5) 0.28677(5) 0.24867(11)
I3 I 0.22627(3) 0.38205(3) 0.22157(6)
I4 I 0.14033(3) 0.43902(4) 0.38635(6)
Cu1_2 Cu 0.62010(5) 0.80008(7) 0.41800(11)
Cu2_2 Cu 0.54904(5) 0.86476(7) 0.76777(11)
I1_2 I 0.71538(3) 0.82244(4) 0.44510(6)
I2_2 I 0.52634(3) 0.89431(4) 0.94698(6)
P1_2 P 0.59129(10) 0.82639(13) 0.5627(2)
N1_2 N 0.5026(3) 0.8233(4) 0.6352(8)
N2_2 N 0.5767(4) 0.8166(5) 0.7971(7)
N3_2 N 0.6089(3) 0.9149(4) 0.6687(7)
C1_2 C 0.5250(4) 0.8120(6) 0.5503(10)
C2_2 C 0.4985(5) 0.7888(7) 0.4490(11)
H1_2 H 0.514559 0.781491 0.388170
C3_2 C 0.4491(6) 0.7769(8) 0.4398(15)
H2_2 H 0.430523 0.760817 0.372284
C4_2 C 0.4260(6) 0.7880(8) 0.5274(15)
H3_2 H 0.391703 0.780149 0.522398
C5_2 C 0.4556(5) 0.8114(6) 0.6237(11)
H4_2 H 0.440203 0.819013 0.685539
C6_2 C 0.5927(4) 0.8017(6) 0.7066(9)
C7_2 C 0.6113(4) 0.7682(6) 0.7171(9)
H5_2 H 0.622715 0.758131 0.651652
C8_2 C 0.6128(5) 0.7500(6) 0.8256(10)
H6_2 H 0.625227 0.727198 0.835657
C9_2 C 0.5959(5) 0.7653(7) 0.9177(10)
H7_2 H 0.596971 0.753522 0.992599
C10_2 C 0.5773(5) 0.7982(6) 0.9013(9)
H8_2 H 0.564791 0.807875 0.965256
C11_2 C 0.6257(4) 0.8948(6) 0.5891(9)
C12_2 C 0.6714(4) 0.9242(6) 0.5309(9)
H9_2 H 0.682790 0.909223 0.475597
C13_2 C 0.6998(4) 0.9752(6) 0.5546(9)
H10_2 H 0.731473 0.995472 0.517752
C14_2 C 0.6821(4) 0.9962(6) 0.6311(9)
C15_2 C 0.6353(4) 0.9643(6) 0.6864(9)
H12_2 H 0.622397 0.979152 0.738336
Cu3_2 Cu 0.48669(5) 0.95343(9) 0.91533(11)
Cu4_2 Cu 0.71323(5) 0.86659(7) 0.24867(11)
I3_2 I 0.61795(3) 0.84423(4) 0.22157(6)
I4_2 I 0.56098(4) 0.70130(5) 0.38635(6)
Cu1_3 Cu 0.19992(7) 0.82002(5) 0.41800(11)
Cu2_3 Cu 0.13524(7) 0.68428(5) 0.76777(11)
I1_3 I 0.17756(4) 0.89294(3) 0.44510(6)
I2_3 I 0.10569(4) 0.63203(3) 0.94698(6)
P1_3 P 0.17361(13) 0.76490(9) 0.5627(2)
N1_3 N 0.1767(4) 0.6793(3) 0.6352(8)
N2_3 N 0.1834(5) 0.7601(3) 0.7971(7)
N3_3 N 0.0851(4) 0.6940(3) 0.6687(7)
C1_3 C 0.1880(6) 0.7130(4) 0.5503(10)
C2_3 C 0.2112(7) 0.7097(5) 0.4490(11)
H1_3 H 0.218509 0.733068 0.388170
C3_3 C 0.2231(8) 0.6722(6) 0.4398(15)
H2_3 H 0.239183 0.669706 0.372284
C4_3 C 0.2120(8) 0.6380(5) 0.5274(15)
H3_3 H 0.219851 0.611554 0.522398
C5_3 C 0.1886(6) 0.6442(4) 0.6237(11)
H4_3 H 0.180987 0.621190 0.685539
C6_3 C 0.1983(6) 0.7910(4) 0.7066(9)
C7_3 C 0.2318(6) 0.8431(4) 0.7171(9)
H5_3 H 0.241869 0.864584 0.651652
C8_3 C 0.2500(6) 0.8628(4) 0.8256(10)
H6_3 H 0.272802 0.898029 0.835657
C9_3 C 0.2347(7) 0.8306(5) 0.9177(10)
H7_3 H 0.246478 0.843449 0.992599
C10_3 C 0.2018(6) 0.7791(4) 0.9013(9)
H8_3 H 0.192125 0.756916 0.965256
C11_3 C 0.1052(6) 0.7309(4) 0.5891(9)
C12_3 C 0.0758(6) 0.7472(4) 0.5309(9)
H9_3 H 0.090777 0.773567 0.475597
C13_3 C 0.0248(6) 0.7246(4) 0.5546(9)
H10_3 H 0.004528 0.736001 0.517752
C14_3 C 0.0038(6) 0.6859(4) 0.6311(9)
C15_3 C 0.0357(6) 0.6710(4) 0.6864(9)
H12_3 H 0.020848 0.643245 0.738336
Cu3_3 Cu 0.04657(9) 0.53325(7) 0.91533(11)
Cu4_3 Cu 0.13341(7) 0.84665(5) 0.24867(11)
I3_3 I 0.15577(4) 0.77373(3) 0.22157(6)
I4_3 I 0.29870(5) 0.85967(3) 0.38635(6)
I2_4 I 0.03464(3) 0.80699(3) 0.28031(6)
H4_4 H 0.045477 0.893130 0.018872
H12_4 H 0.023422 0.710936 0.071669
Cu2_4 Cu 0.21571(5) 0.19809(7) 0.10110(11)
I2_5 I 0.19301(3) 0.22764(4) 0.28031(6)
N2_4 N 0.2434(4) 0.1499(5) 0.1304(7)
N3_4 N 0.2756(3) 0.2482(4) 0.0020(7)
H4_5 H 0.106870 0.152346 0.018872
C6_4 C 0.2594(4) 0.1350(6) 0.0399(9)
C7_4 C 0.2780(4) 0.1015(6) 0.0504(9)
C8_4 C 0.2795(5) 0.0833(6) 0.1589(10)
H6_4 H 0.291894 0.060531 0.168990
C9_4 C 0.2626(5) 0.0986(7) 0.2510(10)
H7_4 H 0.263638 0.086855 0.325932
C10_4 C 0.2440(5) 0.1315(6) 0.2346(9)
H8_4 H 0.231458 0.141208 0.298589
C15_4 C 0.3020(4) 0.2976(6) 0.0197(9)
H12_5 H 0.289064 0.312485 0.071669
I2_6 I 0.77236(4) 0.96536(3) 0.28031(6)
H4_6 H 0.847654 0.954523 0.018872
H12_6 H 0.687515 0.976578 0.071669
I3_4 I 0.48911(4) 0.44039(3) 0.88823(6)
P1_4 P 0.09823(9) 0.25796(10) 0.1040(2)
N1_4 N 0.0126(3) 0.1693(3) 0.0315(8)
C1_4 C 0.0463(4) 0.1917(4) 0.1164(10)
C2_4 C 0.0430(5) 0.1652(5) 0.2177(11)
H1_4 H 0.066401 0.181226 0.278497
C3_4 C 0.0055(6) 0.1158(6) 0.2269(15)
H2_4 H 0.003039 0.097190 0.294383
H5_4 H 0.197917 0.289382 0.015015
C11_4 C 0.0642(4) 0.2924(4) 0.0776(9)
C12_4 C 0.0805(4) 0.3381(4) 0.1358(9)
H9_4 H 0.106900 0.349457 0.191070
C13_4 C 0.0579(4) 0.3665(4) 0.1121(9)
H10_4 H 0.069334 0.398140 0.148915
C14_4 C 0.0192(4) 0.3488(4) 0.0356(9)
H11_2 H 0.002477 0.367285 0.019484
P1_5 P 0.74204(10) 0.84028(13) 0.1040(2)
N1_5 N 0.8307(3) 0.8434(4) 0.0315(8)
C1_5 C 0.8083(4) 0.8547(6) 0.1164(10)
C2_5 C 0.8348(5) 0.8779(7) 0.2177(11)
H1_5 H 0.818774 0.885176 0.278497
C3_5 C 0.8842(6) 0.8898(8) 0.2269(15)
H2_5 H 0.902810 0.905850 0.294383
C4_4 C 0.9073(6) 0.8787(8) 0.1393(15)
H3_4 H 0.941630 0.886518 0.144269
C5_4 C 0.8777(5) 0.8553(6) 0.0430(11)
H5_5 H 0.710618 0.908536 0.015015
C11_5 C 0.7076(4) 0.7719(6) 0.0776(9)
C12_5 C 0.6619(4) 0.7425(6) 0.1358(9)
H9_5 H 0.650543 0.757444 0.191070
C13_5 C 0.6335(4) 0.6915(6) 0.1121(9)
H10_5 H 0.601860 0.671195 0.148915
C14_5 C 0.6512(4) 0.6705(6) 0.0356(9)
H11_3 H 0.632715 0.635193 0.019484
P1_6 P 0.15972(13) 0.90177(9) 0.1040(2)
N1_6 N 0.1566(4) 0.9874(3) 0.0315(8)
C1_6 C 0.1453(6) 0.9537(4) 0.1164(10)
C2_6 C 0.1221(7) 0.9570(5) 0.2177(11)
H1_6 H 0.114824 0.933599 0.278497
C3_6 C 0.1102(8) 0.9945(6) 0.2269(15)
H2_6 H 0.094150 0.996961 0.294383
H5_6 H 0.091464 0.802083 0.015015
C11_6 C 0.2281(6) 0.9358(4) 0.0776(9)
C12_6 C 0.2575(6) 0.9195(4) 0.1358(9)
H9_6 H 0.242556 0.893100 0.191070
C13_6 C 0.3085(6) 0.9421(4) 0.1121(9)
H10_6 H 0.328805 0.930666 0.148915
C14_6 C 0.3295(6) 0.9808(4) 0.0356(9)
H11_4 H 0.364807 0.997523 0.019484
Cu2_5 Cu 0.35095(5) 0.88237(5) 0.56556(11)
P1_7 P 0.43157(9) 0.92462(10) 0.7706(2)
N1_7 N 0.3460(3) 0.8359(3) 0.6981(8)
N2_5 N 0.4268(3) 0.9100(4) 0.5362(7)
N3_5 N 0.3607(3) 0.9422(3) 0.6646(7)
C1_7 C 0.3797(4) 0.8583(4) 0.7830(10)
C2_7 C 0.3764(5) 0.8318(5) 0.8843(11)
H1_7 H 0.399735 0.847892 0.945163
C3_7 C 0.3389(6) 0.7824(6) 0.8935(15)
H2_7 H 0.336373 0.763856 0.961049
C4_5 C 0.3047(5) 0.7593(6) 0.8059(15)
H3_5 H 0.278221 0.725036 0.810935
C5_5 C 0.3109(4) 0.7889(5) 0.7096(11)
H4_7 H 0.287857 0.773536 0.647794
C6_5 C 0.4577(4) 0.9260(4) 0.6267(9)
C7_5 C 0.5098(4) 0.9446(4) 0.6162(9)
H5_7 H 0.531251 0.956048 0.681681
C8_5 C 0.5295(4) 0.9461(5) 0.5077(10)
H6_5 H 0.564696 0.958560 0.497676
C9_5 C 0.4973(5) 0.9292(5) 0.4156(10)
H7_5 H 0.510116 0.930304 0.340734
C10_5 C 0.4458(4) 0.9106(5) 0.4320(9)
H8_5 H 0.423583 0.898124 0.368077
C11_7 C 0.3976(4) 0.9590(4) 0.7442(9)
C15_5 C 0.3377(4) 0.9686(4) 0.6469(9)
H12_7 H 0.309912 0.955730 0.594997
Cu2_6 Cu 0.11763(5) 0.46857(7) 0.56556(11)
P1_8 P 0.07538(10) 0.50694(13) 0.7706(2)
N1_8 N 0.1641(3) 0.5100(4) 0.6981(8)
N2_6 N 0.0900(4) 0.5167(5) 0.5362(7)
N3_6 N 0.0578(3) 0.4184(4) 0.6646(7)
C1_8 C 0.1417(4) 0.5213(6) 0.7830(10)
C2_8 C 0.1682(5) 0.5445(7) 0.8843(11)
H1_8 H 0.152108 0.551842 0.945163
C3_8 C 0.2176(6) 0.5564(8) 0.8935(15)
H2_8 H 0.236144 0.572516 0.961049
C4_6 C 0.2407(6) 0.5453(8) 0.8059(15)
H3_6 H 0.274964 0.553184 0.810935
C5_6 C 0.2111(5) 0.5219(6) 0.7096(11)
H4_8 H 0.226464 0.514320 0.647794
C6_6 C 0.0740(4) 0.5316(6) 0.6267(9)
C7_6 C 0.0554(4) 0.5651(6) 0.6162(9)
H5_8 H 0.043952 0.575202 0.681681
C8_6 C 0.0539(5) 0.5833(6) 0.5077(10)
H6_6 H 0.041440 0.606135 0.497676
C9_6 C 0.0708(5) 0.5680(7) 0.4156(10)
H7_6 H 0.069696 0.579811 0.340734
C10_6 C 0.0894(5) 0.5351(6) 0.4320(9)
H8_6 H 0.101876 0.525458 0.368077
C11_8 C 0.0410(4) 0.4385(6) 0.7442(9)
C15_6 C 0.0314(4) 0.3690(6) 0.6469(9)
H12_8 H 0.044270 0.354181 0.594997
Cu2_7 Cu 0.53143(7) 0.64905(5) 0.56556(11)
P1_9 P 0.49306(13) 0.56843(9) 0.7706(2)
N1_9 N 0.4900(4) 0.6540(3) 0.6981(8)
N2_7 N 0.4833(5) 0.5732(3) 0.5362(7)
N3_7 N 0.5816(4) 0.6393(3) 0.6646(7)
C1_9 C 0.4787(6) 0.6203(4) 0.7830(10)
C2_9 C 0.4555(7) 0.6236(5) 0.8843(11)
H1_9 H 0.448158 0.600265 0.945163
C3_9 C 0.4436(8) 0.6611(6) 0.8935(15)
H2_9 H 0.427484 0.663627 0.961049
C4_7 C 0.4547(8) 0.6953(5) 0.8059(15)
H3_7 H 0.446816 0.721779 0.810935
C5_7 C 0.4781(6) 0.6891(4) 0.7096(11)
H4_9 H 0.485680 0.712143 0.647794
C6_7 C 0.4684(6) 0.5423(4) 0.6267(9)
C7_7 C 0.4349(6) 0.4902(4) 0.6162(9)
H5_9 H 0.424798 0.468749 0.681681
C8_7 C 0.4167(6) 0.4705(4) 0.5077(10)
H6_7 H 0.393865 0.435304 0.497676
C9_7 C 0.4320(7) 0.5027(5) 0.4156(10)
H7_7 H 0.420189 0.489884 0.340734
C10_7 C 0.4649(6) 0.5542(4) 0.4320(9)
H8_7 H 0.474542 0.576417 0.368077
C11_9 C 0.5615(6) 0.6024(4) 0.7442(9)
C12_7 C 0.5909(6) 0.5861(4) 0.8024(9)
H9_7 H 0.575890 0.559766 0.857736
C13_7 C 0.6419(6) 0.6087(4) 0.7787(9)
H10_7 H 0.662139 0.597332 0.815581
C14_7 C 0.6629(6) 0.6474(4) 0.7022(9)
H11_5 H 0.698141 0.664189 0.686150
C15_7 C 0.6310(6) 0.6623(4) 0.6469(9)
H12_9 H 0.645819 0.690088 0.594997
H11_6 H 0.700618 0.031474 0.647183
H11_7 H 0.968526 0.669144 0.647183
C4_8 C 0.0287(5) 0.9073(6) 0.8607(15)
H3_8 H 0.055113 0.941630 0.855731
C5_8 C 0.0225(4) 0.8777(5) 0.9570(11)
Cu2_8 Cu 0.98239(5) 0.78429(5) 0.10110(11)
N2_8 N 0.9066(3) 0.7566(4) 0.1304(7)
N3_8 N 0.9727(3) 0.7244(3) 0.0020(7)
C6_8 C 0.8757(4) 0.7406(4) 0.0399(9)
C7_8 C 0.8236(4) 0.7220(4) 0.0504(9)
C8_8 C 0.8039(4) 0.7205(5) 0.1589(10)
H6_8 H 0.768638 0.708106 0.168990
C9_8 C 0.8361(5) 0.7374(5) 0.2510(10)
H7_8 H 0.823218 0.736362 0.325932
C10_8 C 0.8876(4) 0.7560(5) 0.2346(9)
H8_8 H 0.909751 0.768542 0.298589
C15_8 C 0.9957(4) 0.6980(4) 0.0197(9)
Cu1_4 Cu 0.84665(5) 0.71323(5) 0.75133(11)
I1_4 I 0.77373(3) 0.61795(3) 0.77843(6)
P1_10 P 0.90177(9) 0.74204(10) 0.8960(2)
N1_10 N 0.9874(3) 0.8307(3) 0.9685(8)
C1_10 C 0.9537(4) 0.8083(4) 0.8836(10)
C2_10 C 0.9570(5) 0.8348(5) 0.7823(11)
H1_10 H 0.933599 0.818774 0.721503
C3_10 C 0.9945(6) 0.8842(6) 0.7731(15)
H2_10 H 0.996961 0.902810 0.705617
H5_10 H 0.802083 0.710618 0.984985
C11_10 C 0.9358(4) 0.7076(4) 0.9224(9)
C12_8 C 0.9195(4) 0.6619(4) 0.8642(9)
H9_8 H 0.893100 0.650543 0.808930
C13_8 C 0.9421(4) 0.6335(4) 0.8879(9)
H10_8 H 0.930666 0.601860 0.851085
C14_8 C 0.9808(4) 0.6512(4) 0.9644(9)
H11_8 H 0.997523 0.632715 0.980516
Cu4_4 Cu 0.82002(5) 0.62010(5) 0.58200(11)
I3_5 I 0.89294(3) 0.71538(3) 0.55490(6)
I4_4 I 0.80699(3) 0.77236(4) 0.71969(6)
Cu1_5 Cu 0.28677(5) 0.13341(7) 0.75133(11)
I1_5 I 0.38205(3) 0.15577(4) 0.77843(6)
P1_11 P 0.25796(10) 0.15972(13) 0.8960(2)
N1_11 N 0.1693(3) 0.1566(4) 0.9685(8)
C1_11 C 0.1917(4) 0.1453(6) 0.8836(10)
C2_11 C 0.1652(5) 0.1221(7) 0.7823(11)
H1_11 H 0.181226 0.114824 0.721503
C3_11 C 0.1158(6) 0.1102(8) 0.7731(15)
H2_11 H 0.097190 0.094150 0.705617
C4_9 C 0.0927(6) 0.1213(8) 0.8607(15)
H3_9 H 0.058370 0.113482 0.855731
C5_9 C 0.1223(5) 0.1447(6) 0.9570(11)
H5_11 H 0.289382 0.091464 0.984985
C11_11 C 0.2924(4) 0.2281(6) 0.9224(9)
C12_9 C 0.3381(4) 0.2575(6) 0.8642(9)
H9_9 H 0.349457 0.242556 0.808930
C13_9 C 0.3665(4) 0.3085(6) 0.8879(9)
H10_9 H 0.398140 0.328805 0.851085
C14_9 C 0.3488(4) 0.3295(6) 0.9644(9)
H11_9 H 0.367285 0.364807 0.980516
Cu4_5 Cu 0.37990(5) 0.19992(7) 0.58200(11)
I3_6 I 0.28462(3) 0.17756(4) 0.55490(6)
I4_5 I 0.22764(4) 0.03464(5) 0.71969(6)
Cu1_6 Cu 0.86659(7) 0.15335(5) 0.75133(11)
I1_6 I 0.84423(4) 0.22627(3) 0.77843(6)
P1_12 P 0.84028(13) 0.09823(9) 0.8960(2)
N1_12 N 0.8434(4) 0.0126(3) 0.9685(8)
C1_12 C 0.8547(6) 0.0463(4) 0.8836(10)
C2_12 C 0.8779(7) 0.0430(5) 0.7823(11)
H1_12 H 0.885176 0.066401 0.721503
C3_12 C 0.8898(8) 0.0055(6) 0.7731(15)
H2_12 H 0.905850 0.003039 0.705617
H5_12 H 0.908536 0.197917 0.984985
C11_12 C 0.7719(6) 0.0642(4) 0.9224(9)
C12_10 C 0.7425(6) 0.0805(4) 0.8642(9)
H9_10 H 0.757444 0.106900 0.808930
C13_10 C 0.6915(6) 0.0579(4) 0.8879(9)
H10_10 H 0.671195 0.069334 0.851085
C14_10 C 0.6705(6) 0.0192(4) 0.9644(9)
H11_10 H 0.635193 0.002477 0.980516
Cu4_6 Cu 0.80008(7) 0.17998(5) 0.58200(11)
I3_7 I 0.82244(4) 0.10706(3) 0.55490(6)
I4_6 I 0.96536(5) 0.19301(3) 0.71969(6)
Cu1_7 Cu 0.51331(5) 0.04657(5) 0.08467(11)
Cu2_9 Cu 0.64905(5) 0.11763(5) 0.43444(11)
I2_7 I 0.70130(3) 0.14033(3) 0.61365(6)
P1_13 P 0.56843(9) 0.07538(10) 0.2294(2)
N1_13 N 0.6540(3) 0.1641(3) 0.3019(8)
N2_9 N 0.5732(3) 0.0900(4) 0.4638(7)
N3_9 N 0.6393(3) 0.0578(3) 0.3354(7)
C1_13 C 0.6203(4) 0.1417(4) 0.2170(10)
C2_13 C 0.6236(5) 0.1682(5) 0.1157(11)
H1_13 H 0.600265 0.152108 0.054837
C3_13 C 0.6611(6) 0.2176(6) 0.1065(15)
H2_13 H 0.663627 0.236144 0.038951
C4_10 C 0.6953(5) 0.2407(6) 0.1941(15)
H3_10 H 0.721779 0.274964 0.189065
C5_10 C 0.6891(4) 0.2111(5) 0.2904(11)
H4_10 H 0.712143 0.226464 0.352206
C6_9 C 0.5423(4) 0.0740(4) 0.3733(9)
C7_9 C 0.4902(4) 0.0554(4) 0.3838(9)
H5_13 H 0.468749 0.043952 0.318319
C8_9 C 0.4705(4) 0.0539(5) 0.4923(10)
H6_9 H 0.435304 0.041440 0.502324
C9_9 C 0.5027(5) 0.0708(5) 0.5844(10)
H7_9 H 0.489884 0.069696 0.659266
C10_9 C 0.5542(4) 0.0894(5) 0.5680(9)
H8_9 H 0.576417 0.101876 0.631923
C11_13 C 0.6024(4) 0.0410(4) 0.2558(9)
C15_9 C 0.6623(4) 0.0314(4) 0.3531(9)
H12_10 H 0.690088 0.044270 0.405003
I4_7 I 0.47366(3) 0.10569(4) 0.05302(6)
Cu1_8 Cu 0.95343(5) 0.46675(7) 0.08467(11)
Cu2_10 Cu 0.88237(5) 0.53143(7) 0.43444(11)
I2_8 I 0.85967(3) 0.56098(4) 0.61365(6)
P1_14 P 0.92462(10) 0.49306(13) 0.2294(2)
N1_14 N 0.8359(3) 0.4900(4) 0.3019(8)
N2_10 N 0.9100(4) 0.4833(5) 0.4638(7)
N3_10 N 0.9422(3) 0.5816(4) 0.3354(7)
C1_14 C 0.8583(4) 0.4787(6) 0.2170(10)
C2_14 C 0.8318(5) 0.4555(7) 0.1157(11)
H1_14 H 0.847892 0.448158 0.054837
C3_14 C 0.7824(6) 0.4436(8) 0.1065(15)
H2_14 H 0.763856 0.427484 0.038951
C4_11 C 0.7593(6) 0.4547(8) 0.1941(15)
H3_11 H 0.725036 0.446816 0.189065
C5_11 C 0.7889(5) 0.4781(6) 0.2904(11)
H4_11 H 0.773536 0.485680 0.352206
C6_10 C 0.9260(4) 0.4684(6) 0.3733(9)
C7_10 C 0.9446(4) 0.4349(6) 0.3838(9)
H5_14 H 0.956048 0.424798 0.318319
C8_10 C 0.9461(5) 0.4167(6) 0.4923(10)
H6_10 H 0.958560 0.393865 0.502324
C9_10 C 0.9292(5) 0.4320(7) 0.5844(10)
H7_10 H 0.930304 0.420189 0.659266
C10_10 C 0.9106(5) 0.4649(6) 0.5680(9)
H8_10 H 0.898124 0.474542 0.631923
C11_14 C 0.9590(4) 0.5615(6) 0.2558(9)
C15_10 C 0.9686(4) 0.6310(6) 0.3531(9)
H12_11 H 0.955730 0.645819 0.405003
I4_8 I 0.89431(4) 0.36797(5) 0.05302(6)
Cu1_9 Cu 0.53325(7) 0.48669(5) 0.08467(11)
Cu2_11 Cu 0.46857(7) 0.35095(5) 0.43444(11)
I1_7 I 0.51089(4) 0.55961(3) 0.11177(6)
I2_9 I 0.43902(4) 0.29870(3) 0.61365(6)
P1_15 P 0.50694(13) 0.43157(9) 0.2294(2)
N1_15 N 0.5100(4) 0.3460(3) 0.3019(8)
N2_11 N 0.5167(5) 0.4268(3) 0.4638(7)
N3_11 N 0.4184(4) 0.3607(3) 0.3354(7)
C1_15 C 0.5213(6) 0.3797(4) 0.2170(10)
C2_15 C 0.5445(7) 0.3764(5) 0.1157(11)
H1_15 H 0.551842 0.399735 0.054837
C3_15 C 0.5564(8) 0.3389(6) 0.1065(15)
H2_15 H 0.572516 0.336373 0.038951
C4_12 C 0.5453(8) 0.3047(5) 0.1941(15)
H3_12 H 0.553184 0.278221 0.189065
C5_12 C 0.5219(6) 0.3109(4) 0.2904(11)
H4_12 H 0.514320 0.287857 0.352206
C6_11 C 0.5316(6) 0.4577(4) 0.3733(9)
C7_11 C 0.5651(6) 0.5098(4) 0.3838(9)
H5_15 H 0.575202 0.531251 0.318319
C8_11 C 0.5833(6) 0.5295(4) 0.4923(10)
H6_11 H 0.606135 0.564696 0.502324
C9_11 C 0.5680(7) 0.4973(5) 0.5844(10)
H7_11 H 0.579811 0.510116 0.659266
C10_11 C 0.5351(6) 0.4458(4) 0.5680(9)
H8_11 H 0.525458 0.423583 0.631923
C11_15 C 0.4385(6) 0.3976(4) 0.2558(9)
C12_11 C 0.4091(6) 0.4139(4) 0.1976(9)
H9_11 H 0.424110 0.440234 0.142264
C13_11 C 0.3581(6) 0.3913(4) 0.2213(9)
H10_11 H 0.337861 0.402668 0.184419
C14_11 C 0.3371(6) 0.3526(4) 0.2978(9)
H11_11 H 0.301859 0.335811 0.313850
C15_11 C 0.3690(6) 0.3377(4) 0.3531(9)
H12_12 H 0.354181 0.309912 0.405003
I4_9 I 0.63203(5) 0.52634(3) 0.05302(6)
Cu2_12 Cu 0.68428(5) 0.54904(5) 0.23223(11)
P1_16 P 0.76490(9) 0.59129(10) 0.4373(2)
N1_16 N 0.6793(3) 0.5026(3) 0.3648(8)
N2_12 N 0.7601(3) 0.5767(4) 0.2029(7)
N3_12 N 0.6940(3) 0.6089(3) 0.3313(7)
C1_16 C 0.7130(4) 0.5250(4) 0.4497(10)
C2_16 C 0.7097(5) 0.4985(5) 0.5510(11)
H1_16 H 0.733068 0.514559 0.611830
C3_16 C 0.6722(6) 0.4491(6) 0.5602(15)
H2_16 H 0.669706 0.430523 0.627716
C4_13 C 0.6380(5) 0.4260(6) 0.4726(15)
H3_13 H 0.611554 0.391703 0.477602
C5_13 C 0.6442(4) 0.4556(5) 0.3763(11)
H4_13 H 0.621190 0.440203 0.314461
C6_12 C 0.7910(4) 0.5927(4) 0.2934(9)
C7_12 C 0.8431(4) 0.6113(4) 0.2829(9)
H5_16 H 0.864584 0.622715 0.348348
C8_12 C 0.8628(4) 0.6128(5) 0.1744(10)
H6_12 H 0.898029 0.625227 0.164343
C9_12 C 0.8306(5) 0.5959(5) 0.0823(10)
H7_12 H 0.843449 0.596971 0.007401
C10_12 C 0.7791(4) 0.5773(5) 0.0987(9)
H8_12 H 0.756916 0.564791 0.034744
C11_16 C 0.7309(4) 0.6257(4) 0.4109(9)
C12_12 C 0.7472(4) 0.6714(4) 0.4691(9)
H9_12 H 0.773567 0.682790 0.524403
C13_12 C 0.7246(4) 0.6998(4) 0.4454(9)
H10_12 H 0.736001 0.731473 0.482248
C14_12 C 0.6859(4) 0.6821(4) 0.3689(9)
H11_12 H 0.669144 0.700618 0.352817
C15_12 C 0.6710(4) 0.6353(4) 0.3136(9)
H12_13 H 0.643245 0.622397 0.261664
Cu2_13 Cu 0.45096(5) 0.13524(7) 0.23223(11)
P1_17 P 0.40871(10) 0.17361(13) 0.4373(2)
N1_17 N 0.4974(3) 0.1767(4) 0.3648(8)
N2_13 N 0.4233(4) 0.1834(5) 0.2029(7)
N3_13 N 0.3911(3) 0.0851(4) 0.3313(7)
C1_17 C 0.4750(4) 0.1880(6) 0.4497(10)
C2_17 C 0.5015(5) 0.2112(7) 0.5510(11)
H1_17 H 0.485441 0.218509 0.611830
C3_17 C 0.5509(6) 0.2231(8) 0.5602(15)
H2_17 H 0.569477 0.239183 0.627716
C4_14 C 0.5740(6) 0.2120(8) 0.4726(15)
H3_14 H 0.608297 0.219851 0.477602
C5_14 C 0.5444(5) 0.1886(6) 0.3763(11)
H4_14 H 0.559797 0.180987 0.314461
C6_13 C 0.4073(4) 0.1983(6) 0.2934(9)
C7_13 C 0.3887(4) 0.2318(6) 0.2829(9)
H5_17 H 0.377285 0.241869 0.348348
C8_13 C 0.3872(5) 0.2500(6) 0.1744(10)
H6_13 H 0.374773 0.272802 0.164343
C9_13 C 0.4041(5) 0.2347(7) 0.0823(10)
H7_13 H 0.403029 0.246478 0.007401
C10_13 C 0.4227(5) 0.2018(6) 0.0987(9)
H8_13 H 0.435209 0.192125 0.034744
C11_17 C 0.3743(4) 0.1052(6) 0.4109(9)
C12_13 C 0.3286(4) 0.0758(6) 0.4691(9)
H9_13 H 0.317210 0.090777 0.524403
C13_13 C 0.3002(4) 0.0248(6) 0.4454(9)
H10_13 H 0.268527 0.004528 0.482248
C14_13 C 0.3179(4) 0.0038(6) 0.3689(9)
C15_13 C 0.3647(4) 0.0357(6) 0.3136(9)
H12_14 H 0.377603 0.020848 0.261664
Cu2_14 Cu 0.86476(7) 0.31572(5) 0.23223(11)
P1_18 P 0.82639(13) 0.23510(9) 0.4373(2)
N1_18 N 0.8233(4) 0.3207(3) 0.3648(8)
N2_14 N 0.8166(5) 0.2399(3) 0.2029(7)
N3_14 N 0.9149(4) 0.3060(3) 0.3313(7)
C1_18 C 0.8120(6) 0.2870(4) 0.4497(10)
C2_18 C 0.7888(7) 0.2903(5) 0.5510(11)
H1_18 H 0.781491 0.266932 0.611830
C3_18 C 0.7769(8) 0.3278(6) 0.5602(15)
H2_18 H 0.760817 0.330294 0.627716
C4_15 C 0.7880(8) 0.3620(5) 0.4726(15)
H3_15 H 0.780149 0.388446 0.477602
C5_15 C 0.8114(6) 0.3558(4) 0.3763(11)
H4_15 H 0.819013 0.378810 0.314461
C6_14 C 0.8017(6) 0.2090(4) 0.2934(9)
C7_14 C 0.7682(6) 0.1569(4) 0.2829(9)
H5_18 H 0.758131 0.135416 0.348348
C8_14 C 0.7500(6) 0.1372(4) 0.1744(10)
H6_14 H 0.727198 0.101971 0.164343
C9_14 C 0.7653(7) 0.1694(5) 0.0823(10)
H7_14 H 0.753522 0.156551 0.007401
C10_14 C 0.7982(6) 0.2209(4) 0.0987(9)
H8_14 H 0.807875 0.243084 0.034744
C11_18 C 0.8948(6) 0.2691(4) 0.4109(9)
C12_14 C 0.9242(6) 0.2528(4) 0.4691(9)
H9_14 H 0.909223 0.226433 0.524403
C13_14 C 0.9752(6) 0.2754(4) 0.4454(9)
H10_14 H 0.995472 0.263999 0.482248
C14_14 C 0.9962(6) 0.3141(4) 0.3689(9)
C15_14 C 0.9643(6) 0.3290(4) 0.3136(9)
H12_15 H 0.979152 0.356755 0.261664
H4_16 H 0.954523 0.106870 0.981128
H12_16 H 0.976578 0.289064 0.928331
Cu2_15 Cu 0.78429(5) 0.80191(7) 0.89890(11)
N2_15 N 0.7566(4) 0.8501(5) 0.8696(7)
N3_15 N 0.7244(3) 0.7518(4) 0.9980(7)
H4_17 H 0.893130 0.847654 0.981128
C6_15 C 0.7406(4) 0.8650(6) 0.9601(9)
C7_15 C 0.7220(4) 0.8985(6) 0.9496(9)
C8_15 C 0.7205(5) 0.9167(6) 0.8411(10)
H6_15 H 0.708106 0.939469 0.831010
C9_15 C 0.7374(5) 0.9014(7) 0.7490(10)
H7_15 H 0.736362 0.913145 0.674068
C10_15 C 0.7560(5) 0.8685(6) 0.7654(9)
H8_15 H 0.768542 0.858792 0.701411
C15_15 C 0.6980(4) 0.7024(6) 0.9803(9)
H12_17 H 0.710936 0.687515 0.928331
H4_18 H 0.152346 0.045477 0.981128
H12_18 H 0.312485 0.023422 0.928331
Cu2_16 Cu 0.80191(7) 0.01761(5) 0.10110(11)
N2_16 N 0.8501(5) 0.0934(3) 0.1304(7)
N3_16 N 0.7518(4) 0.0273(3) 0.0020(7)
C6_16 C 0.8650(6) 0.1243(4) 0.0399(9)
C7_16 C 0.8985(6) 0.1764(4) 0.0504(9)
C8_16 C 0.9167(6) 0.1961(4) 0.1589(10)
H6_16 H 0.939469 0.231362 0.168990
C9_16 C 0.9014(7) 0.1639(5) 0.2510(10)
H7_16 H 0.913145 0.176782 0.325932
C10_16 C 0.8685(6) 0.1124(4) 0.2346(9)
H8_16 H 0.858792 0.090249 0.298589
C15_16 C 0.7024(6) 0.0043(4) 0.0197(9)
C4_16 C 0.8787(8) 0.9713(5) 0.8607(15)
H3_16 H 0.886518 0.944887 0.855731
C5_16 C 0.8553(6) 0.9775(4) 0.9570(11)
I3_8 I 0.55961(3) 0.04871(3) 0.88823(6)
C12_15 C 0.4139(4) 0.0047(4) 0.8024(9)
H9_15 H 0.440234 0.016123 0.857736
C13_15 C 0.3913(4) 0.0331(4) 0.7787(9)
H10_15 H 0.402668 0.064806 0.815581
C14_15 C 0.3526(4) 0.0154(4) 0.7022(9)
H11_13 H 0.335811 0.033951 0.686150
I1_8 I 0.44039(3) 0.95129(3) 0.11177(6)
C12_16 C 0.5861(4) 0.9953(4) 0.1976(9)
H9_16 H 0.559766 0.983877 0.142264
C13_16 C 0.6087(4) 0.9669(4) 0.2213(9)
H10_16 H 0.597332 0.935194 0.184419
C14_16 C 0.6474(4) 0.9846(4) 0.2978(9)
H11_14 H 0.664189 0.966049 0.313850
I1_9 I 0.04871(3) 0.48911(4) 0.11177(6)
C12_17 C 0.0047(4) 0.5909(6) 0.1976(9)
H9_17 H 0.016123 0.575890 0.142264
C13_17 C 0.0331(4) 0.6419(6) 0.2213(9)
H10_17 H 0.064806 0.662139 0.184419
C14_17 C 0.0154(4) 0.6629(6) 0.2978(9)
H11_15 H 0.033951 0.698141 0.313850
I3_9 I 0.95129(3) 0.51089(4) 0.88823(6)
C12_18 C 0.9953(4) 0.4091(6) 0.8024(9)
H9_18 H 0.983877 0.424110 0.857736
C13_18 C 0.9669(4) 0.3581(6) 0.7787(9)
H10_18 H 0.935194 0.337861 0.815581
C14_18 C 0.9846(4) 0.3371(6) 0.7022(9)
H11_16 H 0.966049 0.301859 0.686150
H11_17 H 0.299382 0.968526 0.352817
H11_18 H 0.031474 0.330856 0.352817
Cu2_17 Cu 0.01761(5) 0.21571(5) 0.89890(11)
N2_17 N 0.0934(3) 0.2434(4) 0.8696(7)
N3_17 N 0.0273(3) 0.2756(3) 0.9980(7)
C6_17 C 0.1243(4) 0.2594(4) 0.9601(9)
C7_17 C 0.1764(4) 0.2780(4) 0.9496(9)
C8_17 C 0.1961(4) 0.2795(5) 0.8411(10)
H6_17 H 0.231362 0.291894 0.831010
C9_17 C 0.1639(5) 0.2626(5) 0.7490(10)
H7_17 H 0.176782 0.263638 0.674068
C10_17 C 0.1124(4) 0.2440(5) 0.7654(9)
H8_17 H 0.090249 0.231458 0.701411
C15_17 C 0.0043(4) 0.3020(4) 0.9803(9)
C4_17 C 0.9713(5) 0.0927(6) 0.1393(15)
H3_17 H 0.944887 0.058370 0.144269
C5_17 C 0.9775(4) 0.1223(5) 0.0430(11)
C4_18 C 0.1213(8) 0.0287(5) 0.1393(15)
H3_18 H 0.113482 0.055113 0.144269
C5_18 C 0.1447(6) 0.0225(4) 0.0430(11)
Cu2_18 Cu 0.19809(7) 0.98239(5) 0.89890(11)
N2_18 N 0.1499(5) 0.9066(3) 0.8696(7)
N3_18 N 0.2482(4) 0.9727(3) 0.9980(7)
C6_18 C 0.1350(6) 0.8757(4) 0.9601(9)
C7_18 C 0.1015(6) 0.8236(4) 0.9496(9)
C8_18 C 0.0833(6) 0.8039(4) 0.8411(10)
H6_18 H 0.060531 0.768638 0.831010
C9_18 C 0.0986(7) 0.8361(5) 0.7490(10)
H7_18 H 0.086855 0.823218 0.674068
C10_18 C 0.1315(6) 0.8876(4) 0.7654(9)
H8_18 H 0.141208 0.909751 0.701411
C15_18 C 0.2976(6) 0.9957(4) 0.9803(9)
loop_
_geom_bond_atom_site_label_1
_geom_bond_atom_site_label_2
_geom_bond_site_symmetry_1
_geom_bond_site_symmetry_2
Cu1 I1 1_555 1_555
Cu2 I2 1_555 1_555
I1 Cu4 1_555 1_555
I2 Cu3 1_555 1_555
P1 Cu1 1_555 1_555
N1 Cu2 1_555 1_555
N2 Cu2 1_555 1_555
N3 Cu2 1_555 1_555
C1 P1 1_555 1_555
C2 C1 1_555 1_555
H1 C2 1_555 1_555
C3 C2 1_555 1_555
H2 C3 1_555 1_555
C4 C3 1_555 1_555
H3 C4 1_555 1_555
C5 N1 1_555 1_555
H4 C5 1_555 1_555
C6 P1 1_555 1_555
C7 C6 1_555 1_555
H5 C7 1_555 1_555
C8 C7 1_555 1_555
H6 C8 1_555 1_555
C9 C8 1_555 1_555
H7 C9 1_555 1_555
C10 N2 1_555 1_555
H8 C10 1_555 1_555
C11 P1 1_555 1_555
C12 C11 1_555 1_555
H9 C12 1_555 1_555
C13 C12 1_555 1_555
H10 C13 1_555 1_555
C14 C13 1_555 1_555
H11 C14 1_555 1_555
C15 N3 1_555 1_555
H12 C15 1_555 1_555
Cu4 I3 1_555 1_555
I3 Cu1 1_555 1_555
I4 Cu1 1_555 1_555
N1 C1 1_555 1_555
N2 C6 1_555 1_555
N3 C11 1_555 1_555
C4 C5 1_555 1_555
C9 C10 1_555 1_555
C14 C15 1_555 1_555
Cu1_2 I1_2 1_555 1_555
Cu2_2 I2_2 1_555 1_555
I1_2 Cu4_2 1_555 1_555
I2_2 Cu3_2 1_555 1_555
P1_2 Cu1_2 1_555 1_555
N1_2 Cu2_2 1_555 1_555
N2_2 Cu2_2 1_555 1_555
N3_2 Cu2_2 1_555 1_555
C1_2 P1_2 1_555 1_555
C2_2 C1_2 1_555 1_555
H1_2 C2_2 1_555 1_555
C3_2 C2_2 1_555 1_555
H2_2 C3_2 1_555 1_555
C4_2 C3_2 1_555 1_555
H3_2 C4_2 1_555 1_555
C5_2 N1_2 1_555 1_555
H4_2 C5_2 1_555 1_555
C6_2 P1_2 1_555 1_555
C7_2 C6_2 1_555 1_555
H5_2 C7_2 1_555 1_555
C8_2 C7_2 1_555 1_555
H6_2 C8_2 1_555 1_555
C9_2 C8_2 1_555 1_555
H7_2 C9_2 1_555 1_555
C10_2 N2_2 1_555 1_555
H8_2 C10_2 1_555 1_555
C11_2 P1_2 1_555 1_555
C12_2 C11_2 1_555 1_555
H9_2 C12_2 1_555 1_555
C13_2 C12_2 1_555 1_555
H10_2 C13_2 1_555 1_555
C14_2 C13_2 1_555 1_555
C15_2 N3_2 1_555 1_555
H12_2 C15_2 1_555 1_555
Cu4_2 I3_2 1_555 1_555
I3_2 Cu1_2 1_555 1_555
I4_2 Cu1_2 1_555 1_555
N1_2 C1_2 1_555 1_555
N2_2 C6_2 1_555 1_555
N3_2 C11_2 1_555 1_555
C4_2 C5_2 1_555 1_555
C9_2 C10_2 1_555 1_555
C14_2 C15_2 1_555 1_555
Cu1_3 I1_3 1_555 1_555
Cu2_3 I2_3 1_555 1_555
I1_3 Cu4_3 1_555 1_555
I2_3 Cu3_3 1_555 1_555
P1_3 Cu1_3 1_555 1_555
N1_3 Cu2_3 1_555 1_555
N2_3 Cu2_3 1_555 1_555
N3_3 Cu2_3 1_555 1_555
C1_3 P1_3 1_555 1_555
C2_3 C1_3 1_555 1_555
H1_3 C2_3 1_555 1_555
C3_3 C2_3 1_555 1_555
H2_3 C3_3 1_555 1_555
C4_3 C3_3 1_555 1_555
H3_3 C4_3 1_555 1_555
C5_3 N1_3 1_555 1_555
H4_3 C5_3 1_555 1_555
C6_3 P1_3 1_555 1_555
C7_3 C6_3 1_555 1_555
H5_3 C7_3 1_555 1_555
C8_3 C7_3 1_555 1_555
H6_3 C8_3 1_555 1_555
C9_3 C8_3 1_555 1_555
H7_3 C9_3 1_555 1_555
C10_3 N2_3 1_555 1_555
H8_3 C10_3 1_555 1_555
C11_3 P1_3 1_555 1_555
C12_3 C11_3 1_555 1_555
H9_3 C12_3 1_555 1_555
C13_3 C12_3 1_555 1_555
H10_3 C13_3 1_555 1_555
C14_3 C13_3 1_555 1_555
C15_3 N3_3 1_555 1_555
H12_3 C15_3 1_555 1_555
Cu4_3 I3_3 1_555 1_555
I3_3 Cu1_3 1_555 1_555
I4_3 Cu1_3 1_555 1_555
N1_3 C1_3 1_555 1_555
N2_3 C6_3 1_555 1_555
N3_3 C11_3 1_555 1_555
C4_3 C5_3 1_555 1_555
C9_3 C10_3 1_555 1_555
C14_3 C15_3 1_555 1_555
I2_4 Cu4_3 1_555 1_555
Cu2_4 I2_5 1_555 1_555
I2_5 Cu4 1_555 1_555
N2_4 Cu2_4 1_555 1_555
N3_4 Cu2_4 1_555 1_555
C7_4 C6_4 1_555 1_555
C8_4 C7_4 1_555 1_555
H6_4 C8_4 1_555 1_555
C9_4 C8_4 1_555 1_555
H7_4 C9_4 1_555 1_555
C10_4 N2_4 1_555 1_555
H8_4 C10_4 1_555 1_555
C15_4 N3_4 1_555 1_555
H12_5 C15_4 1_555 1_555
N2_4 C6_4 1_555 1_555
C9_4 C10_4 1_555 1_555
I2_6 Cu4_2 1_555 1_555
Cu3 I3_4 1_555 1_555
P1_4 Cu4 1_555 1_555
C1_4 P1_4 1_555 1_555
C2_4 C1_4 1_555 1_555
H1_4 C2_4 1_555 1_555
C3_4 C2_4 1_555 1_555
H2_4 C3_4 1_555 1_555
C11_4 P1_4 1_555 1_555
C12_4 C11_4 1_555 1_555
H9_4 C12_4 1_555 1_555
C13_4 C12_4 1_555 1_555
H10_4 C13_4 1_555 1_555
C14_4 C13_4 1_555 1_555
H11_2 C14_4 1_555 1_555
N1_4 C1_4 1_555 1_555
P1_5 Cu4_2 1_555 1_555
C1_5 P1_5 1_555 1_555
C2_5 C1_5 1_555 1_555
H1_5 C2_5 1_555 1_555
C3_5 C2_5 1_555 1_555
H2_5 C3_5 1_555 1_555
C4_4 C3_5 1_555 1_555
H3_4 C4_4 1_555 1_555
C5_4 N1_5 1_555 1_555
C11_5 P1_5 1_555 1_555
C12_5 C11_5 1_555 1_555
H9_5 C12_5 1_555 1_555
C13_5 C12_5 1_555 1_555
H10_5 C13_5 1_555 1_555
C14_5 C13_5 1_555 1_555
H11_3 C14_5 1_555 1_555
N1_5 C1_5 1_555 1_555
C4_4 C5_4 1_555 1_555
P1_6 Cu4_3 1_555 1_555
C1_6 P1_6 1_555 1_555
C2_6 C1_6 1_555 1_555
H1_6 C2_6 1_555 1_555
C3_6 C2_6 1_555 1_555
H2_6 C3_6 1_555 1_555
C11_6 P1_6 1_555 1_555
C12_6 C11_6 1_555 1_555
H9_6 C12_6 1_555 1_555
C13_6 C12_6 1_555 1_555
H10_6 C13_6 1_555 1_555
C14_6 C13_6 1_555 1_555
H11_4 C14_6 1_555 1_555
N1_6 C1_6 1_555 1_555
Cu2_5 I4_3 1_555 1_555
P1_7 Cu3_2 1_555 1_555
N1_7 Cu2_5 1_555 1_555
N2_5 Cu2_5 1_555 1_555
N3_5 Cu2_5 1_555 1_555
C1_7 P1_7 1_555 1_555
C2_7 C1_7 1_555 1_555
H1_7 C2_7 1_555 1_555
C3_7 C2_7 1_555 1_555
H2_7 C3_7 1_555 1_555
C4_5 C3_7 1_555 1_555
H3_5 C4_5 1_555 1_555
C5_5 N1_7 1_555 1_555
H4_7 C5_5 1_555 1_555
C6_5 P1_7 1_555 1_555
C7_5 C6_5 1_555 1_555
H5_7 C7_5 1_555 1_555
C8_5 C7_5 1_555 1_555
H6_5 C8_5 1_555 1_555
C9_5 C8_5 1_555 1_555
H7_5 C9_5 1_555 1_555
C10_5 N2_5 1_555 1_555
H8_5 C10_5 1_555 1_555
C11_7 P1_7 1_555 1_555
C15_5 N3_5 1_555 1_555
H12_7 C15_5 1_555 1_555
N1_7 C1_7 1_555 1_555
N2_5 C6_5 1_555 1_555
N3_5 C11_7 1_555 1_555
C4_5 C5_5 1_555 1_555
C9_5 C10_5 1_555 1_555
Cu2_6 I4 1_555 1_555
P1_8 Cu3_3 1_555 1_555
N1_8 Cu2_6 1_555 1_555
N2_6 Cu2_6 1_555 1_555
N3_6 Cu2_6 1_555 1_555
C1_8 P1_8 1_555 1_555
C2_8 C1_8 1_555 1_555
H1_8 C2_8 1_555 1_555
C3_8 C2_8 1_555 1_555
H2_8 C3_8 1_555 1_555
C4_6 C3_8 1_555 1_555
H3_6 C4_6 1_555 1_555
C5_6 N1_8 1_555 1_555
H4_8 C5_6 1_555 1_555
C6_6 P1_8 1_555 1_555
C7_6 C6_6 1_555 1_555
H5_8 C7_6 1_555 1_555
C8_6 C7_6 1_555 1_555
H6_6 C8_6 1_555 1_555
C9_6 C8_6 1_555 1_555
H7_6 C9_6 1_555 1_555
C10_6 N2_6 1_555 1_555
H8_6 C10_6 1_555 1_555
C11_8 P1_8 1_555 1_555
C15_6 N3_6 1_555 1_555
H12_8 C15_6 1_555 1_555
N1_8 C1_8 1_555 1_555
N2_6 C6_6 1_555 1_555
N3_6 C11_8 1_555 1_555
C4_6 C5_6 1_555 1_555
C9_6 C10_6 1_555 1_555
Cu2_7 I4_2 1_555 1_555
P1_9 Cu3 1_555 1_555
N1_9 Cu2_7 1_555 1_555
N2_7 Cu2_7 1_555 1_555
N3_7 Cu2_7 1_555 1_555
C1_9 P1_9 1_555 1_555
C2_9 C1_9 1_555 1_555
H1_9 C2_9 1_555 1_555
C3_9 C2_9 1_555 1_555
H2_9 C3_9 1_555 1_555
C4_7 C3_9 1_555 1_555
H3_7 C4_7 1_555 1_555
C5_7 N1_9 1_555 1_555
H4_9 C5_7 1_555 1_555
C6_7 P1_9 1_555 1_555
C7_7 C6_7 1_555 1_555
H5_9 C7_7 1_555 1_555
C8_7 C7_7 1_555 1_555
H6_7 C8_7 1_555 1_555
C9_7 C8_7 1_555 1_555
H7_7 C9_7 1_555 1_555
C10_7 N2_7 1_555 1_555
H8_7 C10_7 1_555 1_555
C11_9 P1_9 1_555 1_555
C12_7 C11_9 1_555 1_555
H9_7 C12_7 1_555 1_555
C13_7 C12_7 1_555 1_555
H10_7 C13_7 1_555 1_555
C14_7 C13_7 1_555 1_555
H11_5 C14_7 1_555 1_555
C15_7 N3_7 1_555 1_555
H12_9 C15_7 1_555 1_555
N1_9 C1_9 1_555 1_555
N2_7 C6_7 1_555 1_555
N3_7 C11_9 1_555 1_555
C4_7 C5_7 1_555 1_555
C9_7 C10_7 1_555 1_555
C14_7 C15_7 1_555 1_555
H3_8 C4_8 1_555 1_555
C4_8 C5_8 1_555 1_555
N2_8 Cu2_8 1_555 1_555
N3_8 Cu2_8 1_555 1_555
C7_8 C6_8 1_555 1_555
C8_8 C7_8 1_555 1_555
H6_8 C8_8 1_555 1_555
C9_8 C8_8 1_555 1_555
H7_8 C9_8 1_555 1_555
C10_8 N2_8 1_555 1_555
H8_8 C10_8 1_555 1_555
C15_8 N3_8 1_555 1_555
N2_8 C6_8 1_555 1_555
C9_8 C10_8 1_555 1_555
Cu1_4 I1_4 1_555 1_555
I1_4 Cu4_4 1_555 1_555
P1_10 Cu1_4 1_555 1_555
C1_10 P1_10 1_555 1_555
C2_10 C1_10 1_555 1_555
H1_10 C2_10 1_555 1_555
C3_10 C2_10 1_555 1_555
H2_10 C3_10 1_555 1_555
C11_10 P1_10 1_555 1_555
C12_8 C11_10 1_555 1_555
H9_8 C12_8 1_555 1_555
C13_8 C12_8 1_555 1_555
H10_8 C13_8 1_555 1_555
C14_8 C13_8 1_555 1_555
H11_8 C14_8 1_555 1_555
Cu4_4 I3_5 1_555 1_555
I3_5 Cu1_4 1_555 1_555
I4_4 Cu1_4 1_555 1_555
N1_10 C1_10 1_555 1_555
Cu1_5 I1_5 1_555 1_555
I1_5 Cu4_5 1_555 1_555
P1_11 Cu1_5 1_555 1_555
C1_11 P1_11 1_555 1_555
C2_11 C1_11 1_555 1_555
H1_11 C2_11 1_555 1_555
C3_11 C2_11 1_555 1_555
H2_11 C3_11 1_555 1_555
C4_9 C3_11 1_555 1_555
H3_9 C4_9 1_555 1_555
C5_9 N1_11 1_555 1_555
C11_11 P1_11 1_555 1_555
C12_9 C11_11 1_555 1_555
H9_9 C12_9 1_555 1_555
C13_9 C12_9 1_555 1_555
H10_9 C13_9 1_555 1_555
C14_9 C13_9 1_555 1_555
H11_9 C14_9 1_555 1_555
Cu4_5 I3_6 1_555 1_555
I3_6 Cu1_5 1_555 1_555
I4_5 Cu1_5 1_555 1_555
N1_11 C1_11 1_555 1_555
C4_9 C5_9 1_555 1_555
Cu1_6 I1_6 1_555 1_555
I1_6 Cu4_6 1_555 1_555
P1_12 Cu1_6 1_555 1_555
C1_12 P1_12 1_555 1_555
C2_12 C1_12 1_555 1_555
H1_12 C2_12 1_555 1_555
C3_12 C2_12 1_555 1_555
H2_12 C3_12 1_555 1_555
C11_12 P1_12 1_555 1_555
C12_10 C11_12 1_555 1_555
H9_10 C12_10 1_555 1_555
C13_10 C12_10 1_555 1_555
H10_10 C13_10 1_555 1_555
C14_10 C13_10 1_555 1_555
H11_10 C14_10 1_555 1_555
Cu4_6 I3_7 1_555 1_555
I3_7 Cu1_6 1_555 1_555
I4_6 Cu1_6 1_555 1_555
N1_12 C1_12 1_555 1_555
Cu2_9 I2_7 1_555 1_555
I2_7 Cu4_6 1_555 1_555
P1_13 Cu1_7 1_555 1_555
N1_13 Cu2_9 1_555 1_555
N2_9 Cu2_9 1_555 1_555
N3_9 Cu2_9 1_555 1_555
C1_13 P1_13 1_555 1_555
C2_13 C1_13 1_555 1_555
H1_13 C2_13 1_555 1_555
C3_13 C2_13 1_555 1_555
H2_13 C3_13 1_555 1_555
C4_10 C3_13 1_555 1_555
H3_10 C4_10 1_555 1_555
C5_10 N1_13 1_555 1_555
H4_10 C5_10 1_555 1_555
C6_9 P1_13 1_555 1_555
C7_9 C6_9 1_555 1_555
H5_13 C7_9 1_555 1_555
C8_9 C7_9 1_555 1_555
H6_9 C8_9 1_555 1_555
C9_9 C8_9 1_555 1_555
H7_9 C9_9 1_555 1_555
C10_9 N2_9 1_555 1_555
H8_9 C10_9 1_555 1_555
C11_13 P1_13 1_555 1_555
C15_9 N3_9 1_555 1_555
H12_10 C15_9 1_555 1_555
I4_7 Cu1_7 1_555 1_555
N1_13 C1_13 1_555 1_555
N2_9 C6_9 1_555 1_555
N3_9 C11_13 1_555 1_555
C4_10 C5_10 1_555 1_555
C9_9 C10_9 1_555 1_555
Cu2_10 I2_8 1_555 1_555
I2_8 Cu4_4 1_555 1_555
P1_14 Cu1_8 1_555 1_555
N1_14 Cu2_10 1_555 1_555
N2_10 Cu2_10 1_555 1_555
N3_10 Cu2_10 1_555 1_555
C1_14 P1_14 1_555 1_555
C2_14 C1_14 1_555 1_555
H1_14 C2_14 1_555 1_555
C3_14 C2_14 1_555 1_555
H2_14 C3_14 1_555 1_555
C4_11 C3_14 1_555 1_555
H3_11 C4_11 1_555 1_555
C5_11 N1_14 1_555 1_555
H4_11 C5_11 1_555 1_555
C6_10 P1_14 1_555 1_555
C7_10 C6_10 1_555 1_555
H5_14 C7_10 1_555 1_555
C8_10 C7_10 1_555 1_555
H6_10 C8_10 1_555 1_555
C9_10 C8_10 1_555 1_555
H7_10 C9_10 1_555 1_555
C10_10 N2_10 1_555 1_555
H8_10 C10_10 1_555 1_555
C11_14 P1_14 1_555 1_555
C15_10 N3_10 1_555 1_555
H12_11 C15_10 1_555 1_555
I4_8 Cu1_8 1_555 1_555
N1_14 C1_14 1_555 1_555
N2_10 C6_10 1_555 1_555
N3_10 C11_14 1_555 1_555
C4_11 C5_11 1_555 1_555
C9_10 C10_10 1_555 1_555
Cu1_9 I1_7 1_555 1_555
Cu2_11 I2_9 1_555 1_555
I2_9 Cu4_5 1_555 1_555
P1_15 Cu1_9 1_555 1_555
N1_15 Cu2_11 1_555 1_555
N2_11 Cu2_11 1_555 1_555
N3_11 Cu2_11 1_555 1_555
C1_15 P1_15 1_555 1_555
C2_15 C1_15 1_555 1_555
H1_15 C2_15 1_555 1_555
C3_15 C2_15 1_555 1_555
H2_15 C3_15 1_555 1_555
C4_12 C3_15 1_555 1_555
H3_12 C4_12 1_555 1_555
C5_12 N1_15 1_555 1_555
H4_12 C5_12 1_555 1_555
C6_11 P1_15 1_555 1_555
C7_11 C6_11 1_555 1_555
H5_15 C7_11 1_555 1_555
C8_11 C7_11 1_555 1_555
H6_11 C8_11 1_555 1_555
C9_11 C8_11 1_555 1_555
H7_11 C9_11 1_555 1_555
C10_11 N2_11 1_555 1_555
H8_11 C10_11 1_555 1_555
C11_15 P1_15 1_555 1_555
C12_11 C11_15 1_555 1_555
H9_11 C12_11 1_555 1_555
C13_11 C12_11 1_555 1_555
H10_11 C13_11 1_555 1_555
C14_11 C13_11 1_555 1_555
H11_11 C14_11 1_555 1_555
C15_11 N3_11 1_555 1_555
H12_12 C15_11 1_555 1_555
I4_9 Cu1_9 1_555 1_555
N1_15 C1_15 1_555 1_555
N2_11 C6_11 1_555 1_555
N3_11 C11_15 1_555 1_555
C4_12 C5_12 1_555 1_555
C9_11 C10_11 1_555 1_555
C14_11 C15_11 1_555 1_555
Cu2_12 I4_9 1_555 1_555
P1_16 Cu4_4 1_555 1_555
N1_16 Cu2_12 1_555 1_555
N2_12 Cu2_12 1_555 1_555
N3_12 Cu2_12 1_555 1_555
C1_16 P1_16 1_555 1_555
C2_16 C1_16 1_555 1_555
H1_16 C2_16 1_555 1_555
C3_16 C2_16 1_555 1_555
H2_16 C3_16 1_555 1_555
C4_13 C3_16 1_555 1_555
H3_13 C4_13 1_555 1_555
C5_13 N1_16 1_555 1_555
H4_13 C5_13 1_555 1_555
C6_12 P1_16 1_555 1_555
C7_12 C6_12 1_555 1_555
H5_16 C7_12 1_555 1_555
C8_12 C7_12 1_555 1_555
H6_12 C8_12 1_555 1_555
C9_12 C8_12 1_555 1_555
H7_12 C9_12 1_555 1_555
C10_12 N2_12 1_555 1_555
H8_12 C10_12 1_555 1_555
C11_16 P1_16 1_555 1_555
C12_12 C11_16 1_555 1_555
H9_12 C12_12 1_555 1_555
C13_12 C12_12 1_555 1_555
H10_12 C13_12 1_555 1_555
C14_12 C13_12 1_555 1_555
H11_12 C14_12 1_555 1_555
C15_12 N3_12 1_555 1_555
H12_13 C15_12 1_555 1_555
N1_16 C1_16 1_555 1_555
N2_12 C6_12 1_555 1_555
N3_12 C11_16 1_555 1_555
C4_13 C5_13 1_555 1_555
C9_12 C10_12 1_555 1_555
C14_12 C15_12 1_555 1_555
Cu2_13 I4_7 1_555 1_555
P1_17 Cu4_5 1_555 1_555
N1_17 Cu2_13 1_555 1_555
N2_13 Cu2_13 1_555 1_555
N3_13 Cu2_13 1_555 1_555
C1_17 P1_17 1_555 1_555
C2_17 C1_17 1_555 1_555
H1_17 C2_17 1_555 1_555
C3_17 C2_17 1_555 1_555
H2_17 C3_17 1_555 1_555
C4_14 C3_17 1_555 1_555
H3_14 C4_14 1_555 1_555
C5_14 N1_17 1_555 1_555
H4_14 C5_14 1_555 1_555
C6_13 P1_17 1_555 1_555
C7_13 C6_13 1_555 1_555
H5_17 C7_13 1_555 1_555
C8_13 C7_13 1_555 1_555
H6_13 C8_13 1_555 1_555
C9_13 C8_13 1_555 1_555
H7_13 C9_13 1_555 1_555
C10_13 N2_13 1_555 1_555
H8_13 C10_13 1_555 1_555
C11_17 P1_17 1_555 1_555
C12_13 C11_17 1_555 1_555
H9_13 C12_13 1_555 1_555
C13_13 C12_13 1_555 1_555
H10_13 C13_13 1_555 1_555
C14_13 C13_13 1_555 1_555
C15_13 N3_13 1_555 1_555
H12_14 C15_13 1_555 1_555
N1_17 C1_17 1_555 1_555
N2_13 C6_13 1_555 1_555
N3_13 C11_17 1_555 1_555
C4_14 C5_14 1_555 1_555
C9_13 C10_13 1_555 1_555
C14_13 C15_13 1_555 1_555
Cu2_14 I4_8 1_555 1_555
P1_18 Cu4_6 1_555 1_555
N1_18 Cu2_14 1_555 1_555
N2_14 Cu2_14 1_555 1_555
N3_14 Cu2_14 1_555 1_555
C1_18 P1_18 1_555 1_555
C2_18 C1_18 1_555 1_555
H1_18 C2_18 1_555 1_555
C3_18 C2_18 1_555 1_555
H2_18 C3_18 1_555 1_555
C4_15 C3_18 1_555 1_555
H3_15 C4_15 1_555 1_555
C5_15 N1_18 1_555 1_555
H4_15 C5_15 1_555 1_555
C6_14 P1_18 1_555 1_555
C7_14 C6_14 1_555 1_555
H5_18 C7_14 1_555 1_555
C8_14 C7_14 1_555 1_555
H6_14 C8_14 1_555 1_555
C9_14 C8_14 1_555 1_555
H7_14 C9_14 1_555 1_555
C10_14 N2_14 1_555 1_555
H8_14 C10_14 1_555 1_555
C11_18 P1_18 1_555 1_555
C12_14 C11_18 1_555 1_555
H9_14 C12_14 1_555 1_555
C13_14 C12_14 1_555 1_555
H10_14 C13_14 1_555 1_555
C14_14 C13_14 1_555 1_555
C15_14 N3_14 1_555 1_555
H12_15 C15_14 1_555 1_555
N1_18 C1_18 1_555 1_555
N2_14 C6_14 1_555 1_555
N3_14 C11_18 1_555 1_555
C4_15 C5_15 1_555 1_555
C9_14 C10_14 1_555 1_555
C14_14 C15_14 1_555 1_555
Cu2_15 I4_4 1_555 1_555
N2_15 Cu2_15 1_555 1_555
N3_15 Cu2_15 1_555 1_555
C7_15 C6_15 1_555 1_555
C8_15 C7_15 1_555 1_555
H6_15 C8_15 1_555 1_555
C9_15 C8_15 1_555 1_555
H7_15 C9_15 1_555 1_555
C10_15 N2_15 1_555 1_555
H8_15 C10_15 1_555 1_555
C15_15 N3_15 1_555 1_555
H12_17 C15_15 1_555 1_555
N2_15 C6_15 1_555 1_555
C9_15 C10_15 1_555 1_555
N2_16 Cu2_16 1_555 1_555
N3_16 Cu2_16 1_555 1_555
C7_16 C6_16 1_555 1_555
C8_16 C7_16 1_555 1_555
H6_16 C8_16 1_555 1_555
C9_16 C8_16 1_555 1_555
H7_16 C9_16 1_555 1_555
C10_16 N2_16 1_555 1_555
H8_16 C10_16 1_555 1_555
C15_16 N3_16 1_555 1_555
N2_16 C6_16 1_555 1_555
C9_16 C10_16 1_555 1_555
H3_16 C4_16 1_555 1_555
C4_16 C5_16 1_555 1_555
H9_15 C12_15 1_555 1_555
C13_15 C12_15 1_555 1_555
H10_15 C13_15 1_555 1_555
C14_15 C13_15 1_555 1_555
H11_13 C14_15 1_555 1_555
H9_16 C12_16 1_555 1_555
C13_16 C12_16 1_555 1_555
H10_16 C13_16 1_555 1_555
C14_16 C13_16 1_555 1_555
H11_14 C14_16 1_555 1_555
H9_17 C12_17 1_555 1_555
C13_17 C12_17 1_555 1_555
H10_17 C13_17 1_555 1_555
C14_17 C13_17 1_555 1_555
H11_15 C14_17 1_555 1_555
H9_18 C12_18 1_555 1_555
C13_18 C12_18 1_555 1_555
H10_18 C13_18 1_555 1_555
C14_18 C13_18 1_555 1_555
H11_16 C14_18 1_555 1_555
N2_17 Cu2_17 1_555 1_555
N3_17 Cu2_17 1_555 1_555
C7_17 C6_17 1_555 1_555
C8_17 C7_17 1_555 1_555
H6_17 C8_17 1_555 1_555
C9_17 C8_17 1_555 1_555
H7_17 C9_17 1_555 1_555
C10_17 N2_17 1_555 1_555
H8_17 C10_17 1_555 1_555
C15_17 N3_17 1_555 1_555
N2_17 C6_17 1_555 1_555
C9_17 C10_17 1_555 1_555
H3_17 C4_17 1_555 1_555
C4_17 C5_17 1_555 1_555
H3_18 C4_18 1_555 1_555
C4_18 C5_18 1_555 1_555
N2_18 Cu2_18 1_555 1_555
N3_18 Cu2_18 1_555 1_555
C7_18 C6_18 1_555 1_555
C8_18 C7_18 1_555 1_555
H6_18 C8_18 1_555 1_555
C9_18 C8_18 1_555 1_555
H7_18 C9_18 1_555 1_555
C10_18 N2_18 1_555 1_555
H8_18 C10_18 1_555 1_555
C15_18 N3_18 1_555 1_555
N2_18 C6_18 1_555 1_555
C9_18 C10_18 1_555 1_555

#END
