
###############################################################################
#
# This file contains modified crystal structure data generated from the
# MOF subset of the Cambridge Structural Database (CSD) v543 
# hosted by the Cambridge Crystallographic Data Centre (CCDC).
#
# This work is licensed under the Creative Commons
# Attribution-NonCommercial-ShareAlike 4.0 International License.
# To view a copy of this license, visit
# http://creativecommons.org/licenses/by-nc-sa/4.0/
# or send a letter to
# Creative Commons, PO Box 1866, Mountain View, CA 94042, USA.
#
# CIF created using the CSD Python API on 29 September 2022
# The structure has been converted into the P1 space group
# The structure has a 3D framework
# The original CSD entry JUMZUO01 is in the triclinic crystal system
# The framework has been calculated to contain at least 10.0% void space
# The void calculation uses a probe of radius 1.32A, grid spacing 0.4
#
###############################################################################

data_JUMZUO01
_chemical_formula_moiety         '(C86 H78 N12 Ni4 O20)n'
_symmetry_cell_setting           triclinic
_symmetry_space_group_name_H-M   'P 1'
_symmetry_Int_Tables_number      1
_space_group_name_Hall           'P 1'
loop_
_symmetry_equiv_pos_site_id
_symmetry_equiv_pos_as_xyz
1 x,y,z
_cell_length_a                   9.2308(18)
_cell_length_b                   10.063(2)
_cell_length_c                   24.572(5)
_cell_angle_alpha                97.68(3)
_cell_angle_beta                 100.39(3)
_cell_angle_gamma                101.06(3)
_cell_volume                     2169.64
loop_
_atom_site_label
_atom_site_type_symbol
_atom_site_fract_x
_atom_site_fract_y
_atom_site_fract_z
_atom_site_U_iso_or_equiv
_atom_site_thermal_displace_type
Ni12 Ni 0.60507(4) 0.11528(4) 0.181249(18) 0.0266 Uani
N9 N 0.5399(3) 0.1889(3) 0.10643(13) 0.0357 Uani
N10 N 0.3780(3) 0.2282(4) 0.03714(14) 0.0504 Uani
C51 C 0.4103(5) 0.2213(5) 0.09178(17) 0.0544 Uani
H47 H 0.3476 0.2377 0.1164 0.0650 Uiso
C52 C 0.5914(5) 0.1727(6) 0.0596(2) 0.0812 Uani
H48 H 0.6829 0.1494 0.0568 0.0980 Uiso
C53 C 0.4891(6) 0.1957(7) 0.0158(2) 0.0980 Uani
C54 C 0.2313(5) 0.2453(5) 0.0065(2) 0.0707 Uani
H50 H 0.2047 0.3250 0.0256 0.0850 Uiso
C55 C 0.1111(4) 0.1192(5) 0.00340(18) 0.0525 Uani
C57 C 0.0326(5) 0.1056(5) 0.04570(18) 0.0579 Uani
H53 H 0.0529 0.1760 0.0765 0.0690 Uiso
N11 N 0.4709(3) 0.9249(3) 0.14600(12) 0.0333 Uani
N12 N 0.2656(3) 0.7617(3) 0.11749(13) 0.0410 Uani
C58 C 0.3224(4) 0.8994(4) 0.13171(16) 0.0395 Uani
H54 H 0.2649 0.9659 0.1314 0.0480 Uiso
C59 C 0.5104(4) 0.7994(4) 0.14093(16) 0.0386 Uani
H55 H 0.6086 0.7862 0.1481 0.0460 Uiso
C60 C 0.3839(4) 0.6982(4) 0.12396(15) 0.0427 Uani
H56 H 0.3787 0.6040 0.1179 0.0510 Uiso
C61 C 0.1041(4) 0.6997(5) 0.10359(18) 0.0546 Uani
H57 H 0.0779 0.6559 0.1344 0.0660 Uiso
H58 H 0.0489 0.7720 0.1001 0.0660 Uiso
C62 C 0.0543(4) 0.5954(4) 0.05049(15) 0.0404 Uani
C63 C 0.1124(5) 0.6136(4) 0.00365(16) 0.0456 Uani
H59 H 0.1890 0.6901 0.0055 0.0550 Uiso
N5 N 0.5291(3) 0.0751(3) 0.85400(12) 0.0333 Uani
N6 N 0.7344(3) 0.2383(3) 0.88251(13) 0.0410 Uani
C15 C 0.6776(4) 0.1006(4) 0.86829(16) 0.0395 Uani
H15 H 0.7351 0.0341 0.8686 0.0480 Uiso
C16 C 0.4896(4) 0.2006(4) 0.85907(16) 0.0386 Uani
H16 H 0.3914 0.2138 0.8519 0.0460 Uiso
C17 C 0.6161(4) 0.3018(4) 0.87604(15) 0.0427 Uani
H17 H 0.6213 0.3960 0.8821 0.0510 Uiso
C18 C 0.8959(4) 0.3003(5) 0.89641(18) 0.0546 Uani
H18 H 0.9221 0.3441 0.8656 0.0660 Uiso
H19 H 0.9511 0.2280 0.8999 0.0660 Uiso
C19 C 0.9457(4) 0.4046(4) 0.94951(15) 0.0404 Uani
C20 C 0.8876(5) 0.3864(4) 0.99635(16) 0.0456 Uani
H20 H 0.8110 0.3099 0.9945 0.0550 Uiso
Ni1 Ni 0.23338(4) 0.62849(4) 0.704285(19) 0.0270 Uani
Ni2 Ni 0.39493(4) 0.88472(4) 0.818751(18) 0.0266 Uani
O1 O 0.2253(2) 0.7101(2) 0.78660(10) 0.0300 Uani
O2 O 0.1610(2) 0.8747(2) 0.83888(10) 0.0345 Uani
N1 N 0.0147(3) 0.6312(3) 0.66824(12) 0.0317 Uani
N3 N 0.4601(3) 0.8111(3) 0.89357(13) 0.0357 Uani
N4 N 0.6220(3) 0.7718(4) 0.96286(14) 0.0504 Uani
H1 H 0.0152 0.8308 0.6659 0.0800 Uiso
C8 C 0.5897(5) 0.7787(5) 0.90822(17) 0.0544 Uani
H8 H 0.6524 0.7623 0.8836 0.0650 Uiso
C9 C 0.4086(5) 0.8273(6) 0.9404(2) 0.0812 Uani
H9 H 0.3171 0.8506 0.9432 0.0980 Uiso
C10 C 0.5109(6) 0.8043(7) 0.9842(2) 0.0980 Uani
C11 C 0.7687(5) 0.7547(5) 0.9935(2) 0.0707 Uani
H11 H 0.7953 0.6750 0.9744 0.0850 Uiso
C12 C 0.8889(4) 0.8808(5) 0.99660(18) 0.0525 Uani
C14 C 0.9674(5) 0.8944(5) 0.95430(18) 0.0579 Uani
H14 H 0.9471 0.8240 0.9235 0.0690 Uiso
C33 C 0.1256(4) 0.7583(4) 0.80839(15) 0.0317 Uani
H31 H 0.0385 0.4889 0.7901 0.0330 Uiso
O22 O 0.3200(3) 0.9711(2) 0.75219(10) 0.0355 Uani
O24 O 0.3062(3) 0.8071(2) 0.67884(10) 0.0373 Uani
O26 O 0.1852(2) 0.4142(2) 0.70980(9) 0.0310 Uani
O28 O 0.2535(3) 0.4852(2) 0.63575(10) 0.0351 Uani
O29 O 0.5704(2) 0.8190(2) 0.79256(10) 0.0309 Uani
O31 O 0.4459(2) 0.6167(3) 0.73818(11) 0.0415 Uani
O17 O 0.2690(4) 0.0502(3) 0.51197(13) 0.0859 Uani
C66 C 0.2891(4) 0.0295(4) 0.66119(15) 0.0306 Uani
C68 C 0.2705(4) 0.1606(3) 0.68072(14) 0.0297 Uani
H62 H 0.2696 0.1866 0.7184 0.0360 Uiso
C69 C 0.2533(3) 0.2519(3) 0.64395(14) 0.0269 Uani
C70 C 0.2596(4) 0.2141(4) 0.58817(15) 0.0383 Uani
H63 H 0.2524 0.2773 0.5640 0.0460 Uiso
C71 C 0.2761(5) 0.0854(4) 0.56815(17) 0.0525 Uani
C72 C 0.2279(3) 0.3901(3) 0.66448(15) 0.0270 Uani
H69 H 0.3213 0.0207 0.4009 0.1020 Uiso
O3 O 0.6800(3) 0.0289(2) 0.24781(10) 0.0355 Uani
O4 O 0.6938(3) 0.1929(2) 0.32116(10) 0.0373 Uani
O10 O 0.8060(2) 0.3032(3) 0.75961(11) 0.0420 Uani
N2 N 0.7697(3) 0.5670(4) 0.63530(14) 0.0443 Uani
C1 C 0.9581(4) 0.7411(5) 0.6589(2) 0.0664 Uani
C2 C 0.8087(5) 0.7054(5) 0.6384(2) 0.0717 Uani
H2 H 0.7450 0.7633 0.6283 0.0860 Uiso
C3 C 0.8985(4) 0.5279(4) 0.65418(15) 0.0362 Uani
H3 H 0.9039 0.4376 0.6569 0.0430 Uiso
C4 C 0.6167(4) 0.4801(5) 0.61586(17) 0.0557 Uani
H4 H 0.5515 0.5091 0.6398 0.0670 Uiso
H5 H 0.6196 0.3853 0.6185 0.0670 Uiso
C5 C 0.5531(4) 0.4899(4) 0.55582(16) 0.0438 Uani
C6 C 0.4493(5) 0.5686(5) 0.5430(2) 0.0639 Uani
H6 H 0.4139 0.6151 0.5713 0.0770 Uiso
C7 C 0.6016(5) 0.4226(5) 0.51250(19) 0.0631 Uani
H7 H 0.6714 0.3689 0.5209 0.0760 Uiso
C22 C 0.6919(4) 0.0706(4) 0.29929(16) 0.0325 Uani
C24 C 0.7081(4) 0.0083(4) 0.39554(16) 0.0414 Uani
H22 H 0.6957 0.0954 0.4088 0.0500 Uiso
C30 C 0.7719(10) 0.0869(7) 0.5127(2) 0.1394 Uani
H25 H 0.8430 0.1374 0.4940 0.1670 Uiso
H26 H 0.6837 0.1267 0.5098 0.1670 Uiso
C31 C 0.8471(8) 0.0946(9) 0.5765(3) 0.1487 Uani
H27 H 0.9128 0.1849 0.5904 0.1780 Uiso
H28 H 0.9096 0.0275 0.5788 0.1780 Uiso
C32 C 0.7428(6) 0.0706(6) 0.6122(2) 0.0855 Uani
H29 H 0.6787 0.1363 0.6094 0.1020 Uiso
C34 C 0.9688(3) 0.6672(3) 0.79752(14) 0.0267 Uani
C35 C 0.9534(3) 0.5263(3) 0.78668(14) 0.0275 Uani
C36 C 0.8097(4) 0.4406(3) 0.77055(14) 0.0291 Uani
C37 C 0.6842(3) 0.4967(4) 0.76575(14) 0.0293 Uani
H32 H 0.5883 0.4394 0.7553 0.0350 Uiso
C38 C 0.7005(3) 0.6410(4) 0.77665(14) 0.0273 Uani
C39 C 0.8431(3) 0.7259(4) 0.79486(14) 0.0281 Uani
H33 H 0.8548 0.8203 0.8051 0.0340 Uiso
C40 C 0.5603(4) 0.6974(4) 0.76851(14) 0.0283 Uani
C41 C 0.6719(4) 0.2093(4) 0.73051(16) 0.0407 Uani
H34 H 0.6266 0.2432 0.6979 0.0490 Uiso
H35 H 0.5999 0.1974 0.7547 0.0490 Uiso
C42 C 0.7122(5) 0.0755(4) 0.71273(19) 0.0550 Uani
H36 H 0.7577 0.0440 0.7460 0.0660 Uiso
H37 H 0.6202 0.0080 0.6948 0.0660 Uiso
C43 C 0.8179(5) 0.0820(5) 0.6735(2) 0.0689 Uani
H38 H 0.8712 0.0083 0.6768 0.0830 Uiso
H39 H 0.8922 0.1683 0.6850 0.0830 Uiso
N8 N 0.2303(3) 0.4330(4) 0.36470(14) 0.0443 Uani
C44 C 0.0419(4) 0.2589(5) 0.3411(2) 0.0664 Uani
C45 C 0.1913(5) 0.2946(5) 0.3616(2) 0.0717 Uani
H41 H 0.2550 0.2367 0.3717 0.0860 Uiso
C46 C 0.1015(4) 0.4721(4) 0.34582(15) 0.0362 Uani
H42 H 0.0961 0.5624 0.3431 0.0430 Uiso
C47 C 0.3833(4) 0.5199(5) 0.38414(17) 0.0557 Uani
H43 H 0.4485 0.4909 0.3602 0.0670 Uiso
H44 H 0.3804 0.6147 0.3815 0.0670 Uiso
C48 C 0.4469(4) 0.5101(4) 0.44418(16) 0.0438 Uani
C49 C 0.5507(5) 0.4314(5) 0.4570(2) 0.0639 Uani
H45 H 0.5861 0.3849 0.4287 0.0770 Uiso
C50 C 0.3984(5) 0.5774(5) 0.48750(19) 0.0631 Uani
H46 H 0.3286 0.6311 0.4791 0.0760 Uiso
O18 O 0.4296(2) 0.1810(2) 0.20744(10) 0.0309 Uani
O19 O 0.5541(2) 0.3833(3) 0.26182(11) 0.0415 Uani
O20 O 0.1940(2) 0.6968(3) 0.24039(11) 0.0420 Uani
C65 C 0.3081(4) 0.9294(4) 0.70071(16) 0.0325 Uani
C67 C 0.2919(4) 0.9917(4) 0.60446(16) 0.0414 Uani
H61 H 0.3043 0.9046 0.5912 0.0500 Uiso
C73 C 0.2281(10) 0.9131(7) 0.4873(2) 0.1394 Uani
H64 H 0.1570 0.8626 0.5060 0.1670 Uiso
H65 H 0.3163 0.8733 0.4902 0.1670 Uiso
C74 C 0.1529(8) 0.9054(9) 0.4235(3) 0.1487 Uani
H66 H 0.0872 0.8151 0.4096 0.1780 Uiso
H67 H 0.0904 0.9725 0.4212 0.1780 Uiso
C75 C 0.2572(6) 0.9294(6) 0.3878(2) 0.0855 Uani
H68 H 0.3213 0.8637 0.3906 0.1020 Uiso
C77 C 0.0312(3) 0.3328(3) 0.20248(14) 0.0267 Uani
C78 C 0.0466(3) 0.4737(3) 0.21332(14) 0.0275 Uani
C79 C 0.1903(4) 0.5594(3) 0.22945(14) 0.0291 Uani
C80 C 0.3158(3) 0.5033(4) 0.23425(14) 0.0293 Uani
H71 H 0.4117 0.5606 0.2447 0.0350 Uiso
C81 C 0.2995(3) 0.3590(4) 0.22335(14) 0.0273 Uani
C82 C 0.1569(3) 0.2741(4) 0.20514(14) 0.0281 Uani
H72 H 0.1452 0.1797 0.1949 0.0340 Uiso
C83 C 0.4397(4) 0.3026(4) 0.23149(14) 0.0283 Uani
C84 C 0.3281(4) 0.7907(4) 0.26949(16) 0.0407 Uani
H73 H 0.3734 0.7568 0.3021 0.0490 Uiso
H74 H 0.4001 0.8026 0.2453 0.0490 Uiso
C85 C 0.2878(5) 0.9245(4) 0.28727(19) 0.0550 Uani
H75 H 0.2423 0.9560 0.2540 0.0660 Uiso
H76 H 0.3798 0.9920 0.3052 0.0660 Uiso
C86 C 0.1821(5) 0.9180(5) 0.3265(2) 0.0689 Uani
H77 H 0.1288 0.9917 0.3232 0.0830 Uiso
H78 H 0.1078 0.8317 0.3150 0.0830 Uiso
Ni8 Ni 0.76662(4) 0.37151(4) 0.295715(19) 0.0270 Uani
O5 O 0.8148(2) 0.5858(2) 0.29020(9) 0.0310 Uani
O6 O 0.7465(3) 0.5148(2) 0.36425(10) 0.0351 Uani
O7 O 0.7310(4) 0.9498(3) 0.48803(13) 0.0859 Uani
C23 C 0.7109(4) 0.9705(4) 0.33881(15) 0.0306 Uani
C25 C 0.7295(4) 0.8394(3) 0.31928(14) 0.0297 Uani
H23 H 0.7304 0.8134 0.2816 0.0360 Uiso
C26 C 0.7467(3) 0.7481(3) 0.35605(14) 0.0269 Uani
C27 C 0.7404(4) 0.7859(4) 0.41183(15) 0.0383 Uani
H24 H 0.7476 0.7227 0.4360 0.0460 Uiso
C28 C 0.7239(5) 0.9146(4) 0.43185(17) 0.0525 Uani
C29 C 0.7721(3) 0.6099(3) 0.33552(15) 0.0270 Uani
H30 H 0.6787 0.9793 0.5991 0.1020 Uiso
N7 N 0.9853(3) 0.3688(3) 0.33176(12) 0.0317 Uani
H40 H 0.9848 0.1692 0.3341 0.0800 Uiso
O11 O 0.7747(2) 0.2899(2) 0.21340(10) 0.0300 Uani
O12 O 0.8390(2) 0.1253(2) 0.16112(10) 0.0345 Uani
C76 C 0.8744(4) 0.2417(4) 0.19161(15) 0.0317 Uani
H70 H 0.9615 0.5111 0.2099 0.0330 Uiso
C21 C 0.0596(5) 0.5212(4) 0.95404(17) 0.0491 Uani
H21 H 0.1008 0.5369 0.9230 0.0590 Uiso
H49 H 0.4973 0.1895 0.9784 0.1170 Uiso
H51 H 0.2390 0.2603 0.9688 0.0850 Uiso
C56 C 0.0760(4) 0.0119(5) 0.95738(18) 0.0525 Uani
H52 H 0.1271 0.0199 0.9282 0.0630 Uiso
C64 C 0.9404(5) 0.4788(4) 0.04596(17) 0.0491 Uani
H60 H 0.8992 0.4631 0.0770 0.0590 Uiso
H10 H 0.5027 0.8105 0.0216 0.1170 Uiso
H12 H 0.7610 0.7397 0.0312 0.0850 Uiso
C13 C 0.9240(4) 0.9881(5) 0.04262(18) 0.0525 Uani
H13 H 0.8729 0.9801 0.0718 0.0630 Uiso
loop_
_atom_site_aniso_label
_atom_site_aniso_U_11
_atom_site_aniso_U_22
_atom_site_aniso_U_33
_atom_site_aniso_U_23
_atom_site_aniso_U_13
_atom_site_aniso_U_12
Ni12 0.02212 0.024 0.0304 0.00114 0.00069 0.00419
N9 0.0252 0.0402 0.0403 0.0091 0.0048 0.0047
N10 0.0368 0.064 0.051 0.0258 0.0042 0.0063
C51 0.047 0.082 0.036 0.019 0.0053 0.016
C52 0.05 0.15 0.064 0.047 0.017 0.047
C53 0.073 0.184 0.052 0.053 0.018 0.038
C54 0.054 0.074 0.077 0.032 -0.012 0.008
C55 0.038 0.066 0.05 0.01 -0.0055 0.017
C57 0.063 0.066 0.039 -0.002 -0.002 0.02
N11 0.03 0.0341 0.0294 -0.0001 -0.0022 0.0036
N12 0.0383 0.0345 0.0372 -0.0054 -0.0033 -0.005
C58 0.0403 0.0278 0.043 0.0015 -0.0012 0.0021
C59 0.0431 0.03 0.039 0.0023 0.0031 0.0069
C60 0.064 0.0241 0.034 0.0023 0.0001 0.0065
C61 0.049 0.048 0.052 0.008 -0.007 -0.008
C62 0.0382 0.039 0.029 0.0039 -0.0134 -0.0067
C63 0.057 0.031 0.034 0.0008 0.0004 -0.0139
N5 0.03 0.0341 0.0294 -0.0001 -0.0022 0.0036
N6 0.0383 0.0345 0.0372 -0.0054 -0.0033 -0.005
C15 0.0403 0.0278 0.043 0.0015 -0.0012 0.0021
C16 0.0431 0.03 0.039 0.0023 0.0031 0.0069
C17 0.064 0.0241 0.034 0.0023 0.0001 0.0065
C18 0.049 0.048 0.052 0.008 -0.007 -0.008
C19 0.0382 0.039 0.029 0.0039 -0.0134 -0.0067
C20 0.057 0.031 0.034 0.0008 0.0004 -0.0139
Ni1 0.024 0.0204 0.0344 0.0021 0.0023 0.00509
Ni2 0.02212 0.024 0.0304 0.00114 0.00069 0.00419
O1 0.0191 0.0291 0.0395 0.001 0.0064 0.0032
O2 0.0248 0.0331 0.0402 -0.0058 0.0029 0.0058
N1 0.0297 0.0291 0.0368 0.0065 0.0055 0.0086
N3 0.0252 0.0402 0.0403 0.0091 0.0048 0.0047
N4 0.0368 0.064 0.051 0.0258 0.0042 0.0063
C8 0.047 0.082 0.036 0.019 0.0053 0.016
C9 0.05 0.15 0.064 0.047 0.017 0.047
C10 0.073 0.184 0.052 0.053 0.018 0.038
C11 0.054 0.074 0.077 0.032 -0.012 0.008
C12 0.038 0.066 0.05 0.01 -0.0055 0.017
C14 0.063 0.066 0.039 -0.002 -0.002 0.02
C33 0.0257 0.04 0.0269 0.0033 -0.0018 0.0101
O22 0.0461 0.0236 0.0339 0.0035 0.0004 0.0094
O24 0.0491 0.0226 0.0421 0.0091 0.0101 0.0099
O26 0.0348 0.0274 0.0318 0.0012 0.0099 0.0095
O28 0.0506 0.0212 0.041 0.011 0.0176 0.0148
O29 0.0222 0.0255 0.0444 0.0019 0.0091 0.0046
O31 0.0237 0.0299 0.0623 -0.008 -0.0019 0.0063
O17 0.163 0.054 0.0503 -0.0067 0.045 0.037
C66 0.0353 0.0215 0.0322 0.0025 0.0067 0.0015
C68 0.0346 0.0275 0.024 0.0002 -0.0031 0.0113
C69 0.0281 0.0205 0.0321 0.0048 0.0072 0.0048
C70 0.05 0.035 0.035 0.0112 0.0176 0.0098
C71 0.095 0.03 0.037 -0.0022 0.024 0.021
C72 0.0241 0.0197 0.0331 -0.0033 0.0044 0.0019
O3 0.0461 0.0236 0.0339 0.0035 0.0004 0.0094
O4 0.0491 0.0226 0.0421 0.0091 0.0101 0.0099
O10 0.0321 0.0302 0.0575 -0.0019 -0.001 0.0086
N2 0.033 0.052 0.0433 0.0097 -0.0031 0.0075
C1 0.037 0.039 0.11 0.012 -0.016 0.0065
C2 0.042 0.047 0.122 0.015 -0.002 0.018
C3 0.0373 0.038 0.031 0.0126 -0.0009 0.0058
C4 0.0272 0.079 0.049 0.02 -0.006 -0.01
C5 0.0277 0.059 0.04 0.015 0.0023 -0.0019
C6 0.045 0.091 0.057 0.006 0.004 0.029
C7 0.056 0.089 0.051 0.029 -0.001 0.032
C22 0.0291 0.0198 0.044 -0.0008 0.0062 -0.0002
C24 0.061 0.0251 0.038 -0.0024 0.0134 0.0122
C30 0.282 0.107 0.038 0.001 0.042 0.065
C31 0.141 0.193 0.099 -0.022 0.031 0.033
C32 0.111 0.086 0.074 0.019 0.035 0.039
C34 0.0141 0.0285 0.0342 -0.0039 0.0049 0.0037
C35 0.0229 0.0292 0.0292 0.0022 0.005 0.0054
C36 0.0354 0.0244 0.0328 0.0136 0.0104 0.0102
C37 0.0195 0.037 0.0315 0.0039 0.0091 0.0048
C38 0.0216 0.0266 0.034 0.0034 0.0103 0.0034
C39 0.0287 0.0318 0.0258 0.0056 0.0106 0.0068
C40 0.0282 0.0291 0.0296 0.0041 0.0112 0.0072
C41 0.045 0.033 0.039 0.0002 0.0062 0.0031
C42 0.052 0.039 0.067 -0.004 0.01 0.005
C43 0.066 0.061 0.073 -0.016 0.015 0.017
N8 0.033 0.052 0.0433 0.0097 -0.0031 0.0075
C44 0.037 0.039 0.11 0.012 -0.016 0.0065
C45 0.042 0.047 0.122 0.015 -0.002 0.018
C46 0.0373 0.038 0.031 0.0126 -0.0009 0.0058
C47 0.0272 0.079 0.049 0.02 -0.006 -0.01
C48 0.0277 0.059 0.04 0.015 0.0023 -0.0019
C49 0.045 0.091 0.057 0.006 0.004 0.029
C50 0.056 0.089 0.051 0.029 -0.001 0.032
O18 0.0222 0.0255 0.0444 0.0019 0.0091 0.0046
O19 0.0237 0.0299 0.0623 -0.008 -0.0019 0.0063
O20 0.0321 0.0302 0.0575 -0.0019 -0.001 0.0086
C65 0.0291 0.0198 0.044 -0.0008 0.0062 -0.0002
C67 0.061 0.0251 0.038 -0.0024 0.0134 0.0122
C73 0.282 0.107 0.038 0.001 0.042 0.065
C74 0.141 0.193 0.099 -0.022 0.031 0.033
C75 0.111 0.086 0.074 0.019 0.035 0.039
C77 0.0141 0.0285 0.0342 -0.0039 0.0049 0.0037
C78 0.0229 0.0292 0.0292 0.0022 0.005 0.0054
C79 0.0354 0.0244 0.0328 0.0136 0.0104 0.0102
C80 0.0195 0.037 0.0315 0.0039 0.0091 0.0048
C81 0.0216 0.0266 0.034 0.0034 0.0103 0.0034
C82 0.0287 0.0318 0.0258 0.0056 0.0106 0.0068
C83 0.0282 0.0291 0.0296 0.0041 0.0112 0.0072
C84 0.045 0.033 0.039 0.0002 0.0062 0.0031
C85 0.052 0.039 0.067 -0.004 0.01 0.005
C86 0.066 0.061 0.073 -0.016 0.015 0.017
Ni8 0.024 0.0204 0.0344 0.0021 0.0023 0.00509
O5 0.0348 0.0274 0.0318 0.0012 0.0099 0.0095
O6 0.0506 0.0212 0.041 0.011 0.0176 0.0148
O7 0.163 0.054 0.0503 -0.0067 0.045 0.037
C23 0.0353 0.0215 0.0322 0.0025 0.0067 0.0015
C25 0.0346 0.0275 0.024 0.0002 -0.0031 0.0113
C26 0.0281 0.0205 0.0321 0.0048 0.0072 0.0048
C27 0.05 0.035 0.035 0.0112 0.0176 0.0098
C28 0.095 0.03 0.037 -0.0022 0.024 0.021
C29 0.0241 0.0197 0.0331 -0.0033 0.0044 0.0019
N7 0.0297 0.0291 0.0368 0.0065 0.0055 0.0086
O11 0.0191 0.0291 0.0395 0.001 0.0064 0.0032
O12 0.0248 0.0331 0.0402 -0.0058 0.0029 0.0058
C76 0.0257 0.04 0.0269 0.0033 -0.0018 0.0101
C21 0.055 0.043 0.036 0.0049 -0.001 -0.01
C56 0.0445 0.081 0.042 0.015 0.0138 0.031
C64 0.055 0.043 0.036 0.0049 -0.001 -0.01
C13 0.0445 0.081 0.042 0.015 0.0138 0.031
loop_
_geom_bond_atom_site_label_1
_geom_bond_atom_site_label_2
_geom_bond_site_symmetry_1
_geom_bond_site_symmetry_2
N9 C51 1_555 1_555
N10 C51 1_555 1_555
C51 H47 1_555 1_555
C52 N9 1_555 1_555
H48 C52 1_555 1_555
C53 N10 1_555 1_555
C54 N10 1_555 1_555
H50 C54 1_555 1_555
C55 C54 1_555 1_555
H53 C57 1_555 1_555
N11 C58 1_555 1_555
N12 C58 1_555 1_555
C58 H54 1_555 1_555
C59 N11 1_555 1_555
H55 C59 1_555 1_555
C60 N12 1_555 1_555
H56 C60 1_555 1_555
C61 N12 1_555 1_555
H57 C61 1_555 1_555
H58 C61 1_555 1_555
C62 C61 1_555 1_555
H59 C63 1_555 1_555
Ni12 N9 1_555 1_555
C52 C53 1_555 1_555
C55 C57 1_555 1_555
C59 C60 1_555 1_555
C62 C63 1_555 1_555
N6 C15 1_555 1_555
C15 N5 1_555 1_555
H15 C15 1_555 1_555
C16 N5 1_555 1_555
H16 C16 1_555 1_555
C17 N6 1_555 1_555
H17 C17 1_555 1_555
C18 N6 1_555 1_555
H18 C18 1_555 1_555
H19 C18 1_555 1_555
C19 C18 1_555 1_555
C20 C19 1_555 1_555
H20 C20 1_555 1_555
C16 C17 1_555 1_555
Ni1 O1 1_555 1_555
Ni2 O1 1_555 1_555
O1 C33 1_555 1_555
O2 Ni2 1_555 1_555
N1 Ni1 1_555 1_555
N3 Ni2 1_555 1_555
N4 C8 1_555 1_555
C8 N3 1_555 1_555
H8 C8 1_555 1_555
C9 N3 1_555 1_555
H9 C9 1_555 1_555
C10 N4 1_555 1_555
C11 N4 1_555 1_555
H11 C11 1_555 1_555
C12 C11 1_555 1_555
C14 C12 1_555 1_555
H14 C14 1_555 1_555
C33 O2 1_555 1_555
O22 Ni2 1_555 1_555
O24 Ni1 1_555 1_555
O26 Ni1 1_555 1_555
O28 Ni1 1_555 1_555
O29 Ni2 1_555 1_555
O31 Ni1 1_555 1_555
C9 C10 1_555 1_555
O26 C72 1_555 1_555
O28 C72 1_555 1_555
O17 C71 1_555 1_555
C68 C66 1_555 1_555
H62 C68 1_555 1_555
C69 C68 1_555 1_555
C70 C69 1_555 1_555
H63 C70 1_555 1_555
C72 C69 1_555 1_555
C70 C71 1_555 1_555
O3 C22 1_555 1_555
O4 C22 1_555 1_555
O29 C40 1_555 1_555
O31 C40 1_555 1_555
O10 C36 1_555 1_555
N2 C2 1_555 1_555
C2 C1 1_555 1_555
H2 C2 1_555 1_555
H3 C3 1_555 1_555
C4 N2 1_555 1_555
H4 C4 1_555 1_555
H5 C4 1_555 1_555
C5 C4 1_555 1_555
C6 C5 1_555 1_555
H6 C6 1_555 1_555
C7 C5 1_555 1_555
H7 C7 1_555 1_555
C24 H22 1_555 1_555
H25 C30 1_555 1_555
H26 C30 1_555 1_555
C31 C30 1_555 1_555
H27 C31 1_555 1_555
H28 C31 1_555 1_555
C32 C31 1_555 1_555
H29 C32 1_555 1_555
C35 C34 1_555 1_555
C36 C35 1_555 1_555
C37 C36 1_555 1_555
H32 C37 1_555 1_555
C38 C37 1_555 1_555
C39 C34 1_555 1_555
H33 C39 1_555 1_555
C40 C38 1_555 1_555
C41 O10 1_555 1_555
H34 C41 1_555 1_555
H35 C41 1_555 1_555
C42 C41 1_555 1_555
H36 C42 1_555 1_555
H37 C42 1_555 1_555
C43 C32 1_555 1_555
H38 C43 1_555 1_555
H39 C43 1_555 1_555
N8 C45 1_555 1_555
C45 C44 1_555 1_555
H41 C45 1_555 1_555
H42 C46 1_555 1_555
C47 N8 1_555 1_555
H43 C47 1_555 1_555
H44 C47 1_555 1_555
C48 C47 1_555 1_555
C49 C7 1_555 1_555
H45 C49 1_555 1_555
C50 C6 1_555 1_555
H46 C50 1_555 1_555
O22 C65 1_555 1_555
O24 C65 1_555 1_555
O18 C83 1_555 1_555
O19 C83 1_555 1_555
O20 C79 1_555 1_555
C67 H61 1_555 1_555
H64 C73 1_555 1_555
H65 C73 1_555 1_555
C74 C73 1_555 1_555
H66 C74 1_555 1_555
H67 C74 1_555 1_555
C75 C74 1_555 1_555
H68 C75 1_555 1_555
C78 C77 1_555 1_555
C79 C78 1_555 1_555
C80 C79 1_555 1_555
H71 C80 1_555 1_555
C81 C80 1_555 1_555
C82 C77 1_555 1_555
H72 C82 1_555 1_555
C83 C81 1_555 1_555
C84 O20 1_555 1_555
H73 C84 1_555 1_555
H74 C84 1_555 1_555
C85 C84 1_555 1_555
H75 C85 1_555 1_555
H76 C85 1_555 1_555
C86 C75 1_555 1_555
H77 C86 1_555 1_555
H78 C86 1_555 1_555
Ni8 O4 1_555 1_555
Ni12 O3 1_555 1_555
N2 C3 1_555 1_555
C38 C39 1_555 1_555
C42 C43 1_555 1_555
N8 C46 1_555 1_555
C48 C49 1_555 1_555
C48 C50 1_555 1_555
O18 Ni12 1_555 1_555
O19 Ni8 1_555 1_555
C81 C82 1_555 1_555
C85 C86 1_555 1_555
O5 C29 1_555 1_555
O6 C29 1_555 1_555
O7 C28 1_555 1_555
C25 C23 1_555 1_555
H23 C25 1_555 1_555
C26 C25 1_555 1_555
C27 C26 1_555 1_555
H24 C27 1_555 1_555
C29 C26 1_555 1_555
Ni8 O5 1_555 1_555
O6 Ni8 1_555 1_555
C27 C28 1_555 1_555
Ni8 N7 1_555 1_555
Ni12 O11 1_555 1_555
O11 Ni8 1_555 1_555
O12 Ni12 1_555 1_555
C76 O11 1_555 1_555
O12 C76 1_555 1_555
H21 C21 1_555 1_555
H52 C56 1_555 1_555
H60 C64 1_555 1_555
H13 C13 1_555 1_555

#END
