
###############################################################################
#
# This file contains modified crystal structure data generated from the
# MOF subset of the Cambridge Structural Database (CSD) v543 
# hosted by the Cambridge Crystallographic Data Centre (CCDC).
#
# This work is licensed under the Creative Commons
# Attribution-NonCommercial-ShareAlike 4.0 International License.
# To view a copy of this license, visit
# http://creativecommons.org/licenses/by-nc-sa/4.0/
# or send a letter to
# Creative Commons, PO Box 1866, Mountain View, CA 94042, USA.
#
# CIF created using the CSD Python API on 29 September 2022
# The structure has been converted into the P1 space group
# The structure has a 3D framework
# The original CSD entry JUPFOP is in the orthorhombic crystal system
# The framework has been calculated to contain at least 10.0% void space
# The void calculation uses a probe of radius 1.32A, grid spacing 0.4
# The framework is charged, counterions have been retained in the structure
#
###############################################################################

data_JUPFOP
_chemical_formula_moiety         '(C80 H144 Ag16 N32 O32)n'
_symmetry_cell_setting           triclinic
_symmetry_space_group_name_H-M   'P 1'
_symmetry_Int_Tables_number      1
_space_group_name_Hall           'P 1'
loop_
_symmetry_equiv_pos_site_id
_symmetry_equiv_pos_as_xyz
1 x,y,z
_cell_length_a                   22.7015(3)
_cell_length_b                   12.1200(2)
_cell_length_c                   12.9889(2)
_cell_angle_alpha                90
_cell_angle_beta                 90
_cell_angle_gamma                90
_cell_volume                     3573.79
loop_
_atom_site_label
_atom_site_type_symbol
_atom_site_fract_x
_atom_site_fract_y
_atom_site_fract_z
Ag1 Ag 0.058106(18) 0.50977(3) 0.04679(3)
O1 O 0.01205(19) 0.6814(3) 0.0795(3)
O2 O 0.0171(2) 0.3320(4) 0.0820(4)
H14 H 0.0128 0.8853 0.0102
C9 C 0.0078(2) 0.2780(5) 0.0012(5)
N6 N 0.11572(19) 0.5039(3) 0.2021(3)
Ag7 Ag 0.441894(18) 0.00977(3) 0.04679(3)
C16 C 0.0222(3) 0.1566(5) 0.0039(5)
H28 H 0.0369 0.1374 0.0708
Ag2 Ag 0.25157(2) 0.25008(4) 0.79954(5)
N1 N 0.11572(19) 0.4961(3) 0.7021(3)
N2 N 0.19059(19) 0.6004(4) 0.7966(3)
N3 N 0.11393(18) 0.4992(3) 0.8899(3)
N4 N 0.19128(18) 0.3979(4) 0.7988(3)
C1 C 0.1530(2) 0.5957(4) 0.7033(4)
H1 H 0.3221 0.0962 0.6425
H2 H 0.3718 0.1607 0.7009
C2 C 0.1516(2) 0.5987(4) 0.8875(4)
H3 H 0.1754 0.6011 0.9495
H4 H 0.1267 0.6638 0.8868
H6 H 0.4472 0.0616 0.7936
C5 C 0.2280(2) 0.4988(4) 0.7985(4)
C6 C 0.1526(2) 0.4000(4) 0.8912(4)
H11 H 0.1766 0.4007 0.9529
H12 H 0.1284 0.3339 0.8926
Ag4 Ag 0.058106(18) 0.49023(3) 0.54679(3)
Ag5 Ag 0.24843(2) 0.75008(4) 0.79954(5)
N7 N 0.30941(19) 0.1004(4) 0.7966(3)
C10 C 0.3470(2) 0.0957(4) 0.7033(4)
C11 C 0.3484(2) 0.0987(4) 0.8875(4)
H18 H 0.3246 0.1011 0.9495
H19 H 0.3733 0.1638 0.8868
C14 C 0.1541(2) 0.3975(4) 0.7055(4)
C15 C 0.0782(2) 0.4972(4) 0.7952(4)
H20 H 0.0533 0.4321 0.7954
H21 H 0.0528 0.5616 0.7936
H22 H 0.1790 0.3961 0.6448
H23 H 0.1299 0.3315 0.7049
H24 H 0.2526 0.4998 0.8595
H25 H 0.2535 0.4982 0.7386
H26 H 0.1779 0.5962 0.6425
H27 H 0.1282 0.6607 0.7009
H30 H 0.0515 0.1403 0.9528
C3 C 0.4218(2) 0.9972(4) 0.7952(4)
H5 H 0.4467 0.9321 0.7954
C4 C 0.3459(2) 0.8975(4) 0.7055(4)
H7 H 0.3210 0.8961 0.6448
H8 H 0.3701 0.8315 0.7049
H9 H 0.2474 0.9998 0.8595
H10 H 0.2465 0.9982 0.7386
N8 N 0.38428(19) 0.9961(3) 0.7021(3)
Ag6 Ag 0.441894(18) 0.99023(3) 0.54679(3)
N9 N 0.38607(18) 0.9992(3) 0.8899(3)
C12 C 0.2720(2) 0.9988(4) 0.7985(4)
N10 N 0.30872(18) 0.8979(4) 0.7988(3)
C13 C 0.3474(2) 0.9000(4) 0.8912(4)
H16 H 0.3234 0.9007 0.9529
H17 H 0.3716 0.8339 0.8926
H15 H 0.9485 0.8597 0.0472
N12 N 0.88607(18) 0.5008(3) 0.1101(3)
C7 C 0.9922(2) 0.7220(5) 0.9988(5)
C8 C 0.9778(3) 0.8434(5) 0.9961(5)
H13 H 0.9631 0.8626 0.9292
Ag3 Ag 0.941894(18) 0.49023(3) 0.95321(3)
O3 O 0.98795(19) 0.3186(3) 0.9205(3)
O4 O 0.9829(2) 0.6680(4) 0.9180(4)
N5 N 0.88428(19) 0.4961(3) 0.7979(3)
H29 H 0.9872 0.1147 0.9898
Ag1_2 Ag 0.558106(18) 0.00977(3) 0.45321(3)
O1_2 O 0.51205(19) 0.1814(3) 0.4205(3)
N2_2 N 0.69059(19) 0.1004(4) 0.7034(3)
C1_2 C 0.6530(2) 0.0957(4) 0.7967(4)
C2_2 C 0.6516(2) 0.0987(4) 0.6125(4)
H3_2 H 0.6754 0.1011 0.5505
H4_2 H 0.6267 0.1638 0.6132
C7_2 C 0.4922(2) 0.2220(5) 0.5012(5)
C8_2 C 0.4778(3) 0.3434(5) 0.5039(5)
H13_2 H 0.4631 0.3626 0.5708
H14_2 H 0.5128 0.3853 0.4898
H15_2 H 0.4485 0.3597 0.4528
O4_2 O 0.4829(2) 0.1680(4) 0.5820(4)
N6_2 N 0.61572(19) 0.0039(3) 0.2979(3)
Ag5_2 Ag 0.74843(2) 0.25008(4) 0.70046(5)
H21_2 H 0.5528 0.0616 0.7064
H26_2 H 0.6779 0.0962 0.8575
H27_2 H 0.6282 0.1607 0.7991
N12_2 N 0.38607(18) 0.0008(3) 0.3899(3)
Ag2_2 Ag 0.75157(2) 0.75008(4) 0.70046(5)
O2_2 O 0.5171(2) 0.8320(4) 0.4180(4)
N1_2 N 0.61572(19) 0.9961(3) 0.7979(3)
N3_2 N 0.61393(18) 0.9992(3) 0.6101(3)
N4_2 N 0.69128(18) 0.8979(4) 0.7012(3)
H1_2 H 0.8221 0.5962 0.8575
H2_2 H 0.8718 0.6607 0.7991
C3_2 C 0.9218(2) 0.4972(4) 0.7048(4)
H5_2 H 0.9467 0.4321 0.7046
H6_2 H 0.9472 0.5616 0.7064
C4_2 C 0.8459(2) 0.3975(4) 0.7945(4)
H7_2 H 0.8210 0.3961 0.8552
H8_2 H 0.8701 0.3315 0.7951
C5_2 C 0.7280(2) 0.9988(4) 0.7015(4)
H9_2 H 0.7474 0.4998 0.6405
H10_2 H 0.7465 0.4982 0.7614
C6_2 C 0.6526(2) 0.9000(4) 0.6088(4)
H11_2 H 0.6766 0.9007 0.5471
H12_2 H 0.6284 0.8339 0.6074
O3_2 O 0.48795(19) 0.8186(3) 0.5795(3)
C9_2 C 0.5078(2) 0.7780(5) 0.4988(5)
Ag4_2 Ag 0.558106(18) 0.99023(3) 0.95321(3)
N7_2 N 0.80941(19) 0.6004(4) 0.7034(3)
C10_2 C 0.8470(2) 0.5957(4) 0.7967(4)
N9_2 N 0.88607(18) 0.4992(3) 0.6101(3)
Ag7_2 Ag 0.941894(18) 0.50977(3) 0.45321(3)
C11_2 C 0.8484(2) 0.5987(4) 0.6125(4)
C12_2 C 0.7720(2) 0.4988(4) 0.7015(4)
N10_2 N 0.80872(18) 0.3979(4) 0.7012(3)
C13_2 C 0.8474(2) 0.4000(4) 0.6088(4)
H16_2 H 0.8234 0.4007 0.5471
H17_2 H 0.8716 0.3339 0.6074
H18_2 H 0.8246 0.6011 0.5505
H19_2 H 0.8733 0.6638 0.6132
C14_2 C 0.6541(2) 0.8975(4) 0.7945(4)
C15_2 C 0.5782(2) 0.9972(4) 0.7048(4)
H20_2 H 0.5533 0.9321 0.7046
H22_2 H 0.6790 0.8961 0.8552
H23_2 H 0.6299 0.8315 0.7951
H24_2 H 0.7526 0.9998 0.6405
H25_2 H 0.7535 0.9982 0.7614
C16_2 C 0.5222(3) 0.6566(5) 0.4961(5)
H28_2 H 0.5369 0.6374 0.4292
H29_2 H 0.4872 0.6147 0.5102
H30_2 H 0.5515 0.6403 0.5472
C3_3 C 0.4218(2) 0.0028(4) 0.2952(4)
H5_3 H 0.4467 0.0679 0.2954
C4_3 C 0.3459(2) 0.1025(4) 0.2055(4)
H7_3 H 0.3210 0.1039 0.1448
H8_3 H 0.3701 0.1685 0.2049
H9_3 H 0.2474 0.0002 0.3595
H10_3 H 0.2465 0.0018 0.2386
N8_2 N 0.38428(19) 0.0039(3) 0.2021(3)
C12_3 C 0.2720(2) 0.0012(4) 0.2985(4)
N10_3 N 0.30872(18) 0.1021(4) 0.2988(3)
Ag8 Ag 0.24843(2) 0.24992(4) 0.29954(5)
N11 N 0.19059(19) 0.3996(4) 0.2966(3)
C13_3 C 0.3474(2) 0.1000(4) 0.3912(4)
H16_3 H 0.3234 0.0993 0.4529
H17_3 H 0.3716 0.1661 0.3926
Ag2_3 Ag 0.25157(2) 0.74992(4) 0.29954(5)
O1_3 O 0.01205(19) 0.3186(3) 0.5795(3)
O2_3 O 0.0171(2) 0.6680(4) 0.5820(4)
N3_3 N 0.11393(18) 0.5008(3) 0.3899(3)
N4_3 N 0.19128(18) 0.6021(4) 0.2988(3)
C1_3 C 0.1530(2) 0.4043(4) 0.2033(4)
H1_3 H 0.3221 0.9038 0.1425
H2_3 H 0.3718 0.8393 0.2009
C2_3 C 0.1516(2) 0.4013(4) 0.3875(4)
H3_3 H 0.1754 0.3989 0.4495
H4_3 H 0.1267 0.3362 0.3868
H6_3 H 0.4472 0.9384 0.2936
C5_3 C 0.2280(2) 0.5012(4) 0.2985(4)
C6_3 C 0.1526(2) 0.6000(4) 0.3912(4)
H11_3 H 0.1766 0.5993 0.4529
H12_3 H 0.1284 0.6661 0.3926
H14_3 H 0.0128 0.1147 0.5102
C9_3 C 0.0078(2) 0.7220(5) 0.5012(5)
N7_3 N 0.30941(19) 0.8996(4) 0.2966(3)
C10_3 C 0.3470(2) 0.9043(4) 0.2033(4)
C11_3 C 0.3484(2) 0.9013(4) 0.3875(4)
H18_3 H 0.3246 0.8989 0.4495
H19_3 H 0.3733 0.8362 0.3868
C14_3 C 0.1541(2) 0.6025(4) 0.2055(4)
C15_3 C 0.0782(2) 0.5028(4) 0.2952(4)
H20_3 H 0.0533 0.5679 0.2954
H21_3 H 0.0528 0.4384 0.2936
H22_3 H 0.1790 0.6039 0.1448
H23_3 H 0.1299 0.6685 0.2049
H24_3 H 0.2526 0.5002 0.3595
H25_3 H 0.2535 0.5018 0.2386
H26_3 H 0.1779 0.4038 0.1425
H27_3 H 0.1282 0.3393 0.2009
C16_3 C 0.0222(3) 0.8434(5) 0.5039(5)
H28_3 H 0.0369 0.8626 0.5708
H30_3 H 0.0515 0.8597 0.4528
C7_3 C 0.9922(2) 0.2780(5) 0.4988(5)
C8_3 C 0.9778(3) 0.1566(5) 0.4961(5)
H13_3 H 0.9631 0.1374 0.4292
H15_3 H 0.9485 0.1403 0.5472
O3_3 O 0.98795(19) 0.6814(3) 0.4205(3)
O4_3 O 0.9829(2) 0.3320(4) 0.4180(4)
N5_2 N 0.88428(19) 0.5039(3) 0.2979(3)
H29_3 H 0.9872 0.8853 0.4898
O1_4 O 0.48795(19) 0.1814(3) 0.0795(3)
H14_4 H 0.4872 0.3853 0.0102
H15_4 H 0.5515 0.3597 0.0472
N12_3 N 0.61393(18) 0.0008(3) 0.1101(3)
C7_4 C 0.5078(2) 0.2220(5) 0.9988(5)
C8_4 C 0.5222(3) 0.3434(5) 0.9961(5)
H13_4 H 0.5369 0.3626 0.9292
O4_4 O 0.5171(2) 0.1680(4) 0.9180(4)
O2_4 O 0.4829(2) 0.8320(4) 0.0820(4)
C9_4 C 0.4922(2) 0.7780(5) 0.0012(5)
C16_4 C 0.4778(3) 0.6566(5) 0.0039(5)
H28_4 H 0.4631 0.6374 0.0708
O3_4 O 0.51205(19) 0.8186(3) 0.9205(3)
H29_4 H 0.5128 0.6147 0.9898
H30_4 H 0.4485 0.6403 0.9528
C3_4 C 0.5782(2) 0.0028(4) 0.2048(4)
H5_4 H 0.5533 0.0679 0.2046
C4_4 C 0.6541(2) 0.1025(4) 0.2945(4)
H7_4 H 0.6790 0.1039 0.3552
H8_4 H 0.6299 0.1685 0.2951
H9_4 H 0.7526 0.0002 0.1405
H10_4 H 0.7535 0.0018 0.2614
C12_4 C 0.7280(2) 0.0012(4) 0.2015(4)
N10_4 N 0.69128(18) 0.1021(4) 0.2012(3)
Ag8_2 Ag 0.75157(2) 0.24992(4) 0.20046(5)
N11_2 N 0.80941(19) 0.3996(4) 0.2034(3)
C13_4 C 0.6526(2) 0.1000(4) 0.1088(4)
H16_4 H 0.6766 0.0993 0.0471
H17_4 H 0.6284 0.1661 0.1074
Ag2_4 Ag 0.74843(2) 0.74992(4) 0.20046(5)
N4_4 N 0.80872(18) 0.6021(4) 0.2012(3)
C1_4 C 0.8470(2) 0.4043(4) 0.2967(4)
H1_4 H 0.6779 0.9038 0.3575
H2_4 H 0.6282 0.8393 0.2991
C2_4 C 0.8484(2) 0.4013(4) 0.1125(4)
H3_4 H 0.8246 0.3989 0.0505
H4_4 H 0.8733 0.3362 0.1132
H6_4 H 0.5528 0.9384 0.2064
C5_4 C 0.7720(2) 0.5012(4) 0.2015(4)
C6_4 C 0.8474(2) 0.6000(4) 0.1088(4)
H11_4 H 0.8234 0.5993 0.0471
H12_4 H 0.8716 0.6661 0.1074
N7_4 N 0.69059(19) 0.8996(4) 0.2034(3)
C10_4 C 0.6530(2) 0.9043(4) 0.2967(4)
C11_4 C 0.6516(2) 0.9013(4) 0.1125(4)
H18_4 H 0.6754 0.8989 0.0505
H19_4 H 0.6267 0.8362 0.1132
C14_4 C 0.8459(2) 0.6025(4) 0.2945(4)
C15_4 C 0.9218(2) 0.5028(4) 0.2048(4)
H20_4 H 0.9467 0.5679 0.2046
H21_4 H 0.9472 0.4384 0.2064
H22_4 H 0.8210 0.6039 0.3552
H23_4 H 0.8701 0.6685 0.2951
H24_4 H 0.7474 0.5002 0.1405
H25_4 H 0.7465 0.5018 0.2614
H26_4 H 0.8221 0.4038 0.3575
H27_4 H 0.8718 0.3393 0.2991
C17 C 0.2978(3) 0.6310(6) 0.5431(6)
C18 C 0.3625(3) 0.6194(7) 0.5367(7)
H31 H 0.3731 0.5435 0.5473
H32 H 0.3807 0.6642 0.5886
H33 H 0.3758 0.6427 0.4699
O5 O 0.2662(2) 0.5434(4) 0.5480(4)
O6 O 0.2753(3) 0.7203(5) 0.5321(10)
H33_2 H 0.8758 0.1427 0.0301
C17_2 C 0.7978(3) 0.1310(6) 0.9569(6)
C18_2 C 0.8625(3) 0.1194(7) 0.9633(7)
H31_2 H 0.8731 0.0435 0.9527
H32_2 H 0.8807 0.1642 0.9114
O5_2 O 0.7662(2) 0.0434(4) 0.9520(4)
O6_2 O 0.7753(3) 0.2203(5) 0.9679(10)
C17_3 C 0.2978(3) 0.3690(6) 0.0431(6)
C18_3 C 0.3625(3) 0.3806(7) 0.0367(7)
H31_3 H 0.3731 0.4565 0.0473
H32_3 H 0.3807 0.3358 0.0886
O5_3 O 0.2662(2) 0.4566(4) 0.0480(4)
O6_3 O 0.2753(3) 0.2797(5) 0.0321(10)
H33_3 H 0.3758 0.3573 0.9699
C17_4 C 0.2022(3) 0.1310(6) 0.5431(6)
C18_4 C 0.1375(3) 0.1194(7) 0.5367(7)
H31_4 H 0.1269 0.0435 0.5473
H32_4 H 0.1193 0.1642 0.5886
H33_4 H 0.1242 0.1427 0.4699
O5_4 O 0.2338(2) 0.0434(4) 0.5480(4)
O6_4 O 0.2247(3) 0.2203(5) 0.5321(10)
C17_5 C 0.7022(3) 0.3690(6) 0.4569(6)
C18_5 C 0.6375(3) 0.3806(7) 0.4633(7)
H31_5 H 0.6269 0.4565 0.4527
H32_5 H 0.6193 0.3358 0.4114
H33_5 H 0.6242 0.3573 0.5301
O5_5 O 0.7338(2) 0.4566(4) 0.4520(4)
O6_5 O 0.7247(3) 0.2797(5) 0.4679(10)
C17_6 C 0.2022(3) 0.8690(6) 0.0431(6)
C18_6 C 0.1375(3) 0.8806(7) 0.0367(7)
H31_6 H 0.1269 0.9565 0.0473
H32_6 H 0.1193 0.8358 0.0886
O5_6 O 0.2338(2) 0.9566(4) 0.0480(4)
O6_6 O 0.2247(3) 0.7797(5) 0.0321(10)
H33_6 H 0.1242 0.8573 0.9699
H33_7 H 0.6242 0.6427 0.0301
C17_7 C 0.7022(3) 0.6310(6) 0.9569(6)
C18_7 C 0.6375(3) 0.6194(7) 0.9633(7)
H31_7 H 0.6269 0.5435 0.9527
H32_7 H 0.6193 0.6642 0.9114
O5_7 O 0.7338(2) 0.5434(4) 0.9520(4)
O6_7 O 0.7247(3) 0.7203(5) 0.9679(10)
C17_8 C 0.7978(3) 0.8690(6) 0.4569(6)
C18_8 C 0.8625(3) 0.8806(7) 0.4633(7)
H31_8 H 0.8731 0.9565 0.4527
H32_8 H 0.8807 0.8358 0.4114
H33_8 H 0.8758 0.8573 0.5301
O5_8 O 0.7662(2) 0.9566(4) 0.4520(4)
O6_8 O 0.7753(3) 0.7797(5) 0.4679(10)
loop_
_geom_bond_atom_site_label_1
_geom_bond_atom_site_label_2
_geom_bond_site_symmetry_1
_geom_bond_site_symmetry_2
Ag1 O1 1_555 1_555
O2 Ag1 1_555 1_555
C9 O2 1_555 1_555
N6 Ag1 1_555 1_555
C16 C9 1_555 1_555
H28 C16 1_555 1_555
Ag2 N4 1_555 1_555
N1 C1 1_555 1_555
N2 C1 1_555 1_555
N4 C5 1_555 1_555
C1 H26 1_555 1_555
H1 C10 1_555 1_555
H2 C10 1_555 1_555
C2 N2 1_555 1_555
H3 C2 1_555 1_555
H4 C2 1_555 1_555
C5 N2 1_555 1_555
C6 N3 1_555 1_555
H11 C6 1_555 1_555
H12 C6 1_555 1_555
Ag4 N1 1_555 1_555
Ag5 N2 1_555 1_555
N7 Ag2 1_555 1_555
C10 N7 1_555 1_555
C11 N7 1_555 1_555
H18 C11 1_555 1_555
H19 C11 1_555 1_555
C14 N1 1_555 1_555
C15 N1 1_555 1_555
H20 C15 1_555 1_555
H21 C15 1_555 1_555
H22 C14 1_555 1_555
H23 C14 1_555 1_555
H24 C5 1_555 1_555
H25 C5 1_555 1_555
H27 C1 1_555 1_555
N3 C2 1_555 1_555
N3 C15 1_555 1_555
N4 C6 1_555 1_555
N4 C14 1_555 1_555
C3 H5 1_555 1_555
C4 H7 1_555 1_555
H8 C4 1_555 1_555
H9 C12 1_555 1_555
H10 C12 1_555 1_555
N8 C3 1_555 1_555
Ag6 N8 1_555 1_555
N9 C3 1_555 1_555
N10 C4 1_555 1_555
Ag5 N10 1_555 1_555
C13 N9 1_555 1_555
H16 C13 1_555 1_555
H17 C13 1_555 1_555
C4 N8 1_555 1_555
C12 N10 1_555 1_555
N10 C13 1_555 1_555
C7 C8 1_555 1_555
C8 H13 1_555 1_555
O3 Ag3 1_555 1_555
O4 C7 1_555 1_555
N5 Ag3 1_555 1_555
Ag3 O4 1_555 1_555
Ag1_2 O1_2 1_555 1_555
O1_2 C7_2 1_555 1_555
N2_2 C1_2 1_555 1_555
C1_2 H26_2 1_555 1_555
C2_2 N2_2 1_555 1_555
H3_2 C2_2 1_555 1_555
H4_2 C2_2 1_555 1_555
C7_2 C8_2 1_555 1_555
C8_2 H13_2 1_555 1_555
H14_2 C8_2 1_555 1_555
H15_2 C8_2 1_555 1_555
O4_2 C7_2 1_555 1_555
N6_2 Ag1_2 1_555 1_555
Ag5_2 N2_2 1_555 1_555
H27_2 C1_2 1_555 1_555
Ag2_2 N4_2 1_555 1_555
N4_2 C5_2 1_555 1_555
H1_2 C10_2 1_555 1_555
H2_2 C10_2 1_555 1_555
C3_2 H5_2 1_555 1_555
H6_2 C3_2 1_555 1_555
C4_2 H7_2 1_555 1_555
H8_2 C4_2 1_555 1_555
H9_2 C12_2 1_555 1_555
H10_2 C12_2 1_555 1_555
C6_2 N3_2 1_555 1_555
H11_2 C6_2 1_555 1_555
H12_2 C6_2 1_555 1_555
O3_2 Ag6 1_555 1_555
C9_2 O2_2 1_555 1_555
Ag4_2 N1_2 1_555 1_555
N7_2 Ag2_2 1_555 1_555
C10_2 N7_2 1_555 1_555
N5 C3_2 1_555 1_555
N9_2 C3_2 1_555 1_555
Ag7_2 N9_2 1_555 1_555
C11_2 N7_2 1_555 1_555
C12_2 N7_2 1_555 1_555
N10_2 C4_2 1_555 1_555
Ag5_2 N10_2 1_555 1_555
C13_2 N9_2 1_555 1_555
H16_2 C13_2 1_555 1_555
H17_2 C13_2 1_555 1_555
H18_2 C11_2 1_555 1_555
H19_2 C11_2 1_555 1_555
C14_2 N1_2 1_555 1_555
C15_2 N1_2 1_555 1_555
H20_2 C15_2 1_555 1_555
H22_2 C14_2 1_555 1_555
H23_2 C14_2 1_555 1_555
H24_2 C5_2 1_555 1_555
H25_2 C5_2 1_555 1_555
C16_2 C9_2 1_555 1_555
H28_2 C16_2 1_555 1_555
H29_2 C16_2 1_555 1_555
H30_2 C16_2 1_555 1_555
N3_2 C15_2 1_555 1_555
N4_2 C6_2 1_555 1_555
N4_2 C14_2 1_555 1_555
C4_2 N5 1_555 1_555
O3_2 C9_2 1_555 1_555
C10_2 N5 1_555 1_555
N9_2 C11_2 1_555 1_555
C12_2 N10_2 1_555 1_555
N10_2 C13_2 1_555 1_555
C3_3 H5_3 1_555 1_555
C4_3 H7_3 1_555 1_555
H8_3 C4_3 1_555 1_555
H9_3 C12_3 1_555 1_555
H10_3 C12_3 1_555 1_555
N8_2 C3_3 1_555 1_555
Ag7 N8_2 1_555 1_555
N12_2 C3_3 1_555 1_555
N10_3 C4_3 1_555 1_555
Ag8 N10_3 1_555 1_555
N11 Ag8 1_555 1_555
C13_3 N12_2 1_555 1_555
H16_3 C13_3 1_555 1_555
H17_3 C13_3 1_555 1_555
C4_3 N8_2 1_555 1_555
C12_3 N10_3 1_555 1_555
N10_3 C13_3 1_555 1_555
Ag4 O1_3 1_555 1_555
Ag2_3 N4_3 1_555 1_555
O2_3 Ag4 1_555 1_555
N6 C1_3 1_555 1_555
N11 C1_3 1_555 1_555
N3_3 Ag4 1_555 1_555
N4_3 C5_3 1_555 1_555
C1_3 H26_3 1_555 1_555
H1_3 C10_3 1_555 1_555
H2_3 C10_3 1_555 1_555
C2_3 N11 1_555 1_555
H3_3 C2_3 1_555 1_555
H4_3 C2_3 1_555 1_555
C5_3 N11 1_555 1_555
C6_3 N3_3 1_555 1_555
H11_3 C6_3 1_555 1_555
H12_3 C6_3 1_555 1_555
C9_3 O2_3 1_555 1_555
N7_3 Ag2_3 1_555 1_555
C10_3 N7_3 1_555 1_555
C11_3 N7_3 1_555 1_555
H18_3 C11_3 1_555 1_555
H19_3 C11_3 1_555 1_555
C14_3 N6 1_555 1_555
C15_3 N6 1_555 1_555
H20_3 C15_3 1_555 1_555
H21_3 C15_3 1_555 1_555
H22_3 C14_3 1_555 1_555
H23_3 C14_3 1_555 1_555
H24_3 C5_3 1_555 1_555
H25_3 C5_3 1_555 1_555
H27_3 C1_3 1_555 1_555
C16_3 C9_3 1_555 1_555
H28_3 C16_3 1_555 1_555
H30_3 C16_3 1_555 1_555
N3_3 C2_3 1_555 1_555
N3_3 C15_3 1_555 1_555
N4_3 C6_3 1_555 1_555
N4_3 C14_3 1_555 1_555
C7_3 C8_3 1_555 1_555
C8_3 H13_3 1_555 1_555
H15_3 C8_3 1_555 1_555
O3_3 Ag7_2 1_555 1_555
O4_3 C7_3 1_555 1_555
N5_2 Ag7_2 1_555 1_555
Ag7_2 O4_3 1_555 1_555
Ag7 O1_4 1_555 1_555
C7_4 C8_4 1_555 1_555
C8_4 H13_4 1_555 1_555
O4_4 C7_4 1_555 1_555
C9_4 O2_4 1_555 1_555
C16_4 C9_4 1_555 1_555
H28_4 C16_4 1_555 1_555
O3_4 Ag4_2 1_555 1_555
C3_4 H5_4 1_555 1_555
C4_4 H7_4 1_555 1_555
H8_4 C4_4 1_555 1_555
H9_4 C12_4 1_555 1_555
H10_4 C12_4 1_555 1_555
N6_2 C3_4 1_555 1_555
N12_3 C3_4 1_555 1_555
N10_4 C4_4 1_555 1_555
Ag8_2 N10_4 1_555 1_555
N11_2 Ag8_2 1_555 1_555
C13_4 N12_3 1_555 1_555
H16_4 C13_4 1_555 1_555
H17_4 C13_4 1_555 1_555
C4_4 N6_2 1_555 1_555
C12_4 N10_4 1_555 1_555
N10_4 C13_4 1_555 1_555
Ag2_4 N4_4 1_555 1_555
N5_2 C1_4 1_555 1_555
N11_2 C1_4 1_555 1_555
N4_4 C5_4 1_555 1_555
C1_4 H26_4 1_555 1_555
H1_4 C10_4 1_555 1_555
H2_4 C10_4 1_555 1_555
C2_4 N11_2 1_555 1_555
H3_4 C2_4 1_555 1_555
H4_4 C2_4 1_555 1_555
C5_4 N11_2 1_555 1_555
C6_4 N12 1_555 1_555
H11_4 C6_4 1_555 1_555
H12_4 C6_4 1_555 1_555
N7_4 Ag2_4 1_555 1_555
C10_4 N7_4 1_555 1_555
C11_4 N7_4 1_555 1_555
H18_4 C11_4 1_555 1_555
H19_4 C11_4 1_555 1_555
C14_4 N5_2 1_555 1_555
C15_4 N5_2 1_555 1_555
H20_4 C15_4 1_555 1_555
H21_4 C15_4 1_555 1_555
H22_4 C14_4 1_555 1_555
H23_4 C14_4 1_555 1_555
H24_4 C5_4 1_555 1_555
H25_4 C5_4 1_555 1_555
H27_4 C1_4 1_555 1_555
N12 C2_4 1_555 1_555
N12 C15_4 1_555 1_555
N4_4 C6_4 1_555 1_555
N4_4 C14_4 1_555 1_555
C17 C18 1_555 1_555
C18 H31 1_555 1_555
H32 C18 1_555 1_555
H33 C18 1_555 1_555
O5 C17 1_555 1_555
O6 C17 1_555 1_555
C17_2 C18_2 1_555 1_555
C18_2 H31_2 1_555 1_555
H32_2 C18_2 1_555 1_555
O5_2 C17_2 1_555 1_555
O6_2 C17_2 1_555 1_555
C17_3 C18_3 1_555 1_555
C18_3 H31_3 1_555 1_555
H32_3 C18_3 1_555 1_555
O5_3 C17_3 1_555 1_555
O6_3 C17_3 1_555 1_555
C17_4 C18_4 1_555 1_555
C18_4 H31_4 1_555 1_555
H32_4 C18_4 1_555 1_555
H33_4 C18_4 1_555 1_555
O5_4 C17_4 1_555 1_555
O6_4 C17_4 1_555 1_555
C17_5 C18_5 1_555 1_555
C18_5 H31_5 1_555 1_555
H32_5 C18_5 1_555 1_555
H33_5 C18_5 1_555 1_555
O5_5 C17_5 1_555 1_555
O6_5 C17_5 1_555 1_555
C17_6 C18_6 1_555 1_555
C18_6 H31_6 1_555 1_555
H32_6 C18_6 1_555 1_555
O5_6 C17_6 1_555 1_555
O6_6 C17_6 1_555 1_555
C17_7 C18_7 1_555 1_555
C18_7 H31_7 1_555 1_555
H32_7 C18_7 1_555 1_555
O5_7 C17_7 1_555 1_555
O6_7 C17_7 1_555 1_555
C17_8 C18_8 1_555 1_555
C18_8 H31_8 1_555 1_555
H32_8 C18_8 1_555 1_555
H33_8 C18_8 1_555 1_555
O5_8 C17_8 1_555 1_555
O6_8 C17_8 1_555 1_555

#END
