
###############################################################################
#
# This file contains modified crystal structure data generated from the
# MOF subset of the Cambridge Structural Database (CSD) v543 
# hosted by the Cambridge Crystallographic Data Centre (CCDC).
#
# This work is licensed under the Creative Commons
# Attribution-NonCommercial-ShareAlike 4.0 International License.
# To view a copy of this license, visit
# http://creativecommons.org/licenses/by-nc-sa/4.0/
# or send a letter to
# Creative Commons, PO Box 1866, Mountain View, CA 94042, USA.
#
# CIF created using the CSD Python API on 29 September 2022
# The structure has been converted into the P1 space group
# The structure has a 3D framework
# The original CSD entry JURKIS is in the monoclinic crystal system
# The framework has been calculated to contain at least 10.0% void space
# The void calculation uses a probe of radius 1.32A, grid spacing 0.4
# H atom positions have been added when not included in the experimental data
#
###############################################################################

data_JURKIS
_chemical_formula_moiety         '(C236 H228 Mn6 N4 O60)n'
_symmetry_cell_setting           triclinic
_symmetry_space_group_name_H-M   'P 1'
_symmetry_Int_Tables_number      1
_space_group_name_Hall           'P 1'
loop_
_symmetry_equiv_pos_site_id
_symmetry_equiv_pos_as_xyz
1 x,y,z
_cell_length_a                   19.6786(11)
_cell_length_b                   22.7703(13)
_cell_length_c                   14.8344(9)
_cell_angle_alpha                90
_cell_angle_beta                 104.1470(10)
_cell_angle_gamma                90
_cell_volume                     6445.52
loop_
_atom_site_label
_atom_site_type_symbol
_atom_site_fract_x
_atom_site_fract_y
_atom_site_fract_z
Mn6 Mn 0.03055(3) 0.93038(3) 0.03378(5)
Mn8 Mn 0.05714(4) 0.93931(5) 0.28814(6)
O7 O 0.93947(17) 0.90900(16) 0.0817(3)
O8 O 0.9524(2) 0.9356(3) 0.2273(3)
O9 O 0.09510(18) 0.89191(17) 0.1597(3)
O10 O 0.1579(3) 0.8933(2) 0.3032(3)
O11 O 0.19978(18) 0.83328(17) 0.1058(3)
O14 O 0.80262(18) 0.89089(19) 0.0637(3)
N1 N 0.1440(5) 0.4561(6) 0.0228(6)
C25 C 0.4920(2) 0.7780(2) 0.0009(3)
H16 H 0.4931 0.8136 0.0318
C28 C 0.3694(2) 0.7671(2) 0.0176(3)
C29 C 0.3695(3) 0.7611(3) 0.1099(4)
C30 C 0.4298(4) 0.7319(4) 0.1770(5)
H20 H 0.4233 0.7349 0.2390
H21 H 0.4728 0.7508 0.1742
H22 H 0.4317 0.6912 0.1607
C31 C 0.3134(3) 0.7833(3) 0.1420(4)
H23 H 0.3139 0.7808 0.2047
C32 C 0.2570(3) 0.8092(2) 0.0801(4)
C35 C 0.2050(3) 0.8375(3) 0.2015(4)
H25 H 0.2507 0.8528 0.2325
H26 H 0.2002 0.7988 0.2265
C36 C 0.1482(3) 0.8779(2) 0.2202(4)
C37 C 0.6165(2) 0.7960(2) 0.0001(3)
C40 C 0.7413(3) 0.8598(2) 0.0495(4)
C41 C 0.7227(3) 0.8235(2) 0.1139(4)
H28 H 0.7518 0.8204 0.1734
C42 C 0.6605(3) 0.7912(2) 0.0902(4)
C43 C 0.6418(3) 0.7522(3) 0.1624(4)
H29 H 0.6830 0.7447 0.2110
H30 H 0.6233 0.7158 0.1343
H31 H 0.6073 0.7714 0.1879
C45 C 0.8460(3) 0.8926(3) 0.1545(4)
H35 H 0.8489 0.8537 0.1819
H36 H 0.8259 0.9189 0.1925
C46 C 0.9197(3) 0.9140(3) 0.1527(4)
C58 C 0.1997(6) 0.4173(7) 0.0464(7)
H48 H 0.2067 0.4060 0.1103
H49 H 0.2414 0.4360 0.0376
H50 H 0.1898 0.3831 0.0076
C59 C 0.1080(6) 0.4645(7) 0.0924(7)
H51 H 0.0691 0.4379 0.0829
H52 H 0.0912 0.5042 0.0899
H53 H 0.1392 0.4573 0.1521
Mn1 Mn 0.03055(3) 0.56962(3) 0.53378(5)
Mn2 Mn 0.05714(4) 0.56069(5) 0.78814(6)
O1 O 0.03715(16) 0.47835(14) 0.5864(2)
O2 O 0.09472(19) 0.48328(17) 0.7361(3)
O3 O 0.17863(18) 0.39166(16) 0.7226(3)
O4 O 0.87964(17) 0.45045(16) 0.5164(3)
O5 O 0.8917(2) 0.3930(3) 0.6413(3)
O6 O 0.78568(19) 0.4509(2) 0.6907(3)
O12 O 0.02186(18) 0.65268(16) 0.4568(3)
O13 O 0.0774(4) 0.5311(5) 0.9227(5)
C1 C 0.0822(2) 0.4597(2) 0.6582(4)
C2 C 0.1223(3) 0.4054(2) 0.6429(4)
H1 H 0.0903 0.3723 0.6297
H2 H 0.1415 0.4114 0.5893
C3 C 0.2367(2) 0.4261(2) 0.7374(4)
C4 C 0.2908(2) 0.4105(2) 0.8133(4)
H3 H 0.2850 0.3788 0.8503
C5 C 0.3532(2) 0.4418(2) 0.8344(3)
C6 C 0.3611(2) 0.48931(19) 0.7777(3)
C7 C 0.3071(2) 0.5042(2) 0.7022(3)
C8 C 0.2446(2) 0.4734(2) 0.6815(3)
H4 H 0.2084 0.4841 0.6311
C9 C 0.3156(3) 0.5536(3) 0.6372(4)
H5 H 0.2702 0.5665 0.6027
H6 H 0.3419 0.5398 0.5948
H7 H 0.3399 0.5858 0.6728
C10 C 0.4116(2) 0.4227(2) 0.9142(3)
H8 H 0.4331 0.4565 0.9480
H9 H 0.4459 0.4014 0.8910
H10 H 0.3932 0.3977 0.9548
C11 C 0.4262(2) 0.52635(19) 0.7996(3)
C12 C 0.4857(2) 0.5082(2) 0.7746(3)
H11 H 0.4851 0.4720 0.7455
C13 C 0.5467(2) 0.5412(2) 0.7904(3)
C14 C 0.5483(2) 0.5967(2) 0.8332(3)
C15 C 0.4881(2) 0.61630(19) 0.8612(3)
C16 C 0.4266(2) 0.58052(19) 0.8442(3)
C17 C 0.3669(2) 0.6016(2) 0.8744(3)
H12 H 0.3265 0.5787 0.8635
C18 C 0.3679(2) 0.6541(2) 0.9186(3)
H13 H 0.3284 0.6663 0.9374
C19 C 0.4288(2) 0.69103(19) 0.9367(3)
C20 C 0.4887(2) 0.6716(2) 0.9081(3)
C21 C 0.5506(2) 0.7069(2) 0.9257(3)
C22 C 0.6097(2) 0.6860(2) 0.8952(3)
H14 H 0.6502 0.7087 0.9061
C23 C 0.6083(2) 0.6339(2) 0.8507(3)
H15 H 0.6475 0.6221 0.8310
C24 C 0.5515(2) 0.7604(2) 0.9743(3)
C26 C 0.4306(2) 0.7449(2) 0.9840(3)
C27 C 0.3117(4) 0.8052(4) 0.8563(5)
H17 H 0.2653 0.8163 0.8231
H18 H 0.3251 0.7698 0.8302
H19 H 0.3440 0.8361 0.8515
C33 C 0.2575(3) 0.8153(2) 0.9896(4)
H24 H 0.2198 0.8333 0.9488
C34 C 0.3131(3) 0.7952(2) 0.9570(4)
C38 C 0.6349(2) 0.8343(2) 0.9359(3)
C39 C 0.6971(3) 0.8655(2) 0.9610(4)
H27 H 0.7095 0.8906 0.9182
C44 C 0.5871(3) 0.8428(2) 0.8415(4)
H32 H 0.6049 0.8737 0.8097
H33 H 0.5411 0.8531 0.8477
H34 H 0.5846 0.8071 0.8065
C47 C 0.6094(2) 0.5182(2) 0.7618(3)
C48 C 0.6194(2) 0.5307(2) 0.6738(3)
C49 C 0.6783(2) 0.5082(2) 0.6480(3)
H37 H 0.6852 0.5166 0.5896
C50 C 0.7260(3) 0.4736(2) 0.7089(4)
C51 C 0.7154(3) 0.4612(3) 0.7947(4)
H38 H 0.7474 0.4374 0.8350
C52 C 0.6581(3) 0.4831(3) 0.8230(4)
C53 C 0.6485(4) 0.4685(4) 0.9176(5)
H39 H 0.6881 0.4464 0.9514
H40 H 0.6066 0.4457 0.9114
H41 H 0.6446 0.5042 0.9505
C54 C 0.5676(3) 0.5671(3) 0.6071(4)
H42 H 0.5820 0.5709 0.5501
H43 H 0.5649 0.6054 0.6333
H44 H 0.5224 0.5487 0.5950
C55 C 0.7959(3) 0.4618(3) 0.6010(4)
H45 H 0.7983 0.5038 0.5918
H46 H 0.7560 0.4467 0.5547
C56 C 0.8628(2) 0.4331(3) 0.5873(4)
C57 C 0.1320(6) 0.4848(7) 0.9423(7)
H47 H 0.1576 0.4760 0.8990
O15 O 0.0321(5) 0.6472(6) 0.8435(10)
Mn4 Mn 0.96945(3) 0.43038(3) 0.46622(5)
O17 O 0.12036(17) 0.54955(16) 0.4836(3)
O20 O 0.09510(18) 0.60809(17) 0.6597(3)
O21 O 0.1579(3) 0.6067(2) 0.8032(3)
H54 H 0.0367 0.678851 0.799324
H57 H 0.0252792 0.686045 0.500787
O16 O 0.96285(16) 0.52165(14) 0.4136(2)
O18 O 0.93947(17) 0.59100(16) 0.5817(3)
O19 O 0.9524(2) 0.5644(3) 0.7273(3)
H55 H 0.983358 0.646491 0.851121
H56 H 0.976014 0.654207 0.410351
O18_2 O 0.06053(17) 0.09100(16) 0.9183(3)
O19_2 O 0.0476(2) 0.0644(3) 0.7727(3)
H55_2 H 0.0166416 0.146491 0.648879
Mn1_2 Mn 0.96945(3) 0.06962(3) 0.96622(5)
Mn2_2 Mn 0.94286(4) 0.06069(5) 0.71186(6)
O7_2 O 0.06053(17) 0.40900(16) 0.4183(3)
O8_2 O 0.0476(2) 0.4356(3) 0.2727(3)
O9_2 O 0.90490(18) 0.39191(17) 0.3403(3)
O10_2 O 0.8421(3) 0.3933(2) 0.1968(3)
O11_2 O 0.80022(18) 0.33328(17) 0.3942(3)
O13_2 O 0.9226(4) 0.0311(5) 0.5773(5)
O14_2 O 0.19738(18) 0.39089(19) 0.4363(3)
C7_2 C 0.6929(2) 0.0042(2) 0.7978(3)
C9_2 C 0.6844(3) 0.0536(3) 0.8628(4)
H5_2 H 0.7298 0.0665 0.8973
H6_2 H 0.6581 0.0398 0.9052
H7_2 H 0.6601 0.0858 0.8272
C11_2 C 0.5738(2) 0.02635(19) 0.7004(3)
C12_2 C 0.5143(2) 0.0082(2) 0.7254(3)
C13_2 C 0.4533(2) 0.0412(2) 0.7096(3)
C14_2 C 0.4517(2) 0.0967(2) 0.6668(3)
C15_2 C 0.5119(2) 0.11630(19) 0.6388(3)
C16_2 C 0.5734(2) 0.08052(19) 0.6558(3)
C17_2 C 0.6331(2) 0.1016(2) 0.6256(3)
H12_2 H 0.6735 0.0787 0.6365
C18_2 C 0.6321(2) 0.1541(2) 0.5814(3)
H13_2 H 0.6716 0.1663 0.5626
C19_2 C 0.5712(2) 0.19103(19) 0.5633(3)
C20_2 C 0.5113(2) 0.1716(2) 0.5919(3)
C21_2 C 0.4494(2) 0.2069(2) 0.5743(3)
C22_2 C 0.3903(2) 0.1860(2) 0.6048(3)
H14_2 H 0.3498 0.2087 0.5939
C23_2 C 0.3917(2) 0.1339(2) 0.6493(3)
H15_2 H 0.3525 0.1221 0.6690
C24_2 C 0.4485(2) 0.2604(2) 0.5257(3)
C25_2 C 0.5080(2) 0.2780(2) 0.4991(3)
H16_2 H 0.5069 0.3136 0.4682
C26_2 C 0.5694(2) 0.2449(2) 0.5160(3)
C27_2 C 0.6883(4) 0.3052(4) 0.6437(5)
H17_2 H 0.7347 0.3163 0.6769
H18_2 H 0.6749 0.2698 0.6698
H19_2 H 0.6560 0.3361 0.6485
C28_2 C 0.6306(2) 0.2671(2) 0.4824(3)
C29_2 C 0.6305(3) 0.2611(3) 0.3901(4)
C30_2 C 0.5702(4) 0.2319(4) 0.3230(5)
H20_2 H 0.5767 0.2349 0.2610
H21_2 H 0.5272 0.2508 0.3258
H22_2 H 0.5683 0.1912 0.3393
C31_2 C 0.6866(3) 0.2833(3) 0.3580(4)
H23_2 H 0.6861 0.2808 0.2953
C32_2 C 0.7430(3) 0.3092(2) 0.4199(4)
C33_2 C 0.7425(3) 0.3153(2) 0.5104(4)
H24_2 H 0.7802 0.3333 0.5512
C34_2 C 0.6869(3) 0.2952(2) 0.5430(4)
C35_2 C 0.7950(3) 0.3375(3) 0.2985(4)
H25_2 H 0.7493 0.3528 0.2675
H26_2 H 0.7998 0.2988 0.2735
C36_2 C 0.8518(3) 0.3779(2) 0.2798(4)
C37_2 C 0.3835(2) 0.2960(2) 0.4999(3)
C38_2 C 0.3651(2) 0.3343(2) 0.5641(3)
C39_2 C 0.3029(3) 0.3655(2) 0.5390(4)
H27_2 H 0.2905 0.3906 0.5818
C40_2 C 0.2587(3) 0.3598(2) 0.4505(4)
C41_2 C 0.2773(3) 0.3235(2) 0.3861(4)
H28_2 H 0.2482 0.3204 0.3266
C42_2 C 0.3395(3) 0.2912(2) 0.4098(4)
C43_2 C 0.3582(3) 0.2522(3) 0.3376(4)
H29_2 H 0.3170 0.2447 0.2890
H30_2 H 0.3767 0.2158 0.3657
H31_2 H 0.3927 0.2714 0.3121
C44_2 C 0.4129(3) 0.3428(2) 0.6585(4)
H32_2 H 0.3951 0.3737 0.6903
H33_2 H 0.4589 0.3531 0.6523
H34_2 H 0.4154 0.3071 0.6935
C45_2 C 0.1540(3) 0.3926(3) 0.3455(4)
H35_2 H 0.1511 0.3537 0.3181
H36_2 H 0.1741 0.4189 0.3075
C46_2 C 0.0803(3) 0.4140(3) 0.3473(4)
C47_2 C 0.3906(2) 0.0182(2) 0.7382(3)
C48_2 C 0.3806(2) 0.0307(2) 0.8262(3)
C49_2 C 0.3217(2) 0.0082(2) 0.8520(3)
H37_2 H 0.3148 0.0166 0.9104
H41_2 H 0.3554 0.0042 0.5495
C54_2 C 0.4324(3) 0.0671(3) 0.8929(4)
H42_2 H 0.4180 0.0709 0.9499
H43_2 H 0.4351 0.1054 0.8667
H44_2 H 0.4776 0.0487 0.9050
H45_2 H 0.2017 0.0038 0.9082
H52_2 H 0.9088 0.0042 0.4101
O15_2 O 0.9679(5) 0.1472(6) 0.6565(10)
Mn7 Mn 0.94286(4) 0.43931(5) 0.21186(6)
O20_2 O 0.90490(18) 0.10809(17) 0.8403(3)
O21_2 O 0.8421(3) 0.1067(2) 0.6968(3)
H54_2 H 0.9633 0.178851 0.700676
H57_2 H 0.974721 0.186045 0.999213
H55_3 H 0.0166416 0.353509 0.148879
H56_2 H 0.0239857 0.345793 0.589649
O2_2 O 0.90528(19) 0.51672(17) 0.2639(3)
O3_2 O 0.82137(18) 0.60834(16) 0.2774(3)
O5_2 O 0.1083(2) 0.6070(3) 0.3587(3)
O6_2 O 0.21432(19) 0.5491(2) 0.3093(3)
O12_2 O 0.97814(18) 0.34732(16) 0.5432(3)
O13_3 O 0.9226(4) 0.4689(5) 0.0773(5)
C1_2 C 0.9178(2) 0.5403(2) 0.3418(4)
C2_2 C 0.8777(3) 0.5946(2) 0.3571(4)
H1_2 H 0.9097 0.6277 0.3703
H2_2 H 0.8585 0.5886 0.4107
C3_2 C 0.7633(2) 0.5739(2) 0.2626(4)
C4_2 C 0.7092(2) 0.5895(2) 0.1867(4)
H3_2 H 0.7150 0.6212 0.1497
C5_2 C 0.6468(2) 0.5582(2) 0.1656(3)
C6_2 C 0.6389(2) 0.51069(19) 0.2223(3)
C7_3 C 0.6929(2) 0.4958(2) 0.2978(3)
C8_2 C 0.7554(2) 0.5266(2) 0.3185(3)
H4_2 H 0.7916 0.5159 0.3689
C9_3 C 0.6844(3) 0.4464(3) 0.3628(4)
H5_3 H 0.7298 0.4335 0.3973
H6_3 H 0.6581 0.4602 0.4052
H7_3 H 0.6601 0.4142 0.3272
C10_2 C 0.5884(2) 0.5773(2) 0.0858(3)
H8_2 H 0.5669 0.5435 0.0520
H9_2 H 0.5541 0.5986 0.1090
H10_2 H 0.6068 0.6023 0.0452
C11_3 C 0.5738(2) 0.47365(19) 0.2004(3)
C12_3 C 0.5143(2) 0.4918(2) 0.2254(3)
H11_2 H 0.5149 0.5280 0.2545
C13_3 C 0.4533(2) 0.4588(2) 0.2096(3)
C14_3 C 0.4517(2) 0.4033(2) 0.1668(3)
C15_3 C 0.5119(2) 0.38370(19) 0.1388(3)
C16_3 C 0.5734(2) 0.41948(19) 0.1558(3)
C17_3 C 0.6331(2) 0.3984(2) 0.1256(3)
H12_3 H 0.6735 0.4213 0.1365
C18_3 C 0.6321(2) 0.3459(2) 0.0814(3)
H13_3 H 0.6716 0.3337 0.0626
C19_3 C 0.5712(2) 0.30897(19) 0.0633(3)
C20_3 C 0.5113(2) 0.3284(2) 0.0919(3)
C21_3 C 0.4494(2) 0.2931(2) 0.0743(3)
C22_3 C 0.3903(2) 0.3140(2) 0.1048(3)
H14_3 H 0.3498 0.2913 0.0939
C23_3 C 0.3917(2) 0.3661(2) 0.1493(3)
H15_3 H 0.3525 0.3779 0.1690
C24_3 C 0.4485(2) 0.2396(2) 0.0257(3)
C26_3 C 0.5694(2) 0.2551(2) 0.0160(3)
C27_3 C 0.6883(4) 0.1948(4) 0.1437(5)
H17_3 H 0.7347 0.1837 0.1769
H18_3 H 0.6749 0.2302 0.1698
H19_3 H 0.6560 0.1639 0.1485
C33_3 C 0.7425(3) 0.1847(2) 0.0104(4)
H24_3 H 0.7802 0.1667 0.0512
C34_3 C 0.6869(3) 0.2048(2) 0.0430(4)
C38_3 C 0.3651(2) 0.1657(2) 0.0641(3)
C39_3 C 0.3029(3) 0.1345(2) 0.0390(4)
H27_3 H 0.2905 0.1094 0.0818
C44_3 C 0.4129(3) 0.1572(2) 0.1585(4)
H32_3 H 0.3951 0.1263 0.1903
H33_3 H 0.4589 0.1469 0.1523
H34_3 H 0.4154 0.1929 0.1935
C47_3 C 0.3906(2) 0.4818(2) 0.2382(3)
C48_3 C 0.3806(2) 0.4693(2) 0.3262(3)
C49_3 C 0.3217(2) 0.4918(2) 0.3520(3)
H37_3 H 0.3148 0.4834 0.4104
C50_2 C 0.2740(3) 0.5264(2) 0.2911(4)
C51_2 C 0.2846(3) 0.5388(3) 0.2053(4)
H38_2 H 0.2526 0.5626 0.1650
C52_2 C 0.3419(3) 0.5169(3) 0.1770(4)
C53_2 C 0.3515(4) 0.5315(4) 0.0824(5)
H39_2 H 0.3119 0.5536 0.0486
H40_2 H 0.3934 0.5543 0.0886
H41_3 H 0.3554 0.4958 0.0495
C54_3 C 0.4324(3) 0.4329(3) 0.3929(4)
H42_3 H 0.4180 0.4291 0.4499
H43_3 H 0.4351 0.3946 0.3667
H44_3 H 0.4776 0.4513 0.4050
C55_2 C 0.2041(3) 0.5382(3) 0.3990(4)
H45_3 H 0.2017 0.4962 0.4082
H46_2 H 0.2440 0.5533 0.4453
C56_2 C 0.1372(2) 0.5669(3) 0.4127(4)
C57_2 C 0.8680(6) 0.5152(7) 0.0577(7)
H47_2 H 0.8424 0.5240 0.1010
O15_3 O 0.9679(5) 0.3528(6) 0.1565(10)
H54_3 H 0.9633 0.321149 0.200676
H57_3 H 0.974721 0.313955 0.499213
O11_3 O 0.80022(18) 0.16672(17) 0.8942(3)
O14_3 O 0.19738(18) 0.10911(19) 0.9363(3)
N1_2 N 0.8560(5) 0.5439(6) 0.9772(6)
C25_3 C 0.5080(2) 0.2220(2) 0.9991(3)
H16_3 H 0.5069 0.1864 0.9682
C28_3 C 0.6306(2) 0.2329(2) 0.9824(3)
C29_3 C 0.6305(3) 0.2389(3) 0.8901(4)
C30_3 C 0.5702(4) 0.2681(4) 0.8230(5)
H20_3 H 0.5767 0.2651 0.7610
H21_3 H 0.5272 0.2492 0.8258
H22_3 H 0.5683 0.3088 0.8393
C31_3 C 0.6866(3) 0.2167(3) 0.8580(4)
H23_3 H 0.6861 0.2192 0.7953
C32_3 C 0.7430(3) 0.1908(2) 0.9199(4)
C35_3 C 0.7950(3) 0.1625(3) 0.7985(4)
H25_3 H 0.7493 0.1472 0.7675
H26_3 H 0.7998 0.2012 0.7735
C36_3 C 0.8518(3) 0.1221(2) 0.7798(4)
C37_3 C 0.3835(2) 0.2040(2) 0.9999(3)
C40_3 C 0.2587(3) 0.1402(2) 0.9505(4)
C41_3 C 0.2773(3) 0.1765(2) 0.8861(4)
H28_3 H 0.2482 0.1796 0.8266
C42_3 C 0.3395(3) 0.2088(2) 0.9098(4)
C43_3 C 0.3582(3) 0.2478(3) 0.8376(4)
H29_3 H 0.3170 0.2553 0.7890
H30_3 H 0.3767 0.2842 0.8657
H31_3 H 0.3927 0.2286 0.8121
C45_3 C 0.1540(3) 0.1074(3) 0.8455(4)
H35_3 H 0.1511 0.1463 0.8181
H36_3 H 0.1741 0.0811 0.8075
C46_3 C 0.0803(3) 0.0860(3) 0.8473(4)
C58_2 C 0.8003(6) 0.5827(7) 0.9536(7)
H48_2 H 0.7933 0.5940 0.8897
H49_2 H 0.7586 0.5640 0.9624
H50_2 H 0.8102 0.6169 0.9924
C59_2 C 0.8920(6) 0.5355(7) 0.9076(7)
H51_2 H 0.9309 0.5621 0.9171
H52_3 H 0.9088 0.4958 0.9101
H53_2 H 0.8608 0.5427 0.8479
O11_4 O 0.19978(18) 0.66672(17) 0.6058(3)
O13_4 O 0.0774(4) 0.9689(5) 0.4227(5)
O14_4 O 0.80262(18) 0.60911(19) 0.5637(3)
C7_4 C 0.3071(2) 0.9958(2) 0.2022(3)
C9_4 C 0.3156(3) 0.9464(3) 0.1372(4)
H5_4 H 0.2702 0.9335 0.1027
H6_4 H 0.3419 0.9602 0.0948
H7_4 H 0.3399 0.9142 0.1728
C11_4 C 0.4262(2) 0.97365(19) 0.2996(3)
C12_4 C 0.4857(2) 0.9918(2) 0.2746(3)
C13_4 C 0.5467(2) 0.9588(2) 0.2904(3)
C14_4 C 0.5483(2) 0.9033(2) 0.3332(3)
C15_4 C 0.4881(2) 0.88370(19) 0.3612(3)
C16_4 C 0.4266(2) 0.91948(19) 0.3442(3)
C17_4 C 0.3669(2) 0.8984(2) 0.3744(3)
H12_4 H 0.3265 0.9213 0.3635
C18_4 C 0.3679(2) 0.8459(2) 0.4186(3)
H13_4 H 0.3284 0.8337 0.4374
C19_4 C 0.4288(2) 0.80897(19) 0.4367(3)
C20_4 C 0.4887(2) 0.8284(2) 0.4081(3)
C21_4 C 0.5506(2) 0.7931(2) 0.4257(3)
C22_4 C 0.6097(2) 0.8140(2) 0.3952(3)
H14_4 H 0.6502 0.7913 0.4061
C23_4 C 0.6083(2) 0.8661(2) 0.3507(3)
H15_4 H 0.6475 0.8779 0.3310
C24_4 C 0.5515(2) 0.7396(2) 0.4743(3)
C25_4 C 0.4920(2) 0.7220(2) 0.5009(3)
H16_4 H 0.4931 0.6864 0.5318
C26_4 C 0.4306(2) 0.7551(2) 0.4840(3)
C27_4 C 0.3117(4) 0.6948(4) 0.3563(5)
H17_4 H 0.2653 0.6837 0.3231
H18_4 H 0.3251 0.7302 0.3302
H19_4 H 0.3440 0.6639 0.3515
C28_4 C 0.3694(2) 0.7329(2) 0.5176(3)
C29_4 C 0.3695(3) 0.7389(3) 0.6099(4)
C30_4 C 0.4298(4) 0.7681(4) 0.6770(5)
H20_4 H 0.4233 0.7651 0.7390
H21_4 H 0.4728 0.7492 0.6742
H22_4 H 0.4317 0.8088 0.6607
C31_4 C 0.3134(3) 0.7167(3) 0.6420(4)
H23_4 H 0.3139 0.7192 0.7047
C32_4 C 0.2570(3) 0.6908(2) 0.5801(4)
C33_4 C 0.2575(3) 0.6847(2) 0.4896(4)
H24_4 H 0.2198 0.6667 0.4488
C34_4 C 0.3131(3) 0.7048(2) 0.4570(4)
C35_4 C 0.2050(3) 0.6625(3) 0.7015(4)
H25_4 H 0.2507 0.6472 0.7325
H26_4 H 0.2002 0.7012 0.7265
C36_4 C 0.1482(3) 0.6221(2) 0.7202(4)
C37_4 C 0.6165(2) 0.7040(2) 0.5001(3)
C38_4 C 0.6349(2) 0.6657(2) 0.4359(3)
C39_4 C 0.6971(3) 0.6345(2) 0.4610(4)
H27_4 H 0.7095 0.6094 0.4182
C40_4 C 0.7413(3) 0.6402(2) 0.5495(4)
C41_4 C 0.7227(3) 0.6765(2) 0.6139(4)
H28_4 H 0.7518 0.6796 0.6734
C42_4 C 0.6605(3) 0.7088(2) 0.5902(4)
C43_4 C 0.6418(3) 0.7478(3) 0.6624(4)
H29_4 H 0.6830 0.7553 0.7110
H30_4 H 0.6233 0.7842 0.6343
H31_4 H 0.6073 0.7286 0.6879
C44_4 C 0.5871(3) 0.6572(2) 0.3415(4)
H32_4 H 0.6049 0.6263 0.3097
H33_4 H 0.5411 0.6469 0.3477
H34_4 H 0.5846 0.6929 0.3065
C45_4 C 0.8460(3) 0.6074(3) 0.6545(4)
H35_4 H 0.8489 0.6463 0.6819
H36_4 H 0.8259 0.5811 0.6925
C46_4 C 0.9197(3) 0.5860(3) 0.6527(4)
C47_4 C 0.6094(2) 0.9818(2) 0.2618(3)
C48_4 C 0.6194(2) 0.9693(2) 0.1738(3)
C49_4 C 0.6783(2) 0.9918(2) 0.1480(3)
H37_4 H 0.6852 0.9834 0.0896
H41_4 H 0.6446 0.9958 0.4505
C54_4 C 0.5676(3) 0.9329(3) 0.1071(4)
H42_4 H 0.5820 0.9291 0.0501
H43_4 H 0.5649 0.8946 0.1333
H44_4 H 0.5224 0.9513 0.0950
H45_4 H 0.7983 0.9962 0.0918
H52_4 H 0.0912 0.9958 0.5899
O15_4 O 0.0321(5) 0.8528(6) 0.3435(10)
H54_4 H 0.0367 0.821149 0.299324
H57_4 H 0.0252792 0.813955 0.00078658
H55_4 H 0.983358 0.853509 0.351121
O16_2 O 0.03715(16) 0.02165(14) 0.0864(2)
H56_3 H 0.0239857 0.154207 0.0896492
O12_3 O 0.97814(18) 0.15268(16) 0.0432(3)
O17_2 O 0.87964(17) 0.04955(16) 0.0164(3)
O2_3 O 0.09472(19) 0.01672(17) 0.2361(3)
O3_3 O 0.17863(18) 0.10834(16) 0.2226(3)
O5_3 O 0.8917(2) 0.1070(3) 0.1413(3)
O6_3 O 0.78568(19) 0.0491(2) 0.1907(3)
N1_3 N 0.1440(5) 0.0439(6) 0.5228(6)
C1_3 C 0.0822(2) 0.0403(2) 0.1582(4)
C2_3 C 0.1223(3) 0.0946(2) 0.1429(4)
H1_3 H 0.0903 0.1277 0.1297
H2_3 H 0.1415 0.0886 0.0893
C3_3 C 0.2367(2) 0.0739(2) 0.2374(4)
C4_3 C 0.2908(2) 0.0895(2) 0.3133(4)
H3_3 H 0.2850 0.1212 0.3503
C5_3 C 0.3532(2) 0.0582(2) 0.3344(3)
C6_3 C 0.3611(2) 0.01069(19) 0.2777(3)
C8_3 C 0.2446(2) 0.0266(2) 0.1815(3)
H4_3 H 0.2084 0.0159 0.1311
C10_3 C 0.4116(2) 0.0773(2) 0.4142(3)
H8_3 H 0.4331 0.0435 0.4480
H9_3 H 0.4459 0.0986 0.3910
H10_3 H 0.3932 0.1023 0.4548
H11_3 H 0.4851 0.0280 0.2455
C50_3 C 0.7260(3) 0.0264(2) 0.2089(4)
C51_3 C 0.7154(3) 0.0388(3) 0.2947(4)
H38_3 H 0.7474 0.0626 0.3350
C52_3 C 0.6581(3) 0.0169(3) 0.3230(4)
C53_3 C 0.6485(4) 0.0315(4) 0.4176(5)
H39_3 H 0.6881 0.0536 0.4514
H40_3 H 0.6066 0.0543 0.4114
C55_3 C 0.7959(3) 0.0382(3) 0.1010(4)
H46_3 H 0.7560 0.0533 0.0547
C56_3 C 0.8628(2) 0.0669(3) 0.0873(4)
C57_3 C 0.1320(6) 0.0152(7) 0.4423(7)
H47_3 H 0.1576 0.0240 0.3990
C58_3 C 0.1997(6) 0.0827(7) 0.5464(7)
H48_3 H 0.2067 0.0940 0.6103
H49_3 H 0.2414 0.0640 0.5376
H50_3 H 0.1898 0.1169 0.5076
C59_3 C 0.1080(6) 0.0355(7) 0.5924(7)
H51_3 H 0.0691 0.0621 0.5829
H53_3 H 0.1392 0.0427 0.6521
O1_2 O 0.96285(16) 0.97835(14) 0.9136(2)
O2_4 O 0.90528(19) 0.98328(17) 0.7639(3)
O3_4 O 0.82137(18) 0.89166(16) 0.7774(3)
O4_2 O 0.12036(17) 0.95045(16) 0.9836(3)
O5_4 O 0.1083(2) 0.8930(3) 0.8587(3)
O6_4 O 0.21432(19) 0.9509(2) 0.8093(3)
N1_4 N 0.8560(5) 0.9561(6) 0.4772(6)
C1_4 C 0.9178(2) 0.9597(2) 0.8418(4)
C2_4 C 0.8777(3) 0.9054(2) 0.8571(4)
H1_4 H 0.9097 0.8723 0.8703
H2_4 H 0.8585 0.9114 0.9107
C3_4 C 0.7633(2) 0.9261(2) 0.7626(4)
C4_4 C 0.7092(2) 0.9105(2) 0.6867(4)
H3_4 H 0.7150 0.8788 0.6497
C5_4 C 0.6468(2) 0.9418(2) 0.6656(3)
C6_4 C 0.6389(2) 0.98931(19) 0.7223(3)
C8_4 C 0.7554(2) 0.9734(2) 0.8185(3)
H4_4 H 0.7916 0.9841 0.8689
C10_4 C 0.5884(2) 0.9227(2) 0.5858(3)
H8_4 H 0.5669 0.9565 0.5520
H9_4 H 0.5541 0.9014 0.6090
H10_4 H 0.6068 0.8977 0.5452
H11_4 H 0.5149 0.9720 0.7545
C50_4 C 0.2740(3) 0.9736(2) 0.7911(4)
C51_4 C 0.2846(3) 0.9612(3) 0.7053(4)
H38_4 H 0.2526 0.9374 0.6650
C52_4 C 0.3419(3) 0.9831(3) 0.6770(4)
C53_4 C 0.3515(4) 0.9685(4) 0.5824(5)
H39_4 H 0.3119 0.9464 0.5486
H40_4 H 0.3934 0.9457 0.5886
C55_4 C 0.2041(3) 0.9618(3) 0.8990(4)
H46_4 H 0.2440 0.9467 0.9453
C56_4 C 0.1372(2) 0.9331(3) 0.9127(4)
C57_4 C 0.8680(6) 0.9848(7) 0.5577(7)
H47_4 H 0.8424 0.9760 0.6010
C58_4 C 0.8003(6) 0.9173(7) 0.4536(7)
H48_4 H 0.7933 0.9060 0.3897
H49_4 H 0.7586 0.9360 0.4624
H50_4 H 0.8102 0.8831 0.4924
C59_4 C 0.8920(6) 0.9645(7) 0.4076(7)
H51_4 H 0.9309 0.9379 0.4171
H53_4 H 0.8608 0.9573 0.3479
O12_4 O 0.02186(18) 0.84732(16) 0.9568(3)
H56_4 H 0.976014 0.845793 0.910351
loop_
_geom_bond_atom_site_label_1
_geom_bond_atom_site_label_2
_geom_bond_site_symmetry_1
_geom_bond_site_symmetry_2
O7 C46 1_555 1_555
O8 C46 1_555 1_555
O9 C36 1_555 1_555
O10 C36 1_555 1_555
O11 C32 1_555 1_555
O14 C40 1_555 1_555
H16 C25 1_555 1_555
C29 C28 1_555 1_555
C30 C29 1_555 1_555
H20 C30 1_555 1_555
H21 C30 1_555 1_555
H22 C30 1_555 1_555
C31 C29 1_555 1_555
H23 C31 1_555 1_555
C32 C31 1_555 1_555
C35 O11 1_555 1_555
H25 C35 1_555 1_555
H26 C35 1_555 1_555
C36 C35 1_555 1_555
C41 C40 1_555 1_555
H28 C41 1_555 1_555
C42 C37 1_555 1_555
C43 C42 1_555 1_555
H29 C43 1_555 1_555
H30 C43 1_555 1_555
H31 C43 1_555 1_555
C45 O14 1_555 1_555
H35 C45 1_555 1_555
H36 C45 1_555 1_555
C46 C45 1_555 1_555
C58 N1 1_555 1_555
H48 C58 1_555 1_555
H49 C58 1_555 1_555
H50 C58 1_555 1_555
C59 N1 1_555 1_555
H51 C59 1_555 1_555
H52 C59 1_555 1_555
H53 C59 1_555 1_555
Mn6 O9 1_555 1_555
Mn8 O9 1_555 1_555
O10 Mn8 1_555 1_555
C41 C42 1_555 1_555
Mn1 O1 1_555 1_555
Mn2 O2 1_555 1_555
O1 C1 1_555 1_555
O2 C1 1_555 1_555
O3 C2 1_555 1_555
O4 C56 1_555 1_555
O5 C56 1_555 1_555
O6 C50 1_555 1_555
O12 Mn1 1_555 1_555
O13 Mn2 1_555 1_555
C1 C2 1_555 1_555
C2 H1 1_555 1_555
H2 C2 1_555 1_555
C3 O3 1_555 1_555
C4 C3 1_555 1_555
H3 C4 1_555 1_555
C5 C4 1_555 1_555
C6 C5 1_555 1_555
C7 C6 1_555 1_555
C8 C3 1_555 1_555
H4 C8 1_555 1_555
C9 C7 1_555 1_555
H5 C9 1_555 1_555
H6 C9 1_555 1_555
H7 C9 1_555 1_555
C10 C5 1_555 1_555
H8 C10 1_555 1_555
H9 C10 1_555 1_555
H10 C10 1_555 1_555
C11 C6 1_555 1_555
C12 C11 1_555 1_555
H11 C12 1_555 1_555
C13 C12 1_555 1_555
C14 C13 1_555 1_555
C15 C14 1_555 1_555
C16 C11 1_555 1_555
C17 C16 1_555 1_555
H12 C17 1_555 1_555
C18 C17 1_555 1_555
H13 C18 1_555 1_555
C19 C18 1_555 1_555
C20 C15 1_555 1_555
C21 C20 1_555 1_555
C22 C21 1_555 1_555
H14 C22 1_555 1_555
C23 C14 1_555 1_555
H15 C23 1_555 1_555
C24 C21 1_555 1_555
C26 C19 1_555 1_555
C27 H17 1_555 1_555
H18 C27 1_555 1_555
H19 C27 1_555 1_555
H24 C33 1_555 1_555
C34 C27 1_555 1_555
C39 C38 1_555 1_555
H27 C39 1_555 1_555
C44 C38 1_555 1_555
H32 C44 1_555 1_555
H33 C44 1_555 1_555
H34 C44 1_555 1_555
C47 C13 1_555 1_555
C48 C47 1_555 1_555
C49 C48 1_555 1_555
H37 C49 1_555 1_555
C50 C49 1_555 1_555
C51 C50 1_555 1_555
H38 C51 1_555 1_555
C52 C47 1_555 1_555
C53 C52 1_555 1_555
H39 C53 1_555 1_555
H40 C53 1_555 1_555
H41 C53 1_555 1_555
C54 C48 1_555 1_555
H42 C54 1_555 1_555
H43 C54 1_555 1_555
H44 C54 1_555 1_555
C55 O6 1_555 1_555
H45 C55 1_555 1_555
H46 C55 1_555 1_555
C56 C55 1_555 1_555
C57 O13 1_555 1_555
H47 C57 1_555 1_555
O15 Mn2 1_555 1_555
Mn4 O4 1_555 1_555
O17 Mn1 1_555 1_555
O20 Mn1 1_555 1_555
O21 Mn2 1_555 1_555
Mn2 O20 1_555 1_555
C7 C8 1_555 1_555
C15 C16 1_555 1_555
C19 C20 1_555 1_555
C22 C23 1_555 1_555
C33 C34 1_555 1_555
C51 C52 1_555 1_555
O15 H54 1_555 1_555
O12 H57 1_555 1_555
Mn4 O16 1_555 1_555
O7_2 C46_2 1_555 1_555
O8_2 C46_2 1_555 1_555
O9_2 C36_2 1_555 1_555
O10_2 C36_2 1_555 1_555
O11_2 C32_2 1_555 1_555
O13_2 Mn2_2 1_555 1_555
O14_2 C40_2 1_555 1_555
C9_2 C7_2 1_555 1_555
H5_2 C9_2 1_555 1_555
H6_2 C9_2 1_555 1_555
H7_2 C9_2 1_555 1_555
C12_2 C11_2 1_555 1_555
C13_2 C12_2 1_555 1_555
C14_2 C13_2 1_555 1_555
C15_2 C14_2 1_555 1_555
C16_2 C11_2 1_555 1_555
C17_2 C16_2 1_555 1_555
H12_2 C17_2 1_555 1_555
C18_2 C17_2 1_555 1_555
H13_2 C18_2 1_555 1_555
C19_2 C18_2 1_555 1_555
C20_2 C15_2 1_555 1_555
C21_2 C20_2 1_555 1_555
C22_2 C21_2 1_555 1_555
H14_2 C22_2 1_555 1_555
C23_2 C14_2 1_555 1_555
H15_2 C23_2 1_555 1_555
C24_2 C21_2 1_555 1_555
C25_2 C24_2 1_555 1_555
H16_2 C25_2 1_555 1_555
C26_2 C19_2 1_555 1_555
C27_2 H17_2 1_555 1_555
H18_2 C27_2 1_555 1_555
H19_2 C27_2 1_555 1_555
C28_2 C26_2 1_555 1_555
C29_2 C28_2 1_555 1_555
C30_2 C29_2 1_555 1_555
H20_2 C30_2 1_555 1_555
H21_2 C30_2 1_555 1_555
H22_2 C30_2 1_555 1_555
C31_2 C29_2 1_555 1_555
H23_2 C31_2 1_555 1_555
C32_2 C31_2 1_555 1_555
C33_2 C32_2 1_555 1_555
H24_2 C33_2 1_555 1_555
C34_2 C27_2 1_555 1_555
C35_2 O11_2 1_555 1_555
H25_2 C35_2 1_555 1_555
H26_2 C35_2 1_555 1_555
C36_2 C35_2 1_555 1_555
C37_2 C24_2 1_555 1_555
C38_2 C37_2 1_555 1_555
C39_2 C38_2 1_555 1_555
H27_2 C39_2 1_555 1_555
C40_2 C39_2 1_555 1_555
C41_2 C40_2 1_555 1_555
H28_2 C41_2 1_555 1_555
C42_2 C37_2 1_555 1_555
C43_2 C42_2 1_555 1_555
H29_2 C43_2 1_555 1_555
H30_2 C43_2 1_555 1_555
H31_2 C43_2 1_555 1_555
C44_2 C38_2 1_555 1_555
H32_2 C44_2 1_555 1_555
H33_2 C44_2 1_555 1_555
H34_2 C44_2 1_555 1_555
C45_2 O14_2 1_555 1_555
H35_2 C45_2 1_555 1_555
H36_2 C45_2 1_555 1_555
C46_2 C45_2 1_555 1_555
C47_2 C13_2 1_555 1_555
C48_2 C47_2 1_555 1_555
C49_2 C48_2 1_555 1_555
H37_2 C49_2 1_555 1_555
C54_2 C48_2 1_555 1_555
H42_2 C54_2 1_555 1_555
H43_2 C54_2 1_555 1_555
H44_2 C54_2 1_555 1_555
O15_2 Mn2_2 1_555 1_555
Mn4 O9_2 1_555 1_555
Mn7 O9_2 1_555 1_555
O20_2 Mn1_2 1_555 1_555
O21_2 Mn2_2 1_555 1_555
Mn2_2 O20_2 1_555 1_555
O10_2 Mn7 1_555 1_555
C15_2 C16_2 1_555 1_555
C19_2 C20_2 1_555 1_555
C22_2 C23_2 1_555 1_555
C25_2 C26_2 1_555 1_555
C28_2 C34_2 1_555 1_555
C33_2 C34_2 1_555 1_555
C41_2 C42_2 1_555 1_555
O15_2 H54_2 1_555 1_555
Mn7 O2_2 1_555 1_555
O16 C1_2 1_555 1_555
O2_2 C1_2 1_555 1_555
O3_2 C2_2 1_555 1_555
O17 C56_2 1_555 1_555
O5_2 C56_2 1_555 1_555
O6_2 C50_2 1_555 1_555
O12_2 Mn4 1_555 1_555
O13_3 Mn7 1_555 1_555
C1_2 C2_2 1_555 1_555
C2_2 H1_2 1_555 1_555
H2_2 C2_2 1_555 1_555
C3_2 O3_2 1_555 1_555
C4_2 C3_2 1_555 1_555
H3_2 C4_2 1_555 1_555
C5_2 C4_2 1_555 1_555
C6_2 C5_2 1_555 1_555
C7_3 C6_2 1_555 1_555
C8_2 C3_2 1_555 1_555
H4_2 C8_2 1_555 1_555
C9_3 C7_3 1_555 1_555
H5_3 C9_3 1_555 1_555
H6_3 C9_3 1_555 1_555
H7_3 C9_3 1_555 1_555
C10_2 C5_2 1_555 1_555
H8_2 C10_2 1_555 1_555
H9_2 C10_2 1_555 1_555
H10_2 C10_2 1_555 1_555
C11_3 C6_2 1_555 1_555
C12_3 C11_3 1_555 1_555
H11_2 C12_3 1_555 1_555
C13_3 C12_3 1_555 1_555
C14_3 C13_3 1_555 1_555
C15_3 C14_3 1_555 1_555
C16_3 C11_3 1_555 1_555
C17_3 C16_3 1_555 1_555
H12_3 C17_3 1_555 1_555
C18_3 C17_3 1_555 1_555
H13_3 C18_3 1_555 1_555
C19_3 C18_3 1_555 1_555
C20_3 C15_3 1_555 1_555
C21_3 C20_3 1_555 1_555
C22_3 C21_3 1_555 1_555
H14_3 C22_3 1_555 1_555
C23_3 C14_3 1_555 1_555
H15_3 C23_3 1_555 1_555
C24_3 C21_3 1_555 1_555
C26_3 C19_3 1_555 1_555
C27_3 H17_3 1_555 1_555
H18_3 C27_3 1_555 1_555
H19_3 C27_3 1_555 1_555
H24_3 C33_3 1_555 1_555
C34_3 C27_3 1_555 1_555
C39_3 C38_3 1_555 1_555
H27_3 C39_3 1_555 1_555
C44_3 C38_3 1_555 1_555
H32_3 C44_3 1_555 1_555
H33_3 C44_3 1_555 1_555
H34_3 C44_3 1_555 1_555
C47_3 C13_3 1_555 1_555
C48_3 C47_3 1_555 1_555
C49_3 C48_3 1_555 1_555
H37_3 C49_3 1_555 1_555
C50_2 C49_3 1_555 1_555
C51_2 C50_2 1_555 1_555
H38_2 C51_2 1_555 1_555
C52_2 C47_3 1_555 1_555
C53_2 C52_2 1_555 1_555
H39_2 C53_2 1_555 1_555
H40_2 C53_2 1_555 1_555
H41_3 C53_2 1_555 1_555
C54_3 C48_3 1_555 1_555
H42_3 C54_3 1_555 1_555
H43_3 C54_3 1_555 1_555
H44_3 C54_3 1_555 1_555
C55_2 O6_2 1_555 1_555
H45_3 C55_2 1_555 1_555
H46_2 C55_2 1_555 1_555
C56_2 C55_2 1_555 1_555
C57_2 O13_3 1_555 1_555
H47_2 C57_2 1_555 1_555
O15_3 Mn7 1_555 1_555
C7_3 C8_2 1_555 1_555
C15_3 C16_3 1_555 1_555
C19_3 C20_3 1_555 1_555
C22_3 C23_3 1_555 1_555
C33_3 C34_3 1_555 1_555
C51_2 C52_2 1_555 1_555
O15_3 H54_3 1_555 1_555
O12_2 H57_3 1_555 1_555
O18_2 C46_3 1_555 1_555
O19_2 C46_3 1_555 1_555
O20_2 C36_3 1_555 1_555
O21_2 C36_3 1_555 1_555
O11_3 C32_3 1_555 1_555
O14_3 C40_3 1_555 1_555
H16_3 C25_3 1_555 1_555
C29_3 C28_3 1_555 1_555
C30_3 C29_3 1_555 1_555
H20_3 C30_3 1_555 1_555
H21_3 C30_3 1_555 1_555
H22_3 C30_3 1_555 1_555
C31_3 C29_3 1_555 1_555
H23_3 C31_3 1_555 1_555
C32_3 C31_3 1_555 1_555
C35_3 O11_3 1_555 1_555
H25_3 C35_3 1_555 1_555
H26_3 C35_3 1_555 1_555
C36_3 C35_3 1_555 1_555
C41_3 C40_3 1_555 1_555
H28_3 C41_3 1_555 1_555
C42_3 C37_3 1_555 1_555
C43_3 C42_3 1_555 1_555
H29_3 C43_3 1_555 1_555
H30_3 C43_3 1_555 1_555
H31_3 C43_3 1_555 1_555
C45_3 O14_3 1_555 1_555
H35_3 C45_3 1_555 1_555
H36_3 C45_3 1_555 1_555
C46_3 C45_3 1_555 1_555
C58_2 N1_2 1_555 1_555
H48_2 C58_2 1_555 1_555
H49_2 C58_2 1_555 1_555
H50_2 C58_2 1_555 1_555
C59_2 N1_2 1_555 1_555
H51_2 C59_2 1_555 1_555
H52_3 C59_2 1_555 1_555
H53_2 C59_2 1_555 1_555
C41_3 C42_3 1_555 1_555
O18 C46_4 1_555 1_555
O19 C46_4 1_555 1_555
O20 C36_4 1_555 1_555
O21 C36_4 1_555 1_555
O11_4 C32_4 1_555 1_555
O13_4 Mn8 1_555 1_555
O14_4 C40_4 1_555 1_555
C9_4 C7_4 1_555 1_555
H5_4 C9_4 1_555 1_555
H6_4 C9_4 1_555 1_555
H7_4 C9_4 1_555 1_555
C12_4 C11_4 1_555 1_555
C13_4 C12_4 1_555 1_555
C14_4 C13_4 1_555 1_555
C15_4 C14_4 1_555 1_555
C16_4 C11_4 1_555 1_555
C17_4 C16_4 1_555 1_555
H12_4 C17_4 1_555 1_555
C18_4 C17_4 1_555 1_555
H13_4 C18_4 1_555 1_555
C19_4 C18_4 1_555 1_555
C20_4 C15_4 1_555 1_555
C21_4 C20_4 1_555 1_555
C22_4 C21_4 1_555 1_555
H14_4 C22_4 1_555 1_555
C23_4 C14_4 1_555 1_555
H15_4 C23_4 1_555 1_555
C24_4 C21_4 1_555 1_555
C25_4 C24_4 1_555 1_555
H16_4 C25_4 1_555 1_555
C26_4 C19_4 1_555 1_555
C27_4 H17_4 1_555 1_555
H18_4 C27_4 1_555 1_555
H19_4 C27_4 1_555 1_555
C28_4 C26_4 1_555 1_555
C29_4 C28_4 1_555 1_555
C30_4 C29_4 1_555 1_555
H20_4 C30_4 1_555 1_555
H21_4 C30_4 1_555 1_555
H22_4 C30_4 1_555 1_555
C31_4 C29_4 1_555 1_555
H23_4 C31_4 1_555 1_555
C32_4 C31_4 1_555 1_555
C33_4 C32_4 1_555 1_555
H24_4 C33_4 1_555 1_555
C34_4 C27_4 1_555 1_555
C35_4 O11_4 1_555 1_555
H25_4 C35_4 1_555 1_555
H26_4 C35_4 1_555 1_555
C36_4 C35_4 1_555 1_555
C37_4 C24_4 1_555 1_555
C38_4 C37_4 1_555 1_555
C39_4 C38_4 1_555 1_555
H27_4 C39_4 1_555 1_555
C40_4 C39_4 1_555 1_555
C41_4 C40_4 1_555 1_555
H28_4 C41_4 1_555 1_555
C42_4 C37_4 1_555 1_555
C43_4 C42_4 1_555 1_555
H29_4 C43_4 1_555 1_555
H30_4 C43_4 1_555 1_555
H31_4 C43_4 1_555 1_555
C44_4 C38_4 1_555 1_555
H32_4 C44_4 1_555 1_555
H33_4 C44_4 1_555 1_555
H34_4 C44_4 1_555 1_555
C45_4 O14_4 1_555 1_555
H35_4 C45_4 1_555 1_555
H36_4 C45_4 1_555 1_555
C46_4 C45_4 1_555 1_555
C47_4 C13_4 1_555 1_555
C48_4 C47_4 1_555 1_555
C49_4 C48_4 1_555 1_555
H37_4 C49_4 1_555 1_555
C54_4 C48_4 1_555 1_555
H42_4 C54_4 1_555 1_555
H43_4 C54_4 1_555 1_555
H44_4 C54_4 1_555 1_555
O15_4 Mn8 1_555 1_555
C15_4 C16_4 1_555 1_555
C19_4 C20_4 1_555 1_555
C22_4 C23_4 1_555 1_555
C25_4 C26_4 1_555 1_555
C28_4 C34_4 1_555 1_555
C33_4 C34_4 1_555 1_555
C41_4 C42_4 1_555 1_555
O15_4 H54_4 1_555 1_555
O16_2 C1_3 1_555 1_555
O2_3 C1_3 1_555 1_555
O3_3 C2_3 1_555 1_555
O17_2 C56_3 1_555 1_555
O5_3 C56_3 1_555 1_555
O6_3 C50_3 1_555 1_555
N1_3 C57_3 1_555 1_555
C1_3 C2_3 1_555 1_555
C2_3 H1_3 1_555 1_555
H2_3 C2_3 1_555 1_555
C3_3 O3_3 1_555 1_555
C4_3 C3_3 1_555 1_555
H3_3 C4_3 1_555 1_555
C5_3 C4_3 1_555 1_555
C6_3 C5_3 1_555 1_555
C8_3 C3_3 1_555 1_555
H4_3 C8_3 1_555 1_555
C10_3 C5_3 1_555 1_555
H8_3 C10_3 1_555 1_555
H9_3 C10_3 1_555 1_555
H10_3 C10_3 1_555 1_555
C51_3 C50_3 1_555 1_555
H38_3 C51_3 1_555 1_555
C53_3 C52_3 1_555 1_555
H39_3 C53_3 1_555 1_555
H40_3 C53_3 1_555 1_555
C55_3 O6_3 1_555 1_555
H46_3 C55_3 1_555 1_555
C56_3 C55_3 1_555 1_555
H47_3 C57_3 1_555 1_555
C58_3 N1_3 1_555 1_555
H48_3 C58_3 1_555 1_555
H49_3 C58_3 1_555 1_555
H50_3 C58_3 1_555 1_555
C59_3 N1_3 1_555 1_555
H51_3 C59_3 1_555 1_555
H53_3 C59_3 1_555 1_555
C51_3 C52_3 1_555 1_555
O1_2 C1_4 1_555 1_555
O2_4 C1_4 1_555 1_555
O3_4 C2_4 1_555 1_555
O4_2 C56_4 1_555 1_555
O5_4 C56_4 1_555 1_555
O6_4 C50_4 1_555 1_555
N1_4 C57_4 1_555 1_555
C1_4 C2_4 1_555 1_555
C2_4 H1_4 1_555 1_555
H2_4 C2_4 1_555 1_555
C3_4 O3_4 1_555 1_555
C4_4 C3_4 1_555 1_555
H3_4 C4_4 1_555 1_555
C5_4 C4_4 1_555 1_555
C6_4 C5_4 1_555 1_555
C8_4 C3_4 1_555 1_555
H4_4 C8_4 1_555 1_555
C10_4 C5_4 1_555 1_555
H8_4 C10_4 1_555 1_555
H9_4 C10_4 1_555 1_555
H10_4 C10_4 1_555 1_555
C51_4 C50_4 1_555 1_555
H38_4 C51_4 1_555 1_555
C53_4 C52_4 1_555 1_555
H39_4 C53_4 1_555 1_555
H40_4 C53_4 1_555 1_555
C55_4 O6_4 1_555 1_555
H46_4 C55_4 1_555 1_555
C56_4 C55_4 1_555 1_555
H47_4 C57_4 1_555 1_555
C58_4 N1_4 1_555 1_555
H48_4 C58_4 1_555 1_555
H49_4 C58_4 1_555 1_555
H50_4 C58_4 1_555 1_555
C59_4 N1_4 1_555 1_555
H51_4 C59_4 1_555 1_555
H53_4 C59_4 1_555 1_555
C51_4 C52_4 1_555 1_555

#END
