
###############################################################################
#
# This file contains modified crystal structure data generated from the
# MOF subset of the Cambridge Structural Database (CSD) v543 
# hosted by the Cambridge Crystallographic Data Centre (CCDC).
#
# This work is licensed under the Creative Commons
# Attribution-NonCommercial-ShareAlike 4.0 International License.
# To view a copy of this license, visit
# http://creativecommons.org/licenses/by-nc-sa/4.0/
# or send a letter to
# Creative Commons, PO Box 1866, Mountain View, CA 94042, USA.
#
# CIF created using the CSD Python API on 29 September 2022
# The structure has been converted into the P1 space group
# The structure has a 3D framework
# The original CSD entry JURZAA is in the monoclinic crystal system
# The framework has been calculated to contain at least 10.0% void space
# The void calculation uses a probe of radius 1.32A, grid spacing 0.4
# H atom positions have been added when not included in the experimental data
#
###############################################################################

data_JURZAA
_chemical_formula_moiety         '(C128 H64 Cd16 N32 O80 S16)n'
_symmetry_cell_setting           triclinic
_symmetry_space_group_name_H-M   'P 1'
_symmetry_Int_Tables_number      1
_space_group_name_Hall           'P 1'
loop_
_symmetry_equiv_pos_site_id
_symmetry_equiv_pos_as_xyz
1 x,y,z
_cell_length_a                   16.428(3)
_cell_length_b                   19.570(4)
_cell_length_c                   14.509(3)
_cell_angle_alpha                90
_cell_angle_beta                 113.64(3)
_cell_angle_gamma                90
_cell_volume                     4273.15
loop_
_atom_site_label
_atom_site_type_symbol
_atom_site_fract_x
_atom_site_fract_y
_atom_site_fract_z
Cd2 Cd 0.43171(3) 0.09204(2) 0.06723(3)
Cd3 Cd 0.29962(3) 0.11395(2) 0.22451(3)
S4 S 0.23330(10) 0.28691(8) 0.24819(13)
O4 O 0.2443(3) 0.1286(2) 0.0555(3)
O8 O 0.5601(3) 0.0384(2) 0.0898(4)
O9 O 0.4228(3) 0.0311(2) 0.2013(3)
O13 O 0.1718(3) 0.0637(2) 0.2147(4)
O14 O 0.0596(3) 0.0240(2) 0.2390(4)
O18 O 0.3669(3) 0.0842(3) 0.3924(4)
N3 N 0.5107(3) 0.1717(3) 0.0039(4)
N5 N 0.2061(3) 0.2066(2) 0.2423(4)
N6 N 0.1409(3) 0.3218(3) 0.2378(4)
C3 C 0.2237(4) 0.3689(3) 0.0008(5)
H1 H 0.2582 0.4077 0.0075
C4 C 0.2628(4) 0.3043(3) 0.0040(5)
H2 H 0.3211 0.3023 0.0092
C8 C 0.2678(4) 0.1774(3) 0.0159(4)
C9 C 0.6164(4) 0.0413(3) 0.0531(5)
C10 C 0.6487(4) 0.1092(3) 0.0336(4)
C11 C 0.5956(4) 0.1692(3) 0.0142(4)
C13 C 0.7165(4) 0.2400(3) 0.0022(5)
C14 C 0.7649(4) 0.1809(3) 0.0184(5)
H3 H 0.8217 0.1829 0.0192
C15 C 0.7322(4) 0.1166(3) 0.0339(5)
H4 H 0.7683 0.0782 0.0447
C17 C 0.1018(4) 0.0730(3) 0.2274(4)
C18 C 0.0692(4) 0.1443(3) 0.2283(4)
C22 C 0.0836(3) 0.2705(3) 0.2309(4)
C23 C 0.1204(3) 0.2037(3) 0.2332(4)
Cd6 Cd 0.09085(3) 0.59861(2) 0.01429(4)
O24 O 0.3892(3) 0.2054(2) 0.2398(3)
O25 O 0.4979(3) 0.1614(2) 0.2028(3)
H9 H 0.264543 0.020214 0.405904
H15 H 0.432423 0.0842633 0.414084
H16 H 0.350237 0.11769 0.433258
S2 S 0.47847(10) 0.25064(9) 0.97864(14)
O1 O 0.1489(3) 0.4968(2) 0.9989(3)
O2 O 0.0130(3) 0.4515(3) 0.9401(4)
O3 O 0.3340(3) 0.1762(2) 0.9936(4)
O5 O 0.7118(3) 0.3606(2) 0.9830(4)
O6 O 0.8306(3) 0.3056(2) 0.9858(4)
N1 N 0.0029(3) 0.3115(2) 0.9741(4)
N2 N 0.0722(3) 0.1971(3) 0.9819(4)
N4 N 0.5676(3) 0.2847(3) 0.9781(4)
C1 C 0.0981(4) 0.4464(3) 0.9808(6)
C2 C 0.1375(4) 0.3768(3) 0.9885(5)
C5 C 0.2182(4) 0.2444(3) 0.9997(5)
C6 C 0.1282(4) 0.2498(3) 0.9883(4)
C7 C 0.0882(4) 0.3155(3) 0.9839(4)
C12 C 0.6292(4) 0.2343(3) 0.9978(4)
C16 C 0.7553(4) 0.3075(3) 0.9894(4)
Cd5 Cd 0.90915(3) 0.40139(2) 0.98571(4)
O23 O 0.3484(3) 0.0102(2) 0.9675(4)
Cd4 Cd 0.17658(3) 0.94456(2) 0.22725(4)
S3 S 0.25828(10) 0.77346(8) 0.24244(13)
O7 O 0.6516(3) 0.9898(2) 0.0325(4)
O10 O 0.2977(3) 0.9920(2) 0.1992(4)
O11 O 0.6108(3) 0.7054(2) 0.2602(3)
O12 O 0.5021(3) 0.6614(2) 0.2972(3)
O19 O 0.2539(3) 0.9702(2) 0.3977(3)
O20 O 0.0813(3) 0.9298(2) 0.0615(3)
N7 N 0.2819(3) 0.8529(2) 0.2318(4)
N8 N 0.3487(3) 0.7372(2) 0.2520(4)
C25 C 0.3751(4) 0.9826(3) 0.2062(4)
C26 C 0.4128(4) 0.9125(3) 0.2239(4)
C27 C 0.4970(4) 0.9013(3) 0.2300(5)
H7 H 0.5301 0.9385 0.2243
C28 C 0.5358(4) 0.8355(3) 0.2445(5)
H8 H 0.5936 0.8314 0.2487
C29 C 0.4929(4) 0.7779(3) 0.2527(5)
C30 C 0.4041(4) 0.7869(3) 0.2473(4)
C31 C 0.3652(3) 0.8538(3) 0.2338(4)
C32 C 0.5384(4) 0.7093(3) 0.2706(5)
Cd7 Cd 0.56829(3) 0.59204(2) 0.43277(3)
Cd9 Cd 0.70038(3) 0.61395(2) 0.27549(3)
O26 O 0.1081(3) 0.8516(2) 0.2525(4)
H10 H 0.218283 0.955518 0.435632
H13 H 0.108934 0.898698 0.028192
H14 H 0.0246911 0.909616 0.0580512
Cd8 Cd 0.56829(3) 0.90796(2) 0.93277(3)
O15 O 0.8919(3) 0.3516(2) 0.2475(4)
O16 O 0.9649(3) 0.3921(2) 0.1579(3)
C19 C 0.9855(4) 0.1540(3) 0.2252(5)
H5 H 0.9513 0.1160 0.2244
C20 C 0.9495(4) 0.2195(3) 0.2233(4)
H6 H 0.8926 0.2230 0.2218
C21 C 0.9946(4) 0.2782(3) 0.2233(4)
C24 C 0.9475(4) 0.3469(3) 0.2083(4)
Cd10 Cd 0.82342(3) 0.44456(2) 0.27275(4)
O21 O 0.8511(3) 0.5032(2) 0.0011(3)
S1 S 0.97936(10) 0.23011(8) 0.97141(13)
O17 O 0.8286(3) 0.4065(3) 0.8122(4)
H11 H 0.860066 0.380071 0.77803
H12 H 0.768578 0.386742 0.794843
O21_2 O 0.1489(3) 0.0032(2) 0.4989(3)
Cd1 Cd 0.09085(3) 0.90139(2) 0.51429(4)
S1_2 S 0.02064(10) 0.73011(8) 0.52859(13)
O16_2 O 0.0351(3) 0.8921(2) 0.3421(3)
O17_2 O 0.1714(3) 0.9065(3) 0.6878(4)
C19_2 C 0.0145(4) 0.6540(3) 0.2748(5)
H5_2 H 0.0487 0.6160 0.2756
C20_2 C 0.0505(4) 0.7195(3) 0.2767(4)
H6_2 H 0.1074 0.7230 0.2782
C21_2 C 0.0054(4) 0.7782(3) 0.2767(4)
C24_2 C 0.0525(4) 0.8469(3) 0.2917(4)
O22 O 0.1694(3) 0.8056(2) 0.5142(4)
H11_2 H 0.139934 0.880071 0.72197
H12_2 H 0.231422 0.886742 0.705157
Cd6_2 Cd 0.90915(3) 0.09861(2) 0.48571(4)
S2_2 S 0.52153(10) 0.75064(9) 0.52136(14)
S3_2 S 0.74172(10) 0.27346(8) 0.25756(13)
S4_2 S 0.76670(10) 0.78691(8) 0.25181(13)
O1_2 O 0.8511(3) 0.9968(2) 0.5011(3)
O2_2 O 0.9870(3) 0.9515(3) 0.5599(4)
O3_2 O 0.6660(3) 0.6762(2) 0.5064(4)
O4_2 O 0.7557(3) 0.6286(2) 0.4445(3)
O5_2 O 0.2882(3) 0.8606(2) 0.5170(4)
O7_2 O 0.3484(3) 0.4898(2) 0.4675(4)
O8_2 O 0.4399(3) 0.5384(2) 0.4102(4)
O9_2 O 0.5772(3) 0.5311(2) 0.2987(3)
O10_2 O 0.7023(3) 0.4920(2) 0.3008(4)
O13_2 O 0.8282(3) 0.5637(2) 0.2853(4)
O14_2 O 0.9404(3) 0.5240(2) 0.2610(4)
O18_2 O 0.6331(3) 0.5842(3) 0.1076(4)
O19_2 O 0.7461(3) 0.4702(2) 0.1023(3)
O20_2 O 0.9187(3) 0.4298(2) 0.4385(3)
N1_2 N 0.9971(3) 0.8115(2) 0.5259(4)
N2_2 N 0.9278(3) 0.6971(3) 0.5181(4)
N3_2 N 0.4893(3) 0.6717(3) 0.4961(4)
N4_2 N 0.4324(3) 0.7847(3) 0.5219(4)
N5_2 N 0.7939(3) 0.7066(2) 0.2577(4)
N6_2 N 0.8591(3) 0.8218(3) 0.2622(4)
N7_2 N 0.7181(3) 0.3529(2) 0.2682(4)
N8_2 N 0.6513(3) 0.2372(2) 0.2480(4)
C1_2 C 0.9019(4) 0.9464(3) 0.5192(6)
C2_2 C 0.8625(4) 0.8768(3) 0.5115(5)
C3_2 C 0.7763(4) 0.8689(3) 0.4992(5)
H1_2 H 0.7418 0.9077 0.4925
C4_2 C 0.7372(4) 0.8043(3) 0.4960(5)
H2_2 H 0.6789 0.8023 0.4908
C5_2 C 0.7818(4) 0.7444(3) 0.5003(5)
C6_2 C 0.8718(4) 0.7498(3) 0.5117(4)
C7_2 C 0.9118(4) 0.8155(3) 0.5161(4)
C8_2 C 0.7322(4) 0.6774(3) 0.4841(4)
C9_2 C 0.3836(4) 0.5413(3) 0.4469(5)
C10_2 C 0.3513(4) 0.6092(3) 0.4664(4)
C11_2 C 0.4044(4) 0.6692(3) 0.4858(4)
C12_2 C 0.3708(4) 0.7343(3) 0.5022(4)
C13_2 C 0.2835(4) 0.7400(3) 0.4978(5)
C14_2 C 0.2351(4) 0.6809(3) 0.4816(5)
H3_2 H 0.1783 0.6829 0.4808
C15_2 C 0.2678(4) 0.6166(3) 0.4661(5)
H4_2 H 0.2317 0.5782 0.4553
C16_2 C 0.2447(4) 0.8075(3) 0.5106(4)
C17_2 C 0.8982(4) 0.5730(3) 0.2726(4)
C18_2 C 0.9308(4) 0.6443(3) 0.2717(4)
C22_2 C 0.9164(3) 0.7705(3) 0.2691(4)
C23_2 C 0.8796(3) 0.7037(3) 0.2668(4)
C25_2 C 0.6249(4) 0.4826(3) 0.2938(4)
C26_2 C 0.5872(4) 0.4125(3) 0.2761(4)
C27_2 C 0.5030(4) 0.4013(3) 0.2700(5)
H7_2 H 0.4699 0.4385 0.2757
C28_2 C 0.4642(4) 0.3355(3) 0.2555(5)
H8_2 H 0.4064 0.3314 0.2513
C29_2 C 0.5071(4) 0.2779(3) 0.2473(5)
C30_2 C 0.5959(4) 0.2869(3) 0.2527(4)
C31_2 C 0.6348(3) 0.3538(3) 0.2662(4)
C32_2 C 0.4616(4) 0.2093(3) 0.2294(5)
Cd8_2 Cd 0.43171(3) 0.40796(2) 0.56723(3)
O23_2 O 0.6516(3) 0.5102(2) 0.5325(4)
H9_2 H 0.735457 0.520214 0.0940958
H10_2 H 0.781717 0.455518 0.0643684
H13_2 H 0.891066 0.398698 0.471808
H14_2 H 0.975309 0.409616 0.441949
H15_2 H 0.567577 0.584263 0.0859159
H16_2 H 0.649763 0.61769 0.0667422
S1_3 S 0.02064(10) 0.76989(8) 0.02859(13)
O17_3 O 0.1714(3) 0.5935(3) 0.1878(4)
O22_2 O 0.1694(3) 0.6944(2) 0.0142(4)
H11_3 H 0.139934 0.619929 0.22197
H12_3 H 0.231422 0.613258 0.205157
O15_2 O 0.1081(3) 0.6484(2) 0.7525(4)
O16_3 O 0.0351(3) 0.6079(2) 0.8421(3)
C19_3 C 0.0145(4) 0.8460(3) 0.7748(5)
H5_3 H 0.0487 0.8840 0.7756
C20_3 C 0.0505(4) 0.7805(3) 0.7767(4)
H6_3 H 0.1074 0.7770 0.7782
C21_3 C 0.0054(4) 0.7218(3) 0.7767(4)
C24_3 C 0.0525(4) 0.6531(3) 0.7917(4)
Cd10_2 Cd 0.17658(3) 0.55544(2) 0.72725(4)
Cd4_2 Cd 0.82342(3) 0.05544(2) 0.77275(4)
S3_3 S 0.74172(10) 0.22654(8) 0.75756(13)
O10_3 O 0.7023(3) 0.0080(2) 0.8008(4)
O11_2 O 0.3892(3) 0.2946(2) 0.7398(3)
O12_2 O 0.4979(3) 0.3386(2) 0.7028(3)
O19_3 O 0.7461(3) 0.0298(2) 0.6023(3)
O20_3 O 0.9187(3) 0.0702(2) 0.9385(3)
N7_3 N 0.7181(3) 0.1471(2) 0.7682(4)
N8_3 N 0.6513(3) 0.2628(2) 0.7480(4)
C25_3 C 0.6249(4) 0.0174(3) 0.7938(4)
C26_3 C 0.5872(4) 0.0875(3) 0.7761(4)
C27_3 C 0.5030(4) 0.0987(3) 0.7700(5)
H7_3 H 0.4699 0.0615 0.7757
C28_3 C 0.4642(4) 0.1645(3) 0.7555(5)
H8_3 H 0.4064 0.1686 0.7513
C29_3 C 0.5071(4) 0.2221(3) 0.7473(5)
C30_3 C 0.5959(4) 0.2131(3) 0.7527(4)
C31_3 C 0.6348(3) 0.1462(3) 0.7662(4)
C32_3 C 0.4616(4) 0.2907(3) 0.7294(5)
Cd9_2 Cd 0.29962(3) 0.38605(2) 0.72451(3)
O26_2 O 0.8919(3) 0.1484(2) 0.7475(4)
H10_3 H 0.781717 0.0444822 0.564368
H13_3 H 0.891066 0.101302 0.971808
H14_3 H 0.975309 0.0903835 0.941949
S2_3 S 0.52153(10) 0.74936(9) 0.02136(14)
O2_3 O 0.9870(3) 0.5485(3) 0.0599(4)
O3_3 O 0.6660(3) 0.8238(2) 0.0064(4)
O5_3 O 0.2882(3) 0.6394(2) 0.0170(4)
N1_3 N 0.9971(3) 0.6885(2) 0.0259(4)
N2_3 N 0.9278(3) 0.8029(3) 0.0181(4)
N4_3 N 0.4324(3) 0.7153(3) 0.0219(4)
C1_3 C 0.9019(4) 0.5536(3) 0.0192(6)
C2_3 C 0.8625(4) 0.6232(3) 0.0115(5)
C5_3 C 0.7818(4) 0.7556(3) 0.0003(5)
C6_3 C 0.8718(4) 0.7502(3) 0.0117(4)
C7_3 C 0.9118(4) 0.6845(3) 0.0161(4)
C12_3 C 0.3708(4) 0.7657(3) 0.0022(4)
C16_3 C 0.2447(4) 0.6925(3) 0.0106(4)
Cd3_2 Cd 0.70038(3) 0.88605(2) 0.77549(3)
S4_3 S 0.76670(10) 0.71309(8) 0.75181(13)
O4_3 O 0.7557(3) 0.8714(2) 0.9445(3)
O8_3 O 0.4399(3) 0.9616(2) 0.9102(4)
O9_3 O 0.5772(3) 0.9689(2) 0.7987(3)
O13_3 O 0.8282(3) 0.9363(2) 0.7853(4)
O14_3 O 0.9404(3) 0.9760(2) 0.7610(4)
O18_3 O 0.6331(3) 0.9158(3) 0.6076(4)
N3_3 N 0.4893(3) 0.8283(3) 0.9961(4)
N5_3 N 0.7939(3) 0.7934(2) 0.7577(4)
N6_3 N 0.8591(3) 0.6782(3) 0.7622(4)
C3_3 C 0.7763(4) 0.6311(3) 0.9992(5)
H1_3 H 0.7418 0.5923 0.9925
C4_3 C 0.7372(4) 0.6957(3) 0.9960(5)
H2_3 H 0.6789 0.6977 0.9908
C8_3 C 0.7322(4) 0.8226(3) 0.9841(4)
C9_3 C 0.3836(4) 0.9587(3) 0.9469(5)
C10_3 C 0.3513(4) 0.8908(3) 0.9664(4)
C11_3 C 0.4044(4) 0.8308(3) 0.9858(4)
C13_3 C 0.2835(4) 0.7600(3) 0.9978(5)
C14_3 C 0.2351(4) 0.8191(3) 0.9816(5)
H3_3 H 0.1783 0.8171 0.9808
C15_3 C 0.2678(4) 0.8834(3) 0.9661(5)
H4_3 H 0.2317 0.9218 0.9553
C17_3 C 0.8982(4) 0.9270(3) 0.7726(4)
C18_3 C 0.9308(4) 0.8557(3) 0.7717(4)
C22_3 C 0.9164(3) 0.7295(3) 0.7691(4)
C23_3 C 0.8796(3) 0.7963(3) 0.7668(4)
O24_2 O 0.6108(3) 0.7946(2) 0.7602(3)
O25_2 O 0.5021(3) 0.8386(2) 0.7972(3)
H9_3 H 0.735457 0.979786 0.594096
H15_3 H 0.567577 0.915737 0.585916
H16_3 H 0.649763 0.88231 0.566742
S2_4 S 0.47847(10) 0.24936(9) 0.47864(14)
S3_4 S 0.25828(10) 0.72654(8) 0.74244(13)
S4_4 S 0.23330(10) 0.21309(8) 0.74819(13)
O2_4 O 0.0130(3) 0.0485(3) 0.4401(4)
O3_4 O 0.3340(3) 0.3238(2) 0.4936(4)
O4_4 O 0.2443(3) 0.3714(2) 0.5555(3)
O5_4 O 0.7118(3) 0.1394(2) 0.4830(4)
O6_2 O 0.8306(3) 0.1944(2) 0.4858(4)
O8_4 O 0.5601(3) 0.4616(2) 0.5898(4)
O9_4 O 0.4228(3) 0.4689(2) 0.7013(3)
O10_4 O 0.2977(3) 0.5080(2) 0.6992(4)
O13_4 O 0.1718(3) 0.4363(2) 0.7147(4)
O14_4 O 0.0596(3) 0.4760(2) 0.7390(4)
O18_4 O 0.3669(3) 0.4158(3) 0.8924(4)
O19_4 O 0.2539(3) 0.5298(2) 0.8977(3)
O20_4 O 0.0813(3) 0.5702(2) 0.5615(3)
N1_4 N 0.0029(3) 0.1885(2) 0.4741(4)
N2_4 N 0.0722(3) 0.3029(3) 0.4819(4)
N3_4 N 0.5107(3) 0.3283(3) 0.5039(4)
N4_4 N 0.5676(3) 0.2153(3) 0.4781(4)
N5_4 N 0.2061(3) 0.2934(2) 0.7423(4)
N6_4 N 0.1409(3) 0.1782(3) 0.7378(4)
N7_4 N 0.2819(3) 0.6471(2) 0.7318(4)
N8_4 N 0.3487(3) 0.7628(2) 0.7520(4)
C1_4 C 0.0981(4) 0.0536(3) 0.4808(6)
C2_4 C 0.1375(4) 0.1232(3) 0.4885(5)
C3_4 C 0.2237(4) 0.1311(3) 0.5008(5)
H1_4 H 0.2582 0.0923 0.5075
C4_4 C 0.2628(4) 0.1957(3) 0.5040(5)
H2_4 H 0.3211 0.1977 0.5092
C5_4 C 0.2182(4) 0.2556(3) 0.4997(5)
C6_4 C 0.1282(4) 0.2502(3) 0.4883(4)
C7_4 C 0.0882(4) 0.1845(3) 0.4839(4)
C8_4 C 0.2678(4) 0.3226(3) 0.5159(4)
C9_4 C 0.6164(4) 0.4587(3) 0.5531(5)
C10_4 C 0.6487(4) 0.3908(3) 0.5336(4)
C11_4 C 0.5956(4) 0.3308(3) 0.5142(4)
C12_4 C 0.6292(4) 0.2657(3) 0.4978(4)
C13_4 C 0.7165(4) 0.2600(3) 0.5022(5)
C14_4 C 0.7649(4) 0.3191(3) 0.5184(5)
H3_4 H 0.8217 0.3171 0.5192
C15_4 C 0.7322(4) 0.3834(3) 0.5339(5)
H4_4 H 0.7683 0.4218 0.5447
C16_4 C 0.7553(4) 0.1925(3) 0.4894(4)
C17_4 C 0.1018(4) 0.4270(3) 0.7274(4)
C18_4 C 0.0692(4) 0.3557(3) 0.7283(4)
C22_4 C 0.0836(3) 0.2295(3) 0.7309(4)
C23_4 C 0.1204(3) 0.2963(3) 0.7332(4)
C25_4 C 0.3751(4) 0.5174(3) 0.7062(4)
C26_4 C 0.4128(4) 0.5875(3) 0.7239(4)
C27_4 C 0.4970(4) 0.5987(3) 0.7300(5)
H7_4 H 0.5301 0.5615 0.7243
C28_4 C 0.5358(4) 0.6645(3) 0.7445(5)
H8_4 H 0.5936 0.6686 0.7487
C29_4 C 0.4929(4) 0.7221(3) 0.7527(5)
C30_4 C 0.4041(4) 0.7131(3) 0.7473(4)
C31_4 C 0.3652(3) 0.6462(3) 0.7338(4)
C32_4 C 0.5384(4) 0.7907(3) 0.7706(5)
H9_4 H 0.264543 0.479786 0.905904
H10_4 H 0.218283 0.544482 0.935632
H13_4 H 0.108934 0.601302 0.528192
H14_4 H 0.0246911 0.590384 0.558051
H15_4 H 0.432423 0.415737 0.914084
H16_4 H 0.350237 0.38231 0.933258
S1_4 S 0.97936(10) 0.26989(8) 0.47141(13)
O16_4 O 0.9649(3) 0.1079(2) 0.6579(3)
O17_4 O 0.8286(3) 0.0935(3) 0.3122(4)
C19_4 C 0.9855(4) 0.3460(3) 0.7252(5)
H5_4 H 0.9513 0.3840 0.7244
C20_4 C 0.9495(4) 0.2805(3) 0.7233(4)
H6_4 H 0.8926 0.2770 0.7218
C21_4 C 0.9946(4) 0.2218(3) 0.7233(4)
C24_4 C 0.9475(4) 0.1531(3) 0.7083(4)
H11_4 H 0.860066 0.119929 0.27803
H12_4 H 0.768578 0.113258 0.294843
loop_
_geom_bond_atom_site_label_1
_geom_bond_atom_site_label_2
_geom_bond_site_symmetry_1
_geom_bond_site_symmetry_2
Cd3 O4 1_555 1_555
S4 N5 1_555 1_555
O4 C8 1_555 1_555
O8 Cd2 1_555 1_555
O9 Cd2 1_555 1_555
O13 Cd3 1_555 1_555
O18 Cd3 1_555 1_555
N3 Cd2 1_555 1_555
N5 Cd3 1_555 1_555
N6 S4 1_555 1_555
C3 H1 1_555 1_555
C4 C3 1_555 1_555
H2 C4 1_555 1_555
C9 O8 1_555 1_555
C10 C9 1_555 1_555
C11 N3 1_555 1_555
C14 C13 1_555 1_555
H3 C14 1_555 1_555
C15 C10 1_555 1_555
H4 C15 1_555 1_555
C17 O13 1_555 1_555
C18 C17 1_555 1_555
C22 N6 1_555 1_555
C23 N5 1_555 1_555
O24 Cd3 1_555 1_555
O25 Cd2 1_555 1_555
Cd3 O9 1_555 1_555
O14 C17 1_555 1_555
C10 C11 1_555 1_555
C14 C15 1_555 1_555
C18 C23 1_555 1_555
C22 C23 1_555 1_555
O18 H15 1_555 1_555
O18 H16 1_555 1_555
O1 C1 1_555 1_555
O2 C1 1_555 1_555
O5 C16 1_555 1_555
O6 C16 1_555 1_555
N4 S2 1_555 1_555
C1 C2 1_555 1_555
C6 N2 1_555 1_555
C7 N1 1_555 1_555
C12 N4 1_555 1_555
Cd5 O6 1_555 1_555
C2 C7 1_555 1_555
C5 C6 1_555 1_555
C6 C7 1_555 1_555
Cd4 O10 1_555 1_555
S3 N7 1_555 1_555
O11 C32 1_555 1_555
O12 C32 1_555 1_555
O19 Cd4 1_555 1_555
O20 Cd4 1_555 1_555
N7 Cd4 1_555 1_555
N8 S3 1_555 1_555
C26 C25 1_555 1_555
C27 C26 1_555 1_555
H7 C27 1_555 1_555
C28 C27 1_555 1_555
H8 C28 1_555 1_555
C29 C28 1_555 1_555
C30 N8 1_555 1_555
C31 N7 1_555 1_555
C32 C29 1_555 1_555
Cd7 O12 1_555 1_555
Cd9 O11 1_555 1_555
O26 Cd4 1_555 1_555
O10 C25 1_555 1_555
C26 C31 1_555 1_555
C29 C30 1_555 1_555
C30 C31 1_555 1_555
O19 H10 1_555 1_555
O20 H13 1_555 1_555
O20 H14 1_555 1_555
O15 C24 1_555 1_555
H5 C19 1_555 1_555
C20 C19 1_555 1_555
H6 C20 1_555 1_555
C21 C20 1_555 1_555
C24 O16 1_555 1_555
Cd10 O15 1_555 1_555
C21 C24 1_555 1_555
O17 Cd5 1_555 1_555
O17 H11 1_555 1_555
O17 H12 1_555 1_555
O26 C24_2 1_555 1_555
O16_2 Cd1 1_555 1_555
O17_2 Cd1 1_555 1_555
H5_2 C19_2 1_555 1_555
C20_2 C19_2 1_555 1_555
H6_2 C20_2 1_555 1_555
C21_2 C20_2 1_555 1_555
C24_2 O16_2 1_555 1_555
O22 Cd1 1_555 1_555
C21_2 C24_2 1_555 1_555
O17_2 H11_2 1_555 1_555
O17_2 H12_2 1_555 1_555
Cd7 O3_2 1_555 1_555
Cd9 O4_2 1_555 1_555
Cd10 O10_2 1_555 1_555
S2_2 N3_2 1_555 1_555
S3_2 N7_2 1_555 1_555
S4_2 N5_2 1_555 1_555
O1_2 C1_2 1_555 1_555
O2_2 C1_2 1_555 1_555
O3_2 C8_2 1_555 1_555
O4_2 C8_2 1_555 1_555
O5_2 C16_2 1_555 1_555
O22 C16_2 1_555 1_555
O7_2 C9_2 1_555 1_555
O8_2 Cd7 1_555 1_555
O9_2 Cd7 1_555 1_555
O10_2 Cd9 1_555 1_555
O24 C32_2 1_555 1_555
O25 C32_2 1_555 1_555
O13_2 Cd9 1_555 1_555
O14_2 Cd10 1_555 1_555
O18_2 Cd9 1_555 1_555
O19_2 Cd10 1_555 1_555
O20_2 Cd10 1_555 1_555
N3_2 Cd7 1_555 1_555
N4_2 S2_2 1_555 1_555
N5_2 Cd9 1_555 1_555
N6_2 S4_2 1_555 1_555
N7_2 Cd10 1_555 1_555
N8_2 S3_2 1_555 1_555
C1_2 C2_2 1_555 1_555
C2_2 C3_2 1_555 1_555
C3_2 H1_2 1_555 1_555
C4_2 C3_2 1_555 1_555
H2_2 C4_2 1_555 1_555
C5_2 C4_2 1_555 1_555
C6_2 N2_2 1_555 1_555
C7_2 N1_2 1_555 1_555
C8_2 C5_2 1_555 1_555
C9_2 O8_2 1_555 1_555
C10_2 C9_2 1_555 1_555
C11_2 N3_2 1_555 1_555
C12_2 N4_2 1_555 1_555
C13_2 C12_2 1_555 1_555
C14_2 C13_2 1_555 1_555
H3_2 C14_2 1_555 1_555
C15_2 C10_2 1_555 1_555
H4_2 C15_2 1_555 1_555
C16_2 C13_2 1_555 1_555
C17_2 O13_2 1_555 1_555
C18_2 C17_2 1_555 1_555
C22_2 N6_2 1_555 1_555
C23_2 N5_2 1_555 1_555
C25_2 O9_2 1_555 1_555
C26_2 C25_2 1_555 1_555
C27_2 C26_2 1_555 1_555
H7_2 C27_2 1_555 1_555
C28_2 C27_2 1_555 1_555
H8_2 C28_2 1_555 1_555
C29_2 C28_2 1_555 1_555
C30_2 N8_2 1_555 1_555
C31_2 N7_2 1_555 1_555
C32_2 C29_2 1_555 1_555
Cd8_2 O7_2 1_555 1_555
O23_2 Cd7 1_555 1_555
Cd9 O9_2 1_555 1_555
Cd10 O13_2 1_555 1_555
O10_2 C25_2 1_555 1_555
O14_2 C17_2 1_555 1_555
C2_2 C7_2 1_555 1_555
C5_2 C6_2 1_555 1_555
C6_2 C7_2 1_555 1_555
C10_2 C11_2 1_555 1_555
C11_2 C12_2 1_555 1_555
C14_2 C15_2 1_555 1_555
C18_2 C23_2 1_555 1_555
C22_2 C23_2 1_555 1_555
C26_2 C31_2 1_555 1_555
C29_2 C30_2 1_555 1_555
C30_2 C31_2 1_555 1_555
O19_2 H9_2 1_555 1_555
O19_2 H10_2 1_555 1_555
O20_2 H13_2 1_555 1_555
O20_2 H14_2 1_555 1_555
O18_2 H15_2 1_555 1_555
O18_2 H16_2 1_555 1_555
O17_3 Cd6 1_555 1_555
O22_2 Cd6 1_555 1_555
O17_3 H11_3 1_555 1_555
O17_3 H12_3 1_555 1_555
O15_2 C24_3 1_555 1_555
H5_3 C19_3 1_555 1_555
C20_3 C19_3 1_555 1_555
H6_3 C20_3 1_555 1_555
C21_3 C20_3 1_555 1_555
C24_3 O16_3 1_555 1_555
Cd10_2 O15_2 1_555 1_555
C21_3 C24_3 1_555 1_555
Cd4_2 O10_3 1_555 1_555
S3_3 N7_3 1_555 1_555
O11_2 C32_3 1_555 1_555
O12_2 C32_3 1_555 1_555
O19_3 Cd4_2 1_555 1_555
O20_3 Cd4_2 1_555 1_555
N7_3 Cd4_2 1_555 1_555
N8_3 S3_3 1_555 1_555
C26_3 C25_3 1_555 1_555
C27_3 C26_3 1_555 1_555
H7_3 C27_3 1_555 1_555
C28_3 C27_3 1_555 1_555
H8_3 C28_3 1_555 1_555
C29_3 C28_3 1_555 1_555
C30_3 N8_3 1_555 1_555
C31_3 N7_3 1_555 1_555
C32_3 C29_3 1_555 1_555
Cd8_2 O12_2 1_555 1_555
Cd9_2 O11_2 1_555 1_555
O26_2 Cd4_2 1_555 1_555
O10_3 C25_3 1_555 1_555
C26_3 C31_3 1_555 1_555
C29_3 C30_3 1_555 1_555
C30_3 C31_3 1_555 1_555
O19_3 H10_3 1_555 1_555
O20_3 H13_3 1_555 1_555
O20_3 H14_3 1_555 1_555
O21 C1_3 1_555 1_555
O2_3 C1_3 1_555 1_555
O5_3 C16_3 1_555 1_555
O22_2 C16_3 1_555 1_555
N4_3 S2_3 1_555 1_555
C1_3 C2_3 1_555 1_555
C6_3 N2_3 1_555 1_555
C7_3 N1_3 1_555 1_555
C12_3 N4_3 1_555 1_555
C2_3 C7_3 1_555 1_555
C5_3 C6_3 1_555 1_555
C6_3 C7_3 1_555 1_555
Cd3_2 O4_3 1_555 1_555
S4_3 N5_3 1_555 1_555
O4_3 C8_3 1_555 1_555
O8_3 Cd8 1_555 1_555
O9_3 Cd8 1_555 1_555
O13_3 Cd3_2 1_555 1_555
O18_3 Cd3_2 1_555 1_555
N3_3 Cd8 1_555 1_555
N5_3 Cd3_2 1_555 1_555
N6_3 S4_3 1_555 1_555
C3_3 H1_3 1_555 1_555
C4_3 C3_3 1_555 1_555
H2_3 C4_3 1_555 1_555
C9_3 O8_3 1_555 1_555
C10_3 C9_3 1_555 1_555
C11_3 N3_3 1_555 1_555
C14_3 C13_3 1_555 1_555
H3_3 C14_3 1_555 1_555
C15_3 C10_3 1_555 1_555
H4_3 C15_3 1_555 1_555
C17_3 O13_3 1_555 1_555
C18_3 C17_3 1_555 1_555
C22_3 N6_3 1_555 1_555
C23_3 N5_3 1_555 1_555
O24_2 Cd3_2 1_555 1_555
O25_2 Cd8 1_555 1_555
Cd3_2 O9_3 1_555 1_555
O14_3 C17_3 1_555 1_555
C10_3 C11_3 1_555 1_555
C14_3 C15_3 1_555 1_555
C18_3 C23_3 1_555 1_555
C22_3 C23_3 1_555 1_555
O18_3 H15_3 1_555 1_555
O18_3 H16_3 1_555 1_555
Cd8_2 O3_4 1_555 1_555
Cd9_2 O4_4 1_555 1_555
Cd10_2 O10_4 1_555 1_555
S2_4 N3_4 1_555 1_555
S3_4 N7_4 1_555 1_555
S4_4 N5_4 1_555 1_555
O21_2 C1_4 1_555 1_555
O2_4 C1_4 1_555 1_555
O3_4 C8_4 1_555 1_555
O4_4 C8_4 1_555 1_555
O5_4 C16_4 1_555 1_555
O6_2 C16_4 1_555 1_555
O23_2 C9_4 1_555 1_555
O8_4 Cd8_2 1_555 1_555
O9_4 Cd8_2 1_555 1_555
O10_4 Cd9_2 1_555 1_555
O24_2 C32_4 1_555 1_555
O25_2 C32_4 1_555 1_555
O13_4 Cd9_2 1_555 1_555
O14_4 Cd10_2 1_555 1_555
O18_4 Cd9_2 1_555 1_555
O19_4 Cd10_2 1_555 1_555
O20_4 Cd10_2 1_555 1_555
N3_4 Cd8_2 1_555 1_555
N4_4 S2_4 1_555 1_555
N5_4 Cd9_2 1_555 1_555
N6_4 S4_4 1_555 1_555
N7_4 Cd10_2 1_555 1_555
N8_4 S3_4 1_555 1_555
C1_4 C2_4 1_555 1_555
C2_4 C3_4 1_555 1_555
C3_4 H1_4 1_555 1_555
C4_4 C3_4 1_555 1_555
H2_4 C4_4 1_555 1_555
C5_4 C4_4 1_555 1_555
C6_4 N2_4 1_555 1_555
C7_4 N1_4 1_555 1_555
C8_4 C5_4 1_555 1_555
C9_4 O8_4 1_555 1_555
C10_4 C9_4 1_555 1_555
C11_4 N3_4 1_555 1_555
C12_4 N4_4 1_555 1_555
C13_4 C12_4 1_555 1_555
C14_4 C13_4 1_555 1_555
H3_4 C14_4 1_555 1_555
C15_4 C10_4 1_555 1_555
H4_4 C15_4 1_555 1_555
C16_4 C13_4 1_555 1_555
C17_4 O13_4 1_555 1_555
C18_4 C17_4 1_555 1_555
C22_4 N6_4 1_555 1_555
C23_4 N5_4 1_555 1_555
C25_4 O9_4 1_555 1_555
C26_4 C25_4 1_555 1_555
C27_4 C26_4 1_555 1_555
H7_4 C27_4 1_555 1_555
C28_4 C27_4 1_555 1_555
H8_4 C28_4 1_555 1_555
C29_4 C28_4 1_555 1_555
C30_4 N8_4 1_555 1_555
C31_4 N7_4 1_555 1_555
C32_4 C29_4 1_555 1_555
Cd6_2 O6_2 1_555 1_555
Cd9_2 O9_4 1_555 1_555
Cd10_2 O13_4 1_555 1_555
O10_4 C25_4 1_555 1_555
O14_4 C17_4 1_555 1_555
C2_4 C7_4 1_555 1_555
C5_4 C6_4 1_555 1_555
C6_4 C7_4 1_555 1_555
C10_4 C11_4 1_555 1_555
C11_4 C12_4 1_555 1_555
C14_4 C15_4 1_555 1_555
C18_4 C23_4 1_555 1_555
C22_4 C23_4 1_555 1_555
C26_4 C31_4 1_555 1_555
C29_4 C30_4 1_555 1_555
C30_4 C31_4 1_555 1_555
O19_4 H9_4 1_555 1_555
O19_4 H10_4 1_555 1_555
O20_4 H13_4 1_555 1_555
O20_4 H14_4 1_555 1_555
O18_4 H15_4 1_555 1_555
O18_4 H16_4 1_555 1_555
O26_2 C24_4 1_555 1_555
O16_4 Cd6_2 1_555 1_555
O17_4 Cd6_2 1_555 1_555
H5_4 C19_4 1_555 1_555
C20_4 C19_4 1_555 1_555
H6_4 C20_4 1_555 1_555
C21_4 C20_4 1_555 1_555
C24_4 O16_4 1_555 1_555
C21_4 C24_4 1_555 1_555
O17_4 H11_4 1_555 1_555
O17_4 H12_4 1_555 1_555

#END
