
###############################################################################
#
# This file contains modified crystal structure data generated from the
# MOF subset of the Cambridge Structural Database (CSD) v543 
# hosted by the Cambridge Crystallographic Data Centre (CCDC).
#
# This work is licensed under the Creative Commons
# Attribution-NonCommercial-ShareAlike 4.0 International License.
# To view a copy of this license, visit
# http://creativecommons.org/licenses/by-nc-sa/4.0/
# or send a letter to
# Creative Commons, PO Box 1866, Mountain View, CA 94042, USA.
#
# CIF created using the CSD Python API on 29 September 2022
# The structure has been converted into the P1 space group
# The structure has a 3D framework
# The original CSD entry JUSBUW is in the monoclinic crystal system
# The framework has been calculated to contain at least 10.0% void space
# The void calculation uses a probe of radius 1.32A, grid spacing 0.4
#
###############################################################################

data_JUSBUW
_chemical_formula_moiety         '(C368 H256 Co16 N64 O68)n'
_symmetry_cell_setting           triclinic
_symmetry_space_group_name_H-M   'P 1'
_symmetry_Int_Tables_number      1
_space_group_name_Hall           'P 1'
loop_
_symmetry_equiv_pos_site_id
_symmetry_equiv_pos_as_xyz
1 x,y,z
_cell_length_a                   42.545(3)
_cell_length_b                   11.2586(7)
_cell_length_c                   23.7342(14)
_cell_angle_alpha                90
_cell_angle_beta                 122.0091(16)
_cell_angle_gamma                90
_cell_volume                     9640.17
loop_
_atom_site_label
_atom_site_type_symbol
_atom_site_fract_x
_atom_site_fract_y
_atom_site_fract_z
C1 C 0.11310(19) 0.1897(6) 0.0612(4)
H1 H 0.1389 0.1896 0.0873
C2 C 0.09239(19) 0.1013(6) 0.0209(4)
H2 H 0.1011 0.0306 0.0138
C3 C 0.05701(16) 0.2436(5) 0.0164(3)
H3 H 0.0358 0.2874 0.0044
C13 C 0.1972(3) 0.1100(8) 0.6227(5)
H11 H 0.2030 0.0751 0.6626
C14 C 0.2094(4) 0.0723(9) 0.5844(5)
H12 H 0.2245 0.0070 0.5922
C15 C 0.17529(18) 0.2270(6) 0.5415(3)
H13 H 0.1627 0.2901 0.5131
C16 C 0.15124(19) 0.2849(6) 0.2528(3)
H14 H 0.1732 0.2896 0.2534
C17 C 0.09442(17) 0.3022(5) 0.2231(3)
H15 H 0.0694 0.3221 0.1986
C18 C 0.11150(19) 0.2456(6) 0.2817(3)
H16 H 0.1007 0.2189 0.3047
C19 C 0.1770(2) 0.1861(6) 0.3630(3)
C20 C 0.2082(2) 0.1386(8) 0.3687(4)
H17 H 0.2105 0.1338 0.3319
C21 C 0.2363(3) 0.0977(10) 0.4302(5)
H18 H 0.2585 0.0713 0.4357
C22 C 0.2315(3) 0.0961(9) 0.4833(4)
H19 H 0.2498 0.0641 0.5238
C23 C 0.1998(2) 0.1416(7) 0.4760(3)
C24 C 0.1729(2) 0.1879(6) 0.4169(3)
H20 H 0.1517 0.2207 0.4127
C25 C 0.04619(15) 0.5417(5) 0.1257(3)
C26 C 0.00747(14) 0.5399(5) 0.1124(3)
H23 H 0.0172 0.6562 0.1843
N1 N 0.09080(13) 0.2809(4) 0.0586(2)
N5 N 0.17534(14) 0.2057(4) 0.5953(2)
N6 N 0.19532(17) 0.1479(5) 0.5317(3)
N7 N 0.11921(14) 0.3264(4) 0.2049(2)
N8 N 0.14806(15) 0.2344(5) 0.3012(2)
O1 O 0.06732(12) 0.6206(5) 0.1641(3)
O2 O 0.05518(10) 0.4642(4) 0.09839(19)
O9 O 0.13224(10) 0.5758(4) 0.18630(18)
Co1 Co 0.153133(19) 0.68166(7) 0.13708(3)
Co2 Co 0.109033(19) 0.43003(7) 0.12170(3)
H31 H 0.1487(8) 0.577(7) 0.2257(6)
H32 H 0.1117(6) 0.594(7) 0.179(2)
N9 N 0.12374(14) 0.8237(4) 0.1455(3)
N10 N 0.17534(14) 0.7943(4) 0.0953(2)
O10 O 0.10584(10) 0.5791(3) 0.05918(18)
O11 O 0.16173(10) 0.3879(3) 0.14204(18)
O12 O 0.18327(11) 0.5522(4) 0.1215(2)
O13 O 0.19938(10) 0.7168(4) 0.23101(19)
Co4 Co 0.153133(19) 0.31834(7) 0.63708(3)
C8 C 0.95999(19) 0.0298(6) 0.8910(4)
C9 C 0.98990(16) 0.1037(5) 0.9261(3)
H7 H 0.9862 0.1827 0.9325
C10 C 0.91249(18) 0.1618(5) 0.8879(3)
H8 H 0.9290 0.2091 0.9236
C11 C 0.8910(2) 0.0267(7) 0.8122(4)
C12 C 0.8636(2) 0.0898(7) 0.8069(4)
H10 H 0.8388 0.0774 0.7747
C32 C 0.91536(15) 0.3845(5) 0.9998(3)
H24 H 0.8722 0.6034 0.9901
C39 C 0.80229(14) 0.6474(5) 0.9544(3)
C40 C 0.77880(15) 0.7246(5) 0.9628(3)
C41 C 0.74937(16) 0.7790(5) 0.9103(3)
H29 H 0.7342 0.8286 0.9172
C42 C 0.74158(14) 0.7610(5) 0.8455(3)
C43 C 0.76481(14) 0.6893(5) 0.8369(3)
H30 H 0.7601 0.6780 0.7942
C44 C 0.79525(14) 0.6331(5) 0.8901(3)
C45 C 0.81882(14) 0.5578(6) 0.8751(3)
C46 C 0.70805(16) 0.8190(6) 0.7879(3)
N3 N 0.92283(14) 0.0724(4) 0.8649(3)
N4 N 0.87626(14) 0.1763(4) 0.8545(3)
O4 O 0.89416(10) 0.4209(3) 0.94082(18)
O5 O 0.83827(10) 0.6121(3) 0.85796(18)
O6 O 0.81673(11) 0.4478(4) 0.8785(2)
O7 O 0.69938(10) 0.7832(4) 0.73101(19)
O8 O 0.69173(13) 0.8977(5) 0.8003(2)
Co3 Co 0.846867(19) 0.31834(7) 0.86292(3)
Co5 Co 0.653133(19) 0.81834(7) 0.63708(3)
Co6 Co 0.890967(19) 0.56997(7) 0.87830(3)
C8_2 C 0.04001(19) 0.0298(6) 0.6090(4)
C9_2 C 0.01010(16) 0.1037(5) 0.5739(3)
H7_2 H 0.0138 0.1827 0.5675
C10_2 C 0.08751(18) 0.1618(5) 0.6121(3)
H8_2 H 0.0710 0.2091 0.5764
C11_2 C 0.1090(2) 0.0267(7) 0.6878(4)
C12_2 C 0.1364(2) 0.0898(7) 0.6931(4)
H10_2 H 0.1612 0.0774 0.7253
C27 C 0.02052(14) 0.4708(5) 0.4382(3)
H21 H 0.0154 0.4261 0.4653
C28 C 0.05585(14) 0.4676(5) 0.4489(3)
C29 C 0.06370(15) 0.5343(5) 0.4082(3)
C30 C 0.03582(15) 0.6035(6) 0.3582(3)
H22 H 0.0408 0.6478 0.3307
C31 C 0.00086(16) 0.6075(6) 0.3487(3)
C32_2 C 0.08464(15) 0.3845(5) 0.5002(3)
C33 C 0.10146(14) 0.5355(5) 0.4182(3)
C34 C 0.13119(14) 0.5799(5) 0.4759(3)
H24_2 H 0.1278 0.6034 0.5099
C35 C 0.16630(14) 0.5909(5) 0.4851(3)
C36 C 0.17080(16) 0.5512(5) 0.4344(3)
H25 H 0.1941 0.5552 0.4399
C37 C 0.14167(16) 0.5061(6) 0.3763(3)
H26 H 0.1454 0.4794 0.3432
C38 C 0.10607(16) 0.5003(6) 0.3670(3)
H27 H 0.0859 0.4733 0.3270
C39_2 C 0.19771(14) 0.6474(5) 0.5456(3)
C40_2 C 0.22120(15) 0.7246(5) 0.5372(3)
H28 H 0.2164 0.7384 0.4946
C41_2 C 0.25063(16) 0.7790(5) 0.5897(3)
H29_2 H 0.2658 0.8286 0.5828
C42_2 C 0.25842(14) 0.7610(5) 0.6545(3)
C43_2 C 0.23519(14) 0.6893(5) 0.6631(3)
H30_2 H 0.2399 0.6780 0.7058
C44_2 C 0.20475(14) 0.6331(5) 0.6099(3)
C45_2 C 0.18118(14) 0.5578(6) 0.6249(3)
C46_2 C 0.29195(16) 0.8190(6) 0.7121(3)
N3_2 N 0.07717(14) 0.0724(4) 0.6351(3)
N4_2 N 0.12374(14) 0.1763(4) 0.6455(3)
O3 O 0.08640(13) 0.2837(4) 0.4816(2)
O4_2 O 0.10584(10) 0.4209(3) 0.55918(18)
O5_2 O 0.16173(10) 0.6121(3) 0.64204(18)
O6_2 O 0.18327(11) 0.4478(4) 0.6215(2)
O7_2 O 0.30062(10) 0.7832(4) 0.76899(19)
O8_2 O 0.30827(13) 0.8977(5) 0.6997(2)
Co5_2 Co 0.346867(19) 0.81834(7) 0.86292(3)
Co6_2 Co 0.109033(19) 0.56997(7) 0.62170(3)
C1_2 C 0.88690(19) 0.1897(6) 0.4388(4)
H1_2 H 0.8611 0.1896 0.4127
C2_2 C 0.90761(19) 0.1013(6) 0.4791(4)
H2_2 H 0.8989 0.0306 0.4862
C3_2 C 0.94299(16) 0.2436(5) 0.4836(3)
H3_2 H 0.9642 0.2874 0.4956
C4 C 0.97473(19) 0.0622(6) 0.5480(3)
C16_2 C 0.84876(19) 0.2849(6) 0.2472(3)
H14_2 H 0.8268 0.2896 0.2466
C17_2 C 0.90558(17) 0.3022(5) 0.2769(3)
H15_2 H 0.9306 0.3221 0.3014
C18_2 C 0.88850(19) 0.2456(6) 0.2183(3)
H16_2 H 0.8993 0.2189 0.1953
C19_2 C 0.8230(2) 0.1861(6) 0.1370(3)
C20_2 C 0.7918(2) 0.1386(8) 0.1313(4)
H17_2 H 0.7895 0.1338 0.1681
C21_2 C 0.7637(3) 0.0977(10) 0.0698(5)
H18_2 H 0.7415 0.0713 0.0643
C22_2 C 0.7685(3) 0.0961(9) 0.0167(4)
C23_2 C 0.8002(2) 0.1416(7) 0.0240(3)
C24_2 C 0.8271(2) 0.1879(6) 0.0831(3)
H20_2 H 0.8483 0.2207 0.0873
C25_2 C 0.95381(15) 0.5417(5) 0.3743(3)
C26_2 C 0.99253(14) 0.5399(5) 0.3876(3)
H23_2 H 0.9828 0.6562 0.3157
N1_2 N 0.90920(13) 0.2809(4) 0.4414(2)
N2 N 0.94351(13) 0.1340(4) 0.5077(3)
N7_2 N 0.88079(14) 0.3264(4) 0.2951(2)
N8_2 N 0.85194(15) 0.2344(5) 0.1988(2)
O1_2 O 0.93268(12) 0.6206(5) 0.3359(3)
O2_2 O 0.94482(10) 0.4642(4) 0.40161(19)
O9_2 O 0.86776(10) 0.5758(4) 0.31370(18)
Co1_2 Co 0.846867(19) 0.68166(7) 0.36292(3)
Co2_2 Co 0.890967(19) 0.43003(7) 0.37830(3)
H31_2 H 0.8513(8) 0.577(7) 0.2743(6)
H32_2 H 0.8883(6) 0.594(7) 0.321(2)
N9_2 N 0.87626(14) 0.8237(4) 0.3545(3)
N10_2 N 0.82466(14) 0.7943(4) 0.4047(2)
O10_2 O 0.89416(10) 0.5791(3) 0.44082(18)
O11_2 O 0.83827(10) 0.3879(3) 0.35796(18)
O12_2 O 0.81673(11) 0.5522(4) 0.3785(2)
O13_2 O 0.80062(10) 0.7168(4) 0.26899(19)
C13_2 C 0.8028(3) 0.1100(8) 0.8773(5)
H11_2 H 0.7970 0.0751 0.8374
C14_2 C 0.7906(4) 0.0723(9) 0.9156(5)
H12_2 H 0.7755 0.0070 0.9078
C15_2 C 0.82471(18) 0.2270(6) 0.9585(3)
H13_2 H 0.8373 0.2901 0.9869
H19_2 H 0.7502 0.0641 0.9762
N5_2 N 0.82466(14) 0.2057(4) 0.9047(2)
N6_2 N 0.80468(17) 0.1479(5) 0.9683(3)
C25_3 C 0.54619(15) 0.0417(5) 0.1257(3)
C26_3 C 0.50747(14) 0.0399(5) 0.1124(3)
C29_2 C 0.43630(15) 0.0343(5) 0.0918(3)
C30_2 C 0.46418(15) 0.1035(6) 0.1418(3)
H22_2 H 0.4592 0.1478 0.1693
C31_2 C 0.49914(16) 0.1075(6) 0.1513(3)
H23_3 H 0.5172 0.1562 0.1843
C33_2 C 0.39854(14) 0.0355(5) 0.0818(3)
C34_2 C 0.36881(14) 0.0799(5) 0.0241(3)
C35_2 C 0.33370(14) 0.0909(5) 0.0149(3)
C36_2 C 0.32920(16) 0.0512(5) 0.0656(3)
H25_2 H 0.3059 0.0552 0.0601
C37_2 C 0.35833(16) 0.0061(6) 0.1237(3)
C38_2 C 0.39393(16) 0.0003(6) 0.1330(3)
H28_2 H 0.2836 0.2384 0.0054
O1_3 O 0.56732(12) 0.1206(5) 0.1641(3)
O9_3 O 0.63224(10) 0.0758(4) 0.18630(18)
Co1_3 Co 0.653133(19) 0.18166(7) 0.13708(3)
H31_3 H 0.6487(8) 0.077(7) 0.2257(6)
H32_3 H 0.6117(6) 0.094(7) 0.179(2)
N9_3 N 0.62374(14) 0.3237(4) 0.1455(3)
N10_3 N 0.67534(14) 0.2943(4) 0.0953(2)
O10_3 O 0.60584(10) 0.0791(3) 0.05918(18)
O12_3 O 0.68327(11) 0.0522(4) 0.1215(2)
O13_3 O 0.69938(10) 0.2168(4) 0.23101(19)
H24_3 H 0.3722 0.1034 0.9901
C39_3 C 0.30229(14) 0.1474(5) 0.9544(3)
C40_3 C 0.27880(15) 0.2246(5) 0.9628(3)
C41_3 C 0.24937(16) 0.2790(5) 0.9103(3)
H29_3 H 0.2342 0.3286 0.9172
C42_3 C 0.24158(14) 0.2610(5) 0.8455(3)
C43_3 C 0.26481(14) 0.1893(5) 0.8369(3)
H30_3 H 0.2601 0.1780 0.7942
C44_3 C 0.29525(14) 0.1331(5) 0.8901(3)
C45_3 C 0.31882(14) 0.0578(6) 0.8751(3)
C46_3 C 0.20805(16) 0.3190(6) 0.7879(3)
O5_3 O 0.33827(10) 0.1121(3) 0.85796(18)
O7_3 O 0.19938(10) 0.2832(4) 0.73101(19)
O8_3 O 0.19173(13) 0.3977(5) 0.8003(2)
Co6_3 Co 0.390967(19) 0.06997(7) 0.87830(3)
C1_3 C 0.61310(19) 0.6897(6) 0.0612(4)
H1_3 H 0.6389 0.6896 0.0873
C2_3 C 0.59239(19) 0.6013(6) 0.0209(4)
H2_3 H 0.6011 0.5306 0.0138
C3_3 C 0.55701(16) 0.7436(5) 0.0164(3)
H3_3 H 0.5358 0.7874 0.0044
C13_3 C 0.6972(3) 0.6100(8) 0.6227(5)
H11_3 H 0.7030 0.5751 0.6626
C14_3 C 0.7094(4) 0.5723(9) 0.5844(5)
H12_3 H 0.7245 0.5070 0.5922
C15_3 C 0.67529(18) 0.7270(6) 0.5415(3)
H13_3 H 0.6627 0.7901 0.5131
C16_3 C 0.65124(19) 0.7849(6) 0.2528(3)
H14_3 H 0.6732 0.7896 0.2534
C17_3 C 0.59442(17) 0.8022(5) 0.2231(3)
H15_3 H 0.5694 0.8221 0.1986
C18_3 C 0.61150(19) 0.7456(6) 0.2817(3)
H16_3 H 0.6007 0.7189 0.3047
C19_3 C 0.6770(2) 0.6861(6) 0.3630(3)
C20_3 C 0.7082(2) 0.6386(8) 0.3687(4)
H17_3 H 0.7105 0.6338 0.3319
C21_3 C 0.7363(3) 0.5977(10) 0.4302(5)
H18_3 H 0.7585 0.5713 0.4357
C22_3 C 0.7315(3) 0.5961(9) 0.4833(4)
H19_3 H 0.7498 0.5641 0.5238
C23_3 C 0.6998(2) 0.6416(7) 0.4760(3)
C24_3 C 0.6729(2) 0.6879(6) 0.4169(3)
H20_3 H 0.6517 0.7207 0.4127
C27_2 C 0.47948(14) 0.9708(5) 0.0618(3)
H21_2 H 0.4846 0.9261 0.0347
C28_2 C 0.44415(14) 0.9676(5) 0.0511(3)
H26_2 H 0.3546 0.9794 0.1568
H27_2 H 0.4141 0.9733 0.1730
N1_3 N 0.59080(13) 0.7809(4) 0.0586(2)
N5_3 N 0.67534(14) 0.7057(4) 0.5953(2)
N6_3 N 0.69532(17) 0.6479(5) 0.5317(3)
N7_3 N 0.61921(14) 0.8264(4) 0.2049(2)
N8_3 N 0.64806(15) 0.7344(5) 0.3012(2)
O2_3 O 0.55518(10) 0.9642(4) 0.09839(19)
O3_2 O 0.41360(13) 0.7837(4) 0.0184(2)
Co2_3 Co 0.609033(19) 0.93003(7) 0.12170(3)
O11_3 O 0.66173(10) 0.8879(3) 0.14204(18)
C4_2 C 0.52527(19) 0.5622(6) 0.9520(3)
C5 C 0.5302(2) 0.4423(7) 0.9436(4)
H4 H 0.5540 0.4122 0.9615
C6 C 0.5004(3) 0.3693(8) 0.9093(5)
H5 H 0.5040 0.2902 0.9028
C7 C 0.4647(2) 0.4120(7) 0.8839(5)
H6 H 0.4444 0.3613 0.8624
C8_3 C 0.45999(19) 0.5298(6) 0.8910(4)
C9_3 C 0.48990(16) 0.6037(5) 0.9261(3)
H7_3 H 0.4862 0.6827 0.9325
C10_3 C 0.41249(18) 0.6618(5) 0.8879(3)
H8_3 H 0.4290 0.7091 0.9236
C11_3 C 0.3910(2) 0.5267(7) 0.8122(4)
H9 H 0.3891 0.4633 0.7855
C12_3 C 0.3636(2) 0.5898(7) 0.8069(4)
H10_3 H 0.3388 0.5774 0.7747
C32_3 C 0.41536(15) 0.8845(5) 0.9998(3)
N2_2 N 0.55649(13) 0.6340(4) 0.9923(3)
N3_3 N 0.42283(14) 0.5724(4) 0.8649(3)
N4_3 N 0.37626(14) 0.6763(4) 0.8545(3)
O4_3 O 0.39416(10) 0.9209(3) 0.94082(18)
O6_3 O 0.31673(11) 0.9478(4) 0.8785(2)
C25_4 C 0.45381(15) 0.0417(5) 0.3743(3)
C26_4 C 0.49253(14) 0.0399(5) 0.3876(3)
C29_3 C 0.56370(15) 0.0343(5) 0.4082(3)
C30_3 C 0.53582(15) 0.1035(6) 0.3582(3)
H22_3 H 0.5408 0.1478 0.3307
C31_3 C 0.50086(16) 0.1075(6) 0.3487(3)
H23_4 H 0.4828 0.1562 0.3157
C33_3 C 0.60146(14) 0.0355(5) 0.4182(3)
C34_3 C 0.63119(14) 0.0799(5) 0.4759(3)
H24_4 H 0.6278 0.1034 0.5099
C35_3 C 0.66630(14) 0.0909(5) 0.4851(3)
C36_3 C 0.67080(16) 0.0512(5) 0.4344(3)
H25_3 H 0.6941 0.0552 0.4399
C37_3 C 0.64167(16) 0.0061(6) 0.3763(3)
C38_3 C 0.60607(16) 0.0003(6) 0.3670(3)
C39_4 C 0.69771(14) 0.1474(5) 0.5456(3)
C40_4 C 0.72120(15) 0.2246(5) 0.5372(3)
H28_3 H 0.7164 0.2384 0.4946
C41_4 C 0.75063(16) 0.2790(5) 0.5897(3)
H29_4 H 0.7658 0.3286 0.5828
C42_4 C 0.75842(14) 0.2610(5) 0.6545(3)
C43_4 C 0.73519(14) 0.1893(5) 0.6631(3)
H30_4 H 0.7399 0.1780 0.7058
C44_4 C 0.70475(14) 0.1331(5) 0.6099(3)
C45_4 C 0.68118(14) 0.0578(6) 0.6249(3)
C46_4 C 0.79195(16) 0.3190(6) 0.7121(3)
O1_4 O 0.43268(12) 0.1206(5) 0.3359(3)
O5_4 O 0.66173(10) 0.1121(3) 0.64204(18)
O7_4 O 0.80062(10) 0.2832(4) 0.76899(19)
O8_4 O 0.80827(13) 0.3977(5) 0.6997(2)
O9_4 O 0.36776(10) 0.0758(4) 0.31370(18)
Co1_4 Co 0.346867(19) 0.18166(7) 0.36292(3)
H31_4 H 0.3513(8) 0.077(7) 0.2743(6)
H32_4 H 0.3883(6) 0.094(7) 0.321(2)
N9_4 N 0.37626(14) 0.3237(4) 0.3545(3)
N10_4 N 0.32466(14) 0.2943(4) 0.4047(2)
O10_4 O 0.39416(10) 0.0791(3) 0.44082(18)
O12_4 O 0.31673(11) 0.0522(4) 0.3785(2)
O13_4 O 0.30062(10) 0.2168(4) 0.26899(19)
Co6_4 Co 0.609033(19) 0.06997(7) 0.62170(3)
C1_4 C 0.38690(19) 0.6897(6) 0.4388(4)
H1_4 H 0.3611 0.6896 0.4127
C2_4 C 0.40761(19) 0.6013(6) 0.4791(4)
H2_4 H 0.3989 0.5306 0.4862
C3_4 C 0.44299(16) 0.7436(5) 0.4836(3)
H3_4 H 0.4642 0.7874 0.4956
C4_3 C 0.47473(19) 0.5622(6) 0.5480(3)
C5_2 C 0.4698(2) 0.4423(7) 0.5564(4)
H4_2 H 0.4460 0.4122 0.5385
C6_2 C 0.4996(3) 0.3693(8) 0.5907(5)
H5_2 H 0.4960 0.2902 0.5972
C7_2 C 0.5353(2) 0.4120(7) 0.6161(5)
H6_2 H 0.5556 0.3613 0.6376
C8_4 C 0.54001(19) 0.5298(6) 0.6090(4)
C9_4 C 0.51010(16) 0.6037(5) 0.5739(3)
H7_4 H 0.5138 0.6827 0.5675
C10_4 C 0.58751(18) 0.6618(5) 0.6121(3)
H8_4 H 0.5710 0.7091 0.5764
C11_4 C 0.6090(2) 0.5267(7) 0.6878(4)
H9_2 H 0.6109 0.4633 0.7145
C12_4 C 0.6364(2) 0.5898(7) 0.6931(4)
H10_4 H 0.6612 0.5774 0.7253
C16_4 C 0.34876(19) 0.7849(6) 0.2472(3)
H14_4 H 0.3268 0.7896 0.2466
C17_4 C 0.40558(17) 0.8022(5) 0.2769(3)
H15_4 H 0.4306 0.8221 0.3014
C18_4 C 0.38850(19) 0.7456(6) 0.2183(3)
H16_4 H 0.3993 0.7189 0.1953
C19_4 C 0.3230(2) 0.6861(6) 0.1370(3)
C20_4 C 0.2918(2) 0.6386(8) 0.1313(4)
H17_4 H 0.2895 0.6338 0.1681
C21_4 C 0.2637(3) 0.5977(10) 0.0698(5)
H18_4 H 0.2415 0.5713 0.0643
C22_4 C 0.2685(3) 0.5961(9) 0.0167(4)
C23_4 C 0.3002(2) 0.6416(7) 0.0240(3)
C24_4 C 0.3271(2) 0.6879(6) 0.0831(3)
H20_4 H 0.3483 0.7207 0.0873
C27_3 C 0.52052(14) 0.9708(5) 0.4382(3)
H21_3 H 0.5154 0.9261 0.4653
C28_3 C 0.55585(14) 0.9676(5) 0.4489(3)
C32_4 C 0.58464(15) 0.8845(5) 0.5002(3)
H26_3 H 0.6454 0.9794 0.3432
H27_3 H 0.5859 0.9733 0.3270
N1_4 N 0.40920(13) 0.7809(4) 0.4414(2)
N2_3 N 0.44351(13) 0.6340(4) 0.5077(3)
N3_4 N 0.57717(14) 0.5724(4) 0.6351(3)
N4_4 N 0.62374(14) 0.6763(4) 0.6455(3)
N7_4 N 0.38079(14) 0.8264(4) 0.2951(2)
N8_4 N 0.35194(15) 0.7344(5) 0.1988(2)
O2_4 O 0.44482(10) 0.9642(4) 0.40161(19)
O3_3 O 0.58640(13) 0.7837(4) 0.4816(2)
O4_4 O 0.60584(10) 0.9209(3) 0.55918(18)
O6_4 O 0.68327(11) 0.9478(4) 0.6215(2)
Co2_4 Co 0.390967(19) 0.93003(7) 0.37830(3)
O11_4 O 0.33827(10) 0.8879(3) 0.35796(18)
C13_4 C 0.3028(3) 0.6100(8) 0.8773(5)
H11_4 H 0.2970 0.5751 0.8374
C14_4 C 0.2906(4) 0.5723(9) 0.9156(5)
H12_4 H 0.2755 0.5070 0.9078
C15_4 C 0.32471(18) 0.7270(6) 0.9585(3)
H13_4 H 0.3373 0.7901 0.9869
H19_4 H 0.2502 0.5641 0.9762
N5_4 N 0.32466(14) 0.7057(4) 0.9047(2)
N6_4 N 0.30468(17) 0.6479(5) 0.9683(3)
C8_5 C 0.04001(19) 0.9702(6) 0.1090(4)
C9_5 C 0.01010(16) 0.8963(5) 0.0739(3)
H7_5 H 0.0138 0.8173 0.0675
C10_5 C 0.08751(18) 0.8382(5) 0.1121(3)
H8_5 H 0.0710 0.7909 0.0764
C11_5 C 0.1090(2) 0.9733(7) 0.1878(4)
C12_5 C 0.1364(2) 0.9102(7) 0.1931(4)
H10_5 H 0.1612 0.9226 0.2253
C32_5 C 0.08464(15) 0.6155(5) 0.0002(3)
H24_5 H 0.1278 0.3966 0.0099
C39_5 C 0.19771(14) 0.3526(5) 0.0456(3)
C40_5 C 0.22120(15) 0.2754(5) 0.0372(3)
C41_5 C 0.25063(16) 0.2210(5) 0.0897(3)
H29_5 H 0.2658 0.1714 0.0828
C42_5 C 0.25842(14) 0.2390(5) 0.1545(3)
C43_5 C 0.23519(14) 0.3107(5) 0.1631(3)
H30_5 H 0.2399 0.3220 0.2058
C44_5 C 0.20475(14) 0.3669(5) 0.1099(3)
C45_5 C 0.18118(14) 0.4422(6) 0.1249(3)
C46_5 C 0.29195(16) 0.1810(6) 0.2121(3)
N3_5 N 0.07717(14) 0.9276(4) 0.1351(3)
O8_5 O 0.30827(13) 0.1023(5) 0.1997(2)
C1_5 C 0.88690(19) 0.8103(6) 0.9388(4)
H1_5 H 0.8611 0.8104 0.9127
C2_5 C 0.90761(19) 0.8987(6) 0.9791(4)
H2_5 H 0.8989 0.9694 0.9862
C3_5 C 0.94299(16) 0.7564(5) 0.9836(3)
H3_5 H 0.9642 0.7126 0.9956
C13_5 C 0.8028(3) 0.8900(8) 0.3773(5)
H11_5 H 0.7970 0.9249 0.3374
C14_5 C 0.7906(4) 0.9277(9) 0.4156(5)
H12_5 H 0.7755 0.9930 0.4078
C15_5 C 0.82471(18) 0.7730(6) 0.4585(3)
H13_5 H 0.8373 0.7099 0.4869
C16_5 C 0.84876(19) 0.7151(6) 0.7472(3)
H14_5 H 0.8268 0.7104 0.7466
C17_5 C 0.90558(17) 0.6978(5) 0.7769(3)
H15_5 H 0.9306 0.6779 0.8014
C18_5 C 0.88850(19) 0.7544(6) 0.7183(3)
H16_5 H 0.8993 0.7811 0.6953
C19_5 C 0.8230(2) 0.8139(6) 0.6370(3)
C20_5 C 0.7918(2) 0.8614(8) 0.6313(4)
H17_5 H 0.7895 0.8662 0.6681
C21_5 C 0.7637(3) 0.9023(10) 0.5698(5)
H18_5 H 0.7415 0.9287 0.5643
C22_5 C 0.7685(3) 0.9039(9) 0.5167(4)
H19_5 H 0.7502 0.9359 0.4762
C23_5 C 0.8002(2) 0.8584(7) 0.5240(3)
C24_5 C 0.8271(2) 0.8121(6) 0.5831(3)
H20_5 H 0.8483 0.7793 0.5873
C25_5 C 0.95381(15) 0.4583(5) 0.8743(3)
C26_5 C 0.99253(14) 0.4601(5) 0.8876(3)
H23_5 H 0.9828 0.3438 0.8157
N1_5 N 0.90920(13) 0.7191(4) 0.9414(2)
N6_5 N 0.80468(17) 0.8521(5) 0.4683(3)
N7_5 N 0.88079(14) 0.6736(4) 0.7951(2)
N8_5 N 0.85194(15) 0.7656(5) 0.6988(2)
O1_5 O 0.93268(12) 0.3794(5) 0.8359(3)
O2_5 O 0.94482(10) 0.5358(4) 0.90161(19)
O9_5 O 0.86776(10) 0.4242(4) 0.81370(18)
H31_5 H 0.8513(8) 0.423(7) 0.7743(6)
H32_5 H 0.8883(6) 0.406(7) 0.821(2)
C13_6 C 0.1972(3) 0.8900(8) 0.1227(5)
H11_6 H 0.2030 0.9249 0.1626
C14_6 C 0.2094(4) 0.9277(9) 0.0844(5)
H12_6 H 0.2245 0.9930 0.0922
C15_6 C 0.17529(18) 0.7730(6) 0.0415(3)
H13_6 H 0.1627 0.7099 0.0131
H19_6 H 0.2498 0.9359 0.0238
N6_6 N 0.19532(17) 0.8521(5) 0.0317(3)
C1_6 C 0.11310(19) 0.8103(6) 0.5612(4)
H1_6 H 0.1389 0.8104 0.5873
C2_6 C 0.09239(19) 0.8987(6) 0.5209(4)
H2_6 H 0.1011 0.9694 0.5138
C3_6 C 0.05701(16) 0.7564(5) 0.5164(3)
H3_6 H 0.0358 0.7126 0.5044
C4_4 C 0.02527(19) 0.9378(6) 0.4520(3)
C16_6 C 0.15124(19) 0.7151(6) 0.7528(3)
H14_6 H 0.1732 0.7104 0.7534
C17_6 C 0.09442(17) 0.6978(5) 0.7231(3)
H15_6 H 0.0694 0.6779 0.6986
C18_6 C 0.11150(19) 0.7544(6) 0.7817(3)
H16_6 H 0.1007 0.7811 0.8047
C19_6 C 0.1770(2) 0.8139(6) 0.8630(3)
C20_6 C 0.2082(2) 0.8614(8) 0.8687(4)
H17_6 H 0.2105 0.8662 0.8319
C21_6 C 0.2363(3) 0.9023(10) 0.9302(5)
H18_6 H 0.2585 0.9287 0.9357
C22_6 C 0.2315(3) 0.9039(9) 0.9833(4)
C23_6 C 0.1998(2) 0.8584(7) 0.9760(3)
C24_6 C 0.1729(2) 0.8121(6) 0.9169(3)
H20_6 H 0.1517 0.7793 0.9127
C25_6 C 0.04619(15) 0.4583(5) 0.6257(3)
C26_6 C 0.00747(14) 0.4601(5) 0.6124(3)
H23_6 H 0.0172 0.3438 0.6843
N1_6 N 0.09080(13) 0.7191(4) 0.5586(2)
N2_4 N 0.05649(13) 0.8660(4) 0.4923(3)
N7_6 N 0.11921(14) 0.6736(4) 0.7049(2)
N8_6 N 0.14806(15) 0.7656(5) 0.8012(2)
O1_6 O 0.06732(12) 0.3794(5) 0.6641(3)
O2_6 O 0.05518(10) 0.5358(4) 0.59839(19)
O9_6 O 0.13224(10) 0.4242(4) 0.68630(18)
H31_6 H 0.1487(8) 0.423(7) 0.7257(6)
H32_6 H 0.1117(6) 0.406(7) 0.679(2)
C8_6 C 0.95999(19) 0.9702(6) 0.3910(4)
C9_6 C 0.98990(16) 0.8963(5) 0.4261(3)
H7_6 H 0.9862 0.8173 0.4325
C10_6 C 0.91249(18) 0.8382(5) 0.3879(3)
H8_6 H 0.9290 0.7909 0.4236
C11_6 C 0.8910(2) 0.9733(7) 0.3122(4)
C12_6 C 0.8636(2) 0.9102(7) 0.3069(4)
H10_6 H 0.8388 0.9226 0.2747
C27_4 C 0.97948(14) 0.5292(5) 0.5618(3)
H21_4 H 0.9846 0.5739 0.5347
C28_4 C 0.94415(14) 0.5324(5) 0.5511(3)
C29_4 C 0.93630(15) 0.4657(5) 0.5918(3)
C30_4 C 0.96418(15) 0.3965(6) 0.6418(3)
H22_4 H 0.9592 0.3522 0.6693
C31_4 C 0.99914(16) 0.3925(6) 0.6513(3)
C32_6 C 0.91536(15) 0.6155(5) 0.4998(3)
C33_4 C 0.89854(14) 0.4645(5) 0.5818(3)
C34_4 C 0.86881(14) 0.4201(5) 0.5241(3)
H24_6 H 0.8722 0.3966 0.4901
C35_4 C 0.83370(14) 0.4091(5) 0.5149(3)
C36_4 C 0.82920(16) 0.4488(5) 0.5656(3)
H25_4 H 0.8059 0.4448 0.5601
C37_4 C 0.85833(16) 0.4939(6) 0.6237(3)
H26_4 H 0.8546 0.5206 0.6568
C38_4 C 0.89393(16) 0.4997(6) 0.6330(3)
H27_4 H 0.9141 0.5267 0.6730
C39_6 C 0.80229(14) 0.3526(5) 0.4544(3)
C40_6 C 0.77880(15) 0.2754(5) 0.4628(3)
H28_4 H 0.7836 0.2616 0.5054
C41_6 C 0.74937(16) 0.2210(5) 0.4103(3)
H29_6 H 0.7342 0.1714 0.4172
C42_6 C 0.74158(14) 0.2390(5) 0.3455(3)
C43_6 C 0.76481(14) 0.3107(5) 0.3369(3)
H30_6 H 0.7601 0.3220 0.2942
C44_6 C 0.79525(14) 0.3669(5) 0.3901(3)
C45_6 C 0.81882(14) 0.4422(6) 0.3751(3)
C46_6 C 0.70805(16) 0.1810(6) 0.2879(3)
N3_6 N 0.92283(14) 0.9276(4) 0.3649(3)
O3_4 O 0.91360(13) 0.7163(4) 0.5184(2)
O8_6 O 0.69173(13) 0.1023(5) 0.3003(2)
C4_5 C 0.47473(19) 0.4378(6) 0.0480(3)
C5_3 C 0.4698(2) 0.5577(7) 0.0564(4)
H4_3 H 0.4460 0.5878 0.0385
C6_3 C 0.4996(3) 0.6307(8) 0.0907(5)
H5_3 H 0.4960 0.7098 0.0972
C7_3 C 0.5353(2) 0.5880(7) 0.1161(5)
H6_3 H 0.5556 0.6387 0.1376
C8_7 C 0.54001(19) 0.4702(6) 0.1090(4)
C9_7 C 0.51010(16) 0.3963(5) 0.0739(3)
H7_7 H 0.5138 0.3173 0.0675
C10_7 C 0.58751(18) 0.3382(5) 0.1121(3)
H8_7 H 0.5710 0.2909 0.0764
C11_7 C 0.6090(2) 0.4733(7) 0.1878(4)
H9_3 H 0.6109 0.5367 0.2145
C12_7 C 0.6364(2) 0.4102(7) 0.1931(4)
H10_7 H 0.6612 0.4226 0.2253
C32_7 C 0.58464(15) 0.1155(5) 0.0002(3)
N2_5 N 0.44351(13) 0.3660(4) 0.0077(3)
N3_7 N 0.57717(14) 0.4276(4) 0.1351(3)
C1_7 C 0.38690(19) 0.3103(6) 0.9388(4)
H1_7 H 0.3611 0.3104 0.9127
C2_7 C 0.40761(19) 0.3987(6) 0.9791(4)
H2_7 H 0.3989 0.4694 0.9862
C3_7 C 0.44299(16) 0.2564(5) 0.9836(3)
H3_7 H 0.4642 0.2126 0.9956
C13_7 C 0.3028(3) 0.3900(8) 0.3773(5)
H11_7 H 0.2970 0.4249 0.3374
C14_7 C 0.2906(4) 0.4277(9) 0.4156(5)
H12_7 H 0.2755 0.4930 0.4078
C15_7 C 0.32471(18) 0.2730(6) 0.4585(3)
H13_7 H 0.3373 0.2099 0.4869
C16_7 C 0.34876(19) 0.2151(6) 0.7472(3)
H14_7 H 0.3268 0.2104 0.7466
C17_7 C 0.40558(17) 0.1978(5) 0.7769(3)
H15_7 H 0.4306 0.1779 0.8014
C18_7 C 0.38850(19) 0.2544(6) 0.7183(3)
H16_7 H 0.3993 0.2811 0.6953
C19_7 C 0.3230(2) 0.3139(6) 0.6370(3)
C20_7 C 0.2918(2) 0.3614(8) 0.6313(4)
H17_7 H 0.2895 0.3662 0.6681
C21_7 C 0.2637(3) 0.4023(10) 0.5698(5)
H18_7 H 0.2415 0.4287 0.5643
C22_7 C 0.2685(3) 0.4039(9) 0.5167(4)
H19_7 H 0.2502 0.4359 0.4762
C23_7 C 0.3002(2) 0.3584(7) 0.5240(3)
C24_7 C 0.3271(2) 0.3121(6) 0.5831(3)
H20_7 H 0.3483 0.2793 0.5873
C27_5 C 0.52052(14) 0.0292(5) 0.9382(3)
H21_5 H 0.5154 0.0739 0.9653
C28_5 C 0.55585(14) 0.0324(5) 0.9489(3)
H26_5 H 0.6454 0.0206 0.8432
H27_5 H 0.5859 0.0267 0.8270
N1_7 N 0.40920(13) 0.2191(4) 0.9414(2)
N6_7 N 0.30468(17) 0.3521(5) 0.4683(3)
N7_7 N 0.38079(14) 0.1736(4) 0.7951(2)
N8_7 N 0.35194(15) 0.2656(5) 0.6988(2)
O2_7 O 0.44482(10) 0.0358(4) 0.90161(19)
O3_5 O 0.58640(13) 0.2163(4) 0.9816(2)
H24_7 H 0.6278 0.8966 0.0099
C39_7 C 0.69771(14) 0.8526(5) 0.0456(3)
C40_7 C 0.72120(15) 0.7754(5) 0.0372(3)
C41_7 C 0.75063(16) 0.7210(5) 0.0897(3)
H29_7 H 0.7658 0.6714 0.0828
C42_7 C 0.75842(14) 0.7390(5) 0.1545(3)
C43_7 C 0.73519(14) 0.8107(5) 0.1631(3)
H30_7 H 0.7399 0.8220 0.2058
C44_7 C 0.70475(14) 0.8669(5) 0.1099(3)
C45_7 C 0.68118(14) 0.9422(6) 0.1249(3)
C46_7 C 0.79195(16) 0.6810(6) 0.2121(3)
O8_7 O 0.80827(13) 0.6023(5) 0.1997(2)
C25_7 C 0.45381(15) 0.9583(5) 0.8743(3)
C26_7 C 0.49253(14) 0.9601(5) 0.8876(3)
C29_5 C 0.56370(15) 0.9657(5) 0.9082(3)
C30_5 C 0.53582(15) 0.8965(6) 0.8582(3)
H22_5 H 0.5408 0.8522 0.8307
C31_5 C 0.50086(16) 0.8925(6) 0.8487(3)
H23_7 H 0.4828 0.8438 0.8157
C33_5 C 0.60146(14) 0.9645(5) 0.9182(3)
C34_5 C 0.63119(14) 0.9201(5) 0.9759(3)
C35_5 C 0.66630(14) 0.9091(5) 0.9851(3)
C36_5 C 0.67080(16) 0.9488(5) 0.9344(3)
H25_5 H 0.6941 0.9448 0.9399
C37_5 C 0.64167(16) 0.9939(6) 0.8763(3)
C38_5 C 0.60607(16) 0.9997(6) 0.8670(3)
H28_5 H 0.7164 0.7616 0.9946
O1_7 O 0.43268(12) 0.8794(5) 0.8359(3)
O9_7 O 0.36776(10) 0.9242(4) 0.81370(18)
H31_7 H 0.3513(8) 0.923(7) 0.7743(6)
H32_7 H 0.3883(6) 0.906(7) 0.821(2)
C13_8 C 0.6972(3) 0.3900(8) 0.1227(5)
H11_8 H 0.7030 0.4249 0.1626
C14_8 C 0.7094(4) 0.4277(9) 0.0844(5)
H12_8 H 0.7245 0.4930 0.0922
C15_8 C 0.67529(18) 0.2730(6) 0.0415(3)
H13_8 H 0.6627 0.2099 0.0131
H19_8 H 0.7498 0.4359 0.0238
N6_8 N 0.69532(17) 0.3521(5) 0.0317(3)
C1_8 C 0.61310(19) 0.3103(6) 0.5612(4)
H1_8 H 0.6389 0.3104 0.5873
C2_8 C 0.59239(19) 0.3987(6) 0.5209(4)
H2_8 H 0.6011 0.4694 0.5138
C3_8 C 0.55701(16) 0.2564(5) 0.5164(3)
H3_8 H 0.5358 0.2126 0.5044
C4_6 C 0.52527(19) 0.4378(6) 0.4520(3)
C5_4 C 0.5302(2) 0.5577(7) 0.4436(4)
H4_4 H 0.5540 0.5878 0.4615
C6_4 C 0.5004(3) 0.6307(8) 0.4093(5)
H5_4 H 0.5040 0.7098 0.4028
C7_4 C 0.4647(2) 0.5880(7) 0.3839(5)
H6_4 H 0.4444 0.6387 0.3624
C8_8 C 0.45999(19) 0.4702(6) 0.3910(4)
C9_8 C 0.48990(16) 0.3963(5) 0.4261(3)
H7_8 H 0.4862 0.3173 0.4325
C10_8 C 0.41249(18) 0.3382(5) 0.3879(3)
H8_8 H 0.4290 0.2909 0.4236
C11_8 C 0.3910(2) 0.4733(7) 0.3122(4)
H9_4 H 0.3891 0.5367 0.2855
C12_8 C 0.3636(2) 0.4102(7) 0.3069(4)
H10_8 H 0.3388 0.4226 0.2747
C16_8 C 0.65124(19) 0.2151(6) 0.7528(3)
H14_8 H 0.6732 0.2104 0.7534
C17_8 C 0.59442(17) 0.1978(5) 0.7231(3)
H15_8 H 0.5694 0.1779 0.6986
C18_8 C 0.61150(19) 0.2544(6) 0.7817(3)
H16_8 H 0.6007 0.2811 0.8047
C19_8 C 0.6770(2) 0.3139(6) 0.8630(3)
C20_8 C 0.7082(2) 0.3614(8) 0.8687(4)
H17_8 H 0.7105 0.3662 0.8319
C21_8 C 0.7363(3) 0.4023(10) 0.9302(5)
H18_8 H 0.7585 0.4287 0.9357
C22_8 C 0.7315(3) 0.4039(9) 0.9833(4)
C23_8 C 0.6998(2) 0.3584(7) 0.9760(3)
C24_8 C 0.6729(2) 0.3121(6) 0.9169(3)
H20_8 H 0.6517 0.2793 0.9127
C27_6 C 0.47948(14) 0.0292(5) 0.5618(3)
H21_6 H 0.4846 0.0739 0.5347
C28_6 C 0.44415(14) 0.0324(5) 0.5511(3)
C32_8 C 0.41536(15) 0.1155(5) 0.4998(3)
H26_6 H 0.3546 0.0206 0.6568
H27_6 H 0.4141 0.0267 0.6730
N1_8 N 0.59080(13) 0.2191(4) 0.5586(2)
N2_6 N 0.55649(13) 0.3660(4) 0.4923(3)
N3_8 N 0.42283(14) 0.4276(4) 0.3649(3)
N7_8 N 0.61921(14) 0.1736(4) 0.7049(2)
N8_8 N 0.64806(15) 0.2656(5) 0.8012(2)
O2_8 O 0.55518(10) 0.0358(4) 0.59839(19)
O3_6 O 0.41360(13) 0.2163(4) 0.5184(2)
C25_8 C 0.54619(15) 0.9583(5) 0.6257(3)
C26_8 C 0.50747(14) 0.9601(5) 0.6124(3)
C29_6 C 0.43630(15) 0.9657(5) 0.5918(3)
C30_6 C 0.46418(15) 0.8965(6) 0.6418(3)
H22_6 H 0.4592 0.8522 0.6693
C31_6 C 0.49914(16) 0.8925(6) 0.6513(3)
H23_8 H 0.5172 0.8438 0.6843
C33_6 C 0.39854(14) 0.9645(5) 0.5818(3)
C34_6 C 0.36881(14) 0.9201(5) 0.5241(3)
H24_8 H 0.3722 0.8966 0.4901
C35_6 C 0.33370(14) 0.9091(5) 0.5149(3)
C36_6 C 0.32920(16) 0.9488(5) 0.5656(3)
H25_6 H 0.3059 0.9448 0.5601
C37_6 C 0.35833(16) 0.9939(6) 0.6237(3)
C38_6 C 0.39393(16) 0.9997(6) 0.6330(3)
C39_8 C 0.30229(14) 0.8526(5) 0.4544(3)
C40_8 C 0.27880(15) 0.7754(5) 0.4628(3)
H28_6 H 0.2836 0.7616 0.5054
C41_8 C 0.24937(16) 0.7210(5) 0.4103(3)
H29_8 H 0.2342 0.6714 0.4172
C42_8 C 0.24158(14) 0.7390(5) 0.3455(3)
C43_8 C 0.26481(14) 0.8107(5) 0.3369(3)
H30_8 H 0.2601 0.8220 0.2942
C44_8 C 0.29525(14) 0.8669(5) 0.3901(3)
C45_8 C 0.31882(14) 0.9422(6) 0.3751(3)
C46_8 C 0.20805(16) 0.6810(6) 0.2879(3)
O1_8 O 0.56732(12) 0.8794(5) 0.6641(3)
O8_8 O 0.19173(13) 0.6023(5) 0.3003(2)
O9_8 O 0.63224(10) 0.9242(4) 0.68630(18)
H31_8 H 0.6487(8) 0.923(7) 0.7257(6)
H32_8 H 0.6117(6) 0.906(7) 0.679(2)
C4_7 C 0.02527(19) 0.0622(6) 0.9520(3)
N2_7 N 0.05649(13) 0.1340(4) 0.9923(3)
C5_5 C 0.0302(2) 0.9423(7) 0.9436(4)
H4_5 H 0.0540 0.9122 0.9615
C6_5 C 0.0004(3) 0.8693(8) 0.9093(5)
H5_5 H 0.0040 0.7902 0.9028
C27_7 C 0.97948(14) 0.4708(5) 0.0618(3)
H21_7 H 0.9846 0.4261 0.0347
C28_7 C 0.94415(14) 0.4676(5) 0.0511(3)
C29_7 C 0.93630(15) 0.5343(5) 0.0918(3)
C30_7 C 0.96418(15) 0.6035(6) 0.1418(3)
H22_7 H 0.9592 0.6478 0.1693
C31_7 C 0.99914(16) 0.6075(6) 0.1513(3)
C33_7 C 0.89854(14) 0.5355(5) 0.0818(3)
C34_7 C 0.86881(14) 0.5799(5) 0.0241(3)
C35_7 C 0.83370(14) 0.5909(5) 0.0149(3)
C36_7 C 0.82920(16) 0.5512(5) 0.0656(3)
H25_7 H 0.8059 0.5552 0.0601
C37_7 C 0.85833(16) 0.5061(6) 0.1237(3)
H26_7 H 0.8546 0.4794 0.1568
C38_7 C 0.89393(16) 0.5003(6) 0.1330(3)
H27_7 H 0.9141 0.4733 0.1730
H28_7 H 0.7836 0.7384 0.0054
O3_7 O 0.91360(13) 0.2837(4) 0.0184(2)
C7_5 C 0.9647(2) 0.9120(7) 0.8839(5)
H6_5 H 0.9444 0.8613 0.8624
H9_5 H 0.8891 0.9633 0.7855
C7_6 C 0.0353(2) 0.9120(7) 0.6161(5)
H6_6 H 0.0556 0.8613 0.6376
H9_6 H 0.1109 0.9633 0.7145
C5_6 C 0.9698(2) 0.9423(7) 0.5564(4)
H4_6 H 0.9460 0.9122 0.5385
C6_6 C 0.9996(3) 0.8693(8) 0.5907(5)
H5_6 H 0.9960 0.7902 0.5972
C7_7 C 0.0353(2) 0.0880(7) 0.1161(5)
H6_7 H 0.0556 0.1387 0.1376
H9_7 H 0.1109 0.0367 0.2145
C27_8 C 0.02052(14) 0.5292(5) 0.9382(3)
H21_8 H 0.0154 0.5739 0.9653
C28_8 C 0.05585(14) 0.5324(5) 0.9489(3)
C29_8 C 0.06370(15) 0.4657(5) 0.9082(3)
C30_8 C 0.03582(15) 0.3965(6) 0.8582(3)
H22_8 H 0.0408 0.3522 0.8307
C31_8 C 0.00086(16) 0.3925(6) 0.8487(3)
C33_8 C 0.10146(14) 0.4645(5) 0.9182(3)
C34_8 C 0.13119(14) 0.4201(5) 0.9759(3)
C35_8 C 0.16630(14) 0.4091(5) 0.9851(3)
C36_8 C 0.17080(16) 0.4488(5) 0.9344(3)
H25_8 H 0.1941 0.4448 0.9399
C37_8 C 0.14167(16) 0.4939(6) 0.8763(3)
H26_8 H 0.1454 0.5206 0.8432
C38_8 C 0.10607(16) 0.4997(6) 0.8670(3)
H27_8 H 0.0859 0.5267 0.8270
H28_8 H 0.2164 0.2616 0.9946
O3_8 O 0.08640(13) 0.7163(4) 0.9816(2)
C5_7 C 0.9698(2) 0.0577(7) 0.0564(4)
H4_7 H 0.9460 0.0878 0.0385
C6_7 C 0.9996(3) 0.1307(8) 0.0907(5)
H5_7 H 0.9960 0.2098 0.0972
C4_8 C 0.97473(19) 0.9378(6) 0.0480(3)
N2_8 N 0.94351(13) 0.8660(4) 0.0077(3)
C5_8 C 0.0302(2) 0.0577(7) 0.4436(4)
H4_8 H 0.0540 0.0878 0.4615
C6_8 C 0.0004(3) 0.1307(8) 0.4093(5)
H5_8 H 0.0040 0.2098 0.4028
C7_8 C 0.9647(2) 0.0880(7) 0.3839(5)
H6_8 H 0.9444 0.1387 0.3624
H9_8 H 0.8891 0.0367 0.2855
loop_
_geom_bond_atom_site_label_1
_geom_bond_atom_site_label_2
_geom_bond_site_symmetry_1
_geom_bond_site_symmetry_2
C1 H1 1_555 1_555
C2 C1 1_555 1_555
H2 C2 1_555 1_555
C3 H3 1_555 1_555
C13 H11 1_555 1_555
C14 C13 1_555 1_555
H12 C14 1_555 1_555
C15 H13 1_555 1_555
C16 H14 1_555 1_555
C17 H15 1_555 1_555
C18 C17 1_555 1_555
H16 C18 1_555 1_555
C19 C20 1_555 1_555
C20 H17 1_555 1_555
C21 C20 1_555 1_555
H18 C21 1_555 1_555
C22 C21 1_555 1_555
H19 C22 1_555 1_555
C23 C22 1_555 1_555
C24 C19 1_555 1_555
H20 C24 1_555 1_555
C25 C26 1_555 1_555
N1 C1 1_555 1_555
N5 C13 1_555 1_555
N6 C14 1_555 1_555
N7 C16 1_555 1_555
N8 C16 1_555 1_555
O1 C25 1_555 1_555
O2 C25 1_555 1_555
O9 Co1 1_555 1_555
Co1 N9 1_555 1_555
Co2 N1 1_555 1_555
H31 O9 1_555 1_555
H32 O9 1_555 1_555
N10 Co1 1_555 1_555
O10 Co1 1_555 1_555
O11 Co2 1_555 1_555
O12 Co1 1_555 1_555
O13 Co1 1_555 1_555
Co4 N5 1_555 1_555
C3 N1 1_555 1_555
C15 N5 1_555 1_555
C15 N6 1_555 1_555
C17 N7 1_555 1_555
C18 N8 1_555 1_555
C19 N8 1_555 1_555
C23 C24 1_555 1_555
C23 N6 1_555 1_555
N7 Co2 1_555 1_555
O2 Co2 1_555 1_555
O9 Co2 1_555 1_555
Co2 O10 1_555 1_555
H7 C9 1_555 1_555
C10 H8 1_555 1_555
C12 C11 1_555 1_555
H10 C12 1_555 1_555
C40 C39 1_555 1_555
C41 C40 1_555 1_555
H29 C41 1_555 1_555
C42 C41 1_555 1_555
C43 C42 1_555 1_555
H30 C43 1_555 1_555
C44 C39 1_555 1_555
C45 C44 1_555 1_555
C46 C42 1_555 1_555
N3 C8 1_555 1_555
N4 C10 1_555 1_555
O4 C32 1_555 1_555
O5 C45 1_555 1_555
O6 C45 1_555 1_555
O7 C46 1_555 1_555
O8 C46 1_555 1_555
Co3 N4 1_555 1_555
Co5 O7 1_555 1_555
Co6 O4 1_555 1_555
C8 C9 1_555 1_555
C10 N3 1_555 1_555
C11 N3 1_555 1_555
C12 N4 1_555 1_555
C43 C44 1_555 1_555
O4 Co3 1_555 1_555
O5 Co6 1_555 1_555
O6 Co3 1_555 1_555
H7_2 C9_2 1_555 1_555
C10_2 H8_2 1_555 1_555
C12_2 C11_2 1_555 1_555
H10_2 C12_2 1_555 1_555
C27 H21 1_555 1_555
C28 C27 1_555 1_555
C29 C28 1_555 1_555
C30 C29 1_555 1_555
H22 C30 1_555 1_555
C32_2 C28 1_555 1_555
C33 C29 1_555 1_555
C34 C33 1_555 1_555
H24_2 C34 1_555 1_555
C35 C34 1_555 1_555
C36 C35 1_555 1_555
H25 C36 1_555 1_555
C37 C36 1_555 1_555
H26 C37 1_555 1_555
C38 C33 1_555 1_555
H27 C38 1_555 1_555
C39_2 C35 1_555 1_555
C40_2 C39_2 1_555 1_555
H28 C40_2 1_555 1_555
C41_2 C40_2 1_555 1_555
H29_2 C41_2 1_555 1_555
C42_2 C41_2 1_555 1_555
C43_2 C42_2 1_555 1_555
H30_2 C43_2 1_555 1_555
C44_2 C39_2 1_555 1_555
C45_2 C44_2 1_555 1_555
C46_2 C42_2 1_555 1_555
N3_2 C8_2 1_555 1_555
N4_2 C10_2 1_555 1_555
O3 C32_2 1_555 1_555
O4_2 C32_2 1_555 1_555
O5_2 C45_2 1_555 1_555
O6_2 C45_2 1_555 1_555
O7_2 C46_2 1_555 1_555
O8_2 C46_2 1_555 1_555
Co4 N4_2 1_555 1_555
Co5_2 O7_2 1_555 1_555
Co6_2 O4_2 1_555 1_555
C8_2 C9_2 1_555 1_555
C10_2 N3_2 1_555 1_555
C11_2 N3_2 1_555 1_555
C12_2 N4_2 1_555 1_555
C30 C31 1_555 1_555
C37 C38 1_555 1_555
C43_2 C44_2 1_555 1_555
O4_2 Co4 1_555 1_555
O5_2 Co6_2 1_555 1_555
O6_2 Co4 1_555 1_555
C1_2 H1_2 1_555 1_555
C2_2 C1_2 1_555 1_555
H2_2 C2_2 1_555 1_555
C3_2 H3_2 1_555 1_555
C16_2 H14_2 1_555 1_555
C17_2 H15_2 1_555 1_555
C18_2 C17_2 1_555 1_555
H16_2 C18_2 1_555 1_555
C19_2 C20_2 1_555 1_555
C20_2 H17_2 1_555 1_555
C21_2 C20_2 1_555 1_555
H18_2 C21_2 1_555 1_555
C22_2 C21_2 1_555 1_555
C23_2 C22_2 1_555 1_555
C24_2 C19_2 1_555 1_555
H20_2 C24_2 1_555 1_555
C25_2 C26_2 1_555 1_555
N1_2 C1_2 1_555 1_555
N2 C2_2 1_555 1_555
N7_2 C16_2 1_555 1_555
N8_2 C16_2 1_555 1_555
O1_2 C25_2 1_555 1_555
O2_2 C25_2 1_555 1_555
O9_2 Co1_2 1_555 1_555
Co1_2 N9_2 1_555 1_555
Co2_2 N1_2 1_555 1_555
H31_2 O9_2 1_555 1_555
H32_2 O9_2 1_555 1_555
N10_2 Co1_2 1_555 1_555
O10_2 Co1_2 1_555 1_555
O11_2 Co2_2 1_555 1_555
O12_2 Co1_2 1_555 1_555
O13_2 Co1_2 1_555 1_555
C3_2 N1_2 1_555 1_555
C3_2 N2 1_555 1_555
C4 N2 1_555 1_555
C17_2 N7_2 1_555 1_555
C18_2 N8_2 1_555 1_555
C19_2 N8_2 1_555 1_555
C23_2 C24_2 1_555 1_555
N7_2 Co2_2 1_555 1_555
O2_2 Co2_2 1_555 1_555
O9_2 Co2_2 1_555 1_555
Co2_2 O10_2 1_555 1_555
C13_2 H11_2 1_555 1_555
C14_2 C13_2 1_555 1_555
H12_2 C14_2 1_555 1_555
C15_2 H13_2 1_555 1_555
N5_2 C13_2 1_555 1_555
N6_2 C14_2 1_555 1_555
Co3 N5_2 1_555 1_555
C15_2 N5_2 1_555 1_555
C15_2 N6_2 1_555 1_555
C25_3 C26_3 1_555 1_555
C30_2 C29_2 1_555 1_555
H22_2 C30_2 1_555 1_555
C31_2 C26_3 1_555 1_555
H23_3 C31_2 1_555 1_555
C33_2 C29_2 1_555 1_555
C34_2 C33_2 1_555 1_555
C35_2 C34_2 1_555 1_555
C36_2 C35_2 1_555 1_555
H25_2 C36_2 1_555 1_555
C37_2 C36_2 1_555 1_555
C38_2 C33_2 1_555 1_555
O1_3 C25_3 1_555 1_555
O9_3 Co1_3 1_555 1_555
Co1_3 N9_3 1_555 1_555
H31_3 O9_3 1_555 1_555
H32_3 O9_3 1_555 1_555
N10_3 Co1_3 1_555 1_555
O10_3 Co1_3 1_555 1_555
O12_3 Co1_3 1_555 1_555
O13_3 Co1_3 1_555 1_555
C30_2 C31_2 1_555 1_555
C37_2 C38_2 1_555 1_555
C40_3 C39_3 1_555 1_555
C41_3 C40_3 1_555 1_555
H29_3 C41_3 1_555 1_555
C42_3 C41_3 1_555 1_555
C43_3 C42_3 1_555 1_555
H30_3 C43_3 1_555 1_555
C44_3 C39_3 1_555 1_555
C45_3 C44_3 1_555 1_555
C46_3 C42_3 1_555 1_555
O5_3 C45_3 1_555 1_555
O7_3 C46_3 1_555 1_555
O8_3 C46_3 1_555 1_555
Co4 O7_3 1_555 1_555
C43_3 C44_3 1_555 1_555
O5_3 Co6_3 1_555 1_555
C1_3 H1_3 1_555 1_555
C2_3 C1_3 1_555 1_555
H2_3 C2_3 1_555 1_555
C3_3 H3_3 1_555 1_555
C13_3 H11_3 1_555 1_555
C14_3 C13_3 1_555 1_555
H12_3 C14_3 1_555 1_555
C15_3 H13_3 1_555 1_555
C16_3 H14_3 1_555 1_555
C17_3 H15_3 1_555 1_555
C18_3 C17_3 1_555 1_555
H16_3 C18_3 1_555 1_555
C19_3 C20_3 1_555 1_555
C20_3 H17_3 1_555 1_555
C21_3 C20_3 1_555 1_555
H18_3 C21_3 1_555 1_555
C22_3 C21_3 1_555 1_555
H19_3 C22_3 1_555 1_555
C23_3 C22_3 1_555 1_555
C24_3 C19_3 1_555 1_555
H20_3 C24_3 1_555 1_555
C27_2 H21_2 1_555 1_555
C28_2 C27_2 1_555 1_555
N1_3 C1_3 1_555 1_555
N5_3 C13_3 1_555 1_555
N6_3 C14_3 1_555 1_555
N7_3 C16_3 1_555 1_555
N8_3 C16_3 1_555 1_555
Co2_3 N1_3 1_555 1_555
O11_3 Co2_3 1_555 1_555
Co5 N5_3 1_555 1_555
C3_3 N1_3 1_555 1_555
C15_3 N5_3 1_555 1_555
C15_3 N6_3 1_555 1_555
C17_3 N7_3 1_555 1_555
C18_3 N8_3 1_555 1_555
C19_3 N8_3 1_555 1_555
C23_3 C24_3 1_555 1_555
C23_3 N6_3 1_555 1_555
N7_3 Co2_3 1_555 1_555
O2_3 Co2_3 1_555 1_555
C4_2 C5 1_555 1_555
C5 H4 1_555 1_555
C6 C5 1_555 1_555
H5 C6 1_555 1_555
C7 C6 1_555 1_555
H6 C7 1_555 1_555
C8_3 C7 1_555 1_555
C9_3 C4_2 1_555 1_555
H7_3 C9_3 1_555 1_555
C10_3 H8_3 1_555 1_555
C11_3 H9 1_555 1_555
C12_3 C11_3 1_555 1_555
H10_3 C12_3 1_555 1_555
N3_3 C8_3 1_555 1_555
N4_3 C10_3 1_555 1_555
O4_3 C32_3 1_555 1_555
Co5_2 N4_3 1_555 1_555
C4_2 N2_2 1_555 1_555
C8_3 C9_3 1_555 1_555
C10_3 N3_3 1_555 1_555
C11_3 N3_3 1_555 1_555
C12_3 N4_3 1_555 1_555
O4_3 Co5_2 1_555 1_555
O6_3 Co5_2 1_555 1_555
C25_4 C26_4 1_555 1_555
C30_3 C29_3 1_555 1_555
H22_3 C30_3 1_555 1_555
C31_3 C26_4 1_555 1_555
H23_4 C31_3 1_555 1_555
C33_3 C29_3 1_555 1_555
C34_3 C33_3 1_555 1_555
H24_4 C34_3 1_555 1_555
C35_3 C34_3 1_555 1_555
C36_3 C35_3 1_555 1_555
H25_3 C36_3 1_555 1_555
C37_3 C36_3 1_555 1_555
C38_3 C33_3 1_555 1_555
C39_4 C35_3 1_555 1_555
C40_4 C39_4 1_555 1_555
H28_3 C40_4 1_555 1_555
C41_4 C40_4 1_555 1_555
H29_4 C41_4 1_555 1_555
C42_4 C41_4 1_555 1_555
C43_4 C42_4 1_555 1_555
H30_4 C43_4 1_555 1_555
C44_4 C39_4 1_555 1_555
C45_4 C44_4 1_555 1_555
C46_4 C42_4 1_555 1_555
O1_4 C25_4 1_555 1_555
O5_4 C45_4 1_555 1_555
O7_4 C46_4 1_555 1_555
O8_4 C46_4 1_555 1_555
O9_4 Co1_4 1_555 1_555
Co1_4 N9_4 1_555 1_555
H31_4 O9_4 1_555 1_555
H32_4 O9_4 1_555 1_555
N10_4 Co1_4 1_555 1_555
O10_4 Co1_4 1_555 1_555
O12_4 Co1_4 1_555 1_555
O13_4 Co1_4 1_555 1_555
Co3 O7_4 1_555 1_555
C30_3 C31_3 1_555 1_555
C37_3 C38_3 1_555 1_555
C43_4 C44_4 1_555 1_555
O5_4 Co6_4 1_555 1_555
C1_4 H1_4 1_555 1_555
C2_4 C1_4 1_555 1_555
H2_4 C2_4 1_555 1_555
C3_4 H3_4 1_555 1_555
C4_3 C5_2 1_555 1_555
C5_2 H4_2 1_555 1_555
C6_2 C5_2 1_555 1_555
H5_2 C6_2 1_555 1_555
C7_2 C6_2 1_555 1_555
H6_2 C7_2 1_555 1_555
C8_4 C7_2 1_555 1_555
C9_4 C4_3 1_555 1_555
H7_4 C9_4 1_555 1_555
C10_4 H8_4 1_555 1_555
C11_4 H9_2 1_555 1_555
C12_4 C11_4 1_555 1_555
H10_4 C12_4 1_555 1_555
C16_4 H14_4 1_555 1_555
C17_4 H15_4 1_555 1_555
C18_4 C17_4 1_555 1_555
H16_4 C18_4 1_555 1_555
C19_4 C20_4 1_555 1_555
C20_4 H17_4 1_555 1_555
C21_4 C20_4 1_555 1_555
H18_4 C21_4 1_555 1_555
C22_4 C21_4 1_555 1_555
C23_4 C22_4 1_555 1_555
C24_4 C19_4 1_555 1_555
H20_4 C24_4 1_555 1_555
C27_3 H21_3 1_555 1_555
C28_3 C27_3 1_555 1_555
C32_4 C28_3 1_555 1_555
N1_4 C1_4 1_555 1_555
N2_3 C2_4 1_555 1_555
N3_4 C8_4 1_555 1_555
N4_4 C10_4 1_555 1_555
N7_4 C16_4 1_555 1_555
N8_4 C16_4 1_555 1_555
O3_3 C32_4 1_555 1_555
O4_4 C32_4 1_555 1_555
Co2_4 N1_4 1_555 1_555
O11_4 Co2_4 1_555 1_555
Co5 N4_4 1_555 1_555
C3_4 N1_4 1_555 1_555
C3_4 N2_3 1_555 1_555
C4_3 N2_3 1_555 1_555
C8_4 C9_4 1_555 1_555
C10_4 N3_4 1_555 1_555
C11_4 N3_4 1_555 1_555
C12_4 N4_4 1_555 1_555
C17_4 N7_4 1_555 1_555
C18_4 N8_4 1_555 1_555
C19_4 N8_4 1_555 1_555
C23_4 C24_4 1_555 1_555
N7_4 Co2_4 1_555 1_555
O2_4 Co2_4 1_555 1_555
O4_4 Co5 1_555 1_555
O6_4 Co5 1_555 1_555
C13_4 H11_4 1_555 1_555
C14_4 C13_4 1_555 1_555
H12_4 C14_4 1_555 1_555
C15_4 H13_4 1_555 1_555
N5_4 C13_4 1_555 1_555
N6_4 C14_4 1_555 1_555
Co5_2 N5_4 1_555 1_555
C15_4 N5_4 1_555 1_555
C15_4 N6_4 1_555 1_555
H7_5 C9_5 1_555 1_555
C10_5 H8_5 1_555 1_555
C12_5 C11_5 1_555 1_555
H10_5 C12_5 1_555 1_555
C40_5 C39_5 1_555 1_555
C41_5 C40_5 1_555 1_555
H29_5 C41_5 1_555 1_555
C42_5 C41_5 1_555 1_555
C43_5 C42_5 1_555 1_555
H30_5 C43_5 1_555 1_555
C44_5 C39_5 1_555 1_555
C45_5 C44_5 1_555 1_555
C46_5 C42_5 1_555 1_555
N3_5 C8_5 1_555 1_555
N9 C10_5 1_555 1_555
O10 C32_5 1_555 1_555
O11 C45_5 1_555 1_555
O12 C45_5 1_555 1_555
O13_4 C46_5 1_555 1_555
O8_5 C46_5 1_555 1_555
C8_5 C9_5 1_555 1_555
C10_5 N3_5 1_555 1_555
C11_5 N3_5 1_555 1_555
C12_5 N9 1_555 1_555
C43_5 C44_5 1_555 1_555
C1_5 H1_5 1_555 1_555
C2_5 C1_5 1_555 1_555
H2_5 C2_5 1_555 1_555
C3_5 H3_5 1_555 1_555
C13_5 H11_5 1_555 1_555
C14_5 C13_5 1_555 1_555
H12_5 C14_5 1_555 1_555
C15_5 H13_5 1_555 1_555
C16_5 H14_5 1_555 1_555
C17_5 H15_5 1_555 1_555
C18_5 C17_5 1_555 1_555
H16_5 C18_5 1_555 1_555
C19_5 C20_5 1_555 1_555
C20_5 H17_5 1_555 1_555
C21_5 C20_5 1_555 1_555
H18_5 C21_5 1_555 1_555
C22_5 C21_5 1_555 1_555
H19_5 C22_5 1_555 1_555
C23_5 C22_5 1_555 1_555
C24_5 C19_5 1_555 1_555
H20_5 C24_5 1_555 1_555
C25_5 C26_5 1_555 1_555
N1_5 C1_5 1_555 1_555
N10_2 C13_5 1_555 1_555
N6_5 C14_5 1_555 1_555
N7_5 C16_5 1_555 1_555
N8_5 C16_5 1_555 1_555
O1_5 C25_5 1_555 1_555
O2_5 C25_5 1_555 1_555
O9_5 Co3 1_555 1_555
Co6 N1_5 1_555 1_555
H31_5 O9_5 1_555 1_555
H32_5 O9_5 1_555 1_555
C3_5 N1_5 1_555 1_555
C15_5 N10_2 1_555 1_555
C15_5 N6_5 1_555 1_555
C17_5 N7_5 1_555 1_555
C18_5 N8_5 1_555 1_555
C19_5 N8_5 1_555 1_555
C23_5 C24_5 1_555 1_555
C23_5 N6_5 1_555 1_555
N7_5 Co6 1_555 1_555
O2_5 Co6 1_555 1_555
O9_5 Co6 1_555 1_555
C13_6 H11_6 1_555 1_555
C14_6 C13_6 1_555 1_555
H12_6 C14_6 1_555 1_555
C15_6 H13_6 1_555 1_555
N10 C13_6 1_555 1_555
N6_6 C14_6 1_555 1_555
C15_6 N10 1_555 1_555
C15_6 N6_6 1_555 1_555
C1_6 H1_6 1_555 1_555
C2_6 C1_6 1_555 1_555
H2_6 C2_6 1_555 1_555
C3_6 H3_6 1_555 1_555
C16_6 H14_6 1_555 1_555
C17_6 H15_6 1_555 1_555
C18_6 C17_6 1_555 1_555
H16_6 C18_6 1_555 1_555
C19_6 C20_6 1_555 1_555
C20_6 H17_6 1_555 1_555
C21_6 C20_6 1_555 1_555
H18_6 C21_6 1_555 1_555
C22_6 C21_6 1_555 1_555
C23_6 C22_6 1_555 1_555
C24_6 C19_6 1_555 1_555
H20_6 C24_6 1_555 1_555
C25_6 C26_6 1_555 1_555
N1_6 C1_6 1_555 1_555
N2_4 C2_6 1_555 1_555
N7_6 C16_6 1_555 1_555
N8_6 C16_6 1_555 1_555
O1_6 C25_6 1_555 1_555
O2_6 C25_6 1_555 1_555
O9_6 Co4 1_555 1_555
Co6_2 N1_6 1_555 1_555
H31_6 O9_6 1_555 1_555
H32_6 O9_6 1_555 1_555
C3_6 N1_6 1_555 1_555
C3_6 N2_4 1_555 1_555
C4_4 N2_4 1_555 1_555
C17_6 N7_6 1_555 1_555
C18_6 N8_6 1_555 1_555
C19_6 N8_6 1_555 1_555
C23_6 C24_6 1_555 1_555
N7_6 Co6_2 1_555 1_555
O2_6 Co6_2 1_555 1_555
O9_6 Co6_2 1_555 1_555
H7_6 C9_6 1_555 1_555
C10_6 H8_6 1_555 1_555
C12_6 C11_6 1_555 1_555
H10_6 C12_6 1_555 1_555
C27_4 H21_4 1_555 1_555
C28_4 C27_4 1_555 1_555
C29_4 C28_4 1_555 1_555
C30_4 C29_4 1_555 1_555
H22_4 C30_4 1_555 1_555
C32_6 C28_4 1_555 1_555
C33_4 C29_4 1_555 1_555
C34_4 C33_4 1_555 1_555
H24_6 C34_4 1_555 1_555
C35_4 C34_4 1_555 1_555
C36_4 C35_4 1_555 1_555
H25_4 C36_4 1_555 1_555
C37_4 C36_4 1_555 1_555
H26_4 C37_4 1_555 1_555
C38_4 C33_4 1_555 1_555
H27_4 C38_4 1_555 1_555
C39_6 C35_4 1_555 1_555
C40_6 C39_6 1_555 1_555
H28_4 C40_6 1_555 1_555
C41_6 C40_6 1_555 1_555
H29_6 C41_6 1_555 1_555
C42_6 C41_6 1_555 1_555
C43_6 C42_6 1_555 1_555
H30_6 C43_6 1_555 1_555
C44_6 C39_6 1_555 1_555
C45_6 C44_6 1_555 1_555
C46_6 C42_6 1_555 1_555
N3_6 C8_6 1_555 1_555
N9_2 C10_6 1_555 1_555
O3_4 C32_6 1_555 1_555
O10_2 C32_6 1_555 1_555
O11_2 C45_6 1_555 1_555
O12_2 C45_6 1_555 1_555
O13_3 C46_6 1_555 1_555
O8_6 C46_6 1_555 1_555
C8_6 C9_6 1_555 1_555
C10_6 N3_6 1_555 1_555
C11_6 N3_6 1_555 1_555
C12_6 N9_2 1_555 1_555
C30_4 C31_4 1_555 1_555
C37_4 C38_4 1_555 1_555
C43_6 C44_6 1_555 1_555
C4_5 C5_3 1_555 1_555
C5_3 H4_3 1_555 1_555
C6_3 C5_3 1_555 1_555
H5_3 C6_3 1_555 1_555
C7_3 C6_3 1_555 1_555
H6_3 C7_3 1_555 1_555
C8_7 C7_3 1_555 1_555
C9_7 C4_5 1_555 1_555
H7_7 C9_7 1_555 1_555
C10_7 H8_7 1_555 1_555
C11_7 H9_3 1_555 1_555
C12_7 C11_7 1_555 1_555
H10_7 C12_7 1_555 1_555
N3_7 C8_7 1_555 1_555
N9_3 C10_7 1_555 1_555
O10_3 C32_7 1_555 1_555
C4_5 N2_5 1_555 1_555
C8_7 C9_7 1_555 1_555
C10_7 N3_7 1_555 1_555
C11_7 N3_7 1_555 1_555
C12_7 N9_3 1_555 1_555
C1_7 H1_7 1_555 1_555
C2_7 C1_7 1_555 1_555
H2_7 C2_7 1_555 1_555
C3_7 H3_7 1_555 1_555
C13_7 H11_7 1_555 1_555
C14_7 C13_7 1_555 1_555
H12_7 C14_7 1_555 1_555
C15_7 H13_7 1_555 1_555
C16_7 H14_7 1_555 1_555
C17_7 H15_7 1_555 1_555
C18_7 C17_7 1_555 1_555
H16_7 C18_7 1_555 1_555
C19_7 C20_7 1_555 1_555
C20_7 H17_7 1_555 1_555
C21_7 C20_7 1_555 1_555
H18_7 C21_7 1_555 1_555
C22_7 C21_7 1_555 1_555
H19_7 C22_7 1_555 1_555
C23_7 C22_7 1_555 1_555
C24_7 C19_7 1_555 1_555
H20_7 C24_7 1_555 1_555
C27_5 H21_5 1_555 1_555
C28_5 C27_5 1_555 1_555
N1_7 C1_7 1_555 1_555
N10_4 C13_7 1_555 1_555
N6_7 C14_7 1_555 1_555
N7_7 C16_7 1_555 1_555
N8_7 C16_7 1_555 1_555
Co6_3 N1_7 1_555 1_555
C3_7 N1_7 1_555 1_555
C15_7 N10_4 1_555 1_555
C15_7 N6_7 1_555 1_555
C17_7 N7_7 1_555 1_555
C18_7 N8_7 1_555 1_555
C19_7 N8_7 1_555 1_555
C23_7 C24_7 1_555 1_555
C23_7 N6_7 1_555 1_555
N7_7 Co6_3 1_555 1_555
O2_7 Co6_3 1_555 1_555
C40_7 C39_7 1_555 1_555
C41_7 C40_7 1_555 1_555
H29_7 C41_7 1_555 1_555
C42_7 C41_7 1_555 1_555
C43_7 C42_7 1_555 1_555
H30_7 C43_7 1_555 1_555
C44_7 C39_7 1_555 1_555
C45_7 C44_7 1_555 1_555
C46_7 C42_7 1_555 1_555
O11_3 C45_7 1_555 1_555
O13_2 C46_7 1_555 1_555
O8_7 C46_7 1_555 1_555
C43_7 C44_7 1_555 1_555
C25_7 C26_7 1_555 1_555
C30_5 C29_5 1_555 1_555
H22_5 C30_5 1_555 1_555
C31_5 C26_7 1_555 1_555
H23_7 C31_5 1_555 1_555
C33_5 C29_5 1_555 1_555
C34_5 C33_5 1_555 1_555
C35_5 C34_5 1_555 1_555
C36_5 C35_5 1_555 1_555
H25_5 C36_5 1_555 1_555
C37_5 C36_5 1_555 1_555
C38_5 C33_5 1_555 1_555
O1_7 C25_7 1_555 1_555
O9_7 Co5_2 1_555 1_555
H31_7 O9_7 1_555 1_555
H32_7 O9_7 1_555 1_555
C30_5 C31_5 1_555 1_555
C37_5 C38_5 1_555 1_555
C13_8 H11_8 1_555 1_555
C14_8 C13_8 1_555 1_555
H12_8 C14_8 1_555 1_555
C15_8 H13_8 1_555 1_555
N10_3 C13_8 1_555 1_555
N6_8 C14_8 1_555 1_555
C15_8 N10_3 1_555 1_555
C15_8 N6_8 1_555 1_555
C1_8 H1_8 1_555 1_555
C2_8 C1_8 1_555 1_555
H2_8 C2_8 1_555 1_555
C3_8 H3_8 1_555 1_555
C4_6 C5_4 1_555 1_555
C5_4 H4_4 1_555 1_555
C6_4 C5_4 1_555 1_555
H5_4 C6_4 1_555 1_555
C7_4 C6_4 1_555 1_555
H6_4 C7_4 1_555 1_555
C8_8 C7_4 1_555 1_555
C9_8 C4_6 1_555 1_555
H7_8 C9_8 1_555 1_555
C10_8 H8_8 1_555 1_555
C11_8 H9_4 1_555 1_555
C12_8 C11_8 1_555 1_555
H10_8 C12_8 1_555 1_555
C16_8 H14_8 1_555 1_555
C17_8 H15_8 1_555 1_555
C18_8 C17_8 1_555 1_555
H16_8 C18_8 1_555 1_555
C19_8 C20_8 1_555 1_555
C20_8 H17_8 1_555 1_555
C21_8 C20_8 1_555 1_555
H18_8 C21_8 1_555 1_555
C22_8 C21_8 1_555 1_555
C23_8 C22_8 1_555 1_555
C24_8 C19_8 1_555 1_555
H20_8 C24_8 1_555 1_555
C27_6 H21_6 1_555 1_555
C28_6 C27_6 1_555 1_555
C32_8 C28_6 1_555 1_555
N1_8 C1_8 1_555 1_555
N2_6 C2_8 1_555 1_555
N3_8 C8_8 1_555 1_555
N9_4 C10_8 1_555 1_555
N7_8 C16_8 1_555 1_555
N8_8 C16_8 1_555 1_555
O3_6 C32_8 1_555 1_555
O10_4 C32_8 1_555 1_555
Co6_4 N1_8 1_555 1_555
C3_8 N1_8 1_555 1_555
C3_8 N2_6 1_555 1_555
C4_6 N2_6 1_555 1_555
C8_8 C9_8 1_555 1_555
C10_8 N3_8 1_555 1_555
C11_8 N3_8 1_555 1_555
C12_8 N9_4 1_555 1_555
C17_8 N7_8 1_555 1_555
C18_8 N8_8 1_555 1_555
C19_8 N8_8 1_555 1_555
C23_8 C24_8 1_555 1_555
N7_8 Co6_4 1_555 1_555
O2_8 Co6_4 1_555 1_555
C25_8 C26_8 1_555 1_555
C30_6 C29_6 1_555 1_555
H22_6 C30_6 1_555 1_555
C31_6 C26_8 1_555 1_555
H23_8 C31_6 1_555 1_555
C33_6 C29_6 1_555 1_555
C34_6 C33_6 1_555 1_555
H24_8 C34_6 1_555 1_555
C35_6 C34_6 1_555 1_555
C36_6 C35_6 1_555 1_555
H25_6 C36_6 1_555 1_555
C37_6 C36_6 1_555 1_555
C38_6 C33_6 1_555 1_555
C39_8 C35_6 1_555 1_555
C40_8 C39_8 1_555 1_555
H28_6 C40_8 1_555 1_555
C41_8 C40_8 1_555 1_555
H29_8 C41_8 1_555 1_555
C42_8 C41_8 1_555 1_555
C43_8 C42_8 1_555 1_555
H30_8 C43_8 1_555 1_555
C44_8 C39_8 1_555 1_555
C45_8 C44_8 1_555 1_555
C46_8 C42_8 1_555 1_555
O1_8 C25_8 1_555 1_555
O11_4 C45_8 1_555 1_555
O13 C46_8 1_555 1_555
O8_8 C46_8 1_555 1_555
O9_8 Co5 1_555 1_555
H31_8 O9_8 1_555 1_555
H32_8 O9_8 1_555 1_555
C30_6 C31_6 1_555 1_555
C37_6 C38_6 1_555 1_555
C43_8 C44_8 1_555 1_555
C4_7 N2_7 1_555 1_555
C5_5 H4_5 1_555 1_555
C6_5 C5_5 1_555 1_555
H5_5 C6_5 1_555 1_555
C27_7 H21_7 1_555 1_555
C28_7 C27_7 1_555 1_555
C29_7 C28_7 1_555 1_555
C30_7 C29_7 1_555 1_555
H22_7 C30_7 1_555 1_555
C33_7 C29_7 1_555 1_555
C34_7 C33_7 1_555 1_555
C35_7 C34_7 1_555 1_555
C36_7 C35_7 1_555 1_555
H25_7 C36_7 1_555 1_555
C37_7 C36_7 1_555 1_555
H26_7 C37_7 1_555 1_555
C38_7 C33_7 1_555 1_555
H27_7 C38_7 1_555 1_555
C30_7 C31_7 1_555 1_555
C37_7 C38_7 1_555 1_555
H6_5 C7_5 1_555 1_555
H6_6 C7_6 1_555 1_555
C5_6 H4_6 1_555 1_555
C6_6 C5_6 1_555 1_555
H5_6 C6_6 1_555 1_555
H6_7 C7_7 1_555 1_555
C27_8 H21_8 1_555 1_555
C28_8 C27_8 1_555 1_555
C29_8 C28_8 1_555 1_555
C30_8 C29_8 1_555 1_555
H22_8 C30_8 1_555 1_555
C33_8 C29_8 1_555 1_555
C34_8 C33_8 1_555 1_555
C35_8 C34_8 1_555 1_555
C36_8 C35_8 1_555 1_555
H25_8 C36_8 1_555 1_555
C37_8 C36_8 1_555 1_555
H26_8 C37_8 1_555 1_555
C38_8 C33_8 1_555 1_555
H27_8 C38_8 1_555 1_555
C30_8 C31_8 1_555 1_555
C37_8 C38_8 1_555 1_555
C5_7 H4_7 1_555 1_555
C6_7 C5_7 1_555 1_555
H5_7 C6_7 1_555 1_555
C4_8 N2_8 1_555 1_555
C5_8 H4_8 1_555 1_555
C6_8 C5_8 1_555 1_555
H5_8 C6_8 1_555 1_555
H6_8 C7_8 1_555 1_555

#END
