
###############################################################################
#
# This file contains modified crystal structure data generated from the
# MOF subset of the Cambridge Structural Database (CSD) v543 
# hosted by the Cambridge Crystallographic Data Centre (CCDC).
#
# This work is licensed under the Creative Commons
# Attribution-NonCommercial-ShareAlike 4.0 International License.
# To view a copy of this license, visit
# http://creativecommons.org/licenses/by-nc-sa/4.0/
# or send a letter to
# Creative Commons, PO Box 1866, Mountain View, CA 94042, USA.
#
# CIF created using the CSD Python API on 29 September 2022
# The structure has been converted into the P1 space group
# The structure has a 3D framework
# The original CSD entry JUSKIT is in the monoclinic crystal system
# The framework has been calculated to contain at least 10.0% void space
# The void calculation uses a probe of radius 1.32A, grid spacing 0.4
#
###############################################################################

data_JUSKIT
_chemical_formula_moiety         '(C136 H96 Ba2 O46)n'
_symmetry_cell_setting           triclinic
_symmetry_space_group_name_H-M   'P 1'
_symmetry_Int_Tables_number      1
_space_group_name_Hall           'P 1'
loop_
_symmetry_equiv_pos_site_id
_symmetry_equiv_pos_as_xyz
1 x,y,z
_cell_length_a                   32.2746(7)
_cell_length_b                   12.6358(6)
_cell_length_c                   8.9507(2)
_cell_angle_alpha                90
_cell_angle_beta                 98.533(2)
_cell_angle_gamma                90
_cell_volume                     3609.83
loop_
_atom_site_label
_atom_site_type_symbol
_atom_site_fract_x
_atom_site_fract_y
_atom_site_fract_z
Ba6 Ba 0.0000 0.56956(5) 0.2500
Ba3 Ba 0.0000 0.43044(5) 0.7500
O5 O 0.7623(2) 0.1393(7) 0.4043(11)
C12 C 0.7659(3) 0.0352(9) 0.4432(14)
C16 C 0.7231(3) 0.1781(10) 0.3401(14)
H7 H 0.7240 0.2540 0.3359
H8 H 0.7023 0.1567 0.4006
H9 H 0.7159 0.1503 0.2398
O12 O 0.8342(4) 0.0835(7) 0.541(2)
C32 C 0.8062(3) 0.0040(11) 0.5153(15)
C34 C 0.8736(7) 0.0596(15) 0.632(4)
H22 H 0.8691 0.0117 0.7109
H23 H 0.8919 0.0274 0.5696
H24 H 0.8860 0.1237 0.6748
Ba4 Ba 0.5000 0.06956(5) 0.2500
O18 O 0.46974(16) 0.0807(4) 0.5460(6)
O19 O 0.53026(16) 0.0807(4) 0.9540(6)
O7 O 0.94233(15) 0.6748(6) 0.0545(5)
O10 O 0.87777(16) 0.6633(6) 0.0988(5)
H13 H 0.8889 0.6415 0.1815
C18 C 0.9057(2) 0.6695(7) 0.0082(6)
Ba6_2 Ba 1.0000 0.56956(5) 0.2500
O2 O 0.57477(16) 0.8711(7) 0.6471(5)
O3 O 0.53026(16) 0.9193(4) 0.4540(6)
O6 O 0.6658(4) 0.4165(7) 0.459(2)
C2 C 0.59583(17) 0.8559(6) 0.4053(6)
C3 C 0.61081(18) 0.8307(6) 0.1549(6)
C4 C 0.58264(17) 0.8513(6) 0.2515(6)
H2 H 0.5546 0.8622 0.2134
C5 C 0.65270(19) 0.8105(7) 0.2109(7)
H3 H 0.6718 0.7972 0.1448
C6 C 0.63738(18) 0.8349(6) 0.4614(6)
H4 H 0.6463 0.8374 0.5651
C7 C 0.66582(18) 0.8101(7) 0.3651(7)
C8 C 0.56474(19) 0.8837(7) 0.5097(6)
C9 C 0.70985(19) 0.7813(7) 0.4314(6)
C10 C 0.74115(19) 0.8567(7) 0.4578(7)
C11 C 0.7175(2) 0.6744(7) 0.4733(8)
C13 C 0.6864(3) 0.5949(9) 0.4452(13)
H5 H 0.6598 0.6135 0.3973
C14 C 0.7347(3) 0.9647(8) 0.4147(11)
H6 H 0.7086 0.9865 0.3664
C15 C 0.6938(3) 0.4960(11) 0.4847(15)
C17 C 0.6264(7) 0.4404(15) 0.368(4)
H10 H 0.6309 0.4883 0.2891
H11 H 0.6081 0.4726 0.4304
H12 H 0.6140 0.3763 0.3252
O8 O 0.92523(16) 0.6289(7) 0.3529(5)
O9 O 0.96974(16) 0.5807(4) 0.5460(6)
O11 O 0.7377(2) 0.3607(7) 0.5957(11)
C19 C 0.90417(17) 0.6441(6) 0.5947(6)
C20 C 0.88919(18) 0.6693(6) 0.8451(6)
C21 C 0.91736(17) 0.6487(6) 0.7485(6)
H14 H 0.9454 0.6378 0.7866
C22 C 0.84730(19) 0.6895(7) 0.7891(7)
H15 H 0.8282 0.7028 0.8552
C23 C 0.86262(18) 0.6651(6) 0.5386(6)
H16 H 0.8537 0.6626 0.4349
C24 C 0.83418(18) 0.6899(7) 0.6349(7)
C25 C 0.93526(19) 0.6163(7) 0.4903(6)
C26 C 0.79015(19) 0.7187(7) 0.5686(6)
C27 C 0.75885(19) 0.6433(7) 0.5422(7)
C28 C 0.7825(2) 0.8256(7) 0.5267(8)
C29 C 0.7341(3) 0.4648(9) 0.5568(14)
C30 C 0.8136(3) 0.9051(9) 0.5548(13)
H17 H 0.8402 0.8865 0.6027
C31 C 0.7653(3) 0.5353(8) 0.5853(11)
H18 H 0.7914 0.5135 0.6336
C33 C 0.7769(3) 0.3219(10) 0.6599(14)
H19 H 0.7760 0.2460 0.6641
H20 H 0.7977 0.3433 0.5994
H21 H 0.7841 0.3497 0.7602
Ba2 Ba 0.5000 0.93044(5) 0.7500
Ba3_2 Ba 1.0000 0.43044(5) 0.7500
O17 O 0.46974(16) 0.9193(4) 0.0460(6)
O1 O 0.55767(15) 0.8252(6) 0.9455(5)
O4 O 0.62223(16) 0.8367(6) 0.9012(5)
H1 H 0.6111 0.8585 0.8185
C1 C 0.5943(2) 0.8305(7) 0.9918(6)
O13 O 0.44233(15) 0.8252(6) 0.5545(5)
O15 O 0.42523(16) 0.8711(7) 0.8529(5)
O5_2 O 0.2377(2) 0.1393(7) 0.0957(11)
C12_2 C 0.2341(3) 0.0352(9) 0.0568(14)
C16_2 C 0.2769(3) 0.1781(10) 0.1599(14)
H7_2 H 0.2760 0.2540 0.1641
H8_2 H 0.2977 0.1567 0.0994
H9_2 H 0.2841 0.1503 0.2602
O4_2 O 0.37777(16) 0.8367(6) 0.5988(5)
H1_2 H 0.3889 0.8585 0.6815
O6_2 O 0.3342(4) 0.4165(7) 0.041(2)
C1_2 C 0.4057(2) 0.8305(7) 0.5082(6)
C2_2 C 0.40417(17) 0.8559(6) 0.0947(6)
C3_2 C 0.38919(18) 0.8307(6) 0.3451(6)
C4_2 C 0.41736(17) 0.8513(6) 0.2485(6)
H2_2 H 0.4454 0.8622 0.2866
C5_2 C 0.34730(19) 0.8105(7) 0.2891(7)
H3_2 H 0.3282 0.7972 0.3552
C6_2 C 0.36262(18) 0.8349(6) 0.0386(6)
C7_2 C 0.33418(18) 0.8101(7) 0.1349(7)
C9_2 C 0.29015(19) 0.7813(7) 0.0686(6)
C10_2 C 0.25885(19) 0.8567(7) 0.0422(7)
C11_2 C 0.2825(2) 0.6744(7) 0.0267(8)
C13_2 C 0.3136(3) 0.5949(9) 0.0548(13)
H5_2 H 0.3402 0.6135 0.1027
C14_2 C 0.2653(3) 0.9647(8) 0.0853(11)
H6_2 H 0.2914 0.9865 0.1336
C15_2 C 0.3062(3) 0.4960(11) 0.0153(15)
C17_2 C 0.3736(7) 0.4404(15) 0.132(4)
H10_2 H 0.3691 0.4883 0.2109
H11_2 H 0.3919 0.4726 0.0696
H12_2 H 0.3860 0.3763 0.1748
O8_2 O 0.07477(16) 0.6289(7) 0.1471(5)
H16_2 H 0.1463 0.6626 0.0651
C25_2 C 0.06474(19) 0.6163(7) 0.0097(6)
H4_2 H 0.3537 0.8374 0.9349
C8_2 C 0.43526(19) 0.8837(7) 0.9903(6)
O7_2 O 0.05767(15) 0.6748(6) 0.4455(5)
O9_2 O 0.03026(16) 0.5807(4) 0.9540(6)
O10_2 O 0.12223(16) 0.6633(6) 0.4012(5)
H13_2 H 0.1111 0.6415 0.3185
O11_2 O 0.2623(2) 0.3607(7) 0.9043(11)
C18_2 C 0.0943(2) 0.6695(7) 0.4918(6)
C19_2 C 0.09583(17) 0.6441(6) 0.9053(6)
C20_2 C 0.11081(18) 0.6693(6) 0.6549(6)
C21_2 C 0.08264(17) 0.6487(6) 0.7515(6)
H14_2 H 0.0546 0.6378 0.7134
C22_2 C 0.15270(19) 0.6895(7) 0.7109(7)
H15_2 H 0.1718 0.7028 0.6448
C23_2 C 0.13738(18) 0.6651(6) 0.9614(6)
C24_2 C 0.16582(18) 0.6899(7) 0.8651(7)
C26_2 C 0.20985(19) 0.7187(7) 0.9314(6)
C27_2 C 0.24115(19) 0.6433(7) 0.9578(7)
C28_2 C 0.2175(2) 0.8256(7) 0.9733(8)
C29_2 C 0.2659(3) 0.4648(9) 0.9432(14)
C30_2 C 0.1864(3) 0.9051(9) 0.9452(13)
H17_2 H 0.1598 0.8865 0.8973
C31_2 C 0.2347(3) 0.5353(8) 0.9147(11)
H18_2 H 0.2086 0.5135 0.8664
C33_2 C 0.2231(3) 0.3219(10) 0.8401(14)
H19_2 H 0.2240 0.2460 0.8359
H20_2 H 0.2023 0.3433 0.9006
H21_2 H 0.2159 0.3497 0.7398
O7_3 O 0.44233(15) 0.1748(6) 0.0545(5)
O10_3 O 0.37777(16) 0.1633(6) 0.0988(5)
H13_3 H 0.3889 0.1415 0.1815
C18_3 C 0.4057(2) 0.1695(7) 0.0082(6)
O2_2 O 0.07477(16) 0.3711(7) 0.6471(5)
O3_2 O 0.03026(16) 0.4193(4) 0.4540(6)
O5_3 O 0.2623(2) 0.6393(7) 0.4043(11)
C2_3 C 0.09583(17) 0.3559(6) 0.4053(6)
C3_3 C 0.11081(18) 0.3307(6) 0.1549(6)
C4_3 C 0.08264(17) 0.3513(6) 0.2515(6)
H2_3 H 0.0546 0.3622 0.2134
C5_3 C 0.15270(19) 0.3105(7) 0.2109(7)
H3_3 H 0.1718 0.2972 0.1448
C6_3 C 0.13738(18) 0.3349(6) 0.4614(6)
H4_3 H 0.1463 0.3374 0.5651
C7_3 C 0.16582(18) 0.3101(7) 0.3651(7)
C8_3 C 0.06474(19) 0.3837(7) 0.5097(6)
C9_3 C 0.20985(19) 0.2813(7) 0.4314(6)
C10_3 C 0.24115(19) 0.3567(7) 0.4578(7)
C11_3 C 0.2175(2) 0.1744(7) 0.4733(8)
C12_3 C 0.2659(3) 0.5352(9) 0.4432(14)
C13_3 C 0.1864(3) 0.0949(9) 0.4452(13)
H5_3 H 0.1598 0.1135 0.3973
C14_3 C 0.2347(3) 0.4647(8) 0.4147(11)
H6_3 H 0.2086 0.4865 0.3664
C16_3 C 0.2231(3) 0.6781(10) 0.3401(14)
H7_3 H 0.2240 0.7540 0.3359
H8_3 H 0.2023 0.6567 0.4006
H9_3 H 0.2159 0.6503 0.2398
O8_3 O 0.42523(16) 0.1289(7) 0.3529(5)
O12_2 O 0.3342(4) 0.5835(7) 0.541(2)
C19_3 C 0.40417(17) 0.1441(6) 0.5947(6)
C20_3 C 0.38919(18) 0.1693(6) 0.8451(6)
C21_3 C 0.41736(17) 0.1487(6) 0.7485(6)
H14_3 H 0.4454 0.1378 0.7866
C22_3 C 0.34730(19) 0.1895(7) 0.7891(7)
H15_3 H 0.3282 0.2028 0.8552
C23_3 C 0.36262(18) 0.1651(6) 0.5386(6)
H16_3 H 0.3537 0.1626 0.4349
C24_3 C 0.33418(18) 0.1899(7) 0.6349(7)
C25_3 C 0.43526(19) 0.1163(7) 0.4903(6)
C26_3 C 0.29015(19) 0.2187(7) 0.5686(6)
C27_3 C 0.25885(19) 0.1433(7) 0.5422(7)
C28_3 C 0.2825(2) 0.3256(7) 0.5267(8)
C30_3 C 0.3136(3) 0.4051(9) 0.5548(13)
H17_3 H 0.3402 0.3865 0.6027
C31_3 C 0.2653(3) 0.0353(8) 0.5853(11)
H18_3 H 0.2914 0.0135 0.6336
C32_2 C 0.3062(3) 0.5040(11) 0.5153(15)
C34_2 C 0.3736(7) 0.5596(15) 0.632(4)
H22_2 H 0.3691 0.5117 0.7109
H23_2 H 0.3919 0.5274 0.5696
H24_2 H 0.3860 0.6237 0.6748
O1_2 O 0.05767(15) 0.3252(6) 0.9455(5)
O4_3 O 0.12223(16) 0.3367(6) 0.9012(5)
H1_3 H 0.1111 0.3585 0.8185
C1_3 C 0.0943(2) 0.3305(7) 0.9918(6)
O6_3 O 0.1658(4) 0.9165(7) 0.459(2)
C15_3 C 0.1938(3) 0.9960(11) 0.4847(15)
C17_3 C 0.1264(7) 0.9404(15) 0.368(4)
H10_3 H 0.1309 0.9883 0.2891
H11_3 H 0.1081 0.9726 0.4304
H12_3 H 0.1140 0.8763 0.3252
O11_3 O 0.2377(2) 0.8607(7) 0.5957(11)
C29_3 C 0.2341(3) 0.9648(9) 0.5568(14)
C33_3 C 0.2769(3) 0.8219(10) 0.6599(14)
H19_3 H 0.2760 0.7460 0.6641
H20_3 H 0.2977 0.8433 0.5994
H21_3 H 0.2841 0.8497 0.7602
O17_2 O 0.96974(16) 0.4193(4) 0.0460(6)
O13_2 O 0.94233(15) 0.3252(6) 0.5545(5)
O15_2 O 0.92523(16) 0.3711(7) 0.8529(5)
O4_4 O 0.87777(16) 0.3367(6) 0.5988(5)
H1_4 H 0.8889 0.3585 0.6815
O5_4 O 0.7377(2) 0.6393(7) 0.0957(11)
C1_4 C 0.9057(2) 0.3305(7) 0.5082(6)
C2_4 C 0.90417(17) 0.3559(6) 0.0947(6)
C3_4 C 0.88919(18) 0.3307(6) 0.3451(6)
C4_4 C 0.91736(17) 0.3513(6) 0.2485(6)
H2_4 H 0.9454 0.3622 0.2866
C5_4 C 0.84730(19) 0.3105(7) 0.2891(7)
H3_4 H 0.8282 0.2972 0.3552
C6_4 C 0.86262(18) 0.3349(6) 0.0386(6)
C7_4 C 0.83418(18) 0.3101(7) 0.1349(7)
C9_4 C 0.79015(19) 0.2813(7) 0.0686(6)
C10_4 C 0.75885(19) 0.3567(7) 0.0422(7)
C11_4 C 0.7825(2) 0.1744(7) 0.0267(8)
C12_4 C 0.7341(3) 0.5352(9) 0.0568(14)
C13_4 C 0.8136(3) 0.0949(9) 0.0548(13)
H5_4 H 0.8402 0.1135 0.1027
C14_4 C 0.7653(3) 0.4647(8) 0.0853(11)
H6_4 H 0.7914 0.4865 0.1336
C16_4 C 0.7769(3) 0.6781(10) 0.1599(14)
H7_4 H 0.7760 0.7540 0.1641
H8_4 H 0.7977 0.6567 0.0994
H9_4 H 0.7841 0.6503 0.2602
O8_4 O 0.57477(16) 0.1289(7) 0.1471(5)
H16_4 H 0.6463 0.1626 0.0651
C25_4 C 0.56474(19) 0.1163(7) 0.0097(6)
H4_4 H 0.8537 0.3374 0.9349
C8_4 C 0.93526(19) 0.3837(7) 0.9903(6)
O7_4 O 0.55767(15) 0.1748(6) 0.4455(5)
O10_4 O 0.62223(16) 0.1633(6) 0.4012(5)
H13_4 H 0.6111 0.1415 0.3185
O12_3 O 0.6658(4) 0.5835(7) 0.959(2)
C18_4 C 0.5943(2) 0.1695(7) 0.4918(6)
C19_4 C 0.59583(17) 0.1441(6) 0.9053(6)
C20_4 C 0.61081(18) 0.1693(6) 0.6549(6)
C21_4 C 0.58264(17) 0.1487(6) 0.7515(6)
H14_4 H 0.5546 0.1378 0.7134
C22_4 C 0.65270(19) 0.1895(7) 0.7109(7)
H15_4 H 0.6718 0.2028 0.6448
C23_4 C 0.63738(18) 0.1651(6) 0.9614(6)
C24_4 C 0.66582(18) 0.1899(7) 0.8651(7)
C26_4 C 0.70985(19) 0.2187(7) 0.9314(6)
C27_4 C 0.74115(19) 0.1433(7) 0.9578(7)
C28_4 C 0.7175(2) 0.3256(7) 0.9733(8)
C30_4 C 0.6864(3) 0.4051(9) 0.9452(13)
H17_4 H 0.6598 0.3865 0.8973
C31_4 C 0.7347(3) 0.0353(8) 0.9147(11)
H18_4 H 0.7086 0.0135 0.8664
C32_3 C 0.6938(3) 0.5040(11) 0.9847(15)
C34_3 C 0.6264(7) 0.5596(15) 0.868(4)
H22_3 H 0.6309 0.5117 0.7891
H23_3 H 0.6081 0.5274 0.9304
H24_3 H 0.6140 0.6237 0.8252
O11_4 O 0.7623(2) 0.8607(7) 0.9043(11)
C29_4 C 0.7659(3) 0.9648(9) 0.9432(14)
C33_4 C 0.7231(3) 0.8219(10) 0.8401(14)
H19_4 H 0.7240 0.7460 0.8359
H20_4 H 0.7023 0.8433 0.9006
H21_4 H 0.7159 0.8497 0.7398
O12_4 O 0.1658(4) 0.0835(7) 0.959(2)
C32_4 C 0.1938(3) 0.0040(11) 0.9847(15)
C34_4 C 0.1264(7) 0.0596(15) 0.868(4)
H22_4 H 0.1309 0.0117 0.7891
H23_4 H 0.1081 0.0274 0.9304
H24_4 H 0.1140 0.1237 0.8252
O6_4 O 0.8342(4) 0.9165(7) 0.041(2)
C15_4 C 0.8062(3) 0.9960(11) 0.0153(15)
C17_4 C 0.8736(7) 0.9404(15) 0.132(4)
H10_4 H 0.8691 0.9883 0.2109
H11_4 H 0.8919 0.9726 0.0696
H12_4 H 0.8860 0.8763 0.1748
loop_
_geom_bond_atom_site_label_1
_geom_bond_atom_site_label_2
_geom_bond_site_symmetry_1
_geom_bond_site_symmetry_2
O5 C12 1_555 1_555
C16 O5 1_555 1_555
H7 C16 1_555 1_555
H8 C16 1_555 1_555
H9 C16 1_555 1_555
O12 C32 1_555 1_555
C32 C12 1_555 1_555
C34 O12 1_555 1_555
H22 C34 1_555 1_555
H23 C34 1_555 1_555
H24 C34 1_555 1_555
O7 C18 1_555 1_555
O10 H13 1_555 1_555
C18 O10 1_555 1_555
Ba6_2 O7 1_555 1_555
O2 C8 1_555 1_555
O3 C8 1_555 1_555
O6 C15 1_555 1_555
C2 C4 1_555 1_555
C4 C3 1_555 1_555
H2 C4 1_555 1_555
C5 C3 1_555 1_555
H3 C5 1_555 1_555
C6 C2 1_555 1_555
H4 C6 1_555 1_555
C7 C5 1_555 1_555
C8 C2 1_555 1_555
C9 C7 1_555 1_555
C10 C9 1_555 1_555
C11 C9 1_555 1_555
C13 C11 1_555 1_555
H5 C13 1_555 1_555
C14 C10 1_555 1_555
H6 C14 1_555 1_555
C15 C13 1_555 1_555
C17 O6 1_555 1_555
H10 C17 1_555 1_555
H11 C17 1_555 1_555
H12 C17 1_555 1_555
O8 C25 1_555 1_555
O9 C25 1_555 1_555
O11 C29 1_555 1_555
C19 C21 1_555 1_555
C21 C20 1_555 1_555
H14 C21 1_555 1_555
C22 C20 1_555 1_555
H15 C22 1_555 1_555
C23 C19 1_555 1_555
H16 C23 1_555 1_555
C24 C22 1_555 1_555
C25 C19 1_555 1_555
C26 C24 1_555 1_555
C27 C11 1_555 1_555
C28 C10 1_555 1_555
C29 C15 1_555 1_555
C30 C28 1_555 1_555
H17 C30 1_555 1_555
C31 C27 1_555 1_555
H18 C31 1_555 1_555
C33 O11 1_555 1_555
H19 C33 1_555 1_555
H20 C33 1_555 1_555
H21 C33 1_555 1_555
Ba2 O2 1_555 1_555
Ba3_2 O9 1_555 1_555
Ba6_2 O8 1_555 1_555
O3 Ba2 1_555 1_555
C6 C7 1_555 1_555
O9 Ba6_2 1_555 1_555
C23 C24 1_555 1_555
C26 C27 1_555 1_555
C26 C28 1_555 1_555
C29 C31 1_555 1_555
Ba2 O1 1_555 1_555
O1 C1 1_555 1_555
O4 H1 1_555 1_555
C1 O4 1_555 1_555
O13 Ba2 1_555 1_555
O15 Ba2 1_555 1_555
O5_2 C12_2 1_555 1_555
C16_2 O5_2 1_555 1_555
H7_2 C16_2 1_555 1_555
H8_2 C16_2 1_555 1_555
H9_2 C16_2 1_555 1_555
Ba4 O18 1_555 1_555
O13 C1_2 1_555 1_555
O4_2 H1_2 1_555 1_555
O6_2 C15_2 1_555 1_555
C1_2 O4_2 1_555 1_555
C2_2 C4_2 1_555 1_555
C3_2 C1_2 1_555 1_555
C4_2 C3_2 1_555 1_555
H2_2 C4_2 1_555 1_555
C5_2 C3_2 1_555 1_555
H3_2 C5_2 1_555 1_555
C6_2 C2_2 1_555 1_555
C7_2 C5_2 1_555 1_555
C9_2 C7_2 1_555 1_555
C10_2 C9_2 1_555 1_555
C11_2 C9_2 1_555 1_555
C13_2 C11_2 1_555 1_555
H5_2 C13_2 1_555 1_555
C14_2 C10_2 1_555 1_555
H6_2 C14_2 1_555 1_555
C15_2 C13_2 1_555 1_555
C17_2 O6_2 1_555 1_555
H10_2 C17_2 1_555 1_555
H11_2 C17_2 1_555 1_555
H12_2 C17_2 1_555 1_555
O8_2 C25_2 1_555 1_555
Ba6 O8_2 1_555 1_555
C6_2 C7_2 1_555 1_555
O15 C8_2 1_555 1_555
O7_2 C18_2 1_555 1_555
O10_2 H13_2 1_555 1_555
O11_2 C29_2 1_555 1_555
C18_2 O10_2 1_555 1_555
C19_2 C21_2 1_555 1_555
C20_2 C18_2 1_555 1_555
C21_2 C20_2 1_555 1_555
H14_2 C21_2 1_555 1_555
C22_2 C20_2 1_555 1_555
H15_2 C22_2 1_555 1_555
C23_2 C19_2 1_555 1_555
C24_2 C22_2 1_555 1_555
C26_2 C24_2 1_555 1_555
C30_2 C28_2 1_555 1_555
H17_2 C30_2 1_555 1_555
C31_2 C27_2 1_555 1_555
H18_2 C31_2 1_555 1_555
C33_2 O11_2 1_555 1_555
H19_2 C33_2 1_555 1_555
H20_2 C33_2 1_555 1_555
H21_2 C33_2 1_555 1_555
Ba3 O9_2 1_555 1_555
Ba6 O7_2 1_555 1_555
C23_2 C24_2 1_555 1_555
C26_2 C27_2 1_555 1_555
C26_2 C28_2 1_555 1_555
C29_2 C31_2 1_555 1_555
O7_3 C18_3 1_555 1_555
O10_3 H13_3 1_555 1_555
C18_3 O10_3 1_555 1_555
Ba4 O7_3 1_555 1_555
O2_2 C8_3 1_555 1_555
O3_2 C8_3 1_555 1_555
O5_3 C12_3 1_555 1_555
C2_3 C4_3 1_555 1_555
C4_3 C3_3 1_555 1_555
H2_3 C4_3 1_555 1_555
C5_3 C3_3 1_555 1_555
H3_3 C5_3 1_555 1_555
C6_3 C2_3 1_555 1_555
H4_3 C6_3 1_555 1_555
C7_3 C5_3 1_555 1_555
C8_3 C2_3 1_555 1_555
C9_3 C7_3 1_555 1_555
C10_3 C9_3 1_555 1_555
C11_3 C9_3 1_555 1_555
C12_3 C14_3 1_555 1_555
C13_3 C11_3 1_555 1_555
H5_3 C13_3 1_555 1_555
C14_3 C10_3 1_555 1_555
H6_3 C14_3 1_555 1_555
C16_3 O5_3 1_555 1_555
H7_3 C16_3 1_555 1_555
H8_3 C16_3 1_555 1_555
H9_3 C16_3 1_555 1_555
O8_3 C25_3 1_555 1_555
O18 C25_3 1_555 1_555
O12_2 C32_2 1_555 1_555
C19_3 C21_3 1_555 1_555
C21_3 C20_3 1_555 1_555
H14_3 C21_3 1_555 1_555
C22_3 C20_3 1_555 1_555
H15_3 C22_3 1_555 1_555
C23_3 C19_3 1_555 1_555
H16_3 C23_3 1_555 1_555
C24_3 C22_3 1_555 1_555
C25_3 C19_3 1_555 1_555
C26_3 C24_3 1_555 1_555
C27_3 C11_3 1_555 1_555
C28_3 C10_3 1_555 1_555
C30_3 C28_3 1_555 1_555
H17_3 C30_3 1_555 1_555
C31_3 C27_3 1_555 1_555
H18_3 C31_3 1_555 1_555
C32_2 C12_3 1_555 1_555
C34_2 O12_2 1_555 1_555
H22_2 C34_2 1_555 1_555
H23_2 C34_2 1_555 1_555
H24_2 C34_2 1_555 1_555
Ba3 O2_2 1_555 1_555
Ba6 O3_2 1_555 1_555
Ba4 O8_3 1_555 1_555
O3_2 Ba3 1_555 1_555
C6_3 C7_3 1_555 1_555
C23_3 C24_3 1_555 1_555
C26_3 C27_3 1_555 1_555
C26_3 C28_3 1_555 1_555
C30_3 C32_2 1_555 1_555
Ba3 O1_2 1_555 1_555
O1_2 C1_3 1_555 1_555
O4_3 H1_3 1_555 1_555
C1_3 O4_3 1_555 1_555
O6_3 C15_3 1_555 1_555
C17_3 O6_3 1_555 1_555
H10_3 C17_3 1_555 1_555
H11_3 C17_3 1_555 1_555
H12_3 C17_3 1_555 1_555
O11_3 C29_3 1_555 1_555
C29_3 C15_3 1_555 1_555
C33_3 O11_3 1_555 1_555
H19_3 C33_3 1_555 1_555
H20_3 C33_3 1_555 1_555
H21_3 C33_3 1_555 1_555
Ba6_2 O17_2 1_555 1_555
O13_2 Ba3_2 1_555 1_555
O15_2 Ba3_2 1_555 1_555
O13_2 C1_4 1_555 1_555
O4_4 H1_4 1_555 1_555
O5_4 C12_4 1_555 1_555
C1_4 O4_4 1_555 1_555
C2_4 C4_4 1_555 1_555
C3_4 C1_4 1_555 1_555
C4_4 C3_4 1_555 1_555
H2_4 C4_4 1_555 1_555
C5_4 C3_4 1_555 1_555
H3_4 C5_4 1_555 1_555
C6_4 C2_4 1_555 1_555
C7_4 C5_4 1_555 1_555
C9_4 C7_4 1_555 1_555
C10_4 C9_4 1_555 1_555
C11_4 C9_4 1_555 1_555
C12_4 C14_4 1_555 1_555
C13_4 C11_4 1_555 1_555
H5_4 C13_4 1_555 1_555
C14_4 C10_4 1_555 1_555
H6_4 C14_4 1_555 1_555
C16_4 O5_4 1_555 1_555
H7_4 C16_4 1_555 1_555
H8_4 C16_4 1_555 1_555
H9_4 C16_4 1_555 1_555
O8_4 C25_4 1_555 1_555
Ba4 O8_4 1_555 1_555
C6_4 C7_4 1_555 1_555
O15_2 C8_4 1_555 1_555
O7_4 C18_4 1_555 1_555
O10_4 H13_4 1_555 1_555
O12_3 C32_3 1_555 1_555
C18_4 O10_4 1_555 1_555
C19_4 C21_4 1_555 1_555
C20_4 C18_4 1_555 1_555
C21_4 C20_4 1_555 1_555
H14_4 C21_4 1_555 1_555
C22_4 C20_4 1_555 1_555
H15_4 C22_4 1_555 1_555
C23_4 C19_4 1_555 1_555
C24_4 C22_4 1_555 1_555
C26_4 C24_4 1_555 1_555
C30_4 C28_4 1_555 1_555
H17_4 C30_4 1_555 1_555
C31_4 C27_4 1_555 1_555
H18_4 C31_4 1_555 1_555
C34_3 O12_3 1_555 1_555
H22_3 C34_3 1_555 1_555
H23_3 C34_3 1_555 1_555
H24_3 C34_3 1_555 1_555
Ba4 O7_4 1_555 1_555
C23_4 C24_4 1_555 1_555
C26_4 C27_4 1_555 1_555
C26_4 C28_4 1_555 1_555
C30_4 C32_3 1_555 1_555
O11_4 C29_4 1_555 1_555
C33_4 O11_4 1_555 1_555
H19_4 C33_4 1_555 1_555
H20_4 C33_4 1_555 1_555
H21_4 C33_4 1_555 1_555
O12_4 C32_4 1_555 1_555
C34_4 O12_4 1_555 1_555
H22_4 C34_4 1_555 1_555
H23_4 C34_4 1_555 1_555
H24_4 C34_4 1_555 1_555
O6_4 C15_4 1_555 1_555
C17_4 O6_4 1_555 1_555
H10_4 C17_4 1_555 1_555
H11_4 C17_4 1_555 1_555
H12_4 C17_4 1_555 1_555

#END
