
###############################################################################
#
# This file contains modified crystal structure data generated from the
# MOF subset of the Cambridge Structural Database (CSD) v543 
# hosted by the Cambridge Crystallographic Data Centre (CCDC).
#
# This work is licensed under the Creative Commons
# Attribution-NonCommercial-ShareAlike 4.0 International License.
# To view a copy of this license, visit
# http://creativecommons.org/licenses/by-nc-sa/4.0/
# or send a letter to
# Creative Commons, PO Box 1866, Mountain View, CA 94042, USA.
#
# CIF created using the CSD Python API on 29 September 2022
# The structure has been converted into the P1 space group
# The structure has a 3D framework
# The original CSD entry JUSKAL is in the triclinic crystal system
# The framework has been calculated to contain at least 10.0% void space
# The void calculation uses a probe of radius 1.32A, grid spacing 0.4
#
###############################################################################

data_JUSKAL
_chemical_formula_moiety         '(C146 H114 Ba4 N2 O47)n'
_symmetry_cell_setting           triclinic
_symmetry_space_group_name_H-M   'P 1'
_symmetry_Int_Tables_number      1
_space_group_name_Hall           'P 1'
loop_
_symmetry_equiv_pos_site_id
_symmetry_equiv_pos_as_xyz
1 x,y,z
_cell_length_a                   9.0362(15)
_cell_length_b                   17.484(3)
_cell_length_c                   24.772(4)
_cell_angle_alpha                69.717(3)
_cell_angle_beta                 84.873(3)
_cell_angle_gamma                82.904(3)
_cell_volume                     3638.35
loop_
_atom_site_label
_atom_site_type_symbol
_atom_site_fract_x
_atom_site_fract_y
_atom_site_fract_z
_atom_site_U_iso_or_equiv
_atom_site_thermal_displace_type
O5 O 0.5951(7) 0.0176(4) 0.7401(3) 0.0401 Uani
O6 O 0.0985(7) 0.8744(6) 0.8795(4) 0.0544 Uani
H2 H 0.0883 0.8650 0.9143 0.0810 Uiso
O12 O 0.0999(9) 0.0784(5) 0.9570(3) 0.0518 Uani
O18 O 0.0336(12) 0.3038(5) 0.5379(4) 0.0764 Uani
C10 C 0.0228(9) 0.2501(5) 0.6970(4) 0.0305 Uani
C13 C 0.1342(9) 0.1042(5) 0.7408(4) 0.0262 Uani
C24 C 0.0681(9) 0.1840(5) 0.7475(4) 0.0291 Uani
C26 C 0.0414(9) 0.1937(5) 0.8015(4) 0.0302 Uani
C28 C 0.0377(9) 0.0521(5) 0.7340(4) 0.0283 Uani
C30 C 0.2853(9) 0.0856(5) 0.7353(4) 0.0298 Uani
H13 H 0.3503 0.1193 0.7407 0.0360 Uiso
H14 H 0.0621 0.4576 0.7575 0.0350 Uiso
C38 C 0.0056(14) 0.3055(6) 0.5931(5) 0.0485 Uani
C41 C 0.0512(11) 0.2427(6) 0.6416(4) 0.0397 Uani
H16 H 0.1014 0.1947 0.6381 0.0480 Uiso
C45 C 0.0859(10) 0.1291(6) 0.8537(4) 0.0359 Uani
H22 H 0.1332 0.0801 0.8510 0.0430 Uiso
C50 C 0.3416(9) 0.0168(5) 0.7216(4) 0.0300 Uani
C52 C 0.0622(12) 0.1364(7) 0.9059(5) 0.0460 Uani
C54 C 0.1646(12) 0.0015(6) 0.9552(5) 0.0444 Uani
H30 H 0.2607 0.0076 0.9351 0.0670 Uiso
C58 C 0.0037(10) 0.8365(7) 0.8641(5) 0.0451 Uani
C64 C 0.133(3) 0.2374(11) 0.5320(7) 0.1328 Uani
H39 H 0.1599 0.2474 0.4919 0.1980 Uiso
H40 H 0.0850 0.1878 0.5476 0.1980 Uiso
H41 H 0.2211 0.2322 0.5524 0.1980 Uiso
O23 O 0.1464(7) 0.5911(4) 0.7621(4) 0.0566 Uani
O24 O 0.0429(8) 0.7903(7) 0.8386(5) 0.0783 Uani
C66 C 0.0104(10) 0.6122(6) 0.7586(4) 0.0344 Uani
O36 O 0.0989(7) 0.3575(4) 0.3881(3) 0.0440 Uani
H81 H 0.1854 0.3401 0.3827 0.0660 Uiso
O37 O 0.0497(7) 0.2386(5) 0.3822(4) 0.0547 Uani
C107 C 0.0076(9) 0.3032(6) 0.3881(4) 0.0345 Uani
Ba12 Ba 0.25147(5) 0.18388(3) 0.31018(2) 0.0287 Uani
Ba14 Ba 0.24832(5) 0.73573(3) 0.76987(2) 0.0298 Uani
O60 O 0.0452(7) 0.8634(4) 0.7026(3) 0.0385 Uani
H1 H 0.6801 0.9968 0.7363 0.0600 Uiso
O11 O 0.5451(7) 0.9509(5) 0.6833(4) 0.0531 Uani
C8 C 0.2450(9) 0.9662(6) 0.7128(4) 0.0325 Uani
H5 H 0.2832 0.9222 0.7012 0.0390 Uiso
C18 C 0.0908(9) 0.9817(5) 0.7216(4) 0.0280 Uani
C48 C 0.5038(9) 0.9917(5) 0.7139(4) 0.0310 Uani
H28 H 0.1012 0.9809 0.9354 0.0670 Uiso
H29 H 0.1759 0.9638 0.9937 0.0670 Uiso
Ba7 Ba 0.74853(5) 0.81612(3) 0.68982(2) 0.0287 Uani
O26 O 0.4569(7) 0.2169(5) 0.2113(3) 0.0436 Uani
O27 O 0.6490(7) 0.1817(6) 0.1610(4) 0.0564 Uani
C74 C 0.3657(10) 0.0871(6) 0.0770(4) 0.0304 Uani
C75 C 0.5128(10) 0.1870(6) 0.1742(4) 0.0346 Uani
C76 C 0.2146(9) 0.1019(6) 0.0857(4) 0.0350 Uani
H59 H 0.1496 0.0832 0.0671 0.0420 Uiso
C77 C 0.4087(9) 0.1583(6) 0.1420(4) 0.0296 Uani
C79 C 0.4616(9) 0.1161(6) 0.1050(4) 0.0322 Uani
H60 H 0.5641 0.1069 0.0985 0.0380 Uiso
C81 C 0.4315(9) 0.0416(6) 0.0367(4) 0.0323 Uani
C82 C 0.2558(10) 0.1723(6) 0.1503(4) 0.0366 Uani
H61 H 0.2181 0.2005 0.1750 0.0440 Uiso
C87 C 0.1572(9) 0.1453(7) 0.1226(4) 0.0361 Uani
Ba18 Ba 0.75168(5) 0.26427(3) 0.23013(2) 0.0298 Uani
O64 O 0.0463(7) 0.3155(4) 0.2461(4) 0.0463 Uani
O1 O 0.5431(7) 0.7831(5) 0.7887(3) 0.0436 Uani
O2 O 0.6457(7) 0.7110(5) 0.6402(3) 0.0494 Uani
O3 O 0.3510(7) 0.8183(6) 0.8390(4) 0.0564 Uani
O4 O 0.4507(7) 0.7726(4) 0.6730(3) 0.0383 Uani
O9 O 0.4547(8) 0.6059(5) 0.7788(6) 0.0883 Uani
C1 C 0.5070(10) 0.7265(6) 0.6465(4) 0.0323 Uani
O13 O 0.8936(9) 0.4370(5) 0.5452(3) 0.0537 Uani
O14 O 0.3999(7) 0.4985(4) 0.7600(4) 0.0597 Uani
H3 H 0.3160 0.5232 0.7577 0.0890 Uiso
O15 O 0.4002(9) 0.2872(4) 0.6957(3) 0.0472 Uani
C2 C 0.3630(9) 0.5967(5) 0.5699(4) 0.0272 Uani
O16 O 0.5448(12) 0.2066(5) 0.6352(4) 0.0745 Uani
O17 O 0.9632(14) 0.2116(6) 0.9657(4) 0.0919 Uani
C3 C 0.4558(9) 0.4598(6) 0.5587(4) 0.0285 Uani
C4 C 0.6343(10) 0.9129(6) 0.9230(4) 0.0304 Uani
C5 C 0.4050(9) 0.6873(6) 0.6211(4) 0.0302 Uani
C6 C 0.4872(10) 0.8130(6) 0.8258(4) 0.0346 Uani
C7 C 0.7854(9) 0.8981(6) 0.9143(4) 0.0350 Uani
H4 H 0.8504 0.9168 0.9329 0.0420 Uiso
C9 C 0.4583(9) 0.6328(6) 0.5938(4) 0.0313 Uani
H6 H 0.5608 0.6193 0.5909 0.0370 Uiso
C11 C 0.2104(10) 0.6142(6) 0.5763(4) 0.0302 Uani
H7 H 0.1452 0.5887 0.5626 0.0360 Uiso
C12 C 0.5913(9) 0.8417(6) 0.8580(4) 0.0296 Uani
C15 C 0.4297(9) 0.5464(6) 0.5344(4) 0.0287 Uani
C16 C 0.2521(9) 0.7076(6) 0.6251(4) 0.0276 Uani
H8 H 0.2146 0.7462 0.6421 0.0330 Uiso
C17 C 0.9525(9) 0.3253(6) 0.7013(4) 0.0322 Uani
C19 C 0.5384(9) 0.8839(6) 0.8950(4) 0.0322 Uani
H9 H 0.4359 0.8931 0.9015 0.0380 Uiso
C21 C 0.5276(9) 0.4151(5) 0.5238(4) 0.0268 Uani
C23 C 0.5685(9) 0.9584(6) 0.9633(4) 0.0323 Uani
C25 C 0.7547(10) 0.5689(5) 0.7664(4) 0.0341 Uani
H10 H 0.7178 0.6195 0.7693 0.0410 Uiso
C27 C 0.7442(10) 0.8277(6) 0.8497(4) 0.0366 Uani
H11 H 0.7819 0.7995 0.8250 0.0440 Uiso
H12 H 0.9352 0.0649 0.7379 0.0340 Uiso
C29 C 0.9062(9) 0.5497(5) 0.7620(4) 0.0286 Uani
C31 C 0.9721(10) 0.2687(6) 0.8061(4) 0.0362 Uani
C32 C 0.8615(9) 0.4154(5) 0.7606(4) 0.0298 Uani
C33 C 0.9281(9) 0.3343(5) 0.7561(4) 0.0315 Uani
C34 C 0.9596(9) 0.4719(5) 0.7597(4) 0.0291 Uani
C35 C 0.1545(9) 0.6707(5) 0.6038(4) 0.0294 Uani
C36 C 0.9324(12) 0.3801(6) 0.5974(5) 0.0417 Uani
C37 C 0.4105(10) 0.4167(6) 0.6175(4) 0.0322 Uani
H15 H 0.3612 0.4457 0.6401 0.0390 Uiso
C40 C 0.4388(11) 0.3344(6) 0.6402(4) 0.0379 Uani
C42 C 0.5580(11) 0.3268(6) 0.5503(4) 0.0368 Uani
H17 H 0.6066 0.2962 0.5287 0.0440 Uiso
C44 C 0.646(3) 0.1627(9) 0.6070(7) 0.1243 Uani
H19 H 0.6009 0.1597 0.5742 0.1880 Uiso
H20 H 0.6715 0.1083 0.6331 0.1880 Uiso
H21 H 0.7351 0.1903 0.5943 0.1880 Uiso
C46 C 0.7112(10) 0.4355(6) 0.7642(5) 0.0360 Uani
H23 H 0.6456 0.3980 0.7650 0.0430 Uiso
C49 C 0.3300(12) 0.3284(7) 0.7326(5) 0.0462 Uani
H25 H 0.2357 0.3559 0.7179 0.0690 Uiso
H26 H 0.3926 0.3679 0.7345 0.0690 Uiso
H27 H 0.3142 0.2895 0.7705 0.0690 Uiso
C51 C 0.9900(15) 0.2102(8) 0.9112(5) 0.0568 Uani
C53 C 0.6551(10) 0.5137(6) 0.7667(5) 0.0372 Uani
C56 C 0.9086(10) 0.3893(6) 0.6491(4) 0.0373 Uani
H31 H 0.8622 0.4388 0.6512 0.0450 Uiso
C57 C 0.8428(9) 0.8547(7) 0.8774(4) 0.0361 Uani
C59 C 0.8256(13) 0.5132(6) 0.5457(5) 0.0510 Uani
H32 H 0.8030 0.5476 0.5072 0.0760 Uiso
H33 H 0.8922 0.5386 0.5608 0.0760 Uiso
H34 H 0.7350 0.5056 0.5696 0.0760 Uiso
C61 C 0.9452(12) 0.2751(7) 0.8623(5) 0.0460 Uani
H38 H 0.8972 0.3233 0.8662 0.0550 Uiso
C62 C 0.5161(12) 0.2885(6) 0.6064(5) 0.0441 Uani
C63 C 0.4946(10) 0.5427(6) 0.7693(5) 0.0415 Uani
O20 O 0.9537(7) 0.6845(4) 0.7539(4) 0.0463 Uani
C68 C 0.859(3) 0.2695(15) 0.9764(8) 0.1838 Uani
H46 H 0.7655 0.2674 0.9616 0.2750 Uiso
H47 H 0.8923 0.3229 0.9578 0.2750 Uiso
O25 O 0.7491(18) 0.9319(9) 0.5805(6) 0.1509 Uani
C70 C 0.734(2) 0.9581(12) 0.5332(5) 0.1574 Uani
C71 C 0.661(2) 0.9156(9) 0.5053(9) 0.1802 Uani
H52 H 0.7134 0.8616 0.5112 0.2160 Uiso
H53 H 0.5595 0.9090 0.5211 0.2160 Uiso
C72 C 0.661(2) 0.9621(13) 0.4456(8) 0.1904 Uani
H54 H 0.5595 0.9774 0.4333 0.2290 Uiso
H55 H 0.7135 0.9300 0.4234 0.2290 Uiso
O32 O 0.3543(7) 0.2890(5) 0.3598(3) 0.0494 Uani
O33 O 0.5493(7) 0.2274(4) 0.3270(3) 0.0383 Uani
C91 C 0.4930(10) 0.2735(6) 0.3535(4) 0.0323 Uani
O34 O 0.5998(9) 0.7128(4) 0.3043(3) 0.0472 Uani
C92 C 0.6370(9) 0.4033(5) 0.4301(4) 0.0272 Uani
O35 O 0.4552(12) 0.7934(5) 0.3648(4) 0.0745 Uani
C93 C 0.5442(9) 0.5402(6) 0.4413(4) 0.0285 Uani
C94 C 0.5950(9) 0.3127(6) 0.3789(4) 0.0302 Uani
C95 C 0.5417(9) 0.3672(6) 0.4062(4) 0.0313 Uani
H70 H 0.4392 0.3807 0.4091 0.0370 Uiso
C96 C 0.7896(10) 0.3858(6) 0.4237(4) 0.0302 Uani
H71 H 0.8548 0.4113 0.4374 0.0360 Uiso
C97 C 0.5703(9) 0.4536(6) 0.4656(4) 0.0287 Uani
C98 C 0.7479(9) 0.2924(6) 0.3749(4) 0.0276 Uani
H72 H 0.7854 0.2538 0.3579 0.0330 Uiso
C99 C 0.4724(9) 0.5849(5) 0.4762(4) 0.0268 Uani
C100 C 0.8455(9) 0.3293(5) 0.3962(4) 0.0294 Uani
C101 C 0.5895(10) 0.5833(6) 0.3825(4) 0.0322 Uani
H73 H 0.6388 0.5543 0.3599 0.0390 Uiso
C102 C 0.5612(11) 0.6656(6) 0.3598(4) 0.0379 Uani
C103 C 0.4420(11) 0.6732(6) 0.4497(4) 0.0368 Uani
H74 H 0.3934 0.7038 0.4713 0.0440 Uiso
C104 C 0.354(3) 0.8373(9) 0.3930(7) 0.1243 Uani
H75 H 0.3991 0.8403 0.4258 0.1880 Uiso
H76 H 0.3285 0.8917 0.3669 0.1880 Uiso
H77 H 0.2649 0.8097 0.4057 0.1880 Uiso
C105 C 0.6700(12) 0.6716(7) 0.2674(5) 0.0462 Uani
H78 H 0.7643 0.6441 0.2821 0.0690 Uiso
H79 H 0.6074 0.6321 0.2655 0.0690 Uiso
H80 H 0.6858 0.7105 0.2295 0.0690 Uiso
C106 C 0.4839(12) 0.7115(6) 0.3936(5) 0.0441 Uani
O55 O 0.8510(7) 0.9427(4) 0.7177(4) 0.0516 Uani
O65 O 0.9503(7) 0.7614(5) 0.6178(4) 0.0547 Uani
C22 C 0.9888(9) 0.9251(5) 0.7139(4) 0.0292 Uani
O39 O 0.1490(7) 0.0573(4) 0.2823(4) 0.0516 Uani
C113 C 0.0112(9) 0.0749(5) 0.2861(4) 0.0292 Uani
O28 O 0.9015(7) 0.1256(6) 0.1205(4) 0.0544 Uani
H58 H 0.9117 0.1350 0.0857 0.0810 Uiso
C88 C 0.9963(10) 0.1635(7) 0.1359(5) 0.0451 Uani
O31 O 0.9571(8) 0.2097(7) 0.1614(5) 0.0783 Uani
O40 O 0.5453(8) 0.3941(5) 0.2212(6) 0.0883 Uani
O43 O 0.1064(9) 0.5630(5) 0.4548(3) 0.0537 Uani
O44 O 0.6001(7) 0.5015(4) 0.2400(4) 0.0597 Uani
H83 H 0.6840 0.4768 0.2423 0.0890 Uiso
O45 O 0.0368(14) 0.7884(6) 0.0343(4) 0.0919 Uani
C111 C 0.0475(9) 0.6747(6) 0.2987(4) 0.0322 Uani
C115 C 0.2453(10) 0.4311(5) 0.2336(4) 0.0341 Uani
H85 H 0.2822 0.3805 0.2307 0.0410 Uiso
H86 H 0.0648 0.9351 0.2621 0.0340 Uiso
C118 C 0.0938(9) 0.4503(5) 0.2380(4) 0.0286 Uani
C120 C 0.0279(10) 0.7313(6) 0.1939(4) 0.0362 Uani
C121 C 0.1385(9) 0.5846(5) 0.2394(4) 0.0298 Uani
C122 C 0.0719(9) 0.6657(5) 0.2439(4) 0.0315 Uani
C123 C 0.0404(9) 0.5281(5) 0.2403(4) 0.0291 Uani
C124 C 0.0676(12) 0.6199(6) 0.4026(5) 0.0417 Uani
C128 C 0.2888(10) 0.5645(6) 0.2358(5) 0.0360 Uani
H91 H 0.3544 0.6020 0.2350 0.0430 Uiso
C131 C 0.0100(15) 0.7898(8) 0.0888(5) 0.0568 Uani
C133 C 0.3449(10) 0.4863(6) 0.2333(5) 0.0372 Uani
C135 C 0.0914(10) 0.6107(6) 0.3509(4) 0.0373 Uani
H95 H 0.1378 0.5612 0.3488 0.0450 Uiso
C136 C 0.1744(13) 0.4868(6) 0.4543(5) 0.0510 Uani
H96 H 0.1970 0.4524 0.4928 0.0760 Uiso
H97 H 0.1078 0.4614 0.4392 0.0760 Uiso
H98 H 0.2650 0.4944 0.4304 0.0760 Uiso
C137 C 0.0548(12) 0.7249(7) 0.1377(5) 0.0460 Uani
H99 H 0.1028 0.6767 0.1338 0.0550 Uiso
C138 C 0.5054(10) 0.4573(6) 0.2307(5) 0.0415 Uani
C141 C 0.141(3) 0.7305(15) 0.0236(8) 0.1838 Uani
H103 H 0.2345 0.7326 0.0384 0.2750 Uiso
H104 H 0.1077 0.6771 0.0422 0.2750 Uiso
O50 O 0.2509(18) 0.0681(9) 0.4195(6) 0.1509 Uani
C143 C 0.266(2) 0.0419(12) 0.4668(5) 0.1574 Uani
C144 C 0.339(2) 0.0844(9) 0.4947(9) 0.1802 Uani
H109 H 0.2866 0.1384 0.4888 0.2160 Uiso
H110 H 0.4405 0.0910 0.4789 0.2160 Uiso
C145 C 0.339(2) 0.0379(13) 0.5544(8) 0.1904 Uani
H111 H 0.4405 0.0226 0.5667 0.2290 Uiso
H112 H 0.2865 0.0700 0.5766 0.2290 Uiso
O58 O 0.4549(7) 0.0491(5) 0.3167(4) 0.0531 Uani
O62 O 0.9548(7) 0.1366(4) 0.2974(3) 0.0385 Uani
O68 O 0.8536(7) 0.4089(4) 0.2379(4) 0.0566 Uani
O21 O 0.9011(7) 0.6425(4) 0.6119(3) 0.0440 Uani
H45 H 0.8146 0.6599 0.6173 0.0660 Uiso
C67 C 0.9924(9) 0.6968(6) 0.6119(4) 0.0345 Uani
H82 H 0.3199 0.0032 0.2637 0.0600 Uiso
C108 C 0.7550(9) 0.0338(6) 0.2872(4) 0.0325 Uani
H84 H 0.7168 0.0778 0.2988 0.0390 Uiso
C112 C 0.9092(9) 0.0183(5) 0.2784(4) 0.0280 Uani
C129 C 0.4962(9) 0.0083(5) 0.2861(4) 0.0310 Uani
H92 H 0.8988 0.0191 0.0646 0.0670 Uiso
H93 H 0.8241 0.0362 0.0063 0.0670 Uiso
O38 O 0.4049(7) 0.9824(4) 0.2599(3) 0.0401 Uani
O42 O 0.9001(9) 0.9216(5) 0.0430(3) 0.0518 Uani
O46 O 0.9664(12) 0.6962(5) 0.4621(4) 0.0764 Uani
C109 C 0.9772(9) 0.7499(5) 0.3030(4) 0.0305 Uani
C110 C 0.8658(9) 0.8958(5) 0.2592(4) 0.0262 Uani
C114 C 0.9319(9) 0.8160(5) 0.2525(4) 0.0291 Uani
C116 C 0.9586(9) 0.8063(5) 0.1985(4) 0.0302 Uani
C117 C 0.9623(9) 0.9479(5) 0.2660(4) 0.0283 Uani
C119 C 0.7147(9) 0.9144(5) 0.2647(4) 0.0298 Uani
H87 H 0.6497 0.8807 0.2593 0.0360 Uiso
H88 H 0.9379 0.5424 0.2425 0.0350 Uiso
C125 C 0.9944(14) 0.6945(6) 0.4069(5) 0.0485 Uani
C126 C 0.9488(11) 0.7573(6) 0.3584(4) 0.0397 Uani
H89 H 0.8986 0.8053 0.3619 0.0480 Uiso
C127 C 0.9141(10) 0.8709(6) 0.1463(4) 0.0359 Uani
H90 H 0.8668 0.9199 0.1490 0.0430 Uiso
C130 C 0.6584(9) 0.9832(5) 0.2784(4) 0.0300 Uani
C132 C 0.9378(12) 0.8636(7) 0.0941(5) 0.0460 Uani
C134 C 0.8354(12) 0.9985(6) 0.0448(5) 0.0444 Uani
H94 H 0.7393 0.9924 0.0649 0.0670 Uiso
C139 C 0.867(3) 0.7626(11) 0.4680(7) 0.1328 Uani
H100 H 0.8401 0.7526 0.5081 0.1980 Uiso
H101 H 0.9150 0.8122 0.4524 0.1980 Uiso
H102 H 0.7789 0.7678 0.4476 0.1980 Uiso
C140 C 0.9896(10) 0.3878(6) 0.2414(4) 0.0344 Uani
C20 C 0.5438(10) 0.0440(6) 0.9417(4) 0.0330 Uani
C69 C 0.850(3) 0.0848(19) 0.5058(15) 0.2099 Uani
H49 H 0.8723 0.0613 0.5457 0.3200 Uiso
H50 H 0.7856 0.1349 0.4997 0.3200 Uiso
H51 H 0.9405 0.0961 0.4825 0.3200 Uiso
N1 N 0.7789(18) 0.0309(10) 0.4906(8) 0.1685 Uani
C73 C 0.734(2) 0.0334(11) 0.4365(6) 0.1852 Uani
H56 H 0.8203 0.0347 0.4101 0.2220 Uiso
H57 H 0.6664 0.0821 0.4200 0.2220 Uiso
O29 O 0.6034(9) 0.2250(5) 0.8098(3) 0.0543 Uani
O30 O 0.4724(14) 0.2988(5) 0.8752(4) 0.0914 Uani
C78 C 0.4745(9) 0.0870(6) 0.9796(4) 0.0322 Uani
C83 C 0.5651(12) 0.1738(7) 0.8650(5) 0.0438 Uani
C84 C 0.5889(10) 0.0910(6) 0.8847(4) 0.0320 Uani
H62 H 0.6359 0.0644 0.8602 0.0390 Uiso
C85 C 0.4502(12) 0.1741(6) 0.9555(5) 0.0441 Uani
H63 H 0.4034 0.2030 0.9786 0.0530 Uiso
C86 C 0.4925(14) 0.2159(7) 0.9009(5) 0.0534 Uani
C89 C 0.6726(12) 0.1857(7) 0.7711(5) 0.0479 Uani
H64 H 0.7630 0.1538 0.7867 0.0720 Uiso
H65 H 0.6059 0.1505 0.7658 0.0720 Uiso
H66 H 0.6955 0.2264 0.7346 0.0720 Uiso
C90 C 0.371(4) 0.3418(11) 0.9039(9) 0.1947 Uani
H67 H 0.4162 0.3432 0.9372 0.2910 Uiso
H68 H 0.3476 0.3967 0.8784 0.2910 Uiso
H69 H 0.2819 0.3146 0.9156 0.2910 Uiso
H105 H 0.1536 0.7414 0.9828 0.2750 Uiso
O8 O 0.3966(9) 0.7750(5) 0.1902(3) 0.0543 Uani
O10 O 0.5276(14) 0.7012(5) 0.1248(4) 0.0914 Uani
C14 C 0.5255(9) 0.9130(6) 0.0204(4) 0.0322 Uani
C39 C 0.4349(12) 0.8262(7) 0.1350(5) 0.0438 Uani
C43 C 0.4111(10) 0.9090(6) 0.1153(4) 0.0320 Uani
H18 H 0.3641 0.9356 0.1398 0.0390 Uiso
C47 C 0.5498(12) 0.8259(6) 0.0445(5) 0.0441 Uani
H24 H 0.5966 0.7970 0.0214 0.0530 Uiso
C55 C 0.5075(14) 0.7841(7) 0.0991(5) 0.0534 Uani
C60 C 0.3274(12) 0.8143(7) 0.2289(5) 0.0479 Uani
H35 H 0.2370 0.8462 0.2133 0.0720 Uiso
H36 H 0.3941 0.8495 0.2342 0.0720 Uiso
H37 H 0.3045 0.7736 0.2654 0.0720 Uiso
C65 C 0.629(4) 0.6582(11) 0.0961(9) 0.1947 Uani
H42 H 0.5838 0.6568 0.0628 0.2910 Uiso
H43 H 0.6524 0.6033 0.1216 0.2910 Uiso
H44 H 0.7181 0.6854 0.0844 0.2910 Uiso
H48 H 0.8464 0.2586 0.0172 0.2750 Uiso
C80 C 0.4562(10) 0.9560(6) 0.0583(4) 0.0330 Uani
C142 C 0.150(3) 0.9152(19) 0.4942(15) 0.2099 Uani
H106 H 0.1277 0.9387 0.4543 0.3200 Uiso
H107 H 0.2144 0.8651 0.5003 0.3200 Uiso
H108 H 0.0595 0.9039 0.5175 0.3200 Uiso
N2 N 0.2211(18) 0.9691(10) 0.5094(8) 0.1685 Uani
C146 C 0.266(2) 0.9666(11) 0.5635(6) 0.1852 Uani
H113 H 0.1797 0.9653 0.5899 0.2220 Uiso
H114 H 0.3336 0.9179 0.5800 0.2220 Uiso
loop_
_atom_site_aniso_label
_atom_site_aniso_U_11
_atom_site_aniso_U_22
_atom_site_aniso_U_33
_atom_site_aniso_U_23
_atom_site_aniso_U_13
_atom_site_aniso_U_12
O5 0.017 0.037 0.08 -0.039 -0.004 0.004
O6 0.022 0.095 0.074 -0.063 -0.003 -0.008
O12 0.06 0.048 0.05 -0.023 -0.012 0.01
O18 0.121 0.05 0.051 -0.022 -0.02 0.044
C10 0.02 0.022 0.057 -0.023 -0.008 0.003
C13 0.023 0.024 0.036 -0.016 0 -0.003
C24 0.017 0.031 0.045 -0.022 -0.002 0.004
C26 0.014 0.031 0.051 -0.023 -0.003 0.005
C28 0.017 0.023 0.05 -0.022 0.001 0.006
C30 0.017 0.023 0.057 -0.021 -0.005 -0.006
C38 0.065 0.031 0.052 -0.021 -0.01 0.012
C41 0.039 0.031 0.054 -0.026 -0.011 0.019
C45 0.027 0.032 0.052 -0.021 -0.004 0.006
C50 0.019 0.03 0.048 -0.022 -0.004 -0.001
C52 0.04 0.045 0.057 -0.023 -0.015 0.007
C54 0.04 0.035 0.058 -0.017 -0.008 0.005
C58 0.023 0.073 0.061 -0.054 0.007 0
C64 0.23 0.101 0.057 -0.044 -0.045 0.101
O23 0.012 0.044 0.126 -0.046 -0.004 0.003
O24 0.029 0.124 0.134 -0.112 0.014 -0.013
C66 0.023 0.035 0.049 -0.021 0.001 0.001
O36 0.016 0.057 0.075 -0.044 0.001 -0.002
O37 0.016 0.069 0.106 -0.068 0.008 0.001
C107 0.011 0.054 0.053 -0.038 0.004 -0.003
Ba12 0.0162 0.0318 0.0462 -0.0252 -0.0008 0.0017
Ba14 0.0158 0.0323 0.0491 -0.0256 -0.0004 0.0021
O60 0.02 0.031 0.076 -0.032 -0.004 -0.003
O11 0.018 0.067 0.095 -0.057 -0.003 0.006
C8 0.019 0.033 0.053 -0.025 -0.002 0
C18 0.019 0.025 0.046 -0.02 -0.001 -0.002
C48 0.016 0.026 0.056 -0.022 0.002 0.001
Ba7 0.0162 0.0318 0.0462 -0.0252 -0.0008 0.0017
O26 0.028 0.068 0.055 -0.046 0.001 -0.008
O27 0.015 0.098 0.084 -0.067 0 -0.004
C74 0.024 0.037 0.041 -0.026 -0.002 -0.005
C75 0.02 0.051 0.044 -0.031 0.002 -0.004
C76 0.011 0.058 0.051 -0.038 0.001 -0.004
C77 0.018 0.041 0.04 -0.028 0.001 -0.001
C79 0.014 0.041 0.05 -0.027 -0.004 0.002
C81 0.014 0.055 0.042 -0.038 0 0.007
C82 0.025 0.052 0.045 -0.032 0.002 -0.006
C87 0.014 0.062 0.045 -0.035 -0.001 -0.002
Ba18 0.0158 0.0323 0.0491 -0.0256 -0.0004 0.0021
O64 0.029 0.022 0.091 -0.023 -0.009 0.002
O1 0.028 0.068 0.055 -0.046 0.001 -0.008
O2 0.013 0.078 0.085 -0.064 0 -0.002
O3 0.015 0.098 0.084 -0.067 0 -0.004
O4 0.021 0.057 0.055 -0.043 0.001 -0.002
O9 0.022 0.057 0.221 -0.093 -0.017 0.008
C1 0.022 0.048 0.039 -0.031 0.004 -0.005
O13 0.067 0.043 0.054 -0.023 -0.019 0.015
O14 0.017 0.036 0.144 -0.053 -0.009 0
O15 0.062 0.043 0.037 -0.018 0.02 -0.01
C2 0.023 0.025 0.039 -0.018 -0.002 -0.001
O16 0.119 0.034 0.063 -0.023 0.039 0.009
O17 0.141 0.075 0.054 -0.034 -0.013 0.052
C3 0.016 0.042 0.034 -0.025 0.002 0.006
C4 0.024 0.037 0.041 -0.026 -0.002 -0.005
C5 0.014 0.039 0.046 -0.026 0 -0.001
C6 0.02 0.051 0.044 -0.031 0.002 -0.004
C7 0.011 0.058 0.051 -0.038 0.001 -0.004
C9 0.013 0.039 0.048 -0.025 -0.005 0.007
C11 0.024 0.036 0.04 -0.024 0.003 -0.009
C12 0.018 0.041 0.04 -0.028 0.001 -0.001
C15 0.011 0.043 0.039 -0.026 0 0.006
C16 0.019 0.041 0.035 -0.03 0 0.001
C17 0.016 0.041 0.048 -0.025 -0.005 -0.002
C19 0.014 0.041 0.05 -0.027 -0.004 0.002
C21 0.021 0.028 0.04 -0.024 0.001 0.001
C23 0.014 0.055 0.042 -0.038 0 0.007
C25 0.025 0.02 0.068 -0.03 -0.009 0.007
C27 0.025 0.052 0.045 -0.032 0.002 -0.006
C29 0.02 0.026 0.044 -0.016 -0.002 -0.006
C31 0.022 0.04 0.056 -0.029 -0.004 0.001
C32 0.022 0.022 0.051 -0.021 -0.001 0.002
C33 0.012 0.022 0.07 -0.029 -0.005 0.005
C34 0.014 0.031 0.047 -0.022 -0.002 0.007
C35 0.012 0.035 0.05 -0.029 0.005 0.003
C36 0.04 0.029 0.059 -0.017 -0.019 0.004
C37 0.024 0.039 0.043 -0.03 0.005 0.005
C40 0.032 0.036 0.053 -0.028 0.011 -0.002
C42 0.041 0.027 0.05 -0.027 0.003 0.006
C44 0.21 0.037 0.097 -0.02 0.068 0.033
C46 0.024 0.029 0.068 -0.032 -0.002 -0.005
C49 0.048 0.049 0.049 -0.027 0.018 -0.017
C51 0.07 0.054 0.05 -0.028 -0.013 0.018
C53 0.017 0.036 0.066 -0.029 -0.004 0.006
C56 0.027 0.033 0.055 -0.02 -0.013 0.008
C57 0.014 0.062 0.045 -0.035 -0.001 -0.002
C59 0.047 0.03 0.076 -0.02 -0.013 0.009
C61 0.043 0.042 0.065 -0.038 -0.001 0.009
C62 0.053 0.034 0.053 -0.031 0.007 0.008
C63 0.023 0.033 0.079 -0.033 -0.004 0
O20 0.029 0.022 0.091 -0.023 -0.009 0.002
C68 0.27 0.2 0.067 -0.079 -0.049 0.16
O25 0.157 0.136 0.1 -0.005 0.01 0.093
C70 0.167 0.15 0.109 -0.026 0.014 0.089
C71 0.186 0.168 0.135 -0.026 0.013 0.085
C72 0.196 0.17 0.149 -0.02 0.012 0.076
O32 0.013 0.078 0.085 -0.064 0 -0.002
O33 0.021 0.057 0.055 -0.043 0.001 -0.002
C91 0.022 0.048 0.039 -0.031 0.004 -0.005
O34 0.062 0.043 0.037 -0.018 0.02 -0.01
C92 0.023 0.025 0.039 -0.018 -0.002 -0.001
O35 0.119 0.034 0.063 -0.023 0.039 0.009
C93 0.016 0.042 0.034 -0.025 0.002 0.006
C94 0.014 0.039 0.046 -0.026 0 -0.001
C95 0.013 0.039 0.048 -0.025 -0.005 0.007
C96 0.024 0.036 0.04 -0.024 0.003 -0.009
C97 0.011 0.043 0.039 -0.026 0 0.006
C98 0.019 0.041 0.035 -0.03 0 0.001
C99 0.021 0.028 0.04 -0.024 0.001 0.001
C100 0.012 0.035 0.05 -0.029 0.005 0.003
C101 0.024 0.039 0.043 -0.03 0.005 0.005
C102 0.032 0.036 0.053 -0.028 0.011 -0.002
C103 0.041 0.027 0.05 -0.027 0.003 0.006
C104 0.21 0.037 0.097 -0.02 0.068 0.033
C105 0.048 0.049 0.049 -0.027 0.018 -0.017
C106 0.053 0.034 0.053 -0.031 0.007 0.008
O55 0.012 0.045 0.118 -0.054 0 -0.003
O65 0.016 0.069 0.106 -0.068 0.008 0.001
C22 0.017 0.027 0.055 -0.028 -0.003 -0.002
O39 0.012 0.045 0.118 -0.054 0 -0.003
C113 0.017 0.027 0.055 -0.028 -0.003 -0.002
O28 0.022 0.095 0.074 -0.063 -0.003 -0.008
C88 0.023 0.073 0.061 -0.054 0.007 0
O31 0.029 0.124 0.134 -0.112 0.014 -0.013
O40 0.022 0.057 0.221 -0.093 -0.017 0.008
O43 0.067 0.043 0.054 -0.023 -0.019 0.015
O44 0.017 0.036 0.144 -0.053 -0.009 0
O45 0.141 0.075 0.054 -0.034 -0.013 0.052
C111 0.016 0.041 0.048 -0.025 -0.005 -0.002
C115 0.025 0.02 0.068 -0.03 -0.009 0.007
C118 0.02 0.026 0.044 -0.016 -0.002 -0.006
C120 0.022 0.04 0.056 -0.029 -0.004 0.001
C121 0.022 0.022 0.051 -0.021 -0.001 0.002
C122 0.012 0.022 0.07 -0.029 -0.005 0.005
C123 0.014 0.031 0.047 -0.022 -0.002 0.007
C124 0.04 0.029 0.059 -0.017 -0.019 0.004
C128 0.024 0.029 0.068 -0.032 -0.002 -0.005
C131 0.07 0.054 0.05 -0.028 -0.013 0.018
C133 0.017 0.036 0.066 -0.029 -0.004 0.006
C135 0.027 0.033 0.055 -0.02 -0.013 0.008
C136 0.047 0.03 0.076 -0.02 -0.013 0.009
C137 0.043 0.042 0.065 -0.038 -0.001 0.009
C138 0.023 0.033 0.079 -0.033 -0.004 0
C141 0.27 0.2 0.067 -0.079 -0.049 0.16
O50 0.157 0.136 0.1 -0.005 0.01 0.093
C143 0.167 0.15 0.109 -0.026 0.014 0.089
C144 0.186 0.168 0.135 -0.026 0.013 0.085
C145 0.196 0.17 0.149 -0.02 0.012 0.076
O58 0.018 0.067 0.095 -0.057 -0.003 0.006
O62 0.02 0.031 0.076 -0.032 -0.004 -0.003
O68 0.012 0.044 0.126 -0.046 -0.004 0.003
O21 0.016 0.057 0.075 -0.044 0.001 -0.002
C67 0.011 0.054 0.053 -0.038 0.004 -0.003
C108 0.019 0.033 0.053 -0.025 -0.002 0
C112 0.019 0.025 0.046 -0.02 -0.001 -0.002
C129 0.016 0.026 0.056 -0.022 0.002 0.001
O38 0.017 0.037 0.08 -0.039 -0.004 0.004
O42 0.06 0.048 0.05 -0.023 -0.012 0.01
O46 0.121 0.05 0.051 -0.022 -0.02 0.044
C109 0.02 0.022 0.057 -0.023 -0.008 0.003
C110 0.023 0.024 0.036 -0.016 0 -0.003
C114 0.017 0.031 0.045 -0.022 -0.002 0.004
C116 0.014 0.031 0.051 -0.023 -0.003 0.005
C117 0.017 0.023 0.05 -0.022 0.001 0.006
C119 0.017 0.023 0.057 -0.021 -0.005 -0.006
C125 0.065 0.031 0.052 -0.021 -0.01 0.012
C126 0.039 0.031 0.054 -0.026 -0.011 0.019
C127 0.027 0.032 0.052 -0.021 -0.004 0.006
C130 0.019 0.03 0.048 -0.022 -0.004 -0.001
C132 0.04 0.045 0.057 -0.023 -0.015 0.007
C134 0.04 0.035 0.058 -0.017 -0.008 0.005
C139 0.23 0.101 0.057 -0.044 -0.045 0.101
C140 0.023 0.035 0.049 -0.021 0.001 0.001
C20 0.022 0.055 0.031 -0.029 0.001 0.003
C69 0.16 0.24 0.34 -0.25 0.08 -0.05
N1 0.172 0.165 0.115 -0.02 0.013 0.087
C73 0.192 0.171 0.137 -0.019 0.014 0.075
O29 0.057 0.057 0.05 -0.022 0.012 -0.009
O30 0.139 0.045 0.081 -0.027 0.042 0.008
C78 0.019 0.045 0.048 -0.037 0.005 -0.003
C83 0.037 0.053 0.048 -0.029 0.009 -0.002
C84 0.023 0.041 0.045 -0.034 0.005 0.001
C85 0.047 0.038 0.058 -0.036 0.008 0.007
C86 0.065 0.043 0.058 -0.033 0.017 0.006
C89 0.044 0.059 0.051 -0.031 0.019 -0.023
C90 0.36 0.055 0.125 -0.028 0.11 0.049
O8 0.057 0.057 0.05 -0.022 0.012 -0.009
O10 0.139 0.045 0.081 -0.027 0.042 0.008
C14 0.019 0.045 0.048 -0.037 0.005 -0.003
C39 0.037 0.053 0.048 -0.029 0.009 -0.002
C43 0.023 0.041 0.045 -0.034 0.005 0.001
C47 0.047 0.038 0.058 -0.036 0.008 0.007
C55 0.065 0.043 0.058 -0.033 0.017 0.006
C60 0.044 0.059 0.051 -0.031 0.019 -0.023
C65 0.36 0.055 0.125 -0.028 0.11 0.049
C80 0.022 0.055 0.031 -0.029 0.001 0.003
C142 0.16 0.24 0.34 -0.25 0.08 -0.05
N2 0.172 0.165 0.115 -0.02 0.013 0.087
C146 0.192 0.171 0.137 -0.019 0.014 0.075
loop_
_geom_bond_atom_site_label_1
_geom_bond_atom_site_label_2
_geom_bond_site_symmetry_1
_geom_bond_site_symmetry_2
O6 H2 1_555 1_555
O12 C52 1_555 1_555
O18 C38 1_555 1_555
C13 C24 1_555 1_555
C24 C10 1_555 1_555
C26 C24 1_555 1_555
C28 C13 1_555 1_555
C30 C13 1_555 1_555
H13 C30 1_555 1_555
C38 C41 1_555 1_555
C41 C10 1_555 1_555
H16 C41 1_555 1_555
C45 C26 1_555 1_555
H22 C45 1_555 1_555
C52 C45 1_555 1_555
C54 O12 1_555 1_555
H30 C54 1_555 1_555
C58 O6 1_555 1_555
C64 O18 1_555 1_555
H39 C64 1_555 1_555
H40 C64 1_555 1_555
H41 C64 1_555 1_555
O23 C66 1_555 1_555
O24 C58 1_555 1_555
O36 H81 1_555 1_555
O37 C107 1_555 1_555
Ba12 O37 1_555 1_555
C30 C50 1_555 1_555
O23 Ba14 1_555 1_555
O24 Ba14 1_555 1_555
O36 C107 1_555 1_555
Ba14 O60 1_555 1_555
O11 C48 1_555 1_555
C8 H5 1_555 1_555
C18 C8 1_555 1_555
Ba7 O11 1_555 1_555
O26 C75 1_555 1_555
O27 C75 1_555 1_555
C74 C76 1_555 1_555
C75 C77 1_555 1_555
C76 H59 1_555 1_555
C77 C79 1_555 1_555
C79 C74 1_555 1_555
H60 C79 1_555 1_555
C81 C74 1_555 1_555
C82 C77 1_555 1_555
H61 C82 1_555 1_555
C87 C76 1_555 1_555
Ba12 O26 1_555 1_555
Ba18 O26 1_555 1_555
O27 Ba18 1_555 1_555
C82 C87 1_555 1_555
Ba12 O64 1_555 1_555
Ba7 O1 1_555 1_555
Ba14 O1 1_555 1_555
O1 C6 1_555 1_555
O2 Ba7 1_555 1_555
O3 Ba14 1_555 1_555
O4 Ba7 1_555 1_555
O9 Ba14 1_555 1_555
C1 O2 1_555 1_555
O13 C36 1_555 1_555
O14 H3 1_555 1_555
O15 C40 1_555 1_555
C2 C9 1_555 1_555
O16 C44 1_555 1_555
O17 C51 1_555 1_555
C3 C15 1_555 1_555
C4 C7 1_555 1_555
C5 C1 1_555 1_555
C6 O3 1_555 1_555
C7 H4 1_555 1_555
C9 C5 1_555 1_555
H6 C9 1_555 1_555
C11 C2 1_555 1_555
H7 C11 1_555 1_555
C12 C6 1_555 1_555
C15 C2 1_555 1_555
C16 C5 1_555 1_555
H8 C16 1_555 1_555
C17 C33 1_555 1_555
C19 C4 1_555 1_555
H9 C19 1_555 1_555
C21 C3 1_555 1_555
C23 C4 1_555 1_555
C25 H10 1_555 1_555
C27 C12 1_555 1_555
H11 C27 1_555 1_555
C29 C25 1_555 1_555
C32 C33 1_555 1_555
C33 C31 1_555 1_555
C34 C29 1_555 1_555
C35 C11 1_555 1_555
C37 C3 1_555 1_555
H15 C37 1_555 1_555
C40 C37 1_555 1_555
C42 C21 1_555 1_555
H17 C42 1_555 1_555
C44 H19 1_555 1_555
H20 C44 1_555 1_555
H21 C44 1_555 1_555
C46 C32 1_555 1_555
H23 C46 1_555 1_555
C49 O15 1_555 1_555
H25 C49 1_555 1_555
H26 C49 1_555 1_555
H27 C49 1_555 1_555
C53 C25 1_555 1_555
C56 C17 1_555 1_555
H31 C56 1_555 1_555
C57 C7 1_555 1_555
C59 O13 1_555 1_555
H32 C59 1_555 1_555
H33 C59 1_555 1_555
H34 C59 1_555 1_555
C61 C31 1_555 1_555
H38 C61 1_555 1_555
C62 O16 1_555 1_555
C63 O9 1_555 1_555
O20 Ba7 1_555 1_555
C68 O17 1_555 1_555
H46 C68 1_555 1_555
H47 C68 1_555 1_555
O25 Ba7 1_555 1_555
C70 O25 1_555 1_555
C71 C70 1_555 1_555
H52 C71 1_555 1_555
H53 C71 1_555 1_555
C72 C71 1_555 1_555
H54 C72 1_555 1_555
H55 C72 1_555 1_555
O32 C91 1_555 1_555
O33 C91 1_555 1_555
C91 C94 1_555 1_555
O34 C102 1_555 1_555
C92 C95 1_555 1_555
O35 C104 1_555 1_555
C93 C97 1_555 1_555
C94 C95 1_555 1_555
C95 H70 1_555 1_555
C96 C92 1_555 1_555
H71 C96 1_555 1_555
C97 C21 1_555 1_555
C98 C94 1_555 1_555
H72 C98 1_555 1_555
C99 C15 1_555 1_555
C100 C96 1_555 1_555
C101 C93 1_555 1_555
H73 C101 1_555 1_555
C102 C101 1_555 1_555
C103 C99 1_555 1_555
H74 C103 1_555 1_555
C104 H75 1_555 1_555
H76 C104 1_555 1_555
H77 C104 1_555 1_555
C105 O34 1_555 1_555
H78 C105 1_555 1_555
H79 C105 1_555 1_555
H80 C105 1_555 1_555
C106 O35 1_555 1_555
Ba12 O32 1_555 1_555
Ba18 O33 1_555 1_555
O55 Ba7 1_555 1_555
O65 Ba7 1_555 1_555
Ba14 O4 1_555 1_555
O4 C1 1_555 1_555
O14 C63 1_555 1_555
C12 C19 1_555 1_555
C16 C35 1_555 1_555
C27 C57 1_555 1_555
C32 C34 1_555 1_555
C36 C56 1_555 1_555
C40 C62 1_555 1_555
C42 C62 1_555 1_555
C46 C53 1_555 1_555
C51 C61 1_555 1_555
C53 C63 1_555 1_555
O33 Ba12 1_555 1_555
C92 C97 1_555 1_555
C93 C99 1_555 1_555
C98 C100 1_555 1_555
C102 C106 1_555 1_555
C103 C106 1_555 1_555
O55 C22 1_555 1_555
O39 C113 1_555 1_555
Ba12 O39 1_555 1_555
O28 H58 1_555 1_555
C88 O28 1_555 1_555
O31 C88 1_555 1_555
Ba18 O31 1_555 1_555
O40 Ba18 1_555 1_555
O43 C124 1_555 1_555
O44 H83 1_555 1_555
O45 C131 1_555 1_555
C111 C122 1_555 1_555
C115 H85 1_555 1_555
C118 C115 1_555 1_555
C121 C122 1_555 1_555
C122 C120 1_555 1_555
C123 C118 1_555 1_555
C128 C121 1_555 1_555
H91 C128 1_555 1_555
C133 C115 1_555 1_555
C135 C111 1_555 1_555
H95 C135 1_555 1_555
C136 O43 1_555 1_555
H96 C136 1_555 1_555
H97 C136 1_555 1_555
H98 C136 1_555 1_555
C137 C120 1_555 1_555
H99 C137 1_555 1_555
C138 O40 1_555 1_555
C141 O45 1_555 1_555
H103 C141 1_555 1_555
H104 C141 1_555 1_555
O50 Ba12 1_555 1_555
C143 O50 1_555 1_555
C144 C143 1_555 1_555
H109 C144 1_555 1_555
H110 C144 1_555 1_555
C145 C144 1_555 1_555
H111 C145 1_555 1_555
H112 C145 1_555 1_555
O58 Ba12 1_555 1_555
O62 Ba18 1_555 1_555
O68 Ba18 1_555 1_555
O44 C138 1_555 1_555
C121 C123 1_555 1_555
C124 C135 1_555 1_555
C128 C133 1_555 1_555
C131 C137 1_555 1_555
C133 C138 1_555 1_555
O21 H45 1_555 1_555
O65 C67 1_555 1_555
O21 C67 1_555 1_555
O58 C129 1_555 1_555
C108 H84 1_555 1_555
C112 C108 1_555 1_555
O42 C132 1_555 1_555
O46 C125 1_555 1_555
C110 C114 1_555 1_555
C114 C109 1_555 1_555
C116 C114 1_555 1_555
C117 C110 1_555 1_555
C119 C110 1_555 1_555
H87 C119 1_555 1_555
C125 C126 1_555 1_555
C126 C109 1_555 1_555
H89 C126 1_555 1_555
C127 C116 1_555 1_555
H90 C127 1_555 1_555
C132 C127 1_555 1_555
C134 O42 1_555 1_555
H94 C134 1_555 1_555
C139 O46 1_555 1_555
H100 C139 1_555 1_555
H101 C139 1_555 1_555
H102 C139 1_555 1_555
O68 C140 1_555 1_555
C119 C130 1_555 1_555
C69 H49 1_555 1_555
H50 C69 1_555 1_555
H51 C69 1_555 1_555
N1 C69 1_555 1_555
C73 N1 1_555 1_555
H56 C73 1_555 1_555
H57 C73 1_555 1_555
O29 C83 1_555 1_555
O30 C86 1_555 1_555
C78 C20 1_555 1_555
C83 C84 1_555 1_555
C84 C20 1_555 1_555
H62 C84 1_555 1_555
C85 C78 1_555 1_555
H63 C85 1_555 1_555
C86 C83 1_555 1_555
C89 O29 1_555 1_555
H64 C89 1_555 1_555
H65 C89 1_555 1_555
H66 C89 1_555 1_555
C90 O30 1_555 1_555
H67 C90 1_555 1_555
H68 C90 1_555 1_555
H69 C90 1_555 1_555
C85 C86 1_555 1_555
O8 C39 1_555 1_555
O10 C55 1_555 1_555
C39 C43 1_555 1_555
C43 H18 1_555 1_555
C47 C14 1_555 1_555
H24 C47 1_555 1_555
C55 C39 1_555 1_555
C60 O8 1_555 1_555
H35 C60 1_555 1_555
H36 C60 1_555 1_555
H37 C60 1_555 1_555
C65 O10 1_555 1_555
H42 C65 1_555 1_555
H43 C65 1_555 1_555
H44 C65 1_555 1_555
C80 C14 1_555 1_555
C43 C80 1_555 1_555
C47 C55 1_555 1_555
C142 H106 1_555 1_555
H107 C142 1_555 1_555
H108 C142 1_555 1_555
N2 C142 1_555 1_555
C146 N2 1_555 1_555
H113 C146 1_555 1_555
H114 C146 1_555 1_555

#END
