
###############################################################################
#
# This file contains modified crystal structure data generated from the
# MOF subset of the Cambridge Structural Database (CSD) v543 
# hosted by the Cambridge Crystallographic Data Centre (CCDC).
#
# This work is licensed under the Creative Commons
# Attribution-NonCommercial-ShareAlike 4.0 International License.
# To view a copy of this license, visit
# http://creativecommons.org/licenses/by-nc-sa/4.0/
# or send a letter to
# Creative Commons, PO Box 1866, Mountain View, CA 94042, USA.
#
# CIF created using the CSD Python API on 29 September 2022
# The structure has been converted into the P1 space group
# The structure has a 3D framework
# The original CSD entry JUTCIM is in the rhombohedral crystal system
# The framework has been calculated to contain at least 10.0% void space
# The void calculation uses a probe of radius 1.32A, grid spacing 0.4
# H atom positions have been added when not included in the experimental data
#
###############################################################################

data_JUTCIM
_chemical_formula_moiety         '(C252 H108 Cu18 N72 O234)n'
_symmetry_cell_setting           triclinic
_symmetry_space_group_name_H-M   'P 1'
_symmetry_Int_Tables_number      1
_space_group_name_Hall           'P 1'
loop_
_symmetry_equiv_pos_site_id
_symmetry_equiv_pos_as_xyz
1 x,y,z
_cell_length_a                   45.646(7)
_cell_length_b                   45.646(7)
_cell_length_c                   10.915(2)
_cell_angle_alpha                90
_cell_angle_beta                 90
_cell_angle_gamma                120
_cell_volume                     19695.2
loop_
_atom_site_label
_atom_site_type_symbol
_atom_site_fract_x
_atom_site_fract_y
_atom_site_fract_z
Cu1 Cu 0.154622(7) 0.309266(8) 0.41905(3)
O1 O 0.11423(5) 0.28898(5) 0.3160(2)
C1 C 0.11196(7) 0.30266(8) 0.2190(3)
C2 C 0.07860(7) 0.28483(8) 0.1531(3)
C5 C 0.01668(6) 0.25182(7) 0.0315(3)
C6 C 0.07458(7) 0.29801(7) 0.0455(3)
H1 H 0.0924 0.3177 0.0127
C7 C 0.05271(9) 0.25486(10) 0.1994(4)
H2 H 0.0559 0.2452 0.2695
C8 C 0.02178(8) 0.23945(8) 0.1389(3)
O4 O 0.13487(5) 0.32952(6) 0.1708(2)
O5 O 0.13448(9) 0.26914(8) 0.5472(3)
O13 O 0.00345(19) 0.1977(3) 0.2810(8)
Cu4 Cu 0.178711(7) 0.357401(8) 0.24762(3)
O14 O 0.19846(5) 0.33715(6) 0.4959(2)
O15 O 0.17484(6) 0.28903(8) 0.3166(2)
O16 O 0.13854(6) 0.33706(8) 0.4957(2)
H5 H 0.129012 0.247712 0.5051
H6 H 0.15138 0.273886 0.6127
Cu1_2 Cu 0.690734(8) 0.845356(11) 0.41905(3)
O1_2 O 0.71102(5) 0.82525(7) 0.3160(2)
C1_2 C 0.69734(8) 0.80930(11) 0.2190(3)
C2_2 C 0.71517(8) 0.79377(11) 0.1531(3)
C5_2 C 0.74818(7) 0.76486(9) 0.0315(3)
C6_2 C 0.70199(7) 0.77657(10) 0.0455(3)
H1_2 H 0.6823 0.7747 0.0127
C7_2 C 0.74514(10) 0.79785(13) 0.1994(4)
H2_2 H 0.7548 0.8107 0.2695
C8_2 C 0.76055(8) 0.78233(11) 0.1389(3)
O4_2 O 0.67048(6) 0.80535(8) 0.1708(2)
C11 C 0.76218(7) 0.71853(9) 0.0130(3)
O5_2 O 0.73086(8) 0.86534(12) 0.5472(3)
N3 N 0.74699(14) 0.70491(18) 0.1269(4)
O10 O 0.76063(15) 0.69322(19) 0.1916(4)
N4 N 0.79335(14) 0.79223(18) 0.1829(5)
O11 O 0.72342(12) 0.70826(16) 0.1649(4)
O12 O 0.81183(13) 0.78424(18) 0.1264(6)
O13_2 O 0.8023(3) 0.80575(36) 0.2810(8)
Cu4_2 Cu 0.642599(8) 0.821311(11) 0.24762(3)
O14_2 O 0.66285(6) 0.86132(8) 0.4959(2)
O15_2 O 0.71097(8) 0.88581(10) 0.3166(2)
O16_2 O 0.66294(8) 0.80149(10) 0.4957(2)
H5_2 H 0.752288 0.8813 0.5051
H6_2 H 0.726114 0.877494 0.6127
Cu1_3 Cu 0.154644(11) 0.845378(7) 0.41905(3)
O1_3 O 0.17475(7) 0.88577(5) 0.3160(2)
C1_3 C 0.19070(11) 0.88804(7) 0.2190(3)
C2_3 C 0.20623(11) 0.92140(7) 0.1531(3)
C5_3 C 0.23514(9) 0.98332(6) 0.0315(3)
C6_3 C 0.22343(10) 0.92542(7) 0.0455(3)
H1_3 H 0.2253 0.9076 0.0127
C7_3 C 0.20215(13) 0.94729(9) 0.1994(4)
H2_3 H 0.1893 0.9441 0.2695
C8_3 C 0.21767(11) 0.97822(8) 0.1389(3)
O4_3 O 0.19465(8) 0.86513(5) 0.1708(2)
O5_3 O 0.13466(12) 0.86552(9) 0.5472(3)
O13_3 O 0.19425(36) 0.99655(19) 0.2810(8)
Cu4_3 Cu 0.178689(11) 0.821289(7) 0.24762(3)
O14_3 O 0.13868(8) 0.80154(5) 0.4959(2)
O15_3 O 0.11419(10) 0.82516(6) 0.3166(2)
O16_3 O 0.19851(10) 0.86146(6) 0.4957(2)
H5_3 H 0.1187 0.870988 0.5051
H6_3 H 0.122506 0.84862 0.6127
Cu3 Cu 0.512023(11) 0.487955(7) 0.91428(3)
O1_4 O 0.44756(5) 0.95565(5) 0.9827(2)
C1_4 C 0.44529(7) 0.96933(8) 0.8857(3)
C2_4 C 0.41193(7) 0.95150(8) 0.8198(3)
C3 C 0.31672(6) 0.90216(7) 0.6351(3)
C4 C 0.37697(6) 0.94827(7) 0.6534(3)
C5_4 C 0.35001(6) 0.91849(7) 0.6982(3)
C6_4 C 0.40791(7) 0.96468(7) 0.7122(3)
H1_4 H 0.4257 0.9844 0.6794
C7_4 C 0.38604(9) 0.92153(10) 0.8661(4)
H2_4 H 0.3892 0.9119 0.9362
C8_4 C 0.35511(8) 0.90612(8) 0.8056(3)
O2 O 0.40058(12) 0.97353(14) 0.4760(4)
O3 O 0.34852(11) 0.95838(12) 0.5019(4)
N1 N 0.37554(12) 0.96178(14) 0.5397(5)
O4_4 O 0.46820(5) 0.99619(6) 0.8375(2)
C9 C 0.25874(7) 0.89011(7) 0.6218(3)
H3 H 0.2409 0.8918 0.6551
C10 C 0.25490(7) 0.87305(8) 0.5124(3)
C11_2 C 0.28968(6) 0.90449(7) 0.6797(3)
C12 C 0.28072(9) 0.86909(12) 0.4676(4)
H4 H 0.2775 0.8562 0.3977
C13 C 0.31155(8) 0.88447(11) 0.5272(3)
C14 C 0.22142(7) 0.85742(7) 0.4475(3)
O6 O 0.21914(5) 0.84151(6) 0.3501(2)
N2 N 0.33451(12) 0.87439(16) 0.4854(5)
O8 O 0.36103(12) 0.88262(17) 0.5394(7)
O9 O 0.3298(2) 0.8614(4) 0.3842(9)
N3_2 N 0.29125(12) 0.91968(14) 0.7936(4)
O10_2 O 0.26592(12) 0.90604(15) 0.8583(4)
N4_2 N 0.33221(12) 0.87332(14) 0.8496(5)
O11_2 O 0.31817(10) 0.94325(12) 0.8316(4)
O12_2 O 0.30574(12) 0.85484(13) 0.7931(6)
O13_4 O 0.33678(19) 0.8644(3) 0.9477(8)
O15_4 O 0.50817(6) 0.95570(8) 0.9833(2)
O1_5 O 0.04435(5) 0.49192(7) 0.9827(2)
C1_5 C 0.03067(8) 0.47597(11) 0.8857(3)
C2_5 C 0.04850(8) 0.46044(11) 0.8198(3)
C3_2 C 0.09784(7) 0.41457(9) 0.6351(3)
C4_2 C 0.05173(7) 0.42871(9) 0.6534(3)
C5_5 C 0.08151(7) 0.43153(9) 0.6982(3)
C6_5 C 0.03532(7) 0.44324(10) 0.7122(3)
H1_5 H 0.0156 0.4414 0.6794
C7_5 C 0.07847(10) 0.46452(13) 0.8661(4)
H2_5 H 0.0881 0.4774 0.9362
C8_5 C 0.09388(8) 0.44900(11) 0.8056(3)
O2_2 O 0.02647(14) 0.42706(18) 0.4760(4)
O3_2 O 0.04162(12) 0.39015(16) 0.5019(4)
N1_2 N 0.03822(14) 0.41377(18) 0.5397(5)
O4_5 O 0.00381(6) 0.47202(8) 0.8375(2)
C9_2 C 0.10989(7) 0.36864(10) 0.6218(3)
H3_2 H 0.1082 0.3492 0.6551
C10_2 C 0.12695(8) 0.38186(11) 0.5124(3)
C11_3 C 0.09551(7) 0.38520(9) 0.6797(3)
C12_2 C 0.13091(12) 0.41164(15) 0.4676(4)
H4_2 H 0.1438 0.4214 0.3977
C13_2 C 0.11553(11) 0.42709(14) 0.5272(3)
C14_2 C 0.14258(7) 0.36401(10) 0.4475(3)
O6_2 O 0.15849(6) 0.37764(8) 0.3501(2)
N2_2 N 0.12561(16) 0.46013(20) 0.4854(5)
O8_2 O 0.11738(17) 0.47842(21) 0.5394(7)
O9_2 O 0.1386(4) 0.4685(4) 0.3842(9)
N3_3 N 0.08032(14) 0.37158(18) 0.7936(4)
O10_3 O 0.09396(15) 0.35989(19) 0.8583(4)
N4_3 N 0.12668(14) 0.45890(18) 0.8496(5)
O11_3 O 0.05675(12) 0.37493(16) 0.8316(4)
O12_3 O 0.14516(13) 0.45091(18) 0.7931(6)
O13_5 O 0.1356(3) 0.47242(36) 0.9477(8)
O15_5 O 0.04430(8) 0.55248(10) 0.9833(2)
O1_6 O 0.50808(7) 0.55244(5) 0.9827(2)
C1_6 C 0.52403(11) 0.55471(7) 0.8857(3)
C2_6 C 0.53956(11) 0.58807(7) 0.8198(3)
C3_3 C 0.58543(9) 0.68328(6) 0.6351(3)
C4_3 C 0.57129(9) 0.62303(6) 0.6534(3)
C5_6 C 0.56847(9) 0.64999(6) 0.6982(3)
C6_6 C 0.55676(10) 0.59209(7) 0.7122(3)
H1_6 H 0.5586 0.5743 0.6794
C7_6 C 0.53548(13) 0.61396(9) 0.8661(4)
H2_6 H 0.5226 0.6108 0.9362
C8_6 C 0.55100(11) 0.64489(8) 0.8056(3)
O2_3 O 0.57294(18) 0.59942(12) 0.4760(4)
O3_3 O 0.60985(16) 0.65148(11) 0.5019(4)
N1_3 N 0.58623(18) 0.62446(12) 0.5397(5)
O4_6 O 0.52798(8) 0.53180(5) 0.8375(2)
C9_3 C 0.63136(10) 0.74126(7) 0.6218(3)
H3_3 H 0.6508 0.7591 0.6551
C10_3 C 0.61814(11) 0.74510(7) 0.5124(3)
C11_4 C 0.61480(9) 0.71032(6) 0.6797(3)
C12_3 C 0.58836(15) 0.71928(9) 0.4676(4)
H4_3 H 0.5786 0.7225 0.3977
C13_3 C 0.57291(14) 0.68845(8) 0.5272(3)
C14_3 C 0.63599(10) 0.77858(7) 0.4475(3)
O6_3 O 0.62236(8) 0.78086(5) 0.3501(2)
N2_3 N 0.53987(20) 0.66549(12) 0.4854(5)
O8_3 O 0.52158(21) 0.63897(12) 0.5394(7)
O9_3 O 0.5315(4) 0.6702(2) 0.3842(9)
N3_4 N 0.62842(18) 0.70875(12) 0.7936(4)
O10_4 O 0.64011(19) 0.73408(12) 0.8583(4)
N4_4 N 0.54110(18) 0.66779(12) 0.8496(5)
O11_4 O 0.62507(16) 0.68183(10) 0.8316(4)
O12_4 O 0.54909(18) 0.69426(12) 0.7931(6)
O13_6 O 0.52758(36) 0.66322(19) 0.9477(8)
O15_6 O 0.44752(10) 0.49183(6) 0.9833(2)
C3_4 C 0.01661(6) 0.76451(7) 0.0316(3)
C9_4 C 0.07459(7) 0.77656(7) 0.0449(3)
H3_4 H 0.0924 0.7749 0.0116
C10_4 C 0.07843(7) 0.79362(8) 0.1543(3)
C12_4 C 0.05261(9) 0.79758(12) 0.1991(4)
H4_4 H 0.0558 0.8105 0.2690
C13_4 C 0.02178(8) 0.78220(11) 0.1395(3)
C14_4 C 0.11191(7) 0.80925(7) 0.2192(3)
O7 O 0.13482(5) 0.80521(6) 0.1710(2)
O9_4 O 0.0035(2) 0.8053(4) 0.2825(9)
C3_5 C 0.23549(7) 0.25210(9) 0.0316(3)
C4_4 C 0.28160(7) 0.23796(9) 0.0133(3)
O2_4 O 0.30686(14) 0.23961(18) 0.1907(4)
O3_4 O 0.29171(12) 0.27652(16) 0.1648(4)
N1_4 N 0.29511(14) 0.25290(18) 0.1270(5)
C9_5 C 0.22344(7) 0.29803(10) 0.0449(3)
H3_5 H 0.2251 0.3175 0.0116
C10_5 C 0.20638(8) 0.28481(11) 0.1543(3)
C12_5 C 0.20242(12) 0.25503(15) 0.1991(4)
H4_5 H 0.1895 0.2453 0.2690
C13_5 C 0.21780(11) 0.23958(14) 0.1395(3)
C14_5 C 0.19075(7) 0.30266(10) 0.2192(3)
O7_2 O 0.19479(6) 0.32961(8) 0.1710(2)
N2_4 N 0.20772(16) 0.20654(20) 0.1813(5)
O8_4 O 0.21595(17) 0.18825(21) 0.1273(7)
O9_5 O 0.1947(4) 0.1982(4) 0.2825(9)
C3_6 C 0.74790(9) 0.98339(6) 0.0316(3)
C9_6 C 0.70197(10) 0.92541(7) 0.0449(3)
H3_6 H 0.6825 0.9076 0.0116
C10_6 C 0.71519(11) 0.92157(7) 0.1543(3)
C12_6 C 0.74497(15) 0.94739(9) 0.1991(4)
H4_6 H 0.7547 0.9442 0.2690
C13_6 C 0.76042(14) 0.97822(8) 0.1395(3)
C14_6 C 0.69734(10) 0.88809(7) 0.2192(3)
O7_3 O 0.67039(8) 0.86518(5) 0.1710(2)
O9_6 O 0.8018(4) 0.9965(2) 0.2825(9)
O1_7 O 0.21910(5) 0.37769(5) 0.3507(2)
C1_7 C 0.22137(7) 0.36401(8) 0.4477(3)
C2_7 C 0.25473(7) 0.38184(8) 0.5136(3)
C3_7 C 0.34994(6) 0.43118(7) 0.6983(3)
C4_5 C 0.28969(6) 0.38507(7) 0.6800(3)
C5_7 C 0.31665(6) 0.41485(7) 0.6352(3)
C6_7 C 0.25875(7) 0.36866(7) 0.6212(3)
H1_7 H 0.2409 0.3490 0.6540
C7_7 C 0.28062(9) 0.41181(10) 0.4673(4)
H2_7 H 0.2774 0.4215 0.3972
C8_7 C 0.31155(8) 0.42722(8) 0.5278(3)
O2_5 O 0.26608(12) 0.35981(14) 0.8574(4)
O3_5 O 0.31814(11) 0.37496(12) 0.8315(4)
N1_5 N 0.29112(12) 0.37156(14) 0.7937(5)
C9_7 C 0.40792(7) 0.44323(7) 0.7116(3)
H3_7 H 0.4257 0.4416 0.6783
C10_7 C 0.41176(7) 0.46029(8) 0.8210(3)
C11_5 C 0.37698(6) 0.42885(7) 0.6537(3)
C12_7 C 0.38594(9) 0.46425(12) 0.8658(4)
H4_7 H 0.3891 0.4772 0.9357
C13_7 C 0.35511(8) 0.44887(11) 0.8062(3)
O5_4 O 0.19885(9) 0.39753(8) 0.1195(3)
C14_7 C 0.44524(7) 0.47592(7) 0.8859(3)
O7_4 O 0.46815(5) 0.47188(6) 0.8377(2)
N2_5 N 0.33215(12) 0.45895(16) 0.8480(5)
O8_5 O 0.30563(12) 0.45072(17) 0.7940(7)
O9_7 O 0.3368(2) 0.4720(4) 0.9492(9)
N3_5 N 0.37541(12) 0.41366(14) 0.5398(4)
O10_5 O 0.40074(12) 0.42730(15) 0.4751(4)
N4_5 N 0.33445(12) 0.46002(14) 0.4838(5)
O11_5 O 0.34849(10) 0.39009(12) 0.5018(4)
O12_5 O 0.36092(12) 0.47850(13) 0.5403(6)
O13_7 O 0.32988(19) 0.4690(3) 0.3857(8)
H5_4 H 0.204322 0.418955 0.161567
H6_4 H 0.181953 0.39278 0.0539663
O1_8 O 0.62231(5) 0.84142(7) 0.3507(2)
C1_8 C 0.63599(8) 0.85737(11) 0.4477(3)
C2_8 C 0.61816(8) 0.87290(11) 0.5136(3)
C3_8 C 0.56882(7) 0.91877(9) 0.6983(3)
C4_6 C 0.61493(7) 0.90463(9) 0.6800(3)
C5_8 C 0.58515(7) 0.90181(9) 0.6352(3)
C6_8 C 0.63134(7) 0.89010(10) 0.6212(3)
H1_8 H 0.6510 0.8920 0.6540
C7_8 C 0.58819(10) 0.86882(13) 0.4673(4)
H2_8 H 0.5785 0.8560 0.3972
C8_8 C 0.57278(8) 0.88434(11) 0.5278(3)
O2_6 O 0.64019(14) 0.90628(18) 0.8574(4)
O3_6 O 0.62504(12) 0.94319(16) 0.8315(4)
N1_6 N 0.62844(14) 0.91957(18) 0.7937(5)
C9_8 C 0.55677(7) 0.96470(10) 0.7116(3)
H3_8 H 0.5584 0.9842 0.6783
C10_8 C 0.53971(8) 0.95148(11) 0.8210(3)
C11_6 C 0.57115(7) 0.94814(9) 0.6537(3)
C12_8 C 0.53575(12) 0.92170(15) 0.8658(4)
H4_8 H 0.5228 0.9120 0.9357
C13_8 C 0.55113(11) 0.90625(14) 0.8062(3)
O5_5 O 0.60247(8) 0.80133(12) 0.1195(3)
C14_8 C 0.52408(7) 0.96933(10) 0.8859(3)
O7_5 O 0.52812(6) 0.99628(8) 0.8377(2)
N2_6 N 0.54105(16) 0.87321(20) 0.8480(5)
O8_6 O 0.54928(17) 0.85492(21) 0.7940(7)
O9_8 O 0.5280(4) 0.8649(4) 0.9492(9)
N3_6 N 0.58634(14) 0.96176(18) 0.5398(4)
O10_6 O 0.57270(15) 0.97345(19) 0.4751(4)
N4_6 N 0.53998(14) 0.87444(18) 0.4838(5)
O11_6 O 0.60991(12) 0.95841(16) 0.5018(4)
O12_6 O 0.52150(13) 0.88243(18) 0.5403(6)
O13_8 O 0.5310(3) 0.86092(36) 0.3857(8)
H5_5 H 0.581045 0.785366 0.161567
H6_5 H 0.60722 0.789173 0.0539663
O1_9 O 0.15858(7) 0.78090(5) 0.3507(2)
C1_9 C 0.14263(11) 0.77863(7) 0.4477(3)
C2_9 C 0.12710(11) 0.74527(7) 0.5136(3)
C3_9 C 0.08123(9) 0.65006(6) 0.6983(3)
C4_7 C 0.09537(9) 0.71031(6) 0.6800(3)
C5_9 C 0.09819(9) 0.68335(6) 0.6352(3)
C6_9 C 0.10990(10) 0.74125(7) 0.6212(3)
H1_9 H 0.1080 0.7591 0.6540
C7_9 C 0.13118(13) 0.71938(9) 0.4673(4)
H2_9 H 0.1440 0.7226 0.3972
C8_9 C 0.11566(11) 0.68845(8) 0.5278(3)
O2_7 O 0.09372(18) 0.73392(12) 0.8574(4)
O3_7 O 0.05681(16) 0.68186(11) 0.8315(4)
N1_7 N 0.08043(18) 0.70888(12) 0.7937(5)
C9_9 C 0.03530(10) 0.59208(7) 0.7116(3)
H3_9 H 0.0158 0.5743 0.6783
C10_9 C 0.04852(11) 0.58824(7) 0.8210(3)
C11_7 C 0.05186(9) 0.62302(6) 0.6537(3)
C12_9 C 0.07830(15) 0.61406(9) 0.8658(4)
H4_9 H 0.0880 0.6109 0.9357
C13_9 C 0.09375(14) 0.64489(8) 0.8062(3)
O5_6 O 0.19867(12) 0.80115(9) 0.1195(3)
C14_9 C 0.03067(10) 0.55476(7) 0.8859(3)
O7_6 O 0.00372(8) 0.53185(5) 0.8377(2)
N2_7 N 0.12679(20) 0.66785(12) 0.8480(5)
O8_7 O 0.14508(21) 0.69437(12) 0.7940(7)
O9_9 O 0.1351(4) 0.6632(2) 0.9492(9)
N3_7 N 0.03824(18) 0.62459(12) 0.5398(4)
O10_7 O 0.02655(19) 0.59926(12) 0.4751(4)
N4_7 N 0.12556(18) 0.66555(12) 0.4838(5)
O11_7 O 0.04159(16) 0.65151(10) 0.5018(4)
O12_7 O 0.11757(18) 0.63908(12) 0.5403(6)
O13_9 O 0.13908(36) 0.67012(19) 0.3857(8)
H5_6 H 0.214634 0.795678 0.161567
H6_6 H 0.210827 0.818047 0.0539663
O5_7 O 0.53201(12) 0.46781(9) 0.7861(3)
H5_7 H 0.547967 0.462345 0.828234
H6_7 H 0.544161 0.484714 0.720633
C4_8 C 0.04364(6) 0.28160(7) 0.9867(3)
O2_8 O 0.06725(12) 0.30686(14) 0.8093(4)
O3_8 O 0.01519(11) 0.29171(12) 0.8352(4)
N1_8 N 0.04221(12) 0.29511(14) 0.8730(5)
N2_8 N 0.00118(12) 0.20772(16) 0.8187(5)
O8_8 O 0.02770(12) 0.21595(17) 0.8727(7)
C11_8 C 0.95635(6) 0.23782(7) 0.0130(3)
N3_8 N 0.95792(12) 0.25301(14) 0.1269(4)
O10_8 O 0.93259(12) 0.23937(15) 0.1916(4)
N4_8 N 0.99888(12) 0.20665(14) 0.1829(5)
O11_8 O 0.98484(10) 0.27658(12) 0.1649(4)
O12_8 O 0.97241(12) 0.18817(13) 0.1264(6)
C3_10 C 0.98339(6) 0.23549(7) 0.9684(3)
C9_10 C 0.92541(7) 0.22344(7) 0.9551(3)
H3_10 H 0.9076 0.2251 0.9884
C10_10 C 0.92157(7) 0.20638(8) 0.8457(3)
C12_10 C 0.94739(9) 0.20242(12) 0.8009(4)
H4_10 H 0.9442 0.1895 0.7310
C13_10 C 0.97822(8) 0.21780(11) 0.8605(3)
C14_10 C 0.88809(7) 0.19075(7) 0.7808(3)
O6_4 O 0.88581(5) 0.17484(6) 0.6834(2)
O7_7 O 0.86518(5) 0.19479(6) 0.8290(2)
O9_10 O 0.9965(2) 0.1947(4) 0.7175(9)
Cu2 Cu 0.821311(11) 0.178711(7) 0.75238(3)
Cu3_2 Cu 0.845356(11) 0.154622(7) 0.58095(3)
C3_11 C 0.76451(7) 0.74790(9) 0.9684(3)
C4_9 C 0.71840(7) 0.76204(9) 0.9867(3)
O2_9 O 0.69314(14) 0.76039(18) 0.8093(4)
O3_9 O 0.70829(12) 0.72348(16) 0.8352(4)
N1_9 N 0.70489(14) 0.74710(18) 0.8730(5)
C9_11 C 0.77656(7) 0.70197(10) 0.9551(3)
H3_11 H 0.7749 0.6825 0.9884
C10_11 C 0.79362(8) 0.71519(11) 0.8457(3)
C12_11 C 0.79758(12) 0.74497(15) 0.8009(4)
H4_11 H 0.8105 0.7547 0.7310
C13_11 C 0.78220(11) 0.76042(14) 0.8605(3)
C14_11 C 0.80925(7) 0.69734(10) 0.7808(3)
O6_5 O 0.82516(6) 0.71097(8) 0.6834(2)
O7_8 O 0.80521(6) 0.67039(8) 0.8290(2)
N2_9 N 0.79228(16) 0.79346(20) 0.8187(5)
O8_9 O 0.78405(17) 0.81175(21) 0.8727(7)
O9_11 O 0.8053(4) 0.8018(4) 0.7175(9)
Cu2_2 Cu 0.821289(7) 0.642599(13) 0.75238(3)
Cu3_3 Cu 0.845378(7) 0.690734(13) 0.58095(3)
C3_12 C 0.25210(9) 0.01661(6) 0.9684(3)
C9_12 C 0.29803(10) 0.07459(7) 0.9551(3)
H3_12 H 0.3175 0.0924 0.9884
C10_12 C 0.28481(11) 0.07843(7) 0.8457(3)
C12_12 C 0.25503(15) 0.05261(9) 0.8009(4)
H4_12 H 0.2453 0.0558 0.7310
C13_12 C 0.23958(14) 0.02178(8) 0.8605(3)
C14_12 C 0.30266(10) 0.11191(7) 0.7808(3)
O6_6 O 0.28903(8) 0.11419(5) 0.6834(2)
O7_9 O 0.32961(8) 0.13482(5) 0.8290(2)
O9_12 O 0.1982(4) 0.0035(2) 0.7175(9)
Cu2_3 Cu 0.357401(13) 0.178689(11) 0.75238(3)
Cu3_4 Cu 0.309266(13) 0.154644(11) 0.58095(3)
O1_10 O 0.78090(5) 0.62231(5) 0.6493(2)
C1_10 C 0.77863(7) 0.63599(8) 0.5523(3)
C2_10 C 0.74527(7) 0.61816(8) 0.4864(3)
C3_13 C 0.65006(6) 0.56882(7) 0.3017(3)
C4_10 C 0.71031(6) 0.61493(7) 0.3200(3)
C5_10 C 0.68335(6) 0.58515(7) 0.3648(3)
C6_10 C 0.74125(7) 0.63134(7) 0.3788(3)
H1_10 H 0.7591 0.6510 0.3460
C7_10 C 0.71938(9) 0.58819(10) 0.5327(4)
H2_10 H 0.7226 0.5785 0.6028
C8_10 C 0.68845(8) 0.57278(8) 0.4722(3)
O2_10 O 0.73392(12) 0.64019(14) 0.1426(4)
O3_10 O 0.68186(11) 0.62504(12) 0.1685(4)
N1_10 N 0.70888(12) 0.62844(14) 0.2063(5)
O4_7 O 0.80154(5) 0.66285(6) 0.5041(2)
C9_13 C 0.59208(7) 0.55677(7) 0.2884(3)
H3_13 H 0.5743 0.5584 0.3217
C10_13 C 0.58824(7) 0.53971(8) 0.1790(3)
C11_9 C 0.62302(6) 0.57115(7) 0.3463(3)
C12_13 C 0.61406(9) 0.53575(12) 0.1342(4)
H4_13 H 0.6109 0.5228 0.0643
C13_13 C 0.64489(8) 0.55113(11) 0.1938(3)
O5_8 O 0.80115(9) 0.60247(8) 0.8805(3)
C14_13 C 0.55476(7) 0.52408(7) 0.1141(3)
O6_7 O 0.55248(5) 0.50817(6) 0.0167(2)
O7_10 O 0.53185(5) 0.52812(6) 0.1623(2)
N2_10 N 0.66785(12) 0.54105(16) 0.1520(5)
O8_10 O 0.69437(12) 0.54928(17) 0.2060(7)
O9_13 O 0.6632(2) 0.5280(4) 0.0508(9)
N3_9 N 0.62459(12) 0.58634(14) 0.4602(4)
O10_9 O 0.59926(12) 0.57270(15) 0.5249(4)
N4_9 N 0.66555(12) 0.53998(14) 0.5162(5)
O11_9 O 0.65151(10) 0.60991(12) 0.4982(4)
O12_9 O 0.63908(12) 0.52150(13) 0.4597(6)
O13_10 O 0.67012(19) 0.5310(3) 0.6143(8)
Cu2_4 Cu 0.487977(11) 0.512045(7) 0.08572(3)
O14_4 O 0.86513(5) 0.67048(6) 0.8292(2)
O15_7 O 0.84151(6) 0.62236(8) 0.6499(2)
H5_8 H 0.795678 0.581045 0.838433
H6_8 H 0.818047 0.60722 0.946034
O1_11 O 0.37769(5) 0.15858(7) 0.6493(2)
C1_11 C 0.36401(8) 0.14263(11) 0.5523(3)
C2_11 C 0.38184(8) 0.12710(11) 0.4864(3)
C3_14 C 0.43118(7) 0.08123(9) 0.3017(3)
C4_11 C 0.38507(7) 0.09537(9) 0.3200(3)
C5_11 C 0.41485(7) 0.09819(9) 0.3648(3)
C6_11 C 0.36866(7) 0.10990(10) 0.3788(3)
H1_11 H 0.3490 0.1080 0.3460
C7_11 C 0.41181(10) 0.13118(13) 0.5327(4)
H2_11 H 0.4215 0.1440 0.6028
C8_11 C 0.42722(8) 0.11566(11) 0.4722(3)
O2_11 O 0.35981(14) 0.09372(18) 0.1426(4)
O3_11 O 0.37496(12) 0.05681(16) 0.1685(4)
N1_11 N 0.37156(14) 0.08043(18) 0.2063(5)
O4_8 O 0.33715(6) 0.13868(8) 0.5041(2)
C9_14 C 0.44323(7) 0.03530(10) 0.2884(3)
H3_14 H 0.4416 0.0158 0.3217
C10_14 C 0.46029(8) 0.04852(11) 0.1790(3)
C11_10 C 0.42885(7) 0.05186(9) 0.3463(3)
C12_14 C 0.46425(12) 0.07830(15) 0.1342(4)
H4_14 H 0.4772 0.0880 0.0643
C13_14 C 0.44887(11) 0.09375(14) 0.1938(3)
O5_9 O 0.39753(8) 0.19867(12) 0.8805(3)
C14_14 C 0.47592(7) 0.03067(10) 0.1141(3)
O6_8 O 0.49183(6) 0.04430(8) 0.0167(2)
O7_11 O 0.47188(6) 0.00372(8) 0.1623(2)
N2_11 N 0.45895(16) 0.12679(20) 0.1520(5)
O8_11 O 0.45072(17) 0.14508(21) 0.2060(7)
O9_14 O 0.4720(4) 0.1351(4) 0.0508(9)
N3_10 N 0.41366(14) 0.03824(18) 0.4602(4)
O10_10 O 0.42730(15) 0.02655(19) 0.5249(4)
N4_10 N 0.46002(14) 0.12556(18) 0.5162(5)
O11_10 O 0.39009(12) 0.04159(16) 0.4982(4)
O12_10 O 0.47850(13) 0.11757(18) 0.4597(6)
O13_11 O 0.4690(3) 0.13908(36) 0.6143(8)
O14_5 O 0.32952(6) 0.19465(8) 0.8292(2)
O15_8 O 0.37764(8) 0.21914(10) 0.6499(2)
H5_9 H 0.418955 0.214634 0.838433
H6_9 H 0.39278 0.210827 0.946034
O1_12 O 0.84142(7) 0.21910(5) 0.6493(2)
C1_12 C 0.85737(11) 0.22137(7) 0.5523(3)
C2_12 C 0.87290(11) 0.25473(7) 0.4864(3)
C3_15 C 0.91877(9) 0.34994(6) 0.3017(3)
C4_12 C 0.90463(9) 0.28969(6) 0.3200(3)
C5_12 C 0.90181(9) 0.31665(6) 0.3648(3)
C6_12 C 0.89010(10) 0.25875(7) 0.3788(3)
H1_12 H 0.8920 0.2409 0.3460
C7_12 C 0.86882(13) 0.28062(9) 0.5327(4)
H2_12 H 0.8560 0.2774 0.6028
C8_12 C 0.88434(11) 0.31155(8) 0.4722(3)
O2_12 O 0.90628(18) 0.26608(12) 0.1426(4)
O3_12 O 0.94319(16) 0.31814(11) 0.1685(4)
N1_12 N 0.91957(18) 0.29112(12) 0.2063(5)
O4_9 O 0.86132(8) 0.19846(5) 0.5041(2)
C9_15 C 0.96470(10) 0.40792(7) 0.2884(3)
H3_15 H 0.9842 0.4257 0.3217
C10_15 C 0.95148(11) 0.41176(7) 0.1790(3)
C11_11 C 0.94814(9) 0.37698(6) 0.3463(3)
C12_15 C 0.92170(15) 0.38594(9) 0.1342(4)
H4_15 H 0.9120 0.3891 0.0643
C13_15 C 0.90625(14) 0.35511(8) 0.1938(3)
O5_10 O 0.80133(12) 0.19885(9) 0.8805(3)
C14_15 C 0.96933(10) 0.44524(7) 0.1141(3)
O6_9 O 0.95570(8) 0.44752(5) 0.0167(2)
O7_12 O 0.99628(8) 0.46815(5) 0.1623(2)
N2_12 N 0.87321(20) 0.33215(12) 0.1520(5)
O8_12 O 0.85492(21) 0.30563(12) 0.2060(7)
O9_15 O 0.8649(4) 0.3368(2) 0.0508(9)
N3_11 N 0.96176(18) 0.37541(12) 0.4602(4)
O10_11 O 0.97345(19) 0.40074(12) 0.5249(4)
N4_11 N 0.87444(18) 0.33445(12) 0.5162(5)
O11_11 O 0.95841(16) 0.34849(10) 0.4982(4)
O12_11 O 0.88243(18) 0.36092(12) 0.4597(6)
O13_12 O 0.86092(36) 0.32988(19) 0.6143(8)
O14_6 O 0.80535(8) 0.13487(5) 0.8292(2)
O15_9 O 0.78086(10) 0.15849(6) 0.6499(2)
H5_10 H 0.785366 0.204322 0.838433
H6_10 H 0.789173 0.181953 0.946034
O14_7 O 0.53180(5) 0.00381(6) 0.1625(2)
O14_8 O 0.99619(6) 0.52798(8) 0.1625(2)
O5_11 O 0.46799(12) 0.53219(9) 0.2139(3)
O14_9 O 0.47202(8) 0.46820(5) 0.1625(2)
H5_11 H 0.452033 0.537655 0.171766
H6_11 H 0.455839 0.515286 0.279367
O1_13 O 0.88577(5) 0.71102(5) 0.6840(2)
C1_13 C 0.88804(7) 0.69734(8) 0.7810(3)
C2_13 C 0.92140(7) 0.71517(8) 0.8469(3)
C5_13 C 0.98332(6) 0.74818(7) 0.9685(3)
C6_13 C 0.92542(7) 0.70199(7) 0.9545(3)
H1_13 H 0.9076 0.6823 0.9873
C7_13 C 0.94729(9) 0.74514(10) 0.8006(4)
H2_13 H 0.9441 0.7548 0.7305
C8_13 C 0.97822(8) 0.76055(8) 0.8611(3)
O5_12 O 0.86552(9) 0.73086(8) 0.4528(3)
O13_13 O 0.99655(19) 0.8023(3) 0.7190(8)
O16_4 O 0.86146(6) 0.66294(8) 0.5043(2)
H5_12 H 0.870988 0.752288 0.4949
H6_12 H 0.84862 0.726114 0.3873
O1_14 O 0.28898(5) 0.17475(7) 0.6840(2)
C1_14 C 0.30266(8) 0.19070(11) 0.7810(3)
C2_14 C 0.28483(8) 0.20623(11) 0.8469(3)
C5_14 C 0.25182(7) 0.23514(9) 0.9685(3)
C6_14 C 0.29801(7) 0.22343(10) 0.9545(3)
H1_14 H 0.3177 0.2253 0.9873
C7_14 C 0.25486(10) 0.20215(13) 0.8006(4)
H2_14 H 0.2452 0.1893 0.7305
C8_14 C 0.23945(8) 0.21767(11) 0.8611(3)
C11_12 C 0.23782(7) 0.28147(9) 0.9870(3)
O5_13 O 0.26914(8) 0.13466(12) 0.4528(3)
N3_12 N 0.25301(14) 0.29509(18) 0.8731(4)
O10_12 O 0.23937(15) 0.30678(19) 0.8084(4)
N4_12 N 0.20665(14) 0.20777(18) 0.8171(5)
O11_12 O 0.27658(12) 0.29174(16) 0.8351(4)
O12_12 O 0.18817(13) 0.21576(18) 0.8736(6)
O13_14 O 0.1977(3) 0.19425(36) 0.7190(8)
O16_5 O 0.33706(8) 0.19851(10) 0.5043(2)
H5_13 H 0.247712 0.1187 0.4949
H6_13 H 0.273886 0.122506 0.3873
O1_15 O 0.82525(7) 0.11423(5) 0.6840(2)
C1_15 C 0.80930(11) 0.11196(7) 0.7810(3)
C2_15 C 0.79377(11) 0.07860(7) 0.8469(3)
C5_15 C 0.76486(9) 0.01668(6) 0.9685(3)
C6_15 C 0.77657(10) 0.07458(7) 0.9545(3)
H1_15 H 0.7747 0.0924 0.9873
C7_15 C 0.79785(13) 0.05271(9) 0.8006(4)
H2_15 H 0.8107 0.0559 0.7305
C8_15 C 0.78233(11) 0.02178(8) 0.8611(3)
O5_14 O 0.86534(12) 0.13448(9) 0.4528(3)
O13_15 O 0.80575(36) 0.00345(19) 0.7190(8)
O16_6 O 0.80149(10) 0.13854(6) 0.5043(2)
H5_14 H 0.8813 0.129012 0.4949
H6_14 H 0.877494 0.15138 0.3873
O1_16 O 0.55244(5) 0.04435(5) 0.0173(2)
C1_16 C 0.55471(7) 0.03067(8) 0.1143(3)
C2_16 C 0.58807(7) 0.04850(8) 0.1802(3)
C3_16 C 0.68328(6) 0.09784(7) 0.3649(3)
C4_13 C 0.62303(6) 0.05173(7) 0.3466(3)
C5_16 C 0.64999(6) 0.08151(7) 0.3018(3)
C6_16 C 0.59209(7) 0.03532(7) 0.2878(3)
H1_16 H 0.5743 0.0156 0.3206
C7_16 C 0.61396(9) 0.07847(10) 0.1339(4)
H2_16 H 0.6108 0.0881 0.0638
C8_16 C 0.64489(8) 0.09388(8) 0.1944(3)
O2_13 O 0.59942(12) 0.02647(14) 0.5240(4)
O3_13 O 0.65148(11) 0.04162(12) 0.4981(4)
N1_13 N 0.62446(12) 0.03822(14) 0.4603(5)
C9_16 C 0.74126(7) 0.10989(7) 0.3782(3)
H3_16 H 0.7591 0.1082 0.3449
C10_16 C 0.74510(7) 0.12695(8) 0.4876(3)
C11_13 C 0.71032(6) 0.09551(7) 0.3203(3)
C12_16 C 0.71928(9) 0.13091(12) 0.5324(4)
H4_16 H 0.7225 0.1438 0.6023
C13_16 C 0.68845(8) 0.11553(11) 0.4728(3)
C14_16 C 0.77858(7) 0.14258(7) 0.5525(3)
N2_13 N 0.66549(12) 0.12561(16) 0.5146(5)
O8_13 O 0.63897(12) 0.11738(17) 0.4606(7)
O9_16 O 0.6702(2) 0.1386(4) 0.6158(9)
N3_13 N 0.70875(12) 0.08032(14) 0.2064(4)
O10_13 O 0.73408(12) 0.09396(15) 0.1417(4)
N4_13 N 0.66779(12) 0.12668(14) 0.1504(5)
O11_13 O 0.68183(10) 0.05675(12) 0.1684(4)
O12_13 O 0.69426(12) 0.14516(13) 0.2069(6)
O13_16 O 0.66322(19) 0.1356(3) 0.0523(8)
O1_17 O 0.95565(5) 0.50808(7) 0.0173(2)
C1_17 C 0.96933(8) 0.52403(11) 0.1143(3)
C2_17 C 0.95150(8) 0.53956(11) 0.1802(3)
C3_17 C 0.90216(7) 0.58543(9) 0.3649(3)
C4_14 C 0.94827(7) 0.57129(9) 0.3466(3)
C5_17 C 0.91849(7) 0.56847(9) 0.3018(3)
C6_17 C 0.96468(7) 0.55676(10) 0.2878(3)
H1_17 H 0.9844 0.5586 0.3206
C7_17 C 0.92153(10) 0.53548(13) 0.1339(4)
H2_17 H 0.9119 0.5226 0.0638
C8_17 C 0.90612(8) 0.55100(11) 0.1944(3)
O2_14 O 0.97353(14) 0.57294(18) 0.5240(4)
O3_14 O 0.95838(12) 0.60985(16) 0.4981(4)
N1_14 N 0.96178(14) 0.58623(18) 0.4603(5)
C9_17 C 0.89011(7) 0.63136(10) 0.3782(3)
H3_17 H 0.8918 0.6508 0.3449
C10_17 C 0.87305(8) 0.61814(11) 0.4876(3)
C11_14 C 0.90449(7) 0.61480(9) 0.3203(3)
C12_17 C 0.86909(12) 0.58836(15) 0.5324(4)
H4_17 H 0.8562 0.5786 0.6023
C13_17 C 0.88447(11) 0.57291(14) 0.4728(3)
C14_17 C 0.85742(7) 0.63599(10) 0.5525(3)
N2_14 N 0.87439(16) 0.53987(20) 0.5146(5)
O8_14 O 0.88262(17) 0.52158(21) 0.4606(7)
O9_17 O 0.8614(4) 0.5315(4) 0.6158(9)
N3_14 N 0.91968(14) 0.62842(18) 0.2064(4)
O10_14 O 0.90604(15) 0.64011(19) 0.1417(4)
N4_14 N 0.87332(14) 0.54110(18) 0.1504(5)
O11_14 O 0.94325(12) 0.62507(16) 0.1684(4)
O12_14 O 0.85484(13) 0.54909(18) 0.2069(6)
O13_17 O 0.8644(3) 0.52758(36) 0.0523(8)
O1_18 O 0.49192(7) 0.44756(5) 0.0173(2)
C1_18 C 0.47597(11) 0.44529(7) 0.1143(3)
C2_18 C 0.46044(11) 0.41193(7) 0.1802(3)
C3_18 C 0.41457(9) 0.31672(6) 0.3649(3)
C4_15 C 0.42871(9) 0.37697(6) 0.3466(3)
C5_18 C 0.43153(9) 0.35001(6) 0.3018(3)
C6_18 C 0.44324(10) 0.40791(7) 0.2878(3)
H1_18 H 0.4414 0.4257 0.3206
C7_18 C 0.46452(13) 0.38604(9) 0.1339(4)
H2_18 H 0.4774 0.3892 0.0638
C8_18 C 0.44900(11) 0.35511(8) 0.1944(3)
O2_15 O 0.42706(18) 0.40058(12) 0.5240(4)
O3_15 O 0.39015(16) 0.34852(11) 0.4981(4)
N1_15 N 0.41377(18) 0.37554(12) 0.4603(5)
C9_18 C 0.36864(10) 0.25874(7) 0.3782(3)
H3_18 H 0.3492 0.2409 0.3449
C10_18 C 0.38186(11) 0.25490(7) 0.4876(3)
C11_15 C 0.38520(9) 0.28968(6) 0.3203(3)
C12_18 C 0.41164(15) 0.28072(9) 0.5324(4)
H4_18 H 0.4214 0.2775 0.6023
C13_18 C 0.42709(14) 0.31155(8) 0.4728(3)
C14_18 C 0.36401(10) 0.22142(7) 0.5525(3)
N2_15 N 0.46013(20) 0.33451(12) 0.5146(5)
O8_15 O 0.47842(21) 0.36103(12) 0.4606(7)
O9_18 O 0.4685(4) 0.3298(2) 0.6158(9)
N3_15 N 0.37158(18) 0.29125(12) 0.2064(4)
O10_15 O 0.35989(19) 0.26592(12) 0.1417(4)
N4_15 N 0.45890(18) 0.33221(12) 0.1504(5)
O11_15 O 0.37493(16) 0.31817(10) 0.1684(4)
O12_15 O 0.45091(18) 0.30574(12) 0.2069(6)
O13_18 O 0.47242(36) 0.33678(19) 0.0523(8)
C11_16 C 0.28147(9) 0.04365(6) 0.0130(3)
N3_16 N 0.29509(18) 0.04208(12) 0.1269(4)
O10_16 O 0.30678(19) 0.06741(12) 0.1916(4)
N4_16 N 0.20777(18) 0.00112(12) 0.1829(5)
O11_16 O 0.29174(16) 0.01516(10) 0.1649(4)
O12_16 O 0.21576(18) 0.02759(12) 0.1264(6)
C4_16 C 0.23796(9) 0.95636(6) 0.9867(3)
O2_16 O 0.23961(18) 0.93275(12) 0.8093(4)
O3_16 O 0.27652(16) 0.98481(11) 0.8352(4)
N1_16 N 0.25290(18) 0.95779(12) 0.8730(5)
N2_16 N 0.20654(20) 0.99882(12) 0.8187(5)
O8_16 O 0.18825(21) 0.97230(12) 0.8727(7)
Cu3_5 Cu 0.512045(7) 0.024067(13) 0.91428(3)
O5_15 O 0.53219(9) 0.06419(8) 0.7861(3)
H5_15 H 0.537655 0.0856218 0.828234
H6_15 H 0.515286 0.0594469 0.720633
Cu2_5 Cu 0.487955(7) 0.975933(13) 0.08572(3)
O5_16 O 0.46781(9) 0.93581(8) 0.2139(3)
H5_16 H 0.462345 0.914378 0.171766
H6_16 H 0.484714 0.940553 0.279367
Cu2_6 Cu 0.024067(13) 0.512023(11) 0.08572(3)
O5_17 O 0.06419(8) 0.53201(12) 0.2139(3)
H5_17 H 0.0856218 0.547967 0.171766
H6_17 H 0.0594469 0.544161 0.279367
Cu3_6 Cu 0.975933(13) 0.487977(11) 0.91428(3)
O5_18 O 0.93581(8) 0.46799(12) 0.7861(3)
H5_18 H 0.914378 0.452033 0.828234
H6_18 H 0.940553 0.455839 0.720633
C11_17 C 0.04365(6) 0.76218(7) 0.9870(3)
N3_17 N 0.04208(12) 0.74699(14) 0.8731(4)
O10_17 O 0.06741(12) 0.76063(15) 0.8084(4)
N4_17 N 0.00112(12) 0.79335(14) 0.8171(5)
O11_17 O 0.01516(10) 0.72342(12) 0.8351(4)
O12_17 O 0.02759(12) 0.81183(13) 0.8736(6)
C4_17 C 0.95636(6) 0.71840(7) 0.0133(3)
O2_17 O 0.93275(12) 0.69314(14) 0.1907(4)
O3_17 O 0.98481(11) 0.70829(12) 0.1648(4)
N1_17 N 0.95779(12) 0.70489(14) 0.1270(5)
N2_17 N 0.99882(12) 0.79228(16) 0.1813(5)
O8_17 O 0.97230(12) 0.78405(17) 0.1273(7)
C4_18 C 0.76204(9) 0.04364(6) 0.0133(3)
O2_18 O 0.76039(18) 0.06725(12) 0.1907(4)
O3_18 O 0.72348(16) 0.01519(11) 0.1648(4)
N1_18 N 0.74710(18) 0.04221(12) 0.1270(5)
N2_18 N 0.79346(20) 0.00118(12) 0.1813(5)
O8_18 O 0.81175(21) 0.02770(12) 0.1273(7)
C11_18 C 0.71853(9) 0.95635(6) 0.9870(3)
N3_18 N 0.70491(18) 0.95792(12) 0.8731(4)
O10_18 O 0.69322(19) 0.93259(12) 0.8084(4)
N4_18 N 0.79223(18) 0.99888(12) 0.8171(5)
O11_18 O 0.70826(16) 0.98484(10) 0.8351(4)
O12_18 O 0.78424(18) 0.97241(12) 0.8736(6)
loop_
_geom_bond_atom_site_label_1
_geom_bond_atom_site_label_2
_geom_bond_site_symmetry_1
_geom_bond_site_symmetry_2
Cu1 O1 1_555 1_555
O1 C1 1_555 1_555
C1 C2 1_555 1_555
C2 C6 1_555 1_555
C5 C8 1_555 1_555
H1 C6 1_555 1_555
C7 C2 1_555 1_555
H2 C7 1_555 1_555
C8 C7 1_555 1_555
O4 C1 1_555 1_555
O5 Cu1 1_555 1_555
Cu4 O4 1_555 1_555
O14 Cu1 1_555 1_555
O15 Cu1 1_555 1_555
O16 Cu1 1_555 1_555
O5 H5 1_555 1_555
O5 H6 1_555 1_555
Cu1_2 O1_2 1_555 1_555
O1_2 C1_2 1_555 1_555
C1_2 C2_2 1_555 1_555
C2_2 C6_2 1_555 1_555
C5_2 C8_2 1_555 1_555
H1_2 C6_2 1_555 1_555
C7_2 C2_2 1_555 1_555
H2_2 C7_2 1_555 1_555
C8_2 C7_2 1_555 1_555
O4_2 C1_2 1_555 1_555
O5_2 Cu1_2 1_555 1_555
N3 C11 1_555 1_555
O10 N3 1_555 1_555
N4 C8_2 1_555 1_555
O11 N3 1_555 1_555
O12 N4 1_555 1_555
O13_2 N4 1_555 1_555
Cu4_2 O4_2 1_555 1_555
O14_2 Cu1_2 1_555 1_555
O15_2 Cu1_2 1_555 1_555
O16_2 Cu1_2 1_555 1_555
O5_2 H5_2 1_555 1_555
O5_2 H6_2 1_555 1_555
Cu1_3 O1_3 1_555 1_555
O1_3 C1_3 1_555 1_555
C1_3 C2_3 1_555 1_555
C2_3 C6_3 1_555 1_555
C5_3 C8_3 1_555 1_555
H1_3 C6_3 1_555 1_555
C7_3 C2_3 1_555 1_555
H2_3 C7_3 1_555 1_555
C8_3 C7_3 1_555 1_555
O4_3 C1_3 1_555 1_555
O5_3 Cu1_3 1_555 1_555
Cu4_3 O4_3 1_555 1_555
O14_3 Cu1_3 1_555 1_555
O15_3 Cu1_3 1_555 1_555
O16_3 Cu1_3 1_555 1_555
O5_3 H5_3 1_555 1_555
O5_3 H6_3 1_555 1_555
O1_4 C1_4 1_555 1_555
C1_4 C2_4 1_555 1_555
C2_4 C6_4 1_555 1_555
C3 C5_4 1_555 1_555
C4 C5_4 1_555 1_555
C5_4 C8_4 1_555 1_555
C6_4 C4 1_555 1_555
H1_4 C6_4 1_555 1_555
C7_4 C2_4 1_555 1_555
H2_4 C7_4 1_555 1_555
C8_4 C7_4 1_555 1_555
O2 N1 1_555 1_555
O3 N1 1_555 1_555
N1 C4 1_555 1_555
O4_4 C1_4 1_555 1_555
C9 H3 1_555 1_555
C10 C9 1_555 1_555
C11_2 C3 1_555 1_555
C12 C10 1_555 1_555
H4 C12 1_555 1_555
C13 C3 1_555 1_555
C14 C10 1_555 1_555
O6 C14 1_555 1_555
O16_3 C14 1_555 1_555
N2 C13 1_555 1_555
O8 N2 1_555 1_555
O9 N2 1_555 1_555
N3_2 C11_2 1_555 1_555
O10_2 N3_2 1_555 1_555
N4_2 C8_4 1_555 1_555
O11_2 N3_2 1_555 1_555
O12_2 N4_2 1_555 1_555
O13_4 N4_2 1_555 1_555
Cu4_3 O6 1_555 1_555
C9 C11_2 1_555 1_555
C12 C13 1_555 1_555
O1_5 C1_5 1_555 1_555
C1_5 C2_5 1_555 1_555
C2_5 C6_5 1_555 1_555
C3_2 C5_5 1_555 1_555
C4_2 C5_5 1_555 1_555
C5_5 C8_5 1_555 1_555
C6_5 C4_2 1_555 1_555
H1_5 C6_5 1_555 1_555
C7_5 C2_5 1_555 1_555
H2_5 C7_5 1_555 1_555
C8_5 C7_5 1_555 1_555
O2_2 N1_2 1_555 1_555
O3_2 N1_2 1_555 1_555
N1_2 C4_2 1_555 1_555
O4_5 C1_5 1_555 1_555
C9_2 H3_2 1_555 1_555
C10_2 C9_2 1_555 1_555
C11_3 C3_2 1_555 1_555
C12_2 C10_2 1_555 1_555
H4_2 C12_2 1_555 1_555
C13_2 C3_2 1_555 1_555
C14_2 C10_2 1_555 1_555
O6_2 C14_2 1_555 1_555
O16 C14_2 1_555 1_555
N2_2 C13_2 1_555 1_555
O8_2 N2_2 1_555 1_555
O9_2 N2_2 1_555 1_555
N3_3 C11_3 1_555 1_555
O10_3 N3_3 1_555 1_555
N4_3 C8_5 1_555 1_555
O11_3 N3_3 1_555 1_555
O12_3 N4_3 1_555 1_555
O13_5 N4_3 1_555 1_555
Cu4 O6_2 1_555 1_555
C9_2 C11_3 1_555 1_555
C12_2 C13_2 1_555 1_555
O1_6 C1_6 1_555 1_555
C1_6 C2_6 1_555 1_555
C2_6 C6_6 1_555 1_555
C3_3 C5_6 1_555 1_555
C4_3 C5_6 1_555 1_555
C5_6 C8_6 1_555 1_555
C6_6 C4_3 1_555 1_555
H1_6 C6_6 1_555 1_555
C7_6 C2_6 1_555 1_555
H2_6 C7_6 1_555 1_555
C8_6 C7_6 1_555 1_555
O2_3 N1_3 1_555 1_555
O3_3 N1_3 1_555 1_555
N1_3 C4_3 1_555 1_555
O4_6 C1_6 1_555 1_555
C9_3 H3_3 1_555 1_555
C10_3 C9_3 1_555 1_555
C11_4 C3_3 1_555 1_555
C12_3 C10_3 1_555 1_555
H4_3 C12_3 1_555 1_555
C13_3 C3_3 1_555 1_555
C14_3 C10_3 1_555 1_555
O6_3 C14_3 1_555 1_555
O16_2 C14_3 1_555 1_555
N2_3 C13_3 1_555 1_555
O8_3 N2_3 1_555 1_555
O9_3 N2_3 1_555 1_555
N3_4 C11_4 1_555 1_555
O10_4 N3_4 1_555 1_555
N4_4 C8_6 1_555 1_555
O11_4 N3_4 1_555 1_555
O12_4 N4_4 1_555 1_555
O13_6 N4_4 1_555 1_555
Cu4_2 O6_3 1_555 1_555
Cu3 O4_6 1_555 1_555
C9_3 C11_4 1_555 1_555
C12_3 C13_3 1_555 1_555
C9_4 H3_4 1_555 1_555
C10_4 C9_4 1_555 1_555
C12_4 C10_4 1_555 1_555
H4_4 C12_4 1_555 1_555
C13_4 C3_4 1_555 1_555
C14_4 C10_4 1_555 1_555
O15_3 C14_4 1_555 1_555
O7 C14_4 1_555 1_555
Cu4_3 O7 1_555 1_555
C12_4 C13_4 1_555 1_555
O2_4 N1_4 1_555 1_555
O3_4 N1_4 1_555 1_555
N1_4 C4_4 1_555 1_555
C9_5 H3_5 1_555 1_555
C10_5 C9_5 1_555 1_555
C12_5 C10_5 1_555 1_555
H4_5 C12_5 1_555 1_555
C13_5 C3_5 1_555 1_555
C14_5 C10_5 1_555 1_555
O15 C14_5 1_555 1_555
O7_2 C14_5 1_555 1_555
N2_4 C13_5 1_555 1_555
O8_4 N2_4 1_555 1_555
O9_5 N2_4 1_555 1_555
Cu4 O7_2 1_555 1_555
C12_5 C13_5 1_555 1_555
C9_6 H3_6 1_555 1_555
C10_6 C9_6 1_555 1_555
C12_6 C10_6 1_555 1_555
H4_6 C12_6 1_555 1_555
C13_6 C3_6 1_555 1_555
C14_6 C10_6 1_555 1_555
O15_2 C14_6 1_555 1_555
O7_3 C14_6 1_555 1_555
Cu4_2 O7_3 1_555 1_555
C12_6 C13_6 1_555 1_555
Cu4 O1_7 1_555 1_555
O1_7 C1_7 1_555 1_555
C1_7 C2_7 1_555 1_555
C2_7 C6_7 1_555 1_555
C3_7 C5_7 1_555 1_555
C4_5 C5_7 1_555 1_555
C5_7 C8_7 1_555 1_555
C6_7 C4_5 1_555 1_555
H1_7 C6_7 1_555 1_555
C7_7 C2_7 1_555 1_555
H2_7 C7_7 1_555 1_555
C8_7 C7_7 1_555 1_555
O2_5 N1_5 1_555 1_555
O3_5 N1_5 1_555 1_555
N1_5 C4_5 1_555 1_555
O14 C1_7 1_555 1_555
C9_7 H3_7 1_555 1_555
C10_7 C9_7 1_555 1_555
C11_5 C3_7 1_555 1_555
C12_7 C10_7 1_555 1_555
H4_7 C12_7 1_555 1_555
C13_7 C3_7 1_555 1_555
O5_4 Cu4 1_555 1_555
C14_7 C10_7 1_555 1_555
O15_6 C14_7 1_555 1_555
O7_4 C14_7 1_555 1_555
N2_5 C13_7 1_555 1_555
O8_5 N2_5 1_555 1_555
O9_7 N2_5 1_555 1_555
N3_5 C11_5 1_555 1_555
O10_5 N3_5 1_555 1_555
N4_5 C8_7 1_555 1_555
O11_5 N3_5 1_555 1_555
O12_5 N4_5 1_555 1_555
O13_7 N4_5 1_555 1_555
Cu3 O7_4 1_555 1_555
C9_7 C11_5 1_555 1_555
C12_7 C13_7 1_555 1_555
O5_4 H5_4 1_555 1_555
O5_4 H6_4 1_555 1_555
Cu4_2 O1_8 1_555 1_555
O1_8 C1_8 1_555 1_555
C1_8 C2_8 1_555 1_555
C2_8 C6_8 1_555 1_555
C3_8 C5_8 1_555 1_555
C4_6 C5_8 1_555 1_555
C5_8 C8_8 1_555 1_555
C6_8 C4_6 1_555 1_555
H1_8 C6_8 1_555 1_555
C7_8 C2_8 1_555 1_555
H2_8 C7_8 1_555 1_555
C8_8 C7_8 1_555 1_555
O2_6 N1_6 1_555 1_555
O3_6 N1_6 1_555 1_555
N1_6 C4_6 1_555 1_555
O14_2 C1_8 1_555 1_555
C9_8 H3_8 1_555 1_555
C10_8 C9_8 1_555 1_555
C11_6 C3_8 1_555 1_555
C12_8 C10_8 1_555 1_555
H4_8 C12_8 1_555 1_555
C13_8 C3_8 1_555 1_555
O5_5 Cu4_2 1_555 1_555
C14_8 C10_8 1_555 1_555
O15_4 C14_8 1_555 1_555
O7_5 C14_8 1_555 1_555
N2_6 C13_8 1_555 1_555
O8_6 N2_6 1_555 1_555
O9_8 N2_6 1_555 1_555
N3_6 C11_6 1_555 1_555
O10_6 N3_6 1_555 1_555
N4_6 C8_8 1_555 1_555
O11_6 N3_6 1_555 1_555
O12_6 N4_6 1_555 1_555
O13_8 N4_6 1_555 1_555
C9_8 C11_6 1_555 1_555
C12_8 C13_8 1_555 1_555
O5_5 H5_5 1_555 1_555
O5_5 H6_5 1_555 1_555
Cu4_3 O1_9 1_555 1_555
O1_9 C1_9 1_555 1_555
C1_9 C2_9 1_555 1_555
C2_9 C6_9 1_555 1_555
C3_9 C5_9 1_555 1_555
C4_7 C5_9 1_555 1_555
C5_9 C8_9 1_555 1_555
C6_9 C4_7 1_555 1_555
H1_9 C6_9 1_555 1_555
C7_9 C2_9 1_555 1_555
H2_9 C7_9 1_555 1_555
C8_9 C7_9 1_555 1_555
O2_7 N1_7 1_555 1_555
O3_7 N1_7 1_555 1_555
N1_7 C4_7 1_555 1_555
O14_3 C1_9 1_555 1_555
C9_9 H3_9 1_555 1_555
C10_9 C9_9 1_555 1_555
C11_7 C3_9 1_555 1_555
C12_9 C10_9 1_555 1_555
H4_9 C12_9 1_555 1_555
C13_9 C3_9 1_555 1_555
O5_6 Cu4_3 1_555 1_555
C14_9 C10_9 1_555 1_555
O15_5 C14_9 1_555 1_555
O7_6 C14_9 1_555 1_555
N2_7 C13_9 1_555 1_555
O8_7 N2_7 1_555 1_555
O9_9 N2_7 1_555 1_555
N3_7 C11_7 1_555 1_555
O10_7 N3_7 1_555 1_555
N4_7 C8_9 1_555 1_555
O11_7 N3_7 1_555 1_555
O12_7 N4_7 1_555 1_555
O13_9 N4_7 1_555 1_555
C9_9 C11_7 1_555 1_555
C12_9 C13_9 1_555 1_555
O5_6 H5_6 1_555 1_555
O5_6 H6_6 1_555 1_555
O5_7 Cu3 1_555 1_555
O5_7 H5_7 1_555 1_555
O5_7 H6_7 1_555 1_555
O2_8 N1_8 1_555 1_555
O3_8 N1_8 1_555 1_555
N1_8 C4_8 1_555 1_555
O8_8 N2_8 1_555 1_555
N3_8 C11_8 1_555 1_555
O10_8 N3_8 1_555 1_555
O11_8 N3_8 1_555 1_555
O12_8 N4_8 1_555 1_555
C9_10 H3_10 1_555 1_555
C10_10 C9_10 1_555 1_555
C12_10 C10_10 1_555 1_555
H4_10 C12_10 1_555 1_555
C13_10 C3_10 1_555 1_555
C14_10 C10_10 1_555 1_555
O6_4 C14_10 1_555 1_555
O7_7 C14_10 1_555 1_555
Cu2 O7_7 1_555 1_555
Cu3_2 O6_4 1_555 1_555
C12_10 C13_10 1_555 1_555
O2_9 N1_9 1_555 1_555
O3_9 N1_9 1_555 1_555
N1_9 C4_9 1_555 1_555
C9_11 H3_11 1_555 1_555
C10_11 C9_11 1_555 1_555
C12_11 C10_11 1_555 1_555
H4_11 C12_11 1_555 1_555
C13_11 C3_11 1_555 1_555
C14_11 C10_11 1_555 1_555
O6_5 C14_11 1_555 1_555
O7_8 C14_11 1_555 1_555
N2_9 C13_11 1_555 1_555
O8_9 N2_9 1_555 1_555
O9_11 N2_9 1_555 1_555
Cu2_2 O7_8 1_555 1_555
Cu3_3 O6_5 1_555 1_555
C12_11 C13_11 1_555 1_555
C9_12 H3_12 1_555 1_555
C10_12 C9_12 1_555 1_555
C12_12 C10_12 1_555 1_555
H4_12 C12_12 1_555 1_555
C13_12 C3_12 1_555 1_555
C14_12 C10_12 1_555 1_555
O6_6 C14_12 1_555 1_555
O7_9 C14_12 1_555 1_555
Cu2_3 O7_9 1_555 1_555
Cu3_4 O6_6 1_555 1_555
C12_12 C13_12 1_555 1_555
Cu2_2 O1_10 1_555 1_555
O1_10 C1_10 1_555 1_555
C1_10 C2_10 1_555 1_555
C2_10 C6_10 1_555 1_555
C3_13 C5_10 1_555 1_555
C4_10 C5_10 1_555 1_555
C5_10 C8_10 1_555 1_555
C6_10 C4_10 1_555 1_555
H1_10 C6_10 1_555 1_555
C7_10 C2_10 1_555 1_555
H2_10 C7_10 1_555 1_555
C8_10 C7_10 1_555 1_555
O2_10 N1_10 1_555 1_555
O3_10 N1_10 1_555 1_555
N1_10 C4_10 1_555 1_555
O4_7 C1_10 1_555 1_555
C9_13 H3_13 1_555 1_555
C10_13 C9_13 1_555 1_555
C11_9 C3_13 1_555 1_555
C12_13 C10_13 1_555 1_555
H4_13 C12_13 1_555 1_555
C13_13 C3_13 1_555 1_555
O5_8 Cu2_2 1_555 1_555
C14_13 C10_13 1_555 1_555
O6_7 C14_13 1_555 1_555
O7_10 C14_13 1_555 1_555
N2_10 C13_13 1_555 1_555
O8_10 N2_10 1_555 1_555
O9_13 N2_10 1_555 1_555
N3_9 C11_9 1_555 1_555
O10_9 N3_9 1_555 1_555
N4_9 C8_10 1_555 1_555
O11_9 N3_9 1_555 1_555
O12_9 N4_9 1_555 1_555
O13_10 N4_9 1_555 1_555
Cu2_4 O7_10 1_555 1_555
Cu3_3 O4_7 1_555 1_555
O14_4 Cu2_2 1_555 1_555
O15_7 Cu2_2 1_555 1_555
C9_13 C11_9 1_555 1_555
C12_13 C13_13 1_555 1_555
O5_8 H5_8 1_555 1_555
O5_8 H6_8 1_555 1_555
Cu2_3 O1_11 1_555 1_555
O1_11 C1_11 1_555 1_555
C1_11 C2_11 1_555 1_555
C2_11 C6_11 1_555 1_555
C3_14 C5_11 1_555 1_555
C4_11 C5_11 1_555 1_555
C5_11 C8_11 1_555 1_555
C6_11 C4_11 1_555 1_555
H1_11 C6_11 1_555 1_555
C7_11 C2_11 1_555 1_555
H2_11 C7_11 1_555 1_555
C8_11 C7_11 1_555 1_555
O2_11 N1_11 1_555 1_555
O3_11 N1_11 1_555 1_555
N1_11 C4_11 1_555 1_555
O4_8 C1_11 1_555 1_555
C9_14 H3_14 1_555 1_555
C10_14 C9_14 1_555 1_555
C11_10 C3_14 1_555 1_555
C12_14 C10_14 1_555 1_555
H4_14 C12_14 1_555 1_555
C13_14 C3_14 1_555 1_555
O5_9 Cu2_3 1_555 1_555
C14_14 C10_14 1_555 1_555
O6_8 C14_14 1_555 1_555
O7_11 C14_14 1_555 1_555
N2_11 C13_14 1_555 1_555
O8_11 N2_11 1_555 1_555
O9_14 N2_11 1_555 1_555
N3_10 C11_10 1_555 1_555
O10_10 N3_10 1_555 1_555
N4_10 C8_11 1_555 1_555
O11_10 N3_10 1_555 1_555
O12_10 N4_10 1_555 1_555
O13_11 N4_10 1_555 1_555
Cu3_4 O4_8 1_555 1_555
O14_5 Cu2_3 1_555 1_555
O15_8 Cu2_3 1_555 1_555
C9_14 C11_10 1_555 1_555
C12_14 C13_14 1_555 1_555
O5_9 H5_9 1_555 1_555
O5_9 H6_9 1_555 1_555
Cu2 O1_12 1_555 1_555
O1_12 C1_12 1_555 1_555
C1_12 C2_12 1_555 1_555
C2_12 C6_12 1_555 1_555
C3_15 C5_12 1_555 1_555
C4_12 C5_12 1_555 1_555
C5_12 C8_12 1_555 1_555
C6_12 C4_12 1_555 1_555
H1_12 C6_12 1_555 1_555
C7_12 C2_12 1_555 1_555
H2_12 C7_12 1_555 1_555
C8_12 C7_12 1_555 1_555
O2_12 N1_12 1_555 1_555
O3_12 N1_12 1_555 1_555
N1_12 C4_12 1_555 1_555
O4_9 C1_12 1_555 1_555
C9_15 H3_15 1_555 1_555
C10_15 C9_15 1_555 1_555
C11_11 C3_15 1_555 1_555
C12_15 C10_15 1_555 1_555
H4_15 C12_15 1_555 1_555
C13_15 C3_15 1_555 1_555
O5_10 Cu2 1_555 1_555
C14_15 C10_15 1_555 1_555
O6_9 C14_15 1_555 1_555
O7_12 C14_15 1_555 1_555
N2_12 C13_15 1_555 1_555
O8_12 N2_12 1_555 1_555
O9_15 N2_12 1_555 1_555
N3_11 C11_11 1_555 1_555
O10_11 N3_11 1_555 1_555
N4_11 C8_12 1_555 1_555
O11_11 N3_11 1_555 1_555
O12_11 N4_11 1_555 1_555
O13_12 N4_11 1_555 1_555
Cu3_2 O4_9 1_555 1_555
O14_6 Cu2 1_555 1_555
O15_9 Cu2 1_555 1_555
C9_15 C11_11 1_555 1_555
C12_15 C13_15 1_555 1_555
O5_10 H5_10 1_555 1_555
O5_10 H6_10 1_555 1_555
O5_11 Cu2_4 1_555 1_555
O14_9 Cu2_4 1_555 1_555
O5_11 H5_11 1_555 1_555
O5_11 H6_11 1_555 1_555
Cu3_3 O1_13 1_555 1_555
O1_13 C1_13 1_555 1_555
C1_13 C2_13 1_555 1_555
C2_13 C6_13 1_555 1_555
C5_13 C8_13 1_555 1_555
H1_13 C6_13 1_555 1_555
C7_13 C2_13 1_555 1_555
H2_13 C7_13 1_555 1_555
C8_13 C7_13 1_555 1_555
O14_4 C1_13 1_555 1_555
O5_12 Cu3_3 1_555 1_555
O16_4 Cu3_3 1_555 1_555
O5_12 H5_12 1_555 1_555
O5_12 H6_12 1_555 1_555
Cu3_4 O1_14 1_555 1_555
O1_14 C1_14 1_555 1_555
C1_14 C2_14 1_555 1_555
C2_14 C6_14 1_555 1_555
C5_14 C8_14 1_555 1_555
H1_14 C6_14 1_555 1_555
C7_14 C2_14 1_555 1_555
H2_14 C7_14 1_555 1_555
C8_14 C7_14 1_555 1_555
O14_5 C1_14 1_555 1_555
O5_13 Cu3_4 1_555 1_555
N3_12 C11_12 1_555 1_555
O10_12 N3_12 1_555 1_555
N4_12 C8_14 1_555 1_555
O11_12 N3_12 1_555 1_555
O12_12 N4_12 1_555 1_555
O13_14 N4_12 1_555 1_555
O16_5 Cu3_4 1_555 1_555
O5_13 H5_13 1_555 1_555
O5_13 H6_13 1_555 1_555
Cu3_2 O1_15 1_555 1_555
O1_15 C1_15 1_555 1_555
C1_15 C2_15 1_555 1_555
C2_15 C6_15 1_555 1_555
C5_15 C8_15 1_555 1_555
H1_15 C6_15 1_555 1_555
C7_15 C2_15 1_555 1_555
H2_15 C7_15 1_555 1_555
C8_15 C7_15 1_555 1_555
O14_6 C1_15 1_555 1_555
O5_14 Cu3_2 1_555 1_555
O16_6 Cu3_2 1_555 1_555
O5_14 H5_14 1_555 1_555
O5_14 H6_14 1_555 1_555
O1_16 C1_16 1_555 1_555
C1_16 C2_16 1_555 1_555
C2_16 C6_16 1_555 1_555
C3_16 C5_16 1_555 1_555
C4_13 C5_16 1_555 1_555
C5_16 C8_16 1_555 1_555
C6_16 C4_13 1_555 1_555
H1_16 C6_16 1_555 1_555
C7_16 C2_16 1_555 1_555
H2_16 C7_16 1_555 1_555
C8_16 C7_16 1_555 1_555
O2_13 N1_13 1_555 1_555
O3_13 N1_13 1_555 1_555
N1_13 C4_13 1_555 1_555
O14_7 C1_16 1_555 1_555
C9_16 H3_16 1_555 1_555
C10_16 C9_16 1_555 1_555
C11_13 C3_16 1_555 1_555
C12_16 C10_16 1_555 1_555
H4_16 C12_16 1_555 1_555
C13_16 C3_16 1_555 1_555
C14_16 C10_16 1_555 1_555
O15_9 C14_16 1_555 1_555
O16_6 C14_16 1_555 1_555
N2_13 C13_16 1_555 1_555
O8_13 N2_13 1_555 1_555
O9_16 N2_13 1_555 1_555
N3_13 C11_13 1_555 1_555
O10_13 N3_13 1_555 1_555
N4_13 C8_16 1_555 1_555
O11_13 N3_13 1_555 1_555
O12_13 N4_13 1_555 1_555
O13_16 N4_13 1_555 1_555
C9_16 C11_13 1_555 1_555
C12_16 C13_16 1_555 1_555
O1_17 C1_17 1_555 1_555
C1_17 C2_17 1_555 1_555
C2_17 C6_17 1_555 1_555
C3_17 C5_17 1_555 1_555
C4_14 C5_17 1_555 1_555
C5_17 C8_17 1_555 1_555
C6_17 C4_14 1_555 1_555
H1_17 C6_17 1_555 1_555
C7_17 C2_17 1_555 1_555
H2_17 C7_17 1_555 1_555
C8_17 C7_17 1_555 1_555
O2_14 N1_14 1_555 1_555
O3_14 N1_14 1_555 1_555
N1_14 C4_14 1_555 1_555
O14_8 C1_17 1_555 1_555
C9_17 H3_17 1_555 1_555
C10_17 C9_17 1_555 1_555
C11_14 C3_17 1_555 1_555
C12_17 C10_17 1_555 1_555
H4_17 C12_17 1_555 1_555
C13_17 C3_17 1_555 1_555
C14_17 C10_17 1_555 1_555
O15_7 C14_17 1_555 1_555
O16_4 C14_17 1_555 1_555
N2_14 C13_17 1_555 1_555
O8_14 N2_14 1_555 1_555
O9_17 N2_14 1_555 1_555
N3_14 C11_14 1_555 1_555
O10_14 N3_14 1_555 1_555
N4_14 C8_17 1_555 1_555
O11_14 N3_14 1_555 1_555
O12_14 N4_14 1_555 1_555
O13_17 N4_14 1_555 1_555
C9_17 C11_14 1_555 1_555
C12_17 C13_17 1_555 1_555
O1_18 C1_18 1_555 1_555
C1_18 C2_18 1_555 1_555
C2_18 C6_18 1_555 1_555
C3_18 C5_18 1_555 1_555
C4_15 C5_18 1_555 1_555
C5_18 C8_18 1_555 1_555
C6_18 C4_15 1_555 1_555
H1_18 C6_18 1_555 1_555
C7_18 C2_18 1_555 1_555
H2_18 C7_18 1_555 1_555
C8_18 C7_18 1_555 1_555
O2_15 N1_15 1_555 1_555
O3_15 N1_15 1_555 1_555
N1_15 C4_15 1_555 1_555
O14_9 C1_18 1_555 1_555
C9_18 H3_18 1_555 1_555
C10_18 C9_18 1_555 1_555
C11_15 C3_18 1_555 1_555
C12_18 C10_18 1_555 1_555
H4_18 C12_18 1_555 1_555
C13_18 C3_18 1_555 1_555
C14_18 C10_18 1_555 1_555
O15_8 C14_18 1_555 1_555
O16_5 C14_18 1_555 1_555
N2_15 C13_18 1_555 1_555
O8_15 N2_15 1_555 1_555
O9_18 N2_15 1_555 1_555
N3_15 C11_15 1_555 1_555
O10_15 N3_15 1_555 1_555
N4_15 C8_18 1_555 1_555
O11_15 N3_15 1_555 1_555
O12_15 N4_15 1_555 1_555
O13_18 N4_15 1_555 1_555
C9_18 C11_15 1_555 1_555
C12_18 C13_18 1_555 1_555
N3_16 C11_16 1_555 1_555
O10_16 N3_16 1_555 1_555
O11_16 N3_16 1_555 1_555
O12_16 N4_16 1_555 1_555
O2_16 N1_16 1_555 1_555
O3_16 N1_16 1_555 1_555
N1_16 C4_16 1_555 1_555
O8_16 N2_16 1_555 1_555
O5_15 Cu3_5 1_555 1_555
O5_15 H5_15 1_555 1_555
O5_15 H6_15 1_555 1_555
O5_16 Cu2_5 1_555 1_555
O5_16 H5_16 1_555 1_555
O5_16 H6_16 1_555 1_555
O5_17 Cu2_6 1_555 1_555
O5_17 H5_17 1_555 1_555
O5_17 H6_17 1_555 1_555
O5_18 Cu3_6 1_555 1_555
O5_18 H5_18 1_555 1_555
O5_18 H6_18 1_555 1_555
N3_17 C11_17 1_555 1_555
O10_17 N3_17 1_555 1_555
O11_17 N3_17 1_555 1_555
O12_17 N4_17 1_555 1_555
O2_17 N1_17 1_555 1_555
O3_17 N1_17 1_555 1_555
N1_17 C4_17 1_555 1_555
O8_17 N2_17 1_555 1_555
O2_18 N1_18 1_555 1_555
O3_18 N1_18 1_555 1_555
N1_18 C4_18 1_555 1_555
O8_18 N2_18 1_555 1_555
N3_18 C11_18 1_555 1_555
O10_18 N3_18 1_555 1_555
O11_18 N3_18 1_555 1_555
O12_18 N4_18 1_555 1_555

#END
