
###############################################################################
#
# This file contains modified crystal structure data generated from the
# MOF subset of the Cambridge Structural Database (CSD) v543 
# hosted by the Cambridge Crystallographic Data Centre (CCDC).
#
# This work is licensed under the Creative Commons
# Attribution-NonCommercial-ShareAlike 4.0 International License.
# To view a copy of this license, visit
# http://creativecommons.org/licenses/by-nc-sa/4.0/
# or send a letter to
# Creative Commons, PO Box 1866, Mountain View, CA 94042, USA.
#
# CIF created using the CSD Python API on 29 September 2022
# The structure has been converted into the P1 space group
# The structure has a 3D framework
# The original CSD entry JUTWAZ is in the rhombohedral crystal system
# The framework has been calculated to contain at least 10.0% void space
# The void calculation uses a probe of radius 1.32A, grid spacing 0.4
# The framework is charged, counterions have been retained in the structure
#
###############################################################################

data_JUTWAZ
_chemical_formula_moiety         '(C144 H72 Cd33 Cl22 K22 N144)n'
_symmetry_cell_setting           triclinic
_symmetry_space_group_name_H-M   'P 1'
_symmetry_Int_Tables_number      1
_space_group_name_Hall           'P 1'
loop_
_symmetry_equiv_pos_site_id
_symmetry_equiv_pos_as_xyz
1 x,y,z
_cell_length_a                   22.967
_cell_length_b                   22.967
_cell_length_c                   23.692
_cell_angle_alpha                90
_cell_angle_beta                 90
_cell_angle_gamma                120
_cell_volume                     10822.8
loop_
_atom_site_label
_atom_site_type_symbol
_atom_site_fract_x
_atom_site_fract_y
_atom_site_fract_z
Cd1 Cd 0.0000 -0.0000 0.0000
Cd2 Cd 0.0000 -0.0000 0.173985(18)
Cl2 Cl 0.08697(6) -0.00000(8) 0.2500
N9 N 0.11202(15) 0.15306(22) 0.13438(12)
N10 N 0.07059(15) 0.09033(22) 0.11620(13)
N11 N 0.06724(15) 0.09032(22) 0.06074(12)
N12 N 0.10600(16) 0.15246(23) 0.04111(13)
C9 C 0.13251(18) 0.18967(25) 0.08743(15)
C10 C 0.1754(2) 0.2630(3) 0.08575(16)
C11 C 0.1941(5) 0.2969(7) 0.0372(2)
H5 H 0.1840 0.2728 0.0036
C12 C 0.1951(5) 0.3009(7) 0.1320(2)
H6 H 0.1845 0.2800 0.1671
N13 N 0.29229(16) 0.51361(22) 0.03229(12)
N14 N 0.31359(16) 0.57634(22) 0.05047(13)
N15 N 0.31025(16) 0.57635(22) 0.10593(12)
N16 N 0.28687(16) 0.51421(23) 0.12556(13)
C13 C 0.27617(18) 0.47700(25) 0.07924(15)
C14 C 0.2457(2) 0.4037(3) 0.08092(16)
C15 C 0.2305(5) 0.3698(7) 0.1295(2)
H7 H 0.2445 0.3939 0.1631
C16 C 0.2275(5) 0.3658(7) 0.0347(2)
Cl3 Cl -0.00000(8) 0.08697(6) 0.2500
Cd3 Cd 0.0000 -0.0000 0.326015(18)
Cd6 Cd 0.3333 0.6667 0.1667
N26 N 0.09033(22) 0.07059(15) 0.38380(13)
Cd1_2 Cd 0.0000 -0.0000 1.0000
H8 H 0.2378 0.3867 0.9996
Cd9 Cd 0.3333 0.6667 0.992682(18)
N30 N 0.09032(22) 0.02308(16) 0.93926(12)
Cd1_3 Cd -0.0000 1.0000 0.0000
Cd2_2 Cd -0.0000 1.0000 0.173985(18)
N1 N 0.04104(16) 0.88798(15) 0.13438(12)
N2 N 0.01974(16) 0.92941(15) 0.11620(13)
N3 N 0.02308(16) 0.93276(15) 0.06074(12)
N4 N 0.04646(16) 0.89400(16) 0.04111(13)
C1 C 0.05716(18) 0.86749(18) 0.08743(15)
C2 C 0.0876(2) 0.8246(2) 0.08575(16)
C3 C 0.1028(5) 0.8059(5) 0.0372(2)
H1 H 0.0888 0.8160 0.0036
C4 C 0.1058(5) 0.8049(5) 0.1320(2)
H2 H 0.0955 0.8155 0.1671
N5 N 0.22131(15) 0.70771(16) 0.03229(12)
N6 N 0.26274(15) 0.68641(16) 0.05047(13)
N7 N 0.26609(15) 0.68975(16) 0.10593(12)
N8 N 0.22733(16) 0.71313(16) 0.12556(13)
C5 C 0.20082(18) 0.72383(18) 0.07924(15)
C6 C 0.1579(2) 0.7543(2) 0.08092(16)
C7 C 0.1392(5) 0.7695(5) 0.1295(2)
H3 H 0.1493 0.7555 0.1631
C8 C 0.1382(5) 0.7725(5) 0.0347(2)
Cl2_2 Cl 0.08697(6) 1.00000(8) 0.2500
Cd3_2 Cd -0.0000 1.0000 0.326015(18)
Cd1_4 Cd -0.0000 1.0000 1.0000
H4 H 0.1488 0.7622 0.9996
Cd1_5 Cd 1.0000 -0.0000 0.0000
Cd2_3 Cd 1.0000 -0.0000 0.173985(18)
Cl3_2 Cl 1.00000(8) 0.08697(6) 0.2500
Cd3_3 Cd 1.0000 -0.0000 0.326015(18)
N25 N 0.92941(15) 0.01974(16) 0.38380(13)
Cd1_6 Cd 1.0000 -0.0000 1.0000
N28 N 0.97692(16) 0.06724(15) 0.93926(12)
Cd1_7 Cd 1.0000 1.0000 0.0000
Cd2_4 Cd 1.0000 1.0000 0.173985(18)
Cl1 Cl 0.91303(6) 0.91303(6) 0.2500
N17 N 0.84694(22) 0.95896(16) 0.13438(12)
N18 N 0.90967(22) 0.98026(16) 0.11620(13)
N19 N 0.90968(22) 0.97692(16) 0.06074(12)
N20 N 0.84754(23) 0.95354(16) 0.04111(13)
C17 C 0.81033(25) 0.94284(18) 0.08743(15)
C18 C 0.7370(3) 0.9124(2) 0.08575(16)
C19 C 0.7031(7) 0.8972(5) 0.0372(2)
H9 H 0.7272 0.9112 0.0036
C20 C 0.6991(7) 0.8942(5) 0.1320(2)
H10 H 0.7200 0.9045 0.1671
N21 N 0.48639(22) 0.77869(15) 0.03229(12)
N22 N 0.42366(22) 0.73726(15) 0.05047(13)
N23 N 0.42365(22) 0.73391(15) 0.10593(12)
N24 N 0.48579(23) 0.77267(16) 0.12556(13)
C21 C 0.52300(25) 0.79918(18) 0.07924(15)
C22 C 0.5963(3) 0.8421(2) 0.08092(16)
C23 C 0.6302(7) 0.8608(5) 0.1295(2)
H11 H 0.6061 0.8507 0.1631
C24 C 0.6342(7) 0.8618(5) 0.0347(2)
Cd3_4 Cd 1.0000 1.0000 0.326015(18)
N27 N 0.98026(16) 0.90967(22) 0.38380(13)
Cd1_8 Cd 1.0000 1.0000 1.0000
H12 H 0.6133 0.8512 0.9996
N29 N 0.93276(15) 0.90968(22) 0.93926(12)
Cd1_9 Cd -0.0000 0.0000 0.5000
N9_2 N 0.15306(22) 0.11202(15) 0.36562(12)
N11_2 N 0.09032(22) 0.06724(15) 0.43926(12)
N12_2 N 0.15246(23) 0.10600(16) 0.45889(13)
C9_2 C 0.18967(25) 0.13251(18) 0.41257(15)
C10_2 C 0.2630(3) 0.1754(2) 0.41425(16)
C11_2 C 0.2969(7) 0.1941(5) 0.4628(2)
H5_2 H 0.2728 0.1840 0.4964
C12_2 C 0.3009(7) 0.1951(5) 0.3680(2)
H6_2 H 0.2800 0.1845 0.3329
N13_2 N 0.51361(22) 0.29229(16) 0.46771(12)
N14_2 N 0.57634(22) 0.31359(16) 0.44953(13)
N15_2 N 0.57635(22) 0.31025(16) 0.39407(12)
N16_2 N 0.51421(23) 0.28687(16) 0.37444(13)
C13_2 C 0.47700(25) 0.27617(18) 0.42076(15)
C14_2 C 0.4037(3) 0.2457(2) 0.41908(16)
C15_2 C 0.3698(7) 0.2305(5) 0.3705(2)
H7_2 H 0.3939 0.2445 0.3369
C16_2 C 0.3658(7) 0.2275(5) 0.4653(2)
H8_2 H 0.3867 0.2378 0.5004
Cd6_2 Cd 0.6667 0.3333 0.3333
Cd9_2 Cd 0.6667 0.3333 0.507318(18)
N30_2 N 0.02308(16) 0.09032(22) 0.56074(12)
Cd1_10 Cd -0.0000 1.0000 0.5000
N28_2 N 0.06724(15) 0.97692(16) 0.56074(12)
Cd1_11 Cd 1.0000 0.0000 0.5000
N1_2 N 0.88798(15) 0.04104(16) 0.36562(12)
N3_2 N 0.93276(15) 0.02308(16) 0.43926(12)
N4_2 N 0.89400(16) 0.04646(16) 0.45889(13)
C1_2 C 0.86749(18) 0.05716(18) 0.41257(15)
C2_2 C 0.8246(2) 0.0876(2) 0.41425(16)
C3_2 C 0.8059(5) 0.1028(5) 0.4628(2)
H1_2 H 0.8160 0.0888 0.4964
C4_2 C 0.8049(5) 0.1058(5) 0.3680(2)
H2_2 H 0.8155 0.0955 0.3329
N5_2 N 0.70771(16) 0.22131(15) 0.46771(12)
N6_2 N 0.68641(16) 0.26274(15) 0.44953(13)
N7_2 N 0.68975(16) 0.26609(15) 0.39407(12)
N8_2 N 0.71313(16) 0.22733(16) 0.37444(13)
C5_2 C 0.72383(18) 0.20082(18) 0.42076(15)
C6_2 C 0.7543(2) 0.1579(2) 0.41908(16)
C7_2 C 0.7695(5) 0.1392(5) 0.3705(2)
H3_2 H 0.7555 0.1493 0.3369
C8_2 C 0.7725(5) 0.1382(5) 0.4653(2)
H4_2 H 0.7622 0.1488 0.5004
Cd1_12 Cd 1.0000 1.0000 0.5000
N17_2 N 0.95896(16) 0.84694(22) 0.36562(12)
N19_2 N 0.97692(16) 0.90968(22) 0.43926(12)
N20_2 N 0.95354(16) 0.84754(23) 0.45889(13)
C17_2 C 0.94284(18) 0.81033(25) 0.41257(15)
C18_2 C 0.9124(2) 0.7370(3) 0.41425(16)
C19_2 C 0.8972(5) 0.7031(7) 0.4628(2)
H9_2 H 0.9112 0.7272 0.4964
C20_2 C 0.8942(5) 0.6991(7) 0.3680(2)
H10_2 H 0.9045 0.7200 0.3329
N21_2 N 0.77869(15) 0.48639(22) 0.46771(12)
N22_2 N 0.73726(15) 0.42366(22) 0.44953(13)
N23_2 N 0.73391(15) 0.42365(22) 0.39407(12)
N24_2 N 0.77267(16) 0.48579(23) 0.37444(13)
C21_2 C 0.79918(18) 0.52300(25) 0.42076(15)
C22_2 C 0.8421(2) 0.5963(3) 0.41908(16)
C23_2 C 0.8608(5) 0.6302(7) 0.3705(2)
H11_2 H 0.8507 0.6061 0.3369
C24_2 C 0.8618(5) 0.6342(7) 0.4653(2)
H12_2 H 0.8512 0.6133 0.5004
N29_2 N 0.90968(22) 0.93276(15) 0.56074(12)
Cl1_2 Cl 0.57970(6) 0.24636(6) 0.5833
Cl2_3 Cl 0.75364(6) 0.33333(8) 0.5833
Cl3_3 Cl 0.66667(8) 0.42030(6) 0.5833
Cd3_5 Cd 0.6667 0.3333 0.659348(18)
N25_2 N 0.59608(15) 0.35307(16) 0.71713(13)
N26_2 N 0.75700(22) 0.40392(15) 0.71713(13)
N27_2 N 0.64693(16) 0.24300(22) 0.71713(13)
N28_3 N 0.64359(16) 0.40057(15) 0.27259(12)
N29_3 N 0.59943(15) 0.24301(22) 0.27259(12)
N30_3 N 0.75699(22) 0.35641(16) 0.27259(12)
N13_3 N 0.18027(22) 0.62563(16) 0.80105(12)
N14_3 N 0.24300(22) 0.64693(16) 0.78287(13)
N15_3 N 0.24301(22) 0.64359(16) 0.72741(12)
N16_3 N 0.18087(23) 0.62021(16) 0.70778(13)
C13_3 C 0.14366(25) 0.60951(18) 0.75410(15)
C14_3 C 0.0703(3) 0.5791(2) 0.75242(16)
C15_3 C 0.0364(7) 0.5639(5) 0.7039(2)
H7_3 H 0.0605 0.5779 0.6703
C16_3 C 0.0324(7) 0.5609(5) 0.7987(2)
H8_3 H 0.0533 0.5712 0.8338
Cd6_3 Cd 0.3333 0.6667 0.6667
Cd9_3 Cd 0.3333 0.6667 0.840652(18)
Cd1_13 Cd 0.6667 0.3333 0.8333
N1_3 N 0.55465(15) 0.37437(16) 0.69895(12)
N3_3 N 0.59943(15) 0.35641(16) 0.77259(12)
N4_3 N 0.56067(16) 0.37979(16) 0.79222(13)
C1_3 C 0.53416(18) 0.39049(18) 0.74590(15)
C2_3 C 0.4913(2) 0.4209(2) 0.74758(16)
C3_3 C 0.4726(5) 0.4361(5) 0.7961(2)
H1_3 H 0.4827 0.4221 0.8297
C4_3 C 0.4716(5) 0.4391(5) 0.7013(2)
H2_3 H 0.4822 0.4288 0.6662
N5_3 N 0.37437(16) 0.55465(15) 0.80105(12)
N6_3 N 0.35307(16) 0.59608(15) 0.78287(13)
N7_3 N 0.35641(16) 0.59943(15) 0.72741(12)
N8_3 N 0.37979(16) 0.56067(16) 0.70778(13)
C5_3 C 0.39049(18) 0.53416(18) 0.75410(15)
C6_3 C 0.4209(2) 0.4913(2) 0.75242(16)
C7_3 C 0.4361(5) 0.4726(5) 0.7039(2)
H3_3 H 0.4221 0.4827 0.6703
C8_3 C 0.4391(5) 0.4716(5) 0.7987(2)
H4_3 H 0.4288 0.4822 0.8338
N9_3 N 0.81973(22) 0.44535(15) 0.69895(12)
N11_3 N 0.75699(22) 0.40057(15) 0.77259(12)
N12_3 N 0.81913(23) 0.43933(16) 0.79222(13)
C9_3 C 0.85634(25) 0.46584(18) 0.74590(15)
C10_3 C 0.9297(3) 0.5087(2) 0.74758(16)
C11_3 C 0.9636(7) 0.5274(5) 0.7961(2)
H5_3 H 0.9395 0.5173 0.8297
C12_3 C 0.9676(7) 0.5284(5) 0.7013(2)
H6_3 H 0.9467 0.5178 0.6662
N17_3 N 0.62563(16) 0.18027(22) 0.69895(12)
N19_3 N 0.64359(16) 0.24301(22) 0.77259(12)
N20_3 N 0.62021(16) 0.18087(23) 0.79222(13)
C17_3 C 0.60951(18) 0.14366(25) 0.74590(15)
C18_3 C 0.5791(2) 0.0703(3) 0.74758(16)
C19_3 C 0.5639(5) 0.0364(7) 0.7961(2)
H9_3 H 0.5779 0.0605 0.8297
C20_3 C 0.5609(5) 0.0324(7) 0.7013(2)
H10_3 H 0.5712 0.0533 0.6662
N28_4 N 0.73391(15) 0.31025(16) 0.89407(12)
N29_4 N 0.57635(22) 0.26609(15) 0.89407(12)
N30_4 N 0.68975(16) 0.42365(22) 0.89407(12)
N21_3 N 0.44535(15) 0.81973(22) 0.80105(12)
N22_3 N 0.40392(15) 0.75700(22) 0.78287(13)
N23_3 N 0.40057(15) 0.75699(22) 0.72741(12)
N24_3 N 0.43933(16) 0.81913(23) 0.70778(13)
C21_3 C 0.46584(18) 0.85634(25) 0.75410(15)
C22_3 C 0.5087(2) 0.9297(3) 0.75242(16)
C23_3 C 0.5274(5) 0.9636(7) 0.7039(2)
H11_3 H 0.5173 0.9395 0.6703
C24_3 C 0.5284(5) 0.9676(7) 0.7987(2)
H12_3 H 0.5178 0.9467 0.8338
Cl1_3 Cl 0.24636(6) 0.57970(6) 0.9167
Cl2_4 Cl 0.42030(6) 0.66667(8) 0.9167
Cl3_4 Cl 0.33333(8) 0.75364(6) 0.9167
N28_5 N 0.31025(16) 0.73391(15) 0.60593(12)
N29_5 N 0.26609(15) 0.57635(22) 0.60593(12)
N30_5 N 0.42365(22) 0.68975(16) 0.60593(12)
N28_6 N 0.40057(15) 0.64359(16) 0.22741(12)
N29_6 N 0.24301(22) 0.59943(15) 0.22741(12)
N30_6 N 0.35641(16) 0.75699(22) 0.22741(12)
H12_4 H 0.3867 0.1488 0.0004
Cd7 Cd 0.6667 0.3333 0.007318(18)
Cd2_5 Cd -0.0000 0.0000 0.826015(18)
Cl1_4 Cl 0.08697(6) 0.08697(6) 0.7500
N17_4 N 0.15306(22) 0.04104(16) 0.86562(12)
N18_2 N 0.09033(22) 0.01974(16) 0.88380(13)
N20_4 N 0.15246(23) 0.04646(16) 0.95889(13)
C17_4 C 0.18967(25) 0.05716(18) 0.91257(15)
C18_4 C 0.2630(3) 0.0876(2) 0.91425(16)
C19_4 C 0.2969(7) 0.1028(5) 0.9628(2)
H9_4 H 0.2728 0.0888 0.9964
C20_4 C 0.3009(7) 0.1058(5) 0.8680(2)
H10_4 H 0.2800 0.0955 0.8329
N21_4 N 0.51361(22) 0.22131(15) 0.96771(12)
N22_4 N 0.57634(22) 0.26274(15) 0.94953(13)
N24_4 N 0.51421(23) 0.22733(16) 0.87444(13)
C21_4 C 0.47700(25) 0.20082(18) 0.92076(15)
C22_4 C 0.4037(3) 0.1579(2) 0.91908(16)
C23_4 C 0.3698(7) 0.1392(5) 0.8705(2)
H11_4 H 0.3939 0.1493 0.8369
C24_4 C 0.3658(7) 0.1382(5) 0.9653(2)
Cd3_6 Cd 0.0000 0.0000 0.673985(18)
N27_3 N 0.01974(16) 0.09033(22) 0.61620(13)
Cd2_6 Cd 0.0000 1.0000 0.826015(18)
Cl3_5 Cl 0.00000(8) 0.91303(6) 0.7500
Cd3_7 Cd -0.0000 1.0000 0.673985(18)
N25_3 N 0.07059(15) 0.98026(16) 0.61620(13)
H4_4 H 0.8512 0.2378 0.0004
Cd2_7 Cd 1.0000 0.0000 0.826015(18)
N1_4 N 0.95896(16) 0.11202(15) 0.86562(12)
N2_2 N 0.98026(16) 0.07059(15) 0.88380(13)
N4_4 N 0.95354(16) 0.10600(16) 0.95889(13)
C1_4 C 0.94284(18) 0.13251(18) 0.91257(15)
C2_4 C 0.9124(2) 0.1754(2) 0.91425(16)
C3_4 C 0.8972(5) 0.1941(5) 0.9628(2)
H1_4 H 0.9112 0.1840 0.9964
C4_4 C 0.8942(5) 0.1951(5) 0.8680(2)
H2_4 H 0.9045 0.1845 0.8329
N5_4 N 0.77869(15) 0.29229(16) 0.96771(12)
N6_4 N 0.73726(15) 0.31359(16) 0.94953(13)
N8_4 N 0.77267(16) 0.28687(16) 0.87444(13)
C5_4 C 0.79918(18) 0.27617(18) 0.92076(15)
C6_4 C 0.8421(2) 0.2457(2) 0.91908(16)
C7_4 C 0.8608(5) 0.2305(5) 0.8705(2)
H3_4 H 0.8507 0.2445 0.8369
C8_4 C 0.8618(5) 0.2275(5) 0.9653(2)
Cl2_5 Cl 0.91303(6) 0.00000(8) 0.7500
Cd3_8 Cd 1.0000 0.0000 0.673985(18)
H8_4 H 0.7622 0.6133 0.0004
Cd2_8 Cd 1.0000 1.0000 0.826015(18)
Cl2_6 Cl 0.91303(6) 1.00000(8) 0.7500
N9_4 N 0.88798(15) 0.84694(22) 0.86562(12)
N10_2 N 0.92941(15) 0.90967(22) 0.88380(13)
N12_4 N 0.89400(16) 0.84754(23) 0.95889(13)
C9_4 C 0.86749(18) 0.81033(25) 0.91257(15)
C10_4 C 0.8246(2) 0.7370(3) 0.91425(16)
C11_4 C 0.8059(5) 0.7031(7) 0.9628(2)
H5_4 H 0.8160 0.7272 0.9964
C12_4 C 0.8049(5) 0.6991(7) 0.8680(2)
H6_4 H 0.8155 0.7200 0.8329
N13_4 N 0.70771(16) 0.48639(22) 0.96771(12)
N14_4 N 0.68641(16) 0.42366(22) 0.94953(13)
N16_4 N 0.71313(16) 0.48579(23) 0.87444(13)
C13_4 C 0.72383(18) 0.52300(25) 0.92076(15)
C14_4 C 0.7543(2) 0.5963(3) 0.91908(16)
C15_4 C 0.7695(5) 0.6302(7) 0.8705(2)
H7_4 H 0.7555 0.6061 0.8369
C16_4 C 0.7725(5) 0.6342(7) 0.9653(2)
Cl3_6 Cl 1.00000(8) 0.91303(6) 0.7500
Cd3_9 Cd 1.0000 1.0000 0.673985(18)
N26_3 N 0.90967(22) 0.92941(15) 0.61620(13)
N17_5 N 0.04104(16) 0.15306(22) 0.63438(12)
N20_5 N 0.04646(16) 0.15246(23) 0.54111(13)
C17_5 C 0.05716(18) 0.18967(25) 0.58743(15)
C18_5 C 0.0876(2) 0.2630(3) 0.58575(16)
C19_5 C 0.1028(5) 0.2969(7) 0.5372(2)
H9_5 H 0.0888 0.2728 0.5036
C20_5 C 0.1058(5) 0.3009(7) 0.6320(2)
H10_5 H 0.0955 0.2800 0.6671
N21_5 N 0.22131(15) 0.51361(22) 0.53229(12)
N22_5 N 0.26274(15) 0.57634(22) 0.55047(13)
N24_5 N 0.22733(16) 0.51421(23) 0.62556(13)
C21_5 C 0.20082(18) 0.47700(25) 0.57924(15)
C22_5 C 0.1579(2) 0.4037(3) 0.58092(16)
C23_5 C 0.1392(5) 0.3698(7) 0.6295(2)
H11_5 H 0.1493 0.3939 0.6631
C24_5 C 0.1382(5) 0.3658(7) 0.5347(2)
H12_5 H 0.1488 0.3867 0.4996
Cd7_2 Cd 0.3333 0.6667 0.492682(18)
N1_5 N 0.11202(15) 0.95896(16) 0.63438(12)
N4_5 N 0.10600(16) 0.95354(16) 0.54111(13)
C1_5 C 0.13251(18) 0.94284(18) 0.58743(15)
C2_5 C 0.1754(2) 0.9124(2) 0.58575(16)
C3_5 C 0.1941(5) 0.8972(5) 0.5372(2)
H1_5 H 0.1840 0.9112 0.5036
C4_5 C 0.1951(5) 0.8942(5) 0.6320(2)
H2_5 H 0.1845 0.9045 0.6671
N5_5 N 0.29229(16) 0.77869(15) 0.53229(12)
N6_5 N 0.31359(16) 0.73726(15) 0.55047(13)
N8_5 N 0.28687(16) 0.77267(16) 0.62556(13)
C5_5 C 0.27617(18) 0.79918(18) 0.57924(15)
C6_5 C 0.2457(2) 0.8421(2) 0.58092(16)
C7_5 C 0.2305(5) 0.8608(5) 0.6295(2)
H3_5 H 0.2445 0.8507 0.6631
C8_5 C 0.2275(5) 0.8618(5) 0.5347(2)
H4_5 H 0.2378 0.8512 0.4996
N9_5 N 0.84694(22) 0.88798(15) 0.63438(12)
N12_5 N 0.84754(23) 0.89400(16) 0.54111(13)
C9_5 C 0.81033(25) 0.86749(18) 0.58743(15)
C10_5 C 0.7370(3) 0.8246(2) 0.58575(16)
C11_5 C 0.7031(7) 0.8059(5) 0.5372(2)
H5_5 H 0.7272 0.8160 0.5036
C12_5 C 0.6991(7) 0.8049(5) 0.6320(2)
H6_5 H 0.7200 0.8155 0.6671
N13_5 N 0.48639(22) 0.70771(16) 0.53229(12)
N14_5 N 0.42366(22) 0.68641(16) 0.55047(13)
N16_5 N 0.48579(23) 0.71313(16) 0.62556(13)
C13_5 C 0.52300(25) 0.72383(18) 0.57924(15)
C14_5 C 0.5963(3) 0.7543(2) 0.58092(16)
C15_5 C 0.6302(7) 0.7695(5) 0.6295(2)
H7_5 H 0.6061 0.7555 0.6631
C16_5 C 0.6342(7) 0.7725(5) 0.5347(2)
H8_5 H 0.6133 0.7622 0.4996
Cl1_5 Cl 0.42030(6) 0.75364(6) 0.4167
Cl2_7 Cl 0.24636(6) 0.66667(8) 0.4167
Cl3_7 Cl 0.33333(8) 0.57970(6) 0.4167
Cd3_10 Cd 0.3333 0.6667 0.340652(18)
N25_4 N 0.40392(15) 0.64693(16) 0.28287(13)
N26_4 N 0.24300(22) 0.59608(15) 0.28287(13)
N27_4 N 0.35307(16) 0.75700(22) 0.28287(13)
N21_6 N 0.55465(15) 0.18027(22) 0.19895(12)
N22_6 N 0.59608(15) 0.24300(22) 0.21713(13)
N24_6 N 0.56067(16) 0.18087(23) 0.29222(13)
C21_6 C 0.53416(18) 0.14366(25) 0.24590(15)
C22_6 C 0.4913(2) 0.0703(3) 0.24758(16)
C23_6 C 0.4726(5) 0.0364(7) 0.2961(2)
H11_6 H 0.4827 0.0605 0.3297
C24_6 C 0.4716(5) 0.0324(7) 0.2013(2)
H12_6 H 0.4822 0.0533 0.1662
Cd7_3 Cd 0.6667 0.3333 0.159348(18)
N1_6 N 0.44535(15) 0.62563(16) 0.30105(12)
N4_6 N 0.43933(16) 0.62021(16) 0.20778(13)
C1_6 C 0.46584(18) 0.60951(18) 0.25410(15)
C2_6 C 0.5087(2) 0.5791(2) 0.25242(16)
C3_6 C 0.5274(5) 0.5639(5) 0.2039(2)
H1_6 H 0.5173 0.5779 0.1703
C4_6 C 0.5284(5) 0.5609(5) 0.2987(2)
H2_6 H 0.5178 0.5712 0.3338
N5_6 N 0.62563(16) 0.44535(15) 0.19895(12)
N6_6 N 0.64693(16) 0.40392(15) 0.21713(13)
N8_6 N 0.62021(16) 0.43933(16) 0.29222(13)
C5_6 C 0.60951(18) 0.46584(18) 0.24590(15)
C6_6 C 0.5791(2) 0.5087(2) 0.24758(16)
C7_6 C 0.5639(5) 0.5274(5) 0.2961(2)
H3_6 H 0.5779 0.5173 0.3297
C8_6 C 0.5609(5) 0.5284(5) 0.2013(2)
H4_6 H 0.5712 0.5178 0.1662
N9_6 N 0.18027(22) 0.55465(15) 0.30105(12)
N12_6 N 0.18087(23) 0.56067(16) 0.20778(13)
C9_6 C 0.14366(25) 0.53416(18) 0.25410(15)
C10_6 C 0.0703(3) 0.4913(2) 0.25242(16)
C11_6 C 0.0364(7) 0.4726(5) 0.2039(2)
H5_6 H 0.0605 0.4827 0.1703
C12_6 C 0.0324(7) 0.4716(5) 0.2987(2)
H6_6 H 0.0533 0.4822 0.3338
N17_6 N 0.37437(16) 0.81973(22) 0.30105(12)
N20_6 N 0.37979(16) 0.81913(23) 0.20778(13)
C17_6 C 0.39049(18) 0.85634(25) 0.25410(15)
C18_6 C 0.4209(2) 0.9297(3) 0.25242(16)
C19_6 C 0.4361(5) 0.9636(7) 0.2039(2)
H9_6 H 0.4221 0.9395 0.1703
C20_6 C 0.4391(5) 0.9676(7) 0.2987(2)
H10_6 H 0.4288 0.9467 0.3338
N13_6 N 0.81973(22) 0.37437(16) 0.19895(12)
N14_6 N 0.75700(22) 0.35307(16) 0.21713(13)
N16_6 N 0.81913(23) 0.37979(16) 0.29222(13)
C13_6 C 0.85634(25) 0.39049(18) 0.24590(15)
C14_6 C 0.9297(3) 0.4209(2) 0.24758(16)
C15_6 C 0.9636(7) 0.4361(5) 0.2961(2)
H7_6 H 0.9395 0.4221 0.3297
C16_6 C 0.9676(7) 0.4391(5) 0.2013(2)
H8_6 H 0.9467 0.4288 0.1662
Cl1_6 Cl 0.75364(6) 0.42030(6) 0.0833
Cl2_8 Cl 0.57970(6) 0.33333(8) 0.0833
Cl3_8 Cl 0.66667(8) 0.24636(6) 0.0833
K1 K -0.0000 0.83778(5) 0.2500
K1_2 K 1.0000 0.83778(5) 0.2500
K1_3 K 0.16222(5) 0.16222(5) 0.2500
K1_4 K 0.83778(5) 0.0000 0.2500
K1_5 K 0.83778(5) 1.0000 0.2500
K1_6 K 0.6667 0.17111(5) 0.5833
K1_7 K 0.82889(5) 0.49555(5) 0.5833
K1_8 K 0.50445(5) 0.3333 0.5833
K1_9 K 0.3333 0.50445(5) 0.9167
K1_10 K 0.49555(5) 0.82889(5) 0.9167
K1_11 K 0.17111(5) 0.6667 0.9167
K1_12 K 0.0000 0.16222(5) 0.7500
K1_13 K 1.0000 0.16222(5) 0.7500
K1_14 K 0.83778(5) 0.83778(5) 0.7500
K1_15 K 0.16222(5) 0.0000 0.7500
K1_16 K 0.16222(5) 1.0000 0.7500
K1_17 K 0.3333 0.82889(5) 0.4167
K1_18 K 0.17111(5) 0.50445(5) 0.4167
K1_19 K 0.49555(5) 0.6667 0.4167
K1_20 K 0.6667 0.49555(5) 0.0833
K1_21 K 0.50445(5) 0.17111(5) 0.0833
K1_22 K 0.82889(5) 0.3333 0.0833
loop_
_geom_bond_atom_site_label_1
_geom_bond_atom_site_label_2
_geom_bond_site_symmetry_1
_geom_bond_site_symmetry_2
Cl2 Cd2 1_555 1_555
N9 N10 1_555 1_555
N10 Cd2 1_555 1_555
N11 Cd1 1_555 1_555
N12 N11 1_555 1_555
C9 N9 1_555 1_555
C10 C9 1_555 1_555
C11 C10 1_555 1_555
H5 C11 1_555 1_555
C12 C10 1_555 1_555
H6 C12 1_555 1_555
N13 N14 1_555 1_555
N14 N15 1_555 1_555
N15 N16 1_555 1_555
N16 C13 1_555 1_555
C13 N13 1_555 1_555
C14 C13 1_555 1_555
C15 C12 1_555 1_555
H7 C15 1_555 1_555
C16 C11 1_555 1_555
Cl3 Cd2 1_555 1_555
Cd3 Cl2 1_555 1_555
Cd6 N15 1_555 1_555
N26 Cd3 1_555 1_555
N10 N11 1_555 1_555
N12 C9 1_555 1_555
C14 C15 1_555 1_555
C14 C16 1_555 1_555
Cl3 Cd3 1_555 1_555
N30 Cd1_2 1_555 1_555
Cd1_3 N3 1_555 1_555
N1 N2 1_555 1_555
N2 Cd2_2 1_555 1_555
N3 N2 1_555 1_555
N4 N3 1_555 1_555
C1 N1 1_555 1_555
C2 C1 1_555 1_555
C3 C2 1_555 1_555
H1 C3 1_555 1_555
C4 C2 1_555 1_555
H2 C4 1_555 1_555
N5 N6 1_555 1_555
N6 N7 1_555 1_555
N7 N8 1_555 1_555
N8 C5 1_555 1_555
C5 N5 1_555 1_555
C6 C5 1_555 1_555
C7 C4 1_555 1_555
H3 C7 1_555 1_555
C8 C3 1_555 1_555
Cl2_2 Cd2_2 1_555 1_555
Cd3_2 Cl2_2 1_555 1_555
Cd6 N7 1_555 1_555
N4 C1 1_555 1_555
C6 C7 1_555 1_555
C6 C8 1_555 1_555
Cl3_2 Cd2_3 1_555 1_555
N25 Cd3_3 1_555 1_555
Cl3_2 Cd3_3 1_555 1_555
N28 Cd1_6 1_555 1_555
Cd2_4 Cl1 1_555 1_555
Cl1 Cd3_4 1_555 1_555
N17 N18 1_555 1_555
N18 Cd2_4 1_555 1_555
N19 Cd1_7 1_555 1_555
N20 N19 1_555 1_555
C17 N17 1_555 1_555
C18 C17 1_555 1_555
C19 C18 1_555 1_555
H9 C19 1_555 1_555
C20 C18 1_555 1_555
H10 C20 1_555 1_555
N21 N22 1_555 1_555
N22 N23 1_555 1_555
N23 N24 1_555 1_555
N24 C21 1_555 1_555
C21 N21 1_555 1_555
C22 C21 1_555 1_555
C23 C20 1_555 1_555
H11 C23 1_555 1_555
C24 C19 1_555 1_555
Cd6 N23 1_555 1_555
N27 Cd3_4 1_555 1_555
N18 N19 1_555 1_555
N20 C17 1_555 1_555
C22 C23 1_555 1_555
C22 C24 1_555 1_555
N29 Cd1_8 1_555 1_555
N9_2 N26 1_555 1_555
N11_2 Cd1_9 1_555 1_555
N12_2 N11_2 1_555 1_555
C9_2 N9_2 1_555 1_555
C10_2 C9_2 1_555 1_555
C11_2 C10_2 1_555 1_555
H5_2 C11_2 1_555 1_555
C12_2 C10_2 1_555 1_555
H6_2 C12_2 1_555 1_555
N13_2 N14_2 1_555 1_555
N14_2 N15_2 1_555 1_555
N15_2 N16_2 1_555 1_555
N16_2 C13_2 1_555 1_555
C13_2 N13_2 1_555 1_555
C14_2 C13_2 1_555 1_555
C15_2 C12_2 1_555 1_555
H7_2 C15_2 1_555 1_555
C16_2 C11_2 1_555 1_555
H8_2 C16_2 1_555 1_555
Cd6_2 N15_2 1_555 1_555
Cd9_2 N14_2 1_555 1_555
N30_2 Cd1_9 1_555 1_555
N26 N11_2 1_555 1_555
N12_2 C9_2 1_555 1_555
C14_2 C15_2 1_555 1_555
C14_2 C16_2 1_555 1_555
N28_2 Cd1_10 1_555 1_555
Cd1_11 N3_2 1_555 1_555
N1_2 N25 1_555 1_555
N3_2 N25 1_555 1_555
N4_2 N3_2 1_555 1_555
C1_2 N1_2 1_555 1_555
C2_2 C1_2 1_555 1_555
C3_2 C2_2 1_555 1_555
H1_2 C3_2 1_555 1_555
C4_2 C2_2 1_555 1_555
H2_2 C4_2 1_555 1_555
N5_2 N6_2 1_555 1_555
N6_2 N7_2 1_555 1_555
N7_2 N8_2 1_555 1_555
N8_2 C5_2 1_555 1_555
C5_2 N5_2 1_555 1_555
C6_2 C5_2 1_555 1_555
C7_2 C4_2 1_555 1_555
H3_2 C7_2 1_555 1_555
C8_2 C3_2 1_555 1_555
H4_2 C8_2 1_555 1_555
Cd6_2 N7_2 1_555 1_555
Cd9_2 N6_2 1_555 1_555
N4_2 C1_2 1_555 1_555
C6_2 C7_2 1_555 1_555
C6_2 C8_2 1_555 1_555
N17_2 N27 1_555 1_555
N19_2 Cd1_12 1_555 1_555
N20_2 N19_2 1_555 1_555
C17_2 N17_2 1_555 1_555
C18_2 C17_2 1_555 1_555
C19_2 C18_2 1_555 1_555
H9_2 C19_2 1_555 1_555
C20_2 C18_2 1_555 1_555
H10_2 C20_2 1_555 1_555
N21_2 N22_2 1_555 1_555
N22_2 N23_2 1_555 1_555
N23_2 N24_2 1_555 1_555
N24_2 C21_2 1_555 1_555
C21_2 N21_2 1_555 1_555
C22_2 C21_2 1_555 1_555
C23_2 C20_2 1_555 1_555
H11_2 C23_2 1_555 1_555
C24_2 C19_2 1_555 1_555
H12_2 C24_2 1_555 1_555
Cd6_2 N23_2 1_555 1_555
Cd9_2 N22_2 1_555 1_555
N29_2 Cd1_12 1_555 1_555
N27 N19_2 1_555 1_555
N20_2 C17_2 1_555 1_555
C22_2 C23_2 1_555 1_555
C22_2 C24_2 1_555 1_555
Cd9_2 Cl1_2 1_555 1_555
Cl1_2 Cd3_5 1_555 1_555
Cl2_3 Cd9_2 1_555 1_555
Cl3_3 Cd9_2 1_555 1_555
Cd3_5 Cl2_3 1_555 1_555
N25_2 Cd3_5 1_555 1_555
N26_2 Cd3_5 1_555 1_555
N27_2 Cd3_5 1_555 1_555
N28_3 Cd6_2 1_555 1_555
N29_3 Cd6_2 1_555 1_555
N30_3 Cd6_2 1_555 1_555
Cl3_3 Cd3_5 1_555 1_555
N13_3 N14_3 1_555 1_555
N14_3 N15_3 1_555 1_555
N15_3 N16_3 1_555 1_555
N16_3 C13_3 1_555 1_555
C13_3 N13_3 1_555 1_555
C14_3 C13_3 1_555 1_555
H7_3 C15_3 1_555 1_555
H8_3 C16_3 1_555 1_555
Cd6_3 N15_3 1_555 1_555
Cd9_3 N14_3 1_555 1_555
C14_3 C15_3 1_555 1_555
C14_3 C16_3 1_555 1_555
Cd1_13 N3_3 1_555 1_555
N1_3 N25_2 1_555 1_555
N3_3 N25_2 1_555 1_555
N4_3 N3_3 1_555 1_555
C1_3 N1_3 1_555 1_555
C2_3 C1_3 1_555 1_555
C3_3 C2_3 1_555 1_555
H1_3 C3_3 1_555 1_555
C4_3 C2_3 1_555 1_555
H2_3 C4_3 1_555 1_555
N5_3 N6_3 1_555 1_555
N6_3 N7_3 1_555 1_555
N7_3 N8_3 1_555 1_555
N8_3 C5_3 1_555 1_555
C5_3 N5_3 1_555 1_555
C6_3 C5_3 1_555 1_555
C7_3 C4_3 1_555 1_555
H3_3 C7_3 1_555 1_555
C8_3 C3_3 1_555 1_555
H4_3 C8_3 1_555 1_555
N9_3 N26_2 1_555 1_555
N11_3 Cd1_13 1_555 1_555
N12_3 N11_3 1_555 1_555
C9_3 N9_3 1_555 1_555
C10_3 C9_3 1_555 1_555
C11_3 C10_3 1_555 1_555
H5_3 C11_3 1_555 1_555
C12_3 C10_3 1_555 1_555
H6_3 C12_3 1_555 1_555
N17_3 N27_2 1_555 1_555
N19_3 Cd1_13 1_555 1_555
N20_3 N19_3 1_555 1_555
C17_3 N17_3 1_555 1_555
C18_3 C17_3 1_555 1_555
C19_3 C18_3 1_555 1_555
H9_3 C19_3 1_555 1_555
C20_3 C18_3 1_555 1_555
H10_3 C20_3 1_555 1_555
Cd6_3 N7_3 1_555 1_555
Cd9_3 N6_3 1_555 1_555
N28_4 Cd1_13 1_555 1_555
N29_4 Cd1_13 1_555 1_555
N30_4 Cd1_13 1_555 1_555
N4_3 C1_3 1_555 1_555
C6_3 C7_3 1_555 1_555
C6_3 C8_3 1_555 1_555
N26_2 N11_3 1_555 1_555
N12_3 C9_3 1_555 1_555
N27_2 N19_3 1_555 1_555
N20_3 C17_3 1_555 1_555
N21_3 N22_3 1_555 1_555
N22_3 N23_3 1_555 1_555
N23_3 N24_3 1_555 1_555
N24_3 C21_3 1_555 1_555
C21_3 N21_3 1_555 1_555
C22_3 C21_3 1_555 1_555
H11_3 C23_3 1_555 1_555
H12_3 C24_3 1_555 1_555
Cd6_3 N23_3 1_555 1_555
Cd9_3 N22_3 1_555 1_555
C22_3 C23_3 1_555 1_555
C22_3 C24_3 1_555 1_555
Cd9_3 Cl1_3 1_555 1_555
Cl1_3 Cd9 1_555 1_555
Cl2_4 Cd9_3 1_555 1_555
Cl3_4 Cd9_3 1_555 1_555
Cd9 Cl2_4 1_555 1_555
N28_5 Cd6_3 1_555 1_555
N29_5 Cd6_3 1_555 1_555
N30_5 Cd6_3 1_555 1_555
Cl3_4 Cd9 1_555 1_555
N28_6 Cd6 1_555 1_555
N29_6 Cd6 1_555 1_555
N30_6 Cd6 1_555 1_555
Cd2_5 Cl1_4 1_555 1_555
Cl1_4 Cd3_6 1_555 1_555
N17_4 N18_2 1_555 1_555
N18_2 Cd2_5 1_555 1_555
N20_4 N30 1_555 1_555
C17_4 N17_4 1_555 1_555
C18_4 C17_4 1_555 1_555
C19_4 C18_4 1_555 1_555
H9_4 C19_4 1_555 1_555
C20_4 C18_4 1_555 1_555
H10_4 C20_4 1_555 1_555
N21_4 N22_4 1_555 1_555
N22_4 N29_4 1_555 1_555
N29_4 N24_4 1_555 1_555
N24_4 C21_4 1_555 1_555
C21_4 N21_4 1_555 1_555
C22_4 C21_4 1_555 1_555
C23_4 C20_4 1_555 1_555
H11_4 C23_4 1_555 1_555
C24_4 C19_4 1_555 1_555
N27_3 Cd3_6 1_555 1_555
N18_2 N30 1_555 1_555
N20_4 C17_4 1_555 1_555
C22_4 C23_4 1_555 1_555
C22_4 C24_4 1_555 1_555
Cl3_5 Cd2_6 1_555 1_555
N25_3 Cd3_7 1_555 1_555
Cl3_5 Cd3_7 1_555 1_555
N1_4 N2_2 1_555 1_555
N2_2 Cd2_7 1_555 1_555
N28 N2_2 1_555 1_555
N4_4 N28 1_555 1_555
C1_4 N1_4 1_555 1_555
C2_4 C1_4 1_555 1_555
C3_4 C2_4 1_555 1_555
H1_4 C3_4 1_555 1_555
C4_4 C2_4 1_555 1_555
H2_4 C4_4 1_555 1_555
N5_4 N6_4 1_555 1_555
N6_4 N28_4 1_555 1_555
N28_4 N8_4 1_555 1_555
N8_4 C5_4 1_555 1_555
C5_4 N5_4 1_555 1_555
C6_4 C5_4 1_555 1_555
C7_4 C4_4 1_555 1_555
H3_4 C7_4 1_555 1_555
C8_4 C3_4 1_555 1_555
Cl2_5 Cd2_7 1_555 1_555
Cd3_8 Cl2_5 1_555 1_555
N4_4 C1_4 1_555 1_555
C6_4 C7_4 1_555 1_555
C6_4 C8_4 1_555 1_555
Cl2_6 Cd2_8 1_555 1_555
N9_4 N10_2 1_555 1_555
N10_2 Cd2_8 1_555 1_555
N12_4 N29 1_555 1_555
C9_4 N9_4 1_555 1_555
C10_4 C9_4 1_555 1_555
C11_4 C10_4 1_555 1_555
H5_4 C11_4 1_555 1_555
C12_4 C10_4 1_555 1_555
H6_4 C12_4 1_555 1_555
N13_4 N14_4 1_555 1_555
N14_4 N30_4 1_555 1_555
N30_4 N16_4 1_555 1_555
N16_4 C13_4 1_555 1_555
C13_4 N13_4 1_555 1_555
C14_4 C13_4 1_555 1_555
C15_4 C12_4 1_555 1_555
H7_4 C15_4 1_555 1_555
C16_4 C11_4 1_555 1_555
Cl3_6 Cd2_8 1_555 1_555
Cd3_9 Cl2_6 1_555 1_555
N26_3 Cd3_9 1_555 1_555
N10_2 N29 1_555 1_555
N12_4 C9_4 1_555 1_555
C14_4 C15_4 1_555 1_555
C14_4 C16_4 1_555 1_555
Cl3_6 Cd3_9 1_555 1_555
N17_5 N27_3 1_555 1_555
N20_5 N30_2 1_555 1_555
C17_5 N17_5 1_555 1_555
C18_5 C17_5 1_555 1_555
C19_5 C18_5 1_555 1_555
H9_5 C19_5 1_555 1_555
C20_5 C18_5 1_555 1_555
H10_5 C20_5 1_555 1_555
N21_5 N22_5 1_555 1_555
N22_5 N29_5 1_555 1_555
N29_5 N24_5 1_555 1_555
N24_5 C21_5 1_555 1_555
C21_5 N21_5 1_555 1_555
C22_5 C21_5 1_555 1_555
C23_5 C20_5 1_555 1_555
H11_5 C23_5 1_555 1_555
C24_5 C19_5 1_555 1_555
H12_5 C24_5 1_555 1_555
Cd7_2 N22_5 1_555 1_555
N27_3 N30_2 1_555 1_555
N20_5 C17_5 1_555 1_555
C22_5 C23_5 1_555 1_555
C22_5 C24_5 1_555 1_555
N1_5 N25_3 1_555 1_555
N28_2 N25_3 1_555 1_555
N4_5 N28_2 1_555 1_555
C1_5 N1_5 1_555 1_555
C2_5 C1_5 1_555 1_555
C3_5 C2_5 1_555 1_555
H1_5 C3_5 1_555 1_555
C4_5 C2_5 1_555 1_555
H2_5 C4_5 1_555 1_555
N5_5 N6_5 1_555 1_555
N6_5 N28_5 1_555 1_555
N28_5 N8_5 1_555 1_555
N8_5 C5_5 1_555 1_555
C5_5 N5_5 1_555 1_555
C6_5 C5_5 1_555 1_555
C7_5 C4_5 1_555 1_555
H3_5 C7_5 1_555 1_555
C8_5 C3_5 1_555 1_555
H4_5 C8_5 1_555 1_555
Cd7_2 N6_5 1_555 1_555
N4_5 C1_5 1_555 1_555
C6_5 C7_5 1_555 1_555
C6_5 C8_5 1_555 1_555
N9_5 N26_3 1_555 1_555
N12_5 N29_2 1_555 1_555
C9_5 N9_5 1_555 1_555
C10_5 C9_5 1_555 1_555
C11_5 C10_5 1_555 1_555
H5_5 C11_5 1_555 1_555
C12_5 C10_5 1_555 1_555
H6_5 C12_5 1_555 1_555
N13_5 N14_5 1_555 1_555
N14_5 N30_5 1_555 1_555
N30_5 N16_5 1_555 1_555
N16_5 C13_5 1_555 1_555
C13_5 N13_5 1_555 1_555
C14_5 C13_5 1_555 1_555
C15_5 C12_5 1_555 1_555
H7_5 C15_5 1_555 1_555
C16_5 C11_5 1_555 1_555
H8_5 C16_5 1_555 1_555
Cd7_2 N14_5 1_555 1_555
N26_3 N29_2 1_555 1_555
N12_5 C9_5 1_555 1_555
C14_5 C15_5 1_555 1_555
C14_5 C16_5 1_555 1_555
Cd7_2 Cl1_5 1_555 1_555
Cl1_5 Cd3_10 1_555 1_555
Cl2_7 Cd7_2 1_555 1_555
Cl3_7 Cd7_2 1_555 1_555
Cd3_10 Cl2_7 1_555 1_555
N25_4 Cd3_10 1_555 1_555
N26_4 Cd3_10 1_555 1_555
N27_4 Cd3_10 1_555 1_555
Cl3_7 Cd3_10 1_555 1_555
N21_6 N22_6 1_555 1_555
N22_6 N29_3 1_555 1_555
N29_3 N24_6 1_555 1_555
N24_6 C21_6 1_555 1_555
C21_6 N21_6 1_555 1_555
C22_6 C21_6 1_555 1_555
H11_6 C23_6 1_555 1_555
H12_6 C24_6 1_555 1_555
Cd7_3 N22_6 1_555 1_555
C22_6 C23_6 1_555 1_555
C22_6 C24_6 1_555 1_555
N1_6 N25_4 1_555 1_555
N28_6 N25_4 1_555 1_555
N4_6 N28_6 1_555 1_555
C1_6 N1_6 1_555 1_555
C2_6 C1_6 1_555 1_555
C3_6 C2_6 1_555 1_555
H1_6 C3_6 1_555 1_555
C4_6 C2_6 1_555 1_555
H2_6 C4_6 1_555 1_555
N5_6 N6_6 1_555 1_555
N6_6 N28_3 1_555 1_555
N28_3 N8_6 1_555 1_555
N8_6 C5_6 1_555 1_555
C5_6 N5_6 1_555 1_555
C6_6 C5_6 1_555 1_555
C7_6 C4_6 1_555 1_555
H3_6 C7_6 1_555 1_555
C8_6 C3_6 1_555 1_555
H4_6 C8_6 1_555 1_555
N9_6 N26_4 1_555 1_555
N12_6 N29_6 1_555 1_555
C9_6 N9_6 1_555 1_555
C10_6 C9_6 1_555 1_555
C11_6 C10_6 1_555 1_555
H5_6 C11_6 1_555 1_555
C12_6 C10_6 1_555 1_555
H6_6 C12_6 1_555 1_555
N17_6 N27_4 1_555 1_555
N20_6 N30_6 1_555 1_555
C17_6 N17_6 1_555 1_555
C18_6 C17_6 1_555 1_555
C19_6 C18_6 1_555 1_555
H9_6 C19_6 1_555 1_555
C20_6 C18_6 1_555 1_555
H10_6 C20_6 1_555 1_555
Cd7_3 N6_6 1_555 1_555
N4_6 C1_6 1_555 1_555
C6_6 C7_6 1_555 1_555
C6_6 C8_6 1_555 1_555
N26_4 N29_6 1_555 1_555
N12_6 C9_6 1_555 1_555
N27_4 N30_6 1_555 1_555
N20_6 C17_6 1_555 1_555
N13_6 N14_6 1_555 1_555
N14_6 N30_3 1_555 1_555
N30_3 N16_6 1_555 1_555
N16_6 C13_6 1_555 1_555
C13_6 N13_6 1_555 1_555
C14_6 C13_6 1_555 1_555
H7_6 C15_6 1_555 1_555
H8_6 C16_6 1_555 1_555
Cd7_3 N14_6 1_555 1_555
C14_6 C15_6 1_555 1_555
C14_6 C16_6 1_555 1_555
Cd7_3 Cl1_6 1_555 1_555
Cl1_6 Cd7 1_555 1_555
Cl2_8 Cd7_3 1_555 1_555
Cl3_8 Cd7_3 1_555 1_555
Cd7 Cl2_8 1_555 1_555
Cl3_8 Cd7 1_555 1_555

#END
