
###############################################################################
#
# This file contains modified crystal structure data generated from the
# MOF subset of the Cambridge Structural Database (CSD) v543 
# hosted by the Cambridge Crystallographic Data Centre (CCDC).
#
# This work is licensed under the Creative Commons
# Attribution-NonCommercial-ShareAlike 4.0 International License.
# To view a copy of this license, visit
# http://creativecommons.org/licenses/by-nc-sa/4.0/
# or send a letter to
# Creative Commons, PO Box 1866, Mountain View, CA 94042, USA.
#
# CIF created using the CSD Python API on 29 September 2022
# The structure has been converted into the P1 space group
# The structure has a 3D framework
# The original CSD entry JUTWED is in the tetragonal crystal system
# The framework has been calculated to contain at least 10.0% void space
# The void calculation uses a probe of radius 1.32A, grid spacing 0.4
# The framework is charged, counterions have been retained in the structure
# H atom positions have been added when not included in the experimental data
# Generated hydrogen atom positions removed from atoms on special positions
#
###############################################################################

data_JUTWED
_chemical_formula_moiety         '(C64 H128 Cd20 Cl9 N64 O20 9-)n'
_symmetry_cell_setting           triclinic
_symmetry_space_group_name_H-M   'P 1'
_symmetry_Int_Tables_number      1
_space_group_name_Hall           'P 1'
loop_
_symmetry_equiv_pos_site_id
_symmetry_equiv_pos_as_xyz
1 x,y,z
_cell_length_a                   16.5611(14)
_cell_length_b                   16.5611(14)
_cell_length_c                   22.312(2)
_cell_angle_alpha                90
_cell_angle_beta                 90
_cell_angle_gamma                90
_cell_volume                     6119.51
loop_
_atom_site_label
_atom_site_type_symbol
_atom_site_fract_x
_atom_site_fract_y
_atom_site_fract_z
Cl1 Cl 0.0000 0.0000 0.0000
Cd2 Cd 0.17109(8) 0.0000 0.0000
O2 O 0.3068(12) 0.0000 0.0000
Cd3 Cd 0.0000 0.17109(8) 0.0000
O3 O 0.0000 0.3068(12) 0.0000
N33 N 0.1022(4) 0.1581(5) 0.0723(3)
N40 N 0.1581(5) 0.1022(4) 0.0723(3)
Cl1_2 Cl 0.0000 0.0000 1.0000
Cd2_2 Cd 0.17109(8) 0.0000 1.0000
O2_2 O 0.3068(12) 0.0000 1.0000
C9 C 0.2155(10) 0.2155(10) 0.7982(7)
N9 N 0.1581(5) 0.1022(4) 0.9277(3)
C10 C 0.2807(11) 0.1839(11) 0.7756(6)
H5 H 0.3037 0.1383 0.7930
N10 N 0.2048(7) 0.1104(7) 0.8823(4)
C11 C 0.1781(7) 0.1781(7) 0.8539(6)
C12 C 0.2845(10) 0.2845(10) 0.7018(7)
N11 N 0.3978(4) 0.3419(5) 0.5723(3)
C13 C 0.3161(11) 0.2193(11) 0.7244(6)
H6 H 0.3617 0.1963 0.7070
N12 N 0.3896(7) 0.2952(7) 0.6177(4)
C14 C 0.3219(7) 0.3219(7) 0.6461(6)
N13 N 0.1022(4) 0.1581(5) 0.9277(3)
C15 C 0.1839(11) 0.2807(11) 0.7756(6)
H7 H 0.1383 0.3037 0.7930
N14 N 0.1104(7) 0.2048(7) 0.8823(4)
N15 N 0.3419(5) 0.3978(4) 0.5723(3)
C16 C 0.2193(11) 0.3161(11) 0.7244(6)
H8 H 0.1963 0.3617 0.7070
N16 N 0.2952(7) 0.3896(7) 0.6177(4)
Cd3_2 Cd 0.0000 0.17109(8) 1.0000
O3_2 O 0.0000 0.3068(12) 1.0000
Cd6 Cd 0.5000 0.32891(8) 0.5000
Cd12 Cd 0.32891(8) 0.5000 0.5000
Cd1 Cd 0.0000 0.82891(8) 0.0000
Cl1_3 Cl 0.0000 1.0000 0.0000
O1 O 0.0000 0.6932(12) 0.0000
Cd2_3 Cd 0.17109(8) 1.0000 0.0000
O2_3 O 0.3068(12) 1.0000 0.0000
N36 N 0.1581(5) 0.8978(4) 0.0723(3)
N39 N 0.1022(4) 0.8419(5) 0.0723(3)
Cd1_2 Cd 0.0000 0.82891(8) 1.0000
Cl1_4 Cl 0.0000 1.0000 1.0000
O1_2 O -0.0000 0.6932(12) 1.0000
C1 C 0.2155(10) 0.7845(10) 0.7982(7)
N1 N 0.1022(4) 0.8419(5) 0.9277(3)
C2 C 0.1839(11) 0.7193(11) 0.7756(6)
H1 H 0.1383 0.6963 0.7930
N2 N 0.1104(7) 0.7952(7) 0.8823(4)
C3 C 0.1781(7) 0.8219(7) 0.8539(6)
C4 C 0.2845(10) 0.7155(10) 0.7018(7)
N3 N 0.3419(5) 0.6022(4) 0.5723(3)
C5 C 0.2193(11) 0.6839(11) 0.7244(6)
H2 H 0.1963 0.6383 0.7070
N4 N 0.2952(7) 0.6104(7) 0.6177(4)
C6 C 0.3219(7) 0.6781(7) 0.6461(6)
N5 N 0.1581(5) 0.8978(4) 0.9277(3)
C7 C 0.2807(11) 0.8161(11) 0.7756(6)
H3 H 0.3037 0.8617 0.7930
N6 N 0.2048(7) 0.8896(7) 0.8823(4)
N7 N 0.3978(4) 0.6581(5) 0.5723(3)
C8 C 0.3161(11) 0.7807(11) 0.7244(6)
H4 H 0.3617 0.8037 0.7070
N8 N 0.3896(7) 0.7048(7) 0.6177(4)
Cd2_4 Cd 0.17109(8) 1.0000 1.0000
O2_4 O 0.3068(12) 1.0000 1.0000
Cd10 Cd 0.5000 0.67109(8) 0.5000
Cl1_5 Cl 1.0000 0.0000 0.0000
Cd3_3 Cd 1.0000 0.17109(8) 0.0000
O3_3 O 1.0000 0.3068(12) 0.0000
Cd4 Cd 0.82891(8) 0.0000 0.0000
O4 O 0.6932(12) 0.0000 0.0000
N34 N 0.8419(5) 0.1022(4) 0.0723(3)
N37 N 0.8978(4) 0.1581(5) 0.0723(3)
Cl1_6 Cl 1.0000 0.0000 1.0000
Cd3_4 Cd 1.0000 0.17109(8) 1.0000
O3_4 O 1.0000 0.3068(12) 1.0000
C17 C 0.7845(10) 0.2155(10) 0.7982(7)
N17 N 0.8978(4) 0.1581(5) 0.9277(3)
C18 C 0.8161(11) 0.2807(11) 0.7756(6)
H9 H 0.8617 0.3037 0.7930
N18 N 0.8896(7) 0.2048(7) 0.8823(4)
C19 C 0.8219(7) 0.1781(7) 0.8539(6)
C20 C 0.7155(10) 0.2845(10) 0.7018(7)
N19 N 0.6581(5) 0.3978(4) 0.5723(3)
C21 C 0.7807(11) 0.3161(11) 0.7244(6)
H10 H 0.8037 0.3617 0.7070
N20 N 0.7048(7) 0.3896(7) 0.6177(4)
C22 C 0.6781(7) 0.3219(7) 0.6461(6)
N21 N 0.8419(5) 0.1022(4) 0.9277(3)
C23 C 0.7193(11) 0.1839(11) 0.7756(6)
H11 H 0.6963 0.1383 0.7930
N22 N 0.7952(7) 0.1104(7) 0.8823(4)
N23 N 0.6022(4) 0.3419(5) 0.5723(3)
C24 C 0.6839(11) 0.2193(11) 0.7244(6)
H12 H 0.6383 0.1963 0.7070
N24 N 0.6104(7) 0.2952(7) 0.6177(4)
Cd4_2 Cd 0.82891(8) 0.0000 1.0000
O4_2 O 0.6932(12) 0.0000 1.0000
Cd8 Cd 0.67109(8) 0.5000 0.5000
Cd1_3 Cd 1.0000 0.82891(8) 0.0000
Cl1_7 Cl 1.0000 1.0000 0.0000
O1_3 O 1.0000 0.6932(12) 0.0000
Cd4_3 Cd 0.82891(8) 1.0000 0.0000
O4_3 O 0.6932(12) 1.0000 0.0000
N35 N 0.8978(4) 0.8419(5) 0.0723(3)
N38 N 0.8419(5) 0.8978(4) 0.0723(3)
Cd1_4 Cd 1.0000 0.82891(8) 1.0000
Cl1_8 Cl 1.0000 1.0000 1.0000
O1_4 O 1.0000 0.6932(12) 1.0000
Cd4_4 Cd 0.82891(8) 1.0000 1.0000
O4_4 O 0.6932(12) 1.0000 1.0000
C25 C 0.7845(10) 0.7845(10) 0.7982(7)
N25 N 0.8419(5) 0.8978(4) 0.9277(3)
C26 C 0.7193(11) 0.8161(11) 0.7756(6)
H13 H 0.6963 0.8617 0.7930
N26 N 0.7952(7) 0.8896(7) 0.8823(4)
C27 C 0.8219(7) 0.8219(7) 0.8539(6)
C28 C 0.7155(10) 0.7155(10) 0.7018(7)
N27 N 0.6022(4) 0.6581(5) 0.5723(3)
C29 C 0.6839(11) 0.7807(11) 0.7244(6)
H14 H 0.6383 0.8037 0.7070
N28 N 0.6104(7) 0.7048(7) 0.6177(4)
C30 C 0.6781(7) 0.6781(7) 0.6461(6)
N29 N 0.8978(4) 0.8419(5) 0.9277(3)
C31 C 0.8161(11) 0.7193(11) 0.7756(6)
H15 H 0.8617 0.6963 0.7930
N30 N 0.8896(7) 0.7952(7) 0.8823(4)
N31 N 0.6581(5) 0.6022(4) 0.5723(3)
C32 C 0.7807(11) 0.6839(11) 0.7244(6)
H16 H 0.8037 0.6383 0.7070
N32 N 0.7048(7) 0.6104(7) 0.6177(4)
C1_2 C 0.2155(10) 0.2155(10) 0.2018(7)
C2_2 C 0.1839(11) 0.2807(11) 0.2244(6)
H1_2 H 0.1383 0.3037 0.2070
N2_2 N 0.1104(7) 0.2048(7) 0.1177(4)
C3_2 C 0.1781(7) 0.1781(7) 0.1461(6)
C4_2 C 0.2845(10) 0.2845(10) 0.2982(7)
N3_2 N 0.3419(5) 0.3978(4) 0.4277(3)
C5_2 C 0.2193(11) 0.3161(11) 0.2756(6)
H2_2 H 0.1963 0.3617 0.2930
N4_2 N 0.2952(7) 0.3896(7) 0.3823(4)
C6_2 C 0.3219(7) 0.3219(7) 0.3539(6)
C7_2 C 0.2807(11) 0.1839(11) 0.2244(6)
H3_2 H 0.3037 0.1383 0.2070
N6_2 N 0.2048(7) 0.1104(7) 0.1177(4)
N7_2 N 0.3978(4) 0.3419(5) 0.4277(3)
C8_2 C 0.3161(11) 0.2193(11) 0.2756(6)
H4_2 H 0.3617 0.1963 0.2930
N8_2 N 0.3896(7) 0.2952(7) 0.3823(4)
C9_2 C 0.2155(10) 0.7845(10) 0.2018(7)
C10_2 C 0.2807(11) 0.8161(11) 0.2244(6)
H5_2 H 0.3037 0.8617 0.2070
N10_2 N 0.2048(7) 0.8896(7) 0.1177(4)
C11_2 C 0.1781(7) 0.8219(7) 0.1461(6)
C12_2 C 0.2845(10) 0.7155(10) 0.2982(7)
N11_2 N 0.3978(4) 0.6581(5) 0.4277(3)
C13_2 C 0.3161(11) 0.7807(11) 0.2756(6)
H6_2 H 0.3617 0.8037 0.2930
N12_2 N 0.3896(7) 0.7048(7) 0.3823(4)
C14_2 C 0.3219(7) 0.6781(7) 0.3539(6)
C15_2 C 0.1839(11) 0.7193(11) 0.2244(6)
H7_2 H 0.1383 0.6963 0.2070
N14_2 N 0.1104(7) 0.7952(7) 0.1177(4)
N15_2 N 0.3419(5) 0.6022(4) 0.4277(3)
C16_2 C 0.2193(11) 0.6839(11) 0.2756(6)
H8_2 H 0.1963 0.6383 0.2930
N16_2 N 0.2952(7) 0.6104(7) 0.3823(4)
C25_2 C 0.7845(10) 0.2155(10) 0.2018(7)
C26_2 C 0.7193(11) 0.1839(11) 0.2244(6)
H13_2 H 0.6963 0.1383 0.2070
N26_2 N 0.7952(7) 0.1104(7) 0.1177(4)
C27_2 C 0.8219(7) 0.1781(7) 0.1461(6)
C28_2 C 0.7155(10) 0.2845(10) 0.2982(7)
N27_2 N 0.6022(4) 0.3419(5) 0.4277(3)
C29_2 C 0.6839(11) 0.2193(11) 0.2756(6)
H14_2 H 0.6383 0.1963 0.2930
N28_2 N 0.6104(7) 0.2952(7) 0.3823(4)
C30_2 C 0.6781(7) 0.3219(7) 0.3539(6)
C31_2 C 0.8161(11) 0.2807(11) 0.2244(6)
H15_2 H 0.8617 0.3037 0.2070
N30_2 N 0.8896(7) 0.2048(7) 0.1177(4)
N31_2 N 0.6581(5) 0.3978(4) 0.4277(3)
C32_2 C 0.7807(11) 0.3161(11) 0.2756(6)
H16_2 H 0.8037 0.3617 0.2930
N32_2 N 0.7048(7) 0.3896(7) 0.3823(4)
C17_2 C 0.7845(10) 0.7845(10) 0.2018(7)
C18_2 C 0.8161(11) 0.7193(11) 0.2244(6)
H9_2 H 0.8617 0.6963 0.2070
N18_2 N 0.8896(7) 0.7952(7) 0.1177(4)
C19_2 C 0.8219(7) 0.8219(7) 0.1461(6)
C20_2 C 0.7155(10) 0.7155(10) 0.2982(7)
N19_2 N 0.6581(5) 0.6022(4) 0.4277(3)
C21_2 C 0.7807(11) 0.6839(11) 0.2756(6)
H10_2 H 0.8037 0.6383 0.2930
N20_2 N 0.7048(7) 0.6104(7) 0.3823(4)
C22_2 C 0.6781(7) 0.6781(7) 0.3539(6)
C23_2 C 0.7193(11) 0.8161(11) 0.2244(6)
H11_2 H 0.6963 0.8617 0.2070
N22_2 N 0.7952(7) 0.8896(7) 0.1177(4)
N23_2 N 0.6022(4) 0.6581(5) 0.4277(3)
C24_2 C 0.6839(11) 0.7807(11) 0.2756(6)
H12_2 H 0.6383 0.8037 0.2930
N24_2 N 0.6104(7) 0.7048(7) 0.3823(4)
Cl1_9 Cl 0.5000 0.5000 0.5000
O1_5 O 0.5000 0.1932(12) 0.5000
O2_5 O 0.8068(12) 0.5000 0.5000
O3_5 O 0.5000 0.8068(12) 0.5000
O4_5 O 0.1932(12) 0.5000 0.5000
loop_
_geom_bond_atom_site_label_1
_geom_bond_atom_site_label_2
_geom_bond_site_symmetry_1
_geom_bond_site_symmetry_2
Cl1 Cd2 1_555 1_555
O2 Cd2 1_555 1_555
Cd3 Cl1 1_555 1_555
O3 Cd3 1_555 1_555
N33 Cd3 1_555 1_555
N40 Cd2 1_555 1_555
N33 N40 1_555 1_555
Cl1_2 Cd2_2 1_555 1_555
O2_2 Cd2_2 1_555 1_555
C9 C10 1_555 1_555
N9 Cd2_2 1_555 1_555
C10 H5 1_555 1_555
N10 N9 1_555 1_555
C11 C9 1_555 1_555
C12 C13 1_555 1_555
N11 N12 1_555 1_555
C13 C10 1_555 1_555
H6 C13 1_555 1_555
N12 C14 1_555 1_555
C14 C12 1_555 1_555
N13 N9 1_555 1_555
C15 C9 1_555 1_555
H7 C15 1_555 1_555
N14 C11 1_555 1_555
N15 N11 1_555 1_555
C16 C12 1_555 1_555
H8 C16 1_555 1_555
N16 C14 1_555 1_555
Cd3_2 Cl1_2 1_555 1_555
O3_2 Cd3_2 1_555 1_555
Cd6 N11 1_555 1_555
Cd12 N15 1_555 1_555
N10 C11 1_555 1_555
N13 N14 1_555 1_555
N13 Cd3_2 1_555 1_555
C15 C16 1_555 1_555
N15 N16 1_555 1_555
Cd1 Cl1_3 1_555 1_555
Cl1_3 Cd2_3 1_555 1_555
O1 Cd1 1_555 1_555
O2_3 Cd2_3 1_555 1_555
N36 Cd2_3 1_555 1_555
N39 Cd1 1_555 1_555
N36 N39 1_555 1_555
Cd1_2 Cl1_4 1_555 1_555
Cl1_4 Cd2_4 1_555 1_555
O1_2 Cd1_2 1_555 1_555
C1 C2 1_555 1_555
N1 Cd1_2 1_555 1_555
C2 H1 1_555 1_555
N2 N1 1_555 1_555
C3 C1 1_555 1_555
C4 C5 1_555 1_555
N3 N4 1_555 1_555
C5 C2 1_555 1_555
H2 C5 1_555 1_555
N4 C6 1_555 1_555
C6 C4 1_555 1_555
N5 N1 1_555 1_555
C7 C1 1_555 1_555
H3 C7 1_555 1_555
N6 C3 1_555 1_555
N7 N3 1_555 1_555
C8 C4 1_555 1_555
H4 C8 1_555 1_555
N8 C6 1_555 1_555
Cd2_4 N5 1_555 1_555
O2_4 Cd2_4 1_555 1_555
Cd10 N7 1_555 1_555
Cd12 N3 1_555 1_555
N2 C3 1_555 1_555
N5 N6 1_555 1_555
C7 C8 1_555 1_555
N7 N8 1_555 1_555
Cd3_3 Cl1_5 1_555 1_555
O3_3 Cd3_3 1_555 1_555
Cd4 Cl1_5 1_555 1_555
O4 Cd4 1_555 1_555
N34 Cd4 1_555 1_555
N37 Cd3_3 1_555 1_555
N34 N37 1_555 1_555
Cd3_4 Cl1_6 1_555 1_555
O3_4 Cd3_4 1_555 1_555
C17 C18 1_555 1_555
N17 Cd3_4 1_555 1_555
C18 H9 1_555 1_555
N18 N17 1_555 1_555
C19 C17 1_555 1_555
C20 C21 1_555 1_555
N19 N20 1_555 1_555
C21 C18 1_555 1_555
H10 C21 1_555 1_555
N20 C22 1_555 1_555
C22 C20 1_555 1_555
N21 N17 1_555 1_555
C23 C17 1_555 1_555
H11 C23 1_555 1_555
N22 C19 1_555 1_555
N23 N19 1_555 1_555
C24 C20 1_555 1_555
H12 C24 1_555 1_555
N24 C22 1_555 1_555
Cd4_2 Cl1_6 1_555 1_555
O4_2 Cd4_2 1_555 1_555
Cd6 N23 1_555 1_555
Cd8 N19 1_555 1_555
N18 C19 1_555 1_555
N21 N22 1_555 1_555
N21 Cd4_2 1_555 1_555
C23 C24 1_555 1_555
N23 N24 1_555 1_555
Cd1_3 Cl1_7 1_555 1_555
O1_3 Cd1_3 1_555 1_555
Cd4_3 Cl1_7 1_555 1_555
O4_3 Cd4_3 1_555 1_555
N35 Cd1_3 1_555 1_555
N38 Cd4_3 1_555 1_555
N35 N38 1_555 1_555
Cd1_4 Cl1_8 1_555 1_555
O1_4 Cd1_4 1_555 1_555
Cd4_4 Cl1_8 1_555 1_555
O4_4 Cd4_4 1_555 1_555
C25 C26 1_555 1_555
N25 Cd4_4 1_555 1_555
C26 H13 1_555 1_555
N26 N25 1_555 1_555
C27 C25 1_555 1_555
C28 C29 1_555 1_555
N27 N28 1_555 1_555
C29 C26 1_555 1_555
H14 C29 1_555 1_555
N28 C30 1_555 1_555
C30 C28 1_555 1_555
N29 Cd1_4 1_555 1_555
C31 C25 1_555 1_555
H15 C31 1_555 1_555
N30 C27 1_555 1_555
N31 N27 1_555 1_555
C32 C28 1_555 1_555
H16 C32 1_555 1_555
N32 C30 1_555 1_555
Cd8 N31 1_555 1_555
Cd10 N27 1_555 1_555
N25 N29 1_555 1_555
N26 C27 1_555 1_555
N29 N30 1_555 1_555
C31 C32 1_555 1_555
N31 N32 1_555 1_555
C1_2 C2_2 1_555 1_555
C2_2 H1_2 1_555 1_555
N2_2 N33 1_555 1_555
C3_2 C1_2 1_555 1_555
C4_2 C5_2 1_555 1_555
N3_2 N4_2 1_555 1_555
C5_2 C2_2 1_555 1_555
H2_2 C5_2 1_555 1_555
N4_2 C6_2 1_555 1_555
C6_2 C4_2 1_555 1_555
C7_2 C1_2 1_555 1_555
H3_2 C7_2 1_555 1_555
N6_2 C3_2 1_555 1_555
N7_2 N3_2 1_555 1_555
C8_2 C4_2 1_555 1_555
H4_2 C8_2 1_555 1_555
N8_2 C6_2 1_555 1_555
Cd6 N7_2 1_555 1_555
Cd12 N3_2 1_555 1_555
N2_2 C3_2 1_555 1_555
N40 N6_2 1_555 1_555
C7_2 C8_2 1_555 1_555
N7_2 N8_2 1_555 1_555
C9_2 C10_2 1_555 1_555
C10_2 H5_2 1_555 1_555
N10_2 N36 1_555 1_555
C11_2 C9_2 1_555 1_555
C12_2 C13_2 1_555 1_555
N11_2 N12_2 1_555 1_555
C13_2 C10_2 1_555 1_555
H6_2 C13_2 1_555 1_555
N12_2 C14_2 1_555 1_555
C14_2 C12_2 1_555 1_555
C15_2 C9_2 1_555 1_555
H7_2 C15_2 1_555 1_555
N14_2 C11_2 1_555 1_555
N15_2 N11_2 1_555 1_555
C16_2 C12_2 1_555 1_555
H8_2 C16_2 1_555 1_555
N16_2 C14_2 1_555 1_555
Cd10 N11_2 1_555 1_555
Cd12 N15_2 1_555 1_555
N10_2 C11_2 1_555 1_555
N39 N14_2 1_555 1_555
C15_2 C16_2 1_555 1_555
N15_2 N16_2 1_555 1_555
C25_2 C26_2 1_555 1_555
C26_2 H13_2 1_555 1_555
N26_2 N34 1_555 1_555
C27_2 C25_2 1_555 1_555
C28_2 C29_2 1_555 1_555
N27_2 N28_2 1_555 1_555
C29_2 C26_2 1_555 1_555
H14_2 C29_2 1_555 1_555
N28_2 C30_2 1_555 1_555
C30_2 C28_2 1_555 1_555
C31_2 C25_2 1_555 1_555
H15_2 C31_2 1_555 1_555
N30_2 C27_2 1_555 1_555
N31_2 N27_2 1_555 1_555
C32_2 C28_2 1_555 1_555
H16_2 C32_2 1_555 1_555
N32_2 C30_2 1_555 1_555
Cd8 N31_2 1_555 1_555
Cd6 N27_2 1_555 1_555
N26_2 C27_2 1_555 1_555
N37 N30_2 1_555 1_555
C31_2 C32_2 1_555 1_555
N31_2 N32_2 1_555 1_555
C17_2 C18_2 1_555 1_555
C18_2 H9_2 1_555 1_555
N18_2 N35 1_555 1_555
C19_2 C17_2 1_555 1_555
C20_2 C21_2 1_555 1_555
N19_2 N20_2 1_555 1_555
C21_2 C18_2 1_555 1_555
H10_2 C21_2 1_555 1_555
N20_2 C22_2 1_555 1_555
C22_2 C20_2 1_555 1_555
C23_2 C17_2 1_555 1_555
H11_2 C23_2 1_555 1_555
N22_2 C19_2 1_555 1_555
N23_2 N19_2 1_555 1_555
C24_2 C20_2 1_555 1_555
H12_2 C24_2 1_555 1_555
N24_2 C22_2 1_555 1_555
Cd10 N23_2 1_555 1_555
Cd8 N19_2 1_555 1_555
N18_2 C19_2 1_555 1_555
N38 N22_2 1_555 1_555
C23_2 C24_2 1_555 1_555
N23_2 N24_2 1_555 1_555
Cd6 Cl1_9 1_555 1_555
Cl1_9 Cd8 1_555 1_555
O1_5 Cd6 1_555 1_555
O2_5 Cd8 1_555 1_555
Cd10 Cl1_9 1_555 1_555
O3_5 Cd10 1_555 1_555
Cd12 Cl1_9 1_555 1_555
O4_5 Cd12 1_555 1_555

#END
