
###############################################################################
#
# This file contains modified crystal structure data generated from the
# MOF subset of the Cambridge Structural Database (CSD) v543 
# hosted by the Cambridge Crystallographic Data Centre (CCDC).
#
# This work is licensed under the Creative Commons
# Attribution-NonCommercial-ShareAlike 4.0 International License.
# To view a copy of this license, visit
# http://creativecommons.org/licenses/by-nc-sa/4.0/
# or send a letter to
# Creative Commons, PO Box 1866, Mountain View, CA 94042, USA.
#
# CIF created using the CSD Python API on 29 September 2022
# The structure has been converted into the P1 space group
# The structure has a 3D framework
# The original CSD entry JUTZEG is in the tetragonal crystal system
# The framework has been calculated to contain at least 10.0% void space
# The void calculation uses a probe of radius 1.32A, grid spacing 0.4
# The framework is charged, counterions have been retained in the structure
# H atom positions have been added when not included in the experimental data
# Generated hydrogen atom positions removed from atoms on special positions
#
###############################################################################

data_JUTZEG
_chemical_formula_moiety         '(C200 H200 Cu20 N16 O44 7-)n'
_symmetry_cell_setting           triclinic
_symmetry_space_group_name_H-M   'P 1'
_symmetry_Int_Tables_number      1
_space_group_name_Hall           'P 1'
loop_
_symmetry_equiv_pos_site_id
_symmetry_equiv_pos_as_xyz
1 x,y,z
_cell_length_a                   22.54760(10)
_cell_length_b                   22.54760(10)
_cell_length_c                   27.7742(4)
_cell_angle_alpha                90
_cell_angle_beta                 90
_cell_angle_gamma                90
_cell_volume                     14120.2
loop_
_atom_site_label
_atom_site_type_symbol
_atom_site_fract_x
_atom_site_fract_y
_atom_site_fract_z
Cu1 Cu 0.25840(3) 0.5000 0.0000
Cu2 Cu 0.14114(3) 0.5000 0.0000
Cu3 Cu -0.0000 -0.0000 0.2500
O1 O 0.24988(8) 0.43906(8) 0.04967(6)
O2 O 0.15063(7) 0.43893(7) 0.04974(6)
O3 O 0.35401(17) 0.5000 0.0000
O4 O 0.0420(2) 0.5000 0.0000
N1 N 0.08857(12) -0.0000 0.24921(10)
C1 C 0.18569(12) 0.02989(12) 0.23977(11)
H1 H 0.2186 0.0544 0.2361
C2 C 0.12557(11) 0.04870(11) 0.24649(9)
C3 C 0.10761(11) 0.10761(11) 0.2500
C4 C 0.15519(10) 0.15519(10) 0.2500
C5 C 0.15645(11) 0.19754(11) 0.21421(10)
H2 H 0.1279 0.1967 0.1900
C6 C 0.19985(11) 0.24153(11) 0.21379(10)
C7 C 0.24183(11) 0.24183(11) 0.2500
H3 H 0.2710 0.2710 0.2500
C8 C 0.20045(12) 0.28749(12) 0.17497(9)
C9 C 0.25268(12) 0.31055(13) 0.15711(11)
H4 H 0.2886 0.2972 0.1694
C10 C 0.25264(12) 0.35263(13) 0.12161(10)
H5 H 0.2886 0.3668 0.1099
C11 C 0.20038(11) 0.37448(11) 0.10293(9)
C12 C 0.14802(12) 0.35215(12) 0.12069(9)
H6 H 0.1122 0.3663 0.1088
C13 C 0.14784(12) 0.30912(12) 0.15590(10)
H7 H 0.1119 0.2943 0.1671
C14 C 0.19999(12) 0.42073(11) 0.06450(8)
O5 O 0.43906(8) 0.24988(8) 0.45033(6)
O6 O 0.43893(7) 0.15063(7) 0.45026(6)
N2 N -0.0000 0.08857(12) 0.25079(10)
C15 C 0.02989(12) 0.18569(12) 0.26023(11)
H8 H 0.0544 0.2186 0.2639
C16 C 0.04870(11) 0.12557(11) 0.25351(9)
C17 C 0.19754(11) 0.15645(11) 0.28579(10)
H9 H 0.1967 0.1279 0.3100
C18 C 0.24153(11) 0.19985(11) 0.28621(10)
C19 C 0.28749(12) 0.20045(12) 0.32503(9)
C20 C 0.31055(13) 0.25268(12) 0.34289(11)
H10 H 0.2972 0.2886 0.3306
C21 C 0.35263(13) 0.25264(12) 0.37839(10)
H11 H 0.3668 0.2886 0.3901
C22 C 0.37448(11) 0.20038(11) 0.39707(9)
C23 C 0.35215(12) 0.14802(12) 0.37931(9)
H12 H 0.3663 0.1122 0.3912
C24 C 0.30912(12) 0.14784(12) 0.34410(10)
H13 H 0.2943 0.1119 0.3329
C25 C 0.42073(11) 0.19999(12) 0.43550(8)
Cu9 Cu 0.5000 0.25840(3) 0.5000
Cu15 Cu 0.5000 0.14114(3) 0.5000
O26 O 0.24988(8) 0.56094(8) 0.04967(6)
O32 O 0.15063(7) 0.56107(7) 0.04974(6)
Cu1_2 Cu 0.25840(3) 0.5000 1.0000
Cu2_2 Cu 0.14114(3) 0.5000 1.0000
O3_2 O 0.35401(17) 0.5000 1.0000
O4_2 O 0.0420(2) 0.5000 1.0000
O23 O 0.24988(8) 0.56094(8) 0.95033(6)
O25 O 0.24988(8) 0.43906(8) 0.95033(6)
O29 O 0.15063(7) 0.56107(7) 0.95026(6)
O31 O 0.15063(7) 0.43893(7) 0.95026(6)
Cu3_2 Cu -0.0000 1.0000 0.2500
N1_2 N 0.08857(12) 1.0000 0.24921(10)
C26 C 0.18569(12) 0.97011(12) 0.23977(11)
H14 H 0.2186 0.9456 0.2361
C27 C 0.12557(11) 0.95130(11) 0.24649(9)
C28 C 0.10761(11) 0.89239(11) 0.2500
C29 C 0.15519(10) 0.84481(10) 0.2500
C30 C 0.15645(11) 0.80246(11) 0.21421(10)
H15 H 0.1279 0.8033 0.1900
C31 C 0.19985(11) 0.75847(11) 0.21379(10)
C32 C 0.24183(11) 0.75817(11) 0.2500
H16 H 0.2710 0.7290 0.2500
C33 C 0.20045(12) 0.71251(12) 0.17497(9)
C34 C 0.25268(12) 0.68945(13) 0.15711(11)
H17 H 0.2886 0.7028 0.1694
C35 C 0.25264(12) 0.64737(13) 0.12161(10)
H18 H 0.2886 0.6332 0.1099
C36 C 0.20038(11) 0.62552(11) 0.10293(9)
C37 C 0.14802(12) 0.64785(12) 0.12069(9)
H19 H 0.1122 0.6337 0.1088
C38 C 0.14784(12) 0.69088(12) 0.15590(10)
H20 H 0.1119 0.7057 0.1671
C39 C 0.19999(12) 0.57927(11) 0.06450(8)
O9 O 0.43906(8) 0.75012(8) 0.45033(6)
O10 O 0.43893(7) 0.84937(7) 0.45026(6)
N3 N -0.0000 0.91143(12) 0.25079(10)
C40 C 0.02989(12) 0.81431(12) 0.26023(11)
H21 H 0.0544 0.7814 0.2639
C41 C 0.04870(11) 0.87443(11) 0.25351(9)
C42 C 0.19754(11) 0.84355(11) 0.28579(10)
H22 H 0.1967 0.8721 0.3100
C43 C 0.24153(11) 0.80015(11) 0.28621(10)
C44 C 0.28749(12) 0.79955(12) 0.32503(9)
C45 C 0.31055(13) 0.74732(12) 0.34289(11)
H23 H 0.2972 0.7114 0.3306
C46 C 0.35263(13) 0.74736(12) 0.37839(10)
H24 H 0.3668 0.7114 0.3901
C47 C 0.37448(11) 0.79962(11) 0.39707(9)
C48 C 0.35215(12) 0.85198(12) 0.37931(9)
H25 H 0.3663 0.8878 0.3912
C49 C 0.30912(12) 0.85216(12) 0.34410(10)
H26 H 0.2943 0.8881 0.3329
C50 C 0.42073(11) 0.80001(12) 0.43550(8)
Cu11 Cu 0.5000 0.74160(3) 0.5000
Cu17 Cu 0.5000 0.85886(3) 0.5000
Cu3_3 Cu 1.0000 -0.0000 0.2500
N2_2 N 1.0000 0.08857(12) 0.25079(10)
O11 O 0.56094(8) 0.24988(8) 0.45033(6)
O12 O 0.56107(7) 0.15063(7) 0.45026(6)
C51 C 0.97011(12) 0.18569(12) 0.26023(11)
H27 H 0.9456 0.2186 0.2639
C52 C 0.95130(11) 0.12557(11) 0.25351(9)
C53 C 0.89239(11) 0.10761(11) 0.2500
C54 C 0.84481(10) 0.15519(10) 0.2500
C55 C 0.80246(11) 0.15645(11) 0.28579(10)
H28 H 0.8033 0.1279 0.3100
C56 C 0.75847(11) 0.19985(11) 0.28621(10)
C57 C 0.75817(11) 0.24183(11) 0.2500
H29 H 0.7290 0.2710 0.2500
C58 C 0.71251(12) 0.20045(12) 0.32503(9)
C59 C 0.68945(13) 0.25268(12) 0.34289(11)
H30 H 0.7028 0.2886 0.3306
C60 C 0.64737(13) 0.25264(12) 0.37839(10)
H31 H 0.6332 0.2886 0.3901
C61 C 0.62552(11) 0.20038(11) 0.39707(9)
C62 C 0.64785(12) 0.14802(12) 0.37931(9)
H32 H 0.6337 0.1122 0.3912
C63 C 0.69088(12) 0.14784(12) 0.34410(10)
H33 H 0.7057 0.1119 0.3329
C64 C 0.57927(11) 0.19999(12) 0.43550(8)
O15 O 0.75012(8) 0.43906(8) 0.04967(6)
O16 O 0.84937(7) 0.43893(7) 0.04974(6)
N4 N 0.91143(12) -0.0000 0.24921(10)
C79 C 0.81431(12) 0.02989(12) 0.23977(11)
H41 H 0.7814 0.0544 0.2361
C80 C 0.87443(11) 0.04870(11) 0.24649(9)
C81 C 0.84355(11) 0.19754(11) 0.21421(10)
H42 H 0.8721 0.1967 0.1900
C82 C 0.80015(11) 0.24153(11) 0.21379(10)
C83 C 0.79955(12) 0.28749(12) 0.17497(9)
C84 C 0.74732(12) 0.31055(13) 0.15711(11)
H43 H 0.7114 0.2972 0.1694
C85 C 0.74736(12) 0.35263(13) 0.12161(10)
H44 H 0.7114 0.3668 0.1099
C86 C 0.79962(11) 0.37448(11) 0.10293(9)
C87 C 0.85198(12) 0.35215(12) 0.12069(9)
H45 H 0.8878 0.3663 0.1088
C88 C 0.85216(12) 0.30912(12) 0.15590(10)
H46 H 0.8881 0.2943 0.1671
C89 C 0.80001(12) 0.42073(11) 0.06450(8)
Cu4 Cu 0.74160(3) 0.5000 0.0000
Cu5 Cu 0.85886(3) 0.5000 0.0000
O19 O 0.64599(17) 0.5000 0.0000
O20 O 0.9580(2) 0.5000 0.0000
O21 O 0.75012(8) 0.56094(8) 0.04967(6)
O27 O 0.84937(7) 0.56107(7) 0.04974(6)
Cu4_2 Cu 0.74160(3) 0.5000 1.0000
Cu5_2 Cu 0.85886(3) 0.5000 1.0000
O19_2 O 0.64599(17) 0.5000 1.0000
O20_2 O 0.9580(2) 0.5000 1.0000
O22 O 0.75012(8) 0.43906(8) 0.95033(6)
O24 O 0.75012(8) 0.56094(8) 0.95033(6)
O28 O 0.84937(7) 0.43893(7) 0.95026(6)
O30 O 0.84937(7) 0.56107(7) 0.95026(6)
Cu3_4 Cu 1.0000 1.0000 0.2500
N3_2 N 1.0000 0.91143(12) 0.25079(10)
O13 O 0.56094(8) 0.75012(8) 0.45033(6)
O14 O 0.56107(7) 0.84937(7) 0.45026(6)
C65 C 0.97011(12) 0.81431(12) 0.26023(11)
H34 H 0.9456 0.7814 0.2639
C66 C 0.95130(11) 0.87443(11) 0.25351(9)
C67 C 0.89239(11) 0.89239(11) 0.2500
C68 C 0.84481(10) 0.84481(10) 0.2500
C69 C 0.80246(11) 0.84355(11) 0.28579(10)
H35 H 0.8033 0.8721 0.3100
C70 C 0.75847(11) 0.80015(11) 0.28621(10)
C71 C 0.75817(11) 0.75817(11) 0.2500
H36 H 0.7290 0.7290 0.2500
C72 C 0.71251(12) 0.79955(12) 0.32503(9)
C73 C 0.68945(13) 0.74732(12) 0.34289(11)
H37 H 0.7028 0.7114 0.3306
C74 C 0.64737(13) 0.74736(12) 0.37839(10)
H38 H 0.6332 0.7114 0.3901
C75 C 0.62552(11) 0.79962(11) 0.39707(9)
C76 C 0.64785(12) 0.85198(12) 0.37931(9)
H39 H 0.6337 0.8878 0.3912
C77 C 0.69088(12) 0.85216(12) 0.34410(10)
H40 H 0.7057 0.8881 0.3329
C78 C 0.57927(11) 0.80001(12) 0.43550(8)
N4_2 N 0.91143(12) 1.0000 0.24921(10)
C90 C 0.81431(12) 0.97011(12) 0.23977(11)
H47 H 0.7814 0.9456 0.2361
C91 C 0.87443(11) 0.95130(11) 0.24649(9)
C92 C 0.84355(11) 0.80246(11) 0.21421(10)
H48 H 0.8721 0.8033 0.1900
C93 C 0.80015(11) 0.75847(11) 0.21379(10)
C94 C 0.79955(12) 0.71251(12) 0.17497(9)
C95 C 0.74732(12) 0.68945(13) 0.15711(11)
H49 H 0.7114 0.7028 0.1694
C96 C 0.74736(12) 0.64737(13) 0.12161(10)
H50 H 0.7114 0.6332 0.1099
C97 C 0.79962(11) 0.62552(11) 0.10293(9)
C98 C 0.85198(12) 0.64785(12) 0.12069(9)
H51 H 0.8878 0.6337 0.1088
C99 C 0.85216(12) 0.69088(12) 0.15590(10)
H52 H 0.8881 0.7057 0.1671
C100 C 0.80001(12) 0.57927(11) 0.06450(8)
Cu3_5 Cu 0.0000 0.0000 0.7500
N1_3 N -0.0000 0.08857(12) 0.74921(10)
O7 O 0.43906(8) 0.24988(8) 0.54967(6)
O8 O 0.43893(7) 0.15063(7) 0.54974(6)
C26_2 C 0.02989(12) 0.18569(12) 0.73977(11)
H14_2 H 0.0544 0.2186 0.7361
C27_2 C 0.04870(11) 0.12557(11) 0.74649(9)
C28_2 C 0.10761(11) 0.10761(11) 0.7500
C29_2 C 0.15519(10) 0.15519(10) 0.7500
C30_2 C 0.19754(11) 0.15645(11) 0.71421(10)
H15_2 H 0.1967 0.1279 0.6900
C31_2 C 0.24153(11) 0.19985(11) 0.71379(10)
C32_2 C 0.24183(11) 0.24183(11) 0.7500
H16_2 H 0.2710 0.2710 0.7500
C33_2 C 0.28749(12) 0.20045(12) 0.67497(9)
C34_2 C 0.31055(13) 0.25268(12) 0.65711(11)
H17_2 H 0.2972 0.2886 0.6694
C35_2 C 0.35263(13) 0.25264(12) 0.62161(10)
H18_2 H 0.3668 0.2886 0.6099
C36_2 C 0.37448(11) 0.20038(11) 0.60293(9)
C37_2 C 0.35215(12) 0.14802(12) 0.62069(9)
H19_2 H 0.3663 0.1122 0.6088
C38_2 C 0.30912(12) 0.14784(12) 0.65590(10)
H20_2 H 0.2943 0.1119 0.6671
C39_2 C 0.42073(11) 0.19999(12) 0.56450(8)
N3_3 N 0.08857(12) -0.0000 0.75079(10)
C40_2 C 0.18569(12) 0.02989(12) 0.76023(11)
H21_2 H 0.2186 0.0544 0.7639
C41_2 C 0.12557(11) 0.04870(11) 0.75351(9)
C42_2 C 0.15645(11) 0.19754(11) 0.78579(10)
H22_2 H 0.1279 0.1967 0.8100
C43_2 C 0.19985(11) 0.24153(11) 0.78621(10)
C44_2 C 0.20045(12) 0.28749(12) 0.82503(9)
C45_2 C 0.25268(12) 0.31055(13) 0.84289(11)
H23_2 H 0.2886 0.2972 0.8306
C46_2 C 0.25264(12) 0.35263(13) 0.87839(10)
H24_2 H 0.2886 0.3668 0.8901
C47_2 C 0.20038(11) 0.37448(11) 0.89707(9)
C48_2 C 0.14802(12) 0.35215(12) 0.87931(9)
H25_2 H 0.1122 0.3663 0.8912
C49_2 C 0.14784(12) 0.30912(12) 0.84410(10)
H26_2 H 0.1119 0.2943 0.8329
C50_2 C 0.19999(12) 0.42073(11) 0.93550(8)
Cu3_6 Cu -0.0000 1.0000 0.7500
N3_4 N 0.08857(12) 1.0000 0.75079(10)
C65_2 C 0.18569(12) 0.97011(12) 0.76023(11)
H34_2 H 0.2186 0.9456 0.7639
C66_2 C 0.12557(11) 0.95130(11) 0.75351(9)
C67_2 C 0.10761(11) 0.89239(11) 0.7500
C68_2 C 0.15519(10) 0.84481(10) 0.7500
C69_2 C 0.15645(11) 0.80246(11) 0.78579(10)
H35_2 H 0.1279 0.8033 0.8100
C70_2 C 0.19985(11) 0.75847(11) 0.78621(10)
C71_2 C 0.24183(11) 0.75817(11) 0.7500
H36_2 H 0.2710 0.7290 0.7500
C72_2 C 0.20045(12) 0.71251(12) 0.82503(9)
C73_2 C 0.25268(12) 0.68945(13) 0.84289(11)
H37_2 H 0.2886 0.7028 0.8306
C74_2 C 0.25264(12) 0.64737(13) 0.87839(10)
H38_2 H 0.2886 0.6332 0.8901
C75_2 C 0.20038(11) 0.62552(11) 0.89707(9)
C76_2 C 0.14802(12) 0.64785(12) 0.87931(9)
H39_2 H 0.1122 0.6337 0.8912
C77_2 C 0.14784(12) 0.69088(12) 0.84410(10)
H40_2 H 0.1119 0.7057 0.8329
C78_2 C 0.19999(12) 0.57927(11) 0.93550(8)
N4_3 N 0.0000 0.91143(12) 0.74921(10)
O17 O 0.43906(8) 0.75012(8) 0.54967(6)
O18 O 0.43893(7) 0.84937(7) 0.54974(6)
C90_2 C 0.02989(12) 0.81431(12) 0.73977(11)
H47_2 H 0.0544 0.7814 0.7361
C91_2 C 0.04870(11) 0.87443(11) 0.74649(9)
C92_2 C 0.19754(11) 0.84355(11) 0.71421(10)
H48_2 H 0.1967 0.8721 0.6900
C93_2 C 0.24153(11) 0.80015(11) 0.71379(10)
C94_2 C 0.28749(12) 0.79955(12) 0.67497(9)
C95_2 C 0.31055(13) 0.74732(12) 0.65711(11)
H49_2 H 0.2972 0.7114 0.6694
C96_2 C 0.35263(13) 0.74736(12) 0.62161(10)
H50_2 H 0.3668 0.7114 0.6099
C97_2 C 0.37448(11) 0.79962(11) 0.60293(9)
C98_2 C 0.35215(12) 0.85198(12) 0.62069(9)
H51_2 H 0.3663 0.8878 0.6088
C99_2 C 0.30912(12) 0.85216(12) 0.65590(10)
H52_2 H 0.2943 0.8881 0.6671
C100_2 C 0.42073(11) 0.80001(12) 0.56450(8)
Cu3_7 Cu 1.0000 0.0000 0.7500
O1_2 O 0.56094(8) 0.24988(8) 0.54967(6)
O2_2 O 0.56107(7) 0.15063(7) 0.54974(6)
O3_3 O 0.5000 0.35401(17) 0.5000
O4_3 O 0.5000 0.0420(2) 0.5000
N1_4 N 1.0000 0.08857(12) 0.74921(10)
C1_2 C 0.97011(12) 0.18569(12) 0.73977(11)
H1_2 H 0.9456 0.2186 0.7361
C2_2 C 0.95130(11) 0.12557(11) 0.74649(9)
C3_2 C 0.89239(11) 0.10761(11) 0.7500
C4_2 C 0.84481(10) 0.15519(10) 0.7500
C5_2 C 0.80246(11) 0.15645(11) 0.71421(10)
H2_2 H 0.8033 0.1279 0.6900
C6_2 C 0.75847(11) 0.19985(11) 0.71379(10)
C7_2 C 0.75817(11) 0.24183(11) 0.7500
H3_2 H 0.7290 0.2710 0.7500
C8_2 C 0.71251(12) 0.20045(12) 0.67497(9)
C9_2 C 0.68945(13) 0.25268(12) 0.65711(11)
H4_2 H 0.7028 0.2886 0.6694
C10_2 C 0.64737(13) 0.25264(12) 0.62161(10)
H5_2 H 0.6332 0.2886 0.6099
C11_2 C 0.62552(11) 0.20038(11) 0.60293(9)
C12_2 C 0.64785(12) 0.14802(12) 0.62069(9)
H6_2 H 0.6337 0.1122 0.6088
C13_2 C 0.69088(12) 0.14784(12) 0.65590(10)
H7_2 H 0.7057 0.1119 0.6671
C14_2 C 0.57927(11) 0.19999(12) 0.56450(8)
N2_3 N 0.91143(12) -0.0000 0.75079(10)
C15_2 C 0.81431(12) 0.02989(12) 0.76023(11)
H8_2 H 0.7814 0.0544 0.7639
C16_2 C 0.87443(11) 0.04870(11) 0.75351(9)
C17_2 C 0.84355(11) 0.19754(11) 0.78579(10)
H9_2 H 0.8721 0.1967 0.8100
C18_2 C 0.80015(11) 0.24153(11) 0.78621(10)
C19_2 C 0.79955(12) 0.28749(12) 0.82503(9)
C20_2 C 0.74732(12) 0.31055(13) 0.84289(11)
H10_2 H 0.7114 0.2972 0.8306
C21_2 C 0.74736(12) 0.35263(13) 0.87839(10)
H11_2 H 0.7114 0.3668 0.8901
C22_2 C 0.79962(11) 0.37448(11) 0.89707(9)
C23_2 C 0.85198(12) 0.35215(12) 0.87931(9)
H12_2 H 0.8878 0.3663 0.8912
C24_2 C 0.85216(12) 0.30912(12) 0.84410(10)
H13_2 H 0.8881 0.2943 0.8329
C25_2 C 0.80001(12) 0.42073(11) 0.93550(8)
Cu3_8 Cu 1.0000 1.0000 0.7500
N2_4 N 0.91143(12) 1.0000 0.75079(10)
C51_2 C 0.81431(12) 0.97011(12) 0.76023(11)
H27_2 H 0.7814 0.9456 0.7639
C52_2 C 0.87443(11) 0.95130(11) 0.75351(9)
C53_2 C 0.89239(11) 0.89239(11) 0.7500
C54_2 C 0.84481(10) 0.84481(10) 0.7500
C55_2 C 0.84355(11) 0.80246(11) 0.78579(10)
H28_2 H 0.8721 0.8033 0.8100
C56_2 C 0.80015(11) 0.75847(11) 0.78621(10)
C57_2 C 0.75817(11) 0.75817(11) 0.7500
H29_2 H 0.7290 0.7290 0.7500
C58_2 C 0.79955(12) 0.71251(12) 0.82503(9)
C59_2 C 0.74732(12) 0.68945(13) 0.84289(11)
H30_2 H 0.7114 0.7028 0.8306
C60_2 C 0.74736(12) 0.64737(13) 0.87839(10)
H31_2 H 0.7114 0.6332 0.8901
C61_2 C 0.79962(11) 0.62552(11) 0.89707(9)
C62_2 C 0.85198(12) 0.64785(12) 0.87931(9)
H32_2 H 0.8878 0.6337 0.8912
C63_2 C 0.85216(12) 0.69088(12) 0.84410(10)
H33_2 H 0.8881 0.7057 0.8329
C64_2 C 0.80001(12) 0.57927(11) 0.93550(8)
O15_2 O 0.56094(8) 0.75012(8) 0.54967(6)
O16_2 O 0.56107(7) 0.84937(7) 0.54974(6)
N4_4 N 1.0000 0.91143(12) 0.74921(10)
C79_2 C 0.97011(12) 0.81431(12) 0.73977(11)
H41_2 H 0.9456 0.7814 0.7361
C80_2 C 0.95130(11) 0.87443(11) 0.74649(9)
C81_2 C 0.80246(11) 0.84355(11) 0.71421(10)
H42_2 H 0.8033 0.8721 0.6900
C82_2 C 0.75847(11) 0.80015(11) 0.71379(10)
C83_2 C 0.71251(12) 0.79955(12) 0.67497(9)
C84_2 C 0.68945(13) 0.74732(12) 0.65711(11)
H43_2 H 0.7028 0.7114 0.6694
C85_2 C 0.64737(13) 0.74736(12) 0.62161(10)
H44_2 H 0.6332 0.7114 0.6099
C86_2 C 0.62552(11) 0.79962(11) 0.60293(9)
C87_2 C 0.64785(12) 0.85198(12) 0.62069(9)
H45_2 H 0.6337 0.8878 0.6088
C88_2 C 0.69088(12) 0.85216(12) 0.65590(10)
H46_2 H 0.7057 0.8881 0.6671
C89_2 C 0.57927(11) 0.80001(12) 0.56450(8)
O19_3 O 0.5000 0.64599(17) 0.5000
O20_3 O 0.5000 0.9580(2) 0.5000
loop_
_geom_bond_atom_site_label_1
_geom_bond_atom_site_label_2
_geom_bond_site_symmetry_1
_geom_bond_site_symmetry_2
Cu1 Cu2 1_555 1_555
Cu2 O2 1_555 1_555
Cu3 N1 1_555 1_555
O1 Cu1 1_555 1_555
O2 C14 1_555 1_555
O3 Cu1 1_555 1_555
O4 Cu2 1_555 1_555
N1 C2 1_555 1_555
C1 H1 1_555 1_555
C2 C1 1_555 1_555
C3 C2 1_555 1_555
C4 C3 1_555 1_555
C5 C4 1_555 1_555
H2 C5 1_555 1_555
C6 C5 1_555 1_555
C7 C6 1_555 1_555
H3 C7 1_555 1_555
C8 C6 1_555 1_555
C9 C8 1_555 1_555
H4 C9 1_555 1_555
C10 C9 1_555 1_555
H5 C10 1_555 1_555
C11 C10 1_555 1_555
C12 C11 1_555 1_555
H6 C12 1_555 1_555
C13 C8 1_555 1_555
H7 C13 1_555 1_555
C14 O1 1_555 1_555
O5 C25 1_555 1_555
O6 C25 1_555 1_555
N2 Cu3 1_555 1_555
C15 H8 1_555 1_555
C16 C3 1_555 1_555
C17 C4 1_555 1_555
H9 C17 1_555 1_555
C18 C7 1_555 1_555
C19 C18 1_555 1_555
C20 C19 1_555 1_555
H10 C20 1_555 1_555
C21 C20 1_555 1_555
H11 C21 1_555 1_555
C22 C21 1_555 1_555
C23 C22 1_555 1_555
H12 C23 1_555 1_555
C24 C19 1_555 1_555
H13 C24 1_555 1_555
C25 C22 1_555 1_555
Cu9 O5 1_555 1_555
Cu15 O6 1_555 1_555
O26 Cu1 1_555 1_555
O32 Cu2 1_555 1_555
C11 C14 1_555 1_555
C12 C13 1_555 1_555
N2 C16 1_555 1_555
C15 C16 1_555 1_555
C17 C18 1_555 1_555
C23 C24 1_555 1_555
Cu9 Cu15 1_555 1_555
Cu1_2 Cu2_2 1_555 1_555
O3_2 Cu1_2 1_555 1_555
O4_2 Cu2_2 1_555 1_555
O23 Cu1_2 1_555 1_555
O25 Cu1_2 1_555 1_555
O29 Cu2_2 1_555 1_555
O31 Cu2_2 1_555 1_555
Cu3_2 N1_2 1_555 1_555
O26 C39 1_555 1_555
O32 C39 1_555 1_555
H14 C26 1_555 1_555
C27 N1_2 1_555 1_555
C28 C27 1_555 1_555
C29 C28 1_555 1_555
C30 C29 1_555 1_555
H15 C30 1_555 1_555
C31 C30 1_555 1_555
C32 C31 1_555 1_555
H16 C32 1_555 1_555
C33 C31 1_555 1_555
C34 C33 1_555 1_555
H17 C34 1_555 1_555
C35 C34 1_555 1_555
H18 C35 1_555 1_555
C36 C35 1_555 1_555
C37 C36 1_555 1_555
H19 C37 1_555 1_555
C38 C33 1_555 1_555
H20 C38 1_555 1_555
C39 C36 1_555 1_555
O9 C50 1_555 1_555
O10 C50 1_555 1_555
N3 Cu3_2 1_555 1_555
C40 H21 1_555 1_555
C41 C28 1_555 1_555
C42 C29 1_555 1_555
H22 C42 1_555 1_555
C43 C32 1_555 1_555
C44 C43 1_555 1_555
C45 C44 1_555 1_555
H23 C45 1_555 1_555
C46 C45 1_555 1_555
H24 C46 1_555 1_555
C47 C46 1_555 1_555
C48 C47 1_555 1_555
H25 C48 1_555 1_555
C49 C44 1_555 1_555
H26 C49 1_555 1_555
C50 C47 1_555 1_555
Cu11 O9 1_555 1_555
Cu17 O10 1_555 1_555
C26 C27 1_555 1_555
C37 C38 1_555 1_555
N3 C41 1_555 1_555
C40 C41 1_555 1_555
C42 C43 1_555 1_555
C48 C49 1_555 1_555
Cu11 Cu17 1_555 1_555
N2_2 Cu3_3 1_555 1_555
O11 C64 1_555 1_555
O12 C64 1_555 1_555
H27 C51 1_555 1_555
C52 N2_2 1_555 1_555
C53 C52 1_555 1_555
C54 C53 1_555 1_555
C55 C54 1_555 1_555
H28 C55 1_555 1_555
C56 C55 1_555 1_555
C57 C56 1_555 1_555
H29 C57 1_555 1_555
C58 C56 1_555 1_555
C59 C58 1_555 1_555
H30 C59 1_555 1_555
C60 C59 1_555 1_555
H31 C60 1_555 1_555
C61 C60 1_555 1_555
C62 C61 1_555 1_555
H32 C62 1_555 1_555
C63 C58 1_555 1_555
H33 C63 1_555 1_555
C64 C61 1_555 1_555
O15 C89 1_555 1_555
O16 C89 1_555 1_555
N4 Cu3_3 1_555 1_555
C79 H41 1_555 1_555
C80 C53 1_555 1_555
C81 C54 1_555 1_555
H42 C81 1_555 1_555
C82 C57 1_555 1_555
C83 C82 1_555 1_555
C84 C83 1_555 1_555
H43 C84 1_555 1_555
C85 C84 1_555 1_555
H44 C85 1_555 1_555
C86 C85 1_555 1_555
C87 C86 1_555 1_555
H45 C87 1_555 1_555
C88 C83 1_555 1_555
H46 C88 1_555 1_555
C89 C86 1_555 1_555
Cu4 O15 1_555 1_555
Cu5 O16 1_555 1_555
O19 Cu4 1_555 1_555
O20 Cu5 1_555 1_555
Cu9 O11 1_555 1_555
Cu15 O12 1_555 1_555
O21 Cu4 1_555 1_555
O27 Cu5 1_555 1_555
C51 C52 1_555 1_555
C62 C63 1_555 1_555
N4 C80 1_555 1_555
C79 C80 1_555 1_555
C81 C82 1_555 1_555
C87 C88 1_555 1_555
Cu4 Cu5 1_555 1_555
O19_2 Cu4_2 1_555 1_555
O20_2 Cu5_2 1_555 1_555
O22 Cu4_2 1_555 1_555
O24 Cu4_2 1_555 1_555
O28 Cu5_2 1_555 1_555
O30 Cu5_2 1_555 1_555
Cu4_2 Cu5_2 1_555 1_555
N3_2 Cu3_4 1_555 1_555
O13 C78 1_555 1_555
O14 C78 1_555 1_555
H34 C65 1_555 1_555
C66 N3_2 1_555 1_555
C67 C66 1_555 1_555
C68 C67 1_555 1_555
C69 C68 1_555 1_555
H35 C69 1_555 1_555
C70 C69 1_555 1_555
C71 C70 1_555 1_555
H36 C71 1_555 1_555
C72 C70 1_555 1_555
C73 C72 1_555 1_555
H37 C73 1_555 1_555
C74 C73 1_555 1_555
H38 C74 1_555 1_555
C75 C74 1_555 1_555
C76 C75 1_555 1_555
H39 C76 1_555 1_555
C77 C72 1_555 1_555
H40 C77 1_555 1_555
C78 C75 1_555 1_555
N4_2 Cu3_4 1_555 1_555
O21 C100 1_555 1_555
O27 C100 1_555 1_555
H47 C90 1_555 1_555
C91 C67 1_555 1_555
C92 C68 1_555 1_555
H48 C92 1_555 1_555
C93 C71 1_555 1_555
C94 C93 1_555 1_555
C95 C94 1_555 1_555
H49 C95 1_555 1_555
C96 C95 1_555 1_555
H50 C96 1_555 1_555
C97 C96 1_555 1_555
C98 C97 1_555 1_555
H51 C98 1_555 1_555
C99 C94 1_555 1_555
H52 C99 1_555 1_555
C100 C97 1_555 1_555
Cu11 O13 1_555 1_555
Cu17 O14 1_555 1_555
C65 C66 1_555 1_555
C76 C77 1_555 1_555
N4_2 C91 1_555 1_555
C90 C91 1_555 1_555
C92 C93 1_555 1_555
C98 C99 1_555 1_555
Cu3_5 N1_3 1_555 1_555
O7 C39_2 1_555 1_555
O8 C39_2 1_555 1_555
H14_2 C26_2 1_555 1_555
C27_2 N1_3 1_555 1_555
C28_2 C27_2 1_555 1_555
C29_2 C28_2 1_555 1_555
C30_2 C29_2 1_555 1_555
H15_2 C30_2 1_555 1_555
C31_2 C30_2 1_555 1_555
C32_2 C31_2 1_555 1_555
H16_2 C32_2 1_555 1_555
C33_2 C31_2 1_555 1_555
C34_2 C33_2 1_555 1_555
H17_2 C34_2 1_555 1_555
C35_2 C34_2 1_555 1_555
H18_2 C35_2 1_555 1_555
C36_2 C35_2 1_555 1_555
C37_2 C36_2 1_555 1_555
H19_2 C37_2 1_555 1_555
C38_2 C33_2 1_555 1_555
H20_2 C38_2 1_555 1_555
C39_2 C36_2 1_555 1_555
O25 C50_2 1_555 1_555
O31 C50_2 1_555 1_555
N3_3 Cu3_5 1_555 1_555
C40_2 H21_2 1_555 1_555
C41_2 C28_2 1_555 1_555
C42_2 C29_2 1_555 1_555
H22_2 C42_2 1_555 1_555
C43_2 C32_2 1_555 1_555
C44_2 C43_2 1_555 1_555
C45_2 C44_2 1_555 1_555
H23_2 C45_2 1_555 1_555
C46_2 C45_2 1_555 1_555
H24_2 C46_2 1_555 1_555
C47_2 C46_2 1_555 1_555
C48_2 C47_2 1_555 1_555
H25_2 C48_2 1_555 1_555
C49_2 C44_2 1_555 1_555
H26_2 C49_2 1_555 1_555
C50_2 C47_2 1_555 1_555
Cu9 O7 1_555 1_555
Cu15 O8 1_555 1_555
C26_2 C27_2 1_555 1_555
C37_2 C38_2 1_555 1_555
N3_3 C41_2 1_555 1_555
C40_2 C41_2 1_555 1_555
C42_2 C43_2 1_555 1_555
C48_2 C49_2 1_555 1_555
N3_4 Cu3_6 1_555 1_555
O23 C78_2 1_555 1_555
O29 C78_2 1_555 1_555
H34_2 C65_2 1_555 1_555
C66_2 N3_4 1_555 1_555
C67_2 C66_2 1_555 1_555
C68_2 C67_2 1_555 1_555
C69_2 C68_2 1_555 1_555
H35_2 C69_2 1_555 1_555
C70_2 C69_2 1_555 1_555
C71_2 C70_2 1_555 1_555
H36_2 C71_2 1_555 1_555
C72_2 C70_2 1_555 1_555
C73_2 C72_2 1_555 1_555
H37_2 C73_2 1_555 1_555
C74_2 C73_2 1_555 1_555
H38_2 C74_2 1_555 1_555
C75_2 C74_2 1_555 1_555
C76_2 C75_2 1_555 1_555
H39_2 C76_2 1_555 1_555
C77_2 C72_2 1_555 1_555
H40_2 C77_2 1_555 1_555
C78_2 C75_2 1_555 1_555
N4_3 Cu3_6 1_555 1_555
O17 C100_2 1_555 1_555
O18 C100_2 1_555 1_555
H47_2 C90_2 1_555 1_555
C91_2 C67_2 1_555 1_555
C92_2 C68_2 1_555 1_555
H48_2 C92_2 1_555 1_555
C93_2 C71_2 1_555 1_555
C94_2 C93_2 1_555 1_555
C95_2 C94_2 1_555 1_555
H49_2 C95_2 1_555 1_555
C96_2 C95_2 1_555 1_555
H50_2 C96_2 1_555 1_555
C97_2 C96_2 1_555 1_555
C98_2 C97_2 1_555 1_555
H51_2 C98_2 1_555 1_555
C99_2 C94_2 1_555 1_555
H52_2 C99_2 1_555 1_555
C100_2 C97_2 1_555 1_555
Cu11 O17 1_555 1_555
Cu17 O18 1_555 1_555
C65_2 C66_2 1_555 1_555
C76_2 C77_2 1_555 1_555
N4_3 C91_2 1_555 1_555
C90_2 C91_2 1_555 1_555
C92_2 C93_2 1_555 1_555
C98_2 C99_2 1_555 1_555
Cu15 O2_2 1_555 1_555
Cu3_7 N1_4 1_555 1_555
O1_2 Cu9 1_555 1_555
O2_2 C14_2 1_555 1_555
O3_3 Cu9 1_555 1_555
O4_3 Cu15 1_555 1_555
N1_4 C2_2 1_555 1_555
C1_2 H1_2 1_555 1_555
C2_2 C1_2 1_555 1_555
C3_2 C2_2 1_555 1_555
C4_2 C3_2 1_555 1_555
C5_2 C4_2 1_555 1_555
H2_2 C5_2 1_555 1_555
C6_2 C5_2 1_555 1_555
C7_2 C6_2 1_555 1_555
H3_2 C7_2 1_555 1_555
C8_2 C6_2 1_555 1_555
C9_2 C8_2 1_555 1_555
H4_2 C9_2 1_555 1_555
C10_2 C9_2 1_555 1_555
H5_2 C10_2 1_555 1_555
C11_2 C10_2 1_555 1_555
C12_2 C11_2 1_555 1_555
H6_2 C12_2 1_555 1_555
C13_2 C8_2 1_555 1_555
H7_2 C13_2 1_555 1_555
C14_2 O1_2 1_555 1_555
O22 C25_2 1_555 1_555
O28 C25_2 1_555 1_555
N2_3 Cu3_7 1_555 1_555
C15_2 H8_2 1_555 1_555
C16_2 C3_2 1_555 1_555
C17_2 C4_2 1_555 1_555
H9_2 C17_2 1_555 1_555
C18_2 C7_2 1_555 1_555
C19_2 C18_2 1_555 1_555
C20_2 C19_2 1_555 1_555
H10_2 C20_2 1_555 1_555
C21_2 C20_2 1_555 1_555
H11_2 C21_2 1_555 1_555
C22_2 C21_2 1_555 1_555
C23_2 C22_2 1_555 1_555
H12_2 C23_2 1_555 1_555
C24_2 C19_2 1_555 1_555
H13_2 C24_2 1_555 1_555
C25_2 C22_2 1_555 1_555
C11_2 C14_2 1_555 1_555
C12_2 C13_2 1_555 1_555
N2_3 C16_2 1_555 1_555
C15_2 C16_2 1_555 1_555
C17_2 C18_2 1_555 1_555
C23_2 C24_2 1_555 1_555
N2_4 Cu3_8 1_555 1_555
O24 C64_2 1_555 1_555
O30 C64_2 1_555 1_555
H27_2 C51_2 1_555 1_555
C52_2 N2_4 1_555 1_555
C53_2 C52_2 1_555 1_555
C54_2 C53_2 1_555 1_555
C55_2 C54_2 1_555 1_555
H28_2 C55_2 1_555 1_555
C56_2 C55_2 1_555 1_555
C57_2 C56_2 1_555 1_555
H29_2 C57_2 1_555 1_555
C58_2 C56_2 1_555 1_555
C59_2 C58_2 1_555 1_555
H30_2 C59_2 1_555 1_555
C60_2 C59_2 1_555 1_555
H31_2 C60_2 1_555 1_555
C61_2 C60_2 1_555 1_555
C62_2 C61_2 1_555 1_555
H32_2 C62_2 1_555 1_555
C63_2 C58_2 1_555 1_555
H33_2 C63_2 1_555 1_555
C64_2 C61_2 1_555 1_555
O15_2 C89_2 1_555 1_555
O16_2 C89_2 1_555 1_555
N4_4 Cu3_8 1_555 1_555
C79_2 H41_2 1_555 1_555
C80_2 C53_2 1_555 1_555
C81_2 C54_2 1_555 1_555
H42_2 C81_2 1_555 1_555
C82_2 C57_2 1_555 1_555
C83_2 C82_2 1_555 1_555
C84_2 C83_2 1_555 1_555
H43_2 C84_2 1_555 1_555
C85_2 C84_2 1_555 1_555
H44_2 C85_2 1_555 1_555
C86_2 C85_2 1_555 1_555
C87_2 C86_2 1_555 1_555
H45_2 C87_2 1_555 1_555
C88_2 C83_2 1_555 1_555
H46_2 C88_2 1_555 1_555
C89_2 C86_2 1_555 1_555
Cu11 O15_2 1_555 1_555
Cu17 O16_2 1_555 1_555
O19_3 Cu11 1_555 1_555
O20_3 Cu17 1_555 1_555
C51_2 C52_2 1_555 1_555
C62_2 C63_2 1_555 1_555
N4_4 C80_2 1_555 1_555
C79_2 C80_2 1_555 1_555
C81_2 C82_2 1_555 1_555
C87_2 C88_2 1_555 1_555

#END
