
###############################################################################
#
# This file contains modified crystal structure data generated from the
# MOF subset of the Cambridge Structural Database (CSD) v543 
# hosted by the Cambridge Crystallographic Data Centre (CCDC).
#
# This work is licensed under the Creative Commons
# Attribution-NonCommercial-ShareAlike 4.0 International License.
# To view a copy of this license, visit
# http://creativecommons.org/licenses/by-nc-sa/4.0/
# or send a letter to
# Creative Commons, PO Box 1866, Mountain View, CA 94042, USA.
#
# CIF created using the CSD Python API on 29 September 2022
# The structure has been converted into the P1 space group
# The structure has a 3D framework
# The original CSD entry JUVMAR is in the triclinic crystal system
# The framework has been calculated to contain at least 10.0% void space
# The void calculation uses a probe of radius 1.32A, grid spacing 0.4
# The framework is charged, counterions have been retained in the structure
#
###############################################################################

data_JUVMAR
_chemical_formula_moiety         '(C84 H48 O26 P4 Tb2 Zn2)n'
_symmetry_cell_setting           triclinic
_symmetry_space_group_name_H-M   'P 1'
_symmetry_Int_Tables_number      1
_space_group_name_Hall           'P 1'
loop_
_symmetry_equiv_pos_site_id
_symmetry_equiv_pos_as_xyz
1 x,y,z
_cell_length_a                   13.9155(11)
_cell_length_b                   14.0832(11)
_cell_length_c                   18.3492(14)
_cell_angle_alpha                107.191(2)
_cell_angle_beta                 92.112(3)
_cell_angle_gamma                92.355(3)
_cell_volume                     3427.9
loop_
_atom_site_label
_atom_site_type_symbol
_atom_site_fract_x
_atom_site_fract_y
_atom_site_fract_z
O2 O 0.1803(3) 0.5380(3) 0.2213(2)
O3 O 0.0794(3) 0.4402(3) 0.2618(2)
C39 C 0.0124(4) 0.5675(4) 0.2162(3)
C40 C 0.0264(5) 0.6436(6) 0.1878(5)
H23 H 0.089610 0.660303 0.175982
C42 C 0.0948(5) 0.5115(5) 0.2328(3)
Tb2 Tb 0.25357(2) 0.44000(2) 0.29285(2)
O7 O 0.2751(3) 0.0106(3) 0.2723(3)
Zn4 Zn 0.26068(4) 0.14259(4) 0.25929(3)
O1 O 0.2084(3) 0.5563(3) 0.4026(2)
O6 O 0.1260(5) 0.9538(4) 0.2304(3)
O8 O 0.6162(3) 0.7978(3) 0.6920(2)
O9 O 0.6164(3) 0.6339(3) 0.6665(2)
O12 O 0.3757(3) 0.4621(3) 0.2064(2)
O13 O 0.3763(3) 0.5733(3) 0.3199(2)
O14 O 0.7810(3) 0.8610(3) 0.2402(2)
P1 P 0.22019(10) 0.66097(10) 0.45421(8)
P2 P 0.76451(10) 0.75847(11) 0.18492(8)
C1 C 0.1195(4) 0.6861(4) 0.5151(3)
C2 C 0.1032(7) 0.7735(6) 0.5588(7)
H1 H 0.148438 0.827035 0.561683
C3 C 0.0621(8) 0.6138(6) 0.5188(8)
H2 H 0.074590 0.547604 0.490459
C4 C 0.0205(7) 0.7931(6) 0.6027(7)
H3 H 0.008457 0.859446 0.630990
C5 C 0.3276(4) 0.6792(4) 0.5152(3)
C6 C 0.3631(6) 0.7715(6) 0.5584(6)
H4 H 0.331149 0.829126 0.556298
C7 C 0.3755(6) 0.6009(5) 0.5194(5)
H5 H 0.352972 0.536291 0.488879
C8 C 0.2211(4) 0.7513(4) 0.4043(3)
C9 C 0.1364(7) 0.7664(7) 0.3725(6)
H6 H 0.079594 0.731597 0.380217
C10 C 0.2974(6) 0.7919(6) 0.3842(5)
H7 H 0.358904 0.774957 0.399183
C11 C 0.7610(4) 0.7619(4) 0.0876(3)
C12 C 0.7447(5) 0.8507(4) 0.0741(3)
H8 H 0.735150 0.907891 0.115724
C16 C 0.7769(4) 0.6789(4) 0.0268(3)
H11 H 0.789902 0.617609 0.036064
C18 C 0.1301(7) 0.8325(7) 0.3283(6)
H12 H 0.069685 0.844784 0.308035
C19 C 0.2133(6) 0.8787(5) 0.3154(4)
C20 C 0.2933(6) 0.8581(6) 0.3423(5)
H13 H 0.351428 0.889469 0.333032
C21 C 0.2039(7) 0.9558(5) 0.2694(4)
C22 C 0.4443(6) 0.7807(6) 0.6043(6)
H14 H 0.468752 0.845482 0.633061
C23 C 0.4922(4) 0.6997(4) 0.6105(3)
C24 C 0.4576(6) 0.6109(5) 0.5672(5)
H15 H 0.489453 0.553156 0.568926
C25 C 0.5817(4) 0.7098(4) 0.6603(3)
C29 C 0.6542(4) 0.6977(4) 0.2007(3)
C30 C 0.6170(4) 0.7306(5) 0.2709(3)
H17 H 0.645790 0.787862 0.308043
C31 C 0.5367(5) 0.6803(5) 0.2883(3)
H18 H 0.511488 0.702977 0.337488
C32 C 0.4934(4) 0.5974(4) 0.2343(3)
C33 C 0.5282(5) 0.5680(5) 0.1627(3)
H19 H 0.497103 0.513519 0.124276
C34 C 0.6085(5) 0.6175(5) 0.1463(3)
H20 H 0.632613 0.595937 0.096637
C35 C 0.4090(4) 0.5411(4) 0.2538(3)
C36 C 0.8592(4) 0.6781(4) 0.1929(3)
C37 C 0.8450(5) 0.5949(5) 0.2172(5)
H21 H 0.781540 0.574758 0.225910
C38 C 0.9200(5) 0.5409(5) 0.2291(5)
H22 H 0.908242 0.484394 0.246379
C41 C 0.9507(5) 0.6992(6) 0.1752(5)
H24 H 0.962647 0.752202 0.154014
Tb5 Tb 0.74643(2) 0.56000(2) 0.70715(2)
O17 O 0.2319(3) 0.2934(3) 0.1934(2)
O20 O 0.3836(3) 0.3661(3) 0.3335(2)
O22 O 0.1853(3) 0.3366(3) 0.35774(19)
Zn3 Zn 0.73932(4) 0.85741(4) 0.74071(3)
O4 O 0.7681(3) 0.7066(3) 0.8066(2)
O5 O 0.7444(3) 0.8659(3) 0.8498(2)
C13 C 0.7419(5) 0.8578(4) 0.9999(3)
H9 H 0.729521 0.919392 0.990945
C14 C 0.7574(4) 0.7740(4) 0.9387(3)
C15 C 0.7739(4) 0.6850(4) 0.9522(3)
H10 H 0.783192 0.627587 0.910676
C17 C 0.7565(4) 0.7815(4) 0.8591(3)
O18 O 0.7249(3) 0.9894(3) 0.7277(3)
O21 O 0.8596(3) 0.8218(3) 0.6908(3)
O11 O 0.8147(3) 0.6634(3) 0.64226(19)
C26 C 0.9807(9) 0.6309(6) 0.5644(9)
H16 H 0.939749 0.575819 0.565604
C27 C 0.9610(4) 0.7193(4) 0.6042(3)
C28 C 0.8725(4) 0.7351(4) 0.6493(3)
O10 O 0.1404(3) 0.1782(3) 0.3092(3)
C26_2 C 0.0193(9) 0.3691(6) 0.4356(9)
H16_2 H 0.060251 0.424181 0.434396
C27_2 C 0.0390(4) 0.2807(4) 0.3958(3)
C28_2 C 0.1275(4) 0.2649(4) 0.3507(3)
O5_2 O 0.2556(3) 0.1341(3) 0.1502(2)
C13_2 C 0.2581(5) 0.1422(4) 0.0001(3)
H9_2 H 0.270479 0.080608 0.009055
C14_2 C 0.2426(4) 0.2260(4) 0.0613(3)
C15_2 C 0.2261(4) 0.3150(4) 0.0478(3)
H10_2 H 0.216808 0.372413 0.089324
C17_2 C 0.2435(4) 0.2185(4) 0.1409(3)
O19 O 0.3838(3) 0.2022(3) 0.3080(2)
O1_2 O 0.7916(3) 0.4437(3) 0.5974(2)
O6_2 O 0.8740(5) 0.0462(4) 0.7696(3)
O12_2 O 0.6243(3) 0.5379(3) 0.7936(2)
O13_2 O 0.6237(3) 0.4267(3) 0.6801(2)
O14_2 O 0.2190(3) 0.1390(3) 0.7598(2)
P1_2 P 0.77981(10) 0.33903(10) 0.54579(8)
P2_2 P 0.23549(10) 0.24153(11) 0.81508(8)
C1_2 C 0.8805(4) 0.3139(4) 0.4849(3)
C2_2 C 0.8968(7) 0.2265(6) 0.4412(7)
H1_2 H 0.851562 0.172965 0.438317
C3_2 C 0.9379(8) 0.3862(6) 0.4812(8)
H2_2 H 0.925410 0.452396 0.509541
C4_2 C 0.9795(7) 0.2069(6) 0.3973(7)
H3_2 H 0.991543 0.140554 0.369010
C5_2 C 0.6724(4) 0.3208(4) 0.4848(3)
C6_2 C 0.6369(6) 0.2285(6) 0.4416(6)
H4_2 H 0.668851 0.170874 0.443702
C7_2 C 0.6245(6) 0.3991(5) 0.4806(5)
H5_2 H 0.647028 0.463709 0.511121
C8_2 C 0.7789(4) 0.2487(4) 0.5957(3)
C9_2 C 0.8636(7) 0.2336(7) 0.6275(6)
H6_2 H 0.920406 0.268403 0.619783
C10_2 C 0.7026(6) 0.2081(6) 0.6158(5)
H7_2 H 0.641096 0.225043 0.600817
C11_2 C 0.2390(4) 0.2381(4) 0.9124(3)
C12_2 C 0.2553(5) 0.1493(4) 0.9259(3)
H8_2 H 0.264850 0.092109 0.884276
C16_2 C 0.2231(4) 0.3211(4) 0.9732(3)
H11_2 H 0.210098 0.382391 0.963936
C18_2 C 0.8699(7) 0.1675(7) 0.6717(6)
H12_2 H 0.930315 0.155216 0.691965
C19_2 C 0.7867(6) 0.1213(5) 0.6846(4)
C20_2 C 0.7067(6) 0.1419(6) 0.6577(5)
H13_2 H 0.648572 0.110531 0.666968
C21_2 C 0.7961(7) 0.0442(5) 0.7306(4)
C22_2 C 0.5557(6) 0.2193(6) 0.3957(6)
H14_2 H 0.531248 0.154518 0.366939
C23_2 C 0.5078(4) 0.3003(4) 0.3895(3)
C24_2 C 0.5424(6) 0.3891(5) 0.4328(5)
H15_2 H 0.510547 0.446844 0.431074
C25_2 C 0.4183(4) 0.2902(4) 0.3397(3)
C29_2 C 0.3458(4) 0.3023(4) 0.7993(3)
C30_2 C 0.3830(4) 0.2694(5) 0.7291(3)
H17_2 H 0.354210 0.212138 0.691957
C31_2 C 0.4633(5) 0.3197(5) 0.7117(3)
H18_2 H 0.488512 0.297023 0.662512
C32_2 C 0.5066(4) 0.4026(4) 0.7657(3)
C33_2 C 0.4718(5) 0.4320(5) 0.8373(3)
H19_2 H 0.502897 0.486481 0.875724
C34_2 C 0.3915(5) 0.3825(5) 0.8537(3)
H20_2 H 0.367387 0.404063 0.903363
C35_2 C 0.5910(4) 0.4589(4) 0.7462(3)
C36_2 C 0.1408(4) 0.3219(4) 0.8071(3)
C37_2 C 0.1550(5) 0.4051(5) 0.7828(5)
H21_2 H 0.218460 0.425242 0.774090
C38_2 C 0.0800(5) 0.4591(5) 0.7709(5)
H22_2 H 0.091758 0.515606 0.753621
C41_2 C 0.0493(5) 0.3008(6) 0.8248(5)
H24_2 H 0.037353 0.247798 0.845986
O15 O 0.8197(3) 0.4620(3) 0.7787(2)
O16 O 0.9206(3) 0.5598(3) 0.7382(2)
C39_2 C 0.9876(4) 0.4325(4) 0.7838(3)
C40_2 C 0.9736(5) 0.3564(6) 0.8122(5)
H23_2 H 0.910390 0.339697 0.824018
C42_2 C 0.9052(5) 0.4885(5) 0.7672(3)
loop_
_geom_bond_atom_site_label_1
_geom_bond_atom_site_label_2
_geom_bond_site_symmetry_1
_geom_bond_site_symmetry_2
O2 C42 1_555 1_555
O3 C42 1_555 1_555
C40 C39 1_555 1_555
H23 C40 1_555 1_555
C42 C39 1_555 1_555
Tb2 O2 1_555 1_555
O3 Tb2 1_555 1_555
Zn4 O7 1_555 1_555
Tb2 O1 1_555 1_555
O1 P1 1_555 1_555
O6 C21 1_555 1_555
O8 C25 1_555 1_555
O9 C25 1_555 1_555
O12 Tb2 1_555 1_555
O13 Tb2 1_555 1_555
O14 P2 1_555 1_555
P1 C1 1_555 1_555
P2 C11 1_555 1_555
C1 C2 1_555 1_555
C2 H1 1_555 1_555
C3 C1 1_555 1_555
H2 C3 1_555 1_555
C4 C2 1_555 1_555
H3 C4 1_555 1_555
C5 P1 1_555 1_555
C6 C5 1_555 1_555
H4 C6 1_555 1_555
C7 C5 1_555 1_555
H5 C7 1_555 1_555
C8 P1 1_555 1_555
C9 C8 1_555 1_555
H6 C9 1_555 1_555
C10 C8 1_555 1_555
H7 C10 1_555 1_555
C11 C12 1_555 1_555
C12 H8 1_555 1_555
C16 C11 1_555 1_555
H11 C16 1_555 1_555
C18 C9 1_555 1_555
H12 C18 1_555 1_555
C19 C18 1_555 1_555
C20 C10 1_555 1_555
H13 C20 1_555 1_555
C21 C19 1_555 1_555
C22 C6 1_555 1_555
H14 C22 1_555 1_555
C23 C22 1_555 1_555
C24 C7 1_555 1_555
H15 C24 1_555 1_555
C25 C23 1_555 1_555
C29 P2 1_555 1_555
C30 C29 1_555 1_555
H17 C30 1_555 1_555
C31 C30 1_555 1_555
H18 C31 1_555 1_555
C32 C31 1_555 1_555
C33 C32 1_555 1_555
H19 C33 1_555 1_555
C34 C29 1_555 1_555
H20 C34 1_555 1_555
C35 O12 1_555 1_555
C36 P2 1_555 1_555
C37 C36 1_555 1_555
H21 C37 1_555 1_555
C38 C37 1_555 1_555
H22 C38 1_555 1_555
C41 C36 1_555 1_555
H24 C41 1_555 1_555
Tb5 O9 1_555 1_555
O17 Tb2 1_555 1_555
O20 Tb2 1_555 1_555
O22 Tb2 1_555 1_555
Zn3 O8 1_555 1_555
O13 C35 1_555 1_555
C19 C20 1_555 1_555
C23 C24 1_555 1_555
C32 C35 1_555 1_555
C33 C34 1_555 1_555
O4 C17 1_555 1_555
O5 C17 1_555 1_555
H9 C13 1_555 1_555
C14 C13 1_555 1_555
C15 C14 1_555 1_555
H10 C15 1_555 1_555
C17 C14 1_555 1_555
Zn3 O5 1_555 1_555
Tb5 O4 1_555 1_555
O18 Zn3 1_555 1_555
O21 Zn3 1_555 1_555
O21 C28 1_555 1_555
O11 C28 1_555 1_555
H16 C26 1_555 1_555
C28 C27 1_555 1_555
Tb5 O11 1_555 1_555
C26 C27 1_555 1_555
O10 C28_2 1_555 1_555
O22 C28_2 1_555 1_555
H16_2 C26_2 1_555 1_555
C28_2 C27_2 1_555 1_555
Zn4 O10 1_555 1_555
C26_2 C27_2 1_555 1_555
O17 C17_2 1_555 1_555
O5_2 C17_2 1_555 1_555
H9_2 C13_2 1_555 1_555
C14_2 C13_2 1_555 1_555
C15_2 C14_2 1_555 1_555
H10_2 C15_2 1_555 1_555
C17_2 C14_2 1_555 1_555
Zn4 O5_2 1_555 1_555
O19 Zn4 1_555 1_555
Tb5 O1_2 1_555 1_555
O1_2 P1_2 1_555 1_555
O6_2 C21_2 1_555 1_555
O19 C25_2 1_555 1_555
O20 C25_2 1_555 1_555
O12_2 Tb5 1_555 1_555
O13_2 Tb5 1_555 1_555
O14_2 P2_2 1_555 1_555
P1_2 C1_2 1_555 1_555
P2_2 C11_2 1_555 1_555
C1_2 C2_2 1_555 1_555
C2_2 H1_2 1_555 1_555
C3_2 C1_2 1_555 1_555
H2_2 C3_2 1_555 1_555
C4_2 C2_2 1_555 1_555
H3_2 C4_2 1_555 1_555
C5_2 P1_2 1_555 1_555
C6_2 C5_2 1_555 1_555
H4_2 C6_2 1_555 1_555
C7_2 C5_2 1_555 1_555
H5_2 C7_2 1_555 1_555
C8_2 P1_2 1_555 1_555
C9_2 C8_2 1_555 1_555
H6_2 C9_2 1_555 1_555
C10_2 C8_2 1_555 1_555
H7_2 C10_2 1_555 1_555
C11_2 C12_2 1_555 1_555
C12_2 H8_2 1_555 1_555
C16_2 C11_2 1_555 1_555
H11_2 C16_2 1_555 1_555
C18_2 C9_2 1_555 1_555
H12_2 C18_2 1_555 1_555
C19_2 C18_2 1_555 1_555
C20_2 C10_2 1_555 1_555
H13_2 C20_2 1_555 1_555
C21_2 C19_2 1_555 1_555
C22_2 C6_2 1_555 1_555
H14_2 C22_2 1_555 1_555
C23_2 C22_2 1_555 1_555
C24_2 C7_2 1_555 1_555
H15_2 C24_2 1_555 1_555
C25_2 C23_2 1_555 1_555
C29_2 P2_2 1_555 1_555
C30_2 C29_2 1_555 1_555
H17_2 C30_2 1_555 1_555
C31_2 C30_2 1_555 1_555
H18_2 C31_2 1_555 1_555
C32_2 C31_2 1_555 1_555
C33_2 C32_2 1_555 1_555
H19_2 C33_2 1_555 1_555
C34_2 C29_2 1_555 1_555
H20_2 C34_2 1_555 1_555
C35_2 O12_2 1_555 1_555
C36_2 P2_2 1_555 1_555
C37_2 C36_2 1_555 1_555
H21_2 C37_2 1_555 1_555
C38_2 C37_2 1_555 1_555
H22_2 C38_2 1_555 1_555
C41_2 C36_2 1_555 1_555
H24_2 C41_2 1_555 1_555
O15 Tb5 1_555 1_555
O16 Tb5 1_555 1_555
O13_2 C35_2 1_555 1_555
C19_2 C20_2 1_555 1_555
C23_2 C24_2 1_555 1_555
C32_2 C35_2 1_555 1_555
C33_2 C34_2 1_555 1_555
O15 C42_2 1_555 1_555
O16 C42_2 1_555 1_555
C40_2 C39_2 1_555 1_555
H23_2 C40_2 1_555 1_555
C42_2 C39_2 1_555 1_555

#END
