
###############################################################################
#
# This file contains modified crystal structure data generated from the
# MOF subset of the Cambridge Structural Database (CSD) v543 
# hosted by the Cambridge Crystallographic Data Centre (CCDC).
#
# This work is licensed under the Creative Commons
# Attribution-NonCommercial-ShareAlike 4.0 International License.
# To view a copy of this license, visit
# http://creativecommons.org/licenses/by-nc-sa/4.0/
# or send a letter to
# Creative Commons, PO Box 1866, Mountain View, CA 94042, USA.
#
# CIF created using the CSD Python API on 29 September 2022
# The structure has been converted into the P1 space group
# The structure has a 3D framework
# The original CSD entry JUWBIO is in the monoclinic crystal system
# The framework has been calculated to contain at least 10.0% void space
# The void calculation uses a probe of radius 1.32A, grid spacing 0.4
#
###############################################################################

data_JUWBIO
_chemical_formula_moiety         '(C12 H8 N12 O8 Zn4)n'
_symmetry_cell_setting           triclinic
_symmetry_space_group_name_H-M   'P 1'
_symmetry_Int_Tables_number      1
_space_group_name_Hall           'P 1'
loop_
_symmetry_equiv_pos_site_id
_symmetry_equiv_pos_as_xyz
1 x,y,z
_cell_length_a                   8.9147(3)
_cell_length_b                   9.7297(3)
_cell_length_c                   9.5179(4)
_cell_angle_alpha                90
_cell_angle_beta                 115.745(5)
_cell_angle_gamma                90
_cell_volume                     743.609
loop_
_atom_site_label
_atom_site_type_symbol
_atom_site_fract_x
_atom_site_fract_y
_atom_site_fract_z
N2 N 0.0274(4) 0.3920(4) 0.3643(4)
C2 C 0.0177(6) 0.3056(4) 0.2539(5)
H1 H 0.0862 0.3095 0.2031
Zn4 Zn 0.17537(6) 0.55862(4) 0.43670(5)
Zn1 Zn 0.82463(6) 0.05862(4) 0.06330(5)
N1 N 0.8983(5) 0.2120(3) 0.2233(4)
N3 N 0.9069(4) 0.3531(3) 0.4084(4)
C3 C 0.8347(5) 0.2449(4) 0.3237(5)
H2 H 0.7492 0.1964 0.3322
Zn6 Zn 0.82463(6) 0.44138(4) 0.56330(5)
O3 O 0.3255(4) 0.0286(3) 0.8269(4)
O4 O 0.5906(4) 0.0773(3) 0.8914(4)
C4 C 0.4759(5) 0.0313(4) 0.9184(5)
N8 N 0.0274(4) 0.1080(4) 0.8643(4)
N10 N 0.9069(4) 0.1469(3) 0.9084(4)
O1 O 0.6745(4) 0.9714(3) 0.1731(4)
O2 O 0.4094(4) 0.9227(3) 0.1086(4)
C1 C 0.5241(5) 0.9687(4) 0.0816(5)
N7 N 0.9726(4) 0.8920(4) 0.1357(4)
N9 N 0.0931(4) 0.8531(3) 0.0916(4)
Zn2 Zn 0.17537(6) 0.94138(4) 0.93670(5)
N4 N 0.1017(5) 0.7880(3) 0.7767(4)
N6 N 0.0931(4) 0.6469(3) 0.5916(4)
C6 C 0.1653(5) 0.7551(4) 0.6763(5)
H4 H 0.2508 0.8036 0.6678
N5 N 0.9726(4) 0.6080(4) 0.6357(4)
C5 C 0.9823(6) 0.6944(4) 0.7461(5)
H3 H 0.9138 0.6905 0.7969
C5_2 C 0.0177(6) 0.1944(4) 0.7539(5)
H3_2 H 0.0862 0.1905 0.7031
O1_2 O 0.3255(4) 0.4714(3) 0.3269(4)
O2_2 O 0.5906(4) 0.4227(3) 0.3914(4)
N1_2 N 0.1017(5) 0.7120(3) 0.2767(4)
C1_2 C 0.4759(5) 0.4687(4) 0.4184(5)
C3_2 C 0.1653(5) 0.7449(4) 0.1763(5)
H2_2 H 0.2508 0.6964 0.1678
O3_2 O 0.6745(4) 0.5286(3) 0.6731(4)
O4_2 O 0.4094(4) 0.5773(3) 0.6086(4)
C4_2 C 0.5241(5) 0.5313(4) 0.5816(5)
N4_2 N 0.8983(5) 0.2880(3) 0.7233(4)
C6_2 C 0.8347(5) 0.2551(4) 0.8237(5)
H4_2 H 0.7492 0.3036 0.8322
C2_2 C 0.9823(6) 0.8056(4) 0.2461(5)
H1_2 H 0.9138 0.8095 0.2969
loop_
_geom_bond_atom_site_label_1
_geom_bond_atom_site_label_2
_geom_bond_site_symmetry_1
_geom_bond_site_symmetry_2
H1 C2 1_555 1_555
Zn4 N2 1_555 1_555
N2 C2 1_555 1_555
N1 Zn1 1_555 1_555
N3 C3 1_555 1_555
C3 N1 1_555 1_555
H2 C3 1_555 1_555
Zn6 N3 1_555 1_555
O3 C4 1_555 1_555
C4 O4 1_555 1_555
O1 C1 1_555 1_555
O2 C1 1_555 1_555
N4 Zn2 1_555 1_555
N6 C6 1_555 1_555
C6 N4 1_555 1_555
H4 C6 1_555 1_555
Zn4 N6 1_555 1_555
H3 C5 1_555 1_555
Zn6 N5 1_555 1_555
N5 C5 1_555 1_555
H3_2 C5_2 1_555 1_555
N8 C5_2 1_555 1_555
Zn4 O1_2 1_555 1_555
O1_2 C1_2 1_555 1_555
O2_2 C1_2 1_555 1_555
N1_2 Zn4 1_555 1_555
N9 C3_2 1_555 1_555
C1_2 C4_2 1_555 1_555
C3_2 N1_2 1_555 1_555
H2_2 C3_2 1_555 1_555
O3_2 C4_2 1_555 1_555
O4_2 Zn4 1_555 1_555
C4_2 O4_2 1_555 1_555
Zn6 O2_2 1_555 1_555
N4_2 Zn6 1_555 1_555
N10 C6_2 1_555 1_555
C6_2 N4_2 1_555 1_555
H4_2 C6_2 1_555 1_555
O3_2 Zn6 1_555 1_555
H1_2 C2_2 1_555 1_555
N7 C2_2 1_555 1_555

#END
