
###############################################################################
#
# This file contains modified crystal structure data generated from the
# MOF subset of the Cambridge Structural Database (CSD) v543 
# hosted by the Cambridge Crystallographic Data Centre (CCDC).
#
# This work is licensed under the Creative Commons
# Attribution-NonCommercial-ShareAlike 4.0 International License.
# To view a copy of this license, visit
# http://creativecommons.org/licenses/by-nc-sa/4.0/
# or send a letter to
# Creative Commons, PO Box 1866, Mountain View, CA 94042, USA.
#
# CIF created using the CSD Python API on 29 September 2022
# The structure has been converted into the P1 space group
# The structure has a 3D framework
# The original CSD entry JUXFAL is in the monoclinic crystal system
# The framework has been calculated to contain at least 10.0% void space
# The void calculation uses a probe of radius 1.32A, grid spacing 0.4
#
###############################################################################

data_JUXFAL
_chemical_formula_moiety         '(C72 H48 O70 Tb8)n'
_symmetry_cell_setting           triclinic
_symmetry_space_group_name_H-M   'P 1'
_symmetry_Int_Tables_number      1
_space_group_name_Hall           'P 1'
loop_
_symmetry_equiv_pos_site_id
_symmetry_equiv_pos_as_xyz
1 x,y,z
_cell_length_a                   16.60520(10)
_cell_length_b                   16.0739(2)
_cell_length_c                   10.28190(10)
_cell_angle_alpha                90
_cell_angle_beta                 94.400(10)
_cell_angle_gamma                90
_cell_volume                     2736.26
loop_
_atom_site_label
_atom_site_type_symbol
_atom_site_fract_x
_atom_site_fract_y
_atom_site_fract_z
O17 O 0.00633(14) 0.72933(15) 0.1155(2)
H12 H 0.0560(11) 0.746(3) 0.099(4)
Tb8 Tb 0.038105(6) 0.377434(7) 0.043043(10)
O27 O 0.06771(11) 0.53909(11) 0.04841(17)
Tb1 Tb 0.038105(6) 0.622566(7) 0.543043(10)
O1 O 0.35713(13) 0.32015(14) 0.44561(19)
H1 H 0.348(3) 0.343(3) 0.401(4)
C1 C 0.30887(15) 0.33277(16) 0.5437(2)
C2 C 0.32135(15) 0.28826(16) 0.6613(2)
C3 C 0.26866(15) 0.30206(16) 0.7585(2)
H2 H 0.2759 0.2711 0.8373
C4 C 0.20596(15) 0.35938(16) 0.7444(2)
C5 C 0.19688(15) 0.40606(16) 0.6285(2)
C6 C 0.24726(16) 0.39183(16) 0.5299(2)
H3 H 0.2398 0.4229 0.4513
C7 C 0.38902(15) 0.22786(15) 0.6893(2)
O2 O 0.42014(11) 0.19291(12) 0.59651(18)
O3 O 0.41002(11) 0.21506(12) 0.80829(17)
C8 C 0.15015(15) 0.36828(16) 0.8501(2)
O4 O 0.15708(12) 0.32078(12) 0.94732(18)
O5 O 0.09438(11) 0.42327(12) 0.84079(17)
C9 C 0.13658(15) 0.47433(16) 0.6065(2)
O6 O 0.06771(11) 0.46091(11) 0.54841(17)
O7 O 0.15686(11) 0.54701(11) 0.64085(18)
O8 O 0.0000 0.55200(16) 0.7500
H5 H 0.0348(17) 0.765(2) 0.394(4)
H7 H 0.033(4) 0.524(4) 0.777(6)
Tb4 Tb 0.538105(6) 0.122566(7) 0.543043(10)
Tb6 Tb 0.461895(6) 0.122566(7) 0.956957(10)
O19 O 0.07986(11) 0.69291(12) 0.90349(18)
O21 O 0.08998(11) 0.71506(12) 0.69171(17)
O23 O 0.15708(12) 0.67922(12) 0.44732(18)
O25 O 0.09438(11) 0.57673(12) 0.34079(17)
O10 O 0.64287(13) 0.32015(14) 0.05439(19)
H8 H 0.652(3) 0.343(3) 0.099(4)
H10 H 0.7602 0.4229 0.0487
H11 H 0.9652(17) 0.765(2) 0.106(4)
O22 O 0.84292(12) 0.67922(12) 0.05268(18)
O24 O 0.90562(11) 0.57673(12) 0.15921(17)
O8_2 O 1.0000 0.55200(16) 0.7500
H4 H 0.967(4) 0.524(4) 0.723(6)
O9 O 0.99367(14) 0.72933(15) 0.3845(2)
H6 H 0.9440(11) 0.746(3) 0.401(4)
Tb2 Tb 0.961895(6) 0.622566(7) 0.956957(10)
C10 C 0.69113(15) 0.33277(16) 0.9563(2)
C11 C 0.67865(15) 0.28826(16) 0.8387(2)
C12 C 0.73134(15) 0.30206(16) 0.7415(2)
H9 H 0.7241 0.2711 0.6627
C13 C 0.79404(15) 0.35938(16) 0.7556(2)
C14 C 0.80312(15) 0.40606(16) 0.8715(2)
C15 C 0.75274(16) 0.39183(16) 0.9701(2)
C16 C 0.61098(15) 0.22786(15) 0.8107(2)
O11 O 0.57986(11) 0.19291(12) 0.90349(18)
O12 O 0.58998(11) 0.21506(12) 0.69171(17)
C17 C 0.84985(15) 0.36828(16) 0.6499(2)
O13 O 0.84292(12) 0.32078(12) 0.55268(18)
O14 O 0.90562(11) 0.42327(12) 0.65921(17)
C18 C 0.86342(15) 0.47433(16) 0.8935(2)
O15 O 0.93229(11) 0.46091(11) 0.95159(17)
O16 O 0.84314(11) 0.54701(11) 0.85915(18)
Tb7 Tb 0.961895(6) 0.377434(7) 0.456957(10)
O18 O 0.92014(11) 0.69291(12) 0.59651(18)
O20 O 0.91002(11) 0.71506(12) 0.80829(17)
O26 O 0.93229(11) 0.53909(11) 0.45159(17)
O17_2 O 0.50633(14) 0.22933(15) 0.1155(2)
H11_2 H 0.4652(17) 0.265(2) 0.106(4)
H12_2 H 0.5560(11) 0.246(3) 0.099(4)
O22_2 O 0.34292(12) 0.17922(12) 0.05268(18)
O24_2 O 0.40562(11) 0.07673(12) 0.15921(17)
O27_2 O 0.56771(11) 0.03909(11) 0.04841(17)
O7_2 O 0.65686(11) 0.04701(11) 0.64085(18)
O8_3 O 0.5000 0.05200(16) 0.7500
H4_2 H 0.467(4) 0.024(4) 0.723(6)
O9_2 O 0.49367(14) 0.22933(15) 0.3845(2)
H5_2 H 0.5348(17) 0.265(2) 0.394(4)
H6_2 H 0.4440(11) 0.246(3) 0.401(4)
H7_2 H 0.533(4) 0.024(4) 0.777(6)
O16_2 O 0.34314(11) 0.04701(11) 0.85915(18)
O23_2 O 0.65708(12) 0.17922(12) 0.44732(18)
O25_2 O 0.59438(11) 0.07673(12) 0.34079(17)
O26_2 O 0.43229(11) 0.03909(11) 0.45159(17)
O10_2 O 0.14287(13) 0.82015(14) 0.05439(19)
H8_2 H 0.152(3) 0.843(3) 0.099(4)
H10_2 H 0.2602 0.9229 0.0487
Tb8_2 Tb 0.538105(6) 0.877434(7) 0.043043(10)
O1_2 O 0.85713(13) 0.82015(14) 0.44561(19)
H1_2 H 0.848(3) 0.843(3) 0.401(4)
C1_2 C 0.80887(15) 0.83277(16) 0.5437(2)
C2_2 C 0.82135(15) 0.78826(16) 0.6613(2)
C3_2 C 0.76866(15) 0.80206(16) 0.7585(2)
H2_2 H 0.7759 0.7711 0.8373
C4_2 C 0.70596(15) 0.85938(16) 0.7444(2)
C5_2 C 0.69688(15) 0.90606(16) 0.6285(2)
C6_2 C 0.74726(16) 0.89183(16) 0.5299(2)
H3_2 H 0.7398 0.9229 0.4513
C7_2 C 0.88902(15) 0.72786(15) 0.6893(2)
C8_2 C 0.65015(15) 0.86828(16) 0.8501(2)
O4_2 O 0.65708(12) 0.82078(12) 0.94732(18)
O5_2 O 0.59438(11) 0.92327(12) 0.84079(17)
C9_2 C 0.63658(15) 0.97433(16) 0.6065(2)
O6_2 O 0.56771(11) 0.96091(11) 0.54841(17)
C10_2 C 0.19113(15) 0.83277(16) 0.9563(2)
C11_2 C 0.17865(15) 0.78826(16) 0.8387(2)
C12_2 C 0.23134(15) 0.80206(16) 0.7415(2)
H9_2 H 0.2241 0.7711 0.6627
C13_2 C 0.29404(15) 0.85938(16) 0.7556(2)
C14_2 C 0.30312(15) 0.90606(16) 0.8715(2)
C15_2 C 0.25274(16) 0.89183(16) 0.9701(2)
C16_2 C 0.11098(15) 0.72786(15) 0.8107(2)
C17_2 C 0.34985(15) 0.86828(16) 0.6499(2)
O13_2 O 0.34292(12) 0.82078(12) 0.55268(18)
O14_2 O 0.40562(11) 0.92327(12) 0.65921(17)
C18_2 C 0.36342(15) 0.97433(16) 0.8935(2)
O15_2 O 0.43229(11) 0.96091(11) 0.95159(17)
Tb7_2 Tb 0.461895(6) 0.877434(7) 0.456957(10)
O8_4 O 0.0000 0.44800(16) 0.2500
H4_3 H 0.033(4) 0.476(4) 0.277(6)
O9_3 O 0.00633(14) 0.27067(15) 0.6155(2)
H6_3 H 0.0560(11) 0.254(3) 0.599(4)
C10_3 C 0.30887(15) 0.66723(16) 0.0437(2)
C11_3 C 0.32135(15) 0.71174(16) 0.1613(2)
C12_3 C 0.26866(15) 0.69794(16) 0.2585(2)
H9_3 H 0.2759 0.7289 0.3373
C13_3 C 0.20596(15) 0.64062(16) 0.2444(2)
C14_3 C 0.19688(15) 0.59394(16) 0.1285(2)
C15_3 C 0.24726(16) 0.60817(16) 0.0299(2)
C16_3 C 0.38902(15) 0.77214(15) 0.1893(2)
O11_2 O 0.42014(11) 0.80709(12) 0.09651(18)
O12_2 O 0.41002(11) 0.78494(12) 0.30829(17)
C17_3 C 0.15015(15) 0.63172(16) 0.3501(2)
C18_3 C 0.13658(15) 0.52567(16) 0.1065(2)
O16_3 O 0.15686(11) 0.45299(11) 0.14085(18)
O18_2 O 0.07986(11) 0.30709(12) 0.40349(18)
O20_2 O 0.08998(11) 0.28494(12) 0.19171(17)
O10_3 O 0.35713(13) 0.67985(14) 0.94561(19)
H8_3 H 0.348(3) 0.657(3) 0.901(4)
H10_3 H 0.2398 0.5771 0.9513
H11_3 H 0.0348(17) 0.235(2) 0.894(4)
O1_3 O 0.64287(13) 0.67985(14) 0.55439(19)
H1_3 H 0.652(3) 0.657(3) 0.599(4)
C1_3 C 0.69113(15) 0.66723(16) 0.4563(2)
C2_3 C 0.67865(15) 0.71174(16) 0.3387(2)
C3_3 C 0.73134(15) 0.69794(16) 0.2415(2)
H2_3 H 0.7241 0.7289 0.1627
C4_3 C 0.79404(15) 0.64062(16) 0.2556(2)
C5_3 C 0.80312(15) 0.59394(16) 0.3715(2)
C6_3 C 0.75274(16) 0.60817(16) 0.4701(2)
H3_3 H 0.7602 0.5771 0.5487
C7_3 C 0.61098(15) 0.77214(15) 0.3107(2)
O2_2 O 0.57986(11) 0.80709(12) 0.40349(18)
O3_2 O 0.58998(11) 0.78494(12) 0.19171(17)
C8_3 C 0.84985(15) 0.63172(16) 0.1499(2)
C9_3 C 0.86342(15) 0.52567(16) 0.3935(2)
O7_3 O 0.84314(11) 0.45299(11) 0.35915(18)
O8_5 O 1.0000 0.44800(16) 0.2500
H5_3 H 0.9652(17) 0.235(2) 0.606(4)
H7_3 H 0.967(4) 0.476(4) 0.223(6)
O19_2 O 0.92014(11) 0.30709(12) 0.09651(18)
O21_2 O 0.91002(11) 0.28494(12) 0.30829(17)
O17_3 O 0.99367(14) 0.27067(15) 0.8845(2)
H12_3 H 0.9440(11) 0.254(3) 0.901(4)
O1_4 O 0.14287(13) 0.17985(14) 0.55439(19)
H1_4 H 0.152(3) 0.157(3) 0.599(4)
C1_4 C 0.19113(15) 0.16723(16) 0.4563(2)
C2_4 C 0.17865(15) 0.21174(16) 0.3387(2)
C3_4 C 0.23134(15) 0.19794(16) 0.2415(2)
H2_4 H 0.2241 0.2289 0.1627
C4_4 C 0.29404(15) 0.14062(16) 0.2556(2)
C5_4 C 0.30312(15) 0.09394(16) 0.3715(2)
C6_4 C 0.25274(16) 0.10817(16) 0.4701(2)
H3_4 H 0.2602 0.0771 0.5487
C7_4 C 0.11098(15) 0.27214(15) 0.3107(2)
C8_4 C 0.34985(15) 0.13172(16) 0.1499(2)
C9_4 C 0.36342(15) 0.02567(16) 0.3935(2)
C10_4 C 0.80887(15) 0.16723(16) 0.0437(2)
C11_4 C 0.82135(15) 0.21174(16) 0.1613(2)
C12_4 C 0.76866(15) 0.19794(16) 0.2585(2)
H9_4 H 0.7759 0.2289 0.3373
C13_4 C 0.70596(15) 0.14062(16) 0.2444(2)
C14_4 C 0.69688(15) 0.09394(16) 0.1285(2)
C15_4 C 0.74726(16) 0.10817(16) 0.0299(2)
C16_4 C 0.88902(15) 0.27214(15) 0.1893(2)
C17_4 C 0.65015(15) 0.13172(16) 0.3501(2)
C18_4 C 0.63658(15) 0.02567(16) 0.1065(2)
O10_4 O 0.85713(13) 0.17985(14) 0.94561(19)
H8_4 H 0.848(3) 0.157(3) 0.901(4)
H10_4 H 0.7398 0.0771 0.9513
O7_4 O 0.34314(11) 0.95299(11) 0.35915(18)
O8_6 O 0.5000 0.94800(16) 0.2500
H4_4 H 0.533(4) 0.976(4) 0.277(6)
O9_4 O 0.50633(14) 0.77067(15) 0.6155(2)
H5_4 H 0.4652(17) 0.735(2) 0.606(4)
H6_4 H 0.5560(11) 0.754(3) 0.599(4)
H7_4 H 0.467(4) 0.976(4) 0.223(6)
O16_4 O 0.65686(11) 0.95299(11) 0.14085(18)
O17_4 O 0.49367(14) 0.77067(15) 0.8845(2)
H11_4 H 0.5348(17) 0.735(2) 0.894(4)
H12_4 H 0.4440(11) 0.754(3) 0.901(4)
loop_
_geom_bond_atom_site_label_1
_geom_bond_atom_site_label_2
_geom_bond_site_symmetry_1
_geom_bond_site_symmetry_2
H12 O17 1_555 1_555
Tb8 O27 1_555 1_555
Tb1 O6 1_555 1_555
O1 H1 1_555 1_555
C1 O1 1_555 1_555
C2 C1 1_555 1_555
C3 C2 1_555 1_555
H2 C3 1_555 1_555
C4 C3 1_555 1_555
C5 C4 1_555 1_555
C6 C1 1_555 1_555
H3 C6 1_555 1_555
C7 C2 1_555 1_555
O2 C7 1_555 1_555
O3 C7 1_555 1_555
C8 C4 1_555 1_555
O4 C8 1_555 1_555
O5 C8 1_555 1_555
C9 C5 1_555 1_555
O6 C9 1_555 1_555
O7 Tb1 1_555 1_555
O8 Tb1 1_555 1_555
H7 O8 1_555 1_555
Tb4 O2 1_555 1_555
Tb6 O3 1_555 1_555
O21 Tb1 1_555 1_555
O23 Tb1 1_555 1_555
O25 Tb1 1_555 1_555
C5 C6 1_555 1_555
C9 O7 1_555 1_555
O10 H8 1_555 1_555
H4 O8_2 1_555 1_555
H6 O9 1_555 1_555
Tb2 O8_2 1_555 1_555
C11 C10 1_555 1_555
C12 C11 1_555 1_555
H9 C12 1_555 1_555
C13 C12 1_555 1_555
C14 C13 1_555 1_555
C15 C10 1_555 1_555
C16 C11 1_555 1_555
O11 C16 1_555 1_555
O12 C16 1_555 1_555
C17 C13 1_555 1_555
O13 C17 1_555 1_555
O14 C17 1_555 1_555
C18 C14 1_555 1_555
O15 Tb2 1_555 1_555
O16 Tb2 1_555 1_555
Tb4 O12 1_555 1_555
Tb6 O11 1_555 1_555
O20 Tb2 1_555 1_555
C14 C15 1_555 1_555
O13 Tb7 1_555 1_555
O14 Tb7 1_555 1_555
C18 O15 1_555 1_555
C18 O16 1_555 1_555
Tb7 O26 1_555 1_555
H11_2 O17_2 1_555 1_555
H12_2 O17_2 1_555 1_555
O7_2 Tb4 1_555 1_555
O8_3 Tb4 1_555 1_555
H4_2 O8_3 1_555 1_555
O9_2 Tb4 1_555 1_555
H5_2 O9_2 1_555 1_555
H6_2 O9_2 1_555 1_555
H7_2 O8_3 1_555 1_555
Tb6 O8_3 1_555 1_555
O16_2 Tb6 1_555 1_555
O23_2 Tb4 1_555 1_555
O25_2 Tb4 1_555 1_555
O26_2 Tb4 1_555 1_555
O10_2 H8_2 1_555 1_555
O1_2 H1_2 1_555 1_555
C1_2 O1_2 1_555 1_555
C2_2 C1_2 1_555 1_555
C3_2 C2_2 1_555 1_555
H2_2 C3_2 1_555 1_555
C4_2 C3_2 1_555 1_555
C5_2 C4_2 1_555 1_555
C6_2 C1_2 1_555 1_555
H3_2 C6_2 1_555 1_555
C7_2 C2_2 1_555 1_555
O18 C7_2 1_555 1_555
O20 C7_2 1_555 1_555
C8_2 C4_2 1_555 1_555
O4_2 C8_2 1_555 1_555
O5_2 C8_2 1_555 1_555
C9_2 C5_2 1_555 1_555
O6_2 C9_2 1_555 1_555
C11_2 C10_2 1_555 1_555
C12_2 C11_2 1_555 1_555
H9_2 C12_2 1_555 1_555
C13_2 C12_2 1_555 1_555
C14_2 C13_2 1_555 1_555
C15_2 C10_2 1_555 1_555
C16_2 C11_2 1_555 1_555
O19 C16_2 1_555 1_555
O21 C16_2 1_555 1_555
C17_2 C13_2 1_555 1_555
O13_2 C17_2 1_555 1_555
O14_2 C17_2 1_555 1_555
C18_2 C14_2 1_555 1_555
Tb7_2 O6_2 1_555 1_555
C5_2 C6_2 1_555 1_555
C14_2 C15_2 1_555 1_555
O13_2 Tb7_2 1_555 1_555
O14_2 Tb7_2 1_555 1_555
C18_2 O15_2 1_555 1_555
H4_3 O8_4 1_555 1_555
H6_3 O9_3 1_555 1_555
Tb8 O8_4 1_555 1_555
C11_3 C10_3 1_555 1_555
C12_3 C11_3 1_555 1_555
H9_3 C12_3 1_555 1_555
C13_3 C12_3 1_555 1_555
C14_3 C13_3 1_555 1_555
C15_3 C10_3 1_555 1_555
C16_3 C11_3 1_555 1_555
O11_2 C16_3 1_555 1_555
O12_2 C16_3 1_555 1_555
C17_3 C13_3 1_555 1_555
O23 C17_3 1_555 1_555
O25 C17_3 1_555 1_555
C18_3 C14_3 1_555 1_555
O16_3 Tb8 1_555 1_555
Tb7_2 O12_2 1_555 1_555
Tb8_2 O11_2 1_555 1_555
O20_2 Tb8 1_555 1_555
C14_3 C15_3 1_555 1_555
C18_3 O27 1_555 1_555
C18_3 O16_3 1_555 1_555
O10_3 H8_3 1_555 1_555
O1_3 H1_3 1_555 1_555
C1_3 O1_3 1_555 1_555
C2_3 C1_3 1_555 1_555
C3_3 C2_3 1_555 1_555
H2_3 C3_3 1_555 1_555
C4_3 C3_3 1_555 1_555
C5_3 C4_3 1_555 1_555
C6_3 C1_3 1_555 1_555
H3_3 C6_3 1_555 1_555
C7_3 C2_3 1_555 1_555
O2_2 C7_3 1_555 1_555
O3_2 C7_3 1_555 1_555
C8_3 C4_3 1_555 1_555
O22 C8_3 1_555 1_555
O24 C8_3 1_555 1_555
C9_3 C5_3 1_555 1_555
O26 C9_3 1_555 1_555
O7_3 Tb7 1_555 1_555
O8_5 Tb7 1_555 1_555
H7_3 O8_5 1_555 1_555
Tb7_2 O2_2 1_555 1_555
Tb8_2 O3_2 1_555 1_555
O21_2 Tb7 1_555 1_555
C5_3 C6_3 1_555 1_555
C9_3 O7_3 1_555 1_555
H12_3 O17_3 1_555 1_555
O1_4 H1_4 1_555 1_555
C1_4 O1_4 1_555 1_555
C2_4 C1_4 1_555 1_555
C3_4 C2_4 1_555 1_555
H2_4 C3_4 1_555 1_555
C4_4 C3_4 1_555 1_555
C5_4 C4_4 1_555 1_555
C6_4 C1_4 1_555 1_555
H3_4 C6_4 1_555 1_555
C7_4 C2_4 1_555 1_555
O18_2 C7_4 1_555 1_555
O20_2 C7_4 1_555 1_555
C8_4 C4_4 1_555 1_555
O22_2 C8_4 1_555 1_555
O24_2 C8_4 1_555 1_555
C9_4 C5_4 1_555 1_555
O26_2 C9_4 1_555 1_555
C11_4 C10_4 1_555 1_555
C12_4 C11_4 1_555 1_555
H9_4 C12_4 1_555 1_555
C13_4 C12_4 1_555 1_555
C14_4 C13_4 1_555 1_555
C15_4 C10_4 1_555 1_555
C16_4 C11_4 1_555 1_555
O19_2 C16_4 1_555 1_555
O21_2 C16_4 1_555 1_555
C17_4 C13_4 1_555 1_555
O23_2 C17_4 1_555 1_555
O25_2 C17_4 1_555 1_555
C18_4 C14_4 1_555 1_555
C5_4 C6_4 1_555 1_555
C14_4 C15_4 1_555 1_555
C18_4 O27_2 1_555 1_555
O10_4 H8_4 1_555 1_555
O7_4 Tb7_2 1_555 1_555
O8_6 Tb7_2 1_555 1_555
H4_4 O8_6 1_555 1_555
O9_4 Tb7_2 1_555 1_555
H5_4 O9_4 1_555 1_555
H6_4 O9_4 1_555 1_555
H7_4 O8_6 1_555 1_555
Tb8_2 O8_6 1_555 1_555
O16_4 Tb8_2 1_555 1_555
H11_4 O17_4 1_555 1_555
H12_4 O17_4 1_555 1_555

#END
