
###############################################################################
#
# This file contains modified crystal structure data generated from the
# MOF subset of the Cambridge Structural Database (CSD) v543 
# hosted by the Cambridge Crystallographic Data Centre (CCDC).
#
# This work is licensed under the Creative Commons
# Attribution-NonCommercial-ShareAlike 4.0 International License.
# To view a copy of this license, visit
# http://creativecommons.org/licenses/by-nc-sa/4.0/
# or send a letter to
# Creative Commons, PO Box 1866, Mountain View, CA 94042, USA.
#
# CIF created using the CSD Python API on 29 September 2022
# The structure has been converted into the P1 space group
# The structure has a 3D framework
# The original CSD entry JUXQAW is in the hexagonal crystal system
# The original CSD entry JUXQAW is in a Sohncke space group
# The framework has been calculated to contain at least 10.0% void space
# The void calculation uses a probe of radius 1.32A, grid spacing 0.4
# The framework is charged, counterions have been retained in the structure
# H atom positions have been added when not included in the experimental data
#
###############################################################################

data_JUXQAW
_chemical_formula_moiety         '(C318 H192 Cl8 Cu12 La12 N24 O76 1+)n'
_symmetry_cell_setting           triclinic
_symmetry_space_group_name_H-M   'P 1'
_symmetry_Int_Tables_number      1
_space_group_name_Hall           'P 1'
loop_
_symmetry_equiv_pos_site_id
_symmetry_equiv_pos_as_xyz
1 x,y,z
_cell_length_a                   13.0080(2)
_cell_length_b                   13.0080(2)
_cell_length_c                   50.2913(12)
_cell_angle_alpha                90
_cell_angle_beta                 90
_cell_angle_gamma                120
_cell_volume                     7369.61
loop_
_atom_site_label
_atom_site_type_symbol
_atom_site_fract_x
_atom_site_fract_y
_atom_site_fract_z
Cu7 Cu -0.0000 0.0000 0.20003(6)
Cu7_2 Cu -0.0000 1.0000 0.20003(6)
Cl1 Cl -0.0000 0.0000 0.2500
C25 C 0.2760(10) 0.0000 0.0000
C26 C 0.3985(8) 0.0000 0.0000
O8 O 0.2804(9) 0.0974(7) 0.00259(17)
O9 O 0.4895(8) 0.0993(6) 0.00250(15)
C63 C 0.2964(9) 0.4164(13) 0.04323(18)
C64 C 0.2829(11) 0.3891(16) 0.0726(2)
C65 C 0.2708(14) 0.2852(18) 0.0820(2)
H32 H 0.2742 0.2311 0.0705
C66 C 0.2530(15) 0.2608(21) 0.1097(2)
H33 H 0.2418 0.1889 0.1161
C67 C 0.2522(15) 0.3399(21) 0.1269(2)
C68 C 0.264(2) 0.443(3) 0.1170(3)
H34 H 0.2589 0.4964 0.1284
C69 C 0.284(2) 0.4692(27) 0.0901(3)
H35 H 0.2984 0.5427 0.0840
C70 C 0.1514(14) 0.1956(19) 0.1641(2)
H36 H 0.1096 0.1382 0.1512
C71 C 0.2338(16) 0.3109(23) 0.1557(2)
C72 C 0.297(2) 0.395(3) 0.1750(3)
H37 H 0.3549 0.4716 0.1704
C73 C 0.271(3) 0.361(4) 0.2015(3)
H38 H 0.3069 0.4176 0.2149
C74 C 0.196(2) 0.249(3) 0.2081(3)
H39 H 0.1890 0.2279 0.2259
C75 C -0.0000 0.2760(10) 0.0000
C76 C -0.0000 0.3985(8) 0.0000
N6 N 0.1298(12) 0.1639(17) 0.18990(19)
O16 O 0.3276(7) 0.3566(9) 0.02788(13)
O17 O 0.2815(7) 0.4968(9) 0.03492(13)
H58 H 0.7689 0.0431 0.0705
H59 H 0.8111 0.0529 0.1161
La12 La 0.46494(6) 0.28538(4) 0.015396(11)
La15 La 0.71462(4) 0.17956(4) 0.015396(11)
Cu7_3 Cu 1.0000 0.0000 0.20003(6)
Cu8 Cu -0.0000 0.0000 0.29997(6)
C9 C 0.340(9) 0.005(8) 0.7783(9)
C10 C 0.378(4) 0.013(4) 0.8076(7)
C25_2 C 0.2760(10) 0.0000 1.0000
C26_2 C 0.3985(8) 0.0000 1.0000
La3 La 0.28538(4) 0.46494(6) 0.984604(11)
C51 C 0.1393(12) 0.4953(17) 0.9343(3)
C52 C 0.051(2) 0.3576(28) 0.8663(3)
H27 H 0.0184 0.2826 0.8587
C53 C 0.0638(16) 0.3695(23) 0.8940(3)
H28 H 0.0406 0.3026 0.9045
C54 C 0.1098(12) 0.4782(17) 0.9056(3)
C55 C 0.1394(15) 0.5748(21) 0.8904(3)
H29 H 0.1684 0.6488 0.8983
C56 C 0.126(2) 0.5628(27) 0.8622(3)
H30 H 0.1446 0.6292 0.8519
C57 C 0.0860(17) 0.4554(23) 0.8501(3)
C58 C 0.071(3) 0.414(4) 0.7674(4)
H31 H 0.0745 0.3990 0.7485
C61 C 0.082(2) 0.4423(27) 0.8212(3)
C62 C 0.167(3) 0.531(5) 0.8059(5)
C75_2 C -0.0000 0.2760(10) 1.0000
C76_2 C -0.0000 0.3985(8) 1.0000
N5 N 0.176(2) 0.521(3) 0.7767(5)
O14 O 0.1443(8) 0.4113(11) 0.94646(18)
O15 O 0.1664(9) 0.5915(13) 0.94520(17)
O18 O 0.0974(7) 0.2804(9) 0.99741(17)
O19 O 0.0993(6) 0.4895(8) 0.99750(15)
H71 H 0.2742 0.0431 0.4295
H72 H 0.2418 0.0529 0.3839
La7 La 0.17956(4) 0.71462(4) 0.984604(11)
La8 La 0.46494(6) 0.17956(4) 0.484604(11)
Cu5 Cu 0.3333 0.6667 0.7500
N15 N 0.0341(12) 0.1639(17) 0.31010(19)
O40 O 0.4085(13) 0.5749(10) 0.94520(17)
O42 O 0.3566(9) 0.0290(6) 0.52788(13)
O44 O 0.3566(9) 0.3276(7) 0.97212(13)
O46 O 0.6724(7) 0.0290(6) 0.97212(13)
O54 O 0.5105(8) 0.6098(6) 0.99750(15)
O58 O 0.3333 0.6667 0.9943(2)
H88 H 0.420627 0.0991049 0.817442
H90 H 0.313609 0.0640419 0.769089
H96 H 0.231299 0.613077 0.81563
Cl1_2 Cl -0.0000 1.0000 0.2500
C13 C 0.1200(9) 0.7036(9) 0.04323(18)
C14 C 0.1062(11) 0.7171(11) 0.0726(2)
C15 C 0.0144(11) 0.7292(14) 0.0820(2)
C16 C 0.0078(14) 0.7470(15) 0.1097(2)
C17 C 0.0877(14) 0.7478(15) 0.1269(2)
C18 C 0.179(2) 0.736(2) 0.1170(3)
H8 H 0.2375 0.7411 0.1284
C19 C 0.1852(18) 0.716(2) 0.0901(3)
H9 H 0.2443 0.7016 0.0840
C20 C 0.0442(13) 0.8486(14) 0.1641(2)
H10 H 0.0286 0.8904 0.1512
C21 C 0.0771(17) 0.7662(16) 0.1557(2)
C22 C 0.098(2) 0.703(2) 0.1750(3)
H11 H 0.1167 0.6451 0.1704
C23 C 0.090(3) 0.729(3) 0.2015(3)
H12 H 0.1107 0.6931 0.2149
C24 C 0.053(2) 0.804(2) 0.2081(3)
H13 H 0.0389 0.8110 0.2259
C25_3 C 0.2760(10) 1.0000 0.0000
C26_3 C 0.3985(8) 1.0000 0.0000
N2 N 0.0341(12) 0.8702(12) 0.18990(19)
O3 O 0.0290(6) 0.6724(7) 0.02788(13)
O4 O 0.2153(6) 0.7185(7) 0.03492(13)
C115 C 0.5836(13) 0.8800(9) 0.04323(18)
C116 C 0.6109(16) 0.8938(11) 0.0726(2)
C117 C 0.7148(18) 0.9856(11) 0.0820(2)
C118 C 0.7392(21) 0.9922(14) 0.1097(2)
C119 C 0.6601(21) 0.9123(14) 0.1269(2)
C120 C 0.557(3) 0.821(2) 0.1170(3)
H60 H 0.5036 0.7625 0.1284
C121 C 0.5308(27) 0.8148(18) 0.0901(3)
H61 H 0.4573 0.7557 0.0840
C122 C 0.8044(19) 0.9558(13) 0.1641(2)
H62 H 0.8618 0.9714 0.1512
C123 C 0.6891(23) 0.9229(17) 0.1557(2)
C124 C 0.605(3) 0.902(2) 0.1750(3)
H63 H 0.5284 0.8833 0.1704
C125 C 0.639(4) 0.910(3) 0.2015(3)
H64 H 0.5824 0.8893 0.2149
C126 C 0.751(3) 0.947(2) 0.2081(3)
H65 H 0.7721 0.9611 0.2259
N10 N 0.8361(17) 0.9659(12) 0.18990(19)
O32 O 0.6434(9) 0.9710(6) 0.02788(13)
O33 O 0.5032(9) 0.7847(6) 0.03492(13)
Cu7_4 Cu 1.0000 1.0000 0.20003(6)
Cu8_2 Cu -0.0000 1.0000 0.29997(6)
C1 C 0.3560(12) 0.8607(12) 0.9343(3)
C2 C 0.3066(19) 0.949(2) 0.8663(3)
H1 H 0.2642 0.9816 0.8587
C3 C 0.3057(17) 0.9362(16) 0.8940(3)
H2 H 0.2620 0.9594 0.9045
C4 C 0.3684(12) 0.8902(12) 0.9056(3)
C5 C 0.4354(15) 0.8606(15) 0.8904(3)
H3 H 0.4804 0.8316 0.8983
C6 C 0.4368(18) 0.874(2) 0.8622(3)
H4 H 0.4846 0.8554 0.8519
C7 C 0.3694(15) 0.9140(17) 0.8501(3)
C8 C 0.343(3) 0.929(3) 0.7674(4)
H5 H 0.3245 0.9255 0.7485
C11 C 0.3603(18) 0.918(2) 0.8212(3)
C12 C 0.364(4) 0.833(3) 0.8059(5)
C25_4 C 0.2760(10) 1.0000 1.0000
C26_4 C 0.3985(8) 1.0000 1.0000
N1 N 0.345(2) 0.824(2) 0.7767(5)
O1 O 0.2670(8) 0.8557(8) 0.94646(18)
O2 O 0.4251(10) 0.8336(9) 0.94520(17)
O5 O 0.1830(6) 0.9026(7) 0.99741(17)
O6 O 0.3902(6) 0.9007(6) 0.99750(15)
La5 La 0.53506(6) 0.82044(4) 0.984604(11)
C103 C 0.5047(17) 0.6440(12) 0.9343(3)
C104 C 0.6424(28) 0.6934(19) 0.8663(3)
H53 H 0.7174 0.7358 0.8587
C105 C 0.6305(23) 0.6943(17) 0.8940(3)
H54 H 0.6974 0.7380 0.9045
C106 C 0.5218(17) 0.6316(12) 0.9056(3)
C107 C 0.4252(21) 0.5646(15) 0.8904(3)
H55 H 0.3512 0.5196 0.8983
C108 C 0.4372(27) 0.5632(18) 0.8622(3)
H56 H 0.3708 0.5154 0.8519
C109 C 0.5446(23) 0.6306(15) 0.8501(3)
C110 C 0.586(4) 0.657(3) 0.7674(4)
H57 H 0.6010 0.6755 0.7485
C111 C 0.665(12) 0.660(9) 0.7783(9)
C112 C 0.635(6) 0.622(4) 0.8076(7)
C113 C 0.5577(27) 0.6397(18) 0.8212(3)
C114 C 0.469(5) 0.636(4) 0.8059(5)
N9 N 0.479(3) 0.655(2) 0.7767(5)
O30 O 0.5887(11) 0.7330(8) 0.94646(18)
La6 La 0.28538(4) 0.82044(4) 0.515396(11)
C127 C 0.1393(12) 0.6440(12) 0.5657(3)
C128 C 0.051(2) 0.6934(19) 0.6337(3)
H66 H 0.0184 0.7358 0.6413
C129 C 0.0638(16) 0.6943(17) 0.6060(3)
H67 H 0.0406 0.7380 0.5955
C130 C 0.1098(12) 0.6316(12) 0.5944(3)
C131 C 0.1394(15) 0.5646(15) 0.6096(3)
H68 H 0.1684 0.5196 0.6017
C132 C 0.126(2) 0.5632(18) 0.6378(3)
H69 H 0.1446 0.5154 0.6481
C133 C 0.0860(17) 0.6306(15) 0.6499(3)
C134 C 0.071(3) 0.657(3) 0.7326(4)
H70 H 0.0745 0.6755 0.7515
C137 C 0.082(2) 0.6397(18) 0.6788(3)
C138 C 0.167(3) 0.636(4) 0.6941(5)
C139 C 0.2964(9) 0.8800(9) 0.45677(18)
C140 C 0.2829(11) 0.8938(11) 0.4274(2)
C141 C 0.2708(14) 0.9856(11) 0.4180(2)
C142 C 0.2530(15) 0.9922(14) 0.3903(2)
C143 C 0.2522(15) 0.9123(14) 0.3731(2)
C144 C 0.264(2) 0.821(2) 0.3830(3)
H73 H 0.2589 0.7625 0.3716
C145 C 0.284(2) 0.8148(18) 0.4099(3)
H74 H 0.2984 0.7557 0.4160
C146 C 0.1514(14) 0.9558(13) 0.3359(2)
H75 H 0.1096 0.9714 0.3488
C147 C 0.2338(16) 0.9229(17) 0.3443(2)
C148 C 0.297(2) 0.902(2) 0.3250(3)
H76 H 0.3549 0.8833 0.3296
C149 C 0.271(3) 0.910(3) 0.2985(3)
H77 H 0.3069 0.8893 0.2851
C150 C 0.196(2) 0.947(2) 0.2919(3)
H78 H 0.1890 0.9611 0.2741
N11 N 0.176(2) 0.655(2) 0.7233(5)
N12 N 0.1298(12) 0.9659(12) 0.31010(19)
O34 O 0.1443(8) 0.7330(8) 0.55354(18)
O35 O 0.1664(9) 0.5749(10) 0.55480(17)
O36 O 0.3276(7) 0.9710(6) 0.47212(13)
O37 O 0.2815(7) 0.7847(6) 0.46508(13)
O38 O 0.3333 0.6667 0.5057(2)
La13 La 0.17956(4) 0.46494(6) 0.515396(11)
La16 La 0.53506(6) 0.71462(4) 0.515396(11)
N13 N 0.345(2) 0.521(3) 0.7233(5)
N14 N 0.479(3) 0.824(2) 0.7233(5)
O41 O 0.4085(13) 0.8336(9) 0.55480(17)
O49 O 0.7196(9) 0.8170(6) 0.99741(17)
O50 O 0.0974(7) 0.8170(6) 0.50259(17)
O55 O 0.0993(6) 0.6098(6) 0.50250(15)
O56 O 0.5105(8) 0.9007(6) 0.50250(15)
H82 H 0.750433 0.686391 0.769089
H83 H 0.386923 0.618222 0.81563
H84 H 0.678478 0.579373 0.817442
H86 H 0.231299 0.618222 0.68437
H89 H 0.381778 0.768701 0.81563
Cl1_3 Cl 1.0000 0.0000 0.2500
C75_3 C 1.0000 0.2760(10) 0.0000
C76_3 C 1.0000 0.3985(8) 0.0000
O20 O 0.9026(7) 0.1830(6) 0.00259(17)
O21 O 0.9007(6) 0.3902(6) 0.00250(15)
La18 La 0.82044(4) 0.53506(6) 0.015396(11)
Cu8_3 Cu 1.0000 0.0000 0.29997(6)
C59 C 0.995(8) 0.335(12) 0.7783(9)
C60 C 0.987(4) 0.365(6) 0.8076(7)
C75_4 C 1.0000 0.2760(10) 1.0000
C76_4 C 1.0000 0.3985(8) 1.0000
H94 H 0.900895 0.321522 0.817442
H95 H 0.935958 0.249567 0.769089
Cl1_4 Cl 1.0000 1.0000 0.2500
H6 H 0.9569 0.7258 0.0705
H7 H 0.9471 0.7582 0.1161
C101 C 0.7240(10) 0.7240(10) 0.0000
C102 C 0.6015(8) 0.6015(8) 0.0000
O28 O 0.8170(6) 0.7196(9) 0.00259(17)
O29 O 0.6098(6) 0.5105(8) 0.00250(15)
Cu8_4 Cu 1.0000 1.0000 0.29997(6)
C101_2 C 0.7240(10) 0.7240(10) 1.0000
C102_2 C 0.6015(8) 0.6015(8) 1.0000
C135 C 0.995(8) 0.660(9) 0.7217(9)
C136 C 0.987(4) 0.622(4) 0.6924(7)
N16 N 0.8361(17) 0.8702(12) 0.31010(19)
O47 O 0.9710(6) 0.6434(9) 0.97212(13)
H85 H 0.935958 0.686391 0.730911
H87 H 0.900895 0.579373 0.682558
Cu7_5 Cu -0.0000 -0.0000 0.70003(6)
H19 H 0.0431 0.2742 0.5705
H20 H 0.0529 0.2418 0.6161
C111_2 C 0.005(15) 0.665(12) 0.2783(9)
C112_2 C 0.013(7) 0.635(6) 0.3076(7)
Cu7_6 Cu -0.0000 1.0000 0.70003(6)
O43 O 0.0290(11) 0.3566(9) 0.47212(13)
H82_2 H 0.0640419 0.750433 0.269089
H84_2 H 0.0991049 0.678478 0.317442
Cu7_7 Cu 1.0000 -0.0000 0.70003(6)
Cu1 Cu 0.6666 0.3333 0.2500
Cl1_5 Cl -0.0000 0.0000 0.7500
C1_2 C 0.4953(17) 0.3560(12) 0.4343(3)
C2_2 C 0.3576(28) 0.3066(19) 0.3663(3)
H1_2 H 0.2826 0.2642 0.3587
C3_2 C 0.3695(23) 0.3057(17) 0.3940(3)
H2_2 H 0.3026 0.2620 0.4045
C4_2 C 0.4782(17) 0.3684(12) 0.4056(3)
C5_2 C 0.5748(21) 0.4354(15) 0.3904(3)
H3_2 H 0.6488 0.4804 0.3983
C6_2 C 0.5628(27) 0.4368(18) 0.3622(3)
H4_2 H 0.6292 0.4846 0.3519
C7_2 C 0.4554(23) 0.3694(15) 0.3501(3)
C8_2 C 0.414(4) 0.343(3) 0.2674(4)
H5_2 H 0.3990 0.3245 0.2485
C9_2 C 0.335(12) 0.340(9) 0.2783(9)
C10_2 C 0.365(6) 0.378(4) 0.3076(7)
C11_2 C 0.4423(27) 0.3603(18) 0.3212(3)
C12_2 C 0.531(5) 0.364(4) 0.3059(5)
C13_2 C 0.4164(13) 0.1200(9) 0.54323(18)
C14_2 C 0.3891(16) 0.1062(11) 0.5726(2)
C15_2 C 0.2852(18) 0.0144(11) 0.5820(2)
C16_2 C 0.2608(21) 0.0078(14) 0.6097(2)
C17_2 C 0.3399(21) 0.0877(14) 0.6269(2)
C18_2 C 0.443(3) 0.179(2) 0.6170(3)
H8_2 H 0.4964 0.2375 0.6284
C19_2 C 0.4692(27) 0.1852(18) 0.5901(3)
H9_2 H 0.5427 0.2443 0.5840
C20_2 C 0.1956(19) 0.0442(13) 0.6641(2)
H10_2 H 0.1382 0.0286 0.6512
C21_2 C 0.3109(23) 0.0771(17) 0.6557(2)
C22_2 C 0.395(3) 0.098(2) 0.6750(3)
H11_2 H 0.4716 0.1167 0.6704
C23_2 C 0.361(4) 0.090(3) 0.7015(3)
H12_2 H 0.4176 0.1107 0.7149
C24_2 C 0.249(3) 0.053(2) 0.7081(3)
H13_2 H 0.2279 0.0389 0.7259
C25_5 C 0.2760(10) 0.2760(10) 0.5000
C26_5 C 0.3985(8) 0.3985(8) 0.5000
N1_2 N 0.521(3) 0.345(2) 0.2767(5)
N2_2 N 0.1639(17) 0.0341(12) 0.68990(19)
O1_2 O 0.4113(11) 0.2670(8) 0.44646(18)
O2_2 O 0.5915(13) 0.4251(10) 0.44520(17)
O4_2 O 0.4968(9) 0.2153(6) 0.53492(13)
O5_2 O 0.2804(9) 0.1830(6) 0.49741(17)
O6_2 O 0.4895(8) 0.3902(6) 0.49750(15)
O7 O 0.6666 0.3333 0.4943(2)
O8_2 O 0.1830(11) 0.2804(9) 0.50259(17)
O9_2 O 0.3902(10) 0.4895(8) 0.50250(15)
La2 La 0.82044(7) 0.28538(4) 0.484604(11)
C27 C 0.6440(21) 0.1393(12) 0.4343(3)
C28 C 0.6934(34) 0.051(2) 0.3663(3)
H14 H 0.7358 0.0184 0.3587
C29 C 0.6943(28) 0.0638(16) 0.3940(3)
H15 H 0.7380 0.0406 0.4045
C30 C 0.6316(21) 0.1098(12) 0.4056(3)
C31 C 0.5646(26) 0.1394(15) 0.3904(3)
H16 H 0.5196 0.1684 0.3983
C32 C 0.5632(34) 0.126(2) 0.3622(3)
H17 H 0.5154 0.1446 0.3519
C33 C 0.6306(29) 0.0860(17) 0.3501(3)
C34 C 0.657(5) 0.071(3) 0.2674(4)
H18 H 0.6755 0.0745 0.2485
C37 C 0.6397(34) 0.082(2) 0.3212(3)
C38 C 0.636(6) 0.167(3) 0.3059(5)
C39 C 0.8800(16) 0.2964(9) 0.54323(18)
C40 C 0.8938(19) 0.2829(11) 0.5726(2)
C41 C 0.9856(23) 0.2708(14) 0.5820(2)
C42 C 0.9922(26) 0.2530(15) 0.6097(2)
C43 C 0.9123(26) 0.2522(15) 0.6269(2)
C44 C 0.821(4) 0.264(2) 0.6170(3)
H21 H 0.7625 0.2589 0.6284
C45 C 0.8148(34) 0.284(2) 0.5901(3)
H22 H 0.7557 0.2984 0.5840
C46 C 0.9558(24) 0.1514(14) 0.6641(2)
H23 H 0.9714 0.1096 0.6512
C47 C 0.9229(28) 0.2338(16) 0.6557(2)
C48 C 0.902(4) 0.297(2) 0.6750(3)
H24 H 0.8833 0.3549 0.6704
C49 C 0.910(5) 0.271(3) 0.7015(3)
H25 H 0.8893 0.3069 0.7149
C50 C 0.947(4) 0.196(2) 0.7081(3)
H26 H 0.9611 0.1890 0.7259
N3 N 0.655(4) 0.176(2) 0.2767(5)
N4 N 0.9659(21) 0.1298(12) 0.68990(19)
O10 O 0.7330(14) 0.1443(8) 0.44646(18)
O11 O 0.5749(16) 0.1664(9) 0.44520(17)
O12 O 0.9710(11) 0.3276(7) 0.52788(13)
O13 O 0.7847(11) 0.2815(7) 0.53492(13)
La5_2 La 0.71462(7) 0.53506(6) 0.484604(11)
C103_2 C 0.8607(21) 0.5047(17) 0.4343(3)
C104_2 C 0.9490(34) 0.6424(28) 0.3663(3)
H53_2 H 0.9816 0.7174 0.3587
C105_2 C 0.9362(29) 0.6305(23) 0.3940(3)
H54_2 H 0.9594 0.6974 0.4045
C106_2 C 0.8902(21) 0.5218(17) 0.4056(3)
C107_2 C 0.8606(26) 0.4252(21) 0.3904(3)
H55_2 H 0.8316 0.3512 0.3983
C108_2 C 0.8740(32) 0.4372(27) 0.3622(3)
H56_2 H 0.8554 0.3708 0.3519
C109_2 C 0.9140(27) 0.5446(23) 0.3501(3)
C110_2 C 0.929(5) 0.586(4) 0.2674(4)
H57_2 H 0.9255 0.6010 0.2485
C113_2 C 0.9180(32) 0.5577(27) 0.3212(3)
C114_2 C 0.833(6) 0.469(5) 0.3059(5)
C115_2 C 0.7036(16) 0.5836(13) 0.54323(18)
C116_2 C 0.7171(19) 0.6109(16) 0.5726(2)
C117_2 C 0.7292(21) 0.7148(18) 0.5820(2)
H58_2 H 0.7258 0.7689 0.5705
C118_2 C 0.7470(25) 0.7392(21) 0.6097(2)
H59_2 H 0.7582 0.8111 0.6161
C119_2 C 0.7478(25) 0.6601(21) 0.6269(2)
C120_2 C 0.736(4) 0.557(3) 0.6170(3)
H60_2 H 0.7411 0.5036 0.6284
C121_2 C 0.7160(32) 0.5308(27) 0.5901(3)
H61_2 H 0.7016 0.4573 0.5840
C122_2 C 0.8486(23) 0.8044(19) 0.6641(2)
H62_2 H 0.8904 0.8618 0.6512
C123_2 C 0.7662(29) 0.6891(23) 0.6557(2)
C124_2 C 0.703(4) 0.605(3) 0.6750(3)
H63_2 H 0.6451 0.5284 0.6704
C125_2 C 0.729(5) 0.639(4) 0.7015(3)
H64_2 H 0.6931 0.5824 0.7149
C126_2 C 0.804(4) 0.751(3) 0.7081(3)
H65_2 H 0.8110 0.7721 0.7259
N9_2 N 0.824(4) 0.479(3) 0.2767(5)
N10_2 N 0.8702(21) 0.8361(17) 0.68990(19)
O30_2 O 0.8557(14) 0.5887(11) 0.44646(18)
O31 O 0.8336(16) 0.4085(13) 0.44520(17)
O32_2 O 0.6724(11) 0.6434(9) 0.52788(13)
O33_2 O 0.7185(11) 0.5032(9) 0.53492(13)
C127_2 C 0.4953(17) 0.1393(12) 0.0657(3)
C128_2 C 0.3576(28) 0.051(2) 0.1337(3)
H66_2 H 0.2826 0.0184 0.1413
C129_2 C 0.3695(23) 0.0638(16) 0.1060(3)
H67_2 H 0.3026 0.0406 0.0955
C130_2 C 0.4782(17) 0.1098(12) 0.0944(3)
C131_2 C 0.5748(21) 0.1394(15) 0.1096(3)
H68_2 H 0.6488 0.1684 0.1017
C132_2 C 0.5628(27) 0.126(2) 0.1378(3)
H69_2 H 0.6292 0.1446 0.1481
C133_2 C 0.4554(23) 0.0860(17) 0.1499(3)
C134_2 C 0.414(4) 0.071(3) 0.2326(4)
H70_2 H 0.3990 0.0745 0.2515
C137_2 C 0.4423(27) 0.082(2) 0.1788(3)
C138_2 C 0.531(5) 0.167(3) 0.1941(5)
N11_2 N 0.521(3) 0.176(2) 0.2233(5)
O34_2 O 0.4113(11) 0.1443(8) 0.05354(18)
O35_2 O 0.5915(13) 0.1664(9) 0.05480(17)
O38_2 O 0.6666 0.3333 0.0057(2)
Cu7_8 Cu 1.0000 1.0000 0.70003(6)
Cu8_5 Cu 0.0000 0.0000 0.79997(6)
N13_2 N 0.824(4) 0.345(2) 0.2233(5)
N14_2 N 0.655(4) 0.479(3) 0.2233(5)
O41_2 O 0.5749(16) 0.4085(13) 0.05480(17)
O46_2 O 0.6434(9) 0.6724(7) 0.47212(13)
O48 O 0.8170(11) 0.0974(7) 0.49741(17)
O49_2 O 0.9026(11) 0.7196(9) 0.49741(17)
O52 O 0.6098(10) 0.0993(6) 0.49750(15)
O53 O 0.9007(10) 0.5105(8) 0.49750(15)
H83_2 H 0.768701 0.386923 0.31563
H86_2 H 0.613077 0.231299 0.18437
H88_2 H 0.321522 0.420627 0.317442
H89_2 H 0.613077 0.381778 0.31563
H90_2 H 0.249567 0.313609 0.269089
H91 H 0.618222 0.231299 0.31563
C139_2 C 0.4164(13) 0.2964(9) 0.95677(18)
C140_2 C 0.3891(16) 0.2829(11) 0.9274(2)
C141_2 C 0.2852(18) 0.2708(14) 0.9180(2)
H71_2 H 0.2311 0.2742 0.9295
C142_2 C 0.2608(21) 0.2530(15) 0.8903(2)
H72_2 H 0.1889 0.2418 0.8839
C143_2 C 0.3399(21) 0.2522(15) 0.8731(2)
C144_2 C 0.443(3) 0.264(2) 0.8830(3)
H73_2 H 0.4964 0.2589 0.8716
C145_2 C 0.4692(27) 0.284(2) 0.9099(3)
H74_2 H 0.5427 0.2984 0.9160
C146_2 C 0.1956(19) 0.1514(14) 0.8359(2)
H75_2 H 0.1382 0.1096 0.8488
C147_2 C 0.3109(23) 0.2338(16) 0.8443(2)
C148_2 C 0.395(3) 0.297(2) 0.8250(3)
H76_2 H 0.4716 0.3549 0.8296
C149_2 C 0.361(4) 0.271(3) 0.7985(3)
H77_2 H 0.4176 0.3069 0.7851
C150_2 C 0.249(3) 0.196(2) 0.7919(3)
H78_2 H 0.2279 0.1890 0.7741
N12_2 N 0.1639(17) 0.1298(12) 0.81010(19)
O37_2 O 0.4968(9) 0.2815(7) 0.96508(13)
Cl1_6 Cl -0.0000 1.0000 0.7500
H6_2 H 0.2311 0.9569 0.5705
H7_2 H 0.1889 0.9471 0.6161
C35 C 0.660(14) 0.995(8) 0.2783(9)
C36 C 0.622(7) 0.987(4) 0.3076(7)
C101_3 C 0.0000(14) 0.7240(10) 0.5000
C102_3 C 0.0000(11) 0.6015(8) 0.5000
C135_2 C 0.335(12) 0.995(8) 0.2217(9)
C136_2 C 0.365(6) 0.987(4) 0.1924(7)
Cu8_6 Cu -0.0000 1.0000 0.79997(6)
H85_2 H 0.249567 0.935958 0.230911
H87_2 H 0.321522 0.900895 0.182558
H92 H 0.686391 0.935958 0.269089
H93 H 0.579373 0.900895 0.317442
Cl1_7 Cl 1.0000 0.0000 0.7500
C75_5 C 0.7240(10) -0.0000 0.5000
C76_5 C 0.6015(8) 0.0000 0.5000
Cu8_7 Cu 1.0000 0.0000 0.79997(6)
N15_2 N 0.8702(21) 0.0341(12) 0.81010(19)
Cl1_8 Cl 1.0000 1.0000 0.7500
C75_6 C 0.7240(10) 1.0000 0.5000
C76_6 C 0.6015(8) 1.0000 0.5000
O20_2 O 0.7196(9) 0.9026(7) 0.50259(17)
C101_4 C 1.0000(14) 0.7240(10) 0.5000
C102_4 C 1.0000(11) 0.6015(8) 0.5000
Cu8_8 Cu 1.0000 1.0000 0.79997(6)
N16_2 N 0.9659(21) 0.8361(17) 0.81010(19)
C127_3 C 0.3560(12) 0.4953(17) 0.5657(3)
C128_3 C 0.3066(19) 0.3576(28) 0.6337(3)
H66_3 H 0.2642 0.2826 0.6413
C129_3 C 0.3057(17) 0.3695(23) 0.6060(3)
H67_3 H 0.2620 0.3026 0.5955
C130_3 C 0.3684(12) 0.4782(17) 0.5944(3)
C131_3 C 0.4354(15) 0.5748(21) 0.6096(3)
H68_3 H 0.4804 0.6488 0.6017
C132_3 C 0.4368(18) 0.5628(27) 0.6378(3)
H69_3 H 0.4846 0.6292 0.6481
C133_3 C 0.3694(15) 0.4554(23) 0.6499(3)
C134_3 C 0.343(3) 0.414(4) 0.7326(4)
H70_3 H 0.3245 0.3990 0.7515
C135_3 C 0.340(9) 0.335(12) 0.7217(9)
C136_3 C 0.378(4) 0.365(6) 0.6924(7)
C137_3 C 0.3603(18) 0.4423(27) 0.6788(3)
C138_3 C 0.364(4) 0.531(5) 0.6941(5)
C139_3 C 0.1200(9) 0.4164(13) 0.45677(18)
C140_3 C 0.1062(11) 0.3891(16) 0.4274(2)
C141_3 C 0.0144(11) 0.2852(18) 0.4180(2)
C142_3 C 0.0078(14) 0.2608(21) 0.3903(2)
C143_3 C 0.0877(14) 0.3399(21) 0.3731(2)
C144_3 C 0.179(2) 0.443(3) 0.3830(3)
H73_3 H 0.2375 0.4964 0.3716
C145_3 C 0.1852(18) 0.4692(27) 0.4099(3)
H74_3 H 0.2443 0.5427 0.4160
C146_3 C 0.0442(13) 0.1956(19) 0.3359(2)
H75_3 H 0.0286 0.1382 0.3488
C147_3 C 0.0771(17) 0.3109(23) 0.3443(2)
C148_3 C 0.098(2) 0.395(3) 0.3250(3)
H76_3 H 0.1167 0.4716 0.3296
C149_3 C 0.090(3) 0.361(4) 0.2985(3)
H77_3 H 0.1107 0.4176 0.2851
C150_3 C 0.053(2) 0.249(3) 0.2919(3)
H78_3 H 0.0389 0.2279 0.2741
O34_3 O 0.2670(8) 0.4113(11) 0.55354(18)
O35_3 O 0.4251(10) 0.5915(13) 0.55480(17)
O37_3 O 0.2153(6) 0.4968(9) 0.46508(13)
H85_3 H 0.313609 0.249567 0.730911
H86_3 H 0.381778 0.613077 0.68437
H87_3 H 0.420627 0.321522 0.682558
H71_3 H 0.9569 0.2311 0.4295
H72_3 H 0.9471 0.1889 0.3839
C135_4 C 0.005(8) 0.340(9) 0.2217(9)
C136_4 C 0.013(4) 0.378(4) 0.1924(7)
H85_4 H 0.0640419 0.313609 0.230911
H87_4 H 0.0991049 0.420627 0.182558
C127_4 C 0.8607(12) 0.3560(12) 0.0657(3)
C128_4 C 0.949(2) 0.3066(19) 0.1337(3)
H66_4 H 0.9816 0.2642 0.1413
C129_4 C 0.9362(16) 0.3057(17) 0.1060(3)
H67_4 H 0.9594 0.2620 0.0955
C130_4 C 0.8902(12) 0.3684(12) 0.0944(3)
C131_4 C 0.8606(15) 0.4354(15) 0.1096(3)
H68_4 H 0.8316 0.4804 0.1017
C132_4 C 0.874(2) 0.4368(18) 0.1378(3)
H69_4 H 0.8554 0.4846 0.1481
C133_4 C 0.9140(17) 0.3694(15) 0.1499(3)
C134_4 C 0.929(3) 0.343(3) 0.2326(4)
H70_4 H 0.9255 0.3245 0.2515
C137_4 C 0.918(2) 0.3603(18) 0.1788(3)
C138_4 C 0.833(3) 0.364(4) 0.1941(5)
O34_4 O 0.8557(8) 0.2670(8) 0.05354(18)
O35_4 O 0.8336(9) 0.4251(10) 0.05480(17)
H86_4 H 0.768701 0.381778 0.18437
C139_4 C 0.7036(9) 0.1200(9) 0.95677(18)
C140_4 C 0.7171(11) 0.1062(11) 0.9274(2)
C141_4 C 0.7292(14) 0.0144(11) 0.9180(2)
C142_4 C 0.7470(15) 0.0078(14) 0.8903(2)
C143_4 C 0.7478(15) 0.0877(14) 0.8731(2)
C144_4 C 0.736(2) 0.179(2) 0.8830(3)
H73_4 H 0.7411 0.2375 0.8716
C145_4 C 0.716(2) 0.1852(18) 0.9099(3)
H74_4 H 0.7016 0.2443 0.9160
C146_4 C 0.8486(14) 0.0442(13) 0.8359(2)
H75_4 H 0.8904 0.0286 0.8488
C147_4 C 0.7662(16) 0.0771(17) 0.8443(2)
C148_4 C 0.703(2) 0.098(2) 0.8250(3)
H76_4 H 0.6451 0.1167 0.8296
C149_4 C 0.729(3) 0.090(3) 0.7985(3)
H77_4 H 0.6931 0.1107 0.7851
C150_4 C 0.804(2) 0.053(2) 0.7919(3)
H78_4 H 0.8110 0.0389 0.7741
O37_4 O 0.7185(7) 0.2153(6) 0.96508(13)
H71_4 H 0.7258 0.9569 0.9295
H72_4 H 0.7582 0.9471 0.8839
C135_5 C 0.665(12) 0.005(8) 0.7217(9)
C136_5 C 0.635(6) 0.013(4) 0.6924(7)
H85_5 H 0.750433 0.0640419 0.730911
H87_5 H 0.678478 0.0991049 0.682558
C127_5 C 0.5047(17) 0.8607(12) 0.5657(3)
C128_5 C 0.6424(28) 0.949(2) 0.6337(3)
H66_5 H 0.7174 0.9816 0.6413
C129_5 C 0.6305(23) 0.9362(16) 0.6060(3)
H67_5 H 0.6974 0.9594 0.5955
C130_5 C 0.5218(17) 0.8902(12) 0.5944(3)
C131_5 C 0.4252(21) 0.8606(15) 0.6096(3)
H68_5 H 0.3512 0.8316 0.6017
C132_5 C 0.4372(27) 0.874(2) 0.6378(3)
H69_5 H 0.3708 0.8554 0.6481
C133_5 C 0.5446(23) 0.9140(17) 0.6499(3)
C134_5 C 0.586(4) 0.929(3) 0.7326(4)
H70_5 H 0.6010 0.9255 0.7515
C137_5 C 0.5577(27) 0.918(2) 0.6788(3)
C138_5 C 0.469(5) 0.833(3) 0.6941(5)
C139_5 C 0.5836(13) 0.7036(9) 0.45677(18)
C140_5 C 0.6109(16) 0.7171(11) 0.4274(2)
C141_5 C 0.7148(18) 0.7292(14) 0.4180(2)
H71_5 H 0.7689 0.7258 0.4295
C142_5 C 0.7392(21) 0.7470(15) 0.3903(2)
H72_5 H 0.8111 0.7582 0.3839
C143_5 C 0.6601(21) 0.7478(15) 0.3731(2)
C144_5 C 0.557(3) 0.736(2) 0.3830(3)
H73_5 H 0.5036 0.7411 0.3716
C145_5 C 0.5308(27) 0.716(2) 0.4099(3)
H74_5 H 0.4573 0.7016 0.4160
C146_5 C 0.8044(19) 0.8486(14) 0.3359(2)
H75_5 H 0.8618 0.8904 0.3488
C147_5 C 0.6891(23) 0.7662(16) 0.3443(2)
C148_5 C 0.605(3) 0.703(2) 0.3250(3)
H76_5 H 0.5284 0.6451 0.3296
C149_5 C 0.639(4) 0.729(3) 0.2985(3)
H77_5 H 0.5824 0.6931 0.2851
C150_5 C 0.751(3) 0.804(2) 0.2919(3)
H78_5 H 0.7721 0.8110 0.2741
O34_5 O 0.5887(11) 0.8557(8) 0.55354(18)
O37_5 O 0.5032(9) 0.7185(7) 0.46508(13)
H86_5 H 0.386923 0.768701 0.68437
H71_6 H 0.0431 0.7689 0.9295
H72_6 H 0.0529 0.8111 0.8839
C127_6 C 0.6440(12) 0.5047(17) 0.0657(3)
C128_6 C 0.6934(19) 0.6424(28) 0.1337(3)
H66_6 H 0.7358 0.7174 0.1413
C129_6 C 0.6943(17) 0.6305(23) 0.1060(3)
H67_6 H 0.7380 0.6974 0.0955
C130_6 C 0.6316(12) 0.5218(17) 0.0944(3)
C131_6 C 0.5646(15) 0.4252(21) 0.1096(3)
H68_6 H 0.5196 0.3512 0.1017
C132_6 C 0.5632(18) 0.4372(27) 0.1378(3)
H69_6 H 0.5154 0.3708 0.1481
C133_6 C 0.6306(15) 0.5446(23) 0.1499(3)
C134_6 C 0.657(3) 0.586(4) 0.2326(4)
H70_6 H 0.6755 0.6010 0.2515
C135_6 C 0.660(9) 0.665(12) 0.2217(9)
C136_6 C 0.622(4) 0.635(6) 0.1924(7)
C137_6 C 0.6397(18) 0.5577(27) 0.1788(3)
C138_6 C 0.636(4) 0.469(5) 0.1941(5)
O34_6 O 0.7330(8) 0.5887(11) 0.05354(18)
H85_6 H 0.686391 0.750433 0.230911
H86_6 H 0.618222 0.386923 0.18437
H87_6 H 0.579373 0.678478 0.182558
C139_6 C 0.8800(9) 0.5836(13) 0.95677(18)
C140_6 C 0.8938(11) 0.6109(16) 0.9274(2)
C141_6 C 0.9856(11) 0.7148(18) 0.9180(2)
C142_6 C 0.9922(14) 0.7392(21) 0.8903(2)
C143_6 C 0.9123(14) 0.6601(21) 0.8731(2)
C144_6 C 0.821(2) 0.557(3) 0.8830(3)
H73_6 H 0.7625 0.5036 0.8716
C145_6 C 0.8148(18) 0.5308(27) 0.9099(3)
H74_6 H 0.7557 0.4573 0.9160
C146_6 C 0.9558(13) 0.8044(19) 0.8359(2)
H75_6 H 0.9714 0.8618 0.8488
C147_6 C 0.9229(17) 0.6891(23) 0.8443(2)
C148_6 C 0.902(2) 0.605(3) 0.8250(3)
H76_6 H 0.8833 0.5284 0.8296
C149_6 C 0.910(3) 0.639(4) 0.7985(3)
H77_6 H 0.8893 0.5824 0.7851
C150_6 C 0.947(2) 0.751(3) 0.7919(3)
H78_6 H 0.9611 0.7721 0.7741
O37_6 O 0.7847(6) 0.5032(9) 0.96508(13)
loop_
_geom_bond_atom_site_label_1
_geom_bond_atom_site_label_2
_geom_bond_site_symmetry_1
_geom_bond_site_symmetry_2
Cu7 Cl1 1_555 1_555
Cl1 Cu8 1_555 1_555
C25 C26 1_555 1_555
O8 C25 1_555 1_555
O9 C26 1_555 1_555
C63 C64 1_555 1_555
C64 C65 1_555 1_555
C65 H32 1_555 1_555
C66 C65 1_555 1_555
H33 C66 1_555 1_555
C67 C66 1_555 1_555
C68 C67 1_555 1_555
H34 C68 1_555 1_555
C69 C64 1_555 1_555
H35 C69 1_555 1_555
C70 H36 1_555 1_555
C71 C67 1_555 1_555
C72 C71 1_555 1_555
H37 C72 1_555 1_555
C73 C72 1_555 1_555
H38 C73 1_555 1_555
C74 C73 1_555 1_555
H39 C74 1_555 1_555
C75 C76 1_555 1_555
N6 Cu7 1_555 1_555
La12 O8 1_555 1_555
La15 O9 1_555 1_555
O9 La12 1_555 1_555
C63 O16 1_555 1_555
C63 O17 1_555 1_555
C68 C69 1_555 1_555
C70 C71 1_555 1_555
C70 N6 1_555 1_555
C74 N6 1_555 1_555
O16 La12 1_555 1_555
C10 C9 1_555 1_555
C25_2 C26_2 1_555 1_555
La3 O14 1_555 1_555
C51 C54 1_555 1_555
C52 H27 1_555 1_555
C53 C52 1_555 1_555
H28 C53 1_555 1_555
C54 C53 1_555 1_555
C55 C54 1_555 1_555
H29 C55 1_555 1_555
C56 C55 1_555 1_555
H30 C56 1_555 1_555
C57 C52 1_555 1_555
C58 H31 1_555 1_555
C61 C57 1_555 1_555
C62 C61 1_555 1_555
C75_2 C76_2 1_555 1_555
C76_2 O19 1_555 1_555
N5 C58 1_555 1_555
O14 C51 1_555 1_555
O15 C51 1_555 1_555
O18 La3 1_555 1_555
O19 La3 1_555 1_555
La7 O15 1_555 1_555
Cu5 N5 1_555 1_555
N15 Cu8 1_555 1_555
O40 La3 1_555 1_555
O44 La3 1_555 1_555
O54 La3 1_555 1_555
O58 La3 1_555 1_555
C56 C57 1_555 1_555
C62 N5 1_555 1_555
C75_2 O18 1_555 1_555
O19 La7 1_555 1_555
La7 O58 1_555 1_555
La8 O42 1_555 1_555
C10 H88 1_555 1_555
C9 H90 1_555 1_555
C62 H96 1_555 1_555
Cu7_2 Cl1_2 1_555 1_555
Cl1_2 Cu8_2 1_555 1_555
C13 C14 1_555 1_555
C14 C15 1_555 1_555
C16 C15 1_555 1_555
C17 C16 1_555 1_555
C18 C17 1_555 1_555
H8 C18 1_555 1_555
C19 C14 1_555 1_555
H9 C19 1_555 1_555
C20 H10 1_555 1_555
C21 C17 1_555 1_555
C22 C21 1_555 1_555
H11 C22 1_555 1_555
C23 C22 1_555 1_555
H12 C23 1_555 1_555
C24 C23 1_555 1_555
H13 C24 1_555 1_555
C25_3 C26_3 1_555 1_555
N2 Cu7_2 1_555 1_555
C115 C116 1_555 1_555
C116 C117 1_555 1_555
C118 C117 1_555 1_555
C119 C118 1_555 1_555
C120 C119 1_555 1_555
H60 C120 1_555 1_555
C121 C116 1_555 1_555
H61 C121 1_555 1_555
C122 H62 1_555 1_555
C123 C119 1_555 1_555
C124 C123 1_555 1_555
H63 C124 1_555 1_555
C125 C124 1_555 1_555
H64 C125 1_555 1_555
C126 C125 1_555 1_555
H65 C126 1_555 1_555
N10 C122 1_555 1_555
Cu7_4 N10 1_555 1_555
C13 O3 1_555 1_555
C13 O4 1_555 1_555
C18 C19 1_555 1_555
C20 C21 1_555 1_555
C20 N2 1_555 1_555
C24 N2 1_555 1_555
C115 O32 1_555 1_555
C115 O33 1_555 1_555
C120 C121 1_555 1_555
C122 C123 1_555 1_555
C126 N10 1_555 1_555
La7 O1 1_555 1_555
Cu5 N1 1_555 1_555
C1 C4 1_555 1_555
C2 H1 1_555 1_555
C3 C2 1_555 1_555
H2 C3 1_555 1_555
C4 C3 1_555 1_555
C5 C4 1_555 1_555
H3 C5 1_555 1_555
C6 C5 1_555 1_555
H4 C6 1_555 1_555
C7 C2 1_555 1_555
C8 H5 1_555 1_555
C11 C7 1_555 1_555
C12 C11 1_555 1_555
C25_4 C26_4 1_555 1_555
C26_4 O6 1_555 1_555
N1 C8 1_555 1_555
O1 C1 1_555 1_555
O2 C1 1_555 1_555
O5 La7 1_555 1_555
O6 La7 1_555 1_555
La5 O2 1_555 1_555
C103 C106 1_555 1_555
C104 H53 1_555 1_555
C105 C104 1_555 1_555
H54 C105 1_555 1_555
C106 C105 1_555 1_555
C107 C106 1_555 1_555
H55 C107 1_555 1_555
C108 C107 1_555 1_555
H56 C108 1_555 1_555
C109 C104 1_555 1_555
C110 H57 1_555 1_555
C111 C110 1_555 1_555
C112 C111 1_555 1_555
C113 C109 1_555 1_555
C114 C113 1_555 1_555
N9 Cu5 1_555 1_555
O30 La5 1_555 1_555
La6 O34 1_555 1_555
Cu8_2 N12 1_555 1_555
C127 C130 1_555 1_555
C128 H66 1_555 1_555
C129 C128 1_555 1_555
H67 C129 1_555 1_555
C130 C129 1_555 1_555
C131 C130 1_555 1_555
H68 C131 1_555 1_555
C132 C131 1_555 1_555
H69 C132 1_555 1_555
C133 C128 1_555 1_555
C134 H70 1_555 1_555
C137 C133 1_555 1_555
C138 C137 1_555 1_555
C139 C140 1_555 1_555
C140 C141 1_555 1_555
C142 C141 1_555 1_555
C143 C142 1_555 1_555
C144 C143 1_555 1_555
H73 C144 1_555 1_555
C145 C140 1_555 1_555
H74 C145 1_555 1_555
C146 H75 1_555 1_555
C147 C143 1_555 1_555
C148 C147 1_555 1_555
H76 C148 1_555 1_555
C149 C148 1_555 1_555
H77 C149 1_555 1_555
C150 C149 1_555 1_555
H78 C150 1_555 1_555
N11 Cu5 1_555 1_555
N12 C146 1_555 1_555
O34 C127 1_555 1_555
O35 C127 1_555 1_555
O36 La6 1_555 1_555
O37 La6 1_555 1_555
O38 La6 1_555 1_555
La13 O35 1_555 1_555
La16 O38 1_555 1_555
N13 Cu5 1_555 1_555
N14 Cu5 1_555 1_555
O41 La6 1_555 1_555
O49 La5 1_555 1_555
O50 La6 1_555 1_555
O55 La6 1_555 1_555
O56 La6 1_555 1_555
C6 C7 1_555 1_555
C12 N1 1_555 1_555
C25_4 O5 1_555 1_555
O6 La5 1_555 1_555
O58 La5 1_555 1_555
La5 O54 1_555 1_555
C103 O30 1_555 1_555
C103 O40 1_555 1_555
C108 C109 1_555 1_555
C110 N9 1_555 1_555
C112 C113 1_555 1_555
C114 N9 1_555 1_555
C132 C133 1_555 1_555
C134 N11 1_555 1_555
C138 N11 1_555 1_555
C139 O36 1_555 1_555
C139 O37 1_555 1_555
C144 C145 1_555 1_555
C146 C147 1_555 1_555
C150 N12 1_555 1_555
O38 La13 1_555 1_555
La13 O55 1_555 1_555
La16 O56 1_555 1_555
C111 H82 1_555 1_555
C114 H83 1_555 1_555
C112 H84 1_555 1_555
C138 H86 1_555 1_555
C12 H89 1_555 1_555
Cu7_3 Cl1_3 1_555 1_555
Cl1_3 Cu8_3 1_555 1_555
C75_3 C76_3 1_555 1_555
O20 C75_3 1_555 1_555
O21 C76_3 1_555 1_555
La15 O20 1_555 1_555
La18 O21 1_555 1_555
O21 La15 1_555 1_555
C60 C59 1_555 1_555
C75_4 C76_4 1_555 1_555
C60 H94 1_555 1_555
C59 H95 1_555 1_555
Cu7_4 Cl1_4 1_555 1_555
Cl1_4 Cu8_4 1_555 1_555
C101 C102 1_555 1_555
O28 C101 1_555 1_555
O29 C102 1_555 1_555
La12 O29 1_555 1_555
O28 La18 1_555 1_555
O29 La18 1_555 1_555
C101_2 C102_2 1_555 1_555
C102_2 O54 1_555 1_555
C136 C135 1_555 1_555
N16 Cu8_4 1_555 1_555
C101_2 O49 1_555 1_555
C135 H85 1_555 1_555
C136 H87 1_555 1_555
C112_2 C111_2 1_555 1_555
La13 O43 1_555 1_555
C111_2 H82_2 1_555 1_555
C112_2 H84_2 1_555 1_555
La8 O1_2 1_555 1_555
Cu1 N1_2 1_555 1_555
Cu7_5 Cl1_5 1_555 1_555
Cl1_5 Cu8_5 1_555 1_555
C1_2 C4_2 1_555 1_555
C2_2 H1_2 1_555 1_555
C3_2 C2_2 1_555 1_555
H2_2 C3_2 1_555 1_555
C4_2 C3_2 1_555 1_555
C5_2 C4_2 1_555 1_555
H3_2 C5_2 1_555 1_555
C6_2 C5_2 1_555 1_555
H4_2 C6_2 1_555 1_555
C7_2 C2_2 1_555 1_555
C8_2 H5_2 1_555 1_555
C9_2 C8_2 1_555 1_555
C10_2 C9_2 1_555 1_555
C11_2 C7_2 1_555 1_555
C12_2 C11_2 1_555 1_555
C13_2 C14_2 1_555 1_555
C14_2 C15_2 1_555 1_555
C16_2 C15_2 1_555 1_555
C17_2 C16_2 1_555 1_555
C18_2 C17_2 1_555 1_555
H8_2 C18_2 1_555 1_555
C19_2 C14_2 1_555 1_555
H9_2 C19_2 1_555 1_555
C20_2 H10_2 1_555 1_555
C21_2 C17_2 1_555 1_555
C22_2 C21_2 1_555 1_555
H11_2 C22_2 1_555 1_555
C23_2 C22_2 1_555 1_555
H12_2 C23_2 1_555 1_555
C24_2 C23_2 1_555 1_555
H13_2 C24_2 1_555 1_555
C25_5 C26_5 1_555 1_555
C26_5 O6_2 1_555 1_555
N1_2 C8_2 1_555 1_555
N2_2 Cu7_5 1_555 1_555
O1_2 C1_2 1_555 1_555
O2_2 C1_2 1_555 1_555
O4_2 La8 1_555 1_555
O5_2 La8 1_555 1_555
O6_2 La8 1_555 1_555
O7 La8 1_555 1_555
O8_2 C25_5 1_555 1_555
O9_2 C26_5 1_555 1_555
La2 O7 1_555 1_555
C27 C30 1_555 1_555
C28 H14 1_555 1_555
C29 C28 1_555 1_555
H15 C29 1_555 1_555
C30 C29 1_555 1_555
C31 C30 1_555 1_555
H16 C31 1_555 1_555
C32 C31 1_555 1_555
H17 C32 1_555 1_555
C33 C28 1_555 1_555
C34 H18 1_555 1_555
C37 C33 1_555 1_555
C38 C37 1_555 1_555
C39 C40 1_555 1_555
C40 C41 1_555 1_555
C42 C41 1_555 1_555
C43 C42 1_555 1_555
C44 C43 1_555 1_555
H21 C44 1_555 1_555
C45 C40 1_555 1_555
H22 C45 1_555 1_555
C46 H23 1_555 1_555
C47 C43 1_555 1_555
C48 C47 1_555 1_555
H24 C48 1_555 1_555
C49 C48 1_555 1_555
H25 C49 1_555 1_555
C50 C49 1_555 1_555
H26 C50 1_555 1_555
N3 Cu1 1_555 1_555
N4 C46 1_555 1_555
O10 La2 1_555 1_555
O11 La8 1_555 1_555
O12 La2 1_555 1_555
O13 La2 1_555 1_555
La5_2 O2_2 1_555 1_555
C103_2 C106_2 1_555 1_555
C104_2 H53_2 1_555 1_555
C105_2 C104_2 1_555 1_555
H54_2 C105_2 1_555 1_555
C106_2 C105_2 1_555 1_555
C107_2 C106_2 1_555 1_555
H55_2 C107_2 1_555 1_555
C108_2 C107_2 1_555 1_555
H56_2 C108_2 1_555 1_555
C109_2 C104_2 1_555 1_555
C110_2 H57_2 1_555 1_555
C113_2 C109_2 1_555 1_555
C114_2 C113_2 1_555 1_555
C115_2 C116_2 1_555 1_555
C116_2 C117_2 1_555 1_555
C117_2 H58_2 1_555 1_555
C118_2 C117_2 1_555 1_555
H59_2 C118_2 1_555 1_555
C119_2 C118_2 1_555 1_555
C120_2 C119_2 1_555 1_555
H60_2 C120_2 1_555 1_555
C121_2 C116_2 1_555 1_555
H61_2 C121_2 1_555 1_555
C122_2 H62_2 1_555 1_555
C123_2 C119_2 1_555 1_555
C124_2 C123_2 1_555 1_555
H63_2 C124_2 1_555 1_555
C125_2 C124_2 1_555 1_555
H64_2 C125_2 1_555 1_555
C126_2 C125_2 1_555 1_555
H65_2 C126_2 1_555 1_555
N9_2 Cu1 1_555 1_555
N10_2 C122_2 1_555 1_555
O30_2 La5_2 1_555 1_555
O31 La2 1_555 1_555
O32_2 La5_2 1_555 1_555
O33_2 La5_2 1_555 1_555
La12 O34_2 1_555 1_555
C127_2 C130_2 1_555 1_555
C128_2 H66_2 1_555 1_555
C129_2 C128_2 1_555 1_555
H67_2 C129_2 1_555 1_555
C130_2 C129_2 1_555 1_555
C131_2 C130_2 1_555 1_555
H68_2 C131_2 1_555 1_555
C132_2 C131_2 1_555 1_555
H69_2 C132_2 1_555 1_555
C133_2 C128_2 1_555 1_555
C134_2 H70_2 1_555 1_555
C137_2 C133_2 1_555 1_555
C138_2 C137_2 1_555 1_555
N11_2 Cu1 1_555 1_555
O34_2 C127_2 1_555 1_555
O35_2 C127_2 1_555 1_555
O38_2 La12 1_555 1_555
La13 O8_2 1_555 1_555
La15 O35_2 1_555 1_555
La16 O9_2 1_555 1_555
La18 O38_2 1_555 1_555
Cu7_7 N4 1_555 1_555
Cu7_8 N10_2 1_555 1_555
N13_2 Cu1 1_555 1_555
N14_2 Cu1 1_555 1_555
O41_2 La12 1_555 1_555
O46_2 La5_2 1_555 1_555
O48 La2 1_555 1_555
O49_2 La5_2 1_555 1_555
O52 La8 1_555 1_555
O53 La2 1_555 1_555
C6_2 C7_2 1_555 1_555
C10_2 C11_2 1_555 1_555
C12_2 N1_2 1_555 1_555
C13_2 O42 1_555 1_555
C13_2 O4_2 1_555 1_555
C18_2 C19_2 1_555 1_555
C20_2 C21_2 1_555 1_555
C20_2 N2_2 1_555 1_555
C24_2 N2_2 1_555 1_555
C25_5 O5_2 1_555 1_555
O6_2 La5_2 1_555 1_555
O7 La5_2 1_555 1_555
O9_2 La13 1_555 1_555
La2 O52 1_555 1_555
C27 O10 1_555 1_555
C27 O11 1_555 1_555
C32 C33 1_555 1_555
C34 N3 1_555 1_555
C38 N3 1_555 1_555
C39 O12 1_555 1_555
C39 O13 1_555 1_555
C44 C45 1_555 1_555
C46 C47 1_555 1_555
C50 N4 1_555 1_555
La5_2 O53 1_555 1_555
C103_2 O30_2 1_555 1_555
C103_2 O31 1_555 1_555
C108_2 C109_2 1_555 1_555
C110_2 N9_2 1_555 1_555
C114_2 N9_2 1_555 1_555
C115_2 O32_2 1_555 1_555
C115_2 O33_2 1_555 1_555
C120_2 C121_2 1_555 1_555
C122_2 C123_2 1_555 1_555
C126_2 N10_2 1_555 1_555
O32_2 La16 1_555 1_555
C132_2 C133_2 1_555 1_555
C134_2 N11_2 1_555 1_555
C138_2 N11_2 1_555 1_555
O38_2 La15 1_555 1_555
La16 O46_2 1_555 1_555
C114_2 H83_2 1_555 1_555
C138_2 H86_2 1_555 1_555
C10_2 H88_2 1_555 1_555
C12_2 H89_2 1_555 1_555
C9_2 H90_2 1_555 1_555
C38 H91 1_555 1_555
Cu8_5 N12_2 1_555 1_555
C139_2 C140_2 1_555 1_555
C140_2 C141_2 1_555 1_555
C141_2 H71_2 1_555 1_555
C142_2 C141_2 1_555 1_555
H72_2 C142_2 1_555 1_555
C143_2 C142_2 1_555 1_555
C144_2 C143_2 1_555 1_555
H73_2 C144_2 1_555 1_555
C145_2 C140_2 1_555 1_555
H74_2 C145_2 1_555 1_555
C146_2 H75_2 1_555 1_555
C147_2 C143_2 1_555 1_555
C148_2 C147_2 1_555 1_555
H76_2 C148_2 1_555 1_555
C149_2 C148_2 1_555 1_555
H77_2 C149_2 1_555 1_555
C150_2 C149_2 1_555 1_555
H78_2 C150_2 1_555 1_555
N12_2 C146_2 1_555 1_555
C139_2 O44 1_555 1_555
C139_2 O37_2 1_555 1_555
C144_2 C145_2 1_555 1_555
C146_2 C147_2 1_555 1_555
C150_2 N12_2 1_555 1_555
Cu7_6 Cl1_6 1_555 1_555
Cl1_6 Cu8_6 1_555 1_555
C36 C35 1_555 1_555
C101_3 C102_3 1_555 1_555
O50 C101_3 1_555 1_555
O55 C102_3 1_555 1_555
C136_2 C135_2 1_555 1_555
C135_2 H85_2 1_555 1_555
C136_2 H87_2 1_555 1_555
C35 H92 1_555 1_555
C36 H93 1_555 1_555
Cu7_7 Cl1_7 1_555 1_555
Cl1_7 Cu8_7 1_555 1_555
C75_5 C76_5 1_555 1_555
C76_5 O52 1_555 1_555
C75_5 O48 1_555 1_555
N15_2 Cu8_7 1_555 1_555
Cu7_8 Cl1_8 1_555 1_555
Cl1_8 Cu8_8 1_555 1_555
C75_6 C76_6 1_555 1_555
O20_2 C75_6 1_555 1_555
O56 C76_6 1_555 1_555
C101_4 C102_4 1_555 1_555
C102_4 O53 1_555 1_555
La16 O20_2 1_555 1_555
C101_4 O49_2 1_555 1_555
N16_2 Cu8_8 1_555 1_555
La13 O34_3 1_555 1_555
C127_3 C130_3 1_555 1_555
C128_3 H66_3 1_555 1_555
C129_3 C128_3 1_555 1_555
H67_3 C129_3 1_555 1_555
C130_3 C129_3 1_555 1_555
C131_3 C130_3 1_555 1_555
H68_3 C131_3 1_555 1_555
C132_3 C131_3 1_555 1_555
H69_3 C132_3 1_555 1_555
C133_3 C128_3 1_555 1_555
C134_3 H70_3 1_555 1_555
C135_3 C134_3 1_555 1_555
C136_3 C135_3 1_555 1_555
C137_3 C133_3 1_555 1_555
C138_3 C137_3 1_555 1_555
C139_3 C140_3 1_555 1_555
C140_3 C141_3 1_555 1_555
C142_3 C141_3 1_555 1_555
C143_3 C142_3 1_555 1_555
C144_3 C143_3 1_555 1_555
H73_3 C144_3 1_555 1_555
C145_3 C140_3 1_555 1_555
H74_3 C145_3 1_555 1_555
C146_3 H75_3 1_555 1_555
C147_3 C143_3 1_555 1_555
C148_3 C147_3 1_555 1_555
H76_3 C148_3 1_555 1_555
C149_3 C148_3 1_555 1_555
H77_3 C149_3 1_555 1_555
C150_3 C149_3 1_555 1_555
H78_3 C150_3 1_555 1_555
N15 C146_3 1_555 1_555
O34_3 C127_3 1_555 1_555
O35_3 C127_3 1_555 1_555
O37_3 La13 1_555 1_555
La16 O35_3 1_555 1_555
C132_3 C133_3 1_555 1_555
C134_3 N13 1_555 1_555
C136_3 C137_3 1_555 1_555
C138_3 N13 1_555 1_555
C139_3 O43 1_555 1_555
C139_3 O37_3 1_555 1_555
C144_3 C145_3 1_555 1_555
C146_3 C147_3 1_555 1_555
C150_3 N15 1_555 1_555
C135_3 H85_3 1_555 1_555
C138_3 H86_3 1_555 1_555
C136_3 H87_3 1_555 1_555
C136_4 C135_4 1_555 1_555
C135_4 H85_4 1_555 1_555
C136_4 H87_4 1_555 1_555
La15 O34_4 1_555 1_555
C127_4 C130_4 1_555 1_555
C128_4 H66_4 1_555 1_555
C129_4 C128_4 1_555 1_555
H67_4 C129_4 1_555 1_555
C130_4 C129_4 1_555 1_555
C131_4 C130_4 1_555 1_555
H68_4 C131_4 1_555 1_555
C132_4 C131_4 1_555 1_555
H69_4 C132_4 1_555 1_555
C133_4 C128_4 1_555 1_555
C134_4 H70_4 1_555 1_555
C137_4 C133_4 1_555 1_555
C138_4 C137_4 1_555 1_555
O34_4 C127_4 1_555 1_555
O35_4 C127_4 1_555 1_555
La18 O35_4 1_555 1_555
C132_4 C133_4 1_555 1_555
C134_4 N13_2 1_555 1_555
C138_4 N13_2 1_555 1_555
C138_4 H86_4 1_555 1_555
C139_4 C140_4 1_555 1_555
C140_4 C141_4 1_555 1_555
C142_4 C141_4 1_555 1_555
C143_4 C142_4 1_555 1_555
C144_4 C143_4 1_555 1_555
H73_4 C144_4 1_555 1_555
C145_4 C140_4 1_555 1_555
H74_4 C145_4 1_555 1_555
C146_4 H75_4 1_555 1_555
C147_4 C143_4 1_555 1_555
C148_4 C147_4 1_555 1_555
H76_4 C148_4 1_555 1_555
C149_4 C148_4 1_555 1_555
H77_4 C149_4 1_555 1_555
C150_4 C149_4 1_555 1_555
H78_4 C150_4 1_555 1_555
N15_2 C146_4 1_555 1_555
C139_4 O46 1_555 1_555
C139_4 O37_4 1_555 1_555
C144_4 C145_4 1_555 1_555
C146_4 C147_4 1_555 1_555
C150_4 N15_2 1_555 1_555
C136_5 C135_5 1_555 1_555
C135_5 H85_5 1_555 1_555
C136_5 H87_5 1_555 1_555
La16 O34_5 1_555 1_555
C127_5 C130_5 1_555 1_555
C128_5 H66_5 1_555 1_555
C129_5 C128_5 1_555 1_555
H67_5 C129_5 1_555 1_555
C130_5 C129_5 1_555 1_555
C131_5 C130_5 1_555 1_555
H68_5 C131_5 1_555 1_555
C132_5 C131_5 1_555 1_555
H69_5 C132_5 1_555 1_555
C133_5 C128_5 1_555 1_555
C134_5 H70_5 1_555 1_555
C137_5 C133_5 1_555 1_555
C138_5 C137_5 1_555 1_555
C139_5 C140_5 1_555 1_555
C140_5 C141_5 1_555 1_555
C141_5 H71_5 1_555 1_555
C142_5 C141_5 1_555 1_555
H72_5 C142_5 1_555 1_555
C143_5 C142_5 1_555 1_555
C144_5 C143_5 1_555 1_555
H73_5 C144_5 1_555 1_555
C145_5 C140_5 1_555 1_555
H74_5 C145_5 1_555 1_555
C146_5 H75_5 1_555 1_555
C147_5 C143_5 1_555 1_555
C148_5 C147_5 1_555 1_555
H76_5 C148_5 1_555 1_555
C149_5 C148_5 1_555 1_555
H77_5 C149_5 1_555 1_555
C150_5 C149_5 1_555 1_555
H78_5 C150_5 1_555 1_555
N16 C146_5 1_555 1_555
O34_5 C127_5 1_555 1_555
O41 C127_5 1_555 1_555
O37_5 La16 1_555 1_555
C132_5 C133_5 1_555 1_555
C134_5 N14 1_555 1_555
C138_5 N14 1_555 1_555
C139_5 O46_2 1_555 1_555
C139_5 O37_5 1_555 1_555
C144_5 C145_5 1_555 1_555
C146_5 C147_5 1_555 1_555
C150_5 N16 1_555 1_555
C138_5 H86_5 1_555 1_555
La18 O34_6 1_555 1_555
C127_6 C130_6 1_555 1_555
C128_6 H66_6 1_555 1_555
C129_6 C128_6 1_555 1_555
H67_6 C129_6 1_555 1_555
C130_6 C129_6 1_555 1_555
C131_6 C130_6 1_555 1_555
H68_6 C131_6 1_555 1_555
C132_6 C131_6 1_555 1_555
H69_6 C132_6 1_555 1_555
C133_6 C128_6 1_555 1_555
C134_6 H70_6 1_555 1_555
C135_6 C134_6 1_555 1_555
C136_6 C135_6 1_555 1_555
C137_6 C133_6 1_555 1_555
C138_6 C137_6 1_555 1_555
O34_6 C127_6 1_555 1_555
O41_2 C127_6 1_555 1_555
C132_6 C133_6 1_555 1_555
C134_6 N14_2 1_555 1_555
C136_6 C137_6 1_555 1_555
C138_6 N14_2 1_555 1_555
C135_6 H85_6 1_555 1_555
C138_6 H86_6 1_555 1_555
C136_6 H87_6 1_555 1_555
C139_6 C140_6 1_555 1_555
C140_6 C141_6 1_555 1_555
C142_6 C141_6 1_555 1_555
C143_6 C142_6 1_555 1_555
C144_6 C143_6 1_555 1_555
H73_6 C144_6 1_555 1_555
C145_6 C140_6 1_555 1_555
H74_6 C145_6 1_555 1_555
C146_6 H75_6 1_555 1_555
C147_6 C143_6 1_555 1_555
C148_6 C147_6 1_555 1_555
H76_6 C148_6 1_555 1_555
C149_6 C148_6 1_555 1_555
H77_6 C149_6 1_555 1_555
C150_6 C149_6 1_555 1_555
H78_6 C150_6 1_555 1_555
N16_2 C146_6 1_555 1_555
C139_6 O47 1_555 1_555
C139_6 O37_6 1_555 1_555
C144_6 C145_6 1_555 1_555
C146_6 C147_6 1_555 1_555
C150_6 N16_2 1_555 1_555

#END
