
###############################################################################
#
# This file contains modified crystal structure data generated from the
# MOF subset of the Cambridge Structural Database (CSD) v543 
# hosted by the Cambridge Crystallographic Data Centre (CCDC).
#
# This work is licensed under the Creative Commons
# Attribution-NonCommercial-ShareAlike 4.0 International License.
# To view a copy of this license, visit
# http://creativecommons.org/licenses/by-nc-sa/4.0/
# or send a letter to
# Creative Commons, PO Box 1866, Mountain View, CA 94042, USA.
#
# CIF created using the CSD Python API on 29 September 2022
# The structure has been converted into the P1 space group
# The structure has a 3D framework
# The original CSD entry JUXSEC is in the trigonal crystal system
# The original CSD entry JUXSEC is in a Sohncke space group
# The framework has been calculated to contain at least 10.0% void space
# The void calculation uses a probe of radius 1.32A, grid spacing 0.4
# The framework is charged, counterions have been retained in the structure
#
###############################################################################

data_JUXSEC
_chemical_formula_moiety         '(C96 H36 O48 Tb6 6-)n'
_symmetry_cell_setting           triclinic
_symmetry_space_group_name_H-M   'P 1'
_symmetry_Int_Tables_number      1
_space_group_name_Hall           'P 1'
loop_
_symmetry_equiv_pos_site_id
_symmetry_equiv_pos_as_xyz
1 x,y,z
_cell_length_a                   13.7685(19)
_cell_length_b                   13.7685(19)
_cell_length_c                   22.892(5)
_cell_angle_alpha                90
_cell_angle_beta                 90
_cell_angle_gamma                120
_cell_volume                     3758.27
loop_
_atom_site_label
_atom_site_type_symbol
_atom_site_fract_x
_atom_site_fract_y
_atom_site_fract_z
O5 O 0.2687(5) 0.1218(4) 0.5528(2)
O8 O 0.2768(6) 0.1780(5) 0.4615(2)
C16 C 0.2637(7) 0.1068(7) 0.4992(4)
Tb3 Tb 0.30526(5) 0.33433(4) 0.41038(2)
Tb6 Tb 0.33433(4) 0.30526(5) 0.58962(2)
O9 O 0.7229(6) 0.1211(6) 0.6738(3)
O10 O 0.8149(6) 0.0299(5) 0.6655(3)
O12 O 0.6028(4) 0.0813(6) 0.7851(2)
O14 O 0.8220(5) 0.0988(8) 0.7948(2)
Tb1 Tb 0.66567(4) 0.97093(3) 0.74371(2)
O1 O 0.5802(6) 0.8144(4) 0.6749(2)
O2 O 0.5092(6) 0.9237(6) 0.6768(3)
O3 O 0.1211(6) 0.7229(6) 0.3262(3)
O4 O 0.0299(5) 0.8149(6) 0.3345(3)
O6 O 0.3972(4) 0.4785(4) 0.5482(2)
O7 O 0.3232(5) 0.4893(5) 0.4632(3)
C1 C 0.1710(8) 0.8466(7) 0.4064(4)
C2 C 0.1009(8) 0.7933(8) 0.3520(4)
C3 C 0.5161(8) 0.8457(7) 0.6536(4)
C4 C 0.2182(7) 0.7947(9) 0.4369(4)
H1 H 0.2082 0.7265 0.4234
C5 C 0.2811(8) 0.8414(7) 0.4877(4)
C6 C 0.1831(8) 0.9497(7) 0.4264(4)
H2 H 0.1516 0.9855 0.4059
C7 C 0.2432(7) 0.9956(7) 0.4775(4)
C8 C 0.4482(8) 0.7853(8) 0.6009(4)
C9 C 0.3964(7) 0.8352(8) 0.5703(4)
H3 H 0.4038 0.9022 0.5839
C10 C 0.4351(8) 0.6860(7) 0.5822(4)
H4 H 0.4679 0.6518 0.6030
C11 C 0.3629(8) 0.5256(7) 0.5129(4)
C12 C 0.3740(7) 0.6355(7) 0.5330(4)
C13 C 0.3243(7) 0.6849(7) 0.5020(4)
H5 H 0.2834 0.6502 0.4685
C14 C 0.3345(8) 0.7869(8) 0.5203(4)
C15 C 0.2869(9) 0.9397(8) 0.5080(4)
H6 H 0.3219 0.9689 0.5436
O11 O 0.7313(5) 0.8531(6) 0.7805(2)
O13 O 0.5107(5) 0.8339(7) 0.7965(3)
Tb4 Tb 0.97093(3) 0.66567(4) 0.25629(2)
Tb5 Tb 0.69474(5) 0.02907(6) 0.92296(2)
Tb1_2 Tb 0.02907(3) 0.69474(5) 0.07704(2)
O1_2 O 0.1856(4) 0.7658(7) 0.0082(2)
O2_2 O 0.0763(6) 0.5855(8) 0.0101(3)
O11_2 O 0.1469(6) 0.8782(8) 0.1139(2)
O13_2 O 0.1661(7) 0.6768(9) 0.1299(3)
O3_2 O 0.2771(6) 0.3982(8) 0.6595(3)
O4_2 O 0.1851(6) 0.2150(8) 0.6678(3)
O6_2 O 0.5215(4) 0.9187(6) 0.8815(2)
C1_2 C 0.1534(7) 0.3244(11) 0.7397(4)
C2_2 C 0.2067(8) 0.3076(11) 0.6853(4)
C3_2 C 0.1543(7) 0.6704(11) 0.9869(4)
C4_2 C 0.2053(9) 0.4235(11) 0.7702(4)
H1_2 H 0.2735 0.4817 0.7567
C5_2 C 0.1586(7) 0.4397(11) 0.8210(4)
C6_2 C 0.0503(7) 0.2334(11) 0.7597(4)
H2_2 H 0.0145 0.1661 0.7392
C7_2 C 0.0044(7) 0.2476(10) 0.8108(4)
C8_2 C 0.2147(8) 0.6629(11) 0.9342(4)
C9_2 C 0.1648(8) 0.5612(11) 0.9036(4)
H3_2 H 0.0978 0.5016 0.9172
C10_2 C 0.3140(7) 0.7491(11) 0.9155(4)
H4_2 H 0.3482 0.8161 0.9363
C11_2 C 0.4744(7) 0.8373(11) 0.8462(4)
C12_2 C 0.3645(7) 0.7385(10) 0.8663(4)
C13_2 C 0.3151(7) 0.6394(10) 0.8353(4)
H5_2 H 0.3498 0.6332 0.8018
C14_2 C 0.2131(8) 0.5476(11) 0.8536(4)
C15_2 C 0.0603(8) 0.3472(12) 0.8413(4)
H6_2 H 0.0311 0.3530 0.8769
O9_2 O 0.8789(6) 0.6018(8) 0.0071(3)
O12_2 O 0.9187(6) 0.5215(7) 0.1185(2)
O14_2 O 0.9012(8) 0.7232(9) 0.1282(2)
O5_2 O 0.8782(4) 0.1469(6) 0.8861(2)
C16_2 C 0.8932(7) 0.1569(10) 0.8325(4)
O10_2 O 0.9701(5) 0.7850(8) 0.9988(3)
O1_3 O 0.2342(7) 0.4198(6) 0.3416(2)
O2_3 O 0.4145(8) 0.4908(6) 0.3435(3)
O4_3 O 0.7850(8) 0.9701(5) 0.0012(3)
O5_3 O 0.8531(6) 0.7313(5) 0.2195(2)
O6_3 O 0.0813(6) 0.6028(4) 0.2149(2)
C1_3 C 0.6756(11) 0.8290(8) 0.0731(4)
C2_3 C 0.6924(11) 0.8991(8) 0.0187(4)
C3_3 C 0.3296(11) 0.4839(8) 0.3203(4)
C4_3 C 0.5765(11) 0.7818(7) 0.1036(4)
H1_3 H 0.5183 0.7918 0.0901
C5_3 C 0.5603(11) 0.7189(8) 0.1544(4)
C6_3 C 0.7666(11) 0.8169(8) 0.0931(4)
H2_3 H 0.8339 0.8484 0.0726
C7_3 C 0.7524(10) 0.7568(7) 0.1442(4)
C8_3 C 0.3371(11) 0.5518(8) 0.2676(4)
C9_3 C 0.4388(11) 0.6036(7) 0.2370(4)
H3_3 H 0.4984 0.5962 0.2506
C10_3 C 0.2509(11) 0.5649(8) 0.2489(4)
H4_3 H 0.1839 0.5321 0.2697
C11_3 C 0.1627(11) 0.6371(8) 0.1796(4)
C12_3 C 0.2615(10) 0.6260(7) 0.1997(4)
C13_3 C 0.3606(10) 0.6757(7) 0.1687(4)
H5_3 H 0.3668 0.7166 0.1352
C14_3 C 0.4524(11) 0.6655(8) 0.1870(4)
C15_3 C 0.6528(12) 0.7131(9) 0.1747(4)
H6_3 H 0.6470 0.6781 0.2103
C16_3 C 0.8431(10) 0.7363(7) 0.1659(4)
O9_3 O 0.3982(8) 0.2771(6) 0.3405(3)
O10_3 O 0.2150(8) 0.1851(6) 0.3322(3)
O11_3 O 0.1218(8) 0.2687(5) 0.4472(2)
O12_3 O 0.4785(7) 0.3972(4) 0.4518(2)
O3_3 O 0.6018(8) 0.8789(6) 0.9929(3)
O8_2 O 0.1780(5) 0.2768(6) 0.5385(2)
C16_4 C 0.1068(7) 0.2637(7) 0.5008(4)
O14_3 O 0.0988(8) 0.8220(5) 0.2052(2)
O1_4 O 0.8144(4) 0.5802(6) 0.3251(2)
O2_4 O 0.9237(6) 0.5092(6) 0.3232(3)
O7_2 O 0.4893(5) 0.3232(5) 0.5368(3)
C1_4 C 0.8466(7) 0.1710(8) 0.5936(4)
C2_4 C 0.7933(8) 0.1009(8) 0.6480(4)
C3_4 C 0.8457(7) 0.5161(8) 0.3464(4)
C4_4 C 0.7947(9) 0.2182(7) 0.5631(4)
H1_4 H 0.7265 0.2082 0.5766
C5_4 C 0.8414(7) 0.2811(8) 0.5123(4)
C6_4 C 0.9497(7) 0.1831(8) 0.5736(4)
H2_4 H 0.9855 0.1516 0.5941
C7_4 C 0.9956(7) 0.2432(7) 0.5225(4)
C8_4 C 0.7853(8) 0.4482(8) 0.3991(4)
C9_4 C 0.8352(8) 0.3964(7) 0.4297(4)
H3_4 H 0.9022 0.4038 0.4161
C10_4 C 0.6860(7) 0.4351(8) 0.4178(4)
H4_4 H 0.6518 0.4679 0.3970
C11_4 C 0.5256(7) 0.3629(8) 0.4871(4)
C12_4 C 0.6355(7) 0.3740(7) 0.4670(4)
C13_4 C 0.6849(7) 0.3243(7) 0.4980(4)
H5_4 H 0.6502 0.2834 0.5315
C14_4 C 0.7869(8) 0.3345(8) 0.4797(4)
C15_4 C 0.9397(8) 0.2869(9) 0.4920(4)
H6_4 H 0.9689 0.3219 0.4564
O13_3 O 0.8339(7) 0.5107(5) 0.2035(3)
O1_5 O 0.4198(6) 0.2342(7) 0.6584(2)
O2_5 O 0.4908(6) 0.4145(8) 0.6565(3)
O7_3 O 0.6768(5) 0.1661(7) 0.8701(3)
O8_3 O 0.7232(6) 0.9012(8) 0.8718(2)
C1_5 C 0.8290(8) 0.6756(11) 0.9269(4)
C2_5 C 0.8991(8) 0.6924(11) 0.9813(4)
C3_5 C 0.4839(8) 0.3296(11) 0.6797(4)
C4_5 C 0.7818(7) 0.5765(11) 0.8964(4)
H1_5 H 0.7918 0.5183 0.9099
C5_5 C 0.7189(8) 0.5603(11) 0.8456(4)
C6_5 C 0.8169(8) 0.7666(11) 0.9069(4)
H2_5 H 0.8484 0.8339 0.9274
C7_5 C 0.7568(7) 0.7524(10) 0.8558(4)
C8_5 C 0.5518(8) 0.3371(11) 0.7324(4)
C9_5 C 0.6036(7) 0.4388(11) 0.7630(4)
H3_5 H 0.5962 0.4984 0.7494
C10_5 C 0.5649(8) 0.2509(11) 0.7511(4)
H4_5 H 0.5321 0.1839 0.7303
C11_5 C 0.6371(8) 0.1627(11) 0.8204(4)
C12_5 C 0.6260(7) 0.2615(10) 0.8003(4)
C13_5 C 0.6757(7) 0.3606(10) 0.8313(4)
H5_5 H 0.7166 0.3668 0.8648
C14_5 C 0.6655(8) 0.4524(11) 0.8130(4)
C15_5 C 0.7131(9) 0.6528(12) 0.8253(4)
H6_5 H 0.6781 0.6470 0.7897
C16_5 C 0.7363(7) 0.8431(10) 0.8341(4)
C1_6 C 0.3244(11) 0.1534(7) 0.2603(4)
C2_6 C 0.3076(11) 0.2067(8) 0.3147(4)
C3_6 C 0.6704(11) 0.1543(7) 0.0131(4)
C4_6 C 0.4235(11) 0.2053(9) 0.2298(4)
H1_6 H 0.4817 0.2735 0.2433
C5_6 C 0.4397(11) 0.1586(7) 0.1790(4)
C6_6 C 0.2334(11) 0.0503(7) 0.2403(4)
H2_6 H 0.1661 0.0145 0.2608
C7_6 C 0.2476(10) 0.0044(7) 0.1892(4)
C8_6 C 0.6629(11) 0.2147(8) 0.0658(4)
C9_6 C 0.5612(11) 0.1648(8) 0.0964(4)
H3_6 H 0.5016 0.0978 0.0828
C10_6 C 0.7491(11) 0.3140(7) 0.0845(4)
H4_6 H 0.8161 0.3482 0.0637
C11_6 C 0.8373(11) 0.4744(7) 0.1538(4)
C12_6 C 0.7385(10) 0.3645(7) 0.1337(4)
C13_6 C 0.6394(10) 0.3151(7) 0.1647(4)
H5_6 H 0.6332 0.3498 0.1982
C14_6 C 0.5476(11) 0.2131(8) 0.1464(4)
C15_6 C 0.3472(12) 0.0603(8) 0.1587(4)
H6_6 H 0.3530 0.0311 0.1231
O1_6 O 0.7658(7) 0.1856(4) 0.9918(2)
O2_6 O 0.5855(8) 0.0763(6) 0.9899(3)
C16_6 C 0.1569(10) 0.8932(7) 0.1675(4)
loop_
_geom_bond_atom_site_label_1
_geom_bond_atom_site_label_2
_geom_bond_site_symmetry_1
_geom_bond_site_symmetry_2
O5 C16 1_555 1_555
O8 C16 1_555 1_555
Tb3 O8 1_555 1_555
Tb6 O5 1_555 1_555
Tb1 O1 1_555 1_555
O1 C3 1_555 1_555
O2 Tb1 1_555 1_555
O3 C2 1_555 1_555
O4 C2 1_555 1_555
O6 C11 1_555 1_555
O7 C11 1_555 1_555
C1 C2 1_555 1_555
C3 O2 1_555 1_555
C4 C1 1_555 1_555
H1 C4 1_555 1_555
C5 C4 1_555 1_555
C6 C1 1_555 1_555
H2 C6 1_555 1_555
C7 C6 1_555 1_555
C8 C3 1_555 1_555
C9 C8 1_555 1_555
H3 C9 1_555 1_555
C10 C8 1_555 1_555
H4 C10 1_555 1_555
C11 C12 1_555 1_555
C12 C10 1_555 1_555
C13 C12 1_555 1_555
H5 C13 1_555 1_555
C14 C5 1_555 1_555
C15 C5 1_555 1_555
H6 C15 1_555 1_555
Tb3 O7 1_555 1_555
Tb6 O6 1_555 1_555
O11 Tb1 1_555 1_555
O13 Tb1 1_555 1_555
C7 C15 1_555 1_555
C9 C14 1_555 1_555
C13 C14 1_555 1_555
Tb1_2 O1_2 1_555 1_555
O2_2 Tb1_2 1_555 1_555
O11_2 Tb1_2 1_555 1_555
O13_2 Tb1_2 1_555 1_555
O3_2 C2_2 1_555 1_555
O4_2 C2_2 1_555 1_555
O6_2 C11_2 1_555 1_555
O13 C11_2 1_555 1_555
C1_2 C2_2 1_555 1_555
C4_2 C1_2 1_555 1_555
H1_2 C4_2 1_555 1_555
C5_2 C4_2 1_555 1_555
C6_2 C1_2 1_555 1_555
H2_2 C6_2 1_555 1_555
C7_2 C6_2 1_555 1_555
C8_2 C3_2 1_555 1_555
C9_2 C8_2 1_555 1_555
H3_2 C9_2 1_555 1_555
C10_2 C8_2 1_555 1_555
H4_2 C10_2 1_555 1_555
C11_2 C12_2 1_555 1_555
C12_2 C10_2 1_555 1_555
C13_2 C12_2 1_555 1_555
H5_2 C13_2 1_555 1_555
C14_2 C5_2 1_555 1_555
C15_2 C5_2 1_555 1_555
H6_2 C15_2 1_555 1_555
Tb6 O3_2 1_555 1_555
O4_2 Tb6 1_555 1_555
C7_2 C15_2 1_555 1_555
C9_2 C14_2 1_555 1_555
C13_2 C14_2 1_555 1_555
O5_2 C16_2 1_555 1_555
O14 C16_2 1_555 1_555
Tb5 O5_2 1_555 1_555
Tb3 O1_3 1_555 1_555
O1_3 C3_3 1_555 1_555
O2_3 Tb3 1_555 1_555
O4_3 C2_3 1_555 1_555
O5_3 C16_3 1_555 1_555
O6_3 C11_3 1_555 1_555
O13_2 C11_3 1_555 1_555
O14_2 C16_3 1_555 1_555
C1_3 C2_3 1_555 1_555
C3_3 O2_3 1_555 1_555
C4_3 C1_3 1_555 1_555
H1_3 C4_3 1_555 1_555
C5_3 C4_3 1_555 1_555
C6_3 C1_3 1_555 1_555
H2_3 C6_3 1_555 1_555
C7_3 C6_3 1_555 1_555
C8_3 C3_3 1_555 1_555
C9_3 C8_3 1_555 1_555
H3_3 C9_3 1_555 1_555
C10_3 C8_3 1_555 1_555
H4_3 C10_3 1_555 1_555
C11_3 C12_3 1_555 1_555
C12_3 C10_3 1_555 1_555
C13_3 C12_3 1_555 1_555
H5_3 C13_3 1_555 1_555
C14_3 C5_3 1_555 1_555
C15_3 C5_3 1_555 1_555
H6_3 C15_3 1_555 1_555
C16_3 C7_3 1_555 1_555
Tb4 O5_3 1_555 1_555
O9_3 Tb3 1_555 1_555
O10_3 Tb3 1_555 1_555
O11_3 Tb3 1_555 1_555
O12_3 Tb3 1_555 1_555
C7_3 C15_3 1_555 1_555
C9_3 C14_3 1_555 1_555
C13_3 C14_3 1_555 1_555
O11_3 C16_4 1_555 1_555
O8_2 C16_4 1_555 1_555
Tb6 O8_2 1_555 1_555
Tb4 O1_4 1_555 1_555
O1_4 C3_4 1_555 1_555
O2_4 Tb4 1_555 1_555
O9 C2_4 1_555 1_555
O10 C2_4 1_555 1_555
O12_3 C11_4 1_555 1_555
O7_2 C11_4 1_555 1_555
C1_4 C2_4 1_555 1_555
C3_4 O2_4 1_555 1_555
C4_4 C1_4 1_555 1_555
H1_4 C4_4 1_555 1_555
C5_4 C4_4 1_555 1_555
C6_4 C1_4 1_555 1_555
H2_4 C6_4 1_555 1_555
C7_4 C6_4 1_555 1_555
C8_4 C3_4 1_555 1_555
C9_4 C8_4 1_555 1_555
H3_4 C9_4 1_555 1_555
C10_4 C8_4 1_555 1_555
H4_4 C10_4 1_555 1_555
C11_4 C12_4 1_555 1_555
C12_4 C10_4 1_555 1_555
C13_4 C12_4 1_555 1_555
H5_4 C13_4 1_555 1_555
C14_4 C5_4 1_555 1_555
C15_4 C5_4 1_555 1_555
H6_4 C15_4 1_555 1_555
Tb6 O7_2 1_555 1_555
O13_3 Tb4 1_555 1_555
C7_4 C15_4 1_555 1_555
C9_4 C14_4 1_555 1_555
C13_4 C14_4 1_555 1_555
Tb6 O1_5 1_555 1_555
O1_5 C3_5 1_555 1_555
O2_5 Tb6 1_555 1_555
O10_2 C2_5 1_555 1_555
O11 C16_5 1_555 1_555
O12 C11_5 1_555 1_555
O7_3 C11_5 1_555 1_555
O8_3 C16_5 1_555 1_555
C1_5 C2_5 1_555 1_555
C3_5 O2_5 1_555 1_555
C4_5 C1_5 1_555 1_555
H1_5 C4_5 1_555 1_555
C5_5 C4_5 1_555 1_555
C6_5 C1_5 1_555 1_555
H2_5 C6_5 1_555 1_555
C7_5 C6_5 1_555 1_555
C8_5 C3_5 1_555 1_555
C9_5 C8_5 1_555 1_555
H3_5 C9_5 1_555 1_555
C10_5 C8_5 1_555 1_555
H4_5 C10_5 1_555 1_555
C11_5 C12_5 1_555 1_555
C12_5 C10_5 1_555 1_555
C13_5 C12_5 1_555 1_555
H5_5 C13_5 1_555 1_555
C14_5 C5_5 1_555 1_555
C15_5 C5_5 1_555 1_555
H6_5 C15_5 1_555 1_555
C16_5 C7_5 1_555 1_555
Tb5 O7_3 1_555 1_555
C7_5 C15_5 1_555 1_555
C9_5 C14_5 1_555 1_555
C13_5 C14_5 1_555 1_555
O9_3 C2_6 1_555 1_555
O10_3 C2_6 1_555 1_555
O12_2 C11_6 1_555 1_555
O13_3 C11_6 1_555 1_555
C1_6 C2_6 1_555 1_555
C4_6 C1_6 1_555 1_555
H1_6 C4_6 1_555 1_555
C5_6 C4_6 1_555 1_555
C6_6 C1_6 1_555 1_555
H2_6 C6_6 1_555 1_555
C7_6 C6_6 1_555 1_555
C8_6 C3_6 1_555 1_555
C9_6 C8_6 1_555 1_555
H3_6 C9_6 1_555 1_555
C10_6 C8_6 1_555 1_555
H4_6 C10_6 1_555 1_555
C11_6 C12_6 1_555 1_555
C12_6 C10_6 1_555 1_555
C13_6 C12_6 1_555 1_555
H5_6 C13_6 1_555 1_555
C14_6 C5_6 1_555 1_555
C15_6 C5_6 1_555 1_555
H6_6 C15_6 1_555 1_555
C7_6 C15_6 1_555 1_555
C9_6 C14_6 1_555 1_555
C13_6 C14_6 1_555 1_555
Tb5 O1_6 1_555 1_555
O2_6 Tb5 1_555 1_555
O11_2 C16_6 1_555 1_555
O14_3 C16_6 1_555 1_555

#END
