
###############################################################################
#
# This file contains modified crystal structure data generated from the
# MOF subset of the Cambridge Structural Database (CSD) v543 
# hosted by the Cambridge Crystallographic Data Centre (CCDC).
#
# This work is licensed under the Creative Commons
# Attribution-NonCommercial-ShareAlike 4.0 International License.
# To view a copy of this license, visit
# http://creativecommons.org/licenses/by-nc-sa/4.0/
# or send a letter to
# Creative Commons, PO Box 1866, Mountain View, CA 94042, USA.
#
# CIF created using the CSD Python API on 29 September 2022
# The structure has been converted into the P1 space group
# The structure has a 3D framework
# The original CSD entry JUXSIG is in the trigonal crystal system
# The original CSD entry JUXSIG is in a Sohncke space group
# The framework has been calculated to contain at least 10.0% void space
# The void calculation uses a probe of radius 1.32A, grid spacing 0.4
# The framework is charged, counterions have been retained in the structure
#
###############################################################################

data_JUXSIG
_chemical_formula_moiety         '(C96 H36 O44 Tb2 6-)n'
_symmetry_cell_setting           triclinic
_symmetry_space_group_name_H-M   'P 1'
_symmetry_Int_Tables_number      1
_space_group_name_Hall           'P 1'
loop_
_symmetry_equiv_pos_site_id
_symmetry_equiv_pos_as_xyz
1 x,y,z
_cell_length_a                   13.797(2)
_cell_length_b                   13.797(2)
_cell_length_c                   22.938(5)
_cell_angle_alpha                90
_cell_angle_beta                 90
_cell_angle_gamma                120
_cell_volume                     3781.43
loop_
_atom_site_label
_atom_site_type_symbol
_atom_site_fract_x
_atom_site_fract_y
_atom_site_fract_z
Tb6 Tb 0.02913(4) 0.33436(3) 0.74372(2)
O5 O 0.9010(5) 0.1777(4) 0.7947(2)
O8 O 0.8538(4) 0.1226(4) 0.8866(2)
C13 C 0.8426(6) 0.1067(6) 0.8320(4)
Tb3 Tb 0.97087(4) 0.30523(3) 0.92294(2)
O3 O 0.2340(5) 0.8149(4) 0.0083(2)
O4 O 0.4139(6) 0.9228(6) 0.0101(3)
Tb4 Tb 0.30523(3) 0.97087(4) 0.07706(2)
Tb1 Tb 0.69477(3) 0.66564(3) 0.58961(2)
O1 O 0.6017(5) 0.7220(6) 0.6602(3)
O2 O 0.7848(5) 0.8146(5) 0.6678(2)
O6 O 0.0814(6) 0.4785(4) 0.8816(2)
O7 O 0.1663(6) 0.4896(4) 0.7967(2)
C1 C 0.6918(7) 0.7934(7) 0.6858(4)
C2 C 0.3291(7) 0.8460(7) 0.9874(3)
C3 C 0.6758(7) 0.8468(7) 0.7398(3)
C4 C 0.5757(8) 0.7940(8) 0.7702(3)
H1 H 0.5174 0.7263 0.7566
C5 C 0.5612(6) 0.8414(6) 0.8212(3)
C6 C 0.6530(7) 0.9397(7) 0.8410(3)
H2 H 0.6466 0.9694 0.8762
C7 C 0.7661(7) 0.9511(7) 0.7605(3)
H3 H 0.8328 0.9879 0.7398
C8 C 0.2501(7) 0.6862(6) 0.9160(3)
H4 H 0.1830 0.6528 0.9366
C9 C 0.3387(8) 0.7854(7) 0.9349(4)
C10 C 0.4382(7) 0.8347(7) 0.9041(3)
H5 H 0.4976 0.9020 0.9175
C11 C 0.4521(7) 0.7865(7) 0.8537(4)
C12 C 0.7531(7) 0.9958(6) 0.8111(3)
C14 C 0.2613(6) 0.6359(6) 0.8661(3)
C15 C 0.3608(6) 0.6850(6) 0.8349(3)
H6 H 0.3671 0.6505 0.8014
C16 C 0.1617(9) 0.5248(6) 0.8459(3)
O9 O 0.7660(5) 0.5809(6) 0.6584(2)
O10 O 0.5861(6) 0.5089(8) 0.6566(3)
O11 O 0.7233(6) 0.8223(4) 0.5386(2)
O12 O 0.5215(4) 0.6029(7) 0.5483(2)
O13 O 0.6767(7) 0.5104(4) 0.5366(2)
O14 O 0.8774(4) 0.7312(6) 0.5533(2)
Tb1_2 Tb 0.33436(3) 0.02913(4) 0.25628(2)
O9_2 O 0.4191(6) 0.1851(8) 0.3250(2)
O10_2 O 0.4911(8) 0.0772(10) 0.3232(3)
O13_2 O 0.4896(4) 0.1663(8) 0.2033(2)
O14_2 O 0.2688(6) 0.1462(7) 0.2199(2)
O1_2 O 0.2780(6) 0.8797(8) 0.3269(3)
O2_2 O 0.1854(5) 0.9702(7) 0.3345(2)
O3_2 O 0.1851(4) 0.4191(6) 0.6750(2)
O4_2 O 0.0772(6) 0.4911(8) 0.6768(3)
O7_2 O 0.5104(4) 0.6767(7) 0.4634(2)
C1_2 C 0.2066(7) 0.8984(10) 0.3525(4)
C2_2 C 0.1540(7) 0.4831(10) 0.6541(3)
C3_2 C 0.1532(7) 0.8290(10) 0.4065(3)
C4_2 C 0.2060(8) 0.7817(11) 0.4369(3)
H1_2 H 0.2737 0.7911 0.4233
C5_2 C 0.1586(6) 0.7198(8) 0.4879(3)
C6_2 C 0.0603(7) 0.7133(10) 0.5077(3)
H2_2 H 0.0306 0.6772 0.5429
C7_2 C 0.0489(7) 0.8150(10) 0.4272(3)
H3_2 H 0.0121 0.8449 0.4065
C8_2 C 0.3138(6) 0.5639(9) 0.5827(3)
H4_2 H 0.3472 0.5302 0.6033
C9_2 C 0.2146(7) 0.5533(11) 0.6016(4)
C10_2 C 0.1653(7) 0.6035(10) 0.5708(3)
H5_2 H 0.0980 0.5956 0.5842
C11_2 C 0.2135(7) 0.6656(10) 0.5204(4)
C12_2 C 0.0042(6) 0.7573(9) 0.4778(3)
C14_2 C 0.3641(6) 0.6254(8) 0.5328(3)
C15_2 C 0.3150(6) 0.6758(8) 0.5016(3)
H6_2 H 0.3495 0.7166 0.4681
C16_2 C 0.4752(6) 0.6369(11) 0.5126(3)
Tb5 Tb 0.66564(3) 0.69477(5) 0.41039(2)
O11_2 O 0.1777(4) 0.9010(7) 0.2053(2)
O12_2 O 0.3971(7) 0.9186(8) 0.2149(2)
O5_2 O 0.8223(4) 0.7233(6) 0.4614(2)
C13_2 C 0.8933(6) 0.7359(8) 0.4987(4)
O2_3 O 0.0298(7) 0.2152(5) 0.0011(2)
O3_3 O 0.5809(6) 0.7660(5) 0.3416(2)
O4_3 O 0.5089(8) 0.5861(6) 0.3434(3)
O5_3 O 0.2767(6) 0.0990(5) 0.1280(2)
O7_3 O 0.3233(7) 0.8337(6) 0.1300(2)
C1_3 C 0.1016(10) 0.3082(7) 0.0191(4)
C2_3 C 0.5169(10) 0.6709(7) 0.3207(3)
C3_3 C 0.1710(10) 0.3242(7) 0.0731(3)
C4_3 C 0.2183(11) 0.4243(8) 0.1035(3)
H1_3 H 0.2089 0.4826 0.0899
C5_3 C 0.2802(8) 0.4388(6) 0.1545(3)
C6_3 C 0.2867(10) 0.3470(7) 0.1743(3)
H2_3 H 0.3228 0.3534 0.2095
C7_3 C 0.1850(10) 0.2339(7) 0.0938(3)
H3_3 H 0.1551 0.1672 0.0731
C8_3 C 0.4361(9) 0.7499(7) 0.2493(3)
H4_3 H 0.4698 0.8170 0.2699
C9_3 C 0.4467(11) 0.6613(8) 0.2682(4)
C10_3 C 0.3965(10) 0.5618(7) 0.2374(3)
H5_3 H 0.4044 0.5024 0.2508
C11_3 C 0.3344(10) 0.5479(7) 0.1870(4)
C12_3 C 0.2427(9) 0.2469(7) 0.1444(3)
C13_3 C 0.2641(8) 0.1574(6) 0.1653(4)
C14_3 C 0.3746(8) 0.7387(6) 0.1994(3)
C15_3 C 0.3242(8) 0.6392(6) 0.1682(3)
H6_3 H 0.2834 0.6329 0.1347
C16_3 C 0.3631(11) 0.8383(9) 0.1792(3)
O1_3 O 0.1203(8) 0.3983(5) 0.9935(3)
O11_3 O 0.0990(7) 0.2767(6) 0.8720(2)
O9_3 O 0.8149(8) 0.2340(5) 0.9917(2)
O10_3 O 0.9228(10) 0.4139(6) 0.9899(3)
O13_3 O 0.8337(8) 0.3233(7) 0.8700(2)
O8_2 O 0.1226(4) 0.8538(4) 0.1134(2)
C13_4 C 0.1067(6) 0.8426(6) 0.1680(4)
O1_4 O 0.7220(6) 0.6017(5) 0.3398(3)
O2_4 O 0.8146(5) 0.7848(5) 0.3322(2)
O6_2 O 0.4785(4) 0.0814(6) 0.1184(2)
C1_4 C 0.7934(7) 0.6918(7) 0.3142(4)
C2_4 C 0.8460(7) 0.3291(7) 0.0126(3)
C3_4 C 0.8468(7) 0.6758(7) 0.2602(3)
C4_4 C 0.7940(8) 0.5757(8) 0.2298(3)
H1_4 H 0.7263 0.5174 0.2434
C5_4 C 0.8414(6) 0.5612(6) 0.1788(3)
C6_4 C 0.9397(7) 0.6530(7) 0.1590(3)
H2_4 H 0.9694 0.6466 0.1238
C7_4 C 0.9511(7) 0.7661(7) 0.2395(3)
H3_4 H 0.9879 0.8328 0.2602
C8_4 C 0.6862(6) 0.2501(7) 0.0840(3)
H4_4 H 0.6528 0.1830 0.0634
C9_4 C 0.7854(7) 0.3387(8) 0.0651(4)
C10_4 C 0.8347(7) 0.4382(7) 0.0959(3)
H5_4 H 0.9020 0.4976 0.0825
C11_4 C 0.7865(7) 0.4521(7) 0.1463(4)
C12_4 C 0.9958(6) 0.7531(7) 0.1889(3)
C14_4 C 0.6359(6) 0.2613(6) 0.1339(3)
C15_4 C 0.6850(6) 0.3608(6) 0.1651(3)
H6_4 H 0.6505 0.3671 0.1986
C16_4 C 0.5248(6) 0.1617(9) 0.1541(3)
O12_3 O 0.6029(7) 0.5215(4) 0.4517(2)
O14_3 O 0.7312(6) 0.8774(4) 0.4467(2)
O1_5 O 0.3983(5) 0.1203(8) 0.0065(3)
O2_5 O 0.2152(5) 0.0298(7) 0.9989(2)
O6_3 O 0.9186(6) 0.3971(7) 0.7851(2)
O8_3 O 0.1462(4) 0.2688(6) 0.7801(2)
C1_5 C 0.3082(7) 0.1016(10) 0.9809(4)
C2_5 C 0.6709(7) 0.5169(10) 0.6793(3)
C3_5 C 0.3242(7) 0.1710(10) 0.9269(3)
C4_5 C 0.4243(8) 0.2183(11) 0.8965(3)
H1_5 H 0.4826 0.2089 0.9101
C5_5 C 0.4388(6) 0.2802(8) 0.8455(3)
C6_5 C 0.3470(7) 0.2867(10) 0.8257(3)
H2_5 H 0.3534 0.3228 0.7905
C7_5 C 0.2339(7) 0.1850(10) 0.9062(3)
H3_5 H 0.1672 0.1551 0.9269
C8_5 C 0.7499(7) 0.4361(9) 0.7507(3)
H4_5 H 0.8170 0.4698 0.7301
C9_5 C 0.6613(8) 0.4467(11) 0.7318(4)
C10_5 C 0.5618(7) 0.3965(10) 0.7626(3)
H5_5 H 0.5024 0.4044 0.7492
C11_5 C 0.5479(7) 0.3344(10) 0.8130(4)
C12_5 C 0.2469(7) 0.2427(9) 0.8556(3)
C13_5 C 0.1574(6) 0.2641(8) 0.8347(4)
C14_5 C 0.7387(6) 0.3746(8) 0.8006(3)
C15_5 C 0.6392(6) 0.3242(8) 0.8318(3)
H6_5 H 0.6329 0.2834 0.8653
C16_5 C 0.8383(9) 0.3631(11) 0.8208(3)
O1_6 O 0.8797(8) 0.2780(6) 0.6731(3)
O2_6 O 0.9702(7) 0.1854(5) 0.6655(2)
C1_6 C 0.8984(10) 0.2066(7) 0.6475(4)
C2_6 C 0.4831(10) 0.1540(7) 0.3459(3)
C3_6 C 0.8290(10) 0.1532(7) 0.5935(3)
C4_6 C 0.7817(11) 0.2060(8) 0.5631(3)
H1_6 H 0.7911 0.2737 0.5767
C5_6 C 0.7198(8) 0.1586(6) 0.5121(3)
C6_6 C 0.7133(10) 0.0603(7) 0.4923(3)
H2_6 H 0.6772 0.0306 0.4571
C7_6 C 0.8150(10) 0.0489(7) 0.5728(3)
H3_6 H 0.8449 0.0121 0.5935
C8_6 C 0.5639(9) 0.3138(6) 0.4173(3)
H4_6 H 0.5302 0.3472 0.3967
C9_6 C 0.5533(11) 0.2146(7) 0.3984(4)
C10_6 C 0.6035(10) 0.1653(7) 0.4292(3)
H5_6 H 0.5956 0.0980 0.4158
C11_6 C 0.6656(10) 0.2135(7) 0.4796(4)
C12_6 C 0.7573(9) 0.0042(6) 0.5222(3)
C14_6 C 0.6254(8) 0.3641(6) 0.4672(3)
C15_6 C 0.6758(8) 0.3150(6) 0.4984(3)
H6_6 H 0.7166 0.3495 0.5319
C16_6 C 0.6369(11) 0.4752(6) 0.4874(3)
C13_6 C 0.7359(8) 0.8933(6) 0.5013(4)
loop_
_geom_bond_atom_site_label_1
_geom_bond_atom_site_label_2
_geom_bond_site_symmetry_1
_geom_bond_site_symmetry_2
O5 C13 1_555 1_555
O8 C13 1_555 1_555
Tb3 O8 1_555 1_555
Tb4 O3 1_555 1_555
O4 Tb4 1_555 1_555
Tb1 O1 1_555 1_555
O1 C1 1_555 1_555
O2 Tb1 1_555 1_555
O6 C16 1_555 1_555
O7 C16 1_555 1_555
C1 O2 1_555 1_555
C2 C9 1_555 1_555
C3 C1 1_555 1_555
C4 C3 1_555 1_555
H1 C4 1_555 1_555
C5 C4 1_555 1_555
C6 C5 1_555 1_555
H2 C6 1_555 1_555
C7 C3 1_555 1_555
H3 C7 1_555 1_555
C8 H4 1_555 1_555
C9 C8 1_555 1_555
C10 C9 1_555 1_555
H5 C10 1_555 1_555
C11 C5 1_555 1_555
C12 C6 1_555 1_555
C14 C8 1_555 1_555
C15 C11 1_555 1_555
H6 C15 1_555 1_555
C16 C14 1_555 1_555
Tb6 O7 1_555 1_555
O9 Tb1 1_555 1_555
O10 Tb1 1_555 1_555
O11 Tb1 1_555 1_555
O12 Tb1 1_555 1_555
O13 Tb1 1_555 1_555
O14 Tb1 1_555 1_555
C7 C12 1_555 1_555
C10 C11 1_555 1_555
C14 C15 1_555 1_555
O9_2 Tb1_2 1_555 1_555
O10_2 Tb1_2 1_555 1_555
O13_2 Tb1_2 1_555 1_555
O14_2 Tb1_2 1_555 1_555
O1_2 C1_2 1_555 1_555
O3_2 C2_2 1_555 1_555
O4_2 C2_2 1_555 1_555
O12 C16_2 1_555 1_555
O7_2 C16_2 1_555 1_555
C1_2 O2_2 1_555 1_555
C2_2 C9_2 1_555 1_555
C3_2 C1_2 1_555 1_555
C4_2 C3_2 1_555 1_555
H1_2 C4_2 1_555 1_555
C5_2 C4_2 1_555 1_555
C6_2 C5_2 1_555 1_555
H2_2 C6_2 1_555 1_555
C7_2 C3_2 1_555 1_555
H3_2 C7_2 1_555 1_555
C8_2 H4_2 1_555 1_555
C9_2 C8_2 1_555 1_555
C10_2 C9_2 1_555 1_555
H5_2 C10_2 1_555 1_555
C11_2 C5_2 1_555 1_555
C12_2 C6_2 1_555 1_555
C14_2 C8_2 1_555 1_555
C15_2 C11_2 1_555 1_555
H6_2 C15_2 1_555 1_555
C16_2 C14_2 1_555 1_555
Tb6 O3_2 1_555 1_555
Tb5 O7_2 1_555 1_555
O4_2 Tb6 1_555 1_555
C7_2 C12_2 1_555 1_555
C10_2 C11_2 1_555 1_555
C14_2 C15_2 1_555 1_555
O5_2 C13_2 1_555 1_555
O14 C13_2 1_555 1_555
Tb5 O5_2 1_555 1_555
O3_3 C2_3 1_555 1_555
O4_3 C2_3 1_555 1_555
O5_3 C13_3 1_555 1_555
O12_2 C16_3 1_555 1_555
O7_3 C16_3 1_555 1_555
O14_2 C13_3 1_555 1_555
C1_3 O2_3 1_555 1_555
C2_3 C9_3 1_555 1_555
C3_3 C1_3 1_555 1_555
C4_3 C3_3 1_555 1_555
H1_3 C4_3 1_555 1_555
C5_3 C4_3 1_555 1_555
C6_3 C5_3 1_555 1_555
H2_3 C6_3 1_555 1_555
C7_3 C3_3 1_555 1_555
H3_3 C7_3 1_555 1_555
C8_3 H4_3 1_555 1_555
C9_3 C8_3 1_555 1_555
C10_3 C9_3 1_555 1_555
H5_3 C10_3 1_555 1_555
C11_3 C5_3 1_555 1_555
C12_3 C6_3 1_555 1_555
C13_3 C12_3 1_555 1_555
C14_3 C8_3 1_555 1_555
C15_3 C11_3 1_555 1_555
H6_3 C15_3 1_555 1_555
C16_3 C14_3 1_555 1_555
Tb5 O3_3 1_555 1_555
Tb4 O7_3 1_555 1_555
O4_3 Tb5 1_555 1_555
C7_3 C12_3 1_555 1_555
C10_3 C11_3 1_555 1_555
C14_3 C15_3 1_555 1_555
O9_3 Tb3 1_555 1_555
O10_3 Tb3 1_555 1_555
O13_3 Tb3 1_555 1_555
O11_2 C13_4 1_555 1_555
O8_2 C13_4 1_555 1_555
Tb4 O8_2 1_555 1_555
Tb5 O1_4 1_555 1_555
O1_4 C1_4 1_555 1_555
O2_4 Tb5 1_555 1_555
O6_2 C16_4 1_555 1_555
O13_2 C16_4 1_555 1_555
C1_4 O2_4 1_555 1_555
C2_4 C9_4 1_555 1_555
C3_4 C1_4 1_555 1_555
C4_4 C3_4 1_555 1_555
H1_4 C4_4 1_555 1_555
C5_4 C4_4 1_555 1_555
C6_4 C5_4 1_555 1_555
H2_4 C6_4 1_555 1_555
C7_4 C3_4 1_555 1_555
H3_4 C7_4 1_555 1_555
C8_4 H4_4 1_555 1_555
C9_4 C8_4 1_555 1_555
C10_4 C9_4 1_555 1_555
H5_4 C10_4 1_555 1_555
C11_4 C5_4 1_555 1_555
C12_4 C6_4 1_555 1_555
C14_4 C8_4 1_555 1_555
C15_4 C11_4 1_555 1_555
H6_4 C15_4 1_555 1_555
C16_4 C14_4 1_555 1_555
O12_3 Tb5 1_555 1_555
O14_3 Tb5 1_555 1_555
C7_4 C12_4 1_555 1_555
C10_4 C11_4 1_555 1_555
C14_4 C15_4 1_555 1_555
O9 C2_5 1_555 1_555
O10 C2_5 1_555 1_555
O11_3 C13_5 1_555 1_555
O6_3 C16_5 1_555 1_555
O13_3 C16_5 1_555 1_555
O8_3 C13_5 1_555 1_555
C1_5 O2_5 1_555 1_555
C2_5 C9_5 1_555 1_555
C3_5 C1_5 1_555 1_555
C4_5 C3_5 1_555 1_555
H1_5 C4_5 1_555 1_555
C5_5 C4_5 1_555 1_555
C6_5 C5_5 1_555 1_555
H2_5 C6_5 1_555 1_555
C7_5 C3_5 1_555 1_555
H3_5 C7_5 1_555 1_555
C8_5 H4_5 1_555 1_555
C9_5 C8_5 1_555 1_555
C10_5 C9_5 1_555 1_555
H5_5 C10_5 1_555 1_555
C11_5 C5_5 1_555 1_555
C12_5 C6_5 1_555 1_555
C13_5 C12_5 1_555 1_555
C14_5 C8_5 1_555 1_555
C15_5 C11_5 1_555 1_555
H6_5 C15_5 1_555 1_555
C16_5 C14_5 1_555 1_555
Tb6 O8_3 1_555 1_555
C7_5 C12_5 1_555 1_555
C10_5 C11_5 1_555 1_555
C14_5 C15_5 1_555 1_555
O1_6 C1_6 1_555 1_555
O9_2 C2_6 1_555 1_555
O10_2 C2_6 1_555 1_555
O12_3 C16_6 1_555 1_555
O13 C16_6 1_555 1_555
C1_6 O2_6 1_555 1_555
C2_6 C9_6 1_555 1_555
C3_6 C1_6 1_555 1_555
C4_6 C3_6 1_555 1_555
H1_6 C4_6 1_555 1_555
C5_6 C4_6 1_555 1_555
C6_6 C5_6 1_555 1_555
H2_6 C6_6 1_555 1_555
C7_6 C3_6 1_555 1_555
H3_6 C7_6 1_555 1_555
C8_6 H4_6 1_555 1_555
C9_6 C8_6 1_555 1_555
C10_6 C9_6 1_555 1_555
H5_6 C10_6 1_555 1_555
C11_6 C5_6 1_555 1_555
C12_6 C6_6 1_555 1_555
C14_6 C8_6 1_555 1_555
C15_6 C11_6 1_555 1_555
H6_6 C15_6 1_555 1_555
C16_6 C14_6 1_555 1_555
C7_6 C12_6 1_555 1_555
C10_6 C11_6 1_555 1_555
C14_6 C15_6 1_555 1_555
O11 C13_6 1_555 1_555
O14_3 C13_6 1_555 1_555

#END
