
###############################################################################
#
# This file contains modified crystal structure data generated from the
# MOF subset of the Cambridge Structural Database (CSD) v543 
# hosted by the Cambridge Crystallographic Data Centre (CCDC).
#
# This work is licensed under the Creative Commons
# Attribution-NonCommercial-ShareAlike 4.0 International License.
# To view a copy of this license, visit
# http://creativecommons.org/licenses/by-nc-sa/4.0/
# or send a letter to
# Creative Commons, PO Box 1866, Mountain View, CA 94042, USA.
#
# CIF created using the CSD Python API on 29 September 2022
# The structure has been converted into the P1 space group
# The structure has a 3D framework
# The original CSD entry JUXTII is in the orthorhombic crystal system
# The framework has been calculated to contain at least 10.0% void space
# The void calculation uses a probe of radius 1.32A, grid spacing 0.4
#
###############################################################################

data_JUXTII
_chemical_formula_moiety         '(C240 H208 Mn8 N40 O48)n'
_symmetry_cell_setting           triclinic
_symmetry_space_group_name_H-M   'P 1'
_symmetry_Int_Tables_number      1
_space_group_name_Hall           'P 1'
loop_
_symmetry_equiv_pos_site_id
_symmetry_equiv_pos_as_xyz
1 x,y,z
_cell_length_a                   16.4435(8)
_cell_length_b                   25.9075(14)
_cell_length_c                   14.3563(7)
_cell_angle_alpha                90
_cell_angle_beta                 90
_cell_angle_gamma                90
_cell_volume                     6115.93
loop_
_atom_site_label
_atom_site_type_symbol
_atom_site_fract_x
_atom_site_fract_y
_atom_site_fract_z
H52 H 0.0727 0.0004 0.3766
Mn1 Mn 0.22718(3) 0.26940(2) 0.61343(3)
O1 O 0.12503(13) 0.31164(9) 0.54847(16)
H1 H 0.086 0.3158 0.5884
H2 H 0.1029 0.2931 0.505
O2 O 0.20966(13) 0.21068(9) 0.50611(15)
O3 O 0.09504(19) 0.23503(11) 0.4368(2)
O4 O 0.07067(12) 0.01861(8) 0.16862(15)
N3 N 0.33186(16) 0.21677(11) 0.65645(19)
N4 N 0.17497(15) 0.20793(10) 0.71655(18)
N5 N 0.17885(16) 0.31394(10) 0.73992(19)
C1 C 0.1554(2) 0.20610(13) 0.4455(2)
C2 C 0.15849(18) 0.16018(12) 0.3810(2)
C3 C 0.20907(18) 0.11800(13) 0.3972(2)
H3 H 0.2453 0.1185 0.4487
C4 C 0.20709(18) 0.07541(12) 0.3390(2)
H4 H 0.2418 0.0468 0.3505
C5 C 0.15340(18) 0.07473(12) 0.2629(2)
C6 C 0.1041(2) 0.11706(13) 0.2456(2)
H5 H 0.0684 0.1169 0.1937
C7 C 0.1069(2) 0.15953(13) 0.3039(2)
H6 H 0.0733 0.1885 0.2912
C8 C 0.14584(18) 0.02924(12) 0.2035(2)
C17 C 0.1487(2) 0.36225(14) 0.7364(2)
H11 H 0.1636 0.3838 0.6856
C18 C 0.0970(2) 0.38184(15) 0.8035(3)
H12 H 0.0768 0.4161 0.7987
C19 C 0.0753(2) 0.35113(16) 0.8773(3)
H13 H 0.0392 0.3636 0.9238
C20 C 0.1068(2) 0.30153(15) 0.8831(2)
H14 H 0.0936 0.2798 0.9342
C21 C 0.15795(19) 0.28439(13) 0.8131(2)
C22 C 0.1908(2) 0.23031(13) 0.8105(2)
H15 H 0.250 0.2307 0.8231
H16 H 0.164 0.2091 0.8589
C23 C 0.4108(2) 0.22429(14) 0.6355(2)
H17 H 0.4282 0.2581 0.6196
C24 C 0.4675(2) 0.18512(16) 0.6359(3)
H18 H 0.5228 0.192 0.6213
C25 C 0.4426(2) 0.13585(16) 0.6580(3)
H19 H 0.4802 0.108 0.6563
C26 C 0.3628(2) 0.12728(14) 0.6824(3)
H20 H 0.3446 0.0938 0.6998
C27 C 0.3095(2) 0.16892(13) 0.6807(2)
C28 C 0.22016(19) 0.15986(12) 0.7025(2)
H21 H 0.1951 0.1404 0.6506
H22 H 0.2158 0.1385 0.7594
C29 C 0.08719(18) 0.20029(13) 0.6988(2)
H23 H 0.0799 0.1918 0.6321
H24 H 0.0588 0.2334 0.7104
C30 C 0.04591(19) 0.15839(12) 0.7567(2)
H25 H 0.0679 0.1243 0.7387
H26 H 0.0585 0.164 0.8234
O14 O 0.31357(13) 0.32253(9) 0.55769(15)
O9 O 0.59504(19) 0.73503(11) 0.0632(2)
O10 O 0.57067(12) 0.51861(8) 0.33138(15)
O12 O 0.23327(15) 0.38231(11) 0.4951(2)
N9 N 0.65709(16) 0.45791(11) 0.3745(2)
N10 N 0.69891(16) 0.49498(11) 0.3198(2)
C45 C 0.6554(2) 0.70610(13) 0.0545(2)
C46 C 0.65849(18) 0.66018(12) 0.1190(2)
C47 C 0.70907(18) 0.61800(13) 0.1028(2)
H45 H 0.7453 0.6185 0.0513
C48 C 0.70709(18) 0.57541(12) 0.1610(2)
H46 H 0.7418 0.5468 0.1495
C49 C 0.65340(18) 0.57473(12) 0.2371(2)
C50 C 0.6041(2) 0.61706(13) 0.2544(2)
H47 H 0.5684 0.6169 0.3063
C51 C 0.6069(2) 0.65953(13) 0.1961(2)
H48 H 0.5733 0.6885 0.2088
C52 C 0.64584(18) 0.52924(12) 0.2965(2)
C53 C 0.58249(19) 0.47362(12) 0.3785(2)
C54 C 0.51188(18) 0.44812(12) 0.4189(2)
C55 C 0.52125(19) 0.40155(12) 0.4677(2)
H49 H 0.5742 0.3881 0.4783
C56 C 0.45383(19) 0.37513(12) 0.5005(2)
H50 H 0.4608 0.3436 0.5332
C57 C 0.37604(19) 0.39455(12) 0.4857(2)
C58 C 0.3667(2) 0.44167(13) 0.4395(2)
H51 H 0.3138 0.4556 0.4304
C59 C 0.43423(19) 0.46819(13) 0.4072(2)
H52_2 H 0.4273 0.5004 0.3766
C60 C 0.3017(2) 0.36451(13) 0.5154(2)
O11 O 0.18643(13) 0.82253(9) 0.55769(15)
O12_2 O 0.26673(15) 0.88231(11) 0.4951(2)
C56_2 C 0.04617(19) 0.87513(12) 0.5005(2)
H50_2 H 0.0392 0.8436 0.5332
C57_2 C 0.12396(19) 0.89455(12) 0.4857(2)
C58_2 C 0.1333(2) 0.94167(13) 0.4395(2)
H51_2 H 0.1862 0.9556 0.4304
C59_2 C 0.06577(19) 0.96819(13) 0.4072(2)
C60_2 C 0.1983(2) 0.86451(13) 0.5154(2)
Mn3 Mn 0.27282(3) 0.76940(2) 0.61343(3)
O5 O 0.81357(13) 0.82253(9) 0.94231(15)
C12 C 0.95383(19) 0.87513(12) 0.9995(2)
H8 H 0.9608 0.8436 0.9668
C16 C 0.8017(2) 0.86451(13) 0.9846(2)
Mn4 Mn 0.72718(3) 0.76940(2) 0.88657(3)
O1_2 O 0.37497(13) 0.81164(9) 0.54847(16)
H1_2 H 0.414 0.8158 0.5884
H2_2 H 0.3971 0.7931 0.505
O2_2 O 0.29034(13) 0.71068(9) 0.50611(15)
O3_2 O 0.40496(19) 0.73503(11) 0.4368(2)
O4_2 O 0.42933(12) 0.51861(8) 0.16862(15)
O6 O 0.76673(15) 0.38231(11) 0.0049(2)
N1 N 0.34291(16) 0.45791(11) 0.1255(2)
N2 N 0.30109(16) 0.49498(11) 0.1802(2)
N3_2 N 0.16814(16) 0.71677(11) 0.65645(19)
N4_2 N 0.32503(15) 0.70793(10) 0.71655(18)
N5_2 N 0.32115(16) 0.81394(10) 0.73992(19)
C1_2 C 0.3446(2) 0.70610(13) 0.4455(2)
C2_2 C 0.34151(18) 0.66018(12) 0.3810(2)
C3_2 C 0.29093(18) 0.61800(13) 0.3972(2)
H3_2 H 0.2547 0.6185 0.4487
C4_2 C 0.29291(18) 0.57541(12) 0.3390(2)
H4_2 H 0.2582 0.5468 0.3505
C5_2 C 0.34660(18) 0.57473(12) 0.2629(2)
C6_2 C 0.3959(2) 0.61706(13) 0.2456(2)
H5_2 H 0.4316 0.6169 0.1937
C7_2 C 0.3931(2) 0.65953(13) 0.3039(2)
H6_2 H 0.4267 0.6885 0.2912
C8_2 C 0.35416(18) 0.52924(12) 0.2035(2)
C9 C 0.41751(19) 0.47362(12) 0.1215(2)
C10 C 0.48812(18) 0.44812(12) 0.0811(2)
C11 C 0.47875(19) 0.40155(12) 0.0323(2)
H7 H 0.4258 0.3881 0.0217
C13 C 0.62396(19) 0.39455(12) 0.0143(2)
C14 C 0.6333(2) 0.44167(13) 0.0605(2)
H9 H 0.6862 0.4556 0.0696
C15 C 0.56577(19) 0.46819(13) 0.0928(2)
H10 H 0.5727 0.5004 0.1234
C17_2 C 0.3513(2) 0.86225(14) 0.7364(2)
H11_2 H 0.3364 0.8838 0.6856
C18_2 C 0.4030(2) 0.88184(15) 0.8035(3)
H12_2 H 0.4232 0.9161 0.7987
C19_2 C 0.4247(2) 0.85113(16) 0.8773(3)
H13_2 H 0.4608 0.8636 0.9238
C20_2 C 0.3932(2) 0.80153(15) 0.8831(2)
H14_2 H 0.4064 0.7798 0.9342
C21_2 C 0.34205(19) 0.78439(13) 0.8131(2)
C22_2 C 0.3092(2) 0.73031(13) 0.8105(2)
H15_2 H 0.250 0.7307 0.8231
H16_2 H 0.336 0.7091 0.8589
C23_2 C 0.0892(2) 0.72429(14) 0.6355(2)
H17_2 H 0.0718 0.7581 0.6196
C24_2 C 0.0325(2) 0.68512(16) 0.6359(3)
C25_2 C 0.0574(2) 0.63585(16) 0.6580(3)
H19_2 H 0.0198 0.608 0.6563
C26_2 C 0.1372(2) 0.62728(14) 0.6824(3)
H20_2 H 0.1554 0.5938 0.6998
C27_2 C 0.1905(2) 0.66892(13) 0.6807(2)
C28_2 C 0.27984(19) 0.65986(12) 0.7025(2)
H21_2 H 0.3049 0.6404 0.6506
H22_2 H 0.2842 0.6385 0.7594
C29_2 C 0.41281(18) 0.70029(13) 0.6988(2)
H23_2 H 0.4201 0.6918 0.6321
H24_2 H 0.4412 0.7334 0.7104
C30_2 C 0.45409(19) 0.65839(12) 0.7567(2)
H25_2 H 0.4321 0.6243 0.7387
H26_2 H 0.4415 0.664 0.8234
N6 N 0.83186(16) 0.71677(11) 0.84355(19)
N7 N 0.67497(15) 0.70793(10) 0.78345(18)
N8 N 0.67885(16) 0.81394(10) 0.76008(19)
C31 C 0.6487(2) 0.86225(14) 0.7636(2)
H27 H 0.6636 0.8838 0.8144
C32 C 0.5970(2) 0.88184(15) 0.6965(3)
H28 H 0.5768 0.9161 0.7013
C33 C 0.5753(2) 0.85113(16) 0.6227(3)
H29 H 0.5392 0.8636 0.5762
C34 C 0.6068(2) 0.80153(15) 0.6169(2)
H30 H 0.5936 0.7798 0.5658
C35 C 0.65795(19) 0.78439(13) 0.6869(2)
C36 C 0.6908(2) 0.73031(13) 0.6895(2)
H31 H 0.750 0.7307 0.6769
H32 H 0.664 0.7091 0.6411
C37 C 0.9108(2) 0.72429(14) 0.8645(2)
H33 H 0.9282 0.7581 0.8804
C38 C 0.9675(2) 0.68512(16) 0.8641(3)
C39 C 0.9426(2) 0.63585(16) 0.8420(3)
H35 H 0.9802 0.608 0.8437
C40 C 0.8628(2) 0.62728(14) 0.8176(3)
H36 H 0.8446 0.5938 0.8002
C41 C 0.8095(2) 0.66892(13) 0.8193(2)
C42 C 0.72016(19) 0.65986(12) 0.7975(2)
H37 H 0.6951 0.6404 0.8494
H38 H 0.7158 0.6385 0.7406
C43 C 0.58719(18) 0.70029(13) 0.8012(2)
H39 H 0.5799 0.6918 0.8679
H40 H 0.5588 0.7334 0.7896
C44 C 0.54591(19) 0.65839(12) 0.7433(2)
H41 H 0.5679 0.6243 0.7613
H42 H 0.5585 0.664 0.6766
O7 O 0.62503(13) 0.81164(9) 0.95153(16)
H43 H 0.586 0.8158 0.9116
H44 H 0.6029 0.7931 0.995
O8 O 0.70966(13) 0.71068(9) 0.99389(15)
N1_2 N 0.15709(16) 0.95791(11) 0.1255(2)
N2_2 N 0.19891(16) 0.99498(11) 0.1802(2)
C9_2 C 0.08249(19) 0.97362(12) 0.1215(2)
C10_2 C 0.01188(18) 0.94812(12) 0.0811(2)
C11_2 C 0.02125(19) 0.90155(12) 0.0323(2)
H7_2 H 0.0742 0.8881 0.0217
O9_2 O 0.90496(19) 0.23503(11) 0.0632(2)
O10_2 O 0.92933(12) 0.01861(8) 0.33138(15)
C45_2 C 0.8446(2) 0.20610(13) 0.0545(2)
C46_2 C 0.84151(18) 0.16018(12) 0.1190(2)
C47_2 C 0.79093(18) 0.11800(13) 0.1028(2)
H45_2 H 0.7547 0.1185 0.0513
C48_2 C 0.79291(18) 0.07541(12) 0.1610(2)
H46_2 H 0.7582 0.0468 0.1495
C49_2 C 0.84660(18) 0.07473(12) 0.2371(2)
C50_2 C 0.8959(2) 0.11706(13) 0.2544(2)
H47_2 H 0.9316 0.1169 0.3063
C51_2 C 0.8931(2) 0.15953(13) 0.1961(2)
H48_2 H 0.9267 0.1885 0.2088
C52_2 C 0.85416(18) 0.02924(12) 0.2965(2)
H10_2 H 0.9273 0.0004 0.1234
N6_2 N 0.66814(16) 0.21677(11) 0.84355(19)
N7_2 N 0.82503(15) 0.20793(10) 0.78345(18)
N8_2 N 0.82115(16) 0.31394(10) 0.76008(19)
C31_2 C 0.8513(2) 0.36225(14) 0.7636(2)
H27_2 H 0.8364 0.3838 0.8144
C32_2 C 0.9030(2) 0.38184(15) 0.6965(3)
H28_2 H 0.9232 0.4161 0.7013
C33_2 C 0.9247(2) 0.35113(16) 0.6227(3)
H29_2 H 0.9608 0.3636 0.5762
C34_2 C 0.8932(2) 0.30153(15) 0.6169(2)
H30_2 H 0.9064 0.2798 0.5658
C35_2 C 0.84205(19) 0.28439(13) 0.6869(2)
C36_2 C 0.8092(2) 0.23031(13) 0.6895(2)
H31_2 H 0.750 0.2307 0.6769
H32_2 H 0.836 0.2091 0.6411
C37_2 C 0.5892(2) 0.22429(14) 0.8645(2)
H33_2 H 0.5718 0.2581 0.8804
C38_2 C 0.5325(2) 0.18512(16) 0.8641(3)
H34 H 0.4772 0.192 0.8787
C39_2 C 0.5574(2) 0.13585(16) 0.8420(3)
H35_2 H 0.5198 0.108 0.8437
C40_2 C 0.6372(2) 0.12728(14) 0.8176(3)
H36_2 H 0.6554 0.0938 0.8002
C41_2 C 0.6905(2) 0.16892(13) 0.8193(2)
C42_2 C 0.77984(19) 0.15986(12) 0.7975(2)
H37_2 H 0.8049 0.1404 0.8494
H38_2 H 0.7842 0.1385 0.7406
C43_2 C 0.91281(18) 0.20029(13) 0.8012(2)
H39_2 H 0.9201 0.1918 0.8679
H40_2 H 0.9412 0.2334 0.7896
C44_2 C 0.95409(19) 0.15839(12) 0.7433(2)
H41_2 H 0.9321 0.1243 0.7613
H42_2 H 0.9415 0.164 0.6766
Mn2 Mn 0.77282(3) 0.26940(2) 0.88657(3)
O7_2 O 0.87497(13) 0.31164(9) 0.95153(16)
H43_2 H 0.914 0.3158 0.9116
H44_2 H 0.8971 0.2931 0.995
O8_2 O 0.79034(13) 0.21068(9) 0.99389(15)
O13 O 0.68643(13) 0.32253(9) 0.94231(15)
C12_2 C 0.54617(19) 0.37513(12) 0.9995(2)
H8_2 H 0.5392 0.3436 0.9668
C16_2 C 0.6983(2) 0.36451(13) 0.9846(2)
N9_2 N 0.84291(16) 0.95791(11) 0.3745(2)
N10_2 N 0.80109(16) 0.99498(11) 0.3198(2)
C53_2 C 0.91751(19) 0.97362(12) 0.3785(2)
C54_2 C 0.98812(18) 0.94812(12) 0.4189(2)
C55_2 C 0.97875(19) 0.90155(12) 0.4677(2)
H49_2 H 0.9258 0.8881 0.4783
O6_2 O 0.73327(15) 0.88231(11) 0.0049(2)
C13_2 C 0.87604(19) 0.89455(12) 0.0143(2)
C14_2 C 0.8667(2) 0.94167(13) 0.0605(2)
H9_2 H 0.8138 0.9556 0.0696
C15_2 C 0.93423(19) 0.96819(13) 0.0928(2)
H18_2 H 0.0228 0.308 0.3787
O5_2 O 0.31357(13) 0.67747(9) 0.05769(15)
C12_3 C 0.45383(19) 0.62487(12) 0.0005(2)
H8_3 H 0.4608 0.6564 0.0332
C16_3 C 0.3017(2) 0.63549(13) 0.0154(2)
Mn4_2 Mn 0.22718(3) 0.73060(2) 0.11343(3)
H10_3 H 0.0727 0.9996 0.8766
N6_3 N 0.33186(16) 0.78323(11) 0.15645(19)
N7_3 N 0.17497(15) 0.79207(10) 0.21655(18)
N8_3 N 0.17885(16) 0.68606(10) 0.23992(19)
C31_3 C 0.1487(2) 0.63775(14) 0.2364(2)
H27_3 H 0.1636 0.6162 0.1856
C32_3 C 0.0970(2) 0.61816(15) 0.3035(3)
H28_3 H 0.0768 0.5839 0.2987
C33_3 C 0.0753(2) 0.64887(16) 0.3773(3)
H29_3 H 0.0392 0.6364 0.4238
C34_3 C 0.1068(2) 0.69847(15) 0.3831(2)
H30_3 H 0.0936 0.7202 0.4342
C35_3 C 0.15795(19) 0.71561(13) 0.3131(2)
C36_3 C 0.1908(2) 0.76969(13) 0.3105(2)
H31_3 H 0.250 0.7693 0.3231
H32_3 H 0.164 0.7909 0.3589
C37_3 C 0.4108(2) 0.77571(14) 0.1355(2)
H33_3 H 0.4282 0.7419 0.1196
C38_3 C 0.4675(2) 0.81488(16) 0.1359(3)
H34_2 H 0.5228 0.808 0.1213
C39_3 C 0.4426(2) 0.86415(16) 0.1580(3)
H35_3 H 0.4802 0.892 0.1563
C40_3 C 0.3628(2) 0.87272(14) 0.1824(3)
H36_3 H 0.3446 0.9062 0.1998
C41_3 C 0.3095(2) 0.83108(13) 0.1807(2)
C42_3 C 0.22016(19) 0.84014(12) 0.2025(2)
H37_3 H 0.1951 0.8596 0.1506
H38_3 H 0.2158 0.8615 0.2594
C43_3 C 0.08719(18) 0.79971(13) 0.1988(2)
H39_3 H 0.0799 0.8082 0.1321
H40_3 H 0.0588 0.7666 0.2104
C44_3 C 0.04591(19) 0.84161(12) 0.2567(2)
H41_3 H 0.0679 0.8757 0.2387
H42_3 H 0.0585 0.836 0.3234
O7_3 O 0.12503(13) 0.68836(9) 0.04847(16)
H43_3 H 0.086 0.6842 0.0884
H44_3 H 0.1029 0.7069 0.005
O8_3 O 0.20966(13) 0.78932(9) 0.00611(15)
Mn1_2 Mn 0.72718(3) 0.23060(2) 0.38657(3)
O1_3 O 0.62503(13) 0.18836(9) 0.45153(16)
H1_3 H 0.586 0.1842 0.4116
H2_3 H 0.6029 0.2069 0.495
O2_3 O 0.70966(13) 0.28932(9) 0.49389(15)
O3_3 O 0.59504(19) 0.26497(11) 0.5632(2)
O4_3 O 0.57067(12) 0.48139(8) 0.83138(15)
O6_3 O 0.23327(15) 0.61769(11) 0.9951(2)
N1_3 N 0.65709(16) 0.54209(11) 0.8745(2)
N2_3 N 0.69891(16) 0.50502(11) 0.8198(2)
N3_3 N 0.83186(16) 0.28323(11) 0.34355(19)
N4_3 N 0.67497(15) 0.29207(10) 0.28345(18)
N5_3 N 0.67885(16) 0.18606(10) 0.26008(19)
C1_3 C 0.6554(2) 0.29390(13) 0.5545(2)
C2_3 C 0.65849(18) 0.33982(12) 0.6190(2)
C3_3 C 0.70907(18) 0.38200(13) 0.6028(2)
H3_3 H 0.7453 0.3815 0.5513
C4_3 C 0.70709(18) 0.42459(12) 0.6610(2)
H4_3 H 0.7418 0.4532 0.6495
C5_3 C 0.65340(18) 0.42527(12) 0.7371(2)
C6_3 C 0.6041(2) 0.38294(13) 0.7544(2)
H5_3 H 0.5684 0.3831 0.8063
C7_3 C 0.6069(2) 0.34047(13) 0.6961(2)
H6_3 H 0.5733 0.3115 0.7088
C8_3 C 0.64584(18) 0.47076(12) 0.7965(2)
C9_3 C 0.58249(19) 0.52638(12) 0.8785(2)
C10_3 C 0.51188(18) 0.55188(12) 0.9189(2)
C11_3 C 0.52125(19) 0.59845(12) 0.9677(2)
H7_3 H 0.5742 0.6119 0.9783
C13_3 C 0.37604(19) 0.60545(12) 0.9857(2)
C14_3 C 0.3667(2) 0.55833(13) 0.9395(2)
H9_3 H 0.3138 0.5444 0.9304
C15_3 C 0.43423(19) 0.53181(13) 0.9072(2)
H10_4 H 0.4273 0.4996 0.8766
C17_3 C 0.6487(2) 0.13775(14) 0.2636(2)
H11_3 H 0.6636 0.1162 0.3144
C18_3 C 0.5970(2) 0.11816(15) 0.1965(3)
H12_3 H 0.5768 0.0839 0.2013
C19_3 C 0.5753(2) 0.14887(16) 0.1227(3)
H13_3 H 0.5392 0.1364 0.0762
C20_3 C 0.6068(2) 0.19847(15) 0.1169(2)
H14_3 H 0.5936 0.2202 0.0658
C21_3 C 0.65795(19) 0.21561(13) 0.1869(2)
C22_3 C 0.6908(2) 0.26969(13) 0.1895(2)
H15_3 H 0.750 0.2693 0.1769
H16_3 H 0.664 0.2909 0.1411
C23_3 C 0.9108(2) 0.27571(14) 0.3645(2)
H17_3 H 0.9282 0.2419 0.3804
C24_3 C 0.9675(2) 0.31488(16) 0.3641(3)
C25_3 C 0.9426(2) 0.36415(16) 0.3420(3)
H19_3 H 0.9802 0.392 0.3437
C26_3 C 0.8628(2) 0.37272(14) 0.3176(3)
H20_3 H 0.8446 0.4062 0.3002
C27_3 C 0.8095(2) 0.33108(13) 0.3193(2)
C28_3 C 0.72016(19) 0.34014(12) 0.2975(2)
H21_3 H 0.6951 0.3596 0.3494
H22_3 H 0.7158 0.3615 0.2406
C29_3 C 0.58719(18) 0.29971(13) 0.3012(2)
H23_3 H 0.5799 0.3082 0.3679
H24_3 H 0.5588 0.2666 0.2896
C30_3 C 0.54591(19) 0.34161(12) 0.2433(2)
H25_3 H 0.5679 0.3757 0.2613
H26_3 H 0.5585 0.336 0.1766
N6_4 N 0.16814(16) 0.28323(11) 0.15645(19)
N7_4 N 0.32503(15) 0.29207(10) 0.21655(18)
N8_4 N 0.32115(16) 0.18606(10) 0.23992(19)
C31_4 C 0.3513(2) 0.13775(14) 0.2364(2)
H27_4 H 0.3364 0.1162 0.1856
C32_4 C 0.4030(2) 0.11816(15) 0.3035(3)
H28_4 H 0.4232 0.0839 0.2987
C33_4 C 0.4247(2) 0.14887(16) 0.3773(3)
H29_4 H 0.4608 0.1364 0.4238
C34_4 C 0.3932(2) 0.19847(15) 0.3831(2)
H30_4 H 0.4064 0.2202 0.4342
C35_4 C 0.34205(19) 0.21561(13) 0.3131(2)
C36_4 C 0.3092(2) 0.26969(13) 0.3105(2)
H31_4 H 0.250 0.2693 0.3231
H32_4 H 0.336 0.2909 0.3589
C37_4 C 0.0892(2) 0.27571(14) 0.1355(2)
H33_4 H 0.0718 0.2419 0.1196
C38_4 C 0.0325(2) 0.31488(16) 0.1359(3)
C39_4 C 0.0574(2) 0.36415(16) 0.1580(3)
H35_4 H 0.0198 0.392 0.1563
C40_4 C 0.1372(2) 0.37272(14) 0.1824(3)
H36_4 H 0.1554 0.4062 0.1998
C41_4 C 0.1905(2) 0.33108(13) 0.1807(2)
C42_4 C 0.27984(19) 0.34014(12) 0.2025(2)
H37_4 H 0.3049 0.3596 0.1506
H38_4 H 0.2842 0.3615 0.2594
C43_4 C 0.41281(18) 0.29971(13) 0.1988(2)
H39_4 H 0.4201 0.3082 0.1321
H40_4 H 0.4412 0.2666 0.2104
C44_4 C 0.45409(19) 0.34161(12) 0.2567(2)
H41_4 H 0.4321 0.3757 0.2387
H42_4 H 0.4415 0.336 0.3234
Mn2_2 Mn 0.27282(3) 0.23060(2) 0.11343(3)
O7_4 O 0.37497(13) 0.18836(9) 0.04847(16)
H43_4 H 0.414 0.1842 0.0884
H44_4 H 0.3971 0.2069 0.005
O8_4 O 0.29034(13) 0.28932(9) 0.00611(15)
O13_2 O 0.18643(13) 0.17747(9) 0.05769(15)
O14_2 O 0.81357(13) 0.17747(9) 0.44231(15)
C12_4 C 0.04617(19) 0.12487(12) 0.0005(2)
H8_4 H 0.0392 0.1564 0.0332
C16_4 C 0.1983(2) 0.13549(13) 0.0154(2)
O12_3 O 0.73327(15) 0.11769(11) 0.5049(2)
C56_3 C 0.95383(19) 0.12487(12) 0.4995(2)
H50_3 H 0.9608 0.1564 0.4668
C57_3 C 0.87604(19) 0.10545(12) 0.5143(2)
C58_3 C 0.8667(2) 0.05833(13) 0.5605(2)
H51_3 H 0.8138 0.0444 0.5696
C59_3 C 0.93423(19) 0.03181(13) 0.5928(2)
C60_3 C 0.8017(2) 0.13549(13) 0.4846(2)
O9_3 O 0.40496(19) 0.26497(11) 0.9368(2)
O10_3 O 0.42933(12) 0.48139(8) 0.66862(15)
O11_2 O 0.68643(13) 0.67747(9) 0.44231(15)
O12_4 O 0.76673(15) 0.61769(11) 0.5049(2)
N9_3 N 0.34291(16) 0.54209(11) 0.6255(2)
N10_3 N 0.30109(16) 0.50502(11) 0.6802(2)
C45_3 C 0.3446(2) 0.29390(13) 0.9455(2)
C46_3 C 0.34151(18) 0.33982(12) 0.8810(2)
C47_3 C 0.29093(18) 0.38200(13) 0.8972(2)
H45_3 H 0.2547 0.3815 0.9487
C48_3 C 0.29291(18) 0.42459(12) 0.8390(2)
H46_3 H 0.2582 0.4532 0.8505
C49_3 C 0.34660(18) 0.42527(12) 0.7629(2)
C50_3 C 0.3959(2) 0.38294(13) 0.7456(2)
H47_3 H 0.4316 0.3831 0.6937
C51_3 C 0.3931(2) 0.34047(13) 0.8039(2)
H48_3 H 0.4267 0.3115 0.7912
C52_3 C 0.35416(18) 0.47076(12) 0.7035(2)
C53_3 C 0.41751(19) 0.52638(12) 0.6215(2)
C54_3 C 0.48812(18) 0.55188(12) 0.5811(2)
C55_3 C 0.47875(19) 0.59845(12) 0.5323(2)
H49_3 H 0.4258 0.6119 0.5217
C56_4 C 0.54617(19) 0.62487(12) 0.4995(2)
H50_4 H 0.5392 0.6564 0.4668
C57_4 C 0.62396(19) 0.60545(12) 0.5143(2)
C58_4 C 0.6333(2) 0.55833(13) 0.5605(2)
H51_4 H 0.6862 0.5444 0.5696
C59_4 C 0.56577(19) 0.53181(13) 0.5928(2)
H52_3 H 0.5727 0.4996 0.6234
C60_4 C 0.6983(2) 0.63549(13) 0.4846(2)
Mn3_2 Mn 0.77282(3) 0.73060(2) 0.38657(3)
O1_4 O 0.87497(13) 0.68836(9) 0.45153(16)
H1_4 H 0.914 0.6842 0.4116
H2_4 H 0.8971 0.7069 0.495
O2_4 O 0.79034(13) 0.78932(9) 0.49389(15)
O3_4 O 0.90496(19) 0.76497(11) 0.5632(2)
O4_4 O 0.92933(12) 0.98139(8) 0.83138(15)
N3_4 N 0.66814(16) 0.78323(11) 0.34355(19)
N4_4 N 0.82503(15) 0.79207(10) 0.28345(18)
N5_4 N 0.82115(16) 0.68606(10) 0.26008(19)
C1_4 C 0.8446(2) 0.79390(13) 0.5545(2)
C2_4 C 0.84151(18) 0.83982(12) 0.6190(2)
C3_4 C 0.79093(18) 0.88200(13) 0.6028(2)
H3_4 H 0.7547 0.8815 0.5513
C4_4 C 0.79291(18) 0.92459(12) 0.6610(2)
H4_4 H 0.7582 0.9532 0.6495
C5_4 C 0.84660(18) 0.92527(12) 0.7371(2)
C6_4 C 0.8959(2) 0.88294(13) 0.7544(2)
H5_4 H 0.9316 0.8831 0.8063
C7_4 C 0.8931(2) 0.84047(13) 0.6961(2)
H6_4 H 0.9267 0.8115 0.7088
C8_4 C 0.85416(18) 0.97076(12) 0.7965(2)
C17_4 C 0.8513(2) 0.63775(14) 0.2636(2)
H11_4 H 0.8364 0.6162 0.3144
C18_4 C 0.9030(2) 0.61816(15) 0.1965(3)
H12_4 H 0.9232 0.5839 0.2013
C19_4 C 0.9247(2) 0.64887(16) 0.1227(3)
H13_4 H 0.9608 0.6364 0.0762
C20_4 C 0.8932(2) 0.69847(15) 0.1169(2)
H14_4 H 0.9064 0.7202 0.0658
C21_4 C 0.84205(19) 0.71561(13) 0.1869(2)
C22_4 C 0.8092(2) 0.76969(13) 0.1895(2)
H15_4 H 0.750 0.7693 0.1769
H16_4 H 0.836 0.7909 0.1411
C23_4 C 0.5892(2) 0.77571(14) 0.3645(2)
H17_4 H 0.5718 0.7419 0.3804
C24_4 C 0.5325(2) 0.81488(16) 0.3641(3)
H18_3 H 0.4772 0.808 0.3787
C25_4 C 0.5574(2) 0.86415(16) 0.3420(3)
H19_4 H 0.5198 0.892 0.3437
C26_4 C 0.6372(2) 0.87272(14) 0.3176(3)
H20_4 H 0.6554 0.9062 0.3002
C27_4 C 0.6905(2) 0.83108(13) 0.3193(2)
C28_4 C 0.77984(19) 0.84014(12) 0.2975(2)
H21_4 H 0.8049 0.8596 0.3494
H22_4 H 0.7842 0.8615 0.2406
C29_4 C 0.91281(18) 0.79971(13) 0.3012(2)
H23_4 H 0.9201 0.8082 0.3679
H24_4 H 0.9412 0.7666 0.2896
C30_4 C 0.95409(19) 0.84161(12) 0.2433(2)
H25_4 H 0.9321 0.8757 0.2613
H26_4 H 0.9415 0.836 0.1766
H34_3 H 0.9772 0.308 0.1213
O6_4 O 0.26673(15) 0.11769(11) 0.9951(2)
C13_4 C 0.12396(19) 0.10545(12) 0.9857(2)
C14_4 C 0.1333(2) 0.05833(13) 0.9395(2)
H9_4 H 0.1862 0.0444 0.9304
C15_4 C 0.06577(19) 0.03181(13) 0.9072(2)
N9_4 N 0.15709(16) 0.04209(11) 0.6255(2)
N10_4 N 0.19891(16) 0.00502(11) 0.6802(2)
C53_4 C 0.08249(19) 0.02638(12) 0.6215(2)
C54_4 C 0.01188(18) 0.05188(12) 0.5811(2)
C55_4 C 0.02125(19) 0.09845(12) 0.5323(2)
H49_4 H 0.0742 0.1119 0.5217
O9_4 O 0.09504(19) 0.76497(11) 0.9368(2)
O10_4 O 0.07067(12) 0.98139(8) 0.66862(15)
C45_4 C 0.1554(2) 0.79390(13) 0.9455(2)
C46_4 C 0.15849(18) 0.83982(12) 0.8810(2)
C47_4 C 0.20907(18) 0.88200(13) 0.8972(2)
H45_4 H 0.2453 0.8815 0.9487
C48_4 C 0.20709(18) 0.92459(12) 0.8390(2)
H46_4 H 0.2418 0.9532 0.8505
C49_4 C 0.15340(18) 0.92527(12) 0.7629(2)
C50_4 C 0.1041(2) 0.88294(13) 0.7456(2)
H47_4 H 0.0684 0.8831 0.6937
C51_4 C 0.1069(2) 0.84047(13) 0.8039(2)
H48_4 H 0.0733 0.8115 0.7912
C52_4 C 0.14584(18) 0.97076(12) 0.7035(2)
N1_4 N 0.84291(16) 0.04209(11) 0.8745(2)
N2_4 N 0.80109(16) 0.00502(11) 0.8198(2)
C9_4 C 0.91751(19) 0.02638(12) 0.8785(2)
C10_4 C 0.98812(18) 0.05188(12) 0.9189(2)
C11_4 C 0.97875(19) 0.09845(12) 0.9677(2)
H7_4 H 0.9258 0.1119 0.9783
H52_4 H 0.9273 0.9996 0.6234
H34_4 H 0.0228 0.692 0.8787
H18_4 H 0.9772 0.692 0.6213
loop_
_geom_bond_atom_site_label_1
_geom_bond_atom_site_label_2
_geom_bond_site_symmetry_1
_geom_bond_site_symmetry_2
Mn1 O1 1_555 1_555
O1 H1 1_555 1_555
H2 O1 1_555 1_555
O2 Mn1 1_555 1_555
O3 C1 1_555 1_555
O4 C8 1_555 1_555
N3 Mn1 1_555 1_555
N4 Mn1 1_555 1_555
N5 Mn1 1_555 1_555
C1 O2 1_555 1_555
C2 C1 1_555 1_555
C3 C2 1_555 1_555
H3 C3 1_555 1_555
C4 C3 1_555 1_555
H4 C4 1_555 1_555
C5 C4 1_555 1_555
C6 C5 1_555 1_555
H5 C6 1_555 1_555
C7 C2 1_555 1_555
H6 C7 1_555 1_555
C8 C5 1_555 1_555
C17 N5 1_555 1_555
H11 C17 1_555 1_555
C18 C17 1_555 1_555
H12 C18 1_555 1_555
C19 C18 1_555 1_555
H13 C19 1_555 1_555
C20 C19 1_555 1_555
H14 C20 1_555 1_555
C21 N5 1_555 1_555
C22 N4 1_555 1_555
H15 C22 1_555 1_555
H16 C22 1_555 1_555
C23 N3 1_555 1_555
H17 C23 1_555 1_555
C24 C23 1_555 1_555
H18 C24 1_555 1_555
C25 C24 1_555 1_555
H19 C25 1_555 1_555
C26 C25 1_555 1_555
H20 C26 1_555 1_555
C27 N3 1_555 1_555
C28 N4 1_555 1_555
H21 C28 1_555 1_555
H22 C28 1_555 1_555
C29 N4 1_555 1_555
H23 C29 1_555 1_555
H24 C29 1_555 1_555
C30 C29 1_555 1_555
H25 C30 1_555 1_555
H26 C30 1_555 1_555
O14 Mn1 1_555 1_555
C6 C7 1_555 1_555
C20 C21 1_555 1_555
C21 C22 1_555 1_555
C26 C27 1_555 1_555
C27 C28 1_555 1_555
O9 C45 1_555 1_555
O10 C52 1_555 1_555
O14 C60 1_555 1_555
O12 C60 1_555 1_555
N9 N10 1_555 1_555
N10 C52 1_555 1_555
C46 C45 1_555 1_555
C47 C46 1_555 1_555
H45 C47 1_555 1_555
C48 C47 1_555 1_555
H46 C48 1_555 1_555
C49 C48 1_555 1_555
C50 C49 1_555 1_555
H47 C50 1_555 1_555
C51 C46 1_555 1_555
H48 C51 1_555 1_555
C52 C49 1_555 1_555
C53 O10 1_555 1_555
C54 C53 1_555 1_555
C55 C54 1_555 1_555
H49 C55 1_555 1_555
C56 C55 1_555 1_555
H50 C56 1_555 1_555
C57 C56 1_555 1_555
C58 C57 1_555 1_555
H51 C58 1_555 1_555
C59 C54 1_555 1_555
H52_2 C59 1_555 1_555
C60 C57 1_555 1_555
N9 C53 1_555 1_555
C50 C51 1_555 1_555
C58 C59 1_555 1_555
O11 C60_2 1_555 1_555
O12_2 C60_2 1_555 1_555
H50_2 C56_2 1_555 1_555
C57_2 C56_2 1_555 1_555
C58_2 C57_2 1_555 1_555
H51_2 C58_2 1_555 1_555
C60_2 C57_2 1_555 1_555
Mn3 O11 1_555 1_555
C58_2 C59_2 1_555 1_555
O5 C16 1_555 1_555
H8 C12 1_555 1_555
Mn4 O5 1_555 1_555
Mn3 O1_2 1_555 1_555
O1_2 H1_2 1_555 1_555
H2_2 O1_2 1_555 1_555
O2_2 Mn3 1_555 1_555
O3_2 C1_2 1_555 1_555
O4_2 C8_2 1_555 1_555
N1 N2 1_555 1_555
N2 C8_2 1_555 1_555
N3_2 Mn3 1_555 1_555
N4_2 Mn3 1_555 1_555
N5_2 Mn3 1_555 1_555
C1_2 O2_2 1_555 1_555
C2_2 C1_2 1_555 1_555
C3_2 C2_2 1_555 1_555
H3_2 C3_2 1_555 1_555
C4_2 C3_2 1_555 1_555
H4_2 C4_2 1_555 1_555
C5_2 C4_2 1_555 1_555
C6_2 C5_2 1_555 1_555
H5_2 C6_2 1_555 1_555
C7_2 C2_2 1_555 1_555
H6_2 C7_2 1_555 1_555
C8_2 C5_2 1_555 1_555
C9 O4_2 1_555 1_555
C10 C9 1_555 1_555
C11 C10 1_555 1_555
H7 C11 1_555 1_555
C14 C13 1_555 1_555
H9 C14 1_555 1_555
C15 C10 1_555 1_555
H10 C15 1_555 1_555
C17_2 N5_2 1_555 1_555
H11_2 C17_2 1_555 1_555
C18_2 C17_2 1_555 1_555
H12_2 C18_2 1_555 1_555
C19_2 C18_2 1_555 1_555
H13_2 C19_2 1_555 1_555
C20_2 C19_2 1_555 1_555
H14_2 C20_2 1_555 1_555
C21_2 N5_2 1_555 1_555
C22_2 N4_2 1_555 1_555
H15_2 C22_2 1_555 1_555
H16_2 C22_2 1_555 1_555
C23_2 N3_2 1_555 1_555
H17_2 C23_2 1_555 1_555
C24_2 C23_2 1_555 1_555
C25_2 C24_2 1_555 1_555
H19_2 C25_2 1_555 1_555
C26_2 C25_2 1_555 1_555
H20_2 C26_2 1_555 1_555
C27_2 N3_2 1_555 1_555
C28_2 N4_2 1_555 1_555
H21_2 C28_2 1_555 1_555
H22_2 C28_2 1_555 1_555
C29_2 N4_2 1_555 1_555
H23_2 C29_2 1_555 1_555
H24_2 C29_2 1_555 1_555
C30_2 C29_2 1_555 1_555
H25_2 C30_2 1_555 1_555
H26_2 C30_2 1_555 1_555
N6 C37 1_555 1_555
N7 C36 1_555 1_555
N8 C31 1_555 1_555
C31 H27 1_555 1_555
C32 C31 1_555 1_555
H28 C32 1_555 1_555
C33 C32 1_555 1_555
H29 C33 1_555 1_555
C34 C33 1_555 1_555
H30 C34 1_555 1_555
C35 N8 1_555 1_555
C36 C35 1_555 1_555
H31 C36 1_555 1_555
H32 C36 1_555 1_555
C37 H33 1_555 1_555
C38 C37 1_555 1_555
C39 C38 1_555 1_555
H35 C39 1_555 1_555
C40 C39 1_555 1_555
H36 C40 1_555 1_555
C41 N6 1_555 1_555
C42 N7 1_555 1_555
H37 C42 1_555 1_555
H38 C42 1_555 1_555
C43 N7 1_555 1_555
H39 C43 1_555 1_555
H40 C43 1_555 1_555
C44 C30_2 1_555 1_555
H41 C44 1_555 1_555
H42 C44 1_555 1_555
Mn4 N6 1_555 1_555
O7 Mn4 1_555 1_555
H43 O7 1_555 1_555
H44 O7 1_555 1_555
O8 Mn4 1_555 1_555
N1 C9 1_555 1_555
C6_2 C7_2 1_555 1_555
C14 C15 1_555 1_555
C20_2 C21_2 1_555 1_555
C21_2 C22_2 1_555 1_555
C26_2 C27_2 1_555 1_555
C27_2 C28_2 1_555 1_555
N7 Mn4 1_555 1_555
N8 Mn4 1_555 1_555
C34 C35 1_555 1_555
C40 C41 1_555 1_555
C41 C42 1_555 1_555
C43 C44 1_555 1_555
N1_2 N2_2 1_555 1_555
C10_2 C9_2 1_555 1_555
C11_2 C10_2 1_555 1_555
H7_2 C11_2 1_555 1_555
N1_2 C9_2 1_555 1_555
O9_2 C45_2 1_555 1_555
O10_2 C52_2 1_555 1_555
C46_2 C45_2 1_555 1_555
C47_2 C46_2 1_555 1_555
H45_2 C47_2 1_555 1_555
C48_2 C47_2 1_555 1_555
H46_2 C48_2 1_555 1_555
C49_2 C48_2 1_555 1_555
C50_2 C49_2 1_555 1_555
H47_2 C50_2 1_555 1_555
C51_2 C46_2 1_555 1_555
H48_2 C51_2 1_555 1_555
C52_2 C49_2 1_555 1_555
C50_2 C51_2 1_555 1_555
N6_2 C37_2 1_555 1_555
N7_2 C36_2 1_555 1_555
N8_2 C31_2 1_555 1_555
C31_2 H27_2 1_555 1_555
C32_2 C31_2 1_555 1_555
H28_2 C32_2 1_555 1_555
C33_2 C32_2 1_555 1_555
H29_2 C33_2 1_555 1_555
C34_2 C33_2 1_555 1_555
H30_2 C34_2 1_555 1_555
C35_2 N8_2 1_555 1_555
C36_2 C35_2 1_555 1_555
H31_2 C36_2 1_555 1_555
H32_2 C36_2 1_555 1_555
C37_2 H33_2 1_555 1_555
C38_2 C37_2 1_555 1_555
H34 C38_2 1_555 1_555
C39_2 C38_2 1_555 1_555
H35_2 C39_2 1_555 1_555
C40_2 C39_2 1_555 1_555
H36_2 C40_2 1_555 1_555
C41_2 N6_2 1_555 1_555
C42_2 N7_2 1_555 1_555
H37_2 C42_2 1_555 1_555
H38_2 C42_2 1_555 1_555
C43_2 N7_2 1_555 1_555
H39_2 C43_2 1_555 1_555
H40_2 C43_2 1_555 1_555
H41_2 C44_2 1_555 1_555
H42_2 C44_2 1_555 1_555
Mn2 N6_2 1_555 1_555
O7_2 Mn2 1_555 1_555
H43_2 O7_2 1_555 1_555
H44_2 O7_2 1_555 1_555
O8_2 Mn2 1_555 1_555
O13 Mn2 1_555 1_555
N7_2 Mn2 1_555 1_555
N8_2 Mn2 1_555 1_555
C34_2 C35_2 1_555 1_555
C40_2 C41_2 1_555 1_555
C41_2 C42_2 1_555 1_555
C43_2 C44_2 1_555 1_555
O13 C16_2 1_555 1_555
H8_2 C12_2 1_555 1_555
N9_2 N10_2 1_555 1_555
C54_2 C53_2 1_555 1_555
C55_2 C54_2 1_555 1_555
H49_2 C55_2 1_555 1_555
N9_2 C53_2 1_555 1_555
C14_2 C13_2 1_555 1_555
H9_2 C14_2 1_555 1_555
C14_2 C15_2 1_555 1_555
O5_2 C16_3 1_555 1_555
H8_3 C12_3 1_555 1_555
Mn4_2 O5_2 1_555 1_555
N6_3 C37_3 1_555 1_555
N7_3 C36_3 1_555 1_555
N8_3 C31_3 1_555 1_555
C31_3 H27_3 1_555 1_555
C32_3 C31_3 1_555 1_555
H28_3 C32_3 1_555 1_555
C33_3 C32_3 1_555 1_555
H29_3 C33_3 1_555 1_555
C34_3 C33_3 1_555 1_555
H30_3 C34_3 1_555 1_555
C35_3 N8_3 1_555 1_555
C36_3 C35_3 1_555 1_555
H31_3 C36_3 1_555 1_555
H32_3 C36_3 1_555 1_555
C37_3 H33_3 1_555 1_555
C38_3 C37_3 1_555 1_555
H34_2 C38_3 1_555 1_555
C39_3 C38_3 1_555 1_555
H35_3 C39_3 1_555 1_555
C40_3 C39_3 1_555 1_555
H36_3 C40_3 1_555 1_555
C41_3 N6_3 1_555 1_555
C42_3 N7_3 1_555 1_555
H37_3 C42_3 1_555 1_555
H38_3 C42_3 1_555 1_555
C43_3 N7_3 1_555 1_555
H39_3 C43_3 1_555 1_555
H40_3 C43_3 1_555 1_555
H41_3 C44_3 1_555 1_555
H42_3 C44_3 1_555 1_555
Mn4_2 N6_3 1_555 1_555
O7_3 Mn4_2 1_555 1_555
H43_3 O7_3 1_555 1_555
H44_3 O7_3 1_555 1_555
O8_3 Mn4_2 1_555 1_555
N7_3 Mn4_2 1_555 1_555
N8_3 Mn4_2 1_555 1_555
C34_3 C35_3 1_555 1_555
C40_3 C41_3 1_555 1_555
C41_3 C42_3 1_555 1_555
C43_3 C44_3 1_555 1_555
Mn1_2 O1_3 1_555 1_555
O1_3 H1_3 1_555 1_555
H2_3 O1_3 1_555 1_555
O2_3 Mn1_2 1_555 1_555
O3_3 C1_3 1_555 1_555
O4_3 C8_3 1_555 1_555
N1_3 N2_3 1_555 1_555
N2_3 C8_3 1_555 1_555
N3_3 Mn1_2 1_555 1_555
N4_3 Mn1_2 1_555 1_555
N5_3 Mn1_2 1_555 1_555
C1_3 O2_3 1_555 1_555
C2_3 C1_3 1_555 1_555
C3_3 C2_3 1_555 1_555
H3_3 C3_3 1_555 1_555
C4_3 C3_3 1_555 1_555
H4_3 C4_3 1_555 1_555
C5_3 C4_3 1_555 1_555
C6_3 C5_3 1_555 1_555
H5_3 C6_3 1_555 1_555
C7_3 C2_3 1_555 1_555
H6_3 C7_3 1_555 1_555
C8_3 C5_3 1_555 1_555
C9_3 O4_3 1_555 1_555
C10_3 C9_3 1_555 1_555
C11_3 C10_3 1_555 1_555
H7_3 C11_3 1_555 1_555
C14_3 C13_3 1_555 1_555
H9_3 C14_3 1_555 1_555
C15_3 C10_3 1_555 1_555
H10_4 C15_3 1_555 1_555
C17_3 N5_3 1_555 1_555
H11_3 C17_3 1_555 1_555
C18_3 C17_3 1_555 1_555
H12_3 C18_3 1_555 1_555
C19_3 C18_3 1_555 1_555
H13_3 C19_3 1_555 1_555
C20_3 C19_3 1_555 1_555
H14_3 C20_3 1_555 1_555
C21_3 N5_3 1_555 1_555
C22_3 N4_3 1_555 1_555
H15_3 C22_3 1_555 1_555
H16_3 C22_3 1_555 1_555
C23_3 N3_3 1_555 1_555
H17_3 C23_3 1_555 1_555
C24_3 C23_3 1_555 1_555
C25_3 C24_3 1_555 1_555
H19_3 C25_3 1_555 1_555
C26_3 C25_3 1_555 1_555
H20_3 C26_3 1_555 1_555
C27_3 N3_3 1_555 1_555
C28_3 N4_3 1_555 1_555
H21_3 C28_3 1_555 1_555
H22_3 C28_3 1_555 1_555
C29_3 N4_3 1_555 1_555
H23_3 C29_3 1_555 1_555
H24_3 C29_3 1_555 1_555
C30_3 C29_3 1_555 1_555
H25_3 C30_3 1_555 1_555
H26_3 C30_3 1_555 1_555
N6_4 C37_4 1_555 1_555
N7_4 C36_4 1_555 1_555
N8_4 C31_4 1_555 1_555
C31_4 H27_4 1_555 1_555
C32_4 C31_4 1_555 1_555
H28_4 C32_4 1_555 1_555
C33_4 C32_4 1_555 1_555
H29_4 C33_4 1_555 1_555
C34_4 C33_4 1_555 1_555
H30_4 C34_4 1_555 1_555
C35_4 N8_4 1_555 1_555
C36_4 C35_4 1_555 1_555
H31_4 C36_4 1_555 1_555
H32_4 C36_4 1_555 1_555
C37_4 H33_4 1_555 1_555
C38_4 C37_4 1_555 1_555
C39_4 C38_4 1_555 1_555
H35_4 C39_4 1_555 1_555
C40_4 C39_4 1_555 1_555
H36_4 C40_4 1_555 1_555
C41_4 N6_4 1_555 1_555
C42_4 N7_4 1_555 1_555
H37_4 C42_4 1_555 1_555
H38_4 C42_4 1_555 1_555
C43_4 N7_4 1_555 1_555
H39_4 C43_4 1_555 1_555
H40_4 C43_4 1_555 1_555
C44_4 C30_3 1_555 1_555
H41_4 C44_4 1_555 1_555
H42_4 C44_4 1_555 1_555
Mn2_2 N6_4 1_555 1_555
O7_4 Mn2_2 1_555 1_555
H43_4 O7_4 1_555 1_555
H44_4 O7_4 1_555 1_555
O8_4 Mn2_2 1_555 1_555
O13_2 Mn2_2 1_555 1_555
O14_2 Mn1_2 1_555 1_555
N1_3 C9_3 1_555 1_555
C6_3 C7_3 1_555 1_555
C14_3 C15_3 1_555 1_555
C20_3 C21_3 1_555 1_555
C21_3 C22_3 1_555 1_555
C26_3 C27_3 1_555 1_555
C27_3 C28_3 1_555 1_555
N7_4 Mn2_2 1_555 1_555
N8_4 Mn2_2 1_555 1_555
C34_4 C35_4 1_555 1_555
C40_4 C41_4 1_555 1_555
C41_4 C42_4 1_555 1_555
C43_4 C44_4 1_555 1_555
O13_2 C16_4 1_555 1_555
H8_4 C12_4 1_555 1_555
O14_2 C60_3 1_555 1_555
O12_3 C60_3 1_555 1_555
H50_3 C56_3 1_555 1_555
C57_3 C56_3 1_555 1_555
C58_3 C57_3 1_555 1_555
H51_3 C58_3 1_555 1_555
C60_3 C57_3 1_555 1_555
C58_3 C59_3 1_555 1_555
O9_3 C45_3 1_555 1_555
O10_3 C52_3 1_555 1_555
O11_2 C60_4 1_555 1_555
O12_4 C60_4 1_555 1_555
N9_3 N10_3 1_555 1_555
N10_3 C52_3 1_555 1_555
C46_3 C45_3 1_555 1_555
C47_3 C46_3 1_555 1_555
H45_3 C47_3 1_555 1_555
C48_3 C47_3 1_555 1_555
H46_3 C48_3 1_555 1_555
C49_3 C48_3 1_555 1_555
C50_3 C49_3 1_555 1_555
H47_3 C50_3 1_555 1_555
C51_3 C46_3 1_555 1_555
H48_3 C51_3 1_555 1_555
C52_3 C49_3 1_555 1_555
C53_3 O10_3 1_555 1_555
C54_3 C53_3 1_555 1_555
C55_3 C54_3 1_555 1_555
H49_3 C55_3 1_555 1_555
C56_4 C55_3 1_555 1_555
H50_4 C56_4 1_555 1_555
C57_4 C56_4 1_555 1_555
C58_4 C57_4 1_555 1_555
H51_4 C58_4 1_555 1_555
C59_4 C54_3 1_555 1_555
H52_3 C59_4 1_555 1_555
C60_4 C57_4 1_555 1_555
Mn3_2 O11_2 1_555 1_555
N9_3 C53_3 1_555 1_555
C50_3 C51_3 1_555 1_555
C58_4 C59_4 1_555 1_555
Mn3_2 O1_4 1_555 1_555
O1_4 H1_4 1_555 1_555
H2_4 O1_4 1_555 1_555
O2_4 Mn3_2 1_555 1_555
O3_4 C1_4 1_555 1_555
O4_4 C8_4 1_555 1_555
N3_4 Mn3_2 1_555 1_555
N4_4 Mn3_2 1_555 1_555
N5_4 Mn3_2 1_555 1_555
C1_4 O2_4 1_555 1_555
C2_4 C1_4 1_555 1_555
C3_4 C2_4 1_555 1_555
H3_4 C3_4 1_555 1_555
C4_4 C3_4 1_555 1_555
H4_4 C4_4 1_555 1_555
C5_4 C4_4 1_555 1_555
C6_4 C5_4 1_555 1_555
H5_4 C6_4 1_555 1_555
C7_4 C2_4 1_555 1_555
H6_4 C7_4 1_555 1_555
C8_4 C5_4 1_555 1_555
C17_4 N5_4 1_555 1_555
H11_4 C17_4 1_555 1_555
C18_4 C17_4 1_555 1_555
H12_4 C18_4 1_555 1_555
C19_4 C18_4 1_555 1_555
H13_4 C19_4 1_555 1_555
C20_4 C19_4 1_555 1_555
H14_4 C20_4 1_555 1_555
C21_4 N5_4 1_555 1_555
C22_4 N4_4 1_555 1_555
H15_4 C22_4 1_555 1_555
H16_4 C22_4 1_555 1_555
C23_4 N3_4 1_555 1_555
H17_4 C23_4 1_555 1_555
C24_4 C23_4 1_555 1_555
H18_3 C24_4 1_555 1_555
C25_4 C24_4 1_555 1_555
H19_4 C25_4 1_555 1_555
C26_4 C25_4 1_555 1_555
H20_4 C26_4 1_555 1_555
C27_4 N3_4 1_555 1_555
C28_4 N4_4 1_555 1_555
H21_4 C28_4 1_555 1_555
H22_4 C28_4 1_555 1_555
C29_4 N4_4 1_555 1_555
H23_4 C29_4 1_555 1_555
H24_4 C29_4 1_555 1_555
C30_4 C29_4 1_555 1_555
H25_4 C30_4 1_555 1_555
H26_4 C30_4 1_555 1_555
C6_4 C7_4 1_555 1_555
C20_4 C21_4 1_555 1_555
C21_4 C22_4 1_555 1_555
C26_4 C27_4 1_555 1_555
C27_4 C28_4 1_555 1_555
C14_4 C13_4 1_555 1_555
H9_4 C14_4 1_555 1_555
C14_4 C15_4 1_555 1_555
N9_4 N10_4 1_555 1_555
C54_4 C53_4 1_555 1_555
C55_4 C54_4 1_555 1_555
H49_4 C55_4 1_555 1_555
N9_4 C53_4 1_555 1_555
O9_4 C45_4 1_555 1_555
O10_4 C52_4 1_555 1_555
C46_4 C45_4 1_555 1_555
C47_4 C46_4 1_555 1_555
H45_4 C47_4 1_555 1_555
C48_4 C47_4 1_555 1_555
H46_4 C48_4 1_555 1_555
C49_4 C48_4 1_555 1_555
C50_4 C49_4 1_555 1_555
H47_4 C50_4 1_555 1_555
C51_4 C46_4 1_555 1_555
H48_4 C51_4 1_555 1_555
C52_4 C49_4 1_555 1_555
C50_4 C51_4 1_555 1_555
N1_4 N2_4 1_555 1_555
C10_4 C9_4 1_555 1_555
C11_4 C10_4 1_555 1_555
H7_4 C11_4 1_555 1_555
N1_4 C9_4 1_555 1_555

#END
