
###############################################################################
#
# This file contains modified crystal structure data generated from the
# MOF subset of the Cambridge Structural Database (CSD) v543 
# hosted by the Cambridge Crystallographic Data Centre (CCDC).
#
# This work is licensed under the Creative Commons
# Attribution-NonCommercial-ShareAlike 4.0 International License.
# To view a copy of this license, visit
# http://creativecommons.org/licenses/by-nc-sa/4.0/
# or send a letter to
# Creative Commons, PO Box 1866, Mountain View, CA 94042, USA.
#
# CIF created using the CSD Python API on 29 September 2022
# The structure has been converted into the P1 space group
# The structure has a 3D framework
# The original CSD entry JUXZOT is in the monoclinic crystal system
# The framework has been calculated to contain at least 10.0% void space
# The void calculation uses a probe of radius 1.32A, grid spacing 0.4
# The framework is charged, counterions have been retained in the structure
#
###############################################################################

data_JUXZOT
_chemical_formula_moiety         '(C104 H104 Cd2 N8 O29 1+)n'
_symmetry_cell_setting           triclinic
_symmetry_space_group_name_H-M   'P 1'
_symmetry_Int_Tables_number      1
_space_group_name_Hall           'P 1'
loop_
_symmetry_equiv_pos_site_id
_symmetry_equiv_pos_as_xyz
1 x,y,z
_cell_length_a                   24.308(2)
_cell_length_b                   9.3640(7)
_cell_length_c                   19.1309(18)
_cell_angle_alpha                90
_cell_angle_beta                 125.636(2)
_cell_angle_gamma                90
_cell_volume                     3539.12
loop_
_atom_site_label
_atom_site_type_symbol
_atom_site_fract_x
_atom_site_fract_y
_atom_site_fract_z
Cd4 Cd -0.0000 0.00344(3) 0.7500
Cd2 Cd 0.0000 0.99656(3) 0.2500
O5 O 0.87685(10) 0.0348(2) 0.62771(13)
H8 H 0.9304 0.0081 0.4276
Cd4_2 Cd 1.0000 0.00344(3) 0.7500
Cd1 Cd 0.5000 0.49656(3) 0.2500
O1 O 0.62315(10) 0.4652(2) 0.37229(13)
O2 O 0.57286(9) 0.6758(2) 0.34033(12)
O3 O 0.53089(12) 0.5405(3) 0.66387(14)
O4 O 0.54353(11) 0.7682(3) 0.70250(13)
C1 C 0.62379(12) 0.5969(3) 0.38313(15)
C2 C 0.55090(13) 0.6661(3) 0.66683(16)
C3 C 0.73495(12) 0.6856(3) 0.42668(15)
H1 H 0.7246 0.6409 0.3769
C4 C 0.69011(12) 0.6713(3) 0.44869(14)
C5 C 0.70520(12) 0.7363(3) 0.52448(14)
C6 C 0.66134(12) 0.7213(3) 0.55521(15)
C7 C 0.62844(14) 0.5932(3) 0.54605(17)
H2 H 0.6312 0.5175 0.5168
C8 C 0.59180(14) 0.5776(3) 0.57998(17)
H3 H 0.5696 0.4919 0.5724
C9 C 0.58755(13) 0.6879(3) 0.62525(15)
C10 C 0.61882(14) 0.8167(3) 0.63275(17)
H4 H 0.6151 0.8928 0.6610
C11 C 0.65549(13) 0.8334(3) 0.59862(17)
H5 H 0.6764 0.9202 0.6047
O6 O 0.92714(9) 0.8242(2) 0.65967(12)
O7 O 0.96911(12) 0.9595(3) 0.33613(14)
O8 O 0.95647(11) 0.7318(3) 0.29750(13)
C12 C 0.87621(12) 0.9031(3) 0.61687(15)
C13 C 0.94910(13) 0.8339(3) 0.33317(16)
C14 C 0.76505(12) 0.8144(3) 0.57332(15)
H6 H 0.7754 0.8591 0.6231
C15 C 0.80989(12) 0.8287(3) 0.55131(14)
C16 C 0.79480(12) 0.7637(3) 0.47552(14)
C17 C 0.83866(12) 0.7787(3) 0.44479(15)
C18 C 0.87156(14) 0.9068(3) 0.45395(17)
H7 H 0.8688 0.9825 0.4832
C19 C 0.90820(14) 0.9224(3) 0.42002(17)
C20 C 0.91245(13) 0.8121(3) 0.37475(15)
C21 C 0.88118(14) 0.6833(3) 0.36725(17)
H9 H 0.8849 0.6072 0.3390
C22 C 0.84451(13) 0.6666(3) 0.40138(17)
H10 H 0.8236 0.5798 0.3953
Cd2_2 Cd 1.0000 0.99656(3) 0.2500
Cd3 Cd 0.5000 0.50344(3) 0.7500
O9 O 0.37685(10) 0.4652(2) 0.12771(13)
O10 O 0.42714(9) 0.6758(2) 0.15967(12)
O11 O 0.46911(12) 0.4595(3) 0.33613(14)
O12 O 0.53089(12) 0.4595(3) 0.16387(14)
O5_2 O 0.12315(10) 0.0348(2) 0.87229(13)
C1_2 C 0.37621(12) 0.5969(3) 0.11687(15)
C3_2 C 0.26505(12) 0.6856(3) 0.07332(15)
H1_2 H 0.2754 0.6409 0.1231
C4_2 C 0.30989(12) 0.6713(3) 0.05131(14)
O7_2 O 0.03089(12) 0.9595(3) 0.16387(14)
O8_2 O 0.04353(11) 0.7318(3) 0.20250(13)
C13_2 C 0.05090(13) 0.8339(3) 0.16683(16)
C16_2 C 0.20520(12) 0.7637(3) 0.02448(14)
C17_2 C 0.16134(12) 0.7787(3) 0.05521(15)
C18_2 C 0.12844(14) 0.9068(3) 0.04605(17)
H7_2 H 0.1312 0.9825 0.0168
C19_2 C 0.09180(14) 0.9224(3) 0.07998(17)
C20_2 C 0.08755(13) 0.8121(3) 0.12525(15)
C21_2 C 0.11882(14) 0.6833(3) 0.13275(17)
H9_2 H 0.1151 0.6072 0.1610
C22_2 C 0.15549(13) 0.6666(3) 0.09862(17)
H10_2 H 0.1764 0.5798 0.1047
O3_2 O 0.46911(12) 0.5405(3) 0.83613(14)
O4_2 O 0.45647(11) 0.7682(3) 0.79750(13)
C2_2 C 0.44910(13) 0.6661(3) 0.83317(16)
C5_2 C 0.29480(12) 0.7363(3) 0.97552(14)
C6_2 C 0.33866(12) 0.7213(3) 0.94479(15)
C7_2 C 0.37156(14) 0.5932(3) 0.95395(17)
H2_2 H 0.3688 0.5175 0.9832
C8_2 C 0.40820(14) 0.5776(3) 0.92002(17)
H3_2 H 0.4304 0.4919 0.9276
C9_2 C 0.41245(13) 0.6879(3) 0.87475(15)
C10_2 C 0.38118(14) 0.8167(3) 0.86725(17)
H4_2 H 0.3849 0.8928 0.8390
C11_2 C 0.34451(13) 0.8334(3) 0.90138(17)
H5_2 H 0.3236 0.9202 0.8953
O6_2 O 0.07286(9) 0.8242(2) 0.84033(12)
C12_2 C 0.12379(12) 0.9031(3) 0.88313(15)
C14_2 C 0.23495(12) 0.8144(3) 0.92668(15)
H6_2 H 0.2246 0.8591 0.8769
C15_2 C 0.19011(12) 0.8287(3) 0.94869(14)
O2_2 O 0.07286(9) 0.1758(2) 0.34033(12)
O3_3 O 0.03089(12) 0.0405(3) 0.66387(14)
O4_3 O 0.04353(11) 0.2682(3) 0.70250(13)
C1_3 C 0.12379(12) 0.0969(3) 0.38313(15)
C2_3 C 0.05090(13) 0.1661(3) 0.66683(16)
C3_3 C 0.23495(12) 0.1856(3) 0.42668(15)
H1_3 H 0.2246 0.1409 0.3769
C4_3 C 0.19011(12) 0.1713(3) 0.44869(14)
C5_3 C 0.20520(12) 0.2363(3) 0.52448(14)
C6_3 C 0.16134(12) 0.2213(3) 0.55521(15)
C7_3 C 0.12844(14) 0.0932(3) 0.54605(17)
H2_3 H 0.1312 0.0175 0.5168
C8_3 C 0.09180(14) 0.0776(3) 0.57998(17)
C9_3 C 0.08755(13) 0.1879(3) 0.62525(15)
C10_3 C 0.11882(14) 0.3167(3) 0.63275(17)
H4_3 H 0.1151 0.3928 0.6610
C11_3 C 0.15549(13) 0.3334(3) 0.59862(17)
H5_3 H 0.1764 0.4202 0.6047
O5_3 O 0.37685(10) 0.5348(2) 0.62771(13)
O6_3 O 0.42714(9) 0.3242(2) 0.65967(12)
O8_3 O 0.45647(11) 0.2318(3) 0.29750(13)
C12_3 C 0.37621(12) 0.4031(3) 0.61687(15)
C13_3 C 0.44910(13) 0.3339(3) 0.33317(16)
C14_3 C 0.26505(12) 0.3144(3) 0.57332(15)
H6_3 H 0.2754 0.3591 0.6231
C15_3 C 0.30989(12) 0.3287(3) 0.55131(14)
C16_3 C 0.29480(12) 0.2637(3) 0.47552(14)
C17_3 C 0.33866(12) 0.2787(3) 0.44479(15)
C18_3 C 0.37156(14) 0.4068(3) 0.45395(17)
H7_3 H 0.3688 0.4825 0.4832
C19_3 C 0.40820(14) 0.4224(3) 0.42002(17)
H8_2 H 0.4304 0.5081 0.4276
C20_3 C 0.41245(13) 0.3121(3) 0.37475(15)
C21_3 C 0.38118(14) 0.1833(3) 0.36725(17)
H9_3 H 0.3849 0.1072 0.3390
C22_3 C 0.34451(13) 0.1666(3) 0.40138(17)
H10_3 H 0.3236 0.0798 0.3953
O1_2 O 0.12315(10) 0.9652(2) 0.37229(13)
H3_3 H 0.0696 0.9919 0.5724
O10_2 O 0.92714(9) 0.1758(2) 0.15967(12)
O9_2 O 0.87685(10) 0.9652(2) 0.12771(13)
C1_4 C 0.87621(12) 0.0969(3) 0.11687(15)
C3_4 C 0.76505(12) 0.1856(3) 0.07332(15)
H1_4 H 0.7754 0.1409 0.1231
C4_4 C 0.80989(12) 0.1713(3) 0.05131(14)
O8_4 O 0.54353(11) 0.2318(3) 0.20250(13)
C13_4 C 0.55090(13) 0.3339(3) 0.16683(16)
C16_4 C 0.70520(12) 0.2637(3) 0.02448(14)
C17_4 C 0.66134(12) 0.2787(3) 0.05521(15)
C18_4 C 0.62844(14) 0.4068(3) 0.04605(17)
H7_4 H 0.6312 0.4825 0.0168
C19_4 C 0.59180(14) 0.4224(3) 0.07998(17)
H8_3 H 0.5696 0.5081 0.0724
C20_4 C 0.58755(13) 0.3121(3) 0.12525(15)
C21_4 C 0.61882(14) 0.1833(3) 0.13275(17)
H9_4 H 0.6151 0.1072 0.1610
C22_4 C 0.65549(13) 0.1666(3) 0.09862(17)
H10_4 H 0.6764 0.0798 0.1047
O3_4 O 0.96911(12) 0.0405(3) 0.83613(14)
O4_4 O 0.95647(11) 0.2682(3) 0.79750(13)
C2_4 C 0.94910(13) 0.1661(3) 0.83317(16)
C5_4 C 0.79480(12) 0.2363(3) 0.97552(14)
C6_4 C 0.83866(12) 0.2213(3) 0.94479(15)
C7_4 C 0.87156(14) 0.0932(3) 0.95395(17)
H2_4 H 0.8688 0.0175 0.9832
C8_4 C 0.90820(14) 0.0776(3) 0.92002(17)
C9_4 C 0.91245(13) 0.1879(3) 0.87475(15)
C10_4 C 0.88118(14) 0.3167(3) 0.86725(17)
H4_4 H 0.8849 0.3928 0.8390
C11_4 C 0.84451(13) 0.3334(3) 0.90138(17)
H5_4 H 0.8236 0.4202 0.8953
O5_4 O 0.62315(10) 0.5348(2) 0.87229(13)
O6_4 O 0.57286(9) 0.3242(2) 0.84033(12)
C12_4 C 0.62379(12) 0.4031(3) 0.88313(15)
C14_4 C 0.73495(12) 0.3144(3) 0.92668(15)
H6_4 H 0.7246 0.3591 0.8769
C15_4 C 0.69011(12) 0.3287(3) 0.94869(14)
H8_4 H 0.0696 0.0081 0.0724
H3_4 H 0.9304 0.9919 0.9276
H13 H 0.6192 0.0402 0.9159
H15 H 0.5898 0.0378 0.8181
N1 N 0.62259(15) 0.8459(3) 0.87438(17)
H11 H 0.6246 0.7996 0.9171
H12 H 0.5954 0.7952 0.8258
C23 C 0.5921(2) 0.9872(4) 0.8633(3)
H14 H 0.5472 0.9757 0.8486
C24 C 0.6908(2) 0.8499(5) 0.8943(3)
H16 H 0.6900 0.9050 0.8513
H17 H 0.7054 0.7544 0.8948
H18 H 0.7216 0.8929 0.9497
H13_2 H 0.3808 0.0402 0.5841
H15_2 H 0.4102 0.0378 0.6819
N1_2 N 0.37741(15) 0.8459(3) 0.62562(17)
H11_2 H 0.3754 0.7996 0.5829
H12_2 H 0.4046 0.7952 0.6742
C23_2 C 0.4079(2) 0.9872(4) 0.6367(3)
H14_2 H 0.4528 0.9757 0.6514
C24_2 C 0.3092(2) 0.8499(5) 0.6057(3)
H16_2 H 0.3100 0.9050 0.6487
H17_2 H 0.2946 0.7544 0.6052
H18_2 H 0.2784 0.8929 0.5503
N1_3 N 0.12259(15) 0.3459(3) 0.87438(17)
H11_3 H 0.1246 0.2996 0.9171
H12_3 H 0.0954 0.2952 0.8258
C23_3 C 0.0921(2) 0.4872(4) 0.8633(3)
H13_3 H 0.1192 0.5402 0.9159
H14_3 H 0.0472 0.4757 0.8486
H15_3 H 0.0898 0.5378 0.8181
C24_3 C 0.1908(2) 0.3499(5) 0.8943(3)
H16_3 H 0.1900 0.4050 0.8513
H17_3 H 0.2054 0.2544 0.8948
H18_3 H 0.2216 0.3929 0.9497
N1_4 N 0.87741(15) 0.3459(3) 0.62562(17)
H11_4 H 0.8754 0.2996 0.5829
H12_4 H 0.9046 0.2952 0.6742
C23_4 C 0.9079(2) 0.4872(4) 0.6367(3)
H13_4 H 0.8808 0.5402 0.5841
H14_4 H 0.9528 0.4757 0.6514
H15_4 H 0.9102 0.5378 0.6819
C24_4 C 0.8092(2) 0.3499(5) 0.6057(3)
H16_4 H 0.8100 0.4050 0.6487
H17_4 H 0.7946 0.2544 0.6052
H18_4 H 0.7784 0.3929 0.5503
N1_5 N 0.37741(15) 0.1541(3) 0.12562(17)
H11_5 H 0.3754 0.2004 0.0829
H12_5 H 0.4046 0.2048 0.1742
C23_5 C 0.4079(2) 0.0128(4) 0.1367(3)
H14_5 H 0.4528 0.0243 0.1514
C24_5 C 0.3092(2) 0.1501(5) 0.1057(3)
H16_5 H 0.3100 0.0950 0.1487
H17_5 H 0.2946 0.2456 0.1052
H18_5 H 0.2784 0.1071 0.0503
H13_5 H 0.3808 0.9598 0.0841
H15_5 H 0.4102 0.9622 0.1819
N1_6 N 0.62259(15) 0.1541(3) 0.37438(17)
H11_6 H 0.6246 0.2004 0.4171
H12_6 H 0.5954 0.2048 0.3258
C23_6 C 0.5921(2) 0.0128(4) 0.3633(3)
H14_6 H 0.5472 0.0243 0.3486
C24_6 C 0.6908(2) 0.1501(5) 0.3943(3)
H16_6 H 0.6900 0.0950 0.3513
H17_6 H 0.7054 0.2456 0.3948
H18_6 H 0.7216 0.1071 0.4497
H13_6 H 0.6192 0.9598 0.4159
H15_6 H 0.5898 0.9622 0.3181
N1_7 N 0.87741(15) 0.6541(3) 0.12562(17)
H11_7 H 0.8754 0.7004 0.0829
H12_7 H 0.9046 0.7048 0.1742
C23_7 C 0.9079(2) 0.5128(4) 0.1367(3)
H13_7 H 0.8808 0.4598 0.0841
H14_7 H 0.9528 0.5243 0.1514
H15_7 H 0.9102 0.4622 0.1819
C24_7 C 0.8092(2) 0.6501(5) 0.1057(3)
H16_7 H 0.8100 0.5950 0.1487
H17_7 H 0.7946 0.7456 0.1052
H18_7 H 0.7784 0.6071 0.0503
N1_8 N 0.12259(15) 0.6541(3) 0.37438(17)
H11_8 H 0.1246 0.7004 0.4171
H12_8 H 0.0954 0.7048 0.3258
C23_8 C 0.0921(2) 0.5128(4) 0.3633(3)
H13_8 H 0.1192 0.4598 0.4159
H14_8 H 0.0472 0.5243 0.3486
H15_8 H 0.0898 0.4622 0.3181
C24_8 C 0.1908(2) 0.6501(5) 0.3943(3)
H16_8 H 0.1900 0.5950 0.3513
H17_8 H 0.2054 0.7456 0.3948
H18_8 H 0.2216 0.6071 0.4497
loop_
_geom_bond_atom_site_label_1
_geom_bond_atom_site_label_2
_geom_bond_site_symmetry_1
_geom_bond_site_symmetry_2
Cd4_2 O5 1_555 1_555
Cd1 O1 1_555 1_555
O1 C1 1_555 1_555
O2 Cd1 1_555 1_555
O3 C2 1_555 1_555
O4 C2 1_555 1_555
C1 O2 1_555 1_555
C2 C9 1_555 1_555
C3 H1 1_555 1_555
C4 C1 1_555 1_555
C5 C4 1_555 1_555
C6 C5 1_555 1_555
C7 C6 1_555 1_555
H2 C7 1_555 1_555
C8 C7 1_555 1_555
H3 C8 1_555 1_555
C9 C8 1_555 1_555
C10 C9 1_555 1_555
H4 C10 1_555 1_555
C11 C6 1_555 1_555
H5 C11 1_555 1_555
O6 C12 1_555 1_555
O7 C13 1_555 1_555
O8 C13 1_555 1_555
C12 C15 1_555 1_555
C13 C20 1_555 1_555
C14 C5 1_555 1_555
H6 C14 1_555 1_555
C15 C14 1_555 1_555
C16 C3 1_555 1_555
C17 C16 1_555 1_555
C18 C17 1_555 1_555
H7 C18 1_555 1_555
C19 C18 1_555 1_555
C20 C19 1_555 1_555
C21 C20 1_555 1_555
H9 C21 1_555 1_555
C22 C17 1_555 1_555
H10 C22 1_555 1_555
Cd2_2 O7 1_555 1_555
Cd3 O3 1_555 1_555
O9 Cd1 1_555 1_555
O10 Cd1 1_555 1_555
O11 Cd1 1_555 1_555
O12 Cd1 1_555 1_555
C3 C4 1_555 1_555
C10 C11 1_555 1_555
C15 C16 1_555 1_555
C21 C22 1_555 1_555
Cd4 O5_2 1_555 1_555
O9 C1_2 1_555 1_555
C1_2 O10 1_555 1_555
C3_2 H1_2 1_555 1_555
C4_2 C1_2 1_555 1_555
O7_2 C13_2 1_555 1_555
O8_2 C13_2 1_555 1_555
C13_2 C20_2 1_555 1_555
C16_2 C3_2 1_555 1_555
C17_2 C16_2 1_555 1_555
C18_2 C17_2 1_555 1_555
H7_2 C18_2 1_555 1_555
C19_2 C18_2 1_555 1_555
C20_2 C19_2 1_555 1_555
C21_2 C20_2 1_555 1_555
H9_2 C21_2 1_555 1_555
C22_2 C17_2 1_555 1_555
H10_2 C22_2 1_555 1_555
Cd2 O7_2 1_555 1_555
C3_2 C4_2 1_555 1_555
C21_2 C22_2 1_555 1_555
O3_2 C2_2 1_555 1_555
O4_2 C2_2 1_555 1_555
C2_2 C9_2 1_555 1_555
C6_2 C5_2 1_555 1_555
C7_2 C6_2 1_555 1_555
H2_2 C7_2 1_555 1_555
C8_2 C7_2 1_555 1_555
H3_2 C8_2 1_555 1_555
C9_2 C8_2 1_555 1_555
C10_2 C9_2 1_555 1_555
H4_2 C10_2 1_555 1_555
C11_2 C6_2 1_555 1_555
H5_2 C11_2 1_555 1_555
O6_2 C12_2 1_555 1_555
C12_2 C15_2 1_555 1_555
C14_2 C5_2 1_555 1_555
H6_2 C14_2 1_555 1_555
C15_2 C14_2 1_555 1_555
Cd3 O3_2 1_555 1_555
C10_2 C11_2 1_555 1_555
O3_3 C2_3 1_555 1_555
O4_3 C2_3 1_555 1_555
C1_3 O2_2 1_555 1_555
C2_3 C9_3 1_555 1_555
C3_3 H1_3 1_555 1_555
C4_3 C1_3 1_555 1_555
C5_3 C4_3 1_555 1_555
C6_3 C5_3 1_555 1_555
C7_3 C6_3 1_555 1_555
H2_3 C7_3 1_555 1_555
C8_3 C7_3 1_555 1_555
C9_3 C8_3 1_555 1_555
C10_3 C9_3 1_555 1_555
H4_3 C10_3 1_555 1_555
C11_3 C6_3 1_555 1_555
H5_3 C11_3 1_555 1_555
O5_3 C12_3 1_555 1_555
O6_3 C12_3 1_555 1_555
O11 C13_3 1_555 1_555
O8_3 C13_3 1_555 1_555
C12_3 C15_3 1_555 1_555
C13_3 C20_3 1_555 1_555
C14_3 C5_3 1_555 1_555
H6_3 C14_3 1_555 1_555
C15_3 C14_3 1_555 1_555
C16_3 C3_3 1_555 1_555
C17_3 C16_3 1_555 1_555
C18_3 C17_3 1_555 1_555
H7_3 C18_3 1_555 1_555
C19_3 C18_3 1_555 1_555
H8_2 C19_3 1_555 1_555
C20_3 C19_3 1_555 1_555
C21_3 C20_3 1_555 1_555
H9_3 C21_3 1_555 1_555
C22_3 C17_3 1_555 1_555
H10_3 C22_3 1_555 1_555
Cd4 O3_3 1_555 1_555
Cd3 O5_3 1_555 1_555
C3_3 C4_3 1_555 1_555
C10_3 C11_3 1_555 1_555
O6_3 Cd3 1_555 1_555
C15_3 C16_3 1_555 1_555
C21_3 C22_3 1_555 1_555
Cd2 O1_2 1_555 1_555
O9_2 Cd2_2 1_555 1_555
C1_4 O10_2 1_555 1_555
C3_4 H1_4 1_555 1_555
C4_4 C1_4 1_555 1_555
O12 C13_4 1_555 1_555
O8_4 C13_4 1_555 1_555
C13_4 C20_4 1_555 1_555
C16_4 C3_4 1_555 1_555
C17_4 C16_4 1_555 1_555
C18_4 C17_4 1_555 1_555
H7_4 C18_4 1_555 1_555
C19_4 C18_4 1_555 1_555
H8_3 C19_4 1_555 1_555
C20_4 C19_4 1_555 1_555
C21_4 C20_4 1_555 1_555
H9_4 C21_4 1_555 1_555
C22_4 C17_4 1_555 1_555
H10_4 C22_4 1_555 1_555
C3_4 C4_4 1_555 1_555
C21_4 C22_4 1_555 1_555
O3_4 C2_4 1_555 1_555
O4_4 C2_4 1_555 1_555
C2_4 C9_4 1_555 1_555
C6_4 C5_4 1_555 1_555
C7_4 C6_4 1_555 1_555
H2_4 C7_4 1_555 1_555
C8_4 C7_4 1_555 1_555
C9_4 C8_4 1_555 1_555
C10_4 C9_4 1_555 1_555
H4_4 C10_4 1_555 1_555
C11_4 C6_4 1_555 1_555
H5_4 C11_4 1_555 1_555
O5_4 C12_4 1_555 1_555
O6_4 C12_4 1_555 1_555
C12_4 C15_4 1_555 1_555
C14_4 C5_4 1_555 1_555
H6_4 C14_4 1_555 1_555
C15_4 C14_4 1_555 1_555
Cd4_2 O3_4 1_555 1_555
Cd3 O5_4 1_555 1_555
C10_4 C11_4 1_555 1_555
O6_4 Cd3 1_555 1_555
N1 H11 1_555 1_555
H12 N1 1_555 1_555
C23 N1 1_555 1_555
H14 C23 1_555 1_555
C24 N1 1_555 1_555
H16 C24 1_555 1_555
H17 C24 1_555 1_555
H18 C24 1_555 1_555
N1_2 H11_2 1_555 1_555
H12_2 N1_2 1_555 1_555
C23_2 N1_2 1_555 1_555
H14_2 C23_2 1_555 1_555
C24_2 N1_2 1_555 1_555
H16_2 C24_2 1_555 1_555
H17_2 C24_2 1_555 1_555
H18_2 C24_2 1_555 1_555
N1_3 H11_3 1_555 1_555
H12_3 N1_3 1_555 1_555
C23_3 N1_3 1_555 1_555
H13_3 C23_3 1_555 1_555
H14_3 C23_3 1_555 1_555
H15_3 C23_3 1_555 1_555
C24_3 N1_3 1_555 1_555
H16_3 C24_3 1_555 1_555
H17_3 C24_3 1_555 1_555
H18_3 C24_3 1_555 1_555
N1_4 H11_4 1_555 1_555
H12_4 N1_4 1_555 1_555
C23_4 N1_4 1_555 1_555
H13_4 C23_4 1_555 1_555
H14_4 C23_4 1_555 1_555
H15_4 C23_4 1_555 1_555
C24_4 N1_4 1_555 1_555
H16_4 C24_4 1_555 1_555
H17_4 C24_4 1_555 1_555
H18_4 C24_4 1_555 1_555
N1_5 H11_5 1_555 1_555
H12_5 N1_5 1_555 1_555
C23_5 N1_5 1_555 1_555
H14_5 C23_5 1_555 1_555
C24_5 N1_5 1_555 1_555
H16_5 C24_5 1_555 1_555
H17_5 C24_5 1_555 1_555
H18_5 C24_5 1_555 1_555
N1_6 H11_6 1_555 1_555
H12_6 N1_6 1_555 1_555
C23_6 N1_6 1_555 1_555
H14_6 C23_6 1_555 1_555
C24_6 N1_6 1_555 1_555
H16_6 C24_6 1_555 1_555
H17_6 C24_6 1_555 1_555
H18_6 C24_6 1_555 1_555
N1_7 H11_7 1_555 1_555
H12_7 N1_7 1_555 1_555
C23_7 N1_7 1_555 1_555
H13_7 C23_7 1_555 1_555
H14_7 C23_7 1_555 1_555
H15_7 C23_7 1_555 1_555
C24_7 N1_7 1_555 1_555
H16_7 C24_7 1_555 1_555
H17_7 C24_7 1_555 1_555
H18_7 C24_7 1_555 1_555
N1_8 H11_8 1_555 1_555
H12_8 N1_8 1_555 1_555
C23_8 N1_8 1_555 1_555
H13_8 C23_8 1_555 1_555
H14_8 C23_8 1_555 1_555
H15_8 C23_8 1_555 1_555
C24_8 N1_8 1_555 1_555
H16_8 C24_8 1_555 1_555
H17_8 C24_8 1_555 1_555
H18_8 C24_8 1_555 1_555

#END
