
###############################################################################
#
# This file contains modified crystal structure data generated from the
# MOF subset of the Cambridge Structural Database (CSD) v543 
# hosted by the Cambridge Crystallographic Data Centre (CCDC).
#
# This work is licensed under the Creative Commons
# Attribution-NonCommercial-ShareAlike 4.0 International License.
# To view a copy of this license, visit
# http://creativecommons.org/licenses/by-nc-sa/4.0/
# or send a letter to
# Creative Commons, PO Box 1866, Mountain View, CA 94042, USA.
#
# CIF created using the CSD Python API on 29 September 2022
# The structure has been converted into the P1 space group
# The structure has a 3D framework
# The original CSD entry JUXZUZ is in the tetragonal crystal system
# The framework has been calculated to contain at least 10.0% void space
# The void calculation uses a probe of radius 1.32A, grid spacing 0.4
#
###############################################################################

data_JUXZUZ
_chemical_formula_moiety         '(C176 H112 Cd16 O74)n'
_symmetry_cell_setting           triclinic
_symmetry_space_group_name_H-M   'P 1'
_symmetry_Int_Tables_number      1
_space_group_name_Hall           'P 1'
loop_
_symmetry_equiv_pos_site_id
_symmetry_equiv_pos_as_xyz
1 x,y,z
_cell_length_a                   17.9604(12)
_cell_length_b                   17.9604(12)
_cell_length_c                   14.3278(9)
_cell_angle_alpha                90
_cell_angle_beta                 90
_cell_angle_gamma                90
_cell_volume                     4621.8
loop_
_atom_site_label
_atom_site_type_symbol
_atom_site_fract_x
_atom_site_fract_y
_atom_site_fract_z
Cd1 Cd 0.79854(4) 0.47948(4) 0.05404(4)
O3 O 0.7509(3) 0.3911(3) 0.1527(4)
O4 O 0.6420(3) 0.3776(3) 0.2224(4)
O5 O 0.9025(3) 0.4769(4) 0.1432(4)
H1 H 0.8914 0.4410 0.1792
H2 H 0.8938 0.5134 0.1793
C5 C 0.6861(5) 0.3613(5) 0.1579(6)
C6 C 0.6645(5) 0.3056(4) 0.0858(6)
C7 C 0.7044(4) 0.2997(4) 0.0016(5)
C10 C 0.5861(5) 0.2047(5) 0.0362(7)
H6 H 0.5484 0.1708 0.0491
C11 C 0.6046(5) 0.2595(5) 0.1026(6)
H7 H 0.5768 0.2645 0.1569
Cd5 Cd 0.72948(4) 0.45146(4) 0.30404(4)
O11 O 0.7725(4) 0.6009(3) 0.0791(4)
O1 O 0.7275(4) 0.3991(3) 0.5791(4)
O2 O 0.7737(4) 0.4489(3) 0.7041(5)
C1 C 0.7549(5) 0.3933(5) 0.6597(6)
C2 C 0.7580(4) 0.3184(4) 0.7045(5)
C3 C 0.7315(4) 0.3142(4) 0.7958(5)
H3 H 0.7200 0.3581 0.8272
C4 C 0.7219(4) 0.2468(5) 0.8413(6)
H4 H 0.7446 0.3311 0.9901
C8 C 0.6841(4) 0.2475(4) 0.9365(5)
C9 C 0.6237(5) 0.2009(5) 0.9519(6)
H5 H 0.6087 0.1675 0.9061
O6 O 0.7491(3) 0.1089(3) 0.3473(4)
C12 C 0.7685(4) 0.1858(4) 0.7042(5)
H8 H 0.7800 0.1419 0.6728
C13 C 0.7781(4) 0.2532(5) 0.6587(6)
C14 C 0.8139(5) 0.1387(5) 0.3421(6)
C15 C 0.8355(5) 0.1944(4) 0.4142(6)
C16 C 0.7956(4) 0.2003(4) 0.4984(5)
H9 H 0.7554 0.1689 0.5099
C17 C 0.8159(4) 0.2525(4) 0.5635(5)
C18 C 0.8763(5) 0.2991(5) 0.5481(6)
H10 H 0.8913 0.3325 0.5939
C19 C 0.9139(5) 0.2953(5) 0.4638(7)
H11 H 0.9516 0.3292 0.4509
C20 C 0.8954(5) 0.2405(5) 0.3974(6)
H12 H 0.9232 0.2355 0.3431
O7 O 0.7725(4) 0.1009(3) 0.9209(4)
C21 C 0.7451(5) 0.1067(5) 0.8403(6)
C22 C 0.7420(4) 0.1816(4) 0.7955(5)
O8 O 0.8580(3) 0.1224(3) 0.2776(4)
O9 O 0.7263(4) 0.0511(3) 0.7959(5)
Cd3 Cd 0.70146(4) 0.52052(4) 0.55404(4)
Cd4 Cd 0.77052(4) 0.54854(4) 0.80404(4)
Cd6 Cd 0.77052(4) 0.04854(4) 0.19596(4)
Cd7 Cd 0.70146(4) 0.02052(4) 0.44596(4)
O13 O 0.6989(3) 0.4763(4) 0.9541(5)
O14 O 0.8589(3) 0.5009(3) 0.9027(4)
O17 O 0.8724(3) 0.3920(3) 0.9724(4)
Cd2 Cd 0.72948(4) 0.95146(4) 0.69596(4)
O10 O 0.7269(4) 0.8475(3) 0.6068(4)
H13 H 0.6910 0.8586 0.5708
H14 H 0.7634 0.8562 0.5707
Cd8 Cd 0.79854(4) 0.97948(4) 0.94596(4)
O12 O 0.8509(3) 0.9775(4) 0.6709(4)
O15 O 0.6411(3) 0.9991(3) 0.5973(4)
O16 O 0.7509(3) 0.8911(3) 0.8473(4)
O18 O 0.6420(3) 0.8776(3) 0.7776(4)
O10_2 O 0.7731(4) 0.1525(3) 0.1068(4)
H13_2 H 0.8090 0.1414 0.0708
H14_2 H 0.7366 0.1438 0.0707
O12_2 O 0.6491(3) 0.0225(4) 0.1709(4)
O15_2 O 0.8589(3) 0.0009(3) 0.0973(4)
O2_2 O 0.7263(4) 0.5511(3) 0.2041(5)
O3_2 O 0.7491(3) 0.6089(3) 0.6527(4)
O4_2 O 0.8580(3) 0.6224(3) 0.7224(4)
O5_2 O 0.5975(3) 0.5231(4) 0.6432(4)
H1_2 H 0.6086 0.5590 0.6792
H2_2 H 0.6062 0.4866 0.6793
C1_2 C 0.7451(5) 0.6067(5) 0.1597(6)
C2_2 C 0.7420(4) 0.6816(4) 0.2045(5)
C3_2 C 0.7685(4) 0.6858(4) 0.2958(5)
H3_2 H 0.7800 0.6419 0.3272
C4_2 C 0.7781(4) 0.7532(5) 0.3413(6)
C5_2 C 0.8139(5) 0.6387(5) 0.6579(6)
C6_2 C 0.8355(5) 0.6944(4) 0.5858(6)
C7_2 C 0.7956(4) 0.7003(4) 0.5016(5)
H4_2 H 0.7554 0.6689 0.4901
C8_2 C 0.8159(4) 0.7525(4) 0.4365(5)
C9_2 C 0.8763(5) 0.7991(5) 0.4519(6)
H5_2 H 0.8913 0.8325 0.4061
C10_2 C 0.9139(5) 0.7953(5) 0.5362(7)
H6_2 H 0.9516 0.8292 0.5491
C11_2 C 0.8954(5) 0.7405(5) 0.6026(6)
H7_2 H 0.9232 0.7355 0.6569
C12_2 C 0.7315(4) 0.8142(4) 0.2042(5)
H8_2 H 0.7200 0.8581 0.1728
C13_2 C 0.7219(4) 0.7468(5) 0.1587(6)
H9_2 H 0.7446 0.8311 0.0099
C17_2 C 0.6841(4) 0.7475(4) 0.0635(5)
C18_2 C 0.6237(5) 0.7009(5) 0.0481(6)
H10_2 H 0.6087 0.6675 0.0939
O7_2 O 0.7275(4) 0.8991(3) 0.4209(4)
C21_2 C 0.7549(5) 0.8933(5) 0.3403(6)
C22_2 C 0.7580(4) 0.8184(4) 0.2955(5)
O9_2 O 0.7737(4) 0.9489(3) 0.2959(5)
O13_2 O 0.8011(3) 0.5237(4) 0.4541(5)
O14_2 O 0.6411(3) 0.4991(3) 0.4027(4)
O17_2 O 0.6276(3) 0.6080(3) 0.4724(4)
C14_2 C 0.6861(5) 0.8613(5) 0.8421(6)
C15_2 C 0.6645(5) 0.8056(4) 0.9142(6)
C16_2 C 0.7044(4) 0.7997(4) 0.9984(5)
C19_2 C 0.5861(5) 0.7047(5) 0.9638(7)
H11_2 H 0.5484 0.6708 0.9509
C20_2 C 0.6046(5) 0.7595(5) 0.8974(6)
H12_2 H 0.5768 0.7645 0.8431
Cd1_2 Cd 0.27052(4) 0.04854(4) 0.30404(4)
O3_3 O 0.3589(3) 0.0009(3) 0.4027(4)
O5_3 O 0.2731(4) 0.1525(3) 0.3932(4)
H1_3 H 0.3090 0.1414 0.4292
H2_3 H 0.2366 0.1438 0.4293
Cd4_2 Cd 0.20146(4) 0.02052(4) 0.05404(4)
O11_2 O 0.1491(3) 0.0225(4) 0.3291(4)
O14_3 O 0.2491(3) 0.1089(3) 0.1527(4)
O17_3 O 0.3580(3) 0.1224(3) 0.2224(4)
O2_3 O 0.3011(3) 0.0237(4) 0.9541(5)
C1_3 C 0.3567(5) 0.0049(5) 0.9097(6)
C2_3 C 0.4316(4) 0.0080(4) 0.9545(5)
C12_3 C 0.5642(4) 0.0185(4) 0.9542(5)
H8_3 H 0.6081 0.0300 0.9228
C13_3 C 0.4968(5) 0.0281(4) 0.9087(6)
C14_3 C 0.6113(5) 0.0639(5) 0.5921(6)
C15_3 C 0.5556(4) 0.0855(5) 0.6642(6)
C16_3 C 0.5497(4) 0.0456(4) 0.7484(5)
H9_3 H 0.5811 0.0054 0.7599
C17_3 C 0.4975(4) 0.0659(4) 0.8135(5)
C18_3 C 0.4509(5) 0.1263(5) 0.7981(6)
H10_3 H 0.4175 0.1413 0.8439
C19_3 C 0.4547(5) 0.1639(5) 0.7138(7)
H11_3 H 0.4208 0.2016 0.7009
C20_3 C 0.5095(5) 0.1454(5) 0.6474(6)
H12_3 H 0.5145 0.1732 0.5931
O8_2 O 0.6276(3) 0.1080(3) 0.5276(4)
H14_3 H 0.8938 0.0134 0.8207
O4_3 O 0.3724(3) 0.8920(3) 0.4724(4)
C3_3 C 0.4358(4) 0.9815(4) 0.0458(5)
H3_3 H 0.3919 0.9700 0.0772
C4_3 C 0.5032(5) 0.9719(4) 0.0913(6)
C5_3 C 0.3887(5) 0.9361(5) 0.4079(6)
C6_3 C 0.4444(4) 0.9145(5) 0.3358(6)
C7_3 C 0.4503(4) 0.9544(4) 0.2516(5)
H4_3 H 0.4189 0.9946 0.2401
C8_3 C 0.5025(4) 0.9341(4) 0.1865(5)
C9_3 C 0.5491(5) 0.8737(5) 0.2019(6)
H5_3 H 0.5825 0.8587 0.1561
C10_3 C 0.5453(5) 0.8361(5) 0.2862(7)
H6_3 H 0.5792 0.7984 0.2991
C11_3 C 0.4905(5) 0.8546(5) 0.3526(6)
H7_3 H 0.4855 0.8268 0.4069
C21_3 C 0.6433(5) 0.9951(5) 0.0903(6)
C22_3 C 0.5684(4) 0.9920(4) 0.0455(5)
O9_3 O 0.6989(3) 0.9763(4) 0.0459(5)
Cd5_2 Cd 0.29854(4) 0.97948(4) 0.55404(4)
O13_3 O 0.2737(4) 0.9489(3) 0.2041(5)
O18_2 O 0.8724(3) 0.8920(3) 0.0276(4)
O1_2 O 0.3509(3) 0.9775(4) 0.8291(4)
O10_3 O 0.9025(3) 0.9769(4) 0.8568(4)
H13_3 H 0.8914 0.9410 0.8208
Cd3_2 Cd 0.22948(4) 0.95146(4) 0.80404(4)
O4_4 O 0.1276(3) 0.1080(3) 0.9724(4)
C3_4 C 0.0642(4) 0.0185(4) 0.5458(5)
H3_4 H 0.1081 0.0300 0.5772
C5_4 C 0.1113(5) 0.0639(5) 0.9079(6)
C6_4 C 0.0556(4) 0.0855(5) 0.8358(6)
C7_4 C 0.0497(4) 0.0456(4) 0.7516(5)
H4_4 H 0.0811 0.0054 0.7401
C11_4 C 0.0095(5) 0.1454(5) 0.8526(6)
H7_4 H 0.0145 0.1732 0.9069
O13_4 O 0.2263(4) 0.0511(3) 0.7041(5)
O2_4 O 0.1989(3) 0.9763(4) 0.4541(5)
O3_4 O 0.1411(3) 0.9991(3) 0.9027(4)
O5_4 O 0.2269(4) 0.8475(3) 0.8932(4)
H1_4 H 0.1910 0.8586 0.9292
H2_4 H 0.2634 0.8562 0.9293
C1_4 C 0.1433(5) 0.9951(5) 0.4097(6)
C2_4 C 0.0684(4) 0.9920(4) 0.4545(5)
C13_4 C 0.0032(5) 0.9719(4) 0.4087(6)
C17_4 C 0.0025(4) 0.9341(4) 0.3135(5)
C18_4 C 0.0491(5) 0.8737(5) 0.2981(6)
H10_4 H 0.0825 0.8587 0.3439
C19_4 C 0.0453(5) 0.8361(5) 0.2138(7)
H11_4 H 0.0792 0.7984 0.2009
O14_4 O 0.2509(3) 0.8911(3) 0.6527(4)
O17_4 O 0.1420(3) 0.8776(3) 0.7224(4)
C4_4 C 0.9968(5) 0.0281(4) 0.5913(6)
C8_4 C 0.9975(4) 0.0659(4) 0.6865(5)
C9_4 C 0.9509(5) 0.1263(5) 0.7019(6)
H5_4 H 0.9175 0.1413 0.6561
C10_4 C 0.9547(5) 0.1639(5) 0.7862(7)
H6_4 H 0.9208 0.2016 0.7991
C21_4 C 0.8567(5) 0.0049(5) 0.5903(6)
C22_4 C 0.9316(4) 0.0080(4) 0.5455(5)
O9_4 O 0.8011(3) 0.0237(4) 0.5459(5)
O10_4 O 0.5975(3) 0.0231(4) 0.3568(4)
H13_4 H 0.6086 0.0590 0.3208
C12_4 C 0.9358(4) 0.9815(4) 0.4542(5)
H8_4 H 0.8919 0.9700 0.4228
C14_4 C 0.8887(5) 0.9361(5) 0.0921(6)
C15_4 C 0.9444(4) 0.9145(5) 0.1642(6)
C16_4 C 0.9503(4) 0.9544(4) 0.2484(5)
H9_4 H 0.9189 0.9946 0.2599
C20_4 C 0.9905(5) 0.8546(5) 0.1474(6)
H12_4 H 0.9855 0.8268 0.0931
H14_4 H 0.6062 0.9866 0.3207
H2_5 H 0.3938 0.0134 0.6793
O11_3 O 0.2725(4) 0.1009(3) 0.5791(4)
O1_3 O 0.2275(4) 0.8991(3) 0.0791(4)
O5_5 O 0.4025(3) 0.9769(4) 0.6432(4)
H1_5 H 0.3914 0.9410 0.6792
C1_5 C 0.2549(5) 0.8933(5) 0.1597(6)
C2_5 C 0.2580(4) 0.8184(4) 0.2045(5)
C3_5 C 0.2315(4) 0.8142(4) 0.2958(5)
H3_5 H 0.2200 0.8581 0.3272
C4_5 C 0.2219(4) 0.7468(5) 0.3413(6)
C5_5 C 0.1861(5) 0.8613(5) 0.6579(6)
C6_5 C 0.1645(5) 0.8056(4) 0.5858(6)
C7_5 C 0.2044(4) 0.7997(4) 0.5016(5)
H4_5 H 0.2446 0.8311 0.4901
C8_5 C 0.1841(4) 0.7475(4) 0.4365(5)
C9_5 C 0.1237(5) 0.7009(5) 0.4519(6)
H5_5 H 0.1087 0.6675 0.4061
C10_5 C 0.0861(5) 0.7047(5) 0.5362(7)
H6_5 H 0.0484 0.6708 0.5491
C11_5 C 0.1046(5) 0.7595(5) 0.6026(6)
H7_5 H 0.0768 0.7645 0.6569
C12_5 C 0.2685(4) 0.6858(4) 0.2042(5)
H8_5 H 0.2800 0.6419 0.1728
C13_5 C 0.2781(4) 0.7532(5) 0.1587(6)
H9_5 H 0.2554 0.6689 0.0099
C17_5 C 0.3159(4) 0.7525(4) 0.0635(5)
C18_5 C 0.3763(5) 0.7991(5) 0.0481(6)
H10_5 H 0.3913 0.8325 0.0939
O7_3 O 0.2725(4) 0.6009(3) 0.4209(4)
C21_5 C 0.2451(5) 0.6067(5) 0.3403(6)
C22_5 C 0.2420(4) 0.6816(4) 0.2955(5)
O9_5 O 0.2263(4) 0.5511(3) 0.2959(5)
Cd2_2 Cd 0.22948(4) 0.45146(4) 0.19596(4)
O10_5 O 0.2269(4) 0.3475(3) 0.1068(4)
H13_5 H 0.1910 0.3586 0.0708
H14_5 H 0.2634 0.3562 0.0707
Cd8_2 Cd 0.29854(4) 0.47948(4) 0.44596(4)
O12_3 O 0.3509(3) 0.4775(4) 0.1709(4)
O15_3 O 0.1411(3) 0.4991(3) 0.0973(4)
O16_2 O 0.2509(3) 0.3911(3) 0.3473(4)
O18_3 O 0.1420(3) 0.3776(3) 0.2776(4)
O6_2 O 0.2491(3) 0.6089(3) 0.8473(4)
C14_5 C 0.3139(5) 0.6387(5) 0.8421(6)
C15_5 C 0.3355(5) 0.6944(4) 0.9142(6)
C16_5 C 0.2956(4) 0.7003(4) 0.9984(5)
C19_5 C 0.4139(5) 0.7953(5) 0.9638(7)
H11_5 H 0.4516 0.8292 0.9509
C20_5 C 0.3954(5) 0.7405(5) 0.8974(6)
H12_5 H 0.4232 0.7355 0.8431
O8_3 O 0.3580(3) 0.6224(3) 0.7776(4)
Cd6_2 Cd 0.27052(4) 0.54854(4) 0.69596(4)
Cd7_2 Cd 0.20146(4) 0.52052(4) 0.94596(4)
O5_6 O 0.0975(3) 0.0231(4) 0.1432(4)
H1_6 H 0.1086 0.0590 0.1792
C5_6 C 0.3139(5) 0.1387(5) 0.1579(6)
C6_6 C 0.3355(5) 0.1944(4) 0.0858(6)
C7_6 C 0.2956(4) 0.2003(4) 0.0016(5)
C10_6 C 0.4139(5) 0.2953(5) 0.0362(7)
H6_6 H 0.4516 0.3292 0.0491
C11_6 C 0.3954(5) 0.2405(5) 0.1026(6)
H7_6 H 0.4232 0.2355 0.1569
C1_6 C 0.2451(5) 0.1067(5) 0.6597(6)
C2_6 C 0.2420(4) 0.1816(4) 0.7045(5)
C3_6 C 0.2685(4) 0.1858(4) 0.7958(5)
H3_6 H 0.2800 0.1419 0.8272
C4_6 C 0.2781(4) 0.2532(5) 0.8413(6)
H4_6 H 0.2554 0.1689 0.9901
C8_6 C 0.3159(4) 0.2525(4) 0.9365(5)
C9_6 C 0.3763(5) 0.2991(5) 0.9519(6)
H5_6 H 0.3913 0.3325 0.9061
C12_6 C 0.2315(4) 0.3142(4) 0.7042(5)
H8_6 H 0.2200 0.3581 0.6728
C13_6 C 0.2219(4) 0.2468(5) 0.6587(6)
C14_6 C 0.1861(5) 0.3613(5) 0.3421(6)
C15_6 C 0.1645(5) 0.3056(4) 0.4142(6)
C16_6 C 0.2044(4) 0.2997(4) 0.4984(5)
H9_6 H 0.2446 0.3311 0.5099
C17_6 C 0.1841(4) 0.2475(4) 0.5635(5)
C18_6 C 0.1237(5) 0.2009(5) 0.5481(6)
H10_6 H 0.1087 0.1675 0.5939
C19_6 C 0.0861(5) 0.2047(5) 0.4638(7)
H11_6 H 0.0484 0.1708 0.4509
C20_6 C 0.1046(5) 0.2595(5) 0.3974(6)
H12_6 H 0.0768 0.2645 0.3431
O7_4 O 0.2275(4) 0.3991(3) 0.9209(4)
C21_6 C 0.2549(5) 0.3933(5) 0.8403(6)
C22_6 C 0.2580(4) 0.3184(4) 0.7955(5)
O9_6 O 0.2737(4) 0.4489(3) 0.7959(5)
O10_6 O 0.2731(4) 0.6525(3) 0.6068(4)
H13_6 H 0.3090 0.6414 0.5708
H14_6 H 0.2366 0.6438 0.5707
O12_4 O 0.1491(3) 0.5225(4) 0.6709(4)
O15_4 O 0.3589(3) 0.5009(3) 0.5973(4)
H2_6 H 0.1062 0.9866 0.1793
C4_7 C 0.0032(5) 0.4719(4) 0.5913(6)
C8_7 C 0.0025(4) 0.4341(4) 0.6865(5)
C9_7 C 0.0491(5) 0.3737(5) 0.7019(6)
H5_7 H 0.0825 0.3587 0.6561
C10_7 C 0.0453(5) 0.3361(5) 0.7862(7)
H6_7 H 0.0792 0.2984 0.7991
C12_7 C 0.0642(4) 0.5185(4) 0.4542(5)
H8_7 H 0.1081 0.5300 0.4228
C14_7 C 0.1113(5) 0.5639(5) 0.0921(6)
C15_7 C 0.0556(4) 0.5855(5) 0.1642(6)
C16_7 C 0.0497(4) 0.5456(4) 0.2484(5)
H9_7 H 0.0811 0.5054 0.2599
C20_7 C 0.0095(5) 0.6454(5) 0.1474(6)
H12_7 H 0.0145 0.6732 0.0931
C21_7 C 0.1433(5) 0.4951(5) 0.5903(6)
C22_7 C 0.0684(4) 0.4920(4) 0.5455(5)
O8_4 O 0.1276(3) 0.6080(3) 0.0276(4)
O9_7 O 0.1989(3) 0.4763(4) 0.5459(5)
O10_7 O 0.4025(3) 0.4769(4) 0.3568(4)
H13_7 H 0.3914 0.4410 0.3208
H14_7 H 0.3938 0.5134 0.3207
O18_4 O 0.3724(3) 0.3920(3) 0.5276(4)
O1_4 O 0.8509(3) 0.4775(4) 0.3291(4)
O5_7 O 0.7731(4) 0.6525(3) 0.8932(4)
H1_7 H 0.8090 0.6414 0.9292
H2_7 H 0.7366 0.6438 0.9293
C1_7 C 0.8567(5) 0.5049(5) 0.4097(6)
C2_7 C 0.9316(4) 0.5080(4) 0.4545(5)
C3_7 C 0.9358(4) 0.4815(4) 0.5458(5)
H3_7 H 0.8919 0.4700 0.5772
C5_7 C 0.8887(5) 0.4361(5) 0.9079(6)
C6_7 C 0.9444(4) 0.4145(5) 0.8358(6)
C7_7 C 0.9503(4) 0.4544(4) 0.7516(5)
H4_7 H 0.9189 0.4946 0.7401
C11_7 C 0.9905(5) 0.3546(5) 0.8526(6)
H7_7 H 0.9855 0.3268 0.9069
C13_7 C 0.9968(5) 0.5281(4) 0.4087(6)
C17_7 C 0.9975(4) 0.5659(4) 0.3135(5)
C18_7 C 0.9509(5) 0.6263(5) 0.2981(6)
H10_7 H 0.9175 0.6413 0.3439
C19_7 C 0.9547(5) 0.6639(5) 0.2138(7)
H11_7 H 0.9208 0.7016 0.2009
O11_4 O 0.6491(3) 0.5225(4) 0.8291(4)
O5_8 O 0.7269(4) 0.3475(3) 0.3932(4)
H1_8 H 0.6910 0.3586 0.4292
H2_8 H 0.7634 0.3562 0.4293
C3_8 C 0.5642(4) 0.5185(4) 0.0458(5)
H3_8 H 0.6081 0.5300 0.0772
C4_8 C 0.4968(5) 0.5281(4) 0.0913(6)
C5_8 C 0.6113(5) 0.5639(5) 0.4079(6)
C6_8 C 0.5556(4) 0.5855(5) 0.3358(6)
C7_8 C 0.5497(4) 0.5456(4) 0.2516(5)
H4_8 H 0.5811 0.5054 0.2401
C8_8 C 0.4975(4) 0.5659(4) 0.1865(5)
C9_8 C 0.4509(5) 0.6263(5) 0.2019(6)
H5_8 H 0.4175 0.6413 0.1561
C10_8 C 0.4547(5) 0.6639(5) 0.2862(7)
H6_8 H 0.4208 0.7016 0.2991
C11_8 C 0.5095(5) 0.6454(5) 0.3526(6)
H7_8 H 0.5145 0.6732 0.4069
C21_8 C 0.3567(5) 0.5049(5) 0.0903(6)
C22_8 C 0.4316(4) 0.5080(4) 0.0455(5)
O9_8 O 0.3011(3) 0.5237(4) 0.0459(5)
C1_8 C 0.6433(5) 0.4951(5) 0.9097(6)
C2_8 C 0.5684(4) 0.4920(4) 0.9545(5)
C12_8 C 0.4358(4) 0.4815(4) 0.9542(5)
H8_8 H 0.3919 0.4700 0.9228
C13_8 C 0.5032(5) 0.4719(4) 0.9087(6)
C14_8 C 0.3887(5) 0.4361(5) 0.5921(6)
C15_8 C 0.4444(4) 0.4145(5) 0.6642(6)
C16_8 C 0.4503(4) 0.4544(4) 0.7484(5)
H9_8 H 0.4189 0.4946 0.7599
C17_8 C 0.5025(4) 0.4341(4) 0.8135(5)
C18_8 C 0.5491(5) 0.3737(5) 0.7981(6)
H10_8 H 0.5825 0.3587 0.8439
C19_8 C 0.5453(5) 0.3361(5) 0.7138(7)
H11_8 H 0.5792 0.2984 0.7009
C20_8 C 0.4905(5) 0.3546(5) 0.6474(6)
H12_8 H 0.4855 0.3268 0.5931
O10_8 O 0.0975(3) 0.5231(4) 0.8568(4)
H13_8 H 0.1086 0.5590 0.8208
H14_8 H 0.1062 0.4866 0.8207
loop_
_geom_bond_atom_site_label_1
_geom_bond_atom_site_label_2
_geom_bond_site_symmetry_1
_geom_bond_site_symmetry_2
Cd1 O3 1_555 1_555
O3 C5 1_555 1_555
O4 C5 1_555 1_555
O5 Cd1 1_555 1_555
H1 O5 1_555 1_555
H2 O5 1_555 1_555
C5 C6 1_555 1_555
C6 C7 1_555 1_555
H6 C10 1_555 1_555
C11 C6 1_555 1_555
H7 C11 1_555 1_555
Cd5 O3 1_555 1_555
O11 Cd1 1_555 1_555
O4 Cd5 1_555 1_555
C10 C11 1_555 1_555
O1 C1 1_555 1_555
O2 C1 1_555 1_555
C1 C2 1_555 1_555
C2 C3 1_555 1_555
C3 H3 1_555 1_555
C4 C3 1_555 1_555
C8 C4 1_555 1_555
C9 C8 1_555 1_555
H5 C9 1_555 1_555
O6 C14 1_555 1_555
C12 H8 1_555 1_555
C13 C2 1_555 1_555
C14 C15 1_555 1_555
C15 C16 1_555 1_555
C16 H9 1_555 1_555
C17 C13 1_555 1_555
C18 C17 1_555 1_555
H10 C18 1_555 1_555
C19 C18 1_555 1_555
H11 C19 1_555 1_555
C20 C15 1_555 1_555
H12 C20 1_555 1_555
O7 C21 1_555 1_555
C21 C22 1_555 1_555
C22 C4 1_555 1_555
O8 C14 1_555 1_555
O9 C21 1_555 1_555
Cd3 O1 1_555 1_555
Cd4 O2 1_555 1_555
Cd6 O6 1_555 1_555
Cd7 O6 1_555 1_555
C12 C13 1_555 1_555
C12 C22 1_555 1_555
C16 C17 1_555 1_555
C19 C20 1_555 1_555
O8 Cd6 1_555 1_555
Cd4 O14 1_555 1_555
O10 Cd2 1_555 1_555
H13 O10 1_555 1_555
H14 O10 1_555 1_555
O12 Cd2 1_555 1_555
O15 Cd2 1_555 1_555
O16 Cd2 1_555 1_555
O18 Cd2 1_555 1_555
Cd8 O16 1_555 1_555
O10_2 Cd6 1_555 1_555
H13_2 O10_2 1_555 1_555
H14_2 O10_2 1_555 1_555
O12_2 Cd6 1_555 1_555
O15_2 Cd6 1_555 1_555
Cd3 O3_2 1_555 1_555
O11 C1_2 1_555 1_555
O2_2 C1_2 1_555 1_555
O3_2 C5_2 1_555 1_555
O4_2 C5_2 1_555 1_555
O5_2 Cd3 1_555 1_555
H1_2 O5_2 1_555 1_555
H2_2 O5_2 1_555 1_555
C1_2 C2_2 1_555 1_555
C2_2 C3_2 1_555 1_555
C3_2 H3_2 1_555 1_555
C4_2 C3_2 1_555 1_555
C5_2 C6_2 1_555 1_555
C6_2 C7_2 1_555 1_555
C7_2 H4_2 1_555 1_555
C8_2 C4_2 1_555 1_555
C9_2 C8_2 1_555 1_555
H5_2 C9_2 1_555 1_555
C10_2 C9_2 1_555 1_555
H6_2 C10_2 1_555 1_555
C11_2 C6_2 1_555 1_555
H7_2 C11_2 1_555 1_555
C12_2 H8_2 1_555 1_555
C13_2 C2_2 1_555 1_555
C17_2 C13_2 1_555 1_555
C18_2 C17_2 1_555 1_555
H10_2 C18_2 1_555 1_555
O7_2 C21_2 1_555 1_555
C21_2 C22_2 1_555 1_555
C22_2 C4_2 1_555 1_555
O9_2 C21_2 1_555 1_555
Cd5 O2_2 1_555 1_555
Cd4 O3_2 1_555 1_555
O13_2 Cd3 1_555 1_555
O14_2 Cd3 1_555 1_555
O17_2 Cd3 1_555 1_555
O4_2 Cd4 1_555 1_555
C7_2 C8_2 1_555 1_555
C10_2 C11_2 1_555 1_555
C12_2 C13_2 1_555 1_555
C12_2 C22_2 1_555 1_555
Cd5 O14_2 1_555 1_555
O16 C14_2 1_555 1_555
C14_2 C15_2 1_555 1_555
C15_2 C16_2 1_555 1_555
H11_2 C19_2 1_555 1_555
C20_2 C15_2 1_555 1_555
H12_2 C20_2 1_555 1_555
O18 C14_2 1_555 1_555
C19_2 C20_2 1_555 1_555
Cd1_2 O3_3 1_555 1_555
O5_3 Cd1_2 1_555 1_555
H1_3 O5_3 1_555 1_555
H2_3 O5_3 1_555 1_555
O11_2 Cd1_2 1_555 1_555
O14_3 Cd1_2 1_555 1_555
O17_3 Cd1_2 1_555 1_555
Cd4_2 O14_3 1_555 1_555
O2_3 C1_3 1_555 1_555
C1_3 C2_3 1_555 1_555
C12_3 H8_3 1_555 1_555
C13_3 C2_3 1_555 1_555
C14_3 C15_3 1_555 1_555
C15_3 C16_3 1_555 1_555
C16_3 H9_3 1_555 1_555
C17_3 C13_3 1_555 1_555
C18_3 C17_3 1_555 1_555
H10_3 C18_3 1_555 1_555
C19_3 C18_3 1_555 1_555
H11_3 C19_3 1_555 1_555
C20_3 C15_3 1_555 1_555
H12_3 C20_3 1_555 1_555
O8_2 C14_3 1_555 1_555
C12_3 C13_3 1_555 1_555
C16_3 C17_3 1_555 1_555
C19_3 C20_3 1_555 1_555
O8_2 Cd7 1_555 1_555
O4_3 C5_3 1_555 1_555
C3_3 H3_3 1_555 1_555
C4_3 C3_3 1_555 1_555
C5_3 C6_3 1_555 1_555
C6_3 C7_3 1_555 1_555
C7_3 H4_3 1_555 1_555
C8_3 C4_3 1_555 1_555
C9_3 C8_3 1_555 1_555
H5_3 C9_3 1_555 1_555
C10_3 C9_3 1_555 1_555
H6_3 C10_3 1_555 1_555
C11_3 C6_3 1_555 1_555
H7_3 C11_3 1_555 1_555
C21_3 C22_3 1_555 1_555
C22_3 C4_3 1_555 1_555
O9_3 C21_3 1_555 1_555
O4_3 Cd5_2 1_555 1_555
C7_3 C8_3 1_555 1_555
C10_3 C11_3 1_555 1_555
O10_3 Cd8 1_555 1_555
H13_3 O10_3 1_555 1_555
Cd3_2 O1_2 1_555 1_555
O4_4 C5_4 1_555 1_555
C3_4 H3_4 1_555 1_555
C5_4 C6_4 1_555 1_555
C6_4 C7_4 1_555 1_555
C7_4 H4_4 1_555 1_555
C11_4 C6_4 1_555 1_555
H7_4 C11_4 1_555 1_555
Cd3_2 O3_4 1_555 1_555
O2_4 C1_4 1_555 1_555
O5_4 Cd3_2 1_555 1_555
H1_4 O5_4 1_555 1_555
H2_4 O5_4 1_555 1_555
C1_4 C2_4 1_555 1_555
C13_4 C2_4 1_555 1_555
C17_4 C13_4 1_555 1_555
C18_4 C17_4 1_555 1_555
H10_4 C18_4 1_555 1_555
C19_4 C18_4 1_555 1_555
H11_4 C19_4 1_555 1_555
Cd5_2 O2_4 1_555 1_555
O14_4 Cd3_2 1_555 1_555
O17_4 Cd3_2 1_555 1_555
Cd5_2 O14_4 1_555 1_555
C8_4 C4_4 1_555 1_555
C9_4 C8_4 1_555 1_555
H5_4 C9_4 1_555 1_555
C10_4 C9_4 1_555 1_555
H6_4 C10_4 1_555 1_555
C21_4 C22_4 1_555 1_555
C22_4 C4_4 1_555 1_555
O9_4 C21_4 1_555 1_555
Cd7 O9_4 1_555 1_555
O10_4 Cd7 1_555 1_555
H13_4 O10_4 1_555 1_555
C12_4 H8_4 1_555 1_555
C14_4 C15_4 1_555 1_555
C15_4 C16_4 1_555 1_555
C16_4 H9_4 1_555 1_555
C20_4 C15_4 1_555 1_555
H12_4 C20_4 1_555 1_555
O18_2 C14_4 1_555 1_555
O1_3 C1_5 1_555 1_555
O13_3 C1_5 1_555 1_555
O14_4 C5_5 1_555 1_555
O17_4 C5_5 1_555 1_555
O5_5 Cd5_2 1_555 1_555
H1_5 O5_5 1_555 1_555
C1_5 C2_5 1_555 1_555
C2_5 C3_5 1_555 1_555
C3_5 H3_5 1_555 1_555
C4_5 C3_5 1_555 1_555
C5_5 C6_5 1_555 1_555
C6_5 C7_5 1_555 1_555
C7_5 H4_5 1_555 1_555
C8_5 C4_5 1_555 1_555
C9_5 C8_5 1_555 1_555
H5_5 C9_5 1_555 1_555
C10_5 C9_5 1_555 1_555
H6_5 C10_5 1_555 1_555
C11_5 C6_5 1_555 1_555
H7_5 C11_5 1_555 1_555
C12_5 H8_5 1_555 1_555
C13_5 C2_5 1_555 1_555
C17_5 C13_5 1_555 1_555
C18_5 C17_5 1_555 1_555
H10_5 C18_5 1_555 1_555
O7_3 C21_5 1_555 1_555
C21_5 C22_5 1_555 1_555
C22_5 C4_5 1_555 1_555
O9_5 C21_5 1_555 1_555
Cd2_2 O9_5 1_555 1_555
O10_5 Cd2_2 1_555 1_555
H13_5 O10_5 1_555 1_555
H14_5 O10_5 1_555 1_555
Cd8_2 O7_3 1_555 1_555
O12_3 Cd2_2 1_555 1_555
O15_3 Cd2_2 1_555 1_555
O16_2 Cd2_2 1_555 1_555
O18_3 Cd2_2 1_555 1_555
C7_5 C8_5 1_555 1_555
C10_5 C11_5 1_555 1_555
C12_5 C13_5 1_555 1_555
C12_5 C22_5 1_555 1_555
Cd8_2 O16_2 1_555 1_555
O6_2 C14_5 1_555 1_555
C14_5 C15_5 1_555 1_555
C15_5 C16_5 1_555 1_555
H11_5 C19_5 1_555 1_555
C20_5 C15_5 1_555 1_555
H12_5 C20_5 1_555 1_555
O8_3 C14_5 1_555 1_555
Cd6_2 O6_2 1_555 1_555
Cd7_2 O6_2 1_555 1_555
C19_5 C20_5 1_555 1_555
O8_3 Cd6_2 1_555 1_555
O14_3 C5_6 1_555 1_555
O17_3 C5_6 1_555 1_555
O5_6 Cd4_2 1_555 1_555
H1_6 O5_6 1_555 1_555
C5_6 C6_6 1_555 1_555
C6_6 C7_6 1_555 1_555
H6_6 C10_6 1_555 1_555
C11_6 C6_6 1_555 1_555
H7_6 C11_6 1_555 1_555
C10_6 C11_6 1_555 1_555
O11_3 C1_6 1_555 1_555
O13_4 C1_6 1_555 1_555
C1_6 C2_6 1_555 1_555
C2_6 C3_6 1_555 1_555
C3_6 H3_6 1_555 1_555
C4_6 C3_6 1_555 1_555
C8_6 C4_6 1_555 1_555
C9_6 C8_6 1_555 1_555
H5_6 C9_6 1_555 1_555
O16_2 C14_6 1_555 1_555
C12_6 H8_6 1_555 1_555
C13_6 C2_6 1_555 1_555
C14_6 C15_6 1_555 1_555
C15_6 C16_6 1_555 1_555
C16_6 H9_6 1_555 1_555
C17_6 C13_6 1_555 1_555
C18_6 C17_6 1_555 1_555
H10_6 C18_6 1_555 1_555
C19_6 C18_6 1_555 1_555
H11_6 C19_6 1_555 1_555
C20_6 C15_6 1_555 1_555
H12_6 C20_6 1_555 1_555
O7_4 C21_6 1_555 1_555
C21_6 C22_6 1_555 1_555
C22_6 C4_6 1_555 1_555
O18_3 C14_6 1_555 1_555
O9_6 C21_6 1_555 1_555
Cd6_2 O9_6 1_555 1_555
O10_6 Cd6_2 1_555 1_555
H13_6 O10_6 1_555 1_555
H14_6 O10_6 1_555 1_555
Cd7_2 O7_4 1_555 1_555
O12_4 Cd6_2 1_555 1_555
O15_4 Cd6_2 1_555 1_555
C12_6 C13_6 1_555 1_555
C12_6 C22_6 1_555 1_555
C16_6 C17_6 1_555 1_555
C19_6 C20_6 1_555 1_555
Cd8_2 O15_4 1_555 1_555
C8_7 C4_7 1_555 1_555
C9_7 C8_7 1_555 1_555
H5_7 C9_7 1_555 1_555
C10_7 C9_7 1_555 1_555
H6_7 C10_7 1_555 1_555
O15_3 C14_7 1_555 1_555
C12_7 H8_7 1_555 1_555
C14_7 C15_7 1_555 1_555
C15_7 C16_7 1_555 1_555
C16_7 H9_7 1_555 1_555
C20_7 C15_7 1_555 1_555
H12_7 C20_7 1_555 1_555
O12_4 C21_7 1_555 1_555
C21_7 C22_7 1_555 1_555
C22_7 C4_7 1_555 1_555
O8_4 C14_7 1_555 1_555
O9_7 C21_7 1_555 1_555
Cd8_2 O9_7 1_555 1_555
O10_7 Cd8_2 1_555 1_555
H13_7 O10_7 1_555 1_555
H14_7 O10_7 1_555 1_555
O18_4 Cd8_2 1_555 1_555
C12_7 C22_7 1_555 1_555
O1_4 C1_7 1_555 1_555
O13_2 C1_7 1_555 1_555
O14 C5_7 1_555 1_555
O17 C5_7 1_555 1_555
O5_7 Cd4 1_555 1_555
H1_7 O5_7 1_555 1_555
H2_7 O5_7 1_555 1_555
C1_7 C2_7 1_555 1_555
C2_7 C3_7 1_555 1_555
C3_7 H3_7 1_555 1_555
C5_7 C6_7 1_555 1_555
C6_7 C7_7 1_555 1_555
C7_7 H4_7 1_555 1_555
C11_7 C6_7 1_555 1_555
H7_7 C11_7 1_555 1_555
C13_7 C2_7 1_555 1_555
C17_7 C13_7 1_555 1_555
C18_7 C17_7 1_555 1_555
H10_7 C18_7 1_555 1_555
C19_7 C18_7 1_555 1_555
H11_7 C19_7 1_555 1_555
Cd5 O1_4 1_555 1_555
O11_4 Cd4 1_555 1_555
O14_2 C5_8 1_555 1_555
O17_2 C5_8 1_555 1_555
O5_8 Cd5 1_555 1_555
H1_8 O5_8 1_555 1_555
H2_8 O5_8 1_555 1_555
C3_8 H3_8 1_555 1_555
C4_8 C3_8 1_555 1_555
C5_8 C6_8 1_555 1_555
C6_8 C7_8 1_555 1_555
C7_8 H4_8 1_555 1_555
C8_8 C4_8 1_555 1_555
C9_8 C8_8 1_555 1_555
H5_8 C9_8 1_555 1_555
C10_8 C9_8 1_555 1_555
H6_8 C10_8 1_555 1_555
C11_8 C6_8 1_555 1_555
H7_8 C11_8 1_555 1_555
O12_3 C21_8 1_555 1_555
C21_8 C22_8 1_555 1_555
C22_8 C4_8 1_555 1_555
O9_8 C21_8 1_555 1_555
C7_8 C8_8 1_555 1_555
C10_8 C11_8 1_555 1_555
O11_4 C1_8 1_555 1_555
O13 C1_8 1_555 1_555
C1_8 C2_8 1_555 1_555
O15_4 C14_8 1_555 1_555
C12_8 H8_8 1_555 1_555
C13_8 C2_8 1_555 1_555
C14_8 C15_8 1_555 1_555
C15_8 C16_8 1_555 1_555
C16_8 H9_8 1_555 1_555
C17_8 C13_8 1_555 1_555
C18_8 C17_8 1_555 1_555
H10_8 C18_8 1_555 1_555
C19_8 C18_8 1_555 1_555
H11_8 C19_8 1_555 1_555
C20_8 C15_8 1_555 1_555
H12_8 C20_8 1_555 1_555
O18_4 C14_8 1_555 1_555
O10_8 Cd7_2 1_555 1_555
H13_8 O10_8 1_555 1_555
H14_8 O10_8 1_555 1_555
C12_8 C13_8 1_555 1_555
C16_8 C17_8 1_555 1_555
C19_8 C20_8 1_555 1_555

#END
