
###############################################################################
#
# This file contains modified crystal structure data generated from the
# MOF subset of the Cambridge Structural Database (CSD) v543 
# hosted by the Cambridge Crystallographic Data Centre (CCDC).
#
# This work is licensed under the Creative Commons
# Attribution-NonCommercial-ShareAlike 4.0 International License.
# To view a copy of this license, visit
# http://creativecommons.org/licenses/by-nc-sa/4.0/
# or send a letter to
# Creative Commons, PO Box 1866, Mountain View, CA 94042, USA.
#
# CIF created using the CSD Python API on 29 September 2022
# The structure has been converted into the P1 space group
# The structure has a 3D framework
# The original CSD entry JUYBAI is in the tetragonal crystal system
# The framework has been calculated to contain at least 10.0% void space
# The void calculation uses a probe of radius 1.32A, grid spacing 0.4
#
###############################################################################

data_JUYBAI
_chemical_formula_moiety         '(C176 H112 Cd16 O72)n'
_symmetry_cell_setting           triclinic
_symmetry_space_group_name_H-M   'P 1'
_symmetry_Int_Tables_number      1
_space_group_name_Hall           'P 1'
loop_
_symmetry_equiv_pos_site_id
_symmetry_equiv_pos_as_xyz
1 x,y,z
_cell_length_a                   18.1185(4)
_cell_length_b                   18.1185(4)
_cell_length_c                   14.3582(7)
_cell_angle_alpha                90
_cell_angle_beta                 90
_cell_angle_gamma                90
_cell_volume                     4713.51
loop_
_atom_site_label
_atom_site_type_symbol
_atom_site_fract_x
_atom_site_fract_y
_atom_site_fract_z
Cd1 Cd 0.29539(3) 0.51563(3) 0.04860(3)
O5 O 0.3998(3) 0.5097(4) 0.1335(4)
H1 H 0.3818 0.5051 0.1878
H2 H 0.4278 0.5473 0.1334
O11 O 0.2522(3) 0.6046(2) 0.1470(3)
O13 O 0.2705(3) 0.3934(3) 0.0723(4)
O16 O 0.2305(3) 0.4469(3) 0.1983(4)
O1 O 0.3546(2) 0.4978(3) 0.8970(3)
O2 O 0.3672(3) 0.6043(3) 0.9680(3)
O3 O 0.3566(3) 0.5205(3) 0.3223(4)
O4 O 0.3031(3) 0.4805(3) 0.4483(4)
C1 C 0.3838(4) 0.5620(4) 0.9034(4)
C2 C 0.4386(4) 0.5844(4) 0.8326(5)
C3 C 0.4469(3) 0.5454(4) 0.7498(4)
H3 H 0.4172 0.5045 0.7385
C4 C 0.4988(3) 0.5665(4) 0.6837(4)
C5 C 0.5444(4) 0.6264(4) 0.7021(5)
H4 H 0.5792 0.6411 0.6582
C6 C 0.5383(4) 0.6642(4) 0.7854(5)
H5 H 0.5703 0.7031 0.7982
C7 C 0.4851(4) 0.6449(4) 0.8498(5)
H6 H 0.4800 0.6719 0.9045
C8 C 0.3594(4) 0.4973(4) 0.4033(5)
C9 C 0.4326(3) 0.4933(4) 0.4520(4)
C10 C 0.4355(3) 0.5194(4) 0.5431(4)
H7 H 0.3914 0.5314 0.5727
C11 C 0.5013(3) 0.5285(3) 0.5919(4)
O6 O 0.6454(2) 0.5022(3) 0.1030(3)
O7 O 0.6328(3) 0.3957(3) 0.0320(3)
C12 C 0.6162(4) 0.4380(4) 0.0966(4)
C13 C 0.5614(4) 0.4156(4) 0.1674(5)
C14 C 0.5531(3) 0.4546(4) 0.2502(4)
H8 H 0.5828 0.4955 0.2615
C15 C 0.5012(3) 0.4335(4) 0.3163(4)
C16 C 0.4556(4) 0.3736(4) 0.2979(5)
H9 H 0.4208 0.3589 0.3418
C17 C 0.4617(4) 0.3358(4) 0.2146(5)
H10 H 0.4297 0.2969 0.2018
C18 C 0.5149(4) 0.3551(4) 0.1502(5)
H11 H 0.5200 0.3281 0.0955
C19 C 0.5674(3) 0.5067(4) 0.5480(4)
C20 C 0.5645(3) 0.4806(4) 0.4569(4)
H12 H 0.6086 0.4686 0.4273
C21 C 0.4987(3) 0.4715(3) 0.4081(4)
O8 O 0.6434(3) 0.4795(3) 0.6777(4)
C22 C 0.6406(4) 0.5027(4) 0.5967(5)
O9 O 0.6969(3) 0.5195(3) 0.5517(4)
Cd3 Cd 0.20461(3) 0.48437(3) 0.54860(3)
Cd4 Cd 0.23437(3) 0.54539(3) 0.29860(3)
Cd5 Cd 0.26563(3) 0.45461(3) 0.79860(3)
Cd6 Cd 0.79539(3) 0.51563(3) 0.45140(3)
Cd7 Cd 0.76563(3) 0.45461(3) 0.70140(3)
Cd8 Cd 0.73437(3) 0.54539(3) 0.20140(3)
O15 O 0.1969(3) 0.5195(3) 0.9483(4)
O17 O 0.8031(3) 0.4805(3) 0.0517(4)
Cd2 Cd 0.70461(3) 0.48437(3) 0.95140(3)
O10 O 0.6002(3) 0.4903(4) 0.8665(4)
H13 H 0.6182 0.4949 0.8122
H14 H 0.5722 0.4527 0.8666
O12 O 0.7478(3) 0.3954(2) 0.8530(3)
O14 O 0.7295(3) 0.6066(3) 0.9277(4)
O18 O 0.7695(3) 0.5531(3) 0.8017(4)
O1_2 O 0.1454(2) 0.5022(3) 0.3970(3)
O2_2 O 0.1328(3) 0.3957(3) 0.4680(3)
O5_2 O 0.1002(3) 0.4903(4) 0.6335(4)
H1_2 H 0.1182 0.4949 0.6878
H2_2 H 0.0722 0.4527 0.6334
C1_2 C 0.1162(4) 0.4380(4) 0.4034(4)
C2_2 C 0.0614(4) 0.4156(4) 0.3326(5)
C3_2 C 0.0531(3) 0.4546(4) 0.2498(4)
H3_2 H 0.0828 0.4955 0.2385
C4_2 C 0.0012(3) 0.4335(4) 0.1837(4)
C7_2 C 0.0149(4) 0.3551(4) 0.3498(5)
H6_2 H 0.0200 0.3281 0.4045
C10_2 C 0.0645(3) 0.4806(4) 0.0431(4)
H7_2 H 0.1086 0.4686 0.0727
O11_2 O 0.2478(3) 0.3954(2) 0.6470(3)
O13_2 O 0.2295(3) 0.6066(3) 0.5723(4)
O16_2 O 0.2695(3) 0.5531(3) 0.6983(4)
O3_2 O 0.1434(3) 0.4795(3) 0.8223(4)
C8_2 C 0.1406(4) 0.5027(4) 0.9033(5)
C9_2 C 0.0674(3) 0.5067(4) 0.9520(4)
C16_2 C 0.0444(4) 0.6264(4) 0.7979(5)
H9_2 H 0.0792 0.6411 0.8418
C17_2 C 0.0383(4) 0.6642(4) 0.7146(5)
H10_2 H 0.0703 0.7031 0.7018
C21_2 C 0.0013(3) 0.5285(3) 0.9081(4)
C5_2 C 0.9556(4) 0.3736(4) 0.2021(5)
H4_2 H 0.9208 0.3589 0.1582
C6_2 C 0.9617(4) 0.3358(4) 0.2854(5)
H5_2 H 0.9297 0.2969 0.2982
C11_2 C 0.9987(3) 0.4715(3) 0.0919(4)
C19_2 C 0.9326(3) 0.4933(4) 0.0480(4)
O8_2 O 0.8566(3) 0.5205(3) 0.1777(4)
C22_2 C 0.8594(4) 0.4973(4) 0.0967(5)
O6_2 O 0.8546(2) 0.4978(3) 0.6030(3)
O7_2 O 0.8672(3) 0.6043(3) 0.5320(3)
C12_2 C 0.8838(4) 0.5620(4) 0.5966(4)
C13_2 C 0.9386(4) 0.5844(4) 0.6674(5)
C14_2 C 0.9469(3) 0.5454(4) 0.7502(4)
H8_2 H 0.9172 0.5045 0.7615
C15_2 C 0.9988(3) 0.5665(4) 0.8163(4)
C18_2 C 0.9851(4) 0.6449(4) 0.6502(5)
H11_2 H 0.9800 0.6719 0.5955
C20_2 C 0.9355(3) 0.5194(4) 0.9569(4)
H12_2 H 0.8914 0.5314 0.9273
O10_2 O 0.8998(3) 0.5097(4) 0.3665(4)
H13_2 H 0.8818 0.5051 0.3122
H14_2 H 0.9278 0.5473 0.3666
O12_2 O 0.7522(3) 0.6046(2) 0.3530(3)
O14_2 O 0.7705(3) 0.3934(3) 0.4277(4)
O18_2 O 0.7305(3) 0.4469(3) 0.3017(4)
Cd6_2 Cd 0.23437(3) 0.04539(3) 0.70140(3)
Cd7_2 Cd 0.29539(3) 0.01563(3) 0.95140(3)
O17_2 O 0.2695(3) 0.0531(3) 0.3017(4)
O18_3 O 0.1969(3) 0.0195(3) 0.0517(4)
O2_3 O 0.1457(3) 0.6172(3) 0.2180(3)
O5_3 O 0.2403(4) 0.6498(3) 0.3835(4)
H1_3 H 0.2449 0.6318 0.4378
H2_3 H 0.2027 0.6778 0.3834
C1_3 C 0.1880(4) 0.6338(4) 0.1534(4)
C2_3 C 0.1656(4) 0.6886(4) 0.0826(5)
C6_3 C 0.0858(4) 0.7883(4) 0.0354(5)
H5_3 H 0.0469 0.8203 0.0482
C7_3 C 0.1051(4) 0.7351(4) 0.0998(5)
H6_3 H 0.0781 0.7300 0.1545
C3_3 C 0.2046(4) 0.6969(3) 0.9998(4)
H3_3 H 0.2455 0.6672 0.9885
C4_3 C 0.1835(4) 0.7488(3) 0.9337(4)
C5_3 C 0.1236(4) 0.7944(4) 0.9521(5)
H4_3 H 0.1089 0.8292 0.9082
C8_3 C 0.2527(4) 0.6094(4) 0.6533(5)
C9_3 C 0.2567(4) 0.6826(3) 0.7020(4)
C10_3 C 0.2306(4) 0.6855(3) 0.7931(4)
H7_3 H 0.2186 0.6414 0.8227
C11_3 C 0.2215(3) 0.7513(3) 0.8419(4)
O6_3 O 0.2478(3) 0.8954(2) 0.3530(3)
O7_3 O 0.3543(3) 0.8828(3) 0.2820(3)
C12_3 C 0.3120(4) 0.8662(4) 0.3466(4)
C13_3 C 0.3344(4) 0.8114(4) 0.4174(5)
C14_3 C 0.2954(4) 0.8031(3) 0.5002(4)
H8_3 H 0.2545 0.8328 0.5115
C15_3 C 0.3165(4) 0.7512(3) 0.5663(4)
C16_3 C 0.3764(4) 0.7056(4) 0.5479(5)
H9_3 H 0.3911 0.6708 0.5918
C17_3 C 0.4142(4) 0.7117(4) 0.4646(5)
H10_3 H 0.4531 0.6797 0.4518
C18_3 C 0.3949(4) 0.7649(4) 0.4002(5)
H11_3 H 0.4219 0.7700 0.3455
C19_3 C 0.2433(4) 0.8174(3) 0.7980(4)
C20_3 C 0.2694(4) 0.8145(3) 0.7069(4)
H12_3 H 0.2814 0.8586 0.6773
C21_3 C 0.2785(3) 0.7487(3) 0.6581(4)
O8_3 O 0.2705(3) 0.8934(3) 0.9277(4)
C22_3 C 0.2473(4) 0.8906(4) 0.8467(5)
O9_2 O 0.2305(3) 0.9469(3) 0.8017(4)
Cd2_2 Cd 0.26563(3) 0.95461(3) 0.20140(3)
O10_3 O 0.2597(4) 0.8502(3) 0.1165(4)
H13_3 H 0.2551 0.8682 0.0622
H14_3 H 0.2973 0.8222 0.1166
Cd8_2 Cd 0.20461(3) 0.98437(3) 0.45140(3)
O12_3 O 0.3546(2) 0.9978(3) 0.1030(3)
O14_3 O 0.1434(3) 0.9795(3) 0.1777(4)
O2_4 O 0.3543(3) 0.3828(3) 0.7180(3)
O5_4 O 0.2597(4) 0.3502(3) 0.8835(4)
H1_4 H 0.2551 0.3682 0.9378
H2_4 H 0.2973 0.3222 0.8834
C1_4 C 0.3120(4) 0.3662(4) 0.6534(4)
C2_4 C 0.3344(4) 0.3114(4) 0.5826(5)
C3_4 C 0.2954(4) 0.3031(3) 0.4998(4)
H3_4 H 0.2545 0.3328 0.4885
C4_4 C 0.3165(4) 0.2512(3) 0.4337(4)
C5_4 C 0.3764(4) 0.2056(4) 0.4521(5)
H4_4 H 0.3911 0.1708 0.4082
C6_4 C 0.4142(4) 0.2117(4) 0.5354(5)
H5_4 H 0.4531 0.1797 0.5482
C7_4 C 0.3949(4) 0.2649(4) 0.5998(5)
H6_4 H 0.4219 0.2700 0.6545
C8_4 C 0.2473(4) 0.3906(4) 0.1533(5)
C9_4 C 0.2433(4) 0.3174(3) 0.2020(4)
C10_4 C 0.2694(4) 0.3145(3) 0.2931(4)
H7_4 H 0.2814 0.3586 0.3227
C11_4 C 0.2785(3) 0.2487(3) 0.3419(4)
C14_4 C 0.2046(4) 0.1969(3) 0.0002(4)
H8_4 H 0.2455 0.1672 0.0115
C15_4 C 0.1835(4) 0.2488(3) 0.0663(4)
C16_4 C 0.1236(4) 0.2944(4) 0.0479(5)
H9_4 H 0.1089 0.3292 0.0918
C19_4 C 0.2567(4) 0.1826(3) 0.2980(4)
C20_4 C 0.2306(4) 0.1855(3) 0.2069(4)
H12_4 H 0.2186 0.1414 0.1773
C21_4 C 0.2215(3) 0.2513(3) 0.1581(4)
O8_4 O 0.2295(3) 0.1066(3) 0.4277(4)
C22_4 C 0.2527(4) 0.1094(4) 0.3467(5)
O6_4 O 0.2522(3) 0.1046(2) 0.8530(3)
O7_4 O 0.1457(3) 0.1172(3) 0.7820(3)
C12_4 C 0.1880(4) 0.1338(4) 0.8466(4)
C13_4 C 0.1656(4) 0.1886(4) 0.9174(5)
C17_4 C 0.0858(4) 0.2883(4) 0.9646(5)
H10_4 H 0.0469 0.3203 0.9518
C18_4 C 0.1051(4) 0.2351(4) 0.9002(5)
H11_4 H 0.0781 0.2300 0.8455
O10_4 O 0.2403(4) 0.1498(3) 0.6165(4)
H13_4 H 0.2449 0.1318 0.5622
H14_4 H 0.2027 0.1778 0.6166
O12_4 O 0.1454(2) 0.0022(3) 0.6030(3)
O14_4 O 0.3566(3) 0.0205(3) 0.6777(4)
O18_4 O 0.3031(3) 0.9805(3) 0.5517(4)
C5_5 C 0.0444(4) 0.1264(4) 0.2021(5)
H4_5 H 0.0792 0.1411 0.1582
C6_5 C 0.0383(4) 0.1642(4) 0.2854(5)
H5_5 H 0.0703 0.2031 0.2982
C11_5 C 0.0013(3) 0.0285(3) 0.0919(4)
C19_5 C 0.0674(3) 0.0067(4) 0.0480(4)
C22_5 C 0.1406(4) 0.0027(4) 0.0967(5)
O7_5 O 0.1328(3) 0.8957(3) 0.5320(3)
C12_5 C 0.1162(4) 0.9380(4) 0.5966(4)
C13_5 C 0.0614(4) 0.9156(4) 0.6674(5)
C14_5 C 0.0531(3) 0.9546(4) 0.7502(4)
H8_5 H 0.0828 0.9955 0.7615
C15_5 C 0.0012(3) 0.9335(4) 0.8163(4)
C18_5 C 0.0149(4) 0.8551(4) 0.6502(5)
H11_5 H 0.0200 0.8281 0.5955
C20_5 C 0.0645(3) 0.9806(4) 0.9569(4)
H12_5 H 0.1086 0.9686 0.9273
O10_5 O 0.1002(3) 0.9903(4) 0.3665(4)
H13_5 H 0.1182 0.9949 0.3122
H14_5 H 0.0722 0.9527 0.3666
Cd1_2 Cd 0.79539(3) 0.01563(3) 0.54860(3)
O2_5 O 0.8672(3) 0.1043(3) 0.4680(3)
O5_5 O 0.8998(3) 0.0097(4) 0.6335(4)
H1_5 H 0.8818 0.0051 0.6878
H2_5 H 0.9278 0.0473 0.6334
C1_5 C 0.8838(4) 0.0620(4) 0.4034(4)
C2_5 C 0.9386(4) 0.0844(4) 0.3326(5)
C3_5 C 0.9469(3) 0.0454(4) 0.2498(4)
H3_5 H 0.9172 0.0045 0.2385
C4_5 C 0.9988(3) 0.0665(4) 0.1837(4)
C7_5 C 0.9851(4) 0.1449(4) 0.3498(5)
H6_5 H 0.9800 0.1719 0.4045
C10_5 C 0.9355(3) 0.0194(4) 0.0431(4)
H7_5 H 0.8914 0.0314 0.0727
O11_3 O 0.7522(3) 0.1046(2) 0.6470(3)
O15_2 O 0.6969(3) 0.0195(3) 0.4483(4)
O3_3 O 0.8566(3) 0.0205(3) 0.8223(4)
Cd4_2 Cd 0.73437(3) 0.04539(3) 0.79860(3)
O1_3 O 0.8546(2) 0.9978(3) 0.3970(3)
Cd3_2 Cd 0.70461(3) 0.98437(3) 0.04860(3)
Cd5_2 Cd 0.76563(3) 0.95461(3) 0.29860(3)
O13_3 O 0.7705(3) 0.8934(3) 0.5723(4)
O16_3 O 0.7305(3) 0.9469(3) 0.6983(4)
O4_2 O 0.8031(3) 0.9805(3) 0.9483(4)
C8_5 C 0.8594(4) 0.9973(4) 0.9033(5)
C9_5 C 0.9326(3) 0.9933(4) 0.9520(4)
C16_5 C 0.9556(4) 0.8736(4) 0.7979(5)
H9_5 H 0.9208 0.8589 0.8418
C17_5 C 0.9617(4) 0.8358(4) 0.7146(5)
H10_5 H 0.9297 0.7969 0.7018
C21_5 C 0.9987(3) 0.9715(3) 0.9081(4)
O13_4 O 0.7295(3) 0.1066(3) 0.0723(4)
O16_4 O 0.7695(3) 0.0531(3) 0.1983(4)
O1_4 O 0.6454(2) 0.0022(3) 0.8970(3)
C8_6 C 0.6406(4) 0.0027(4) 0.4033(5)
C9_6 C 0.5674(3) 0.0067(4) 0.4520(4)
O7_6 O 0.3672(3) 0.1043(3) 0.0320(3)
C12_6 C 0.3838(4) 0.0620(4) 0.0966(4)
C13_6 C 0.4386(4) 0.0844(4) 0.1674(5)
C14_6 C 0.4469(3) 0.0454(4) 0.2502(4)
H8_6 H 0.4172 0.0045 0.2615
C15_6 C 0.4988(3) 0.0665(4) 0.3163(4)
C16_6 C 0.5444(4) 0.1264(4) 0.2979(5)
H9_6 H 0.5792 0.1411 0.3418
C17_6 C 0.5383(4) 0.1642(4) 0.2146(5)
H10_6 H 0.5703 0.2031 0.2018
C18_6 C 0.4851(4) 0.1449(4) 0.1502(5)
H11_6 H 0.4800 0.1719 0.0955
C20_6 C 0.4355(3) 0.0194(4) 0.4569(4)
H12_6 H 0.3914 0.0314 0.4273
C21_6 C 0.5013(3) 0.0285(3) 0.4081(4)
O10_6 O 0.3998(3) 0.0097(4) 0.8665(4)
H13_6 H 0.3818 0.0051 0.8122
H14_6 H 0.4278 0.0473 0.8666
O5_6 O 0.6002(3) 0.9903(4) 0.1335(4)
H1_6 H 0.6182 0.9949 0.1878
H2_6 H 0.5722 0.9527 0.1334
O11_4 O 0.7478(3) 0.8954(2) 0.1470(3)
O2_6 O 0.6328(3) 0.8957(3) 0.9680(3)
O3_4 O 0.6434(3) 0.9795(3) 0.3223(4)
C1_6 C 0.6162(4) 0.9380(4) 0.9034(4)
C2_6 C 0.5614(4) 0.9156(4) 0.8326(5)
C3_6 C 0.5531(3) 0.9546(4) 0.7498(4)
H3_6 H 0.5828 0.9955 0.7385
C4_6 C 0.5012(3) 0.9335(4) 0.6837(4)
C5_6 C 0.4556(4) 0.8736(4) 0.7021(5)
H4_6 H 0.4208 0.8589 0.6582
C6_6 C 0.4617(4) 0.8358(4) 0.7854(5)
H5_6 H 0.4297 0.7969 0.7982
C7_6 C 0.5149(4) 0.8551(4) 0.8498(5)
H6_6 H 0.5200 0.8281 0.9045
C10_6 C 0.5645(3) 0.9806(4) 0.5431(4)
H7_6 H 0.6086 0.9686 0.5727
C11_6 C 0.4987(3) 0.9715(3) 0.5919(4)
C19_6 C 0.4326(3) 0.9933(4) 0.5480(4)
C22_6 C 0.3594(4) 0.9973(4) 0.5967(5)
O2_7 O 0.6457(3) 0.1172(3) 0.7180(3)
O5_7 O 0.7403(4) 0.1498(3) 0.8835(4)
H1_7 H 0.7449 0.1318 0.9378
H2_7 H 0.7027 0.1778 0.8834
C1_7 C 0.6880(4) 0.1338(4) 0.6534(4)
C2_7 C 0.6656(4) 0.1886(4) 0.5826(5)
C3_7 C 0.7046(4) 0.1969(3) 0.4998(4)
H3_7 H 0.7455 0.1672 0.4885
C4_7 C 0.6835(4) 0.2488(3) 0.4337(4)
C5_7 C 0.6236(4) 0.2944(4) 0.4521(5)
H4_7 H 0.6089 0.3292 0.4082
C6_7 C 0.5858(4) 0.2883(4) 0.5354(5)
H5_7 H 0.5469 0.3203 0.5482
C7_7 C 0.6051(4) 0.2351(4) 0.5998(5)
H6_7 H 0.5781 0.2300 0.6545
C8_7 C 0.7527(4) 0.1094(4) 0.1533(5)
C9_7 C 0.7567(4) 0.1826(3) 0.2020(4)
C10_7 C 0.7306(4) 0.1855(3) 0.2931(4)
H7_7 H 0.7186 0.1414 0.3227
C11_7 C 0.7215(3) 0.2513(3) 0.3419(4)
C14_7 C 0.7954(4) 0.3031(3) 0.0002(4)
H8_7 H 0.7545 0.3328 0.0115
C15_7 C 0.8165(4) 0.2512(3) 0.0663(4)
C16_7 C 0.8764(4) 0.2056(4) 0.0479(5)
H9_7 H 0.8911 0.1708 0.0918
C19_7 C 0.7433(4) 0.3174(3) 0.2980(4)
C20_7 C 0.7694(4) 0.3145(3) 0.2069(4)
H12_7 H 0.7814 0.3586 0.1773
C21_7 C 0.7785(3) 0.2487(3) 0.1581(4)
C22_7 C 0.7473(4) 0.3906(4) 0.3467(5)
O7_7 O 0.8543(3) 0.3828(3) 0.7820(3)
C12_7 C 0.8120(4) 0.3662(4) 0.8466(4)
C13_7 C 0.8344(4) 0.3114(4) 0.9174(5)
C17_7 C 0.9142(4) 0.2117(4) 0.9646(5)
H10_7 H 0.9531 0.1797 0.9518
C18_7 C 0.8949(4) 0.2649(4) 0.9002(5)
H11_7 H 0.9219 0.2700 0.8455
O10_7 O 0.7597(4) 0.3502(3) 0.6165(4)
H13_7 H 0.7551 0.3682 0.5622
H14_7 H 0.7973 0.3222 0.6166
O2_8 O 0.8543(3) 0.8828(3) 0.2180(3)
O5_8 O 0.7597(4) 0.8502(3) 0.3835(4)
H1_8 H 0.7551 0.8682 0.4378
H2_8 H 0.7973 0.8222 0.3834
C1_8 C 0.8120(4) 0.8662(4) 0.1534(4)
C2_8 C 0.8344(4) 0.8114(4) 0.0826(5)
C6_8 C 0.9142(4) 0.7117(4) 0.0354(5)
H5_8 H 0.9531 0.6797 0.0482
C7_8 C 0.8949(4) 0.7649(4) 0.0998(5)
H6_8 H 0.9219 0.7700 0.1545
C3_8 C 0.7954(4) 0.8031(3) 0.9998(4)
H3_8 H 0.7545 0.8328 0.9885
C4_8 C 0.8165(4) 0.7512(3) 0.9337(4)
C5_8 C 0.8764(4) 0.7056(4) 0.9521(5)
H4_8 H 0.8911 0.6708 0.9082
C8_8 C 0.7473(4) 0.8906(4) 0.6533(5)
C9_8 C 0.7433(4) 0.8174(3) 0.7020(4)
C10_8 C 0.7694(4) 0.8145(3) 0.7931(4)
H7_8 H 0.7814 0.8586 0.8227
C11_8 C 0.7785(3) 0.7487(3) 0.8419(4)
O7_8 O 0.6457(3) 0.6172(3) 0.2820(3)
C12_8 C 0.6880(4) 0.6338(4) 0.3466(4)
C13_8 C 0.6656(4) 0.6886(4) 0.4174(5)
C14_8 C 0.7046(4) 0.6969(3) 0.5002(4)
H8_8 H 0.7455 0.6672 0.5115
C15_8 C 0.6835(4) 0.7488(3) 0.5663(4)
C16_8 C 0.6236(4) 0.7944(4) 0.5479(5)
H9_8 H 0.6089 0.8292 0.5918
C17_8 C 0.5858(4) 0.7883(4) 0.4646(5)
H10_8 H 0.5469 0.8203 0.4518
C18_8 C 0.6051(4) 0.7351(4) 0.4002(5)
H11_8 H 0.5781 0.7300 0.3455
C19_8 C 0.7567(4) 0.6826(3) 0.7980(4)
C20_8 C 0.7306(4) 0.6855(3) 0.7069(4)
H12_8 H 0.7186 0.6414 0.6773
C21_8 C 0.7215(3) 0.7513(3) 0.6581(4)
C22_8 C 0.7527(4) 0.6094(4) 0.8467(5)
O10_8 O 0.7403(4) 0.6498(3) 0.1165(4)
H13_8 H 0.7449 0.6318 0.0622
H14_8 H 0.7027 0.6778 0.1166
loop_
_geom_bond_atom_site_label_1
_geom_bond_atom_site_label_2
_geom_bond_site_symmetry_1
_geom_bond_site_symmetry_2
O5 Cd1 1_555 1_555
H1 O5 1_555 1_555
H2 O5 1_555 1_555
O11 Cd1 1_555 1_555
O13 Cd1 1_555 1_555
O16 Cd1 1_555 1_555
O1 C1 1_555 1_555
O3 C8 1_555 1_555
O4 C8 1_555 1_555
C1 O2 1_555 1_555
C2 C1 1_555 1_555
C3 C2 1_555 1_555
H3 C3 1_555 1_555
C4 C3 1_555 1_555
C5 C4 1_555 1_555
H4 C5 1_555 1_555
C6 C5 1_555 1_555
H5 C6 1_555 1_555
C7 C2 1_555 1_555
H6 C7 1_555 1_555
C8 C9 1_555 1_555
C9 C10 1_555 1_555
C10 H7 1_555 1_555
C11 C4 1_555 1_555
O6 C12 1_555 1_555
O7 C12 1_555 1_555
C12 C13 1_555 1_555
C13 C14 1_555 1_555
C14 H8 1_555 1_555
C15 C14 1_555 1_555
C16 C15 1_555 1_555
H9 C16 1_555 1_555
C17 C16 1_555 1_555
H10 C17 1_555 1_555
C18 C13 1_555 1_555
H11 C18 1_555 1_555
C19 C11 1_555 1_555
C20 C19 1_555 1_555
H12 C20 1_555 1_555
C21 C9 1_555 1_555
O8 C22 1_555 1_555
C22 C19 1_555 1_555
O9 C22 1_555 1_555
Cd3 O4 1_555 1_555
Cd4 O3 1_555 1_555
Cd5 O1 1_555 1_555
Cd6 O9 1_555 1_555
Cd7 O8 1_555 1_555
Cd8 O6 1_555 1_555
O4 Cd4 1_555 1_555
C6 C7 1_555 1_555
C10 C11 1_555 1_555
C15 C21 1_555 1_555
C17 C18 1_555 1_555
C20 C21 1_555 1_555
O9 Cd7 1_555 1_555
Cd5 O15 1_555 1_555
Cd8 O17 1_555 1_555
O10 Cd2 1_555 1_555
H13 O10 1_555 1_555
H14 O10 1_555 1_555
O12 Cd2 1_555 1_555
O14 Cd2 1_555 1_555
O18 Cd2 1_555 1_555
Cd3 O1_2 1_555 1_555
O1_2 C1_2 1_555 1_555
O2_2 Cd3 1_555 1_555
O5_2 Cd3 1_555 1_555
H1_2 O5_2 1_555 1_555
H2_2 O5_2 1_555 1_555
C1_2 O2_2 1_555 1_555
C2_2 C1_2 1_555 1_555
C3_2 C2_2 1_555 1_555
H3_2 C3_2 1_555 1_555
C4_2 C3_2 1_555 1_555
C7_2 C2_2 1_555 1_555
H6_2 C7_2 1_555 1_555
C10_2 H7_2 1_555 1_555
Cd4 O1_2 1_555 1_555
O11_2 Cd3 1_555 1_555
O13_2 Cd3 1_555 1_555
O16_2 Cd3 1_555 1_555
O3_2 C8_2 1_555 1_555
O15 C8_2 1_555 1_555
C8_2 C9_2 1_555 1_555
H9_2 C16_2 1_555 1_555
C17_2 C16_2 1_555 1_555
H10_2 C17_2 1_555 1_555
C21_2 C9_2 1_555 1_555
Cd5 O3_2 1_555 1_555
H4_2 C5_2 1_555 1_555
C6_2 C5_2 1_555 1_555
H5_2 C6_2 1_555 1_555
C19_2 C11_2 1_555 1_555
O8_2 C22_2 1_555 1_555
C22_2 C19_2 1_555 1_555
O17 C22_2 1_555 1_555
Cd8 O8_2 1_555 1_555
O6_2 C12_2 1_555 1_555
O7_2 C12_2 1_555 1_555
C12_2 C13_2 1_555 1_555
C13_2 C14_2 1_555 1_555
C14_2 H8_2 1_555 1_555
C15_2 C14_2 1_555 1_555
C18_2 C13_2 1_555 1_555
H11_2 C18_2 1_555 1_555
H12_2 C20_2 1_555 1_555
Cd6 O6_2 1_555 1_555
O10_2 Cd6 1_555 1_555
H13_2 O10_2 1_555 1_555
H14_2 O10_2 1_555 1_555
Cd7 O6_2 1_555 1_555
O12_2 Cd6 1_555 1_555
O14_2 Cd6 1_555 1_555
O18_2 Cd6 1_555 1_555
O7_2 Cd6 1_555 1_555
Cd4 O11 1_555 1_555
O11 C1_3 1_555 1_555
O2_3 Cd4 1_555 1_555
O5_3 Cd4 1_555 1_555
H1_3 O5_3 1_555 1_555
H2_3 O5_3 1_555 1_555
C1_3 O2_3 1_555 1_555
C2_3 C1_3 1_555 1_555
H5_3 C6_3 1_555 1_555
C7_3 C2_3 1_555 1_555
H6_3 C7_3 1_555 1_555
O16 Cd4 1_555 1_555
C6_3 C7_3 1_555 1_555
O13_2 C8_3 1_555 1_555
O16_2 C8_3 1_555 1_555
H3_3 C3_3 1_555 1_555
C4_3 C3_3 1_555 1_555
C5_3 C4_3 1_555 1_555
H4_3 C5_3 1_555 1_555
C8_3 C9_3 1_555 1_555
C9_3 C10_3 1_555 1_555
C10_3 H7_3 1_555 1_555
C11_3 C4_3 1_555 1_555
O6_3 C12_3 1_555 1_555
O7_3 C12_3 1_555 1_555
C12_3 C13_3 1_555 1_555
C13_3 C14_3 1_555 1_555
C14_3 H8_3 1_555 1_555
C15_3 C14_3 1_555 1_555
C16_3 C15_3 1_555 1_555
H9_3 C16_3 1_555 1_555
C17_3 C16_3 1_555 1_555
H10_3 C17_3 1_555 1_555
C18_3 C13_3 1_555 1_555
H11_3 C18_3 1_555 1_555
C19_3 C11_3 1_555 1_555
C20_3 C19_3 1_555 1_555
H12_3 C20_3 1_555 1_555
C21_3 C9_3 1_555 1_555
O8_3 C22_3 1_555 1_555
C22_3 C19_3 1_555 1_555
O9_2 C22_3 1_555 1_555
Cd2_2 O6_3 1_555 1_555
O10_3 Cd2_2 1_555 1_555
H13_3 O10_3 1_555 1_555
H14_3 O10_3 1_555 1_555
Cd5 O16_2 1_555 1_555
Cd8_2 O6_3 1_555 1_555
O12_3 Cd2_2 1_555 1_555
O14_3 Cd2_2 1_555 1_555
C10_3 C11_3 1_555 1_555
O7_3 Cd2_2 1_555 1_555
C15_3 C21_3 1_555 1_555
C17_3 C18_3 1_555 1_555
C20_3 C21_3 1_555 1_555
Cd5 O11_2 1_555 1_555
O11_2 C1_4 1_555 1_555
O2_4 Cd5 1_555 1_555
O13 C8_4 1_555 1_555
O16 C8_4 1_555 1_555
O5_4 Cd5 1_555 1_555
H1_4 O5_4 1_555 1_555
H2_4 O5_4 1_555 1_555
C1_4 O2_4 1_555 1_555
C2_4 C1_4 1_555 1_555
C3_4 C2_4 1_555 1_555
H3_4 C3_4 1_555 1_555
C4_4 C3_4 1_555 1_555
C5_4 C4_4 1_555 1_555
H4_4 C5_4 1_555 1_555
C6_4 C5_4 1_555 1_555
H5_4 C6_4 1_555 1_555
C7_4 C2_4 1_555 1_555
H6_4 C7_4 1_555 1_555
C8_4 C9_4 1_555 1_555
C9_4 C10_4 1_555 1_555
C10_4 H7_4 1_555 1_555
C11_4 C4_4 1_555 1_555
C14_4 H8_4 1_555 1_555
C15_4 C14_4 1_555 1_555
C16_4 C15_4 1_555 1_555
H9_4 C16_4 1_555 1_555
C19_4 C11_4 1_555 1_555
C20_4 C19_4 1_555 1_555
H12_4 C20_4 1_555 1_555
C21_4 C9_4 1_555 1_555
O8_4 C22_4 1_555 1_555
C22_4 C19_4 1_555 1_555
O17_2 C22_4 1_555 1_555
C6_4 C7_4 1_555 1_555
C10_4 C11_4 1_555 1_555
C15_4 C21_4 1_555 1_555
C20_4 C21_4 1_555 1_555
O6_4 C12_4 1_555 1_555
O7_4 C12_4 1_555 1_555
C12_4 C13_4 1_555 1_555
H10_4 C17_4 1_555 1_555
C18_4 C13_4 1_555 1_555
H11_4 C18_4 1_555 1_555
Cd6_2 O6_4 1_555 1_555
O10_4 Cd6_2 1_555 1_555
H13_4 O10_4 1_555 1_555
H14_4 O10_4 1_555 1_555
Cd7_2 O6_4 1_555 1_555
O12_4 Cd6_2 1_555 1_555
O14_4 Cd6_2 1_555 1_555
O7_4 Cd6_2 1_555 1_555
C17_4 C18_4 1_555 1_555
H4_5 C5_5 1_555 1_555
C6_5 C5_5 1_555 1_555
H5_5 C6_5 1_555 1_555
C19_5 C11_5 1_555 1_555
C22_5 C19_5 1_555 1_555
O18_3 C22_5 1_555 1_555
O7_5 C12_5 1_555 1_555
C12_5 C13_5 1_555 1_555
C13_5 C14_5 1_555 1_555
C14_5 H8_5 1_555 1_555
C15_5 C14_5 1_555 1_555
C18_5 C13_5 1_555 1_555
H11_5 C18_5 1_555 1_555
H12_5 C20_5 1_555 1_555
O10_5 Cd8_2 1_555 1_555
H13_5 O10_5 1_555 1_555
H14_5 O10_5 1_555 1_555
O18_4 Cd8_2 1_555 1_555
O7_5 Cd8_2 1_555 1_555
O2_5 Cd1_2 1_555 1_555
O5_5 Cd1_2 1_555 1_555
H1_5 O5_5 1_555 1_555
H2_5 O5_5 1_555 1_555
C1_5 O2_5 1_555 1_555
C2_5 C1_5 1_555 1_555
C3_5 C2_5 1_555 1_555
H3_5 C3_5 1_555 1_555
C4_5 C3_5 1_555 1_555
C7_5 C2_5 1_555 1_555
H6_5 C7_5 1_555 1_555
C10_5 H7_5 1_555 1_555
O11_3 Cd1_2 1_555 1_555
O15_2 Cd1_2 1_555 1_555
Cd4_2 O3_3 1_555 1_555
Cd5_2 O1_3 1_555 1_555
O4_2 C8_5 1_555 1_555
C8_5 C9_5 1_555 1_555
H9_5 C16_5 1_555 1_555
C17_5 C16_5 1_555 1_555
H10_5 C17_5 1_555 1_555
C21_5 C9_5 1_555 1_555
O15_2 C8_6 1_555 1_555
C8_6 C9_6 1_555 1_555
O7_6 C12_6 1_555 1_555
C12_6 C13_6 1_555 1_555
C13_6 C14_6 1_555 1_555
C14_6 H8_6 1_555 1_555
C15_6 C14_6 1_555 1_555
C16_6 C15_6 1_555 1_555
H9_6 C16_6 1_555 1_555
C17_6 C16_6 1_555 1_555
H10_6 C17_6 1_555 1_555
C18_6 C13_6 1_555 1_555
H11_6 C18_6 1_555 1_555
H12_6 C20_6 1_555 1_555
C21_6 C9_6 1_555 1_555
Cd4_2 O1_4 1_555 1_555
C15_6 C21_6 1_555 1_555
C17_6 C18_6 1_555 1_555
C20_6 C21_6 1_555 1_555
O10_6 Cd7_2 1_555 1_555
H13_6 O10_6 1_555 1_555
H14_6 O10_6 1_555 1_555
O5_6 Cd3_2 1_555 1_555
H1_6 O5_6 1_555 1_555
H2_6 O5_6 1_555 1_555
O11_4 Cd3_2 1_555 1_555
C1_6 O2_6 1_555 1_555
C2_6 C1_6 1_555 1_555
C3_6 C2_6 1_555 1_555
H3_6 C3_6 1_555 1_555
C4_6 C3_6 1_555 1_555
C5_6 C4_6 1_555 1_555
H4_6 C5_6 1_555 1_555
C6_6 C5_6 1_555 1_555
H5_6 C6_6 1_555 1_555
C7_6 C2_6 1_555 1_555
H6_6 C7_6 1_555 1_555
C10_6 H7_6 1_555 1_555
C11_6 C4_6 1_555 1_555
C19_6 C11_6 1_555 1_555
C22_6 C19_6 1_555 1_555
O18_4 C22_6 1_555 1_555
Cd5_2 O3_4 1_555 1_555
C6_6 C7_6 1_555 1_555
C10_6 C11_6 1_555 1_555
Cd4_2 O11_3 1_555 1_555
O11_3 C1_7 1_555 1_555
O2_7 Cd4_2 1_555 1_555
O13_4 C8_7 1_555 1_555
O16_4 C8_7 1_555 1_555
O5_7 Cd4_2 1_555 1_555
H1_7 O5_7 1_555 1_555
H2_7 O5_7 1_555 1_555
C1_7 O2_7 1_555 1_555
C2_7 C1_7 1_555 1_555
C3_7 C2_7 1_555 1_555
H3_7 C3_7 1_555 1_555
C4_7 C3_7 1_555 1_555
C5_7 C4_7 1_555 1_555
H4_7 C5_7 1_555 1_555
C6_7 C5_7 1_555 1_555
H5_7 C6_7 1_555 1_555
C7_7 C2_7 1_555 1_555
H6_7 C7_7 1_555 1_555
C8_7 C9_7 1_555 1_555
C9_7 C10_7 1_555 1_555
C10_7 H7_7 1_555 1_555
C11_7 C4_7 1_555 1_555
C14_7 H8_7 1_555 1_555
C15_7 C14_7 1_555 1_555
C16_7 C15_7 1_555 1_555
H9_7 C16_7 1_555 1_555
C19_7 C11_7 1_555 1_555
C20_7 C19_7 1_555 1_555
H12_7 C20_7 1_555 1_555
C21_7 C9_7 1_555 1_555
O14_2 C22_7 1_555 1_555
C22_7 C19_7 1_555 1_555
O18_2 C22_7 1_555 1_555
Cd8 O18_2 1_555 1_555
C6_7 C7_7 1_555 1_555
C10_7 C11_7 1_555 1_555
C15_7 C21_7 1_555 1_555
C20_7 C21_7 1_555 1_555
O12 C12_7 1_555 1_555
O7_7 C12_7 1_555 1_555
C12_7 C13_7 1_555 1_555
H10_7 C17_7 1_555 1_555
C18_7 C13_7 1_555 1_555
H11_7 C18_7 1_555 1_555
Cd7 O12 1_555 1_555
O10_7 Cd7 1_555 1_555
H13_7 O10_7 1_555 1_555
H14_7 O10_7 1_555 1_555
O18 Cd7 1_555 1_555
O7_7 Cd7 1_555 1_555
C17_7 C18_7 1_555 1_555
Cd5_2 O11_4 1_555 1_555
O11_4 C1_8 1_555 1_555
O2_8 Cd5_2 1_555 1_555
O5_8 Cd5_2 1_555 1_555
H1_8 O5_8 1_555 1_555
H2_8 O5_8 1_555 1_555
C1_8 O2_8 1_555 1_555
C2_8 C1_8 1_555 1_555
H5_8 C6_8 1_555 1_555
C7_8 C2_8 1_555 1_555
H6_8 C7_8 1_555 1_555
C6_8 C7_8 1_555 1_555
O13_3 C8_8 1_555 1_555
O16_3 C8_8 1_555 1_555
H3_8 C3_8 1_555 1_555
C4_8 C3_8 1_555 1_555
C5_8 C4_8 1_555 1_555
H4_8 C5_8 1_555 1_555
C8_8 C9_8 1_555 1_555
C9_8 C10_8 1_555 1_555
C10_8 H7_8 1_555 1_555
C11_8 C4_8 1_555 1_555
O12_2 C12_8 1_555 1_555
O7_8 C12_8 1_555 1_555
C12_8 C13_8 1_555 1_555
C13_8 C14_8 1_555 1_555
C14_8 H8_8 1_555 1_555
C15_8 C14_8 1_555 1_555
C16_8 C15_8 1_555 1_555
H9_8 C16_8 1_555 1_555
C17_8 C16_8 1_555 1_555
H10_8 C17_8 1_555 1_555
C18_8 C13_8 1_555 1_555
H11_8 C18_8 1_555 1_555
C19_8 C11_8 1_555 1_555
C20_8 C19_8 1_555 1_555
H12_8 C20_8 1_555 1_555
C21_8 C9_8 1_555 1_555
O14 C22_8 1_555 1_555
C22_8 C19_8 1_555 1_555
O18 C22_8 1_555 1_555
Cd8 O12_2 1_555 1_555
O10_8 Cd8 1_555 1_555
H13_8 O10_8 1_555 1_555
H14_8 O10_8 1_555 1_555
C10_8 C11_8 1_555 1_555
O7_8 Cd8 1_555 1_555
C15_8 C21_8 1_555 1_555
C17_8 C18_8 1_555 1_555
C20_8 C21_8 1_555 1_555

#END
