
###############################################################################
#
# This file contains modified crystal structure data generated from the
# MOF subset of the Cambridge Structural Database (CSD) v543 
# hosted by the Cambridge Crystallographic Data Centre (CCDC).
#
# This work is licensed under the Creative Commons
# Attribution-NonCommercial-ShareAlike 4.0 International License.
# To view a copy of this license, visit
# http://creativecommons.org/licenses/by-nc-sa/4.0/
# or send a letter to
# Creative Commons, PO Box 1866, Mountain View, CA 94042, USA.
#
# CIF created using the CSD Python API on 29 September 2022
# The structure has been converted into the P1 space group
# The structure has a 3D framework
# The original CSD entry JUYMAU is in the monoclinic crystal system
# The framework has been calculated to contain at least 10.0% void space
# The void calculation uses a probe of radius 1.32A, grid spacing 0.4
# The framework is charged, counterions have been retained in the structure
#
###############################################################################

data_JUYMAU
_chemical_formula_moiety         '(C180 H80 Cd14 O60 8-)n'
_symmetry_cell_setting           triclinic
_symmetry_space_group_name_H-M   'P 1'
_symmetry_Int_Tables_number      1
_space_group_name_Hall           'P 1'
loop_
_symmetry_equiv_pos_site_id
_symmetry_equiv_pos_as_xyz
1 x,y,z
_cell_length_a                   28.160(4)
_cell_length_b                   9.8749(11)
_cell_length_c                   20.631(3)
_cell_angle_alpha                90
_cell_angle_beta                 107.217(13)
_cell_angle_gamma                90
_cell_volume                     5479.94
loop_
_atom_site_label
_atom_site_type_symbol
_atom_site_fract_x
_atom_site_fract_y
_atom_site_fract_z
Cd7 Cd 0.500000 0.06962(12) 0.750000
Cd11 Cd 0.59974(3) 0.06710(8) 0.89720(4)
O19 O 0.0924(3) 0.5468(9) 0.0078(4)
Cd1 Cd -0.000000 0.56962(12) 0.750000
Cd3 Cd 0.09974(3) 0.56710(8) 0.89720(4)
O9 O 0.0734(3) 0.5693(11) 0.7315(4)
O10 O 0.1411(3) 0.5754(8) 0.8223(4)
O11 O 0.1673(3) 0.4451(9) 0.4956(4)
O12 O 0.0924(3) 0.4532(9) 0.5078(4)
O13 O 0.5319(3) 0.2108(7) 0.8426(4)
O14 O 0.5969(3) 0.3126(8) 0.9046(4)
O15 O 0.5281(3) 0.9267(8) 0.8398(4)
O16 O 0.5960(3) 0.8253(8) 0.8959(4)
C23 C 0.1191(5) 0.5705(11) 0.7594(6)
C24 C 0.1521(5) 0.5473(11) 0.7137(6)
C25 C 0.1313(4) 0.5147(11) 0.6466(5)
H11 H 0.096976 0.507914 0.629062
C26 C 0.1609(4) 0.4919(11) 0.6050(6)
C27 C 0.1386(5) 0.4592(12) 0.5316(6)
C28 C 0.2126(4) 0.5000(12) 0.6313(6)
H12 H 0.232574 0.483728 0.603476
C29 C 0.2342(4) 0.5325(12) 0.6995(6)
C30 C 0.2039(4) 0.5566(10) 0.7402(5)
H13 H 0.218017 0.579269 0.785556
C31 C 0.2888(4) 0.5413(11) 0.7291(6)
C32 C 0.3182(5) 0.4477(13) 0.7105(6)
H14 H 0.303451 0.380247 0.679618
C33 C 0.3703(5) 0.4521(12) 0.7371(6)
H15 H 0.389491 0.383386 0.726900
C34 C 0.3936(4) 0.5606(13) 0.7795(6)
C35 C 0.4484(4) 0.5651(12) 0.8075(5)
C36 C 0.4750(4) 0.4423(11) 0.8224(6)
H16 H 0.458596 0.359467 0.813859
C37 C 0.5270(5) 0.4486(13) 0.8506(5)
C38 C 0.5533(4) 0.3154(10) 0.8664(6)
C39 C 0.5515(5) 0.5731(12) 0.8639(5)
H17 H 0.585791 0.575677 0.883126
C40 C 0.5252(5) 0.6909(11) 0.8487(5)
C41 C 0.5510(5) 0.8202(14) 0.8613(6)
C42 C 0.4741(5) 0.6875(12) 0.8205(5)
H18 H 0.456668 0.768483 0.809950
C43 C 0.3624(5) 0.6540(12) 0.7962(7)
H19 H 0.376113 0.725528 0.824976
C44 C 0.3131(5) 0.6431(13) 0.7716(7)
H20 H 0.293867 0.708917 0.784077
Cd12 Cd 0.09974(3) 0.43290(8) 0.39720(4)
O17 O 0.1673(3) 0.5549(9) 0.9956(4)
O22 O 0.0319(3) 0.7108(7) 0.8426(4)
O24 O 0.0969(3) 0.8126(8) 0.9046(4)
O26 O 0.0281(3) 0.4267(8) 0.8398(4)
O28 O 0.0960(3) 0.3253(8) 0.8959(4)
Cd9 Cd 0.40026(3) 0.06710(8) 0.60280(4)
O3 O 0.8327(3) 0.4451(9) 0.0044(4)
Cd13 Cd 0.90026(3) 0.43290(8) 0.10280(4)
Cd1_2 Cd 1.000000 0.56962(12) 0.750000
Cd2 Cd 0.90026(3) 0.56710(8) 0.60280(4)
O1 O 0.9266(3) 0.5693(11) 0.7685(4)
O2 O 0.8589(3) 0.5754(8) 0.6777(4)
O4 O 0.9076(3) 0.4532(9) 0.9922(4)
O5 O 0.4681(3) 0.2108(7) 0.6574(4)
O6 O 0.4031(3) 0.3126(8) 0.5954(4)
O7 O 0.4719(3) 0.9267(8) 0.6602(4)
O8 O 0.4040(3) 0.8253(8) 0.6041(4)
C1 C 0.8809(5) 0.5705(11) 0.7406(6)
C2 C 0.8479(5) 0.5473(11) 0.7863(6)
C3 C 0.8687(4) 0.5147(11) 0.8534(5)
H1 H 0.903024 0.507914 0.870938
C4 C 0.8391(4) 0.4919(11) 0.8950(6)
C5 C 0.8614(5) 0.4592(12) 0.9684(6)
C6 C 0.7874(4) 0.5000(12) 0.8687(6)
H2 H 0.767426 0.483728 0.896524
C7 C 0.7658(4) 0.5325(12) 0.8005(6)
C8 C 0.7961(4) 0.5566(10) 0.7598(5)
H3 H 0.781983 0.579269 0.714444
C9 C 0.7112(4) 0.5413(11) 0.7709(6)
C10 C 0.6818(5) 0.4477(13) 0.7895(6)
H4 H 0.696549 0.380247 0.820382
C11 C 0.6297(5) 0.4521(12) 0.7629(6)
H5 H 0.610509 0.383386 0.773100
C12 C 0.6064(4) 0.5606(13) 0.7205(6)
C13 C 0.5516(4) 0.5651(12) 0.6925(5)
C14 C 0.5250(4) 0.4423(11) 0.6776(6)
H6 H 0.541404 0.359467 0.686141
C15 C 0.4730(5) 0.4486(13) 0.6494(5)
C16 C 0.4467(4) 0.3154(10) 0.6336(6)
C17 C 0.4485(5) 0.5731(12) 0.6361(5)
H7 H 0.414209 0.575677 0.616874
C18 C 0.4748(5) 0.6909(11) 0.6513(5)
C19 C 0.4490(5) 0.8202(14) 0.6387(6)
C20 C 0.5259(5) 0.6875(12) 0.6795(5)
H8 H 0.543332 0.768483 0.690050
C21 C 0.6376(5) 0.6540(12) 0.7038(7)
H9 H 0.623887 0.725528 0.675024
C22 C 0.6869(5) 0.6431(13) 0.7284(7)
H10 H 0.706133 0.708917 0.715923
O18 O 0.8327(3) 0.5549(9) 0.5044(4)
O20 O 0.9076(3) 0.5468(9) 0.4922(4)
O21 O 0.9681(3) 0.7108(7) 0.6574(4)
O23 O 0.9031(3) 0.8126(8) 0.5954(4)
O25 O 0.9719(3) 0.4267(8) 0.6602(4)
O27 O 0.9040(3) 0.3253(8) 0.6041(4)
C39_2 C 0.0515(5) 0.0731(12) 0.8639(5)
H17_2 H 0.085791 0.075677 0.883126
C40_2 C 0.0252(5) 0.1909(11) 0.8487(5)
C41_2 C 0.0510(5) 0.3202(14) 0.8613(6)
C37_2 C 0.0270(5) 0.9486(13) 0.8506(5)
C38_2 C 0.0533(4) 0.8154(10) 0.8664(6)
O19_2 O 0.5924(3) 0.0468(9) 0.0078(4)
O1_2 O 0.4266(3) 0.0693(11) 0.7685(4)
O2_2 O 0.3589(3) 0.0754(8) 0.6777(4)
C1_2 C 0.3809(5) 0.0705(11) 0.7406(6)
C2_2 C 0.3479(5) 0.0473(11) 0.7863(6)
C3_2 C 0.3687(4) 0.0147(11) 0.8534(5)
H1_2 H 0.403024 0.007914 0.870938
C6_2 C 0.2874(4) 0.0000(12) 0.8687(6)
C7_2 C 0.2658(4) 0.0325(12) 0.8005(6)
C8_2 C 0.2961(4) 0.0566(10) 0.7598(5)
H3_2 H 0.281983 0.079269 0.714444
C9_2 C 0.2112(4) 0.0413(11) 0.7709(6)
C12_2 C 0.1064(4) 0.0606(13) 0.7205(6)
C13_2 C 0.0516(4) 0.0651(12) 0.6925(5)
C20_2 C 0.0259(5) 0.1875(12) 0.6795(5)
H8_2 H 0.043332 0.268483 0.690050
C21_2 C 0.1376(5) 0.1540(12) 0.7038(7)
H9_2 H 0.123887 0.225528 0.675024
C22_2 C 0.1869(5) 0.1431(13) 0.7284(7)
H10_2 H 0.206133 0.208917 0.715923
O9_2 O 0.5734(3) 0.0693(11) 0.7315(4)
O10_2 O 0.6411(3) 0.0754(8) 0.8223(4)
C23_2 C 0.6191(5) 0.0705(11) 0.7594(6)
C24_2 C 0.6521(5) 0.0473(11) 0.7137(6)
C25_2 C 0.6313(4) 0.0147(11) 0.6466(5)
H11_2 H 0.596976 0.007914 0.629062
C28_2 C 0.7126(4) 0.0000(12) 0.6313(6)
C29_2 C 0.7342(4) 0.0325(12) 0.6995(6)
C30_2 C 0.7039(4) 0.0566(10) 0.7402(5)
H13_2 H 0.718017 0.079269 0.785556
C31_2 C 0.7888(4) 0.0413(11) 0.7291(6)
C34_2 C 0.8936(4) 0.0606(13) 0.7795(6)
C35_2 C 0.9484(4) 0.0651(12) 0.8075(5)
C42_2 C 0.9741(5) 0.1875(12) 0.8205(5)
H18_2 H 0.956668 0.268483 0.809950
C43_2 C 0.8624(5) 0.1540(12) 0.7962(7)
H19_2 H 0.876113 0.225528 0.824976
C44_2 C 0.8131(5) 0.1431(13) 0.7716(7)
H20_2 H 0.793867 0.208917 0.784077
O17_2 O 0.6673(3) 0.0549(9) 0.9956(4)
O18_2 O 0.3327(3) 0.0549(9) 0.5044(4)
O20_2 O 0.4076(3) 0.0468(9) 0.4922(4)
O3_2 O 0.3327(3) 0.9451(9) 0.0044(4)
Cd13_2 Cd 0.40026(3) 0.93290(8) 0.10280(4)
O4_2 O 0.4076(3) 0.9532(9) 0.9922(4)
C4_2 C 0.3391(4) 0.9919(11) 0.8950(6)
C5_2 C 0.3614(5) 0.9592(12) 0.9684(6)
C6_3 C 0.2874(4) 1.0000(12) 0.8687(6)
H2_2 H 0.267426 0.983728 0.896524
C10_2 C 0.1818(5) 0.9477(13) 0.7895(6)
H4_2 H 0.196549 0.880247 0.820382
C11_2 C 0.1297(5) 0.9521(12) 0.7629(6)
H5_2 H 0.110509 0.883386 0.773100
C14_2 C 0.0250(4) 0.9423(11) 0.6776(6)
H6_2 H 0.041404 0.859467 0.686141
O11_2 O 0.6673(3) 0.9451(9) 0.4956(4)
O12_2 O 0.5924(3) 0.9532(9) 0.5078(4)
C26_2 C 0.6609(4) 0.9919(11) 0.6050(6)
C27_2 C 0.6386(5) 0.9592(12) 0.5316(6)
C28_3 C 0.7126(4) 1.0000(12) 0.6313(6)
H12_2 H 0.732574 0.983728 0.603476
C32_2 C 0.8182(5) 0.9477(13) 0.7105(6)
H14_2 H 0.803451 0.880247 0.679618
C33_2 C 0.8703(5) 0.9521(12) 0.7371(6)
H15_2 H 0.889491 0.883386 0.726900
C36_2 C 0.9750(4) 0.9423(11) 0.8224(6)
H16_2 H 0.958596 0.859467 0.813859
Cd12_2 Cd 0.59974(3) 0.93290(8) 0.39720(4)
C17_2 C 0.9485(5) 0.0731(12) 0.6361(5)
H7_2 H 0.914209 0.075677 0.616874
C18_2 C 0.9748(5) 0.1909(11) 0.6513(5)
C19_2 C 0.9490(5) 0.3202(14) 0.6387(6)
C15_2 C 0.9730(5) 0.9486(13) 0.6494(5)
C16_2 C 0.9467(4) 0.8154(10) 0.6336(6)
Cd1_3 Cd 0.000000 0.43038(12) 0.250000
O1_3 O 0.0734(3) 0.4307(11) 0.2315(4)
O2_3 O 0.1411(3) 0.4246(8) 0.3223(4)
O5_2 O 0.5319(3) 0.7892(7) 0.3426(4)
O6_2 O 0.5969(3) 0.6874(8) 0.4046(4)
O7_2 O 0.5281(3) 0.0733(8) 0.3398(4)
O8_2 O 0.5960(3) 0.1747(8) 0.3959(4)
C1_3 C 0.1191(5) 0.4295(11) 0.2594(6)
C2_3 C 0.1521(5) 0.4527(11) 0.2137(6)
C3_3 C 0.1313(4) 0.4853(11) 0.1466(5)
H1_3 H 0.096976 0.492086 0.129062
C4_3 C 0.1609(4) 0.5081(11) 0.1050(6)
C5_3 C 0.1386(5) 0.5408(12) 0.0316(6)
C6_4 C 0.2126(4) 0.5000(12) 0.1313(6)
H2_3 H 0.232574 0.516272 0.103476
C7_3 C 0.2342(4) 0.4675(12) 0.1995(6)
C8_3 C 0.2039(4) 0.4434(10) 0.2402(5)
H3_3 H 0.218017 0.420731 0.285556
C9_3 C 0.2888(4) 0.4587(11) 0.2291(6)
C10_3 C 0.3182(5) 0.5523(13) 0.2105(6)
H4_3 H 0.303451 0.619753 0.179618
C11_3 C 0.3703(5) 0.5479(12) 0.2371(6)
H5_3 H 0.389491 0.616614 0.226900
C12_3 C 0.3936(4) 0.4394(13) 0.2795(6)
C13_3 C 0.4484(4) 0.4349(12) 0.3075(5)
C14_3 C 0.4750(4) 0.5577(11) 0.3224(6)
H6_3 H 0.458596 0.640533 0.313859
C15_3 C 0.5270(5) 0.5514(13) 0.3506(5)
C16_3 C 0.5533(4) 0.6846(10) 0.3664(6)
C17_3 C 0.5515(5) 0.4269(12) 0.3639(5)
H7_3 H 0.585791 0.424323 0.383126
C18_3 C 0.5252(5) 0.3091(11) 0.3487(5)
C19_3 C 0.5510(5) 0.1798(14) 0.3613(6)
C20_3 C 0.4741(5) 0.3125(12) 0.3205(5)
H8_3 H 0.456668 0.231517 0.309950
C21_3 C 0.3624(5) 0.3460(12) 0.2962(7)
H9_3 H 0.376113 0.274472 0.324976
C22_3 C 0.3131(5) 0.3569(13) 0.2716(7)
H10_3 H 0.293867 0.291083 0.284077
Cd4 Cd 0.500000 0.93038(12) 0.250000
O21_2 O 0.0319(3) 0.2892(7) 0.3426(4)
O23_2 O 0.0969(3) 0.1874(8) 0.4046(4)
O25_2 O 0.0281(3) 0.5733(8) 0.3398(4)
O27_2 O 0.0960(3) 0.6747(8) 0.3959(4)
Cd1_4 Cd 1.000000 0.43038(12) 0.250000
O9_3 O 0.9266(3) 0.4307(11) 0.2685(4)
O10_3 O 0.8589(3) 0.4246(8) 0.1777(4)
O13_2 O 0.4681(3) 0.7892(7) 0.1574(4)
O14_2 O 0.4031(3) 0.6874(8) 0.0954(4)
O15_2 O 0.4719(3) 0.0733(8) 0.1602(4)
O16_2 O 0.4040(3) 0.1747(8) 0.1041(4)
C23_3 C 0.8809(5) 0.4295(11) 0.2406(6)
C24_3 C 0.8479(5) 0.4527(11) 0.2863(6)
C25_3 C 0.8687(4) 0.4853(11) 0.3534(5)
H11_3 H 0.903024 0.492086 0.370938
C26_3 C 0.8391(4) 0.5081(11) 0.3950(6)
C27_3 C 0.8614(5) 0.5408(12) 0.4684(6)
C28_4 C 0.7874(4) 0.5000(12) 0.3687(6)
H12_3 H 0.767426 0.516272 0.396524
C29_3 C 0.7658(4) 0.4675(12) 0.3005(6)
C30_3 C 0.7961(4) 0.4434(10) 0.2598(5)
H13_3 H 0.781983 0.420731 0.214444
C31_3 C 0.7112(4) 0.4587(11) 0.2709(6)
C32_3 C 0.6818(5) 0.5523(13) 0.2895(6)
H14_3 H 0.696549 0.619753 0.320382
C33_3 C 0.6297(5) 0.5479(12) 0.2629(6)
H15_3 H 0.610509 0.616614 0.273100
C34_3 C 0.6064(4) 0.4394(13) 0.2205(6)
C35_3 C 0.5516(4) 0.4349(12) 0.1925(5)
C36_3 C 0.5250(4) 0.5577(11) 0.1776(6)
H16_3 H 0.541404 0.640533 0.186141
C37_3 C 0.4730(5) 0.5514(13) 0.1494(5)
C38_3 C 0.4467(4) 0.6846(10) 0.1336(6)
C39_3 C 0.4485(5) 0.4269(12) 0.1361(5)
H17_3 H 0.414209 0.424323 0.116874
C40_3 C 0.4748(5) 0.3091(11) 0.1513(5)
C41_3 C 0.4490(5) 0.1798(14) 0.1387(6)
C42_3 C 0.5259(5) 0.3125(12) 0.1795(5)
H18_3 H 0.543332 0.231517 0.190050
C43_3 C 0.6376(5) 0.3460(12) 0.2038(7)
H19_3 H 0.623887 0.274472 0.175024
C44_3 C 0.6869(5) 0.3569(13) 0.2284(7)
H20_3 H 0.706133 0.291083 0.215923
O22_2 O 0.9681(3) 0.2892(7) 0.1574(4)
O24_2 O 0.9031(3) 0.1874(8) 0.0954(4)
O26_2 O 0.9719(3) 0.5733(8) 0.1602(4)
O28_2 O 0.9040(3) 0.6747(8) 0.1041(4)
C15_4 C 0.0270(5) 0.0514(13) 0.3506(5)
C16_4 C 0.0533(4) 0.1846(10) 0.3664(6)
C17_4 C 0.0515(5) 0.9269(12) 0.3639(5)
H7_4 H 0.085791 0.924323 0.383126
C18_4 C 0.0252(5) 0.8091(11) 0.3487(5)
C19_4 C 0.0510(5) 0.6798(14) 0.3613(6)
C4_4 C 0.6609(4) 0.0081(11) 0.1050(6)
C5_4 C 0.6386(5) 0.0408(12) 0.0316(6)
C6_5 C 0.7126(4) -0.0000(12) 0.1313(6)
H2_4 H 0.732574 0.016272 0.103476
C10_4 C 0.8182(5) 0.0523(13) 0.2105(6)
H4_4 H 0.803451 0.119753 0.179618
C11_4 C 0.8703(5) 0.0479(12) 0.2371(6)
H5_4 H 0.889491 0.116614 0.226900
C14_4 C 0.9750(4) 0.0577(11) 0.3224(6)
H6_4 H 0.958596 0.140533 0.313859
C26_4 C 0.3391(4) 0.0081(11) 0.3950(6)
C27_4 C 0.3614(5) 0.0408(12) 0.4684(6)
C28_5 C 0.2874(4) 0.0000(12) 0.3687(6)
H12_4 H 0.267426 0.016272 0.396524
C32_4 C 0.1818(5) 0.0523(13) 0.2895(6)
H14_4 H 0.196549 0.119753 0.320382
C33_4 C 0.1297(5) 0.0479(12) 0.2629(6)
H15_4 H 0.110509 0.116614 0.273100
C36_4 C 0.0250(4) 0.0577(11) 0.1776(6)
H16_4 H 0.041404 0.140533 0.186141
O1_4 O 0.5734(3) 0.9307(11) 0.2315(4)
O2_4 O 0.6411(3) 0.9246(8) 0.3223(4)
C1_4 C 0.6191(5) 0.9295(11) 0.2594(6)
C2_4 C 0.6521(5) 0.9527(11) 0.2137(6)
C3_4 C 0.6313(4) 0.9853(11) 0.1466(5)
H1_4 H 0.596976 0.992086 0.129062
C6_6 C 0.7126(4) 1.0000(12) 0.1313(6)
C7_4 C 0.7342(4) 0.9675(12) 0.1995(6)
C8_4 C 0.7039(4) 0.9434(10) 0.2402(5)
H3_4 H 0.718017 0.920731 0.285556
C9_4 C 0.7888(4) 0.9587(11) 0.2291(6)
C12_4 C 0.8936(4) 0.9394(13) 0.2795(6)
C13_4 C 0.9484(4) 0.9349(12) 0.3075(5)
C20_4 C 0.9741(5) 0.8125(12) 0.3205(5)
H8_4 H 0.956668 0.731517 0.309950
C21_4 C 0.8624(5) 0.8460(12) 0.2962(7)
H9_4 H 0.876113 0.774472 0.324976
C22_4 C 0.8131(5) 0.8569(13) 0.2716(7)
H10_4 H 0.793867 0.791083 0.284077
O9_4 O 0.4266(3) 0.9307(11) 0.2685(4)
O10_4 O 0.3589(3) 0.9246(8) 0.1777(4)
C23_4 C 0.3809(5) 0.9295(11) 0.2406(6)
C24_4 C 0.3479(5) 0.9527(11) 0.2863(6)
C25_4 C 0.3687(4) 0.9853(11) 0.3534(5)
H11_4 H 0.403024 0.992086 0.370938
C28_6 C 0.2874(4) 1.0000(12) 0.3687(6)
C29_4 C 0.2658(4) 0.9675(12) 0.3005(6)
C30_4 C 0.2961(4) 0.9434(10) 0.2598(5)
H13_4 H 0.281983 0.920731 0.214444
C31_4 C 0.2112(4) 0.9587(11) 0.2709(6)
C34_4 C 0.1064(4) 0.9394(13) 0.2205(6)
C35_4 C 0.0516(4) 0.9349(12) 0.1925(5)
C42_4 C 0.0259(5) 0.8125(12) 0.1795(5)
H18_4 H 0.043332 0.731517 0.190050
C43_4 C 0.1376(5) 0.8460(12) 0.2038(7)
H19_4 H 0.123887 0.774472 0.175024
C44_4 C 0.1869(5) 0.8569(13) 0.2284(7)
H20_4 H 0.206133 0.791083 0.215923
C37_4 C 0.9730(5) 0.0514(13) 0.1494(5)
C38_4 C 0.9467(4) 0.1846(10) 0.1336(6)
C39_4 C 0.9485(5) 0.9269(12) 0.1361(5)
H17_4 H 0.914209 0.924323 0.116874
C40_4 C 0.9748(5) 0.8091(11) 0.1513(5)
C41_4 C 0.9490(5) 0.6798(14) 0.1387(6)
loop_
_geom_bond_atom_site_label_1
_geom_bond_atom_site_label_2
_geom_bond_site_symmetry_1
_geom_bond_site_symmetry_2
Cd3 O10 1_555 1_555
O9 Cd1 1_555 1_555
O10 C23 1_555 1_555
O11 C27 1_555 1_555
O12 C27 1_555 1_555
O13 C38 1_555 1_555
O14 C38 1_555 1_555
O15 C41 1_555 1_555
O16 C41 1_555 1_555
C23 O9 1_555 1_555
C24 C23 1_555 1_555
C25 C24 1_555 1_555
H11 C25 1_555 1_555
C26 C25 1_555 1_555
C27 C26 1_555 1_555
C28 C26 1_555 1_555
H12 C28 1_555 1_555
C29 C28 1_555 1_555
C30 C24 1_555 1_555
H13 C30 1_555 1_555
C31 C29 1_555 1_555
C32 C31 1_555 1_555
H14 C32 1_555 1_555
C33 C32 1_555 1_555
H15 C33 1_555 1_555
C34 C33 1_555 1_555
C35 C34 1_555 1_555
C36 C35 1_555 1_555
H16 C36 1_555 1_555
C37 C36 1_555 1_555
C38 C37 1_555 1_555
C39 C37 1_555 1_555
H17 C39 1_555 1_555
C40 C39 1_555 1_555
C41 C40 1_555 1_555
C42 C35 1_555 1_555
H18 C42 1_555 1_555
C43 C34 1_555 1_555
H19 C43 1_555 1_555
C44 C31 1_555 1_555
H20 C44 1_555 1_555
Cd7 O13 1_555 1_555
Cd11 O13 1_555 1_555
Cd12 O11 1_555 1_555
O17 Cd3 1_555 1_555
O22 Cd1 1_555 1_555
O24 Cd3 1_555 1_555
O26 Cd1 1_555 1_555
O28 Cd3 1_555 1_555
Cd3 O22 1_555 1_555
Cd3 O26 1_555 1_555
O12 Cd12 1_555 1_555
O14 Cd11 1_555 1_555
C29 C30 1_555 1_555
C40 C42 1_555 1_555
C43 C44 1_555 1_555
Cd13 O3 1_555 1_555
Cd1_2 O1 1_555 1_555
Cd2 O2 1_555 1_555
O1 C1 1_555 1_555
O2 C1 1_555 1_555
O4 C5 1_555 1_555
O5 C16 1_555 1_555
O6 C16 1_555 1_555
O7 C19 1_555 1_555
O8 C19 1_555 1_555
C1 C2 1_555 1_555
C2 C3 1_555 1_555
C3 H1 1_555 1_555
C4 C3 1_555 1_555
C5 C4 1_555 1_555
C6 C4 1_555 1_555
H2 C6 1_555 1_555
C7 C6 1_555 1_555
C8 C2 1_555 1_555
H3 C8 1_555 1_555
C9 C7 1_555 1_555
C10 C9 1_555 1_555
H4 C10 1_555 1_555
C11 C10 1_555 1_555
H5 C11 1_555 1_555
C12 C11 1_555 1_555
C13 C12 1_555 1_555
C14 C13 1_555 1_555
H6 C14 1_555 1_555
C15 C14 1_555 1_555
C16 C15 1_555 1_555
C17 C15 1_555 1_555
H7 C17 1_555 1_555
C18 C17 1_555 1_555
C19 C18 1_555 1_555
C20 C13 1_555 1_555
H8 C20 1_555 1_555
C21 C12 1_555 1_555
H9 C21 1_555 1_555
C22 C9 1_555 1_555
H10 C22 1_555 1_555
Cd7 O5 1_555 1_555
Cd9 O5 1_555 1_555
O18 Cd2 1_555 1_555
O20 Cd2 1_555 1_555
O21 Cd1_2 1_555 1_555
O23 Cd2 1_555 1_555
O25 Cd1_2 1_555 1_555
O27 Cd2 1_555 1_555
Cd2 O21 1_555 1_555
Cd2 O25 1_555 1_555
O6 Cd9 1_555 1_555
C7 C8 1_555 1_555
C18 C20 1_555 1_555
C21 C22 1_555 1_555
O26 C41_2 1_555 1_555
O28 C41_2 1_555 1_555
H17_2 C39_2 1_555 1_555
C40_2 C39_2 1_555 1_555
C41_2 C40_2 1_555 1_555
O22 C38_2 1_555 1_555
O24 C38_2 1_555 1_555
C38_2 C37_2 1_555 1_555
Cd7 O1_2 1_555 1_555
Cd9 O2_2 1_555 1_555
O1_2 C1_2 1_555 1_555
O2_2 C1_2 1_555 1_555
C1_2 C2_2 1_555 1_555
C2_2 C3_2 1_555 1_555
C3_2 H1_2 1_555 1_555
C7_2 C6_2 1_555 1_555
C8_2 C2_2 1_555 1_555
H3_2 C8_2 1_555 1_555
C9_2 C7_2 1_555 1_555
C13_2 C12_2 1_555 1_555
C20_2 C13_2 1_555 1_555
H8_2 C20_2 1_555 1_555
C21_2 C12_2 1_555 1_555
H9_2 C21_2 1_555 1_555
C22_2 C9_2 1_555 1_555
H10_2 C22_2 1_555 1_555
Cd11 O10_2 1_555 1_555
O9_2 Cd7 1_555 1_555
O10_2 C23_2 1_555 1_555
C23_2 O9_2 1_555 1_555
C24_2 C23_2 1_555 1_555
C25_2 C24_2 1_555 1_555
H11_2 C25_2 1_555 1_555
C29_2 C28_2 1_555 1_555
C30_2 C24_2 1_555 1_555
H13_2 C30_2 1_555 1_555
C31_2 C29_2 1_555 1_555
C35_2 C34_2 1_555 1_555
C42_2 C35_2 1_555 1_555
H18_2 C42_2 1_555 1_555
C43_2 C34_2 1_555 1_555
H19_2 C43_2 1_555 1_555
C44_2 C31_2 1_555 1_555
H20_2 C44_2 1_555 1_555
O17_2 Cd11 1_555 1_555
O18_2 Cd9 1_555 1_555
O20_2 Cd9 1_555 1_555
C7_2 C8_2 1_555 1_555
C21_2 C22_2 1_555 1_555
C29_2 C30_2 1_555 1_555
C43_2 C44_2 1_555 1_555
Cd13_2 O3_2 1_555 1_555
O4_2 C5_2 1_555 1_555
C5_2 C4_2 1_555 1_555
C6_3 C4_2 1_555 1_555
H2_2 C6_3 1_555 1_555
H4_2 C10_2 1_555 1_555
C11_2 C10_2 1_555 1_555
H5_2 C11_2 1_555 1_555
H6_2 C14_2 1_555 1_555
O11_2 C27_2 1_555 1_555
O12_2 C27_2 1_555 1_555
C27_2 C26_2 1_555 1_555
C28_3 C26_2 1_555 1_555
H12_2 C28_3 1_555 1_555
H14_2 C32_2 1_555 1_555
C33_2 C32_2 1_555 1_555
H15_2 C33_2 1_555 1_555
H16_2 C36_2 1_555 1_555
Cd12_2 O11_2 1_555 1_555
O12_2 Cd12_2 1_555 1_555
O25 C19_2 1_555 1_555
O27 C19_2 1_555 1_555
H7_2 C17_2 1_555 1_555
C18_2 C17_2 1_555 1_555
C19_2 C18_2 1_555 1_555
O21 C16_2 1_555 1_555
O23 C16_2 1_555 1_555
C16_2 C15_2 1_555 1_555
Cd1_3 O1_3 1_555 1_555
Cd12 O2_3 1_555 1_555
O1_3 C1_3 1_555 1_555
O2_3 C1_3 1_555 1_555
O19 C5_3 1_555 1_555
O5_2 C16_3 1_555 1_555
O6_2 C16_3 1_555 1_555
O7_2 C19_3 1_555 1_555
O8_2 C19_3 1_555 1_555
C1_3 C2_3 1_555 1_555
C2_3 C3_3 1_555 1_555
C3_3 H1_3 1_555 1_555
C4_3 C3_3 1_555 1_555
C5_3 C4_3 1_555 1_555
C6_4 C4_3 1_555 1_555
H2_3 C6_4 1_555 1_555
C7_3 C6_4 1_555 1_555
C8_3 C2_3 1_555 1_555
H3_3 C8_3 1_555 1_555
C9_3 C7_3 1_555 1_555
C10_3 C9_3 1_555 1_555
H4_3 C10_3 1_555 1_555
C11_3 C10_3 1_555 1_555
H5_3 C11_3 1_555 1_555
C12_3 C11_3 1_555 1_555
C13_3 C12_3 1_555 1_555
C14_3 C13_3 1_555 1_555
H6_3 C14_3 1_555 1_555
C15_3 C14_3 1_555 1_555
C16_3 C15_3 1_555 1_555
C17_3 C15_3 1_555 1_555
H7_3 C17_3 1_555 1_555
C18_3 C17_3 1_555 1_555
C19_3 C18_3 1_555 1_555
C20_3 C13_3 1_555 1_555
H8_3 C20_3 1_555 1_555
C21_3 C12_3 1_555 1_555
H9_3 C21_3 1_555 1_555
C22_3 C9_3 1_555 1_555
H10_3 C22_3 1_555 1_555
Cd4 O5_2 1_555 1_555
Cd12_2 O5_2 1_555 1_555
O21_2 Cd1_3 1_555 1_555
O23_2 Cd12 1_555 1_555
O25_2 Cd1_3 1_555 1_555
O27_2 Cd12 1_555 1_555
Cd12 O21_2 1_555 1_555
Cd12 O25_2 1_555 1_555
O6_2 Cd12_2 1_555 1_555
C7_3 C8_3 1_555 1_555
C18_3 C20_3 1_555 1_555
C21_3 C22_3 1_555 1_555
Cd13 O10_3 1_555 1_555
O9_3 Cd1_4 1_555 1_555
O10_3 C23_3 1_555 1_555
O18 C27_3 1_555 1_555
O20 C27_3 1_555 1_555
O13_2 C38_3 1_555 1_555
O14_2 C38_3 1_555 1_555
O15_2 C41_3 1_555 1_555
O16_2 C41_3 1_555 1_555
C23_3 O9_3 1_555 1_555
C24_3 C23_3 1_555 1_555
C25_3 C24_3 1_555 1_555
H11_3 C25_3 1_555 1_555
C26_3 C25_3 1_555 1_555
C27_3 C26_3 1_555 1_555
C28_4 C26_3 1_555 1_555
H12_3 C28_4 1_555 1_555
C29_3 C28_4 1_555 1_555
C30_3 C24_3 1_555 1_555
H13_3 C30_3 1_555 1_555
C31_3 C29_3 1_555 1_555
C32_3 C31_3 1_555 1_555
H14_3 C32_3 1_555 1_555
C33_3 C32_3 1_555 1_555
H15_3 C33_3 1_555 1_555
C34_3 C33_3 1_555 1_555
C35_3 C34_3 1_555 1_555
C36_3 C35_3 1_555 1_555
H16_3 C36_3 1_555 1_555
C37_3 C36_3 1_555 1_555
C38_3 C37_3 1_555 1_555
C39_3 C37_3 1_555 1_555
H17_3 C39_3 1_555 1_555
C40_3 C39_3 1_555 1_555
C41_3 C40_3 1_555 1_555
C42_3 C35_3 1_555 1_555
H18_3 C42_3 1_555 1_555
C43_3 C34_3 1_555 1_555
H19_3 C43_3 1_555 1_555
C44_3 C31_3 1_555 1_555
H20_3 C44_3 1_555 1_555
Cd4 O13_2 1_555 1_555
Cd13_2 O13_2 1_555 1_555
O22_2 Cd1_4 1_555 1_555
O24_2 Cd13 1_555 1_555
O26_2 Cd1_4 1_555 1_555
O28_2 Cd13 1_555 1_555
Cd13 O22_2 1_555 1_555
Cd13 O26_2 1_555 1_555
O14_2 Cd13_2 1_555 1_555
C29_3 C30_3 1_555 1_555
C40_3 C42_3 1_555 1_555
C43_3 C44_3 1_555 1_555
O21_2 C16_4 1_555 1_555
O23_2 C16_4 1_555 1_555
C16_4 C15_4 1_555 1_555
O25_2 C19_4 1_555 1_555
O27_2 C19_4 1_555 1_555
H7_4 C17_4 1_555 1_555
C18_4 C17_4 1_555 1_555
C19_4 C18_4 1_555 1_555
O19_2 C5_4 1_555 1_555
C5_4 C4_4 1_555 1_555
C6_5 C4_4 1_555 1_555
H2_4 C6_5 1_555 1_555
H4_4 C10_4 1_555 1_555
C11_4 C10_4 1_555 1_555
H5_4 C11_4 1_555 1_555
H6_4 C14_4 1_555 1_555
O18_2 C27_4 1_555 1_555
O20_2 C27_4 1_555 1_555
C27_4 C26_4 1_555 1_555
C28_5 C26_4 1_555 1_555
H12_4 C28_5 1_555 1_555
H14_4 C32_4 1_555 1_555
C33_4 C32_4 1_555 1_555
H15_4 C33_4 1_555 1_555
H16_4 C36_4 1_555 1_555
Cd4 O1_4 1_555 1_555
Cd12_2 O2_4 1_555 1_555
O1_4 C1_4 1_555 1_555
O2_4 C1_4 1_555 1_555
C1_4 C2_4 1_555 1_555
C2_4 C3_4 1_555 1_555
C3_4 H1_4 1_555 1_555
C7_4 C6_6 1_555 1_555
C8_4 C2_4 1_555 1_555
H3_4 C8_4 1_555 1_555
C9_4 C7_4 1_555 1_555
C13_4 C12_4 1_555 1_555
C20_4 C13_4 1_555 1_555
H8_4 C20_4 1_555 1_555
C21_4 C12_4 1_555 1_555
H9_4 C21_4 1_555 1_555
C22_4 C9_4 1_555 1_555
H10_4 C22_4 1_555 1_555
Cd13_2 O10_4 1_555 1_555
O9_4 Cd4 1_555 1_555
O10_4 C23_4 1_555 1_555
C23_4 O9_4 1_555 1_555
C24_4 C23_4 1_555 1_555
C25_4 C24_4 1_555 1_555
H11_4 C25_4 1_555 1_555
C29_4 C28_6 1_555 1_555
C30_4 C24_4 1_555 1_555
H13_4 C30_4 1_555 1_555
C31_4 C29_4 1_555 1_555
C35_4 C34_4 1_555 1_555
C42_4 C35_4 1_555 1_555
H18_4 C42_4 1_555 1_555
C43_4 C34_4 1_555 1_555
H19_4 C43_4 1_555 1_555
C44_4 C31_4 1_555 1_555
H20_4 C44_4 1_555 1_555
C7_4 C8_4 1_555 1_555
C21_4 C22_4 1_555 1_555
C29_4 C30_4 1_555 1_555
C43_4 C44_4 1_555 1_555
O22_2 C38_4 1_555 1_555
O24_2 C38_4 1_555 1_555
C38_4 C37_4 1_555 1_555
O26_2 C41_4 1_555 1_555
O28_2 C41_4 1_555 1_555
H17_4 C39_4 1_555 1_555
C40_4 C39_4 1_555 1_555
C41_4 C40_4 1_555 1_555

#END
