
###############################################################################
#
# This file contains modified crystal structure data generated from the
# MOF subset of the Cambridge Structural Database (CSD) v543 
# hosted by the Cambridge Crystallographic Data Centre (CCDC).
#
# This work is licensed under the Creative Commons
# Attribution-NonCommercial-ShareAlike 4.0 International License.
# To view a copy of this license, visit
# http://creativecommons.org/licenses/by-nc-sa/4.0/
# or send a letter to
# Creative Commons, PO Box 1866, Mountain View, CA 94042, USA.
#
# CIF created using the CSD Python API on 29 September 2022
# The structure has been converted into the P1 space group
# The structure has a 3D framework
# The original CSD entry JUZXAD01 is in the orthorhombic crystal system
# The original CSD entry JUZXAD01 is in a Sohncke space group
# The framework has been calculated to contain at least 10.0% void space
# The void calculation uses a probe of radius 1.32A, grid spacing 0.4
# H atom positions have been added when not included in the experimental data
#
###############################################################################

data_JUZXAD01
_chemical_formula_moiety         '(C48 H40 Cu3 N16 O24 S4)n'
_symmetry_cell_setting           triclinic
_symmetry_space_group_name_H-M   'P 1'
_symmetry_Int_Tables_number      1
_space_group_name_Hall           'P 1'
loop_
_symmetry_equiv_pos_site_id
_symmetry_equiv_pos_as_xyz
1 x,y,z
_cell_length_a                   5.5102(19)
_cell_length_b                   10.576(4)
_cell_length_c                   28.344(10)
_cell_angle_alpha                90
_cell_angle_beta                 90
_cell_angle_gamma                90
_cell_volume                     1651.77
loop_
_atom_site_label
_atom_site_type_symbol
_atom_site_fract_x
_atom_site_fract_y
_atom_site_fract_z
Cu3 Cu 0.26835(10) 0.02103(5) 0.740248(18)
S1 S 0.1606(2) 0.71187(13) 0.78756(4)
O2 O 0.0580(5) 0.5998(3) 0.76067(12)
O3 O 0.0892(6) 0.7061(4) 0.83681(12)
O4 O 0.4312(5) 0.7000(4) 0.78290(12)
O5 O 0.0737(5) 0.8286(3) 0.76491(12)
H1 H 0.0743 0.3737 0.8158
C2 C 0.0499(9) 0.3844(5) 0.88518(17)
H2 H 0.1932 0.3411 0.8915
N2 N 0.1997(8) 0.3593(4) 0.98225(13)
Cu2 Cu 0.73165(10) 0.52103(5) 0.759752(18)
O1 O 0.8478(5) 0.4326(3) 0.00876(11)
C7 C 0.9924(9) 0.3954(5) 0.04557(17)
N4 N 0.8090(7) 0.4301(3) 0.19038(12)
C8 C 0.9152(9) 0.4052(5) 0.09408(17)
C9 C 0.7011(9) 0.4635(5) 0.10883(15)
H5 H 0.5903 0.4941 0.0869
C10 C 0.6563(8) 0.4751(5) 0.15684(15)
H6 H 0.5149 0.5156 0.1664
Cu4 Cu 0.76835(10) 0.47897(5) 0.259752(18)
N1 N 0.7760(7) 0.4716(4) 0.82813(11)
O6 O 0.4255(5) 0.4205(3) 0.75771(11)
C1 C 0.9787(9) 0.4059(5) 0.83998(16)
C3 C 0.9034(9) 0.4286(5) 0.92212(16)
C4 C 0.6901(9) 0.4919(5) 0.91114(15)
H3 H 0.5869 0.5203 0.9348
C5 C 0.6342(8) 0.5120(5) 0.86358(16)
H4 H 0.4923 0.5554 0.8562
C6 C 0.9904(10) 0.4064(5) 0.97039(17)
O8 O 0.9263(5) 0.3286(3) 0.73509(12)
N5 N 0.6910(7) 0.5699(3) 0.69038(12)
H9 H 0.309261 0.454427 0.7813
H10 H 0.353051 0.426338 0.725706
O6_2 O 0.0745(5) 0.5795(3) 0.25771(11)
H4_2 H 0.0077 0.4446 0.3562
O7 O 0.0688(5) 0.3000(4) 0.28290(12)
H9_2 H 0.190739 0.545573 0.2813
H10_2 H 0.146949 0.573662 0.225706
S1_2 S 0.3394(2) 0.28813(13) 0.28756(4)
N1_2 N 0.7240(7) 0.5284(4) 0.32813(11)
O1_2 O 0.6522(5) 0.5674(3) 0.50876(11)
O2_2 O 0.4420(5) 0.4002(3) 0.26067(12)
O3_2 O 0.4108(6) 0.2939(4) 0.33681(12)
O5_2 O 0.4263(5) 0.1714(3) 0.26491(12)
C1_2 C 0.5213(9) 0.5941(5) 0.33998(16)
H1_2 H 0.4257 0.6263 0.3158
C2_2 C 0.4501(9) 0.6156(5) 0.38518(17)
H2_2 H 0.3068 0.6589 0.3915
C3_2 C 0.5966(9) 0.5714(5) 0.42212(16)
C4_2 C 0.8099(9) 0.5081(5) 0.41114(15)
H3_2 H 0.9131 0.4797 0.4348
C5_2 C 0.8658(8) 0.4880(5) 0.36358(16)
C6_2 C 0.5096(10) 0.5936(5) 0.47039(17)
N2_2 N 0.3003(8) 0.6407(4) 0.48225(13)
N3 N 0.2992(8) 0.6484(4) 0.53124(13)
C7_2 C 0.5076(9) 0.6046(5) 0.54557(17)
C8_2 C 0.5848(9) 0.5948(5) 0.59408(17)
C9_2 C 0.7989(9) 0.5365(5) 0.60883(15)
H5_2 H 0.9097 0.5059 0.5869
C10_2 C 0.8437(8) 0.5249(5) 0.65684(15)
H6_2 H 0.9851 0.4844 0.6664
C11 C 0.4885(9) 0.6298(5) 0.67548(16)
H7 H 0.3829 0.6629 0.6979
C12 C 0.4323(9) 0.6438(5) 0.62860(18)
H8 H 0.2914 0.6863 0.6199
O8_2 O 0.5737(5) 0.6714(3) 0.23509(12)
Cu3_2 Cu 0.23165(10) 0.97897(5) 0.240248(18)
H3_3 H 0.4131 0.0203 0.5652
C5_3 C 0.3658(8) 0.0120(5) 0.63642(16)
H4_3 H 0.5077 0.0554 0.6438
H6_3 H 0.4851 0.0156 0.3336
O7_2 O 0.5688(5) 0.2000(4) 0.71710(12)
N5_2 N 0.3090(7) 0.0699(3) 0.80962(12)
N1_3 N 0.2240(7) 0.9716(4) 0.67187(11)
O1_3 O 0.1522(5) 0.9326(3) 0.49124(11)
O6_3 O 0.5745(5) 0.9205(3) 0.74229(11)
C1_3 C 0.0213(9) 0.9059(5) 0.66002(16)
C3_3 C 0.0966(9) 0.9286(5) 0.57788(16)
C4_3 C 0.3099(9) 0.9919(5) 0.58886(15)
C6_3 C 0.0096(10) 0.9064(5) 0.52961(17)
C7_3 C 0.0076(9) 0.8954(5) 0.45443(17)
N4_2 N 0.1910(7) 0.9301(3) 0.30962(12)
C8_3 C 0.0848(9) 0.9052(5) 0.40592(17)
C9_3 C 0.2989(9) 0.9635(5) 0.39117(15)
H5_3 H 0.4097 0.9941 0.4131
C10_3 C 0.3437(8) 0.9751(5) 0.34316(15)
H9_3 H 0.690739 0.954427 0.7187
H10_3 H 0.646949 0.926338 0.774294
S1_3 S 0.8394(2) 0.21187(13) 0.71244(4)
O2_3 O 0.9420(5) 0.0998(3) 0.73933(12)
O3_3 O 0.9108(6) 0.2061(4) 0.66319(12)
N1_4 N 0.2760(7) 0.0284(4) 0.17187(11)
C1_4 C 0.4787(9) 0.0941(5) 0.16002(16)
H1_3 H 0.5743 0.1263 0.1842
C2_3 C 0.5499(9) 0.1156(5) 0.11482(17)
H2_3 H 0.6932 0.1589 0.1085
C3_4 C 0.4034(9) 0.0714(5) 0.07788(16)
C4_4 C 0.1901(9) 0.0081(5) 0.08886(15)
C6_4 C 0.4904(10) 0.0936(5) 0.02961(17)
N2_3 N 0.6997(8) 0.1407(4) 0.01775(13)
O1_4 O 0.3478(5) 0.0674(3) 0.99124(11)
N3_2 N 0.7008(8) 0.1484(4) 0.96876(13)
C7_4 C 0.4924(9) 0.1046(5) 0.95443(17)
C8_4 C 0.4152(9) 0.0948(5) 0.90592(17)
C9_4 C 0.2011(9) 0.0365(5) 0.89117(15)
H5_4 H 0.0903 0.0059 0.9131
C10_4 C 0.1563(8) 0.0249(5) 0.84316(15)
C11_2 C 0.5115(9) 0.1298(5) 0.82452(16)
H7_2 H 0.6171 0.1629 0.8021
C12_2 C 0.5677(9) 0.1438(5) 0.87140(18)
H8_2 H 0.7086 0.1863 0.8801
S1_4 S 0.6606(2) 0.78813(13) 0.21244(4)
O2_4 O 0.5580(5) 0.9002(3) 0.23933(12)
O3_4 O 0.5892(6) 0.7939(4) 0.16319(12)
O4_2 O 0.9312(5) 0.8000(4) 0.21710(12)
H3_4 H 0.0869 0.9797 0.0652
C5_4 C 0.1342(8) 0.9880(5) 0.13642(16)
H4_4 H 0.9923 0.9446 0.1438
N3_3 N 0.2008(8) 0.3516(4) 0.03124(13)
C11_3 C 0.0115(9) 0.3702(5) 0.17548(16)
H7_3 H 0.1171 0.3371 0.1979
C12_3 C 0.0677(9) 0.3562(5) 0.12860(18)
H8_3 H 0.2086 0.3137 0.1199
H1_4 H 0.9257 0.8737 0.6842
C2_4 C 0.9501(9) 0.8844(5) 0.61482(17)
H2_4 H 0.8068 0.8411 0.6085
N2_4 N 0.8003(8) 0.8593(4) 0.51775(13)
N3_4 N 0.7992(8) 0.8516(4) 0.46876(13)
C11_4 C 0.9885(9) 0.8702(5) 0.32452(16)
H7_4 H 0.8829 0.8371 0.3021
C12_4 C 0.9323(9) 0.8562(5) 0.37140(18)
H8_4 H 0.7914 0.8137 0.3801
H6_4 H 0.0149 0.9844 0.8336
O6_4 O 0.9255(5) 0.0795(3) 0.24229(11)
H9_4 H 0.809261 0.0455734 0.2187
H10_4 H 0.853051 0.0736623 0.274294
loop_
_geom_bond_atom_site_label_1
_geom_bond_atom_site_label_2
_geom_bond_site_symmetry_1
_geom_bond_site_symmetry_2
S1 O2 1_555 1_555
O3 S1 1_555 1_555
O4 S1 1_555 1_555
O5 S1 1_555 1_555
H2 C2 1_555 1_555
Cu2 O4 1_555 1_555
C7 O1 1_555 1_555
N4 C10 1_555 1_555
C8 C7 1_555 1_555
C9 C8 1_555 1_555
H5 C9 1_555 1_555
C10 C9 1_555 1_555
H6 C10 1_555 1_555
Cu4 N4 1_555 1_555
Cu2 N1 1_555 1_555
N1 C1 1_555 1_555
O6 Cu2 1_555 1_555
C4 C3 1_555 1_555
H3 C4 1_555 1_555
C5 N1 1_555 1_555
H4 C5 1_555 1_555
C6 C3 1_555 1_555
O8 Cu2 1_555 1_555
N5 Cu2 1_555 1_555
C4 C5 1_555 1_555
O6 H9 1_555 1_555
O6 H10 1_555 1_555
O6_2 H9_2 1_555 1_555
O6_2 H10_2 1_555 1_555
Cu4 N1_2 1_555 1_555
S1_2 O2_2 1_555 1_555
N1_2 C1_2 1_555 1_555
O1_2 C6_2 1_555 1_555
O2_2 Cu4 1_555 1_555
O3_2 S1_2 1_555 1_555
O7 S1_2 1_555 1_555
O5_2 S1_2 1_555 1_555
C1_2 H1_2 1_555 1_555
C2_2 C1_2 1_555 1_555
H2_2 C2_2 1_555 1_555
C3_2 C2_2 1_555 1_555
C4_2 C3_2 1_555 1_555
H3_2 C4_2 1_555 1_555
C5_2 N1_2 1_555 1_555
C6_2 C3_2 1_555 1_555
N2_2 C6_2 1_555 1_555
N3 N2_2 1_555 1_555
C7_2 O1_2 1_555 1_555
N5 C10_2 1_555 1_555
C8_2 C7_2 1_555 1_555
C9_2 C8_2 1_555 1_555
H5_2 C9_2 1_555 1_555
C10_2 C9_2 1_555 1_555
H6_2 C10_2 1_555 1_555
C11 N5 1_555 1_555
H7 C11 1_555 1_555
C12 C8_2 1_555 1_555
H8 C12 1_555 1_555
O8_2 Cu4 1_555 1_555
C4_2 C5_2 1_555 1_555
N3 C7_2 1_555 1_555
C11 C12 1_555 1_555
H4_3 C5_3 1_555 1_555
O7_2 Cu3 1_555 1_555
N5_2 Cu3 1_555 1_555
N1_3 C1_3 1_555 1_555
O1_3 C6_3 1_555 1_555
C4_3 C3_3 1_555 1_555
C6_3 C3_3 1_555 1_555
C7_3 O1_3 1_555 1_555
N4_2 C10_3 1_555 1_555
C8_3 C7_3 1_555 1_555
C9_3 C8_3 1_555 1_555
H5_3 C9_3 1_555 1_555
C10_3 C9_3 1_555 1_555
Cu3_2 N4_2 1_555 1_555
O6_3 H9_3 1_555 1_555
O6_3 H10_3 1_555 1_555
S1_3 O2_3 1_555 1_555
O3_3 S1_3 1_555 1_555
O7_2 S1_3 1_555 1_555
O8 S1_3 1_555 1_555
N1_4 C1_4 1_555 1_555
C1_4 H1_3 1_555 1_555
C2_3 C1_4 1_555 1_555
H2_3 C2_3 1_555 1_555
C3_4 C2_3 1_555 1_555
C4_4 C3_4 1_555 1_555
C6_4 C3_4 1_555 1_555
N2_3 C6_4 1_555 1_555
C7_4 O1_4 1_555 1_555
N5_2 C10_4 1_555 1_555
C8_4 C7_4 1_555 1_555
C9_4 C8_4 1_555 1_555
H5_4 C9_4 1_555 1_555
C10_4 C9_4 1_555 1_555
C11_2 N5_2 1_555 1_555
H7_2 C11_2 1_555 1_555
C12_2 C8_4 1_555 1_555
H8_2 C12_2 1_555 1_555
N3_2 C7_4 1_555 1_555
C11_2 C12_2 1_555 1_555
S1_4 O2_4 1_555 1_555
O2_4 Cu3_2 1_555 1_555
O3_4 S1_4 1_555 1_555
O4_2 S1_4 1_555 1_555
O8_2 S1_4 1_555 1_555
H7_3 C11_3 1_555 1_555
H8_3 C12_3 1_555 1_555
C11_3 C12_3 1_555 1_555
H2_4 C2_4 1_555 1_555
N3_4 N2_4 1_555 1_555
H7_4 C11_4 1_555 1_555
H8_4 C12_4 1_555 1_555
C11_4 C12_4 1_555 1_555
O6_4 H9_4 1_555 1_555
O6_4 H10_4 1_555 1_555

#END
