
###############################################################################
#
# This file contains modified crystal structure data generated from the
# MOF subset of the Cambridge Structural Database (CSD) v543 
# hosted by the Cambridge Crystallographic Data Centre (CCDC).
#
# This work is licensed under the Creative Commons
# Attribution-NonCommercial-ShareAlike 4.0 International License.
# To view a copy of this license, visit
# http://creativecommons.org/licenses/by-nc-sa/4.0/
# or send a letter to
# Creative Commons, PO Box 1866, Mountain View, CA 94042, USA.
#
# CIF created using the CSD Python API on 29 September 2022
# The structure has been converted into the P1 space group
# The structure has a 3D framework
# The original CSD entry KABGAZ is in the monoclinic crystal system
# The framework has been calculated to contain at least 10.0% void space
# The void calculation uses a probe of radius 1.32A, grid spacing 0.4
# The framework is charged, counterions have been retained in the structure
#
###############################################################################

data_KABGAZ
_chemical_formula_moiety         '(C80 H96 Br8 Cd12 N8 O29)n'
_symmetry_cell_setting           triclinic
_symmetry_space_group_name_H-M   'P 1'
_symmetry_Int_Tables_number      1
_space_group_name_Hall           'P 1'
loop_
_symmetry_equiv_pos_site_id
_symmetry_equiv_pos_as_xyz
1 x,y,z
_cell_length_a                   13.0306(3)
_cell_length_b                   15.5816(3)
_cell_length_c                   15.3792(4)
_cell_angle_alpha                90
_cell_angle_beta                 112.927(3)
_cell_angle_gamma                90
_cell_volume                     2875.88
loop_
_atom_site_label
_atom_site_type_symbol
_atom_site_fract_x
_atom_site_fract_y
_atom_site_fract_z
N1 N 0.7091(6) 0.3721(4) 0.6375(5)
H1 H 0.7832 0.3656 0.6512
H2 H 0.7013 0.3835 0.6927
C1 C 0.6694(11) 0.4454(8) 0.5759(10)
H3 H 0.6710 0.4313 0.5158
H4 H 0.7158 0.4953 0.6014
H5 H 0.5938 0.4581 0.5685
C2 C 0.6544(10) 0.2925(7) 0.6010(9)
H6 H 0.6869 0.2469 0.6476
H7 H 0.5748 0.2978 0.5878
H8 H 0.6641 0.2783 0.5426
N1_2 N 0.2909(6) 0.3721(4) 0.8625(5)
H1_2 H 0.2168 0.3656 0.8488
H2_2 H 0.2987 0.3835 0.8073
C1_2 C 0.3306(11) 0.4454(8) 0.9241(10)
H3_2 H 0.3290 0.4313 0.9842
H4_2 H 0.2842 0.4953 0.8986
H5_2 H 0.4062 0.4581 0.9315
C2_2 C 0.3456(10) 0.2925(7) 0.8990(9)
H6_2 H 0.3131 0.2469 0.8524
H7_2 H 0.4252 0.2978 0.9122
H8_2 H 0.3359 0.2783 0.9574
N1_3 N 0.2091(6) 0.8721(4) 0.6375(5)
H1_3 H 0.2832 0.8656 0.6512
H2_3 H 0.2013 0.8835 0.6927
C1_3 C 0.1694(11) 0.9454(8) 0.5759(10)
H3_3 H 0.1710 0.9313 0.5158
H4_3 H 0.2158 0.9953 0.6014
H5_3 H 0.0938 0.9581 0.5685
C2_3 C 0.1544(10) 0.7925(7) 0.6010(9)
H6_3 H 0.1869 0.7469 0.6476
H7_3 H 0.0748 0.7978 0.5878
H8_3 H 0.1641 0.7783 0.5426
N1_4 N 0.7909(6) 0.8721(4) 0.8625(5)
H1_4 H 0.7168 0.8656 0.8488
H2_4 H 0.7987 0.8835 0.8073
C1_4 C 0.8306(11) 0.9454(8) 0.9241(10)
H3_4 H 0.8290 0.9313 0.9842
H4_4 H 0.7842 0.9953 0.8986
H5_4 H 0.9062 0.9581 0.9315
C2_4 C 0.8456(10) 0.7925(7) 0.8990(9)
H6_4 H 0.8131 0.7469 0.8524
H7_4 H 0.9252 0.7978 0.9122
H8_4 H 0.8359 0.7783 0.9574
N1_5 N 0.2909(6) 0.6279(4) 0.3625(5)
H1_5 H 0.2168 0.6344 0.3488
H2_5 H 0.2987 0.6165 0.3073
C1_5 C 0.3306(11) 0.5546(8) 0.4241(10)
H3_5 H 0.3290 0.5687 0.4842
H4_5 H 0.2842 0.5047 0.3986
H5_5 H 0.4062 0.5419 0.4315
C2_5 C 0.3456(10) 0.7075(7) 0.3990(9)
H6_5 H 0.3131 0.7531 0.3524
H7_5 H 0.4252 0.7022 0.4122
H8_5 H 0.3359 0.7217 0.4574
N1_6 N 0.7091(6) 0.6279(4) 0.1375(5)
H1_6 H 0.7832 0.6344 0.1512
H2_6 H 0.7013 0.6165 0.1927
C1_6 C 0.6694(11) 0.5546(8) 0.0759(10)
H3_6 H 0.6710 0.5687 0.0158
H4_6 H 0.7158 0.5047 0.1014
H5_6 H 0.5938 0.5419 0.0685
C2_6 C 0.6544(10) 0.7075(7) 0.1010(9)
H6_6 H 0.6869 0.7531 0.1476
H7_6 H 0.5748 0.7022 0.0878
H8_6 H 0.6641 0.7217 0.0426
N1_7 N 0.7909(6) 0.1279(4) 0.3625(5)
H1_7 H 0.7168 0.1344 0.3488
H2_7 H 0.7987 0.1165 0.3073
C1_7 C 0.8306(11) 0.0546(8) 0.4241(10)
H3_7 H 0.8290 0.0687 0.4842
H4_7 H 0.7842 0.0047 0.3986
H5_7 H 0.9062 0.0419 0.4315
C2_7 C 0.8456(10) 0.2075(7) 0.3990(9)
H6_7 H 0.8131 0.2531 0.3524
H7_7 H 0.9252 0.2022 0.4122
H8_7 H 0.8359 0.2217 0.4574
N1_8 N 0.2091(6) 0.1279(4) 0.1375(5)
H1_8 H 0.2832 0.1344 0.1512
H2_8 H 0.2013 0.1165 0.1927
C1_8 C 0.1694(11) 0.0546(8) 0.0759(10)
H3_8 H 0.1710 0.0687 0.0158
H4_8 H 0.2158 0.0047 0.1014
H5_8 H 0.0938 0.0419 0.0685
C2_8 C 0.1544(10) 0.2075(7) 0.1010(9)
H6_8 H 0.1869 0.2531 0.1476
H7_8 H 0.0748 0.2022 0.0878
H8_8 H 0.1641 0.2217 0.0426
Cd3 Cd -0.0000 0.00097(3) 0.7500
Cd1 Cd 0.0000 0.99903(3) 0.2500
Cd2 Cd -0.0000 0.75873(3) 0.2500
O3 O 0.0833(4) 0.6859(3) 0.3939(3)
C8 C 0.0936(5) 0.5515(4) 0.5219(4)
H11 H 0.1576 0.5867 0.5366
O8 O 0.0887(4) 0.3485(3) 0.6979(3)
C15 C 0.0021(5) 0.3598(4) 0.6241(4)
C17 C 0.0021(5) 0.4314(4) 0.5586(4)
C18 C 0.0953(5) 0.4837(4) 0.5799(4)
H16 H 0.1604 0.4726 0.6347
Br2 Br 0.14540(6) 0.87882(4) 0.25186(7)
Cd4 Cd -0.0000 0.24127(3) 0.7500
O12 O 0.0887(4) 0.6515(3) 0.1979(3)
C7 C 0.0021(5) 0.6402(4) 0.1241(4)
C9 C 0.0021(5) 0.5686(4) 0.0586(4)
C10 C 0.0953(5) 0.5163(4) 0.0799(4)
H12 H 0.1604 0.5274 0.1347
C16 C 0.0936(5) 0.4485(4) 0.0219(4)
H15 H 0.1576 0.4133 0.0366
O7 O 0.0833(4) 0.3141(3) 0.8939(3)
Br1 Br 0.14540(6) 0.12118(4) 0.75186(7)
Cd3_2 Cd 1.0000 0.00097(3) 0.7500
Cd1_2 Cd 1.0000 0.99903(3) 0.2500
Cd2_2 Cd 1.0000 0.75873(3) 0.2500
Br1_2 Br 0.85460(6) 0.87882(4) 0.24814(7)
O4 O 0.9113(4) 0.6515(3) 0.3021(3)
C7_2 C 0.9979(5) 0.6402(4) 0.3759(4)
C9_2 C 0.9979(5) 0.5686(4) 0.4414(4)
C10_2 C 0.9047(5) 0.5163(4) 0.4201(4)
H12_2 H 0.8396 0.5274 0.3653
O7_2 O 0.9167(4) 0.3141(3) 0.6061(3)
C16_2 C 0.9064(5) 0.4485(4) 0.4781(4)
H15_2 H 0.8424 0.4133 0.4634
Cd4_2 Cd 1.0000 0.24127(3) 0.7500
O11 O 0.9167(4) 0.6859(3) 0.1061(3)
C8_2 C 0.9064(5) 0.5515(4) 0.9781(4)
H11_2 H 0.8424 0.5867 0.9634
O8_2 O 0.9113(4) 0.3485(3) 0.8021(3)
C15_2 C 0.9979(5) 0.3598(4) 0.8759(4)
C17_2 C 0.9979(5) 0.4314(4) 0.9414(4)
C18_2 C 0.9047(5) 0.4837(4) 0.9201(4)
H16_2 H 0.8396 0.4726 0.8653
Br2_2 Br 0.85460(6) 0.12118(4) 0.74814(7)
Cd1_3 Cd 0.5000 0.49903(3) 0.2500
Cd2_3 Cd 0.5000 0.25873(3) 0.2500
Br1_3 Br 0.35460(6) 0.37882(4) 0.24814(7)
O1 O 0.5711(4) 0.5649(3) 0.3938(3)
O2 O 0.6402(4) 0.6093(3) 0.2916(3)
O3_2 O 0.5833(4) 0.1859(3) 0.3939(3)
O4_2 O 0.4113(4) 0.1515(3) 0.3021(3)
C3 C 0.6319(5) 0.6148(4) 0.3705(5)
C4 C 0.6790(5) 0.6967(4) 0.5220(4)
H9 H 0.6302 0.6600 0.5373
C5 C 0.6944(5) 0.6840(4) 0.4384(4)
C6 C 0.7665(5) 0.7384(4) 0.4171(5)
H10 H 0.7780 0.7305 0.3603
C7_3 C 0.4979(5) 0.1402(4) 0.3759(4)
C8_3 C 0.5936(5) 0.0515(4) 0.5219(4)
H11_3 H 0.6576 0.0867 0.5366
C9_3 C 0.4979(5) 0.0686(4) 0.4414(4)
C10_3 C 0.4047(5) 0.0163(4) 0.4201(4)
H12_3 H 0.3396 0.0274 0.3653
O5 O 0.9289(4) 0.9351(3) 0.6062(3)
O6 O 0.8598(4) 0.8907(3) 0.7084(3)
C11 C 0.8681(5) 0.8852(4) 0.6295(5)
C12 C 0.8210(5) 0.8033(4) 0.4780(4)
H13 H 0.8698 0.8400 0.4627
C13 C 0.8056(5) 0.8160(4) 0.5616(4)
C14 C 0.7335(5) 0.7616(4) 0.5829(5)
H14 H 0.7220 0.7695 0.6397
Br2_3 Br 0.64540(6) 0.37882(4) 0.25186(7)
O9 O 0.4289(4) 0.5649(3) 0.1062(3)
O10 O 0.3598(4) 0.6093(3) 0.2084(3)
O11_2 O 0.4167(4) 0.1859(3) 0.1061(3)
O12_2 O 0.5887(4) 0.1515(3) 0.1979(3)
C3_2 C 0.3681(5) 0.6148(4) 0.1295(5)
C5_2 C 0.3056(5) 0.6840(4) 0.0616(4)
C6_2 C 0.2335(5) 0.7384(4) 0.0829(5)
H10_2 H 0.2220 0.7305 0.1397
C7_4 C 0.5021(5) 0.1402(4) 0.1241(4)
C9_4 C 0.5021(5) 0.0686(4) 0.0586(4)
C10_4 C 0.5953(5) 0.0163(4) 0.0799(4)
H12_4 H 0.6604 0.0274 0.1347
C12_2 C 0.1790(5) 0.8033(4) 0.0220(4)
H13_2 H 0.1302 0.8400 0.0373
O7_3 O 0.4167(4) 0.8141(3) 0.6061(3)
O8_3 O 0.5887(4) 0.8485(3) 0.6979(3)
C15_3 C 0.5021(5) 0.8598(4) 0.6241(4)
C16_3 C 0.4064(5) 0.9485(4) 0.4781(4)
H15_3 H 0.3424 0.9133 0.4634
C17_3 C 0.5021(5) 0.9314(4) 0.5586(4)
C18_3 C 0.5953(5) 0.9837(4) 0.5799(4)
H16_3 H 0.6604 0.9726 0.6347
Cd4_3 Cd 0.5000 0.74127(3) 0.7500
O7_4 O 0.5833(4) 0.8141(3) 0.8939(3)
O8_4 O 0.4113(4) 0.8485(3) 0.8021(3)
C15_4 C 0.4979(5) 0.8598(4) 0.8759(4)
C17_4 C 0.4979(5) 0.9314(4) 0.9414(4)
C18_4 C 0.4047(5) 0.9837(4) 0.9201(4)
H16_4 H 0.3396 0.9726 0.8653
O1_2 O 0.0711(4) 0.0649(3) 0.3938(3)
O2_2 O 0.1402(4) 0.1093(3) 0.2916(3)
C3_3 C 0.1319(5) 0.1148(4) 0.3705(5)
C4_2 C 0.1790(5) 0.1967(4) 0.5220(4)
H9_2 H 0.1302 0.1600 0.5373
C5_3 C 0.1944(5) 0.1840(4) 0.4384(4)
C6_3 C 0.2665(5) 0.2384(4) 0.4171(5)
H10_3 H 0.2780 0.2305 0.3603
O5_2 O 0.4289(4) 0.4351(3) 0.6062(3)
O6_2 O 0.3598(4) 0.3907(3) 0.7084(3)
C11_2 C 0.3681(5) 0.3852(4) 0.6295(5)
C12_3 C 0.3210(5) 0.3033(4) 0.4780(4)
H13_3 H 0.3698 0.3400 0.4627
C13_2 C 0.3056(5) 0.3160(4) 0.5616(4)
C14_2 C 0.2335(5) 0.2616(4) 0.5829(5)
H14_2 H 0.2220 0.2695 0.6397
Cd3_3 Cd 0.5000 0.50097(3) 0.7500
C4_3 C 0.8210(5) 0.1967(4) 0.9780(4)
H9_3 H 0.8698 0.1600 0.9627
O5_3 O 0.5711(4) 0.4351(3) 0.8938(3)
O6_3 O 0.6402(4) 0.3907(3) 0.7916(3)
C11_3 C 0.6319(5) 0.3852(4) 0.8705(5)
C13_3 C 0.6944(5) 0.3160(4) 0.9384(4)
C14_3 C 0.7665(5) 0.2616(4) 0.9171(5)
H14_3 H 0.7780 0.2695 0.8603
Br1_4 Br 0.64540(6) 0.62118(4) 0.75186(7)
Br2_4 Br 0.35460(6) 0.62118(4) 0.74814(7)
C4_4 C 0.3210(5) 0.6967(4) 0.9780(4)
H9_4 H 0.3698 0.6600 0.9627
C8_4 C 0.4064(5) 0.0515(4) 0.9781(4)
H11_4 H 0.3424 0.0867 0.9634
O5_4 O 0.0711(4) 0.9351(3) 0.8938(3)
O6_4 O 0.1402(4) 0.8907(3) 0.7916(3)
C11_4 C 0.1319(5) 0.8852(4) 0.8705(5)
C13_4 C 0.1944(5) 0.8160(4) 0.9384(4)
C14_4 C 0.2665(5) 0.7616(4) 0.9171(5)
H14_4 H 0.2780 0.7695 0.8603
C16_4 C 0.5936(5) 0.9485(4) 0.0219(4)
H15_4 H 0.6576 0.9133 0.0366
O9_2 O 0.9289(4) 0.0649(3) 0.1062(3)
O10_2 O 0.8598(4) 0.1093(3) 0.2084(3)
C3_4 C 0.8681(5) 0.1148(4) 0.1295(5)
C5_4 C 0.8056(5) 0.1840(4) 0.0616(4)
C6_4 C 0.7335(5) 0.2384(4) 0.0829(5)
H10_4 H 0.7220 0.2305 0.1397
C12_4 C 0.6790(5) 0.3033(4) 0.0220(4)
H13_4 H 0.6302 0.3400 0.0373
loop_
_geom_bond_atom_site_label_1
_geom_bond_atom_site_label_2
_geom_bond_site_symmetry_1
_geom_bond_site_symmetry_2
N1 H1 1_555 1_555
H2 N1 1_555 1_555
C1 N1 1_555 1_555
H3 C1 1_555 1_555
H4 C1 1_555 1_555
H5 C1 1_555 1_555
C2 N1 1_555 1_555
H6 C2 1_555 1_555
H7 C2 1_555 1_555
H8 C2 1_555 1_555
N1_2 H1_2 1_555 1_555
H2_2 N1_2 1_555 1_555
C1_2 N1_2 1_555 1_555
H3_2 C1_2 1_555 1_555
H4_2 C1_2 1_555 1_555
H5_2 C1_2 1_555 1_555
C2_2 N1_2 1_555 1_555
H6_2 C2_2 1_555 1_555
H7_2 C2_2 1_555 1_555
H8_2 C2_2 1_555 1_555
N1_3 H1_3 1_555 1_555
H2_3 N1_3 1_555 1_555
C1_3 N1_3 1_555 1_555
H3_3 C1_3 1_555 1_555
H4_3 C1_3 1_555 1_555
H5_3 C1_3 1_555 1_555
C2_3 N1_3 1_555 1_555
H6_3 C2_3 1_555 1_555
H7_3 C2_3 1_555 1_555
H8_3 C2_3 1_555 1_555
N1_4 H1_4 1_555 1_555
H2_4 N1_4 1_555 1_555
C1_4 N1_4 1_555 1_555
H3_4 C1_4 1_555 1_555
H4_4 C1_4 1_555 1_555
H5_4 C1_4 1_555 1_555
C2_4 N1_4 1_555 1_555
H6_4 C2_4 1_555 1_555
H7_4 C2_4 1_555 1_555
H8_4 C2_4 1_555 1_555
N1_5 H1_5 1_555 1_555
H2_5 N1_5 1_555 1_555
C1_5 N1_5 1_555 1_555
H3_5 C1_5 1_555 1_555
H4_5 C1_5 1_555 1_555
H5_5 C1_5 1_555 1_555
C2_5 N1_5 1_555 1_555
H6_5 C2_5 1_555 1_555
H7_5 C2_5 1_555 1_555
H8_5 C2_5 1_555 1_555
N1_6 H1_6 1_555 1_555
H2_6 N1_6 1_555 1_555
C1_6 N1_6 1_555 1_555
H3_6 C1_6 1_555 1_555
H4_6 C1_6 1_555 1_555
H5_6 C1_6 1_555 1_555
C2_6 N1_6 1_555 1_555
H6_6 C2_6 1_555 1_555
H7_6 C2_6 1_555 1_555
H8_6 C2_6 1_555 1_555
N1_7 H1_7 1_555 1_555
H2_7 N1_7 1_555 1_555
C1_7 N1_7 1_555 1_555
H3_7 C1_7 1_555 1_555
H4_7 C1_7 1_555 1_555
H5_7 C1_7 1_555 1_555
C2_7 N1_7 1_555 1_555
H6_7 C2_7 1_555 1_555
H7_7 C2_7 1_555 1_555
H8_7 C2_7 1_555 1_555
N1_8 H1_8 1_555 1_555
H2_8 N1_8 1_555 1_555
C1_8 N1_8 1_555 1_555
H3_8 C1_8 1_555 1_555
H4_8 C1_8 1_555 1_555
H5_8 C1_8 1_555 1_555
C2_8 N1_8 1_555 1_555
H6_8 C2_8 1_555 1_555
H7_8 C2_8 1_555 1_555
H8_8 C2_8 1_555 1_555
O3 Cd2 1_555 1_555
C8 H11 1_555 1_555
O8 C15 1_555 1_555
C15 C17 1_555 1_555
C18 C8 1_555 1_555
H16 C18 1_555 1_555
Br2 Cd1 1_555 1_555
O12 Cd2 1_555 1_555
Cd2 Br2 1_555 1_555
O8 Cd4 1_555 1_555
C17 C18 1_555 1_555
C9 C7 1_555 1_555
C10 C9 1_555 1_555
H12 C10 1_555 1_555
C16 C10 1_555 1_555
H15 C16 1_555 1_555
O12 C7 1_555 1_555
Cd4 O7 1_555 1_555
Cd3 Br1 1_555 1_555
Cd4 Br1 1_555 1_555
Cd1_2 Br1_2 1_555 1_555
Cd2_2 Br1_2 1_555 1_555
O4 Cd2_2 1_555 1_555
C9_2 C7_2 1_555 1_555
C10_2 C9_2 1_555 1_555
H12_2 C10_2 1_555 1_555
C16_2 C10_2 1_555 1_555
H15_2 C16_2 1_555 1_555
Cd4_2 O7_2 1_555 1_555
O11 Cd2_2 1_555 1_555
O4 C7_2 1_555 1_555
C8_2 H11_2 1_555 1_555
O8_2 C15_2 1_555 1_555
C15_2 C17_2 1_555 1_555
C18_2 C8_2 1_555 1_555
H16_2 C18_2 1_555 1_555
O8_2 Cd4_2 1_555 1_555
C17_2 C18_2 1_555 1_555
Br2_2 Cd3_2 1_555 1_555
Cd4_2 Br2_2 1_555 1_555
Cd1_3 Br1_3 1_555 1_555
Cd2_3 Br1_3 1_555 1_555
O1 Cd1_3 1_555 1_555
O2 Cd1_3 1_555 1_555
O3_2 Cd2_3 1_555 1_555
O4_2 Cd2_3 1_555 1_555
C3 O1 1_555 1_555
C4 H9 1_555 1_555
C5 C3 1_555 1_555
C6 C5 1_555 1_555
H10 C6 1_555 1_555
C7_3 O3_2 1_555 1_555
C8_3 H11_3 1_555 1_555
C9_3 C7_3 1_555 1_555
C10_3 C9_3 1_555 1_555
H12_3 C10_3 1_555 1_555
O5 C11 1_555 1_555
O6 C11 1_555 1_555
C11 C13 1_555 1_555
C12 C6 1_555 1_555
H13 C12 1_555 1_555
C13 C12 1_555 1_555
C14 C4 1_555 1_555
H14 C14 1_555 1_555
Br2_3 Cd1_3 1_555 1_555
O9 Cd1_3 1_555 1_555
O10 Cd1_3 1_555 1_555
O11_2 Cd2_3 1_555 1_555
O12_2 Cd2_3 1_555 1_555
Cd2_3 Br2_3 1_555 1_555
O2 C3 1_555 1_555
O4_2 C7_3 1_555 1_555
C4 C5 1_555 1_555
C8_3 C9_3 1_555 1_555
C13 C14 1_555 1_555
C3_2 O9 1_555 1_555
C5_2 C3_2 1_555 1_555
C6_2 C5_2 1_555 1_555
H10_2 C6_2 1_555 1_555
C7_4 O11_2 1_555 1_555
C9_4 C7_4 1_555 1_555
C10_4 C9_4 1_555 1_555
H12_4 C10_4 1_555 1_555
C12_2 C6_2 1_555 1_555
H13_2 C12_2 1_555 1_555
O10 C3_2 1_555 1_555
O12_2 C7_4 1_555 1_555
O7_3 C15_3 1_555 1_555
O8_3 C15_3 1_555 1_555
C15_3 C17_3 1_555 1_555
H15_3 C16_3 1_555 1_555
C17_3 C16_3 1_555 1_555
H16_3 C18_3 1_555 1_555
Cd4_3 O7_3 1_555 1_555
O8_3 Cd4_3 1_555 1_555
C17_3 C18_3 1_555 1_555
O7_4 C15_4 1_555 1_555
O8_4 C15_4 1_555 1_555
C15_4 C17_4 1_555 1_555
H16_4 C18_4 1_555 1_555
Cd4_3 O7_4 1_555 1_555
O8_4 Cd4_3 1_555 1_555
C17_4 C18_4 1_555 1_555
C3_3 O1_2 1_555 1_555
C4_2 H9_2 1_555 1_555
C5_3 C3_3 1_555 1_555
C6_3 C5_3 1_555 1_555
H10_3 C6_3 1_555 1_555
O5_2 C11_2 1_555 1_555
O6_2 C11_2 1_555 1_555
C11_2 C13_2 1_555 1_555
C12_3 C6_3 1_555 1_555
H13_3 C12_3 1_555 1_555
C13_2 C12_3 1_555 1_555
C14_2 C4_2 1_555 1_555
H14_2 C14_2 1_555 1_555
Cd3_3 O5_2 1_555 1_555
O2_2 C3_3 1_555 1_555
C4_2 C5_3 1_555 1_555
O6_2 Cd3_3 1_555 1_555
C13_2 C14_2 1_555 1_555
C4_3 H9_3 1_555 1_555
O5_3 C11_3 1_555 1_555
O6_3 C11_3 1_555 1_555
C11_3 C13_3 1_555 1_555
C14_3 C4_3 1_555 1_555
H14_3 C14_3 1_555 1_555
Cd3_3 O5_3 1_555 1_555
O6_3 Cd3_3 1_555 1_555
C13_3 C14_3 1_555 1_555
Cd3_3 Br1_4 1_555 1_555
Cd4_3 Br1_4 1_555 1_555
Br2_4 Cd3_3 1_555 1_555
Cd4_3 Br2_4 1_555 1_555
C4_4 H9_4 1_555 1_555
C8_4 H11_4 1_555 1_555
O5_4 C11_4 1_555 1_555
O6_4 C11_4 1_555 1_555
C11_4 C13_4 1_555 1_555
C14_4 C4_4 1_555 1_555
H14_4 C14_4 1_555 1_555
C13_4 C14_4 1_555 1_555
H15_4 C16_4 1_555 1_555
C3_4 O9_2 1_555 1_555
C5_4 C3_4 1_555 1_555
C6_4 C5_4 1_555 1_555
H10_4 C6_4 1_555 1_555
C12_4 C6_4 1_555 1_555
H13_4 C12_4 1_555 1_555
O10_2 C3_4 1_555 1_555

#END
