
###############################################################################
#
# This file contains modified crystal structure data generated from the
# MOF subset of the Cambridge Structural Database (CSD) v543 
# hosted by the Cambridge Crystallographic Data Centre (CCDC).
#
# This work is licensed under the Creative Commons
# Attribution-NonCommercial-ShareAlike 4.0 International License.
# To view a copy of this license, visit
# http://creativecommons.org/licenses/by-nc-sa/4.0/
# or send a letter to
# Creative Commons, PO Box 1866, Mountain View, CA 94042, USA.
#
# CIF created using the CSD Python API on 29 September 2022
# The structure has been converted into the P1 space group
# The structure has a 3D framework
# The original CSD entry KABGED is in the orthorhombic crystal system
# The framework has been calculated to contain at least 10.0% void space
# The void calculation uses a probe of radius 1.32A, grid spacing 0.4
# The framework is charged, counterions have been retained in the structure
#
###############################################################################

data_KABGED
_chemical_formula_moiety         '(C128 H64 Cd4 O60 12-)n'
_symmetry_cell_setting           triclinic
_symmetry_space_group_name_H-M   'P 1'
_symmetry_Int_Tables_number      1
_space_group_name_Hall           'P 1'
loop_
_symmetry_equiv_pos_site_id
_symmetry_equiv_pos_as_xyz
1 x,y,z
_cell_length_a                   9.7678(2)
_cell_length_b                   21.1750(4)
_cell_length_c                   27.8937(6)
_cell_angle_alpha                90
_cell_angle_beta                 90
_cell_angle_gamma                90
_cell_volume                     5769.34
loop_
_atom_site_label
_atom_site_type_symbol
_atom_site_fract_x
_atom_site_fract_y
_atom_site_fract_z
Cd1 Cd 0.1250 0.6250 0.6250
O1 O 0.0159(7) 0.5369(4) 0.6608(3)
O5 O 0.0159(7) 0.7131(4) 0.5892(3)
O9 O 0.2341(7) 0.5369(4) 0.5892(3)
O10 O 0.2341(7) 0.7131(4) 0.6608(3)
O11 O 0.3073(9) 0.6266(4) 0.5600(3)
O12 O 0.3073(9) 0.6234(4) 0.6900(3)
Cd1_2 Cd 0.1250 0.1250 0.1250
O1_2 O 0.0159(7) 0.2131(4) 0.0892(3)
O5_2 O 0.0159(7) 0.0369(4) 0.1608(3)
O9_2 O 0.2341(7) 0.2131(4) 0.1608(3)
O10_2 O 0.2341(7) 0.0369(4) 0.0892(3)
O11_2 O 0.3073(9) 0.1234(4) 0.1900(3)
O12_2 O 0.3073(9) 0.1266(4) 0.0600(3)
O3 O 0.9841(7) 0.4631(4) 0.3392(3)
Cd3 Cd 0.8750 0.3750 0.3750
O7 O 0.9841(7) 0.7869(4) 0.9108(3)
Cd2 Cd 0.8750 0.8750 0.8750
C1 C 0.3088(10) 0.1828(5) 0.1877(4)
C2 C 0.4201(10) 0.2824(5) 0.2166(4)
H1 H 0.3699 0.3048 0.1939
C3 C 0.4096(9) 0.2171(5) 0.2206(4)
C4 C 0.4897(11) 0.1870(5) 0.2516(4)
H2 H 0.4860 0.1431 0.2523
O3_2 O 0.7659(7) 0.2869(4) 0.3392(3)
O4 O 0.6927(9) 0.3766(4) 0.3100(3)
C5 C 0.6912(10) 0.3172(5) 0.3123(4)
C6 C 0.5799(10) 0.2176(5) 0.2834(4)
H3 H 0.6301 0.1952 0.3061
C7 C 0.5904(9) 0.2829(5) 0.2794(4)
C8 C 0.5103(11) 0.3130(5) 0.2484(4)
H4 H 0.5140 0.3569 0.2477
C9 C 0.3088(10) 0.0672(5) 0.0623(4)
C11 C 0.4096(9) 0.0329(5) 0.0294(4)
O7_2 O 0.7659(7) 0.9631(4) 0.9108(3)
O8 O 0.6927(9) 0.8734(4) 0.9400(3)
C13 C 0.6912(10) 0.9328(5) 0.9377(4)
C15 C 0.5904(9) 0.9671(5) 0.9706(4)
C1_2 C 0.3088(10) 0.5672(5) 0.5623(4)
C2_2 C 0.4201(10) 0.4676(5) 0.5334(4)
H1_2 H 0.3699 0.4452 0.5561
C3_2 C 0.4096(9) 0.5329(5) 0.5294(4)
C4_2 C 0.4897(11) 0.5630(5) 0.4984(4)
H2_2 H 0.4860 0.6069 0.4977
O3_3 O 0.7659(7) 0.4631(4) 0.4108(3)
O4_2 O 0.6927(9) 0.3734(4) 0.4400(3)
C5_2 C 0.6912(10) 0.4328(5) 0.4377(4)
C6_2 C 0.5799(10) 0.5324(5) 0.4666(4)
H3_2 H 0.6301 0.5548 0.4439
C7_2 C 0.5904(9) 0.4671(5) 0.4706(4)
C8_2 C 0.5103(11) 0.4370(5) 0.5016(4)
H4_2 H 0.5140 0.3931 0.5023
C9_2 C 0.3088(10) 0.6828(5) 0.6877(4)
C10 C 0.4201(10) 0.7824(5) 0.7166(4)
H5 H 0.3699 0.8048 0.6939
C11_2 C 0.4096(9) 0.7171(5) 0.7206(4)
C12 C 0.4897(11) 0.6870(5) 0.7516(4)
H6 H 0.4860 0.6431 0.7523
O7_3 O 0.7659(7) 0.7869(4) 0.8392(3)
O8_2 O 0.6927(9) 0.8766(4) 0.8100(3)
C13_2 C 0.6912(10) 0.8172(5) 0.8123(4)
C14 C 0.5799(10) 0.7176(5) 0.7834(4)
H7 H 0.6301 0.6952 0.8061
C15_2 C 0.5904(9) 0.7829(5) 0.7794(4)
C16 C 0.5103(11) 0.8130(5) 0.7484(4)
H8 H 0.5140 0.8569 0.7477
O3_4 O 0.9841(7) 0.2869(4) 0.4108(3)
O7_4 O 0.9841(7) 0.9631(4) 0.8392(3)
O2 O 0.9427(9) 0.6266(4) 0.6900(3)
C1_3 C 0.9412(10) 0.5672(5) 0.6877(4)
C2_3 C 0.8299(10) 0.4676(5) 0.7166(4)
H1_3 H 0.8801 0.4452 0.6939
C3_3 C 0.8404(9) 0.5329(5) 0.7206(4)
C4_3 C 0.7603(11) 0.5630(5) 0.7516(4)
H2_3 H 0.7640 0.6069 0.7523
O3_5 O 0.4841(7) 0.4631(4) 0.8392(3)
O4_3 O 0.5573(9) 0.3734(4) 0.8100(3)
C5_3 C 0.5588(10) 0.4328(5) 0.8123(4)
C6_3 C 0.6701(10) 0.5324(5) 0.7834(4)
H3_3 H 0.6199 0.5548 0.8061
C7_3 C 0.6596(9) 0.4671(5) 0.7794(4)
C8_3 C 0.7397(11) 0.4370(5) 0.7484(4)
H4_3 H 0.7360 0.3931 0.7477
O6 O 0.9427(9) 0.6234(4) 0.5600(3)
C9_3 C 0.9412(10) 0.6828(5) 0.5623(4)
C10_2 C 0.8299(10) 0.7824(5) 0.5334(4)
H5_2 H 0.8801 0.8048 0.5561
C11_3 C 0.8404(9) 0.7171(5) 0.5294(4)
C12_2 C 0.7603(11) 0.6870(5) 0.4984(4)
H6_2 H 0.7640 0.6431 0.4977
O7_5 O 0.4841(7) 0.7869(4) 0.4108(3)
O8_3 O 0.5573(9) 0.8766(4) 0.4400(3)
C13_3 C 0.5588(10) 0.8172(5) 0.4377(4)
C14_2 C 0.6701(10) 0.7176(5) 0.4666(4)
H7_2 H 0.6199 0.6952 0.4439
C15_3 C 0.6596(9) 0.7829(5) 0.4706(4)
C16_2 C 0.7397(11) 0.8130(5) 0.5016(4)
H8_2 H 0.7360 0.8569 0.5023
Cd2_2 Cd 0.3750 0.8750 0.3750
Cd3_2 Cd 0.3750 0.3750 0.8750
O3_6 O 0.2659(7) 0.2869(4) 0.8392(3)
O4_4 O 0.1927(9) 0.3766(4) 0.8100(3)
C5_4 C 0.1912(10) 0.3172(5) 0.8123(4)
C6_4 C 0.0799(10) 0.2176(5) 0.7834(4)
H3_4 H 0.1301 0.1952 0.8061
C7_4 C 0.0904(9) 0.2829(5) 0.7794(4)
C8_4 C 0.0103(11) 0.3130(5) 0.7484(4)
H4_4 H 0.0140 0.3569 0.7477
C14_3 C 0.0799(10) 0.0324(5) 0.4666(4)
H7_3 H 0.1301 0.0548 0.4439
O7_6 O 0.2659(7) 0.9631(4) 0.4108(3)
O8_4 O 0.1927(9) 0.8734(4) 0.4400(3)
C13_4 C 0.1912(10) 0.9328(5) 0.4377(4)
C15_4 C 0.0904(9) 0.9671(5) 0.4706(4)
C16_3 C 0.0103(11) 0.9370(5) 0.5016(4)
H8_3 H 0.0140 0.8931 0.5023
C8_5 C 0.0103(11) 0.4370(5) 0.0016(4)
H4_5 H 0.0140 0.3931 0.0023
O7_7 O 0.2659(7) 0.7869(4) 0.3392(3)
O8_5 O 0.1927(9) 0.8766(4) 0.3100(3)
C13_5 C 0.1912(10) 0.8172(5) 0.3123(4)
C14_4 C 0.0799(10) 0.7176(5) 0.2834(4)
H7_4 H 0.1301 0.6952 0.3061
C15_5 C 0.0904(9) 0.7829(5) 0.2794(4)
C16_4 C 0.0103(11) 0.8130(5) 0.2484(4)
H8_4 H 0.0140 0.8569 0.2477
O3_7 O 0.2659(7) 0.4631(4) 0.9108(3)
O4_5 O 0.1927(9) 0.3734(4) 0.9400(3)
C5_5 C 0.1912(10) 0.4328(5) 0.9377(4)
C6_5 C 0.0799(10) 0.5324(5) 0.9666(4)
H3_5 H 0.1301 0.5548 0.9439
C7_5 C 0.0904(9) 0.4671(5) 0.9706(4)
C4_4 C 0.7603(11) 0.1870(5) 0.9984(4)
H2_4 H 0.7640 0.1431 0.9977
O3_8 O 0.4841(7) 0.2869(4) 0.9108(3)
O4_6 O 0.5573(9) 0.3766(4) 0.9400(3)
C5_6 C 0.5588(10) 0.3172(5) 0.9377(4)
C6_6 C 0.6701(10) 0.2176(5) 0.9666(4)
H3_6 H 0.6199 0.1952 0.9439
C7_6 C 0.6596(9) 0.2829(5) 0.9706(4)
C10_3 C 0.8299(10) 0.9676(5) 0.2166(4)
H5_3 H 0.8801 0.9452 0.1939
O7_8 O 0.4841(7) 0.9631(4) 0.3392(3)
O8_6 O 0.5573(9) 0.8734(4) 0.3100(3)
C13_6 C 0.5588(10) 0.9328(5) 0.3123(4)
C15_6 C 0.6596(9) 0.9671(5) 0.2794(4)
C16_5 C 0.7397(11) 0.9370(5) 0.2484(4)
H8_5 H 0.7360 0.8931 0.2477
Cd1_3 Cd 0.6250 0.1250 0.6250
O1_3 O 0.7341(7) 0.2131(4) 0.6608(3)
O2_2 O 0.8073(9) 0.1234(4) 0.6900(3)
C1_4 C 0.8088(10) 0.1828(5) 0.6877(4)
C2_4 C 0.9201(10) 0.2824(5) 0.7166(4)
H1_4 H 0.8699 0.3048 0.6939
C3_4 C 0.9096(9) 0.2171(5) 0.7206(4)
C4_5 C 0.9897(11) 0.1870(5) 0.7516(4)
H2_5 H 0.9860 0.1431 0.7523
O5_3 O 0.7341(7) 0.0369(4) 0.5892(3)
O6_2 O 0.8073(9) 0.1266(4) 0.5600(3)
C9_4 C 0.8088(10) 0.0672(5) 0.5623(4)
C11_4 C 0.9096(9) 0.0329(5) 0.5294(4)
C12_3 C 0.9897(11) 0.0630(5) 0.4984(4)
H6_3 H 0.9860 0.1069 0.4977
O9_3 O 0.5159(7) 0.2131(4) 0.5892(3)
O10_3 O 0.5159(7) 0.0369(4) 0.6608(3)
O11_3 O 0.4427(9) 0.1234(4) 0.5600(3)
O12_3 O 0.4427(9) 0.1266(4) 0.6900(3)
C10_4 C 0.9201(10) 0.9676(5) 0.5334(4)
H5_4 H 0.8699 0.9452 0.5561
Cd1_4 Cd 0.6250 0.6250 0.1250
O1_4 O 0.7341(7) 0.5369(4) 0.0892(3)
O2_3 O 0.8073(9) 0.6266(4) 0.0600(3)
C1_5 C 0.8088(10) 0.5672(5) 0.0623(4)
C2_5 C 0.9201(10) 0.4676(5) 0.0334(4)
H1_5 H 0.8699 0.4452 0.0561
C3_5 C 0.9096(9) 0.5329(5) 0.0294(4)
O5_4 O 0.7341(7) 0.7131(4) 0.1608(3)
O6_3 O 0.8073(9) 0.6234(4) 0.1900(3)
C9_5 C 0.8088(10) 0.6828(5) 0.1877(4)
C10_5 C 0.9201(10) 0.7824(5) 0.2166(4)
H5_5 H 0.8699 0.8048 0.1939
C11_5 C 0.9096(9) 0.7171(5) 0.2206(4)
C12_4 C 0.9897(11) 0.6870(5) 0.2516(4)
H6_4 H 0.9860 0.6431 0.2523
O9_4 O 0.5159(7) 0.5369(4) 0.1608(3)
O10_4 O 0.5159(7) 0.7131(4) 0.0892(3)
O11_4 O 0.4427(9) 0.6266(4) 0.1900(3)
O12_4 O 0.4427(9) 0.6234(4) 0.0600(3)
C4_6 C 0.9897(11) 0.5630(5) 0.9984(4)
H2_6 H 0.9860 0.6069 0.9977
C1_6 C 0.4412(10) 0.5672(5) 0.1877(4)
C2_6 C 0.3299(10) 0.4676(5) 0.2166(4)
H1_6 H 0.3801 0.4452 0.1939
C3_6 C 0.3404(9) 0.5329(5) 0.2206(4)
C4_7 C 0.2603(11) 0.5630(5) 0.2516(4)
H2_7 H 0.2640 0.6069 0.2523
O4_7 O 0.0573(9) 0.3734(4) 0.3100(3)
C5_7 C 0.0588(10) 0.4328(5) 0.3123(4)
C6_7 C 0.1701(10) 0.5324(5) 0.2834(4)
H3_7 H 0.1199 0.5548 0.3061
C7_7 C 0.1596(9) 0.4671(5) 0.2794(4)
C8_6 C 0.2397(11) 0.4370(5) 0.2484(4)
H4_6 H 0.2360 0.3931 0.2477
C9_6 C 0.4412(10) 0.6828(5) 0.0623(4)
C10_6 C 0.3299(10) 0.7824(5) 0.0334(4)
H5_6 H 0.3801 0.8048 0.0561
C11_6 C 0.3404(9) 0.7171(5) 0.0294(4)
C16_6 C 0.2397(11) 0.8130(5) 0.0016(4)
H8_6 H 0.2360 0.8569 0.0023
C1_7 C 0.4412(10) 0.1828(5) 0.5623(4)
C2_7 C 0.3299(10) 0.2824(5) 0.5334(4)
H1_7 H 0.3801 0.3048 0.5561
C3_7 C 0.3404(9) 0.2171(5) 0.5294(4)
C4_8 C 0.2603(11) 0.1870(5) 0.4984(4)
H2_8 H 0.2640 0.1431 0.4977
O4_8 O 0.0573(9) 0.3766(4) 0.4400(3)
C5_8 C 0.0588(10) 0.3172(5) 0.4377(4)
C6_8 C 0.1701(10) 0.2176(5) 0.4666(4)
H3_8 H 0.1199 0.1952 0.4439
C7_8 C 0.1596(9) 0.2829(5) 0.4706(4)
C8_7 C 0.2397(11) 0.3130(5) 0.5016(4)
H4_7 H 0.2360 0.3569 0.5023
C9_7 C 0.4412(10) 0.0672(5) 0.6877(4)
C11_7 C 0.3404(9) 0.0329(5) 0.7206(4)
C12_5 C 0.2603(11) 0.0630(5) 0.7516(4)
H6_5 H 0.2640 0.1069 0.7523
C14_5 C 0.1701(10) 0.0324(5) 0.7834(4)
H7_5 H 0.1199 0.0548 0.8061
O2_4 O 0.9427(9) 0.1234(4) 0.0600(3)
C1_8 C 0.9412(10) 0.1828(5) 0.0623(4)
C2_8 C 0.8299(10) 0.2824(5) 0.0334(4)
H1_8 H 0.8801 0.3048 0.0561
C3_8 C 0.8404(9) 0.2171(5) 0.0294(4)
C8_8 C 0.7397(11) 0.3130(5) 0.0016(4)
H4_8 H 0.7360 0.3569 0.0023
O6_4 O 0.9427(9) 0.1266(4) 0.1900(3)
C9_8 C 0.9412(10) 0.0672(5) 0.1877(4)
C11_8 C 0.8404(9) 0.0329(5) 0.2206(4)
C12_6 C 0.7603(11) 0.0630(5) 0.2516(4)
H6_6 H 0.7640 0.1069 0.2523
C14_6 C 0.6701(10) 0.0324(5) 0.2834(4)
H7_6 H 0.6199 0.0548 0.3061
C12_7 C 0.2603(11) 0.6870(5) 0.9984(4)
H6_7 H 0.2640 0.6431 0.9977
O8_7 O 0.0573(9) 0.8766(4) 0.9400(3)
C13_7 C 0.0588(10) 0.8172(5) 0.9377(4)
C14_7 C 0.1701(10) 0.7176(5) 0.9666(4)
H7_7 H 0.1199 0.6952 0.9439
C15_7 C 0.1596(9) 0.7829(5) 0.9706(4)
C10_7 C 0.3299(10) 0.9676(5) 0.7166(4)
H5_7 H 0.3801 0.9452 0.6939
O8_8 O 0.0573(9) 0.8734(4) 0.8100(3)
C13_8 C 0.0588(10) 0.9328(5) 0.8123(4)
C15_8 C 0.1596(9) 0.9671(5) 0.7794(4)
C16_7 C 0.2397(11) 0.9370(5) 0.7484(4)
H8_7 H 0.2360 0.8931 0.7477
C12_8 C 0.4897(11) 0.0630(5) 0.9984(4)
H6_8 H 0.4860 0.1069 0.9977
C14_8 C 0.5799(10) 0.0324(5) 0.9666(4)
H7_8 H 0.6301 0.0548 0.9439
C10_8 C 0.4201(10) 0.9676(5) 0.0334(4)
H5_8 H 0.3699 0.9452 0.0561
C16_8 C 0.5103(11) 0.9370(5) 0.0016(4)
H8_8 H 0.5140 0.8931 0.0023
loop_
_geom_bond_atom_site_label_1
_geom_bond_atom_site_label_2
_geom_bond_site_symmetry_1
_geom_bond_site_symmetry_2
Cd1 O1 1_555 1_555
O5 Cd1 1_555 1_555
O9 Cd1 1_555 1_555
O10 Cd1 1_555 1_555
O11 Cd1 1_555 1_555
O12 Cd1 1_555 1_555
Cd1_2 O1_2 1_555 1_555
O5_2 Cd1_2 1_555 1_555
O9_2 Cd1_2 1_555 1_555
O10_2 Cd1_2 1_555 1_555
O11_2 Cd1_2 1_555 1_555
O12_2 Cd1_2 1_555 1_555
Cd3 O3 1_555 1_555
Cd2 O7 1_555 1_555
O9_2 C1 1_555 1_555
C1 O11_2 1_555 1_555
C2 H1 1_555 1_555
C3 C1 1_555 1_555
C4 C3 1_555 1_555
H2 C4 1_555 1_555
O3_2 C5 1_555 1_555
O4 C5 1_555 1_555
C5 C7 1_555 1_555
C6 C4 1_555 1_555
H3 C6 1_555 1_555
C7 C6 1_555 1_555
C8 C2 1_555 1_555
H4 C8 1_555 1_555
C9 O10_2 1_555 1_555
C11 C9 1_555 1_555
Cd3 O3_2 1_555 1_555
C2 C3 1_555 1_555
O4 Cd3 1_555 1_555
C7 C8 1_555 1_555
O12_2 C9 1_555 1_555
O7_2 C13 1_555 1_555
O8 C13 1_555 1_555
C13 C15 1_555 1_555
Cd2 O7_2 1_555 1_555
O8 Cd2 1_555 1_555
O9 C1_2 1_555 1_555
C1_2 O11 1_555 1_555
C2_2 H1_2 1_555 1_555
C3_2 C1_2 1_555 1_555
C4_2 C3_2 1_555 1_555
H2_2 C4_2 1_555 1_555
O3_3 C5_2 1_555 1_555
O4_2 C5_2 1_555 1_555
C5_2 C7_2 1_555 1_555
C6_2 C4_2 1_555 1_555
H3_2 C6_2 1_555 1_555
C7_2 C6_2 1_555 1_555
C8_2 C2_2 1_555 1_555
H4_2 C8_2 1_555 1_555
C9_2 O10 1_555 1_555
C10 H5 1_555 1_555
C11_2 C9_2 1_555 1_555
C12 C11_2 1_555 1_555
H6 C12 1_555 1_555
O7_3 C13_2 1_555 1_555
O8_2 C13_2 1_555 1_555
C13_2 C15_2 1_555 1_555
C14 C12 1_555 1_555
H7 C14 1_555 1_555
C15_2 C14 1_555 1_555
C16 C10 1_555 1_555
H8 C16 1_555 1_555
Cd2 O7_3 1_555 1_555
Cd3 O3_3 1_555 1_555
C2_2 C3_2 1_555 1_555
O4_2 Cd3 1_555 1_555
C7_2 C8_2 1_555 1_555
O12 C9_2 1_555 1_555
C10 C11_2 1_555 1_555
O8_2 Cd2 1_555 1_555
C15_2 C16 1_555 1_555
Cd3 O3_4 1_555 1_555
Cd2 O7_4 1_555 1_555
C1_3 O2 1_555 1_555
C2_3 H1_3 1_555 1_555
C3_3 C1_3 1_555 1_555
C4_3 C3_3 1_555 1_555
H2_3 C4_3 1_555 1_555
O3_5 C5_3 1_555 1_555
O4_3 C5_3 1_555 1_555
C5_3 C7_3 1_555 1_555
C6_3 C4_3 1_555 1_555
H3_3 C6_3 1_555 1_555
C7_3 C6_3 1_555 1_555
C8_3 C2_3 1_555 1_555
H4_3 C8_3 1_555 1_555
C10_2 H5_2 1_555 1_555
C11_3 C9_3 1_555 1_555
C12_2 C11_3 1_555 1_555
H6_2 C12_2 1_555 1_555
O7_5 C13_3 1_555 1_555
O8_3 C13_3 1_555 1_555
C13_3 C15_3 1_555 1_555
C14_2 C12_2 1_555 1_555
H7_2 C14_2 1_555 1_555
C15_3 C14_2 1_555 1_555
C16_2 C10_2 1_555 1_555
H8_2 C16_2 1_555 1_555
Cd2_2 O7_5 1_555 1_555
Cd3_2 O3_5 1_555 1_555
C2_3 C3_3 1_555 1_555
O4_3 Cd3_2 1_555 1_555
C7_3 C8_3 1_555 1_555
O6 C9_3 1_555 1_555
C10_2 C11_3 1_555 1_555
O8_3 Cd2_2 1_555 1_555
C15_3 C16_2 1_555 1_555
O3_6 C5_4 1_555 1_555
O4_4 C5_4 1_555 1_555
C5_4 C7_4 1_555 1_555
H3_4 C6_4 1_555 1_555
C7_4 C6_4 1_555 1_555
H4_4 C8_4 1_555 1_555
H7_3 C14_3 1_555 1_555
Cd3_2 O3_6 1_555 1_555
O4_4 Cd3_2 1_555 1_555
C7_4 C8_4 1_555 1_555
O7_6 C13_4 1_555 1_555
O8_4 C13_4 1_555 1_555
C13_4 C15_4 1_555 1_555
H8_3 C16_3 1_555 1_555
Cd2_2 O7_6 1_555 1_555
O8_4 Cd2_2 1_555 1_555
C15_4 C16_3 1_555 1_555
H4_5 C8_5 1_555 1_555
O7_7 C13_5 1_555 1_555
O8_5 C13_5 1_555 1_555
C13_5 C15_5 1_555 1_555
H7_4 C14_4 1_555 1_555
C15_5 C14_4 1_555 1_555
H8_4 C16_4 1_555 1_555
Cd2_2 O7_7 1_555 1_555
O8_5 Cd2_2 1_555 1_555
C15_5 C16_4 1_555 1_555
O3_7 C5_5 1_555 1_555
O4_5 C5_5 1_555 1_555
C5_5 C7_5 1_555 1_555
H3_5 C6_5 1_555 1_555
C7_5 C6_5 1_555 1_555
Cd3_2 O3_7 1_555 1_555
O4_5 Cd3_2 1_555 1_555
H2_4 C4_4 1_555 1_555
O3_8 C5_6 1_555 1_555
O4_6 C5_6 1_555 1_555
C5_6 C7_6 1_555 1_555
C6_6 C4_4 1_555 1_555
H3_6 C6_6 1_555 1_555
C7_6 C6_6 1_555 1_555
Cd3_2 O3_8 1_555 1_555
O4_6 Cd3_2 1_555 1_555
C10_3 H5_3 1_555 1_555
O7_8 C13_6 1_555 1_555
O8_6 C13_6 1_555 1_555
C13_6 C15_6 1_555 1_555
C16_5 C10_3 1_555 1_555
H8_5 C16_5 1_555 1_555
Cd2_2 O7_8 1_555 1_555
O8_6 Cd2_2 1_555 1_555
C15_6 C16_5 1_555 1_555
Cd1_3 O1_3 1_555 1_555
O1_3 C1_4 1_555 1_555
O2_2 Cd1_3 1_555 1_555
C1_4 O2_2 1_555 1_555
C2_4 H1_4 1_555 1_555
C3_4 C1_4 1_555 1_555
C4_5 C3_4 1_555 1_555
H2_5 C4_5 1_555 1_555
O5_3 Cd1_3 1_555 1_555
O6_2 Cd1_3 1_555 1_555
C9_4 O5_3 1_555 1_555
C11_4 C9_4 1_555 1_555
C12_3 C11_4 1_555 1_555
H6_3 C12_3 1_555 1_555
O9_3 Cd1_3 1_555 1_555
O10_3 Cd1_3 1_555 1_555
O11_3 Cd1_3 1_555 1_555
O12_3 Cd1_3 1_555 1_555
C2_4 C3_4 1_555 1_555
O6_2 C9_4 1_555 1_555
C10_4 H5_4 1_555 1_555
Cd1_4 O1_4 1_555 1_555
O1_4 C1_5 1_555 1_555
O2_3 Cd1_4 1_555 1_555
C1_5 O2_3 1_555 1_555
C2_5 H1_5 1_555 1_555
C3_5 C1_5 1_555 1_555
O5_4 Cd1_4 1_555 1_555
O6_3 Cd1_4 1_555 1_555
C9_5 O5_4 1_555 1_555
C10_5 H5_5 1_555 1_555
C11_5 C9_5 1_555 1_555
C12_4 C11_5 1_555 1_555
H6_4 C12_4 1_555 1_555
O9_4 Cd1_4 1_555 1_555
O10_4 Cd1_4 1_555 1_555
O11_4 Cd1_4 1_555 1_555
O12_4 Cd1_4 1_555 1_555
C2_5 C3_5 1_555 1_555
O6_3 C9_5 1_555 1_555
C10_5 C11_5 1_555 1_555
H2_6 C4_6 1_555 1_555
O9_4 C1_6 1_555 1_555
C1_6 O11_4 1_555 1_555
C2_6 H1_6 1_555 1_555
C3_6 C1_6 1_555 1_555
C4_7 C3_6 1_555 1_555
H2_7 C4_7 1_555 1_555
O4_7 C5_7 1_555 1_555
C5_7 C7_7 1_555 1_555
C6_7 C4_7 1_555 1_555
H3_7 C6_7 1_555 1_555
C7_7 C6_7 1_555 1_555
C8_6 C2_6 1_555 1_555
H4_6 C8_6 1_555 1_555
C9_6 O10_4 1_555 1_555
C10_6 H5_6 1_555 1_555
C11_6 C9_6 1_555 1_555
C16_6 C10_6 1_555 1_555
H8_6 C16_6 1_555 1_555
C2_6 C3_6 1_555 1_555
C7_7 C8_6 1_555 1_555
O12_4 C9_6 1_555 1_555
C10_6 C11_6 1_555 1_555
O9_3 C1_7 1_555 1_555
C1_7 O11_3 1_555 1_555
C2_7 H1_7 1_555 1_555
C3_7 C1_7 1_555 1_555
C4_8 C3_7 1_555 1_555
H2_8 C4_8 1_555 1_555
O4_8 C5_8 1_555 1_555
C5_8 C7_8 1_555 1_555
C6_8 C4_8 1_555 1_555
H3_8 C6_8 1_555 1_555
C7_8 C6_8 1_555 1_555
C8_7 C2_7 1_555 1_555
H4_7 C8_7 1_555 1_555
C9_7 O10_3 1_555 1_555
C11_7 C9_7 1_555 1_555
C12_5 C11_7 1_555 1_555
H6_5 C12_5 1_555 1_555
C14_5 C12_5 1_555 1_555
H7_5 C14_5 1_555 1_555
C2_7 C3_7 1_555 1_555
C7_8 C8_7 1_555 1_555
O12_3 C9_7 1_555 1_555
C1_8 O2_4 1_555 1_555
C2_8 H1_8 1_555 1_555
C3_8 C1_8 1_555 1_555
C8_8 C2_8 1_555 1_555
H4_8 C8_8 1_555 1_555
C11_8 C9_8 1_555 1_555
C12_6 C11_8 1_555 1_555
H6_6 C12_6 1_555 1_555
C14_6 C12_6 1_555 1_555
H7_6 C14_6 1_555 1_555
C2_8 C3_8 1_555 1_555
O6_4 C9_8 1_555 1_555
H6_7 C12_7 1_555 1_555
O8_7 C13_7 1_555 1_555
C13_7 C15_7 1_555 1_555
C14_7 C12_7 1_555 1_555
H7_7 C14_7 1_555 1_555
C15_7 C14_7 1_555 1_555
C10_7 H5_7 1_555 1_555
O8_8 C13_8 1_555 1_555
C13_8 C15_8 1_555 1_555
C16_7 C10_7 1_555 1_555
H8_7 C16_7 1_555 1_555
C15_8 C16_7 1_555 1_555
H6_8 C12_8 1_555 1_555
C14_8 C12_8 1_555 1_555
H7_8 C14_8 1_555 1_555
C10_8 H5_8 1_555 1_555
C16_8 C10_8 1_555 1_555
H8_8 C16_8 1_555 1_555

#END
