
###############################################################################
#
# This file contains modified crystal structure data generated from the
# MOF subset of the Cambridge Structural Database (CSD) v543 
# hosted by the Cambridge Crystallographic Data Centre (CCDC).
#
# This work is licensed under the Creative Commons
# Attribution-NonCommercial-ShareAlike 4.0 International License.
# To view a copy of this license, visit
# http://creativecommons.org/licenses/by-nc-sa/4.0/
# or send a letter to
# Creative Commons, PO Box 1866, Mountain View, CA 94042, USA.
#
# CIF created using the CSD Python API on 29 September 2022
# The structure has been converted into the P1 space group
# The structure has a 3D framework
# The original CSD entry KABGON is in the hexagonal crystal system
# The original CSD entry KABGON is in a Sohncke space group
# The framework has been calculated to contain at least 10.0% void space
# The void calculation uses a probe of radius 1.32A, grid spacing 0.4
# The framework is charged, counterions have been retained in the structure
#
###############################################################################

data_KABGON
_chemical_formula_moiety         '(C48 H24 Cd5 O24 4-)n'
_symmetry_cell_setting           triclinic
_symmetry_space_group_name_H-M   'P 1'
_symmetry_Int_Tables_number      1
_space_group_name_Hall           'P 1'
loop_
_symmetry_equiv_pos_site_id
_symmetry_equiv_pos_as_xyz
1 x,y,z
_cell_length_a                   13.9227(2)
_cell_length_b                   13.9227(2)
_cell_length_c                   13.3089(2)
_cell_angle_alpha                90
_cell_angle_beta                 90
_cell_angle_gamma                120
_cell_volume                     2234.19
loop_
_atom_site_label
_atom_site_type_symbol
_atom_site_fract_x
_atom_site_fract_y
_atom_site_fract_z
Cd1 Cd 0.5000 -0.0000 0.5000
O5 O 0.5810(7) 0.1379(5) 0.3754(4)
O6 O 0.4018(7) 0.0684(6) 0.3926(5)
C9 C 0.4941(10) 0.1305(7) 0.3486(6)
C10 C 0.4909(9) 0.1914(6) 0.2551(6)
C11 C 0.5900(7) 0.2671(7) 0.2102(6)
H5 H 0.6569 0.2808 0.2382
C12 C 0.3908(8) 0.1704(7) 0.2108(8)
H6 H 0.3238 0.1220 0.2419
C14 C 0.4909(9) 0.2995(11) 0.0782(6)
C15 C 0.5900(7) 0.3229(10) 0.1231(6)
H7 H 0.6569 0.3761 0.0951
C16 C 0.3908(8) 0.2204(11) 0.1225(8)
H8 H 0.3238 0.2018 0.0914
O9 O 0.5569(9) 0.1379(5) 0.6246(4)
O11 O 0.6666(9) 0.0684(6) 0.6074(5)
Cd1_2 Cd 0.5000 1.0000 0.5000
O1 O 0.4190(7) 0.8621(5) 0.3754(4)
O2 O 0.5982(7) 0.9316(6) 0.3926(5)
C1 C 0.5059(10) 0.8695(7) 0.3486(6)
C2 C 0.5091(9) 0.8086(6) 0.2551(6)
C3 C 0.4100(7) 0.7329(7) 0.2102(6)
H1 H 0.3431 0.7192 0.2382
C4 C 0.6092(8) 0.8296(7) 0.2108(8)
H2 H 0.6762 0.8780 0.2419
C6 C 0.5091(9) 0.7005(11) 0.0782(6)
C7 C 0.4100(7) 0.6771(10) 0.1231(6)
H3 H 0.3431 0.6239 0.0951
C8 C 0.6092(8) 0.7796(11) 0.1225(8)
H4 H 0.6762 0.7982 0.0914
O10 O 0.4431(9) 0.8621(5) 0.6246(4)
O12 O 0.3334(9) 0.9316(6) 0.6074(5)
C2_2 C 0.1914(6) 0.7005(11) 0.9218(6)
C3_2 C 0.2671(7) 0.6771(10) 0.8769(6)
H1_2 H 0.2808 0.6239 0.9049
C4_2 C 0.1704(7) 0.7796(11) 0.8775(8)
H2_2 H 0.1220 0.7982 0.9086
C5 C 0.3636(12) 0.8695(16) 0.6514(6)
C6_2 C 0.2995(11) 0.8086(14) 0.7449(6)
C7_2 C 0.3229(10) 0.7329(12) 0.7898(6)
H3_2 H 0.3761 0.7192 0.7618
C8_2 C 0.2204(11) 0.8296(14) 0.7892(8)
H4_2 H 0.2018 0.8780 0.7581
C10_2 C 0.8086(6) 0.2995(11) 0.9218(6)
C11_2 C 0.7329(7) 0.3229(10) 0.8769(6)
H5_2 H 0.7192 0.3761 0.9049
C12_2 C 0.8296(7) 0.2204(11) 0.8775(8)
H6_2 H 0.8780 0.2018 0.9086
C13 C 0.6364(12) 0.1305(16) 0.6514(6)
C14_2 C 0.7005(11) 0.1914(14) 0.7449(6)
C15_2 C 0.6771(10) 0.2671(12) 0.7898(6)
H7_2 H 0.6239 0.2808 0.7618
C16_2 C 0.7796(11) 0.1704(14) 0.7892(8)
H8_2 H 0.7982 0.1220 0.7581
O7 O 0.5810(7) 0.4431(9) 0.9579(4)
O8 O 0.4018(7) 0.3334(9) 0.9407(5)
C13_2 C 0.4941(10) 0.3636(12) 0.9847(6)
Cd3 Cd 0.5000 0.5000 0.8333
O3 O 0.4190(7) 0.5569(9) 0.9579(4)
O4 O 0.5982(7) 0.6666(9) 0.9407(5)
C5_2 C 0.5059(10) 0.6364(12) 0.9847(6)
Cd1_3 Cd 0.0000 0.5000 0.1667
O1_2 O 0.1379(5) 0.5569(9) 0.0421(4)
O2_2 O 0.0684(6) 0.6666(9) 0.0593(5)
C1_2 C 0.1305(7) 0.6364(12) 0.0153(6)
O10_2 O 0.1379(5) 0.5810(10) 0.2913(4)
O12_2 O 0.0684(6) 0.4018(11) 0.2741(5)
Cd1_4 Cd 1.0000 0.5000 0.1667
O5_2 O 0.8621(5) 0.4431(9) 0.0421(4)
O6_2 O 0.9316(6) 0.3334(9) 0.0593(5)
C9_2 C 0.8695(7) 0.3636(12) 0.0153(6)
O9_2 O 0.8621(5) 0.4190(10) 0.2913(4)
O11_2 O 0.9316(6) 0.5982(11) 0.2741(5)
O1_3 O 0.4431(9) 0.5810(7) 0.7087(4)
O2_3 O 0.3334(9) 0.4018(7) 0.7259(5)
C1_3 C 0.3636(12) 0.4941(10) 0.6819(6)
C2_3 C 0.2995(11) 0.4909(9) 0.5884(6)
C3_3 C 0.3229(10) 0.5900(7) 0.5435(6)
H1_3 H 0.3761 0.6569 0.5715
C4_3 C 0.2204(11) 0.3908(8) 0.5441(8)
H2_3 H 0.2018 0.3238 0.5752
C5_3 C 0.1305(16) 0.4941(10) 0.3181(6)
C6_3 C 0.1914(14) 0.4909(9) 0.4116(6)
C7_3 C 0.2671(12) 0.5900(7) 0.4565(6)
H3_3 H 0.2808 0.6569 0.4285
C8_3 C 0.1704(14) 0.3908(8) 0.4559(8)
H4_3 H 0.1220 0.3238 0.4248
O5_3 O 0.5569(9) 0.4190(7) 0.7087(4)
O6_3 O 0.6666(9) 0.5982(7) 0.7259(5)
C9_3 C 0.6364(12) 0.5059(10) 0.6819(6)
C10_3 C 0.7005(11) 0.5091(9) 0.5884(6)
C11_3 C 0.6771(10) 0.4100(7) 0.5435(6)
H5_3 H 0.6239 0.3431 0.5715
C12_3 C 0.7796(11) 0.6092(8) 0.5441(8)
H6_3 H 0.7982 0.6762 0.5752
C13_3 C 0.8695(16) 0.5059(10) 0.3181(6)
C14_3 C 0.8086(14) 0.5091(9) 0.4116(6)
C15_3 C 0.7329(12) 0.4100(7) 0.4565(6)
H7_3 H 0.7192 0.3431 0.4285
C16_3 C 0.8296(14) 0.6092(8) 0.4559(8)
H8_3 H 0.8780 0.6762 0.4248
loop_
_geom_bond_atom_site_label_1
_geom_bond_atom_site_label_2
_geom_bond_site_symmetry_1
_geom_bond_site_symmetry_2
O5 Cd1 1_555 1_555
O6 Cd1 1_555 1_555
C9 O5 1_555 1_555
C10 C9 1_555 1_555
C11 C10 1_555 1_555
H5 C11 1_555 1_555
C12 C10 1_555 1_555
H6 C12 1_555 1_555
C14 C15 1_555 1_555
C15 C11 1_555 1_555
H7 C15 1_555 1_555
C16 C12 1_555 1_555
H8 C16 1_555 1_555
O9 Cd1 1_555 1_555
O11 Cd1 1_555 1_555
O6 C9 1_555 1_555
C14 C16 1_555 1_555
Cd1_2 O1 1_555 1_555
O1 C1 1_555 1_555
O2 Cd1_2 1_555 1_555
C1 O2 1_555 1_555
C2 C1 1_555 1_555
C3 C2 1_555 1_555
H1 C3 1_555 1_555
C4 C2 1_555 1_555
H2 C4 1_555 1_555
C6 C7 1_555 1_555
C7 C3 1_555 1_555
H3 C7 1_555 1_555
C8 C4 1_555 1_555
H4 C8 1_555 1_555
O10 Cd1_2 1_555 1_555
O12 Cd1_2 1_555 1_555
C6 C8 1_555 1_555
C3_2 C2_2 1_555 1_555
H1_2 C3_2 1_555 1_555
C4_2 C2_2 1_555 1_555
H2_2 C4_2 1_555 1_555
O10 C5 1_555 1_555
O12 C5 1_555 1_555
C5 C6_2 1_555 1_555
C6_2 C7_2 1_555 1_555
C7_2 C3_2 1_555 1_555
H3_2 C7_2 1_555 1_555
C8_2 C4_2 1_555 1_555
H4_2 C8_2 1_555 1_555
C6_2 C8_2 1_555 1_555
C11_2 C10_2 1_555 1_555
H5_2 C11_2 1_555 1_555
C12_2 C10_2 1_555 1_555
H6_2 C12_2 1_555 1_555
O9 C13 1_555 1_555
O11 C13 1_555 1_555
C13 C14_2 1_555 1_555
C14_2 C15_2 1_555 1_555
C15_2 C11_2 1_555 1_555
H7_2 C15_2 1_555 1_555
C16_2 C12_2 1_555 1_555
H8_2 C16_2 1_555 1_555
C14_2 C16_2 1_555 1_555
O7 C13_2 1_555 1_555
O8 C13_2 1_555 1_555
Cd3 O7 1_555 1_555
O8 Cd3 1_555 1_555
O3 C5_2 1_555 1_555
O4 C5_2 1_555 1_555
Cd3 O3 1_555 1_555
O4 Cd3 1_555 1_555
Cd1_3 O1_2 1_555 1_555
O1_2 C1_2 1_555 1_555
O2_2 Cd1_3 1_555 1_555
C1_2 O2_2 1_555 1_555
O10_2 Cd1_3 1_555 1_555
O12_2 Cd1_3 1_555 1_555
O5_2 Cd1_4 1_555 1_555
O6_2 Cd1_4 1_555 1_555
C9_2 O5_2 1_555 1_555
O9_2 Cd1_4 1_555 1_555
O11_2 Cd1_4 1_555 1_555
O6_2 C9_2 1_555 1_555
Cd3 O1_3 1_555 1_555
O1_3 C1_3 1_555 1_555
O2_3 Cd3 1_555 1_555
C1_3 O2_3 1_555 1_555
C2_3 C1_3 1_555 1_555
C3_3 C2_3 1_555 1_555
H1_3 C3_3 1_555 1_555
C4_3 C2_3 1_555 1_555
H2_3 C4_3 1_555 1_555
O10_2 C5_3 1_555 1_555
O12_2 C5_3 1_555 1_555
C5_3 C6_3 1_555 1_555
C6_3 C7_3 1_555 1_555
C7_3 C3_3 1_555 1_555
H3_3 C7_3 1_555 1_555
C8_3 C4_3 1_555 1_555
H4_3 C8_3 1_555 1_555
O5_3 Cd3 1_555 1_555
O6_3 Cd3 1_555 1_555
C9_3 O5_3 1_555 1_555
C10_3 C9_3 1_555 1_555
C11_3 C10_3 1_555 1_555
H5_3 C11_3 1_555 1_555
C12_3 C10_3 1_555 1_555
H6_3 C12_3 1_555 1_555
O9_2 C13_3 1_555 1_555
O11_2 C13_3 1_555 1_555
C13_3 C14_3 1_555 1_555
C14_3 C15_3 1_555 1_555
C15_3 C11_3 1_555 1_555
H7_3 C15_3 1_555 1_555
C16_3 C12_3 1_555 1_555
H8_3 C16_3 1_555 1_555
C6_3 C8_3 1_555 1_555
O6_3 C9_3 1_555 1_555
C14_3 C16_3 1_555 1_555

#END
