
###############################################################################
#
# This file contains modified crystal structure data generated from the
# MOF subset of the Cambridge Structural Database (CSD) v543 
# hosted by the Cambridge Crystallographic Data Centre (CCDC).
#
# This work is licensed under the Creative Commons
# Attribution-NonCommercial-ShareAlike 4.0 International License.
# To view a copy of this license, visit
# http://creativecommons.org/licenses/by-nc-sa/4.0/
# or send a letter to
# Creative Commons, PO Box 1866, Mountain View, CA 94042, USA.
#
# CIF created using the CSD Python API on 29 September 2022
# The structure has been converted into the P1 space group
# The structure has a 3D framework
# The original CSD entry KABJEG is in the triclinic crystal system
# The framework has been calculated to contain at least 10.0% void space
# The void calculation uses a probe of radius 1.32A, grid spacing 0.4
# The framework is charged, counterions have been retained in the structure
#
###############################################################################

data_KABJEG
_chemical_formula_moiety         '(C116 H100 Ca4 N18 O28)n'
_symmetry_cell_setting           triclinic
_symmetry_space_group_name_H-M   'P 1'
_symmetry_Int_Tables_number      1
_space_group_name_Hall           'P 1'
loop_
_symmetry_equiv_pos_site_id
_symmetry_equiv_pos_as_xyz
1 x,y,z
_cell_length_a                   17.0339(5)
_cell_length_b                   17.1196(4)
_cell_length_c                   17.9227(6)
_cell_angle_alpha                90.805(2)
_cell_angle_beta                 116.455(3)
_cell_angle_gamma                117.979(3)
_cell_volume                     3964.45
loop_
_atom_site_label
_atom_site_type_symbol
_atom_site_fract_x
_atom_site_fract_y
_atom_site_fract_z
O2 O 0.04996(12) 0.23200(12) 0.82342(11)
O7 O 0.06034(15) 0.36329(13) 0.85127(16)
C4 C 0.01540(19) 0.27838(18) 0.83757(18)
Ca16 Ca 0.22119(3) 0.38027(3) 0.87101(3)
Ca20 Ca 0.04952(4) 0.15081(3) 0.71582(3)
Ca8 Ca 0.500000 0.500000 0.000000
O1 O 0.36685(13) 0.35556(11) 0.90531(12)
O4 O 0.21836(13) 0.22307(12) 0.84706(14)
N3 N 0.59980(19) 0.12807(15) 0.8579(2)
C2 C 0.36677(19) 0.22064(17) 0.87315(18)
C3 C 0.31385(18) 0.26899(16) 0.87522(17)
C5 C 0.4697(2) 0.27045(17) 0.89489(19)
H1 H 0.507487 0.335923 0.912870
C6 C 0.4632(2) 0.12929(18) 0.8658(2)
C9 C 0.5172(2) 0.22492(18) 0.8904(2)
H2 H 0.587215 0.259338 0.904279
C11 C 0.7717(2) 0.08318(18) 0.8215(2)
H3 H 0.734387 0.017738 0.806508
C14 C 0.8605(2) 0.13079(18) 0.8167(2)
H5 H 0.883175 0.097695 0.797775
C16 C 0.3120(2) 0.12467(18) 0.8480(2)
H6 H 0.241708 0.090429 0.833176
C18 C 0.9161(2) 0.22587(18) 0.8391(2)
C20 C 0.6419(2) 0.08052(19) 0.8532(2)
C23 C 0.7373(2) 0.13054(19) 0.8482(2)
C24 C 0.5134(2) 0.08017(18) 0.8610(2)
C29 C 0.3595(2) 0.07914(19) 0.8444(3)
H10 H 0.321960 0.013658 0.827484
C42 C 0.7929(3) 0.2259(2) 0.8699(3)
H19 H 0.769578 0.259108 0.887708
C43 C 0.8825(3) 0.2735(2) 0.8661(3)
H20 H 0.920664 0.338958 0.882048
O28 O 0.1067(4) 0.0890(3) 0.6548(3)
N15 N 0.1944(7) 0.0709(7) 0.6063(4)
C108 C 0.2741(8) 0.1837(5) 0.6420(6)
H73 H 0.343587 0.198979 0.685608
H74 H 0.276282 0.208209 0.593366
H75 H 0.249809 0.211119 0.668169
C109 C 0.1318(8) 0.0489(8) 0.6226(4)
C111 C 0.2293(8) 0.0301(7) 0.5656(8)
H79 H 0.294838 0.078497 0.572087
H81 H 0.177113 0.000208 0.503782
Ca8_2 Ca 0.500000 0.500000 1.000000
O48 O 0.16090(18) 0.32521(17) 0.72626(14)
O52 O 0.0522(3) 0.2258(2) 0.59893(19)
Ca12 Ca 0.77881(3) 0.61973(3) 0.12899(3)
O32 O 0.63315(13) 0.64444(11) 0.09469(12)
O39 O 0.37712(13) 0.47814(12) 0.03303(11)
O42 O 0.59540(16) 0.45966(13) 0.11025(13)
O3 O 0.62288(13) 0.52186(12) 0.96697(11)
O5 O 0.40460(16) 0.54034(13) 0.88975(13)
O6 O 0.76636(15) 0.64687(13) 0.99188(12)
O8 O 0.83910(18) 0.67479(17) 0.27374(14)
O9 O 0.26071(17) 0.53126(14) 0.86356(18)
N1 N 0.60607(18) 0.99237(15) 0.85390(19)
N2 N 0.47000(19) 0.99194(16) 0.8613(2)
C1 C 0.68250(19) 0.57419(16) 0.94177(16)
N4 N 0.4763(2) 0.37966(19) 0.53499(16)
N5 N 0.5188(2) 0.39705(19) 0.42453(16)
O12 O 0.0319(2) 0.01931(18) 0.13352(17)
N6 N 0.6386(2) 0.50511(18) 0.56429(16)
C7 C 0.6516(2) 0.54437(18) 0.84901(17)
C8 C 0.4760(2) 0.85441(18) 0.8612(2)
C10 C 0.3930(2) 0.67205(18) 0.8683(2)
C12 C 0.4855(2) 0.71885(19) 0.8689(2)
H4 H 0.521363 0.688756 0.872590
C13 C 0.3501(2) 0.57477(18) 0.87490(19)
C15 C 0.5199(2) 0.95169(18) 0.8583(2)
O13 O 0.9478(3) 0.7742(2) 0.40107(19)
C17 C 0.5526(2) 0.4725(2) 0.78911(18)
H7 H 0.502962 0.442825 0.806372
C19 C 0.5261(2) 0.80870(19) 0.8643(2)
H8 H 0.588612 0.839387 0.863264
C21 C 0.5976(2) 0.4873(2) 0.67798(18)
C22 C 0.1608(2) 0.11524(19) 0.2755(2)
C25 C 0.7230(2) 0.5876(2) 0.82236(19)
H9 H 0.790999 0.637223 0.863105
C26 C 0.6088(3) 0.4736(2) 0.48161(19)
C27 C 0.5697(3) 0.4555(2) 0.58740(19)
C28 C 0.3536(3) 0.2704(2) 0.39267(19)
C30 C 0.5255(2) 0.4438(2) 0.70421(19)
H11 H 0.457501 0.394236 0.663469
C31 C 0.6966(2) 0.5596(2) 0.7380(2)
H12 H 0.746248 0.589823 0.720875
C32 C 0.4559(3) 0.3534(2) 0.4543(2)
C33 C 0.1871(3) 0.1442(2) 0.3598(2)
H13 H 0.139305 0.110899 0.378123
C34 C 0.6538(3) 0.4982(2) 0.3657(2)
H14 H 0.593815 0.439596 0.329356
C35 C 0.0563(3) 0.0313(2) 0.2114(2)
C36 C 0.6792(3) 0.5287(2) 0.4501(2)
C37 C 0.2320(3) 0.1632(2) 0.2509(2)
H15 H 0.214957 0.143068 0.193165
C38 C 0.3825(3) 0.8071(2) 0.8591(3)
H16 H 0.346451 0.836926 0.855463
C39 C 0.7152(3) 0.5526(2) 0.3343(2)
H17 H 0.696430 0.531764 0.276117
C40 C 0.8680(3) 0.6991(3) 0.3514(2)
C41 C 0.2826(3) 0.2215(2) 0.4181(2)
H18 H 0.299584 0.241205 0.475911
C44 C 0.3414(3) 0.7158(2) 0.8623(3)
H21 H 0.277074 0.683675 0.860248
C45 C 0.3273(3) 0.2398(3) 0.3083(2)
H22 H 0.375335 0.271894 0.290002
C46 C 0.8035(3) 0.6369(2) 0.3868(2)
C47 C 0.7680(3) 0.6129(3) 0.5028(2)
H23 H 0.786794 0.634313 0.560817
C48 C 0.8294(4) 0.6658(3) 0.4711(2)
H24 H 0.890875 0.723445 0.508025
C51 C 0.3155(4) 0.0137(5) 0.4123(5)
H28 H 0.338011 0.028932 0.369949
H29 H 0.373831 0.052768 0.470656
H30 H 0.259344 0.024249 0.398145
C110 C 0.0634(6) 0.9364(5) 0.5951(6)
H76 H 0.004630 0.915805 0.603791
H77 H 0.037761 0.911955 0.533776
H78 H 0.106692 0.913813 0.631105
H80 H 0.239389 0.984254 0.593773
Ca18 Ca 0.95048(4) 0.84919(3) 0.28418(3)
O36 O 0.95004(12) 0.76800(12) 0.17658(11)
O41 O 0.78164(13) 0.77693(12) 0.15294(14)
O46 O 0.93966(15) 0.63671(13) 0.14873(16)
O50 O 0.73929(17) 0.46874(14) 0.13644(18)
O44 O 0.23364(15) 0.35313(13) 0.00812(12)
C54 C 0.9366(6) 0.0636(5) 0.4049(6)
H34 H 0.995370 0.084195 0.396209
H35 H 0.962239 0.088045 0.466224
H36 H 0.893308 0.086187 0.368895
H38 H 0.760611 0.015746 0.406227
N9 N 0.39393(18) 0.00763(15) 0.14610(19)
N10 N 0.53000(19) 0.00806(16) 0.1387(2)
C57 C 0.31750(19) 0.42581(16) 0.05823(16)
N12 N 0.5237(2) 0.62034(19) 0.46501(16)
N13 N 0.4812(2) 0.60295(19) 0.57547(16)
O26 O 0.9681(2) 0.98069(18) 0.86648(17)
N14 N 0.3614(2) 0.49489(18) 0.43571(16)
C63 C 0.3484(2) 0.45563(18) 0.15099(17)
C64 C 0.5240(2) 0.14559(18) 0.1388(2)
C66 C 0.6070(2) 0.32795(18) 0.1317(2)
C68 C 0.5145(2) 0.28115(19) 0.1311(2)
H46 H 0.478637 0.311244 0.127410
C69 C 0.6499(2) 0.42523(18) 0.12510(19)
C71 C 0.4801(2) 0.04831(18) 0.1417(2)
C73 C 0.4474(2) 0.5275(2) 0.21089(18)
H49 H 0.497038 0.557175 0.193628
C75 C 0.4739(2) 0.19130(19) 0.1357(2)
H50 H 0.411388 0.160613 0.136736
C77 C 0.4024(2) 0.5127(2) 0.32202(18)
C78 C 0.8392(2) 0.88476(19) 0.7245(2)
C81 C 0.2770(2) 0.4124(2) 0.17764(19)
H51 H 0.209001 0.362777 0.136895
C82 C 0.3912(3) 0.5264(2) 0.51839(19)
C83 C 0.4303(3) 0.5445(2) 0.41260(19)
C84 C 0.6464(3) 0.7296(2) 0.60733(19)
C86 C 0.4745(2) 0.5562(2) 0.29579(19)
H53 H 0.542499 0.605764 0.336531
C87 C 0.3034(2) 0.4404(2) 0.2620(2)
H54 H 0.253752 0.410177 0.279125
C88 C 0.5441(3) 0.6466(2) 0.5457(2)
C89 C 0.8129(3) 0.8558(2) 0.6402(2)
H55 H 0.860695 0.889101 0.621877
C90 C 0.3462(3) 0.5018(2) 0.6343(2)
H56 H 0.406185 0.560404 0.670644
C91 C 0.9437(3) 0.9687(2) 0.7886(2)
C92 C 0.3208(3) 0.4713(2) 0.5499(2)
C93 C 0.7680(3) 0.8368(2) 0.7491(2)
H57 H 0.785043 0.856932 0.806835
C94 C 0.6175(3) 0.1929(2) 0.1409(3)
H58 H 0.653549 0.163074 0.144537
C95 C 0.2848(3) 0.4474(2) 0.6657(2)
H59 H 0.303570 0.468236 0.723883
C96 C 0.1320(3) 0.3009(3) 0.6486(2)
C97 C 0.7174(3) 0.7785(2) 0.5819(2)
H60 H 0.700416 0.758795 0.524089
C100 C 0.6586(3) 0.2842(2) 0.1377(3)
H63 H 0.722926 0.316325 0.139752
C101 C 0.6727(3) 0.7602(3) 0.6917(2)
H64 H 0.624665 0.728106 0.709998
C102 C 0.1965(3) 0.3631(2) 0.6132(2)
C103 C 0.2320(3) 0.3871(3) 0.4972(2)
H65 H 0.213206 0.365687 0.439183
C104 C 0.1706(4) 0.3342(3) 0.5289(2)
H66 H 0.109125 0.276555 0.491975
C107 C 0.6845(4) 0.9863(5) 0.5877(5)
H70 H 0.661989 0.971068 0.630051
H71 H 0.626169 0.947232 0.529344
H72 H 0.740656 0.975751 0.601855
O14 O 0.8933(4) 0.9110(3) 0.3452(3)
N7 N 0.8056(7) 0.9291(7) 0.3937(4)
C52 C 0.7259(8) 0.8163(5) 0.3580(6)
H31 H 0.656413 0.801021 0.314392
H32 H 0.723718 0.791791 0.406634
H33 H 0.750191 0.788881 0.331831
C53 C 0.8682(8) 0.9511(8) 0.3774(4)
C55 C 0.7707(8) 0.9699(7) 0.4344(8)
H37 H 0.705162 0.921503 0.427913
H39 H 0.822887 0.999792 0.496218
N11 N 0.40020(19) 0.87193(15) 0.1421(2)
C58 C 0.63323(19) 0.77936(17) 0.12685(18)
C59 C 0.68615(18) 0.73101(16) 0.12478(17)
C61 C 0.5303(2) 0.72955(17) 0.10511(19)
H43 H 0.492513 0.664077 0.087130
C62 C 0.5368(2) 0.87071(18) 0.1342(2)
C65 C 0.4828(2) 0.77508(18) 0.1096(2)
H44 H 0.412785 0.740662 0.095721
C67 C 0.2283(2) 0.91682(18) 0.1785(2)
H45 H 0.265613 0.982262 0.193492
C70 C 0.1395(2) 0.86921(18) 0.1833(2)
H47 H 0.116825 0.902305 0.202225
C72 C 0.6880(2) 0.87533(18) 0.1520(2)
H48 H 0.758292 0.909571 0.166824
C74 C 0.0839(2) 0.77413(18) 0.1609(2)
C76 C 0.3581(2) 0.91948(19) 0.1468(2)
C79 C 0.2627(2) 0.86946(19) 0.1518(2)
C80 C 0.4866(2) 0.91983(18) 0.1390(2)
C85 C 0.6405(2) 0.92086(19) 0.1556(3)
H52 H 0.678040 0.986342 0.172516
C98 C 0.2071(3) 0.7741(2) 0.1301(3)
H61 H 0.230422 0.740892 0.112292
C99 C 0.1175(3) 0.7265(2) 0.1339(3)
H62 H 0.079336 0.661042 0.117952
C60 C 0.98460(19) 0.72162(18) 0.16243(18)
O10 O 0.00278(19) 0.97797(16) 0.23900(17)
O11 O 0.12494(18) 0.89942(18) 0.36860(16)
C49 C 0.1910(5) 0.8775(5) 0.3871(3)
C50 C 0.1498(6) 0.7687(5) 0.3847(4)
H25 H 0.081925 0.738847 0.379948
H26 H 0.199022 0.765079 0.438197
H27 H 0.143729 0.737277 0.334531
N8 N 0.2801(5) 0.9203(7) 0.4094(4)
C56 C 0.3407(8) 0.8734(9) 0.4187(6)
H40 H 0.294207 0.806435 0.402519
H41 H 0.397214 0.895021 0.479081
H42 H 0.369417 0.888941 0.380480
O24 O 0.99722(19) 0.02203(16) 0.76100(17)
O25 O 0.87506(18) 0.10058(18) 0.63140(16)
C105 C 0.8090(5) 0.1225(5) 0.6129(3)
C106 C 0.8502(6) 0.2313(5) 0.6153(4)
H67 H 0.918075 0.261153 0.620052
H68 H 0.800978 0.234921 0.561803
H69 H 0.856271 0.262723 0.665469
N16 N 0.7199(5) 0.0797(7) 0.5906(4)
C112 C 0.6593(8) 0.1266(9) 0.5813(6)
H82 H 0.705793 0.193565 0.597481
H83 H 0.602786 0.104979 0.520919
H84 H 0.630583 0.111059 0.619520
N17 N 0.8773(2) 0.85188(17) 0.03404(17)
H85 H 0.864772 0.806859 0.061341
H86 H 0.925682 0.906947 0.075669
H88 H 0.980458 0.835603 0.020626
H92 H 0.756004 0.857327 0.019370
C113 C 0.9190(3) 0.8378(3) 0.9829(3)
H87 H 0.866566 0.779511 0.936641
H89 H 0.938038 0.888747 0.957035
C114 C 0.7820(3) 0.8509(3) 0.9821(3)
H90 H 0.730019 0.792533 0.936031
H91 H 0.796000 0.902264 0.956136
C113_2 C 0.0810(3) 0.1622(3) 0.0171(3)
H87_2 H 0.133434 0.220489 0.063359
H89_2 H 0.061962 0.111253 0.042965
C114_2 C 0.2180(3) 0.1491(3) 0.0179(3)
H90_2 H 0.269981 0.207467 0.063969
H91_2 H 0.204000 0.097736 0.043864
N17_2 N 0.1227(2) 0.14812(17) 0.96596(17)
H85_2 H 0.135228 0.193141 0.938659
H86_2 H 0.074318 0.093053 0.924331
H88_2 H 0.019542 0.164397 0.979374
H92_2 H 0.243996 0.142673 0.980630
loop_
_geom_bond_atom_site_label_1
_geom_bond_atom_site_label_2
_geom_bond_site_symmetry_1
_geom_bond_site_symmetry_2
O2 C4 1_555 1_555
O7 C4 1_555 1_555
Ca16 O2 1_555 1_555
Ca20 O2 1_555 1_555
O7 Ca16 1_555 1_555
O1 C3 1_555 1_555
O4 C3 1_555 1_555
N3 C20 1_555 1_555
C2 C3 1_555 1_555
C5 C2 1_555 1_555
H1 C5 1_555 1_555
C6 C9 1_555 1_555
C9 C5 1_555 1_555
H2 C9 1_555 1_555
C11 H3 1_555 1_555
C14 C11 1_555 1_555
H5 C14 1_555 1_555
C16 C2 1_555 1_555
H6 C16 1_555 1_555
C18 C14 1_555 1_555
C23 C11 1_555 1_555
C29 C6 1_555 1_555
H10 C29 1_555 1_555
C42 C23 1_555 1_555
H19 C42 1_555 1_555
C43 C18 1_555 1_555
H20 C43 1_555 1_555
Ca20 O4 1_555 1_555
O28 Ca20 1_555 1_555
N15 C108 1_555 1_555
C108 H73 1_555 1_555
H74 C108 1_555 1_555
H75 C108 1_555 1_555
C109 O28 1_555 1_555
C111 N15 1_555 1_555
H79 C111 1_555 1_555
H81 C111 1_555 1_555
Ca8_2 O1 1_555 1_555
Ca16 O1 1_555 1_555
O48 Ca20 1_555 1_555
O52 Ca20 1_555 1_555
O4 Ca16 1_555 1_555
N3 C24 1_555 1_555
C6 C24 1_555 1_555
C16 C29 1_555 1_555
C20 C23 1_555 1_555
C42 C43 1_555 1_555
N15 C109 1_555 1_555
Ca16 O48 1_555 1_555
O32 Ca8 1_555 1_555
O39 Ca8 1_555 1_555
O42 Ca8 1_555 1_555
Ca12 O32 1_555 1_555
Ca8_2 O3 1_555 1_555
Ca12 O8 1_555 1_555
O3 C1 1_555 1_555
O5 Ca8_2 1_555 1_555
O6 C1 1_555 1_555
O8 C40 1_555 1_555
O9 C13 1_555 1_555
N1 C15 1_555 1_555
N2 C15 1_555 1_555
C1 C7 1_555 1_555
N4 C27 1_555 1_555
N5 C26 1_555 1_555
O12 C35 1_555 1_555
N6 C26 1_555 1_555
C7 C17 1_555 1_555
C8 C15 1_555 1_555
C10 C12 1_555 1_555
C12 H4 1_555 1_555
C13 O5 1_555 1_555
O13 C40 1_555 1_555
C17 H7 1_555 1_555
C19 C8 1_555 1_555
H8 C19 1_555 1_555
C21 C27 1_555 1_555
C22 C33 1_555 1_555
C25 C7 1_555 1_555
H9 C25 1_555 1_555
C26 C36 1_555 1_555
C27 N6 1_555 1_555
C28 C32 1_555 1_555
C30 C17 1_555 1_555
H11 C30 1_555 1_555
C31 C21 1_555 1_555
H12 C31 1_555 1_555
C32 N4 1_555 1_555
C33 H13 1_555 1_555
C34 H14 1_555 1_555
C35 C22 1_555 1_555
C36 C34 1_555 1_555
C37 C22 1_555 1_555
H15 C37 1_555 1_555
C38 C8 1_555 1_555
H16 C38 1_555 1_555
C39 C34 1_555 1_555
H17 C39 1_555 1_555
C40 C46 1_555 1_555
C41 C28 1_555 1_555
H18 C41 1_555 1_555
C44 C10 1_555 1_555
H21 C44 1_555 1_555
C45 C28 1_555 1_555
H22 C45 1_555 1_555
C46 C39 1_555 1_555
C47 C36 1_555 1_555
H23 C47 1_555 1_555
C48 C46 1_555 1_555
H24 C48 1_555 1_555
H28 C51 1_555 1_555
H29 C51 1_555 1_555
H30 C51 1_555 1_555
H76 C110 1_555 1_555
H77 C110 1_555 1_555
H78 C110 1_555 1_555
Ca16 O9 1_555 1_555
Ca18 O8 1_555 1_555
O36 Ca12 1_555 1_555
O41 Ca12 1_555 1_555
O46 Ca12 1_555 1_555
O50 Ca12 1_555 1_555
N5 C32 1_555 1_555
C10 C13 1_555 1_555
C12 C19 1_555 1_555
O13 Ca18 1_555 1_555
C21 C30 1_555 1_555
C25 C31 1_555 1_555
C33 C41 1_555 1_555
C37 C45 1_555 1_555
C38 C44 1_555 1_555
C47 C48 1_555 1_555
Ca18 O36 1_555 1_555
Ca18 O41 1_555 1_555
H34 C54 1_555 1_555
H35 C54 1_555 1_555
H36 C54 1_555 1_555
O39 C57 1_555 1_555
O42 C69 1_555 1_555
O44 C57 1_555 1_555
O48 C96 1_555 1_555
O50 C69 1_555 1_555
N9 C71 1_555 1_555
N10 C71 1_555 1_555
C57 C63 1_555 1_555
N12 C83 1_555 1_555
N13 C82 1_555 1_555
O26 C91 1_555 1_555
N14 C82 1_555 1_555
C63 C73 1_555 1_555
C64 C71 1_555 1_555
C66 C68 1_555 1_555
C68 H46 1_555 1_555
C69 C66 1_555 1_555
O52 C96 1_555 1_555
C73 H49 1_555 1_555
C75 C64 1_555 1_555
H50 C75 1_555 1_555
C77 C83 1_555 1_555
C78 C89 1_555 1_555
C81 C63 1_555 1_555
H51 C81 1_555 1_555
C82 C92 1_555 1_555
C83 N14 1_555 1_555
C84 C88 1_555 1_555
C86 C73 1_555 1_555
H53 C86 1_555 1_555
C87 C77 1_555 1_555
H54 C87 1_555 1_555
C88 N12 1_555 1_555
C89 H55 1_555 1_555
C90 H56 1_555 1_555
C92 C90 1_555 1_555
C93 C78 1_555 1_555
H57 C93 1_555 1_555
C94 C64 1_555 1_555
H58 C94 1_555 1_555
C95 C90 1_555 1_555
H59 C95 1_555 1_555
C96 C102 1_555 1_555
C97 C84 1_555 1_555
H60 C97 1_555 1_555
C100 C66 1_555 1_555
H63 C100 1_555 1_555
C101 C84 1_555 1_555
H64 C101 1_555 1_555
C102 C95 1_555 1_555
C103 C92 1_555 1_555
H65 C103 1_555 1_555
C104 C102 1_555 1_555
H66 C104 1_555 1_555
H70 C107 1_555 1_555
H71 C107 1_555 1_555
H72 C107 1_555 1_555
N13 C88 1_555 1_555
C68 C75 1_555 1_555
C77 C86 1_555 1_555
C78 C91 1_555 1_555
C81 C87 1_555 1_555
C89 C97 1_555 1_555
C93 C101 1_555 1_555
C94 C100 1_555 1_555
C103 C104 1_555 1_555
O14 Ca18 1_555 1_555
N7 C52 1_555 1_555
C52 H31 1_555 1_555
H32 C52 1_555 1_555
H33 C52 1_555 1_555
C53 O14 1_555 1_555
C55 N7 1_555 1_555
H37 C55 1_555 1_555
H39 C55 1_555 1_555
O32 C59 1_555 1_555
N11 C76 1_555 1_555
C58 C59 1_555 1_555
C59 O41 1_555 1_555
C61 C58 1_555 1_555
H43 C61 1_555 1_555
C62 C65 1_555 1_555
C65 C61 1_555 1_555
H44 C65 1_555 1_555
C67 H45 1_555 1_555
C70 C67 1_555 1_555
H47 C70 1_555 1_555
C72 C58 1_555 1_555
H48 C72 1_555 1_555
C74 C70 1_555 1_555
C79 C67 1_555 1_555
C85 C62 1_555 1_555
H52 C85 1_555 1_555
C98 C79 1_555 1_555
H61 C98 1_555 1_555
C99 C74 1_555 1_555
H62 C99 1_555 1_555
N7 C53 1_555 1_555
N11 C80 1_555 1_555
C62 C80 1_555 1_555
C72 C85 1_555 1_555
C76 C79 1_555 1_555
C98 C99 1_555 1_555
O36 C60 1_555 1_555
O46 C60 1_555 1_555
C49 O11 1_555 1_555
C50 C49 1_555 1_555
H25 C50 1_555 1_555
H26 C50 1_555 1_555
H27 C50 1_555 1_555
N8 C49 1_555 1_555
C56 N8 1_555 1_555
H40 C56 1_555 1_555
H41 C56 1_555 1_555
H42 C56 1_555 1_555
C105 O25 1_555 1_555
C106 C105 1_555 1_555
H67 C106 1_555 1_555
H68 C106 1_555 1_555
H69 C106 1_555 1_555
N16 C105 1_555 1_555
C112 N16 1_555 1_555
H82 C112 1_555 1_555
H83 C112 1_555 1_555
H84 C112 1_555 1_555
N17 H85 1_555 1_555
H86 N17 1_555 1_555
H87 C113 1_555 1_555
H89 C113 1_555 1_555
H90 C114 1_555 1_555
H91 C114 1_555 1_555
H87_2 C113_2 1_555 1_555
H89_2 C113_2 1_555 1_555
H90_2 C114_2 1_555 1_555
H91_2 C114_2 1_555 1_555
N17_2 H85_2 1_555 1_555
H86_2 N17_2 1_555 1_555

#END
