
###############################################################################
#
# This file contains modified crystal structure data generated from the
# MOF subset of the Cambridge Structural Database (CSD) v543 
# hosted by the Cambridge Crystallographic Data Centre (CCDC).
#
# This work is licensed under the Creative Commons
# Attribution-NonCommercial-ShareAlike 4.0 International License.
# To view a copy of this license, visit
# http://creativecommons.org/licenses/by-nc-sa/4.0/
# or send a letter to
# Creative Commons, PO Box 1866, Mountain View, CA 94042, USA.
#
# CIF created using the CSD Python API on 29 September 2022
# The structure has been converted into the P1 space group
# The structure has a 3D framework
# The original CSD entry KABKAD is in the monoclinic crystal system
# The framework has been calculated to contain at least 10.0% void space
# The void calculation uses a probe of radius 1.32A, grid spacing 0.4
#
###############################################################################

data_KABKAD
_chemical_formula_moiety         '(C192 H160 N32 Ni21 O62)n'
_symmetry_cell_setting           triclinic
_symmetry_space_group_name_H-M   'P 1'
_symmetry_Int_Tables_number      1
_space_group_name_Hall           'P 1'
loop_
_symmetry_equiv_pos_site_id
_symmetry_equiv_pos_as_xyz
1 x,y,z
_cell_length_a                   12.8602(16)
_cell_length_b                   23.946(3)
_cell_length_c                   24.686(3)
_cell_angle_alpha                90
_cell_angle_beta                 102.501(2)
_cell_angle_gamma                90
_cell_volume                     7421.83
loop_
_atom_site_label
_atom_site_type_symbol
_atom_site_fract_x
_atom_site_fract_y
_atom_site_fract_z
Ni3 Ni 0.7500 0.2500 0.0000
Ni1 Ni 0.5000 0.5000 0.5000
Ni2 Ni 0.2500 0.2500 0.5000
O1 O 0.4822(3) 0.42026(11) 0.46649(11)
O2 O 0.3165(3) 0.18738(12) 0.55541(12)
H1 H 0.2745 0.1586 0.5519
H2 H 0.3202 0.1980 0.5894
O3 O 0.3959(3) 0.27435(12) 0.48665(11)
O4 O 0.3031(3) 0.40939(13) 0.44455(13)
N1 N 0.4421(3) 0.53180(13) 0.42068(12)
O5 O 0.6539(3) 0.50025(14) 0.48614(15)
H3 H 0.6644 0.4703 0.4695
H4 H 0.6983 0.4986 0.5172
N2 N 0.2712(3) 0.69581(15) 0.06783(13)
O6 O 0.5033(3) 0.21029(16) 0.5355(2)
C1 C 0.3400(4) 0.59408(19) 0.21399(18)
H5 H 0.3663 0.5583 0.2108
C2 C 0.3969(4) 0.39904(18) 0.43932(18)
C3 C 0.4534(4) 0.50710(15) 0.37343(15)
H6 H 0.4889 0.4731 0.3759
C4 C 0.4151(4) 0.52948(17) 0.32134(16)
H7 H 0.4226 0.5101 0.2898
C5 C 0.3648(4) 0.58168(18) 0.31670(17)
C6 C 0.5814(4) 0.28663(18) 0.49950(18)
C7 C 0.4071(4) 0.35780(19) 0.39457(18)
C8 C 0.5802(4) 0.3167(2) 0.4513(2)
C9 C 0.3118(4) 0.62907(19) 0.16285(17)
C10 C 0.3297(5) 0.6108(2) 0.26324(18)
H8 H 0.2965 0.6451 0.2645
C11 C 0.3318(4) 0.3585(2) 0.34452(19)
H9 H 0.2739 0.3826 0.3390
C12 C 0.6739(4) 0.2855(2) 0.5407(2)
H10 H 0.6766 0.2639 0.5724
N3 N 0.4955(4) 0.2825(2) 0.36136(19)
N4 N 0.6685(4) 0.3439(2) 0.4456(2)
C13 C 0.2413(4) 0.71187(19) 0.11390(17)
H11 H 0.2076 0.7463 0.1136
C14 C 0.3402(4) 0.61328(19) 0.11567(18)
H12 H 0.3737 0.5790 0.1145
C15 C 0.3928(4) 0.58157(18) 0.41567(17)
H13 H 0.3835 0.5997 0.4476
C16 C 0.4851(4) 0.25398(18) 0.50789(18)
C17 C 0.3551(5) 0.6071(2) 0.36447(19)
H14 H 0.3229 0.6420 0.3630
C18 C 0.3207(4) 0.64670(19) 0.06923(17)
H15 H 0.3428 0.6346 0.0377
C19 C 0.4913(4) 0.3207(2) 0.40164(19)
C20 C 0.2572(5) 0.6804(2) 0.16241(18)
H16 H 0.2330 0.6926 0.1932
C21 C 0.3464(5) 0.3217(2) 0.3031(2)
H17 H 0.3000 0.3230 0.2686
O7 O 0.6700(4) 0.3706(3) 0.3980(2)
C22 C 0.4245(5) 0.2852(2) 0.3119(2)
H18 H 0.4313 0.2607 0.2837
O8 O 0.5704(5) 0.2433(2) 0.3704(2)
C23 C 0.7614(5) 0.3160(2) 0.5350(2)
H19 H 0.8219 0.3172 0.5636
C24 C 0.7583(5) 0.3445(3) 0.4867(3)
H20 H 0.8178 0.3644 0.4819
O9 O 0.5178(3) 0.57974(11) 0.53351(11)
O10 O 0.6041(3) 0.72565(12) 0.51335(11)
O11 O 0.6969(3) 0.59061(13) 0.55545(13)
N5 N 0.5579(3) 0.46820(13) 0.57932(12)
O12 O 0.3461(3) 0.49975(14) 0.51386(15)
H21 H 0.3356 0.5297 0.5305
H22 H 0.3017 0.5014 0.4828
N6 N 0.7288(3) 0.30419(15) 0.93217(13)
O13 O 0.4967(3) 0.78971(16) 0.4645(2)
C25 C 0.6600(4) 0.40592(19) 0.78601(18)
H23 H 0.6337 0.4417 0.7892
C26 C 0.6031(4) 0.60096(18) 0.56068(18)
C27 C 0.5466(4) 0.49290(15) 0.62657(15)
H24 H 0.5111 0.5269 0.6241
C28 C 0.5849(4) 0.47052(17) 0.67866(16)
H25 H 0.5774 0.4899 0.7102
C29 C 0.6352(4) 0.41832(18) 0.68330(17)
C30 C 0.4186(4) 0.71337(18) 0.50050(18)
C31 C 0.5929(4) 0.64220(19) 0.60543(18)
C32 C 0.4198(4) 0.6833(2) 0.5487(2)
C33 C 0.6882(4) 0.37093(19) 0.83715(17)
C34 C 0.6703(5) 0.3892(2) 0.73676(18)
H26 H 0.7035 0.3549 0.7355
C35 C 0.6682(4) 0.6415(2) 0.65548(19)
H27 H 0.7261 0.6174 0.6610
C36 C 0.3261(4) 0.7145(2) 0.4593(2)
H28 H 0.3234 0.7361 0.4276
N7 N 0.5045(4) 0.7175(2) 0.63864(19)
N8 N 0.3315(4) 0.6561(2) 0.5544(2)
C37 C 0.7587(4) 0.28813(19) 0.88610(17)
H29 H 0.7924 0.2537 0.8864
C38 C 0.6598(4) 0.38672(19) 0.88433(18)
H30 H 0.6263 0.4210 0.8855
C39 C 0.6072(4) 0.41843(18) 0.58433(17)
H31 H 0.6165 0.4003 0.5524
C40 C 0.5149(4) 0.74602(18) 0.49211(18)
C41 C 0.6449(5) 0.3929(2) 0.63553(19)
H32 H 0.6771 0.3580 0.6370
C42 C 0.6793(4) 0.35330(19) 0.93077(17)
H33 H 0.6572 0.3654 0.9623
C43 C 0.5087(4) 0.6793(2) 0.59836(19)
C44 C 0.7428(5) 0.3196(2) 0.83759(18)
H34 H 0.7670 0.3074 0.8068
C45 C 0.6536(5) 0.6783(2) 0.6969(2)
H35 H 0.7000 0.6770 0.7314
O14 O 0.3300(4) 0.6294(3) 0.6020(2)
C46 C 0.5755(5) 0.7148(2) 0.6881(2)
H36 H 0.5687 0.7393 0.7163
O15 O 0.4296(5) 0.7567(2) 0.6296(2)
C47 C 0.2386(5) 0.6840(2) 0.4650(2)
H37 H 0.1781 0.6828 0.4364
C48 C 0.2417(5) 0.6555(3) 0.5133(3)
H38 H 0.1822 0.6356 0.5181
O16 O 0.1835(3) 0.31262(12) 0.44459(12)
H39 H 0.2255 0.3414 0.4481
H40 H 0.1798 0.3020 0.4106
Ni3_2 Ni 0.7500 0.2500 1.0000
Ni4 Ni 0.7500 0.7500 0.5000
Ni5 Ni 0.2500 0.7500 0.0000
O17 O 0.1041(3) 0.22565(12) 0.51335(11)
N9 N 0.2288(3) 0.19581(15) 0.43217(13)
N10 N 0.2712(3) 0.30419(15) 0.56783(13)
Ni5_2 Ni 0.2500 0.7500 1.0000
Ni1_2 Ni 0.5000 0.5000 0.0000
O1_2 O 0.5178(3) 0.42026(11) 0.03351(11)
O3_2 O 0.6041(3) 0.27435(12) 0.01335(11)
O4_2 O 0.6969(3) 0.40939(13) 0.05545(13)
N1_2 N 0.5579(3) 0.53180(13) 0.07932(12)
O5_2 O 0.3461(3) 0.50025(14) 0.01386(15)
H3_2 H 0.3356 0.4703 0.0305
N2_2 N 0.7288(3) 0.69581(15) 0.43217(13)
C1_2 C 0.6600(4) 0.59408(19) 0.28601(18)
H5_2 H 0.6337 0.5583 0.2892
C2_2 C 0.6031(4) 0.39904(18) 0.06068(18)
C3_2 C 0.5466(4) 0.50710(15) 0.12657(15)
H6_2 H 0.5111 0.4731 0.1241
C4_2 C 0.5849(4) 0.52948(17) 0.17866(16)
H7_2 H 0.5774 0.5101 0.2102
C5_2 C 0.6352(4) 0.58168(18) 0.18330(17)
C6_2 C 0.4186(4) 0.28663(18) 0.00050(18)
C7_2 C 0.5929(4) 0.35780(19) 0.10543(18)
C8_2 C 0.4198(4) 0.3167(2) 0.0487(2)
C9_2 C 0.6882(4) 0.62907(19) 0.33715(17)
C10_2 C 0.6703(5) 0.6108(2) 0.23676(18)
H8_2 H 0.7035 0.6451 0.2355
C11_2 C 0.6682(4) 0.3585(2) 0.15548(19)
H9_2 H 0.7261 0.3826 0.1610
N3_2 N 0.5045(4) 0.2825(2) 0.13864(19)
N4_2 N 0.3315(4) 0.3439(2) 0.0544(2)
C13_2 C 0.7587(4) 0.71187(19) 0.38610(17)
H11_2 H 0.7924 0.7463 0.3864
C14_2 C 0.6598(4) 0.61328(19) 0.38433(18)
H12_2 H 0.6263 0.5790 0.3855
C15_2 C 0.6072(4) 0.58157(18) 0.08433(17)
H13_2 H 0.6165 0.5997 0.0524
C17_2 C 0.6449(5) 0.6071(2) 0.13553(19)
H14_2 H 0.6771 0.6420 0.1370
C18_2 C 0.6793(4) 0.64670(19) 0.43077(17)
H15_2 H 0.6572 0.6346 0.4623
C19_2 C 0.5087(4) 0.3207(2) 0.09836(19)
C20_2 C 0.7428(5) 0.6804(2) 0.33759(18)
H16_2 H 0.7670 0.6926 0.3068
C21_2 C 0.6536(5) 0.3217(2) 0.1969(2)
H17_2 H 0.7000 0.3230 0.2314
O7_2 O 0.3300(4) 0.3706(3) 0.1020(2)
C22_2 C 0.5755(5) 0.2852(2) 0.1881(2)
H18_2 H 0.5687 0.2607 0.2163
O8_2 O 0.4296(5) 0.2433(2) 0.1296(2)
C24_2 C 0.2417(5) 0.3445(3) 0.0133(3)
H20_2 H 0.1822 0.3644 0.0181
H22_2 H 0.6983 0.5014 0.0172
O13_2 O 0.5033(3) 0.78971(16) 0.0355(2)
C36_2 C 0.6739(4) 0.7145(2) 0.0407(2)
H28_2 H 0.6766 0.7361 0.0724
C40_2 C 0.4851(4) 0.74602(18) 0.00789(18)
C47_2 C 0.7614(5) 0.6840(2) 0.0350(2)
H37_2 H 0.8219 0.6828 0.0636
O16_2 O 0.8165(3) 0.31262(12) 0.05541(12)
H39_2 H 0.7745 0.3414 0.0519
H40_2 H 0.8202 0.3020 0.0894
N9_2 N 0.7712(3) 0.19581(15) 0.06783(13)
Ni1_3 Ni 0.5000 0.5000 1.0000
O2_2 O 0.6835(3) 0.18738(12) 0.94459(12)
H1_2 H 0.7255 0.1586 0.9481
H2_2 H 0.6798 0.1980 0.9106
H4_2 H 0.3017 0.4986 0.9828
O6_2 O 0.4967(3) 0.21029(16) 0.9645(2)
C12_2 C 0.3261(4) 0.2855(2) 0.9593(2)
H10_2 H 0.3234 0.2639 0.9276
C16_2 C 0.5149(4) 0.25398(18) 0.99211(18)
C23_2 C 0.2386(5) 0.3160(2) 0.9650(2)
H19_2 H 0.1781 0.3172 0.9364
O9_2 O 0.4822(3) 0.57974(11) 0.96649(11)
O10_2 O 0.3959(3) 0.72565(12) 0.98665(11)
O11_2 O 0.3031(3) 0.59061(13) 0.94455(13)
N5_2 N 0.4421(3) 0.46820(13) 0.92068(12)
O12_2 O 0.6539(3) 0.49975(14) 0.98614(15)
H21_2 H 0.6644 0.5297 0.9695
C25_2 C 0.3400(4) 0.40592(19) 0.71399(18)
H23_2 H 0.3663 0.4417 0.7108
C26_2 C 0.3969(4) 0.60096(18) 0.93932(18)
C27_2 C 0.4534(4) 0.49290(15) 0.87343(15)
H24_2 H 0.4889 0.5269 0.8759
C28_2 C 0.4151(4) 0.47052(17) 0.82134(16)
H25_2 H 0.4226 0.4899 0.7898
C29_2 C 0.3648(4) 0.41832(18) 0.81670(17)
C30_2 C 0.5814(4) 0.71337(18) 0.99950(18)
C31_2 C 0.4071(4) 0.64220(19) 0.89457(18)
C32_2 C 0.5802(4) 0.6833(2) 0.9513(2)
C33_2 C 0.3118(4) 0.37093(19) 0.66285(17)
C34_2 C 0.3297(5) 0.3892(2) 0.76324(18)
H26_2 H 0.2965 0.3549 0.7645
C35_2 C 0.3318(4) 0.6415(2) 0.84452(19)
H27_2 H 0.2739 0.6174 0.8390
N7_2 N 0.4955(4) 0.7175(2) 0.86136(19)
N8_2 N 0.6685(4) 0.6561(2) 0.9456(2)
C37_2 C 0.2413(4) 0.28813(19) 0.61390(17)
H29_2 H 0.2076 0.2537 0.6136
C38_2 C 0.3402(4) 0.38672(19) 0.61567(18)
H30_2 H 0.3737 0.4210 0.6145
C39_2 C 0.3928(4) 0.41843(18) 0.91567(17)
H31_2 H 0.3835 0.4003 0.9476
C41_2 C 0.3551(5) 0.3929(2) 0.86447(19)
H32_2 H 0.3229 0.3580 0.8630
C42_2 C 0.3207(4) 0.35330(19) 0.56923(17)
H33_2 H 0.3428 0.3654 0.5377
C43_2 C 0.4913(4) 0.6793(2) 0.90164(19)
C44_2 C 0.2572(5) 0.3196(2) 0.66241(18)
H34_2 H 0.2330 0.3074 0.6932
C45_2 C 0.3464(5) 0.6783(2) 0.8031(2)
H35_2 H 0.3000 0.6770 0.7686
O14_2 O 0.6700(4) 0.6294(3) 0.8980(2)
C46_2 C 0.4245(5) 0.7148(2) 0.8119(2)
H36_2 H 0.4313 0.7393 0.7837
O15_2 O 0.5704(5) 0.7567(2) 0.8704(2)
C48_2 C 0.7583(5) 0.6555(3) 0.9867(3)
H38_2 H 0.8178 0.6356 0.9819
O17_2 O 0.8959(3) 0.22565(12) 0.98665(11)
Ni1_4 Ni 0.0000 0.0000 0.5000
O5_3 O 0.1539(3) 0.00025(14) 0.48614(15)
O9_3 O 0.0178(3) 0.07974(11) 0.53351(11)
O11_3 O 0.1969(3) 0.09061(13) 0.55545(13)
C26_3 C 0.1031(4) 0.10096(18) 0.56068(18)
H24_3 H 0.0111 0.0269 0.6241
C31_3 C 0.0929(4) 0.14220(19) 0.60543(18)
C35_3 C 0.1682(4) 0.1415(2) 0.65548(19)
H27_3 H 0.2261 0.1174 0.6610
N7_3 N 0.0045(4) 0.2175(2) 0.63864(19)
C40_3 C 0.0149(4) 0.24602(18) 0.49211(18)
C43_3 C 0.0087(4) 0.1793(2) 0.59836(19)
C45_3 C 0.1536(5) 0.1783(2) 0.6969(2)
H35_3 H 0.2000 0.1770 0.7314
C46_3 C 0.0755(5) 0.2148(2) 0.6881(2)
H36_3 H 0.0687 0.2393 0.7163
Ni1_5 Ni 0.0000 1.0000 0.5000
H3_3 H 0.1644 0.9703 0.4695
H4_3 H 0.1983 0.9986 0.5172
O6_3 O 0.0033(3) 0.71029(16) 0.5355(2)
C6_3 C 0.0814(4) 0.78663(18) 0.49950(18)
C8_3 C 0.0802(4) 0.8167(2) 0.4513(2)
C12_3 C 0.1739(4) 0.7855(2) 0.5407(2)
H10_3 H 0.1766 0.7639 0.5724
N4_3 N 0.1685(4) 0.8439(2) 0.4456(2)
O7_3 O 0.1700(4) 0.8706(3) 0.3980(2)
O8_3 O 0.0704(5) 0.7433(2) 0.3704(2)
C23_3 C 0.2614(5) 0.8160(2) 0.5350(2)
H19_3 H 0.3219 0.8172 0.5636
C24_3 C 0.2583(5) 0.8445(3) 0.4867(3)
H20_3 H 0.3178 0.8644 0.4819
N5_3 N 0.0579(3) 0.96820(13) 0.57932(12)
N6_2 N 0.2288(3) 0.80419(15) 0.93217(13)
C25_3 C 0.1600(4) 0.90592(19) 0.78601(18)
H23_3 H 0.1337 0.9417 0.7892
C27_3 C 0.0466(4) 0.99290(15) 0.62657(15)
C28_3 C 0.0849(4) 0.97052(17) 0.67866(16)
H25_3 H 0.0774 0.9899 0.7102
C29_3 C 0.1352(4) 0.91832(18) 0.68330(17)
C33_3 C 0.1882(4) 0.87093(19) 0.83715(17)
C34_3 C 0.1703(5) 0.8892(2) 0.73676(18)
H26_3 H 0.2035 0.8549 0.7355
C37_3 C 0.2587(4) 0.78813(19) 0.88610(17)
H29_3 H 0.2924 0.7537 0.8864
C38_3 C 0.1598(4) 0.88672(19) 0.88433(18)
H30_3 H 0.1263 0.9210 0.8855
C39_3 C 0.1072(4) 0.91843(18) 0.58433(17)
H31_3 H 0.1165 0.9003 0.5524
C41_3 C 0.1449(5) 0.8929(2) 0.63553(19)
H32_3 H 0.1771 0.8580 0.6370
C42_3 C 0.1793(4) 0.85330(19) 0.93077(17)
H33_3 H 0.1572 0.8654 0.9623
C44_3 C 0.2428(5) 0.8196(2) 0.83759(18)
H34_3 H 0.2670 0.8074 0.8068
Ni1_6 Ni 1.0000 0.0000 0.5000
N1_3 N 0.9421(3) 0.03180(13) 0.42068(12)
C1_3 C 0.8400(4) 0.09408(19) 0.21399(18)
H5_3 H 0.8663 0.0583 0.2108
C3_3 C 0.9534(4) 0.00710(15) 0.37343(15)
C4_3 C 0.9151(4) 0.02948(17) 0.32134(16)
H7_3 H 0.9226 0.0101 0.2898
C5_3 C 0.8648(4) 0.08168(18) 0.31670(17)
C9_3 C 0.8118(4) 0.12907(19) 0.16285(17)
C10_3 C 0.8297(5) 0.1108(2) 0.26324(18)
H8_3 H 0.7965 0.1451 0.2645
C13_3 C 0.7413(4) 0.21187(19) 0.11390(17)
H11_3 H 0.7076 0.2463 0.1136
C14_3 C 0.8402(4) 0.11328(19) 0.11567(18)
H12_3 H 0.8737 0.0790 0.1145
C15_3 C 0.8928(4) 0.08157(18) 0.41567(17)
H13_3 H 0.8835 0.0997 0.4476
C17_3 C 0.8551(5) 0.1071(2) 0.36447(19)
H14_3 H 0.8229 0.1420 0.3630
C18_3 C 0.8207(4) 0.14670(19) 0.06923(17)
H15_3 H 0.8428 0.1346 0.0377
C20_3 C 0.7572(5) 0.1804(2) 0.16241(18)
H16_3 H 0.7330 0.1926 0.1932
H21_3 H 0.8356 0.0297 0.5305
H22_3 H 0.8017 0.0014 0.4828
O13_3 O 0.9967(3) 0.28971(16) 0.4645(2)
C30_3 C 0.9186(4) 0.21337(18) 0.50050(18)
C32_3 C 0.9198(4) 0.1833(2) 0.5487(2)
C36_3 C 0.8261(4) 0.2145(2) 0.4593(2)
H28_3 H 0.8234 0.2361 0.4276
N8_3 N 0.8315(4) 0.1561(2) 0.5544(2)
O14_3 O 0.8300(4) 0.1294(3) 0.6020(2)
O15_3 O 0.9296(5) 0.2567(2) 0.6296(2)
C47_3 C 0.7386(5) 0.1840(2) 0.4650(2)
H37_3 H 0.6781 0.1828 0.4364
C48_3 C 0.7417(5) 0.1555(3) 0.5133(3)
H38_3 H 0.6822 0.1356 0.5181
Ni1_7 Ni 1.0000 1.0000 0.5000
O1_3 O 0.9822(3) 0.92026(11) 0.46649(11)
O2_3 O 0.8165(3) 0.68738(12) 0.55541(12)
H1_3 H 0.7745 0.6586 0.5519
H2_3 H 0.8202 0.6980 0.5894
O3_3 O 0.8959(3) 0.77435(12) 0.48665(11)
O4_3 O 0.8031(3) 0.90939(13) 0.44455(13)
C2_3 C 0.8969(4) 0.89904(18) 0.43932(18)
H6_3 H 0.9889 0.9731 0.3759
C7_3 C 0.9071(4) 0.85780(19) 0.39457(18)
C11_3 C 0.8318(4) 0.8585(2) 0.34452(19)
H9_3 H 0.7739 0.8826 0.3390
N3_3 N 0.9955(4) 0.7825(2) 0.36136(19)
C16_3 C 0.9851(4) 0.75398(18) 0.50789(18)
C19_3 C 0.9913(4) 0.8207(2) 0.40164(19)
C21_3 C 0.8464(5) 0.8217(2) 0.3031(2)
H17_3 H 0.8000 0.8230 0.2686
C22_3 C 0.9245(5) 0.7852(2) 0.3119(2)
H18_3 H 0.9313 0.7607 0.2837
O12_3 O 0.8461(3) 0.99975(14) 0.51386(15)
O16_3 O 0.6835(3) 0.81262(12) 0.44459(12)
H39_3 H 0.7255 0.8414 0.4481
H40_3 H 0.6798 0.8020 0.4106
N10_2 N 0.7712(3) 0.80419(15) 0.56783(13)
Ni1_8 Ni 0.0000 0.0000 0.0000
N1_4 N 0.0579(3) 0.03180(13) 0.07932(12)
C1_4 C 0.1600(4) 0.09408(19) 0.28601(18)
H5_4 H 0.1337 0.0583 0.2892
C3_4 C 0.0466(4) 0.00710(15) 0.12657(15)
C4_4 C 0.0849(4) 0.02948(17) 0.17866(16)
H7_4 H 0.0774 0.0101 0.2102
C5_4 C 0.1352(4) 0.08168(18) 0.18330(17)
C9_4 C 0.1882(4) 0.12907(19) 0.33715(17)
C10_4 C 0.1703(5) 0.1108(2) 0.23676(18)
H8_4 H 0.2035 0.1451 0.2355
C13_4 C 0.2587(4) 0.21187(19) 0.38610(17)
H11_4 H 0.2924 0.2463 0.3864
C14_4 C 0.1598(4) 0.11328(19) 0.38433(18)
H12_4 H 0.1263 0.0790 0.3855
C15_4 C 0.1072(4) 0.08157(18) 0.08433(17)
H13_4 H 0.1165 0.0997 0.0524
C17_4 C 0.1449(5) 0.1071(2) 0.13553(19)
H14_4 H 0.1771 0.1420 0.1370
C18_4 C 0.1793(4) 0.14670(19) 0.43077(17)
H15_4 H 0.1572 0.1346 0.4623
C20_4 C 0.2428(5) 0.1804(2) 0.33759(18)
H16_4 H 0.2670 0.1926 0.3068
H22_4 H 0.1983 0.0014 0.0172
O13_4 O 0.0033(3) 0.28971(16) 0.0355(2)
C36_4 C 0.1739(4) 0.2145(2) 0.0407(2)
H28_4 H 0.1766 0.2361 0.0724
C47_4 C 0.2614(5) 0.1840(2) 0.0350(2)
H37_4 H 0.3219 0.1828 0.0636
Ni1_9 Ni 0.0000 1.0000 0.0000
O1_4 O 0.0178(3) 0.92026(11) 0.03351(11)
O3_4 O 0.1041(3) 0.77435(12) 0.01335(11)
O4_4 O 0.1969(3) 0.90939(13) 0.05545(13)
C2_4 C 0.1031(4) 0.89904(18) 0.06068(18)
H6_4 H 0.0111 0.9731 0.1241
C7_4 C 0.0929(4) 0.85780(19) 0.10543(18)
C11_4 C 0.1682(4) 0.8585(2) 0.15548(19)
H9_4 H 0.2261 0.8826 0.1610
N3_4 N 0.0045(4) 0.7825(2) 0.13864(19)
C19_4 C 0.0087(4) 0.8207(2) 0.09836(19)
C21_4 C 0.1536(5) 0.8217(2) 0.1969(2)
H17_4 H 0.2000 0.8230 0.2314
C22_4 C 0.0755(5) 0.7852(2) 0.1881(2)
H18_4 H 0.0687 0.7607 0.2163
O16_4 O 0.3165(3) 0.81262(12) 0.05541(12)
H39_4 H 0.2745 0.8414 0.0519
H40_4 H 0.3202 0.8020 0.0894
Ni1_10 Ni 0.0000 1.0000 1.0000
O2_4 O 0.1835(3) 0.68738(12) 0.94459(12)
H1_4 H 0.2255 0.6586 0.9481
H2_4 H 0.1798 0.6980 0.9106
C16_4 C 0.0149(4) 0.75398(18) 0.99211(18)
O12_4 O 0.1539(3) 0.99975(14) 0.98614(15)
Ni1_11 Ni 1.0000 0.0000 0.0000
O5_4 O 0.8461(3) 0.00025(14) 0.01386(15)
C40_4 C 0.9851(4) 0.24602(18) 0.00789(18)
Ni1_12 Ni 1.0000 0.0000 1.0000
O9_4 O 0.9822(3) 0.07974(11) 0.96649(11)
O11_4 O 0.8031(3) 0.09061(13) 0.94455(13)
C26_4 C 0.8969(4) 0.10096(18) 0.93932(18)
H24_4 H 0.9889 0.0269 0.8759
C31_4 C 0.9071(4) 0.14220(19) 0.89457(18)
C35_4 C 0.8318(4) 0.1415(2) 0.84452(19)
H27_4 H 0.7739 0.1174 0.8390
N7_4 N 0.9955(4) 0.2175(2) 0.86136(19)
C43_4 C 0.9913(4) 0.1793(2) 0.90164(19)
C45_4 C 0.8464(5) 0.1783(2) 0.8031(2)
H35_4 H 0.8000 0.1770 0.7686
C46_4 C 0.9245(5) 0.2148(2) 0.8119(2)
H36_4 H 0.9313 0.2393 0.7837
Ni1_13 Ni 1.0000 1.0000 1.0000
H4_4 H 0.8017 0.9986 0.9828
O6_4 O 0.9967(3) 0.71029(16) 0.9645(2)
C12_4 C 0.8261(4) 0.7855(2) 0.9593(2)
H10_4 H 0.8234 0.7639 0.9276
C23_4 C 0.7386(5) 0.8160(2) 0.9650(2)
H19_4 H 0.6781 0.8172 0.9364
N5_4 N 0.9421(3) 0.96820(13) 0.92068(12)
C25_4 C 0.8400(4) 0.90592(19) 0.71399(18)
H23_4 H 0.8663 0.9417 0.7108
C27_4 C 0.9534(4) 0.99290(15) 0.87343(15)
C28_4 C 0.9151(4) 0.97052(17) 0.82134(16)
H25_4 H 0.9226 0.9899 0.7898
C29_4 C 0.8648(4) 0.91832(18) 0.81670(17)
C33_4 C 0.8118(4) 0.87093(19) 0.66285(17)
C34_4 C 0.8297(5) 0.8892(2) 0.76324(18)
H26_4 H 0.7965 0.8549 0.7645
C37_4 C 0.7413(4) 0.78813(19) 0.61390(17)
H29_4 H 0.7076 0.7537 0.6136
C38_4 C 0.8402(4) 0.88672(19) 0.61567(18)
H30_4 H 0.8737 0.9210 0.6145
C39_4 C 0.8928(4) 0.91843(18) 0.91567(17)
H31_4 H 0.8835 0.9003 0.9476
C41_4 C 0.8551(5) 0.8929(2) 0.86447(19)
H32_4 H 0.8229 0.8580 0.8630
C42_4 C 0.8207(4) 0.85330(19) 0.56923(17)
H33_4 H 0.8428 0.8654 0.5377
C44_4 C 0.7572(5) 0.8196(2) 0.66241(18)
H34_4 H 0.7330 0.8074 0.6932
Ni1_14 Ni 0.0000 0.0000 1.0000
H21_4 H 0.1644 0.0297 0.9695
C30_4 C 0.0814(4) 0.21337(18) 0.99950(18)
C32_4 C 0.0802(4) 0.1833(2) 0.9513(2)
N8_4 N 0.1685(4) 0.1561(2) 0.9456(2)
O14_4 O 0.1700(4) 0.1294(3) 0.8980(2)
O15_4 O 0.0704(5) 0.2567(2) 0.8704(2)
C48_4 C 0.2583(5) 0.1555(3) 0.9867(3)
H38_4 H 0.3178 0.1356 0.9819
Ni1_15 Ni 1.0000 1.0000 0.0000
H3_4 H 0.8356 0.9703 0.0305
C6_4 C 0.9186(4) 0.78663(18) 0.00050(18)
C8_4 C 0.9198(4) 0.8167(2) 0.0487(2)
N4_4 N 0.8315(4) 0.8439(2) 0.0544(2)
O7_4 O 0.8300(4) 0.8706(3) 0.1020(2)
O8_4 O 0.9296(5) 0.7433(2) 0.1296(2)
C24_4 C 0.7417(5) 0.8445(3) 0.0133(3)
H20_4 H 0.6822 0.8644 0.0181
loop_
_geom_bond_atom_site_label_1
_geom_bond_atom_site_label_2
_geom_bond_site_symmetry_1
_geom_bond_site_symmetry_2
Ni1 O1 1_555 1_555
Ni2 O2 1_555 1_555
O1 C2 1_555 1_555
O2 H1 1_555 1_555
H2 O2 1_555 1_555
O3 Ni2 1_555 1_555
O4 C2 1_555 1_555
N1 Ni1 1_555 1_555
O5 Ni1 1_555 1_555
H3 O5 1_555 1_555
H4 O5 1_555 1_555
N2 C13 1_555 1_555
O6 C16 1_555 1_555
C1 H5 1_555 1_555
C2 C7 1_555 1_555
C3 N1 1_555 1_555
H6 C3 1_555 1_555
C4 C3 1_555 1_555
H7 C4 1_555 1_555
C5 C4 1_555 1_555
C6 C8 1_555 1_555
C7 C11 1_555 1_555
C8 N4 1_555 1_555
C9 C1 1_555 1_555
C10 C1 1_555 1_555
H8 C10 1_555 1_555
C11 H9 1_555 1_555
C12 C6 1_555 1_555
H10 C12 1_555 1_555
N3 C19 1_555 1_555
N4 O7 1_555 1_555
C13 H11 1_555 1_555
C14 C9 1_555 1_555
H12 C14 1_555 1_555
C15 N1 1_555 1_555
H13 C15 1_555 1_555
C16 O3 1_555 1_555
C17 C5 1_555 1_555
H14 C17 1_555 1_555
C18 N2 1_555 1_555
H15 C18 1_555 1_555
C19 C7 1_555 1_555
C20 C9 1_555 1_555
H16 C20 1_555 1_555
C21 C11 1_555 1_555
H17 C21 1_555 1_555
C22 N3 1_555 1_555
H18 C22 1_555 1_555
O8 N3 1_555 1_555
C23 C12 1_555 1_555
H19 C23 1_555 1_555
C24 N4 1_555 1_555
H20 C24 1_555 1_555
O9 Ni1 1_555 1_555
O10 C40 1_555 1_555
O11 C26 1_555 1_555
N5 Ni1 1_555 1_555
O12 Ni1 1_555 1_555
H21 O12 1_555 1_555
H22 O12 1_555 1_555
N6 C37 1_555 1_555
O13 C40 1_555 1_555
C25 H23 1_555 1_555
C26 O9 1_555 1_555
C27 N5 1_555 1_555
H24 C27 1_555 1_555
C28 C27 1_555 1_555
H25 C28 1_555 1_555
C29 C28 1_555 1_555
C30 C32 1_555 1_555
C31 C26 1_555 1_555
C32 N8 1_555 1_555
C33 C25 1_555 1_555
C34 C25 1_555 1_555
H26 C34 1_555 1_555
C35 C31 1_555 1_555
H27 C35 1_555 1_555
C36 C30 1_555 1_555
H28 C36 1_555 1_555
N7 C43 1_555 1_555
N8 O14 1_555 1_555
C37 H29 1_555 1_555
C38 C33 1_555 1_555
H30 C38 1_555 1_555
C39 N5 1_555 1_555
H31 C39 1_555 1_555
C40 C30 1_555 1_555
C41 C29 1_555 1_555
H32 C41 1_555 1_555
C42 N6 1_555 1_555
H33 C42 1_555 1_555
C43 C31 1_555 1_555
C44 C33 1_555 1_555
H34 C44 1_555 1_555
C45 C35 1_555 1_555
H35 C45 1_555 1_555
C46 N7 1_555 1_555
H36 C46 1_555 1_555
O15 N7 1_555 1_555
C47 C36 1_555 1_555
H37 C47 1_555 1_555
C48 N8 1_555 1_555
H38 C48 1_555 1_555
O16 Ni2 1_555 1_555
H39 O16 1_555 1_555
H40 O16 1_555 1_555
Ni3_2 N6 1_555 1_555
Ni4 O10 1_555 1_555
Ni5 N2 1_555 1_555
O17 Ni2 1_555 1_555
N9 Ni2 1_555 1_555
N10 Ni2 1_555 1_555
C5 C10 1_555 1_555
C6 C16 1_555 1_555
C8 C19 1_555 1_555
C13 C20 1_555 1_555
C14 C18 1_555 1_555
C15 C17 1_555 1_555
C21 C22 1_555 1_555
C23 C24 1_555 1_555
C29 C34 1_555 1_555
C32 C43 1_555 1_555
C37 C44 1_555 1_555
C38 C42 1_555 1_555
C39 C41 1_555 1_555
C45 C46 1_555 1_555
C47 C48 1_555 1_555
Ni1_2 O1_2 1_555 1_555
O1_2 C2_2 1_555 1_555
O3_2 Ni3 1_555 1_555
O4_2 C2_2 1_555 1_555
N1_2 Ni1_2 1_555 1_555
O5_2 Ni1_2 1_555 1_555
H3_2 O5_2 1_555 1_555
N2_2 C13_2 1_555 1_555
C1_2 H5_2 1_555 1_555
C2_2 C7_2 1_555 1_555
C3_2 N1_2 1_555 1_555
H6_2 C3_2 1_555 1_555
C4_2 C3_2 1_555 1_555
H7_2 C4_2 1_555 1_555
C5_2 C4_2 1_555 1_555
C6_2 C8_2 1_555 1_555
C7_2 C11_2 1_555 1_555
C8_2 N4_2 1_555 1_555
C9_2 C1_2 1_555 1_555
C10_2 C1_2 1_555 1_555
H8_2 C10_2 1_555 1_555
C11_2 H9_2 1_555 1_555
N3_2 C19_2 1_555 1_555
N4_2 O7_2 1_555 1_555
C13_2 H11_2 1_555 1_555
C14_2 C9_2 1_555 1_555
H12_2 C14_2 1_555 1_555
C15_2 N1_2 1_555 1_555
H13_2 C15_2 1_555 1_555
C17_2 C5_2 1_555 1_555
H14_2 C17_2 1_555 1_555
C18_2 N2_2 1_555 1_555
H15_2 C18_2 1_555 1_555
C19_2 C7_2 1_555 1_555
C20_2 C9_2 1_555 1_555
H16_2 C20_2 1_555 1_555
C21_2 C11_2 1_555 1_555
H17_2 C21_2 1_555 1_555
C22_2 N3_2 1_555 1_555
H18_2 C22_2 1_555 1_555
O8_2 N3_2 1_555 1_555
C24_2 N4_2 1_555 1_555
H20_2 C24_2 1_555 1_555
O13_2 C40_2 1_555 1_555
H28_2 C36_2 1_555 1_555
C47_2 C36_2 1_555 1_555
H37_2 C47_2 1_555 1_555
O16_2 Ni3 1_555 1_555
H39_2 O16_2 1_555 1_555
H40_2 O16_2 1_555 1_555
Ni4 N2_2 1_555 1_555
N9_2 Ni3 1_555 1_555
C5_2 C10_2 1_555 1_555
C8_2 C19_2 1_555 1_555
C13_2 C20_2 1_555 1_555
C14_2 C18_2 1_555 1_555
C15_2 C17_2 1_555 1_555
C21_2 C22_2 1_555 1_555
Ni3_2 O2_2 1_555 1_555
O2_2 H1_2 1_555 1_555
H2_2 O2_2 1_555 1_555
O6_2 C16_2 1_555 1_555
H10_2 C12_2 1_555 1_555
C23_2 C12_2 1_555 1_555
H19_2 C23_2 1_555 1_555
O9_2 Ni1_3 1_555 1_555
O11_2 C26_2 1_555 1_555
N5_2 Ni1_3 1_555 1_555
O12_2 Ni1_3 1_555 1_555
H21_2 O12_2 1_555 1_555
N10 C37_2 1_555 1_555
C25_2 H23_2 1_555 1_555
C26_2 O9_2 1_555 1_555
C27_2 N5_2 1_555 1_555
H24_2 C27_2 1_555 1_555
C28_2 C27_2 1_555 1_555
H25_2 C28_2 1_555 1_555
C29_2 C28_2 1_555 1_555
C30_2 C32_2 1_555 1_555
C31_2 C26_2 1_555 1_555
C32_2 N8_2 1_555 1_555
C33_2 C25_2 1_555 1_555
C34_2 C25_2 1_555 1_555
H26_2 C34_2 1_555 1_555
C35_2 C31_2 1_555 1_555
H27_2 C35_2 1_555 1_555
N7_2 C43_2 1_555 1_555
N8_2 O14_2 1_555 1_555
C37_2 H29_2 1_555 1_555
C38_2 C33_2 1_555 1_555
H30_2 C38_2 1_555 1_555
C39_2 N5_2 1_555 1_555
H31_2 C39_2 1_555 1_555
C41_2 C29_2 1_555 1_555
H32_2 C41_2 1_555 1_555
C42_2 N10 1_555 1_555
H33_2 C42_2 1_555 1_555
C43_2 C31_2 1_555 1_555
C44_2 C33_2 1_555 1_555
H34_2 C44_2 1_555 1_555
C45_2 C35_2 1_555 1_555
H35_2 C45_2 1_555 1_555
C46_2 N7_2 1_555 1_555
H36_2 C46_2 1_555 1_555
O15_2 N7_2 1_555 1_555
C48_2 N8_2 1_555 1_555
H38_2 C48_2 1_555 1_555
Ni5_2 O10_2 1_555 1_555
O17_2 Ni3_2 1_555 1_555
C29_2 C34_2 1_555 1_555
C32_2 C43_2 1_555 1_555
C37_2 C44_2 1_555 1_555
C38_2 C42_2 1_555 1_555
C39_2 C41_2 1_555 1_555
C45_2 C46_2 1_555 1_555
O5_3 Ni1_4 1_555 1_555
O9_3 Ni1_4 1_555 1_555
O17 C40_3 1_555 1_555
O11_3 C26_3 1_555 1_555
C26_3 O9_3 1_555 1_555
C31_3 C26_3 1_555 1_555
C35_3 C31_3 1_555 1_555
H27_3 C35_3 1_555 1_555
N7_3 C43_3 1_555 1_555
C43_3 C31_3 1_555 1_555
C45_3 C35_3 1_555 1_555
H35_3 C45_3 1_555 1_555
C46_3 N7_3 1_555 1_555
H36_3 C46_3 1_555 1_555
C45_3 C46_3 1_555 1_555
C6_3 C8_3 1_555 1_555
C8_3 N4_3 1_555 1_555
C12_3 C6_3 1_555 1_555
H10_3 C12_3 1_555 1_555
N4_3 O7_3 1_555 1_555
C23_3 C12_3 1_555 1_555
H19_3 C23_3 1_555 1_555
C24_3 N4_3 1_555 1_555
H20_3 C24_3 1_555 1_555
N5_3 Ni1_5 1_555 1_555
N6_2 C37_3 1_555 1_555
C25_3 H23_3 1_555 1_555
C27_3 N5_3 1_555 1_555
C28_3 C27_3 1_555 1_555
H25_3 C28_3 1_555 1_555
C29_3 C28_3 1_555 1_555
C33_3 C25_3 1_555 1_555
C34_3 C25_3 1_555 1_555
H26_3 C34_3 1_555 1_555
C37_3 H29_3 1_555 1_555
C38_3 C33_3 1_555 1_555
H30_3 C38_3 1_555 1_555
C39_3 N5_3 1_555 1_555
H31_3 C39_3 1_555 1_555
C41_3 C29_3 1_555 1_555
H32_3 C41_3 1_555 1_555
C42_3 N6_2 1_555 1_555
H33_3 C42_3 1_555 1_555
C44_3 C33_3 1_555 1_555
H34_3 C44_3 1_555 1_555
Ni5_2 N6_2 1_555 1_555
C23_3 C24_3 1_555 1_555
C29_3 C34_3 1_555 1_555
C37_3 C44_3 1_555 1_555
C38_3 C42_3 1_555 1_555
C39_3 C41_3 1_555 1_555
N1_3 Ni1_6 1_555 1_555
N9_2 C13_3 1_555 1_555
C1_3 H5_3 1_555 1_555
C3_3 N1_3 1_555 1_555
C4_3 C3_3 1_555 1_555
H7_3 C4_3 1_555 1_555
C5_3 C4_3 1_555 1_555
C9_3 C1_3 1_555 1_555
C10_3 C1_3 1_555 1_555
H8_3 C10_3 1_555 1_555
C13_3 H11_3 1_555 1_555
C14_3 C9_3 1_555 1_555
H12_3 C14_3 1_555 1_555
C15_3 N1_3 1_555 1_555
H13_3 C15_3 1_555 1_555
C17_3 C5_3 1_555 1_555
H14_3 C17_3 1_555 1_555
C18_3 N9_2 1_555 1_555
H15_3 C18_3 1_555 1_555
C20_3 C9_3 1_555 1_555
H16_3 C20_3 1_555 1_555
C30_3 C32_3 1_555 1_555
C32_3 N8_3 1_555 1_555
C36_3 C30_3 1_555 1_555
H28_3 C36_3 1_555 1_555
N8_3 O14_3 1_555 1_555
C47_3 C36_3 1_555 1_555
H37_3 C47_3 1_555 1_555
C48_3 N8_3 1_555 1_555
H38_3 C48_3 1_555 1_555
C5_3 C10_3 1_555 1_555
C13_3 C20_3 1_555 1_555
C14_3 C18_3 1_555 1_555
C15_3 C17_3 1_555 1_555
C47_3 C48_3 1_555 1_555
Ni1_7 O1_3 1_555 1_555
Ni4 O2_3 1_555 1_555
O1_3 C2_3 1_555 1_555
O2_3 H1_3 1_555 1_555
H2_3 O2_3 1_555 1_555
O3_3 Ni4 1_555 1_555
O4_3 C2_3 1_555 1_555
C2_3 C7_3 1_555 1_555
C7_3 C11_3 1_555 1_555
C11_3 H9_3 1_555 1_555
N3_3 C19_3 1_555 1_555
C16_3 O3_3 1_555 1_555
C19_3 C7_3 1_555 1_555
C21_3 C11_3 1_555 1_555
H17_3 C21_3 1_555 1_555
C22_3 N3_3 1_555 1_555
H18_3 C22_3 1_555 1_555
O12_3 Ni1_7 1_555 1_555
O16_3 Ni4 1_555 1_555
H39_3 O16_3 1_555 1_555
H40_3 O16_3 1_555 1_555
N10_2 Ni4 1_555 1_555
C21_3 C22_3 1_555 1_555
N1_4 Ni1_8 1_555 1_555
N9 C13_4 1_555 1_555
C1_4 H5_4 1_555 1_555
C3_4 N1_4 1_555 1_555
C4_4 C3_4 1_555 1_555
H7_4 C4_4 1_555 1_555
C5_4 C4_4 1_555 1_555
C9_4 C1_4 1_555 1_555
C10_4 C1_4 1_555 1_555
H8_4 C10_4 1_555 1_555
C13_4 H11_4 1_555 1_555
C14_4 C9_4 1_555 1_555
H12_4 C14_4 1_555 1_555
C15_4 N1_4 1_555 1_555
H13_4 C15_4 1_555 1_555
C17_4 C5_4 1_555 1_555
H14_4 C17_4 1_555 1_555
C18_4 N9 1_555 1_555
H15_4 C18_4 1_555 1_555
C20_4 C9_4 1_555 1_555
H16_4 C20_4 1_555 1_555
H28_4 C36_4 1_555 1_555
C47_4 C36_4 1_555 1_555
H37_4 C47_4 1_555 1_555
C5_4 C10_4 1_555 1_555
C13_4 C20_4 1_555 1_555
C14_4 C18_4 1_555 1_555
C15_4 C17_4 1_555 1_555
Ni1_9 O1_4 1_555 1_555
O1_4 C2_4 1_555 1_555
O3_4 Ni5 1_555 1_555
O4_4 C2_4 1_555 1_555
C2_4 C7_4 1_555 1_555
C7_4 C11_4 1_555 1_555
C11_4 H9_4 1_555 1_555
N3_4 C19_4 1_555 1_555
C19_4 C7_4 1_555 1_555
C21_4 C11_4 1_555 1_555
H17_4 C21_4 1_555 1_555
C22_4 N3_4 1_555 1_555
H18_4 C22_4 1_555 1_555
O16_4 Ni5 1_555 1_555
H39_4 O16_4 1_555 1_555
H40_4 O16_4 1_555 1_555
C21_4 C22_4 1_555 1_555
Ni5_2 O2_4 1_555 1_555
O2_4 H1_4 1_555 1_555
H2_4 O2_4 1_555 1_555
O12_4 Ni1_10 1_555 1_555
O5_4 Ni1_11 1_555 1_555
O9_4 Ni1_12 1_555 1_555
O11_4 C26_4 1_555 1_555
C26_4 O9_4 1_555 1_555
C31_4 C26_4 1_555 1_555
C35_4 C31_4 1_555 1_555
H27_4 C35_4 1_555 1_555
N7_4 C43_4 1_555 1_555
C43_4 C31_4 1_555 1_555
C45_4 C35_4 1_555 1_555
H35_4 C45_4 1_555 1_555
C46_4 N7_4 1_555 1_555
H36_4 C46_4 1_555 1_555
C45_4 C46_4 1_555 1_555
H10_4 C12_4 1_555 1_555
C23_4 C12_4 1_555 1_555
H19_4 C23_4 1_555 1_555
N5_4 Ni1_13 1_555 1_555
N10_2 C37_4 1_555 1_555
C25_4 H23_4 1_555 1_555
C27_4 N5_4 1_555 1_555
C28_4 C27_4 1_555 1_555
H25_4 C28_4 1_555 1_555
C29_4 C28_4 1_555 1_555
C33_4 C25_4 1_555 1_555
C34_4 C25_4 1_555 1_555
H26_4 C34_4 1_555 1_555
C37_4 H29_4 1_555 1_555
C38_4 C33_4 1_555 1_555
H30_4 C38_4 1_555 1_555
C39_4 N5_4 1_555 1_555
H31_4 C39_4 1_555 1_555
C41_4 C29_4 1_555 1_555
H32_4 C41_4 1_555 1_555
C42_4 N10_2 1_555 1_555
H33_4 C42_4 1_555 1_555
C44_4 C33_4 1_555 1_555
H34_4 C44_4 1_555 1_555
C29_4 C34_4 1_555 1_555
C37_4 C44_4 1_555 1_555
C38_4 C42_4 1_555 1_555
C39_4 C41_4 1_555 1_555
C30_4 C32_4 1_555 1_555
C32_4 N8_4 1_555 1_555
N8_4 O14_4 1_555 1_555
C48_4 N8_4 1_555 1_555
H38_4 C48_4 1_555 1_555
C6_4 C8_4 1_555 1_555
C8_4 N4_4 1_555 1_555
N4_4 O7_4 1_555 1_555
C24_4 N4_4 1_555 1_555
H20_4 C24_4 1_555 1_555

#END
