
###############################################################################
#
# This file contains modified crystal structure data generated from the
# MOF subset of the Cambridge Structural Database (CSD) v543 
# hosted by the Cambridge Crystallographic Data Centre (CCDC).
#
# This work is licensed under the Creative Commons
# Attribution-NonCommercial-ShareAlike 4.0 International License.
# To view a copy of this license, visit
# http://creativecommons.org/licenses/by-nc-sa/4.0/
# or send a letter to
# Creative Commons, PO Box 1866, Mountain View, CA 94042, USA.
#
# CIF created using the CSD Python API on 29 September 2022
# The structure has been converted into the P1 space group
# The structure has a 3D framework
# The original CSD entry KABPEM is in the orthorhombic crystal system
# The framework has been calculated to contain at least 10.0% void space
# The void calculation uses a probe of radius 1.32A, grid spacing 0.4
# H atom positions have been added when not included in the experimental data
#
###############################################################################

data_KABPEM
_chemical_formula_moiety         '(C528 H448 O220 Zn32)n'
_symmetry_cell_setting           triclinic
_symmetry_space_group_name_H-M   'P 1'
_symmetry_Int_Tables_number      1
_space_group_name_Hall           'P 1'
loop_
_symmetry_equiv_pos_site_id
_symmetry_equiv_pos_as_xyz
1 x,y,z
_cell_length_a                   19.8898(17)
_cell_length_b                   24.5141(17)
_cell_length_c                   29.240(4)
_cell_angle_alpha                90
_cell_angle_beta                 90
_cell_angle_gamma                90
_cell_volume                     14256.9
loop_
_atom_site_label
_atom_site_type_symbol
_atom_site_fract_x
_atom_site_fract_y
_atom_site_fract_z
O4 O 0.0576(6) 0.0519(4) 0.4025(4)
O5 O 0.1448(7) 0.3793(6) 0.1896(5)
O8 O 0.4605(5) 0.0815(4) 0.3334(4)
O9 O 0.0020(5) 0.1873(4) 0.2939(3)
O11 O 0.1539(4) 0.1475(4) 0.3590(4)
O12 O 0.1227(11) 0.3244(12) 0.1345(5)
O14 O 0.4684(5) 0.1479(5) 0.3847(3)
C1 C 0.4353(6) 0.1168(6) 0.3582(5)
C5 C 0.0835(9) 0.3013(8) 0.2067(5)
C6 C 0.1210(8) 0.3377(10) 0.1731(6)
C7 C 0.0162(7) 0.1815(5) 0.3418(4)
H6 H 0.0515 0.2066 0.3509
C8 C 0.0565(7) 0.2736(6) 0.2838(4)
H7 H 0.0557 0.2812 0.3149
C9 C 0.0533(10) 0.2549(9) 0.1916(6)
H8 H 0.0504 0.2489 0.1603
C11 C 0.0836(8) 0.3111(7) 0.2524(6)
H9 H 0.1020 0.3434 0.2632
C15 C 0.0747(7) 0.0534(5) 0.4850(4)
H10 H 0.0566 0.0881 0.4887
C16 C 0.0275(10) 0.2171(8) 0.2205(6)
H11 H 0.0073 0.1855 0.2093
C18 C 0.0387(6) 0.1229(5) 0.3490(4)
C19 C 0.3593(7) 0.1249(7) 0.3594(5)
C20 C 0.0320(6) 0.2267(5) 0.2676(4)
H13 H 0.0017 0.0894 0.2902
H14 H 0.0084 0.0466 0.3300
C22 C 0.1106(6) 0.1137(6) 0.3306(4)
H15 H 0.1231 0.0756 0.3330
H16 H 0.1137 0.1247 0.2988
C23 C 0.0994(7) 0.0238(5) 0.5228(4)
H17 H 0.1022 0.0406 0.5512
C25 C 0.0779(7) 0.0302(5) 0.4435(4)
C26 C 0.3199(9) 0.0951(7) 0.3299(6)
H18 H 0.3408 0.0704 0.3103
C27 C 0.0372(6) 0.1088(4) 0.4007(4)
H19 H 0.0683 0.1317 0.4176
C29 C 0.2213(6) 0.1376(6) 0.3583(5)
C31 C 0.2510(7) 0.1002(6) 0.3279(5)
H23 H 0.2254 0.0799 0.3075
C32 C 0.2604(7) 0.1677(8) 0.3876(6)
H24 H 0.2410 0.1936 0.4067
C33 C 0.3277(7) 0.1592(7) 0.3882(6)
H25 H 0.3533 0.1780 0.4096
Zn3 Zn 0.19095(10) 0.43447(8) 0.15174(5)
Zn5 Zn 0.55905(10) 0.18447(8) 0.40174(5)
Zn6 Zn 0.19195(8) 0.33001(7) 0.08829(8)
Zn7 Zn 0.55805(8) 0.08001(7) 0.33829(8)
O13 O 0.7353(6) 0.9892(5) 0.1874(4)
Zn4 Zn 0.69095(10) 0.93447(8) 0.15174(5)
Zn1 Zn 0.05905(10) 0.18447(8) 0.90174(5)
O1 O 0.0752(10) 0.0183(5) 0.7989(8)
Zn2 Zn 0.05805(8) 0.08001(7) 0.83829(8)
O2 O 0.0964(5) 0.2138(4) 0.8454(3)
O3 O 0.3234(4) 0.3424(4) 0.5846(3)
O4_2 O 0.1924(6) 0.3019(4) 0.6525(4)
O5_2 O 0.1052(7) 0.6293(6) 0.4396(5)
O6 O 0.1085(4) 0.2102(3) 0.9144(3)
O7 O 0.5905(6) 0.2646(9) 0.4841(5)
O9_2 O 0.2480(5) 0.4373(4) 0.5439(3)
O10 O 0.0910(6) 0.1402(4) 0.8010(4)
O11_2 O 0.0961(4) 0.3975(4) 0.6090(4)
O12_2 O 0.1273(11) 0.5744(12) 0.3845(5)
O13_2 O 0.5147(6) 0.2392(5) 0.4374(4)
C2 C 0.4377(7) 0.3303(6) 0.5690(5)
H2 H 0.4467 0.3503 0.5953
C3 C 0.4106(7) 0.2731(6) 0.4893(5)
H3 H 0.4012 0.2559 0.4617
C4 C 0.4890(7) 0.3114(7) 0.5433(5)
H4 H 0.5329 0.3182 0.5524
C5_2 C 0.1665(9) 0.5513(8) 0.4567(5)
C6_2 C 0.1290(8) 0.5877(10) 0.4231(6)
C7_2 C 0.2338(7) 0.4315(5) 0.5918(4)
H5 H 0.2736 0.4391 0.6097
H6_2 H 0.1985 0.4566 0.6009
C8_2 C 0.1935(7) 0.5236(6) 0.5338(4)
H7_2 H 0.1943 0.5312 0.5649
C9_2 C 0.1967(10) 0.5049(9) 0.4416(6)
H8_2 H 0.1996 0.4989 0.4103
C10 C 0.3717(6) 0.3201(5) 0.5565(4)
C11_2 C 0.1664(8) 0.5611(7) 0.5024(6)
H9_2 H 0.1480 0.5934 0.5132
C12 C 0.4777(7) 0.2824(6) 0.5040(5)
C13 C 0.1042(6) 0.1892(5) 0.8084(5)
C14 C 0.5327(8) 0.2623(7) 0.4733(4)
C15_2 C 0.1753(7) 0.3034(5) 0.7350(4)
H10_2 H 0.1934 0.3381 0.7387
C16_2 C 0.2225(10) 0.4671(8) 0.4705(6)
H11_2 H 0.2427 0.4355 0.4593
C17 C 0.3590(7) 0.2912(6) 0.5183(5)
H12 H 0.3146 0.2829 0.5110
C18_2 C 0.2113(6) 0.3729(5) 0.5990(4)
C20_2 C 0.2180(6) 0.4767(5) 0.5176(4)
C21 C 0.2545(6) 0.3338(5) 0.5728(4)
H13_2 H 0.2483 0.3394 0.5402
H14_2 H 0.2416 0.2966 0.5800
C22_2 C 0.1394(6) 0.3637(6) 0.5806(4)
H15_2 H 0.1269 0.3256 0.5830
H16_2 H 0.1363 0.3747 0.5488
C23_2 C 0.1506(7) 0.2738(5) 0.7728(4)
H17_2 H 0.1478 0.2906 0.8012
C24 C 0.1308(6) 0.2213(5) 0.7681(5)
C25_2 C 0.1721(7) 0.2802(5) 0.6935(4)
C27_2 C 0.2128(6) 0.3588(4) 0.6507(4)
H19_2 H 0.1817 0.3817 0.6676
H20 H 0.2576 0.3636 0.6631
C28 C 0.1293(8) 0.1978(5) 0.7258(5)
H21 H 0.1154 0.1618 0.7227
C29_2 C 0.0287(6) 0.3876(6) 0.6083(5)
C30 C 0.1479(7) 0.2265(6) 0.6883(5)
H22 H 0.1447 0.2108 0.6594
H23_2 H 0.0246 0.3299 0.5575
H24_2 H 0.0090 0.4436 0.6567
Zn3_2 Zn 0.05905(10) 0.68447(8) 0.40174(5)
Zn6_2 Zn 0.05805(8) 0.58001(7) 0.33829(8)
O15 O 0.1052(7) 0.1293(6) 0.9396(5)
O17 O 0.1273(11) 0.0744(12) 0.8845(5)
O18 O 0.0147(6) 0.2392(5) 0.9374(4)
H26 H 0.117399 0.0245317 0.78152
H27 H 0.149426 0.194888 0.899787
H28 H 0.112707 0.207481 0.948163
O8_2 O 0.7895(5) 0.3315(4) 0.5834(4)
O14_2 O 0.7816(5) 0.3979(5) 0.6347(3)
C1_2 C 0.8147(6) 0.3668(6) 0.6082(5)
C19_2 C 0.8907(7) 0.3749(7) 0.6094(5)
C26_2 C 0.9301(9) 0.3451(7) 0.5799(6)
H18_2 H 0.9092 0.3204 0.5603
C31_2 C 0.9990(7) 0.3502(6) 0.5779(5)
C32_2 C 0.9896(7) 0.4177(8) 0.6376(6)
C33_2 C 0.9223(7) 0.4092(7) 0.6382(6)
H25_2 H 0.8967 0.4280 0.6596
Zn5_2 Zn 0.69095(10) 0.43447(8) 0.65174(5)
Zn7_2 Zn 0.69195(8) 0.33001(7) 0.58829(8)
O16 O 0.9605(5) 0.0815(4) 0.8334(4)
O19 O 0.9684(5) 0.1479(5) 0.8847(3)
O1_2 O 0.1748(10) 0.2683(5) 0.0489(8)
H1 H 0.1710 0.2407 0.0645
O2_2 O 0.1536(5) 0.4638(4) 0.0954(3)
O6_2 O 0.1415(4) 0.4602(3) 0.1644(3)
O10_2 O 0.1590(6) 0.3902(4) 0.0510(4)
C13_2 C 0.1458(6) 0.4392(5) 0.0584(5)
C23_3 C 0.0994(7) 0.5238(5) 0.0228(4)
H17_3 H 0.1022 0.5406 0.0512
C24_2 C 0.1192(6) 0.4713(5) 0.0181(5)
O16_2 O 0.2895(5) 0.3315(4) 0.0834(4)
O18_2 O 0.2353(6) 0.4892(5) 0.1874(4)
O19_2 O 0.2816(5) 0.3979(5) 0.1347(3)
H26_2 H 0.132601 0.274532 0.0315202
H27_2 H 0.100574 0.444888 0.149787
H28_2 H 0.137293 0.457481 0.198163
O3_2 O 0.9266(4) 0.5924(4) 0.8346(3)
O7_2 O 0.6595(6) 0.5146(9) 0.7341(5)
O13_3 O 0.7353(6) 0.4892(5) 0.6874(4)
C2_2 C 0.8123(7) 0.5803(6) 0.8190(5)
H2_2 H 0.8033 0.6003 0.8453
C3_2 C 0.8394(7) 0.5231(6) 0.7393(5)
H3_2 H 0.8488 0.5059 0.7117
C4_2 C 0.7610(7) 0.5614(7) 0.7933(5)
H4_2 H 0.7171 0.5682 0.8024
H5_2 H 0.9764 0.6891 0.8597
C10_2 C 0.8783(6) 0.5701(5) 0.8065(4)
C12_2 C 0.7723(7) 0.5324(6) 0.7540(5)
C14_2 C 0.7173(8) 0.5123(7) 0.7233(4)
C17_2 C 0.8910(7) 0.5412(6) 0.7683(5)
H12_2 H 0.9354 0.5329 0.7610
C21_2 C 0.9955(6) 0.5838(5) 0.8228(4)
H20_2 H 0.9924 0.6136 0.9131
C5_3 C 0.1665(9) 0.0513(8) 0.9567(5)
C6_3 C 0.1290(8) 0.0877(10) 0.9231(6)
C9_3 C 0.1967(10) 0.0049(9) 0.9416(6)
O1_3 O 0.0752(10) 0.5183(5) 0.2989(8)
H1_2 H 0.0790 0.4907 0.3145
O2_3 O 0.0964(5) 0.7138(4) 0.3454(3)
O3_3 O 0.3234(4) 0.8424(4) 0.0846(3)
O4_3 O 0.1924(6) 0.8019(4) 0.1525(4)
O6_3 O 0.1085(4) 0.7102(3) 0.4144(3)
O9_3 O 0.2480(5) 0.9373(4) 0.0439(3)
O10_3 O 0.0910(6) 0.6402(4) 0.3010(4)
O11_3 O 0.0961(4) 0.8975(4) 0.1090(4)
C2_3 C 0.4377(7) 0.8303(6) 0.0690(5)
H2_3 H 0.4467 0.8503 0.0953
C4_3 C 0.4890(7) 0.8114(7) 0.0433(5)
H4_3 H 0.5329 0.8182 0.0524
C7_3 C 0.2338(7) 0.9315(5) 0.0918(4)
H5_3 H 0.2736 0.9391 0.1097
H6_3 H 0.1985 0.9566 0.1009
C10_3 C 0.3717(6) 0.8201(5) 0.0565(4)
C12_3 C 0.4777(7) 0.7824(6) 0.0040(5)
C13_3 C 0.1042(6) 0.6892(5) 0.3084(5)
C15_3 C 0.1753(7) 0.8034(5) 0.2350(4)
H10_3 H 0.1934 0.8381 0.2387
C17_3 C 0.3590(7) 0.7912(6) 0.0183(5)
H12_3 H 0.3146 0.7829 0.0110
C18_3 C 0.2113(6) 0.8729(5) 0.0990(4)
C20_3 C 0.2180(6) 0.9767(5) 0.0176(4)
C21_3 C 0.2545(6) 0.8338(5) 0.0728(4)
H13_3 H 0.2483 0.8394 0.0402
H14_3 H 0.2416 0.7966 0.0800
C22_3 C 0.1394(6) 0.8637(6) 0.0806(4)
H15_3 H 0.1269 0.8256 0.0830
H16_3 H 0.1363 0.8747 0.0488
C23_4 C 0.1506(7) 0.7738(5) 0.2728(4)
H17_4 H 0.1478 0.7906 0.3012
C24_3 C 0.1308(6) 0.7213(5) 0.2681(5)
C25_3 C 0.1721(7) 0.7802(5) 0.1935(4)
C27_3 C 0.2128(6) 0.8588(4) 0.1507(4)
H19_3 H 0.1817 0.8817 0.1676
H20_3 H 0.2576 0.8636 0.1631
C28_2 C 0.1293(8) 0.6978(5) 0.2258(5)
H21_2 H 0.1154 0.6618 0.2227
C29_3 C 0.0287(6) 0.8876(6) 0.1083(5)
C30_2 C 0.1479(7) 0.7265(6) 0.1883(5)
H22_2 H 0.1447 0.7108 0.1594
H23_3 H 0.0246 0.8299 0.0575
H24_3 H 0.0090 0.9436 0.1567
O18_3 O 0.0147(6) 0.7392(5) 0.4374(4)
H26_3 H 0.117399 0.524532 0.28152
H27_3 H 0.149426 0.694888 0.399787
H28_3 H 0.112707 0.707481 0.448163
O8_3 O 0.7895(5) 0.8315(4) 0.0834(4)
O14_3 O 0.7816(5) 0.8979(5) 0.1347(3)
C1_3 C 0.8147(6) 0.8668(6) 0.1082(5)
C19_3 C 0.8907(7) 0.8749(7) 0.1094(5)
C26_3 C 0.9301(9) 0.8451(7) 0.0799(6)
H18_3 H 0.9092 0.8204 0.0603
C31_3 C 0.9990(7) 0.8502(6) 0.0779(5)
C32_3 C 0.9896(7) 0.9177(8) 0.1376(6)
C33_3 C 0.9223(7) 0.9092(7) 0.1382(6)
H25_3 H 0.8967 0.9280 0.1596
Zn7_3 Zn 0.69195(8) 0.83001(7) 0.08829(8)
O16_3 O 0.9605(5) 0.5815(4) 0.3334(4)
O19_3 O 0.9684(5) 0.6479(5) 0.3847(3)
O3_4 O 0.4266(4) 0.0924(4) 0.8346(3)
O4_4 O 0.5576(6) 0.0519(4) 0.9025(4)
O5_3 O 0.6448(7) 0.3793(6) 0.6896(5)
O7_3 O 0.1595(6) 0.0146(9) 0.7341(5)
O9_4 O 0.5020(5) 0.1873(4) 0.7939(3)
O11_4 O 0.6539(4) 0.1475(4) 0.8590(4)
O12_3 O 0.6227(11) 0.3244(12) 0.6345(5)
C1_4 C 0.9353(6) 0.1168(6) 0.8582(5)
C2_4 C 0.3123(7) 0.0803(6) 0.8190(5)
H2_4 H 0.3033 0.1003 0.8453
C3_3 C 0.3394(7) 0.0231(6) 0.7393(5)
H3_3 H 0.3488 0.0059 0.7117
C4_4 C 0.2610(7) 0.0614(7) 0.7933(5)
H4_4 H 0.2171 0.0682 0.8024
C5_4 C 0.5835(9) 0.3013(8) 0.7067(5)
C6_4 C 0.6210(8) 0.3377(10) 0.6731(6)
C7_4 C 0.5162(7) 0.1815(5) 0.8418(4)
H5_4 H 0.4764 0.1891 0.8597
H6_4 H 0.5515 0.2066 0.8509
C8_3 C 0.5565(7) 0.2736(6) 0.7838(4)
H7_3 H 0.5557 0.2812 0.8149
C9_4 C 0.5533(10) 0.2549(9) 0.6916(6)
H8_3 H 0.5504 0.2489 0.6603
C10_4 C 0.3783(6) 0.0701(5) 0.8065(4)
C11_3 C 0.5836(8) 0.3111(7) 0.7524(6)
H9_3 H 0.6020 0.3434 0.7632
C12_4 C 0.2723(7) 0.0324(6) 0.7540(5)
C14_3 C 0.2173(8) 0.0123(7) 0.7233(4)
C15_4 C 0.5747(7) 0.0534(5) 0.9850(4)
H10_4 H 0.5566 0.0881 0.9887
C16_3 C 0.5275(10) 0.2171(8) 0.7205(6)
H11_3 H 0.5073 0.1855 0.7093
C17_4 C 0.3910(7) 0.0412(6) 0.7683(5)
H12_4 H 0.4354 0.0329 0.7610
C18_4 C 0.5387(6) 0.1229(5) 0.8490(4)
C19_4 C 0.8593(7) 0.1249(7) 0.8594(5)
C20_4 C 0.5320(6) 0.2267(5) 0.7676(4)
C21_4 C 0.4955(6) 0.0838(5) 0.8228(4)
H13_4 H 0.5017 0.0894 0.7902
H14_4 H 0.5084 0.0466 0.8300
C22_4 C 0.6106(6) 0.1137(6) 0.8306(4)
H15_4 H 0.6231 0.0756 0.8330
H16_4 H 0.6137 0.1247 0.7988
C25_4 C 0.5779(7) 0.0302(5) 0.9435(4)
C26_4 C 0.8199(9) 0.0951(7) 0.8299(6)
H18_4 H 0.8408 0.0704 0.8103
C27_4 C 0.5372(6) 0.1088(4) 0.9007(4)
H19_4 H 0.5683 0.1317 0.9176
H20_4 H 0.4924 0.1136 0.9131
C29_4 C 0.7213(6) 0.1376(6) 0.8583(5)
C31_4 C 0.7510(7) 0.1002(6) 0.8279(5)
H23_4 H 0.7254 0.0799 0.8075
C32_4 C 0.7604(7) 0.1677(8) 0.8876(6)
H24_4 H 0.7410 0.1936 0.9067
C33_4 C 0.8277(7) 0.1592(7) 0.8882(6)
H25_4 H 0.8533 0.1780 0.9096
O1_4 O 0.6748(10) 0.7683(5) 0.0489(8)
H1_3 H 0.6710 0.7407 0.0645
O2_4 O 0.6536(5) 0.9638(4) 0.0954(3)
O6_4 O 0.6415(4) 0.9602(3) 0.1644(3)
O10_4 O 0.6590(6) 0.8902(4) 0.0510(4)
C13_4 C 0.6458(6) 0.9392(5) 0.0584(5)
C24_4 C 0.6192(6) 0.9713(5) 0.0181(5)
O15_2 O 0.6448(7) 0.8793(6) 0.1896(5)
O17_2 O 0.6227(11) 0.8244(12) 0.1345(5)
H26_4 H 0.632601 0.774532 0.0315202
H27_4 H 0.600574 0.944888 0.149787
H28_4 H 0.637293 0.957481 0.198163
O7_4 O 0.0905(6) 0.2646(9) 0.9841(5)
C14_4 C 0.0327(8) 0.2623(7) 0.9733(4)
O1_5 O 0.5752(10) 0.0183(5) 0.2989(8)
O2_5 O 0.5964(5) 0.2138(4) 0.3454(3)
O3_5 O 0.8234(4) 0.3424(4) 0.0846(3)
O4_5 O 0.6924(6) 0.3019(4) 0.1525(4)
O6_5 O 0.6085(4) 0.2102(3) 0.4144(3)
O9_5 O 0.7480(5) 0.4373(4) 0.0439(3)
O10_5 O 0.5910(6) 0.1402(4) 0.3010(4)
O11_5 O 0.5961(4) 0.3975(4) 0.1090(4)
C1_5 C 0.3147(6) 0.3668(6) 0.1082(5)
C2_5 C 0.9377(7) 0.3303(6) 0.0690(5)
H2_5 H 0.9467 0.3503 0.0953
C4_5 C 0.9890(7) 0.3114(7) 0.0433(5)
C7_5 C 0.7338(7) 0.4315(5) 0.0918(4)
H5_5 H 0.7736 0.4391 0.1097
H6_5 H 0.6985 0.4566 0.1009
C8_4 C 0.6935(7) 0.5236(6) 0.0338(4)
H7_4 H 0.6943 0.5312 0.0649
C10_5 C 0.8717(6) 0.3201(5) 0.0565(4)
C11_4 C 0.6664(8) 0.5611(7) 0.0024(6)
H9_4 H 0.6480 0.5934 0.0132
C12_5 C 0.9777(7) 0.2824(6) 0.0040(5)
C13_5 C 0.6042(6) 0.1892(5) 0.3084(5)
C15_5 C 0.6753(7) 0.3034(5) 0.2350(4)
H10_5 H 0.6934 0.3381 0.2387
C17_5 C 0.8590(7) 0.2912(6) 0.0183(5)
H12_5 H 0.8146 0.2829 0.0110
C18_5 C 0.7113(6) 0.3729(5) 0.0990(4)
C19_5 C 0.3907(7) 0.3749(7) 0.1094(5)
C20_5 C 0.7180(6) 0.4767(5) 0.0176(4)
C21_5 C 0.7545(6) 0.3338(5) 0.0728(4)
H13_5 H 0.7483 0.3394 0.0402
H14_5 H 0.7416 0.2966 0.0800
C22_5 C 0.6394(6) 0.3637(6) 0.0806(4)
H15_5 H 0.6269 0.3256 0.0830
H16_5 H 0.6363 0.3747 0.0488
C23_5 C 0.6506(7) 0.2738(5) 0.2728(4)
H17_5 H 0.6478 0.2906 0.3012
C24_5 C 0.6308(6) 0.2213(5) 0.2681(5)
C25_5 C 0.6721(7) 0.2802(5) 0.1935(4)
C26_5 C 0.4301(9) 0.3451(7) 0.0799(6)
H18_5 H 0.4092 0.3204 0.0603
C27_5 C 0.7128(6) 0.3588(4) 0.1507(4)
H19_5 H 0.6817 0.3817 0.1676
H20_5 H 0.7576 0.3636 0.1631
C28_3 C 0.6293(8) 0.1978(5) 0.2258(5)
H21_3 H 0.6154 0.1618 0.2227
C29_5 C 0.5287(6) 0.3876(6) 0.1083(5)
C30_3 C 0.6479(7) 0.2265(6) 0.1883(5)
H22_3 H 0.6447 0.2108 0.1594
C31_5 C 0.4990(7) 0.3502(6) 0.0779(5)
H23_5 H 0.5246 0.3299 0.0575
C32_5 C 0.4896(7) 0.4177(8) 0.1376(6)
H24_5 H 0.5090 0.4436 0.1567
C33_5 C 0.4223(7) 0.4092(7) 0.1382(6)
H25_5 H 0.3967 0.4280 0.1596
O15_3 O 0.6052(7) 0.1293(6) 0.4396(5)
O17_3 O 0.6273(11) 0.0744(12) 0.3845(5)
H26_5 H 0.617399 0.0245317 0.28152
H27_5 H 0.649426 0.194888 0.399787
H28_5 H 0.612707 0.207481 0.448163
O1_6 O 0.6748(10) 0.2683(5) 0.5489(8)
H1_4 H 0.6710 0.2407 0.5645
O2_6 O 0.6536(5) 0.4638(4) 0.5954(3)
O3_6 O 0.4266(4) 0.5924(4) 0.3346(3)
O4_6 O 0.5576(6) 0.5519(4) 0.4025(4)
O6_6 O 0.6415(4) 0.4602(3) 0.6644(3)
O7_5 O 0.1595(6) 0.5146(9) 0.2341(5)
O9_6 O 0.5020(5) 0.6873(4) 0.2939(3)
O10_6 O 0.6590(6) 0.3902(4) 0.5510(4)
O11_6 O 0.6539(4) 0.6475(4) 0.3590(4)
C1_6 C 0.9353(6) 0.6168(6) 0.3582(5)
C2_6 C 0.3123(7) 0.5803(6) 0.3190(5)
H2_6 H 0.3033 0.6003 0.3453
C3_4 C 0.3394(7) 0.5231(6) 0.2393(5)
H3_4 H 0.3488 0.5059 0.2117
C4_6 C 0.2610(7) 0.5614(7) 0.2933(5)
H4_5 H 0.2171 0.5682 0.3024
C5_5 C 0.5835(9) 0.8013(8) 0.2067(5)
C6_5 C 0.6210(8) 0.8377(10) 0.1731(6)
C7_6 C 0.5162(7) 0.6815(5) 0.3418(4)
H5_6 H 0.4764 0.6891 0.3597
H6_6 H 0.5515 0.7066 0.3509
C8_5 C 0.5565(7) 0.7736(6) 0.2838(4)
H7_5 H 0.5557 0.7812 0.3149
C9_5 C 0.5533(10) 0.7549(9) 0.1916(6)
H8_4 H 0.5504 0.7489 0.1603
C10_6 C 0.3783(6) 0.5701(5) 0.3065(4)
C11_5 C 0.5836(8) 0.8111(7) 0.2524(6)
H9_5 H 0.6020 0.8434 0.2632
C12_6 C 0.2723(7) 0.5324(6) 0.2540(5)
C13_6 C 0.6458(6) 0.4392(5) 0.5584(5)
C14_5 C 0.2173(8) 0.5123(7) 0.2233(4)
C15_6 C 0.5747(7) 0.5534(5) 0.4850(4)
H10_6 H 0.5566 0.5881 0.4887
C16_4 C 0.5275(10) 0.7171(8) 0.2205(6)
H11_4 H 0.5073 0.6855 0.2093
C17_6 C 0.3910(7) 0.5412(6) 0.2683(5)
H12_6 H 0.4354 0.5329 0.2610
C18_6 C 0.5387(6) 0.6229(5) 0.3490(4)
C19_6 C 0.8593(7) 0.6249(7) 0.3594(5)
C20_6 C 0.5320(6) 0.7267(5) 0.2676(4)
C21_6 C 0.4955(6) 0.5838(5) 0.3228(4)
H13_6 H 0.5017 0.5894 0.2902
H14_6 H 0.5084 0.5466 0.3300
C22_6 C 0.6106(6) 0.6137(6) 0.3306(4)
H15_6 H 0.6231 0.5756 0.3330
H16_6 H 0.6137 0.6247 0.2988
C23_6 C 0.5994(7) 0.5238(5) 0.5228(4)
H17_6 H 0.6022 0.5406 0.5512
C24_6 C 0.6192(6) 0.4713(5) 0.5181(5)
C25_6 C 0.5779(7) 0.5302(5) 0.4435(4)
C26_6 C 0.8199(9) 0.5951(7) 0.3299(6)
H18_6 H 0.8408 0.5704 0.3103
C27_6 C 0.5372(6) 0.6088(4) 0.4007(4)
H19_6 H 0.5683 0.6317 0.4176
H20_6 H 0.4924 0.6136 0.4131
C28_4 C 0.6207(8) 0.4478(5) 0.4758(5)
H21_4 H 0.6346 0.4118 0.4727
C29_6 C 0.7213(6) 0.6376(6) 0.3583(5)
C30_4 C 0.6021(7) 0.4765(6) 0.4383(5)
H22_4 H 0.6053 0.4608 0.4094
C31_6 C 0.7510(7) 0.6002(6) 0.3279(5)
H23_6 H 0.7254 0.5799 0.3075
C32_6 C 0.7604(7) 0.6677(8) 0.3876(6)
H24_6 H 0.7410 0.6936 0.4067
C33_6 C 0.8277(7) 0.6592(7) 0.3882(6)
H25_6 H 0.8533 0.6780 0.4096
H26_6 H 0.632601 0.274532 0.53152
H27_6 H 0.600574 0.444888 0.649787
H28_6 H 0.637293 0.457481 0.698163
O7_6 O 0.0905(6) 0.7646(9) 0.4841(5)
H4_6 H 0.0329 0.8182 0.5524
C14_6 C 0.0327(8) 0.7623(7) 0.4733(4)
C5_6 C 0.6665(9) 0.0513(8) 0.4567(5)
C6_6 C 0.6290(8) 0.0877(10) 0.4231(6)
C8_6 C 0.6935(7) 0.0236(6) 0.5338(4)
H7_6 H 0.6943 0.0312 0.5649
C9_6 C 0.6967(10) 0.0049(9) 0.4416(6)
C11_6 C 0.6664(8) 0.0611(7) 0.5024(6)
H9_6 H 0.6480 0.0934 0.5132
Zn1_2 Zn 0.19095(10) 0.93447(8) 0.65174(5)
O1_7 O 0.1748(10) 0.7683(5) 0.5489(8)
H1_5 H 0.1710 0.7407 0.5645
Zn2_2 Zn 0.19195(8) 0.83001(7) 0.58829(8)
O2_7 O 0.1536(5) 0.9638(4) 0.5954(3)
O6_7 O 0.1415(4) 0.9602(3) 0.6644(3)
O10_7 O 0.1590(6) 0.8902(4) 0.5510(4)
C13_7 C 0.1458(6) 0.9392(5) 0.5584(5)
C24_7 C 0.1192(6) 0.9713(5) 0.5181(5)
C28_5 C 0.1207(8) 0.9478(5) 0.4758(5)
H21_5 H 0.1346 0.9118 0.4727
C30_5 C 0.1021(7) 0.9765(6) 0.4383(5)
H22_5 H 0.1053 0.9608 0.4094
O15_4 O 0.1448(7) 0.8793(6) 0.6896(5)
O16_4 O 0.2895(5) 0.8315(4) 0.5834(4)
O17_4 O 0.1227(11) 0.8244(12) 0.6345(5)
O18_4 O 0.2353(6) 0.9892(5) 0.6874(4)
O19_4 O 0.2816(5) 0.8979(5) 0.6347(3)
H26_7 H 0.132601 0.774532 0.53152
H27_7 H 0.100574 0.944888 0.649787
H28_7 H 0.137293 0.957481 0.698163
O4_7 O 0.0576(6) 0.5519(4) 0.9025(4)
O8_4 O 0.4605(5) 0.5815(4) 0.8334(4)
O9_7 O 0.0020(5) 0.6873(4) 0.7939(3)
O11_7 O 0.1539(4) 0.6475(4) 0.8590(4)
O14_4 O 0.4684(5) 0.6479(5) 0.8847(3)
C1_7 C 0.4353(6) 0.6168(6) 0.8582(5)
C5_7 C 0.0835(9) 0.8013(8) 0.7067(5)
C6_7 C 0.1210(8) 0.8377(10) 0.6731(6)
C7_7 C 0.0162(7) 0.6815(5) 0.8418(4)
H6_7 H 0.0515 0.7066 0.8509
C8_7 C 0.0565(7) 0.7736(6) 0.7838(4)
H7_7 H 0.0557 0.7812 0.8149
C9_7 C 0.0533(10) 0.7549(9) 0.6916(6)
H8_5 H 0.0504 0.7489 0.6603
C11_7 C 0.0836(8) 0.8111(7) 0.7524(6)
H9_7 H 0.1020 0.8434 0.7632
C15_7 C 0.0747(7) 0.5534(5) 0.9850(4)
H10_7 H 0.0566 0.5881 0.9887
C16_5 C 0.0275(10) 0.7171(8) 0.7205(6)
H11_5 H 0.0073 0.6855 0.7093
C18_7 C 0.0387(6) 0.6229(5) 0.8490(4)
C19_7 C 0.3593(7) 0.6249(7) 0.8594(5)
C20_7 C 0.0320(6) 0.7267(5) 0.7676(4)
H13_7 H 0.0017 0.5894 0.7902
H14_7 H 0.0084 0.5466 0.8300
C22_7 C 0.1106(6) 0.6137(6) 0.8306(4)
H15_7 H 0.1231 0.5756 0.8330
H16_7 H 0.1137 0.6247 0.7988
C25_7 C 0.0779(7) 0.5302(5) 0.9435(4)
C26_7 C 0.3199(9) 0.5951(7) 0.8299(6)
H18_7 H 0.3408 0.5704 0.8103
C27_7 C 0.0372(6) 0.6088(4) 0.9007(4)
H19_7 H 0.0683 0.6317 0.9176
C28_6 C 0.1207(8) 0.4478(5) 0.9758(5)
H21_6 H 0.1346 0.4118 0.9727
C29_7 C 0.2213(6) 0.6376(6) 0.8583(5)
C30_6 C 0.1021(7) 0.4765(6) 0.9383(5)
H22_6 H 0.1053 0.4608 0.9094
C31_7 C 0.2510(7) 0.6002(6) 0.8279(5)
H23_7 H 0.2254 0.5799 0.8075
C32_7 C 0.2604(7) 0.6677(8) 0.8876(6)
H24_7 H 0.2410 0.6936 0.9067
C33_7 C 0.3277(7) 0.6592(7) 0.8882(6)
H25_7 H 0.3533 0.6780 0.9096
Zn5_3 Zn 0.55905(10) 0.68447(8) 0.90174(5)
Zn7_4 Zn 0.55805(8) 0.58001(7) 0.83829(8)
O7_7 O 0.5905(6) 0.7646(9) 0.9841(5)
O13_4 O 0.5147(6) 0.7392(5) 0.9374(4)
C3_5 C 0.4106(7) 0.7731(6) 0.9893(5)
H3_5 H 0.4012 0.7559 0.9617
H8_6 H 0.1996 0.9989 0.9103
C14_7 C 0.5327(8) 0.7623(7) 0.9733(4)
C16_6 C 0.2225(10) 0.9671(8) 0.9705(6)
H11_6 H 0.2427 0.9355 0.9593
C28_7 C 0.6207(8) 0.9478(5) 0.9758(5)
H21_7 H 0.6346 0.9118 0.9727
C30_7 C 0.6021(7) 0.9765(6) 0.9383(5)
H22_7 H 0.6053 0.9608 0.9094
O5_4 O 0.6052(7) 0.6293(6) 0.9396(5)
O12_4 O 0.6273(11) 0.5744(12) 0.8845(5)
C3_6 C 0.9106(7) 0.2731(6) 0.9893(5)
H3_6 H 0.9012 0.2559 0.9617
C5_8 C 0.6665(9) 0.5513(8) 0.9567(5)
C6_8 C 0.6290(8) 0.5877(10) 0.9231(6)
C9_8 C 0.6967(10) 0.5049(9) 0.9416(6)
H8_7 H 0.6996 0.4989 0.9103
C16_7 C 0.7225(10) 0.4671(8) 0.9705(6)
H11_7 H 0.7427 0.4355 0.9593
O1_8 O 0.5752(10) 0.5183(5) 0.7989(8)
H1_6 H 0.5790 0.4907 0.8145
O2_8 O 0.5964(5) 0.7138(4) 0.8454(3)
O3_7 O 0.8234(4) 0.8424(4) 0.5846(3)
O4_8 O 0.6924(6) 0.8019(4) 0.6525(4)
O6_8 O 0.6085(4) 0.7102(3) 0.9144(3)
O9_8 O 0.7480(5) 0.9373(4) 0.5439(3)
O10_8 O 0.5910(6) 0.6402(4) 0.8010(4)
O11_8 O 0.5961(4) 0.8975(4) 0.6090(4)
C1_8 C 0.3147(6) 0.8668(6) 0.6082(5)
C2_7 C 0.9377(7) 0.8303(6) 0.5690(5)
H2_7 H 0.9467 0.8503 0.5953
C3_7 C 0.9106(7) 0.7731(6) 0.4893(5)
H3_7 H 0.9012 0.7559 0.4617
C4_7 C 0.9890(7) 0.8114(7) 0.5433(5)
C7_8 C 0.7338(7) 0.9315(5) 0.5918(4)
H5_7 H 0.7736 0.9391 0.6097
H6_8 H 0.6985 0.9566 0.6009
H8_8 H 0.6996 0.9989 0.4103
C10_7 C 0.8717(6) 0.8201(5) 0.5565(4)
C12_7 C 0.9777(7) 0.7824(6) 0.5040(5)
C13_8 C 0.6042(6) 0.6892(5) 0.8084(5)
C15_8 C 0.6753(7) 0.8034(5) 0.7350(4)
H10_8 H 0.6934 0.8381 0.7387
C16_8 C 0.7225(10) 0.9671(8) 0.4705(6)
H11_8 H 0.7427 0.9355 0.4593
C17_7 C 0.8590(7) 0.7912(6) 0.5183(5)
H12_7 H 0.8146 0.7829 0.5110
C18_8 C 0.7113(6) 0.8729(5) 0.5990(4)
C19_8 C 0.3907(7) 0.8749(7) 0.6094(5)
C20_8 C 0.7180(6) 0.9767(5) 0.5176(4)
C21_7 C 0.7545(6) 0.8338(5) 0.5728(4)
H13_8 H 0.7483 0.8394 0.5402
H14_8 H 0.7416 0.7966 0.5800
C22_8 C 0.6394(6) 0.8637(6) 0.5806(4)
H15_8 H 0.6269 0.8256 0.5830
H16_8 H 0.6363 0.8747 0.5488
C23_7 C 0.6506(7) 0.7738(5) 0.7728(4)
H17_7 H 0.6478 0.7906 0.8012
C24_8 C 0.6308(6) 0.7213(5) 0.7681(5)
C25_8 C 0.6721(7) 0.7802(5) 0.6935(4)
C26_8 C 0.4301(9) 0.8451(7) 0.5799(6)
H18_8 H 0.4092 0.8204 0.5603
C27_8 C 0.7128(6) 0.8588(4) 0.6507(4)
H19_8 H 0.6817 0.8817 0.6676
H20_7 H 0.7576 0.8636 0.6631
C28_8 C 0.6293(8) 0.6978(5) 0.7258(5)
H21_8 H 0.6154 0.6618 0.7227
C29_8 C 0.5287(6) 0.8876(6) 0.6083(5)
C30_8 C 0.6479(7) 0.7265(6) 0.6883(5)
H22_8 H 0.6447 0.7108 0.6594
C31_8 C 0.4990(7) 0.8502(6) 0.5779(5)
H23_8 H 0.5246 0.8299 0.5575
C32_8 C 0.4896(7) 0.9177(8) 0.6376(6)
H24_8 H 0.5090 0.9436 0.6567
C33_8 C 0.4223(7) 0.9092(7) 0.6382(6)
H25_8 H 0.3967 0.9280 0.6596
H26_8 H 0.617399 0.524532 0.78152
H27_8 H 0.649426 0.694888 0.899787
H28_8 H 0.612707 0.707481 0.948163
O3_8 O 0.9266(4) 0.0924(4) 0.3346(3)
O7_8 O 0.6595(6) 0.0146(9) 0.2341(5)
C2_8 C 0.8123(7) 0.0803(6) 0.3190(5)
H2_8 H 0.8033 0.1003 0.3453
C3_8 C 0.8394(7) 0.0231(6) 0.2393(5)
H3_8 H 0.8488 0.0059 0.2117
C4_8 C 0.7610(7) 0.0614(7) 0.2933(5)
H4_7 H 0.7171 0.0682 0.3024
H5_8 H 0.9764 0.1891 0.3597
C10_8 C 0.8783(6) 0.0701(5) 0.3065(4)
C12_8 C 0.7723(7) 0.0324(6) 0.2540(5)
C14_8 C 0.7173(8) 0.0123(7) 0.2233(4)
C17_8 C 0.8910(7) 0.0412(6) 0.2683(5)
H12_8 H 0.9354 0.0329 0.2610
C21_8 C 0.9955(6) 0.0838(5) 0.3228(4)
H20_8 H 0.9924 0.1136 0.4131
O13_5 O 0.2647(6) 0.0108(5) 0.1874(4)
Zn4_2 Zn 0.30905(10) 0.06553(8) 0.15174(5)
O4_9 O 0.9424(6) 0.9481(4) 0.4025(4)
O5_5 O 0.8552(7) 0.6207(6) 0.1896(5)
O8_5 O 0.5395(5) 0.9185(4) 0.3334(4)
O9_9 O 0.9980(5) 0.8127(4) 0.2939(3)
O11_9 O 0.8461(4) 0.8525(4) 0.3590(4)
O12_5 O 0.8773(11) 0.6756(12) 0.1345(5)
O14_5 O 0.5316(5) 0.8521(5) 0.3847(3)
C1_9 C 0.5647(6) 0.8832(6) 0.3582(5)
C5_9 C 0.9165(9) 0.6987(8) 0.2067(5)
C6_9 C 0.8790(8) 0.6623(10) 0.1731(6)
C7_9 C 0.9838(7) 0.8185(5) 0.3418(4)
H6_9 H 0.9485 0.7934 0.3509
C8_8 C 0.9435(7) 0.7264(6) 0.2838(4)
H7_8 H 0.9443 0.7188 0.3149
C9_9 C 0.9467(10) 0.7451(9) 0.1916(6)
H8_9 H 0.9496 0.7511 0.1603
C11_8 C 0.9164(8) 0.6889(7) 0.2524(6)
H9_8 H 0.8980 0.6566 0.2632
C15_9 C 0.9253(7) 0.9466(5) 0.4850(4)
H10_9 H 0.9434 0.9119 0.4887
C16_9 C 0.9725(10) 0.7829(8) 0.2205(6)
H11_9 H 0.9927 0.8145 0.2093
C18_9 C 0.9613(6) 0.8771(5) 0.3490(4)
C19_9 C 0.6407(7) 0.8751(7) 0.3594(5)
C20_9 C 0.9680(6) 0.7733(5) 0.2676(4)
H13_9 H 0.9983 0.9106 0.2902
H14_9 H 0.9916 0.9534 0.3300
C22_9 C 0.8894(6) 0.8863(6) 0.3306(4)
H15_9 H 0.8769 0.9244 0.3330
H16_9 H 0.8863 0.8753 0.2988
C23_8 C 0.9006(7) 0.9762(5) 0.5228(4)
H17_8 H 0.8978 0.9594 0.5512
C25_9 C 0.9221(7) 0.9698(5) 0.4435(4)
C26_9 C 0.6801(9) 0.9049(7) 0.3299(6)
H18_9 H 0.6592 0.9296 0.3103
C27_9 C 0.9628(6) 0.8912(4) 0.4007(4)
H19_9 H 0.9317 0.8683 0.4176
C29_9 C 0.7787(6) 0.8624(6) 0.3583(5)
C31_9 C 0.7490(7) 0.8998(6) 0.3279(5)
H23_9 H 0.7746 0.9201 0.3075
C32_9 C 0.7396(7) 0.8323(8) 0.3876(6)
H24_9 H 0.7590 0.8064 0.4067
C33_9 C 0.6723(7) 0.8408(7) 0.3882(6)
H25_9 H 0.6467 0.8220 0.4096
Zn3_3 Zn 0.80905(10) 0.56553(8) 0.15174(5)
Zn5_4 Zn 0.44095(10) 0.81553(8) 0.40174(5)
Zn6_3 Zn 0.80805(8) 0.66999(7) 0.08829(8)
Zn7_5 Zn 0.44195(8) 0.91999(7) 0.33829(8)
O8_6 O 0.2105(5) 0.6685(4) 0.5834(4)
O14_6 O 0.2184(5) 0.6021(5) 0.6347(3)
C1_10 C 0.1853(6) 0.6332(6) 0.6082(5)
C19_10 C 0.1093(7) 0.6251(7) 0.6094(5)
C26_10 C 0.0699(9) 0.6549(7) 0.5799(6)
H18_10 H 0.0908 0.6796 0.5603
C31_10 C 0.0010(7) 0.6498(6) 0.5779(5)
C32_10 C 0.0104(7) 0.5823(8) 0.6376(6)
C33_10 C 0.0777(7) 0.5908(7) 0.6382(6)
H25_10 H 0.1033 0.5720 0.6596
Zn5_5 Zn 0.30905(10) 0.56553(8) 0.65174(5)
Zn7_6 Zn 0.30805(8) 0.66999(7) 0.58829(8)
O16_5 O 0.0395(5) 0.9185(4) 0.8334(4)
O19_5 O 0.0316(5) 0.8521(5) 0.8847(3)
Zn1_3 Zn 0.94095(10) 0.81553(8) 0.90174(5)
O1_9 O 0.9248(10) 0.9817(5) 0.7989(8)
Zn2_3 Zn 0.94195(8) 0.91999(7) 0.83829(8)
O2_9 O 0.9036(5) 0.7862(4) 0.8454(3)
O3_9 O 0.6766(4) 0.6576(4) 0.5846(3)
O4_10 O 0.8076(6) 0.6981(4) 0.6525(4)
O5_6 O 0.8948(7) 0.3707(6) 0.4396(5)
O6_9 O 0.8915(4) 0.7898(3) 0.9144(3)
O7_9 O 0.4095(6) 0.7354(9) 0.4841(5)
O9_10 O 0.7520(5) 0.5627(4) 0.5439(3)
O10_9 O 0.9090(6) 0.8598(4) 0.8010(4)
O11_10 O 0.9039(4) 0.6025(4) 0.6090(4)
O12_6 O 0.8727(11) 0.4256(12) 0.3845(5)
O13_6 O 0.4853(6) 0.7608(5) 0.4374(4)
C2_9 C 0.5623(7) 0.6697(6) 0.5690(5)
H2_9 H 0.5533 0.6497 0.5953
C3_9 C 0.5894(7) 0.7269(6) 0.4893(5)
H3_9 H 0.5988 0.7441 0.4617
C4_9 C 0.5110(7) 0.6886(7) 0.5433(5)
H4_8 H 0.4671 0.6818 0.5524
C5_10 C 0.8335(9) 0.4487(8) 0.4567(5)
C6_10 C 0.8710(8) 0.4123(10) 0.4231(6)
C7_10 C 0.7662(7) 0.5685(5) 0.5918(4)
H5_9 H 0.7264 0.5609 0.6097
H6_10 H 0.8015 0.5434 0.6009
C8_9 C 0.8065(7) 0.4764(6) 0.5338(4)
H7_9 H 0.8057 0.4688 0.5649
C9_10 C 0.8033(10) 0.4951(9) 0.4416(6)
H8_10 H 0.8004 0.5011 0.4103
C10_9 C 0.6283(6) 0.6799(5) 0.5565(4)
C11_9 C 0.8336(8) 0.4389(7) 0.5024(6)
H9_9 H 0.8520 0.4066 0.5132
C12_9 C 0.5223(7) 0.7176(6) 0.5040(5)
C13_9 C 0.8958(6) 0.8108(5) 0.8084(5)
C14_9 C 0.4673(8) 0.7377(7) 0.4733(4)
C15_10 C 0.8247(7) 0.6966(5) 0.7350(4)
H10_10 H 0.8066 0.6619 0.7387
C16_10 C 0.7775(10) 0.5329(8) 0.4705(6)
H11_10 H 0.7573 0.5645 0.4593
C17_9 C 0.6410(7) 0.7088(6) 0.5183(5)
H12_9 H 0.6854 0.7171 0.5110
C18_10 C 0.7887(6) 0.6271(5) 0.5990(4)
C20_10 C 0.7820(6) 0.5233(5) 0.5176(4)
C21_9 C 0.7455(6) 0.6662(5) 0.5728(4)
H13_10 H 0.7517 0.6606 0.5402
H14_10 H 0.7584 0.7034 0.5800
C22_10 C 0.8606(6) 0.6363(6) 0.5806(4)
H15_10 H 0.8731 0.6744 0.5830
H16_10 H 0.8637 0.6253 0.5488
C23_9 C 0.8494(7) 0.7262(5) 0.7728(4)
H17_9 H 0.8522 0.7094 0.8012
C24_9 C 0.8692(6) 0.7787(5) 0.7681(5)
C25_10 C 0.8279(7) 0.7198(5) 0.6935(4)
C27_10 C 0.7872(6) 0.6412(4) 0.6507(4)
H19_10 H 0.8183 0.6183 0.6676
H20_9 H 0.7424 0.6364 0.6631
C28_9 C 0.8707(8) 0.8022(5) 0.7258(5)
H21_9 H 0.8846 0.8382 0.7227
C29_10 C 0.9713(6) 0.6124(6) 0.6083(5)
C30_9 C 0.8521(7) 0.7735(6) 0.6883(5)
H22_9 H 0.8553 0.7892 0.6594
H23_10 H 0.9754 0.6701 0.5575
H24_10 H 0.9910 0.5564 0.6567
Zn3_4 Zn 0.94095(10) 0.31553(8) 0.40174(5)
Zn6_4 Zn 0.94195(8) 0.41999(7) 0.33829(8)
O15_5 O 0.8948(7) 0.8707(6) 0.9396(5)
O17_5 O 0.8727(11) 0.9256(12) 0.8845(5)
O18_5 O 0.9853(6) 0.7608(5) 0.9374(4)
H26_9 H 0.882601 0.975468 0.78152
H27_9 H 0.850574 0.805112 0.899787
H28_9 H 0.887293 0.792519 0.948163
O3_10 O 0.0734(4) 0.4076(4) 0.8346(3)
O7_10 O 0.3405(6) 0.4854(9) 0.7341(5)
O13_7 O 0.2647(6) 0.5108(5) 0.6874(4)
C2_10 C 0.1877(7) 0.4197(6) 0.8190(5)
H2_10 H 0.1967 0.3997 0.8453
C3_10 C 0.1606(7) 0.4769(6) 0.7393(5)
H3_10 H 0.1512 0.4941 0.7117
C4_10 C 0.2390(7) 0.4386(7) 0.7933(5)
H4_9 H 0.2829 0.4318 0.8024
H5_10 H 0.0236 0.3109 0.8597
C10_10 C 0.1217(6) 0.4299(5) 0.8065(4)
C12_10 C 0.2277(7) 0.4676(6) 0.7540(5)
C14_10 C 0.2827(8) 0.4877(7) 0.7233(4)
C17_10 C 0.1090(7) 0.4588(6) 0.7683(5)
H12_10 H 0.0646 0.4671 0.7610
C21_10 C 0.0045(6) 0.4162(5) 0.8228(4)
H20_10 H 0.0076 0.3864 0.9131
O1_10 O 0.8252(10) 0.7317(5) 0.0489(8)
H1_7 H 0.8290 0.7593 0.0645
O2_10 O 0.8464(5) 0.5362(4) 0.0954(3)
O6_10 O 0.8585(4) 0.5398(3) 0.1644(3)
O10_10 O 0.8410(6) 0.6098(4) 0.0510(4)
C13_10 C 0.8542(6) 0.5608(5) 0.0584(5)
C23_10 C 0.9006(7) 0.4762(5) 0.0228(4)
H17_10 H 0.8978 0.4594 0.0512
C24_10 C 0.8808(6) 0.5287(5) 0.0181(5)
O16_6 O 0.7105(5) 0.6685(4) 0.0834(4)
O18_6 O 0.7647(6) 0.5108(5) 0.1874(4)
O19_6 O 0.7184(5) 0.6021(5) 0.1347(3)
H26_10 H 0.867399 0.725468 0.0315202
H27_10 H 0.899426 0.555112 0.149787
H28_10 H 0.862707 0.542519 0.198163
O8_7 O 0.2105(5) 0.1685(4) 0.0834(4)
O14_7 O 0.2184(5) 0.1021(5) 0.1347(3)
C1_11 C 0.1853(6) 0.1332(6) 0.1082(5)
C19_11 C 0.1093(7) 0.1251(7) 0.1094(5)
C26_11 C 0.0699(9) 0.1549(7) 0.0799(6)
H18_11 H 0.0908 0.1796 0.0603
C31_11 C 0.0010(7) 0.1498(6) 0.0779(5)
C32_11 C 0.0104(7) 0.0823(8) 0.1376(6)
C33_11 C 0.0777(7) 0.0908(7) 0.1382(6)
H25_11 H 0.1033 0.0720 0.1596
Zn7_7 Zn 0.30805(8) 0.16999(7) 0.08829(8)
O16_7 O 0.0395(5) 0.4185(4) 0.3334(4)
O19_7 O 0.0316(5) 0.3521(5) 0.3847(3)
O1_11 O 0.9248(10) 0.4817(5) 0.2989(8)
H1_8 H 0.9210 0.5093 0.3145
O2_11 O 0.9036(5) 0.2862(4) 0.3454(3)
O3_11 O 0.6766(4) 0.1576(4) 0.0846(3)
O4_11 O 0.8076(6) 0.1981(4) 0.1525(4)
O6_11 O 0.8915(4) 0.2898(3) 0.4144(3)
O9_11 O 0.7520(5) 0.0627(4) 0.0439(3)
O10_11 O 0.9090(6) 0.3598(4) 0.3010(4)
O11_11 O 0.9039(4) 0.1025(4) 0.1090(4)
C2_11 C 0.5623(7) 0.1697(6) 0.0690(5)
H2_11 H 0.5533 0.1497 0.0953
C4_11 C 0.5110(7) 0.1886(7) 0.0433(5)
H4_10 H 0.4671 0.1818 0.0524
C7_11 C 0.7662(7) 0.0685(5) 0.0918(4)
H5_11 H 0.7264 0.0609 0.1097
H6_11 H 0.8015 0.0434 0.1009
C10_11 C 0.6283(6) 0.1799(5) 0.0565(4)
C12_11 C 0.5223(7) 0.2176(6) 0.0040(5)
C13_11 C 0.8958(6) 0.3108(5) 0.3084(5)
C15_11 C 0.8247(7) 0.1966(5) 0.2350(4)
H10_11 H 0.8066 0.1619 0.2387
C17_11 C 0.6410(7) 0.2088(6) 0.0183(5)
H12_11 H 0.6854 0.2171 0.0110
C18_11 C 0.7887(6) 0.1271(5) 0.0990(4)
C20_11 C 0.7820(6) 0.0233(5) 0.0176(4)
C21_11 C 0.7455(6) 0.1662(5) 0.0728(4)
H13_11 H 0.7517 0.1606 0.0402
H14_11 H 0.7584 0.2034 0.0800
C22_11 C 0.8606(6) 0.1363(6) 0.0806(4)
H15_11 H 0.8731 0.1744 0.0830
H16_11 H 0.8637 0.1253 0.0488
C23_11 C 0.8494(7) 0.2262(5) 0.2728(4)
H17_11 H 0.8522 0.2094 0.3012
C24_11 C 0.8692(6) 0.2787(5) 0.2681(5)
C25_11 C 0.8279(7) 0.2198(5) 0.1935(4)
C27_11 C 0.7872(6) 0.1412(4) 0.1507(4)
H19_11 H 0.8183 0.1183 0.1676
H20_11 H 0.7424 0.1364 0.1631
C28_10 C 0.8707(8) 0.3022(5) 0.2258(5)
H21_10 H 0.8846 0.3382 0.2227
C29_11 C 0.9713(6) 0.1124(6) 0.1083(5)
C30_10 C 0.8521(7) 0.2735(6) 0.1883(5)
H22_10 H 0.8553 0.2892 0.1594
H23_11 H 0.9754 0.1701 0.0575
H24_11 H 0.9910 0.0564 0.1567
O18_7 O 0.9853(6) 0.2608(5) 0.4374(4)
H26_11 H 0.882601 0.475468 0.28152
H27_11 H 0.850574 0.305112 0.399787
H28_11 H 0.887293 0.292519 0.448163
C5_11 C 0.8335(9) 0.9487(8) 0.9567(5)
C6_11 C 0.8710(8) 0.9123(10) 0.9231(6)
C9_11 C 0.8033(10) 0.9951(9) 0.9416(6)
O1_12 O 0.3252(10) 0.2317(5) 0.0489(8)
H1_9 H 0.3290 0.2593 0.0645
O2_12 O 0.3464(5) 0.0362(4) 0.0954(3)
O6_12 O 0.3585(4) 0.0398(3) 0.1644(3)
O10_12 O 0.3410(6) 0.1098(4) 0.0510(4)
C13_12 C 0.3542(6) 0.0608(5) 0.0584(5)
C24_12 C 0.3808(6) 0.0287(5) 0.0181(5)
O15_6 O 0.3552(7) 0.1207(6) 0.1896(5)
O17_6 O 0.3773(11) 0.1756(12) 0.1345(5)
H26_12 H 0.367399 0.225468 0.0315202
H27_12 H 0.399426 0.0551116 0.149787
H28_12 H 0.362707 0.0425193 0.198163
O3_12 O 0.5734(4) 0.9076(4) 0.8346(3)
O4_12 O 0.4424(6) 0.9481(4) 0.9025(4)
O5_7 O 0.3552(7) 0.6207(6) 0.6896(5)
O7_11 O 0.8405(6) 0.9854(9) 0.7341(5)
O9_12 O 0.4980(5) 0.8127(4) 0.7939(3)
O11_12 O 0.3461(4) 0.8525(4) 0.8590(4)
O12_7 O 0.3773(11) 0.6756(12) 0.6345(5)
C1_12 C 0.0647(6) 0.8832(6) 0.8582(5)
C2_12 C 0.6877(7) 0.9197(6) 0.8190(5)
H2_12 H 0.6967 0.8997 0.8453
C3_11 C 0.6606(7) 0.9769(6) 0.7393(5)
H3_11 H 0.6512 0.9941 0.7117
C4_12 C 0.7390(7) 0.9386(7) 0.7933(5)
H4_11 H 0.7829 0.9318 0.8024
C5_12 C 0.4165(9) 0.6987(8) 0.7067(5)
C6_12 C 0.3790(8) 0.6623(10) 0.6731(6)
C7_12 C 0.4838(7) 0.8185(5) 0.8418(4)
H5_12 H 0.5236 0.8109 0.8597
H6_12 H 0.4485 0.7934 0.8509
C8_10 C 0.4435(7) 0.7264(6) 0.7838(4)
H7_10 H 0.4443 0.7188 0.8149
C9_12 C 0.4467(10) 0.7451(9) 0.6916(6)
H8_11 H 0.4496 0.7511 0.6603
C10_12 C 0.6217(6) 0.9299(5) 0.8065(4)
C11_10 C 0.4164(8) 0.6889(7) 0.7524(6)
H9_10 H 0.3980 0.6566 0.7632
C12_12 C 0.7277(7) 0.9676(6) 0.7540(5)
C14_11 C 0.7827(8) 0.9877(7) 0.7233(4)
C15_12 C 0.4253(7) 0.9466(5) 0.9850(4)
H10_12 H 0.4434 0.9119 0.9887
C16_11 C 0.4725(10) 0.7829(8) 0.7205(6)
H11_11 H 0.4927 0.8145 0.7093
C17_12 C 0.6090(7) 0.9588(6) 0.7683(5)
H12_12 H 0.5646 0.9671 0.7610
C18_12 C 0.4613(6) 0.8771(5) 0.8490(4)
C19_12 C 0.1407(7) 0.8751(7) 0.8594(5)
C20_12 C 0.4680(6) 0.7733(5) 0.7676(4)
C21_12 C 0.5045(6) 0.9162(5) 0.8228(4)
H13_12 H 0.4983 0.9106 0.7902
H14_12 H 0.4916 0.9534 0.8300
C22_12 C 0.3894(6) 0.8863(6) 0.8306(4)
H15_12 H 0.3769 0.9244 0.8330
H16_12 H 0.3863 0.8753 0.7988
C25_12 C 0.4221(7) 0.9698(5) 0.9435(4)
C26_12 C 0.1801(9) 0.9049(7) 0.8299(6)
H18_12 H 0.1592 0.9296 0.8103
C27_12 C 0.4628(6) 0.8912(4) 0.9007(4)
H19_12 H 0.4317 0.8683 0.9176
H20_12 H 0.5076 0.8864 0.9131
C29_12 C 0.2787(6) 0.8624(6) 0.8583(5)
C31_12 C 0.2490(7) 0.8998(6) 0.8279(5)
H23_12 H 0.2746 0.9201 0.8075
C32_12 C 0.2396(7) 0.8323(8) 0.8876(6)
H24_12 H 0.2590 0.8064 0.9067
C33_12 C 0.1723(7) 0.8408(7) 0.8882(6)
H25_12 H 0.1467 0.8220 0.9096
O1_13 O 0.4248(10) 0.9817(5) 0.2989(8)
O2_13 O 0.4036(5) 0.7862(4) 0.3454(3)
O3_13 O 0.1766(4) 0.6576(4) 0.0846(3)
O4_13 O 0.3076(6) 0.6981(4) 0.1525(4)
O6_13 O 0.3915(4) 0.7898(3) 0.4144(3)
O9_13 O 0.2520(5) 0.5627(4) 0.0439(3)
O10_13 O 0.4090(6) 0.8598(4) 0.3010(4)
O11_13 O 0.4039(4) 0.6025(4) 0.1090(4)
C1_13 C 0.6853(6) 0.6332(6) 0.1082(5)
C2_13 C 0.0623(7) 0.6697(6) 0.0690(5)
H2_13 H 0.0533 0.6497 0.0953
C4_13 C 0.0110(7) 0.6886(7) 0.0433(5)
C7_13 C 0.2662(7) 0.5685(5) 0.0918(4)
H5_13 H 0.2264 0.5609 0.1097
H6_13 H 0.3015 0.5434 0.1009
C8_11 C 0.3065(7) 0.4764(6) 0.0338(4)
H7_11 H 0.3057 0.4688 0.0649
C10_13 C 0.1283(6) 0.6799(5) 0.0565(4)
C11_11 C 0.3336(8) 0.4389(7) 0.0024(6)
H9_11 H 0.3520 0.4066 0.0132
C12_13 C 0.0223(7) 0.7176(6) 0.0040(5)
C13_13 C 0.3958(6) 0.8108(5) 0.3084(5)
C15_13 C 0.3247(7) 0.6966(5) 0.2350(4)
H10_13 H 0.3066 0.6619 0.2387
C17_13 C 0.1410(7) 0.7088(6) 0.0183(5)
H12_13 H 0.1854 0.7171 0.0110
C18_13 C 0.2887(6) 0.6271(5) 0.0990(4)
C19_13 C 0.6093(7) 0.6251(7) 0.1094(5)
C20_13 C 0.2820(6) 0.5233(5) 0.0176(4)
C21_13 C 0.2455(6) 0.6662(5) 0.0728(4)
H13_13 H 0.2517 0.6606 0.0402
H14_13 H 0.2584 0.7034 0.0800
C22_13 C 0.3606(6) 0.6363(6) 0.0806(4)
H15_13 H 0.3731 0.6744 0.0830
H16_13 H 0.3637 0.6253 0.0488
C23_12 C 0.3494(7) 0.7262(5) 0.2728(4)
H17_12 H 0.3522 0.7094 0.3012
C24_13 C 0.3692(6) 0.7787(5) 0.2681(5)
C25_13 C 0.3279(7) 0.7198(5) 0.1935(4)
C26_13 C 0.5699(9) 0.6549(7) 0.0799(6)
H18_13 H 0.5908 0.6796 0.0603
C27_13 C 0.2872(6) 0.6412(4) 0.1507(4)
H19_13 H 0.3183 0.6183 0.1676
H20_13 H 0.2424 0.6364 0.1631
C28_11 C 0.3707(8) 0.8022(5) 0.2258(5)
H21_11 H 0.3846 0.8382 0.2227
C29_13 C 0.4713(6) 0.6124(6) 0.1083(5)
C30_11 C 0.3521(7) 0.7735(6) 0.1883(5)
H22_11 H 0.3553 0.7892 0.1594
C31_13 C 0.5010(7) 0.6498(6) 0.0779(5)
H23_13 H 0.4754 0.6701 0.0575
C32_13 C 0.5104(7) 0.5823(8) 0.1376(6)
H24_13 H 0.4910 0.5564 0.1567
C33_13 C 0.5777(7) 0.5908(7) 0.1382(6)
H25_13 H 0.6033 0.5720 0.1596
O15_7 O 0.3948(7) 0.8707(6) 0.4396(5)
O17_7 O 0.3727(11) 0.9256(12) 0.3845(5)
H26_13 H 0.382601 0.975468 0.28152
H27_13 H 0.350574 0.805112 0.399787
H28_13 H 0.387293 0.792519 0.448163
O7_12 O 0.9095(6) 0.7354(9) 0.9841(5)
C14_12 C 0.9673(8) 0.7377(7) 0.9733(4)
O1_14 O 0.3252(10) 0.7317(5) 0.5489(8)
H1_10 H 0.3290 0.7593 0.5645
O2_14 O 0.3464(5) 0.5362(4) 0.5954(3)
O3_14 O 0.5734(4) 0.4076(4) 0.3346(3)
O4_14 O 0.4424(6) 0.4481(4) 0.4025(4)
O6_14 O 0.3585(4) 0.5398(3) 0.6644(3)
O7_13 O 0.8405(6) 0.4854(9) 0.2341(5)
O9_14 O 0.4980(5) 0.3127(4) 0.2939(3)
O10_14 O 0.3410(6) 0.6098(4) 0.5510(4)
O11_14 O 0.3461(4) 0.3525(4) 0.3590(4)
C1_14 C 0.0647(6) 0.3832(6) 0.3582(5)
C2_14 C 0.6877(7) 0.4197(6) 0.3190(5)
H2_14 H 0.6967 0.3997 0.3453
C3_12 C 0.6606(7) 0.4769(6) 0.2393(5)
H3_12 H 0.6512 0.4941 0.2117
C4_14 C 0.7390(7) 0.4386(7) 0.2933(5)
H4_12 H 0.7829 0.4318 0.3024
C5_13 C 0.4165(9) 0.1987(8) 0.2067(5)
C6_13 C 0.3790(8) 0.1623(10) 0.1731(6)
C7_14 C 0.4838(7) 0.3185(5) 0.3418(4)
H5_14 H 0.5236 0.3109 0.3597
H6_14 H 0.4485 0.2934 0.3509
C8_12 C 0.4435(7) 0.2264(6) 0.2838(4)
H7_12 H 0.4443 0.2188 0.3149
C9_13 C 0.4467(10) 0.2451(9) 0.1916(6)
H8_12 H 0.4496 0.2511 0.1603
C10_14 C 0.6217(6) 0.4299(5) 0.3065(4)
C11_12 C 0.4164(8) 0.1889(7) 0.2524(6)
H9_12 H 0.3980 0.1566 0.2632
C12_14 C 0.7277(7) 0.4676(6) 0.2540(5)
C13_14 C 0.3542(6) 0.5608(5) 0.5584(5)
C14_13 C 0.7827(8) 0.4877(7) 0.2233(4)
C15_14 C 0.4253(7) 0.4466(5) 0.4850(4)
H10_14 H 0.4434 0.4119 0.4887
C16_12 C 0.4725(10) 0.2829(8) 0.2205(6)
H11_12 H 0.4927 0.3145 0.2093
C17_14 C 0.6090(7) 0.4588(6) 0.2683(5)
H12_14 H 0.5646 0.4671 0.2610
C18_14 C 0.4613(6) 0.3771(5) 0.3490(4)
C19_14 C 0.1407(7) 0.3751(7) 0.3594(5)
C20_14 C 0.4680(6) 0.2733(5) 0.2676(4)
C21_14 C 0.5045(6) 0.4162(5) 0.3228(4)
H13_14 H 0.4983 0.4106 0.2902
H14_14 H 0.4916 0.4534 0.3300
C22_14 C 0.3894(6) 0.3863(6) 0.3306(4)
H15_14 H 0.3769 0.4244 0.3330
H16_14 H 0.3863 0.3753 0.2988
C23_13 C 0.4006(7) 0.4762(5) 0.5228(4)
H17_13 H 0.3978 0.4594 0.5512
C24_14 C 0.3808(6) 0.5287(5) 0.5181(5)
C25_14 C 0.4221(7) 0.4698(5) 0.4435(4)
C26_14 C 0.1801(9) 0.4049(7) 0.3299(6)
H18_14 H 0.1592 0.4296 0.3103
C27_14 C 0.4628(6) 0.3912(4) 0.4007(4)
H19_14 H 0.4317 0.3683 0.4176
H20_14 H 0.5076 0.3864 0.4131
C28_12 C 0.3793(8) 0.5522(5) 0.4758(5)
H21_12 H 0.3654 0.5882 0.4727
C29_14 C 0.2787(6) 0.3624(6) 0.3583(5)
C30_12 C 0.3979(7) 0.5235(6) 0.4383(5)
H22_12 H 0.3947 0.5392 0.4094
C31_14 C 0.2490(7) 0.3998(6) 0.3279(5)
H23_14 H 0.2746 0.4201 0.3075
C32_14 C 0.2396(7) 0.3323(8) 0.3876(6)
H24_14 H 0.2590 0.3064 0.4067
C33_14 C 0.1723(7) 0.3408(7) 0.3882(6)
H25_14 H 0.1467 0.3220 0.4096
H26_14 H 0.367399 0.725468 0.53152
H27_14 H 0.399426 0.555112 0.649787
H28_14 H 0.362707 0.542519 0.698163
C5_14 C 0.3335(9) 0.9487(8) 0.4567(5)
C6_14 C 0.3710(8) 0.9123(10) 0.4231(6)
C8_13 C 0.3065(7) 0.9764(6) 0.5338(4)
H7_13 H 0.3057 0.9688 0.5649
C9_14 C 0.3033(10) 0.9951(9) 0.4416(6)
C11_13 C 0.3336(8) 0.9389(7) 0.5024(6)
H9_13 H 0.3520 0.9066 0.5132
O7_14 O 0.9095(6) 0.2354(9) 0.4841(5)
H4_13 H 0.9671 0.1818 0.5524
C14_14 C 0.9673(8) 0.2377(7) 0.4733(4)
O3_15 O 0.0734(4) 0.9076(4) 0.3346(3)
O7_15 O 0.3405(6) 0.9854(9) 0.2341(5)
C2_15 C 0.1877(7) 0.9197(6) 0.3190(5)
H2_15 H 0.1967 0.8997 0.3453
C3_13 C 0.1606(7) 0.9769(6) 0.2393(5)
H3_13 H 0.1512 0.9941 0.2117
C4_15 C 0.2390(7) 0.9386(7) 0.2933(5)
H4_14 H 0.2829 0.9318 0.3024
H5_15 H 0.0236 0.8109 0.3597
C10_15 C 0.1217(6) 0.9299(5) 0.3065(4)
C12_15 C 0.2277(7) 0.9676(6) 0.2540(5)
C14_15 C 0.2827(8) 0.9877(7) 0.2233(4)
C17_15 C 0.1090(7) 0.9588(6) 0.2683(5)
H12_15 H 0.0646 0.9671 0.2610
C21_15 C 0.0045(6) 0.9162(5) 0.3228(4)
H20_15 H 0.0076 0.8864 0.4131
Zn1_4 Zn 0.80905(10) 0.06553(8) 0.65174(5)
O1_15 O 0.8252(10) 0.2317(5) 0.5489(8)
H1_11 H 0.8290 0.2593 0.5645
Zn2_4 Zn 0.80805(8) 0.16999(7) 0.58829(8)
O2_15 O 0.8464(5) 0.0362(4) 0.5954(3)
O6_15 O 0.8585(4) 0.0398(3) 0.6644(3)
O10_15 O 0.8410(6) 0.1098(4) 0.5510(4)
C13_15 C 0.8542(6) 0.0608(5) 0.5584(5)
C24_15 C 0.8808(6) 0.0287(5) 0.5181(5)
C28_13 C 0.8793(8) 0.0522(5) 0.4758(5)
H21_13 H 0.8654 0.0882 0.4727
C30_13 C 0.8979(7) 0.0235(6) 0.4383(5)
H22_13 H 0.8947 0.0392 0.4094
O15_8 O 0.8552(7) 0.1207(6) 0.6896(5)
O16_8 O 0.7105(5) 0.1685(4) 0.5834(4)
O17_8 O 0.8773(11) 0.1756(12) 0.6345(5)
O18_8 O 0.7647(6) 0.0108(5) 0.6874(4)
O19_8 O 0.7184(5) 0.1021(5) 0.6347(3)
H26_15 H 0.867399 0.225468 0.53152
H27_15 H 0.899426 0.0551116 0.649787
H28_15 H 0.862707 0.0425193 0.698163
O4_15 O 0.9424(6) 0.4481(4) 0.9025(4)
O8_8 O 0.5395(5) 0.4185(4) 0.8334(4)
O9_15 O 0.9980(5) 0.3127(4) 0.7939(3)
O11_15 O 0.8461(4) 0.3525(4) 0.8590(4)
O14_8 O 0.5316(5) 0.3521(5) 0.8847(3)
C1_15 C 0.5647(6) 0.3832(6) 0.8582(5)
C5_15 C 0.9165(9) 0.1987(8) 0.7067(5)
C6_15 C 0.8790(8) 0.1623(10) 0.6731(6)
C7_15 C 0.9838(7) 0.3185(5) 0.8418(4)
H6_15 H 0.9485 0.2934 0.8509
C8_14 C 0.9435(7) 0.2264(6) 0.7838(4)
H7_14 H 0.9443 0.2188 0.8149
C9_15 C 0.9467(10) 0.2451(9) 0.6916(6)
H8_13 H 0.9496 0.2511 0.6603
C11_14 C 0.9164(8) 0.1889(7) 0.7524(6)
H9_14 H 0.8980 0.1566 0.7632
C15_15 C 0.9253(7) 0.4466(5) 0.9850(4)
H10_15 H 0.9434 0.4119 0.9887
C16_13 C 0.9725(10) 0.2829(8) 0.7205(6)
H11_13 H 0.9927 0.3145 0.7093
C18_15 C 0.9613(6) 0.3771(5) 0.8490(4)
C19_15 C 0.6407(7) 0.3751(7) 0.8594(5)
C20_15 C 0.9680(6) 0.2733(5) 0.7676(4)
H13_15 H 0.9983 0.4106 0.7902
H14_15 H 0.9916 0.4534 0.8300
C22_15 C 0.8894(6) 0.3863(6) 0.8306(4)
H15_15 H 0.8769 0.4244 0.8330
H16_15 H 0.8863 0.3753 0.7988
C25_15 C 0.9221(7) 0.4698(5) 0.9435(4)
C26_15 C 0.6801(9) 0.4049(7) 0.8299(6)
H18_15 H 0.6592 0.4296 0.8103
C27_15 C 0.9628(6) 0.3912(4) 0.9007(4)
H19_15 H 0.9317 0.3683 0.9176
C28_14 C 0.8793(8) 0.5522(5) 0.9758(5)
H21_14 H 0.8654 0.5882 0.9727
C29_15 C 0.7787(6) 0.3624(6) 0.8583(5)
C30_14 C 0.8979(7) 0.5235(6) 0.9383(5)
H22_14 H 0.8947 0.5392 0.9094
C31_15 C 0.7490(7) 0.3998(6) 0.8279(5)
H23_15 H 0.7746 0.4201 0.8075
C32_15 C 0.7396(7) 0.3323(8) 0.8876(6)
H24_15 H 0.7590 0.3064 0.9067
C33_15 C 0.6723(7) 0.3408(7) 0.8882(6)
H25_15 H 0.6467 0.3220 0.9096
Zn5_6 Zn 0.44095(10) 0.31553(8) 0.90174(5)
Zn7_8 Zn 0.44195(8) 0.41999(7) 0.83829(8)
O7_16 O 0.4095(6) 0.2354(9) 0.9841(5)
O13_8 O 0.4853(6) 0.2608(5) 0.9374(4)
C3_14 C 0.5894(7) 0.2269(6) 0.9893(5)
H3_14 H 0.5988 0.2441 0.9617
H8_14 H 0.8004 0.0011 0.9103
C14_16 C 0.4673(8) 0.2377(7) 0.9733(4)
C16_14 C 0.7775(10) 0.0329(8) 0.9705(6)
H11_14 H 0.7573 0.0645 0.9593
C28_15 C 0.3793(8) 0.0522(5) 0.9758(5)
H21_15 H 0.3654 0.0882 0.9727
C30_15 C 0.3979(7) 0.0235(6) 0.9383(5)
H22_15 H 0.3947 0.0392 0.9094
O5_8 O 0.3948(7) 0.3707(6) 0.9396(5)
O12_8 O 0.3727(11) 0.4256(12) 0.8845(5)
C3_15 C 0.0894(7) 0.7269(6) 0.9893(5)
H3_15 H 0.0988 0.7441 0.9617
C5_16 C 0.3335(9) 0.4487(8) 0.9567(5)
C6_16 C 0.3710(8) 0.4123(10) 0.9231(6)
C9_16 C 0.3033(10) 0.4951(9) 0.9416(6)
H8_15 H 0.3004 0.5011 0.9103
C16_15 C 0.2775(10) 0.5329(8) 0.9705(6)
H11_15 H 0.2573 0.5645 0.9593
O1_16 O 0.4248(10) 0.4817(5) 0.7989(8)
H1_12 H 0.4210 0.5093 0.8145
O2_16 O 0.4036(5) 0.2862(4) 0.8454(3)
O3_16 O 0.1766(4) 0.1576(4) 0.5846(3)
O4_16 O 0.3076(6) 0.1981(4) 0.6525(4)
O6_16 O 0.3915(4) 0.2898(3) 0.9144(3)
O9_16 O 0.2520(5) 0.0627(4) 0.5439(3)
O10_16 O 0.4090(6) 0.3598(4) 0.8010(4)
O11_16 O 0.4039(4) 0.1025(4) 0.6090(4)
C1_16 C 0.6853(6) 0.1332(6) 0.6082(5)
C2_16 C 0.0623(7) 0.1697(6) 0.5690(5)
H2_16 H 0.0533 0.1497 0.5953
C3_16 C 0.0894(7) 0.2269(6) 0.4893(5)
H3_16 H 0.0988 0.2441 0.4617
C4_16 C 0.0110(7) 0.1886(7) 0.5433(5)
C7_16 C 0.2662(7) 0.0685(5) 0.5918(4)
H5_16 H 0.2264 0.0609 0.6097
H6_16 H 0.3015 0.0434 0.6009
H8_16 H 0.3004 0.0011 0.4103
C10_16 C 0.1283(6) 0.1799(5) 0.5565(4)
C12_16 C 0.0223(7) 0.2176(6) 0.5040(5)
C13_16 C 0.3958(6) 0.3108(5) 0.8084(5)
C15_16 C 0.3247(7) 0.1966(5) 0.7350(4)
H10_16 H 0.3066 0.1619 0.7387
C16_16 C 0.2775(10) 0.0329(8) 0.4705(6)
H11_16 H 0.2573 0.0645 0.4593
C17_16 C 0.1410(7) 0.2088(6) 0.5183(5)
H12_16 H 0.1854 0.2171 0.5110
C18_16 C 0.2887(6) 0.1271(5) 0.5990(4)
C19_16 C 0.6093(7) 0.1251(7) 0.6094(5)
C20_16 C 0.2820(6) 0.0233(5) 0.5176(4)
C21_16 C 0.2455(6) 0.1662(5) 0.5728(4)
H13_16 H 0.2517 0.1606 0.5402
H14_16 H 0.2584 0.2034 0.5800
C22_16 C 0.3606(6) 0.1363(6) 0.5806(4)
H15_16 H 0.3731 0.1744 0.5830
H16_16 H 0.3637 0.1253 0.5488
C23_14 C 0.3494(7) 0.2262(5) 0.7728(4)
H17_14 H 0.3522 0.2094 0.8012
C24_16 C 0.3692(6) 0.2787(5) 0.7681(5)
C25_16 C 0.3279(7) 0.2198(5) 0.6935(4)
C26_16 C 0.5699(9) 0.1549(7) 0.5799(6)
H18_16 H 0.5908 0.1796 0.5603
C27_16 C 0.2872(6) 0.1412(4) 0.6507(4)
H19_16 H 0.3183 0.1183 0.6676
H20_16 H 0.2424 0.1364 0.6631
C28_16 C 0.3707(8) 0.3022(5) 0.7258(5)
H21_16 H 0.3846 0.3382 0.7227
C29_16 C 0.4713(6) 0.1124(6) 0.6083(5)
C30_16 C 0.3521(7) 0.2735(6) 0.6883(5)
H22_16 H 0.3553 0.2892 0.6594
C31_16 C 0.5010(7) 0.1498(6) 0.5779(5)
H23_16 H 0.4754 0.1701 0.5575
C32_16 C 0.5104(7) 0.0823(8) 0.6376(6)
H24_16 H 0.4910 0.0564 0.6567
C33_16 C 0.5777(7) 0.0908(7) 0.6382(6)
H25_16 H 0.6033 0.0720 0.6596
H26_16 H 0.382601 0.475468 0.78152
H27_16 H 0.350574 0.305112 0.899787
H28_16 H 0.387293 0.292519 0.948163
H1_13 H 0.0790 0.9907 0.8145
H1_14 H 0.9210 0.0093 0.8145
C8_15 C 0.1935(7) 0.0236(6) 0.0338(4)
H7_15 H 0.1943 0.0312 0.0649
C11_15 C 0.1664(8) 0.0611(7) 0.0024(6)
H9_15 H 0.1480 0.0934 0.0132
C8_16 C 0.8065(7) 0.9764(6) 0.0338(4)
H7_16 H 0.8057 0.9688 0.0649
C11_16 C 0.8336(8) 0.9389(7) 0.0024(6)
H9_16 H 0.8520 0.9066 0.0132
C23_15 C 0.5994(7) 0.0238(5) 0.0228(4)
H17_15 H 0.6022 0.0406 0.0512
C23_16 C 0.4006(7) 0.9762(5) 0.0228(4)
H17_16 H 0.3978 0.9594 0.0512
H4_15 H 0.0329 0.3182 0.0524
H1_15 H 0.5790 0.9907 0.3145
H1_16 H 0.4210 0.0093 0.3145
H4_16 H 0.9671 0.6818 0.0524
loop_
_geom_bond_atom_site_label_1
_geom_bond_atom_site_label_2
_geom_bond_site_symmetry_1
_geom_bond_site_symmetry_2
O4 C25 1_555 1_555
O5 C6 1_555 1_555
O8 C1 1_555 1_555
O9 C7 1_555 1_555
O11 C22 1_555 1_555
O12 C6 1_555 1_555
O14 C1 1_555 1_555
C1 C19 1_555 1_555
C5 C6 1_555 1_555
H6 C7 1_555 1_555
C8 H7 1_555 1_555
C9 C5 1_555 1_555
H8 C9 1_555 1_555
C11 C5 1_555 1_555
H9 C11 1_555 1_555
C15 H10 1_555 1_555
C16 C9 1_555 1_555
H11 C16 1_555 1_555
C18 C7 1_555 1_555
C19 C26 1_555 1_555
C20 O9 1_555 1_555
C22 C18 1_555 1_555
H15 C22 1_555 1_555
H16 C22 1_555 1_555
C23 C15 1_555 1_555
H17 C23 1_555 1_555
C25 C15 1_555 1_555
C26 H18 1_555 1_555
C27 O4 1_555 1_555
H19 C27 1_555 1_555
C29 O11 1_555 1_555
C31 C26 1_555 1_555
H23 C31 1_555 1_555
C32 C29 1_555 1_555
H24 C32 1_555 1_555
C33 C19 1_555 1_555
H25 C33 1_555 1_555
Zn3 O5 1_555 1_555
Zn5 O14 1_555 1_555
Zn6 O12 1_555 1_555
Zn7 O8 1_555 1_555
C8 C11 1_555 1_555
C8 C20 1_555 1_555
C16 C20 1_555 1_555
C18 C27 1_555 1_555
C29 C31 1_555 1_555
C32 C33 1_555 1_555
Zn4 O13 1_555 1_555
Zn1 O2 1_555 1_555
Zn2 O1 1_555 1_555
O2 C13 1_555 1_555
O3 C10 1_555 1_555
O4_2 C25_2 1_555 1_555
O5_2 C6_2 1_555 1_555
O6 Zn1 1_555 1_555
O7 C14 1_555 1_555
O9_2 C7_2 1_555 1_555
O10 Zn2 1_555 1_555
O11_2 C22_2 1_555 1_555
O12_2 C6_2 1_555 1_555
O13_2 C14 1_555 1_555
C2 H2 1_555 1_555
C3 H3 1_555 1_555
C4 C2 1_555 1_555
H4 C4 1_555 1_555
C5_2 C6_2 1_555 1_555
C7_2 H5 1_555 1_555
H6_2 C7_2 1_555 1_555
C8_2 H7_2 1_555 1_555
C9_2 C5_2 1_555 1_555
H8_2 C9_2 1_555 1_555
C10 C2 1_555 1_555
C11_2 C5_2 1_555 1_555
H9_2 C11_2 1_555 1_555
C12 C3 1_555 1_555
C13 O10 1_555 1_555
C14 C12 1_555 1_555
C15_2 H10_2 1_555 1_555
C16_2 C9_2 1_555 1_555
H11_2 C16_2 1_555 1_555
C17 C3 1_555 1_555
H12 C17 1_555 1_555
C18_2 C7_2 1_555 1_555
C20_2 O9_2 1_555 1_555
C21 O3 1_555 1_555
H13_2 C21 1_555 1_555
H14_2 C21 1_555 1_555
C22_2 C18_2 1_555 1_555
H15_2 C22_2 1_555 1_555
H16_2 C22_2 1_555 1_555
C23_2 C15_2 1_555 1_555
H17_2 C23_2 1_555 1_555
C24 C13 1_555 1_555
C25_2 C15_2 1_555 1_555
C27_2 O4_2 1_555 1_555
H19_2 C27_2 1_555 1_555
H20 C27_2 1_555 1_555
C28 C24 1_555 1_555
H21 C28 1_555 1_555
C29_2 O11_2 1_555 1_555
C30 C25_2 1_555 1_555
H22 C30 1_555 1_555
Zn3_2 O5_2 1_555 1_555
Zn5 O13_2 1_555 1_555
Zn6_2 O12_2 1_555 1_555
O15 Zn1 1_555 1_555
O17 Zn2 1_555 1_555
O18 Zn1 1_555 1_555
C4 C12 1_555 1_555
C8_2 C11_2 1_555 1_555
C8_2 C20_2 1_555 1_555
C10 C17 1_555 1_555
C16_2 C20_2 1_555 1_555
C18_2 C21 1_555 1_555
C18_2 C27_2 1_555 1_555
C23_2 C24 1_555 1_555
C28 C30 1_555 1_555
O1 H26 1_555 1_555
O6 H27 1_555 1_555
O6 H28 1_555 1_555
O8_2 C1_2 1_555 1_555
O14_2 C1_2 1_555 1_555
C1_2 C19_2 1_555 1_555
C19_2 C26_2 1_555 1_555
C26_2 H18_2 1_555 1_555
C31_2 C26_2 1_555 1_555
C33_2 C19_2 1_555 1_555
H25_2 C33_2 1_555 1_555
Zn5_2 O14_2 1_555 1_555
Zn7_2 O8_2 1_555 1_555
C32_2 C33_2 1_555 1_555
Zn3 O2_2 1_555 1_555
O1_2 H1 1_555 1_555
Zn6 O1_2 1_555 1_555
O2_2 C13_2 1_555 1_555
O6_2 Zn3 1_555 1_555
O10_2 Zn6 1_555 1_555
C13_2 O10_2 1_555 1_555
H17_3 C23_3 1_555 1_555
C24_2 C13_2 1_555 1_555
O16_2 Zn6 1_555 1_555
O18_2 Zn3 1_555 1_555
O19_2 Zn3 1_555 1_555
C23_3 C24_2 1_555 1_555
O1_2 H26_2 1_555 1_555
O6_2 H27_2 1_555 1_555
O6_2 H28_2 1_555 1_555
O3_2 C10_2 1_555 1_555
O7_2 C14_2 1_555 1_555
O13_3 C14_2 1_555 1_555
C2_2 H2_2 1_555 1_555
C3_2 H3_2 1_555 1_555
C4_2 C2_2 1_555 1_555
H4_2 C4_2 1_555 1_555
C10_2 C2_2 1_555 1_555
C12_2 C3_2 1_555 1_555
C14_2 C12_2 1_555 1_555
C17_2 C3_2 1_555 1_555
H12_2 C17_2 1_555 1_555
C21_2 O3_2 1_555 1_555
Zn5_2 O13_3 1_555 1_555
C4_2 C12_2 1_555 1_555
C10_2 C17_2 1_555 1_555
O15 C6_3 1_555 1_555
O17 C6_3 1_555 1_555
C5_3 C6_3 1_555 1_555
C9_3 C5_3 1_555 1_555
Zn3_2 O2_3 1_555 1_555
O1_3 H1_2 1_555 1_555
Zn6_2 O1_3 1_555 1_555
O2_3 C13_3 1_555 1_555
O3_3 C10_3 1_555 1_555
O4_3 C25_3 1_555 1_555
O6_3 Zn3_2 1_555 1_555
O9_3 C7_3 1_555 1_555
O10_3 Zn6_2 1_555 1_555
O11_3 C22_3 1_555 1_555
C2_3 H2_3 1_555 1_555
C4_3 C2_3 1_555 1_555
H4_3 C4_3 1_555 1_555
C7_3 H5_3 1_555 1_555
H6_3 C7_3 1_555 1_555
C10_3 C2_3 1_555 1_555
C13_3 O10_3 1_555 1_555
C15_3 H10_3 1_555 1_555
H12_3 C17_3 1_555 1_555
C18_3 C7_3 1_555 1_555
C20_3 O9_3 1_555 1_555
C21_3 O3_3 1_555 1_555
H13_3 C21_3 1_555 1_555
H14_3 C21_3 1_555 1_555
C22_3 C18_3 1_555 1_555
H15_3 C22_3 1_555 1_555
H16_3 C22_3 1_555 1_555
C23_4 C15_3 1_555 1_555
H17_4 C23_4 1_555 1_555
C24_3 C13_3 1_555 1_555
C25_3 C15_3 1_555 1_555
C27_3 O4_3 1_555 1_555
H19_3 C27_3 1_555 1_555
H20_3 C27_3 1_555 1_555
C28_2 C24_3 1_555 1_555
H21_2 C28_2 1_555 1_555
C29_3 O11_3 1_555 1_555
C30_2 C25_3 1_555 1_555
H22_2 C30_2 1_555 1_555
O18_3 Zn3_2 1_555 1_555
C4_3 C12_3 1_555 1_555
C10_3 C17_3 1_555 1_555
C18_3 C21_3 1_555 1_555
C18_3 C27_3 1_555 1_555
C23_4 C24_3 1_555 1_555
C28_2 C30_2 1_555 1_555
O1_3 H26_3 1_555 1_555
O6_3 H27_3 1_555 1_555
O6_3 H28_3 1_555 1_555
O8_3 C1_3 1_555 1_555
O14_3 C1_3 1_555 1_555
C1_3 C19_3 1_555 1_555
C19_3 C26_3 1_555 1_555
C26_3 H18_3 1_555 1_555
C31_3 C26_3 1_555 1_555
C33_3 C19_3 1_555 1_555
H25_3 C33_3 1_555 1_555
Zn4 O14_3 1_555 1_555
Zn7_3 O8_3 1_555 1_555
C32_3 C33_3 1_555 1_555
O3_4 C10_4 1_555 1_555
O4_4 C25_4 1_555 1_555
O5_3 C6_4 1_555 1_555
O7_3 C14_3 1_555 1_555
O16 C1_4 1_555 1_555
O9_4 C7_4 1_555 1_555
O11_4 C22_4 1_555 1_555
O12_3 C6_4 1_555 1_555
O19 C1_4 1_555 1_555
C1_4 C19_4 1_555 1_555
C2_4 H2_4 1_555 1_555
C3_3 H3_3 1_555 1_555
C4_4 C2_4 1_555 1_555
H4_4 C4_4 1_555 1_555
C5_4 C6_4 1_555 1_555
C7_4 H5_4 1_555 1_555
H6_4 C7_4 1_555 1_555
C8_3 H7_3 1_555 1_555
C9_4 C5_4 1_555 1_555
H8_3 C9_4 1_555 1_555
C10_4 C2_4 1_555 1_555
C11_3 C5_4 1_555 1_555
H9_3 C11_3 1_555 1_555
C12_4 C3_3 1_555 1_555
C14_3 C12_4 1_555 1_555
C15_4 H10_4 1_555 1_555
C16_3 C9_4 1_555 1_555
H11_3 C16_3 1_555 1_555
C17_4 C3_3 1_555 1_555
H12_4 C17_4 1_555 1_555
C18_4 C7_4 1_555 1_555
C19_4 C26_4 1_555 1_555
C20_4 O9_4 1_555 1_555
C21_4 O3_4 1_555 1_555
H13_4 C21_4 1_555 1_555
H14_4 C21_4 1_555 1_555
C22_4 C18_4 1_555 1_555
H15_4 C22_4 1_555 1_555
H16_4 C22_4 1_555 1_555
C25_4 C15_4 1_555 1_555
C26_4 H18_4 1_555 1_555
C27_4 O4_4 1_555 1_555
H19_4 C27_4 1_555 1_555
H20_4 C27_4 1_555 1_555
C29_4 O11_4 1_555 1_555
C31_4 C26_4 1_555 1_555
H23_4 C31_4 1_555 1_555
C32_4 C29_4 1_555 1_555
H24_4 C32_4 1_555 1_555
C33_4 C19_4 1_555 1_555
H25_4 C33_4 1_555 1_555
Zn5_2 O5_3 1_555 1_555
Zn7_2 O12_3 1_555 1_555
C4_4 C12_4 1_555 1_555
C8_3 C11_3 1_555 1_555
C8_3 C20_4 1_555 1_555
C10_4 C17_4 1_555 1_555
C16_3 C20_4 1_555 1_555
C18_4 C21_4 1_555 1_555
C18_4 C27_4 1_555 1_555
C29_4 C31_4 1_555 1_555
C32_4 C33_4 1_555 1_555
Zn4 O2_4 1_555 1_555
O1_4 H1_3 1_555 1_555
Zn7_3 O1_4 1_555 1_555
O2_4 C13_4 1_555 1_555
O6_4 Zn4 1_555 1_555
O10_4 Zn7_3 1_555 1_555
C13_4 O10_4 1_555 1_555
C24_4 C13_4 1_555 1_555
O15_2 Zn4 1_555 1_555
O17_2 Zn7_3 1_555 1_555
O1_4 H26_4 1_555 1_555
O6_4 H27_4 1_555 1_555
O6_4 H28_4 1_555 1_555
O7_4 C14_4 1_555 1_555
O18 C14_4 1_555 1_555
Zn5 O2_5 1_555 1_555
Zn7 O1_5 1_555 1_555
O2_5 C13_5 1_555 1_555
O3_5 C10_5 1_555 1_555
O4_5 C25_5 1_555 1_555
O6_5 Zn5 1_555 1_555
O16_2 C1_5 1_555 1_555
O9_5 C7_5 1_555 1_555
O10_5 Zn7 1_555 1_555
O11_5 C22_5 1_555 1_555
O19_2 C1_5 1_555 1_555
C1_5 C19_5 1_555 1_555
C2_5 H2_5 1_555 1_555
C4_5 C2_5 1_555 1_555
C7_5 H5_5 1_555 1_555
H6_5 C7_5 1_555 1_555
C8_4 H7_4 1_555 1_555
C10_5 C2_5 1_555 1_555
H9_4 C11_4 1_555 1_555
C13_5 O10_5 1_555 1_555
C15_5 H10_5 1_555 1_555
H12_5 C17_5 1_555 1_555
C18_5 C7_5 1_555 1_555
C19_5 C26_5 1_555 1_555
C20_5 O9_5 1_555 1_555
C21_5 O3_5 1_555 1_555
H13_5 C21_5 1_555 1_555
H14_5 C21_5 1_555 1_555
C22_5 C18_5 1_555 1_555
H15_5 C22_5 1_555 1_555
H16_5 C22_5 1_555 1_555
C23_5 C15_5 1_555 1_555
H17_5 C23_5 1_555 1_555
C24_5 C13_5 1_555 1_555
C25_5 C15_5 1_555 1_555
C26_5 H18_5 1_555 1_555
C27_5 O4_5 1_555 1_555
H19_5 C27_5 1_555 1_555
H20_5 C27_5 1_555 1_555
C28_3 C24_5 1_555 1_555
H21_3 C28_3 1_555 1_555
C29_5 O11_5 1_555 1_555
C30_3 C25_5 1_555 1_555
H22_3 C30_3 1_555 1_555
C31_5 C26_5 1_555 1_555
H23_5 C31_5 1_555 1_555
C32_5 C29_5 1_555 1_555
H24_5 C32_5 1_555 1_555
C33_5 C19_5 1_555 1_555
H25_5 C33_5 1_555 1_555
O15_3 Zn5 1_555 1_555
O17_3 Zn7 1_555 1_555
C4_5 C12_5 1_555 1_555
C8_4 C11_4 1_555 1_555
C8_4 C20_5 1_555 1_555
C10_5 C17_5 1_555 1_555
C18_5 C21_5 1_555 1_555
C18_5 C27_5 1_555 1_555
C23_5 C24_5 1_555 1_555
C28_3 C30_3 1_555 1_555
C29_5 C31_5 1_555 1_555
C32_5 C33_5 1_555 1_555
O1_5 H26_5 1_555 1_555
O6_5 H27_5 1_555 1_555
O6_5 H28_5 1_555 1_555
Zn5_2 O2_6 1_555 1_555
O1_6 H1_4 1_555 1_555
Zn7_2 O1_6 1_555 1_555
O2_6 C13_6 1_555 1_555
O3_6 C10_6 1_555 1_555
O4_6 C25_6 1_555 1_555
O15_2 C6_5 1_555 1_555
O6_6 Zn5_2 1_555 1_555
O7_5 C14_5 1_555 1_555
O16_3 C1_6 1_555 1_555
O9_6 C7_6 1_555 1_555
O10_6 Zn7_2 1_555 1_555
O11_6 C22_6 1_555 1_555
O17_2 C6_5 1_555 1_555
O18_2 C14_5 1_555 1_555
O19_3 C1_6 1_555 1_555
C1_6 C19_6 1_555 1_555
C2_6 H2_6 1_555 1_555
C3_4 H3_4 1_555 1_555
C4_6 C2_6 1_555 1_555
H4_5 C4_6 1_555 1_555
C5_5 C6_5 1_555 1_555
C7_6 H5_6 1_555 1_555
H6_6 C7_6 1_555 1_555
C8_5 H7_5 1_555 1_555
C9_5 C5_5 1_555 1_555
H8_4 C9_5 1_555 1_555
C10_6 C2_6 1_555 1_555
C11_5 C5_5 1_555 1_555
H9_5 C11_5 1_555 1_555
C12_6 C3_4 1_555 1_555
C13_6 O10_6 1_555 1_555
C14_5 C12_6 1_555 1_555
C15_6 H10_6 1_555 1_555
C16_4 C9_5 1_555 1_555
H11_4 C16_4 1_555 1_555
C17_6 C3_4 1_555 1_555
H12_6 C17_6 1_555 1_555
C18_6 C7_6 1_555 1_555
C19_6 C26_6 1_555 1_555
C20_6 O9_6 1_555 1_555
C21_6 O3_6 1_555 1_555
H13_6 C21_6 1_555 1_555
H14_6 C21_6 1_555 1_555
C22_6 C18_6 1_555 1_555
H15_6 C22_6 1_555 1_555
H16_6 C22_6 1_555 1_555
C23_6 C15_6 1_555 1_555
H17_6 C23_6 1_555 1_555
C24_6 C13_6 1_555 1_555
C25_6 C15_6 1_555 1_555
C26_6 H18_6 1_555 1_555
C27_6 O4_6 1_555 1_555
H19_6 C27_6 1_555 1_555
H20_6 C27_6 1_555 1_555
C28_4 C24_6 1_555 1_555
H21_4 C28_4 1_555 1_555
C29_6 O11_6 1_555 1_555
C30_4 C25_6 1_555 1_555
H22_4 C30_4 1_555 1_555
C31_6 C26_6 1_555 1_555
H23_6 C31_6 1_555 1_555
C32_6 C29_6 1_555 1_555
H24_6 C32_6 1_555 1_555
C33_6 C19_6 1_555 1_555
H25_6 C33_6 1_555 1_555
C4_6 C12_6 1_555 1_555
C8_5 C11_5 1_555 1_555
C8_5 C20_6 1_555 1_555
C10_6 C17_6 1_555 1_555
C16_4 C20_6 1_555 1_555
C18_6 C21_6 1_555 1_555
C18_6 C27_6 1_555 1_555
C23_6 C24_6 1_555 1_555
C28_4 C30_4 1_555 1_555
C29_6 C31_6 1_555 1_555
C32_6 C33_6 1_555 1_555
O1_6 H26_6 1_555 1_555
O6_6 H27_6 1_555 1_555
O6_6 H28_6 1_555 1_555
O7_6 C14_6 1_555 1_555
O18_3 C14_6 1_555 1_555
O15_3 C6_6 1_555 1_555
O17_3 C6_6 1_555 1_555
C5_6 C6_6 1_555 1_555
C8_6 H7_6 1_555 1_555
C9_6 C5_6 1_555 1_555
C11_6 C5_6 1_555 1_555
H9_6 C11_6 1_555 1_555
C8_6 C11_6 1_555 1_555
Zn1_2 O2_7 1_555 1_555
O1_7 H1_5 1_555 1_555
Zn2_2 O1_7 1_555 1_555
O2_7 C13_7 1_555 1_555
O6_7 Zn1_2 1_555 1_555
O10_7 Zn2_2 1_555 1_555
C13_7 O10_7 1_555 1_555
C24_7 C13_7 1_555 1_555
C28_5 C24_7 1_555 1_555
H21_5 C28_5 1_555 1_555
H22_5 C30_5 1_555 1_555
O15_4 Zn1_2 1_555 1_555
O16_4 Zn2_2 1_555 1_555
O17_4 Zn2_2 1_555 1_555
O18_4 Zn1_2 1_555 1_555
O19_4 Zn1_2 1_555 1_555
C28_5 C30_5 1_555 1_555
O1_7 H26_7 1_555 1_555
O6_7 H27_7 1_555 1_555
O6_7 H28_7 1_555 1_555
O4_7 C25_7 1_555 1_555
O15_4 C6_7 1_555 1_555
O8_4 C1_7 1_555 1_555
O9_7 C7_7 1_555 1_555
O11_7 C22_7 1_555 1_555
O17_4 C6_7 1_555 1_555
O14_4 C1_7 1_555 1_555
C1_7 C19_7 1_555 1_555
C5_7 C6_7 1_555 1_555
H6_7 C7_7 1_555 1_555
C8_7 H7_7 1_555 1_555
C9_7 C5_7 1_555 1_555
H8_5 C9_7 1_555 1_555
C11_7 C5_7 1_555 1_555
H9_7 C11_7 1_555 1_555
C15_7 H10_7 1_555 1_555
C16_5 C9_7 1_555 1_555
H11_5 C16_5 1_555 1_555
C18_7 C7_7 1_555 1_555
C19_7 C26_7 1_555 1_555
C20_7 O9_7 1_555 1_555
C22_7 C18_7 1_555 1_555
H15_7 C22_7 1_555 1_555
H16_7 C22_7 1_555 1_555
C25_7 C15_7 1_555 1_555
C26_7 H18_7 1_555 1_555
C27_7 O4_7 1_555 1_555
H19_7 C27_7 1_555 1_555
H21_6 C28_6 1_555 1_555
C29_7 O11_7 1_555 1_555
C30_6 C25_7 1_555 1_555
H22_6 C30_6 1_555 1_555
C31_7 C26_7 1_555 1_555
H23_7 C31_7 1_555 1_555
C32_7 C29_7 1_555 1_555
H24_7 C32_7 1_555 1_555
C33_7 C19_7 1_555 1_555
H25_7 C33_7 1_555 1_555
Zn5_3 O14_4 1_555 1_555
Zn7_4 O8_4 1_555 1_555
C8_7 C11_7 1_555 1_555
C8_7 C20_7 1_555 1_555
C16_5 C20_7 1_555 1_555
C18_7 C27_7 1_555 1_555
C28_6 C30_6 1_555 1_555
C29_7 C31_7 1_555 1_555
C32_7 C33_7 1_555 1_555
O7_7 C14_7 1_555 1_555
O13_4 C14_7 1_555 1_555
C3_5 H3_5 1_555 1_555
H11_6 C16_6 1_555 1_555
Zn5_3 O13_4 1_555 1_555
H21_7 C28_7 1_555 1_555
H22_7 C30_7 1_555 1_555
C28_7 C30_7 1_555 1_555
O5_4 C6_8 1_555 1_555
O12_4 C6_8 1_555 1_555
C3_6 H3_6 1_555 1_555
C5_8 C6_8 1_555 1_555
C9_8 C5_8 1_555 1_555
H8_7 C9_8 1_555 1_555
C16_7 C9_8 1_555 1_555
H11_7 C16_7 1_555 1_555
Zn5_3 O5_4 1_555 1_555
Zn7_4 O12_4 1_555 1_555
Zn5_3 O2_8 1_555 1_555
O1_8 H1_6 1_555 1_555
Zn7_4 O1_8 1_555 1_555
O2_8 C13_8 1_555 1_555
O3_7 C10_7 1_555 1_555
O4_8 C25_8 1_555 1_555
O6_8 Zn5_3 1_555 1_555
O16_4 C1_8 1_555 1_555
O9_8 C7_8 1_555 1_555
O10_8 Zn7_4 1_555 1_555
O11_8 C22_8 1_555 1_555
O19_4 C1_8 1_555 1_555
C1_8 C19_8 1_555 1_555
C2_7 H2_7 1_555 1_555
C3_7 H3_7 1_555 1_555
C4_7 C2_7 1_555 1_555
C7_8 H5_7 1_555 1_555
H6_8 C7_8 1_555 1_555
C10_7 C2_7 1_555 1_555
C12_7 C3_7 1_555 1_555
C13_8 O10_8 1_555 1_555
C15_8 H10_8 1_555 1_555
H11_8 C16_8 1_555 1_555
C17_7 C3_7 1_555 1_555
H12_7 C17_7 1_555 1_555
C18_8 C7_8 1_555 1_555
C19_8 C26_8 1_555 1_555
C20_8 O9_8 1_555 1_555
C21_7 O3_7 1_555 1_555
H13_8 C21_7 1_555 1_555
H14_8 C21_7 1_555 1_555
C22_8 C18_8 1_555 1_555
H15_8 C22_8 1_555 1_555
H16_8 C22_8 1_555 1_555
C23_7 C15_8 1_555 1_555
H17_7 C23_7 1_555 1_555
C24_8 C13_8 1_555 1_555
C25_8 C15_8 1_555 1_555
C26_8 H18_8 1_555 1_555
C27_8 O4_8 1_555 1_555
H19_8 C27_8 1_555 1_555
H20_7 C27_8 1_555 1_555
C28_8 C24_8 1_555 1_555
H21_8 C28_8 1_555 1_555
C29_8 O11_8 1_555 1_555
C30_8 C25_8 1_555 1_555
H22_8 C30_8 1_555 1_555
C31_8 C26_8 1_555 1_555
H23_8 C31_8 1_555 1_555
C32_8 C29_8 1_555 1_555
H24_8 C32_8 1_555 1_555
C33_8 C19_8 1_555 1_555
H25_8 C33_8 1_555 1_555
C4_7 C12_7 1_555 1_555
C10_7 C17_7 1_555 1_555
C16_8 C20_8 1_555 1_555
C18_8 C21_7 1_555 1_555
C18_8 C27_8 1_555 1_555
C23_7 C24_8 1_555 1_555
C28_8 C30_8 1_555 1_555
C29_8 C31_8 1_555 1_555
C32_8 C33_8 1_555 1_555
O1_8 H26_8 1_555 1_555
O6_8 H27_8 1_555 1_555
O6_8 H28_8 1_555 1_555
O3_8 C10_8 1_555 1_555
O7_8 C14_8 1_555 1_555
C2_8 H2_8 1_555 1_555
C3_8 H3_8 1_555 1_555
C4_8 C2_8 1_555 1_555
H4_7 C4_8 1_555 1_555
C10_8 C2_8 1_555 1_555
C12_8 C3_8 1_555 1_555
C14_8 C12_8 1_555 1_555
C17_8 C3_8 1_555 1_555
H12_8 C17_8 1_555 1_555
C21_8 O3_8 1_555 1_555
C4_8 C12_8 1_555 1_555
C10_8 C17_8 1_555 1_555
Zn4_2 O13_5 1_555 1_555
O4_9 C25_9 1_555 1_555
O5_5 C6_9 1_555 1_555
O8_5 C1_9 1_555 1_555
O9_9 C7_9 1_555 1_555
O11_9 C22_9 1_555 1_555
O12_5 C6_9 1_555 1_555
O14_5 C1_9 1_555 1_555
C1_9 C19_9 1_555 1_555
C5_9 C6_9 1_555 1_555
H6_9 C7_9 1_555 1_555
C8_8 H7_8 1_555 1_555
C9_9 C5_9 1_555 1_555
H8_9 C9_9 1_555 1_555
C11_8 C5_9 1_555 1_555
H9_8 C11_8 1_555 1_555
C15_9 H10_9 1_555 1_555
C16_9 C9_9 1_555 1_555
H11_9 C16_9 1_555 1_555
C18_9 C7_9 1_555 1_555
C19_9 C26_9 1_555 1_555
C20_9 O9_9 1_555 1_555
C22_9 C18_9 1_555 1_555
H15_9 C22_9 1_555 1_555
H16_9 C22_9 1_555 1_555
C23_8 C15_9 1_555 1_555
H17_8 C23_8 1_555 1_555
C25_9 C15_9 1_555 1_555
C26_9 H18_9 1_555 1_555
C27_9 O4_9 1_555 1_555
H19_9 C27_9 1_555 1_555
C29_9 O11_9 1_555 1_555
C31_9 C26_9 1_555 1_555
H23_9 C31_9 1_555 1_555
C32_9 C29_9 1_555 1_555
H24_9 C32_9 1_555 1_555
C33_9 C19_9 1_555 1_555
H25_9 C33_9 1_555 1_555
Zn3_3 O5_5 1_555 1_555
Zn5_4 O14_5 1_555 1_555
Zn6_3 O12_5 1_555 1_555
Zn7_5 O8_5 1_555 1_555
C8_8 C11_8 1_555 1_555
C8_8 C20_9 1_555 1_555
C16_9 C20_9 1_555 1_555
C18_9 C27_9 1_555 1_555
C29_9 C31_9 1_555 1_555
C32_9 C33_9 1_555 1_555
O8_6 C1_10 1_555 1_555
O14_6 C1_10 1_555 1_555
C1_10 C19_10 1_555 1_555
C19_10 C26_10 1_555 1_555
C26_10 H18_10 1_555 1_555
C31_10 C26_10 1_555 1_555
C33_10 C19_10 1_555 1_555
H25_10 C33_10 1_555 1_555
Zn5_5 O14_6 1_555 1_555
Zn7_6 O8_6 1_555 1_555
C32_10 C33_10 1_555 1_555
Zn1_3 O2_9 1_555 1_555
Zn2_3 O1_9 1_555 1_555
O2_9 C13_9 1_555 1_555
O3_9 C10_9 1_555 1_555
O4_10 C25_10 1_555 1_555
O5_6 C6_10 1_555 1_555
O6_9 Zn1_3 1_555 1_555
O7_9 C14_9 1_555 1_555
O9_10 C7_10 1_555 1_555
O10_9 Zn2_3 1_555 1_555
O11_10 C22_10 1_555 1_555
O12_6 C6_10 1_555 1_555
O13_6 C14_9 1_555 1_555
C2_9 H2_9 1_555 1_555
C3_9 H3_9 1_555 1_555
C4_9 C2_9 1_555 1_555
H4_8 C4_9 1_555 1_555
C5_10 C6_10 1_555 1_555
C7_10 H5_9 1_555 1_555
H6_10 C7_10 1_555 1_555
C8_9 H7_9 1_555 1_555
C9_10 C5_10 1_555 1_555
H8_10 C9_10 1_555 1_555
C10_9 C2_9 1_555 1_555
C11_9 C5_10 1_555 1_555
H9_9 C11_9 1_555 1_555
C12_9 C3_9 1_555 1_555
C13_9 O10_9 1_555 1_555
C14_9 C12_9 1_555 1_555
C15_10 H10_10 1_555 1_555
C16_10 C9_10 1_555 1_555
H11_10 C16_10 1_555 1_555
C17_9 C3_9 1_555 1_555
H12_9 C17_9 1_555 1_555
C18_10 C7_10 1_555 1_555
C20_10 O9_10 1_555 1_555
C21_9 O3_9 1_555 1_555
H13_10 C21_9 1_555 1_555
H14_10 C21_9 1_555 1_555
C22_10 C18_10 1_555 1_555
H15_10 C22_10 1_555 1_555
H16_10 C22_10 1_555 1_555
C23_9 C15_10 1_555 1_555
H17_9 C23_9 1_555 1_555
C24_9 C13_9 1_555 1_555
C25_10 C15_10 1_555 1_555
C27_10 O4_10 1_555 1_555
H19_10 C27_10 1_555 1_555
H20_9 C27_10 1_555 1_555
C28_9 C24_9 1_555 1_555
H21_9 C28_9 1_555 1_555
C29_10 O11_10 1_555 1_555
C30_9 C25_10 1_555 1_555
H22_9 C30_9 1_555 1_555
Zn3_4 O5_6 1_555 1_555
Zn5_4 O13_6 1_555 1_555
Zn6_4 O12_6 1_555 1_555
O15_5 Zn1_3 1_555 1_555
O17_5 Zn2_3 1_555 1_555
O18_5 Zn1_3 1_555 1_555
C4_9 C12_9 1_555 1_555
C8_9 C11_9 1_555 1_555
C8_9 C20_10 1_555 1_555
C10_9 C17_9 1_555 1_555
C16_10 C20_10 1_555 1_555
C18_10 C21_9 1_555 1_555
C18_10 C27_10 1_555 1_555
C23_9 C24_9 1_555 1_555
C28_9 C30_9 1_555 1_555
O1_9 H26_9 1_555 1_555
O6_9 H27_9 1_555 1_555
O6_9 H28_9 1_555 1_555
O3_10 C10_10 1_555 1_555
O7_10 C14_10 1_555 1_555
O13_7 C14_10 1_555 1_555
C2_10 H2_10 1_555 1_555
C3_10 H3_10 1_555 1_555
C4_10 C2_10 1_555 1_555
H4_9 C4_10 1_555 1_555
C10_10 C2_10 1_555 1_555
C12_10 C3_10 1_555 1_555
C14_10 C12_10 1_555 1_555
C17_10 C3_10 1_555 1_555
H12_10 C17_10 1_555 1_555
C21_10 O3_10 1_555 1_555
Zn5_5 O13_7 1_555 1_555
C4_10 C12_10 1_555 1_555
C10_10 C17_10 1_555 1_555
Zn3_3 O2_10 1_555 1_555
O1_10 H1_7 1_555 1_555
Zn6_3 O1_10 1_555 1_555
O2_10 C13_10 1_555 1_555
O6_10 Zn3_3 1_555 1_555
O10_10 Zn6_3 1_555 1_555
C13_10 O10_10 1_555 1_555
H17_10 C23_10 1_555 1_555
C24_10 C13_10 1_555 1_555
O16_6 Zn6_3 1_555 1_555
O18_6 Zn3_3 1_555 1_555
O19_6 Zn3_3 1_555 1_555
C23_10 C24_10 1_555 1_555
O1_10 H26_10 1_555 1_555
O6_10 H27_10 1_555 1_555
O6_10 H28_10 1_555 1_555
O8_7 C1_11 1_555 1_555
O14_7 C1_11 1_555 1_555
C1_11 C19_11 1_555 1_555
C19_11 C26_11 1_555 1_555
C26_11 H18_11 1_555 1_555
C31_11 C26_11 1_555 1_555
C33_11 C19_11 1_555 1_555
H25_11 C33_11 1_555 1_555
Zn4_2 O14_7 1_555 1_555
Zn7_7 O8_7 1_555 1_555
C32_11 C33_11 1_555 1_555
Zn3_4 O2_11 1_555 1_555
O1_11 H1_8 1_555 1_555
Zn6_4 O1_11 1_555 1_555
O2_11 C13_11 1_555 1_555
O3_11 C10_11 1_555 1_555
O4_11 C25_11 1_555 1_555
O6_11 Zn3_4 1_555 1_555
O9_11 C7_11 1_555 1_555
O10_11 Zn6_4 1_555 1_555
O11_11 C22_11 1_555 1_555
C2_11 H2_11 1_555 1_555
C4_11 C2_11 1_555 1_555
H4_10 C4_11 1_555 1_555
C7_11 H5_11 1_555 1_555
H6_11 C7_11 1_555 1_555
C10_11 C2_11 1_555 1_555
C13_11 O10_11 1_555 1_555
C15_11 H10_11 1_555 1_555
H12_11 C17_11 1_555 1_555
C18_11 C7_11 1_555 1_555
C20_11 O9_11 1_555 1_555
C21_11 O3_11 1_555 1_555
H13_11 C21_11 1_555 1_555
H14_11 C21_11 1_555 1_555
C22_11 C18_11 1_555 1_555
H15_11 C22_11 1_555 1_555
H16_11 C22_11 1_555 1_555
C23_11 C15_11 1_555 1_555
H17_11 C23_11 1_555 1_555
C24_11 C13_11 1_555 1_555
C25_11 C15_11 1_555 1_555
C27_11 O4_11 1_555 1_555
H19_11 C27_11 1_555 1_555
H20_11 C27_11 1_555 1_555
C28_10 C24_11 1_555 1_555
H21_10 C28_10 1_555 1_555
C29_11 O11_11 1_555 1_555
C30_10 C25_11 1_555 1_555
H22_10 C30_10 1_555 1_555
O18_7 Zn3_4 1_555 1_555
C4_11 C12_11 1_555 1_555
C10_11 C17_11 1_555 1_555
C18_11 C21_11 1_555 1_555
C18_11 C27_11 1_555 1_555
C23_11 C24_11 1_555 1_555
C28_10 C30_10 1_555 1_555
O1_11 H26_11 1_555 1_555
O6_11 H27_11 1_555 1_555
O6_11 H28_11 1_555 1_555
O15_5 C6_11 1_555 1_555
O17_5 C6_11 1_555 1_555
C5_11 C6_11 1_555 1_555
C9_11 C5_11 1_555 1_555
Zn4_2 O2_12 1_555 1_555
O1_12 H1_9 1_555 1_555
Zn7_7 O1_12 1_555 1_555
O2_12 C13_12 1_555 1_555
O6_12 Zn4_2 1_555 1_555
O10_12 Zn7_7 1_555 1_555
C13_12 O10_12 1_555 1_555
C24_12 C13_12 1_555 1_555
O15_6 Zn4_2 1_555 1_555
O17_6 Zn7_7 1_555 1_555
O1_12 H26_12 1_555 1_555
O6_12 H27_12 1_555 1_555
O6_12 H28_12 1_555 1_555
O3_12 C10_12 1_555 1_555
O4_12 C25_12 1_555 1_555
O5_7 C6_12 1_555 1_555
O7_11 C14_11 1_555 1_555
O16_5 C1_12 1_555 1_555
O9_12 C7_12 1_555 1_555
O11_12 C22_12 1_555 1_555
O12_7 C6_12 1_555 1_555
O19_5 C1_12 1_555 1_555
C1_12 C19_12 1_555 1_555
C2_12 H2_12 1_555 1_555
C3_11 H3_11 1_555 1_555
C4_12 C2_12 1_555 1_555
H4_11 C4_12 1_555 1_555
C5_12 C6_12 1_555 1_555
C7_12 H5_12 1_555 1_555
H6_12 C7_12 1_555 1_555
C8_10 H7_10 1_555 1_555
C9_12 C5_12 1_555 1_555
H8_11 C9_12 1_555 1_555
C10_12 C2_12 1_555 1_555
C11_10 C5_12 1_555 1_555
H9_10 C11_10 1_555 1_555
C12_12 C3_11 1_555 1_555
C14_11 C12_12 1_555 1_555
C15_12 H10_12 1_555 1_555
C16_11 C9_12 1_555 1_555
H11_11 C16_11 1_555 1_555
C17_12 C3_11 1_555 1_555
H12_12 C17_12 1_555 1_555
C18_12 C7_12 1_555 1_555
C19_12 C26_12 1_555 1_555
C20_12 O9_12 1_555 1_555
C21_12 O3_12 1_555 1_555
H13_12 C21_12 1_555 1_555
H14_12 C21_12 1_555 1_555
C22_12 C18_12 1_555 1_555
H15_12 C22_12 1_555 1_555
H16_12 C22_12 1_555 1_555
C25_12 C15_12 1_555 1_555
C26_12 H18_12 1_555 1_555
C27_12 O4_12 1_555 1_555
H19_12 C27_12 1_555 1_555
H20_12 C27_12 1_555 1_555
C29_12 O11_12 1_555 1_555
C31_12 C26_12 1_555 1_555
H23_12 C31_12 1_555 1_555
C32_12 C29_12 1_555 1_555
H24_12 C32_12 1_555 1_555
C33_12 C19_12 1_555 1_555
H25_12 C33_12 1_555 1_555
Zn5_5 O5_7 1_555 1_555
Zn7_6 O12_7 1_555 1_555
C4_12 C12_12 1_555 1_555
C8_10 C11_10 1_555 1_555
C8_10 C20_12 1_555 1_555
C10_12 C17_12 1_555 1_555
C16_11 C20_12 1_555 1_555
C18_12 C21_12 1_555 1_555
C18_12 C27_12 1_555 1_555
C29_12 C31_12 1_555 1_555
C32_12 C33_12 1_555 1_555
Zn5_4 O2_13 1_555 1_555
Zn7_5 O1_13 1_555 1_555
O2_13 C13_13 1_555 1_555
O3_13 C10_13 1_555 1_555
O4_13 C25_13 1_555 1_555
O6_13 Zn5_4 1_555 1_555
O16_6 C1_13 1_555 1_555
O9_13 C7_13 1_555 1_555
O10_13 Zn7_5 1_555 1_555
O11_13 C22_13 1_555 1_555
O19_6 C1_13 1_555 1_555
C1_13 C19_13 1_555 1_555
C2_13 H2_13 1_555 1_555
C4_13 C2_13 1_555 1_555
C7_13 H5_13 1_555 1_555
H6_13 C7_13 1_555 1_555
C8_11 H7_11 1_555 1_555
C10_13 C2_13 1_555 1_555
H9_11 C11_11 1_555 1_555
C13_13 O10_13 1_555 1_555
C15_13 H10_13 1_555 1_555
H12_13 C17_13 1_555 1_555
C18_13 C7_13 1_555 1_555
C19_13 C26_13 1_555 1_555
C20_13 O9_13 1_555 1_555
C21_13 O3_13 1_555 1_555
H13_13 C21_13 1_555 1_555
H14_13 C21_13 1_555 1_555
C22_13 C18_13 1_555 1_555
H15_13 C22_13 1_555 1_555
H16_13 C22_13 1_555 1_555
C23_12 C15_13 1_555 1_555
H17_12 C23_12 1_555 1_555
C24_13 C13_13 1_555 1_555
C25_13 C15_13 1_555 1_555
C26_13 H18_13 1_555 1_555
C27_13 O4_13 1_555 1_555
H19_13 C27_13 1_555 1_555
H20_13 C27_13 1_555 1_555
C28_11 C24_13 1_555 1_555
H21_11 C28_11 1_555 1_555
C29_13 O11_13 1_555 1_555
C30_11 C25_13 1_555 1_555
H22_11 C30_11 1_555 1_555
C31_13 C26_13 1_555 1_555
H23_13 C31_13 1_555 1_555
C32_13 C29_13 1_555 1_555
H24_13 C32_13 1_555 1_555
C33_13 C19_13 1_555 1_555
H25_13 C33_13 1_555 1_555
O15_7 Zn5_4 1_555 1_555
O17_7 Zn7_5 1_555 1_555
C4_13 C12_13 1_555 1_555
C8_11 C11_11 1_555 1_555
C8_11 C20_13 1_555 1_555
C10_13 C17_13 1_555 1_555
C18_13 C21_13 1_555 1_555
C18_13 C27_13 1_555 1_555
C23_12 C24_13 1_555 1_555
C28_11 C30_11 1_555 1_555
C29_13 C31_13 1_555 1_555
C32_13 C33_13 1_555 1_555
O1_13 H26_13 1_555 1_555
O6_13 H27_13 1_555 1_555
O6_13 H28_13 1_555 1_555
O7_12 C14_12 1_555 1_555
O18_5 C14_12 1_555 1_555
Zn5_5 O2_14 1_555 1_555
O1_14 H1_10 1_555 1_555
Zn7_6 O1_14 1_555 1_555
O2_14 C13_14 1_555 1_555
O3_14 C10_14 1_555 1_555
O4_14 C25_14 1_555 1_555
O15_6 C6_13 1_555 1_555
O6_14 Zn5_5 1_555 1_555
O7_13 C14_13 1_555 1_555
O16_7 C1_14 1_555 1_555
O9_14 C7_14 1_555 1_555
O10_14 Zn7_6 1_555 1_555
O11_14 C22_14 1_555 1_555
O17_6 C6_13 1_555 1_555
O18_6 C14_13 1_555 1_555
O19_7 C1_14 1_555 1_555
C1_14 C19_14 1_555 1_555
C2_14 H2_14 1_555 1_555
C3_12 H3_12 1_555 1_555
C4_14 C2_14 1_555 1_555
H4_12 C4_14 1_555 1_555
C5_13 C6_13 1_555 1_555
C7_14 H5_14 1_555 1_555
H6_14 C7_14 1_555 1_555
C8_12 H7_12 1_555 1_555
C9_13 C5_13 1_555 1_555
H8_12 C9_13 1_555 1_555
C10_14 C2_14 1_555 1_555
C11_12 C5_13 1_555 1_555
H9_12 C11_12 1_555 1_555
C12_14 C3_12 1_555 1_555
C13_14 O10_14 1_555 1_555
C14_13 C12_14 1_555 1_555
C15_14 H10_14 1_555 1_555
C16_12 C9_13 1_555 1_555
H11_12 C16_12 1_555 1_555
C17_14 C3_12 1_555 1_555
H12_14 C17_14 1_555 1_555
C18_14 C7_14 1_555 1_555
C19_14 C26_14 1_555 1_555
C20_14 O9_14 1_555 1_555
C21_14 O3_14 1_555 1_555
H13_14 C21_14 1_555 1_555
H14_14 C21_14 1_555 1_555
C22_14 C18_14 1_555 1_555
H15_14 C22_14 1_555 1_555
H16_14 C22_14 1_555 1_555
C23_13 C15_14 1_555 1_555
H17_13 C23_13 1_555 1_555
C24_14 C13_14 1_555 1_555
C25_14 C15_14 1_555 1_555
C26_14 H18_14 1_555 1_555
C27_14 O4_14 1_555 1_555
H19_14 C27_14 1_555 1_555
H20_14 C27_14 1_555 1_555
C28_12 C24_14 1_555 1_555
H21_12 C28_12 1_555 1_555
C29_14 O11_14 1_555 1_555
C30_12 C25_14 1_555 1_555
H22_12 C30_12 1_555 1_555
C31_14 C26_14 1_555 1_555
H23_14 C31_14 1_555 1_555
C32_14 C29_14 1_555 1_555
H24_14 C32_14 1_555 1_555
C33_14 C19_14 1_555 1_555
H25_14 C33_14 1_555 1_555
C4_14 C12_14 1_555 1_555
C8_12 C11_12 1_555 1_555
C8_12 C20_14 1_555 1_555
C10_14 C17_14 1_555 1_555
C16_12 C20_14 1_555 1_555
C18_14 C21_14 1_555 1_555
C18_14 C27_14 1_555 1_555
C23_13 C24_14 1_555 1_555
C28_12 C30_12 1_555 1_555
C29_14 C31_14 1_555 1_555
C32_14 C33_14 1_555 1_555
O1_14 H26_14 1_555 1_555
O6_14 H27_14 1_555 1_555
O6_14 H28_14 1_555 1_555
O15_7 C6_14 1_555 1_555
O17_7 C6_14 1_555 1_555
C5_14 C6_14 1_555 1_555
C8_13 H7_13 1_555 1_555
C9_14 C5_14 1_555 1_555
C11_13 C5_14 1_555 1_555
H9_13 C11_13 1_555 1_555
C8_13 C11_13 1_555 1_555
O7_14 C14_14 1_555 1_555
O18_7 C14_14 1_555 1_555
O3_15 C10_15 1_555 1_555
O7_15 C14_15 1_555 1_555
C2_15 H2_15 1_555 1_555
C3_13 H3_13 1_555 1_555
C4_15 C2_15 1_555 1_555
H4_14 C4_15 1_555 1_555
C10_15 C2_15 1_555 1_555
C12_15 C3_13 1_555 1_555
C14_15 C12_15 1_555 1_555
C17_15 C3_13 1_555 1_555
H12_15 C17_15 1_555 1_555
C21_15 O3_15 1_555 1_555
C4_15 C12_15 1_555 1_555
C10_15 C17_15 1_555 1_555
Zn1_4 O2_15 1_555 1_555
O1_15 H1_11 1_555 1_555
Zn2_4 O1_15 1_555 1_555
O2_15 C13_15 1_555 1_555
O6_15 Zn1_4 1_555 1_555
O10_15 Zn2_4 1_555 1_555
C13_15 O10_15 1_555 1_555
C24_15 C13_15 1_555 1_555
C28_13 C24_15 1_555 1_555
H21_13 C28_13 1_555 1_555
H22_13 C30_13 1_555 1_555
O15_8 Zn1_4 1_555 1_555
O16_8 Zn2_4 1_555 1_555
O17_8 Zn2_4 1_555 1_555
O18_8 Zn1_4 1_555 1_555
O19_8 Zn1_4 1_555 1_555
C28_13 C30_13 1_555 1_555
O1_15 H26_15 1_555 1_555
O6_15 H27_15 1_555 1_555
O6_15 H28_15 1_555 1_555
O4_15 C25_15 1_555 1_555
O15_8 C6_15 1_555 1_555
O8_8 C1_15 1_555 1_555
O9_15 C7_15 1_555 1_555
O11_15 C22_15 1_555 1_555
O17_8 C6_15 1_555 1_555
O14_8 C1_15 1_555 1_555
C1_15 C19_15 1_555 1_555
C5_15 C6_15 1_555 1_555
H6_15 C7_15 1_555 1_555
C8_14 H7_14 1_555 1_555
C9_15 C5_15 1_555 1_555
H8_13 C9_15 1_555 1_555
C11_14 C5_15 1_555 1_555
H9_14 C11_14 1_555 1_555
C15_15 H10_15 1_555 1_555
C16_13 C9_15 1_555 1_555
H11_13 C16_13 1_555 1_555
C18_15 C7_15 1_555 1_555
C19_15 C26_15 1_555 1_555
C20_15 O9_15 1_555 1_555
C22_15 C18_15 1_555 1_555
H15_15 C22_15 1_555 1_555
H16_15 C22_15 1_555 1_555
C25_15 C15_15 1_555 1_555
C26_15 H18_15 1_555 1_555
C27_15 O4_15 1_555 1_555
H19_15 C27_15 1_555 1_555
H21_14 C28_14 1_555 1_555
C29_15 O11_15 1_555 1_555
C30_14 C25_15 1_555 1_555
H22_14 C30_14 1_555 1_555
C31_15 C26_15 1_555 1_555
H23_15 C31_15 1_555 1_555
C32_15 C29_15 1_555 1_555
H24_15 C32_15 1_555 1_555
C33_15 C19_15 1_555 1_555
H25_15 C33_15 1_555 1_555
Zn5_6 O14_8 1_555 1_555
Zn7_8 O8_8 1_555 1_555
C8_14 C11_14 1_555 1_555
C8_14 C20_15 1_555 1_555
C16_13 C20_15 1_555 1_555
C18_15 C27_15 1_555 1_555
C28_14 C30_14 1_555 1_555
C29_15 C31_15 1_555 1_555
C32_15 C33_15 1_555 1_555
O7_16 C14_16 1_555 1_555
O13_8 C14_16 1_555 1_555
C3_14 H3_14 1_555 1_555
H11_14 C16_14 1_555 1_555
Zn5_6 O13_8 1_555 1_555
H21_15 C28_15 1_555 1_555
H22_15 C30_15 1_555 1_555
C28_15 C30_15 1_555 1_555
O5_8 C6_16 1_555 1_555
O12_8 C6_16 1_555 1_555
C3_15 H3_15 1_555 1_555
C5_16 C6_16 1_555 1_555
C9_16 C5_16 1_555 1_555
H8_15 C9_16 1_555 1_555
C16_15 C9_16 1_555 1_555
H11_15 C16_15 1_555 1_555
Zn5_6 O5_8 1_555 1_555
Zn7_8 O12_8 1_555 1_555
Zn5_6 O2_16 1_555 1_555
O1_16 H1_12 1_555 1_555
Zn7_8 O1_16 1_555 1_555
O2_16 C13_16 1_555 1_555
O3_16 C10_16 1_555 1_555
O4_16 C25_16 1_555 1_555
O6_16 Zn5_6 1_555 1_555
O16_8 C1_16 1_555 1_555
O9_16 C7_16 1_555 1_555
O10_16 Zn7_8 1_555 1_555
O11_16 C22_16 1_555 1_555
O19_8 C1_16 1_555 1_555
C1_16 C19_16 1_555 1_555
C2_16 H2_16 1_555 1_555
C3_16 H3_16 1_555 1_555
C4_16 C2_16 1_555 1_555
C7_16 H5_16 1_555 1_555
H6_16 C7_16 1_555 1_555
C10_16 C2_16 1_555 1_555
C12_16 C3_16 1_555 1_555
C13_16 O10_16 1_555 1_555
C15_16 H10_16 1_555 1_555
H11_16 C16_16 1_555 1_555
C17_16 C3_16 1_555 1_555
H12_16 C17_16 1_555 1_555
C18_16 C7_16 1_555 1_555
C19_16 C26_16 1_555 1_555
C20_16 O9_16 1_555 1_555
C21_16 O3_16 1_555 1_555
H13_16 C21_16 1_555 1_555
H14_16 C21_16 1_555 1_555
C22_16 C18_16 1_555 1_555
H15_16 C22_16 1_555 1_555
H16_16 C22_16 1_555 1_555
C23_14 C15_16 1_555 1_555
H17_14 C23_14 1_555 1_555
C24_16 C13_16 1_555 1_555
C25_16 C15_16 1_555 1_555
C26_16 H18_16 1_555 1_555
C27_16 O4_16 1_555 1_555
H19_16 C27_16 1_555 1_555
H20_16 C27_16 1_555 1_555
C28_16 C24_16 1_555 1_555
H21_16 C28_16 1_555 1_555
C29_16 O11_16 1_555 1_555
C30_16 C25_16 1_555 1_555
H22_16 C30_16 1_555 1_555
C31_16 C26_16 1_555 1_555
H23_16 C31_16 1_555 1_555
C32_16 C29_16 1_555 1_555
H24_16 C32_16 1_555 1_555
C33_16 C19_16 1_555 1_555
H25_16 C33_16 1_555 1_555
C4_16 C12_16 1_555 1_555
C10_16 C17_16 1_555 1_555
C16_16 C20_16 1_555 1_555
C18_16 C21_16 1_555 1_555
C18_16 C27_16 1_555 1_555
C23_14 C24_16 1_555 1_555
C28_16 C30_16 1_555 1_555
C29_16 C31_16 1_555 1_555
C32_16 C33_16 1_555 1_555
O1_16 H26_16 1_555 1_555
O6_16 H27_16 1_555 1_555
O6_16 H28_16 1_555 1_555
C8_15 H7_15 1_555 1_555
H9_15 C11_15 1_555 1_555
C8_15 C11_15 1_555 1_555
C8_16 H7_16 1_555 1_555
H9_16 C11_16 1_555 1_555
C8_16 C11_16 1_555 1_555
H17_15 C23_15 1_555 1_555
H17_16 C23_16 1_555 1_555

#END
