
###############################################################################
#
# This file contains modified crystal structure data generated from the
# MOF subset of the Cambridge Structural Database (CSD) v543 
# hosted by the Cambridge Crystallographic Data Centre (CCDC).
#
# This work is licensed under the Creative Commons
# Attribution-NonCommercial-ShareAlike 4.0 International License.
# To view a copy of this license, visit
# http://creativecommons.org/licenses/by-nc-sa/4.0/
# or send a letter to
# Creative Commons, PO Box 1866, Mountain View, CA 94042, USA.
#
# CIF created using the CSD Python API on 29 September 2022
# The structure has been converted into the P1 space group
# The structure has a 3D framework
# The original CSD entry KABPIQ is in the rhombohedral crystal system
# The framework has been calculated to contain at least 10.0% void space
# The void calculation uses a probe of radius 1.32A, grid spacing 0.4
# The framework is charged, counterions have been retained in the structure
#
###############################################################################

data_KABPIQ
_chemical_formula_moiety         '(C1836 H1152 In36 N108 O288 Ru18 6-)n'
_symmetry_cell_setting           triclinic
_symmetry_space_group_name_H-M   'P 1'
_symmetry_Int_Tables_number      1
_space_group_name_Hall           'P 1'
loop_
_symmetry_equiv_pos_site_id
_symmetry_equiv_pos_as_xyz
1 x,y,z
_cell_length_a                   44.7175(10)
_cell_length_b                   44.7175(10)
_cell_length_c                   42.1464(11)
_cell_angle_alpha                90
_cell_angle_beta                 90
_cell_angle_gamma                120
_cell_volume                     72987.1
loop_
_atom_site_label
_atom_site_type_symbol
_atom_site_fract_x
_atom_site_fract_y
_atom_site_fract_z
Ru1 Ru 0.42004(7) 0.12355(9) 0.01962(6)
N1 N 0.4236(6) 0.1258(7) 0.06696(9)
C1 C 0.3968(5) 0.1204(7) 0.0873(4)
H1 H 0.3746 0.1114 0.0794
C2 C 0.4034(5) 0.1284(7) 0.1193(3)
H2 H 0.3855 0.1248 0.1329
C3 C 0.4368(6) 0.1417(7) 0.1310(2)
H3 H 0.4412 0.1470 0.1525
C4 C 0.4635(5) 0.1471(6) 0.1107(4)
H4 H 0.4858 0.1560 0.1186
C5 C 0.4569(5) 0.1391(6) 0.0787(4)
N2 N 0.4717(5) 0.1386(5) 0.0260(5)
C6 C 0.4831(6) 0.1453(6) 0.0573(4)
C7 C 0.5165(6) 0.1530(7) 0.0647(5)
H5 H 0.5241 0.1575 0.0856
C8 C 0.5385(5) 0.1541(8) 0.0409(7)
H6 H 0.5609 0.1592 0.0459
C9 C 0.5271(7) 0.1474(9) 0.0097(6)
C10 C 0.4937(7) 0.1396(8) 0.0022(4)
N4 N 0.4290(7) 0.1721(3) 0.0175(7)
C18 C 0.4395(8) 0.2386(3) 0.0117(8)
H14 H 0.4430 0.2608 0.0098
C19 C 0.4364(9) 0.2241(6) 0.0416(6)
H15 H 0.4379 0.2368 0.0597
C20 C 0.4312(8) 0.1909(6) 0.0445(6)
H16 H 0.4291 0.1813 0.0645
N5 N 0.3668(3) 0.1014(4) 0.0206(4)
C21 C 0.3488(5) 0.1193(4) 0.0214(5)
H17 H 0.3606 0.1430 0.0249
C22 C 0.3133(5) 0.1018(5) 0.0169(5)
H18 H 0.3012 0.1137 0.0174
C23 C 0.2957(3) 0.0663(5) 0.0116(5)
H19 H 0.2719 0.0546 0.0086
C24 C 0.3137(5) 0.0484(4) 0.0108(5)
H20 H 0.3019 0.0247 0.0073
C25 C 0.3492(5) 0.0660(4) 0.0153(5)
N6 N 0.4024(5) 0.0710(4) 0.0183(5)
C26 C 0.3670(5) 0.0486(5) 0.0157(5)
C27 C 0.3542(4) 0.0133(5) 0.0124(6)
C28 C 0.3768(7) 0.0004(4) 0.0118(6)
C29 C 0.4121(6) 0.0228(6) 0.0145(6)
H23 H 0.4273 0.0142 0.0141
C30 C 0.4249(4) 0.0581(6) 0.0178(6)
H24 H 0.4486 0.0731 0.0195
H7 H 0.5418 0.1481 0.9937
H8 H 0.4861 0.1351 0.9813
N3 N 0.4221(9) 0.1347(7) 0.9705(6)
C11 C 0.4168(10) 0.1110(6) 0.9468(9)
H9 H 0.4131 0.0892 0.9520
C12 C 0.4171(9) 0.1199(9) 0.9151(8)
H10 H 0.4135 0.1040 0.8992
C13 C 0.4227(10) 0.1525(10) 0.9072(5)
H11 H 0.4229 0.1584 0.8861
C14 C 0.4280(9) 0.1762(7) 0.9310(6)
H12 H 0.4318 0.1980 0.9257
C15 C 0.4278(6) 0.1673(6) 0.9626(5)
C16 C 0.4320(8) 0.1865(6) 0.9876(6)
C17 C 0.4373(8) 0.2197(6) 0.9847(6)
H13 H 0.4393 0.2294 0.9647
H21 H 0.3306 0.9983 0.0106
H22 H 0.3682 0.9768 0.0097
H21_2 H 0.0017 0.3323 0.0106
H22_2 H 0.0232 0.3914 0.0097
Ru1_2 Ru 0.87645(9) 0.29649(11) 0.01962(6)
N1_2 N 0.8742(7) 0.2978(9) 0.06696(9)
C1_2 C 0.8796(7) 0.2764(9) 0.0873(4)
H1_2 H 0.8886 0.2632 0.0794
C2_2 C 0.8716(7) 0.2750(9) 0.1193(3)
H2_2 H 0.8752 0.2607 0.1329
C3_2 C 0.8583(7) 0.2951(9) 0.1310(2)
H3_2 H 0.8530 0.2942 0.1525
C4_2 C 0.8529(6) 0.3164(8) 0.1107(4)
H4_2 H 0.8440 0.3298 0.1186
C5_2 C 0.8609(6) 0.3178(8) 0.0787(4)
N2_2 N 0.8614(5) 0.3331(7) 0.0260(5)
C6_2 C 0.8547(6) 0.3378(8) 0.0573(4)
C7_2 C 0.8470(7) 0.3635(9) 0.0647(5)
H5_2 H 0.8425 0.3666 0.0856
C8_2 C 0.8459(8) 0.3844(9) 0.0409(7)
H6_2 H 0.8408 0.4017 0.0459
C9_2 C 0.8526(9) 0.3797(11) 0.0097(6)
C10_2 C 0.8604(8) 0.3541(11) 0.0022(4)
N4_2 N 0.8279(3) 0.2569(8) 0.0175(7)
C18_2 C 0.7614(3) 0.2009(9) 0.0117(8)
H14_2 H 0.7392 0.1822 0.0098
C19_2 C 0.7759(6) 0.2123(11) 0.0416(6)
H15_2 H 0.7632 0.2011 0.0597
C20_2 C 0.8091(6) 0.2403(10) 0.0445(6)
H16_2 H 0.8187 0.2478 0.0645
N5_2 N 0.8986(4) 0.2654(5) 0.0206(4)
C21_2 C 0.8807(4) 0.2295(6) 0.0214(5)
H17_2 H 0.8570 0.2176 0.0249
C22_2 C 0.8982(5) 0.2115(7) 0.0169(5)
H18_2 H 0.8863 0.1875 0.0174
C23_2 C 0.9337(5) 0.2294(6) 0.0116(5)
H19_2 H 0.9454 0.2173 0.0086
C24_2 C 0.9516(4) 0.2653(6) 0.0108(5)
H20_2 H 0.9753 0.2772 0.0073
C25_2 C 0.9340(4) 0.2832(6) 0.0153(5)
N6_2 N 0.9290(4) 0.3314(6) 0.0183(5)
C26_2 C 0.9514(5) 0.3184(7) 0.0157(5)
C27_2 C 0.9867(5) 0.3409(6) 0.0124(6)
C28_2 C 0.9996(4) 0.3764(8) 0.0118(6)
C29_2 C 0.9772(6) 0.3893(8) 0.0145(6)
H23_2 H 0.9858 0.4131 0.0141
C30_2 C 0.9419(6) 0.3668(7) 0.0178(6)
H24_2 H 0.9269 0.3755 0.0195
H7_2 H 0.8519 0.3937 0.9937
H8_2 H 0.8649 0.3510 0.9813
N3_2 N 0.8653(7) 0.2874(11) 0.9705(6)
C11_2 C 0.8890(6) 0.3058(12) 0.9468(9)
H9_2 H 0.9108 0.3239 0.9520
C12_2 C 0.8801(9) 0.2972(13) 0.9151(8)
H10_2 H 0.8960 0.3095 0.8992
C13_2 C 0.8475(10) 0.2702(14) 0.9072(5)
H11_2 H 0.8416 0.2645 0.8861
C14_2 C 0.8238(7) 0.2518(11) 0.9310(6)
H12_2 H 0.8020 0.2338 0.9257
C15_2 C 0.8327(6) 0.2605(8) 0.9626(5)
C16_2 C 0.8135(6) 0.2455(10) 0.9876(6)
C17_2 C 0.7803(6) 0.2176(10) 0.9847(6)
H13_2 H 0.7706 0.2099 0.9647
Ru1_3 Ru 0.70351(11) 0.57996(7) 0.01962(6)
N1_3 N 0.7022(9) 0.5764(6) 0.06696(9)
C1_3 C 0.7236(9) 0.6032(5) 0.0873(4)
H1_3 H 0.7368 0.6254 0.0794
C2_3 C 0.7250(9) 0.5966(5) 0.1193(3)
H2_3 H 0.7393 0.6145 0.1329
C3_3 C 0.7049(9) 0.5632(6) 0.1310(2)
H3_3 H 0.7058 0.5588 0.1525
C4_3 C 0.6836(8) 0.5365(5) 0.1107(4)
H4_3 H 0.6702 0.5142 0.1186
C5_3 C 0.6822(8) 0.5431(5) 0.0787(4)
N2_3 N 0.6669(7) 0.5283(5) 0.0260(5)
C6_3 C 0.6622(8) 0.5169(6) 0.0573(4)
C7_3 C 0.6365(9) 0.4835(6) 0.0647(5)
H5_3 H 0.6334 0.4759 0.0856
C8_3 C 0.6156(9) 0.4615(5) 0.0409(7)
H6_3 H 0.5983 0.4391 0.0459
C9_3 C 0.6203(11) 0.4729(7) 0.0097(6)
C10_3 C 0.6459(11) 0.5063(7) 0.0022(4)
N4_3 N 0.7431(8) 0.5710(7) 0.0175(7)
C18_3 C 0.7991(9) 0.5605(8) 0.0117(8)
H14_3 H 0.8178 0.5570 0.0098
C19_3 C 0.7877(11) 0.5636(9) 0.0416(6)
H15_3 H 0.7989 0.5621 0.0597
C20_3 C 0.7597(10) 0.5688(8) 0.0445(6)
H16_3 H 0.7522 0.5709 0.0645
N5_3 N 0.7346(5) 0.6332(3) 0.0206(4)
C21_3 C 0.7705(6) 0.6512(5) 0.0214(5)
H17_3 H 0.7824 0.6394 0.0249
C22_3 C 0.7885(7) 0.6867(5) 0.0169(5)
H18_3 H 0.8125 0.6988 0.0174
C23_3 C 0.7706(6) 0.7043(3) 0.0116(5)
H19_3 H 0.7827 0.7281 0.0086
C24_3 C 0.7347(6) 0.6863(5) 0.0108(5)
H20_3 H 0.7228 0.6981 0.0073
C25_3 C 0.7168(6) 0.6508(5) 0.0153(5)
N6_3 N 0.6686(6) 0.5976(5) 0.0183(5)
C26_3 C 0.6816(7) 0.6330(5) 0.0157(5)
C27_3 C 0.6591(6) 0.6458(4) 0.0124(6)
H21_3 H 0.6677 0.6694 0.0106
C28_3 C 0.6236(8) 0.6232(7) 0.0118(6)
H22_3 H 0.6086 0.6318 0.0097
C29_3 C 0.6107(8) 0.5879(6) 0.0145(6)
H23_3 H 0.5869 0.5727 0.0141
C30_3 C 0.6332(7) 0.5751(4) 0.0178(6)
H24_3 H 0.6245 0.5514 0.0195
H7_3 H 0.6063 0.4582 0.9937
H8_3 H 0.6490 0.5139 0.9813
N3_3 N 0.7126(11) 0.5779(9) 0.9705(6)
C11_3 C 0.6942(12) 0.5832(10) 0.9468(9)
H9_3 H 0.6761 0.5869 0.9520
C12_3 C 0.7028(13) 0.5829(9) 0.9151(8)
H10_3 H 0.6905 0.5865 0.8992
C13_3 C 0.7298(14) 0.5773(10) 0.9072(5)
H11_3 H 0.7355 0.5771 0.8861
C14_3 C 0.7482(11) 0.5720(9) 0.9310(6)
H12_3 H 0.7662 0.5682 0.9257
C15_3 C 0.7395(8) 0.5722(6) 0.9626(5)
C16_3 C 0.7545(10) 0.5680(8) 0.9876(6)
C17_3 C 0.7824(10) 0.5627(8) 0.9847(6)
H13_3 H 0.7901 0.5607 0.9647
Ru1_4 Ru 0.08671(7) 0.45688(9) 0.35295(6)
N1_4 N 0.0903(6) 0.4591(7) 0.40029(9)
C1_4 C 0.0635(5) 0.4537(7) 0.4206(4)
H1_4 H 0.0413 0.4447 0.4127
C2_4 C 0.0701(5) 0.4617(7) 0.4526(3)
H2_4 H 0.0522 0.4581 0.4662
C3_4 C 0.1035(6) 0.4750(7) 0.4643(2)
H3_4 H 0.1079 0.4803 0.4858
C4_4 C 0.1302(5) 0.4804(6) 0.4440(4)
H4_4 H 0.1525 0.4893 0.4519
C5_4 C 0.1236(5) 0.4724(6) 0.4120(4)
N2_4 N 0.1384(5) 0.4719(5) 0.3593(5)
C6_4 C 0.1498(6) 0.4786(6) 0.3906(4)
C7_4 C 0.1832(6) 0.4863(7) 0.3980(5)
H5_4 H 0.1908 0.4908 0.4189
C8_4 C 0.2052(5) 0.4874(8) 0.3742(7)
H6_4 H 0.2276 0.4925 0.3792
C9_4 C 0.1938(7) 0.4807(9) 0.3430(6)
H7_4 H 0.2085 0.4814 0.3270
C10_4 C 0.1604(7) 0.4729(8) 0.3355(4)
H8_4 H 0.1528 0.4684 0.3146
N3_4 N 0.0888(9) 0.4680(7) 0.3038(6)
C11_4 C 0.0835(10) 0.4443(6) 0.2801(9)
H9_4 H 0.0798 0.4225 0.2853
C12_4 C 0.0838(9) 0.4532(9) 0.2484(8)
H10_4 H 0.0802 0.4373 0.2325
C13_4 C 0.0894(10) 0.4858(10) 0.2405(5)
H11_4 H 0.0896 0.4917 0.2194
C14_4 C 0.0947(9) 0.5095(7) 0.2643(6)
H12_4 H 0.0985 0.5313 0.2590
C15_4 C 0.0945(6) 0.5006(6) 0.2959(5)
N4_4 N 0.0957(7) 0.5054(3) 0.3508(7)
C16_4 C 0.0987(8) 0.5198(6) 0.3209(6)
C17_4 C 0.1040(8) 0.5530(6) 0.3180(6)
H13_4 H 0.1060 0.5627 0.2980
C18_4 C 0.1062(8) 0.5719(3) 0.3450(8)
H14_4 H 0.1097 0.5941 0.3431
C19_4 C 0.1031(9) 0.5574(6) 0.3749(6)
H15_4 H 0.1046 0.5701 0.3930
C20_4 C 0.0979(8) 0.5242(6) 0.3778(6)
H16_4 H 0.0958 0.5146 0.3978
N5_4 N 0.0335(3) 0.4347(4) 0.3539(4)
C21_4 C 0.0155(5) 0.4526(4) 0.3547(5)
H17_4 H 0.0273 0.4763 0.3582
C25_4 C 0.0159(5) 0.3993(4) 0.3486(5)
N6_4 N 0.0691(5) 0.4043(4) 0.3516(5)
C26_4 C 0.0337(5) 0.3819(5) 0.3490(5)
C27_4 C 0.0209(4) 0.3466(5) 0.3457(6)
C28_4 C 0.0435(7) 0.3337(4) 0.3451(6)
H22_4 H 0.0349 0.3101 0.3430
C29_4 C 0.0788(6) 0.3561(6) 0.3478(6)
H23_4 H 0.0940 0.3475 0.3474
C30_4 C 0.0916(4) 0.3914(6) 0.3511(6)
H24_4 H 0.1153 0.4064 0.3528
C22_4 C 0.9800(5) 0.4351(5) 0.3502(5)
H18_4 H 0.9679 0.4470 0.3507
C23_4 C 0.9624(3) 0.3996(5) 0.3449(5)
H19_4 H 0.9386 0.3879 0.3419
C24_4 C 0.9804(5) 0.3817(4) 0.3441(5)
H20_4 H 0.9686 0.3580 0.3406
H21_4 H 0.9973 0.3316 0.3439
Ru1_5 Ru 0.54312(9) 0.62982(11) 0.35295(6)
N1_5 N 0.5409(7) 0.6311(9) 0.40029(9)
C1_5 C 0.5463(7) 0.6097(9) 0.4206(4)
H1_5 H 0.5553 0.5965 0.4127
C2_5 C 0.5383(7) 0.6083(9) 0.4526(3)
H2_5 H 0.5419 0.5940 0.4662
C3_5 C 0.5250(7) 0.6284(9) 0.4643(2)
H3_5 H 0.5197 0.6275 0.4858
C4_5 C 0.5196(6) 0.6497(8) 0.4440(4)
H4_5 H 0.5107 0.6631 0.4519
C5_5 C 0.5276(6) 0.6511(8) 0.4120(4)
N2_5 N 0.5281(5) 0.6664(7) 0.3593(5)
C6_5 C 0.5214(6) 0.6711(8) 0.3906(4)
C7_5 C 0.5137(7) 0.6968(9) 0.3980(5)
H5_5 H 0.5092 0.6999 0.4189
C8_5 C 0.5126(8) 0.7177(9) 0.3742(7)
H6_5 H 0.5075 0.7350 0.3792
C9_5 C 0.5193(9) 0.7130(11) 0.3430(6)
H7_5 H 0.5186 0.7270 0.3270
C10_5 C 0.5271(8) 0.6874(11) 0.3355(4)
H8_5 H 0.5316 0.6843 0.3146
N3_5 N 0.5320(7) 0.6207(11) 0.3038(6)
C11_5 C 0.5557(6) 0.6391(12) 0.2801(9)
H9_5 H 0.5775 0.6572 0.2853
C12_5 C 0.5468(9) 0.6305(13) 0.2484(8)
H10_5 H 0.5627 0.6428 0.2325
C13_5 C 0.5142(10) 0.6035(14) 0.2405(5)
H11_5 H 0.5083 0.5978 0.2194
C14_5 C 0.4905(7) 0.5851(11) 0.2643(6)
H12_5 H 0.4687 0.5671 0.2590
C15_5 C 0.4994(6) 0.5938(8) 0.2959(5)
N4_5 N 0.4946(3) 0.5902(8) 0.3508(7)
C16_5 C 0.4802(6) 0.5788(10) 0.3209(6)
C17_5 C 0.4470(6) 0.5509(10) 0.3180(6)
H13_5 H 0.4373 0.5432 0.2980
C18_5 C 0.4281(3) 0.5342(9) 0.3450(8)
H14_5 H 0.4059 0.5155 0.3431
C19_5 C 0.4426(6) 0.5456(11) 0.3749(6)
H15_5 H 0.4299 0.5344 0.3930
C20_5 C 0.4758(6) 0.5736(10) 0.3778(6)
H16_5 H 0.4854 0.5811 0.3978
N5_5 N 0.5653(4) 0.5987(5) 0.3539(4)
C21_5 C 0.5474(4) 0.5628(6) 0.3547(5)
H17_5 H 0.5237 0.5509 0.3582
C22_5 C 0.5649(5) 0.5448(7) 0.3502(5)
H18_5 H 0.5530 0.5208 0.3507
C23_5 C 0.6004(5) 0.5627(6) 0.3449(5)
H19_5 H 0.6121 0.5506 0.3419
C24_5 C 0.6183(4) 0.5986(6) 0.3441(5)
H20_5 H 0.6420 0.6105 0.3406
C25_5 C 0.6007(4) 0.6165(6) 0.3486(5)
N6_5 N 0.5957(4) 0.6647(6) 0.3516(5)
C26_5 C 0.6181(5) 0.6517(7) 0.3490(5)
C27_5 C 0.6534(5) 0.6742(6) 0.3457(6)
H21_5 H 0.6684 0.6656 0.3439
C28_5 C 0.6663(4) 0.7097(8) 0.3451(6)
H22_5 H 0.6899 0.7247 0.3430
C29_5 C 0.6439(6) 0.7226(8) 0.3478(6)
H23_5 H 0.6525 0.7464 0.3474
C30_5 C 0.6086(6) 0.7001(7) 0.3511(6)
H24_5 H 0.5936 0.7088 0.3528
C22_6 C 0.4552(7) 0.0200(5) 0.3502(5)
H18_6 H 0.4792 0.0321 0.3507
C23_6 C 0.4373(6) 0.0376(3) 0.3449(5)
H19_6 H 0.4494 0.0614 0.3419
C24_6 C 0.4014(6) 0.0196(5) 0.3441(5)
H20_6 H 0.3895 0.0314 0.3406
H21_6 H 0.3344 0.0027 0.3439
Ru1_6 Ru 0.37018(11) 0.91329(7) 0.35295(6)
N1_6 N 0.3689(9) 0.9097(6) 0.40029(9)
C1_6 C 0.3903(9) 0.9365(5) 0.4206(4)
H1_6 H 0.4035 0.9587 0.4127
C2_6 C 0.3917(9) 0.9299(5) 0.4526(3)
H2_6 H 0.4060 0.9478 0.4662
C3_6 C 0.3716(9) 0.8965(6) 0.4643(2)
H3_6 H 0.3725 0.8921 0.4858
C4_6 C 0.3503(8) 0.8698(5) 0.4440(4)
H4_6 H 0.3369 0.8475 0.4519
C5_6 C 0.3489(8) 0.8764(5) 0.4120(4)
N2_6 N 0.3336(7) 0.8616(5) 0.3593(5)
C6_6 C 0.3289(8) 0.8502(6) 0.3906(4)
C7_6 C 0.3032(9) 0.8168(6) 0.3980(5)
H5_6 H 0.3001 0.8092 0.4189
C8_6 C 0.2823(9) 0.7948(5) 0.3742(7)
H6_6 H 0.2650 0.7724 0.3792
C9_6 C 0.2870(11) 0.8062(7) 0.3430(6)
H7_6 H 0.2730 0.7915 0.3270
C10_6 C 0.3126(11) 0.8396(7) 0.3355(4)
H8_6 H 0.3157 0.8472 0.3146
N3_6 N 0.3793(11) 0.9112(9) 0.3038(6)
C11_6 C 0.3609(12) 0.9165(10) 0.2801(9)
H9_6 H 0.3428 0.9202 0.2853
C12_6 C 0.3695(13) 0.9162(9) 0.2484(8)
H10_6 H 0.3572 0.9198 0.2325
C13_6 C 0.3965(14) 0.9106(10) 0.2405(5)
H11_6 H 0.4022 0.9104 0.2194
C14_6 C 0.4149(11) 0.9053(9) 0.2643(6)
H12_6 H 0.4329 0.9015 0.2590
C15_6 C 0.4062(8) 0.9055(6) 0.2959(5)
N4_6 N 0.4098(8) 0.9043(7) 0.3508(7)
C16_6 C 0.4212(10) 0.9013(8) 0.3209(6)
C17_6 C 0.4491(10) 0.8960(8) 0.3180(6)
H13_6 H 0.4568 0.8940 0.2980
C18_6 C 0.4658(9) 0.8938(8) 0.3450(8)
H14_6 H 0.4845 0.8903 0.3431
C19_6 C 0.4544(11) 0.8969(9) 0.3749(6)
H15_6 H 0.4656 0.8954 0.3930
C20_6 C 0.4264(10) 0.9021(8) 0.3778(6)
H16_6 H 0.4189 0.9042 0.3978
N5_6 N 0.4013(5) 0.9665(3) 0.3539(4)
C21_6 C 0.4372(6) 0.9845(5) 0.3547(5)
H17_6 H 0.4491 0.9727 0.3582
C25_6 C 0.3835(6) 0.9841(5) 0.3486(5)
N6_6 N 0.3353(6) 0.9309(5) 0.3516(5)
C26_6 C 0.3483(7) 0.9663(5) 0.3490(5)
C27_6 C 0.3258(6) 0.9791(4) 0.3457(6)
C28_6 C 0.2903(8) 0.9565(7) 0.3451(6)
H22_6 H 0.2753 0.9651 0.3430
C29_6 C 0.2774(8) 0.9212(6) 0.3478(6)
H23_6 H 0.2536 0.9060 0.3474
C30_6 C 0.2999(7) 0.9084(4) 0.3511(6)
H24_6 H 0.2912 0.8847 0.3528
Ru1_7 Ru 0.75337(7) 0.79022(9) 0.68629(6)
N1_7 N 0.7569(6) 0.7925(7) 0.73363(9)
C1_7 C 0.7301(5) 0.7871(7) 0.7540(4)
H1_7 H 0.7079 0.7781 0.7461
C2_7 C 0.7367(5) 0.7951(7) 0.7860(3)
H2_7 H 0.7188 0.7915 0.7996
C3_7 C 0.7701(6) 0.8084(7) 0.7977(2)
H3_7 H 0.7745 0.8137 0.8192
C4_7 C 0.7968(5) 0.8138(6) 0.7774(4)
H4_7 H 0.8191 0.8227 0.7853
C5_7 C 0.7902(5) 0.8058(6) 0.7454(4)
N2_7 N 0.8050(5) 0.8053(5) 0.6927(5)
C6_7 C 0.8164(6) 0.8120(6) 0.7240(4)
C7_7 C 0.8498(6) 0.8197(7) 0.7314(5)
H5_7 H 0.8574 0.8242 0.7523
C8_7 C 0.8718(5) 0.8208(8) 0.7076(7)
H6_7 H 0.8942 0.8259 0.7126
C9_7 C 0.8604(7) 0.8141(9) 0.6764(6)
H7_7 H 0.8751 0.8148 0.6604
C10_7 C 0.8270(7) 0.8063(8) 0.6689(4)
H8_7 H 0.8194 0.8018 0.6480
N3_7 N 0.7554(9) 0.8014(7) 0.6372(6)
C11_7 C 0.7501(10) 0.7777(6) 0.6135(9)
H9_7 H 0.7464 0.7559 0.6187
C12_7 C 0.7504(9) 0.7866(9) 0.5818(8)
H10_7 H 0.7468 0.7707 0.5659
C13_7 C 0.7560(10) 0.8192(10) 0.5739(5)
H11_7 H 0.7562 0.8251 0.5528
C14_7 C 0.7613(9) 0.8429(7) 0.5977(6)
H12_7 H 0.7651 0.8647 0.5924
C15_7 C 0.7611(6) 0.8340(6) 0.6293(5)
N4_7 N 0.7623(7) 0.8388(3) 0.6842(7)
C16_7 C 0.7653(8) 0.8532(6) 0.6543(6)
C17_7 C 0.7706(8) 0.8864(6) 0.6514(6)
H13_7 H 0.7726 0.8961 0.6314
C18_7 C 0.7728(8) 0.9053(3) 0.6784(8)
H14_7 H 0.7763 0.9275 0.6765
C19_7 C 0.7697(9) 0.8908(6) 0.7083(6)
H15_7 H 0.7712 0.9035 0.7264
C20_7 C 0.7645(8) 0.8576(6) 0.7112(6)
H16_7 H 0.7624 0.8480 0.7312
N5_7 N 0.7001(3) 0.7681(4) 0.6873(4)
C21_7 C 0.6821(5) 0.7860(4) 0.6881(5)
H17_7 H 0.6939 0.8097 0.6916
C22_7 C 0.6466(5) 0.7685(5) 0.6836(5)
H18_7 H 0.6345 0.7804 0.6841
C23_7 C 0.6290(3) 0.7330(5) 0.6783(5)
H19_7 H 0.6052 0.7213 0.6753
C24_7 C 0.6470(5) 0.7151(4) 0.6775(5)
H20_7 H 0.6352 0.6914 0.6740
C25_7 C 0.6825(5) 0.7327(4) 0.6820(5)
N6_7 N 0.7357(5) 0.7377(4) 0.6850(5)
C26_7 C 0.7003(5) 0.7153(5) 0.6824(5)
C27_7 C 0.6875(4) 0.6800(5) 0.6791(6)
H21_7 H 0.6639 0.6650 0.6773
C28_7 C 0.7101(7) 0.6671(4) 0.6785(6)
H22_7 H 0.7015 0.6435 0.6764
C29_7 C 0.7454(6) 0.6895(6) 0.6812(6)
H23_7 H 0.7606 0.6809 0.6808
C30_7 C 0.7582(4) 0.7248(6) 0.6845(6)
H24_7 H 0.7819 0.7398 0.6862
C6_8 C 0.1880(6) 0.0045(8) 0.7240(4)
C7_8 C 0.1803(7) 0.0302(9) 0.7314(5)
H5_8 H 0.1758 0.0333 0.7523
C8_8 C 0.1792(8) 0.0511(9) 0.7076(7)
H6_8 H 0.1741 0.0684 0.7126
C9_8 C 0.1859(9) 0.0464(11) 0.6764(6)
H7_8 H 0.1852 0.0604 0.6604
C10_8 C 0.1937(8) 0.0208(11) 0.6689(4)
H8_8 H 0.1982 0.0177 0.6480
C27_8 C 0.3200(5) 0.0076(6) 0.6791(6)
C28_8 C 0.3329(4) 0.0431(8) 0.6785(6)
H22_8 H 0.3565 0.0581 0.6764
C29_8 C 0.3105(6) 0.0560(8) 0.6812(6)
H23_8 H 0.3191 0.0798 0.6808
C30_8 C 0.2752(6) 0.0335(7) 0.6845(6)
H24_8 H 0.2602 0.0422 0.6862
Ru1_8 Ru 0.20978(9) 0.96316(11) 0.68629(6)
N1_8 N 0.2075(7) 0.9645(9) 0.73363(9)
C1_8 C 0.2129(7) 0.9431(9) 0.7540(4)
H1_8 H 0.2219 0.9299 0.7461
C2_8 C 0.2049(7) 0.9417(9) 0.7860(3)
H2_8 H 0.2085 0.9274 0.7996
C3_8 C 0.1916(7) 0.9618(9) 0.7977(2)
H3_8 H 0.1863 0.9609 0.8192
C4_8 C 0.1862(6) 0.9831(8) 0.7774(4)
H4_8 H 0.1773 0.9965 0.7853
C5_8 C 0.1942(6) 0.9845(8) 0.7454(4)
N2_8 N 0.1947(5) 0.9998(7) 0.6927(5)
N3_8 N 0.1986(7) 0.9541(11) 0.6372(6)
C11_8 C 0.2223(6) 0.9725(12) 0.6135(9)
H9_8 H 0.2441 0.9906 0.6187
C12_8 C 0.2134(9) 0.9639(13) 0.5818(8)
H10_8 H 0.2293 0.9762 0.5659
C13_8 C 0.1808(10) 0.9369(14) 0.5739(5)
H11_8 H 0.1749 0.9312 0.5528
C14_8 C 0.1571(7) 0.9185(11) 0.5977(6)
H12_8 H 0.1353 0.9005 0.5924
C15_8 C 0.1660(6) 0.9272(8) 0.6293(5)
N4_8 N 0.1612(3) 0.9236(8) 0.6842(7)
C16_8 C 0.1468(6) 0.9122(10) 0.6543(6)
C17_8 C 0.1136(6) 0.8843(10) 0.6514(6)
H13_8 H 0.1039 0.8766 0.6314
C18_8 C 0.0947(3) 0.8676(9) 0.6784(8)
H14_8 H 0.0725 0.8489 0.6765
C19_8 C 0.1092(6) 0.8790(11) 0.7083(6)
H15_8 H 0.0965 0.8678 0.7264
C20_8 C 0.1424(6) 0.9070(10) 0.7112(6)
H16_8 H 0.1520 0.9145 0.7312
N5_8 N 0.2319(4) 0.9321(5) 0.6873(4)
C21_8 C 0.2140(4) 0.8962(6) 0.6881(5)
H17_8 H 0.1903 0.8843 0.6916
C22_8 C 0.2315(5) 0.8782(7) 0.6836(5)
H18_8 H 0.2196 0.8542 0.6841
C23_8 C 0.2670(5) 0.8961(6) 0.6783(5)
H19_8 H 0.2787 0.8840 0.6753
C24_8 C 0.2849(4) 0.9320(6) 0.6775(5)
H20_8 H 0.3086 0.9439 0.6740
C25_8 C 0.2673(4) 0.9499(6) 0.6820(5)
N6_8 N 0.2623(4) 0.9981(6) 0.6850(5)
C26_8 C 0.2847(5) 0.9851(7) 0.6824(5)
H21_8 H 0.3350 0.9990 0.6773
Ru1_9 Ru 0.03684(11) 0.24663(7) 0.68629(6)
N1_9 N 0.0355(9) 0.2431(6) 0.73363(9)
C1_9 C 0.0569(9) 0.2699(5) 0.7540(4)
H1_9 H 0.0701 0.2921 0.7461
C2_9 C 0.0583(9) 0.2633(5) 0.7860(3)
H2_9 H 0.0726 0.2812 0.7996
C3_9 C 0.0382(9) 0.2299(6) 0.7977(2)
H3_9 H 0.0391 0.2255 0.8192
C4_9 C 0.0169(8) 0.2032(5) 0.7774(4)
H4_9 H 0.0035 0.1809 0.7853
C5_9 C 0.0155(8) 0.2098(5) 0.7454(4)
N2_9 N 0.0002(7) 0.1950(5) 0.6927(5)
N3_9 N 0.0459(11) 0.2446(9) 0.6372(6)
C11_9 C 0.0275(12) 0.2499(10) 0.6135(9)
H9_9 H 0.0094 0.2536 0.6187
C12_9 C 0.0361(13) 0.2496(9) 0.5818(8)
H10_9 H 0.0238 0.2532 0.5659
C13_9 C 0.0631(14) 0.2440(10) 0.5739(5)
H11_9 H 0.0688 0.2438 0.5528
C14_9 C 0.0815(11) 0.2387(9) 0.5977(6)
H12_9 H 0.0995 0.2349 0.5924
C15_9 C 0.0728(8) 0.2389(6) 0.6293(5)
N4_9 N 0.0764(8) 0.2377(7) 0.6842(7)
C16_9 C 0.0878(10) 0.2347(8) 0.6543(6)
C17_9 C 0.1157(10) 0.2294(8) 0.6514(6)
H13_9 H 0.1234 0.2274 0.6314
C18_9 C 0.1324(9) 0.2272(8) 0.6784(8)
H14_9 H 0.1511 0.2237 0.6765
C19_9 C 0.1210(11) 0.2303(9) 0.7083(6)
H15_9 H 0.1322 0.2288 0.7264
C20_9 C 0.0930(10) 0.2355(8) 0.7112(6)
H16_9 H 0.0855 0.2376 0.7312
N5_9 N 0.0679(5) 0.2999(3) 0.6873(4)
C21_9 C 0.1038(6) 0.3179(5) 0.6881(5)
H17_9 H 0.1157 0.3061 0.6916
C22_9 C 0.1218(7) 0.3534(5) 0.6836(5)
H18_9 H 0.1458 0.3655 0.6841
C23_9 C 0.1039(6) 0.3710(3) 0.6783(5)
H19_9 H 0.1160 0.3948 0.6753
C24_9 C 0.0680(6) 0.3530(5) 0.6775(5)
H20_9 H 0.0561 0.3648 0.6740
C25_9 C 0.0501(6) 0.3175(5) 0.6820(5)
N6_9 N 0.0019(6) 0.2643(5) 0.6850(5)
C26_9 C 0.0149(7) 0.2997(5) 0.6824(5)
H21_9 H 0.0010 0.3361 0.6773
C6_9 C 0.9955(8) 0.1836(6) 0.7240(4)
C7_9 C 0.9698(9) 0.1502(6) 0.7314(5)
H5_9 H 0.9667 0.1426 0.7523
C8_9 C 0.9489(9) 0.1282(5) 0.7076(7)
H6_9 H 0.9316 0.1058 0.7126
C9_9 C 0.9536(11) 0.1396(7) 0.6764(6)
H7_9 H 0.9396 0.1249 0.6604
C10_9 C 0.9792(11) 0.1730(7) 0.6689(4)
H8_9 H 0.9823 0.1806 0.6480
C27_9 C 0.9924(6) 0.3125(4) 0.6791(6)
C28_9 C 0.9569(8) 0.2899(7) 0.6785(6)
H22_9 H 0.9419 0.2985 0.6764
C29_9 C 0.9440(8) 0.2546(6) 0.6812(6)
H23_9 H 0.9202 0.2394 0.6808
C30_9 C 0.9665(7) 0.2418(4) 0.6845(6)
H24_9 H 0.9578 0.2181 0.6862
H21_10 H 0.6694 0.0017 0.9894
H22_10 H 0.6318 0.0232 0.9903
H7_10 H 0.4582 0.8519 0.0063
H8_10 H 0.5139 0.8649 0.0187
N3_10 N 0.5779(9) 0.8653(7) 0.0295(6)
C11_10 C 0.5832(10) 0.8890(6) 0.0532(9)
H9_10 H 0.5869 0.9108 0.0480
C12_10 C 0.5829(9) 0.8801(9) 0.0849(8)
H10_10 H 0.5865 0.8960 0.1008
C13_10 C 0.5773(10) 0.8475(10) 0.0928(5)
H11_10 H 0.5771 0.8416 0.1139
C14_10 C 0.5720(9) 0.8238(7) 0.0690(6)
H12_10 H 0.5682 0.8020 0.0743
C15_10 C 0.5722(6) 0.8327(6) 0.0374(5)
C16_10 C 0.5680(8) 0.8135(6) 0.0124(6)
C17_10 C 0.5627(8) 0.7803(6) 0.0153(6)
H13_10 H 0.5607 0.7706 0.0353
Ru1_10 Ru 0.57996(7) 0.87645(9) 0.98038(6)
N1_10 N 0.5764(6) 0.8742(7) 0.93304(9)
C1_10 C 0.6032(5) 0.8796(7) 0.9127(4)
H1_10 H 0.6254 0.8886 0.9206
C2_10 C 0.5966(5) 0.8716(7) 0.8807(3)
H2_10 H 0.6145 0.8752 0.8671
C3_10 C 0.5632(6) 0.8583(7) 0.8690(2)
H3_10 H 0.5588 0.8530 0.8475
C4_10 C 0.5365(5) 0.8529(6) 0.8893(4)
H4_10 H 0.5142 0.8440 0.8814
C5_10 C 0.5431(5) 0.8609(6) 0.9213(4)
N2_10 N 0.5283(5) 0.8614(5) 0.9740(5)
C6_10 C 0.5169(6) 0.8547(6) 0.9427(4)
C7_10 C 0.4835(6) 0.8470(7) 0.9353(5)
H5_10 H 0.4759 0.8425 0.9144
C8_10 C 0.4615(5) 0.8459(8) 0.9591(7)
H6_10 H 0.4391 0.8408 0.9541
C9_10 C 0.4729(7) 0.8526(9) 0.9903(6)
C10_10 C 0.5063(7) 0.8604(8) 0.9978(4)
N4_10 N 0.5710(7) 0.8279(3) 0.9825(7)
C18_10 C 0.5605(8) 0.7614(3) 0.9883(8)
H14_10 H 0.5570 0.7392 0.9902
C19_10 C 0.5636(9) 0.7759(6) 0.9584(6)
H15_10 H 0.5621 0.7632 0.9403
C20_10 C 0.5688(8) 0.8091(6) 0.9555(6)
H16_10 H 0.5709 0.8187 0.9355
N5_10 N 0.6332(3) 0.8986(4) 0.9794(4)
C21_10 C 0.6512(5) 0.8807(4) 0.9786(5)
H17_10 H 0.6394 0.8570 0.9751
C22_10 C 0.6867(5) 0.8982(5) 0.9831(5)
H18_10 H 0.6988 0.8863 0.9826
C23_10 C 0.7043(3) 0.9337(5) 0.9884(5)
H19_10 H 0.7281 0.9454 0.9914
C24_10 C 0.6863(5) 0.9516(4) 0.9892(5)
H20_10 H 0.6981 0.9753 0.9927
C25_10 C 0.6508(5) 0.9340(4) 0.9847(5)
N6_10 N 0.5976(5) 0.9290(4) 0.9817(5)
C26_10 C 0.6330(5) 0.9514(5) 0.9843(5)
C27_10 C 0.6458(4) 0.9867(5) 0.9876(6)
C28_10 C 0.6232(7) 0.9996(4) 0.9882(6)
C29_10 C 0.5879(6) 0.9772(6) 0.9855(6)
H23_10 H 0.5727 0.9858 0.9859
C30_10 C 0.5751(4) 0.9419(6) 0.9822(6)
H24_10 H 0.5514 0.9269 0.9805
H7_11 H 0.1481 0.6063 0.0063
H8_11 H 0.1351 0.6490 0.0187
N3_11 N 0.1347(7) 0.7126(11) 0.0295(6)
C11_11 C 0.1110(6) 0.6942(12) 0.0532(9)
H9_11 H 0.0892 0.6761 0.0480
C12_11 C 0.1199(9) 0.7028(13) 0.0849(8)
H10_11 H 0.1040 0.6905 0.1008
C13_11 C 0.1525(10) 0.7298(14) 0.0928(5)
H11_11 H 0.1584 0.7355 0.1139
C14_11 C 0.1762(7) 0.7482(11) 0.0690(6)
H12_11 H 0.1980 0.7662 0.0743
C15_11 C 0.1673(6) 0.7395(8) 0.0374(5)
C16_11 C 0.1865(6) 0.7545(10) 0.0124(6)
C17_11 C 0.2197(6) 0.7824(10) 0.0153(6)
H13_11 H 0.2294 0.7901 0.0353
Ru1_11 Ru 0.12355(9) 0.70351(11) 0.98038(6)
N1_11 N 0.1258(7) 0.7022(9) 0.93304(9)
C1_11 C 0.1204(7) 0.7236(9) 0.9127(4)
H1_11 H 0.1114 0.7368 0.9206
C2_11 C 0.1284(7) 0.7250(9) 0.8807(3)
H2_11 H 0.1248 0.7393 0.8671
C3_11 C 0.1417(7) 0.7049(9) 0.8690(2)
H3_11 H 0.1470 0.7058 0.8475
C4_11 C 0.1471(6) 0.6836(8) 0.8893(4)
H4_11 H 0.1560 0.6702 0.8814
C5_11 C 0.1391(6) 0.6822(8) 0.9213(4)
N2_11 N 0.1386(5) 0.6669(7) 0.9740(5)
C6_11 C 0.1453(6) 0.6622(8) 0.9427(4)
C7_11 C 0.1530(7) 0.6365(9) 0.9353(5)
H5_11 H 0.1575 0.6334 0.9144
C8_11 C 0.1541(8) 0.6156(9) 0.9591(7)
H6_11 H 0.1592 0.5983 0.9541
C9_11 C 0.1474(9) 0.6203(11) 0.9903(6)
C10_11 C 0.1396(8) 0.6459(11) 0.9978(4)
N4_11 N 0.1721(3) 0.7431(8) 0.9825(7)
C18_11 C 0.2386(3) 0.7991(9) 0.9883(8)
H14_11 H 0.2608 0.8178 0.9902
C19_11 C 0.2241(6) 0.7877(11) 0.9584(6)
H15_11 H 0.2368 0.7989 0.9403
C20_11 C 0.1909(6) 0.7597(10) 0.9555(6)
H16_11 H 0.1813 0.7522 0.9355
N5_11 N 0.1014(4) 0.7346(5) 0.9794(4)
C21_11 C 0.1193(4) 0.7705(6) 0.9786(5)
H17_11 H 0.1430 0.7824 0.9751
C22_11 C 0.1018(5) 0.7885(7) 0.9831(5)
H18_11 H 0.1137 0.8125 0.9826
C23_11 C 0.0663(5) 0.7706(6) 0.9884(5)
H19_11 H 0.0546 0.7827 0.9914
C24_11 C 0.0484(4) 0.7347(6) 0.9892(5)
H20_11 H 0.0247 0.7228 0.9927
C25_11 C 0.0660(4) 0.7168(6) 0.9847(5)
N6_11 N 0.0710(4) 0.6686(6) 0.9817(5)
C26_11 C 0.0486(5) 0.6816(7) 0.9843(5)
C27_11 C 0.0133(5) 0.6591(6) 0.9876(6)
C28_11 C 0.0004(4) 0.6236(8) 0.9882(6)
C29_11 C 0.0228(6) 0.6107(8) 0.9855(6)
H23_11 H 0.0142 0.5869 0.9859
C30_11 C 0.0581(6) 0.6332(7) 0.9822(6)
H24_11 H 0.0731 0.6245 0.9805
H21_11 H 0.9983 0.6677 0.9894
H22_11 H 0.9768 0.6086 0.9903
H7_12 H 0.3937 0.5418 0.0063
H8_12 H 0.3510 0.4861 0.0187
N3_12 N 0.2874(11) 0.4221(9) 0.0295(6)
C11_12 C 0.3058(12) 0.4168(10) 0.0532(9)
H9_12 H 0.3239 0.4131 0.0480
C12_12 C 0.2972(13) 0.4171(9) 0.0849(8)
H10_12 H 0.3095 0.4135 0.1008
C13_12 C 0.2702(14) 0.4227(10) 0.0928(5)
H11_12 H 0.2645 0.4229 0.1139
C14_12 C 0.2518(11) 0.4280(9) 0.0690(6)
H12_12 H 0.2338 0.4318 0.0743
C15_12 C 0.2605(8) 0.4278(6) 0.0374(5)
C16_12 C 0.2455(10) 0.4320(8) 0.0124(6)
C17_12 C 0.2176(10) 0.4373(8) 0.0153(6)
H13_12 H 0.2099 0.4393 0.0353
Ru1_12 Ru 0.29649(11) 0.42004(7) 0.98038(6)
N1_12 N 0.2978(9) 0.4236(6) 0.93304(9)
C1_12 C 0.2764(9) 0.3968(5) 0.9127(4)
H1_12 H 0.2632 0.3746 0.9206
C2_12 C 0.2750(9) 0.4034(5) 0.8807(3)
H2_12 H 0.2607 0.3855 0.8671
C3_12 C 0.2951(9) 0.4368(6) 0.8690(2)
H3_12 H 0.2942 0.4412 0.8475
C4_12 C 0.3164(8) 0.4635(5) 0.8893(4)
H4_12 H 0.3298 0.4858 0.8814
C5_12 C 0.3178(8) 0.4569(5) 0.9213(4)
N2_12 N 0.3331(7) 0.4717(5) 0.9740(5)
C6_12 C 0.3378(8) 0.4831(6) 0.9427(4)
C7_12 C 0.3635(9) 0.5165(6) 0.9353(5)
H5_12 H 0.3666 0.5241 0.9144
C8_12 C 0.3844(9) 0.5385(5) 0.9591(7)
H6_12 H 0.4017 0.5609 0.9541
C9_12 C 0.3797(11) 0.5271(7) 0.9903(6)
C10_12 C 0.3541(11) 0.4937(7) 0.9978(4)
N4_12 N 0.2569(8) 0.4290(7) 0.9825(7)
C18_12 C 0.2009(9) 0.4395(8) 0.9883(8)
H14_12 H 0.1822 0.4430 0.9902
C19_12 C 0.2123(11) 0.4364(9) 0.9584(6)
H15_12 H 0.2011 0.4379 0.9403
C20_12 C 0.2403(10) 0.4312(8) 0.9555(6)
H16_12 H 0.2478 0.4291 0.9355
N5_12 N 0.2654(5) 0.3668(3) 0.9794(4)
C21_12 C 0.2295(6) 0.3488(5) 0.9786(5)
H17_12 H 0.2176 0.3606 0.9751
C22_12 C 0.2115(7) 0.3133(5) 0.9831(5)
H18_12 H 0.1875 0.3012 0.9826
C23_12 C 0.2294(6) 0.2957(3) 0.9884(5)
H19_12 H 0.2173 0.2719 0.9914
C24_12 C 0.2653(6) 0.3137(5) 0.9892(5)
H20_12 H 0.2772 0.3019 0.9927
C25_12 C 0.2832(6) 0.3492(5) 0.9847(5)
N6_12 N 0.3314(6) 0.4024(5) 0.9817(5)
C26_12 C 0.3184(7) 0.3670(5) 0.9843(5)
C27_12 C 0.3409(6) 0.3542(4) 0.9876(6)
H21_12 H 0.3323 0.3306 0.9894
C28_12 C 0.3764(8) 0.3768(7) 0.9882(6)
H22_12 H 0.3914 0.3682 0.9903
C29_12 C 0.3893(8) 0.4121(6) 0.9855(6)
H23_12 H 0.4131 0.4273 0.9859
C30_12 C 0.3668(7) 0.4249(4) 0.9822(6)
H24_12 H 0.3755 0.4486 0.9805
C22_13 C 0.0200(5) 0.5649(5) 0.6498(5)
H18_13 H 0.0321 0.5530 0.6493
C23_13 C 0.0376(3) 0.6004(5) 0.6551(5)
H19_13 H 0.0614 0.6121 0.6581
C24_13 C 0.0196(5) 0.6183(4) 0.6559(5)
H20_13 H 0.0314 0.6420 0.6594
H21_13 H 0.0027 0.6684 0.6561
Ru1_13 Ru 0.91329(7) 0.54312(9) 0.64705(6)
N1_13 N 0.9097(6) 0.5409(7) 0.59971(9)
C1_13 C 0.9365(5) 0.5463(7) 0.5794(4)
H1_13 H 0.9587 0.5553 0.5873
C2_13 C 0.9299(5) 0.5383(7) 0.5474(3)
H2_13 H 0.9478 0.5419 0.5338
C3_13 C 0.8965(6) 0.5250(7) 0.5357(2)
H3_13 H 0.8921 0.5197 0.5142
C4_13 C 0.8698(5) 0.5196(6) 0.5560(4)
H4_13 H 0.8475 0.5107 0.5481
C5_13 C 0.8764(5) 0.5276(6) 0.5880(4)
N2_13 N 0.8616(5) 0.5281(5) 0.6407(5)
C6_13 C 0.8502(6) 0.5214(6) 0.6094(4)
C7_13 C 0.8168(6) 0.5137(7) 0.6020(5)
H5_13 H 0.8092 0.5092 0.5811
C8_13 C 0.7948(5) 0.5126(8) 0.6258(7)
H6_13 H 0.7724 0.5075 0.6208
C9_13 C 0.8062(7) 0.5193(9) 0.6570(6)
H7_13 H 0.7915 0.5186 0.6730
C10_13 C 0.8396(7) 0.5271(8) 0.6645(4)
H8_13 H 0.8472 0.5316 0.6854
N3_13 N 0.9112(9) 0.5320(7) 0.6962(6)
C11_13 C 0.9165(10) 0.5557(6) 0.7199(9)
H9_13 H 0.9202 0.5775 0.7147
C12_13 C 0.9162(9) 0.5468(9) 0.7516(8)
H10_13 H 0.9198 0.5627 0.7675
C13_13 C 0.9106(10) 0.5142(10) 0.7595(5)
H11_13 H 0.9104 0.5083 0.7806
C14_13 C 0.9053(9) 0.4905(7) 0.7357(6)
H12_13 H 0.9015 0.4687 0.7410
C15_13 C 0.9055(6) 0.4994(6) 0.7041(5)
N4_13 N 0.9043(7) 0.4946(3) 0.6492(7)
C16_13 C 0.9013(8) 0.4802(6) 0.6791(6)
C17_13 C 0.8960(8) 0.4470(6) 0.6820(6)
H13_13 H 0.8940 0.4373 0.7020
C18_13 C 0.8938(8) 0.4281(3) 0.6550(8)
H14_13 H 0.8903 0.4059 0.6569
C19_13 C 0.8969(9) 0.4426(6) 0.6251(6)
H15_13 H 0.8954 0.4299 0.6070
C20_13 C 0.9021(8) 0.4758(6) 0.6222(6)
H16_13 H 0.9042 0.4854 0.6022
N5_13 N 0.9665(3) 0.5653(4) 0.6461(4)
C21_13 C 0.9845(5) 0.5474(4) 0.6453(5)
H17_13 H 0.9727 0.5237 0.6418
C25_13 C 0.9841(5) 0.6007(4) 0.6514(5)
N6_13 N 0.9309(5) 0.5957(4) 0.6484(5)
C26_13 C 0.9663(5) 0.6181(5) 0.6510(5)
C27_13 C 0.9791(4) 0.6534(5) 0.6543(6)
C28_13 C 0.9565(7) 0.6663(4) 0.6549(6)
H22_13 H 0.9651 0.6899 0.6570
C29_13 C 0.9212(6) 0.6439(6) 0.6522(6)
H23_13 H 0.9060 0.6525 0.6526
C30_13 C 0.9084(4) 0.6086(6) 0.6489(6)
H24_13 H 0.8847 0.5936 0.6472
Ru1_14 Ru 0.45688(9) 0.37018(11) 0.64705(6)
N1_14 N 0.4591(7) 0.3689(9) 0.59971(9)
C1_14 C 0.4537(7) 0.3903(9) 0.5794(4)
H1_14 H 0.4447 0.4035 0.5873
C2_14 C 0.4617(7) 0.3917(9) 0.5474(3)
H2_14 H 0.4581 0.4060 0.5338
C3_14 C 0.4750(7) 0.3716(9) 0.5357(2)
H3_14 H 0.4803 0.3725 0.5142
C4_14 C 0.4804(6) 0.3503(8) 0.5560(4)
H4_14 H 0.4893 0.3369 0.5481
C5_14 C 0.4724(6) 0.3489(8) 0.5880(4)
N2_14 N 0.4719(5) 0.3336(7) 0.6407(5)
C6_14 C 0.4786(6) 0.3289(8) 0.6094(4)
C7_14 C 0.4863(7) 0.3032(9) 0.6020(5)
H5_14 H 0.4908 0.3001 0.5811
C8_14 C 0.4874(8) 0.2823(9) 0.6258(7)
H6_14 H 0.4925 0.2650 0.6208
C9_14 C 0.4807(9) 0.2870(11) 0.6570(6)
H7_14 H 0.4814 0.2730 0.6730
C10_14 C 0.4729(8) 0.3126(11) 0.6645(4)
H8_14 H 0.4684 0.3157 0.6854
N3_14 N 0.4680(7) 0.3793(11) 0.6962(6)
C11_14 C 0.4443(6) 0.3609(12) 0.7199(9)
H9_14 H 0.4225 0.3428 0.7147
C12_14 C 0.4532(9) 0.3695(13) 0.7516(8)
H10_14 H 0.4373 0.3572 0.7675
C13_14 C 0.4858(10) 0.3965(14) 0.7595(5)
H11_14 H 0.4917 0.4022 0.7806
C14_14 C 0.5095(7) 0.4149(11) 0.7357(6)
H12_14 H 0.5313 0.4329 0.7410
C15_14 C 0.5006(6) 0.4062(8) 0.7041(5)
N4_14 N 0.5054(3) 0.4098(8) 0.6492(7)
C16_14 C 0.5198(6) 0.4212(10) 0.6791(6)
C17_14 C 0.5530(6) 0.4491(10) 0.6820(6)
H13_14 H 0.5627 0.4568 0.7020
C18_14 C 0.5719(3) 0.4658(9) 0.6550(8)
H14_14 H 0.5941 0.4845 0.6569
C19_14 C 0.5574(6) 0.4544(11) 0.6251(6)
H15_14 H 0.5701 0.4656 0.6070
C20_14 C 0.5242(6) 0.4264(10) 0.6222(6)
H16_14 H 0.5146 0.4189 0.6022
N5_14 N 0.4347(4) 0.4013(5) 0.6461(4)
C21_14 C 0.4526(4) 0.4372(6) 0.6453(5)
H17_14 H 0.4763 0.4491 0.6418
C22_14 C 0.4351(5) 0.4552(7) 0.6498(5)
H18_14 H 0.4470 0.4792 0.6493
C23_14 C 0.3996(5) 0.4373(6) 0.6551(5)
H19_14 H 0.3879 0.4494 0.6581
C24_14 C 0.3817(4) 0.4014(6) 0.6559(5)
H20_14 H 0.3580 0.3895 0.6594
C25_14 C 0.3993(4) 0.3835(6) 0.6514(5)
N6_14 N 0.4043(4) 0.3353(6) 0.6484(5)
C26_14 C 0.3819(5) 0.3483(7) 0.6510(5)
C27_14 C 0.3466(5) 0.3258(6) 0.6543(6)
H21_14 H 0.3316 0.3344 0.6561
C28_14 C 0.3337(4) 0.2903(8) 0.6549(6)
H22_14 H 0.3101 0.2753 0.6570
C29_14 C 0.3561(6) 0.2774(8) 0.6522(6)
H23_14 H 0.3475 0.2536 0.6526
C30_14 C 0.3914(6) 0.2999(7) 0.6489(6)
H24_14 H 0.4064 0.2912 0.6472
Ru1_15 Ru 0.62982(11) 0.08671(7) 0.64705(6)
N1_15 N 0.6311(9) 0.0903(6) 0.59971(9)
C1_15 C 0.6097(9) 0.0635(5) 0.5794(4)
H1_15 H 0.5965 0.0413 0.5873
C2_15 C 0.6083(9) 0.0701(5) 0.5474(3)
H2_15 H 0.5940 0.0522 0.5338
C3_15 C 0.6284(9) 0.1035(6) 0.5357(2)
H3_15 H 0.6275 0.1079 0.5142
C4_15 C 0.6497(8) 0.1302(5) 0.5560(4)
H4_15 H 0.6631 0.1525 0.5481
C5_15 C 0.6511(8) 0.1236(5) 0.5880(4)
N2_15 N 0.6664(7) 0.1384(5) 0.6407(5)
C6_15 C 0.6711(8) 0.1498(6) 0.6094(4)
C7_15 C 0.6968(9) 0.1832(6) 0.6020(5)
H5_15 H 0.6999 0.1908 0.5811
C8_15 C 0.7177(9) 0.2052(5) 0.6258(7)
H6_15 H 0.7350 0.2276 0.6208
C9_15 C 0.7130(11) 0.1938(7) 0.6570(6)
H7_15 H 0.7270 0.2085 0.6730
C10_15 C 0.6874(11) 0.1604(7) 0.6645(4)
H8_15 H 0.6843 0.1528 0.6854
N3_15 N 0.6207(11) 0.0888(9) 0.6962(6)
C11_15 C 0.6391(12) 0.0835(10) 0.7199(9)
H9_15 H 0.6572 0.0798 0.7147
C12_15 C 0.6305(13) 0.0838(9) 0.7516(8)
H10_15 H 0.6428 0.0802 0.7675
C13_15 C 0.6035(14) 0.0894(10) 0.7595(5)
H11_15 H 0.5978 0.0896 0.7806
C14_15 C 0.5851(11) 0.0947(9) 0.7357(6)
H12_15 H 0.5671 0.0985 0.7410
C15_15 C 0.5938(8) 0.0945(6) 0.7041(5)
N4_15 N 0.5902(8) 0.0957(7) 0.6492(7)
C16_15 C 0.5788(10) 0.0987(8) 0.6791(6)
C17_15 C 0.5509(10) 0.1040(8) 0.6820(6)
H13_15 H 0.5432 0.1060 0.7020
C18_15 C 0.5342(9) 0.1062(8) 0.6550(8)
H14_15 H 0.5155 0.1097 0.6569
C19_15 C 0.5456(11) 0.1031(9) 0.6251(6)
H15_15 H 0.5344 0.1046 0.6070
C20_15 C 0.5736(10) 0.0979(8) 0.6222(6)
H16_15 H 0.5811 0.0958 0.6022
N5_15 N 0.5987(5) 0.0335(3) 0.6461(4)
C21_15 C 0.5628(6) 0.0155(5) 0.6453(5)
H17_15 H 0.5509 0.0273 0.6418
C25_15 C 0.6165(6) 0.0159(5) 0.6514(5)
N6_15 N 0.6647(6) 0.0691(5) 0.6484(5)
C26_15 C 0.6517(7) 0.0337(5) 0.6510(5)
C27_15 C 0.6742(6) 0.0209(4) 0.6543(6)
C28_15 C 0.7097(8) 0.0435(7) 0.6549(6)
H22_15 H 0.7247 0.0349 0.6570
C29_15 C 0.7226(8) 0.0788(6) 0.6522(6)
H23_15 H 0.7464 0.0940 0.6526
C30_15 C 0.7001(7) 0.0916(4) 0.6489(6)
H24_15 H 0.7088 0.1153 0.6472
C22_15 C 0.5448(7) 0.9800(5) 0.6498(5)
H18_15 H 0.5208 0.9679 0.6493
C23_15 C 0.5627(6) 0.9624(3) 0.6551(5)
H19_15 H 0.5506 0.9386 0.6581
C24_15 C 0.5986(6) 0.9804(5) 0.6559(5)
H20_15 H 0.6105 0.9686 0.6594
H21_15 H 0.6656 0.9973 0.6561
Ru1_16 Ru 0.24663(7) 0.20978(9) 0.31371(6)
N1_16 N 0.2431(6) 0.2075(7) 0.26637(9)
C1_16 C 0.2699(5) 0.2129(7) 0.2460(4)
H1_16 H 0.2921 0.2219 0.2539
C2_16 C 0.2633(5) 0.2049(7) 0.2140(3)
H2_16 H 0.2812 0.2085 0.2004
C3_16 C 0.2299(6) 0.1916(7) 0.2023(2)
H3_16 H 0.2255 0.1863 0.1808
C4_16 C 0.2032(5) 0.1862(6) 0.2226(4)
H4_16 H 0.1809 0.1773 0.2147
C5_16 C 0.2098(5) 0.1942(6) 0.2546(4)
N2_16 N 0.1950(5) 0.1947(5) 0.3073(5)
C6_16 C 0.1836(6) 0.1880(6) 0.2760(4)
C7_16 C 0.1502(6) 0.1803(7) 0.2686(5)
H5_16 H 0.1426 0.1758 0.2477
C8_16 C 0.1282(5) 0.1792(8) 0.2924(7)
H6_16 H 0.1058 0.1741 0.2874
C9_16 C 0.1396(7) 0.1859(9) 0.3236(6)
H7_16 H 0.1249 0.1852 0.3396
C10_16 C 0.1730(7) 0.1937(8) 0.3311(4)
H8_16 H 0.1806 0.1982 0.3520
N3_16 N 0.2446(9) 0.1986(7) 0.3628(6)
C11_16 C 0.2499(10) 0.2223(6) 0.3865(9)
H9_16 H 0.2536 0.2441 0.3813
C12_16 C 0.2496(9) 0.2134(9) 0.4182(8)
H10_16 H 0.2532 0.2293 0.4341
C13_16 C 0.2440(10) 0.1808(10) 0.4261(5)
H11_16 H 0.2438 0.1749 0.4472
C14_16 C 0.2387(9) 0.1571(7) 0.4023(6)
H12_16 H 0.2349 0.1353 0.4076
C15_16 C 0.2389(6) 0.1660(6) 0.3707(5)
N4_16 N 0.2377(7) 0.1612(3) 0.3158(7)
C16_16 C 0.2347(8) 0.1468(6) 0.3457(6)
C17_16 C 0.2294(8) 0.1136(6) 0.3486(6)
H13_16 H 0.2274 0.1039 0.3686
C18_16 C 0.2272(8) 0.0947(3) 0.3216(8)
H14_16 H 0.2237 0.0725 0.3235
C19_16 C 0.2303(9) 0.1092(6) 0.2917(6)
H15_16 H 0.2288 0.0965 0.2736
C20_16 C 0.2355(8) 0.1424(6) 0.2888(6)
H16_16 H 0.2376 0.1520 0.2688
N5_16 N 0.2999(3) 0.2319(4) 0.3127(4)
C21_16 C 0.3179(5) 0.2140(4) 0.3119(5)
H17_16 H 0.3061 0.1903 0.3084
C22_16 C 0.3534(5) 0.2315(5) 0.3164(5)
H18_16 H 0.3655 0.2196 0.3159
C23_16 C 0.3710(3) 0.2670(5) 0.3217(5)
H19_16 H 0.3948 0.2787 0.3247
C24_16 C 0.3530(5) 0.2849(4) 0.3225(5)
H20_16 H 0.3648 0.3086 0.3260
C25_16 C 0.3175(5) 0.2673(4) 0.3180(5)
N6_16 N 0.2643(5) 0.2623(4) 0.3150(5)
C26_16 C 0.2997(5) 0.2847(5) 0.3176(5)
C27_16 C 0.3125(4) 0.3200(5) 0.3209(6)
H21_16 H 0.3361 0.3350 0.3227
C28_16 C 0.2899(7) 0.3329(4) 0.3215(6)
H22_16 H 0.2985 0.3565 0.3236
C29_16 C 0.2546(6) 0.3105(6) 0.3188(6)
H23_16 H 0.2394 0.3191 0.3192
C30_16 C 0.2418(4) 0.2752(6) 0.3155(6)
H24_16 H 0.2181 0.2602 0.3138
Ru1_17 Ru 0.79022(9) 0.03684(11) 0.31371(6)
N1_17 N 0.7925(7) 0.0355(9) 0.26637(9)
C1_17 C 0.7871(7) 0.0569(9) 0.2460(4)
H1_17 H 0.7781 0.0701 0.2539
C2_17 C 0.7951(7) 0.0583(9) 0.2140(3)
H2_17 H 0.7915 0.0726 0.2004
C3_17 C 0.8084(7) 0.0382(9) 0.2023(2)
H3_17 H 0.8137 0.0391 0.1808
C4_17 C 0.8138(6) 0.0169(8) 0.2226(4)
H4_17 H 0.8227 0.0035 0.2147
C5_17 C 0.8058(6) 0.0155(8) 0.2546(4)
N2_17 N 0.8053(5) 0.0002(7) 0.3073(5)
N3_17 N 0.8014(7) 0.0459(11) 0.3628(6)
C11_17 C 0.7777(6) 0.0275(12) 0.3865(9)
H9_17 H 0.7559 0.0094 0.3813
C12_17 C 0.7866(9) 0.0361(13) 0.4182(8)
H10_17 H 0.7707 0.0238 0.4341
C13_17 C 0.8192(10) 0.0631(14) 0.4261(5)
H11_17 H 0.8251 0.0688 0.4472
C14_17 C 0.8429(7) 0.0815(11) 0.4023(6)
H12_17 H 0.8647 0.0995 0.4076
C15_17 C 0.8340(6) 0.0728(8) 0.3707(5)
N4_17 N 0.8388(3) 0.0764(8) 0.3158(7)
C16_17 C 0.8532(6) 0.0878(10) 0.3457(6)
C17_17 C 0.8864(6) 0.1157(10) 0.3486(6)
H13_17 H 0.8961 0.1234 0.3686
C18_17 C 0.9053(3) 0.1324(9) 0.3216(8)
H14_17 H 0.9275 0.1511 0.3235
C19_17 C 0.8908(6) 0.1210(11) 0.2917(6)
H15_17 H 0.9035 0.1322 0.2736
C20_17 C 0.8576(6) 0.0930(10) 0.2888(6)
H16_17 H 0.8480 0.0855 0.2688
N5_17 N 0.7681(4) 0.0679(5) 0.3127(4)
C21_17 C 0.7860(4) 0.1038(6) 0.3119(5)
H17_17 H 0.8097 0.1157 0.3084
C22_17 C 0.7685(5) 0.1218(7) 0.3164(5)
H18_17 H 0.7804 0.1458 0.3159
C23_17 C 0.7330(5) 0.1039(6) 0.3217(5)
H19_17 H 0.7213 0.1160 0.3247
C24_17 C 0.7151(4) 0.0680(6) 0.3225(5)
H20_17 H 0.6914 0.0561 0.3260
C25_17 C 0.7327(4) 0.0501(6) 0.3180(5)
N6_17 N 0.7377(4) 0.0019(6) 0.3150(5)
C26_17 C 0.7153(5) 0.0149(7) 0.3176(5)
H21_17 H 0.6650 0.0010 0.3227
C6_17 C 0.8120(6) 0.9955(8) 0.2760(4)
C7_17 C 0.8197(7) 0.9698(9) 0.2686(5)
H5_17 H 0.8242 0.9667 0.2477
C8_17 C 0.8208(8) 0.9489(9) 0.2924(7)
H6_17 H 0.8259 0.9316 0.2874
C9_17 C 0.8141(9) 0.9536(11) 0.3236(6)
H7_17 H 0.8148 0.9396 0.3396
C10_17 C 0.8063(8) 0.9792(11) 0.3311(4)
H8_17 H 0.8018 0.9823 0.3520
C27_17 C 0.6800(5) 0.9924(6) 0.3209(6)
C28_17 C 0.6671(4) 0.9569(8) 0.3215(6)
H22_17 H 0.6435 0.9419 0.3236
C29_17 C 0.6895(6) 0.9440(8) 0.3188(6)
H23_17 H 0.6809 0.9202 0.3192
C30_17 C 0.7248(6) 0.9665(7) 0.3155(6)
H24_17 H 0.7398 0.9578 0.3138
C6_18 C 0.0045(8) 0.8164(6) 0.2760(4)
C7_18 C 0.0302(9) 0.8498(6) 0.2686(5)
H5_18 H 0.0333 0.8574 0.2477
C8_18 C 0.0511(9) 0.8718(5) 0.2924(7)
H6_18 H 0.0684 0.8942 0.2874
C9_18 C 0.0464(11) 0.8604(7) 0.3236(6)
H7_18 H 0.0604 0.8751 0.3396
C10_18 C 0.0208(11) 0.8270(7) 0.3311(4)
H8_18 H 0.0177 0.8194 0.3520
C27_18 C 0.0076(6) 0.6875(4) 0.3209(6)
C28_18 C 0.0431(8) 0.7101(7) 0.3215(6)
H22_18 H 0.0581 0.7015 0.3236
C29_18 C 0.0560(8) 0.7454(6) 0.3188(6)
H23_18 H 0.0798 0.7606 0.3192
C30_18 C 0.0335(7) 0.7582(4) 0.3155(6)
H24_18 H 0.0422 0.7819 0.3138
Ru1_18 Ru 0.96316(11) 0.75337(7) 0.31371(6)
N1_18 N 0.9645(9) 0.7569(6) 0.26637(9)
C1_18 C 0.9431(9) 0.7301(5) 0.2460(4)
H1_18 H 0.9299 0.7079 0.2539
C2_18 C 0.9417(9) 0.7367(5) 0.2140(3)
H2_18 H 0.9274 0.7188 0.2004
C3_18 C 0.9618(9) 0.7701(6) 0.2023(2)
H3_18 H 0.9609 0.7745 0.1808
C4_18 C 0.9831(8) 0.7968(5) 0.2226(4)
H4_18 H 0.9965 0.8191 0.2147
C5_18 C 0.9845(8) 0.7902(5) 0.2546(4)
N2_18 N 0.9998(7) 0.8050(5) 0.3073(5)
N3_18 N 0.9541(11) 0.7554(9) 0.3628(6)
C11_18 C 0.9725(12) 0.7501(10) 0.3865(9)
H9_18 H 0.9906 0.7464 0.3813
C12_18 C 0.9639(13) 0.7504(9) 0.4182(8)
H10_18 H 0.9762 0.7468 0.4341
C13_18 C 0.9369(14) 0.7560(10) 0.4261(5)
H11_18 H 0.9312 0.7562 0.4472
C14_18 C 0.9185(11) 0.7613(9) 0.4023(6)
H12_18 H 0.9005 0.7651 0.4076
C15_18 C 0.9272(8) 0.7611(6) 0.3707(5)
N4_18 N 0.9236(8) 0.7623(7) 0.3158(7)
C16_18 C 0.9122(10) 0.7653(8) 0.3457(6)
C17_18 C 0.8843(10) 0.7706(8) 0.3486(6)
H13_18 H 0.8766 0.7726 0.3686
C18_18 C 0.8676(9) 0.7728(8) 0.3216(8)
H14_18 H 0.8489 0.7763 0.3235
C19_18 C 0.8790(11) 0.7697(9) 0.2917(6)
H15_18 H 0.8678 0.7712 0.2736
C20_18 C 0.9070(10) 0.7645(8) 0.2888(6)
H16_18 H 0.9145 0.7624 0.2688
N5_18 N 0.9321(5) 0.7001(3) 0.3127(4)
C21_18 C 0.8962(6) 0.6821(5) 0.3119(5)
H17_18 H 0.8843 0.6939 0.3084
C22_18 C 0.8782(7) 0.6466(5) 0.3164(5)
H18_18 H 0.8542 0.6345 0.3159
C23_18 C 0.8961(6) 0.6290(3) 0.3217(5)
H19_18 H 0.8840 0.6052 0.3247
C24_18 C 0.9320(6) 0.6470(5) 0.3225(5)
H20_18 H 0.9439 0.6352 0.3260
C25_18 C 0.9499(6) 0.6825(5) 0.3180(5)
N6_18 N 0.9981(6) 0.7357(5) 0.3150(5)
C26_18 C 0.9851(7) 0.7003(5) 0.3176(5)
H21_18 H 0.9990 0.6639 0.3227
O31 O 0.04306(26) 0.28842(32) 0.04929(18)
O32 O 0.00847(25) 0.24052(30) 0.07251(17)
H92 H 0.0061 0.3612 0.0948
C189 C 0.0191(4) 0.2711(5) 0.0687(2)
C190 C 0.0027(3) 0.2881(4) 0.0870(2)
C191 C 0.0143(3) 0.3231(4) 0.0826(2)
H113 H 0.0325 0.3362 0.0688
O47 O 0.0952(6) 0.6827(4) 0.3825(3)
O48 O 0.1116(5) 0.7366(4) 0.3829(3)
C231 C 0.0272(4) 0.6692(3) 0.4028(2)
H136 H 0.0261 0.6518 0.3898
C232 C 0.0583(4) 0.7001(3) 0.4060(3)
C233 C 0.0600(4) 0.7261(3) 0.4254(3)
H137 H 0.0807 0.7467 0.4276
C234 C 0.0308(4) 0.7212(2) 0.4415(2)
H138 H 0.0320 0.7386 0.4544
H140 H 0.0027 0.7375 0.5349
H142 H 0.0015 0.7690 0.5850
C242 C 0.0910(6) 0.7067(4) 0.3896(3)
In9 In 0.04628(3) 0.23916(2) 0.03825(2)
In12 In 0.14752(3) 0.71952(2) 0.35914(2)
In1 In 0.42751(2) 0.14046(2) 0.37158(2)
In2 In 0.61381(2) 0.09466(2) 0.02581(2)
O1 O 0.4421(2) 0.11497(18) 0.33221(17)
O2 O 0.40843(19) 0.1328(2) 0.32186(15)
O3 O 0.5932(2) 0.1057(3) 0.0742(2)
O4 O 0.5591(2) 0.0767(3) 0.0354(3)
O5 O 0.3919(2) 0.1629(2) 0.37179(19)
O6 O 0.4159(2) 0.1634(2) 0.4165(2)
O9 O 0.48180(17) 0.16634(17) 0.38744(17)
O10 O 0.46796(19) 0.19446(17) 0.35436(19)
O11 O 0.2698(2) 0.1982(3) 0.64963(19)
O12 O 0.2329(2) 0.2158(3) 0.6448(2)
O13 O 0.6090(3) 0.1379(2) 0.0027(2)
O14 O 0.6542(3) 0.1505(2) 0.0305(2)
O15 O 0.3173(4) 0.4125(4) 0.3825(3)
O16 O 0.2634(4) 0.3750(3) 0.3829(3)
C31 C 0.4234(3) 0.1179(3) 0.3118(3)
C32 C 0.4226(3) 0.1071(3) 0.2789(2)
C33 C 0.4431(3) 0.0948(3) 0.2689(2)
H25 H 0.4584 0.0940 0.2833
C34 C 0.4425(3) 0.0834(3) 0.2379(2)
H26 H 0.4570 0.0752 0.2317
C35 C 0.4194(2) 0.0848(3) 0.2166(2)
C36 C 0.3980(3) 0.0973(3) 0.2263(2)
H27 H 0.3827 0.0988 0.2123
C37 C 0.4005(3) 0.1083(3) 0.2599(3)
H28 H 0.3861 0.1160 0.2673
C38 C 0.4165(2) 0.0729(3) 0.1828(2)
C39 C 0.4468(3) 0.0785(3) 0.1661(2)
H29 H 0.4682 0.0894 0.1761
C40 C 0.4438(3) 0.0675(3) 0.1350(2)
C41 C 0.4123(3) 0.0514(3) 0.1211(2)
H30 H 0.4105 0.0436 0.1003
C42 C 0.3825(3) 0.0458(3) 0.1367(2)
C43 C 0.3842(3) 0.0557(3) 0.1669(2)
H31 H 0.3641 0.0513 0.1775
C44 C 0.3493(2) 0.0282(2) 0.1204(2)
C45 C 0.3395(3) 0.0016(2) 0.0986(2)
C46 C 0.3249(3) 0.0382(3) 0.1260(3)
H33 H 0.3289 0.0544 0.1417
C47 C 0.47671(17) 0.0739(2) 0.11712(17)
C48 C 0.47275(17) 0.0589(2) 0.08739(18)
H34 H 0.4508 0.0457 0.0787
C49 C 0.5016(2) 0.0637(2) 0.07059(15)
H35 H 0.4989 0.0537 0.0507
C50 C 0.53436(18) 0.0835(2) 0.08352(19)
C51 C 0.53832(16) 0.0985(2) 0.11324(19)
H36 H 0.5603 0.1117 0.1219
C52 C 0.5095(2) 0.0937(2) 0.13005(15)
H37 H 0.5122 0.1037 0.1499
C53 C 0.5644(3) 0.0891(3) 0.0642(3)
C54 C 0.3960(3) 0.1709(3) 0.4003(3)
C55 C 0.3807(2) 0.1886(2) 0.4156(2)
C56 C 0.3824(3) 0.1950(2) 0.4480(2)
H38 H 0.3949 0.1883 0.4609
C57 C 0.3664(3) 0.2109(3) 0.4613(2)
H39 H 0.3686 0.2153 0.4830
C58 C 0.3470(3) 0.2207(3) 0.4434(3)
C59 C 0.3456(3) 0.2152(3) 0.4120(2)
H40 H 0.3341 0.2230 0.3990
C60 C 0.3617(3) 0.1974(3) 0.3985(3)
H41 H 0.3587 0.1919 0.3770
C61 C 0.30122(19) 0.24718(18) 0.50316(12)
C62 C 0.29919(19) 0.27317(18) 0.48695(15)
H42 H 0.2891 0.2847 0.4966
C63 C 0.31216(19) 0.28194(16) 0.45630(15)
C64 C 0.32717(19) 0.26470(18) 0.44186(12)
H43 H 0.3359 0.2706 0.4213
C65 C 0.32920(18) 0.23871(18) 0.45807(14)
C66 C 0.31623(19) 0.22994(16) 0.48872(14)
H44 H 0.3176 0.2126 0.4996
C67 C 0.3097(3) 0.3094(2) 0.4382(2)
C68 C 0.3356(2) 0.3337(3) 0.4188(2)
H45 H 0.3563 0.3336 0.4166
C69 C 0.3308(3) 0.3580(2) 0.4028(2)
H46 H 0.3482 0.3743 0.3898
C70 C 0.2999(3) 0.3582(3) 0.4060(3)
C71 C 0.2739(3) 0.3339(3) 0.4254(3)
H47 H 0.2533 0.3340 0.4276
C72 C 0.2788(2) 0.3096(3) 0.4415(2)
H48 H 0.2614 0.2934 0.4544
C73 C 0.2875(3) 0.2365(3) 0.5371(3)
C74 C 0.3026(3) 0.2249(3) 0.5580(3)
H49 H 0.3213 0.2229 0.5512
C75 C 0.2666(6) 0.2498(7) 0.5462(7)
H50 H 0.2625 0.2652 0.5349
C76 C 0.4900(3) 0.1918(3) 0.3722(3)
C77 C 0.5527(3) 0.2183(3) 0.3877(3)
H51 H 0.5473 0.1969 0.3961
C78 C 0.5274(2) 0.2227(3) 0.3723(2)
C79 C 0.5375(3) 0.2535(3) 0.3567(3)
H52 H 0.5216 0.2562 0.3446
C80 C 0.5711(3) 0.2803(2) 0.3591(3)
H53 H 0.5773 0.3012 0.3493
C81 C 0.5957(2) 0.2767(2) 0.3757(2)
C82 C 0.5865(2) 0.2467(3) 0.3903(3)
H54 H 0.6027 0.2446 0.4023
C83 C 0.2553(3) 0.2102(4) 0.6329(2)
C84 C 0.2669(4) 0.2206(6) 0.5998(2)
C85 C 0.2919(4) 0.2167(6) 0.5866(3)
H55 H 0.3024 0.2075 0.5991
C86 C 0.2515(4) 0.2337(6) 0.5788(4)
H56 H 0.2310 0.2325 0.5850
C87 C 0.6351(4) 0.1595(3) 0.0160(3)
C90 C 0.6560(3) 0.2629(2) 0.0110(3)
C91 C 0.6763(3) 0.2549(3) 0.0301(3)
H59 H 0.6941 0.2721 0.0421
C92 C 0.6701(3) 0.2212(3) 0.0313(2)
H60 H 0.6837 0.2159 0.0441
C93 C 0.6436(3) 0.1956(2) 0.0134(3)
C94 C 0.6624(3) 0.2988(2) 0.0095(4)
C95 C 0.6944(3) 0.3285(3) 0.0128(4)
H61 H 0.7131 0.3257 0.0177
C96 C 0.65881(19) 0.29935(19) 0.3766(2)
H62 H 0.6542 0.2766 0.3769
C97 C 0.2933(4) 0.3843(5) 0.3896(3)
C98 C 0.6338(2) 0.3061(2) 0.3763(2)
C102 C 0.2921(3) 0.0231(4) 0.1072(3)
H64 H 0.2768 0.0313 0.1094
O17 O 0.83366(17) 0.31546(24) 0.38744(17)
O18 O 0.80554(17) 0.27350(25) 0.35436(19)
C103 C 0.8082(3) 0.2982(4) 0.3722(3)
C104 C 0.7817(3) 0.3344(4) 0.3877(3)
H65 H 0.8031 0.3504 0.3961
C105 C 0.7773(3) 0.3047(4) 0.3723(2)
C106 C 0.7465(3) 0.2840(4) 0.3567(3)
H66 H 0.7438 0.2654 0.3446
C107 C 0.7197(2) 0.2908(4) 0.3591(3)
H67 H 0.6988 0.2761 0.3493
C108 C 0.7233(2) 0.3190(3) 0.3757(2)
C109 C 0.7533(3) 0.3398(4) 0.3903(3)
H68 H 0.7554 0.3581 0.4023
C110 C 0.70065(19) 0.35946(27) 0.3766(2)
H69 H 0.7234 0.3776 0.3769
C111 C 0.6939(2) 0.3277(3) 0.3763(2)
O19 O 0.68454(24) 0.51820(17) 0.38744(17)
O20 O 0.72650(25) 0.53204(19) 0.35436(19)
C112 C 0.7018(4) 0.5100(3) 0.3722(3)
C113 C 0.6656(4) 0.4473(3) 0.3877(3)
H70 H 0.6496 0.4527 0.3961
C114 C 0.6953(4) 0.4726(2) 0.3723(2)
C115 C 0.7160(4) 0.4625(3) 0.3567(3)
H71 H 0.7346 0.4784 0.3446
C116 C 0.7092(4) 0.4289(3) 0.3591(3)
H72 H 0.7239 0.4227 0.3493
C117 C 0.6810(3) 0.4043(2) 0.3757(2)
C118 C 0.6602(4) 0.4135(2) 0.3903(3)
H73 H 0.6419 0.3973 0.4023
C119 C 0.64054(27) 0.34119(19) 0.3766(2)
H74 H 0.6224 0.3458 0.3769
C120 C 0.6723(3) 0.3662(2) 0.3763(2)
O21 O 0.8621(2) 0.4711(4) 0.0027(2)
O22 O 0.8495(2) 0.5037(4) 0.0305(2)
C121 C 0.8405(3) 0.4756(5) 0.0160(3)
C124 C 0.7371(2) 0.3931(4) 0.0110(3)
C125 C 0.7451(3) 0.4214(4) 0.0301(3)
H77 H 0.7279 0.4220 0.0421
C126 C 0.7788(3) 0.4489(4) 0.0313(2)
H78 H 0.7841 0.4678 0.0441
C127 C 0.8044(2) 0.4480(4) 0.0134(3)
C128 C 0.7012(2) 0.3636(4) 0.0095(4)
C129 C 0.6715(3) 0.3659(4) 0.0128(4)
H79 H 0.6743 0.3874 0.0177
O23 O 0.5289(4) 0.3910(3) 0.0027(2)
O24 O 0.4963(4) 0.3458(3) 0.0305(2)
C130 C 0.5244(5) 0.3649(4) 0.0160(3)
C133 C 0.6069(4) 0.3440(3) 0.0110(3)
C134 C 0.5786(4) 0.3237(3) 0.0301(3)
H82 H 0.5780 0.3059 0.0421
C135 C 0.5511(4) 0.3299(3) 0.0313(2)
H83 H 0.5322 0.3163 0.0441
C136 C 0.5520(4) 0.3564(3) 0.0134(3)
C137 C 0.6364(4) 0.3376(3) 0.0095(4)
C138 C 0.6341(4) 0.3056(3) 0.0128(4)
H84 H 0.6126 0.2869 0.0177
In3 In 0.85954(2) 0.28705(3) 0.37158(2)
In4 In 0.90534(2) 0.51915(3) 0.02581(2)
O25 O 0.88503(18) 0.32713(27) 0.33221(17)
O26 O 0.8672(2) 0.27563(28) 0.32186(15)
O27 O 0.8943(3) 0.4875(4) 0.0742(2)
O28 O 0.9233(3) 0.4824(4) 0.0354(3)
O29 O 0.8371(2) 0.2290(3) 0.37179(19)
O30 O 0.8366(2) 0.2525(3) 0.4165(2)
O33 O 0.8018(3) 0.0716(4) 0.64963(19)
O34 O 0.7842(3) 0.0171(4) 0.6448(2)
C139 C 0.8821(3) 0.3055(4) 0.3118(3)
C140 C 0.8929(3) 0.3155(4) 0.2789(2)
C141 C 0.9052(3) 0.3483(4) 0.2689(2)
H85 H 0.9060 0.3644 0.2833
C142 C 0.9166(3) 0.3591(4) 0.2379(2)
H86 H 0.9248 0.3818 0.2317
C143 C 0.9152(3) 0.3346(4) 0.2166(2)
C144 C 0.9027(3) 0.3007(4) 0.2263(2)
H87 H 0.9012 0.2839 0.2123
C145 C 0.8917(3) 0.2922(4) 0.2599(3)
H88 H 0.8840 0.2701 0.2673
C146 C 0.9271(3) 0.3436(4) 0.1828(2)
C147 C 0.9215(3) 0.3683(4) 0.1661(2)
H89 H 0.9106 0.3788 0.1761
C148 C 0.9325(3) 0.3763(4) 0.1350(2)
C149 C 0.9486(3) 0.3609(4) 0.1211(2)
H90 H 0.9564 0.3669 0.1003
C150 C 0.9542(3) 0.3367(4) 0.1367(2)
C151 C 0.9443(3) 0.3285(4) 0.1669(2)
H91 H 0.9487 0.3128 0.1775
C152 C 0.9718(2) 0.3211(3) 0.1204(2)
C153 C 0.9984(2) 0.3379(4) 0.0986(2)
C154 C 0.9618(3) 0.2867(4) 0.1260(3)
H93 H 0.9456 0.2745 0.1417
C155 C 0.9261(2) 0.40281(26) 0.11712(17)
C156 C 0.9411(2) 0.41385(26) 0.08739(18)
H94 H 0.9543 0.4051 0.0787
C157 C 0.9363(2) 0.4379(3) 0.07059(15)
H95 H 0.9463 0.4452 0.0507
C158 C 0.9165(2) 0.45086(27) 0.08352(19)
C159 C 0.9015(2) 0.43982(26) 0.11324(19)
H96 H 0.8883 0.4486 0.1219
C160 C 0.9063(2) 0.4158(3) 0.13005(15)
H97 H 0.8963 0.4085 0.1499
C161 C 0.9109(3) 0.4753(4) 0.0642(3)
C162 C 0.8291(3) 0.2251(4) 0.4003(3)
C163 C 0.8114(2) 0.1921(3) 0.4156(2)
C164 C 0.8050(2) 0.1874(4) 0.4480(2)
H98 H 0.8117 0.2066 0.4609
C165 C 0.7891(3) 0.1555(4) 0.4613(2)
H99 H 0.7847 0.1533 0.4830
C166 C 0.7793(3) 0.1263(4) 0.4434(3)
C167 C 0.7848(3) 0.1304(4) 0.4120(2)
H100 H 0.7770 0.1111 0.3990
C168 C 0.8026(3) 0.1643(4) 0.3985(3)
H101 H 0.8081 0.1668 0.3770
C169 C 0.75282(18) 0.05404(26) 0.50316(12)
C170 C 0.72683(18) 0.02602(26) 0.48695(15)
H102 H 0.7153 0.0044 0.4966
C171 C 0.71806(16) 0.03022(25) 0.45630(15)
C172 C 0.73530(18) 0.06247(26) 0.44186(12)
H103 H 0.7294 0.0653 0.4213
C173 C 0.76129(18) 0.09049(25) 0.45807(14)
C174 C 0.77006(16) 0.08629(25) 0.48872(14)
H104 H 0.7874 0.1050 0.4996
C175 C 0.6906(2) 0.0003(4) 0.4382(2)
C176 C 0.6663(3) 0.0019(4) 0.4188(2)
H105 H 0.6664 0.0227 0.4166
C181 C 0.7635(3) 0.0510(4) 0.5371(3)
C182 C 0.7751(3) 0.0777(4) 0.5580(3)
H109 H 0.7771 0.0984 0.5512
C183 C 0.7502(7) 0.0168(9) 0.5462(7)
C184 C 0.7898(4) 0.0451(5) 0.6329(2)
C185 C 0.7794(6) 0.0463(7) 0.5998(2)
C186 C 0.7833(6) 0.0752(7) 0.5866(3)
H111 H 0.7925 0.0949 0.5991
C187 C 0.7663(6) 0.0178(7) 0.5788(4)
C192 C 0.9769(4) 0.2690(5) 0.1072(3)
H114 H 0.9687 0.2455 0.1094
In5 In 0.71295(3) 0.57249(2) 0.37158(2)
In6 In 0.48085(3) 0.38619(2) 0.02581(2)
O37 O 0.67287(27) 0.5579(2) 0.33221(17)
O38 O 0.72437(28) 0.59157(19) 0.32186(15)
O39 O 0.5125(4) 0.4068(2) 0.0742(2)
O40 O 0.5176(4) 0.4409(2) 0.0354(3)
O41 O 0.7710(3) 0.6081(2) 0.37179(19)
O42 O 0.7475(3) 0.5841(2) 0.4165(2)
O43 O 0.71158(32) 0.75464(19) 0.04929(18)
O44 O 0.75948(30) 0.76795(16) 0.07251(17)
O45 O 0.9284(4) 0.7302(2) 0.64963(19)
O46 O 0.9829(4) 0.7671(2) 0.6448(2)
C193 C 0.6945(4) 0.5766(3) 0.3118(3)
C194 C 0.6845(4) 0.5774(3) 0.2789(2)
C195 C 0.6517(4) 0.5569(3) 0.2689(2)
H115 H 0.6356 0.5416 0.2833
C196 C 0.6409(4) 0.5575(3) 0.2379(2)
H116 H 0.6182 0.5430 0.2317
C197 C 0.6654(4) 0.5806(2) 0.2166(2)
C198 C 0.6993(4) 0.6020(3) 0.2263(2)
H117 H 0.7161 0.6173 0.2123
C199 C 0.7078(4) 0.5995(3) 0.2599(3)
H118 H 0.7299 0.6139 0.2673
C200 C 0.6564(4) 0.5835(2) 0.1828(2)
C201 C 0.6317(4) 0.5532(3) 0.1661(2)
H119 H 0.6212 0.5318 0.1761
C202 C 0.6237(4) 0.5562(3) 0.1350(2)
C203 C 0.6391(4) 0.5877(3) 0.1211(2)
H120 H 0.6331 0.5895 0.1003
C204 C 0.6633(4) 0.6175(3) 0.1367(2)
C205 C 0.6715(4) 0.6158(3) 0.1669(2)
H121 H 0.6872 0.6359 0.1775
C206 C 0.6789(3) 0.6507(2) 0.1204(2)
C207 C 0.6621(4) 0.6605(3) 0.0986(2)
H122 H 0.6388 0.6449 0.0948
C208 C 0.7133(4) 0.6751(3) 0.1260(3)
H123 H 0.7255 0.6711 0.1417
C209 C 0.59719(26) 0.52329(17) 0.11712(17)
C210 C 0.58615(26) 0.52725(17) 0.08739(18)
H124 H 0.5949 0.5492 0.0787
C211 C 0.5621(3) 0.4984(2) 0.07059(15)
H125 H 0.5548 0.5011 0.0507
C212 C 0.54914(27) 0.46564(18) 0.08352(19)
C213 C 0.56018(26) 0.46168(16) 0.11324(19)
H126 H 0.5514 0.4397 0.1219
C214 C 0.5842(3) 0.4905(2) 0.13005(15)
H127 H 0.5915 0.4878 0.1499
C215 C 0.5247(4) 0.4356(3) 0.0642(3)
C216 C 0.7749(4) 0.6040(3) 0.4003(3)
C217 C 0.8079(3) 0.6193(2) 0.4156(2)
C218 C 0.8126(4) 0.6176(3) 0.4480(2)
H128 H 0.7934 0.6051 0.4609
C219 C 0.8445(4) 0.6336(3) 0.4613(2)
H129 H 0.8467 0.6314 0.4830
C220 C 0.8737(4) 0.6530(3) 0.4434(3)
C221 C 0.8696(4) 0.6544(3) 0.4120(2)
H130 H 0.8889 0.6659 0.3990
C222 C 0.8357(4) 0.6383(3) 0.3985(3)
H131 H 0.8332 0.6413 0.3770
C223 C 0.94596(26) 0.69878(19) 0.50316(12)
C224 C 0.97398(26) 0.70081(19) 0.48695(15)
H132 H 0.9956 0.7109 0.4966
C225 C 0.96978(25) 0.68784(19) 0.45630(15)
C226 C 0.93753(26) 0.67283(19) 0.44186(12)
H133 H 0.9347 0.6641 0.4213
C227 C 0.90951(25) 0.67080(18) 0.45807(14)
C228 C 0.91371(25) 0.68377(19) 0.48872(14)
H134 H 0.8950 0.6824 0.4996
C229 C 0.9997(4) 0.6903(3) 0.4382(2)
C230 C 0.9981(4) 0.6644(2) 0.4188(2)
H135 H 0.9773 0.6437 0.4166
C235 C 0.9490(4) 0.7125(3) 0.5371(3)
C236 C 0.9223(4) 0.6974(3) 0.5580(3)
H139 H 0.9016 0.6787 0.5512
C237 C 0.9832(9) 0.7334(6) 0.5462(7)
C238 C 0.9549(5) 0.7447(3) 0.6329(2)
C239 C 0.9537(7) 0.7331(4) 0.5998(2)
C240 C 0.9248(7) 0.7081(4) 0.5866(3)
H141 H 0.9051 0.6976 0.5991
C241 C 0.9822(7) 0.7485(4) 0.5788(4)
C243 C 0.7289(5) 0.7480(3) 0.0687(2)
C244 C 0.7119(4) 0.7146(2) 0.0870(2)
C245 C 0.6769(4) 0.6912(2) 0.0826(2)
H143 H 0.6638 0.6963 0.0688
C246 C 0.7310(5) 0.7079(3) 0.1072(3)
H144 H 0.7545 0.7232 0.1094
In7 In 0.76084(2) 0.80713(2) 0.03825(2)
In10 In 0.28048(2) 0.42799(2) 0.35914(2)
In13 In 0.94714(2) 0.76133(2) 0.69248(2)
In14 In 0.23867(2) 0.18582(3) 0.69248(2)
In15 In 0.81418(3) 0.05286(2) 0.69248(2)
O49 O 0.91203(19) 0.29027(26) 0.38262(18)
O50 O 0.70973(26) 0.62175(32) 0.38262(18)
O51 O 0.37825(32) 0.08797(19) 0.38262(18)
O52 O 0.89872(16) 0.32486(25) 0.40584(17)
O53 O 0.67514(25) 0.57385(30) 0.40584(17)
O54 O 0.42615(30) 0.10128(16) 0.40584(17)
O61 O 0.6506(4) 0.0792(4) 0.0492(3)
O62 O 0.9208(4) 0.5715(6) 0.0492(3)
O63 O 0.4285(6) 0.3494(4) 0.0492(3)
O64 O 0.5967(4) 0.0417(3) 0.0496(3)
O65 O 0.9583(3) 0.5551(5) 0.0496(3)
O66 O 0.4449(5) 0.4033(4) 0.0496(3)
C88 C 0.6232(2) 0.2036(3) 0.9943(2)
H57 H 0.6055 0.1864 0.9823
C89 C 0.6294(3) 0.2373(3) 0.9931(3)
H58 H 0.6158 0.2427 0.9803
C122 C 0.7964(3) 0.4196(4) 0.9943(2)
H75 H 0.8136 0.4191 0.9823
C123 C 0.7627(3) 0.3921(4) 0.9931(3)
H76 H 0.7573 0.3731 0.9803
C131 C 0.5804(4) 0.3768(2) 0.9943(2)
H80 H 0.5809 0.3945 0.9823
C132 C 0.6079(4) 0.3706(3) 0.9931(3)
H81 H 0.6269 0.3842 0.9803
O55 O 0.9365(2) 0.5315(3) 0.98296(19)
O56 O 0.4685(3) 0.4049(4) 0.98296(19)
O57 O 0.5951(4) 0.0635(2) 0.98296(19)
O58 O 0.8996(2) 0.5491(3) 0.9781(2)
O59 O 0.4509(3) 0.3504(4) 0.9781(2)
O60 O 0.6496(4) 0.1004(2) 0.9781(2)
O7 O 0.24536(19) 0.95694(26) 0.04929(18)
O8 O 0.23205(16) 0.99153(25) 0.07251(17)
H32 H 0.3551 0.9939 0.0948
C99 C 0.2520(3) 0.9809(4) 0.0687(2)
C100 C 0.2854(2) 0.9973(3) 0.0870(2)
C101 C 0.3088(2) 0.9857(3) 0.0826(2)
H63 H 0.3037 0.9675 0.0688
O35 O 0.5875(4) 0.9048(6) 0.3825(3)
O36 O 0.6250(3) 0.8884(5) 0.3829(3)
C177 C 0.6420(2) 0.9728(4) 0.4028(2)
H106 H 0.6257 0.9739 0.3898
C178 C 0.6418(3) 0.9417(4) 0.4060(3)
C179 C 0.6661(3) 0.9400(4) 0.4254(3)
H107 H 0.6660 0.9193 0.4276
C180 C 0.6904(3) 0.9692(4) 0.4415(2)
H108 H 0.7066 0.9680 0.4544
H110 H 0.7348 0.9973 0.5349
H112 H 0.7675 0.9985 0.5850
C188 C 0.6157(5) 0.9090(6) 0.3896(3)
In8 In 0.19287(2) 0.95372(3) 0.03825(2)
In11 In 0.57201(2) 0.85248(3) 0.35914(2)
O47_2 O 0.7619(6) 0.0160(4) 0.7158(3)
O48_2 O 0.7783(5) 0.0699(4) 0.7162(3)
C208_2 C 0.3800(4) 0.0084(3) 0.4593(3)
H123_2 H 0.3922 0.0044 0.4750
C223_2 C 0.61263(26) 0.03211(19) 0.83649(12)
C224_2 C 0.64065(26) 0.03414(19) 0.82028(15)
H132_2 H 0.6623 0.0442 0.8299
C225_2 C 0.63645(25) 0.02117(19) 0.78963(15)
C226_2 C 0.60420(26) 0.00616(19) 0.77519(12)
C227_2 C 0.57618(25) 0.00413(18) 0.79140(14)
C228_2 C 0.58038(25) 0.01710(19) 0.82205(14)
H134_2 H 0.5617 0.0157 0.8329
C229_2 C 0.6664(4) 0.0236(3) 0.7715(2)
C231_2 C 0.6939(4) 0.0025(3) 0.7361(2)
C232_2 C 0.7250(4) 0.0334(3) 0.7393(3)
C233_2 C 0.7267(4) 0.0594(3) 0.7587(3)
H137_2 H 0.7474 0.0800 0.7609
C234_2 C 0.6975(4) 0.0545(2) 0.7748(2)
H138_2 H 0.6987 0.0719 0.7877
C235_2 C 0.6157(4) 0.0458(3) 0.8704(3)
C236_2 C 0.5890(4) 0.0307(3) 0.8913(3)
H139_2 H 0.5683 0.0120 0.8845
C237_2 C 0.6499(9) 0.0667(6) 0.8795(7)
H140_2 H 0.6694 0.0708 0.8682
C238_2 C 0.6216(5) 0.0780(3) 0.9662(2)
C239_2 C 0.6204(7) 0.0664(4) 0.9331(2)
C240_2 C 0.5915(7) 0.0414(4) 0.9199(3)
H141_2 H 0.5718 0.0309 0.9324
C241_2 C 0.6489(7) 0.0818(4) 0.9121(4)
H142_2 H 0.6682 0.1023 0.9183
C242_2 C 0.7577(6) 0.0400(4) 0.7229(3)
C243_2 C 0.3956(5) 0.0813(3) 0.4020(2)
C244_2 C 0.3786(4) 0.0479(2) 0.4203(2)
C245_2 C 0.3436(4) 0.0245(2) 0.4159(2)
H143_2 H 0.3305 0.0296 0.4021
C246_2 C 0.3977(5) 0.0412(3) 0.4405(3)
H144_2 H 0.4212 0.0565 0.4427
In1_2 In 0.09418(2) 0.47379(2) 0.70491(2)
O1_2 O 0.1088(2) 0.44830(18) 0.66554(17)
O2_2 O 0.07510(19) 0.4661(2) 0.65519(15)
O3_2 O 0.2599(2) 0.4390(3) 0.4075(2)
O4_2 O 0.2258(2) 0.4100(3) 0.3687(3)
O5_2 O 0.0586(2) 0.4962(2) 0.70512(19)
O6_2 O 0.0826(2) 0.4967(2) 0.7498(2)
O9_2 O 0.14847(17) 0.49967(17) 0.72077(17)
O10_2 O 0.13463(19) 0.52779(17) 0.68769(19)
O13_2 O 0.2757(3) 0.4712(2) 0.3360(2)
O14_2 O 0.3209(3) 0.4838(2) 0.3638(2)
C31_2 C 0.0901(3) 0.4512(3) 0.6451(3)
C32_2 C 0.0893(3) 0.4404(3) 0.6122(2)
C33_2 C 0.1098(3) 0.4281(3) 0.6022(2)
H25_2 H 0.1251 0.4273 0.6166
C34_2 C 0.1092(3) 0.4167(3) 0.5712(2)
H26_2 H 0.1237 0.4085 0.5650
C35_2 C 0.0861(2) 0.4181(3) 0.5499(2)
C36_2 C 0.0647(3) 0.4306(3) 0.5596(2)
H27_2 H 0.0494 0.4321 0.5456
C37_2 C 0.0672(3) 0.4416(3) 0.5932(3)
H28_2 H 0.0528 0.4493 0.6006
C38_2 C 0.0832(2) 0.4062(3) 0.5161(2)
C39_2 C 0.1135(3) 0.4118(3) 0.4994(2)
H29_2 H 0.1349 0.4227 0.5094
C40_2 C 0.1105(3) 0.4008(3) 0.4683(2)
C41_2 C 0.0790(3) 0.3847(3) 0.4544(2)
H30_2 H 0.0772 0.3769 0.4336
C42_2 C 0.0492(3) 0.3791(3) 0.4700(2)
C43_2 C 0.0509(3) 0.3890(3) 0.5002(2)
H31_2 H 0.0308 0.3846 0.5108
C44_2 C 0.0160(2) 0.3615(2) 0.4537(2)
C45_2 C 0.0062(3) 0.3349(2) 0.4319(2)
H32_2 H 0.0218 0.3272 0.4281
C47_2 C 0.14338(17) 0.4072(2) 0.45045(17)
C48_2 C 0.13942(17) 0.3922(2) 0.42072(18)
H34_2 H 0.1175 0.3790 0.4120
C49_2 C 0.1683(2) 0.3970(2) 0.40392(15)
H35_2 H 0.1656 0.3870 0.3840
C50_2 C 0.20103(18) 0.4168(2) 0.41685(19)
C51_2 C 0.20499(16) 0.4318(2) 0.44657(19)
H36_2 H 0.2270 0.4450 0.4552
C52_2 C 0.1762(2) 0.4270(2) 0.46338(15)
H37_2 H 0.1789 0.4370 0.4832
C53_2 C 0.2311(3) 0.4224(3) 0.3975(3)
C54_2 C 0.0627(3) 0.5042(3) 0.7336(3)
C55_2 C 0.0474(2) 0.5219(2) 0.7489(2)
C56_2 C 0.0491(3) 0.5283(2) 0.7813(2)
H38_2 H 0.0616 0.5216 0.7942
C57_2 C 0.0331(3) 0.5442(3) 0.7946(2)
H39_2 H 0.0353 0.5486 0.8163
C58_2 C 0.0137(3) 0.5540(3) 0.7767(3)
C59_2 C 0.0123(3) 0.5485(3) 0.7453(2)
H40_2 H 0.0008 0.5563 0.7323
C60_2 C 0.0284(3) 0.5307(3) 0.7318(3)
H41_2 H 0.0254 0.5252 0.7103
H43_2 H 0.0026 0.6039 0.7546
C68_2 C 0.0023(2) 0.6670(3) 0.7521(2)
H45_2 H 0.0230 0.6669 0.7499
H46_2 H 0.0149 0.7076 0.7231
C76_2 C 0.1567(3) 0.5251(3) 0.7055(3)
C77_2 C 0.2194(3) 0.5516(3) 0.7210(3)
H51_2 H 0.2140 0.5302 0.7294
C78_2 C 0.1941(2) 0.5560(3) 0.7056(2)
C79_2 C 0.2042(3) 0.5868(3) 0.6900(3)
H52_2 H 0.1883 0.5895 0.6779
C80_2 C 0.2378(3) 0.6136(2) 0.6924(3)
H53_2 H 0.2440 0.6345 0.6826
C81_2 C 0.2624(2) 0.6100(2) 0.7090(2)
C82_2 C 0.2532(2) 0.5800(3) 0.7236(3)
H54_2 H 0.2694 0.5779 0.7356
C87_2 C 0.3018(4) 0.4928(3) 0.3493(3)
C88_2 C 0.2899(2) 0.5369(3) 0.3276(2)
H57_2 H 0.2722 0.5197 0.3156
C89_2 C 0.2961(3) 0.5706(3) 0.3264(3)
H58_2 H 0.2825 0.5760 0.3136
C90_2 C 0.3227(3) 0.5962(2) 0.3443(3)
C91_2 C 0.3430(3) 0.5882(3) 0.3634(3)
H59_2 H 0.3608 0.6054 0.3754
C92_2 C 0.3368(3) 0.5545(3) 0.3646(2)
H60_2 H 0.3504 0.5492 0.3774
C93_2 C 0.3103(3) 0.5289(2) 0.3467(3)
C94_2 C 0.3291(3) 0.6321(2) 0.3428(4)
C95_2 C 0.3611(3) 0.6618(3) 0.3461(4)
H61_2 H 0.3798 0.6590 0.3510
C96_2 C 0.32548(19) 0.63268(19) 0.7099(2)
H62_2 H 0.3209 0.6099 0.7102
C98_2 C 0.3005(2) 0.6394(2) 0.7096(2)
O17_2 O 0.50033(17) 0.64879(24) 0.72077(17)
O18_2 O 0.47221(17) 0.60683(25) 0.68769(19)
C103_2 C 0.4749(3) 0.6315(4) 0.7055(3)
C104_2 C 0.4484(3) 0.6677(4) 0.7210(3)
H65_2 H 0.4698 0.6837 0.7294
C105_2 C 0.4440(3) 0.6380(4) 0.7056(2)
C106_2 C 0.4132(3) 0.6173(4) 0.6900(3)
H66_2 H 0.4105 0.5987 0.6779
C107_2 C 0.3864(2) 0.6241(4) 0.6924(3)
H67_2 H 0.3655 0.6094 0.6826
C108_2 C 0.3900(2) 0.6523(3) 0.7090(2)
C109_2 C 0.4200(3) 0.6731(4) 0.7236(3)
H68_2 H 0.4221 0.6914 0.7356
C110_2 C 0.36732(19) 0.69279(27) 0.7099(2)
H69_2 H 0.3901 0.7109 0.7102
C111_2 C 0.3606(2) 0.6610(3) 0.7096(2)
O19_2 O 0.35121(24) 0.85153(17) 0.72077(17)
O20_2 O 0.39317(25) 0.86537(19) 0.68769(19)
C112_2 C 0.3685(4) 0.8433(3) 0.7055(3)
C113_2 C 0.3323(4) 0.7806(3) 0.7210(3)
H70_2 H 0.3163 0.7860 0.7294
C114_2 C 0.3620(4) 0.8059(2) 0.7056(2)
C115_2 C 0.3827(4) 0.7958(3) 0.6900(3)
H71_2 H 0.4013 0.8117 0.6779
C116_2 C 0.3759(4) 0.7622(3) 0.6924(3)
H72_2 H 0.3906 0.7560 0.6826
C117_2 C 0.3477(3) 0.7376(2) 0.7090(2)
C118_2 C 0.3269(4) 0.7468(2) 0.7236(3)
H73_2 H 0.3086 0.7306 0.7356
C119_2 C 0.30721(27) 0.67452(19) 0.7099(2)
H74_2 H 0.2891 0.6791 0.7102
C120_2 C 0.3390(3) 0.6995(2) 0.7096(2)
O21_2 O 0.5288(2) 0.8044(4) 0.3360(2)
O22_2 O 0.5162(2) 0.8370(4) 0.3638(2)
C121_2 C 0.5072(3) 0.8089(5) 0.3493(3)
C122_2 C 0.4631(3) 0.7529(4) 0.3276(2)
H75_2 H 0.4803 0.7524 0.3156
C123_2 C 0.4294(3) 0.7254(4) 0.3264(3)
H76_2 H 0.4240 0.7064 0.3136
C124_2 C 0.4038(2) 0.7264(4) 0.3443(3)
C125_2 C 0.4118(3) 0.7547(4) 0.3634(3)
H77_2 H 0.3946 0.7553 0.3754
C126_2 C 0.4455(3) 0.7822(4) 0.3646(2)
H78_2 H 0.4508 0.8011 0.3774
C127_2 C 0.4711(2) 0.7813(4) 0.3467(3)
C128_2 C 0.3679(2) 0.6969(4) 0.3428(4)
C129_2 C 0.3382(3) 0.6992(4) 0.3461(4)
H79_2 H 0.3410 0.7207 0.3510
O23_2 O 0.1956(4) 0.7243(3) 0.3360(2)
O24_2 O 0.1630(4) 0.6791(3) 0.3638(2)
C130_2 C 0.1911(5) 0.6982(4) 0.3493(3)
C131_2 C 0.2471(4) 0.7101(2) 0.3276(2)
H80_2 H 0.2476 0.7278 0.3156
C132_2 C 0.2746(4) 0.7039(3) 0.3264(3)
H81_2 H 0.2936 0.7175 0.3136
C133_2 C 0.2736(4) 0.6773(3) 0.3443(3)
C134_2 C 0.2453(4) 0.6570(3) 0.3634(3)
H82_2 H 0.2447 0.6392 0.3754
C135_2 C 0.2178(4) 0.6632(3) 0.3646(2)
H83_2 H 0.1989 0.6496 0.3774
C136_2 C 0.2187(4) 0.6897(3) 0.3467(3)
C137_2 C 0.3031(4) 0.6709(3) 0.3428(4)
C138_2 C 0.3008(4) 0.6389(3) 0.3461(4)
H84_2 H 0.2793 0.6202 0.3510
In3_2 In 0.52621(2) 0.62038(3) 0.70491(2)
O25_2 O 0.55170(18) 0.66046(27) 0.66554(17)
O26_2 O 0.5339(2) 0.60896(28) 0.65519(15)
O27_2 O 0.5610(3) 0.8208(4) 0.4075(2)
O28_2 O 0.5900(3) 0.8157(4) 0.3687(3)
O29_2 O 0.5038(2) 0.5623(3) 0.70512(19)
O30_2 O 0.5033(2) 0.5858(3) 0.7498(2)
O35_2 O 0.2542(4) 0.2381(6) 0.7158(3)
O36_2 O 0.2917(3) 0.2217(5) 0.7162(3)
C139_2 C 0.5488(3) 0.6388(4) 0.6451(3)
C140_2 C 0.5596(3) 0.6488(4) 0.6122(2)
C141_2 C 0.5719(3) 0.6816(4) 0.6022(2)
H85_2 H 0.5727 0.6977 0.6166
C142_2 C 0.5833(3) 0.6924(4) 0.5712(2)
H86_2 H 0.5915 0.7151 0.5650
C143_2 C 0.5819(3) 0.6679(4) 0.5499(2)
C144_2 C 0.5694(3) 0.6340(4) 0.5596(2)
H87_2 H 0.5679 0.6172 0.5456
C145_2 C 0.5584(3) 0.6255(4) 0.5932(3)
H88_2 H 0.5507 0.6034 0.6006
C146_2 C 0.5938(3) 0.6769(4) 0.5161(2)
C147_2 C 0.5882(3) 0.7016(4) 0.4994(2)
H89_2 H 0.5773 0.7121 0.5094
C148_2 C 0.5992(3) 0.7096(4) 0.4683(2)
C149_2 C 0.6153(3) 0.6942(4) 0.4544(2)
H90_2 H 0.6231 0.7002 0.4336
C150_2 C 0.6209(3) 0.6700(4) 0.4700(2)
C151_2 C 0.6110(3) 0.6618(4) 0.5002(2)
H91_2 H 0.6154 0.6461 0.5108
C152_2 C 0.6385(2) 0.6544(3) 0.4537(2)
C153_2 C 0.6651(2) 0.6712(4) 0.4319(2)
H92_2 H 0.6728 0.6945 0.4281
C154_2 C 0.6285(3) 0.6200(4) 0.4593(3)
H93_2 H 0.6123 0.6078 0.4750
C155_2 C 0.5928(2) 0.73614(26) 0.45045(17)
C156_2 C 0.6078(2) 0.74718(26) 0.42072(18)
H94_2 H 0.6210 0.7384 0.4120
C157_2 C 0.6030(2) 0.7712(3) 0.40392(15)
H95_2 H 0.6130 0.7785 0.3840
C158_2 C 0.5832(2) 0.78419(27) 0.41685(19)
C159_2 C 0.5682(2) 0.77315(26) 0.44657(19)
H96_2 H 0.5550 0.7819 0.4552
C160_2 C 0.5730(2) 0.7491(3) 0.46338(15)
H97_2 H 0.5630 0.7418 0.4832
C161_2 C 0.5776(3) 0.8086(4) 0.3975(3)
C162_2 C 0.4958(3) 0.5584(4) 0.7336(3)
C163_2 C 0.4781(2) 0.5254(3) 0.7489(2)
C164_2 C 0.4717(2) 0.5207(4) 0.7813(2)
H98_2 H 0.4784 0.5399 0.7942
C165_2 C 0.4558(3) 0.4888(4) 0.7946(2)
H99_2 H 0.4514 0.4866 0.8163
C166_2 C 0.4460(3) 0.4596(4) 0.7767(3)
C167_2 C 0.4515(3) 0.4637(4) 0.7453(2)
H100_2 H 0.4437 0.4444 0.7323
C168_2 C 0.4693(3) 0.4976(4) 0.7318(3)
H101_2 H 0.4748 0.5001 0.7103
C169_2 C 0.41949(18) 0.38737(26) 0.83649(12)
C170_2 C 0.39350(18) 0.35935(26) 0.82028(15)
H102_2 H 0.3820 0.3377 0.8299
C171_2 C 0.38473(16) 0.36355(25) 0.78963(15)
C172_2 C 0.40197(18) 0.39580(26) 0.77519(12)
H103_2 H 0.3961 0.3986 0.7546
C173_2 C 0.42796(18) 0.42382(25) 0.79140(14)
C174_2 C 0.43673(16) 0.41962(25) 0.82205(14)
H104_2 H 0.4541 0.4383 0.8329
C175_2 C 0.3573(2) 0.3336(4) 0.7715(2)
C176_2 C 0.3330(3) 0.3352(4) 0.7521(2)
H105_2 H 0.3331 0.3560 0.7499
C177_2 C 0.3087(2) 0.3061(4) 0.7361(2)
H106_2 H 0.2924 0.3072 0.7231
C178_2 C 0.3085(3) 0.2750(4) 0.7393(3)
C179_2 C 0.3328(3) 0.2733(4) 0.7587(3)
H107_2 H 0.3327 0.2526 0.7609
C180_2 C 0.3571(3) 0.3025(4) 0.7748(2)
H108_2 H 0.3733 0.3013 0.7877
C181_2 C 0.4302(3) 0.3843(4) 0.8704(3)
C182_2 C 0.4418(3) 0.4110(4) 0.8913(3)
H109_2 H 0.4438 0.4317 0.8845
C183_2 C 0.4169(7) 0.3501(9) 0.8795(7)
H110_2 H 0.4015 0.3306 0.8682
C184_2 C 0.4565(4) 0.3784(5) 0.9662(2)
C185_2 C 0.4461(6) 0.3796(7) 0.9331(2)
C186_2 C 0.4500(6) 0.4085(7) 0.9199(3)
H111_2 H 0.4592 0.4282 0.9324
C187_2 C 0.4330(6) 0.3511(7) 0.9121(4)
H112_2 H 0.4342 0.3318 0.9183
C188_2 C 0.2824(5) 0.2423(6) 0.7229(3)
C189_2 C 0.6858(4) 0.6044(5) 0.4020(2)
C190_2 C 0.6694(3) 0.6214(4) 0.4203(2)
C191_2 C 0.6810(3) 0.6564(4) 0.4159(2)
H113_2 H 0.6992 0.6695 0.4021
C192_2 C 0.6436(4) 0.6023(5) 0.4405(3)
H114_2 H 0.6354 0.5788 0.4427
In5_2 In 0.37962(3) 0.90582(2) 0.70491(2)
O37_2 O 0.33954(27) 0.8912(2) 0.66554(17)
O38_2 O 0.39104(28) 0.92490(19) 0.65519(15)
O39_2 O 0.1792(4) 0.7401(2) 0.4075(2)
O40_2 O 0.1843(4) 0.7742(2) 0.3687(3)
O41_2 O 0.4377(3) 0.9414(2) 0.70512(19)
O42_2 O 0.4142(3) 0.9174(2) 0.7498(2)
C193_2 C 0.3612(4) 0.9099(3) 0.6451(3)
C194_2 C 0.3512(4) 0.9107(3) 0.6122(2)
C195_2 C 0.3184(4) 0.8902(3) 0.6022(2)
H115_2 H 0.3023 0.8749 0.6166
C196_2 C 0.3076(4) 0.8908(3) 0.5712(2)
H116_2 H 0.2849 0.8763 0.5650
C197_2 C 0.3321(4) 0.9139(2) 0.5499(2)
C198_2 C 0.3660(4) 0.9353(3) 0.5596(2)
H117_2 H 0.3828 0.9506 0.5456
C199_2 C 0.3745(4) 0.9328(3) 0.5932(3)
H118_2 H 0.3966 0.9472 0.6006
C200_2 C 0.3231(4) 0.9168(2) 0.5161(2)
C201_2 C 0.2984(4) 0.8865(3) 0.4994(2)
H119_2 H 0.2879 0.8651 0.5094
C202_2 C 0.2904(4) 0.8895(3) 0.4683(2)
C203_2 C 0.3058(4) 0.9210(3) 0.4544(2)
H120_2 H 0.2998 0.9228 0.4336
C204_2 C 0.3300(4) 0.9508(3) 0.4700(2)
C205_2 C 0.3382(4) 0.9491(3) 0.5002(2)
H121_2 H 0.3539 0.9692 0.5108
C206_2 C 0.3456(3) 0.9840(2) 0.4537(2)
C207_2 C 0.3288(4) 0.9938(3) 0.4319(2)
H122_2 H 0.3055 0.9782 0.4281
C209_2 C 0.26386(26) 0.85662(17) 0.45045(17)
C210_2 C 0.25282(26) 0.86058(17) 0.42072(18)
H124_2 H 0.2616 0.8825 0.4120
C211_2 C 0.2288(3) 0.8317(2) 0.40392(15)
H125_2 H 0.2215 0.8344 0.3840
C212_2 C 0.21581(27) 0.79897(18) 0.41685(19)
C213_2 C 0.22685(26) 0.79501(16) 0.44657(19)
H126_2 H 0.2181 0.7730 0.4552
C214_2 C 0.2509(3) 0.8238(2) 0.46338(15)
H127_2 H 0.2582 0.8211 0.4832
C215_2 C 0.1914(4) 0.7689(3) 0.3975(3)
C216_2 C 0.4416(4) 0.9373(3) 0.7336(3)
C217_2 C 0.4746(3) 0.9526(2) 0.7489(2)
C218_2 C 0.4793(4) 0.9509(3) 0.7813(2)
H128_2 H 0.4601 0.9384 0.7942
C219_2 C 0.5112(4) 0.9669(3) 0.7946(2)
H129_2 H 0.5134 0.9647 0.8163
C220_2 C 0.5404(4) 0.9863(3) 0.7767(3)
C221_2 C 0.5363(4) 0.9877(3) 0.7453(2)
H130_2 H 0.5556 0.9992 0.7323
C222_2 C 0.5024(4) 0.9716(3) 0.7318(3)
H131_2 H 0.4999 0.9746 0.7103
H133_2 H 0.6014 0.9974 0.7546
C230_2 C 0.6648(4) 0.9977(2) 0.7521(2)
H135_2 H 0.6440 0.9770 0.7499
H136_2 H 0.6928 0.9851 0.7231
O49_2 O 0.57869(19) 0.62361(26) 0.71596(18)
O50_2 O 0.37639(26) 0.95509(32) 0.71596(18)
O51_2 O 0.04491(32) 0.42131(19) 0.71596(18)
O52_2 O 0.56538(16) 0.65820(25) 0.73918(17)
O53_2 O 0.34180(25) 0.90719(30) 0.73918(17)
O54_2 O 0.09281(30) 0.43462(16) 0.73918(17)
O55_2 O 0.6031(2) 0.8649(3) 0.31630(19)
O56_2 O 0.1351(3) 0.7383(4) 0.31630(19)
O57_2 O 0.2617(4) 0.3969(2) 0.31630(19)
O58_2 O 0.5662(2) 0.8825(3) 0.3115(2)
O59_2 O 0.1175(3) 0.6838(4) 0.3115(2)
O60_2 O 0.3162(4) 0.4338(2) 0.3115(2)
O15_2 O 0.9840(4) 0.7458(4) 0.7158(3)
O16_2 O 0.9301(4) 0.7083(3) 0.7162(3)
C46_2 C 0.9916(3) 0.3715(3) 0.4593(3)
H33_2 H 0.9956 0.3877 0.4750
C61_2 C 0.96789(19) 0.58051(18) 0.83649(12)
C62_2 C 0.96586(19) 0.60650(18) 0.82028(15)
H42_2 H 0.9558 0.6180 0.8299
C63_2 C 0.97883(19) 0.61527(16) 0.78963(15)
C64_2 C 0.99384(19) 0.59803(18) 0.77519(12)
C65_2 C 0.99587(18) 0.57204(18) 0.79140(14)
C66_2 C 0.98290(19) 0.56327(16) 0.82205(14)
H44_2 H 0.9843 0.5459 0.8329
C67_2 C 0.9764(3) 0.6427(2) 0.7715(2)
C69_2 C 0.9975(3) 0.6913(2) 0.7361(2)
C70_2 C 0.9666(3) 0.6915(3) 0.7393(3)
C71_2 C 0.9406(3) 0.6672(3) 0.7587(3)
H47_2 H 0.9200 0.6673 0.7609
C72_2 C 0.9455(2) 0.6429(3) 0.7748(2)
H48_2 H 0.9281 0.6267 0.7877
C73_2 C 0.9542(3) 0.5698(3) 0.8704(3)
C74_2 C 0.9693(3) 0.5582(3) 0.8913(3)
H49_2 H 0.9880 0.5562 0.8845
C75_2 C 0.9333(6) 0.5831(7) 0.8795(7)
H50_2 H 0.9292 0.5985 0.8682
C83_2 C 0.9220(3) 0.5435(4) 0.9662(2)
C84_2 C 0.9336(4) 0.5539(6) 0.9331(2)
C85_2 C 0.9586(4) 0.5500(6) 0.9199(3)
H55_2 H 0.9691 0.5408 0.9324
C86_2 C 0.9182(4) 0.5670(6) 0.9121(4)
H56_2 H 0.8977 0.5658 0.9183
C97_2 C 0.9600(4) 0.7176(5) 0.7229(3)
C99_2 C 0.9187(3) 0.3142(4) 0.4020(2)
C100_2 C 0.9521(2) 0.3306(3) 0.4203(2)
C101_2 C 0.9755(2) 0.3190(3) 0.4159(2)
H63_2 H 0.9704 0.3008 0.4021
C102_2 C 0.9588(3) 0.3564(4) 0.4405(3)
H64_2 H 0.9435 0.3646 0.4427
C104_3 C 0.1150(3) 0.0011(4) 0.0544(3)
H65_3 H 0.1364 0.0171 0.0628
C109_3 C 0.0866(3) 0.0065(4) 0.0570(3)
H68_3 H 0.0887 0.0248 0.0690
C110_3 C 0.03398(19) 0.02613(27) 0.0433(2)
H69_3 H 0.0567 0.0443 0.0436
O19_3 O 0.01787(24) 0.18487(17) 0.05411(17)
O20_3 O 0.05983(25) 0.19871(19) 0.02103(19)
C112_3 C 0.0351(4) 0.1767(3) 0.0389(3)
C114_3 C 0.0286(4) 0.1393(2) 0.0390(2)
C115_3 C 0.0493(4) 0.1292(3) 0.0234(3)
H71_3 H 0.0679 0.1451 0.0113
C116_3 C 0.0425(4) 0.0956(3) 0.0258(3)
H72_3 H 0.0572 0.0894 0.0160
C117_3 C 0.0143(3) 0.0710(2) 0.0424(2)
C120_3 C 0.0056(3) 0.0329(2) 0.0430(2)
O41_3 O 0.1043(3) 0.2748(2) 0.03846(19)
O42_3 O 0.0808(3) 0.2508(2) 0.0832(2)
C216_3 C 0.1082(4) 0.2707(3) 0.0670(3)
C217_3 C 0.1412(3) 0.2860(2) 0.0823(2)
C218_3 C 0.1459(4) 0.2843(3) 0.1147(2)
H128_3 H 0.1267 0.2718 0.1276
C219_3 C 0.1778(4) 0.3003(3) 0.1280(2)
H129_3 H 0.1800 0.2981 0.1497
C220_3 C 0.2070(4) 0.3197(3) 0.1101(3)
C221_3 C 0.2029(4) 0.3211(3) 0.0787(2)
H130_3 H 0.2222 0.3326 0.0657
C222_3 C 0.1690(4) 0.3050(3) 0.0652(3)
H131_3 H 0.1665 0.3080 0.0437
C223_3 C 0.27929(26) 0.36545(19) 0.16983(12)
C224_3 C 0.30731(26) 0.36748(19) 0.15362(15)
H132_3 H 0.3289 0.3776 0.1633
C225_3 C 0.30311(25) 0.35451(19) 0.12297(15)
C226_3 C 0.27086(26) 0.33950(19) 0.10853(12)
H133_3 H 0.2680 0.3308 0.0880
C227_3 C 0.24284(25) 0.33747(18) 0.12474(14)
C228_3 C 0.24704(25) 0.35044(19) 0.15539(14)
H134_3 H 0.2283 0.3491 0.1663
C229_3 C 0.3330(4) 0.3570(3) 0.1049(2)
C230_3 C 0.3314(4) 0.3311(2) 0.0855(2)
H135_3 H 0.3106 0.3104 0.0833
C231_3 C 0.3605(4) 0.3359(3) 0.0695(2)
H136_3 H 0.3594 0.3185 0.0565
C232_3 C 0.3916(4) 0.3668(3) 0.0727(3)
C233_3 C 0.3933(4) 0.3928(3) 0.0921(3)
H137_3 H 0.4140 0.4134 0.0943
C234_3 C 0.3641(4) 0.3879(2) 0.1082(2)
H138_3 H 0.3653 0.4053 0.1211
C235_3 C 0.2823(4) 0.3792(3) 0.2038(3)
C236_3 C 0.2556(4) 0.3641(3) 0.2247(3)
H139_3 H 0.2349 0.3454 0.2179
C237_3 C 0.3165(9) 0.4001(6) 0.2129(7)
H140_3 H 0.3360 0.4042 0.2016
C238_3 C 0.2882(5) 0.4114(3) 0.2996(2)
C239_3 C 0.2870(7) 0.3998(4) 0.2665(2)
C240_3 C 0.2581(7) 0.3748(4) 0.2533(3)
H141_3 H 0.2384 0.3643 0.2658
C241_3 C 0.3155(7) 0.4152(4) 0.2455(4)
H142_3 H 0.3348 0.4357 0.2517
C242_3 C 0.4243(6) 0.3734(4) 0.0563(3)
O21_3 O 0.1954(2) 0.1378(4) 0.6694(2)
O22_3 O 0.1828(2) 0.1704(4) 0.6972(2)
C121_3 C 0.1738(3) 0.1423(5) 0.6827(3)
C122_3 C 0.1297(3) 0.0863(4) 0.6610(2)
H75_3 H 0.1469 0.0858 0.6490
C123_3 C 0.0960(3) 0.0588(4) 0.6598(3)
H76_3 H 0.0906 0.0398 0.6470
C124_3 C 0.0704(2) 0.0598(4) 0.6777(3)
C125_3 C 0.0784(3) 0.0881(4) 0.6968(3)
H77_3 H 0.0612 0.0887 0.7088
C126_3 C 0.1121(3) 0.1156(4) 0.6980(2)
H78_3 H 0.1174 0.1345 0.7108
C127_3 C 0.1377(2) 0.1147(4) 0.6801(3)
C128_3 C 0.0345(2) 0.0303(4) 0.6762(4)
C129_3 C 0.0048(3) 0.0326(4) 0.6795(4)
H79_3 H 0.0076 0.0541 0.6844
O27_3 O 0.2276(3) 0.1542(4) 0.7409(2)
O28_3 O 0.2566(3) 0.1491(4) 0.7021(3)
C141_3 C 0.2385(3) 0.0150(4) 0.9356(2)
H85_3 H 0.2393 0.0311 0.9500
C142_3 C 0.2499(3) 0.0258(4) 0.9046(2)
H86_3 H 0.2581 0.0485 0.8984
C143_3 C 0.2485(3) 0.0013(4) 0.8833(2)
C146_3 C 0.2604(3) 0.0103(4) 0.8495(2)
C147_3 C 0.2548(3) 0.0350(4) 0.8328(2)
H89_3 H 0.2439 0.0455 0.8428
C148_3 C 0.2658(3) 0.0430(4) 0.8017(2)
C149_3 C 0.2819(3) 0.0276(4) 0.7878(2)
H90_3 H 0.2897 0.0336 0.7670
C150_3 C 0.2875(3) 0.0034(4) 0.8034(2)
C153_3 C 0.3317(2) 0.0046(4) 0.7653(2)
H92_3 H 0.3394 0.0279 0.7615
C155_3 C 0.2594(2) 0.06948(26) 0.78379(17)
C156_3 C 0.2744(2) 0.08052(26) 0.75406(18)
H94_3 H 0.2876 0.0718 0.7454
C157_3 C 0.2696(2) 0.1046(3) 0.73726(15)
H95_3 H 0.2796 0.1119 0.7174
C158_3 C 0.2498(2) 0.11753(27) 0.75019(19)
C159_3 C 0.2348(2) 0.10649(26) 0.77991(19)
H96_3 H 0.2216 0.1153 0.7886
C160_3 C 0.2396(2) 0.0825(3) 0.79672(15)
H97_3 H 0.2296 0.0752 0.8166
C161_3 C 0.2442(3) 0.1420(4) 0.7309(3)
H113_3 H 0.3658 0.0029 0.7355
O37_3 O 0.00620(27) 0.2246(2) 0.99888(17)
O38_3 O 0.05770(28) 0.25824(19) 0.98853(15)
C193_3 C 0.0278(4) 0.2433(3) 0.9785(3)
C194_3 C 0.0178(4) 0.2441(3) 0.9456(2)
C198_3 C 0.0326(4) 0.2687(3) 0.8930(2)
H117_3 H 0.0494 0.2840 0.8790
C199_3 C 0.0411(4) 0.2662(3) 0.9266(3)
H118_3 H 0.0632 0.2806 0.9340
C205_3 C 0.0048(4) 0.2825(3) 0.8336(2)
H121_3 H 0.0205 0.3026 0.8442
C206_3 C 0.0122(3) 0.3174(2) 0.7871(2)
C208_3 C 0.0466(4) 0.3418(3) 0.7927(3)
H123_3 H 0.0588 0.3378 0.8084
C243_3 C 0.0622(5) 0.4147(3) 0.7354(2)
C244_3 C 0.0452(4) 0.3813(2) 0.7537(2)
C245_3 C 0.0102(4) 0.3579(2) 0.7493(2)
C246_3 C 0.0643(5) 0.3746(3) 0.7739(3)
H144_3 H 0.0878 0.3899 0.7761
O17_3 O 0.16699(17) 0.98213(24) 0.05411(17)
O18_3 O 0.13887(17) 0.94017(25) 0.02103(19)
C103_3 C 0.1415(3) 0.9649(4) 0.0389(3)
C105_3 C 0.1106(3) 0.9714(4) 0.0390(2)
C106_3 C 0.0798(3) 0.9507(4) 0.0234(3)
H66_3 H 0.0771 0.9321 0.0113
C107_3 C 0.0530(2) 0.9575(4) 0.0258(3)
H67_3 H 0.0321 0.9428 0.0160
C108_3 C 0.0566(2) 0.9857(3) 0.0424(2)
C111_3 C 0.0272(2) 0.9944(3) 0.0430(2)
O29_3 O 0.1704(2) 0.8957(3) 0.03846(19)
O30_3 O 0.1699(2) 0.9192(3) 0.0832(2)
C162_3 C 0.1624(3) 0.8918(4) 0.0670(3)
C163_3 C 0.1447(2) 0.8588(3) 0.0823(2)
C164_3 C 0.1383(2) 0.8541(4) 0.1147(2)
H98_3 H 0.1450 0.8733 0.1276
C165_3 C 0.1224(3) 0.8222(4) 0.1280(2)
H99_3 H 0.1180 0.8200 0.1497
C166_3 C 0.1126(3) 0.7930(4) 0.1101(3)
C167_3 C 0.1181(3) 0.7971(4) 0.0787(2)
H100_3 H 0.1103 0.7778 0.0657
C168_3 C 0.1359(3) 0.8310(4) 0.0652(3)
H101_3 H 0.1414 0.8335 0.0437
C169_3 C 0.08615(18) 0.72071(26) 0.16983(12)
C170_3 C 0.06016(18) 0.69269(26) 0.15362(15)
H102_3 H 0.0486 0.6711 0.1633
C171_3 C 0.05139(16) 0.69689(25) 0.12297(15)
C172_3 C 0.06863(18) 0.72914(26) 0.10853(12)
H103_3 H 0.0627 0.7320 0.0880
C173_3 C 0.09462(18) 0.75716(25) 0.12474(14)
C174_3 C 0.10339(16) 0.75296(25) 0.15539(14)
H104_3 H 0.1207 0.7717 0.1663
C175_3 C 0.0239(2) 0.6670(4) 0.1049(2)
C180_3 C 0.0237(3) 0.6359(4) 0.1082(2)
H108_3 H 0.0399 0.6347 0.1211
C181_3 C 0.0968(3) 0.7177(4) 0.2038(3)
C182_3 C 0.1084(3) 0.7444(4) 0.2247(3)
H109_3 H 0.1104 0.7651 0.2179
C183_3 C 0.0835(7) 0.6835(9) 0.2129(7)
H110_3 H 0.0681 0.6640 0.2016
C184_3 C 0.1231(4) 0.7118(5) 0.2996(2)
C185_3 C 0.1127(6) 0.7130(7) 0.2665(2)
C186_3 C 0.1166(6) 0.7419(7) 0.2533(3)
H111_3 H 0.1258 0.7616 0.2658
C187_3 C 0.0996(6) 0.6845(7) 0.2455(4)
H112_3 H 0.1008 0.6652 0.2517
C91_3 C 0.0096(3) 0.9216(3) 0.6968(3)
H59_3 H 0.0274 0.9388 0.7088
C92_3 C 0.0034(3) 0.8879(3) 0.6980(2)
H60_3 H 0.0170 0.8826 0.7108
C95_3 C 0.0277(3) 0.9952(3) 0.6795(4)
H61_3 H 0.0464 0.9924 0.6844
O25_3 O 0.21836(18) 0.99380(27) 0.99888(17)
O26_3 O 0.2005(2) 0.94230(28) 0.98853(15)
C139_3 C 0.2154(3) 0.9722(4) 0.9785(3)
C140_3 C 0.2262(3) 0.9822(4) 0.9456(2)
C144_3 C 0.2360(3) 0.9674(4) 0.8930(2)
H87_3 H 0.2345 0.9506 0.8790
C145_3 C 0.2250(3) 0.9589(4) 0.9266(3)
H88_3 H 0.2173 0.9368 0.9340
C151_3 C 0.2776(3) 0.9952(4) 0.8336(2)
H91_3 H 0.2820 0.9795 0.8442
C152_3 C 0.3051(2) 0.9878(3) 0.7871(2)
C154_3 C 0.2951(3) 0.9534(4) 0.7927(3)
H93_3 H 0.2789 0.9412 0.8084
C189_3 C 0.3524(4) 0.9378(5) 0.7354(2)
C190_3 C 0.3360(3) 0.9548(4) 0.7537(2)
C191_3 C 0.3476(3) 0.9898(4) 0.7493(2)
C192_3 C 0.3102(4) 0.9357(5) 0.7739(3)
H114_3 H 0.3020 0.9122 0.7761
C68_3 C 0.6689(2) 0.0004(3) 0.0855(2)
H45_3 H 0.6896 0.0003 0.0833
C69_3 C 0.6641(3) 0.0247(2) 0.0695(2)
H46_3 H 0.6815 0.0410 0.0565
C70_3 C 0.6332(3) 0.0249(3) 0.0727(3)
C71_3 C 0.6072(3) 0.0006(3) 0.0921(3)
H47_3 H 0.5866 0.0007 0.0943
C97_3 C 0.6266(4) 0.0510(5) 0.0563(3)
C113_3 C 0.9989(4) 0.1140(3) 0.0544(3)
H70_3 H 0.9829 0.1194 0.0628
C118_3 C 0.9935(4) 0.0802(2) 0.0570(3)
H73_3 H 0.9752 0.0640 0.0690
C119_3 C 0.97387(27) 0.00786(19) 0.0433(2)
H74_3 H 0.9557 0.0125 0.0436
O23_3 O 0.8622(4) 0.0577(3) 0.6694(2)
O24_3 O 0.8296(4) 0.0125(3) 0.6972(2)
C130_3 C 0.8577(5) 0.0316(4) 0.6827(3)
C131_3 C 0.9137(4) 0.0435(2) 0.6610(2)
H80_3 H 0.9142 0.0612 0.6490
C132_3 C 0.9412(4) 0.0373(3) 0.6598(3)
H81_3 H 0.9602 0.0509 0.6470
C133_3 C 0.9402(4) 0.0107(3) 0.6777(3)
C136_3 C 0.8853(4) 0.0231(3) 0.6801(3)
C137_3 C 0.9697(4) 0.0043(3) 0.6762(4)
O39_3 O 0.8458(4) 0.0735(2) 0.7409(2)
O40_3 O 0.8509(4) 0.1076(2) 0.7021(3)
C195_3 C 0.9850(4) 0.2236(3) 0.9356(2)
H115_3 H 0.9689 0.2083 0.9500
C196_3 C 0.9742(4) 0.2242(3) 0.9046(2)
H116_3 H 0.9515 0.2097 0.8984
C197_3 C 0.9987(4) 0.2473(2) 0.8833(2)
C200_3 C 0.9897(4) 0.2502(2) 0.8495(2)
C201_3 C 0.9650(4) 0.2199(3) 0.8328(2)
H119_3 H 0.9545 0.1985 0.8428
C202_3 C 0.9570(4) 0.2229(3) 0.8017(2)
C203_3 C 0.9724(4) 0.2544(3) 0.7878(2)
H120_3 H 0.9664 0.2562 0.7670
C204_3 C 0.9966(4) 0.2842(3) 0.8034(2)
C207_3 C 0.9954(4) 0.3272(3) 0.7653(2)
H122_3 H 0.9721 0.3116 0.7615
C209_3 C 0.93052(26) 0.18996(17) 0.78379(17)
C210_3 C 0.91948(26) 0.19392(17) 0.75406(18)
H124_3 H 0.9282 0.2159 0.7454
C211_3 C 0.8954(3) 0.1651(2) 0.73726(15)
H125_3 H 0.8881 0.1678 0.7174
C212_3 C 0.88247(27) 0.13231(18) 0.75019(19)
C213_3 C 0.89351(26) 0.12835(16) 0.77991(19)
H126_3 H 0.8847 0.1064 0.7886
C214_3 C 0.9175(3) 0.1572(2) 0.79672(15)
H127_3 H 0.9248 0.1545 0.8166
C215_3 C 0.8580(4) 0.1023(3) 0.7309(3)
H143_3 H 0.9971 0.3630 0.7355
O5_3 O 0.7252(2) 0.8296(2) 0.03846(19)
O6_3 O 0.7492(2) 0.8301(2) 0.0832(2)
O9_3 O 0.81513(17) 0.83301(17) 0.05411(17)
O10_3 O 0.80129(19) 0.86113(17) 0.02103(19)
C54_3 C 0.7293(3) 0.8376(3) 0.0670(3)
C55_3 C 0.7140(2) 0.8553(2) 0.0823(2)
C56_3 C 0.7157(3) 0.8617(2) 0.1147(2)
H38_3 H 0.7282 0.8550 0.1276
C57_3 C 0.6997(3) 0.8776(3) 0.1280(2)
H39_3 H 0.7019 0.8820 0.1497
C58_3 C 0.6803(3) 0.8874(3) 0.1101(3)
C59_3 C 0.6789(3) 0.8819(3) 0.0787(2)
H40_3 H 0.6674 0.8897 0.0657
C60_3 C 0.6950(3) 0.8641(3) 0.0652(3)
H41_3 H 0.6920 0.8586 0.0437
C61_3 C 0.63455(19) 0.91385(18) 0.16983(12)
C62_3 C 0.63252(19) 0.93984(18) 0.15362(15)
H42_3 H 0.6224 0.9514 0.1633
C63_3 C 0.64549(19) 0.94861(16) 0.12297(15)
C64_3 C 0.66050(19) 0.93137(18) 0.10853(12)
H43_3 H 0.6692 0.9373 0.0880
C65_3 C 0.66253(18) 0.90538(18) 0.12474(14)
C66_3 C 0.64956(19) 0.89661(16) 0.15539(14)
H44_3 H 0.6509 0.8793 0.1663
C67_3 C 0.6430(3) 0.9761(2) 0.1049(2)
C72_3 C 0.6121(2) 0.9763(3) 0.1082(2)
H48_3 H 0.5947 0.9601 0.1211
C73_3 C 0.6208(3) 0.9032(3) 0.2038(3)
C74_3 C 0.6359(3) 0.8916(3) 0.2247(3)
H49_3 H 0.6546 0.8896 0.2179
C75_3 C 0.5999(6) 0.9165(7) 0.2129(7)
H50_3 H 0.5958 0.9319 0.2016
C76_3 C 0.8233(3) 0.8585(3) 0.0389(3)
C77_3 C 0.8860(3) 0.8850(3) 0.0544(3)
H51_3 H 0.8806 0.8636 0.0628
C78_3 C 0.8607(2) 0.8894(3) 0.0390(2)
C79_3 C 0.8708(3) 0.9202(3) 0.0234(3)
H52_3 H 0.8549 0.9229 0.0113
C80_3 C 0.9044(3) 0.9470(2) 0.0258(3)
H53_3 H 0.9106 0.9679 0.0160
C81_3 C 0.9290(2) 0.9434(2) 0.0424(2)
C82_3 C 0.9198(2) 0.9134(3) 0.0570(3)
H54_3 H 0.9360 0.9113 0.0690
C83_3 C 0.5886(3) 0.8769(4) 0.2996(2)
C84_3 C 0.6002(4) 0.8873(6) 0.2665(2)
C85_3 C 0.6252(4) 0.8834(6) 0.2533(3)
H55_3 H 0.6357 0.8742 0.2658
C86_3 C 0.5848(4) 0.9004(6) 0.2455(4)
H56_3 H 0.5643 0.8992 0.2517
C96_3 C 0.99214(19) 0.96602(19) 0.0433(2)
H62_3 H 0.9875 0.9433 0.0436
C98_3 C 0.9671(2) 0.9728(2) 0.0430(2)
C176_3 C 0.9996(3) 0.6686(4) 0.0855(2)
H105_3 H 0.9997 0.6894 0.0833
C177_3 C 0.9753(2) 0.6395(4) 0.0695(2)
H106_3 H 0.9590 0.6406 0.0565
C178_3 C 0.9751(3) 0.6084(4) 0.0727(3)
C179_3 C 0.9994(3) 0.6067(4) 0.0921(3)
H107_3 H 0.9993 0.5860 0.0943
C188_3 C 0.9490(5) 0.5757(6) 0.0563(3)
O1_3 O 0.7754(2) 0.78164(18) 0.99888(17)
O2_3 O 0.74176(19) 0.7995(2) 0.98853(15)
O3_3 O 0.9265(2) 0.7724(3) 0.7409(2)
O4_3 O 0.8924(2) 0.7434(3) 0.7021(3)
O13_3 O 0.9423(3) 0.8046(2) 0.6694(2)
O14_3 O 0.9875(3) 0.8172(2) 0.6972(2)
C31_3 C 0.7567(3) 0.7846(3) 0.9785(3)
C32_3 C 0.7559(3) 0.7738(3) 0.9456(2)
C33_3 C 0.7764(3) 0.7615(3) 0.9356(2)
H25_3 H 0.7917 0.7607 0.9500
C34_3 C 0.7758(3) 0.7501(3) 0.9046(2)
H26_3 H 0.7903 0.7419 0.8984
C35_3 C 0.7527(2) 0.7515(3) 0.8833(2)
C36_3 C 0.7313(3) 0.7640(3) 0.8930(2)
H27_3 H 0.7160 0.7655 0.8790
C37_3 C 0.7338(3) 0.7750(3) 0.9266(3)
H28_3 H 0.7194 0.7827 0.9340
C38_3 C 0.7498(2) 0.7396(3) 0.8495(2)
C39_3 C 0.7801(3) 0.7452(3) 0.8328(2)
H29_3 H 0.8015 0.7561 0.8428
C40_3 C 0.7771(3) 0.7342(3) 0.8017(2)
C41_3 C 0.7456(3) 0.7181(3) 0.7878(2)
H30_3 H 0.7438 0.7103 0.7670
C42_3 C 0.7158(3) 0.7125(3) 0.8034(2)
C43_3 C 0.7175(3) 0.7224(3) 0.8336(2)
H31_3 H 0.6974 0.7180 0.8442
C44_3 C 0.6826(2) 0.6949(2) 0.7871(2)
C45_3 C 0.6728(3) 0.6683(2) 0.7653(2)
H32_3 H 0.6884 0.6606 0.7615
C46_3 C 0.6582(3) 0.7049(3) 0.7927(3)
H33_3 H 0.6622 0.7211 0.8084
C47_3 C 0.81004(17) 0.7406(2) 0.78379(17)
C48_3 C 0.80608(17) 0.7256(2) 0.75406(18)
H34_3 H 0.7841 0.7124 0.7454
C49_3 C 0.8349(2) 0.7304(2) 0.73726(15)
H35_3 H 0.8322 0.7204 0.7174
C50_3 C 0.86769(18) 0.7502(2) 0.75019(19)
C51_3 C 0.87165(16) 0.7652(2) 0.77991(19)
H36_3 H 0.8936 0.7784 0.7886
C52_3 C 0.8428(2) 0.7604(2) 0.79672(15)
H37_3 H 0.8455 0.7704 0.8166
C53_3 C 0.8977(3) 0.7558(3) 0.7309(3)
C87_3 C 0.9684(4) 0.8262(3) 0.6827(3)
C88_3 C 0.9565(2) 0.8703(3) 0.6610(2)
H57_3 H 0.9388 0.8531 0.6490
C89_3 C 0.9627(3) 0.9040(3) 0.6598(3)
H58_3 H 0.9491 0.9094 0.6470
C90_3 C 0.9893(3) 0.9296(2) 0.6777(3)
C93_3 C 0.9769(3) 0.8623(2) 0.6801(3)
C94_3 C 0.9957(3) 0.9655(2) 0.6762(4)
C99_3 C 0.5853(3) 0.6476(4) 0.7354(2)
C100_3 C 0.6187(2) 0.6640(3) 0.7537(2)
C101_3 C 0.6421(2) 0.6524(3) 0.7493(2)
H63_3 H 0.6370 0.6342 0.7355
C102_3 C 0.6254(3) 0.6898(4) 0.7739(3)
H64_3 H 0.6101 0.6980 0.7761
C134_3 C 0.9119(4) 0.9904(3) 0.6968(3)
H82_3 H 0.9113 0.9726 0.7088
C135_3 C 0.8844(4) 0.9966(3) 0.6980(2)
H83_3 H 0.8655 0.9830 0.7108
C138_3 C 0.9674(4) 0.9723(3) 0.6795(4)
H84_3 H 0.9459 0.9536 0.6844
O7_2 O 0.75464(19) 0.04306(26) 0.95071(18)
O8_2 O 0.76795(16) 0.00847(25) 0.92749(17)
H32_4 H 0.6449 0.0061 0.9052
C99_4 C 0.7480(3) 0.0191(4) 0.9313(2)
C100_4 C 0.7146(2) 0.0027(3) 0.9130(2)
C101_4 C 0.6912(2) 0.0143(3) 0.9174(2)
H63_4 H 0.6963 0.0325 0.9312
O35_3 O 0.4125(4) 0.0952(6) 0.6175(3)
O36_3 O 0.3750(3) 0.1116(5) 0.6171(3)
C177_4 C 0.3580(2) 0.0272(4) 0.5972(2)
H106_4 H 0.3743 0.0261 0.6102
C178_4 C 0.3582(3) 0.0583(4) 0.5940(3)
C179_4 C 0.3339(3) 0.0600(4) 0.5746(3)
H107_4 H 0.3340 0.0807 0.5724
C180_4 C 0.3096(3) 0.0308(4) 0.5585(2)
H108_4 H 0.2934 0.0320 0.5456
H110_4 H 0.2652 0.0027 0.4651
H112_4 H 0.2325 0.0015 0.4150
C188_4 C 0.3843(5) 0.0910(6) 0.6104(3)
In8_2 In 0.80713(2) 0.04628(3) 0.96175(2)
In11_2 In 0.42799(2) 0.14752(3) 0.64086(2)
C88_4 C 0.3768(2) 0.7964(3) 0.0057(2)
H57_4 H 0.3945 0.8136 0.0177
C89_4 C 0.3706(3) 0.7627(3) 0.0069(3)
H58_4 H 0.3842 0.7573 0.0197
C122_4 C 0.2036(3) 0.5804(4) 0.0057(2)
H75_4 H 0.1864 0.5809 0.0177
C123_4 C 0.2373(3) 0.6079(4) 0.0069(3)
H76_4 H 0.2427 0.6269 0.0197
C131_4 C 0.4196(4) 0.6232(2) 0.0057(2)
H80_4 H 0.4191 0.6055 0.0177
C132_4 C 0.3921(4) 0.6294(3) 0.0069(3)
H81_4 H 0.3731 0.6158 0.0197
O55_3 O 0.0635(2) 0.4685(3) 0.01704(19)
O56_3 O 0.5315(3) 0.5951(4) 0.01704(19)
O57_3 O 0.4049(4) 0.9365(2) 0.01704(19)
O58_3 O 0.1004(2) 0.4509(3) 0.0219(2)
O59_3 O 0.5491(3) 0.6496(4) 0.0219(2)
O60_3 O 0.3504(4) 0.8996(2) 0.0219(2)
In1_3 In 0.57249(2) 0.85954(2) 0.62842(2)
In2_2 In 0.38619(2) 0.90534(2) 0.97419(2)
O1_4 O 0.5579(2) 0.88503(18) 0.66779(17)
O2_4 O 0.59157(19) 0.8672(2) 0.67814(15)
O3_4 O 0.4068(2) 0.8943(3) 0.9258(2)
O4_4 O 0.4409(2) 0.9233(3) 0.9646(3)
O5_4 O 0.6081(2) 0.8371(2) 0.62821(19)
O6_4 O 0.5841(2) 0.8366(2) 0.5835(2)
O9_4 O 0.51820(17) 0.83366(17) 0.61256(17)
O10_4 O 0.53204(19) 0.80554(17) 0.64564(19)
O11_2 O 0.7302(2) 0.8018(3) 0.35037(19)
O12_2 O 0.7671(2) 0.7842(3) 0.3552(2)
O13_4 O 0.3910(3) 0.8621(2) 0.9973(2)
O14_4 O 0.3458(3) 0.8495(2) 0.9695(2)
O15_3 O 0.6827(4) 0.5875(4) 0.6175(3)
O16_3 O 0.7366(4) 0.6250(3) 0.6171(3)
C31_4 C 0.5766(3) 0.8821(3) 0.6882(3)
C32_4 C 0.5774(3) 0.8929(3) 0.7211(2)
C33_4 C 0.5569(3) 0.9052(3) 0.7311(2)
H25_4 H 0.5416 0.9060 0.7167
C34_4 C 0.5575(3) 0.9166(3) 0.7621(2)
H26_4 H 0.5430 0.9248 0.7683
C35_4 C 0.5806(2) 0.9152(3) 0.7834(2)
C36_4 C 0.6020(3) 0.9027(3) 0.7737(2)
H27_4 H 0.6173 0.9012 0.7877
C37_4 C 0.5995(3) 0.8917(3) 0.7401(3)
H28_4 H 0.6139 0.8840 0.7327
C38_4 C 0.5835(2) 0.9271(3) 0.8172(2)
C39_4 C 0.5532(3) 0.9215(3) 0.8339(2)
H29_4 H 0.5318 0.9106 0.8239
C40_4 C 0.5562(3) 0.9325(3) 0.8650(2)
C41_4 C 0.5877(3) 0.9486(3) 0.8789(2)
H30_4 H 0.5895 0.9564 0.8997
C42_4 C 0.6175(3) 0.9542(3) 0.8633(2)
C43_4 C 0.6158(3) 0.9443(3) 0.8331(2)
H31_4 H 0.6359 0.9487 0.8225
C44_4 C 0.6507(2) 0.9718(2) 0.8796(2)
C45_4 C 0.6605(3) 0.9984(2) 0.9014(2)
C46_4 C 0.6751(3) 0.9618(3) 0.8740(3)
H33_4 H 0.6711 0.9456 0.8583
C47_4 C 0.52329(17) 0.9261(2) 0.88288(17)
C48_4 C 0.52725(17) 0.9411(2) 0.91261(18)
H34_4 H 0.5492 0.9543 0.9213
C49_4 C 0.4984(2) 0.9363(2) 0.92941(15)
H35_4 H 0.5011 0.9463 0.9493
C50_4 C 0.46564(18) 0.9165(2) 0.91648(19)
C51_4 C 0.46168(16) 0.9015(2) 0.88676(19)
H36_4 H 0.4397 0.8883 0.8781
C52_4 C 0.4905(2) 0.9063(2) 0.86995(15)
H37_4 H 0.4878 0.8963 0.8501
C53_4 C 0.4356(3) 0.9109(3) 0.9358(3)
C54_4 C 0.6040(3) 0.8291(3) 0.5997(3)
C55_4 C 0.6193(2) 0.8114(2) 0.5844(2)
C56_4 C 0.6176(3) 0.8050(2) 0.5520(2)
H38_4 H 0.6051 0.8117 0.5391
C57_4 C 0.6336(3) 0.7891(3) 0.5387(2)
H39_4 H 0.6314 0.7847 0.5170
C58_4 C 0.6530(3) 0.7793(3) 0.5566(3)
C59_4 C 0.6544(3) 0.7848(3) 0.5880(2)
H40_4 H 0.6659 0.7770 0.6010
C60_4 C 0.6383(3) 0.8026(3) 0.6015(3)
H41_4 H 0.6413 0.8081 0.6230
C61_4 C 0.69878(19) 0.75282(18) 0.49684(12)
C62_4 C 0.70081(19) 0.72683(18) 0.51305(15)
H42_4 H 0.7109 0.7153 0.5034
C63_4 C 0.68784(19) 0.71806(16) 0.54370(15)
C64_4 C 0.67283(19) 0.73530(18) 0.55814(12)
H43_4 H 0.6641 0.7294 0.5787
C65_4 C 0.67080(18) 0.76129(18) 0.54193(14)
C66_4 C 0.68377(19) 0.77006(16) 0.51128(14)
H44_4 H 0.6824 0.7874 0.5004
C67_4 C 0.6903(3) 0.6906(2) 0.5618(2)
C68_4 C 0.6644(2) 0.6663(3) 0.5812(2)
H45_4 H 0.6437 0.6664 0.5834
C69_4 C 0.6692(3) 0.6420(2) 0.5972(2)
H46_4 H 0.6518 0.6257 0.6102
C70_4 C 0.7001(3) 0.6418(3) 0.5940(3)
C71_4 C 0.7261(3) 0.6661(3) 0.5746(3)
H47_4 H 0.7467 0.6660 0.5724
C72_4 C 0.7212(2) 0.6904(3) 0.5585(2)
H48_4 H 0.7386 0.7066 0.5456
C73_4 C 0.7125(3) 0.7635(3) 0.4629(3)
C74_4 C 0.6974(3) 0.7751(3) 0.4420(3)
H49_4 H 0.6787 0.7771 0.4488
C75_4 C 0.7334(6) 0.7502(7) 0.4538(7)
H50_4 H 0.7375 0.7348 0.4651
C76_4 C 0.5100(3) 0.8082(3) 0.6278(3)
C77_4 C 0.4473(3) 0.7817(3) 0.6123(3)
H51_4 H 0.4527 0.8031 0.6039
C78_4 C 0.4726(2) 0.7773(3) 0.6277(2)
C79_4 C 0.4625(3) 0.7465(3) 0.6433(3)
H52_4 H 0.4784 0.7438 0.6554
C80_4 C 0.4289(3) 0.7197(2) 0.6409(3)
H53_4 H 0.4227 0.6988 0.6507
C81_4 C 0.4043(2) 0.7233(2) 0.6243(2)
C82_4 C 0.4135(2) 0.7533(3) 0.6097(3)
H54_4 H 0.3973 0.7554 0.5977
C83_4 C 0.7447(3) 0.7898(4) 0.3671(2)
C84_4 C 0.7331(4) 0.7794(6) 0.4002(2)
C85_4 C 0.7081(4) 0.7833(6) 0.4134(3)
H55_4 H 0.6976 0.7925 0.4009
C86_4 C 0.7485(4) 0.7663(6) 0.4212(4)
H56_4 H 0.7690 0.7675 0.4150
C87_4 C 0.3649(4) 0.8405(3) 0.9840(3)
C90_4 C 0.3440(3) 0.7371(2) 0.9890(3)
C91_4 C 0.3237(3) 0.7451(3) 0.9699(3)
H59_4 H 0.3059 0.7279 0.9579
C92_4 C 0.3299(3) 0.7788(3) 0.9687(2)
H60_4 H 0.3163 0.7841 0.9559
C93_4 C 0.3564(3) 0.8044(2) 0.9866(3)
C94_4 C 0.3376(3) 0.7012(2) 0.9905(4)
C95_4 C 0.3056(3) 0.6715(3) 0.9872(4)
H61_4 H 0.2869 0.6743 0.9823
C96_4 C 0.34119(19) 0.70065(19) 0.6234(2)
H62_4 H 0.3458 0.7234 0.6231
C97_4 C 0.7067(4) 0.6157(5) 0.6104(3)
C98_4 C 0.3662(2) 0.6939(2) 0.6237(2)
C102_4 C 0.7079(3) 0.9769(4) 0.8928(3)
H64_4 H 0.7232 0.9687 0.8906
O17_4 O 0.16634(17) 0.68454(24) 0.61256(17)
O18_4 O 0.19446(17) 0.72650(25) 0.64564(19)
C103_4 C 0.1918(3) 0.7018(4) 0.6278(3)
C104_4 C 0.2183(3) 0.6656(4) 0.6123(3)
H65_4 H 0.1969 0.6496 0.6039
C105_4 C 0.2227(3) 0.6953(4) 0.6277(2)
C106_4 C 0.2535(3) 0.7160(4) 0.6433(3)
H66_4 H 0.2562 0.7346 0.6554
C107_4 C 0.2803(2) 0.7092(4) 0.6409(3)
H67_4 H 0.3012 0.7239 0.6507
C108_4 C 0.2767(2) 0.6810(3) 0.6243(2)
C109_4 C 0.2467(3) 0.6602(4) 0.6097(3)
H68_4 H 0.2446 0.6419 0.5977
C110_4 C 0.29935(19) 0.64054(27) 0.6234(2)
H69_4 H 0.2766 0.6224 0.6231
C111_4 C 0.3061(2) 0.6723(3) 0.6237(2)
O19_4 O 0.31546(24) 0.48180(17) 0.61256(17)
O20_4 O 0.27350(25) 0.46796(19) 0.64564(19)
C112_4 C 0.2982(4) 0.4900(3) 0.6278(3)
C113_4 C 0.3344(4) 0.5527(3) 0.6123(3)
H70_4 H 0.3504 0.5473 0.6039
C114_4 C 0.3047(4) 0.5274(2) 0.6277(2)
C115_4 C 0.2840(4) 0.5375(3) 0.6433(3)
H71_4 H 0.2654 0.5216 0.6554
C116_4 C 0.2908(4) 0.5711(3) 0.6409(3)
H72_4 H 0.2761 0.5773 0.6507
C117_4 C 0.3190(3) 0.5957(2) 0.6243(2)
C118_4 C 0.3398(4) 0.5865(2) 0.6097(3)
H73_4 H 0.3581 0.6027 0.5977
C119_4 C 0.35946(27) 0.65881(19) 0.6234(2)
H74_4 H 0.3776 0.6542 0.6231
C120_4 C 0.3277(3) 0.6338(2) 0.6237(2)
O21_4 O 0.1379(2) 0.5289(4) 0.9973(2)
O22_4 O 0.1505(2) 0.4963(4) 0.9695(2)
C121_4 C 0.1595(3) 0.5244(5) 0.9840(3)
C124_4 C 0.2629(2) 0.6069(4) 0.9890(3)
C125_4 C 0.2549(3) 0.5786(4) 0.9699(3)
H77_4 H 0.2721 0.5780 0.9579
C126_4 C 0.2212(3) 0.5511(4) 0.9687(2)
H78_4 H 0.2159 0.5322 0.9559
C127_4 C 0.1956(2) 0.5520(4) 0.9866(3)
C128_4 C 0.2988(2) 0.6364(4) 0.9905(4)
C129_4 C 0.3285(3) 0.6341(4) 0.9872(4)
H79_4 H 0.3257 0.6126 0.9823
O23_4 O 0.4711(4) 0.6090(3) 0.9973(2)
O24_4 O 0.5037(4) 0.6542(3) 0.9695(2)
C130_4 C 0.4756(5) 0.6351(4) 0.9840(3)
C133_4 C 0.3931(4) 0.6560(3) 0.9890(3)
C134_4 C 0.4214(4) 0.6763(3) 0.9699(3)
H82_4 H 0.4220 0.6941 0.9579
C135_4 C 0.4489(4) 0.6701(3) 0.9687(2)
H83_4 H 0.4678 0.6837 0.9559
C136_4 C 0.4480(4) 0.6436(3) 0.9866(3)
C137_4 C 0.3636(4) 0.6624(3) 0.9905(4)
C138_4 C 0.3659(4) 0.6944(3) 0.9872(4)
H84_4 H 0.3874 0.7131 0.9823
In3_3 In 0.14046(2) 0.71295(3) 0.62842(2)
In4_2 In 0.09466(2) 0.48085(3) 0.97419(2)
O25_4 O 0.11497(18) 0.67287(27) 0.66779(17)
O26_4 O 0.1328(2) 0.72437(28) 0.67814(15)
O27_4 O 0.1057(3) 0.5125(4) 0.9258(2)
O28_4 O 0.0767(3) 0.5176(4) 0.9646(3)
O29_4 O 0.1629(2) 0.7710(3) 0.62821(19)
O30_4 O 0.1634(2) 0.7475(3) 0.5835(2)
O33_2 O 0.1982(3) 0.9284(4) 0.35037(19)
O34_2 O 0.2158(3) 0.9829(4) 0.3552(2)
C139_4 C 0.1179(3) 0.6945(4) 0.6882(3)
C140_4 C 0.1071(3) 0.6845(4) 0.7211(2)
C141_4 C 0.0948(3) 0.6517(4) 0.7311(2)
H85_4 H 0.0940 0.6356 0.7167
C142_4 C 0.0834(3) 0.6409(4) 0.7621(2)
H86_4 H 0.0752 0.6182 0.7683
C143_4 C 0.0848(3) 0.6654(4) 0.7834(2)
C144_4 C 0.0973(3) 0.6993(4) 0.7737(2)
H87_4 H 0.0988 0.7161 0.7877
C145_4 C 0.1083(3) 0.7078(4) 0.7401(3)
H88_4 H 0.1160 0.7299 0.7327
C146_4 C 0.0729(3) 0.6564(4) 0.8172(2)
C147_4 C 0.0785(3) 0.6317(4) 0.8339(2)
H89_4 H 0.0894 0.6212 0.8239
C148_4 C 0.0675(3) 0.6237(4) 0.8650(2)
C149_4 C 0.0514(3) 0.6391(4) 0.8789(2)
H90_4 H 0.0436 0.6331 0.8997
C150_4 C 0.0458(3) 0.6633(4) 0.8633(2)
C151_4 C 0.0557(3) 0.6715(4) 0.8331(2)
H91_4 H 0.0513 0.6872 0.8225
C152_4 C 0.0282(2) 0.6789(3) 0.8796(2)
C153_4 C 0.0016(2) 0.6621(4) 0.9014(2)
C154_4 C 0.0382(3) 0.7133(4) 0.8740(3)
H93_4 H 0.0544 0.7255 0.8583
C155_4 C 0.0739(2) 0.59719(26) 0.88288(17)
C156_4 C 0.0589(2) 0.58615(26) 0.91261(18)
H94_4 H 0.0457 0.5949 0.9213
C157_4 C 0.0637(2) 0.5621(3) 0.92941(15)
H95_4 H 0.0537 0.5548 0.9493
C158_4 C 0.0835(2) 0.54914(27) 0.91648(19)
C159_4 C 0.0985(2) 0.56018(26) 0.88676(19)
H96_4 H 0.1117 0.5514 0.8781
C160_4 C 0.0937(2) 0.5842(3) 0.86995(15)
H97_4 H 0.1037 0.5915 0.8501
C161_4 C 0.0891(3) 0.5247(4) 0.9358(3)
C162_4 C 0.1709(3) 0.7749(4) 0.5997(3)
C163_4 C 0.1886(2) 0.8079(3) 0.5844(2)
C164_4 C 0.1950(2) 0.8126(4) 0.5520(2)
H98_4 H 0.1883 0.7934 0.5391
C165_4 C 0.2109(3) 0.8445(4) 0.5387(2)
H99_4 H 0.2153 0.8467 0.5170
C166_4 C 0.2207(3) 0.8737(4) 0.5566(3)
C167_4 C 0.2152(3) 0.8696(4) 0.5880(2)
H100_4 H 0.2230 0.8889 0.6010
C168_4 C 0.1974(3) 0.8357(4) 0.6015(3)
H101_4 H 0.1919 0.8332 0.6230
C169_4 C 0.24718(18) 0.94596(26) 0.49684(12)
C170_4 C 0.27317(18) 0.97398(26) 0.51305(15)
H102_4 H 0.2847 0.9956 0.5034
C171_4 C 0.28194(16) 0.96978(25) 0.54370(15)
C172_4 C 0.26470(18) 0.93753(26) 0.55814(12)
H103_4 H 0.2706 0.9347 0.5787
C173_4 C 0.23871(18) 0.90951(25) 0.54193(14)
C174_4 C 0.22994(16) 0.91371(25) 0.51128(14)
H104_4 H 0.2126 0.8950 0.5004
C175_4 C 0.3094(2) 0.9997(4) 0.5618(2)
C176_4 C 0.3337(3) 0.9981(4) 0.5812(2)
H105_4 H 0.3336 0.9773 0.5834
C181_4 C 0.2365(3) 0.9490(4) 0.4629(3)
C182_4 C 0.2249(3) 0.9223(4) 0.4420(3)
H109_4 H 0.2229 0.9016 0.4488
C183_4 C 0.2498(7) 0.9832(9) 0.4538(7)
C184_4 C 0.2102(4) 0.9549(5) 0.3671(2)
C185_4 C 0.2206(6) 0.9537(7) 0.4002(2)
C186_4 C 0.2167(6) 0.9248(7) 0.4134(3)
H111_4 H 0.2075 0.9051 0.4009
C187_4 C 0.2337(6) 0.9822(7) 0.4212(4)
C192_4 C 0.0231(4) 0.7310(5) 0.8928(3)
H114_4 H 0.0313 0.7545 0.8906
In5_3 In 0.28705(3) 0.42751(2) 0.62842(2)
In6_2 In 0.51915(3) 0.61381(2) 0.97419(2)
O37_4 O 0.32713(27) 0.4421(2) 0.66779(17)
O38_4 O 0.27563(28) 0.40843(19) 0.67814(15)
O39_4 O 0.4875(4) 0.5932(2) 0.9258(2)
O40_4 O 0.4824(4) 0.5591(2) 0.9646(3)
O41_4 O 0.2290(3) 0.3919(2) 0.62821(19)
O42_4 O 0.2525(3) 0.4159(2) 0.5835(2)
O43_2 O 0.28842(32) 0.24536(19) 0.95071(18)
O44_2 O 0.24052(30) 0.23205(16) 0.92749(17)
O45_2 O 0.0716(4) 0.2698(2) 0.35037(19)
O46_2 O 0.0171(4) 0.2329(2) 0.3552(2)
C193_4 C 0.3055(4) 0.4234(3) 0.6882(3)
C194_4 C 0.3155(4) 0.4226(3) 0.7211(2)
C195_4 C 0.3483(4) 0.4431(3) 0.7311(2)
H115_4 H 0.3644 0.4584 0.7167
C196_4 C 0.3591(4) 0.4425(3) 0.7621(2)
H116_4 H 0.3818 0.4570 0.7683
C197_4 C 0.3346(4) 0.4194(2) 0.7834(2)
C198_4 C 0.3007(4) 0.3980(3) 0.7737(2)
H117_4 H 0.2839 0.3827 0.7877
C199_4 C 0.2922(4) 0.4005(3) 0.7401(3)
H118_4 H 0.2701 0.3861 0.7327
C200_4 C 0.3436(4) 0.4165(2) 0.8172(2)
C201_4 C 0.3683(4) 0.4468(3) 0.8339(2)
H119_4 H 0.3788 0.4682 0.8239
C202_4 C 0.3763(4) 0.4438(3) 0.8650(2)
C203_4 C 0.3609(4) 0.4123(3) 0.8789(2)
H120_4 H 0.3669 0.4105 0.8997
C204_4 C 0.3367(4) 0.3825(3) 0.8633(2)
C205_4 C 0.3285(4) 0.3842(3) 0.8331(2)
H121_4 H 0.3128 0.3641 0.8225
C206_4 C 0.3211(3) 0.3493(2) 0.8796(2)
C207_4 C 0.3379(4) 0.3395(3) 0.9014(2)
H122_4 H 0.3612 0.3551 0.9052
C208_4 C 0.2867(4) 0.3249(3) 0.8740(3)
H123_4 H 0.2745 0.3289 0.8583
C209_4 C 0.40281(26) 0.47671(17) 0.88288(17)
C210_4 C 0.41385(26) 0.47275(17) 0.91261(18)
H124_4 H 0.4051 0.4508 0.9213
C211_4 C 0.4379(3) 0.5016(2) 0.92941(15)
H125_4 H 0.4452 0.4989 0.9493
C212_4 C 0.45086(27) 0.53436(18) 0.91648(19)
C213_4 C 0.43982(26) 0.53832(16) 0.88676(19)
H126_4 H 0.4486 0.5603 0.8781
C214_4 C 0.4158(3) 0.5095(2) 0.86995(15)
H127_4 H 0.4085 0.5122 0.8501
C215_4 C 0.4753(4) 0.5644(3) 0.9358(3)
C216_4 C 0.2251(4) 0.3960(3) 0.5997(3)
C217_4 C 0.1921(3) 0.3807(2) 0.5844(2)
C218_4 C 0.1874(4) 0.3824(3) 0.5520(2)
H128_4 H 0.2066 0.3949 0.5391
C219_4 C 0.1555(4) 0.3664(3) 0.5387(2)
H129_4 H 0.1533 0.3686 0.5170
C220_4 C 0.1263(4) 0.3470(3) 0.5566(3)
C221_4 C 0.1304(4) 0.3456(3) 0.5880(2)
H130_4 H 0.1111 0.3341 0.6010
C222_4 C 0.1643(4) 0.3617(3) 0.6015(3)
H131_4 H 0.1668 0.3587 0.6230
C223_4 C 0.05404(26) 0.30122(19) 0.49684(12)
C224_4 C 0.02602(26) 0.29919(19) 0.51305(15)
H132_4 H 0.0044 0.2891 0.5034
C225_4 C 0.03022(25) 0.31216(19) 0.54370(15)
C226_4 C 0.06247(26) 0.32717(19) 0.55814(12)
H133_4 H 0.0653 0.3359 0.5787
C227_4 C 0.09049(25) 0.32920(18) 0.54193(14)
C228_4 C 0.08629(25) 0.31623(19) 0.51128(14)
H134_4 H 0.1050 0.3176 0.5004
C229_4 C 0.0003(4) 0.3097(3) 0.5618(2)
C230_4 C 0.0019(4) 0.3356(2) 0.5812(2)
H135_4 H 0.0227 0.3563 0.5834
C235_4 C 0.0510(4) 0.2875(3) 0.4629(3)
C236_4 C 0.0777(4) 0.3026(3) 0.4420(3)
H139_4 H 0.0984 0.3213 0.4488
C237_4 C 0.0168(9) 0.2666(6) 0.4538(7)
C238_4 C 0.0451(5) 0.2553(3) 0.3671(2)
C239_4 C 0.0463(7) 0.2669(4) 0.4002(2)
C240_4 C 0.0752(7) 0.2919(4) 0.4134(3)
H141_4 H 0.0949 0.3024 0.4009
C241_4 C 0.0178(7) 0.2515(4) 0.4212(4)
C243_4 C 0.2711(5) 0.2520(3) 0.9313(2)
C244_4 C 0.2881(4) 0.2854(2) 0.9130(2)
C245_4 C 0.3231(4) 0.3088(2) 0.9174(2)
H143_4 H 0.3362 0.3037 0.9312
C246_4 C 0.2690(5) 0.2921(3) 0.8928(3)
H144_4 H 0.2455 0.2768 0.8906
In7_2 In 0.23916(2) 0.19287(2) 0.96175(2)
In10_2 In 0.71952(2) 0.57201(2) 0.64086(2)
In13_2 In 0.05286(2) 0.23867(2) 0.30752(2)
In14_2 In 0.76133(2) 0.81418(3) 0.30752(2)
In15_2 In 0.18582(3) 0.94714(2) 0.30752(2)
O49_3 O 0.08797(19) 0.70973(26) 0.61738(18)
O50_3 O 0.29027(26) 0.37825(32) 0.61738(18)
O51_3 O 0.62175(32) 0.91203(19) 0.61738(18)
O52_3 O 0.10128(16) 0.67514(25) 0.59416(17)
O53_3 O 0.32486(25) 0.42615(30) 0.59416(17)
O54_3 O 0.57385(30) 0.89872(16) 0.59416(17)
O61_2 O 0.3494(4) 0.9208(4) 0.9508(3)
O62_2 O 0.0792(4) 0.4285(6) 0.9508(3)
O63_2 O 0.5715(6) 0.6506(4) 0.9508(3)
O64_2 O 0.4033(4) 0.9583(3) 0.9504(3)
O65_2 O 0.0417(3) 0.4449(5) 0.9504(3)
O66_2 O 0.5551(5) 0.5967(4) 0.9504(3)
O31_2 O 0.95694(26) 0.71158(32) 0.95071(18)
O32_2 O 0.99153(25) 0.75948(30) 0.92749(17)
H92_4 H 0.9939 0.6388 0.9052
C189_4 C 0.9809(4) 0.7289(5) 0.9313(2)
C190_4 C 0.9973(3) 0.7119(4) 0.9130(2)
C191_4 C 0.9857(3) 0.6769(4) 0.9174(2)
H113_4 H 0.9675 0.6638 0.9312
O47_3 O 0.9048(6) 0.3173(4) 0.6175(3)
O48_3 O 0.8884(5) 0.2634(4) 0.6171(3)
C231_4 C 0.9728(4) 0.3308(3) 0.5972(2)
H136_4 H 0.9739 0.3482 0.6102
C232_4 C 0.9417(4) 0.2999(3) 0.5940(3)
C233_4 C 0.9400(4) 0.2739(3) 0.5746(3)
H137_4 H 0.9193 0.2533 0.5724
C234_4 C 0.9692(4) 0.2788(2) 0.5585(2)
H138_4 H 0.9680 0.2614 0.5456
H140_4 H 0.9973 0.2625 0.4651
H142_4 H 0.9985 0.2310 0.4150
C242_4 C 0.9090(6) 0.2933(4) 0.6104(3)
In9_2 In 0.95372(3) 0.76084(2) 0.96175(2)
In12_2 In 0.85248(3) 0.28048(2) 0.64086(2)
O15_4 O 0.0160(4) 0.2542(4) 0.2842(3)
O16_4 O 0.0699(4) 0.2917(3) 0.2838(3)
C46_5 C 0.0084(3) 0.6285(3) 0.5407(3)
H33_5 H 0.0044 0.6123 0.5250
C61_5 C 0.03211(19) 0.41949(18) 0.16351(12)
C62_5 C 0.03414(19) 0.39350(18) 0.17972(15)
H42_5 H 0.0442 0.3820 0.1701
C63_5 C 0.02117(19) 0.38473(16) 0.21037(15)
C64_5 C 0.00616(19) 0.40197(18) 0.22481(12)
C65_5 C 0.00413(18) 0.42796(18) 0.20860(14)
C66_5 C 0.01710(19) 0.43673(16) 0.17795(14)
H44_5 H 0.0157 0.4541 0.1671
C67_5 C 0.0236(3) 0.3573(2) 0.2285(2)
C69_5 C 0.0025(3) 0.3087(2) 0.2639(2)
C70_5 C 0.0334(3) 0.3085(3) 0.2607(3)
C71_5 C 0.0594(3) 0.3328(3) 0.2413(3)
H47_5 H 0.0800 0.3327 0.2391
C72_5 C 0.0545(2) 0.3571(3) 0.2252(2)
H48_5 H 0.0719 0.3733 0.2123
C73_5 C 0.0458(3) 0.4302(3) 0.1296(3)
C74_5 C 0.0307(3) 0.4418(3) 0.1087(3)
H49_5 H 0.0120 0.4438 0.1155
C75_5 C 0.0667(6) 0.4169(7) 0.1205(7)
H50_5 H 0.0708 0.4015 0.1318
C83_5 C 0.0780(3) 0.4565(4) 0.0338(2)
C84_5 C 0.0664(4) 0.4461(6) 0.0669(2)
C85_5 C 0.0414(4) 0.4500(6) 0.0801(3)
H55_5 H 0.0309 0.4592 0.0676
C86_5 C 0.0818(4) 0.4330(6) 0.0879(4)
H56_5 H 0.1023 0.4342 0.0817
C97_5 C 0.0400(4) 0.2824(5) 0.2771(3)
C99_5 C 0.0813(3) 0.6858(4) 0.5980(2)
C100_5 C 0.0479(2) 0.6694(3) 0.5797(2)
C101_5 C 0.0245(2) 0.6810(3) 0.5841(2)
H63_5 H 0.0296 0.6992 0.5979
C102_5 C 0.0412(3) 0.6436(4) 0.5595(3)
H64_5 H 0.0565 0.6354 0.5573
In1_4 In 0.90582(2) 0.52621(2) 0.29509(2)
O1_5 O 0.8912(2) 0.55170(18) 0.33446(17)
O2_5 O 0.92490(19) 0.5339(2) 0.34481(15)
O3_5 O 0.7401(2) 0.5610(3) 0.5925(2)
O4_5 O 0.7742(2) 0.5900(3) 0.6313(3)
O5_5 O 0.9414(2) 0.5038(2) 0.29488(19)
O6_5 O 0.9174(2) 0.5033(2) 0.2502(2)
O9_5 O 0.85153(17) 0.50033(17) 0.27923(17)
O10_5 O 0.86537(19) 0.47221(17) 0.31231(19)
O13_5 O 0.7243(3) 0.5288(2) 0.6640(2)
O14_5 O 0.6791(3) 0.5162(2) 0.6362(2)
C31_5 C 0.9099(3) 0.5488(3) 0.3549(3)
C32_5 C 0.9107(3) 0.5596(3) 0.3878(2)
C33_5 C 0.8902(3) 0.5719(3) 0.3978(2)
H25_5 H 0.8749 0.5727 0.3834
C34_5 C 0.8908(3) 0.5833(3) 0.4288(2)
H26_5 H 0.8763 0.5915 0.4350
C35_5 C 0.9139(2) 0.5819(3) 0.4501(2)
C36_5 C 0.9353(3) 0.5694(3) 0.4404(2)
H27_5 H 0.9506 0.5679 0.4544
C37_5 C 0.9328(3) 0.5584(3) 0.4068(3)
H28_5 H 0.9472 0.5507 0.3994
C38_5 C 0.9168(2) 0.5938(3) 0.4839(2)
C39_5 C 0.8865(3) 0.5882(3) 0.5006(2)
H29_5 H 0.8651 0.5773 0.4906
C40_5 C 0.8895(3) 0.5992(3) 0.5317(2)
C41_5 C 0.9210(3) 0.6153(3) 0.5456(2)
H30_5 H 0.9228 0.6231 0.5664
C42_5 C 0.9508(3) 0.6209(3) 0.5300(2)
C43_5 C 0.9491(3) 0.6110(3) 0.4998(2)
H31_5 H 0.9692 0.6154 0.4892
C44_5 C 0.9840(2) 0.6385(2) 0.5463(2)
C45_5 C 0.9938(3) 0.6651(2) 0.5681(2)
H32_5 H 0.9782 0.6728 0.5719
C47_5 C 0.85662(17) 0.5928(2) 0.54955(17)
C48_5 C 0.86058(17) 0.6078(2) 0.57928(18)
H34_5 H 0.8825 0.6210 0.5880
C49_5 C 0.8317(2) 0.6030(2) 0.59608(15)
H35_5 H 0.8344 0.6130 0.6160
C50_5 C 0.79897(18) 0.5832(2) 0.58315(19)
C51_5 C 0.79501(16) 0.5682(2) 0.55343(19)
H36_5 H 0.7730 0.5550 0.5448
C52_5 C 0.8238(2) 0.5730(2) 0.53662(15)
H37_5 H 0.8211 0.5630 0.5168
C53_5 C 0.7689(3) 0.5776(3) 0.6025(3)
C54_5 C 0.9373(3) 0.4958(3) 0.2664(3)
C55_5 C 0.9526(2) 0.4781(2) 0.2511(2)
C56_5 C 0.9509(3) 0.4717(2) 0.2187(2)
H38_5 H 0.9384 0.4784 0.2058
C57_5 C 0.9669(3) 0.4558(3) 0.2054(2)
H39_5 H 0.9647 0.4514 0.1837
C58_5 C 0.9863(3) 0.4460(3) 0.2233(3)
C59_5 C 0.9877(3) 0.4515(3) 0.2547(2)
H40_5 H 0.9992 0.4437 0.2677
C60_5 C 0.9716(3) 0.4693(3) 0.2682(3)
H41_5 H 0.9746 0.4748 0.2897
H43_5 H 0.9974 0.3961 0.2454
C68_5 C 0.9977(2) 0.3330(3) 0.2479(2)
H45_5 H 0.9770 0.3331 0.2501
H46_5 H 0.9851 0.2924 0.2769
C76_5 C 0.8433(3) 0.4749(3) 0.2945(3)
C77_5 C 0.7806(3) 0.4484(3) 0.2790(3)
H51_5 H 0.7860 0.4698 0.2706
C78_5 C 0.8059(2) 0.4440(3) 0.2944(2)
C79_5 C 0.7958(3) 0.4132(3) 0.3100(3)
H52_5 H 0.8117 0.4105 0.3221
C80_5 C 0.7622(3) 0.3864(2) 0.3076(3)
H53_5 H 0.7560 0.3655 0.3174
C81_5 C 0.7376(2) 0.3900(2) 0.2910(2)
C82_5 C 0.7468(2) 0.4200(3) 0.2764(3)
H54_5 H 0.7306 0.4221 0.2644
C87_5 C 0.6982(4) 0.5072(3) 0.6507(3)
C88_5 C 0.7101(2) 0.4631(3) 0.6724(2)
H57_5 H 0.7278 0.4803 0.6844
C89_5 C 0.7039(3) 0.4294(3) 0.6736(3)
H58_5 H 0.7175 0.4240 0.6864
C90_5 C 0.6773(3) 0.4038(2) 0.6557(3)
C91_5 C 0.6570(3) 0.4118(3) 0.6366(3)
H59_5 H 0.6392 0.3946 0.6246
C92_5 C 0.6632(3) 0.4455(3) 0.6354(2)
H60_5 H 0.6496 0.4508 0.6226
C93_5 C 0.6897(3) 0.4711(2) 0.6533(3)
C94_5 C 0.6709(3) 0.3679(2) 0.6572(4)
C95_5 C 0.6389(3) 0.3382(3) 0.6539(4)
H61_5 H 0.6202 0.3410 0.6490
C96_5 C 0.67452(19) 0.36732(19) 0.2901(2)
H62_5 H 0.6791 0.3901 0.2898
C98_5 C 0.6995(2) 0.3606(2) 0.2904(2)
O17_5 O 0.49967(17) 0.35121(24) 0.27923(17)
O18_5 O 0.52779(17) 0.39317(25) 0.31231(19)
C103_5 C 0.5251(3) 0.3685(4) 0.2945(3)
C104_5 C 0.5516(3) 0.3323(4) 0.2790(3)
H65_5 H 0.5302 0.3163 0.2706
C105_5 C 0.5560(3) 0.3620(4) 0.2944(2)
C106_5 C 0.5868(3) 0.3827(4) 0.3100(3)
H66_5 H 0.5895 0.4013 0.3221
C107_5 C 0.6136(2) 0.3759(4) 0.3076(3)
H67_5 H 0.6345 0.3906 0.3174
C108_5 C 0.6100(2) 0.3477(3) 0.2910(2)
C109_5 C 0.5800(3) 0.3269(4) 0.2764(3)
H68_5 H 0.5779 0.3086 0.2644
C110_5 C 0.63268(19) 0.30721(27) 0.2901(2)
H69_5 H 0.6099 0.2891 0.2898
C111_5 C 0.6394(2) 0.3390(3) 0.2904(2)
O19_5 O 0.64879(24) 0.14847(17) 0.27923(17)
O20_5 O 0.60683(25) 0.13463(19) 0.31231(19)
C112_5 C 0.6315(4) 0.1567(3) 0.2945(3)
C113_5 C 0.6677(4) 0.2194(3) 0.2790(3)
H70_5 H 0.6837 0.2140 0.2706
C114_5 C 0.6380(4) 0.1941(2) 0.2944(2)
C115_5 C 0.6173(4) 0.2042(3) 0.3100(3)
H71_5 H 0.5987 0.1883 0.3221
C116_5 C 0.6241(4) 0.2378(3) 0.3076(3)
H72_5 H 0.6094 0.2440 0.3174
C117_5 C 0.6523(3) 0.2624(2) 0.2910(2)
C118_5 C 0.6731(4) 0.2532(2) 0.2764(3)
H73_5 H 0.6914 0.2694 0.2644
C119_5 C 0.69279(27) 0.32548(19) 0.2901(2)
H74_5 H 0.7109 0.3209 0.2898
C120_5 C 0.6610(3) 0.3005(2) 0.2904(2)
O21_5 O 0.4712(2) 0.1956(4) 0.6640(2)
O22_5 O 0.4838(2) 0.1630(4) 0.6362(2)
C121_5 C 0.4928(3) 0.1911(5) 0.6507(3)
C122_5 C 0.5369(3) 0.2471(4) 0.6724(2)
H75_5 H 0.5197 0.2476 0.6844
C123_5 C 0.5706(3) 0.2746(4) 0.6736(3)
H76_5 H 0.5760 0.2936 0.6864
C124_5 C 0.5962(2) 0.2736(4) 0.6557(3)
C125_5 C 0.5882(3) 0.2453(4) 0.6366(3)
H77_5 H 0.6054 0.2447 0.6246
C126_5 C 0.5545(3) 0.2178(4) 0.6354(2)
H78_5 H 0.5492 0.1989 0.6226
C127_5 C 0.5289(2) 0.2187(4) 0.6533(3)
C128_5 C 0.6321(2) 0.3031(4) 0.6572(4)
C129_5 C 0.6618(3) 0.3008(4) 0.6539(4)
H79_5 H 0.6590 0.2793 0.6490
O23_5 O 0.8044(4) 0.2757(3) 0.6640(2)
O24_5 O 0.8370(4) 0.3209(3) 0.6362(2)
C130_5 C 0.8089(5) 0.3018(4) 0.6507(3)
C131_5 C 0.7529(4) 0.2899(2) 0.6724(2)
H80_5 H 0.7524 0.2722 0.6844
C132_5 C 0.7254(4) 0.2961(3) 0.6736(3)
H81_5 H 0.7064 0.2825 0.6864
C133_5 C 0.7264(4) 0.3227(3) 0.6557(3)
C134_5 C 0.7547(4) 0.3430(3) 0.6366(3)
H82_5 H 0.7553 0.3608 0.6246
C135_5 C 0.7822(4) 0.3368(3) 0.6354(2)
H83_5 H 0.8011 0.3504 0.6226
C136_5 C 0.7813(4) 0.3103(3) 0.6533(3)
C137_5 C 0.6969(4) 0.3291(3) 0.6572(4)
C138_5 C 0.6992(4) 0.3611(3) 0.6539(4)
H84_5 H 0.7207 0.3798 0.6490
In3_4 In 0.47379(2) 0.37962(3) 0.29509(2)
O25_5 O 0.44830(18) 0.33954(27) 0.33446(17)
O26_5 O 0.4661(2) 0.39104(28) 0.34481(15)
O27_5 O 0.4390(3) 0.1792(4) 0.5925(2)
O28_5 O 0.4100(3) 0.1843(4) 0.6313(3)
O29_5 O 0.4962(2) 0.4377(3) 0.29488(19)
O30_5 O 0.4967(2) 0.4142(3) 0.2502(2)
O35_4 O 0.7458(4) 0.7619(6) 0.2842(3)
O36_4 O 0.7083(3) 0.7783(5) 0.2838(3)
C139_5 C 0.4512(3) 0.3612(4) 0.3549(3)
C140_5 C 0.4404(3) 0.3512(4) 0.3878(2)
C141_5 C 0.4281(3) 0.3184(4) 0.3978(2)
H85_5 H 0.4273 0.3023 0.3834
C142_5 C 0.4167(3) 0.3076(4) 0.4288(2)
H86_5 H 0.4085 0.2849 0.4350
C143_5 C 0.4181(3) 0.3321(4) 0.4501(2)
C144_5 C 0.4306(3) 0.3660(4) 0.4404(2)
H87_5 H 0.4321 0.3828 0.4544
C145_5 C 0.4416(3) 0.3745(4) 0.4068(3)
H88_5 H 0.4493 0.3966 0.3994
C146_5 C 0.4062(3) 0.3231(4) 0.4839(2)
C147_5 C 0.4118(3) 0.2984(4) 0.5006(2)
H89_5 H 0.4227 0.2879 0.4906
C148_5 C 0.4008(3) 0.2904(4) 0.5317(2)
C149_5 C 0.3847(3) 0.3058(4) 0.5456(2)
H90_5 H 0.3769 0.2998 0.5664
C150_5 C 0.3791(3) 0.3300(4) 0.5300(2)
C151_5 C 0.3890(3) 0.3382(4) 0.4998(2)
H91_5 H 0.3846 0.3539 0.4892
C152_5 C 0.3615(2) 0.3456(3) 0.5463(2)
C153_5 C 0.3349(2) 0.3288(4) 0.5681(2)
H92_5 H 0.3272 0.3055 0.5719
C154_5 C 0.3715(3) 0.3800(4) 0.5407(3)
H93_5 H 0.3877 0.3922 0.5250
C155_5 C 0.4072(2) 0.26386(26) 0.54955(17)
C156_5 C 0.3922(2) 0.25282(26) 0.57928(18)
H94_5 H 0.3790 0.2616 0.5880
C157_5 C 0.3970(2) 0.2288(3) 0.59608(15)
H95_5 H 0.3870 0.2215 0.6160
C158_5 C 0.4168(2) 0.21581(27) 0.58315(19)
C159_5 C 0.4318(2) 0.22685(26) 0.55343(19)
H96_5 H 0.4450 0.2181 0.5448
C160_5 C 0.4270(2) 0.2509(3) 0.53662(15)
H97_5 H 0.4370 0.2582 0.5168
C161_5 C 0.4224(3) 0.1914(4) 0.6025(3)
C162_5 C 0.5042(3) 0.4416(4) 0.2664(3)
C163_5 C 0.5219(2) 0.4746(3) 0.2511(2)
C164_5 C 0.5283(2) 0.4793(4) 0.2187(2)
H98_5 H 0.5216 0.4601 0.2058
C165_5 C 0.5442(3) 0.5112(4) 0.2054(2)
H99_5 H 0.5486 0.5134 0.1837
C166_5 C 0.5540(3) 0.5404(4) 0.2233(3)
C167_5 C 0.5485(3) 0.5363(4) 0.2547(2)
H100_5 H 0.5563 0.5556 0.2677
C168_5 C 0.5307(3) 0.5024(4) 0.2682(3)
H101_5 H 0.5252 0.4999 0.2897
C169_5 C 0.58051(18) 0.61263(26) 0.16351(12)
C170_5 C 0.60650(18) 0.64065(26) 0.17972(15)
H102_5 H 0.6180 0.6623 0.1701
C171_5 C 0.61527(16) 0.63645(25) 0.21037(15)
C172_5 C 0.59803(18) 0.60420(26) 0.22481(12)
H103_5 H 0.6039 0.6014 0.2454
C173_5 C 0.57204(18) 0.57618(25) 0.20860(14)
C174_5 C 0.56327(16) 0.58038(25) 0.17795(14)
H104_5 H 0.5459 0.5617 0.1671
C175_5 C 0.6427(2) 0.6664(4) 0.2285(2)
C176_5 C 0.6670(3) 0.6648(4) 0.2479(2)
H105_5 H 0.6669 0.6440 0.2501
C177_5 C 0.6913(2) 0.6939(4) 0.2639(2)
H106_5 H 0.7076 0.6928 0.2769
C178_5 C 0.6915(3) 0.7250(4) 0.2607(3)
C179_5 C 0.6672(3) 0.7267(4) 0.2413(3)
H107_5 H 0.6673 0.7474 0.2391
C180_5 C 0.6429(3) 0.6975(4) 0.2252(2)
H108_5 H 0.6267 0.6987 0.2123
C181_5 C 0.5698(3) 0.6157(4) 0.1296(3)
C182_5 C 0.5582(3) 0.5890(4) 0.1087(3)
H109_5 H 0.5562 0.5683 0.1155
C183_5 C 0.5831(7) 0.6499(9) 0.1205(7)
H110_5 H 0.5985 0.6694 0.1318
C184_5 C 0.5435(4) 0.6216(5) 0.0338(2)
C185_5 C 0.5539(6) 0.6204(7) 0.0669(2)
C186_5 C 0.5500(6) 0.5915(7) 0.0801(3)
H111_5 H 0.5408 0.5718 0.0676
C187_5 C 0.5670(6) 0.6489(7) 0.0879(4)
H112_5 H 0.5658 0.6682 0.0817
C188_5 C 0.7176(5) 0.7577(6) 0.2771(3)
C189_5 C 0.3142(4) 0.3956(5) 0.5980(2)
C190_5 C 0.3306(3) 0.3786(4) 0.5797(2)
C191_5 C 0.3190(3) 0.3436(4) 0.5841(2)
H113_5 H 0.3008 0.3305 0.5979
C192_5 C 0.3564(4) 0.3977(5) 0.5595(3)
H114_5 H 0.3646 0.4212 0.5573
In5_4 In 0.62038(3) 0.09418(2) 0.29509(2)
O37_5 O 0.66046(27) 0.1088(2) 0.33446(17)
O38_5 O 0.60896(28) 0.07510(19) 0.34481(15)
O39_5 O 0.8208(4) 0.2599(2) 0.5925(2)
O40_5 O 0.8157(4) 0.2258(2) 0.6313(3)
O41_5 O 0.5623(3) 0.0586(2) 0.29488(19)
O42_5 O 0.5858(3) 0.0826(2) 0.2502(2)
C193_5 C 0.6388(4) 0.0901(3) 0.3549(3)
C194_5 C 0.6488(4) 0.0893(3) 0.3878(2)
C195_5 C 0.6816(4) 0.1098(3) 0.3978(2)
H115_5 H 0.6977 0.1251 0.3834
C196_5 C 0.6924(4) 0.1092(3) 0.4288(2)
H116_5 H 0.7151 0.1237 0.4350
C197_5 C 0.6679(4) 0.0861(2) 0.4501(2)
C198_5 C 0.6340(4) 0.0647(3) 0.4404(2)
H117_5 H 0.6172 0.0494 0.4544
C199_5 C 0.6255(4) 0.0672(3) 0.4068(3)
H118_5 H 0.6034 0.0528 0.3994
C200_5 C 0.6769(4) 0.0832(2) 0.4839(2)
C201_5 C 0.7016(4) 0.1135(3) 0.5006(2)
H119_5 H 0.7121 0.1349 0.4906
C202_5 C 0.7096(4) 0.1105(3) 0.5317(2)
C203_5 C 0.6942(4) 0.0790(3) 0.5456(2)
H120_5 H 0.7002 0.0772 0.5664
C204_5 C 0.6700(4) 0.0492(3) 0.5300(2)
C205_5 C 0.6618(4) 0.0509(3) 0.4998(2)
H121_5 H 0.6461 0.0308 0.4892
C206_5 C 0.6544(3) 0.0160(2) 0.5463(2)
C207_5 C 0.6712(4) 0.0062(3) 0.5681(2)
H122_5 H 0.6945 0.0218 0.5719
C209_5 C 0.73614(26) 0.14338(17) 0.54955(17)
C210_5 C 0.74718(26) 0.13942(17) 0.57928(18)
H124_5 H 0.7384 0.1175 0.5880
C211_5 C 0.7712(3) 0.1683(2) 0.59608(15)
H125_5 H 0.7785 0.1656 0.6160
C212_5 C 0.78419(27) 0.20103(18) 0.58315(19)
C213_5 C 0.77315(26) 0.20499(16) 0.55343(19)
H126_5 H 0.7819 0.2270 0.5448
C214_5 C 0.7491(3) 0.1762(2) 0.53662(15)
H127_5 H 0.7418 0.1789 0.5168
C215_5 C 0.8086(4) 0.2311(3) 0.6025(3)
C216_5 C 0.5584(4) 0.0627(3) 0.2664(3)
C217_5 C 0.5254(3) 0.0474(2) 0.2511(2)
C218_5 C 0.5207(4) 0.0491(3) 0.2187(2)
H128_5 H 0.5399 0.0616 0.2058
C219_5 C 0.4888(4) 0.0331(3) 0.2054(2)
H129_5 H 0.4866 0.0353 0.1837
C220_5 C 0.4596(4) 0.0137(3) 0.2233(3)
C221_5 C 0.4637(4) 0.0123(3) 0.2547(2)
H130_5 H 0.4444 0.0008 0.2677
C222_5 C 0.4976(4) 0.0284(3) 0.2682(3)
H131_5 H 0.5001 0.0254 0.2897
H133_5 H 0.3986 0.0026 0.2454
C230_5 C 0.3352(4) 0.0023(2) 0.2479(2)
H135_5 H 0.3560 0.0230 0.2501
H136_5 H 0.3072 0.0149 0.2769
O49_4 O 0.42131(19) 0.37639(26) 0.28404(18)
O50_4 O 0.62361(26) 0.04491(32) 0.28404(18)
O51_4 O 0.95509(32) 0.57869(19) 0.28404(18)
O52_4 O 0.43462(16) 0.34180(25) 0.26082(17)
O53_4 O 0.65820(25) 0.09281(30) 0.26082(17)
O54_4 O 0.90719(30) 0.56538(16) 0.26082(17)
O55_4 O 0.3969(2) 0.1351(3) 0.68370(19)
O56_4 O 0.8649(3) 0.2617(4) 0.68370(19)
O57_4 O 0.7383(4) 0.6031(2) 0.68370(19)
O58_4 O 0.4338(2) 0.1175(3) 0.6885(2)
O59_4 O 0.8825(3) 0.3162(4) 0.6885(2)
O60_4 O 0.6838(4) 0.5662(2) 0.6885(2)
O47_4 O 0.2381(6) 0.9840(4) 0.2842(3)
O48_4 O 0.2217(5) 0.9301(4) 0.2838(3)
C208_5 C 0.6200(4) 0.9916(3) 0.5407(3)
H123_5 H 0.6078 0.9956 0.5250
C223_5 C 0.38737(26) 0.96789(19) 0.16351(12)
C224_5 C 0.35935(26) 0.96586(19) 0.17972(15)
H132_5 H 0.3377 0.9558 0.1701
C225_5 C 0.36355(25) 0.97883(19) 0.21037(15)
C226_5 C 0.39580(26) 0.99384(19) 0.22481(12)
C227_5 C 0.42382(25) 0.99587(18) 0.20860(14)
C228_5 C 0.41962(25) 0.98290(19) 0.17795(14)
H134_5 H 0.4383 0.9843 0.1671
C229_5 C 0.3336(4) 0.9764(3) 0.2285(2)
C231_5 C 0.3061(4) 0.9975(3) 0.2639(2)
C232_5 C 0.2750(4) 0.9666(3) 0.2607(3)
C233_5 C 0.2733(4) 0.9406(3) 0.2413(3)
H137_5 H 0.2526 0.9200 0.2391
C234_5 C 0.3025(4) 0.9455(2) 0.2252(2)
H138_5 H 0.3013 0.9281 0.2123
C235_5 C 0.3843(4) 0.9542(3) 0.1296(3)
C236_5 C 0.4110(4) 0.9693(3) 0.1087(3)
H139_5 H 0.4317 0.9880 0.1155
C237_5 C 0.3501(9) 0.9333(6) 0.1205(7)
H140_5 H 0.3306 0.9292 0.1318
C238_5 C 0.3784(5) 0.9220(3) 0.0338(2)
C239_5 C 0.3796(7) 0.9336(4) 0.0669(2)
C240_5 C 0.4085(7) 0.9586(4) 0.0801(3)
H141_5 H 0.4282 0.9691 0.0676
C241_5 C 0.3511(7) 0.9182(4) 0.0879(4)
H142_5 H 0.3318 0.8977 0.0817
C242_5 C 0.2423(6) 0.9600(4) 0.2771(3)
C243_5 C 0.6044(5) 0.9187(3) 0.5980(2)
C244_5 C 0.6214(4) 0.9521(2) 0.5797(2)
C245_5 C 0.6564(4) 0.9755(2) 0.5841(2)
H143_5 H 0.6695 0.9704 0.5979
C246_5 C 0.6023(5) 0.9588(3) 0.5595(3)
H144_5 H 0.5788 0.9435 0.5573
O1_6 O 0.2246(2) 0.21836(18) 0.00112(17)
O2_6 O 0.25824(19) 0.2005(2) 0.01147(15)
O3_6 O 0.0735(2) 0.2276(3) 0.2591(2)
O4_6 O 0.1076(2) 0.2566(3) 0.2979(3)
O13_6 O 0.0577(3) 0.1954(2) 0.3306(2)
O14_6 O 0.0125(3) 0.1828(2) 0.3028(2)
C31_6 C 0.2433(3) 0.2154(3) 0.0215(3)
C32_6 C 0.2441(3) 0.2262(3) 0.0544(2)
C33_6 C 0.2236(3) 0.2385(3) 0.0644(2)
H25_6 H 0.2083 0.2393 0.0500
C34_6 C 0.2242(3) 0.2499(3) 0.0954(2)
H26_6 H 0.2097 0.2581 0.1016
C35_6 C 0.2473(2) 0.2485(3) 0.1167(2)
C36_6 C 0.2687(3) 0.2360(3) 0.1070(2)
H27_6 H 0.2840 0.2345 0.1210
C37_6 C 0.2662(3) 0.2250(3) 0.0734(3)
H28_6 H 0.2806 0.2173 0.0660
C38_6 C 0.2502(2) 0.2604(3) 0.1505(2)
C39_6 C 0.2199(3) 0.2548(3) 0.1672(2)
H29_6 H 0.1985 0.2439 0.1572
C40_6 C 0.2229(3) 0.2658(3) 0.1983(2)
C41_6 C 0.2544(3) 0.2819(3) 0.2122(2)
H30_6 H 0.2562 0.2897 0.2330
C42_6 C 0.2842(3) 0.2875(3) 0.1966(2)
C43_6 C 0.2825(3) 0.2776(3) 0.1664(2)
H31_6 H 0.3026 0.2820 0.1558
C44_6 C 0.3174(2) 0.3051(2) 0.2129(2)
C45_6 C 0.3272(3) 0.3317(2) 0.2347(2)
H32_6 H 0.3116 0.3394 0.2385
C46_6 C 0.3418(3) 0.2951(3) 0.2073(3)
H33_6 H 0.3378 0.2789 0.1916
C47_6 C 0.18996(17) 0.2594(2) 0.21621(17)
C48_6 C 0.19392(17) 0.2744(2) 0.24594(18)
H34_6 H 0.2159 0.2876 0.2546
C49_6 C 0.1651(2) 0.2696(2) 0.26274(15)
H35_6 H 0.1678 0.2796 0.2826
C50_6 C 0.13231(18) 0.2498(2) 0.24981(19)
C51_6 C 0.12835(16) 0.2348(2) 0.22009(19)
H36_6 H 0.1064 0.2216 0.2114
C52_6 C 0.1572(2) 0.2396(2) 0.20328(15)
H37_6 H 0.1545 0.2296 0.1834
C53_6 C 0.1023(3) 0.2442(3) 0.2691(3)
C87_6 C 0.0316(4) 0.1738(3) 0.3173(3)
C88_6 C 0.0435(2) 0.1297(3) 0.3390(2)
H57_6 H 0.0612 0.1469 0.3510
C89_6 C 0.0373(3) 0.0960(3) 0.3402(3)
H58_6 H 0.0509 0.0906 0.3530
C90_6 C 0.0107(3) 0.0704(2) 0.3223(3)
C93_6 C 0.0231(3) 0.1377(2) 0.3199(3)
C94_6 C 0.0043(3) 0.0345(2) 0.3238(4)
C99_6 C 0.4147(3) 0.3524(4) 0.2646(2)
C100_6 C 0.3813(2) 0.3360(3) 0.2463(2)
C101_6 C 0.3579(2) 0.3476(3) 0.2507(2)
H63_6 H 0.3630 0.3658 0.2645
C102_6 C 0.3746(3) 0.3102(4) 0.2261(3)
H64_6 H 0.3899 0.3020 0.2239
C134_6 C 0.0881(4) 0.0096(3) 0.3032(3)
H82_6 H 0.0887 0.0274 0.2912
C135_6 C 0.1156(4) 0.0034(3) 0.3020(2)
H83_6 H 0.1345 0.0170 0.2892
C138_6 C 0.0326(4) 0.0277(3) 0.3205(4)
H84_6 H 0.0541 0.0464 0.3156
O5_6 O 0.2748(2) 0.1704(2) 0.96154(19)
O6_6 O 0.2508(2) 0.1699(2) 0.9168(2)
O9_6 O 0.18487(17) 0.16699(17) 0.94589(17)
O10_6 O 0.19871(19) 0.13887(17) 0.97897(19)
C54_6 C 0.2707(3) 0.1624(3) 0.9330(3)
C55_6 C 0.2860(2) 0.1447(2) 0.9177(2)
C56_6 C 0.2843(3) 0.1383(2) 0.8853(2)
H38_6 H 0.2718 0.1450 0.8724
C57_6 C 0.3003(3) 0.1224(3) 0.8720(2)
H39_6 H 0.2981 0.1180 0.8503
C58_6 C 0.3197(3) 0.1126(3) 0.8899(3)
C59_6 C 0.3211(3) 0.1181(3) 0.9213(2)
H40_6 H 0.3326 0.1103 0.9343
C60_6 C 0.3050(3) 0.1359(3) 0.9348(3)
H41_6 H 0.3080 0.1414 0.9563
C61_6 C 0.36545(19) 0.08615(18) 0.83017(12)
C62_6 C 0.36748(19) 0.06016(18) 0.84638(15)
H42_6 H 0.3776 0.0486 0.8367
C63_6 C 0.35451(19) 0.05139(16) 0.87703(15)
C64_6 C 0.33950(19) 0.06863(18) 0.89147(12)
H43_6 H 0.3308 0.0627 0.9120
C65_6 C 0.33747(18) 0.09462(18) 0.87526(14)
C66_6 C 0.35044(19) 0.10339(16) 0.84461(14)
H44_6 H 0.3491 0.1207 0.8337
C67_6 C 0.3570(3) 0.0239(2) 0.8951(2)
C72_6 C 0.3879(2) 0.0237(3) 0.8918(2)
H48_6 H 0.4053 0.0399 0.8789
C73_6 C 0.3792(3) 0.0968(3) 0.7962(3)
C74_6 C 0.3641(3) 0.1084(3) 0.7753(3)
H49_6 H 0.3454 0.1104 0.7821
C75_6 C 0.4001(6) 0.0835(7) 0.7871(7)
H50_6 H 0.4042 0.0681 0.7984
C76_6 C 0.1767(3) 0.1415(3) 0.9611(3)
C77_6 C 0.1140(3) 0.1150(3) 0.9456(3)
H51_6 H 0.1194 0.1364 0.9372
C78_6 C 0.1393(2) 0.1106(3) 0.9610(2)
C79_6 C 0.1292(3) 0.0798(3) 0.9766(3)
H52_6 H 0.1451 0.0771 0.9887
C80_6 C 0.0956(3) 0.0530(2) 0.9742(3)
H53_6 H 0.0894 0.0321 0.9840
C81_6 C 0.0710(2) 0.0566(2) 0.9576(2)
C82_6 C 0.0802(2) 0.0866(3) 0.9430(3)
H54_6 H 0.0640 0.0887 0.9310
C83_6 C 0.4114(3) 0.1231(4) 0.7004(2)
C84_6 C 0.3998(4) 0.1127(6) 0.7335(2)
C85_6 C 0.3748(4) 0.1166(6) 0.7467(3)
H55_6 H 0.3643 0.1258 0.7342
C86_6 C 0.4152(4) 0.0996(6) 0.7545(4)
H56_6 H 0.4357 0.1008 0.7483
C96_6 C 0.00786(19) 0.03398(19) 0.9567(2)
H62_6 H 0.0125 0.0567 0.9564
C98_6 C 0.0329(2) 0.0272(2) 0.9570(2)
C176_6 C 0.0004(3) 0.3314(4) 0.9145(2)
H105_6 H 0.0003 0.3106 0.9167
C177_6 C 0.0247(2) 0.3605(4) 0.9305(2)
H106_6 H 0.0410 0.3594 0.9435
C178_6 C 0.0249(3) 0.3916(4) 0.9273(3)
C179_6 C 0.0006(3) 0.3933(4) 0.9079(3)
H107_6 H 0.0007 0.4140 0.9057
C188_6 C 0.0510(5) 0.4243(6) 0.9437(3)
O23_6 O 0.1378(4) 0.9423(3) 0.3306(2)
O24_6 O 0.1704(4) 0.9875(3) 0.3028(2)
C130_6 C 0.1423(5) 0.9684(4) 0.3173(3)
C131_6 C 0.0863(4) 0.9565(2) 0.3390(2)
H80_6 H 0.0858 0.9388 0.3510
C132_6 C 0.0588(4) 0.9627(3) 0.3402(3)
H81_6 H 0.0398 0.9491 0.3530
C133_6 C 0.0598(4) 0.9893(3) 0.3223(3)
C136_6 C 0.1147(4) 0.9769(3) 0.3199(3)
C137_6 C 0.0303(4) 0.9957(3) 0.3238(4)
O39_6 O 0.1542(4) 0.9265(2) 0.2591(2)
O40_6 O 0.1491(4) 0.8924(2) 0.2979(3)
C195_6 C 0.0150(4) 0.7764(3) 0.0644(2)
H115_6 H 0.0311 0.7917 0.0500
C196_6 C 0.0258(4) 0.7758(3) 0.0954(2)
H116_6 H 0.0485 0.7903 0.1016
C197_6 C 0.0013(4) 0.7527(2) 0.1167(2)
C200_6 C 0.0103(4) 0.7498(2) 0.1505(2)
C201_6 C 0.0350(4) 0.7801(3) 0.1672(2)
H119_6 H 0.0455 0.8015 0.1572
C202_6 C 0.0430(4) 0.7771(3) 0.1983(2)
C203_6 C 0.0276(4) 0.7456(3) 0.2122(2)
H120_6 H 0.0336 0.7438 0.2330
C204_6 C 0.0034(4) 0.7158(3) 0.1966(2)
C207_6 C 0.0046(4) 0.6728(3) 0.2347(2)
H122_6 H 0.0279 0.6884 0.2385
C209_6 C 0.06948(26) 0.81004(17) 0.21621(17)
C210_6 C 0.08052(26) 0.80608(17) 0.24594(18)
H124_6 H 0.0718 0.7841 0.2546
C211_6 C 0.1046(3) 0.8349(2) 0.26274(15)
H125_6 H 0.1119 0.8322 0.2826
C212_6 C 0.11753(27) 0.86769(18) 0.24981(19)
C213_6 C 0.10649(26) 0.87165(16) 0.22009(19)
H126_6 H 0.1153 0.8936 0.2114
C214_6 C 0.0825(3) 0.8428(2) 0.20328(15)
H127_6 H 0.0752 0.8455 0.1834
C215_6 C 0.1420(4) 0.8977(3) 0.2691(3)
H143_6 H 0.0029 0.6370 0.2645
C68_6 C 0.3311(2) 0.9996(3) 0.9145(2)
H45_6 H 0.3104 0.9997 0.9167
C69_6 C 0.3359(3) 0.9753(2) 0.9305(2)
H46_6 H 0.3185 0.9590 0.9435
C70_6 C 0.3668(3) 0.9751(3) 0.9273(3)
C71_6 C 0.3928(3) 0.9994(3) 0.9079(3)
H47_6 H 0.4134 0.9993 0.9057
C97_6 C 0.3734(4) 0.9490(5) 0.9437(3)
C113_6 C 0.0011(4) 0.8860(3) 0.9456(3)
H70_6 H 0.0171 0.8806 0.9372
C118_6 C 0.0065(4) 0.9198(2) 0.9430(3)
H73_6 H 0.0248 0.9360 0.9310
C119_6 C 0.02613(27) 0.99214(19) 0.9567(2)
H74_6 H 0.0443 0.9875 0.9564
C91_6 C 0.9904(3) 0.0784(3) 0.3032(3)
H59_6 H 0.9726 0.0612 0.2912
C92_6 C 0.9966(3) 0.1121(3) 0.3020(2)
H60_6 H 0.9830 0.1174 0.2892
C95_6 C 0.9723(3) 0.0048(3) 0.3205(4)
H61_6 H 0.9536 0.0076 0.3156
O25_6 O 0.78164(18) 0.00620(27) 0.00112(17)
O26_6 O 0.7995(2) 0.05770(28) 0.01147(15)
C139_6 C 0.7846(3) 0.0278(4) 0.0215(3)
C140_6 C 0.7738(3) 0.0178(4) 0.0544(2)
C144_6 C 0.7640(3) 0.0326(4) 0.1070(2)
H87_6 H 0.7655 0.0494 0.1210
C145_6 C 0.7750(3) 0.0411(4) 0.0734(3)
H88_6 H 0.7827 0.0632 0.0660
C151_6 C 0.7224(3) 0.0048(4) 0.1664(2)
H91_6 H 0.7180 0.0205 0.1558
C152_6 C 0.6949(2) 0.0122(3) 0.2129(2)
C154_6 C 0.7049(3) 0.0466(4) 0.2073(3)
H93_6 H 0.7211 0.0588 0.1916
C189_6 C 0.6476(4) 0.0622(5) 0.2646(2)
C190_6 C 0.6640(3) 0.0452(4) 0.2463(2)
C191_6 C 0.6524(3) 0.0102(4) 0.2507(2)
C192_6 C 0.6898(4) 0.0643(5) 0.2261(3)
H114_6 H 0.6980 0.0878 0.2239
O17_6 O 0.83301(17) 0.01787(24) 0.94589(17)
O18_6 O 0.86113(17) 0.05983(25) 0.97897(19)
C103_6 C 0.8585(3) 0.0351(4) 0.9611(3)
C105_6 C 0.8894(3) 0.0286(4) 0.9610(2)
C106_6 C 0.9202(3) 0.0493(4) 0.9766(3)
H66_6 H 0.9229 0.0679 0.9887
C107_6 C 0.9470(2) 0.0425(4) 0.9742(3)
H67_6 H 0.9679 0.0572 0.9840
C108_6 C 0.9434(2) 0.0143(3) 0.9576(2)
C111_6 C 0.9728(2) 0.0056(3) 0.9570(2)
O29_6 O 0.8296(2) 0.1043(3) 0.96154(19)
O30_6 O 0.8301(2) 0.0808(3) 0.9168(2)
C162_6 C 0.8376(3) 0.1082(4) 0.9330(3)
C163_6 C 0.8553(2) 0.1412(3) 0.9177(2)
C164_6 C 0.8617(2) 0.1459(4) 0.8853(2)
H98_6 H 0.8550 0.1267 0.8724
C165_6 C 0.8776(3) 0.1778(4) 0.8720(2)
H99_6 H 0.8820 0.1800 0.8503
C166_6 C 0.8874(3) 0.2070(4) 0.8899(3)
C167_6 C 0.8819(3) 0.2029(4) 0.9213(2)
H100_6 H 0.8897 0.2222 0.9343
C168_6 C 0.8641(3) 0.1690(4) 0.9348(3)
H101_6 H 0.8586 0.1665 0.9563
C169_6 C 0.91385(18) 0.27929(26) 0.83017(12)
C170_6 C 0.93984(18) 0.30731(26) 0.84638(15)
H102_6 H 0.9514 0.3289 0.8367
C171_6 C 0.94861(16) 0.30311(25) 0.87703(15)
C172_6 C 0.93137(18) 0.27086(26) 0.89147(12)
H103_6 H 0.9373 0.2680 0.9120
C173_6 C 0.90538(18) 0.24284(25) 0.87526(14)
C174_6 C 0.89661(16) 0.24704(25) 0.84461(14)
H104_6 H 0.8793 0.2283 0.8337
C175_6 C 0.9761(2) 0.3330(4) 0.8951(2)
C180_6 C 0.9763(3) 0.3641(4) 0.8918(2)
H108_6 H 0.9601 0.3653 0.8789
C181_6 C 0.9032(3) 0.2823(4) 0.7962(3)
C182_6 C 0.8916(3) 0.2556(4) 0.7753(3)
H109_6 H 0.8896 0.2349 0.7821
C183_6 C 0.9165(7) 0.3165(9) 0.7871(7)
H110_6 H 0.9319 0.3360 0.7984
C184_6 C 0.8769(4) 0.2882(5) 0.7004(2)
C185_6 C 0.8873(6) 0.2870(7) 0.7335(2)
C186_6 C 0.8834(6) 0.2581(7) 0.7467(3)
H111_6 H 0.8742 0.2384 0.7342
C187_6 C 0.9004(6) 0.3155(7) 0.7545(4)
H112_6 H 0.8992 0.3348 0.7483
O21_6 O 0.8046(2) 0.8622(4) 0.3306(2)
O22_6 O 0.8172(2) 0.8296(4) 0.3028(2)
C121_6 C 0.8262(3) 0.8577(5) 0.3173(3)
C122_6 C 0.8703(3) 0.9137(4) 0.3390(2)
H75_6 H 0.8531 0.9142 0.3510
C123_6 C 0.9040(3) 0.9412(4) 0.3402(3)
H76_6 H 0.9094 0.9602 0.3530
C124_6 C 0.9296(2) 0.9402(4) 0.3223(3)
C125_6 C 0.9216(3) 0.9119(4) 0.3032(3)
H77_6 H 0.9388 0.9113 0.2912
C126_6 C 0.8879(3) 0.8844(4) 0.3020(2)
H78_6 H 0.8826 0.8655 0.2892
C127_6 C 0.8623(2) 0.8853(4) 0.3199(3)
C128_6 C 0.9655(2) 0.9697(4) 0.3238(4)
C129_6 C 0.9952(3) 0.9674(4) 0.3205(4)
H79_6 H 0.9924 0.9459 0.3156
O27_6 O 0.7724(3) 0.8458(4) 0.2591(2)
O28_6 O 0.7434(3) 0.8509(4) 0.2979(3)
C141_6 C 0.7615(3) 0.9850(4) 0.0644(2)
H85_6 H 0.7607 0.9689 0.0500
C142_6 C 0.7501(3) 0.9742(4) 0.0954(2)
H86_6 H 0.7419 0.9515 0.1016
C143_6 C 0.7515(3) 0.9987(4) 0.1167(2)
C146_6 C 0.7396(3) 0.9897(4) 0.1505(2)
C147_6 C 0.7452(3) 0.9650(4) 0.1672(2)
H89_6 H 0.7561 0.9545 0.1572
C148_6 C 0.7342(3) 0.9570(4) 0.1983(2)
C149_6 C 0.7181(3) 0.9724(4) 0.2122(2)
H90_6 H 0.7103 0.9664 0.2330
C150_6 C 0.7125(3) 0.9966(4) 0.1966(2)
C153_6 C 0.6683(2) 0.9954(4) 0.2347(2)
H92_6 H 0.6606 0.9721 0.2385
C155_6 C 0.7406(2) 0.93052(26) 0.21621(17)
C156_6 C 0.7256(2) 0.91948(26) 0.24594(18)
H94_6 H 0.7124 0.9282 0.2546
C157_6 C 0.7304(2) 0.8954(3) 0.26274(15)
H95_6 H 0.7204 0.8881 0.2826
C158_6 C 0.7502(2) 0.88247(27) 0.24981(19)
C159_6 C 0.7652(2) 0.89351(26) 0.22009(19)
H96_6 H 0.7784 0.8847 0.2114
C160_6 C 0.7604(2) 0.9175(3) 0.20328(15)
H97_6 H 0.7704 0.9248 0.1834
C161_6 C 0.7558(3) 0.8580(4) 0.2691(3)
H113_6 H 0.6342 0.9971 0.2645
O37_6 O 0.99380(27) 0.7754(2) 0.00112(17)
O38_6 O 0.94230(28) 0.74176(19) 0.01147(15)
C193_6 C 0.9722(4) 0.7567(3) 0.0215(3)
C194_6 C 0.9822(4) 0.7559(3) 0.0544(2)
C198_6 C 0.9674(4) 0.7313(3) 0.1070(2)
H117_6 H 0.9506 0.7160 0.1210
C199_6 C 0.9589(4) 0.7338(3) 0.0734(3)
H118_6 H 0.9368 0.7194 0.0660
C205_6 C 0.9952(4) 0.7175(3) 0.1664(2)
H121_6 H 0.9795 0.6974 0.1558
C206_6 C 0.9878(3) 0.6826(2) 0.2129(2)
C208_6 C 0.9534(4) 0.6582(3) 0.2073(3)
H123_6 H 0.9412 0.6622 0.1916
C243_6 C 0.9378(5) 0.5853(3) 0.2646(2)
C244_6 C 0.9548(4) 0.6187(2) 0.2463(2)
C245_6 C 0.9898(4) 0.6421(2) 0.2507(2)
C246_6 C 0.9357(5) 0.6254(3) 0.2261(3)
H144_6 H 0.9122 0.6101 0.2239
C104_6 C 0.8850(3) 0.9989(4) 0.9456(3)
H65_6 H 0.8636 0.9829 0.9372
C109_6 C 0.9134(3) 0.9935(4) 0.9430(3)
H68_6 H 0.9113 0.9752 0.9310
C110_6 C 0.96602(19) 0.97387(27) 0.9567(2)
H69_6 H 0.9433 0.9557 0.9564
O19_6 O 0.98213(24) 0.81513(17) 0.94589(17)
O20_6 O 0.94017(25) 0.80129(19) 0.97897(19)
C112_6 C 0.9649(4) 0.8233(3) 0.9611(3)
C114_6 C 0.9714(4) 0.8607(2) 0.9610(2)
C115_6 C 0.9507(4) 0.8708(3) 0.9766(3)
H71_6 H 0.9321 0.8549 0.9887
C116_6 C 0.9575(4) 0.9044(3) 0.9742(3)
H72_6 H 0.9428 0.9106 0.9840
C117_6 C 0.9857(3) 0.9290(2) 0.9576(2)
C120_6 C 0.9944(3) 0.9671(2) 0.9570(2)
O41_6 O 0.8957(3) 0.7252(2) 0.96154(19)
O42_6 O 0.9192(3) 0.7492(2) 0.9168(2)
C216_6 C 0.8918(4) 0.7293(3) 0.9330(3)
C217_6 C 0.8588(3) 0.7140(2) 0.9177(2)
C218_6 C 0.8541(4) 0.7157(3) 0.8853(2)
H128_6 H 0.8733 0.7282 0.8724
C219_6 C 0.8222(4) 0.6997(3) 0.8720(2)
H129_6 H 0.8200 0.7019 0.8503
C220_6 C 0.7930(4) 0.6803(3) 0.8899(3)
C221_6 C 0.7971(4) 0.6789(3) 0.9213(2)
H130_6 H 0.7778 0.6674 0.9343
C222_6 C 0.8310(4) 0.6950(3) 0.9348(3)
H131_6 H 0.8335 0.6920 0.9563
C223_6 C 0.72071(26) 0.63455(19) 0.83017(12)
C224_6 C 0.69269(26) 0.63252(19) 0.84638(15)
H132_6 H 0.6711 0.6224 0.8367
C225_6 C 0.69689(25) 0.64549(19) 0.87703(15)
C226_6 C 0.72914(26) 0.66050(19) 0.89147(12)
H133_6 H 0.7320 0.6692 0.9120
C227_6 C 0.75716(25) 0.66253(18) 0.87526(14)
C228_6 C 0.75296(25) 0.64956(19) 0.84461(14)
H134_6 H 0.7717 0.6509 0.8337
C229_6 C 0.6670(4) 0.6430(3) 0.8951(2)
C230_6 C 0.6686(4) 0.6689(2) 0.9145(2)
H135_6 H 0.6894 0.6896 0.9167
C231_6 C 0.6395(4) 0.6641(3) 0.9305(2)
H136_6 H 0.6406 0.6815 0.9435
C232_6 C 0.6084(4) 0.6332(3) 0.9273(3)
C233_6 C 0.6067(4) 0.6072(3) 0.9079(3)
H137_6 H 0.5860 0.5866 0.9057
C234_6 C 0.6359(4) 0.6121(2) 0.8918(2)
H138_6 H 0.6347 0.5947 0.8789
C235_6 C 0.7177(4) 0.6208(3) 0.7962(3)
C236_6 C 0.7444(4) 0.6359(3) 0.7753(3)
H139_6 H 0.7651 0.6546 0.7821
C237_6 C 0.6835(9) 0.5999(6) 0.7871(7)
H140_6 H 0.6640 0.5958 0.7984
C238_6 C 0.7118(5) 0.5886(3) 0.7004(2)
C239_6 C 0.7130(7) 0.6002(4) 0.7335(2)
C240_6 C 0.7419(7) 0.6252(4) 0.7467(3)
H141_6 H 0.7616 0.6357 0.7342
C241_6 C 0.6845(7) 0.5848(4) 0.7545(4)
H142_6 H 0.6652 0.5643 0.7483
C242_6 C 0.5757(6) 0.6266(4) 0.9437(3)
loop_
_geom_bond_atom_site_label_1
_geom_bond_atom_site_label_2
_geom_bond_site_symmetry_1
_geom_bond_site_symmetry_2
Ru1 N1 1_555 1_555
N1 C1 1_555 1_555
C1 H1 1_555 1_555
C2 C1 1_555 1_555
H2 C2 1_555 1_555
C3 C2 1_555 1_555
H3 C3 1_555 1_555
C4 C3 1_555 1_555
H4 C4 1_555 1_555
C5 N1 1_555 1_555
N2 Ru1 1_555 1_555
C6 C5 1_555 1_555
C7 C6 1_555 1_555
H5 C7 1_555 1_555
C8 C7 1_555 1_555
H6 C8 1_555 1_555
C9 C8 1_555 1_555
C10 N2 1_555 1_555
N4 Ru1 1_555 1_555
H14 C18 1_555 1_555
C19 C18 1_555 1_555
H15 C19 1_555 1_555
C20 N4 1_555 1_555
H16 C20 1_555 1_555
N5 Ru1 1_555 1_555
C21 N5 1_555 1_555
H17 C21 1_555 1_555
C22 C21 1_555 1_555
H18 C22 1_555 1_555
C23 C22 1_555 1_555
H19 C23 1_555 1_555
C24 C23 1_555 1_555
H20 C24 1_555 1_555
C25 N5 1_555 1_555
N6 Ru1 1_555 1_555
C26 C25 1_555 1_555
C27 C26 1_555 1_555
C28 C27 1_555 1_555
C29 C28 1_555 1_555
H23 C29 1_555 1_555
C30 N6 1_555 1_555
H24 C30 1_555 1_555
C4 C5 1_555 1_555
N2 C6 1_555 1_555
C9 C10 1_555 1_555
C19 C20 1_555 1_555
C24 C25 1_555 1_555
N6 C26 1_555 1_555
C29 C30 1_555 1_555
C11 N3 1_555 1_555
H9 C11 1_555 1_555
C12 C11 1_555 1_555
H10 C12 1_555 1_555
C13 C12 1_555 1_555
H11 C13 1_555 1_555
C14 C13 1_555 1_555
H12 C14 1_555 1_555
C15 N3 1_555 1_555
C16 C15 1_555 1_555
C17 C16 1_555 1_555
H13 C17 1_555 1_555
C14 C15 1_555 1_555
Ru1_2 N1_2 1_555 1_555
N1_2 C1_2 1_555 1_555
C1_2 H1_2 1_555 1_555
C2_2 C1_2 1_555 1_555
H2_2 C2_2 1_555 1_555
C3_2 C2_2 1_555 1_555
H3_2 C3_2 1_555 1_555
C4_2 C3_2 1_555 1_555
H4_2 C4_2 1_555 1_555
C5_2 N1_2 1_555 1_555
N2_2 Ru1_2 1_555 1_555
C6_2 C5_2 1_555 1_555
C7_2 C6_2 1_555 1_555
H5_2 C7_2 1_555 1_555
C8_2 C7_2 1_555 1_555
H6_2 C8_2 1_555 1_555
C9_2 C8_2 1_555 1_555
C10_2 N2_2 1_555 1_555
N4_2 Ru1_2 1_555 1_555
H14_2 C18_2 1_555 1_555
C19_2 C18_2 1_555 1_555
H15_2 C19_2 1_555 1_555
C20_2 N4_2 1_555 1_555
H16_2 C20_2 1_555 1_555
N5_2 Ru1_2 1_555 1_555
C21_2 N5_2 1_555 1_555
H17_2 C21_2 1_555 1_555
C22_2 C21_2 1_555 1_555
H18_2 C22_2 1_555 1_555
C23_2 C22_2 1_555 1_555
H19_2 C23_2 1_555 1_555
C24_2 C23_2 1_555 1_555
H20_2 C24_2 1_555 1_555
C25_2 N5_2 1_555 1_555
N6_2 Ru1_2 1_555 1_555
C26_2 C25_2 1_555 1_555
C27_2 C26_2 1_555 1_555
C28_2 C27_2 1_555 1_555
C29_2 C28_2 1_555 1_555
H23_2 C29_2 1_555 1_555
C30_2 N6_2 1_555 1_555
H24_2 C30_2 1_555 1_555
C4_2 C5_2 1_555 1_555
N2_2 C6_2 1_555 1_555
C9_2 C10_2 1_555 1_555
C19_2 C20_2 1_555 1_555
C24_2 C25_2 1_555 1_555
N6_2 C26_2 1_555 1_555
C29_2 C30_2 1_555 1_555
C11_2 N3_2 1_555 1_555
H9_2 C11_2 1_555 1_555
C12_2 C11_2 1_555 1_555
H10_2 C12_2 1_555 1_555
C13_2 C12_2 1_555 1_555
H11_2 C13_2 1_555 1_555
C14_2 C13_2 1_555 1_555
H12_2 C14_2 1_555 1_555
C15_2 N3_2 1_555 1_555
C16_2 C15_2 1_555 1_555
C17_2 C16_2 1_555 1_555
H13_2 C17_2 1_555 1_555
C14_2 C15_2 1_555 1_555
Ru1_3 N1_3 1_555 1_555
N1_3 C1_3 1_555 1_555
C1_3 H1_3 1_555 1_555
C2_3 C1_3 1_555 1_555
H2_3 C2_3 1_555 1_555
C3_3 C2_3 1_555 1_555
H3_3 C3_3 1_555 1_555
C4_3 C3_3 1_555 1_555
H4_3 C4_3 1_555 1_555
C5_3 N1_3 1_555 1_555
N2_3 Ru1_3 1_555 1_555
C6_3 C5_3 1_555 1_555
C7_3 C6_3 1_555 1_555
H5_3 C7_3 1_555 1_555
C8_3 C7_3 1_555 1_555
H6_3 C8_3 1_555 1_555
C9_3 C8_3 1_555 1_555
C10_3 N2_3 1_555 1_555
N4_3 Ru1_3 1_555 1_555
H14_3 C18_3 1_555 1_555
C19_3 C18_3 1_555 1_555
H15_3 C19_3 1_555 1_555
C20_3 N4_3 1_555 1_555
H16_3 C20_3 1_555 1_555
N5_3 Ru1_3 1_555 1_555
C21_3 N5_3 1_555 1_555
H17_3 C21_3 1_555 1_555
C22_3 C21_3 1_555 1_555
H18_3 C22_3 1_555 1_555
C23_3 C22_3 1_555 1_555
H19_3 C23_3 1_555 1_555
C24_3 C23_3 1_555 1_555
H20_3 C24_3 1_555 1_555
C25_3 N5_3 1_555 1_555
N6_3 Ru1_3 1_555 1_555
C26_3 C25_3 1_555 1_555
C27_3 C26_3 1_555 1_555
H21_3 C27_3 1_555 1_555
C28_3 C27_3 1_555 1_555
H22_3 C28_3 1_555 1_555
C29_3 C28_3 1_555 1_555
H23_3 C29_3 1_555 1_555
C30_3 N6_3 1_555 1_555
H24_3 C30_3 1_555 1_555
C4_3 C5_3 1_555 1_555
N2_3 C6_3 1_555 1_555
C9_3 C10_3 1_555 1_555
C19_3 C20_3 1_555 1_555
C24_3 C25_3 1_555 1_555
N6_3 C26_3 1_555 1_555
C29_3 C30_3 1_555 1_555
C11_3 N3_3 1_555 1_555
H9_3 C11_3 1_555 1_555
C12_3 C11_3 1_555 1_555
H10_3 C12_3 1_555 1_555
C13_3 C12_3 1_555 1_555
H11_3 C13_3 1_555 1_555
C14_3 C13_3 1_555 1_555
H12_3 C14_3 1_555 1_555
C15_3 N3_3 1_555 1_555
C16_3 C15_3 1_555 1_555
C17_3 C16_3 1_555 1_555
H13_3 C17_3 1_555 1_555
C14_3 C15_3 1_555 1_555
Ru1_4 N1_4 1_555 1_555
N1_4 C1_4 1_555 1_555
C1_4 H1_4 1_555 1_555
C2_4 C1_4 1_555 1_555
H2_4 C2_4 1_555 1_555
C3_4 C2_4 1_555 1_555
H3_4 C3_4 1_555 1_555
C4_4 C3_4 1_555 1_555
H4_4 C4_4 1_555 1_555
C5_4 N1_4 1_555 1_555
N2_4 Ru1_4 1_555 1_555
C6_4 C5_4 1_555 1_555
C7_4 C6_4 1_555 1_555
H5_4 C7_4 1_555 1_555
C8_4 C7_4 1_555 1_555
H6_4 C8_4 1_555 1_555
C9_4 C8_4 1_555 1_555
H7_4 C9_4 1_555 1_555
C10_4 N2_4 1_555 1_555
H8_4 C10_4 1_555 1_555
N3_4 Ru1_4 1_555 1_555
C11_4 N3_4 1_555 1_555
H9_4 C11_4 1_555 1_555
C12_4 C11_4 1_555 1_555
H10_4 C12_4 1_555 1_555
C13_4 C12_4 1_555 1_555
H11_4 C13_4 1_555 1_555
C14_4 C13_4 1_555 1_555
H12_4 C14_4 1_555 1_555
C15_4 N3_4 1_555 1_555
N4_4 Ru1_4 1_555 1_555
C16_4 C15_4 1_555 1_555
C17_4 C16_4 1_555 1_555
H13_4 C17_4 1_555 1_555
C18_4 C17_4 1_555 1_555
H14_4 C18_4 1_555 1_555
C19_4 C18_4 1_555 1_555
H15_4 C19_4 1_555 1_555
C20_4 N4_4 1_555 1_555
H16_4 C20_4 1_555 1_555
N5_4 Ru1_4 1_555 1_555
C21_4 N5_4 1_555 1_555
H17_4 C21_4 1_555 1_555
C25_4 N5_4 1_555 1_555
N6_4 Ru1_4 1_555 1_555
C26_4 C25_4 1_555 1_555
C27_4 C26_4 1_555 1_555
C28_4 C27_4 1_555 1_555
H22_4 C28_4 1_555 1_555
C29_4 C28_4 1_555 1_555
H23_4 C29_4 1_555 1_555
C30_4 N6_4 1_555 1_555
H24_4 C30_4 1_555 1_555
C4_4 C5_4 1_555 1_555
N2_4 C6_4 1_555 1_555
C9_4 C10_4 1_555 1_555
C14_4 C15_4 1_555 1_555
N4_4 C16_4 1_555 1_555
C19_4 C20_4 1_555 1_555
N6_4 C26_4 1_555 1_555
C29_4 C30_4 1_555 1_555
H18_4 C22_4 1_555 1_555
C23_4 C22_4 1_555 1_555
H19_4 C23_4 1_555 1_555
C24_4 C23_4 1_555 1_555
H20_4 C24_4 1_555 1_555
Ru1_5 N1_5 1_555 1_555
N1_5 C1_5 1_555 1_555
C1_5 H1_5 1_555 1_555
C2_5 C1_5 1_555 1_555
H2_5 C2_5 1_555 1_555
C3_5 C2_5 1_555 1_555
H3_5 C3_5 1_555 1_555
C4_5 C3_5 1_555 1_555
H4_5 C4_5 1_555 1_555
C5_5 N1_5 1_555 1_555
N2_5 Ru1_5 1_555 1_555
C6_5 C5_5 1_555 1_555
C7_5 C6_5 1_555 1_555
H5_5 C7_5 1_555 1_555
C8_5 C7_5 1_555 1_555
H6_5 C8_5 1_555 1_555
C9_5 C8_5 1_555 1_555
H7_5 C9_5 1_555 1_555
C10_5 N2_5 1_555 1_555
H8_5 C10_5 1_555 1_555
N3_5 Ru1_5 1_555 1_555
C11_5 N3_5 1_555 1_555
H9_5 C11_5 1_555 1_555
C12_5 C11_5 1_555 1_555
H10_5 C12_5 1_555 1_555
C13_5 C12_5 1_555 1_555
H11_5 C13_5 1_555 1_555
C14_5 C13_5 1_555 1_555
H12_5 C14_5 1_555 1_555
C15_5 N3_5 1_555 1_555
N4_5 Ru1_5 1_555 1_555
C16_5 C15_5 1_555 1_555
C17_5 C16_5 1_555 1_555
H13_5 C17_5 1_555 1_555
C18_5 C17_5 1_555 1_555
H14_5 C18_5 1_555 1_555
C19_5 C18_5 1_555 1_555
H15_5 C19_5 1_555 1_555
C20_5 N4_5 1_555 1_555
H16_5 C20_5 1_555 1_555
N5_5 Ru1_5 1_555 1_555
C21_5 N5_5 1_555 1_555
H17_5 C21_5 1_555 1_555
C22_5 C21_5 1_555 1_555
H18_5 C22_5 1_555 1_555
C23_5 C22_5 1_555 1_555
H19_5 C23_5 1_555 1_555
C24_5 C23_5 1_555 1_555
H20_5 C24_5 1_555 1_555
C25_5 N5_5 1_555 1_555
N6_5 Ru1_5 1_555 1_555
C26_5 C25_5 1_555 1_555
C27_5 C26_5 1_555 1_555
H21_5 C27_5 1_555 1_555
C28_5 C27_5 1_555 1_555
H22_5 C28_5 1_555 1_555
C29_5 C28_5 1_555 1_555
H23_5 C29_5 1_555 1_555
C30_5 N6_5 1_555 1_555
H24_5 C30_5 1_555 1_555
C4_5 C5_5 1_555 1_555
N2_5 C6_5 1_555 1_555
C9_5 C10_5 1_555 1_555
C14_5 C15_5 1_555 1_555
N4_5 C16_5 1_555 1_555
C19_5 C20_5 1_555 1_555
C24_5 C25_5 1_555 1_555
N6_5 C26_5 1_555 1_555
C29_5 C30_5 1_555 1_555
H18_6 C22_6 1_555 1_555
C23_6 C22_6 1_555 1_555
H19_6 C23_6 1_555 1_555
C24_6 C23_6 1_555 1_555
H20_6 C24_6 1_555 1_555
Ru1_6 N1_6 1_555 1_555
N1_6 C1_6 1_555 1_555
C1_6 H1_6 1_555 1_555
C2_6 C1_6 1_555 1_555
H2_6 C2_6 1_555 1_555
C3_6 C2_6 1_555 1_555
H3_6 C3_6 1_555 1_555
C4_6 C3_6 1_555 1_555
H4_6 C4_6 1_555 1_555
C5_6 N1_6 1_555 1_555
N2_6 Ru1_6 1_555 1_555
C6_6 C5_6 1_555 1_555
C7_6 C6_6 1_555 1_555
H5_6 C7_6 1_555 1_555
C8_6 C7_6 1_555 1_555
H6_6 C8_6 1_555 1_555
C9_6 C8_6 1_555 1_555
H7_6 C9_6 1_555 1_555
C10_6 N2_6 1_555 1_555
H8_6 C10_6 1_555 1_555
N3_6 Ru1_6 1_555 1_555
C11_6 N3_6 1_555 1_555
H9_6 C11_6 1_555 1_555
C12_6 C11_6 1_555 1_555
H10_6 C12_6 1_555 1_555
C13_6 C12_6 1_555 1_555
H11_6 C13_6 1_555 1_555
C14_6 C13_6 1_555 1_555
H12_6 C14_6 1_555 1_555
C15_6 N3_6 1_555 1_555
N4_6 Ru1_6 1_555 1_555
C16_6 C15_6 1_555 1_555
C17_6 C16_6 1_555 1_555
H13_6 C17_6 1_555 1_555
C18_6 C17_6 1_555 1_555
H14_6 C18_6 1_555 1_555
C19_6 C18_6 1_555 1_555
H15_6 C19_6 1_555 1_555
C20_6 N4_6 1_555 1_555
H16_6 C20_6 1_555 1_555
N5_6 Ru1_6 1_555 1_555
C21_6 N5_6 1_555 1_555
H17_6 C21_6 1_555 1_555
C25_6 N5_6 1_555 1_555
N6_6 Ru1_6 1_555 1_555
C26_6 C25_6 1_555 1_555
C27_6 C26_6 1_555 1_555
C28_6 C27_6 1_555 1_555
H22_6 C28_6 1_555 1_555
C29_6 C28_6 1_555 1_555
H23_6 C29_6 1_555 1_555
C30_6 N6_6 1_555 1_555
H24_6 C30_6 1_555 1_555
C4_6 C5_6 1_555 1_555
N2_6 C6_6 1_555 1_555
C9_6 C10_6 1_555 1_555
C14_6 C15_6 1_555 1_555
N4_6 C16_6 1_555 1_555
C19_6 C20_6 1_555 1_555
N6_6 C26_6 1_555 1_555
C29_6 C30_6 1_555 1_555
Ru1_7 N1_7 1_555 1_555
N1_7 C1_7 1_555 1_555
C1_7 H1_7 1_555 1_555
C2_7 C1_7 1_555 1_555
H2_7 C2_7 1_555 1_555
C3_7 C2_7 1_555 1_555
H3_7 C3_7 1_555 1_555
C4_7 C3_7 1_555 1_555
H4_7 C4_7 1_555 1_555
C5_7 N1_7 1_555 1_555
N2_7 Ru1_7 1_555 1_555
C6_7 C5_7 1_555 1_555
C7_7 C6_7 1_555 1_555
H5_7 C7_7 1_555 1_555
C8_7 C7_7 1_555 1_555
H6_7 C8_7 1_555 1_555
C9_7 C8_7 1_555 1_555
H7_7 C9_7 1_555 1_555
C10_7 N2_7 1_555 1_555
H8_7 C10_7 1_555 1_555
N3_7 Ru1_7 1_555 1_555
C11_7 N3_7 1_555 1_555
H9_7 C11_7 1_555 1_555
C12_7 C11_7 1_555 1_555
H10_7 C12_7 1_555 1_555
C13_7 C12_7 1_555 1_555
H11_7 C13_7 1_555 1_555
C14_7 C13_7 1_555 1_555
H12_7 C14_7 1_555 1_555
C15_7 N3_7 1_555 1_555
N4_7 Ru1_7 1_555 1_555
C16_7 C15_7 1_555 1_555
C17_7 C16_7 1_555 1_555
H13_7 C17_7 1_555 1_555
C18_7 C17_7 1_555 1_555
H14_7 C18_7 1_555 1_555
C19_7 C18_7 1_555 1_555
H15_7 C19_7 1_555 1_555
C20_7 N4_7 1_555 1_555
H16_7 C20_7 1_555 1_555
N5_7 Ru1_7 1_555 1_555
C21_7 N5_7 1_555 1_555
H17_7 C21_7 1_555 1_555
C22_7 C21_7 1_555 1_555
H18_7 C22_7 1_555 1_555
C23_7 C22_7 1_555 1_555
H19_7 C23_7 1_555 1_555
C24_7 C23_7 1_555 1_555
H20_7 C24_7 1_555 1_555
C25_7 N5_7 1_555 1_555
N6_7 Ru1_7 1_555 1_555
C26_7 C25_7 1_555 1_555
C27_7 C26_7 1_555 1_555
H21_7 C27_7 1_555 1_555
C28_7 C27_7 1_555 1_555
H22_7 C28_7 1_555 1_555
C29_7 C28_7 1_555 1_555
H23_7 C29_7 1_555 1_555
C30_7 N6_7 1_555 1_555
H24_7 C30_7 1_555 1_555
C4_7 C5_7 1_555 1_555
N2_7 C6_7 1_555 1_555
C9_7 C10_7 1_555 1_555
C14_7 C15_7 1_555 1_555
N4_7 C16_7 1_555 1_555
C19_7 C20_7 1_555 1_555
C24_7 C25_7 1_555 1_555
N6_7 C26_7 1_555 1_555
C29_7 C30_7 1_555 1_555
C7_8 C6_8 1_555 1_555
H5_8 C7_8 1_555 1_555
C8_8 C7_8 1_555 1_555
H6_8 C8_8 1_555 1_555
C9_8 C8_8 1_555 1_555
H7_8 C9_8 1_555 1_555
H8_8 C10_8 1_555 1_555
C28_8 C27_8 1_555 1_555
H22_8 C28_8 1_555 1_555
C29_8 C28_8 1_555 1_555
H23_8 C29_8 1_555 1_555
H24_8 C30_8 1_555 1_555
C9_8 C10_8 1_555 1_555
C29_8 C30_8 1_555 1_555
Ru1_8 N1_8 1_555 1_555
N1_8 C1_8 1_555 1_555
C1_8 H1_8 1_555 1_555
C2_8 C1_8 1_555 1_555
H2_8 C2_8 1_555 1_555
C3_8 C2_8 1_555 1_555
H3_8 C3_8 1_555 1_555
C4_8 C3_8 1_555 1_555
H4_8 C4_8 1_555 1_555
C5_8 N1_8 1_555 1_555
N2_8 Ru1_8 1_555 1_555
N3_8 Ru1_8 1_555 1_555
C11_8 N3_8 1_555 1_555
H9_8 C11_8 1_555 1_555
C12_8 C11_8 1_555 1_555
H10_8 C12_8 1_555 1_555
C13_8 C12_8 1_555 1_555
H11_8 C13_8 1_555 1_555
C14_8 C13_8 1_555 1_555
H12_8 C14_8 1_555 1_555
C15_8 N3_8 1_555 1_555
N4_8 Ru1_8 1_555 1_555
C16_8 C15_8 1_555 1_555
C17_8 C16_8 1_555 1_555
H13_8 C17_8 1_555 1_555
C18_8 C17_8 1_555 1_555
H14_8 C18_8 1_555 1_555
C19_8 C18_8 1_555 1_555
H15_8 C19_8 1_555 1_555
C20_8 N4_8 1_555 1_555
H16_8 C20_8 1_555 1_555
N5_8 Ru1_8 1_555 1_555
C21_8 N5_8 1_555 1_555
H17_8 C21_8 1_555 1_555
C22_8 C21_8 1_555 1_555
H18_8 C22_8 1_555 1_555
C23_8 C22_8 1_555 1_555
H19_8 C23_8 1_555 1_555
C24_8 C23_8 1_555 1_555
H20_8 C24_8 1_555 1_555
C25_8 N5_8 1_555 1_555
N6_8 Ru1_8 1_555 1_555
C26_8 C25_8 1_555 1_555
C4_8 C5_8 1_555 1_555
C14_8 C15_8 1_555 1_555
N4_8 C16_8 1_555 1_555
C19_8 C20_8 1_555 1_555
C24_8 C25_8 1_555 1_555
N6_8 C26_8 1_555 1_555
Ru1_9 N1_9 1_555 1_555
N1_9 C1_9 1_555 1_555
C1_9 H1_9 1_555 1_555
C2_9 C1_9 1_555 1_555
H2_9 C2_9 1_555 1_555
C3_9 C2_9 1_555 1_555
H3_9 C3_9 1_555 1_555
C4_9 C3_9 1_555 1_555
H4_9 C4_9 1_555 1_555
C5_9 N1_9 1_555 1_555
N2_9 Ru1_9 1_555 1_555
N3_9 Ru1_9 1_555 1_555
C11_9 N3_9 1_555 1_555
H9_9 C11_9 1_555 1_555
C12_9 C11_9 1_555 1_555
H10_9 C12_9 1_555 1_555
C13_9 C12_9 1_555 1_555
H11_9 C13_9 1_555 1_555
C14_9 C13_9 1_555 1_555
H12_9 C14_9 1_555 1_555
C15_9 N3_9 1_555 1_555
N4_9 Ru1_9 1_555 1_555
C16_9 C15_9 1_555 1_555
C17_9 C16_9 1_555 1_555
H13_9 C17_9 1_555 1_555
C18_9 C17_9 1_555 1_555
H14_9 C18_9 1_555 1_555
C19_9 C18_9 1_555 1_555
H15_9 C19_9 1_555 1_555
C20_9 N4_9 1_555 1_555
H16_9 C20_9 1_555 1_555
N5_9 Ru1_9 1_555 1_555
C21_9 N5_9 1_555 1_555
H17_9 C21_9 1_555 1_555
C22_9 C21_9 1_555 1_555
H18_9 C22_9 1_555 1_555
C23_9 C22_9 1_555 1_555
H19_9 C23_9 1_555 1_555
C24_9 C23_9 1_555 1_555
H20_9 C24_9 1_555 1_555
C25_9 N5_9 1_555 1_555
N6_9 Ru1_9 1_555 1_555
C26_9 C25_9 1_555 1_555
C4_9 C5_9 1_555 1_555
C14_9 C15_9 1_555 1_555
N4_9 C16_9 1_555 1_555
C19_9 C20_9 1_555 1_555
C24_9 C25_9 1_555 1_555
N6_9 C26_9 1_555 1_555
C7_9 C6_9 1_555 1_555
H5_9 C7_9 1_555 1_555
C8_9 C7_9 1_555 1_555
H6_9 C8_9 1_555 1_555
C9_9 C8_9 1_555 1_555
H7_9 C9_9 1_555 1_555
H8_9 C10_9 1_555 1_555
C28_9 C27_9 1_555 1_555
H22_9 C28_9 1_555 1_555
C29_9 C28_9 1_555 1_555
H23_9 C29_9 1_555 1_555
H24_9 C30_9 1_555 1_555
C9_9 C10_9 1_555 1_555
C29_9 C30_9 1_555 1_555
C11_10 N3_10 1_555 1_555
H9_10 C11_10 1_555 1_555
C12_10 C11_10 1_555 1_555
H10_10 C12_10 1_555 1_555
C13_10 C12_10 1_555 1_555
H11_10 C13_10 1_555 1_555
C14_10 C13_10 1_555 1_555
H12_10 C14_10 1_555 1_555
C15_10 N3_10 1_555 1_555
C16_10 C15_10 1_555 1_555
C17_10 C16_10 1_555 1_555
H13_10 C17_10 1_555 1_555
C14_10 C15_10 1_555 1_555
Ru1_10 N1_10 1_555 1_555
N1_10 C1_10 1_555 1_555
C1_10 H1_10 1_555 1_555
C2_10 C1_10 1_555 1_555
H2_10 C2_10 1_555 1_555
C3_10 C2_10 1_555 1_555
H3_10 C3_10 1_555 1_555
C4_10 C3_10 1_555 1_555
H4_10 C4_10 1_555 1_555
C5_10 N1_10 1_555 1_555
N2_10 Ru1_10 1_555 1_555
C6_10 C5_10 1_555 1_555
C7_10 C6_10 1_555 1_555
H5_10 C7_10 1_555 1_555
C8_10 C7_10 1_555 1_555
H6_10 C8_10 1_555 1_555
C9_10 C8_10 1_555 1_555
C10_10 N2_10 1_555 1_555
N4_10 Ru1_10 1_555 1_555
H14_10 C18_10 1_555 1_555
C19_10 C18_10 1_555 1_555
H15_10 C19_10 1_555 1_555
C20_10 N4_10 1_555 1_555
H16_10 C20_10 1_555 1_555
N5_10 Ru1_10 1_555 1_555
C21_10 N5_10 1_555 1_555
H17_10 C21_10 1_555 1_555
C22_10 C21_10 1_555 1_555
H18_10 C22_10 1_555 1_555
C23_10 C22_10 1_555 1_555
H19_10 C23_10 1_555 1_555
C24_10 C23_10 1_555 1_555
H20_10 C24_10 1_555 1_555
C25_10 N5_10 1_555 1_555
N6_10 Ru1_10 1_555 1_555
C26_10 C25_10 1_555 1_555
C27_10 C26_10 1_555 1_555
C28_10 C27_10 1_555 1_555
C29_10 C28_10 1_555 1_555
H23_10 C29_10 1_555 1_555
C30_10 N6_10 1_555 1_555
H24_10 C30_10 1_555 1_555
C4_10 C5_10 1_555 1_555
N2_10 C6_10 1_555 1_555
C9_10 C10_10 1_555 1_555
C19_10 C20_10 1_555 1_555
C24_10 C25_10 1_555 1_555
N6_10 C26_10 1_555 1_555
C29_10 C30_10 1_555 1_555
C11_11 N3_11 1_555 1_555
H9_11 C11_11 1_555 1_555
C12_11 C11_11 1_555 1_555
H10_11 C12_11 1_555 1_555
C13_11 C12_11 1_555 1_555
H11_11 C13_11 1_555 1_555
C14_11 C13_11 1_555 1_555
H12_11 C14_11 1_555 1_555
C15_11 N3_11 1_555 1_555
C16_11 C15_11 1_555 1_555
C17_11 C16_11 1_555 1_555
H13_11 C17_11 1_555 1_555
C14_11 C15_11 1_555 1_555
Ru1_11 N1_11 1_555 1_555
N1_11 C1_11 1_555 1_555
C1_11 H1_11 1_555 1_555
C2_11 C1_11 1_555 1_555
H2_11 C2_11 1_555 1_555
C3_11 C2_11 1_555 1_555
H3_11 C3_11 1_555 1_555
C4_11 C3_11 1_555 1_555
H4_11 C4_11 1_555 1_555
C5_11 N1_11 1_555 1_555
N2_11 Ru1_11 1_555 1_555
C6_11 C5_11 1_555 1_555
C7_11 C6_11 1_555 1_555
H5_11 C7_11 1_555 1_555
C8_11 C7_11 1_555 1_555
H6_11 C8_11 1_555 1_555
C9_11 C8_11 1_555 1_555
C10_11 N2_11 1_555 1_555
N4_11 Ru1_11 1_555 1_555
H14_11 C18_11 1_555 1_555
C19_11 C18_11 1_555 1_555
H15_11 C19_11 1_555 1_555
C20_11 N4_11 1_555 1_555
H16_11 C20_11 1_555 1_555
N5_11 Ru1_11 1_555 1_555
C21_11 N5_11 1_555 1_555
H17_11 C21_11 1_555 1_555
C22_11 C21_11 1_555 1_555
H18_11 C22_11 1_555 1_555
C23_11 C22_11 1_555 1_555
H19_11 C23_11 1_555 1_555
C24_11 C23_11 1_555 1_555
H20_11 C24_11 1_555 1_555
C25_11 N5_11 1_555 1_555
N6_11 Ru1_11 1_555 1_555
C26_11 C25_11 1_555 1_555
C27_11 C26_11 1_555 1_555
C28_11 C27_11 1_555 1_555
C29_11 C28_11 1_555 1_555
H23_11 C29_11 1_555 1_555
C30_11 N6_11 1_555 1_555
H24_11 C30_11 1_555 1_555
C4_11 C5_11 1_555 1_555
N2_11 C6_11 1_555 1_555
C9_11 C10_11 1_555 1_555
C19_11 C20_11 1_555 1_555
C24_11 C25_11 1_555 1_555
N6_11 C26_11 1_555 1_555
C29_11 C30_11 1_555 1_555
C11_12 N3_12 1_555 1_555
H9_12 C11_12 1_555 1_555
C12_12 C11_12 1_555 1_555
H10_12 C12_12 1_555 1_555
C13_12 C12_12 1_555 1_555
H11_12 C13_12 1_555 1_555
C14_12 C13_12 1_555 1_555
H12_12 C14_12 1_555 1_555
C15_12 N3_12 1_555 1_555
C16_12 C15_12 1_555 1_555
C17_12 C16_12 1_555 1_555
H13_12 C17_12 1_555 1_555
C14_12 C15_12 1_555 1_555
Ru1_12 N1_12 1_555 1_555
N1_12 C1_12 1_555 1_555
C1_12 H1_12 1_555 1_555
C2_12 C1_12 1_555 1_555
H2_12 C2_12 1_555 1_555
C3_12 C2_12 1_555 1_555
H3_12 C3_12 1_555 1_555
C4_12 C3_12 1_555 1_555
H4_12 C4_12 1_555 1_555
C5_12 N1_12 1_555 1_555
N2_12 Ru1_12 1_555 1_555
C6_12 C5_12 1_555 1_555
C7_12 C6_12 1_555 1_555
H5_12 C7_12 1_555 1_555
C8_12 C7_12 1_555 1_555
H6_12 C8_12 1_555 1_555
C9_12 C8_12 1_555 1_555
C10_12 N2_12 1_555 1_555
N4_12 Ru1_12 1_555 1_555
H14_12 C18_12 1_555 1_555
C19_12 C18_12 1_555 1_555
H15_12 C19_12 1_555 1_555
C20_12 N4_12 1_555 1_555
H16_12 C20_12 1_555 1_555
N5_12 Ru1_12 1_555 1_555
C21_12 N5_12 1_555 1_555
H17_12 C21_12 1_555 1_555
C22_12 C21_12 1_555 1_555
H18_12 C22_12 1_555 1_555
C23_12 C22_12 1_555 1_555
H19_12 C23_12 1_555 1_555
C24_12 C23_12 1_555 1_555
H20_12 C24_12 1_555 1_555
C25_12 N5_12 1_555 1_555
N6_12 Ru1_12 1_555 1_555
C26_12 C25_12 1_555 1_555
C27_12 C26_12 1_555 1_555
H21_12 C27_12 1_555 1_555
C28_12 C27_12 1_555 1_555
H22_12 C28_12 1_555 1_555
C29_12 C28_12 1_555 1_555
H23_12 C29_12 1_555 1_555
C30_12 N6_12 1_555 1_555
H24_12 C30_12 1_555 1_555
C4_12 C5_12 1_555 1_555
N2_12 C6_12 1_555 1_555
C9_12 C10_12 1_555 1_555
C19_12 C20_12 1_555 1_555
C24_12 C25_12 1_555 1_555
N6_12 C26_12 1_555 1_555
C29_12 C30_12 1_555 1_555
H18_13 C22_13 1_555 1_555
C23_13 C22_13 1_555 1_555
H19_13 C23_13 1_555 1_555
C24_13 C23_13 1_555 1_555
H20_13 C24_13 1_555 1_555
Ru1_13 N1_13 1_555 1_555
N1_13 C1_13 1_555 1_555
C1_13 H1_13 1_555 1_555
C2_13 C1_13 1_555 1_555
H2_13 C2_13 1_555 1_555
C3_13 C2_13 1_555 1_555
H3_13 C3_13 1_555 1_555
C4_13 C3_13 1_555 1_555
H4_13 C4_13 1_555 1_555
C5_13 N1_13 1_555 1_555
N2_13 Ru1_13 1_555 1_555
C6_13 C5_13 1_555 1_555
C7_13 C6_13 1_555 1_555
H5_13 C7_13 1_555 1_555
C8_13 C7_13 1_555 1_555
H6_13 C8_13 1_555 1_555
C9_13 C8_13 1_555 1_555
H7_13 C9_13 1_555 1_555
C10_13 N2_13 1_555 1_555
H8_13 C10_13 1_555 1_555
N3_13 Ru1_13 1_555 1_555
C11_13 N3_13 1_555 1_555
H9_13 C11_13 1_555 1_555
C12_13 C11_13 1_555 1_555
H10_13 C12_13 1_555 1_555
C13_13 C12_13 1_555 1_555
H11_13 C13_13 1_555 1_555
C14_13 C13_13 1_555 1_555
H12_13 C14_13 1_555 1_555
C15_13 N3_13 1_555 1_555
N4_13 Ru1_13 1_555 1_555
C16_13 C15_13 1_555 1_555
C17_13 C16_13 1_555 1_555
H13_13 C17_13 1_555 1_555
C18_13 C17_13 1_555 1_555
H14_13 C18_13 1_555 1_555
C19_13 C18_13 1_555 1_555
H15_13 C19_13 1_555 1_555
C20_13 N4_13 1_555 1_555
H16_13 C20_13 1_555 1_555
N5_13 Ru1_13 1_555 1_555
C21_13 N5_13 1_555 1_555
H17_13 C21_13 1_555 1_555
C25_13 N5_13 1_555 1_555
N6_13 Ru1_13 1_555 1_555
C26_13 C25_13 1_555 1_555
C27_13 C26_13 1_555 1_555
C28_13 C27_13 1_555 1_555
H22_13 C28_13 1_555 1_555
C29_13 C28_13 1_555 1_555
H23_13 C29_13 1_555 1_555
C30_13 N6_13 1_555 1_555
H24_13 C30_13 1_555 1_555
C4_13 C5_13 1_555 1_555
N2_13 C6_13 1_555 1_555
C9_13 C10_13 1_555 1_555
C14_13 C15_13 1_555 1_555
N4_13 C16_13 1_555 1_555
C19_13 C20_13 1_555 1_555
N6_13 C26_13 1_555 1_555
C29_13 C30_13 1_555 1_555
Ru1_14 N1_14 1_555 1_555
N1_14 C1_14 1_555 1_555
C1_14 H1_14 1_555 1_555
C2_14 C1_14 1_555 1_555
H2_14 C2_14 1_555 1_555
C3_14 C2_14 1_555 1_555
H3_14 C3_14 1_555 1_555
C4_14 C3_14 1_555 1_555
H4_14 C4_14 1_555 1_555
C5_14 N1_14 1_555 1_555
N2_14 Ru1_14 1_555 1_555
C6_14 C5_14 1_555 1_555
C7_14 C6_14 1_555 1_555
H5_14 C7_14 1_555 1_555
C8_14 C7_14 1_555 1_555
H6_14 C8_14 1_555 1_555
C9_14 C8_14 1_555 1_555
H7_14 C9_14 1_555 1_555
C10_14 N2_14 1_555 1_555
H8_14 C10_14 1_555 1_555
N3_14 Ru1_14 1_555 1_555
C11_14 N3_14 1_555 1_555
H9_14 C11_14 1_555 1_555
C12_14 C11_14 1_555 1_555
H10_14 C12_14 1_555 1_555
C13_14 C12_14 1_555 1_555
H11_14 C13_14 1_555 1_555
C14_14 C13_14 1_555 1_555
H12_14 C14_14 1_555 1_555
C15_14 N3_14 1_555 1_555
N4_14 Ru1_14 1_555 1_555
C16_14 C15_14 1_555 1_555
C17_14 C16_14 1_555 1_555
H13_14 C17_14 1_555 1_555
C18_14 C17_14 1_555 1_555
H14_14 C18_14 1_555 1_555
C19_14 C18_14 1_555 1_555
H15_14 C19_14 1_555 1_555
C20_14 N4_14 1_555 1_555
H16_14 C20_14 1_555 1_555
N5_14 Ru1_14 1_555 1_555
C21_14 N5_14 1_555 1_555
H17_14 C21_14 1_555 1_555
C22_14 C21_14 1_555 1_555
H18_14 C22_14 1_555 1_555
C23_14 C22_14 1_555 1_555
H19_14 C23_14 1_555 1_555
C24_14 C23_14 1_555 1_555
H20_14 C24_14 1_555 1_555
C25_14 N5_14 1_555 1_555
N6_14 Ru1_14 1_555 1_555
C26_14 C25_14 1_555 1_555
C27_14 C26_14 1_555 1_555
H21_14 C27_14 1_555 1_555
C28_14 C27_14 1_555 1_555
H22_14 C28_14 1_555 1_555
C29_14 C28_14 1_555 1_555
H23_14 C29_14 1_555 1_555
C30_14 N6_14 1_555 1_555
H24_14 C30_14 1_555 1_555
C4_14 C5_14 1_555 1_555
N2_14 C6_14 1_555 1_555
C9_14 C10_14 1_555 1_555
C14_14 C15_14 1_555 1_555
N4_14 C16_14 1_555 1_555
C19_14 C20_14 1_555 1_555
C24_14 C25_14 1_555 1_555
N6_14 C26_14 1_555 1_555
C29_14 C30_14 1_555 1_555
Ru1_15 N1_15 1_555 1_555
N1_15 C1_15 1_555 1_555
C1_15 H1_15 1_555 1_555
C2_15 C1_15 1_555 1_555
H2_15 C2_15 1_555 1_555
C3_15 C2_15 1_555 1_555
H3_15 C3_15 1_555 1_555
C4_15 C3_15 1_555 1_555
H4_15 C4_15 1_555 1_555
C5_15 N1_15 1_555 1_555
N2_15 Ru1_15 1_555 1_555
C6_15 C5_15 1_555 1_555
C7_15 C6_15 1_555 1_555
H5_15 C7_15 1_555 1_555
C8_15 C7_15 1_555 1_555
H6_15 C8_15 1_555 1_555
C9_15 C8_15 1_555 1_555
H7_15 C9_15 1_555 1_555
C10_15 N2_15 1_555 1_555
H8_15 C10_15 1_555 1_555
N3_15 Ru1_15 1_555 1_555
C11_15 N3_15 1_555 1_555
H9_15 C11_15 1_555 1_555
C12_15 C11_15 1_555 1_555
H10_15 C12_15 1_555 1_555
C13_15 C12_15 1_555 1_555
H11_15 C13_15 1_555 1_555
C14_15 C13_15 1_555 1_555
H12_15 C14_15 1_555 1_555
C15_15 N3_15 1_555 1_555
N4_15 Ru1_15 1_555 1_555
C16_15 C15_15 1_555 1_555
C17_15 C16_15 1_555 1_555
H13_15 C17_15 1_555 1_555
C18_15 C17_15 1_555 1_555
H14_15 C18_15 1_555 1_555
C19_15 C18_15 1_555 1_555
H15_15 C19_15 1_555 1_555
C20_15 N4_15 1_555 1_555
H16_15 C20_15 1_555 1_555
N5_15 Ru1_15 1_555 1_555
C21_15 N5_15 1_555 1_555
H17_15 C21_15 1_555 1_555
C25_15 N5_15 1_555 1_555
N6_15 Ru1_15 1_555 1_555
C26_15 C25_15 1_555 1_555
C27_15 C26_15 1_555 1_555
C28_15 C27_15 1_555 1_555
H22_15 C28_15 1_555 1_555
C29_15 C28_15 1_555 1_555
H23_15 C29_15 1_555 1_555
C30_15 N6_15 1_555 1_555
H24_15 C30_15 1_555 1_555
C4_15 C5_15 1_555 1_555
N2_15 C6_15 1_555 1_555
C9_15 C10_15 1_555 1_555
C14_15 C15_15 1_555 1_555
N4_15 C16_15 1_555 1_555
C19_15 C20_15 1_555 1_555
N6_15 C26_15 1_555 1_555
C29_15 C30_15 1_555 1_555
H18_15 C22_15 1_555 1_555
C23_15 C22_15 1_555 1_555
H19_15 C23_15 1_555 1_555
C24_15 C23_15 1_555 1_555
H20_15 C24_15 1_555 1_555
Ru1_16 N1_16 1_555 1_555
N1_16 C1_16 1_555 1_555
C1_16 H1_16 1_555 1_555
C2_16 C1_16 1_555 1_555
H2_16 C2_16 1_555 1_555
C3_16 C2_16 1_555 1_555
H3_16 C3_16 1_555 1_555
C4_16 C3_16 1_555 1_555
H4_16 C4_16 1_555 1_555
C5_16 N1_16 1_555 1_555
N2_16 Ru1_16 1_555 1_555
C6_16 C5_16 1_555 1_555
C7_16 C6_16 1_555 1_555
H5_16 C7_16 1_555 1_555
C8_16 C7_16 1_555 1_555
H6_16 C8_16 1_555 1_555
C9_16 C8_16 1_555 1_555
H7_16 C9_16 1_555 1_555
C10_16 N2_16 1_555 1_555
H8_16 C10_16 1_555 1_555
N3_16 Ru1_16 1_555 1_555
C11_16 N3_16 1_555 1_555
H9_16 C11_16 1_555 1_555
C12_16 C11_16 1_555 1_555
H10_16 C12_16 1_555 1_555
C13_16 C12_16 1_555 1_555
H11_16 C13_16 1_555 1_555
C14_16 C13_16 1_555 1_555
H12_16 C14_16 1_555 1_555
C15_16 N3_16 1_555 1_555
N4_16 Ru1_16 1_555 1_555
C16_16 C15_16 1_555 1_555
C17_16 C16_16 1_555 1_555
H13_16 C17_16 1_555 1_555
C18_16 C17_16 1_555 1_555
H14_16 C18_16 1_555 1_555
C19_16 C18_16 1_555 1_555
H15_16 C19_16 1_555 1_555
C20_16 N4_16 1_555 1_555
H16_16 C20_16 1_555 1_555
N5_16 Ru1_16 1_555 1_555
C21_16 N5_16 1_555 1_555
H17_16 C21_16 1_555 1_555
C22_16 C21_16 1_555 1_555
H18_16 C22_16 1_555 1_555
C23_16 C22_16 1_555 1_555
H19_16 C23_16 1_555 1_555
C24_16 C23_16 1_555 1_555
H20_16 C24_16 1_555 1_555
C25_16 N5_16 1_555 1_555
N6_16 Ru1_16 1_555 1_555
C26_16 C25_16 1_555 1_555
C27_16 C26_16 1_555 1_555
H21_16 C27_16 1_555 1_555
C28_16 C27_16 1_555 1_555
H22_16 C28_16 1_555 1_555
C29_16 C28_16 1_555 1_555
H23_16 C29_16 1_555 1_555
C30_16 N6_16 1_555 1_555
H24_16 C30_16 1_555 1_555
C4_16 C5_16 1_555 1_555
N2_16 C6_16 1_555 1_555
C9_16 C10_16 1_555 1_555
C14_16 C15_16 1_555 1_555
N4_16 C16_16 1_555 1_555
C19_16 C20_16 1_555 1_555
C24_16 C25_16 1_555 1_555
N6_16 C26_16 1_555 1_555
C29_16 C30_16 1_555 1_555
Ru1_17 N1_17 1_555 1_555
N1_17 C1_17 1_555 1_555
C1_17 H1_17 1_555 1_555
C2_17 C1_17 1_555 1_555
H2_17 C2_17 1_555 1_555
C3_17 C2_17 1_555 1_555
H3_17 C3_17 1_555 1_555
C4_17 C3_17 1_555 1_555
H4_17 C4_17 1_555 1_555
C5_17 N1_17 1_555 1_555
N2_17 Ru1_17 1_555 1_555
N3_17 Ru1_17 1_555 1_555
C11_17 N3_17 1_555 1_555
H9_17 C11_17 1_555 1_555
C12_17 C11_17 1_555 1_555
H10_17 C12_17 1_555 1_555
C13_17 C12_17 1_555 1_555
H11_17 C13_17 1_555 1_555
C14_17 C13_17 1_555 1_555
H12_17 C14_17 1_555 1_555
C15_17 N3_17 1_555 1_555
N4_17 Ru1_17 1_555 1_555
C16_17 C15_17 1_555 1_555
C17_17 C16_17 1_555 1_555
H13_17 C17_17 1_555 1_555
C18_17 C17_17 1_555 1_555
H14_17 C18_17 1_555 1_555
C19_17 C18_17 1_555 1_555
H15_17 C19_17 1_555 1_555
C20_17 N4_17 1_555 1_555
H16_17 C20_17 1_555 1_555
N5_17 Ru1_17 1_555 1_555
C21_17 N5_17 1_555 1_555
H17_17 C21_17 1_555 1_555
C22_17 C21_17 1_555 1_555
H18_17 C22_17 1_555 1_555
C23_17 C22_17 1_555 1_555
H19_17 C23_17 1_555 1_555
C24_17 C23_17 1_555 1_555
H20_17 C24_17 1_555 1_555
C25_17 N5_17 1_555 1_555
N6_17 Ru1_17 1_555 1_555
C26_17 C25_17 1_555 1_555
C4_17 C5_17 1_555 1_555
C14_17 C15_17 1_555 1_555
N4_17 C16_17 1_555 1_555
C19_17 C20_17 1_555 1_555
C24_17 C25_17 1_555 1_555
N6_17 C26_17 1_555 1_555
C7_17 C6_17 1_555 1_555
H5_17 C7_17 1_555 1_555
C8_17 C7_17 1_555 1_555
H6_17 C8_17 1_555 1_555
C9_17 C8_17 1_555 1_555
H7_17 C9_17 1_555 1_555
H8_17 C10_17 1_555 1_555
C28_17 C27_17 1_555 1_555
H22_17 C28_17 1_555 1_555
C29_17 C28_17 1_555 1_555
H23_17 C29_17 1_555 1_555
H24_17 C30_17 1_555 1_555
C9_17 C10_17 1_555 1_555
C29_17 C30_17 1_555 1_555
C7_18 C6_18 1_555 1_555
H5_18 C7_18 1_555 1_555
C8_18 C7_18 1_555 1_555
H6_18 C8_18 1_555 1_555
C9_18 C8_18 1_555 1_555
H7_18 C9_18 1_555 1_555
H8_18 C10_18 1_555 1_555
C28_18 C27_18 1_555 1_555
H22_18 C28_18 1_555 1_555
C29_18 C28_18 1_555 1_555
H23_18 C29_18 1_555 1_555
H24_18 C30_18 1_555 1_555
C9_18 C10_18 1_555 1_555
C29_18 C30_18 1_555 1_555
Ru1_18 N1_18 1_555 1_555
N1_18 C1_18 1_555 1_555
C1_18 H1_18 1_555 1_555
C2_18 C1_18 1_555 1_555
H2_18 C2_18 1_555 1_555
C3_18 C2_18 1_555 1_555
H3_18 C3_18 1_555 1_555
C4_18 C3_18 1_555 1_555
H4_18 C4_18 1_555 1_555
C5_18 N1_18 1_555 1_555
N2_18 Ru1_18 1_555 1_555
N3_18 Ru1_18 1_555 1_555
C11_18 N3_18 1_555 1_555
H9_18 C11_18 1_555 1_555
C12_18 C11_18 1_555 1_555
H10_18 C12_18 1_555 1_555
C13_18 C12_18 1_555 1_555
H11_18 C13_18 1_555 1_555
C14_18 C13_18 1_555 1_555
H12_18 C14_18 1_555 1_555
C15_18 N3_18 1_555 1_555
N4_18 Ru1_18 1_555 1_555
C16_18 C15_18 1_555 1_555
C17_18 C16_18 1_555 1_555
H13_18 C17_18 1_555 1_555
C18_18 C17_18 1_555 1_555
H14_18 C18_18 1_555 1_555
C19_18 C18_18 1_555 1_555
H15_18 C19_18 1_555 1_555
C20_18 N4_18 1_555 1_555
H16_18 C20_18 1_555 1_555
N5_18 Ru1_18 1_555 1_555
C21_18 N5_18 1_555 1_555
H17_18 C21_18 1_555 1_555
C22_18 C21_18 1_555 1_555
H18_18 C22_18 1_555 1_555
C23_18 C22_18 1_555 1_555
H19_18 C23_18 1_555 1_555
C24_18 C23_18 1_555 1_555
H20_18 C24_18 1_555 1_555
C25_18 N5_18 1_555 1_555
N6_18 Ru1_18 1_555 1_555
C26_18 C25_18 1_555 1_555
C4_18 C5_18 1_555 1_555
C14_18 C15_18 1_555 1_555
N4_18 C16_18 1_555 1_555
C19_18 C20_18 1_555 1_555
C24_18 C25_18 1_555 1_555
N6_18 C26_18 1_555 1_555
O31 C189 1_555 1_555
O32 C189 1_555 1_555
C189 C190 1_555 1_555
C190 C191 1_555 1_555
H113 C191 1_555 1_555
O47 C242 1_555 1_555
O48 C242 1_555 1_555
H136 C231 1_555 1_555
C232 C231 1_555 1_555
C233 C232 1_555 1_555
H137 C233 1_555 1_555
H138 C234 1_555 1_555
C242 C232 1_555 1_555
In9 O31 1_555 1_555
In12 O47 1_555 1_555
O32 In9 1_555 1_555
O48 In12 1_555 1_555
C233 C234 1_555 1_555
In1 O1 1_555 1_555
In2 O3 1_555 1_555
O1 C31 1_555 1_555
O2 In1 1_555 1_555
O3 C53 1_555 1_555
O4 In2 1_555 1_555
O5 In1 1_555 1_555
O6 In1 1_555 1_555
O9 In1 1_555 1_555
O10 In1 1_555 1_555
O11 C83 1_555 1_555
O12 C83 1_555 1_555
O13 In2 1_555 1_555
O14 In2 1_555 1_555
O15 C97 1_555 1_555
O16 C97 1_555 1_555
C31 O2 1_555 1_555
C32 C31 1_555 1_555
C33 C32 1_555 1_555
H25 C33 1_555 1_555
C34 C33 1_555 1_555
H26 C34 1_555 1_555
C35 C34 1_555 1_555
C36 C35 1_555 1_555
H27 C36 1_555 1_555
C37 C32 1_555 1_555
H28 C37 1_555 1_555
C38 C35 1_555 1_555
C39 C38 1_555 1_555
H29 C39 1_555 1_555
C40 C39 1_555 1_555
C41 C40 1_555 1_555
H30 C41 1_555 1_555
C42 C41 1_555 1_555
C43 C38 1_555 1_555
H31 C43 1_555 1_555
C44 C42 1_555 1_555
C45 C44 1_555 1_555
C46 C44 1_555 1_555
H33 C46 1_555 1_555
C47 C40 1_555 1_555
C48 C47 1_555 1_555
H34 C48 1_555 1_555
C49 C48 1_555 1_555
H35 C49 1_555 1_555
C50 C49 1_555 1_555
C51 C50 1_555 1_555
H36 C51 1_555 1_555
C52 C47 1_555 1_555
H37 C52 1_555 1_555
C53 O4 1_555 1_555
C54 O5 1_555 1_555
C55 C54 1_555 1_555
C56 C55 1_555 1_555
H38 C56 1_555 1_555
C57 C56 1_555 1_555
H39 C57 1_555 1_555
C58 C57 1_555 1_555
C59 C58 1_555 1_555
H40 C59 1_555 1_555
C60 C55 1_555 1_555
H41 C60 1_555 1_555
C61 C62 1_555 1_555
C62 H42 1_555 1_555
C63 C62 1_555 1_555
C64 C63 1_555 1_555
H43 C64 1_555 1_555
C65 C58 1_555 1_555
C66 C61 1_555 1_555
H44 C66 1_555 1_555
C67 C63 1_555 1_555
C68 C67 1_555 1_555
H45 C68 1_555 1_555
C69 C68 1_555 1_555
H46 C69 1_555 1_555
C70 C69 1_555 1_555
C71 C70 1_555 1_555
H47 C71 1_555 1_555
C72 C67 1_555 1_555
H48 C72 1_555 1_555
C73 C61 1_555 1_555
C74 C73 1_555 1_555
H49 C74 1_555 1_555
C75 C73 1_555 1_555
H50 C75 1_555 1_555
C76 O9 1_555 1_555
C77 H51 1_555 1_555
C78 C76 1_555 1_555
C79 C78 1_555 1_555
H52 C79 1_555 1_555
C80 C79 1_555 1_555
H53 C80 1_555 1_555
C81 C80 1_555 1_555
C82 C77 1_555 1_555
H54 C82 1_555 1_555
C83 C84 1_555 1_555
C84 C85 1_555 1_555
C85 C74 1_555 1_555
H55 C85 1_555 1_555
C86 C75 1_555 1_555
H56 C86 1_555 1_555
C87 O13 1_555 1_555
C91 C90 1_555 1_555
H59 C91 1_555 1_555
C92 C91 1_555 1_555
H60 C92 1_555 1_555
C93 C87 1_555 1_555
C94 C90 1_555 1_555
C95 C94 1_555 1_555
H61 C95 1_555 1_555
C96 H62 1_555 1_555
C97 C70 1_555 1_555
C98 C81 1_555 1_555
C102 C46 1_555 1_555
H64 C102 1_555 1_555
O17 C103 1_555 1_555
O18 C103 1_555 1_555
C103 C105 1_555 1_555
C104 H65 1_555 1_555
C105 C104 1_555 1_555
C106 C105 1_555 1_555
H66 C106 1_555 1_555
C107 C106 1_555 1_555
H67 C107 1_555 1_555
C108 C107 1_555 1_555
C109 C104 1_555 1_555
H68 C109 1_555 1_555
C110 H69 1_555 1_555
C111 C96 1_555 1_555
O19 C112 1_555 1_555
O20 C112 1_555 1_555
C112 C114 1_555 1_555
C113 H70 1_555 1_555
C114 C113 1_555 1_555
C115 C114 1_555 1_555
H71 C115 1_555 1_555
C116 C115 1_555 1_555
H72 C116 1_555 1_555
C117 C116 1_555 1_555
C118 C113 1_555 1_555
H73 C118 1_555 1_555
C119 C98 1_555 1_555
H74 C119 1_555 1_555
C120 C110 1_555 1_555
O21 C121 1_555 1_555
O22 C121 1_555 1_555
C121 C127 1_555 1_555
C125 C124 1_555 1_555
H77 C125 1_555 1_555
C126 C125 1_555 1_555
H78 C126 1_555 1_555
C128 C95 1_555 1_555
C129 C128 1_555 1_555
H79 C129 1_555 1_555
O23 C130 1_555 1_555
O24 C130 1_555 1_555
C130 C136 1_555 1_555
C134 C133 1_555 1_555
H82 C134 1_555 1_555
C135 C134 1_555 1_555
H83 C135 1_555 1_555
C137 C129 1_555 1_555
C138 C94 1_555 1_555
H84 C138 1_555 1_555
In3 O17 1_555 1_555
In4 O21 1_555 1_555
O25 In3 1_555 1_555
O26 In3 1_555 1_555
O27 In4 1_555 1_555
O28 In4 1_555 1_555
O29 In3 1_555 1_555
O30 In3 1_555 1_555
O33 C184 1_555 1_555
O34 C184 1_555 1_555
C139 O25 1_555 1_555
C140 C139 1_555 1_555
C141 C140 1_555 1_555
H85 C141 1_555 1_555
C142 C141 1_555 1_555
H86 C142 1_555 1_555
C143 C142 1_555 1_555
C144 C143 1_555 1_555
H87 C144 1_555 1_555
C145 C140 1_555 1_555
H88 C145 1_555 1_555
C146 C143 1_555 1_555
C147 C146 1_555 1_555
H89 C147 1_555 1_555
C148 C147 1_555 1_555
C149 C148 1_555 1_555
H90 C149 1_555 1_555
C150 C149 1_555 1_555
C151 C146 1_555 1_555
H91 C151 1_555 1_555
C152 C150 1_555 1_555
C153 C152 1_555 1_555
C154 C152 1_555 1_555
H93 C154 1_555 1_555
C155 C148 1_555 1_555
C156 C155 1_555 1_555
H94 C156 1_555 1_555
C157 C156 1_555 1_555
H95 C157 1_555 1_555
C158 C157 1_555 1_555
C159 C158 1_555 1_555
H96 C159 1_555 1_555
C160 C155 1_555 1_555
H97 C160 1_555 1_555
C161 O27 1_555 1_555
C162 O29 1_555 1_555
C163 C162 1_555 1_555
C164 C163 1_555 1_555
H98 C164 1_555 1_555
C165 C164 1_555 1_555
H99 C165 1_555 1_555
C166 C165 1_555 1_555
C167 C166 1_555 1_555
H100 C167 1_555 1_555
C168 C163 1_555 1_555
H101 C168 1_555 1_555
C169 C170 1_555 1_555
C170 H102 1_555 1_555
C171 C170 1_555 1_555
C172 C171 1_555 1_555
H103 C172 1_555 1_555
C173 C166 1_555 1_555
C174 C169 1_555 1_555
H104 C174 1_555 1_555
C175 C171 1_555 1_555
C176 C175 1_555 1_555
H105 C176 1_555 1_555
C181 C169 1_555 1_555
C182 C181 1_555 1_555
H109 C182 1_555 1_555
C183 C181 1_555 1_555
C184 C185 1_555 1_555
C185 C186 1_555 1_555
C186 C182 1_555 1_555
H111 C186 1_555 1_555
C187 C183 1_555 1_555
C192 C154 1_555 1_555
H114 C192 1_555 1_555
In5 O19 1_555 1_555
In6 O23 1_555 1_555
O37 In5 1_555 1_555
O38 In5 1_555 1_555
O39 In6 1_555 1_555
O40 In6 1_555 1_555
O41 In5 1_555 1_555
O42 In5 1_555 1_555
O43 C243 1_555 1_555
O44 C243 1_555 1_555
O45 C238 1_555 1_555
O46 C238 1_555 1_555
C193 O37 1_555 1_555
C194 C193 1_555 1_555
C195 C194 1_555 1_555
H115 C195 1_555 1_555
C196 C195 1_555 1_555
H116 C196 1_555 1_555
C197 C196 1_555 1_555
C198 C197 1_555 1_555
H117 C198 1_555 1_555
C199 C194 1_555 1_555
H118 C199 1_555 1_555
C200 C197 1_555 1_555
C201 C200 1_555 1_555
H119 C201 1_555 1_555
C202 C201 1_555 1_555
C203 C202 1_555 1_555
H120 C203 1_555 1_555
C204 C203 1_555 1_555
C205 C200 1_555 1_555
H121 C205 1_555 1_555
C206 C204 1_555 1_555
C207 C206 1_555 1_555
H122 C207 1_555 1_555
C208 C206 1_555 1_555
H123 C208 1_555 1_555
C209 C202 1_555 1_555
C210 C209 1_555 1_555
H124 C210 1_555 1_555
C211 C210 1_555 1_555
H125 C211 1_555 1_555
C212 C211 1_555 1_555
C213 C212 1_555 1_555
H126 C213 1_555 1_555
C214 C209 1_555 1_555
H127 C214 1_555 1_555
C215 O39 1_555 1_555
C216 O41 1_555 1_555
C217 C216 1_555 1_555
C218 C217 1_555 1_555
H128 C218 1_555 1_555
C219 C218 1_555 1_555
H129 C219 1_555 1_555
C220 C219 1_555 1_555
C221 C220 1_555 1_555
H130 C221 1_555 1_555
C222 C217 1_555 1_555
H131 C222 1_555 1_555
C223 C224 1_555 1_555
C224 H132 1_555 1_555
C225 C224 1_555 1_555
C226 C225 1_555 1_555
H133 C226 1_555 1_555
C227 C220 1_555 1_555
C228 C223 1_555 1_555
H134 C228 1_555 1_555
C229 C225 1_555 1_555
C230 C229 1_555 1_555
H135 C230 1_555 1_555
C235 C223 1_555 1_555
C236 C235 1_555 1_555
H139 C236 1_555 1_555
C237 C235 1_555 1_555
C238 C239 1_555 1_555
C239 C240 1_555 1_555
C240 C236 1_555 1_555
H141 C240 1_555 1_555
C241 C237 1_555 1_555
C243 C244 1_555 1_555
C244 C245 1_555 1_555
C245 C207 1_555 1_555
H143 C245 1_555 1_555
C246 C208 1_555 1_555
H144 C246 1_555 1_555
In7 O43 1_555 1_555
In10 O15 1_555 1_555
In13 O45 1_555 1_555
In14 O11 1_555 1_555
In15 O33 1_555 1_555
O49 In3 1_555 1_555
O50 In5 1_555 1_555
O51 In1 1_555 1_555
O52 In3 1_555 1_555
O53 In5 1_555 1_555
O54 In1 1_555 1_555
O61 In2 1_555 1_555
O62 In4 1_555 1_555
O63 In6 1_555 1_555
O64 In2 1_555 1_555
O65 In4 1_555 1_555
O66 In6 1_555 1_555
O6 C54 1_555 1_555
O10 C76 1_555 1_555
O12 In14 1_555 1_555
O14 C87 1_555 1_555
O16 In10 1_555 1_555
C36 C37 1_555 1_555
C42 C43 1_555 1_555
C50 C53 1_555 1_555
C51 C52 1_555 1_555
C59 C60 1_555 1_555
C64 C65 1_555 1_555
C65 C66 1_555 1_555
C71 C72 1_555 1_555
C77 C78 1_555 1_555
C81 C82 1_555 1_555
C84 C86 1_555 1_555
C92 C93 1_555 1_555
C96 C98 1_555 1_555
O18 In3 1_555 1_555
C108 C109 1_555 1_555
C108 C111 1_555 1_555
C110 C111 1_555 1_555
O20 In5 1_555 1_555
C117 C118 1_555 1_555
C117 C120 1_555 1_555
C119 C120 1_555 1_555
O22 In4 1_555 1_555
C124 C128 1_555 1_555
C126 C127 1_555 1_555
O24 In6 1_555 1_555
C133 C137 1_555 1_555
C135 C136 1_555 1_555
C137 C138 1_555 1_555
O26 C139 1_555 1_555
O28 C161 1_555 1_555
O30 C162 1_555 1_555
O34 In15 1_555 1_555
C144 C145 1_555 1_555
C150 C151 1_555 1_555
C158 C161 1_555 1_555
C159 C160 1_555 1_555
C167 C168 1_555 1_555
C172 C173 1_555 1_555
C173 C174 1_555 1_555
C185 C187 1_555 1_555
O38 C193 1_555 1_555
O40 C215 1_555 1_555
O42 C216 1_555 1_555
O44 In7 1_555 1_555
O46 In13 1_555 1_555
C198 C199 1_555 1_555
C204 C205 1_555 1_555
C212 C215 1_555 1_555
C213 C214 1_555 1_555
C221 C222 1_555 1_555
C226 C227 1_555 1_555
C227 C228 1_555 1_555
C239 C241 1_555 1_555
C244 C246 1_555 1_555
C88 H57 1_555 1_555
C89 C88 1_555 1_555
H58 C89 1_555 1_555
C122 H75 1_555 1_555
C123 C122 1_555 1_555
H76 C123 1_555 1_555
C131 H80 1_555 1_555
C132 C131 1_555 1_555
H81 C132 1_555 1_555
O7 C99 1_555 1_555
O8 C99 1_555 1_555
C99 C100 1_555 1_555
C100 C101 1_555 1_555
H63 C101 1_555 1_555
O35 C188 1_555 1_555
O36 C188 1_555 1_555
H106 C177 1_555 1_555
C178 C177 1_555 1_555
C179 C178 1_555 1_555
H107 C179 1_555 1_555
H108 C180 1_555 1_555
C188 C178 1_555 1_555
In8 O7 1_555 1_555
In11 O35 1_555 1_555
O8 In8 1_555 1_555
O36 In11 1_555 1_555
C179 C180 1_555 1_555
O51 C243_2 1_555 1_555
O54 C243_2 1_555 1_555
O57 C238_2 1_555 1_555
O60 C238_2 1_555 1_555
O47_2 C242_2 1_555 1_555
O48_2 C242_2 1_555 1_555
H123_2 C208_2 1_555 1_555
C223_2 C224_2 1_555 1_555
C224_2 H132_2 1_555 1_555
C225_2 C224_2 1_555 1_555
C226_2 C225_2 1_555 1_555
C228_2 C223_2 1_555 1_555
H134_2 C228_2 1_555 1_555
C229_2 C225_2 1_555 1_555
C232_2 C231_2 1_555 1_555
C233_2 C232_2 1_555 1_555
H137_2 C233_2 1_555 1_555
C234_2 C229_2 1_555 1_555
H138_2 C234_2 1_555 1_555
C235_2 C223_2 1_555 1_555
C236_2 C235_2 1_555 1_555
H139_2 C236_2 1_555 1_555
C237_2 C235_2 1_555 1_555
H140_2 C237_2 1_555 1_555
C238_2 C239_2 1_555 1_555
C239_2 C240_2 1_555 1_555
C240_2 C236_2 1_555 1_555
H141_2 C240_2 1_555 1_555
C241_2 C237_2 1_555 1_555
H142_2 C241_2 1_555 1_555
C242_2 C232_2 1_555 1_555
C243_2 C244_2 1_555 1_555
C244_2 C245_2 1_555 1_555
H143_2 C245_2 1_555 1_555
C246_2 C208_2 1_555 1_555
H144_2 C246_2 1_555 1_555
In15 O47_2 1_555 1_555
O48_2 In15 1_555 1_555
C226_2 C227_2 1_555 1_555
C227_2 C228_2 1_555 1_555
C233_2 C234_2 1_555 1_555
C239_2 C241_2 1_555 1_555
C244_2 C246_2 1_555 1_555
In1_2 O1_2 1_555 1_555
In10 O3_2 1_555 1_555
O1_2 C31_2 1_555 1_555
O2_2 In1_2 1_555 1_555
O3_2 C53_2 1_555 1_555
O4_2 In10 1_555 1_555
O5_2 In1_2 1_555 1_555
O6_2 In1_2 1_555 1_555
O9_2 In1_2 1_555 1_555
O10_2 In1_2 1_555 1_555
O13_2 In10 1_555 1_555
O14_2 In10 1_555 1_555
C31_2 O2_2 1_555 1_555
C32_2 C31_2 1_555 1_555
C33_2 C32_2 1_555 1_555
H25_2 C33_2 1_555 1_555
C34_2 C33_2 1_555 1_555
H26_2 C34_2 1_555 1_555
C35_2 C34_2 1_555 1_555
C36_2 C35_2 1_555 1_555
H27_2 C36_2 1_555 1_555
C37_2 C32_2 1_555 1_555
H28_2 C37_2 1_555 1_555
C38_2 C35_2 1_555 1_555
C39_2 C38_2 1_555 1_555
H29_2 C39_2 1_555 1_555
C40_2 C39_2 1_555 1_555
C41_2 C40_2 1_555 1_555
H30_2 C41_2 1_555 1_555
C42_2 C41_2 1_555 1_555
C43_2 C38_2 1_555 1_555
H31_2 C43_2 1_555 1_555
C44_2 C42_2 1_555 1_555
C45_2 C44_2 1_555 1_555
H32_2 C45_2 1_555 1_555
C47_2 C40_2 1_555 1_555
C48_2 C47_2 1_555 1_555
H34_2 C48_2 1_555 1_555
C49_2 C48_2 1_555 1_555
H35_2 C49_2 1_555 1_555
C50_2 C49_2 1_555 1_555
C51_2 C50_2 1_555 1_555
H36_2 C51_2 1_555 1_555
C52_2 C47_2 1_555 1_555
H37_2 C52_2 1_555 1_555
C53_2 O4_2 1_555 1_555
C54_2 O5_2 1_555 1_555
C55_2 C54_2 1_555 1_555
C56_2 C55_2 1_555 1_555
H38_2 C56_2 1_555 1_555
C57_2 C56_2 1_555 1_555
H39_2 C57_2 1_555 1_555
C58_2 C57_2 1_555 1_555
C59_2 C58_2 1_555 1_555
H40_2 C59_2 1_555 1_555
C60_2 C55_2 1_555 1_555
H41_2 C60_2 1_555 1_555
H45_2 C68_2 1_555 1_555
C76_2 O9_2 1_555 1_555
C77_2 H51_2 1_555 1_555
C78_2 C76_2 1_555 1_555
C79_2 C78_2 1_555 1_555
H52_2 C79_2 1_555 1_555
C80_2 C79_2 1_555 1_555
H53_2 C80_2 1_555 1_555
C81_2 C80_2 1_555 1_555
C82_2 C77_2 1_555 1_555
H54_2 C82_2 1_555 1_555
C87_2 O13_2 1_555 1_555
C88_2 H57_2 1_555 1_555
C89_2 C88_2 1_555 1_555
H58_2 C89_2 1_555 1_555
C90_2 C89_2 1_555 1_555
C91_2 C90_2 1_555 1_555
H59_2 C91_2 1_555 1_555
C92_2 C91_2 1_555 1_555
H60_2 C92_2 1_555 1_555
C93_2 C87_2 1_555 1_555
C94_2 C90_2 1_555 1_555
C95_2 C94_2 1_555 1_555
H61_2 C95_2 1_555 1_555
C96_2 H62_2 1_555 1_555
C98_2 C81_2 1_555 1_555
O17_2 C103_2 1_555 1_555
O18_2 C103_2 1_555 1_555
C103_2 C105_2 1_555 1_555
C104_2 H65_2 1_555 1_555
C105_2 C104_2 1_555 1_555
C106_2 C105_2 1_555 1_555
H66_2 C106_2 1_555 1_555
C107_2 C106_2 1_555 1_555
H67_2 C107_2 1_555 1_555
C108_2 C107_2 1_555 1_555
C109_2 C104_2 1_555 1_555
H68_2 C109_2 1_555 1_555
C110_2 H69_2 1_555 1_555
C111_2 C96_2 1_555 1_555
O19_2 C112_2 1_555 1_555
O20_2 C112_2 1_555 1_555
C112_2 C114_2 1_555 1_555
C113_2 H70_2 1_555 1_555
C114_2 C113_2 1_555 1_555
C115_2 C114_2 1_555 1_555
H71_2 C115_2 1_555 1_555
C116_2 C115_2 1_555 1_555
H72_2 C116_2 1_555 1_555
C117_2 C116_2 1_555 1_555
C118_2 C113_2 1_555 1_555
H73_2 C118_2 1_555 1_555
C119_2 C98_2 1_555 1_555
H74_2 C119_2 1_555 1_555
C120_2 C110_2 1_555 1_555
O21_2 C121_2 1_555 1_555
O22_2 C121_2 1_555 1_555
C121_2 C127_2 1_555 1_555
C122_2 H75_2 1_555 1_555
C123_2 C122_2 1_555 1_555
H76_2 C123_2 1_555 1_555
C124_2 C123_2 1_555 1_555
C125_2 C124_2 1_555 1_555
H77_2 C125_2 1_555 1_555
C126_2 C125_2 1_555 1_555
H78_2 C126_2 1_555 1_555
C127_2 C122_2 1_555 1_555
C128_2 C95_2 1_555 1_555
C129_2 C128_2 1_555 1_555
H79_2 C129_2 1_555 1_555
O23_2 C130_2 1_555 1_555
O24_2 C130_2 1_555 1_555
C130_2 C136_2 1_555 1_555
C131_2 H80_2 1_555 1_555
C132_2 C131_2 1_555 1_555
H81_2 C132_2 1_555 1_555
C133_2 C132_2 1_555 1_555
C134_2 C133_2 1_555 1_555
H82_2 C134_2 1_555 1_555
C135_2 C134_2 1_555 1_555
H83_2 C135_2 1_555 1_555
C136_2 C131_2 1_555 1_555
C137_2 C129_2 1_555 1_555
C138_2 C94_2 1_555 1_555
H84_2 C138_2 1_555 1_555
In3_2 O17_2 1_555 1_555
In11 O21_2 1_555 1_555
O25_2 In3_2 1_555 1_555
O26_2 In3_2 1_555 1_555
O27_2 In11 1_555 1_555
O28_2 In11 1_555 1_555
O29_2 In3_2 1_555 1_555
O30_2 In3_2 1_555 1_555
O50 C189_2 1_555 1_555
O53 C189_2 1_555 1_555
O56 C184_2 1_555 1_555
O59 C184_2 1_555 1_555
O35_2 C188_2 1_555 1_555
O36_2 C188_2 1_555 1_555
C139_2 O25_2 1_555 1_555
C140_2 C139_2 1_555 1_555
C141_2 C140_2 1_555 1_555
H85_2 C141_2 1_555 1_555
C142_2 C141_2 1_555 1_555
H86_2 C142_2 1_555 1_555
C143_2 C142_2 1_555 1_555
C144_2 C143_2 1_555 1_555
H87_2 C144_2 1_555 1_555
C145_2 C140_2 1_555 1_555
H88_2 C145_2 1_555 1_555
C146_2 C143_2 1_555 1_555
C147_2 C146_2 1_555 1_555
H89_2 C147_2 1_555 1_555
C148_2 C147_2 1_555 1_555
C149_2 C148_2 1_555 1_555
H90_2 C149_2 1_555 1_555
C150_2 C149_2 1_555 1_555
C151_2 C146_2 1_555 1_555
H91_2 C151_2 1_555 1_555
C152_2 C150_2 1_555 1_555
C153_2 C152_2 1_555 1_555
H92_2 C153_2 1_555 1_555
C154_2 C152_2 1_555 1_555
H93_2 C154_2 1_555 1_555
C155_2 C148_2 1_555 1_555
C156_2 C155_2 1_555 1_555
H94_2 C156_2 1_555 1_555
C157_2 C156_2 1_555 1_555
H95_2 C157_2 1_555 1_555
C158_2 C157_2 1_555 1_555
C159_2 C158_2 1_555 1_555
H96_2 C159_2 1_555 1_555
C160_2 C155_2 1_555 1_555
H97_2 C160_2 1_555 1_555
C161_2 O27_2 1_555 1_555
C162_2 O29_2 1_555 1_555
C163_2 C162_2 1_555 1_555
C164_2 C163_2 1_555 1_555
H98_2 C164_2 1_555 1_555
C165_2 C164_2 1_555 1_555
H99_2 C165_2 1_555 1_555
C166_2 C165_2 1_555 1_555
C167_2 C166_2 1_555 1_555
H100_2 C167_2 1_555 1_555
C168_2 C163_2 1_555 1_555
H101_2 C168_2 1_555 1_555
C169_2 C170_2 1_555 1_555
C170_2 H102_2 1_555 1_555
C171_2 C170_2 1_555 1_555
C172_2 C171_2 1_555 1_555
H103_2 C172_2 1_555 1_555
C173_2 C166_2 1_555 1_555
C174_2 C169_2 1_555 1_555
H104_2 C174_2 1_555 1_555
C175_2 C171_2 1_555 1_555
C176_2 C175_2 1_555 1_555
H105_2 C176_2 1_555 1_555
C177_2 C176_2 1_555 1_555
H106_2 C177_2 1_555 1_555
C178_2 C177_2 1_555 1_555
C179_2 C178_2 1_555 1_555
H107_2 C179_2 1_555 1_555
C180_2 C175_2 1_555 1_555
H108_2 C180_2 1_555 1_555
C181_2 C169_2 1_555 1_555
C182_2 C181_2 1_555 1_555
H109_2 C182_2 1_555 1_555
C183_2 C181_2 1_555 1_555
H110_2 C183_2 1_555 1_555
C184_2 C185_2 1_555 1_555
C185_2 C186_2 1_555 1_555
C186_2 C182_2 1_555 1_555
H111_2 C186_2 1_555 1_555
C187_2 C183_2 1_555 1_555
H112_2 C187_2 1_555 1_555
C188_2 C178_2 1_555 1_555
C189_2 C190_2 1_555 1_555
C190_2 C191_2 1_555 1_555
C191_2 C153_2 1_555 1_555
H113_2 C191_2 1_555 1_555
C192_2 C154_2 1_555 1_555
H114_2 C192_2 1_555 1_555
In5_2 O19_2 1_555 1_555
In12 O23_2 1_555 1_555
O37_2 In5_2 1_555 1_555
O38_2 In5_2 1_555 1_555
O39_2 In12 1_555 1_555
O40_2 In12 1_555 1_555
O41_2 In5_2 1_555 1_555
O42_2 In5_2 1_555 1_555
C193_2 O37_2 1_555 1_555
C194_2 C193_2 1_555 1_555
C195_2 C194_2 1_555 1_555
H115_2 C195_2 1_555 1_555
C196_2 C195_2 1_555 1_555
H116_2 C196_2 1_555 1_555
C197_2 C196_2 1_555 1_555
C198_2 C197_2 1_555 1_555
H117_2 C198_2 1_555 1_555
C199_2 C194_2 1_555 1_555
H118_2 C199_2 1_555 1_555
C200_2 C197_2 1_555 1_555
C201_2 C200_2 1_555 1_555
H119_2 C201_2 1_555 1_555
C202_2 C201_2 1_555 1_555
C203_2 C202_2 1_555 1_555
H120_2 C203_2 1_555 1_555
C204_2 C203_2 1_555 1_555
C205_2 C200_2 1_555 1_555
H121_2 C205_2 1_555 1_555
C206_2 C204_2 1_555 1_555
C207_2 C206_2 1_555 1_555
H122_2 C207_2 1_555 1_555
C209_2 C202_2 1_555 1_555
C210_2 C209_2 1_555 1_555
H124_2 C210_2 1_555 1_555
C211_2 C210_2 1_555 1_555
H125_2 C211_2 1_555 1_555
C212_2 C211_2 1_555 1_555
C213_2 C212_2 1_555 1_555
H126_2 C213_2 1_555 1_555
C214_2 C209_2 1_555 1_555
H127_2 C214_2 1_555 1_555
C215_2 O39_2 1_555 1_555
C216_2 O41_2 1_555 1_555
C217_2 C216_2 1_555 1_555
C218_2 C217_2 1_555 1_555
H128_2 C218_2 1_555 1_555
C219_2 C218_2 1_555 1_555
H129_2 C219_2 1_555 1_555
C220_2 C219_2 1_555 1_555
C221_2 C220_2 1_555 1_555
H130_2 C221_2 1_555 1_555
C222_2 C217_2 1_555 1_555
H131_2 C222_2 1_555 1_555
H135_2 C230_2 1_555 1_555
In14 O35_2 1_555 1_555
O49_2 In3_2 1_555 1_555
O50_2 In5_2 1_555 1_555
O51_2 In1_2 1_555 1_555
O52_2 In3_2 1_555 1_555
O53_2 In5_2 1_555 1_555
O54_2 In1_2 1_555 1_555
O55_2 In11 1_555 1_555
O56_2 In12 1_555 1_555
O57_2 In10 1_555 1_555
O58_2 In11 1_555 1_555
O59_2 In12 1_555 1_555
O60_2 In10 1_555 1_555
O6_2 C54_2 1_555 1_555
O10_2 C76_2 1_555 1_555
O14_2 C87_2 1_555 1_555
C36_2 C37_2 1_555 1_555
C42_2 C43_2 1_555 1_555
C50_2 C53_2 1_555 1_555
C51_2 C52_2 1_555 1_555
C59_2 C60_2 1_555 1_555
C77_2 C78_2 1_555 1_555
C81_2 C82_2 1_555 1_555
C88_2 C93_2 1_555 1_555
C92_2 C93_2 1_555 1_555
C96_2 C98_2 1_555 1_555
O18_2 In3_2 1_555 1_555
C108_2 C109_2 1_555 1_555
C108_2 C111_2 1_555 1_555
C110_2 C111_2 1_555 1_555
O20_2 In5_2 1_555 1_555
C117_2 C118_2 1_555 1_555
C117_2 C120_2 1_555 1_555
C119_2 C120_2 1_555 1_555
O22_2 In11 1_555 1_555
C124_2 C128_2 1_555 1_555
C126_2 C127_2 1_555 1_555
O24_2 In12 1_555 1_555
C133_2 C137_2 1_555 1_555
C135_2 C136_2 1_555 1_555
C137_2 C138_2 1_555 1_555
O26_2 C139_2 1_555 1_555
O28_2 C161_2 1_555 1_555
O30_2 C162_2 1_555 1_555
O36_2 In14 1_555 1_555
C144_2 C145_2 1_555 1_555
C150_2 C151_2 1_555 1_555
C158_2 C161_2 1_555 1_555
C159_2 C160_2 1_555 1_555
C167_2 C168_2 1_555 1_555
C172_2 C173_2 1_555 1_555
C173_2 C174_2 1_555 1_555
C179_2 C180_2 1_555 1_555
C185_2 C187_2 1_555 1_555
C190_2 C192_2 1_555 1_555
O38_2 C193_2 1_555 1_555
O40_2 C215_2 1_555 1_555
O42_2 C216_2 1_555 1_555
C198_2 C199_2 1_555 1_555
C204_2 C205_2 1_555 1_555
C212_2 C215_2 1_555 1_555
C213_2 C214_2 1_555 1_555
C221_2 C222_2 1_555 1_555
O49 C99_2 1_555 1_555
O52 C99_2 1_555 1_555
O55 C83_2 1_555 1_555
O58 C83_2 1_555 1_555
O15_2 C97_2 1_555 1_555
O16_2 C97_2 1_555 1_555
H33_2 C46_2 1_555 1_555
C61_2 C62_2 1_555 1_555
C62_2 H42_2 1_555 1_555
C63_2 C62_2 1_555 1_555
C64_2 C63_2 1_555 1_555
C66_2 C61_2 1_555 1_555
H44_2 C66_2 1_555 1_555
C67_2 C63_2 1_555 1_555
C70_2 C69_2 1_555 1_555
C71_2 C70_2 1_555 1_555
H47_2 C71_2 1_555 1_555
C72_2 C67_2 1_555 1_555
H48_2 C72_2 1_555 1_555
C73_2 C61_2 1_555 1_555
C74_2 C73_2 1_555 1_555
H49_2 C74_2 1_555 1_555
C75_2 C73_2 1_555 1_555
H50_2 C75_2 1_555 1_555
C83_2 C84_2 1_555 1_555
C84_2 C85_2 1_555 1_555
C85_2 C74_2 1_555 1_555
H55_2 C85_2 1_555 1_555
C86_2 C75_2 1_555 1_555
H56_2 C86_2 1_555 1_555
C97_2 C70_2 1_555 1_555
C99_2 C100_2 1_555 1_555
C100_2 C101_2 1_555 1_555
H63_2 C101_2 1_555 1_555
C102_2 C46_2 1_555 1_555
H64_2 C102_2 1_555 1_555
In13 O15_2 1_555 1_555
O16_2 In13 1_555 1_555
C64_2 C65_2 1_555 1_555
C65_2 C66_2 1_555 1_555
C71_2 C72_2 1_555 1_555
C84_2 C86_2 1_555 1_555
C100_2 C102_2 1_555 1_555
C104_3 H65_3 1_555 1_555
C109_3 C104_3 1_555 1_555
H68_3 C109_3 1_555 1_555
C110_3 H69_3 1_555 1_555
O19_3 C112_3 1_555 1_555
O20_3 C112_3 1_555 1_555
C112_3 C114_3 1_555 1_555
C115_3 C114_3 1_555 1_555
H71_3 C115_3 1_555 1_555
C116_3 C115_3 1_555 1_555
H72_3 C116_3 1_555 1_555
C117_3 C116_3 1_555 1_555
C120_3 C110_3 1_555 1_555
In9 O19_3 1_555 1_555
O41_3 In9 1_555 1_555
O42_3 In9 1_555 1_555
O57_2 C238_3 1_555 1_555
O60_2 C238_3 1_555 1_555
O63 C242_3 1_555 1_555
O66 C242_3 1_555 1_555
C216_3 O41_3 1_555 1_555
C217_3 C216_3 1_555 1_555
C218_3 C217_3 1_555 1_555
H128_3 C218_3 1_555 1_555
C219_3 C218_3 1_555 1_555
H129_3 C219_3 1_555 1_555
C220_3 C219_3 1_555 1_555
C221_3 C220_3 1_555 1_555
H130_3 C221_3 1_555 1_555
C222_3 C217_3 1_555 1_555
H131_3 C222_3 1_555 1_555
C223_3 C224_3 1_555 1_555
C224_3 H132_3 1_555 1_555
C225_3 C224_3 1_555 1_555
C226_3 C225_3 1_555 1_555
H133_3 C226_3 1_555 1_555
C227_3 C220_3 1_555 1_555
C228_3 C223_3 1_555 1_555
H134_3 C228_3 1_555 1_555
C229_3 C225_3 1_555 1_555
C230_3 C229_3 1_555 1_555
H135_3 C230_3 1_555 1_555
C231_3 C230_3 1_555 1_555
H136_3 C231_3 1_555 1_555
C232_3 C231_3 1_555 1_555
C233_3 C232_3 1_555 1_555
H137_3 C233_3 1_555 1_555
C234_3 C229_3 1_555 1_555
H138_3 C234_3 1_555 1_555
C235_3 C223_3 1_555 1_555
C236_3 C235_3 1_555 1_555
H139_3 C236_3 1_555 1_555
C237_3 C235_3 1_555 1_555
H140_3 C237_3 1_555 1_555
C238_3 C239_3 1_555 1_555
C239_3 C240_3 1_555 1_555
C240_3 C236_3 1_555 1_555
H141_3 C240_3 1_555 1_555
C241_3 C237_3 1_555 1_555
H142_3 C241_3 1_555 1_555
C242_3 C232_3 1_555 1_555
O20_3 In9 1_555 1_555
C117_3 C120_3 1_555 1_555
O42_3 C216_3 1_555 1_555
C221_3 C222_3 1_555 1_555
C226_3 C227_3 1_555 1_555
C227_3 C228_3 1_555 1_555
C233_3 C234_3 1_555 1_555
C239_3 C241_3 1_555 1_555
O21_3 C121_3 1_555 1_555
O22_3 C121_3 1_555 1_555
C121_3 C127_3 1_555 1_555
C122_3 H75_3 1_555 1_555
C123_3 C122_3 1_555 1_555
H76_3 C123_3 1_555 1_555
C124_3 C123_3 1_555 1_555
C125_3 C124_3 1_555 1_555
H77_3 C125_3 1_555 1_555
C126_3 C125_3 1_555 1_555
H78_3 C126_3 1_555 1_555
C127_3 C122_3 1_555 1_555
C129_3 C128_3 1_555 1_555
H79_3 C129_3 1_555 1_555
In14 O21_3 1_555 1_555
O27_3 In14 1_555 1_555
O28_3 In14 1_555 1_555
H85_3 C141_3 1_555 1_555
C142_3 C141_3 1_555 1_555
H86_3 C142_3 1_555 1_555
C143_3 C142_3 1_555 1_555
C146_3 C143_3 1_555 1_555
C147_3 C146_3 1_555 1_555
H89_3 C147_3 1_555 1_555
C148_3 C147_3 1_555 1_555
C149_3 C148_3 1_555 1_555
H90_3 C149_3 1_555 1_555
C150_3 C149_3 1_555 1_555
H92_3 C153_3 1_555 1_555
C155_3 C148_3 1_555 1_555
C156_3 C155_3 1_555 1_555
H94_3 C156_3 1_555 1_555
C157_3 C156_3 1_555 1_555
H95_3 C157_3 1_555 1_555
C158_3 C157_3 1_555 1_555
C159_3 C158_3 1_555 1_555
H96_3 C159_3 1_555 1_555
C160_3 C155_3 1_555 1_555
H97_3 C160_3 1_555 1_555
C161_3 O27_3 1_555 1_555
O51_2 C243_3 1_555 1_555
O54_2 C243_3 1_555 1_555
C193_3 O37_3 1_555 1_555
C194_3 C193_3 1_555 1_555
H117_3 C198_3 1_555 1_555
C199_3 C194_3 1_555 1_555
H118_3 C199_3 1_555 1_555
H121_3 C205_3 1_555 1_555
C208_3 C206_3 1_555 1_555
H123_3 C208_3 1_555 1_555
C243_3 C244_3 1_555 1_555
C244_3 C245_3 1_555 1_555
C246_3 C208_3 1_555 1_555
H144_3 C246_3 1_555 1_555
O22_3 In14 1_555 1_555
C124_3 C128_3 1_555 1_555
C126_3 C127_3 1_555 1_555
O28_3 C161_3 1_555 1_555
C158_3 C161_3 1_555 1_555
C159_3 C160_3 1_555 1_555
O38_3 C193_3 1_555 1_555
C198_3 C199_3 1_555 1_555
C244_3 C246_3 1_555 1_555
O17_3 C103_3 1_555 1_555
O18_3 C103_3 1_555 1_555
C103_3 C105_3 1_555 1_555
C106_3 C105_3 1_555 1_555
H66_3 C106_3 1_555 1_555
C107_3 C106_3 1_555 1_555
H67_3 C107_3 1_555 1_555
C108_3 C107_3 1_555 1_555
In8 O17_3 1_555 1_555
O29_3 In8 1_555 1_555
O30_3 In8 1_555 1_555
O56_2 C184_3 1_555 1_555
O59_2 C184_3 1_555 1_555
C162_3 O29_3 1_555 1_555
C163_3 C162_3 1_555 1_555
C164_3 C163_3 1_555 1_555
H98_3 C164_3 1_555 1_555
C165_3 C164_3 1_555 1_555
H99_3 C165_3 1_555 1_555
C166_3 C165_3 1_555 1_555
C167_3 C166_3 1_555 1_555
H100_3 C167_3 1_555 1_555
C168_3 C163_3 1_555 1_555
H101_3 C168_3 1_555 1_555
C169_3 C170_3 1_555 1_555
C170_3 H102_3 1_555 1_555
C171_3 C170_3 1_555 1_555
C172_3 C171_3 1_555 1_555
H103_3 C172_3 1_555 1_555
C173_3 C166_3 1_555 1_555
C174_3 C169_3 1_555 1_555
H104_3 C174_3 1_555 1_555
C175_3 C171_3 1_555 1_555
C180_3 C175_3 1_555 1_555
H108_3 C180_3 1_555 1_555
C181_3 C169_3 1_555 1_555
C182_3 C181_3 1_555 1_555
H109_3 C182_3 1_555 1_555
C183_3 C181_3 1_555 1_555
H110_3 C183_3 1_555 1_555
C184_3 C185_3 1_555 1_555
C185_3 C186_3 1_555 1_555
C186_3 C182_3 1_555 1_555
H111_3 C186_3 1_555 1_555
C187_3 C183_3 1_555 1_555
H112_3 C187_3 1_555 1_555
O18_3 In8 1_555 1_555
C108_3 C111_3 1_555 1_555
O30_3 C162_3 1_555 1_555
C167_3 C168_3 1_555 1_555
C172_3 C173_3 1_555 1_555
C173_3 C174_3 1_555 1_555
C185_3 C187_3 1_555 1_555
H59_3 C91_3 1_555 1_555
C92_3 C91_3 1_555 1_555
H60_3 C92_3 1_555 1_555
H61_3 C95_3 1_555 1_555
O50_2 C189_3 1_555 1_555
O53_2 C189_3 1_555 1_555
C139_3 O25_3 1_555 1_555
C140_3 C139_3 1_555 1_555
H87_3 C144_3 1_555 1_555
C145_3 C140_3 1_555 1_555
H88_3 C145_3 1_555 1_555
H91_3 C151_3 1_555 1_555
C154_3 C152_3 1_555 1_555
H93_3 C154_3 1_555 1_555
C189_3 C190_3 1_555 1_555
C190_3 C191_3 1_555 1_555
C192_3 C154_3 1_555 1_555
H114_3 C192_3 1_555 1_555
O26_3 C139_3 1_555 1_555
C144_3 C145_3 1_555 1_555
C190_3 C192_3 1_555 1_555
O61 C97_3 1_555 1_555
O64 C97_3 1_555 1_555
H45_3 C68_3 1_555 1_555
C69_3 C68_3 1_555 1_555
H46_3 C69_3 1_555 1_555
C70_3 C69_3 1_555 1_555
C71_3 C70_3 1_555 1_555
H47_3 C71_3 1_555 1_555
C97_3 C70_3 1_555 1_555
C113_3 H70_3 1_555 1_555
C118_3 C113_3 1_555 1_555
H73_3 C118_3 1_555 1_555
H74_3 C119_3 1_555 1_555
O23_3 C130_3 1_555 1_555
O24_3 C130_3 1_555 1_555
C130_3 C136_3 1_555 1_555
C131_3 H80_3 1_555 1_555
C132_3 C131_3 1_555 1_555
H81_3 C132_3 1_555 1_555
C133_3 C132_3 1_555 1_555
C136_3 C131_3 1_555 1_555
In15 O23_3 1_555 1_555
O39_3 In15 1_555 1_555
O40_3 In15 1_555 1_555
H115_3 C195_3 1_555 1_555
C196_3 C195_3 1_555 1_555
H116_3 C196_3 1_555 1_555
C197_3 C196_3 1_555 1_555
C200_3 C197_3 1_555 1_555
C201_3 C200_3 1_555 1_555
H119_3 C201_3 1_555 1_555
C202_3 C201_3 1_555 1_555
C203_3 C202_3 1_555 1_555
H120_3 C203_3 1_555 1_555
C204_3 C203_3 1_555 1_555
H122_3 C207_3 1_555 1_555
C209_3 C202_3 1_555 1_555
C210_3 C209_3 1_555 1_555
H124_3 C210_3 1_555 1_555
C211_3 C210_3 1_555 1_555
H125_3 C211_3 1_555 1_555
C212_3 C211_3 1_555 1_555
C213_3 C212_3 1_555 1_555
H126_3 C213_3 1_555 1_555
C214_3 C209_3 1_555 1_555
H127_3 C214_3 1_555 1_555
C215_3 O39_3 1_555 1_555
O24_3 In15 1_555 1_555
C133_3 C137_3 1_555 1_555
O40_3 C215_3 1_555 1_555
C212_3 C215_3 1_555 1_555
C213_3 C214_3 1_555 1_555
O5_3 In7 1_555 1_555
O6_3 In7 1_555 1_555
O9_3 In7 1_555 1_555
O10_3 In7 1_555 1_555
O55_2 C83_3 1_555 1_555
O58_2 C83_3 1_555 1_555
C54_3 O5_3 1_555 1_555
C55_3 C54_3 1_555 1_555
C56_3 C55_3 1_555 1_555
H38_3 C56_3 1_555 1_555
C57_3 C56_3 1_555 1_555
H39_3 C57_3 1_555 1_555
C58_3 C57_3 1_555 1_555
C59_3 C58_3 1_555 1_555
H40_3 C59_3 1_555 1_555
C60_3 C55_3 1_555 1_555
H41_3 C60_3 1_555 1_555
C61_3 C62_3 1_555 1_555
C62_3 H42_3 1_555 1_555
C63_3 C62_3 1_555 1_555
C64_3 C63_3 1_555 1_555
H43_3 C64_3 1_555 1_555
C65_3 C58_3 1_555 1_555
C66_3 C61_3 1_555 1_555
H44_3 C66_3 1_555 1_555
C67_3 C63_3 1_555 1_555
C72_3 C67_3 1_555 1_555
H48_3 C72_3 1_555 1_555
C73_3 C61_3 1_555 1_555
C74_3 C73_3 1_555 1_555
H49_3 C74_3 1_555 1_555
C75_3 C73_3 1_555 1_555
H50_3 C75_3 1_555 1_555
C76_3 O9_3 1_555 1_555
C77_3 H51_3 1_555 1_555
C78_3 C76_3 1_555 1_555
C79_3 C78_3 1_555 1_555
H52_3 C79_3 1_555 1_555
C80_3 C79_3 1_555 1_555
H53_3 C80_3 1_555 1_555
C81_3 C80_3 1_555 1_555
C82_3 C77_3 1_555 1_555
H54_3 C82_3 1_555 1_555
C83_3 C84_3 1_555 1_555
C84_3 C85_3 1_555 1_555
C85_3 C74_3 1_555 1_555
H55_3 C85_3 1_555 1_555
C86_3 C75_3 1_555 1_555
H56_3 C86_3 1_555 1_555
C96_3 H62_3 1_555 1_555
C98_3 C81_3 1_555 1_555
O62 C188_3 1_555 1_555
O65 C188_3 1_555 1_555
H105_3 C176_3 1_555 1_555
C177_3 C176_3 1_555 1_555
H106_3 C177_3 1_555 1_555
C178_3 C177_3 1_555 1_555
C179_3 C178_3 1_555 1_555
H107_3 C179_3 1_555 1_555
C188_3 C178_3 1_555 1_555
O6_3 C54_3 1_555 1_555
O10_3 C76_3 1_555 1_555
C59_3 C60_3 1_555 1_555
C64_3 C65_3 1_555 1_555
C65_3 C66_3 1_555 1_555
C77_3 C78_3 1_555 1_555
C81_3 C82_3 1_555 1_555
C84_3 C86_3 1_555 1_555
C96_3 C98_3 1_555 1_555
In13 O3_3 1_555 1_555
O1_3 C31_3 1_555 1_555
O3_3 C53_3 1_555 1_555
O4_3 In13 1_555 1_555
O49_2 C99_3 1_555 1_555
O52_2 C99_3 1_555 1_555
O13_3 In13 1_555 1_555
O14_3 In13 1_555 1_555
C31_3 O2_3 1_555 1_555
C32_3 C31_3 1_555 1_555
C33_3 C32_3 1_555 1_555
H25_3 C33_3 1_555 1_555
C34_3 C33_3 1_555 1_555
H26_3 C34_3 1_555 1_555
C35_3 C34_3 1_555 1_555
C36_3 C35_3 1_555 1_555
H27_3 C36_3 1_555 1_555
C37_3 C32_3 1_555 1_555
H28_3 C37_3 1_555 1_555
C38_3 C35_3 1_555 1_555
C39_3 C38_3 1_555 1_555
H29_3 C39_3 1_555 1_555
C40_3 C39_3 1_555 1_555
C41_3 C40_3 1_555 1_555
H30_3 C41_3 1_555 1_555
C42_3 C41_3 1_555 1_555
C43_3 C38_3 1_555 1_555
H31_3 C43_3 1_555 1_555
C44_3 C42_3 1_555 1_555
C45_3 C44_3 1_555 1_555
H32_3 C45_3 1_555 1_555
C46_3 C44_3 1_555 1_555
H33_3 C46_3 1_555 1_555
C47_3 C40_3 1_555 1_555
C48_3 C47_3 1_555 1_555
H34_3 C48_3 1_555 1_555
C49_3 C48_3 1_555 1_555
H35_3 C49_3 1_555 1_555
C50_3 C49_3 1_555 1_555
C51_3 C50_3 1_555 1_555
H36_3 C51_3 1_555 1_555
C52_3 C47_3 1_555 1_555
H37_3 C52_3 1_555 1_555
C53_3 O4_3 1_555 1_555
C87_3 O13_3 1_555 1_555
C88_3 H57_3 1_555 1_555
C89_3 C88_3 1_555 1_555
H58_3 C89_3 1_555 1_555
C90_3 C89_3 1_555 1_555
C93_3 C87_3 1_555 1_555
C94_3 C90_3 1_555 1_555
C99_3 C100_3 1_555 1_555
C100_3 C101_3 1_555 1_555
C101_3 C45_3 1_555 1_555
H63_3 C101_3 1_555 1_555
C102_3 C46_3 1_555 1_555
H64_3 C102_3 1_555 1_555
H82_3 C134_3 1_555 1_555
C135_3 C134_3 1_555 1_555
H83_3 C135_3 1_555 1_555
C138_3 C94_3 1_555 1_555
H84_3 C138_3 1_555 1_555
O14_3 C87_3 1_555 1_555
C36_3 C37_3 1_555 1_555
C42_3 C43_3 1_555 1_555
C50_3 C53_3 1_555 1_555
C51_3 C52_3 1_555 1_555
C88_3 C93_3 1_555 1_555
C100_3 C102_3 1_555 1_555
O7_2 C99_4 1_555 1_555
O8_2 C99_4 1_555 1_555
C99_4 C100_4 1_555 1_555
C100_4 C101_4 1_555 1_555
H63_4 C101_4 1_555 1_555
O35_3 C188_4 1_555 1_555
O36_3 C188_4 1_555 1_555
H106_4 C177_4 1_555 1_555
C178_4 C177_4 1_555 1_555
C179_4 C178_4 1_555 1_555
H107_4 C179_4 1_555 1_555
H108_4 C180_4 1_555 1_555
C188_4 C178_4 1_555 1_555
In8_2 O7_2 1_555 1_555
In11_2 O35_3 1_555 1_555
O8_2 In8_2 1_555 1_555
O36_3 In11_2 1_555 1_555
C179_4 C180_4 1_555 1_555
C88_4 H57_4 1_555 1_555
C89_4 C88_4 1_555 1_555
H58_4 C89_4 1_555 1_555
C122_4 H75_4 1_555 1_555
C123_4 C122_4 1_555 1_555
H76_4 C123_4 1_555 1_555
C131_4 H80_4 1_555 1_555
C132_4 C131_4 1_555 1_555
H81_4 C132_4 1_555 1_555
In1_3 O1_4 1_555 1_555
In2_2 O3_4 1_555 1_555
O1_4 C31_4 1_555 1_555
O2_4 In1_3 1_555 1_555
O3_4 C53_4 1_555 1_555
O4_4 In2_2 1_555 1_555
O5_4 In1_3 1_555 1_555
O6_4 In1_3 1_555 1_555
O9_4 In1_3 1_555 1_555
O10_4 In1_3 1_555 1_555
O11_2 C83_4 1_555 1_555
O12_2 C83_4 1_555 1_555
O13_4 In2_2 1_555 1_555
O14_4 In2_2 1_555 1_555
O15_3 C97_4 1_555 1_555
O16_3 C97_4 1_555 1_555
C31_4 O2_4 1_555 1_555
C32_4 C31_4 1_555 1_555
C33_4 C32_4 1_555 1_555
H25_4 C33_4 1_555 1_555
C34_4 C33_4 1_555 1_555
H26_4 C34_4 1_555 1_555
C35_4 C34_4 1_555 1_555
C36_4 C35_4 1_555 1_555
H27_4 C36_4 1_555 1_555
C37_4 C32_4 1_555 1_555
H28_4 C37_4 1_555 1_555
C38_4 C35_4 1_555 1_555
C39_4 C38_4 1_555 1_555
H29_4 C39_4 1_555 1_555
C40_4 C39_4 1_555 1_555
C41_4 C40_4 1_555 1_555
H30_4 C41_4 1_555 1_555
C42_4 C41_4 1_555 1_555
C43_4 C38_4 1_555 1_555
H31_4 C43_4 1_555 1_555
C44_4 C42_4 1_555 1_555
C45_4 C44_4 1_555 1_555
C46_4 C44_4 1_555 1_555
H33_4 C46_4 1_555 1_555
C47_4 C40_4 1_555 1_555
C48_4 C47_4 1_555 1_555
H34_4 C48_4 1_555 1_555
C49_4 C48_4 1_555 1_555
H35_4 C49_4 1_555 1_555
C50_4 C49_4 1_555 1_555
C51_4 C50_4 1_555 1_555
H36_4 C51_4 1_555 1_555
C52_4 C47_4 1_555 1_555
H37_4 C52_4 1_555 1_555
C53_4 O4_4 1_555 1_555
C54_4 O5_4 1_555 1_555
C55_4 C54_4 1_555 1_555
C56_4 C55_4 1_555 1_555
H38_4 C56_4 1_555 1_555
C57_4 C56_4 1_555 1_555
H39_4 C57_4 1_555 1_555
C58_4 C57_4 1_555 1_555
C59_4 C58_4 1_555 1_555
H40_4 C59_4 1_555 1_555
C60_4 C55_4 1_555 1_555
H41_4 C60_4 1_555 1_555
C61_4 C62_4 1_555 1_555
C62_4 H42_4 1_555 1_555
C63_4 C62_4 1_555 1_555
C64_4 C63_4 1_555 1_555
H43_4 C64_4 1_555 1_555
C65_4 C58_4 1_555 1_555
C66_4 C61_4 1_555 1_555
H44_4 C66_4 1_555 1_555
C67_4 C63_4 1_555 1_555
C68_4 C67_4 1_555 1_555
H45_4 C68_4 1_555 1_555
C69_4 C68_4 1_555 1_555
H46_4 C69_4 1_555 1_555
C70_4 C69_4 1_555 1_555
C71_4 C70_4 1_555 1_555
H47_4 C71_4 1_555 1_555
C72_4 C67_4 1_555 1_555
H48_4 C72_4 1_555 1_555
C73_4 C61_4 1_555 1_555
C74_4 C73_4 1_555 1_555
H49_4 C74_4 1_555 1_555
C75_4 C73_4 1_555 1_555
H50_4 C75_4 1_555 1_555
C76_4 O9_4 1_555 1_555
C77_4 H51_4 1_555 1_555
C78_4 C76_4 1_555 1_555
C79_4 C78_4 1_555 1_555
H52_4 C79_4 1_555 1_555
C80_4 C79_4 1_555 1_555
H53_4 C80_4 1_555 1_555
C81_4 C80_4 1_555 1_555
C82_4 C77_4 1_555 1_555
H54_4 C82_4 1_555 1_555
C83_4 C84_4 1_555 1_555
C84_4 C85_4 1_555 1_555
C85_4 C74_4 1_555 1_555
H55_4 C85_4 1_555 1_555
C86_4 C75_4 1_555 1_555
H56_4 C86_4 1_555 1_555
C87_4 O13_4 1_555 1_555
C91_4 C90_4 1_555 1_555
H59_4 C91_4 1_555 1_555
C92_4 C91_4 1_555 1_555
H60_4 C92_4 1_555 1_555
C93_4 C87_4 1_555 1_555
C94_4 C90_4 1_555 1_555
C95_4 C94_4 1_555 1_555
H61_4 C95_4 1_555 1_555
C96_4 H62_4 1_555 1_555
C97_4 C70_4 1_555 1_555
C98_4 C81_4 1_555 1_555
C102_4 C46_4 1_555 1_555
H64_4 C102_4 1_555 1_555
O17_4 C103_4 1_555 1_555
O18_4 C103_4 1_555 1_555
C103_4 C105_4 1_555 1_555
C104_4 H65_4 1_555 1_555
C105_4 C104_4 1_555 1_555
C106_4 C105_4 1_555 1_555
H66_4 C106_4 1_555 1_555
C107_4 C106_4 1_555 1_555
H67_4 C107_4 1_555 1_555
C108_4 C107_4 1_555 1_555
C109_4 C104_4 1_555 1_555
H68_4 C109_4 1_555 1_555
C110_4 H69_4 1_555 1_555
C111_4 C96_4 1_555 1_555
O19_4 C112_4 1_555 1_555
O20_4 C112_4 1_555 1_555
C112_4 C114_4 1_555 1_555
C113_4 H70_4 1_555 1_555
C114_4 C113_4 1_555 1_555
C115_4 C114_4 1_555 1_555
H71_4 C115_4 1_555 1_555
C116_4 C115_4 1_555 1_555
H72_4 C116_4 1_555 1_555
C117_4 C116_4 1_555 1_555
C118_4 C113_4 1_555 1_555
H73_4 C118_4 1_555 1_555
C119_4 C98_4 1_555 1_555
H74_4 C119_4 1_555 1_555
C120_4 C110_4 1_555 1_555
O21_4 C121_4 1_555 1_555
O22_4 C121_4 1_555 1_555
C121_4 C127_4 1_555 1_555
C125_4 C124_4 1_555 1_555
H77_4 C125_4 1_555 1_555
C126_4 C125_4 1_555 1_555
H78_4 C126_4 1_555 1_555
C128_4 C95_4 1_555 1_555
C129_4 C128_4 1_555 1_555
H79_4 C129_4 1_555 1_555
O23_4 C130_4 1_555 1_555
O24_4 C130_4 1_555 1_555
C130_4 C136_4 1_555 1_555
C134_4 C133_4 1_555 1_555
H82_4 C134_4 1_555 1_555
C135_4 C134_4 1_555 1_555
H83_4 C135_4 1_555 1_555
C137_4 C129_4 1_555 1_555
C138_4 C94_4 1_555 1_555
H84_4 C138_4 1_555 1_555
In3_3 O17_4 1_555 1_555
In4_2 O21_4 1_555 1_555
O25_4 In3_3 1_555 1_555
O26_4 In3_3 1_555 1_555
O27_4 In4_2 1_555 1_555
O28_4 In4_2 1_555 1_555
O29_4 In3_3 1_555 1_555
O30_4 In3_3 1_555 1_555
O33_2 C184_4 1_555 1_555
O34_2 C184_4 1_555 1_555
C139_4 O25_4 1_555 1_555
C140_4 C139_4 1_555 1_555
C141_4 C140_4 1_555 1_555
H85_4 C141_4 1_555 1_555
C142_4 C141_4 1_555 1_555
H86_4 C142_4 1_555 1_555
C143_4 C142_4 1_555 1_555
C144_4 C143_4 1_555 1_555
H87_4 C144_4 1_555 1_555
C145_4 C140_4 1_555 1_555
H88_4 C145_4 1_555 1_555
C146_4 C143_4 1_555 1_555
C147_4 C146_4 1_555 1_555
H89_4 C147_4 1_555 1_555
C148_4 C147_4 1_555 1_555
C149_4 C148_4 1_555 1_555
H90_4 C149_4 1_555 1_555
C150_4 C149_4 1_555 1_555
C151_4 C146_4 1_555 1_555
H91_4 C151_4 1_555 1_555
C152_4 C150_4 1_555 1_555
C153_4 C152_4 1_555 1_555
C154_4 C152_4 1_555 1_555
H93_4 C154_4 1_555 1_555
C155_4 C148_4 1_555 1_555
C156_4 C155_4 1_555 1_555
H94_4 C156_4 1_555 1_555
C157_4 C156_4 1_555 1_555
H95_4 C157_4 1_555 1_555
C158_4 C157_4 1_555 1_555
C159_4 C158_4 1_555 1_555
H96_4 C159_4 1_555 1_555
C160_4 C155_4 1_555 1_555
H97_4 C160_4 1_555 1_555
C161_4 O27_4 1_555 1_555
C162_4 O29_4 1_555 1_555
C163_4 C162_4 1_555 1_555
C164_4 C163_4 1_555 1_555
H98_4 C164_4 1_555 1_555
C165_4 C164_4 1_555 1_555
H99_4 C165_4 1_555 1_555
C166_4 C165_4 1_555 1_555
C167_4 C166_4 1_555 1_555
H100_4 C167_4 1_555 1_555
C168_4 C163_4 1_555 1_555
H101_4 C168_4 1_555 1_555
C169_4 C170_4 1_555 1_555
C170_4 H102_4 1_555 1_555
C171_4 C170_4 1_555 1_555
C172_4 C171_4 1_555 1_555
H103_4 C172_4 1_555 1_555
C173_4 C166_4 1_555 1_555
C174_4 C169_4 1_555 1_555
H104_4 C174_4 1_555 1_555
C175_4 C171_4 1_555 1_555
C176_4 C175_4 1_555 1_555
H105_4 C176_4 1_555 1_555
C181_4 C169_4 1_555 1_555
C182_4 C181_4 1_555 1_555
H109_4 C182_4 1_555 1_555
C183_4 C181_4 1_555 1_555
C184_4 C185_4 1_555 1_555
C185_4 C186_4 1_555 1_555
C186_4 C182_4 1_555 1_555
H111_4 C186_4 1_555 1_555
C187_4 C183_4 1_555 1_555
C192_4 C154_4 1_555 1_555
H114_4 C192_4 1_555 1_555
In5_3 O19_4 1_555 1_555
In6_2 O23_4 1_555 1_555
O37_4 In5_3 1_555 1_555
O38_4 In5_3 1_555 1_555
O39_4 In6_2 1_555 1_555
O40_4 In6_2 1_555 1_555
O41_4 In5_3 1_555 1_555
O42_4 In5_3 1_555 1_555
O43_2 C243_4 1_555 1_555
O44_2 C243_4 1_555 1_555
O45_2 C238_4 1_555 1_555
O46_2 C238_4 1_555 1_555
C193_4 O37_4 1_555 1_555
C194_4 C193_4 1_555 1_555
C195_4 C194_4 1_555 1_555
H115_4 C195_4 1_555 1_555
C196_4 C195_4 1_555 1_555
H116_4 C196_4 1_555 1_555
C197_4 C196_4 1_555 1_555
C198_4 C197_4 1_555 1_555
H117_4 C198_4 1_555 1_555
C199_4 C194_4 1_555 1_555
H118_4 C199_4 1_555 1_555
C200_4 C197_4 1_555 1_555
C201_4 C200_4 1_555 1_555
H119_4 C201_4 1_555 1_555
C202_4 C201_4 1_555 1_555
C203_4 C202_4 1_555 1_555
H120_4 C203_4 1_555 1_555
C204_4 C203_4 1_555 1_555
C205_4 C200_4 1_555 1_555
H121_4 C205_4 1_555 1_555
C206_4 C204_4 1_555 1_555
C207_4 C206_4 1_555 1_555
H122_4 C207_4 1_555 1_555
C208_4 C206_4 1_555 1_555
H123_4 C208_4 1_555 1_555
C209_4 C202_4 1_555 1_555
C210_4 C209_4 1_555 1_555
H124_4 C210_4 1_555 1_555
C211_4 C210_4 1_555 1_555
H125_4 C211_4 1_555 1_555
C212_4 C211_4 1_555 1_555
C213_4 C212_4 1_555 1_555
H126_4 C213_4 1_555 1_555
C214_4 C209_4 1_555 1_555
H127_4 C214_4 1_555 1_555
C215_4 O39_4 1_555 1_555
C216_4 O41_4 1_555 1_555
C217_4 C216_4 1_555 1_555
C218_4 C217_4 1_555 1_555
H128_4 C218_4 1_555 1_555
C219_4 C218_4 1_555 1_555
H129_4 C219_4 1_555 1_555
C220_4 C219_4 1_555 1_555
C221_4 C220_4 1_555 1_555
H130_4 C221_4 1_555 1_555
C222_4 C217_4 1_555 1_555
H131_4 C222_4 1_555 1_555
C223_4 C224_4 1_555 1_555
C224_4 H132_4 1_555 1_555
C225_4 C224_4 1_555 1_555
C226_4 C225_4 1_555 1_555
H133_4 C226_4 1_555 1_555
C227_4 C220_4 1_555 1_555
C228_4 C223_4 1_555 1_555
H134_4 C228_4 1_555 1_555
C229_4 C225_4 1_555 1_555
C230_4 C229_4 1_555 1_555
H135_4 C230_4 1_555 1_555
C235_4 C223_4 1_555 1_555
C236_4 C235_4 1_555 1_555
H139_4 C236_4 1_555 1_555
C237_4 C235_4 1_555 1_555
C238_4 C239_4 1_555 1_555
C239_4 C240_4 1_555 1_555
C240_4 C236_4 1_555 1_555
H141_4 C240_4 1_555 1_555
C241_4 C237_4 1_555 1_555
C243_4 C244_4 1_555 1_555
C244_4 C245_4 1_555 1_555
C245_4 C207_4 1_555 1_555
H143_4 C245_4 1_555 1_555
C246_4 C208_4 1_555 1_555
H144_4 C246_4 1_555 1_555
In7_2 O43_2 1_555 1_555
In10_2 O15_3 1_555 1_555
In13_2 O45_2 1_555 1_555
In14_2 O11_2 1_555 1_555
In15_2 O33_2 1_555 1_555
O49_3 In3_3 1_555 1_555
O50_3 In5_3 1_555 1_555
O51_3 In1_3 1_555 1_555
O52_3 In3_3 1_555 1_555
O53_3 In5_3 1_555 1_555
O54_3 In1_3 1_555 1_555
O61_2 In2_2 1_555 1_555
O62_2 In4_2 1_555 1_555
O63_2 In6_2 1_555 1_555
O64_2 In2_2 1_555 1_555
O65_2 In4_2 1_555 1_555
O66_2 In6_2 1_555 1_555
O6_4 C54_4 1_555 1_555
O10_4 C76_4 1_555 1_555
O12_2 In14_2 1_555 1_555
O14_4 C87_4 1_555 1_555
O16_3 In10_2 1_555 1_555
C36_4 C37_4 1_555 1_555
C42_4 C43_4 1_555 1_555
C50_4 C53_4 1_555 1_555
C51_4 C52_4 1_555 1_555
C59_4 C60_4 1_555 1_555
C64_4 C65_4 1_555 1_555
C65_4 C66_4 1_555 1_555
C71_4 C72_4 1_555 1_555
C77_4 C78_4 1_555 1_555
C81_4 C82_4 1_555 1_555
C84_4 C86_4 1_555 1_555
C92_4 C93_4 1_555 1_555
C96_4 C98_4 1_555 1_555
O18_4 In3_3 1_555 1_555
C108_4 C109_4 1_555 1_555
C108_4 C111_4 1_555 1_555
C110_4 C111_4 1_555 1_555
O20_4 In5_3 1_555 1_555
C117_4 C118_4 1_555 1_555
C117_4 C120_4 1_555 1_555
C119_4 C120_4 1_555 1_555
O22_4 In4_2 1_555 1_555
C124_4 C128_4 1_555 1_555
C126_4 C127_4 1_555 1_555
O24_4 In6_2 1_555 1_555
C133_4 C137_4 1_555 1_555
C135_4 C136_4 1_555 1_555
C137_4 C138_4 1_555 1_555
O26_4 C139_4 1_555 1_555
O28_4 C161_4 1_555 1_555
O30_4 C162_4 1_555 1_555
O34_2 In15_2 1_555 1_555
C144_4 C145_4 1_555 1_555
C150_4 C151_4 1_555 1_555
C158_4 C161_4 1_555 1_555
C159_4 C160_4 1_555 1_555
C167_4 C168_4 1_555 1_555
C172_4 C173_4 1_555 1_555
C173_4 C174_4 1_555 1_555
C185_4 C187_4 1_555 1_555
O38_4 C193_4 1_555 1_555
O40_4 C215_4 1_555 1_555
O42_4 C216_4 1_555 1_555
O44_2 In7_2 1_555 1_555
O46_2 In13_2 1_555 1_555
C198_4 C199_4 1_555 1_555
C204_4 C205_4 1_555 1_555
C212_4 C215_4 1_555 1_555
C213_4 C214_4 1_555 1_555
C221_4 C222_4 1_555 1_555
C226_4 C227_4 1_555 1_555
C227_4 C228_4 1_555 1_555
C239_4 C241_4 1_555 1_555
C244_4 C246_4 1_555 1_555
O31_2 C189_4 1_555 1_555
O32_2 C189_4 1_555 1_555
C189_4 C190_4 1_555 1_555
C190_4 C191_4 1_555 1_555
H113_4 C191_4 1_555 1_555
O47_3 C242_4 1_555 1_555
O48_3 C242_4 1_555 1_555
H136_4 C231_4 1_555 1_555
C232_4 C231_4 1_555 1_555
C233_4 C232_4 1_555 1_555
H137_4 C233_4 1_555 1_555
H138_4 C234_4 1_555 1_555
C242_4 C232_4 1_555 1_555
In9_2 O31_2 1_555 1_555
In12_2 O47_3 1_555 1_555
O32_2 In9_2 1_555 1_555
O48_3 In12_2 1_555 1_555
C233_4 C234_4 1_555 1_555
O49_3 C99_5 1_555 1_555
O52_3 C99_5 1_555 1_555
O55_3 C83_5 1_555 1_555
O58_3 C83_5 1_555 1_555
O15_4 C97_5 1_555 1_555
O16_4 C97_5 1_555 1_555
H33_5 C46_5 1_555 1_555
C61_5 C62_5 1_555 1_555
C62_5 H42_5 1_555 1_555
C63_5 C62_5 1_555 1_555
C64_5 C63_5 1_555 1_555
C66_5 C61_5 1_555 1_555
H44_5 C66_5 1_555 1_555
C67_5 C63_5 1_555 1_555
C70_5 C69_5 1_555 1_555
C71_5 C70_5 1_555 1_555
H47_5 C71_5 1_555 1_555
C72_5 C67_5 1_555 1_555
H48_5 C72_5 1_555 1_555
C73_5 C61_5 1_555 1_555
C74_5 C73_5 1_555 1_555
H49_5 C74_5 1_555 1_555
C75_5 C73_5 1_555 1_555
H50_5 C75_5 1_555 1_555
C83_5 C84_5 1_555 1_555
C84_5 C85_5 1_555 1_555
C85_5 C74_5 1_555 1_555
H55_5 C85_5 1_555 1_555
C86_5 C75_5 1_555 1_555
H56_5 C86_5 1_555 1_555
C97_5 C70_5 1_555 1_555
C99_5 C100_5 1_555 1_555
C100_5 C101_5 1_555 1_555
H63_5 C101_5 1_555 1_555
C102_5 C46_5 1_555 1_555
H64_5 C102_5 1_555 1_555
In13_2 O15_4 1_555 1_555
O16_4 In13_2 1_555 1_555
C64_5 C65_5 1_555 1_555
C65_5 C66_5 1_555 1_555
C71_5 C72_5 1_555 1_555
C84_5 C86_5 1_555 1_555
C100_5 C102_5 1_555 1_555
In1_4 O1_5 1_555 1_555
In10_2 O3_5 1_555 1_555
O1_5 C31_5 1_555 1_555
O2_5 In1_4 1_555 1_555
O3_5 C53_5 1_555 1_555
O4_5 In10_2 1_555 1_555
O5_5 In1_4 1_555 1_555
O6_5 In1_4 1_555 1_555
O9_5 In1_4 1_555 1_555
O10_5 In1_4 1_555 1_555
O13_5 In10_2 1_555 1_555
O14_5 In10_2 1_555 1_555
C31_5 O2_5 1_555 1_555
C32_5 C31_5 1_555 1_555
C33_5 C32_5 1_555 1_555
H25_5 C33_5 1_555 1_555
C34_5 C33_5 1_555 1_555
H26_5 C34_5 1_555 1_555
C35_5 C34_5 1_555 1_555
C36_5 C35_5 1_555 1_555
H27_5 C36_5 1_555 1_555
C37_5 C32_5 1_555 1_555
H28_5 C37_5 1_555 1_555
C38_5 C35_5 1_555 1_555
C39_5 C38_5 1_555 1_555
H29_5 C39_5 1_555 1_555
C40_5 C39_5 1_555 1_555
C41_5 C40_5 1_555 1_555
H30_5 C41_5 1_555 1_555
C42_5 C41_5 1_555 1_555
C43_5 C38_5 1_555 1_555
H31_5 C43_5 1_555 1_555
C44_5 C42_5 1_555 1_555
C45_5 C44_5 1_555 1_555
H32_5 C45_5 1_555 1_555
C47_5 C40_5 1_555 1_555
C48_5 C47_5 1_555 1_555
H34_5 C48_5 1_555 1_555
C49_5 C48_5 1_555 1_555
H35_5 C49_5 1_555 1_555
C50_5 C49_5 1_555 1_555
C51_5 C50_5 1_555 1_555
H36_5 C51_5 1_555 1_555
C52_5 C47_5 1_555 1_555
H37_5 C52_5 1_555 1_555
C53_5 O4_5 1_555 1_555
C54_5 O5_5 1_555 1_555
C55_5 C54_5 1_555 1_555
C56_5 C55_5 1_555 1_555
H38_5 C56_5 1_555 1_555
C57_5 C56_5 1_555 1_555
H39_5 C57_5 1_555 1_555
C58_5 C57_5 1_555 1_555
C59_5 C58_5 1_555 1_555
H40_5 C59_5 1_555 1_555
C60_5 C55_5 1_555 1_555
H41_5 C60_5 1_555 1_555
H45_5 C68_5 1_555 1_555
C76_5 O9_5 1_555 1_555
C77_5 H51_5 1_555 1_555
C78_5 C76_5 1_555 1_555
C79_5 C78_5 1_555 1_555
H52_5 C79_5 1_555 1_555
C80_5 C79_5 1_555 1_555
H53_5 C80_5 1_555 1_555
C81_5 C80_5 1_555 1_555
C82_5 C77_5 1_555 1_555
H54_5 C82_5 1_555 1_555
C87_5 O13_5 1_555 1_555
C88_5 H57_5 1_555 1_555
C89_5 C88_5 1_555 1_555
H58_5 C89_5 1_555 1_555
C90_5 C89_5 1_555 1_555
C91_5 C90_5 1_555 1_555
H59_5 C91_5 1_555 1_555
C92_5 C91_5 1_555 1_555
H60_5 C92_5 1_555 1_555
C93_5 C87_5 1_555 1_555
C94_5 C90_5 1_555 1_555
C95_5 C94_5 1_555 1_555
H61_5 C95_5 1_555 1_555
C96_5 H62_5 1_555 1_555
C98_5 C81_5 1_555 1_555
O17_5 C103_5 1_555 1_555
O18_5 C103_5 1_555 1_555
C103_5 C105_5 1_555 1_555
C104_5 H65_5 1_555 1_555
C105_5 C104_5 1_555 1_555
C106_5 C105_5 1_555 1_555
H66_5 C106_5 1_555 1_555
C107_5 C106_5 1_555 1_555
H67_5 C107_5 1_555 1_555
C108_5 C107_5 1_555 1_555
C109_5 C104_5 1_555 1_555
H68_5 C109_5 1_555 1_555
C110_5 H69_5 1_555 1_555
C111_5 C96_5 1_555 1_555
O19_5 C112_5 1_555 1_555
O20_5 C112_5 1_555 1_555
C112_5 C114_5 1_555 1_555
C113_5 H70_5 1_555 1_555
C114_5 C113_5 1_555 1_555
C115_5 C114_5 1_555 1_555
H71_5 C115_5 1_555 1_555
C116_5 C115_5 1_555 1_555
H72_5 C116_5 1_555 1_555
C117_5 C116_5 1_555 1_555
C118_5 C113_5 1_555 1_555
H73_5 C118_5 1_555 1_555
C119_5 C98_5 1_555 1_555
H74_5 C119_5 1_555 1_555
C120_5 C110_5 1_555 1_555
O21_5 C121_5 1_555 1_555
O22_5 C121_5 1_555 1_555
C121_5 C127_5 1_555 1_555
C122_5 H75_5 1_555 1_555
C123_5 C122_5 1_555 1_555
H76_5 C123_5 1_555 1_555
C124_5 C123_5 1_555 1_555
C125_5 C124_5 1_555 1_555
H77_5 C125_5 1_555 1_555
C126_5 C125_5 1_555 1_555
H78_5 C126_5 1_555 1_555
C127_5 C122_5 1_555 1_555
C128_5 C95_5 1_555 1_555
C129_5 C128_5 1_555 1_555
H79_5 C129_5 1_555 1_555
O23_5 C130_5 1_555 1_555
O24_5 C130_5 1_555 1_555
C130_5 C136_5 1_555 1_555
C131_5 H80_5 1_555 1_555
C132_5 C131_5 1_555 1_555
H81_5 C132_5 1_555 1_555
C133_5 C132_5 1_555 1_555
C134_5 C133_5 1_555 1_555
H82_5 C134_5 1_555 1_555
C135_5 C134_5 1_555 1_555
H83_5 C135_5 1_555 1_555
C136_5 C131_5 1_555 1_555
C137_5 C129_5 1_555 1_555
C138_5 C94_5 1_555 1_555
H84_5 C138_5 1_555 1_555
In3_4 O17_5 1_555 1_555
In11_2 O21_5 1_555 1_555
O25_5 In3_4 1_555 1_555
O26_5 In3_4 1_555 1_555
O27_5 In11_2 1_555 1_555
O28_5 In11_2 1_555 1_555
O29_5 In3_4 1_555 1_555
O30_5 In3_4 1_555 1_555
O50_3 C189_5 1_555 1_555
O53_3 C189_5 1_555 1_555
O56_3 C184_5 1_555 1_555
O59_3 C184_5 1_555 1_555
O35_4 C188_5 1_555 1_555
O36_4 C188_5 1_555 1_555
C139_5 O25_5 1_555 1_555
C140_5 C139_5 1_555 1_555
C141_5 C140_5 1_555 1_555
H85_5 C141_5 1_555 1_555
C142_5 C141_5 1_555 1_555
H86_5 C142_5 1_555 1_555
C143_5 C142_5 1_555 1_555
C144_5 C143_5 1_555 1_555
H87_5 C144_5 1_555 1_555
C145_5 C140_5 1_555 1_555
H88_5 C145_5 1_555 1_555
C146_5 C143_5 1_555 1_555
C147_5 C146_5 1_555 1_555
H89_5 C147_5 1_555 1_555
C148_5 C147_5 1_555 1_555
C149_5 C148_5 1_555 1_555
H90_5 C149_5 1_555 1_555
C150_5 C149_5 1_555 1_555
C151_5 C146_5 1_555 1_555
H91_5 C151_5 1_555 1_555
C152_5 C150_5 1_555 1_555
C153_5 C152_5 1_555 1_555
H92_5 C153_5 1_555 1_555
C154_5 C152_5 1_555 1_555
H93_5 C154_5 1_555 1_555
C155_5 C148_5 1_555 1_555
C156_5 C155_5 1_555 1_555
H94_5 C156_5 1_555 1_555
C157_5 C156_5 1_555 1_555
H95_5 C157_5 1_555 1_555
C158_5 C157_5 1_555 1_555
C159_5 C158_5 1_555 1_555
H96_5 C159_5 1_555 1_555
C160_5 C155_5 1_555 1_555
H97_5 C160_5 1_555 1_555
C161_5 O27_5 1_555 1_555
C162_5 O29_5 1_555 1_555
C163_5 C162_5 1_555 1_555
C164_5 C163_5 1_555 1_555
H98_5 C164_5 1_555 1_555
C165_5 C164_5 1_555 1_555
H99_5 C165_5 1_555 1_555
C166_5 C165_5 1_555 1_555
C167_5 C166_5 1_555 1_555
H100_5 C167_5 1_555 1_555
C168_5 C163_5 1_555 1_555
H101_5 C168_5 1_555 1_555
C169_5 C170_5 1_555 1_555
C170_5 H102_5 1_555 1_555
C171_5 C170_5 1_555 1_555
C172_5 C171_5 1_555 1_555
H103_5 C172_5 1_555 1_555
C173_5 C166_5 1_555 1_555
C174_5 C169_5 1_555 1_555
H104_5 C174_5 1_555 1_555
C175_5 C171_5 1_555 1_555
C176_5 C175_5 1_555 1_555
H105_5 C176_5 1_555 1_555
C177_5 C176_5 1_555 1_555
H106_5 C177_5 1_555 1_555
C178_5 C177_5 1_555 1_555
C179_5 C178_5 1_555 1_555
H107_5 C179_5 1_555 1_555
C180_5 C175_5 1_555 1_555
H108_5 C180_5 1_555 1_555
C181_5 C169_5 1_555 1_555
C182_5 C181_5 1_555 1_555
H109_5 C182_5 1_555 1_555
C183_5 C181_5 1_555 1_555
H110_5 C183_5 1_555 1_555
C184_5 C185_5 1_555 1_555
C185_5 C186_5 1_555 1_555
C186_5 C182_5 1_555 1_555
H111_5 C186_5 1_555 1_555
C187_5 C183_5 1_555 1_555
H112_5 C187_5 1_555 1_555
C188_5 C178_5 1_555 1_555
C189_5 C190_5 1_555 1_555
C190_5 C191_5 1_555 1_555
C191_5 C153_5 1_555 1_555
H113_5 C191_5 1_555 1_555
C192_5 C154_5 1_555 1_555
H114_5 C192_5 1_555 1_555
In5_4 O19_5 1_555 1_555
In12_2 O23_5 1_555 1_555
O37_5 In5_4 1_555 1_555
O38_5 In5_4 1_555 1_555
O39_5 In12_2 1_555 1_555
O40_5 In12_2 1_555 1_555
O41_5 In5_4 1_555 1_555
O42_5 In5_4 1_555 1_555
C193_5 O37_5 1_555 1_555
C194_5 C193_5 1_555 1_555
C195_5 C194_5 1_555 1_555
H115_5 C195_5 1_555 1_555
C196_5 C195_5 1_555 1_555
H116_5 C196_5 1_555 1_555
C197_5 C196_5 1_555 1_555
C198_5 C197_5 1_555 1_555
H117_5 C198_5 1_555 1_555
C199_5 C194_5 1_555 1_555
H118_5 C199_5 1_555 1_555
C200_5 C197_5 1_555 1_555
C201_5 C200_5 1_555 1_555
H119_5 C201_5 1_555 1_555
C202_5 C201_5 1_555 1_555
C203_5 C202_5 1_555 1_555
H120_5 C203_5 1_555 1_555
C204_5 C203_5 1_555 1_555
C205_5 C200_5 1_555 1_555
H121_5 C205_5 1_555 1_555
C206_5 C204_5 1_555 1_555
C207_5 C206_5 1_555 1_555
H122_5 C207_5 1_555 1_555
C209_5 C202_5 1_555 1_555
C210_5 C209_5 1_555 1_555
H124_5 C210_5 1_555 1_555
C211_5 C210_5 1_555 1_555
H125_5 C211_5 1_555 1_555
C212_5 C211_5 1_555 1_555
C213_5 C212_5 1_555 1_555
H126_5 C213_5 1_555 1_555
C214_5 C209_5 1_555 1_555
H127_5 C214_5 1_555 1_555
C215_5 O39_5 1_555 1_555
C216_5 O41_5 1_555 1_555
C217_5 C216_5 1_555 1_555
C218_5 C217_5 1_555 1_555
H128_5 C218_5 1_555 1_555
C219_5 C218_5 1_555 1_555
H129_5 C219_5 1_555 1_555
C220_5 C219_5 1_555 1_555
C221_5 C220_5 1_555 1_555
H130_5 C221_5 1_555 1_555
C222_5 C217_5 1_555 1_555
H131_5 C222_5 1_555 1_555
H135_5 C230_5 1_555 1_555
In14_2 O35_4 1_555 1_555
O49_4 In3_4 1_555 1_555
O50_4 In5_4 1_555 1_555
O51_4 In1_4 1_555 1_555
O52_4 In3_4 1_555 1_555
O53_4 In5_4 1_555 1_555
O54_4 In1_4 1_555 1_555
O55_4 In11_2 1_555 1_555
O56_4 In12_2 1_555 1_555
O57_4 In10_2 1_555 1_555
O58_4 In11_2 1_555 1_555
O59_4 In12_2 1_555 1_555
O60_4 In10_2 1_555 1_555
O6_5 C54_5 1_555 1_555
O10_5 C76_5 1_555 1_555
O14_5 C87_5 1_555 1_555
C36_5 C37_5 1_555 1_555
C42_5 C43_5 1_555 1_555
C50_5 C53_5 1_555 1_555
C51_5 C52_5 1_555 1_555
C59_5 C60_5 1_555 1_555
C77_5 C78_5 1_555 1_555
C81_5 C82_5 1_555 1_555
C88_5 C93_5 1_555 1_555
C92_5 C93_5 1_555 1_555
C96_5 C98_5 1_555 1_555
O18_5 In3_4 1_555 1_555
C108_5 C109_5 1_555 1_555
C108_5 C111_5 1_555 1_555
C110_5 C111_5 1_555 1_555
O20_5 In5_4 1_555 1_555
C117_5 C118_5 1_555 1_555
C117_5 C120_5 1_555 1_555
C119_5 C120_5 1_555 1_555
O22_5 In11_2 1_555 1_555
C124_5 C128_5 1_555 1_555
C126_5 C127_5 1_555 1_555
O24_5 In12_2 1_555 1_555
C133_5 C137_5 1_555 1_555
C135_5 C136_5 1_555 1_555
C137_5 C138_5 1_555 1_555
O26_5 C139_5 1_555 1_555
O28_5 C161_5 1_555 1_555
O30_5 C162_5 1_555 1_555
O36_4 In14_2 1_555 1_555
C144_5 C145_5 1_555 1_555
C150_5 C151_5 1_555 1_555
C158_5 C161_5 1_555 1_555
C159_5 C160_5 1_555 1_555
C167_5 C168_5 1_555 1_555
C172_5 C173_5 1_555 1_555
C173_5 C174_5 1_555 1_555
C179_5 C180_5 1_555 1_555
C185_5 C187_5 1_555 1_555
C190_5 C192_5 1_555 1_555
O38_5 C193_5 1_555 1_555
O40_5 C215_5 1_555 1_555
O42_5 C216_5 1_555 1_555
C198_5 C199_5 1_555 1_555
C204_5 C205_5 1_555 1_555
C212_5 C215_5 1_555 1_555
C213_5 C214_5 1_555 1_555
C221_5 C222_5 1_555 1_555
O51_3 C243_5 1_555 1_555
O54_3 C243_5 1_555 1_555
O57_3 C238_5 1_555 1_555
O60_3 C238_5 1_555 1_555
O47_4 C242_5 1_555 1_555
O48_4 C242_5 1_555 1_555
H123_5 C208_5 1_555 1_555
C223_5 C224_5 1_555 1_555
C224_5 H132_5 1_555 1_555
C225_5 C224_5 1_555 1_555
C226_5 C225_5 1_555 1_555
C228_5 C223_5 1_555 1_555
H134_5 C228_5 1_555 1_555
C229_5 C225_5 1_555 1_555
C232_5 C231_5 1_555 1_555
C233_5 C232_5 1_555 1_555
H137_5 C233_5 1_555 1_555
C234_5 C229_5 1_555 1_555
H138_5 C234_5 1_555 1_555
C235_5 C223_5 1_555 1_555
C236_5 C235_5 1_555 1_555
H139_5 C236_5 1_555 1_555
C237_5 C235_5 1_555 1_555
H140_5 C237_5 1_555 1_555
C238_5 C239_5 1_555 1_555
C239_5 C240_5 1_555 1_555
C240_5 C236_5 1_555 1_555
H141_5 C240_5 1_555 1_555
C241_5 C237_5 1_555 1_555
H142_5 C241_5 1_555 1_555
C242_5 C232_5 1_555 1_555
C243_5 C244_5 1_555 1_555
C244_5 C245_5 1_555 1_555
H143_5 C245_5 1_555 1_555
C246_5 C208_5 1_555 1_555
H144_5 C246_5 1_555 1_555
In15_2 O47_4 1_555 1_555
O48_4 In15_2 1_555 1_555
C226_5 C227_5 1_555 1_555
C227_5 C228_5 1_555 1_555
C233_5 C234_5 1_555 1_555
C239_5 C241_5 1_555 1_555
C244_5 C246_5 1_555 1_555
In13_2 O3_6 1_555 1_555
O1_6 C31_6 1_555 1_555
O3_6 C53_6 1_555 1_555
O4_6 In13_2 1_555 1_555
O49_4 C99_6 1_555 1_555
O52_4 C99_6 1_555 1_555
O13_6 In13_2 1_555 1_555
O14_6 In13_2 1_555 1_555
C31_6 O2_6 1_555 1_555
C32_6 C31_6 1_555 1_555
C33_6 C32_6 1_555 1_555
H25_6 C33_6 1_555 1_555
C34_6 C33_6 1_555 1_555
H26_6 C34_6 1_555 1_555
C35_6 C34_6 1_555 1_555
C36_6 C35_6 1_555 1_555
H27_6 C36_6 1_555 1_555
C37_6 C32_6 1_555 1_555
H28_6 C37_6 1_555 1_555
C38_6 C35_6 1_555 1_555
C39_6 C38_6 1_555 1_555
H29_6 C39_6 1_555 1_555
C40_6 C39_6 1_555 1_555
C41_6 C40_6 1_555 1_555
H30_6 C41_6 1_555 1_555
C42_6 C41_6 1_555 1_555
C43_6 C38_6 1_555 1_555
H31_6 C43_6 1_555 1_555
C44_6 C42_6 1_555 1_555
C45_6 C44_6 1_555 1_555
H32_6 C45_6 1_555 1_555
C46_6 C44_6 1_555 1_555
H33_6 C46_6 1_555 1_555
C47_6 C40_6 1_555 1_555
C48_6 C47_6 1_555 1_555
H34_6 C48_6 1_555 1_555
C49_6 C48_6 1_555 1_555
H35_6 C49_6 1_555 1_555
C50_6 C49_6 1_555 1_555
C51_6 C50_6 1_555 1_555
H36_6 C51_6 1_555 1_555
C52_6 C47_6 1_555 1_555
H37_6 C52_6 1_555 1_555
C53_6 O4_6 1_555 1_555
C87_6 O13_6 1_555 1_555
C88_6 H57_6 1_555 1_555
C89_6 C88_6 1_555 1_555
H58_6 C89_6 1_555 1_555
C90_6 C89_6 1_555 1_555
C93_6 C87_6 1_555 1_555
C94_6 C90_6 1_555 1_555
C99_6 C100_6 1_555 1_555
C100_6 C101_6 1_555 1_555
C101_6 C45_6 1_555 1_555
H63_6 C101_6 1_555 1_555
C102_6 C46_6 1_555 1_555
H64_6 C102_6 1_555 1_555
H82_6 C134_6 1_555 1_555
C135_6 C134_6 1_555 1_555
H83_6 C135_6 1_555 1_555
C138_6 C94_6 1_555 1_555
H84_6 C138_6 1_555 1_555
O14_6 C87_6 1_555 1_555
C36_6 C37_6 1_555 1_555
C42_6 C43_6 1_555 1_555
C50_6 C53_6 1_555 1_555
C51_6 C52_6 1_555 1_555
C88_6 C93_6 1_555 1_555
C100_6 C102_6 1_555 1_555
O5_6 In7_2 1_555 1_555
O6_6 In7_2 1_555 1_555
O9_6 In7_2 1_555 1_555
O10_6 In7_2 1_555 1_555
O55_4 C83_6 1_555 1_555
O58_4 C83_6 1_555 1_555
C54_6 O5_6 1_555 1_555
C55_6 C54_6 1_555 1_555
C56_6 C55_6 1_555 1_555
H38_6 C56_6 1_555 1_555
C57_6 C56_6 1_555 1_555
H39_6 C57_6 1_555 1_555
C58_6 C57_6 1_555 1_555
C59_6 C58_6 1_555 1_555
H40_6 C59_6 1_555 1_555
C60_6 C55_6 1_555 1_555
H41_6 C60_6 1_555 1_555
C61_6 C62_6 1_555 1_555
C62_6 H42_6 1_555 1_555
C63_6 C62_6 1_555 1_555
C64_6 C63_6 1_555 1_555
H43_6 C64_6 1_555 1_555
C65_6 C58_6 1_555 1_555
C66_6 C61_6 1_555 1_555
H44_6 C66_6 1_555 1_555
C67_6 C63_6 1_555 1_555
C72_6 C67_6 1_555 1_555
H48_6 C72_6 1_555 1_555
C73_6 C61_6 1_555 1_555
C74_6 C73_6 1_555 1_555
H49_6 C74_6 1_555 1_555
C75_6 C73_6 1_555 1_555
H50_6 C75_6 1_555 1_555
C76_6 O9_6 1_555 1_555
C77_6 H51_6 1_555 1_555
C78_6 C76_6 1_555 1_555
C79_6 C78_6 1_555 1_555
H52_6 C79_6 1_555 1_555
C80_6 C79_6 1_555 1_555
H53_6 C80_6 1_555 1_555
C81_6 C80_6 1_555 1_555
C82_6 C77_6 1_555 1_555
H54_6 C82_6 1_555 1_555
C83_6 C84_6 1_555 1_555
C84_6 C85_6 1_555 1_555
C85_6 C74_6 1_555 1_555
H55_6 C85_6 1_555 1_555
C86_6 C75_6 1_555 1_555
H56_6 C86_6 1_555 1_555
C96_6 H62_6 1_555 1_555
C98_6 C81_6 1_555 1_555
O62_2 C188_6 1_555 1_555
O65_2 C188_6 1_555 1_555
H105_6 C176_6 1_555 1_555
C177_6 C176_6 1_555 1_555
H106_6 C177_6 1_555 1_555
C178_6 C177_6 1_555 1_555
C179_6 C178_6 1_555 1_555
H107_6 C179_6 1_555 1_555
C188_6 C178_6 1_555 1_555
O6_6 C54_6 1_555 1_555
O10_6 C76_6 1_555 1_555
C59_6 C60_6 1_555 1_555
C64_6 C65_6 1_555 1_555
C65_6 C66_6 1_555 1_555
C77_6 C78_6 1_555 1_555
C81_6 C82_6 1_555 1_555
C84_6 C86_6 1_555 1_555
C96_6 C98_6 1_555 1_555
O23_6 C130_6 1_555 1_555
O24_6 C130_6 1_555 1_555
C130_6 C136_6 1_555 1_555
C131_6 H80_6 1_555 1_555
C132_6 C131_6 1_555 1_555
H81_6 C132_6 1_555 1_555
C133_6 C132_6 1_555 1_555
C136_6 C131_6 1_555 1_555
In15_2 O23_6 1_555 1_555
O39_6 In15_2 1_555 1_555
O40_6 In15_2 1_555 1_555
H115_6 C195_6 1_555 1_555
C196_6 C195_6 1_555 1_555
H116_6 C196_6 1_555 1_555
C197_6 C196_6 1_555 1_555
C200_6 C197_6 1_555 1_555
C201_6 C200_6 1_555 1_555
H119_6 C201_6 1_555 1_555
C202_6 C201_6 1_555 1_555
C203_6 C202_6 1_555 1_555
H120_6 C203_6 1_555 1_555
C204_6 C203_6 1_555 1_555
H122_6 C207_6 1_555 1_555
C209_6 C202_6 1_555 1_555
C210_6 C209_6 1_555 1_555
H124_6 C210_6 1_555 1_555
C211_6 C210_6 1_555 1_555
H125_6 C211_6 1_555 1_555
C212_6 C211_6 1_555 1_555
C213_6 C212_6 1_555 1_555
H126_6 C213_6 1_555 1_555
C214_6 C209_6 1_555 1_555
H127_6 C214_6 1_555 1_555
C215_6 O39_6 1_555 1_555
O24_6 In15_2 1_555 1_555
C133_6 C137_6 1_555 1_555
O40_6 C215_6 1_555 1_555
C212_6 C215_6 1_555 1_555
C213_6 C214_6 1_555 1_555
O61_2 C97_6 1_555 1_555
O64_2 C97_6 1_555 1_555
H45_6 C68_6 1_555 1_555
C69_6 C68_6 1_555 1_555
H46_6 C69_6 1_555 1_555
C70_6 C69_6 1_555 1_555
C71_6 C70_6 1_555 1_555
H47_6 C71_6 1_555 1_555
C97_6 C70_6 1_555 1_555
C113_6 H70_6 1_555 1_555
C118_6 C113_6 1_555 1_555
H73_6 C118_6 1_555 1_555
H74_6 C119_6 1_555 1_555
H59_6 C91_6 1_555 1_555
C92_6 C91_6 1_555 1_555
H60_6 C92_6 1_555 1_555
H61_6 C95_6 1_555 1_555
O50_4 C189_6 1_555 1_555
O53_4 C189_6 1_555 1_555
C139_6 O25_6 1_555 1_555
C140_6 C139_6 1_555 1_555
H87_6 C144_6 1_555 1_555
C145_6 C140_6 1_555 1_555
H88_6 C145_6 1_555 1_555
H91_6 C151_6 1_555 1_555
C154_6 C152_6 1_555 1_555
H93_6 C154_6 1_555 1_555
C189_6 C190_6 1_555 1_555
C190_6 C191_6 1_555 1_555
C192_6 C154_6 1_555 1_555
H114_6 C192_6 1_555 1_555
O26_6 C139_6 1_555 1_555
C144_6 C145_6 1_555 1_555
C190_6 C192_6 1_555 1_555
O17_6 C103_6 1_555 1_555
O18_6 C103_6 1_555 1_555
C103_6 C105_6 1_555 1_555
C106_6 C105_6 1_555 1_555
H66_6 C106_6 1_555 1_555
C107_6 C106_6 1_555 1_555
H67_6 C107_6 1_555 1_555
C108_6 C107_6 1_555 1_555
In8_2 O17_6 1_555 1_555
O29_6 In8_2 1_555 1_555
O30_6 In8_2 1_555 1_555
O56_4 C184_6 1_555 1_555
O59_4 C184_6 1_555 1_555
C162_6 O29_6 1_555 1_555
C163_6 C162_6 1_555 1_555
C164_6 C163_6 1_555 1_555
H98_6 C164_6 1_555 1_555
C165_6 C164_6 1_555 1_555
H99_6 C165_6 1_555 1_555
C166_6 C165_6 1_555 1_555
C167_6 C166_6 1_555 1_555
H100_6 C167_6 1_555 1_555
C168_6 C163_6 1_555 1_555
H101_6 C168_6 1_555 1_555
C169_6 C170_6 1_555 1_555
C170_6 H102_6 1_555 1_555
C171_6 C170_6 1_555 1_555
C172_6 C171_6 1_555 1_555
H103_6 C172_6 1_555 1_555
C173_6 C166_6 1_555 1_555
C174_6 C169_6 1_555 1_555
H104_6 C174_6 1_555 1_555
C175_6 C171_6 1_555 1_555
C180_6 C175_6 1_555 1_555
H108_6 C180_6 1_555 1_555
C181_6 C169_6 1_555 1_555
C182_6 C181_6 1_555 1_555
H109_6 C182_6 1_555 1_555
C183_6 C181_6 1_555 1_555
H110_6 C183_6 1_555 1_555
C184_6 C185_6 1_555 1_555
C185_6 C186_6 1_555 1_555
C186_6 C182_6 1_555 1_555
H111_6 C186_6 1_555 1_555
C187_6 C183_6 1_555 1_555
H112_6 C187_6 1_555 1_555
O18_6 In8_2 1_555 1_555
C108_6 C111_6 1_555 1_555
O30_6 C162_6 1_555 1_555
C167_6 C168_6 1_555 1_555
C172_6 C173_6 1_555 1_555
C173_6 C174_6 1_555 1_555
C185_6 C187_6 1_555 1_555
O21_6 C121_6 1_555 1_555
O22_6 C121_6 1_555 1_555
C121_6 C127_6 1_555 1_555
C122_6 H75_6 1_555 1_555
C123_6 C122_6 1_555 1_555
H76_6 C123_6 1_555 1_555
C124_6 C123_6 1_555 1_555
C125_6 C124_6 1_555 1_555
H77_6 C125_6 1_555 1_555
C126_6 C125_6 1_555 1_555
H78_6 C126_6 1_555 1_555
C127_6 C122_6 1_555 1_555
C129_6 C128_6 1_555 1_555
H79_6 C129_6 1_555 1_555
In14_2 O21_6 1_555 1_555
O27_6 In14_2 1_555 1_555
O28_6 In14_2 1_555 1_555
H85_6 C141_6 1_555 1_555
C142_6 C141_6 1_555 1_555
H86_6 C142_6 1_555 1_555
C143_6 C142_6 1_555 1_555
C146_6 C143_6 1_555 1_555
C147_6 C146_6 1_555 1_555
H89_6 C147_6 1_555 1_555
C148_6 C147_6 1_555 1_555
C149_6 C148_6 1_555 1_555
H90_6 C149_6 1_555 1_555
C150_6 C149_6 1_555 1_555
H92_6 C153_6 1_555 1_555
C155_6 C148_6 1_555 1_555
C156_6 C155_6 1_555 1_555
H94_6 C156_6 1_555 1_555
C157_6 C156_6 1_555 1_555
H95_6 C157_6 1_555 1_555
C158_6 C157_6 1_555 1_555
C159_6 C158_6 1_555 1_555
H96_6 C159_6 1_555 1_555
C160_6 C155_6 1_555 1_555
H97_6 C160_6 1_555 1_555
C161_6 O27_6 1_555 1_555
O51_4 C243_6 1_555 1_555
O54_4 C243_6 1_555 1_555
C193_6 O37_6 1_555 1_555
C194_6 C193_6 1_555 1_555
H117_6 C198_6 1_555 1_555
C199_6 C194_6 1_555 1_555
H118_6 C199_6 1_555 1_555
H121_6 C205_6 1_555 1_555
C208_6 C206_6 1_555 1_555
H123_6 C208_6 1_555 1_555
C243_6 C244_6 1_555 1_555
C244_6 C245_6 1_555 1_555
C246_6 C208_6 1_555 1_555
H144_6 C246_6 1_555 1_555
O22_6 In14_2 1_555 1_555
C124_6 C128_6 1_555 1_555
C126_6 C127_6 1_555 1_555
O28_6 C161_6 1_555 1_555
C158_6 C161_6 1_555 1_555
C159_6 C160_6 1_555 1_555
O38_6 C193_6 1_555 1_555
C198_6 C199_6 1_555 1_555
C244_6 C246_6 1_555 1_555
C104_6 H65_6 1_555 1_555
C109_6 C104_6 1_555 1_555
H68_6 C109_6 1_555 1_555
C110_6 H69_6 1_555 1_555
O19_6 C112_6 1_555 1_555
O20_6 C112_6 1_555 1_555
C112_6 C114_6 1_555 1_555
C115_6 C114_6 1_555 1_555
H71_6 C115_6 1_555 1_555
C116_6 C115_6 1_555 1_555
H72_6 C116_6 1_555 1_555
C117_6 C116_6 1_555 1_555
C120_6 C110_6 1_555 1_555
In9_2 O19_6 1_555 1_555
O41_6 In9_2 1_555 1_555
O42_6 In9_2 1_555 1_555
O57_4 C238_6 1_555 1_555
O60_4 C238_6 1_555 1_555
O63_2 C242_6 1_555 1_555
O66_2 C242_6 1_555 1_555
C216_6 O41_6 1_555 1_555
C217_6 C216_6 1_555 1_555
C218_6 C217_6 1_555 1_555
H128_6 C218_6 1_555 1_555
C219_6 C218_6 1_555 1_555
H129_6 C219_6 1_555 1_555
C220_6 C219_6 1_555 1_555
C221_6 C220_6 1_555 1_555
H130_6 C221_6 1_555 1_555
C222_6 C217_6 1_555 1_555
H131_6 C222_6 1_555 1_555
C223_6 C224_6 1_555 1_555
C224_6 H132_6 1_555 1_555
C225_6 C224_6 1_555 1_555
C226_6 C225_6 1_555 1_555
H133_6 C226_6 1_555 1_555
C227_6 C220_6 1_555 1_555
C228_6 C223_6 1_555 1_555
H134_6 C228_6 1_555 1_555
C229_6 C225_6 1_555 1_555
C230_6 C229_6 1_555 1_555
H135_6 C230_6 1_555 1_555
C231_6 C230_6 1_555 1_555
H136_6 C231_6 1_555 1_555
C232_6 C231_6 1_555 1_555
C233_6 C232_6 1_555 1_555
H137_6 C233_6 1_555 1_555
C234_6 C229_6 1_555 1_555
H138_6 C234_6 1_555 1_555
C235_6 C223_6 1_555 1_555
C236_6 C235_6 1_555 1_555
H139_6 C236_6 1_555 1_555
C237_6 C235_6 1_555 1_555
H140_6 C237_6 1_555 1_555
C238_6 C239_6 1_555 1_555
C239_6 C240_6 1_555 1_555
C240_6 C236_6 1_555 1_555
H141_6 C240_6 1_555 1_555
C241_6 C237_6 1_555 1_555
H142_6 C241_6 1_555 1_555
C242_6 C232_6 1_555 1_555
O20_6 In9_2 1_555 1_555
C117_6 C120_6 1_555 1_555
O42_6 C216_6 1_555 1_555
C221_6 C222_6 1_555 1_555
C226_6 C227_6 1_555 1_555
C227_6 C228_6 1_555 1_555
C233_6 C234_6 1_555 1_555
C239_6 C241_6 1_555 1_555

#END
