
###############################################################################
#
# This file contains modified crystal structure data generated from the
# MOF subset of the Cambridge Structural Database (CSD) v543 
# hosted by the Cambridge Crystallographic Data Centre (CCDC).
#
# This work is licensed under the Creative Commons
# Attribution-NonCommercial-ShareAlike 4.0 International License.
# To view a copy of this license, visit
# http://creativecommons.org/licenses/by-nc-sa/4.0/
# or send a letter to
# Creative Commons, PO Box 1866, Mountain View, CA 94042, USA.
#
# CIF created using the CSD Python API on 29 September 2022
# The structure has been converted into the P1 space group
# The structure has a 3D framework
# The original CSD entry KABTUE is in the orthorhombic crystal system
# The framework has been calculated to contain at least 10.0% void space
# The void calculation uses a probe of radius 1.32A, grid spacing 0.4
#
###############################################################################

data_KABTUE
_chemical_formula_moiety         '(C736 H448 Cd32 N96 O128)n'
_symmetry_cell_setting           triclinic
_symmetry_space_group_name_H-M   'P 1'
_symmetry_Int_Tables_number      1
_space_group_name_Hall           'P 1'
loop_
_symmetry_equiv_pos_site_id
_symmetry_equiv_pos_as_xyz
1 x,y,z
_cell_length_a                   14.387(6)
_cell_length_b                   27.907(15)
_cell_length_c                   42.32(2)
_cell_angle_alpha                90
_cell_angle_beta                 90
_cell_angle_gamma                90
_cell_volume                     16991.4
loop_
_atom_site_label
_atom_site_type_symbol
_atom_site_fract_x
_atom_site_fract_y
_atom_site_fract_z
O3 O 0.0493(4) 0.6265(2) 0.80977(13)
O4 O 0.0506(5) 0.6151(2) 0.74620(14)
C23 C 0.1250 0.6250 0.7962(3)
C24 C 0.1250 0.6250 0.7591(3)
Cd4 Cd 0.33288(5) 0.63136(2) 0.778356(14)
O9 O 0.2007(4) 0.6235(2) 0.80977(13)
O11 O 0.1994(5) 0.6349(2) 0.74620(14)
O3_2 O 0.0493(4) 0.1265(2) 0.30977(13)
O4_2 O 0.0506(5) 0.1151(2) 0.24620(14)
C23_2 C 0.1250 0.1250 0.2962(3)
C24_2 C 0.1250 0.1250 0.2591(3)
Cd4_2 Cd 0.33288(5) 0.13136(2) 0.278356(14)
O9_2 O 0.2007(4) 0.1235(2) 0.30977(13)
O11_2 O 0.1994(5) 0.1349(2) 0.24620(14)
O12 O 0.9494(5) 0.8651(2) 0.99620(14)
N1 N 0.3956(5) 0.0779(3) 0.31794(15)
N2 N 0.4284(5) 0.1715(2) 0.31589(14)
N3 N 0.3485(5) 0.2150(3) 0.26622(16)
O1 O 0.5767(5) 0.3724(3) 0.48089(17)
O2 O 0.6513(6) 0.3106(3) 0.49845(16)
C1 C 0.3866(7) 0.0296(4) 0.3160(2)
H1 H 0.3496 0.0168 0.3001
C3 C 0.4849(8) 0.0177(4) 0.3597(2)
C4 C 0.4953(7) 0.0666(3) 0.3619(2)
H4 H 0.5321 0.0799 0.3777
C5 C 0.4506(6) 0.0954(3) 0.3406(2)
C6 C 0.4582(6) 0.1493(3) 0.34158(18)
C7 C 0.4912(6) 0.1740(3) 0.36776(18)
H5 H 0.5084 0.1573 0.3859
C8 C 0.4982(7) 0.2232(3) 0.36680(19)
C9 C 0.4710(7) 0.2451(3) 0.33961(18)
H6 H 0.4760 0.2783 0.3379
C10 C 0.4358(6) 0.2190(3) 0.31422(18)
C11 C 0.4022(7) 0.2420(3) 0.28449(19)
C12 C 0.4316(7) 0.2874(3) 0.2754(2)
H7 H 0.4717 0.3052 0.2881
C13 C 0.3997(8) 0.3057(4) 0.2469(2)
H8 H 0.4178 0.3360 0.2401
C14 C 0.3406(7) 0.2780(4) 0.2288(2)
H9 H 0.3167 0.2896 0.2098
C15 C 0.3184(8) 0.2340(3) 0.2392(2)
H10 H 0.2793 0.2154 0.2267
C16 C 0.5256(6) 0.2505(3) 0.3954(2)
C17 C 0.5808(8) 0.2305(3) 0.4180(2)
H11 H 0.6023 0.1993 0.4154
C18 C 0.6055(7) 0.2560(4) 0.4450(2)
H12 H 0.6431 0.2416 0.4602
C19 C 0.5747(7) 0.3026(3) 0.4497(2)
C20 C 0.5203(7) 0.3236(3) 0.4265(2)
H13 H 0.5004 0.3552 0.4287
C21 C 0.4953(7) 0.2970(3) 0.3995(2)
H14 H 0.4576 0.3110 0.3842
C22 C 0.6015(8) 0.3303(5) 0.4789(2)
Cd3 Cd 0.66712(5) 0.38136(2) 0.528356(14)
O5 O 0.4233(5) 0.1224(3) 0.23089(17)
O7 O 0.3487(6) 0.0606(3) 0.24845(16)
H20 H 0.5240 0.0283 0.0879
C36 C 0.5684(7) 0.0374(3) 0.0254(2)
H21 H 0.5283 0.0552 0.0381
C40 C 0.4744(6) 0.0005(3) 0.1454(2)
C42 C 0.3945(7) 0.0060(4) 0.1950(2)
C43 C 0.4253(7) 0.0526(3) 0.1997(2)
C44 C 0.4797(7) 0.0736(3) 0.1765(2)
H27 H 0.4996 0.1052 0.1787
C45 C 0.5047(7) 0.0470(3) 0.1495(2)
H28 H 0.5424 0.0610 0.1342
C46 C 0.3985(8) 0.0803(5) 0.2289(2)
O6 O 0.5767(5) 0.8724(3) 0.98089(17)
O8 O 0.6513(6) 0.8106(3) 0.99845(16)
O12_2 O 0.8006(5) 0.8849(2) 0.99620(14)
C39 C 0.6816(8) 0.9840(3) 0.9892(2)
H24 H 0.7207 0.9654 0.9767
O10 O 0.9507(4) 0.3765(2) 0.55977(13)
O12_3 O 0.9494(5) 0.3651(2) 0.49620(14)
N1_2 N 0.3956(5) 0.5779(3) 0.81794(15)
N2_2 N 0.4284(5) 0.6715(2) 0.81589(14)
N3_2 N 0.3485(5) 0.7150(3) 0.76622(16)
C1_2 C 0.3866(7) 0.5296(4) 0.8160(2)
H1_2 H 0.3496 0.5168 0.8001
C2 C 0.4295(8) 0.4993(3) 0.8364(2)
H2 H 0.4214 0.4663 0.8345
C3_2 C 0.4849(8) 0.5177(4) 0.8597(2)
H3 H 0.5151 0.4975 0.8738
C4_2 C 0.4953(7) 0.5666(3) 0.8619(2)
H4_2 H 0.5321 0.5799 0.8777
C5_2 C 0.4506(6) 0.5954(3) 0.8406(2)
C6_2 C 0.4582(6) 0.6493(3) 0.84158(18)
C7_2 C 0.4912(6) 0.6740(3) 0.86776(18)
H5_2 H 0.5084 0.6573 0.8859
C8_2 C 0.4982(7) 0.7232(3) 0.86680(19)
C9_2 C 0.4710(7) 0.7451(3) 0.83961(18)
H6_2 H 0.4760 0.7783 0.8379
C10_2 C 0.4358(6) 0.7190(3) 0.81422(18)
C11_2 C 0.4022(7) 0.7420(3) 0.78449(19)
C12_2 C 0.4316(7) 0.7874(3) 0.7754(2)
H7_2 H 0.4717 0.8052 0.7881
C13_2 C 0.3997(8) 0.8057(4) 0.7469(2)
H8_2 H 0.4178 0.8360 0.7401
C14_2 C 0.3406(7) 0.7780(4) 0.7288(2)
H9_2 H 0.3167 0.7896 0.7098
C15_2 C 0.3184(8) 0.7340(3) 0.7392(2)
H10_2 H 0.2793 0.7154 0.7267
C16_2 C 0.5256(6) 0.7505(3) 0.8954(2)
C17_2 C 0.5808(8) 0.7305(3) 0.9180(2)
H11_2 H 0.6023 0.6993 0.9154
C18_2 C 0.6055(7) 0.7560(4) 0.9450(2)
H12_2 H 0.6431 0.7416 0.9602
C19_2 C 0.5747(7) 0.8026(3) 0.9497(2)
C20_2 C 0.5203(7) 0.8236(3) 0.9265(2)
H13_2 H 0.5004 0.8552 0.9287
C21_2 C 0.4953(7) 0.7970(3) 0.8995(2)
H14_2 H 0.4576 0.8110 0.8842
C22_2 C 0.6015(8) 0.8303(5) 0.9789(2)
N4 N 0.6044(5) 0.3279(3) 0.56794(15)
N5 N 0.5716(5) 0.4215(2) 0.56589(14)
N6 N 0.6515(5) 0.4650(3) 0.51622(16)
O5_2 O 0.4233(5) 0.6224(3) 0.73089(17)
O7_2 O 0.3487(6) 0.5606(3) 0.74845(16)
O10_2 O 0.7993(4) 0.3735(2) 0.55977(13)
O12_4 O 0.8006(5) 0.3849(2) 0.49620(14)
C25 C 0.6134(7) 0.2796(4) 0.5660(2)
H15 H 0.6504 0.2668 0.5501
C26 C 0.5705(8) 0.2493(3) 0.5864(2)
H16 H 0.5786 0.2163 0.5845
C27 C 0.5151(8) 0.2677(4) 0.6097(2)
H17 H 0.4849 0.2475 0.6238
C28 C 0.5047(7) 0.3166(3) 0.6119(2)
H18 H 0.4679 0.3299 0.6277
C29 C 0.5494(6) 0.3454(3) 0.5906(2)
C30 C 0.5418(6) 0.3993(3) 0.59158(18)
C31 C 0.5088(6) 0.4240(3) 0.61776(18)
H19 H 0.4916 0.4073 0.6359
C32 C 0.5018(7) 0.4732(3) 0.61680(19)
C33 C 0.5290(7) 0.4951(3) 0.58961(18)
H20_2 H 0.5240 0.5283 0.5879
C34 C 0.5642(6) 0.4690(3) 0.56422(18)
C35 C 0.5978(7) 0.4920(3) 0.53449(19)
C36_2 C 0.5684(7) 0.5374(3) 0.5254(2)
H21_2 H 0.5283 0.5552 0.5381
C37 C 0.6003(8) 0.5557(4) 0.4969(2)
H22 H 0.5822 0.5860 0.4901
C38 C 0.6594(7) 0.5280(4) 0.4788(2)
H23 H 0.6833 0.5396 0.4598
C39_2 C 0.6816(8) 0.4840(3) 0.4892(2)
H24_2 H 0.7207 0.4654 0.4767
C40_2 C 0.4744(6) 0.5005(3) 0.6454(2)
C41 C 0.4192(8) 0.4805(3) 0.6680(2)
H25 H 0.3977 0.4493 0.6654
C42_2 C 0.3945(7) 0.5060(4) 0.6950(2)
H26 H 0.3569 0.4916 0.7102
C43_2 C 0.4253(7) 0.5526(3) 0.6997(2)
C44_2 C 0.4797(7) 0.5736(3) 0.6765(2)
H27_2 H 0.4996 0.6052 0.6787
C45_2 C 0.5047(7) 0.5470(3) 0.6495(2)
H28_2 H 0.5424 0.5610 0.6342
C46_2 C 0.3985(8) 0.5803(5) 0.7289(2)
C23_3 C 0.8750 0.3750 0.5462(3)
C24_3 C 0.8750 0.3750 0.5091(3)
C26_2 C 0.6795(8) 0.0007(3) 0.5864(2)
H16_2 H 0.6714 0.0337 0.5845
H17_2 H 0.7651 0.0025 0.6238
Cd3_2 Cd 0.58288(5) 0.36864(2) 0.028356(14)
Cd1 Cd 0.91712(5) 0.61864(2) 0.778356(14)
N1_3 N 0.8544(5) 0.6721(3) 0.81794(15)
N2_3 N 0.8216(5) 0.5785(2) 0.81589(14)
N3_3 N 0.9015(5) 0.5350(3) 0.76622(16)
O1_2 O 0.6733(5) 0.3776(3) 0.98089(17)
O2_2 O 0.5987(6) 0.4394(3) 0.99845(16)
C1_3 C 0.8634(7) 0.7204(4) 0.8160(2)
H1_3 H 0.9004 0.7332 0.8001
C2_2 C 0.8205(8) 0.7507(3) 0.8364(2)
H2_2 H 0.8286 0.7837 0.8345
C3_3 C 0.7651(8) 0.7323(4) 0.8597(2)
H3_2 H 0.7349 0.7525 0.8738
C4_3 C 0.7547(7) 0.6834(3) 0.8619(2)
H4_3 H 0.7179 0.6701 0.8777
C5_3 C 0.7994(6) 0.6546(3) 0.8406(2)
C6_3 C 0.7918(6) 0.6007(3) 0.84158(18)
C7_3 C 0.7588(6) 0.5760(3) 0.86776(18)
H5_3 H 0.7416 0.5927 0.8859
C8_3 C 0.7518(7) 0.5268(3) 0.86680(19)
C9_3 C 0.7790(7) 0.5049(3) 0.83961(18)
H6_3 H 0.7740 0.4717 0.8379
C10_3 C 0.8142(6) 0.5310(3) 0.81422(18)
C11_3 C 0.8478(7) 0.5080(3) 0.78449(19)
C12_3 C 0.8184(7) 0.4626(3) 0.7754(2)
H7_3 H 0.7783 0.4448 0.7881
C13_3 C 0.8503(8) 0.4443(4) 0.7469(2)
H8_3 H 0.8322 0.4140 0.7401
C14_3 C 0.9094(7) 0.4720(4) 0.7288(2)
H9_3 H 0.9333 0.4604 0.7098
C15_3 C 0.9316(8) 0.5160(3) 0.7392(2)
H10_3 H 0.9707 0.5346 0.7267
C16_3 C 0.7244(6) 0.4995(3) 0.8954(2)
C17_3 C 0.6692(8) 0.5195(3) 0.9180(2)
H11_3 H 0.6477 0.5507 0.9154
C18_3 C 0.6445(7) 0.4940(4) 0.9450(2)
H12_3 H 0.6069 0.5084 0.9602
C19_3 C 0.6753(7) 0.4474(3) 0.9497(2)
C20_3 C 0.7297(7) 0.4264(3) 0.9265(2)
H13_3 H 0.7496 0.3948 0.9287
C21_3 C 0.7547(7) 0.4530(3) 0.8995(2)
H14_3 H 0.7924 0.4390 0.8842
C22_3 C 0.6485(8) 0.4197(5) 0.9789(2)
Cd2 Cd 0.58288(5) 0.86864(2) 0.528356(14)
N4_2 N 0.6456(5) 0.9221(3) 0.56794(15)
N5_2 N 0.6784(5) 0.8285(2) 0.56589(14)
N6_2 N 0.5985(5) 0.7850(3) 0.51622(16)
O5_3 O 0.8267(5) 0.6276(3) 0.73089(17)
O6_2 O 0.6733(5) 0.8776(3) 0.48089(17)
O7_3 O 0.9013(6) 0.6894(3) 0.74845(16)
O8_2 O 0.5987(6) 0.9394(3) 0.49845(16)
O10_3 O 0.4507(4) 0.8765(2) 0.55977(13)
O12_5 O 0.4494(5) 0.8651(2) 0.49620(14)
C25_2 C 0.6366(7) 0.9704(4) 0.5660(2)
H15_2 H 0.5996 0.9832 0.5501
C27_2 C 0.7349(8) 0.9823(4) 0.6097(2)
C28_2 C 0.7453(7) 0.9334(3) 0.6119(2)
H18_2 H 0.7821 0.9201 0.6277
C29_2 C 0.7006(6) 0.9046(3) 0.5906(2)
C30_2 C 0.7082(6) 0.8507(3) 0.59158(18)
C31_2 C 0.7412(6) 0.8260(3) 0.61776(18)
H19_2 H 0.7584 0.8427 0.6359
C32_2 C 0.7482(7) 0.7768(3) 0.61680(19)
C33_2 C 0.7210(7) 0.7549(3) 0.58961(18)
H20_3 H 0.7260 0.7217 0.5879
C34_2 C 0.6858(6) 0.7810(3) 0.56422(18)
C35_2 C 0.6522(7) 0.7580(3) 0.53449(19)
C36_3 C 0.6816(7) 0.7126(3) 0.5254(2)
H21_3 H 0.7217 0.6948 0.5381
C37_2 C 0.6497(8) 0.6943(4) 0.4969(2)
H22_2 H 0.6678 0.6640 0.4901
C38_2 C 0.5906(7) 0.7220(4) 0.4788(2)
H23_2 H 0.5667 0.7104 0.4598
C39_3 C 0.5684(8) 0.7660(3) 0.4892(2)
H24_3 H 0.5293 0.7846 0.4767
C40_3 C 0.7756(6) 0.7495(3) 0.6454(2)
C41_2 C 0.8308(8) 0.7695(3) 0.6680(2)
H25_2 H 0.8523 0.8007 0.6654
C42_3 C 0.8555(7) 0.7440(4) 0.6950(2)
H26_2 H 0.8931 0.7584 0.7102
C43_3 C 0.8247(7) 0.6974(3) 0.6997(2)
C44_3 C 0.7703(7) 0.6764(3) 0.6765(2)
H27_3 H 0.7504 0.6448 0.6787
C45_3 C 0.7453(7) 0.7030(3) 0.6495(2)
H28_3 H 0.7076 0.6890 0.6342
C46_3 C 0.8515(8) 0.6697(5) 0.7289(2)
Cd3_3 Cd 0.16712(5) 0.38136(2) 0.028356(14)
O1_3 O 0.0767(5) 0.3724(3) 0.98089(17)
O2_3 O 0.1513(6) 0.3106(3) 0.99845(16)
H4_4 H 0.0321 0.0799 0.8777
H5_4 H 0.0084 0.1573 0.8859
C16_4 C 0.0256(6) 0.2505(3) 0.8954(2)
C17_4 C 0.0808(8) 0.2305(3) 0.9180(2)
H11_4 H 0.1023 0.1993 0.9154
C18_4 C 0.1055(7) 0.2560(4) 0.9450(2)
H12_4 H 0.1431 0.2416 0.9602
C19_4 C 0.0747(7) 0.3026(3) 0.9497(2)
C20_4 C 0.0203(7) 0.3236(3) 0.9265(2)
H13_4 H 0.0004 0.3552 0.9287
C22_4 C 0.1015(8) 0.3303(5) 0.9789(2)
H20_4 H 0.0240 0.0283 0.5879
C36_4 C 0.0684(7) 0.0374(3) 0.5254(2)
H21_4 H 0.0283 0.0552 0.5381
C37_3 C 0.1003(8) 0.0557(4) 0.4969(2)
H22_3 H 0.0822 0.0860 0.4901
C38_3 C 0.1594(7) 0.0280(4) 0.4788(2)
H23_3 H 0.1833 0.0396 0.4598
C45_4 C 0.0047(7) 0.0470(3) 0.6495(2)
H28_4 H 0.0424 0.0610 0.6342
H3_3 H 0.0151 0.9975 0.8738
Cd2_2 Cd 0.16712(5) 0.88136(2) 0.528356(14)
N4_3 N 0.1044(5) 0.8279(3) 0.56794(15)
N5_3 N 0.0716(5) 0.9215(2) 0.56589(14)
N6_3 N 0.1515(5) 0.9650(3) 0.51622(16)
O6_3 O 0.0767(5) 0.8724(3) 0.48089(17)
O8_3 O 0.1513(6) 0.8106(3) 0.49845(16)
O10_4 O 0.2993(4) 0.8735(2) 0.55977(13)
O12_6 O 0.3006(5) 0.8849(2) 0.49620(14)
C25_3 C 0.1134(7) 0.7796(4) 0.5660(2)
H15_3 H 0.1504 0.7668 0.5501
C26_3 C 0.0705(8) 0.7493(3) 0.5864(2)
H16_3 H 0.0786 0.7163 0.5845
C27_3 C 0.0151(8) 0.7677(4) 0.6097(2)
C28_3 C 0.0047(7) 0.8166(3) 0.6119(2)
C29_3 C 0.0494(6) 0.8454(3) 0.5906(2)
C30_3 C 0.0418(6) 0.8993(3) 0.59158(18)
C31_3 C 0.0088(6) 0.9240(3) 0.61776(18)
C32_3 C 0.0018(7) 0.9732(3) 0.61680(19)
C33_3 C 0.0290(7) 0.9951(3) 0.58961(18)
C34_3 C 0.0642(6) 0.9690(3) 0.56422(18)
C35_3 C 0.0978(7) 0.9920(3) 0.53449(19)
C39_4 C 0.1816(8) 0.9840(3) 0.4892(2)
H24_4 H 0.2207 0.9654 0.4767
Cd1_2 Cd 0.91712(5) 0.11864(2) 0.278356(14)
N1_4 N 0.8544(5) 0.1721(3) 0.31794(15)
N2_4 N 0.8216(5) 0.0785(2) 0.31589(14)
N3_4 N 0.9015(5) 0.0350(3) 0.26622(16)
C1_4 C 0.8634(7) 0.2204(4) 0.3160(2)
H1_4 H 0.9004 0.2332 0.3001
C2_3 C 0.8205(8) 0.2507(3) 0.3364(2)
H2_3 H 0.8286 0.2837 0.3345
C3_4 C 0.7651(8) 0.2323(4) 0.3597(2)
H3_4 H 0.7349 0.2525 0.3738
C4_4 C 0.7547(7) 0.1834(3) 0.3619(2)
H4_5 H 0.7179 0.1701 0.3777
C5_4 C 0.7994(6) 0.1546(3) 0.3406(2)
C6_4 C 0.7918(6) 0.1007(3) 0.34158(18)
C7_4 C 0.7588(6) 0.0760(3) 0.36776(18)
H5_5 H 0.7416 0.0927 0.3859
C8_4 C 0.7518(7) 0.0268(3) 0.36680(19)
C9_4 C 0.7790(7) 0.0049(3) 0.33961(18)
C10_4 C 0.8142(6) 0.0310(3) 0.31422(18)
C11_4 C 0.8478(7) 0.0080(3) 0.28449(19)
C15_4 C 0.9316(8) 0.0160(3) 0.2392(2)
H10_4 H 0.9707 0.0346 0.2267
C17_5 C 0.6692(8) 0.0195(3) 0.4180(2)
H11_5 H 0.6477 0.0507 0.4154
H12_5 H 0.6069 0.0084 0.4602
N4_4 N 0.6456(5) 0.4221(3) 0.06794(15)
N5_4 N 0.6784(5) 0.3285(2) 0.06589(14)
N6_4 N 0.5985(5) 0.2850(3) 0.01622(16)
O5_4 O 0.8267(5) 0.1276(3) 0.23089(17)
O7_4 O 0.9013(6) 0.1894(3) 0.24845(16)
O10_5 O 0.4507(4) 0.3765(2) 0.05977(13)
C25_4 C 0.6366(7) 0.4704(4) 0.0660(2)
H15_4 H 0.5996 0.4832 0.0501
C26_4 C 0.6795(8) 0.5007(3) 0.0864(2)
H16_4 H 0.6714 0.5337 0.0845
C27_4 C 0.7349(8) 0.4823(4) 0.1097(2)
H17_3 H 0.7651 0.5025 0.1238
C28_4 C 0.7453(7) 0.4334(3) 0.1119(2)
H18_3 H 0.7821 0.4201 0.1277
C29_4 C 0.7006(6) 0.4046(3) 0.0906(2)
C30_4 C 0.7082(6) 0.3507(3) 0.09158(18)
C31_4 C 0.7412(6) 0.3260(3) 0.11776(18)
H19_3 H 0.7584 0.3427 0.1359
C32_4 C 0.7482(7) 0.2768(3) 0.11680(19)
C33_4 C 0.7210(7) 0.2549(3) 0.08961(18)
H20_5 H 0.7260 0.2217 0.0879
C34_4 C 0.6858(6) 0.2810(3) 0.06422(18)
C35_4 C 0.6522(7) 0.2580(3) 0.03449(19)
C36_5 C 0.6816(7) 0.2126(3) 0.0254(2)
H21_5 H 0.7217 0.1948 0.0381
C40_4 C 0.7756(6) 0.2495(3) 0.1454(2)
C41_3 C 0.8308(8) 0.2695(3) 0.1680(2)
H25_3 H 0.8523 0.3007 0.1654
C42_4 C 0.8555(7) 0.2440(4) 0.1950(2)
H26_3 H 0.8931 0.2584 0.2102
C43_4 C 0.8247(7) 0.1974(3) 0.1997(2)
C44_4 C 0.7703(7) 0.1764(3) 0.1765(2)
H27_4 H 0.7504 0.1448 0.1787
C45_5 C 0.7453(7) 0.2030(3) 0.1495(2)
H28_5 H 0.7076 0.1890 0.1342
C46_4 C 0.8515(8) 0.1697(5) 0.2289(2)
O12_7 O 0.4494(5) 0.3651(2) 0.99620(14)
C37_4 C 0.6497(8) 0.1943(4) 0.9969(2)
H22_4 H 0.6678 0.1640 0.9901
C38_4 C 0.5906(7) 0.2220(4) 0.9788(2)
H23_4 H 0.5667 0.2104 0.9598
C39_5 C 0.5684(8) 0.2660(3) 0.9892(2)
H24_5 H 0.5293 0.2846 0.9767
H6_4 H 0.7740 0.9717 0.3379
C12_4 C 0.8184(7) 0.9626(3) 0.2754(2)
H7_4 H 0.7783 0.9448 0.2881
C13_4 C 0.8503(8) 0.9443(4) 0.2469(2)
H8_4 H 0.8322 0.9140 0.2401
C14_4 C 0.9094(7) 0.9720(4) 0.2288(2)
H9_4 H 0.9333 0.9604 0.2098
C16_5 C 0.7244(6) 0.9995(3) 0.3954(2)
C18_5 C 0.6445(7) 0.9940(4) 0.4450(2)
C19_5 C 0.6753(7) 0.9474(3) 0.4497(2)
C20_5 C 0.7297(7) 0.9264(3) 0.4265(2)
H13_5 H 0.7496 0.8948 0.4287
C21_4 C 0.7547(7) 0.9530(3) 0.3995(2)
H14_4 H 0.7924 0.9390 0.3842
C22_5 C 0.6485(8) 0.9197(5) 0.4789(2)
H3_5 H 0.0151 0.4975 0.3738
H4_6 H 0.0321 0.5799 0.3777
H5_6 H 0.0084 0.6573 0.3859
C16_6 C 0.0256(6) 0.7505(3) 0.3954(2)
C17_6 C 0.0808(8) 0.7305(3) 0.4180(2)
H11_6 H 0.1023 0.6993 0.4154
C18_6 C 0.1055(7) 0.7560(4) 0.4450(2)
H12_6 H 0.1431 0.7416 0.4602
C19_6 C 0.0747(7) 0.8026(3) 0.4497(2)
C20_6 C 0.0203(7) 0.8236(3) 0.4265(2)
H13_6 H 0.0004 0.8552 0.4287
C22_6 C 0.1015(8) 0.8303(5) 0.4789(2)
N4_5 N 0.1044(5) 0.3279(3) 0.06794(15)
N5_5 N 0.0716(5) 0.4215(2) 0.06589(14)
N6_5 N 0.1515(5) 0.4650(3) 0.01622(16)
O10_6 O 0.2993(4) 0.3735(2) 0.05977(13)
C25_5 C 0.1134(7) 0.2796(4) 0.0660(2)
H15_5 H 0.1504 0.2668 0.0501
C26_5 C 0.0705(8) 0.2493(3) 0.0864(2)
H16_5 H 0.0786 0.2163 0.0845
C27_5 C 0.0151(8) 0.2677(4) 0.1097(2)
C28_5 C 0.0047(7) 0.3166(3) 0.1119(2)
C29_5 C 0.0494(6) 0.3454(3) 0.0906(2)
C30_5 C 0.0418(6) 0.3993(3) 0.09158(18)
C31_5 C 0.0088(6) 0.4240(3) 0.11776(18)
C32_5 C 0.0018(7) 0.4732(3) 0.11680(19)
C33_5 C 0.0290(7) 0.4951(3) 0.08961(18)
H20_6 H 0.0240 0.5283 0.0879
C34_5 C 0.0642(6) 0.4690(3) 0.06422(18)
C35_5 C 0.0978(7) 0.4920(3) 0.03449(19)
C36_6 C 0.0684(7) 0.5374(3) 0.0254(2)
H21_6 H 0.0283 0.5552 0.0381
C45_6 C 0.0047(7) 0.5470(3) 0.1495(2)
H28_6 H 0.0424 0.5610 0.1342
O12_8 O 0.3006(5) 0.3849(2) 0.99620(14)
C37_5 C 0.1003(8) 0.5557(4) 0.9969(2)
H22_5 H 0.0822 0.5860 0.9901
C38_5 C 0.1594(7) 0.5280(4) 0.9788(2)
H23_5 H 0.1833 0.5396 0.9598
C39_6 C 0.1816(8) 0.4840(3) 0.9892(2)
H24_6 H 0.2207 0.4654 0.9767
C23_4 C 0.3750 0.3750 0.0462(3)
C24_4 C 0.3750 0.3750 0.0091(3)
C23_5 C 0.3750 0.8750 0.5462(3)
C24_5 C 0.3750 0.8750 0.5091(3)
Cd1_3 Cd 0.83288(5) 0.13136(2) 0.778356(14)
N1_5 N 0.8956(5) 0.0779(3) 0.81794(15)
N2_5 N 0.9284(5) 0.1715(2) 0.81589(14)
N3_5 N 0.8485(5) 0.2150(3) 0.76622(16)
O3_3 O 0.7007(4) 0.1235(2) 0.80977(13)
O4_3 O 0.6994(5) 0.1349(2) 0.74620(14)
C1_5 C 0.8866(7) 0.0296(4) 0.8160(2)
H1_5 H 0.8496 0.0168 0.8001
C3_5 C 0.9849(8) 0.0177(4) 0.8597(2)
C4_5 C 0.9953(7) 0.0666(3) 0.8619(2)
C5_5 C 0.9506(6) 0.0954(3) 0.8406(2)
C6_5 C 0.9582(6) 0.1493(3) 0.84158(18)
C7_5 C 0.9912(6) 0.1740(3) 0.86776(18)
C8_5 C 0.9982(7) 0.2232(3) 0.86680(19)
C9_5 C 0.9710(7) 0.2451(3) 0.83961(18)
H6_5 H 0.9760 0.2783 0.8379
C10_5 C 0.9358(6) 0.2190(3) 0.81422(18)
C11_5 C 0.9022(7) 0.2420(3) 0.78449(19)
C12_5 C 0.9316(7) 0.2874(3) 0.7754(2)
H7_5 H 0.9717 0.3052 0.7881
C13_5 C 0.8997(8) 0.3057(4) 0.7469(2)
H8_5 H 0.9178 0.3360 0.7401
C14_5 C 0.8406(7) 0.2780(4) 0.7288(2)
H9_5 H 0.8167 0.2896 0.7098
C15_5 C 0.8184(8) 0.2340(3) 0.7392(2)
H10_5 H 0.7793 0.2154 0.7267
C21_5 C 0.9953(7) 0.2970(3) 0.8995(2)
H14_5 H 0.9576 0.3110 0.8842
C23_6 C 0.6250 0.1250 0.7962(3)
C24_6 C 0.6250 0.1250 0.7591(3)
Cd4_3 Cd 0.41712(5) 0.11864(2) 0.778356(14)
O5_5 O 0.9233(5) 0.1224(3) 0.73089(17)
O7_5 O 0.8487(6) 0.0606(3) 0.74845(16)
O9_3 O 0.5493(4) 0.1265(2) 0.80977(13)
O11_3 O 0.5506(5) 0.1151(2) 0.74620(14)
C40_5 C 0.9744(6) 0.0005(3) 0.6454(2)
C42_5 C 0.8945(7) 0.0060(4) 0.6950(2)
C43_5 C 0.9253(7) 0.0526(3) 0.6997(2)
C44_5 C 0.9797(7) 0.0736(3) 0.6765(2)
H27_5 H 0.9996 0.1052 0.6787
C46_5 C 0.8985(8) 0.0803(5) 0.7289(2)
C2_4 C 0.9295(8) 0.9993(3) 0.8364(2)
H2_4 H 0.9214 0.9663 0.8345
H17_4 H 0.9849 0.7475 0.6238
H18_4 H 0.9679 0.8299 0.6277
H19_4 H 0.9916 0.9073 0.6359
C41_4 C 0.9192(8) 0.9805(3) 0.6680(2)
H25_4 H 0.8977 0.9493 0.6654
H26_4 H 0.8569 0.9916 0.7102
Cd1_4 Cd 0.83288(5) 0.63136(2) 0.278356(14)
N1_6 N 0.8956(5) 0.5779(3) 0.31794(15)
N2_6 N 0.9284(5) 0.6715(2) 0.31589(14)
N3_6 N 0.8485(5) 0.7150(3) 0.26622(16)
O3_4 O 0.7007(4) 0.6235(2) 0.30977(13)
O4_4 O 0.6994(5) 0.6349(2) 0.24620(14)
C1_6 C 0.8866(7) 0.5296(4) 0.3160(2)
H1_6 H 0.8496 0.5168 0.3001
C2_5 C 0.9295(8) 0.4993(3) 0.3364(2)
H2_5 H 0.9214 0.4663 0.3345
C3_6 C 0.9849(8) 0.5177(4) 0.3597(2)
C4_6 C 0.9953(7) 0.5666(3) 0.3619(2)
C5_6 C 0.9506(6) 0.5954(3) 0.3406(2)
C6_6 C 0.9582(6) 0.6493(3) 0.34158(18)
C7_6 C 0.9912(6) 0.6740(3) 0.36776(18)
C8_6 C 0.9982(7) 0.7232(3) 0.36680(19)
C9_6 C 0.9710(7) 0.7451(3) 0.33961(18)
H6_6 H 0.9760 0.7783 0.3379
C10_6 C 0.9358(6) 0.7190(3) 0.31422(18)
C11_6 C 0.9022(7) 0.7420(3) 0.28449(19)
C12_6 C 0.9316(7) 0.7874(3) 0.2754(2)
H7_6 H 0.9717 0.8052 0.2881
C13_6 C 0.8997(8) 0.8057(4) 0.2469(2)
H8_6 H 0.9178 0.8360 0.2401
C14_6 C 0.8406(7) 0.7780(4) 0.2288(2)
H9_6 H 0.8167 0.7896 0.2098
C15_6 C 0.8184(8) 0.7340(3) 0.2392(2)
H10_6 H 0.7793 0.7154 0.2267
C21_6 C 0.9953(7) 0.7970(3) 0.3995(2)
H14_6 H 0.9576 0.8110 0.3842
C23_7 C 0.6250 0.6250 0.2962(3)
C24_7 C 0.6250 0.6250 0.2591(3)
Cd4_4 Cd 0.41712(5) 0.61864(2) 0.278356(14)
O5_6 O 0.9233(5) 0.6224(3) 0.23089(17)
O7_6 O 0.8487(6) 0.5606(3) 0.24845(16)
O9_4 O 0.5493(4) 0.6265(2) 0.30977(13)
O11_4 O 0.5506(5) 0.6151(2) 0.24620(14)
H17_5 H 0.9849 0.2475 0.1238
H18_5 H 0.9679 0.3299 0.1277
H19_5 H 0.9916 0.4073 0.1359
C40_6 C 0.9744(6) 0.5005(3) 0.1454(2)
C41_5 C 0.9192(8) 0.4805(3) 0.1680(2)
H25_5 H 0.8977 0.4493 0.1654
C42_6 C 0.8945(7) 0.5060(4) 0.1950(2)
H26_5 H 0.8569 0.4916 0.2102
C43_6 C 0.9253(7) 0.5526(3) 0.1997(2)
C44_6 C 0.9797(7) 0.5736(3) 0.1765(2)
H27_6 H 0.9996 0.6052 0.1787
C46_6 C 0.8985(8) 0.5803(5) 0.2289(2)
N1_7 N 0.3544(5) 0.6721(3) 0.31794(15)
N2_7 N 0.3216(5) 0.5785(2) 0.31589(14)
N3_7 N 0.4015(5) 0.5350(3) 0.26622(16)
O1_4 O 0.1733(5) 0.3776(3) 0.48089(17)
O2_4 O 0.0987(6) 0.4394(3) 0.49845(16)
C1_7 C 0.3634(7) 0.7204(4) 0.3160(2)
H1_7 H 0.4004 0.7332 0.3001
C2_6 C 0.3205(8) 0.7507(3) 0.3364(2)
H2_6 H 0.3286 0.7837 0.3345
C3_7 C 0.2651(8) 0.7323(4) 0.3597(2)
H3_6 H 0.2349 0.7525 0.3738
C4_7 C 0.2547(7) 0.6834(3) 0.3619(2)
H4_7 H 0.2179 0.6701 0.3777
C5_7 C 0.2994(6) 0.6546(3) 0.3406(2)
C6_7 C 0.2918(6) 0.6007(3) 0.34158(18)
C7_7 C 0.2588(6) 0.5760(3) 0.36776(18)
H5_7 H 0.2416 0.5927 0.3859
C8_7 C 0.2518(7) 0.5268(3) 0.36680(19)
C9_7 C 0.2790(7) 0.5049(3) 0.33961(18)
H6_7 H 0.2740 0.4717 0.3379
C10_7 C 0.3142(6) 0.5310(3) 0.31422(18)
C11_7 C 0.3478(7) 0.5080(3) 0.28449(19)
C12_7 C 0.3184(7) 0.4626(3) 0.2754(2)
H7_7 H 0.2783 0.4448 0.2881
C13_7 C 0.3503(8) 0.4443(4) 0.2469(2)
H8_7 H 0.3322 0.4140 0.2401
C14_7 C 0.4094(7) 0.4720(4) 0.2288(2)
H9_7 H 0.4333 0.4604 0.2098
C15_7 C 0.4316(8) 0.5160(3) 0.2392(2)
H10_7 H 0.4707 0.5346 0.2267
C16_7 C 0.2244(6) 0.4995(3) 0.3954(2)
C17_7 C 0.1692(8) 0.5195(3) 0.4180(2)
H11_7 H 0.1477 0.5507 0.4154
C18_7 C 0.1445(7) 0.4940(4) 0.4450(2)
H12_7 H 0.1069 0.5084 0.4602
C19_7 C 0.1753(7) 0.4474(3) 0.4497(2)
C20_7 C 0.2297(7) 0.4264(3) 0.4265(2)
H13_7 H 0.2496 0.3948 0.4287
C21_7 C 0.2547(7) 0.4530(3) 0.3995(2)
H14_7 H 0.2924 0.4390 0.3842
C22_7 C 0.1485(8) 0.4197(5) 0.4789(2)
Cd2_3 Cd 0.08288(5) 0.86864(2) 0.028356(14)
Cd3_4 Cd 0.08288(5) 0.36864(2) 0.528356(14)
N4_6 N 0.1456(5) 0.9221(3) 0.06794(15)
N5_6 N 0.1784(5) 0.8285(2) 0.06589(14)
N6_6 N 0.0985(5) 0.7850(3) 0.01622(16)
O5_7 O 0.3267(5) 0.6276(3) 0.23089(17)
O7_7 O 0.4013(6) 0.6894(3) 0.24845(16)
C25_6 C 0.1366(7) 0.9704(4) 0.0660(2)
H15_6 H 0.0996 0.9832 0.0501
C27_6 C 0.2349(8) 0.9823(4) 0.1097(2)
C28_6 C 0.2453(7) 0.9334(3) 0.1119(2)
H18_6 H 0.2821 0.9201 0.1277
C29_6 C 0.2006(6) 0.9046(3) 0.0906(2)
C30_6 C 0.2082(6) 0.8507(3) 0.09158(18)
C31_6 C 0.2412(6) 0.8260(3) 0.11776(18)
H19_6 H 0.2584 0.8427 0.1359
C32_6 C 0.2482(7) 0.7768(3) 0.11680(19)
C33_6 C 0.2210(7) 0.7549(3) 0.08961(18)
H20_7 H 0.2260 0.7217 0.0879
C34_6 C 0.1858(6) 0.7810(3) 0.06422(18)
C35_6 C 0.1522(7) 0.7580(3) 0.03449(19)
C36_7 C 0.1816(7) 0.7126(3) 0.0254(2)
H21_7 H 0.2217 0.6948 0.0381
C40_7 C 0.2756(6) 0.7495(3) 0.1454(2)
C41_6 C 0.3308(8) 0.7695(3) 0.1680(2)
H25_6 H 0.3523 0.8007 0.1654
C42_7 C 0.3555(7) 0.7440(4) 0.1950(2)
H26_6 H 0.3931 0.7584 0.2102
C43_7 C 0.3247(7) 0.6974(3) 0.1997(2)
C44_7 C 0.2703(7) 0.6764(3) 0.1765(2)
H27_7 H 0.2504 0.6448 0.1787
C45_7 C 0.2453(7) 0.7030(3) 0.1495(2)
H28_7 H 0.2076 0.6890 0.1342
C46_7 C 0.3515(8) 0.6697(5) 0.2289(2)
N1_8 N 0.3544(5) 0.1721(3) 0.81794(15)
N2_8 N 0.3216(5) 0.0785(2) 0.81589(14)
N3_8 N 0.4015(5) 0.0350(3) 0.76622(16)
C1_8 C 0.3634(7) 0.2204(4) 0.8160(2)
H1_8 H 0.4004 0.2332 0.8001
C2_7 C 0.3205(8) 0.2507(3) 0.8364(2)
H2_7 H 0.3286 0.2837 0.8345
C3_8 C 0.2651(8) 0.2323(4) 0.8597(2)
H3_7 H 0.2349 0.2525 0.8738
C4_8 C 0.2547(7) 0.1834(3) 0.8619(2)
H4_8 H 0.2179 0.1701 0.8777
C5_8 C 0.2994(6) 0.1546(3) 0.8406(2)
C6_8 C 0.2918(6) 0.1007(3) 0.84158(18)
C7_8 C 0.2588(6) 0.0760(3) 0.86776(18)
H5_8 H 0.2416 0.0927 0.8859
C8_8 C 0.2518(7) 0.0268(3) 0.86680(19)
C9_8 C 0.2790(7) 0.0049(3) 0.83961(18)
C10_8 C 0.3142(6) 0.0310(3) 0.81422(18)
C11_8 C 0.3478(7) 0.0080(3) 0.78449(19)
C15_8 C 0.4316(8) 0.0160(3) 0.7392(2)
H10_8 H 0.4707 0.0346 0.7267
C17_8 C 0.1692(8) 0.0195(3) 0.9180(2)
H11_8 H 0.1477 0.0507 0.9154
H12_8 H 0.1069 0.0084 0.9602
N4_7 N 0.1456(5) 0.4221(3) 0.56794(15)
N5_7 N 0.1784(5) 0.3285(2) 0.56589(14)
N6_7 N 0.0985(5) 0.2850(3) 0.51622(16)
O5_8 O 0.3267(5) 0.1276(3) 0.73089(17)
O7_8 O 0.4013(6) 0.1894(3) 0.74845(16)
C25_7 C 0.1366(7) 0.4704(4) 0.5660(2)
H15_7 H 0.0996 0.4832 0.5501
C26_6 C 0.1795(8) 0.5007(3) 0.5864(2)
H16_6 H 0.1714 0.5337 0.5845
C27_7 C 0.2349(8) 0.4823(4) 0.6097(2)
H17_6 H 0.2651 0.5025 0.6238
C28_7 C 0.2453(7) 0.4334(3) 0.6119(2)
H18_7 H 0.2821 0.4201 0.6277
C29_7 C 0.2006(6) 0.4046(3) 0.5906(2)
C30_7 C 0.2082(6) 0.3507(3) 0.59158(18)
C31_7 C 0.2412(6) 0.3260(3) 0.61776(18)
H19_7 H 0.2584 0.3427 0.6359
C32_7 C 0.2482(7) 0.2768(3) 0.61680(19)
C33_7 C 0.2210(7) 0.2549(3) 0.58961(18)
H20_8 H 0.2260 0.2217 0.5879
C34_7 C 0.1858(6) 0.2810(3) 0.56422(18)
C35_7 C 0.1522(7) 0.2580(3) 0.53449(19)
C36_8 C 0.1816(7) 0.2126(3) 0.5254(2)
H21_8 H 0.2217 0.1948 0.5381
C37_6 C 0.1497(8) 0.1943(4) 0.4969(2)
H22_6 H 0.1678 0.1640 0.4901
C38_6 C 0.0906(7) 0.2220(4) 0.4788(2)
H23_6 H 0.0667 0.2104 0.4598
C39_7 C 0.0684(8) 0.2660(3) 0.4892(2)
H24_7 H 0.0293 0.2846 0.4767
C40_8 C 0.2756(6) 0.2495(3) 0.6454(2)
C41_7 C 0.3308(8) 0.2695(3) 0.6680(2)
H25_7 H 0.3523 0.3007 0.6654
C42_8 C 0.3555(7) 0.2440(4) 0.6950(2)
H26_7 H 0.3931 0.2584 0.7102
C43_8 C 0.3247(7) 0.1974(3) 0.6997(2)
C44_8 C 0.2703(7) 0.1764(3) 0.6765(2)
H27_8 H 0.2504 0.1448 0.6787
C45_8 C 0.2453(7) 0.2030(3) 0.6495(2)
H28_8 H 0.2076 0.1890 0.6342
C46_8 C 0.3515(8) 0.1697(5) 0.7289(2)
C26_7 C 0.0705(8) 0.0007(3) 0.1636(2)
H16_7 H 0.0786 0.0337 0.1655
Cd2_4 Cd 0.16712(5) 0.86864(2) 0.221644(14)
N4_8 N 0.1044(5) 0.9221(3) 0.18206(15)
N5_8 N 0.0716(5) 0.8285(2) 0.18411(14)
N6_8 N 0.1515(5) 0.7850(3) 0.23378(16)
O6_4 O 0.0767(5) 0.8776(3) 0.26911(17)
O8_4 O 0.1513(6) 0.9394(3) 0.25155(16)
O10_7 O 0.2993(4) 0.8765(2) 0.19023(13)
O12_9 O 0.3006(5) 0.8651(2) 0.25380(14)
C25_8 C 0.1134(7) 0.9704(4) 0.1840(2)
H15_8 H 0.1504 0.9832 0.1999
C27_8 C 0.0151(8) 0.9823(4) 0.1403(2)
C28_8 C 0.0047(7) 0.9334(3) 0.1381(2)
C29_8 C 0.0494(6) 0.9046(3) 0.1594(2)
C30_8 C 0.0418(6) 0.8507(3) 0.15842(18)
C31_8 C 0.0088(6) 0.8260(3) 0.13224(18)
C32_8 C 0.0018(7) 0.7768(3) 0.13320(19)
C33_8 C 0.0290(7) 0.7549(3) 0.16039(18)
H20_9 H 0.0240 0.7217 0.1621
C34_8 C 0.0642(6) 0.7810(3) 0.18578(18)
C35_8 C 0.0978(7) 0.7580(3) 0.21551(19)
C36_9 C 0.0684(7) 0.7126(3) 0.2246(2)
H21_9 H 0.0283 0.6948 0.2119
C37_7 C 0.1003(8) 0.6943(4) 0.2531(2)
H22_7 H 0.0822 0.6640 0.2599
C38_7 C 0.1594(7) 0.7220(4) 0.2712(2)
H23_7 H 0.1833 0.7104 0.2902
C39_8 C 0.1816(8) 0.7660(3) 0.2608(2)
H24_8 H 0.2207 0.7846 0.2733
C45_9 C 0.0047(7) 0.7030(3) 0.1005(2)
H28_9 H 0.0424 0.6890 0.1158
O1_5 O 0.0767(5) 0.3776(3) 0.76911(17)
O2_5 O 0.1513(6) 0.4394(3) 0.75155(16)
H3_8 H 0.0151 0.7525 0.8762
H4_9 H 0.0321 0.6701 0.8723
H5_9 H 0.0084 0.5927 0.8641
C16_8 C 0.0256(6) 0.4995(3) 0.8546(2)
C17_9 C 0.0808(8) 0.5195(3) 0.8320(2)
H11_9 H 0.1023 0.5507 0.8346
C18_8 C 0.1055(7) 0.4940(4) 0.8050(2)
H12_9 H 0.1431 0.5084 0.7898
C19_8 C 0.0747(7) 0.4474(3) 0.8003(2)
C20_8 C 0.0203(7) 0.4264(3) 0.8235(2)
H13_8 H 0.0004 0.3948 0.8213
C22_8 C 0.1015(8) 0.4197(5) 0.7711(2)
Cd3_5 Cd 0.16712(5) 0.36864(2) 0.721644(14)
Cd1_5 Cd 0.91712(5) 0.13136(2) 0.971644(14)
N1_9 N 0.8544(5) 0.0779(3) 0.93206(15)
N2_9 N 0.8216(5) 0.1715(2) 0.93411(14)
N3_9 N 0.9015(5) 0.2150(3) 0.98378(16)
O1_6 O 0.6733(5) 0.3724(3) 0.76911(17)
O2_6 O 0.5987(6) 0.3106(3) 0.75155(16)
C1_9 C 0.8634(7) 0.0296(4) 0.9340(2)
H1_9 H 0.9004 0.0168 0.9499
C3_9 C 0.7651(8) 0.0177(4) 0.8903(2)
C4_9 C 0.7547(7) 0.0666(3) 0.8881(2)
H4_10 H 0.7179 0.0799 0.8723
C5_9 C 0.7994(6) 0.0954(3) 0.9094(2)
C6_9 C 0.7918(6) 0.1493(3) 0.90842(18)
C7_9 C 0.7588(6) 0.1740(3) 0.88224(18)
H5_10 H 0.7416 0.1573 0.8641
C8_9 C 0.7518(7) 0.2232(3) 0.88320(19)
C9_9 C 0.7790(7) 0.2451(3) 0.91039(18)
H6_8 H 0.7740 0.2783 0.9121
C10_9 C 0.8142(6) 0.2190(3) 0.93578(18)
C11_9 C 0.8478(7) 0.2420(3) 0.96551(19)
C12_8 C 0.8184(7) 0.2874(3) 0.9746(2)
H7_8 H 0.7783 0.3052 0.9619
C16_9 C 0.7244(6) 0.2505(3) 0.8546(2)
C17_10 C 0.6692(8) 0.2305(3) 0.8320(2)
H11_10 H 0.6477 0.1993 0.8346
C18_9 C 0.6445(7) 0.2560(4) 0.8050(2)
H12_10 H 0.6069 0.2416 0.7898
C19_9 C 0.6753(7) 0.3026(3) 0.8003(2)
C20_9 C 0.7297(7) 0.3236(3) 0.8235(2)
H13_9 H 0.7496 0.3552 0.8213
C21_8 C 0.7547(7) 0.2970(3) 0.8505(2)
H14_8 H 0.7924 0.3110 0.8658
C22_9 C 0.6485(8) 0.3303(5) 0.7711(2)
Cd3_6 Cd 0.58288(5) 0.38136(2) 0.721644(14)
Cd2_5 Cd 0.58288(5) 0.88136(2) 0.221644(14)
N4_9 N 0.6456(5) 0.8279(3) 0.18206(15)
N5_9 N 0.6784(5) 0.9215(2) 0.18411(14)
N6_9 N 0.5985(5) 0.9650(3) 0.23378(16)
O6_5 O 0.6733(5) 0.8724(3) 0.26911(17)
O8_5 O 0.5987(6) 0.8106(3) 0.25155(16)
O10_8 O 0.4507(4) 0.8735(2) 0.19023(13)
O12_10 O 0.4494(5) 0.8849(2) 0.25380(14)
C25_9 C 0.6366(7) 0.7796(4) 0.1840(2)
H15_9 H 0.5996 0.7668 0.1999
C26_8 C 0.6795(8) 0.7493(3) 0.1636(2)
H16_8 H 0.6714 0.7163 0.1655
C27_9 C 0.7349(8) 0.7677(4) 0.1403(2)
H17_7 H 0.7651 0.7475 0.1262
C28_9 C 0.7453(7) 0.8166(3) 0.1381(2)
H18_8 H 0.7821 0.8299 0.1223
C29_9 C 0.7006(6) 0.8454(3) 0.1594(2)
C30_9 C 0.7082(6) 0.8993(3) 0.15842(18)
C31_9 C 0.7412(6) 0.9240(3) 0.13224(18)
H19_8 H 0.7584 0.9073 0.1141
C32_9 C 0.7482(7) 0.9732(3) 0.13320(19)
C33_9 C 0.7210(7) 0.9951(3) 0.16039(18)
C34_9 C 0.6858(6) 0.9690(3) 0.18578(18)
C35_9 C 0.6522(7) 0.9920(3) 0.21551(19)
C39_9 C 0.5684(8) 0.9840(3) 0.2608(2)
H24_9 H 0.5293 0.9654 0.2733
C41_8 C 0.8308(8) 0.9805(3) 0.0820(2)
H25_8 H 0.8523 0.9493 0.0846
H26_8 H 0.8931 0.9916 0.0398
H3_9 H 0.0151 0.2525 0.3762
H4_11 H 0.0321 0.1701 0.3723
H5_11 H 0.0084 0.0927 0.3641
C17_11 C 0.0808(8) 0.0195(3) 0.3320(2)
H11_11 H 0.1023 0.0507 0.3346
H12_11 H 0.1431 0.0084 0.2898
N4_10 N 0.1044(5) 0.4221(3) 0.68206(15)
N5_10 N 0.0716(5) 0.3285(2) 0.68411(14)
N6_10 N 0.1515(5) 0.2850(3) 0.73378(16)
O10_9 O 0.2993(4) 0.3765(2) 0.69023(13)
O12_11 O 0.3006(5) 0.3651(2) 0.75380(14)
C25_10 C 0.1134(7) 0.4704(4) 0.6840(2)
H15_10 H 0.1504 0.4832 0.6999
C26_9 C 0.0705(8) 0.5007(3) 0.6636(2)
H16_9 H 0.0786 0.5337 0.6655
C27_10 C 0.0151(8) 0.4823(4) 0.6403(2)
C28_10 C 0.0047(7) 0.4334(3) 0.6381(2)
C29_10 C 0.0494(6) 0.4046(3) 0.6594(2)
C30_10 C 0.0418(6) 0.3507(3) 0.65842(18)
C31_10 C 0.0088(6) 0.3260(3) 0.63224(18)
C32_10 C 0.0018(7) 0.2768(3) 0.63320(19)
C33_10 C 0.0290(7) 0.2549(3) 0.66039(18)
H20_10 H 0.0240 0.2217 0.6621
C34_10 C 0.0642(6) 0.2810(3) 0.68578(18)
C35_10 C 0.0978(7) 0.2580(3) 0.71551(19)
C36_10 C 0.0684(7) 0.2126(3) 0.7246(2)
H21_10 H 0.0283 0.1948 0.7119
C37_8 C 0.1003(8) 0.1943(4) 0.7531(2)
H22_8 H 0.0822 0.1640 0.7599
C38_8 C 0.1594(7) 0.2220(4) 0.7712(2)
H23_8 H 0.1833 0.2104 0.7902
C39_10 C 0.1816(8) 0.2660(3) 0.7608(2)
H24_10 H 0.2207 0.2846 0.7733
C45_10 C 0.0047(7) 0.2030(3) 0.6005(2)
H28_10 H 0.0424 0.1890 0.6158
C16_10 C 0.0256(6) 0.9995(3) 0.3546(2)
C18_10 C 0.1055(7) 0.9940(4) 0.3050(2)
C19_10 C 0.0747(7) 0.9474(3) 0.3003(2)
C20_10 C 0.0203(7) 0.9264(3) 0.3235(2)
H13_10 H 0.0004 0.8948 0.3213
C22_10 C 0.1015(8) 0.9197(5) 0.2711(2)
Cd1_6 Cd 0.91712(5) 0.63136(2) 0.471644(14)
N1_10 N 0.8544(5) 0.5779(3) 0.43206(15)
N2_10 N 0.8216(5) 0.6715(2) 0.43411(14)
N3_10 N 0.9015(5) 0.7150(3) 0.48378(16)
C1_10 C 0.8634(7) 0.5296(4) 0.4340(2)
H1_10 H 0.9004 0.5168 0.4499
C2_8 C 0.8205(8) 0.4993(3) 0.4136(2)
H2_8 H 0.8286 0.4663 0.4155
C3_10 C 0.7651(8) 0.5177(4) 0.3903(2)
H3_10 H 0.7349 0.4975 0.3762
C4_10 C 0.7547(7) 0.5666(3) 0.3881(2)
H4_12 H 0.7179 0.5799 0.3723
C5_10 C 0.7994(6) 0.5954(3) 0.4094(2)
C6_10 C 0.7918(6) 0.6493(3) 0.40842(18)
C7_10 C 0.7588(6) 0.6740(3) 0.38224(18)
H5_12 H 0.7416 0.6573 0.3641
C8_10 C 0.7518(7) 0.7232(3) 0.38320(19)
C9_10 C 0.7790(7) 0.7451(3) 0.41039(18)
H6_9 H 0.7740 0.7783 0.4121
C10_10 C 0.8142(6) 0.7190(3) 0.43578(18)
C11_10 C 0.8478(7) 0.7420(3) 0.46551(19)
C12_9 C 0.8184(7) 0.7874(3) 0.4746(2)
H7_9 H 0.7783 0.8052 0.4619
C13_8 C 0.8503(8) 0.8057(4) 0.5031(2)
H8_8 H 0.8322 0.8360 0.5099
C14_8 C 0.9094(7) 0.7780(4) 0.5212(2)
H9_8 H 0.9333 0.7896 0.5402
C15_9 C 0.9316(8) 0.7340(3) 0.5108(2)
H10_9 H 0.9707 0.7154 0.5233
C16_11 C 0.7244(6) 0.7505(3) 0.3546(2)
C17_12 C 0.6692(8) 0.7305(3) 0.3320(2)
H11_12 H 0.6477 0.6993 0.3346
C18_11 C 0.6445(7) 0.7560(4) 0.3050(2)
H12_12 H 0.6069 0.7416 0.2898
C19_11 C 0.6753(7) 0.8026(3) 0.3003(2)
C20_11 C 0.7297(7) 0.8236(3) 0.3235(2)
H13_11 H 0.7496 0.8552 0.3213
C21_9 C 0.7547(7) 0.7970(3) 0.3505(2)
H14_9 H 0.7924 0.8110 0.3658
C22_11 C 0.6485(8) 0.8303(5) 0.2711(2)
N4_11 N 0.6456(5) 0.3279(3) 0.68206(15)
N5_11 N 0.6784(5) 0.4215(2) 0.68411(14)
N6_11 N 0.5985(5) 0.4650(3) 0.73378(16)
O5_9 O 0.8267(5) 0.6224(3) 0.51911(17)
O7_9 O 0.9013(6) 0.5606(3) 0.50155(16)
O10_10 O 0.4507(4) 0.3735(2) 0.69023(13)
O12_12 O 0.4494(5) 0.3849(2) 0.75380(14)
C25_11 C 0.6366(7) 0.2796(4) 0.6840(2)
H15_11 H 0.5996 0.2668 0.6999
C26_10 C 0.6795(8) 0.2493(3) 0.6636(2)
H16_10 H 0.6714 0.2163 0.6655
C27_11 C 0.7349(8) 0.2677(4) 0.6403(2)
H17_8 H 0.7651 0.2475 0.6262
C28_11 C 0.7453(7) 0.3166(3) 0.6381(2)
H18_9 H 0.7821 0.3299 0.6223
C29_11 C 0.7006(6) 0.3454(3) 0.6594(2)
C30_11 C 0.7082(6) 0.3993(3) 0.65842(18)
C31_11 C 0.7412(6) 0.4240(3) 0.63224(18)
H19_9 H 0.7584 0.4073 0.6141
C32_11 C 0.7482(7) 0.4732(3) 0.63320(19)
C33_11 C 0.7210(7) 0.4951(3) 0.66039(18)
H20_11 H 0.7260 0.5283 0.6621
C34_11 C 0.6858(6) 0.4690(3) 0.68578(18)
C35_11 C 0.6522(7) 0.4920(3) 0.71551(19)
C36_11 C 0.6816(7) 0.5374(3) 0.7246(2)
H21_11 H 0.7217 0.5552 0.7119
C37_9 C 0.6497(8) 0.5557(4) 0.7531(2)
H22_9 H 0.6678 0.5860 0.7599
C38_9 C 0.5906(7) 0.5280(4) 0.7712(2)
H23_9 H 0.5667 0.5396 0.7902
C39_11 C 0.5684(8) 0.4840(3) 0.7608(2)
H24_11 H 0.5293 0.4654 0.7733
C40_9 C 0.7756(6) 0.5005(3) 0.6046(2)
C41_9 C 0.8308(8) 0.4805(3) 0.5820(2)
H25_9 H 0.8523 0.4493 0.5846
C42_9 C 0.8555(7) 0.5060(4) 0.5550(2)
H26_9 H 0.8931 0.4916 0.5398
C43_9 C 0.8247(7) 0.5526(3) 0.5503(2)
C44_9 C 0.7703(7) 0.5736(3) 0.5735(2)
H27_9 H 0.7504 0.6052 0.5713
C45_11 C 0.7453(7) 0.5470(3) 0.6005(2)
H28_11 H 0.7076 0.5610 0.6158
C46_9 C 0.8515(8) 0.5803(5) 0.5211(2)
C23_8 C 0.3750 0.8750 0.2038(3)
C24_8 C 0.3750 0.8750 0.2409(3)
C23_9 C 0.3750 0.3750 0.7038(3)
C24_9 C 0.3750 0.3750 0.7409(3)
H17_9 H 0.9849 0.0025 0.1262
O4_5 O 0.6994(5) 0.6151(2) 0.00380(14)
C13_9 C 0.8997(8) 0.4443(4) 0.0031(2)
H8_9 H 0.9178 0.4140 0.0099
C14_9 C 0.8406(7) 0.4720(4) 0.0212(2)
H9_9 H 0.8167 0.4604 0.0402
C15_10 C 0.8184(8) 0.5160(3) 0.0108(2)
H10_10 H 0.7793 0.5346 0.0233
O5_10 O 0.9233(5) 0.6276(3) 0.01911(17)
O7_10 O 0.8487(6) 0.6894(3) 0.00155(16)
O11_5 O 0.5506(5) 0.6349(2) 0.00380(14)
H18_10 H 0.9679 0.9201 0.1223
H19_10 H 0.9916 0.8427 0.1141
C40_10 C 0.9744(6) 0.7495(3) 0.1046(2)
C41_10 C 0.9192(8) 0.7695(3) 0.0820(2)
H25_10 H 0.8977 0.8007 0.0846
C42_10 C 0.8945(7) 0.7440(4) 0.0550(2)
H26_10 H 0.8569 0.7584 0.0398
C43_10 C 0.9253(7) 0.6974(3) 0.0503(2)
C44_10 C 0.9797(7) 0.6764(3) 0.0735(2)
H27_10 H 0.9996 0.6448 0.0713
C46_10 C 0.8985(8) 0.6697(5) 0.0211(2)
Cd1_7 Cd 0.83288(5) 0.61864(2) 0.971644(14)
N1_11 N 0.8956(5) 0.6721(3) 0.93206(15)
N2_11 N 0.9284(5) 0.5785(2) 0.93411(14)
N3_11 N 0.8485(5) 0.5350(3) 0.98378(16)
O3_5 O 0.7007(4) 0.6265(2) 0.94023(13)
C1_11 C 0.8866(7) 0.7204(4) 0.9340(2)
H1_11 H 0.8496 0.7332 0.9499
C2_9 C 0.9295(8) 0.7507(3) 0.9136(2)
H2_9 H 0.9214 0.7837 0.9155
C3_11 C 0.9849(8) 0.7323(4) 0.8903(2)
C4_11 C 0.9953(7) 0.6834(3) 0.8881(2)
C5_11 C 0.9506(6) 0.6546(3) 0.9094(2)
C6_11 C 0.9582(6) 0.6007(3) 0.90842(18)
C7_11 C 0.9912(6) 0.5760(3) 0.88224(18)
C8_11 C 0.9982(7) 0.5268(3) 0.88320(19)
C9_11 C 0.9710(7) 0.5049(3) 0.91039(18)
H6_10 H 0.9760 0.4717 0.9121
C10_11 C 0.9358(6) 0.5310(3) 0.93578(18)
C11_11 C 0.9022(7) 0.5080(3) 0.96551(19)
C12_10 C 0.9316(7) 0.4626(3) 0.9746(2)
H7_10 H 0.9717 0.4448 0.9619
C21_10 C 0.9953(7) 0.4530(3) 0.8505(2)
H14_10 H 0.9576 0.4390 0.8658
C23_10 C 0.6250 0.6250 0.9538(3)
C24_10 C 0.6250 0.6250 0.9909(3)
Cd4_5 Cd 0.41712(5) 0.63136(2) 0.971644(14)
O9_5 O 0.5493(4) 0.6235(2) 0.94023(13)
Cd1_8 Cd 0.83288(5) 0.11864(2) 0.471644(14)
N1_12 N 0.8956(5) 0.1721(3) 0.43206(15)
N2_12 N 0.9284(5) 0.0785(2) 0.43411(14)
N3_12 N 0.8485(5) 0.0350(3) 0.48378(16)
O3_6 O 0.7007(4) 0.1265(2) 0.44023(13)
O4_6 O 0.6994(5) 0.1151(2) 0.50380(14)
C1_12 C 0.8866(7) 0.2204(4) 0.4340(2)
H1_12 H 0.8496 0.2332 0.4499
C2_10 C 0.9295(8) 0.2507(3) 0.4136(2)
H2_10 H 0.9214 0.2837 0.4155
C3_12 C 0.9849(8) 0.2323(4) 0.3903(2)
C4_12 C 0.9953(7) 0.1834(3) 0.3881(2)
C5_12 C 0.9506(6) 0.1546(3) 0.4094(2)
C6_12 C 0.9582(6) 0.1007(3) 0.40842(18)
C7_12 C 0.9912(6) 0.0760(3) 0.38224(18)
C8_12 C 0.9982(7) 0.0268(3) 0.38320(19)
C9_12 C 0.9710(7) 0.0049(3) 0.41039(18)
C10_12 C 0.9358(6) 0.0310(3) 0.43578(18)
C11_12 C 0.9022(7) 0.0080(3) 0.46551(19)
C15_11 C 0.8184(8) 0.0160(3) 0.5108(2)
H10_11 H 0.7793 0.0346 0.5233
C23_11 C 0.6250 0.1250 0.4538(3)
C24_11 C 0.6250 0.1250 0.4909(3)
Cd4_6 Cd 0.41712(5) 0.13136(2) 0.471644(14)
O5_11 O 0.9233(5) 0.1276(3) 0.51911(17)
O7_11 O 0.8487(6) 0.1894(3) 0.50155(16)
O9_6 O 0.5493(4) 0.1235(2) 0.44023(13)
O11_6 O 0.5506(5) 0.1349(2) 0.50380(14)
H17_10 H 0.9849 0.5025 0.6262
H18_11 H 0.9679 0.4201 0.6223
H19_11 H 0.9916 0.3427 0.6141
C40_11 C 0.9744(6) 0.2495(3) 0.6046(2)
C41_11 C 0.9192(8) 0.2695(3) 0.5820(2)
H25_11 H 0.8977 0.3007 0.5846
C42_11 C 0.8945(7) 0.2440(4) 0.5550(2)
H26_11 H 0.8569 0.2584 0.5398
C43_11 C 0.9253(7) 0.1974(3) 0.5503(2)
C44_11 C 0.9797(7) 0.1764(3) 0.5735(2)
H27_11 H 0.9996 0.1448 0.5713
C46_11 C 0.8985(8) 0.1697(5) 0.5211(2)
H6_11 H 0.9760 0.9717 0.4121
C12_11 C 0.9316(7) 0.9626(3) 0.4746(2)
H7_11 H 0.9717 0.9448 0.4619
C13_10 C 0.8997(8) 0.9443(4) 0.5031(2)
H8_10 H 0.9178 0.9140 0.5099
C14_10 C 0.8406(7) 0.9720(4) 0.5212(2)
H9_10 H 0.8167 0.9604 0.5402
C21_11 C 0.9953(7) 0.9530(3) 0.3505(2)
H14_11 H 0.9576 0.9390 0.3658
N1_13 N 0.3544(5) 0.0779(3) 0.43206(15)
N2_13 N 0.3216(5) 0.1715(2) 0.43411(14)
N3_13 N 0.4015(5) 0.2150(3) 0.48378(16)
O1_7 O 0.1733(5) 0.3724(3) 0.26911(17)
O2_7 O 0.0987(6) 0.3106(3) 0.25155(16)
C1_13 C 0.3634(7) 0.0296(4) 0.4340(2)
H1_13 H 0.4004 0.0168 0.4499
C3_13 C 0.2651(8) 0.0177(4) 0.3903(2)
C4_13 C 0.2547(7) 0.0666(3) 0.3881(2)
H4_13 H 0.2179 0.0799 0.3723
C5_13 C 0.2994(6) 0.0954(3) 0.4094(2)
C6_13 C 0.2918(6) 0.1493(3) 0.40842(18)
C7_13 C 0.2588(6) 0.1740(3) 0.38224(18)
H5_13 H 0.2416 0.1573 0.3641
C8_13 C 0.2518(7) 0.2232(3) 0.38320(19)
C9_13 C 0.2790(7) 0.2451(3) 0.41039(18)
H6_12 H 0.2740 0.2783 0.4121
C10_13 C 0.3142(6) 0.2190(3) 0.43578(18)
C11_13 C 0.3478(7) 0.2420(3) 0.46551(19)
C12_12 C 0.3184(7) 0.2874(3) 0.4746(2)
H7_12 H 0.2783 0.3052 0.4619
C13_11 C 0.3503(8) 0.3057(4) 0.5031(2)
H8_11 H 0.3322 0.3360 0.5099
C14_11 C 0.4094(7) 0.2780(4) 0.5212(2)
H9_11 H 0.4333 0.2896 0.5402
C15_12 C 0.4316(8) 0.2340(3) 0.5108(2)
H10_12 H 0.4707 0.2154 0.5233
C16_12 C 0.2244(6) 0.2505(3) 0.3546(2)
C17_13 C 0.1692(8) 0.2305(3) 0.3320(2)
H11_13 H 0.1477 0.1993 0.3346
C18_12 C 0.1445(7) 0.2560(4) 0.3050(2)
H12_13 H 0.1069 0.2416 0.2898
C19_12 C 0.1753(7) 0.3026(3) 0.3003(2)
C20_12 C 0.2297(7) 0.3236(3) 0.3235(2)
H13_12 H 0.2496 0.3552 0.3213
C21_12 C 0.2547(7) 0.2970(3) 0.3505(2)
H14_12 H 0.2924 0.3110 0.3658
C22_12 C 0.1485(8) 0.3303(5) 0.2711(2)
Cd3_7 Cd 0.08288(5) 0.38136(2) 0.221644(14)
O5_12 O 0.3267(5) 0.1224(3) 0.51911(17)
O7_12 O 0.4013(6) 0.0606(3) 0.50155(16)
H20_12 H 0.2260 0.0283 0.6621
C36_12 C 0.1816(7) 0.0374(3) 0.7246(2)
H21_12 H 0.2217 0.0552 0.7119
C37_10 C 0.1497(8) 0.0557(4) 0.7531(2)
H22_10 H 0.1678 0.0860 0.7599
C38_10 C 0.0906(7) 0.0280(4) 0.7712(2)
H23_10 H 0.0667 0.0396 0.7902
C40_12 C 0.2756(6) 0.0005(3) 0.6046(2)
C42_12 C 0.3555(7) 0.0060(4) 0.5550(2)
C43_12 C 0.3247(7) 0.0526(3) 0.5503(2)
C44_12 C 0.2703(7) 0.0736(3) 0.5735(2)
H27_12 H 0.2504 0.1052 0.5713
C45_12 C 0.2453(7) 0.0470(3) 0.6005(2)
H28_12 H 0.2076 0.0610 0.6158
C46_12 C 0.3515(8) 0.0803(5) 0.5211(2)
C2_11 C 0.3205(8) 0.9993(3) 0.4136(2)
H2_11 H 0.3286 0.9663 0.4155
H3_11 H 0.2349 0.9975 0.3762
Cd2_6 Cd 0.08288(5) 0.88136(2) 0.721644(14)
N4_12 N 0.1456(5) 0.8279(3) 0.68206(15)
N5_12 N 0.1784(5) 0.9215(2) 0.68411(14)
N6_12 N 0.0985(5) 0.9650(3) 0.73378(16)
O6_6 O 0.1733(5) 0.8724(3) 0.76911(17)
O8_6 O 0.0987(6) 0.8106(3) 0.75155(16)
C25_12 C 0.1366(7) 0.7796(4) 0.6840(2)
H15_12 H 0.0996 0.7668 0.6999
C26_11 C 0.1795(8) 0.7493(3) 0.6636(2)
H16_11 H 0.1714 0.7163 0.6655
C27_12 C 0.2349(8) 0.7677(4) 0.6403(2)
H17_11 H 0.2651 0.7475 0.6262
C28_12 C 0.2453(7) 0.8166(3) 0.6381(2)
H18_12 H 0.2821 0.8299 0.6223
C29_12 C 0.2006(6) 0.8454(3) 0.6594(2)
C30_12 C 0.2082(6) 0.8993(3) 0.65842(18)
C31_12 C 0.2412(6) 0.9240(3) 0.63224(18)
H19_12 H 0.2584 0.9073 0.6141
C32_12 C 0.2482(7) 0.9732(3) 0.63320(19)
C33_12 C 0.2210(7) 0.9951(3) 0.66039(18)
C34_12 C 0.1858(6) 0.9690(3) 0.68578(18)
C35_12 C 0.1522(7) 0.9920(3) 0.71551(19)
C39_12 C 0.0684(8) 0.9840(3) 0.7608(2)
H24_12 H 0.0293 0.9654 0.7733
C41_12 C 0.3308(8) 0.9805(3) 0.5820(2)
H25_12 H 0.3523 0.9493 0.5846
H26_12 H 0.3931 0.9916 0.5398
C13_12 C 0.3503(8) 0.8057(4) 0.0031(2)
H8_12 H 0.3322 0.8360 0.0099
C14_12 C 0.4094(7) 0.7780(4) 0.0212(2)
H9_12 H 0.4333 0.7896 0.0402
C15_13 C 0.4316(8) 0.7340(3) 0.0108(2)
H10_13 H 0.4707 0.7154 0.0233
N4_13 N 0.1456(5) 0.3279(3) 0.18206(15)
N5_13 N 0.1784(5) 0.4215(2) 0.18411(14)
N6_13 N 0.0985(5) 0.4650(3) 0.23378(16)
O5_13 O 0.3267(5) 0.6224(3) 0.01911(17)
O7_13 O 0.4013(6) 0.5606(3) 0.00155(16)
C25_13 C 0.1366(7) 0.2796(4) 0.1840(2)
H15_13 H 0.0996 0.2668 0.1999
C26_12 C 0.1795(8) 0.2493(3) 0.1636(2)
H16_12 H 0.1714 0.2163 0.1655
C27_13 C 0.2349(8) 0.2677(4) 0.1403(2)
H17_12 H 0.2651 0.2475 0.1262
C28_13 C 0.2453(7) 0.3166(3) 0.1381(2)
H18_13 H 0.2821 0.3299 0.1223
C29_13 C 0.2006(6) 0.3454(3) 0.1594(2)
C30_13 C 0.2082(6) 0.3993(3) 0.15842(18)
C31_13 C 0.2412(6) 0.4240(3) 0.13224(18)
H19_13 H 0.2584 0.4073 0.1141
C32_13 C 0.2482(7) 0.4732(3) 0.13320(19)
C33_13 C 0.2210(7) 0.4951(3) 0.16039(18)
H20_13 H 0.2260 0.5283 0.1621
C34_13 C 0.1858(6) 0.4690(3) 0.18578(18)
C35_13 C 0.1522(7) 0.4920(3) 0.21551(19)
C36_13 C 0.1816(7) 0.5374(3) 0.2246(2)
H21_13 H 0.2217 0.5552 0.2119
C37_11 C 0.1497(8) 0.5557(4) 0.2531(2)
H22_11 H 0.1678 0.5860 0.2599
C38_11 C 0.0906(7) 0.5280(4) 0.2712(2)
H23_11 H 0.0667 0.5396 0.2902
C39_13 C 0.0684(8) 0.4840(3) 0.2608(2)
H24_13 H 0.0293 0.4654 0.2733
C40_13 C 0.2756(6) 0.5005(3) 0.1046(2)
C41_13 C 0.3308(8) 0.4805(3) 0.0820(2)
H25_13 H 0.3523 0.4493 0.0846
C42_13 C 0.3555(7) 0.5060(4) 0.0550(2)
H26_13 H 0.3931 0.4916 0.0398
C43_13 C 0.3247(7) 0.5526(3) 0.0503(2)
C44_13 C 0.2703(7) 0.5736(3) 0.0735(2)
H27_13 H 0.2504 0.6052 0.0713
C45_13 C 0.2453(7) 0.5470(3) 0.1005(2)
H28_13 H 0.2076 0.5610 0.1158
C46_13 C 0.3515(8) 0.5803(5) 0.0211(2)
N1_14 N 0.3544(5) 0.5779(3) 0.93206(15)
N2_14 N 0.3216(5) 0.6715(2) 0.93411(14)
N3_14 N 0.4015(5) 0.7150(3) 0.98378(16)
C1_14 C 0.3634(7) 0.5296(4) 0.9340(2)
H1_14 H 0.4004 0.5168 0.9499
C2_12 C 0.3205(8) 0.4993(3) 0.9136(2)
H2_12 H 0.3286 0.4663 0.9155
C3_14 C 0.2651(8) 0.5177(4) 0.8903(2)
H3_12 H 0.2349 0.4975 0.8762
C4_14 C 0.2547(7) 0.5666(3) 0.8881(2)
H4_14 H 0.2179 0.5799 0.8723
C5_14 C 0.2994(6) 0.5954(3) 0.9094(2)
C6_14 C 0.2918(6) 0.6493(3) 0.90842(18)
C7_14 C 0.2588(6) 0.6740(3) 0.88224(18)
H5_14 H 0.2416 0.6573 0.8641
C8_14 C 0.2518(7) 0.7232(3) 0.88320(19)
C9_14 C 0.2790(7) 0.7451(3) 0.91039(18)
H6_13 H 0.2740 0.7783 0.9121
C10_14 C 0.3142(6) 0.7190(3) 0.93578(18)
C11_14 C 0.3478(7) 0.7420(3) 0.96551(19)
C12_13 C 0.3184(7) 0.7874(3) 0.9746(2)
H7_13 H 0.2783 0.8052 0.9619
C16_13 C 0.2244(6) 0.7505(3) 0.8546(2)
C17_14 C 0.1692(8) 0.7305(3) 0.8320(2)
H11_14 H 0.1477 0.6993 0.8346
C18_13 C 0.1445(7) 0.7560(4) 0.8050(2)
H12_14 H 0.1069 0.7416 0.7898
C19_13 C 0.1753(7) 0.8026(3) 0.8003(2)
C20_13 C 0.2297(7) 0.8236(3) 0.8235(2)
H13_13 H 0.2496 0.8552 0.8213
C21_13 C 0.2547(7) 0.7970(3) 0.8505(2)
H14_13 H 0.2924 0.8110 0.8658
C22_13 C 0.1485(8) 0.8303(5) 0.7711(2)
O4_7 O 0.0506(5) 0.1349(2) 0.00380(14)
O11_7 O 0.1994(5) 0.1151(2) 0.00380(14)
O3_7 O 0.0493(4) 0.6235(2) 0.44023(13)
O4_8 O 0.0506(5) 0.6349(2) 0.50380(14)
C23_12 C 0.1250 0.6250 0.4538(3)
C24_12 C 0.1250 0.6250 0.4909(3)
Cd4_7 Cd 0.33288(5) 0.61864(2) 0.471644(14)
O9_7 O 0.2007(4) 0.6265(2) 0.44023(13)
O11_8 O 0.1994(5) 0.6151(2) 0.50380(14)
N1_15 N 0.3956(5) 0.6721(3) 0.43206(15)
N2_15 N 0.4284(5) 0.5785(2) 0.43411(14)
N3_15 N 0.3485(5) 0.5350(3) 0.48378(16)
O1_8 O 0.5767(5) 0.3776(3) 0.26911(17)
O2_8 O 0.6513(6) 0.4394(3) 0.25155(16)
C1_15 C 0.3866(7) 0.7204(4) 0.4340(2)
H1_15 H 0.3496 0.7332 0.4499
C2_13 C 0.4295(8) 0.7507(3) 0.4136(2)
H2_13 H 0.4214 0.7837 0.4155
C3_15 C 0.4849(8) 0.7323(4) 0.3903(2)
H3_13 H 0.5151 0.7525 0.3762
C4_15 C 0.4953(7) 0.6834(3) 0.3881(2)
H4_15 H 0.5321 0.6701 0.3723
C5_15 C 0.4506(6) 0.6546(3) 0.4094(2)
C6_15 C 0.4582(6) 0.6007(3) 0.40842(18)
C7_15 C 0.4912(6) 0.5760(3) 0.38224(18)
H5_15 H 0.5084 0.5927 0.3641
C8_15 C 0.4982(7) 0.5268(3) 0.38320(19)
C9_15 C 0.4710(7) 0.5049(3) 0.41039(18)
H6_14 H 0.4760 0.4717 0.4121
C10_15 C 0.4358(6) 0.5310(3) 0.43578(18)
C11_15 C 0.4022(7) 0.5080(3) 0.46551(19)
C12_14 C 0.4316(7) 0.4626(3) 0.4746(2)
H7_14 H 0.4717 0.4448 0.4619
C13_13 C 0.3997(8) 0.4443(4) 0.5031(2)
H8_13 H 0.4178 0.4140 0.5099
C14_13 C 0.3406(7) 0.4720(4) 0.5212(2)
H9_13 H 0.3167 0.4604 0.5402
C15_14 C 0.3184(8) 0.5160(3) 0.5108(2)
H10_14 H 0.2793 0.5346 0.5233
C16_14 C 0.5256(6) 0.4995(3) 0.3546(2)
C17_15 C 0.5808(8) 0.5195(3) 0.3320(2)
H11_15 H 0.6023 0.5507 0.3346
C18_14 C 0.6055(7) 0.4940(4) 0.3050(2)
H12_15 H 0.6431 0.5084 0.2898
C19_14 C 0.5747(7) 0.4474(3) 0.3003(2)
C20_14 C 0.5203(7) 0.4264(3) 0.3235(2)
H13_14 H 0.5004 0.3948 0.3213
C21_14 C 0.4953(7) 0.4530(3) 0.3505(2)
H14_14 H 0.4576 0.4390 0.3658
C22_14 C 0.6015(8) 0.4197(5) 0.2711(2)
Cd2_7 Cd 0.66712(5) 0.86864(2) 0.721644(14)
Cd3_8 Cd 0.66712(5) 0.36864(2) 0.221644(14)
N4_14 N 0.6044(5) 0.9221(3) 0.68206(15)
N5_14 N 0.5716(5) 0.8285(2) 0.68411(14)
N6_14 N 0.6515(5) 0.7850(3) 0.73378(16)
O5_14 O 0.4233(5) 0.6276(3) 0.51911(17)
O6_7 O 0.5767(5) 0.8776(3) 0.76911(17)
O7_14 O 0.3487(6) 0.6894(3) 0.50155(16)
O8_7 O 0.6513(6) 0.9394(3) 0.75155(16)
O10_11 O 0.7993(4) 0.8765(2) 0.69023(13)
O12_13 O 0.8006(5) 0.8651(2) 0.75380(14)
C25_14 C 0.6134(7) 0.9704(4) 0.6840(2)
H15_14 H 0.6504 0.9832 0.6999
C27_14 C 0.5151(8) 0.9823(4) 0.6403(2)
C28_14 C 0.5047(7) 0.9334(3) 0.6381(2)
H18_14 H 0.4679 0.9201 0.6223
C29_14 C 0.5494(6) 0.9046(3) 0.6594(2)
C30_14 C 0.5418(6) 0.8507(3) 0.65842(18)
C31_14 C 0.5088(6) 0.8260(3) 0.63224(18)
H19_14 H 0.4916 0.8427 0.6141
C32_14 C 0.5018(7) 0.7768(3) 0.63320(19)
C33_14 C 0.5290(7) 0.7549(3) 0.66039(18)
H20_14 H 0.5240 0.7217 0.6621
C34_14 C 0.5642(6) 0.7810(3) 0.68578(18)
C35_14 C 0.5978(7) 0.7580(3) 0.71551(19)
C36_14 C 0.5684(7) 0.7126(3) 0.7246(2)
H21_14 H 0.5283 0.6948 0.7119
C37_12 C 0.6003(8) 0.6943(4) 0.7531(2)
H22_12 H 0.5822 0.6640 0.7599
C38_12 C 0.6594(7) 0.7220(4) 0.7712(2)
H23_12 H 0.6833 0.7104 0.7902
C39_14 C 0.6816(8) 0.7660(3) 0.7608(2)
H24_14 H 0.7207 0.7846 0.7733
C40_14 C 0.4744(6) 0.7495(3) 0.6046(2)
C41_14 C 0.4192(8) 0.7695(3) 0.5820(2)
H25_14 H 0.3977 0.8007 0.5846
C42_14 C 0.3945(7) 0.7440(4) 0.5550(2)
H26_14 H 0.3569 0.7584 0.5398
C43_14 C 0.4253(7) 0.6974(3) 0.5503(2)
C44_14 C 0.4797(7) 0.6764(3) 0.5735(2)
H27_14 H 0.4996 0.6448 0.5713
C45_14 C 0.5047(7) 0.7030(3) 0.6005(2)
H28_14 H 0.5424 0.6890 0.6158
C46_14 C 0.3985(8) 0.6697(5) 0.5211(2)
O10_12 O 0.9507(4) 0.8735(2) 0.69023(13)
O12_14 O 0.9494(5) 0.8849(2) 0.75380(14)
C15_15 C 0.3184(8) 0.0160(3) 0.0108(2)
H10_15 H 0.2793 0.0346 0.0233
N4_15 N 0.6044(5) 0.4221(3) 0.18206(15)
N5_15 N 0.5716(5) 0.3285(2) 0.18411(14)
N6_15 N 0.6515(5) 0.2850(3) 0.23378(16)
O5_15 O 0.4233(5) 0.1276(3) 0.01911(17)
O7_15 O 0.3487(6) 0.1894(3) 0.00155(16)
O10_13 O 0.7993(4) 0.3765(2) 0.19023(13)
O12_15 O 0.8006(5) 0.3651(2) 0.25380(14)
C25_15 C 0.6134(7) 0.4704(4) 0.1840(2)
H15_15 H 0.6504 0.4832 0.1999
C26_13 C 0.5705(8) 0.5007(3) 0.1636(2)
H16_13 H 0.5786 0.5337 0.1655
C27_15 C 0.5151(8) 0.4823(4) 0.1403(2)
H17_13 H 0.4849 0.5025 0.1262
C28_15 C 0.5047(7) 0.4334(3) 0.1381(2)
H18_15 H 0.4679 0.4201 0.1223
C29_15 C 0.5494(6) 0.4046(3) 0.1594(2)
C30_15 C 0.5418(6) 0.3507(3) 0.15842(18)
C31_15 C 0.5088(6) 0.3260(3) 0.13224(18)
H19_15 H 0.4916 0.3427 0.1141
C32_15 C 0.5018(7) 0.2768(3) 0.13320(19)
C33_15 C 0.5290(7) 0.2549(3) 0.16039(18)
H20_15 H 0.5240 0.2217 0.1621
C34_15 C 0.5642(6) 0.2810(3) 0.18578(18)
C35_15 C 0.5978(7) 0.2580(3) 0.21551(19)
C36_15 C 0.5684(7) 0.2126(3) 0.2246(2)
H21_15 H 0.5283 0.1948 0.2119
C37_13 C 0.6003(8) 0.1943(4) 0.2531(2)
H22_13 H 0.5822 0.1640 0.2599
C38_13 C 0.6594(7) 0.2220(4) 0.2712(2)
H23_13 H 0.6833 0.2104 0.2902
C39_15 C 0.6816(8) 0.2660(3) 0.2608(2)
H24_15 H 0.7207 0.2846 0.2733
C40_15 C 0.4744(6) 0.2495(3) 0.1046(2)
C41_15 C 0.4192(8) 0.2695(3) 0.0820(2)
H25_15 H 0.3977 0.3007 0.0846
C42_15 C 0.3945(7) 0.2440(4) 0.0550(2)
H26_15 H 0.3569 0.2584 0.0398
C43_15 C 0.4253(7) 0.1974(3) 0.0503(2)
C44_15 C 0.4797(7) 0.1764(3) 0.0735(2)
H27_15 H 0.4996 0.1448 0.0713
C45_15 C 0.5047(7) 0.2030(3) 0.1005(2)
H28_15 H 0.5424 0.1890 0.1158
C46_15 C 0.3985(8) 0.1697(5) 0.0211(2)
H6_15 H 0.4760 0.9717 0.9121
C12_15 C 0.4316(7) 0.9626(3) 0.9746(2)
H7_15 H 0.4717 0.9448 0.9619
C16_15 C 0.5256(6) 0.9995(3) 0.8546(2)
C18_15 C 0.6055(7) 0.9940(4) 0.8050(2)
C19_15 C 0.5747(7) 0.9474(3) 0.8003(2)
C20_15 C 0.5203(7) 0.9264(3) 0.8235(2)
H13_15 H 0.5004 0.8948 0.8213
C21_15 C 0.4953(7) 0.9530(3) 0.8505(2)
H14_15 H 0.4576 0.9390 0.8658
C22_15 C 0.6015(8) 0.9197(5) 0.7711(2)
O10_14 O 0.9507(4) 0.3735(2) 0.19023(13)
O12_16 O 0.9494(5) 0.3849(2) 0.25380(14)
C23_13 C 0.8750 0.3750 0.2038(3)
C24_13 C 0.8750 0.3750 0.2409(3)
C23_14 C 0.8750 0.8750 0.7038(3)
C24_14 C 0.8750 0.8750 0.7409(3)
O3_8 O 0.0493(4) 0.1235(2) 0.94023(13)
C23_15 C 0.1250 0.1250 0.9538(3)
C24_15 C 0.1250 0.1250 0.9909(3)
Cd4_8 Cd 0.33288(5) 0.11864(2) 0.971644(14)
O9_8 O 0.2007(4) 0.1265(2) 0.94023(13)
C26_14 C 0.5705(8) 0.0007(3) 0.6636(2)
H16_14 H 0.5786 0.0337 0.6655
H17_14 H 0.4849 0.0025 0.6262
N1_16 N 0.3956(5) 0.1721(3) 0.93206(15)
N2_16 N 0.4284(5) 0.0785(2) 0.93411(14)
N3_16 N 0.3485(5) 0.0350(3) 0.98378(16)
C1_16 C 0.3866(7) 0.2204(4) 0.9340(2)
H1_16 H 0.3496 0.2332 0.9499
C2_14 C 0.4295(8) 0.2507(3) 0.9136(2)
H2_14 H 0.4214 0.2837 0.9155
C3_16 C 0.4849(8) 0.2323(4) 0.8903(2)
H3_14 H 0.5151 0.2525 0.8762
C4_16 C 0.4953(7) 0.1834(3) 0.8881(2)
H4_16 H 0.5321 0.1701 0.8723
C5_16 C 0.4506(6) 0.1546(3) 0.9094(2)
C6_16 C 0.4582(6) 0.1007(3) 0.90842(18)
C7_16 C 0.4912(6) 0.0760(3) 0.88224(18)
H5_16 H 0.5084 0.0927 0.8641
C8_16 C 0.4982(7) 0.0268(3) 0.88320(19)
C9_16 C 0.4710(7) 0.0049(3) 0.91039(18)
C10_16 C 0.4358(6) 0.0310(3) 0.93578(18)
C11_16 C 0.4022(7) 0.0080(3) 0.96551(19)
C17_16 C 0.5808(8) 0.0195(3) 0.8320(2)
H11_16 H 0.6023 0.0507 0.8346
H12_16 H 0.6431 0.0084 0.7898
C13_14 C 0.8503(8) 0.3057(4) 0.0031(2)
H8_14 H 0.8322 0.3360 0.0099
C14_14 C 0.9094(7) 0.2780(4) 0.0212(2)
H9_14 H 0.9333 0.2896 0.0402
C15_16 C 0.9316(8) 0.2340(3) 0.0108(2)
H10_16 H 0.9707 0.2154 0.0233
O5_16 O 0.8267(5) 0.1224(3) 0.01911(17)
O7_16 O 0.9013(6) 0.0606(3) 0.00155(16)
H20_16 H 0.7260 0.0283 0.1621
C36_16 C 0.6816(7) 0.0374(3) 0.2246(2)
H21_16 H 0.7217 0.0552 0.2119
C37_14 C 0.6497(8) 0.0557(4) 0.2531(2)
H22_14 H 0.6678 0.0860 0.2599
C38_14 C 0.5906(7) 0.0280(4) 0.2712(2)
H23_14 H 0.5667 0.0396 0.2902
C40_16 C 0.7756(6) 0.0005(3) 0.1046(2)
C42_16 C 0.8555(7) 0.0060(4) 0.0550(2)
C43_16 C 0.8247(7) 0.0526(3) 0.0503(2)
C44_16 C 0.7703(7) 0.0736(3) 0.0735(2)
H27_16 H 0.7504 0.1052 0.0713
C45_16 C 0.7453(7) 0.0470(3) 0.1005(2)
H28_16 H 0.7076 0.0610 0.1158
C46_16 C 0.8515(8) 0.0803(5) 0.0211(2)
C2_15 C 0.8205(8) 0.9993(3) 0.9136(2)
H2_15 H 0.8286 0.9663 0.9155
H3_15 H 0.7349 0.9975 0.8762
C26_15 C 0.1795(8) 0.0007(3) 0.0864(2)
H16_15 H 0.1714 0.0337 0.0845
H17_15 H 0.2651 0.0025 0.1238
O6_8 O 0.1733(5) 0.8776(3) 0.98089(17)
O8_8 O 0.0987(6) 0.9394(3) 0.99845(16)
C37_15 C 0.1497(8) 0.6943(4) 0.9969(2)
H22_15 H 0.1678 0.6640 0.9901
C38_15 C 0.0906(7) 0.7220(4) 0.9788(2)
H23_15 H 0.0667 0.7104 0.9598
C39_16 C 0.0684(8) 0.7660(3) 0.9892(2)
H24_16 H 0.0293 0.7846 0.9767
H6_16 H 0.2740 0.9717 0.8379
C12_16 C 0.3184(7) 0.9626(3) 0.7754(2)
H7_16 H 0.2783 0.9448 0.7881
C13_15 C 0.3503(8) 0.9443(4) 0.7469(2)
H8_15 H 0.3322 0.9140 0.7401
C14_15 C 0.4094(7) 0.9720(4) 0.7288(2)
H9_15 H 0.4333 0.9604 0.7098
C16_16 C 0.2244(6) 0.9995(3) 0.8954(2)
C18_16 C 0.1445(7) 0.9940(4) 0.9450(2)
C19_16 C 0.1753(7) 0.9474(3) 0.9497(2)
C20_16 C 0.2297(7) 0.9264(3) 0.9265(2)
H13_16 H 0.2496 0.8948 0.9287
C21_16 C 0.2547(7) 0.9530(3) 0.8995(2)
H14_16 H 0.2924 0.9390 0.8842
C22_16 C 0.1485(8) 0.9197(5) 0.9789(2)
O10_15 O 0.9507(4) 0.8765(2) 0.05977(13)
C2_16 C 0.4295(8) 0.9993(3) 0.3364(2)
H2_16 H 0.4214 0.9663 0.3345
H3_16 H 0.5151 0.9975 0.3738
Cd2_8 Cd 0.66712(5) 0.88136(2) 0.028356(14)
N4_16 N 0.6044(5) 0.8279(3) 0.06794(15)
N5_16 N 0.5716(5) 0.9215(2) 0.06589(14)
N6_16 N 0.6515(5) 0.9650(3) 0.01622(16)
O10_16 O 0.7993(4) 0.8735(2) 0.05977(13)
C25_16 C 0.6134(7) 0.7796(4) 0.0660(2)
H15_16 H 0.6504 0.7668 0.0501
C26_16 C 0.5705(8) 0.7493(3) 0.0864(2)
H16_16 H 0.5786 0.7163 0.0845
C27_16 C 0.5151(8) 0.7677(4) 0.1097(2)
H17_16 H 0.4849 0.7475 0.1238
C28_16 C 0.5047(7) 0.8166(3) 0.1119(2)
H18_16 H 0.4679 0.8299 0.1277
C29_16 C 0.5494(6) 0.8454(3) 0.0906(2)
C30_16 C 0.5418(6) 0.8993(3) 0.09158(18)
C31_16 C 0.5088(6) 0.9240(3) 0.11776(18)
H19_16 H 0.4916 0.9073 0.1359
C32_16 C 0.5018(7) 0.9732(3) 0.11680(19)
C33_16 C 0.5290(7) 0.9951(3) 0.08961(18)
C34_16 C 0.5642(6) 0.9690(3) 0.06422(18)
C35_16 C 0.5978(7) 0.9920(3) 0.03449(19)
C41_16 C 0.4192(8) 0.9805(3) 0.1680(2)
H25_16 H 0.3977 0.9493 0.1654
H26_16 H 0.3569 0.9916 0.2102
C23_16 C 0.8750 0.8750 0.0462(3)
C24_16 C 0.8750 0.8750 0.0091(3)
C37_16 C 0.6003(8) 0.0557(4) 0.9969(2)
H22_16 H 0.5822 0.0860 0.9901
C38_16 C 0.6594(7) 0.0280(4) 0.9788(2)
H23_16 H 0.6833 0.0396 0.9598
C13_16 C 0.3997(8) 0.9443(4) 0.0031(2)
H8_16 H 0.4178 0.9140 0.0099
C14_16 C 0.3406(7) 0.9720(4) 0.0212(2)
H9_16 H 0.3167 0.9604 0.0402
loop_
_geom_bond_atom_site_label_1
_geom_bond_atom_site_label_2
_geom_bond_site_symmetry_1
_geom_bond_site_symmetry_2
C23 O3 1_555 1_555
C24 O4 1_555 1_555
Cd4 O9 1_555 1_555
O9 C23 1_555 1_555
O11 C24 1_555 1_555
C23 C24 1_555 1_555
Cd4 O11 1_555 1_555
C23_2 O3_2 1_555 1_555
C24_2 O4_2 1_555 1_555
Cd4_2 O9_2 1_555 1_555
O9_2 C23_2 1_555 1_555
O11_2 C24_2 1_555 1_555
C23_2 C24_2 1_555 1_555
Cd4_2 O11_2 1_555 1_555
Cd4_2 N1 1_555 1_555
N1 C1 1_555 1_555
N2 Cd4_2 1_555 1_555
N3 Cd4_2 1_555 1_555
O1 C22 1_555 1_555
O2 C22 1_555 1_555
C1 H1 1_555 1_555
C4 C3 1_555 1_555
H4 C4 1_555 1_555
C5 N1 1_555 1_555
C6 N2 1_555 1_555
C7 C6 1_555 1_555
H5 C7 1_555 1_555
C8 C7 1_555 1_555
C9 C8 1_555 1_555
H6 C9 1_555 1_555
C10 N2 1_555 1_555
C11 N3 1_555 1_555
C12 C11 1_555 1_555
H7 C12 1_555 1_555
C13 C12 1_555 1_555
H8 C13 1_555 1_555
C14 C13 1_555 1_555
H9 C14 1_555 1_555
C15 N3 1_555 1_555
H10 C15 1_555 1_555
C16 C8 1_555 1_555
C17 C16 1_555 1_555
H11 C17 1_555 1_555
C18 C17 1_555 1_555
H12 C18 1_555 1_555
C19 C18 1_555 1_555
C20 C19 1_555 1_555
H13 C20 1_555 1_555
C21 C16 1_555 1_555
H14 C21 1_555 1_555
C22 C19 1_555 1_555
Cd3 O1 1_555 1_555
O5 Cd4_2 1_555 1_555
O7 Cd4_2 1_555 1_555
H21 C36 1_555 1_555
C43 C42 1_555 1_555
C44 C43 1_555 1_555
H27 C44 1_555 1_555
C45 C40 1_555 1_555
H28 C45 1_555 1_555
C46 O5 1_555 1_555
O2 Cd3 1_555 1_555
C4 C5 1_555 1_555
C5 C6 1_555 1_555
C9 C10 1_555 1_555
C10 C11 1_555 1_555
C14 C15 1_555 1_555
C20 C21 1_555 1_555
O7 C46 1_555 1_555
C43 C46 1_555 1_555
C44 C45 1_555 1_555
H24 C39 1_555 1_555
Cd4 N1_2 1_555 1_555
N1_2 C1_2 1_555 1_555
N2_2 Cd4 1_555 1_555
N3_2 Cd4 1_555 1_555
O6 C22_2 1_555 1_555
O8 C22_2 1_555 1_555
C1_2 H1_2 1_555 1_555
C2 C1_2 1_555 1_555
H2 C2 1_555 1_555
C3_2 C2 1_555 1_555
H3 C3_2 1_555 1_555
C4_2 C3_2 1_555 1_555
H4_2 C4_2 1_555 1_555
C5_2 N1_2 1_555 1_555
C6_2 N2_2 1_555 1_555
C7_2 C6_2 1_555 1_555
H5_2 C7_2 1_555 1_555
C8_2 C7_2 1_555 1_555
C9_2 C8_2 1_555 1_555
H6_2 C9_2 1_555 1_555
C10_2 N2_2 1_555 1_555
C11_2 N3_2 1_555 1_555
C12_2 C11_2 1_555 1_555
H7_2 C12_2 1_555 1_555
C13_2 C12_2 1_555 1_555
H8_2 C13_2 1_555 1_555
C14_2 C13_2 1_555 1_555
H9_2 C14_2 1_555 1_555
C15_2 N3_2 1_555 1_555
H10_2 C15_2 1_555 1_555
C16_2 C8_2 1_555 1_555
C17_2 C16_2 1_555 1_555
H11_2 C17_2 1_555 1_555
C18_2 C17_2 1_555 1_555
H12_2 C18_2 1_555 1_555
C19_2 C18_2 1_555 1_555
C20_2 C19_2 1_555 1_555
H13_2 C20_2 1_555 1_555
C21_2 C16_2 1_555 1_555
H14_2 C21_2 1_555 1_555
C22_2 C19_2 1_555 1_555
Cd3 N4 1_555 1_555
N4 C25 1_555 1_555
N5 Cd3 1_555 1_555
N6 Cd3 1_555 1_555
O5_2 Cd4 1_555 1_555
O7_2 Cd4 1_555 1_555
O10_2 Cd3 1_555 1_555
O12_4 Cd3 1_555 1_555
C25 H15 1_555 1_555
C26 C25 1_555 1_555
H16 C26 1_555 1_555
C27 C26 1_555 1_555
H17 C27 1_555 1_555
C28 C27 1_555 1_555
H18 C28 1_555 1_555
C29 N4 1_555 1_555
C30 N5 1_555 1_555
C31 C30 1_555 1_555
H19 C31 1_555 1_555
C32 C31 1_555 1_555
C33 C32 1_555 1_555
H20_2 C33 1_555 1_555
C34 N5 1_555 1_555
C35 N6 1_555 1_555
C36_2 C35 1_555 1_555
H21_2 C36_2 1_555 1_555
C37 C36_2 1_555 1_555
H22 C37 1_555 1_555
C38 C37 1_555 1_555
H23 C38 1_555 1_555
C39_2 N6 1_555 1_555
H24_2 C39_2 1_555 1_555
C40_2 C32 1_555 1_555
C41 C40_2 1_555 1_555
H25 C41 1_555 1_555
C42_2 C41 1_555 1_555
H26 C42_2 1_555 1_555
C43_2 C42_2 1_555 1_555
C44_2 C43_2 1_555 1_555
H27_2 C44_2 1_555 1_555
C45_2 C40_2 1_555 1_555
H28_2 C45_2 1_555 1_555
C46_2 O5_2 1_555 1_555
C4_2 C5_2 1_555 1_555
C5_2 C6_2 1_555 1_555
C9_2 C10_2 1_555 1_555
C10_2 C11_2 1_555 1_555
C14_2 C15_2 1_555 1_555
C20_2 C21_2 1_555 1_555
O7_2 C46_2 1_555 1_555
C28 C29 1_555 1_555
C29 C30 1_555 1_555
C33 C34 1_555 1_555
C34 C35 1_555 1_555
C38 C39_2 1_555 1_555
C43_2 C46_2 1_555 1_555
C44_2 C45_2 1_555 1_555
C23_3 O10 1_555 1_555
C24_3 O12_3 1_555 1_555
O10_2 C23_3 1_555 1_555
O12_4 C24_3 1_555 1_555
C23_3 C24_3 1_555 1_555
H16_2 C26_2 1_555 1_555
Cd1 N1_3 1_555 1_555
N1_3 C1_3 1_555 1_555
N2_3 Cd1 1_555 1_555
N3_3 Cd1 1_555 1_555
O1_2 C22_3 1_555 1_555
O2_2 C22_3 1_555 1_555
C1_3 H1_3 1_555 1_555
C2_2 C1_3 1_555 1_555
H2_2 C2_2 1_555 1_555
C3_3 C2_2 1_555 1_555
H3_2 C3_3 1_555 1_555
C4_3 C3_3 1_555 1_555
H4_3 C4_3 1_555 1_555
C5_3 N1_3 1_555 1_555
C6_3 N2_3 1_555 1_555
C7_3 C6_3 1_555 1_555
H5_3 C7_3 1_555 1_555
C8_3 C7_3 1_555 1_555
C9_3 C8_3 1_555 1_555
H6_3 C9_3 1_555 1_555
C10_3 N2_3 1_555 1_555
C11_3 N3_3 1_555 1_555
C12_3 C11_3 1_555 1_555
H7_3 C12_3 1_555 1_555
C13_3 C12_3 1_555 1_555
H8_3 C13_3 1_555 1_555
C14_3 C13_3 1_555 1_555
H9_3 C14_3 1_555 1_555
C15_3 N3_3 1_555 1_555
H10_3 C15_3 1_555 1_555
C16_3 C8_3 1_555 1_555
C17_3 C16_3 1_555 1_555
H11_3 C17_3 1_555 1_555
C18_3 C17_3 1_555 1_555
H12_3 C18_3 1_555 1_555
C19_3 C18_3 1_555 1_555
C20_3 C19_3 1_555 1_555
H13_3 C20_3 1_555 1_555
C21_3 C16_3 1_555 1_555
H14_3 C21_3 1_555 1_555
C22_3 C19_3 1_555 1_555
Cd2 N4_2 1_555 1_555
N4_2 C25_2 1_555 1_555
N5_2 Cd2 1_555 1_555
N6_2 Cd2 1_555 1_555
O5_3 Cd1 1_555 1_555
O6_2 Cd2 1_555 1_555
O7_3 Cd1 1_555 1_555
O8_2 Cd2 1_555 1_555
O10_3 Cd2 1_555 1_555
O12_5 Cd2 1_555 1_555
C25_2 H15_2 1_555 1_555
C28_2 C27_2 1_555 1_555
H18_2 C28_2 1_555 1_555
C29_2 N4_2 1_555 1_555
C30_2 N5_2 1_555 1_555
C31_2 C30_2 1_555 1_555
H19_2 C31_2 1_555 1_555
C32_2 C31_2 1_555 1_555
C33_2 C32_2 1_555 1_555
H20_3 C33_2 1_555 1_555
C34_2 N5_2 1_555 1_555
C35_2 N6_2 1_555 1_555
C36_3 C35_2 1_555 1_555
H21_3 C36_3 1_555 1_555
C37_2 C36_3 1_555 1_555
H22_2 C37_2 1_555 1_555
C38_2 C37_2 1_555 1_555
H23_2 C38_2 1_555 1_555
C39_3 N6_2 1_555 1_555
H24_3 C39_3 1_555 1_555
C40_3 C32_2 1_555 1_555
C41_2 C40_3 1_555 1_555
H25_2 C41_2 1_555 1_555
C42_3 C41_2 1_555 1_555
H26_2 C42_3 1_555 1_555
C43_3 C42_3 1_555 1_555
C44_3 C43_3 1_555 1_555
H27_3 C44_3 1_555 1_555
C45_3 C40_3 1_555 1_555
H28_3 C45_3 1_555 1_555
C46_3 O5_3 1_555 1_555
C4_3 C5_3 1_555 1_555
C5_3 C6_3 1_555 1_555
C9_3 C10_3 1_555 1_555
C10_3 C11_3 1_555 1_555
C14_3 C15_3 1_555 1_555
C20_3 C21_3 1_555 1_555
O7_3 C46_3 1_555 1_555
C28_2 C29_2 1_555 1_555
C29_2 C30_2 1_555 1_555
C33_2 C34_2 1_555 1_555
C34_2 C35_2 1_555 1_555
C38_2 C39_3 1_555 1_555
C43_3 C46_3 1_555 1_555
C44_3 C45_3 1_555 1_555
O1_3 C22_4 1_555 1_555
O2_3 C22_4 1_555 1_555
C17_4 C16_4 1_555 1_555
H11_4 C17_4 1_555 1_555
C18_4 C17_4 1_555 1_555
H12_4 C18_4 1_555 1_555
C19_4 C18_4 1_555 1_555
C20_4 C19_4 1_555 1_555
H13_4 C20_4 1_555 1_555
C22_4 C19_4 1_555 1_555
H21_4 C36_4 1_555 1_555
C37_3 C36_4 1_555 1_555
H22_3 C37_3 1_555 1_555
C38_3 C37_3 1_555 1_555
H23_3 C38_3 1_555 1_555
H28_4 C45_4 1_555 1_555
Cd2_2 N4_3 1_555 1_555
N4_3 C25_3 1_555 1_555
N5_3 Cd2_2 1_555 1_555
N6_3 Cd2_2 1_555 1_555
O6_3 Cd2_2 1_555 1_555
O8_3 Cd2_2 1_555 1_555
O10_4 Cd2_2 1_555 1_555
O12_6 Cd2_2 1_555 1_555
C25_3 H15_3 1_555 1_555
C26_3 C25_3 1_555 1_555
H16_3 C26_3 1_555 1_555
C27_3 C26_3 1_555 1_555
C28_3 C27_3 1_555 1_555
C29_3 N4_3 1_555 1_555
C30_3 N5_3 1_555 1_555
C31_3 C30_3 1_555 1_555
C32_3 C31_3 1_555 1_555
C33_3 C32_3 1_555 1_555
C34_3 N5_3 1_555 1_555
C35_3 N6_3 1_555 1_555
C39_4 N6_3 1_555 1_555
H24_4 C39_4 1_555 1_555
C28_3 C29_3 1_555 1_555
C29_3 C30_3 1_555 1_555
C33_3 C34_3 1_555 1_555
C34_3 C35_3 1_555 1_555
Cd1_2 N1_4 1_555 1_555
N1_4 C1_4 1_555 1_555
N2_4 Cd1_2 1_555 1_555
N3_4 Cd1_2 1_555 1_555
C1_4 H1_4 1_555 1_555
C2_3 C1_4 1_555 1_555
H2_3 C2_3 1_555 1_555
C3_4 C2_3 1_555 1_555
H3_4 C3_4 1_555 1_555
C4_4 C3_4 1_555 1_555
H4_5 C4_4 1_555 1_555
C5_4 N1_4 1_555 1_555
C6_4 N2_4 1_555 1_555
C7_4 C6_4 1_555 1_555
H5_5 C7_4 1_555 1_555
C8_4 C7_4 1_555 1_555
C9_4 C8_4 1_555 1_555
C10_4 N2_4 1_555 1_555
C11_4 N3_4 1_555 1_555
C15_4 N3_4 1_555 1_555
H10_4 C15_4 1_555 1_555
H11_5 C17_5 1_555 1_555
Cd3_2 N4_4 1_555 1_555
N4_4 C25_4 1_555 1_555
N5_4 Cd3_2 1_555 1_555
N6_4 Cd3_2 1_555 1_555
O5_4 Cd1_2 1_555 1_555
O7_4 Cd1_2 1_555 1_555
O10_5 Cd3_2 1_555 1_555
C25_4 H15_4 1_555 1_555
C26_4 C25_4 1_555 1_555
H16_4 C26_4 1_555 1_555
C27_4 C26_4 1_555 1_555
H17_3 C27_4 1_555 1_555
C28_4 C27_4 1_555 1_555
H18_3 C28_4 1_555 1_555
C29_4 N4_4 1_555 1_555
C30_4 N5_4 1_555 1_555
C31_4 C30_4 1_555 1_555
H19_3 C31_4 1_555 1_555
C32_4 C31_4 1_555 1_555
C33_4 C32_4 1_555 1_555
H20_5 C33_4 1_555 1_555
C34_4 N5_4 1_555 1_555
C35_4 N6_4 1_555 1_555
C36_5 C35_4 1_555 1_555
H21_5 C36_5 1_555 1_555
C40_4 C32_4 1_555 1_555
C41_3 C40_4 1_555 1_555
H25_3 C41_3 1_555 1_555
C42_4 C41_3 1_555 1_555
H26_3 C42_4 1_555 1_555
C43_4 C42_4 1_555 1_555
C44_4 C43_4 1_555 1_555
H27_4 C44_4 1_555 1_555
C45_5 C40_4 1_555 1_555
H28_5 C45_5 1_555 1_555
C46_4 O5_4 1_555 1_555
C4_4 C5_4 1_555 1_555
C5_4 C6_4 1_555 1_555
C9_4 C10_4 1_555 1_555
C10_4 C11_4 1_555 1_555
O7_4 C46_4 1_555 1_555
C28_4 C29_4 1_555 1_555
C29_4 C30_4 1_555 1_555
C33_4 C34_4 1_555 1_555
C34_4 C35_4 1_555 1_555
C43_4 C46_4 1_555 1_555
C44_4 C45_5 1_555 1_555
H22_4 C37_4 1_555 1_555
C38_4 C37_4 1_555 1_555
H23_4 C38_4 1_555 1_555
H24_5 C39_5 1_555 1_555
C38_4 C39_5 1_555 1_555
O6_2 C22_5 1_555 1_555
O8_2 C22_5 1_555 1_555
H7_4 C12_4 1_555 1_555
C13_4 C12_4 1_555 1_555
H8_4 C13_4 1_555 1_555
C14_4 C13_4 1_555 1_555
H9_4 C14_4 1_555 1_555
C19_5 C18_5 1_555 1_555
C20_5 C19_5 1_555 1_555
H13_5 C20_5 1_555 1_555
C21_4 C16_5 1_555 1_555
H14_4 C21_4 1_555 1_555
C22_5 C19_5 1_555 1_555
C20_5 C21_4 1_555 1_555
O6_3 C22_6 1_555 1_555
O8_3 C22_6 1_555 1_555
C17_6 C16_6 1_555 1_555
H11_6 C17_6 1_555 1_555
C18_6 C17_6 1_555 1_555
H12_6 C18_6 1_555 1_555
C19_6 C18_6 1_555 1_555
C20_6 C19_6 1_555 1_555
H13_6 C20_6 1_555 1_555
C22_6 C19_6 1_555 1_555
Cd3_3 N4_5 1_555 1_555
N4_5 C25_5 1_555 1_555
N5_5 Cd3_3 1_555 1_555
N6_5 Cd3_3 1_555 1_555
O10_6 Cd3_3 1_555 1_555
C25_5 H15_5 1_555 1_555
C26_5 C25_5 1_555 1_555
H16_5 C26_5 1_555 1_555
C27_5 C26_5 1_555 1_555
C28_5 C27_5 1_555 1_555
C29_5 N4_5 1_555 1_555
C30_5 N5_5 1_555 1_555
C31_5 C30_5 1_555 1_555
C32_5 C31_5 1_555 1_555
C33_5 C32_5 1_555 1_555
H20_6 C33_5 1_555 1_555
C34_5 N5_5 1_555 1_555
C35_5 N6_5 1_555 1_555
C36_6 C35_5 1_555 1_555
H21_6 C36_6 1_555 1_555
H28_6 C45_6 1_555 1_555
C28_5 C29_5 1_555 1_555
C29_5 C30_5 1_555 1_555
C33_5 C34_5 1_555 1_555
C34_5 C35_5 1_555 1_555
H22_5 C37_5 1_555 1_555
C38_5 C37_5 1_555 1_555
H23_5 C38_5 1_555 1_555
H24_6 C39_6 1_555 1_555
C38_5 C39_6 1_555 1_555
C23_4 O10_6 1_555 1_555
O10_5 C23_4 1_555 1_555
C23_4 C24_4 1_555 1_555
C23_5 O10_4 1_555 1_555
C24_5 O12_6 1_555 1_555
O10_3 C23_5 1_555 1_555
O12_5 C24_5 1_555 1_555
C23_5 C24_5 1_555 1_555
Cd1_3 N1_5 1_555 1_555
N1_5 C1_5 1_555 1_555
N2_5 Cd1_3 1_555 1_555
N3_5 Cd1_3 1_555 1_555
O3_3 Cd1_3 1_555 1_555
O4_3 Cd1_3 1_555 1_555
C1_5 H1_5 1_555 1_555
C4_5 C3_5 1_555 1_555
C5_5 N1_5 1_555 1_555
C6_5 N2_5 1_555 1_555
C7_5 C6_5 1_555 1_555
C8_5 C7_5 1_555 1_555
C9_5 C8_5 1_555 1_555
H6_5 C9_5 1_555 1_555
C10_5 N2_5 1_555 1_555
C11_5 N3_5 1_555 1_555
C12_5 C11_5 1_555 1_555
H7_5 C12_5 1_555 1_555
C13_5 C12_5 1_555 1_555
H8_5 C13_5 1_555 1_555
C14_5 C13_5 1_555 1_555
H9_5 C14_5 1_555 1_555
C15_5 N3_5 1_555 1_555
H10_5 C15_5 1_555 1_555
H14_5 C21_5 1_555 1_555
C23_6 O3_3 1_555 1_555
C24_6 O4_3 1_555 1_555
Cd4_3 O9_3 1_555 1_555
O5_5 Cd1_3 1_555 1_555
O7_5 Cd1_3 1_555 1_555
O9_3 C23_6 1_555 1_555
O11_3 C24_6 1_555 1_555
C43_5 C42_5 1_555 1_555
C44_5 C43_5 1_555 1_555
H27_5 C44_5 1_555 1_555
C46_5 O5_5 1_555 1_555
C4_5 C5_5 1_555 1_555
C5_5 C6_5 1_555 1_555
C9_5 C10_5 1_555 1_555
C10_5 C11_5 1_555 1_555
C14_5 C15_5 1_555 1_555
C23_6 C24_6 1_555 1_555
Cd4_3 O11_3 1_555 1_555
O7_5 C46_5 1_555 1_555
C43_5 C46_5 1_555 1_555
H2_4 C2_4 1_555 1_555
H25_4 C41_4 1_555 1_555
Cd1_4 N1_6 1_555 1_555
N1_6 C1_6 1_555 1_555
N2_6 Cd1_4 1_555 1_555
N3_6 Cd1_4 1_555 1_555
O3_4 Cd1_4 1_555 1_555
O4_4 Cd1_4 1_555 1_555
C1_6 H1_6 1_555 1_555
C2_5 C1_6 1_555 1_555
H2_5 C2_5 1_555 1_555
C3_6 C2_5 1_555 1_555
C4_6 C3_6 1_555 1_555
C5_6 N1_6 1_555 1_555
C6_6 N2_6 1_555 1_555
C7_6 C6_6 1_555 1_555
C8_6 C7_6 1_555 1_555
C9_6 C8_6 1_555 1_555
H6_6 C9_6 1_555 1_555
C10_6 N2_6 1_555 1_555
C11_6 N3_6 1_555 1_555
C12_6 C11_6 1_555 1_555
H7_6 C12_6 1_555 1_555
C13_6 C12_6 1_555 1_555
H8_6 C13_6 1_555 1_555
C14_6 C13_6 1_555 1_555
H9_6 C14_6 1_555 1_555
C15_6 N3_6 1_555 1_555
H10_6 C15_6 1_555 1_555
H14_6 C21_6 1_555 1_555
C23_7 O3_4 1_555 1_555
C24_7 O4_4 1_555 1_555
Cd4_4 O9_4 1_555 1_555
O5_6 Cd1_4 1_555 1_555
O7_6 Cd1_4 1_555 1_555
O9_4 C23_7 1_555 1_555
O11_4 C24_7 1_555 1_555
C41_5 C40_6 1_555 1_555
H25_5 C41_5 1_555 1_555
C42_6 C41_5 1_555 1_555
H26_5 C42_6 1_555 1_555
C43_6 C42_6 1_555 1_555
C44_6 C43_6 1_555 1_555
H27_6 C44_6 1_555 1_555
C46_6 O5_6 1_555 1_555
C4_6 C5_6 1_555 1_555
C5_6 C6_6 1_555 1_555
C9_6 C10_6 1_555 1_555
C10_6 C11_6 1_555 1_555
C14_6 C15_6 1_555 1_555
C23_7 C24_7 1_555 1_555
Cd4_4 O11_4 1_555 1_555
O7_6 C46_6 1_555 1_555
C43_6 C46_6 1_555 1_555
Cd4_4 N1_7 1_555 1_555
N1_7 C1_7 1_555 1_555
N2_7 Cd4_4 1_555 1_555
N3_7 Cd4_4 1_555 1_555
O1_4 C22_7 1_555 1_555
O2_4 C22_7 1_555 1_555
C1_7 H1_7 1_555 1_555
C2_6 C1_7 1_555 1_555
H2_6 C2_6 1_555 1_555
C3_7 C2_6 1_555 1_555
H3_6 C3_7 1_555 1_555
C4_7 C3_7 1_555 1_555
H4_7 C4_7 1_555 1_555
C5_7 N1_7 1_555 1_555
C6_7 N2_7 1_555 1_555
C7_7 C6_7 1_555 1_555
H5_7 C7_7 1_555 1_555
C8_7 C7_7 1_555 1_555
C9_7 C8_7 1_555 1_555
H6_7 C9_7 1_555 1_555
C10_7 N2_7 1_555 1_555
C11_7 N3_7 1_555 1_555
C12_7 C11_7 1_555 1_555
H7_7 C12_7 1_555 1_555
C13_7 C12_7 1_555 1_555
H8_7 C13_7 1_555 1_555
C14_7 C13_7 1_555 1_555
H9_7 C14_7 1_555 1_555
C15_7 N3_7 1_555 1_555
H10_7 C15_7 1_555 1_555
C16_7 C8_7 1_555 1_555
C17_7 C16_7 1_555 1_555
H11_7 C17_7 1_555 1_555
C18_7 C17_7 1_555 1_555
H12_7 C18_7 1_555 1_555
C19_7 C18_7 1_555 1_555
C20_7 C19_7 1_555 1_555
H13_7 C20_7 1_555 1_555
C21_7 C16_7 1_555 1_555
H14_7 C21_7 1_555 1_555
C22_7 C19_7 1_555 1_555
Cd2_3 N4_6 1_555 1_555
Cd3_4 O1_4 1_555 1_555
N4_6 C25_6 1_555 1_555
N5_6 Cd2_3 1_555 1_555
N6_6 Cd2_3 1_555 1_555
O5_7 Cd4_4 1_555 1_555
O7_7 Cd4_4 1_555 1_555
C25_6 H15_6 1_555 1_555
C28_6 C27_6 1_555 1_555
H18_6 C28_6 1_555 1_555
C29_6 N4_6 1_555 1_555
C30_6 N5_6 1_555 1_555
C31_6 C30_6 1_555 1_555
H19_6 C31_6 1_555 1_555
C32_6 C31_6 1_555 1_555
C33_6 C32_6 1_555 1_555
H20_7 C33_6 1_555 1_555
C34_6 N5_6 1_555 1_555
C35_6 N6_6 1_555 1_555
C36_7 C35_6 1_555 1_555
H21_7 C36_7 1_555 1_555
C40_7 C32_6 1_555 1_555
C41_6 C40_7 1_555 1_555
H25_6 C41_6 1_555 1_555
C42_7 C41_6 1_555 1_555
H26_6 C42_7 1_555 1_555
C43_7 C42_7 1_555 1_555
C44_7 C43_7 1_555 1_555
H27_7 C44_7 1_555 1_555
C45_7 C40_7 1_555 1_555
H28_7 C45_7 1_555 1_555
C46_7 O5_7 1_555 1_555
O2_4 Cd3_4 1_555 1_555
C4_7 C5_7 1_555 1_555
C5_7 C6_7 1_555 1_555
C9_7 C10_7 1_555 1_555
C10_7 C11_7 1_555 1_555
C14_7 C15_7 1_555 1_555
C20_7 C21_7 1_555 1_555
O7_7 C46_7 1_555 1_555
C28_6 C29_6 1_555 1_555
C29_6 C30_6 1_555 1_555
C33_6 C34_6 1_555 1_555
C34_6 C35_6 1_555 1_555
C43_7 C46_7 1_555 1_555
C44_7 C45_7 1_555 1_555
Cd4_3 N1_8 1_555 1_555
N1_8 C1_8 1_555 1_555
N2_8 Cd4_3 1_555 1_555
N3_8 Cd4_3 1_555 1_555
C1_8 H1_8 1_555 1_555
C2_7 C1_8 1_555 1_555
H2_7 C2_7 1_555 1_555
C3_8 C2_7 1_555 1_555
H3_7 C3_8 1_555 1_555
C4_8 C3_8 1_555 1_555
H4_8 C4_8 1_555 1_555
C5_8 N1_8 1_555 1_555
C6_8 N2_8 1_555 1_555
C7_8 C6_8 1_555 1_555
H5_8 C7_8 1_555 1_555
C8_8 C7_8 1_555 1_555
C9_8 C8_8 1_555 1_555
C10_8 N2_8 1_555 1_555
C11_8 N3_8 1_555 1_555
C15_8 N3_8 1_555 1_555
H10_8 C15_8 1_555 1_555
H11_8 C17_8 1_555 1_555
Cd3_4 N4_7 1_555 1_555
N4_7 C25_7 1_555 1_555
N5_7 Cd3_4 1_555 1_555
N6_7 Cd3_4 1_555 1_555
O5_8 Cd4_3 1_555 1_555
O7_8 Cd4_3 1_555 1_555
C25_7 H15_7 1_555 1_555
C26_6 C25_7 1_555 1_555
H16_6 C26_6 1_555 1_555
C27_7 C26_6 1_555 1_555
H17_6 C27_7 1_555 1_555
C28_7 C27_7 1_555 1_555
H18_7 C28_7 1_555 1_555
C29_7 N4_7 1_555 1_555
C30_7 N5_7 1_555 1_555
C31_7 C30_7 1_555 1_555
H19_7 C31_7 1_555 1_555
C32_7 C31_7 1_555 1_555
C33_7 C32_7 1_555 1_555
H20_8 C33_7 1_555 1_555
C34_7 N5_7 1_555 1_555
C35_7 N6_7 1_555 1_555
C36_8 C35_7 1_555 1_555
H21_8 C36_8 1_555 1_555
C37_6 C36_8 1_555 1_555
H22_6 C37_6 1_555 1_555
C38_6 C37_6 1_555 1_555
H23_6 C38_6 1_555 1_555
C39_7 N6_7 1_555 1_555
H24_7 C39_7 1_555 1_555
C40_8 C32_7 1_555 1_555
C41_7 C40_8 1_555 1_555
H25_7 C41_7 1_555 1_555
C42_8 C41_7 1_555 1_555
H26_7 C42_8 1_555 1_555
C43_8 C42_8 1_555 1_555
C44_8 C43_8 1_555 1_555
H27_8 C44_8 1_555 1_555
C45_8 C40_8 1_555 1_555
H28_8 C45_8 1_555 1_555
C46_8 O5_8 1_555 1_555
C4_8 C5_8 1_555 1_555
C5_8 C6_8 1_555 1_555
C9_8 C10_8 1_555 1_555
C10_8 C11_8 1_555 1_555
O7_8 C46_8 1_555 1_555
C28_7 C29_7 1_555 1_555
C29_7 C30_7 1_555 1_555
C33_7 C34_7 1_555 1_555
C34_7 C35_7 1_555 1_555
C38_6 C39_7 1_555 1_555
C43_8 C46_8 1_555 1_555
C44_8 C45_8 1_555 1_555
H16_7 C26_7 1_555 1_555
Cd2_4 N4_8 1_555 1_555
N4_8 C25_8 1_555 1_555
N5_8 Cd2_4 1_555 1_555
N6_8 Cd2_4 1_555 1_555
O6_4 Cd2_4 1_555 1_555
O8_4 Cd2_4 1_555 1_555
O10_7 Cd2_4 1_555 1_555
O12_9 Cd2_4 1_555 1_555
C25_8 H15_8 1_555 1_555
C28_8 C27_8 1_555 1_555
C29_8 N4_8 1_555 1_555
C30_8 N5_8 1_555 1_555
C31_8 C30_8 1_555 1_555
C32_8 C31_8 1_555 1_555
C33_8 C32_8 1_555 1_555
H20_9 C33_8 1_555 1_555
C34_8 N5_8 1_555 1_555
C35_8 N6_8 1_555 1_555
C36_9 C35_8 1_555 1_555
H21_9 C36_9 1_555 1_555
C37_7 C36_9 1_555 1_555
H22_7 C37_7 1_555 1_555
C38_7 C37_7 1_555 1_555
H23_7 C38_7 1_555 1_555
C39_8 N6_8 1_555 1_555
H24_8 C39_8 1_555 1_555
H28_9 C45_9 1_555 1_555
C28_8 C29_8 1_555 1_555
C29_8 C30_8 1_555 1_555
C33_8 C34_8 1_555 1_555
C34_8 C35_8 1_555 1_555
C38_7 C39_8 1_555 1_555
O1_5 C22_8 1_555 1_555
O2_5 C22_8 1_555 1_555
C17_9 C16_8 1_555 1_555
H11_9 C17_9 1_555 1_555
C18_8 C17_9 1_555 1_555
H12_9 C18_8 1_555 1_555
C19_8 C18_8 1_555 1_555
C20_8 C19_8 1_555 1_555
H13_8 C20_8 1_555 1_555
C22_8 C19_8 1_555 1_555
Cd3_5 O1_5 1_555 1_555
O2_5 Cd3_5 1_555 1_555
Cd1_5 N1_9 1_555 1_555
N1_9 C1_9 1_555 1_555
N2_9 Cd1_5 1_555 1_555
N3_9 Cd1_5 1_555 1_555
O1_6 C22_9 1_555 1_555
O2_6 C22_9 1_555 1_555
C1_9 H1_9 1_555 1_555
C4_9 C3_9 1_555 1_555
H4_10 C4_9 1_555 1_555
C5_9 N1_9 1_555 1_555
C6_9 N2_9 1_555 1_555
C7_9 C6_9 1_555 1_555
H5_10 C7_9 1_555 1_555
C8_9 C7_9 1_555 1_555
C9_9 C8_9 1_555 1_555
H6_8 C9_9 1_555 1_555
C10_9 N2_9 1_555 1_555
C11_9 N3_9 1_555 1_555
C12_8 C11_9 1_555 1_555
H7_8 C12_8 1_555 1_555
C16_9 C8_9 1_555 1_555
C17_10 C16_9 1_555 1_555
H11_10 C17_10 1_555 1_555
C18_9 C17_10 1_555 1_555
H12_10 C18_9 1_555 1_555
C19_9 C18_9 1_555 1_555
C20_9 C19_9 1_555 1_555
H13_9 C20_9 1_555 1_555
C21_8 C16_9 1_555 1_555
H14_8 C21_8 1_555 1_555
C22_9 C19_9 1_555 1_555
Cd3_6 O1_6 1_555 1_555
O2_6 Cd3_6 1_555 1_555
C4_9 C5_9 1_555 1_555
C5_9 C6_9 1_555 1_555
C9_9 C10_9 1_555 1_555
C10_9 C11_9 1_555 1_555
C20_9 C21_8 1_555 1_555
Cd2_5 N4_9 1_555 1_555
N4_9 C25_9 1_555 1_555
N5_9 Cd2_5 1_555 1_555
N6_9 Cd2_5 1_555 1_555
O6_5 Cd2_5 1_555 1_555
O8_5 Cd2_5 1_555 1_555
O10_8 Cd2_5 1_555 1_555
O12_10 Cd2_5 1_555 1_555
C25_9 H15_9 1_555 1_555
C26_8 C25_9 1_555 1_555
H16_8 C26_8 1_555 1_555
C27_9 C26_8 1_555 1_555
H17_7 C27_9 1_555 1_555
C28_9 C27_9 1_555 1_555
H18_8 C28_9 1_555 1_555
C29_9 N4_9 1_555 1_555
C30_9 N5_9 1_555 1_555
C31_9 C30_9 1_555 1_555
H19_8 C31_9 1_555 1_555
C32_9 C31_9 1_555 1_555
C33_9 C32_9 1_555 1_555
C34_9 N5_9 1_555 1_555
C35_9 N6_9 1_555 1_555
C39_9 N6_9 1_555 1_555
H24_9 C39_9 1_555 1_555
H25_8 C41_8 1_555 1_555
C28_9 C29_9 1_555 1_555
C29_9 C30_9 1_555 1_555
C33_9 C34_9 1_555 1_555
C34_9 C35_9 1_555 1_555
H11_11 C17_11 1_555 1_555
Cd3_5 N4_10 1_555 1_555
N4_10 C25_10 1_555 1_555
N5_10 Cd3_5 1_555 1_555
N6_10 Cd3_5 1_555 1_555
O10_9 Cd3_5 1_555 1_555
O12_11 Cd3_5 1_555 1_555
C25_10 H15_10 1_555 1_555
C26_9 C25_10 1_555 1_555
H16_9 C26_9 1_555 1_555
C27_10 C26_9 1_555 1_555
C28_10 C27_10 1_555 1_555
C29_10 N4_10 1_555 1_555
C30_10 N5_10 1_555 1_555
C31_10 C30_10 1_555 1_555
C32_10 C31_10 1_555 1_555
C33_10 C32_10 1_555 1_555
H20_10 C33_10 1_555 1_555
C34_10 N5_10 1_555 1_555
C35_10 N6_10 1_555 1_555
C36_10 C35_10 1_555 1_555
H21_10 C36_10 1_555 1_555
C37_8 C36_10 1_555 1_555
H22_8 C37_8 1_555 1_555
C38_8 C37_8 1_555 1_555
H23_8 C38_8 1_555 1_555
C39_10 N6_10 1_555 1_555
H24_10 C39_10 1_555 1_555
H28_10 C45_10 1_555 1_555
C28_10 C29_10 1_555 1_555
C29_10 C30_10 1_555 1_555
C33_10 C34_10 1_555 1_555
C34_10 C35_10 1_555 1_555
C38_8 C39_10 1_555 1_555
O6_4 C22_10 1_555 1_555
O8_4 C22_10 1_555 1_555
C19_10 C18_10 1_555 1_555
C20_10 C19_10 1_555 1_555
H13_10 C20_10 1_555 1_555
C22_10 C19_10 1_555 1_555
Cd1_6 N1_10 1_555 1_555
N1_10 C1_10 1_555 1_555
N2_10 Cd1_6 1_555 1_555
N3_10 Cd1_6 1_555 1_555
O6_5 C22_11 1_555 1_555
O8_5 C22_11 1_555 1_555
C1_10 H1_10 1_555 1_555
C2_8 C1_10 1_555 1_555
H2_8 C2_8 1_555 1_555
C3_10 C2_8 1_555 1_555
H3_10 C3_10 1_555 1_555
C4_10 C3_10 1_555 1_555
H4_12 C4_10 1_555 1_555
C5_10 N1_10 1_555 1_555
C6_10 N2_10 1_555 1_555
C7_10 C6_10 1_555 1_555
H5_12 C7_10 1_555 1_555
C8_10 C7_10 1_555 1_555
C9_10 C8_10 1_555 1_555
H6_9 C9_10 1_555 1_555
C10_10 N2_10 1_555 1_555
C11_10 N3_10 1_555 1_555
C12_9 C11_10 1_555 1_555
H7_9 C12_9 1_555 1_555
C13_8 C12_9 1_555 1_555
H8_8 C13_8 1_555 1_555
C14_8 C13_8 1_555 1_555
H9_8 C14_8 1_555 1_555
C15_9 N3_10 1_555 1_555
H10_9 C15_9 1_555 1_555
C16_11 C8_10 1_555 1_555
C17_12 C16_11 1_555 1_555
H11_12 C17_12 1_555 1_555
C18_11 C17_12 1_555 1_555
H12_12 C18_11 1_555 1_555
C19_11 C18_11 1_555 1_555
C20_11 C19_11 1_555 1_555
H13_11 C20_11 1_555 1_555
C21_9 C16_11 1_555 1_555
H14_9 C21_9 1_555 1_555
C22_11 C19_11 1_555 1_555
Cd3_6 N4_11 1_555 1_555
N4_11 C25_11 1_555 1_555
N5_11 Cd3_6 1_555 1_555
N6_11 Cd3_6 1_555 1_555
O5_9 Cd1_6 1_555 1_555
O7_9 Cd1_6 1_555 1_555
O10_10 Cd3_6 1_555 1_555
O12_12 Cd3_6 1_555 1_555
C25_11 H15_11 1_555 1_555
C26_10 C25_11 1_555 1_555
H16_10 C26_10 1_555 1_555
C27_11 C26_10 1_555 1_555
H17_8 C27_11 1_555 1_555
C28_11 C27_11 1_555 1_555
H18_9 C28_11 1_555 1_555
C29_11 N4_11 1_555 1_555
C30_11 N5_11 1_555 1_555
C31_11 C30_11 1_555 1_555
H19_9 C31_11 1_555 1_555
C32_11 C31_11 1_555 1_555
C33_11 C32_11 1_555 1_555
H20_11 C33_11 1_555 1_555
C34_11 N5_11 1_555 1_555
C35_11 N6_11 1_555 1_555
C36_11 C35_11 1_555 1_555
H21_11 C36_11 1_555 1_555
C37_9 C36_11 1_555 1_555
H22_9 C37_9 1_555 1_555
C38_9 C37_9 1_555 1_555
H23_9 C38_9 1_555 1_555
C39_11 N6_11 1_555 1_555
H24_11 C39_11 1_555 1_555
C40_9 C32_11 1_555 1_555
C41_9 C40_9 1_555 1_555
H25_9 C41_9 1_555 1_555
C42_9 C41_9 1_555 1_555
H26_9 C42_9 1_555 1_555
C43_9 C42_9 1_555 1_555
C44_9 C43_9 1_555 1_555
H27_9 C44_9 1_555 1_555
C45_11 C40_9 1_555 1_555
H28_11 C45_11 1_555 1_555
C46_9 O5_9 1_555 1_555
C4_10 C5_10 1_555 1_555
C5_10 C6_10 1_555 1_555
C9_10 C10_10 1_555 1_555
C10_10 C11_10 1_555 1_555
C14_8 C15_9 1_555 1_555
C20_11 C21_9 1_555 1_555
O7_9 C46_9 1_555 1_555
C28_11 C29_11 1_555 1_555
C29_11 C30_11 1_555 1_555
C33_11 C34_11 1_555 1_555
C34_11 C35_11 1_555 1_555
C38_9 C39_11 1_555 1_555
C43_9 C46_9 1_555 1_555
C44_9 C45_11 1_555 1_555
C23_8 O10_7 1_555 1_555
C24_8 O12_9 1_555 1_555
O10_8 C23_8 1_555 1_555
O12_10 C24_8 1_555 1_555
C23_8 C24_8 1_555 1_555
C23_9 O10_9 1_555 1_555
C24_9 O12_11 1_555 1_555
O10_10 C23_9 1_555 1_555
O12_12 C24_9 1_555 1_555
C23_9 C24_9 1_555 1_555
H8_9 C13_9 1_555 1_555
C14_9 C13_9 1_555 1_555
H9_9 C14_9 1_555 1_555
H10_10 C15_10 1_555 1_555
C41_10 C40_10 1_555 1_555
H25_10 C41_10 1_555 1_555
C42_10 C41_10 1_555 1_555
H26_10 C42_10 1_555 1_555
C43_10 C42_10 1_555 1_555
C44_10 C43_10 1_555 1_555
H27_10 C44_10 1_555 1_555
C46_10 O5_10 1_555 1_555
C14_9 C15_10 1_555 1_555
O7_10 C46_10 1_555 1_555
C43_10 C46_10 1_555 1_555
Cd1_7 N1_11 1_555 1_555
N1_11 C1_11 1_555 1_555
N2_11 Cd1_7 1_555 1_555
N3_11 Cd1_7 1_555 1_555
O3_5 Cd1_7 1_555 1_555
C1_11 H1_11 1_555 1_555
C2_9 C1_11 1_555 1_555
H2_9 C2_9 1_555 1_555
C3_11 C2_9 1_555 1_555
C4_11 C3_11 1_555 1_555
C5_11 N1_11 1_555 1_555
C6_11 N2_11 1_555 1_555
C7_11 C6_11 1_555 1_555
C8_11 C7_11 1_555 1_555
C9_11 C8_11 1_555 1_555
H6_10 C9_11 1_555 1_555
C10_11 N2_11 1_555 1_555
C11_11 N3_11 1_555 1_555
C12_10 C11_11 1_555 1_555
H7_10 C12_10 1_555 1_555
H14_10 C21_10 1_555 1_555
C23_10 O3_5 1_555 1_555
Cd4_5 O9_5 1_555 1_555
O9_5 C23_10 1_555 1_555
C4_11 C5_11 1_555 1_555
C5_11 C6_11 1_555 1_555
C9_11 C10_11 1_555 1_555
C10_11 C11_11 1_555 1_555
C23_10 C24_10 1_555 1_555
Cd1_8 N1_12 1_555 1_555
N1_12 C1_12 1_555 1_555
N2_12 Cd1_8 1_555 1_555
N3_12 Cd1_8 1_555 1_555
O3_6 Cd1_8 1_555 1_555
O4_6 Cd1_8 1_555 1_555
C1_12 H1_12 1_555 1_555
C2_10 C1_12 1_555 1_555
H2_10 C2_10 1_555 1_555
C3_12 C2_10 1_555 1_555
C4_12 C3_12 1_555 1_555
C5_12 N1_12 1_555 1_555
C6_12 N2_12 1_555 1_555
C7_12 C6_12 1_555 1_555
C8_12 C7_12 1_555 1_555
C9_12 C8_12 1_555 1_555
C10_12 N2_12 1_555 1_555
C11_12 N3_12 1_555 1_555
C15_11 N3_12 1_555 1_555
H10_11 C15_11 1_555 1_555
C23_11 O3_6 1_555 1_555
C24_11 O4_6 1_555 1_555
Cd4_6 O9_6 1_555 1_555
O5_11 Cd1_8 1_555 1_555
O7_11 Cd1_8 1_555 1_555
O9_6 C23_11 1_555 1_555
O11_6 C24_11 1_555 1_555
C41_11 C40_11 1_555 1_555
H25_11 C41_11 1_555 1_555
C42_11 C41_11 1_555 1_555
H26_11 C42_11 1_555 1_555
C43_11 C42_11 1_555 1_555
C44_11 C43_11 1_555 1_555
H27_11 C44_11 1_555 1_555
C46_11 O5_11 1_555 1_555
C4_12 C5_12 1_555 1_555
C5_12 C6_12 1_555 1_555
C9_12 C10_12 1_555 1_555
C10_12 C11_12 1_555 1_555
C23_11 C24_11 1_555 1_555
Cd4_6 O11_6 1_555 1_555
O7_11 C46_11 1_555 1_555
C43_11 C46_11 1_555 1_555
H7_11 C12_11 1_555 1_555
C13_10 C12_11 1_555 1_555
H8_10 C13_10 1_555 1_555
C14_10 C13_10 1_555 1_555
H9_10 C14_10 1_555 1_555
H14_11 C21_11 1_555 1_555
Cd4_6 N1_13 1_555 1_555
N1_13 C1_13 1_555 1_555
N2_13 Cd4_6 1_555 1_555
N3_13 Cd4_6 1_555 1_555
O1_7 C22_12 1_555 1_555
O2_7 C22_12 1_555 1_555
C1_13 H1_13 1_555 1_555
C4_13 C3_13 1_555 1_555
H4_13 C4_13 1_555 1_555
C5_13 N1_13 1_555 1_555
C6_13 N2_13 1_555 1_555
C7_13 C6_13 1_555 1_555
H5_13 C7_13 1_555 1_555
C8_13 C7_13 1_555 1_555
C9_13 C8_13 1_555 1_555
H6_12 C9_13 1_555 1_555
C10_13 N2_13 1_555 1_555
C11_13 N3_13 1_555 1_555
C12_12 C11_13 1_555 1_555
H7_12 C12_12 1_555 1_555
C13_11 C12_12 1_555 1_555
H8_11 C13_11 1_555 1_555
C14_11 C13_11 1_555 1_555
H9_11 C14_11 1_555 1_555
C15_12 N3_13 1_555 1_555
H10_12 C15_12 1_555 1_555
C16_12 C8_13 1_555 1_555
C17_13 C16_12 1_555 1_555
H11_13 C17_13 1_555 1_555
C18_12 C17_13 1_555 1_555
H12_13 C18_12 1_555 1_555
C19_12 C18_12 1_555 1_555
C20_12 C19_12 1_555 1_555
H13_12 C20_12 1_555 1_555
C21_12 C16_12 1_555 1_555
H14_12 C21_12 1_555 1_555
C22_12 C19_12 1_555 1_555
Cd3_7 O1_7 1_555 1_555
O5_12 Cd4_6 1_555 1_555
O7_12 Cd4_6 1_555 1_555
H21_12 C36_12 1_555 1_555
C37_10 C36_12 1_555 1_555
H22_10 C37_10 1_555 1_555
C38_10 C37_10 1_555 1_555
H23_10 C38_10 1_555 1_555
C43_12 C42_12 1_555 1_555
C44_12 C43_12 1_555 1_555
H27_12 C44_12 1_555 1_555
C45_12 C40_12 1_555 1_555
H28_12 C45_12 1_555 1_555
C46_12 O5_12 1_555 1_555
O2_7 Cd3_7 1_555 1_555
C4_13 C5_13 1_555 1_555
C5_13 C6_13 1_555 1_555
C9_13 C10_13 1_555 1_555
C10_13 C11_13 1_555 1_555
C14_11 C15_12 1_555 1_555
C20_12 C21_12 1_555 1_555
O7_12 C46_12 1_555 1_555
C43_12 C46_12 1_555 1_555
C44_12 C45_12 1_555 1_555
H2_11 C2_11 1_555 1_555
Cd2_6 N4_12 1_555 1_555
N4_12 C25_12 1_555 1_555
N5_12 Cd2_6 1_555 1_555
N6_12 Cd2_6 1_555 1_555
O6_6 Cd2_6 1_555 1_555
O8_6 Cd2_6 1_555 1_555
C25_12 H15_12 1_555 1_555
C26_11 C25_12 1_555 1_555
H16_11 C26_11 1_555 1_555
C27_12 C26_11 1_555 1_555
H17_11 C27_12 1_555 1_555
C28_12 C27_12 1_555 1_555
H18_12 C28_12 1_555 1_555
C29_12 N4_12 1_555 1_555
C30_12 N5_12 1_555 1_555
C31_12 C30_12 1_555 1_555
H19_12 C31_12 1_555 1_555
C32_12 C31_12 1_555 1_555
C33_12 C32_12 1_555 1_555
C34_12 N5_12 1_555 1_555
C35_12 N6_12 1_555 1_555
C39_12 N6_12 1_555 1_555
H24_12 C39_12 1_555 1_555
H25_12 C41_12 1_555 1_555
C28_12 C29_12 1_555 1_555
C29_12 C30_12 1_555 1_555
C33_12 C34_12 1_555 1_555
C34_12 C35_12 1_555 1_555
H8_12 C13_12 1_555 1_555
C14_12 C13_12 1_555 1_555
H9_12 C14_12 1_555 1_555
H10_13 C15_13 1_555 1_555
Cd3_7 N4_13 1_555 1_555
N4_13 C25_13 1_555 1_555
N5_13 Cd3_7 1_555 1_555
N6_13 Cd3_7 1_555 1_555
C25_13 H15_13 1_555 1_555
C26_12 C25_13 1_555 1_555
H16_12 C26_12 1_555 1_555
C27_13 C26_12 1_555 1_555
H17_12 C27_13 1_555 1_555
C28_13 C27_13 1_555 1_555
H18_13 C28_13 1_555 1_555
C29_13 N4_13 1_555 1_555
C30_13 N5_13 1_555 1_555
C31_13 C30_13 1_555 1_555
H19_13 C31_13 1_555 1_555
C32_13 C31_13 1_555 1_555
C33_13 C32_13 1_555 1_555
H20_13 C33_13 1_555 1_555
C34_13 N5_13 1_555 1_555
C35_13 N6_13 1_555 1_555
C36_13 C35_13 1_555 1_555
H21_13 C36_13 1_555 1_555
C37_11 C36_13 1_555 1_555
H22_11 C37_11 1_555 1_555
C38_11 C37_11 1_555 1_555
H23_11 C38_11 1_555 1_555
C39_13 N6_13 1_555 1_555
H24_13 C39_13 1_555 1_555
C40_13 C32_13 1_555 1_555
C41_13 C40_13 1_555 1_555
H25_13 C41_13 1_555 1_555
C42_13 C41_13 1_555 1_555
H26_13 C42_13 1_555 1_555
C43_13 C42_13 1_555 1_555
C44_13 C43_13 1_555 1_555
H27_13 C44_13 1_555 1_555
C45_13 C40_13 1_555 1_555
H28_13 C45_13 1_555 1_555
C46_13 O5_13 1_555 1_555
C14_12 C15_13 1_555 1_555
O7_13 C46_13 1_555 1_555
C28_13 C29_13 1_555 1_555
C29_13 C30_13 1_555 1_555
C33_13 C34_13 1_555 1_555
C34_13 C35_13 1_555 1_555
C38_11 C39_13 1_555 1_555
C43_13 C46_13 1_555 1_555
C44_13 C45_13 1_555 1_555
Cd4_5 N1_14 1_555 1_555
N1_14 C1_14 1_555 1_555
N2_14 Cd4_5 1_555 1_555
N3_14 Cd4_5 1_555 1_555
O6_6 C22_13 1_555 1_555
O8_6 C22_13 1_555 1_555
C1_14 H1_14 1_555 1_555
C2_12 C1_14 1_555 1_555
H2_12 C2_12 1_555 1_555
C3_14 C2_12 1_555 1_555
H3_12 C3_14 1_555 1_555
C4_14 C3_14 1_555 1_555
H4_14 C4_14 1_555 1_555
C5_14 N1_14 1_555 1_555
C6_14 N2_14 1_555 1_555
C7_14 C6_14 1_555 1_555
H5_14 C7_14 1_555 1_555
C8_14 C7_14 1_555 1_555
C9_14 C8_14 1_555 1_555
H6_13 C9_14 1_555 1_555
C10_14 N2_14 1_555 1_555
C11_14 N3_14 1_555 1_555
C12_13 C11_14 1_555 1_555
H7_13 C12_13 1_555 1_555
C16_13 C8_14 1_555 1_555
C17_14 C16_13 1_555 1_555
H11_14 C17_14 1_555 1_555
C18_13 C17_14 1_555 1_555
H12_14 C18_13 1_555 1_555
C19_13 C18_13 1_555 1_555
C20_13 C19_13 1_555 1_555
H13_13 C20_13 1_555 1_555
C21_13 C16_13 1_555 1_555
H14_13 C21_13 1_555 1_555
C22_13 C19_13 1_555 1_555
C4_14 C5_14 1_555 1_555
C5_14 C6_14 1_555 1_555
C9_14 C10_14 1_555 1_555
C10_14 C11_14 1_555 1_555
C20_13 C21_13 1_555 1_555
C23_12 O3_7 1_555 1_555
C24_12 O4_8 1_555 1_555
Cd4_7 O9_7 1_555 1_555
O9_7 C23_12 1_555 1_555
O11_8 C24_12 1_555 1_555
C23_12 C24_12 1_555 1_555
Cd4_7 O11_8 1_555 1_555
Cd4_7 N1_15 1_555 1_555
N1_15 C1_15 1_555 1_555
N2_15 Cd4_7 1_555 1_555
N3_15 Cd4_7 1_555 1_555
O1_8 C22_14 1_555 1_555
O2_8 C22_14 1_555 1_555
C1_15 H1_15 1_555 1_555
C2_13 C1_15 1_555 1_555
H2_13 C2_13 1_555 1_555
C3_15 C2_13 1_555 1_555
H3_13 C3_15 1_555 1_555
C4_15 C3_15 1_555 1_555
H4_15 C4_15 1_555 1_555
C5_15 N1_15 1_555 1_555
C6_15 N2_15 1_555 1_555
C7_15 C6_15 1_555 1_555
H5_15 C7_15 1_555 1_555
C8_15 C7_15 1_555 1_555
C9_15 C8_15 1_555 1_555
H6_14 C9_15 1_555 1_555
C10_15 N2_15 1_555 1_555
C11_15 N3_15 1_555 1_555
C12_14 C11_15 1_555 1_555
H7_14 C12_14 1_555 1_555
C13_13 C12_14 1_555 1_555
H8_13 C13_13 1_555 1_555
C14_13 C13_13 1_555 1_555
H9_13 C14_13 1_555 1_555
C15_14 N3_15 1_555 1_555
H10_14 C15_14 1_555 1_555
C16_14 C8_15 1_555 1_555
C17_15 C16_14 1_555 1_555
H11_15 C17_15 1_555 1_555
C18_14 C17_15 1_555 1_555
H12_15 C18_14 1_555 1_555
C19_14 C18_14 1_555 1_555
C20_14 C19_14 1_555 1_555
H13_14 C20_14 1_555 1_555
C21_14 C16_14 1_555 1_555
H14_14 C21_14 1_555 1_555
C22_14 C19_14 1_555 1_555
Cd2_7 N4_14 1_555 1_555
Cd3_8 O1_8 1_555 1_555
N4_14 C25_14 1_555 1_555
N5_14 Cd2_7 1_555 1_555
N6_14 Cd2_7 1_555 1_555
O5_14 Cd4_7 1_555 1_555
O6_7 Cd2_7 1_555 1_555
O7_14 Cd4_7 1_555 1_555
O8_7 Cd2_7 1_555 1_555
O10_11 Cd2_7 1_555 1_555
O12_13 Cd2_7 1_555 1_555
C25_14 H15_14 1_555 1_555
C28_14 C27_14 1_555 1_555
H18_14 C28_14 1_555 1_555
C29_14 N4_14 1_555 1_555
C30_14 N5_14 1_555 1_555
C31_14 C30_14 1_555 1_555
H19_14 C31_14 1_555 1_555
C32_14 C31_14 1_555 1_555
C33_14 C32_14 1_555 1_555
H20_14 C33_14 1_555 1_555
C34_14 N5_14 1_555 1_555
C35_14 N6_14 1_555 1_555
C36_14 C35_14 1_555 1_555
H21_14 C36_14 1_555 1_555
C37_12 C36_14 1_555 1_555
H22_12 C37_12 1_555 1_555
C38_12 C37_12 1_555 1_555
H23_12 C38_12 1_555 1_555
C39_14 N6_14 1_555 1_555
H24_14 C39_14 1_555 1_555
C40_14 C32_14 1_555 1_555
C41_14 C40_14 1_555 1_555
H25_14 C41_14 1_555 1_555
C42_14 C41_14 1_555 1_555
H26_14 C42_14 1_555 1_555
C43_14 C42_14 1_555 1_555
C44_14 C43_14 1_555 1_555
H27_14 C44_14 1_555 1_555
C45_14 C40_14 1_555 1_555
H28_14 C45_14 1_555 1_555
C46_14 O5_14 1_555 1_555
O2_8 Cd3_8 1_555 1_555
C4_15 C5_15 1_555 1_555
C5_15 C6_15 1_555 1_555
C9_15 C10_15 1_555 1_555
C10_15 C11_15 1_555 1_555
C14_13 C15_14 1_555 1_555
C20_14 C21_14 1_555 1_555
O7_14 C46_14 1_555 1_555
C28_14 C29_14 1_555 1_555
C29_14 C30_14 1_555 1_555
C33_14 C34_14 1_555 1_555
C34_14 C35_14 1_555 1_555
C38_12 C39_14 1_555 1_555
C43_14 C46_14 1_555 1_555
C44_14 C45_14 1_555 1_555
H10_15 C15_15 1_555 1_555
Cd3_8 N4_15 1_555 1_555
N4_15 C25_15 1_555 1_555
N5_15 Cd3_8 1_555 1_555
N6_15 Cd3_8 1_555 1_555
O10_13 Cd3_8 1_555 1_555
O12_15 Cd3_8 1_555 1_555
C25_15 H15_15 1_555 1_555
C26_13 C25_15 1_555 1_555
H16_13 C26_13 1_555 1_555
C27_15 C26_13 1_555 1_555
H17_13 C27_15 1_555 1_555
C28_15 C27_15 1_555 1_555
H18_15 C28_15 1_555 1_555
C29_15 N4_15 1_555 1_555
C30_15 N5_15 1_555 1_555
C31_15 C30_15 1_555 1_555
H19_15 C31_15 1_555 1_555
C32_15 C31_15 1_555 1_555
C33_15 C32_15 1_555 1_555
H20_15 C33_15 1_555 1_555
C34_15 N5_15 1_555 1_555
C35_15 N6_15 1_555 1_555
C36_15 C35_15 1_555 1_555
H21_15 C36_15 1_555 1_555
C37_13 C36_15 1_555 1_555
H22_13 C37_13 1_555 1_555
C38_13 C37_13 1_555 1_555
H23_13 C38_13 1_555 1_555
C39_15 N6_15 1_555 1_555
H24_15 C39_15 1_555 1_555
C40_15 C32_15 1_555 1_555
C41_15 C40_15 1_555 1_555
H25_15 C41_15 1_555 1_555
C42_15 C41_15 1_555 1_555
H26_15 C42_15 1_555 1_555
C43_15 C42_15 1_555 1_555
C44_15 C43_15 1_555 1_555
H27_15 C44_15 1_555 1_555
C45_15 C40_15 1_555 1_555
H28_15 C45_15 1_555 1_555
C46_15 O5_15 1_555 1_555
O7_15 C46_15 1_555 1_555
C28_15 C29_15 1_555 1_555
C29_15 C30_15 1_555 1_555
C33_15 C34_15 1_555 1_555
C34_15 C35_15 1_555 1_555
C38_13 C39_15 1_555 1_555
C43_15 C46_15 1_555 1_555
C44_15 C45_15 1_555 1_555
O6_7 C22_15 1_555 1_555
O8_7 C22_15 1_555 1_555
H7_15 C12_15 1_555 1_555
C19_15 C18_15 1_555 1_555
C20_15 C19_15 1_555 1_555
H13_15 C20_15 1_555 1_555
C21_15 C16_15 1_555 1_555
H14_15 C21_15 1_555 1_555
C22_15 C19_15 1_555 1_555
C20_15 C21_15 1_555 1_555
C23_13 O10_14 1_555 1_555
C24_13 O12_16 1_555 1_555
O10_13 C23_13 1_555 1_555
O12_15 C24_13 1_555 1_555
C23_13 C24_13 1_555 1_555
C23_14 O10_12 1_555 1_555
C24_14 O12_14 1_555 1_555
O10_11 C23_14 1_555 1_555
O12_13 C24_14 1_555 1_555
C23_14 C24_14 1_555 1_555
C23_15 O3_8 1_555 1_555
Cd4_8 O9_8 1_555 1_555
O9_8 C23_15 1_555 1_555
C23_15 C24_15 1_555 1_555
H16_14 C26_14 1_555 1_555
Cd4_8 N1_16 1_555 1_555
N1_16 C1_16 1_555 1_555
N2_16 Cd4_8 1_555 1_555
N3_16 Cd4_8 1_555 1_555
C1_16 H1_16 1_555 1_555
C2_14 C1_16 1_555 1_555
H2_14 C2_14 1_555 1_555
C3_16 C2_14 1_555 1_555
H3_14 C3_16 1_555 1_555
C4_16 C3_16 1_555 1_555
H4_16 C4_16 1_555 1_555
C5_16 N1_16 1_555 1_555
C6_16 N2_16 1_555 1_555
C7_16 C6_16 1_555 1_555
H5_16 C7_16 1_555 1_555
C8_16 C7_16 1_555 1_555
C9_16 C8_16 1_555 1_555
C10_16 N2_16 1_555 1_555
C11_16 N3_16 1_555 1_555
H11_16 C17_16 1_555 1_555
C4_16 C5_16 1_555 1_555
C5_16 C6_16 1_555 1_555
C9_16 C10_16 1_555 1_555
C10_16 C11_16 1_555 1_555
H8_14 C13_14 1_555 1_555
C14_14 C13_14 1_555 1_555
H9_14 C14_14 1_555 1_555
H10_16 C15_16 1_555 1_555
H21_16 C36_16 1_555 1_555
C37_14 C36_16 1_555 1_555
H22_14 C37_14 1_555 1_555
C38_14 C37_14 1_555 1_555
H23_14 C38_14 1_555 1_555
C43_16 C42_16 1_555 1_555
C44_16 C43_16 1_555 1_555
H27_16 C44_16 1_555 1_555
C45_16 C40_16 1_555 1_555
H28_16 C45_16 1_555 1_555
C46_16 O5_16 1_555 1_555
C14_14 C15_16 1_555 1_555
O7_16 C46_16 1_555 1_555
C43_16 C46_16 1_555 1_555
C44_16 C45_16 1_555 1_555
H2_15 C2_15 1_555 1_555
H16_15 C26_15 1_555 1_555
H22_15 C37_15 1_555 1_555
C38_15 C37_15 1_555 1_555
H23_15 C38_15 1_555 1_555
H24_16 C39_16 1_555 1_555
C38_15 C39_16 1_555 1_555
O6_8 C22_16 1_555 1_555
O8_8 C22_16 1_555 1_555
H7_16 C12_16 1_555 1_555
C13_15 C12_16 1_555 1_555
H8_15 C13_15 1_555 1_555
C14_15 C13_15 1_555 1_555
H9_15 C14_15 1_555 1_555
C19_16 C18_16 1_555 1_555
C20_16 C19_16 1_555 1_555
H13_16 C20_16 1_555 1_555
C21_16 C16_16 1_555 1_555
H14_16 C21_16 1_555 1_555
C22_16 C19_16 1_555 1_555
C20_16 C21_16 1_555 1_555
H2_16 C2_16 1_555 1_555
Cd2_8 N4_16 1_555 1_555
N4_16 C25_16 1_555 1_555
N5_16 Cd2_8 1_555 1_555
N6_16 Cd2_8 1_555 1_555
O10_16 Cd2_8 1_555 1_555
C25_16 H15_16 1_555 1_555
C26_16 C25_16 1_555 1_555
H16_16 C26_16 1_555 1_555
C27_16 C26_16 1_555 1_555
H17_16 C27_16 1_555 1_555
C28_16 C27_16 1_555 1_555
H18_16 C28_16 1_555 1_555
C29_16 N4_16 1_555 1_555
C30_16 N5_16 1_555 1_555
C31_16 C30_16 1_555 1_555
H19_16 C31_16 1_555 1_555
C32_16 C31_16 1_555 1_555
C33_16 C32_16 1_555 1_555
C34_16 N5_16 1_555 1_555
C35_16 N6_16 1_555 1_555
H25_16 C41_16 1_555 1_555
C28_16 C29_16 1_555 1_555
C29_16 C30_16 1_555 1_555
C33_16 C34_16 1_555 1_555
C34_16 C35_16 1_555 1_555
C23_16 O10_15 1_555 1_555
O10_16 C23_16 1_555 1_555
C23_16 C24_16 1_555 1_555
H22_16 C37_16 1_555 1_555
C38_16 C37_16 1_555 1_555
H23_16 C38_16 1_555 1_555
H8_16 C13_16 1_555 1_555
C14_16 C13_16 1_555 1_555
H9_16 C14_16 1_555 1_555

#END
