
###############################################################################
#
# This file contains modified crystal structure data generated from the
# MOF subset of the Cambridge Structural Database (CSD) v543 
# hosted by the Cambridge Crystallographic Data Centre (CCDC).
#
# This work is licensed under the Creative Commons
# Attribution-NonCommercial-ShareAlike 4.0 International License.
# To view a copy of this license, visit
# http://creativecommons.org/licenses/by-nc-sa/4.0/
# or send a letter to
# Creative Commons, PO Box 1866, Mountain View, CA 94042, USA.
#
# CIF created using the CSD Python API on 29 September 2022
# The structure has been converted into the P1 space group
# The structure has a 3D framework
# The original CSD entry KABXIW is in the monoclinic crystal system
# The framework has been calculated to contain at least 10.0% void space
# The void calculation uses a probe of radius 1.32A, grid spacing 0.4
#
###############################################################################

data_KABXIW
_chemical_formula_moiety         '(C148 H150 N30 O86 Pr8)n'
_symmetry_cell_setting           triclinic
_symmetry_space_group_name_H-M   'P 1'
_symmetry_Int_Tables_number      1
_space_group_name_Hall           'P 1'
loop_
_symmetry_equiv_pos_site_id
_symmetry_equiv_pos_as_xyz
1 x,y,z
_cell_length_a                   21.801(5)
_cell_length_b                   16.882(5)
_cell_length_c                   16.522(5)
_cell_angle_alpha                90
_cell_angle_beta                 119.499(5)
_cell_angle_gamma                90
_cell_volume                     5292.54
loop_
_atom_site_label
_atom_site_type_symbol
_atom_site_fract_x
_atom_site_fract_y
_atom_site_fract_z
C1 C 0.5219(4) 0.3167(5) 0.4535(6)
H1 H 0.5648 0.3098 0.4514
H2 H 0.5301 0.3521 0.5033
H3 H 0.4863 0.3384 0.3956
C2 C 0.5398(4) 0.1712(4) 0.4691(5)
H4 H 0.5797 0.1890 0.4644
H5 H 0.5109 0.1378 0.4171
H6 H 0.5557 0.1420 0.5258
C3 C 0.4402(3) 0.2322(4) 0.4747(4)
H7 H 0.4163 0.2780 0.4742
C4 C 0.4357(3) 0.1313(4) 0.7990(4)
H8 H 0.4456 0.1371 0.8621
H9 H 0.3934 0.1598 0.7584
H10 H 0.4742 0.1521 0.7930
H11 H 0.4474 0.0192 0.9018
C6 C 0.4118(3) 0.0234(4) 0.6904(4)
C7 C 0.2542(3) 0.3200(3) 0.3581(4)
C8 C 0.2649(3) 0.3328(3) 0.2757(3)
C9 C 0.2996(3) 0.2766(3) 0.2512(4)
H15 H 0.3173 0.2306 0.2860
C10 C 0.3074(3) 0.2902(3) 0.1742(4)
C11 C 0.2820(3) 0.3580(3) 0.1201(4)
H16 H 0.2872 0.3652 0.0680
C12 C 0.2485(3) 0.4149(3) 0.1458(4)
C13 C 0.2405(3) 0.4024(3) 0.2232(3)
H17 H 0.2186 0.4408 0.2405
C14 C 0.2243(3) 0.4903(3) 0.0899(4)
C15 C 0.1283(3) 0.1777(3) 0.3760(3)
C16 C -0.0000 0.1740(5) 0.2500
H18 H 0.0000 0.2291 0.2500
C17 C 0.0617(2) 0.1331(3) 0.3104(3)
C18 C 0.0618(3) 0.0511(3) 0.3088(3)
H19 H 0.1028 0.0229 0.3467
C19 C -0.0000 0.0122(4) 0.2500
N1 N 0.4984(2) 0.2402(3) 0.4691(4)
N2 N 0.4261(2) 0.0472(3) 0.7737(3)
N3 N 0.3440(3) 0.2316(3) 0.1477(4)
O1 O 0.41537(19) 0.1677(2) 0.4807(3)
O2 O 0.3783(3) 0.1799(3) 0.2050(4)
O3 O 0.3392(2) 0.2366(3) 0.0714(3)
O4 O 0.40587(18) 0.0674(2) 0.6257(3)
O5 O 0.27711(19) 0.2558(2) 0.4025(2)
O6 O 0.22217(19) 0.3725(2) 0.3759(2)
O7 O 0.2015(2) 0.5461(2) 0.1202(3)
O8 O 0.2279(2) 0.4962(2) 0.0170(2)
O9 O 0.18399(17) 0.1377(2) 0.4127(2)
O10 O 0.12247(18) 0.2495(2) 0.3889(2)
Pr1 Pr 0.311206(13) 0.142790(16) 0.502540(18)
H22 H 0.0137 0.1616 0.6044
C22 C 0.0598(3) 0.2678(4) 0.5253(4)
H26 H 0.0837 0.2220 0.5258
C23 C 0.0643(3) 0.3687(4) 0.2010(4)
H27 H 0.0544 0.3629 0.1379
H28 H 0.1066 0.3402 0.2416
H29 H 0.0258 0.3479 0.2070
C24 C 0.0624(4) 0.5090(4) 0.1538(5)
H30 H 0.0526 0.4808 0.0982
H31 H 0.0230 0.5424 0.1414
H32 H 0.1038 0.5409 0.1737
C25 C 0.0882(3) 0.4766(4) 0.3096(4)
H33 H 0.0943 0.5307 0.3216
C26 C 0.2458(3) 0.1800(3) 0.6419(4)
C27 C 0.2351(3) 0.1672(3) 0.7243(3)
C28 C 0.2004(3) 0.2234(3) 0.7488(4)
H34 H 0.1827 0.2694 0.7140
C29 C 0.1926(3) 0.2098(3) 0.8258(4)
C30 C 0.2180(3) 0.1420(3) 0.8799(4)
H35 H 0.2128 0.1348 0.9320
C31 C 0.2515(3) 0.0851(3) 0.8542(4)
C32 C 0.2595(3) 0.0976(3) 0.7768(3)
H36 H 0.2814 0.0592 0.7595
C33 C 0.2757(3) 0.0097(3) 0.9101(4)
N5 N 0.0016(2) 0.2598(3) 0.5309(4)
N6 N 0.0739(2) 0.4528(3) 0.2263(3)
N7 N 0.1560(3) 0.2684(3) 0.8523(4)
O12 O 0.08463(19) 0.3323(2) 0.5193(3)
O13 O 0.1217(3) 0.3201(3) 0.7950(4)
O14 O 0.1608(2) 0.2634(3) 0.9286(3)
O15 O 0.09413(18) 0.4326(2) 0.3743(3)
O16 O 0.22289(19) 0.2442(2) 0.5975(2)
O17 O 0.27783(19) 0.1275(2) 0.6241(2)
O19 O 0.2985(2) 0.0461(2) 0.3798(3)
O20 O 0.2015(2) 0.4539(2) 0.6202(3)
O21 O 0.2721(2) 0.0038(2) 0.9830(2)
O23 O 0.2279(2) 0.5038(2) 0.5170(2)
O25 O 0.31601(17) 0.3623(2) 0.5873(2)
O27 O 0.37753(18) 0.2505(2) 0.6111(2)
Pr2 Pr 0.188794(13) 0.357210(16) 0.497460(18)
Pr3 Pr 0.188794(13) 0.642790(16) 0.997460(18)
Pr6 Pr 0.311206(13) 0.857210(16) 0.002540(18)
C5 C 0.4376(4) 0.9910(4) 0.8462(5)
H12 H 0.4770 0.9576 0.8586
H13 H 0.3962 0.9591 0.8263
H14 H 0.4057 0.9693 0.6784
N4 N -0.0000 0.9251(4) 0.2500
O11 O 0.0569(2) 0.8900(2) 0.2905(3)
O18 O 0.2985(2) 0.9539(2) 0.8798(3)
O22 O 0.2721(2) 0.9962(2) 0.4830(2)
C16_2 C 1.0000 0.1740(5) 0.2500
H18_2 H 1.0000 0.2291 0.2500
C19_2 C 1.0000 0.0122(4) 0.2500
C20 C 0.9781(4) 0.1833(5) 0.5465(6)
H20 H 0.9352 0.1902 0.5486
H21 H 0.9699 0.1479 0.4967
C21 C 0.9602(4) 0.3288(4) 0.5309(5)
H23 H 0.9203 0.3110 0.5356
H24 H 0.9891 0.3622 0.5829
H25 H 0.9443 0.3580 0.4742
C34 C 0.8717(3) 0.1777(3) 0.1240(3)
C35 C 0.9383(2) 0.1331(3) 0.1896(3)
C36 C 0.9382(3) 0.0511(3) 0.1912(3)
H37 H 0.8972 0.0229 0.1533
O24 O 0.81601(17) 0.1377(2) 0.0873(2)
O26 O 0.87753(18) 0.2495(2) 0.1111(2)
Pr5 Pr 0.811206(13) 0.357210(16) 0.002540(18)
Pr4 Pr 0.688794(13) 0.142790(16) 0.997460(18)
N4_2 N 1.0000 0.9251(4) 0.2500
O28 O 0.9431(2) 0.8900(2) 0.2095(3)
H21_2 H 0.0301 0.1479 0.0033
H25_2 H 0.0557 0.3580 0.0258
C1_2 C 0.4781(4) 0.3167(5) 0.0465(6)
H1_2 H 0.4352 0.3098 0.0486
H3_2 H 0.5137 0.3384 0.1044
C2_2 C 0.4602(4) 0.1712(4) 0.0309(5)
H4_2 H 0.4203 0.1890 0.0356
H5_2 H 0.4891 0.1378 0.0829
C3_2 C 0.5598(3) 0.2322(4) 0.0253(4)
H7_2 H 0.5837 0.2780 0.0258
C7_2 C 0.7458(3) 0.3200(3) 0.1419(4)
C8_2 C 0.7351(3) 0.3328(3) 0.2243(3)
C9_2 C 0.7004(3) 0.2766(3) 0.2488(4)
H15_2 H 0.6827 0.2306 0.2140
C10_2 C 0.6926(3) 0.2902(3) 0.3258(4)
C11_2 C 0.7180(3) 0.3580(3) 0.3799(4)
H16_2 H 0.7128 0.3652 0.4320
C12_2 C 0.7515(3) 0.4149(3) 0.3542(4)
C13_2 C 0.7595(3) 0.4024(3) 0.2768(3)
H17_2 H 0.7814 0.4408 0.2595
C14_2 C 0.7757(3) 0.4903(3) 0.4101(4)
N1_2 N 0.5016(2) 0.2402(3) 0.0309(4)
N3_2 N 0.6560(3) 0.2316(3) 0.3523(4)
O1_2 O 0.58463(19) 0.1677(2) 0.0193(3)
O2_2 O 0.6217(3) 0.1799(3) 0.2950(4)
O3_2 O 0.6608(2) 0.2366(3) 0.4286(3)
O5_2 O 0.72289(19) 0.2558(2) 0.0975(2)
O6_2 O 0.77783(19) 0.3725(2) 0.1241(2)
O7_2 O 0.7985(2) 0.5461(2) 0.3798(3)
O8_2 O 0.7721(2) 0.4962(2) 0.4830(2)
C23_2 C 0.9357(3) 0.3687(4) 0.2990(4)
H27_2 H 0.9456 0.3629 0.3621
H28_2 H 0.8934 0.3402 0.2584
H29_2 H 0.9742 0.3479 0.2930
C24_2 C 0.9376(4) 0.5090(4) 0.3462(5)
H30_2 H 0.9474 0.4808 0.4018
H31_2 H 0.9770 0.5424 0.3586
H32_2 H 0.8962 0.5409 0.3263
C25_2 C 0.9118(3) 0.4766(4) 0.1904(4)
H33_2 H 0.9057 0.5307 0.1784
N6_2 N 0.9261(2) 0.4528(3) 0.2737(3)
O15_2 O 0.90587(18) 0.4326(2) 0.1257(3)
O19_2 O 0.7015(2) 0.0461(2) 0.1202(3)
Pr3_2 Pr 0.811206(13) 0.642790(16) 0.502540(18)
H2_2 H 0.4699 0.3521 0.9967
H6_2 H 0.4443 0.1420 0.9742
C4_2 C 0.5643(3) 0.1313(4) 0.7010(4)
H8_2 H 0.5544 0.1371 0.6379
H9_2 H 0.6066 0.1598 0.7416
H10_2 H 0.5258 0.1521 0.7070
H11_2 H 0.5526 0.0192 0.5982
C6_2 C 0.5882(3) 0.0234(4) 0.8096(4)
N2_2 N 0.5739(2) 0.0472(3) 0.7263(3)
O4_2 O 0.59413(18) 0.0674(2) 0.8743(3)
H22_2 H 0.9863 0.1616 0.8956
C22_2 C 0.9402(3) 0.2678(4) 0.9747(4)
H26_2 H 0.9163 0.2220 0.9742
C26_2 C 0.7542(3) 0.1800(3) 0.8581(4)
C27_2 C 0.7649(3) 0.1672(3) 0.7757(3)
C28_2 C 0.7996(3) 0.2234(3) 0.7512(4)
H34_2 H 0.8173 0.2694 0.7860
C29_2 C 0.8074(3) 0.2098(3) 0.6742(4)
C30_2 C 0.7820(3) 0.1420(3) 0.6201(4)
H35_2 H 0.7872 0.1348 0.5680
C31_2 C 0.7485(3) 0.0851(3) 0.6458(4)
C32_2 C 0.7405(3) 0.0976(3) 0.7232(3)
H36_2 H 0.7186 0.0592 0.7405
C33_2 C 0.7243(3) 0.0097(3) 0.5899(4)
N5_2 N 0.9984(2) 0.2598(3) 0.9691(4)
N7_2 N 0.8440(3) 0.2684(3) 0.6477(4)
O12_2 O 0.91537(19) 0.3323(2) 0.9807(3)
O13_2 O 0.8783(3) 0.3201(3) 0.7050(4)
O14_2 O 0.8392(2) 0.2634(3) 0.5714(3)
O16_2 O 0.77711(19) 0.2442(2) 0.9025(2)
O17_2 O 0.72217(19) 0.1275(2) 0.8759(2)
O20_2 O 0.7985(2) 0.4539(2) 0.8798(3)
O21_2 O 0.7279(2) 0.0038(2) 0.5170(2)
O23_2 O 0.7721(2) 0.5038(2) 0.9830(2)
O25_2 O 0.68399(17) 0.3623(2) 0.9127(2)
O27_2 O 0.62247(18) 0.2505(2) 0.8889(2)
O22_2 O 0.7279(2) 0.9962(2) 0.0170(2)
C5_2 C 0.5624(4) 0.9910(4) 0.6538(5)
H12_2 H 0.5230 0.9576 0.6414
H13_2 H 0.6038 0.9591 0.6737
H14_2 H 0.5943 0.9693 0.8216
O18_2 O 0.7015(2) 0.9539(2) 0.6202(3)
Pr6_2 Pr 0.688794(13) 0.857210(16) 0.497460(18)
C1_3 C 0.0219(4) 0.8167(5) 0.4535(6)
H1_3 H 0.0648 0.8098 0.4514
H2_3 H 0.0301 0.8521 0.5033
C2_3 C 0.0398(4) 0.6712(4) 0.4691(5)
H4_3 H 0.0797 0.6890 0.4644
H5_3 H 0.0109 0.6378 0.4171
H6_3 H 0.0557 0.6420 0.5258
C24_3 C 0.5624(4) 0.0090(4) 0.1538(5)
H31_3 H 0.5230 0.0424 0.1414
H32_3 H 0.6038 0.0409 0.1737
H33_3 H 0.5943 0.0307 0.3216
H3_3 H 0.9863 0.8384 0.3956
C3_3 C 0.9402(3) 0.7322(4) 0.4747(4)
H7_3 H 0.9163 0.7780 0.4742
C4_3 C 0.9357(3) 0.6313(4) 0.7990(4)
H8_3 H 0.9456 0.6371 0.8621
H9_3 H 0.8934 0.6598 0.7584
H10_3 H 0.9742 0.6521 0.7930
C5_3 C 0.9376(4) 0.4910(4) 0.8462(5)
H11_3 H 0.9474 0.5192 0.9018
H12_3 H 0.9770 0.4576 0.8586
H13_3 H 0.8962 0.4591 0.8263
C6_3 C 0.9118(3) 0.5234(4) 0.6904(4)
H14_3 H 0.9057 0.4693 0.6784
C7_3 C 0.7542(3) 0.8200(3) 0.3581(4)
C8_3 C 0.7649(3) 0.8328(3) 0.2757(3)
C9_3 C 0.7996(3) 0.7766(3) 0.2512(4)
H15_3 H 0.8173 0.7306 0.2860
C10_3 C 0.8074(3) 0.7902(3) 0.1742(4)
C11_3 C 0.7820(3) 0.8580(3) 0.1201(4)
H16_3 H 0.7872 0.8652 0.0680
C12_3 C 0.7485(3) 0.9149(3) 0.1458(4)
C13_3 C 0.7405(3) 0.9024(3) 0.2232(3)
H17_3 H 0.7186 0.9408 0.2405
C14_3 C 0.7243(3) 0.9903(3) 0.0899(4)
C15_2 C 0.6283(3) 0.6777(3) 0.3760(3)
C16_3 C 0.5000 0.6740(5) 0.2500
H18_3 H 0.5000 0.7291 0.2500
C17_2 C 0.5617(2) 0.6331(3) 0.3104(3)
C18_2 C 0.5618(3) 0.5511(3) 0.3088(3)
H19_2 H 0.6028 0.5229 0.3467
C19_3 C 0.5000 0.5122(4) 0.2500
N1_3 N 0.9984(2) 0.7402(3) 0.4691(4)
N2_3 N 0.9261(2) 0.5472(3) 0.7737(3)
N3_3 N 0.8440(3) 0.7316(3) 0.1477(4)
N4_3 N 0.5000 0.4251(4) 0.2500
O1_3 O 0.91537(19) 0.6677(2) 0.4807(3)
O2_3 O 0.8783(3) 0.6799(3) 0.2050(4)
O3_3 O 0.8392(2) 0.7366(3) 0.0714(3)
O4_3 O 0.90587(18) 0.5674(2) 0.6257(3)
O5_3 O 0.77711(19) 0.7558(2) 0.4025(2)
O6_3 O 0.72217(19) 0.8725(2) 0.3759(2)
O9_2 O 0.68399(17) 0.6377(2) 0.4127(2)
O10_2 O 0.62247(18) 0.7495(2) 0.3889(2)
O11_2 O 0.5569(2) 0.3900(2) 0.2905(3)
C20_2 C 0.4781(4) 0.6833(5) 0.5465(6)
H20_2 H 0.4352 0.6902 0.5486
H21_3 H 0.4699 0.6479 0.4967
H22_3 H 0.5137 0.6616 0.6044
C21_2 C 0.4602(4) 0.8288(4) 0.5309(5)
H23_2 H 0.4203 0.8110 0.5356
H24_2 H 0.4891 0.8622 0.5829
H25_3 H 0.4443 0.8580 0.4742
C22_3 C 0.5598(3) 0.7678(4) 0.5253(4)
H26_3 H 0.5837 0.7220 0.5258
C23_3 C 0.5643(3) 0.8687(4) 0.2010(4)
H27_3 H 0.5544 0.8629 0.1379
H28_3 H 0.6066 0.8402 0.2416
H29_3 H 0.5258 0.8479 0.2070
H30_3 H 0.5526 0.9808 0.0982
C25_3 C 0.5882(3) 0.9766(4) 0.3096(4)
C26_3 C 0.7458(3) 0.6800(3) 0.6419(4)
C27_3 C 0.7351(3) 0.6672(3) 0.7243(3)
C28_3 C 0.7004(3) 0.7234(3) 0.7488(4)
H34_3 H 0.6827 0.7694 0.7140
C29_3 C 0.6926(3) 0.7098(3) 0.8258(4)
C30_3 C 0.7180(3) 0.6420(3) 0.8799(4)
H35_3 H 0.7128 0.6348 0.9320
C31_3 C 0.7515(3) 0.5851(3) 0.8542(4)
C32_3 C 0.7595(3) 0.5976(3) 0.7768(3)
H36_3 H 0.7814 0.5592 0.7595
C33_3 C 0.7757(3) 0.5097(3) 0.9101(4)
C34_2 C 0.3717(3) 0.6777(3) 0.1240(3)
C35_2 C 0.4383(2) 0.6331(3) 0.1896(3)
C36_2 C 0.4382(3) 0.5511(3) 0.1912(3)
H37_2 H 0.3972 0.5229 0.1533
N5_3 N 0.5016(2) 0.7598(3) 0.5309(4)
N6_3 N 0.5739(2) 0.9528(3) 0.2263(3)
N7_3 N 0.6560(3) 0.7684(3) 0.8523(4)
O12_3 O 0.58463(19) 0.8323(2) 0.5193(3)
O13_3 O 0.6217(3) 0.8201(3) 0.7950(4)
O14_3 O 0.6608(2) 0.7634(3) 0.9286(3)
O15_3 O 0.59413(18) 0.9326(2) 0.3743(3)
O16_3 O 0.72289(19) 0.7442(2) 0.5975(2)
O17_3 O 0.77783(19) 0.6275(2) 0.6241(2)
O24_2 O 0.31601(17) 0.6377(2) 0.0873(2)
O25_3 O 0.81601(17) 0.8623(2) 0.5873(2)
O26_2 O 0.37753(18) 0.7495(2) 0.1111(2)
O27_3 O 0.87753(18) 0.7505(2) 0.6111(2)
O28_2 O 0.4431(2) 0.3900(2) 0.2095(3)
C24_4 C 0.4376(4) 0.0090(4) 0.3462(5)
H31_4 H 0.4770 0.0424 0.3586
H32_4 H 0.3962 0.0409 0.3263
H33_4 H 0.4057 0.0307 0.1784
H3_4 H 0.0137 0.8384 0.1044
C3_4 C 0.0598(3) 0.7322(4) 0.0253(4)
H7_4 H 0.0837 0.7780 0.0258
C7_4 C 0.2458(3) 0.8200(3) 0.1419(4)
C8_4 C 0.2351(3) 0.8328(3) 0.2243(3)
C9_4 C 0.2004(3) 0.7766(3) 0.2488(4)
H15_4 H 0.1827 0.7306 0.2140
C10_4 C 0.1926(3) 0.7902(3) 0.3258(4)
C11_4 C 0.2180(3) 0.8580(3) 0.3799(4)
H16_4 H 0.2128 0.8652 0.4320
C12_4 C 0.2515(3) 0.9149(3) 0.3542(4)
C13_4 C 0.2595(3) 0.9024(3) 0.2768(3)
H17_4 H 0.2814 0.9408 0.2595
C14_4 C 0.2757(3) 0.9903(3) 0.4101(4)
N1_4 N 0.0016(2) 0.7402(3) 0.0309(4)
N3_4 N 0.1560(3) 0.7316(3) 0.3523(4)
O1_4 O 0.08463(19) 0.6677(2) 0.0193(3)
O2_4 O 0.1217(3) 0.6799(3) 0.2950(4)
O3_4 O 0.1608(2) 0.7366(3) 0.4286(3)
O5_4 O 0.22289(19) 0.7558(2) 0.0975(2)
O6_4 O 0.27783(19) 0.8725(2) 0.1241(2)
H21_4 H 0.5301 0.6479 0.0033
H25_4 H 0.5557 0.8580 0.0258
C23_4 C 0.4357(3) 0.8687(4) 0.2990(4)
H27_4 H 0.4456 0.8629 0.3621
H28_4 H 0.3934 0.8402 0.2584
H29_4 H 0.4742 0.8479 0.2930
H30_4 H 0.4474 0.9808 0.4018
C25_4 C 0.4118(3) 0.9766(4) 0.1904(4)
N6_4 N 0.4261(2) 0.9528(3) 0.2737(3)
O15_4 O 0.40587(18) 0.9326(2) 0.1257(3)
C4_4 C 0.0643(3) 0.6313(4) 0.7010(4)
H8_4 H 0.0544 0.6371 0.6379
H9_4 H 0.1066 0.6598 0.7416
H10_4 H 0.0258 0.6521 0.7070
C5_4 C 0.0624(4) 0.4910(4) 0.6538(5)
H11_4 H 0.0526 0.5192 0.5982
H12_4 H 0.0230 0.4576 0.6414
H13_4 H 0.1038 0.4591 0.6737
C6_4 C 0.0882(3) 0.5234(4) 0.8096(4)
H14_4 H 0.0943 0.4693 0.8216
N2_4 N 0.0739(2) 0.5472(3) 0.7263(3)
O4_4 O 0.09413(18) 0.5674(2) 0.8743(3)
C20_3 C 0.5219(4) 0.6833(5) 0.9535(6)
H20_3 H 0.5648 0.6902 0.9514
H22_4 H 0.4863 0.6616 0.8956
C21_3 C 0.5398(4) 0.8288(4) 0.9691(5)
H23_3 H 0.5797 0.8110 0.9644
H24_3 H 0.5109 0.8622 0.9171
C22_4 C 0.4402(3) 0.7678(4) 0.9747(4)
H26_4 H 0.4163 0.7220 0.9742
C26_4 C 0.2542(3) 0.6800(3) 0.8581(4)
C27_4 C 0.2649(3) 0.6672(3) 0.7757(3)
C28_4 C 0.2996(3) 0.7234(3) 0.7512(4)
H34_4 H 0.3173 0.7694 0.7860
C29_4 C 0.3074(3) 0.7098(3) 0.6742(4)
C30_4 C 0.2820(3) 0.6420(3) 0.6201(4)
H35_4 H 0.2872 0.6348 0.5680
C31_4 C 0.2485(3) 0.5851(3) 0.6458(4)
C32_4 C 0.2405(3) 0.5976(3) 0.7232(3)
H36_4 H 0.2186 0.5592 0.7405
C33_4 C 0.2243(3) 0.5097(3) 0.5899(4)
N5_4 N 0.4984(2) 0.7598(3) 0.9691(4)
N7_4 N 0.3440(3) 0.7684(3) 0.6477(4)
O12_4 O 0.41537(19) 0.8323(2) 0.9807(3)
O13_4 O 0.3783(3) 0.8201(3) 0.7050(4)
O14_4 O 0.3392(2) 0.7634(3) 0.5714(3)
O16_4 O 0.27711(19) 0.7442(2) 0.9025(2)
O17_4 O 0.22217(19) 0.6275(2) 0.8759(2)
O25_4 O 0.18399(17) 0.8623(2) 0.9127(2)
O27_4 O 0.12247(18) 0.7505(2) 0.8889(2)
H2_4 H 0.9699 0.8521 0.9967
H6_4 H 0.9443 0.6420 0.9742
N4_4 N 0.0000 0.0749(4) 0.7500
O28_3 O 0.0569(2) 0.1100(2) 0.7905(3)
C16_4 C 0.0000 0.8260(5) 0.7500
H18_4 H 0.0000 0.7709 0.7500
C19_4 C 0.0000 0.9878(4) 0.7500
C34_3 C 0.1283(3) 0.8223(3) 0.8760(3)
C35_3 C 0.0617(2) 0.8669(3) 0.8104(3)
C36_3 C 0.0618(3) 0.9489(3) 0.8088(3)
H37_3 H 0.1028 0.9771 0.8467
N4_5 N 1.0000 0.0749(4) 0.7500
O11_3 O 0.9431(2) 0.1100(2) 0.7095(3)
C15_3 C 0.8717(3) 0.8223(3) 0.6240(3)
C16_5 C 1.0000 0.8260(5) 0.7500
H18_5 H 1.0000 0.7709 0.7500
C17_3 C 0.9383(2) 0.8669(3) 0.6896(3)
C18_3 C 0.9382(3) 0.9489(3) 0.6912(3)
H19_3 H 0.8972 0.9771 0.6533
C19_5 C 1.0000 0.9878(4) 0.7500
C15_4 C 0.3717(3) 0.3223(3) 0.6240(3)
C16_6 C 0.5000 0.3260(5) 0.7500
H18_6 H 0.5000 0.2709 0.7500
C17_4 C 0.4383(2) 0.3669(3) 0.6896(3)
C18_4 C 0.4382(3) 0.4489(3) 0.6912(3)
H19_4 H 0.3972 0.4771 0.6533
C19_6 C 0.5000 0.4878(4) 0.7500
N4_6 N 0.5000 0.5749(4) 0.7500
O11_4 O 0.4431(2) 0.6100(2) 0.7095(3)
C34_4 C 0.6283(3) 0.3223(3) 0.8760(3)
C35_4 C 0.5617(2) 0.3669(3) 0.8104(3)
C36_4 C 0.5618(3) 0.4489(3) 0.8088(3)
H37_4 H 0.6028 0.4771 0.8467
O28_4 O 0.5569(2) 0.6100(2) 0.7905(3)
C20_4 C 0.0219(4) 0.1833(5) 0.9535(6)
H20_4 H 0.0648 0.1902 0.9514
C21_4 C 0.0398(4) 0.3288(4) 0.9691(5)
H23_4 H 0.0797 0.3110 0.9644
H24_4 H 0.0109 0.3622 0.9171
C1_4 C 0.9781(4) 0.8167(5) 0.0465(6)
H1_4 H 0.9352 0.8098 0.0486
C2_4 C 0.9602(4) 0.6712(4) 0.0309(5)
H4_4 H 0.9203 0.6890 0.0356
H5_4 H 0.9891 0.6378 0.0829
loop_
_geom_bond_atom_site_label_1
_geom_bond_atom_site_label_2
_geom_bond_site_symmetry_1
_geom_bond_site_symmetry_2
C1 H1 1_555 1_555
H2 C1 1_555 1_555
H3 C1 1_555 1_555
C2 H4 1_555 1_555
H5 C2 1_555 1_555
H6 C2 1_555 1_555
C3 H7 1_555 1_555
C4 H8 1_555 1_555
H9 C4 1_555 1_555
H10 C4 1_555 1_555
C7 C8 1_555 1_555
C8 C9 1_555 1_555
C9 H15 1_555 1_555
C10 C9 1_555 1_555
C11 C10 1_555 1_555
H16 C11 1_555 1_555
C12 C11 1_555 1_555
C13 C8 1_555 1_555
H17 C13 1_555 1_555
C14 C12 1_555 1_555
C15 C17 1_555 1_555
C16 H18 1_555 1_555
C17 C16 1_555 1_555
C18 C17 1_555 1_555
H19 C18 1_555 1_555
C19 C18 1_555 1_555
N1 C1 1_555 1_555
N2 C4 1_555 1_555
N3 C10 1_555 1_555
O1 C3 1_555 1_555
O2 N3 1_555 1_555
O3 N3 1_555 1_555
O4 C6 1_555 1_555
O5 C7 1_555 1_555
O6 C7 1_555 1_555
O7 C14 1_555 1_555
O8 C14 1_555 1_555
O9 C15 1_555 1_555
O10 C15 1_555 1_555
Pr1 O1 1_555 1_555
C22 H26 1_555 1_555
C23 H27 1_555 1_555
H28 C23 1_555 1_555
H29 C23 1_555 1_555
C24 H30 1_555 1_555
H31 C24 1_555 1_555
H32 C24 1_555 1_555
C25 H33 1_555 1_555
C26 C27 1_555 1_555
C27 C28 1_555 1_555
C28 H34 1_555 1_555
C29 C28 1_555 1_555
C30 C29 1_555 1_555
H35 C30 1_555 1_555
C31 C30 1_555 1_555
C32 C27 1_555 1_555
H36 C32 1_555 1_555
C33 C31 1_555 1_555
N6 C23 1_555 1_555
N7 C29 1_555 1_555
O12 C22 1_555 1_555
O13 N7 1_555 1_555
O14 N7 1_555 1_555
O15 C25 1_555 1_555
O16 C26 1_555 1_555
O17 Pr1 1_555 1_555
O19 Pr1 1_555 1_555
O20 Pr2 1_555 1_555
O21 C33 1_555 1_555
O23 Pr2 1_555 1_555
O25 Pr2 1_555 1_555
O27 Pr1 1_555 1_555
Pr2 O6 1_555 1_555
C2 N1 1_555 1_555
C3 N1 1_555 1_555
C6 N2 1_555 1_555
C12 C13 1_555 1_555
O4 Pr1 1_555 1_555
O5 Pr1 1_555 1_555
O9 Pr1 1_555 1_555
O10 Pr2 1_555 1_555
C22 N5 1_555 1_555
C24 N6 1_555 1_555
C25 N6 1_555 1_555
C26 O17 1_555 1_555
C31 C32 1_555 1_555
O12 Pr2 1_555 1_555
O15 Pr2 1_555 1_555
O16 Pr2 1_555 1_555
H12 C5 1_555 1_555
H13 C5 1_555 1_555
O11 N4 1_555 1_555
C16_2 H18_2 1_555 1_555
C20 H20 1_555 1_555
H21 C20 1_555 1_555
C21 H23 1_555 1_555
H24 C21 1_555 1_555
H25 C21 1_555 1_555
C34 C35 1_555 1_555
C35 C16_2 1_555 1_555
C36 C19_2 1_555 1_555
H37 C36 1_555 1_555
O24 C34 1_555 1_555
O26 C34 1_555 1_555
Pr5 O26 1_555 1_555
C35 C36 1_555 1_555
O28 N4_2 1_555 1_555
C1_2 H1_2 1_555 1_555
H3_2 C1_2 1_555 1_555
C2_2 H4_2 1_555 1_555
H5_2 C2_2 1_555 1_555
C3_2 H7_2 1_555 1_555
C7_2 C8_2 1_555 1_555
C8_2 C9_2 1_555 1_555
C9_2 H15_2 1_555 1_555
C10_2 C9_2 1_555 1_555
C11_2 C10_2 1_555 1_555
H16_2 C11_2 1_555 1_555
C12_2 C11_2 1_555 1_555
C13_2 C8_2 1_555 1_555
H17_2 C13_2 1_555 1_555
C14_2 C12_2 1_555 1_555
N1_2 C1_2 1_555 1_555
N3_2 C10_2 1_555 1_555
O1_2 C3_2 1_555 1_555
O2_2 N3_2 1_555 1_555
O3_2 N3_2 1_555 1_555
O5_2 C7_2 1_555 1_555
O6_2 C7_2 1_555 1_555
O7_2 C14_2 1_555 1_555
O8_2 C14_2 1_555 1_555
C23_2 H27_2 1_555 1_555
H28_2 C23_2 1_555 1_555
H29_2 C23_2 1_555 1_555
C24_2 H30_2 1_555 1_555
H31_2 C24_2 1_555 1_555
H32_2 C24_2 1_555 1_555
C25_2 H33_2 1_555 1_555
N6_2 C23_2 1_555 1_555
O15_2 C25_2 1_555 1_555
Pr5 O6_2 1_555 1_555
Pr3_2 O7_2 1_555 1_555
C2_2 N1_2 1_555 1_555
C3_2 N1_2 1_555 1_555
C12_2 C13_2 1_555 1_555
O8_2 Pr3_2 1_555 1_555
C24_2 N6_2 1_555 1_555
C25_2 N6_2 1_555 1_555
O15_2 Pr5 1_555 1_555
C4_2 H8_2 1_555 1_555
H9_2 C4_2 1_555 1_555
H10_2 C4_2 1_555 1_555
N2_2 C4_2 1_555 1_555
O4_2 C6_2 1_555 1_555
C22_2 H26_2 1_555 1_555
C26_2 C27_2 1_555 1_555
C27_2 C28_2 1_555 1_555
C28_2 H34_2 1_555 1_555
C29_2 C28_2 1_555 1_555
C30_2 C29_2 1_555 1_555
H35_2 C30_2 1_555 1_555
C31_2 C30_2 1_555 1_555
C32_2 C27_2 1_555 1_555
H36_2 C32_2 1_555 1_555
C33_2 C31_2 1_555 1_555
N7_2 C29_2 1_555 1_555
O12_2 C22_2 1_555 1_555
O13_2 N7_2 1_555 1_555
O14_2 N7_2 1_555 1_555
O16_2 C26_2 1_555 1_555
O17_2 Pr4 1_555 1_555
O21_2 C33_2 1_555 1_555
O27_2 Pr4 1_555 1_555
C6_2 N2_2 1_555 1_555
O4_2 Pr4 1_555 1_555
C22_2 N5_2 1_555 1_555
C26_2 O17_2 1_555 1_555
C31_2 C32_2 1_555 1_555
H12_2 C5_2 1_555 1_555
H13_2 C5_2 1_555 1_555
Pr6_2 O18_2 1_555 1_555
C1_3 H1_3 1_555 1_555
H2_3 C1_3 1_555 1_555
C2_3 H4_3 1_555 1_555
H5_3 C2_3 1_555 1_555
H6_3 C2_3 1_555 1_555
H31_3 C24_3 1_555 1_555
H32_3 C24_3 1_555 1_555
C3_3 H7_3 1_555 1_555
C4_3 H8_3 1_555 1_555
H9_3 C4_3 1_555 1_555
H10_3 C4_3 1_555 1_555
C5_3 H11_3 1_555 1_555
H12_3 C5_3 1_555 1_555
H13_3 C5_3 1_555 1_555
C6_3 H14_3 1_555 1_555
C7_3 C8_3 1_555 1_555
C8_3 C9_3 1_555 1_555
C9_3 H15_3 1_555 1_555
C10_3 C9_3 1_555 1_555
C11_3 C10_3 1_555 1_555
H16_3 C11_3 1_555 1_555
C12_3 C11_3 1_555 1_555
C13_3 C8_3 1_555 1_555
H17_3 C13_3 1_555 1_555
C14_3 C12_3 1_555 1_555
C15_2 C17_2 1_555 1_555
C16_3 H18_3 1_555 1_555
C17_2 C16_3 1_555 1_555
C18_2 C17_2 1_555 1_555
H19_2 C18_2 1_555 1_555
C19_3 C18_2 1_555 1_555
N2_3 C4_3 1_555 1_555
N3_3 C10_3 1_555 1_555
N4_3 C19_3 1_555 1_555
O1_3 C3_3 1_555 1_555
O2_3 N3_3 1_555 1_555
O3_3 N3_3 1_555 1_555
O4_3 C6_3 1_555 1_555
O5_3 C7_3 1_555 1_555
O6_3 C7_3 1_555 1_555
O22_2 C14_3 1_555 1_555
O9_2 C15_2 1_555 1_555
O10_2 C15_2 1_555 1_555
O11_2 N4_3 1_555 1_555
Pr3_2 O1_3 1_555 1_555
C20_2 H20_2 1_555 1_555
H21_3 C20_2 1_555 1_555
H22_3 C20_2 1_555 1_555
C21_2 H23_2 1_555 1_555
H24_2 C21_2 1_555 1_555
H25_3 C21_2 1_555 1_555
C22_3 H26_3 1_555 1_555
C23_3 H27_3 1_555 1_555
H28_3 C23_3 1_555 1_555
H29_3 C23_3 1_555 1_555
C26_3 C27_3 1_555 1_555
C27_3 C28_3 1_555 1_555
C28_3 H34_3 1_555 1_555
C29_3 C28_3 1_555 1_555
C30_3 C29_3 1_555 1_555
H35_3 C30_3 1_555 1_555
C31_3 C30_3 1_555 1_555
C32_3 C27_3 1_555 1_555
H36_3 C32_3 1_555 1_555
C33_3 C31_3 1_555 1_555
C34_2 C35_2 1_555 1_555
C35_2 C16_3 1_555 1_555
C36_2 C19_3 1_555 1_555
H37_2 C36_2 1_555 1_555
N5_3 C20_2 1_555 1_555
N6_3 C23_3 1_555 1_555
N7_3 C29_3 1_555 1_555
O12_3 C22_3 1_555 1_555
O13_3 N7_3 1_555 1_555
O14_3 N7_3 1_555 1_555
O15_3 C25_3 1_555 1_555
O16_3 C26_3 1_555 1_555
O17_3 Pr3_2 1_555 1_555
O20_2 C33_3 1_555 1_555
O23_2 C33_3 1_555 1_555
O24_2 C34_2 1_555 1_555
O25_3 Pr6_2 1_555 1_555
O26_2 C34_2 1_555 1_555
O27_3 Pr3_2 1_555 1_555
O28_2 N4_3 1_555 1_555
Pr6_2 O6_3 1_555 1_555
Pr6 O26_2 1_555 1_555
C3_3 N1_3 1_555 1_555
C5_3 N2_3 1_555 1_555
C6_3 N2_3 1_555 1_555
C12_3 C13_3 1_555 1_555
O4_3 Pr3_2 1_555 1_555
O5_3 Pr3_2 1_555 1_555
O9_2 Pr3_2 1_555 1_555
O10_2 Pr6_2 1_555 1_555
C21_2 N5_3 1_555 1_555
C22_3 N5_3 1_555 1_555
C25_3 N6_3 1_555 1_555
C26_3 O17_3 1_555 1_555
C31_3 C32_3 1_555 1_555
C35_2 C36_2 1_555 1_555
O12_3 Pr6_2 1_555 1_555
O15_3 Pr6_2 1_555 1_555
O16_3 Pr6_2 1_555 1_555
H31_4 C24_4 1_555 1_555
H32_4 C24_4 1_555 1_555
C3_4 H7_4 1_555 1_555
C7_4 C8_4 1_555 1_555
C8_4 C9_4 1_555 1_555
C9_4 H15_4 1_555 1_555
C10_4 C9_4 1_555 1_555
C11_4 C10_4 1_555 1_555
H16_4 C11_4 1_555 1_555
C12_4 C11_4 1_555 1_555
C13_4 C8_4 1_555 1_555
H17_4 C13_4 1_555 1_555
C14_4 C12_4 1_555 1_555
N3_4 C10_4 1_555 1_555
O1_4 C3_4 1_555 1_555
O2_4 N3_4 1_555 1_555
O3_4 N3_4 1_555 1_555
O5_4 C7_4 1_555 1_555
O6_4 C7_4 1_555 1_555
O22 C14_4 1_555 1_555
C23_4 H27_4 1_555 1_555
H28_4 C23_4 1_555 1_555
H29_4 C23_4 1_555 1_555
N6_4 C23_4 1_555 1_555
O15_4 C25_4 1_555 1_555
Pr6 O6_4 1_555 1_555
C3_4 N1_4 1_555 1_555
C12_4 C13_4 1_555 1_555
C25_4 N6_4 1_555 1_555
O15_4 Pr6 1_555 1_555
C4_4 H8_4 1_555 1_555
H9_4 C4_4 1_555 1_555
H10_4 C4_4 1_555 1_555
C5_4 H11_4 1_555 1_555
H12_4 C5_4 1_555 1_555
H13_4 C5_4 1_555 1_555
C6_4 H14_4 1_555 1_555
N2_4 C4_4 1_555 1_555
O4_4 C6_4 1_555 1_555
C20_3 H20_3 1_555 1_555
H22_4 C20_3 1_555 1_555
C21_3 H23_3 1_555 1_555
H24_3 C21_3 1_555 1_555
C22_4 H26_4 1_555 1_555
C26_4 C27_4 1_555 1_555
C27_4 C28_4 1_555 1_555
C28_4 H34_4 1_555 1_555
C29_4 C28_4 1_555 1_555
C30_4 C29_4 1_555 1_555
H35_4 C30_4 1_555 1_555
C31_4 C30_4 1_555 1_555
C32_4 C27_4 1_555 1_555
H36_4 C32_4 1_555 1_555
C33_4 C31_4 1_555 1_555
N5_4 C20_3 1_555 1_555
N7_4 C29_4 1_555 1_555
O12_4 C22_4 1_555 1_555
O13_4 N7_4 1_555 1_555
O14_4 N7_4 1_555 1_555
O16_4 C26_4 1_555 1_555
O17_4 Pr3 1_555 1_555
O20 C33_4 1_555 1_555
O23 C33_4 1_555 1_555
O27_4 Pr3 1_555 1_555
C5_4 N2_4 1_555 1_555
C6_4 N2_4 1_555 1_555
O4_4 Pr3 1_555 1_555
C21_3 N5_4 1_555 1_555
C22_4 N5_4 1_555 1_555
C26_4 O17_4 1_555 1_555
C31_4 C32_4 1_555 1_555
O28_3 N4_4 1_555 1_555
C16_4 H18_4 1_555 1_555
C34_3 C35_3 1_555 1_555
C35_3 C16_4 1_555 1_555
C36_3 C19_4 1_555 1_555
H37_3 C36_3 1_555 1_555
O25_4 C34_3 1_555 1_555
O27_4 C34_3 1_555 1_555
C35_3 C36_3 1_555 1_555
O11_3 N4_5 1_555 1_555
C15_3 C17_3 1_555 1_555
C16_5 H18_5 1_555 1_555
C17_3 C16_5 1_555 1_555
C18_3 C17_3 1_555 1_555
H19_3 C18_3 1_555 1_555
C19_5 C18_3 1_555 1_555
O25_3 C15_3 1_555 1_555
O27_3 C15_3 1_555 1_555
C15_4 C17_4 1_555 1_555
C16_6 H18_6 1_555 1_555
C17_4 C16_6 1_555 1_555
C18_4 C17_4 1_555 1_555
H19_4 C18_4 1_555 1_555
C19_6 C18_4 1_555 1_555
N4_6 C19_6 1_555 1_555
O25 C15_4 1_555 1_555
O27 C15_4 1_555 1_555
O11_4 N4_6 1_555 1_555
C34_4 C35_4 1_555 1_555
C35_4 C16_6 1_555 1_555
C36_4 C19_6 1_555 1_555
H37_4 C36_4 1_555 1_555
O25_2 C34_4 1_555 1_555
O27_2 C34_4 1_555 1_555
O28_4 N4_6 1_555 1_555
C35_4 C36_4 1_555 1_555
C20_4 H20_4 1_555 1_555
C21_4 H23_4 1_555 1_555
H24_4 C21_4 1_555 1_555
C1_4 H1_4 1_555 1_555
C2_4 H4_4 1_555 1_555
H5_4 C2_4 1_555 1_555

#END
