
###############################################################################
#
# This file contains modified crystal structure data generated from the
# MOF subset of the Cambridge Structural Database (CSD) v543 
# hosted by the Cambridge Crystallographic Data Centre (CCDC).
#
# This work is licensed under the Creative Commons
# Attribution-NonCommercial-ShareAlike 4.0 International License.
# To view a copy of this license, visit
# http://creativecommons.org/licenses/by-nc-sa/4.0/
# or send a letter to
# Creative Commons, PO Box 1866, Mountain View, CA 94042, USA.
#
# CIF created using the CSD Python API on 29 September 2022
# The structure has been converted into the P1 space group
# The structure has a 3D framework
# The original CSD entry KABXOC is in the monoclinic crystal system
# The framework has been calculated to contain at least 10.0% void space
# The void calculation uses a probe of radius 1.32A, grid spacing 0.4
#
###############################################################################

data_KABXOC
_chemical_formula_moiety         '(C148 H150 Eu8 N30 O86)n'
_symmetry_cell_setting           triclinic
_symmetry_space_group_name_H-M   'P 1'
_symmetry_Int_Tables_number      1
_space_group_name_Hall           'P 1'
loop_
_symmetry_equiv_pos_site_id
_symmetry_equiv_pos_as_xyz
1 x,y,z
_cell_length_a                   21.621(5)
_cell_length_b                   16.786(5)
_cell_length_c                   16.383(5)
_cell_angle_alpha                90
_cell_angle_beta                 119.553(5)
_cell_angle_gamma                90
_cell_volume                     5172.32
loop_
_atom_site_label
_atom_site_type_symbol
_atom_site_fract_x
_atom_site_fract_y
_atom_site_fract_z
Eu4 Eu 0.810887(7) 0.356745(8) 0.001843(9)
C1 C 0.25438(16) 0.31811(18) 0.3593(2)
C2 C 0.43937(18) 0.2307(2) 0.4746(2)
H1 H 0.4153 0.2770 0.4734
C3 C 0.5394(2) 0.1698(2) 0.4706(3)
H2 H 0.5796 0.1874 0.4655
H3 H 0.5105 0.1351 0.4191
H4 H 0.5557 0.1415 0.5286
C4 C 0.5201(3) 0.3155(3) 0.4509(4)
H5 H 0.5634 0.3092 0.4489
H6 H 0.5277 0.3519 0.5002
H7 H 0.4838 0.3362 0.3919
C5 C 0.41027(17) 0.0241(2) 0.6868(2)
C6 C 0.4348(2) 0.1316(2) 0.7977(2)
H9 H 0.4451 0.1369 0.8615
H10 H 0.3921 0.1604 0.7572
H11 H 0.4736 0.1527 0.7916
H12 H 0.4469 0.0183 0.9009
C8 C 0.22491(16) 0.49419(18) 0.0921(2)
C9 C 0.26514(16) 0.33356(18) 0.2765(2)
C10 C 0.24085(16) 0.40410(18) 0.2249(2)
H15 H 0.2190 0.4425 0.2430
C11 C 0.24893(16) 0.41768(18) 0.1469(2)
C12 C 0.28150(17) 0.36030(18) 0.1198(2)
H16 H 0.2862 0.3679 0.0669
C13 C 0.30666(17) 0.29199(18) 0.1727(2)
C14 C 0.29923(16) 0.27697(18) 0.2506(2)
H17 H 0.3166 0.2301 0.2847
C15 C 0.37057(16) 0.32118(18) 0.6226(2)
C16 C 0.5000 0.4867(2) 0.7500
C17 C 0.43741(16) 0.44774(18) 0.6908(2)
H18 H 0.3960 0.4760 0.6528
C18 C 0.43806(16) 0.36517(17) 0.6896(2)
C19 C 0.5000 0.3244(3) 0.7500
H19 H 0.5000 0.2690 0.7500
N1 N 0.42502(15) 0.04759(17) 0.7714(2)
N2 N 0.49763(15) 0.23834(17) 0.4687(2)
N3 N 0.34372(16) 0.23308(17) 0.1455(2)
N4 N 0.5000 0.5747(2) 0.7500
O1 O 0.41426(12) 0.16620(14) 0.48163(16)
O2 O 0.40438(12) 0.06943(13) 0.62310(15)
O3 O 0.20325(12) 0.55059(13) 0.12254(15)
O4 O 0.31427(11) 0.36144(12) 0.58599(15)
O5 O 0.27781(12) 0.25357(13) 0.40228(15)
O6 O 0.22239(12) 0.37031(13) 0.37908(15)
O7 O 0.37610(11) 0.24878(12) 0.60892(15)
O8 O 0.33832(15) 0.23935(16) 0.06816(18)
O9 O 0.22744(12) 0.49942(13) 0.01724(14)
O10 O 0.37763(18) 0.18061(17) 0.2015(2)
O11 O 0.55721(13) 0.60894(14) 0.79075(19)
Eu1 Eu 0.310887(7) 0.143255(8) 0.501843(9)
C20 C 0.24562(16) 0.18189(18) 0.6407(2)
C21 C 0.06063(18) 0.2693(2) 0.5254(2)
H20 H 0.0847 0.2230 0.5266
H26 H 0.0162 0.1638 0.6081
C24 C 0.08973(17) 0.4759(2) 0.3132(2)
H27 H 0.0962 0.5302 0.3262
C25 C 0.0652(2) 0.3684(2) 0.2023(2)
H28 H 0.0549 0.3631 0.1385
H29 H 0.1079 0.3396 0.2428
H30 H 0.0264 0.3473 0.2084
C26 C 0.0631(2) 0.5097(2) 0.1555(3)
H31 H 0.0531 0.4817 0.0991
H32 H 0.0235 0.5432 0.1434
H33 H 0.1049 0.5418 0.1756
C27 C 0.27509(16) 0.00581(18) 0.9079(2)
C28 C 0.23486(16) 0.16644(18) 0.7235(2)
C29 C 0.25915(16) 0.09590(18) 0.7751(2)
H34 H 0.2810 0.0575 0.7570
C30 C 0.25107(16) 0.08232(18) 0.8531(2)
C31 C 0.21850(17) 0.13970(18) 0.8802(2)
H35 H 0.2138 0.1321 0.9331
C32 C 0.19334(17) 0.20801(18) 0.8273(2)
C33 C 0.20077(16) 0.22303(18) 0.7494(2)
H36 H 0.1834 0.2699 0.7153
C34 C 0.62943(16) 0.32118(18) 0.8774(2)
C35 C 0.56259(16) 0.44774(18) 0.8092(2)
H37 H 0.6040 0.4760 0.8472
C36 C 0.56194(16) 0.36517(17) 0.8104(2)
N5 N 0.07498(15) 0.45241(17) 0.2286(2)
N6 N 0.00237(15) 0.26166(17) 0.5313(2)
N7 N 0.15628(16) 0.26692(17) 0.8545(2)
O12 O 0.08574(12) 0.33380(14) 0.51837(16)
O13 O 0.09562(12) 0.43057(13) 0.37690(15)
O15 O 0.29675(12) 0.05059(13) 0.37746(15)
O16 O 0.20325(12) 0.44941(13) 0.62254(15)
O17 O 0.68573(11) 0.36144(12) 0.91401(15)
O18 O 0.18573(11) 0.13856(12) 0.41401(15)
O19 O 0.22219(12) 0.24643(13) 0.59772(15)
O20 O 0.27761(12) 0.12969(13) 0.62092(15)
O21 O 0.62390(11) 0.24878(12) 0.89108(15)
O22 O 0.12390(11) 0.25122(12) 0.39108(15)
O23 O 0.16168(15) 0.26065(16) 0.93184(18)
O24 O 0.27256(12) 0.00058(13) 0.98276(14)
O26 O 0.22744(12) 0.50058(13) 0.51724(14)
O27 O 0.12237(18) 0.31939(17) 0.7985(2)
O28 O 0.44279(13) 0.60894(14) 0.70925(19)
Eu2 Eu 0.189113(7) 0.356745(8) 0.498157(9)
Eu5 Eu 0.689113(7) 0.143255(8) 0.998157(9)
Eu3 Eu 0.189113(7) 0.643255(8) 0.998157(9)
Eu6 Eu 0.310887(7) 0.856745(8) 0.001843(9)
H8 H 0.4038 0.9698 0.6738
C7 C 0.4369(2) 0.9903(2) 0.8445(3)
H13 H 0.4765 0.9568 0.8566
H14 H 0.3951 0.9582 0.8244
O14 O 0.29675(12) 0.94941(13) 0.87746(15)
O25 O 0.27256(12) 0.99942(13) 0.48276(14)
C22 C 0.9606(2) 0.3302(2) 0.5294(3)
H21 H 0.9204 0.3126 0.5345
H22 H 0.9895 0.3649 0.5809
H23 H 0.9443 0.3585 0.4714
C23 C 0.9799(3) 0.1845(3) 0.5491(4)
H24 H 0.9366 0.1908 0.5511
H25 H 0.9723 0.1481 0.4998
H23_2 H 0.0557 0.3585 0.0286
H25_2 H 0.0277 0.1481 0.0002
C1_2 C 0.74562(16) 0.31811(18) 0.1407(2)
C2_2 C 0.56063(18) 0.2307(2) 0.0254(2)
H1_2 H 0.5847 0.2770 0.0266
C3_2 C 0.4606(2) 0.1698(2) 0.0294(3)
H2_2 H 0.4204 0.1874 0.0345
H3_2 H 0.4895 0.1351 0.0809
C4_2 C 0.4799(3) 0.3155(3) 0.0491(4)
H5_2 H 0.4366 0.3092 0.0511
H7_2 H 0.5162 0.3362 0.1081
C8_2 C 0.77509(16) 0.49419(18) 0.4079(2)
C9_2 C 0.73486(16) 0.33356(18) 0.2235(2)
C10_2 C 0.75915(16) 0.40410(18) 0.2751(2)
H15_2 H 0.7810 0.4425 0.2570
C11_2 C 0.75107(16) 0.41768(18) 0.3531(2)
C12_2 C 0.71850(17) 0.36030(18) 0.3802(2)
H16_2 H 0.7138 0.3679 0.4331
C13_2 C 0.69334(17) 0.29199(18) 0.3273(2)
C14_2 C 0.70077(16) 0.27697(18) 0.2494(2)
H17_2 H 0.6834 0.2301 0.2153
N2_2 N 0.50237(15) 0.23834(17) 0.0313(2)
N3_2 N 0.65628(16) 0.23308(17) 0.3545(2)
O1_2 O 0.58574(12) 0.16620(14) 0.01837(16)
O3_2 O 0.79675(12) 0.55059(13) 0.37746(15)
O5_2 O 0.72219(12) 0.25357(13) 0.09772(15)
O6_2 O 0.77761(12) 0.37031(13) 0.12092(15)
O8_2 O 0.66168(15) 0.23935(16) 0.43184(18)
O9_2 O 0.77256(12) 0.49942(13) 0.48276(14)
O10_2 O 0.62237(18) 0.18061(17) 0.2985(2)
C24_2 C 0.91027(17) 0.4759(2) 0.1868(2)
H27_2 H 0.9038 0.5302 0.1738
C25_2 C 0.9348(2) 0.3684(2) 0.2977(2)
H28_2 H 0.9451 0.3631 0.3615
H29_2 H 0.8921 0.3396 0.2572
H30_2 H 0.9736 0.3473 0.2916
C26_2 C 0.9369(2) 0.5097(2) 0.3445(3)
H31_2 H 0.9469 0.4817 0.4009
H32_2 H 0.9765 0.5432 0.3566
H33_2 H 0.8951 0.5418 0.3244
N5_2 N 0.92502(15) 0.45241(17) 0.2714(2)
O13_2 O 0.90438(12) 0.43057(13) 0.12310(15)
O15_2 O 0.70325(12) 0.05059(13) 0.12254(15)
O18_2 O 0.81427(11) 0.13856(12) 0.08599(15)
O22_2 O 0.87610(11) 0.25122(12) 0.10892(15)
Eu3_2 Eu 0.810887(7) 0.643255(8) 0.501843(9)
H4_2 H 0.4443 0.1415 0.9714
H6_2 H 0.4723 0.3519 0.9998
C5_2 C 0.58973(17) 0.0241(2) 0.8132(2)
C6_2 C 0.5652(2) 0.1316(2) 0.7023(2)
H9_2 H 0.5549 0.1369 0.6385
H10_2 H 0.6079 0.1604 0.7428
H11_2 H 0.5264 0.1527 0.7084
H12_2 H 0.5531 0.0183 0.5991
N1_2 N 0.57498(15) 0.04759(17) 0.7286(2)
O2_2 O 0.59562(12) 0.06943(13) 0.87690(15)
C20_2 C 0.75438(16) 0.18189(18) 0.8593(2)
C21_2 C 0.93937(18) 0.2693(2) 0.9746(2)
H20_2 H 0.9153 0.2230 0.9734
H26_2 H 0.9838 0.1638 0.8919
C27_2 C 0.72491(16) 0.00581(18) 0.5921(2)
C28_2 C 0.76514(16) 0.16644(18) 0.7765(2)
C29_2 C 0.74085(16) 0.09590(18) 0.7249(2)
H34_2 H 0.7190 0.0575 0.7430
C30_2 C 0.74893(16) 0.08232(18) 0.6469(2)
C31_2 C 0.78150(17) 0.13970(18) 0.6198(2)
H35_2 H 0.7862 0.1321 0.5669
C32_2 C 0.80666(17) 0.20801(18) 0.6727(2)
C33_2 C 0.79923(16) 0.22303(18) 0.7506(2)
H36_2 H 0.8166 0.2699 0.7847
N6_2 N 0.99763(15) 0.26166(17) 0.9687(2)
N7_2 N 0.84372(16) 0.26692(17) 0.6455(2)
O12_2 O 0.91426(12) 0.33380(14) 0.98163(16)
O16_2 O 0.79675(12) 0.44941(13) 0.87746(15)
O19_2 O 0.77781(12) 0.24643(13) 0.90228(15)
O20_2 O 0.72239(12) 0.12969(13) 0.87908(15)
O23_2 O 0.83832(15) 0.26065(16) 0.56816(18)
O24_2 O 0.72744(12) 0.00058(13) 0.51724(14)
O26_2 O 0.77256(12) 0.50058(13) 0.98276(14)
O27_2 O 0.87763(18) 0.31939(17) 0.7015(2)
O25_2 O 0.72744(12) 0.99942(13) 0.01724(14)
H8_2 H 0.5962 0.9698 0.8262
C7_2 C 0.5631(2) 0.9903(2) 0.6555(3)
H13_2 H 0.5235 0.9568 0.6434
H14_2 H 0.6049 0.9582 0.6756
O14_2 O 0.70325(12) 0.94941(13) 0.62254(15)
Eu6_2 Eu 0.689113(7) 0.856745(8) 0.498157(9)
N4_2 N -0.0000 0.0747(2) 0.7500
O11_2 O 0.05721(13) 0.10894(14) 0.79075(19)
C3_3 C 0.0394(2) 0.6698(2) 0.4706(3)
H2_3 H 0.0796 0.6874 0.4655
H3_3 H 0.0105 0.6351 0.4191
H4_3 H 0.0557 0.6415 0.5286
C4_3 C 0.0201(3) 0.8155(3) 0.4509(4)
H5_3 H 0.0634 0.8092 0.4489
H6_3 H 0.0277 0.8519 0.5002
C16_2 C -0.0000 0.9867(2) 0.7500
C19_2 C -0.0000 0.8244(3) 0.7500
H19_2 H -0.0000 0.7690 0.7500
C34_2 C 0.12943(16) 0.82118(18) 0.8774(2)
C35_2 C 0.06259(16) 0.94774(18) 0.8092(2)
H37_2 H 0.1040 0.9760 0.8472
C36_2 C 0.06194(16) 0.86517(17) 0.8104(2)
O17_2 O 0.18573(11) 0.86144(12) 0.91401(15)
O21_2 O 0.12390(11) 0.74878(12) 0.89108(15)
N4_3 N 1.0000 0.0747(2) 0.7500
H27_3 H 0.5962 0.0302 0.3262
C26_3 C 0.5631(2) 0.0097(2) 0.1555(3)
H32_3 H 0.5235 0.0432 0.1434
H33_3 H 0.6049 0.0418 0.1756
O28_2 O 0.94279(13) 0.10894(14) 0.70925(19)
C1_3 C 0.75438(16) 0.81811(18) 0.3593(2)
C2_3 C 0.93937(18) 0.7307(2) 0.4746(2)
H1_3 H 0.9153 0.7770 0.4734
H7_3 H 0.9838 0.8362 0.3919
C5_3 C 0.91027(17) 0.5241(2) 0.6868(2)
H8_3 H 0.9038 0.4698 0.6738
C6_3 C 0.9348(2) 0.6316(2) 0.7977(2)
H9_3 H 0.9451 0.6369 0.8615
H10_3 H 0.8921 0.6604 0.7572
H11_3 H 0.9736 0.6527 0.7916
C7_3 C 0.9369(2) 0.4903(2) 0.8445(3)
H12_3 H 0.9469 0.5183 0.9009
H13_3 H 0.9765 0.4568 0.8566
H14_3 H 0.8951 0.4582 0.8244
C8_3 C 0.72491(16) 0.99419(18) 0.0921(2)
C9_3 C 0.76514(16) 0.83356(18) 0.2765(2)
C10_3 C 0.74085(16) 0.90410(18) 0.2249(2)
H15_3 H 0.7190 0.9425 0.2430
C11_3 C 0.74893(16) 0.91768(18) 0.1469(2)
C12_3 C 0.78150(17) 0.86030(18) 0.1198(2)
H16_3 H 0.7862 0.8679 0.0669
C13_3 C 0.80666(17) 0.79199(18) 0.1727(2)
C14_3 C 0.79923(16) 0.77697(18) 0.2506(2)
H17_3 H 0.8166 0.7301 0.2847
C15_2 C 0.87057(16) 0.82118(18) 0.6226(2)
C16_3 C 1.0000 0.9867(2) 0.7500
C17_2 C 0.93741(16) 0.94774(18) 0.6908(2)
H18_2 H 0.8960 0.9760 0.6528
C18_2 C 0.93806(16) 0.86517(17) 0.6896(2)
C19_3 C 1.0000 0.8244(3) 0.7500
H19_3 H 1.0000 0.7690 0.7500
N1_3 N 0.92502(15) 0.54759(17) 0.7714(2)
N2_3 N 0.99763(15) 0.73834(17) 0.4687(2)
N3_3 N 0.84372(16) 0.73308(17) 0.1455(2)
O1_3 O 0.91426(12) 0.66620(14) 0.48163(16)
O2_3 O 0.90438(12) 0.56943(13) 0.62310(15)
O4_2 O 0.81427(11) 0.86144(12) 0.58599(15)
O5_3 O 0.77781(12) 0.75357(13) 0.40228(15)
O6_3 O 0.72239(12) 0.87031(13) 0.37908(15)
O7_2 O 0.87610(11) 0.74878(12) 0.60892(15)
O8_3 O 0.83832(15) 0.73935(16) 0.06816(18)
O10_3 O 0.87763(18) 0.68061(17) 0.2015(2)
C20_3 C 0.74562(16) 0.68189(18) 0.6407(2)
C21_3 C 0.56063(18) 0.7693(2) 0.5254(2)
H20_3 H 0.5847 0.7230 0.5266
C22_2 C 0.4606(2) 0.8302(2) 0.5294(3)
H21_2 H 0.4204 0.8126 0.5345
H22_2 H 0.4895 0.8649 0.5809
H23_3 H 0.4443 0.8585 0.4714
C23_2 C 0.4799(3) 0.6845(3) 0.5491(4)
H24_2 H 0.4366 0.6908 0.5511
H25_3 H 0.4723 0.6481 0.4998
H26_3 H 0.5162 0.6638 0.6081
C24_3 C 0.58973(17) 0.9759(2) 0.3132(2)
C25_3 C 0.5652(2) 0.8684(2) 0.2023(2)
H28_3 H 0.5549 0.8631 0.1385
H29_3 H 0.6079 0.8396 0.2428
H30_3 H 0.5264 0.8473 0.2084
H31_3 H 0.5531 0.9817 0.0991
C27_3 C 0.77509(16) 0.50581(18) 0.9079(2)
C28_3 C 0.73486(16) 0.66644(18) 0.7235(2)
C29_3 C 0.75915(16) 0.59590(18) 0.7751(2)
H34_3 H 0.7810 0.5575 0.7570
C30_3 C 0.75107(16) 0.58232(18) 0.8531(2)
C31_3 C 0.71850(17) 0.63970(18) 0.8802(2)
H35_3 H 0.7138 0.6321 0.9331
C32_3 C 0.69334(17) 0.70801(18) 0.8273(2)
C33_3 C 0.70077(16) 0.72303(18) 0.7494(2)
H36_3 H 0.6834 0.7699 0.7153
N5_3 N 0.57498(15) 0.95241(17) 0.2286(2)
N6_3 N 0.50237(15) 0.76166(17) 0.5313(2)
N7_3 N 0.65628(16) 0.76692(17) 0.8545(2)
O12_3 O 0.58574(12) 0.83380(14) 0.51837(16)
O13_3 O 0.59562(12) 0.93057(13) 0.37690(15)
O18_3 O 0.68573(11) 0.63856(12) 0.41401(15)
O19_3 O 0.72219(12) 0.74643(13) 0.59772(15)
O20_3 O 0.77761(12) 0.62969(13) 0.62092(15)
O22_3 O 0.62390(11) 0.75122(12) 0.39108(15)
O23_3 O 0.66168(15) 0.76065(16) 0.93184(18)
O27_3 O 0.62237(18) 0.81939(17) 0.7985(2)
H27_4 H 0.4038 0.0302 0.1738
C26_4 C 0.4369(2) 0.0097(2) 0.3445(3)
H32_4 H 0.4765 0.0432 0.3566
H33_4 H 0.3951 0.0418 0.3244
C1_4 C 0.24562(16) 0.81811(18) 0.1407(2)
C2_4 C 0.06063(18) 0.7307(2) 0.0254(2)
H1_4 H 0.0847 0.7770 0.0266
H7_4 H 0.0162 0.8362 0.1081
C8_4 C 0.27509(16) 0.99419(18) 0.4079(2)
C9_4 C 0.23486(16) 0.83356(18) 0.2235(2)
C10_4 C 0.25915(16) 0.90410(18) 0.2751(2)
H15_4 H 0.2810 0.9425 0.2570
C11_4 C 0.25107(16) 0.91768(18) 0.3531(2)
C12_4 C 0.21850(17) 0.86030(18) 0.3802(2)
H16_4 H 0.2138 0.8679 0.4331
C13_4 C 0.19334(17) 0.79199(18) 0.3273(2)
C14_4 C 0.20077(16) 0.77697(18) 0.2494(2)
H17_4 H 0.1834 0.7301 0.2153
N2_4 N 0.00237(15) 0.73834(17) 0.0313(2)
N3_4 N 0.15628(16) 0.73308(17) 0.3545(2)
O1_4 O 0.08574(12) 0.66620(14) 0.01837(16)
O5_4 O 0.22219(12) 0.75357(13) 0.09772(15)
O6_4 O 0.27761(12) 0.87031(13) 0.12092(15)
O8_4 O 0.16168(15) 0.73935(16) 0.43184(18)
O10_4 O 0.12237(18) 0.68061(17) 0.2985(2)
H23_4 H 0.5557 0.8585 0.0286
H25_4 H 0.5277 0.6481 0.0002
C24_4 C 0.41027(17) 0.9759(2) 0.1868(2)
C25_4 C 0.4348(2) 0.8684(2) 0.2977(2)
H28_4 H 0.4451 0.8631 0.3615
H29_4 H 0.3921 0.8396 0.2572
H30_4 H 0.4736 0.8473 0.2916
H31_4 H 0.4469 0.9817 0.4009
N5_4 N 0.42502(15) 0.95241(17) 0.2714(2)
O13_4 O 0.40438(12) 0.93057(13) 0.12310(15)
O18_4 O 0.31427(11) 0.63856(12) 0.08599(15)
O22_4 O 0.37610(11) 0.75122(12) 0.10892(15)
C5_4 C 0.08973(17) 0.5241(2) 0.8132(2)
H8_4 H 0.0962 0.4698 0.8262
C6_4 C 0.0652(2) 0.6316(2) 0.7023(2)
H9_4 H 0.0549 0.6369 0.6385
H10_4 H 0.1079 0.6604 0.7428
H11_4 H 0.0264 0.6527 0.7084
C7_4 C 0.0631(2) 0.4903(2) 0.6555(3)
H12_4 H 0.0531 0.5183 0.5991
H13_4 H 0.0235 0.4568 0.6434
H14_4 H 0.1049 0.4582 0.6756
N1_4 N 0.07498(15) 0.54759(17) 0.7286(2)
O2_4 O 0.09562(12) 0.56943(13) 0.87690(15)
C20_4 C 0.25438(16) 0.68189(18) 0.8593(2)
C21_4 C 0.43937(18) 0.7693(2) 0.9746(2)
H20_4 H 0.4153 0.7230 0.9734
C22_3 C 0.5394(2) 0.8302(2) 0.9706(3)
H21_3 H 0.5796 0.8126 0.9655
H22_3 H 0.5105 0.8649 0.9191
C23_3 C 0.5201(3) 0.6845(3) 0.9509(4)
H24_3 H 0.5634 0.6908 0.9489
H26_4 H 0.4838 0.6638 0.8919
C27_4 C 0.22491(16) 0.50581(18) 0.5921(2)
C28_4 C 0.26514(16) 0.66644(18) 0.7765(2)
C29_4 C 0.24085(16) 0.59590(18) 0.7249(2)
H34_4 H 0.2190 0.5575 0.7430
C30_4 C 0.24893(16) 0.58232(18) 0.6469(2)
C31_4 C 0.28150(17) 0.63970(18) 0.6198(2)
H35_4 H 0.2862 0.6321 0.5669
C32_4 C 0.30666(17) 0.70801(18) 0.6727(2)
C33_4 C 0.29923(16) 0.72303(18) 0.7506(2)
H36_4 H 0.3166 0.7699 0.7847
N6_4 N 0.49763(15) 0.76166(17) 0.9687(2)
N7_4 N 0.34372(16) 0.76692(17) 0.6455(2)
O12_4 O 0.41426(12) 0.83380(14) 0.98163(16)
O19_4 O 0.27781(12) 0.74643(13) 0.90228(15)
O20_4 O 0.22239(12) 0.62969(13) 0.87908(15)
O23_4 O 0.33832(15) 0.76065(16) 0.56816(18)
O27_4 O 0.37763(18) 0.81939(17) 0.7015(2)
H4_4 H 0.9443 0.6415 0.9714
H6_4 H 0.9723 0.8519 0.9998
C15_3 C 0.62943(16) 0.67882(18) 0.3774(2)
C16_4 C 0.5000 0.5133(2) 0.2500
C17_3 C 0.56259(16) 0.55226(18) 0.3092(2)
H18_3 H 0.6040 0.5240 0.3472
C18_3 C 0.56194(16) 0.63483(17) 0.3104(2)
C19_4 C 0.5000 0.6756(3) 0.2500
H19_4 H 0.5000 0.7310 0.2500
N4_4 N 0.5000 0.4253(2) 0.2500
O11_3 O 0.44279(13) 0.39106(14) 0.20925(19)
C34_3 C 0.37057(16) 0.67882(18) 0.1226(2)
C35_3 C 0.43741(16) 0.55226(18) 0.1908(2)
H37_3 H 0.3960 0.5240 0.1528
C36_3 C 0.43806(16) 0.63483(17) 0.1896(2)
O28_3 O 0.55721(13) 0.39106(14) 0.29075(19)
C15_4 C 0.12943(16) 0.17882(18) 0.3774(2)
C16_5 C -0.0000 0.0133(2) 0.2500
C17_4 C 0.06259(16) 0.05226(18) 0.3092(2)
H18_4 H 0.1040 0.0240 0.3472
C18_4 C 0.06194(16) 0.13483(17) 0.3104(2)
C19_5 C -0.0000 0.1756(3) 0.2500
H19_5 H 0.0000 0.2310 0.2500
N4_5 N -0.0000 0.9253(2) 0.2500
O28_4 O 0.05721(13) 0.89106(14) 0.29075(19)
C16_6 C 1.0000 0.0133(2) 0.2500
C19_6 C 1.0000 0.1756(3) 0.2500
H19_6 H 1.0000 0.2310 0.2500
C34_4 C 0.87057(16) 0.17882(18) 0.1226(2)
C35_4 C 0.93741(16) 0.05226(18) 0.1908(2)
H37_4 H 0.8960 0.0240 0.1528
C36_4 C 0.93806(16) 0.13483(17) 0.1896(2)
N4_6 N 1.0000 0.9253(2) 0.2500
O11_4 O 0.94279(13) 0.89106(14) 0.20925(19)
C22_4 C 0.0394(2) 0.3302(2) 0.9706(3)
H21_4 H 0.0796 0.3126 0.9655
H22_4 H 0.0105 0.3649 0.9191
C23_4 C 0.0201(3) 0.1845(3) 0.9509(4)
H24_4 H 0.0634 0.1908 0.9489
C3_4 C 0.9606(2) 0.6698(2) 0.0294(3)
H2_4 H 0.9204 0.6874 0.0345
H3_4 H 0.9895 0.6351 0.0809
C4_4 C 0.9799(3) 0.8155(3) 0.0491(4)
H5_4 H 0.9366 0.8092 0.0511
loop_
_geom_bond_atom_site_label_1
_geom_bond_atom_site_label_2
_geom_bond_site_symmetry_1
_geom_bond_site_symmetry_2
C1 C9 1_555 1_555
C2 H1 1_555 1_555
C3 H2 1_555 1_555
H3 C3 1_555 1_555
H4 C3 1_555 1_555
C4 H5 1_555 1_555
H6 C4 1_555 1_555
H7 C4 1_555 1_555
C6 H9 1_555 1_555
H10 C6 1_555 1_555
H11 C6 1_555 1_555
C8 C11 1_555 1_555
C9 C10 1_555 1_555
C10 H15 1_555 1_555
C11 C10 1_555 1_555
C12 C11 1_555 1_555
H16 C12 1_555 1_555
C13 C12 1_555 1_555
C14 C9 1_555 1_555
H17 C14 1_555 1_555
C15 C18 1_555 1_555
C16 C17 1_555 1_555
C17 H18 1_555 1_555
C18 C17 1_555 1_555
C19 C18 1_555 1_555
H19 C19 1_555 1_555
N1 C5 1_555 1_555
N2 C2 1_555 1_555
N3 C13 1_555 1_555
N4 C16 1_555 1_555
O1 C2 1_555 1_555
O2 C5 1_555 1_555
O3 C8 1_555 1_555
O4 C15 1_555 1_555
O5 C1 1_555 1_555
O6 C1 1_555 1_555
O7 C15 1_555 1_555
O8 N3 1_555 1_555
O9 C8 1_555 1_555
O10 N3 1_555 1_555
O11 N4 1_555 1_555
Eu1 O1 1_555 1_555
C20 C28 1_555 1_555
C21 H20 1_555 1_555
C24 H27 1_555 1_555
C25 H28 1_555 1_555
H29 C25 1_555 1_555
H30 C25 1_555 1_555
C26 H31 1_555 1_555
H32 C26 1_555 1_555
H33 C26 1_555 1_555
C27 C30 1_555 1_555
C28 C29 1_555 1_555
C29 H34 1_555 1_555
C30 C29 1_555 1_555
C31 C30 1_555 1_555
H35 C31 1_555 1_555
C32 C31 1_555 1_555
C33 C28 1_555 1_555
H36 C33 1_555 1_555
C34 C36 1_555 1_555
C35 C16 1_555 1_555
H37 C35 1_555 1_555
C36 C19 1_555 1_555
N5 C24 1_555 1_555
N6 C21 1_555 1_555
N7 C32 1_555 1_555
O12 C21 1_555 1_555
O13 C24 1_555 1_555
O15 Eu1 1_555 1_555
O16 Eu2 1_555 1_555
O17 C34 1_555 1_555
O18 Eu1 1_555 1_555
O19 C20 1_555 1_555
O20 Eu1 1_555 1_555
O21 C34 1_555 1_555
O22 Eu2 1_555 1_555
O23 N7 1_555 1_555
O24 C27 1_555 1_555
O26 Eu2 1_555 1_555
O27 N7 1_555 1_555
O28 N4 1_555 1_555
Eu2 O4 1_555 1_555
Eu5 O21 1_555 1_555
C3 N2 1_555 1_555
C4 N2 1_555 1_555
C6 N1 1_555 1_555
C13 C14 1_555 1_555
O2 Eu1 1_555 1_555
O5 Eu1 1_555 1_555
O6 Eu2 1_555 1_555
O7 Eu1 1_555 1_555
C20 O20 1_555 1_555
C25 N5 1_555 1_555
C26 N5 1_555 1_555
C32 C33 1_555 1_555
C35 C36 1_555 1_555
O12 Eu2 1_555 1_555
O13 Eu2 1_555 1_555
O19 Eu2 1_555 1_555
H13 C7 1_555 1_555
H14 C7 1_555 1_555
C22 H21 1_555 1_555
H22 C22 1_555 1_555
H23 C22 1_555 1_555
C23 H24 1_555 1_555
H25 C23 1_555 1_555
C1_2 C9_2 1_555 1_555
C2_2 H1_2 1_555 1_555
C3_2 H2_2 1_555 1_555
H3_2 C3_2 1_555 1_555
C4_2 H5_2 1_555 1_555
H7_2 C4_2 1_555 1_555
C8_2 C11_2 1_555 1_555
C9_2 C10_2 1_555 1_555
C10_2 H15_2 1_555 1_555
C11_2 C10_2 1_555 1_555
C12_2 C11_2 1_555 1_555
H16_2 C12_2 1_555 1_555
C13_2 C12_2 1_555 1_555
C14_2 C9_2 1_555 1_555
H17_2 C14_2 1_555 1_555
N2_2 C2_2 1_555 1_555
N3_2 C13_2 1_555 1_555
O1_2 C2_2 1_555 1_555
O3_2 C8_2 1_555 1_555
O5_2 C1_2 1_555 1_555
O6_2 C1_2 1_555 1_555
O8_2 N3_2 1_555 1_555
O9_2 C8_2 1_555 1_555
O10_2 N3_2 1_555 1_555
C24_2 H27_2 1_555 1_555
C25_2 H28_2 1_555 1_555
H29_2 C25_2 1_555 1_555
H30_2 C25_2 1_555 1_555
C26_2 H31_2 1_555 1_555
H32_2 C26_2 1_555 1_555
H33_2 C26_2 1_555 1_555
N5_2 C24_2 1_555 1_555
O13_2 C24_2 1_555 1_555
O22_2 Eu4 1_555 1_555
Eu3_2 O3_2 1_555 1_555
C3_2 N2_2 1_555 1_555
C4_2 N2_2 1_555 1_555
C13_2 C14_2 1_555 1_555
O6_2 Eu4 1_555 1_555
O9_2 Eu3_2 1_555 1_555
C25_2 N5_2 1_555 1_555
C26_2 N5_2 1_555 1_555
O13_2 Eu4 1_555 1_555
C6_2 H9_2 1_555 1_555
H10_2 C6_2 1_555 1_555
H11_2 C6_2 1_555 1_555
N1_2 C5_2 1_555 1_555
O2_2 C5_2 1_555 1_555
C20_2 C28_2 1_555 1_555
C21_2 H20_2 1_555 1_555
C27_2 C30_2 1_555 1_555
C28_2 C29_2 1_555 1_555
C29_2 H34_2 1_555 1_555
C30_2 C29_2 1_555 1_555
C31_2 C30_2 1_555 1_555
H35_2 C31_2 1_555 1_555
C32_2 C31_2 1_555 1_555
C33_2 C28_2 1_555 1_555
H36_2 C33_2 1_555 1_555
N6_2 C21_2 1_555 1_555
N7_2 C32_2 1_555 1_555
O12_2 C21_2 1_555 1_555
O19_2 C20_2 1_555 1_555
O20_2 Eu5 1_555 1_555
O23_2 N7_2 1_555 1_555
O24_2 C27_2 1_555 1_555
O27_2 N7_2 1_555 1_555
C6_2 N1_2 1_555 1_555
O2_2 Eu5 1_555 1_555
C20_2 O20_2 1_555 1_555
C32_2 C33_2 1_555 1_555
H13_2 C7_2 1_555 1_555
H14_2 C7_2 1_555 1_555
Eu6_2 O14_2 1_555 1_555
O11_2 N4_2 1_555 1_555
C3_3 H2_3 1_555 1_555
H3_3 C3_3 1_555 1_555
H4_3 C3_3 1_555 1_555
C4_3 H5_3 1_555 1_555
H6_3 C4_3 1_555 1_555
H19_2 C19_2 1_555 1_555
C34_2 C36_2 1_555 1_555
C35_2 C16_2 1_555 1_555
H37_2 C35_2 1_555 1_555
C36_2 C19_2 1_555 1_555
O17_2 C34_2 1_555 1_555
O21_2 C34_2 1_555 1_555
Eu3 O21_2 1_555 1_555
C35_2 C36_2 1_555 1_555
H32_3 C26_3 1_555 1_555
H33_3 C26_3 1_555 1_555
O28_2 N4_3 1_555 1_555
C1_3 C9_3 1_555 1_555
C2_3 H1_3 1_555 1_555
C5_3 H8_3 1_555 1_555
C6_3 H9_3 1_555 1_555
H10_3 C6_3 1_555 1_555
H11_3 C6_3 1_555 1_555
C7_3 H12_3 1_555 1_555
H13_3 C7_3 1_555 1_555
H14_3 C7_3 1_555 1_555
C8_3 C11_3 1_555 1_555
C9_3 C10_3 1_555 1_555
C10_3 H15_3 1_555 1_555
C11_3 C10_3 1_555 1_555
C12_3 C11_3 1_555 1_555
H16_3 C12_3 1_555 1_555
C13_3 C12_3 1_555 1_555
C14_3 C9_3 1_555 1_555
H17_3 C14_3 1_555 1_555
C15_2 C18_2 1_555 1_555
C16_3 C17_2 1_555 1_555
C17_2 H18_2 1_555 1_555
C18_2 C17_2 1_555 1_555
C19_3 C18_2 1_555 1_555
H19_3 C19_3 1_555 1_555
N1_3 C5_3 1_555 1_555
N2_3 C2_3 1_555 1_555
N3_3 C13_3 1_555 1_555
O1_3 C2_3 1_555 1_555
O2_3 C5_3 1_555 1_555
O4_2 C15_2 1_555 1_555
O5_3 C1_3 1_555 1_555
O6_3 C1_3 1_555 1_555
O7_2 C15_2 1_555 1_555
O8_3 N3_3 1_555 1_555
O25_2 C8_3 1_555 1_555
O10_3 N3_3 1_555 1_555
Eu3_2 O1_3 1_555 1_555
C20_3 C28_3 1_555 1_555
C21_3 H20_3 1_555 1_555
C22_2 H21_2 1_555 1_555
H22_2 C22_2 1_555 1_555
H23_3 C22_2 1_555 1_555
C23_2 H24_2 1_555 1_555
H25_3 C23_2 1_555 1_555
H26_3 C23_2 1_555 1_555
C25_3 H28_3 1_555 1_555
H29_3 C25_3 1_555 1_555
H30_3 C25_3 1_555 1_555
C27_3 C30_3 1_555 1_555
C28_3 C29_3 1_555 1_555
C29_3 H34_3 1_555 1_555
C30_3 C29_3 1_555 1_555
C31_3 C30_3 1_555 1_555
H35_3 C31_3 1_555 1_555
C32_3 C31_3 1_555 1_555
C33_3 C28_3 1_555 1_555
H36_3 C33_3 1_555 1_555
N5_3 C24_3 1_555 1_555
N6_3 C21_3 1_555 1_555
N7_3 C32_3 1_555 1_555
O12_3 C21_3 1_555 1_555
O13_3 C24_3 1_555 1_555
O16_2 C27_3 1_555 1_555
O18_3 Eu3_2 1_555 1_555
O19_3 C20_3 1_555 1_555
O20_3 Eu3_2 1_555 1_555
O22_3 Eu6_2 1_555 1_555
O23_3 N7_3 1_555 1_555
O26_2 C27_3 1_555 1_555
O27_3 N7_3 1_555 1_555
Eu6_2 O4_2 1_555 1_555
C6_3 N1_3 1_555 1_555
C7_3 N1_3 1_555 1_555
C13_3 C14_3 1_555 1_555
O2_3 Eu3_2 1_555 1_555
O5_3 Eu3_2 1_555 1_555
O6_3 Eu6_2 1_555 1_555
O7_2 Eu3_2 1_555 1_555
C20_3 O20_3 1_555 1_555
C22_2 N6_3 1_555 1_555
C23_2 N6_3 1_555 1_555
C25_3 N5_3 1_555 1_555
C32_3 C33_3 1_555 1_555
O12_3 Eu6_2 1_555 1_555
O13_3 Eu6_2 1_555 1_555
O19_3 Eu6_2 1_555 1_555
H32_4 C26_4 1_555 1_555
H33_4 C26_4 1_555 1_555
C1_4 C9_4 1_555 1_555
C2_4 H1_4 1_555 1_555
C8_4 C11_4 1_555 1_555
C9_4 C10_4 1_555 1_555
C10_4 H15_4 1_555 1_555
C11_4 C10_4 1_555 1_555
C12_4 C11_4 1_555 1_555
H16_4 C12_4 1_555 1_555
C13_4 C12_4 1_555 1_555
C14_4 C9_4 1_555 1_555
H17_4 C14_4 1_555 1_555
N2_4 C2_4 1_555 1_555
N3_4 C13_4 1_555 1_555
O1_4 C2_4 1_555 1_555
O5_4 C1_4 1_555 1_555
O6_4 C1_4 1_555 1_555
O8_4 N3_4 1_555 1_555
O25 C8_4 1_555 1_555
O10_4 N3_4 1_555 1_555
C25_4 H28_4 1_555 1_555
H29_4 C25_4 1_555 1_555
H30_4 C25_4 1_555 1_555
N5_4 C24_4 1_555 1_555
O13_4 C24_4 1_555 1_555
O22_4 Eu6 1_555 1_555
C13_4 C14_4 1_555 1_555
O6_4 Eu6 1_555 1_555
C25_4 N5_4 1_555 1_555
O13_4 Eu6 1_555 1_555
C5_4 H8_4 1_555 1_555
C6_4 H9_4 1_555 1_555
H10_4 C6_4 1_555 1_555
H11_4 C6_4 1_555 1_555
C7_4 H12_4 1_555 1_555
H13_4 C7_4 1_555 1_555
H14_4 C7_4 1_555 1_555
N1_4 C5_4 1_555 1_555
O2_4 C5_4 1_555 1_555
C20_4 C28_4 1_555 1_555
C21_4 H20_4 1_555 1_555
C22_3 H21_3 1_555 1_555
H22_3 C22_3 1_555 1_555
C23_3 H24_3 1_555 1_555
H26_4 C23_3 1_555 1_555
C27_4 C30_4 1_555 1_555
C28_4 C29_4 1_555 1_555
C29_4 H34_4 1_555 1_555
C30_4 C29_4 1_555 1_555
C31_4 C30_4 1_555 1_555
H35_4 C31_4 1_555 1_555
C32_4 C31_4 1_555 1_555
C33_4 C28_4 1_555 1_555
H36_4 C33_4 1_555 1_555
N6_4 C21_4 1_555 1_555
N7_4 C32_4 1_555 1_555
O12_4 C21_4 1_555 1_555
O16 C27_4 1_555 1_555
O19_4 C20_4 1_555 1_555
O20_4 Eu3 1_555 1_555
O23_4 N7_4 1_555 1_555
O26 C27_4 1_555 1_555
O27_4 N7_4 1_555 1_555
C6_4 N1_4 1_555 1_555
C7_4 N1_4 1_555 1_555
O2_4 Eu3 1_555 1_555
C20_4 O20_4 1_555 1_555
C22_3 N6_4 1_555 1_555
C23_3 N6_4 1_555 1_555
C32_4 C33_4 1_555 1_555
C15_3 C18_3 1_555 1_555
C16_4 C17_3 1_555 1_555
C17_3 H18_3 1_555 1_555
C18_3 C17_3 1_555 1_555
C19_4 C18_3 1_555 1_555
H19_4 C19_4 1_555 1_555
N4_4 C16_4 1_555 1_555
O18_3 C15_3 1_555 1_555
O22_3 C15_3 1_555 1_555
O11_3 N4_4 1_555 1_555
C34_3 C36_3 1_555 1_555
C35_3 C16_4 1_555 1_555
H37_3 C35_3 1_555 1_555
C36_3 C19_4 1_555 1_555
O18_4 C34_3 1_555 1_555
O22_4 C34_3 1_555 1_555
O28_3 N4_4 1_555 1_555
C35_3 C36_3 1_555 1_555
C15_4 C18_4 1_555 1_555
C16_5 C17_4 1_555 1_555
C17_4 H18_4 1_555 1_555
C18_4 C17_4 1_555 1_555
C19_5 C18_4 1_555 1_555
H19_5 C19_5 1_555 1_555
O18 C15_4 1_555 1_555
O22 C15_4 1_555 1_555
O28_4 N4_5 1_555 1_555
H19_6 C19_6 1_555 1_555
C34_4 C36_4 1_555 1_555
C35_4 C16_6 1_555 1_555
H37_4 C35_4 1_555 1_555
C36_4 C19_6 1_555 1_555
O18_2 C34_4 1_555 1_555
O22_2 C34_4 1_555 1_555
C35_4 C36_4 1_555 1_555
O11_4 N4_6 1_555 1_555
C22_4 H21_4 1_555 1_555
H22_4 C22_4 1_555 1_555
C23_4 H24_4 1_555 1_555
C3_4 H2_4 1_555 1_555
H3_4 C3_4 1_555 1_555
C4_4 H5_4 1_555 1_555

#END
