
###############################################################################
#
# This file contains modified crystal structure data generated from the
# MOF subset of the Cambridge Structural Database (CSD) v543 
# hosted by the Cambridge Crystallographic Data Centre (CCDC).
#
# This work is licensed under the Creative Commons
# Attribution-NonCommercial-ShareAlike 4.0 International License.
# To view a copy of this license, visit
# http://creativecommons.org/licenses/by-nc-sa/4.0/
# or send a letter to
# Creative Commons, PO Box 1866, Mountain View, CA 94042, USA.
#
# CIF created using the CSD Python API on 29 September 2022
# The structure has been converted into the P1 space group
# The structure has a 3D framework
# The original CSD entry KABXES is in the monoclinic crystal system
# The framework has been calculated to contain at least 10.0% void space
# The void calculation uses a probe of radius 1.32A, grid spacing 0.4
#
###############################################################################

data_KABXES
_chemical_formula_moiety         '(C148 H150 N30 O88 Sm8)n'
_symmetry_cell_setting           triclinic
_symmetry_space_group_name_H-M   'P 1'
_symmetry_Int_Tables_number      1
_space_group_name_Hall           'P 1'
loop_
_symmetry_equiv_pos_site_id
_symmetry_equiv_pos_as_xyz
1 x,y,z
_cell_length_a                   21.6771(6)
_cell_length_b                   16.8297(5)
_cell_length_c                   16.4199(5)
_cell_angle_alpha                90
_cell_angle_beta                 119.54
_cell_angle_gamma                90
_cell_volume                     5211.63
loop_
_atom_site_label
_atom_site_type_symbol
_atom_site_fract_x
_atom_site_fract_y
_atom_site_fract_z
C33 C 0.0194(2) 0.1844(2) 0.4505(3)
C34 C 0.03862(16) 0.32962(18) 0.4696(2)
H32 H 0.069(2) 0.175(2) 0.499(3)
H33 H 0.017(2) 0.187(2) 0.388(3)
H34 H 0.0346(17) 0.3371(19) 0.407(3)
H35 H 0.0900(18) 0.319(2) 0.515(2)
H36 H 0.0223(15) 0.3758(17) 0.484(2)
C1 C 0.25461(10) 0.68168(12) 0.35894(14)
C2 C 0.26505(10) 0.66639(12) 0.27614(14)
C3 C 0.24908(10) 0.58253(12) 0.14715(14)
C4 C 0.22482(10) 0.50612(12) 0.09214(14)
C5 C 0.28168(11) 0.63979(12) 0.12004(15)
C6 C 0.43811(10) 0.36485(11) 0.18991(14)
C7 C 0.37101(10) 0.32123(12) 0.12307(14)
C8 C 0.43769(10) 0.44740(12) 0.19103(14)
C9 C 0.24119(10) 0.59619(12) 0.22498(14)
C10 C 0.29923(11) 0.72271(12) 0.25064(15)
C11 C 0.30649(11) 0.70770(12) 0.17291(15)
N1 N 0.34334(10) 0.76685(11) 0.14563(15)
C12 C 0.5000 0.32408(17) 0.2500
C13 C 0.5000 0.48656(16) 0.2500
N2 N 0.5000 0.57394(14) 0.2500
C18 C 0.06114(11) 0.26890(15) 0.02582(16)
H1 H 0.2208(11) 0.5577(13) 0.2460(15)
H2 H 0.3146(11) 0.7682(14) 0.2832(15)
H3 H 0.2880(13) 0.6319(14) 0.0702(18)
H4 H 0.4016(12) 0.4739(13) 0.1561(16)
H5 H 0.5000 0.2702(19) 0.2500
H13 H 0.012(2) 0.143(2) 0.050(3)
H19 H 0.0839(13) 0.2181(16) 0.0264(17)
N3 N 0.00265(10) 0.26123(12) 0.03188(15)
O1 O 0.31489(7) 0.36123(8) 0.08672(10)
O3 O 0.22264(7) 0.62934(8) 0.37879(10)
O4 O 0.22779(8) 0.50069(8) 0.01779(10)
O5 O 0.37640(7) 0.24893(8) 0.10943(10)
O6 O 0.27783(8) 0.74589(9) 0.40228(10)
O7 O 0.20329(8) 0.45007(9) 0.12286(10)
O8 O 0.08561(8) 0.33334(9) 0.01873(11)
O9 O 0.37703(12) 0.81910(11) 0.20143(16)
O10 O 0.33826(10) 0.76025(11) 0.06874(13)
O11 O 0.44309(8) 0.60829(9) 0.20880(13)
C20 C 0.74539(10) 0.68168(12) 0.14106(14)
C21 C 0.73495(10) 0.66639(12) 0.22386(14)
C22 C 0.75092(10) 0.58253(12) 0.35285(14)
C23 C 0.77518(10) 0.50612(12) 0.40786(14)
C24 C 0.71832(11) 0.63979(12) 0.37996(15)
C25 C 0.56189(10) 0.36485(11) 0.31009(14)
C26 C 0.62899(10) 0.32123(12) 0.37693(14)
C27 C 0.56231(10) 0.44740(12) 0.30897(14)
C28 C 0.75881(10) 0.59619(12) 0.27502(14)
C29 C 0.70077(11) 0.72271(12) 0.24936(15)
C30 C 0.69351(11) 0.70770(12) 0.32709(15)
N5 N 0.65666(10) 0.76685(11) 0.35437(15)
C31 C 0.91028(11) 0.47620(14) 0.68758(16)
C32 C 0.93461(14) 0.36892(15) 0.79766(19)
C35 C 0.93886(11) 0.26890(15) 0.47418(16)
C36 C 0.93671(16) 0.50933(19) 0.8448(2)
H20 H 0.7792(11) 0.5577(13) 0.2540(15)
H21 H 0.6854(11) 0.7682(14) 0.2168(15)
H22 H 0.7120(13) 0.6319(14) 0.4298(18)
H23 H 0.5984(12) 0.4739(13) 0.3439(16)
H24 H 0.9078(13) 0.5340(16) 0.6789(18)
H25 H 0.9293(17) 0.562(2) 0.819(2)
H26 H 0.9052(16) 0.4978(18) 0.871(2)
H27 H 0.9870(16) 0.5037(17) 0.898(2)
H28 H 0.9854(15) 0.3614(14) 0.849(2)
H29 H 0.9262(14) 0.3341(16) 0.744(2)
H30 H 0.9029(15) 0.3527(15) 0.823(2)
H31 H 0.988(2) 0.143(2) 0.450(3)
H37 H 0.9161(13) 0.2181(16) 0.4736(17)
N6 N 0.99735(10) 0.26123(12) 0.46812(15)
N7 N 0.92496(10) 0.45265(12) 0.77147(13)
O12 O 0.68511(7) 0.36123(8) 0.41328(10)
O13 O 0.90426(7) 0.43113(9) 0.62370(10)
O14 O 0.77736(7) 0.62934(8) 0.12121(10)
O15 O 0.77736(7) 0.37066(8) 0.62121(10)
O17 O 0.77221(8) 0.50069(8) 0.48221(10)
O18 O 0.62360(7) 0.24893(8) 0.39057(10)
O20 O 0.87640(7) 0.25107(8) 0.60943(10)
O21 O 0.72217(8) 0.74589(9) 0.09772(10)
O22 O 0.77783(8) 0.24589(9) 0.40228(10)
O23 O 0.22217(8) 0.24589(9) 0.09772(10)
O24 O 0.79671(8) 0.45007(9) 0.37714(10)
O25 O 0.91439(8) 0.33334(9) 0.48127(11)
O26 O 0.62297(12) 0.81910(11) 0.29857(16)
O27 O 0.66174(10) 0.76025(11) 0.43126(13)
O28 O 0.55691(8) 0.60829(9) 0.29120(13)
Sm2 Sm 0.810730(5) 0.356706(5) 0.501753(6)
Sm4 Sm 0.310730(5) 0.856706(5) 0.501753(6)
Sm5 Sm 0.810730(5) 0.643294(5) 0.001753(6)
Sm6 Sm 0.189270(5) 0.643294(5) 0.498247(6)
Sm7 Sm 0.310730(5) 0.143294(5) 0.001753(6)
Sm8 Sm 0.689270(5) 0.143294(5) 0.498247(6)
C14 C 0.08972(11) 0.47620(14) 0.81242(16)
C15 C 0.06539(14) 0.36892(15) 0.70234(19)
C19 C 0.06329(16) 0.50933(19) 0.6552(2)
H6 H 0.0922(13) 0.5340(16) 0.8211(18)
H7 H 0.0707(17) 0.562(2) 0.681(2)
H8 H 0.0948(16) 0.4978(18) 0.629(2)
H9 H 0.0130(16) 0.5037(17) 0.602(2)
H10 H 0.0146(15) 0.3614(14) 0.651(2)
H11 H 0.0738(14) 0.3341(16) 0.756(2)
H12 H 0.0971(15) 0.3527(15) 0.677(2)
N4 N 0.07504(10) 0.45265(12) 0.72853(13)
O2 O 0.09574(7) 0.43113(9) 0.87630(10)
Sm1 Sm 0.189270(5) 0.356706(5) 0.998247(6)
O16 O 0.22264(7) 0.37066(8) 0.87879(10)
O19 O 0.12360(7) 0.25107(8) 0.89057(10)
Sm3 Sm 0.689270(5) 0.856706(5) 0.998247(6)
N2_2 N -0.0000 0.07394(14) 0.2500
C20_2 C 0.24539(10) 0.18168(12) 0.14106(14)
C21_2 C 0.23495(10) 0.16639(12) 0.22386(14)
C22_2 C 0.25092(10) 0.08253(12) 0.35285(14)
C23_2 C 0.27518(10) 0.00612(12) 0.40786(14)
C24_2 C 0.21832(11) 0.13979(12) 0.37996(15)
C28_2 C 0.25881(10) 0.09619(12) 0.27502(14)
C29_2 C 0.20077(11) 0.22271(12) 0.24936(15)
C30_2 C 0.19351(11) 0.20770(12) 0.32709(15)
N5_2 N 0.15666(10) 0.26685(11) 0.35437(15)
C36_2 C 0.43671(16) 0.00933(19) 0.8448(2)
H20_2 H 0.2792(11) 0.0577(13) 0.2540(15)
H21_2 H 0.1854(11) 0.2682(14) 0.2168(15)
H22_2 H 0.2120(13) 0.1319(14) 0.4298(18)
H24_2 H 0.4078(13) 0.0340(16) 0.6789(18)
H25_2 H 0.4293(17) 0.062(2) 0.819(2)
H27_2 H 0.4870(16) 0.0037(17) 0.898(2)
O14_2 O 0.27736(7) 0.12934(8) 0.12121(10)
O17_2 O 0.27221(8) 0.00069(8) 0.48221(10)
O26_2 O 0.12297(12) 0.31910(11) 0.29857(16)
O27_2 O 0.16174(10) 0.26025(11) 0.43126(13)
O28_2 O 0.05691(8) 0.10829(9) 0.29120(13)
C12_2 C -0.0000 0.82408(17) 0.2500
C13_2 C -0.0000 0.98656(16) 0.2500
H5_2 H -0.0000 0.7702(19) 0.2500
C25_2 C 0.06189(10) 0.86485(11) 0.31009(14)
C26_2 C 0.12899(10) 0.82123(12) 0.37693(14)
C27_2 C 0.06231(10) 0.94740(12) 0.30897(14)
C31_2 C 0.41028(11) 0.97620(14) 0.68758(16)
C32_2 C 0.43461(14) 0.86892(15) 0.79766(19)
C33_2 C 0.5194(2) 0.6844(2) 0.4505(3)
C34_2 C 0.53862(16) 0.82962(18) 0.4696(2)
C35_2 C 0.43886(11) 0.76890(15) 0.47418(16)
H23_2 H 0.0984(12) 0.9739(13) 0.3439(16)
H26_2 H 0.4052(16) 0.9978(18) 0.871(2)
H28_2 H 0.4854(15) 0.8614(14) 0.849(2)
H29_2 H 0.4262(14) 0.8341(16) 0.744(2)
H30_2 H 0.4029(15) 0.8527(15) 0.823(2)
H31_2 H 0.488(2) 0.643(2) 0.450(3)
H32_2 H 0.569(2) 0.675(2) 0.499(3)
H33_2 H 0.517(2) 0.687(2) 0.388(3)
H34_2 H 0.5346(17) 0.8371(19) 0.407(3)
H35_2 H 0.5900(18) 0.819(2) 0.515(2)
H36_2 H 0.5223(15) 0.8758(17) 0.484(2)
H37_2 H 0.4161(13) 0.7181(16) 0.4736(17)
N6_2 N 0.49735(10) 0.76123(12) 0.46812(15)
N7_2 N 0.42496(10) 0.95265(12) 0.77147(13)
O12_2 O 0.18511(7) 0.86123(8) 0.41328(10)
O13_2 O 0.40426(7) 0.93113(9) 0.62370(10)
O15_2 O 0.27736(7) 0.87066(8) 0.62121(10)
O18_2 O 0.12360(7) 0.74893(8) 0.39057(10)
O20_2 O 0.37640(7) 0.75107(8) 0.60943(10)
O24_2 O 0.29671(8) 0.95007(9) 0.37714(10)
O25_2 O 0.41439(8) 0.83334(9) 0.48127(11)
C1_2 C 0.75461(10) 0.18168(12) 0.35894(14)
C2_2 C 0.76505(10) 0.16639(12) 0.27614(14)
C3_2 C 0.74908(10) 0.08253(12) 0.14715(14)
C4_2 C 0.72482(10) 0.00612(12) 0.09214(14)
C5_2 C 0.78168(11) 0.13979(12) 0.12004(15)
C9_2 C 0.74119(10) 0.09619(12) 0.22498(14)
C10_2 C 0.79923(11) 0.22271(12) 0.25064(15)
C11_2 C 0.80649(11) 0.20770(12) 0.17291(15)
N1_2 N 0.84334(10) 0.26685(11) 0.14563(15)
N2_3 N 1.0000 0.07394(14) 0.2500
H1_2 H 0.7208(11) 0.0577(13) 0.2460(15)
H2_2 H 0.8146(11) 0.2682(14) 0.2832(15)
H3_2 H 0.7880(13) 0.1319(14) 0.0702(18)
O3_2 O 0.72264(7) 0.12934(8) 0.37879(10)
O4_2 O 0.72779(8) 0.00069(8) 0.01779(10)
O9_2 O 0.87703(12) 0.31910(11) 0.20143(16)
O10_2 O 0.83826(10) 0.26025(11) 0.06874(13)
O11_2 O 0.94309(8) 0.10829(9) 0.20880(13)
C6_2 C 0.93811(10) 0.86485(11) 0.18991(14)
C7_2 C 0.87101(10) 0.82123(12) 0.12307(14)
C8_2 C 0.93769(10) 0.94740(12) 0.19103(14)
C12_3 C 1.0000 0.82408(17) 0.2500
C13_3 C 1.0000 0.98656(16) 0.2500
C16 C 0.4806(2) 0.6844(2) 0.0495(3)
C17 C 0.46138(16) 0.82962(18) 0.0304(2)
C18_2 C 0.56114(11) 0.76890(15) 0.02582(16)
H4_2 H 0.9016(12) 0.9739(13) 0.1561(16)
H5_3 H 1.0000 0.7702(19) 0.2500
H13_2 H 0.512(2) 0.643(2) 0.050(3)
H14 H 0.431(2) 0.675(2) 0.001(3)
H15 H 0.483(2) 0.687(2) 0.112(3)
H16 H 0.4654(17) 0.8371(19) 0.093(3)
H18 H 0.4777(15) 0.8758(17) 0.016(2)
H19_2 H 0.5839(13) 0.7181(16) 0.0264(17)
N3_2 N 0.50265(10) 0.76123(12) 0.03188(15)
O1_2 O 0.81489(7) 0.86123(8) 0.08672(10)
O5_2 O 0.87640(7) 0.74893(8) 0.10943(10)
O7_2 O 0.70329(8) 0.95007(9) 0.12286(10)
O8_2 O 0.58561(8) 0.83334(9) 0.01873(11)
C14_2 C 0.58972(11) 0.97620(14) 0.81242(16)
C15_2 C 0.56539(14) 0.86892(15) 0.70234(19)
H8_2 H 0.5948(16) 0.9978(18) 0.629(2)
H10_2 H 0.5146(15) 0.8614(14) 0.651(2)
H11_2 H 0.5738(14) 0.8341(16) 0.756(2)
H12_2 H 0.5971(15) 0.8527(15) 0.677(2)
H17 H 0.4100(18) 0.819(2) 0.985(2)
N4_2 N 0.57504(10) 0.95265(12) 0.72853(13)
O2_2 O 0.59574(7) 0.93113(9) 0.87630(10)
O16_2 O 0.72264(7) 0.87066(8) 0.87879(10)
O19_2 O 0.62360(7) 0.75107(8) 0.89057(10)
C14_3 C 0.91028(11) 0.52380(14) 0.18758(16)
C15_3 C 0.93461(14) 0.63108(15) 0.29766(19)
C19_2 C 0.93671(16) 0.49067(19) 0.3448(2)
H6_2 H 0.9078(13) 0.4660(16) 0.1789(18)
H7_2 H 0.9293(17) 0.438(2) 0.319(2)
H8_3 H 0.9052(16) 0.5022(18) 0.371(2)
H9_2 H 0.9870(16) 0.4963(17) 0.398(2)
H10_3 H 0.9854(15) 0.6386(14) 0.349(2)
H11_3 H 0.9262(14) 0.6659(16) 0.244(2)
H12_3 H 0.9029(15) 0.6473(15) 0.323(2)
N4_3 N 0.92496(10) 0.54735(12) 0.27147(13)
O2_3 O 0.90426(7) 0.56887(9) 0.12370(10)
C1_3 C 0.74539(10) 0.31832(12) 0.64106(14)
C2_3 C 0.73495(10) 0.33361(12) 0.72386(14)
C3_3 C 0.75092(10) 0.41747(12) 0.85285(14)
C4_3 C 0.77518(10) 0.49388(12) 0.90786(14)
C5_3 C 0.71832(11) 0.36021(12) 0.87996(15)
C6_3 C 0.56189(10) 0.63515(11) 0.81009(14)
C7_3 C 0.62899(10) 0.67877(12) 0.87693(14)
C8_3 C 0.56231(10) 0.55260(12) 0.80897(14)
C9_3 C 0.75881(10) 0.40381(12) 0.77502(14)
C10_3 C 0.70077(11) 0.27729(12) 0.74936(15)
C11_3 C 0.69351(11) 0.29230(12) 0.82709(15)
N1_3 N 0.65666(10) 0.23315(11) 0.85437(15)
C12_4 C 0.5000 0.67592(17) 0.7500
C13_4 C 0.5000 0.51344(16) 0.7500
N2_4 N 0.5000 0.42606(14) 0.7500
C18_3 C 0.93886(11) 0.73110(15) 0.97418(16)
H1_3 H 0.7792(11) 0.4423(13) 0.7540(15)
H2_3 H 0.6854(11) 0.2318(14) 0.7168(15)
H3_3 H 0.7120(13) 0.3681(14) 0.9298(18)
H4_3 H 0.5984(12) 0.5261(13) 0.8439(16)
H5_4 H 0.5000 0.7298(19) 0.7500
H13_3 H 0.988(2) 0.857(2) 0.950(3)
H19_3 H 0.9161(13) 0.7819(16) 0.9736(17)
N3_3 N 0.99735(10) 0.73877(12) 0.96812(15)
O1_3 O 0.68511(7) 0.63877(8) 0.91328(10)
O4_3 O 0.77221(8) 0.49931(8) 0.98221(10)
O6_2 O 0.72217(8) 0.25411(9) 0.59772(10)
O7_3 O 0.79671(8) 0.54993(9) 0.87714(10)
O8_3 O 0.91439(8) 0.66666(9) 0.98127(11)
O9_3 O 0.62297(12) 0.18090(11) 0.79857(16)
O10_3 O 0.66174(10) 0.23975(11) 0.93126(13)
O11_3 O 0.55691(8) 0.39171(9) 0.79120(13)
C20_3 C 0.25461(10) 0.31832(12) 0.85894(14)
C21_3 C 0.26505(10) 0.33361(12) 0.77614(14)
C22_3 C 0.24908(10) 0.41747(12) 0.64715(14)
C23_3 C 0.22482(10) 0.49388(12) 0.59214(14)
C24_3 C 0.28168(11) 0.36021(12) 0.62004(15)
C25_3 C 0.43811(10) 0.63515(11) 0.68991(14)
C26_3 C 0.37101(10) 0.67877(12) 0.62307(14)
C27_3 C 0.43769(10) 0.55260(12) 0.69103(14)
C28_3 C 0.24119(10) 0.40381(12) 0.72498(14)
C29_3 C 0.29923(11) 0.27729(12) 0.75064(15)
C30_3 C 0.30649(11) 0.29230(12) 0.67291(15)
N5_3 N 0.34334(10) 0.23315(11) 0.64563(15)
C31_3 C 0.08972(11) 0.52380(14) 0.31242(16)
C32_3 C 0.06539(14) 0.63108(15) 0.20234(19)
C35_3 C 0.06114(11) 0.73110(15) 0.52582(16)
C36_3 C 0.06329(16) 0.49067(19) 0.1552(2)
H20_3 H 0.2208(11) 0.4423(13) 0.7460(15)
H21_3 H 0.3146(11) 0.2318(14) 0.7832(15)
H22_3 H 0.2880(13) 0.3681(14) 0.5702(18)
H23_3 H 0.4016(12) 0.5261(13) 0.6561(16)
H24_3 H 0.0922(13) 0.4660(16) 0.3211(18)
H25_3 H 0.0707(17) 0.438(2) 0.181(2)
H26_3 H 0.0948(16) 0.5022(18) 0.129(2)
H27_3 H 0.0130(16) 0.4963(17) 0.102(2)
H28_3 H 0.0146(15) 0.6386(14) 0.151(2)
H29_3 H 0.0738(14) 0.6659(16) 0.256(2)
H30_3 H 0.0971(15) 0.6473(15) 0.177(2)
H31_3 H 0.012(2) 0.857(2) 0.550(3)
H37_3 H 0.0839(13) 0.7819(16) 0.5264(17)
N6_3 N 0.00265(10) 0.73877(12) 0.53188(15)
N7_3 N 0.07504(10) 0.54735(12) 0.22853(13)
O12_3 O 0.31489(7) 0.63877(8) 0.58672(10)
O13_3 O 0.09574(7) 0.56887(9) 0.37630(10)
O17_3 O 0.22779(8) 0.49931(8) 0.51779(10)
O21_2 O 0.27783(8) 0.25411(9) 0.90228(10)
O22_2 O 0.22217(8) 0.75411(9) 0.59772(10)
O23_2 O 0.77783(8) 0.75411(9) 0.90228(10)
O24_3 O 0.20329(8) 0.54993(9) 0.62286(10)
O25_3 O 0.08561(8) 0.66666(9) 0.51873(11)
O26_3 O 0.37703(12) 0.18090(11) 0.70143(16)
O27_3 O 0.33826(10) 0.23975(11) 0.56874(13)
O28_3 O 0.44309(8) 0.39171(9) 0.70880(13)
C14_4 C 0.41028(11) 0.02380(14) 0.18758(16)
C15_4 C 0.43461(14) 0.13108(15) 0.29766(19)
H8_4 H 0.4052(16) 0.0022(18) 0.371(2)
H10_4 H 0.4854(15) 0.1386(14) 0.349(2)
H11_4 H 0.4262(14) 0.1659(16) 0.244(2)
H12_4 H 0.4029(15) 0.1473(15) 0.323(2)
H17_2 H 0.5900(18) 0.181(2) 0.015(2)
N4_4 N 0.42496(10) 0.04735(12) 0.27147(13)
O2_4 O 0.40426(7) 0.06887(9) 0.12370(10)
C6_4 C 0.06189(10) 0.13515(11) 0.81009(14)
C7_4 C 0.12899(10) 0.17877(12) 0.87693(14)
C8_4 C 0.06231(10) 0.05260(12) 0.80897(14)
C12_5 C 0.0000 0.17592(17) 0.7500
C13_5 C 0.0000 0.01344(16) 0.7500
C16_2 C 0.5194(2) 0.3156(2) 0.9505(3)
C17_2 C 0.53862(16) 0.17038(18) 0.9696(2)
C18_4 C 0.43886(11) 0.23110(15) 0.97418(16)
H4_4 H 0.0984(12) 0.0261(13) 0.8439(16)
H5_5 H 0.0000 0.2298(19) 0.7500
H13_4 H 0.488(2) 0.357(2) 0.950(3)
H14_2 H 0.569(2) 0.325(2) 0.999(3)
H15_2 H 0.517(2) 0.313(2) 0.888(3)
H16_2 H 0.5346(17) 0.1629(19) 0.907(3)
H18_2 H 0.5223(15) 0.1242(17) 0.984(2)
H19_4 H 0.4161(13) 0.2819(16) 0.9736(17)
N3_4 N 0.49735(10) 0.23877(12) 0.96812(15)
O1_4 O 0.18511(7) 0.13877(8) 0.91328(10)
O7_4 O 0.29671(8) 0.04993(9) 0.87714(10)
O8_4 O 0.41439(8) 0.16666(9) 0.98127(11)
C1_4 C 0.24539(10) 0.81832(12) 0.64106(14)
C2_4 C 0.23495(10) 0.83361(12) 0.72386(14)
C3_4 C 0.25092(10) 0.91747(12) 0.85285(14)
C4_4 C 0.27518(10) 0.99388(12) 0.90786(14)
C5_4 C 0.21832(11) 0.86021(12) 0.87996(15)
C9_4 C 0.25881(10) 0.90381(12) 0.77502(14)
C10_4 C 0.20077(11) 0.77729(12) 0.74936(15)
C11_4 C 0.19351(11) 0.79230(12) 0.82709(15)
N1_4 N 0.15666(10) 0.73315(11) 0.85437(15)
N2_5 N 0.0000 0.92606(14) 0.7500
H1_4 H 0.2792(11) 0.9423(13) 0.7540(15)
H2_4 H 0.1854(11) 0.7318(14) 0.7168(15)
H3_4 H 0.2120(13) 0.8681(14) 0.9298(18)
O4_4 O 0.27221(8) 0.99931(8) 0.98221(10)
O9_4 O 0.12297(12) 0.68090(11) 0.79857(16)
O10_4 O 0.16174(10) 0.73975(11) 0.93126(13)
O11_4 O 0.05691(8) 0.89171(9) 0.79120(13)
C12_6 C 1.0000 0.17592(17) 0.7500
C13_6 C 1.0000 0.01344(16) 0.7500
H5_6 H 1.0000 0.2298(19) 0.7500
C25_4 C 0.93811(10) 0.13515(11) 0.68991(14)
C26_4 C 0.87101(10) 0.17877(12) 0.62307(14)
C27_4 C 0.93769(10) 0.05260(12) 0.69103(14)
C31_4 C 0.58972(11) 0.02380(14) 0.31242(16)
C32_4 C 0.56539(14) 0.13108(15) 0.20234(19)
C33_3 C 0.4806(2) 0.3156(2) 0.5495(3)
C34_3 C 0.46138(16) 0.17038(18) 0.5304(2)
C35_4 C 0.56114(11) 0.23110(15) 0.52582(16)
H23_4 H 0.9016(12) 0.0261(13) 0.6561(16)
H26_4 H 0.5948(16) 0.0022(18) 0.129(2)
H28_4 H 0.5146(15) 0.1386(14) 0.151(2)
H29_4 H 0.5738(14) 0.1659(16) 0.256(2)
H30_4 H 0.5971(15) 0.1473(15) 0.177(2)
H31_4 H 0.512(2) 0.357(2) 0.550(3)
H32_3 H 0.431(2) 0.325(2) 0.501(3)
H33_3 H 0.483(2) 0.313(2) 0.612(3)
H34_3 H 0.4654(17) 0.1629(19) 0.593(3)
H35_3 H 0.4100(18) 0.181(2) 0.485(2)
H36_3 H 0.4777(15) 0.1242(17) 0.516(2)
H37_4 H 0.5839(13) 0.2819(16) 0.5264(17)
N6_4 N 0.50265(10) 0.23877(12) 0.53188(15)
N7_4 N 0.57504(10) 0.04735(12) 0.22853(13)
O12_4 O 0.81489(7) 0.13877(8) 0.58672(10)
O13_4 O 0.59574(7) 0.06887(9) 0.37630(10)
O24_4 O 0.70329(8) 0.04993(9) 0.62286(10)
O25_4 O 0.58561(8) 0.16666(9) 0.51873(11)
N2_6 N 1.0000 0.92606(14) 0.7500
C20_4 C 0.75461(10) 0.81832(12) 0.85894(14)
C21_4 C 0.76505(10) 0.83361(12) 0.77614(14)
C22_4 C 0.74908(10) 0.91747(12) 0.64715(14)
C23_4 C 0.72482(10) 0.99388(12) 0.59214(14)
C24_4 C 0.78168(11) 0.86021(12) 0.62004(15)
C28_4 C 0.74119(10) 0.90381(12) 0.72498(14)
C29_4 C 0.79923(11) 0.77729(12) 0.75064(15)
C30_4 C 0.80649(11) 0.79230(12) 0.67291(15)
N5_4 N 0.84334(10) 0.73315(11) 0.64563(15)
C36_4 C 0.56329(16) 0.99067(19) 0.1552(2)
H20_4 H 0.7208(11) 0.9423(13) 0.7460(15)
H21_4 H 0.8146(11) 0.7318(14) 0.7832(15)
H22_4 H 0.7880(13) 0.8681(14) 0.5702(18)
H24_4 H 0.5922(13) 0.9660(16) 0.3211(18)
H25_4 H 0.5707(17) 0.938(2) 0.181(2)
H27_4 H 0.5130(16) 0.9963(17) 0.102(2)
O17_4 O 0.72779(8) 0.99931(8) 0.51779(10)
O26_4 O 0.87703(12) 0.68090(11) 0.70143(16)
O27_4 O 0.83826(10) 0.73975(11) 0.56874(13)
O28_4 O 0.94309(8) 0.89171(9) 0.70880(13)
C16_3 C 0.9806(2) 0.1844(2) 0.0495(3)
C17_3 C 0.96138(16) 0.32962(18) 0.0304(2)
H14_3 H 0.931(2) 0.175(2) 0.001(3)
H15_3 H 0.983(2) 0.187(2) 0.112(3)
H16_3 H 0.9654(17) 0.3371(19) 0.093(3)
H18_3 H 0.9777(15) 0.3758(17) 0.016(2)
H17_3 H 0.9100(18) 0.319(2) 0.985(2)
C19_3 C 0.56329(16) 0.00933(19) 0.6552(2)
H6_3 H 0.5922(13) 0.0340(16) 0.8211(18)
H7_3 H 0.5707(17) 0.062(2) 0.681(2)
H9_3 H 0.5130(16) 0.0037(17) 0.602(2)
H17_4 H 0.0900(18) 0.681(2) 0.015(2)
C16_4 C 0.0194(2) 0.8156(2) 0.9505(3)
C17_4 C 0.03862(16) 0.67038(18) 0.9696(2)
H14_4 H 0.069(2) 0.825(2) 0.999(3)
H15_4 H 0.017(2) 0.813(2) 0.888(3)
H16_4 H 0.0346(17) 0.6629(19) 0.907(3)
H18_4 H 0.0223(15) 0.6242(17) 0.984(2)
C33_4 C 0.9806(2) 0.8156(2) 0.5495(3)
C34_4 C 0.96138(16) 0.67038(18) 0.5304(2)
H32_4 H 0.931(2) 0.825(2) 0.501(3)
H33_4 H 0.983(2) 0.813(2) 0.612(3)
H34_4 H 0.9654(17) 0.6629(19) 0.593(3)
H35_4 H 0.9100(18) 0.681(2) 0.485(2)
H36_4 H 0.9777(15) 0.6242(17) 0.516(2)
C19_4 C 0.43671(16) 0.99067(19) 0.3448(2)
H6_4 H 0.4078(13) 0.9660(16) 0.1789(18)
H7_4 H 0.4293(17) 0.938(2) 0.319(2)
H9_4 H 0.4870(16) 0.9963(17) 0.398(2)
loop_
_geom_bond_atom_site_label_1
_geom_bond_atom_site_label_2
_geom_bond_site_symmetry_1
_geom_bond_site_symmetry_2
C34 H34 1_555 1_555
H32 C33 1_555 1_555
H33 C33 1_555 1_555
H35 C34 1_555 1_555
H36 C34 1_555 1_555
C1 C2 1_555 1_555
C2 C9 1_555 1_555
C3 C4 1_555 1_555
C4 O4 1_555 1_555
C5 C3 1_555 1_555
C6 C7 1_555 1_555
C7 O1 1_555 1_555
C8 C6 1_555 1_555
C9 C3 1_555 1_555
C10 C2 1_555 1_555
C11 C5 1_555 1_555
N1 C11 1_555 1_555
C12 C6 1_555 1_555
C13 C8 1_555 1_555
N2 C13 1_555 1_555
C18 H19 1_555 1_555
H1 C9 1_555 1_555
H2 C10 1_555 1_555
H3 C5 1_555 1_555
H4 C8 1_555 1_555
H5 C12 1_555 1_555
O3 C1 1_555 1_555
O5 C7 1_555 1_555
O6 C1 1_555 1_555
O7 C4 1_555 1_555
O8 C18 1_555 1_555
O9 N1 1_555 1_555
O10 N1 1_555 1_555
O11 N2 1_555 1_555
C20 C21 1_555 1_555
C21 C28 1_555 1_555
C22 C23 1_555 1_555
C23 O17 1_555 1_555
C24 C22 1_555 1_555
C25 C12 1_555 1_555
C26 C25 1_555 1_555
C27 C13 1_555 1_555
C28 C22 1_555 1_555
C29 C21 1_555 1_555
C30 C24 1_555 1_555
N5 C30 1_555 1_555
C31 H24 1_555 1_555
C32 H28 1_555 1_555
C35 H37 1_555 1_555
C36 H25 1_555 1_555
H20 C28 1_555 1_555
H21 C29 1_555 1_555
H22 C24 1_555 1_555
H23 C27 1_555 1_555
H26 C36 1_555 1_555
H27 C36 1_555 1_555
H29 C32 1_555 1_555
H30 C32 1_555 1_555
N7 C31 1_555 1_555
O12 C26 1_555 1_555
O13 C31 1_555 1_555
O14 C20 1_555 1_555
O15 Sm2 1_555 1_555
O17 Sm2 1_555 1_555
O18 C26 1_555 1_555
O20 Sm2 1_555 1_555
O21 C20 1_555 1_555
O22 Sm2 1_555 1_555
O24 C23 1_555 1_555
O25 C35 1_555 1_555
O26 N5 1_555 1_555
O27 N5 1_555 1_555
O28 N2 1_555 1_555
Sm2 O12 1_555 1_555
Sm4 O6 1_555 1_555
Sm5 O14 1_555 1_555
Sm6 O3 1_555 1_555
Sm7 O5 1_555 1_555
Sm8 O18 1_555 1_555
C10 C11 1_555 1_555
C18 N3 1_555 1_555
C25 C27 1_555 1_555
C29 C30 1_555 1_555
C32 N7 1_555 1_555
C35 N6 1_555 1_555
C36 N7 1_555 1_555
O13 Sm2 1_555 1_555
O24 Sm2 1_555 1_555
O25 Sm2 1_555 1_555
C14 H6 1_555 1_555
C15 H10 1_555 1_555
C19 H7 1_555 1_555
H8 C19 1_555 1_555
H9 C19 1_555 1_555
H11 C15 1_555 1_555
H12 C15 1_555 1_555
N4 C14 1_555 1_555
O2 C14 1_555 1_555
Sm1 O2 1_555 1_555
O16 Sm1 1_555 1_555
O19 Sm1 1_555 1_555
C15 N4 1_555 1_555
C19 N4 1_555 1_555
C20_2 C21_2 1_555 1_555
C21_2 C28_2 1_555 1_555
C22_2 C23_2 1_555 1_555
C23_2 O17_2 1_555 1_555
C24_2 C22_2 1_555 1_555
C28_2 C22_2 1_555 1_555
C29_2 C21_2 1_555 1_555
C30_2 C24_2 1_555 1_555
N5_2 C30_2 1_555 1_555
C36_2 H25_2 1_555 1_555
H20_2 C28_2 1_555 1_555
H21_2 C29_2 1_555 1_555
H22_2 C24_2 1_555 1_555
H27_2 C36_2 1_555 1_555
O14_2 C20_2 1_555 1_555
O23 C20_2 1_555 1_555
O26_2 N5_2 1_555 1_555
O27_2 N5_2 1_555 1_555
O28_2 N2_2 1_555 1_555
Sm7 O14_2 1_555 1_555
C29_2 C30_2 1_555 1_555
H5_2 C12_2 1_555 1_555
C25_2 C12_2 1_555 1_555
C26_2 C25_2 1_555 1_555
C27_2 C13_2 1_555 1_555
C32_2 H28_2 1_555 1_555
C33_2 H31_2 1_555 1_555
C34_2 H34_2 1_555 1_555
C35_2 H37_2 1_555 1_555
H23_2 C27_2 1_555 1_555
H29_2 C32_2 1_555 1_555
H30_2 C32_2 1_555 1_555
H32_2 C33_2 1_555 1_555
H33_2 C33_2 1_555 1_555
H35_2 C34_2 1_555 1_555
H36_2 C34_2 1_555 1_555
N6_2 C33_2 1_555 1_555
N7_2 C31_2 1_555 1_555
O12_2 C26_2 1_555 1_555
O13_2 C31_2 1_555 1_555
O15_2 Sm4 1_555 1_555
O18_2 C26_2 1_555 1_555
O20_2 Sm4 1_555 1_555
O25_2 C35_2 1_555 1_555
Sm4 O12_2 1_555 1_555
Sm6 O18_2 1_555 1_555
C25_2 C27_2 1_555 1_555
C32_2 N7_2 1_555 1_555
C34_2 N6_2 1_555 1_555
C35_2 N6_2 1_555 1_555
O13_2 Sm4 1_555 1_555
O24_2 Sm4 1_555 1_555
O25_2 Sm4 1_555 1_555
C1_2 C2_2 1_555 1_555
C2_2 C9_2 1_555 1_555
C3_2 C4_2 1_555 1_555
C4_2 O4_2 1_555 1_555
C5_2 C3_2 1_555 1_555
C9_2 C3_2 1_555 1_555
C10_2 C2_2 1_555 1_555
C11_2 C5_2 1_555 1_555
N1_2 C11_2 1_555 1_555
H1_2 C9_2 1_555 1_555
H2_2 C10_2 1_555 1_555
H3_2 C5_2 1_555 1_555
O3_2 C1_2 1_555 1_555
O22 C1_2 1_555 1_555
O9_2 N1_2 1_555 1_555
O10_2 N1_2 1_555 1_555
O11_2 N2_3 1_555 1_555
Sm8 O3_2 1_555 1_555
C10_2 C11_2 1_555 1_555
C6_2 C7_2 1_555 1_555
C7_2 O1_2 1_555 1_555
C8_2 C6_2 1_555 1_555
C12_3 C6_2 1_555 1_555
C13_3 C8_2 1_555 1_555
C16 H13_2 1_555 1_555
C17 H16 1_555 1_555
C18_2 H19_2 1_555 1_555
H4_2 C8_2 1_555 1_555
H5_3 C12_3 1_555 1_555
H14 C16 1_555 1_555
H15 C16 1_555 1_555
H18 C17 1_555 1_555
N3_2 C16 1_555 1_555
O5_2 C7_2 1_555 1_555
O8_2 C18_2 1_555 1_555
Sm5 O5_2 1_555 1_555
C17 N3_2 1_555 1_555
C18_2 N3_2 1_555 1_555
C15_2 H10_2 1_555 1_555
H11_2 C15_2 1_555 1_555
H12_2 C15_2 1_555 1_555
N4_2 C14_2 1_555 1_555
O2_2 C14_2 1_555 1_555
Sm3 O2_2 1_555 1_555
O16_2 Sm3 1_555 1_555
O19_2 Sm3 1_555 1_555
C15_2 N4_2 1_555 1_555
C14_3 H6_2 1_555 1_555
C15_3 H10_3 1_555 1_555
C19_2 H7_2 1_555 1_555
H8_3 C19_2 1_555 1_555
H9_2 C19_2 1_555 1_555
H11_3 C15_3 1_555 1_555
H12_3 C15_3 1_555 1_555
N4_3 C14_3 1_555 1_555
O2_3 C14_3 1_555 1_555
Sm5 O2_3 1_555 1_555
C15_3 N4_3 1_555 1_555
C19_2 N4_3 1_555 1_555
C1_3 C2_3 1_555 1_555
C2_3 C9_3 1_555 1_555
C3_3 C4_3 1_555 1_555
C4_3 O4_3 1_555 1_555
C5_3 C3_3 1_555 1_555
C6_3 C7_3 1_555 1_555
C7_3 O1_3 1_555 1_555
C8_3 C6_3 1_555 1_555
C9_3 C3_3 1_555 1_555
C10_3 C2_3 1_555 1_555
C11_3 C5_3 1_555 1_555
N1_3 C11_3 1_555 1_555
C12_4 C6_3 1_555 1_555
C13_4 C8_3 1_555 1_555
N2_4 C13_4 1_555 1_555
C18_3 H19_3 1_555 1_555
H1_3 C9_3 1_555 1_555
H2_3 C10_3 1_555 1_555
H3_3 C5_3 1_555 1_555
H4_3 C8_3 1_555 1_555
H5_4 C12_4 1_555 1_555
O15 C1_3 1_555 1_555
O19_2 C7_3 1_555 1_555
O6_2 C1_3 1_555 1_555
O7_3 C4_3 1_555 1_555
O8_3 C18_3 1_555 1_555
O9_3 N1_3 1_555 1_555
O10_3 N1_3 1_555 1_555
O11_3 N2_4 1_555 1_555
C20_3 C21_3 1_555 1_555
C21_3 C28_3 1_555 1_555
C22_3 C23_3 1_555 1_555
C23_3 O17_3 1_555 1_555
C24_3 C22_3 1_555 1_555
C25_3 C12_4 1_555 1_555
C26_3 C25_3 1_555 1_555
C27_3 C13_4 1_555 1_555
C28_3 C22_3 1_555 1_555
C29_3 C21_3 1_555 1_555
C30_3 C24_3 1_555 1_555
N5_3 C30_3 1_555 1_555
C31_3 H24_3 1_555 1_555
C32_3 H28_3 1_555 1_555
C35_3 H37_3 1_555 1_555
C36_3 H25_3 1_555 1_555
H20_3 C28_3 1_555 1_555
H21_3 C29_3 1_555 1_555
H22_3 C24_3 1_555 1_555
H23_3 C27_3 1_555 1_555
H26_3 C36_3 1_555 1_555
H27_3 C36_3 1_555 1_555
H29_3 C32_3 1_555 1_555
H30_3 C32_3 1_555 1_555
N7_3 C31_3 1_555 1_555
O12_3 C26_3 1_555 1_555
O13_3 C31_3 1_555 1_555
O16 C20_3 1_555 1_555
O17_3 Sm6 1_555 1_555
O20_2 C26_3 1_555 1_555
O21_2 C20_3 1_555 1_555
O22_2 Sm6 1_555 1_555
O24_3 C23_3 1_555 1_555
O25_3 C35_3 1_555 1_555
O26_3 N5_3 1_555 1_555
O27_3 N5_3 1_555 1_555
O28_3 N2_4 1_555 1_555
Sm6 O12_3 1_555 1_555
Sm8 O6_2 1_555 1_555
C10_3 C11_3 1_555 1_555
C18_3 N3_3 1_555 1_555
C25_3 C27_3 1_555 1_555
C29_3 C30_3 1_555 1_555
C32_3 N7_3 1_555 1_555
C35_3 N6_3 1_555 1_555
C36_3 N7_3 1_555 1_555
O13_3 Sm6 1_555 1_555
O24_3 Sm6 1_555 1_555
O25_3 Sm6 1_555 1_555
C15_4 H10_4 1_555 1_555
H11_4 C15_4 1_555 1_555
H12_4 C15_4 1_555 1_555
N4_4 C14_4 1_555 1_555
O2_4 C14_4 1_555 1_555
Sm7 O2_4 1_555 1_555
C15_4 N4_4 1_555 1_555
C6_4 C7_4 1_555 1_555
C7_4 O1_4 1_555 1_555
C8_4 C6_4 1_555 1_555
C12_5 C6_4 1_555 1_555
C13_5 C8_4 1_555 1_555
C16_2 H13_4 1_555 1_555
C17_2 H16_2 1_555 1_555
C18_4 H19_4 1_555 1_555
H4_4 C8_4 1_555 1_555
H5_5 C12_5 1_555 1_555
H14_2 C16_2 1_555 1_555
H15_2 C16_2 1_555 1_555
H18_2 C17_2 1_555 1_555
N3_4 C16_2 1_555 1_555
O19 C7_4 1_555 1_555
O8_4 C18_4 1_555 1_555
C17_2 N3_4 1_555 1_555
C18_4 N3_4 1_555 1_555
C1_4 C2_4 1_555 1_555
C2_4 C9_4 1_555 1_555
C3_4 C4_4 1_555 1_555
C4_4 O4_4 1_555 1_555
C5_4 C3_4 1_555 1_555
C9_4 C3_4 1_555 1_555
C10_4 C2_4 1_555 1_555
C11_4 C5_4 1_555 1_555
N1_4 C11_4 1_555 1_555
H1_4 C9_4 1_555 1_555
H2_4 C10_4 1_555 1_555
H3_4 C5_4 1_555 1_555
O15_2 C1_4 1_555 1_555
O22_2 C1_4 1_555 1_555
O9_4 N1_4 1_555 1_555
O10_4 N1_4 1_555 1_555
O11_4 N2_5 1_555 1_555
C10_4 C11_4 1_555 1_555
H5_6 C12_6 1_555 1_555
C25_4 C12_6 1_555 1_555
C26_4 C25_4 1_555 1_555
C27_4 C13_6 1_555 1_555
C32_4 H28_4 1_555 1_555
C33_3 H31_4 1_555 1_555
C34_3 H34_3 1_555 1_555
C35_4 H37_4 1_555 1_555
H23_4 C27_4 1_555 1_555
H29_4 C32_4 1_555 1_555
H30_4 C32_4 1_555 1_555
H32_3 C33_3 1_555 1_555
H33_3 C33_3 1_555 1_555
H35_3 C34_3 1_555 1_555
H36_3 C34_3 1_555 1_555
N6_4 C33_3 1_555 1_555
N7_4 C31_4 1_555 1_555
O12_4 C26_4 1_555 1_555
O13_4 C31_4 1_555 1_555
O20 C26_4 1_555 1_555
O25_4 C35_4 1_555 1_555
Sm8 O12_4 1_555 1_555
C25_4 C27_4 1_555 1_555
C32_4 N7_4 1_555 1_555
C34_3 N6_4 1_555 1_555
C35_4 N6_4 1_555 1_555
O13_4 Sm8 1_555 1_555
O24_4 Sm8 1_555 1_555
O25_4 Sm8 1_555 1_555
C20_4 C21_4 1_555 1_555
C21_4 C28_4 1_555 1_555
C22_4 C23_4 1_555 1_555
C23_4 O17_4 1_555 1_555
C24_4 C22_4 1_555 1_555
C28_4 C22_4 1_555 1_555
C29_4 C21_4 1_555 1_555
C30_4 C24_4 1_555 1_555
N5_4 C30_4 1_555 1_555
C36_4 H25_4 1_555 1_555
H20_4 C28_4 1_555 1_555
H21_4 C29_4 1_555 1_555
H22_4 C24_4 1_555 1_555
H27_4 C36_4 1_555 1_555
O16_2 C20_4 1_555 1_555
O23_2 C20_4 1_555 1_555
O26_4 N5_4 1_555 1_555
O27_4 N5_4 1_555 1_555
O28_4 N2_6 1_555 1_555
C29_4 C30_4 1_555 1_555
C17_3 H16_3 1_555 1_555
H14_3 C16_3 1_555 1_555
H15_3 C16_3 1_555 1_555
H18_3 C17_3 1_555 1_555
C19_3 H7_3 1_555 1_555
H9_3 C19_3 1_555 1_555
C17_4 H16_4 1_555 1_555
H14_4 C16_4 1_555 1_555
H15_4 C16_4 1_555 1_555
H18_4 C17_4 1_555 1_555
C34_4 H34_4 1_555 1_555
H32_4 C33_4 1_555 1_555
H33_4 C33_4 1_555 1_555
H35_4 C34_4 1_555 1_555
H36_4 C34_4 1_555 1_555
C19_4 H7_4 1_555 1_555
H9_4 C19_4 1_555 1_555

#END
