
###############################################################################
#
# This file contains modified crystal structure data generated from the
# MOF subset of the Cambridge Structural Database (CSD) v543 
# hosted by the Cambridge Crystallographic Data Centre (CCDC).
#
# This work is licensed under the Creative Commons
# Attribution-NonCommercial-ShareAlike 4.0 International License.
# To view a copy of this license, visit
# http://creativecommons.org/licenses/by-nc-sa/4.0/
# or send a letter to
# Creative Commons, PO Box 1866, Mountain View, CA 94042, USA.
#
# CIF created using the CSD Python API on 29 September 2022
# The structure has been converted into the P1 space group
# The structure has a 3D framework
# The original CSD entry KABZAS is in the orthorhombic crystal system
# The framework has been calculated to contain at least 10.0% void space
# The void calculation uses a probe of radius 1.32A, grid spacing 0.4
#
###############################################################################

data_KABZAS
_chemical_formula_moiety         '(C76 H96 Cs20 N44 Nd4 O16 Re28 S40 14+)n'
_symmetry_cell_setting           triclinic
_symmetry_space_group_name_H-M   'P 1'
_symmetry_Int_Tables_number      1
_space_group_name_Hall           'P 1'
loop_
_symmetry_equiv_pos_site_id
_symmetry_equiv_pos_as_xyz
1 x,y,z
_cell_length_a                   10.7133(7)
_cell_length_b                   18.9023(11)
_cell_length_c                   21.6443(13)
_cell_angle_alpha                90
_cell_angle_beta                 90
_cell_angle_gamma                90
_cell_volume                     4383.1
loop_
_atom_site_label
_atom_site_type_symbol
_atom_site_fract_x
_atom_site_fract_y
_atom_site_fract_z
Re1 Re 0.19017(2) 0.30991(2) 0.43994(2)
C1 C 0.1202(3) 0.38033(18) 0.37279(16)
Re2 Re 0.39940(2) 0.29754(2) 0.5000
S1 S 0.11206(8) 0.20617(4) 0.38883(4)
S2 S 0.00130(11) 0.31653(6) 0.5000
S3 S 0.27748(11) 0.40514(6) 0.5000
N1 N 0.0819(3) 0.42107(17) 0.33813(15)
C2 C 0.5711(5) 0.3514(3) 0.5000
Nd1 Nd -0.0000 0.5000 0.2500
N2 N 0.6638(4) 0.3823(3) 0.5000
O1 O 0.1707(3) 0.43269(15) 0.20926(13)
C3 C 0.2052(4) 0.4055(2) 0.1598(2)
N3 N 0.2020(4) 0.4400(2) 0.10703(18)
C4 C 0.2542(7) 0.3307(3) 0.1584(3)
H1 H 0.1748 0.4839 0.1059
H2 H 0.2271 0.4192 0.0729
H3 H 0.2223 0.3074 0.1206
H4 H 0.3463 0.3326 0.1550
C5 C 0.2228(8) 0.2867(3) 0.2108(3)
H5 H 0.1308 0.2826 0.2129
H6 H 0.2507 0.3111 0.2488
Re3 Re 0.30983(2) 0.19009(2) 0.43994(2)
Re4 Re 0.19017(2) 0.30991(2) 0.56006(2)
Re5 Re 0.10060(2) 0.20246(2) 0.5000
S4 S 0.38794(8) 0.29383(4) 0.38883(4)
Re6 Re 0.30983(2) 0.19009(2) 0.56006(2)
S5 S 0.38794(8) 0.29383(4) 0.61117(4)
S6 S 0.49870(11) 0.18347(6) 0.5000
S7 S 0.22252(11) 0.09486(6) 0.5000
C6 C 0.3798(3) 0.11967(18) 0.37279(16)
S8 S 0.11206(8) 0.20617(4) 0.61117(4)
C7 C 0.1202(3) 0.38033(18) 0.62721(16)
C9 C 0.3798(3) 0.11967(18) 0.62721(16)
N4 N 0.4181(3) 0.07893(17) 0.33813(15)
N5 N 0.0819(3) 0.42107(17) 0.66187(15)
N8 N 0.0819(3) 0.57893(17) 0.16187(15)
O3 O 0.1707(3) 0.56731(15) 0.29074(13)
N10 N 0.4181(3) 0.07893(17) 0.66187(15)
Nd2 Nd 0.5000 0.0000 0.2500
Nd3 Nd -0.0000 0.5000 0.7500
Nd4 Nd 0.5000 -0.0000 0.7500
O5 O 0.3293(3) 0.06731(15) 0.20926(13)
C12 C 0.2948(4) 0.0945(2) 0.1598(2)
C14 C 0.2458(7) 0.1693(3) 0.1584(3)
N12 N 0.2980(4) 0.0600(2) 0.10703(18)
C15 C 0.2772(8) 0.2133(3) 0.2108(3)
H13 H 0.2777 0.1926 0.1206
H14 H 0.1537 0.1674 0.1550
H15 H 0.3252 0.0161 0.1059
H16 H 0.2729 0.0808 0.0729
H17 H 0.3692 0.2174 0.2129
H18 H 0.2493 0.1889 0.2488
Nd2_2 Nd 0.5000 1.0000 0.2500
Nd4_2 Nd 0.5000 1.0000 0.7500
Nd1_2 Nd 1.0000 0.5000 0.2500
C8 C 0.9289(5) 0.1486(3) 0.5000
N6 N 0.8362(4) 0.1177(3) 0.5000
N7 N 0.9181(3) 0.57893(17) 0.33813(15)
O2 O 0.8293(3) 0.56731(15) 0.20926(13)
N9 N 0.9181(3) 0.42107(17) 0.16187(15)
O4 O 0.8293(3) 0.43269(15) 0.29074(13)
Nd3_2 Nd 1.0000 0.5000 0.7500
C10 C 0.7948(4) 0.5945(2) 0.1598(2)
N11 N 0.7980(4) 0.5600(2) 0.10703(18)
C11 C 0.7458(7) 0.6693(3) 0.1584(3)
H7 H 0.8252 0.5161 0.1059
H8 H 0.7729 0.5808 0.0729
H9 H 0.7777 0.6926 0.1206
H10 H 0.6537 0.6674 0.1550
C13 C 0.7772(8) 0.7133(3) 0.2108(3)
H11 H 0.8692 0.7174 0.2129
H12 H 0.7493 0.6889 0.2488
C16 C 0.7228(8) 0.7867(3) 0.2108(3)
C17 C 0.7542(7) 0.8307(3) 0.1584(3)
H19 H 0.6308 0.7826 0.2129
H20 H 0.7507 0.8111 0.2488
C18 C 0.7052(4) 0.9055(2) 0.1598(2)
H21 H 0.7223 0.8074 0.1206
H22 H 0.8463 0.8326 0.1550
O6 O 0.6707(3) 0.93269(15) 0.20926(13)
N13 N 0.7020(4) 0.9400(2) 0.10703(18)
H23 H 0.6748 0.9839 0.1059
H24 H 0.7271 0.9192 0.0729
C8_2 C 0.0711(5) 0.8514(3) 0.5000
N6_2 N 0.1638(4) 0.8823(3) 0.5000
Re1_2 Re 0.80983(2) 0.69009(2) 0.43994(2)
C1_2 C 0.8798(3) 0.61967(18) 0.37279(16)
Re2_2 Re 0.60060(2) 0.70246(2) 0.5000
S1_2 S 0.88794(8) 0.79383(4) 0.38883(4)
S2_2 S 0.99870(11) 0.68347(6) 0.5000
S3_2 S 0.72252(11) 0.59486(6) 0.5000
C2_2 C 0.4289(5) 0.6486(3) 0.5000
N2_2 N 0.3362(4) 0.6177(3) 0.5000
Re3_2 Re 0.69017(2) 0.80991(2) 0.43994(2)
Re4_2 Re 0.80983(2) 0.69009(2) 0.56006(2)
Re5_2 Re 0.89940(2) 0.79754(2) 0.5000
S4_2 S 0.61206(8) 0.70617(4) 0.38883(4)
Re6_2 Re 0.69017(2) 0.80991(2) 0.56006(2)
S5_2 S 0.61206(8) 0.70617(4) 0.61117(4)
S6_2 S 0.50130(11) 0.81653(6) 0.5000
S7_2 S 0.77748(11) 0.90514(6) 0.5000
C6_2 C 0.6202(3) 0.88033(18) 0.37279(16)
S8_2 S 0.88794(8) 0.79383(4) 0.61117(4)
C7_2 C 0.8798(3) 0.61967(18) 0.62721(16)
C9_2 C 0.6202(3) 0.88033(18) 0.62721(16)
N4_2 N 0.5819(3) 0.92107(17) 0.33813(15)
N5_2 N 0.9181(3) 0.57893(17) 0.66187(15)
N10_2 N 0.5819(3) 0.92107(17) 0.66187(15)
Re1_3 Re 0.19017(2) 0.69009(2) 0.06006(2)
C1_3 C 0.1202(3) 0.61967(18) 0.12721(16)
Re2_3 Re 0.39940(2) 0.70246(2) 0.0000
S1_3 S 0.11206(8) 0.79383(4) 0.11117(4)
S2_3 S 0.00130(11) 0.68347(6) 0.0000
S3_3 S 0.27748(11) 0.59486(6) 0.0000
C2_3 C 0.5711(5) 0.6486(3) 0.0000
N2_3 N 0.6638(4) 0.6177(3) 0.0000
C3_2 C 0.2052(4) 0.5945(2) 0.3402(2)
N3_2 N 0.2020(4) 0.5600(2) 0.39297(18)
C4_2 C 0.2542(7) 0.6693(3) 0.3416(3)
H1_2 H 0.1748 0.5161 0.3941
H2_2 H 0.2271 0.5808 0.4271
H3_2 H 0.2223 0.6926 0.3794
H4_2 H 0.3463 0.6674 0.3450
C5_2 C 0.2228(8) 0.7133(3) 0.2892(3)
H5_2 H 0.1308 0.7174 0.2871
H6_2 H 0.2507 0.6889 0.2512
Re3_3 Re 0.30983(2) 0.80991(2) 0.06006(2)
Re5_3 Re 0.10060(2) 0.79754(2) 0.0000
S4_3 S 0.38794(8) 0.70617(4) 0.11117(4)
S6_3 S 0.49870(11) 0.81653(6) 0.0000
S7_3 S 0.22252(11) 0.90514(6) 0.0000
C6_3 C 0.3798(3) 0.88033(18) 0.12721(16)
N4_3 N 0.4181(3) 0.92107(17) 0.16187(15)
O5_2 O 0.3293(3) 0.93269(15) 0.29074(13)
C12_2 C 0.2948(4) 0.9055(2) 0.3402(2)
C14_2 C 0.2458(7) 0.8307(3) 0.3416(3)
N12_2 N 0.2980(4) 0.9400(2) 0.39297(18)
C15_2 C 0.2772(8) 0.7867(3) 0.2892(3)
H13_2 H 0.2777 0.8074 0.3794
H14_2 H 0.1537 0.8326 0.3450
H15_2 H 0.3252 0.9839 0.3941
H16_2 H 0.2729 0.9192 0.4271
H17_2 H 0.3692 0.7826 0.2871
H18_2 H 0.2493 0.8111 0.2512
Re2_4 Re 0.39940(2) 0.70246(2) 1.0000
S2_4 S 0.00130(11) 0.68347(6) 1.0000
S3_4 S 0.27748(11) 0.59486(6) 1.0000
C2_4 C 0.5711(5) 0.6486(3) 1.0000
N2_4 N 0.6638(4) 0.6177(3) 1.0000
Re4_3 Re 0.19017(2) 0.69009(2) 0.93994(2)
Re5_4 Re 0.10060(2) 0.79754(2) 1.0000
Re6_3 Re 0.30983(2) 0.80991(2) 0.93994(2)
S5_3 S 0.38794(8) 0.70617(4) 0.88883(4)
S6_4 S 0.49870(11) 0.81653(6) 1.0000
S7_4 S 0.22252(11) 0.90514(6) 1.0000
S8_3 S 0.11206(8) 0.79383(4) 0.88883(4)
C7_3 C 0.1202(3) 0.61967(18) 0.87279(16)
C9_3 C 0.3798(3) 0.88033(18) 0.87279(16)
N5_3 N 0.0819(3) 0.57893(17) 0.83813(15)
N10_3 N 0.4181(3) 0.92107(17) 0.83813(15)
C8_3 C 0.9289(5) 0.8514(3) 0.0000
N6_3 N 0.8362(4) 0.8823(3) 0.0000
C10_2 C 0.7948(4) 0.4055(2) 0.3402(2)
N11_2 N 0.7980(4) 0.4400(2) 0.39297(18)
C11_2 C 0.7458(7) 0.3307(3) 0.3416(3)
H7_2 H 0.8252 0.4839 0.3941
H8_2 H 0.7729 0.4192 0.4271
H9_2 H 0.7777 0.3074 0.3794
H10_2 H 0.6537 0.3326 0.3450
C13_2 C 0.7772(8) 0.2867(3) 0.2892(3)
H11_2 H 0.8692 0.2826 0.2871
H12_2 H 0.7493 0.3111 0.2512
C16_2 C 0.7228(8) 0.2133(3) 0.2892(3)
C17_2 C 0.7542(7) 0.1693(3) 0.3416(3)
H19_2 H 0.6308 0.2174 0.2871
H20_2 H 0.7507 0.1889 0.2512
C18_2 C 0.7052(4) 0.0945(2) 0.3402(2)
H21_2 H 0.7223 0.1926 0.3794
H22_2 H 0.8463 0.1674 0.3450
O6_2 O 0.6707(3) 0.06731(15) 0.29074(13)
N13_2 N 0.7020(4) 0.0600(2) 0.39297(18)
H23_2 H 0.6748 0.0161 0.3941
H24_2 H 0.7271 0.0808 0.4271
C8_4 C 0.9289(5) 0.8514(3) 1.0000
N6_4 N 0.8362(4) 0.8823(3) 1.0000
C8_5 C 0.0711(5) 0.1486(3) 0.0000
N6_5 N 0.1638(4) 0.1177(3) 0.0000
C8_6 C 0.0711(5) 0.1486(3) 1.0000
N6_6 N 0.1638(4) 0.1177(3) 1.0000
Re1_4 Re 0.80983(2) 0.30991(2) 0.06006(2)
C1_4 C 0.8798(3) 0.38033(18) 0.12721(16)
Re2_5 Re 0.60060(2) 0.29754(2) 0.0000
S1_4 S 0.88794(8) 0.20617(4) 0.11117(4)
S2_5 S 0.99870(11) 0.31653(6) 0.0000
S3_5 S 0.72252(11) 0.40514(6) 0.0000
C2_5 C 0.4289(5) 0.3514(3) 0.0000
N2_5 N 0.3362(4) 0.3823(3) 0.0000
Re3_4 Re 0.69017(2) 0.19009(2) 0.06006(2)
Re5_5 Re 0.89940(2) 0.20246(2) 0.0000
S4_4 S 0.61206(8) 0.29383(4) 0.11117(4)
S6_5 S 0.50130(11) 0.18347(6) 0.0000
S7_5 S 0.77748(11) 0.09486(6) 0.0000
C6_4 C 0.6202(3) 0.11967(18) 0.12721(16)
N4_4 N 0.5819(3) 0.07893(17) 0.16187(15)
Re2_6 Re 0.60060(2) 0.29754(2) 1.0000
S2_6 S 0.99870(11) 0.31653(6) 1.0000
S3_6 S 0.72252(11) 0.40514(6) 1.0000
C2_6 C 0.4289(5) 0.3514(3) 1.0000
N2_6 N 0.3362(4) 0.3823(3) 1.0000
Re4_4 Re 0.80983(2) 0.30991(2) 0.93994(2)
Re5_6 Re 0.89940(2) 0.20246(2) 1.0000
Re6_4 Re 0.69017(2) 0.19009(2) 0.93994(2)
S5_4 S 0.61206(8) 0.29383(4) 0.88883(4)
S6_6 S 0.50130(11) 0.18347(6) 1.0000
S7_6 S 0.77748(11) 0.09486(6) 1.0000
S8_4 S 0.88794(8) 0.20617(4) 0.88883(4)
C7_4 C 0.8798(3) 0.38033(18) 0.87279(16)
C9_4 C 0.6202(3) 0.11967(18) 0.87279(16)
N5_4 N 0.9181(3) 0.42107(17) 0.83813(15)
N10_4 N 0.5819(3) 0.07893(17) 0.83813(15)
O2_2 O 0.1707(3) 0.43269(15) 0.79074(13)
O4_2 O 0.1707(3) 0.56731(15) 0.70926(13)
C10_3 C 0.2052(4) 0.4055(2) 0.8402(2)
N11_3 N 0.2020(4) 0.4400(2) 0.89297(18)
C11_3 C 0.2542(7) 0.3307(3) 0.8416(3)
H7_3 H 0.1748 0.4839 0.8941
H8_3 H 0.2271 0.4192 0.9271
H9_3 H 0.2223 0.3074 0.8794
H10_3 H 0.3463 0.3326 0.8450
C13_3 C 0.2228(8) 0.2867(3) 0.7892(3)
H11_3 H 0.1308 0.2826 0.7871
H12_3 H 0.2507 0.3111 0.7512
C16_3 C 0.2772(8) 0.2133(3) 0.7892(3)
C17_3 C 0.2458(7) 0.1693(3) 0.8416(3)
H19_3 H 0.3692 0.2174 0.7871
H20_3 H 0.2493 0.1889 0.7512
C18_3 C 0.2948(4) 0.0945(2) 0.8402(2)
H21_3 H 0.2777 0.1926 0.8794
H22_3 H 0.1537 0.1674 0.8450
O6_3 O 0.3293(3) 0.06731(15) 0.79074(13)
N13_3 N 0.2980(4) 0.0600(2) 0.89297(18)
H23_3 H 0.3252 0.0161 0.8941
H24_3 H 0.2729 0.0808 0.9271
O1_2 O 0.8293(3) 0.56731(15) 0.79074(13)
C3_3 C 0.7948(4) 0.5945(2) 0.8402(2)
N3_3 N 0.7980(4) 0.5600(2) 0.89297(18)
C4_3 C 0.7458(7) 0.6693(3) 0.8416(3)
H1_3 H 0.8252 0.5161 0.8941
H2_3 H 0.7729 0.5808 0.9271
H3_3 H 0.7777 0.6926 0.8794
H4_3 H 0.6537 0.6674 0.8450
C5_3 C 0.7772(8) 0.7133(3) 0.7892(3)
H5_3 H 0.8692 0.7174 0.7871
H6_3 H 0.7493 0.6889 0.7512
O3_2 O 0.8293(3) 0.43269(15) 0.70926(13)
O5_3 O 0.6707(3) 0.93269(15) 0.79074(13)
C12_3 C 0.7052(4) 0.9055(2) 0.8402(2)
C14_3 C 0.7542(7) 0.8307(3) 0.8416(3)
N12_3 N 0.7020(4) 0.9400(2) 0.89297(18)
C15_3 C 0.7228(8) 0.7867(3) 0.7892(3)
H13_3 H 0.7223 0.8074 0.8794
H14_3 H 0.8463 0.8326 0.8450
H15_3 H 0.6748 0.9839 0.8941
H16_3 H 0.7271 0.9192 0.9271
H17_3 H 0.6308 0.7826 0.7871
H18_3 H 0.7507 0.8111 0.7512
C10_4 C 0.2052(4) 0.5945(2) 0.6598(2)
N11_4 N 0.2020(4) 0.5600(2) 0.60703(18)
C11_4 C 0.2542(7) 0.6693(3) 0.6584(3)
H7_4 H 0.1748 0.5161 0.6059
H8_4 H 0.2271 0.5808 0.5729
H9_4 H 0.2223 0.6926 0.6206
H10_4 H 0.3463 0.6674 0.6550
C13_4 C 0.2228(8) 0.7133(3) 0.7108(3)
H11_4 H 0.1308 0.7174 0.7129
H12_4 H 0.2507 0.6889 0.7488
C16_4 C 0.2772(8) 0.7867(3) 0.7108(3)
C17_4 C 0.2458(7) 0.8307(3) 0.6584(3)
H19_4 H 0.3692 0.7826 0.7129
H20_4 H 0.2493 0.8111 0.7488
C18_4 C 0.2948(4) 0.9055(2) 0.6598(2)
H21_4 H 0.2777 0.8074 0.6206
H22_4 H 0.1537 0.8326 0.6550
O6_4 O 0.3293(3) 0.93269(15) 0.70926(13)
N13_4 N 0.2980(4) 0.9400(2) 0.60703(18)
H23_4 H 0.3252 0.9839 0.6059
H24_4 H 0.2729 0.9192 0.5729
C3_4 C 0.7948(4) 0.4055(2) 0.6598(2)
N3_4 N 0.7980(4) 0.4400(2) 0.60703(18)
C4_4 C 0.7458(7) 0.3307(3) 0.6584(3)
H1_4 H 0.8252 0.4839 0.6059
H2_4 H 0.7729 0.4192 0.5729
H3_4 H 0.7777 0.3074 0.6206
H4_4 H 0.6537 0.3326 0.6550
C5_4 C 0.7772(8) 0.2867(3) 0.7108(3)
H5_4 H 0.8692 0.2826 0.7129
H6_4 H 0.7493 0.3111 0.7488
O5_4 O 0.6707(3) 0.06731(15) 0.70926(13)
C12_4 C 0.7052(4) 0.0945(2) 0.6598(2)
C14_4 C 0.7542(7) 0.1693(3) 0.6584(3)
N12_4 N 0.7020(4) 0.0600(2) 0.60703(18)
C15_4 C 0.7228(8) 0.2133(3) 0.7108(3)
H13_4 H 0.7223 0.1926 0.6206
H14_4 H 0.8463 0.1674 0.6550
H15_4 H 0.6748 0.0161 0.6059
H16_4 H 0.7271 0.0808 0.5729
H17_4 H 0.6308 0.2174 0.7129
H18_4 H 0.7507 0.1889 0.7488
Cs1 Cs 0.5000 0.5000 0.09002(4)
Cs1_2 Cs 0.5000 0.5000 0.40998(4)
Cs1_3 Cs -0.0000 -0.0000 0.09002(4)
Cs1_4 Cs -0.0000 1.0000 0.09002(4)
Cs1_5 Cs 1.0000 -0.0000 0.09002(4)
Cs1_6 Cs 1.0000 1.0000 0.09002(4)
Cs1_7 Cs -0.0000 0.0000 0.40998(4)
Cs1_8 Cs -0.0000 1.0000 0.40998(4)
Cs1_9 Cs 1.0000 0.0000 0.40998(4)
Cs1_10 Cs 1.0000 1.0000 0.40998(4)
Cs1_11 Cs 0.5000 0.5000 0.90998(4)
Cs1_12 Cs 0.5000 0.5000 0.59002(4)
Cs1_13 Cs 0.0000 0.0000 0.90998(4)
Cs1_14 Cs 0.0000 1.0000 0.90998(4)
Cs1_15 Cs 1.0000 0.0000 0.90998(4)
Cs1_16 Cs 1.0000 1.0000 0.90998(4)
Cs1_17 Cs 0.0000 -0.0000 0.59002(4)
Cs1_18 Cs 0.0000 1.0000 0.59002(4)
Cs1_19 Cs 1.0000 -0.0000 0.59002(4)
Cs1_20 Cs 1.0000 1.0000 0.59002(4)
loop_
_geom_bond_atom_site_label_1
_geom_bond_atom_site_label_2
_geom_bond_site_symmetry_1
_geom_bond_site_symmetry_2
Re1 C1 1_555 1_555
C1 N1 1_555 1_555
Re2 Re1 1_555 1_555
S1 Re1 1_555 1_555
S2 Re1 1_555 1_555
S3 Re1 1_555 1_555
N1 Nd1 1_555 1_555
C2 Re2 1_555 1_555
Nd1 O1 1_555 1_555
N2 C2 1_555 1_555
O1 C3 1_555 1_555
C3 N3 1_555 1_555
N3 H1 1_555 1_555
C4 C3 1_555 1_555
H2 N3 1_555 1_555
H3 C4 1_555 1_555
H4 C4 1_555 1_555
C5 C4 1_555 1_555
H5 C5 1_555 1_555
H6 C5 1_555 1_555
Re3 Re1 1_555 1_555
Re4 Re1 1_555 1_555
Re5 Re1 1_555 1_555
S4 Re1 1_555 1_555
Re6 Re2 1_555 1_555
S5 Re2 1_555 1_555
S6 Re2 1_555 1_555
S7 Re3 1_555 1_555
C6 Re3 1_555 1_555
S8 Re4 1_555 1_555
C7 Re4 1_555 1_555
C9 Re6 1_555 1_555
N4 C6 1_555 1_555
N5 C7 1_555 1_555
N8 Nd1 1_555 1_555
O3 Nd1 1_555 1_555
N10 C9 1_555 1_555
Nd2 N4 1_555 1_555
Nd3 N5 1_555 1_555
Nd4 N10 1_555 1_555
O5 Nd2 1_555 1_555
C12 O5 1_555 1_555
C14 C12 1_555 1_555
N12 C12 1_555 1_555
C15 C5 1_555 1_555
H13 C14 1_555 1_555
H14 C14 1_555 1_555
H15 N12 1_555 1_555
H16 N12 1_555 1_555
H17 C15 1_555 1_555
H18 C15 1_555 1_555
Re2 S3 1_555 1_555
Re2 Re3 1_555 1_555
Re2 Re4 1_555 1_555
Re2 S4 1_555 1_555
S1 Re3 1_555 1_555
S1 Re5 1_555 1_555
S2 Re4 1_555 1_555
S2 Re5 1_555 1_555
S3 Re4 1_555 1_555
Re3 Re5 1_555 1_555
Re3 S4 1_555 1_555
Re3 Re6 1_555 1_555
Re3 S6 1_555 1_555
Re4 Re5 1_555 1_555
Re4 Re6 1_555 1_555
Re4 S5 1_555 1_555
Re5 Re6 1_555 1_555
Re5 S7 1_555 1_555
Re5 S8 1_555 1_555
Re6 S5 1_555 1_555
Re6 S6 1_555 1_555
Re6 S7 1_555 1_555
Re6 S8 1_555 1_555
C14 C15 1_555 1_555
N6 C8 1_555 1_555
N7 Nd1_2 1_555 1_555
O2 Nd1_2 1_555 1_555
N9 Nd1_2 1_555 1_555
O4 Nd1_2 1_555 1_555
C10 O2 1_555 1_555
N11 C10 1_555 1_555
C11 C10 1_555 1_555
H7 N11 1_555 1_555
H8 N11 1_555 1_555
H9 C11 1_555 1_555
H10 C11 1_555 1_555
C13 C11 1_555 1_555
H11 C13 1_555 1_555
H12 C13 1_555 1_555
C16 C13 1_555 1_555
C17 C16 1_555 1_555
H19 C16 1_555 1_555
H20 C16 1_555 1_555
C18 C17 1_555 1_555
H21 C17 1_555 1_555
H22 C17 1_555 1_555
O6 C18 1_555 1_555
N13 C18 1_555 1_555
Nd2_2 O6 1_555 1_555
H23 N13 1_555 1_555
H24 N13 1_555 1_555
N6_2 C8_2 1_555 1_555
Re1_2 C1_2 1_555 1_555
C1_2 N7 1_555 1_555
Re2_2 Re1_2 1_555 1_555
S1_2 Re1_2 1_555 1_555
S2_2 Re1_2 1_555 1_555
S3_2 Re1_2 1_555 1_555
C2_2 Re2_2 1_555 1_555
N2_2 C2_2 1_555 1_555
Re3_2 Re1_2 1_555 1_555
Re4_2 Re1_2 1_555 1_555
Re5_2 Re1_2 1_555 1_555
S4_2 Re1_2 1_555 1_555
Re6_2 Re2_2 1_555 1_555
S5_2 Re2_2 1_555 1_555
S6_2 Re2_2 1_555 1_555
S7_2 Re3_2 1_555 1_555
C6_2 Re3_2 1_555 1_555
S8_2 Re4_2 1_555 1_555
C7_2 Re4_2 1_555 1_555
C9_2 Re6_2 1_555 1_555
N4_2 C6_2 1_555 1_555
N5_2 C7_2 1_555 1_555
N10_2 C9_2 1_555 1_555
Nd2_2 N4_2 1_555 1_555
Nd3_2 N5_2 1_555 1_555
Nd4_2 N10_2 1_555 1_555
Re2_2 S3_2 1_555 1_555
Re2_2 Re3_2 1_555 1_555
Re2_2 Re4_2 1_555 1_555
Re2_2 S4_2 1_555 1_555
S1_2 Re3_2 1_555 1_555
S1_2 Re5_2 1_555 1_555
S2_2 Re4_2 1_555 1_555
S2_2 Re5_2 1_555 1_555
S3_2 Re4_2 1_555 1_555
Re3_2 Re5_2 1_555 1_555
Re3_2 S4_2 1_555 1_555
Re3_2 Re6_2 1_555 1_555
Re3_2 S6_2 1_555 1_555
Re4_2 Re5_2 1_555 1_555
Re4_2 Re6_2 1_555 1_555
Re4_2 S5_2 1_555 1_555
Re5_2 Re6_2 1_555 1_555
Re5_2 S7_2 1_555 1_555
Re5_2 S8_2 1_555 1_555
Re6_2 S5_2 1_555 1_555
Re6_2 S6_2 1_555 1_555
Re6_2 S7_2 1_555 1_555
Re6_2 S8_2 1_555 1_555
Re1_3 C1_3 1_555 1_555
C1_3 N8 1_555 1_555
Re2_3 Re1_3 1_555 1_555
S1_3 Re1_3 1_555 1_555
S2_3 Re1_3 1_555 1_555
S3_3 Re1_3 1_555 1_555
C2_3 Re2_3 1_555 1_555
N2_3 C2_3 1_555 1_555
O3 C3_2 1_555 1_555
C3_2 N3_2 1_555 1_555
N3_2 H1_2 1_555 1_555
C4_2 C3_2 1_555 1_555
H2_2 N3_2 1_555 1_555
H3_2 C4_2 1_555 1_555
H4_2 C4_2 1_555 1_555
C5_2 C4_2 1_555 1_555
H5_2 C5_2 1_555 1_555
H6_2 C5_2 1_555 1_555
Re3_3 Re1_3 1_555 1_555
Re5_3 Re1_3 1_555 1_555
S4_3 Re1_3 1_555 1_555
S6_3 Re2_3 1_555 1_555
S7_3 Re3_3 1_555 1_555
C6_3 Re3_3 1_555 1_555
N4_3 C6_3 1_555 1_555
Nd2_2 N4_3 1_555 1_555
O5_2 Nd2_2 1_555 1_555
C12_2 O5_2 1_555 1_555
C14_2 C12_2 1_555 1_555
N12_2 C12_2 1_555 1_555
C15_2 C5_2 1_555 1_555
H13_2 C14_2 1_555 1_555
H14_2 C14_2 1_555 1_555
H15_2 N12_2 1_555 1_555
H16_2 N12_2 1_555 1_555
H17_2 C15_2 1_555 1_555
H18_2 C15_2 1_555 1_555
Re2_3 S3_3 1_555 1_555
Re2_3 Re3_3 1_555 1_555
Re2_3 S4_3 1_555 1_555
S1_3 Re3_3 1_555 1_555
S1_3 Re5_3 1_555 1_555
S2_3 Re5_3 1_555 1_555
Re3_3 Re5_3 1_555 1_555
Re3_3 S4_3 1_555 1_555
Re3_3 S6_3 1_555 1_555
Re5_3 S7_3 1_555 1_555
C14_2 C15_2 1_555 1_555
C2_4 Re2_4 1_555 1_555
N2_4 C2_4 1_555 1_555
Re6_3 Re2_4 1_555 1_555
S5_3 Re2_4 1_555 1_555
S6_4 Re2_4 1_555 1_555
S8_3 Re4_3 1_555 1_555
C7_3 Re4_3 1_555 1_555
C9_3 Re6_3 1_555 1_555
N5_3 C7_3 1_555 1_555
N10_3 C9_3 1_555 1_555
Nd3 N5_3 1_555 1_555
Nd4_2 N10_3 1_555 1_555
Re2_4 S3_4 1_555 1_555
Re2_4 Re4_3 1_555 1_555
S2_4 Re4_3 1_555 1_555
S2_4 Re5_4 1_555 1_555
S3_4 Re4_3 1_555 1_555
Re4_3 Re5_4 1_555 1_555
Re4_3 Re6_3 1_555 1_555
Re4_3 S5_3 1_555 1_555
Re5_4 Re6_3 1_555 1_555
Re5_4 S7_4 1_555 1_555
Re5_4 S8_3 1_555 1_555
Re6_3 S5_3 1_555 1_555
Re6_3 S6_4 1_555 1_555
Re6_3 S7_4 1_555 1_555
Re6_3 S8_3 1_555 1_555
N6_3 C8_3 1_555 1_555
C10_2 O4 1_555 1_555
N11_2 C10_2 1_555 1_555
C11_2 C10_2 1_555 1_555
H7_2 N11_2 1_555 1_555
H8_2 N11_2 1_555 1_555
H9_2 C11_2 1_555 1_555
H10_2 C11_2 1_555 1_555
C13_2 C11_2 1_555 1_555
H11_2 C13_2 1_555 1_555
H12_2 C13_2 1_555 1_555
C16_2 C13_2 1_555 1_555
C17_2 C16_2 1_555 1_555
H19_2 C16_2 1_555 1_555
H20_2 C16_2 1_555 1_555
C18_2 C17_2 1_555 1_555
H21_2 C17_2 1_555 1_555
H22_2 C17_2 1_555 1_555
O6_2 C18_2 1_555 1_555
N13_2 C18_2 1_555 1_555
Nd2 O6_2 1_555 1_555
H23_2 N13_2 1_555 1_555
H24_2 N13_2 1_555 1_555
N6_4 C8_4 1_555 1_555
N6_5 C8_5 1_555 1_555
N6_6 C8_6 1_555 1_555
Re1_4 C1_4 1_555 1_555
C1_4 N9 1_555 1_555
Re2_5 Re1_4 1_555 1_555
S1_4 Re1_4 1_555 1_555
S2_5 Re1_4 1_555 1_555
S3_5 Re1_4 1_555 1_555
C2_5 Re2_5 1_555 1_555
N2_5 C2_5 1_555 1_555
Re3_4 Re1_4 1_555 1_555
Re5_5 Re1_4 1_555 1_555
S4_4 Re1_4 1_555 1_555
S6_5 Re2_5 1_555 1_555
S7_5 Re3_4 1_555 1_555
C6_4 Re3_4 1_555 1_555
N4_4 C6_4 1_555 1_555
Nd2 N4_4 1_555 1_555
Re2_5 S3_5 1_555 1_555
Re2_5 Re3_4 1_555 1_555
Re2_5 S4_4 1_555 1_555
S1_4 Re3_4 1_555 1_555
S1_4 Re5_5 1_555 1_555
S2_5 Re5_5 1_555 1_555
Re3_4 Re5_5 1_555 1_555
Re3_4 S4_4 1_555 1_555
Re3_4 S6_5 1_555 1_555
Re5_5 S7_5 1_555 1_555
C2_6 Re2_6 1_555 1_555
N2_6 C2_6 1_555 1_555
Re6_4 Re2_6 1_555 1_555
S5_4 Re2_6 1_555 1_555
S6_6 Re2_6 1_555 1_555
S8_4 Re4_4 1_555 1_555
C7_4 Re4_4 1_555 1_555
C9_4 Re6_4 1_555 1_555
N5_4 C7_4 1_555 1_555
N10_4 C9_4 1_555 1_555
Nd3_2 N5_4 1_555 1_555
Nd4 N10_4 1_555 1_555
Re2_6 S3_6 1_555 1_555
Re2_6 Re4_4 1_555 1_555
S2_6 Re4_4 1_555 1_555
S2_6 Re5_6 1_555 1_555
S3_6 Re4_4 1_555 1_555
Re4_4 Re5_6 1_555 1_555
Re4_4 Re6_4 1_555 1_555
Re4_4 S5_4 1_555 1_555
Re5_6 Re6_4 1_555 1_555
Re5_6 S7_6 1_555 1_555
Re5_6 S8_4 1_555 1_555
Re6_4 S5_4 1_555 1_555
Re6_4 S6_6 1_555 1_555
Re6_4 S7_6 1_555 1_555
Re6_4 S8_4 1_555 1_555
O2_2 Nd3 1_555 1_555
O4_2 Nd3 1_555 1_555
C10_3 O2_2 1_555 1_555
N11_3 C10_3 1_555 1_555
C11_3 C10_3 1_555 1_555
H7_3 N11_3 1_555 1_555
H8_3 N11_3 1_555 1_555
H9_3 C11_3 1_555 1_555
H10_3 C11_3 1_555 1_555
C13_3 C11_3 1_555 1_555
H11_3 C13_3 1_555 1_555
H12_3 C13_3 1_555 1_555
C16_3 C13_3 1_555 1_555
C17_3 C16_3 1_555 1_555
H19_3 C16_3 1_555 1_555
H20_3 C16_3 1_555 1_555
C18_3 C17_3 1_555 1_555
H21_3 C17_3 1_555 1_555
H22_3 C17_3 1_555 1_555
O6_3 C18_3 1_555 1_555
N13_3 C18_3 1_555 1_555
Nd4 O6_3 1_555 1_555
H23_3 N13_3 1_555 1_555
H24_3 N13_3 1_555 1_555
Nd3_2 O1_2 1_555 1_555
O1_2 C3_3 1_555 1_555
C3_3 N3_3 1_555 1_555
N3_3 H1_3 1_555 1_555
C4_3 C3_3 1_555 1_555
H2_3 N3_3 1_555 1_555
H3_3 C4_3 1_555 1_555
H4_3 C4_3 1_555 1_555
C5_3 C4_3 1_555 1_555
H5_3 C5_3 1_555 1_555
H6_3 C5_3 1_555 1_555
O3_2 Nd3_2 1_555 1_555
O5_3 Nd4_2 1_555 1_555
C12_3 O5_3 1_555 1_555
C14_3 C12_3 1_555 1_555
N12_3 C12_3 1_555 1_555
C15_3 C5_3 1_555 1_555
H13_3 C14_3 1_555 1_555
H14_3 C14_3 1_555 1_555
H15_3 N12_3 1_555 1_555
H16_3 N12_3 1_555 1_555
H17_3 C15_3 1_555 1_555
H18_3 C15_3 1_555 1_555
C14_3 C15_3 1_555 1_555
C10_4 O4_2 1_555 1_555
N11_4 C10_4 1_555 1_555
C11_4 C10_4 1_555 1_555
H7_4 N11_4 1_555 1_555
H8_4 N11_4 1_555 1_555
H9_4 C11_4 1_555 1_555
H10_4 C11_4 1_555 1_555
C13_4 C11_4 1_555 1_555
H11_4 C13_4 1_555 1_555
H12_4 C13_4 1_555 1_555
C16_4 C13_4 1_555 1_555
C17_4 C16_4 1_555 1_555
H19_4 C16_4 1_555 1_555
H20_4 C16_4 1_555 1_555
C18_4 C17_4 1_555 1_555
H21_4 C17_4 1_555 1_555
H22_4 C17_4 1_555 1_555
O6_4 C18_4 1_555 1_555
N13_4 C18_4 1_555 1_555
Nd4_2 O6_4 1_555 1_555
H23_4 N13_4 1_555 1_555
H24_4 N13_4 1_555 1_555
O3_2 C3_4 1_555 1_555
C3_4 N3_4 1_555 1_555
N3_4 H1_4 1_555 1_555
C4_4 C3_4 1_555 1_555
H2_4 N3_4 1_555 1_555
H3_4 C4_4 1_555 1_555
H4_4 C4_4 1_555 1_555
C5_4 C4_4 1_555 1_555
H5_4 C5_4 1_555 1_555
H6_4 C5_4 1_555 1_555
O5_4 Nd4 1_555 1_555
C12_4 O5_4 1_555 1_555
C14_4 C12_4 1_555 1_555
N12_4 C12_4 1_555 1_555
C15_4 C5_4 1_555 1_555
H13_4 C14_4 1_555 1_555
H14_4 C14_4 1_555 1_555
H15_4 N12_4 1_555 1_555
H16_4 N12_4 1_555 1_555
H17_4 C15_4 1_555 1_555
H18_4 C15_4 1_555 1_555
C14_4 C15_4 1_555 1_555

#END
