
###############################################################################
#
# This file contains modified crystal structure data generated from the
# MOF subset of the Cambridge Structural Database (CSD) v543 
# hosted by the Cambridge Crystallographic Data Centre (CCDC).
#
# This work is licensed under the Creative Commons
# Attribution-NonCommercial-ShareAlike 4.0 International License.
# To view a copy of this license, visit
# http://creativecommons.org/licenses/by-nc-sa/4.0/
# or send a letter to
# Creative Commons, PO Box 1866, Mountain View, CA 94042, USA.
#
# CIF created using the CSD Python API on 29 September 2022
# The structure has been converted into the P1 space group
# The structure has a 3D framework
# The original CSD entry KACCEA is in the rhombohedral crystal system
# The original CSD entry KACCEA is in a Sohncke space group
# The framework has been calculated to contain at least 10.0% void space
# The void calculation uses a probe of radius 1.32A, grid spacing 0.4
# The framework is charged, counterions have been retained in the structure
#
###############################################################################

data_KACCEA
_chemical_formula_moiety         '(C252 H108 Cu18 N18 O122 18-)n'
_symmetry_cell_setting           triclinic
_symmetry_space_group_name_H-M   'P 1'
_symmetry_Int_Tables_number      1
_space_group_name_Hall           'P 1'
loop_
_symmetry_equiv_pos_site_id
_symmetry_equiv_pos_as_xyz
1 x,y,z
_cell_length_a                   18.0487(5)
_cell_length_b                   18.0487(5)
_cell_length_c                   36.3959(11)
_cell_angle_alpha                90
_cell_angle_beta                 90
_cell_angle_gamma                120
_cell_volume                     10267.7
loop_
_atom_site_label
_atom_site_type_symbol
_atom_site_fract_x
_atom_site_fract_y
_atom_site_fract_z
Cu1 Cu 0.83246(2) 0.11213(2) 0.69476(2)
O1 O 0.75103(12) 0.05369(11) 0.61666(5)
O2 O 0.78170(13) 0.00508(11) 0.66824(4)
Cu3 Cu 0.77880(2) 0.16579(2) 0.63857(2)
O8 O 0.72036(11) 0.08436(12) 0.71667(5)
O9 O 0.93377(17) 0.15579(12) 0.66165(5)
O10 O 0.88144(12) 0.22666(16) 0.71578(5)
O11 O 0.87637(12) 0.06821(16) 0.73856(5)
O3 O 0.84421(12) 0.77798(12) 0.66165(5)
O4 O 0.78523(12) 0.67856(11) 0.61755(5)
O5 O 0.5681(2) 0.6619(2) 0.54701(9)
O6 O 0.46352(15) 0.65321(14) 0.42148(7)
O7 O 0.52518(10) 0.79030(12) 0.40523(5)
N1 N 0.59266(19) 0.71916(16) 0.52136(7)
C1 C 0.74712(16) 0.92019(16) 0.61550(7)
C2 C 0.77687(17) 0.87079(16) 0.63216(7)
H1 H 0.8031 0.8862 0.6557
C3 C 0.76813(17) 0.79888(16) 0.61440(7)
C4 C 0.72882(18) 0.77533(17) 0.58044(7)
H2 H 0.7220 0.7252 0.5688
C5 C 0.69931(19) 0.82392(17) 0.56318(7)
C6 C 0.70994(18) 0.89864(17) 0.58053(7)
H3 H 0.6921 0.9339 0.5686
C7 C 0.75938(15) 0.99889(16) 0.63499(7)
C8 C 0.80275(16) 0.74829(16) 0.63273(7)
C9 C 0.65682(19) 0.80038(18) 0.52696(7)
C10 C 0.5485(2) 0.6965(2) 0.48859(8)
H4 H 0.5034 0.6393 0.4851
C11 C 0.56862(19) 0.75503(16) 0.46097(7)
C12 C 0.63602(17) 0.83827(17) 0.46606(7)
H5 H 0.6521 0.8795 0.4470
C13 C 0.67904(18) 0.85989(17) 0.49916(7)
H6 H 0.7247 0.9166 0.5029
C14 C 0.51424(17) 0.73028(17) 0.42670(7)
Cu2 Cu 0.88787(2) 0.72033(3) 0.69476(2)
Cu4 Cu 0.83421(2) 0.61300(3) 0.63857(2)
Cu5 Cu 0.61300(3) 0.83421(2) 0.36143(2)
O3_2 O 0.22202(12) 0.06623(17) 0.66165(5)
O4_2 O 0.32144(11) 0.10667(16) 0.61755(5)
C8_2 C 0.25171(16) 0.05446(23) 0.63273(7)
Cu2_2 Cu 0.27967(3) 0.16754(4) 0.69476(2)
Cu4_2 Cu 0.38700(3) 0.22120(4) 0.63857(2)
O5_2 O 0.3381(2) 0.9062(3) 0.54701(9)
O6_2 O 0.34679(14) 0.81031(21) 0.42148(7)
O7_2 O 0.20970(12) 0.73488(16) 0.40523(5)
N1_2 N 0.28084(16) 0.87350(25) 0.52136(7)
C1_2 C 0.07981(16) 0.82693(23) 0.61550(7)
C2_2 C 0.12921(16) 0.90608(23) 0.63216(7)
H1_2 H 0.1138 0.9169 0.6557
C3_2 C 0.20112(16) 0.96925(23) 0.61440(7)
C4_2 C 0.22467(17) 0.95349(25) 0.58044(7)
H2_2 H 0.2748 0.9968 0.5688
C5_2 C 0.17608(17) 0.87539(25) 0.56318(7)
C6_2 C 0.10136(17) 0.81130(25) 0.58053(7)
H3_2 H 0.0661 0.7582 0.5686
C7_2 C 0.00111(16) 0.76049(22) 0.63499(7)
C9_2 C 0.19962(18) 0.85644(26) 0.52696(7)
C10_2 C 0.3035(2) 0.8520(3) 0.48859(8)
H4_2 H 0.3607 0.8641 0.4851
C11_2 C 0.24497(16) 0.81359(25) 0.46097(7)
C12_2 C 0.16173(17) 0.79775(24) 0.46606(7)
H5_2 H 0.1205 0.7726 0.4470
C13_2 C 0.14011(17) 0.81915(25) 0.49916(7)
H6_2 H 0.0834 0.8081 0.5029
C14_2 C 0.26972(17) 0.78396(24) 0.42670(7)
Cu5_2 Cu 0.16579(2) 0.77880(4) 0.36143(2)
O1_2 O 0.94631(11) 0.69734(16) 0.61666(5)
O2_2 O 0.99492(11) 0.77662(17) 0.66824(4)
O8_2 O 0.91564(12) 0.63599(16) 0.71667(5)
O10_2 O 0.77334(16) 0.65477(20) 0.71578(5)
O11_2 O 0.93179(16) 0.80815(20) 0.73856(5)
O1_3 O 0.30266(16) 0.24897(12) 0.61666(5)
O2_3 O 0.22338(17) 0.21830(13) 0.66824(4)
O5_3 O 0.0938(3) 0.4319(2) 0.54701(9)
O6_3 O 0.18969(21) 0.53648(15) 0.42148(7)
O7_3 O 0.26512(16) 0.47482(10) 0.40523(5)
N1_3 N 0.12650(25) 0.40734(19) 0.52136(7)
C1_3 C 0.17307(23) 0.25288(16) 0.61550(7)
C2_3 C 0.09392(23) 0.22313(17) 0.63216(7)
H1_3 H 0.0831 0.1969 0.6557
C3_3 C 0.03075(23) 0.23187(17) 0.61440(7)
C4_3 C 0.04651(25) 0.27118(18) 0.58044(7)
H2_3 H 0.0032 0.2780 0.5688
C5_3 C 0.12461(25) 0.30069(19) 0.56318(7)
C6_3 C 0.18870(25) 0.29006(18) 0.58053(7)
H3_3 H 0.2418 0.3079 0.5686
C7_3 C 0.23951(22) 0.24062(15) 0.63499(7)
C9_3 C 0.14356(26) 0.34318(19) 0.52696(7)
C10_3 C 0.1480(3) 0.4515(2) 0.48859(8)
H4_3 H 0.1359 0.4966 0.4851
C11_3 C 0.18641(25) 0.43138(19) 0.46097(7)
C12_3 C 0.20225(24) 0.36398(17) 0.46606(7)
H5_3 H 0.2274 0.3479 0.4470
C13_3 C 0.18085(25) 0.32096(18) 0.49916(7)
H6_3 H 0.1919 0.2753 0.5029
C14_3 C 0.21604(24) 0.48576(17) 0.42670(7)
Cu5_3 Cu 0.22120(4) 0.38700(3) 0.36143(2)
O8_3 O 0.36401(16) 0.27964(11) 0.71667(5)
O10_3 O 0.34523(20) 0.11856(12) 0.71578(5)
O11_3 O 0.19185(20) 0.12363(12) 0.73856(5)
O4_3 O 0.89333(16) 0.21477(12) 0.61755(5)
C8_3 C 0.94554(23) 0.19725(16) 0.63273(7)
Cu1_2 Cu 0.11213(2) 0.83246(2) 0.30524(2)
O1_4 O 0.05369(11) 0.75103(12) 0.38334(5)
O2_4 O 0.00508(11) 0.78170(13) 0.33176(4)
O8_4 O 0.08436(12) 0.72036(11) 0.28333(5)
O9_2 O 0.15579(12) 0.93377(17) 0.33835(5)
O10_4 O 0.22666(16) 0.88144(12) 0.28422(5)
O11_4 O 0.06821(16) 0.87637(12) 0.26144(5)
O3_3 O 0.77798(12) 0.84421(12) 0.33835(5)
O4_4 O 0.67856(11) 0.78523(12) 0.38245(5)
O5_4 O 0.6619(2) 0.5681(2) 0.45299(9)
O6_4 O 0.65321(14) 0.46352(15) 0.57852(7)
O7_4 O 0.79030(12) 0.52518(10) 0.59477(5)
N1_4 N 0.71916(16) 0.59266(19) 0.47864(7)
C1_4 C 0.92019(16) 0.74712(16) 0.38450(7)
C2_4 C 0.87079(16) 0.77687(17) 0.36784(7)
H1_4 H 0.8862 0.8031 0.3443
C3_4 C 0.79888(16) 0.76813(17) 0.38560(7)
C4_4 C 0.77533(17) 0.72882(18) 0.41956(7)
H2_4 H 0.7252 0.7220 0.4312
C5_4 C 0.82392(17) 0.69931(19) 0.43682(7)
C6_4 C 0.89864(17) 0.70994(18) 0.41947(7)
H3_4 H 0.9339 0.6921 0.4314
C7_4 C 0.99889(16) 0.75938(15) 0.36501(7)
C8_4 C 0.74829(16) 0.80275(16) 0.36727(7)
C9_4 C 0.80038(18) 0.65682(19) 0.47304(7)
C10_4 C 0.6965(2) 0.5485(2) 0.51141(8)
H4_4 H 0.6393 0.5034 0.5149
C11_4 C 0.75503(16) 0.56862(19) 0.53903(7)
C12_4 C 0.83827(17) 0.63602(17) 0.53394(7)
H5_4 H 0.8795 0.6521 0.5530
C13_4 C 0.85989(17) 0.67904(18) 0.50084(7)
H6_4 H 0.9166 0.7247 0.4971
C14_4 C 0.73028(17) 0.51424(17) 0.57330(7)
Cu2_3 Cu 0.72033(3) 0.88787(2) 0.30524(2)
O3_4 O 0.06623(17) 0.22202(12) 0.33835(5)
O4_5 O 0.10667(16) 0.32144(11) 0.38245(5)
C8_5 C 0.05446(23) 0.25171(16) 0.36727(7)
Cu2_4 Cu 0.16754(4) 0.27967(3) 0.30524(2)
O5_5 O 0.9062(3) 0.3381(2) 0.45299(9)
O6_5 O 0.81031(21) 0.34679(14) 0.57852(7)
O7_5 O 0.73488(16) 0.20970(12) 0.59477(5)
N1_5 N 0.87350(25) 0.28084(16) 0.47864(7)
C1_5 C 0.82693(23) 0.07981(16) 0.38450(7)
C2_5 C 0.90608(23) 0.12921(16) 0.36784(7)
H1_5 H 0.9169 0.1138 0.3443
C3_5 C 0.96925(23) 0.20112(16) 0.38560(7)
C4_5 C 0.95349(25) 0.22467(17) 0.41956(7)
H2_5 H 0.9968 0.2748 0.4312
C5_5 C 0.87539(25) 0.17608(17) 0.43682(7)
C6_5 C 0.81130(25) 0.10136(17) 0.41947(7)
H3_5 H 0.7582 0.0661 0.4314
C7_5 C 0.76049(22) 0.00111(16) 0.36501(7)
C9_5 C 0.85644(26) 0.19962(18) 0.47304(7)
C10_5 C 0.8520(3) 0.3035(2) 0.51141(8)
H4_5 H 0.8641 0.3607 0.5149
C11_5 C 0.81359(25) 0.24497(16) 0.53903(7)
C12_5 C 0.79775(24) 0.16173(17) 0.53394(7)
H5_5 H 0.7726 0.1205 0.5530
C13_5 C 0.81915(25) 0.14011(17) 0.50084(7)
H6_5 H 0.8081 0.0834 0.4971
C14_5 C 0.78396(24) 0.26972(17) 0.57330(7)
O1_5 O 0.69734(16) 0.94631(11) 0.38334(5)
O2_5 O 0.77662(17) 0.99492(11) 0.33176(4)
O8_5 O 0.63599(16) 0.91564(12) 0.28333(5)
O10_5 O 0.65477(20) 0.77334(16) 0.28422(5)
O11_5 O 0.80815(20) 0.93179(16) 0.26144(5)
O1_6 O 0.24897(12) 0.30266(16) 0.38334(5)
O2_6 O 0.21830(13) 0.22338(17) 0.33176(4)
O5_6 O 0.4319(2) 0.0938(3) 0.45299(9)
O6_6 O 0.53648(15) 0.18969(21) 0.57852(7)
O7_6 O 0.47482(10) 0.26512(16) 0.59477(5)
N1_6 N 0.40734(19) 0.12650(25) 0.47864(7)
C1_6 C 0.25288(16) 0.17307(23) 0.38450(7)
C2_6 C 0.22313(17) 0.09392(23) 0.36784(7)
H1_6 H 0.1969 0.0831 0.3443
C3_6 C 0.23187(17) 0.03075(23) 0.38560(7)
C4_6 C 0.27118(18) 0.04651(25) 0.41956(7)
H2_6 H 0.2780 0.0032 0.4312
C5_6 C 0.30069(19) 0.12461(25) 0.43682(7)
C6_6 C 0.29006(18) 0.18870(25) 0.41947(7)
H3_6 H 0.3079 0.2418 0.4314
C7_6 C 0.24062(15) 0.23951(22) 0.36501(7)
C9_6 C 0.34318(19) 0.14356(26) 0.47304(7)
C10_6 C 0.4515(2) 0.1480(3) 0.51141(8)
H4_6 H 0.4966 0.1359 0.5149
C11_6 C 0.43138(19) 0.18641(25) 0.53903(7)
C12_6 C 0.36398(17) 0.20225(24) 0.53394(7)
H5_6 H 0.3479 0.2274 0.5530
C13_6 C 0.32096(18) 0.18085(25) 0.50084(7)
H6_6 H 0.2753 0.1919 0.4971
C14_6 C 0.48576(17) 0.21604(24) 0.57330(7)
O8_6 O 0.27964(11) 0.36401(16) 0.28333(5)
O10_6 O 0.11856(12) 0.34523(20) 0.28422(5)
O11_6 O 0.12363(12) 0.19185(20) 0.26144(5)
O4_6 O 0.21477(12) 0.89333(16) 0.38245(5)
C8_6 C 0.19725(16) 0.94554(23) 0.36727(7)
Cu1_3 Cu 0.49913(2) 0.44546(2) 0.02809(2)
O2_7 O 0.44837(13) 0.33841(11) 0.00157(4)
Cu2_5 Cu 0.55454(2) 0.05366(3) 0.02809(2)
O8_7 O 0.38702(11) 0.41770(12) 0.05001(5)
O10_7 O 0.54810(12) 0.56000(16) 0.04912(5)
O11_7 O 0.54303(12) 0.40155(16) 0.07190(5)
O1_7 O 0.41770(12) 0.38702(11) 0.94999(5)
O3_5 O 0.51088(12) 0.11131(12) 0.99498(5)
O4_7 O 0.45190(12) 0.01189(11) 0.95088(5)
N1_7 N 0.25933(19) 0.05249(16) 0.85469(7)
C1_7 C 0.41379(16) 0.25352(16) 0.94883(7)
C2_7 C 0.44354(17) 0.20412(16) 0.96549(7)
H1_7 H 0.4698 0.2195 0.9890
C3_7 C 0.43480(17) 0.13221(16) 0.94773(7)
C4_7 C 0.39549(18) 0.10866(17) 0.91377(7)
H2_7 H 0.3887 0.0585 0.9021
C5_7 C 0.36598(19) 0.15725(17) 0.89651(7)
C6_7 C 0.37661(18) 0.23197(17) 0.91386(7)
H3_7 H 0.3588 0.2672 0.9019
C7_7 C 0.42605(15) 0.33222(16) 0.96832(7)
C8_7 C 0.46942(16) 0.08162(16) 0.96606(7)
C9_7 C 0.32349(19) 0.13371(18) 0.86029(7)
C10_7 C 0.2152(2) 0.0298(2) 0.82192(8)
C11_7 C 0.23529(19) 0.08836(16) 0.79430(7)
C12_7 C 0.30269(17) 0.17160(17) 0.79939(7)
H5_7 H 0.3188 0.2128 0.7803
C13_7 C 0.34571(18) 0.19322(17) 0.83249(7)
H6_7 H 0.3914 0.2499 0.8362
C14_7 C 0.18091(17) 0.06361(17) 0.76003(7)
Cu3_2 Cu 0.44546(2) 0.49913(2) 0.97191(2)
O9_3 O 0.60044(17) 0.48912(12) 0.99498(5)
O5_7 O 0.2348(2) 0.9952(2) 0.88034(9)
O6_7 O 0.13019(15) 0.98654(14) 0.75481(7)
H4_7 H 0.1701 0.9726 0.8184
Cu4_3 Cu 0.50087(2) 0.94634(3) 0.97191(2)
O5_8 O 0.0048(2) 0.2395(3) 0.88034(9)
O6_8 O 0.01346(14) 0.14364(21) 0.75481(7)
H4_8 H 0.0274 0.1974 0.8184
Cu4_4 Cu 0.05366(3) 0.55454(4) 0.97191(2)
O2_8 O 0.66159(11) 0.10995(17) 0.00157(4)
Cu2_6 Cu 0.94634(3) 0.50087(4) 0.02809(2)
O11_8 O 0.59845(16) 0.14149(20) 0.07190(5)
O1_8 O 0.61298(11) 0.03067(16) 0.94999(5)
O3_6 O 0.88869(12) 0.39956(17) 0.99498(5)
O4_8 O 0.98811(11) 0.44000(16) 0.95088(5)
N1_8 N 0.94751(16) 0.20683(25) 0.85469(7)
C1_8 C 0.74648(16) 0.16026(23) 0.94883(7)
C2_8 C 0.79588(16) 0.23941(23) 0.96549(7)
H1_8 H 0.7805 0.2502 0.9890
C3_8 C 0.86779(16) 0.30258(23) 0.94773(7)
C4_8 C 0.89134(17) 0.28682(25) 0.91377(7)
H2_8 H 0.9415 0.3301 0.9021
C5_8 C 0.84275(17) 0.20872(25) 0.89651(7)
C6_8 C 0.76803(17) 0.14463(25) 0.91386(7)
H3_8 H 0.7328 0.0915 0.9019
C7_8 C 0.66778(16) 0.09382(22) 0.96832(7)
C8_8 C 0.91838(16) 0.38779(23) 0.96606(7)
C9_8 C 0.86629(18) 0.18977(26) 0.86029(7)
C10_8 C 0.9702(2) 0.1853(3) 0.82192(8)
C11_8 C 0.91164(16) 0.14692(25) 0.79430(7)
C12_8 C 0.82840(17) 0.13108(24) 0.79939(7)
H5_8 H 0.7872 0.1059 0.7803
C13_8 C 0.80678(17) 0.15248(25) 0.83249(7)
H6_8 H 0.7501 0.1414 0.8362
C14_8 C 0.93639(17) 0.11729(24) 0.76003(7)
O8_8 O 0.58230(12) 0.96933(16) 0.05001(5)
O10_8 O 0.44000(16) 0.98811(20) 0.04912(5)
O8_9 O 0.03067(16) 0.61298(11) 0.05001(5)
O10_9 O 0.01189(20) 0.45190(12) 0.04912(5)
O2_9 O 0.89005(17) 0.55163(13) 0.00157(4)
O11_9 O 0.85851(20) 0.45697(12) 0.07190(5)
O1_9 O 0.96933(16) 0.58230(12) 0.94999(5)
O4_9 O 0.56000(16) 0.54810(12) 0.95088(5)
O5_9 O 0.7605(3) 0.7652(2) 0.88034(9)
O6_9 O 0.85636(21) 0.86981(15) 0.75481(7)
N1_9 N 0.79317(25) 0.74067(19) 0.85469(7)
C1_9 C 0.83974(23) 0.58621(16) 0.94883(7)
C2_9 C 0.76059(23) 0.55646(17) 0.96549(7)
H1_9 H 0.7498 0.5302 0.9890
C3_9 C 0.69742(23) 0.56520(17) 0.94773(7)
C4_9 C 0.71318(25) 0.60451(18) 0.91377(7)
H2_9 H 0.6699 0.6113 0.9021
C5_9 C 0.79128(25) 0.63402(19) 0.89651(7)
C6_9 C 0.85537(25) 0.62339(18) 0.91386(7)
H3_9 H 0.9085 0.6412 0.9019
C7_9 C 0.90618(22) 0.57395(15) 0.96832(7)
C8_9 C 0.61221(23) 0.53058(16) 0.96606(7)
C9_9 C 0.81023(26) 0.67651(19) 0.86029(7)
C10_9 C 0.8147(3) 0.7848(2) 0.82192(8)
H4_9 H 0.8026 0.8299 0.8184
C11_9 C 0.85308(25) 0.76471(19) 0.79430(7)
C12_9 C 0.86892(24) 0.69731(17) 0.79939(7)
H5_9 H 0.8941 0.6812 0.7803
C13_9 C 0.84752(25) 0.65429(18) 0.83249(7)
H6_9 H 0.8586 0.6086 0.8362
C14_9 C 0.88271(24) 0.81909(17) 0.76003(7)
O2_10 O 0.67175(11) 0.11503(13) 0.66509(4)
O3_7 O 0.44465(12) 0.17754(12) 0.67168(5)
C1_10 C 0.58686(16) 0.08045(16) 0.71783(7)
C2_10 C 0.53746(16) 0.11020(17) 0.70117(7)
H1_10 H 0.5529 0.1364 0.6776
C3_10 C 0.46555(16) 0.10146(17) 0.71893(7)
C4_10 C 0.44200(17) 0.06215(18) 0.75289(7)
H2_10 H 0.3919 0.0553 0.7645
C5_10 C 0.49059(17) 0.03264(19) 0.77015(7)
C6_10 C 0.56531(17) 0.04327(18) 0.75280(7)
H3_10 H 0.6006 0.0254 0.7647
C7_10 C 0.66556(16) 0.09271(15) 0.69834(7)
C8_10 C 0.41496(16) 0.13608(16) 0.70060(7)
C13_10 C 0.52656(17) 0.01237(18) 0.83417(7)
H6_10 H 0.5833 0.0580 0.8304
O9_4 O 0.82246(12) 0.26710(17) 0.67168(5)
O5_10 O 0.3286(2) 0.9014(2) 0.78632(9)
O6_10 O 0.31988(14) 0.79685(15) 0.91185(7)
O7_7 O 0.45697(12) 0.85851(10) 0.92810(5)
N1_10 N 0.38583(16) 0.92599(19) 0.81197(7)
C9_10 C 0.46705(18) 0.99015(19) 0.80637(7)
C10_10 C 0.3632(2) 0.8818(2) 0.84474(8)
H4_10 H 0.3060 0.8367 0.8482
C11_10 C 0.42170(16) 0.90195(19) 0.87236(7)
C12_10 C 0.50494(17) 0.96935(17) 0.86727(7)
H5_10 H 0.5462 0.9854 0.8863
C14_10 C 0.39695(17) 0.84757(17) 0.90663(7)
O2_11 O 0.44329(17) 0.32825(11) 0.66509(4)
O3_8 O 0.73290(17) 0.55535(12) 0.67168(5)
O5_11 O 0.5729(3) 0.6714(2) 0.78632(9)
O6_11 O 0.47698(21) 0.68012(14) 0.91185(7)
O7_8 O 0.40155(16) 0.54303(12) 0.92810(5)
N1_11 N 0.54017(25) 0.61417(16) 0.81197(7)
C1_11 C 0.49360(23) 0.41314(16) 0.71783(7)
C2_11 C 0.57275(23) 0.46254(16) 0.70117(7)
H1_11 H 0.5836 0.4471 0.6776
C3_11 C 0.63592(23) 0.53445(16) 0.71893(7)
C4_11 C 0.62016(25) 0.55800(17) 0.75289(7)
H2_11 H 0.6635 0.6081 0.7645
C5_11 C 0.54206(25) 0.50941(17) 0.77015(7)
C6_11 C 0.47797(25) 0.43469(17) 0.75280(7)
H3_11 H 0.4249 0.3994 0.7647
C7_11 C 0.42716(22) 0.33444(16) 0.69834(7)
C8_11 C 0.72113(23) 0.58504(16) 0.70060(7)
C9_11 C 0.52311(26) 0.53295(18) 0.80637(7)
C10_11 C 0.5187(3) 0.6368(2) 0.84474(8)
H4_11 H 0.5308 0.6940 0.8482
C11_11 C 0.48026(25) 0.57830(16) 0.87236(7)
C12_11 C 0.46442(24) 0.49506(17) 0.86727(7)
H5_11 H 0.4393 0.4538 0.8863
C13_11 C 0.48582(25) 0.47344(17) 0.83417(7)
H6_11 H 0.4748 0.4167 0.8304
C14_11 C 0.45063(24) 0.60305(17) 0.90663(7)
O5_12 O 0.0986(2) 0.4271(3) 0.78632(9)
O6_12 O 0.20315(15) 0.52302(21) 0.91185(7)
O7_9 O 0.14149(10) 0.59845(16) 0.92810(5)
N1_12 N 0.07401(19) 0.45983(25) 0.81197(7)
C9_12 C 0.00985(19) 0.47689(26) 0.80637(7)
C10_12 C 0.1182(2) 0.4813(3) 0.84474(8)
H4_12 H 0.1633 0.4692 0.8482
C11_12 C 0.09805(19) 0.51974(25) 0.87236(7)
C12_12 C 0.03065(17) 0.53558(24) 0.86727(7)
H5_12 H 0.0146 0.5607 0.8863
C14_12 C 0.15243(17) 0.54937(24) 0.90663(7)
O2_12 O 0.88497(13) 0.55671(17) 0.66509(4)
C1_12 C 0.91955(16) 0.50640(23) 0.71783(7)
C2_12 C 0.88980(17) 0.42725(23) 0.70117(7)
H1_12 H 0.8636 0.4164 0.6776
C3_12 C 0.89854(17) 0.36408(23) 0.71893(7)
C4_12 C 0.93785(18) 0.37984(25) 0.75289(7)
H2_12 H 0.9447 0.3365 0.7645
C5_12 C 0.96736(19) 0.45794(25) 0.77015(7)
C6_12 C 0.95673(18) 0.52203(25) 0.75280(7)
H3_12 H 0.9746 0.5751 0.7647
C7_12 C 0.90729(15) 0.57284(22) 0.69834(7)
C8_12 C 0.86392(16) 0.27887(23) 0.70060(7)
C13_12 C 0.98763(18) 0.51418(25) 0.83417(7)
H6_12 H 0.9420 0.5252 0.8304
O2_13 O 0.11503(13) 0.67175(11) 0.33491(4)
O3_9 O 0.17754(12) 0.44465(12) 0.32832(5)
C1_13 C 0.08045(16) 0.58686(16) 0.28217(7)
C2_13 C 0.11020(17) 0.53746(16) 0.29883(7)
H1_13 H 0.1364 0.5529 0.3224
C3_13 C 0.10146(17) 0.46555(16) 0.28107(7)
C4_13 C 0.06215(18) 0.44200(17) 0.24711(7)
H2_13 H 0.0553 0.3919 0.2355
C5_13 C 0.03264(19) 0.49059(17) 0.22985(7)
C6_13 C 0.04327(18) 0.56531(17) 0.24720(7)
H3_13 H 0.0254 0.6006 0.2353
C7_13 C 0.09271(15) 0.66556(16) 0.30166(7)
C8_13 C 0.13608(16) 0.41496(16) 0.29940(7)
C13_13 C 0.01237(18) 0.52656(17) 0.16583(7)
H6_13 H 0.0580 0.5833 0.1696
O9_5 O 0.26710(17) 0.82246(12) 0.32832(5)
O5_13 O 0.9014(2) 0.3286(2) 0.21368(9)
O6_13 O 0.79685(15) 0.31988(14) 0.08815(7)
N1_13 N 0.92599(19) 0.38583(16) 0.18803(7)
C9_13 C 0.99015(19) 0.46705(18) 0.19363(7)
C10_13 C 0.8818(2) 0.3632(2) 0.15526(8)
H4_13 H 0.8367 0.3060 0.1518
C11_13 C 0.90195(19) 0.42170(16) 0.12764(7)
C12_13 C 0.96935(17) 0.50494(17) 0.13273(7)
H5_13 H 0.9854 0.5462 0.1137
C14_13 C 0.84757(17) 0.39695(17) 0.09337(7)
O2_14 O 0.32825(11) 0.44329(17) 0.33491(4)
O3_10 O 0.55535(12) 0.73290(17) 0.32832(5)
O5_14 O 0.6714(2) 0.5729(3) 0.21368(9)
O6_14 O 0.68012(14) 0.47698(21) 0.08815(7)
N1_14 N 0.61417(16) 0.54017(25) 0.18803(7)
C1_14 C 0.41314(16) 0.49360(23) 0.28217(7)
C2_14 C 0.46254(16) 0.57275(23) 0.29883(7)
H1_14 H 0.4471 0.5836 0.3224
C3_14 C 0.53445(16) 0.63592(23) 0.28107(7)
C4_14 C 0.55800(17) 0.62016(25) 0.24711(7)
H2_14 H 0.6081 0.6635 0.2355
C5_14 C 0.50941(17) 0.54206(25) 0.22985(7)
C6_14 C 0.43469(17) 0.47797(25) 0.24720(7)
H3_14 H 0.3994 0.4249 0.2353
C7_14 C 0.33444(16) 0.42716(22) 0.30166(7)
C8_14 C 0.58504(16) 0.72113(23) 0.29940(7)
C9_14 C 0.53295(18) 0.52311(26) 0.19363(7)
C10_14 C 0.6368(2) 0.5187(3) 0.15526(8)
H4_14 H 0.6940 0.5308 0.1518
C11_14 C 0.57830(16) 0.48026(25) 0.12764(7)
C12_14 C 0.49506(17) 0.46442(24) 0.13273(7)
H5_14 H 0.4538 0.4393 0.1137
C13_14 C 0.47344(17) 0.48582(25) 0.16583(7)
H6_14 H 0.4167 0.4748 0.1696
C14_14 C 0.60305(17) 0.45063(24) 0.09337(7)
O5_15 O 0.4271(3) 0.0986(2) 0.21368(9)
O6_15 O 0.52302(21) 0.20315(15) 0.08815(7)
N1_15 N 0.45983(25) 0.07401(19) 0.18803(7)
C9_15 C 0.47689(26) 0.00985(19) 0.19363(7)
C10_15 C 0.4813(3) 0.1182(2) 0.15526(8)
H4_15 H 0.4692 0.1633 0.1518
C11_15 C 0.51974(25) 0.09805(19) 0.12764(7)
C12_15 C 0.53558(24) 0.03065(17) 0.13273(7)
H5_15 H 0.5607 0.0146 0.1137
C14_15 C 0.54937(24) 0.15243(17) 0.09337(7)
O2_15 O 0.55671(17) 0.88497(13) 0.33491(4)
C1_15 C 0.50640(23) 0.91955(16) 0.28217(7)
C2_15 C 0.42725(23) 0.88980(17) 0.29883(7)
H1_15 H 0.4164 0.8636 0.3224
C3_15 C 0.36408(23) 0.89854(17) 0.28107(7)
C4_15 C 0.37984(25) 0.93785(18) 0.24711(7)
H2_15 H 0.3365 0.9447 0.2355
C5_15 C 0.45794(25) 0.96736(19) 0.22985(7)
C6_15 C 0.52203(25) 0.95673(18) 0.24720(7)
H3_15 H 0.5751 0.9746 0.2353
C7_15 C 0.57284(22) 0.90729(15) 0.30166(7)
C8_15 C 0.27887(23) 0.86392(16) 0.29940(7)
C13_15 C 0.51418(25) 0.98763(18) 0.16583(7)
H6_15 H 0.5252 0.9420 0.1696
O3_11 O 0.11131(12) 0.51088(12) 0.00502(5)
N1_16 N 0.05249(16) 0.25933(19) 0.14531(7)
C1_16 C 0.25352(16) 0.41379(16) 0.05117(7)
C2_16 C 0.20412(16) 0.44354(17) 0.03451(7)
H1_16 H 0.2195 0.4698 0.0110
C3_16 C 0.13221(16) 0.43480(17) 0.05227(7)
C4_16 C 0.10866(17) 0.39549(18) 0.08623(7)
H2_16 H 0.0585 0.3887 0.0979
C5_16 C 0.15725(17) 0.36598(19) 0.10349(7)
C6_16 C 0.23197(17) 0.37661(18) 0.08614(7)
H3_16 H 0.2672 0.3588 0.0981
C7_16 C 0.33222(16) 0.42605(15) 0.03168(7)
C8_16 C 0.08162(16) 0.46942(16) 0.03394(7)
C9_16 C 0.13371(18) 0.32349(19) 0.13971(7)
C10_16 C 0.0298(2) 0.2152(2) 0.17808(8)
C11_16 C 0.08836(16) 0.23529(19) 0.20570(7)
C12_16 C 0.17160(17) 0.30269(17) 0.20061(7)
H5_16 H 0.2128 0.3188 0.2197
C13_16 C 0.19322(17) 0.34571(18) 0.16751(7)
H6_16 H 0.2499 0.3914 0.1638
C14_16 C 0.06361(17) 0.18091(17) 0.23997(7)
O9_6 O 0.48912(12) 0.60044(17) 0.00502(5)
O2_16 O 0.33841(11) 0.44837(13) 0.99843(4)
O5_16 O 0.9952(2) 0.2348(2) 0.11966(9)
O6_16 O 0.98654(14) 0.13019(15) 0.24519(7)
H4_16 H 0.9726 0.1701 0.1816
O5_17 O 0.2395(3) 0.0048(2) 0.11966(9)
O6_17 O 0.14364(21) 0.01346(14) 0.24519(7)
H4_17 H 0.1974 0.0274 0.1816
O3_12 O 0.39956(17) 0.88869(12) 0.00502(5)
N1_17 N 0.20683(25) 0.94751(16) 0.14531(7)
C1_17 C 0.16026(23) 0.74648(16) 0.05117(7)
C2_17 C 0.23941(23) 0.79588(16) 0.03451(7)
H1_17 H 0.2502 0.7805 0.0110
C3_17 C 0.30258(23) 0.86779(16) 0.05227(7)
C4_17 C 0.28682(25) 0.89134(17) 0.08623(7)
H2_17 H 0.3301 0.9415 0.0979
C5_17 C 0.20872(25) 0.84275(17) 0.10349(7)
C6_17 C 0.14463(25) 0.76803(17) 0.08614(7)
H3_17 H 0.0915 0.7328 0.0981
C7_17 C 0.09382(22) 0.66778(16) 0.03168(7)
C8_17 C 0.38779(23) 0.91838(16) 0.03394(7)
C9_17 C 0.18977(26) 0.86629(18) 0.13971(7)
C10_17 C 0.1853(3) 0.9702(2) 0.17808(8)
C11_17 C 0.14692(25) 0.91164(16) 0.20570(7)
C12_17 C 0.13108(24) 0.82840(17) 0.20061(7)
H5_17 H 0.1059 0.7872 0.2197
C13_17 C 0.15248(25) 0.80678(17) 0.16751(7)
H6_17 H 0.1414 0.7501 0.1638
C14_17 C 0.11729(24) 0.93639(17) 0.23997(7)
O2_17 O 0.10995(17) 0.66159(11) 0.99843(4)
O5_18 O 0.7652(2) 0.7605(3) 0.11966(9)
O6_18 O 0.86981(15) 0.85636(21) 0.24519(7)
N1_18 N 0.74067(19) 0.79317(25) 0.14531(7)
C1_18 C 0.58621(16) 0.83974(23) 0.05117(7)
C2_18 C 0.55646(17) 0.76059(23) 0.03451(7)
H1_18 H 0.5302 0.7498 0.0110
C3_18 C 0.56520(17) 0.69742(23) 0.05227(7)
C4_18 C 0.60451(18) 0.71318(25) 0.08623(7)
H2_18 H 0.6113 0.6699 0.0979
C5_18 C 0.63402(19) 0.79128(25) 0.10349(7)
C6_18 C 0.62339(18) 0.85537(25) 0.08614(7)
H3_18 H 0.6412 0.9085 0.0981
C7_18 C 0.57395(15) 0.90618(22) 0.03168(7)
C8_18 C 0.53058(16) 0.61221(23) 0.03394(7)
C9_18 C 0.67651(19) 0.81023(26) 0.13971(7)
C10_18 C 0.7848(2) 0.8147(3) 0.17808(8)
H4_18 H 0.8299 0.8026 0.1816
C11_18 C 0.76471(19) 0.85308(25) 0.20570(7)
C12_18 C 0.69731(17) 0.86892(24) 0.20061(7)
H5_18 H 0.6812 0.8941 0.2197
C13_18 C 0.65429(18) 0.84752(25) 0.16751(7)
H6_18 H 0.6086 0.8586 0.1638
C14_18 C 0.81909(17) 0.88271(24) 0.23997(7)
O2_18 O 0.55163(13) 0.89005(17) 0.99843(4)
loop_
_geom_bond_atom_site_label_1
_geom_bond_atom_site_label_2
_geom_bond_site_symmetry_1
_geom_bond_site_symmetry_2
Cu1 O2 1_555 1_555
Cu3 Cu1 1_555 1_555
O8 Cu1 1_555 1_555
O9 Cu1 1_555 1_555
O10 Cu1 1_555 1_555
O11 Cu1 1_555 1_555
O1 Cu3 1_555 1_555
O3 C8 1_555 1_555
O4 C8 1_555 1_555
O5 N1 1_555 1_555
O6 C14 1_555 1_555
O7 C14 1_555 1_555
N1 C9 1_555 1_555
C1 C2 1_555 1_555
C2 H1 1_555 1_555
C3 C2 1_555 1_555
C4 C3 1_555 1_555
H2 C4 1_555 1_555
C5 C4 1_555 1_555
C6 C1 1_555 1_555
H3 C6 1_555 1_555
C7 C1 1_555 1_555
C8 C3 1_555 1_555
C9 C5 1_555 1_555
C10 N1 1_555 1_555
H4 C10 1_555 1_555
C11 C10 1_555 1_555
C12 C11 1_555 1_555
H5 C12 1_555 1_555
C13 C9 1_555 1_555
H6 C13 1_555 1_555
C14 C11 1_555 1_555
Cu2 O3 1_555 1_555
Cu4 O4 1_555 1_555
Cu5 O7 1_555 1_555
C5 C6 1_555 1_555
C12 C13 1_555 1_555
Cu2 Cu4 1_555 1_555
O3_2 C8_2 1_555 1_555
O4_2 C8_2 1_555 1_555
Cu2_2 O3_2 1_555 1_555
Cu4_2 O4_2 1_555 1_555
Cu2_2 Cu4_2 1_555 1_555
O5_2 N1_2 1_555 1_555
O6_2 C14_2 1_555 1_555
O7_2 C14_2 1_555 1_555
N1_2 C9_2 1_555 1_555
C1_2 C2_2 1_555 1_555
C2_2 H1_2 1_555 1_555
C3_2 C2_2 1_555 1_555
C4_2 C3_2 1_555 1_555
H2_2 C4_2 1_555 1_555
C5_2 C4_2 1_555 1_555
C6_2 C1_2 1_555 1_555
H3_2 C6_2 1_555 1_555
C7_2 C1_2 1_555 1_555
C9_2 C5_2 1_555 1_555
C10_2 N1_2 1_555 1_555
H4_2 C10_2 1_555 1_555
C11_2 C10_2 1_555 1_555
C12_2 C11_2 1_555 1_555
H5_2 C12_2 1_555 1_555
C13_2 C9_2 1_555 1_555
H6_2 C13_2 1_555 1_555
C14_2 C11_2 1_555 1_555
Cu5_2 O7_2 1_555 1_555
C5_2 C6_2 1_555 1_555
C12_2 C13_2 1_555 1_555
Cu2 O2_2 1_555 1_555
O8_2 Cu2 1_555 1_555
O10_2 Cu2 1_555 1_555
O11_2 Cu2 1_555 1_555
O1_2 Cu4 1_555 1_555
Cu2_2 O2_3 1_555 1_555
O1_3 C7_3 1_555 1_555
O2_3 C7_3 1_555 1_555
O5_3 N1_3 1_555 1_555
O6_3 C14_3 1_555 1_555
O7_3 C14_3 1_555 1_555
N1_3 C9_3 1_555 1_555
C1_3 C2_3 1_555 1_555
C2_3 H1_3 1_555 1_555
C3_3 C2_3 1_555 1_555
C4_3 C3_3 1_555 1_555
H2_3 C4_3 1_555 1_555
C5_3 C4_3 1_555 1_555
C6_3 C1_3 1_555 1_555
H3_3 C6_3 1_555 1_555
C7_3 C1_3 1_555 1_555
C9_3 C5_3 1_555 1_555
C10_3 N1_3 1_555 1_555
H4_3 C10_3 1_555 1_555
C11_3 C10_3 1_555 1_555
C12_3 C11_3 1_555 1_555
H5_3 C12_3 1_555 1_555
C13_3 C9_3 1_555 1_555
H6_3 C13_3 1_555 1_555
C14_3 C11_3 1_555 1_555
Cu5_3 O7_3 1_555 1_555
O8_3 Cu2_2 1_555 1_555
O10_3 Cu2_2 1_555 1_555
O11_3 Cu2_2 1_555 1_555
O1_3 Cu4_2 1_555 1_555
C5_3 C6_3 1_555 1_555
C12_3 C13_3 1_555 1_555
O9 C8_3 1_555 1_555
O4_3 C8_3 1_555 1_555
Cu3 O4_3 1_555 1_555
Cu1_2 O2_4 1_555 1_555
Cu5_2 Cu1_2 1_555 1_555
O8_4 Cu1_2 1_555 1_555
O9_2 Cu1_2 1_555 1_555
O10_4 Cu1_2 1_555 1_555
O11_4 Cu1_2 1_555 1_555
O1_4 Cu5_2 1_555 1_555
O3_3 C8_4 1_555 1_555
O4_4 C8_4 1_555 1_555
O5_4 N1_4 1_555 1_555
O6_4 C14_4 1_555 1_555
O7_4 C14_4 1_555 1_555
N1_4 C9_4 1_555 1_555
C1_4 C2_4 1_555 1_555
C2_4 H1_4 1_555 1_555
C3_4 C2_4 1_555 1_555
C4_4 C3_4 1_555 1_555
H2_4 C4_4 1_555 1_555
C5_4 C4_4 1_555 1_555
C6_4 C1_4 1_555 1_555
H3_4 C6_4 1_555 1_555
C7_4 C1_4 1_555 1_555
C8_4 C3_4 1_555 1_555
C9_4 C5_4 1_555 1_555
C10_4 N1_4 1_555 1_555
H4_4 C10_4 1_555 1_555
C11_4 C10_4 1_555 1_555
C12_4 C11_4 1_555 1_555
H5_4 C12_4 1_555 1_555
C13_4 C9_4 1_555 1_555
H6_4 C13_4 1_555 1_555
C14_4 C11_4 1_555 1_555
Cu2_3 O3_3 1_555 1_555
Cu5 O4_4 1_555 1_555
Cu4 O7_4 1_555 1_555
C5_4 C6_4 1_555 1_555
C12_4 C13_4 1_555 1_555
Cu2_3 Cu5 1_555 1_555
O3_4 C8_5 1_555 1_555
O4_5 C8_5 1_555 1_555
Cu2_4 O3_4 1_555 1_555
Cu5_3 O4_5 1_555 1_555
Cu2_4 Cu5_3 1_555 1_555
O5_5 N1_5 1_555 1_555
O6_5 C14_5 1_555 1_555
O7_5 C14_5 1_555 1_555
N1_5 C9_5 1_555 1_555
C1_5 C2_5 1_555 1_555
C2_5 H1_5 1_555 1_555
C3_5 C2_5 1_555 1_555
C4_5 C3_5 1_555 1_555
H2_5 C4_5 1_555 1_555
C5_5 C4_5 1_555 1_555
C6_5 C1_5 1_555 1_555
H3_5 C6_5 1_555 1_555
C7_5 C1_5 1_555 1_555
C9_5 C5_5 1_555 1_555
C10_5 N1_5 1_555 1_555
H4_5 C10_5 1_555 1_555
C11_5 C10_5 1_555 1_555
C12_5 C11_5 1_555 1_555
H5_5 C12_5 1_555 1_555
C13_5 C9_5 1_555 1_555
H6_5 C13_5 1_555 1_555
C14_5 C11_5 1_555 1_555
Cu3 O7_5 1_555 1_555
C5_5 C6_5 1_555 1_555
C12_5 C13_5 1_555 1_555
Cu2_3 O2_5 1_555 1_555
O8_5 Cu2_3 1_555 1_555
O10_5 Cu2_3 1_555 1_555
O11_5 Cu2_3 1_555 1_555
O1_5 Cu5 1_555 1_555
Cu2_4 O2_6 1_555 1_555
O1_6 C7_6 1_555 1_555
O2_6 C7_6 1_555 1_555
O5_6 N1_6 1_555 1_555
O6_6 C14_6 1_555 1_555
O7_6 C14_6 1_555 1_555
N1_6 C9_6 1_555 1_555
C1_6 C2_6 1_555 1_555
C2_6 H1_6 1_555 1_555
C3_6 C2_6 1_555 1_555
C4_6 C3_6 1_555 1_555
H2_6 C4_6 1_555 1_555
C5_6 C4_6 1_555 1_555
C6_6 C1_6 1_555 1_555
H3_6 C6_6 1_555 1_555
C7_6 C1_6 1_555 1_555
C9_6 C5_6 1_555 1_555
C10_6 N1_6 1_555 1_555
H4_6 C10_6 1_555 1_555
C11_6 C10_6 1_555 1_555
C12_6 C11_6 1_555 1_555
H5_6 C12_6 1_555 1_555
C13_6 C9_6 1_555 1_555
H6_6 C13_6 1_555 1_555
C14_6 C11_6 1_555 1_555
Cu4_2 O7_6 1_555 1_555
O8_6 Cu2_4 1_555 1_555
O10_6 Cu2_4 1_555 1_555
O11_6 Cu2_4 1_555 1_555
O1_6 Cu5_3 1_555 1_555
C5_6 C6_6 1_555 1_555
C12_6 C13_6 1_555 1_555
O9_2 C8_6 1_555 1_555
O4_6 C8_6 1_555 1_555
Cu5_2 O4_6 1_555 1_555
Cu1_3 O2_7 1_555 1_555
O8_7 Cu1_3 1_555 1_555
O10_7 Cu1_3 1_555 1_555
O11_7 Cu1_3 1_555 1_555
O1_7 C7_7 1_555 1_555
O3_5 C8_7 1_555 1_555
O4_7 C8_7 1_555 1_555
O11_3 C14_7 1_555 1_555
N1_7 C9_7 1_555 1_555
C1_7 C2_7 1_555 1_555
C2_7 H1_7 1_555 1_555
C3_7 C2_7 1_555 1_555
C4_7 C3_7 1_555 1_555
H2_7 C4_7 1_555 1_555
C5_7 C4_7 1_555 1_555
C6_7 C1_7 1_555 1_555
H3_7 C6_7 1_555 1_555
C7_7 C1_7 1_555 1_555
C8_7 C3_7 1_555 1_555
C9_7 C5_7 1_555 1_555
C10_7 N1_7 1_555 1_555
C11_7 C10_7 1_555 1_555
C12_7 C11_7 1_555 1_555
H5_7 C12_7 1_555 1_555
C13_7 C9_7 1_555 1_555
H6_7 C13_7 1_555 1_555
C14_7 C11_7 1_555 1_555
O1_7 Cu3_2 1_555 1_555
C5_7 C6_7 1_555 1_555
C12_7 C13_7 1_555 1_555
Cu2_5 O2_8 1_555 1_555
O11_8 Cu2_5 1_555 1_555
O1_8 C7_8 1_555 1_555
O3_6 C8_8 1_555 1_555
O4_8 C8_8 1_555 1_555
O11 C14_8 1_555 1_555
N1_8 C9_8 1_555 1_555
C1_8 C2_8 1_555 1_555
C2_8 H1_8 1_555 1_555
C3_8 C2_8 1_555 1_555
C4_8 C3_8 1_555 1_555
H2_8 C4_8 1_555 1_555
C5_8 C4_8 1_555 1_555
C6_8 C1_8 1_555 1_555
H3_8 C6_8 1_555 1_555
C7_8 C1_8 1_555 1_555
C8_8 C3_8 1_555 1_555
C9_8 C5_8 1_555 1_555
C10_8 N1_8 1_555 1_555
C11_8 C10_8 1_555 1_555
C12_8 C11_8 1_555 1_555
H5_8 C12_8 1_555 1_555
C13_8 C9_8 1_555 1_555
H6_8 C13_8 1_555 1_555
C14_8 C11_8 1_555 1_555
C5_8 C6_8 1_555 1_555
C12_8 C13_8 1_555 1_555
Cu2_6 O2_9 1_555 1_555
O11_9 Cu2_6 1_555 1_555
O1_9 C7_9 1_555 1_555
O9_3 C8_9 1_555 1_555
O4_9 C8_9 1_555 1_555
O5_9 N1_9 1_555 1_555
O6_9 C14_9 1_555 1_555
O11_2 C14_9 1_555 1_555
N1_9 C9_9 1_555 1_555
C1_9 C2_9 1_555 1_555
C2_9 H1_9 1_555 1_555
C3_9 C2_9 1_555 1_555
C4_9 C3_9 1_555 1_555
H2_9 C4_9 1_555 1_555
C5_9 C4_9 1_555 1_555
C6_9 C1_9 1_555 1_555
H3_9 C6_9 1_555 1_555
C7_9 C1_9 1_555 1_555
C8_9 C3_9 1_555 1_555
C9_9 C5_9 1_555 1_555
C10_9 N1_9 1_555 1_555
H4_9 C10_9 1_555 1_555
C11_9 C10_9 1_555 1_555
C12_9 C11_9 1_555 1_555
H5_9 C12_9 1_555 1_555
C13_9 C9_9 1_555 1_555
H6_9 C13_9 1_555 1_555
C14_9 C11_9 1_555 1_555
Cu3_2 O4_9 1_555 1_555
C5_9 C6_9 1_555 1_555
C12_9 C13_9 1_555 1_555
Cu3 O2_10 1_555 1_555
O8 C7_10 1_555 1_555
O2_10 C7_10 1_555 1_555
O3_7 C8_10 1_555 1_555
O10_3 C8_10 1_555 1_555
C1_10 C2_10 1_555 1_555
C2_10 H1_10 1_555 1_555
C3_10 C2_10 1_555 1_555
C4_10 C3_10 1_555 1_555
H2_10 C4_10 1_555 1_555
C5_10 C4_10 1_555 1_555
C6_10 C1_10 1_555 1_555
H3_10 C6_10 1_555 1_555
C7_10 C1_10 1_555 1_555
C8_10 C3_10 1_555 1_555
H6_10 C13_10 1_555 1_555
Cu4_2 O3_7 1_555 1_555
O9_4 Cu3 1_555 1_555
C5_10 C6_10 1_555 1_555
O5_10 N1_10 1_555 1_555
O6_10 C14_10 1_555 1_555
O7_7 C14_10 1_555 1_555
N1_10 C9_10 1_555 1_555
C10_10 N1_10 1_555 1_555
H4_10 C10_10 1_555 1_555
C11_10 C10_10 1_555 1_555
C12_10 C11_10 1_555 1_555
H5_10 C12_10 1_555 1_555
C14_10 C11_10 1_555 1_555
Cu4_3 O7_7 1_555 1_555
Cu4_2 O2_11 1_555 1_555
O8_3 C7_11 1_555 1_555
O2_11 C7_11 1_555 1_555
O3_8 C8_11 1_555 1_555
O10_2 C8_11 1_555 1_555
O5_11 N1_11 1_555 1_555
O6_11 C14_11 1_555 1_555
O7_8 C14_11 1_555 1_555
N1_11 C9_11 1_555 1_555
C1_11 C2_11 1_555 1_555
C2_11 H1_11 1_555 1_555
C3_11 C2_11 1_555 1_555
C4_11 C3_11 1_555 1_555
H2_11 C4_11 1_555 1_555
C5_11 C4_11 1_555 1_555
C6_11 C1_11 1_555 1_555
H3_11 C6_11 1_555 1_555
C7_11 C1_11 1_555 1_555
C8_11 C3_11 1_555 1_555
C9_11 C5_11 1_555 1_555
C10_11 N1_11 1_555 1_555
H4_11 C10_11 1_555 1_555
C11_11 C10_11 1_555 1_555
C12_11 C11_11 1_555 1_555
H5_11 C12_11 1_555 1_555
C13_11 C9_11 1_555 1_555
H6_11 C13_11 1_555 1_555
C14_11 C11_11 1_555 1_555
Cu4 O3_8 1_555 1_555
Cu3_2 O7_8 1_555 1_555
C5_11 C6_11 1_555 1_555
C12_11 C13_11 1_555 1_555
O5_12 N1_12 1_555 1_555
O6_12 C14_12 1_555 1_555
O7_9 C14_12 1_555 1_555
N1_12 C9_12 1_555 1_555
C10_12 N1_12 1_555 1_555
H4_12 C10_12 1_555 1_555
C11_12 C10_12 1_555 1_555
C12_12 C11_12 1_555 1_555
H5_12 C12_12 1_555 1_555
C14_12 C11_12 1_555 1_555
Cu4_4 O7_9 1_555 1_555
Cu4 O2_12 1_555 1_555
O8_2 C7_12 1_555 1_555
O2_12 C7_12 1_555 1_555
O9_4 C8_12 1_555 1_555
O10 C8_12 1_555 1_555
C1_12 C2_12 1_555 1_555
C2_12 H1_12 1_555 1_555
C3_12 C2_12 1_555 1_555
C4_12 C3_12 1_555 1_555
H2_12 C4_12 1_555 1_555
C5_12 C4_12 1_555 1_555
C6_12 C1_12 1_555 1_555
H3_12 C6_12 1_555 1_555
C7_12 C1_12 1_555 1_555
C8_12 C3_12 1_555 1_555
H6_12 C13_12 1_555 1_555
C5_12 C6_12 1_555 1_555
Cu5_2 O2_13 1_555 1_555
O8_4 C7_13 1_555 1_555
O2_13 C7_13 1_555 1_555
O3_9 C8_13 1_555 1_555
O10_6 C8_13 1_555 1_555
C1_13 C2_13 1_555 1_555
C2_13 H1_13 1_555 1_555
C3_13 C2_13 1_555 1_555
C4_13 C3_13 1_555 1_555
H2_13 C4_13 1_555 1_555
C5_13 C4_13 1_555 1_555
C6_13 C1_13 1_555 1_555
H3_13 C6_13 1_555 1_555
C7_13 C1_13 1_555 1_555
C8_13 C3_13 1_555 1_555
H6_13 C13_13 1_555 1_555
Cu5_3 O3_9 1_555 1_555
O9_5 Cu5_2 1_555 1_555
C5_13 C6_13 1_555 1_555
O5_13 N1_13 1_555 1_555
O6_13 C14_13 1_555 1_555
O11_9 C14_13 1_555 1_555
N1_13 C9_13 1_555 1_555
C10_13 N1_13 1_555 1_555
H4_13 C10_13 1_555 1_555
C11_13 C10_13 1_555 1_555
C12_13 C11_13 1_555 1_555
H5_13 C12_13 1_555 1_555
C14_13 C11_13 1_555 1_555
Cu5_3 O2_14 1_555 1_555
O8_6 C7_14 1_555 1_555
O2_14 C7_14 1_555 1_555
O3_10 C8_14 1_555 1_555
O10_5 C8_14 1_555 1_555
O5_14 N1_14 1_555 1_555
O6_14 C14_14 1_555 1_555
O11_7 C14_14 1_555 1_555
N1_14 C9_14 1_555 1_555
C1_14 C2_14 1_555 1_555
C2_14 H1_14 1_555 1_555
C3_14 C2_14 1_555 1_555
C4_14 C3_14 1_555 1_555
H2_14 C4_14 1_555 1_555
C5_14 C4_14 1_555 1_555
C6_14 C1_14 1_555 1_555
H3_14 C6_14 1_555 1_555
C7_14 C1_14 1_555 1_555
C8_14 C3_14 1_555 1_555
C9_14 C5_14 1_555 1_555
C10_14 N1_14 1_555 1_555
H4_14 C10_14 1_555 1_555
C11_14 C10_14 1_555 1_555
C12_14 C11_14 1_555 1_555
H5_14 C12_14 1_555 1_555
C13_14 C9_14 1_555 1_555
H6_14 C13_14 1_555 1_555
C14_14 C11_14 1_555 1_555
Cu5 O3_10 1_555 1_555
C5_14 C6_14 1_555 1_555
C12_14 C13_14 1_555 1_555
O5_15 N1_15 1_555 1_555
O6_15 C14_15 1_555 1_555
O11_8 C14_15 1_555 1_555
N1_15 C9_15 1_555 1_555
C10_15 N1_15 1_555 1_555
H4_15 C10_15 1_555 1_555
C11_15 C10_15 1_555 1_555
C12_15 C11_15 1_555 1_555
H5_15 C12_15 1_555 1_555
C14_15 C11_15 1_555 1_555
Cu5 O2_15 1_555 1_555
O8_5 C7_15 1_555 1_555
O2_15 C7_15 1_555 1_555
O9_5 C8_15 1_555 1_555
O10_4 C8_15 1_555 1_555
C1_15 C2_15 1_555 1_555
C2_15 H1_15 1_555 1_555
C3_15 C2_15 1_555 1_555
C4_15 C3_15 1_555 1_555
H2_15 C4_15 1_555 1_555
C5_15 C4_15 1_555 1_555
C6_15 C1_15 1_555 1_555
H3_15 C6_15 1_555 1_555
C7_15 C1_15 1_555 1_555
C8_15 C3_15 1_555 1_555
H6_15 C13_15 1_555 1_555
C5_15 C6_15 1_555 1_555
O8_7 C7_16 1_555 1_555
O3_11 C8_16 1_555 1_555
O10_9 C8_16 1_555 1_555
O11_6 C14_16 1_555 1_555
N1_16 C9_16 1_555 1_555
C1_16 C2_16 1_555 1_555
C2_16 H1_16 1_555 1_555
C3_16 C2_16 1_555 1_555
C4_16 C3_16 1_555 1_555
H2_16 C4_16 1_555 1_555
C5_16 C4_16 1_555 1_555
C6_16 C1_16 1_555 1_555
H3_16 C6_16 1_555 1_555
C7_16 C1_16 1_555 1_555
C8_16 C3_16 1_555 1_555
C9_16 C5_16 1_555 1_555
C10_16 N1_16 1_555 1_555
C11_16 C10_16 1_555 1_555
C12_16 C11_16 1_555 1_555
H5_16 C12_16 1_555 1_555
C13_16 C9_16 1_555 1_555
H6_16 C13_16 1_555 1_555
C14_16 C11_16 1_555 1_555
C5_16 C6_16 1_555 1_555
C12_16 C13_16 1_555 1_555
Cu3_2 O2_16 1_555 1_555
O8_9 C7_17 1_555 1_555
O3_12 C8_17 1_555 1_555
O10_8 C8_17 1_555 1_555
O11_4 C14_17 1_555 1_555
N1_17 C9_17 1_555 1_555
C1_17 C2_17 1_555 1_555
C2_17 H1_17 1_555 1_555
C3_17 C2_17 1_555 1_555
C4_17 C3_17 1_555 1_555
H2_17 C4_17 1_555 1_555
C5_17 C4_17 1_555 1_555
C6_17 C1_17 1_555 1_555
H3_17 C6_17 1_555 1_555
C7_17 C1_17 1_555 1_555
C8_17 C3_17 1_555 1_555
C9_17 C5_17 1_555 1_555
C10_17 N1_17 1_555 1_555
C11_17 C10_17 1_555 1_555
C12_17 C11_17 1_555 1_555
H5_17 C12_17 1_555 1_555
C13_17 C9_17 1_555 1_555
H6_17 C13_17 1_555 1_555
C14_17 C11_17 1_555 1_555
C5_17 C6_17 1_555 1_555
C12_17 C13_17 1_555 1_555
Cu4_4 O2_17 1_555 1_555
O8_8 C7_18 1_555 1_555
O9_6 C8_18 1_555 1_555
O10_7 C8_18 1_555 1_555
O5_18 N1_18 1_555 1_555
O6_18 C14_18 1_555 1_555
O11_5 C14_18 1_555 1_555
N1_18 C9_18 1_555 1_555
C1_18 C2_18 1_555 1_555
C2_18 H1_18 1_555 1_555
C3_18 C2_18 1_555 1_555
C4_18 C3_18 1_555 1_555
H2_18 C4_18 1_555 1_555
C5_18 C4_18 1_555 1_555
C6_18 C1_18 1_555 1_555
H3_18 C6_18 1_555 1_555
C7_18 C1_18 1_555 1_555
C8_18 C3_18 1_555 1_555
C9_18 C5_18 1_555 1_555
C10_18 N1_18 1_555 1_555
H4_18 C10_18 1_555 1_555
C11_18 C10_18 1_555 1_555
C12_18 C11_18 1_555 1_555
H5_18 C12_18 1_555 1_555
C13_18 C9_18 1_555 1_555
H6_18 C13_18 1_555 1_555
C14_18 C11_18 1_555 1_555
C5_18 C6_18 1_555 1_555
C12_18 C13_18 1_555 1_555
Cu4_3 O2_18 1_555 1_555

#END
