
###############################################################################
#
# This file contains modified crystal structure data generated from the
# MOF subset of the Cambridge Structural Database (CSD) v543 
# hosted by the Cambridge Crystallographic Data Centre (CCDC).
#
# This work is licensed under the Creative Commons
# Attribution-NonCommercial-ShareAlike 4.0 International License.
# To view a copy of this license, visit
# http://creativecommons.org/licenses/by-nc-sa/4.0/
# or send a letter to
# Creative Commons, PO Box 1866, Mountain View, CA 94042, USA.
#
# CIF created using the CSD Python API on 29 September 2022
# The structure has been converted into the P1 space group
# The structure has a 3D framework
# The original CSD entry KACZIZ is in the cubic crystal system
# The framework has been calculated to contain at least 10.0% void space
# The void calculation uses a probe of radius 1.32A, grid spacing 0.4
# H atom positions have been added when not included in the experimental data
# Generated hydrogen atom positions removed from atoms on special positions
#
###############################################################################

data_KACZIZ
_chemical_formula_moiety         '(C960 H720 In80 N192 O348)n'
_symmetry_cell_setting           triclinic
_symmetry_space_group_name_H-M   'P 1'
_symmetry_Int_Tables_number      1
_space_group_name_Hall           'P 1'
loop_
_symmetry_equiv_pos_site_id
_symmetry_equiv_pos_as_xyz
1 x,y,z
_cell_length_a                   38.712(5)
_cell_length_b                   38.712(5)
_cell_length_c                   38.712(5)
_cell_angle_alpha                90
_cell_angle_beta                 90
_cell_angle_gamma                90
_cell_volume                     58014.5
loop_
_atom_site_label
_atom_site_type_symbol
_atom_site_fract_x
_atom_site_fract_y
_atom_site_fract_z
In7 In 0.205103(8) 0.0000 0.2500
In6 In 0.294897(8) 0.0000 0.7500
In1 In 0.2500 0.544897(8) 0.0000
In2 In 0.292803(5) 0.625126(6) 0.013960(6)
O1 O 0.2500 0.59786(8) 0.0000
O2 O 0.27963(8) 0.54188(8) 0.04855(8)
O3 O 0.20154(8) 0.54255(8) 0.02924(8)
O6 O 0.29944(8) 0.59545(7) 0.06123(7)
O7 O 0.17250(7) 0.59141(9) 0.01338(9)
N1 N 0.34593(8) 0.52969(8) 0.16012(8)
C1 C 0.31257(10) 0.55076(10) 0.10001(10)
C3 C 0.33568(10) 0.50657(12) 0.13722(11)
H1 H 0.3407 0.4835 0.1414
C4 C 0.31730(11) 0.51512(12) 0.10638(11)
C5 C 0.33984(11) 0.56355(12) 0.15387(10)
H2 H 0.3473 0.5800 0.1697
C6 C 0.29586(10) 0.56362(10) 0.06754(10)
N2 N 0.30712(13) 0.48902(16) 0.08574(11)
H3 H 0.2967 0.4934 0.0666
H4 H 0.3111 0.4680 0.0917
C7 C 0.32289(11) 0.57403(12) 0.12456(11)
H5 H 0.3183 0.5974 0.1213
C8 C 0.17556(11) 0.56305(13) 0.02947(12)
C9 C 0.14449(12) 0.55300(14) 0.05047(15)
O8 O 0.2500 0.49138(13) 0.0000
C11 C 0.14293(18) 0.52112(18) 0.0666(2)
H6 H 0.1608 0.5053 0.0642
H7 H 0.0126 0.4853 0.1345
C13 C 0.0095(2) 0.53580(19) 0.1377(2)
C14 C 0.1184(2) 0.57483(19) 0.0554(2)
H8 H 0.1195 0.5970 0.0461
N3 N 0.05913(18) 0.52220(17) 0.1111(2)
C17 C 0.08835(18) 0.53352(19) 0.0906(2)
N4 N 0.03983(18) 0.54671(17) 0.1195(2)
C19 C 0.1136(2) 0.5132(2) 0.0867(3)
H12 H 0.1127 0.4918 0.0976
C20 C 0.08913(19) 0.5647(2) 0.0745(3)
H13 H 0.0702 0.5794 0.0761
In3 In 0.455103(8) 0.5000 0.2500
In5 In 0.5000 0.7500 0.044897(8)
In7_2 In 0.205103(8) 1.0000 0.2500
In9 In -0.0000 0.2500 0.205103(8)
In11 In 0.374874(6) 0.513960(6) 0.207197(5)
In17 In 0.486040(6) 0.707197(5) 0.125126(6)
In19 In 0.124874(6) 0.957197(5) 0.263960(6)
In21 In 0.374874(6) 0.486040(6) 0.292803(5)
In22 In 0.042803(5) 0.236040(6) 0.124874(6)
O9 O 0.40214(8) 0.5000 0.2500
O14 O 0.45145(8) 0.72037(8) 0.04188(8)
O16 O 0.45812(8) 0.54855(8) 0.22037(8)
O18 O 0.45812(8) 0.45145(8) 0.27963(8)
O22 O 0.20745(8) 0.95154(8) 0.22076(8)
O23 O 0.04846(8) 0.27924(8) 0.20745(8)
O24 O 0.45745(8) 0.47076(8) 0.20154(8)
O25 O 0.45745(8) 0.52924(8) 0.29846(8)
O30 O 0.20938(9) 0.66013(8) 0.03049(9)
O31 O 0.33987(8) 0.46951(9) 0.20938(9)
O36 O 0.26503(8) 0.66354(8) 0.04379(9)
O37 O 0.33646(8) 0.45621(9) 0.26503(8)
O39 O 0.33646(8) 0.54379(9) 0.23497(8)
O44 O 0.43877(7) 0.70056(8) 0.09545(7)
O46 O 0.40455(7) 0.56123(7) 0.20056(8)
O52 O 0.15859(9) 0.92250(7) 0.23662(9)
O53 O 0.07750(7) 0.26338(9) 0.15859(9)
O54 O 0.40859(9) 0.48662(9) 0.17250(7)
N6 N 0.33988(8) 0.65407(8) 0.02969(8)
N8 N 0.47031(8) 0.66012(8) 0.15407(8)
C22 C 0.39999(10) 0.68743(10) 0.05076(10)
C24 C 0.44924(10) 0.60001(10) 0.18743(10)
C28 C 0.23455(10) 0.67342(11) 0.04603(11)
C29 C 0.32658(11) 0.45397(11) 0.23455(10)
C32 C 0.36278(11) 0.66432(10) 0.00657(12)
C34 C 0.49343(12) 0.63722(11) 0.16432(10)
H16 H 0.1414 0.6593 0.0165
H17 H 0.5165 0.6414 0.1593
C37 C 0.39362(11) 0.68270(11) 0.01512(12)
C39 C 0.48488(12) 0.60638(11) 0.18270(11)
C42 C 0.34613(10) 0.66016(11) 0.06355(12)
C44 C 0.43645(12) 0.65387(10) 0.16016(11)
H20 H 0.3303 0.6527 0.0800
H22 H 0.4200 0.6697 0.1527
C47 C 0.43246(10) 0.70414(10) 0.06362(10)
C49 C 0.43638(10) 0.56754(10) 0.20414(10)
N14 N 0.08574(11) 0.69288(13) 0.01098(16)
N15 N 0.51098(16) 0.58574(11) 0.19288(13)
H26 H 0.0666 0.7033 0.0066
H27 H 0.5066 0.5666 0.2033
H31 H 0.0917 0.6889 0.0320
H32 H 0.5320 0.5917 0.1889
C52 C 0.37544(11) 0.67711(11) 0.07403(12)
C54 C 0.42597(12) 0.62456(11) 0.17711(11)
H35 H 0.3787 0.6817 0.0974
H37 H 0.4026 0.6213 0.1817
C58 C 0.18695(13) 0.92556(11) 0.22053(12)
C59 C 0.07444(11) 0.27947(12) 0.18695(13)
C60 C 0.43695(13) 0.47053(12) 0.17556(11)
C63 C 0.19700(14) 0.89449(12) 0.19953(15)
C64 C 0.10551(12) 0.30047(15) 0.19700(14)
C65 C 0.44700(14) 0.44953(15) 0.14449(12)
O58 O 0.50862(13) 0.5000 0.2500
C68 C 0.22686(13) 0.70271(14) 0.06961(14)
C69 C 0.29729(14) 0.43039(14) 0.22686(13)
C73 C 0.22888(18) 0.89293(18) 0.1834(2)
C74 C 0.10707(18) 0.3166(2) 0.22888(18)
C75 C 0.47888(18) 0.4334(2) 0.14293(18)
H41 H 0.2447 0.9108 0.1858
H42 H 0.0892 0.3142 0.2447
H43 H 0.4947 0.4358 0.1608
C78 C 0.2466(2) 0.7499(2) 0.1060(2)
C79 C 0.2501(2) 0.3940(2) 0.2466(2)
H46 H 0.2647 0.7626 0.1155
H47 H 0.2374 0.3845 0.2647
H48 H 0.5147 0.3655 0.0126
C83 C 0.21420(19) 0.7595(2) 0.1123(2)
C84 C 0.2405(2) 0.3877(2) 0.21420(19)
C85 C 0.46420(19) 0.3623(2) 0.0095(2)
C88 C 0.17517(19) 0.8684(2) 0.1946(2)
C89 C 0.1316(2) 0.3054(2) 0.17517(19)
C90 C 0.42517(19) 0.4446(2) 0.1184(2)
H51 H 0.1530 0.8695 0.2039
H52 H 0.1305 0.2961 0.1530
H53 H 0.4030 0.4539 0.1195
C93 C 0.19280(18) 0.71362(17) 0.0753(2)
C94 C 0.28638(17) 0.4247(2) 0.19280(18)
H56 H 0.1745 0.7018 0.0651
H57 H 0.2982 0.4349 0.1745
N19 N 0.22780(17) 0.80913(18) 0.1389(2)
N20 N 0.19087(18) 0.3611(2) 0.22780(17)
N21 N 0.47780(17) 0.3889(2) 0.05913(18)
C98 C 0.1863(2) 0.74220(18) 0.0964(2)
C99 C 0.25780(18) 0.4036(2) 0.1863(2)
H61 H 0.1637 0.7498 0.1000
H62 H 0.2502 0.4000 0.1637
C103 C 0.21648(19) 0.83835(18) 0.1594(2)
C104 C 0.16165(18) 0.3406(2) 0.21648(19)
C105 C 0.46648(19) 0.4094(2) 0.08835(18)
C108 C 0.25407(18) 0.72074(17) 0.0853(2)
C109 C 0.27926(17) 0.4147(2) 0.25407(18)
H66 H 0.2768 0.7136 0.0822
H67 H 0.2864 0.4178 0.2768
N24 N 0.20329(17) 0.78983(18) 0.1305(2)
N25 N 0.21017(18) 0.3695(2) 0.20329(17)
N26 N 0.45329(17) 0.3805(2) 0.03983(18)
C113 C 0.2368(2) 0.8636(2) 0.1633(3)
C114 C 0.1364(2) 0.3367(3) 0.2368(2)
C115 C 0.4868(2) 0.4133(3) 0.1136(2)
H71 H 0.2582 0.8627 0.1524
H72 H 0.1373 0.3476 0.2582
H73 H 0.5082 0.4024 0.1127
C118 C 0.1853(2) 0.83913(19) 0.1755(3)
C119 C 0.16087(19) 0.3245(3) 0.1853(2)
C120 C 0.4353(2) 0.4255(3) 0.08913(19)
H76 H 0.1706 0.8202 0.1739
H77 H 0.1798 0.3261 0.1706
H78 H 0.4206 0.4239 0.0702
H79 H 0.238422 0.48283 0.0212322
In1_2 In 0.2500 0.544897(8) 1.0000
O1_2 O 0.2500 0.59786(8) 1.0000
O8_2 O 0.2500 0.49138(13) 1.0000
In4 In 0.044897(8) 0.5000 0.7500
In6_2 In 0.294897(8) 1.0000 0.7500
In8 In -0.0000 0.7500 0.955103(8)
In10 In 0.207197(5) 0.625126(6) 0.986040(6)
In12 In 0.125126(6) 0.513960(6) 0.792803(5)
In14 In 0.624874(6) 0.542803(5) 0.736040(6)
In16 In 0.624874(6) 0.457197(5) 0.763960(6)
In18 In 0.375126(6) 0.957197(5) 0.736040(6)
In20 In 0.013960(6) 0.707197(5) 0.874874(6)
In23 In 0.457197(5) 0.236040(6) 0.875126(6)
In24 In 0.542803(5) 0.263960(6) 0.875126(6)
In25 In 0.125126(6) 0.486040(6) 0.707197(5)
O10 O 0.09786(8) 0.5000 0.7500
O12 O 0.65214(8) 0.5000 0.7500
O13 O 0.22037(8) 0.54188(8) 0.95145(8)
O15 O 0.04855(8) 0.72037(8) 0.95812(8)
O17 O 0.04188(8) 0.54855(8) 0.77963(8)
O19 O 0.04188(8) 0.45145(8) 0.72037(8)
O20 O 0.29846(8) 0.54255(8) 0.97076(8)
O21 O 0.29255(8) 0.95154(8) 0.77924(8)
O26 O 0.04255(8) 0.52924(8) 0.70154(8)
O27 O 0.04255(8) 0.47076(8) 0.79846(8)
O28 O 0.58987(8) 0.54062(9) 0.78049(9)
O29 O 0.29062(9) 0.66013(8) 0.96951(9)
O32 O 0.45938(9) 0.28049(9) 0.91013(8)
O33 O 0.16013(8) 0.46951(9) 0.79062(9)
O34 O 0.58646(8) 0.48497(8) 0.79379(9)
O35 O 0.23497(8) 0.66354(8) 0.95621(9)
O38 O 0.51503(8) 0.29379(9) 0.91354(8)
O40 O 0.16354(8) 0.54379(9) 0.76503(8)
O42 O 0.58646(8) 0.51503(8) 0.70621(9)
O43 O 0.20056(8) 0.59545(7) 0.93877(7)
O45 O 0.06123(7) 0.70056(8) 0.90455(7)
O47 O 0.09545(7) 0.56123(7) 0.79944(8)
O49 O 0.65455(7) 0.54944(8) 0.68877(7)
O50 O 0.32750(7) 0.59141(9) 0.98662(9)
O51 O 0.34141(9) 0.92250(7) 0.76338(9)
O55 O 0.09141(9) 0.48662(9) 0.82750(7)
O57 O 0.65859(9) 0.57750(7) 0.76338(9)
N5 N 0.15407(8) 0.52969(8) 0.83988(8)
N7 N 0.16012(8) 0.65407(8) 0.97031(8)
N9 N 0.02969(8) 0.66012(8) 0.84593(8)
N11 N 0.59593(8) 0.58988(8) 0.72031(8)
C21 C 0.18743(10) 0.55076(10) 0.89999(10)
C23 C 0.10001(10) 0.68743(10) 0.94924(10)
C25 C 0.05076(10) 0.60001(10) 0.81257(10)
C26 C 0.57658(11) 0.51545(10) 0.79603(11)
C27 C 0.26545(10) 0.67342(11) 0.95397(11)
C30 C 0.48455(10) 0.29603(11) 0.92342(11)
C31 C 0.16432(10) 0.50657(12) 0.86278(11)
C33 C 0.13722(11) 0.66432(10) 0.99343(12)
C35 C 0.00657(12) 0.63722(11) 0.83568(10)
H14 H 0.1593 0.4835 0.8586
H15 H 0.3586 0.6593 0.9835
C36 C 0.18270(11) 0.51512(12) 0.89362(11)
C38 C 0.10638(11) 0.68270(11) 0.98488(12)
C40 C 0.01512(12) 0.60638(11) 0.81730(11)
C41 C 0.16016(11) 0.56355(12) 0.84613(10)
C43 C 0.15387(10) 0.66016(11) 0.93645(12)
C45 C 0.06355(12) 0.65387(10) 0.83984(11)
H19 H 0.1527 0.5800 0.8303
H21 H 0.1697 0.6527 0.9200
H23 H 0.0800 0.6697 0.8473
C46 C 0.20414(10) 0.56362(10) 0.93246(10)
C48 C 0.06754(10) 0.70414(10) 0.93638(10)
C50 C 0.06362(10) 0.56754(10) 0.79586(10)
N12 N 0.19288(13) 0.48902(16) 0.91426(11)
N13 N 0.41426(11) 0.69288(13) 0.98902(16)
H24 H 0.2033 0.4934 0.9334
H25 H 0.4334 0.7033 0.9934
H29 H 0.1889 0.4680 0.9083
H30 H 0.4083 0.6889 0.9680
C51 C 0.17711(11) 0.57403(12) 0.87544(11)
C53 C 0.12456(11) 0.67711(11) 0.92597(12)
C55 C 0.07403(12) 0.62456(11) 0.82289(11)
H34 H 0.1817 0.5974 0.8787
H36 H 0.1213 0.6817 0.9026
H38 H 0.0974 0.6213 0.8183
C56 C 0.32444(11) 0.56305(13) 0.97053(12)
C57 C 0.31305(13) 0.92556(11) 0.77947(12)
C61 C 0.35551(12) 0.55300(14) 0.94953(15)
C62 C 0.30300(14) 0.89449(12) 0.80047(15)
C66 C 0.54729(14) 0.52314(13) 0.81961(14)
C67 C 0.27314(13) 0.70271(14) 0.93039(14)
C70 C 0.47686(13) 0.31961(14) 0.95271(14)
C71 C 0.35707(18) 0.52112(18) 0.9334(2)
C72 C 0.27112(18) 0.89293(18) 0.8166(2)
H39 H 0.3392 0.5053 0.9358
H40 H 0.2553 0.9108 0.8142
C76 C 0.5001(2) 0.5034(2) 0.8560(2)
C77 C 0.2534(2) 0.7499(2) 0.8940(2)
C80 C 0.4966(2) 0.3560(2) 0.9999(2)
H44 H 0.4874 0.4853 0.8655
H45 H 0.2353 0.7626 0.8845
C81 C 0.4905(2) 0.53580(19) 0.8623(2)
C82 C 0.28580(19) 0.7595(2) 0.8877(2)
C86 C 0.3816(2) 0.57483(19) 0.9446(2)
C87 C 0.32483(19) 0.8684(2) 0.8054(2)
H49 H 0.3805 0.5970 0.9539
H50 H 0.3470 0.8695 0.7961
C91 C 0.53638(17) 0.55720(18) 0.8253(2)
C92 C 0.30720(18) 0.71362(17) 0.9247(2)
C95 C 0.44280(18) 0.3253(2) 0.96362(17)
H54 H 0.5482 0.5755 0.8151
H55 H 0.3255 0.7018 0.9349
H58 H 0.4245 0.3151 0.9518
N17 N 0.44087(18) 0.52220(17) 0.8889(2)
N18 N 0.27220(17) 0.80913(18) 0.8611(2)
C96 C 0.50780(18) 0.5637(2) 0.8464(2)
C97 C 0.3137(2) 0.74220(18) 0.9036(2)
C100 C 0.4363(2) 0.3464(2) 0.99220(18)
H59 H 0.5002 0.5863 0.8500
H60 H 0.3363 0.7498 0.9000
H63 H 0.4137 0.3500 0.9998
C101 C 0.41165(18) 0.53352(19) 0.9094(2)
C102 C 0.28352(19) 0.83835(18) 0.8406(2)
C106 C 0.52926(17) 0.49593(18) 0.8353(2)
C107 C 0.24593(18) 0.72074(17) 0.9147(2)
C110 C 0.50407(18) 0.3353(2) 0.97074(17)
H64 H 0.5364 0.4732 0.8322
H65 H 0.2232 0.7136 0.9178
H68 H 0.5268 0.3322 0.9636
N22 N 0.46017(18) 0.54671(17) 0.8805(2)
N23 N 0.29671(17) 0.78983(18) 0.8695(2)
C111 C 0.3864(2) 0.5132(2) 0.9133(3)
C112 C 0.2632(2) 0.8636(2) 0.8367(3)
H69 H 0.3873 0.4918 0.9024
H70 H 0.2418 0.8627 0.8476
C116 C 0.41087(19) 0.5647(2) 0.9255(3)
C117 C 0.3147(2) 0.83913(19) 0.8245(3)
H74 H 0.4298 0.5794 0.9239
H75 H 0.3294 0.8202 0.8261
H80 H 0.237401 0.48283 0.979357
O4 O 0.91013(8) 0.54062(9) 0.21951(9)
O5 O 0.91354(8) 0.48497(8) 0.20621(9)
C2 C 0.92342(11) 0.51545(10) 0.20397(11)
C10 C 0.95271(14) 0.52314(13) 0.18039(14)
C12 C 0.9999(2) 0.5034(2) 0.1440(2)
C15 C 0.96362(17) 0.55720(18) 0.1747(2)
H9 H 0.9518 0.5755 0.1849
C16 C 0.99220(18) 0.5637(2) 0.1536(2)
H10 H 0.9998 0.5863 0.1500
C18 C 0.97074(17) 0.49593(18) 0.1647(2)
H11 H 0.9636 0.4732 0.1678
In9_2 In 1.0000 0.2500 0.205103(8)
In13 In 0.875126(6) 0.542803(5) 0.263960(6)
In15 In 0.875126(6) 0.457197(5) 0.236040(6)
O11 O 0.84786(8) 0.5000 0.2500
O41 O 0.91354(8) 0.51503(8) 0.29379(9)
O48 O 0.84545(7) 0.54944(8) 0.31123(7)
O56 O 0.84141(9) 0.57750(7) 0.23662(9)
N10 N 0.90407(8) 0.58988(8) 0.27969(8)
In8_2 In 1.0000 0.7500 0.955103(8)
H18 H 0.9835 0.6414 0.8407
N16 N 0.98902(16) 0.58574(11) 0.80712(13)
H28 H 0.9934 0.5666 0.7967
H33 H 0.9680 0.5917 0.8111
O59 O 0.99138(13) 0.5000 0.7500
In1_3 In 0.2500 0.455103(8) 0.5000
In2_2 In 0.207197(5) 0.374874(6) 0.513960(6)
O1_3 O 0.2500 0.40214(8) 0.5000
O2_2 O 0.22037(8) 0.45812(8) 0.54855(8)
O3_2 O 0.29846(8) 0.45745(8) 0.52924(8)
O4_2 O 0.58987(8) 0.45938(9) 0.71951(9)
O6_2 O 0.20056(8) 0.40455(7) 0.56123(7)
O7_2 O 0.32750(7) 0.40859(9) 0.51338(9)
N1_2 N 0.15407(8) 0.47031(8) 0.66012(8)
C1_2 C 0.18743(10) 0.44924(10) 0.60001(10)
C2_2 C 0.57658(11) 0.48455(10) 0.70397(11)
C3_2 C 0.16432(10) 0.49343(12) 0.63722(11)
H1_2 H 0.1593 0.5165 0.6414
C4_2 C 0.18270(11) 0.48488(12) 0.60638(11)
C5_2 C 0.16016(11) 0.43645(12) 0.65387(10)
H2_2 H 0.1527 0.4200 0.6697
C6_2 C 0.20414(10) 0.43638(10) 0.56754(10)
N2_2 N 0.19288(13) 0.51098(16) 0.58574(11)
H3_2 H 0.2033 0.5066 0.5666
H4_2 H 0.1889 0.5320 0.5917
C7_2 C 0.17711(11) 0.42597(12) 0.62456(11)
H5_2 H 0.1817 0.4026 0.6213
C8_2 C 0.32444(11) 0.43695(13) 0.52947(12)
C9_2 C 0.35551(12) 0.44700(14) 0.55047(15)
O8_3 O 0.2500 0.50862(13) 0.5000
C10_2 C 0.54729(14) 0.47686(13) 0.68039(14)
C11_2 C 0.35707(18) 0.47888(18) 0.5666(2)
H6_2 H 0.3392 0.4947 0.5642
C12_2 C 0.5001(2) 0.4966(2) 0.6440(2)
H7_2 H 0.4874 0.5147 0.6345
C13_2 C 0.4905(2) 0.46420(19) 0.6377(2)
C14_2 C 0.3816(2) 0.42517(19) 0.5554(2)
H8_2 H 0.3805 0.4030 0.5461
C15_2 C 0.53638(17) 0.44280(18) 0.6747(2)
H9_2 H 0.5482 0.4245 0.6849
N3_2 N 0.44087(18) 0.47780(17) 0.6111(2)
C16_2 C 0.50780(18) 0.4363(2) 0.6536(2)
H10_2 H 0.5002 0.4137 0.6500
C17_2 C 0.41165(18) 0.46648(19) 0.5906(2)
C18_2 C 0.52926(17) 0.50407(18) 0.6647(2)
H11_2 H 0.5364 0.5268 0.6678
N4_2 N 0.46017(18) 0.45329(17) 0.6195(2)
C19_2 C 0.3864(2) 0.4868(2) 0.5867(3)
H12_2 H 0.3873 0.5082 0.5976
C20_2 C 0.41087(19) 0.4353(2) 0.5745(3)
H13_2 H 0.4298 0.4206 0.5761
In5_2 In -0.0000 0.2500 0.544897(8)
In8_3 In 0.5000 0.2500 0.455103(8)
In9_3 In 0.5000 0.7500 0.705103(8)
In10_2 In 0.292803(5) 0.374874(6) 0.486040(6)
In17_2 In 0.013960(6) 0.292803(5) 0.625126(6)
In18_2 In 0.124874(6) 0.042803(5) 0.236040(6)
In19_2 In 0.375126(6) 0.042803(5) 0.763960(6)
In20_2 In 0.486040(6) 0.292803(5) 0.374874(6)
In22_2 In 0.457197(5) 0.763960(6) 0.624874(6)
In23_2 In 0.042803(5) 0.763960(6) 0.375126(6)
O13_2 O 0.27963(8) 0.45812(8) 0.45145(8)
O14_2 O 0.04855(8) 0.27963(8) 0.54188(8)
O15_2 O 0.45145(8) 0.27963(8) 0.45812(8)
O20_2 O 0.20154(8) 0.45745(8) 0.47076(8)
O21_2 O 0.20745(8) 0.04846(8) 0.27924(8)
O22_2 O 0.29255(8) 0.04846(8) 0.72076(8)
O23_2 O 0.45154(8) 0.72076(8) 0.70745(8)
O29_2 O 0.20938(9) 0.33987(8) 0.46951(9)
O30_2 O 0.29062(9) 0.33987(8) 0.53049(9)
O31_2 O 0.16013(8) 0.53049(9) 0.70938(9)
O32_2 O 0.04062(9) 0.71951(9) 0.41013(8)
O33_2 O 0.33987(8) 0.53049(9) 0.29062(9)
O35_2 O 0.26503(8) 0.33646(8) 0.45621(9)
O36_2 O 0.23497(8) 0.33646(8) 0.54379(9)
O39_2 O 0.16354(8) 0.45621(9) 0.73497(8)
O43_2 O 0.29944(8) 0.40455(7) 0.43877(7)
O44_2 O 0.06123(7) 0.29944(8) 0.59545(7)
O45_2 O 0.43877(7) 0.29944(8) 0.40455(7)
O46_2 O 0.09545(7) 0.43877(7) 0.70056(8)
O47_2 O 0.40455(7) 0.43877(7) 0.29944(8)
O48_2 O 0.65455(7) 0.45056(8) 0.81123(7)
O50_2 O 0.17250(7) 0.40859(9) 0.48662(9)
O51_2 O 0.15859(9) 0.07750(7) 0.26338(9)
O52_2 O 0.34141(9) 0.07750(7) 0.73662(9)
O53_2 O 0.42250(7) 0.73662(9) 0.65859(9)
O54_2 O 0.09141(9) 0.51338(9) 0.67250(7)
O55_2 O 0.40859(9) 0.51338(9) 0.32750(7)
O56_2 O 0.65859(9) 0.42250(7) 0.73662(9)
N5_2 N 0.34593(8) 0.47031(8) 0.33988(8)
N6_2 N 0.16012(8) 0.34593(8) 0.52969(8)
N7_2 N 0.33988(8) 0.34593(8) 0.47031(8)
N8_2 N 0.02969(8) 0.33988(8) 0.65407(8)
N9_2 N 0.47031(8) 0.33988(8) 0.34593(8)
N10_2 N 0.59593(8) 0.41012(8) 0.77969(8)
C21_2 C 0.31257(10) 0.44924(10) 0.39999(10)
C22_2 C 0.10001(10) 0.31257(10) 0.55076(10)
C23_2 C 0.39999(10) 0.31257(10) 0.44924(10)
C24_2 C 0.05076(10) 0.39999(10) 0.68743(10)
C25_2 C 0.44924(10) 0.39999(10) 0.31257(10)
C27_2 C 0.23455(10) 0.32658(11) 0.45397(11)
C28_2 C 0.26545(10) 0.32658(11) 0.54603(11)
C29_2 C 0.17342(11) 0.54603(11) 0.73455(10)
C30_2 C 0.01545(10) 0.70397(11) 0.42342(11)
C31_2 C 0.33568(10) 0.49343(12) 0.36278(11)
C32_2 C 0.13722(11) 0.33568(10) 0.50657(12)
C33_2 C 0.36278(11) 0.33568(10) 0.49343(12)
C34_2 C 0.00657(12) 0.36278(11) 0.66432(10)
C35_2 C 0.49343(12) 0.36278(11) 0.33568(10)
H14_2 H 0.3407 0.5165 0.3586
H15_2 H 0.1414 0.3407 0.4835
H16_2 H 0.3586 0.3407 0.5165
H18_2 H 0.5165 0.3586 0.3407
C36_2 C 0.31730(11) 0.48488(12) 0.39362(11)
C37_2 C 0.10638(11) 0.31730(11) 0.51512(12)
C38_2 C 0.39362(11) 0.31730(11) 0.48488(12)
C39_2 C 0.01512(12) 0.39362(11) 0.68270(11)
C40_2 C 0.48488(12) 0.39362(11) 0.31730(11)
C41_2 C 0.33984(11) 0.43645(12) 0.34613(10)
C42_2 C 0.15387(10) 0.33984(11) 0.56355(12)
C43_2 C 0.34613(10) 0.33984(11) 0.43645(12)
C44_2 C 0.06355(12) 0.34613(10) 0.66016(11)
C45_2 C 0.43645(12) 0.34613(10) 0.33984(11)
H19_2 H 0.3473 0.4200 0.3303
H20_2 H 0.1697 0.3473 0.5800
H21_2 H 0.3303 0.3473 0.4200
H22_2 H 0.0800 0.3303 0.6527
H23_2 H 0.4200 0.3303 0.3473
C46_2 C 0.29586(10) 0.43638(10) 0.43246(10)
C47_2 C 0.06754(10) 0.29586(10) 0.56362(10)
C48_2 C 0.43246(10) 0.29586(10) 0.43638(10)
C49_2 C 0.06362(10) 0.43246(10) 0.70414(10)
C50_2 C 0.43638(10) 0.43246(10) 0.29586(10)
N12_2 N 0.30712(13) 0.51098(16) 0.41426(11)
N13_2 N 0.08574(11) 0.30712(13) 0.48902(16)
N14_2 N 0.41426(11) 0.30712(13) 0.51098(16)
N16_2 N 0.51098(16) 0.41426(11) 0.30712(13)
H24_2 H 0.2967 0.5066 0.4334
H25_2 H 0.0666 0.2967 0.4934
H26_2 H 0.4334 0.2967 0.5066
H28_2 H 0.5066 0.4334 0.2967
H29_2 H 0.3111 0.5320 0.4083
H30_2 H 0.0917 0.3111 0.4680
H31_2 H 0.4083 0.3111 0.5320
H33_2 H 0.5320 0.4083 0.3111
C51_2 C 0.32289(11) 0.42597(12) 0.37544(11)
C52_2 C 0.12456(11) 0.32289(11) 0.57403(12)
C53_2 C 0.37544(11) 0.32289(11) 0.42597(12)
C54_2 C 0.07403(12) 0.37544(11) 0.67711(11)
C55_2 C 0.42597(12) 0.37544(11) 0.32289(11)
H34_2 H 0.3183 0.4026 0.3787
H35_2 H 0.1213 0.3183 0.5974
H36_2 H 0.3787 0.3183 0.4026
H37_2 H 0.0974 0.3787 0.6817
H38_2 H 0.4026 0.3787 0.3183
C56_2 C 0.17556(11) 0.43695(13) 0.47053(12)
C57_2 C 0.18695(13) 0.07444(11) 0.27947(12)
C58_2 C 0.31305(13) 0.07444(11) 0.72053(12)
C59_2 C 0.42556(11) 0.72053(12) 0.68695(13)
C60_2 C 0.06305(13) 0.52947(12) 0.67556(11)
C61_2 C 0.14449(12) 0.44700(14) 0.44953(15)
C62_2 C 0.19700(14) 0.10551(12) 0.30047(15)
C63_2 C 0.30300(14) 0.10551(12) 0.69953(15)
C64_2 C 0.39449(12) 0.69953(15) 0.69700(14)
C65_2 C 0.05300(14) 0.55047(15) 0.64449(12)
C67_2 C 0.22686(13) 0.29729(14) 0.43039(14)
C68_2 C 0.27314(13) 0.29729(14) 0.56961(14)
C69_2 C 0.20271(14) 0.56961(14) 0.72686(13)
C70_2 C 0.02314(13) 0.68039(14) 0.45271(14)
C71_2 C 0.14293(18) 0.47888(18) 0.4334(2)
C72_2 C 0.22888(18) 0.10707(18) 0.3166(2)
C73_2 C 0.27112(18) 0.10707(18) 0.6834(2)
C74_2 C 0.39293(18) 0.6834(2) 0.72888(18)
C75_2 C 0.02112(18) 0.5666(2) 0.64293(18)
H39_2 H 0.1608 0.4947 0.4358
H40_2 H 0.2447 0.0892 0.3142
H41_2 H 0.2553 0.0892 0.6858
H42_2 H 0.4108 0.6858 0.7447
H43_2 H 0.0053 0.5642 0.6608
C77_2 C 0.2466(2) 0.2501(2) 0.3940(2)
C78_2 C 0.2534(2) 0.2501(2) 0.6060(2)
C79_2 C 0.2499(2) 0.6060(2) 0.7466(2)
C80_2 C 0.0034(2) 0.6440(2) 0.4999(2)
H44_2 H 0.0126 0.5147 0.3655
H45_2 H 0.2647 0.2374 0.3845
H46_2 H 0.2353 0.2374 0.6155
H47_2 H 0.2626 0.6155 0.7647
C81_2 C 0.0095(2) 0.46420(19) 0.3623(2)
C82_2 C 0.21420(19) 0.2405(2) 0.3877(2)
C83_2 C 0.28580(19) 0.2405(2) 0.6123(2)
C84_2 C 0.2595(2) 0.6123(2) 0.71420(19)
C85_2 C 0.03580(19) 0.6377(2) 0.5095(2)
C86_2 C 0.1184(2) 0.42517(19) 0.4446(2)
C87_2 C 0.17517(19) 0.1316(2) 0.3054(2)
C88_2 C 0.32483(19) 0.1316(2) 0.6946(2)
C89_2 C 0.3684(2) 0.6946(2) 0.67517(19)
C90_2 C 0.07483(19) 0.5554(2) 0.6184(2)
H49_2 H 0.1195 0.4030 0.4539
H50_2 H 0.1530 0.1305 0.2961
H51_2 H 0.3470 0.1305 0.7039
H52_2 H 0.3695 0.7039 0.6530
H53_2 H 0.0970 0.5461 0.6195
C92_2 C 0.19280(18) 0.28638(17) 0.4247(2)
C93_2 C 0.30720(18) 0.28638(17) 0.5753(2)
C94_2 C 0.21362(17) 0.5753(2) 0.69280(18)
C95_2 C 0.05720(18) 0.6747(2) 0.46362(17)
H55_2 H 0.1745 0.2982 0.4349
H56_2 H 0.3255 0.2982 0.5651
H57_2 H 0.2018 0.5651 0.6745
H58_2 H 0.0755 0.6849 0.4518
N17_2 N 0.05913(18) 0.47780(17) 0.3889(2)
N18_2 N 0.22780(17) 0.19087(18) 0.3611(2)
N19_2 N 0.27220(17) 0.19087(18) 0.6389(2)
N20_2 N 0.30913(18) 0.6389(2) 0.72780(17)
N21_2 N 0.02220(17) 0.6111(2) 0.55913(18)
C97_2 C 0.1863(2) 0.25780(18) 0.4036(2)
C98_2 C 0.3137(2) 0.25780(18) 0.5964(2)
C99_2 C 0.24220(18) 0.5964(2) 0.6863(2)
C100_2 C 0.0637(2) 0.6536(2) 0.49220(18)
H60_2 H 0.1637 0.2502 0.4000
H61_2 H 0.3363 0.2502 0.6000
H62_2 H 0.2498 0.6000 0.6637
H63_2 H 0.0863 0.6500 0.4998
C101_2 C 0.08835(18) 0.46648(19) 0.4094(2)
C102_2 C 0.21648(19) 0.16165(18) 0.3406(2)
C103_2 C 0.28352(19) 0.16165(18) 0.6594(2)
C104_2 C 0.33835(18) 0.6594(2) 0.71648(19)
C105_2 C 0.03352(19) 0.5906(2) 0.58835(18)
C107_2 C 0.25407(18) 0.27926(17) 0.4147(2)
C108_2 C 0.24593(18) 0.27926(17) 0.5853(2)
C109_2 C 0.22074(17) 0.5853(2) 0.75407(18)
H65_2 H 0.2768 0.2864 0.4178
H66_2 H 0.2232 0.2864 0.5822
H67_2 H 0.2136 0.5822 0.7768
N22_2 N 0.03983(18) 0.45329(17) 0.3805(2)
N23_2 N 0.20329(17) 0.21017(18) 0.3695(2)
N24_2 N 0.29671(17) 0.21017(18) 0.6305(2)
N25_2 N 0.28983(18) 0.6305(2) 0.70329(17)
N26_2 N 0.04671(17) 0.6195(2) 0.53983(18)
C111_2 C 0.1136(2) 0.4868(2) 0.4133(3)
C112_2 C 0.2368(2) 0.1364(2) 0.3367(3)
C113_2 C 0.2632(2) 0.1364(2) 0.6633(3)
C114_2 C 0.3636(2) 0.6633(3) 0.7368(2)
C115_2 C 0.0132(2) 0.5867(3) 0.6136(2)
H69_2 H 0.1127 0.5082 0.4024
H70_2 H 0.2582 0.1373 0.3476
H71_2 H 0.2418 0.1373 0.6524
H72_2 H 0.3627 0.6524 0.7582
C116_2 C 0.08913(19) 0.4353(2) 0.4255(3)
C117_2 C 0.1853(2) 0.16087(19) 0.3245(3)
C118_2 C 0.3147(2) 0.16087(19) 0.6755(3)
C119_2 C 0.33913(19) 0.6755(3) 0.6853(2)
C120_2 C 0.0647(2) 0.5745(3) 0.58913(19)
H74_2 H 0.0702 0.4206 0.4239
H75_2 H 0.1706 0.1798 0.3261
H76_2 H 0.3294 0.1798 0.6739
H77_2 H 0.3202 0.6739 0.6706
H78_2 H 0.0794 0.5761 0.5702
In5_3 In 1.0000 0.2500 0.544897(8)
In24_2 In 0.957197(5) 0.736040(6) 0.375126(6)
O28_2 O 0.91013(8) 0.45938(9) 0.28049(9)
O38_2 O 0.98497(8) 0.70621(9) 0.41354(8)
O49_2 O 0.84545(7) 0.45056(8) 0.18877(7)
O57_2 O 0.84141(9) 0.42250(7) 0.26338(9)
N11_2 N 0.90407(8) 0.41012(8) 0.22031(8)
C26_2 C 0.92342(11) 0.48455(10) 0.29603(11)
H17_2 H 0.9835 0.3586 0.6593
N15_2 N 0.98902(16) 0.41426(11) 0.69288(13)
H27_2 H 0.9934 0.4334 0.7033
H32_2 H 0.9680 0.4083 0.6889
C66_2 C 0.95271(14) 0.47686(13) 0.31961(14)
C76_2 C 0.9999(2) 0.4966(2) 0.3560(2)
H48_2 H 0.9853 0.6345 0.5126
C91_2 C 0.96362(17) 0.44280(18) 0.3253(2)
H54_2 H 0.9518 0.4245 0.3151
C96_2 C 0.99220(18) 0.4363(2) 0.3464(2)
H59_2 H 0.9998 0.4137 0.3500
C106_2 C 0.97074(17) 0.50407(18) 0.3353(2)
C110_2 C 0.99593(18) 0.6647(2) 0.47074(17)
H64_2 H 0.9636 0.5268 0.3322
H68_2 H 0.9732 0.6678 0.4636
H73_2 H 0.9918 0.5976 0.6127
O4_3 O 0.08987(8) 0.04062(9) 0.28049(9)
C2_3 C 0.07658(11) 0.01545(10) 0.29603(11)
C10_3 C 0.04729(14) 0.02314(13) 0.31961(14)
C12_3 C 0.0001(2) 0.0034(2) 0.3560(2)
C15_3 C 0.03638(17) 0.05720(18) 0.3253(2)
H9_3 H 0.0482 0.0755 0.3151
C16_3 C 0.00780(18) 0.0637(2) 0.3464(2)
H10_3 H 0.0002 0.0863 0.3500
O11_2 O 0.15214(8) 0.0000 0.2500
O41_2 O 0.08646(8) 0.01503(8) 0.20621(9)
O48_3 O 0.15455(7) 0.04944(8) 0.18877(7)
N10_3 N 0.09593(8) 0.08988(8) 0.22031(8)
H18_3 H 0.0165 0.1414 0.6593
N16_3 N 0.01098(16) 0.08574(11) 0.69288(13)
H28_3 H 0.0066 0.0666 0.7033
H33_3 H 0.0320 0.0917 0.6889
O59_2 O 0.00862(13) 0.0000 0.7500
H83 H 0.0171703 0.0212322 0.761578
O5_2 O 0.08646(8) 0.98497(8) 0.29379(9)
C18_3 C 0.02926(17) 0.99593(18) 0.3353(2)
H11_3 H 0.0364 0.9732 0.3322
In9_4 In -0.0000 0.7500 0.294897(8)
O11_3 O 0.15214(8) 1.0000 0.2500
O59_3 O 0.00862(13) 1.0000 0.7500
H84 H 0.0171703 0.979357 0.762599
In1_4 In 0.7500 0.044897(8) 0.5000
In2_3 In 0.707197(5) 0.125126(6) 0.486040(6)
O1_4 O 0.7500 0.09786(8) 0.5000
O2_3 O 0.72037(8) 0.04188(8) 0.45145(8)
O3_3 O 0.79846(8) 0.04255(8) 0.47076(8)
O6_3 O 0.70056(8) 0.09545(7) 0.43877(7)
O7_3 O 0.82750(7) 0.09141(9) 0.48662(9)
N1_3 N 0.65407(8) 0.02969(8) 0.33988(8)
C1_3 C 0.68743(10) 0.05076(10) 0.39999(10)
C3_3 C 0.66432(10) 0.00657(12) 0.36278(11)
C4_3 C 0.68270(11) 0.01512(12) 0.39362(11)
C5_3 C 0.66016(11) 0.06355(12) 0.34613(10)
H2_3 H 0.6527 0.0800 0.3303
C6_3 C 0.70414(10) 0.06362(10) 0.43246(10)
C7_3 C 0.67711(11) 0.07403(12) 0.37544(11)
H5_3 H 0.6817 0.0974 0.3787
C8_3 C 0.82444(11) 0.06305(13) 0.47053(12)
C9_3 C 0.85551(12) 0.05300(14) 0.44953(15)
C11_3 C 0.85707(18) 0.02112(18) 0.4334(2)
H6_3 H 0.8392 0.0053 0.4358
C13_3 C 0.9905(2) 0.03580(19) 0.3623(2)
C14_3 C 0.8816(2) 0.07483(19) 0.4446(2)
H8_3 H 0.8805 0.0970 0.4539
N3_3 N 0.94087(18) 0.02220(17) 0.3889(2)
C17_3 C 0.91165(18) 0.03352(19) 0.4094(2)
N4_3 N 0.96017(18) 0.04671(17) 0.3805(2)
C19_3 C 0.8864(2) 0.0132(2) 0.4133(3)
C20_3 C 0.91087(19) 0.0647(2) 0.4255(3)
H13_3 H 0.9298 0.0794 0.4239
In3_2 In 0.544897(8) 0.0000 0.2500
In4_2 In 0.955103(8) 0.0000 0.7500
In6_3 In 0.705103(8) 0.5000 0.7500
In7_3 In 0.794897(8) 0.5000 0.2500
In10_3 In 0.792803(5) 0.125126(6) 0.513960(6)
In11_2 In 0.625126(6) 0.013960(6) 0.292803(5)
In12_2 In 0.874874(6) 0.013960(6) 0.707197(5)
In17_3 In 0.513960(6) 0.207197(5) 0.374874(6)
In20_3 In 0.986040(6) 0.207197(5) 0.625126(6)
O9_2 O 0.59786(8) 0.0000 0.2500
O10_2 O 0.90214(8) 0.0000 0.7500
O12_2 O 0.34786(8) 0.0000 0.7500
O13_3 O 0.77963(8) 0.04188(8) 0.54855(8)
O14_3 O 0.54855(8) 0.22037(8) 0.45812(8)
O15_3 O 0.95145(8) 0.22037(8) 0.54188(8)
O16_2 O 0.54188(8) 0.04855(8) 0.27963(8)
O17_2 O 0.95812(8) 0.04855(8) 0.72037(8)
O20_3 O 0.70154(8) 0.04255(8) 0.52924(8)
O21_3 O 0.70745(8) 0.45154(8) 0.72076(8)
O22_3 O 0.79255(8) 0.45154(8) 0.27924(8)
O25_2 O 0.54255(8) 0.02924(8) 0.20154(8)
O26_2 O 0.95745(8) 0.02924(8) 0.79846(8)
O28_3 O 0.41013(8) 0.04062(9) 0.71951(9)
O29_3 O 0.70938(9) 0.16013(8) 0.53049(9)
O30_3 O 0.79062(9) 0.16013(8) 0.46951(9)
O35_3 O 0.76503(8) 0.16354(8) 0.54379(9)
O36_3 O 0.73497(8) 0.16354(8) 0.45621(9)
O39_3 O 0.66354(8) 0.04379(9) 0.26503(8)
O40_2 O 0.83646(8) 0.04379(9) 0.73497(8)
O42_2 O 0.41354(8) 0.01503(8) 0.79379(9)
O43_3 O 0.79944(8) 0.09545(7) 0.56123(7)
O44_3 O 0.56123(7) 0.20056(8) 0.40455(7)
O45_3 O 0.93877(7) 0.20056(8) 0.59545(7)
O46_3 O 0.59545(7) 0.06123(7) 0.29944(8)
O47_3 O 0.90455(7) 0.06123(7) 0.70056(8)
O49_3 O 0.34545(7) 0.04944(8) 0.81123(7)
O50_3 O 0.67250(7) 0.09141(9) 0.51338(9)
N5_3 N 0.84593(8) 0.02969(8) 0.66012(8)
N6_3 N 0.66012(8) 0.15407(8) 0.47031(8)
N7_3 N 0.83988(8) 0.15407(8) 0.52969(8)
N8_3 N 0.52969(8) 0.16012(8) 0.34593(8)
N9_3 N 0.97031(8) 0.16012(8) 0.65407(8)
N11_3 N 0.40407(8) 0.08988(8) 0.77969(8)
C21_3 C 0.81257(10) 0.05076(10) 0.60001(10)
C22_3 C 0.60001(10) 0.18743(10) 0.44924(10)
C23_3 C 0.89999(10) 0.18743(10) 0.55076(10)
C24_3 C 0.55076(10) 0.10001(10) 0.31257(10)
C25_3 C 0.94924(10) 0.10001(10) 0.68743(10)
C26_3 C 0.42342(11) 0.01545(10) 0.70397(11)
C27_3 C 0.73455(10) 0.17342(11) 0.54603(11)
C28_3 C 0.76545(10) 0.17342(11) 0.45397(11)
C31_3 C 0.83568(10) 0.00657(12) 0.63722(11)
C32_3 C 0.63722(11) 0.16432(10) 0.49343(12)
C33_3 C 0.86278(11) 0.16432(10) 0.50657(12)
C34_3 C 0.50657(12) 0.13722(11) 0.33568(10)
C35_3 C 0.99343(12) 0.13722(11) 0.66432(10)
H15_3 H 0.6414 0.1593 0.5165
H16_3 H 0.8586 0.1593 0.4835
H17_3 H 0.4835 0.1414 0.3407
C36_3 C 0.81730(11) 0.01512(12) 0.60638(11)
C37_3 C 0.60638(11) 0.18270(11) 0.48488(12)
C38_3 C 0.89362(11) 0.18270(11) 0.51512(12)
C39_3 C 0.51512(12) 0.10638(11) 0.31730(11)
C40_3 C 0.98488(12) 0.10638(11) 0.68270(11)
C41_3 C 0.83984(11) 0.06355(12) 0.65387(10)
C42_3 C 0.65387(10) 0.16016(11) 0.43645(12)
C43_3 C 0.84613(10) 0.16016(11) 0.56355(12)
C44_3 C 0.56355(12) 0.15387(10) 0.33984(11)
C45_3 C 0.93645(12) 0.15387(10) 0.66016(11)
H19_3 H 0.8473 0.0800 0.6697
H20_3 H 0.6697 0.1527 0.4200
H21_3 H 0.8303 0.1527 0.5800
H22_3 H 0.5800 0.1697 0.3473
H23_3 H 0.9200 0.1697 0.6527
C46_3 C 0.79586(10) 0.06362(10) 0.56754(10)
C47_3 C 0.56754(10) 0.20414(10) 0.43638(10)
C48_3 C 0.93246(10) 0.20414(10) 0.56362(10)
C49_3 C 0.56362(10) 0.06754(10) 0.29586(10)
C50_3 C 0.93638(10) 0.06754(10) 0.70414(10)
N13_3 N 0.58574(11) 0.19288(13) 0.51098(16)
N14_3 N 0.91426(11) 0.19288(13) 0.48902(16)
N15_3 N 0.48902(16) 0.08574(11) 0.30712(13)
H25_3 H 0.5666 0.2033 0.5066
H26_3 H 0.9334 0.2033 0.4934
H27_3 H 0.4934 0.0666 0.2967
H30_3 H 0.5917 0.1889 0.5320
H31_3 H 0.9083 0.1889 0.4680
H32_3 H 0.4680 0.0917 0.3111
C51_3 C 0.82289(11) 0.07403(12) 0.62456(11)
C52_3 C 0.62456(11) 0.17711(11) 0.42597(12)
C53_3 C 0.87544(11) 0.17711(11) 0.57403(12)
C54_3 C 0.57403(12) 0.12456(11) 0.32289(11)
C55_3 C 0.92597(12) 0.12456(11) 0.67711(11)
H34_3 H 0.8183 0.0974 0.6213
H35_3 H 0.6213 0.1817 0.4026
H36_3 H 0.8787 0.1817 0.5974
H37_3 H 0.5974 0.1213 0.3183
H38_3 H 0.9026 0.1213 0.6817
C56_3 C 0.67556(11) 0.06305(13) 0.52947(12)
C57_3 C 0.68695(13) 0.42556(11) 0.72053(12)
C58_3 C 0.81305(13) 0.42556(11) 0.27947(12)
C61_3 C 0.64449(12) 0.05300(14) 0.55047(15)
C62_3 C 0.69700(14) 0.39449(12) 0.69953(15)
C63_3 C 0.80300(14) 0.39449(12) 0.30047(15)
O58_2 O 0.49138(13) 0.0000 0.2500
C66_3 C 0.45271(14) 0.02314(13) 0.68039(14)
C67_3 C 0.72686(13) 0.20271(14) 0.56961(14)
C68_3 C 0.77314(13) 0.20271(14) 0.43039(14)
C71_3 C 0.64293(18) 0.02112(18) 0.5666(2)
C72_3 C 0.72888(18) 0.39293(18) 0.6834(2)
C73_3 C 0.77112(18) 0.39293(18) 0.3166(2)
H39_3 H 0.6608 0.0053 0.5642
H40_3 H 0.7447 0.4108 0.6858
H41_3 H 0.7553 0.4108 0.3142
C76_3 C 0.4999(2) 0.0034(2) 0.6440(2)
C77_3 C 0.7466(2) 0.2499(2) 0.6060(2)
C78_3 C 0.7534(2) 0.2499(2) 0.3940(2)
H45_3 H 0.7647 0.2626 0.6155
H46_3 H 0.7353 0.2626 0.3845
C81_3 C 0.5095(2) 0.03580(19) 0.6377(2)
C82_3 C 0.71420(19) 0.2595(2) 0.6123(2)
C83_3 C 0.78580(19) 0.2595(2) 0.3877(2)
C86_3 C 0.6184(2) 0.07483(19) 0.5554(2)
C87_3 C 0.67517(19) 0.3684(2) 0.6946(2)
C88_3 C 0.82483(19) 0.3684(2) 0.3054(2)
H49_3 H 0.6195 0.0970 0.5461
H50_3 H 0.6530 0.3695 0.7039
H51_3 H 0.8470 0.3695 0.2961
C91_3 C 0.46362(17) 0.05720(18) 0.6747(2)
C92_3 C 0.69280(18) 0.21362(17) 0.5753(2)
C93_3 C 0.80720(18) 0.21362(17) 0.4247(2)
H54_3 H 0.4518 0.0755 0.6849
H55_3 H 0.6745 0.2018 0.5651
H56_3 H 0.8255 0.2018 0.4349
N17_3 N 0.55913(18) 0.02220(17) 0.6111(2)
N18_3 N 0.72780(17) 0.30913(18) 0.6389(2)
N19_3 N 0.77220(17) 0.30913(18) 0.3611(2)
C96_3 C 0.49220(18) 0.0637(2) 0.6536(2)
C97_3 C 0.6863(2) 0.24220(18) 0.5964(2)
C98_3 C 0.8137(2) 0.24220(18) 0.4036(2)
H59_3 H 0.4998 0.0863 0.6500
H60_3 H 0.6637 0.2498 0.6000
H61_3 H 0.8363 0.2498 0.4000
C101_3 C 0.58835(18) 0.03352(19) 0.5906(2)
C102_3 C 0.71648(19) 0.33835(18) 0.6594(2)
C103_3 C 0.78352(19) 0.33835(18) 0.3406(2)
C107_3 C 0.75407(18) 0.22074(17) 0.5853(2)
C108_3 C 0.74593(18) 0.22074(17) 0.4147(2)
H65_3 H 0.7768 0.2136 0.5822
H66_3 H 0.7232 0.2136 0.4178
N22_3 N 0.53983(18) 0.04671(17) 0.6195(2)
N23_3 N 0.70329(17) 0.28983(18) 0.6305(2)
N24_3 N 0.79671(17) 0.28983(18) 0.3695(2)
C111_3 C 0.6136(2) 0.0132(2) 0.5867(3)
C112_3 C 0.7368(2) 0.3636(2) 0.6633(3)
C113_3 C 0.7632(2) 0.3636(2) 0.3367(3)
H70_3 H 0.7582 0.3627 0.6524
H71_3 H 0.7418 0.3627 0.3476
C116_3 C 0.58913(19) 0.0647(2) 0.5745(3)
C117_3 C 0.6853(2) 0.33913(19) 0.6755(3)
C118_3 C 0.8147(2) 0.33913(19) 0.3245(3)
H74_3 H 0.5702 0.0794 0.5761
H75_3 H 0.6706 0.3202 0.6739
H76_3 H 0.8294 0.3202 0.3261
H81 H 0.48283 0.0212322 0.238422
H1_3 H 0.6593 0.9835 0.3586
N2_3 N 0.69288(13) 0.98902(16) 0.41426(11)
H3_3 H 0.7033 0.9934 0.4334
H4_3 H 0.6889 0.9680 0.4083
O8_4 O 0.7500 0.99138(13) 0.5000
H7_3 H 0.9874 0.9853 0.3655
H12_3 H 0.8873 0.9918 0.4024
In3_3 In 0.544897(8) 1.0000 0.2500
In4_3 In 0.955103(8) 1.0000 0.7500
In9_5 In 1.0000 0.7500 0.294897(8)
In21_2 In 0.625126(6) 0.986040(6) 0.207197(5)
In23_3 In 0.542803(5) 0.736040(6) 0.624874(6)
In25_2 In 0.874874(6) 0.986040(6) 0.792803(5)
O9_3 O 0.59786(8) 1.0000 0.2500
O10_3 O 0.90214(8) 1.0000 0.7500
O12_3 O 0.34786(8) 1.0000 0.7500
O18_2 O 0.54188(8) 0.95145(8) 0.22037(8)
O19_2 O 0.95812(8) 0.95145(8) 0.77963(8)
O23_3 O 0.95154(8) 0.77924(8) 0.29255(8)
O24_2 O 0.54255(8) 0.97076(8) 0.29846(8)
O27_2 O 0.95745(8) 0.97076(8) 0.70154(8)
O31_3 O 0.66013(8) 0.96951(9) 0.29062(9)
O32_3 O 0.54062(9) 0.78049(9) 0.58987(8)
O33_3 O 0.83987(8) 0.96951(9) 0.70938(9)
O34_2 O 0.41354(8) 0.98497(8) 0.70621(9)
O37_2 O 0.66354(8) 0.95621(9) 0.23497(8)
O38_3 O 0.48497(8) 0.79379(9) 0.58646(8)
O53_3 O 0.92250(7) 0.76338(9) 0.34141(9)
O54_3 O 0.59141(9) 0.98662(9) 0.32750(7)
O55_3 O 0.90859(9) 0.98662(9) 0.67250(7)
C29_3 C 0.67342(11) 0.95397(11) 0.26545(10)
C30_3 C 0.51545(10) 0.79603(11) 0.57658(11)
H14_3 H 0.8407 0.9835 0.6414
N12_3 N 0.80712(13) 0.98902(16) 0.58574(11)
H24_3 H 0.7967 0.9934 0.5666
H29_3 H 0.8111 0.9680 0.5917
C59_3 C 0.92556(11) 0.77947(12) 0.31305(13)
C60_3 C 0.56305(13) 0.97053(12) 0.32444(11)
C64_3 C 0.89449(12) 0.80047(15) 0.30300(14)
C65_3 C 0.55300(14) 0.94953(15) 0.35551(12)
O58_3 O 0.49138(13) 1.0000 0.2500
C69_3 C 0.70271(14) 0.93039(14) 0.27314(13)
C70_3 C 0.52314(13) 0.81961(14) 0.54729(14)
C74_3 C 0.89293(18) 0.8166(2) 0.27112(18)
C75_3 C 0.52112(18) 0.9334(2) 0.35707(18)
H42_3 H 0.9108 0.8142 0.2553
H43_3 H 0.5053 0.9358 0.3392
C79_3 C 0.7499(2) 0.8940(2) 0.2534(2)
C80_3 C 0.5034(2) 0.8560(2) 0.5001(2)
H44_3 H 0.5126 0.9853 0.6345
H47_3 H 0.7626 0.8845 0.2353
H48_3 H 0.4853 0.8655 0.4874
C84_3 C 0.7595(2) 0.8877(2) 0.28580(19)
C85_3 C 0.53580(19) 0.8623(2) 0.4905(2)
C89_3 C 0.8684(2) 0.8054(2) 0.32483(19)
C90_3 C 0.57483(19) 0.9446(2) 0.3816(2)
H52_3 H 0.8695 0.7961 0.3470
H53_3 H 0.5970 0.9539 0.3805
C94_3 C 0.71362(17) 0.9247(2) 0.30720(18)
C95_3 C 0.55720(18) 0.8253(2) 0.53638(17)
H57_3 H 0.7018 0.9349 0.3255
H58_3 H 0.5755 0.8151 0.5482
N20_3 N 0.80913(18) 0.8611(2) 0.27220(17)
N21_3 N 0.52220(17) 0.8889(2) 0.44087(18)
C99_3 C 0.74220(18) 0.9036(2) 0.3137(2)
C100_3 C 0.5637(2) 0.8464(2) 0.50780(18)
H62_3 H 0.7498 0.9000 0.3363
H63_3 H 0.5863 0.8500 0.5002
C104_3 C 0.83835(18) 0.8406(2) 0.28352(19)
C105_3 C 0.53352(19) 0.9094(2) 0.41165(18)
C106_3 C 0.47074(17) 0.99593(18) 0.6647(2)
C109_3 C 0.72074(17) 0.9147(2) 0.24593(18)
C110_3 C 0.49593(18) 0.8353(2) 0.52926(17)
H64_3 H 0.4636 0.9732 0.6678
H67_3 H 0.7136 0.9178 0.2232
H68_3 H 0.4732 0.8322 0.5364
N25_3 N 0.78983(18) 0.8695(2) 0.29671(17)
N26_3 N 0.54671(17) 0.8805(2) 0.46017(18)
C114_3 C 0.8636(2) 0.8367(3) 0.2632(2)
C115_3 C 0.5132(2) 0.9133(3) 0.3864(2)
H69_3 H 0.6127 0.9918 0.5976
H72_3 H 0.8627 0.8476 0.2418
H73_3 H 0.4918 0.9024 0.3873
C119_3 C 0.83913(19) 0.8245(3) 0.3147(2)
C120_3 C 0.5647(2) 0.9255(3) 0.41087(19)
H77_3 H 0.8202 0.8261 0.3294
H78_3 H 0.5794 0.9239 0.4298
H82 H 0.48283 0.979357 0.237401
O38_4 O 0.01503(8) 0.20621(9) 0.08646(8)
C106_4 C 0.02926(17) 0.00407(18) 0.1647(2)
C110_4 C 0.00407(18) 0.1647(2) 0.02926(17)
H64_4 H 0.0364 0.0268 0.1678
H68_4 H 0.0268 0.1678 0.0364
H48_4 H 0.0147 0.1345 0.9874
H73_4 H 0.0082 0.0976 0.8873
H82_2 H 0.0171703 0.0206432 0.737401
O28_4 O 0.08987(8) 0.95938(9) 0.21951(9)
O49_4 O 0.15455(7) 0.95056(8) 0.31123(7)
N11_4 N 0.09593(8) 0.91012(8) 0.27969(8)
C26_4 C 0.07658(11) 0.98455(10) 0.20397(11)
C66_4 C 0.04729(14) 0.97686(13) 0.18039(14)
C76_4 C 0.0001(2) 0.9966(2) 0.1440(2)
C91_4 C 0.03638(17) 0.94280(18) 0.1747(2)
H54_4 H 0.0482 0.9245 0.1849
C96_4 C 0.00780(18) 0.9363(2) 0.1536(2)
H59_4 H 0.0002 0.9137 0.1500
H17_4 H 0.0165 0.8586 0.8407
N15_4 N 0.01098(16) 0.91426(11) 0.80712(13)
H27_4 H 0.0066 0.9334 0.7967
H32_4 H 0.0320 0.9083 0.8111
H81_2 H 0.0171703 0.978768 0.738422
O8_5 O 0.7500 0.00862(13) 0.0000
In23_4 In 0.957197(5) 0.263960(6) 0.124874(6)
O32_4 O 0.95938(9) 0.21951(9) 0.08987(8)
O33_4 O 0.66013(8) 0.03049(9) 0.20938(9)
O55_4 O 0.59141(9) 0.01338(9) 0.17250(7)
C30_4 C 0.98455(10) 0.20397(11) 0.07658(11)
H14_4 H 0.6593 0.0165 0.1414
N12_4 N 0.69288(13) 0.01098(16) 0.08574(11)
H24_4 H 0.7033 0.0066 0.0666
H29_4 H 0.6889 0.0320 0.0917
C70_4 C 0.97686(13) 0.18039(14) 0.04729(14)
C80_4 C 0.9966(2) 0.1440(2) 0.0001(2)
H44_4 H 0.9874 0.0147 0.1345
C95_4 C 0.94280(18) 0.1747(2) 0.03638(17)
H58_4 H 0.9245 0.1849 0.0482
C100_4 C 0.9363(2) 0.1536(2) 0.00780(18)
H63_4 H 0.9137 0.1500 0.0002
H69_4 H 0.8873 0.0082 0.0976
H80_2 H 0.737401 0.0171703 0.0206432
H84_2 H 0.48283 0.0206432 0.262599
H1_4 H 0.8407 0.0165 0.8586
N2_4 N 0.80712(13) 0.01098(16) 0.91426(11)
H3_4 H 0.7967 0.0066 0.9334
H4_4 H 0.8111 0.0320 0.9083
O8_6 O 0.7500 0.00862(13) 1.0000
H7_4 H 0.5126 0.0147 0.8655
C18_4 C 0.47074(17) 0.00407(18) 0.8353(2)
H11_4 H 0.4636 0.0268 0.8322
H12_4 H 0.6127 0.0082 0.9024
In9_6 In 0.5000 0.2500 0.794897(8)
O23_4 O 0.54846(8) 0.22076(8) 0.79255(8)
O31_4 O 0.83987(8) 0.03049(9) 0.79062(9)
O53_4 O 0.57750(7) 0.23662(9) 0.84141(9)
O54_4 O 0.90859(9) 0.01338(9) 0.82750(7)
C29_4 C 0.82658(11) 0.04603(11) 0.76545(10)
C59_4 C 0.57444(11) 0.22053(12) 0.81305(13)
C60_4 C 0.93695(13) 0.02947(12) 0.82444(11)
C64_4 C 0.60551(12) 0.19953(15) 0.80300(14)
C65_4 C 0.94700(14) 0.05047(15) 0.85551(12)
C69_4 C 0.79729(14) 0.06961(14) 0.77314(13)
C74_4 C 0.60707(18) 0.1834(2) 0.77112(18)
C75_4 C 0.97888(18) 0.0666(2) 0.85707(18)
H42_4 H 0.5892 0.1858 0.7553
H43_4 H 0.9947 0.0642 0.8392
C79_4 C 0.7501(2) 0.1060(2) 0.7534(2)
H47_4 H 0.7374 0.1155 0.7353
C84_4 C 0.7405(2) 0.1123(2) 0.78580(19)
C85_4 C 0.96420(19) 0.1377(2) 0.9905(2)
C89_4 C 0.6316(2) 0.1946(2) 0.82483(19)
C90_4 C 0.92517(19) 0.0554(2) 0.8816(2)
H52_4 H 0.6305 0.2039 0.8470
H53_4 H 0.9030 0.0461 0.8805
C94_4 C 0.78638(17) 0.0753(2) 0.80720(18)
H57_4 H 0.7982 0.0651 0.8255
N20_4 N 0.69087(18) 0.1389(2) 0.77220(17)
N21_4 N 0.97780(17) 0.1111(2) 0.94087(18)
C99_4 C 0.75780(18) 0.0964(2) 0.8137(2)
H62_4 H 0.7502 0.1000 0.8363
C104_4 C 0.66165(18) 0.1594(2) 0.78352(19)
C105_4 C 0.96648(19) 0.0906(2) 0.91165(18)
C109_4 C 0.77926(17) 0.0853(2) 0.74593(18)
H67_4 H 0.7864 0.0822 0.7232
N25_4 N 0.71017(18) 0.1305(2) 0.79671(17)
N26_4 N 0.95329(17) 0.1195(2) 0.96017(18)
C114_4 C 0.6364(2) 0.1633(3) 0.7632(2)
C115_4 C 0.9868(2) 0.0867(3) 0.8864(2)
H72_4 H 0.6373 0.1524 0.7418
C119_4 C 0.66087(19) 0.1755(3) 0.8147(2)
C120_4 C 0.9353(2) 0.0745(3) 0.91087(19)
H77_4 H 0.6798 0.1739 0.8294
H78_4 H 0.9206 0.0761 0.9298
H79_2 H 0.738422 0.0171703 0.978768
In1_5 In 0.7500 0.955103(8) 0.0000
O1_5 O 0.7500 0.90214(8) 0.0000
In10_4 In 0.707197(5) 0.874874(6) 0.013960(6)
In20_4 In 0.513960(6) 0.792803(5) 0.125126(6)
O13_4 O 0.72037(8) 0.95812(8) 0.04855(8)
O15_4 O 0.54855(8) 0.77963(8) 0.04188(8)
O20_4 O 0.79846(8) 0.95745(8) 0.02924(8)
O21_4 O 0.79255(8) 0.54846(8) 0.22076(8)
O29_4 O 0.79062(9) 0.83987(8) 0.03049(9)
O35_4 O 0.73497(8) 0.83646(8) 0.04379(9)
O43_4 O 0.70056(8) 0.90455(7) 0.06123(7)
O45_4 O 0.56123(7) 0.79944(8) 0.09545(7)
O47_4 O 0.59545(7) 0.93877(7) 0.20056(8)
O50_4 O 0.82750(7) 0.90859(9) 0.01338(9)
N5_4 N 0.65407(8) 0.97031(8) 0.16012(8)
N7_4 N 0.66012(8) 0.84593(8) 0.02969(8)
N9_4 N 0.52969(8) 0.83988(8) 0.15407(8)
C21_4 C 0.68743(10) 0.94924(10) 0.10001(10)
C23_4 C 0.60001(10) 0.81257(10) 0.05076(10)
C25_4 C 0.55076(10) 0.89999(10) 0.18743(10)
C27_4 C 0.76545(10) 0.82658(11) 0.04603(11)
C31_4 C 0.66432(10) 0.99343(12) 0.13722(11)
C33_4 C 0.63722(11) 0.83568(10) 0.00657(12)
C35_4 C 0.50657(12) 0.86278(11) 0.16432(10)
H15_4 H 0.8586 0.8407 0.0165
H18_4 H 0.4835 0.8586 0.1593
C36_4 C 0.68270(11) 0.98488(12) 0.10638(11)
C38_4 C 0.60638(11) 0.81730(11) 0.01512(12)
C40_4 C 0.51512(12) 0.89362(11) 0.18270(11)
C41_4 C 0.66016(11) 0.93645(12) 0.15387(10)
C43_4 C 0.65387(10) 0.83984(11) 0.06355(12)
C45_4 C 0.56355(12) 0.84613(10) 0.16016(11)
H19_4 H 0.6527 0.9200 0.1697
H21_4 H 0.6697 0.8473 0.0800
H23_4 H 0.5800 0.8303 0.1527
C46_4 C 0.70414(10) 0.93638(10) 0.06754(10)
C48_4 C 0.56754(10) 0.79586(10) 0.06362(10)
C50_4 C 0.56362(10) 0.93246(10) 0.20414(10)
N13_4 N 0.91426(11) 0.80712(13) 0.01098(16)
N16_4 N 0.48902(16) 0.91426(11) 0.19288(13)
H25_4 H 0.9334 0.7967 0.0066
H28_4 H 0.4934 0.9334 0.2033
H30_4 H 0.9083 0.8111 0.0320
H33_4 H 0.4680 0.9083 0.1889
C51_4 C 0.67711(11) 0.92597(12) 0.12456(11)
C53_4 C 0.62456(11) 0.82289(11) 0.07403(12)
C55_4 C 0.57403(12) 0.87544(11) 0.17711(11)
H34_4 H 0.6817 0.9026 0.1213
H36_4 H 0.6213 0.8183 0.0974
H38_4 H 0.5974 0.8787 0.1817
C56_4 C 0.82444(11) 0.93695(13) 0.02947(12)
C57_4 C 0.81305(13) 0.57444(11) 0.22053(12)
C61_4 C 0.85551(12) 0.94700(14) 0.05047(15)
C62_4 C 0.80300(14) 0.60551(12) 0.19953(15)
C67_4 C 0.77314(13) 0.79729(14) 0.06961(14)
C71_4 C 0.85707(18) 0.97888(18) 0.0666(2)
C72_4 C 0.77112(18) 0.60707(18) 0.1834(2)
H39_4 H 0.8392 0.9947 0.0642
H40_4 H 0.7553 0.5892 0.1858
C77_4 C 0.7534(2) 0.7501(2) 0.1060(2)
H45_4 H 0.7353 0.7374 0.1155
C81_4 C 0.9905(2) 0.96420(19) 0.1377(2)
C82_4 C 0.78580(19) 0.7405(2) 0.1123(2)
C86_4 C 0.8816(2) 0.92517(19) 0.0554(2)
C87_4 C 0.82483(19) 0.6316(2) 0.1946(2)
H49_4 H 0.8805 0.9030 0.0461
H50_4 H 0.8470 0.6305 0.2039
C92_4 C 0.80720(18) 0.78638(17) 0.0753(2)
H55_4 H 0.8255 0.7982 0.0651
N17_4 N 0.94087(18) 0.97780(17) 0.1111(2)
N18_4 N 0.77220(17) 0.69087(18) 0.1389(2)
C97_4 C 0.8137(2) 0.75780(18) 0.0964(2)
H60_4 H 0.8363 0.7502 0.1000
C101_4 C 0.91165(18) 0.96648(19) 0.0906(2)
C102_4 C 0.78352(19) 0.66165(18) 0.1594(2)
C107_4 C 0.74593(18) 0.77926(17) 0.0853(2)
H65_4 H 0.7232 0.7864 0.0822
N22_4 N 0.96017(18) 0.95329(17) 0.1195(2)
N23_4 N 0.79671(17) 0.71017(18) 0.1305(2)
C111_4 C 0.8864(2) 0.9868(2) 0.0867(3)
C112_4 C 0.7632(2) 0.6364(2) 0.1633(3)
H70_4 H 0.7418 0.6373 0.1524
C116_4 C 0.91087(19) 0.9353(2) 0.0745(3)
C117_4 C 0.8147(2) 0.66087(19) 0.1755(3)
H74_4 H 0.9298 0.9206 0.0761
H75_4 H 0.8294 0.6798 0.1739
H83_2 H 0.48283 0.978768 0.261578
In1_6 In 0.7500 0.955103(8) 1.0000
In2_4 In 0.792803(5) 0.874874(6) 0.986040(6)
O1_6 O 0.7500 0.90214(8) 1.0000
O2_4 O 0.77963(8) 0.95812(8) 0.95145(8)
O3_4 O 0.70154(8) 0.95745(8) 0.97076(8)
O4_4 O 0.41013(8) 0.95938(9) 0.78049(9)
O6_4 O 0.79944(8) 0.90455(7) 0.93877(7)
O7_4 O 0.67250(7) 0.90859(9) 0.98662(9)
N1_4 N 0.84593(8) 0.97031(8) 0.83988(8)
C1_4 C 0.81257(10) 0.94924(10) 0.89999(10)
C2_4 C 0.42342(11) 0.98455(10) 0.79603(11)
C3_4 C 0.83568(10) 0.99343(12) 0.86278(11)
C4_4 C 0.81730(11) 0.98488(12) 0.89362(11)
C5_4 C 0.83984(11) 0.93645(12) 0.84613(10)
H2_4 H 0.8473 0.9200 0.8303
C6_4 C 0.79586(10) 0.93638(10) 0.93246(10)
C7_4 C 0.82289(11) 0.92597(12) 0.87544(11)
H5_4 H 0.8183 0.9026 0.8787
C8_4 C 0.67556(11) 0.93695(13) 0.97053(12)
C9_4 C 0.64449(12) 0.94700(14) 0.94953(15)
C10_4 C 0.45271(14) 0.97686(13) 0.81961(14)
C11_4 C 0.64293(18) 0.97888(18) 0.9334(2)
H6_4 H 0.6608 0.9947 0.9358
C12_4 C 0.4999(2) 0.9966(2) 0.8560(2)
C13_4 C 0.5095(2) 0.96420(19) 0.8623(2)
C14_4 C 0.6184(2) 0.92517(19) 0.9446(2)
H8_4 H 0.6195 0.9030 0.9539
C15_4 C 0.46362(17) 0.94280(18) 0.8253(2)
H9_4 H 0.4518 0.9245 0.8151
N3_4 N 0.55913(18) 0.97780(17) 0.8889(2)
C16_4 C 0.49220(18) 0.9363(2) 0.8464(2)
H10_4 H 0.4998 0.9137 0.8500
C17_4 C 0.58835(18) 0.96648(19) 0.9094(2)
N4_4 N 0.53983(18) 0.95329(17) 0.8805(2)
C19_4 C 0.6136(2) 0.9868(2) 0.9133(3)
C20_4 C 0.58913(19) 0.9353(2) 0.9255(3)
H13_4 H 0.5702 0.9206 0.9239
In17_4 In 0.986040(6) 0.792803(5) 0.874874(6)
O14_4 O 0.95145(8) 0.77963(8) 0.95812(8)
O22_4 O 0.70745(8) 0.54846(8) 0.77924(8)
O30_4 O 0.70938(9) 0.83987(8) 0.96951(9)
O36_4 O 0.76503(8) 0.83646(8) 0.95621(9)
O39_4 O 0.83646(8) 0.95621(9) 0.76503(8)
O44_4 O 0.93877(7) 0.79944(8) 0.90455(7)
O46_4 O 0.90455(7) 0.93877(7) 0.79944(8)
O48_4 O 0.34545(7) 0.95056(8) 0.68877(7)
N6_4 N 0.83988(8) 0.84593(8) 0.97031(8)
N8_4 N 0.97031(8) 0.83988(8) 0.84593(8)
N10_4 N 0.40407(8) 0.91012(8) 0.72031(8)
C22_4 C 0.89999(10) 0.81257(10) 0.94924(10)
C24_4 C 0.94924(10) 0.89999(10) 0.81257(10)
C28_4 C 0.73455(10) 0.82658(11) 0.95397(11)
C32_4 C 0.86278(11) 0.83568(10) 0.99343(12)
C34_4 C 0.99343(12) 0.86278(11) 0.83568(10)
H16_4 H 0.6414 0.8407 0.9835
C37_4 C 0.89362(11) 0.81730(11) 0.98488(12)
C39_4 C 0.98488(12) 0.89362(11) 0.81730(11)
C42_4 C 0.84613(10) 0.83984(11) 0.93645(12)
C44_4 C 0.93645(12) 0.84613(10) 0.83984(11)
H20_4 H 0.8303 0.8473 0.9200
H22_4 H 0.9200 0.8303 0.8473
C47_4 C 0.93246(10) 0.79586(10) 0.93638(10)
C49_4 C 0.93638(10) 0.93246(10) 0.79586(10)
N14_4 N 0.58574(11) 0.80712(13) 0.98902(16)
H26_4 H 0.5666 0.7967 0.9934
H31_4 H 0.5917 0.8111 0.9680
C52_4 C 0.87544(11) 0.82289(11) 0.92597(12)
C54_4 C 0.92597(12) 0.87544(11) 0.82289(11)
H35_4 H 0.8787 0.8183 0.9026
H37_4 H 0.9026 0.8787 0.8183
C58_4 C 0.68695(13) 0.57444(11) 0.77947(12)
C63_4 C 0.69700(14) 0.60551(12) 0.80047(15)
C68_4 C 0.72686(13) 0.79729(14) 0.93039(14)
C73_4 C 0.72888(18) 0.60707(18) 0.8166(2)
H41_4 H 0.7447 0.5892 0.8142
C78_4 C 0.7466(2) 0.7501(2) 0.8940(2)
H46_4 H 0.7647 0.7374 0.8845
C83_4 C 0.71420(19) 0.7405(2) 0.8877(2)
C88_4 C 0.67517(19) 0.6316(2) 0.8054(2)
H51_4 H 0.6530 0.6305 0.7961
C93_4 C 0.69280(18) 0.78638(17) 0.9247(2)
H56_4 H 0.6745 0.7982 0.9349
N19_4 N 0.72780(17) 0.69087(18) 0.8611(2)
C98_4 C 0.6863(2) 0.75780(18) 0.9036(2)
H61_4 H 0.6637 0.7502 0.9000
C103_4 C 0.71648(19) 0.66165(18) 0.8406(2)
C108_4 C 0.75407(18) 0.77926(17) 0.9147(2)
H66_4 H 0.7768 0.7864 0.9178
N24_4 N 0.70329(17) 0.71017(18) 0.8695(2)
C113_4 C 0.7368(2) 0.6364(2) 0.8367(3)
H71_4 H 0.7582 0.6373 0.8476
C118_4 C 0.6853(2) 0.66087(19) 0.8245(3)
H76_4 H 0.6706 0.6798 0.8261
In7_4 In 0.2500 0.205103(8) 0.0000
O1_7 O -0.0000 0.2500 0.59786(8)
O3_5 O 0.02924(8) 0.20154(8) 0.54255(8)
O7_5 O 0.01338(9) 0.17250(7) 0.59141(9)
C8_5 C 0.02947(12) 0.17556(11) 0.56305(13)
C9_5 C 0.05047(15) 0.14449(12) 0.55300(14)
O8_7 O -0.0000 0.2500 0.49138(13)
C11_5 C 0.0666(2) 0.14293(18) 0.52112(18)
H6_5 H 0.0642 0.1608 0.5053
H7_5 H 0.1345 0.0126 0.4853
C13_5 C 0.1377(2) 0.0095(2) 0.53580(19)
C14_5 C 0.0554(2) 0.1184(2) 0.57483(19)
H8_5 H 0.0461 0.1195 0.5970
N3_5 N 0.1111(2) 0.05913(18) 0.52220(17)
C17_5 C 0.0906(2) 0.08835(18) 0.53352(19)
N4_5 N 0.1195(2) 0.03983(18) 0.54671(17)
C19_5 C 0.0867(3) 0.1136(2) 0.5132(2)
H12_5 H 0.0976 0.1127 0.4918
C20_5 C 0.0745(3) 0.08913(19) 0.5647(2)
H13_5 H 0.0761 0.0702 0.5794
In7_5 In 0.2500 0.205103(8) 1.0000
In19_3 In 0.263960(6) 0.124874(6) 0.957197(5)
O22_5 O 0.22076(8) 0.20745(8) 0.95154(8)
O30_5 O 0.03049(9) 0.20938(9) 0.66013(8)
O36_5 O 0.04379(9) 0.26503(8) 0.66354(8)
O52_3 O 0.23662(9) 0.15859(9) 0.92250(7)
C28_5 C 0.04603(11) 0.23455(10) 0.67342(11)
C58_5 C 0.22053(12) 0.18695(13) 0.92556(11)
C63_5 C 0.19953(15) 0.19700(14) 0.89449(12)
C68_5 C 0.06961(14) 0.22686(13) 0.70271(14)
C73_5 C 0.1834(2) 0.22888(18) 0.89293(18)
H41_5 H 0.1858 0.2447 0.9108
C78_5 C 0.1060(2) 0.2466(2) 0.7499(2)
H46_5 H 0.1155 0.2647 0.7626
C83_5 C 0.1123(2) 0.21420(19) 0.7595(2)
C88_5 C 0.1946(2) 0.17517(19) 0.8684(2)
H51_5 H 0.2039 0.1530 0.8695
C93_5 C 0.0753(2) 0.19280(18) 0.71362(17)
H56_5 H 0.0651 0.1745 0.7018
N19_5 N 0.1389(2) 0.22780(17) 0.80913(18)
C98_5 C 0.0964(2) 0.1863(2) 0.74220(18)
H61_5 H 0.1000 0.1637 0.7498
C103_5 C 0.1594(2) 0.21648(19) 0.83835(18)
C108_5 C 0.0853(2) 0.25407(18) 0.72074(17)
H66_5 H 0.0822 0.2768 0.7136
N24_5 N 0.1305(2) 0.20329(17) 0.78983(18)
C113_5 C 0.1633(3) 0.2368(2) 0.8636(2)
H71_5 H 0.1524 0.2582 0.8627
C118_5 C 0.1755(3) 0.1853(2) 0.83913(19)
H76_5 H 0.1739 0.1706 0.8202
H79_3 H 0.0212322 0.238422 0.48283
O4_5 O 0.21951(9) 0.91013(8) 0.54062(9)
O5_3 O 0.20621(9) 0.91354(8) 0.48497(8)
C2_5 C 0.20397(11) 0.92342(11) 0.51545(10)
C10_5 C 0.18039(14) 0.95271(14) 0.52314(13)
C12_5 C 0.1440(2) 0.9999(2) 0.5034(2)
C15_5 C 0.1747(2) 0.96362(17) 0.55720(18)
H9_5 H 0.1849 0.9518 0.5755
C16_5 C 0.1536(2) 0.99220(18) 0.5637(2)
H10_5 H 0.1500 0.9998 0.5863
C18_5 C 0.1647(2) 0.97074(17) 0.49593(18)
H11_5 H 0.1678 0.9636 0.4732
In13_2 In 0.263960(6) 0.875126(6) 0.542803(5)
In15_2 In 0.236040(6) 0.875126(6) 0.457197(5)
O11_4 O 0.2500 0.84786(8) 0.5000
O41_3 O 0.29379(9) 0.91354(8) 0.51503(8)
O48_5 O 0.31123(7) 0.84545(7) 0.54944(8)
O56_3 O 0.23662(9) 0.84141(9) 0.57750(7)
N10_5 N 0.27969(8) 0.90407(8) 0.58988(8)
In6_4 In 0.7500 0.294897(8) 0.0000
O1_8 O 1.0000 0.2500 0.59786(8)
O8_8 O 1.0000 0.2500 0.49138(13)
In6_5 In 0.7500 0.294897(8) 1.0000
In14_2 In 0.736040(6) 0.624874(6) 0.542803(5)
In16_2 In 0.763960(6) 0.624874(6) 0.457197(5)
In18_3 In 0.736040(6) 0.375126(6) 0.957197(5)
O12_4 O 0.7500 0.65214(8) 0.5000
O20_5 O 0.97076(8) 0.29846(8) 0.54255(8)
O21_5 O 0.77924(8) 0.29255(8) 0.95154(8)
O28_5 O 0.78049(9) 0.58987(8) 0.54062(9)
O29_5 O 0.96951(9) 0.29062(9) 0.66013(8)
O34_3 O 0.79379(9) 0.58646(8) 0.48497(8)
O35_5 O 0.95621(9) 0.23497(8) 0.66354(8)
O42_3 O 0.70621(9) 0.58646(8) 0.51503(8)
O49_5 O 0.68877(7) 0.65455(7) 0.54944(8)
O50_5 O 0.98662(9) 0.32750(7) 0.59141(9)
O51_3 O 0.76338(9) 0.34141(9) 0.92250(7)
O57_3 O 0.76338(9) 0.65859(9) 0.57750(7)
N11_5 N 0.72031(8) 0.59593(8) 0.58988(8)
C26_5 C 0.79603(11) 0.57658(11) 0.51545(10)
C27_5 C 0.95397(11) 0.26545(10) 0.67342(11)
C56_5 C 0.97053(12) 0.32444(11) 0.56305(13)
C57_5 C 0.77947(12) 0.31305(13) 0.92556(11)
C61_5 C 0.94953(15) 0.35551(12) 0.55300(14)
C62_5 C 0.80047(15) 0.30300(14) 0.89449(12)
C66_5 C 0.81961(14) 0.54729(14) 0.52314(13)
C67_5 C 0.93039(14) 0.27314(13) 0.70271(14)
C71_5 C 0.9334(2) 0.35707(18) 0.52112(18)
C72_5 C 0.8166(2) 0.27112(18) 0.89293(18)
H39_5 H 0.9358 0.3392 0.5053
H40_5 H 0.8142 0.2553 0.9108
C76_5 C 0.8560(2) 0.5001(2) 0.5034(2)
C77_5 C 0.8940(2) 0.2534(2) 0.7499(2)
H44_5 H 0.8655 0.4874 0.4853
H45_5 H 0.8845 0.2353 0.7626
C81_5 C 0.8623(2) 0.4905(2) 0.53580(19)
C82_5 C 0.8877(2) 0.28580(19) 0.7595(2)
C86_5 C 0.9446(2) 0.3816(2) 0.57483(19)
C87_5 C 0.8054(2) 0.32483(19) 0.8684(2)
H49_5 H 0.9539 0.3805 0.5970
H50_5 H 0.7961 0.3470 0.8695
C91_5 C 0.8253(2) 0.53638(17) 0.55720(18)
C92_5 C 0.9247(2) 0.30720(18) 0.71362(17)
H54_5 H 0.8151 0.5482 0.5755
H55_5 H 0.9349 0.3255 0.7018
N17_5 N 0.8889(2) 0.44087(18) 0.52220(17)
N18_5 N 0.8611(2) 0.27220(17) 0.80913(18)
C96_5 C 0.8464(2) 0.50780(18) 0.5637(2)
C97_5 C 0.9036(2) 0.3137(2) 0.74220(18)
H59_5 H 0.8500 0.5002 0.5863
H60_5 H 0.9000 0.3363 0.7498
C101_5 C 0.9094(2) 0.41165(18) 0.53352(19)
C102_5 C 0.8406(2) 0.28352(19) 0.83835(18)
C106_5 C 0.8353(2) 0.52926(17) 0.49593(18)
C107_5 C 0.9147(2) 0.24593(18) 0.72074(17)
H64_5 H 0.8322 0.5364 0.4732
H65_5 H 0.9178 0.2232 0.7136
N22_5 N 0.8805(2) 0.46017(18) 0.54671(17)
N23_5 N 0.8695(2) 0.29671(17) 0.78983(18)
C111_5 C 0.9133(3) 0.3864(2) 0.5132(2)
C112_5 C 0.8367(3) 0.2632(2) 0.8636(2)
H69_5 H 0.9024 0.3873 0.4918
H70_5 H 0.8476 0.2418 0.8627
C116_5 C 0.9255(3) 0.41087(19) 0.5647(2)
C117_5 C 0.8245(3) 0.3147(2) 0.83913(19)
H74_5 H 0.9239 0.4298 0.5794
H75_5 H 0.8261 0.3294 0.8202
H80_3 H 0.979357 0.237401 0.48283
O1_9 O 0.5000 0.2500 0.40214(8)
O3_6 O 0.52924(8) 0.29846(8) 0.45745(8)
O4_6 O 0.71951(9) 0.58987(8) 0.45938(9)
O7_6 O 0.51338(9) 0.32750(7) 0.40859(9)
C2_6 C 0.70397(11) 0.57658(11) 0.48455(10)
C8_6 C 0.52947(12) 0.32444(11) 0.43695(13)
C9_6 C 0.55047(15) 0.35551(12) 0.44700(14)
O8_9 O 0.5000 0.2500 0.50862(13)
C10_6 C 0.68039(14) 0.54729(14) 0.47686(13)
C11_6 C 0.5666(2) 0.35707(18) 0.47888(18)
H6_6 H 0.5642 0.3392 0.4947
C12_6 C 0.6440(2) 0.5001(2) 0.4966(2)
H7_6 H 0.6345 0.4874 0.5147
C13_6 C 0.6377(2) 0.4905(2) 0.46420(19)
C14_6 C 0.5554(2) 0.3816(2) 0.42517(19)
H8_6 H 0.5461 0.3805 0.4030
C15_6 C 0.6747(2) 0.53638(17) 0.44280(18)
H9_6 H 0.6849 0.5482 0.4245
N3_6 N 0.6111(2) 0.44087(18) 0.47780(17)
C16_6 C 0.6536(2) 0.50780(18) 0.4363(2)
H10_6 H 0.6500 0.5002 0.4137
C17_6 C 0.5906(2) 0.41165(18) 0.46648(19)
C18_6 C 0.6647(2) 0.52926(17) 0.50407(18)
H11_6 H 0.6678 0.5364 0.5268
N4_6 N 0.6195(2) 0.46017(18) 0.45329(17)
C19_6 C 0.5867(3) 0.3864(2) 0.4868(2)
H12_6 H 0.5976 0.3873 0.5082
C20_6 C 0.5745(3) 0.41087(19) 0.4353(2)
H13_6 H 0.5761 0.4298 0.4206
In18_4 In 0.236040(6) 0.124874(6) 0.042803(5)
In19_4 In 0.763960(6) 0.375126(6) 0.042803(5)
O20_6 O 0.47076(8) 0.20154(8) 0.45745(8)
O21_6 O 0.27924(8) 0.20745(8) 0.04846(8)
O22_6 O 0.72076(8) 0.29255(8) 0.04846(8)
O29_6 O 0.46951(9) 0.20938(9) 0.33987(8)
O30_6 O 0.53049(9) 0.29062(9) 0.33987(8)
O35_6 O 0.45621(9) 0.26503(8) 0.33646(8)
O36_6 O 0.54379(9) 0.23497(8) 0.33646(8)
O48_6 O 0.81123(7) 0.65455(7) 0.45056(8)
O50_6 O 0.48662(9) 0.17250(7) 0.40859(9)
O51_4 O 0.26338(9) 0.15859(9) 0.07750(7)
O52_4 O 0.73662(9) 0.34141(9) 0.07750(7)
O56_4 O 0.73662(9) 0.65859(9) 0.42250(7)
N10_6 N 0.77969(8) 0.59593(8) 0.41012(8)
C27_6 C 0.45397(11) 0.23455(10) 0.32658(11)
C28_6 C 0.54603(11) 0.26545(10) 0.32658(11)
C56_6 C 0.47053(12) 0.17556(11) 0.43695(13)
C57_6 C 0.27947(12) 0.18695(13) 0.07444(11)
C58_6 C 0.72053(12) 0.31305(13) 0.07444(11)
C61_6 C 0.44953(15) 0.14449(12) 0.44700(14)
C62_6 C 0.30047(15) 0.19700(14) 0.10551(12)
C63_6 C 0.69953(15) 0.30300(14) 0.10551(12)
C67_6 C 0.43039(14) 0.22686(13) 0.29729(14)
C68_6 C 0.56961(14) 0.27314(13) 0.29729(14)
C71_6 C 0.4334(2) 0.14293(18) 0.47888(18)
C72_6 C 0.3166(2) 0.22888(18) 0.10707(18)
C73_6 C 0.6834(2) 0.27112(18) 0.10707(18)
H39_6 H 0.4358 0.1608 0.4947
H40_6 H 0.3142 0.2447 0.0892
H41_6 H 0.6858 0.2553 0.0892
C77_6 C 0.3940(2) 0.2466(2) 0.2501(2)
C78_6 C 0.6060(2) 0.2534(2) 0.2501(2)
H44_6 H 0.3655 0.0126 0.5147
H45_6 H 0.3845 0.2647 0.2374
H46_6 H 0.6155 0.2353 0.2374
C81_6 C 0.3623(2) 0.0095(2) 0.46420(19)
C82_6 C 0.3877(2) 0.21420(19) 0.2405(2)
C83_6 C 0.6123(2) 0.28580(19) 0.2405(2)
C86_6 C 0.4446(2) 0.1184(2) 0.42517(19)
C87_6 C 0.3054(2) 0.17517(19) 0.1316(2)
C88_6 C 0.6946(2) 0.32483(19) 0.1316(2)
H49_6 H 0.4539 0.1195 0.4030
H50_6 H 0.2961 0.1530 0.1305
H51_6 H 0.7039 0.3470 0.1305
C92_6 C 0.4247(2) 0.19280(18) 0.28638(17)
C93_6 C 0.5753(2) 0.30720(18) 0.28638(17)
H55_6 H 0.4349 0.1745 0.2982
H56_6 H 0.5651 0.3255 0.2982
N17_6 N 0.3889(2) 0.05913(18) 0.47780(17)
N18_6 N 0.3611(2) 0.22780(17) 0.19087(18)
N19_6 N 0.6389(2) 0.27220(17) 0.19087(18)
C97_6 C 0.4036(2) 0.1863(2) 0.25780(18)
C98_6 C 0.5964(2) 0.3137(2) 0.25780(18)
H60_6 H 0.4000 0.1637 0.2502
H61_6 H 0.6000 0.3363 0.2502
C101_6 C 0.4094(2) 0.08835(18) 0.46648(19)
C102_6 C 0.3406(2) 0.21648(19) 0.16165(18)
C103_6 C 0.6594(2) 0.28352(19) 0.16165(18)
C107_6 C 0.4147(2) 0.25407(18) 0.27926(17)
C108_6 C 0.5853(2) 0.24593(18) 0.27926(17)
H65_6 H 0.4178 0.2768 0.2864
H66_6 H 0.5822 0.2232 0.2864
N22_6 N 0.3805(2) 0.03983(18) 0.45329(17)
N23_6 N 0.3695(2) 0.20329(17) 0.21017(18)
N24_6 N 0.6305(2) 0.29671(17) 0.21017(18)
C111_6 C 0.4133(3) 0.1136(2) 0.4868(2)
C112_6 C 0.3367(3) 0.2368(2) 0.1364(2)
C113_6 C 0.6633(3) 0.2632(2) 0.1364(2)
H69_6 H 0.4024 0.1127 0.5082
H70_6 H 0.3476 0.2582 0.1373
H71_6 H 0.6524 0.2418 0.1373
C116_6 C 0.4255(3) 0.08913(19) 0.4353(2)
C117_6 C 0.3245(3) 0.1853(2) 0.16087(19)
C118_6 C 0.6755(3) 0.3147(2) 0.16087(19)
H74_6 H 0.4239 0.0702 0.4206
H75_6 H 0.3261 0.1706 0.1798
H76_6 H 0.6739 0.3294 0.1798
O28_6 O 0.28049(9) 0.91013(8) 0.45938(9)
O49_6 O 0.18877(7) 0.84545(7) 0.45056(8)
O57_4 O 0.26338(9) 0.84141(9) 0.42250(7)
N11_6 N 0.22031(8) 0.90407(8) 0.41012(8)
C26_6 C 0.29603(11) 0.92342(11) 0.48455(10)
C66_6 C 0.31961(14) 0.95271(14) 0.47686(13)
C76_6 C 0.3560(2) 0.9999(2) 0.4966(2)
C91_6 C 0.3253(2) 0.96362(17) 0.44280(18)
H54_6 H 0.3151 0.9518 0.4245
C96_6 C 0.3464(2) 0.99220(18) 0.4363(2)
H59_6 H 0.3500 0.9998 0.4137
C106_6 C 0.3353(2) 0.97074(17) 0.50407(18)
H64_6 H 0.3322 0.9636 0.5268
O4_7 O 0.28049(9) 0.08987(8) 0.04062(9)
C2_7 C 0.29603(11) 0.07658(11) 0.01545(10)
C10_7 C 0.31961(14) 0.04729(14) 0.02314(13)
C12_7 C 0.3560(2) 0.0001(2) 0.0034(2)
C15_7 C 0.3253(2) 0.03638(17) 0.05720(18)
H9_7 H 0.3151 0.0482 0.0755
C16_7 C 0.3464(2) 0.00780(18) 0.0637(2)
H10_7 H 0.3500 0.0002 0.0863
O11_5 O 0.2500 0.15214(8) 0.0000
O41_4 O 0.20621(9) 0.08646(8) 0.01503(8)
O48_7 O 0.18877(7) 0.15455(7) 0.04944(8)
N10_7 N 0.22031(8) 0.09593(8) 0.08988(8)
H83_3 H 0.761578 0.0171703 0.0212322
O5_4 O 0.29379(9) 0.08646(8) 0.98497(8)
C18_7 C 0.3353(2) 0.02926(17) 0.99593(18)
H11_7 H 0.3322 0.0364 0.9732
O11_6 O 0.2500 0.15214(8) 1.0000
H84_3 H 0.762599 0.0171703 0.979357
O1_10 O 0.5000 0.7500 0.09786(8)
O3_7 O 0.47076(8) 0.79846(8) 0.04255(8)
O7_7 O 0.48662(9) 0.82750(7) 0.09141(9)
C8_7 C 0.47053(12) 0.82444(11) 0.06305(13)
C9_7 C 0.44953(15) 0.85551(12) 0.05300(14)
C11_7 C 0.4334(2) 0.85707(18) 0.02112(18)
H6_7 H 0.4358 0.8392 0.0053
C13_7 C 0.3623(2) 0.9905(2) 0.03580(19)
C14_7 C 0.4446(2) 0.8816(2) 0.07483(19)
H8_7 H 0.4539 0.8805 0.0970
N3_7 N 0.3889(2) 0.94087(18) 0.02220(17)
C17_7 C 0.4094(2) 0.91165(18) 0.03352(19)
N4_7 N 0.3805(2) 0.96017(18) 0.04671(17)
C19_7 C 0.4133(3) 0.8864(2) 0.0132(2)
C20_7 C 0.4255(3) 0.91087(19) 0.0647(2)
H13_7 H 0.4239 0.9298 0.0794
In6_6 In 0.7500 0.705103(8) 0.5000
In7_6 In 0.2500 0.794897(8) 0.5000
O12_5 O 0.7500 0.34786(8) 0.0000
O20_7 O 0.52924(8) 0.70154(8) 0.04255(8)
O21_7 O 0.72076(8) 0.70745(8) 0.45154(8)
O22_7 O 0.27924(8) 0.79255(8) 0.45154(8)
O28_7 O 0.71951(9) 0.41013(8) 0.04062(9)
O29_7 O 0.53049(9) 0.70938(9) 0.16013(8)
O30_7 O 0.46951(9) 0.79062(9) 0.16013(8)
O35_7 O 0.54379(9) 0.76503(8) 0.16354(8)
O36_7 O 0.45621(9) 0.73497(8) 0.16354(8)
O42_4 O 0.79379(9) 0.41354(8) 0.01503(8)
O49_7 O 0.81123(7) 0.34545(7) 0.04944(8)
O50_7 O 0.51338(9) 0.67250(7) 0.09141(9)
N11_7 N 0.77969(8) 0.40407(8) 0.08988(8)
C26_7 C 0.70397(11) 0.42342(11) 0.01545(10)
C27_7 C 0.54603(11) 0.73455(10) 0.17342(11)
C28_7 C 0.45397(11) 0.76545(10) 0.17342(11)
C56_7 C 0.52947(12) 0.67556(11) 0.06305(13)
C57_7 C 0.72053(12) 0.68695(13) 0.42556(11)
C58_7 C 0.27947(12) 0.81305(13) 0.42556(11)
C61_7 C 0.55047(15) 0.64449(12) 0.05300(14)
C62_7 C 0.69953(15) 0.69700(14) 0.39449(12)
C63_7 C 0.30047(15) 0.80300(14) 0.39449(12)
C66_7 C 0.68039(14) 0.45271(14) 0.02314(13)
C67_7 C 0.56961(14) 0.72686(13) 0.20271(14)
C68_7 C 0.43039(14) 0.77314(13) 0.20271(14)
C71_7 C 0.5666(2) 0.64293(18) 0.02112(18)
C72_7 C 0.6834(2) 0.72888(18) 0.39293(18)
C73_7 C 0.3166(2) 0.77112(18) 0.39293(18)
H39_7 H 0.5642 0.6608 0.0053
H40_7 H 0.6858 0.7447 0.4108
H41_7 H 0.3142 0.7553 0.4108
C76_7 C 0.6440(2) 0.4999(2) 0.0034(2)
C77_7 C 0.6060(2) 0.7466(2) 0.2499(2)
C78_7 C 0.3940(2) 0.7534(2) 0.2499(2)
H45_7 H 0.6155 0.7647 0.2626
H46_7 H 0.3845 0.7353 0.2626
C81_7 C 0.6377(2) 0.5095(2) 0.03580(19)
C82_7 C 0.6123(2) 0.71420(19) 0.2595(2)
C83_7 C 0.3877(2) 0.78580(19) 0.2595(2)
C86_7 C 0.5554(2) 0.6184(2) 0.07483(19)
C87_7 C 0.6946(2) 0.67517(19) 0.3684(2)
C88_7 C 0.3054(2) 0.82483(19) 0.3684(2)
H49_7 H 0.5461 0.6195 0.0970
H50_7 H 0.7039 0.6530 0.3695
H51_7 H 0.2961 0.8470 0.3695
C91_7 C 0.6747(2) 0.46362(17) 0.05720(18)
C92_7 C 0.5753(2) 0.69280(18) 0.21362(17)
C93_7 C 0.4247(2) 0.80720(18) 0.21362(17)
H54_7 H 0.6849 0.4518 0.0755
H55_7 H 0.5651 0.6745 0.2018
H56_7 H 0.4349 0.8255 0.2018
N17_7 N 0.6111(2) 0.55913(18) 0.02220(17)
N18_7 N 0.6389(2) 0.72780(17) 0.30913(18)
N19_7 N 0.3611(2) 0.77220(17) 0.30913(18)
C96_7 C 0.6536(2) 0.49220(18) 0.0637(2)
C97_7 C 0.5964(2) 0.6863(2) 0.24220(18)
C98_7 C 0.4036(2) 0.8137(2) 0.24220(18)
H59_7 H 0.6500 0.4998 0.0863
H60_7 H 0.6000 0.6637 0.2498
H61_7 H 0.4000 0.8363 0.2498
C101_7 C 0.5906(2) 0.58835(18) 0.03352(19)
C102_7 C 0.6594(2) 0.71648(19) 0.33835(18)
C103_7 C 0.3406(2) 0.78352(19) 0.33835(18)
C107_7 C 0.5853(2) 0.75407(18) 0.22074(17)
C108_7 C 0.4147(2) 0.74593(18) 0.22074(17)
H65_7 H 0.5822 0.7768 0.2136
H66_7 H 0.4178 0.7232 0.2136
N22_7 N 0.6195(2) 0.53983(18) 0.04671(17)
N23_7 N 0.6305(2) 0.70329(17) 0.28983(18)
N24_7 N 0.3695(2) 0.79671(17) 0.28983(18)
C111_7 C 0.5867(3) 0.6136(2) 0.0132(2)
C112_7 C 0.6633(3) 0.7368(2) 0.3636(2)
C113_7 C 0.3367(3) 0.7632(2) 0.3636(2)
H70_7 H 0.6524 0.7582 0.3627
H71_7 H 0.3476 0.7418 0.3627
C116_7 C 0.5745(3) 0.58913(19) 0.0647(2)
C117_7 C 0.6755(3) 0.6853(2) 0.33913(19)
C118_7 C 0.3245(3) 0.8147(2) 0.33913(19)
H74_7 H 0.5761 0.5702 0.0794
H75_7 H 0.6739 0.6706 0.3202
H76_7 H 0.3261 0.8294 0.3202
O8_10 O 0.5000 0.7500 0.99138(13)
H7_7 H 0.3655 0.9874 0.9853
H12_7 H 0.4024 0.8873 0.9918
O12_6 O 0.7500 0.34786(8) 1.0000
O34_4 O 0.70621(9) 0.41354(8) 0.98497(8)
H44_7 H 0.6345 0.5126 0.9853
C106_7 C 0.6647(2) 0.47074(17) 0.99593(18)
H64_7 H 0.6678 0.4636 0.9732
H69_7 H 0.5976 0.6127 0.9918
C106_8 C 0.1647(2) 0.02926(17) 0.00407(18)
H64_8 H 0.1678 0.0364 0.0268
O28_8 O 0.21951(9) 0.08987(8) 0.95938(9)
O49_8 O 0.31123(7) 0.15455(7) 0.95056(8)
N11_8 N 0.27969(8) 0.09593(8) 0.91012(8)
C26_8 C 0.20397(11) 0.07658(11) 0.98455(10)
C66_8 C 0.18039(14) 0.04729(14) 0.97686(13)
C76_8 C 0.1440(2) 0.0001(2) 0.9966(2)
C91_8 C 0.1747(2) 0.03638(17) 0.94280(18)
H54_8 H 0.1849 0.0482 0.9245
C96_8 C 0.1536(2) 0.00780(18) 0.9363(2)
H59_8 H 0.1500 0.0002 0.9137
O8_11 O -0.0000 0.7500 0.00862(13)
H44_8 H 0.1345 0.9874 0.0147
H69_8 H 0.0976 0.8873 0.0082
H80_4 H 0.0206432 0.737401 0.0171703
H84_4 H 0.262599 0.48283 0.0206432
O1_11 O -0.0000 0.7500 0.90214(8)
O20_8 O 0.02924(8) 0.79846(8) 0.95745(8)
O21_8 O 0.22076(8) 0.79255(8) 0.54846(8)
O29_8 O 0.03049(9) 0.79062(9) 0.83987(8)
O35_8 O 0.04379(9) 0.73497(8) 0.83646(8)
O50_8 O 0.01338(9) 0.82750(7) 0.90859(9)
C27_8 C 0.04603(11) 0.76545(10) 0.82658(11)
C56_8 C 0.02947(12) 0.82444(11) 0.93695(13)
C57_8 C 0.22053(12) 0.81305(13) 0.57444(11)
C61_8 C 0.05047(15) 0.85551(12) 0.94700(14)
C62_8 C 0.19953(15) 0.80300(14) 0.60551(12)
C67_8 C 0.06961(14) 0.77314(13) 0.79729(14)
C71_8 C 0.0666(2) 0.85707(18) 0.97888(18)
C72_8 C 0.1834(2) 0.77112(18) 0.60707(18)
H39_8 H 0.0642 0.8392 0.9947
H40_8 H 0.1858 0.7553 0.5892
C77_8 C 0.1060(2) 0.7534(2) 0.7501(2)
H45_8 H 0.1155 0.7353 0.7374
C81_8 C 0.1377(2) 0.9905(2) 0.96420(19)
C82_8 C 0.1123(2) 0.78580(19) 0.7405(2)
C86_8 C 0.0554(2) 0.8816(2) 0.92517(19)
C87_8 C 0.1946(2) 0.82483(19) 0.6316(2)
H49_8 H 0.0461 0.8805 0.9030
H50_8 H 0.2039 0.8470 0.6305
C92_8 C 0.0753(2) 0.80720(18) 0.78638(17)
H55_8 H 0.0651 0.8255 0.7982
N17_8 N 0.1111(2) 0.94087(18) 0.97780(17)
N18_8 N 0.1389(2) 0.77220(17) 0.69087(18)
C97_8 C 0.0964(2) 0.8137(2) 0.75780(18)
H60_8 H 0.1000 0.8363 0.7502
C101_8 C 0.0906(2) 0.91165(18) 0.96648(19)
C102_8 C 0.1594(2) 0.78352(19) 0.66165(18)
C107_8 C 0.0853(2) 0.74593(18) 0.77926(17)
H65_8 H 0.0822 0.7232 0.7864
N22_8 N 0.1195(2) 0.96017(18) 0.95329(17)
N23_8 N 0.1305(2) 0.79671(17) 0.71017(18)
C111_8 C 0.0867(3) 0.8864(2) 0.9868(2)
C112_8 C 0.1633(3) 0.7632(2) 0.6364(2)
H70_8 H 0.1524 0.7418 0.6373
C116_8 C 0.0745(3) 0.91087(19) 0.9353(2)
C117_8 C 0.1755(3) 0.8147(2) 0.66087(19)
H74_8 H 0.0761 0.9298 0.9206
H75_8 H 0.1739 0.8294 0.6798
H83_4 H 0.261578 0.48283 0.978768
O8_12 O 1.0000 0.7500 0.00862(13)
H7_8 H 0.8655 0.5126 0.0147
C18_8 C 0.8353(2) 0.47074(17) 0.00407(18)
H11_8 H 0.8322 0.4636 0.0268
H12_8 H 0.9024 0.6127 0.0082
H79_4 H 0.978768 0.738422 0.0171703
O1_12 O 1.0000 0.7500 0.90214(8)
O3_8 O 0.97076(8) 0.70154(8) 0.95745(8)
O4_8 O 0.78049(9) 0.41013(8) 0.95938(9)
O7_8 O 0.98662(9) 0.67250(7) 0.90859(9)
C2_8 C 0.79603(11) 0.42342(11) 0.98455(10)
C8_8 C 0.97053(12) 0.67556(11) 0.93695(13)
C9_8 C 0.94953(15) 0.64449(12) 0.94700(14)
C10_8 C 0.81961(14) 0.45271(14) 0.97686(13)
C11_8 C 0.9334(2) 0.64293(18) 0.97888(18)
H6_8 H 0.9358 0.6608 0.9947
C12_8 C 0.8560(2) 0.4999(2) 0.9966(2)
C13_8 C 0.8623(2) 0.5095(2) 0.96420(19)
C14_8 C 0.9446(2) 0.6184(2) 0.92517(19)
H8_8 H 0.9539 0.6195 0.9030
C15_8 C 0.8253(2) 0.46362(17) 0.94280(18)
H9_8 H 0.8151 0.4518 0.9245
N3_8 N 0.8889(2) 0.55913(18) 0.97780(17)
C16_8 C 0.8464(2) 0.49220(18) 0.9363(2)
H10_8 H 0.8500 0.4998 0.9137
C17_8 C 0.9094(2) 0.58835(18) 0.96648(19)
N4_8 N 0.8805(2) 0.53983(18) 0.95329(17)
C19_8 C 0.9133(3) 0.6136(2) 0.9868(2)
C20_8 C 0.9255(3) 0.58913(19) 0.9353(2)
H13_8 H 0.9239 0.5702 0.9206
O22_8 O 0.77924(8) 0.70745(8) 0.54846(8)
O30_8 O 0.96951(9) 0.70938(9) 0.83987(8)
O36_8 O 0.95621(9) 0.76503(8) 0.83646(8)
O48_8 O 0.68877(7) 0.34545(7) 0.95056(8)
N10_8 N 0.72031(8) 0.40407(8) 0.91012(8)
C28_8 C 0.95397(11) 0.73455(10) 0.82658(11)
C58_8 C 0.77947(12) 0.68695(13) 0.57444(11)
C63_8 C 0.80047(15) 0.69700(14) 0.60551(12)
C68_8 C 0.93039(14) 0.72686(13) 0.79729(14)
C73_8 C 0.8166(2) 0.72888(18) 0.60707(18)
H41_8 H 0.8142 0.7447 0.5892
C78_8 C 0.8940(2) 0.7466(2) 0.7501(2)
H46_8 H 0.8845 0.7647 0.7374
C83_8 C 0.8877(2) 0.71420(19) 0.7405(2)
C88_8 C 0.8054(2) 0.67517(19) 0.6316(2)
H51_8 H 0.7961 0.6530 0.6305
C93_8 C 0.9247(2) 0.69280(18) 0.78638(17)
H56_8 H 0.9349 0.6745 0.7982
N19_8 N 0.8611(2) 0.72780(17) 0.69087(18)
C98_8 C 0.9036(2) 0.6863(2) 0.75780(18)
H61_8 H 0.9000 0.6637 0.7502
C103_8 C 0.8406(2) 0.71648(19) 0.66165(18)
C108_8 C 0.9147(2) 0.75407(18) 0.77926(17)
H66_8 H 0.9178 0.7768 0.7864
N24_8 N 0.8695(2) 0.70329(17) 0.71017(18)
C113_8 C 0.8367(3) 0.7368(2) 0.6364(2)
H71_8 H 0.8476 0.7582 0.6373
C118_8 C 0.8245(3) 0.6853(2) 0.66087(19)
H76_8 H 0.8261 0.6706 0.6798
C8_9 C 0.56305(13) 0.02947(12) 0.17556(11)
C9_9 C 0.55300(14) 0.05047(15) 0.14449(12)
C11_9 C 0.52112(18) 0.0666(2) 0.14293(18)
H6_9 H 0.5053 0.0642 0.1608
H7_9 H 0.4853 0.1345 0.0126
C13_9 C 0.53580(19) 0.1377(2) 0.0095(2)
C14_9 C 0.57483(19) 0.0554(2) 0.1184(2)
H8_9 H 0.5970 0.0461 0.1195
N3_9 N 0.52220(17) 0.1111(2) 0.05913(18)
C17_9 C 0.53352(19) 0.0906(2) 0.08835(18)
N4_9 N 0.54671(17) 0.1195(2) 0.03983(18)
C19_9 C 0.5132(2) 0.0867(3) 0.1136(2)
H12_9 H 0.4918 0.0976 0.1127
C20_9 C 0.5647(2) 0.0745(3) 0.08913(19)
H13_9 H 0.5794 0.0761 0.0702
O22_9 O 0.95154(8) 0.22076(8) 0.20745(8)
O52_5 O 0.92250(7) 0.23662(9) 0.15859(9)
C28_9 C 0.67342(11) 0.04603(11) 0.23455(10)
C58_9 C 0.92556(11) 0.22053(12) 0.18695(13)
C63_9 C 0.89449(12) 0.19953(15) 0.19700(14)
C68_9 C 0.70271(14) 0.06961(14) 0.22686(13)
C73_9 C 0.89293(18) 0.1834(2) 0.22888(18)
H41_9 H 0.9108 0.1858 0.2447
C78_9 C 0.7499(2) 0.1060(2) 0.2466(2)
H46_9 H 0.7626 0.1155 0.2647
C83_9 C 0.7595(2) 0.1123(2) 0.21420(19)
C88_9 C 0.8684(2) 0.1946(2) 0.17517(19)
H51_9 H 0.8695 0.2039 0.1530
C93_9 C 0.71362(17) 0.0753(2) 0.19280(18)
H56_9 H 0.7018 0.0651 0.1745
N19_9 N 0.80913(18) 0.1389(2) 0.22780(17)
C98_9 C 0.74220(18) 0.0964(2) 0.1863(2)
H61_9 H 0.7498 0.1000 0.1637
C103_9 C 0.83835(18) 0.1594(2) 0.21648(19)
C108_9 C 0.72074(17) 0.0853(2) 0.25407(18)
H66_9 H 0.7136 0.0822 0.2768
N24_9 N 0.78983(18) 0.1305(2) 0.20329(17)
C113_9 C 0.8636(2) 0.1633(3) 0.2368(2)
H71_9 H 0.8627 0.1524 0.2582
C118_9 C 0.83913(19) 0.1755(3) 0.1853(2)
H76_9 H 0.8202 0.1739 0.1706
O4_9 O 0.54062(9) 0.21951(9) 0.91013(8)
O5_5 O 0.48497(8) 0.20621(9) 0.91354(8)
C2_9 C 0.51545(10) 0.20397(11) 0.92342(11)
C10_9 C 0.52314(13) 0.18039(14) 0.95271(14)
C12_9 C 0.5034(2) 0.1440(2) 0.9999(2)
C15_9 C 0.55720(18) 0.1747(2) 0.96362(17)
H9_9 H 0.5755 0.1849 0.9518
C16_9 C 0.5637(2) 0.1536(2) 0.99220(18)
H10_9 H 0.5863 0.1500 0.9998
C18_9 C 0.49593(18) 0.1647(2) 0.97074(17)
H11_9 H 0.4732 0.1678 0.9636
O11_7 O 0.5000 0.2500 0.84786(8)
O48_9 O 0.54944(8) 0.31123(7) 0.84545(7)
N10_9 N 0.58988(8) 0.27969(8) 0.90407(8)
O12_7 O 0.5000 0.7500 0.65214(8)
O42_5 O 0.51503(8) 0.70621(9) 0.58646(8)
O49_9 O 0.54944(8) 0.68877(7) 0.65455(7)
O57_5 O 0.57750(7) 0.76338(9) 0.65859(9)
N11_9 N 0.58988(8) 0.72031(8) 0.59593(8)
O4_10 O 0.45938(9) 0.71951(9) 0.58987(8)
C2_10 C 0.48455(10) 0.70397(11) 0.57658(11)
C8_10 C 0.43695(13) 0.52947(12) 0.32444(11)
C9_10 C 0.44700(14) 0.55047(15) 0.35551(12)
C10_10 C 0.47686(13) 0.68039(14) 0.54729(14)
C11_10 C 0.47888(18) 0.5666(2) 0.35707(18)
H6_10 H 0.4947 0.5642 0.3392
C12_10 C 0.4966(2) 0.6440(2) 0.5001(2)
H7_10 H 0.5147 0.6345 0.4874
C13_10 C 0.46420(19) 0.6377(2) 0.4905(2)
C14_10 C 0.42517(19) 0.5554(2) 0.3816(2)
H8_10 H 0.4030 0.5461 0.3805
C15_10 C 0.44280(18) 0.6747(2) 0.53638(17)
H9_10 H 0.4245 0.6849 0.5482
N3_10 N 0.47780(17) 0.6111(2) 0.44087(18)
C16_10 C 0.4363(2) 0.6536(2) 0.50780(18)
H10_10 H 0.4137 0.6500 0.5002
C17_10 C 0.46648(19) 0.5906(2) 0.41165(18)
C18_10 C 0.50407(18) 0.6647(2) 0.52926(17)
H11_10 H 0.5268 0.6678 0.5364
N4_10 N 0.45329(17) 0.6195(2) 0.46017(18)
C19_10 C 0.4868(2) 0.5867(3) 0.3864(2)
H12_10 H 0.5082 0.5976 0.3873
C20_10 C 0.4353(2) 0.5745(3) 0.41087(19)
H13_10 H 0.4206 0.5761 0.4298
O22_10 O 0.04846(8) 0.72076(8) 0.29255(8)
O48_10 O 0.45056(8) 0.81123(7) 0.65455(7)
O52_6 O 0.07750(7) 0.73662(9) 0.34141(9)
N10_10 N 0.41012(8) 0.77969(8) 0.59593(8)
C28_10 C 0.32658(11) 0.54603(11) 0.26545(10)
C58_10 C 0.07444(11) 0.72053(12) 0.31305(13)
C63_10 C 0.10551(12) 0.69953(15) 0.30300(14)
C68_10 C 0.29729(14) 0.56961(14) 0.27314(13)
C73_10 C 0.10707(18) 0.6834(2) 0.27112(18)
H41_10 H 0.0892 0.6858 0.2553
C78_10 C 0.2501(2) 0.6060(2) 0.2534(2)
H46_10 H 0.2374 0.6155 0.2353
C83_10 C 0.2405(2) 0.6123(2) 0.28580(19)
C88_10 C 0.1316(2) 0.6946(2) 0.32483(19)
H51_10 H 0.1305 0.7039 0.3470
C93_10 C 0.28638(17) 0.5753(2) 0.30720(18)
H56_10 H 0.2982 0.5651 0.3255
N19_10 N 0.19087(18) 0.6389(2) 0.27220(17)
C98_10 C 0.25780(18) 0.5964(2) 0.3137(2)
H61_10 H 0.2502 0.6000 0.3363
C103_10 C 0.16165(18) 0.6594(2) 0.28352(19)
C108_10 C 0.27926(17) 0.5853(2) 0.24593(18)
H66_10 H 0.2864 0.5822 0.2232
N24_10 N 0.21017(18) 0.6305(2) 0.29671(17)
C113_10 C 0.1364(2) 0.6633(3) 0.2632(2)
H71_10 H 0.1373 0.6524 0.2418
C118_10 C 0.16087(19) 0.6755(3) 0.3147(2)
H76_10 H 0.1798 0.6739 0.3294
O49_10 O 0.45056(8) 0.18877(7) 0.84545(7)
O57_6 O 0.42250(7) 0.26338(9) 0.84141(9)
N11_10 N 0.41012(8) 0.22031(8) 0.90407(8)
O4_11 O 0.04062(9) 0.28049(9) 0.08987(8)
C2_11 C 0.01545(10) 0.29603(11) 0.07658(11)
C10_11 C 0.02314(13) 0.31961(14) 0.04729(14)
C12_11 C 0.0034(2) 0.3560(2) 0.0001(2)
C15_11 C 0.05720(18) 0.3253(2) 0.03638(17)
H9_11 H 0.0755 0.3151 0.0482
C16_11 C 0.0637(2) 0.3464(2) 0.00780(18)
H10_11 H 0.0863 0.3500 0.0002
O11_8 O -0.0000 0.2500 0.15214(8)
O48_11 O 0.04944(8) 0.18877(7) 0.15455(7)
N10_11 N 0.08988(8) 0.22031(8) 0.09593(8)
H83_5 H 0.0212322 0.761578 0.0171703
C8_11 C 0.06305(13) 0.47053(12) 0.82444(11)
C9_11 C 0.05300(14) 0.44953(15) 0.85551(12)
C11_11 C 0.02112(18) 0.4334(2) 0.85707(18)
H6_11 H 0.0053 0.4358 0.8392
C13_11 C 0.03580(19) 0.3623(2) 0.9905(2)
C14_11 C 0.07483(19) 0.4446(2) 0.8816(2)
H8_11 H 0.0970 0.4539 0.8805
N3_11 N 0.02220(17) 0.3889(2) 0.94087(18)
C17_11 C 0.03352(19) 0.4094(2) 0.91165(18)
N4_11 N 0.04671(17) 0.3805(2) 0.96017(18)
C19_11 C 0.0132(2) 0.4133(3) 0.8864(2)
C20_11 C 0.0647(2) 0.4255(3) 0.91087(19)
H13_11 H 0.0794 0.4239 0.9298
O12_8 O 0.0000 0.7500 0.34786(8)
O22_11 O 0.45154(8) 0.27924(8) 0.79255(8)
O42_6 O 0.01503(8) 0.79379(9) 0.41354(8)
O49_11 O 0.04944(8) 0.81123(7) 0.34545(7)
N11_11 N 0.08988(8) 0.77969(8) 0.40407(8)
C28_11 C 0.17342(11) 0.45397(11) 0.76545(10)
C58_11 C 0.42556(11) 0.27947(12) 0.81305(13)
C63_11 C 0.39449(12) 0.30047(15) 0.80300(14)
C68_11 C 0.20271(14) 0.43039(14) 0.77314(13)
C73_11 C 0.39293(18) 0.3166(2) 0.77112(18)
H41_11 H 0.4108 0.3142 0.7553
C78_11 C 0.2499(2) 0.3940(2) 0.7534(2)
H46_11 H 0.2626 0.3845 0.7353
C83_11 C 0.2595(2) 0.3877(2) 0.78580(19)
C88_11 C 0.3684(2) 0.3054(2) 0.82483(19)
H51_11 H 0.3695 0.2961 0.8470
C93_11 C 0.21362(17) 0.4247(2) 0.80720(18)
H56_11 H 0.2018 0.4349 0.8255
N19_11 N 0.30913(18) 0.3611(2) 0.77220(17)
C98_11 C 0.24220(18) 0.4036(2) 0.8137(2)
H61_11 H 0.2498 0.4000 0.8363
C103_11 C 0.33835(18) 0.3406(2) 0.78352(19)
C108_11 C 0.22074(17) 0.4147(2) 0.74593(18)
H66_11 H 0.2136 0.4178 0.7232
N24_11 N 0.28983(18) 0.3695(2) 0.79671(17)
C113_11 C 0.3636(2) 0.3367(3) 0.7632(2)
H71_11 H 0.3627 0.3476 0.7418
C118_11 C 0.33913(19) 0.3245(3) 0.8147(2)
H76_11 H 0.3202 0.3261 0.8294
O5_6 O 0.98497(8) 0.29379(9) 0.08646(8)
C18_11 C 0.99593(18) 0.3353(2) 0.02926(17)
H11_11 H 0.9732 0.3322 0.0364
O11_9 O 1.0000 0.2500 0.15214(8)
H84_5 H 0.979357 0.762599 0.0171703
H7_11 H 0.9853 0.3655 0.9874
H12_11 H 0.9918 0.4024 0.8873
O12_9 O 1.0000 0.7500 0.34786(8)
H84_6 H 0.0206432 0.262599 0.48283
H7_12 H 0.0147 0.8655 0.5126
C18_12 C 0.00407(18) 0.8353(2) 0.47074(17)
H11_12 H 0.0268 0.8322 0.4636
H12_12 H 0.0082 0.9024 0.6127
O49_12 O 0.95056(8) 0.31123(7) 0.15455(7)
N11_12 N 0.91012(8) 0.27969(8) 0.09593(8)
H83_6 H 0.978768 0.261578 0.48283
O4_12 O 0.95938(9) 0.78049(9) 0.41013(8)
C2_12 C 0.98455(10) 0.79603(11) 0.42342(11)
C8_12 C 0.93695(13) 0.97053(12) 0.67556(11)
C9_12 C 0.94700(14) 0.94953(15) 0.64449(12)
C10_12 C 0.97686(13) 0.81961(14) 0.45271(14)
C11_12 C 0.97888(18) 0.9334(2) 0.64293(18)
H6_12 H 0.9947 0.9358 0.6608
C12_12 C 0.9966(2) 0.8560(2) 0.4999(2)
C13_12 C 0.96420(19) 0.8623(2) 0.5095(2)
C14_12 C 0.92517(19) 0.9446(2) 0.6184(2)
H8_12 H 0.9030 0.9539 0.6195
C15_12 C 0.94280(18) 0.8253(2) 0.46362(17)
H9_12 H 0.9245 0.8151 0.4518
N3_12 N 0.97780(17) 0.8889(2) 0.55913(18)
C16_12 C 0.9363(2) 0.8464(2) 0.49220(18)
H10_12 H 0.9137 0.8500 0.4998
C17_12 C 0.96648(19) 0.9094(2) 0.58835(18)
N4_12 N 0.95329(17) 0.8805(2) 0.53983(18)
C19_12 C 0.9868(2) 0.9133(3) 0.6136(2)
C20_12 C 0.9353(2) 0.9255(3) 0.58913(19)
H13_12 H 0.9206 0.9239 0.5702
O22_12 O 0.54846(8) 0.77924(8) 0.70745(8)
O48_12 O 0.95056(8) 0.68877(7) 0.34545(7)
N10_12 N 0.91012(8) 0.72031(8) 0.40407(8)
C28_12 C 0.82658(11) 0.95397(11) 0.73455(10)
C58_12 C 0.57444(11) 0.77947(12) 0.68695(13)
C63_12 C 0.60551(12) 0.80047(15) 0.69700(14)
C68_12 C 0.79729(14) 0.93039(14) 0.72686(13)
C73_12 C 0.60707(18) 0.8166(2) 0.72888(18)
H41_12 H 0.5892 0.8142 0.7447
C78_12 C 0.7501(2) 0.8940(2) 0.7466(2)
H46_12 H 0.7374 0.8845 0.7647
C83_12 C 0.7405(2) 0.8877(2) 0.71420(19)
C88_12 C 0.6316(2) 0.8054(2) 0.67517(19)
H51_12 H 0.6305 0.7961 0.6530
C93_12 C 0.78638(17) 0.9247(2) 0.69280(18)
H56_12 H 0.7982 0.9349 0.6745
N19_12 N 0.69087(18) 0.8611(2) 0.72780(17)
C98_12 C 0.75780(18) 0.9036(2) 0.6863(2)
H61_12 H 0.7502 0.9000 0.6637
C103_12 C 0.66165(18) 0.8406(2) 0.71648(19)
C108_12 C 0.77926(17) 0.9147(2) 0.75407(18)
H66_12 H 0.7864 0.9178 0.7768
N24_12 N 0.71017(18) 0.8695(2) 0.70329(17)
C113_12 C 0.6364(2) 0.8367(3) 0.7368(2)
H71_12 H 0.6373 0.8476 0.7582
C118_12 C 0.66087(19) 0.8245(3) 0.6853(2)
H76_12 H 0.6798 0.8261 0.6706
O2_5 O 0.79188(8) 0.52963(8) 0.29855(8)
C1_5 C 0.80076(10) 0.56257(10) 0.35001(10)
C3_5 C 0.75657(12) 0.58568(10) 0.38722(11)
H1_5 H 0.7335 0.5907 0.3914
C4_5 C 0.76512(12) 0.56730(11) 0.35638(11)
C5_5 C 0.81355(12) 0.58984(11) 0.40387(10)
H2_5 H 0.8300 0.5973 0.4197
C6_5 C 0.81362(10) 0.54586(10) 0.31754(10)
N2_5 N 0.73902(16) 0.55712(13) 0.33574(11)
H3_5 H 0.7434 0.5467 0.3166
H4_5 H 0.7180 0.5611 0.3417
C7_5 C 0.82403(12) 0.57289(11) 0.37456(11)
H5_5 H 0.8474 0.5683 0.3713
O8_13 O 0.74138(13) 0.5000 0.2500
O13_5 O 0.79188(8) 0.47037(8) 0.20145(8)
O14_5 O 0.97037(8) 0.70145(8) 0.29188(8)
O15_5 O 0.97037(8) 0.29855(8) 0.20812(8)
O16_3 O 0.79855(8) 0.70812(8) 0.47037(8)
O17_3 O 0.79855(8) 0.29188(8) 0.02963(8)
O18_3 O 0.70145(8) 0.70812(8) 0.52963(8)
C21_5 C 0.80076(10) 0.43743(10) 0.14999(10)
C22_5 C 0.93743(10) 0.64999(10) 0.30076(10)
C23_5 C 0.93743(10) 0.35001(10) 0.19924(10)
C24_5 C 0.85001(10) 0.69924(10) 0.43743(10)
C25_5 C 0.85001(10) 0.30076(10) 0.06257(10)
C31_5 C 0.75657(12) 0.41432(10) 0.11278(11)
C32_5 C 0.91432(10) 0.61278(11) 0.25657(12)
C33_5 C 0.91432(10) 0.38722(11) 0.24343(12)
C34_5 C 0.88722(11) 0.74343(12) 0.41432(10)
C35_5 C 0.88722(11) 0.25657(12) 0.08568(10)
H14_5 H 0.7335 0.4093 0.1086
H15_5 H 0.9093 0.6086 0.2335
H16_5 H 0.9093 0.3914 0.2665
H17_5 H 0.8914 0.7665 0.4093
H18_5 H 0.8914 0.2335 0.0907
C36_5 C 0.76512(12) 0.43270(11) 0.14362(11)
C37_5 C 0.93270(11) 0.64362(11) 0.26512(12)
C38_5 C 0.93270(11) 0.35638(11) 0.23488(12)
C39_5 C 0.85638(11) 0.73488(12) 0.43270(11)
C40_5 C 0.85638(11) 0.26512(12) 0.06730(11)
C41_5 C 0.81355(12) 0.41016(11) 0.09613(10)
C42_5 C 0.91016(11) 0.59613(10) 0.31355(12)
C43_5 C 0.91016(11) 0.40387(10) 0.18645(12)
C44_5 C 0.90387(10) 0.68645(12) 0.41016(11)
C45_5 C 0.90387(10) 0.31355(12) 0.08984(11)
H19_5 H 0.8300 0.4027 0.0803
H20_5 H 0.9027 0.5803 0.3300
H21_5 H 0.9027 0.4197 0.1700
H22_5 H 0.9197 0.6700 0.4027
H23_5 H 0.9197 0.3300 0.0973
C46_5 C 0.81362(10) 0.45414(10) 0.18246(10)
C47_5 C 0.95414(10) 0.68246(10) 0.31362(10)
C48_5 C 0.95414(10) 0.31754(10) 0.18638(10)
C49_5 C 0.81754(10) 0.68638(10) 0.45414(10)
C50_5 C 0.81754(10) 0.31362(10) 0.04586(10)
N12_5 N 0.73902(16) 0.44288(13) 0.16426(11)
N13_5 N 0.94288(13) 0.66426(11) 0.23902(16)
N14_5 N 0.94288(13) 0.33574(11) 0.26098(16)
N15_5 N 0.83574(11) 0.76098(16) 0.44288(13)
N16_5 N 0.83574(11) 0.23902(16) 0.05712(13)
H24_5 H 0.7434 0.4533 0.1834
H25_5 H 0.9533 0.6834 0.2434
H26_5 H 0.9533 0.3166 0.2566
H27_5 H 0.8166 0.7566 0.4533
H28_5 H 0.8166 0.2434 0.0467
H29_5 H 0.7180 0.4389 0.1583
H30_5 H 0.9389 0.6583 0.2180
H31_5 H 0.9389 0.3417 0.2820
H32_5 H 0.8417 0.7820 0.4389
H33_5 H 0.8417 0.2180 0.0611
C51_5 C 0.82403(12) 0.42711(11) 0.12544(11)
C52_5 C 0.92711(11) 0.62544(11) 0.32403(12)
C53_5 C 0.92711(11) 0.37456(11) 0.17597(12)
C54_5 C 0.87456(11) 0.67597(12) 0.42711(11)
C55_5 C 0.87456(11) 0.32403(12) 0.07289(11)
H34_5 H 0.8474 0.4317 0.1287
H35_5 H 0.9317 0.6287 0.3474
H36_5 H 0.9317 0.3713 0.1526
H37_5 H 0.8713 0.6526 0.4317
H38_5 H 0.8713 0.3474 0.0683
O58_4 O 0.7500 0.75862(13) 0.5000
O59_4 O 0.7500 0.24138(13) 0.0000
O19_3 O 0.70145(8) 0.29188(8) 0.97037(8)
O59_5 O 0.7500 0.24138(13) 1.0000
H83_7 H 0.771232 0.23283 0.988422
H84_7 H 0.729357 0.23283 0.987401
H81_3 H 0.728768 0.23283 0.0115783
H82_3 H 0.770643 0.23283 0.0125985
O2_6 O 0.70812(8) 0.47037(8) 0.79855(8)
C1_6 C 0.69924(10) 0.43743(10) 0.85001(10)
C3_6 C 0.74343(12) 0.41432(10) 0.88722(11)
H1_6 H 0.7665 0.4093 0.8914
C4_6 C 0.73488(12) 0.43270(11) 0.85638(11)
C5_6 C 0.68645(12) 0.41016(11) 0.90387(10)
H2_6 H 0.6700 0.4027 0.9197
C6_6 C 0.68638(10) 0.45414(10) 0.81754(10)
N2_6 N 0.76098(16) 0.44288(13) 0.83574(11)
H3_6 H 0.7566 0.4533 0.8166
H4_6 H 0.7820 0.4389 0.8417
C7_6 C 0.67597(12) 0.42711(11) 0.87456(11)
H5_6 H 0.6526 0.4317 0.8713
O8_14 O 0.75862(13) 0.5000 0.7500
O13_6 O 0.70812(8) 0.52963(8) 0.70145(8)
O14_6 O 0.52963(8) 0.29855(8) 0.79188(8)
O15_6 O 0.52963(8) 0.70145(8) 0.70812(8)
C21_6 C 0.69924(10) 0.56257(10) 0.64999(10)
C22_6 C 0.56257(10) 0.35001(10) 0.80076(10)
C23_6 C 0.56257(10) 0.64999(10) 0.69924(10)
C24_6 C 0.64999(10) 0.30076(10) 0.93743(10)
C25_6 C 0.64999(10) 0.69924(10) 0.56257(10)
C31_6 C 0.74343(12) 0.58568(10) 0.61278(11)
C32_6 C 0.58568(10) 0.38722(11) 0.75657(12)
C33_6 C 0.58568(10) 0.61278(11) 0.74343(12)
C34_6 C 0.61278(11) 0.25657(12) 0.91432(10)
C35_6 C 0.61278(11) 0.74343(12) 0.58568(10)
H14_6 H 0.7665 0.5907 0.6086
H15_6 H 0.5907 0.3914 0.7335
H16_6 H 0.5907 0.6086 0.7665
H17_6 H 0.6086 0.2335 0.9093
H18_6 H 0.6086 0.7665 0.5907
C36_6 C 0.73488(12) 0.56730(11) 0.64362(11)
C37_6 C 0.56730(11) 0.35638(11) 0.76512(12)
C38_6 C 0.56730(11) 0.64362(11) 0.73488(12)
C39_6 C 0.64362(11) 0.26512(12) 0.93270(11)
C40_6 C 0.64362(11) 0.73488(12) 0.56730(11)
C41_6 C 0.68645(12) 0.58984(11) 0.59613(10)
C42_6 C 0.58984(11) 0.40387(10) 0.81355(12)
C43_6 C 0.58984(11) 0.59613(10) 0.68645(12)
C44_6 C 0.59613(10) 0.31355(12) 0.91016(11)
C45_6 C 0.59613(10) 0.68645(12) 0.58984(11)
H19_6 H 0.6700 0.5973 0.5803
H20_6 H 0.5973 0.4197 0.8300
H21_6 H 0.5973 0.5803 0.6700
H22_6 H 0.5803 0.3300 0.9027
H23_6 H 0.5803 0.6700 0.5973
C46_6 C 0.68638(10) 0.54586(10) 0.68246(10)
C47_6 C 0.54586(10) 0.31754(10) 0.81362(10)
C48_6 C 0.54586(10) 0.68246(10) 0.68638(10)
C49_6 C 0.68246(10) 0.31362(10) 0.95414(10)
C50_6 C 0.68246(10) 0.68638(10) 0.54586(10)
N12_6 N 0.76098(16) 0.55712(13) 0.66426(11)
N13_6 N 0.55712(13) 0.33574(11) 0.73902(16)
N14_6 N 0.55712(13) 0.66426(11) 0.76098(16)
N15_6 N 0.66426(11) 0.23902(16) 0.94288(13)
N16_6 N 0.66426(11) 0.76098(16) 0.55712(13)
H24_6 H 0.7566 0.5467 0.6834
H25_6 H 0.5467 0.3166 0.7434
H26_6 H 0.5467 0.6834 0.7566
H27_6 H 0.6834 0.2434 0.9533
H28_6 H 0.6834 0.7566 0.5467
H29_6 H 0.7820 0.5611 0.6583
H30_6 H 0.5611 0.3417 0.7180
H31_6 H 0.5611 0.6583 0.7820
H32_6 H 0.6583 0.2180 0.9389
H33_6 H 0.6583 0.7820 0.5611
C51_6 C 0.67597(12) 0.57289(11) 0.62544(11)
C52_6 C 0.57289(11) 0.37456(11) 0.82403(12)
C53_6 C 0.57289(11) 0.62544(11) 0.67597(12)
C54_6 C 0.62544(11) 0.32403(12) 0.92711(11)
C55_6 C 0.62544(11) 0.67597(12) 0.57289(11)
H34_6 H 0.6526 0.5683 0.6287
H35_6 H 0.5683 0.3713 0.8474
H36_6 H 0.5683 0.6287 0.6526
H37_6 H 0.6287 0.3474 0.9317
H38_6 H 0.6287 0.6526 0.5683
O19_4 O 0.20145(8) 0.20812(8) 0.02963(8)
O59_6 O 0.2500 0.25862(13) 0.0000
H83_8 H 0.271232 0.26717 0.0115783
H84_8 H 0.229357 0.26717 0.0125985
O8_15 O 0.24138(13) 0.0000 0.7500
O13_7 O 0.29188(8) 0.02963(8) 0.79855(8)
O15_7 O 0.47037(8) 0.20145(8) 0.79188(8)
O17_4 O 0.29855(8) 0.20812(8) 0.97037(8)
C21_7 C 0.30076(10) 0.06257(10) 0.85001(10)
C23_7 C 0.43743(10) 0.14999(10) 0.80076(10)
C25_7 C 0.35001(10) 0.19924(10) 0.93743(10)
C31_7 C 0.25657(12) 0.08568(10) 0.88722(11)
C33_7 C 0.41432(10) 0.11278(11) 0.75657(12)
C35_7 C 0.38722(11) 0.24343(12) 0.91432(10)
H14_7 H 0.2335 0.0907 0.8914
H16_7 H 0.4093 0.1086 0.7335
H18_7 H 0.3914 0.2665 0.9093
C36_7 C 0.26512(12) 0.06730(11) 0.85638(11)
C38_7 C 0.43270(11) 0.14362(11) 0.76512(12)
C40_7 C 0.35638(11) 0.23488(12) 0.93270(11)
C41_7 C 0.31355(12) 0.08984(11) 0.90387(10)
C43_7 C 0.41016(11) 0.09613(10) 0.81355(12)
C45_7 C 0.40387(10) 0.18645(12) 0.91016(11)
H19_7 H 0.3300 0.0973 0.9197
H21_7 H 0.4027 0.0803 0.8300
H23_7 H 0.4197 0.1700 0.9027
C46_7 C 0.31362(10) 0.04586(10) 0.81754(10)
C48_7 C 0.45414(10) 0.18246(10) 0.81362(10)
C50_7 C 0.31754(10) 0.18638(10) 0.95414(10)
N12_7 N 0.23902(16) 0.05712(13) 0.83574(11)
N14_7 N 0.44288(13) 0.16426(11) 0.73902(16)
N16_7 N 0.33574(11) 0.26098(16) 0.94288(13)
H24_7 H 0.2434 0.0467 0.8166
H26_7 H 0.4533 0.1834 0.7434
H28_7 H 0.3166 0.2566 0.9533
H29_7 H 0.2180 0.0611 0.8417
H31_7 H 0.4389 0.1583 0.7180
H33_7 H 0.3417 0.2820 0.9389
C51_7 C 0.32403(12) 0.07289(11) 0.87456(11)
C53_7 C 0.42711(11) 0.12544(11) 0.82403(12)
C55_7 C 0.37456(11) 0.17597(12) 0.92711(11)
H34_7 H 0.3474 0.0683 0.8713
H36_7 H 0.4317 0.1287 0.8474
H38_7 H 0.3713 0.1526 0.9317
O59_7 O 0.2500 0.25862(13) 1.0000
H79_5 H 0.23283 0.0115783 0.728768
H80_5 H 0.23283 0.0125985 0.770643
O2_7 O 0.29188(8) 0.97037(8) 0.70145(8)
C1_7 C 0.30076(10) 0.93743(10) 0.64999(10)
C3_7 C 0.25657(12) 0.91432(10) 0.61278(11)
H1_7 H 0.2335 0.9093 0.6086
C4_7 C 0.26512(12) 0.93270(11) 0.64362(11)
C5_7 C 0.31355(12) 0.91016(11) 0.59613(10)
H2_7 H 0.3300 0.9027 0.5803
C6_7 C 0.31362(10) 0.95414(10) 0.68246(10)
N2_7 N 0.23902(16) 0.94288(13) 0.66426(11)
H3_7 H 0.2434 0.9533 0.6834
H4_7 H 0.2180 0.9389 0.6583
C7_7 C 0.32403(12) 0.92711(11) 0.62544(11)
H5_7 H 0.3474 0.9317 0.6287
O8_16 O 0.24138(13) 1.0000 0.7500
O14_7 O 0.47037(8) 0.79855(8) 0.70812(8)
O16_4 O 0.29855(8) 0.79188(8) 0.52963(8)
O18_4 O 0.20145(8) 0.79188(8) 0.47037(8)
C22_7 C 0.43743(10) 0.85001(10) 0.69924(10)
C24_7 C 0.35001(10) 0.80076(10) 0.56257(10)
C32_7 C 0.41432(10) 0.88722(11) 0.74343(12)
C34_7 C 0.38722(11) 0.75657(12) 0.58568(10)
H15_7 H 0.4093 0.8914 0.7665
H17_7 H 0.3914 0.7335 0.5907
C37_7 C 0.43270(11) 0.85638(11) 0.73488(12)
C39_7 C 0.35638(11) 0.76512(12) 0.56730(11)
C42_7 C 0.41016(11) 0.90387(10) 0.68645(12)
C44_7 C 0.40387(10) 0.81355(12) 0.58984(11)
H20_7 H 0.4027 0.9197 0.6700
H22_7 H 0.4197 0.8300 0.5973
C47_7 C 0.45414(10) 0.81754(10) 0.68638(10)
C49_7 C 0.31754(10) 0.81362(10) 0.54586(10)
N13_7 N 0.44288(13) 0.83574(11) 0.76098(16)
N15_7 N 0.33574(11) 0.73902(16) 0.55712(13)
H25_7 H 0.4533 0.8166 0.7566
H27_7 H 0.3166 0.7434 0.5467
H30_7 H 0.4389 0.8417 0.7820
H32_7 H 0.3417 0.7180 0.5611
C52_7 C 0.42711(11) 0.87456(11) 0.67597(12)
C54_7 C 0.37456(11) 0.82403(12) 0.57289(11)
H35_7 H 0.4317 0.8713 0.6526
H37_7 H 0.3713 0.8474 0.5683
O58_5 O 0.2500 0.74138(13) 0.5000
O2_8 O 0.20812(8) 0.02963(8) 0.20145(8)
C1_8 C 0.19924(10) 0.06257(10) 0.14999(10)
C3_8 C 0.24343(12) 0.08568(10) 0.11278(11)
H1_8 H 0.2665 0.0907 0.1086
C4_8 C 0.23488(12) 0.06730(11) 0.14362(11)
C5_8 C 0.18645(12) 0.08984(11) 0.09613(10)
H2_8 H 0.1700 0.0973 0.0803
C6_8 C 0.18638(10) 0.04586(10) 0.18246(10)
N2_8 N 0.26098(16) 0.05712(13) 0.16426(11)
H3_8 H 0.2566 0.0467 0.1834
H4_8 H 0.2820 0.0611 0.1583
C7_8 C 0.17597(12) 0.07289(11) 0.12544(11)
H5_8 H 0.1526 0.0683 0.1287
O8_17 O 0.25862(13) 0.0000 0.2500
O14_8 O 0.02963(8) 0.20145(8) 0.20812(8)
C22_8 C 0.06257(10) 0.14999(10) 0.19924(10)
C24_8 C 0.14999(10) 0.19924(10) 0.06257(10)
C32_8 C 0.08568(10) 0.11278(11) 0.24343(12)
C34_8 C 0.11278(11) 0.24343(12) 0.08568(10)
H15_8 H 0.0907 0.1086 0.2665
H17_8 H 0.1086 0.2665 0.0907
C37_8 C 0.06730(11) 0.14362(11) 0.23488(12)
C39_8 C 0.14362(11) 0.23488(12) 0.06730(11)
C42_8 C 0.08984(11) 0.09613(10) 0.18645(12)
C44_8 C 0.09613(10) 0.18645(12) 0.08984(11)
H20_8 H 0.0973 0.0803 0.1700
H22_8 H 0.0803 0.1700 0.0973
C47_8 C 0.04586(10) 0.18246(10) 0.18638(10)
C49_8 C 0.18246(10) 0.18638(10) 0.04586(10)
N13_8 N 0.05712(13) 0.16426(11) 0.26098(16)
N15_8 N 0.16426(11) 0.26098(16) 0.05712(13)
H25_8 H 0.0467 0.1834 0.2566
H27_8 H 0.1834 0.2566 0.0467
H30_8 H 0.0611 0.1583 0.2820
H32_8 H 0.1583 0.2820 0.0611
C52_8 C 0.07289(11) 0.12544(11) 0.17597(12)
C54_8 C 0.12544(11) 0.17597(12) 0.07289(11)
H35_8 H 0.0683 0.1287 0.1526
H37_8 H 0.1287 0.1526 0.0683
H81_4 H 0.228768 0.26717 0.988422
H82_4 H 0.270643 0.26717 0.987401
O8_18 O 0.25862(13) 1.0000 0.2500
O13_8 O 0.20812(8) 0.97037(8) 0.29855(8)
O15_8 O 0.02963(8) 0.79855(8) 0.29188(8)
C21_8 C 0.19924(10) 0.93743(10) 0.35001(10)
C23_8 C 0.06257(10) 0.85001(10) 0.30076(10)
C25_8 C 0.14999(10) 0.80076(10) 0.43743(10)
C31_8 C 0.24343(12) 0.91432(10) 0.38722(11)
C33_8 C 0.08568(10) 0.88722(11) 0.25657(12)
C35_8 C 0.11278(11) 0.75657(12) 0.41432(10)
H14_8 H 0.2665 0.9093 0.3914
H16_8 H 0.0907 0.8914 0.2335
H18_8 H 0.1086 0.7335 0.4093
C36_8 C 0.23488(12) 0.93270(11) 0.35638(11)
C38_8 C 0.06730(11) 0.85638(11) 0.26512(12)
C40_8 C 0.14362(11) 0.76512(12) 0.43270(11)
C41_8 C 0.18645(12) 0.91016(11) 0.40387(10)
C43_8 C 0.08984(11) 0.90387(10) 0.31355(12)
C45_8 C 0.09613(10) 0.81355(12) 0.41016(11)
H19_8 H 0.1700 0.9027 0.4197
H21_8 H 0.0973 0.9197 0.3300
H23_8 H 0.0803 0.8300 0.4027
C46_8 C 0.18638(10) 0.95414(10) 0.31754(10)
C48_8 C 0.04586(10) 0.81754(10) 0.31362(10)
C50_8 C 0.18246(10) 0.81362(10) 0.45414(10)
N12_8 N 0.26098(16) 0.94288(13) 0.33574(11)
N14_8 N 0.05712(13) 0.83574(11) 0.23902(16)
N16_8 N 0.16426(11) 0.73902(16) 0.44288(13)
H24_8 H 0.2566 0.9533 0.3166
H26_8 H 0.0467 0.8166 0.2434
H28_8 H 0.1834 0.7434 0.4533
H29_8 H 0.2820 0.9389 0.3417
H31_8 H 0.0611 0.8417 0.2180
H33_8 H 0.1583 0.7180 0.4389
C51_8 C 0.17597(12) 0.92711(11) 0.37456(11)
C53_8 C 0.07289(11) 0.87456(11) 0.32403(12)
C55_8 C 0.12544(11) 0.82403(12) 0.42711(11)
H34_8 H 0.1526 0.9317 0.3713
H36_8 H 0.0683 0.8713 0.3474
H38_8 H 0.1287 0.8474 0.4317
H79_6 H 0.26717 0.988422 0.228768
H80_6 H 0.26717 0.987401 0.270643
O8_19 O 0.5000 0.2500 0.74138(13)
H83_9 H 0.23283 0.988422 0.771232
H84_9 H 0.23283 0.987401 0.729357
O8_20 O 0.5000 0.7500 0.75862(13)
H83_10 H 0.26717 0.0115783 0.271232
H84_10 H 0.26717 0.0125985 0.229357
O8_21 O -0.0000 0.7500 0.24138(13)
H79_7 H 0.0115783 0.728768 0.23283
H80_7 H 0.0125985 0.770643 0.23283
O8_22 O 1.0000 0.7500 0.24138(13)
O8_23 O -0.0000 0.2500 0.25862(13)
O8_24 O 1.0000 0.2500 0.25862(13)
H79_8 H 0.988422 0.228768 0.26717
H80_8 H 0.987401 0.270643 0.26717
H83_11 H 0.988422 0.771232 0.23283
H84_11 H 0.987401 0.729357 0.23283
H83_12 H 0.0115783 0.271232 0.26717
H84_12 H 0.0125985 0.229357 0.26717
loop_
_geom_bond_atom_site_label_1
_geom_bond_atom_site_label_2
_geom_bond_site_symmetry_1
_geom_bond_site_symmetry_2
In1 O1 1_555 1_555
In2 O1 1_555 1_555
O2 In1 1_555 1_555
O3 In1 1_555 1_555
O6 In2 1_555 1_555
O7 C8 1_555 1_555
N1 C3 1_555 1_555
C1 C4 1_555 1_555
C3 H1 1_555 1_555
C4 C3 1_555 1_555
C5 N1 1_555 1_555
H2 C5 1_555 1_555
C6 O2 1_555 1_555
N2 C4 1_555 1_555
H3 N2 1_555 1_555
H4 N2 1_555 1_555
C7 C1 1_555 1_555
H5 C7 1_555 1_555
C8 O3 1_555 1_555
C9 C8 1_555 1_555
O8 In1 1_555 1_555
C11 C9 1_555 1_555
H6 C11 1_555 1_555
C14 C9 1_555 1_555
H8 C14 1_555 1_555
N3 C17 1_555 1_555
C17 C19 1_555 1_555
N4 C13 1_555 1_555
C19 C11 1_555 1_555
H12 C19 1_555 1_555
C20 C14 1_555 1_555
H13 C20 1_555 1_555
In3 O9 1_555 1_555
In5 O14 1_555 1_555
In7_2 O22 1_555 1_555
In9 O23 1_555 1_555
In11 N1 1_555 1_555
In17 O44 1_555 1_555
In19 O52 1_555 1_555
In21 O9 1_555 1_555
In22 O53 1_555 1_555
O9 In11 1_555 1_555
O14 C47 1_555 1_555
O16 In3 1_555 1_555
O18 In3 1_555 1_555
O22 C58 1_555 1_555
O23 C59 1_555 1_555
O24 In3 1_555 1_555
O25 In3 1_555 1_555
O31 In11 1_555 1_555
O36 In2 1_555 1_555
O37 In21 1_555 1_555
O39 In11 1_555 1_555
O44 C47 1_555 1_555
O46 In11 1_555 1_555
O52 C58 1_555 1_555
O53 C59 1_555 1_555
O54 In11 1_555 1_555
N6 In2 1_555 1_555
N8 In17 1_555 1_555
C22 C37 1_555 1_555
C24 C39 1_555 1_555
C28 O30 1_555 1_555
C29 O31 1_555 1_555
C32 N6 1_555 1_555
C34 N8 1_555 1_555
H17 C34 1_555 1_555
C37 C32 1_555 1_555
C39 C34 1_555 1_555
C42 N6 1_555 1_555
C44 N8 1_555 1_555
H20 C42 1_555 1_555
H22 C44 1_555 1_555
C47 C22 1_555 1_555
C49 O16 1_555 1_555
N15 C39 1_555 1_555
H26 N14 1_555 1_555
H27 N15 1_555 1_555
H31 N14 1_555 1_555
H32 N15 1_555 1_555
C52 C22 1_555 1_555
C54 C24 1_555 1_555
H35 C52 1_555 1_555
H37 C54 1_555 1_555
C58 C63 1_555 1_555
C59 C64 1_555 1_555
C60 O24 1_555 1_555
C63 C73 1_555 1_555
C64 C74 1_555 1_555
C65 C60 1_555 1_555
O58 In3 1_555 1_555
C68 C28 1_555 1_555
C69 C29 1_555 1_555
C73 H41 1_555 1_555
C74 H42 1_555 1_555
C75 C65 1_555 1_555
H43 C75 1_555 1_555
C78 H46 1_555 1_555
C79 H47 1_555 1_555
C83 C78 1_555 1_555
C84 C79 1_555 1_555
C88 C63 1_555 1_555
C89 C64 1_555 1_555
C90 C65 1_555 1_555
H51 C88 1_555 1_555
H52 C89 1_555 1_555
H53 C90 1_555 1_555
C93 C68 1_555 1_555
C94 C69 1_555 1_555
H56 C93 1_555 1_555
H57 C94 1_555 1_555
N19 C103 1_555 1_555
N20 C104 1_555 1_555
N21 C105 1_555 1_555
C98 C83 1_555 1_555
C99 C84 1_555 1_555
H61 C98 1_555 1_555
H62 C99 1_555 1_555
C103 C113 1_555 1_555
C104 C114 1_555 1_555
C105 C115 1_555 1_555
C108 C68 1_555 1_555
C109 C69 1_555 1_555
H66 C108 1_555 1_555
H67 C109 1_555 1_555
N24 C83 1_555 1_555
N25 C84 1_555 1_555
N26 C85 1_555 1_555
C113 C73 1_555 1_555
C114 C74 1_555 1_555
C115 C75 1_555 1_555
H71 C113 1_555 1_555
H72 C114 1_555 1_555
H73 C115 1_555 1_555
C118 C88 1_555 1_555
C119 C89 1_555 1_555
C120 C90 1_555 1_555
H76 C118 1_555 1_555
H77 C119 1_555 1_555
H78 C120 1_555 1_555
O6 C6 1_555 1_555
C1 C6 1_555 1_555
C5 C7 1_555 1_555
N3 N4 1_555 1_555
C17 C20 1_555 1_555
O36 C28 1_555 1_555
O37 C29 1_555 1_555
O46 C49 1_555 1_555
O54 C60 1_555 1_555
C24 C49 1_555 1_555
C42 C52 1_555 1_555
C44 C54 1_555 1_555
C78 C108 1_555 1_555
C79 C109 1_555 1_555
C93 C98 1_555 1_555
C94 C99 1_555 1_555
N19 N24 1_555 1_555
N20 N25 1_555 1_555
N21 N26 1_555 1_555
C103 C118 1_555 1_555
C104 C119 1_555 1_555
C105 C120 1_555 1_555
O8 H79 1_555 1_555
In1_2 O1_2 1_555 1_555
O1_2 In10 1_555 1_555
O8_2 In1_2 1_555 1_555
In4 O10 1_555 1_555
In6_2 O21 1_555 1_555
In8 O15 1_555 1_555
In12 O10 1_555 1_555
In14 O12 1_555 1_555
In16 O12 1_555 1_555
In18 O51 1_555 1_555
In20 O45 1_555 1_555
In23 O32 1_555 1_555
In24 O38 1_555 1_555
In25 O10 1_555 1_555
O13 In1_2 1_555 1_555
O15 C48 1_555 1_555
O17 In4 1_555 1_555
O19 In4 1_555 1_555
O20 In1_2 1_555 1_555
O21 C57 1_555 1_555
O26 In4 1_555 1_555
O27 In4 1_555 1_555
O28 In14 1_555 1_555
O32 C30 1_555 1_555
O33 In12 1_555 1_555
O34 In16 1_555 1_555
O35 In10 1_555 1_555
O38 C30 1_555 1_555
O40 In12 1_555 1_555
O42 In14 1_555 1_555
O43 In10 1_555 1_555
O45 C48 1_555 1_555
O47 In12 1_555 1_555
O49 In14 1_555 1_555
O51 C57 1_555 1_555
O55 In12 1_555 1_555
O57 In14 1_555 1_555
N5 In12 1_555 1_555
N7 In10 1_555 1_555
N9 In20 1_555 1_555
N11 In14 1_555 1_555
C21 C36 1_555 1_555
C23 C38 1_555 1_555
C25 C40 1_555 1_555
C26 O28 1_555 1_555
C27 O29 1_555 1_555
C30 C70 1_555 1_555
C31 N5 1_555 1_555
C33 N7 1_555 1_555
C35 N9 1_555 1_555
H14 C31 1_555 1_555
C36 C31 1_555 1_555
C38 C33 1_555 1_555
C40 C35 1_555 1_555
C41 N5 1_555 1_555
C43 N7 1_555 1_555
C45 N9 1_555 1_555
H19 C41 1_555 1_555
H21 C43 1_555 1_555
H23 C45 1_555 1_555
C46 O13 1_555 1_555
C48 C23 1_555 1_555
C50 O17 1_555 1_555
N12 C36 1_555 1_555
H24 N12 1_555 1_555
H25 N13 1_555 1_555
H29 N12 1_555 1_555
H30 N13 1_555 1_555
C51 C21 1_555 1_555
C53 C23 1_555 1_555
C55 C25 1_555 1_555
H34 C51 1_555 1_555
H36 C53 1_555 1_555
H38 C55 1_555 1_555
C56 O20 1_555 1_555
C57 C62 1_555 1_555
C61 C56 1_555 1_555
C62 C72 1_555 1_555
C66 C26 1_555 1_555
C67 C27 1_555 1_555
C70 C95 1_555 1_555
C71 C61 1_555 1_555
C72 H40 1_555 1_555
H39 C71 1_555 1_555
C76 H44 1_555 1_555
C77 H45 1_555 1_555
C81 C76 1_555 1_555
C82 C77 1_555 1_555
C86 C61 1_555 1_555
C87 C62 1_555 1_555
H49 C86 1_555 1_555
H50 C87 1_555 1_555
C91 C66 1_555 1_555
C92 C67 1_555 1_555
C95 H58 1_555 1_555
H54 C91 1_555 1_555
H55 C92 1_555 1_555
N17 C101 1_555 1_555
N18 C102 1_555 1_555
C96 C81 1_555 1_555
C97 C82 1_555 1_555
H59 C96 1_555 1_555
H60 C97 1_555 1_555
H63 C100 1_555 1_555
C101 C111 1_555 1_555
C102 C112 1_555 1_555
C106 C66 1_555 1_555
C107 C67 1_555 1_555
C110 C70 1_555 1_555
H64 C106 1_555 1_555
H65 C107 1_555 1_555
H68 C110 1_555 1_555
N22 C81 1_555 1_555
N23 C82 1_555 1_555
C111 C71 1_555 1_555
C112 C72 1_555 1_555
H69 C111 1_555 1_555
H70 C112 1_555 1_555
C116 C86 1_555 1_555
C117 C87 1_555 1_555
H74 C116 1_555 1_555
H75 C117 1_555 1_555
O34 C26 1_555 1_555
O35 C27 1_555 1_555
O43 C46 1_555 1_555
O47 C50 1_555 1_555
O50 C56 1_555 1_555
C21 C46 1_555 1_555
C25 C50 1_555 1_555
C41 C51 1_555 1_555
C43 C53 1_555 1_555
C45 C55 1_555 1_555
C76 C106 1_555 1_555
C77 C107 1_555 1_555
C80 C110 1_555 1_555
C91 C96 1_555 1_555
C92 C97 1_555 1_555
C95 C100 1_555 1_555
N17 N22 1_555 1_555
N18 N23 1_555 1_555
C101 C116 1_555 1_555
C102 C117 1_555 1_555
O8_2 H80 1_555 1_555
O4 C2 1_555 1_555
O5 C2 1_555 1_555
C2 C10 1_555 1_555
C10 C15 1_555 1_555
C15 H9 1_555 1_555
H10 C16 1_555 1_555
C18 C10 1_555 1_555
H11 C18 1_555 1_555
In13 O4 1_555 1_555
In15 O5 1_555 1_555
O11 In13 1_555 1_555
O41 In13 1_555 1_555
O48 In13 1_555 1_555
O56 In13 1_555 1_555
N10 In13 1_555 1_555
C12 C18 1_555 1_555
C15 C16 1_555 1_555
In15 O11 1_555 1_555
H28 N16 1_555 1_555
H33 N16 1_555 1_555
In1_3 O1_3 1_555 1_555
In2_2 O1_3 1_555 1_555
O1_3 In10_2 1_555 1_555
O2_2 In1_3 1_555 1_555
O3_2 In1_3 1_555 1_555
O4_2 C2_2 1_555 1_555
O42 C2_2 1_555 1_555
O6_2 In2_2 1_555 1_555
O7_2 C8_2 1_555 1_555
N1_2 C3_2 1_555 1_555
C1_2 C4_2 1_555 1_555
C2_2 C10_2 1_555 1_555
C3_2 H1_2 1_555 1_555
C4_2 C3_2 1_555 1_555
C5_2 N1_2 1_555 1_555
H2_2 C5_2 1_555 1_555
C6_2 O2_2 1_555 1_555
N2_2 C4_2 1_555 1_555
H3_2 N2_2 1_555 1_555
H4_2 N2_2 1_555 1_555
C7_2 C1_2 1_555 1_555
H5_2 C7_2 1_555 1_555
C8_2 O3_2 1_555 1_555
C9_2 C8_2 1_555 1_555
O8_3 In1_3 1_555 1_555
C10_2 C15_2 1_555 1_555
C11_2 C9_2 1_555 1_555
H6_2 C11_2 1_555 1_555
C12_2 H7_2 1_555 1_555
C13_2 C12_2 1_555 1_555
C14_2 C9_2 1_555 1_555
H8_2 C14_2 1_555 1_555
C15_2 H9_2 1_555 1_555
N3_2 C17_2 1_555 1_555
C16_2 C13_2 1_555 1_555
H10_2 C16_2 1_555 1_555
C17_2 C19_2 1_555 1_555
C18_2 C10_2 1_555 1_555
H11_2 C18_2 1_555 1_555
N4_2 C13_2 1_555 1_555
C19_2 C11_2 1_555 1_555
H12_2 C19_2 1_555 1_555
C20_2 C14_2 1_555 1_555
H13_2 C20_2 1_555 1_555
In5_2 O14_2 1_555 1_555
In7 O21_2 1_555 1_555
In6 O22_2 1_555 1_555
In8_3 O15_2 1_555 1_555
In9_3 O23_2 1_555 1_555
In10_2 O7_2 1_555 1_555
In25 N1_2 1_555 1_555
In16 O4_2 1_555 1_555
In17_2 O44_2 1_555 1_555
In18_2 O51_2 1_555 1_555
In19_2 O52_2 1_555 1_555
In20_2 O45_2 1_555 1_555
In22_2 O53_2 1_555 1_555
In23_2 O32_2 1_555 1_555
O13_2 In1_3 1_555 1_555
O14_2 C47_2 1_555 1_555
O15_2 C48_2 1_555 1_555
O20_2 In1_3 1_555 1_555
O21_2 C57_2 1_555 1_555
O22_2 C58_2 1_555 1_555
O23_2 C59_2 1_555 1_555
O29_2 In2_2 1_555 1_555
O30_2 In10_2 1_555 1_555
O31_2 In25 1_555 1_555
O32_2 C30_2 1_555 1_555
O33_2 In21 1_555 1_555
O35_2 In10_2 1_555 1_555
O36_2 In2_2 1_555 1_555
O39_2 In25 1_555 1_555
O43_2 In10_2 1_555 1_555
O44_2 C47_2 1_555 1_555
O45_2 C48_2 1_555 1_555
O46_2 In25 1_555 1_555
O47_2 In21 1_555 1_555
O48_2 In16 1_555 1_555
O50_2 In2_2 1_555 1_555
O51_2 C57_2 1_555 1_555
O52_2 C58_2 1_555 1_555
O53_2 C59_2 1_555 1_555
O54_2 In25 1_555 1_555
O55_2 In21 1_555 1_555
O56_2 In16 1_555 1_555
N5_2 In21 1_555 1_555
N6_2 In2_2 1_555 1_555
N7_2 In10_2 1_555 1_555
N8_2 In17_2 1_555 1_555
N9_2 In20_2 1_555 1_555
N10_2 In16 1_555 1_555
C21_2 C36_2 1_555 1_555
C22_2 C37_2 1_555 1_555
C23_2 C38_2 1_555 1_555
C24_2 C39_2 1_555 1_555
C25_2 C40_2 1_555 1_555
C27_2 O29_2 1_555 1_555
C28_2 O30_2 1_555 1_555
C29_2 O31_2 1_555 1_555
C30_2 C70_2 1_555 1_555
C31_2 N5_2 1_555 1_555
C32_2 N6_2 1_555 1_555
C33_2 N7_2 1_555 1_555
C34_2 N8_2 1_555 1_555
C35_2 N9_2 1_555 1_555
H14_2 C31_2 1_555 1_555
H15_2 C32_2 1_555 1_555
H16_2 C33_2 1_555 1_555
H18_2 C35_2 1_555 1_555
C36_2 C31_2 1_555 1_555
C37_2 C32_2 1_555 1_555
C38_2 C33_2 1_555 1_555
C39_2 C34_2 1_555 1_555
C40_2 C35_2 1_555 1_555
C41_2 N5_2 1_555 1_555
C42_2 N6_2 1_555 1_555
C43_2 N7_2 1_555 1_555
C44_2 N8_2 1_555 1_555
C45_2 N9_2 1_555 1_555
H19_2 C41_2 1_555 1_555
H20_2 C42_2 1_555 1_555
H21_2 C43_2 1_555 1_555
H22_2 C44_2 1_555 1_555
H23_2 C45_2 1_555 1_555
C46_2 O13_2 1_555 1_555
C47_2 C22_2 1_555 1_555
C48_2 C23_2 1_555 1_555
C49_2 O19 1_555 1_555
C50_2 O18 1_555 1_555
N12_2 C36_2 1_555 1_555
N13_2 C37_2 1_555 1_555
N14_2 C38_2 1_555 1_555
N16_2 C40_2 1_555 1_555
H24_2 N12_2 1_555 1_555
H25_2 N13_2 1_555 1_555
H26_2 N14_2 1_555 1_555
H28_2 N16_2 1_555 1_555
H29_2 N12_2 1_555 1_555
H30_2 N13_2 1_555 1_555
H31_2 N14_2 1_555 1_555
H33_2 N16_2 1_555 1_555
C51_2 C21_2 1_555 1_555
C52_2 C22_2 1_555 1_555
C53_2 C23_2 1_555 1_555
C54_2 C24_2 1_555 1_555
C55_2 C25_2 1_555 1_555
H34_2 C51_2 1_555 1_555
H35_2 C52_2 1_555 1_555
H36_2 C53_2 1_555 1_555
H37_2 C54_2 1_555 1_555
H38_2 C55_2 1_555 1_555
C56_2 O20_2 1_555 1_555
C57_2 C62_2 1_555 1_555
C58_2 C63_2 1_555 1_555
C59_2 C64_2 1_555 1_555
C60_2 O26 1_555 1_555
C61_2 C56_2 1_555 1_555
C62_2 C72_2 1_555 1_555
C63_2 C73_2 1_555 1_555
C64_2 C74_2 1_555 1_555
C65_2 C60_2 1_555 1_555
C67_2 C27_2 1_555 1_555
C68_2 C28_2 1_555 1_555
C69_2 C29_2 1_555 1_555
C70_2 C95_2 1_555 1_555
C71_2 C61_2 1_555 1_555
C72_2 H40_2 1_555 1_555
C73_2 H41_2 1_555 1_555
C74_2 H42_2 1_555 1_555
C75_2 C65_2 1_555 1_555
H39_2 C71_2 1_555 1_555
H43_2 C75_2 1_555 1_555
C77_2 H45_2 1_555 1_555
C78_2 H46_2 1_555 1_555
C79_2 H47_2 1_555 1_555
C82_2 C77_2 1_555 1_555
C83_2 C78_2 1_555 1_555
C84_2 C79_2 1_555 1_555
C85_2 C80_2 1_555 1_555
C86_2 C61_2 1_555 1_555
C87_2 C62_2 1_555 1_555
C88_2 C63_2 1_555 1_555
C89_2 C64_2 1_555 1_555
C90_2 C65_2 1_555 1_555
H49_2 C86_2 1_555 1_555
H50_2 C87_2 1_555 1_555
H51_2 C88_2 1_555 1_555
H52_2 C89_2 1_555 1_555
H53_2 C90_2 1_555 1_555
C92_2 C67_2 1_555 1_555
C93_2 C68_2 1_555 1_555
C94_2 C69_2 1_555 1_555
C95_2 H58_2 1_555 1_555
H55_2 C92_2 1_555 1_555
H56_2 C93_2 1_555 1_555
H57_2 C94_2 1_555 1_555
N17_2 C101_2 1_555 1_555
N18_2 C102_2 1_555 1_555
N19_2 C103_2 1_555 1_555
N20_2 C104_2 1_555 1_555
N21_2 C105_2 1_555 1_555
C97_2 C82_2 1_555 1_555
C98_2 C83_2 1_555 1_555
C99_2 C84_2 1_555 1_555
C100_2 C85_2 1_555 1_555
H60_2 C97_2 1_555 1_555
H61_2 C98_2 1_555 1_555
H62_2 C99_2 1_555 1_555
H63_2 C100_2 1_555 1_555
C101_2 C111_2 1_555 1_555
C102_2 C112_2 1_555 1_555
C103_2 C113_2 1_555 1_555
C104_2 C114_2 1_555 1_555
C105_2 C115_2 1_555 1_555
C107_2 C67_2 1_555 1_555
C108_2 C68_2 1_555 1_555
C109_2 C69_2 1_555 1_555
H65_2 C107_2 1_555 1_555
H66_2 C108_2 1_555 1_555
H67_2 C109_2 1_555 1_555
N22_2 C81_2 1_555 1_555
N23_2 C82_2 1_555 1_555
N24_2 C83_2 1_555 1_555
N25_2 C84_2 1_555 1_555
N26_2 C85_2 1_555 1_555
C111_2 C71_2 1_555 1_555
C112_2 C72_2 1_555 1_555
C113_2 C73_2 1_555 1_555
C114_2 C74_2 1_555 1_555
C115_2 C75_2 1_555 1_555
H69_2 C111_2 1_555 1_555
H70_2 C112_2 1_555 1_555
H71_2 C113_2 1_555 1_555
H72_2 C114_2 1_555 1_555
C116_2 C86_2 1_555 1_555
C117_2 C87_2 1_555 1_555
C118_2 C88_2 1_555 1_555
C119_2 C89_2 1_555 1_555
C120_2 C90_2 1_555 1_555
H74_2 C116_2 1_555 1_555
H75_2 C117_2 1_555 1_555
H76_2 C118_2 1_555 1_555
H77_2 C119_2 1_555 1_555
H78_2 C120_2 1_555 1_555
O6_2 C6_2 1_555 1_555
C1_2 C6_2 1_555 1_555
C5_2 C7_2 1_555 1_555
C12_2 C18_2 1_555 1_555
C15_2 C16_2 1_555 1_555
N3_2 N4_2 1_555 1_555
C17_2 C20_2 1_555 1_555
O35_2 C27_2 1_555 1_555
O36_2 C28_2 1_555 1_555
O40 C29_2 1_555 1_555
O43_2 C46_2 1_555 1_555
O46_2 C49_2 1_555 1_555
O47_2 C50_2 1_555 1_555
O50_2 C56_2 1_555 1_555
O54_2 C60_2 1_555 1_555
C21_2 C46_2 1_555 1_555
C24_2 C49_2 1_555 1_555
C25_2 C50_2 1_555 1_555
C41_2 C51_2 1_555 1_555
C42_2 C52_2 1_555 1_555
C43_2 C53_2 1_555 1_555
C44_2 C54_2 1_555 1_555
C45_2 C55_2 1_555 1_555
C77_2 C107_2 1_555 1_555
C78_2 C108_2 1_555 1_555
C79_2 C109_2 1_555 1_555
C92_2 C97_2 1_555 1_555
C93_2 C98_2 1_555 1_555
C94_2 C99_2 1_555 1_555
C95_2 C100_2 1_555 1_555
N17_2 N22_2 1_555 1_555
N18_2 N23_2 1_555 1_555
N19_2 N24_2 1_555 1_555
N20_2 N25_2 1_555 1_555
N21_2 N26_2 1_555 1_555
C101_2 C116_2 1_555 1_555
C102_2 C117_2 1_555 1_555
C103_2 C118_2 1_555 1_555
C104_2 C119_2 1_555 1_555
C105_2 C120_2 1_555 1_555
In24_2 O38_2 1_555 1_555
O28_2 In15 1_555 1_555
O49_2 In15 1_555 1_555
O57_2 In15 1_555 1_555
N11_2 In15 1_555 1_555
C26_2 O28_2 1_555 1_555
H27_2 N15_2 1_555 1_555
H32_2 N15_2 1_555 1_555
C66_2 C26_2 1_555 1_555
C91_2 C66_2 1_555 1_555
H54_2 C91_2 1_555 1_555
H59_2 C96_2 1_555 1_555
C106_2 C66_2 1_555 1_555
H64_2 C106_2 1_555 1_555
H68_2 C110_2 1_555 1_555
O41 C26_2 1_555 1_555
C76_2 C106_2 1_555 1_555
C91_2 C96_2 1_555 1_555
O4_3 C2_3 1_555 1_555
C2_3 C10_3 1_555 1_555
C10_3 C15_3 1_555 1_555
C15_3 H9_3 1_555 1_555
H10_3 C16_3 1_555 1_555
In18_2 O4_3 1_555 1_555
O11_2 In18_2 1_555 1_555
O41_2 In18_2 1_555 1_555
O48_3 In18_2 1_555 1_555
N10_3 In18_2 1_555 1_555
H28_3 N16_3 1_555 1_555
H33_3 N16_3 1_555 1_555
C15_3 C16_3 1_555 1_555
O59_2 H83 1_555 1_555
H11_3 C18_3 1_555 1_555
In19 O5_2 1_555 1_555
In19 O11_3 1_555 1_555
O59_3 H84 1_555 1_555
In1_4 O1_4 1_555 1_555
In2_3 O1_4 1_555 1_555
O1_4 In10_3 1_555 1_555
O2_3 In1_4 1_555 1_555
O3_3 In1_4 1_555 1_555
O6_3 In2_3 1_555 1_555
O7_3 C8_3 1_555 1_555
N1_3 C3_3 1_555 1_555
C1_3 C4_3 1_555 1_555
C4_3 C3_3 1_555 1_555
C5_3 N1_3 1_555 1_555
H2_3 C5_3 1_555 1_555
C6_3 O2_3 1_555 1_555
C7_3 C1_3 1_555 1_555
H5_3 C7_3 1_555 1_555
C8_3 O3_3 1_555 1_555
C9_3 C8_3 1_555 1_555
C11_3 C9_3 1_555 1_555
H6_3 C11_3 1_555 1_555
C14_3 C9_3 1_555 1_555
H8_3 C14_3 1_555 1_555
N3_3 C17_3 1_555 1_555
C17_3 C19_3 1_555 1_555
N4_3 C13_3 1_555 1_555
C19_3 C11_3 1_555 1_555
C20_3 C14_3 1_555 1_555
H13_3 C20_3 1_555 1_555
In3_2 O9_2 1_555 1_555
In4_2 O10_2 1_555 1_555
In8_3 O14_3 1_555 1_555
In6_3 O21_3 1_555 1_555
In7_3 O22_3 1_555 1_555
In5_3 O15_3 1_555 1_555
In10_3 O7_3 1_555 1_555
In11_2 N1_3 1_555 1_555
In12_2 O10_2 1_555 1_555
In19_2 O12_2 1_555 1_555
In17_3 O44_3 1_555 1_555
In20_3 O45_3 1_555 1_555
O9_2 In11_2 1_555 1_555
O13_3 In1_4 1_555 1_555
O14_3 C47_3 1_555 1_555
O15_3 C48_3 1_555 1_555
O16_2 In3_2 1_555 1_555
O17_2 In4_2 1_555 1_555
O20_3 In1_4 1_555 1_555
O21_3 C57_3 1_555 1_555
O22_3 C58_3 1_555 1_555
O25_2 In3_2 1_555 1_555
O26_2 In4_2 1_555 1_555
O28_3 In19_2 1_555 1_555
O29_3 In2_3 1_555 1_555
O30_3 In10_3 1_555 1_555
O35_3 In10_3 1_555 1_555
O36_3 In2_3 1_555 1_555
O39_3 In11_2 1_555 1_555
O40_2 In12_2 1_555 1_555
O42_2 In19_2 1_555 1_555
O43_3 In10_3 1_555 1_555
O44_3 C47_3 1_555 1_555
O45_3 C48_3 1_555 1_555
O46_3 In11_2 1_555 1_555
O47_3 In12_2 1_555 1_555
O49_3 In19_2 1_555 1_555
O50_3 In2_3 1_555 1_555
O56_2 C57_3 1_555 1_555
O57_2 C58_3 1_555 1_555
N5_3 In12_2 1_555 1_555
N6_3 In2_3 1_555 1_555
N7_3 In10_3 1_555 1_555
N8_3 In17_3 1_555 1_555
N9_3 In20_3 1_555 1_555
N11_3 In19_2 1_555 1_555
C21_3 C36_3 1_555 1_555
C22_3 C37_3 1_555 1_555
C23_3 C38_3 1_555 1_555
C24_3 C39_3 1_555 1_555
C25_3 C40_3 1_555 1_555
C26_3 O28_3 1_555 1_555
C27_3 O29_3 1_555 1_555
C28_3 O30_3 1_555 1_555
C31_3 N5_3 1_555 1_555
C32_3 N6_3 1_555 1_555
C33_3 N7_3 1_555 1_555
C34_3 N8_3 1_555 1_555
C35_3 N9_3 1_555 1_555
H15_3 C32_3 1_555 1_555
H16_3 C33_3 1_555 1_555
H17_3 C34_3 1_555 1_555
C36_3 C31_3 1_555 1_555
C37_3 C32_3 1_555 1_555
C38_3 C33_3 1_555 1_555
C39_3 C34_3 1_555 1_555
C40_3 C35_3 1_555 1_555
C41_3 N5_3 1_555 1_555
C42_3 N6_3 1_555 1_555
C43_3 N7_3 1_555 1_555
C44_3 N8_3 1_555 1_555
C45_3 N9_3 1_555 1_555
H19_3 C41_3 1_555 1_555
H20_3 C42_3 1_555 1_555
H21_3 C43_3 1_555 1_555
H22_3 C44_3 1_555 1_555
H23_3 C45_3 1_555 1_555
C46_3 O13_3 1_555 1_555
C47_3 C22_3 1_555 1_555
C48_3 C23_3 1_555 1_555
C49_3 O16_2 1_555 1_555
C50_3 O17_2 1_555 1_555
N13_3 C37_3 1_555 1_555
N14_3 C38_3 1_555 1_555
N15_3 C39_3 1_555 1_555
H25_3 N13_3 1_555 1_555
H26_3 N14_3 1_555 1_555
H27_3 N15_3 1_555 1_555
H30_3 N13_3 1_555 1_555
H31_3 N14_3 1_555 1_555
H32_3 N15_3 1_555 1_555
C51_3 C21_3 1_555 1_555
C52_3 C22_3 1_555 1_555
C53_3 C23_3 1_555 1_555
C54_3 C24_3 1_555 1_555
C55_3 C25_3 1_555 1_555
H34_3 C51_3 1_555 1_555
H35_3 C52_3 1_555 1_555
H36_3 C53_3 1_555 1_555
H37_3 C54_3 1_555 1_555
H38_3 C55_3 1_555 1_555
C56_3 O20_3 1_555 1_555
C57_3 C62_3 1_555 1_555
C58_3 C63_3 1_555 1_555
C61_3 C56_3 1_555 1_555
C62_3 C72_3 1_555 1_555
C63_3 C73_3 1_555 1_555
O58_2 In3_2 1_555 1_555
C66_3 C26_3 1_555 1_555
C67_3 C27_3 1_555 1_555
C68_3 C28_3 1_555 1_555
C71_3 C61_3 1_555 1_555
C72_3 H40_3 1_555 1_555
C73_3 H41_3 1_555 1_555
H39_3 C71_3 1_555 1_555
C77_3 H45_3 1_555 1_555
C78_3 H46_3 1_555 1_555
C81_3 C76_3 1_555 1_555
C82_3 C77_3 1_555 1_555
C83_3 C78_3 1_555 1_555
C86_3 C61_3 1_555 1_555
C87_3 C62_3 1_555 1_555
C88_3 C63_3 1_555 1_555
H49_3 C86_3 1_555 1_555
H50_3 C87_3 1_555 1_555
H51_3 C88_3 1_555 1_555
C91_3 C66_3 1_555 1_555
C92_3 C67_3 1_555 1_555
C93_3 C68_3 1_555 1_555
H54_3 C91_3 1_555 1_555
H55_3 C92_3 1_555 1_555
H56_3 C93_3 1_555 1_555
N17_3 C101_3 1_555 1_555
N18_3 C102_3 1_555 1_555
N19_3 C103_3 1_555 1_555
C96_3 C81_3 1_555 1_555
C97_3 C82_3 1_555 1_555
C98_3 C83_3 1_555 1_555
H59_3 C96_3 1_555 1_555
H60_3 C97_3 1_555 1_555
H61_3 C98_3 1_555 1_555
C101_3 C111_3 1_555 1_555
C102_3 C112_3 1_555 1_555
C103_3 C113_3 1_555 1_555
C107_3 C67_3 1_555 1_555
C108_3 C68_3 1_555 1_555
H65_3 C107_3 1_555 1_555
H66_3 C108_3 1_555 1_555
N22_3 C81_3 1_555 1_555
N23_3 C82_3 1_555 1_555
N24_3 C83_3 1_555 1_555
C111_3 C71_3 1_555 1_555
C112_3 C72_3 1_555 1_555
C113_3 C73_3 1_555 1_555
H70_3 C112_3 1_555 1_555
H71_3 C113_3 1_555 1_555
C116_3 C86_3 1_555 1_555
C117_3 C87_3 1_555 1_555
C118_3 C88_3 1_555 1_555
H74_3 C116_3 1_555 1_555
H75_3 C117_3 1_555 1_555
H76_3 C118_3 1_555 1_555
O6_3 C6_3 1_555 1_555
C1_3 C6_3 1_555 1_555
C5_3 C7_3 1_555 1_555
N3_3 N4_3 1_555 1_555
C17_3 C20_3 1_555 1_555
O35_3 C27_3 1_555 1_555
O36_3 C28_3 1_555 1_555
O43_3 C46_3 1_555 1_555
O46_3 C49_3 1_555 1_555
O47_3 C50_3 1_555 1_555
O50_3 C56_3 1_555 1_555
C21_3 C46_3 1_555 1_555
C24_3 C49_3 1_555 1_555
C25_3 C50_3 1_555 1_555
C41_3 C51_3 1_555 1_555
C42_3 C52_3 1_555 1_555
C43_3 C53_3 1_555 1_555
C44_3 C54_3 1_555 1_555
C45_3 C55_3 1_555 1_555
C77_3 C107_3 1_555 1_555
C78_3 C108_3 1_555 1_555
C91_3 C96_3 1_555 1_555
C92_3 C97_3 1_555 1_555
C93_3 C98_3 1_555 1_555
N17_3 N22_3 1_555 1_555
N18_3 N23_3 1_555 1_555
N19_3 N24_3 1_555 1_555
C101_3 C116_3 1_555 1_555
C102_3 C117_3 1_555 1_555
C103_3 C118_3 1_555 1_555
O58_2 H81 1_555 1_555
H3_3 N2_3 1_555 1_555
H4_3 N2_3 1_555 1_555
In3_3 O9_3 1_555 1_555
In4_3 O10_3 1_555 1_555
In9_5 O23_3 1_555 1_555
In18 O12_3 1_555 1_555
In21_2 O9_3 1_555 1_555
In24_2 O53_3 1_555 1_555
In23_3 O32_3 1_555 1_555
In22_2 O38_3 1_555 1_555
In25_2 O10_3 1_555 1_555
O18_2 In3_3 1_555 1_555
O19_2 In4_3 1_555 1_555
O23_3 C59_3 1_555 1_555
O24_2 In3_3 1_555 1_555
O27_2 In4_3 1_555 1_555
O32_3 C30_3 1_555 1_555
O34_2 In18 1_555 1_555
O37_2 In21_2 1_555 1_555
O38_3 C30_3 1_555 1_555
O53_3 C59_3 1_555 1_555
C29_3 O31_3 1_555 1_555
C30_3 C70_3 1_555 1_555
H24_3 N12_3 1_555 1_555
H29_3 N12_3 1_555 1_555
C59_3 C64_3 1_555 1_555
C60_3 O24_2 1_555 1_555
C64_3 C74_3 1_555 1_555
C65_3 C60_3 1_555 1_555
O58_3 In3_3 1_555 1_555
C69_3 C29_3 1_555 1_555
C70_3 C95_3 1_555 1_555
C74_3 H42_3 1_555 1_555
C75_3 C65_3 1_555 1_555
H43_3 C75_3 1_555 1_555
C79_3 H47_3 1_555 1_555
C80_3 H48_3 1_555 1_555
C84_3 C79_3 1_555 1_555
C85_3 C80_3 1_555 1_555
C89_3 C64_3 1_555 1_555
C90_3 C65_3 1_555 1_555
H52_3 C89_3 1_555 1_555
H53_3 C90_3 1_555 1_555
C94_3 C69_3 1_555 1_555
C95_3 H58_3 1_555 1_555
H57_3 C94_3 1_555 1_555
N20_3 C104_3 1_555 1_555
N21_3 C105_3 1_555 1_555
C99_3 C84_3 1_555 1_555
C100_3 C85_3 1_555 1_555
H62_3 C99_3 1_555 1_555
H63_3 C100_3 1_555 1_555
C104_3 C114_3 1_555 1_555
C105_3 C115_3 1_555 1_555
C109_3 C69_3 1_555 1_555
C110_3 C70_3 1_555 1_555
H64_3 C106_3 1_555 1_555
H67_3 C109_3 1_555 1_555
H68_3 C110_3 1_555 1_555
N25_3 C84_3 1_555 1_555
N26_3 C85_3 1_555 1_555
C114_3 C74_3 1_555 1_555
C115_3 C75_3 1_555 1_555
H72_3 C114_3 1_555 1_555
H73_3 C115_3 1_555 1_555
C119_3 C89_3 1_555 1_555
C120_3 C90_3 1_555 1_555
H77_3 C119_3 1_555 1_555
H78_3 C120_3 1_555 1_555
O37_2 C29_3 1_555 1_555
O54_3 C60_3 1_555 1_555
C79_3 C109_3 1_555 1_555
C80_3 C110_3 1_555 1_555
C94_3 C99_3 1_555 1_555
C95_3 C100_3 1_555 1_555
N20_3 N25_3 1_555 1_555
N21_3 N26_3 1_555 1_555
C104_3 C119_3 1_555 1_555
C105_3 C120_3 1_555 1_555
O58_3 H82 1_555 1_555
In22 O38_4 1_555 1_555
H64_4 C106_4 1_555 1_555
H68_4 C110_4 1_555 1_555
O59_2 H82_2 1_555 1_555
O28_4 In19 1_555 1_555
O49_4 In19 1_555 1_555
N11_4 In19 1_555 1_555
C26_4 O28_4 1_555 1_555
C66_4 C26_4 1_555 1_555
C91_4 C66_4 1_555 1_555
H54_4 C91_4 1_555 1_555
H59_4 C96_4 1_555 1_555
C91_4 C96_4 1_555 1_555
H27_4 N15_4 1_555 1_555
H32_4 N15_4 1_555 1_555
O59_3 H81_2 1_555 1_555
In23_4 O32_4 1_555 1_555
O32_4 C30_4 1_555 1_555
C30_4 C70_4 1_555 1_555
H24_4 N12_4 1_555 1_555
H29_4 N12_4 1_555 1_555
C70_4 C95_4 1_555 1_555
C95_4 H58_4 1_555 1_555
H63_4 C100_4 1_555 1_555
C95_4 C100_4 1_555 1_555
O8_5 H80_2 1_555 1_555
O58_2 H84_2 1_555 1_555
H3_4 N2_4 1_555 1_555
H4_4 N2_4 1_555 1_555
H11_4 C18_4 1_555 1_555
In9_6 O23_4 1_555 1_555
In24 O53_4 1_555 1_555
O23_4 C59_4 1_555 1_555
O53_4 C59_4 1_555 1_555
C29_4 O31_4 1_555 1_555
C59_4 C64_4 1_555 1_555
C60_4 O26_2 1_555 1_555
C64_4 C74_4 1_555 1_555
C65_4 C60_4 1_555 1_555
C69_4 C29_4 1_555 1_555
C74_4 H42_4 1_555 1_555
C75_4 C65_4 1_555 1_555
H43_4 C75_4 1_555 1_555
C79_4 H47_4 1_555 1_555
C84_4 C79_4 1_555 1_555
C89_4 C64_4 1_555 1_555
C90_4 C65_4 1_555 1_555
H52_4 C89_4 1_555 1_555
H53_4 C90_4 1_555 1_555
C94_4 C69_4 1_555 1_555
H57_4 C94_4 1_555 1_555
N20_4 C104_4 1_555 1_555
N21_4 C105_4 1_555 1_555
C99_4 C84_4 1_555 1_555
H62_4 C99_4 1_555 1_555
C104_4 C114_4 1_555 1_555
C105_4 C115_4 1_555 1_555
C109_4 C69_4 1_555 1_555
H67_4 C109_4 1_555 1_555
N25_4 C84_4 1_555 1_555
N26_4 C85_4 1_555 1_555
C114_4 C74_4 1_555 1_555
C115_4 C75_4 1_555 1_555
H72_4 C114_4 1_555 1_555
C119_4 C89_4 1_555 1_555
C120_4 C90_4 1_555 1_555
H77_4 C119_4 1_555 1_555
H78_4 C120_4 1_555 1_555
O40_2 C29_4 1_555 1_555
O54_4 C60_4 1_555 1_555
C79_4 C109_4 1_555 1_555
C94_4 C99_4 1_555 1_555
N20_4 N25_4 1_555 1_555
N21_4 N26_4 1_555 1_555
C104_4 C119_4 1_555 1_555
C105_4 C120_4 1_555 1_555
O8_6 H79_2 1_555 1_555
In1_5 O1_5 1_555 1_555
O1_5 In10_4 1_555 1_555
In7_3 O21_4 1_555 1_555
In5 O15_4 1_555 1_555
In20_4 O45_4 1_555 1_555
O13_4 In1_5 1_555 1_555
O15_4 C48_4 1_555 1_555
O20_4 In1_5 1_555 1_555
O21_4 C57_4 1_555 1_555
O35_4 In10_4 1_555 1_555
O43_4 In10_4 1_555 1_555
O45_4 C48_4 1_555 1_555
O47_4 In21_2 1_555 1_555
O56 C57_4 1_555 1_555
N5_4 In21_2 1_555 1_555
N7_4 In10_4 1_555 1_555
N9_4 In20_4 1_555 1_555
C21_4 C36_4 1_555 1_555
C23_4 C38_4 1_555 1_555
C25_4 C40_4 1_555 1_555
C27_4 O29_4 1_555 1_555
C31_4 N5_4 1_555 1_555
C33_4 N7_4 1_555 1_555
C35_4 N9_4 1_555 1_555
H18_4 C35_4 1_555 1_555
C36_4 C31_4 1_555 1_555
C38_4 C33_4 1_555 1_555
C40_4 C35_4 1_555 1_555
C41_4 N5_4 1_555 1_555
C43_4 N7_4 1_555 1_555
C45_4 N9_4 1_555 1_555
H19_4 C41_4 1_555 1_555
H21_4 C43_4 1_555 1_555
H23_4 C45_4 1_555 1_555
C46_4 O13_4 1_555 1_555
C48_4 C23_4 1_555 1_555
C50_4 O18_2 1_555 1_555
N16_4 C40_4 1_555 1_555
H25_4 N13_4 1_555 1_555
H28_4 N16_4 1_555 1_555
H30_4 N13_4 1_555 1_555
H33_4 N16_4 1_555 1_555
C51_4 C21_4 1_555 1_555
C53_4 C23_4 1_555 1_555
C55_4 C25_4 1_555 1_555
H34_4 C51_4 1_555 1_555
H36_4 C53_4 1_555 1_555
H38_4 C55_4 1_555 1_555
C56_4 O20_4 1_555 1_555
C57_4 C62_4 1_555 1_555
C61_4 C56_4 1_555 1_555
C62_4 C72_4 1_555 1_555
C67_4 C27_4 1_555 1_555
C71_4 C61_4 1_555 1_555
C72_4 H40_4 1_555 1_555
H39_4 C71_4 1_555 1_555
C77_4 H45_4 1_555 1_555
C82_4 C77_4 1_555 1_555
C86_4 C61_4 1_555 1_555
C87_4 C62_4 1_555 1_555
H49_4 C86_4 1_555 1_555
H50_4 C87_4 1_555 1_555
C92_4 C67_4 1_555 1_555
H55_4 C92_4 1_555 1_555
N17_4 C101_4 1_555 1_555
N18_4 C102_4 1_555 1_555
C97_4 C82_4 1_555 1_555
H60_4 C97_4 1_555 1_555
C101_4 C111_4 1_555 1_555
C102_4 C112_4 1_555 1_555
C107_4 C67_4 1_555 1_555
H65_4 C107_4 1_555 1_555
N22_4 C81_4 1_555 1_555
N23_4 C82_4 1_555 1_555
C111_4 C71_4 1_555 1_555
C112_4 C72_4 1_555 1_555
H70_4 C112_4 1_555 1_555
C116_4 C86_4 1_555 1_555
C117_4 C87_4 1_555 1_555
H74_4 C116_4 1_555 1_555
H75_4 C117_4 1_555 1_555
O35_4 C27_4 1_555 1_555
O43_4 C46_4 1_555 1_555
O47_4 C50_4 1_555 1_555
O50_4 C56_4 1_555 1_555
C21_4 C46_4 1_555 1_555
C25_4 C50_4 1_555 1_555
C41_4 C51_4 1_555 1_555
C43_4 C53_4 1_555 1_555
C45_4 C55_4 1_555 1_555
C77_4 C107_4 1_555 1_555
C92_4 C97_4 1_555 1_555
N17_4 N22_4 1_555 1_555
N18_4 N23_4 1_555 1_555
C101_4 C116_4 1_555 1_555
C102_4 C117_4 1_555 1_555
O58_3 H83_2 1_555 1_555
In1_6 O1_6 1_555 1_555
In2_4 O1_6 1_555 1_555
O2_4 In1_6 1_555 1_555
O3_4 In1_6 1_555 1_555
O4_4 C2_4 1_555 1_555
O6_4 In2_4 1_555 1_555
O7_4 C8_4 1_555 1_555
N1_4 C3_4 1_555 1_555
C1_4 C4_4 1_555 1_555
C2_4 C10_4 1_555 1_555
C4_4 C3_4 1_555 1_555
C5_4 N1_4 1_555 1_555
H2_4 C5_4 1_555 1_555
C6_4 O2_4 1_555 1_555
C7_4 C1_4 1_555 1_555
H5_4 C7_4 1_555 1_555
C8_4 O3_4 1_555 1_555
C9_4 C8_4 1_555 1_555
C10_4 C15_4 1_555 1_555
C11_4 C9_4 1_555 1_555
H6_4 C11_4 1_555 1_555
C13_4 C12_4 1_555 1_555
C14_4 C9_4 1_555 1_555
H8_4 C14_4 1_555 1_555
C15_4 H9_4 1_555 1_555
N3_4 C17_4 1_555 1_555
C16_4 C13_4 1_555 1_555
H10_4 C16_4 1_555 1_555
C17_4 C19_4 1_555 1_555
N4_4 C13_4 1_555 1_555
C19_4 C11_4 1_555 1_555
C20_4 C14_4 1_555 1_555
H13_4 C20_4 1_555 1_555
In8_2 O14_4 1_555 1_555
In6_3 O22_4 1_555 1_555
In25_2 N1_4 1_555 1_555
In18 O4_4 1_555 1_555
In17_4 O44_4 1_555 1_555
O14_4 C47_4 1_555 1_555
O22_4 C58_4 1_555 1_555
O36_4 In2_4 1_555 1_555
O39_4 In25_2 1_555 1_555
O44_4 C47_4 1_555 1_555
O46_4 In25_2 1_555 1_555
O48_4 In18 1_555 1_555
O57 C58_4 1_555 1_555
N6_4 In2_4 1_555 1_555
N8_4 In17_4 1_555 1_555
N10_4 In18 1_555 1_555
C22_4 C37_4 1_555 1_555
C24_4 C39_4 1_555 1_555
C28_4 O30_4 1_555 1_555
C32_4 N6_4 1_555 1_555
C34_4 N8_4 1_555 1_555
C37_4 C32_4 1_555 1_555
C39_4 C34_4 1_555 1_555
C42_4 N6_4 1_555 1_555
C44_4 N8_4 1_555 1_555
H20_4 C42_4 1_555 1_555
H22_4 C44_4 1_555 1_555
C47_4 C22_4 1_555 1_555
C49_4 O19_2 1_555 1_555
H26_4 N14_4 1_555 1_555
H31_4 N14_4 1_555 1_555
C52_4 C22_4 1_555 1_555
C54_4 C24_4 1_555 1_555
H35_4 C52_4 1_555 1_555
H37_4 C54_4 1_555 1_555
C58_4 C63_4 1_555 1_555
C63_4 C73_4 1_555 1_555
C68_4 C28_4 1_555 1_555
C73_4 H41_4 1_555 1_555
C78_4 H46_4 1_555 1_555
C83_4 C78_4 1_555 1_555
C88_4 C63_4 1_555 1_555
H51_4 C88_4 1_555 1_555
C93_4 C68_4 1_555 1_555
H56_4 C93_4 1_555 1_555
N19_4 C103_4 1_555 1_555
C98_4 C83_4 1_555 1_555
H61_4 C98_4 1_555 1_555
C103_4 C113_4 1_555 1_555
C108_4 C68_4 1_555 1_555
H66_4 C108_4 1_555 1_555
N24_4 C83_4 1_555 1_555
C113_4 C73_4 1_555 1_555
H71_4 C113_4 1_555 1_555
C118_4 C88_4 1_555 1_555
H76_4 C118_4 1_555 1_555
O6_4 C6_4 1_555 1_555
C1_4 C6_4 1_555 1_555
C5_4 C7_4 1_555 1_555
C15_4 C16_4 1_555 1_555
N3_4 N4_4 1_555 1_555
C17_4 C20_4 1_555 1_555
O36_4 C28_4 1_555 1_555
O46_4 C49_4 1_555 1_555
C24_4 C49_4 1_555 1_555
C42_4 C52_4 1_555 1_555
C44_4 C54_4 1_555 1_555
C78_4 C108_4 1_555 1_555
C93_4 C98_4 1_555 1_555
N19_4 N24_4 1_555 1_555
C103_4 C118_4 1_555 1_555
In5_2 O1_7 1_555 1_555
In17_2 O1_7 1_555 1_555
O3_5 In5_2 1_555 1_555
O7_5 C8_5 1_555 1_555
C8_5 O3_5 1_555 1_555
C9_5 C8_5 1_555 1_555
O8_7 In5_2 1_555 1_555
C11_5 C9_5 1_555 1_555
H6_5 C11_5 1_555 1_555
C14_5 C9_5 1_555 1_555
H8_5 C14_5 1_555 1_555
N3_5 C17_5 1_555 1_555
C17_5 C19_5 1_555 1_555
N4_5 C13_5 1_555 1_555
C19_5 C11_5 1_555 1_555
H12_5 C19_5 1_555 1_555
C20_5 C14_5 1_555 1_555
H13_5 C20_5 1_555 1_555
In7_5 O22_5 1_555 1_555
In19_3 O52_3 1_555 1_555
O22_5 C58_5 1_555 1_555
O36_5 In17_2 1_555 1_555
O52_3 C58_5 1_555 1_555
C28_5 O30_5 1_555 1_555
C58_5 C63_5 1_555 1_555
C63_5 C73_5 1_555 1_555
C68_5 C28_5 1_555 1_555
C73_5 H41_5 1_555 1_555
C78_5 H46_5 1_555 1_555
C83_5 C78_5 1_555 1_555
C88_5 C63_5 1_555 1_555
H51_5 C88_5 1_555 1_555
C93_5 C68_5 1_555 1_555
H56_5 C93_5 1_555 1_555
N19_5 C103_5 1_555 1_555
C98_5 C83_5 1_555 1_555
H61_5 C98_5 1_555 1_555
C103_5 C113_5 1_555 1_555
C108_5 C68_5 1_555 1_555
H66_5 C108_5 1_555 1_555
N24_5 C83_5 1_555 1_555
C113_5 C73_5 1_555 1_555
H71_5 C113_5 1_555 1_555
C118_5 C88_5 1_555 1_555
H76_5 C118_5 1_555 1_555
N3_5 N4_5 1_555 1_555
C17_5 C20_5 1_555 1_555
O36_5 C28_5 1_555 1_555
C78_5 C108_5 1_555 1_555
C93_5 C98_5 1_555 1_555
N19_5 N24_5 1_555 1_555
C103_5 C118_5 1_555 1_555
O8_7 H79_3 1_555 1_555
O4_5 C2_5 1_555 1_555
O5_3 C2_5 1_555 1_555
C2_5 C10_5 1_555 1_555
C10_5 C15_5 1_555 1_555
C15_5 H9_5 1_555 1_555
H10_5 C16_5 1_555 1_555
C18_5 C10_5 1_555 1_555
H11_5 C18_5 1_555 1_555
In13_2 O4_5 1_555 1_555
In15_2 O5_3 1_555 1_555
O11_4 In13_2 1_555 1_555
O41_3 In13_2 1_555 1_555
O48_5 In13_2 1_555 1_555
O56_3 In13_2 1_555 1_555
N10_5 In13_2 1_555 1_555
C12_5 C18_5 1_555 1_555
C15_5 C16_5 1_555 1_555
In15_2 O11_4 1_555 1_555
In5_3 O1_8 1_555 1_555
O1_8 In20_3 1_555 1_555
O8_8 In5_3 1_555 1_555
In6_5 O21_5 1_555 1_555
In14_2 O12_4 1_555 1_555
In16_2 O12_4 1_555 1_555
In18_3 O51_3 1_555 1_555
O20_5 In5_3 1_555 1_555
O21_5 C57_5 1_555 1_555
O28_5 In14_2 1_555 1_555
O34_3 In16_2 1_555 1_555
O35_5 In20_3 1_555 1_555
O42_3 In14_2 1_555 1_555
O49_5 In14_2 1_555 1_555
O51_3 C57_5 1_555 1_555
O57_3 In14_2 1_555 1_555
N11_5 In14_2 1_555 1_555
C26_5 O28_5 1_555 1_555
C27_5 O29_5 1_555 1_555
C56_5 O20_5 1_555 1_555
C57_5 C62_5 1_555 1_555
C61_5 C56_5 1_555 1_555
C62_5 C72_5 1_555 1_555
C66_5 C26_5 1_555 1_555
C67_5 C27_5 1_555 1_555
C71_5 C61_5 1_555 1_555
C72_5 H40_5 1_555 1_555
H39_5 C71_5 1_555 1_555
C76_5 H44_5 1_555 1_555
C77_5 H45_5 1_555 1_555
C81_5 C76_5 1_555 1_555
C82_5 C77_5 1_555 1_555
C86_5 C61_5 1_555 1_555
C87_5 C62_5 1_555 1_555
H49_5 C86_5 1_555 1_555
H50_5 C87_5 1_555 1_555
C91_5 C66_5 1_555 1_555
C92_5 C67_5 1_555 1_555
H54_5 C91_5 1_555 1_555
H55_5 C92_5 1_555 1_555
N17_5 C101_5 1_555 1_555
N18_5 C102_5 1_555 1_555
C96_5 C81_5 1_555 1_555
C97_5 C82_5 1_555 1_555
H59_5 C96_5 1_555 1_555
H60_5 C97_5 1_555 1_555
C101_5 C111_5 1_555 1_555
C102_5 C112_5 1_555 1_555
C106_5 C66_5 1_555 1_555
C107_5 C67_5 1_555 1_555
H64_5 C106_5 1_555 1_555
H65_5 C107_5 1_555 1_555
N22_5 C81_5 1_555 1_555
N23_5 C82_5 1_555 1_555
C111_5 C71_5 1_555 1_555
C112_5 C72_5 1_555 1_555
H69_5 C111_5 1_555 1_555
H70_5 C112_5 1_555 1_555
C116_5 C86_5 1_555 1_555
C117_5 C87_5 1_555 1_555
H74_5 C116_5 1_555 1_555
H75_5 C117_5 1_555 1_555
O34_3 C26_5 1_555 1_555
O35_5 C27_5 1_555 1_555
O50_5 C56_5 1_555 1_555
C76_5 C106_5 1_555 1_555
C77_5 C107_5 1_555 1_555
C91_5 C96_5 1_555 1_555
C92_5 C97_5 1_555 1_555
N17_5 N22_5 1_555 1_555
N18_5 N23_5 1_555 1_555
C101_5 C116_5 1_555 1_555
C102_5 C117_5 1_555 1_555
O8_8 H80_3 1_555 1_555
In8_3 O1_9 1_555 1_555
In17_3 O1_9 1_555 1_555
O1_9 In20_2 1_555 1_555
O3_6 In8_3 1_555 1_555
O4_6 C2_6 1_555 1_555
O42_3 C2_6 1_555 1_555
O7_6 C8_6 1_555 1_555
C2_6 C10_6 1_555 1_555
C8_6 O3_6 1_555 1_555
C9_6 C8_6 1_555 1_555
O8_9 In8_3 1_555 1_555
C10_6 C15_6 1_555 1_555
C11_6 C9_6 1_555 1_555
H6_6 C11_6 1_555 1_555
C12_6 H7_6 1_555 1_555
C13_6 C12_6 1_555 1_555
C14_6 C9_6 1_555 1_555
H8_6 C14_6 1_555 1_555
C15_6 H9_6 1_555 1_555
N3_6 C17_6 1_555 1_555
C16_6 C13_6 1_555 1_555
H10_6 C16_6 1_555 1_555
C17_6 C19_6 1_555 1_555
C18_6 C10_6 1_555 1_555
H11_6 C18_6 1_555 1_555
N4_6 C13_6 1_555 1_555
C19_6 C11_6 1_555 1_555
H12_6 C19_6 1_555 1_555
C20_6 C14_6 1_555 1_555
H13_6 C20_6 1_555 1_555
In7_4 O21_6 1_555 1_555
In6_4 O22_6 1_555 1_555
In20_2 O7_6 1_555 1_555
In16_2 O4_6 1_555 1_555
In18_4 O51_4 1_555 1_555
In19_4 O52_4 1_555 1_555
O20_6 In8_3 1_555 1_555
O21_6 C57_6 1_555 1_555
O22_6 C58_6 1_555 1_555
O29_6 In17_3 1_555 1_555
O30_6 In20_2 1_555 1_555
O35_6 In20_2 1_555 1_555
O36_6 In17_3 1_555 1_555
O48_6 In16_2 1_555 1_555
O50_6 In17_3 1_555 1_555
O51_4 C57_6 1_555 1_555
O52_4 C58_6 1_555 1_555
O56_4 In16_2 1_555 1_555
N10_6 In16_2 1_555 1_555
C27_6 O29_6 1_555 1_555
C28_6 O30_6 1_555 1_555
C56_6 O20_6 1_555 1_555
C57_6 C62_6 1_555 1_555
C58_6 C63_6 1_555 1_555
C61_6 C56_6 1_555 1_555
C62_6 C72_6 1_555 1_555
C63_6 C73_6 1_555 1_555
C67_6 C27_6 1_555 1_555
C68_6 C28_6 1_555 1_555
C71_6 C61_6 1_555 1_555
C72_6 H40_6 1_555 1_555
C73_6 H41_6 1_555 1_555
H39_6 C71_6 1_555 1_555
C77_6 H45_6 1_555 1_555
C78_6 H46_6 1_555 1_555
C82_6 C77_6 1_555 1_555
C83_6 C78_6 1_555 1_555
C86_6 C61_6 1_555 1_555
C87_6 C62_6 1_555 1_555
C88_6 C63_6 1_555 1_555
H49_6 C86_6 1_555 1_555
H50_6 C87_6 1_555 1_555
H51_6 C88_6 1_555 1_555
C92_6 C67_6 1_555 1_555
C93_6 C68_6 1_555 1_555
H55_6 C92_6 1_555 1_555
H56_6 C93_6 1_555 1_555
N17_6 C101_6 1_555 1_555
N18_6 C102_6 1_555 1_555
N19_6 C103_6 1_555 1_555
C97_6 C82_6 1_555 1_555
C98_6 C83_6 1_555 1_555
H60_6 C97_6 1_555 1_555
H61_6 C98_6 1_555 1_555
C101_6 C111_6 1_555 1_555
C102_6 C112_6 1_555 1_555
C103_6 C113_6 1_555 1_555
C107_6 C67_6 1_555 1_555
C108_6 C68_6 1_555 1_555
H65_6 C107_6 1_555 1_555
H66_6 C108_6 1_555 1_555
N22_6 C81_6 1_555 1_555
N23_6 C82_6 1_555 1_555
N24_6 C83_6 1_555 1_555
C111_6 C71_6 1_555 1_555
C112_6 C72_6 1_555 1_555
C113_6 C73_6 1_555 1_555
H69_6 C111_6 1_555 1_555
H70_6 C112_6 1_555 1_555
H71_6 C113_6 1_555 1_555
C116_6 C86_6 1_555 1_555
C117_6 C87_6 1_555 1_555
C118_6 C88_6 1_555 1_555
H74_6 C116_6 1_555 1_555
H75_6 C117_6 1_555 1_555
H76_6 C118_6 1_555 1_555
C12_6 C18_6 1_555 1_555
C15_6 C16_6 1_555 1_555
N3_6 N4_6 1_555 1_555
C17_6 C20_6 1_555 1_555
O35_6 C27_6 1_555 1_555
O36_6 C28_6 1_555 1_555
O50_6 C56_6 1_555 1_555
C77_6 C107_6 1_555 1_555
C78_6 C108_6 1_555 1_555
C92_6 C97_6 1_555 1_555
C93_6 C98_6 1_555 1_555
N17_6 N22_6 1_555 1_555
N18_6 N23_6 1_555 1_555
N19_6 N24_6 1_555 1_555
C101_6 C116_6 1_555 1_555
C102_6 C117_6 1_555 1_555
C103_6 C118_6 1_555 1_555
O28_6 In15_2 1_555 1_555
O49_6 In15_2 1_555 1_555
O57_4 In15_2 1_555 1_555
N11_6 In15_2 1_555 1_555
C26_6 O28_6 1_555 1_555
C66_6 C26_6 1_555 1_555
C91_6 C66_6 1_555 1_555
H54_6 C91_6 1_555 1_555
H59_6 C96_6 1_555 1_555
C106_6 C66_6 1_555 1_555
H64_6 C106_6 1_555 1_555
O41_3 C26_6 1_555 1_555
C76_6 C106_6 1_555 1_555
C91_6 C96_6 1_555 1_555
O4_7 C2_7 1_555 1_555
C2_7 C10_7 1_555 1_555
C10_7 C15_7 1_555 1_555
C15_7 H9_7 1_555 1_555
H10_7 C16_7 1_555 1_555
In18_4 O4_7 1_555 1_555
O11_5 In18_4 1_555 1_555
O41_4 In18_4 1_555 1_555
O48_7 In18_4 1_555 1_555
N10_7 In18_4 1_555 1_555
C15_7 C16_7 1_555 1_555
O8_5 H83_3 1_555 1_555
H11_7 C18_7 1_555 1_555
In19_3 O5_4 1_555 1_555
In19_3 O11_6 1_555 1_555
O8_6 H84_3 1_555 1_555
In5 O1_10 1_555 1_555
In17 O1_10 1_555 1_555
O1_10 In20_4 1_555 1_555
O3_7 In5 1_555 1_555
O7_7 C8_7 1_555 1_555
C8_7 O3_7 1_555 1_555
C9_7 C8_7 1_555 1_555
C11_7 C9_7 1_555 1_555
H6_7 C11_7 1_555 1_555
C14_7 C9_7 1_555 1_555
H8_7 C14_7 1_555 1_555
N3_7 C17_7 1_555 1_555
C17_7 C19_7 1_555 1_555
N4_7 C13_7 1_555 1_555
C19_7 C11_7 1_555 1_555
C20_7 C14_7 1_555 1_555
H13_7 C20_7 1_555 1_555
In6_6 O21_7 1_555 1_555
In7_6 O22_7 1_555 1_555
In20_4 O7_7 1_555 1_555
In19_4 O12_5 1_555 1_555
O20_7 In5 1_555 1_555
O21_7 C57_7 1_555 1_555
O22_7 C58_7 1_555 1_555
O28_7 In19_4 1_555 1_555
O29_7 In17 1_555 1_555
O30_7 In20_4 1_555 1_555
O35_7 In20_4 1_555 1_555
O36_7 In17 1_555 1_555
O42_4 In19_4 1_555 1_555
O49_7 In19_4 1_555 1_555
O50_7 In17 1_555 1_555
O56_4 C57_7 1_555 1_555
O57_4 C58_7 1_555 1_555
N11_7 In19_4 1_555 1_555
C26_7 O28_7 1_555 1_555
C27_7 O29_7 1_555 1_555
C28_7 O30_7 1_555 1_555
C56_7 O20_7 1_555 1_555
C57_7 C62_7 1_555 1_555
C58_7 C63_7 1_555 1_555
C61_7 C56_7 1_555 1_555
C62_7 C72_7 1_555 1_555
C63_7 C73_7 1_555 1_555
C66_7 C26_7 1_555 1_555
C67_7 C27_7 1_555 1_555
C68_7 C28_7 1_555 1_555
C71_7 C61_7 1_555 1_555
C72_7 H40_7 1_555 1_555
C73_7 H41_7 1_555 1_555
H39_7 C71_7 1_555 1_555
C77_7 H45_7 1_555 1_555
C78_7 H46_7 1_555 1_555
C81_7 C76_7 1_555 1_555
C82_7 C77_7 1_555 1_555
C83_7 C78_7 1_555 1_555
C86_7 C61_7 1_555 1_555
C87_7 C62_7 1_555 1_555
C88_7 C63_7 1_555 1_555
H49_7 C86_7 1_555 1_555
H50_7 C87_7 1_555 1_555
H51_7 C88_7 1_555 1_555
C91_7 C66_7 1_555 1_555
C92_7 C67_7 1_555 1_555
C93_7 C68_7 1_555 1_555
H54_7 C91_7 1_555 1_555
H55_7 C92_7 1_555 1_555
H56_7 C93_7 1_555 1_555
N17_7 C101_7 1_555 1_555
N18_7 C102_7 1_555 1_555
N19_7 C103_7 1_555 1_555
C96_7 C81_7 1_555 1_555
C97_7 C82_7 1_555 1_555
C98_7 C83_7 1_555 1_555
H59_7 C96_7 1_555 1_555
H60_7 C97_7 1_555 1_555
H61_7 C98_7 1_555 1_555
C101_7 C111_7 1_555 1_555
C102_7 C112_7 1_555 1_555
C103_7 C113_7 1_555 1_555
C107_7 C67_7 1_555 1_555
C108_7 C68_7 1_555 1_555
H65_7 C107_7 1_555 1_555
H66_7 C108_7 1_555 1_555
N22_7 C81_7 1_555 1_555
N23_7 C82_7 1_555 1_555
N24_7 C83_7 1_555 1_555
C111_7 C71_7 1_555 1_555
C112_7 C72_7 1_555 1_555
C113_7 C73_7 1_555 1_555
H70_7 C112_7 1_555 1_555
H71_7 C113_7 1_555 1_555
C116_7 C86_7 1_555 1_555
C117_7 C87_7 1_555 1_555
C118_7 C88_7 1_555 1_555
H74_7 C116_7 1_555 1_555
H75_7 C117_7 1_555 1_555
H76_7 C118_7 1_555 1_555
N3_7 N4_7 1_555 1_555
C17_7 C20_7 1_555 1_555
O35_7 C27_7 1_555 1_555
O36_7 C28_7 1_555 1_555
O50_7 C56_7 1_555 1_555
C77_7 C107_7 1_555 1_555
C78_7 C108_7 1_555 1_555
C91_7 C96_7 1_555 1_555
C92_7 C97_7 1_555 1_555
C93_7 C98_7 1_555 1_555
N17_7 N22_7 1_555 1_555
N18_7 N23_7 1_555 1_555
N19_7 N24_7 1_555 1_555
C101_7 C116_7 1_555 1_555
C102_7 C117_7 1_555 1_555
C103_7 C118_7 1_555 1_555
In18_3 O12_6 1_555 1_555
O34_4 In18_3 1_555 1_555
H64_7 C106_7 1_555 1_555
H64_8 C106_8 1_555 1_555
O28_8 In19_3 1_555 1_555
O49_8 In19_3 1_555 1_555
N11_8 In19_3 1_555 1_555
C26_8 O28_8 1_555 1_555
C66_8 C26_8 1_555 1_555
C91_8 C66_8 1_555 1_555
H54_8 C91_8 1_555 1_555
H59_8 C96_8 1_555 1_555
C91_8 C96_8 1_555 1_555
O8_11 H80_4 1_555 1_555
O8 H84_4 1_555 1_555
In8 O1_11 1_555 1_555
O1_11 In20 1_555 1_555
In7_6 O21_8 1_555 1_555
O20_8 In8 1_555 1_555
O21_8 C57_8 1_555 1_555
O35_8 In20 1_555 1_555
O56_3 C57_8 1_555 1_555
C27_8 O29_8 1_555 1_555
C56_8 O20_8 1_555 1_555
C57_8 C62_8 1_555 1_555
C61_8 C56_8 1_555 1_555
C62_8 C72_8 1_555 1_555
C67_8 C27_8 1_555 1_555
C71_8 C61_8 1_555 1_555
C72_8 H40_8 1_555 1_555
H39_8 C71_8 1_555 1_555
C77_8 H45_8 1_555 1_555
C82_8 C77_8 1_555 1_555
C86_8 C61_8 1_555 1_555
C87_8 C62_8 1_555 1_555
H49_8 C86_8 1_555 1_555
H50_8 C87_8 1_555 1_555
C92_8 C67_8 1_555 1_555
H55_8 C92_8 1_555 1_555
N17_8 C101_8 1_555 1_555
N18_8 C102_8 1_555 1_555
C97_8 C82_8 1_555 1_555
H60_8 C97_8 1_555 1_555
C101_8 C111_8 1_555 1_555
C102_8 C112_8 1_555 1_555
C107_8 C67_8 1_555 1_555
H65_8 C107_8 1_555 1_555
N22_8 C81_8 1_555 1_555
N23_8 C82_8 1_555 1_555
C111_8 C71_8 1_555 1_555
C112_8 C72_8 1_555 1_555
H70_8 C112_8 1_555 1_555
C116_8 C86_8 1_555 1_555
C117_8 C87_8 1_555 1_555
H74_8 C116_8 1_555 1_555
H75_8 C117_8 1_555 1_555
O35_8 C27_8 1_555 1_555
O50_8 C56_8 1_555 1_555
C77_8 C107_8 1_555 1_555
C92_8 C97_8 1_555 1_555
N17_8 N22_8 1_555 1_555
N18_8 N23_8 1_555 1_555
C101_8 C116_8 1_555 1_555
C102_8 C117_8 1_555 1_555
O8_2 H83_4 1_555 1_555
H11_8 C18_8 1_555 1_555
O8_12 H79_4 1_555 1_555
In8_2 O1_12 1_555 1_555
In17_4 O1_12 1_555 1_555
O3_8 In8_2 1_555 1_555
O4_8 C2_8 1_555 1_555
O7_8 C8_8 1_555 1_555
C2_8 C10_8 1_555 1_555
C8_8 O3_8 1_555 1_555
C9_8 C8_8 1_555 1_555
C10_8 C15_8 1_555 1_555
C11_8 C9_8 1_555 1_555
H6_8 C11_8 1_555 1_555
C13_8 C12_8 1_555 1_555
C14_8 C9_8 1_555 1_555
H8_8 C14_8 1_555 1_555
C15_8 H9_8 1_555 1_555
N3_8 C17_8 1_555 1_555
C16_8 C13_8 1_555 1_555
H10_8 C16_8 1_555 1_555
C17_8 C19_8 1_555 1_555
N4_8 C13_8 1_555 1_555
C19_8 C11_8 1_555 1_555
C20_8 C14_8 1_555 1_555
H13_8 C20_8 1_555 1_555
In6_6 O22_8 1_555 1_555
In18_3 O4_8 1_555 1_555
O22_8 C58_8 1_555 1_555
O36_8 In17_4 1_555 1_555
O48_8 In18_3 1_555 1_555
O57_3 C58_8 1_555 1_555
N10_8 In18_3 1_555 1_555
C28_8 O30_8 1_555 1_555
C58_8 C63_8 1_555 1_555
C63_8 C73_8 1_555 1_555
C68_8 C28_8 1_555 1_555
C73_8 H41_8 1_555 1_555
C78_8 H46_8 1_555 1_555
C83_8 C78_8 1_555 1_555
C88_8 C63_8 1_555 1_555
H51_8 C88_8 1_555 1_555
C93_8 C68_8 1_555 1_555
H56_8 C93_8 1_555 1_555
N19_8 C103_8 1_555 1_555
C98_8 C83_8 1_555 1_555
H61_8 C98_8 1_555 1_555
C103_8 C113_8 1_555 1_555
C108_8 C68_8 1_555 1_555
H66_8 C108_8 1_555 1_555
N24_8 C83_8 1_555 1_555
C113_8 C73_8 1_555 1_555
H71_8 C113_8 1_555 1_555
C118_8 C88_8 1_555 1_555
H76_8 C118_8 1_555 1_555
C15_8 C16_8 1_555 1_555
N3_8 N4_8 1_555 1_555
C17_8 C20_8 1_555 1_555
O36_8 C28_8 1_555 1_555
C78_8 C108_8 1_555 1_555
C93_8 C98_8 1_555 1_555
N19_8 N24_8 1_555 1_555
C103_8 C118_8 1_555 1_555
O55_4 C8_9 1_555 1_555
C8_9 O25_2 1_555 1_555
C9_9 C8_9 1_555 1_555
C11_9 C9_9 1_555 1_555
H6_9 C11_9 1_555 1_555
C14_9 C9_9 1_555 1_555
H8_9 C14_9 1_555 1_555
N3_9 C17_9 1_555 1_555
C17_9 C19_9 1_555 1_555
N4_9 C13_9 1_555 1_555
C19_9 C11_9 1_555 1_555
H12_9 C19_9 1_555 1_555
C20_9 C14_9 1_555 1_555
H13_9 C20_9 1_555 1_555
In9_2 O22_9 1_555 1_555
In23_4 O52_5 1_555 1_555
O22_9 C58_9 1_555 1_555
O52_5 C58_9 1_555 1_555
C28_9 O33_4 1_555 1_555
C58_9 C63_9 1_555 1_555
C63_9 C73_9 1_555 1_555
C68_9 C28_9 1_555 1_555
C73_9 H41_9 1_555 1_555
C78_9 H46_9 1_555 1_555
C83_9 C78_9 1_555 1_555
C88_9 C63_9 1_555 1_555
H51_9 C88_9 1_555 1_555
C93_9 C68_9 1_555 1_555
H56_9 C93_9 1_555 1_555
N19_9 C103_9 1_555 1_555
C98_9 C83_9 1_555 1_555
H61_9 C98_9 1_555 1_555
C103_9 C113_9 1_555 1_555
C108_9 C68_9 1_555 1_555
H66_9 C108_9 1_555 1_555
N24_9 C83_9 1_555 1_555
C113_9 C73_9 1_555 1_555
H71_9 C113_9 1_555 1_555
C118_9 C88_9 1_555 1_555
H76_9 C118_9 1_555 1_555
N3_9 N4_9 1_555 1_555
C17_9 C20_9 1_555 1_555
O39_3 C28_9 1_555 1_555
C78_9 C108_9 1_555 1_555
C93_9 C98_9 1_555 1_555
N19_9 N24_9 1_555 1_555
C103_9 C118_9 1_555 1_555
O4_9 C2_9 1_555 1_555
O5_5 C2_9 1_555 1_555
C2_9 C10_9 1_555 1_555
C10_9 C15_9 1_555 1_555
C15_9 H9_9 1_555 1_555
H10_9 C16_9 1_555 1_555
C18_9 C10_9 1_555 1_555
H11_9 C18_9 1_555 1_555
In24 O4_9 1_555 1_555
In23 O5_5 1_555 1_555
O11_7 In24 1_555 1_555
O48_9 In24 1_555 1_555
N10_9 In24 1_555 1_555
C12_9 C18_9 1_555 1_555
C15_9 C16_9 1_555 1_555
In23 O11_7 1_555 1_555
In23_3 O12_7 1_555 1_555
In22_2 O12_7 1_555 1_555
O42_5 In23_3 1_555 1_555
O49_9 In23_3 1_555 1_555
O57_5 In23_3 1_555 1_555
N11_9 In23_3 1_555 1_555
O4_10 C2_10 1_555 1_555
O42_5 C2_10 1_555 1_555
O55_2 C8_10 1_555 1_555
C2_10 C10_10 1_555 1_555
C8_10 O25 1_555 1_555
C9_10 C8_10 1_555 1_555
C10_10 C15_10 1_555 1_555
C11_10 C9_10 1_555 1_555
H6_10 C11_10 1_555 1_555
C12_10 H7_10 1_555 1_555
C13_10 C12_10 1_555 1_555
C14_10 C9_10 1_555 1_555
H8_10 C14_10 1_555 1_555
C15_10 H9_10 1_555 1_555
N3_10 C17_10 1_555 1_555
C16_10 C13_10 1_555 1_555
H10_10 C16_10 1_555 1_555
C17_10 C19_10 1_555 1_555
C18_10 C10_10 1_555 1_555
H11_10 C18_10 1_555 1_555
N4_10 C13_10 1_555 1_555
C19_10 C11_10 1_555 1_555
H12_10 C19_10 1_555 1_555
C20_10 C14_10 1_555 1_555
H13_10 C20_10 1_555 1_555
In9_4 O22_10 1_555 1_555
In22_2 O4_10 1_555 1_555
In23_2 O52_6 1_555 1_555
O22_10 C58_10 1_555 1_555
O48_10 In22_2 1_555 1_555
O52_6 C58_10 1_555 1_555
N10_10 In22_2 1_555 1_555
C28_10 O33_2 1_555 1_555
C58_10 C63_10 1_555 1_555
C63_10 C73_10 1_555 1_555
C68_10 C28_10 1_555 1_555
C73_10 H41_10 1_555 1_555
C78_10 H46_10 1_555 1_555
C83_10 C78_10 1_555 1_555
C88_10 C63_10 1_555 1_555
H51_10 C88_10 1_555 1_555
C93_10 C68_10 1_555 1_555
H56_10 C93_10 1_555 1_555
N19_10 C103_10 1_555 1_555
C98_10 C83_10 1_555 1_555
H61_10 C98_10 1_555 1_555
C103_10 C113_10 1_555 1_555
C108_10 C68_10 1_555 1_555
H66_10 C108_10 1_555 1_555
N24_10 C83_10 1_555 1_555
C113_10 C73_10 1_555 1_555
H71_10 C113_10 1_555 1_555
C118_10 C88_10 1_555 1_555
H76_10 C118_10 1_555 1_555
C12_10 C18_10 1_555 1_555
C15_10 C16_10 1_555 1_555
N3_10 N4_10 1_555 1_555
C17_10 C20_10 1_555 1_555
O39 C28_10 1_555 1_555
C78_10 C108_10 1_555 1_555
C93_10 C98_10 1_555 1_555
N19_10 N24_10 1_555 1_555
C103_10 C118_10 1_555 1_555
O49_10 In23 1_555 1_555
O57_6 In23 1_555 1_555
N11_10 In23 1_555 1_555
O4_11 C2_11 1_555 1_555
C2_11 C10_11 1_555 1_555
C10_11 C15_11 1_555 1_555
C15_11 H9_11 1_555 1_555
H10_11 C16_11 1_555 1_555
In22 O4_11 1_555 1_555
O11_8 In22 1_555 1_555
O48_11 In22 1_555 1_555
N10_11 In22 1_555 1_555
C15_11 C16_11 1_555 1_555
O8_11 H83_5 1_555 1_555
O55 C8_11 1_555 1_555
C8_11 O27 1_555 1_555
C9_11 C8_11 1_555 1_555
C11_11 C9_11 1_555 1_555
H6_11 C11_11 1_555 1_555
C14_11 C9_11 1_555 1_555
H8_11 C14_11 1_555 1_555
N3_11 C17_11 1_555 1_555
C17_11 C19_11 1_555 1_555
N4_11 C13_11 1_555 1_555
C19_11 C11_11 1_555 1_555
C20_11 C14_11 1_555 1_555
H13_11 C20_11 1_555 1_555
In9_6 O22_11 1_555 1_555
In23_2 O12_8 1_555 1_555
O22_11 C58_11 1_555 1_555
O42_6 In23_2 1_555 1_555
O49_11 In23_2 1_555 1_555
O57_6 C58_11 1_555 1_555
N11_11 In23_2 1_555 1_555
C28_11 O33 1_555 1_555
C58_11 C63_11 1_555 1_555
C63_11 C73_11 1_555 1_555
C68_11 C28_11 1_555 1_555
C73_11 H41_11 1_555 1_555
C78_11 H46_11 1_555 1_555
C83_11 C78_11 1_555 1_555
C88_11 C63_11 1_555 1_555
H51_11 C88_11 1_555 1_555
C93_11 C68_11 1_555 1_555
H56_11 C93_11 1_555 1_555
N19_11 C103_11 1_555 1_555
C98_11 C83_11 1_555 1_555
H61_11 C98_11 1_555 1_555
C103_11 C113_11 1_555 1_555
C108_11 C68_11 1_555 1_555
H66_11 C108_11 1_555 1_555
N24_11 C83_11 1_555 1_555
C113_11 C73_11 1_555 1_555
H71_11 C113_11 1_555 1_555
C118_11 C88_11 1_555 1_555
H76_11 C118_11 1_555 1_555
N3_11 N4_11 1_555 1_555
C17_11 C20_11 1_555 1_555
O39_2 C28_11 1_555 1_555
C78_11 C108_11 1_555 1_555
C93_11 C98_11 1_555 1_555
N19_11 N24_11 1_555 1_555
C103_11 C118_11 1_555 1_555
H11_11 C18_11 1_555 1_555
In23_4 O5_6 1_555 1_555
In23_4 O11_9 1_555 1_555
O8_12 H84_5 1_555 1_555
In24_2 O12_9 1_555 1_555
O8_7 H84_6 1_555 1_555
H11_12 C18_12 1_555 1_555
O49_12 In23_4 1_555 1_555
N11_12 In23_4 1_555 1_555
O8_8 H83_6 1_555 1_555
O4_12 C2_12 1_555 1_555
O55_3 C8_12 1_555 1_555
C2_12 C10_12 1_555 1_555
C8_12 O27_2 1_555 1_555
C9_12 C8_12 1_555 1_555
C10_12 C15_12 1_555 1_555
C11_12 C9_12 1_555 1_555
H6_12 C11_12 1_555 1_555
C13_12 C12_12 1_555 1_555
C14_12 C9_12 1_555 1_555
H8_12 C14_12 1_555 1_555
C15_12 H9_12 1_555 1_555
N3_12 C17_12 1_555 1_555
C16_12 C13_12 1_555 1_555
H10_12 C16_12 1_555 1_555
C17_12 C19_12 1_555 1_555
N4_12 C13_12 1_555 1_555
C19_12 C11_12 1_555 1_555
C20_12 C14_12 1_555 1_555
H13_12 C20_12 1_555 1_555
In9_3 O22_12 1_555 1_555
In24_2 O4_12 1_555 1_555
O22_12 C58_12 1_555 1_555
O48_12 In24_2 1_555 1_555
O57_5 C58_12 1_555 1_555
N10_12 In24_2 1_555 1_555
C28_12 O33_3 1_555 1_555
C58_12 C63_12 1_555 1_555
C63_12 C73_12 1_555 1_555
C68_12 C28_12 1_555 1_555
C73_12 H41_12 1_555 1_555
C78_12 H46_12 1_555 1_555
C83_12 C78_12 1_555 1_555
C88_12 C63_12 1_555 1_555
H51_12 C88_12 1_555 1_555
C93_12 C68_12 1_555 1_555
H56_12 C93_12 1_555 1_555
N19_12 C103_12 1_555 1_555
C98_12 C83_12 1_555 1_555
H61_12 C98_12 1_555 1_555
C103_12 C113_12 1_555 1_555
C108_12 C68_12 1_555 1_555
H66_12 C108_12 1_555 1_555
N24_12 C83_12 1_555 1_555
C113_12 C73_12 1_555 1_555
H71_12 C113_12 1_555 1_555
C118_12 C88_12 1_555 1_555
H76_12 C118_12 1_555 1_555
C15_12 C16_12 1_555 1_555
N3_12 N4_12 1_555 1_555
C17_12 C20_12 1_555 1_555
O39_4 C28_12 1_555 1_555
C78_12 C108_12 1_555 1_555
C93_12 C98_12 1_555 1_555
N19_12 N24_12 1_555 1_555
C103_12 C118_12 1_555 1_555
In7_3 O11 1_555 1_555
O2_5 In7_3 1_555 1_555
N10_6 C3_5 1_555 1_555
C1_5 C4_5 1_555 1_555
C3_5 H1_5 1_555 1_555
C4_5 C3_5 1_555 1_555
C5_5 N10_6 1_555 1_555
H2_5 C5_5 1_555 1_555
C6_5 O2_5 1_555 1_555
N2_5 C4_5 1_555 1_555
H3_5 N2_5 1_555 1_555
H4_5 N2_5 1_555 1_555
C7_5 C1_5 1_555 1_555
H5_5 C7_5 1_555 1_555
O8_13 In7_3 1_555 1_555
In6_6 O12_4 1_555 1_555
In6_4 O12_5 1_555 1_555
In9_5 O14_5 1_555 1_555
In9_2 O15_5 1_555 1_555
O13_5 In7_3 1_555 1_555
O14_5 C47_5 1_555 1_555
O15_5 C48_5 1_555 1_555
O16_3 In6_6 1_555 1_555
O17_3 In6_4 1_555 1_555
O18_3 In6_6 1_555 1_555
O48_12 C47_5 1_555 1_555
O49_12 C48_5 1_555 1_555
C21_5 C36_5 1_555 1_555
C22_5 C37_5 1_555 1_555
C23_5 C38_5 1_555 1_555
C24_5 C39_5 1_555 1_555
C25_5 C40_5 1_555 1_555
C31_5 N11_7 1_555 1_555
C32_5 N10 1_555 1_555
C33_5 N11_2 1_555 1_555
C34_5 N10_12 1_555 1_555
C35_5 N11_12 1_555 1_555
H14_5 C31_5 1_555 1_555
H15_5 C32_5 1_555 1_555
H16_5 C33_5 1_555 1_555
H17_5 C34_5 1_555 1_555
H18_5 C35_5 1_555 1_555
C36_5 C31_5 1_555 1_555
C37_5 C32_5 1_555 1_555
C38_5 C33_5 1_555 1_555
C39_5 C34_5 1_555 1_555
C40_5 C35_5 1_555 1_555
C41_5 N11_7 1_555 1_555
C42_5 N10 1_555 1_555
C43_5 N11_2 1_555 1_555
C44_5 N10_12 1_555 1_555
C45_5 N11_12 1_555 1_555
H19_5 C41_5 1_555 1_555
H20_5 C42_5 1_555 1_555
H21_5 C43_5 1_555 1_555
H22_5 C44_5 1_555 1_555
H23_5 C45_5 1_555 1_555
C46_5 O13_5 1_555 1_555
C47_5 C22_5 1_555 1_555
C48_5 C23_5 1_555 1_555
C49_5 O16_3 1_555 1_555
C50_5 O17_3 1_555 1_555
N12_5 C36_5 1_555 1_555
N13_5 C37_5 1_555 1_555
N14_5 C38_5 1_555 1_555
N15_5 C39_5 1_555 1_555
N16_5 C40_5 1_555 1_555
H24_5 N12_5 1_555 1_555
H25_5 N13_5 1_555 1_555
H26_5 N14_5 1_555 1_555
H27_5 N15_5 1_555 1_555
H28_5 N16_5 1_555 1_555
H29_5 N12_5 1_555 1_555
H30_5 N13_5 1_555 1_555
H31_5 N14_5 1_555 1_555
H32_5 N15_5 1_555 1_555
H33_5 N16_5 1_555 1_555
C51_5 C21_5 1_555 1_555
C52_5 C22_5 1_555 1_555
C53_5 C23_5 1_555 1_555
C54_5 C24_5 1_555 1_555
C55_5 C25_5 1_555 1_555
H34_5 C51_5 1_555 1_555
H35_5 C52_5 1_555 1_555
H36_5 C53_5 1_555 1_555
H37_5 C54_5 1_555 1_555
H38_5 C55_5 1_555 1_555
O58_4 In6_6 1_555 1_555
O59_4 In6_4 1_555 1_555
O48 C6_5 1_555 1_555
C1_5 C6_5 1_555 1_555
C5_5 C7_5 1_555 1_555
O49_2 C46_5 1_555 1_555
O48_6 C49_5 1_555 1_555
O49_7 C50_5 1_555 1_555
C21_5 C46_5 1_555 1_555
C24_5 C49_5 1_555 1_555
C25_5 C50_5 1_555 1_555
C41_5 C51_5 1_555 1_555
C42_5 C52_5 1_555 1_555
C43_5 C53_5 1_555 1_555
C44_5 C54_5 1_555 1_555
C45_5 C55_5 1_555 1_555
In6_5 O12_6 1_555 1_555
O19_3 In6_5 1_555 1_555
O59_5 In6_5 1_555 1_555
O59_5 H83_7 1_555 1_555
O59_5 H84_7 1_555 1_555
O59_4 H81_3 1_555 1_555
O59_4 H82_3 1_555 1_555
In6_3 O12 1_555 1_555
O2_6 In6_3 1_555 1_555
N10_8 C3_6 1_555 1_555
C1_6 C4_6 1_555 1_555
C3_6 H1_6 1_555 1_555
C4_6 C3_6 1_555 1_555
C5_6 N10_8 1_555 1_555
H2_6 C5_6 1_555 1_555
C6_6 O2_6 1_555 1_555
N2_6 C4_6 1_555 1_555
H3_6 N2_6 1_555 1_555
H4_6 N2_6 1_555 1_555
C7_6 C1_6 1_555 1_555
H5_6 C7_6 1_555 1_555
O8_14 In6_3 1_555 1_555
In9_6 O14_6 1_555 1_555
In9_3 O15_6 1_555 1_555
O13_6 In6_3 1_555 1_555
O14_6 C47_6 1_555 1_555
O15_6 C48_6 1_555 1_555
O48_9 C47_6 1_555 1_555
O49_9 C48_6 1_555 1_555
C21_6 C36_6 1_555 1_555
C22_6 C37_6 1_555 1_555
C23_6 C38_6 1_555 1_555
C24_6 C39_6 1_555 1_555
C25_6 C40_6 1_555 1_555
C31_6 N11_5 1_555 1_555
C32_6 N10_2 1_555 1_555
C33_6 N11 1_555 1_555
C34_6 N10_9 1_555 1_555
C35_6 N11_9 1_555 1_555
H14_6 C31_6 1_555 1_555
H15_6 C32_6 1_555 1_555
H16_6 C33_6 1_555 1_555
H17_6 C34_6 1_555 1_555
H18_6 C35_6 1_555 1_555
C36_6 C31_6 1_555 1_555
C37_6 C32_6 1_555 1_555
C38_6 C33_6 1_555 1_555
C39_6 C34_6 1_555 1_555
C40_6 C35_6 1_555 1_555
C41_6 N11_5 1_555 1_555
C42_6 N10_2 1_555 1_555
C43_6 N11 1_555 1_555
C44_6 N10_9 1_555 1_555
C45_6 N11_9 1_555 1_555
H19_6 C41_6 1_555 1_555
H20_6 C42_6 1_555 1_555
H21_6 C43_6 1_555 1_555
H22_6 C44_6 1_555 1_555
H23_6 C45_6 1_555 1_555
C46_6 O13_6 1_555 1_555
C47_6 C22_6 1_555 1_555
C48_6 C23_6 1_555 1_555
C49_6 O19_3 1_555 1_555
C50_6 O18_3 1_555 1_555
N12_6 C36_6 1_555 1_555
N13_6 C37_6 1_555 1_555
N14_6 C38_6 1_555 1_555
N15_6 C39_6 1_555 1_555
N16_6 C40_6 1_555 1_555
H24_6 N12_6 1_555 1_555
H25_6 N13_6 1_555 1_555
H26_6 N14_6 1_555 1_555
H27_6 N15_6 1_555 1_555
H28_6 N16_6 1_555 1_555
H29_6 N12_6 1_555 1_555
H30_6 N13_6 1_555 1_555
H31_6 N14_6 1_555 1_555
H32_6 N15_6 1_555 1_555
H33_6 N16_6 1_555 1_555
C51_6 C21_6 1_555 1_555
C52_6 C22_6 1_555 1_555
C53_6 C23_6 1_555 1_555
C54_6 C24_6 1_555 1_555
C55_6 C25_6 1_555 1_555
H34_6 C51_6 1_555 1_555
H35_6 C52_6 1_555 1_555
H36_6 C53_6 1_555 1_555
H37_6 C54_6 1_555 1_555
H38_6 C55_6 1_555 1_555
O48_2 C6_6 1_555 1_555
C1_6 C6_6 1_555 1_555
C5_6 C7_6 1_555 1_555
O49 C46_6 1_555 1_555
O48_8 C49_6 1_555 1_555
O49_5 C50_6 1_555 1_555
C21_6 C46_6 1_555 1_555
C24_6 C49_6 1_555 1_555
C25_6 C50_6 1_555 1_555
C41_6 C51_6 1_555 1_555
C42_6 C52_6 1_555 1_555
C43_6 C53_6 1_555 1_555
C44_6 C54_6 1_555 1_555
C45_6 C55_6 1_555 1_555
In7_4 O11_5 1_555 1_555
O19_4 In7_4 1_555 1_555
O59_6 In7_4 1_555 1_555
O59_6 H83_8 1_555 1_555
O59_6 H84_8 1_555 1_555
In6 O12_2 1_555 1_555
O8_15 In6 1_555 1_555
In7_5 O11_6 1_555 1_555
In9_6 O15_7 1_555 1_555
O13_7 In6 1_555 1_555
O15_7 C48_7 1_555 1_555
O17_4 In7_5 1_555 1_555
O49_10 C48_7 1_555 1_555
C21_7 C36_7 1_555 1_555
C23_7 C38_7 1_555 1_555
C25_7 C40_7 1_555 1_555
C31_7 N11_8 1_555 1_555
C33_7 N11_3 1_555 1_555
C35_7 N11_10 1_555 1_555
H14_7 C31_7 1_555 1_555
H16_7 C33_7 1_555 1_555
H18_7 C35_7 1_555 1_555
C36_7 C31_7 1_555 1_555
C38_7 C33_7 1_555 1_555
C40_7 C35_7 1_555 1_555
C41_7 N11_8 1_555 1_555
C43_7 N11_3 1_555 1_555
C45_7 N11_10 1_555 1_555
H19_7 C41_7 1_555 1_555
H21_7 C43_7 1_555 1_555
H23_7 C45_7 1_555 1_555
C46_7 O13_7 1_555 1_555
C48_7 C23_7 1_555 1_555
C50_7 O17_4 1_555 1_555
N12_7 C36_7 1_555 1_555
N14_7 C38_7 1_555 1_555
N16_7 C40_7 1_555 1_555
H24_7 N12_7 1_555 1_555
H26_7 N14_7 1_555 1_555
H28_7 N16_7 1_555 1_555
H29_7 N12_7 1_555 1_555
H31_7 N14_7 1_555 1_555
H33_7 N16_7 1_555 1_555
C51_7 C21_7 1_555 1_555
C53_7 C23_7 1_555 1_555
C55_7 C25_7 1_555 1_555
H34_7 C51_7 1_555 1_555
H36_7 C53_7 1_555 1_555
H38_7 C55_7 1_555 1_555
O59_7 In7_5 1_555 1_555
O49_3 C46_7 1_555 1_555
O49_8 C50_7 1_555 1_555
C21_7 C46_7 1_555 1_555
C25_7 C50_7 1_555 1_555
C41_7 C51_7 1_555 1_555
C43_7 C53_7 1_555 1_555
C45_7 C55_7 1_555 1_555
O8_15 H79_5 1_555 1_555
O8_15 H80_5 1_555 1_555
In6_2 O12_3 1_555 1_555
O2_7 In6_2 1_555 1_555
N10_5 C3_7 1_555 1_555
C1_7 C4_7 1_555 1_555
C3_7 H1_7 1_555 1_555
C4_7 C3_7 1_555 1_555
C5_7 N10_5 1_555 1_555
H2_7 C5_7 1_555 1_555
C6_7 O2_7 1_555 1_555
N2_7 C4_7 1_555 1_555
H3_7 N2_7 1_555 1_555
H4_7 N2_7 1_555 1_555
C7_7 C1_7 1_555 1_555
H5_7 C7_7 1_555 1_555
O8_16 In6_2 1_555 1_555
In7_6 O11_4 1_555 1_555
In9_3 O14_7 1_555 1_555
O14_7 C47_7 1_555 1_555
O16_4 In7_6 1_555 1_555
O18_4 In7_6 1_555 1_555
O48_10 C47_7 1_555 1_555
C22_7 C37_7 1_555 1_555
C24_7 C39_7 1_555 1_555
C32_7 N10_4 1_555 1_555
C34_7 N10_10 1_555 1_555
H15_7 C32_7 1_555 1_555
H17_7 C34_7 1_555 1_555
C37_7 C32_7 1_555 1_555
C39_7 C34_7 1_555 1_555
C42_7 N10_4 1_555 1_555
C44_7 N10_10 1_555 1_555
H20_7 C42_7 1_555 1_555
H22_7 C44_7 1_555 1_555
C47_7 C22_7 1_555 1_555
C49_7 O16_4 1_555 1_555
N13_7 C37_7 1_555 1_555
N15_7 C39_7 1_555 1_555
H25_7 N13_7 1_555 1_555
H27_7 N15_7 1_555 1_555
H30_7 N13_7 1_555 1_555
H32_7 N15_7 1_555 1_555
C52_7 C22_7 1_555 1_555
C54_7 C24_7 1_555 1_555
H35_7 C52_7 1_555 1_555
H37_7 C54_7 1_555 1_555
O58_5 In7_6 1_555 1_555
O48_4 C6_7 1_555 1_555
C1_7 C6_7 1_555 1_555
C5_7 C7_7 1_555 1_555
O48_5 C49_7 1_555 1_555
C24_7 C49_7 1_555 1_555
C42_7 C52_7 1_555 1_555
C44_7 C54_7 1_555 1_555
In7 O11_2 1_555 1_555
O2_8 In7 1_555 1_555
N10_7 C3_8 1_555 1_555
C1_8 C4_8 1_555 1_555
C3_8 H1_8 1_555 1_555
C4_8 C3_8 1_555 1_555
C5_8 N10_7 1_555 1_555
H2_8 C5_8 1_555 1_555
C6_8 O2_8 1_555 1_555
N2_8 C4_8 1_555 1_555
H3_8 N2_8 1_555 1_555
H4_8 N2_8 1_555 1_555
C7_8 C1_8 1_555 1_555
H5_8 C7_8 1_555 1_555
O8_17 In7 1_555 1_555
In9 O14_8 1_555 1_555
O14_8 C47_8 1_555 1_555
O48_11 C47_8 1_555 1_555
C22_8 C37_8 1_555 1_555
C24_8 C39_8 1_555 1_555
C32_8 N10_3 1_555 1_555
C34_8 N10_11 1_555 1_555
H15_8 C32_8 1_555 1_555
H17_8 C34_8 1_555 1_555
C37_8 C32_8 1_555 1_555
C39_8 C34_8 1_555 1_555
C42_8 N10_3 1_555 1_555
C44_8 N10_11 1_555 1_555
H20_8 C42_8 1_555 1_555
H22_8 C44_8 1_555 1_555
C47_8 C22_8 1_555 1_555
C49_8 O19_4 1_555 1_555
N13_8 C37_8 1_555 1_555
N15_8 C39_8 1_555 1_555
H25_8 N13_8 1_555 1_555
H27_8 N15_8 1_555 1_555
H30_8 N13_8 1_555 1_555
H32_8 N15_8 1_555 1_555
C52_8 C22_8 1_555 1_555
C54_8 C24_8 1_555 1_555
H35_8 C52_8 1_555 1_555
H37_8 C54_8 1_555 1_555
O48_3 C6_8 1_555 1_555
C1_8 C6_8 1_555 1_555
C5_8 C7_8 1_555 1_555
O48_7 C49_8 1_555 1_555
C24_8 C49_8 1_555 1_555
C42_8 C52_8 1_555 1_555
C44_8 C54_8 1_555 1_555
O59_7 H81_4 1_555 1_555
O59_7 H82_4 1_555 1_555
In7_2 O11_3 1_555 1_555
O8_18 In7_2 1_555 1_555
In9_4 O15_8 1_555 1_555
O13_8 In7_2 1_555 1_555
O15_8 C48_8 1_555 1_555
O49_11 C48_8 1_555 1_555
C21_8 C36_8 1_555 1_555
C23_8 C38_8 1_555 1_555
C25_8 C40_8 1_555 1_555
C31_8 N11_6 1_555 1_555
C33_8 N11_4 1_555 1_555
C35_8 N11_11 1_555 1_555
H14_8 C31_8 1_555 1_555
H16_8 C33_8 1_555 1_555
H18_8 C35_8 1_555 1_555
C36_8 C31_8 1_555 1_555
C38_8 C33_8 1_555 1_555
C40_8 C35_8 1_555 1_555
C41_8 N11_6 1_555 1_555
C43_8 N11_4 1_555 1_555
C45_8 N11_11 1_555 1_555
H19_8 C41_8 1_555 1_555
H21_8 C43_8 1_555 1_555
H23_8 C45_8 1_555 1_555
C46_8 O13_8 1_555 1_555
C48_8 C23_8 1_555 1_555
C50_8 O18_4 1_555 1_555
N12_8 C36_8 1_555 1_555
N14_8 C38_8 1_555 1_555
N16_8 C40_8 1_555 1_555
H24_8 N12_8 1_555 1_555
H26_8 N14_8 1_555 1_555
H28_8 N16_8 1_555 1_555
H29_8 N12_8 1_555 1_555
H31_8 N14_8 1_555 1_555
H33_8 N16_8 1_555 1_555
C51_8 C21_8 1_555 1_555
C53_8 C23_8 1_555 1_555
C55_8 C25_8 1_555 1_555
H34_8 C51_8 1_555 1_555
H36_8 C53_8 1_555 1_555
H38_8 C55_8 1_555 1_555
O49_4 C46_8 1_555 1_555
O49_6 C50_8 1_555 1_555
C21_8 C46_8 1_555 1_555
C25_8 C50_8 1_555 1_555
C41_8 C51_8 1_555 1_555
C43_8 C53_8 1_555 1_555
C45_8 C55_8 1_555 1_555
O8_18 H79_6 1_555 1_555
O8_18 H80_6 1_555 1_555
In9_6 O11_7 1_555 1_555
O8_19 In9_6 1_555 1_555
O8_16 H83_9 1_555 1_555
O8_16 H84_9 1_555 1_555
In9_3 O12_7 1_555 1_555
O8_20 In9_3 1_555 1_555
O8_17 H83_10 1_555 1_555
O8_17 H84_10 1_555 1_555
In9_4 O12_8 1_555 1_555
O8_21 In9_4 1_555 1_555
O8_21 H79_7 1_555 1_555
O8_21 H80_7 1_555 1_555
In9_5 O12_9 1_555 1_555
O8_22 In9_5 1_555 1_555
In9 O11_8 1_555 1_555
O8_23 In9 1_555 1_555
In9_2 O11_9 1_555 1_555
O8_24 In9_2 1_555 1_555
O8_24 H79_8 1_555 1_555
O8_24 H80_8 1_555 1_555
O8_22 H83_11 1_555 1_555
O8_22 H84_11 1_555 1_555
O8_23 H83_12 1_555 1_555
O8_23 H84_12 1_555 1_555

#END
