
###############################################################################
#
# This file contains modified crystal structure data generated from the
# MOF subset of the Cambridge Structural Database (CSD) v543 
# hosted by the Cambridge Crystallographic Data Centre (CCDC).
#
# This work is licensed under the Creative Commons
# Attribution-NonCommercial-ShareAlike 4.0 International License.
# To view a copy of this license, visit
# http://creativecommons.org/licenses/by-nc-sa/4.0/
# or send a letter to
# Creative Commons, PO Box 1866, Mountain View, CA 94042, USA.
#
# CIF created using the CSD Python API on 29 September 2022
# The structure has been converted into the P1 space group
# The structure has a 3D framework
# The original CSD entry KACZUM is in the monoclinic crystal system
# The framework has been calculated to contain at least 10.0% void space
# The void calculation uses a probe of radius 1.32A, grid spacing 0.4
#
###############################################################################

data_KACZUM
_chemical_formula_moiety         '(C40 H28 N8 O12 Zn1)n'
_symmetry_cell_setting           triclinic
_symmetry_space_group_name_H-M   'P 1'
_symmetry_Int_Tables_number      1
_space_group_name_Hall           'P 1'
loop_
_symmetry_equiv_pos_site_id
_symmetry_equiv_pos_as_xyz
1 x,y,z
_cell_length_a                   11.3869(5)
_cell_length_b                   8.3323(4)
_cell_length_c                   13.9637(6)
_cell_angle_alpha                90
_cell_angle_beta                 96.310(3)
_cell_angle_gamma                90
_cell_volume                     1316.84
loop_
_atom_site_label
_atom_site_type_symbol
_atom_site_fract_x
_atom_site_fract_y
_atom_site_fract_z
O4 O 0.15505(15) 0.1894(2) 0.31299(11)
C17 C 0.1128(2) 0.2400(3) 0.39028(16)
O5 O 0.12226(17) 0.3797(2) 0.41808(12)
C18 C 0.0528(2) 0.1140(3) 0.44491(15)
C20 C 0.0063(2) 0.1586(3) 0.52899(16)
H14 H 0.0104 0.2656 0.5481
Zn3 Zn 0.2500 0.34906(4) 0.2500
N3 N 0.36646(17) 0.4891(2) 0.32409(13)
C11 C 0.4826(2) 0.4703(3) 0.33271(16)
H8 H 0.5213 0.3824 0.3097
N4 N 0.53664(17) 0.5956(2) 0.37931(14)
H9 H 0.6116 0.6069 0.3934
C12 C 0.4512(2) 0.7024(3) 0.40052(15)
C13 C 0.3456(2) 0.6346(3) 0.36673(15)
H10 H 0.2716 0.6791 0.3716
C14 C 0.4773(2) 0.8550(3) 0.45047(15)
C15 C 0.5756(2) 0.8702(3) 0.52053(16)
H11 H 0.6263 0.7838 0.5341
C16 C 0.4034(2) 0.9861(3) 0.43082(15)
H12 H 0.3388 0.9773 0.3842
N3_2 N 0.13354(17) 0.4891(2) 0.17591(13)
C11_2 C 0.0174(2) 0.4703(3) 0.16729(16)
C12_2 C 0.0488(2) 0.7024(3) 0.09948(15)
C13_2 C 0.1544(2) 0.6346(3) 0.13327(15)
H10_2 H 0.2284 0.6791 0.1284
C14_2 C 0.0227(2) 0.8550(3) 0.04953(15)
C16_2 C 0.0966(2) 0.9861(3) 0.06918(15)
H12_2 H 0.1612 0.9773 0.1158
O4_2 O 0.34495(15) 0.1894(2) 0.18701(11)
C17_2 C 0.3872(2) 0.2400(3) 0.10972(16)
O5_2 O 0.37774(17) 0.3797(2) 0.08192(12)
C18_2 C 0.4472(2) 0.1140(3) 0.05509(15)
C19 C 0.0460(2) 0.9525(3) 0.41471(15)
O6 O 0.08867(17) 0.8984(2) 0.33389(12)
H13 H 0.1132 0.9743 0.3045
C9 C 0.9540(2) 0.0475(3) 0.58529(15)
O3 O 0.91133(17) 0.1016(2) 0.66611(12)
H6 H 0.8868 0.0257 0.6955
Zn1 Zn 0.7500 0.65094(4) 0.7500
N1 N 0.63354(17) 0.5109(2) 0.67591(13)
C1 C 0.5174(2) 0.5297(3) 0.66729(16)
H1 H 0.4787 0.6176 0.6903
N2 N 0.46336(17) 0.4044(2) 0.62069(14)
H2 H 0.3884 0.3931 0.6066
C2 C 0.5488(2) 0.2976(3) 0.59948(15)
C3 C 0.6544(2) 0.3654(3) 0.63327(15)
H3 H 0.7284 0.3209 0.6284
C4 C 0.5227(2) 0.1450(3) 0.54953(15)
C5 C 0.4244(2) 0.1298(3) 0.47947(16)
H4 H 0.3737 0.2162 0.4659
C6 C 0.5966(2) 0.0139(3) 0.56918(15)
H5 H 0.6612 0.0227 0.6158
O1 O 0.84495(15) 0.8106(2) 0.68701(11)
C7 C 0.8872(2) 0.7600(3) 0.60972(16)
O2 O 0.87774(17) 0.6203(2) 0.58192(12)
C8 C 0.9472(2) 0.8860(3) 0.55509(15)
C10 C 0.9937(2) 0.8414(3) 0.47101(16)
H7 H 0.9896 0.7344 0.4519
N5 N 0.86646(17) 0.5109(2) 0.82409(13)
O7 O 0.65505(15) 0.8106(2) 0.81299(11)
C1_2 C 0.9826(2) 0.5297(3) 0.83271(16)
C2_2 C 0.9512(2) 0.2976(3) 0.90052(15)
C3_2 C 0.8456(2) 0.3654(3) 0.86673(15)
H3_2 H 0.7716 0.3209 0.8716
C4_2 C 0.9773(2) 0.1450(3) 0.95047(15)
C6_2 C 0.9034(2) 0.0139(3) 0.93082(15)
H5_2 H 0.8388 0.0227 0.8842
C7_2 C 0.6128(2) 0.7600(3) 0.89028(16)
O2_2 O 0.62226(17) 0.6203(2) 0.91808(12)
C8_2 C 0.5528(2) 0.8860(3) 0.94491(15)
C5_2 C 0.0756(2) 0.1298(3) 0.02053(16)
H4_2 H 0.1263 0.2162 0.0341
H1_2 H 0.0213 0.6176 0.8097
N2_2 N 0.03664(17) 0.4044(2) 0.87931(14)
H2_2 H 0.1116 0.3931 0.8934
C9_2 C 0.5460(2) 0.0475(3) 0.91471(15)
O3_2 O 0.58867(17) 0.1016(2) 0.83389(12)
H6_2 H 0.6132 0.0257 0.8045
C20_2 C 0.4937(2) 0.1586(3) 0.97101(16)
H14_2 H 0.4896 0.2656 0.9519
C10_2 C 0.5063(2) 0.8414(3) 0.02899(16)
H7_2 H 0.5104 0.7344 0.0481
C19_2 C 0.4540(2) 0.9525(3) 0.08529(15)
O6_2 O 0.41133(17) 0.8984(2) 0.16611(12)
H13_2 H 0.3868 0.9743 0.1955
H8_2 H 0.9787 0.3824 0.1903
N4_2 N 0.96336(17) 0.5956(2) 0.12069(14)
H9_2 H 0.8884 0.6069 0.1066
C15_2 C 0.9244(2) 0.8702(3) 0.97947(16)
H11_2 H 0.8737 0.7838 0.9659
loop_
_geom_bond_atom_site_label_1
_geom_bond_atom_site_label_2
_geom_bond_site_symmetry_1
_geom_bond_site_symmetry_2
O4 C17 1_555 1_555
C17 O5 1_555 1_555
C18 C17 1_555 1_555
H14 C20 1_555 1_555
Zn3 O4 1_555 1_555
C18 C20 1_555 1_555
N3 C11 1_555 1_555
C11 H8 1_555 1_555
N4 C11 1_555 1_555
H9 N4 1_555 1_555
C12 N4 1_555 1_555
C13 N3 1_555 1_555
H10 C13 1_555 1_555
C14 C12 1_555 1_555
H11 C15 1_555 1_555
H12 C16 1_555 1_555
Zn3 N3 1_555 1_555
C12 C13 1_555 1_555
C14 C15 1_555 1_555
C14 C16 1_555 1_555
N3_2 C11_2 1_555 1_555
C13_2 N3_2 1_555 1_555
H10_2 C13_2 1_555 1_555
C14_2 C12_2 1_555 1_555
H12_2 C16_2 1_555 1_555
Zn3 N3_2 1_555 1_555
C12_2 C13_2 1_555 1_555
C14_2 C16_2 1_555 1_555
O4_2 C17_2 1_555 1_555
C17_2 O5_2 1_555 1_555
C18_2 C17_2 1_555 1_555
Zn3 O4_2 1_555 1_555
O6 C19 1_555 1_555
H13 O6 1_555 1_555
O3 C9 1_555 1_555
H6 O3 1_555 1_555
Zn1 N1 1_555 1_555
N1 C1 1_555 1_555
C1 H1 1_555 1_555
N2 C1 1_555 1_555
H2 N2 1_555 1_555
C2 N2 1_555 1_555
C3 N1 1_555 1_555
H3 C3 1_555 1_555
C4 C2 1_555 1_555
C5 C4 1_555 1_555
H4 C5 1_555 1_555
C6 C4 1_555 1_555
H5 C6 1_555 1_555
O1 Zn1 1_555 1_555
C7 O1 1_555 1_555
O2 C7 1_555 1_555
C8 C7 1_555 1_555
C10 C8 1_555 1_555
H7 C10 1_555 1_555
N5 Zn1 1_555 1_555
O7 Zn1 1_555 1_555
C2 C3 1_555 1_555
N5 C1_2 1_555 1_555
C3_2 N5 1_555 1_555
H3_2 C3_2 1_555 1_555
C4_2 C2_2 1_555 1_555
C6_2 C4_2 1_555 1_555
H5_2 C6_2 1_555 1_555
C7_2 O7 1_555 1_555
O2_2 C7_2 1_555 1_555
C8_2 C7_2 1_555 1_555
C2_2 C3_2 1_555 1_555
H4_2 C5_2 1_555 1_555
H2_2 N2_2 1_555 1_555
O3_2 C9_2 1_555 1_555
H6_2 O3_2 1_555 1_555
C20_2 C9_2 1_555 1_555
H14_2 C20_2 1_555 1_555
H7_2 C10_2 1_555 1_555
C19_2 C10_2 1_555 1_555
O6_2 C19_2 1_555 1_555
H13_2 O6_2 1_555 1_555
H9_2 N4_2 1_555 1_555
H11_2 C15_2 1_555 1_555

#END
