
###############################################################################
#
# This file contains modified crystal structure data generated from the
# MOF subset of the Cambridge Structural Database (CSD) v543 
# hosted by the Cambridge Crystallographic Data Centre (CCDC).
#
# This work is licensed under the Creative Commons
# Attribution-NonCommercial-ShareAlike 4.0 International License.
# To view a copy of this license, visit
# http://creativecommons.org/licenses/by-nc-sa/4.0/
# or send a letter to
# Creative Commons, PO Box 1866, Mountain View, CA 94042, USA.
#
# CIF created using the CSD Python API on 29 September 2022
# The structure has been converted into the P1 space group
# The structure has a 3D framework
# The original CSD entry KACZEV is in the cubic crystal system
# The framework has been calculated to contain at least 10.0% void space
# The void calculation uses a probe of radius 1.32A, grid spacing 0.4
# H atom positions have been added when not included in the experimental data
# Generated hydrogen atom positions removed from atoms on special positions
#
###############################################################################

data_KACZEV
_chemical_formula_moiety         '(C960 H720 In78 N144 O351)n'
_symmetry_cell_setting           triclinic
_symmetry_space_group_name_H-M   'P 1'
_symmetry_Int_Tables_number      1
_space_group_name_Hall           'P 1'
loop_
_symmetry_equiv_pos_site_id
_symmetry_equiv_pos_as_xyz
1 x,y,z
_cell_length_a                   38.771(5)
_cell_length_b                   38.771(5)
_cell_length_c                   38.771(5)
_cell_angle_alpha                90
_cell_angle_beta                 90
_cell_angle_gamma                90
_cell_volume                     58280.2
loop_
_atom_site_label
_atom_site_type_symbol
_atom_site_fract_x
_atom_site_fract_y
_atom_site_fract_z
In1 In 0.050022(13) 0.0000 0.2500
In2 In 0.129919(9) 0.014742(9) 0.207622(9)
O1 O 0.10274(13) 0.0000 0.2500
O2 O 0.04732(11) 0.04952(11) 0.22200(11)
O4 O 0.09994(12) 0.06210(10) 0.20111(12)
N1 N 0.03198(13) 0.16067(12) 0.15862(13)
C1 C 0.07828(17) 0.12594(16) 0.17975(16)
H1 H 0.1019 0.1230 0.1829
C2 C 0.02073(17) 0.10671(16) 0.18458(16)
H2 H 0.0046 0.0902 0.1911
C5 C 0.05583(15) 0.10103(15) 0.19034(14)
C7 C 0.01022(18) 0.13660(15) 0.16937(16)
C8 C 0.06850(15) 0.06827(15) 0.20612(15)
C9 C 0.06579(18) 0.15559(16) 0.16438(16)
H4 H 0.0813 0.1726 0.1578
In4 In -0.0000 0.2500 0.699978(13)
In6 In 0.2500 0.050022(13) 0.0000
In7 In 0.5000 0.2500 0.300022(13)
In13 In 0.042378(9) 0.264742(9) 0.620081(9)
In14 In 0.014742(9) 0.207622(9) 0.129919(9)
In19 In 0.207622(9) 0.129919(9) 0.014742(9)
In20 In 0.457622(9) 0.264742(9) 0.379919(9)
O10 O -0.0000 0.2500 0.64726(13)
O11 O -0.0000 0.2500 0.10274(13)
O14 O 0.22200(11) 0.04732(11) 0.04952(11)
O19 O 0.02800(11) 0.29952(11) 0.70268(11)
O21 O 0.09683(12) 0.01218(12) 0.32776(11)
O23 O 0.42224(11) 0.23782(12) 0.34683(12)
O26 O 0.07776(11) 0.23782(12) 0.65317(12)
O30 O 0.20111(12) 0.09994(12) 0.06210(10)
O34 O 0.04889(12) 0.31210(10) 0.65006(12)
O35 O 0.06210(10) 0.20111(12) 0.09994(12)
O37 O 0.04120(12) 0.22078(11) 0.58520(12)
O39 O 0.16480(12) 0.02922(11) 0.29120(12)
N5 N 0.15862(13) 0.03198(13) 0.16067(12)
N9 N 0.08933(12) 0.28198(13) 0.59138(13)
O44 O 0.04827(12) 0.02648(12) 0.29980(12)
O46 O 0.45020(12) 0.22352(12) 0.29827(12)
O50 O 0.04980(12) 0.22352(12) 0.70173(12)
C22 C 0.17975(16) 0.07828(17) 0.12594(16)
H14 H 0.1829 0.1019 0.1230
C27 C 0.18458(16) 0.02073(17) 0.10671(16)
H19 H 0.1911 0.0046 0.0902
O54 O 0.16781(11) 0.04475(12) 0.23559(11)
O57 O 0.01441(11) 0.29475(12) 0.58219(11)
O58 O 0.04475(12) 0.23559(11) 0.16781(11)
C31 C 0.06860(17) 0.02774(17) 0.32523(15)
C33 C 0.42477(15) 0.22226(17) 0.31860(17)
C36 C 0.05821(19) 0.04892(18) 0.35575(18)
C38 C 0.39425(18) 0.20108(18) 0.30821(19)
C42 C 0.19034(14) 0.05583(15) 0.10103(15)
C46 C 0.01681(14) 0.20387(15) 0.57267(15)
C48 C 0.17733(15) 0.04613(15) 0.26681(14)
C52 C 0.16937(16) 0.01022(18) 0.13660(15)
H25 H 0.1664 0.0133 0.3597
O61 O -0.0000 0.2500 0.75324(17)
C57 C 0.20612(15) 0.06850(15) 0.06827(15)
C62 C 0.16438(16) 0.06579(18) 0.15559(16)
H29 H 0.1578 0.0813 0.1726
C66 C 0.0245(2) 0.17977(19) 0.54400(19)
C68 C 0.20600(19) 0.07023(19) 0.2745(2)
C71 C 0.0395(3) 0.0884(3) 0.4125(2)
C73 C 0.3375(2) 0.1616(3) 0.2895(3)
C78 C 0.2239(2) 0.0865(3) 0.2495(2)
H35 H 0.2176 0.0829 0.2266
N10 N 0.0517(2) 0.1169(2) 0.4598(2)
N12 N 0.2902(2) 0.1331(2) 0.3017(2)
C81 C 0.0395(3) 0.1368(2) 0.4891(3)
C83 C 0.2609(3) 0.1132(2) 0.2895(3)
C86 C 0.0804(2) 0.0538(3) 0.3826(2)
C88 C 0.3674(2) 0.1962(3) 0.3304(2)
H38 H 0.1027 0.0449 0.3815
H40 H 0.3685 0.2051 0.3527
N15 N 0.0283(2) 0.1095(3) 0.4395(2)
N17 N 0.3105(2) 0.1405(3) 0.2783(2)
C91 C 0.0583(2) 0.1747(3) 0.5336(2)
C93 C 0.2164(2) 0.0753(3) 0.3083(2)
H43 H 0.0763 0.1863 0.5446
H45 H 0.2054 0.0637 0.3263
C96 C 0.0063(3) 0.1419(3) 0.4992(3)
C98 C 0.2508(3) 0.1081(3) 0.2563(3)
H50 H 0.2622 0.1192 0.2384
C101 C 0.0650(3) 0.1521(3) 0.5066(3)
C103 C 0.2434(3) 0.0979(3) 0.3150(3)
H53 H 0.0878 0.1476 0.5005
H55 H 0.2495 0.1024 0.3378
C106 C 0.0261(3) 0.0652(3) 0.3570(2)
C108 C 0.3930(2) 0.1848(3) 0.2761(3)
H58 H 0.0109 0.0641 0.3385
H60 H 0.4115 0.1859 0.2609
C111 C 0.0696(3) 0.0719(3) 0.4113(2)
C113 C 0.3387(2) 0.1781(3) 0.3196(3)
H63 H 0.0839 0.0726 0.4305
H65 H 0.3195 0.1774 0.3339
C116 C 0.0180(3) 0.0828(3) 0.3864(3)
C118 C 0.3636(3) 0.1672(3) 0.2680(3)
H70 H 0.3617 0.1584 0.2458
In6_2 In 0.2500 0.050022(13) 1.0000
In22 In 0.370081(9) 0.014742(9) 0.792378(9)
In1_2 In 0.050022(13) 1.0000 0.2500
O1_2 O 0.10274(13) 1.0000 0.2500
O3 O 0.09683(12) 0.98782(12) 0.17224(11)
O6 O 0.04827(12) 0.97352(12) 0.20020(12)
C3 C 0.06860(17) 0.97226(17) 0.17477(15)
C4 C 0.05821(19) 0.95108(18) 0.14425(18)
C11 C 0.0395(3) 0.9116(3) 0.0875(2)
N2 N 0.0517(2) 0.8831(2) 0.0402(2)
C13 C 0.0395(3) 0.8632(2) 0.0109(3)
C14 C 0.0804(2) 0.9462(3) 0.1174(2)
H6 H 0.1027 0.9551 0.1185
N3 N 0.0283(2) 0.8905(3) 0.0605(2)
C16 C 0.0063(3) 0.8581(3) 0.0008(3)
C18 C 0.0261(3) 0.9348(3) 0.1430(2)
H10 H 0.0109 0.9359 0.1615
C19 C 0.0696(3) 0.9281(3) 0.0887(2)
H11 H 0.0839 0.9274 0.0695
C20 C 0.0180(3) 0.9172(3) 0.1136(3)
In5 In 0.5000 0.7500 0.199978(13)
In8 In 0.2500 0.949978(13) 0.5000
In9 In 0.2500 0.699978(13) 0.0000
In11 In 0.129919(9) 0.985258(9) 0.292378(9)
In15 In 0.014742(9) 0.792378(9) 0.370081(9)
In18 In 0.457622(9) 0.735258(9) 0.120081(9)
In21 In 0.207622(9) 0.870081(9) 0.485258(9)
O12 O -0.0000 0.7500 0.39726(13)
O13 O 0.04732(11) 0.95048(11) 0.27800(11)
O15 O 0.22200(11) 0.95268(11) 0.45048(11)
O22 O 0.42224(11) 0.76218(12) 0.15317(12)
O29 O 0.09994(12) 0.93790(10) 0.29889(12)
O31 O 0.20111(12) 0.90006(12) 0.43790(10)
O36 O 0.06210(10) 0.79889(12) 0.40006(12)
O38 O 0.16480(12) 0.97078(11) 0.20880(12)
N4 N 0.03198(13) 0.83933(12) 0.34138(13)
N6 N 0.15862(13) 0.96802(13) 0.33933(12)
O45 O 0.45020(12) 0.77648(12) 0.20173(12)
C21 C 0.07828(17) 0.87406(16) 0.32025(16)
C23 C 0.17975(16) 0.92172(17) 0.37406(16)
H13 H 0.1019 0.8770 0.3171
H15 H 0.1829 0.8981 0.3770
C26 C 0.02073(17) 0.89329(16) 0.31542(16)
C28 C 0.18458(16) 0.97927(17) 0.39329(16)
H18 H 0.0046 0.9098 0.3089
H20 H 0.1911 0.9954 0.4098
O53 O 0.16781(11) 0.95525(12) 0.26441(11)
O59 O 0.04475(12) 0.76441(11) 0.33219(11)
C32 C 0.42477(15) 0.77774(17) 0.18140(17)
C37 C 0.39425(18) 0.79892(18) 0.19179(19)
C41 C 0.05583(15) 0.89897(15) 0.30966(14)
C43 C 0.19034(14) 0.94417(15) 0.39897(15)
C47 C 0.17733(15) 0.95387(15) 0.23319(14)
C51 C 0.01022(18) 0.86340(15) 0.33063(16)
C53 C 0.16937(16) 0.98978(18) 0.36340(15)
H24 H 0.1664 0.9867 0.1403
C56 C 0.06850(15) 0.93173(15) 0.29388(15)
C58 C 0.20612(15) 0.93150(15) 0.43173(15)
C61 C 0.06579(18) 0.84441(16) 0.33562(16)
C63 C 0.16438(16) 0.93421(18) 0.34441(16)
H28 H 0.0813 0.8274 0.3422
H30 H 0.1578 0.9187 0.3274
C67 C 0.20600(19) 0.92977(19) 0.2255(2)
C72 C 0.3375(2) 0.8384(3) 0.2105(3)
C77 C 0.2239(2) 0.9135(3) 0.2505(2)
H34 H 0.2176 0.9171 0.2734
N11 N 0.2902(2) 0.8669(2) 0.1983(2)
C82 C 0.2609(3) 0.8868(2) 0.2105(3)
C87 C 0.3674(2) 0.8038(3) 0.1696(2)
H39 H 0.3685 0.7949 0.1473
N16 N 0.3105(2) 0.8595(3) 0.2217(2)
C92 C 0.2164(2) 0.9247(3) 0.1917(2)
H44 H 0.2054 0.9363 0.1737
C97 C 0.2508(3) 0.8919(3) 0.2437(3)
H49 H 0.2622 0.8808 0.2616
H52 H 0.0116 0.6308 0.0122
C102 C 0.2434(3) 0.9021(3) 0.1850(3)
H54 H 0.2495 0.8976 0.1622
C107 C 0.3930(2) 0.8152(3) 0.2239(3)
H59 H 0.4115 0.8141 0.2391
C112 C 0.3387(2) 0.8219(3) 0.1804(3)
H64 H 0.3195 0.8226 0.1661
C117 C 0.3636(3) 0.8328(3) 0.2320(3)
H69 H 0.3617 0.8416 0.2542
H72 H 0.0042 0.5916 0.1117
O5 O 0.04120(12) 0.77922(11) 0.91480(12)
C6 C 0.01681(14) 0.79613(15) 0.92733(15)
C10 C 0.0245(2) 0.82023(19) 0.95600(19)
C15 C 0.0583(2) 0.8253(3) 0.9664(2)
H7 H 0.0763 0.8137 0.9554
C17 C 0.0650(3) 0.8479(3) 0.9934(3)
H9 H 0.0878 0.8524 0.9995
In3 In -0.0000 0.7500 0.800022(13)
In9_2 In 0.2500 0.699978(13) 1.0000
In12 In 0.042378(9) 0.735258(9) 0.879919(9)
In23 In 0.370081(9) 0.985258(9) 0.707622(9)
In24 In 0.120081(9) 0.542378(9) 0.764742(9)
In25 In 0.235258(9) 0.620081(9) 0.957622(9)
O9 O -0.0000 0.7500 0.85274(13)
O16 O 0.02800(11) 0.70048(11) 0.79732(11)
O17 O 0.20048(11) 0.70268(11) 0.97200(11)
O24 O 0.07776(11) 0.76218(12) 0.84683(12)
O32 O 0.04889(12) 0.68790(10) 0.84994(12)
O33 O 0.18790(10) 0.65006(12) 0.95111(12)
O40 O 0.33520(12) 0.97078(11) 0.79120(12)
N7 N 0.09138(13) 0.58933(12) 0.78198(13)
N8 N 0.08933(12) 0.71802(13) 0.90862(13)
O47 O 0.04980(12) 0.77648(12) 0.79827(12)
C24 C 0.07025(16) 0.62406(16) 0.82828(17)
C25 C 0.12406(16) 0.67172(17) 0.92975(16)
H16 H 0.0671 0.6270 0.8519
H17 H 0.1270 0.6481 0.9329
C29 C 0.06542(16) 0.64329(16) 0.77073(17)
C30 C 0.14329(16) 0.72927(17) 0.93458(16)
H21 H 0.0589 0.6598 0.7546
H22 H 0.1598 0.7454 0.9411
O55 O 0.33219(11) 0.95525(12) 0.73559(11)
O56 O 0.01441(11) 0.70525(12) 0.91781(11)
C34 C 0.07523(15) 0.77774(17) 0.81860(17)
C39 C 0.10575(18) 0.79892(18) 0.80821(19)
C44 C 0.05966(14) 0.64897(15) 0.80583(15)
C45 C 0.14897(15) 0.69417(15) 0.94034(14)
C49 C 0.32267(15) 0.95387(15) 0.76681(14)
C54 C 0.08063(16) 0.61340(15) 0.76022(18)
C55 C 0.11340(15) 0.73978(18) 0.91937(16)
H26 H 0.0836 0.6097 0.7367
H27 H 0.1097 0.7633 0.9164
O60 O -0.0000 0.7500 0.74676(17)
C59 C 0.04388(15) 0.68173(15) 0.81850(15)
C60 C 0.18173(15) 0.68150(15) 0.95612(15)
C64 C 0.08562(16) 0.59441(16) 0.81579(18)
C65 C 0.09441(16) 0.68421(18) 0.91438(16)
H31 H 0.0922 0.5774 0.8313
H32 H 0.0774 0.6687 0.9078
C69 C 0.29400(19) 0.92977(19) 0.7745(2)
C74 C 0.1625(2) 0.8384(3) 0.7895(3)
C79 C 0.2761(2) 0.9135(3) 0.7495(2)
C80 C 0.0005(2) 0.6635(3) 0.9739(2)
H36 H 0.2824 0.9171 0.7266
H37 H 0.0234 0.6671 0.9676
N13 N 0.2098(2) 0.8669(2) 0.8017(2)
C84 C 0.2391(3) 0.8868(2) 0.7895(3)
C89 C 0.1326(2) 0.8038(3) 0.8304(2)
H41 H 0.1315 0.7949 0.8527
N18 N 0.1895(2) 0.8595(3) 0.7783(2)
C94 C 0.2836(2) 0.9247(3) 0.8083(2)
H46 H 0.2946 0.9363 0.8263
C99 C 0.2492(3) 0.8919(3) 0.7563(3)
H51 H 0.2378 0.8808 0.7384
C104 C 0.2566(3) 0.9021(3) 0.8150(3)
H56 H 0.2505 0.8976 0.8378
C109 C 0.1070(2) 0.8152(3) 0.7761(3)
H61 H 0.0885 0.8141 0.7609
C114 C 0.1613(2) 0.8219(3) 0.8196(3)
H66 H 0.1805 0.8226 0.8339
C119 C 0.1364(3) 0.8328(3) 0.7680(3)
H71 H 0.1383 0.8416 0.7458
H3 H 0.9867 0.1403 0.1664
O8 O 0.99676(17) 0.0000 0.2500
In4_2 In 1.0000 0.2500 0.699978(13)
In17 In 0.957622(9) 0.235258(9) 0.620081(9)
O10_2 O 1.0000 0.2500 0.64726(13)
O11_2 O 1.0000 0.2500 0.10274(13)
O20 O 0.97200(11) 0.20048(11) 0.70268(11)
O27 O 0.98782(12) 0.17224(11) 0.09683(12)
O42 O 0.97078(11) 0.20880(12) 0.16480(12)
O51 O 0.95020(12) 0.27648(12) 0.70173(12)
O52 O 0.98559(11) 0.20525(12) 0.58219(11)
O61_2 O 1.0000 0.2500 0.75324(17)
C76 C 0.9995(2) 0.1635(3) 0.5261(2)
H33 H 0.9766 0.1671 0.5324
H48 H 0.9884 0.1308 0.4878
H68 H 0.9958 0.0916 0.3883
O8_2 O 0.99676(17) 1.0000 0.2500
H8 H 0.9884 0.8692 0.0122
H12 H 0.9958 0.9084 0.1117
In10 In 0.949978(13) 0.5000 0.2500
In26 In 0.870081(9) 0.485258(9) 0.207622(9)
O12_2 O 1.0000 0.7500 0.39726(13)
O25 O 0.90317(12) 0.51218(12) 0.17224(11)
O28 O 0.98782(12) 0.82776(11) 0.40317(12)
O43 O 0.97078(11) 0.79120(12) 0.33520(12)
O48 O 0.95173(12) 0.52648(12) 0.20020(12)
C35 C 0.93140(17) 0.52774(17) 0.17477(15)
C40 C 0.94179(19) 0.54892(18) 0.14425(18)
H23 H 0.9867 0.8597 0.3336
C75 C 0.9605(3) 0.5884(3) 0.0875(2)
N14 N 0.9483(2) 0.6169(2) 0.0402(2)
C85 C 0.9605(3) 0.6368(2) 0.0109(3)
C90 C 0.9196(2) 0.5538(3) 0.1174(2)
H42 H 0.8973 0.5449 0.1185
N19 N 0.9717(2) 0.6095(3) 0.0605(2)
C100 C 0.9937(3) 0.6419(3) 0.0008(3)
C110 C 0.9739(3) 0.5652(3) 0.1430(2)
H62 H 0.9891 0.5641 0.1615
C115 C 0.9304(3) 0.5719(3) 0.0887(2)
H67 H 0.9161 0.5726 0.0695
C120 C 0.9820(3) 0.5828(3) 0.1136(3)
O7 O 0.98559(11) 0.79475(12) 0.91781(11)
C12 C 0.9995(2) 0.8365(3) 0.9739(2)
H5 H 0.9766 0.8329 0.9676
In3_2 In 1.0000 0.7500 0.800022(13)
In16 In 0.957622(9) 0.764742(9) 0.879919(9)
O9_2 O 1.0000 0.7500 0.85274(13)
O18 O 0.97200(11) 0.79952(11) 0.79732(11)
O41 O 0.95880(12) 0.72078(11) 0.91480(12)
O49 O 0.95020(12) 0.72352(12) 0.79827(12)
C50 C 0.98319(14) 0.70387(15) 0.92733(15)
O60_2 O 1.0000 0.7500 0.74676(17)
C70 C 0.9755(2) 0.67977(19) 0.95600(19)
C95 C 0.9417(2) 0.6747(3) 0.9664(2)
H47 H 0.9237 0.6863 0.9554
C105 C 0.9350(3) 0.6521(3) 0.9934(3)
H57 H 0.9122 0.6476 0.9995
In1_3 In 0.449978(13) -0.0000 0.7500
O1_3 O 0.39726(13) -0.0000 0.7500
O3_2 O 0.40317(12) 0.01218(12) 0.67224(11)
O5_2 O 0.45880(12) 0.22078(11) 0.41480(12)
O6_2 O 0.45173(12) 0.02648(12) 0.70020(12)
O7_2 O 0.51441(11) 0.20525(12) 0.41781(11)
C3_2 C 0.43140(17) 0.02774(17) 0.67477(15)
C4_2 C 0.44179(19) 0.04892(18) 0.64425(18)
C6_2 C 0.48319(14) 0.20387(15) 0.42733(15)
O8_3 O 0.50324(17) -0.0000 0.7500
C10_2 C 0.4755(2) 0.17977(19) 0.45600(19)
C11_2 C 0.4605(3) 0.0884(3) 0.5875(2)
C12_2 C 0.5005(2) 0.1635(3) 0.4739(2)
H5_2 H 0.5234 0.1671 0.4676
N2_2 N 0.4483(2) 0.1169(2) 0.5402(2)
C13_2 C 0.4605(3) 0.1368(2) 0.5109(3)
C14_2 C 0.4196(2) 0.0538(3) 0.6174(2)
H6_2 H 0.3973 0.0449 0.6185
N3_2 N 0.4717(2) 0.1095(3) 0.5605(2)
C15_2 C 0.4417(2) 0.1747(3) 0.4664(2)
H7_2 H 0.4237 0.1863 0.4554
C16_2 C 0.4937(3) 0.1419(3) 0.5008(3)
H8_2 H 0.5116 0.1308 0.5122
C17_2 C 0.4350(3) 0.1521(3) 0.4934(3)
H9_2 H 0.4122 0.1476 0.4995
C18_2 C 0.4739(3) 0.0652(3) 0.6430(2)
H10_2 H 0.4891 0.0641 0.6615
C19_2 C 0.4304(3) 0.0719(3) 0.5887(2)
H11_2 H 0.4161 0.0726 0.5695
C20_2 C 0.4820(3) 0.0828(3) 0.6136(3)
H12_2 H 0.5042 0.0916 0.6117
In9_3 In 0.2500 0.300022(13) 0.5000
In10_2 In 0.550022(13) 0.5000 0.7500
In15_2 In 0.485258(9) 0.207622(9) 0.870081(9)
In16_2 In 0.542378(9) 0.235258(9) 0.379919(9)
In21_2 In 0.292378(9) 0.129919(9) 0.985258(9)
In24_2 In 0.379919(9) 0.457622(9) 0.264742(9)
In25_2 In 0.264742(9) 0.379919(9) 0.457622(9)
In26_2 In 0.629919(9) 0.514742(9) 0.707622(9)
O9_3 O 0.5000 0.2500 0.35274(13)
O12_3 O 0.5000 0.2500 0.89726(13)
O13_2 O 0.45268(11) 0.04952(11) 0.77800(11)
O15_2 O 0.27800(11) 0.04732(11) 0.95048(11)
O16_2 O 0.47200(11) 0.29952(11) 0.29732(11)
O17_2 O 0.29952(11) 0.29732(11) 0.47200(11)
O18_2 O 0.52800(11) 0.20048(11) 0.29732(11)
O25_2 O 0.59683(12) 0.48782(12) 0.67224(11)
O28_2 O 0.51218(12) 0.17224(11) 0.90317(12)
O29_2 O 0.40006(12) 0.06210(10) 0.79889(12)
O31_2 O 0.29889(12) 0.09994(12) 0.93790(10)
O32_2 O 0.45111(12) 0.31210(10) 0.34994(12)
O33_2 O 0.31210(10) 0.34994(12) 0.45111(12)
O36_2 O 0.43790(10) 0.20111(12) 0.90006(12)
O38_2 O 0.33520(12) 0.02922(11) 0.70880(12)
O41_2 O 0.54120(12) 0.27922(11) 0.41480(12)
O43_2 O 0.52922(11) 0.20880(12) 0.83520(12)
N4_2 N 0.46802(13) 0.16067(12) 0.84138(13)
N6_2 N 0.34138(13) 0.03198(13) 0.83933(12)
N7_2 N 0.40862(13) 0.41067(12) 0.28198(13)
N8_2 N 0.41067(12) 0.28198(13) 0.40862(13)
O48_2 O 0.54827(12) 0.47352(12) 0.70020(12)
O49_2 O 0.54980(12) 0.27648(12) 0.29827(12)
C21_2 C 0.42172(17) 0.12594(16) 0.82025(16)
C23_2 C 0.32025(16) 0.07828(17) 0.87406(16)
C24_2 C 0.42975(16) 0.37594(16) 0.32828(17)
C25_2 C 0.37594(16) 0.32828(17) 0.42975(16)
H13_2 H 0.3981 0.1230 0.8171
H15_2 H 0.3171 0.1019 0.8770
H16_2 H 0.4329 0.3730 0.3519
H17_2 H 0.3730 0.3519 0.4329
C26_2 C 0.47927(17) 0.10671(16) 0.81542(16)
C28_2 C 0.31542(16) 0.02073(17) 0.89329(16)
C29_2 C 0.43458(16) 0.35671(16) 0.27073(17)
C30_2 C 0.35671(16) 0.27073(17) 0.43458(16)
H18_2 H 0.4954 0.0902 0.8089
H20_2 H 0.3089 0.0046 0.9098
H21_2 H 0.4411 0.3402 0.2546
H22_2 H 0.3402 0.2546 0.4411
O53_2 O 0.33219(11) 0.04475(12) 0.76441(11)
O56_2 O 0.48559(11) 0.29475(12) 0.41781(11)
O59_2 O 0.45525(12) 0.23559(11) 0.83219(11)
C32_2 C 0.07523(15) 0.22226(17) 0.68140(17)
C35_2 C 0.56860(17) 0.47226(17) 0.67477(15)
C37_2 C 0.10575(18) 0.20108(18) 0.69179(19)
C40_2 C 0.55821(19) 0.45108(18) 0.64425(18)
C41_2 C 0.44417(15) 0.10103(15) 0.80966(14)
C43_2 C 0.30966(14) 0.05583(15) 0.89897(15)
C44_2 C 0.44034(14) 0.35103(15) 0.30583(15)
C45_2 C 0.35103(15) 0.30583(15) 0.44034(14)
C47_2 C 0.32267(15) 0.04613(15) 0.73319(14)
C50_2 C 0.51681(14) 0.29613(15) 0.42733(15)
C51_2 C 0.48978(18) 0.13660(15) 0.83063(16)
C53_2 C 0.33063(16) 0.01022(18) 0.86340(15)
C54_2 C 0.41937(16) 0.38660(15) 0.26022(18)
C55_2 C 0.38660(15) 0.26022(18) 0.41937(16)
H23_2 H 0.5133 0.1403 0.8336
H24_2 H 0.3336 0.0133 0.6403
H26_2 H 0.4164 0.3903 0.2367
H27_2 H 0.3903 0.2367 0.4164
O60_3 O 0.5000 0.2500 0.24676(17)
C56_2 C 0.43150(15) 0.06827(15) 0.79388(15)
C58_2 C 0.29388(15) 0.06850(15) 0.93173(15)
C59_2 C 0.45612(15) 0.31827(15) 0.31850(15)
C60_2 C 0.31827(15) 0.31850(15) 0.45612(15)
C61_2 C 0.43421(18) 0.15559(16) 0.83562(16)
C63_2 C 0.33562(16) 0.06579(18) 0.84441(16)
C64_2 C 0.41438(16) 0.40559(16) 0.31579(18)
C65_2 C 0.40559(16) 0.31579(18) 0.41438(16)
H28_2 H 0.4187 0.1726 0.8422
H30_2 H 0.3422 0.0813 0.8274
H31_2 H 0.4078 0.4226 0.3313
H32_2 H 0.4226 0.3313 0.4078
C67_2 C 0.29400(19) 0.07023(19) 0.7255(2)
C70_2 C 0.5245(2) 0.32023(19) 0.45600(19)
C72_2 C 0.1625(2) 0.1616(3) 0.7105(3)
C75_2 C 0.5395(3) 0.4116(3) 0.5875(2)
C77_2 C 0.2761(2) 0.0865(3) 0.7505(2)
C80_2 C 0.4995(2) 0.3365(3) 0.4739(2)
H34_2 H 0.2824 0.0829 0.7734
H37_2 H 0.4766 0.3329 0.4676
N11_2 N 0.2098(2) 0.1331(2) 0.6983(2)
N14_2 N 0.5517(2) 0.3831(2) 0.5402(2)
C82_2 C 0.2391(3) 0.1132(2) 0.7105(3)
C85_2 C 0.5395(3) 0.3632(2) 0.5109(3)
C87_2 C 0.1326(2) 0.1962(3) 0.6696(2)
C90_2 C 0.5804(2) 0.4462(3) 0.6174(2)
H39_2 H 0.1315 0.2051 0.6473
H42_2 H 0.6027 0.4551 0.6185
N16_2 N 0.1895(2) 0.1405(3) 0.7217(2)
N19_2 N 0.5283(2) 0.3905(3) 0.5605(2)
C92_2 C 0.2836(2) 0.0753(3) 0.6917(2)
C95_2 C 0.5583(2) 0.3253(3) 0.4664(2)
H44_2 H 0.2946 0.0637 0.6737
H47_2 H 0.5763 0.3137 0.4554
C97_2 C 0.2492(3) 0.1081(3) 0.7437(3)
C100_2 C 0.5063(3) 0.3581(3) 0.5008(3)
H49_2 H 0.2378 0.1192 0.7616
H52_2 H 0.4884 0.3692 0.5122
C102_2 C 0.2566(3) 0.0979(3) 0.6850(3)
C105_2 C 0.5650(3) 0.3479(3) 0.4934(3)
H54_2 H 0.2505 0.1024 0.6622
H57_2 H 0.5878 0.3524 0.4995
C107_2 C 0.1070(2) 0.1848(3) 0.7239(3)
C110_2 C 0.5261(3) 0.4348(3) 0.6430(2)
H59_2 H 0.0885 0.1859 0.7391
H62_2 H 0.5109 0.4359 0.6615
C112_2 C 0.1613(2) 0.1781(3) 0.6804(3)
C115_2 C 0.5696(3) 0.4281(3) 0.5887(2)
H64_2 H 0.1805 0.1774 0.6661
H67_2 H 0.5839 0.4274 0.5695
C117_2 C 0.1364(3) 0.1672(3) 0.7320(3)
C120_2 C 0.5180(3) 0.4172(3) 0.6136(3)
H69_2 H 0.1383 0.1584 0.7542
H72_2 H 0.4958 0.4084 0.6117
In17_2 In 0.542378(9) 0.764742(9) 0.120081(9)
O10_3 O 0.5000 0.7500 0.14726(13)
O19_2 O 0.47200(11) 0.70048(11) 0.20268(11)
O20_2 O 0.52800(11) 0.79952(11) 0.20268(11)
O34_2 O 0.45111(12) 0.68790(10) 0.15006(12)
O37_2 O 0.45880(12) 0.77922(11) 0.08520(12)
N9_2 N 0.41067(12) 0.71802(13) 0.09138(13)
O51_2 O 0.54980(12) 0.72352(12) 0.20173(12)
O52_2 O 0.51441(11) 0.79475(12) 0.08219(11)
O57_2 O 0.48559(11) 0.70525(12) 0.08219(11)
C46_2 C 0.48319(14) 0.79613(15) 0.07267(15)
O61_3 O 0.5000 0.7500 0.25324(17)
C66_2 C 0.4755(2) 0.82023(19) 0.04400(19)
C76_2 C 0.5005(2) 0.8365(3) 0.0261(2)
H33_2 H 0.5234 0.8329 0.0324
C91_2 C 0.4417(2) 0.8253(3) 0.0336(2)
H43_2 H 0.4237 0.8137 0.0446
C101_2 C 0.4350(3) 0.8479(3) 0.0066(3)
H53_2 H 0.4122 0.8524 0.0005
In1_4 In 0.449978(13) 1.0000 0.7500
O1_4 O 0.39726(13) 1.0000 0.7500
O2_2 O 0.45268(11) 0.95048(11) 0.72200(11)
O4_2 O 0.40006(12) 0.93790(10) 0.70111(12)
N1_2 N 0.46802(13) 0.83933(12) 0.65862(13)
C1_2 C 0.42172(17) 0.87406(16) 0.67975(16)
H1_2 H 0.3981 0.8770 0.6829
C2_2 C 0.47927(17) 0.89329(16) 0.68458(16)
H2_2 H 0.4954 0.9098 0.6911
C5_2 C 0.44417(15) 0.89897(15) 0.69034(14)
C7_2 C 0.48978(18) 0.86340(15) 0.66937(16)
H3_2 H 0.5133 0.8597 0.6664
O8_4 O 0.50324(17) 1.0000 0.7500
C8_2 C 0.43150(15) 0.93173(15) 0.70612(15)
C9_2 C 0.43421(18) 0.84441(16) 0.66438(16)
H4_2 H 0.4187 0.8274 0.6578
In14_2 In 0.485258(9) 0.792378(9) 0.629919(9)
In19_2 In 0.292378(9) 0.870081(9) 0.514742(9)
O11_3 O 0.5000 0.7500 0.60274(13)
O14_2 O 0.27800(11) 0.95268(11) 0.54952(11)
O21_2 O 0.40317(12) 0.98782(12) 0.82776(11)
O27_2 O 0.51218(12) 0.82776(11) 0.59683(12)
O30_2 O 0.29889(12) 0.90006(12) 0.56210(10)
O35_2 O 0.43790(10) 0.79889(12) 0.59994(12)
O42_2 O 0.52922(11) 0.79120(12) 0.66480(12)
N5_2 N 0.34138(13) 0.96802(13) 0.66067(12)
O44_2 O 0.45173(12) 0.97352(12) 0.79980(12)
C22_2 C 0.32025(16) 0.92172(17) 0.62594(16)
H14_2 H 0.3171 0.8981 0.6230
C27_2 C 0.31542(16) 0.97927(17) 0.60671(16)
H19_2 H 0.3089 0.9954 0.5902
O58_2 O 0.45525(12) 0.76441(11) 0.66781(11)
C31_2 C 0.43140(17) 0.97226(17) 0.82523(15)
C36_2 C 0.44179(19) 0.95108(18) 0.85575(18)
C42_2 C 0.30966(14) 0.94417(15) 0.60103(15)
C52_2 C 0.33063(16) 0.98978(18) 0.63660(15)
H25_2 H 0.3336 0.9867 0.8597
C57_2 C 0.29388(15) 0.93150(15) 0.56827(15)
C62_2 C 0.33562(16) 0.93421(18) 0.65559(16)
H29_2 H 0.3422 0.9187 0.6726
C71_2 C 0.4605(3) 0.9116(3) 0.9125(2)
N10_2 N 0.4483(2) 0.8831(2) 0.9598(2)
C81_2 C 0.4605(3) 0.8632(2) 0.9891(3)
C86_2 C 0.4196(2) 0.9462(3) 0.8826(2)
H38_2 H 0.3973 0.9551 0.8815
N15_2 N 0.4717(2) 0.8905(3) 0.9395(2)
C96_2 C 0.4937(3) 0.8581(3) 0.9992(3)
H48_2 H 0.5116 0.8692 0.9878
C106_2 C 0.4739(3) 0.9348(3) 0.8570(2)
H58_2 H 0.4891 0.9359 0.8385
C111_2 C 0.4304(3) 0.9281(3) 0.9113(2)
H63_2 H 0.4161 0.9274 0.9305
C116_2 C 0.4820(3) 0.9172(3) 0.8864(3)
H68_2 H 0.5042 0.9084 0.8883
H3_3 H 0.0133 0.6403 0.3336
O8_5 O 0.00324(17) 0.5000 0.2500
C12_3 C 0.0005(2) 0.3365(3) 0.5261(2)
H5_3 H 0.0234 0.3329 0.5324
H8_3 H 0.0116 0.3692 0.4878
H12_3 H 0.0042 0.4084 0.3883
O27_3 O 0.01218(12) 0.67224(11) 0.40317(12)
O28_3 O 0.01218(12) 0.32776(11) 0.09683(12)
O42_3 O 0.02922(11) 0.70880(12) 0.33520(12)
O43_3 O 0.02922(11) 0.29120(12) 0.16480(12)
H23_3 H 0.0133 0.3597 0.1664
In2_2 In 0.870081(9) 0.514742(9) 0.292378(9)
O1_5 O 0.89726(13) 0.5000 0.2500
O2_3 O 0.95268(11) 0.54952(11) 0.27800(11)
O3_3 O 0.90317(12) 0.48782(12) 0.32776(11)
O4_3 O 0.90006(12) 0.56210(10) 0.29889(12)
O5_3 O 0.95880(12) 0.27922(11) 0.58520(12)
N1_3 N 0.96802(13) 0.66067(12) 0.34138(13)
O6_3 O 0.95173(12) 0.47352(12) 0.29980(12)
C1_3 C 0.92172(17) 0.62594(16) 0.32025(16)
H1_3 H 0.8981 0.6230 0.3171
C2_3 C 0.97927(17) 0.60671(16) 0.31542(16)
H2_3 H 0.9954 0.5902 0.3089
C3_3 C 0.93140(17) 0.47226(17) 0.32523(15)
C4_3 C 0.94179(19) 0.45108(18) 0.35575(18)
C5_3 C 0.94417(15) 0.60103(15) 0.30966(14)
C6_3 C 0.98319(14) 0.29613(15) 0.57267(15)
C7_3 C 0.98978(18) 0.63660(15) 0.33063(16)
C8_3 C 0.93150(15) 0.56827(15) 0.29388(15)
C9_3 C 0.93421(18) 0.65559(16) 0.33562(16)
H4_3 H 0.9187 0.6726 0.3422
C10_3 C 0.9755(2) 0.32023(19) 0.54400(19)
C11_3 C 0.9605(3) 0.4116(3) 0.4125(2)
N2_3 N 0.9483(2) 0.3831(2) 0.4598(2)
C13_3 C 0.9605(3) 0.3632(2) 0.4891(3)
C14_3 C 0.9196(2) 0.4462(3) 0.3826(2)
H6_3 H 0.8973 0.4551 0.3815
N3_3 N 0.9717(2) 0.3905(3) 0.4395(2)
C15_3 C 0.9417(2) 0.3253(3) 0.5336(2)
H7_3 H 0.9237 0.3137 0.5446
C16_3 C 0.9937(3) 0.3581(3) 0.4992(3)
C17_3 C 0.9350(3) 0.3479(3) 0.5066(3)
H9_3 H 0.9122 0.3524 0.5005
C18_3 C 0.9739(3) 0.4348(3) 0.3570(2)
H10_3 H 0.9891 0.4359 0.3385
C19_3 C 0.9304(3) 0.4281(3) 0.4113(2)
H11_3 H 0.9161 0.4274 0.4305
C20_3 C 0.9820(3) 0.4172(3) 0.3864(3)
In6_3 In 0.7500 0.550022(13) 0.5000
In8_2 In 0.7500 0.449978(13) 0.0000
In9_4 In 0.7500 0.199978(13) 0.5000
In14_3 In 0.985258(9) 0.707622(9) 0.370081(9)
In15_3 In 0.985258(9) 0.292378(9) 0.129919(9)
In19_3 In 0.792378(9) 0.629919(9) 0.485258(9)
In21_3 In 0.792378(9) 0.370081(9) 0.014742(9)
In23_2 In 0.629919(9) 0.485258(9) 0.792378(9)
In24_3 In 0.879919(9) 0.042378(9) 0.735258(9)
In25_3 In 0.764742(9) 0.120081(9) 0.542378(9)
O13_3 O 0.95268(11) 0.45048(11) 0.22200(11)
O14_3 O 0.77800(11) 0.54732(11) 0.45048(11)
O15_3 O 0.77800(11) 0.45268(11) 0.04952(11)
O17_3 O 0.79952(11) 0.20268(11) 0.52800(11)
O22_2 O 0.57776(11) 0.26218(12) 0.34683(12)
O23_2 O 0.57776(11) 0.73782(12) 0.15317(12)
O24_2 O 0.92224(11) 0.26218(12) 0.65317(12)
O29_3 O 0.90006(12) 0.43790(10) 0.20111(12)
O30_3 O 0.79889(12) 0.59994(12) 0.43790(10)
O31_3 O 0.79889(12) 0.40006(12) 0.06210(10)
O32_3 O 0.95111(12) 0.18790(10) 0.65006(12)
O33_3 O 0.81210(10) 0.15006(12) 0.54889(12)
O35_3 O 0.93790(10) 0.70111(12) 0.40006(12)
O36_3 O 0.93790(10) 0.29889(12) 0.09994(12)
O38_3 O 0.83520(12) 0.47078(11) 0.29120(12)
O39_2 O 0.83520(12) 0.52922(11) 0.20880(12)
O40_2 O 0.66480(12) 0.47078(11) 0.70880(12)
N4_3 N 0.96802(13) 0.33933(12) 0.15862(13)
N5_3 N 0.84138(13) 0.53198(13) 0.33933(12)
N6_3 N 0.84138(13) 0.46802(13) 0.16067(12)
N7_3 N 0.90862(13) 0.08933(12) 0.71802(13)
N8_3 N 0.91067(12) 0.21802(13) 0.59138(13)
C21_3 C 0.92172(17) 0.37406(16) 0.17975(16)
C22_3 C 0.82025(16) 0.57828(17) 0.37406(16)
C23_3 C 0.82025(16) 0.42172(17) 0.12594(16)
C24_3 C 0.92975(16) 0.12406(16) 0.67172(17)
C25_3 C 0.87594(16) 0.17172(17) 0.57025(16)
H13_3 H 0.8981 0.3770 0.1829
H14_3 H 0.8171 0.6019 0.3770
H15_3 H 0.8171 0.3981 0.1230
H16_3 H 0.9329 0.1270 0.6481
H17_3 H 0.8730 0.1481 0.5671
C26_3 C 0.97927(17) 0.39329(16) 0.18458(16)
C27_3 C 0.81542(16) 0.52073(17) 0.39329(16)
C28_3 C 0.81542(16) 0.47927(17) 0.10671(16)
C29_3 C 0.93458(16) 0.14329(16) 0.72927(17)
C30_3 C 0.85671(16) 0.22927(17) 0.56542(16)
H18_3 H 0.9954 0.4098 0.1911
H19_3 H 0.8089 0.5046 0.4098
H20_3 H 0.8089 0.4954 0.0902
H21_3 H 0.9411 0.1598 0.7454
H22_3 H 0.8402 0.2454 0.5589
O53_3 O 0.83219(11) 0.45525(12) 0.23559(11)
O54_2 O 0.83219(11) 0.54475(12) 0.26441(11)
O55_2 O 0.66781(11) 0.45525(12) 0.76441(11)
O58_3 O 0.95525(12) 0.73559(11) 0.33219(11)
O59_3 O 0.95525(12) 0.26441(11) 0.16781(11)
C32_3 C 0.57523(15) 0.27774(17) 0.31860(17)
C33_2 C 0.57523(15) 0.72226(17) 0.18140(17)
C34_2 C 0.92477(15) 0.27774(17) 0.68140(17)
C37_3 C 0.60575(18) 0.29892(18) 0.30821(19)
C38_2 C 0.60575(18) 0.70108(18) 0.19179(19)
C39_2 C 0.89425(18) 0.29892(18) 0.69179(19)
C41_3 C 0.94417(15) 0.39897(15) 0.19034(14)
C42_3 C 0.80966(14) 0.55583(15) 0.39897(15)
C43_3 C 0.80966(14) 0.44417(15) 0.10103(15)
C44_3 C 0.94034(14) 0.14897(15) 0.69417(15)
C45_3 C 0.85103(15) 0.19417(15) 0.55966(14)
C47_3 C 0.82267(15) 0.45387(15) 0.26681(14)
C48_2 C 0.82267(15) 0.54613(15) 0.23319(14)
C49_2 C 0.67733(15) 0.45387(15) 0.73319(14)
C51_3 C 0.98978(18) 0.36340(15) 0.16937(16)
C52_3 C 0.83063(16) 0.51022(18) 0.36340(15)
C53_3 C 0.83063(16) 0.48978(18) 0.13660(15)
C54_3 C 0.91937(16) 0.11340(15) 0.73978(18)
C55_3 C 0.88660(15) 0.23978(18) 0.58063(16)
H24_3 H 0.8336 0.4867 0.3597
H25_3 H 0.8336 0.5133 0.1403
H26_3 H 0.9164 0.1097 0.7633
H27_3 H 0.8903 0.2633 0.5836
C56_3 C 0.93150(15) 0.43173(15) 0.20612(15)
C57_3 C 0.79388(15) 0.56850(15) 0.43173(15)
C58_3 C 0.79388(15) 0.43150(15) 0.06827(15)
C59_3 C 0.95612(15) 0.18173(15) 0.68150(15)
C60_3 C 0.81827(15) 0.18150(15) 0.54388(15)
C61_3 C 0.93421(18) 0.34441(16) 0.16438(16)
C62_3 C 0.83562(16) 0.56579(18) 0.34441(16)
C63_3 C 0.83562(16) 0.43421(18) 0.15559(16)
C64_3 C 0.91438(16) 0.09441(16) 0.68421(18)
C65_3 C 0.90559(16) 0.18421(18) 0.58562(16)
H28_3 H 0.9187 0.3274 0.1578
H29_3 H 0.8422 0.5813 0.3274
H30_3 H 0.8422 0.4187 0.1726
H31_3 H 0.9078 0.0774 0.6687
H32_3 H 0.9226 0.1687 0.5922
C67_3 C 0.79400(19) 0.42977(19) 0.2745(2)
C68_2 C 0.79400(19) 0.57023(19) 0.2255(2)
C69_2 C 0.70600(19) 0.42977(19) 0.7255(2)
C72_3 C 0.6625(2) 0.3384(3) 0.2895(3)
C73_2 C 0.6625(2) 0.6616(3) 0.2105(3)
C74_2 C 0.8375(2) 0.3384(3) 0.7105(3)
C77_3 C 0.7761(2) 0.4135(3) 0.2495(2)
C78_2 C 0.7761(2) 0.5865(3) 0.2505(2)
C79_2 C 0.7239(2) 0.4135(3) 0.7505(2)
H34_3 H 0.7824 0.4171 0.2266
H35_2 H 0.7824 0.5829 0.2734
H36_2 H 0.7176 0.4171 0.7734
N11_3 N 0.7098(2) 0.3669(2) 0.3017(2)
N12_2 N 0.7098(2) 0.6331(2) 0.1983(2)
N13_2 N 0.7902(2) 0.3669(2) 0.6983(2)
C82_3 C 0.7391(3) 0.3868(2) 0.2895(3)
C83_2 C 0.7391(3) 0.6132(2) 0.2105(3)
C84_2 C 0.7609(3) 0.3868(2) 0.7105(3)
C87_3 C 0.6326(2) 0.3038(3) 0.3304(2)
C88_2 C 0.6326(2) 0.6962(3) 0.1696(2)
C89_2 C 0.8674(2) 0.3038(3) 0.6696(2)
H39_3 H 0.6315 0.2949 0.3527
H40_2 H 0.6315 0.7051 0.1473
H41_2 H 0.8685 0.2949 0.6473
N16_3 N 0.6895(2) 0.3595(3) 0.2783(2)
N17_2 N 0.6895(2) 0.6405(3) 0.2217(2)
N18_2 N 0.8105(2) 0.3595(3) 0.7217(2)
C92_3 C 0.7836(2) 0.4247(3) 0.3083(2)
C93_2 C 0.7836(2) 0.5753(3) 0.1917(2)
C94_2 C 0.7164(2) 0.4247(3) 0.6917(2)
H44_3 H 0.7946 0.4363 0.3263
H45_2 H 0.7946 0.5637 0.1737
H46_2 H 0.7054 0.4363 0.6737
C97_3 C 0.7492(3) 0.3919(3) 0.2563(3)
C98_2 C 0.7492(3) 0.6081(3) 0.2437(3)
C99_2 C 0.7508(3) 0.3919(3) 0.7437(3)
H49_3 H 0.7378 0.3808 0.2384
H50_2 H 0.7378 0.6192 0.2616
H51_2 H 0.7622 0.3808 0.7616
C102_3 C 0.7566(3) 0.4021(3) 0.3150(3)
C103_2 C 0.7566(3) 0.5979(3) 0.1850(3)
C104_2 C 0.7434(3) 0.4021(3) 0.6850(3)
H54_3 H 0.7505 0.3976 0.3378
H55_2 H 0.7505 0.6024 0.1622
H56_2 H 0.7495 0.3976 0.6622
C107_3 C 0.6070(2) 0.3152(3) 0.2761(3)
C108_2 C 0.6070(2) 0.6848(3) 0.2239(3)
C109_2 C 0.8930(2) 0.3152(3) 0.7239(3)
H59_3 H 0.5885 0.3141 0.2609
H60_2 H 0.5885 0.6859 0.2391
H61_2 H 0.9115 0.3141 0.7391
C112_3 C 0.6613(2) 0.3219(3) 0.3196(3)
C113_2 C 0.6613(2) 0.6781(3) 0.1804(3)
C114_2 C 0.8387(2) 0.3219(3) 0.6804(3)
H64_3 H 0.6805 0.3226 0.3339
H65_2 H 0.6805 0.6774 0.1661
H66_2 H 0.8195 0.3226 0.6661
C117_3 C 0.6364(3) 0.3328(3) 0.2680(3)
C118_2 C 0.6364(3) 0.6672(3) 0.2320(3)
C119_2 C 0.8636(3) 0.3328(3) 0.7320(3)
H69_3 H 0.6383 0.3416 0.2458
H70_2 H 0.6383 0.6584 0.2542
H71_2 H 0.8617 0.3416 0.7542
In8_3 In 0.7500 0.449978(13) 1.0000
O26_2 O 0.92224(11) 0.73782(12) 0.84683(12)
O34_3 O 0.95111(12) 0.81210(10) 0.84994(12)
N9_3 N 0.91067(12) 0.78198(13) 0.90862(13)
O5_4 O 0.54120(12) 0.72078(11) 0.08520(12)
C6_4 C 0.51681(14) 0.70387(15) 0.07267(15)
C10_4 C 0.5245(2) 0.67977(19) 0.04400(19)
C12_4 C 0.4995(2) 0.6635(3) 0.0261(2)
H5_4 H 0.4766 0.6671 0.0324
C15_4 C 0.5583(2) 0.6747(3) 0.0336(2)
H7_4 H 0.5763 0.6863 0.0446
C17_4 C 0.5650(3) 0.6521(3) 0.0066(3)
H9_4 H 0.5878 0.6476 0.0005
In9_5 In 0.7500 0.800022(13) 0.0000
In24_4 In 0.620081(9) 0.957622(9) 0.235258(9)
In25_4 In 0.735258(9) 0.879919(9) 0.042378(9)
O17_4 O 0.70048(11) 0.79732(11) 0.02800(11)
O32_4 O 0.54889(12) 0.81210(10) 0.15006(12)
O33_4 O 0.68790(10) 0.84994(12) 0.04889(12)
N7_4 N 0.59138(13) 0.91067(12) 0.21802(13)
N8_4 N 0.58933(12) 0.78198(13) 0.09138(13)
C24_4 C 0.57025(16) 0.87594(16) 0.17172(17)
C25_4 C 0.62406(16) 0.82828(17) 0.07025(16)
H16_4 H 0.5671 0.8730 0.1481
H17_4 H 0.6270 0.8519 0.0671
C29_4 C 0.56542(16) 0.85671(16) 0.22927(17)
C30_4 C 0.64329(16) 0.77073(17) 0.06542(16)
H21_4 H 0.5589 0.8402 0.2454
H22_4 H 0.6598 0.7546 0.0589
C44_4 C 0.55966(14) 0.85103(15) 0.19417(15)
C45_4 C 0.64897(15) 0.80583(15) 0.05966(14)
C54_4 C 0.58063(16) 0.88660(15) 0.23978(18)
C55_4 C 0.61340(15) 0.76022(18) 0.08063(16)
H26_4 H 0.5836 0.8903 0.2633
H27_4 H 0.6097 0.7367 0.0836
C59_4 C 0.54388(15) 0.81827(15) 0.18150(15)
C60_4 C 0.68173(15) 0.81850(15) 0.04388(15)
C64_4 C 0.58562(16) 0.90559(16) 0.18421(18)
C65_4 C 0.59441(16) 0.81579(18) 0.08562(16)
H31_4 H 0.5922 0.9226 0.1687
H32_4 H 0.5774 0.8313 0.0922
O1_6 O 0.60274(13) 0.5000 0.7500
O2_4 O 0.54732(11) 0.45048(11) 0.77800(11)
O3_4 O 0.59683(12) 0.51218(12) 0.82776(11)
O4_4 O 0.59994(12) 0.43790(10) 0.79889(12)
N1_4 N 0.53198(13) 0.33933(12) 0.84138(13)
O6_4 O 0.54827(12) 0.52648(12) 0.79980(12)
C1_4 C 0.57828(17) 0.37406(16) 0.82025(16)
H1_4 H 0.6019 0.3770 0.8171
C2_4 C 0.52073(17) 0.39329(16) 0.81542(16)
H2_4 H 0.5046 0.4098 0.8089
C3_4 C 0.56860(17) 0.52774(17) 0.82523(15)
C4_4 C 0.55821(19) 0.54892(18) 0.85575(18)
C5_4 C 0.55583(15) 0.39897(15) 0.80966(14)
C7_4 C 0.51022(18) 0.36340(15) 0.83063(16)
H3_4 H 0.4867 0.3597 0.8336
O8_6 O 0.49676(17) 0.5000 0.7500
C8_4 C 0.56850(15) 0.43173(15) 0.79388(15)
C9_4 C 0.56579(18) 0.34441(16) 0.83562(16)
H4_4 H 0.5813 0.3274 0.8422
C11_4 C 0.5395(3) 0.5884(3) 0.9125(2)
N2_4 N 0.5517(2) 0.6169(2) 0.9598(2)
C13_4 C 0.5395(3) 0.6368(2) 0.9891(3)
C14_4 C 0.5804(2) 0.5538(3) 0.8826(2)
H6_4 H 0.6027 0.5449 0.8815
N3_4 N 0.5283(2) 0.6095(3) 0.9395(2)
C16_4 C 0.5063(3) 0.6419(3) 0.9992(3)
H8_4 H 0.4884 0.6308 0.9878
C18_4 C 0.5261(3) 0.5652(3) 0.8570(2)
H10_4 H 0.5109 0.5641 0.8385
C19_4 C 0.5696(3) 0.5719(3) 0.9113(2)
H11_4 H 0.5839 0.5726 0.9305
C20_4 C 0.5180(3) 0.5828(3) 0.8864(3)
H12_4 H 0.4958 0.5916 0.8883
In9_6 In 0.7500 0.800022(13) 1.0000
In14_4 In 0.514742(9) 0.292378(9) 0.870081(9)
In15_4 In 0.514742(9) 0.707622(9) 0.629919(9)
In19_4 In 0.707622(9) 0.370081(9) 0.985258(9)
In21_4 In 0.707622(9) 0.629919(9) 0.514742(9)
O13_4 O 0.54732(11) 0.54952(11) 0.72200(11)
O14_4 O 0.72200(11) 0.45268(11) 0.95048(11)
O15_4 O 0.72200(11) 0.54732(11) 0.54952(11)
O27_4 O 0.48782(12) 0.32776(11) 0.90317(12)
O28_4 O 0.48782(12) 0.67224(11) 0.59683(12)
O29_4 O 0.59994(12) 0.56210(10) 0.70111(12)
O30_4 O 0.70111(12) 0.40006(12) 0.93790(10)
O31_4 O 0.70111(12) 0.59994(12) 0.56210(10)
O34_4 O 0.54889(12) 0.18790(10) 0.34994(12)
O35_4 O 0.56210(10) 0.29889(12) 0.90006(12)
O36_4 O 0.56210(10) 0.70111(12) 0.59994(12)
O38_4 O 0.66480(12) 0.52922(11) 0.79120(12)
O42_4 O 0.47078(11) 0.29120(12) 0.83520(12)
O43_4 O 0.47078(11) 0.70880(12) 0.66480(12)
N4_4 N 0.53198(13) 0.66067(12) 0.65862(13)
N5_4 N 0.65862(13) 0.46802(13) 0.83933(12)
N6_4 N 0.65862(13) 0.53198(13) 0.66067(12)
N9_4 N 0.58933(12) 0.21802(13) 0.40862(13)
C21_4 C 0.57828(17) 0.62594(16) 0.67975(16)
C22_4 C 0.67975(16) 0.42172(17) 0.87406(16)
C23_4 C 0.67975(16) 0.57828(17) 0.62594(16)
H13_4 H 0.6019 0.6230 0.6829
H14_4 H 0.6829 0.3981 0.8770
H15_4 H 0.6829 0.6019 0.6230
C26_4 C 0.52073(17) 0.60671(16) 0.68458(16)
C27_4 C 0.68458(16) 0.47927(17) 0.89329(16)
C28_4 C 0.68458(16) 0.52073(17) 0.60671(16)
H18_4 H 0.5046 0.5902 0.6911
H19_4 H 0.6911 0.4954 0.9098
H20_4 H 0.6911 0.5046 0.5902
O53_4 O 0.66781(11) 0.54475(12) 0.73559(11)
O58_4 O 0.54475(12) 0.26441(11) 0.83219(11)
O59_4 O 0.54475(12) 0.73559(11) 0.66781(11)
C32_4 C 0.92477(15) 0.72226(17) 0.81860(17)
C37_4 C 0.89425(18) 0.70108(18) 0.80821(19)
C41_4 C 0.55583(15) 0.60103(15) 0.69034(14)
C42_4 C 0.69034(14) 0.44417(15) 0.89897(15)
C43_4 C 0.69034(14) 0.55583(15) 0.60103(15)
C47_4 C 0.67733(15) 0.54613(15) 0.76681(14)
C51_4 C 0.51022(18) 0.63660(15) 0.66937(16)
C52_4 C 0.66937(16) 0.48978(18) 0.86340(15)
C53_4 C 0.66937(16) 0.51022(18) 0.63660(15)
H23_4 H 0.4867 0.6403 0.6664
H24_4 H 0.6664 0.5133 0.8597
H25_4 H 0.6664 0.4867 0.6403
C56_4 C 0.56850(15) 0.56827(15) 0.70612(15)
C57_4 C 0.70612(15) 0.43150(15) 0.93173(15)
C58_4 C 0.70612(15) 0.56850(15) 0.56827(15)
C61_4 C 0.56579(18) 0.65559(16) 0.66438(16)
C62_4 C 0.66438(16) 0.43421(18) 0.84441(16)
C63_4 C 0.66438(16) 0.56579(18) 0.65559(16)
H28_4 H 0.5813 0.6726 0.6578
H29_4 H 0.6578 0.4187 0.8274
H30_4 H 0.6578 0.5813 0.6726
C67_4 C 0.70600(19) 0.57023(19) 0.7745(2)
C72_4 C 0.8375(2) 0.6616(3) 0.7895(3)
C77_4 C 0.7239(2) 0.5865(3) 0.7495(2)
H34_4 H 0.7176 0.5829 0.7266
N11_4 N 0.7902(2) 0.6331(2) 0.8017(2)
C82_4 C 0.7609(3) 0.6132(2) 0.7895(3)
C87_4 C 0.8674(2) 0.6962(3) 0.8304(2)
H39_4 H 0.8685 0.7051 0.8527
N16_4 N 0.8105(2) 0.6405(3) 0.7783(2)
C92_4 C 0.7164(2) 0.5753(3) 0.8083(2)
H44_4 H 0.7054 0.5637 0.8263
C97_4 C 0.7508(3) 0.6081(3) 0.7563(3)
H49_4 H 0.7622 0.6192 0.7384
C102_4 C 0.7434(3) 0.5979(3) 0.8150(3)
H54_4 H 0.7495 0.6024 0.8378
C107_4 C 0.8930(2) 0.6848(3) 0.7761(3)
H59_4 H 0.9115 0.6859 0.7609
C112_4 C 0.8387(2) 0.6781(3) 0.8196(3)
H64_4 H 0.8195 0.6774 0.8339
C117_4 C 0.8636(3) 0.6672(3) 0.7680(3)
H69_4 H 0.8617 0.6584 0.7458
O1_7 O 0.2500 0.10274(13) 0.0000
In4_3 In 0.699978(13) -0.0000 0.2500
In6_4 In -0.0000 0.2500 0.050022(13)
In7_2 In 0.300022(13) 0.5000 0.2500
In13_2 In 0.620081(9) 0.042378(9) 0.264742(9)
O10_4 O 0.64726(13) -0.0000 0.2500
O14_5 O 0.04952(11) 0.22200(11) 0.04732(11)
O19_3 O 0.70268(11) 0.02800(11) 0.29952(11)
O21_3 O 0.32776(11) 0.09683(12) 0.01218(12)
O23_3 O 0.34683(12) 0.42224(11) 0.23782(12)
O26_3 O 0.65317(12) 0.07776(11) 0.23782(12)
O34_5 O 0.65006(12) 0.04889(12) 0.31210(10)
O37_3 O 0.58520(12) 0.04120(12) 0.22078(11)
O39_3 O 0.29120(12) 0.16480(12) 0.02922(11)
N5_5 N 0.16067(12) 0.15862(13) 0.03198(13)
N9_5 N 0.59138(13) 0.08933(12) 0.28198(13)
O44_3 O 0.29980(12) 0.04827(12) 0.02648(12)
O46_2 O 0.29827(12) 0.45020(12) 0.22352(12)
O50_2 O 0.70173(12) 0.04980(12) 0.22352(12)
C22_5 C 0.12594(16) 0.17975(16) 0.07828(17)
H14_5 H 0.1230 0.1829 0.1019
C27_5 C 0.10671(16) 0.18458(16) 0.02073(17)
H19_5 H 0.0902 0.1911 0.0046
O54_3 O 0.23559(11) 0.16781(11) 0.04475(12)
O57_3 O 0.58219(11) 0.01441(11) 0.29475(12)
C31_3 C 0.32523(15) 0.06860(17) 0.02774(17)
C33_3 C 0.31860(17) 0.42477(15) 0.22226(17)
C36_3 C 0.35575(18) 0.05821(19) 0.04892(18)
C38_3 C 0.30821(19) 0.39425(18) 0.20108(18)
C42_5 C 0.10103(15) 0.19034(14) 0.05583(15)
C46_3 C 0.57267(15) 0.01681(14) 0.20387(15)
C48_3 C 0.26681(14) 0.17733(15) 0.04613(15)
C52_5 C 0.13660(15) 0.16937(16) 0.01022(18)
H25_5 H 0.3597 0.1664 0.0133
O61_4 O 0.75324(17) 0.0000 0.2500
C57_5 C 0.06827(15) 0.20612(15) 0.06850(15)
C62_5 C 0.15559(16) 0.16438(16) 0.06579(18)
H29_5 H 0.1726 0.1578 0.0813
C66_3 C 0.54400(19) 0.0245(2) 0.17977(19)
C68_3 C 0.2745(2) 0.20600(19) 0.07023(19)
C71_3 C 0.4125(2) 0.0395(3) 0.0884(3)
C73_3 C 0.2895(3) 0.3375(2) 0.1616(3)
C78_3 C 0.2495(2) 0.2239(2) 0.0865(3)
H35_3 H 0.2266 0.2176 0.0829
N10_3 N 0.4598(2) 0.0517(2) 0.1169(2)
N12_3 N 0.3017(2) 0.2902(2) 0.1331(2)
C81_3 C 0.4891(3) 0.0395(3) 0.1368(2)
C83_3 C 0.2895(3) 0.2609(3) 0.1132(2)
C86_3 C 0.3826(2) 0.0804(2) 0.0538(3)
C88_3 C 0.3304(2) 0.3674(2) 0.1962(3)
H38_3 H 0.3815 0.1027 0.0449
H40_3 H 0.3527 0.3685 0.2051
N15_3 N 0.4395(2) 0.0283(2) 0.1095(3)
N17_3 N 0.2783(2) 0.3105(2) 0.1405(3)
C91_3 C 0.5336(2) 0.0583(2) 0.1747(3)
C93_3 C 0.3083(2) 0.2164(2) 0.0753(3)
H43_3 H 0.5446 0.0763 0.1863
H45_3 H 0.3263 0.2054 0.0637
C96_3 C 0.4992(3) 0.0063(3) 0.1419(3)
C98_3 C 0.2563(3) 0.2508(3) 0.1081(3)
H50_3 H 0.2384 0.2622 0.1192
C101_3 C 0.5066(3) 0.0650(3) 0.1521(3)
C103_3 C 0.3150(3) 0.2434(3) 0.0979(3)
H53_3 H 0.5005 0.0878 0.1476
H55_3 H 0.3378 0.2495 0.1024
C106_3 C 0.3570(2) 0.0261(3) 0.0652(3)
C108_3 C 0.2761(3) 0.3930(2) 0.1848(3)
H58_3 H 0.3385 0.0109 0.0641
H60_3 H 0.2609 0.4115 0.1859
C111_3 C 0.4113(2) 0.0696(3) 0.0719(3)
C113_3 C 0.3196(3) 0.3387(2) 0.1781(3)
H63_3 H 0.4305 0.0839 0.0726
H65_3 H 0.3339 0.3195 0.1774
C116_3 C 0.3864(3) 0.0180(3) 0.0828(3)
C118_3 C 0.2680(3) 0.3636(3) 0.1672(3)
H70_3 H 0.2458 0.3617 0.1584
O1_8 O 0.2500 0.10274(13) 1.0000
O3_5 O 0.17224(11) 0.09683(12) 0.98782(12)
O6_5 O 0.20020(12) 0.04827(12) 0.97352(12)
C3_5 C 0.17477(15) 0.06860(17) 0.97226(17)
C4_5 C 0.14425(18) 0.05821(19) 0.95108(18)
C11_5 C 0.0875(2) 0.0395(3) 0.9116(3)
N2_5 N 0.0402(2) 0.0517(2) 0.8831(2)
C13_5 C 0.0109(3) 0.0395(3) 0.8632(2)
C14_5 C 0.1174(2) 0.0804(2) 0.9462(3)
H6_5 H 0.1185 0.1027 0.9551
N3_5 N 0.0605(2) 0.0283(2) 0.8905(3)
C16_5 C 0.0008(3) 0.0063(3) 0.8581(3)
C18_5 C 0.1430(2) 0.0261(3) 0.9348(3)
H10_5 H 0.1615 0.0109 0.9359
C19_5 C 0.0887(2) 0.0696(3) 0.9281(3)
H11_5 H 0.0695 0.0839 0.9274
C20_5 C 0.1136(3) 0.0180(3) 0.9172(3)
In5_2 In 0.199978(13) 0.5000 0.7500
In8_4 In 0.5000 0.2500 0.949978(13)
In18_2 In 0.120081(9) 0.457622(9) 0.735258(9)
O15_5 O 0.45048(11) 0.22200(11) 0.95268(11)
O22_3 O 0.15317(12) 0.42224(11) 0.76218(12)
O38_5 O 0.20880(12) 0.16480(12) 0.97078(11)
N6_5 N 0.33933(12) 0.15862(13) 0.96802(13)
O45_2 O 0.20173(12) 0.45020(12) 0.77648(12)
C23_5 C 0.37406(16) 0.17975(16) 0.92172(17)
H15_5 H 0.3770 0.1829 0.8981
C28_5 C 0.39329(16) 0.18458(16) 0.97927(17)
H20_5 H 0.4098 0.1911 0.9954
O53_5 O 0.26441(11) 0.16781(11) 0.95525(12)
C32_5 C 0.18140(17) 0.42477(15) 0.77774(17)
C37_5 C 0.19179(19) 0.39425(18) 0.79892(18)
C43_5 C 0.39897(15) 0.19034(14) 0.94417(15)
C47_5 C 0.23319(14) 0.17733(15) 0.95387(15)
C53_5 C 0.36340(15) 0.16937(16) 0.98978(18)
H24_5 H 0.1403 0.1664 0.9867
C58_5 C 0.43173(15) 0.20612(15) 0.93150(15)
C63_5 C 0.34441(16) 0.16438(16) 0.93421(18)
H30_5 H 0.3274 0.1578 0.9187
C67_5 C 0.2255(2) 0.20600(19) 0.92977(19)
C72_5 C 0.2105(3) 0.3375(2) 0.8384(3)
C77_5 C 0.2505(2) 0.2239(2) 0.9135(3)
H34_5 H 0.2734 0.2176 0.9171
N11_5 N 0.1983(2) 0.2902(2) 0.8669(2)
C82_5 C 0.2105(3) 0.2609(3) 0.8868(2)
C87_5 C 0.1696(2) 0.3674(2) 0.8038(3)
H39_5 H 0.1473 0.3685 0.7949
N16_5 N 0.2217(2) 0.3105(2) 0.8595(3)
C92_5 C 0.1917(2) 0.2164(2) 0.9247(3)
H44_5 H 0.1737 0.2054 0.9363
C97_5 C 0.2437(3) 0.2508(3) 0.8919(3)
H49_5 H 0.2616 0.2622 0.8808
H52_3 H 0.0122 0.0116 0.6308
C102_5 C 0.1850(3) 0.2434(3) 0.9021(3)
H54_5 H 0.1622 0.2495 0.8976
C107_5 C 0.2239(3) 0.3930(2) 0.8152(3)
H59_5 H 0.2391 0.4115 0.8141
C112_5 C 0.1804(3) 0.3387(2) 0.8219(3)
H64_5 H 0.1661 0.3195 0.8226
C117_5 C 0.2320(3) 0.3636(3) 0.8328(3)
H69_5 H 0.2542 0.3617 0.8416
H72_3 H 0.1117 0.0042 0.5916
O8_7 O 0.2500 0.99676(17) 0.0000
In4_4 In 0.699978(13) 1.0000 0.2500
O10_5 O 0.64726(13) 1.0000 0.2500
O20_3 O 0.70268(11) 0.97200(11) 0.20048(11)
O51_3 O 0.70173(12) 0.95020(12) 0.27648(12)
O52_3 O 0.58219(11) 0.98559(11) 0.20525(12)
O61_5 O 0.75324(17) 1.0000 0.2500
C76_3 C 0.5261(2) 0.9995(2) 0.1635(3)
H33_3 H 0.5324 0.9766 0.1671
H48_3 H 0.4878 0.9884 0.1308
H68_3 H 0.3883 0.9958 0.0916
O8_8 O 0.2500 0.99676(17) 1.0000
H8_5 H 0.0122 0.9884 0.8692
H12_5 H 0.1117 0.9958 0.9084
O25_3 O 0.17224(11) 0.90317(12) 0.51218(12)
O48_3 O 0.20020(12) 0.95173(12) 0.52648(12)
C35_3 C 0.17477(15) 0.93140(17) 0.52774(17)
C40_3 C 0.14425(18) 0.94179(19) 0.54892(18)
C75_3 C 0.0875(2) 0.9605(3) 0.5884(3)
N14_3 N 0.0402(2) 0.9483(2) 0.6169(2)
C85_3 C 0.0109(3) 0.9605(3) 0.6368(2)
C90_3 C 0.1174(2) 0.9196(2) 0.5538(3)
H42_3 H 0.1185 0.8973 0.5449
N19_3 N 0.0605(2) 0.9717(2) 0.6095(3)
C100_3 C 0.0008(3) 0.9937(3) 0.6419(3)
C110_3 C 0.1430(2) 0.9739(3) 0.5652(3)
H62_3 H 0.1615 0.9891 0.5641
C115_3 C 0.0887(2) 0.9304(3) 0.5719(3)
H67_3 H 0.0695 0.9161 0.5726
C120_3 C 0.1136(3) 0.9820(3) 0.5828(3)
In6_5 In 1.0000 0.2500 0.050022(13)
O5_5 O 0.91480(12) 0.04120(12) 0.77922(11)
C6_5 C 0.92733(15) 0.01681(14) 0.79613(15)
C10_5 C 0.95600(19) 0.0245(2) 0.82023(19)
C15_5 C 0.9664(2) 0.0583(2) 0.8253(3)
H7_5 H 0.9554 0.0763 0.8137
C17_5 C 0.9934(3) 0.0650(3) 0.8479(3)
H9_5 H 0.9995 0.0878 0.8524
In3_3 In 0.800022(13) -0.0000 0.7500
O9_4 O 0.85274(13) -0.0000 0.7500
O16_3 O 0.79732(11) 0.02800(11) 0.70048(11)
O24_3 O 0.84683(12) 0.07776(11) 0.76218(12)
O32_5 O 0.84994(12) 0.04889(12) 0.68790(10)
O40_3 O 0.79120(12) 0.33520(12) 0.97078(11)
N7_5 N 0.78198(13) 0.09138(13) 0.58933(12)
O47_2 O 0.79827(12) 0.04980(12) 0.77648(12)
C24_5 C 0.82828(17) 0.07025(16) 0.62406(16)
H16_5 H 0.8519 0.0671 0.6270
C29_5 C 0.77073(17) 0.06542(16) 0.64329(16)
H21_5 H 0.7546 0.0589 0.6598
O55_3 O 0.73559(11) 0.33219(11) 0.95525(12)
O56_3 O 0.91781(11) 0.01441(11) 0.70525(12)
C34_3 C 0.81860(17) 0.07523(15) 0.77774(17)
C39_3 C 0.80821(19) 0.10575(18) 0.79892(18)
C44_5 C 0.80583(15) 0.05966(14) 0.64897(15)
C49_3 C 0.76681(14) 0.32267(15) 0.95387(15)
C54_5 C 0.76022(18) 0.08063(16) 0.61340(15)
H26_5 H 0.7367 0.0836 0.6097
O60_4 O 0.74676(17) -0.0000 0.7500
C59_5 C 0.81850(15) 0.04388(15) 0.68173(15)
C64_5 C 0.81579(18) 0.08562(16) 0.59441(16)
H31_5 H 0.8313 0.0922 0.5774
C69_3 C 0.7745(2) 0.29400(19) 0.92977(19)
C74_3 C 0.7895(3) 0.1625(2) 0.8384(3)
C79_3 C 0.7495(2) 0.2761(2) 0.9135(3)
C80_3 C 0.9739(2) 0.0005(2) 0.6635(3)
H36_3 H 0.7266 0.2824 0.9171
H37_3 H 0.9676 0.0234 0.6671
N13_3 N 0.8017(2) 0.2098(2) 0.8669(2)
C84_3 C 0.7895(3) 0.2391(3) 0.8868(2)
C89_3 C 0.8304(2) 0.1326(2) 0.8038(3)
H41_3 H 0.8527 0.1315 0.7949
N18_3 N 0.7783(2) 0.1895(2) 0.8595(3)
C94_3 C 0.8083(2) 0.2836(2) 0.9247(3)
H46_3 H 0.8263 0.2946 0.9363
C99_3 C 0.7563(3) 0.2492(3) 0.8919(3)
H51_3 H 0.7384 0.2378 0.8808
C104_3 C 0.8150(3) 0.2566(3) 0.9021(3)
H56_3 H 0.8378 0.2505 0.8976
C109_3 C 0.7761(3) 0.1070(2) 0.8152(3)
H61_3 H 0.7609 0.0885 0.8141
C114_3 C 0.8196(3) 0.1613(2) 0.8219(3)
H66_3 H 0.8339 0.1805 0.8226
C119_3 C 0.7680(3) 0.1364(3) 0.8328(3)
H71_3 H 0.7458 0.1383 0.8416
O7_3 O 0.91781(11) 0.98559(11) 0.79475(12)
C12_5 C 0.9739(2) 0.9995(2) 0.8365(3)
H5_5 H 0.9676 0.9766 0.8329
In3_4 In 0.800022(13) 1.0000 0.7500
In16_3 In 0.879919(9) 0.957622(9) 0.764742(9)
O9_5 O 0.85274(13) 1.0000 0.7500
O18_3 O 0.79732(11) 0.97200(11) 0.79952(11)
O41_3 O 0.91480(12) 0.95880(12) 0.72078(11)
O49_3 O 0.79827(12) 0.95020(12) 0.72352(12)
C50_3 C 0.92733(15) 0.98319(14) 0.70387(15)
O60_5 O 0.74676(17) 1.0000 0.7500
C70_3 C 0.95600(19) 0.9755(2) 0.67977(19)
C95_3 C 0.9664(2) 0.9417(2) 0.6747(3)
H47_3 H 0.9554 0.9237 0.6863
C105_3 C 0.9934(3) 0.9350(3) 0.6521(3)
H57_3 H 0.9995 0.9122 0.6476
O10_6 O 0.14726(13) 0.5000 0.7500
O19_4 O 0.20268(11) 0.47200(11) 0.70048(11)
O20_4 O 0.20268(11) 0.52800(11) 0.79952(11)
O34_6 O 0.15006(12) 0.45111(12) 0.68790(10)
O37_4 O 0.08520(12) 0.45880(12) 0.77922(11)
N9_6 N 0.09138(13) 0.41067(12) 0.71802(13)
O51_4 O 0.20173(12) 0.54980(12) 0.72352(12)
O52_4 O 0.08219(11) 0.51441(11) 0.79475(12)
O57_4 O 0.08219(11) 0.48559(11) 0.70525(12)
C46_4 C 0.07267(15) 0.48319(14) 0.79613(15)
O61_6 O 0.25324(17) 0.5000 0.7500
C66_4 C 0.04400(19) 0.4755(2) 0.82023(19)
C76_4 C 0.0261(2) 0.5005(2) 0.8365(3)
H33_4 H 0.0324 0.5234 0.8329
C91_4 C 0.0336(2) 0.4417(2) 0.8253(3)
H43_4 H 0.0446 0.4237 0.8137
C101_4 C 0.0066(3) 0.4350(3) 0.8479(3)
H53_4 H 0.0005 0.4122 0.8524
O1_9 O 0.7500 0.39726(13) 0.0000
O3_6 O 0.67224(11) 0.40317(12) 0.01218(12)
O5_6 O 0.41480(12) 0.45880(12) 0.22078(11)
O6_6 O 0.70020(12) 0.45173(12) 0.02648(12)
O7_4 O 0.41781(11) 0.51441(11) 0.20525(12)
C3_6 C 0.67477(15) 0.43140(17) 0.02774(17)
C4_6 C 0.64425(18) 0.44179(19) 0.04892(18)
C6_6 C 0.42733(15) 0.48319(14) 0.20387(15)
O8_9 O 0.7500 0.50324(17) 0.0000
C10_6 C 0.45600(19) 0.4755(2) 0.17977(19)
C11_6 C 0.5875(2) 0.4605(3) 0.0884(3)
C12_6 C 0.4739(2) 0.5005(2) 0.1635(3)
H5_6 H 0.4676 0.5234 0.1671
N2_6 N 0.5402(2) 0.4483(2) 0.1169(2)
C13_6 C 0.5109(3) 0.4605(3) 0.1368(2)
C14_6 C 0.6174(2) 0.4196(2) 0.0538(3)
H6_6 H 0.6185 0.3973 0.0449
N3_6 N 0.5605(2) 0.4717(2) 0.1095(3)
C15_6 C 0.4664(2) 0.4417(2) 0.1747(3)
H7_6 H 0.4554 0.4237 0.1863
C16_6 C 0.5008(3) 0.4937(3) 0.1419(3)
H8_6 H 0.5122 0.5116 0.1308
C17_6 C 0.4934(3) 0.4350(3) 0.1521(3)
H9_6 H 0.4995 0.4122 0.1476
C18_6 C 0.6430(2) 0.4739(3) 0.0652(3)
H10_6 H 0.6615 0.4891 0.0641
C19_6 C 0.5887(2) 0.4304(3) 0.0719(3)
H11_6 H 0.5695 0.4161 0.0726
C20_6 C 0.6136(3) 0.4820(3) 0.0828(3)
H12_6 H 0.6117 0.5042 0.0916
In16_4 In 0.379919(9) 0.542378(9) 0.235258(9)
O9_6 O 0.35274(13) 0.5000 0.2500
O15_6 O 0.95048(11) 0.27800(11) 0.04732(11)
O16_4 O 0.29732(11) 0.47200(11) 0.29952(11)
O18_4 O 0.29732(11) 0.52800(11) 0.20048(11)
O25_4 O 0.67224(11) 0.59683(12) 0.48782(12)
O32_6 O 0.34994(12) 0.45111(12) 0.31210(10)
O38_6 O 0.70880(12) 0.33520(12) 0.02922(11)
O41_4 O 0.41480(12) 0.54120(12) 0.27922(11)
N6_6 N 0.83933(12) 0.34138(13) 0.03198(13)
N7_6 N 0.28198(13) 0.40862(13) 0.41067(12)
O48_4 O 0.70020(12) 0.54827(12) 0.47352(12)
O49_4 O 0.29827(12) 0.54980(12) 0.27648(12)
C23_6 C 0.87406(16) 0.32025(16) 0.07828(17)
C24_6 C 0.32828(17) 0.42975(16) 0.37594(16)
H15_6 H 0.8770 0.3171 0.1019
H16_6 H 0.3519 0.4329 0.3730
C28_6 C 0.89329(16) 0.31542(16) 0.02073(17)
C29_6 C 0.27073(17) 0.43458(16) 0.35671(16)
H20_6 H 0.9098 0.3089 0.0046
H21_6 H 0.2546 0.4411 0.3402
O53_6 O 0.76441(11) 0.33219(11) 0.04475(12)
O56_4 O 0.41781(11) 0.48559(11) 0.29475(12)
C32_6 C 0.68140(17) 0.07523(15) 0.22226(17)
C35_4 C 0.67477(15) 0.56860(17) 0.47226(17)
C37_6 C 0.69179(19) 0.10575(18) 0.20108(18)
C40_4 C 0.64425(18) 0.55821(19) 0.45108(18)
C43_6 C 0.89897(15) 0.30966(14) 0.05583(15)
C44_6 C 0.30583(15) 0.44034(14) 0.35103(15)
C47_6 C 0.73319(14) 0.32267(15) 0.04613(15)
C50_4 C 0.42733(15) 0.51681(14) 0.29613(15)
C53_6 C 0.86340(15) 0.33063(16) 0.01022(18)
C54_6 C 0.26022(18) 0.41937(16) 0.38660(15)
H24_6 H 0.6403 0.3336 0.0133
H26_6 H 0.2367 0.4164 0.3903
O60_6 O 0.24676(17) 0.5000 0.2500
C58_6 C 0.93173(15) 0.29388(15) 0.06850(15)
C59_6 C 0.31850(15) 0.45612(15) 0.31827(15)
C63_6 C 0.84441(16) 0.33562(16) 0.06579(18)
C64_6 C 0.31579(18) 0.41438(16) 0.40559(16)
H30_6 H 0.8274 0.3422 0.0813
H31_6 H 0.3313 0.4078 0.4226
C67_6 C 0.7255(2) 0.29400(19) 0.07023(19)
C70_4 C 0.45600(19) 0.5245(2) 0.32023(19)
C72_6 C 0.7105(3) 0.1625(2) 0.1616(3)
C75_4 C 0.5875(2) 0.5395(3) 0.4116(3)
C77_6 C 0.7505(2) 0.2761(2) 0.0865(3)
C80_4 C 0.4739(2) 0.4995(2) 0.3365(3)
H34_6 H 0.7734 0.2824 0.0829
H37_4 H 0.4676 0.4766 0.3329
N11_6 N 0.6983(2) 0.2098(2) 0.1331(2)
N14_4 N 0.5402(2) 0.5517(2) 0.3831(2)
C82_6 C 0.7105(3) 0.2391(3) 0.1132(2)
C85_4 C 0.5109(3) 0.5395(3) 0.3632(2)
C87_6 C 0.6696(2) 0.1326(2) 0.1962(3)
C90_4 C 0.6174(2) 0.5804(2) 0.4462(3)
H39_6 H 0.6473 0.1315 0.2051
H42_4 H 0.6185 0.6027 0.4551
N16_6 N 0.7217(2) 0.1895(2) 0.1405(3)
N19_4 N 0.5605(2) 0.5283(2) 0.3905(3)
C92_6 C 0.6917(2) 0.2836(2) 0.0753(3)
C95_4 C 0.4664(2) 0.5583(2) 0.3253(3)
H44_6 H 0.6737 0.2946 0.0637
H47_4 H 0.4554 0.5763 0.3137
C97_6 C 0.7437(3) 0.2492(3) 0.1081(3)
C100_4 C 0.5008(3) 0.5063(3) 0.3581(3)
H49_6 H 0.7616 0.2378 0.1192
H52_4 H 0.5122 0.4884 0.3692
C102_6 C 0.6850(3) 0.2566(3) 0.0979(3)
C105_4 C 0.4934(3) 0.5650(3) 0.3479(3)
H54_6 H 0.6622 0.2505 0.1024
H57_4 H 0.4995 0.5878 0.3524
C107_6 C 0.7239(3) 0.1070(2) 0.1848(3)
C110_4 C 0.6430(2) 0.5261(3) 0.4348(3)
H59_6 H 0.7391 0.0885 0.1859
H62_4 H 0.6615 0.5109 0.4359
C112_6 C 0.6804(3) 0.1613(2) 0.1781(3)
C115_4 C 0.5887(2) 0.5696(3) 0.4281(3)
H64_6 H 0.6661 0.1805 0.1774
H67_4 H 0.5695 0.5839 0.4274
C117_6 C 0.7320(3) 0.1364(3) 0.1672(3)
C120_4 C 0.6136(3) 0.5180(3) 0.4172(3)
H69_6 H 0.7542 0.1383 0.1584
H72_4 H 0.6117 0.4958 0.4084
O1_10 O 0.7500 0.39726(13) 1.0000
O8_10 O 0.7500 0.50324(17) 1.0000
O14_6 O 0.54952(11) 0.27800(11) 0.95268(11)
O21_4 O 0.82776(11) 0.40317(12) 0.98782(12)
N5_6 N 0.66067(12) 0.34138(13) 0.96802(13)
O44_4 O 0.79980(12) 0.45173(12) 0.97352(12)
C22_6 C 0.62594(16) 0.32025(16) 0.92172(17)
H14_6 H 0.6230 0.3171 0.8981
C27_6 C 0.60671(16) 0.31542(16) 0.97927(17)
H19_6 H 0.5902 0.3089 0.9954
C31_4 C 0.82523(15) 0.43140(17) 0.97226(17)
C36_4 C 0.85575(18) 0.44179(19) 0.95108(18)
C42_6 C 0.60103(15) 0.30966(14) 0.94417(15)
C52_6 C 0.63660(15) 0.33063(16) 0.98978(18)
H25_6 H 0.8597 0.3336 0.9867
C57_6 C 0.56827(15) 0.29388(15) 0.93150(15)
C62_6 C 0.65559(16) 0.33562(16) 0.93421(18)
H29_6 H 0.6726 0.3422 0.9187
C71_4 C 0.9125(2) 0.4605(3) 0.9116(3)
N10_4 N 0.9598(2) 0.4483(2) 0.8831(2)
C81_4 C 0.9891(3) 0.4605(3) 0.8632(2)
C86_4 C 0.8826(2) 0.4196(2) 0.9462(3)
H38_4 H 0.8815 0.3973 0.9551
N15_4 N 0.9395(2) 0.4717(2) 0.8905(3)
C96_4 C 0.9992(3) 0.4937(3) 0.8581(3)
H48_4 H 0.9878 0.5116 0.8692
C106_4 C 0.8570(2) 0.4739(3) 0.9348(3)
H58_4 H 0.8385 0.4891 0.9359
C111_4 C 0.9113(2) 0.4304(3) 0.9281(3)
H63_4 H 0.9305 0.4161 0.9274
C116_4 C 0.8864(3) 0.4820(3) 0.9172(3)
H68_4 H 0.8883 0.5042 0.9084
O8_11 O 0.2500 0.00324(17) 0.5000
C12_7 C 0.5261(2) 0.0005(2) 0.3365(3)
H5_7 H 0.5324 0.0234 0.3329
H8_7 H 0.4878 0.0116 0.3692
H12_7 H 0.3883 0.0042 0.4084
O1_11 O 0.2500 0.89726(13) 0.5000
O3_7 O 0.32776(11) 0.90317(12) 0.48782(12)
O5_7 O 0.58520(12) 0.95880(12) 0.27922(11)
O6_7 O 0.29980(12) 0.95173(12) 0.47352(12)
C3_7 C 0.32523(15) 0.93140(17) 0.47226(17)
C4_7 C 0.35575(18) 0.94179(19) 0.45108(18)
C6_7 C 0.57267(15) 0.98319(14) 0.29613(15)
C10_7 C 0.54400(19) 0.9755(2) 0.32023(19)
C11_7 C 0.4125(2) 0.9605(3) 0.4116(3)
N2_7 N 0.4598(2) 0.9483(2) 0.3831(2)
C13_7 C 0.4891(3) 0.9605(3) 0.3632(2)
C14_7 C 0.3826(2) 0.9196(2) 0.4462(3)
H6_7 H 0.3815 0.8973 0.4551
N3_7 N 0.4395(2) 0.9717(2) 0.3905(3)
C15_7 C 0.5336(2) 0.9417(2) 0.3253(3)
H7_7 H 0.5446 0.9237 0.3137
C16_7 C 0.4992(3) 0.9937(3) 0.3581(3)
C17_7 C 0.5066(3) 0.9350(3) 0.3479(3)
H9_7 H 0.5005 0.9122 0.3524
C18_7 C 0.3570(2) 0.9739(3) 0.4348(3)
H10_7 H 0.3385 0.9891 0.4359
C19_7 C 0.4113(2) 0.9304(3) 0.4281(3)
H11_7 H 0.4305 0.9161 0.4274
C20_7 C 0.3864(3) 0.9820(3) 0.4172(3)
In6_6 In 0.5000 0.7500 0.550022(13)
In8_5 In -0.0000 0.7500 0.449978(13)
O14_7 O 0.45048(11) 0.77800(11) 0.54732(11)
O15_7 O 0.04952(11) 0.77800(11) 0.45268(11)
O22_4 O 0.34683(12) 0.57776(11) 0.26218(12)
O23_4 O 0.15317(12) 0.57776(11) 0.73782(12)
O24_4 O 0.65317(12) 0.92224(11) 0.26218(12)
O32_7 O 0.65006(12) 0.95111(12) 0.18790(10)
O38_7 O 0.29120(12) 0.83520(12) 0.47078(11)
O39_4 O 0.20880(12) 0.83520(12) 0.52922(11)
O40_4 O 0.70880(12) 0.66480(12) 0.47078(11)
N5_7 N 0.33933(12) 0.84138(13) 0.53198(13)
N6_7 N 0.16067(12) 0.84138(13) 0.46802(13)
N7_7 N 0.71802(13) 0.90862(13) 0.08933(12)
C22_7 C 0.37406(16) 0.82025(16) 0.57828(17)
C23_7 C 0.12594(16) 0.82025(16) 0.42172(17)
C24_7 C 0.67172(17) 0.92975(16) 0.12406(16)
H14_7 H 0.3770 0.8171 0.6019
H15_7 H 0.1230 0.8171 0.3981
H16_7 H 0.6481 0.9329 0.1270
C27_7 C 0.39329(16) 0.81542(16) 0.52073(17)
C28_7 C 0.10671(16) 0.81542(16) 0.47927(17)
C29_7 C 0.72927(17) 0.93458(16) 0.14329(16)
H19_7 H 0.4098 0.8089 0.5046
H20_7 H 0.0902 0.8089 0.4954
H21_7 H 0.7454 0.9411 0.1598
O53_7 O 0.23559(11) 0.83219(11) 0.45525(12)
O54_4 O 0.26441(11) 0.83219(11) 0.54475(12)
O55_4 O 0.76441(11) 0.66781(11) 0.45525(12)
C32_7 C 0.31860(17) 0.57523(15) 0.27774(17)
C33_4 C 0.18140(17) 0.57523(15) 0.72226(17)
C34_4 C 0.68140(17) 0.92477(15) 0.27774(17)
C37_7 C 0.30821(19) 0.60575(18) 0.29892(18)
C38_4 C 0.19179(19) 0.60575(18) 0.70108(18)
C39_4 C 0.69179(19) 0.89425(18) 0.29892(18)
C42_7 C 0.39897(15) 0.80966(14) 0.55583(15)
C43_7 C 0.10103(15) 0.80966(14) 0.44417(15)
C44_7 C 0.69417(15) 0.94034(14) 0.14897(15)
C47_7 C 0.26681(14) 0.82267(15) 0.45387(15)
C48_4 C 0.23319(14) 0.82267(15) 0.54613(15)
C49_4 C 0.73319(14) 0.67733(15) 0.45387(15)
C52_7 C 0.36340(15) 0.83063(16) 0.51022(18)
C53_7 C 0.13660(15) 0.83063(16) 0.48978(18)
C54_7 C 0.73978(18) 0.91937(16) 0.11340(15)
H24_7 H 0.3597 0.8336 0.4867
H25_7 H 0.1403 0.8336 0.5133
H26_7 H 0.7633 0.9164 0.1097
C57_7 C 0.43173(15) 0.79388(15) 0.56850(15)
C58_7 C 0.06827(15) 0.79388(15) 0.43150(15)
C59_7 C 0.68150(15) 0.95612(15) 0.18173(15)
C62_7 C 0.34441(16) 0.83562(16) 0.56579(18)
C63_7 C 0.15559(16) 0.83562(16) 0.43421(18)
C64_7 C 0.68421(18) 0.91438(16) 0.09441(16)
H29_7 H 0.3274 0.8422 0.5813
H30_7 H 0.1726 0.8422 0.4187
H31_7 H 0.6687 0.9078 0.0774
C67_7 C 0.2745(2) 0.79400(19) 0.42977(19)
C68_4 C 0.2255(2) 0.79400(19) 0.57023(19)
C69_4 C 0.7255(2) 0.70600(19) 0.42977(19)
C72_7 C 0.2895(3) 0.6625(2) 0.3384(3)
C73_4 C 0.2105(3) 0.6625(2) 0.6616(3)
C74_4 C 0.7105(3) 0.8375(2) 0.3384(3)
C77_7 C 0.2495(2) 0.7761(2) 0.4135(3)
C78_4 C 0.2505(2) 0.7761(2) 0.5865(3)
C79_4 C 0.7505(2) 0.7239(2) 0.4135(3)
H34_7 H 0.2266 0.7824 0.4171
H35_4 H 0.2734 0.7824 0.5829
H36_4 H 0.7734 0.7176 0.4171
N11_7 N 0.3017(2) 0.7098(2) 0.3669(2)
N12_4 N 0.1983(2) 0.7098(2) 0.6331(2)
N13_4 N 0.6983(2) 0.7902(2) 0.3669(2)
C82_7 C 0.2895(3) 0.7391(3) 0.3868(2)
C83_4 C 0.2105(3) 0.7391(3) 0.6132(2)
C84_4 C 0.7105(3) 0.7609(3) 0.3868(2)
C87_7 C 0.3304(2) 0.6326(2) 0.3038(3)
C88_4 C 0.1696(2) 0.6326(2) 0.6962(3)
C89_4 C 0.6696(2) 0.8674(2) 0.3038(3)
H39_7 H 0.3527 0.6315 0.2949
H40_4 H 0.1473 0.6315 0.7051
H41_4 H 0.6473 0.8685 0.2949
N16_7 N 0.2783(2) 0.6895(2) 0.3595(3)
N17_4 N 0.2217(2) 0.6895(2) 0.6405(3)
N18_4 N 0.7217(2) 0.8105(2) 0.3595(3)
C92_7 C 0.3083(2) 0.7836(2) 0.4247(3)
C93_4 C 0.1917(2) 0.7836(2) 0.5753(3)
C94_4 C 0.6917(2) 0.7164(2) 0.4247(3)
H44_7 H 0.3263 0.7946 0.4363
H45_4 H 0.1737 0.7946 0.5637
H46_4 H 0.6737 0.7054 0.4363
C97_7 C 0.2563(3) 0.7492(3) 0.3919(3)
C98_4 C 0.2437(3) 0.7492(3) 0.6081(3)
C99_4 C 0.7437(3) 0.7508(3) 0.3919(3)
H49_7 H 0.2384 0.7378 0.3808
H50_4 H 0.2616 0.7378 0.6192
H51_4 H 0.7616 0.7622 0.3808
C102_7 C 0.3150(3) 0.7566(3) 0.4021(3)
C103_4 C 0.1850(3) 0.7566(3) 0.5979(3)
C104_4 C 0.6850(3) 0.7434(3) 0.4021(3)
H54_7 H 0.3378 0.7505 0.3976
H55_4 H 0.1622 0.7505 0.6024
H56_4 H 0.6622 0.7495 0.3976
C107_7 C 0.2761(3) 0.6070(2) 0.3152(3)
C108_4 C 0.2239(3) 0.6070(2) 0.6848(3)
C109_4 C 0.7239(3) 0.8930(2) 0.3152(3)
H59_7 H 0.2609 0.5885 0.3141
H60_4 H 0.2391 0.5885 0.6859
H61_4 H 0.7391 0.9115 0.3141
C112_7 C 0.3196(3) 0.6613(2) 0.3219(3)
C113_4 C 0.1804(3) 0.6613(2) 0.6781(3)
C114_4 C 0.6804(3) 0.8387(2) 0.3219(3)
H64_7 H 0.3339 0.6805 0.3226
H65_4 H 0.1661 0.6805 0.6774
H66_4 H 0.6661 0.8195 0.3226
C117_7 C 0.2680(3) 0.6364(3) 0.3328(3)
C118_4 C 0.2320(3) 0.6364(3) 0.6672(3)
C119_4 C 0.7320(3) 0.8636(3) 0.3328(3)
H69_7 H 0.2458 0.6383 0.3416
H70_4 H 0.2542 0.6383 0.6584
H71_4 H 0.7542 0.8617 0.3416
In8_6 In 1.0000 0.7500 0.449978(13)
O26_4 O 0.84683(12) 0.92224(11) 0.73782(12)
O34_7 O 0.84994(12) 0.95111(12) 0.81210(10)
N9_7 N 0.90862(13) 0.91067(12) 0.78198(13)
O5_8 O 0.08520(12) 0.54120(12) 0.72078(11)
C6_8 C 0.07267(15) 0.51681(14) 0.70387(15)
C10_8 C 0.04400(19) 0.5245(2) 0.67977(19)
C12_8 C 0.0261(2) 0.4995(2) 0.6635(3)
H5_8 H 0.0324 0.4766 0.6671
C15_8 C 0.0336(2) 0.5583(2) 0.6747(3)
H7_8 H 0.0446 0.5763 0.6863
C17_8 C 0.0066(3) 0.5650(3) 0.6521(3)
H9_8 H 0.0005 0.5878 0.6476
O32_8 O 0.15006(12) 0.54889(12) 0.81210(10)
N7_8 N 0.21802(13) 0.59138(13) 0.91067(12)
C24_8 C 0.17172(17) 0.57025(16) 0.87594(16)
H16_8 H 0.1481 0.5671 0.8730
C29_8 C 0.22927(17) 0.56542(16) 0.85671(16)
H21_8 H 0.2454 0.5589 0.8402
C44_8 C 0.19417(15) 0.55966(14) 0.85103(15)
C54_8 C 0.23978(18) 0.58063(16) 0.88660(15)
H26_8 H 0.2633 0.5836 0.8903
C59_8 C 0.18150(15) 0.54388(15) 0.81827(15)
C64_8 C 0.18421(18) 0.58562(16) 0.90559(16)
H31_8 H 0.1687 0.5922 0.9226
O1_12 O 0.7500 0.60274(13) 0.5000
O3_8 O 0.82776(11) 0.59683(12) 0.51218(12)
O6_8 O 0.79980(12) 0.54827(12) 0.52648(12)
C3_8 C 0.82523(15) 0.56860(17) 0.52774(17)
C4_8 C 0.85575(18) 0.55821(19) 0.54892(18)
O8_12 O 0.7500 0.49676(17) 0.5000
C11_8 C 0.9125(2) 0.5395(3) 0.5884(3)
N2_8 N 0.9598(2) 0.5517(2) 0.6169(2)
C13_8 C 0.9891(3) 0.5395(3) 0.6368(2)
C14_8 C 0.8826(2) 0.5804(2) 0.5538(3)
H6_8 H 0.8815 0.6027 0.5449
N3_8 N 0.9395(2) 0.5283(2) 0.6095(3)
C16_8 C 0.9992(3) 0.5063(3) 0.6419(3)
H8_8 H 0.9878 0.4884 0.6308
C18_8 C 0.8570(2) 0.5261(3) 0.5652(3)
H10_8 H 0.8385 0.5109 0.5641
C19_8 C 0.9113(2) 0.5696(3) 0.5719(3)
H11_8 H 0.9305 0.5839 0.5726
C20_8 C 0.8864(3) 0.5180(3) 0.5828(3)
H12_8 H 0.8883 0.4958 0.5916
O14_8 O 0.95048(11) 0.72200(11) 0.45268(11)
O15_8 O 0.54952(11) 0.72200(11) 0.54732(11)
O34_8 O 0.34994(12) 0.54889(12) 0.18790(10)
O38_8 O 0.79120(12) 0.66480(12) 0.52922(11)
N5_8 N 0.83933(12) 0.65862(13) 0.46802(13)
N6_8 N 0.66067(12) 0.65862(13) 0.53198(13)
N9_8 N 0.40862(13) 0.58933(12) 0.21802(13)
C22_8 C 0.87406(16) 0.67975(16) 0.42172(17)
C23_8 C 0.62594(16) 0.67975(16) 0.57828(17)
H14_8 H 0.8770 0.6829 0.3981
H15_8 H 0.6230 0.6829 0.6019
C27_8 C 0.89329(16) 0.68458(16) 0.47927(17)
C28_8 C 0.60671(16) 0.68458(16) 0.52073(17)
H19_8 H 0.9098 0.6911 0.4954
H20_8 H 0.5902 0.6911 0.5046
O53_8 O 0.73559(11) 0.66781(11) 0.54475(12)
C32_8 C 0.81860(17) 0.92477(15) 0.72226(17)
C37_8 C 0.80821(19) 0.89425(18) 0.70108(18)
C42_8 C 0.89897(15) 0.69034(14) 0.44417(15)
C43_8 C 0.60103(15) 0.69034(14) 0.55583(15)
C47_8 C 0.76681(14) 0.67733(15) 0.54613(15)
C52_8 C 0.86340(15) 0.66937(16) 0.48978(18)
C53_8 C 0.63660(15) 0.66937(16) 0.51022(18)
H24_8 H 0.8597 0.6664 0.5133
H25_8 H 0.6403 0.6664 0.4867
C57_8 C 0.93173(15) 0.70612(15) 0.43150(15)
C58_8 C 0.56827(15) 0.70612(15) 0.56850(15)
C62_8 C 0.84441(16) 0.66438(16) 0.43421(18)
C63_8 C 0.65559(16) 0.66438(16) 0.56579(18)
H29_8 H 0.8274 0.6578 0.4187
H30_8 H 0.6726 0.6578 0.5813
C67_8 C 0.7745(2) 0.70600(19) 0.57023(19)
C72_8 C 0.7895(3) 0.8375(2) 0.6616(3)
C77_8 C 0.7495(2) 0.7239(2) 0.5865(3)
H34_8 H 0.7266 0.7176 0.5829
N11_8 N 0.8017(2) 0.7902(2) 0.6331(2)
C82_8 C 0.7895(3) 0.7609(3) 0.6132(2)
C87_8 C 0.8304(2) 0.8674(2) 0.6962(3)
H39_8 H 0.8527 0.8685 0.7051
N16_8 N 0.7783(2) 0.8105(2) 0.6405(3)
C92_8 C 0.8083(2) 0.7164(2) 0.5753(3)
H44_8 H 0.8263 0.7054 0.5637
C97_8 C 0.7563(3) 0.7508(3) 0.6081(3)
H49_8 H 0.7384 0.7622 0.6192
C102_8 C 0.8150(3) 0.7434(3) 0.5979(3)
H54_8 H 0.8378 0.7495 0.6024
C107_8 C 0.7761(3) 0.8930(2) 0.6848(3)
H59_8 H 0.7609 0.9115 0.6859
C112_8 C 0.8196(3) 0.8387(2) 0.6781(3)
H64_8 H 0.8339 0.8195 0.6774
C117_8 C 0.7680(3) 0.8636(3) 0.6672(3)
H69_8 H 0.7458 0.8617 0.6584
In13_3 In 0.264742(9) 0.620081(9) 0.042378(9)
O10_7 O 0.2500 0.64726(13) -0.0000
O19_5 O 0.29952(11) 0.70268(11) 0.02800(11)
O23_5 O 0.23782(12) 0.34683(12) 0.42224(11)
O26_5 O 0.23782(12) 0.65317(12) 0.07776(11)
O34_9 O 0.31210(10) 0.65006(12) 0.04889(12)
O37_5 O 0.22078(11) 0.58520(12) 0.04120(12)
N9_9 N 0.28198(13) 0.59138(13) 0.08933(12)
O44_5 O 0.02648(12) 0.29980(12) 0.04827(12)
O46_3 O 0.22352(12) 0.29827(12) 0.45020(12)
O50_3 O 0.22352(12) 0.70173(12) 0.04980(12)
O57_5 O 0.29475(12) 0.58219(11) 0.01441(11)
C31_5 C 0.02774(17) 0.32523(15) 0.06860(17)
C33_5 C 0.22226(17) 0.31860(17) 0.42477(15)
C36_5 C 0.04892(18) 0.35575(18) 0.05821(19)
C38_5 C 0.20108(18) 0.30821(19) 0.39425(18)
C46_5 C 0.20387(15) 0.57267(15) 0.01681(14)
C48_5 C 0.04613(15) 0.26681(14) 0.17733(15)
O61_7 O 0.2500 0.75324(17) 0.0000
C66_5 C 0.17977(19) 0.54400(19) 0.0245(2)
C68_5 C 0.07023(19) 0.2745(2) 0.20600(19)
C71_5 C 0.0884(3) 0.4125(2) 0.0395(3)
C73_5 C 0.1616(3) 0.2895(3) 0.3375(2)
C78_5 C 0.0865(3) 0.2495(2) 0.2239(2)
H35_5 H 0.0829 0.2266 0.2176
N10_5 N 0.1169(2) 0.4598(2) 0.0517(2)
N12_5 N 0.1331(2) 0.3017(2) 0.2902(2)
C81_5 C 0.1368(2) 0.4891(3) 0.0395(3)
C83_5 C 0.1132(2) 0.2895(3) 0.2609(3)
C86_5 C 0.0538(3) 0.3826(2) 0.0804(2)
C88_5 C 0.1962(3) 0.3304(2) 0.3674(2)
H38_5 H 0.0449 0.3815 0.1027
H40_5 H 0.2051 0.3527 0.3685
N15_5 N 0.1095(3) 0.4395(2) 0.0283(2)
N17_5 N 0.1405(3) 0.2783(2) 0.3105(2)
C91_5 C 0.1747(3) 0.5336(2) 0.0583(2)
C93_5 C 0.0753(3) 0.3083(2) 0.2164(2)
H43_5 H 0.1863 0.5446 0.0763
H45_5 H 0.0637 0.3263 0.2054
C96_5 C 0.1419(3) 0.4992(3) 0.0063(3)
C98_5 C 0.1081(3) 0.2563(3) 0.2508(3)
H50_5 H 0.1192 0.2384 0.2622
C101_5 C 0.1521(3) 0.5066(3) 0.0650(3)
C103_5 C 0.0979(3) 0.3150(3) 0.2434(3)
H53_5 H 0.1476 0.5005 0.0878
H55_5 H 0.1024 0.3378 0.2495
C106_5 C 0.0652(3) 0.3570(2) 0.0261(3)
C108_5 C 0.1848(3) 0.2761(3) 0.3930(2)
H58_5 H 0.0641 0.3385 0.0109
H60_5 H 0.1859 0.2609 0.4115
C111_5 C 0.0719(3) 0.4113(2) 0.0696(3)
C113_5 C 0.1781(3) 0.3196(3) 0.3387(2)
H63_5 H 0.0726 0.4305 0.0839
H65_5 H 0.1774 0.3339 0.3195
C116_5 C 0.0828(3) 0.3864(3) 0.0180(3)
C118_5 C 0.1672(3) 0.2680(3) 0.3636(3)
H70_5 H 0.1584 0.2458 0.3617
O8_13 O -0.0000 0.2500 0.99676(17)
O10_8 O 0.2500 0.64726(13) 1.0000
O51_5 O 0.27648(12) 0.70173(12) 0.95020(12)
O52_5 O 0.20525(12) 0.58219(11) 0.98559(11)
O61_8 O 0.2500 0.75324(17) 1.0000
C76_5 C 0.1635(3) 0.5261(2) 0.9995(2)
H33_5 H 0.1671 0.5324 0.9766
H48_5 H 0.1308 0.4878 0.9884
H68_5 H 0.0916 0.3883 0.9958
O6_9 O 0.97352(12) 0.20020(12) 0.04827(12)
C3_9 C 0.97226(17) 0.17477(15) 0.06860(17)
C4_9 C 0.95108(18) 0.14425(18) 0.05821(19)
C11_9 C 0.9116(3) 0.0875(2) 0.0395(3)
N2_9 N 0.8831(2) 0.0402(2) 0.0517(2)
C13_9 C 0.8632(2) 0.0109(3) 0.0395(3)
C14_9 C 0.9462(3) 0.1174(2) 0.0804(2)
H6_9 H 0.9551 0.1185 0.1027
N3_9 N 0.8905(3) 0.0605(2) 0.0283(2)
C16_9 C 0.8581(3) 0.0008(3) 0.0063(3)
C18_9 C 0.9348(3) 0.1430(2) 0.0261(3)
H10_9 H 0.9359 0.1615 0.0109
C19_9 C 0.9281(3) 0.0887(2) 0.0696(3)
H11_9 H 0.9274 0.0695 0.0839
C20_9 C 0.9172(3) 0.1136(3) 0.0180(3)
In18_3 In 0.735258(9) 0.120081(9) 0.457622(9)
O22_5 O 0.76218(12) 0.15317(12) 0.42224(11)
O45_3 O 0.77648(12) 0.20173(12) 0.45020(12)
C32_9 C 0.77774(17) 0.18140(17) 0.42477(15)
C37_9 C 0.79892(18) 0.19179(19) 0.39425(18)
C47_9 C 0.95387(15) 0.23319(14) 0.17733(15)
C67_9 C 0.92977(19) 0.2255(2) 0.20600(19)
C72_9 C 0.8384(3) 0.2105(3) 0.3375(2)
C77_9 C 0.9135(3) 0.2505(2) 0.2239(2)
H34_9 H 0.9171 0.2734 0.2176
N11_9 N 0.8669(2) 0.1983(2) 0.2902(2)
C82_9 C 0.8868(2) 0.2105(3) 0.2609(3)
C87_9 C 0.8038(3) 0.1696(2) 0.3674(2)
H39_9 H 0.7949 0.1473 0.3685
N16_9 N 0.8595(3) 0.2217(2) 0.3105(2)
C92_9 C 0.9247(3) 0.1917(2) 0.2164(2)
H44_9 H 0.9363 0.1737 0.2054
C97_9 C 0.8919(3) 0.2437(3) 0.2508(3)
H49_9 H 0.8808 0.2616 0.2622
H52_5 H 0.6308 0.0122 0.0116
C102_9 C 0.9021(3) 0.1850(3) 0.2434(3)
H54_9 H 0.8976 0.1622 0.2495
C107_9 C 0.8152(3) 0.2239(3) 0.3930(2)
H59_9 H 0.8141 0.2391 0.4115
C112_9 C 0.8219(3) 0.1804(3) 0.3387(2)
H64_9 H 0.8226 0.1661 0.3195
C117_9 C 0.8328(3) 0.2320(3) 0.3636(3)
H69_9 H 0.8416 0.2542 0.3617
H72_5 H 0.5916 0.1117 0.0042
O8_14 O 1.0000 0.2500 0.99676(17)
H8_9 H 0.8692 0.0122 0.9884
H12_9 H 0.9084 0.1117 0.9958
O48_5 O 0.52648(12) 0.20020(12) 0.95173(12)
C35_5 C 0.52774(17) 0.17477(15) 0.93140(17)
C40_5 C 0.54892(18) 0.14425(18) 0.94179(19)
C75_5 C 0.5884(3) 0.0875(2) 0.9605(3)
N14_5 N 0.6169(2) 0.0402(2) 0.9483(2)
C85_5 C 0.6368(2) 0.0109(3) 0.9605(3)
C90_5 C 0.5538(3) 0.1174(2) 0.9196(2)
H42_5 H 0.5449 0.1185 0.8973
N19_5 N 0.6095(3) 0.0605(2) 0.9717(2)
C100_5 C 0.6419(3) 0.0008(3) 0.9937(3)
C110_5 C 0.5652(3) 0.1430(2) 0.9739(3)
H62_5 H 0.5641 0.1615 0.9891
C115_5 C 0.5719(3) 0.0887(2) 0.9304(3)
H67_5 H 0.5726 0.0695 0.9161
C120_5 C 0.5828(3) 0.1136(3) 0.9820(3)
O5_9 O 0.77922(11) 0.91480(12) 0.04120(12)
C6_9 C 0.79613(15) 0.92733(15) 0.01681(14)
C10_9 C 0.82023(19) 0.95600(19) 0.0245(2)
C15_9 C 0.8253(3) 0.9664(2) 0.0583(2)
H7_9 H 0.8137 0.9554 0.0763
C17_9 C 0.8479(3) 0.9934(3) 0.0650(3)
H9_9 H 0.8524 0.9995 0.0878
O9_7 O 0.7500 0.85274(13) 0.0000
O24_5 O 0.76218(12) 0.84683(12) 0.07776(11)
O47_3 O 0.77648(12) 0.79827(12) 0.04980(12)
O56_5 O 0.70525(12) 0.91781(11) 0.01441(11)
C34_5 C 0.77774(17) 0.81860(17) 0.07523(15)
C39_5 C 0.79892(18) 0.80821(19) 0.10575(18)
C49_5 C 0.95387(15) 0.76681(14) 0.32267(15)
O60_7 O 0.7500 0.74676(17) 0.0000
C69_5 C 0.92977(19) 0.7745(2) 0.29400(19)
C74_5 C 0.8384(3) 0.7895(3) 0.1625(2)
C79_5 C 0.9135(3) 0.7495(2) 0.2761(2)
C80_5 C 0.6635(3) 0.9739(2) 0.0005(2)
H36_5 H 0.9171 0.7266 0.2824
H37_5 H 0.6671 0.9676 0.0234
N13_5 N 0.8669(2) 0.8017(2) 0.2098(2)
C84_5 C 0.8868(2) 0.7895(3) 0.2391(3)
C89_5 C 0.8038(3) 0.8304(2) 0.1326(2)
H41_5 H 0.7949 0.8527 0.1315
N18_5 N 0.8595(3) 0.7783(2) 0.1895(2)
C94_5 C 0.9247(3) 0.8083(2) 0.2836(2)
H46_5 H 0.9363 0.8263 0.2946
C99_5 C 0.8919(3) 0.7563(3) 0.2492(3)
H51_5 H 0.8808 0.7384 0.2378
C104_5 C 0.9021(3) 0.8150(3) 0.2566(3)
H56_5 H 0.8976 0.8378 0.2505
C109_5 C 0.8152(3) 0.7761(3) 0.1070(2)
H61_5 H 0.8141 0.7609 0.0885
C114_5 C 0.8219(3) 0.8196(3) 0.1613(2)
H66_5 H 0.8226 0.8339 0.1805
C119_5 C 0.8328(3) 0.7680(3) 0.1364(3)
H71_5 H 0.8416 0.7458 0.1383
O7_5 O 0.79475(12) 0.91781(11) 0.98559(11)
C12_9 C 0.8365(3) 0.9739(2) 0.9995(2)
H5_9 H 0.8329 0.9676 0.9766
In16_5 In 0.764742(9) 0.879919(9) 0.957622(9)
O9_8 O 0.7500 0.85274(13) 1.0000
O18_5 O 0.79952(11) 0.79732(11) 0.97200(11)
O41_5 O 0.72078(11) 0.91480(12) 0.95880(12)
O49_5 O 0.72352(12) 0.79827(12) 0.95020(12)
C50_5 C 0.70387(15) 0.92733(15) 0.98319(14)
O60_8 O 0.7500 0.74676(17) 1.0000
C70_5 C 0.67977(19) 0.95600(19) 0.9755(2)
C95_5 C 0.6747(3) 0.9664(2) 0.9417(2)
H47_5 H 0.6863 0.9554 0.9237
C105_5 C 0.6521(3) 0.9934(3) 0.9350(3)
H57_5 H 0.6476 0.9995 0.9122
O5_10 O 0.22078(11) 0.41480(12) 0.45880(12)
O6_10 O 0.02648(12) 0.70020(12) 0.45173(12)
O7_6 O 0.20525(12) 0.41781(11) 0.51441(11)
C3_10 C 0.02774(17) 0.67477(15) 0.43140(17)
C4_10 C 0.04892(18) 0.64425(18) 0.44179(19)
C6_10 C 0.20387(15) 0.42733(15) 0.48319(14)
O8_15 O -0.0000 0.7500 0.50324(17)
C10_10 C 0.17977(19) 0.45600(19) 0.4755(2)
C11_10 C 0.0884(3) 0.5875(2) 0.4605(3)
C12_10 C 0.1635(3) 0.4739(2) 0.5005(2)
H5_10 H 0.1671 0.4676 0.5234
N2_10 N 0.1169(2) 0.5402(2) 0.4483(2)
C13_10 C 0.1368(2) 0.5109(3) 0.4605(3)
C14_10 C 0.0538(3) 0.6174(2) 0.4196(2)
H6_10 H 0.0449 0.6185 0.3973
N3_10 N 0.1095(3) 0.5605(2) 0.4717(2)
C15_10 C 0.1747(3) 0.4664(2) 0.4417(2)
H7_10 H 0.1863 0.4554 0.4237
C16_10 C 0.1419(3) 0.5008(3) 0.4937(3)
H8_10 H 0.1308 0.5122 0.5116
C17_10 C 0.1521(3) 0.4934(3) 0.4350(3)
H9_10 H 0.1476 0.4995 0.4122
C18_10 C 0.0652(3) 0.6430(2) 0.4739(3)
H10_10 H 0.0641 0.6615 0.4891
C19_10 C 0.0719(3) 0.5887(2) 0.4304(3)
H11_10 H 0.0726 0.5695 0.4161
C20_10 C 0.0828(3) 0.6136(3) 0.4820(3)
H12_10 H 0.0916 0.6117 0.5042
In16_6 In 0.235258(9) 0.379919(9) 0.542378(9)
O9_9 O 0.2500 0.35274(13) 0.5000
O18_6 O 0.20048(11) 0.29732(11) 0.52800(11)
O41_6 O 0.27922(11) 0.41480(12) 0.54120(12)
O48_6 O 0.47352(12) 0.70020(12) 0.54827(12)
O49_6 O 0.27648(12) 0.29827(12) 0.54980(12)
O56_6 O 0.29475(12) 0.41781(11) 0.48559(11)
C32_10 C 0.22226(17) 0.68140(17) 0.07523(15)
C35_6 C 0.47226(17) 0.67477(15) 0.56860(17)
C37_10 C 0.20108(18) 0.69179(19) 0.10575(18)
C40_6 C 0.45108(18) 0.64425(18) 0.55821(19)
C47_10 C 0.04613(15) 0.73319(14) 0.32267(15)
C50_6 C 0.29613(15) 0.42733(15) 0.51681(14)
O60_9 O 0.2500 0.24676(17) 0.5000
C67_10 C 0.07023(19) 0.7255(2) 0.29400(19)
C70_6 C 0.32023(19) 0.45600(19) 0.5245(2)
C72_10 C 0.1616(3) 0.7105(3) 0.1625(2)
C75_6 C 0.4116(3) 0.5875(2) 0.5395(3)
C77_10 C 0.0865(3) 0.7505(2) 0.2761(2)
C80_6 C 0.3365(3) 0.4739(2) 0.4995(2)
H34_10 H 0.0829 0.7734 0.2824
H37_6 H 0.3329 0.4676 0.4766
N11_10 N 0.1331(2) 0.6983(2) 0.2098(2)
N14_6 N 0.3831(2) 0.5402(2) 0.5517(2)
C82_10 C 0.1132(2) 0.7105(3) 0.2391(3)
C85_6 C 0.3632(2) 0.5109(3) 0.5395(3)
C87_10 C 0.1962(3) 0.6696(2) 0.1326(2)
C90_6 C 0.4462(3) 0.6174(2) 0.5804(2)
H39_10 H 0.2051 0.6473 0.1315
H42_6 H 0.4551 0.6185 0.6027
N16_10 N 0.1405(3) 0.7217(2) 0.1895(2)
N19_6 N 0.3905(3) 0.5605(2) 0.5283(2)
C92_10 C 0.0753(3) 0.6917(2) 0.2836(2)
C95_6 C 0.3253(3) 0.4664(2) 0.5583(2)
H44_10 H 0.0637 0.6737 0.2946
H47_6 H 0.3137 0.4554 0.5763
C97_10 C 0.1081(3) 0.7437(3) 0.2492(3)
C100_6 C 0.3581(3) 0.5008(3) 0.5063(3)
H49_10 H 0.1192 0.7616 0.2378
H52_6 H 0.3692 0.5122 0.4884
C102_10 C 0.0979(3) 0.6850(3) 0.2566(3)
C105_6 C 0.3479(3) 0.4934(3) 0.5650(3)
H54_10 H 0.1024 0.6622 0.2505
H57_6 H 0.3524 0.4995 0.5878
C107_10 C 0.1848(3) 0.7239(3) 0.1070(2)
C110_6 C 0.4348(3) 0.6430(2) 0.5261(3)
H59_10 H 0.1859 0.7391 0.0885
H62_6 H 0.4359 0.6615 0.5109
C112_10 C 0.1781(3) 0.6804(3) 0.1613(2)
C115_6 C 0.4281(3) 0.5887(2) 0.5696(3)
H64_10 H 0.1774 0.6661 0.1805
H67_6 H 0.4274 0.5695 0.5839
C117_10 C 0.1672(3) 0.7320(3) 0.1364(3)
C120_6 C 0.4172(3) 0.6136(3) 0.5180(3)
H69_10 H 0.1584 0.7542 0.1383
H72_6 H 0.4084 0.6117 0.4958
O10_9 O 0.7500 0.14726(13) 0.5000
O19_6 O 0.70048(11) 0.20268(11) 0.47200(11)
O34_10 O 0.68790(10) 0.15006(12) 0.45111(12)
O37_6 O 0.77922(11) 0.08520(12) 0.45880(12)
N9_10 N 0.71802(13) 0.09138(13) 0.41067(12)
O51_6 O 0.72352(12) 0.20173(12) 0.54980(12)
O52_6 O 0.79475(12) 0.08219(11) 0.51441(11)
O57_6 O 0.70525(12) 0.08219(11) 0.48559(11)
C46_6 C 0.79613(15) 0.07267(15) 0.48319(14)
O61_9 O 0.7500 0.25324(17) 0.5000
C66_6 C 0.82023(19) 0.04400(19) 0.4755(2)
C76_6 C 0.8365(3) 0.0261(2) 0.5005(2)
H33_6 H 0.8329 0.0324 0.5234
C91_6 C 0.8253(3) 0.0336(2) 0.4417(2)
H43_6 H 0.8137 0.0446 0.4237
C101_6 C 0.8479(3) 0.0066(3) 0.4350(3)
H53_6 H 0.8524 0.0005 0.4122
O8_16 O 1.0000 0.7500 0.50324(17)
O44_6 O 0.97352(12) 0.79980(12) 0.45173(12)
C31_6 C 0.97226(17) 0.82523(15) 0.43140(17)
C36_6 C 0.95108(18) 0.85575(18) 0.44179(19)
C71_6 C 0.9116(3) 0.9125(2) 0.4605(3)
N10_6 N 0.8831(2) 0.9598(2) 0.4483(2)
C81_6 C 0.8632(2) 0.9891(3) 0.4605(3)
C86_6 C 0.9462(3) 0.8826(2) 0.4196(2)
H38_6 H 0.9551 0.8815 0.3973
N15_6 N 0.8905(3) 0.9395(2) 0.4717(2)
C96_6 C 0.8581(3) 0.9992(3) 0.4937(3)
H48_6 H 0.8692 0.9878 0.5116
C106_6 C 0.9348(3) 0.8570(2) 0.4739(3)
H58_6 H 0.9359 0.8385 0.4891
C111_6 C 0.9281(3) 0.9113(2) 0.4304(3)
H63_6 H 0.9274 0.9305 0.4161
C116_6 C 0.9172(3) 0.8864(3) 0.4820(3)
H68_6 H 0.9084 0.8883 0.5042
O8_17 O 0.5000 0.2500 0.00324(17)
C12_11 C 0.3365(3) 0.5261(2) 0.0005(2)
H5_11 H 0.3329 0.5324 0.0234
H8_11 H 0.3692 0.4878 0.0116
H12_11 H 0.4084 0.3883 0.0042
O5_11 O 0.27922(11) 0.58520(12) 0.95880(12)
O6_11 O 0.47352(12) 0.29980(12) 0.95173(12)
C3_11 C 0.47226(17) 0.32523(15) 0.93140(17)
C4_11 C 0.45108(18) 0.35575(18) 0.94179(19)
C6_11 C 0.29613(15) 0.57267(15) 0.98319(14)
C10_11 C 0.32023(19) 0.54400(19) 0.9755(2)
C11_11 C 0.4116(3) 0.4125(2) 0.9605(3)
N2_11 N 0.3831(2) 0.4598(2) 0.9483(2)
C13_11 C 0.3632(2) 0.4891(3) 0.9605(3)
C14_11 C 0.4462(3) 0.3826(2) 0.9196(2)
H6_11 H 0.4551 0.3815 0.8973
N3_11 N 0.3905(3) 0.4395(2) 0.9717(2)
C15_11 C 0.3253(3) 0.5336(2) 0.9417(2)
H7_11 H 0.3137 0.5446 0.9237
C16_11 C 0.3581(3) 0.4992(3) 0.9937(3)
C17_11 C 0.3479(3) 0.5066(3) 0.9350(3)
H9_11 H 0.3524 0.5005 0.9122
C18_11 C 0.4348(3) 0.3570(2) 0.9739(3)
H10_11 H 0.4359 0.3385 0.9891
C19_11 C 0.4281(3) 0.4113(2) 0.9304(3)
H11_11 H 0.4274 0.4305 0.9161
C20_11 C 0.4172(3) 0.3864(3) 0.9820(3)
O22_6 O 0.26218(12) 0.34683(12) 0.57776(11)
O23_6 O 0.73782(12) 0.15317(12) 0.57776(11)
O24_6 O 0.26218(12) 0.65317(12) 0.92224(11)
C32_11 C 0.27774(17) 0.31860(17) 0.57523(15)
C33_6 C 0.72226(17) 0.18140(17) 0.57523(15)
C34_6 C 0.27774(17) 0.68140(17) 0.92477(15)
C37_11 C 0.29892(18) 0.30821(19) 0.60575(18)
C38_6 C 0.70108(18) 0.19179(19) 0.60575(18)
C39_6 C 0.29892(18) 0.69179(19) 0.89425(18)
C47_11 C 0.45387(15) 0.26681(14) 0.82267(15)
C48_6 C 0.54613(15) 0.23319(14) 0.82267(15)
C49_6 C 0.45387(15) 0.73319(14) 0.67733(15)
C67_11 C 0.42977(19) 0.2745(2) 0.79400(19)
C68_6 C 0.57023(19) 0.2255(2) 0.79400(19)
C69_6 C 0.42977(19) 0.7255(2) 0.70600(19)
C72_11 C 0.3384(3) 0.2895(3) 0.6625(2)
C73_6 C 0.6616(3) 0.2105(3) 0.6625(2)
C74_6 C 0.3384(3) 0.7105(3) 0.8375(2)
C77_11 C 0.4135(3) 0.2495(2) 0.7761(2)
C78_6 C 0.5865(3) 0.2505(2) 0.7761(2)
C79_6 C 0.4135(3) 0.7505(2) 0.7239(2)
H34_11 H 0.4171 0.2266 0.7824
H35_6 H 0.5829 0.2734 0.7824
H36_6 H 0.4171 0.7734 0.7176
N11_11 N 0.3669(2) 0.3017(2) 0.7098(2)
N12_6 N 0.6331(2) 0.1983(2) 0.7098(2)
N13_6 N 0.3669(2) 0.6983(2) 0.7902(2)
C82_11 C 0.3868(2) 0.2895(3) 0.7391(3)
C83_6 C 0.6132(2) 0.2105(3) 0.7391(3)
C84_6 C 0.3868(2) 0.7105(3) 0.7609(3)
C87_11 C 0.3038(3) 0.3304(2) 0.6326(2)
C88_6 C 0.6962(3) 0.1696(2) 0.6326(2)
C89_6 C 0.3038(3) 0.6696(2) 0.8674(2)
H39_11 H 0.2949 0.3527 0.6315
H40_6 H 0.7051 0.1473 0.6315
H41_6 H 0.2949 0.6473 0.8685
N16_11 N 0.3595(3) 0.2783(2) 0.6895(2)
N17_6 N 0.6405(3) 0.2217(2) 0.6895(2)
N18_6 N 0.3595(3) 0.7217(2) 0.8105(2)
C92_11 C 0.4247(3) 0.3083(2) 0.7836(2)
C93_6 C 0.5753(3) 0.1917(2) 0.7836(2)
C94_6 C 0.4247(3) 0.6917(2) 0.7164(2)
H44_11 H 0.4363 0.3263 0.7946
H45_6 H 0.5637 0.1737 0.7946
H46_6 H 0.4363 0.6737 0.7054
C97_11 C 0.3919(3) 0.2563(3) 0.7492(3)
C98_6 C 0.6081(3) 0.2437(3) 0.7492(3)
C99_6 C 0.3919(3) 0.7437(3) 0.7508(3)
H49_11 H 0.3808 0.2384 0.7378
H50_6 H 0.6192 0.2616 0.7378
H51_6 H 0.3808 0.7616 0.7622
C102_11 C 0.4021(3) 0.3150(3) 0.7566(3)
C103_6 C 0.5979(3) 0.1850(3) 0.7566(3)
C104_6 C 0.4021(3) 0.6850(3) 0.7434(3)
H54_11 H 0.3976 0.3378 0.7505
H55_6 H 0.6024 0.1622 0.7505
H56_6 H 0.3976 0.6622 0.7495
C107_11 C 0.3152(3) 0.2761(3) 0.6070(2)
C108_6 C 0.6848(3) 0.2239(3) 0.6070(2)
C109_6 C 0.3152(3) 0.7239(3) 0.8930(2)
H59_11 H 0.3141 0.2609 0.5885
H60_6 H 0.6859 0.2391 0.5885
H61_6 H 0.3141 0.7391 0.9115
C112_11 C 0.3219(3) 0.3196(3) 0.6613(2)
C113_6 C 0.6781(3) 0.1804(3) 0.6613(2)
C114_6 C 0.3219(3) 0.6804(3) 0.8387(2)
H64_11 H 0.3226 0.3339 0.6805
H65_6 H 0.6774 0.1661 0.6805
H66_6 H 0.3226 0.6661 0.8195
C117_11 C 0.3328(3) 0.2680(3) 0.6364(3)
C118_6 C 0.6672(3) 0.2320(3) 0.6364(3)
C119_6 C 0.3328(3) 0.7320(3) 0.8636(3)
H69_11 H 0.3416 0.2458 0.6383
H70_6 H 0.6584 0.2542 0.6383
H71_6 H 0.3416 0.7542 0.8617
O26_6 O 0.73782(12) 0.84683(12) 0.92224(11)
O34_11 O 0.81210(10) 0.84994(12) 0.95111(12)
N9_11 N 0.78198(13) 0.90862(13) 0.91067(12)
O5_12 O 0.72078(11) 0.08520(12) 0.54120(12)
C6_12 C 0.70387(15) 0.07267(15) 0.51681(14)
C10_12 C 0.67977(19) 0.04400(19) 0.5245(2)
C12_12 C 0.6635(3) 0.0261(2) 0.4995(2)
H5_12 H 0.6671 0.0324 0.4766
C15_12 C 0.6747(3) 0.0336(2) 0.5583(2)
H7_12 H 0.6863 0.0446 0.5763
C17_12 C 0.6521(3) 0.0066(3) 0.5650(3)
H9_12 H 0.6476 0.0005 0.5878
O6_12 O 0.52648(12) 0.79980(12) 0.54827(12)
C3_12 C 0.52774(17) 0.82523(15) 0.56860(17)
C4_12 C 0.54892(18) 0.85575(18) 0.55821(19)
O8_18 O 0.5000 0.7500 0.49676(17)
C11_12 C 0.5884(3) 0.9125(2) 0.5395(3)
N2_12 N 0.6169(2) 0.9598(2) 0.5517(2)
C13_12 C 0.6368(2) 0.9891(3) 0.5395(3)
C14_12 C 0.5538(3) 0.8826(2) 0.5804(2)
H6_12 H 0.5449 0.8815 0.6027
N3_12 N 0.6095(3) 0.9395(2) 0.5283(2)
C16_12 C 0.6419(3) 0.9992(3) 0.5063(3)
H8_12 H 0.6308 0.9878 0.4884
C18_12 C 0.5652(3) 0.8570(2) 0.5261(3)
H10_12 H 0.5641 0.8385 0.5109
C19_12 C 0.5719(3) 0.9113(2) 0.5696(3)
H11_12 H 0.5726 0.9305 0.5839
C20_12 C 0.5828(3) 0.8864(3) 0.5180(3)
H12_12 H 0.5916 0.8883 0.4958
O34_12 O 0.18790(10) 0.34994(12) 0.54889(12)
N9_12 N 0.21802(13) 0.40862(13) 0.58933(12)
C32_12 C 0.72226(17) 0.81860(17) 0.92477(15)
C37_12 C 0.70108(18) 0.80821(19) 0.89425(18)
C47_12 C 0.54613(15) 0.76681(14) 0.67733(15)
C67_12 C 0.57023(19) 0.7745(2) 0.70600(19)
C72_12 C 0.6616(3) 0.7895(3) 0.8375(2)
C77_12 C 0.5865(3) 0.7495(2) 0.7239(2)
H34_12 H 0.5829 0.7266 0.7176
N11_12 N 0.6331(2) 0.8017(2) 0.7902(2)
C82_12 C 0.6132(2) 0.7895(3) 0.7609(3)
C87_12 C 0.6962(3) 0.8304(2) 0.8674(2)
H39_12 H 0.7051 0.8527 0.8685
N16_12 N 0.6405(3) 0.7783(2) 0.8105(2)
C92_12 C 0.5753(3) 0.8083(2) 0.7164(2)
H44_12 H 0.5637 0.8263 0.7054
C97_12 C 0.6081(3) 0.7563(3) 0.7508(3)
H49_12 H 0.6192 0.7384 0.7622
C102_12 C 0.5979(3) 0.8150(3) 0.7434(3)
H54_12 H 0.6024 0.8378 0.7495
C107_12 C 0.6848(3) 0.7761(3) 0.8930(2)
H59_12 H 0.6859 0.7609 0.9115
C112_12 C 0.6781(3) 0.8196(3) 0.8387(2)
H64_12 H 0.6774 0.8339 0.8195
C117_12 C 0.6672(3) 0.7680(3) 0.8636(3)
H69_12 H 0.6584 0.7458 0.8617
C21_5 C 0.12406(16) 0.32828(17) 0.57025(16)
C23_9 C 0.17172(17) 0.42975(16) 0.62406(16)
H13_5 H 0.1270 0.3519 0.5671
H15_9 H 0.1481 0.4329 0.6270
C26_5 C 0.14329(16) 0.27073(17) 0.56542(16)
C28_9 C 0.22927(17) 0.43458(16) 0.64329(16)
H18_5 H 0.1598 0.2546 0.5589
H20_9 H 0.2454 0.4411 0.6598
C41_5 C 0.14897(15) 0.30583(15) 0.55966(14)
C43_9 C 0.19417(15) 0.44034(14) 0.64897(15)
C51_5 C 0.11340(15) 0.26022(18) 0.58063(16)
C53_9 C 0.23978(18) 0.41937(16) 0.61340(15)
H23_5 H 0.1097 0.2367 0.5836
H25_9 H 0.2633 0.4164 0.6097
C56_5 C 0.18173(15) 0.31850(15) 0.54388(15)
C58_9 C 0.18150(15) 0.45612(15) 0.68173(15)
C61_5 C 0.09441(16) 0.31579(18) 0.58562(16)
C63_9 C 0.18421(18) 0.41438(16) 0.59441(16)
H28_5 H 0.0774 0.3313 0.5922
H30_9 H 0.1687 0.4078 0.5774
C21_6 C 0.37594(16) 0.67172(17) 0.07025(16)
C23_10 C 0.32828(17) 0.57025(16) 0.12406(16)
H13_6 H 0.3730 0.6481 0.0671
H15_10 H 0.3519 0.5671 0.1270
C26_6 C 0.35671(16) 0.72927(17) 0.06542(16)
C28_10 C 0.27073(17) 0.56542(16) 0.14329(16)
H18_6 H 0.3402 0.7454 0.0589
H20_10 H 0.2546 0.5589 0.1598
C41_6 C 0.35103(15) 0.69417(15) 0.05966(14)
C43_10 C 0.30583(15) 0.55966(14) 0.14897(15)
C51_6 C 0.38660(15) 0.73978(18) 0.08063(16)
C53_10 C 0.26022(18) 0.58063(16) 0.11340(15)
H23_6 H 0.3903 0.7633 0.0836
H25_10 H 0.2367 0.5836 0.1097
C56_6 C 0.31827(15) 0.68150(15) 0.04388(15)
C58_10 C 0.31850(15) 0.54388(15) 0.18173(15)
C61_6 C 0.40559(16) 0.68421(18) 0.08562(16)
C63_10 C 0.31579(18) 0.58562(16) 0.09441(16)
H28_6 H 0.4226 0.6687 0.0922
H30_10 H 0.3313 0.5922 0.0774
C21_7 C 0.62406(16) 0.17172(17) 0.42975(16)
C23_11 C 0.67172(17) 0.07025(16) 0.37594(16)
H13_7 H 0.6270 0.1481 0.4329
H15_11 H 0.6481 0.0671 0.3730
C26_7 C 0.64329(16) 0.22927(17) 0.43458(16)
C28_11 C 0.72927(17) 0.06542(16) 0.35671(16)
H18_7 H 0.6598 0.2454 0.4411
H20_11 H 0.7454 0.0589 0.3402
C41_7 C 0.64897(15) 0.19417(15) 0.44034(14)
C43_11 C 0.69417(15) 0.05966(14) 0.35103(15)
C51_7 C 0.61340(15) 0.23978(18) 0.41937(16)
C53_11 C 0.73978(18) 0.08063(16) 0.38660(15)
H23_7 H 0.6097 0.2633 0.4164
H25_11 H 0.7633 0.0836 0.3903
C56_7 C 0.68173(15) 0.18150(15) 0.45612(15)
C58_11 C 0.68150(15) 0.04388(15) 0.31827(15)
C61_7 C 0.59441(16) 0.18421(18) 0.41438(16)
C63_11 C 0.68421(18) 0.08562(16) 0.40559(16)
H28_7 H 0.5774 0.1687 0.4078
H30_11 H 0.6687 0.0922 0.4226
C21_8 C 0.87594(16) 0.82828(17) 0.92975(16)
C23_12 C 0.82828(17) 0.92975(16) 0.87594(16)
H13_8 H 0.8730 0.8519 0.9329
H15_12 H 0.8519 0.9329 0.8730
C26_8 C 0.85671(16) 0.77073(17) 0.93458(16)
C28_12 C 0.77073(17) 0.93458(16) 0.85671(16)
H18_8 H 0.8402 0.7546 0.9411
H20_12 H 0.7546 0.9411 0.8402
C41_8 C 0.85103(15) 0.80583(15) 0.94034(14)
C43_12 C 0.80583(15) 0.94034(14) 0.85103(15)
C51_8 C 0.88660(15) 0.76022(18) 0.91937(16)
C53_12 C 0.76022(18) 0.91937(16) 0.88660(15)
H23_8 H 0.8903 0.7367 0.9164
H25_12 H 0.7367 0.9164 0.8903
C56_8 C 0.81827(15) 0.81850(15) 0.95612(15)
C58_12 C 0.81850(15) 0.95612(15) 0.81827(15)
C61_8 C 0.90559(16) 0.81579(18) 0.91438(16)
C63_12 C 0.81579(18) 0.91438(16) 0.90559(16)
H28_8 H 0.9226 0.8313 0.9078
H30_12 H 0.8313 0.9078 0.9226
C23_13 C 0.42975(16) 0.62406(16) 0.17172(17)
H15_13 H 0.4329 0.6270 0.1481
C28_13 C 0.43458(16) 0.64329(16) 0.22927(17)
H20_13 H 0.4411 0.6598 0.2454
C43_13 C 0.44034(14) 0.64897(15) 0.19417(15)
C53_13 C 0.41937(16) 0.61340(15) 0.23978(18)
H25_13 H 0.4164 0.6097 0.2633
C58_13 C 0.45612(15) 0.68173(15) 0.18150(15)
C63_13 C 0.41438(16) 0.59441(16) 0.18421(18)
H30_13 H 0.4078 0.5774 0.1687
C23_14 C 0.57025(16) 0.12406(16) 0.32828(17)
H15_14 H 0.5671 0.1270 0.3519
C28_14 C 0.56542(16) 0.14329(16) 0.27073(17)
H20_14 H 0.5589 0.1598 0.2546
C43_14 C 0.55966(14) 0.14897(15) 0.30583(15)
C53_14 C 0.58063(16) 0.11340(15) 0.26022(18)
H25_14 H 0.5836 0.1097 0.2367
C58_14 C 0.54388(15) 0.18173(15) 0.31850(15)
C63_14 C 0.58562(16) 0.09441(16) 0.31579(18)
H30_14 H 0.5922 0.0774 0.3313
C23_15 C 0.07025(16) 0.37594(16) 0.67172(17)
H15_15 H 0.0671 0.3730 0.6481
C28_15 C 0.06542(16) 0.35671(16) 0.72927(17)
H20_15 H 0.0589 0.3402 0.7454
C43_15 C 0.05966(14) 0.35103(15) 0.69417(15)
C53_15 C 0.08063(16) 0.38660(15) 0.73978(18)
H25_15 H 0.0836 0.3903 0.7633
C58_15 C 0.04388(15) 0.31827(15) 0.68150(15)
C63_15 C 0.08562(16) 0.40559(16) 0.68421(18)
H30_15 H 0.0922 0.4226 0.6687
C23_16 C 0.92975(16) 0.87594(16) 0.82828(17)
H15_16 H 0.9329 0.8730 0.8519
C28_16 C 0.93458(16) 0.85671(16) 0.77073(17)
H20_16 H 0.9411 0.8402 0.7546
C43_16 C 0.94034(14) 0.85103(15) 0.80583(15)
C53_16 C 0.91937(16) 0.88660(15) 0.76022(18)
H25_16 H 0.9164 0.8903 0.7367
C58_16 C 0.95612(15) 0.81827(15) 0.81850(15)
C63_16 C 0.91438(16) 0.90559(16) 0.81579(18)
H30_16 H 0.9078 0.9226 0.8313
loop_
_geom_bond_atom_site_label_1
_geom_bond_atom_site_label_2
_geom_bond_site_symmetry_1
_geom_bond_site_symmetry_2
In1 O1 1_555 1_555
In2 O1 1_555 1_555
O2 In1 1_555 1_555
O4 In2 1_555 1_555
N1 C7 1_555 1_555
C1 H1 1_555 1_555
C2 H2 1_555 1_555
C5 C1 1_555 1_555
C7 C2 1_555 1_555
C8 O2 1_555 1_555
C9 N1 1_555 1_555
H4 C9 1_555 1_555
In4 O10 1_555 1_555
In6 O14 1_555 1_555
In7 O46 1_555 1_555
In13 O10 1_555 1_555
In14 N1 1_555 1_555
In19 O30 1_555 1_555
In20 O23 1_555 1_555
O11 In14 1_555 1_555
O14 C57 1_555 1_555
O19 In4 1_555 1_555
O21 C31 1_555 1_555
O23 C33 1_555 1_555
O26 In13 1_555 1_555
O30 C57 1_555 1_555
O34 In13 1_555 1_555
O35 In14 1_555 1_555
O37 In13 1_555 1_555
N5 In2 1_555 1_555
N9 In13 1_555 1_555
O44 In1 1_555 1_555
O46 C33 1_555 1_555
O50 In4 1_555 1_555
C22 H14 1_555 1_555
C27 H19 1_555 1_555
O54 In2 1_555 1_555
O57 In13 1_555 1_555
O58 In14 1_555 1_555
C31 O44 1_555 1_555
C33 C38 1_555 1_555
C36 C31 1_555 1_555
C38 C88 1_555 1_555
C42 C22 1_555 1_555
C46 O37 1_555 1_555
C48 O39 1_555 1_555
C52 N5 1_555 1_555
O61 In4 1_555 1_555
C57 C42 1_555 1_555
C62 N5 1_555 1_555
H29 C62 1_555 1_555
C66 C46 1_555 1_555
C68 C48 1_555 1_555
C71 N15 1_555 1_555
C73 N17 1_555 1_555
C78 C68 1_555 1_555
H35 C78 1_555 1_555
N10 C81 1_555 1_555
N12 C83 1_555 1_555
C81 C96 1_555 1_555
C83 C98 1_555 1_555
C86 C36 1_555 1_555
C88 H40 1_555 1_555
H38 C86 1_555 1_555
N15 N10 1_555 1_555
N17 N12 1_555 1_555
C91 C66 1_555 1_555
C93 C68 1_555 1_555
H43 C91 1_555 1_555
H45 C93 1_555 1_555
C98 C78 1_555 1_555
H50 C98 1_555 1_555
C101 C81 1_555 1_555
C103 C83 1_555 1_555
H53 C101 1_555 1_555
H55 C103 1_555 1_555
C106 C36 1_555 1_555
C108 C38 1_555 1_555
H58 C106 1_555 1_555
H60 C108 1_555 1_555
C111 C71 1_555 1_555
C113 C73 1_555 1_555
H63 C111 1_555 1_555
H65 C113 1_555 1_555
C116 C71 1_555 1_555
C118 C73 1_555 1_555
H70 C118 1_555 1_555
O4 C8 1_555 1_555
C1 C9 1_555 1_555
C2 C5 1_555 1_555
C5 C8 1_555 1_555
C22 C62 1_555 1_555
C27 C42 1_555 1_555
C27 C52 1_555 1_555
O54 C48 1_555 1_555
C86 C111 1_555 1_555
C88 C113 1_555 1_555
C91 C101 1_555 1_555
C93 C103 1_555 1_555
C106 C116 1_555 1_555
C108 C118 1_555 1_555
In1_2 O1_2 1_555 1_555
O1_2 In11 1_555 1_555
O6 In1_2 1_555 1_555
C3 O3 1_555 1_555
C4 C3 1_555 1_555
C11 N3 1_555 1_555
N2 C13 1_555 1_555
C13 C16 1_555 1_555
C14 C4 1_555 1_555
H6 C14 1_555 1_555
N3 N2 1_555 1_555
C18 C4 1_555 1_555
H10 C18 1_555 1_555
C19 C11 1_555 1_555
H11 C19 1_555 1_555
C20 C11 1_555 1_555
In5 O45 1_555 1_555
In8 O15 1_555 1_555
In15 O12 1_555 1_555
In18 O22 1_555 1_555
In21 O31 1_555 1_555
O13 In1_2 1_555 1_555
O15 C58 1_555 1_555
O22 C32 1_555 1_555
O29 In11 1_555 1_555
O31 C58 1_555 1_555
O36 In15 1_555 1_555
N4 In15 1_555 1_555
N6 In11 1_555 1_555
O45 C32 1_555 1_555
C21 H13 1_555 1_555
C23 H15 1_555 1_555
C26 H18 1_555 1_555
C28 H20 1_555 1_555
O53 In11 1_555 1_555
O59 In15 1_555 1_555
C32 C37 1_555 1_555
C37 C87 1_555 1_555
C41 C21 1_555 1_555
C43 C23 1_555 1_555
C47 O38 1_555 1_555
C51 N4 1_555 1_555
C53 N6 1_555 1_555
C56 O13 1_555 1_555
C58 C43 1_555 1_555
C61 N4 1_555 1_555
C63 N6 1_555 1_555
H28 C61 1_555 1_555
H30 C63 1_555 1_555
C67 C47 1_555 1_555
C72 N16 1_555 1_555
C77 C67 1_555 1_555
H34 C77 1_555 1_555
N11 C82 1_555 1_555
C82 C97 1_555 1_555
C87 H39 1_555 1_555
N16 N11 1_555 1_555
C92 C67 1_555 1_555
H44 C92 1_555 1_555
C97 C77 1_555 1_555
H49 C97 1_555 1_555
C102 C82 1_555 1_555
H54 C102 1_555 1_555
C107 C37 1_555 1_555
H59 C107 1_555 1_555
C112 C72 1_555 1_555
H64 C112 1_555 1_555
C117 C72 1_555 1_555
H69 C117 1_555 1_555
O6 C3 1_555 1_555
C14 C19 1_555 1_555
C18 C20 1_555 1_555
O29 C56 1_555 1_555
C21 C61 1_555 1_555
C23 C63 1_555 1_555
C26 C41 1_555 1_555
C26 C51 1_555 1_555
C28 C43 1_555 1_555
C28 C53 1_555 1_555
O53 C47 1_555 1_555
C41 C56 1_555 1_555
C87 C112 1_555 1_555
C92 C102 1_555 1_555
C107 C117 1_555 1_555
O5 C6 1_555 1_555
C6 C10 1_555 1_555
C15 C10 1_555 1_555
H7 C15 1_555 1_555
H9 C17 1_555 1_555
In3 O9 1_555 1_555
In9_2 O17 1_555 1_555
In12 O5 1_555 1_555
In23 O55 1_555 1_555
In24 N7 1_555 1_555
In25 O33 1_555 1_555
O9 In12 1_555 1_555
O16 In3 1_555 1_555
O17 C60 1_555 1_555
O24 In12 1_555 1_555
O32 In12 1_555 1_555
O33 C60 1_555 1_555
O40 C49 1_555 1_555
N7 C54 1_555 1_555
N8 In12 1_555 1_555
O47 In3 1_555 1_555
C24 H16 1_555 1_555
C25 H17 1_555 1_555
C29 H21 1_555 1_555
C30 H22 1_555 1_555
O55 C49 1_555 1_555
O56 In12 1_555 1_555
C34 O24 1_555 1_555
C39 C34 1_555 1_555
C44 C24 1_555 1_555
C45 C25 1_555 1_555
C49 C69 1_555 1_555
C54 C29 1_555 1_555
C55 N8 1_555 1_555
H26 C54 1_555 1_555
H27 C55 1_555 1_555
O60 In3 1_555 1_555
C59 O16 1_555 1_555
C60 C45 1_555 1_555
C64 N7 1_555 1_555
C65 N8 1_555 1_555
H31 C64 1_555 1_555
H32 C65 1_555 1_555
C69 C79 1_555 1_555
C74 N18 1_555 1_555
C79 H36 1_555 1_555
H37 C80 1_555 1_555
N13 C84 1_555 1_555
C84 C99 1_555 1_555
C89 C39 1_555 1_555
H41 C89 1_555 1_555
N18 N13 1_555 1_555
C94 C69 1_555 1_555
H46 C94 1_555 1_555
C99 C79 1_555 1_555
H51 C99 1_555 1_555
C104 C84 1_555 1_555
H56 C104 1_555 1_555
C109 C39 1_555 1_555
H61 C109 1_555 1_555
C114 C74 1_555 1_555
H66 C114 1_555 1_555
C119 C74 1_555 1_555
H71 C119 1_555 1_555
C15 C17 1_555 1_555
O32 C59 1_555 1_555
O47 C34 1_555 1_555
C24 C64 1_555 1_555
C25 C65 1_555 1_555
C29 C44 1_555 1_555
C30 C45 1_555 1_555
C30 C55 1_555 1_555
C44 C59 1_555 1_555
C89 C114 1_555 1_555
C94 C104 1_555 1_555
C109 C119 1_555 1_555
In4_2 O10_2 1_555 1_555
In17 O10_2 1_555 1_555
O20 In4_2 1_555 1_555
O51 In4_2 1_555 1_555
O52 In17 1_555 1_555
O61_2 In4_2 1_555 1_555
H33 C76 1_555 1_555
In10 O48 1_555 1_555
In26 O25 1_555 1_555
O25 C35 1_555 1_555
O48 C35 1_555 1_555
C35 C40 1_555 1_555
C40 C90 1_555 1_555
C75 N19 1_555 1_555
N14 C85 1_555 1_555
C85 C100 1_555 1_555
C90 H42 1_555 1_555
N19 N14 1_555 1_555
C110 C40 1_555 1_555
H62 C110 1_555 1_555
C115 C75 1_555 1_555
H67 C115 1_555 1_555
C120 C75 1_555 1_555
C90 C115 1_555 1_555
C110 C120 1_555 1_555
C12 H5 1_555 1_555
In3_2 O9_2 1_555 1_555
In16 O7 1_555 1_555
O18 In3_2 1_555 1_555
O41 In16 1_555 1_555
O49 In3_2 1_555 1_555
C50 O41 1_555 1_555
O60_2 In3_2 1_555 1_555
C70 C50 1_555 1_555
C95 C70 1_555 1_555
H47 C95 1_555 1_555
H57 C105 1_555 1_555
In16 O9_2 1_555 1_555
C95 C105 1_555 1_555
In1_3 O1_3 1_555 1_555
O1_3 In22 1_555 1_555
O5_2 C6_2 1_555 1_555
O6_2 In1_3 1_555 1_555
O7_2 C6_2 1_555 1_555
C3_2 O3_2 1_555 1_555
C4_2 C3_2 1_555 1_555
C6_2 C10_2 1_555 1_555
O8_3 In1_3 1_555 1_555
C10_2 C12_2 1_555 1_555
C11_2 N3_2 1_555 1_555
C12_2 H5_2 1_555 1_555
N2_2 C13_2 1_555 1_555
C13_2 C16_2 1_555 1_555
C14_2 C4_2 1_555 1_555
H6_2 C14_2 1_555 1_555
N3_2 N2_2 1_555 1_555
C15_2 C10_2 1_555 1_555
H7_2 C15_2 1_555 1_555
C16_2 C12_2 1_555 1_555
H8_2 C16_2 1_555 1_555
C17_2 C13_2 1_555 1_555
H9_2 C17_2 1_555 1_555
C18_2 C4_2 1_555 1_555
H10_2 C18_2 1_555 1_555
C19_2 C11_2 1_555 1_555
H11_2 C19_2 1_555 1_555
C20_2 C11_2 1_555 1_555
H12_2 C20_2 1_555 1_555
In7 O9_3 1_555 1_555
In6_2 O15_2 1_555 1_555
In9_3 O17_2 1_555 1_555
In10_2 O48_2 1_555 1_555
In20 O5_2 1_555 1_555
In15_2 O12_3 1_555 1_555
In16_2 O7_2 1_555 1_555
In21_2 O31_2 1_555 1_555
In24_2 N7_2 1_555 1_555
In25_2 O33_2 1_555 1_555
In26_2 O25_2 1_555 1_555
O9_3 In20 1_555 1_555
O13_2 In1_3 1_555 1_555
O15_2 C58_2 1_555 1_555
O16_2 In7 1_555 1_555
O17_2 C60_2 1_555 1_555
O18_2 In7 1_555 1_555
O26 C32_2 1_555 1_555
O25_2 C35_2 1_555 1_555
O28_2 In15_2 1_555 1_555
O29_2 In22 1_555 1_555
O31_2 C58_2 1_555 1_555
O32_2 In20 1_555 1_555
O33_2 C60_2 1_555 1_555
O36_2 In15_2 1_555 1_555
O41_2 In16_2 1_555 1_555
O43_2 In15_2 1_555 1_555
N4_2 In15_2 1_555 1_555
N6_2 In22 1_555 1_555
N7_2 C54_2 1_555 1_555
N8_2 In20 1_555 1_555
O50 C32_2 1_555 1_555
O48_2 C35_2 1_555 1_555
O49_2 In7 1_555 1_555
C21_2 H13_2 1_555 1_555
C23_2 H15_2 1_555 1_555
C24_2 H16_2 1_555 1_555
C25_2 H17_2 1_555 1_555
C26_2 H18_2 1_555 1_555
C28_2 H20_2 1_555 1_555
C29_2 H21_2 1_555 1_555
C30_2 H22_2 1_555 1_555
O53_2 In22 1_555 1_555
O56_2 In20 1_555 1_555
O59_2 In15_2 1_555 1_555
C32_2 C37_2 1_555 1_555
C35_2 C40_2 1_555 1_555
C37_2 C87_2 1_555 1_555
C40_2 C90_2 1_555 1_555
C41_2 C21_2 1_555 1_555
C43_2 C23_2 1_555 1_555
C44_2 C24_2 1_555 1_555
C45_2 C25_2 1_555 1_555
C47_2 O38_2 1_555 1_555
C50_2 O41_2 1_555 1_555
C51_2 N4_2 1_555 1_555
C53_2 N6_2 1_555 1_555
C54_2 C29_2 1_555 1_555
C55_2 N8_2 1_555 1_555
H23_2 C51_2 1_555 1_555
H26_2 C54_2 1_555 1_555
H27_2 C55_2 1_555 1_555
O60_3 In7 1_555 1_555
C56_2 O13_2 1_555 1_555
C58_2 C43_2 1_555 1_555
C59_2 O16_2 1_555 1_555
C60_2 C45_2 1_555 1_555
C61_2 N4_2 1_555 1_555
C63_2 N6_2 1_555 1_555
C64_2 N7_2 1_555 1_555
C65_2 N8_2 1_555 1_555
H28_2 C61_2 1_555 1_555
H30_2 C63_2 1_555 1_555
H31_2 C64_2 1_555 1_555
H32_2 C65_2 1_555 1_555
C67_2 C47_2 1_555 1_555
C70_2 C50_2 1_555 1_555
C72_2 N16_2 1_555 1_555
C75_2 N19_2 1_555 1_555
C77_2 C67_2 1_555 1_555
C80_2 C70_2 1_555 1_555
H34_2 C77_2 1_555 1_555
H37_2 C80_2 1_555 1_555
N11_2 C82_2 1_555 1_555
N14_2 C85_2 1_555 1_555
C82_2 C97_2 1_555 1_555
C85_2 C100_2 1_555 1_555
C87_2 H39_2 1_555 1_555
C90_2 H42_2 1_555 1_555
N16_2 N11_2 1_555 1_555
N19_2 N14_2 1_555 1_555
C92_2 C67_2 1_555 1_555
C95_2 C70_2 1_555 1_555
H44_2 C92_2 1_555 1_555
H47_2 C95_2 1_555 1_555
C97_2 C77_2 1_555 1_555
C100_2 C80_2 1_555 1_555
H49_2 C97_2 1_555 1_555
H52_2 C100_2 1_555 1_555
C102_2 C82_2 1_555 1_555
C105_2 C85_2 1_555 1_555
H54_2 C102_2 1_555 1_555
H57_2 C105_2 1_555 1_555
C107_2 C37_2 1_555 1_555
C110_2 C40_2 1_555 1_555
H59_2 C107_2 1_555 1_555
H62_2 C110_2 1_555 1_555
C112_2 C72_2 1_555 1_555
C115_2 C75_2 1_555 1_555
H64_2 C112_2 1_555 1_555
H67_2 C115_2 1_555 1_555
C117_2 C72_2 1_555 1_555
C120_2 C75_2 1_555 1_555
H69_2 C117_2 1_555 1_555
H72_2 C120_2 1_555 1_555
O6_2 C3_2 1_555 1_555
C14_2 C19_2 1_555 1_555
C15_2 C17_2 1_555 1_555
C18_2 C20_2 1_555 1_555
In16_2 O9_3 1_555 1_555
O29_2 C56_2 1_555 1_555
O32_2 C59_2 1_555 1_555
C21_2 C61_2 1_555 1_555
C23_2 C63_2 1_555 1_555
C24_2 C64_2 1_555 1_555
C25_2 C65_2 1_555 1_555
C26_2 C41_2 1_555 1_555
C26_2 C51_2 1_555 1_555
C28_2 C43_2 1_555 1_555
C28_2 C53_2 1_555 1_555
C29_2 C44_2 1_555 1_555
C30_2 C45_2 1_555 1_555
C30_2 C55_2 1_555 1_555
O53_2 C47_2 1_555 1_555
O56_2 C50_2 1_555 1_555
C41_2 C56_2 1_555 1_555
C44_2 C59_2 1_555 1_555
C87_2 C112_2 1_555 1_555
C90_2 C115_2 1_555 1_555
C92_2 C102_2 1_555 1_555
C95_2 C105_2 1_555 1_555
C107_2 C117_2 1_555 1_555
C110_2 C120_2 1_555 1_555
In5 O10_3 1_555 1_555
In18 O10_3 1_555 1_555
In17_2 O10_3 1_555 1_555
O19_2 In5 1_555 1_555
O20_2 In5 1_555 1_555
O34_2 In18 1_555 1_555
O37_2 In18 1_555 1_555
N9_2 In18 1_555 1_555
O51_2 In5 1_555 1_555
O52_2 In17_2 1_555 1_555
O57_2 In18 1_555 1_555
C46_2 O37_2 1_555 1_555
O61_3 In5 1_555 1_555
C66_2 C46_2 1_555 1_555
C76_2 C66_2 1_555 1_555
H33_2 C76_2 1_555 1_555
C91_2 C66_2 1_555 1_555
H43_2 C91_2 1_555 1_555
H53_2 C101_2 1_555 1_555
O52_2 C46_2 1_555 1_555
C91_2 C101_2 1_555 1_555
In1_4 O1_4 1_555 1_555
In23 O1_4 1_555 1_555
O2_2 In1_4 1_555 1_555
O4_2 In23 1_555 1_555
N1_2 C7_2 1_555 1_555
C1_2 H1_2 1_555 1_555
C2_2 H2_2 1_555 1_555
C5_2 C1_2 1_555 1_555
C7_2 C2_2 1_555 1_555
H3_2 C7_2 1_555 1_555
O8_4 In1_4 1_555 1_555
C8_2 O2_2 1_555 1_555
C9_2 N1_2 1_555 1_555
H4_2 C9_2 1_555 1_555
In8 O14_2 1_555 1_555
In14_2 N1_2 1_555 1_555
In19_2 O30_2 1_555 1_555
O11_3 In14_2 1_555 1_555
O14_2 C57_2 1_555 1_555
O21_2 C31_2 1_555 1_555
O27_2 In14_2 1_555 1_555
O30_2 C57_2 1_555 1_555
O35_2 In14_2 1_555 1_555
O42_2 In14_2 1_555 1_555
N5_2 In23 1_555 1_555
O44_2 In1_4 1_555 1_555
C22_2 H14_2 1_555 1_555
C27_2 H19_2 1_555 1_555
O58_2 In14_2 1_555 1_555
C31_2 O44_2 1_555 1_555
C36_2 C31_2 1_555 1_555
C42_2 C22_2 1_555 1_555
C52_2 N5_2 1_555 1_555
C57_2 C42_2 1_555 1_555
C62_2 N5_2 1_555 1_555
H29_2 C62_2 1_555 1_555
C71_2 N15_2 1_555 1_555
N10_2 C81_2 1_555 1_555
C81_2 C96_2 1_555 1_555
C86_2 C36_2 1_555 1_555
H38_2 C86_2 1_555 1_555
N15_2 N10_2 1_555 1_555
H48_2 C96_2 1_555 1_555
C106_2 C36_2 1_555 1_555
H58_2 C106_2 1_555 1_555
C111_2 C71_2 1_555 1_555
H63_2 C111_2 1_555 1_555
C116_2 C71_2 1_555 1_555
H68_2 C116_2 1_555 1_555
O4_2 C8_2 1_555 1_555
C1_2 C9_2 1_555 1_555
C2_2 C5_2 1_555 1_555
C5_2 C8_2 1_555 1_555
C22_2 C62_2 1_555 1_555
C27_2 C42_2 1_555 1_555
C27_2 C52_2 1_555 1_555
C86_2 C111_2 1_555 1_555
C106_2 C116_2 1_555 1_555
C12_3 H5_3 1_555 1_555
In10 O1_5 1_555 1_555
In2_2 O1_5 1_555 1_555
O1_5 In26 1_555 1_555
O2_3 In10 1_555 1_555
O3_3 In2_2 1_555 1_555
O4_3 In2_2 1_555 1_555
O5_3 C6_3 1_555 1_555
N1_3 C7_3 1_555 1_555
O6_3 In10 1_555 1_555
C1_3 H1_3 1_555 1_555
C2_3 H2_3 1_555 1_555
C3_3 O3_3 1_555 1_555
C4_3 C3_3 1_555 1_555
C5_3 C1_3 1_555 1_555
C6_3 C10_3 1_555 1_555
C7_3 C2_3 1_555 1_555
C8_3 O2_3 1_555 1_555
C9_3 N1_3 1_555 1_555
H4_3 C9_3 1_555 1_555
C11_3 N3_3 1_555 1_555
N2_3 C13_3 1_555 1_555
C13_3 C16_3 1_555 1_555
C14_3 C4_3 1_555 1_555
H6_3 C14_3 1_555 1_555
N3_3 N2_3 1_555 1_555
C15_3 C10_3 1_555 1_555
H7_3 C15_3 1_555 1_555
C17_3 C13_3 1_555 1_555
H9_3 C17_3 1_555 1_555
C18_3 C4_3 1_555 1_555
H10_3 C18_3 1_555 1_555
C19_3 C11_3 1_555 1_555
H11_3 C19_3 1_555 1_555
C20_3 C11_3 1_555 1_555
In6_3 O14_3 1_555 1_555
In8_2 O15_3 1_555 1_555
In9_4 O17_3 1_555 1_555
In17 O5_3 1_555 1_555
In14_3 N1_3 1_555 1_555
In15_3 O11_2 1_555 1_555
In16_2 O22_2 1_555 1_555
In19_3 O30_3 1_555 1_555
In17_2 O23_2 1_555 1_555
In21_3 O31_3 1_555 1_555
In26_2 O40_2 1_555 1_555
In23_2 O55_2 1_555 1_555
In24_3 N7_3 1_555 1_555
In25_3 O33_3 1_555 1_555
O12_2 In14_3 1_555 1_555
O13_3 In10 1_555 1_555
O14_3 C57_3 1_555 1_555
O15_3 C58_3 1_555 1_555
O17_3 C60_3 1_555 1_555
O22_2 C32_3 1_555 1_555
O23_2 C33_2 1_555 1_555
O24_2 In17 1_555 1_555
O29_3 In26 1_555 1_555
O30_3 C57_3 1_555 1_555
O31_3 C58_3 1_555 1_555
O32_3 In17 1_555 1_555
O33_3 C60_3 1_555 1_555
O35_3 In14_3 1_555 1_555
O36_3 In15_3 1_555 1_555
O38_3 In2_2 1_555 1_555
O39_2 In26 1_555 1_555
O40_2 C49_2 1_555 1_555
N4_3 In15_3 1_555 1_555
N5_3 In2_2 1_555 1_555
N6_3 In26 1_555 1_555
N7_3 C54_3 1_555 1_555
N8_3 In17 1_555 1_555
O49_2 C32_3 1_555 1_555
O51_2 C33_2 1_555 1_555
C21_3 H13_3 1_555 1_555
C22_3 H14_3 1_555 1_555
C23_3 H15_3 1_555 1_555
C24_3 H16_3 1_555 1_555
C25_3 H17_3 1_555 1_555
C26_3 H18_3 1_555 1_555
C27_3 H19_3 1_555 1_555
C28_3 H20_3 1_555 1_555
C29_3 H21_3 1_555 1_555
C30_3 H22_3 1_555 1_555
O53_3 In26 1_555 1_555
O54_2 In2_2 1_555 1_555
O55_2 C49_2 1_555 1_555
O58_3 In14_3 1_555 1_555
O59_3 In15_3 1_555 1_555
C32_3 C37_3 1_555 1_555
C33_2 C38_2 1_555 1_555
C34_2 O24_2 1_555 1_555
C37_3 C87_3 1_555 1_555
C38_2 C88_2 1_555 1_555
C39_2 C34_2 1_555 1_555
C41_3 C21_3 1_555 1_555
C42_3 C22_3 1_555 1_555
C43_3 C23_3 1_555 1_555
C44_3 C24_3 1_555 1_555
C45_3 C25_3 1_555 1_555
C47_3 O38_3 1_555 1_555
C48_2 O39_2 1_555 1_555
C49_2 C69_2 1_555 1_555
C51_3 N4_3 1_555 1_555
C52_3 N5_3 1_555 1_555
C53_3 N6_3 1_555 1_555
C54_3 C29_3 1_555 1_555
C55_3 N8_3 1_555 1_555
H24_3 C52_3 1_555 1_555
H25_3 C53_3 1_555 1_555
H26_3 C54_3 1_555 1_555
H27_3 C55_3 1_555 1_555
C56_3 O13_3 1_555 1_555
C57_3 C42_3 1_555 1_555
C58_3 C43_3 1_555 1_555
C59_3 O20 1_555 1_555
C60_3 C45_3 1_555 1_555
C61_3 N4_3 1_555 1_555
C62_3 N5_3 1_555 1_555
C63_3 N6_3 1_555 1_555
C64_3 N7_3 1_555 1_555
C65_3 N8_3 1_555 1_555
H28_3 C61_3 1_555 1_555
H29_3 C62_3 1_555 1_555
H30_3 C63_3 1_555 1_555
H31_3 C64_3 1_555 1_555
H32_3 C65_3 1_555 1_555
C67_3 C47_3 1_555 1_555
C68_2 C48_2 1_555 1_555
C69_2 C79_2 1_555 1_555
C72_3 N16_3 1_555 1_555
C73_2 N17_2 1_555 1_555
C74_2 N18_2 1_555 1_555
C77_3 C67_3 1_555 1_555
C78_2 C68_2 1_555 1_555
C79_2 H36_2 1_555 1_555
H34_3 C77_3 1_555 1_555
H35_2 C78_2 1_555 1_555
N11_3 C82_3 1_555 1_555
N12_2 C83_2 1_555 1_555
N13_2 C84_2 1_555 1_555
C82_3 C97_3 1_555 1_555
C83_2 C98_2 1_555 1_555
C84_2 C99_2 1_555 1_555
C87_3 H39_3 1_555 1_555
C88_2 H40_2 1_555 1_555
C89_2 C39_2 1_555 1_555
H41_2 C89_2 1_555 1_555
N16_3 N11_3 1_555 1_555
N17_2 N12_2 1_555 1_555
N18_2 N13_2 1_555 1_555
C92_3 C67_3 1_555 1_555
C93_2 C68_2 1_555 1_555
C94_2 C69_2 1_555 1_555
H44_3 C92_3 1_555 1_555
H45_2 C93_2 1_555 1_555
H46_2 C94_2 1_555 1_555
C97_3 C77_3 1_555 1_555
C98_2 C78_2 1_555 1_555
C99_2 C79_2 1_555 1_555
H49_3 C97_3 1_555 1_555
H50_2 C98_2 1_555 1_555
H51_2 C99_2 1_555 1_555
C102_3 C82_3 1_555 1_555
C103_2 C83_2 1_555 1_555
C104_2 C84_2 1_555 1_555
H54_3 C102_3 1_555 1_555
H55_2 C103_2 1_555 1_555
H56_2 C104_2 1_555 1_555
C107_3 C37_3 1_555 1_555
C108_2 C38_2 1_555 1_555
C109_2 C39_2 1_555 1_555
H59_3 C107_3 1_555 1_555
H60_2 C108_2 1_555 1_555
H61_2 C109_2 1_555 1_555
C112_3 C72_3 1_555 1_555
C113_2 C73_2 1_555 1_555
C114_2 C74_2 1_555 1_555
H64_3 C112_3 1_555 1_555
H65_2 C113_2 1_555 1_555
H66_2 C114_2 1_555 1_555
C117_3 C72_3 1_555 1_555
C118_2 C73_2 1_555 1_555
C119_2 C74_2 1_555 1_555
H69_3 C117_3 1_555 1_555
H70_2 C118_2 1_555 1_555
H71_2 C119_2 1_555 1_555
O4_3 C8_3 1_555 1_555
O6_3 C3_3 1_555 1_555
C1_3 C9_3 1_555 1_555
C2_3 C5_3 1_555 1_555
C5_3 C8_3 1_555 1_555
C14_3 C19_3 1_555 1_555
C15_3 C17_3 1_555 1_555
C18_3 C20_3 1_555 1_555
O29_3 C56_3 1_555 1_555
O32_3 C59_3 1_555 1_555
O51 C34_2 1_555 1_555
C21_3 C61_3 1_555 1_555
C22_3 C62_3 1_555 1_555
C23_3 C63_3 1_555 1_555
C24_3 C64_3 1_555 1_555
C25_3 C65_3 1_555 1_555
C26_3 C41_3 1_555 1_555
C26_3 C51_3 1_555 1_555
C27_3 C42_3 1_555 1_555
C27_3 C52_3 1_555 1_555
C28_3 C43_3 1_555 1_555
C28_3 C53_3 1_555 1_555
C29_3 C44_3 1_555 1_555
C30_3 C45_3 1_555 1_555
C30_3 C55_3 1_555 1_555
O53_3 C47_3 1_555 1_555
O54_2 C48_2 1_555 1_555
C41_3 C56_3 1_555 1_555
C44_3 C59_3 1_555 1_555
C87_3 C112_3 1_555 1_555
C88_2 C113_2 1_555 1_555
C89_2 C114_2 1_555 1_555
C92_3 C102_3 1_555 1_555
C93_2 C103_2 1_555 1_555
C94_2 C104_2 1_555 1_555
C107_3 C117_3 1_555 1_555
C108_2 C118_2 1_555 1_555
C109_2 C119_2 1_555 1_555
O26_2 In16 1_555 1_555
O34_3 In16 1_555 1_555
N9_3 In16 1_555 1_555
O5_4 C6_4 1_555 1_555
O57_2 C6_4 1_555 1_555
C6_4 C10_4 1_555 1_555
C10_4 C12_4 1_555 1_555
C12_4 H5_4 1_555 1_555
C15_4 C10_4 1_555 1_555
H7_4 C15_4 1_555 1_555
H9_4 C17_4 1_555 1_555
In9_5 O17_4 1_555 1_555
In17_2 O5_4 1_555 1_555
In24_4 N7_4 1_555 1_555
In25_4 O33_4 1_555 1_555
O17_4 C60_4 1_555 1_555
O32_4 In17_2 1_555 1_555
O33_4 C60_4 1_555 1_555
N7_4 C54_4 1_555 1_555
N8_4 In17_2 1_555 1_555
C24_4 H16_4 1_555 1_555
C25_4 H17_4 1_555 1_555
C29_4 H21_4 1_555 1_555
C30_4 H22_4 1_555 1_555
C44_4 C24_4 1_555 1_555
C45_4 C25_4 1_555 1_555
C54_4 C29_4 1_555 1_555
C55_4 N8_4 1_555 1_555
H26_4 C54_4 1_555 1_555
H27_4 C55_4 1_555 1_555
C59_4 O20_2 1_555 1_555
C60_4 C45_4 1_555 1_555
C64_4 N7_4 1_555 1_555
C65_4 N8_4 1_555 1_555
H31_4 C64_4 1_555 1_555
H32_4 C65_4 1_555 1_555
C15_4 C17_4 1_555 1_555
O32_4 C59_4 1_555 1_555
C24_4 C64_4 1_555 1_555
C25_4 C65_4 1_555 1_555
C29_4 C44_4 1_555 1_555
C30_4 C45_4 1_555 1_555
C30_4 C55_4 1_555 1_555
C44_4 C59_4 1_555 1_555
In10_2 O1_6 1_555 1_555
In23_2 O1_6 1_555 1_555
O1_6 In26_2 1_555 1_555
O2_4 In10_2 1_555 1_555
O3_4 In23_2 1_555 1_555
O4_4 In23_2 1_555 1_555
N1_4 C7_4 1_555 1_555
O6_4 In10_2 1_555 1_555
C1_4 H1_4 1_555 1_555
C2_4 H2_4 1_555 1_555
C3_4 O3_4 1_555 1_555
C4_4 C3_4 1_555 1_555
C5_4 C1_4 1_555 1_555
C7_4 C2_4 1_555 1_555
H3_4 C7_4 1_555 1_555
O8_6 In10_2 1_555 1_555
C8_4 O2_4 1_555 1_555
C9_4 N1_4 1_555 1_555
H4_4 C9_4 1_555 1_555
C11_4 N3_4 1_555 1_555
N2_4 C13_4 1_555 1_555
C13_4 C16_4 1_555 1_555
C14_4 C4_4 1_555 1_555
H6_4 C14_4 1_555 1_555
N3_4 N2_4 1_555 1_555
H8_4 C16_4 1_555 1_555
C18_4 C4_4 1_555 1_555
H10_4 C18_4 1_555 1_555
C19_4 C11_4 1_555 1_555
H11_4 C19_4 1_555 1_555
C20_4 C11_4 1_555 1_555
H12_4 C20_4 1_555 1_555
In8_3 O14_4 1_555 1_555
In6_3 O15_4 1_555 1_555
In14_4 N1_4 1_555 1_555
In15_4 O11_3 1_555 1_555
In19_4 O30_4 1_555 1_555
In21_4 O31_4 1_555 1_555
O12_3 In14_4 1_555 1_555
O13_4 In10_2 1_555 1_555
O14_4 C57_4 1_555 1_555
O15_4 C58_4 1_555 1_555
O26_2 C32_4 1_555 1_555
O27_4 In14_4 1_555 1_555
O28_4 In15_4 1_555 1_555
O29_4 In26_2 1_555 1_555
O30_4 C57_4 1_555 1_555
O31_4 C58_4 1_555 1_555
O34_4 In16_2 1_555 1_555
O35_4 In14_4 1_555 1_555
O36_4 In15_4 1_555 1_555
O38_4 In23_2 1_555 1_555
O42_4 In14_4 1_555 1_555
O43_4 In15_4 1_555 1_555
N4_4 In15_4 1_555 1_555
N5_4 In23_2 1_555 1_555
N6_4 In26_2 1_555 1_555
N9_4 In16_2 1_555 1_555
O49 C32_4 1_555 1_555
C21_4 H13_4 1_555 1_555
C22_4 H14_4 1_555 1_555
C23_4 H15_4 1_555 1_555
C26_4 H18_4 1_555 1_555
C27_4 H19_4 1_555 1_555
C28_4 H20_4 1_555 1_555
O53_4 In26_2 1_555 1_555
O58_4 In14_4 1_555 1_555
O59_4 In15_4 1_555 1_555
C32_4 C37_4 1_555 1_555
C37_4 C87_4 1_555 1_555
C41_4 C21_4 1_555 1_555
C42_4 C22_4 1_555 1_555
C43_4 C23_4 1_555 1_555
C47_4 O38_4 1_555 1_555
C51_4 N4_4 1_555 1_555
C52_4 N5_4 1_555 1_555
C53_4 N6_4 1_555 1_555
H23_4 C51_4 1_555 1_555
H24_4 C52_4 1_555 1_555
H25_4 C53_4 1_555 1_555
C56_4 O13_4 1_555 1_555
C57_4 C42_4 1_555 1_555
C58_4 C43_4 1_555 1_555
C61_4 N4_4 1_555 1_555
C62_4 N5_4 1_555 1_555
C63_4 N6_4 1_555 1_555
H28_4 C61_4 1_555 1_555
H29_4 C62_4 1_555 1_555
H30_4 C63_4 1_555 1_555
C67_4 C47_4 1_555 1_555
C72_4 N16_4 1_555 1_555
C77_4 C67_4 1_555 1_555
H34_4 C77_4 1_555 1_555
N11_4 C82_4 1_555 1_555
C82_4 C97_4 1_555 1_555
C87_4 H39_4 1_555 1_555
N16_4 N11_4 1_555 1_555
C92_4 C67_4 1_555 1_555
H44_4 C92_4 1_555 1_555
C97_4 C77_4 1_555 1_555
H49_4 C97_4 1_555 1_555
C102_4 C82_4 1_555 1_555
H54_4 C102_4 1_555 1_555
C107_4 C37_4 1_555 1_555
H59_4 C107_4 1_555 1_555
C112_4 C72_4 1_555 1_555
H64_4 C112_4 1_555 1_555
C117_4 C72_4 1_555 1_555
H69_4 C117_4 1_555 1_555
O4_4 C8_4 1_555 1_555
O6_4 C3_4 1_555 1_555
C1_4 C9_4 1_555 1_555
C2_4 C5_4 1_555 1_555
C5_4 C8_4 1_555 1_555
C14_4 C19_4 1_555 1_555
C18_4 C20_4 1_555 1_555
O29_4 C56_4 1_555 1_555
C21_4 C61_4 1_555 1_555
C22_4 C62_4 1_555 1_555
C23_4 C63_4 1_555 1_555
C26_4 C41_4 1_555 1_555
C26_4 C51_4 1_555 1_555
C27_4 C42_4 1_555 1_555
C27_4 C52_4 1_555 1_555
C28_4 C43_4 1_555 1_555
C28_4 C53_4 1_555 1_555
O53_4 C47_4 1_555 1_555
C41_4 C56_4 1_555 1_555
C87_4 C112_4 1_555 1_555
C92_4 C102_4 1_555 1_555
C107_4 C117_4 1_555 1_555
In6 O1_7 1_555 1_555
In19 O1_7 1_555 1_555
In4_3 O10_4 1_555 1_555
In6_4 O14_5 1_555 1_555
In7_2 O46_2 1_555 1_555
In13_2 O10_4 1_555 1_555
In24_2 O23_3 1_555 1_555
O14_5 C57_5 1_555 1_555
O19_3 In4_3 1_555 1_555
O21_3 C31_3 1_555 1_555
O23_3 C33_3 1_555 1_555
O26_3 In13_2 1_555 1_555
O35 C57_5 1_555 1_555
O34_5 In13_2 1_555 1_555
O37_3 In13_2 1_555 1_555
N5_5 In19 1_555 1_555
N9_5 In13_2 1_555 1_555
O44_3 In6 1_555 1_555
O46_2 C33_3 1_555 1_555
O50_2 In4_3 1_555 1_555
C22_5 H14_5 1_555 1_555
C27_5 H19_5 1_555 1_555
O54_3 In19 1_555 1_555
O57_3 In13_2 1_555 1_555
C31_3 O44_3 1_555 1_555
C33_3 C38_3 1_555 1_555
C36_3 C31_3 1_555 1_555
C38_3 C88_3 1_555 1_555
C42_5 C22_5 1_555 1_555
C46_3 O37_3 1_555 1_555
C48_3 O39_3 1_555 1_555
C52_5 N5_5 1_555 1_555
O61_4 In4_3 1_555 1_555
C57_5 C42_5 1_555 1_555
C62_5 N5_5 1_555 1_555
H29_5 C62_5 1_555 1_555
C66_3 C46_3 1_555 1_555
C68_3 C48_3 1_555 1_555
C71_3 N15_3 1_555 1_555
C73_3 N17_3 1_555 1_555
C78_3 C68_3 1_555 1_555
H35_3 C78_3 1_555 1_555
N10_3 C81_3 1_555 1_555
N12_3 C83_3 1_555 1_555
C81_3 C96_3 1_555 1_555
C83_3 C98_3 1_555 1_555
C86_3 C36_3 1_555 1_555
C88_3 H40_3 1_555 1_555
H38_3 C86_3 1_555 1_555
N15_3 N10_3 1_555 1_555
N17_3 N12_3 1_555 1_555
C91_3 C66_3 1_555 1_555
C93_3 C68_3 1_555 1_555
H43_3 C91_3 1_555 1_555
H45_3 C93_3 1_555 1_555
C98_3 C78_3 1_555 1_555
H50_3 C98_3 1_555 1_555
C101_3 C81_3 1_555 1_555
C103_3 C83_3 1_555 1_555
H53_3 C101_3 1_555 1_555
H55_3 C103_3 1_555 1_555
C106_3 C36_3 1_555 1_555
C108_3 C38_3 1_555 1_555
H58_3 C106_3 1_555 1_555
H60_3 C108_3 1_555 1_555
C111_3 C71_3 1_555 1_555
C113_3 C73_3 1_555 1_555
H63_3 C111_3 1_555 1_555
H65_3 C113_3 1_555 1_555
C116_3 C71_3 1_555 1_555
C118_3 C73_3 1_555 1_555
H70_3 C118_3 1_555 1_555
C22_5 C62_5 1_555 1_555
C27_5 C42_5 1_555 1_555
C27_5 C52_5 1_555 1_555
O54_3 C48_3 1_555 1_555
C86_3 C111_3 1_555 1_555
C88_3 C113_3 1_555 1_555
C91_3 C101_3 1_555 1_555
C93_3 C103_3 1_555 1_555
C106_3 C116_3 1_555 1_555
C108_3 C118_3 1_555 1_555
In6_2 O1_8 1_555 1_555
O1_8 In21_2 1_555 1_555
O6_5 In6_2 1_555 1_555
C3_5 O3_5 1_555 1_555
C4_5 C3_5 1_555 1_555
C11_5 N3_5 1_555 1_555
N2_5 C13_5 1_555 1_555
C13_5 C16_5 1_555 1_555
C14_5 C4_5 1_555 1_555
H6_5 C14_5 1_555 1_555
N3_5 N2_5 1_555 1_555
C18_5 C4_5 1_555 1_555
H10_5 C18_5 1_555 1_555
C19_5 C11_5 1_555 1_555
H11_5 C19_5 1_555 1_555
C20_5 C11_5 1_555 1_555
In5_2 O45_2 1_555 1_555
In8_4 O15_5 1_555 1_555
In18_2 O22_3 1_555 1_555
O15_5 C58_5 1_555 1_555
O22_3 C32_5 1_555 1_555
O36_2 C58_5 1_555 1_555
N6_5 In21_2 1_555 1_555
O45_2 C32_5 1_555 1_555
C23_5 H15_5 1_555 1_555
C28_5 H20_5 1_555 1_555
O53_5 In21_2 1_555 1_555
C32_5 C37_5 1_555 1_555
C37_5 C87_5 1_555 1_555
C43_5 C23_5 1_555 1_555
C47_5 O38_5 1_555 1_555
C53_5 N6_5 1_555 1_555
C58_5 C43_5 1_555 1_555
C63_5 N6_5 1_555 1_555
H30_5 C63_5 1_555 1_555
C67_5 C47_5 1_555 1_555
C72_5 N16_5 1_555 1_555
C77_5 C67_5 1_555 1_555
H34_5 C77_5 1_555 1_555
N11_5 C82_5 1_555 1_555
C82_5 C97_5 1_555 1_555
C87_5 H39_5 1_555 1_555
N16_5 N11_5 1_555 1_555
C92_5 C67_5 1_555 1_555
H44_5 C92_5 1_555 1_555
C97_5 C77_5 1_555 1_555
H49_5 C97_5 1_555 1_555
C102_5 C82_5 1_555 1_555
H54_5 C102_5 1_555 1_555
C107_5 C37_5 1_555 1_555
H59_5 C107_5 1_555 1_555
C112_5 C72_5 1_555 1_555
H64_5 C112_5 1_555 1_555
C117_5 C72_5 1_555 1_555
H69_5 C117_5 1_555 1_555
O6_5 C3_5 1_555 1_555
C14_5 C19_5 1_555 1_555
C18_5 C20_5 1_555 1_555
C23_5 C63_5 1_555 1_555
C28_5 C43_5 1_555 1_555
C28_5 C53_5 1_555 1_555
O53_5 C47_5 1_555 1_555
C87_5 C112_5 1_555 1_555
C92_5 C102_5 1_555 1_555
C107_5 C117_5 1_555 1_555
In4_4 O10_5 1_555 1_555
In24_4 O10_5 1_555 1_555
O20_3 In4_4 1_555 1_555
O51_3 In4_4 1_555 1_555
O52_3 In24_4 1_555 1_555
O61_5 In4_4 1_555 1_555
H33_3 C76_3 1_555 1_555
In8 O48_3 1_555 1_555
In21 O25_3 1_555 1_555
O25_3 C35_3 1_555 1_555
O48_3 C35_3 1_555 1_555
C35_3 C40_3 1_555 1_555
C40_3 C90_3 1_555 1_555
C75_3 N19_3 1_555 1_555
N14_3 C85_3 1_555 1_555
C85_3 C100_3 1_555 1_555
C90_3 H42_3 1_555 1_555
N19_3 N14_3 1_555 1_555
C110_3 C40_3 1_555 1_555
H62_3 C110_3 1_555 1_555
C115_3 C75_3 1_555 1_555
H67_3 C115_3 1_555 1_555
C120_3 C75_3 1_555 1_555
C90_3 C115_3 1_555 1_555
C110_3 C120_3 1_555 1_555
O5_5 C6_5 1_555 1_555
C6_5 C10_5 1_555 1_555
C15_5 C10_5 1_555 1_555
H7_5 C15_5 1_555 1_555
H9_5 C17_5 1_555 1_555
In3_3 O9_4 1_555 1_555
In24_3 O5_5 1_555 1_555
In19_4 O55_3 1_555 1_555
In25_3 N7_5 1_555 1_555
O9_4 In24_3 1_555 1_555
O16_3 In3_3 1_555 1_555
O24_3 In24_3 1_555 1_555
O32_5 In24_3 1_555 1_555
O40_3 C49_3 1_555 1_555
N7_5 C54_5 1_555 1_555
O47_2 In3_3 1_555 1_555
C24_5 H16_5 1_555 1_555
C29_5 H21_5 1_555 1_555
O55_3 C49_3 1_555 1_555
O56_3 In24_3 1_555 1_555
C34_3 O24_3 1_555 1_555
C39_3 C34_3 1_555 1_555
C44_5 C24_5 1_555 1_555
C49_3 C69_3 1_555 1_555
C54_5 C29_5 1_555 1_555
H26_5 C54_5 1_555 1_555
O60_4 In3_3 1_555 1_555
C59_5 O16_3 1_555 1_555
C64_5 N7_5 1_555 1_555
H31_5 C64_5 1_555 1_555
C69_3 C79_3 1_555 1_555
C74_3 N18_3 1_555 1_555
C79_3 H36_3 1_555 1_555
H37_3 C80_3 1_555 1_555
N13_3 C84_3 1_555 1_555
C84_3 C99_3 1_555 1_555
C89_3 C39_3 1_555 1_555
H41_3 C89_3 1_555 1_555
N18_3 N13_3 1_555 1_555
C94_3 C69_3 1_555 1_555
H46_3 C94_3 1_555 1_555
C99_3 C79_3 1_555 1_555
H51_3 C99_3 1_555 1_555
C104_3 C84_3 1_555 1_555
H56_3 C104_3 1_555 1_555
C109_3 C39_3 1_555 1_555
H61_3 C109_3 1_555 1_555
C114_3 C74_3 1_555 1_555
H66_3 C114_3 1_555 1_555
C119_3 C74_3 1_555 1_555
H71_3 C119_3 1_555 1_555
C15_5 C17_5 1_555 1_555
O32_5 C59_5 1_555 1_555
O47_2 C34_3 1_555 1_555
C24_5 C64_5 1_555 1_555
C29_5 C44_5 1_555 1_555
C44_5 C59_5 1_555 1_555
C89_3 C114_3 1_555 1_555
C94_3 C104_3 1_555 1_555
C109_3 C119_3 1_555 1_555
C12_5 H5_5 1_555 1_555
In3_4 O9_5 1_555 1_555
In16_3 O7_3 1_555 1_555
O18_3 In3_4 1_555 1_555
O41_3 In16_3 1_555 1_555
O49_3 In3_4 1_555 1_555
C50_3 O41_3 1_555 1_555
O60_5 In3_4 1_555 1_555
C70_3 C50_3 1_555 1_555
C95_3 C70_3 1_555 1_555
H47_3 C95_3 1_555 1_555
H57_3 C105_3 1_555 1_555
In16_3 O9_5 1_555 1_555
C95_3 C105_3 1_555 1_555
In5_2 O10_6 1_555 1_555
In18_2 O10_6 1_555 1_555
In24 O10_6 1_555 1_555
O19_4 In5_2 1_555 1_555
O20_4 In5_2 1_555 1_555
O34_6 In18_2 1_555 1_555
O37_4 In18_2 1_555 1_555
N9_6 In18_2 1_555 1_555
O51_4 In5_2 1_555 1_555
O52_4 In24 1_555 1_555
O57_4 In18_2 1_555 1_555
C46_4 O37_4 1_555 1_555
O61_6 In5_2 1_555 1_555
C66_4 C46_4 1_555 1_555
C76_4 C66_4 1_555 1_555
H33_4 C76_4 1_555 1_555
C91_4 C66_4 1_555 1_555
H43_4 C91_4 1_555 1_555
H53_4 C101_4 1_555 1_555
O52_4 C46_4 1_555 1_555
C91_4 C101_4 1_555 1_555
In8_2 O1_9 1_555 1_555
O1_9 In21_3 1_555 1_555
O5_6 C6_6 1_555 1_555
O6_6 In8_2 1_555 1_555
O7_4 C6_6 1_555 1_555
C3_6 O3_6 1_555 1_555
C4_6 C3_6 1_555 1_555
C6_6 C10_6 1_555 1_555
O8_9 In8_2 1_555 1_555
C10_6 C12_6 1_555 1_555
C11_6 N3_6 1_555 1_555
C12_6 H5_6 1_555 1_555
N2_6 C13_6 1_555 1_555
C13_6 C16_6 1_555 1_555
C14_6 C4_6 1_555 1_555
H6_6 C14_6 1_555 1_555
N3_6 N2_6 1_555 1_555
C15_6 C10_6 1_555 1_555
H7_6 C15_6 1_555 1_555
C16_6 C12_6 1_555 1_555
H8_6 C16_6 1_555 1_555
C17_6 C13_6 1_555 1_555
H9_6 C17_6 1_555 1_555
C18_6 C4_6 1_555 1_555
H10_6 C18_6 1_555 1_555
C19_6 C11_6 1_555 1_555
H11_6 C19_6 1_555 1_555
C20_6 C11_6 1_555 1_555
H12_6 C20_6 1_555 1_555
In7_2 O9_6 1_555 1_555
In6_5 O15_6 1_555 1_555
In6_3 O48_4 1_555 1_555
In24_2 O5_6 1_555 1_555
In16_4 O7_4 1_555 1_555
In25_2 N7_6 1_555 1_555
In21_4 O25_4 1_555 1_555
O9_6 In24_2 1_555 1_555
O15_6 C58_6 1_555 1_555
O16_4 In7_2 1_555 1_555
O18_4 In7_2 1_555 1_555
O26_3 C32_6 1_555 1_555
O25_4 C35_4 1_555 1_555
O36_3 C58_6 1_555 1_555
O32_6 In24_2 1_555 1_555
O41_4 In16_4 1_555 1_555
N6_6 In21_3 1_555 1_555
N7_6 C54_6 1_555 1_555
O50_2 C32_6 1_555 1_555
O48_4 C35_4 1_555 1_555
O49_4 In7_2 1_555 1_555
C23_6 H15_6 1_555 1_555
C24_6 H16_6 1_555 1_555
C28_6 H20_6 1_555 1_555
C29_6 H21_6 1_555 1_555
O53_6 In21_3 1_555 1_555
O56_4 In24_2 1_555 1_555
C32_6 C37_6 1_555 1_555
C35_4 C40_4 1_555 1_555
C37_6 C87_6 1_555 1_555
C40_4 C90_4 1_555 1_555
C43_6 C23_6 1_555 1_555
C44_6 C24_6 1_555 1_555
C47_6 O38_6 1_555 1_555
C50_4 O41_4 1_555 1_555
C53_6 N6_6 1_555 1_555
C54_6 C29_6 1_555 1_555
H26_6 C54_6 1_555 1_555
O60_6 In7_2 1_555 1_555
C58_6 C43_6 1_555 1_555
C59_6 O16_4 1_555 1_555
C63_6 N6_6 1_555 1_555
C64_6 N7_6 1_555 1_555
H30_6 C63_6 1_555 1_555
H31_6 C64_6 1_555 1_555
C67_6 C47_6 1_555 1_555
C70_4 C50_4 1_555 1_555
C72_6 N16_6 1_555 1_555
C75_4 N19_4 1_555 1_555
C77_6 C67_6 1_555 1_555
C80_4 C70_4 1_555 1_555
H34_6 C77_6 1_555 1_555
H37_4 C80_4 1_555 1_555
N11_6 C82_6 1_555 1_555
N14_4 C85_4 1_555 1_555
C82_6 C97_6 1_555 1_555
C85_4 C100_4 1_555 1_555
C87_6 H39_6 1_555 1_555
C90_4 H42_4 1_555 1_555
N16_6 N11_6 1_555 1_555
N19_4 N14_4 1_555 1_555
C92_6 C67_6 1_555 1_555
C95_4 C70_4 1_555 1_555
H44_6 C92_6 1_555 1_555
H47_4 C95_4 1_555 1_555
C97_6 C77_6 1_555 1_555
C100_4 C80_4 1_555 1_555
H49_6 C97_6 1_555 1_555
H52_4 C100_4 1_555 1_555
C102_6 C82_6 1_555 1_555
C105_4 C85_4 1_555 1_555
H54_6 C102_6 1_555 1_555
H57_4 C105_4 1_555 1_555
C107_6 C37_6 1_555 1_555
C110_4 C40_4 1_555 1_555
H59_6 C107_6 1_555 1_555
H62_4 C110_4 1_555 1_555
C112_6 C72_6 1_555 1_555
C115_4 C75_4 1_555 1_555
H64_6 C112_6 1_555 1_555
H67_4 C115_4 1_555 1_555
C117_6 C72_6 1_555 1_555
C120_4 C75_4 1_555 1_555
H69_6 C117_6 1_555 1_555
H72_4 C120_4 1_555 1_555
O6_6 C3_6 1_555 1_555
C14_6 C19_6 1_555 1_555
C15_6 C17_6 1_555 1_555
C18_6 C20_6 1_555 1_555
In16_4 O9_6 1_555 1_555
O32_6 C59_6 1_555 1_555
C23_6 C63_6 1_555 1_555
C24_6 C64_6 1_555 1_555
C28_6 C43_6 1_555 1_555
C28_6 C53_6 1_555 1_555
C29_6 C44_6 1_555 1_555
O53_6 C47_6 1_555 1_555
O56_4 C50_4 1_555 1_555
C44_6 C59_6 1_555 1_555
C87_6 C112_6 1_555 1_555
C90_4 C115_4 1_555 1_555
C92_6 C102_6 1_555 1_555
C95_4 C105_4 1_555 1_555
C107_6 C117_6 1_555 1_555
C110_4 C120_4 1_555 1_555
In8_3 O1_10 1_555 1_555
In19_4 O1_10 1_555 1_555
O8_10 In8_3 1_555 1_555
In8_4 O14_6 1_555 1_555
O14_6 C57_6 1_555 1_555
O21_4 C31_4 1_555 1_555
O35_4 C57_6 1_555 1_555
N5_6 In19_4 1_555 1_555
O44_4 In8_3 1_555 1_555
C22_6 H14_6 1_555 1_555
C27_6 H19_6 1_555 1_555
C31_4 O44_4 1_555 1_555
C36_4 C31_4 1_555 1_555
C42_6 C22_6 1_555 1_555
C52_6 N5_6 1_555 1_555
C57_6 C42_6 1_555 1_555
C62_6 N5_6 1_555 1_555
H29_6 C62_6 1_555 1_555
C71_4 N15_4 1_555 1_555
N10_4 C81_4 1_555 1_555
C81_4 C96_4 1_555 1_555
C86_4 C36_4 1_555 1_555
H38_4 C86_4 1_555 1_555
N15_4 N10_4 1_555 1_555
H48_4 C96_4 1_555 1_555
C106_4 C36_4 1_555 1_555
H58_4 C106_4 1_555 1_555
C111_4 C71_4 1_555 1_555
H63_4 C111_4 1_555 1_555
C116_4 C71_4 1_555 1_555
H68_4 C116_4 1_555 1_555
C22_6 C62_6 1_555 1_555
C27_6 C42_6 1_555 1_555
C27_6 C52_6 1_555 1_555
C86_4 C111_4 1_555 1_555
C106_4 C116_4 1_555 1_555
C12_7 H5_7 1_555 1_555
In8 O1_11 1_555 1_555
In19_2 O1_11 1_555 1_555
O1_11 In21 1_555 1_555
O3_7 In19_2 1_555 1_555
O5_7 C6_7 1_555 1_555
O6_7 In8 1_555 1_555
C3_7 O3_7 1_555 1_555
C4_7 C3_7 1_555 1_555
C6_7 C10_7 1_555 1_555
C11_7 N3_7 1_555 1_555
N2_7 C13_7 1_555 1_555
C13_7 C16_7 1_555 1_555
C14_7 C4_7 1_555 1_555
H6_7 C14_7 1_555 1_555
N3_7 N2_7 1_555 1_555
C15_7 C10_7 1_555 1_555
H7_7 C15_7 1_555 1_555
C17_7 C13_7 1_555 1_555
H9_7 C17_7 1_555 1_555
C18_7 C4_7 1_555 1_555
H10_7 C18_7 1_555 1_555
C19_7 C11_7 1_555 1_555
H11_7 C19_7 1_555 1_555
C20_7 C11_7 1_555 1_555
In6_6 O14_7 1_555 1_555
In8_5 O15_7 1_555 1_555
In24_4 O5_7 1_555 1_555
In16_4 O22_4 1_555 1_555
In24 O23_4 1_555 1_555
In21_4 O40_4 1_555 1_555
In19_3 O55_4 1_555 1_555
In25_4 N7_7 1_555 1_555
O14_7 C57_7 1_555 1_555
O15_7 C58_7 1_555 1_555
O22_4 C32_7 1_555 1_555
O23_4 C33_4 1_555 1_555
O24_4 In24_4 1_555 1_555
O35_2 C57_7 1_555 1_555
O36 C58_7 1_555 1_555
O32_7 In24_4 1_555 1_555
O38_7 In19_2 1_555 1_555
O39_4 In21 1_555 1_555
O40_4 C49_4 1_555 1_555
N5_7 In19_2 1_555 1_555
N6_7 In21 1_555 1_555
N7_7 C54_7 1_555 1_555
O49_4 C32_7 1_555 1_555
O51_4 C33_4 1_555 1_555
C22_7 H14_7 1_555 1_555
C23_7 H15_7 1_555 1_555
C24_7 H16_7 1_555 1_555
C27_7 H19_7 1_555 1_555
C28_7 H20_7 1_555 1_555
C29_7 H21_7 1_555 1_555
O53_7 In21 1_555 1_555
O54_4 In19_2 1_555 1_555
O55_4 C49_4 1_555 1_555
C32_7 C37_7 1_555 1_555
C33_4 C38_4 1_555 1_555
C34_4 O24_4 1_555 1_555
C37_7 C87_7 1_555 1_555
C38_4 C88_4 1_555 1_555
C39_4 C34_4 1_555 1_555
C42_7 C22_7 1_555 1_555
C43_7 C23_7 1_555 1_555
C44_7 C24_7 1_555 1_555
C47_7 O38_7 1_555 1_555
C48_4 O39_4 1_555 1_555
C49_4 C69_4 1_555 1_555
C52_7 N5_7 1_555 1_555
C53_7 N6_7 1_555 1_555
C54_7 C29_7 1_555 1_555
H24_7 C52_7 1_555 1_555
H25_7 C53_7 1_555 1_555
H26_7 C54_7 1_555 1_555
C57_7 C42_7 1_555 1_555
C58_7 C43_7 1_555 1_555
C59_7 O20_3 1_555 1_555
C62_7 N5_7 1_555 1_555
C63_7 N6_7 1_555 1_555
C64_7 N7_7 1_555 1_555
H29_7 C62_7 1_555 1_555
H30_7 C63_7 1_555 1_555
H31_7 C64_7 1_555 1_555
C67_7 C47_7 1_555 1_555
C68_4 C48_4 1_555 1_555
C69_4 C79_4 1_555 1_555
C72_7 N16_7 1_555 1_555
C73_4 N17_4 1_555 1_555
C74_4 N18_4 1_555 1_555
C77_7 C67_7 1_555 1_555
C78_4 C68_4 1_555 1_555
C79_4 H36_4 1_555 1_555
H34_7 C77_7 1_555 1_555
H35_4 C78_4 1_555 1_555
N11_7 C82_7 1_555 1_555
N12_4 C83_4 1_555 1_555
N13_4 C84_4 1_555 1_555
C82_7 C97_7 1_555 1_555
C83_4 C98_4 1_555 1_555
C84_4 C99_4 1_555 1_555
C87_7 H39_7 1_555 1_555
C88_4 H40_4 1_555 1_555
C89_4 C39_4 1_555 1_555
H41_4 C89_4 1_555 1_555
N16_7 N11_7 1_555 1_555
N17_4 N12_4 1_555 1_555
N18_4 N13_4 1_555 1_555
C92_7 C67_7 1_555 1_555
C93_4 C68_4 1_555 1_555
C94_4 C69_4 1_555 1_555
H44_7 C92_7 1_555 1_555
H45_4 C93_4 1_555 1_555
H46_4 C94_4 1_555 1_555
C97_7 C77_7 1_555 1_555
C98_4 C78_4 1_555 1_555
C99_4 C79_4 1_555 1_555
H49_7 C97_7 1_555 1_555
H50_4 C98_4 1_555 1_555
H51_4 C99_4 1_555 1_555
C102_7 C82_7 1_555 1_555
C103_4 C83_4 1_555 1_555
C104_4 C84_4 1_555 1_555
H54_7 C102_7 1_555 1_555
H55_4 C103_4 1_555 1_555
H56_4 C104_4 1_555 1_555
C107_7 C37_7 1_555 1_555
C108_4 C38_4 1_555 1_555
C109_4 C39_4 1_555 1_555
H59_7 C107_7 1_555 1_555
H60_4 C108_4 1_555 1_555
H61_4 C109_4 1_555 1_555
C112_7 C72_7 1_555 1_555
C113_4 C73_4 1_555 1_555
C114_4 C74_4 1_555 1_555
H64_7 C112_7 1_555 1_555
H65_4 C113_4 1_555 1_555
H66_4 C114_4 1_555 1_555
C117_7 C72_7 1_555 1_555
C118_4 C73_4 1_555 1_555
C119_4 C74_4 1_555 1_555
H69_7 C117_7 1_555 1_555
H70_4 C118_4 1_555 1_555
H71_4 C119_4 1_555 1_555
O6_7 C3_7 1_555 1_555
C14_7 C19_7 1_555 1_555
C15_7 C17_7 1_555 1_555
C18_7 C20_7 1_555 1_555
O32_7 C59_7 1_555 1_555
O51_3 C34_4 1_555 1_555
C22_7 C62_7 1_555 1_555
C23_7 C63_7 1_555 1_555
C24_7 C64_7 1_555 1_555
C27_7 C42_7 1_555 1_555
C27_7 C52_7 1_555 1_555
C28_7 C43_7 1_555 1_555
C28_7 C53_7 1_555 1_555
C29_7 C44_7 1_555 1_555
O53_7 C47_7 1_555 1_555
O54_4 C48_4 1_555 1_555
C44_7 C59_7 1_555 1_555
C87_7 C112_7 1_555 1_555
C88_4 C113_4 1_555 1_555
C89_4 C114_4 1_555 1_555
C92_7 C102_7 1_555 1_555
C93_4 C103_4 1_555 1_555
C94_4 C104_4 1_555 1_555
C107_7 C117_7 1_555 1_555
C108_4 C118_4 1_555 1_555
C109_4 C119_4 1_555 1_555
O26_4 In16_3 1_555 1_555
O34_7 In16_3 1_555 1_555
N9_7 In16_3 1_555 1_555
O5_8 C6_8 1_555 1_555
O57_4 C6_8 1_555 1_555
C6_8 C10_8 1_555 1_555
C10_8 C12_8 1_555 1_555
C12_8 H5_8 1_555 1_555
C15_8 C10_8 1_555 1_555
H7_8 C15_8 1_555 1_555
H9_8 C17_8 1_555 1_555
In24 O5_8 1_555 1_555
In25 N7_8 1_555 1_555
O32_8 In24 1_555 1_555
N7_8 C54_8 1_555 1_555
C24_8 H16_8 1_555 1_555
C29_8 H21_8 1_555 1_555
C44_8 C24_8 1_555 1_555
C54_8 C29_8 1_555 1_555
H26_8 C54_8 1_555 1_555
C59_8 O20_4 1_555 1_555
C64_8 N7_8 1_555 1_555
H31_8 C64_8 1_555 1_555
C15_8 C17_8 1_555 1_555
O32_8 C59_8 1_555 1_555
C24_8 C64_8 1_555 1_555
C29_8 C44_8 1_555 1_555
C44_8 C59_8 1_555 1_555
In6_3 O1_12 1_555 1_555
In19_3 O1_12 1_555 1_555
O1_12 In21_4 1_555 1_555
O3_8 In19_3 1_555 1_555
O6_8 In6_3 1_555 1_555
C3_8 O3_8 1_555 1_555
C4_8 C3_8 1_555 1_555
O8_12 In6_3 1_555 1_555
C11_8 N3_8 1_555 1_555
N2_8 C13_8 1_555 1_555
C13_8 C16_8 1_555 1_555
C14_8 C4_8 1_555 1_555
H6_8 C14_8 1_555 1_555
N3_8 N2_8 1_555 1_555
H8_8 C16_8 1_555 1_555
C18_8 C4_8 1_555 1_555
H10_8 C18_8 1_555 1_555
C19_8 C11_8 1_555 1_555
H11_8 C19_8 1_555 1_555
C20_8 C11_8 1_555 1_555
H12_8 C20_8 1_555 1_555
In8_6 O14_8 1_555 1_555
In6_6 O15_8 1_555 1_555
O14_8 C57_8 1_555 1_555
O15_8 C58_8 1_555 1_555
O26_4 C32_8 1_555 1_555
O35_3 C57_8 1_555 1_555
O36_4 C58_8 1_555 1_555
O34_8 In16_4 1_555 1_555
O38_8 In19_3 1_555 1_555
N5_8 In19_3 1_555 1_555
N6_8 In21_4 1_555 1_555
N9_8 In16_4 1_555 1_555
O49_3 C32_8 1_555 1_555
C22_8 H14_8 1_555 1_555
C23_8 H15_8 1_555 1_555
C27_8 H19_8 1_555 1_555
C28_8 H20_8 1_555 1_555
O53_8 In21_4 1_555 1_555
C32_8 C37_8 1_555 1_555
C37_8 C87_8 1_555 1_555
C42_8 C22_8 1_555 1_555
C43_8 C23_8 1_555 1_555
C47_8 O38_8 1_555 1_555
C52_8 N5_8 1_555 1_555
C53_8 N6_8 1_555 1_555
H24_8 C52_8 1_555 1_555
H25_8 C53_8 1_555 1_555
C57_8 C42_8 1_555 1_555
C58_8 C43_8 1_555 1_555
C62_8 N5_8 1_555 1_555
C63_8 N6_8 1_555 1_555
H29_8 C62_8 1_555 1_555
H30_8 C63_8 1_555 1_555
C67_8 C47_8 1_555 1_555
C72_8 N16_8 1_555 1_555
C77_8 C67_8 1_555 1_555
H34_8 C77_8 1_555 1_555
N11_8 C82_8 1_555 1_555
C82_8 C97_8 1_555 1_555
C87_8 H39_8 1_555 1_555
N16_8 N11_8 1_555 1_555
C92_8 C67_8 1_555 1_555
H44_8 C92_8 1_555 1_555
C97_8 C77_8 1_555 1_555
H49_8 C97_8 1_555 1_555
C102_8 C82_8 1_555 1_555
H54_8 C102_8 1_555 1_555
C107_8 C37_8 1_555 1_555
H59_8 C107_8 1_555 1_555
C112_8 C72_8 1_555 1_555
H64_8 C112_8 1_555 1_555
C117_8 C72_8 1_555 1_555
H69_8 C117_8 1_555 1_555
O6_8 C3_8 1_555 1_555
C14_8 C19_8 1_555 1_555
C18_8 C20_8 1_555 1_555
C22_8 C62_8 1_555 1_555
C23_8 C63_8 1_555 1_555
C27_8 C42_8 1_555 1_555
C27_8 C52_8 1_555 1_555
C28_8 C43_8 1_555 1_555
C28_8 C53_8 1_555 1_555
O53_8 C47_8 1_555 1_555
C87_8 C112_8 1_555 1_555
C92_8 C102_8 1_555 1_555
C107_8 C117_8 1_555 1_555
In6_4 O11 1_555 1_555
In9 O10_7 1_555 1_555
In9_3 O46_3 1_555 1_555
In13_3 O10_7 1_555 1_555
In25_2 O23_5 1_555 1_555
O19_5 In9 1_555 1_555
O28_3 C31_5 1_555 1_555
O23_5 C33_5 1_555 1_555
O26_5 In13_3 1_555 1_555
O34_9 In13_3 1_555 1_555
O37_5 In13_3 1_555 1_555
N9_9 In13_3 1_555 1_555
O44_5 In6_4 1_555 1_555
O46_3 C33_5 1_555 1_555
O50_3 In9 1_555 1_555
O57_5 In13_3 1_555 1_555
C31_5 O44_5 1_555 1_555
C33_5 C38_5 1_555 1_555
C36_5 C31_5 1_555 1_555
C38_5 C88_5 1_555 1_555
C46_5 O37_5 1_555 1_555
C48_5 O43_3 1_555 1_555
O61_7 In9 1_555 1_555
C66_5 C46_5 1_555 1_555
C68_5 C48_5 1_555 1_555
C71_5 N15_5 1_555 1_555
C73_5 N17_5 1_555 1_555
C78_5 C68_5 1_555 1_555
H35_5 C78_5 1_555 1_555
N10_5 C81_5 1_555 1_555
N12_5 C83_5 1_555 1_555
C81_5 C96_5 1_555 1_555
C83_5 C98_5 1_555 1_555
C86_5 C36_5 1_555 1_555
C88_5 H40_5 1_555 1_555
H38_5 C86_5 1_555 1_555
N15_5 N10_5 1_555 1_555
N17_5 N12_5 1_555 1_555
C91_5 C66_5 1_555 1_555
C93_5 C68_5 1_555 1_555
H43_5 C91_5 1_555 1_555
H45_5 C93_5 1_555 1_555
C98_5 C78_5 1_555 1_555
H50_5 C98_5 1_555 1_555
C101_5 C81_5 1_555 1_555
C103_5 C83_5 1_555 1_555
H53_5 C101_5 1_555 1_555
H55_5 C103_5 1_555 1_555
C106_5 C36_5 1_555 1_555
C108_5 C38_5 1_555 1_555
H58_5 C106_5 1_555 1_555
H60_5 C108_5 1_555 1_555
C111_5 C71_5 1_555 1_555
C113_5 C73_5 1_555 1_555
H63_5 C111_5 1_555 1_555
H65_5 C113_5 1_555 1_555
C116_5 C71_5 1_555 1_555
C118_5 C73_5 1_555 1_555
H70_5 C118_5 1_555 1_555
O58 C48_5 1_555 1_555
C86_5 C111_5 1_555 1_555
C88_5 C113_5 1_555 1_555
C91_5 C101_5 1_555 1_555
C93_5 C103_5 1_555 1_555
C106_5 C116_5 1_555 1_555
C108_5 C118_5 1_555 1_555
In9_2 O10_8 1_555 1_555
In25 O10_8 1_555 1_555
O51_5 In9_2 1_555 1_555
O52_5 In25 1_555 1_555
O61_8 In9_2 1_555 1_555
H33_5 C76_5 1_555 1_555
In6_5 O11_2 1_555 1_555
O6_9 In6_5 1_555 1_555
C3_9 O27 1_555 1_555
C4_9 C3_9 1_555 1_555
C11_9 N3_9 1_555 1_555
N2_9 C13_9 1_555 1_555
C13_9 C16_9 1_555 1_555
C14_9 C4_9 1_555 1_555
H6_9 C14_9 1_555 1_555
N3_9 N2_9 1_555 1_555
C18_9 C4_9 1_555 1_555
H10_9 C18_9 1_555 1_555
C19_9 C11_9 1_555 1_555
H11_9 C19_9 1_555 1_555
C20_9 C11_9 1_555 1_555
In9_4 O45_3 1_555 1_555
In18_3 O22_5 1_555 1_555
O22_5 C32_9 1_555 1_555
O45_3 C32_9 1_555 1_555
C32_9 C37_9 1_555 1_555
C37_9 C87_9 1_555 1_555
C47_9 O42 1_555 1_555
C67_9 C47_9 1_555 1_555
C72_9 N16_9 1_555 1_555
C77_9 C67_9 1_555 1_555
H34_9 C77_9 1_555 1_555
N11_9 C82_9 1_555 1_555
C82_9 C97_9 1_555 1_555
C87_9 H39_9 1_555 1_555
N16_9 N11_9 1_555 1_555
C92_9 C67_9 1_555 1_555
H44_9 C92_9 1_555 1_555
C97_9 C77_9 1_555 1_555
H49_9 C97_9 1_555 1_555
C102_9 C82_9 1_555 1_555
H54_9 C102_9 1_555 1_555
C107_9 C37_9 1_555 1_555
H59_9 C107_9 1_555 1_555
C112_9 C72_9 1_555 1_555
H64_9 C112_9 1_555 1_555
C117_9 C72_9 1_555 1_555
H69_9 C117_9 1_555 1_555
O6_9 C3_9 1_555 1_555
C14_9 C19_9 1_555 1_555
C18_9 C20_9 1_555 1_555
O59_3 C47_9 1_555 1_555
C87_9 C112_9 1_555 1_555
C92_9 C102_9 1_555 1_555
C107_9 C117_9 1_555 1_555
In8_4 O48_5 1_555 1_555
O28_2 C35_5 1_555 1_555
O48_5 C35_5 1_555 1_555
C35_5 C40_5 1_555 1_555
C40_5 C90_5 1_555 1_555
C75_5 N19_5 1_555 1_555
N14_5 C85_5 1_555 1_555
C85_5 C100_5 1_555 1_555
C90_5 H42_5 1_555 1_555
N19_5 N14_5 1_555 1_555
C110_5 C40_5 1_555 1_555
H62_5 C110_5 1_555 1_555
C115_5 C75_5 1_555 1_555
H67_5 C115_5 1_555 1_555
C120_5 C75_5 1_555 1_555
C90_5 C115_5 1_555 1_555
C110_5 C120_5 1_555 1_555
O5_9 C6_9 1_555 1_555
C6_9 C10_9 1_555 1_555
C15_9 C10_9 1_555 1_555
H7_9 C15_9 1_555 1_555
H9_9 C17_9 1_555 1_555
In9_5 O9_7 1_555 1_555
In25_4 O5_9 1_555 1_555
O9_7 In25_4 1_555 1_555
O24_5 In25_4 1_555 1_555
O43 C49_5 1_555 1_555
O47_3 In9_5 1_555 1_555
O58_3 C49_5 1_555 1_555
O56_5 In25_4 1_555 1_555
C34_5 O24_5 1_555 1_555
C39_5 C34_5 1_555 1_555
C49_5 C69_5 1_555 1_555
O60_7 In9_5 1_555 1_555
C69_5 C79_5 1_555 1_555
C74_5 N18_5 1_555 1_555
C79_5 H36_5 1_555 1_555
H37_5 C80_5 1_555 1_555
N13_5 C84_5 1_555 1_555
C84_5 C99_5 1_555 1_555
C89_5 C39_5 1_555 1_555
H41_5 C89_5 1_555 1_555
N18_5 N13_5 1_555 1_555
C94_5 C69_5 1_555 1_555
H46_5 C94_5 1_555 1_555
C99_5 C79_5 1_555 1_555
H51_5 C99_5 1_555 1_555
C104_5 C84_5 1_555 1_555
H56_5 C104_5 1_555 1_555
C109_5 C39_5 1_555 1_555
H61_5 C109_5 1_555 1_555
C114_5 C74_5 1_555 1_555
H66_5 C114_5 1_555 1_555
C119_5 C74_5 1_555 1_555
H71_5 C119_5 1_555 1_555
C15_9 C17_9 1_555 1_555
O47_3 C34_5 1_555 1_555
C89_5 C114_5 1_555 1_555
C94_5 C104_5 1_555 1_555
C109_5 C119_5 1_555 1_555
C12_9 H5_9 1_555 1_555
In9_6 O9_8 1_555 1_555
In16_5 O7_5 1_555 1_555
O18_5 In9_6 1_555 1_555
O41_5 In16_5 1_555 1_555
O49_5 In9_6 1_555 1_555
C50_5 O41_5 1_555 1_555
O60_8 In9_6 1_555 1_555
C70_5 C50_5 1_555 1_555
C95_5 C70_5 1_555 1_555
H47_5 C95_5 1_555 1_555
H57_5 C105_5 1_555 1_555
In16_5 O9_8 1_555 1_555
C95_5 C105_5 1_555 1_555
In8_5 O12 1_555 1_555
O5_10 C6_10 1_555 1_555
O6_10 In8_5 1_555 1_555
O7_6 C6_10 1_555 1_555
C3_10 O27_3 1_555 1_555
C4_10 C3_10 1_555 1_555
C6_10 C10_10 1_555 1_555
O8_15 In8_5 1_555 1_555
C10_10 C12_10 1_555 1_555
C11_10 N3_10 1_555 1_555
C12_10 H5_10 1_555 1_555
N2_10 C13_10 1_555 1_555
C13_10 C16_10 1_555 1_555
C14_10 C4_10 1_555 1_555
H6_10 C14_10 1_555 1_555
N3_10 N2_10 1_555 1_555
C15_10 C10_10 1_555 1_555
H7_10 C15_10 1_555 1_555
C16_10 C12_10 1_555 1_555
H8_10 C16_10 1_555 1_555
C17_10 C13_10 1_555 1_555
H9_10 C17_10 1_555 1_555
C18_10 C4_10 1_555 1_555
H10_10 C18_10 1_555 1_555
C19_10 C11_10 1_555 1_555
H11_10 C19_10 1_555 1_555
C20_10 C11_10 1_555 1_555
H12_10 C20_10 1_555 1_555
In9_3 O9_9 1_555 1_555
In6_6 O48_6 1_555 1_555
In25_2 O5_10 1_555 1_555
In16_6 O7_6 1_555 1_555
O9_9 In25_2 1_555 1_555
O18_6 In9_3 1_555 1_555
O26_5 C32_10 1_555 1_555
O28_4 C35_6 1_555 1_555
O41_6 In16_6 1_555 1_555
O50_3 C32_10 1_555 1_555
O48_6 C35_6 1_555 1_555
O49_6 In9_3 1_555 1_555
O56_6 In25_2 1_555 1_555
C32_10 C37_10 1_555 1_555
C35_6 C40_6 1_555 1_555
C37_10 C87_10 1_555 1_555
C40_6 C90_6 1_555 1_555
C47_10 O42_3 1_555 1_555
C50_6 O41_6 1_555 1_555
O60_9 In9_3 1_555 1_555
C67_10 C47_10 1_555 1_555
C70_6 C50_6 1_555 1_555
C72_10 N16_10 1_555 1_555
C75_6 N19_6 1_555 1_555
C77_10 C67_10 1_555 1_555
C80_6 C70_6 1_555 1_555
H34_10 C77_10 1_555 1_555
H37_6 C80_6 1_555 1_555
N11_10 C82_10 1_555 1_555
N14_6 C85_6 1_555 1_555
C82_10 C97_10 1_555 1_555
C85_6 C100_6 1_555 1_555
C87_10 H39_10 1_555 1_555
C90_6 H42_6 1_555 1_555
N16_10 N11_10 1_555 1_555
N19_6 N14_6 1_555 1_555
C92_10 C67_10 1_555 1_555
C95_6 C70_6 1_555 1_555
H44_10 C92_10 1_555 1_555
H47_6 C95_6 1_555 1_555
C97_10 C77_10 1_555 1_555
C100_6 C80_6 1_555 1_555
H49_10 C97_10 1_555 1_555
H52_6 C100_6 1_555 1_555
C102_10 C82_10 1_555 1_555
C105_6 C85_6 1_555 1_555
H54_10 C102_10 1_555 1_555
H57_6 C105_6 1_555 1_555
C107_10 C37_10 1_555 1_555
C110_6 C40_6 1_555 1_555
H59_10 C107_10 1_555 1_555
H62_6 C110_6 1_555 1_555
C112_10 C72_10 1_555 1_555
C115_6 C75_6 1_555 1_555
H64_10 C112_10 1_555 1_555
H67_6 C115_6 1_555 1_555
C117_10 C72_10 1_555 1_555
C120_6 C75_6 1_555 1_555
H69_10 C117_10 1_555 1_555
H72_6 C120_6 1_555 1_555
O6_10 C3_10 1_555 1_555
C14_10 C19_10 1_555 1_555
C15_10 C17_10 1_555 1_555
C18_10 C20_10 1_555 1_555
In16_6 O9_9 1_555 1_555
O59 C47_10 1_555 1_555
O56_6 C50_6 1_555 1_555
C87_10 C112_10 1_555 1_555
C90_6 C115_6 1_555 1_555
C92_10 C102_10 1_555 1_555
C95_6 C105_6 1_555 1_555
C107_10 C117_10 1_555 1_555
C110_6 C120_6 1_555 1_555
In9_4 O10_9 1_555 1_555
In18_3 O10_9 1_555 1_555
In25_3 O10_9 1_555 1_555
O19_6 In9_4 1_555 1_555
O34_10 In18_3 1_555 1_555
O37_6 In18_3 1_555 1_555
N9_10 In18_3 1_555 1_555
O51_6 In9_4 1_555 1_555
O52_6 In25_3 1_555 1_555
O57_6 In18_3 1_555 1_555
C46_6 O37_6 1_555 1_555
O61_9 In9_4 1_555 1_555
C66_6 C46_6 1_555 1_555
C76_6 C66_6 1_555 1_555
H33_6 C76_6 1_555 1_555
C91_6 C66_6 1_555 1_555
H43_6 C91_6 1_555 1_555
H53_6 C101_6 1_555 1_555
O52_6 C46_6 1_555 1_555
C91_6 C101_6 1_555 1_555
In8_6 O12_2 1_555 1_555
O8_16 In8_6 1_555 1_555
O28 C31_6 1_555 1_555
O44_6 In8_6 1_555 1_555
C31_6 O44_6 1_555 1_555
C36_6 C31_6 1_555 1_555
C71_6 N15_6 1_555 1_555
N10_6 C81_6 1_555 1_555
C81_6 C96_6 1_555 1_555
C86_6 C36_6 1_555 1_555
H38_6 C86_6 1_555 1_555
N15_6 N10_6 1_555 1_555
H48_6 C96_6 1_555 1_555
C106_6 C36_6 1_555 1_555
H58_6 C106_6 1_555 1_555
C111_6 C71_6 1_555 1_555
H63_6 C111_6 1_555 1_555
C116_6 C71_6 1_555 1_555
H68_6 C116_6 1_555 1_555
C86_6 C111_6 1_555 1_555
C106_6 C116_6 1_555 1_555
C12_11 H5_11 1_555 1_555
In8_4 O12_3 1_555 1_555
O5_11 C6_11 1_555 1_555
O6_11 In8_4 1_555 1_555
C3_11 O27_4 1_555 1_555
C4_11 C3_11 1_555 1_555
C6_11 C10_11 1_555 1_555
C11_11 N3_11 1_555 1_555
N2_11 C13_11 1_555 1_555
C13_11 C16_11 1_555 1_555
C14_11 C4_11 1_555 1_555
H6_11 C14_11 1_555 1_555
N3_11 N2_11 1_555 1_555
C15_11 C10_11 1_555 1_555
H7_11 C15_11 1_555 1_555
C17_11 C13_11 1_555 1_555
H9_11 C17_11 1_555 1_555
C18_11 C4_11 1_555 1_555
H10_11 C18_11 1_555 1_555
C19_11 C11_11 1_555 1_555
H11_11 C19_11 1_555 1_555
C20_11 C11_11 1_555 1_555
In25 O5_11 1_555 1_555
In16_6 O22_6 1_555 1_555
In25_3 O23_6 1_555 1_555
O22_6 C32_11 1_555 1_555
O23_6 C33_6 1_555 1_555
O24_6 In25 1_555 1_555
O43_4 C49_6 1_555 1_555
O49_6 C32_11 1_555 1_555
O51_6 C33_6 1_555 1_555
O58_2 C49_6 1_555 1_555
C32_11 C37_11 1_555 1_555
C33_6 C38_6 1_555 1_555
C34_6 O24_6 1_555 1_555
C37_11 C87_11 1_555 1_555
C38_6 C88_6 1_555 1_555
C39_6 C34_6 1_555 1_555
C47_11 O42_4 1_555 1_555
C48_6 O43_2 1_555 1_555
C49_6 C69_6 1_555 1_555
C67_11 C47_11 1_555 1_555
C68_6 C48_6 1_555 1_555
C69_6 C79_6 1_555 1_555
C72_11 N16_11 1_555 1_555
C73_6 N17_6 1_555 1_555
C74_6 N18_6 1_555 1_555
C77_11 C67_11 1_555 1_555
C78_6 C68_6 1_555 1_555
C79_6 H36_6 1_555 1_555
H34_11 C77_11 1_555 1_555
H35_6 C78_6 1_555 1_555
N11_11 C82_11 1_555 1_555
N12_6 C83_6 1_555 1_555
N13_6 C84_6 1_555 1_555
C82_11 C97_11 1_555 1_555
C83_6 C98_6 1_555 1_555
C84_6 C99_6 1_555 1_555
C87_11 H39_11 1_555 1_555
C88_6 H40_6 1_555 1_555
C89_6 C39_6 1_555 1_555
H41_6 C89_6 1_555 1_555
N16_11 N11_11 1_555 1_555
N17_6 N12_6 1_555 1_555
N18_6 N13_6 1_555 1_555
C92_11 C67_11 1_555 1_555
C93_6 C68_6 1_555 1_555
C94_6 C69_6 1_555 1_555
H44_11 C92_11 1_555 1_555
H45_6 C93_6 1_555 1_555
H46_6 C94_6 1_555 1_555
C97_11 C77_11 1_555 1_555
C98_6 C78_6 1_555 1_555
C99_6 C79_6 1_555 1_555
H49_11 C97_11 1_555 1_555
H50_6 C98_6 1_555 1_555
H51_6 C99_6 1_555 1_555
C102_11 C82_11 1_555 1_555
C103_6 C83_6 1_555 1_555
C104_6 C84_6 1_555 1_555
H54_11 C102_11 1_555 1_555
H55_6 C103_6 1_555 1_555
H56_6 C104_6 1_555 1_555
C107_11 C37_11 1_555 1_555
C108_6 C38_6 1_555 1_555
C109_6 C39_6 1_555 1_555
H59_11 C107_11 1_555 1_555
H60_6 C108_6 1_555 1_555
H61_6 C109_6 1_555 1_555
C112_11 C72_11 1_555 1_555
C113_6 C73_6 1_555 1_555
C114_6 C74_6 1_555 1_555
H64_11 C112_11 1_555 1_555
H65_6 C113_6 1_555 1_555
H66_6 C114_6 1_555 1_555
C117_11 C72_11 1_555 1_555
C118_6 C73_6 1_555 1_555
C119_6 C74_6 1_555 1_555
H69_11 C117_11 1_555 1_555
H70_6 C118_6 1_555 1_555
H71_6 C119_6 1_555 1_555
O6_11 C3_11 1_555 1_555
C14_11 C19_11 1_555 1_555
C15_11 C17_11 1_555 1_555
C18_11 C20_11 1_555 1_555
O51_5 C34_6 1_555 1_555
O59_2 C47_11 1_555 1_555
O58_4 C48_6 1_555 1_555
C87_11 C112_11 1_555 1_555
C88_6 C113_6 1_555 1_555
C89_6 C114_6 1_555 1_555
C92_11 C102_11 1_555 1_555
C93_6 C103_6 1_555 1_555
C94_6 C104_6 1_555 1_555
C107_11 C117_11 1_555 1_555
C108_6 C118_6 1_555 1_555
C109_6 C119_6 1_555 1_555
O26_6 In16_5 1_555 1_555
O34_11 In16_5 1_555 1_555
N9_11 In16_5 1_555 1_555
O5_12 C6_12 1_555 1_555
O57_6 C6_12 1_555 1_555
C6_12 C10_12 1_555 1_555
C10_12 C12_12 1_555 1_555
C12_12 H5_12 1_555 1_555
C15_12 C10_12 1_555 1_555
H7_12 C15_12 1_555 1_555
H9_12 C17_12 1_555 1_555
In25_3 O5_12 1_555 1_555
C15_12 C17_12 1_555 1_555
In6_6 O11_3 1_555 1_555
O6_12 In6_6 1_555 1_555
C3_12 O27_2 1_555 1_555
C4_12 C3_12 1_555 1_555
O8_18 In6_6 1_555 1_555
C11_12 N3_12 1_555 1_555
N2_12 C13_12 1_555 1_555
C13_12 C16_12 1_555 1_555
C14_12 C4_12 1_555 1_555
H6_12 C14_12 1_555 1_555
N3_12 N2_12 1_555 1_555
H8_12 C16_12 1_555 1_555
C18_12 C4_12 1_555 1_555
H10_12 C18_12 1_555 1_555
C19_12 C11_12 1_555 1_555
H11_12 C19_12 1_555 1_555
C20_12 C11_12 1_555 1_555
H12_12 C20_12 1_555 1_555
O26_6 C32_12 1_555 1_555
O34_12 In16_6 1_555 1_555
N9_12 In16_6 1_555 1_555
O49_5 C32_12 1_555 1_555
C32_12 C37_12 1_555 1_555
C37_12 C87_12 1_555 1_555
C47_12 O42_2 1_555 1_555
C67_12 C47_12 1_555 1_555
C72_12 N16_12 1_555 1_555
C77_12 C67_12 1_555 1_555
H34_12 C77_12 1_555 1_555
N11_12 C82_12 1_555 1_555
C82_12 C97_12 1_555 1_555
C87_12 H39_12 1_555 1_555
N16_12 N11_12 1_555 1_555
C92_12 C67_12 1_555 1_555
H44_12 C92_12 1_555 1_555
C97_12 C77_12 1_555 1_555
H49_12 C97_12 1_555 1_555
C102_12 C82_12 1_555 1_555
H54_12 C102_12 1_555 1_555
C107_12 C37_12 1_555 1_555
H59_12 C107_12 1_555 1_555
C112_12 C72_12 1_555 1_555
H64_12 C112_12 1_555 1_555
C117_12 C72_12 1_555 1_555
H69_12 C117_12 1_555 1_555
O6_12 C3_12 1_555 1_555
C14_12 C19_12 1_555 1_555
C18_12 C20_12 1_555 1_555
O59_4 C47_12 1_555 1_555
C87_12 C112_12 1_555 1_555
C92_12 C102_12 1_555 1_555
C107_12 C117_12 1_555 1_555
O19_4 C58_9 1_555 1_555
O34_6 C58_9 1_555 1_555
C21_5 H13_5 1_555 1_555
C23_9 H15_9 1_555 1_555
C26_5 H18_5 1_555 1_555
C28_9 H20_9 1_555 1_555
C41_5 C21_5 1_555 1_555
C43_9 C23_9 1_555 1_555
C51_5 N9 1_555 1_555
C53_9 N9_12 1_555 1_555
H23_5 C51_5 1_555 1_555
H25_9 C53_9 1_555 1_555
C56_5 O18_6 1_555 1_555
C58_9 C43_9 1_555 1_555
C61_5 N9 1_555 1_555
C63_9 N9_12 1_555 1_555
H28_5 C61_5 1_555 1_555
H30_9 C63_9 1_555 1_555
O34_12 C56_5 1_555 1_555
C21_5 C61_5 1_555 1_555
C23_9 C63_9 1_555 1_555
C26_5 C41_5 1_555 1_555
C26_5 C51_5 1_555 1_555
C28_9 C43_9 1_555 1_555
C28_9 C53_9 1_555 1_555
C41_5 C56_5 1_555 1_555
O18_4 C58_10 1_555 1_555
O34_8 C58_10 1_555 1_555
C21_6 H13_6 1_555 1_555
C23_10 H15_10 1_555 1_555
C26_6 H18_6 1_555 1_555
C28_10 H20_10 1_555 1_555
C41_6 C21_6 1_555 1_555
C43_10 C23_10 1_555 1_555
C51_6 N9_2 1_555 1_555
C53_10 N9_9 1_555 1_555
H23_6 C51_6 1_555 1_555
H25_10 C53_10 1_555 1_555
C56_6 O19_5 1_555 1_555
C58_10 C43_10 1_555 1_555
C61_6 N9_2 1_555 1_555
C63_10 N9_9 1_555 1_555
H28_6 C61_6 1_555 1_555
H30_10 C63_10 1_555 1_555
O34_9 C56_6 1_555 1_555
C21_6 C61_6 1_555 1_555
C23_10 C63_10 1_555 1_555
C26_6 C41_6 1_555 1_555
C26_6 C51_6 1_555 1_555
C28_10 C43_10 1_555 1_555
C28_10 C53_10 1_555 1_555
C41_6 C56_6 1_555 1_555
O19_3 C58_11 1_555 1_555
O34_5 C58_11 1_555 1_555
C21_7 H13_7 1_555 1_555
C23_11 H15_11 1_555 1_555
C26_7 H18_7 1_555 1_555
C28_11 H20_11 1_555 1_555
C41_7 C21_7 1_555 1_555
C43_11 C23_11 1_555 1_555
C51_7 N9_4 1_555 1_555
C53_11 N9_10 1_555 1_555
H23_7 C51_7 1_555 1_555
H25_11 C53_11 1_555 1_555
C56_7 O19_6 1_555 1_555
C58_11 C43_11 1_555 1_555
C61_7 N9_4 1_555 1_555
C63_11 N9_10 1_555 1_555
H28_7 C61_7 1_555 1_555
H30_11 C63_11 1_555 1_555
O34_10 C56_7 1_555 1_555
C21_7 C61_7 1_555 1_555
C23_11 C63_11 1_555 1_555
C26_7 C41_7 1_555 1_555
C26_7 C51_7 1_555 1_555
C28_11 C43_11 1_555 1_555
C28_11 C53_11 1_555 1_555
C41_7 C56_7 1_555 1_555
O18_3 C58_12 1_555 1_555
O34_7 C58_12 1_555 1_555
C21_8 H13_8 1_555 1_555
C23_12 H15_12 1_555 1_555
C26_8 H18_8 1_555 1_555
C28_12 H20_12 1_555 1_555
C41_8 C21_8 1_555 1_555
C43_12 C23_12 1_555 1_555
C51_8 N9_3 1_555 1_555
C53_12 N9_11 1_555 1_555
H23_8 C51_8 1_555 1_555
H25_12 C53_12 1_555 1_555
C56_8 O18_5 1_555 1_555
C58_12 C43_12 1_555 1_555
C61_8 N9_3 1_555 1_555
C63_12 N9_11 1_555 1_555
H28_8 C61_8 1_555 1_555
H30_12 C63_12 1_555 1_555
O34_11 C56_8 1_555 1_555
C21_8 C61_8 1_555 1_555
C23_12 C63_12 1_555 1_555
C26_8 C41_8 1_555 1_555
C26_8 C51_8 1_555 1_555
C28_12 C43_12 1_555 1_555
C28_12 C53_12 1_555 1_555
C41_8 C56_8 1_555 1_555
O19_2 C58_13 1_555 1_555
O34_2 C58_13 1_555 1_555
C23_13 H15_13 1_555 1_555
C28_13 H20_13 1_555 1_555
C43_13 C23_13 1_555 1_555
C53_13 N9_8 1_555 1_555
H25_13 C53_13 1_555 1_555
C58_13 C43_13 1_555 1_555
C63_13 N9_8 1_555 1_555
H30_13 C63_13 1_555 1_555
C23_13 C63_13 1_555 1_555
C28_13 C43_13 1_555 1_555
C28_13 C53_13 1_555 1_555
O18_2 C58_14 1_555 1_555
O34_4 C58_14 1_555 1_555
C23_14 H15_14 1_555 1_555
C28_14 H20_14 1_555 1_555
C43_14 C23_14 1_555 1_555
C53_14 N9_5 1_555 1_555
H25_14 C53_14 1_555 1_555
C58_14 C43_14 1_555 1_555
C63_14 N9_5 1_555 1_555
H30_14 C63_14 1_555 1_555
C23_14 C63_14 1_555 1_555
C28_14 C43_14 1_555 1_555
C28_14 C53_14 1_555 1_555
O19 C58_15 1_555 1_555
O34 C58_15 1_555 1_555
C23_15 H15_15 1_555 1_555
C28_15 H20_15 1_555 1_555
C43_15 C23_15 1_555 1_555
C53_15 N9_6 1_555 1_555
H25_15 C53_15 1_555 1_555
C58_15 C43_15 1_555 1_555
C63_15 N9_6 1_555 1_555
H30_15 C63_15 1_555 1_555
C23_15 C63_15 1_555 1_555
C28_15 C43_15 1_555 1_555
C28_15 C53_15 1_555 1_555
O18 C58_16 1_555 1_555
O34_3 C58_16 1_555 1_555
C23_16 H15_16 1_555 1_555
C28_16 H20_16 1_555 1_555
C43_16 C23_16 1_555 1_555
C53_16 N9_7 1_555 1_555
H25_16 C53_16 1_555 1_555
C58_16 C43_16 1_555 1_555
C63_16 N9_7 1_555 1_555
H30_16 C63_16 1_555 1_555
C23_16 C63_16 1_555 1_555
C28_16 C43_16 1_555 1_555
C28_16 C53_16 1_555 1_555

#END
