
###############################################################################
#
# This file contains modified crystal structure data generated from the
# MOF subset of the Cambridge Structural Database (CSD) v543 
# hosted by the Cambridge Crystallographic Data Centre (CCDC).
#
# This work is licensed under the Creative Commons
# Attribution-NonCommercial-ShareAlike 4.0 International License.
# To view a copy of this license, visit
# http://creativecommons.org/licenses/by-nc-sa/4.0/
# or send a letter to
# Creative Commons, PO Box 1866, Mountain View, CA 94042, USA.
#
# CIF created using the CSD Python API on 29 September 2022
# The structure has been converted into the P1 space group
# The structure has a 3D framework
# The original CSD entry KADBAV is in the monoclinic crystal system
# The framework has been calculated to contain at least 10.0% void space
# The void calculation uses a probe of radius 1.32A, grid spacing 0.4
#
###############################################################################

data_KADBAV
_chemical_formula_moiety         '(C104 H72 N16 O24 Zn4)n'
_symmetry_cell_setting           triclinic
_symmetry_space_group_name_H-M   'P 1'
_symmetry_Int_Tables_number      1
_space_group_name_Hall           'P 1'
loop_
_symmetry_equiv_pos_site_id
_symmetry_equiv_pos_as_xyz
1 x,y,z
_cell_length_a                   12.8815(9)
_cell_length_b                   15.2513(11)
_cell_length_c                   14.1699(10)
_cell_angle_alpha                90
_cell_angle_beta                 92.331(4)
_cell_angle_gamma                90
_cell_volume                     2781.51
loop_
_atom_site_label
_atom_site_type_symbol
_atom_site_fract_x
_atom_site_fract_y
_atom_site_fract_z
C45 C 0.0886(2) 0.0260(2) 0.6307(2)
H31 H 0.1161 0.0803 0.6483
C49 C 0.4835(2) 0.0060(2) 0.6243(2)
C50 C 0.4168(2) 0.0734(2) 0.5956(3)
H34 H 0.4433 0.1286 0.5825
C51 C 0.3117(2) 0.0584(2) 0.5867(2)
H35 H 0.2678 0.1045 0.5690
O10 O 0.58657(15) 0.02528(16) 0.6389(2)
C42 C 0.0049(2) 0.8673(2) 0.5744(3)
C43 C 0.1105(2) 0.8825(2) 0.5725(2)
H30 H 0.1533 0.8383 0.5509
C44 C 0.1552(2) 0.9618(2) 0.6018(2)
C46 C 0.2691(2) 0.9767(2) 0.6033(2)
C47 C 0.33764(19) 0.90866(19) 0.6255(2)
H33 H 0.3115 0.8524 0.6334
C48 C 0.4441(2) 0.92237(19) 0.63606(19)
H36 H 0.6181 0.9809 0.6557
C52 C 0.5118(2) 0.8453(2) 0.6617(2)
O11 O 0.48471(18) 0.77158(15) 0.63228(18)
O12 O 0.59334(14) 0.85748(14) 0.71061(14)
Zn5 Zn 0.64874(2) 0.73659(2) 0.75099(2)
C12 C 0.9543(3) 0.4867(2) 0.5845(2)
H10 H 0.9235 0.4774 0.6418
N7 N 0.72515(16) 0.69026(14) 0.64257(15)
C33 C 0.7195(3) 0.7156(2) 0.5556(2)
H24 H 0.6746 0.7591 0.5326
N8 N 0.7857(2) 0.67228(19) 0.50240(18)
H25 H 0.7929 0.6795 0.4428
C34 C 0.8398(2) 0.6145(2) 0.5593(2)
C35 C 0.8012(2) 0.6269(2) 0.6471(2)
H26 H 0.8232 0.5970 0.7015
C36 C 0.9215(2) 0.5566(2) 0.5283(2)
C37 C 0.9681(3) 0.5694(2) 0.4430(2)
H27 H 0.9473 0.6158 0.4041
N5 N 0.75641(16) 0.77519(15) 0.84888(16)
C27 C 0.8039(2) 0.72818(19) 0.9158(2)
H19 H 0.7915 0.6690 0.9262
N6 N 0.87169(18) 0.77633(15) 0.96641(17)
C28 C 0.8699(2) 0.85956(18) 0.9301(2)
C29 C 0.7983(2) 0.85777(18) 0.8579(2)
H21 H 0.7801 0.9054 0.8198
C30 C 0.9375(2) 0.93045(18) 0.9666(2)
O7 O 0.54731(13) 0.65607(15) 0.80655(14)
C39 C 0.5870(2) 0.5847(2) 0.83064(19)
O8 O 0.68317(14) 0.56860(16) 0.82732(15)
C40 C 0.5195(2) 0.5133(2) 0.8653(2)
C41 C 0.5606(2) 0.4317(2) 0.8933(2)
C42_2 C 0.4951(2) 0.3673(2) 0.9256(3)
H29 H 0.5222 0.3137 0.9461
C43_2 C 0.3895(2) 0.3825(2) 0.9275(2)
H30_2 H 0.3467 0.3383 0.9491
C44_2 C 0.3448(2) 0.4618(2) 0.8982(2)
C45_2 C 0.4114(2) 0.5260(2) 0.8693(2)
H31_2 H 0.3839 0.5803 0.8517
O9 O 0.66324(15) 0.41400(17) 0.89163(19)
H32 H 0.6935 0.4558 0.8688
C46_2 C 0.2309(2) 0.4767(2) 0.8967(2)
C47_2 C 0.16236(19) 0.40866(19) 0.8745(2)
H33_2 H 0.1885 0.3524 0.8666
C48_2 C 0.0559(2) 0.42237(19) 0.86394(19)
C49_2 C 0.0165(2) 0.5060(2) 0.8757(2)
C50_2 C 0.0832(2) 0.5734(2) 0.9044(3)
H34_2 H 0.0567 0.6286 0.9175
C51_2 C 0.1883(2) 0.5584(2) 0.9133(2)
H35_2 H 0.2322 0.6045 0.9310
O11_2 O 0.01529(18) 0.27158(15) 0.86772(18)
C15 C 0.0606(2) 0.0683(2) 0.3933(2)
H11 H 0.0222 0.1863 0.4461
O3 O 0.16324(15) 0.08600(17) 0.39163(19)
H14 H 0.1935 0.0442 0.3688
H25_2 H 0.7071 0.1795 0.0572
C37_2 C 0.5319(3) 0.0694(2) 0.0570(2)
H27_2 H 0.5527 0.1158 0.0959
C38 C 0.4543(3) 0.0133(2) 0.0845(2)
H28 H 0.4235 0.0226 0.1418
N7_2 N 0.77485(16) 0.19026(14) 0.85743(15)
C33_2 C 0.7805(3) 0.2156(2) 0.9444(2)
H24_2 H 0.8254 0.2591 0.9674
N8_2 N 0.7143(2) 0.17228(19) 0.99760(18)
C34_2 C 0.6602(2) 0.1145(2) 0.9407(2)
C35_2 C 0.6988(2) 0.1269(2) 0.8529(2)
H26_2 H 0.6768 0.0970 0.7985
C36_2 C 0.5785(2) 0.0566(2) 0.9717(2)
Zn4 Zn 0.85126(2) 0.23659(2) 0.74901(2)
Zn1 Zn 0.14874(2) 0.76341(2) 0.25099(2)
N1 N 0.25641(16) 0.72481(15) 0.34888(16)
C1 C 0.3039(2) 0.77182(19) 0.4158(2)
H1 H 0.2915 0.8310 0.4262
N2 N 0.37169(18) 0.72367(15) 0.46641(17)
H2 H 0.4099 0.7416 0.5137
C2 C 0.3699(2) 0.64044(18) 0.4301(2)
C3 C 0.2983(2) 0.64223(18) 0.3579(2)
H3 H 0.2801 0.5946 0.3198
C4 C 0.4375(2) 0.56955(18) 0.4666(2)
C5 C 0.4925(2) 0.5752(2) 0.5524(2)
H4 H 0.4884 0.6260 0.5885
C6 C 0.4463(3) 0.4940(2) 0.4151(2)
H5 H 0.4105 0.4892 0.3570
N3 N 0.22515(16) 0.80974(14) 0.14257(15)
C7 C 0.2195(3) 0.7844(2) 0.0556(2)
H6 H 0.1746 0.7409 0.0326
N4 N 0.2857(2) 0.82772(19) 0.00240(18)
C8 C 0.3398(2) 0.8855(2) 0.0593(2)
C9 C 0.3012(2) 0.8731(2) 0.1471(2)
H8 H 0.3232 0.9030 0.2015
C10 C 0.4215(2) 0.9434(2) 0.0283(2)
O1 O 0.04731(13) 0.84393(15) 0.30655(14)
C13 C 0.0870(2) 0.9153(2) 0.33064(19)
O2 O 0.18317(14) 0.93140(16) 0.32732(15)
C14 C 0.0195(2) 0.9867(2) 0.3653(2)
N5_2 N 0.74359(16) 0.27519(15) 0.65112(16)
C27_2 C 0.6961(2) 0.22818(19) 0.5842(2)
H19_2 H 0.7085 0.1690 0.5738
N6_2 N 0.62831(18) 0.27633(15) 0.53359(17)
H20 H 0.5901 0.2584 0.4863
C28_2 C 0.6301(2) 0.35956(18) 0.5699(2)
C29_2 C 0.7017(2) 0.35777(18) 0.6421(2)
H21_2 H 0.7199 0.4054 0.6802
C30_2 C 0.5625(2) 0.43045(18) 0.5334(2)
C31 C 0.5075(2) 0.4248(2) 0.4476(2)
H22 H 0.5116 0.3740 0.4115
C32 C 0.5537(3) 0.5060(2) 0.5849(2)
H23 H 0.5895 0.5108 0.6430
O7_2 O 0.95269(13) 0.15607(15) 0.69345(14)
C39_2 C 0.9130(2) 0.0847(2) 0.66936(19)
O8_2 O 0.81683(14) 0.06860(16) 0.67268(15)
C40_2 C 0.9805(2) 0.0133(2) 0.6347(2)
O13 O 0.09334(14) 0.64252(14) 0.21061(14)
O14 O 0.90666(14) 0.35748(14) 0.78939(14)
O4 O 0.08657(15) 0.47472(16) 0.1389(2)
H18 H 0.1181 0.5191 0.1557
C26 C 0.0118(2) 0.6547(2) 0.1617(2)
O10_2 O 0.91343(15) 0.52528(16) 0.8611(2)
H36_2 H 0.8819 0.4809 0.8443
C52_2 C 0.9882(2) 0.3453(2) 0.8383(2)
H7 H 0.2929 0.8205 0.9428
C11 C 0.4681(3) 0.9306(2) 0.9430(2)
H9 H 0.4473 0.8842 0.9041
C12_2 C 0.5457(3) 0.9867(2) 0.9155(2)
H10_2 H 0.5765 0.9774 0.8582
C41_2 C 0.9394(2) 0.9317(2) 0.6067(2)
H29_2 H 0.9778 0.8137 0.5539
O9_2 O 0.83676(15) 0.91400(17) 0.60837(19)
H32_2 H 0.8065 0.9558 0.6312
C16 C 0.9951(2) 0.1327(2) 0.4256(3)
C17 C 0.8895(2) 0.1175(2) 0.4275(2)
H12 H 0.8467 0.1617 0.4491
C18 C 0.8448(2) 0.0382(2) 0.3982(2)
C20 C 0.7309(2) 0.0233(2) 0.3967(2)
C21 C 0.66236(19) 0.09134(19) 0.3745(2)
H15 H 0.6885 0.1476 0.3666
C22 C 0.5559(2) 0.07763(19) 0.36394(19)
H18_2 H 0.3819 0.0191 0.3443
C26_2 C 0.4882(2) 0.1547(2) 0.3383(2)
O5 O 0.51529(18) 0.22842(15) 0.36772(18)
O6 O 0.40666(14) 0.14252(14) 0.28939(14)
Zn3 Zn 0.35126(2) 0.26341(2) 0.24901(2)
N1_2 N 0.24359(16) 0.22481(15) 0.15112(16)
C1_2 C 0.1961(2) 0.27182(19) 0.0842(2)
H1_2 H 0.2085 0.3310 0.0738
N2_2 N 0.12831(18) 0.22367(15) 0.03359(17)
C2_2 C 0.1301(2) 0.14044(18) 0.0699(2)
C3_2 C 0.2017(2) 0.14223(18) 0.1421(2)
H3_2 H 0.2199 0.0946 0.1802
C4_2 C 0.0625(2) 0.06955(18) 0.0334(2)
N3_2 N 0.27485(16) 0.30974(14) 0.35743(15)
C7_2 C 0.2805(3) 0.2844(2) 0.4444(2)
H6_2 H 0.3254 0.2409 0.4674
N4_2 N 0.2143(2) 0.32772(19) 0.49760(18)
H7_2 H 0.2071 0.3205 0.5572
C8_2 C 0.1602(2) 0.3855(2) 0.4407(2)
C9_2 C 0.1988(2) 0.3731(2) 0.3529(2)
H8_2 H 0.1768 0.4030 0.2985
C10_2 C 0.0785(2) 0.4434(2) 0.4717(2)
C11_2 C 0.0319(3) 0.4306(2) 0.5570(2)
H9_2 H 0.0527 0.3842 0.5959
O1_2 O 0.45269(13) 0.34393(15) 0.19345(14)
C13_2 C 0.4130(2) 0.4153(2) 0.16936(19)
O2_2 O 0.31683(14) 0.43140(16) 0.17268(15)
C14_2 C 0.4805(2) 0.4867(2) 0.1347(2)
C15_2 C 0.4394(2) 0.5683(2) 0.1067(2)
C16_2 C 0.5049(2) 0.6327(2) 0.0744(3)
H11_2 H 0.4778 0.6863 0.0539
C17_2 C 0.6105(2) 0.6175(2) 0.0725(2)
H12_2 H 0.6533 0.6617 0.0509
C18_2 C 0.6552(2) 0.5382(2) 0.1018(2)
C19 C 0.5886(2) 0.4740(2) 0.1307(2)
H13 H 0.6161 0.4197 0.1483
O3_2 O 0.33676(15) 0.58600(17) 0.10837(19)
H14_2 H 0.3065 0.5442 0.1312
C20_2 C 0.7691(2) 0.5233(2) 0.1033(2)
C21_2 C 0.83764(19) 0.59134(19) 0.1255(2)
H15_2 H 0.8115 0.6476 0.1334
C22_2 C 0.9441(2) 0.57763(19) 0.13606(19)
C23 C 0.9835(2) 0.4940(2) 0.1243(2)
C24 C 0.9168(2) 0.4266(2) 0.0956(3)
H16 H 0.9433 0.3714 0.0825
C25 C 0.8117(2) 0.4416(2) 0.0867(2)
H17 H 0.7678 0.3955 0.0690
O5_2 O 0.98471(18) 0.72842(15) 0.13228(18)
C38_2 C 0.0457(3) 0.5133(2) 0.4155(2)
H28_2 H 0.0765 0.5226 0.3582
C19_2 C 0.9114(2) 0.9740(2) 0.3693(2)
H13_2 H 0.8839 0.9197 0.3517
C23_2 C 0.5165(2) 0.9940(2) 0.3757(2)
C24_2 C 0.5832(2) 0.9266(2) 0.4044(3)
H16_2 H 0.5567 0.8714 0.4175
C25_2 C 0.6883(2) 0.9416(2) 0.4133(2)
H17_2 H 0.7322 0.8955 0.4310
O4_2 O 0.41343(15) 0.97472(16) 0.3611(2)
H2_2 H 0.0901 0.2416 0.9863
C5_2 C 0.0075(2) 0.0752(2) 0.9476(2)
H4_2 H 0.0116 0.1260 0.9115
C6_2 C 0.0537(3) 0.9940(2) 0.0849(2)
H5_2 H 0.0895 0.9892 0.1430
C32_2 C 0.9463(3) 0.0060(2) 0.9151(2)
H23_2 H 0.9105 0.0108 0.8570
H20_2 H 0.9099 0.7584 0.0137
C31_2 C 0.9925(2) 0.9248(2) 0.0524(2)
H22_2 H 0.9884 0.8740 0.0885
loop_
_geom_bond_atom_site_label_1
_geom_bond_atom_site_label_2
_geom_bond_site_symmetry_1
_geom_bond_site_symmetry_2
H31 C45 1_555 1_555
C50 C49 1_555 1_555
H34 C50 1_555 1_555
H35 C51 1_555 1_555
O10 C49 1_555 1_555
C50 C51 1_555 1_555
C43 C42 1_555 1_555
H30 C43 1_555 1_555
C44 C43 1_555 1_555
C46 C44 1_555 1_555
C47 C46 1_555 1_555
H33 C47 1_555 1_555
C48 C47 1_555 1_555
C52 C48 1_555 1_555
O11 C52 1_555 1_555
O12 C52 1_555 1_555
Zn5 O12 1_555 1_555
H10 C12 1_555 1_555
N7 C33 1_555 1_555
C33 H24 1_555 1_555
N8 C33 1_555 1_555
H25 N8 1_555 1_555
C34 N8 1_555 1_555
C35 N7 1_555 1_555
H26 C35 1_555 1_555
C36 C12 1_555 1_555
C37 C36 1_555 1_555
H27 C37 1_555 1_555
Zn5 N7 1_555 1_555
C34 C35 1_555 1_555
C34 C36 1_555 1_555
N5 C27 1_555 1_555
C27 H19 1_555 1_555
N6 C27 1_555 1_555
C28 N6 1_555 1_555
C29 N5 1_555 1_555
H21 C29 1_555 1_555
C30 C28 1_555 1_555
Zn5 N5 1_555 1_555
O7 Zn5 1_555 1_555
C39 O7 1_555 1_555
O8 C39 1_555 1_555
C40 C39 1_555 1_555
C41 C40 1_555 1_555
C42_2 C41 1_555 1_555
H29 C42_2 1_555 1_555
C43_2 C42_2 1_555 1_555
H30_2 C43_2 1_555 1_555
C44_2 C43_2 1_555 1_555
C45_2 C40 1_555 1_555
H31_2 C45_2 1_555 1_555
O9 C41 1_555 1_555
H32 O9 1_555 1_555
C46_2 C44_2 1_555 1_555
C47_2 C46_2 1_555 1_555
H33_2 C47_2 1_555 1_555
C48_2 C47_2 1_555 1_555
C49_2 C48_2 1_555 1_555
C50_2 C49_2 1_555 1_555
H34_2 C50_2 1_555 1_555
C51_2 C46_2 1_555 1_555
H35_2 C51_2 1_555 1_555
C28 C29 1_555 1_555
C44_2 C45_2 1_555 1_555
C50_2 C51_2 1_555 1_555
O3 C15 1_555 1_555
H14 O3 1_555 1_555
H27_2 C37_2 1_555 1_555
H28 C38 1_555 1_555
C37_2 C38 1_555 1_555
N7_2 C33_2 1_555 1_555
C33_2 H24_2 1_555 1_555
N8_2 C33_2 1_555 1_555
C34_2 N8_2 1_555 1_555
C35_2 N7_2 1_555 1_555
H26_2 C35_2 1_555 1_555
Zn4 N7_2 1_555 1_555
C34_2 C35_2 1_555 1_555
C34_2 C36_2 1_555 1_555
Zn1 N1 1_555 1_555
N1 C1 1_555 1_555
C1 H1 1_555 1_555
N2 C1 1_555 1_555
H2 N2 1_555 1_555
C2 N2 1_555 1_555
C3 N1 1_555 1_555
H3 C3 1_555 1_555
C4 C2 1_555 1_555
C5 C4 1_555 1_555
H4 C5 1_555 1_555
C6 C4 1_555 1_555
H5 C6 1_555 1_555
N3 Zn1 1_555 1_555
C7 N3 1_555 1_555
H6 C7 1_555 1_555
N4 C7 1_555 1_555
C8 N4 1_555 1_555
C9 N3 1_555 1_555
H8 C9 1_555 1_555
C10 C8 1_555 1_555
O1 Zn1 1_555 1_555
C13 O1 1_555 1_555
O2 C13 1_555 1_555
C14 C13 1_555 1_555
N5_2 C27_2 1_555 1_555
C27_2 H19_2 1_555 1_555
N6_2 C27_2 1_555 1_555
H20 N6_2 1_555 1_555
C28_2 N6_2 1_555 1_555
C29_2 N5_2 1_555 1_555
H21_2 C29_2 1_555 1_555
C30_2 C28_2 1_555 1_555
C31 C6 1_555 1_555
H22 C31 1_555 1_555
C32 C5 1_555 1_555
H23 C32 1_555 1_555
Zn4 N5_2 1_555 1_555
O7_2 Zn4 1_555 1_555
C39_2 O7_2 1_555 1_555
O8_2 C39_2 1_555 1_555
C40_2 C39_2 1_555 1_555
O13 Zn1 1_555 1_555
O14 Zn4 1_555 1_555
C2 C3 1_555 1_555
C8 C9 1_555 1_555
C28_2 C29_2 1_555 1_555
C30_2 C31 1_555 1_555
C30_2 C32 1_555 1_555
H18 O4 1_555 1_555
O13 C26 1_555 1_555
H36_2 O10_2 1_555 1_555
O14 C52_2 1_555 1_555
H9 C11 1_555 1_555
C12_2 C11 1_555 1_555
H10_2 C12_2 1_555 1_555
O9_2 C41_2 1_555 1_555
H32_2 O9_2 1_555 1_555
C17 C16 1_555 1_555
H12 C17 1_555 1_555
C18 C17 1_555 1_555
C20 C18 1_555 1_555
C21 C20 1_555 1_555
H15 C21 1_555 1_555
C22 C21 1_555 1_555
C26_2 C22 1_555 1_555
O5 C26_2 1_555 1_555
O6 C26_2 1_555 1_555
Zn3 O6 1_555 1_555
Zn3 N1_2 1_555 1_555
N1_2 C1_2 1_555 1_555
C1_2 H1_2 1_555 1_555
N2_2 C1_2 1_555 1_555
C2_2 N2_2 1_555 1_555
C3_2 N1_2 1_555 1_555
H3_2 C3_2 1_555 1_555
C4_2 C2_2 1_555 1_555
N3_2 Zn3 1_555 1_555
C7_2 N3_2 1_555 1_555
H6_2 C7_2 1_555 1_555
N4_2 C7_2 1_555 1_555
H7_2 N4_2 1_555 1_555
C8_2 N4_2 1_555 1_555
C9_2 N3_2 1_555 1_555
H8_2 C9_2 1_555 1_555
C10_2 C8_2 1_555 1_555
C11_2 C10_2 1_555 1_555
H9_2 C11_2 1_555 1_555
O1_2 Zn3 1_555 1_555
C13_2 O1_2 1_555 1_555
O2_2 C13_2 1_555 1_555
C14_2 C13_2 1_555 1_555
C15_2 C14_2 1_555 1_555
C16_2 C15_2 1_555 1_555
H11_2 C16_2 1_555 1_555
C17_2 C16_2 1_555 1_555
H12_2 C17_2 1_555 1_555
C18_2 C17_2 1_555 1_555
C19 C14_2 1_555 1_555
H13 C19 1_555 1_555
O3_2 C15_2 1_555 1_555
H14_2 O3_2 1_555 1_555
C20_2 C18_2 1_555 1_555
C21_2 C20_2 1_555 1_555
H15_2 C21_2 1_555 1_555
C22_2 C21_2 1_555 1_555
C23 C22_2 1_555 1_555
C24 C23 1_555 1_555
H16 C24 1_555 1_555
C25 C20_2 1_555 1_555
H17 C25 1_555 1_555
C38_2 C10_2 1_555 1_555
H28_2 C38_2 1_555 1_555
C2_2 C3_2 1_555 1_555
C8_2 C9_2 1_555 1_555
C18_2 C19 1_555 1_555
C24 C25 1_555 1_555
H13_2 C19_2 1_555 1_555
C24_2 C23_2 1_555 1_555
H16_2 C24_2 1_555 1_555
H17_2 C25_2 1_555 1_555
O4_2 C23_2 1_555 1_555
C24_2 C25_2 1_555 1_555
H4_2 C5_2 1_555 1_555
H5_2 C6_2 1_555 1_555
H23_2 C32_2 1_555 1_555
H22_2 C31_2 1_555 1_555

#END
