
###############################################################################
#
# This file contains modified crystal structure data generated from the
# MOF subset of the Cambridge Structural Database (CSD) v543 
# hosted by the Cambridge Crystallographic Data Centre (CCDC).
#
# This work is licensed under the Creative Commons
# Attribution-NonCommercial-ShareAlike 4.0 International License.
# To view a copy of this license, visit
# http://creativecommons.org/licenses/by-nc-sa/4.0/
# or send a letter to
# Creative Commons, PO Box 1866, Mountain View, CA 94042, USA.
#
# CIF created using the CSD Python API on 29 September 2022
# The structure has been converted into the P1 space group
# The structure has a 3D framework
# The original CSD entry KADLOT is in the tetragonal crystal system
# The framework has been calculated to contain at least 10.0% void space
# The void calculation uses a probe of radius 1.32A, grid spacing 0.4
#
###############################################################################

data_KADLOT
_chemical_formula_moiety         '(C352 H224 Cu28 I9 N64 O60)n'
_symmetry_cell_setting           triclinic
_symmetry_space_group_name_H-M   'P 1'
_symmetry_Int_Tables_number      1
_space_group_name_Hall           'P 1'
loop_
_symmetry_equiv_pos_site_id
_symmetry_equiv_pos_as_xyz
1 x,y,z
_cell_length_a                   34.018(3)
_cell_length_b                   34.018(3)
_cell_length_c                   15.308(1)
_cell_angle_alpha                90
_cell_angle_beta                 90
_cell_angle_gamma                90
_cell_volume                     17714.8
loop_
_atom_site_label
_atom_site_type_symbol
_atom_site_fract_x
_atom_site_fract_y
_atom_site_fract_z
C6 C 0.12982(14) 0.17401(14) 0.00801(17)
H3 H 0.1276 0.1747 0.0699
H4 H 0.1821 0.2031 0.0012
C8 C 0.06545(11) 0.13946(12) 0.0013(3)
N1 N 0.01681(11) 0.08815(9) 0.0087(2)
N2 N 0.01166(14) 0.14458(12) 0.1029(3)
C11 C 0.04580(14) 0.15997(11) 0.0666(3)
H7 H 0.0557 0.1845 0.0864
Cu1 Cu 0.23616(2) 0.23849(2) 0.67480(5)
O1 O 0.19884(15) 0.20954(16) 0.7495(3)
O2 O 0.22270(14) 0.22863(15) 0.8777(3)
C1 C 0.19841(19) 0.21088(19) 0.8309(4)
C2 C 0.16544(11) 0.18980(13) 0.8767(2)
C3 C 0.13630(12) 0.17189(15) 0.82705(17)
H1 H 0.1385 0.1712 0.7652
C4 C 0.10393(11) 0.15503(14) 0.8679(2)
H2 H 0.0840 0.1428 0.8339
C5 C 0.10068(11) 0.15609(13) 0.9583(2)
C7 C 0.16220(12) 0.19086(14) 0.9672(2)
C9 C 0.05095(11) 0.10354(11) 0.9723(2)
H5 H 0.0644 0.0895 0.9277
O3 O 0.27421(14) 0.19558(14) 0.6858(3)
O4 O 0.29762(16) 0.21597(16) 0.8134(3)
C12 C 0.29775(19) 0.19374(18) 0.7480(4)
C13 C 0.32840(11) 0.16230(12) 0.7451(3)
C14 C 0.33043(12) 0.13685(13) 0.6742(2)
H8 H 0.3113 0.1383 0.6291
C15 C 0.36050(13) 0.10927(12) 0.6691(2)
H9 H 0.3619 0.0919 0.6207
C16 C 0.38853(11) 0.10714(12) 0.7350(3)
C17 C 0.38650(12) 0.13259(14) 0.8059(2)
H10 H 0.4057 0.1311 0.8510
C18 C 0.35643(13) 0.16016(13) 0.8109(2)
H11 H 0.3550 0.1776 0.8594
C19 C 0.42083(10) 0.07844(11) 0.7303(2)
C20 C 0.43953(11) 0.07062(11) 0.65143(17)
H12 H 0.4299 0.0819 0.5989
N3 N 0.47233(10) 0.04627(11) 0.64948(16)
C21 C 0.48643(9) 0.02974(10) 0.7264(2)
H13 H 0.5089 0.0131 0.7250
N4 N 0.46774(10) 0.03756(10) 0.80522(16)
C22 C 0.43494(10) 0.06191(11) 0.80718(17)
H14 H 0.4222 0.0673 0.8611
Cu3 Cu 0.48849(2) 0.01384(2) 0.92480(5)
Cu4 Cu 0.26384(2) 0.26151(2) 0.82520(5)
Cu6 Cu 0.49855(3) 0.03431(3) 0.53234(5)
O5 O 0.27730(14) 0.27137(15) 0.6223(3)
O6 O 0.20238(16) 0.28403(16) 0.6866(3)
N6 N 0.21244(10) 0.21774(10) 0.55522(16)
Cu5 Cu 0.00145(3) 0.96569(3) 0.03234(5)
Cu2 Cu 0.99855(3) 0.03431(3) 0.96766(5)
N5 N 0.97233(10) 0.04627(11) 0.85052(16)
I1 I 0.43980(2) 0.01024(2) 0.43468(3)
Cu1_2 Cu 0.26384(2) 0.76151(2) 0.17480(5)
Cu2_2 Cu 0.50145(3) 0.96569(3) 0.46766(5)
O1_2 O 0.30116(15) 0.79046(16) 0.2495(3)
O2_2 O 0.27730(14) 0.77137(15) 0.3777(3)
C1_2 C 0.30159(19) 0.78912(19) 0.3309(4)
C2_2 C 0.33456(11) 0.81020(13) 0.3767(2)
C3_2 C 0.36370(12) 0.82811(15) 0.32705(17)
H1_2 H 0.3615 0.8288 0.2652
C4_2 C 0.39607(11) 0.84497(14) 0.3679(2)
H2_2 H 0.4160 0.8572 0.3339
C5_2 C 0.39932(11) 0.84391(13) 0.4583(2)
C6_2 C 0.37018(14) 0.82599(14) 0.50801(17)
H3_2 H 0.3724 0.8253 0.5699
C7_2 C 0.33780(12) 0.80914(14) 0.4672(2)
H4_2 H 0.3179 0.7969 0.5012
C8_2 C 0.43455(11) 0.86054(12) 0.5013(3)
C9_2 C 0.44905(11) 0.89646(11) 0.4723(2)
H5_2 H 0.4356 0.9105 0.4277
N1_2 N 0.48319(11) 0.91185(9) 0.5087(2)
C10 C 0.50283(11) 0.89133(12) 0.5739(3)
H6 H 0.5262 0.9019 0.5987
N2_2 N 0.48834(14) 0.85542(12) 0.6029(3)
C11_2 C 0.45420(14) 0.84003(11) 0.5666(3)
H7_2 H 0.4443 0.8155 0.5864
O3_2 O 0.22579(14) 0.80442(14) 0.1858(3)
O4_2 O 0.20238(16) 0.78403(16) 0.3134(3)
C12_2 C 0.20225(19) 0.80626(18) 0.2480(4)
C13_2 C 0.17160(11) 0.83770(12) 0.2451(3)
C14_2 C 0.16957(12) 0.86315(13) 0.1742(2)
H8_2 H 0.1887 0.8617 0.1291
C15_2 C 0.13950(13) 0.89073(12) 0.1691(2)
H9_2 H 0.1381 0.9081 0.1207
C16_2 C 0.11147(11) 0.89286(12) 0.2350(3)
C17_2 C 0.11350(12) 0.86741(14) 0.3059(2)
H10_2 H 0.0943 0.8689 0.3510
C18_2 C 0.14357(13) 0.83984(13) 0.3109(2)
H11_2 H 0.1450 0.8224 0.3594
C19_2 C 0.07917(10) 0.92156(11) 0.2303(2)
C20_2 C 0.06047(11) 0.92938(11) 0.15143(17)
H12_2 H 0.0701 0.9181 0.0989
N3_2 N 0.02767(10) 0.95373(11) 0.14948(16)
C21_2 C 0.01357(9) 0.97026(10) 0.2264(2)
N4_2 N 0.03226(10) 0.96244(10) 0.30522(16)
C22_2 C 0.06506(10) 0.93809(11) 0.30718(17)
H14_2 H 0.0778 0.9327 0.3611
Cu3_2 Cu 0.01151(2) 0.98616(2) 0.42480(5)
Cu4_2 Cu 0.23616(2) 0.73849(2) 0.32520(5)
I2 I 0.56020(2) 0.98976(2) 0.56532(3)
O5_2 O 0.22270(14) 0.72863(15) 0.1223(3)
O6_2 O 0.29762(16) 0.71597(16) 0.1866(3)
N5_2 N 0.52767(10) 0.95373(11) 0.35052(16)
N6_2 N 0.28756(10) 0.78226(10) 0.05522(16)
Cu2_3 Cu 0.71569(3) 0.24855(3) 0.21766(5)
I1_2 I 0.76024(2) 0.31020(2) 0.18468(3)
O2_3 O 0.52137(15) 0.47270(14) 0.1277(3)
C1_3 C 0.53912(19) 0.44841(19) 0.0809(4)
C2_3 C 0.56020(13) 0.41544(11) 0.1267(2)
C3_3 C 0.57811(15) 0.38630(12) 0.07705(17)
H1_3 H 0.5788 0.3885 0.0152
C4_3 C 0.59497(14) 0.35393(11) 0.1179(2)
H2_3 H 0.6072 0.3340 0.0839
C5_3 C 0.59391(13) 0.35068(11) 0.2083(2)
C6_3 C 0.57599(14) 0.37982(14) 0.25801(17)
H3_3 H 0.5753 0.3776 0.3199
C7_3 C 0.55914(14) 0.41220(12) 0.2172(2)
H4_3 H 0.5469 0.4321 0.2512
C8_3 C 0.61054(12) 0.31545(11) 0.2513(3)
C9_3 C 0.64646(11) 0.30095(11) 0.2223(2)
H5_3 H 0.6605 0.3144 0.1777
N1_3 N 0.66185(9) 0.26681(11) 0.2587(2)
C10_2 C 0.64133(12) 0.24717(11) 0.3239(3)
H6_2 H 0.6519 0.2238 0.3487
N2_3 N 0.60542(12) 0.26166(14) 0.3529(3)
C11_3 C 0.59003(11) 0.29580(14) 0.3166(3)
H7_3 H 0.5655 0.3057 0.3364
O4_3 O 0.53403(16) 0.54762(16) 0.0634(3)
C17_3 C 0.61741(14) 0.63650(12) 0.0559(2)
H10_3 H 0.6189 0.6557 0.1010
C18_3 C 0.58984(13) 0.60643(13) 0.0609(2)
H11_3 H 0.5724 0.6050 0.1094
N4_3 N 0.71244(10) 0.71774(10) 0.05522(16)
C22_3 C 0.68809(11) 0.68494(10) 0.05718(17)
H14_3 H 0.6827 0.6722 0.1111
Cu3_3 Cu 0.73616(2) 0.73849(2) 0.17480(5)
Cu4_3 Cu 0.48849(2) 0.51384(2) 0.07520(5)
Cu5_2 Cu 0.78431(3) 0.25145(3) 0.28234(5)
I2_2 I 0.73976(2) 0.18980(2) 0.31532(3)
N5_3 N 0.70373(11) 0.22233(10) 0.10052(16)
Cu1_3 Cu 0.51151(2) 0.48616(2) 0.92480(5)
O1_3 O 0.54046(16) 0.44884(15) 0.9995(3)
O3_3 O 0.55442(14) 0.52421(14) 0.9358(3)
C12_3 C 0.55626(18) 0.54775(19) 0.9980(4)
C13_3 C 0.58770(12) 0.57840(11) 0.9951(3)
C14_3 C 0.61315(13) 0.58043(12) 0.9242(2)
H8_3 H 0.6117 0.5613 0.8791
C15_3 C 0.64073(12) 0.61050(13) 0.9191(2)
H9_3 H 0.6581 0.6119 0.8707
C16_3 C 0.64286(12) 0.63853(11) 0.9850(3)
C19_3 C 0.67156(11) 0.67083(10) 0.9803(2)
C20_3 C 0.67938(11) 0.68953(11) 0.90143(17)
H12_3 H 0.6681 0.6799 0.8489
N3_3 N 0.70373(11) 0.72233(10) 0.89948(16)
C21_3 C 0.72026(10) 0.73643(9) 0.9764(2)
H13_2 H 0.7369 0.7589 0.9750
Cu6_2 Cu 0.71569(3) 0.74855(3) 0.78234(5)
O5_3 O 0.47863(15) 0.52730(14) 0.8723(3)
O6_3 O 0.46597(16) 0.45238(16) 0.9366(3)
N6_3 N 0.53226(10) 0.46244(10) 0.80522(16)
Cu4_4 Cu 0.01151(2) 0.48616(2) 0.57520(5)
O5_4 O 0.02137(15) 0.47270(14) 0.3723(3)
O6_4 O 0.03403(16) 0.54762(16) 0.4366(3)
Cu1_4 Cu 0.98849(2) 0.51384(2) 0.42480(5)
Cu2_4 Cu 0.78431(3) 0.75145(3) 0.71766(5)
I1_3 I 0.73976(2) 0.68980(2) 0.68468(3)
O1_4 O 0.95954(16) 0.55116(15) 0.4995(3)
O2_4 O 0.97863(15) 0.52730(14) 0.6277(3)
C1_4 C 0.96088(19) 0.55159(19) 0.5809(4)
C2_4 C 0.93980(13) 0.58456(11) 0.6267(2)
C3_4 C 0.92189(15) 0.61370(12) 0.57705(17)
H1_4 H 0.9212 0.6115 0.5152
C4_4 C 0.90503(14) 0.64607(11) 0.6179(2)
H2_4 H 0.8928 0.6660 0.5839
C5_4 C 0.90609(13) 0.64932(11) 0.7083(2)
C6_4 C 0.92401(14) 0.62018(14) 0.75801(17)
H3_4 H 0.9247 0.6224 0.8199
C7_4 C 0.94086(14) 0.58780(12) 0.7172(2)
H4_4 H 0.9531 0.5679 0.7512
C8_4 C 0.88946(12) 0.68455(11) 0.7513(3)
C9_4 C 0.85354(11) 0.69905(11) 0.7223(2)
H5_4 H 0.8395 0.6856 0.6777
N1_4 N 0.83815(9) 0.73319(11) 0.7587(2)
C10_3 C 0.85867(12) 0.75283(11) 0.8239(3)
H6_3 H 0.8481 0.7762 0.8487
N2_4 N 0.89458(12) 0.73834(14) 0.8529(3)
C11_4 C 0.90997(11) 0.70420(14) 0.8166(3)
H7_4 H 0.9345 0.6943 0.8364
O3_4 O 0.94558(14) 0.47579(14) 0.4358(3)
O4_4 O 0.96597(16) 0.45238(16) 0.5634(3)
C12_4 C 0.94374(18) 0.45225(19) 0.4980(4)
C13_4 C 0.91230(12) 0.42160(11) 0.4951(3)
C14_4 C 0.88685(13) 0.41957(12) 0.4242(2)
H8_4 H 0.8883 0.4387 0.3791
C15_4 C 0.85927(12) 0.38950(13) 0.4191(2)
H9_4 H 0.8419 0.3881 0.3707
C16_4 C 0.85714(12) 0.36147(11) 0.4850(3)
C17_4 C 0.88259(14) 0.36350(12) 0.5559(2)
H10_4 H 0.8811 0.3443 0.6010
C18_4 C 0.91016(13) 0.39357(13) 0.5609(2)
H11_4 H 0.9276 0.3950 0.6094
C19_4 C 0.82844(11) 0.32917(10) 0.4803(2)
C20_4 C 0.82062(11) 0.31047(11) 0.40143(17)
H12_4 H 0.8319 0.3201 0.3489
N3_4 N 0.79627(11) 0.27767(10) 0.39948(16)
C21_4 C 0.77974(10) 0.26357(9) 0.4764(2)
H13_3 H 0.7631 0.2411 0.4750
N4_4 N 0.78756(10) 0.28226(10) 0.55522(16)
C22_4 C 0.81191(11) 0.31506(10) 0.55718(17)
H14_4 H 0.8173 0.3278 0.6111
Cu3_4 Cu 0.76384(2) 0.26151(2) 0.67480(5)
I2_3 I 0.76024(2) 0.81020(2) 0.81532(3)
N5_4 N 0.79627(11) 0.77767(10) 0.60052(16)
N6_4 N 0.96774(10) 0.53756(10) 0.30522(16)
Cu2_5 Cu 0.49855(3) 0.53431(3) 0.46766(5)
I1_4 I 0.56020(2) 0.48976(2) 0.43468(3)
O1_5 O 0.69884(15) 0.70954(16) 0.2495(3)
O2_5 O 0.72270(14) 0.72863(15) 0.3777(3)
C1_5 C 0.69841(19) 0.71088(19) 0.3309(4)
C2_5 C 0.66544(11) 0.68980(13) 0.3767(2)
C3_5 C 0.63630(12) 0.67189(15) 0.32705(17)
H1_5 H 0.6385 0.6712 0.2652
C4_5 C 0.60393(11) 0.65503(14) 0.3679(2)
H2_5 H 0.5840 0.6428 0.3339
C5_5 C 0.60068(11) 0.65609(13) 0.4583(2)
C6_5 C 0.62982(14) 0.67401(14) 0.50801(17)
H3_5 H 0.6276 0.6747 0.5699
C7_5 C 0.66220(12) 0.69086(14) 0.4672(2)
H4_5 H 0.6821 0.7031 0.5012
C8_5 C 0.56545(11) 0.63946(12) 0.5013(3)
C9_5 C 0.55095(11) 0.60354(11) 0.4723(2)
H5_5 H 0.5644 0.5895 0.4277
N1_5 N 0.51681(11) 0.58815(9) 0.5087(2)
C10_4 C 0.49717(11) 0.60867(12) 0.5739(3)
H6_4 H 0.4738 0.5981 0.5987
N2_5 N 0.51166(14) 0.64458(12) 0.6029(3)
C11_5 C 0.54580(14) 0.65997(11) 0.5666(3)
H7_5 H 0.5557 0.6845 0.5864
O3_5 O 0.77421(14) 0.69558(14) 0.1858(3)
O4_5 O 0.79762(16) 0.71597(16) 0.3134(3)
C12_5 C 0.79775(19) 0.69374(18) 0.2480(4)
C13_5 C 0.82840(11) 0.66230(12) 0.2451(3)
C14_5 C 0.83043(12) 0.63685(13) 0.1742(2)
H8_5 H 0.8113 0.6383 0.1291
C15_5 C 0.86050(13) 0.60927(12) 0.1691(2)
H9_5 H 0.8619 0.5919 0.1207
C16_5 C 0.88853(11) 0.60714(12) 0.2350(3)
C17_5 C 0.88650(12) 0.63259(14) 0.3059(2)
H10_5 H 0.9057 0.6311 0.3510
C18_5 C 0.85643(13) 0.66016(13) 0.3109(2)
H11_5 H 0.8550 0.6776 0.3594
C19_5 C 0.92083(10) 0.57844(11) 0.2303(2)
C20_5 C 0.93953(11) 0.57062(11) 0.15143(17)
H12_5 H 0.9299 0.5819 0.0989
N3_5 N 0.97233(10) 0.54627(11) 0.14948(16)
C21_5 C 0.98643(9) 0.52974(10) 0.2264(2)
C22_5 C 0.93494(10) 0.56191(11) 0.30718(17)
H14_5 H 0.9222 0.5673 0.3611
Cu4_5 Cu 0.76384(2) 0.76151(2) 0.32520(5)
Cu5_3 Cu 0.50145(3) 0.46569(3) 0.53234(5)
Cu6_3 Cu 0.99855(3) 0.53431(3) 0.03234(5)
I2_4 I 0.43980(2) 0.51024(2) 0.56532(3)
O5_5 O 0.77730(14) 0.77137(15) 0.1223(3)
O6_5 O 0.70238(16) 0.78403(16) 0.1866(3)
N5_5 N 0.47233(10) 0.54627(11) 0.35052(16)
C10_5 C 0.00283(11) 0.39133(12) 0.0739(3)
H6_5 H 0.0262 0.4019 0.0987
I2_5 I 0.06020(2) 0.48976(2) 0.06532(3)
Cu2_6 Cu 0.00145(3) 0.46569(3) 0.96766(5)
N5_6 N 0.02767(10) 0.45373(11) 0.85052(16)
C6_6 C 0.87018(14) 0.32599(14) 0.00801(17)
H3_6 H 0.8724 0.3253 0.0699
H4_6 H 0.8179 0.2969 0.0012
C8_6 C 0.93455(11) 0.36054(12) 0.0013(3)
N1_6 N 0.98319(11) 0.41185(9) 0.0087(2)
N2_6 N 0.98834(14) 0.35542(12) 0.1029(3)
C11_6 C 0.95420(14) 0.34003(11) 0.0666(3)
H7_6 H 0.9443 0.3155 0.0864
I1_5 I 0.93980(2) 0.51024(2) 0.93468(3)
O1_6 O 0.80116(15) 0.29046(16) 0.7495(3)
O2_6 O 0.77730(14) 0.27137(15) 0.8777(3)
C1_6 C 0.80159(19) 0.28912(19) 0.8309(4)
C2_6 C 0.83456(11) 0.31020(13) 0.8767(2)
C3_6 C 0.86370(12) 0.32811(15) 0.82705(17)
H1_6 H 0.8615 0.3288 0.7652
C4_6 C 0.89607(11) 0.34497(14) 0.8679(2)
H2_6 H 0.9160 0.3572 0.8339
C5_6 C 0.89932(11) 0.34391(13) 0.9583(2)
C7_6 C 0.83780(12) 0.30914(14) 0.9672(2)
C9_6 C 0.94905(11) 0.39646(11) 0.9723(2)
H5_6 H 0.9356 0.4105 0.9277
O3_6 O 0.72579(14) 0.30442(14) 0.6858(3)
O4_6 O 0.70238(16) 0.28403(16) 0.8134(3)
C12_6 C 0.70225(19) 0.30626(18) 0.7480(4)
C13_6 C 0.67160(11) 0.33770(12) 0.7451(3)
C14_6 C 0.66957(12) 0.36315(13) 0.6742(2)
H8_6 H 0.6887 0.3617 0.6291
C15_6 C 0.63950(13) 0.39073(12) 0.6691(2)
H9_6 H 0.6381 0.4081 0.6207
C16_6 C 0.61147(11) 0.39286(12) 0.7350(3)
C17_6 C 0.61350(12) 0.36741(14) 0.8059(2)
H10_6 H 0.5943 0.3689 0.8510
C18_6 C 0.64357(13) 0.33984(13) 0.8109(2)
H11_6 H 0.6450 0.3224 0.8594
C19_6 C 0.57917(10) 0.42156(11) 0.7303(2)
C20_6 C 0.56047(11) 0.42938(11) 0.65143(17)
H12_6 H 0.5701 0.4181 0.5989
N3_6 N 0.52767(10) 0.45373(11) 0.64948(16)
C21_6 C 0.51357(9) 0.47026(10) 0.7264(2)
H13_4 H 0.4911 0.4869 0.7250
C22_6 C 0.56506(10) 0.43809(11) 0.80718(17)
H14_6 H 0.5778 0.4327 0.8611
Cu4_6 Cu 0.73616(2) 0.23849(2) 0.82520(5)
O5_6 O 0.72270(14) 0.22863(15) 0.6223(3)
O6_6 O 0.79762(16) 0.21597(16) 0.6866(3)
O3_7 O 0.05442(14) 0.02421(14) 0.4358(3)
O4_7 O 0.03403(16) 0.04762(16) 0.5634(3)
C12_7 C 0.05626(18) 0.04775(19) 0.4980(4)
C13_7 C 0.08770(12) 0.07840(11) 0.4951(3)
C14_7 C 0.11315(13) 0.08043(12) 0.4242(2)
H8_7 H 0.1117 0.0613 0.3791
C15_7 C 0.14073(12) 0.11050(13) 0.4191(2)
H9_7 H 0.1581 0.1119 0.3707
C16_7 C 0.14286(12) 0.13853(11) 0.4850(3)
C17_7 C 0.11741(14) 0.13650(12) 0.5559(2)
H10_7 H 0.1189 0.1557 0.6010
C18_7 C 0.08984(13) 0.10643(13) 0.5609(2)
H11_7 H 0.0724 0.1050 0.6094
C19_7 C 0.17156(11) 0.17083(10) 0.4803(2)
C20_7 C 0.17938(11) 0.18953(11) 0.40143(17)
H12_7 H 0.1681 0.1799 0.3489
N3_7 N 0.20373(11) 0.22233(10) 0.39948(16)
C21_7 C 0.22026(10) 0.23643(9) 0.4764(2)
H13_5 H 0.2369 0.2589 0.4750
C22_7 C 0.18809(11) 0.18494(10) 0.55718(17)
H14_7 H 0.1827 0.1722 0.6111
Cu6_4 Cu 0.21569(3) 0.24855(3) 0.28234(5)
Cu2_7 Cu 0.21569(3) 0.74855(3) 0.71766(5)
I1_6 I 0.26024(2) 0.81020(2) 0.68468(3)
O1_7 O 0.04046(16) 0.94884(15) 0.4995(3)
O2_7 O 0.02137(15) 0.97270(14) 0.6277(3)
C1_7 C 0.03912(19) 0.94841(19) 0.5809(4)
C2_7 C 0.06020(13) 0.91544(11) 0.6267(2)
C3_7 C 0.07811(15) 0.88630(12) 0.57705(17)
H1_7 H 0.0788 0.8885 0.5152
C4_7 C 0.09497(14) 0.85393(11) 0.6179(2)
H2_7 H 0.1072 0.8340 0.5839
C5_7 C 0.09391(13) 0.85068(11) 0.7083(2)
C6_7 C 0.07599(14) 0.87982(14) 0.75801(17)
H3_7 H 0.0753 0.8776 0.8199
C7_7 C 0.05914(14) 0.91220(12) 0.7172(2)
H4_7 H 0.0469 0.9321 0.7512
C8_7 C 0.11054(12) 0.81545(11) 0.7513(3)
C9_7 C 0.14646(11) 0.80095(11) 0.7223(2)
H5_7 H 0.1605 0.8144 0.6777
N1_7 N 0.16185(9) 0.76681(11) 0.7587(2)
C10_6 C 0.14133(12) 0.74717(11) 0.8239(3)
H6_6 H 0.1519 0.7238 0.8487
N2_7 N 0.10542(12) 0.76166(14) 0.8529(3)
C11_7 C 0.09003(11) 0.79580(14) 0.8166(3)
H7_7 H 0.0655 0.8057 0.8364
Cu5_4 Cu 0.28431(3) 0.75145(3) 0.78234(5)
I2_6 I 0.23976(2) 0.68980(2) 0.81532(3)
N5_7 N 0.20373(11) 0.72233(10) 0.60052(16)
Cu4_7 Cu 0.98849(2) 0.01384(2) 0.57520(5)
O5_7 O 0.97863(15) 0.02730(14) 0.3723(3)
O6_7 O 0.96597(16) 0.95238(16) 0.4366(3)
Cu2_8 Cu 0.28431(3) 0.25145(3) 0.21766(5)
I1_7 I 0.23976(2) 0.18980(2) 0.18468(3)
O2_8 O 0.47863(15) 0.02730(14) 0.1277(3)
C1_8 C 0.46088(19) 0.05159(19) 0.0809(4)
C2_8 C 0.43980(13) 0.08456(11) 0.1267(2)
C3_8 C 0.42189(15) 0.11370(12) 0.07705(17)
H1_8 H 0.4212 0.1115 0.0152
C4_8 C 0.40503(14) 0.14607(11) 0.1179(2)
H2_8 H 0.3928 0.1660 0.0839
C5_8 C 0.40609(13) 0.14932(11) 0.2083(2)
C6_8 C 0.42401(14) 0.12018(14) 0.25801(17)
H3_8 H 0.4247 0.1224 0.3199
C7_8 C 0.44086(14) 0.08780(12) 0.2172(2)
H4_8 H 0.4531 0.0679 0.2512
C8_8 C 0.38946(12) 0.18455(11) 0.2513(3)
C9_8 C 0.35354(11) 0.19905(11) 0.2223(2)
H5_8 H 0.3395 0.1856 0.1777
N1_8 N 0.33815(9) 0.23319(11) 0.2587(2)
C10_7 C 0.35867(12) 0.25283(11) 0.3239(3)
H6_7 H 0.3481 0.2762 0.3487
N2_8 N 0.39458(12) 0.23834(14) 0.3529(3)
C11_8 C 0.40997(11) 0.20420(14) 0.3166(3)
H7_8 H 0.4345 0.1943 0.3364
I2_7 I 0.26024(2) 0.31020(2) 0.31532(3)
N5_8 N 0.29627(11) 0.27767(10) 0.10052(16)
O1_8 O 0.45954(16) 0.05116(15) 0.9995(3)
O6_8 O 0.53403(16) 0.04762(16) 0.9366(3)
O4_8 O 0.46597(16) 0.95238(16) 0.0634(3)
C17_8 C 0.38259(14) 0.86350(12) 0.0559(2)
H10_8 H 0.3811 0.8443 0.1010
C18_8 C 0.41016(13) 0.89357(13) 0.0609(2)
H11_8 H 0.4276 0.8950 0.1094
C22_8 C 0.31191(11) 0.81506(10) 0.05718(17)
H14_8 H 0.3173 0.8278 0.1111
Cu4_8 Cu 0.51151(2) 0.98616(2) 0.07520(5)
O3_8 O 0.44558(14) 0.97579(14) 0.9358(3)
C12_8 C 0.44374(18) 0.95225(19) 0.9980(4)
C13_8 C 0.41230(12) 0.92160(11) 0.9951(3)
C14_8 C 0.38685(13) 0.91957(12) 0.9242(2)
H8_8 H 0.3883 0.9387 0.8791
C15_8 C 0.35927(12) 0.88950(13) 0.9191(2)
H9_8 H 0.3419 0.8881 0.8707
C16_8 C 0.35714(12) 0.86147(11) 0.9850(3)
C19_8 C 0.32844(11) 0.82917(10) 0.9803(2)
C20_8 C 0.32062(11) 0.81047(11) 0.90143(17)
H12_8 H 0.3319 0.8201 0.8489
N3_8 N 0.29627(11) 0.77767(10) 0.89948(16)
C21_8 C 0.27974(10) 0.76357(9) 0.9764(2)
H13_6 H 0.2631 0.7411 0.9750
O5_8 O 0.52137(15) 0.97270(14) 0.8723(3)
O1_9 O 0.80116(15) 0.79046(16) 0.2505(3)
C1_9 C 0.80159(19) 0.78912(19) 0.1691(4)
C2_9 C 0.83456(11) 0.81020(13) 0.1233(2)
C3_9 C 0.86370(12) 0.82811(15) 0.17295(17)
H1_9 H 0.8615 0.8288 0.2348
C4_9 C 0.89607(11) 0.84497(14) 0.1321(2)
H2_9 H 0.9160 0.8572 0.1661
C5_9 C 0.89932(11) 0.84391(13) 0.0417(2)
C7_9 C 0.83780(12) 0.80914(14) 0.0328(2)
C9_9 C 0.94905(11) 0.89646(11) 0.0277(2)
H5_9 H 0.9356 0.9105 0.0723
O3_9 O 0.72579(14) 0.80442(14) 0.3142(3)
C12_9 C 0.70225(19) 0.80626(18) 0.2520(4)
C13_9 C 0.67160(11) 0.83770(12) 0.2549(3)
C14_9 C 0.66957(12) 0.86315(13) 0.3258(2)
H8_9 H 0.6887 0.8617 0.3709
C15_9 C 0.63950(13) 0.89073(12) 0.3309(2)
H9_9 H 0.6381 0.9081 0.3793
C16_9 C 0.61147(11) 0.89286(12) 0.2650(3)
C17_9 C 0.61350(12) 0.86741(14) 0.1941(2)
H10_9 H 0.5943 0.8689 0.1490
C18_9 C 0.64357(13) 0.83984(13) 0.1891(2)
H11_9 H 0.6450 0.8224 0.1406
C19_9 C 0.57917(10) 0.92156(11) 0.2697(2)
C20_9 C 0.56047(11) 0.92938(11) 0.34857(17)
H12_9 H 0.5701 0.9181 0.4011
C21_9 C 0.51357(9) 0.97026(10) 0.2736(2)
H13_7 H 0.4911 0.9869 0.2750
N4_5 N 0.53226(10) 0.96244(10) 0.19478(16)
C22_9 C 0.56506(10) 0.93809(11) 0.19282(17)
H14_9 H 0.5778 0.9327 0.1389
N6_5 N 0.78756(10) 0.78226(10) 0.44478(16)
O1_10 O 0.69884(15) 0.20954(16) 0.7505(3)
C1_10 C 0.69841(19) 0.21088(19) 0.6691(4)
C2_10 C 0.66544(11) 0.18980(13) 0.6233(2)
C3_10 C 0.63630(12) 0.17189(15) 0.67295(17)
H1_10 H 0.6385 0.1712 0.7348
C4_10 C 0.60393(11) 0.15503(14) 0.6321(2)
H2_10 H 0.5840 0.1428 0.6661
C5_10 C 0.60068(11) 0.15609(13) 0.5417(2)
C6_9 C 0.62982(14) 0.17401(14) 0.49199(17)
H3_9 H 0.6276 0.1747 0.4301
C7_10 C 0.66220(12) 0.19086(14) 0.5328(2)
H4_9 H 0.6821 0.2031 0.4988
C8_9 C 0.56545(11) 0.13946(12) 0.4987(3)
C9_10 C 0.55095(11) 0.10354(11) 0.5277(2)
H5_10 H 0.5644 0.0895 0.5723
N1_9 N 0.51681(11) 0.08815(9) 0.4913(2)
C10_8 C 0.49717(11) 0.10867(12) 0.4261(3)
H6_8 H 0.4738 0.0981 0.4013
N2_9 N 0.51166(14) 0.14458(12) 0.3971(3)
C11_9 C 0.54580(14) 0.15997(11) 0.4334(3)
H7_9 H 0.5557 0.1845 0.4136
O3_10 O 0.77421(14) 0.19558(14) 0.8142(3)
C12_10 C 0.79775(19) 0.19374(18) 0.7520(4)
C13_10 C 0.82840(11) 0.16230(12) 0.7549(3)
C14_10 C 0.83043(12) 0.13685(13) 0.8258(2)
H8_10 H 0.8113 0.1383 0.8709
C15_10 C 0.86050(13) 0.10927(12) 0.8309(2)
H9_10 H 0.8619 0.0919 0.8793
C16_10 C 0.88853(11) 0.10714(12) 0.7650(3)
C17_10 C 0.88650(12) 0.13259(14) 0.6941(2)
H10_10 H 0.9057 0.1311 0.6490
C18_10 C 0.85643(13) 0.16016(13) 0.6891(2)
H11_10 H 0.8550 0.1776 0.6406
C19_10 C 0.92083(10) 0.07844(11) 0.7697(2)
C20_10 C 0.93953(11) 0.07062(11) 0.84857(17)
H12_10 H 0.9299 0.0819 0.9011
C21_10 C 0.98643(9) 0.02974(10) 0.7736(2)
N4_6 N 0.96774(10) 0.03756(10) 0.69478(16)
C22_10 C 0.93494(10) 0.06191(11) 0.69282(17)
H14_10 H 0.9222 0.0673 0.6389
N6_6 N 0.71244(10) 0.21774(10) 0.94478(16)
O1_11 O 0.45954(16) 0.55116(15) 0.0005(3)
O3_11 O 0.44558(14) 0.47579(14) 0.0642(3)
C12_11 C 0.44374(18) 0.45225(19) 0.0020(4)
C13_11 C 0.41230(12) 0.42160(11) 0.0049(3)
C14_11 C 0.38685(13) 0.41957(12) 0.0758(2)
H8_11 H 0.3883 0.4387 0.1209
C15_11 C 0.35927(12) 0.38950(13) 0.0809(2)
H9_11 H 0.3419 0.3881 0.1293
C16_11 C 0.35714(12) 0.36147(11) 0.0150(3)
C19_11 C 0.32844(11) 0.32917(10) 0.0197(2)
C20_11 C 0.32062(11) 0.31047(11) 0.09857(17)
H12_11 H 0.3319 0.3201 0.1511
C21_11 C 0.27974(10) 0.26357(9) 0.0236(2)
H13_8 H 0.2631 0.2411 0.0250
N6_7 N 0.46774(10) 0.53756(10) 0.19478(16)
C1_11 C 0.46088(19) 0.55159(19) 0.9191(4)
C2_11 C 0.43980(13) 0.58456(11) 0.8733(2)
C3_11 C 0.42189(15) 0.61370(12) 0.92295(17)
H1_11 H 0.4212 0.6115 0.9848
C4_11 C 0.40503(14) 0.64607(11) 0.8821(2)
H2_11 H 0.3928 0.6660 0.9161
C5_11 C 0.40609(13) 0.64932(11) 0.7917(2)
C6_10 C 0.42401(14) 0.62018(14) 0.74199(17)
H3_10 H 0.4247 0.6224 0.6801
C7_11 C 0.44086(14) 0.58780(12) 0.7828(2)
H4_10 H 0.4531 0.5679 0.7488
C8_10 C 0.38946(12) 0.68455(11) 0.7487(3)
C9_11 C 0.35354(11) 0.69905(11) 0.7777(2)
H5_11 H 0.3395 0.6856 0.8223
N1_10 N 0.33815(9) 0.73319(11) 0.7413(2)
C10_9 C 0.35867(12) 0.75283(11) 0.6761(3)
H6_9 H 0.3481 0.7762 0.6513
N2_10 N 0.39458(12) 0.73834(14) 0.6471(3)
C11_10 C 0.40997(11) 0.70420(14) 0.6834(3)
H7_10 H 0.4345 0.6943 0.6636
C17_11 C 0.38259(14) 0.36350(12) 0.9441(2)
H10_11 H 0.3811 0.3443 0.8990
C18_11 C 0.41016(13) 0.39357(13) 0.9391(2)
H11_11 H 0.4276 0.3950 0.8906
N4_7 N 0.28756(10) 0.28226(10) 0.94478(16)
C22_11 C 0.31191(11) 0.31506(10) 0.94282(17)
H14_11 H 0.3173 0.3278 0.8889
O1_12 O 0.04046(16) 0.44884(15) 0.5005(3)
C1_12 C 0.03912(19) 0.44841(19) 0.4191(4)
C2_12 C 0.06020(13) 0.41544(11) 0.3733(2)
C3_12 C 0.07811(15) 0.38630(12) 0.42295(17)
H1_12 H 0.0788 0.3885 0.4848
C4_12 C 0.09497(14) 0.35393(11) 0.3821(2)
H2_12 H 0.1072 0.3340 0.4161
C5_12 C 0.09391(13) 0.35068(11) 0.2917(2)
C6_11 C 0.07599(14) 0.37982(14) 0.24199(17)
H3_11 H 0.0753 0.3776 0.1801
C7_12 C 0.05914(14) 0.41220(12) 0.2828(2)
H4_11 H 0.0469 0.4321 0.2488
C8_11 C 0.11054(12) 0.31545(11) 0.2487(3)
C9_12 C 0.14646(11) 0.30095(11) 0.2777(2)
H5_12 H 0.1605 0.3144 0.3223
N1_11 N 0.16185(9) 0.26681(11) 0.2413(2)
C10_10 C 0.14133(12) 0.24717(11) 0.1761(3)
H6_10 H 0.1519 0.2238 0.1513
N2_11 N 0.10542(12) 0.26166(14) 0.1471(3)
C11_11 C 0.09003(11) 0.29580(14) 0.1834(3)
H7_11 H 0.0655 0.3057 0.1636
O3_12 O 0.05442(14) 0.52421(14) 0.5642(3)
C12_12 C 0.05626(18) 0.54775(19) 0.5020(4)
C13_12 C 0.08770(12) 0.57840(11) 0.5049(3)
C14_12 C 0.11315(13) 0.58043(12) 0.5758(2)
H8_12 H 0.1117 0.5613 0.6209
C15_12 C 0.14073(12) 0.61050(13) 0.5809(2)
H9_12 H 0.1581 0.6119 0.6293
C16_12 C 0.14286(12) 0.63853(11) 0.5150(3)
C17_12 C 0.11741(14) 0.63650(12) 0.4441(2)
H10_12 H 0.1189 0.6557 0.3990
C18_12 C 0.08984(13) 0.60643(13) 0.4391(2)
H11_12 H 0.0724 0.6050 0.3906
C19_12 C 0.17156(11) 0.67083(10) 0.5197(2)
C20_12 C 0.17938(11) 0.68953(11) 0.59857(17)
H12_12 H 0.1681 0.6799 0.6511
C21_12 C 0.22026(10) 0.73643(9) 0.5236(2)
H13_9 H 0.2369 0.7589 0.5250
N4_8 N 0.21244(10) 0.71774(10) 0.44478(16)
C22_12 C 0.18809(11) 0.68494(10) 0.44282(17)
H14_12 H 0.1827 0.6722 0.3889
N6_8 N 0.03226(10) 0.46244(10) 0.69478(16)
O1_13 O 0.30116(15) 0.29046(16) 0.7505(3)
C1_13 C 0.30159(19) 0.28912(19) 0.6691(4)
C2_13 C 0.33456(11) 0.31020(13) 0.6233(2)
C3_13 C 0.36370(12) 0.32811(15) 0.67295(17)
H1_13 H 0.3615 0.3288 0.7348
C4_13 C 0.39607(11) 0.34497(14) 0.6321(2)
H2_13 H 0.4160 0.3572 0.6661
C5_13 C 0.39932(11) 0.34391(13) 0.5417(2)
C6_12 C 0.37018(14) 0.32599(14) 0.49199(17)
H3_12 H 0.3724 0.3253 0.4301
C7_13 C 0.33780(12) 0.30914(14) 0.5328(2)
H4_12 H 0.3179 0.2969 0.4988
C8_12 C 0.43455(11) 0.36054(12) 0.4987(3)
C9_13 C 0.44905(11) 0.39646(11) 0.5277(2)
H5_13 H 0.4356 0.4105 0.5723
N1_12 N 0.48319(11) 0.41185(9) 0.4913(2)
C10_11 C 0.50283(11) 0.39133(12) 0.4261(3)
H6_11 H 0.5262 0.4019 0.4013
N2_12 N 0.48834(14) 0.35542(12) 0.3971(3)
C11_12 C 0.45420(14) 0.34003(11) 0.4334(3)
H7_12 H 0.4443 0.3155 0.4136
O3_13 O 0.22579(14) 0.30442(14) 0.8142(3)
C12_13 C 0.20225(19) 0.30626(18) 0.7520(4)
C13_13 C 0.17160(11) 0.33770(12) 0.7549(3)
C14_13 C 0.16957(12) 0.36315(13) 0.8258(2)
H8_13 H 0.1887 0.3617 0.8709
C15_13 C 0.13950(13) 0.39073(12) 0.8309(2)
H9_13 H 0.1381 0.4081 0.8793
C16_13 C 0.11147(11) 0.39286(12) 0.7650(3)
C17_13 C 0.11350(12) 0.36741(14) 0.6941(2)
H10_13 H 0.0943 0.3689 0.6490
C18_13 C 0.14357(13) 0.33984(13) 0.6891(2)
H11_13 H 0.1450 0.3224 0.6406
C19_13 C 0.07917(10) 0.42156(11) 0.7697(2)
C20_13 C 0.06047(11) 0.42938(11) 0.84857(17)
H12_13 H 0.0701 0.4181 0.9011
C21_13 C 0.01357(9) 0.47026(10) 0.7736(2)
C22_13 C 0.06506(10) 0.43809(11) 0.69282(17)
H14_13 H 0.0778 0.4327 0.6389
O1_14 O 0.19884(15) 0.70954(16) 0.2505(3)
C1_14 C 0.19841(19) 0.71088(19) 0.1691(4)
C2_14 C 0.16544(11) 0.68980(13) 0.1233(2)
C3_14 C 0.13630(12) 0.67189(15) 0.17295(17)
H1_14 H 0.1385 0.6712 0.2348
C4_14 C 0.10393(11) 0.65503(14) 0.1321(2)
H2_14 H 0.0840 0.6428 0.1661
C5_14 C 0.10068(11) 0.65609(13) 0.0417(2)
C7_14 C 0.16220(12) 0.69086(14) 0.0328(2)
C9_14 C 0.05095(11) 0.60354(11) 0.0277(2)
H5_14 H 0.0644 0.5895 0.0723
O3_14 O 0.27421(14) 0.69558(14) 0.3142(3)
C12_14 C 0.29775(19) 0.69374(18) 0.2520(4)
C13_14 C 0.32840(11) 0.66230(12) 0.2549(3)
C14_14 C 0.33043(12) 0.63685(13) 0.3258(2)
H8_14 H 0.3113 0.6383 0.3709
C15_14 C 0.36050(13) 0.60927(12) 0.3309(2)
H9_14 H 0.3619 0.5919 0.3793
C16_14 C 0.38853(11) 0.60714(12) 0.2650(3)
C17_14 C 0.38650(12) 0.63259(14) 0.1941(2)
H10_14 H 0.4057 0.6311 0.1490
C18_14 C 0.35643(13) 0.66016(13) 0.1891(2)
H11_14 H 0.3550 0.6776 0.1406
C19_14 C 0.42083(10) 0.57844(11) 0.2697(2)
C20_14 C 0.43953(11) 0.57062(11) 0.34857(17)
H12_14 H 0.4299 0.5819 0.4011
C21_14 C 0.48643(9) 0.52974(10) 0.2736(2)
H13_10 H 0.5089 0.5131 0.2750
C22_14 C 0.43494(10) 0.56191(11) 0.19282(17)
H14_14 H 0.4222 0.5673 0.1389
C6_13 C 0.12982(14) 0.67401(14) 0.99199(17)
H3_13 H 0.1276 0.6747 0.9301
H4_13 H 0.1821 0.7031 0.9988
C8_13 C 0.06545(11) 0.63946(12) 0.9987(3)
N1_13 N 0.01681(11) 0.58815(9) 0.9913(2)
N2_13 N 0.01166(14) 0.64458(12) 0.8971(3)
C11_13 C 0.04580(14) 0.65997(11) 0.9334(3)
H7_13 H 0.0557 0.6845 0.9136
C10_12 C 0.99717(11) 0.60867(12) 0.9261(3)
H6_12 H 0.9738 0.5981 0.9013
O1_15 O 0.95954(16) 0.05116(15) 0.5005(3)
C1_15 C 0.96088(19) 0.05159(19) 0.4191(4)
C2_15 C 0.93980(13) 0.08456(11) 0.3733(2)
C3_15 C 0.92189(15) 0.11370(12) 0.42295(17)
H1_15 H 0.9212 0.1115 0.4848
C4_15 C 0.90503(14) 0.14607(11) 0.3821(2)
H2_15 H 0.8928 0.1660 0.4161
C5_15 C 0.90609(13) 0.14932(11) 0.2917(2)
C6_14 C 0.92401(14) 0.12018(14) 0.24199(17)
H3_14 H 0.9247 0.1224 0.1801
C7_15 C 0.94086(14) 0.08780(12) 0.2828(2)
H4_14 H 0.9531 0.0679 0.2488
C8_14 C 0.88946(12) 0.18455(11) 0.2487(3)
C9_15 C 0.85354(11) 0.19905(11) 0.2777(2)
H5_15 H 0.8395 0.1856 0.3223
N1_14 N 0.83815(9) 0.23319(11) 0.2413(2)
C10_13 C 0.85867(12) 0.25283(11) 0.1761(3)
H6_13 H 0.8481 0.2762 0.1513
N2_14 N 0.89458(12) 0.23834(14) 0.1471(3)
C11_14 C 0.90997(11) 0.20420(14) 0.1834(3)
H7_14 H 0.9345 0.1943 0.1636
O3_15 O 0.94558(14) 0.97579(14) 0.5642(3)
C12_15 C 0.94374(18) 0.95225(19) 0.5020(4)
C13_15 C 0.91230(12) 0.92160(11) 0.5049(3)
C14_15 C 0.88685(13) 0.91957(12) 0.5758(2)
H8_15 H 0.8883 0.9387 0.6209
C15_15 C 0.85927(12) 0.88950(13) 0.5809(2)
H9_15 H 0.8419 0.8881 0.6293
C16_15 C 0.85714(12) 0.86147(11) 0.5150(3)
C17_15 C 0.88259(14) 0.86350(12) 0.4441(2)
H10_15 H 0.8811 0.8443 0.3990
C18_15 C 0.91016(13) 0.89357(13) 0.4391(2)
H11_15 H 0.9276 0.8950 0.3906
C19_15 C 0.82844(11) 0.82917(10) 0.5197(2)
C20_15 C 0.82062(11) 0.81047(11) 0.59857(17)
H12_15 H 0.8319 0.8201 0.6511
C21_15 C 0.77974(10) 0.76357(9) 0.5236(2)
H13_11 H 0.7631 0.7411 0.5250
C22_15 C 0.81191(11) 0.81506(10) 0.44282(17)
H14_15 H 0.8173 0.8278 0.3889
O3_16 O 0.55442(14) 0.02421(14) 0.0642(3)
C12_16 C 0.55626(18) 0.04775(19) 0.0020(4)
C13_16 C 0.58770(12) 0.07840(11) 0.0049(3)
C14_16 C 0.61315(13) 0.08043(12) 0.0758(2)
H8_16 H 0.6117 0.0613 0.1209
C15_16 C 0.64073(12) 0.11050(13) 0.0809(2)
H9_16 H 0.6581 0.1119 0.1293
C16_16 C 0.64286(12) 0.13853(11) 0.0150(3)
C19_16 C 0.67156(11) 0.17083(10) 0.0197(2)
C20_16 C 0.67938(11) 0.18953(11) 0.09857(17)
H12_16 H 0.6681 0.1799 0.1511
C21_16 C 0.72026(10) 0.23643(9) 0.0236(2)
H13_12 H 0.7369 0.2589 0.0250
C17_16 C 0.61741(14) 0.13650(12) 0.9441(2)
H10_16 H 0.6189 0.1557 0.8990
C18_16 C 0.58984(13) 0.10643(13) 0.9391(2)
H11_16 H 0.5724 0.1050 0.8906
C22_16 C 0.68809(11) 0.18494(10) 0.94282(17)
H14_16 H 0.6827 0.1722 0.8889
O1_16 O 0.54046(16) 0.94884(15) 0.0005(3)
C1_16 C 0.53912(19) 0.94841(19) 0.9191(4)
C2_16 C 0.56020(13) 0.91544(11) 0.8733(2)
C3_16 C 0.57811(15) 0.88630(12) 0.92295(17)
H1_16 H 0.5788 0.8885 0.9848
C4_16 C 0.59497(14) 0.85393(11) 0.8821(2)
H2_16 H 0.6072 0.8340 0.9161
C5_16 C 0.59391(13) 0.85068(11) 0.7917(2)
C6_15 C 0.57599(14) 0.87982(14) 0.74199(17)
H3_15 H 0.5753 0.8776 0.6801
C7_16 C 0.55914(14) 0.91220(12) 0.7828(2)
H4_15 H 0.5469 0.9321 0.7488
C8_15 C 0.61054(12) 0.81545(11) 0.7487(3)
C9_16 C 0.64646(11) 0.80095(11) 0.7777(2)
H5_16 H 0.6605 0.8144 0.8223
N1_15 N 0.66185(9) 0.76681(11) 0.7413(2)
C10_14 C 0.64133(12) 0.74717(11) 0.6761(3)
H6_14 H 0.6519 0.7238 0.6513
N2_15 N 0.60542(12) 0.76166(14) 0.6471(3)
C11_15 C 0.59003(11) 0.79580(14) 0.6834(3)
H7_15 H 0.5655 0.8057 0.6636
I1_8 I 0.06020(2) 0.98976(2) 0.93468(3)
C10_15 C 0.00283(11) 0.89133(12) 0.9261(3)
H6_15 H 0.0262 0.9019 0.9013
C10_16 C 0.99717(11) 0.10867(12) 0.0739(3)
H6_16 H 0.9738 0.0981 0.0987
I2_8 I 0.93980(2) 0.01024(2) 0.06532(3)
H13_13 H 0.9911 0.9869 0.2250
H13_14 H 0.0089 0.5131 0.2250
C6_16 C 0.87018(14) 0.82599(14) 0.99199(17)
H3_16 H 0.8724 0.8253 0.9301
H4_16 H 0.8179 0.7969 0.9988
C8_16 C 0.93455(11) 0.86054(12) 0.9987(3)
N1_16 N 0.98319(11) 0.91185(9) 0.9913(2)
N2_16 N 0.98834(14) 0.85542(12) 0.8971(3)
C11_16 C 0.95420(14) 0.84003(11) 0.9334(3)
H7_16 H 0.9443 0.8155 0.9136
H13_15 H 0.0089 0.0131 0.7750
H13_16 H 0.9911 0.4869 0.7750
loop_
_geom_bond_atom_site_label_1
_geom_bond_atom_site_label_2
_geom_bond_site_symmetry_1
_geom_bond_site_symmetry_2
H3 C6 1_555 1_555
C11 C8 1_555 1_555
H7 C11 1_555 1_555
N2 C11 1_555 1_555
Cu1 O1 1_555 1_555
O1 C1 1_555 1_555
O2 C1 1_555 1_555
C1 C2 1_555 1_555
C2 C3 1_555 1_555
C3 H1 1_555 1_555
C4 C3 1_555 1_555
H2 C4 1_555 1_555
C5 C4 1_555 1_555
C7 C2 1_555 1_555
H5 C9 1_555 1_555
O3 Cu1 1_555 1_555
O4 C12 1_555 1_555
C12 O3 1_555 1_555
C13 C12 1_555 1_555
C14 C13 1_555 1_555
H8 C14 1_555 1_555
C15 C14 1_555 1_555
H9 C15 1_555 1_555
C16 C15 1_555 1_555
C17 C16 1_555 1_555
H10 C17 1_555 1_555
C18 C13 1_555 1_555
H11 C18 1_555 1_555
C19 C16 1_555 1_555
C20 C19 1_555 1_555
H12 C20 1_555 1_555
N3 C20 1_555 1_555
C21 N3 1_555 1_555
H13 C21 1_555 1_555
N4 C21 1_555 1_555
C22 C19 1_555 1_555
H14 C22 1_555 1_555
Cu3 N4 1_555 1_555
Cu4 O2 1_555 1_555
Cu6 N3 1_555 1_555
O5 Cu1 1_555 1_555
O6 Cu1 1_555 1_555
N6 Cu1 1_555 1_555
O4 Cu4 1_555 1_555
C17 C18 1_555 1_555
N4 C22 1_555 1_555
N5 Cu2 1_555 1_555
I1 Cu6 1_555 1_555
Cu1_2 O1_2 1_555 1_555
O1_2 C1_2 1_555 1_555
O2_2 C1_2 1_555 1_555
C1_2 C2_2 1_555 1_555
C2_2 C3_2 1_555 1_555
C3_2 H1_2 1_555 1_555
C4_2 C3_2 1_555 1_555
H2_2 C4_2 1_555 1_555
C5_2 C4_2 1_555 1_555
C6_2 C5_2 1_555 1_555
H3_2 C6_2 1_555 1_555
C7_2 C2_2 1_555 1_555
H4_2 C7_2 1_555 1_555
C8_2 C5_2 1_555 1_555
C9_2 C8_2 1_555 1_555
H5_2 C9_2 1_555 1_555
N1_2 Cu2_2 1_555 1_555
C10 N1_2 1_555 1_555
H6 C10 1_555 1_555
N2_2 C10 1_555 1_555
C11_2 C8_2 1_555 1_555
H7_2 C11_2 1_555 1_555
O3_2 Cu1_2 1_555 1_555
O4_2 C12_2 1_555 1_555
C12_2 O3_2 1_555 1_555
C13_2 C12_2 1_555 1_555
C14_2 C13_2 1_555 1_555
H8_2 C14_2 1_555 1_555
C15_2 C14_2 1_555 1_555
H9_2 C15_2 1_555 1_555
C16_2 C15_2 1_555 1_555
C17_2 C16_2 1_555 1_555
H10_2 C17_2 1_555 1_555
C18_2 C13_2 1_555 1_555
H11_2 C18_2 1_555 1_555
C19_2 C16_2 1_555 1_555
C20_2 C19_2 1_555 1_555
H12_2 C20_2 1_555 1_555
N3_2 C20_2 1_555 1_555
C21_2 N3_2 1_555 1_555
N4_2 C21_2 1_555 1_555
C22_2 C19_2 1_555 1_555
H14_2 C22_2 1_555 1_555
Cu3_2 N4_2 1_555 1_555
Cu4_2 O2_2 1_555 1_555
Cu5 N3_2 1_555 1_555
I2 Cu2_2 1_555 1_555
O5_2 Cu1_2 1_555 1_555
O6_2 Cu1_2 1_555 1_555
N5_2 Cu2_2 1_555 1_555
N6_2 Cu1_2 1_555 1_555
C6_2 C7_2 1_555 1_555
C9_2 N1_2 1_555 1_555
N2_2 C11_2 1_555 1_555
O4_2 Cu4_2 1_555 1_555
C17_2 C18_2 1_555 1_555
N4_2 C22_2 1_555 1_555
Cu2_3 I1_2 1_555 1_555
I1_2 Cu5_2 1_555 1_555
O2_3 C1_3 1_555 1_555
C1_3 C2_3 1_555 1_555
C2_3 C3_3 1_555 1_555
C3_3 H1_3 1_555 1_555
C4_3 C3_3 1_555 1_555
H2_3 C4_3 1_555 1_555
C5_3 C4_3 1_555 1_555
C6_3 C5_3 1_555 1_555
H3_3 C6_3 1_555 1_555
C7_3 C2_3 1_555 1_555
H4_3 C7_3 1_555 1_555
C8_3 C5_3 1_555 1_555
C9_3 C8_3 1_555 1_555
H5_3 C9_3 1_555 1_555
N1_3 Cu2_3 1_555 1_555
C10_2 N1_3 1_555 1_555
H6_2 C10_2 1_555 1_555
N2_3 C10_2 1_555 1_555
C11_3 C8_3 1_555 1_555
H7_3 C11_3 1_555 1_555
H10_3 C17_3 1_555 1_555
H11_3 C18_3 1_555 1_555
H14_3 C22_3 1_555 1_555
Cu3_3 N4_3 1_555 1_555
Cu4_3 O2_3 1_555 1_555
Cu5_2 I2_2 1_555 1_555
I2_2 Cu2_3 1_555 1_555
N5_3 Cu2_3 1_555 1_555
C6_3 C7_3 1_555 1_555
C9_3 N1_3 1_555 1_555
N2_3 C11_3 1_555 1_555
O4_3 Cu4_3 1_555 1_555
C17_3 C18_3 1_555 1_555
N4_3 C22_3 1_555 1_555
Cu1_3 O1_3 1_555 1_555
O3_3 Cu1_3 1_555 1_555
C12_3 O3_3 1_555 1_555
C13_3 C12_3 1_555 1_555
C14_3 C13_3 1_555 1_555
H8_3 C14_3 1_555 1_555
C15_3 C14_3 1_555 1_555
H9_3 C15_3 1_555 1_555
C16_3 C15_3 1_555 1_555
C19_3 C16_3 1_555 1_555
C20_3 C19_3 1_555 1_555
H12_3 C20_3 1_555 1_555
N3_3 C20_3 1_555 1_555
C21_3 N3_3 1_555 1_555
H13_2 C21_3 1_555 1_555
Cu6_2 N3_3 1_555 1_555
O5_3 Cu1_3 1_555 1_555
O6_3 Cu1_3 1_555 1_555
N6_3 Cu1_3 1_555 1_555
Cu1_4 O1_4 1_555 1_555
Cu2_4 I1_3 1_555 1_555
I1_3 Cu6_2 1_555 1_555
O1_4 C1_4 1_555 1_555
O2_4 C1_4 1_555 1_555
C1_4 C2_4 1_555 1_555
C2_4 C3_4 1_555 1_555
C3_4 H1_4 1_555 1_555
C4_4 C3_4 1_555 1_555
H2_4 C4_4 1_555 1_555
C5_4 C4_4 1_555 1_555
C6_4 C5_4 1_555 1_555
H3_4 C6_4 1_555 1_555
C7_4 C2_4 1_555 1_555
H4_4 C7_4 1_555 1_555
C8_4 C5_4 1_555 1_555
C9_4 C8_4 1_555 1_555
H5_4 C9_4 1_555 1_555
N1_4 Cu2_4 1_555 1_555
C10_3 N1_4 1_555 1_555
H6_3 C10_3 1_555 1_555
N2_4 C10_3 1_555 1_555
C11_4 C8_4 1_555 1_555
H7_4 C11_4 1_555 1_555
O3_4 Cu1_4 1_555 1_555
O4_4 C12_4 1_555 1_555
C12_4 O3_4 1_555 1_555
C13_4 C12_4 1_555 1_555
C14_4 C13_4 1_555 1_555
H8_4 C14_4 1_555 1_555
C15_4 C14_4 1_555 1_555
H9_4 C15_4 1_555 1_555
C16_4 C15_4 1_555 1_555
C17_4 C16_4 1_555 1_555
H10_4 C17_4 1_555 1_555
C18_4 C13_4 1_555 1_555
H11_4 C18_4 1_555 1_555
C19_4 C16_4 1_555 1_555
C20_4 C19_4 1_555 1_555
H12_4 C20_4 1_555 1_555
N3_4 C20_4 1_555 1_555
C21_4 N3_4 1_555 1_555
H13_3 C21_4 1_555 1_555
N4_4 C21_4 1_555 1_555
C22_4 C19_4 1_555 1_555
H14_4 C22_4 1_555 1_555
Cu3_4 N4_4 1_555 1_555
Cu6_2 I2_3 1_555 1_555
Cu5_2 N3_4 1_555 1_555
I2_3 Cu2_4 1_555 1_555
N5_4 Cu2_4 1_555 1_555
N6_4 Cu1_4 1_555 1_555
C6_4 C7_4 1_555 1_555
C9_4 N1_4 1_555 1_555
N2_4 C11_4 1_555 1_555
C17_4 C18_4 1_555 1_555
N4_4 C22_4 1_555 1_555
Cu3_3 O1_5 1_555 1_555
Cu2_5 I1_4 1_555 1_555
I1_4 Cu5_3 1_555 1_555
O1_5 C1_5 1_555 1_555
O2_5 C1_5 1_555 1_555
C1_5 C2_5 1_555 1_555
C2_5 C3_5 1_555 1_555
C3_5 H1_5 1_555 1_555
C4_5 C3_5 1_555 1_555
H2_5 C4_5 1_555 1_555
C5_5 C4_5 1_555 1_555
C6_5 C5_5 1_555 1_555
H3_5 C6_5 1_555 1_555
C7_5 C2_5 1_555 1_555
H4_5 C7_5 1_555 1_555
C8_5 C5_5 1_555 1_555
C9_5 C8_5 1_555 1_555
H5_5 C9_5 1_555 1_555
N1_5 Cu2_5 1_555 1_555
C10_4 N1_5 1_555 1_555
H6_4 C10_4 1_555 1_555
N2_5 C10_4 1_555 1_555
C11_5 C8_5 1_555 1_555
H7_5 C11_5 1_555 1_555
O3_5 Cu3_3 1_555 1_555
O4_5 C12_5 1_555 1_555
C12_5 O3_5 1_555 1_555
C13_5 C12_5 1_555 1_555
C14_5 C13_5 1_555 1_555
H8_5 C14_5 1_555 1_555
C15_5 C14_5 1_555 1_555
H9_5 C15_5 1_555 1_555
C16_5 C15_5 1_555 1_555
C17_5 C16_5 1_555 1_555
H10_5 C17_5 1_555 1_555
C18_5 C13_5 1_555 1_555
H11_5 C18_5 1_555 1_555
C19_5 C16_5 1_555 1_555
C20_5 C19_5 1_555 1_555
H12_5 C20_5 1_555 1_555
N3_5 C20_5 1_555 1_555
C21_5 N3_5 1_555 1_555
N6_4 C21_5 1_555 1_555
C22_5 C19_5 1_555 1_555
H14_5 C22_5 1_555 1_555
Cu4_5 O2_5 1_555 1_555
Cu5_3 I2_4 1_555 1_555
Cu6_3 N3_5 1_555 1_555
I2_4 Cu2_5 1_555 1_555
O5_5 Cu3_3 1_555 1_555
O6_5 Cu3_3 1_555 1_555
N5_5 Cu2_5 1_555 1_555
C6_5 C7_5 1_555 1_555
C9_5 N1_5 1_555 1_555
N2_5 C11_5 1_555 1_555
O4_5 Cu4_5 1_555 1_555
C17_5 C18_5 1_555 1_555
N6_4 C22_5 1_555 1_555
H6_5 C10_5 1_555 1_555
N5_6 Cu2_6 1_555 1_555
H3_6 C6_6 1_555 1_555
C11_6 C8_6 1_555 1_555
H7_6 C11_6 1_555 1_555
N2_6 C11_6 1_555 1_555
Cu3_4 O1_6 1_555 1_555
O1_6 C1_6 1_555 1_555
O2_6 C1_6 1_555 1_555
C1_6 C2_6 1_555 1_555
C2_6 C3_6 1_555 1_555
C3_6 H1_6 1_555 1_555
C4_6 C3_6 1_555 1_555
H2_6 C4_6 1_555 1_555
C5_6 C4_6 1_555 1_555
C7_6 C2_6 1_555 1_555
H5_6 C9_6 1_555 1_555
O3_6 Cu3_4 1_555 1_555
O4_6 C12_6 1_555 1_555
C12_6 O3_6 1_555 1_555
C13_6 C12_6 1_555 1_555
C14_6 C13_6 1_555 1_555
H8_6 C14_6 1_555 1_555
C15_6 C14_6 1_555 1_555
H9_6 C15_6 1_555 1_555
C16_6 C15_6 1_555 1_555
C17_6 C16_6 1_555 1_555
H10_6 C17_6 1_555 1_555
C18_6 C13_6 1_555 1_555
H11_6 C18_6 1_555 1_555
C19_6 C16_6 1_555 1_555
C20_6 C19_6 1_555 1_555
H12_6 C20_6 1_555 1_555
N3_6 C20_6 1_555 1_555
C21_6 N3_6 1_555 1_555
H13_4 C21_6 1_555 1_555
N6_3 C21_6 1_555 1_555
C22_6 C19_6 1_555 1_555
H14_6 C22_6 1_555 1_555
Cu4_6 O2_6 1_555 1_555
Cu5_3 N3_6 1_555 1_555
O5_6 Cu3_4 1_555 1_555
O6_6 Cu3_4 1_555 1_555
O4_6 Cu4_6 1_555 1_555
C17_6 C18_6 1_555 1_555
N6_3 C22_6 1_555 1_555
O4_7 C12_7 1_555 1_555
C12_7 O3_7 1_555 1_555
C13_7 C12_7 1_555 1_555
C14_7 C13_7 1_555 1_555
H8_7 C14_7 1_555 1_555
C15_7 C14_7 1_555 1_555
H9_7 C15_7 1_555 1_555
C16_7 C15_7 1_555 1_555
C17_7 C16_7 1_555 1_555
H10_7 C17_7 1_555 1_555
C18_7 C13_7 1_555 1_555
H11_7 C18_7 1_555 1_555
C19_7 C16_7 1_555 1_555
C20_7 C19_7 1_555 1_555
H12_7 C20_7 1_555 1_555
N3_7 C20_7 1_555 1_555
C21_7 N3_7 1_555 1_555
H13_5 C21_7 1_555 1_555
N6 C21_7 1_555 1_555
C22_7 C19_7 1_555 1_555
H14_7 C22_7 1_555 1_555
Cu6_4 N3_7 1_555 1_555
C17_7 C18_7 1_555 1_555
N6 C22_7 1_555 1_555
Cu3_2 O1_7 1_555 1_555
Cu2_7 I1_6 1_555 1_555
I1_6 Cu5_4 1_555 1_555
O1_7 C1_7 1_555 1_555
O2_7 C1_7 1_555 1_555
C1_7 C2_7 1_555 1_555
C2_7 C3_7 1_555 1_555
C3_7 H1_7 1_555 1_555
C4_7 C3_7 1_555 1_555
H2_7 C4_7 1_555 1_555
C5_7 C4_7 1_555 1_555
C6_7 C5_7 1_555 1_555
H3_7 C6_7 1_555 1_555
C7_7 C2_7 1_555 1_555
H4_7 C7_7 1_555 1_555
C8_7 C5_7 1_555 1_555
C9_7 C8_7 1_555 1_555
H5_7 C9_7 1_555 1_555
N1_7 Cu2_7 1_555 1_555
C10_6 N1_7 1_555 1_555
H6_6 C10_6 1_555 1_555
N2_7 C10_6 1_555 1_555
C11_7 C8_7 1_555 1_555
H7_7 C11_7 1_555 1_555
Cu5_4 I2_6 1_555 1_555
I2_6 Cu2_7 1_555 1_555
N5_7 Cu2_7 1_555 1_555
C6_7 C7_7 1_555 1_555
C9_7 N1_7 1_555 1_555
N2_7 C11_7 1_555 1_555
Cu2_8 I1_7 1_555 1_555
I1_7 Cu6_4 1_555 1_555
O2_8 C1_8 1_555 1_555
C1_8 C2_8 1_555 1_555
C2_8 C3_8 1_555 1_555
C3_8 H1_8 1_555 1_555
C4_8 C3_8 1_555 1_555
H2_8 C4_8 1_555 1_555
C5_8 C4_8 1_555 1_555
C6_8 C5_8 1_555 1_555
H3_8 C6_8 1_555 1_555
C7_8 C2_8 1_555 1_555
H4_8 C7_8 1_555 1_555
C8_8 C5_8 1_555 1_555
C9_8 C8_8 1_555 1_555
H5_8 C9_8 1_555 1_555
N1_8 Cu2_8 1_555 1_555
C10_7 N1_8 1_555 1_555
H6_7 C10_7 1_555 1_555
N2_8 C10_7 1_555 1_555
C11_8 C8_8 1_555 1_555
H7_8 C11_8 1_555 1_555
Cu6_4 I2_7 1_555 1_555
I2_7 Cu2_8 1_555 1_555
N5_8 Cu2_8 1_555 1_555
C6_8 C7_8 1_555 1_555
C9_8 N1_8 1_555 1_555
N2_8 C11_8 1_555 1_555
Cu3 O1_8 1_555 1_555
O6_8 Cu3 1_555 1_555
H10_8 C17_8 1_555 1_555
H11_8 C18_8 1_555 1_555
H14_8 C22_8 1_555 1_555
O4_8 Cu4_8 1_555 1_555
C17_8 C18_8 1_555 1_555
N6_2 C22_8 1_555 1_555
C12_8 O3_8 1_555 1_555
C13_8 C12_8 1_555 1_555
C14_8 C13_8 1_555 1_555
H8_8 C14_8 1_555 1_555
C15_8 C14_8 1_555 1_555
H9_8 C15_8 1_555 1_555
C16_8 C15_8 1_555 1_555
C19_8 C16_8 1_555 1_555
C20_8 C19_8 1_555 1_555
H12_8 C20_8 1_555 1_555
N3_8 C20_8 1_555 1_555
C21_8 N3_8 1_555 1_555
H13_6 C21_8 1_555 1_555
Cu5_4 N3_8 1_555 1_555
Cu4_5 O1_9 1_555 1_555
O1_9 C1_9 1_555 1_555
O5_5 C1_9 1_555 1_555
C1_9 C2_9 1_555 1_555
C2_9 C3_9 1_555 1_555
C3_9 H1_9 1_555 1_555
C4_9 C3_9 1_555 1_555
H2_9 C4_9 1_555 1_555
C5_9 C4_9 1_555 1_555
C7_9 C2_9 1_555 1_555
H5_9 C9_9 1_555 1_555
O3_9 Cu4_5 1_555 1_555
O6_5 C12_9 1_555 1_555
C12_9 O3_9 1_555 1_555
C13_9 C12_9 1_555 1_555
C14_9 C13_9 1_555 1_555
H8_9 C14_9 1_555 1_555
C15_9 C14_9 1_555 1_555
H9_9 C15_9 1_555 1_555
C16_9 C15_9 1_555 1_555
C17_9 C16_9 1_555 1_555
H10_9 C17_9 1_555 1_555
C18_9 C13_9 1_555 1_555
H11_9 C18_9 1_555 1_555
C19_9 C16_9 1_555 1_555
C20_9 C19_9 1_555 1_555
H12_9 C20_9 1_555 1_555
N5_2 C20_9 1_555 1_555
C21_9 N5_2 1_555 1_555
H13_7 C21_9 1_555 1_555
N4_5 C21_9 1_555 1_555
C22_9 C19_9 1_555 1_555
H14_9 C22_9 1_555 1_555
Cu4_8 N4_5 1_555 1_555
N6_5 Cu4_5 1_555 1_555
C17_9 C18_9 1_555 1_555
N4_5 C22_9 1_555 1_555
Cu4_6 O1_10 1_555 1_555
O1_10 C1_10 1_555 1_555
O5_6 C1_10 1_555 1_555
C1_10 C2_10 1_555 1_555
C2_10 C3_10 1_555 1_555
C3_10 H1_10 1_555 1_555
C4_10 C3_10 1_555 1_555
H2_10 C4_10 1_555 1_555
C5_10 C4_10 1_555 1_555
C6_9 C5_10 1_555 1_555
H3_9 C6_9 1_555 1_555
C7_10 C2_10 1_555 1_555
H4_9 C7_10 1_555 1_555
C8_9 C5_10 1_555 1_555
C9_10 C8_9 1_555 1_555
H5_10 C9_10 1_555 1_555
N1_9 Cu6 1_555 1_555
C10_8 N1_9 1_555 1_555
H6_8 C10_8 1_555 1_555
N2_9 C10_8 1_555 1_555
C11_9 C8_9 1_555 1_555
H7_9 C11_9 1_555 1_555
O3_10 Cu4_6 1_555 1_555
O6_6 C12_10 1_555 1_555
C12_10 O3_10 1_555 1_555
C13_10 C12_10 1_555 1_555
C14_10 C13_10 1_555 1_555
H8_10 C14_10 1_555 1_555
C15_10 C14_10 1_555 1_555
H9_10 C15_10 1_555 1_555
C16_10 C15_10 1_555 1_555
C17_10 C16_10 1_555 1_555
H10_10 C17_10 1_555 1_555
C18_10 C13_10 1_555 1_555
H11_10 C18_10 1_555 1_555
C19_10 C16_10 1_555 1_555
C20_10 C19_10 1_555 1_555
H12_10 C20_10 1_555 1_555
N5 C20_10 1_555 1_555
C21_10 N5 1_555 1_555
N4_6 C21_10 1_555 1_555
C22_10 C19_10 1_555 1_555
H14_10 C22_10 1_555 1_555
Cu4_7 N4_6 1_555 1_555
N6_6 Cu4_6 1_555 1_555
C6_9 C7_10 1_555 1_555
C9_10 N1_9 1_555 1_555
N2_9 C11_9 1_555 1_555
C17_10 C18_10 1_555 1_555
N4_6 C22_10 1_555 1_555
Cu4_3 O1_11 1_555 1_555
O3_11 Cu4_3 1_555 1_555
C12_11 O3_11 1_555 1_555
C13_11 C12_11 1_555 1_555
C14_11 C13_11 1_555 1_555
H8_11 C14_11 1_555 1_555
C15_11 C14_11 1_555 1_555
H9_11 C15_11 1_555 1_555
C16_11 C15_11 1_555 1_555
C19_11 C16_11 1_555 1_555
C20_11 C19_11 1_555 1_555
H12_11 C20_11 1_555 1_555
N5_8 C20_11 1_555 1_555
C21_11 N5_8 1_555 1_555
H13_8 C21_11 1_555 1_555
N6_7 Cu4_3 1_555 1_555
O5_3 C1_11 1_555 1_555
C1_11 C2_11 1_555 1_555
C2_11 C3_11 1_555 1_555
C3_11 H1_11 1_555 1_555
C4_11 C3_11 1_555 1_555
H2_11 C4_11 1_555 1_555
C5_11 C4_11 1_555 1_555
C6_10 C5_11 1_555 1_555
H3_10 C6_10 1_555 1_555
C7_11 C2_11 1_555 1_555
H4_10 C7_11 1_555 1_555
C8_10 C5_11 1_555 1_555
C9_11 C8_10 1_555 1_555
H5_11 C9_11 1_555 1_555
N1_10 Cu5_4 1_555 1_555
C10_9 N1_10 1_555 1_555
H6_9 C10_9 1_555 1_555
N2_10 C10_9 1_555 1_555
C11_10 C8_10 1_555 1_555
H7_10 C11_10 1_555 1_555
H10_11 C17_11 1_555 1_555
H11_11 C18_11 1_555 1_555
H14_11 C22_11 1_555 1_555
Cu4 N4_7 1_555 1_555
C6_10 C7_11 1_555 1_555
C9_11 N1_10 1_555 1_555
N2_10 C11_10 1_555 1_555
C17_11 C18_11 1_555 1_555
N4_7 C22_11 1_555 1_555
Cu4_4 O1_12 1_555 1_555
O1_12 C1_12 1_555 1_555
O5_4 C1_12 1_555 1_555
C1_12 C2_12 1_555 1_555
C2_12 C3_12 1_555 1_555
C3_12 H1_12 1_555 1_555
C4_12 C3_12 1_555 1_555
H2_12 C4_12 1_555 1_555
C5_12 C4_12 1_555 1_555
C6_11 C5_12 1_555 1_555
H3_11 C6_11 1_555 1_555
C7_12 C2_12 1_555 1_555
H4_11 C7_12 1_555 1_555
C8_11 C5_12 1_555 1_555
C9_12 C8_11 1_555 1_555
H5_12 C9_12 1_555 1_555
N1_11 Cu6_4 1_555 1_555
C10_10 N1_11 1_555 1_555
H6_10 C10_10 1_555 1_555
N2_11 C10_10 1_555 1_555
C11_11 C8_11 1_555 1_555
H7_11 C11_11 1_555 1_555
O3_12 Cu4_4 1_555 1_555
O6_4 C12_12 1_555 1_555
C12_12 O3_12 1_555 1_555
C13_12 C12_12 1_555 1_555
C14_12 C13_12 1_555 1_555
H8_12 C14_12 1_555 1_555
C15_12 C14_12 1_555 1_555
H9_12 C15_12 1_555 1_555
C16_12 C15_12 1_555 1_555
C17_12 C16_12 1_555 1_555
H10_12 C17_12 1_555 1_555
C18_12 C13_12 1_555 1_555
H11_12 C18_12 1_555 1_555
C19_12 C16_12 1_555 1_555
C20_12 C19_12 1_555 1_555
H12_12 C20_12 1_555 1_555
N5_7 C20_12 1_555 1_555
C21_12 N5_7 1_555 1_555
H13_9 C21_12 1_555 1_555
N4_8 C21_12 1_555 1_555
C22_12 C19_12 1_555 1_555
H14_12 C22_12 1_555 1_555
Cu4_2 N4_8 1_555 1_555
N6_8 Cu4_4 1_555 1_555
C6_11 C7_12 1_555 1_555
C9_12 N1_11 1_555 1_555
N2_11 C11_11 1_555 1_555
C17_12 C18_12 1_555 1_555
N4_8 C22_12 1_555 1_555
Cu4 O1_13 1_555 1_555
O1_13 C1_13 1_555 1_555
O5 C1_13 1_555 1_555
C1_13 C2_13 1_555 1_555
C2_13 C3_13 1_555 1_555
C3_13 H1_13 1_555 1_555
C4_13 C3_13 1_555 1_555
H2_13 C4_13 1_555 1_555
C5_13 C4_13 1_555 1_555
C6_12 C5_13 1_555 1_555
H3_12 C6_12 1_555 1_555
C7_13 C2_13 1_555 1_555
H4_12 C7_13 1_555 1_555
C8_12 C5_13 1_555 1_555
C9_13 C8_12 1_555 1_555
H5_13 C9_13 1_555 1_555
N1_12 Cu5_3 1_555 1_555
C10_11 N1_12 1_555 1_555
H6_11 C10_11 1_555 1_555
N2_12 C10_11 1_555 1_555
C11_12 C8_12 1_555 1_555
H7_12 C11_12 1_555 1_555
O3_13 Cu4 1_555 1_555
O6 C12_13 1_555 1_555
C12_13 O3_13 1_555 1_555
C13_13 C12_13 1_555 1_555
C14_13 C13_13 1_555 1_555
H8_13 C14_13 1_555 1_555
C15_13 C14_13 1_555 1_555
H9_13 C15_13 1_555 1_555
C16_13 C15_13 1_555 1_555
C17_13 C16_13 1_555 1_555
H10_13 C17_13 1_555 1_555
C18_13 C13_13 1_555 1_555
H11_13 C18_13 1_555 1_555
C19_13 C16_13 1_555 1_555
C20_13 C19_13 1_555 1_555
H12_13 C20_13 1_555 1_555
N5_6 C20_13 1_555 1_555
C21_13 N5_6 1_555 1_555
N6_8 C21_13 1_555 1_555
C22_13 C19_13 1_555 1_555
H14_13 C22_13 1_555 1_555
C6_12 C7_13 1_555 1_555
C9_13 N1_12 1_555 1_555
N2_12 C11_12 1_555 1_555
C17_13 C18_13 1_555 1_555
N6_8 C22_13 1_555 1_555
Cu4_2 O1_14 1_555 1_555
O1_14 C1_14 1_555 1_555
O5_2 C1_14 1_555 1_555
C1_14 C2_14 1_555 1_555
C2_14 C3_14 1_555 1_555
C3_14 H1_14 1_555 1_555
C4_14 C3_14 1_555 1_555
H2_14 C4_14 1_555 1_555
C5_14 C4_14 1_555 1_555
C7_14 C2_14 1_555 1_555
H5_14 C9_14 1_555 1_555
O3_14 Cu4_2 1_555 1_555
O6_2 C12_14 1_555 1_555
C12_14 O3_14 1_555 1_555
C13_14 C12_14 1_555 1_555
C14_14 C13_14 1_555 1_555
H8_14 C14_14 1_555 1_555
C15_14 C14_14 1_555 1_555
H9_14 C15_14 1_555 1_555
C16_14 C15_14 1_555 1_555
C17_14 C16_14 1_555 1_555
H10_14 C17_14 1_555 1_555
C18_14 C13_14 1_555 1_555
H11_14 C18_14 1_555 1_555
C19_14 C16_14 1_555 1_555
C20_14 C19_14 1_555 1_555
H12_14 C20_14 1_555 1_555
N5_5 C20_14 1_555 1_555
C21_14 N5_5 1_555 1_555
H13_10 C21_14 1_555 1_555
N6_7 C21_14 1_555 1_555
C22_14 C19_14 1_555 1_555
H14_14 C22_14 1_555 1_555
C17_14 C18_14 1_555 1_555
N6_7 C22_14 1_555 1_555
H3_13 C6_13 1_555 1_555
C11_13 C8_13 1_555 1_555
H7_13 C11_13 1_555 1_555
N2_13 C11_13 1_555 1_555
H6_12 C10_12 1_555 1_555
Cu4_7 O1_15 1_555 1_555
O1_15 C1_15 1_555 1_555
O5_7 C1_15 1_555 1_555
C1_15 C2_15 1_555 1_555
C2_15 C3_15 1_555 1_555
C3_15 H1_15 1_555 1_555
C4_15 C3_15 1_555 1_555
H2_15 C4_15 1_555 1_555
C5_15 C4_15 1_555 1_555
C6_14 C5_15 1_555 1_555
H3_14 C6_14 1_555 1_555
C7_15 C2_15 1_555 1_555
H4_14 C7_15 1_555 1_555
C8_14 C5_15 1_555 1_555
C9_15 C8_14 1_555 1_555
H5_15 C9_15 1_555 1_555
N1_14 Cu5_2 1_555 1_555
C10_13 N1_14 1_555 1_555
H6_13 C10_13 1_555 1_555
N2_14 C10_13 1_555 1_555
C11_14 C8_14 1_555 1_555
H7_14 C11_14 1_555 1_555
C6_14 C7_15 1_555 1_555
C9_15 N1_14 1_555 1_555
N2_14 C11_14 1_555 1_555
O6_7 C12_15 1_555 1_555
C12_15 O3_15 1_555 1_555
C13_15 C12_15 1_555 1_555
C14_15 C13_15 1_555 1_555
H8_15 C14_15 1_555 1_555
C15_15 C14_15 1_555 1_555
H9_15 C15_15 1_555 1_555
C16_15 C15_15 1_555 1_555
C17_15 C16_15 1_555 1_555
H10_15 C17_15 1_555 1_555
C18_15 C13_15 1_555 1_555
H11_15 C18_15 1_555 1_555
C19_15 C16_15 1_555 1_555
C20_15 C19_15 1_555 1_555
H12_15 C20_15 1_555 1_555
N5_4 C20_15 1_555 1_555
C21_15 N5_4 1_555 1_555
H13_11 C21_15 1_555 1_555
N6_5 C21_15 1_555 1_555
C22_15 C19_15 1_555 1_555
H14_15 C22_15 1_555 1_555
C17_15 C18_15 1_555 1_555
N6_5 C22_15 1_555 1_555
C12_16 O3_16 1_555 1_555
C13_16 C12_16 1_555 1_555
C14_16 C13_16 1_555 1_555
H8_16 C14_16 1_555 1_555
C15_16 C14_16 1_555 1_555
H9_16 C15_16 1_555 1_555
C16_16 C15_16 1_555 1_555
C19_16 C16_16 1_555 1_555
C20_16 C19_16 1_555 1_555
H12_16 C20_16 1_555 1_555
N5_3 C20_16 1_555 1_555
C21_16 N5_3 1_555 1_555
H13_12 C21_16 1_555 1_555
H10_16 C17_16 1_555 1_555
H11_16 C18_16 1_555 1_555
H14_16 C22_16 1_555 1_555
C17_16 C18_16 1_555 1_555
N6_6 C22_16 1_555 1_555
Cu4_8 O1_16 1_555 1_555
O5_8 C1_16 1_555 1_555
C1_16 C2_16 1_555 1_555
C2_16 C3_16 1_555 1_555
C3_16 H1_16 1_555 1_555
C4_16 C3_16 1_555 1_555
H2_16 C4_16 1_555 1_555
C5_16 C4_16 1_555 1_555
C6_15 C5_16 1_555 1_555
H3_15 C6_15 1_555 1_555
C7_16 C2_16 1_555 1_555
H4_15 C7_16 1_555 1_555
C8_15 C5_16 1_555 1_555
C9_16 C8_15 1_555 1_555
H5_16 C9_16 1_555 1_555
N1_15 Cu6_2 1_555 1_555
C10_14 N1_15 1_555 1_555
H6_14 C10_14 1_555 1_555
N2_15 C10_14 1_555 1_555
C11_15 C8_15 1_555 1_555
H7_15 C11_15 1_555 1_555
C6_15 C7_16 1_555 1_555
C9_16 N1_15 1_555 1_555
N2_15 C11_15 1_555 1_555
H6_15 C10_15 1_555 1_555
H6_16 C10_16 1_555 1_555
H3_16 C6_16 1_555 1_555
C11_16 C8_16 1_555 1_555
H7_16 C11_16 1_555 1_555
N2_16 C11_16 1_555 1_555

#END
